
#######################################################################
#
#                 Cambridge Crystallographic Data Centre
#                                CCDC 
#
#######################################################################
#
# If this CIF has been generated from an entry in the Cambridge 
# Structural Database, then it will include bibliographic, chemical, 
# crystal, experimental, refinement or atomic coordinate data resulting 
# from the CCDC's data processing and validation procedures.
#
#######################################################################

data_XUCNOZ
_chemical_formula_moiety         '(C36 H66 Cd2 N6 O36 P6 Zn7)n'
_symmetry_cell_setting           monoclinic
_symmetry_space_group_name_H-M   'C 2/c'
_symmetry_Int_Tables_number      15
_space_group_name_Hall           '-C 2yc'
loop_
_symmetry_equiv_pos_site_id
_symmetry_equiv_pos_as_xyz
1 x,y,z
2 -x,y,1/2-z
3 1/2+x,1/2+y,z
4 1/2-x,1/2+y,1/2-z
5 -x,-y,-z
6 x,-y,1/2+z
7 1/2-x,1/2-y,-z
8 1/2+x,1/2-y,1/2+z
_cell_length_a                   21.982(4)
_cell_length_b                   15.977(3)
_cell_length_c                   25.818(5)
_cell_angle_alpha                90
_cell_angle_beta                 109.50(3)
_cell_angle_gamma                90
_cell_volume                     8547.35
loop_
_atom_site_label
_atom_site_type_symbol
_atom_site_fract_x
_atom_site_fract_y
_atom_site_fract_z
_atom_site_U_iso_or_equiv
_atom_site_thermal_displace_type
C1 C 0.6247(4) 0.8942(4) 0.8488(3) 0.0335 Uani
H1 H 0.6467 0.8414 0.8491 0.0410 Uiso
H2 H 0.5799 0.8884 0.8258 0.0410 Uiso
C2 C 0.6299(4) 0.9201(4) 0.9072(3) 0.0315 Uani
H3 H 0.5974 0.8926 0.9191 0.0380 Uiso
H4 H 0.6724 0.9082 0.9333 0.0380 Uiso
C3 C 0.6176(3) 1.0143(4) 0.8998(3) 0.0278 Uani
H5 H 0.5721 1.0259 0.8819 0.0330 Uiso
H6 H 0.6325 1.0431 0.9349 0.0330 Uiso
C4 C 0.6296(3) 1.1164(4) 0.8325(2) 0.0212 Uani
H7 H 0.5834 1.1101 0.8151 0.0250 Uiso
H8 H 0.6485 1.1241 0.8038 0.0250 Uiso
C5 C 0.6574(3) 0.9650(4) 0.8282(3) 0.0244 Uani
H9 H 0.6335 0.9773 0.7895 0.0290 Uiso
C6 C 0.7266(3) 0.9418(4) 0.8355(3) 0.0234 Uani
C7 C 0.7182(3) 1.4769(4) 0.7871(3) 0.0259 Uani
C8 C 0.7483(4) 1.5336(4) 0.8361(2) 0.0295 Uani
H10 H 0.7233 1.5854 0.8326 0.0350 Uiso
C9 C 0.8190(4) 1.5533(5) 0.8424(3) 0.0498 Uani
H11 H 0.8287 1.5356 0.8100 0.0600 Uiso
H12 H 0.8274 1.6129 0.8476 0.0600 Uiso
C10 C 0.8600(4) 1.5043(5) 0.8932(3) 0.0352 Uani
H13 H 0.9009 1.5321 0.9114 0.0420 Uiso
H14 H 0.8682 1.4477 0.8837 0.0420 Uiso
C11 C 0.8164(3) 1.5050(4) 0.9294(3) 0.0250 Uani
H15 H 0.8290 1.4619 0.9575 0.0300 Uiso
H16 H 0.8173 1.5590 0.9468 0.0300 Uiso
C12 C 0.6968(3) 1.5113(4) 0.9076(3) 0.0258 Uani
H17 H 0.6569 1.5120 0.8766 0.0310 Uiso
H18 H 0.7040 1.5672 0.9232 0.0310 Uiso
C13 C 0.4430(3) 1.3204(4) 0.9237(3) 0.0213 Uani
C14 C 0.4627(3) 1.2767(4) 0.9799(3) 0.0233 Uani
H19 H 0.4550 1.3147 1.0068 0.0280 Uiso
C15 C 0.4241(3) 1.1932(4) 0.9780(3) 0.0328 Uani
H20 H 0.3918 1.2002 0.9957 0.0390 Uiso
H21 H 0.4031 1.1747 0.9405 0.0390 Uiso
C16 C 0.4760(3) 1.1321(4) 1.0095(3) 0.0318 Uani
H22 H 0.4841 1.1361 1.0487 0.0380 Uiso
H23 H 0.4640 1.0750 0.9977 0.0380 Uiso
C17 C 0.5342(3) 1.1591(4) 0.9954(3) 0.0236 Uani
H24 H 0.5311 1.1406 0.9589 0.0290 Uiso
H25 H 0.5735 1.1369 1.0217 0.0290 Uiso
C18 C 0.5669(3) 1.2823(4) 1.0560(3) 0.0242 Uani
H26 H 0.5539 1.2479 1.0814 0.0290 Uiso
H27 H 0.5551 1.3398 1.0603 0.0290 Uiso
Cd1 Cd 0.84432(2) 0.89488(3) 0.81691(2) 0.0259 Uani
N1 N 0.6563(3) 1.0402(3) 0.8639(2) 0.0205 Uani
N2 N 0.5328(3) 1.2539(3) 0.9985(2) 0.0245 Uani
N3 N 0.7517(3) 1.4874(3) 0.8883(2) 0.0270 Uani
O1 O 0.5866(2) 1.2270(3) 0.89286(18) 0.0234 Uani
O2 O 0.7038(2) 1.1823(2) 0.92771(17) 0.0198 Uani
O3 O 0.6617(2) 1.2793(3) 0.84410(18) 0.0277 Uani
O4 O 0.7739(2) 0.9801(2) 0.86876(17) 0.0213 Uani
O5 O 0.7350(2) 0.8833(3) 0.80533(18) 0.0244 Uani
O6 O 0.8419(3) 0.7562(4) 0.7843(3) 0.0382 Uani
O7 O 0.9037(2) 1.0127(3) 0.8707(2) 0.0441 Uani
O8 O 0.7147(2) 1.3984(2) 0.79356(18) 0.0273 Uani
O9 O 0.6976(2) 1.5108(3) 0.74060(17) 0.0274 Uani
O10 O 0.7269(2) 1.3593(2) 0.95158(16) 0.0194 Uani
O11 O 0.6174(2) 1.4203(3) 0.94656(18) 0.0257 Uani
O12 O 0.7199(2) 1.4790(2) 1.01509(17) 0.0201 Uani
O13 O 0.3827(2) 1.3314(3) 0.9011(2) 0.0299 Uani
O14 O 0.4856(2) 1.3425(3) 0.90462(18) 0.0243 Uani
O15 O 0.6817(2) 1.3567(3) 1.10301(17) 0.0240 Uani
O16 O 0.6791(2) 1.1988(3) 1.10809(18) 0.0252 Uani
O17 O 0.6632(2) 1.2697(3) 1.01550(16) 0.0209 Uani
P1 P 0.64610(8) 1.20848(10) 0.87695(7) 0.0202 Uani
P2 P 0.68941(8) 1.43767(10) 0.95913(7) 0.0204 Uani
P3 P 0.65408(8) 1.27507(10) 1.07221(7) 0.0197 Uani
Zn1 Zn 0.57960(4) 1.30709(4) 0.94746(3) 0.0202 Uani
Zn2 Zn 0.75186(4) 1.07420(4) 0.91295(3) 0.0192 Uani
Zn3 Zn 0.73694(4) 1.35571(4) 0.87179(3) 0.0218 Uani
Zn4 Zn 0.7500 1.2500 1.0000 0.0174 Uani
O18 O 0.9347(4) 0.8993(5) 0.7904(3) 0.0512 Uani
C1F C 0.8753(4) 1.6058(4) 1.1512(3) 0.0335 Uani
H1F H 0.8533 1.6586 1.1509 0.0410 Uiso
H2F H 0.9201 1.6116 1.1742 0.0410 Uiso
C2F C 0.8701(4) 1.5799(4) 1.0928(3) 0.0315 Uani
H3F H 0.9026 1.6074 1.0809 0.0380 Uiso
H4F H 0.8276 1.5918 1.0667 0.0380 Uiso
C3F C 0.8824(3) 1.4857(4) 1.1002(3) 0.0278 Uani
H5F H 0.9279 1.4741 1.1181 0.0330 Uiso
H6F H 0.8675 1.4569 1.0651 0.0330 Uiso
C4F C 0.8704(3) 1.3836(4) 1.1675(2) 0.0212 Uani
H7F H 0.9166 1.3899 1.1849 0.0250 Uiso
H8F H 0.8515 1.3759 1.1962 0.0250 Uiso
C5F C 0.8426(3) 1.5350(4) 1.1718(3) 0.0244 Uani
H9F H 0.8665 1.5227 1.2105 0.0290 Uiso
C6F C 0.7734(3) 1.5582(4) 1.1645(3) 0.0234 Uani
C7F C 0.7818(3) 1.0231(4) 1.2129(3) 0.0259 Uani
C8F C 0.7517(4) 0.9664(4) 1.1639(2) 0.0295 Uani
H10F H 0.7767 0.9146 1.1674 0.0350 Uiso
C9F C 0.6810(4) 0.9467(5) 1.1576(3) 0.0498 Uani
H11F H 0.6713 0.9644 1.1900 0.0600 Uiso
H12F H 0.6726 0.8871 1.1524 0.0600 Uiso
C10F C 0.6400(4) 0.9957(5) 1.1068(3) 0.0352 Uani
H13F H 0.5991 0.9679 1.0886 0.0420 Uiso
H14F H 0.6318 1.0523 1.1163 0.0420 Uiso
C11F C 0.6836(3) 0.9950(4) 1.0706(3) 0.0250 Uani
H15F H 0.6710 1.0381 1.0425 0.0300 Uiso
H16F H 0.6827 0.9410 1.0532 0.0300 Uiso
C12F C 0.8032(3) 0.9887(4) 1.0924(3) 0.0258 Uani
H17F H 0.8431 0.9880 1.1234 0.0310 Uiso
H18F H 0.7960 0.9328 1.0768 0.0310 Uiso
C13F C 1.0570(3) 1.1796(4) 1.0763(3) 0.0213 Uani
C14F C 1.0373(3) 1.2233(4) 1.0201(3) 0.0233 Uani
H19F H 1.0450 1.1853 0.9932 0.0280 Uiso
C15F C 1.0759(3) 1.3068(4) 1.0220(3) 0.0328 Uani
H20F H 1.1082 1.2998 1.0043 0.0390 Uiso
H21F H 1.0969 1.3253 1.0595 0.0390 Uiso
C16F C 1.0240(3) 1.3679(4) 0.9905(3) 0.0318 Uani
H22F H 1.0159 1.3639 0.9513 0.0380 Uiso
H23F H 1.0360 1.4250 1.0023 0.0380 Uiso
C17F C 0.9658(3) 1.3409(4) 1.0046(3) 0.0236 Uani
H24F H 0.9689 1.3594 1.0411 0.0290 Uiso
H25F H 0.9265 1.3631 0.9783 0.0290 Uiso
C18F C 0.9331(3) 1.2177(4) 0.9440(3) 0.0242 Uani
H26F H 0.9461 1.2521 0.9186 0.0290 Uiso
H27F H 0.9449 1.1602 0.9397 0.0290 Uiso
Cd1F Cd 0.65568(2) 1.60512(3) 1.18309(2) 0.0259 Uani
Cd1C Cd 0.65568(2) 1.39488(3) 0.68309(2) 0.0259 Uani
Cd1B Cd 0.34432(2) 1.39488(3) 0.81691(2) 0.0259 Uani
Cd1E Cd 0.84432(2) 1.10512(3) 1.31691(2) 0.0259 Uani
Cd1D Cd 1.15568(2) 1.10512(3) 1.18309(2) 0.0259 Uani
N1F N 0.8437(3) 1.4598(3) 1.1361(2) 0.0205 Uani
N2F N 0.9672(3) 1.2461(3) 1.0015(2) 0.0245 Uani
N3F N 0.7483(3) 1.0126(3) 1.1117(2) 0.0270 Uani
O1F O 0.9134(2) 1.2730(3) 1.10714(18) 0.0234 Uani
O2F O 0.7962(2) 1.3177(2) 1.07229(17) 0.0198 Uani
O3F O 0.8383(2) 1.2207(3) 1.15590(18) 0.0277 Uani
O4F O 0.7261(2) 1.5199(2) 1.13124(17) 0.0213 Uani
O5F O 0.7650(2) 1.6167(3) 1.19467(18) 0.0244 Uani
O6F O 0.6581(3) 1.7438(4) 1.2157(3) 0.0382 Uani
O7F O 0.5963(2) 1.4873(3) 1.1293(2) 0.0441 Uani
O8F O 0.7853(2) 1.1016(2) 1.20644(18) 0.0273 Uani
O9F O 0.8024(2) 0.9892(3) 1.25940(17) 0.0274 Uani
O9C O 0.8024(2) 1.0108(3) 0.75940(17) 0.0274 Uani
O9E O 0.6976(2) 1.4892(3) 1.24060(17) 0.0274 Uani
O10F O 0.7731(2) 1.1407(2) 1.04842(16) 0.0194 Uani
O11F O 0.8826(2) 1.0797(3) 1.05344(18) 0.0257 Uani
O12F O 0.7801(2) 1.0210(2) 0.98491(17) 0.0201 Uani
O13F O 1.1173(2) 1.1686(3) 1.0989(2) 0.0299 Uani
O13B O 0.8827(2) 0.8314(3) 0.9011(2) 0.0299 Uani
O13D O 0.6173(2) 1.6686(3) 1.0989(2) 0.0299 Uani
O14F O 1.0144(2) 1.1575(3) 1.09538(18) 0.0243 Uani
O15F O 0.8183(2) 1.1433(3) 0.89699(17) 0.0240 Uani
O16F O 0.8209(2) 1.3012(3) 0.89191(18) 0.0252 Uani
O17F O 0.8368(2) 1.2303(3) 0.98450(16) 0.0209 Uani
P1F P 0.85390(8) 1.29152(10) 1.12305(7) 0.0202 Uani
P2F P 0.81059(8) 1.06233(10) 1.04087(7) 0.0204 Uani
P3F P 0.84592(8) 1.22493(10) 0.92779(7) 0.0197 Uani
Zn1F Zn 0.92040(4) 1.19291(4) 1.05254(3) 0.0202 Uani
Zn2F Zn 0.74814(4) 1.42580(4) 1.08705(3) 0.0192 Uani
Zn3F Zn 0.76306(4) 1.14429(4) 1.12821(3) 0.0218 Uani
O18F O 0.5653(4) 1.6007(5) 1.2096(3) 0.0512 Uani
loop_
_atom_site_aniso_label
_atom_site_aniso_U_11
_atom_site_aniso_U_22
_atom_site_aniso_U_33
_atom_site_aniso_U_23
_atom_site_aniso_U_13
_atom_site_aniso_U_12
C1 0.022(4) 0.024(3) 0.056(5) -0.010(3) 0.015(4) -0.010(3)
C2 0.024(4) 0.025(3) 0.047(4) 0.001(3) 0.014(3) -0.009(3)
C3 0.021(4) 0.039(4) 0.025(4) -0.005(3) 0.010(3) -0.009(3)
C4 0.022(4) 0.029(3) 0.014(3) -0.004(3) 0.008(3) -0.001(3)
C5 0.028(4) 0.020(3) 0.024(4) -0.007(3) 0.007(3) -0.004(3)
C6 0.022(4) 0.024(3) 0.025(4) 0.004(3) 0.009(3) -0.004(3)
C7 0.033 0.029 0.019 0.002 0.013 -0.005
C8 0.049 0.032 0.008 -0.003 0.01 -0.015
C9 0.045 0.063 0.033 0.012 0.002 -0.024
C10 0.034 0.041 0.028 0.006 0.007 -0.01
C11 0.036 0.024 0.016 -0.009 0.01 -0.012
C12 0.024 0.024 0.026 0.002 0.004 0.001
C13 0.018 0.024 0.024 -0.001 0.01 0.004
C14 0.017 0.029 0.026 0.003 0.01 -0.005
C15 0.021 0.032 0.04 0.001 0.003 -0.002
C16 0.024 0.035 0.031 -0.006 0.002 -0.001
C17 0.028 0.025 0.02 -0.005 0.011 -0.002
C18 0.031 0.026 0.023 -0.002 0.019 -0.01
Cd1 0.0242(3) 0.0255(3) 0.0261(3) 0.0056(2) 0.0060(2) 0.0012(2)
N1 0.019(3) 0.017(2) 0.026(3) -0.001(2) 0.008(2) -0.003(2)
N2 0.018 0.027 0.026 -0.004 0.004 -0.002
N3 0.028 0.031 0.017 0.002 0.001 -0.004
O1 0.014(2) 0.032(2) 0.022(2) -0.006(2) 0.0031(19) 0.0003(19)
O2 0.016(2) 0.024(2) 0.017(2) -0.0011(18) 0.0024(19) -0.0028(18)
O3 0.036(3) 0.022(2) 0.021(2) 0.0033(19) 0.004(2) -0.006(2)
O4 0.019(2) 0.025(2) 0.020(2) -0.0076(19) 0.0067(19) -0.0067(19)
O5 0.023(3) 0.026(2) 0.027(2) -0.009(2) 0.012(2) 0.0012(19)
O6 0.0366(19) 0.0349(18) 0.0402(19) -0.0008(10) 0.0088(10) 0.0015(10)
O7 0.021(3) 0.040(3) 0.055(4) 0.009(3) -0.009(3) -0.006(2)
O8 0.043 0.017 0.022 0.001 0.011 -0.006
O9 0.04 0.027 0.015 0.0051 0.009 -0.002
O10 0.024 0.022 0.015 -0.0008 0.0101 -0.002
O11 0.021 0.028 0.024 0.003 0.002 -0.0047
O12 0.021 0.02 0.018 -0.0024 0.0047 -0.0061
O13 0.022 0.038 0.032 0.011 0.012 0.008
O14 0.02 0.03 0.024 0.004 0.009 0.0041
O15 0.022 0.036 0.015 -0.0055 0.0074 -0.005
O16 0.02 0.04 0.021 0.007 0.014 0.001
O17 0.015 0.037 0.012 -0.0016 0.0061 -0.0045
P1 0.0180(9) 0.0240(8) 0.0156(8) -0.0029(7) 0.0015(7) -0.0019(7)
P2 0.0187 0.0217 0.02 0.0015 0.0055 -0.0028
P3 0.0151 0.0278 0.0158 -0.0004 0.0046 -0.0055
Zn1 0.0161(4) 0.0254(4) 0.0185(4) -0.0004(3) 0.0051(3) -0.0024(3)
Zn2 0.0168(4) 0.0244(4) 0.0152(4) -0.0015(3) 0.0039(3) -0.0035(3)
Zn3 0.0242(4) 0.0235(4) 0.0154(4) 0.0025(3) 0.0036(3) -0.0034(3)
Zn4 0.0160(6) 0.0214(5) 0.0131(5) 0.0001(4) 0.0027(4) -0.0019(4)
O18 0.050(2) 0.051(2) 0.053(2) 0.0022(10) 0.0179(11) 0.0007(10)
C1F 0.022 0.024 0.056 -0.01 0.015 -0.01
C2F 0.024 0.025 0.047 0.001 0.014 -0.009
C3F 0.021 0.039 0.025 -0.005 0.01 -0.009
C4F 0.022 0.029 0.014 -0.004 0.008 -0.001
C5F 0.028 0.02 0.024 -0.007 0.007 -0.004
C6F 0.022 0.024 0.025 0.004 0.009 -0.004
C7F 0.033 0.029 0.019 0.002 0.013 -0.005
C8F 0.049 0.032 0.008 -0.003 0.01 -0.015
C9F 0.045 0.063 0.033 0.012 0.002 -0.024
C10F 0.034 0.041 0.028 0.006 0.007 -0.01
C11F 0.036 0.024 0.016 -0.009 0.01 -0.012
C12F 0.024 0.024 0.026 0.002 0.004 0.001
C13F 0.018 0.024 0.024 -0.001 0.01 0.004
C14F 0.017 0.029 0.026 0.003 0.01 -0.005
C15F 0.021 0.032 0.04 0.001 0.003 -0.002
C16F 0.024 0.035 0.031 -0.006 0.002 -0.001
C17F 0.028 0.025 0.02 -0.005 0.011 -0.002
C18F 0.031 0.026 0.023 -0.002 0.019 -0.01
Cd1F 0.0242 0.0255 0.0261 0.0056 0.006 0.0012
Cd1C 0.0242 0.0255 0.0261 -0.0056 0.006 -0.0012
Cd1B 0.0242 0.0255 0.0261 0.0056 0.006 0.0012
Cd1E 0.0242 0.0255 0.0261 -0.0056 0.006 -0.0012
Cd1D 0.0242 0.0255 0.0261 0.0056 0.006 0.0012
N1F 0.019 0.017 0.026 -0.001 0.008 -0.003
N2F 0.018 0.027 0.026 -0.004 0.004 -0.002
N3F 0.028 0.031 0.017 0.002 0.001 -0.004
O1F 0.014 0.032 0.022 -0.006 0.0031 0.0003
O2F 0.016 0.024 0.017 -0.0011 0.0024 -0.0028
O3F 0.036 0.022 0.021 0.0033 0.004 -0.006
O4F 0.019 0.025 0.02 -0.0076 0.0067 -0.0067
O5F 0.023 0.026 0.027 -0.009 0.012 0.0012
O6F 0.0366 0.0349 0.0402 -0.0008 0.0088 0.0015
O7F 0.021 0.04 0.055 0.009 -0.009 -0.006
O8F 0.043 0.017 0.022 0.001 0.011 -0.006
O9F 0.04 0.027 0.015 0.0051 0.009 -0.002
O9C 0.040(3) 0.027(2) 0.015(2) -0.0051(19) 0.009(2) 0.002(2)
O9E 0.04 0.027 0.015 -0.0051 0.009 0.002
O10F 0.024 0.022 0.015 -0.0008 0.0101 -0.002
O11F 0.021 0.028 0.024 0.003 0.002 -0.0047
O12F 0.021 0.02 0.018 -0.0024 0.0047 -0.0061
O13F 0.022 0.038 0.032 0.011 0.012 0.008
O13B 0.022(3) 0.038(3) 0.032(3) 0.011(2) 0.012(2) 0.008(2)
O13D 0.022 0.038 0.032 0.011 0.012 0.008
O14F 0.02 0.03 0.024 0.004 0.009 0.0041
O15F 0.022 0.036 0.015 -0.0055 0.0074 -0.005
O16F 0.02 0.04 0.021 0.007 0.014 0.001
O17F 0.015 0.037 0.012 -0.0016 0.0061 -0.0045
P1F 0.018 0.024 0.0156 -0.0029 0.0015 -0.0019
P2F 0.0187 0.0217 0.02 0.0015 0.0055 -0.0028
P3F 0.0151 0.0278 0.0158 -0.0004 0.0046 -0.0055
Zn1F 0.0161 0.0254 0.0185 -0.0004 0.0051 -0.0024
Zn2F 0.0168 0.0244 0.0152 -0.0015 0.0039 -0.0035
Zn3F 0.0242 0.0235 0.0154 0.0025 0.0036 -0.0034
O18F 0.05 0.051 0.053 0.0022 0.0179 0.0007
loop_
_geom_bond_atom_site_label_1
_geom_bond_atom_site_label_2
_geom_bond_site_symmetry_1
_geom_bond_site_symmetry_2
C1 H1 1_555 1_555
H2 C1 1_555 1_555
C2 C1 1_555 1_555
H3 C2 1_555 1_555
H4 C2 1_555 1_555
C3 C2 1_555 1_555
H5 C3 1_555 1_555
H6 C3 1_555 1_555
C4 H7 1_555 1_555
H8 C4 1_555 1_555
C5 C1 1_555 1_555
H9 C5 1_555 1_555
C6 C5 1_555 1_555
C7 C8 1_555 1_555
C8 H10 1_555 1_555
C9 C8 1_555 1_555
H11 C9 1_555 1_555
H12 C9 1_555 1_555
C10 C9 1_555 1_555
H13 C10 1_555 1_555
H14 C10 1_555 1_555
C11 C10 1_555 1_555
H15 C11 1_555 1_555
H16 C11 1_555 1_555
C12 H17 1_555 1_555
H18 C12 1_555 1_555
C13 C14 1_555 1_555
C14 H19 1_555 1_555
C15 C14 1_555 1_555
H20 C15 1_555 1_555
H21 C15 1_555 1_555
C16 C15 1_555 1_555
H22 C16 1_555 1_555
H23 C16 1_555 1_555
C17 C16 1_555 1_555
H24 C17 1_555 1_555
H25 C17 1_555 1_555
C18 H26 1_555 1_555
H27 C18 1_555 1_555
Cd1 O5 1_555 1_555
N1 C3 1_555 1_555
N2 C14 1_555 1_555
N3 C8 1_555 1_555
O1 P1 1_555 1_555
O2 P1 1_555 1_555
O3 P1 1_555 1_555
O4 C6 1_555 1_555
O5 C6 1_555 1_555
O6 Cd1 1_555 1_555
O7 Cd1 1_555 1_555
O8 C7 1_555 1_555
O9 C7 1_555 1_555
O10 P2 1_555 1_555
O11 P2 1_555 1_555
O12 P2 1_555 1_555
O13 C13 1_555 1_555
O14 C13 1_555 1_555
O15 P3 1_555 1_555
O16 P3 1_555 1_555
O17 P3 1_555 1_555
P1 C4 1_555 1_555
P2 C12 1_555 1_555
P3 C18 1_555 1_555
Zn1 N2 1_555 1_555
Zn2 N1 1_555 1_555
Zn3 N3 1_555 1_555
Zn4 O2 1_555 1_555
O18 Cd1 1_555 1_555
C1F H1F 1_555 1_555
H2F C1F 1_555 1_555
C2F C1F 1_555 1_555
H3F C2F 1_555 1_555
H4F C2F 1_555 1_555
C3F C2F 1_555 1_555
H5F C3F 1_555 1_555
H6F C3F 1_555 1_555
C4F H7F 1_555 1_555
H8F C4F 1_555 1_555
C5F C1F 1_555 1_555
H9F C5F 1_555 1_555
C6F C5F 1_555 1_555
C7F C8F 1_555 1_555
C8F H10F 1_555 1_555
C9F C8F 1_555 1_555
H11F C9F 1_555 1_555
H12F C9F 1_555 1_555
C10F C9F 1_555 1_555
H13F C10F 1_555 1_555
H14F C10F 1_555 1_555
C11F C10F 1_555 1_555
H15F C11F 1_555 1_555
H16F C11F 1_555 1_555
C12F H17F 1_555 1_555
H18F C12F 1_555 1_555
C13F C14F 1_555 1_555
C14F H19F 1_555 1_555
C15F C14F 1_555 1_555
H20F C15F 1_555 1_555
H21F C15F 1_555 1_555
C16F C15F 1_555 1_555
H22F C16F 1_555 1_555
H23F C16F 1_555 1_555
C17F C16F 1_555 1_555
H24F C17F 1_555 1_555
H25F C17F 1_555 1_555
C18F H26F 1_555 1_555
H27F C18F 1_555 1_555
Cd1F O5F 1_555 1_555
Cd1C O9 1_555 1_555
Cd1B O13 1_555 1_555
Cd1E O9F 1_555 1_555
Cd1D O13F 1_555 1_555
N1F C3F 1_555 1_555
N2F C14F 1_555 1_555
N3F C8F 1_555 1_555
O1F P1F 1_555 1_555
O2F Zn4 1_555 1_555
O3F P1F 1_555 1_555
O4F C6F 1_555 1_555
O5F C6F 1_555 1_555
O6F Cd1F 1_555 1_555
O7F Cd1F 1_555 1_555
O8F C7F 1_555 1_555
O9F C7F 1_555 1_555
O9C Cd1 1_555 1_555
O9E Cd1F 1_555 1_555
O10F Zn4 1_555 1_555
O11F P2F 1_555 1_555
O12F Zn2 1_555 1_555
O13F C13F 1_555 1_555
O13B Cd1 1_555 1_555
O13D Cd1F 1_555 1_555
O14F C13F 1_555 1_555
O15F Zn2 1_555 1_555
O16F Zn3 1_555 1_555
O17F Zn4 1_555 1_555
P1F C4F 1_555 1_555
P2F C12F 1_555 1_555
P3F C18F 1_555 1_555
Zn1F N2F 1_555 1_555
Zn2F O12 1_555 1_555
Zn3F O16 1_555 1_555
O18F Cd1F 1_555 1_555
C4 N1 1_555 1_555
C5 N1 1_555 1_555
C11 N3 1_555 1_555
C12 N3 1_555 1_555
C17 N2 1_555 1_555
C18 N2 1_555 1_555
O1 Zn1 1_555 1_555
O2 Zn2 1_555 1_555
O3 Zn3 1_555 1_555
O4 Zn2 1_555 1_555
O8 Zn3 1_555 1_555
O10 Zn3 1_555 1_555
O10 Zn4 1_555 1_555
O11 Zn1 1_555 1_555
O14 Zn1 1_555 1_555
O15 Zn2F 1_555 1_555
O17 Zn1 1_555 1_555
O17 Zn4 1_555 1_555
C4F N1F 1_555 1_555
C5F N1F 1_555 1_555
C11F N3F 1_555 1_555
C12F N3F 1_555 1_555
C17F N2F 1_555 1_555
C18F N2F 1_555 1_555
N1F Zn2F 1_555 1_555
N3F Zn3F 1_555 1_555
O1F Zn1F 1_555 1_555
O2F P1F 1_555 1_555
O2F Zn2F 1_555 1_555
O3F Zn3F 1_555 1_555
O4F Zn2F 1_555 1_555
O8F Zn3F 1_555 1_555
O10F P2F 1_555 1_555
O10F Zn3F 1_555 1_555
O11F Zn1F 1_555 1_555
O12F P2F 1_555 1_555
O14F Zn1F 1_555 1_555
O15F P3F 1_555 1_555
O16F P3F 1_555 1_555
O17F P3F 1_555 1_555
O17F Zn1F 1_555 1_555

#END
