
#######################################################################
#
#                 Cambridge Crystallographic Data Centre
#                                CCDC 
#
#######################################################################
#
# If this CIF has been generated from an entry in the Cambridge 
# Structural Database, then it will include bibliographic, chemical, 
# crystal, experimental, refinement or atomic coordinate data resulting 
# from the CCDC's data processing and validation procedures.
#
#######################################################################

data_YURJUR
_chemical_formula_moiety         '(C56 H24 Ce5 O24 S4 5-)n'
_symmetry_cell_setting           rhombohedral
_symmetry_space_group_name_H-M   'R -3'
_symmetry_Int_Tables_number      148
_space_group_name_Hall           '-R 3'
loop_
_symmetry_equiv_pos_site_id
_symmetry_equiv_pos_as_xyz
1 x,y,z
2 -y,x-y,z
3 -x+y,-x,z
4 2/3+x,1/3+y,1/3+z
5 2/3-y,1/3+x-y,1/3+z
6 2/3-x+y,1/3-x,1/3+z
7 1/3+x,2/3+y,2/3+z
8 1/3-y,2/3+x-y,2/3+z
9 1/3-x+y,2/3-x,2/3+z
10 -x,-y,-z
11 y,-x+y,-z
12 x-y,x,-z
13 1/3-x,2/3-y,2/3-z
14 1/3+y,2/3-x+y,2/3-z
15 1/3+x-y,2/3+x,2/3-z
16 2/3-x,1/3-y,1/3-z
17 2/3+y,1/3-x+y,1/3-z
18 2/3+x-y,1/3+x,1/3-z
_cell_length_a                   25.0566(12)
_cell_length_b                   25.0566(12)
_cell_length_c                   29.944(3)
_cell_angle_alpha                90
_cell_angle_beta                 90
_cell_angle_gamma                120
_cell_volume                     16281.1
loop_
_atom_site_label
_atom_site_type_symbol
_atom_site_fract_x
_atom_site_fract_y
_atom_site_fract_z
Ce1 Ce 0.3333 0.6667 0.29962(3)
Ce2 Ce 0.3333 0.6667 0.1667
S1 S 0.12773(12) 0.30871(9) 0.22881(9)
O1 O 0.2521(2) 0.5530(2) 0.18889(19)
O2 O 0.3274(2) 0.5981(2) 0.23817(17)
O3 O 0.0355(2) 0.0868(2) 0.31112(19)
O4 O 0.1069(2) 0.0948(2) 0.35788(19)
O5 O 0.1328(4) 0.2904(3) 0.1834(2)
O6 O 0.0723(3) 0.3098(3) 0.2414(3)
C1 C 0.2815(3) 0.5492(3) 0.2209(3)
C2 C 0.2639(3) 0.4887(3) 0.2408(3)
C3 C 0.2991(3) 0.4814(3) 0.2730(3)
H1 H 0.3350 0.5158 0.2830
C4 C 0.2820(4) 0.4239(4) 0.2910(3)
H2 H 0.3060 0.4196 0.3129
C5 C 0.2101(4) 0.4366(4) 0.2251(3)
H3 H 0.1856 0.4408 0.2037
C6 C 0.1941(4) 0.3792(3) 0.2418(3)
C7 C 0.2283(3) 0.3725(3) 0.2755(3)
C8 C 0.1997(4) 0.3072(3) 0.2909(3)
C9 C 0.1452(4) 0.2687(3) 0.2691(3)
C10 C 0.2213(4) 0.2818(3) 0.3243(3)
H4 H 0.2588 0.3059 0.3386
C11 C 0.1086(4) 0.2061(4) 0.2799(3)
H5 H 0.0718 0.1813 0.2649
C12 C 0.1847(4) 0.2209(4) 0.3344(3)
H6 H 0.1977 0.2042 0.3567
C13 C 0.1284(4) 0.1822(3) 0.3131(2)
C14 C 0.0885(4) 0.1169(4) 0.3284(3)
Ce1O Ce 0.3334 0.6666 0.03371(3)
Ce1L Ce 0.0000 -0.0000 0.36705(3)
Ce1M Ce 1.0000 1.0001 0.36705(3)
Ce1N Ce -0.0001 1.0000 0.36705(3)
Ce1F Ce 0.6666 1.3334 -0.03371(3)
S1A S 0.69129(9) 0.81902(15) 0.22881(9)
S1B S 0.18098(15) 0.87227(12) 0.22881(9)
S1O S 0.53894(12) 1.02462(9) 0.10452(9)
O1A O 0.4470(2) 0.6991(3) 0.18889(19)
O1B O 0.3009(3) 0.7479(2) 0.18889(19)
O1O O 0.4146(2) 0.7803(2) 0.14444(19)
O1P O 0.2197(2) 0.6342(3) 0.14444(19)
O1Q O 0.3658(3) 0.5854(2) 0.14444(19)
O2A O 0.4019(2) 0.7293(3) 0.23817(17)
O2B O 0.2707(3) 0.6726(2) 0.23817(17)
O2O O 0.3393(2) 0.7352(2) 0.09516(17)
O2P O 0.2648(2) 0.6040(3) 0.09516(17)
O2Q O 0.3960(3) 0.6607(2) 0.09516(17)
O2L O 0.0059(2) 0.0686(2) 0.42850(17)
O2M O -0.0686(2) -0.0626(3) 0.42850(17)
O2N O 0.0626(3) -0.0059(2) 0.42850(17)
O2M_2 O 0.9314(2) 0.9374(3) 0.42850(17)
O2N_2 O 1.0626(3) 0.9941(2) 0.42850(17)
O2L_2 O 1.0059(2) 1.0686(2) 0.42850(17)
O3A O 0.9132(2) 0.9487(3) 0.31112(19)
O3B O 0.0513(3) 0.9645(2) 0.31112(19)
O3O O 0.6312(2) 1.2465(2) 0.02221(19)
O3L O 0.2978(2) 0.5799(2) 0.35555(19)
O3M O 0.4201(2) 0.7180(3) 0.35555(19)
O3N O 0.2820(3) 0.7022(2) 0.35555(19)
O3F O 0.3688(2) 0.7535(2) -0.02221(19)
O3G O 0.2465(2) 0.6154(3) -0.02221(19)
O3H O 0.3846(3) 0.6312(2) -0.02221(19)
O3A_2 O -0.0868(2) -0.0513(3) 0.31112(19)
O3B_2 O 0.0513(3) -0.0355(2) 0.31112(19)
O3B_3 O 1.0513(3) 0.9645(2) 0.31112(19)
O3_2 O 1.0355(2) 1.0868(2) 0.31112(19)
O4A O 0.9052(2) 1.0121(3) 0.35788(19)
O4B O -0.0121(3) 0.8931(2) 0.35788(19)
O4O O 0.5598(2) 1.2385(2) -0.02455(19)
O4L O 0.2264(2) 0.5719(2) 0.30879(19)
O4M O 0.4281(2) 0.6546(3) 0.30879(19)
O4N O 0.3454(3) 0.7736(2) 0.30879(19)
O4F O 0.4402(2) 0.7615(2) 0.02455(19)
O4G O 0.2385(2) 0.6788(3) 0.02455(19)
O4H O 0.3212(3) 0.5598(2) 0.02455(19)
O4A_2 O -0.0948(2) 0.0121(3) 0.35788(19)
O4B_2 O -0.0121(3) -0.1069(2) 0.35788(19)
O4B_3 O 0.9879(3) 0.8931(2) 0.35788(19)
O4_2 O 1.1069(2) 1.0948(2) 0.35788(19)
O5A O 0.7096(3) 0.8424(5) 0.1834(2)
O5B O 0.1576(5) 0.8672(4) 0.1834(2)
O5O O 0.5339(4) 1.0429(3) 0.1499(2)
O6A O 0.6902(3) 0.7625(4) 0.2414(3)
O6B O 0.2375(4) 0.9277(3) 0.2414(3)
O6O O 0.5944(3) 1.0235(3) 0.0919(3)
C1A C 0.4508(3) 0.7323(4) 0.2209(3)
C1B C 0.2677(4) 0.7185(3) 0.2209(3)
C1O C 0.3852(3) 0.7841(3) 0.1124(3)
C2A C 0.5113(3) 0.7752(4) 0.2408(3)
C2B C 0.2248(4) 0.7361(3) 0.2408(3)
C2O C 0.4028(3) 0.8446(3) 0.0925(3)
C3A C 0.5186(3) 0.8177(4) 0.2730(3)
C3B C 0.1823(4) 0.7009(3) 0.2730(3)
C3O C 0.3676(3) 0.8519(3) 0.0603(3)
H1A H 0.4842 0.8192 0.2830
H1B H 0.1808 0.6650 0.2830
H1O H 0.3317 0.8175 0.0503
C4A C 0.5761(4) 0.8581(6) 0.2910(3)
C4B C 0.1419(6) 0.7180(4) 0.2910(3)
C4O C 0.3847(4) 0.9094(4) 0.0423(3)
H2A H 0.5804 0.8864 0.3129
H2B H 0.1136 0.6940 0.3129
H2O H 0.3607 0.9137 0.0204
C5A C 0.5634(4) 0.7735(6) 0.2251(3)
C5B C 0.2265(6) 0.7899(4) 0.2251(3)
C5O C 0.4566(4) 0.8967(4) 0.1082(3)
H3A H 0.5592 0.7448 0.2037
H3B H 0.2552 0.8144 0.2037
H3O H 0.4811 0.8925 0.1296
C6A C 0.6208(3) 0.8149(5) 0.2418(3)
C6B C 0.1851(5) 0.8059(4) 0.2418(3)
C6O C 0.4726(4) 0.9541(3) 0.0915(3)
C7A C 0.6275(3) 0.8558(4) 0.2755(3)
C7B C 0.1442(4) 0.7717(3) 0.2755(3)
C7O C 0.4384(3) 0.9608(3) 0.0578(3)
C8A C 0.6928(3) 0.8925(5) 0.2909(3)
C8B C 0.1075(5) 0.8003(4) 0.2909(3)
C8O C 0.4670(4) 1.0261(3) 0.0424(3)
C9A C 0.7313(3) 0.8765(5) 0.2691(3)
C9B C 0.1235(5) 0.8548(4) 0.2691(3)
C9O C 0.5215(4) 1.0646(3) 0.0642(3)
C10A C 0.7182(3) 0.9395(5) 0.3243(3)
C10B C 0.0605(5) 0.7787(4) 0.3243(3)
C10O C 0.4454(4) 1.0515(3) 0.0090(3)
H4A H 0.6941 0.9529 0.3386
H4B H 0.0471 0.7412 0.3386
H4O H 0.4079 1.0274 -0.0053
C11A C 0.7939(4) 0.9025(6) 0.2799(3)
C11B C 0.0975(6) 0.8914(4) 0.2799(3)
C11O C 0.5581(4) 1.1272(4) 0.0534(3)
H5A H 0.8187 0.8905 0.2649
H5B H 0.1095 0.9282 0.2649
H5O H 0.5949 1.1520 0.0684
C12A C 0.7791(4) 0.9638(6) 0.3344(3)
C12B C 0.0362(6) 0.8153(4) 0.3344(3)
C12O C 0.4820(4) 1.1124(4) -0.0011(3)
H6A H 0.7958 0.9935 0.3567
H6B H 0.0065 0.8023 0.3567
H6O H 0.4690 1.1291 -0.0234
C13A C 0.8178(3) 0.9462(5) 0.3131(2)
C13B C 0.0538(5) 0.8716(4) 0.3131(2)
C13O C 0.5383(4) 1.1511(3) 0.0202(2)
C14A C 0.8831(4) 0.9716(6) 0.3284(3)
C14B C 0.0284(6) 0.9115(4) 0.3284(3)
C14O C 0.5782(4) 1.2164(4) 0.0049(3)
loop_
_geom_bond_atom_site_label_1
_geom_bond_atom_site_label_2
_geom_bond_site_symmetry_1
_geom_bond_site_symmetry_2
Ce1 O2 1_555 1_555
Ce2 O1 1_555 1_555
S1 O5 1_555 1_555
O1 C1 1_555 1_555
O2 Ce2 1_555 1_555
O3 C14 1_555 1_555
O4 C14 1_555 1_555
O6 S1 1_555 1_555
C1 O2 1_555 1_555
C2 C1 1_555 1_555
C3 C2 1_555 1_555
H1 C3 1_555 1_555
C4 C3 1_555 1_555
H2 C4 1_555 1_555
C5 C2 1_555 1_555
H3 C5 1_555 1_555
C6 S1 1_555 1_555
C7 C4 1_555 1_555
C8 C7 1_555 1_555
C9 S1 1_555 1_555
C10 C8 1_555 1_555
H4 C10 1_555 1_555
C11 C9 1_555 1_555
H5 C11 1_555 1_555
C12 C10 1_555 1_555
H6 C12 1_555 1_555
C13 C11 1_555 1_555
C14 C13 1_555 1_555
Ce1O O2O 1_555 1_555
Ce1L O3 1_555 1_555
Ce1M O2M_2 1_555 1_555
Ce1N O3B 1_555 1_555
Ce1F O3O 1_555 1_555
S1A O5A 1_555 1_555
S1B O5B 1_555 1_555
S1O O5O 1_555 1_555
O1A Ce2 1_555 1_555
O1B Ce2 1_555 1_555
O1O Ce2 1_555 1_555
O1P Ce2 1_555 1_555
O1Q Ce2 1_555 1_555
O2A Ce1 1_555 1_555
O2B Ce1 1_555 1_555
O2O Ce2 1_555 1_555
O2P Ce2 1_555 1_555
O2Q Ce2 1_555 1_555
O2L Ce1L 1_555 1_555
O2M Ce1L 1_555 1_555
O2N Ce1L 1_555 1_555
O2N_2 Ce1M 1_555 1_555
O2L_2 Ce1M 1_555 1_555
O3A Ce1M 1_555 1_555
O3B C14B 1_555 1_555
O3O C14O 1_555 1_555
O3L Ce1 1_555 1_555
O3M Ce1 1_555 1_555
O3N Ce1 1_555 1_555
O3F Ce1O 1_555 1_555
O3G Ce1O 1_555 1_555
O3H Ce1O 1_555 1_555
O3A_2 Ce1L 1_555 1_555
O3B_2 Ce1L 1_555 1_555
O3B_3 Ce1M 1_555 1_555
O3_2 Ce1M 1_555 1_555
O4A Ce1M 1_555 1_555
O4B Ce1N 1_555 1_555
O4O Ce1F 1_555 1_555
O4L Ce1 1_555 1_555
O4M Ce1 1_555 1_555
O4N Ce1 1_555 1_555
O4F Ce1O 1_555 1_555
O4G Ce1O 1_555 1_555
O4H Ce1O 1_555 1_555
O4A_2 Ce1L 1_555 1_555
O4B_2 Ce1L 1_555 1_555
O4B_3 Ce1M 1_555 1_555
O4_2 Ce1M 1_555 1_555
O6A S1A 1_555 1_555
O6B S1B 1_555 1_555
O6O S1O 1_555 1_555
C1A O1A 1_555 1_555
C1B O1B 1_555 1_555
C1O O1O 1_555 1_555
C2A C1A 1_555 1_555
C2B C1B 1_555 1_555
C2O C1O 1_555 1_555
C3A C2A 1_555 1_555
C3B C2B 1_555 1_555
C3O C2O 1_555 1_555
H1A C3A 1_555 1_555
H1B C3B 1_555 1_555
H1O C3O 1_555 1_555
C4A C3A 1_555 1_555
C4B C3B 1_555 1_555
C4O C3O 1_555 1_555
H2A C4A 1_555 1_555
H2B C4B 1_555 1_555
H2O C4O 1_555 1_555
C5A C2A 1_555 1_555
C5B C2B 1_555 1_555
C5O C2O 1_555 1_555
H3A C5A 1_555 1_555
H3B C5B 1_555 1_555
H3O C5O 1_555 1_555
C6A S1A 1_555 1_555
C6B S1B 1_555 1_555
C6O S1O 1_555 1_555
C7A C4A 1_555 1_555
C7B C4B 1_555 1_555
C7O C4O 1_555 1_555
C8A C7A 1_555 1_555
C8B C7B 1_555 1_555
C8O C7O 1_555 1_555
C9A S1A 1_555 1_555
C9B S1B 1_555 1_555
C9O S1O 1_555 1_555
C10A C8A 1_555 1_555
C10B C8B 1_555 1_555
C10O C8O 1_555 1_555
H4A C10A 1_555 1_555
H4B C10B 1_555 1_555
H4O C10O 1_555 1_555
C11A C9A 1_555 1_555
C11B C9B 1_555 1_555
C11O C9O 1_555 1_555
H5A C11A 1_555 1_555
H5B C11B 1_555 1_555
H5O C11O 1_555 1_555
C12A C10A 1_555 1_555
C12B C10B 1_555 1_555
C12O C10O 1_555 1_555
H6A C12A 1_555 1_555
H6B C12B 1_555 1_555
H6O C12O 1_555 1_555
C13A C11A 1_555 1_555
C13B C11B 1_555 1_555
C13O C11O 1_555 1_555
C14A O3A 1_555 1_555
C14B O4B 1_555 1_555
C14O O4O 1_555 1_555
Ce2 O2A 1_555 1_555
Ce2 O2B 1_555 1_555
O4 Ce1L 1_555 1_555
C5 C6 1_555 1_555
C6 C7 1_555 1_555
C8 C9 1_555 1_555
C12 C13 1_555 1_555
Ce1O O2P 1_555 1_555
Ce1O O2Q 1_555 1_555
O2A C1A 1_555 1_555
O2B C1B 1_555 1_555
O2O C1O 1_555 1_555
O4A C14A 1_555 1_555
C5A C6A 1_555 1_555
C5B C6B 1_555 1_555
C5O C6O 1_555 1_555
C6A C7A 1_555 1_555
C6B C7B 1_555 1_555
C6O C7O 1_555 1_555
C8A C9A 1_555 1_555
C8B C9B 1_555 1_555
C8O C9O 1_555 1_555
C12A C13A 1_555 1_555
C12B C13B 1_555 1_555
C12O C13O 1_555 1_555
C13A C14A 1_555 1_555
C13B C14B 1_555 1_555
C13O C14O 1_555 1_555

#END
