
#######################################################################
#
#                 Cambridge Crystallographic Data Centre
#                                CCDC 
#
#######################################################################
#
# If this CIF has been generated from an entry in the Cambridge 
# Structural Database, then it will include bibliographic, chemical, 
# crystal, experimental, refinement or atomic coordinate data resulting 
# from the CCDC's data processing and validation procedures.
#
#######################################################################

data_YURKAY
_chemical_formula_moiety         '(C60 H60 Dy2 N6 O24 S3)n'
_symmetry_cell_setting           triclinic
_symmetry_space_group_name_H-M   'P -1'
_symmetry_Int_Tables_number      2
_space_group_name_Hall           '-P 1'
loop_
_symmetry_equiv_pos_site_id
_symmetry_equiv_pos_as_xyz
1 x,y,z
2 -x,-y,-z
_cell_length_a                   12.4996(12)
_cell_length_b                   17.7008(16)
_cell_length_c                   22.3869(18)
_cell_angle_alpha                79.657(7)
_cell_angle_beta                 80.452(7)
_cell_angle_gamma                81.326(8)
_cell_volume                     4767.64
loop_
_atom_site_label
_atom_site_type_symbol
_atom_site_fract_x
_atom_site_fract_y
_atom_site_fract_z
Dy1 Dy 0.34663(6) 0.97079(4) 0.00208(3)
Dy2 Dy 0.12882(6) 0.57010(4) -0.51805(3)
O1 O 0.2871(8) 0.9853(6) -0.0960(4)
O2 O 0.2769(8) 0.8667(6) -0.0410(5)
C1 C 0.2759(12) 0.9153(9) -0.0922(7)
C2 C 0.2656(12) 0.8853(8) -0.1508(7)
C3 C 0.2490(13) 0.9404(8) -0.2034(7)
H1 H 0.2464 0.9927 -0.2017
C4 C 0.2752(12) 0.8067(9) -0.1535(7)
H2 H 0.2884 0.7698 -0.1195
C5 C 0.2644(13) 0.7855(9) -0.2078(7)
C6 C 0.2365(14) 0.9175(9) -0.2574(7)
H3 H 0.2226 0.9542 -0.2915
C7 C 0.2451(14) 0.8387(9) -0.2601(7)
C8 C 0.2322(12) 0.8023(8) -0.3132(7)
C9 C 0.2455(13) 0.7217(9) -0.3001(7)
C10 C 0.2083(13) 0.8377(9) -0.3707(7)
H4 H 0.2007 0.8914 -0.3810
C11 C 0.2331(12) 0.6752(8) -0.3420(7)
H5 H 0.2420 0.6215 -0.3321
C12 C 0.1957(14) 0.7918(8) -0.4129(7)
H6 H 0.1794 0.8152 -0.4515
C13 C 0.2072(11) 0.7112(8) -0.3983(7)
C14 C 0.1915(12) 0.6613(9) -0.4449(7)
O3 O 0.1588(9) 0.6961(6) -0.4949(5)
O4 O 0.2069(9) 0.5900(6) -0.4301(5)
S1 S 0.2800(4) 0.6894(2) -0.22441(19)
O5 O 0.2004(10) 0.6443(6) -0.1850(5)
O6 O 0.3942(9) 0.6554(6) -0.2276(5)
O7 O 0.4496(8) 1.0674(5) -0.0506(4)
O8 O 0.5881(8) 1.1361(5) -0.0732(5)
C15 C 0.4967(13) 1.1241(8) -0.0813(7)
C16 C 0.4367(12) 1.1760(8) -0.1293(7)
C17 C 0.3413(14) 1.1575(9) -0.1455(7)
H7 H 0.3093 1.1141 -0.1253
C18 C 0.4826(15) 1.2415(10) -0.1622(8)
H8 H 0.5458 1.2534 -0.1511
C19 C 0.4377(16) 1.2903(11) -0.2113(9)
H9 H 0.4697 1.3333 -0.2326
C20 C 0.2966(13) 1.2074(9) -0.1936(7)
C21 C 0.3427(15) 1.2705(9) -0.2261(8)
C22 C 0.2814(15) 1.3124(8) -0.2785(8)
C23 C 0.1901(14) 1.2754(8) -0.2819(7)
C24 C 0.3059(16) 1.3780(10) -0.3202(9)
H10 H 0.3645 1.4034 -0.3176
C25 C 0.2381(14) 1.4051(9) -0.3671(8)
H11 H 0.2526 1.4486 -0.3959
C26 C 0.1268(14) 1.3003(9) -0.3266(7)
H12 H 0.0689 1.2739 -0.3285
C27 C 0.1474(13) 1.3651(8) -0.3697(7)
C28 C 0.0777(13) 1.3946(9) -0.4180(7)
O9 O 0.0967(8) 1.4550(5) -0.4566(4)
O10 O -0.0016(8) 1.3577(6) -0.4189(5)
S2 S 0.1793(4) 1.1936(3) -0.2240(2)
O11 O 0.2001(11) 1.1253(7) -0.2505(6)
O12 O 0.0791(11) 1.2039(8) -0.1811(6)
O13 O 0.0194(8) 1.3950(5) 0.4420(4)
O14 O 0.1321(8) 1.4863(5) 0.4103(4)
C29 C 0.0959(12) 1.4238(8) 0.4081(6)
C30 C 0.1561(12) 1.3802(8) 0.3567(6)
C31 C 0.1106(12) 1.3195(8) 0.3421(7)
H13 H 0.0448 1.3046 0.3634
C32 C 0.2558(13) 1.3997(9) 0.3261(7)
H14 H 0.2853 1.4396 0.3370
C33 C 0.1678(13) 1.2822(8) 0.2943(7)
C34 C 0.3146(14) 1.3605(9) 0.2784(7)
H15 H 0.3813 1.3746 0.2577
C35 C 0.2689(13) 1.2999(8) 0.2635(7)
C36 C 0.3154(12) 1.2509(8) 0.2156(7)
C37 C 0.2494(12) 1.1954(9) 0.2122(7)
C38 C 0.4123(13) 1.2524(9) 0.1773(7)
H16 H 0.4580 1.2890 0.1780
C39 C 0.2784(13) 1.1410(8) 0.1714(7)
H17 H 0.2320 1.1053 0.1698
C40 C 0.4424(13) 1.1989(8) 0.1371(7)
H18 H 0.5084 1.2007 0.1110
C41 C 0.3771(11) 1.1427(8) 0.1345(6)
C42 C 0.4152(13) 1.0855(8) 0.0893(6)
O15 O 0.3512(8) 1.0389(6) 0.0847(4)
S3 S 0.1263(4) 1.2048(3) 0.2652(2)
O16 O 0.1208(10) 1.1369(6) 0.3110(5)
O17 O 0.0337(9) 1.2325(7) 0.2322(5)
O18 O 0.5094(8) 1.0922(6) 0.0590(4)
O19 O 0.1936(8) 0.9359(6) 0.0723(5)
O20 O 0.2052(9) 1.0812(6) -0.0071(5)
O21 O 0.3092(9) 0.5014(6) -0.5238(6)
O22 O 0.2348(9) 0.6337(6) -0.6088(6)
C43 C 0.3432(14) 0.4388(10) -0.5354(9)
H19 H 0.2965 0.4008 -0.5251
C44 C 0.1678(15) 0.9423(10) 0.1271(9)
C45 C 0.1553(19) 1.1199(13) 0.0311(11)
H20 H 0.1832 1.1144 0.0678
N1 N 0.0666(13) 0.9670(9) 0.1508(7)
N2 N 0.4447(12) 0.4198(8) -0.5623(8)
N3 N 0.0641(16) 1.1695(10) 0.0250(10)
C46 C -0.0211(17) 0.9894(15) 0.1081(11)
H21 H -0.0899 1.0056 0.1313
H22 H -0.0279 0.9455 0.0898
H23 H -0.0005 1.0310 0.0764
C47 C 0.4820(17) 0.3406(12) -0.5803(13)
H24 H 0.5571 0.3379 -0.5988
H25 H 0.4378 0.3318 -0.6090
H26 H 0.4746 0.3018 -0.5444
C48 C 0.5242(17) 0.4752(12) -0.5852(13)
H27 H 0.5917 0.4486 -0.6026
H28 H 0.5368 0.4986 -0.5520
H29 H 0.4960 0.5145 -0.6161
C49 C 0.0349(18) 0.9799(13) 0.2144(9)
H30 H -0.0420 0.9972 0.2213
H31 H 0.0751 1.0184 0.2221
H32 H 0.0509 0.9323 0.2415
C50 C 0.013(3) 1.2107(19) 0.0741(14)
H33 H -0.0517 1.2427 0.0626
H34 H 0.0630 1.2427 0.0822
H35 H -0.0059 1.1744 0.1103
C51 C 0.005(3) 1.178(2) -0.0298(15)
H36 H -0.0587 1.2157 -0.0253
H37 H -0.0163 1.1294 -0.0327
H38 H 0.0528 1.1956 -0.0664
Dy1A Dy 0.65337(6) 1.02921(4) -0.00208(3)
Dy2_2 Dy 0.12882(6) 1.57010(4) -0.51805(3)
Dy2A Dy -0.12882(6) 1.42990(4) -0.48195(3)
Dy2A_2 Dy -0.12882(6) 1.42990(4) 0.51805(3)
Dy2_3 Dy 0.12882(6) 1.57010(4) 0.48195(3)
O8A O 0.4119(8) 0.8639(5) 0.0732(5)
O9_2 O 0.0967(8) 0.4550(5) -0.4566(4)
O10A O 0.0016(8) 0.6423(6) -0.5811(5)
O13A O -0.0194(8) 0.6050(5) -0.4420(4)
O14_2 O 0.1321(8) 0.4863(5) -0.5897(4)
O18A O 0.4906(8) 0.9078(6) -0.0590(4)
O23 O 0.2801(14) 0.9331(10) 0.2624(8)
C52 C 0.320(3) 0.9816(18) 0.2877(15)
H39 H 0.2749 1.0043 0.3189
N4 N 0.4203(16) 1.0000(11) 0.2712(8)
C53 C 0.459(3) 1.0622(18) 0.292(2)
H40 H 0.5339 1.0655 0.2741
H41 H 0.4536 1.0524 0.3357
H42 H 0.4153 1.1101 0.2793
C54 C 0.497(2) 0.9722(18) 0.2283(14)
H43 H 0.5628 0.9956 0.2257
H44 H 0.4714 0.9839 0.1892
H45 H 0.5131 0.9171 0.2393
O24 O 0.8064(18) 0.9659(11) 0.3932(8)
C55 C 0.884(3) 0.9066(19) 0.3876(14)
H46 H 0.8623 0.8596 0.3843
N5 N 0.997(2) 0.9095(11) 0.3863(10)
C56 C 1.066(3) 0.8436(16) 0.3776(11)
H47 H 1.0250 0.8047 0.3717
H48 H 1.1026 0.8254 0.4130
H49 H 1.1195 0.8545 0.3421
C57 C 1.030(3) 0.9780(15) 0.3945(14)
H50 H 0.9671 1.0160 0.3994
H51 H 1.0798 0.9964 0.3592
H52 H 1.0657 0.9689 0.4304
O25 O 0.2468(14) 1.2703(10) 0.5043(8)
C58 C 0.170(2) 1.2418(12) 0.4964(9)
H53 H 0.1013 1.2643 0.5116
N6 N 0.1730(15) 1.1825(9) 0.4686(8)
C59 C 0.074(2) 1.1550(12) 0.4618(10)
H54 H 0.0918 1.1122 0.4394
H55 H 0.0293 1.1959 0.4398
H56 H 0.0352 1.1384 0.5016
C60 C 0.275(2) 1.149(2) 0.4428(16)
H57 H 0.2656 1.1068 0.4231
H58 H 0.3201 1.1294 0.4746
H59 H 0.3105 1.1869 0.4131
loop_
_geom_bond_atom_site_label_1
_geom_bond_atom_site_label_2
_geom_bond_site_symmetry_1
_geom_bond_site_symmetry_2
Dy1 O1 1_555 1_555
Dy2 O3 1_555 1_555
O1 C1 1_555 1_555
O2 Dy1 1_555 1_555
C1 O2 1_555 1_555
C2 C1 1_555 1_555
C3 C2 1_555 1_555
H1 C3 1_555 1_555
C4 C2 1_555 1_555
H2 C4 1_555 1_555
C5 C4 1_555 1_555
C6 C3 1_555 1_555
H3 C6 1_555 1_555
C7 C5 1_555 1_555
C8 C7 1_555 1_555
C9 C8 1_555 1_555
C10 C8 1_555 1_555
H4 C10 1_555 1_555
C11 C9 1_555 1_555
H5 C11 1_555 1_555
C12 C10 1_555 1_555
H6 C12 1_555 1_555
C13 C11 1_555 1_555
C14 C13 1_555 1_555
O3 C14 1_555 1_555
O4 Dy2 1_555 1_555
S1 C5 1_555 1_555
O5 S1 1_555 1_555
O6 S1 1_555 1_555
O7 Dy1 1_555 1_555
O8 C15 1_555 1_555
C15 O7 1_555 1_555
C16 C15 1_555 1_555
C17 C16 1_555 1_555
H7 C17 1_555 1_555
C18 C16 1_555 1_555
H8 C18 1_555 1_555
C19 C18 1_555 1_555
H9 C19 1_555 1_555
C20 C17 1_555 1_555
C21 C19 1_555 1_555
C22 C21 1_555 1_555
C23 C22 1_555 1_555
C24 C22 1_555 1_555
H10 C24 1_555 1_555
C25 C24 1_555 1_555
H11 C25 1_555 1_555
C26 C23 1_555 1_555
H12 C26 1_555 1_555
C27 C25 1_555 1_555
C28 C27 1_555 1_555
O9 C28 1_555 1_555
O10 C28 1_555 1_555
S2 C20 1_555 1_555
O11 S2 1_555 1_555
O12 S2 1_555 1_555
O13 C29 1_555 1_555
O14 C29 1_555 1_555
C29 C30 1_555 1_555
C30 C31 1_555 1_555
C31 H13 1_555 1_555
C32 C30 1_555 1_555
H14 C32 1_555 1_555
C33 C31 1_555 1_555
C34 C32 1_555 1_555
H15 C34 1_555 1_555
C35 C33 1_555 1_555
C36 C35 1_555 1_555
C37 C36 1_555 1_555
C38 C36 1_555 1_555
H16 C38 1_555 1_555
C39 C37 1_555 1_555
H17 C39 1_555 1_555
C40 C38 1_555 1_555
H18 C40 1_555 1_555
C41 C39 1_555 1_555
C42 C41 1_555 1_555
O15 Dy1 1_555 1_555
S3 C33 1_555 1_555
O16 S3 1_555 1_555
O17 S3 1_555 1_555
O18 C42 1_555 1_555
O19 Dy1 1_555 1_555
O20 Dy1 1_555 1_555
O21 Dy2 1_555 1_555
O22 Dy2 1_555 1_555
C43 O21 1_555 1_555
H19 C43 1_555 1_555
C44 O19 1_555 1_555
C45 O20 1_555 1_555
H20 C45 1_555 1_555
N1 C44 1_555 1_555
N2 C43 1_555 1_555
N3 C45 1_555 1_555
C46 N1 1_555 1_555
H21 C46 1_555 1_555
H22 C46 1_555 1_555
H23 C46 1_555 1_555
C47 N2 1_555 1_555
H24 C47 1_555 1_555
H25 C47 1_555 1_555
H26 C47 1_555 1_555
C48 N2 1_555 1_555
H27 C48 1_555 1_555
H28 C48 1_555 1_555
H29 C48 1_555 1_555
C49 N1 1_555 1_555
H30 C49 1_555 1_555
H31 C49 1_555 1_555
H32 C49 1_555 1_555
C50 N3 1_555 1_555
H33 C50 1_555 1_555
H34 C50 1_555 1_555
H35 C50 1_555 1_555
C51 N3 1_555 1_555
H36 C51 1_555 1_555
H37 C51 1_555 1_555
H38 C51 1_555 1_555
O23 C52 1_555 1_555
C52 H39 1_555 1_555
N4 C52 1_555 1_555
C53 N4 1_555 1_555
H40 C53 1_555 1_555
H41 C53 1_555 1_555
H42 C53 1_555 1_555
C54 N4 1_555 1_555
H43 C54 1_555 1_555
H44 C54 1_555 1_555
H45 C54 1_555 1_555
O24 C55 1_555 1_555
C55 H46 1_555 1_555
N5 C55 1_555 1_555
C56 N5 1_555 1_555
H47 C56 1_555 1_555
H48 C56 1_555 1_555
H49 C56 1_555 1_555
C57 N5 1_555 1_555
H50 C57 1_555 1_555
H51 C57 1_555 1_555
H52 C57 1_555 1_555
O25 C58 1_555 1_555
C58 H53 1_555 1_555
N6 C58 1_555 1_555
C59 N6 1_555 1_555
H54 C59 1_555 1_555
H55 C59 1_555 1_555
H56 C59 1_555 1_555
C60 N6 1_555 1_555
H57 C60 1_555 1_555
H58 C60 1_555 1_555
H59 C60 1_555 1_555
Dy1A O8 1_555 1_555
Dy2_2 O9 1_555 1_555
Dy2A O10 1_555 1_555
Dy2A_2 O13 1_555 1_555
Dy2_3 O14 1_555 1_555
O8A Dy1 1_555 1_555
O9_2 Dy2 1_555 1_555
O10A Dy2 1_555 1_555
O13A Dy2 1_555 1_555
O14_2 Dy2 1_555 1_555
O18A Dy1 1_555 1_555
C6 C7 1_555 1_555
C9 S1 1_555 1_555
C12 C13 1_555 1_555
C14 O4 1_555 1_555
C20 C21 1_555 1_555
C23 S2 1_555 1_555
C26 C27 1_555 1_555
C34 C35 1_555 1_555
C37 S3 1_555 1_555
C40 C41 1_555 1_555
C42 O15 1_555 1_555
O18 Dy1A 1_555 1_555

#END
