
#######################################################################
#
#                 Cambridge Crystallographic Data Centre
#                                CCDC 
#
#######################################################################
#
# If this CIF has been generated from an entry in the Cambridge 
# Structural Database, then it will include bibliographic, chemical, 
# crystal, experimental, refinement or atomic coordinate data resulting 
# from the CCDC's data processing and validation procedures.
#
#######################################################################

data_ZAZBUZ
_chemical_formula_moiety         '(C19 H19 Cu2 N1 O11)n'
_symmetry_cell_setting           triclinic
_symmetry_space_group_name_H-M   'P -1'
_symmetry_Int_Tables_number      2
_space_group_name_Hall           '-P 1'
loop_
_symmetry_equiv_pos_site_id
_symmetry_equiv_pos_as_xyz
1 x,y,z
2 -x,-y,-z
_cell_length_a                   6.605
_cell_length_b                   10.44780(10)
_cell_length_c                   11.0881(6)
_cell_angle_alpha                62.064(11)
_cell_angle_beta                 73.410(15)
_cell_angle_gamma                78.404(16)
_cell_volume                     645.814
loop_
_atom_site_label
_atom_site_type_symbol
_atom_site_fract_x
_atom_site_fract_y
_atom_site_fract_z
Cu1 Cu 1.0000 0.0000 0.5000
Cu2 Cu 0.5000 0.0000 0.5000
O1 O 0.6708(4) -0.0125(3) 0.3302(2)
O2 O 0.7870(4) 0.1676(3) 0.4793(3)
O3 O 0.3165(4) 0.1469(3) 0.3877(3)
H1 H 0.3093 0.1675 0.3051
H2 H 0.2621 0.2200 0.4035
O4 O 1.0023(4) 0.0220(3) 0.3159(2)
C1 C 0.8637(5) 0.0039(4) 0.2711(3)
C2 C 0.8353(6) 0.2823(4) 0.4740(4)
O5 O 1.0189(4) 0.3081(3) 0.4595(4)
C3 C 0.4486(6) 0.3629(4) 0.5337(4)
H3 H 0.4133 0.2690 0.5571
C4 C 0.9345(6) 0.0013(4) 0.1303(3)
C5 C 0.6598(6) 0.3946(4) 0.4868(4)
C6 C 0.7099(6) 0.5326(4) 0.4537(5)
H4 H 0.8538 0.5547 0.4224
C7 C 0.7937(6) -0.0277(5) 0.0756(4)
H5 H 0.6522 -0.0465 0.1272
C8 C 1.1400(6) 0.0293(5) 0.0547(4)
H6 H 1.2362 0.0497 0.0917
Cu1_2 Cu 1.0000 0.0000 -0.5000
Cu1_3 Cu 0.0000 1.0000 0.5000
Cu2_2 Cu 1.5000 0.0000 -0.5000
O1A O 1.3292(4) 0.0125(3) -0.3302(2)
O1A_2 O 0.3292(4) 0.0125(3) 0.6698(2)
O2A O 0.2130(4) 0.8324(3) 0.5207(3)
O2A_2 O 1.2130(4) -0.1676(3) 0.5207(3)
O3A O 0.6835(4) -0.1469(3) 0.6123(3)
H1A H 0.6907 -0.1675 0.6949
H2A H 0.7379 -0.2200 0.5965
O4A O 0.9977(4) -0.0220(3) -0.3159(2)
O4A_2 O 0.9977(4) -0.0220(3) 0.6841(2)
C1A C 1.1363(5) -0.0039(4) -0.2711(3)
C2A C 0.1647(6) 0.7177(4) 0.5260(4)
O5A O -0.0189(4) 0.6919(3) 0.5405(4)
C3A C 0.5514(6) 0.6371(4) 0.4663(4)
H3A H 0.5867 0.7310 0.4429
C4A C 1.0655(6) -0.0013(4) -0.1303(3)
C5A C 0.3402(6) 0.6054(4) 0.5132(4)
C6A C 0.2901(6) 0.4674(4) 0.5463(5)
H4A H 0.1462 0.4453 0.5776
C7A C 1.2063(6) 0.0277(5) -0.0756(4)
H5A H 1.3478 0.0465 -0.1272
C8A C 0.8600(6) -0.0293(5) -0.0547(4)
H6A H 0.7638 -0.0497 -0.0917
O6 O 0.4119(7) 0.2716(5) 0.1106(4)
N1 N 0.7021(10) 0.3632(6) -0.0587(6)
C9 C 0.5936(13) 0.3131(7) 0.0696(6)
H7 H 0.6585 0.3076 0.1383
C10 C 0.9167(16) 0.4061(10) -0.1018(11)
H8 H 0.9597 0.3991 -0.0212
H9 H 0.9222 0.5066 -0.1749
H10 H 1.0130 0.3417 -0.1386
C11 C 0.616(2) 0.3737(13) -0.1695(8)
H11 H 0.4895 0.3188 -0.1286
H12 H 0.7220 0.3337 -0.2276
H13 H 0.5765 0.4760 -0.2274
loop_
_geom_bond_atom_site_label_1
_geom_bond_atom_site_label_2
_geom_bond_site_symmetry_1
_geom_bond_site_symmetry_2
Cu1 O2 1_555 1_555
Cu2 O1 1_555 1_555
O1 C1 1_555 1_555
O2 C2 1_555 1_555
O3 Cu2 1_555 1_555
H1 O3 1_555 1_555
H2 O3 1_555 1_555
O4 Cu1 1_555 1_555
C1 O4 1_555 1_555
C2 O5 1_555 1_555
C3 H3 1_555 1_555
C4 C1 1_555 1_555
C5 C2 1_555 1_555
C6 C5 1_555 1_555
H4 C6 1_555 1_555
C7 C4 1_555 1_555
H5 C7 1_555 1_555
C8 C4 1_555 1_555
H6 C8 1_555 1_555
O6 C9 1_555 1_555
N1 C9 1_555 1_555
C9 H7 1_555 1_555
C10 N1 1_555 1_555
H8 C10 1_555 1_555
H9 C10 1_555 1_555
H10 C10 1_555 1_555
C11 N1 1_555 1_555
H11 C11 1_555 1_555
H12 C11 1_555 1_555
H13 C11 1_555 1_555
Cu1_2 O4A 1_555 1_555
Cu1_3 O2A 1_555 1_555
Cu2_2 O1A 1_555 1_555
O1A C1A 1_555 1_555
O1A_2 Cu2 1_555 1_555
O2A C2A 1_555 1_555
O2A_2 Cu1 1_555 1_555
O3A Cu2 1_555 1_555
H1A O3A 1_555 1_555
H2A O3A 1_555 1_555
O4A C1A 1_555 1_555
O4A_2 Cu1 1_555 1_555
C1A C4A 1_555 1_555
C2A O5A 1_555 1_555
C3A C6 1_555 1_555
H3A C3A 1_555 1_555
C4A C7A 1_555 1_555
C5A C2A 1_555 1_555
C6A C3 1_555 1_555
H4A C6A 1_555 1_555
C7A C8 1_555 1_555
H5A C7A 1_555 1_555
C8A C7 1_555 1_555
H6A C8A 1_555 1_555
C3 C5 1_555 1_555
C3A C5A 1_555 1_555
C4A C8A 1_555 1_555
C5A C6A 1_555 1_555

#END
