
#######################################################################
#
#                 Cambridge Crystallographic Data Centre
#                                CCDC 
#
#######################################################################
#
# If this CIF has been generated from an entry in the Cambridge 
# Structural Database, then it will include bibliographic, chemical, 
# crystal, experimental, refinement or atomic coordinate data resulting 
# from the CCDC's data processing and validation procedures.
#
#######################################################################

data_DADLIG
_chemical_formula_moiety         '(C183 H152 Mn5 N22 O33)n'
_symmetry_cell_setting           triclinic
_symmetry_space_group_name_H-M   'P -1'
_symmetry_Int_Tables_number      2
_space_group_name_Hall           '-P 1'
loop_
_symmetry_equiv_pos_site_id
_symmetry_equiv_pos_as_xyz
1 x,y,z
2 -x,-y,-z
_cell_length_a                   13.0203(5)
_cell_length_b                   19.7760(7)
_cell_length_c                   20.8274(8)
_cell_angle_alpha                61.932(4)
_cell_angle_beta                 73.268(3)
_cell_angle_gamma                80.162(3)
_cell_volume                     4527.78
loop_
_atom_site_label
_atom_site_type_symbol
_atom_site_fract_x
_atom_site_fract_y
_atom_site_fract_z
O16 O 1.4403(3) 0.5278(2) 0.3223(2)
C88 C 1.5060(5) 0.5476(3) 0.3430(4)
C89 C 1.6611(5) 0.5872(5) 0.3439(4)
H68 H 1.6874 0.6382 0.3101
H69 H 1.7206 0.5527 0.3608
C90 C 1.5753(6) 0.5878(7) 0.4079(5)
H70 H 1.5954 0.5550 0.4550
H71 H 1.5592 0.6394 0.4034
N9 N 1.6088(4) 0.5605(3) 0.3083(3)
H72 H 1.6403 0.5538 0.2693
N10 N 1.4858(4) 0.5588(4) 0.4029(3)
H73 H 1.4254 0.5498 0.4356
O17 O -0.6668(3) 0.8299(2) 0.0192(2)
C91 C -0.6469(5) 0.7085(4) 0.2028(4)
H74 H -0.6327 0.7238 0.2373
H75 H -0.6149 0.6577 0.2124
C92 C -0.6812(4) 0.7873(3) 0.0866(4)
C93 C -0.7674(5) 0.7110(5) 0.2094(4)
H76 H -0.7927 0.6601 0.2285
H77 H -0.8081 0.7342 0.2415
N11 N -0.7741(4) 0.7573(4) 0.1340(3)
H78 H -0.8328 0.7654 0.1199
N12 N -0.6076(4) 0.7622(3) 0.1272(3)
H79 H -0.5428 0.7772 0.1092
O18 O -0.6353(15) 0.4483(6) 0.0597(6)
C94 C -0.6456(13) 0.5060(8) 0.0668(8)
C95 C -0.6245(9) 0.6291(6) 0.0519(6)
H80 H -0.6314 0.6762 0.0074
H81 H -0.5831 0.6383 0.0788
C96 C -0.7271(9) 0.6013(6) 0.0983(7)
H82 H -0.7839 0.6359 0.0771
H83 H -0.7350 0.5962 0.1482
N13 N -0.7308(13) 0.5283(8) 0.1010(7)
H84 H -0.7869 0.5013 0.1242
N14 N -0.5764(10) 0.5687(7) 0.0332(6)
H85 H -0.5131 0.5697 0.0051
Mn1 Mn 0.0000 1.0000 0.0000
Mn2 Mn -0.08455(5) 0.79765(3) 0.09958(3)
Mn3 Mn -0.29339(5) 0.70194(4) 0.09620(4)
O1 O -0.1265(2) 0.92184(16) 0.02433(16)
O2 O -1.0581(2) 1.67580(17) 0.15728(17)
O3 O 0.1212(2) 0.92579(18) 0.96478(17)
O4 O 0.0700(2) 0.80542(17) 1.03162(17)
O5 O -1.1548(2) 0.77133(18) 1.01639(17)
O6 O 0.0200(3) 0.9448(2) 0.11012(19)
O7 O -1.2023(3) 1.62015(17) 0.16900(18)
O8 O -0.0425(3) 0.8273(2) 0.17248(18)
O9 O -0.3828(2) 0.77062(19) 0.01016(19)
O10 O -0.2427(3) 0.7880(2) 0.1615(2)
O11 O -1.1655(2) 0.6823(2) 0.98387(18)
O12 O 1.2302(3) 0.5486(2) 0.3656(2)
H1 H 1.2957 0.5424 0.3562
O13 O 1.2537(3) 0.5448(2) 0.4689(2)
O14 O -0.3942(3) 0.7645(2) 0.1536(2)
O15 O -0.3974(3) 0.6131(2) 0.1348(2)
C1 C 0.1227(3) 0.8586(3) 0.9744(3)
C2 C -0.3956(3) 0.8497(3) 0.2054(3)
C3 C 0.1888(3) 0.8383(2) 0.9136(2)
C4 C -0.9141(4) 1.3191(2) 0.3342(3)
C5 C -0.9653(3) 1.3958(2) 0.2963(2)
C6 C 0.3616(3) 0.7698(3) 0.4893(2)
C7 C 0.1801(3) 0.7678(3) 0.9181(3)
H2 H 0.1429 0.7299 0.9626
C8 C -0.9199(3) 0.9467(3) 0.6622(3)
C9 C -0.8162(4) 1.1730(2) 0.4050(2)
C10 C 0.3250(3) 0.7919(3) 0.7247(2)
C11 C -1.0623(3) 1.5410(2) 0.2223(2)
C12 C 0.2953(3) 0.8768(3) 0.7880(3)
H3 H 0.3355 0.9138 0.7445
C13 C 0.5414(4) 0.7232(3) 0.5158(3)
C14 C 0.4611(3) 0.8037(3) 0.6139(3)
H4 H 0.5274 0.8213 0.5818
C15 C 0.8663(4) 0.6354(3) 0.4701(3)
C16 C -1.1107(4) 1.6189(3) 0.1796(2)
C17 C -1.0397(3) 0.8650(3) 0.8711(3)
H5 H -1.0484 0.8801 0.9085
C18 C 0.2833(3) 0.8072(3) 0.7909(3)
C19 C 0.2149(4) 0.8095(3) 0.3994(3)
C20 C -1.0778(3) 0.7963(3) 0.8888(3)
C21 C 0.3994(4) 0.7645(3) 0.5992(3)
C22 C 0.2660(4) 0.7531(3) 0.7082(3)
H6 H 0.1996 0.7354 0.7401
C23 C 0.2488(3) 0.8926(3) 0.8486(3)
H7 H 0.2580 0.9398 0.8454
C24 C 0.0028(4) 0.8814(3) 0.1663(3)
C25 C 1.0793(4) 0.5808(3) 0.4433(3)
C26 C -1.0654(4) 0.7766(3) 0.8312(3)
H8 H -1.0908 0.7305 0.8415
C27 C 0.2254(4) 0.7528(3) 0.8580(3)
H9 H 0.2174 0.7050 0.8621
C28 C 0.1468(4) 0.8326(3) 0.3454(3)
C29 C -0.9756(3) 0.8946(3) 0.7401(2)
C30 C 0.4239(4) 0.8167(3) 0.6762(3)
H10 H 0.4660 0.8426 0.6860
C31 C 0.7536(3) 0.6662(3) 0.4846(3)
C32 C -0.8155(4) 1.0477(3) 0.5149(3)
C33 C -0.8054(4) 1.3039(3) 0.3104(3)
H11 H -0.7637 1.3428 0.2702
C34 C -0.2119(4) 0.9473(3) 0.0026(3)
C35 C 1.0172(4) 0.5954(3) 0.3942(3)
H12 H 1.0464 0.5878 0.3516
C36 C 1.0356(4) 0.5931(3) 0.5056(3)
H13 H 1.0769 0.5835 0.5390
C37 C -0.3410(4) 0.8790(3) 0.2330(3)
H14 H -0.2679 0.8674 0.2292
C38 C -0.9654(4) 1.5336(3) 0.2395(3)
H15 H -0.9316 1.5775 0.2268
C39 C 1.1965(4) 0.5556(3) 0.4283(3)
C40 C -0.3923(4) 0.9256(3) 0.2665(3)
H16 H -0.3532 0.9436 0.2859
C41 C -0.7575(4) 1.2320(3) 0.3452(3)
H17 H -0.6846 1.2236 0.3278
C42 C -1.1351(3) 0.7460(3) 0.9680(3)
C43 C -0.9168(4) 1.4627(3) 0.2752(3)
H18 H -0.8507 1.4598 0.2853
C44 C -0.5423(4) 0.9846(3) 0.3756(3)
H19 H -0.4841 0.9537 0.3925
C45 C 0.9112(4) 0.6216(3) 0.4082(3)
H20 H 0.8694 0.6301 0.3754
C46 C -0.3419(4) 0.7977(3) 0.1706(3)
C47 C -0.6941(4) 1.0671(2) 0.3938(3)
C48 C 0.0460(3) 0.8679(3) 0.2309(3)
C49 C 0.5884(4) 0.6704(3) 0.5729(3)
H21 H 0.5491 0.6527 0.6224
C50 C -0.8572(4) 0.9819(3) 0.5301(3)
H22 H -0.8522 0.9700 0.4910
C51 C -0.4994(4) 0.9460(3) 0.2719(3)
C52 C -0.9884(4) 0.9120(3) 0.7984(3)
H23 H -0.9614 0.9574 0.7886
C53 C 0.7053(4) 0.7186(3) 0.4279(3)
H24 H 0.7439 0.7350 0.3783
C54 C -0.6072(4) 1.0213(3) 0.4167(3)
H25 H -0.5915 1.0148 0.4601
C55 C 0.2974(4) 0.8364(3) 0.4732(3)
H26 H 0.3026 0.8689 0.4929
C56 C 0.6931(4) 0.6435(3) 0.5573(3)
H27 H 0.7237 0.6092 0.5967
C57 C 0.1112(4) 0.9197(3) 0.2249(3)
H28 H 0.1228 0.9663 0.1821
C58 C 0.3019(4) 0.7400(3) 0.6470(3)
H29 H 0.2595 0.7140 0.6375
C59 C 0.2261(4) 0.8559(3) 0.4291(3)
H30 H 0.1847 0.9013 0.4193
C60 C -0.9237(4) 1.1876(3) 0.4302(3)
H31 H -0.9645 1.1489 0.4716
C61 C -0.5613(4) 0.9925(3) 0.3107(3)
C62 C -0.9072(4) 0.9319(3) 0.6026(3)
H32 H -0.9328 0.8868 0.6108
C63 C -0.9720(4) 1.2595(3) 0.3945(3)
H33 H -1.0451 1.2676 0.4118
C64 C -1.0153(4) 0.8253(3) 0.7582(3)
H34 H -1.0082 0.8111 0.7204
C65 C 0.6009(4) 0.7473(3) 0.4428(3)
H35 H 0.5710 0.7829 0.4035
C66 C 0.1591(4) 0.9027(3) 0.2819(3)
H36 H 0.2007 0.9390 0.2778
C67 C -0.7131(4) 1.0780(3) 0.3277(3)
H37 H -0.7705 1.1099 0.3106
C68 C -1.0639(4) 1.4038(3) 0.2808(3)
H38 H -1.0994 1.3600 0.2953
C69 C -0.6466(4) 1.0415(3) 0.2861(3)
H39 H -0.6598 1.0503 0.2412
C70 C 0.2748(5) 0.7422(3) 0.4174(3)
H40 H 0.2658 0.7090 0.3995
C71 C -1.1117(4) 1.4750(3) 0.2443(3)
H41 H -1.1782 1.4781 0.2346
C72 C 0.9315(4) 0.6195(3) 0.5183(3)
H42 H 0.9031 0.6271 0.5609
C73 C 0.0234(4) 0.8046(3) 0.2972(3)
H43 H -0.0275 0.7722 0.3048
C74 C 0.0729(4) 0.7862(3) 0.3541(3)
H44 H 0.0555 0.7418 0.3987
C75 C 0.3491(4) 0.7205(3) 0.4615(3)
H45 H 0.3891 0.6745 0.4721
C76 C -0.5020(4) 0.8681(4) 0.2107(4)
H46 H -0.5413 0.8483 0.1930
C77 C -0.5526(4) 0.9173(4) 0.2431(4)
H47 H -0.6250 0.9307 0.2450
C78 C -0.3875(5) 0.7361(4) -0.1397(3)
H48 H -0.4035 0.6894 -0.1387
H49 H -0.3336 0.7630 -0.1851
C79 C -0.4881(5) 0.7866(4) -0.1332(3)
H50 H -0.4907 0.8303 -0.1811
H51 H -0.5524 0.7579 -0.1145
C80 C -0.3552(6) 1.0274(4) -0.0326(6)
H52 H -0.3396 1.0697 -0.0825
H53 H -0.4211 1.0396 -0.0030
C81 C -0.8773(5) 1.0141(3) 0.6452(3)
H54 H -0.8838 1.0270 0.6837
C82 C -0.3943(5) 0.5479(5) 0.1433(4)
C83 C -0.3464(13) 0.4410(8) 0.1261(8)
H55 H -0.2816 0.4113 0.1389
H56 H -0.3633 0.4315 0.0887
C84 C -0.3621(5) 0.9525(4) -0.0352(5)
H57 H -0.4204 0.9224 0.0043
H58 H -0.3716 0.9619 -0.0833
C85 C -0.8250(5) 1.0633(3) 0.5731(3)
H59 H -0.7963 1.1075 0.5647
C86 C -0.4394(12) 0.4196(5) 0.1957(6)
H60 H -0.5030 0.4081 0.1878
H61 H -0.4200 0.3768 0.2394
C87 C -0.4030(4) 0.7668(3) -0.0434(3)
N1 N -0.2676(3) 1.0100(3) 0.0025(3)
H62 H -0.2532 1.0369 0.0211
N2 N -0.3538(4) 0.7203(3) -0.0739(3)
H63 H -0.3071 0.6848 -0.0562
N3 N -0.2608(3) 0.9159(2) -0.0239(3)
H64 H -0.2341 0.8777 -0.0333
N4 N -0.4527(5) 0.4908(3) 0.2010(4)
H65 H -0.4951 0.4962 0.2387
N5 N -0.3319(9) 0.5226(4) 0.0977(4)
H66 H -0.2881 0.5500 0.0566
N6 N -0.7653(3) 1.0997(2) 0.4399(2)
N7 N 0.4359(3) 0.7518(2) 0.5341(2)
N8 N -0.4764(4) 0.8109(3) -0.0800(3)
H67 H -0.5121 0.8487 -0.0731
Mn2A Mn 0.08455(5) 1.20235(3) -0.09958(3)
Mn3A Mn 0.29339(5) 1.29806(4) -0.09620(4)
O1A O 0.1265(2) 1.07816(16) -0.02433(16)
O2A O 1.0581(2) 0.32420(17) -0.15728(17)
O3A O -0.1212(2) 1.07421(18) -0.96478(17)
O4A O -0.0700(2) 1.19458(17) -1.03162(17)
O5A O 1.1548(2) 1.22867(18) -1.01639(17)
O6A O -0.0200(3) 1.0552(2) -0.11012(19)
O7A O 1.2023(3) 0.37985(17) -0.16900(18)
O8A O 0.0425(3) 1.1727(2) -0.17248(18)
O9A O 0.3828(2) 1.22938(19) -0.01016(19)
O10A O 0.2427(3) 1.2120(2) -0.1615(2)
O11A O 1.1655(2) 1.3177(2) -0.98387(18)
O12A O -1.2302(3) 1.4514(2) -0.3656(2)
H1A H -1.2957 1.4576 -0.3562
O13A O -1.2537(3) 1.4552(2) -0.4689(2)
O14A O 0.3942(3) 1.2355(2) -0.1536(2)
O15A O 0.3974(3) 1.3869(2) -0.1348(2)
C1A C -0.1227(3) 1.1414(3) -0.9744(3)
C2A C 0.3956(3) 1.1503(3) -0.2054(3)
C3A C -0.1888(3) 1.1617(2) -0.9136(2)
C4A C 0.9141(4) 0.6809(2) -0.3342(3)
C5A C 0.9653(3) 0.6042(2) -0.2963(2)
C6A C -0.3616(3) 1.2302(3) -0.4893(2)
C7A C -0.1801(3) 1.2322(3) -0.9181(3)
H2A H -0.1429 1.2701 -0.9626
C8A C 0.9199(3) 1.0533(3) -0.6622(3)
C9A C 0.8162(4) 0.8270(2) -0.4050(2)
C10A C -0.3250(3) 1.2081(3) -0.7247(2)
C11A C 1.0623(3) 0.4590(2) -0.2223(2)
C12A C -0.2953(3) 1.1232(3) -0.7880(3)
H3A H -0.3355 1.0862 -0.7445
C13A C -0.5414(4) 1.2768(3) -0.5158(3)
C14A C -0.4611(3) 1.1963(3) -0.6139(3)
H4A H -0.5274 1.1787 -0.5818
C15A C -0.8663(4) 1.3646(3) -0.4701(3)
C16A C 1.1107(4) 0.3811(3) -0.1796(2)
C17A C 1.0397(3) 1.1350(3) -0.8711(3)
H5A H 1.0484 1.1199 -0.9085
C18A C -0.2833(3) 1.1928(3) -0.7909(3)
C19A C -0.2149(4) 1.1905(3) -0.3994(3)
C20A C 1.0778(3) 1.2037(3) -0.8888(3)
C21A C -0.3994(4) 1.2355(3) -0.5992(3)
C22A C -0.2660(4) 1.2469(3) -0.7082(3)
H6A H -0.1996 1.2646 -0.7401
C23A C -0.2488(3) 1.1074(3) -0.8486(3)
H7A H -0.2580 1.0602 -0.8454
C24A C -0.0028(4) 1.1186(3) -0.1663(3)
C25A C -1.0793(4) 1.4192(3) -0.4433(3)
C26A C 1.0654(4) 1.2234(3) -0.8312(3)
H8A H 1.0908 1.2695 -0.8415
C27A C -0.2254(4) 1.2472(3) -0.8580(3)
H9A H -0.2174 1.2950 -0.8621
C28A C -0.1468(4) 1.1674(3) -0.3454(3)
C29A C 0.9756(3) 1.1054(3) -0.7401(2)
C30A C -0.4239(4) 1.1833(3) -0.6762(3)
H10A H -0.4660 1.1574 -0.6860
C31A C -0.7536(3) 1.3338(3) -0.4846(3)
C32A C 0.8155(4) 0.9523(3) -0.5149(3)
C33A C 0.8054(4) 0.6961(3) -0.3104(3)
H11A H 0.7637 0.6572 -0.2702
C34A C 0.2119(4) 1.0527(3) -0.0026(3)
C35A C -1.0172(4) 1.4046(3) -0.3942(3)
H12A H -1.0464 1.4122 -0.3516
C36A C -1.0356(4) 1.4069(3) -0.5056(3)
H13A H -1.0769 1.4165 -0.5390
C37A C 0.3410(4) 1.1210(3) -0.2330(3)
H14A H 0.2679 1.1326 -0.2292
C38A C 0.9654(4) 0.4664(3) -0.2395(3)
H15A H 0.9316 0.4225 -0.2268
C39A C -1.1965(4) 1.4444(3) -0.4283(3)
C40A C 0.3923(4) 1.0744(3) -0.2665(3)
H16A H 0.3532 1.0564 -0.2859
C41A C 0.7575(4) 0.7680(3) -0.3452(3)
H17A H 0.6846 0.7764 -0.3278
C42A C 1.1351(3) 1.2540(3) -0.9680(3)
C43A C 0.9168(4) 0.5373(3) -0.2752(3)
H18A H 0.8507 0.5402 -0.2853
C44A C 0.5423(4) 1.0154(3) -0.3756(3)
H19A H 0.4841 1.0463 -0.3925
C45A C -0.9112(4) 1.3784(3) -0.4082(3)
H20A H -0.8694 1.3699 -0.3754
C46A C 0.3419(4) 1.2023(3) -0.1706(3)
C47A C 0.6941(4) 0.9329(2) -0.3938(3)
C48A C -0.0460(3) 1.1321(3) -0.2309(3)
C49A C -0.5884(4) 1.3296(3) -0.5729(3)
H21A H -0.5491 1.3473 -0.6224
C50A C 0.8572(4) 1.0181(3) -0.5301(3)
H22A H 0.8522 1.0300 -0.4910
C51A C 0.4994(4) 1.0540(3) -0.2719(3)
C52A C 0.9884(4) 1.0880(3) -0.7984(3)
H23A H 0.9614 1.0426 -0.7886
C53A C -0.7053(4) 1.2814(3) -0.4279(3)
H24A H -0.7439 1.2650 -0.3783
C54A C 0.6072(4) 0.9787(3) -0.4167(3)
H25A H 0.5915 0.9852 -0.4601
C55A C -0.2974(4) 1.1636(3) -0.4732(3)
H26A H -0.3026 1.1311 -0.4929
C56A C -0.6931(4) 1.3565(3) -0.5573(3)
H27A H -0.7237 1.3908 -0.5967
C57A C -0.1112(4) 1.0803(3) -0.2249(3)
H28A H -0.1228 1.0337 -0.1821
C58A C -0.3019(4) 1.2600(3) -0.6470(3)
H29A H -0.2595 1.2860 -0.6375
C59A C -0.2261(4) 1.1441(3) -0.4291(3)
H30A H -0.1847 1.0987 -0.4193
C60A C 0.9237(4) 0.8124(3) -0.4302(3)
H31A H 0.9645 0.8511 -0.4716
C61A C 0.5613(4) 1.0075(3) -0.3107(3)
C62A C 0.9072(4) 1.0681(3) -0.6026(3)
H32A H 0.9328 1.1132 -0.6108
C63A C 0.9720(4) 0.7405(3) -0.3945(3)
H33A H 1.0451 0.7324 -0.4118
C64A C 1.0153(4) 1.1747(3) -0.7582(3)
H34A H 1.0082 1.1889 -0.7204
C65A C -0.6009(4) 1.2527(3) -0.4428(3)
H35A H -0.5710 1.2171 -0.4035
C66A C -0.1591(4) 1.0973(3) -0.2819(3)
H36A H -0.2007 1.0610 -0.2778
C67A C 0.7131(4) 0.9220(3) -0.3277(3)
H37A H 0.7705 0.8901 -0.3106
C68A C 1.0639(4) 0.5962(3) -0.2808(3)
H38A H 1.0994 0.6400 -0.2953
C69A C 0.6466(4) 0.9585(3) -0.2861(3)
H39A H 0.6598 0.9497 -0.2412
C70A C -0.2748(5) 1.2578(3) -0.4174(3)
H40A H -0.2658 1.2910 -0.3995
C71A C 1.1117(4) 0.5250(3) -0.2443(3)
H41A H 1.1782 0.5219 -0.2346
C72A C -0.9315(4) 1.3805(3) -0.5183(3)
H42A H -0.9031 1.3729 -0.5609
C73A C -0.0234(4) 1.1954(3) -0.2972(3)
H43A H 0.0275 1.2278 -0.3048
C74A C -0.0729(4) 1.2138(3) -0.3541(3)
H44A H -0.0555 1.2582 -0.3987
C75A C -0.3491(4) 1.2795(3) -0.4615(3)
H45A H -0.3891 1.3255 -0.4721
C76A C 0.5020(4) 1.1319(4) -0.2107(4)
H46A H 0.5413 1.1517 -0.1930
C77A C 0.5526(4) 1.0827(4) -0.2431(4)
H47A H 0.6250 1.0693 -0.2450
C78A C 0.3875(5) 1.2639(4) 0.1397(3)
H48A H 0.4035 1.3106 0.1387
H49A H 0.3336 1.2370 0.1851
C79A C 0.4881(5) 1.2134(4) 0.1332(3)
H50A H 0.4907 1.1697 0.1811
H51A H 0.5524 1.2421 0.1145
C80A C 0.3552(6) 0.9726(4) 0.0326(6)
H52A H 0.3396 0.9303 0.0825
H53A H 0.4211 0.9604 0.0030
C81A C 0.8773(5) 0.9859(3) -0.6452(3)
H54A H 0.8838 0.9730 -0.6837
C82A C 0.3943(5) 1.4521(5) -0.1433(4)
C83A C 0.3464(13) 1.5590(8) -0.1261(8)
H55A H 0.2816 1.5887 -0.1389
H56A H 0.3633 1.5685 -0.0887
C84A C 0.3621(5) 1.0475(4) 0.0352(5)
H57A H 0.4204 1.0776 -0.0043
H58A H 0.3716 1.0381 0.0833
C85A C 0.8250(5) 0.9367(3) -0.5731(3)
H59A H 0.7963 0.8925 -0.5647
C86A C 0.4394(12) 1.5804(5) -0.1957(6)
H60A H 0.5030 1.5919 -0.1878
H61A H 0.4200 1.6232 -0.2394
C87A C 0.4030(4) 1.2332(3) 0.0434(3)
N1A N 0.2676(3) 0.9900(3) -0.0025(3)
H62A H 0.2532 0.9631 -0.0211
N2A N 0.3538(4) 1.2797(3) 0.0739(3)
H63A H 0.3071 1.3152 0.0562
N3A N 0.2608(3) 1.0841(2) 0.0239(3)
H64A H 0.2341 1.1223 0.0333
N4A N 0.4527(5) 1.5092(3) -0.2010(4)
H65A H 0.4951 1.5038 -0.2387
N5A N 0.3319(9) 1.4774(4) -0.0977(4)
H66A H 0.2881 1.4500 -0.0566
N6A N 0.7653(3) 0.9003(2) -0.4399(2)
N7A N -0.4359(3) 1.2482(2) -0.5341(2)
N8A N 0.4764(4) 1.1891(3) 0.0800(3)
H67A H 0.5121 1.1513 0.0731
Mn1_2 Mn 0.0000 1.0000 -1.0000
Mn1_3 Mn 0.0000 1.0000 1.0000
Mn2_2 Mn -1.08455(5) 0.79765(3) 1.09958(3)
Mn2_3 Mn -1.08455(5) 1.79765(3) 0.09958(3)
Mn2_4 Mn -0.08455(5) 0.79765(3) 1.09958(3)
Mn2A_2 Mn 0.08455(5) 1.20235(3) -1.09958(3)
Mn2A_3 Mn 1.08455(5) 0.20235(3) -0.09958(3)
Mn2A_4 Mn 1.08455(5) 1.20235(3) -1.09958(3)
Mn3_2 Mn -1.29339(5) 0.70194(4) 1.09620(4)
Mn3_3 Mn -1.29339(5) 1.70194(4) 0.09620(4)
Mn3A_2 Mn 1.29339(5) 0.29806(4) -0.09620(4)
Mn3A_3 Mn 1.29339(5) 1.29806(4) -1.09620(4)
O2_2 O -0.0581(2) 0.67580(17) 0.15728(17)
O2A_2 O 0.0581(2) 1.32420(17) -0.15728(17)
O3_2 O 0.1212(2) 0.92579(18) -0.03522(17)
O3A_2 O -0.1212(2) 1.07421(18) 0.03522(17)
O4_2 O 0.0700(2) 0.80542(17) 0.03162(17)
O4A_2 O -0.0700(2) 1.19458(17) -0.03162(17)
O5_2 O -0.1548(2) 0.77133(18) 0.01639(17)
O5A_2 O 0.1548(2) 1.22867(18) -0.01639(17)
O7_2 O -0.2023(3) 0.62015(17) 0.16900(18)
O7A_2 O 0.2023(3) 1.37985(17) -0.16900(18)
loop_
_geom_bond_atom_site_label_1
_geom_bond_atom_site_label_2
_geom_bond_site_symmetry_1
_geom_bond_site_symmetry_2
Mn1 O1 1_555 1_555
Mn2 O1 1_555 1_555
Mn3 O9 1_555 1_555
O1 C34 1_555 1_555
O2 C16 1_555 1_555
O3 C1 1_555 1_555
O4 C1 1_555 1_555
O5 C42 1_555 1_555
O6 Mn1 1_555 1_555
O7 C16 1_555 1_555
O8 Mn2 1_555 1_555
O9 C87 1_555 1_555
O10 Mn2 1_555 1_555
O11 C42 1_555 1_555
O12 H1 1_555 1_555
O13 C39 1_555 1_555
O14 Mn3 1_555 1_555
O15 Mn3 1_555 1_555
C1 C3 1_555 1_555
C2 C37 1_555 1_555
C3 C7 1_555 1_555
C4 C5 1_555 1_555
C5 C43 1_555 1_555
C6 C55 1_555 1_555
C7 H2 1_555 1_555
C8 C29 1_555 1_555
C9 C41 1_555 1_555
C10 C18 1_555 1_555
C11 C16 1_555 1_555
C12 H3 1_555 1_555
C13 C49 1_555 1_555
C14 H4 1_555 1_555
C15 C31 1_555 1_555
C17 H5 1_555 1_555
C18 C12 1_555 1_555
C19 C28 1_555 1_555
C20 C17 1_555 1_555
C21 C14 1_555 1_555
C22 C10 1_555 1_555
H6 C22 1_555 1_555
C23 C3 1_555 1_555
H7 C23 1_555 1_555
C24 O6 1_555 1_555
C25 C35 1_555 1_555
C26 C20 1_555 1_555
H8 C26 1_555 1_555
C27 C7 1_555 1_555
H9 C27 1_555 1_555
C28 C66 1_555 1_555
C29 C52 1_555 1_555
C30 C10 1_555 1_555
H10 C30 1_555 1_555
C31 C53 1_555 1_555
C32 C50 1_555 1_555
C33 C4 1_555 1_555
H11 C33 1_555 1_555
C34 N1 1_555 1_555
C35 H12 1_555 1_555
C36 C25 1_555 1_555
H13 C36 1_555 1_555
C37 H14 1_555 1_555
C38 C11 1_555 1_555
H15 C38 1_555 1_555
C39 O12 1_555 1_555
C40 C37 1_555 1_555
H16 C40 1_555 1_555
C41 C33 1_555 1_555
H17 C41 1_555 1_555
C42 C20 1_555 1_555
C43 C38 1_555 1_555
H18 C43 1_555 1_555
C44 H19 1_555 1_555
C45 C15 1_555 1_555
H20 C45 1_555 1_555
C46 O10 1_555 1_555
C47 C54 1_555 1_555
C48 C24 1_555 1_555
C49 H21 1_555 1_555
C50 H22 1_555 1_555
C51 C40 1_555 1_555
C52 C17 1_555 1_555
H23 C52 1_555 1_555
C53 H24 1_555 1_555
C54 C44 1_555 1_555
H25 C54 1_555 1_555
C55 H26 1_555 1_555
C56 C31 1_555 1_555
H27 C56 1_555 1_555
C57 C48 1_555 1_555
H28 C57 1_555 1_555
C58 C21 1_555 1_555
H29 C58 1_555 1_555
C59 C19 1_555 1_555
H30 C59 1_555 1_555
C60 C9 1_555 1_555
H31 C60 1_555 1_555
C61 C44 1_555 1_555
C62 C8 1_555 1_555
H32 C62 1_555 1_555
C63 C4 1_555 1_555
H33 C63 1_555 1_555
C64 C26 1_555 1_555
H34 C64 1_555 1_555
C65 C13 1_555 1_555
H35 C65 1_555 1_555
C66 C57 1_555 1_555
H36 C66 1_555 1_555
C67 C47 1_555 1_555
H37 C67 1_555 1_555
C68 C5 1_555 1_555
H38 C68 1_555 1_555
C69 C61 1_555 1_555
H39 C69 1_555 1_555
C70 C19 1_555 1_555
H40 C70 1_555 1_555
C71 C11 1_555 1_555
H41 C71 1_555 1_555
C72 C15 1_555 1_555
H42 C72 1_555 1_555
C73 C48 1_555 1_555
H43 C73 1_555 1_555
C74 C28 1_555 1_555
H44 C74 1_555 1_555
C75 C6 1_555 1_555
H45 C75 1_555 1_555
C76 C2 1_555 1_555
H46 C76 1_555 1_555
C77 C51 1_555 1_555
H47 C77 1_555 1_555
C78 H48 1_555 1_555
H49 C78 1_555 1_555
C79 C78 1_555 1_555
H50 C79 1_555 1_555
H51 C79 1_555 1_555
C80 H52 1_555 1_555
H53 C80 1_555 1_555
C81 C8 1_555 1_555
H54 C81 1_555 1_555
C82 O15 1_555 1_555
C83 H55 1_555 1_555
H56 C83 1_555 1_555
C84 C80 1_555 1_555
H57 C84 1_555 1_555
H58 C84 1_555 1_555
C85 C32 1_555 1_555
H59 C85 1_555 1_555
C86 C83 1_555 1_555
H60 C86 1_555 1_555
H61 C86 1_555 1_555
C87 N2 1_555 1_555
N1 C80 1_555 1_555
H62 N1 1_555 1_555
N2 C78 1_555 1_555
H63 N2 1_555 1_555
N3 C34 1_555 1_555
H64 N3 1_555 1_555
N4 C82 1_555 1_555
H65 N4 1_555 1_555
N5 C82 1_555 1_555
H66 N5 1_555 1_555
N6 C9 1_555 1_555
N7 C6 1_555 1_555
N8 C79 1_555 1_555
H67 N8 1_555 1_555
O16 C88 1_555 1_555
C88 N9 1_555 1_555
C89 H68 1_555 1_555
H69 C89 1_555 1_555
C90 C89 1_555 1_555
H70 C90 1_555 1_555
H71 C90 1_555 1_555
N9 C89 1_555 1_555
H72 N9 1_555 1_555
N10 C88 1_555 1_555
H73 N10 1_555 1_555
O17 C92 1_555 1_555
C91 H74 1_555 1_555
H75 C91 1_555 1_555
C92 N11 1_555 1_555
C93 C91 1_555 1_555
H76 C93 1_555 1_555
H77 C93 1_555 1_555
N11 C93 1_555 1_555
H78 N11 1_555 1_555
N12 C91 1_555 1_555
H79 N12 1_555 1_555
O18 C94 1_555 1_555
C94 N13 1_555 1_555
C95 H80 1_555 1_555
H81 C95 1_555 1_555
C96 C95 1_555 1_555
H82 C96 1_555 1_555
H83 C96 1_555 1_555
N13 C96 1_555 1_555
H84 N13 1_555 1_555
N14 C94 1_555 1_555
H85 N14 1_555 1_555
Mn2A O1A 1_555 1_555
Mn3A O9A 1_555 1_555
O1A Mn1 1_555 1_555
O2A C16A 1_555 1_555
O3A C1A 1_555 1_555
O4A C1A 1_555 1_555
O5A C42A 1_555 1_555
O6A Mn1 1_555 1_555
O7A C16A 1_555 1_555
O8A Mn2A 1_555 1_555
O9A C87A 1_555 1_555
O10A Mn2A 1_555 1_555
O11A C42A 1_555 1_555
O12A H1A 1_555 1_555
O13A C39A 1_555 1_555
O14A Mn3A 1_555 1_555
O15A Mn3A 1_555 1_555
C1A C3A 1_555 1_555
C2A C37A 1_555 1_555
C3A C7A 1_555 1_555
C4A C5A 1_555 1_555
C5A C43A 1_555 1_555
C6A C55A 1_555 1_555
C7A H2A 1_555 1_555
C8A C29A 1_555 1_555
C9A C41A 1_555 1_555
C10A C18A 1_555 1_555
C11A C16A 1_555 1_555
C12A H3A 1_555 1_555
C13A C49A 1_555 1_555
C14A H4A 1_555 1_555
C15A C31A 1_555 1_555
C17A H5A 1_555 1_555
C18A C12A 1_555 1_555
C19A C28A 1_555 1_555
C20A C17A 1_555 1_555
C21A C14A 1_555 1_555
C22A C10A 1_555 1_555
H6A C22A 1_555 1_555
C23A C3A 1_555 1_555
H7A C23A 1_555 1_555
C24A O6A 1_555 1_555
C25A C35A 1_555 1_555
C26A C20A 1_555 1_555
H8A C26A 1_555 1_555
C27A C7A 1_555 1_555
H9A C27A 1_555 1_555
C28A C66A 1_555 1_555
C29A C52A 1_555 1_555
C30A C10A 1_555 1_555
H10A C30A 1_555 1_555
C31A C53A 1_555 1_555
C32A C50A 1_555 1_555
C33A C4A 1_555 1_555
H11A C33A 1_555 1_555
C34A O1A 1_555 1_555
C35A H12A 1_555 1_555
C36A C25A 1_555 1_555
H13A C36A 1_555 1_555
C37A H14A 1_555 1_555
C38A C11A 1_555 1_555
H15A C38A 1_555 1_555
C39A O12A 1_555 1_555
C40A C37A 1_555 1_555
H16A C40A 1_555 1_555
C41A C33A 1_555 1_555
H17A C41A 1_555 1_555
C42A C20A 1_555 1_555
C43A C38A 1_555 1_555
H18A C43A 1_555 1_555
C44A H19A 1_555 1_555
C45A C15A 1_555 1_555
H20A C45A 1_555 1_555
C46A O10A 1_555 1_555
C47A C54A 1_555 1_555
C48A C24A 1_555 1_555
C49A H21A 1_555 1_555
C50A H22A 1_555 1_555
C51A C40A 1_555 1_555
C52A C17A 1_555 1_555
H23A C52A 1_555 1_555
C53A H24A 1_555 1_555
C54A C44A 1_555 1_555
H25A C54A 1_555 1_555
C55A H26A 1_555 1_555
C56A C31A 1_555 1_555
H27A C56A 1_555 1_555
C57A C48A 1_555 1_555
H28A C57A 1_555 1_555
C58A C21A 1_555 1_555
H29A C58A 1_555 1_555
C59A C19A 1_555 1_555
H30A C59A 1_555 1_555
C60A C9A 1_555 1_555
H31A C60A 1_555 1_555
C61A C44A 1_555 1_555
C62A C8A 1_555 1_555
H32A C62A 1_555 1_555
C63A C4A 1_555 1_555
H33A C63A 1_555 1_555
C64A C26A 1_555 1_555
H34A C64A 1_555 1_555
C65A C13A 1_555 1_555
H35A C65A 1_555 1_555
C66A C57A 1_555 1_555
H36A C66A 1_555 1_555
C67A C47A 1_555 1_555
H37A C67A 1_555 1_555
C68A C5A 1_555 1_555
H38A C68A 1_555 1_555
C69A C61A 1_555 1_555
H39A C69A 1_555 1_555
C70A C19A 1_555 1_555
H40A C70A 1_555 1_555
C71A C11A 1_555 1_555
H41A C71A 1_555 1_555
C72A C15A 1_555 1_555
H42A C72A 1_555 1_555
C73A C48A 1_555 1_555
H43A C73A 1_555 1_555
C74A C28A 1_555 1_555
H44A C74A 1_555 1_555
C75A C6A 1_555 1_555
H45A C75A 1_555 1_555
C76A C2A 1_555 1_555
H46A C76A 1_555 1_555
C77A C51A 1_555 1_555
H47A C77A 1_555 1_555
C78A H48A 1_555 1_555
H49A C78A 1_555 1_555
C79A C78A 1_555 1_555
H50A C79A 1_555 1_555
H51A C79A 1_555 1_555
C80A H52A 1_555 1_555
H53A C80A 1_555 1_555
C81A C8A 1_555 1_555
H54A C81A 1_555 1_555
C82A O15A 1_555 1_555
C83A H55A 1_555 1_555
H56A C83A 1_555 1_555
C84A C80A 1_555 1_555
H57A C84A 1_555 1_555
H58A C84A 1_555 1_555
C85A C32A 1_555 1_555
H59A C85A 1_555 1_555
C86A C83A 1_555 1_555
H60A C86A 1_555 1_555
H61A C86A 1_555 1_555
C87A N2A 1_555 1_555
N1A C34A 1_555 1_555
H62A N1A 1_555 1_555
N2A C78A 1_555 1_555
H63A N2A 1_555 1_555
N3A C34A 1_555 1_555
H64A N3A 1_555 1_555
N4A C82A 1_555 1_555
H65A N4A 1_555 1_555
N5A C82A 1_555 1_555
H66A N5A 1_555 1_555
N6A C9A 1_555 1_555
N7A C6A 1_555 1_555
N8A C79A 1_555 1_555
H67A N8A 1_555 1_555
Mn1_2 O3A 1_555 1_555
Mn1_3 O3 1_555 1_555
Mn2_2 O5 1_555 1_555
Mn2_3 O2 1_555 1_555
Mn2_4 O4 1_555 1_555
Mn2A_2 O4A 1_555 1_555
Mn2A_3 O2A 1_555 1_555
Mn2A_4 O5A 1_555 1_555
Mn3_2 O5 1_555 1_555
Mn3_3 O7 1_555 1_555
Mn3A_2 O7A 1_555 1_555
Mn3A_3 O5A 1_555 1_555
O2_2 Mn2 1_555 1_555
O2A_2 Mn2A 1_555 1_555
O3_2 Mn1 1_555 1_555
O3A_2 Mn1 1_555 1_555
O4_2 Mn2 1_555 1_555
O4A_2 Mn2A 1_555 1_555
O5_2 Mn2 1_555 1_555
O5A_2 Mn2A 1_555 1_555
O7_2 Mn3 1_555 1_555
O7A_2 Mn3A 1_555 1_555
Mn3 O5_2 1_555 1_555
O8 C24 1_555 1_555
O14 C46 1_555 1_555
C2 C46 1_555 1_555
C12 C23 1_555 1_555
C13 N7 1_555 1_555
C14 C30 1_555 1_555
C18 C27 1_555 1_555
C21 N7 1_555 1_555
C22 C58 1_555 1_555
C25 C39 1_555 1_555
C29 C64 1_555 1_555
C32 N6 1_555 1_555
C35 C45 1_555 1_555
C36 C72 1_555 1_555
C47 N6 1_555 1_555
C49 C56 1_555 1_555
C50 C62 1_555 1_555
C51 C61 1_555 1_555
C53 C65 1_555 1_555
C55 C59 1_555 1_555
C60 C63 1_555 1_555
C67 C69 1_555 1_555
C68 C71 1_555 1_555
C70 C75 1_555 1_555
C73 C74 1_555 1_555
C76 C77 1_555 1_555
C81 C85 1_555 1_555
C83 N5 1_555 1_555
C84 N3 1_555 1_555
C86 N4 1_555 1_555
C87 N8 1_555 1_555
C90 N10 1_555 1_555
C92 N12 1_555 1_555
C95 N14 1_555 1_555
Mn3A O5A_2 1_555 1_555
O8A C24A 1_555 1_555
O14A C46A 1_555 1_555
C2A C46A 1_555 1_555
C12A C23A 1_555 1_555
C13A N7A 1_555 1_555
C14A C30A 1_555 1_555
C18A C27A 1_555 1_555
C21A N7A 1_555 1_555
C22A C58A 1_555 1_555
C25A C39A 1_555 1_555
C29A C64A 1_555 1_555
C32A N6A 1_555 1_555
C35A C45A 1_555 1_555
C36A C72A 1_555 1_555
C47A N6A 1_555 1_555
C49A C56A 1_555 1_555
C50A C62A 1_555 1_555
C51A C61A 1_555 1_555
C53A C65A 1_555 1_555
C55A C59A 1_555 1_555
C60A C63A 1_555 1_555
C67A C69A 1_555 1_555
C68A C71A 1_555 1_555
C70A C75A 1_555 1_555
C73A C74A 1_555 1_555
C76A C77A 1_555 1_555
C80A N1A 1_555 1_555
C81A C85A 1_555 1_555
C83A N5A 1_555 1_555
C84A N3A 1_555 1_555
C86A N4A 1_555 1_555
C87A N8A 1_555 1_555

#END
