
#######################################################################
#
#                 Cambridge Crystallographic Data Centre
#                                CCDC 
#
#######################################################################
#
# If this CIF has been generated from an entry in the Cambridge 
# Structural Database, then it will include bibliographic, chemical, 
# crystal, experimental, refinement or atomic coordinate data resulting 
# from the CCDC's data processing and validation procedures.
#
#######################################################################

data_JOBFAI
_chemical_formula_moiety         '(C7 H12 Cu3 N5 O4 S3 W1 2-)n'
_symmetry_cell_setting           hexagonal
_symmetry_space_group_name_H-M   'P 63 m c'
_symmetry_Int_Tables_number      186
_space_group_name_Hall           'P 6c -2c'
loop_
_symmetry_equiv_pos_site_id
_symmetry_equiv_pos_as_xyz
1 x,y,z
2 x-y,x,1/2+z
3 -y,x-y,z
4 -x,-y,1/2+z
5 -x+y,-x,z
6 y,-x+y,1/2+z
7 y,x,1/2+z
8 -x+y,y,z
9 -x,-x+y,1/2+z
10 -y,-x,z
11 x-y,-y,1/2+z
12 x,x-y,z
_cell_length_a                   13.532(2)
_cell_length_b                   13.532(2)
_cell_length_c                   8.7172(15)
_cell_angle_alpha                90
_cell_angle_beta                 90
_cell_angle_gamma                120
_cell_volume                     1382.39
loop_
_atom_site_label
_atom_site_type_symbol
_atom_site_fract_x
_atom_site_fract_y
_atom_site_fract_z
W1 W -0.3333 -0.6667 -0.43841(4)
Cu1 Cu -0.11884(8) -0.55942(4) -0.30749(10)
S1 S -0.24332(7) -0.48663(15) -0.3474(2)
O1 O -0.3333 -0.6667 -0.6357(11)
N1 N -0.0243(5) -0.5121(3) -0.5084(7)
C1 C 0.0269(6) -0.4866(3) -0.6236(9)
Cu1B Cu -0.44058(4) -0.55942(9) -0.30749(10)
Cu1D Cu -0.44058(9) -0.88116(8) -0.30749(10)
Cu1C Cu 0.11884(8) -0.44058(4) -0.80749(10)
Cu1C_2 Cu 0.11884(8) -0.44058(4) 0.19251(10)
Cu1E Cu -0.55942(4) -0.44058(9) -0.80749(10)
S1B S -0.51337(15) -0.75669(17) -0.3474(2)
S1D S -0.24331(17) -0.75668(7) -0.3474(2)
N1C N 0.0243(5) -0.4879(3) -0.0084(7)
N1B N -0.4879(3) -0.5122(6) -0.5084(7)
N1D N -0.4878(6) -0.9757(5) -0.5084(7)
C1C C -0.0269(6) -0.5134(3) -0.1236(9)
C1B C -0.5134(3) -0.4865(7) -0.6236(9)
C1E C -0.4866(3) -0.5135(7) -0.1236(9)
C1A C -0.4865(7) -0.9731(6) -0.1236(9)
N2 N -0.3472(6) -0.1736(3) -0.3580(8)
C2 C -0.4695(9) -0.2348(4) -0.4026(14)
H1 H -0.4759 -0.2378 -0.5146
H2 H -0.5065 -0.1938 -0.3623
C3 C -0.2889(8) -0.2347(8) -0.402(3)
H4 H -0.2841 -0.2361 -0.5139
H5 H -0.3313 -0.3130 -0.3629
H6 H -0.2118 -0.1962 -0.3583
C4 C -0.3463(12) -0.1732(6) -0.1916(14)
H7 H -0.2673 -0.1339 -0.1548
H8 H -0.3834 -0.2519 -0.1537
H9 H -0.3876 -0.1357 -0.1537
H2K H -0.5065 -0.3127 -0.3623
C3K C -0.2889(8) -0.0542(11) -0.402(3)
H4K H -0.2841 -0.0480 -0.5139
H5K H -0.3313 -0.0183 -0.3629
H6K H -0.2118 -0.0156 -0.3583
O2 O -0.0515(4) -0.1030(9) -0.200(2)
N3 N 0.0000 0.0000 -0.185(7)
O2D O -0.0515(10) 0.0515(4) -0.200(2)
O2B O 0.1030(9) 0.0515(10) -0.200(2)
loop_
_geom_bond_atom_site_label_1
_geom_bond_atom_site_label_2
_geom_bond_site_symmetry_1
_geom_bond_site_symmetry_2
W1 S1 1_555 1_555
Cu1 S1 1_555 1_555
S1 Cu1B 1_555 1_555
O1 W1 1_555 1_555
N1 Cu1 1_555 1_555
C1 N1 1_555 1_555
N2 C2 1_555 1_555
C2 H1 1_555 1_555
H2 C2 1_555 1_555
C3 N2 1_555 1_555
H4 C3 1_555 1_555
H5 C3 1_555 1_555
H6 C3 1_555 1_555
C4 N2 1_555 1_555
H7 C4 1_555 1_555
H8 C4 1_555 1_555
H9 C4 1_555 1_555
O2 N3 1_555 1_555
N3 O2D 1_555 1_555
Cu1B S1B 1_555 1_555
Cu1D S1B 1_555 1_555
Cu1C C1 1_555 1_555
Cu1C_2 N1C 1_555 1_555
Cu1E C1B 1_555 1_555
S1B W1 1_555 1_555
S1D W1 1_555 1_555
N1C C1C 1_555 1_555
N1B Cu1B 1_555 1_555
N1D Cu1D 1_555 1_555
C1C Cu1 1_555 1_555
C1B N1B 1_555 1_555
C1E Cu1B 1_555 1_555
C1A Cu1D 1_555 1_555
H2K C2 1_555 1_555
C3K N2 1_555 1_555
H4K C3K 1_555 1_555
H5K C3K 1_555 1_555
H6K C3K 1_555 1_555
O2B N3 1_555 1_555
Cu1 S1D 1_555 1_555
Cu1D S1D 1_555 1_555

#END
