
#######################################################################
#
#                 Cambridge Crystallographic Data Centre
#                                CCDC 
#
#######################################################################
#
# If this CIF has been generated from an entry in the Cambridge 
# Structural Database, then it will include bibliographic, chemical, 
# crystal, experimental, refinement or atomic coordinate data resulting 
# from the CCDC's data processing and validation procedures.
#
#######################################################################

data_HAVZIP
_chemical_formula_moiety         '(C42 H42 As2 Co2 N8 O70 W18 2-)n'
_symmetry_cell_setting           monoclinic
_symmetry_space_group_name_H-M   'P 21/m'
_symmetry_Int_Tables_number      11
_space_group_name_Hall           '-P 2yb'
loop_
_symmetry_equiv_pos_site_id
_symmetry_equiv_pos_as_xyz
1 x,y,z
2 -x,1/2+y,-z
3 -x,-y,-z
4 x,1/2-y,z
_cell_length_a                   15.1316(6)
_cell_length_b                   24.7369(7)
_cell_length_c                   15.3613(8)
_cell_angle_alpha                90
_cell_angle_beta                 110.847(5)
_cell_angle_gamma                90
_cell_volume                     5373.45
loop_
_atom_site_label
_atom_site_type_symbol
_atom_site_fract_x
_atom_site_fract_y
_atom_site_fract_z
As1 As 0.76655(17) 0.2500 0.3633(2)
As2 As 0.49754(17) 0.2500 0.3050(2)
W1 W 0.73142(5) 0.31825(3) 0.15260(6)
W2 W 0.46931(5) 0.31814(3) 0.09487(6)
W3 W 0.76542(5) 0.39319(3) 0.37020(7)
W4 W 0.53060(6) 0.32471(3) 0.51026(7)
W5 W 0.79425(6) 0.32495(3) 0.56748(7)
W6 W 0.50242(5) 0.39338(3) 0.31330(7)
W7 W 0.99653(8) 0.2500 0.54151(11)
W8 W 0.30657(8) 0.2500 0.39258(11)
W9 W 0.96700(5) 0.31797(3) 0.34271(7)
O1 O 1.0337(8) 0.3043(4) 0.4724(10)
O2 O 1.0916(12) 0.2500 0.6423(15)
O3 O 0.8832(10) 0.2500 0.3876(12)
O4 O 0.4396(10) 0.2500 0.0287(12)
O5 O 0.5957(7) 0.3128(4) 0.1046(9)
O6 O 0.5035(7) 0.3902(4) 0.4357(9)
O7 O 0.2445(13) 0.2500 0.4649(17)
O8 O 0.5074(7) 0.3669(4) 0.1995(9)
O9 O 0.4043(8) 0.3018(4) 0.4544(9)
O10 O 0.3801(11) 0.2500 0.2795(13)
O11 O 1.0019(12) 0.2500 0.3161(16)
O12 O 0.7437(7) 0.3628(4) 0.0743(10)
O13 O 0.7238(7) 0.3633(4) 0.2455(8)
O14 O 0.8616(7) 0.3129(4) 0.2304(9)
O15 O 0.9199(9) 0.3028(4) 0.5609(10)
O16 O 0.6360(8) 0.3992(3) 0.3568(9)
W10 W 0.27940(5) 0.18185(3) 0.19530(7)
O17 O 0.2203(11) 0.2500 0.1471(14)
O19 O 0.7977(7) 0.3905(4) 0.4951(10)
O20 O 0.5219(8) 0.3450(5) 0.6081(11)
O21 O 0.7397(10) 0.2500 0.0944(12)
O22 O 0.7833(8) 0.4589(4) 0.3511(11)
O23 O 0.4274(9) 0.3603(4) 0.0030(9)
O24 O 0.5410(7) 0.1929(3) 0.3677(8)
O27 O 1.0440(7) 0.3615(4) 0.3176(10)
O28 O 0.4747(8) 0.4597(4) 0.2902(11)
O29 O 0.3520(7) 0.3124(4) 0.1183(9)
O30 O 0.7167(9) 0.2500 0.2429(12)
O31 O 0.7390(7) 0.3058(4) 0.4106(8)
O32 O 0.5126(10) 0.2500 0.2003(15)
O33 O 0.2462(8) 0.1965(4) 0.3045(9)
O34 O 0.3765(7) 0.3644(4) 0.2711(9)
O35 O 0.8865(7) 0.3662(4) 0.3779(10)
O36 O 0.1923(8) 0.1384(4) 0.1334(9)
O37 O 0.7781(12) 0.2500 0.5802(16)
O38 O 0.8330(9) 0.3470(5) 0.6787(10)
O39 O 0.5570(13) 0.2500 0.5351(14)
O40 O 0.6630(8) 0.3372(4) 0.5417(9)
W1C W 0.73142(5) 0.18175(3) 0.15260(6)
W2C W 0.46931(5) 0.18186(3) 0.09487(6)
W3C W 0.76542(5) 0.10681(3) 0.37020(7)
W4C W 0.53060(6) 0.17529(3) 0.51026(7)
W5C W 0.79425(6) 0.17505(3) 0.56748(7)
W6C W 0.50242(5) 0.10662(3) 0.31330(7)
W9C W 0.96700(5) 0.18203(3) 0.34271(7)
O1C O 1.0337(8) 0.1957(4) 0.4724(10)
O5C O 0.5957(7) 0.1872(4) 0.1046(9)
O6C O 0.5035(7) 0.1098(4) 0.4357(9)
O8C O 0.5074(7) 0.1331(4) 0.1995(9)
O9C O 0.4043(8) 0.1982(4) 0.4544(9)
O12C O 0.7437(7) 0.1372(4) 0.0743(10)
O13C O 0.7238(7) 0.1367(4) 0.2455(8)
O14C O 0.8616(7) 0.1871(4) 0.2304(9)
O15C O 0.9199(9) 0.1972(4) 0.5609(10)
O16C O 0.6360(8) 0.1008(3) 0.3568(9)
W10C W 0.27940(5) 0.31815(3) 0.19530(7)
O19C O 0.7977(7) 0.1095(4) 0.4951(10)
O20C O 0.5219(8) 0.1550(5) 0.6081(11)
O22C O 0.7833(8) 0.0411(4) 0.3511(11)
O23C O 0.4274(9) 0.1397(4) 0.0030(9)
O24C O 0.5410(7) 0.3071(3) 0.3677(8)
O27C O 1.0440(7) 0.1385(4) 0.3176(10)
O28C O 0.4747(8) 0.0403(4) 0.2902(11)
O29C O 0.3520(7) 0.1876(4) 0.1183(9)
O31C O 0.7390(7) 0.1942(4) 0.4106(8)
O33C O 0.2462(8) 0.3035(4) 0.3045(9)
O34C O 0.3765(7) 0.1356(4) 0.2711(9)
O35C O 0.8865(7) 0.1338(4) 0.3779(10)
O36C O 0.1923(8) 0.3616(4) 0.1334(9)
O38C O 0.8330(9) 0.1530(5) 0.6787(10)
O40C O 0.6630(8) 0.1628(4) 0.5417(9)
Co1 Co 0.89788(14) 0.52065(7) 0.11014(17)
N1 N 0.9426(9) 0.5213(5) 0.2625(11)
O18 O 1.0395(7) 0.5091(4) 0.1222(9)
N2 N 0.7478(9) 0.5145(5) 0.0717(12)
N3 N 0.8984(9) 0.6060(5) 0.1116(11)
O25 O 1.1187(7) 0.4841(4) 0.0297(9)
O26 O 0.8892(8) 0.4340(4) 0.1101(10)
C1 C 1.0238(11) 0.4714(6) 0.4001(14)
H1 H 1.0608 0.4418 0.4281
C2 C 0.9928(12) 0.5058(6) 0.4512(13)
C3 C 1.0441(11) 0.4983(6) 0.0436(14)
C4 C 0.5957(11) 0.5210(5) -0.0416(14)
H2 H 0.5601 0.5297 -0.1030
C5 C 0.5519(10) 0.5019(6) 0.0150(13)
C6 C 1.0011(13) 0.4802(6) 0.3100(15)
H3 H 1.0261 0.4573 0.2767
C7 C 0.9030(12) 0.7220(5) 0.1160(14)
C8 C 0.7106(13) 0.4979(6) 0.1347(16)
H4 H 0.7479 0.4917 0.1967
C9 C 0.9376(14) 0.5490(7) 0.4078(18)
H5 H 0.9130 0.5723 0.4410
C10 C 0.6876(12) 0.5274(6) -0.0111(15)
H6 H 0.7129 0.5426 -0.0525
C11 C 0.9188(13) 0.5575(6) 0.3109(15)
H7 H 0.8894 0.5892 0.2825
C12 C 0.6116(14) 0.4904(7) 0.1014(16)
H8 H 0.5854 0.4763 0.1428
C13 C 0.9750(13) 0.6326(7) 0.1465(15)
H9 H 1.0308 0.6129 0.1703
C14 C 0.9827(14) 0.6911(8) 0.1523(18)
H10 H 1.0414 0.7074 0.1805
C15 C 0.8217(13) 0.6919(7) 0.0813(15)
H11 H 0.7639 0.7098 0.0590
C16 C 0.8222(15) 0.6357(7) 0.0780(17)
H12 H 0.7647 0.6181 0.0502
Co1B Co 1.10212(14) 0.47935(7) 0.88986(17)
Co1B_2 Co 1.10212(14) 0.47935(7) -0.11014(17)
Co1B_3 Co 0.10212(14) 0.47935(7) -0.11014(17)
Co1C Co 0.89788(14) 0.97935(7) 0.11014(17)
N1B N 1.0574(9) 0.4787(5) 0.7375(11)
O18B O 0.9605(7) 0.4909(4) -0.1222(9)
O18B_2 O 0.9605(7) 0.4909(4) 0.8778(9)
N2B N 0.2522(9) 0.4855(5) -0.0717(12)
N2B_2 N 1.2522(9) 0.4855(5) 0.9283(12)
N3C N 0.8984(9) 0.8940(5) 0.1116(11)
N3B N 1.1016(9) 0.3940(5) 0.8884(11)
O25B O 0.8813(7) 0.5159(4) -0.0297(9)
O25_2 O 1.1187(7) 0.4841(4) 1.0297(9)
O26B O 1.1108(8) 0.5660(4) 0.8899(10)
C1B C 0.9762(11) 0.5286(6) 0.5999(14)
H1B H 0.9392 0.5582 0.5719
C2B C 1.0072(12) 0.4942(6) 0.5488(13)
C3B C 0.9559(11) 0.5017(6) -0.0436(14)
C4B C 0.4043(11) 0.4790(5) 0.0416(14)
H2B H 0.4399 0.4703 0.1030
C5B C 0.4481(10) 0.4981(6) -0.0150(13)
C6B C 0.9989(13) 0.5198(6) 0.6900(15)
H3B H 0.9739 0.5427 0.7233
C7C C 0.9030(12) 0.7780(5) 0.1160(14)
C8B C 0.2894(13) 0.5021(6) -0.1347(16)
H4B H 0.2521 0.5083 -0.1967
C9B C 1.0624(14) 0.4510(7) 0.5922(18)
H5B H 1.0870 0.4277 0.5590
C10B C 0.3124(12) 0.4726(6) 0.0111(15)
H6B H 0.2871 0.4574 0.0525
C11B C 1.0812(13) 0.4425(6) 0.6891(15)
H7B H 1.1106 0.4108 0.7175
C12B C 0.3884(14) 0.5096(7) -0.1014(16)
H8B H 0.4146 0.5237 -0.1428
C13C C 0.9750(13) 0.8674(7) 0.1465(15)
H9C H 1.0308 0.8871 0.1703
C14C C 0.9827(14) 0.8089(8) 0.1523(18)
H10C H 1.0414 0.7926 0.1805
C15C C 0.8217(13) 0.8081(7) 0.0813(15)
H11C H 0.7639 0.7902 0.0590
C16C C 0.8222(15) 0.8643(7) 0.0780(17)
H12C H 0.7647 0.8819 0.0502
O41 O 0.9991(11) 0.3639(6) 0.0639(14)
O42 O 0.014(2) 0.2500 0.122(3)
N4 N 0.2745(17) 0.5355(9) 0.254(2)
C17 C 0.3003(16) 0.4365(9) 0.498(2)
C18 C 0.2907(16) 0.4648(10) 0.4247(19)
C19 C 0.2459(14) 0.4465(8) 0.3361(18)
H13 H 0.2176 0.4127 0.3214
C20 C 0.2478(18) 0.4844(10) 0.271(2)
H14 H 0.2178 0.4685 0.2130
C21 C 0.367(2) 0.4481(11) 0.592(3)
H15 H 0.4058 0.4785 0.6016
N5 N 0.324(2) 0.3684(14) 0.662(2)
C22 C 0.2570(18) 0.3897(10) 0.504(2)
H16 H 0.2167 0.3766 0.4469
C23 C 0.2611(17) 0.3597(10) 0.574(2)
H17 H 0.2195 0.3307 0.5637
C24 C 0.312(2) 0.5411(11) 0.348(3)
H18 H 0.3379 0.5755 0.3613
C25 C 0.3740(19) 0.4164(12) 0.665(2)
H19 H 0.4162 0.4272 0.7225
C26 C 0.3237(18) 0.5166(10) 0.423(2)
H20 H 0.3556 0.5341 0.4794
loop_
_geom_bond_atom_site_label_1
_geom_bond_atom_site_label_2
_geom_bond_site_symmetry_1
_geom_bond_site_symmetry_2
As1 O3 1_555 1_555
As2 O10 1_555 1_555
W1 O5 1_555 1_555
W2 O4 1_555 1_555
W3 O13 1_555 1_555
W4 O6 1_555 1_555
W5 O15 1_555 1_555
W6 O6 1_555 1_555
W7 O1 1_555 1_555
W8 O7 1_555 1_555
W9 O1 1_555 1_555
O2 W7 1_555 1_555
O3 W7 1_555 1_555
O4 W2C 1_555 1_555
O5 W2 1_555 1_555
O8 W2 1_555 1_555
O9 W4 1_555 1_555
O10 W8 1_555 1_555
O11 W9 1_555 1_555
O12 W1 1_555 1_555
O13 W1 1_555 1_555
O14 W1 1_555 1_555
O15 W7 1_555 1_555
O16 W3 1_555 1_555
Co1 N1 1_555 1_555
W10 O10 1_555 1_555
N1 C6 1_555 1_555
O17 W10 1_555 1_555
O18 Co1 1_555 1_555
N2 Co1 1_555 1_555
O19 W3 1_555 1_555
O20 W4 1_555 1_555
O21 W1 1_555 1_555
N3 Co1 1_555 1_555
O22 W3 1_555 1_555
O23 W2 1_555 1_555
O24 As2 1_555 1_555
O25 C3 1_555 1_555
O26 Co1 1_555 1_555
O27 W9 1_555 1_555
O28 W6 1_555 1_555
O29 W2 1_555 1_555
O30 As1 1_555 1_555
O31 As1 1_555 1_555
O32 As2 1_555 1_555
O33 W8 1_555 1_555
O34 W6 1_555 1_555
O35 W3 1_555 1_555
O36 W10 1_555 1_555
O37 W5 1_555 1_555
C1 H1 1_555 1_555
C2 C1 1_555 1_555
C3 O18 1_555 1_555
O38 W5 1_555 1_555
C4 H2 1_555 1_555
C5 C4 1_555 1_555
C6 C1 1_555 1_555
H3 C6 1_555 1_555
C7 C14 1_555 1_555
C8 N2 1_555 1_555
H4 C8 1_555 1_555
C9 C2 1_555 1_555
H5 C9 1_555 1_555
C10 N2 1_555 1_555
H6 C10 1_555 1_555
C11 N1 1_555 1_555
H7 C11 1_555 1_555
C12 C5 1_555 1_555
H8 C12 1_555 1_555
C13 N3 1_555 1_555
H9 C13 1_555 1_555
C14 C13 1_555 1_555
H10 C14 1_555 1_555
C15 C7 1_555 1_555
H11 C15 1_555 1_555
C16 N3 1_555 1_555
H12 C16 1_555 1_555
O39 W4 1_555 1_555
O40 W4 1_555 1_555
N4 C20 1_555 1_555
C17 C18 1_555 1_555
C18 C19 1_555 1_555
C19 H13 1_555 1_555
C20 C19 1_555 1_555
H14 C20 1_555 1_555
C21 C17 1_555 1_555
H15 C21 1_555 1_555
N5 C23 1_555 1_555
C22 C17 1_555 1_555
H16 C22 1_555 1_555
C23 C22 1_555 1_555
H17 C23 1_555 1_555
C24 N4 1_555 1_555
H18 C24 1_555 1_555
C25 C21 1_555 1_555
H19 C25 1_555 1_555
C26 C18 1_555 1_555
H20 C26 1_555 1_555
W1C O21 1_555 1_555
W2C O32 1_555 1_555
W3C O13C 1_555 1_555
W4C O24 1_555 1_555
W5C O37 1_555 1_555
W6C O24 1_555 1_555
W9C O3 1_555 1_555
O1C W7 1_555 1_555
O5C W1C 1_555 1_555
O6C W4C 1_555 1_555
O8C W2C 1_555 1_555
O9C W8 1_555 1_555
O12C W1C 1_555 1_555
O13C W1C 1_555 1_555
O14C W1C 1_555 1_555
O15C W7 1_555 1_555
O16C W3C 1_555 1_555
Co1B N1B 1_555 1_555
Co1B_2 O25 1_555 1_555
Co1B_3 N2B 1_555 1_555
Co1C N3C 1_555 1_555
W10C O10 1_555 1_555
N1B C6B 1_555 1_555
O18B Co1B_2 1_555 1_555
O18B_2 Co1B 1_555 1_555
N2B C8B 1_555 1_555
N2B_2 Co1B 1_555 1_555
O19C W3C 1_555 1_555
O20C W4C 1_555 1_555
N3C C13C 1_555 1_555
N3B Co1B 1_555 1_555
O22C W3C 1_555 1_555
O23C W2C 1_555 1_555
O24C As2 1_555 1_555
O25B Co1 1_555 1_555
O25_2 Co1B 1_555 1_555
O26B Co1B 1_555 1_555
O27C W9C 1_555 1_555
O28C W6C 1_555 1_555
O29C W10 1_555 1_555
O31C As1 1_555 1_555
O33C W8 1_555 1_555
O34C W10 1_555 1_555
O35C W3C 1_555 1_555
O36C W10C 1_555 1_555
C1B H1B 1_555 1_555
C2B C2 1_555 1_555
C3B C3 1_555 1_555
O38C W5C 1_555 1_555
C4B H2B 1_555 1_555
C5B C5 1_555 1_555
C6B C1B 1_555 1_555
H3B C6B 1_555 1_555
C7C C7 1_555 1_555
C8B H4B 1_555 1_555
C9B C2B 1_555 1_555
H5B C9B 1_555 1_555
C10B N2B 1_555 1_555
H6B C10B 1_555 1_555
C11B N1B 1_555 1_555
H7B C11B 1_555 1_555
C12B C5B 1_555 1_555
H8B C12B 1_555 1_555
C13C H9C 1_555 1_555
C14C C7C 1_555 1_555
H10C C14C 1_555 1_555
C15C C7C 1_555 1_555
H11C C15C 1_555 1_555
C16C N3C 1_555 1_555
H12C C16C 1_555 1_555
O40C W4C 1_555 1_555
W1 O30 1_555 1_555
W2 O32 1_555 1_555
W3 O31 1_555 1_555
W4 O24C 1_555 1_555
W5 O19 1_555 1_555
W5 O31 1_555 1_555
W5 O40 1_555 1_555
W6 O8 1_555 1_555
W6 O16 1_555 1_555
W6 O24C 1_555 1_555
W8 O9 1_555 1_555
W9 O3 1_555 1_555
W9 O14 1_555 1_555
W9 O35 1_555 1_555
O11 W9C 1_555 1_555
W10 O33 1_555 1_555
O17 W10C 1_555 1_555
O29 W10C 1_555 1_555
O30 W1C 1_555 1_555
O34 W10C 1_555 1_555
C4 C10 1_555 1_555
C8 C12 1_555 1_555
C9 C11 1_555 1_555
C15 C16 1_555 1_555
O39 W4C 1_555 1_555
N5 C25 1_555 1_555
C24 C26 1_555 1_555
W2C O5C 1_555 1_555
W2C O29C 1_555 1_555
W3C O31C 1_555 1_555
W4C O9C 1_555 1_555
W5C O15C 1_555 1_555
W5C O19C 1_555 1_555
W5C O31C 1_555 1_555
W5C O40C 1_555 1_555
W6C O6C 1_555 1_555
W6C O8C 1_555 1_555
W6C O16C 1_555 1_555
W6C O34C 1_555 1_555
W9C O1C 1_555 1_555
W9C O14C 1_555 1_555
W9C O35C 1_555 1_555
W10C O33C 1_555 1_555
O18B C3B 1_555 1_555
O25B C3B 1_555 1_555
C1B C2B 1_555 1_555
C4B C5B 1_555 1_555
C4B C10B 1_555 1_555
C8B C12B 1_555 1_555
C9B C11B 1_555 1_555
C13C C14C 1_555 1_555
C15C C16C 1_555 1_555

#END
