
#######################################################################
#
#                 Cambridge Crystallographic Data Centre
#                                CCDC 
#
#######################################################################
#
# If this CIF has been generated from an entry in the Cambridge 
# Structural Database, then it will include bibliographic, chemical, 
# crystal, experimental, refinement or atomic coordinate data resulting 
# from the CCDC's data processing and validation procedures.
#
#######################################################################

data_EBOXEA
_chemical_formula_moiety         'C20 Mn9 N18 O14'
_symmetry_cell_setting           orthorhombic
_symmetry_space_group_name_H-M   'P b c m'
_symmetry_Int_Tables_number      57
_space_group_name_Hall           '-P 2c 2b'
loop_
_symmetry_equiv_pos_site_id
_symmetry_equiv_pos_as_xyz
1 x,y,z
2 -x,-y,1/2+z
3 -x,1/2+y,1/2-z
4 x,1/2-y,-z
5 -x,-y,-z
6 x,y,1/2-z
7 x,1/2-y,1/2+z
8 -x,1/2+y,z
_cell_length_a                   13.745(3)
_cell_length_b                   22.346(5)
_cell_length_c                   22.592(5)
_cell_angle_alpha                90
_cell_angle_beta                 90
_cell_angle_gamma                90
_cell_volume                     6939.04
loop_
_atom_site_label
_atom_site_type_symbol
_atom_site_fract_x
_atom_site_fract_y
_atom_site_fract_z
_atom_site_U_iso_or_equiv
_atom_site_thermal_displace_type
Mn1 Mn 0.92142(12) 0.10540(9) 0.2500 0.0508 Uani
Mn2 Mn 0.82973(10) -0.00487(7) 0.17733(5) 0.0499 Uani
Mn3 Mn 0.71820(11) 0.12232(7) 0.17888(6) 0.0613 Uani
Mn4 Mn 0.62591(13) 0.01044(10) 0.2500 0.0555 Uani
Mn5 Mn 1.02230(13) -0.02053(10) 0.2500 0.0650 Uani
Mn6 Mn 0.81261(19) 0.22937(12) 0.2500 0.1039 Uani
Mn7 Mn 0.63109(16) 0.00993(11) 0.11174(8) 0.1064 Uani
O1 O 0.8847(5) 0.0231(4) 0.2500 0.0443 Uani
O2 O 0.7916(5) 0.1347(4) 0.2500 0.0490 Uani
O3 O 0.7104(4) 0.0382(3) 0.1881(2) 0.0520 Uani
O4 O 1.0488(7) 0.0735(5) 0.2500 0.0993 Uani
O5 O 0.9550(8) 0.1873(5) 0.2500 0.0993 Uani
O6 O 0.9508(7) -0.0434(5) 0.1682(4) 0.1143 Uani
O7 O 0.7728(7) -0.0301(5) 0.1065(4) 0.1143 Uani
O8 O 0.7262(12) 0.2064(5) 0.1743(5) 0.1543 Uani
O9 O 0.6469(11) 0.1093(5) 0.1096(5) 0.1543 Uani
O10 O 0.5446(6) -0.0120(6) 0.1887(6) 0.1517 Uani
N1 N 0.8765(9) 0.0928(5) 0.1487(5) 0.1000 Uani
N2 N 0.9228(8) 0.1088(5) 0.1076(5) 0.1000 Uani
N3 N 0.9716(8) 0.1236(4) 0.0675(5) 0.1000 Uani
N4 N 0.7468(9) -0.0671(7) 0.2500 0.0907 Uani
N5 N 0.7348(9) -0.1175(7) 0.2500 0.0907 Uani
N6 N 0.7148(9) -0.1707(7) 0.2500 0.0907 Uani
N7 N 0.5893(9) 0.1142(7) 0.2500 0.0983 Uani
N8 N 0.5144(9) 0.1342(7) 0.2500 0.0983 Uani
N9 N 0.4270(9) 0.1514(7) 0.2500 0.0983 Uani
N10 N 1.1413(10) -0.0779(6) 0.2500 0.0903 Uani
N11 N 1.1609(10) -0.1269(7) 0.2500 0.0903 Uani
N12 N 0.8107(10) 0.3227(6) 0.2500 0.0903 Uani
N13 N 0.5522(12) -0.0093(8) 0.0357(6) 0.1807 Uani
N14 N 0.5000 0.0000 0.0000 0.1807 Uani
C1 C 1.1435(12) 0.1085(8) 0.2500 0.0993 Uani
C2 C 1.1227(14) 0.1682(10) 0.2715(12) 0.0993 Uani
C3 C 1.0473(12) 0.2103(8) 0.2500 0.0993 Uani
C4 C 1.2137(12) 0.0735(8) 0.2500 0.0993 Uani
C5 C 1.0514(12) 0.2707(8) 0.2500 0.0993 Uani
C6 C 0.9897(10) -0.0707(8) 0.1147(6) 0.1143 Uani
C7 C 0.9264(11) -0.0573(8) 0.0647(6) 0.1143 Uani
C8 C 0.8134(10) -0.0675(8) 0.0599(5) 0.1143 Uani
C9 C 1.0821(10) -0.0559(8) 0.1032(6) 0.1143 Uani
C10 C 0.7710(10) -0.0586(7) 0.0066(5) 0.1143 Uani
C11 C 0.6882(16) 0.2416(8) 0.1241(7) 0.1543 Uani
C12 C 0.6744(15) 0.2066(8) 0.0775(7) 0.1543 Uani
C13 C 0.6210(16) 0.1585(8) 0.0713(8) 0.1543 Uani
C14 C 0.7126(17) 0.2985(8) 0.1337(8) 0.1543 Uani
C15 C 0.5675(17) 0.1406(7) 0.0245(7) 0.1543 Uani
C16 C 0.4549(10) -0.0472(9) 0.1938(9) 0.1517 Uani
C17 C 0.4097(14) -0.0226(13) 0.2500 0.1517 Uani
C18 C 0.3963(9) -0.0361(9) 0.1486(9) 0.1517 Uani
Mn2E Mn 0.82973(10) -0.00487(7) 0.32267(5) 0.0499 Uani
Mn3E Mn 0.71820(11) 0.12232(7) 0.32112(6) 0.0613 Uani
O3E O 0.7104(4) 0.0382(3) 0.3119(2) 0.0520 Uani
O6E O 0.9508(7) -0.0434(5) 0.3318(4) 0.1143 Uani
O8E O 0.7262(12) 0.2064(5) 0.3257(5) 0.1543 Uani
O10E O 0.5446(6) -0.0120(6) 0.3113(6) 0.1517 Uani
N1E N 0.8765(9) 0.0928(5) 0.3513(5) 0.1000 Uani
N11B N 0.8391(10) 0.3731(7) 0.2500 0.0903 Uani
N12B N 1.1893(10) -0.1773(6) 0.2500 0.0903 Uani
N13D N 0.4478(12) 0.0093(8) -0.0357(6) 0.1807 Uani
C2E C 1.1227(14) 0.1682(10) 0.2285(12) 0.0993 Uani
C16E C 0.4549(10) -0.0472(9) 0.3062(9) 0.1517 Uani
loop_
_atom_site_aniso_label
_atom_site_aniso_U_11
_atom_site_aniso_U_22
_atom_site_aniso_U_33
_atom_site_aniso_U_23
_atom_site_aniso_U_13
_atom_site_aniso_U_12
Mn1 0.0325(9) 0.0572(12) 0.0626(12) 0.000 0.000 -0.0059(8)
Mn2 0.0498 0.07 0.0299 -0.0046 0.0045 -0.0037
Mn3 0.0682 0.0794 0.0364 0.0098 -0.0058 0.009
Mn4 0.0324(9) 0.0753(15) 0.0588(12) 0.000 0.000 -0.0037(9)
Mn5 0.0339(10) 0.0676(15) 0.0935(17) 0.000 0.000 -0.0006(9)
Mn6 0.0665(16) 0.0671(17) 0.178(3) 0.000 0.000 -0.0024(13)
Mn7 0.1062 0.153 0.0599 -0.0256 -0.0496 0.0125
O1 0.044(4) 0.063(5) 0.026(4) 0.000 0.000 -0.011(4)
O2 0.038(4) 0.063(6) 0.046(5) 0.000 0.000 -0.006(4)
O3 0.042 0.075 0.039 -0.008 -0.004 -0.002
O4 0.056(3) 0.077(4) 0.165(7) 0.000 0.000 -0.017(3)
O5 0.056(3) 0.077(4) 0.165(7) 0.000 0.000 -0.017(3)
O6 0.111 0.167 0.065 -0.038 0.022 0.01
O7 0.111 0.167 0.065 -0.038 0.022 0.01
O8 0.242 0.124 0.097 0.019 -0.068 0.027
O9 0.242 0.124 0.097 0.019 -0.068 0.027
O10 0.052 0.185 0.218 -0.04 -0.052 -0.015
N1 0.124 0.096 0.08 0.02 0.055 0.014
N2 0.124 0.096 0.08 0.02 0.055 0.014
N3 0.124 0.096 0.08 0.02 0.055 0.014
N4 0.060(4) 0.076(6) 0.136(8) 0.000 0.000 -0.012(5)
N5 0.060(4) 0.076(6) 0.136(8) 0.000 0.000 -0.012(5)
N6 0.060(4) 0.076(6) 0.136(8) 0.000 0.000 -0.012(5)
N7 0.049(4) 0.111(7) 0.135(8) 0.000 0.000 0.019(5)
N8 0.049(4) 0.111(7) 0.135(8) 0.000 0.000 0.019(5)
N9 0.049(4) 0.111(7) 0.135(8) 0.000 0.000 0.019(5)
N10 0.072(5) 0.064(5) 0.135(8) 0.000 0.000 -0.002(5)
N11 0.072(5) 0.064(5) 0.135(8) 0.000 0.000 -0.002(5)
N12 0.072 0.064 0.135 0 0 0.002
N13 0.184 0.25 0.108 -0.058 -0.115 0.069
N14 0.184 0.25 0.108 -0.058 -0.115 0.069
C1 0.056(3) 0.077(4) 0.165(7) 0.000 0.000 -0.017(3)
C2 0.056(3) 0.077(4) 0.165(7) 0.000 0.000 -0.017(3)
C3 0.056(3) 0.077(4) 0.165(7) 0.000 0.000 -0.017(3)
C4 0.056(3) 0.077(4) 0.165(7) 0.000 0.000 -0.017(3)
C5 0.056(3) 0.077(4) 0.165(7) 0.000 0.000 -0.017(3)
C6 0.111 0.167 0.065 -0.038 0.022 0.01
C7 0.111 0.167 0.065 -0.038 0.022 0.01
C8 0.111 0.167 0.065 -0.038 0.022 0.01
C9 0.111 0.167 0.065 -0.038 0.022 0.01
C10 0.111 0.167 0.065 -0.038 0.022 0.01
C11 0.242 0.124 0.097 0.019 -0.068 0.027
C12 0.242 0.124 0.097 0.019 -0.068 0.027
C13 0.242 0.124 0.097 0.019 -0.068 0.027
C14 0.242 0.124 0.097 0.019 -0.068 0.027
C15 0.242 0.124 0.097 0.019 -0.068 0.027
C16 0.052 0.185 0.218 -0.04 -0.052 -0.015
C17 0.052(3) 0.185(8) 0.218(9) 0.040(6) 0.052(4) -0.015(4)
C18 0.052 0.185 0.218 -0.04 -0.052 -0.015
Mn2E 0.0498(8) 0.0700(10) 0.0299(7) 0.0046(6) -0.0045(5) -0.0037(6)
Mn3E 0.0682(10) 0.0794(11) 0.0364(8) -0.0098(7) 0.0058(6) 0.0090(8)
O3E 0.042(3) 0.075(4) 0.039(3) 0.008(3) 0.004(2) -0.002(3)
O6E 0.111(3) 0.167(5) 0.065(3) 0.038(3) -0.022(2) 0.010(3)
O8E 0.242(7) 0.124(5) 0.097(4) -0.019(3) 0.068(4) 0.027(5)
O10E 0.052(3) 0.185(8) 0.218(9) 0.040(6) 0.052(4) -0.015(4)
N1E 0.124(5) 0.096(4) 0.080(4) -0.020(3) -0.055(4) 0.014(4)
N11B 0.072 0.064 0.135 0 0 0.002
N12B 0.072(5) 0.064(5) 0.135(8) 0.000 0.000 -0.002(5)
N13D 0.184 0.25 0.108 -0.058 -0.115 0.069
C2E 0.056 0.077 0.165 0 0 -0.017
C16E 0.052(3) 0.185(8) 0.218(9) 0.040(6) 0.052(4) -0.015(4)
loop_
_geom_bond_atom_site_label_1
_geom_bond_atom_site_label_2
_geom_bond_site_symmetry_1
_geom_bond_site_symmetry_2
Mn1 O1 1_555 1_555
Mn2 O1 1_555 1_555
Mn3 O2 1_555 1_555
Mn4 O3 1_555 1_555
Mn5 O1 1_555 1_555
Mn6 O2 1_555 1_555
Mn7 O3 1_555 1_555
O1 Mn2E 1_555 1_555
O2 Mn1 1_555 1_555
O3 Mn2 1_555 1_555
O4 Mn1 1_555 1_555
O5 Mn1 1_555 1_555
O6 Mn2 1_555 1_555
O7 Mn2 1_555 1_555
O8 Mn3 1_555 1_555
O9 Mn3 1_555 1_555
O10 Mn4 1_555 1_555
N1 Mn1 1_555 1_555
N2 N1 1_555 1_555
N3 N2 1_555 1_555
N4 Mn2 1_555 1_555
N5 N4 1_555 1_555
N6 N5 1_555 1_555
N7 Mn3 1_555 1_555
N8 N7 1_555 1_555
N9 N8 1_555 1_555
N10 Mn5 1_555 1_555
N11 N10 1_555 1_555
N12 Mn6 1_555 1_555
N13 Mn7 1_555 1_555
N14 N13 1_555 1_555
C1 O4 1_555 1_555
C2 C1 1_555 1_555
C3 O5 1_555 1_555
C4 C1 1_555 1_555
C5 C3 1_555 1_555
C6 O6 1_555 1_555
C7 C6 1_555 1_555
C8 O7 1_555 1_555
C9 C6 1_555 1_555
C10 C8 1_555 1_555
C11 O8 1_555 1_555
C12 C11 1_555 1_555
C13 O9 1_555 1_555
C14 C11 1_555 1_555
C15 C13 1_555 1_555
C16 O10 1_555 1_555
C17 C16 1_555 1_555
C18 C16 1_555 1_555
Mn2E N4 1_555 1_555
Mn3E O2 1_555 1_555
O3E Mn4 1_555 1_555
O6E Mn5 1_555 1_555
O8E Mn6 1_555 1_555
O10E Mn4 1_555 1_555
N1E Mn1 1_555 1_555
N11B N12 1_555 1_555
N12B N11 1_555 1_555
N13D N14 1_555 1_555
C2E C1 1_555 1_555
C16E C17 1_555 1_555
Mn2 N1 1_555 1_555
Mn3 O3 1_555 1_555
Mn3 N1 1_555 1_555
Mn4 N4 1_555 1_555
Mn4 N7 1_555 1_555
Mn5 O4 1_555 1_555
Mn5 O6 1_555 1_555
Mn6 O5 1_555 1_555
Mn6 O8 1_555 1_555
Mn7 O7 1_555 1_555
Mn7 O9 1_555 1_555
Mn7 O10 1_555 1_555
N7 Mn3E 1_555 1_555
C2 C3 1_555 1_555
C2 C2E 1_555 1_555
C3 C2E 1_555 1_555
C7 C8 1_555 1_555
C12 C13 1_555 1_555
Mn2E O3E 1_555 1_555
Mn2E O6E 1_555 1_555
Mn2E N1E 1_555 1_555
Mn3E O3E 1_555 1_555
Mn3E O8E 1_555 1_555
Mn3E N1E 1_555 1_555
O10E C16E 1_555 1_555

#END
