
#######################################################################
#
#                 Cambridge Crystallographic Data Centre
#                                CCDC 
#
#######################################################################
#
# If this CIF has been generated from an entry in the Cambridge 
# Structural Database, then it will include bibliographic, chemical, 
# crystal, experimental, refinement or atomic coordinate data resulting 
# from the CCDC's data processing and validation procedures.
#
#######################################################################

data_HIHFOV
_chemical_formula_moiety         '(C40 H37 N9 Ni1 O2)n'
_symmetry_cell_setting           monoclinic
_symmetry_space_group_name_H-M   'C c'
_symmetry_Int_Tables_number      9
_space_group_name_Hall           'C -2yc'
loop_
_symmetry_equiv_pos_site_id
_symmetry_equiv_pos_as_xyz
1 x,y,z
2 x,-y,1/2+z
3 1/2+x,1/2+y,z
4 1/2+x,1/2-y,1/2+z
_cell_length_a                   23.9544(6)
_cell_length_b                   9.6535(2)
_cell_length_c                   17.2072(4)
_cell_angle_alpha                90
_cell_angle_beta                 107.043(2)
_cell_angle_gamma                90
_cell_volume                     3804.32
loop_
_atom_site_label
_atom_site_type_symbol
_atom_site_fract_x
_atom_site_fract_y
_atom_site_fract_z
_atom_site_U_iso_or_equiv
_atom_site_thermal_displace_type
C1 C 1.03734(8) 0.19580(19) 0.28301(10) 0.0289 Uani
H1 H 1.0071 0.1732 0.2369 0.0350 Uiso
C2 C 1.08837(10) 0.2666(3) 0.28115(13) 0.0436 Uani
H2 H 1.0972 0.2999 0.2354 0.0520 Uiso
C3 C 1.12232(8) 0.2764(2) 0.36026(12) 0.0365 Uani
H3 H 1.1592 0.3163 0.3787 0.0440 Uiso
C4 C 1.09048(7) 0.21424(17) 0.40877(10) 0.0235 Uani
C5 C 1.10910(7) 0.19958(17) 0.49370(10) 0.0263 Uani
C6 C 1.07804(8) 0.1377(2) 0.54185(11) 0.0281 Uani
C7 C 1.09305(10) 0.1399(3) 0.62864(12) 0.0432 Uani
H4 H 1.1272 0.1758 0.6638 0.0520 Uiso
C8 C 1.04846(11) 0.0799(3) 0.65057(12) 0.0488 Uani
H5 H 1.0458 0.0676 0.7030 0.0590 Uiso
C9 C 1.00658(9) 0.0401(2) 0.57621(11) 0.0381 Uani
H6 H 0.9714 -0.0034 0.5735 0.0460 Uiso
C10 C 1.16803(7) 0.25741(18) 0.53801(10) 0.0281 Uani
C11 C 1.17738(8) 0.3999(2) 0.54463(12) 0.0351 Uani
H7 H 1.1468 0.4603 0.5213 0.0420 Uiso
C12 C 1.23193(9) 0.45230(19) 0.58576(13) 0.0355 Uani
H8 H 1.2376 0.5475 0.5914 0.0430 Uiso
C13 C 1.27785(7) 0.36317(18) 0.61837(10) 0.0277 Uani
C14 C 1.26973(8) 0.22049(19) 0.61129(12) 0.0326 Uani
H9 H 1.3009 0.1606 0.6327 0.0390 Uiso
C15 C 1.21477(8) 0.1685(2) 0.57193(12) 0.0346 Uani
H10 H 1.2090 0.0731 0.5681 0.0420 Uiso
C16 C 1.37107(8) 0.36941(19) 0.73034(11) 0.0258 Uani
H11 H 1.3656 0.2864 0.7545 0.0310 Uiso
C17 C 1.40765(9) 0.5601(2) 0.70530(13) 0.0418 Uani
H12 H 1.4330 0.6344 0.7092 0.0500 Uiso
C18 C 1.35693(11) 0.5425(2) 0.64444(14) 0.0491 Uani
H13 H 1.3411 0.6018 0.6009 0.0590 Uiso
C19 C 0.94187(8) 0.36063(18) 0.38520(12) 0.0329 Uani
H14 H 0.9791 0.3850 0.3836 0.0390 Uiso
C20 C 0.89500(11) 0.45487(19) 0.37323(17) 0.0464 Uani
H15 H 0.8959 0.5494 0.3633 0.0560 Uiso
C21 C 0.84807(9) 0.37953(19) 0.37909(14) 0.0384 Uani
H16 H 0.8107 0.4128 0.3736 0.0460 Uiso
C22 C 0.86768(7) 0.23977(17) 0.39520(11) 0.0255 Uani
C23 C 0.83352(7) 0.12471(16) 0.40215(10) 0.0234 Uani
C24 C 0.85258(6) -0.01252(16) 0.41650(10) 0.0222 Uani
C25 C 0.82066(7) -0.12372(17) 0.43890(11) 0.0273 Uani
H17 H 0.7820 -0.1215 0.4394 0.0330 Uiso
C26 C 0.85814(8) -0.23372(18) 0.45946(12) 0.0323 Uani
H18 H 0.8503 -0.3204 0.4774 0.0390 Uiso
C27 C 0.91151(7) -0.18797(17) 0.44774(10) 0.0272 Uani
H19 H 0.9447 -0.2431 0.4571 0.0330 Uiso
C28 C 0.77035(7) 0.15271(17) 0.39321(10) 0.0248 Uani
C29 C 0.75444(7) 0.23730(18) 0.44876(11) 0.0275 Uani
H20 H 0.7831 0.2761 0.4920 0.0330 Uiso
C30 C 0.69585(7) 0.26403(18) 0.43990(11) 0.0279 Uani
H21 H 0.6853 0.3185 0.4779 0.0340 Uiso
C31 C 0.65336(7) 0.20935(17) 0.37443(10) 0.0245 Uani
C32 C 0.66845(8) 0.12462(19) 0.31828(11) 0.0302 Uani
H22 H 0.6397 0.0879 0.2744 0.0360 Uiso
C33 C 0.72689(8) 0.09553(19) 0.32845(11) 0.0299 Uani
H23 H 0.7372 0.0374 0.2918 0.0360 Uiso
C34 C 0.57347(7) 0.36616(18) 0.38193(11) 0.0273 Uani
H24 H 0.5973 0.4422 0.4014 0.0330 Uiso
C35 C 0.49888(7) 0.23444(19) 0.33907(12) 0.0314 Uani
H25 H 0.4605 0.2033 0.3236 0.0380 Uiso
C36 C 0.54579(8) 0.15641(19) 0.33668(12) 0.0323 Uani
H26 H 0.5456 0.0649 0.3197 0.0390 Uiso
N1 N 1.03741(6) 0.16508(14) 0.35833(8) 0.0221 Uani
N2 N 1.02347(8) 0.07221(16) 0.51117(10) 0.0273 Uani
N3 N 1.33389(6) 0.41889(16) 0.66064(9) 0.0283 Uani
N4 N 1.41612(7) 0.45258(15) 0.76017(10) 0.0249 Uani
N5 N 0.92626(6) 0.23272(14) 0.39899(9) 0.0243 Uani
N6 N 0.90884(6) -0.05776(13) 0.42191(8) 0.0220 Uani
N7 N 0.59328(6) 0.24148(15) 0.36469(9) 0.0261 Uani
N8 N 0.51622(6) 0.36605(15) 0.36766(9) 0.0254 Uani
Ni1 Ni 0.972438(8) 0.055049(18) 0.389615(9) 0.0195 Uani
N4C N 0.91612(7) 0.04742(15) 0.26017(10) 0.0249 Uani
N8B N 1.01622(6) -0.13395(15) 0.36766(9) 0.0254 Uani
Ni1B Ni 0.472438(8) 0.555049(18) 0.389615(9) 0.0195 Uani
Ni1C Ni 1.472438(8) 0.444951(18) 0.889615(9) 0.0195 Uani
C37 C 0.40350(16) 0.8730(3) 0.58983(17) 0.0661 Uani
H27 H 0.4087 0.7954 0.5607 0.0800 Uiso
C38 C 0.44193(18) 1.0820(4) 0.6579(3) 0.0780 Uani
H28 H 0.4123 1.0669 0.6845 0.1180 Uiso
H29 H 0.4313 1.1598 0.6219 0.1180 Uiso
H30 H 0.4786 1.1002 0.6980 0.1180 Uiso
C39 C 0.5017(2) 0.9467(5) 0.5919(3) 0.0880 Uani
H31 H 0.5337 0.9404 0.6408 0.1320 Uiso
H32 H 0.5071 1.0256 0.5609 0.1320 Uiso
H33 H 0.5001 0.8641 0.5602 0.1320 Uiso
N9 N 0.44721(11) 0.9617(2) 0.61262(14) 0.0570 Uani
O1 O 0.35643(13) 0.8854(3) 0.60433(16) 0.0890 Uani
C40 C 0.0911(5) 0.2448(11) 0.0702(5) 0.1075 Uani
H34 H 0.0803 0.1794 0.1052 0.1620 Uiso
H35 H 0.1023 0.1961 0.0285 0.1620 Uiso
H36 H 0.0585 0.3040 0.0456 0.1620 Uiso
O2 O 0.1383(3) 0.3256(6) 0.1159(4) 0.0961 Uani
H37 H 0.1600 0.2776 0.1516 0.1440 Uiso
loop_
_atom_site_aniso_label
_atom_site_aniso_U_11
_atom_site_aniso_U_22
_atom_site_aniso_U_33
_atom_site_aniso_U_23
_atom_site_aniso_U_13
_atom_site_aniso_U_12
C1 0.0230(8) 0.0358(9) 0.0274(7) -0.0018(6) 0.0066(6) -0.0047(7)
C2 0.0384(11) 0.0610(13) 0.0349(9) 0.0017(9) 0.0163(8) -0.0174(10)
C3 0.0254(9) 0.0490(11) 0.0380(9) -0.0040(8) 0.0137(7) -0.0147(8)
C4 0.0119(7) 0.0263(7) 0.0308(8) -0.0007(6) 0.0038(6) -0.0025(6)
C5 0.0152(7) 0.0276(7) 0.0320(8) -0.0016(6) 0.0006(6) -0.0008(6)
C6 0.0185(8) 0.0346(9) 0.0260(8) 0.0020(6) -0.0018(6) -0.0050(7)
C7 0.0356(11) 0.0594(13) 0.0269(8) 0.0036(8) -0.0027(8) -0.0177(10)
C8 0.0466(13) 0.0704(15) 0.0257(8) 0.0020(9) 0.0047(9) -0.0218(11)
C9 0.0313(10) 0.0519(12) 0.0295(8) 0.0008(7) 0.0062(7) -0.0148(8)
C10 0.0181(7) 0.0327(8) 0.0287(8) -0.0004(6) -0.0006(6) -0.0046(6)
C11 0.0201(8) 0.0326(8) 0.0436(10) 0.0016(7) -0.0046(7) -0.0010(7)
C12 0.0230(9) 0.0316(9) 0.0422(10) -0.0001(7) -0.0055(7) -0.0049(7)
C13 0.0170(7) 0.0353(9) 0.0264(7) 0.0013(6) -0.0004(6) -0.0067(6)
C14 0.0173(7) 0.0324(9) 0.0406(9) 0.0042(7) -0.0034(7) -0.0017(6)
C15 0.0207(8) 0.0299(8) 0.0455(10) 0.0016(7) -0.0024(7) -0.0042(7)
C16 0.0168(8) 0.0289(8) 0.0293(8) 0.0012(6) 0.0030(6) -0.0031(6)
C17 0.0299(10) 0.0490(11) 0.0373(9) 0.0127(8) -0.0043(8) -0.0203(8)
C18 0.0404(12) 0.0523(13) 0.0391(10) 0.0201(9) -0.0124(9) -0.0238(10)
C19 0.0288(9) 0.0252(8) 0.0497(10) -0.0066(7) 0.0192(8) -0.0049(7)
C20 0.0471(13) 0.0217(8) 0.0817(17) 0.0006(9) 0.0365(12) 0.0022(8)
C21 0.0326(10) 0.0245(8) 0.0650(13) 0.0023(8) 0.0250(9) 0.0063(7)
C22 0.0186(8) 0.0241(7) 0.0358(8) -0.0023(6) 0.0111(7) 0.0013(6)
C23 0.0156(7) 0.0248(7) 0.0311(7) -0.0019(6) 0.0090(6) 0.0020(6)
C24 0.0144(7) 0.0234(7) 0.0299(7) -0.0020(6) 0.0084(6) 0.0013(6)
C25 0.0176(7) 0.0273(8) 0.0399(8) -0.0009(6) 0.0128(6) -0.0005(6)
C26 0.0308(9) 0.0245(7) 0.0471(10) 0.0033(7) 0.0201(8) 0.0006(7)
C27 0.0211(7) 0.0254(7) 0.0363(8) 0.0023(6) 0.0104(6) 0.0050(6)
C28 0.0158(7) 0.0247(7) 0.0354(8) 0.0004(6) 0.0100(6) 0.0041(6)
C29 0.0163(7) 0.0328(8) 0.0330(8) -0.0024(6) 0.0065(6) 0.0046(6)
C30 0.0200(8) 0.0311(8) 0.0337(8) -0.0038(6) 0.0095(6) 0.0062(6)
C31 0.0138(7) 0.0252(7) 0.0353(8) 0.0025(6) 0.0083(6) 0.0045(6)
C32 0.0189(8) 0.0334(9) 0.0373(9) -0.0072(7) 0.0065(7) 0.0016(6)
C33 0.0212(8) 0.0311(8) 0.0387(9) -0.0073(7) 0.0106(7) 0.0040(6)
C34 0.0152(7) 0.0272(8) 0.0391(8) -0.0043(6) 0.0073(6) 0.0040(6)
C35 0.0166(7) 0.0333(8) 0.0456(9) -0.0023(7) 0.0112(7) -0.0027(6)
C36 0.0206(8) 0.0292(8) 0.0484(10) -0.0049(7) 0.0123(7) -0.0027(6)
N1 0.0125(6) 0.0274(6) 0.0249(6) 0.0000(5) 0.0031(5) 0.0005(5)
N2 0.0197(8) 0.0323(7) 0.0280(7) 0.0017(6) 0.0041(6) -0.0058(6)
N3 0.0168(7) 0.0362(7) 0.0272(6) 0.0034(6) -0.0010(5) -0.0074(6)
N4 0.0140(7) 0.0317(8) 0.0266(7) 0.0010(5) 0.0021(5) -0.0017(5)
N5 0.0171(6) 0.0240(6) 0.0328(7) -0.0049(5) 0.0090(5) -0.0024(5)
N6 0.0127(6) 0.0239(6) 0.0291(6) -0.0015(5) 0.0058(5) 0.0017(5)
N7 0.0127(6) 0.0269(7) 0.0391(8) -0.0028(6) 0.0081(5) 0.0029(5)
N8 0.0131(6) 0.0310(7) 0.0316(6) -0.0003(5) 0.0060(5) 0.0029(5)
Ni1 0.00960(7) 0.02373(8) 0.02447(8) -0.00108(8) 0.00377(6) 0.00085(8)
N4C 0.014 0.0317 0.0266 -0.001 0.0021 0.0017
N8B 0.0131 0.031 0.0316 -0.0003 0.006 0.0029
Ni1B 0.0096 0.02373 0.02447 -0.00108 0.00377 0.00085
Ni1C 0.0096 0.02373 0.02447 0.00108 0.00377 -0.00085
C37 0.084(2) 0.0510(15) 0.0511(14) -0.0080(11) 0.0009(14) -0.0122(14)
C38 0.063(2) 0.0594(16) 0.096(3) -0.0332(17) -0.0011(18) 0.0034(15)
C39 0.069(2) 0.117(4) 0.076(2) -0.0143(19) 0.018(2) 0.0058(19)
N9 0.0536(13) 0.0515(11) 0.0561(12) -0.0143(9) 0.0006(10) 0.0059(10)
O1 0.0776(17) 0.1061(19) 0.0740(14) -0.0009(14) 0.0077(13) -0.0367(15)
C40 0.144(8) 0.128(7) 0.066(4) -0.039(4) 0.055(5) -0.057(6)
O2 0.099(4) 0.083(4) 0.111(4) 0.017(3) 0.038(3) -0.023(3)
loop_
_geom_bond_atom_site_label_1
_geom_bond_atom_site_label_2
_geom_bond_site_symmetry_1
_geom_bond_site_symmetry_2
C1 H1 1_555 1_555
C2 C1 1_555 1_555
H2 C2 1_555 1_555
C3 C2 1_555 1_555
H3 C3 1_555 1_555
C4 C3 1_555 1_555
C5 C4 1_555 1_555
C6 C5 1_555 1_555
C7 C6 1_555 1_555
H4 C7 1_555 1_555
C8 C7 1_555 1_555
H5 C8 1_555 1_555
C9 C8 1_555 1_555
H6 C9 1_555 1_555
C10 C5 1_555 1_555
C11 C10 1_555 1_555
H7 C11 1_555 1_555
C12 C11 1_555 1_555
H8 C12 1_555 1_555
C13 C12 1_555 1_555
C14 C13 1_555 1_555
H9 C14 1_555 1_555
C15 C10 1_555 1_555
H10 C15 1_555 1_555
C16 H11 1_555 1_555
C17 H12 1_555 1_555
C18 C17 1_555 1_555
H13 C18 1_555 1_555
C19 H14 1_555 1_555
C20 C19 1_555 1_555
H15 C20 1_555 1_555
C21 C20 1_555 1_555
H16 C21 1_555 1_555
C22 C21 1_555 1_555
C23 C22 1_555 1_555
C24 C23 1_555 1_555
C25 C24 1_555 1_555
H17 C25 1_555 1_555
C26 C25 1_555 1_555
H18 C26 1_555 1_555
C27 C26 1_555 1_555
H19 C27 1_555 1_555
C28 C23 1_555 1_555
C29 C28 1_555 1_555
H20 C29 1_555 1_555
C30 C29 1_555 1_555
H21 C30 1_555 1_555
C31 C30 1_555 1_555
C32 C31 1_555 1_555
H22 C32 1_555 1_555
C33 C28 1_555 1_555
H23 C33 1_555 1_555
C34 H24 1_555 1_555
C35 H25 1_555 1_555
C36 C35 1_555 1_555
H26 C36 1_555 1_555
N1 C1 1_555 1_555
N2 C6 1_555 1_555
N3 C13 1_555 1_555
N4 C16 1_555 1_555
N5 C19 1_555 1_555
N6 C24 1_555 1_555
N7 C31 1_555 1_555
N8 C34 1_555 1_555
Ni1 N1 1_555 1_555
C37 H27 1_555 1_555
C38 H28 1_555 1_555
H29 C38 1_555 1_555
H30 C38 1_555 1_555
C39 H31 1_555 1_555
H32 C39 1_555 1_555
H33 C39 1_555 1_555
N9 C37 1_555 1_555
O1 C37 1_555 1_555
C40 H34 1_555 1_555
H35 C40 1_555 1_555
H36 C40 1_555 1_555
O2 C40 1_555 1_555
H37 O2 1_555 1_555
N4C Ni1 1_555 1_555
N8B Ni1 1_555 1_555
Ni1B N8 1_555 1_555
Ni1C N4 1_555 1_555
C4 N1 1_555 1_555
C9 N2 1_555 1_555
C14 C15 1_555 1_555
C16 N3 1_555 1_555
C17 N4 1_555 1_555
C18 N3 1_555 1_555
C22 N5 1_555 1_555
C27 N6 1_555 1_555
C32 C33 1_555 1_555
C34 N7 1_555 1_555
C35 N8 1_555 1_555
C36 N7 1_555 1_555
N2 Ni1 1_555 1_555
N5 Ni1 1_555 1_555
N6 Ni1 1_555 1_555
C38 N9 1_555 1_555
C39 N9 1_555 1_555

#END
