
#######################################################################
#
#                 Cambridge Crystallographic Data Centre
#                                CCDC 
#
#######################################################################
#
# If this CIF has been generated from an entry in the Cambridge 
# Structural Database, then it will include bibliographic, chemical, 
# crystal, experimental, refinement or atomic coordinate data resulting 
# from the CCDC's data processing and validation procedures.
#
#######################################################################

data_HULTEN
_chemical_formula_moiety         '(C4 H16 N1 O16 P4 Zn3 1-)n'
_symmetry_cell_setting           orthorhombic
_symmetry_space_group_name_H-M   'F d d d'
_symmetry_Int_Tables_number      70
_space_group_name_Hall           '-F 2uv 2vw'
loop_
_symmetry_equiv_pos_site_id
_symmetry_equiv_pos_as_xyz
1 x,y,z
2 1/4-x,1/4-y,z
3 x,1/4-y,1/4-z
4 1/4-x,y,1/4-z
5 x,1/2+y,1/2+z
6 1/2+x,y,1/2+z
7 1/2+x,1/2+y,z
8 1/4-x,3/4-y,1/2+z
9 x,3/4-y,3/4-z
10 1/4-x,1/2+y,3/4-z
11 3/4-x,1/4-y,1/2+z
12 1/2+x,1/4-y,3/4-z
13 3/4-x,y,3/4-z
14 3/4-x,3/4-y,z
15 1/2+x,3/4-y,1/4-z
16 3/4-x,1/2+y,1/4-z
17 -x,-y,-z
18 3/4+x,3/4+y,-z
19 -x,3/4+y,3/4+z
20 3/4+x,-y,3/4+z
21 -x,1/2-y,1/2-z
22 1/2-x,-y,1/2-z
23 1/2-x,1/2-y,-z
24 3/4+x,1/4+y,1/2-z
25 -x,1/4+y,1/4+z
26 3/4+x,1/2-y,1/4+z
27 1/4+x,3/4+y,1/2-z
28 1/2-x,3/4+y,1/4+z
29 1/4+x,-y,1/4+z
30 1/4+x,1/4+y,-z
31 1/2-x,1/4+y,3/4+z
32 1/4+x,1/2-y,3/4+z
_cell_length_a                   9.203(1)
_cell_length_b                   15.776(2)
_cell_length_c                   31.587(4)
_cell_angle_alpha                90
_cell_angle_beta                 90
_cell_angle_gamma                90
_cell_volume                     4586.01
loop_
_atom_site_label
_atom_site_type_symbol
_atom_site_fract_x
_atom_site_fract_y
_atom_site_fract_z
_atom_site_U_iso_or_equiv
_atom_site_thermal_displace_type
Zn1 Zn -0.1250 0.3750 0.3750 0.0182 Uani
Zn2 Zn -0.1250 0.3750 0.239279(17) 0.0183 Uani
P1 P 0.10185(10) 0.30470(6) 0.30866(3) 0.0160 Uani
O1 O 0.0525(3) 0.35630(18) 0.27112(9) 0.0284 Uani
O2 O -0.0128(3) 0.29435(17) 0.34228(9) 0.0287 Uani
O3 O 0.1713(3) 0.22186(17) 0.29649(8) 0.0279 Uani
O4 O 0.2279(3) 0.3593(2) 0.33108(9) 0.0317 Uani
H1 H 0.319(4) 0.359(7) 0.321(3) 0.0500 Uiso
P1H P 0.10185(10) 0.44530(6) 0.44134(3) 0.0160 Uani
O1H O 0.0525(3) 0.39370(18) 0.47888(9) 0.0284 Uani
O2H O -0.0128(3) 0.45565(17) 0.40772(9) 0.0287 Uani
O3H O 0.1713(3) 0.52814(17) 0.45351(8) 0.0279 Uani
O4H O 0.2279(3) 0.3907(2) 0.41892(9) 0.0317 Uani
H1H H 0.319(4) 0.391(7) 0.429(3) 0.0500 Uiso
P1L P -0.35185(10) 0.30470(6) 0.44134(3) 0.0160 Uani
O1L O -0.3025(3) 0.35630(18) 0.47888(9) 0.0284 Uani
O2L O -0.2372(3) 0.29435(17) 0.40772(9) 0.0287 Uani
O3L O -0.4213(3) 0.22186(17) 0.45351(8) 0.0279 Uani
O4L O -0.4779(3) 0.3593(2) 0.41892(9) 0.0317 Uani
H1L H -0.569(4) 0.359(7) 0.429(3) 0.0500 Uiso
P1M P -0.35185(10) 0.44530(6) 0.30866(3) 0.0160 Uani
O1M O -0.3025(3) 0.39370(18) 0.27112(9) 0.0284 Uani
O2M O -0.2372(3) 0.45565(17) 0.34228(9) 0.0287 Uani
O3M O -0.4213(3) 0.52814(17) 0.29649(8) 0.0279 Uani
O4M O -0.4779(3) 0.3907(2) 0.33108(9) 0.0317 Uani
H1M H -0.569(4) 0.391(7) 0.321(3) 0.0500 Uiso
Zn2H Zn -0.1250 0.3750 0.510721(17) 0.0183 Uani
O3W O -0.0787(3) 0.47186(17) 0.20351(8) 0.0279 Uani
O3T O -0.1713(3) 0.27814(17) 0.20351(8) 0.0279 Uani
Zn2Z Zn 0.1250 0.1250 0.260721(17) 0.0183 Uani
Zn2X Zn 0.1250 0.6250 0.489279(17) 0.0183 Uani
Zn2Y Zn -0.3750 0.1250 0.489279(17) 0.0183 Uani
Zn2W Zn -0.3750 0.6250 0.260721(17) 0.0183 Uani
O3X O -0.1713(3) 0.47186(17) 0.54649(8) 0.0279 Uani
O3Y O -0.0787(3) 0.27814(17) 0.54649(8) 0.0279 Uani
N1 N 0.3750 0.3750 0.18413(15) 0.0283 Uani
C1 C 0.2501(10) 0.3932(8) 0.1593(3) 0.1690 Uani
H2 H 0.2259 0.3433 0.1416 0.2030 Uiso
H3 H 0.2703 0.4424 0.1408 0.2030 Uiso
H4 H 0.1673 0.4065 0.1781 0.2030 Uiso
C2 C 0.3487(14) 0.3026(5) 0.2091(3) 0.1987 Uani
H5 H 0.3292 0.2535 0.1905 0.2390 Uiso
H6 H 0.2635 0.3129 0.2276 0.2390 Uiso
H7 H 0.4350 0.2908 0.2269 0.2390 Uiso
C1M C 0.4999(10) 0.3568(8) 0.1593(3) 0.1690 Uani
H2M H 0.5241 0.4067 0.1416 0.2030 Uiso
H3M H 0.4797 0.3076 0.1408 0.2030 Uiso
H4M H 0.5827 0.3435 0.1781 0.2030 Uiso
C2M C 0.4013(14) 0.4474(5) 0.2091(3) 0.1987 Uani
H5M H 0.4208 0.4965 0.1905 0.2390 Uiso
H6M H 0.4865 0.4371 0.2276 0.2390 Uiso
H7M H 0.3150 0.4592 0.2269 0.2390 Uiso
loop_
_atom_site_aniso_label
_atom_site_aniso_U_11
_atom_site_aniso_U_22
_atom_site_aniso_U_33
_atom_site_aniso_U_23
_atom_site_aniso_U_13
_atom_site_aniso_U_12
Zn1 0.0171(5) 0.0221(4) 0.0154(4) 0.000 0.000 0.000
Zn2 0.0237(3) 0.0155(3) 0.0157(3) 0.000 0.000 0.0051(3)
P1 0.0169(4) 0.0156(4) 0.0154(4) -0.0029(3) -0.0017(4) 0.0024(3)
O1 0.0276(16) 0.0286(16) 0.0289(14) 0.0078(12) -0.0069(12) 0.0044(12)
O2 0.0300(16) 0.0258(15) 0.0304(15) -0.0034(13) 0.0094(13) 0.0013(13)
O3 0.0321(16) 0.0230(14) 0.0285(15) -0.0100(12) -0.0009(12) 0.0081(12)
O4 0.0235(16) 0.0351(19) 0.0365(17) -0.0116(13) -0.0048(13) -0.0056(14)
P1H 0.0169 0.0156 0.0154 -0.0029 0.0017 -0.0024
O1H 0.0276 0.0286 0.0289 0.0078 0.0069 -0.0044
O2H 0.03 0.0258 0.0304 -0.0034 -0.0094 -0.0013
O3H 0.0321 0.023 0.0285 -0.01 0.0009 -0.0081
O4H 0.0235 0.0351 0.0365 -0.0116 0.0048 0.0056
P1L 0.0169 0.0156 0.0154 0.0029 -0.0017 -0.0024
O1L 0.0276 0.0286 0.0289 -0.0078 -0.0069 -0.0044
O2L 0.03 0.0258 0.0304 0.0034 0.0094 -0.0013
O3L 0.0321 0.023 0.0285 0.01 -0.0009 -0.0081
O4L 0.0235 0.0351 0.0365 0.0116 -0.0048 0.0056
P1M 0.0169 0.0156 0.0154 0.0029 0.0017 0.0024
O1M 0.0276 0.0286 0.0289 -0.0078 0.0069 0.0044
O2M 0.03 0.0258 0.0304 0.0034 -0.0094 0.0013
O3M 0.0321 0.023 0.0285 0.01 0.0009 0.0081
O4M 0.0235 0.0351 0.0365 0.0116 0.0048 -0.0056
Zn2H 0.0237 0.0155 0.0157 0 0 -0.0051
O3W 0.0321 0.023 0.0285 0.01 0.0009 0.0081
O3T 0.0321 0.023 0.0285 -0.01 -0.0009 0.0081
Zn2Z 0.0237 0.0155 0.0157 0 0 0.0051
Zn2X 0.0237 0.0155 0.0157 0 0 -0.0051
Zn2Y 0.0237 0.0155 0.0157 0 0 -0.0051
Zn2W 0.0237 0.0155 0.0157 0 0 0.0051
O3X 0.0321 0.023 0.0285 -0.01 0.0009 -0.0081
O3Y 0.0321 0.023 0.0285 0.01 -0.0009 -0.0081
N1 0.033(3) 0.025(2) 0.027(2) 0.000 0.000 -0.004(2)
C1 0.100(8) 0.191(13) 0.216(12) -0.029(11) -0.082(9) 0.011(8)
C2 0.296(16) 0.078(6) 0.222(11) 0.083(7) 0.193(12) 0.029(8)
C1M 0.1 0.191 0.216 0.029 0.082 0.011
C2M 0.296 0.078 0.222 -0.083 -0.193 0.029
loop_
_geom_bond_atom_site_label_1
_geom_bond_atom_site_label_2
_geom_bond_site_symmetry_1
_geom_bond_site_symmetry_2
Zn1 O2 1_555 1_555
Zn2 O1 1_555 1_555
P1 O1 1_555 1_555
O2 P1 1_555 1_555
O3 P1 1_555 1_555
O4 P1 1_555 1_555
H1 O4 1_555 1_555
N1 C1 1_555 1_555
C1 H2 1_555 1_555
H3 C1 1_555 1_555
H4 C1 1_555 1_555
C2 N1 1_555 1_555
H5 C2 1_555 1_555
H6 C2 1_555 1_555
H7 C2 1_555 1_555
P1H O1H 1_555 1_555
O1H Zn2H 1_555 1_555
O2H Zn1 1_555 1_555
O3H P1H 1_555 1_555
O4H P1H 1_555 1_555
H1H O4H 1_555 1_555
P1L O1L 1_555 1_555
O1L Zn2H 1_555 1_555
O2L Zn1 1_555 1_555
O3L P1L 1_555 1_555
O4L P1L 1_555 1_555
H1L O4L 1_555 1_555
P1M O1M 1_555 1_555
O1M Zn2 1_555 1_555
O2M Zn1 1_555 1_555
O3M P1M 1_555 1_555
O4M P1M 1_555 1_555
H1M O4M 1_555 1_555
Zn2H O3X 1_555 1_555
O3W Zn2 1_555 1_555
O3T Zn2 1_555 1_555
Zn2Z O3 1_555 1_555
Zn2X O3H 1_555 1_555
Zn2Y O3L 1_555 1_555
Zn2W O3M 1_555 1_555
O3Y Zn2H 1_555 1_555
C1M N1 1_555 1_555
H2M C1M 1_555 1_555
H3M C1M 1_555 1_555
H4M C1M 1_555 1_555
C2M N1 1_555 1_555
H5M C2M 1_555 1_555
H6M C2M 1_555 1_555
H7M C2M 1_555 1_555
P1H O2H 1_555 1_555
P1L O2L 1_555 1_555
P1M O2M 1_555 1_555

#END
