
#######################################################################
#
#                 Cambridge Crystallographic Data Centre
#                                CCDC 
#
#######################################################################
#
# If this CIF has been generated from an entry in the Cambridge 
# Structural Database, then it will include bibliographic, chemical, 
# crystal, experimental, refinement or atomic coordinate data resulting 
# from the CCDC's data processing and validation procedures.
#
#######################################################################

data_QATXIU
_chemical_formula_moiety         '(C68 H40 Cd5 N2 O32 4-)n'
_symmetry_cell_setting           cubic
_symmetry_space_group_name_H-M   'I -4 3 d'
_symmetry_Int_Tables_number      220
_space_group_name_Hall           'I -4bd 2c 3'
loop_
_symmetry_equiv_pos_site_id
_symmetry_equiv_pos_as_xyz
1 x,y,z
2 1/2-x,-y,1/2+z
3 -x,1/2+y,1/2-z
4 1/2+x,1/2-y,-z
5 z,x,y
6 1/2+z,1/2-x,-y
7 1/2-z,-x,1/2+y
8 -z,1/2+x,1/2-y
9 y,z,x
10 -y,1/2+z,1/2-x
11 1/2+y,1/2-z,-x
12 1/2-y,-z,1/2+x
13 1/4+y,1/4+x,1/4+z
14 1/4-y,3/4-x,3/4+z
15 3/4+y,1/4-x,3/4-z
16 3/4-y,3/4+x,1/4-z
17 1/4+x,1/4+z,1/4+y
18 3/4-x,3/4+z,1/4-y
19 1/4-x,3/4-z,3/4+y
20 3/4+x,1/4-z,3/4-y
21 1/4+z,1/4+y,1/4+x
22 3/4+z,1/4-y,3/4-x
23 3/4-z,3/4+y,1/4-x
24 1/4-z,3/4-y,3/4+x
25 1/2+x,1/2+y,1/2+z
26 -x,1/2-y,z
27 1/2-x,y,-z
28 x,-y,1/2-z
29 1/2+z,1/2+x,1/2+y
30 z,-x,1/2-y
31 -z,1/2-x,y
32 1/2-z,x,-y
33 1/2+y,1/2+z,1/2+x
34 1/2-y,z,-x
35 y,-z,1/2-x
36 -y,1/2-z,x
37 3/4+y,3/4+x,3/4+z
38 3/4-y,1/4-x,1/4+z
39 1/4+y,3/4-x,1/4-z
40 1/4-y,1/4+x,3/4-z
41 3/4+x,3/4+z,3/4+y
42 1/4-x,1/4+z,3/4-y
43 3/4-x,1/4-z,1/4+y
44 1/4+x,3/4-z,1/4-y
45 3/4+z,3/4+y,3/4+x
46 1/4+z,3/4-y,1/4-x
47 1/4-z,1/4+y,3/4-x
48 3/4-z,1/4-y,1/4+x
_cell_length_a                   31.2009(10)
_cell_length_b                   31.2009(10)
_cell_length_c                   31.2009(10)
_cell_angle_alpha                90
_cell_angle_beta                 90
_cell_angle_gamma                90
_cell_volume                     30374
loop_
_atom_site_label
_atom_site_type_symbol
_atom_site_fract_x
_atom_site_fract_y
_atom_site_fract_z
_atom_site_U_iso_or_equiv
_atom_site_thermal_displace_type
Cd1 Cd 0.7500 0.1250 1.0000 0.0712 Uani
Cd2 Cd 1.06204(5) 0.12044(5) 0.92395(5) 0.1258 Uani
C1 C 0.8807(4) 0.1644(4) 1.0064(4) 0.0760 Uani
C2 C 0.8859(6) 0.2019(6) 1.0325(7) 0.1280 Uani
H1 H 0.8639 0.2121 1.0498 0.1540 Uiso
C3 C 0.9267(6) 0.2228(6) 1.0305(8) 0.1520 Uani
H2 H 0.9315 0.2494 1.0432 0.1830 Uiso
C4 C 0.9580(5) 0.2015(6) 1.0089(7) 0.1360 Uani
H3 H 0.9852 0.2136 1.0097 0.1620 Uiso
C5 C 0.9540(5) 0.1657(4) 0.9869(5) 0.0867 Uani
C6 C 0.9154(4) 0.1462(4) 0.9859(4) 0.0693 Uani
C7 C 0.9118(4) 0.1027(4) 0.9630(4) 0.0690 Uani
C8 C 0.9182(4) 0.0649(4) 0.9876(4) 0.0720 Uani
C9 C 0.9160(5) 0.0257(4) 0.9676(6) 0.1000 Uani
H4 H 0.9200 0.0012 0.9840 0.1200 Uiso
C10 C 0.9081(5) 0.0210(5) 0.9235(7) 0.1047 Uani
H5 H 0.9068 -0.0057 0.9104 0.1260 Uiso
C11 C 0.9026(4) 0.0583(6) 0.9015(5) 0.0913 Uani
H6 H 0.8972 0.0564 0.8722 0.1100 Uiso
C12 C 0.9043(4) 0.0985(4) 0.9190(5) 0.0747 Uani
C13 C 0.8373(5) 0.1455(5) 1.0065(4) 0.0757 Uani
C14 C 0.9930(5) 0.1498(5) 0.9614(8) 0.1050 Uani
C15 C 0.9212(6) 0.0655(5) 1.0358(5) 0.0917 Uani
C16 C 0.8956(5) 0.1358(5) 0.8886(6) 0.0903 Uani
O1 O 0.8311(3) 0.1074(3) 1.0091(4) 0.0953 Uani
O2 O 0.8055(3) 0.1724(3) 1.0025(3) 0.0783 Uani
O3 O 0.9962(7) 0.1497(7) 0.9260(5) 0.2297 Uani
O4 O 1.0193(7) 0.1310(10) 0.9777(6) 0.3270 Uani
O5 O 0.9464(4) 0.0896(4) 1.0533(4) 0.1190 Uani
O6 O 0.9001(4) 0.0386(5) 1.0553(5) 0.1387 Uani
O7 O 0.8994(4) 0.1304(4) 0.8503(4) 0.1207 Uani
O8 O 0.8818(4) 0.1707(3) 0.9046(3) 0.1203 Uani
Cd2U Cd 0.67395(5) 0.12956(5) 0.68796(5) 0.1258 Uani
Cd2Z Cd 0.43796(5) 0.12044(5) 1.07605(5) 0.1258 Uani
Cd2UA Cd 0.82605(5) 0.12956(5) 1.31204(5) 0.1258 Uani
Cd2D Cd 0.92395(5) 0.06204(5) 1.12044(5) 0.1258 Uani
Cd2N Cd 0.87044(5) 0.18796(5) 0.82605(5) 0.1258 Uani
Cd2EA Cd 0.57605(5) 0.06204(5) 0.87956(5) 0.1258 Uani
Cd2KA Cd 0.62956(5) 0.18796(5) 1.17395(5) 0.1258 Uani
C1U C 0.7564(4) 0.0856(4) 0.8693(4) 0.0760 Uani
C1Z C 0.6193(4) 0.1644(4) 0.9936(4) 0.0760 Uani
C1UA C 0.7436(4) 0.0856(4) 1.1307(4) 0.0760 Uani
C2U C 0.7825(7) 0.0481(6) 0.8641(6) 0.1280 Uani
C2Z C 0.6141(6) 0.2019(6) 0.9675(7) 0.1280 Uani
C2UA C 0.7175(7) 0.0481(6) 1.1359(6) 0.1280 Uani
H1U H 0.7998 0.0379 0.8861 0.1540 Uiso
H1Z H 0.6361 0.2121 0.9502 0.1540 Uiso
H1UA H 0.7002 0.0379 1.1139 0.1540 Uiso
C3U C 0.7805(8) 0.0272(6) 0.8233(6) 0.1520 Uani
C3Z C 0.5733(6) 0.2228(6) 0.9695(8) 0.1520 Uani
C3UA C 0.7195(8) 0.0272(6) 1.1767(6) 0.1520 Uani
H2U H 0.7932 0.0006 0.8185 0.1830 Uiso
H2Z H 0.5685 0.2494 0.9568 0.1830 Uiso
H2UA H 0.7068 0.0006 1.1815 0.1830 Uiso
C4U C 0.7589(7) 0.0485(6) 0.7920(5) 0.1360 Uani
C4Z C 0.5420(5) 0.2015(6) 0.9911(7) 0.1360 Uani
C4UA C 0.7411(7) 0.0485(6) 1.2080(5) 0.1360 Uani
H3U H 0.7597 0.0364 0.7648 0.1620 Uiso
H3Z H 0.5148 0.2136 0.9903 0.1620 Uiso
H3UA H 0.7403 0.0364 1.2352 0.1620 Uiso
C5U C 0.7369(5) 0.0843(4) 0.7960(5) 0.0867 Uani
C5Z C 0.5460(5) 0.1657(4) 1.0131(5) 0.0867 Uani
C5UA C 0.7631(5) 0.0843(4) 1.2040(5) 0.0867 Uani
C6U C 0.7359(4) 0.1038(4) 0.8346(4) 0.0693 Uani
C6Z C 0.5846(4) 0.1462(4) 1.0141(4) 0.0693 Uani
C6UA C 0.7641(4) 0.1038(4) 1.1654(4) 0.0693 Uani
C7U C 0.7130(4) 0.1473(4) 0.8382(4) 0.0690 Uani
C7Z C 0.5882(4) 0.1027(4) 1.0370(4) 0.0690 Uani
C7UA C 0.7870(4) 0.1473(4) 1.1618(4) 0.0690 Uani
C8U C 0.7376(4) 0.1851(4) 0.8318(4) 0.0720 Uani
C8Z C 0.5818(4) 0.0649(4) 1.0124(4) 0.0720 Uani
C8UA C 0.7624(4) 0.1851(4) 1.1682(4) 0.0720 Uani
C9U C 0.7176(6) 0.2243(4) 0.8340(5) 0.1000 Uani
C9Z C 0.5840(5) 0.0257(4) 1.0324(6) 0.1000 Uani
C9UA C 0.7824(6) 0.2243(4) 1.1660(5) 0.1000 Uani
H4U H 0.7340 0.2488 0.8300 0.1200 Uiso
H4Z H 0.5800 0.0012 1.0160 0.1200 Uiso
H4UA H 0.7660 0.2488 1.1700 0.1200 Uiso
C10U C 0.6735(7) 0.2290(5) 0.8419(5) 0.1047 Uani
C10Z C 0.5919(5) 0.0210(5) 1.0765(7) 0.1047 Uani
C10UA C 0.8265(7) 0.2290(5) 1.1581(5) 0.1047 Uani
H5U H 0.6604 0.2557 0.8432 0.1260 Uiso
H5Z H 0.5932 -0.0057 1.0896 0.1260 Uiso
H5UA H 0.8396 0.2557 1.1568 0.1260 Uiso
C11U C 0.6515(5) 0.1917(6) 0.8474(4) 0.0913 Uani
C11Z C 0.5974(4) 0.0583(6) 1.0985(5) 0.0913 Uani
C11UA C 0.8485(5) 0.1917(6) 1.1526(4) 0.0913 Uani
H6U H 0.6222 0.1936 0.8528 0.1100 Uiso
H6Z H 0.6028 0.0564 1.1278 0.1100 Uiso
H6UA H 0.8778 0.1936 1.1472 0.1100 Uiso
C12U C 0.6690(5) 0.1515(4) 0.8457(4) 0.0747 Uani
C12Z C 0.5957(4) 0.0985(4) 1.0810(5) 0.0747 Uani
C12UA C 0.8310(5) 0.1515(4) 1.1543(4) 0.0747 Uani
C13U C 0.7565(4) 0.1045(5) 0.9127(5) 0.0757 Uani
C13Z C 0.6627(5) 0.1455(5) 0.9935(4) 0.0757 Uani
C13UA C 0.7435(4) 0.1045(5) 1.0873(5) 0.0757 Uani
C14U C 0.7114(8) 0.1002(5) 0.7570(5) 0.1050 Uani
C14Z C 0.5070(5) 0.1498(5) 1.0386(8) 0.1050 Uani
C14UA C 0.7886(8) 0.1002(5) 1.2430(5) 0.1050 Uani
C15U C 0.7858(5) 0.1845(5) 0.8288(6) 0.0917 Uani
C15Z C 0.5788(6) 0.0655(5) 0.9642(5) 0.0917 Uani
C15UA C 0.7142(5) 0.1845(5) 1.1712(6) 0.0917 Uani
C16U C 0.6386(6) 0.1142(5) 0.8544(5) 0.0903 Uani
C16Z C 0.6044(5) 0.1358(5) 1.1114(6) 0.0903 Uani
C16UA C 0.8614(6) 0.1142(5) 1.1456(5) 0.0903 Uani
O1U O 0.7591(4) 0.1426(3) 0.9189(3) 0.0953 Uani
O1Z O 0.6689(3) 0.1074(3) 0.9909(4) 0.0953 Uani
O1UA O 0.7409(4) 0.1426(3) 1.0811(3) 0.0953 Uani
O2U O 0.7525(3) 0.0776(3) 0.9445(3) 0.0783 Uani
O2Z O 0.6945(3) 0.1724(3) 0.9975(3) 0.0783 Uani
O2UA O 0.7475(3) 0.0776(3) 1.0555(3) 0.0783 Uani
O3U O 0.6760(5) 0.1003(7) 0.7538(7) 0.2297 Uani
O3Z O 0.5038(7) 0.1497(7) 1.0740(5) 0.2297 Uani
O3UA O 0.8240(5) 0.1003(7) 1.2462(7) 0.2297 Uani
O4U O 0.7277(6) 0.1190(10) 0.7307(7) 0.3270 Uani
O4Z O 0.4807(7) 0.1310(10) 1.0223(6) 0.3270 Uani
O4UA O 0.7723(6) 0.1190(10) 1.2693(7) 0.3270 Uani
O5U O 0.8033(4) 0.1604(4) 0.8036(4) 0.1190 Uani
O5Z O 0.5536(4) 0.0896(4) 0.9467(4) 0.1190 Uani
O5UA O 0.6967(4) 0.1604(4) 1.1964(4) 0.1190 Uani
O5H O 1.0896(4) 0.0533(4) 0.9464(4) 0.1190 Uani
O5S O 0.6964(4) 0.1967(4) 0.6604(4) 0.1190 Uani
O5GA O 0.4104(4) 0.0533(4) 1.0536(4) 0.1190 Uani
O5PA O 0.8036(4) 0.1967(4) 1.3396(4) 0.1190 Uani
O6U O 0.8053(5) 0.2114(5) 0.8499(4) 0.1387 Uani
O6Z O 0.5999(4) 0.0386(5) 0.9447(5) 0.1387 Uani
O6UA O 0.6947(5) 0.2114(5) 1.1501(4) 0.1387 Uani
O6H O 1.0386(5) 0.0553(5) 0.9001(4) 0.1387 Uani
O6S O 0.6501(4) 0.1947(5) 0.7114(5) 0.1387 Uani
O6GA O 0.4614(5) 0.0553(5) 1.0999(4) 0.1387 Uani
O6PA O 0.8499(4) 0.1947(5) 1.2886(5) 0.1387 Uani
O7U O 0.6003(4) 0.1196(4) 0.8506(4) 0.1207 Uani
O7Z O 0.6006(4) 0.1304(4) 1.1497(4) 0.1207 Uani
O7UA O 0.8997(4) 0.1196(4) 1.1494(4) 0.1207 Uani
O7MA O 1.1196(4) 0.1494(4) 0.8997(4) 0.1207 Uani
O7F O 0.6497(4) 0.1006(4) 0.6304(4) 0.1207 Uani
O7L O 0.3804(4) 0.1494(4) 1.1003(4) 0.1207 Uani
O7CA O 0.8503(4) 0.1006(4) 1.3696(4) 0.1207 Uani
O8U O 0.6546(3) 0.0793(3) 0.8682(4) 0.1203 Uani
O8Z O 0.6182(4) 0.1707(3) 1.0954(3) 0.1203 Uani
O8UA O 0.8454(3) 0.0793(3) 1.1318(4) 0.1203 Uani
O8MA O 1.0793(3) 0.1318(4) 0.8454(3) 0.1203 Uani
O8F O 0.5954(3) 0.1182(4) 0.6707(3) 0.1203 Uani
O8L O 0.4207(3) 0.1318(4) 1.1546(3) 0.1203 Uani
O8CA O 0.9046(3) 0.1182(4) 1.3293(3) 0.1203 Uani
N1 N 1.0260(5) 0.0518(5) 0.8181(5) 0.1420 Uani
H7 H 1.0455 0.0559 0.7972 0.1710 Uiso
H8 H 1.0396 0.0524 0.8436 0.1710 Uiso
C17 C 1.0034(6) 0.0093(6) 0.8120(6) 0.1420 Uani
H9 H 1.0241 -0.0134 0.8123 0.2130 Uiso
H10 H 0.9885 0.0094 0.7851 0.2130 Uiso
H11 H 0.9832 0.0051 0.8349 0.2130 Uiso
C18 C 0.9913(6) 0.0867(6) 0.8163(6) 0.1420 Uani
H12 H 1.0044 0.1144 0.8195 0.2130 Uiso
H13 H 0.9711 0.0823 0.8390 0.2130 Uiso
H14 H 0.9768 0.0853 0.7892 0.2130 Uiso
C19 C 1.006(3) 0.111(4) 1.147(2) 0.5133 Uani
H15 H 0.9824 0.0907 1.1442 0.7680 Uiso
H16 H 1.0179 0.1080 1.1752 0.7680 Uiso
H17 H 1.0271 0.1046 1.1259 0.7680 Uiso
C20 C 1.025(3) 0.184(2) 1.138(2) 0.5133 Uani
H18 H 1.0147 0.2106 1.1270 0.7680 Uiso
H19 H 1.0463 0.1725 1.1184 0.7680 Uiso
H20 H 1.0377 0.1878 1.1655 0.7680 Uiso
N2 N 0.990(3) 0.154(3) 1.1410(16) 0.5133 Uani
H21 H 0.9731 0.1610 1.1634 0.6140 Uiso
H22 H 0.9739 0.1548 1.1171 0.6140 Uiso
loop_
_atom_site_aniso_label
_atom_site_aniso_U_11
_atom_site_aniso_U_22
_atom_site_aniso_U_33
_atom_site_aniso_U_23
_atom_site_aniso_U_13
_atom_site_aniso_U_12
Cd1 0.0722(7) 0.0693(12) 0.0722(7) 0.000 0.000 0.000
Cd2 0.1332 0.0989 0.1454 0.0239 0.066 0.0212
C1 0.072(9) 0.068(8) 0.088(9) -0.007(7) 0.005(7) 0.007(7)
C2 0.094(13) 0.108(13) 0.182(19) -0.048(13) 0.007(12) -0.016(10)
C3 0.090(12) 0.106(13) 0.26(3) -0.109(15) 0.017(14) -0.011(11)
C4 0.088(12) 0.110(14) 0.21(2) -0.047(15) 0.037(13) -0.019(11)
C5 0.081(10) 0.049(8) 0.130(13) -0.008(8) 0.016(8) -0.002(7)
C6 0.069(8) 0.064(8) 0.075(9) 0.004(6) -0.002(7) 0.002(7)
C7 0.058(8) 0.065(8) 0.084(10) -0.007(7) 0.007(6) -0.023(6)
C8 0.075(8) 0.070(9) 0.071(9) 0.005(7) 0.006(6) -0.004(7)
C9 0.133(14) 0.052(9) 0.115(14) -0.005(8) -0.011(11) 0.025(8)
C10 0.085(11) 0.061(9) 0.168(19) -0.015(11) 0.010(11) 0.003(8)
C11 0.087(11) 0.117(14) 0.070(9) -0.014(9) -0.007(7) 0.013(10)
C12 0.079(9) 0.067(9) 0.078(10) -0.002(8) 0.000(7) -0.006(6)
C13 0.070(9) 0.082(10) 0.075(9) 0.008(8) 0.004(7) 0.003(8)
C14 0.072(11) 0.070(9) 0.173(19) 0.032(11) 0.001(12) 0.003(8)
C15 0.103(12) 0.074(10) 0.098(12) 0.011(9) -0.008(10) 0.016(9)
C16 0.079(9) 0.073(11) 0.119(14) 0.007(10) 0.009(9) -0.001(8)
O1 0.081(6) 0.074(7) 0.131(9) 0.009(6) 0.014(6) -0.005(5)
O2 0.070(6) 0.078(6) 0.087(6) -0.003(5) 0.005(5) -0.001(5)
O3 0.24(2) 0.36(3) 0.089(9) 0.082(14) 0.069(12) 0.116(18)
O4 0.25(2) 0.53(4) 0.201(17) 0.18(2) 0.116(16) 0.28(3)
O5 0.148(10) 0.105(8) 0.104(9) -0.009(7) -0.015(8) -0.011(8)
O6 0.124(10) 0.137(10) 0.155(11) 0.071(9) 0.024(8) 0.001(8)
O7 0.139(10) 0.154(11) 0.069(7) 0.025(7) 0.022(6) 0.044(8)
O8 0.170(11) 0.084(8) 0.107(8) 0.018(6) 0.014(8) 0.022(7)
Cd2U 0.1454 0.0989 0.1332 0.0212 -0.066 -0.0239
Cd2Z 0.1332 0.0989 0.1454 -0.0239 0.066 -0.0212
Cd2UA 0.1454 0.0989 0.1332 -0.0212 -0.066 0.0239
Cd2D 0.1454(12) 0.1332(12) 0.0989(9) 0.0212(8) 0.0239(8) 0.0660(9)
Cd2N 0.0989 0.1332 0.1454 0.066 -0.0239 -0.0212
Cd2EA 0.1454 0.1332 0.0989 -0.0212 0.0239 -0.066
Cd2KA 0.0989 0.1332 0.1454 -0.066 -0.0239 0.0212
C1U 0.088 0.068 0.072 0.007 -0.005 0.007
C1Z 0.072 0.068 0.088 0.007 0.005 -0.007
C1UA 0.088 0.068 0.072 -0.007 -0.005 -0.007
C2U 0.182 0.108 0.094 -0.016 -0.007 0.048
C2Z 0.094 0.108 0.182 0.048 0.007 0.016
C2UA 0.182 0.108 0.094 0.016 -0.007 -0.048
C3U 0.26 0.106 0.09 -0.011 -0.017 0.109
C3Z 0.09 0.106 0.26 0.109 0.017 0.011
C3UA 0.26 0.106 0.09 0.011 -0.017 -0.109
C4U 0.21 0.11 0.088 -0.019 -0.037 0.047
C4Z 0.088 0.11 0.21 0.047 0.037 0.019
C4UA 0.21 0.11 0.088 0.019 -0.037 -0.047
C5U 0.13 0.049 0.081 -0.002 -0.016 0.008
C5Z 0.081 0.049 0.13 0.008 0.016 0.002
C5UA 0.13 0.049 0.081 0.002 -0.016 -0.008
C6U 0.075 0.064 0.069 0.002 0.002 -0.004
C6Z 0.069 0.064 0.075 -0.004 -0.002 -0.002
C6UA 0.075 0.064 0.069 -0.002 0.002 0.004
C7U 0.084 0.065 0.058 -0.023 -0.007 0.007
C7Z 0.058 0.065 0.084 0.007 0.007 0.023
C7UA 0.084 0.065 0.058 0.023 -0.007 -0.007
C8U 0.071 0.07 0.075 -0.004 -0.006 -0.005
C8Z 0.075 0.07 0.071 -0.005 0.006 0.004
C8UA 0.071 0.07 0.075 0.004 -0.006 0.005
C9U 0.115 0.052 0.133 0.025 0.011 0.005
C9Z 0.133 0.052 0.115 0.005 -0.011 -0.025
C9UA 0.115 0.052 0.133 -0.025 0.011 -0.005
C10U 0.168 0.061 0.085 0.003 -0.01 0.015
C10Z 0.085 0.061 0.168 0.015 0.01 -0.003
C10UA 0.168 0.061 0.085 -0.003 -0.01 -0.015
C11U 0.07 0.117 0.087 0.013 0.007 0.014
C11Z 0.087 0.117 0.07 0.014 -0.007 -0.013
C11UA 0.07 0.117 0.087 -0.013 0.007 -0.014
C12U 0.078 0.067 0.079 -0.006 0 0.002
C12Z 0.079 0.067 0.078 0.002 0 0.006
C12UA 0.078 0.067 0.079 0.006 0 -0.002
C13U 0.075 0.082 0.07 0.003 -0.004 -0.008
C13Z 0.07 0.082 0.075 -0.008 0.004 -0.003
C13UA 0.075 0.082 0.07 -0.003 -0.004 0.008
C14U 0.173 0.07 0.072 0.003 -0.001 -0.032
C14Z 0.072 0.07 0.173 -0.032 0.001 -0.003
C14UA 0.173 0.07 0.072 -0.003 -0.001 0.032
C15U 0.098 0.074 0.103 0.016 0.008 -0.011
C15Z 0.103 0.074 0.098 -0.011 -0.008 -0.016
C15UA 0.098 0.074 0.103 -0.016 0.008 0.011
C16U 0.119 0.073 0.079 -0.001 -0.009 -0.007
C16Z 0.079 0.073 0.119 -0.007 0.009 0.001
C16UA 0.119 0.073 0.079 0.001 -0.009 0.007
O1U 0.131 0.074 0.081 -0.005 -0.014 -0.009
O1Z 0.081 0.074 0.131 -0.009 0.014 0.005
O1UA 0.131 0.074 0.081 0.005 -0.014 0.009
O2U 0.087 0.078 0.07 -0.001 -0.005 0.003
O2Z 0.07 0.078 0.087 0.003 0.005 0.001
O2UA 0.087 0.078 0.07 0.001 -0.005 -0.003
O3U 0.089 0.36 0.24 0.116 -0.069 -0.082
O3Z 0.24 0.36 0.089 -0.082 0.069 -0.116
O3UA 0.089 0.36 0.24 -0.116 -0.069 0.082
O4U 0.201 0.53 0.25 0.28 -0.116 -0.18
O4Z 0.25 0.53 0.201 -0.18 0.116 -0.28
O4UA 0.201 0.53 0.25 -0.28 -0.116 0.18
O5U 0.104 0.105 0.148 -0.011 0.015 0.009
O5Z 0.148 0.105 0.104 0.009 -0.015 0.011
O5UA 0.104 0.105 0.148 0.011 0.015 -0.009
O5H 0.105 0.104 0.148 -0.015 -0.011 -0.009
O5S 0.148 0.104 0.105 -0.009 0.011 0.015
O5GA 0.105 0.104 0.148 0.015 -0.011 0.009
O5PA 0.148 0.104 0.105 0.009 0.011 -0.015
O6U 0.155 0.137 0.124 0.001 -0.024 -0.071
O6Z 0.124 0.137 0.155 -0.071 0.024 -0.001
O6UA 0.155 0.137 0.124 -0.001 -0.024 0.071
O6H 0.137 0.155 0.124 0.024 0.001 0.071
O6S 0.124 0.155 0.137 0.071 -0.001 -0.024
O6GA 0.137 0.155 0.124 -0.024 0.001 -0.071
O6PA 0.124 0.155 0.137 -0.071 -0.001 0.024
O7U 0.069 0.154 0.139 0.044 -0.022 -0.025
O7Z 0.139 0.154 0.069 -0.025 0.022 -0.044
O7UA 0.069 0.154 0.139 -0.044 -0.022 0.025
O7MA 0.154 0.139 0.069 -0.022 0.025 -0.044
O7F 0.069 0.139 0.154 -0.044 -0.025 0.022
O7L 0.154 0.139 0.069 0.022 0.025 0.044
O7CA 0.069 0.139 0.154 0.044 -0.025 -0.022
O8U 0.107 0.084 0.17 0.022 -0.014 -0.018
O8Z 0.17 0.084 0.107 -0.018 0.014 -0.022
O8UA 0.107 0.084 0.17 -0.022 -0.014 0.018
O8MA 0.084 0.17 0.107 -0.014 0.018 -0.022
O8F 0.107 0.17 0.084 -0.022 -0.018 0.014
O8L 0.084 0.17 0.107 0.014 0.018 0.022
O8CA 0.107 0.17 0.084 0.022 -0.018 -0.014
N1 0.142(10) 0.150(10) 0.134(7) 0.003(8) 0.040(7) 0.029(7)
C17 0.142(10) 0.150(10) 0.134(7) 0.003(8) 0.040(7) 0.029(7)
C18 0.142(10) 0.150(10) 0.134(7) 0.003(8) 0.040(7) 0.029(7)
C19 0.24 1.03 0.27 -0.32 0.15 -0.36
C20 0.24 1.03 0.27 -0.32 0.15 -0.36
N2 0.24 1.03 0.27 -0.32 0.15 -0.36
loop_
_geom_bond_atom_site_label_1
_geom_bond_atom_site_label_2
_geom_bond_site_symmetry_1
_geom_bond_site_symmetry_2
Cd1 O1 1_555 1_555
Cd2 O3 1_555 1_555
C1 C2 1_555 1_555
C2 H1 1_555 1_555
C3 C2 1_555 1_555
H2 C3 1_555 1_555
C4 C3 1_555 1_555
H3 C4 1_555 1_555
C5 C4 1_555 1_555
C6 C1 1_555 1_555
C7 C6 1_555 1_555
C8 C7 1_555 1_555
C9 C8 1_555 1_555
H4 C9 1_555 1_555
C10 C9 1_555 1_555
H5 C10 1_555 1_555
C11 C10 1_555 1_555
H6 C11 1_555 1_555
C12 C7 1_555 1_555
C13 C1 1_555 1_555
C14 C5 1_555 1_555
C15 C8 1_555 1_555
C16 C12 1_555 1_555
O1 C13 1_555 1_555
O2 Cd1 1_555 1_555
O3 C14 1_555 1_555
O4 Cd2 1_555 1_555
O5 C15 1_555 1_555
O6 C15 1_555 1_555
O7 C16 1_555 1_555
O8 C16 1_555 1_555
N1 H7 1_555 1_555
H8 N1 1_555 1_555
C17 N1 1_555 1_555
H9 C17 1_555 1_555
H10 C17 1_555 1_555
H11 C17 1_555 1_555
C18 N1 1_555 1_555
H12 C18 1_555 1_555
H13 C18 1_555 1_555
H14 C18 1_555 1_555
C19 H15 1_555 1_555
H16 C19 1_555 1_555
H17 C19 1_555 1_555
C20 H18 1_555 1_555
H19 C20 1_555 1_555
H20 C20 1_555 1_555
N2 C19 1_555 1_555
H21 N2 1_555 1_555
H22 N2 1_555 1_555
Cd2U O3U 1_555 1_555
Cd2Z O3Z 1_555 1_555
Cd2UA O3UA 1_555 1_555
Cd2D O5 1_555 1_555
Cd2N O7 1_555 1_555
Cd2EA O5Z 1_555 1_555
Cd2KA O5UA 1_555 1_555
C1U C2U 1_555 1_555
C1Z C2Z 1_555 1_555
C1UA C2UA 1_555 1_555
C2U H1U 1_555 1_555
C2Z H1Z 1_555 1_555
C2UA H1UA 1_555 1_555
C3U C2U 1_555 1_555
C3Z C2Z 1_555 1_555
C3UA C2UA 1_555 1_555
H2U C3U 1_555 1_555
H2Z C3Z 1_555 1_555
H2UA C3UA 1_555 1_555
C4U C3U 1_555 1_555
C4Z C3Z 1_555 1_555
C4UA C3UA 1_555 1_555
H3U C4U 1_555 1_555
H3Z C4Z 1_555 1_555
H3UA C4UA 1_555 1_555
C5U C4U 1_555 1_555
C5Z C4Z 1_555 1_555
C5UA C4UA 1_555 1_555
C6U C1U 1_555 1_555
C6Z C1Z 1_555 1_555
C6UA C1UA 1_555 1_555
C7U C6U 1_555 1_555
C7Z C6Z 1_555 1_555
C7UA C6UA 1_555 1_555
C8U C7U 1_555 1_555
C8Z C7Z 1_555 1_555
C8UA C7UA 1_555 1_555
C9U C8U 1_555 1_555
C9Z C8Z 1_555 1_555
C9UA C8UA 1_555 1_555
H4U C9U 1_555 1_555
H4Z C9Z 1_555 1_555
H4UA C9UA 1_555 1_555
C10U C9U 1_555 1_555
C10Z C9Z 1_555 1_555
C10UA C9UA 1_555 1_555
H5U C10U 1_555 1_555
H5Z C10Z 1_555 1_555
H5UA C10UA 1_555 1_555
C11U C10U 1_555 1_555
C11Z C10Z 1_555 1_555
C11UA C10UA 1_555 1_555
H6U C11U 1_555 1_555
H6Z C11Z 1_555 1_555
H6UA C11UA 1_555 1_555
C12U C7U 1_555 1_555
C12Z C7Z 1_555 1_555
C12UA C7UA 1_555 1_555
C13U C1U 1_555 1_555
C13Z C1Z 1_555 1_555
C13UA C1UA 1_555 1_555
C14U C5U 1_555 1_555
C14Z C5Z 1_555 1_555
C14UA C5UA 1_555 1_555
C15U C8U 1_555 1_555
C15Z C8Z 1_555 1_555
C15UA C8UA 1_555 1_555
C16U C12U 1_555 1_555
C16Z C12Z 1_555 1_555
C16UA C12UA 1_555 1_555
O1U Cd1 1_555 1_555
O1Z Cd1 1_555 1_555
O1UA Cd1 1_555 1_555
O2U Cd1 1_555 1_555
O2Z Cd1 1_555 1_555
O2UA Cd1 1_555 1_555
O3U C14U 1_555 1_555
O3Z C14Z 1_555 1_555
O3UA C14UA 1_555 1_555
O4U Cd2U 1_555 1_555
O4Z Cd2Z 1_555 1_555
O4UA Cd2UA 1_555 1_555
O5U Cd2N 1_555 1_555
O5Z C15Z 1_555 1_555
O5UA C15UA 1_555 1_555
O5H Cd2 1_555 1_555
O5S Cd2U 1_555 1_555
O5GA Cd2Z 1_555 1_555
O5PA Cd2UA 1_555 1_555
O6U Cd2N 1_555 1_555
O6Z Cd2EA 1_555 1_555
O6UA Cd2KA 1_555 1_555
O6H Cd2 1_555 1_555
O6S Cd2U 1_555 1_555
O6GA Cd2Z 1_555 1_555
O6PA Cd2UA 1_555 1_555
O7U Cd2EA 1_555 1_555
O7Z Cd2KA 1_555 1_555
O7UA Cd2D 1_555 1_555
O7MA Cd2 1_555 1_555
O7F Cd2U 1_555 1_555
O7L Cd2Z 1_555 1_555
O7CA Cd2UA 1_555 1_555
O8U Cd2EA 1_555 1_555
O8Z Cd2KA 1_555 1_555
O8UA Cd2D 1_555 1_555
O8MA Cd2 1_555 1_555
O8F Cd2U 1_555 1_555
O8L Cd2Z 1_555 1_555
O8CA Cd2UA 1_555 1_555
C5 C6 1_555 1_555
C11 C12 1_555 1_555
C13 O2 1_555 1_555
C14 O4 1_555 1_555
O6 Cd2D 1_555 1_555
O8 Cd2N 1_555 1_555
C20 N2 1_555 1_555
C5U C6U 1_555 1_555
C5Z C6Z 1_555 1_555
C5UA C6UA 1_555 1_555
C11U C12U 1_555 1_555
C11Z C12Z 1_555 1_555
C11UA C12UA 1_555 1_555
C13U O1U 1_555 1_555
C13U O2U 1_555 1_555
C13Z O1Z 1_555 1_555
C13Z O2Z 1_555 1_555
C13UA O1UA 1_555 1_555
C13UA O2UA 1_555 1_555
C14U O4U 1_555 1_555
C14Z O4Z 1_555 1_555
C14UA O4UA 1_555 1_555
C15U O5U 1_555 1_555
C15U O6U 1_555 1_555
C15Z O6Z 1_555 1_555
C15UA O6UA 1_555 1_555
C16U O7U 1_555 1_555
C16U O8U 1_555 1_555
C16Z O7Z 1_555 1_555
C16Z O8Z 1_555 1_555
C16UA O7UA 1_555 1_555
C16UA O8UA 1_555 1_555

#END
