
#######################################################################
#
#                 Cambridge Crystallographic Data Centre
#                                CCDC 
#
#######################################################################
#
# If this CIF has been generated from an entry in the Cambridge 
# Structural Database, then it will include bibliographic, chemical, 
# crystal, experimental, refinement or atomic coordinate data resulting 
# from the CCDC's data processing and validation procedures.
#
#######################################################################

data_CAVMIW
_chemical_formula_moiety         '(C6 H13 Cl2 Fe2 N1 O11)n'
_symmetry_cell_setting           monoclinic
_symmetry_space_group_name_H-M   'C c'
_symmetry_Int_Tables_number      9
_space_group_name_Hall           'C -2yc'
loop_
_symmetry_equiv_pos_site_id
_symmetry_equiv_pos_as_xyz
1 x,y,z
2 x,-y,1/2+z
3 1/2+x,1/2+y,z
4 1/2+x,1/2-y,1/2+z
_cell_length_a                   9.2090(5)
_cell_length_b                   14.7120(8)
_cell_length_c                   12.5178(6)
_cell_angle_alpha                90
_cell_angle_beta                 109.01(3)
_cell_angle_gamma                90
_cell_volume                     1603.45
loop_
_atom_site_label
_atom_site_type_symbol
_atom_site_fract_x
_atom_site_fract_y
_atom_site_fract_z
_atom_site_U_iso_or_equiv
_atom_site_thermal_displace_type
Fe1 Fe -0.04710(7) 0.04238(4) 0.33270(5) 0.0148 Uani
Fe2 Fe -0.16837(6) 0.20033(4) 0.10783(5) 0.0138 Uani
Cl1 Cl 0.00501(16) -0.06245(8) 0.22280(11) 0.0246 Uani
Cl2 Cl -0.01569(14) 0.30327(8) 0.23520(10) 0.0205 Uani
O1 O -0.1950(4) 0.1130(2) 0.2098(3) 0.0144 Uani
H1 H -0.2995 0.1002 0.2006 0.0170 Uiso
O2 O -0.0477(4) 0.1391(2) 0.4533(3) 0.0146 Uani
O3 O 0.1577(4) 0.1089(2) 0.3610(3) 0.0150 Uani
O4 O 0.1133(4) 0.2444(2) 0.5684(3) 0.0173 Uani
O5 O 0.3205(4) 0.2130(2) 0.4755(3) 0.0170 Uani
O6 O -0.2871(4) -0.1087(2) 0.4741(3) 0.0170 Uani
O7 O 0.0195(4) -0.1393(2) 0.5880(3) 0.0153 Uani
O8 O 0.0750(4) -0.0392(2) 0.4776(3) 0.0162 Uani
O9 O -0.2334(4) -0.0160(2) 0.3549(3) 0.0166 Uani
C1 C 0.0757(6) 0.1847(3) 0.4913(4) 0.0150 Uani
C2 C 0.1951(6) 0.1680(3) 0.4380(4) 0.0163 Uani
C3 C -0.1959(6) -0.0674(3) 0.4390(4) 0.0150 Uani
C4 C -0.0181(6) -0.0825(3) 0.5073(4) 0.0158 Uani
Fe2C Fe 0.33163(6) 0.29967(4) 0.60783(5) 0.0138 Uani
Fe2A Fe -0.16837(6) -0.20033(4) 0.60783(5) 0.0138 Uani
O4C O -0.3867(4) 0.2556(2) 0.0684(3) 0.0173 Uani
O5C O -0.1795(4) 0.2870(2) -0.0245(3) 0.0170 Uani
O6A O -0.2871(4) 0.1087(2) -0.0259(3) 0.0170 Uani
O7A O 0.0195(4) 0.1393(2) 0.0880(3) 0.0153 Uani
C5 C 0.4238(6) 0.2096(4) 0.2577(5) 0.0273 Uani
H2 H 0.3498 0.2469 0.2810 0.0330 Uiso
H3 H 0.4355 0.2374 0.1889 0.0330 Uiso
C6 C 0.5809(7) 0.2100(4) 0.3531(5) 0.0382 Uani
H4 H 0.6181 0.2727 0.3684 0.0570 Uiso
H5 H 0.6549 0.1741 0.3297 0.0570 Uiso
H6 H 0.5693 0.1836 0.4218 0.0570 Uiso
N1 N 0.3614(6) 0.1148(3) 0.2308(4) 0.0308 Uani
H7 H 0.2692 0.1169 0.1745 0.0460 Uiso
H8 H 0.3487 0.0895 0.2936 0.0460 Uiso
H9 H 0.4284 0.0806 0.2081 0.0460 Uiso
O10 O -0.6082(4) 0.0385(3) -0.1103(3) 0.0302 Uani
H10 H -0.707(3) 0.063(4) -0.150(5) 0.0600 Uiso
H11 H -0.541(5) 0.085(3) -0.120(6) 0.0600 Uiso
O11 O -0.4723(4) 0.0160(3) 0.1201(3) 0.0253 Uani
H12 H -0.482(7) 0.004(5) 0.192(2) 0.0600 Uiso
H13 H -0.573(3) 0.019(5) 0.067(4) 0.0600 Uiso
loop_
_atom_site_aniso_label
_atom_site_aniso_U_11
_atom_site_aniso_U_22
_atom_site_aniso_U_33
_atom_site_aniso_U_23
_atom_site_aniso_U_13
_atom_site_aniso_U_12
Fe1 0.0196(4) 0.0130(3) 0.0119(3) 0.0007(3) 0.0053(3) -0.0019(3)
Fe2 0.0181 0.0128 0.0117 -0.0001 0.0065 0.0017
Cl1 0.0387(8) 0.0169(6) 0.0199(7) -0.0029(5) 0.0119(6) 0.0022(6)
Cl2 0.0283 0.0159 0.0156 -0.0031 0.0048 -0.0015
O1 0.0096(17) 0.0222(18) 0.0120(16) 0.0013(14) 0.0044(14) 0.0014(14)
O2 0.0191(19) 0.0126(17) 0.0137(17) -0.0014(13) 0.0076(15) -0.0036(15)
O3 0.0172(18) 0.0152(17) 0.0157(17) -0.0012(14) 0.0097(14) -0.0004(14)
O4 0.023(2) 0.0183(18) 0.0143(17) -0.0009(14) 0.0112(15) -0.0028(15)
O5 0.022(2) 0.0178(18) 0.0148(17) -0.0021(14) 0.0111(16) -0.0035(15)
O6 0.024 0.0132 0.0149 -0.0002 0.0077 -0.0026
O7 0.0181 0.0143 0.013 0.0045 0.0042 -0.0011
O8 0.0218 0.015 0.0118 0.0025 0.0056 -0.0032
O9 0.0187 0.015 0.0153 0.0007 0.0045 -0.0022
C1 0.024(3) 0.014(2) 0.007(2) 0.0050(19) 0.005(2) 0.001(2)
C2 0.024(3) 0.013(2) 0.012(3) 0.002(2) 0.006(2) 0.002(2)
C3 0.025 0.008 0.012 -0.0024 0.006 0.001
C4 0.023 0.011 0.009 -0.0015 -0.001 -0.002
Fe2C 0.0181(4) 0.0128(3) 0.0117(3) 0.0001(3) 0.0065(3) -0.0017(3)
Fe2A 0.0181 0.0128 0.0117 0.0001 0.0065 -0.0017
O4C 0.023 0.0183 0.0143 0.0009 0.0112 0.0028
O5C 0.022 0.0178 0.0148 0.0021 0.0111 0.0035
O6A 0.024 0.0132 0.0149 0.0002 0.0077 0.0026
O7A 0.0181 0.0143 0.013 -0.0045 0.0042 0.0011
C5 0.030(3) 0.031(3) 0.024(3) 0.003(2) 0.013(2) 0.000(3)
C6 0.042(4) 0.033(3) 0.042(4) -0.004(3) 0.017(3) 0.004(3)
N1 0.029(3) 0.038(3) 0.030(3) 0.002(2) 0.016(2) -0.002(2)
O10 0.030(2) 0.038(2) 0.022(2) -0.0026(17) 0.0075(17) -0.0117(19)
O11 0.022(2) 0.033(2) 0.023(2) -0.0037(17) 0.0102(16) -0.0031(17)
loop_
_geom_bond_atom_site_label_1
_geom_bond_atom_site_label_2
_geom_bond_site_symmetry_1
_geom_bond_site_symmetry_2
Fe1 Cl1 1_555 1_555
Fe2 Cl2 1_555 1_555
O1 Fe1 1_555 1_555
H1 O1 1_555 1_555
O2 Fe1 1_555 1_555
O3 Fe1 1_555 1_555
O4 C1 1_555 1_555
O5 C2 1_555 1_555
O6 C3 1_555 1_555
O7 C4 1_555 1_555
O8 Fe1 1_555 1_555
O9 Fe1 1_555 1_555
C1 O2 1_555 1_555
C2 O3 1_555 1_555
C3 O9 1_555 1_555
C4 O8 1_555 1_555
C5 H2 1_555 1_555
H3 C5 1_555 1_555
C6 C5 1_555 1_555
H4 C6 1_555 1_555
H5 C6 1_555 1_555
H6 C6 1_555 1_555
N1 C5 1_555 1_555
H7 N1 1_555 1_555
H8 N1 1_555 1_555
H9 N1 1_555 1_555
O10 H10 1_555 1_555
H11 O10 1_555 1_555
O11 H12 1_555 1_555
H13 O11 1_555 1_555
Fe2C O4 1_555 1_555
Fe2A O6 1_555 1_555
O4C Fe2 1_555 1_555
O5C Fe2 1_555 1_555
O6A Fe2 1_555 1_555
O7A Fe2 1_555 1_555
Fe2 O1 1_555 1_555
O5 Fe2C 1_555 1_555
O7 Fe2A 1_555 1_555
C1 C2 1_555 1_555
C3 C4 1_555 1_555

#END
