
#######################################################################
#
#                 Cambridge Crystallographic Data Centre
#                                CCDC 
#
#######################################################################
#
# If this CIF has been generated from an entry in the Cambridge 
# Structural Database, then it will include bibliographic, chemical, 
# crystal, experimental, refinement or atomic coordinate data resulting 
# from the CCDC's data processing and validation procedures.
#
#######################################################################

data_CAYSOL
_chemical_formula_moiety         '(C6 H10 Cl2 Fe2 N1 O10 1-)n'
_symmetry_cell_setting           orthorhombic
_symmetry_space_group_name_H-M   'F d d 2'
_symmetry_Int_Tables_number      43
_space_group_name_Hall           'F 2 -2d'
loop_
_symmetry_equiv_pos_site_id
_symmetry_equiv_pos_as_xyz
1 x,y,z
2 -x,-y,z
3 1/4+x,1/4-y,1/4+z
4 1/4-x,1/4+y,1/4+z
5 x,1/2+y,1/2+z
6 -x,1/2-y,1/2+z
7 1/4+x,3/4-y,3/4+z
8 1/4-x,3/4+y,3/4+z
9 1/2+x,y,1/2+z
10 1/2-x,-y,1/2+z
11 3/4+x,1/4-y,3/4+z
12 3/4-x,1/4+y,3/4+z
13 1/2+x,1/2+y,z
14 1/2-x,1/2-y,z
15 3/4+x,3/4-y,1/4+z
16 3/4-x,3/4+y,1/4+z
_cell_length_a                   14.754(3)
_cell_length_b                   23.596(4)
_cell_length_c                   9.2730(17)
_cell_angle_alpha                90
_cell_angle_beta                 90
_cell_angle_gamma                90
_cell_volume                     3228.26
loop_
_atom_site_label
_atom_site_type_symbol
_atom_site_fract_x
_atom_site_fract_y
_atom_site_fract_z
_atom_site_U_iso_or_equiv
_atom_site_thermal_displace_type
O1 O -0.0478(14) 0.1626(7) -0.718(3) 0.2510 Uiso
Fe1 Fe 0.17543(6) -0.19551(4) 0.66387(11) 0.0293 Uani
Cl1 Cl 0.06554(12) -0.25472(8) 0.5667(3) 0.0498 Uani
O2 O 0.3368(3) -0.12431(19) 0.3585(5) 0.0303 Uani
O3 O 0.3668(3) -0.07192(18) 0.6101(6) 0.0317 Uani
O4 O -0.0176(3) -0.06955(19) 0.7157(5) 0.0307 Uani
O5 O 0.2683(3) -0.13022(19) 0.7175(5) 0.0303 Uani
O6 O 0.2500 -0.2500 0.7376(9) 0.0417 Uani
C3 C 0.0432(4) -0.1091(3) 0.7175(9) 0.0310 Uani
C4 C 0.3104(4) -0.1124(3) 0.6094(8) 0.0287 Uani
Fe1F Fe 0.42543(6) -0.05449(4) 0.41387(11) 0.0293 Uani
Fe1N Fe -0.07457(6) -0.05449(4) 0.91387(11) 0.0293 Uani
Fe1M Fe 0.32457(6) -0.30449(4) 0.66387(11) 0.0293 Uani
Cl1M Cl 0.43446(12) -0.24528(8) 0.5667(3) 0.0498 Uani
O2N O 0.0868(3) -0.12569(19) 0.6085(5) 0.0303 Uani
O2O O 0.4132(3) -0.37431(19) 0.6085(5) 0.0303 Uani
O3N O 0.1168(3) -0.17808(18) 0.8601(6) 0.0317 Uani
O3O O 0.3832(3) -0.32192(18) 0.8601(6) 0.0317 Uani
O4F O 0.2324(3) -0.18045(19) 0.4657(5) 0.0307 Uani
O4G O 0.2676(3) -0.31955(19) 0.4657(5) 0.0307 Uani
O5N O 0.0183(3) -0.11978(19) 0.9675(5) 0.0303 Uani
O5M O 0.2317(3) -0.36978(19) 0.7175(5) 0.0303 Uani
C3F C 0.2932(4) -0.1409(3) 0.4675(9) 0.0310 Uani
C4N C 0.0604(4) -0.1376(3) 0.8594(8) 0.0287 Uani
C1 C -0.068(2) 0.0002(13) -0.554(3) 0.0970 Uiso
C2 C -0.092(4) 0.0260(19) -0.689(5) 0.2100 Uiso
N1 N -0.1277(18) 0.0580(8) -0.805(3) 0.0980 Uiso
loop_
_atom_site_aniso_label
_atom_site_aniso_U_11
_atom_site_aniso_U_22
_atom_site_aniso_U_33
_atom_site_aniso_U_23
_atom_site_aniso_U_13
_atom_site_aniso_U_12
Fe1 0.0183 0.0244 0.0451 0.0014 0.0055 -0.0001
Cl1 0.0301 0.0346 0.0848 -0.008 0.0053 -0.0087
O2 0.023 0.029 0.039 0 0.005 -0.006
O3 0.02 0.027 0.048 -0.009 0.011 -0.006
O4 0.021 0.025 0.046 0 0.006 0.005
O5 0.02 0.029 0.042 0 0.008 0.001
O6 0.041 0.031 0.053 0 0 0.015
C3 0.012 0.026 0.055 0.002 -0.005 -0.007
C4 0.018 0.027 0.041 -0.008 0.005 0.006
Fe1F 0.0183 0.0244 0.0451 -0.0014 0.0055 0.0001
Fe1N 0.0183 0.0244 0.0451 -0.0014 0.0055 0.0001
Fe1M 0.0183 0.0244 0.0451 -0.0014 -0.0055 -0.0001
Cl1M 0.0301 0.0346 0.0848 0.008 -0.0053 -0.0087
O2N 0.023 0.029 0.039 0 0.005 0.006
O2O 0.023 0.029 0.039 0 -0.005 0.006
O3N 0.02 0.027 0.048 0.009 0.011 0.006
O3O 0.02 0.027 0.048 -0.009 -0.011 0.006
O4F 0.021 0.025 0.046 0 0.006 -0.005
O4G 0.021 0.025 0.046 0 -0.006 -0.005
O5N 0.02 0.029 0.042 0 0.008 -0.001
O5M 0.02 0.029 0.042 0 -0.008 0.001
C3F 0.012 0.026 0.055 -0.002 -0.005 0.007
C4N 0.018 0.027 0.041 0.008 0.005 -0.006
loop_
_geom_bond_atom_site_label_1
_geom_bond_atom_site_label_2
_geom_bond_site_symmetry_1
_geom_bond_site_symmetry_2
C1 C2 1_555 1_555
C2 N1 1_555 1_555
Fe1 Cl1 1_555 1_555
O2 Fe1F 1_555 1_555
O3 C4 1_555 1_555
O4 C3 1_555 1_555
O5 Fe1 1_555 1_555
O6 Fe1 1_555 1_555
C3 O2N 1_555 1_555
C4 O5 1_555 1_555
Fe1F O3 1_555 1_555
Fe1N O4 1_555 1_555
Fe1M O6 1_555 1_555
Cl1M Fe1M 1_555 1_555
O2N Fe1 1_555 1_555
O2O Fe1M 1_555 1_555
O3N Fe1 1_555 1_555
O3O Fe1M 1_555 1_555
O4F Fe1 1_555 1_555
O4G Fe1M 1_555 1_555
O5N Fe1N 1_555 1_555
O5M Fe1M 1_555 1_555
C3F O2 1_555 1_555
C4N C3 1_555 1_555
C4 C3F 1_555 1_555
O3N C4N 1_555 1_555
O4F C3F 1_555 1_555
O5N C4N 1_555 1_555

#END
