
#######################################################################
#
#                 Cambridge Crystallographic Data Centre
#                                CCDC 
#
#######################################################################
#
# If this CIF has been generated from an entry in the Cambridge 
# Structural Database, then it will include bibliographic, chemical, 
# crystal, experimental, refinement or atomic coordinate data resulting 
# from the CCDC's data processing and validation procedures.
#
#######################################################################

data_JORVET
_chemical_formula_moiety         '(C123 H92 N20 O32 Zn6)n'
_symmetry_cell_setting           monoclinic
_symmetry_space_group_name_H-M   'C 2/c'
_symmetry_Int_Tables_number      15
_space_group_name_Hall           '-C 2yc'
loop_
_symmetry_equiv_pos_site_id
_symmetry_equiv_pos_as_xyz
1 x,y,z
2 -x,y,1/2-z
3 1/2+x,1/2+y,z
4 1/2-x,1/2+y,1/2-z
5 -x,-y,-z
6 x,-y,1/2+z
7 1/2-x,1/2-y,-z
8 1/2+x,1/2-y,1/2+z
_cell_length_a                   40.431(3)
_cell_length_b                   18.1158(10)
_cell_length_c                   35.3525(18)
_cell_angle_alpha                90
_cell_angle_beta                 123.886(8)
_cell_angle_gamma                90
_cell_volume                     21495.5
loop_
_atom_site_label
_atom_site_type_symbol
_atom_site_fract_x
_atom_site_fract_y
_atom_site_fract_z
_atom_site_U_iso_or_equiv
_atom_site_thermal_displace_type
Zn1 Zn 0.190925(19) 1.06286(4) 0.79454(2) 0.0522 Uani
Zn2 Zn 0.21407(2) 0.70031(4) 1.19432(2) 0.0595 Uani
Zn3 Zn 0.20181(17) 0.8081(4) 0.6887(2) 0.0677 Uani
O1 O 0.21775(11) 1.0563(2) 0.86181(12) 0.0618 Uani
O2 O 0.16233(13) 0.9921(3) 0.83471(14) 0.0824 Uani
O3 O 0.14244(12) 0.9458(3) 0.88663(14) 0.0827 Uani
H1 H 0.1410 0.9542 0.8630 0.1240 Uiso
O4 O 0.21465(13) 0.7323(3) 1.14169(14) 0.0857 Uani
O5 O 0.17444(13) 0.8286(3) 1.12223(13) 0.0830 Uani
O6 O 0.15989(12) 0.9062(3) 1.05351(14) 0.0821 Uani
H2 H 0.1623 0.8968 1.0776 0.1240 Uiso
O7 O 0.15779(13) 0.6766(3) 1.16931(15) 0.0925 Uani
O8 O 0.14905(14) 0.6030(3) 1.11473(17) 0.1138 Uani
O9 O 0.07983(13) 0.5778(3) 1.04471(15) 0.1018 Uani
H3 H 0.1039 0.5729 1.0628 0.1530 Uiso
O10 O -0.13953(15) 0.8052(3) 0.84614(18) 0.1203 Uani
O11 O -0.14662(14) 0.7045(3) 0.87540(19) 0.1155 Uani
O12 O -0.08392(13) 0.6299(3) 0.93304(15) 0.0928 Uani
H4 H -0.1075 0.6415 0.9164 0.1390 Uiso
O13 O 0.14036(11) 1.1507(3) 0.78959(14) 0.0769 Uani
O14 O 0.13324(10) 1.0655(2) 0.74224(12) 0.0589 Uani
O15 O 0.08027(12) 1.2136(2) 0.78195(15) 0.0800 Uani
H5 H 0.1036 1.2084 0.7906 0.1210 Uiso
O16 O 0.20299(19) 0.8625(4) 0.64312(18) 0.0756 Uani
H6 H 0.1985 0.8330 0.6221 0.1130 Uiso
H7 H 0.1852 0.8959 0.6321 0.1130 Uiso
N1 N 0.20715(13) 0.9707(3) 0.77716(15) 0.0639 Uani
N2 N 0.21196(12) 0.8813(3) 0.73724(14) 0.0597 Uani
N3 N 0.24696(12) 0.8809(3) 0.78190(14) 0.0565 Uani
N4 N 0.27019(15) 0.9501(3) 0.84749(18) 0.0859 Uani
H8 H 0.2669 0.9194 0.8648 0.1280 Uiso
H9 H 0.2666 0.9963 0.8530 0.1280 Uiso
N5 N 0.15348(15) 0.9540(3) 0.69951(17) 0.0845 Uani
H10 H 0.1567 0.9690 0.6778 0.1270 Uiso
H11 H 0.1437 0.9909 0.7070 0.1270 Uiso
N6 N 0.21664(13) 1.1460(2) 0.78307(14) 0.0578 Uani
N7 N 0.22577(12) 1.2289(3) 0.74180(14) 0.0588 Uani
N8 N 0.25790(12) 1.2338(3) 0.78918(14) 0.0572 Uani
N9 N 0.27319(14) 1.1754(3) 0.85701(15) 0.0740 Uani
H12 H 0.2983 1.1872 0.8677 0.1110 Uiso
H13 H 0.2720 1.1284 0.8635 0.1110 Uiso
N10 N 0.16874(16) 1.1560(3) 0.70207(17) 0.0950 Uani
H14 H 0.1581 1.1943 0.6832 0.1420 Uiso
H15 H 0.1517 1.1399 0.7087 0.1420 Uiso
H16 H 0.1738 1.1199 0.6889 0.1420 Uiso
C1 C 0.19351(17) 1.0196(3) 0.8673(2) 0.0632 Uani
C2 C 0.18642(17) 0.9643(3) 0.9672(2) 0.0632 Uani
C3 C 0.17723(17) 0.9729(4) 0.9225(2) 0.0669 Uani
C4 C 0.20401(16) 1.0086(3) 0.91468(18) 0.0604 Uani
C5 C 0.24043(18) 1.0321(3) 0.95099(19) 0.0690 Uani
H17 H 0.2586 1.0533 0.9460 0.0820 Uiso
C6 C 0.25034(19) 1.0240(4) 0.9963(2) 0.0732 Uani
C7 C 0.22193(18) 0.9898(3) 1.0038(2) 0.0674 Uani
C8 C 0.2327(2) 0.9905(4) 1.0487(2) 0.0802 Uani
H18 H 0.2143 0.9732 1.0545 0.0960 Uiso
C9 C 0.2684(2) 1.0149(4) 1.0845(2) 0.0939 Uani
H19 H 0.2741 1.0128 1.1138 0.1120 Uiso
C10 C 0.2970(3) 1.0435(4) 1.0774(3) 0.1000 Uani
H20 H 0.3222 1.0574 1.1019 0.1200 Uiso
C11 C 0.2868(2) 1.0503(4) 1.0340(3) 0.0985 Uani
H21 H 0.3045 1.0732 1.0289 0.1180 Uiso
C12 C 0.15634(18) 0.9238(4) 0.9729(2) 0.0717 Uani
H22 H 0.1475 0.9574 0.9870 0.0860 Uiso
H23 H 0.1333 0.9116 0.9429 0.0860 Uiso
C13 C 0.19270(18) 0.7835(4) 1.1139(2) 0.0666 Uani
C14 C 0.17130(15) 0.8534(3) 1.00121(18) 0.0603 Uani
C15 C 0.17323(16) 0.8478(3) 1.04109(19) 0.0629 Uani
C16 C 0.19055(16) 0.7867(3) 1.07139(18) 0.0609 Uani
C17 C 0.20551(15) 0.7281(3) 1.05907(18) 0.0605 Uani
H24 H 0.2179 0.6883 1.0788 0.0720 Uiso
C18 C 0.20193(16) 0.7292(3) 1.01690(19) 0.0586 Uani
C19 C 0.18452(16) 0.7913(3) 0.9878(2) 0.0646 Uani
C20 C 0.18022(18) 0.7893(4) 0.9452(2) 0.0712 Uani
H25 H 0.1687 0.8289 0.9252 0.0850 Uiso
C21 C 0.1934(2) 0.7281(4) 0.9335(2) 0.0795 Uani
H26 H 0.1896 0.7269 0.9050 0.0950 Uiso
C22 C 0.2118(2) 0.6691(4) 0.9624(2) 0.0823 Uani
H27 H 0.2214 0.6296 0.9543 0.0990 Uiso
C23 C 0.21572(18) 0.6700(4) 1.0037(2) 0.0704 Uani
H28 H 0.2279 0.6302 1.0234 0.0850 Uiso
C24 C 0.1351(2) 0.6401(5) 1.1322(2) 0.0948 Uani
C25 C 0.02563(17) 0.6385(3) 1.0395(2) 0.0668 Uani
C26 C 0.06491(17) 0.6232(4) 1.0637(2) 0.0751 Uani
C27 C 0.09228(19) 0.6542(4) 1.1073(2) 0.0767 Uani
C28 C 0.07752(19) 0.6989(4) 1.1244(2) 0.0909 Uani
H29 H 0.0951 0.7215 1.1523 0.1100 Uiso
C29 C 0.0354(2) 0.7139(4) 1.1016(3) 0.0917 Uani
C30 C 0.01063(19) 0.6814(4) 1.0598(2) 0.0794 Uani
C31 C -0.0311(2) 0.6946(4) 1.0370(3) 0.0926 Uani
H30 H -0.0488 0.6748 1.0082 0.1120 Uiso
C32 C -0.0449(2) 0.7357(6) 1.0571(3) 0.1264 Uani
H31 H -0.0722 0.7402 1.0434 0.1520 Uiso
C33 C -0.0196(3) 0.7705(5) 1.0969(4) 0.1297 Uani
H32 H -0.0299 0.8034 1.1080 0.1560 Uiso
C34 C 0.0208(2) 0.7591(6) 1.1215(3) 0.1224 Uani
H33 H 0.0377 0.7802 1.1501 0.1470 Uiso
C35 C -0.00223(18) 0.6126(4) 0.9894(2) 0.0781 Uani
H34 H 0.0130 0.5810 0.9823 0.0940 Uiso
H35 H -0.0232 0.5825 0.9871 0.0940 Uiso
C36 C -0.1250(2) 0.7498(5) 0.8708(3) 0.1029 Uani
C37 C -0.02124(19) 0.6710(4) 0.9541(2) 0.0804 Uani
C38 C -0.06140(19) 0.6803(4) 0.9291(2) 0.0858 Uani
C39 C -0.0806(2) 0.7415(4) 0.8988(3) 0.0959 Uani
C40 C -0.0578(2) 0.7904(5) 0.8936(3) 0.1178 Uani
H36 H -0.0698 0.8308 0.8745 0.1410 Uiso
C41 C -0.0151(2) 0.7803(5) 0.9175(3) 0.1058 Uani
C42 C 0.0021(2) 0.7193(4) 0.9474(3) 0.0917 Uani
C43 C 0.0451(2) 0.7154(5) 0.9714(3) 0.1027 Uani
H37 H 0.0585 0.6757 0.9908 0.1230 Uiso
C44 C 0.0664(3) 0.7684(6) 0.9665(4) 0.1345 Uani
H38 H 0.0941 0.7658 0.9839 0.1610 Uiso
C45 C 0.0478(3) 0.8247(7) 0.9366(4) 0.1427 Uani
H39 H 0.0628 0.8591 0.9328 0.1710 Uiso
C46 C 0.0078(3) 0.8311(6) 0.9123(4) 0.1427 Uani
H40 H -0.0046 0.8701 0.8920 0.1710 Uiso
C47 C 0.11769(17) 1.1131(3) 0.75543(19) 0.0608 Uani
C48 C 0.01598(16) 1.1663(3) 0.7279(2) 0.0637 Uani
C49 C 0.05729(16) 1.1663(4) 0.7474(2) 0.0671 Uani
C50 C 0.07468(15) 1.1176(3) 0.73185(19) 0.0594 Uani
C51 C 0.05062(15) 1.0712(3) 0.69525(18) 0.0626 Uani
H41 H 0.0621 1.0393 0.6851 0.0750 Uiso
C52 C 0.00850(19) 1.0719(4) 0.6731(2) 0.0801 Uani
C53 C -0.00806(18) 1.1213(4) 0.6913(2) 0.0741 Uani
C54 C -0.05148(17) 1.1204(4) 0.6668(2) 0.0794 Uani
H42 H -0.0642 1.1512 0.6760 0.0950 Uiso
C55 C -0.0733(2) 1.0745(5) 0.6305(3) 0.1032 Uani
H43 H -0.1009 1.0747 0.6150 0.1250 Uiso
C56 C -0.0559(2) 1.0286(6) 0.6166(3) 0.1174 Uani
H44 H -0.0719 0.9971 0.5922 0.1410 Uiso
C57 C -0.0169(2) 1.0268(5) 0.6363(2) 0.0963 Uani
H45 H -0.0062 0.9947 0.6252 0.1160 Uiso
C58 C -0.0000 1.2127(6) 0.7500 0.0842 Uani
H46 H -0.0211 1.2442 0.7271 0.1010 Uiso
C59 C 0.18951(15) 0.9339(3) 0.73687(18) 0.0567 Uani
C60 C 0.24306(15) 0.9341(3) 0.80334(17) 0.0577 Uani
C61 C 0.25037(15) 1.1843(3) 0.81060(18) 0.0565 Uani
C62 C 0.20313(16) 1.1772(3) 0.74101(17) 0.0586 Uani
O13A O -0.14036(11) 1.1507(3) 0.71041(14) 0.0769 Uani
O14A O -0.13324(10) 1.0655(2) 0.75776(12) 0.0589 Uani
O15A O -0.08027(12) 1.2136(2) 0.71805(15) 0.0800 Uani
H5A H -0.1036 1.2084 0.7094 0.1210 Uiso
C47A C -0.11769(17) 1.1131(3) 0.74457(19) 0.0608 Uani
C48A C -0.01598(16) 1.1663(3) 0.7721(2) 0.0637 Uani
C49A C -0.05729(16) 1.1663(4) 0.7526(2) 0.0671 Uani
C50A C -0.07468(15) 1.1176(3) 0.76815(19) 0.0594 Uani
C51A C -0.05062(15) 1.0712(3) 0.80475(18) 0.0626 Uani
H41A H -0.0621 1.0393 0.8149 0.0750 Uiso
C52A C -0.00850(19) 1.0719(4) 0.8269(2) 0.0801 Uani
C53A C 0.00806(18) 1.1213(4) 0.8087(2) 0.0741 Uani
C54A C 0.05148(17) 1.1204(4) 0.8332(2) 0.0794 Uani
H42A H 0.0642 1.1512 0.8240 0.0950 Uiso
C55A C 0.0733(2) 1.0745(5) 0.8695(3) 0.1032 Uani
H43A H 0.1009 1.0747 0.8850 0.1250 Uiso
C56A C 0.0559(2) 1.0286(6) 0.8834(3) 0.1174 Uani
H44A H 0.0719 0.9971 0.9078 0.1410 Uiso
C57A C 0.0169(2) 1.0268(5) 0.8637(2) 0.0963 Uani
H45A H 0.0062 0.9947 0.8748 0.1160 Uiso
H46A H 0.0211 1.2442 0.7729 0.1010 Uiso
Zn1A Zn -0.190925(19) 1.06286(4) 0.70546(2) 0.0522 Uani
Zn2A Zn -0.21407(2) 0.70031(4) 0.30568(2) 0.0595 Uani
Zn3A Zn -0.20181(17) 0.8081(4) 0.8113(2) 0.0677 Uani
O1A O -0.21775(11) 1.0563(2) 0.63819(12) 0.0618 Uani
O2A O -0.16233(13) 0.9921(3) 0.66529(14) 0.0824 Uani
O3A O -0.14244(12) 0.9458(3) 0.61337(14) 0.0827 Uani
H1A H -0.1410 0.9542 0.6370 0.1240 Uiso
O4A O -0.21465(13) 0.7323(3) 0.35831(14) 0.0857 Uani
O5A O -0.17444(13) 0.8286(3) 0.37777(13) 0.0830 Uani
O6A O -0.15989(12) 0.9062(3) 0.44649(14) 0.0821 Uani
H2A H -0.1623 0.8968 0.4224 0.1240 Uiso
O7A O -0.15779(13) 0.6766(3) 0.33069(15) 0.0925 Uani
O8A O -0.14905(14) 0.6030(3) 0.38527(17) 0.1138 Uani
O9A O -0.07983(13) 0.5778(3) 0.45529(15) 0.1018 Uani
H3A H -0.1039 0.5729 0.4372 0.1530 Uiso
O10A O 0.13953(15) 0.8052(3) 0.65386(18) 0.1203 Uani
O11A O 0.14662(14) 0.7045(3) 0.62460(19) 0.1155 Uani
O12A O 0.08392(13) 0.6299(3) 0.56696(15) 0.0928 Uani
H4A H 0.1075 0.6415 0.5836 0.1390 Uiso
O16A O -0.20299(19) 0.8625(4) 0.85688(18) 0.0756 Uani
H6A H -0.1985 0.8330 0.8779 0.1130 Uiso
H7A H -0.1852 0.8959 0.8679 0.1130 Uiso
N1A N -0.20715(13) 0.9707(3) 0.72284(15) 0.0639 Uani
N2A N -0.21196(12) 0.8813(3) 0.76276(14) 0.0597 Uani
N3A N -0.24696(12) 0.8809(3) 0.71810(14) 0.0565 Uani
N4A N -0.27019(15) 0.9501(3) 0.65251(18) 0.0859 Uani
H8A H -0.2669 0.9194 0.6352 0.1280 Uiso
H9A H -0.2666 0.9963 0.6470 0.1280 Uiso
N5A N -0.15348(15) 0.9540(3) 0.80049(17) 0.0845 Uani
H10A H -0.1567 0.9690 0.8222 0.1270 Uiso
H11A H -0.1437 0.9909 0.7930 0.1270 Uiso
N6A N -0.21664(13) 1.1460(2) 0.71693(14) 0.0578 Uani
N7A N -0.22577(12) 1.2289(3) 0.75820(14) 0.0588 Uani
N8A N -0.25790(12) 1.2338(3) 0.71082(14) 0.0572 Uani
N9A N -0.27319(14) 1.1754(3) 0.64299(15) 0.0740 Uani
H12A H -0.2983 1.1872 0.6323 0.1110 Uiso
H13A H -0.2720 1.1284 0.6365 0.1110 Uiso
N10A N -0.16874(16) 1.1560(3) 0.79793(17) 0.0950 Uani
H14A H -0.1581 1.1943 0.8168 0.1420 Uiso
H15A H -0.1517 1.1399 0.7913 0.1420 Uiso
H16A H -0.1738 1.1199 0.8111 0.1420 Uiso
C1A C -0.19351(17) 1.0196(3) 0.6327(2) 0.0632 Uani
C2A C -0.18642(17) 0.9643(3) 0.5328(2) 0.0632 Uani
C3A C -0.17723(17) 0.9729(4) 0.5775(2) 0.0669 Uani
C4A C -0.20401(16) 1.0086(3) 0.58532(18) 0.0604 Uani
C5A C -0.24043(18) 1.0321(3) 0.54901(19) 0.0690 Uani
H17A H -0.2586 1.0533 0.5540 0.0820 Uiso
C6A C -0.25034(19) 1.0240(4) 0.5037(2) 0.0732 Uani
C7A C -0.22193(18) 0.9898(3) 0.4962(2) 0.0674 Uani
C8A C -0.2327(2) 0.9905(4) 0.4513(2) 0.0802 Uani
H18A H -0.2143 0.9732 0.4455 0.0960 Uiso
C9A C -0.2684(2) 1.0149(4) 0.4155(2) 0.0939 Uani
H19A H -0.2741 1.0128 0.3862 0.1120 Uiso
C10A C -0.2970(3) 1.0435(4) 0.4226(3) 0.1000 Uani
H20A H -0.3222 1.0574 0.3981 0.1200 Uiso
C11A C -0.2868(2) 1.0503(4) 0.4660(3) 0.0985 Uani
H21A H -0.3045 1.0732 0.4711 0.1180 Uiso
C12A C -0.15634(18) 0.9238(4) 0.5271(2) 0.0717 Uani
H22A H -0.1475 0.9574 0.5130 0.0860 Uiso
H23A H -0.1333 0.9116 0.5571 0.0860 Uiso
C13A C -0.19270(18) 0.7835(4) 0.3861(2) 0.0666 Uani
C14A C -0.17130(15) 0.8534(3) 0.49879(18) 0.0603 Uani
C15A C -0.17323(16) 0.8478(3) 0.45891(19) 0.0629 Uani
C16A C -0.19055(16) 0.7867(3) 0.42861(18) 0.0609 Uani
C17A C -0.20551(15) 0.7281(3) 0.44093(18) 0.0605 Uani
H24A H -0.2179 0.6883 0.4212 0.0720 Uiso
C18A C -0.20193(16) 0.7292(3) 0.48310(19) 0.0586 Uani
C19A C -0.18452(16) 0.7913(3) 0.5122(2) 0.0646 Uani
C20A C -0.18022(18) 0.7893(4) 0.5548(2) 0.0712 Uani
H25A H -0.1687 0.8289 0.5748 0.0850 Uiso
C21A C -0.1934(2) 0.7281(4) 0.5665(2) 0.0795 Uani
H26A H -0.1896 0.7269 0.5950 0.0950 Uiso
C22A C -0.2118(2) 0.6691(4) 0.5376(2) 0.0823 Uani
H27A H -0.2214 0.6296 0.5457 0.0990 Uiso
C23A C -0.21572(18) 0.6700(4) 0.4963(2) 0.0704 Uani
H28A H -0.2279 0.6302 0.4766 0.0850 Uiso
C24A C -0.1351(2) 0.6401(5) 0.3678(2) 0.0948 Uani
C25A C -0.02563(17) 0.6385(3) 0.4605(2) 0.0668 Uani
C26A C -0.06491(17) 0.6232(4) 0.4363(2) 0.0751 Uani
C27A C -0.09228(19) 0.6542(4) 0.3927(2) 0.0767 Uani
C28A C -0.07752(19) 0.6989(4) 0.3756(2) 0.0909 Uani
H29A H -0.0951 0.7215 0.3477 0.1100 Uiso
C29A C -0.0354(2) 0.7139(4) 0.3984(3) 0.0917 Uani
C30A C -0.01063(19) 0.6814(4) 0.4402(2) 0.0794 Uani
C31A C 0.0311(2) 0.6946(4) 0.4630(3) 0.0926 Uani
H30A H 0.0488 0.6748 0.4918 0.1120 Uiso
C32A C 0.0449(2) 0.7357(6) 0.4429(3) 0.1264 Uani
H31A H 0.0722 0.7402 0.4566 0.1520 Uiso
C33A C 0.0196(3) 0.7705(5) 0.4031(4) 0.1297 Uani
H32A H 0.0299 0.8034 0.3920 0.1560 Uiso
C34A C -0.0208(2) 0.7591(6) 0.3785(3) 0.1224 Uani
H33A H -0.0377 0.7802 0.3499 0.1470 Uiso
C35A C 0.00223(18) 0.6126(4) 0.5106(2) 0.0781 Uani
H34A H -0.0130 0.5810 0.5177 0.0940 Uiso
H35A H 0.0232 0.5825 0.5129 0.0940 Uiso
C36A C 0.1250(2) 0.7498(5) 0.6292(3) 0.1029 Uani
C37A C 0.02124(19) 0.6710(4) 0.5459(2) 0.0804 Uani
C38A C 0.06140(19) 0.6803(4) 0.5709(2) 0.0858 Uani
C39A C 0.0806(2) 0.7415(4) 0.6012(3) 0.0959 Uani
C40A C 0.0578(2) 0.7904(5) 0.6064(3) 0.1178 Uani
H36A H 0.0698 0.8308 0.6255 0.1410 Uiso
C41A C 0.0151(2) 0.7803(5) 0.5825(3) 0.1058 Uani
C42A C -0.0021(2) 0.7193(4) 0.5526(3) 0.0917 Uani
C43A C -0.0451(2) 0.7154(5) 0.5286(3) 0.1027 Uani
H37A H -0.0585 0.6757 0.5092 0.1230 Uiso
C44A C -0.0664(3) 0.7684(6) 0.5335(4) 0.1345 Uani
H38A H -0.0941 0.7658 0.5161 0.1610 Uiso
C45A C -0.0478(3) 0.8247(7) 0.5634(4) 0.1427 Uani
H39A H -0.0628 0.8591 0.5672 0.1710 Uiso
C46A C -0.0078(3) 0.8311(6) 0.5877(4) 0.1427 Uani
H40A H 0.0046 0.8701 0.6080 0.1710 Uiso
C59A C -0.18951(15) 0.9339(3) 0.76313(18) 0.0567 Uani
C60A C -0.24306(15) 0.9341(3) 0.69666(17) 0.0577 Uani
C61A C -0.25037(15) 1.1843(3) 0.68940(18) 0.0565 Uani
C62A C -0.20313(16) 1.1772(3) 0.75899(17) 0.0586 Uani
Zn2D Zn -0.21407(2) 1.29969(4) 0.80568(2) 0.0595 Uani
Zn2E Zn 0.21407(2) 1.29969(4) 0.69432(2) 0.0595 Uani
Zn2F Zn 0.28593(2) 0.79969(4) 0.80568(2) 0.0595 Uani
Zn2G Zn -0.28593(2) 0.79969(4) 0.69432(2) 0.0595 Uani
Zn3B Zn -0.29819(17) 1.3081(4) 0.6887(2) 0.0677 Uani
Zn3C Zn 0.29819(17) 1.3081(4) 0.8113(2) 0.0677 Uani
N3F N 0.25304(12) 0.6191(3) 1.21810(14) 0.0565 Uani
N3G N -0.25304(12) 0.6191(3) 0.28190(14) 0.0565 Uani
N7D N -0.22577(12) 0.7711(3) 0.25820(14) 0.0588 Uani
N7E N 0.22577(12) 0.7711(3) 1.24180(14) 0.0588 Uani
N8B N -0.24210(12) 0.7338(3) 0.78918(14) 0.0572 Uani
N8C N 0.24210(12) 0.7338(3) 0.71082(14) 0.0572 Uani
loop_
_atom_site_aniso_label
_atom_site_aniso_U_11
_atom_site_aniso_U_22
_atom_site_aniso_U_33
_atom_site_aniso_U_23
_atom_site_aniso_U_13
_atom_site_aniso_U_12
Zn1 0.0456(4) 0.0596(4) 0.0486(4) 0.0006(3) 0.0245(3) -0.0007(3)
Zn2 0.0501(4) 0.0753(5) 0.0475(4) 0.0012(3) 0.0237(3) 0.0090(4)
Zn3 0.049(2) 0.0807(14) 0.0644(15) -0.0097(10) 0.0261(13) 0.0066(17)
O1 0.062(2) 0.068(3) 0.056(2) 0.0068(18) 0.0333(19) 0.0007(19)
O2 0.082(3) 0.099(4) 0.068(3) 0.008(2) 0.043(3) 0.002(3)
O3 0.068(3) 0.112(4) 0.066(3) 0.011(2) 0.036(2) 0.007(2)
O4 0.077(3) 0.114(4) 0.064(3) 0.008(3) 0.038(2) 0.019(3)
O5 0.079(3) 0.111(4) 0.063(3) 0.006(2) 0.042(2) 0.026(3)
O6 0.079(3) 0.105(4) 0.073(3) 0.015(2) 0.049(2) 0.024(3)
O7 0.061(3) 0.129(4) 0.076(3) -0.001(3) 0.031(2) 0.011(3)
O8 0.073(3) 0.147(5) 0.080(3) -0.017(3) 0.017(3) 0.017(3)
O9 0.064(3) 0.126(4) 0.083(3) -0.021(3) 0.021(2) 0.019(3)
O10 0.079(3) 0.104(4) 0.108(4) 0.017(3) 0.009(3) -0.002(3)
O11 0.071(3) 0.086(4) 0.132(4) 0.022(3) 0.021(3) -0.013(3)
O12 0.063(3) 0.091(3) 0.094(3) 0.017(3) 0.025(2) 0.000(2)
O13 0.054(2) 0.096(3) 0.080(3) -0.009(2) 0.037(2) 0.000(2)
O14 0.048(2) 0.066(2) 0.062(2) -0.0043(19) 0.0303(18) -0.0056(17)
O15 0.058(2) 0.091(3) 0.096(3) -0.016(3) 0.046(2) -0.008(2)
O16 0.090(5) 0.085(5) 0.039(3) 0.006(3) 0.028(3) 0.031(4)
N1 0.058(3) 0.072(3) 0.058(3) -0.001(2) 0.030(2) 0.002(2)
N2 0.048(2) 0.068(3) 0.053(3) -0.002(2) 0.022(2) 0.006(2)
N3 0.046(2) 0.067(3) 0.047(2) 0.004(2) 0.020(2) 0.010(2)
N4 0.082(4) 0.078(4) 0.083(4) -0.007(3) 0.037(3) 0.011(3)
N5 0.069(3) 0.102(4) 0.070(3) 0.008(3) 0.031(3) 0.020(3)
N6 0.057(3) 0.058(3) 0.056(3) -0.004(2) 0.030(2) -0.005(2)
N7 0.047(2) 0.073(3) 0.051(3) -0.002(2) 0.024(2) -0.010(2)
N8 0.045(2) 0.065(3) 0.053(3) -0.001(2) 0.022(2) -0.007(2)
N9 0.059(3) 0.084(4) 0.054(3) 0.006(2) 0.016(2) -0.004(3)
N10 0.089(4) 0.122(5) 0.069(3) -0.006(3) 0.041(3) -0.040(4)
C1 0.060(3) 0.067(4) 0.058(4) -0.001(3) 0.030(3) 0.005(3)
C2 0.065(4) 0.070(4) 0.061(4) 0.004(3) 0.039(3) 0.005(3)
C3 0.060(3) 0.075(4) 0.060(4) 0.009(3) 0.030(3) 0.012(3)
C4 0.062(3) 0.068(4) 0.055(3) 0.005(3) 0.035(3) 0.005(3)
C5 0.072(4) 0.072(4) 0.059(4) -0.003(3) 0.034(3) -0.006(3)
C6 0.078(4) 0.074(4) 0.067(4) -0.004(3) 0.040(3) -0.002(3)
C7 0.078(4) 0.073(4) 0.059(4) 0.004(3) 0.043(3) 0.009(3)
C8 0.089(5) 0.087(5) 0.077(4) -0.007(4) 0.054(4) -0.003(4)
C9 0.116(6) 0.100(6) 0.075(5) -0.017(4) 0.059(5) -0.020(5)
C10 0.114(6) 0.112(7) 0.069(5) -0.014(4) 0.048(4) -0.022(5)
C11 0.116(6) 0.098(6) 0.087(5) -0.009(4) 0.060(5) -0.022(5)
C12 0.069(4) 0.083(5) 0.070(4) 0.006(3) 0.043(3) 0.012(3)
C13 0.062(4) 0.073(4) 0.061(4) 0.010(3) 0.032(3) 0.015(3)
C14 0.051(3) 0.076(4) 0.058(3) 0.002(3) 0.033(3) 0.007(3)
C15 0.058(3) 0.072(4) 0.066(4) 0.001(3) 0.039(3) 0.009(3)
C16 0.051(3) 0.077(4) 0.053(3) 0.000(3) 0.028(3) 0.004(3)
C17 0.053(3) 0.073(4) 0.053(3) 0.003(3) 0.028(3) 0.004(3)
C18 0.057(3) 0.061(4) 0.060(3) 0.000(3) 0.034(3) 0.000(3)
C19 0.055(3) 0.076(4) 0.064(4) 0.000(3) 0.034(3) -0.006(3)
C20 0.073(4) 0.081(5) 0.064(4) 0.001(3) 0.041(3) 0.002(3)
C21 0.090(5) 0.095(5) 0.059(4) -0.011(4) 0.045(4) -0.008(4)
C22 0.081(5) 0.083(5) 0.081(5) -0.014(4) 0.044(4) 0.000(4)
C23 0.071(4) 0.083(4) 0.063(4) -0.002(3) 0.041(3) -0.004(3)
C24 0.068(4) 0.134(7) 0.058(4) -0.022(4) 0.020(3) 0.022(4)
C25 0.055(3) 0.071(4) 0.062(4) -0.001(3) 0.025(3) -0.002(3)
C26 0.057(4) 0.090(5) 0.072(4) -0.001(3) 0.032(3) 0.016(3)
C27 0.065(4) 0.094(5) 0.069(4) 0.000(4) 0.036(3) 0.006(3)
C28 0.061(4) 0.118(6) 0.078(4) -0.016(4) 0.029(3) -0.003(4)
C29 0.067(4) 0.100(6) 0.095(5) -0.013(4) 0.037(4) 0.000(4)
C30 0.064(4) 0.082(5) 0.085(5) -0.004(4) 0.037(4) 0.003(3)
C31 0.068(4) 0.097(6) 0.109(6) -0.025(4) 0.047(4) -0.002(4)
C32 0.061(5) 0.160(9) 0.138(8) -0.043(7) 0.043(5) -0.018(5)
C33 0.103(7) 0.136(8) 0.164(9) -0.048(7) 0.083(7) -0.011(6)
C34 0.077(5) 0.169(9) 0.121(7) -0.044(6) 0.055(5) -0.015(5)
C35 0.057(4) 0.090(5) 0.086(5) 0.007(4) 0.039(3) 0.003(3)
C36 0.069(5) 0.082(5) 0.105(6) 0.035(5) 0.016(4) 0.006(4)
C37 0.060(4) 0.086(5) 0.077(4) 0.005(4) 0.027(3) 0.004(3)
C38 0.063(4) 0.092(5) 0.089(5) 0.015(4) 0.034(4) -0.010(4)
C39 0.074(5) 0.077(5) 0.108(6) 0.014(4) 0.033(4) -0.006(4)
C40 0.083(5) 0.117(7) 0.129(7) 0.041(6) 0.044(5) 0.007(5)
C41 0.085(5) 0.112(7) 0.099(6) 0.014(5) 0.038(5) -0.013(5)
C42 0.069(4) 0.095(6) 0.092(5) 0.007(4) 0.033(4) -0.003(4)
C43 0.086(5) 0.116(7) 0.101(6) 0.017(5) 0.049(5) 0.002(5)
C44 0.077(6) 0.142(9) 0.160(9) 0.012(7) 0.051(6) -0.010(6)
C45 0.113(8) 0.150(10) 0.159(10) 0.016(8) 0.072(8) -0.027(7)
C46 0.090(7) 0.159(10) 0.168(10) 0.032(8) 0.065(7) -0.005(6)
C47 0.063(4) 0.065(4) 0.057(3) -0.009(3) 0.035(3) -0.004(3)
C48 0.047(3) 0.069(4) 0.074(4) 0.001(3) 0.033(3) 0.001(3)
C49 0.053(3) 0.073(4) 0.070(4) -0.004(3) 0.031(3) -0.008(3)
C50 0.044(3) 0.073(4) 0.063(3) 0.002(3) 0.031(3) -0.006(3)
C51 0.050(3) 0.080(4) 0.060(3) -0.002(3) 0.032(3) -0.002(3)
C52 0.065(4) 0.090(5) 0.082(4) 0.001(4) 0.039(4) -0.011(4)
C53 0.061(4) 0.082(5) 0.077(4) 0.005(3) 0.037(3) -0.003(3)
C54 0.054(4) 0.095(5) 0.086(5) 0.010(4) 0.037(3) -0.004(3)
C55 0.065(5) 0.134(8) 0.104(6) -0.005(5) 0.043(5) -0.022(5)
C56 0.079(6) 0.165(9) 0.079(5) -0.022(5) 0.026(4) -0.037(6)
C57 0.077(5) 0.125(7) 0.084(5) -0.017(5) 0.043(4) -0.010(5)
C58 0.058(5) 0.108(8) 0.084(6) 0.000 0.038(5) 0.000
C59 0.050(3) 0.059(4) 0.050(3) -0.007(3) 0.021(3) 0.000(3)
C60 0.042(3) 0.076(4) 0.046(3) 0.005(3) 0.019(2) 0.006(3)
C61 0.049(3) 0.062(4) 0.054(3) 0.005(3) 0.026(3) -0.001(3)
C62 0.056(3) 0.077(4) 0.041(3) 0.003(3) 0.026(3) -0.011(3)
O13A 0.054 0.096 0.08 0.009 0.037 0
O14A 0.048 0.066 0.062 0.0043 0.0303 0.0056
O15A 0.058 0.091 0.096 0.016 0.046 0.008
C47A 0.063 0.065 0.057 0.009 0.035 0.004
C48A 0.047 0.069 0.074 -0.001 0.033 -0.001
C49A 0.053 0.073 0.07 0.004 0.031 0.008
C50A 0.044 0.073 0.063 -0.002 0.031 0.006
C51A 0.05 0.08 0.06 0.002 0.032 0.002
C52A 0.065 0.09 0.082 -0.001 0.039 0.011
C53A 0.061 0.082 0.077 -0.005 0.037 0.003
C54A 0.054 0.095 0.086 -0.01 0.037 0.004
C55A 0.065 0.134 0.104 0.005 0.043 0.022
C56A 0.079 0.165 0.079 0.022 0.026 0.037
C57A 0.077 0.125 0.084 0.017 0.043 0.01
Zn1A 0.0456 0.0596 0.0486 -0.0006 0.0245 0.0007
Zn2A 0.0501 0.0753 0.0475 -0.0012 0.0237 -0.009
Zn3A 0.049 0.0807 0.0644 0.0097 0.0261 -0.0066
O1A 0.062 0.068 0.056 -0.0068 0.0333 -0.0007
O2A 0.082 0.099 0.068 -0.008 0.043 -0.002
O3A 0.068 0.112 0.066 -0.011 0.036 -0.007
O4A 0.077 0.114 0.064 -0.008 0.038 -0.019
O5A 0.079 0.111 0.063 -0.006 0.042 -0.026
O6A 0.079 0.105 0.073 -0.015 0.049 -0.024
O7A 0.061 0.129 0.076 0.001 0.031 -0.011
O8A 0.073 0.147 0.08 0.017 0.017 -0.017
O9A 0.064 0.126 0.083 0.021 0.021 -0.019
O10A 0.079 0.104 0.108 -0.017 0.009 0.002
O11A 0.071 0.086 0.132 -0.022 0.021 0.013
O12A 0.063 0.091 0.094 -0.017 0.025 0
O16A 0.09 0.085 0.039 -0.006 0.028 -0.031
N1A 0.058 0.072 0.058 0.001 0.03 -0.002
N2A 0.048 0.068 0.053 0.002 0.022 -0.006
N3A 0.046 0.067 0.047 -0.004 0.02 -0.01
N4A 0.082 0.078 0.083 0.007 0.037 -0.011
N5A 0.069 0.102 0.07 -0.008 0.031 -0.02
N6A 0.057 0.058 0.056 0.004 0.03 0.005
N7A 0.047 0.073 0.051 0.002 0.024 0.01
N8A 0.045 0.065 0.053 0.001 0.022 0.007
N9A 0.059 0.084 0.054 -0.006 0.016 0.004
N10A 0.089 0.122 0.069 0.006 0.041 0.04
C1A 0.06 0.067 0.058 0.001 0.03 -0.005
C2A 0.065 0.07 0.061 -0.004 0.039 -0.005
C3A 0.06 0.075 0.06 -0.009 0.03 -0.012
C4A 0.062 0.068 0.055 -0.005 0.035 -0.005
C5A 0.072 0.072 0.059 0.003 0.034 0.006
C6A 0.078 0.074 0.067 0.004 0.04 0.002
C7A 0.078 0.073 0.059 -0.004 0.043 -0.009
C8A 0.089 0.087 0.077 0.007 0.054 0.003
C9A 0.116 0.1 0.075 0.017 0.059 0.02
C10A 0.114 0.112 0.069 0.014 0.048 0.022
C11A 0.116 0.098 0.087 0.009 0.06 0.022
C12A 0.069 0.083 0.07 -0.006 0.043 -0.012
C13A 0.062 0.073 0.061 -0.01 0.032 -0.015
C14A 0.051 0.076 0.058 -0.002 0.033 -0.007
C15A 0.058 0.072 0.066 -0.001 0.039 -0.009
C16A 0.051 0.077 0.053 0 0.028 -0.004
C17A 0.053 0.073 0.053 -0.003 0.028 -0.004
C18A 0.057 0.061 0.06 0 0.034 0
C19A 0.055 0.076 0.064 0 0.034 0.006
C20A 0.073 0.081 0.064 -0.001 0.041 -0.002
C21A 0.09 0.095 0.059 0.011 0.045 0.008
C22A 0.081 0.083 0.081 0.014 0.044 0
C23A 0.071 0.083 0.063 0.002 0.041 0.004
C24A 0.068 0.134 0.058 0.022 0.02 -0.022
C25A 0.055 0.071 0.062 0.001 0.025 0.002
C26A 0.057 0.09 0.072 0.001 0.032 -0.016
C27A 0.065 0.094 0.069 0 0.036 -0.006
C28A 0.061 0.118 0.078 0.016 0.029 0.003
C29A 0.067 0.1 0.095 0.013 0.037 0
C30A 0.064 0.082 0.085 0.004 0.037 -0.003
C31A 0.068 0.097 0.109 0.025 0.047 0.002
C32A 0.061 0.16 0.138 0.043 0.043 0.018
C33A 0.103 0.136 0.164 0.048 0.083 0.011
C34A 0.077 0.169 0.121 0.044 0.055 0.015
C35A 0.057 0.09 0.086 -0.007 0.039 -0.003
C36A 0.069 0.082 0.105 -0.035 0.016 -0.006
C37A 0.06 0.086 0.077 -0.005 0.027 -0.004
C38A 0.063 0.092 0.089 -0.015 0.034 0.01
C39A 0.074 0.077 0.108 -0.014 0.033 0.006
C40A 0.083 0.117 0.129 -0.041 0.044 -0.007
C41A 0.085 0.112 0.099 -0.014 0.038 0.013
C42A 0.069 0.095 0.092 -0.007 0.033 0.003
C43A 0.086 0.116 0.101 -0.017 0.049 -0.002
C44A 0.077 0.142 0.16 -0.012 0.051 0.01
C45A 0.113 0.15 0.159 -0.016 0.072 0.027
C46A 0.09 0.159 0.168 -0.032 0.065 0.005
C59A 0.05 0.059 0.05 0.007 0.021 0
C60A 0.042 0.076 0.046 -0.005 0.019 -0.006
C61A 0.049 0.062 0.054 -0.005 0.026 0.001
C62A 0.056 0.077 0.041 -0.003 0.026 0.011
Zn2D 0.0501 0.0753 0.0475 0.0012 0.0237 0.009
Zn2E 0.0501 0.0753 0.0475 -0.0012 0.0237 -0.009
Zn2F 0.0501 0.0753 0.0475 0.0012 0.0237 0.009
Zn2G 0.0501 0.0753 0.0475 -0.0012 0.0237 -0.009
Zn3B 0.049 0.0807 0.0644 -0.0097 0.0261 0.0066
Zn3C 0.049 0.0807 0.0644 0.0097 0.0261 -0.0066
N3F 0.046 0.067 0.047 0.004 0.02 0.01
N3G 0.046 0.067 0.047 -0.004 0.02 -0.01
N7D 0.047 0.073 0.051 -0.002 0.024 -0.01
N7E 0.047 0.073 0.051 0.002 0.024 0.01
N8B 0.045 0.065 0.053 -0.001 0.022 -0.007
N8C 0.045 0.065 0.053 0.001 0.022 0.007
loop_
_geom_bond_atom_site_label_1
_geom_bond_atom_site_label_2
_geom_bond_site_symmetry_1
_geom_bond_site_symmetry_2
Zn1 O1 1_555 1_555
Zn2 O4 1_555 1_555
Zn3 O16 1_555 1_555
O1 C1 1_555 1_555
O2 C1 1_555 1_555
O3 H1 1_555 1_555
O4 C13 1_555 1_555
O5 C13 1_555 1_555
O6 H2 1_555 1_555
O7 Zn2 1_555 1_555
O8 C24 1_555 1_555
O9 H3 1_555 1_555
O10 C36 1_555 1_555
O11 C36 1_555 1_555
O12 H4 1_555 1_555
O13 Zn1 1_555 1_555
O14 Zn1 1_555 1_555
O15 H5 1_555 1_555
O16 H6 1_555 1_555
H7 O16 1_555 1_555
N1 Zn1 1_555 1_555
N2 Zn3 1_555 1_555
N3 N2 1_555 1_555
N4 H8 1_555 1_555
H9 N4 1_555 1_555
N5 H10 1_555 1_555
H11 N5 1_555 1_555
N6 Zn1 1_555 1_555
N7 N8 1_555 1_555
N8 C61 1_555 1_555
N9 H12 1_555 1_555
H13 N9 1_555 1_555
N10 H14 1_555 1_555
H15 N10 1_555 1_555
H16 N10 1_555 1_555
C1 C4 1_555 1_555
C2 C3 1_555 1_555
C3 O3 1_555 1_555
C4 C3 1_555 1_555
C5 C4 1_555 1_555
H17 C5 1_555 1_555
C6 C5 1_555 1_555
C7 C2 1_555 1_555
C8 C7 1_555 1_555
H18 C8 1_555 1_555
C9 C8 1_555 1_555
H19 C9 1_555 1_555
C10 C9 1_555 1_555
H20 C10 1_555 1_555
C11 C6 1_555 1_555
H21 C11 1_555 1_555
C12 C2 1_555 1_555
H22 C12 1_555 1_555
H23 C12 1_555 1_555
C13 C16 1_555 1_555
C14 C12 1_555 1_555
C15 O6 1_555 1_555
C16 C15 1_555 1_555
C17 C16 1_555 1_555
H24 C17 1_555 1_555
C18 C17 1_555 1_555
C19 C14 1_555 1_555
C20 C19 1_555 1_555
H25 C20 1_555 1_555
C21 C20 1_555 1_555
H26 C21 1_555 1_555
C22 C21 1_555 1_555
H27 C22 1_555 1_555
C23 C18 1_555 1_555
H28 C23 1_555 1_555
C24 O7 1_555 1_555
C25 C26 1_555 1_555
C26 O9 1_555 1_555
C27 C24 1_555 1_555
C28 C27 1_555 1_555
H29 C28 1_555 1_555
C29 C28 1_555 1_555
C30 C25 1_555 1_555
C31 C30 1_555 1_555
H30 C31 1_555 1_555
C32 C31 1_555 1_555
H31 C32 1_555 1_555
C33 C32 1_555 1_555
H32 C33 1_555 1_555
C34 C29 1_555 1_555
H33 C34 1_555 1_555
C35 C25 1_555 1_555
H34 C35 1_555 1_555
H35 C35 1_555 1_555
C36 C39 1_555 1_555
C37 C35 1_555 1_555
C38 O12 1_555 1_555
C39 C38 1_555 1_555
C40 C39 1_555 1_555
H36 C40 1_555 1_555
C41 C40 1_555 1_555
C42 C37 1_555 1_555
C43 C42 1_555 1_555
H37 C43 1_555 1_555
C44 C43 1_555 1_555
H38 C44 1_555 1_555
C45 C44 1_555 1_555
H39 C45 1_555 1_555
C46 C41 1_555 1_555
H40 C46 1_555 1_555
C47 O13 1_555 1_555
C48 C49 1_555 1_555
C49 O15 1_555 1_555
C50 C47 1_555 1_555
C51 C50 1_555 1_555
H41 C51 1_555 1_555
C52 C51 1_555 1_555
C53 C48 1_555 1_555
C54 C53 1_555 1_555
H42 C54 1_555 1_555
C55 C54 1_555 1_555
H43 C55 1_555 1_555
C56 C55 1_555 1_555
H44 C56 1_555 1_555
C57 C52 1_555 1_555
H45 C57 1_555 1_555
C58 C48 1_555 1_555
H46 C58 1_555 1_555
C59 N1 1_555 1_555
C60 N1 1_555 1_555
C61 N6 1_555 1_555
C62 N6 1_555 1_555
O13A C47A 1_555 1_555
O14A C47A 1_555 1_555
O15A H5A 1_555 1_555
C47A C50A 1_555 1_555
C48A C58 1_555 1_555
C49A O15A 1_555 1_555
C50A C49A 1_555 1_555
C51A C50A 1_555 1_555
H41A C51A 1_555 1_555
C52A C51A 1_555 1_555
C53A C48A 1_555 1_555
C54A C53A 1_555 1_555
H42A C54A 1_555 1_555
C55A C54A 1_555 1_555
H43A C55A 1_555 1_555
C56A C55A 1_555 1_555
H44A C56A 1_555 1_555
C57A C52A 1_555 1_555
H45A C57A 1_555 1_555
H46A C58 1_555 1_555
Zn1A O13A 1_555 1_555
Zn2A O4A 1_555 1_555
Zn3A O10 1_555 1_555
O1A Zn1A 1_555 1_555
O2A C1A 1_555 1_555
O3A H1A 1_555 1_555
O4A C13A 1_555 1_555
O5A C13A 1_555 1_555
O6A H2A 1_555 1_555
O7A Zn2A 1_555 1_555
O8A C24A 1_555 1_555
O9A H3A 1_555 1_555
O10A Zn3 1_555 1_555
O11A C36A 1_555 1_555
O12A H4A 1_555 1_555
O16A Zn3A 1_555 1_555
H6A O16A 1_555 1_555
H7A O16A 1_555 1_555
N1A Zn1A 1_555 1_555
N2A Zn3A 1_555 1_555
N3A N2A 1_555 1_555
N4A H8A 1_555 1_555
H9A N4A 1_555 1_555
N5A H10A 1_555 1_555
H11A N5A 1_555 1_555
N6A Zn1A 1_555 1_555
N7A N8A 1_555 1_555
N8A C61A 1_555 1_555
N9A H12A 1_555 1_555
H13A N9A 1_555 1_555
N10A H14A 1_555 1_555
H15A N10A 1_555 1_555
H16A N10A 1_555 1_555
C1A O1A 1_555 1_555
C2A C3A 1_555 1_555
C3A O3A 1_555 1_555
C4A C1A 1_555 1_555
C5A C4A 1_555 1_555
H17A C5A 1_555 1_555
C6A C5A 1_555 1_555
C7A C2A 1_555 1_555
C8A C7A 1_555 1_555
H18A C8A 1_555 1_555
C9A C8A 1_555 1_555
H19A C9A 1_555 1_555
C10A C9A 1_555 1_555
H20A C10A 1_555 1_555
C11A C6A 1_555 1_555
H21A C11A 1_555 1_555
C12A C2A 1_555 1_555
H22A C12A 1_555 1_555
H23A C12A 1_555 1_555
C13A C16A 1_555 1_555
C14A C12A 1_555 1_555
C15A O6A 1_555 1_555
C16A C15A 1_555 1_555
C17A C16A 1_555 1_555
H24A C17A 1_555 1_555
C18A C17A 1_555 1_555
C19A C14A 1_555 1_555
C20A C19A 1_555 1_555
H25A C20A 1_555 1_555
C21A C20A 1_555 1_555
H26A C21A 1_555 1_555
C22A C21A 1_555 1_555
H27A C22A 1_555 1_555
C23A C18A 1_555 1_555
H28A C23A 1_555 1_555
C24A O7A 1_555 1_555
C25A C26A 1_555 1_555
C26A O9A 1_555 1_555
C27A C24A 1_555 1_555
C28A C27A 1_555 1_555
H29A C28A 1_555 1_555
C29A C28A 1_555 1_555
C30A C25A 1_555 1_555
C31A C30A 1_555 1_555
H30A C31A 1_555 1_555
C32A C31A 1_555 1_555
H31A C32A 1_555 1_555
C33A C32A 1_555 1_555
H32A C33A 1_555 1_555
C34A C29A 1_555 1_555
H33A C34A 1_555 1_555
C35A C25A 1_555 1_555
H34A C35A 1_555 1_555
H35A C35A 1_555 1_555
C36A O10A 1_555 1_555
C37A C35A 1_555 1_555
C38A O12A 1_555 1_555
C39A C36A 1_555 1_555
C40A C39A 1_555 1_555
H36A C40A 1_555 1_555
C41A C40A 1_555 1_555
C42A C37A 1_555 1_555
C43A C42A 1_555 1_555
H37A C43A 1_555 1_555
C44A C43A 1_555 1_555
H38A C44A 1_555 1_555
C45A C44A 1_555 1_555
H39A C45A 1_555 1_555
C46A C41A 1_555 1_555
H40A C46A 1_555 1_555
C59A N1A 1_555 1_555
C60A N1A 1_555 1_555
C61A N6A 1_555 1_555
C62A N6A 1_555 1_555
Zn2D N7A 1_555 1_555
Zn2E N7 1_555 1_555
Zn2F N3 1_555 1_555
Zn2G N3A 1_555 1_555
Zn3B N8A 1_555 1_555
Zn3C N8 1_555 1_555
N3F Zn2 1_555 1_555
N3G Zn2A 1_555 1_555
N7D Zn2A 1_555 1_555
N7E Zn2 1_555 1_555
N8B Zn3A 1_555 1_555
N8C Zn3 1_555 1_555
O14 C47 1_555 1_555
N2 C59 1_555 1_555
N3 C60 1_555 1_555
N4 C60 1_555 1_555
N5 C59 1_555 1_555
N7 C62 1_555 1_555
N9 C61 1_555 1_555
N10 C62 1_555 1_555
C6 C7 1_555 1_555
C10 C11 1_555 1_555
C14 C15 1_555 1_555
C18 C19 1_555 1_555
C22 C23 1_555 1_555
C26 C27 1_555 1_555
C29 C30 1_555 1_555
C33 C34 1_555 1_555
C37 C38 1_555 1_555
C41 C42 1_555 1_555
C45 C46 1_555 1_555
C49 C50 1_555 1_555
C52 C53 1_555 1_555
C56 C57 1_555 1_555
O14A Zn1A 1_555 1_555
C48A C49A 1_555 1_555
C52A C53A 1_555 1_555
C56A C57A 1_555 1_555
N2A C59A 1_555 1_555
N3A C60A 1_555 1_555
N4A C60A 1_555 1_555
N5A C59A 1_555 1_555
N7A C62A 1_555 1_555
N9A C61A 1_555 1_555
N10A C62A 1_555 1_555
C3A C4A 1_555 1_555
C6A C7A 1_555 1_555
C10A C11A 1_555 1_555
C14A C15A 1_555 1_555
C18A C19A 1_555 1_555
C22A C23A 1_555 1_555
C26A C27A 1_555 1_555
C29A C30A 1_555 1_555
C33A C34A 1_555 1_555
C37A C38A 1_555 1_555
C38A C39A 1_555 1_555
C41A C42A 1_555 1_555
C45A C46A 1_555 1_555

#END
