
#######################################################################
#
#                 Cambridge Crystallographic Data Centre
#                                CCDC 
#
#######################################################################
#
# If this CIF has been generated from an entry in the Cambridge 
# Structural Database, then it will include bibliographic, chemical, 
# crystal, experimental, refinement or atomic coordinate data resulting 
# from the CCDC's data processing and validation procedures.
#
#######################################################################

data_FURRIU
_chemical_formula_moiety         'C84 H60 Ag6 F18 N12 O19'
_symmetry_cell_setting           rhombohedral
_symmetry_space_group_name_H-M   'R -3'
_symmetry_Int_Tables_number      148
_space_group_name_Hall           '-R 3'
loop_
_symmetry_equiv_pos_site_id
_symmetry_equiv_pos_as_xyz
1 x,y,z
2 -y,x-y,z
3 -x+y,-x,z
4 2/3+x,1/3+y,1/3+z
5 2/3-y,1/3+x-y,1/3+z
6 2/3-x+y,1/3-x,1/3+z
7 1/3+x,2/3+y,2/3+z
8 1/3-y,2/3+x-y,2/3+z
9 1/3-x+y,2/3-x,2/3+z
10 -x,-y,-z
11 y,-x+y,-z
12 x-y,x,-z
13 1/3-x,2/3-y,2/3-z
14 1/3+y,2/3-x+y,2/3-z
15 1/3+x-y,2/3+x,2/3-z
16 2/3-x,1/3-y,1/3-z
17 2/3+y,1/3-x+y,1/3-z
18 2/3+x-y,1/3+x,1/3-z
_cell_length_a                   34.6711(11)
_cell_length_b                   34.6711(11)
_cell_length_c                   8.4273(5)
_cell_angle_alpha                90
_cell_angle_beta                 90
_cell_angle_gamma                120
_cell_volume                     8773.13
loop_
_atom_site_label
_atom_site_type_symbol
_atom_site_fract_x
_atom_site_fract_y
_atom_site_fract_z
Ag1 Ag 0.146475(9) 0.317403(9) 0.50825(3)
O1 O 0.33431(7) 0.32790(8) 0.7538(3)
N1 N 0.20503(9) 0.33641(9) 0.6590(3)
N2 N 0.27698(9) 0.19613(9) 0.6070(3)
C1 C 0.21861(11) 0.37150(11) 0.7573(4)
H1 H 0.2018 0.3863 0.7619
C2 C 0.25614(11) 0.38686(11) 0.8520(4)
H2 H 0.2647 0.4116 0.9202
C3 C 0.28093(11) 0.36583(11) 0.8462(4)
H3 H 0.3072 0.3763 0.9083
C4 C 0.26676(10) 0.32891(10) 0.7476(4)
C5 C 0.22857(11) 0.31526(11) 0.6558(4)
H4 H 0.2189 0.2901 0.5885
C6 C 0.29405(11) 0.30658(11) 0.7377(4)
C7 C 0.27114(11) 0.25732(11) 0.7124(4)
C8 C 0.23044(12) 0.22813(12) 0.7813(4)
H5 H 0.2144 0.2390 0.8397
C9 C 0.21370(12) 0.18281(12) 0.7629(5)
H6 H 0.1861 0.1620 0.8101
C10 C 0.23748(12) 0.16826(12) 0.6753(4)
H7 H 0.2255 0.1371 0.6623
C11 C 0.29334(11) 0.23987(11) 0.6269(4)
H8 H 0.3213 0.2599 0.5807
C12 C 0.15050(11) 0.40622(12) 0.4727(5)
O2 O 0.15344(9) 0.38592(9) 0.3564(3)
O3 O 0.14375(10) 0.39522(10) 0.6126(4)
C13 C 0.15785(13) 0.45271(14) 0.4299(5)
F1 F 0.14835(9) 0.47223(8) 0.5484(3)
F2 F 0.13255(10) 0.45103(10) 0.3067(3)
F3 F 0.20024(9) 0.48044(9) 0.3899(4)
Ag1J Ag 0.317403(9) 0.170928(13) 0.49175(3)
O1J O 0.32790(8) -0.00641(11) 0.2462(3)
N1J N 0.33641(9) 0.13138(13) 0.3410(3)
N2J N 0.19613(9) -0.08085(13) 0.3930(3)
C1J C 0.37150(11) 0.15289(16) 0.2427(4)
H1J H 0.3863 0.1845 0.2381
C2J C 0.38686(11) 0.13072(16) 0.1480(4)
H2J H 0.4116 0.1469 0.0798
C3J C 0.36583(11) 0.08490(16) 0.1538(4)
H3J H 0.3763 0.0691 0.0917
C4J C 0.32891(10) 0.06215(14) 0.2524(4)
C5J C 0.31526(11) 0.08669(16) 0.3442(4)
H4J H 0.2901 0.0712 0.4115
C6J C 0.30658(11) 0.01253(16) 0.2623(4)
C7J C 0.25732(11) -0.01382(16) 0.2876(4)
C8J C 0.22813(12) -0.00231(17) 0.2187(4)
H5J H 0.2390 0.0246 0.1603
C9J C 0.18281(12) -0.03089(17) 0.2371(5)
H6J H 0.1620 -0.0241 0.1899
C10J C 0.16826(12) -0.06922(17) 0.3247(4)
H7J H 0.1371 -0.0884 0.3377
C11J C 0.23987(11) -0.05347(16) 0.3731(4)
H8J H 0.2599 -0.0614 0.4193
C12J C 0.40622(12) 0.25572(16) 0.5273(5)
O2J O 0.38592(9) 0.23248(13) 0.6436(3)
O3J O 0.39522(10) 0.25147(14) 0.3874(4)
C13J C 0.45271(14) 0.29486(19) 0.5701(5)
F1J F 0.47223(8) 0.32388(12) 0.4516(3)
F2J F 0.45103(10) 0.31848(14) 0.6933(3)
F3J F 0.48044(9) 0.28020(13) 0.6101(4)
Ag1K Ag -0.170928(13) 0.146475(9) 0.49175(3)
O1K O 0.00641(11) 0.33431(7) 0.2462(3)
N1K N -0.13138(13) 0.20503(9) 0.3410(3)
N2K N 0.08085(13) 0.27698(9) 0.3930(3)
C1K C -0.15289(16) 0.21861(11) 0.2427(4)
H1K H -0.1845 0.2018 0.2381
C2K C -0.13072(16) 0.25614(11) 0.1480(4)
H2K H -0.1469 0.2647 0.0798
C3K C -0.08490(16) 0.28093(11) 0.1538(4)
H3K H -0.0691 0.3072 0.0917
C4K C -0.06215(14) 0.26676(10) 0.2524(4)
C5K C -0.08669(16) 0.22857(11) 0.3442(4)
H4K H -0.0712 0.2189 0.4115
C6K C -0.01253(16) 0.29405(11) 0.2623(4)
C7K C 0.01382(16) 0.27114(11) 0.2876(4)
C8K C 0.00231(17) 0.23044(12) 0.2187(4)
H5K H -0.0246 0.2144 0.1603
C9K C 0.03089(17) 0.21370(12) 0.2371(5)
H6K H 0.0241 0.1861 0.1899
C10K C 0.06922(17) 0.23748(12) 0.3247(4)
H7K H 0.0884 0.2255 0.3377
C11K C 0.05347(16) 0.29334(11) 0.3731(4)
H8K H 0.0614 0.3213 0.4193
C12K C -0.25572(16) 0.15050(11) 0.5273(5)
O2K O -0.23248(13) 0.15344(9) 0.6436(3)
O3K O -0.25147(14) 0.14375(10) 0.3874(4)
C13K C -0.29486(19) 0.15785(13) 0.5701(5)
F1K F -0.32388(12) 0.14835(9) 0.4516(3)
F2K F -0.31848(14) 0.13255(10) 0.6933(3)
F3K F -0.28020(13) 0.20024(9) 0.6101(4)
Ag1A Ag -0.317403(9) -0.170928(13) 0.50825(3)
O1A O -0.32790(8) 0.00641(11) 0.7538(3)
N1A N -0.33641(9) -0.13138(13) 0.6590(3)
N2A N -0.19613(9) 0.08085(13) 0.6070(3)
C1A C -0.37150(11) -0.15289(16) 0.7573(4)
H1A H -0.3863 -0.1845 0.7619
C2A C -0.38686(11) -0.13072(16) 0.8520(4)
H2A H -0.4116 -0.1469 0.9202
C3A C -0.36583(11) -0.08490(16) 0.8462(4)
H3A H -0.3763 -0.0691 0.9083
C4A C -0.32891(10) -0.06215(14) 0.7476(4)
C5A C -0.31526(11) -0.08669(16) 0.6558(4)
H4A H -0.2901 -0.0712 0.5885
C6A C -0.30658(11) -0.01253(16) 0.7377(4)
C7A C -0.25732(11) 0.01382(16) 0.7124(4)
C8A C -0.22813(12) 0.00231(17) 0.7813(4)
H5A H -0.2390 -0.0246 0.8397
C9A C -0.18281(12) 0.03089(17) 0.7629(5)
H6A H -0.1620 0.0241 0.8101
C10A C -0.16826(12) 0.06922(17) 0.6753(4)
H7A H -0.1371 0.0884 0.6623
C11A C -0.23987(11) 0.05347(16) 0.6269(4)
H8A H -0.2599 0.0614 0.5807
C12A C -0.40622(12) -0.25572(16) 0.4727(5)
O2A O -0.38592(9) -0.23248(13) 0.3564(3)
O3A O -0.39522(10) -0.25147(14) 0.6126(4)
C13A C -0.45271(14) -0.29486(19) 0.4299(5)
F1A F -0.47223(8) -0.32388(12) 0.5484(3)
F2A F -0.45103(10) -0.31848(14) 0.3067(3)
F3A F -0.48044(9) -0.28020(13) 0.3899(4)
Ag1B Ag 0.170928(13) -0.146475(9) 0.50825(3)
O1B O -0.00641(11) -0.33431(7) 0.7538(3)
N1B N 0.13138(13) -0.20503(9) 0.6590(3)
N2B N -0.08085(13) -0.27698(9) 0.6070(3)
C1B C 0.15289(16) -0.21861(11) 0.7573(4)
H1B H 0.1845 -0.2018 0.7619
C2B C 0.13072(16) -0.25614(11) 0.8520(4)
H2B H 0.1469 -0.2647 0.9202
C3B C 0.08490(16) -0.28093(11) 0.8462(4)
H3B H 0.0691 -0.3072 0.9083
C4B C 0.06215(14) -0.26676(10) 0.7476(4)
C5B C 0.08669(16) -0.22857(11) 0.6558(4)
H4B H 0.0712 -0.2189 0.5885
C6B C 0.01253(16) -0.29405(11) 0.7377(4)
C7B C -0.01382(16) -0.27114(11) 0.7124(4)
C8B C -0.00231(17) -0.23044(12) 0.7813(4)
H5B H 0.0246 -0.2144 0.8397
C9B C -0.03089(17) -0.21370(12) 0.7629(5)
H6B H -0.0241 -0.1861 0.8101
C10B C -0.06922(17) -0.23748(12) 0.6753(4)
H7B H -0.0884 -0.2255 0.6623
C11B C -0.05347(16) -0.29334(11) 0.6269(4)
H8B H -0.0614 -0.3213 0.5807
C12B C 0.25572(16) -0.15050(11) 0.4727(5)
O2B O 0.23248(13) -0.15344(9) 0.3564(3)
O3B O 0.25147(14) -0.14375(10) 0.6126(4)
C13B C 0.29486(19) -0.15785(13) 0.4299(5)
F1B F 0.32388(12) -0.14835(9) 0.5484(3)
F2B F 0.31848(14) -0.13255(10) 0.3067(3)
F3B F 0.28020(13) -0.20024(9) 0.3899(4)
Ag1I Ag -0.146475(9) -0.317403(9) 0.49175(3)
O1I O -0.33431(7) -0.32790(8) 0.2462(3)
N1I N -0.20503(9) -0.33641(9) 0.3410(3)
N2I N -0.27698(9) -0.19613(9) 0.3930(3)
C1I C -0.21861(11) -0.37150(11) 0.2427(4)
H1I H -0.2018 -0.3863 0.2381
C2I C -0.25614(11) -0.38686(11) 0.1480(4)
H2I H -0.2647 -0.4116 0.0798
C3I C -0.28093(11) -0.36583(11) 0.1538(4)
H3I H -0.3072 -0.3763 0.0917
C4I C -0.26676(10) -0.32891(10) 0.2524(4)
C5I C -0.22857(11) -0.31526(11) 0.3442(4)
H4I H -0.2189 -0.2901 0.4115
C6I C -0.29405(11) -0.30658(11) 0.2623(4)
C7I C -0.27114(11) -0.25732(11) 0.2876(4)
C8I C -0.23044(12) -0.22813(12) 0.2187(4)
H5I H -0.2144 -0.2390 0.1603
C9I C -0.21370(12) -0.18281(12) 0.2371(5)
H6I H -0.1861 -0.1620 0.1899
C10I C -0.23748(12) -0.16826(12) 0.3247(4)
H7I H -0.2255 -0.1371 0.3377
C11I C -0.29334(11) -0.23987(11) 0.3731(4)
H8I H -0.3213 -0.2599 0.4193
C12I C -0.15050(11) -0.40622(12) 0.5273(5)
O2I O -0.15344(9) -0.38592(9) 0.6436(3)
O3I O -0.14375(10) -0.39522(10) 0.3874(4)
C13I C -0.15785(13) -0.45271(14) 0.5701(5)
F1I F -0.14835(9) -0.47223(8) 0.4516(3)
F2I F -0.13255(10) -0.45103(10) 0.6933(3)
F3I F -0.20024(9) -0.48044(9) 0.6101(4)
C14 C 0.0920(2) 0.0511(4) 0.1990(14)
H9 H 0.0929 0.0802 0.1864
C15 C 0.1280(3) 0.0557(5) 0.0882(14)
H10 H 0.1225 0.0256 0.0603
H11 H 0.1264 0.0702 -0.0108
C16 C 0.1734(2) 0.0821(2) 0.1569(9)
H12 H 0.1932 0.0735 0.1016
H13 H 0.1846 0.1139 0.1332
C17 C 0.17781(19) 0.0777(3) 0.3297(7)
H14 H 0.1715 0.0466 0.3480
C18 C 0.1434(3) 0.0830(4) 0.4266(12)
H15 H 0.1464 0.0784 0.5408
H16 H 0.1479 0.1133 0.4124
C19 C 0.0991(4) 0.0495(5) 0.3688(13)
H17 H 0.0942 0.0196 0.3952
H18 H 0.0764 0.0533 0.4265
O4 O 0.0481(3) 0.0201(5) 0.158(2)
H19 H 0.0317 0.0311 0.1744
loop_
_geom_bond_atom_site_label_1
_geom_bond_atom_site_label_2
_geom_bond_site_symmetry_1
_geom_bond_site_symmetry_2
Ag1 N1 1_555 1_555
O1 C6 1_555 1_555
N1 C1 1_555 1_555
N2 C10 1_555 1_555
C1 H1 1_555 1_555
C2 C1 1_555 1_555
H2 C2 1_555 1_555
C3 C2 1_555 1_555
H3 C3 1_555 1_555
C4 C3 1_555 1_555
C5 N1 1_555 1_555
H4 C5 1_555 1_555
C6 C4 1_555 1_555
C7 C6 1_555 1_555
C8 C7 1_555 1_555
H5 C8 1_555 1_555
C9 C8 1_555 1_555
H6 C9 1_555 1_555
C10 C9 1_555 1_555
H7 C10 1_555 1_555
C11 N2 1_555 1_555
H8 C11 1_555 1_555
C12 O2 1_555 1_555
O2 Ag1 1_555 1_555
O3 C12 1_555 1_555
C13 C12 1_555 1_555
F1 C13 1_555 1_555
F2 C13 1_555 1_555
F3 C13 1_555 1_555
C14 H9 1_555 1_555
C15 C14 1_555 1_555
H10 C15 1_555 1_555
H11 C15 1_555 1_555
C16 C15 1_555 1_555
H12 C16 1_555 1_555
H13 C16 1_555 1_555
C17 C16 1_555 1_555
H14 C17 1_555 1_555
C18 C17 1_555 1_555
H15 C18 1_555 1_555
H16 C18 1_555 1_555
C19 C14 1_555 1_555
H17 C19 1_555 1_555
H18 C19 1_555 1_555
O4 C14 1_555 1_555
H19 O4 1_555 1_555
Ag1J N2 1_555 1_555
O1J C6J 1_555 1_555
N1J Ag1J 1_555 1_555
N2J C10J 1_555 1_555
C1J N1J 1_555 1_555
H1J C1J 1_555 1_555
C2J C1J 1_555 1_555
H2J C2J 1_555 1_555
C3J C2J 1_555 1_555
H3J C3J 1_555 1_555
C4J C3J 1_555 1_555
C5J N1J 1_555 1_555
H4J C5J 1_555 1_555
C6J C4J 1_555 1_555
C7J C6J 1_555 1_555
C8J C7J 1_555 1_555
H5J C8J 1_555 1_555
C9J C8J 1_555 1_555
H6J C9J 1_555 1_555
C10J C9J 1_555 1_555
H7J C10J 1_555 1_555
C11J N2J 1_555 1_555
H8J C11J 1_555 1_555
C12J O2J 1_555 1_555
O2J Ag1J 1_555 1_555
O3J C12J 1_555 1_555
C13J C12J 1_555 1_555
F1J C13J 1_555 1_555
F2J C13J 1_555 1_555
F3J C13J 1_555 1_555
Ag1K N1K 1_555 1_555
O1K C6K 1_555 1_555
N1K C1K 1_555 1_555
N2K Ag1 1_555 1_555
C1K H1K 1_555 1_555
C2K C1K 1_555 1_555
H2K C2K 1_555 1_555
C3K C2K 1_555 1_555
H3K C3K 1_555 1_555
C4K C3K 1_555 1_555
C5K N1K 1_555 1_555
H4K C5K 1_555 1_555
C6K C4K 1_555 1_555
C7K C6K 1_555 1_555
C8K C7K 1_555 1_555
H5K C8K 1_555 1_555
C9K C8K 1_555 1_555
H6K C9K 1_555 1_555
C10K N2K 1_555 1_555
H7K C10K 1_555 1_555
C11K N2K 1_555 1_555
H8K C11K 1_555 1_555
C12K O2K 1_555 1_555
O2K Ag1K 1_555 1_555
O3K C12K 1_555 1_555
C13K C12K 1_555 1_555
F1K C13K 1_555 1_555
F2K C13K 1_555 1_555
F3K C13K 1_555 1_555
Ag1A N1A 1_555 1_555
O1A C6A 1_555 1_555
N1A C1A 1_555 1_555
N2A Ag1K 1_555 1_555
C1A H1A 1_555 1_555
C2A C1A 1_555 1_555
H2A C2A 1_555 1_555
C3A C2A 1_555 1_555
H3A C3A 1_555 1_555
C4A C3A 1_555 1_555
C5A N1A 1_555 1_555
H4A C5A 1_555 1_555
C6A C4A 1_555 1_555
C7A C6A 1_555 1_555
C8A C7A 1_555 1_555
H5A C8A 1_555 1_555
C9A C8A 1_555 1_555
H6A C9A 1_555 1_555
C10A N2A 1_555 1_555
H7A C10A 1_555 1_555
C11A N2A 1_555 1_555
H8A C11A 1_555 1_555
C12A O2A 1_555 1_555
O2A Ag1A 1_555 1_555
O3A C12A 1_555 1_555
C13A C12A 1_555 1_555
F1A C13A 1_555 1_555
F2A C13A 1_555 1_555
F3A C13A 1_555 1_555
Ag1B N2J 1_555 1_555
O1B C6B 1_555 1_555
N1B Ag1B 1_555 1_555
N2B C10B 1_555 1_555
C1B N1B 1_555 1_555
H1B C1B 1_555 1_555
C2B C1B 1_555 1_555
H2B C2B 1_555 1_555
C3B C2B 1_555 1_555
H3B C3B 1_555 1_555
C4B C3B 1_555 1_555
C5B N1B 1_555 1_555
H4B C5B 1_555 1_555
C6B C4B 1_555 1_555
C7B C6B 1_555 1_555
C8B C7B 1_555 1_555
H5B C8B 1_555 1_555
C9B C8B 1_555 1_555
H6B C9B 1_555 1_555
C10B C9B 1_555 1_555
H7B C10B 1_555 1_555
C11B N2B 1_555 1_555
H8B C11B 1_555 1_555
C12B O2B 1_555 1_555
O2B Ag1B 1_555 1_555
O3B C12B 1_555 1_555
C13B C12B 1_555 1_555
F1B C13B 1_555 1_555
F2B C13B 1_555 1_555
F3B C13B 1_555 1_555
Ag1I N2B 1_555 1_555
O1I C6I 1_555 1_555
N1I Ag1I 1_555 1_555
N2I Ag1A 1_555 1_555
C1I N1I 1_555 1_555
H1I C1I 1_555 1_555
C2I C1I 1_555 1_555
H2I C2I 1_555 1_555
C3I C2I 1_555 1_555
H3I C3I 1_555 1_555
C4I C3I 1_555 1_555
C5I N1I 1_555 1_555
H4I C5I 1_555 1_555
C6I C4I 1_555 1_555
C7I C6I 1_555 1_555
C8I C7I 1_555 1_555
H5I C8I 1_555 1_555
C9I C8I 1_555 1_555
H6I C9I 1_555 1_555
C10I N2I 1_555 1_555
H7I C10I 1_555 1_555
C11I N2I 1_555 1_555
H8I C11I 1_555 1_555
C12I O2I 1_555 1_555
O2I Ag1I 1_555 1_555
O3I C12I 1_555 1_555
C13I C12I 1_555 1_555
F1I C13I 1_555 1_555
F2I C13I 1_555 1_555
F3I C13I 1_555 1_555
C4 C5 1_555 1_555
C7 C11 1_555 1_555
C18 C19 1_555 1_555
C4J C5J 1_555 1_555
C7J C11J 1_555 1_555
C4K C5K 1_555 1_555
C7K C11K 1_555 1_555
C9K C10K 1_555 1_555
C4A C5A 1_555 1_555
C7A C11A 1_555 1_555
C9A C10A 1_555 1_555
C4B C5B 1_555 1_555
C7B C11B 1_555 1_555
C4I C5I 1_555 1_555
C7I C11I 1_555 1_555
C9I C10I 1_555 1_555

#END
