
#######################################################################
#
#                 Cambridge Crystallographic Data Centre
#                                CCDC 
#
#######################################################################
#
# If this CIF has been generated from an entry in the Cambridge 
# Structural Database, then it will include bibliographic, chemical, 
# crystal, experimental, refinement or atomic coordinate data resulting 
# from the CCDC's data processing and validation procedures.
#
#######################################################################

data_FURROA
_chemical_formula_moiety         'C79 H48 Ag6 Cl4 F18 N12 O18'
_symmetry_cell_setting           rhombohedral
_symmetry_space_group_name_H-M   'R -3'
_symmetry_Int_Tables_number      148
_space_group_name_Hall           '-R 3'
loop_
_symmetry_equiv_pos_site_id
_symmetry_equiv_pos_as_xyz
1 x,y,z
2 -y,x-y,z
3 -x+y,-x,z
4 2/3+x,1/3+y,1/3+z
5 2/3-y,1/3+x-y,1/3+z
6 2/3-x+y,1/3-x,1/3+z
7 1/3+x,2/3+y,2/3+z
8 1/3-y,2/3+x-y,2/3+z
9 1/3-x+y,2/3-x,2/3+z
10 -x,-y,-z
11 y,-x+y,-z
12 x-y,x,-z
13 1/3-x,2/3-y,2/3-z
14 1/3+y,2/3-x+y,2/3-z
15 1/3+x-y,2/3+x,2/3-z
16 2/3-x,1/3-y,1/3-z
17 2/3+y,1/3-x+y,1/3-z
18 2/3+x-y,1/3+x,1/3-z
_cell_length_a                   34.638(3)
_cell_length_b                   34.638(3)
_cell_length_c                   8.3954(12)
_cell_angle_alpha                90
_cell_angle_beta                 90
_cell_angle_gamma                120
_cell_volume                     8723.24
loop_
_atom_site_label
_atom_site_type_symbol
_atom_site_fract_x
_atom_site_fract_y
_atom_site_fract_z
_atom_site_U_iso_or_equiv
_atom_site_thermal_displace_type
C14 C 0.1573(3) 0.0688(3) 0.2865(10) 0.0950 Uiso
Cl1 Cl 0.1592(4) 0.0804(5) 0.0788(9) 0.1226 Uani
Cl2 Cl 0.2118(2) 0.0832(2) 0.3517(8) 0.0910 Uani
Cl3 Cl 0.1417(3) 0.1043(3) 0.3864(11) 0.1328 Uani
Cl4 Cl 0.1177(3) 0.0122(3) 0.3300(15) 0.1407 Uani
C1 C -0.1511(3) -0.4058(3) 0.5337(10) 0.0417 Uani
O1 O -0.1563(3) -0.3871(2) 0.6498(7) 0.0557 Uani
O2 O -0.1399(2) -0.3924(2) 0.3978(7) 0.0549 Uani
C2 C -0.1602(3) -0.4535(4) 0.5699(10) 0.0489 Uani
F1 F -0.1517(2) -0.4730(2) 0.4517(7) 0.0622 Uani
F2 F -0.1367(2) -0.4538(2) 0.6962(7) 0.0732 Uani
F3 F -0.2036(2) -0.4807(2) 0.6084(8) 0.0733 Uani
Ag1 Ag -0.14316(4) -0.31755(2) 0.49030(8) 0.0443 Uani
O3 O -0.3355(2) -0.3354(2) 0.2858(7) 0.0456 Uani
N1 N -0.2035(2) -0.3386(2) 0.3450(7) 0.0342 Uani
N2 N -0.2782(3) -0.2009(2) 0.3980(7) 0.0392 Uani
C3 C -0.2173(3) -0.3739(3) 0.2490(8) 0.0332 Uani
H1 H -0.1998 -0.3880 0.2417 0.0400 Uiso
C4 C -0.2559(3) -0.3906(3) 0.1597(10) 0.0383 Uani
H2 H -0.2645 -0.4154 0.0915 0.0460 Uiso
C5 C -0.2817(3) -0.3710(3) 0.1704(9) 0.0326 Uani
H3 H -0.3088 -0.3825 0.1129 0.0390 Uiso
C6 C -0.2672(3) -0.3338(3) 0.2674(8) 0.0290 Uani
C7 C -0.2280(3) -0.3188(3) 0.3509(8) 0.0297 Uani
H4 H -0.2179 -0.2931 0.4160 0.0350 Uiso
C8 C -0.2953(3) -0.3125(3) 0.2863(8) 0.0330 Uani
C9 C -0.2733(3) -0.2633(3) 0.2989(8) 0.0334 Uani
C10 C -0.2343(3) -0.2349(3) 0.2187(9) 0.0396 Uani
H5 H -0.2186 -0.2461 0.1595 0.0480 Uiso
C11 C -0.2190(3) -0.1898(3) 0.2274(10) 0.0467 Uani
H6 H -0.1933 -0.1696 0.1685 0.0560 Uiso
C12 C -0.2403(3) -0.1738(3) 0.3199(10) 0.0454 Uani
H7 H -0.2280 -0.1425 0.3292 0.0540 Uiso
C13 C -0.2941(3) -0.2443(3) 0.3866(9) 0.0354 Uani
H8 H -0.3210 -0.2637 0.4408 0.0430 Uiso
C1J C -0.4058(3) -0.2547(4) 0.4663(10) 0.0417 Uani
O1J O -0.3871(2) -0.2308(4) 0.3502(7) 0.0557 Uani
O2J O -0.3924(2) -0.2525(3) 0.6022(7) 0.0549 Uani
C2J C -0.4535(4) -0.2933(5) 0.4301(10) 0.0489 Uani
F1J F -0.4730(2) -0.3213(3) 0.5483(7) 0.0622 Uani
F2J F -0.4538(2) -0.3171(3) 0.3038(7) 0.0732 Uani
F3J F -0.4807(2) -0.2771(3) 0.3916(8) 0.0733 Uani
Ag1J Ag -0.31755(2) -0.17439(4) 0.50970(8) 0.0443 Uani
O3J O -0.3354(2) 0.0001(3) 0.7142(7) 0.0456 Uani
N1J N -0.3386(2) -0.1351(3) 0.6550(7) 0.0342 Uani
N2J N -0.2009(2) 0.0773(4) 0.6020(7) 0.0392 Uani
C3J C -0.3739(3) -0.1566(4) 0.7510(8) 0.0332 Uani
H1J H -0.3880 -0.1882 0.7583 0.0400 Uiso
C4J C -0.3906(3) -0.1347(4) 0.8403(10) 0.0383 Uani
H2J H -0.4154 -0.1509 0.9085 0.0460 Uiso
C5J C -0.3710(3) -0.0893(4) 0.8296(9) 0.0326 Uani
H3J H -0.3825 -0.0737 0.8871 0.0390 Uiso
C6J C -0.3338(3) -0.0666(4) 0.7326(8) 0.0290 Uani
C7J C -0.3188(3) -0.0908(4) 0.6491(8) 0.0297 Uani
H4J H -0.2931 -0.0752 0.5840 0.0350 Uiso
C8J C -0.3125(3) -0.0172(4) 0.7137(8) 0.0330 Uani
C9J C -0.2633(3) 0.0100(4) 0.7011(8) 0.0334 Uani
C10J C -0.2349(3) -0.0006(4) 0.7813(9) 0.0396 Uani
H5J H -0.2461 -0.0275 0.8405 0.0480 Uiso
C11J C -0.1898(3) 0.0292(4) 0.7726(10) 0.0467 Uani
H6J H -0.1696 0.0237 0.8315 0.0560 Uiso
C12J C -0.1738(3) 0.0665(4) 0.6801(10) 0.0454 Uani
H7J H -0.1425 0.0855 0.6708 0.0540 Uiso
C13J C -0.2443(3) 0.0498(4) 0.6134(9) 0.0354 Uani
H8J H -0.2637 0.0573 0.5592 0.0430 Uiso
C1K C 0.2547(4) -0.1511(3) 0.4663(10) 0.0417 Uani
O1K O 0.2308(4) -0.1563(3) 0.3502(7) 0.0557 Uani
O2K O 0.2525(3) -0.1399(2) 0.6022(7) 0.0549 Uani
C2K C 0.2933(5) -0.1602(3) 0.4301(10) 0.0489 Uani
F1K F 0.3213(3) -0.1517(2) 0.5483(7) 0.0622 Uani
F2K F 0.3171(3) -0.1367(2) 0.3038(7) 0.0732 Uani
F3K F 0.2771(3) -0.2036(2) 0.3916(8) 0.0733 Uani
Ag1K Ag 0.17439(4) -0.14316(4) 0.50970(8) 0.0443 Uani
O3K O -0.0001(3) -0.3355(2) 0.7142(7) 0.0456 Uani
N1K N 0.1351(3) -0.2035(2) 0.6550(7) 0.0342 Uani
N2K N -0.0773(4) -0.2782(3) 0.6020(7) 0.0392 Uani
C3K C 0.1566(4) -0.2173(3) 0.7510(8) 0.0332 Uani
H1K H 0.1882 -0.1998 0.7583 0.0400 Uiso
C4K C 0.1347(4) -0.2559(3) 0.8403(10) 0.0383 Uani
H2K H 0.1509 -0.2645 0.9085 0.0460 Uiso
C5K C 0.0893(4) -0.2817(3) 0.8296(9) 0.0326 Uani
H3K H 0.0737 -0.3088 0.8871 0.0390 Uiso
C6K C 0.0666(4) -0.2672(3) 0.7326(8) 0.0290 Uani
C7K C 0.0908(4) -0.2280(3) 0.6491(8) 0.0297 Uani
H4K H 0.0752 -0.2179 0.5840 0.0350 Uiso
C8K C 0.0172(4) -0.2953(3) 0.7137(8) 0.0330 Uani
C9K C -0.0100(4) -0.2733(3) 0.7011(8) 0.0334 Uani
C10K C 0.0006(4) -0.2343(3) 0.7813(9) 0.0396 Uani
H5K H 0.0275 -0.2186 0.8405 0.0480 Uiso
C11K C -0.0292(4) -0.2190(3) 0.7726(10) 0.0467 Uani
H6K H -0.0237 -0.1933 0.8315 0.0560 Uiso
C12K C -0.0665(4) -0.2403(3) 0.6801(10) 0.0454 Uani
H7K H -0.0855 -0.2280 0.6708 0.0540 Uiso
C13K C -0.0498(4) -0.2941(3) 0.6134(9) 0.0354 Uani
H8K H -0.0573 -0.3210 0.5592 0.0430 Uiso
C1A C 0.4058(3) 0.2547(4) 0.5337(10) 0.0417 Uani
O1A O 0.3871(2) 0.2308(4) 0.6498(7) 0.0557 Uani
O2A O 0.3924(2) 0.2525(3) 0.3978(7) 0.0549 Uani
C2A C 0.4535(4) 0.2933(5) 0.5699(10) 0.0489 Uani
F1A F 0.4730(2) 0.3213(3) 0.4517(7) 0.0622 Uani
F2A F 0.4538(2) 0.3171(3) 0.6962(7) 0.0732 Uani
F3A F 0.4807(2) 0.2771(3) 0.6084(8) 0.0733 Uani
Ag1A Ag 0.31755(2) 0.17439(4) 0.49030(8) 0.0443 Uani
O3A O 0.3354(2) -0.0001(3) 0.2858(7) 0.0456 Uani
N1A N 0.3386(2) 0.1351(3) 0.3450(7) 0.0342 Uani
N2A N 0.2009(2) -0.0773(4) 0.3980(7) 0.0392 Uani
C3A C 0.3739(3) 0.1566(4) 0.2490(8) 0.0332 Uani
H1A H 0.3880 0.1882 0.2417 0.0400 Uiso
C4A C 0.3906(3) 0.1347(4) 0.1597(10) 0.0383 Uani
H2A H 0.4154 0.1509 0.0915 0.0460 Uiso
C5A C 0.3710(3) 0.0893(4) 0.1704(9) 0.0326 Uani
H3A H 0.3825 0.0737 0.1129 0.0390 Uiso
C6A C 0.3338(3) 0.0666(4) 0.2674(8) 0.0290 Uani
C7A C 0.3188(3) 0.0908(4) 0.3509(8) 0.0297 Uani
H4A H 0.2931 0.0752 0.4160 0.0350 Uiso
C8A C 0.3125(3) 0.0172(4) 0.2863(8) 0.0330 Uani
C9A C 0.2633(3) -0.0100(4) 0.2989(8) 0.0334 Uani
C10A C 0.2349(3) 0.0006(4) 0.2187(9) 0.0396 Uani
H5A H 0.2461 0.0275 0.1595 0.0480 Uiso
C11A C 0.1898(3) -0.0292(4) 0.2274(10) 0.0467 Uani
H6A H 0.1696 -0.0237 0.1685 0.0560 Uiso
C12A C 0.1738(3) -0.0665(4) 0.3199(10) 0.0454 Uani
H7A H 0.1425 -0.0855 0.3292 0.0540 Uiso
C13A C 0.2443(3) -0.0498(4) 0.3866(9) 0.0354 Uani
H8A H 0.2637 -0.0573 0.4408 0.0430 Uiso
C1B C -0.2547(4) 0.1511(3) 0.5337(10) 0.0417 Uani
O1B O -0.2308(4) 0.1563(3) 0.6498(7) 0.0557 Uani
O2B O -0.2525(3) 0.1399(2) 0.3978(7) 0.0549 Uani
C2B C -0.2933(5) 0.1602(3) 0.5699(10) 0.0489 Uani
F1B F -0.3213(3) 0.1517(2) 0.4517(7) 0.0622 Uani
F2B F -0.3171(3) 0.1367(2) 0.6962(7) 0.0732 Uani
F3B F -0.2771(3) 0.2036(2) 0.6084(8) 0.0733 Uani
Ag1B Ag -0.17439(4) 0.14316(4) 0.49030(8) 0.0443 Uani
O3B O 0.0001(3) 0.3355(2) 0.2858(7) 0.0456 Uani
N1B N -0.1351(3) 0.2035(2) 0.3450(7) 0.0342 Uani
N2B N 0.0773(4) 0.2782(3) 0.3980(7) 0.0392 Uani
C3B C -0.1566(4) 0.2173(3) 0.2490(8) 0.0332 Uani
H1B H -0.1882 0.1998 0.2417 0.0400 Uiso
C4B C -0.1347(4) 0.2559(3) 0.1597(10) 0.0383 Uani
H2B H -0.1509 0.2645 0.0915 0.0460 Uiso
C5B C -0.0893(4) 0.2817(3) 0.1704(9) 0.0326 Uani
H3B H -0.0737 0.3088 0.1129 0.0390 Uiso
C6B C -0.0666(4) 0.2672(3) 0.2674(8) 0.0290 Uani
C7B C -0.0908(4) 0.2280(3) 0.3509(8) 0.0297 Uani
H4B H -0.0752 0.2179 0.4160 0.0350 Uiso
C8B C -0.0172(4) 0.2953(3) 0.2863(8) 0.0330 Uani
C9B C 0.0100(4) 0.2733(3) 0.2989(8) 0.0334 Uani
C10B C -0.0006(4) 0.2343(3) 0.2187(9) 0.0396 Uani
H5B H -0.0275 0.2186 0.1595 0.0480 Uiso
C11B C 0.0292(4) 0.2190(3) 0.2274(10) 0.0467 Uani
H6B H 0.0237 0.1933 0.1685 0.0560 Uiso
C12B C 0.0665(4) 0.2403(3) 0.3199(10) 0.0454 Uani
H7B H 0.0855 0.2280 0.3292 0.0540 Uiso
C13B C 0.0498(4) 0.2941(3) 0.3866(9) 0.0354 Uani
H8B H 0.0573 0.3210 0.4408 0.0430 Uiso
C1I C 0.1511(3) 0.4058(3) 0.4663(10) 0.0417 Uani
O1I O 0.1563(3) 0.3871(2) 0.3502(7) 0.0557 Uani
O2I O 0.1399(2) 0.3924(2) 0.6022(7) 0.0549 Uani
C2I C 0.1602(3) 0.4535(4) 0.4301(10) 0.0489 Uani
F1I F 0.1517(2) 0.4730(2) 0.5483(7) 0.0622 Uani
F2I F 0.1367(2) 0.4538(2) 0.3038(7) 0.0732 Uani
F3I F 0.2036(2) 0.4807(2) 0.3916(8) 0.0733 Uani
Ag1I Ag 0.14316(4) 0.31755(2) 0.50970(8) 0.0443 Uani
O3I O 0.3355(2) 0.3354(2) 0.7142(7) 0.0456 Uani
N1I N 0.2035(2) 0.3386(2) 0.6550(7) 0.0342 Uani
N2I N 0.2782(3) 0.2009(2) 0.6020(7) 0.0392 Uani
C3I C 0.2173(3) 0.3739(3) 0.7510(8) 0.0332 Uani
H1I H 0.1998 0.3880 0.7583 0.0400 Uiso
C4I C 0.2559(3) 0.3906(3) 0.8403(10) 0.0383 Uani
H2I H 0.2645 0.4154 0.9085 0.0460 Uiso
C5I C 0.2817(3) 0.3710(3) 0.8296(9) 0.0326 Uani
H3I H 0.3088 0.3825 0.8871 0.0390 Uiso
C6I C 0.2672(3) 0.3338(3) 0.7326(8) 0.0290 Uani
C7I C 0.2280(3) 0.3188(3) 0.6491(8) 0.0297 Uani
H4I H 0.2179 0.2931 0.5840 0.0350 Uiso
C8I C 0.2953(3) 0.3125(3) 0.7137(8) 0.0330 Uani
C9I C 0.2733(3) 0.2633(3) 0.7011(8) 0.0334 Uani
C10I C 0.2343(3) 0.2349(3) 0.7813(9) 0.0396 Uani
H5I H 0.2186 0.2461 0.8405 0.0480 Uiso
C11I C 0.2190(3) 0.1898(3) 0.7726(10) 0.0467 Uani
H6I H 0.1933 0.1696 0.8315 0.0560 Uiso
C12I C 0.2403(3) 0.1738(3) 0.6801(10) 0.0454 Uani
H7I H 0.2280 0.1425 0.6708 0.0540 Uiso
C13I C 0.2941(3) 0.2443(3) 0.6134(9) 0.0354 Uani
H8I H 0.3210 0.2637 0.5592 0.0430 Uiso
loop_
_atom_site_aniso_label
_atom_site_aniso_U_11
_atom_site_aniso_U_22
_atom_site_aniso_U_33
_atom_site_aniso_U_23
_atom_site_aniso_U_13
_atom_site_aniso_U_12
Cl1 0.127(7) 0.186(10) 0.061(4) -0.027(5) 0.006(4) 0.083(7)
Cl2 0.132(6) 0.085(5) 0.073(4) 0.023(3) 0.016(4) 0.067(5)
Cl3 0.178(9) 0.120(7) 0.137(7) -0.013(6) 0.046(6) 0.102(7)
Cl4 0.124(7) 0.093(6) 0.210(10) 0.038(6) 0.079(7) 0.058(6)
C1 0.032 0.068 0.033 -0.011 -0.005 0.031
O1 0.054 0.075 0.043 -0.018 0 0.036
O2 0.076 0.067 0.038 0 0.011 0.048
C2 0.04 0.074 0.036 0.003 0.009 0.031
F1 0.07 0.066 0.056 -0.003 0.018 0.038
F2 0.081 0.105 0.053 0.019 0.007 0.061
F3 0.056 0.077 0.076 0.01 0.024 0.025
Ag1 0.0342 0.0666 0.0348 -0.0075 -0.0052 0.0272
O3 0.033 0.056 0.046 -0.018 -0.003 0.021
N1 0.031 0.041 0.032 -0.003 -0.005 0.019
N2 0.059 0.047 0.027 0.006 0.005 0.038
C3 0.04 0.042 0.025 -0.005 0.001 0.026
C4 0.043 0.038 0.035 -0.009 -0.005 0.021
C5 0.036 0.032 0.027 -0.001 -0.002 0.015
C6 0.03 0.031 0.023 0.003 0.007 0.013
C7 0.033 0.034 0.025 0 0.004 0.019
C8 0.036 0.044 0.019 -0.003 -0.002 0.02
C9 0.046 0.047 0.019 0.001 -0.002 0.032
C10 0.052 0.042 0.028 0.003 0.008 0.026
C11 0.06 0.046 0.036 0.013 0.015 0.028
C12 0.062 0.04 0.035 0.004 0.007 0.026
C13 0.041 0.048 0.025 0.005 0.001 0.028
C1J 0.068 0.038 0.033 0.006 0.011 0.037
O1J 0.075 0.057 0.043 0.018 0.018 0.039
O2J 0.067 0.047 0.038 0.011 0 0.019
C2J 0.074 0.052 0.036 0.006 -0.003 0.043
F1J 0.066 0.06 0.056 0.021 0.003 0.028
F2J 0.105 0.064 0.053 -0.012 -0.019 0.044
F3J 0.077 0.083 0.076 0.014 -0.01 0.052
Ag1J 0.0666 0.0464 0.0348 0.0023 0.0075 0.0394
O3J 0.056 0.047 0.046 0.015 0.018 0.035
N1J 0.041 0.034 0.032 -0.002 0.003 0.022
N2J 0.047 0.03 0.027 -0.001 -0.006 0.009
C3J 0.042 0.03 0.025 0.006 0.005 0.016
C4J 0.038 0.039 0.035 0.004 0.009 0.017
C5J 0.032 0.038 0.027 -0.001 0.001 0.017
C6J 0.031 0.035 0.023 0.004 -0.003 0.018
C7J 0.034 0.029 0.025 0.004 0 0.015
C8J 0.044 0.04 0.019 0.001 0.003 0.024
C9J 0.047 0.029 0.019 -0.003 -0.001 0.015
C10J 0.042 0.042 0.028 0.005 -0.003 0.016
C11J 0.046 0.05 0.036 0.002 -0.013 0.018
C12J 0.04 0.05 0.035 0.003 -0.004 0.014
C13J 0.048 0.033 0.025 -0.004 -0.005 0.02
C1K 0.038 0.032 0.033 0.005 -0.006 0.001
O1K 0.057 0.054 0.043 0 -0.018 0.018
O2K 0.047 0.076 0.038 -0.011 -0.011 0.028
C2K 0.052 0.04 0.036 -0.009 -0.006 0.009
F1K 0.06 0.07 0.056 -0.018 -0.021 0.032
F2K 0.064 0.081 0.053 -0.007 0.012 0.02
F3K 0.083 0.056 0.076 -0.024 -0.014 0.031
Ag1K 0.0464 0.0342 0.0348 0.0052 -0.0023 0.007
O3K 0.047 0.033 0.046 0.003 -0.015 0.012
N1K 0.034 0.031 0.032 0.005 0.002 0.012
N2K 0.03 0.059 0.027 -0.005 0.001 0.021
C3K 0.03 0.04 0.025 -0.001 -0.006 0.014
C4K 0.039 0.043 0.035 0.005 -0.004 0.022
C5K 0.038 0.036 0.027 0.002 0.001 0.021
C6K 0.035 0.03 0.023 -0.007 -0.004 0.017
C7K 0.029 0.033 0.025 -0.004 -0.004 0.014
C8K 0.04 0.036 0.019 0.002 -0.001 0.016
C9K 0.029 0.046 0.019 0.002 0.003 0.014
C10K 0.042 0.052 0.028 -0.008 -0.005 0.026
C11K 0.05 0.06 0.036 -0.015 -0.002 0.032
C12K 0.05 0.062 0.035 -0.007 -0.003 0.036
C13K 0.033 0.041 0.025 -0.001 0.004 0.013
C1A 0.068 0.038 0.033 0.006 0.011 0.037
O1A 0.075 0.057 0.043 0.018 0.018 0.039
O2A 0.067 0.047 0.038 0.011 0 0.019
C2A 0.074 0.052 0.036 0.006 -0.003 0.043
F1A 0.066 0.06 0.056 0.021 0.003 0.028
F2A 0.105 0.064 0.053 -0.012 -0.019 0.044
F3A 0.077 0.083 0.076 0.014 -0.01 0.052
Ag1A 0.0666 0.0464 0.0348 0.0023 0.0075 0.0394
O3A 0.056 0.047 0.046 0.015 0.018 0.035
N1A 0.041 0.034 0.032 -0.002 0.003 0.022
N2A 0.047 0.03 0.027 -0.001 -0.006 0.009
C3A 0.042 0.03 0.025 0.006 0.005 0.016
C4A 0.038 0.039 0.035 0.004 0.009 0.017
C5A 0.032 0.038 0.027 -0.001 0.001 0.017
C6A 0.031 0.035 0.023 0.004 -0.003 0.018
C7A 0.034 0.029 0.025 0.004 0 0.015
C8A 0.044 0.04 0.019 0.001 0.003 0.024
C9A 0.047 0.029 0.019 -0.003 -0.001 0.015
C10A 0.042 0.042 0.028 0.005 -0.003 0.016
C11A 0.046 0.05 0.036 0.002 -0.013 0.018
C12A 0.04 0.05 0.035 0.003 -0.004 0.014
C13A 0.048 0.033 0.025 -0.004 -0.005 0.02
C1B 0.038 0.032 0.033 0.005 -0.006 0.001
O1B 0.057 0.054 0.043 0 -0.018 0.018
O2B 0.047 0.076 0.038 -0.011 -0.011 0.028
C2B 0.052 0.04 0.036 -0.009 -0.006 0.009
F1B 0.06 0.07 0.056 -0.018 -0.021 0.032
F2B 0.064 0.081 0.053 -0.007 0.012 0.02
F3B 0.083 0.056 0.076 -0.024 -0.014 0.031
Ag1B 0.0464 0.0342 0.0348 0.0052 -0.0023 0.007
O3B 0.047 0.033 0.046 0.003 -0.015 0.012
N1B 0.034 0.031 0.032 0.005 0.002 0.012
N2B 0.03 0.059 0.027 -0.005 0.001 0.021
C3B 0.03 0.04 0.025 -0.001 -0.006 0.014
C4B 0.039 0.043 0.035 0.005 -0.004 0.022
C5B 0.038 0.036 0.027 0.002 0.001 0.021
C6B 0.035 0.03 0.023 -0.007 -0.004 0.017
C7B 0.029 0.033 0.025 -0.004 -0.004 0.014
C8B 0.04 0.036 0.019 0.002 -0.001 0.016
C9B 0.029 0.046 0.019 0.002 0.003 0.014
C10B 0.042 0.052 0.028 -0.008 -0.005 0.026
C11B 0.05 0.06 0.036 -0.015 -0.002 0.032
C12B 0.05 0.062 0.035 -0.007 -0.003 0.036
C13B 0.033 0.041 0.025 -0.001 0.004 0.013
C1I 0.032 0.068 0.033 -0.011 -0.005 0.031
O1I 0.054 0.075 0.043 -0.018 0 0.036
O2I 0.076 0.067 0.038 0 0.011 0.048
C2I 0.04 0.074 0.036 0.003 0.009 0.031
F1I 0.07 0.066 0.056 -0.003 0.018 0.038
F2I 0.081 0.105 0.053 0.019 0.007 0.061
F3I 0.056 0.077 0.076 0.01 0.024 0.025
Ag1I 0.0342 0.0666 0.0348 -0.0075 -0.0052 0.0272
O3I 0.033 0.056 0.046 -0.018 -0.003 0.021
N1I 0.031 0.041 0.032 -0.003 -0.005 0.019
N2I 0.059 0.047 0.027 0.006 0.005 0.038
C3I 0.04 0.042 0.025 -0.005 0.001 0.026
C4I 0.043 0.038 0.035 -0.009 -0.005 0.021
C5I 0.036 0.032 0.027 -0.001 -0.002 0.015
C6I 0.03 0.031 0.023 0.003 0.007 0.013
C7I 0.033 0.034 0.025 0 0.004 0.019
C8I 0.036 0.044 0.019 -0.003 -0.002 0.02
C9I 0.046 0.047 0.019 0.001 -0.002 0.032
C10I 0.052 0.042 0.028 0.003 0.008 0.026
C11I 0.06 0.046 0.036 0.013 0.015 0.028
C12I 0.062 0.04 0.035 0.004 0.007 0.026
C13I 0.041 0.048 0.025 0.005 0.001 0.028
loop_
_geom_bond_atom_site_label_1
_geom_bond_atom_site_label_2
_geom_bond_site_symmetry_1
_geom_bond_site_symmetry_2
C1 O1 1_555 1_555
O1 Ag1 1_555 1_555
O2 C1 1_555 1_555
C2 C1 1_555 1_555
F1 C2 1_555 1_555
F2 C2 1_555 1_555
F3 C2 1_555 1_555
Ag1 N1 1_555 1_555
O3 C8 1_555 1_555
N1 C3 1_555 1_555
N2 C12 1_555 1_555
C3 H1 1_555 1_555
C4 C3 1_555 1_555
H2 C4 1_555 1_555
C5 C4 1_555 1_555
H3 C5 1_555 1_555
C6 C5 1_555 1_555
C7 N1 1_555 1_555
H4 C7 1_555 1_555
C8 C6 1_555 1_555
C9 C8 1_555 1_555
C10 C9 1_555 1_555
H5 C10 1_555 1_555
C11 C10 1_555 1_555
H6 C11 1_555 1_555
C12 C11 1_555 1_555
H7 C12 1_555 1_555
C13 N2 1_555 1_555
H8 C13 1_555 1_555
C14 Cl1 1_555 1_555
Cl2 C14 1_555 1_555
Cl3 C14 1_555 1_555
Cl4 C14 1_555 1_555
C1J O1J 1_555 1_555
O1J Ag1J 1_555 1_555
O2J C1J 1_555 1_555
C2J C1J 1_555 1_555
F1J C2J 1_555 1_555
F2J C2J 1_555 1_555
F3J C2J 1_555 1_555
Ag1J N2 1_555 1_555
O3J C8J 1_555 1_555
N1J Ag1J 1_555 1_555
N2J C12J 1_555 1_555
C3J N1J 1_555 1_555
H1J C3J 1_555 1_555
C4J C3J 1_555 1_555
H2J C4J 1_555 1_555
C5J C4J 1_555 1_555
H3J C5J 1_555 1_555
C6J C5J 1_555 1_555
C7J N1J 1_555 1_555
H4J C7J 1_555 1_555
C8J C6J 1_555 1_555
C9J C8J 1_555 1_555
C10J C9J 1_555 1_555
H5J C10J 1_555 1_555
C11J C10J 1_555 1_555
H6J C11J 1_555 1_555
C12J C11J 1_555 1_555
H7J C12J 1_555 1_555
C13J N2J 1_555 1_555
H8J C13J 1_555 1_555
C1K O1K 1_555 1_555
O1K Ag1K 1_555 1_555
O2K C1K 1_555 1_555
C2K C1K 1_555 1_555
F1K C2K 1_555 1_555
F2K C2K 1_555 1_555
F3K C2K 1_555 1_555
Ag1K N1K 1_555 1_555
O3K C8K 1_555 1_555
N1K C3K 1_555 1_555
N2K Ag1 1_555 1_555
C3K H1K 1_555 1_555
C4K C3K 1_555 1_555
H2K C4K 1_555 1_555
C5K C4K 1_555 1_555
H3K C5K 1_555 1_555
C6K C5K 1_555 1_555
C7K N1K 1_555 1_555
H4K C7K 1_555 1_555
C8K C6K 1_555 1_555
C9K C8K 1_555 1_555
C10K C9K 1_555 1_555
H5K C10K 1_555 1_555
C11K C10K 1_555 1_555
H6K C11K 1_555 1_555
C12K N2K 1_555 1_555
H7K C12K 1_555 1_555
C13K N2K 1_555 1_555
H8K C13K 1_555 1_555
C1A O1A 1_555 1_555
O1A Ag1A 1_555 1_555
O2A C1A 1_555 1_555
C2A C1A 1_555 1_555
F1A C2A 1_555 1_555
F2A C2A 1_555 1_555
F3A C2A 1_555 1_555
Ag1A N1A 1_555 1_555
O3A C8A 1_555 1_555
N1A C3A 1_555 1_555
N2A Ag1K 1_555 1_555
C3A H1A 1_555 1_555
C4A C3A 1_555 1_555
H2A C4A 1_555 1_555
C5A C4A 1_555 1_555
H3A C5A 1_555 1_555
C6A C5A 1_555 1_555
C7A N1A 1_555 1_555
H4A C7A 1_555 1_555
C8A C6A 1_555 1_555
C9A C8A 1_555 1_555
C10A C9A 1_555 1_555
H5A C10A 1_555 1_555
C11A C10A 1_555 1_555
H6A C11A 1_555 1_555
C12A N2A 1_555 1_555
H7A C12A 1_555 1_555
C13A N2A 1_555 1_555
H8A C13A 1_555 1_555
C1B O1B 1_555 1_555
O1B Ag1B 1_555 1_555
O2B C1B 1_555 1_555
C2B C1B 1_555 1_555
F1B C2B 1_555 1_555
F2B C2B 1_555 1_555
F3B C2B 1_555 1_555
Ag1B N2J 1_555 1_555
O3B C8B 1_555 1_555
N1B Ag1B 1_555 1_555
N2B C12B 1_555 1_555
C3B N1B 1_555 1_555
H1B C3B 1_555 1_555
C4B C3B 1_555 1_555
H2B C4B 1_555 1_555
C5B C4B 1_555 1_555
H3B C5B 1_555 1_555
C6B C5B 1_555 1_555
C7B N1B 1_555 1_555
H4B C7B 1_555 1_555
C8B C6B 1_555 1_555
C9B C8B 1_555 1_555
C10B C9B 1_555 1_555
H5B C10B 1_555 1_555
C11B C10B 1_555 1_555
H6B C11B 1_555 1_555
C12B C11B 1_555 1_555
H7B C12B 1_555 1_555
C13B N2B 1_555 1_555
H8B C13B 1_555 1_555
C1I O1I 1_555 1_555
O1I Ag1I 1_555 1_555
O2I C1I 1_555 1_555
C2I C1I 1_555 1_555
F1I C2I 1_555 1_555
F2I C2I 1_555 1_555
F3I C2I 1_555 1_555
Ag1I N2B 1_555 1_555
O3I C8I 1_555 1_555
N1I Ag1I 1_555 1_555
N2I Ag1A 1_555 1_555
C3I N1I 1_555 1_555
H1I C3I 1_555 1_555
C4I C3I 1_555 1_555
H2I C4I 1_555 1_555
C5I C4I 1_555 1_555
H3I C5I 1_555 1_555
C6I C5I 1_555 1_555
C7I N1I 1_555 1_555
H4I C7I 1_555 1_555
C8I C6I 1_555 1_555
C9I C8I 1_555 1_555
C10I C9I 1_555 1_555
H5I C10I 1_555 1_555
C11I C10I 1_555 1_555
H6I C11I 1_555 1_555
C12I N2I 1_555 1_555
H7I C12I 1_555 1_555
C13I N2I 1_555 1_555
H8I C13I 1_555 1_555
C6 C7 1_555 1_555
C9 C13 1_555 1_555
C6J C7J 1_555 1_555
C9J C13J 1_555 1_555
C6K C7K 1_555 1_555
C9K C13K 1_555 1_555
C11K C12K 1_555 1_555
C6A C7A 1_555 1_555
C9A C13A 1_555 1_555
C11A C12A 1_555 1_555
C6B C7B 1_555 1_555
C9B C13B 1_555 1_555
C6I C7I 1_555 1_555
C9I C13I 1_555 1_555
C11I C12I 1_555 1_555

#END
