
#######################################################################
#
#                 Cambridge Crystallographic Data Centre
#                                CCDC 
#
#######################################################################
#
# If this CIF has been generated from an entry in the Cambridge 
# Structural Database, then it will include bibliographic, chemical, 
# crystal, experimental, refinement or atomic coordinate data resulting 
# from the CCDC's data processing and validation procedures.
#
#######################################################################

data_FURRAM
_chemical_formula_moiety         'C82 H56 Ag6 F18 N12 O20'
_symmetry_cell_setting           rhombohedral
_symmetry_space_group_name_H-M   'R -3'
_symmetry_Int_Tables_number      148
_space_group_name_Hall           '-R 3'
loop_
_symmetry_equiv_pos_site_id
_symmetry_equiv_pos_as_xyz
1 x,y,z
2 -y,x-y,z
3 -x+y,-x,z
4 2/3+x,1/3+y,1/3+z
5 2/3-y,1/3+x-y,1/3+z
6 2/3-x+y,1/3-x,1/3+z
7 1/3+x,2/3+y,2/3+z
8 1/3-y,2/3+x-y,2/3+z
9 1/3-x+y,2/3-x,2/3+z
10 -x,-y,-z
11 y,-x+y,-z
12 x-y,x,-z
13 1/3-x,2/3-y,2/3-z
14 1/3+y,2/3-x+y,2/3-z
15 1/3+x-y,2/3+x,2/3-z
16 2/3-x,1/3-y,1/3-z
17 2/3+y,1/3-x+y,1/3-z
18 2/3+x-y,1/3+x,1/3-z
_cell_length_a                   33.786(5)
_cell_length_b                   33.786(5)
_cell_length_c                   8.417(3)
_cell_angle_alpha                90
_cell_angle_beta                 90
_cell_angle_gamma                120
_cell_volume                     8320.73
loop_
_atom_site_label
_atom_site_type_symbol
_atom_site_fract_x
_atom_site_fract_y
_atom_site_fract_z
_atom_site_U_iso_or_equiv
_atom_site_thermal_displace_type
Ag1 Ag 0.147452(12) 0.321855(12) 0.50460(4) 0.0263 Uani
O1 O 0.33579(10) 0.33034(11) 0.7852(4) 0.0245 Uani
N1 N 0.20642(13) 0.34187(13) 0.6621(4) 0.0230 Uani
N2 N 0.27930(13) 0.19753(13) 0.6163(4) 0.0239 Uani
C1 C 0.21927(16) 0.37744(16) 0.7610(5) 0.0243 Uani
H1 H 0.2027 0.3933 0.7598 0.0290 Uiso
C2 C 0.25576(17) 0.39191(16) 0.8648(5) 0.0256 Uani
H2 H 0.2636 0.4170 0.9341 0.0310 Uiso
C3 C 0.28063(16) 0.36950(16) 0.8664(5) 0.0242 Uani
H3 H 0.3064 0.3794 0.9341 0.0290 Uiso
C4 C 0.26681(15) 0.33200(15) 0.7659(5) 0.0211 Uani
C5 C 0.23000(15) 0.31953(15) 0.6665(5) 0.0210 Uani
H4 H 0.2209 0.2940 0.5982 0.0250 Uiso
C6 C 0.29469(15) 0.30859(16) 0.7613(5) 0.0215 Uani
C7 C 0.27161(15) 0.25873(16) 0.7280(5) 0.0217 Uani
C8 C 0.22809(16) 0.22797(16) 0.7838(5) 0.0259 Uani
H5 H 0.2106 0.2383 0.8406 0.0310 Uiso
C9 C 0.21080(18) 0.18161(17) 0.7540(6) 0.0314 Uani
H6 H 0.1813 0.1596 0.7914 0.0380 Uiso
C10 C 0.23695(17) 0.16820(16) 0.6698(6) 0.0277 Uani
H7 H 0.2245 0.1366 0.6483 0.0330 Uiso
C11 C 0.29613(16) 0.24195(16) 0.6464(5) 0.0215 Uani
H8 H 0.3261 0.2630 0.6108 0.0260 Uiso
C12 C 0.15389(16) 0.41339(18) 0.4550(6) 0.0296 Uani
O2 O 0.14631(14) 0.39834(14) 0.5914(5) 0.0406 Uani
O3 O 0.15406(13) 0.39441(14) 0.3290(5) 0.0430 Uani
C13 C 0.16621(19) 0.4634(2) 0.4334(6) 0.0384 Uani
F1 F 0.14636(16) 0.46949(16) 0.3047(4) 0.0621 Uani
F2 F 0.21165(12) 0.49028(12) 0.4131(5) 0.0585 Uani
F3 F 0.15467(11) 0.48049(11) 0.5564(4) 0.0400 Uani
Ag1J Ag 0.321855(12) 0.174403(17) 0.49540(4) 0.0263 Uani
O1J O 0.33034(11) -0.00545(15) 0.2148(4) 0.0245 Uani
N1J N 0.34187(13) 0.13545(18) 0.3379(4) 0.0230 Uani
N2J N 0.19753(13) -0.08177(18) 0.3837(4) 0.0239 Uani
C1J C 0.37744(16) 0.15817(23) 0.2390(5) 0.0243 Uani
H1J H 0.3933 0.1906 0.2402 0.0290 Uiso
C2J C 0.39191(16) 0.13615(23) 0.1352(5) 0.0256 Uani
H2J H 0.4170 0.1534 0.0659 0.0310 Uiso
C3J C 0.36950(16) 0.08887(23) 0.1336(5) 0.0242 Uani
H3J H 0.3794 0.0730 0.0659 0.0290 Uiso
C4J C 0.33200(15) 0.06519(21) 0.2341(5) 0.0211 Uani
C5J C 0.31953(15) 0.08953(21) 0.3335(5) 0.0210 Uani
H4J H 0.2940 0.0731 0.4018 0.0250 Uiso
C6J C 0.30859(16) 0.01390(22) 0.2387(5) 0.0215 Uani
C7J C 0.25873(16) -0.01288(22) 0.2720(5) 0.0217 Uani
C8J C 0.22797(16) -0.00012(23) 0.2162(5) 0.0259 Uani
H5J H 0.2383 0.0277 0.1594 0.0310 Uiso
C9J C 0.18161(17) -0.02919(25) 0.2460(6) 0.0314 Uani
H6J H 0.1596 -0.0217 0.2086 0.0380 Uiso
C10J C 0.16820(16) -0.06875(23) 0.3302(6) 0.0277 Uani
H7J H 0.1366 -0.0879 0.3517 0.0330 Uiso
C11J C 0.24195(16) -0.05418(23) 0.3536(5) 0.0215 Uani
H8J H 0.2630 -0.0631 0.3892 0.0260 Uiso
C12J C 0.41339(18) 0.25950(24) 0.5450(6) 0.0296 Uani
O2J O 0.39834(14) 0.25203(20) 0.4086(5) 0.0406 Uani
O3J O 0.39441(14) 0.24035(19) 0.6710(5) 0.0430 Uani
C13J C 0.4634(2) 0.29719(28) 0.5666(6) 0.0384 Uani
F1J F 0.46949(16) 0.32313(23) 0.6953(4) 0.0621 Uani
F2J F 0.49028(12) 0.27863(17) 0.5869(5) 0.0585 Uani
F3J F 0.48049(11) 0.32582(16) 0.4436(4) 0.0400 Uani
Ag1K Ag -0.174403(17) 0.147452(12) 0.49540(4) 0.0263 Uani
O1K O 0.00545(15) 0.33579(10) 0.2148(4) 0.0245 Uani
N1K N -0.13545(18) 0.20642(13) 0.3379(4) 0.0230 Uani
N2K N 0.08177(18) 0.27930(13) 0.3837(4) 0.0239 Uani
C1K C -0.15817(23) 0.21927(16) 0.2390(5) 0.0243 Uani
H1K H -0.1906 0.2027 0.2402 0.0290 Uiso
C2K C -0.13615(23) 0.25576(17) 0.1352(5) 0.0256 Uani
H2K H -0.1534 0.2636 0.0659 0.0310 Uiso
C3K C -0.08887(23) 0.28063(16) 0.1336(5) 0.0242 Uani
H3K H -0.0730 0.3064 0.0659 0.0290 Uiso
C4K C -0.06519(21) 0.26681(15) 0.2341(5) 0.0211 Uani
C5K C -0.08953(21) 0.23000(15) 0.3335(5) 0.0210 Uani
H4K H -0.0731 0.2209 0.4018 0.0250 Uiso
C6K C -0.01390(22) 0.29469(15) 0.2387(5) 0.0215 Uani
C7K C 0.01288(22) 0.27161(15) 0.2720(5) 0.0217 Uani
C8K C 0.00012(23) 0.22809(16) 0.2162(5) 0.0259 Uani
H5K H -0.0277 0.2106 0.1594 0.0310 Uiso
C9K C 0.02919(25) 0.21080(18) 0.2460(6) 0.0314 Uani
H6K H 0.0217 0.1813 0.2086 0.0380 Uiso
C10K C 0.06875(23) 0.23695(17) 0.3302(6) 0.0277 Uani
H7K H 0.0879 0.2245 0.3517 0.0330 Uiso
C11K C 0.05418(23) 0.29613(16) 0.3536(5) 0.0215 Uani
H8K H 0.0631 0.3261 0.3892 0.0260 Uiso
C12K C -0.25950(24) 0.15389(16) 0.5450(6) 0.0296 Uani
O2K O -0.25203(20) 0.14631(14) 0.4086(5) 0.0406 Uani
O3K O -0.24035(19) 0.15406(13) 0.6710(5) 0.0430 Uani
C13K C -0.29719(28) 0.16621(19) 0.5666(6) 0.0384 Uani
F1K F -0.32313(23) 0.14636(16) 0.6953(4) 0.0621 Uani
F2K F -0.27863(17) 0.21165(12) 0.5869(5) 0.0585 Uani
F3K F -0.32582(16) 0.15467(11) 0.4436(4) 0.0400 Uani
Ag1A Ag -0.321855(12) -0.174403(17) 0.50460(4) 0.0263 Uani
O1A O -0.33034(11) 0.00545(15) 0.7852(4) 0.0245 Uani
N1A N -0.34187(13) -0.13545(18) 0.6621(4) 0.0230 Uani
N2A N -0.19753(13) 0.08177(18) 0.6163(4) 0.0239 Uani
C1A C -0.37744(16) -0.15817(23) 0.7610(5) 0.0243 Uani
H1A H -0.3933 -0.1906 0.7598 0.0290 Uiso
C2A C -0.39191(16) -0.13615(23) 0.8648(5) 0.0256 Uani
H2A H -0.4170 -0.1534 0.9341 0.0310 Uiso
C3A C -0.36950(16) -0.08887(23) 0.8664(5) 0.0242 Uani
H3A H -0.3794 -0.0730 0.9341 0.0290 Uiso
C4A C -0.33200(15) -0.06519(21) 0.7659(5) 0.0211 Uani
C5A C -0.31953(15) -0.08953(21) 0.6665(5) 0.0210 Uani
H4A H -0.2940 -0.0731 0.5982 0.0250 Uiso
C6A C -0.30859(16) -0.01390(22) 0.7613(5) 0.0215 Uani
C7A C -0.25873(16) 0.01288(22) 0.7280(5) 0.0217 Uani
C8A C -0.22797(16) 0.00012(23) 0.7838(5) 0.0259 Uani
H5A H -0.2383 -0.0277 0.8406 0.0310 Uiso
C9A C -0.18161(17) 0.02919(25) 0.7540(6) 0.0314 Uani
H6A H -0.1596 0.0217 0.7914 0.0380 Uiso
C10A C -0.16820(16) 0.06875(23) 0.6698(6) 0.0277 Uani
H7A H -0.1366 0.0879 0.6483 0.0330 Uiso
C11A C -0.24195(16) 0.05418(23) 0.6464(5) 0.0215 Uani
H8A H -0.2630 0.0631 0.6108 0.0260 Uiso
C12A C -0.41339(18) -0.25950(24) 0.4550(6) 0.0296 Uani
O2A O -0.39834(14) -0.25203(20) 0.5914(5) 0.0406 Uani
O3A O -0.39441(14) -0.24035(19) 0.3290(5) 0.0430 Uani
C13A C -0.4634(2) -0.29719(28) 0.4334(6) 0.0384 Uani
F1A F -0.46949(16) -0.32313(23) 0.3047(4) 0.0621 Uani
F2A F -0.49028(12) -0.27863(17) 0.4131(5) 0.0585 Uani
F3A F -0.48049(11) -0.32582(16) 0.5564(4) 0.0400 Uani
Ag1B Ag 0.174403(17) -0.147452(12) 0.50460(4) 0.0263 Uani
O1B O -0.00545(15) -0.33579(10) 0.7852(4) 0.0245 Uani
N1B N 0.13545(18) -0.20642(13) 0.6621(4) 0.0230 Uani
N2B N -0.08177(18) -0.27930(13) 0.6163(4) 0.0239 Uani
C1B C 0.15817(23) -0.21927(16) 0.7610(5) 0.0243 Uani
H1B H 0.1906 -0.2027 0.7598 0.0290 Uiso
C2B C 0.13615(23) -0.25576(17) 0.8648(5) 0.0256 Uani
H2B H 0.1534 -0.2636 0.9341 0.0310 Uiso
C3B C 0.08887(23) -0.28063(16) 0.8664(5) 0.0242 Uani
H3B H 0.0730 -0.3064 0.9341 0.0290 Uiso
C4B C 0.06519(21) -0.26681(15) 0.7659(5) 0.0211 Uani
C5B C 0.08953(21) -0.23000(15) 0.6665(5) 0.0210 Uani
H4B H 0.0731 -0.2209 0.5982 0.0250 Uiso
C6B C 0.01390(22) -0.29469(15) 0.7613(5) 0.0215 Uani
C7B C -0.01288(22) -0.27161(15) 0.7280(5) 0.0217 Uani
C8B C -0.00012(23) -0.22809(16) 0.7838(5) 0.0259 Uani
H5B H 0.0277 -0.2106 0.8406 0.0310 Uiso
C9B C -0.02919(25) -0.21080(18) 0.7540(6) 0.0314 Uani
H6B H -0.0217 -0.1813 0.7914 0.0380 Uiso
C10B C -0.06875(23) -0.23695(17) 0.6698(6) 0.0277 Uani
H7B H -0.0879 -0.2245 0.6483 0.0330 Uiso
C11B C -0.05418(23) -0.29613(16) 0.6464(5) 0.0215 Uani
H8B H -0.0631 -0.3261 0.6108 0.0260 Uiso
C12B C 0.25950(24) -0.15389(16) 0.4550(6) 0.0296 Uani
O2B O 0.25203(20) -0.14631(14) 0.5914(5) 0.0406 Uani
O3B O 0.24035(19) -0.15406(13) 0.3290(5) 0.0430 Uani
C13B C 0.29719(28) -0.16621(19) 0.4334(6) 0.0384 Uani
F1B F 0.32313(23) -0.14636(16) 0.3047(4) 0.0621 Uani
F2B F 0.27863(17) -0.21165(12) 0.4131(5) 0.0585 Uani
F3B F 0.32582(16) -0.15467(11) 0.5564(4) 0.0400 Uani
Ag1I Ag -0.147452(12) -0.321855(12) 0.49540(4) 0.0263 Uani
O1I O -0.33579(10) -0.33034(11) 0.2148(4) 0.0245 Uani
N1I N -0.20642(13) -0.34187(13) 0.3379(4) 0.0230 Uani
N2I N -0.27930(13) -0.19753(13) 0.3837(4) 0.0239 Uani
C1I C -0.21927(16) -0.37744(16) 0.2390(5) 0.0243 Uani
H1I H -0.2027 -0.3933 0.2402 0.0290 Uiso
C2I C -0.25576(17) -0.39191(16) 0.1352(5) 0.0256 Uani
H2I H -0.2636 -0.4170 0.0659 0.0310 Uiso
C3I C -0.28063(16) -0.36950(16) 0.1336(5) 0.0242 Uani
H3I H -0.3064 -0.3794 0.0659 0.0290 Uiso
C4I C -0.26681(15) -0.33200(15) 0.2341(5) 0.0211 Uani
C5I C -0.23000(15) -0.31953(15) 0.3335(5) 0.0210 Uani
H4I H -0.2209 -0.2940 0.4018 0.0250 Uiso
C6I C -0.29469(15) -0.30859(16) 0.2387(5) 0.0215 Uani
C7I C -0.27161(15) -0.25873(16) 0.2720(5) 0.0217 Uani
C8I C -0.22809(16) -0.22797(16) 0.2162(5) 0.0259 Uani
H5I H -0.2106 -0.2383 0.1594 0.0310 Uiso
C9I C -0.21080(18) -0.18161(17) 0.2460(6) 0.0314 Uani
H6I H -0.1813 -0.1596 0.2086 0.0380 Uiso
C10I C -0.23695(17) -0.16820(16) 0.3302(6) 0.0277 Uani
H7I H -0.2245 -0.1366 0.3517 0.0330 Uiso
C11I C -0.29613(16) -0.24195(16) 0.3536(5) 0.0215 Uani
H8I H -0.3261 -0.2630 0.3892 0.0260 Uiso
C12I C -0.15389(16) -0.41339(18) 0.5450(6) 0.0296 Uani
O2I O -0.14631(14) -0.39834(14) 0.4086(5) 0.0406 Uani
O3I O -0.15406(13) -0.39441(14) 0.6710(5) 0.0430 Uani
C13I C -0.16621(19) -0.4634(2) 0.5666(6) 0.0384 Uani
F1I F -0.14636(16) -0.46949(16) 0.6953(4) 0.0621 Uani
F2I F -0.21165(12) -0.49028(12) 0.5869(5) 0.0585 Uani
F3I F -0.15467(11) -0.48049(11) 0.4436(4) 0.0400 Uani
O4 O 0.1030(6) 0.0121(5) 0.228(2) 0.2811 Uani
C14 C 0.1088(7) 0.0340(5) 0.3748(19) 0.2327 Uani
H9 H 0.0998 0.0115 0.4620 0.2790 Uiso
H10 H 0.0893 0.0482 0.3799 0.2790 Uiso
C15 C 0.1572(7) 0.0694(5) 0.3926(19) 0.2101 Uani
H11 H 0.1616 0.0854 0.4951 0.2520 Uiso
H12 H 0.1765 0.0549 0.3929 0.2520 Uiso
O5 O 0.1701(6) 0.0998(5) 0.2715(18) 0.2834 Uani
C16 C 0.1625(6) 0.0760(5) 0.1327(19) 0.2189 Uani
H13 H 0.1786 0.0583 0.1353 0.2630 Uiso
H14 H 0.1745 0.0976 0.0421 0.2630 Uiso
C17 C 0.1138(7) 0.0453(7) 0.1127(19) 0.2401 Uani
H15 H 0.0966 0.0615 0.1297 0.2880 Uiso
H16 H 0.1069 0.0316 0.0051 0.2880 Uiso
loop_
_atom_site_aniso_label
_atom_site_aniso_U_11
_atom_site_aniso_U_22
_atom_site_aniso_U_33
_atom_site_aniso_U_23
_atom_site_aniso_U_13
_atom_site_aniso_U_12
Ag1 0.0237(2) 0.0327(2) 0.0228(2) -0.00397(14) -0.00435(13) 0.01425(16)
O1 0.0227(17) 0.0323(18) 0.0165(14) -0.0018(13) -0.0015(12) 0.0123(14)
N1 0.0243(19) 0.028(2) 0.0161(18) -0.0017(15) 0.0017(15) 0.0127(17)
N2 0.030(2) 0.027(2) 0.0187(19) 0.0037(15) 0.0021(15) 0.0173(18)
C1 0.026(2) 0.026(2) 0.021(2) 0.0006(18) 0.0044(18) 0.013(2)
C2 0.032(2) 0.024(2) 0.018(2) -0.0023(18) 0.0001(19) 0.012(2)
C3 0.024(2) 0.027(2) 0.018(2) -0.0008(18) -0.0013(18) 0.0100(19)
C4 0.022(2) 0.023(2) 0.015(2) 0.0025(17) 0.0026(17) 0.0088(19)
C5 0.023(2) 0.024(2) 0.015(2) 0.0003(17) 0.0044(17) 0.0111(19)
C6 0.026(2) 0.030(2) 0.0084(19) 0.0017(17) 0.0011(16) 0.014(2)
C7 0.025(2) 0.028(2) 0.013(2) 0.0022(17) -0.0010(17) 0.014(2)
C8 0.027(2) 0.029(2) 0.023(2) 0.0020(19) 0.0047(19) 0.015(2)
C9 0.029(3) 0.029(3) 0.033(3) 0.003(2) 0.007(2) 0.012(2)
C10 0.030(3) 0.024(2) 0.027(2) 0.0039(19) 0.003(2) 0.012(2)
C11 0.023(2) 0.026(2) 0.016(2) 0.0031(17) -0.0003(17) 0.0126(19)
C12 0.022(2) 0.037(3) 0.034(3) -0.007(2) -0.001(2) 0.018(2)
O2 0.052(2) 0.044(2) 0.039(2) 0.0067(18) 0.0086(18) 0.034(2)
O3 0.031(2) 0.050(2) 0.045(2) -0.0230(19) -0.0025(17) 0.0181(18)
C13 0.040(3) 0.051(3) 0.034(3) 0.004(2) 0.012(2) 0.030(3)
F1 0.094(3) 0.102(3) 0.0331(19) 0.0179(19) 0.0135(19) 0.081(3)
F2 0.046(2) 0.0374(19) 0.089(3) 0.0037(18) 0.026(2) 0.0185(16)
F3 0.052(2) 0.0388(17) 0.0395(18) -0.0035(14) 0.0079(15) 0.0305(16)
Ag1J 0.0327 0.0279 0.0228 -0.00038 0.00397 0.01845
O1J 0.0323 0.0304 0.0165 0.0003 0.0018 0.02
N1J 0.028 0.0269 0.0161 0.0034 0.0017 0.0153
N2J 0.027 0.0224 0.0187 -0.0016 -0.0037 0.0097
C1J 0.026 0.026 0.021 0.0038 -0.0006 0.013
C2J 0.024 0.032 0.018 0.0024 0.0023 0.012
C3J 0.027 0.031 0.018 -0.0005 0.0008 0.017
C4J 0.023 0.0274 0.015 0.0001 -0.0025 0.0142
C5J 0.024 0.0248 0.015 0.0041 -0.0003 0.0129
C6J 0.03 0.028 0.0084 -0.0006 -0.0017 0.016
C7J 0.028 0.025 0.013 -0.0032 -0.0022 0.014
C8J 0.029 0.026 0.023 0.0027 -0.002 0.014
C9J 0.029 0.034 0.033 0.004 -0.003 0.017
C10J 0.024 0.03 0.027 -0.0009 -0.0039 0.012
C11J 0.026 0.0238 0.016 -0.0034 -0.0031 0.0134
C12J 0.037 0.023 0.034 0.006 0.007 0.019
O2J 0.044 0.028 0.039 0.0019 -0.0067 0.01
O3J 0.05 0.0448 0.045 0.0205 0.023 0.0319
C13J 0.051 0.031 0.034 0.008 -0.004 0.021
F1J 0.102 0.034 0.0331 -0.0044 -0.0179 0.021
F2J 0.0374 0.0464 0.089 0.0223 -0.0037 0.0189
F3J 0.0388 0.0298 0.0395 0.0114 0.0035 0.0083
Ag1K 0.0279 0.0237 0.0228 0.00435 0.00038 0.00945
O1K 0.0304 0.0227 0.0165 0.0015 -0.0003 0.0104
N1K 0.0269 0.0243 0.0161 -0.0017 -0.0034 0.0116
N2K 0.0224 0.03 0.0187 -0.0021 0.0016 0.0127
C1K 0.026 0.026 0.021 -0.0044 -0.0038 0.013
C2K 0.032 0.032 0.018 -0.0001 -0.0024 0.02
C3K 0.031 0.024 0.018 0.0013 0.0005 0.014
C4K 0.0274 0.022 0.015 -0.0026 -0.0001 0.0132
C5K 0.0248 0.023 0.015 -0.0044 -0.0041 0.0119
C6K 0.028 0.026 0.0084 -0.0011 0.0006 0.012
C7K 0.025 0.025 0.013 0.001 0.0032 0.011
C8K 0.026 0.027 0.023 -0.0047 -0.0027 0.012
C9K 0.034 0.029 0.033 -0.007 -0.004 0.017
C10K 0.03 0.03 0.027 -0.003 0.0009 0.018
C11K 0.0238 0.023 0.016 0.0003 0.0034 0.0104
C12K 0.023 0.022 0.034 0.001 -0.006 0.004
O2K 0.028 0.052 0.039 -0.0086 -0.0019 0.018
O3K 0.0448 0.031 0.045 0.0025 -0.0205 0.0129
C13K 0.031 0.04 0.034 -0.012 -0.008 0.01
F1K 0.034 0.094 0.0331 -0.0135 0.0044 0.013
F2K 0.0464 0.046 0.089 -0.026 -0.0223 0.0275
F3K 0.0298 0.052 0.0395 -0.0079 -0.0114 0.0215
Ag1A 0.0327 0.0279 0.0228 -0.00038 0.00397 0.01845
O1A 0.0323 0.0304 0.0165 0.0003 0.0018 0.02
N1A 0.028 0.0269 0.0161 0.0034 0.0017 0.0153
N2A 0.027 0.0224 0.0187 -0.0016 -0.0037 0.0097
C1A 0.026 0.026 0.021 0.0038 -0.0006 0.013
C2A 0.024 0.032 0.018 0.0024 0.0023 0.012
C3A 0.027 0.031 0.018 -0.0005 0.0008 0.017
C4A 0.023 0.0274 0.015 0.0001 -0.0025 0.0142
C5A 0.024 0.0248 0.015 0.0041 -0.0003 0.0129
C6A 0.03 0.028 0.0084 -0.0006 -0.0017 0.016
C7A 0.028 0.025 0.013 -0.0032 -0.0022 0.014
C8A 0.029 0.026 0.023 0.0027 -0.002 0.014
C9A 0.029 0.034 0.033 0.004 -0.003 0.017
C10A 0.024 0.03 0.027 -0.0009 -0.0039 0.012
C11A 0.026 0.0238 0.016 -0.0034 -0.0031 0.0134
C12A 0.037 0.023 0.034 0.006 0.007 0.019
O2A 0.044 0.028 0.039 0.0019 -0.0067 0.01
O3A 0.05 0.0448 0.045 0.0205 0.023 0.0319
C13A 0.051 0.031 0.034 0.008 -0.004 0.021
F1A 0.102 0.034 0.0331 -0.0044 -0.0179 0.021
F2A 0.0374 0.0464 0.089 0.0223 -0.0037 0.0189
F3A 0.0388 0.0298 0.0395 0.0114 0.0035 0.0083
Ag1B 0.0279 0.0237 0.0228 0.00435 0.00038 0.00945
O1B 0.0304 0.0227 0.0165 0.0015 -0.0003 0.0104
N1B 0.0269 0.0243 0.0161 -0.0017 -0.0034 0.0116
N2B 0.0224 0.03 0.0187 -0.0021 0.0016 0.0127
C1B 0.026 0.026 0.021 -0.0044 -0.0038 0.013
C2B 0.032 0.032 0.018 -0.0001 -0.0024 0.02
C3B 0.031 0.024 0.018 0.0013 0.0005 0.014
C4B 0.0274 0.022 0.015 -0.0026 -0.0001 0.0132
C5B 0.0248 0.023 0.015 -0.0044 -0.0041 0.0119
C6B 0.028 0.026 0.0084 -0.0011 0.0006 0.012
C7B 0.025 0.025 0.013 0.001 0.0032 0.011
C8B 0.026 0.027 0.023 -0.0047 -0.0027 0.012
C9B 0.034 0.029 0.033 -0.007 -0.004 0.017
C10B 0.03 0.03 0.027 -0.003 0.0009 0.018
C11B 0.0238 0.023 0.016 0.0003 0.0034 0.0104
C12B 0.023 0.022 0.034 0.001 -0.006 0.004
O2B 0.028 0.052 0.039 -0.0086 -0.0019 0.018
O3B 0.0448 0.031 0.045 0.0025 -0.0205 0.0129
C13B 0.031 0.04 0.034 -0.012 -0.008 0.01
F1B 0.034 0.094 0.0331 -0.0135 0.0044 0.013
F2B 0.0464 0.046 0.089 -0.026 -0.0223 0.0275
F3B 0.0298 0.052 0.0395 -0.0079 -0.0114 0.0215
Ag1I 0.0237 0.0327 0.0228 -0.00397 -0.00435 0.01425
O1I 0.0227 0.0323 0.0165 -0.0018 -0.0015 0.0123
N1I 0.0243 0.028 0.0161 -0.0017 0.0017 0.0127
N2I 0.03 0.027 0.0187 0.0037 0.0021 0.0173
C1I 0.026 0.026 0.021 0.0006 0.0044 0.013
C2I 0.032 0.024 0.018 -0.0023 0.0001 0.012
C3I 0.024 0.027 0.018 -0.0008 -0.0013 0.01
C4I 0.022 0.023 0.015 0.0025 0.0026 0.0088
C5I 0.023 0.024 0.015 0.0003 0.0044 0.0111
C6I 0.026 0.03 0.0084 0.0017 0.0011 0.014
C7I 0.025 0.028 0.013 0.0022 -0.001 0.014
C8I 0.027 0.029 0.023 0.002 0.0047 0.015
C9I 0.029 0.029 0.033 0.003 0.007 0.012
C10I 0.03 0.024 0.027 0.0039 0.003 0.012
C11I 0.023 0.026 0.016 0.0031 -0.0003 0.0126
C12I 0.022 0.037 0.034 -0.007 -0.001 0.018
O2I 0.052 0.044 0.039 0.0067 0.0086 0.034
O3I 0.031 0.05 0.045 -0.023 -0.0025 0.0181
C13I 0.04 0.051 0.034 0.004 0.012 0.03
F1I 0.094 0.102 0.0331 0.0179 0.0135 0.081
F2I 0.046 0.0374 0.089 0.0037 0.026 0.0185
F3I 0.052 0.0388 0.0395 -0.0035 0.0079 0.0305
O4 0.293(14) 0.175(12) 0.262(15) 0.000(11) -0.073(13) 0.032(11)
C14 0.296(16) 0.101(10) 0.210(15) -0.028(10) -0.014(14) 0.031(11)
C15 0.305(16) 0.111(10) 0.189(13) 0.040(9) -0.087(12) 0.085(10)
O5 0.289(14) 0.222(13) 0.241(14) -0.045(11) 0.035(12) 0.054(11)
C16 0.253(15) 0.159(12) 0.206(13) -0.112(10) 0.043(12) 0.074(11)
C17 0.261(16) 0.182(15) 0.219(15) -0.031(12) -0.031(15) 0.067(13)
loop_
_geom_bond_atom_site_label_1
_geom_bond_atom_site_label_2
_geom_bond_site_symmetry_1
_geom_bond_site_symmetry_2
Ag1 N1 1_555 1_555
O1 C6 1_555 1_555
N1 C1 1_555 1_555
N2 C10 1_555 1_555
C1 H1 1_555 1_555
C2 C1 1_555 1_555
H2 C2 1_555 1_555
C3 C2 1_555 1_555
H3 C3 1_555 1_555
C4 C3 1_555 1_555
C5 N1 1_555 1_555
H4 C5 1_555 1_555
C6 C4 1_555 1_555
C7 C6 1_555 1_555
C8 C7 1_555 1_555
H5 C8 1_555 1_555
C9 C8 1_555 1_555
H6 C9 1_555 1_555
C10 C9 1_555 1_555
H7 C10 1_555 1_555
C11 N2 1_555 1_555
H8 C11 1_555 1_555
C12 O2 1_555 1_555
O2 Ag1 1_555 1_555
O3 C12 1_555 1_555
C13 C12 1_555 1_555
F1 C13 1_555 1_555
F2 C13 1_555 1_555
F3 C13 1_555 1_555
O4 C14 1_555 1_555
C14 H9 1_555 1_555
H10 C14 1_555 1_555
C15 C14 1_555 1_555
H11 C15 1_555 1_555
H12 C15 1_555 1_555
O5 C15 1_555 1_555
C16 O5 1_555 1_555
H13 C16 1_555 1_555
H14 C16 1_555 1_555
C17 O4 1_555 1_555
H15 C17 1_555 1_555
H16 C17 1_555 1_555
Ag1J N2 1_555 1_555
O1J C6J 1_555 1_555
N1J Ag1J 1_555 1_555
N2J C10J 1_555 1_555
C1J N1J 1_555 1_555
H1J C1J 1_555 1_555
C2J C1J 1_555 1_555
H2J C2J 1_555 1_555
C3J C2J 1_555 1_555
H3J C3J 1_555 1_555
C4J C3J 1_555 1_555
C5J N1J 1_555 1_555
H4J C5J 1_555 1_555
C6J C4J 1_555 1_555
C7J C6J 1_555 1_555
C8J C7J 1_555 1_555
H5J C8J 1_555 1_555
C9J C8J 1_555 1_555
H6J C9J 1_555 1_555
C10J C9J 1_555 1_555
H7J C10J 1_555 1_555
C11J N2J 1_555 1_555
H8J C11J 1_555 1_555
C12J O2J 1_555 1_555
O2J Ag1J 1_555 1_555
O3J C12J 1_555 1_555
C13J C12J 1_555 1_555
F1J C13J 1_555 1_555
F2J C13J 1_555 1_555
F3J C13J 1_555 1_555
Ag1K N1K 1_555 1_555
O1K C6K 1_555 1_555
N1K C1K 1_555 1_555
N2K Ag1 1_555 1_555
C1K H1K 1_555 1_555
C2K C1K 1_555 1_555
H2K C2K 1_555 1_555
C3K C2K 1_555 1_555
H3K C3K 1_555 1_555
C4K C3K 1_555 1_555
C5K N1K 1_555 1_555
H4K C5K 1_555 1_555
C6K C4K 1_555 1_555
C7K C6K 1_555 1_555
C8K C7K 1_555 1_555
H5K C8K 1_555 1_555
C9K C8K 1_555 1_555
H6K C9K 1_555 1_555
C10K N2K 1_555 1_555
H7K C10K 1_555 1_555
C11K N2K 1_555 1_555
H8K C11K 1_555 1_555
C12K O2K 1_555 1_555
O2K Ag1K 1_555 1_555
O3K C12K 1_555 1_555
C13K C12K 1_555 1_555
F1K C13K 1_555 1_555
F2K C13K 1_555 1_555
F3K C13K 1_555 1_555
Ag1A N1A 1_555 1_555
O1A C6A 1_555 1_555
N1A C1A 1_555 1_555
N2A Ag1K 1_555 1_555
C1A H1A 1_555 1_555
C2A C1A 1_555 1_555
H2A C2A 1_555 1_555
C3A C2A 1_555 1_555
H3A C3A 1_555 1_555
C4A C3A 1_555 1_555
C5A N1A 1_555 1_555
H4A C5A 1_555 1_555
C6A C4A 1_555 1_555
C7A C6A 1_555 1_555
C8A C7A 1_555 1_555
H5A C8A 1_555 1_555
C9A C8A 1_555 1_555
H6A C9A 1_555 1_555
C10A N2A 1_555 1_555
H7A C10A 1_555 1_555
C11A N2A 1_555 1_555
H8A C11A 1_555 1_555
C12A O2A 1_555 1_555
O2A Ag1A 1_555 1_555
O3A C12A 1_555 1_555
C13A C12A 1_555 1_555
F1A C13A 1_555 1_555
F2A C13A 1_555 1_555
F3A C13A 1_555 1_555
Ag1B N2J 1_555 1_555
O1B C6B 1_555 1_555
N1B Ag1B 1_555 1_555
N2B C10B 1_555 1_555
C1B N1B 1_555 1_555
H1B C1B 1_555 1_555
C2B C1B 1_555 1_555
H2B C2B 1_555 1_555
C3B C2B 1_555 1_555
H3B C3B 1_555 1_555
C4B C3B 1_555 1_555
C5B N1B 1_555 1_555
H4B C5B 1_555 1_555
C6B C4B 1_555 1_555
C7B C6B 1_555 1_555
C8B C7B 1_555 1_555
H5B C8B 1_555 1_555
C9B C8B 1_555 1_555
H6B C9B 1_555 1_555
C10B C9B 1_555 1_555
H7B C10B 1_555 1_555
C11B N2B 1_555 1_555
H8B C11B 1_555 1_555
C12B O2B 1_555 1_555
O2B Ag1B 1_555 1_555
O3B C12B 1_555 1_555
C13B C12B 1_555 1_555
F1B C13B 1_555 1_555
F2B C13B 1_555 1_555
F3B C13B 1_555 1_555
Ag1I N2B 1_555 1_555
O1I C6I 1_555 1_555
N1I Ag1I 1_555 1_555
N2I Ag1A 1_555 1_555
C1I N1I 1_555 1_555
H1I C1I 1_555 1_555
C2I C1I 1_555 1_555
H2I C2I 1_555 1_555
C3I C2I 1_555 1_555
H3I C3I 1_555 1_555
C4I C3I 1_555 1_555
C5I N1I 1_555 1_555
H4I C5I 1_555 1_555
C6I C4I 1_555 1_555
C7I C6I 1_555 1_555
C8I C7I 1_555 1_555
H5I C8I 1_555 1_555
C9I C8I 1_555 1_555
H6I C9I 1_555 1_555
C10I N2I 1_555 1_555
H7I C10I 1_555 1_555
C11I N2I 1_555 1_555
H8I C11I 1_555 1_555
C12I O2I 1_555 1_555
O2I Ag1I 1_555 1_555
O3I C12I 1_555 1_555
C13I C12I 1_555 1_555
F1I C13I 1_555 1_555
F2I C13I 1_555 1_555
F3I C13I 1_555 1_555
C4 C5 1_555 1_555
C7 C11 1_555 1_555
C16 C17 1_555 1_555
C4J C5J 1_555 1_555
C7J C11J 1_555 1_555
C4K C5K 1_555 1_555
C7K C11K 1_555 1_555
C9K C10K 1_555 1_555
C4A C5A 1_555 1_555
C7A C11A 1_555 1_555
C9A C10A 1_555 1_555
C4B C5B 1_555 1_555
C7B C11B 1_555 1_555
C4I C5I 1_555 1_555
C7I C11I 1_555 1_555
C9I C10I 1_555 1_555

#END
