
#######################################################################
#
#                 Cambridge Crystallographic Data Centre
#                                CCDC 
#
#######################################################################
#
# If this CIF has been generated from an entry in the Cambridge 
# Structural Database, then it will include bibliographic, chemical, 
# crystal, experimental, refinement or atomic coordinate data resulting 
# from the CCDC's data processing and validation procedures.
#
#######################################################################

data_FURREQ
_chemical_formula_moiety         'C82 H58 Ag6 F18 N12 O19'
_symmetry_cell_setting           rhombohedral
_symmetry_space_group_name_H-M   'R -3'
_symmetry_Int_Tables_number      148
_space_group_name_Hall           '-R 3'
loop_
_symmetry_equiv_pos_site_id
_symmetry_equiv_pos_as_xyz
1 x,y,z
2 -y,x-y,z
3 -x+y,-x,z
4 2/3+x,1/3+y,1/3+z
5 2/3-y,1/3+x-y,1/3+z
6 2/3-x+y,1/3-x,1/3+z
7 1/3+x,2/3+y,2/3+z
8 1/3-y,2/3+x-y,2/3+z
9 1/3-x+y,2/3-x,2/3+z
10 -x,-y,-z
11 y,-x+y,-z
12 x-y,x,-z
13 1/3-x,2/3-y,2/3-z
14 1/3+y,2/3-x+y,2/3-z
15 1/3+x-y,2/3+x,2/3-z
16 2/3-x,1/3-y,1/3-z
17 2/3+y,1/3-x+y,1/3-z
18 2/3+x-y,1/3+x,1/3-z
_cell_length_a                   33.4968(12)
_cell_length_b                   33.4968(12)
_cell_length_c                   8.5164(6)
_cell_angle_alpha                90
_cell_angle_beta                 90
_cell_angle_gamma                120
_cell_volume                     8275.48
loop_
_atom_site_label
_atom_site_type_symbol
_atom_site_fract_x
_atom_site_fract_y
_atom_site_fract_z
_atom_site_U_iso_or_equiv
_atom_site_thermal_displace_type
Ag1 Ag 0.147255(15) 0.323067(15) 0.50308(5) 0.0195 Uani
O1 O 0.33676(13) 0.33306(13) 0.7849(4) 0.0175 Uani
N1 N 0.20678(15) 0.34446(15) 0.6588(5) 0.0146 Uani
N2 N 0.28152(15) 0.19960(16) 0.6217(5) 0.0159 Uani
C1 C 0.21791(19) 0.37884(18) 0.7625(6) 0.0158 Uani
H1 H 0.2007 0.3943 0.7619 0.0190 Uiso
C2 C 0.2535(2) 0.39251(19) 0.8700(7) 0.0188 Uani
H2 H 0.2602 0.4166 0.9425 0.0230 Uiso
C3 C 0.27891(19) 0.37043(18) 0.8697(6) 0.0166 Uani
H3 H 0.3041 0.3797 0.9397 0.0190 Uiso
C4 C 0.26700(19) 0.33432(18) 0.7649(6) 0.0143 Uani
C5 C 0.23083(18) 0.32234(19) 0.6631(6) 0.0144 Uani
H4 H 0.2226 0.2974 0.5929 0.0180 Uiso
C6 C 0.29514(19) 0.31102(19) 0.7602(6) 0.0133 Uani
C7 C 0.27219(19) 0.26080(19) 0.7283(6) 0.0147 Uani
C8 C 0.2284(2) 0.2299(2) 0.7775(7) 0.0199 Uani
H5 H 0.2100 0.2401 0.8295 0.0240 Uiso
C9 C 0.2114(2) 0.1833(2) 0.7499(7) 0.0230 Uani
H6 H 0.1815 0.1612 0.7848 0.0280 Uiso
C10 C 0.2383(2) 0.16965(19) 0.6720(7) 0.0198 Uani
H7 H 0.2260 0.1377 0.6523 0.0240 Uiso
C11 C 0.29763(19) 0.24404(19) 0.6509(6) 0.0153 Uani
H8 H 0.3280 0.2655 0.6174 0.0180 Uiso
C12 C 0.15433(19) 0.4172(2) 0.4454(7) 0.0214 Uani
O2 O 0.14268(16) 0.39689(16) 0.5713(5) 0.0339 Uani
O3 O 0.15623(15) 0.40243(15) 0.3136(5) 0.0290 Uani
C13 C 0.1710(2) 0.4691(2) 0.4495(8) 0.0299 Uani
F1 F 0.15811(15) 0.48291(13) 0.5757(4) 0.0383 Uani
F2 F 0.15552(17) 0.48278(15) 0.3258(5) 0.0468 Uani
F3 F 0.21697(14) 0.49371(13) 0.4428(6) 0.0505 Uani
Ag1J Ag 0.323067(15) 0.175812(21) 0.49692(5) 0.0195 Uani
O1J O 0.33306(13) -0.00370(18) 0.2151(4) 0.0175 Uani
N1J N 0.34446(15) 0.13768(21) 0.3412(5) 0.0146 Uani
N2J N 0.19960(16) -0.08192(22) 0.3783(5) 0.0159 Uani
C1J C 0.37884(18) 0.16093(26) 0.2375(6) 0.0158 Uani
H1J H 0.3943 0.1936 0.2381 0.0190 Uiso
C2J C 0.39251(19) 0.13901(28) 0.1300(7) 0.0188 Uani
H2J H 0.4166 0.1564 0.0575 0.0230 Uiso
C3J C 0.37043(18) 0.09152(26) 0.1303(6) 0.0166 Uani
H3J H 0.3797 0.0756 0.0603 0.0190 Uiso
C4J C 0.33432(18) 0.06732(26) 0.2351(6) 0.0143 Uani
C5J C 0.32234(19) 0.09151(26) 0.3369(6) 0.0144 Uani
H4J H 0.2974 0.0748 0.4071 0.0180 Uiso
C6J C 0.31102(19) 0.01588(27) 0.2398(6) 0.0133 Uani
C7J C 0.26080(19) -0.01139(27) 0.2717(6) 0.0147 Uani
C8J C 0.2299(2) 0.0015(3) 0.2225(7) 0.0199 Uani
H5J H 0.2401 0.0301 0.1705 0.0240 Uiso
C9J C 0.1833(2) -0.0281(3) 0.2501(7) 0.0230 Uani
H6J H 0.1612 -0.0203 0.2152 0.0280 Uiso
C10J C 0.16965(19) -0.06865(28) 0.3280(7) 0.0198 Uani
H7J H 0.1377 -0.0883 0.3477 0.0240 Uiso
C11J C 0.24404(19) -0.05359(27) 0.3491(6) 0.0153 Uani
H8J H 0.2655 -0.0625 0.3826 0.0180 Uiso
C12J C 0.4172(2) 0.26287(28) 0.5546(7) 0.0214 Uani
O2J O 0.39689(16) 0.25421(23) 0.4287(5) 0.0339 Uani
O3J O 0.40243(15) 0.24620(21) 0.6864(5) 0.0290 Uani
C13J C 0.4691(2) 0.2981(3) 0.5505(8) 0.0299 Uani
F1J F 0.48291(13) 0.32480(20) 0.4243(4) 0.0383 Uani
F2J F 0.48278(15) 0.32726(23) 0.6742(5) 0.0468 Uani
F3J F 0.49371(13) 0.27674(19) 0.5572(6) 0.0505 Uani
Ag1K Ag -0.175812(21) 0.147255(15) 0.49692(5) 0.0195 Uani
O1K O 0.00370(18) 0.33676(13) 0.2151(4) 0.0175 Uani
N1K N -0.13768(21) 0.20678(15) 0.3412(5) 0.0146 Uani
N2K N 0.08192(22) 0.28152(15) 0.3783(5) 0.0159 Uani
C1K C -0.16093(26) 0.21791(19) 0.2375(6) 0.0158 Uani
H1K H -0.1936 0.2007 0.2381 0.0190 Uiso
C2K C -0.13901(28) 0.2535(2) 0.1300(7) 0.0188 Uani
H2K H -0.1564 0.2602 0.0575 0.0230 Uiso
C3K C -0.09152(26) 0.27891(19) 0.1303(6) 0.0166 Uani
H3K H -0.0756 0.3041 0.0603 0.0190 Uiso
C4K C -0.06732(26) 0.26700(19) 0.2351(6) 0.0143 Uani
C5K C -0.09151(26) 0.23083(18) 0.3369(6) 0.0144 Uani
H4K H -0.0748 0.2226 0.4071 0.0180 Uiso
C6K C -0.01588(27) 0.29514(19) 0.2398(6) 0.0133 Uani
C7K C 0.01139(27) 0.27219(19) 0.2717(6) 0.0147 Uani
C8K C -0.0015(3) 0.2284(2) 0.2225(7) 0.0199 Uani
H5K H -0.0301 0.2100 0.1705 0.0240 Uiso
C9K C 0.0281(3) 0.2114(2) 0.2501(7) 0.0230 Uani
H6K H 0.0203 0.1815 0.2152 0.0280 Uiso
C10K C 0.06865(28) 0.2383(2) 0.3280(7) 0.0198 Uani
H7K H 0.0883 0.2260 0.3477 0.0240 Uiso
C11K C 0.05359(27) 0.29763(19) 0.3491(6) 0.0153 Uani
H8K H 0.0625 0.3280 0.3826 0.0180 Uiso
C12K C -0.26287(28) 0.15433(19) 0.5546(7) 0.0214 Uani
O2K O -0.25421(23) 0.14268(16) 0.4287(5) 0.0339 Uani
O3K O -0.24620(21) 0.15623(15) 0.6864(5) 0.0290 Uani
C13K C -0.2981(3) 0.1710(2) 0.5505(8) 0.0299 Uani
F1K F -0.32480(20) 0.15811(15) 0.4243(4) 0.0383 Uani
F2K F -0.32726(23) 0.15552(17) 0.6742(5) 0.0468 Uani
F3K F -0.27674(19) 0.21697(14) 0.5572(6) 0.0505 Uani
Ag1A Ag -0.323067(15) -0.175812(21) 0.50308(5) 0.0195 Uani
O1A O -0.33306(13) 0.00370(18) 0.7849(4) 0.0175 Uani
N1A N -0.34446(15) -0.13768(21) 0.6588(5) 0.0146 Uani
N2A N -0.19960(16) 0.08192(22) 0.6217(5) 0.0159 Uani
C1A C -0.37884(18) -0.16093(26) 0.7625(6) 0.0158 Uani
H1A H -0.3943 -0.1936 0.7619 0.0190 Uiso
C2A C -0.39251(19) -0.13901(28) 0.8700(7) 0.0188 Uani
H2A H -0.4166 -0.1564 0.9425 0.0230 Uiso
C3A C -0.37043(18) -0.09152(26) 0.8697(6) 0.0166 Uani
H3A H -0.3797 -0.0756 0.9397 0.0190 Uiso
C4A C -0.33432(18) -0.06732(26) 0.7649(6) 0.0143 Uani
C5A C -0.32234(19) -0.09151(26) 0.6631(6) 0.0144 Uani
H4A H -0.2974 -0.0748 0.5929 0.0180 Uiso
C6A C -0.31102(19) -0.01588(27) 0.7602(6) 0.0133 Uani
C7A C -0.26080(19) 0.01139(27) 0.7283(6) 0.0147 Uani
C8A C -0.2299(2) -0.0015(3) 0.7775(7) 0.0199 Uani
H5A H -0.2401 -0.0301 0.8295 0.0240 Uiso
C9A C -0.1833(2) 0.0281(3) 0.7499(7) 0.0230 Uani
H6A H -0.1612 0.0203 0.7848 0.0280 Uiso
C10A C -0.16965(19) 0.06865(28) 0.6720(7) 0.0198 Uani
H7A H -0.1377 0.0883 0.6523 0.0240 Uiso
C11A C -0.24404(19) 0.05359(27) 0.6509(6) 0.0153 Uani
H8A H -0.2655 0.0625 0.6174 0.0180 Uiso
C12A C -0.4172(2) -0.26287(28) 0.4454(7) 0.0214 Uani
O2A O -0.39689(16) -0.25421(23) 0.5713(5) 0.0339 Uani
O3A O -0.40243(15) -0.24620(21) 0.3136(5) 0.0290 Uani
C13A C -0.4691(2) -0.2981(3) 0.4495(8) 0.0299 Uani
F1A F -0.48291(13) -0.32480(20) 0.5757(4) 0.0383 Uani
F2A F -0.48278(15) -0.32726(23) 0.3258(5) 0.0468 Uani
F3A F -0.49371(13) -0.27674(19) 0.4428(6) 0.0505 Uani
Ag1B Ag 0.175812(21) -0.147255(15) 0.50308(5) 0.0195 Uani
O1B O -0.00370(18) -0.33676(13) 0.7849(4) 0.0175 Uani
N1B N 0.13768(21) -0.20678(15) 0.6588(5) 0.0146 Uani
N2B N -0.08192(22) -0.28152(15) 0.6217(5) 0.0159 Uani
C1B C 0.16093(26) -0.21791(19) 0.7625(6) 0.0158 Uani
H1B H 0.1936 -0.2007 0.7619 0.0190 Uiso
C2B C 0.13901(28) -0.2535(2) 0.8700(7) 0.0188 Uani
H2B H 0.1564 -0.2602 0.9425 0.0230 Uiso
C3B C 0.09152(26) -0.27891(19) 0.8697(6) 0.0166 Uani
H3B H 0.0756 -0.3041 0.9397 0.0190 Uiso
C4B C 0.06732(26) -0.26700(19) 0.7649(6) 0.0143 Uani
C5B C 0.09151(26) -0.23083(18) 0.6631(6) 0.0144 Uani
H4B H 0.0748 -0.2226 0.5929 0.0180 Uiso
C6B C 0.01588(27) -0.29514(19) 0.7602(6) 0.0133 Uani
C7B C -0.01139(27) -0.27219(19) 0.7283(6) 0.0147 Uani
C8B C 0.0015(3) -0.2284(2) 0.7775(7) 0.0199 Uani
H5B H 0.0301 -0.2100 0.8295 0.0240 Uiso
C9B C -0.0281(3) -0.2114(2) 0.7499(7) 0.0230 Uani
H6B H -0.0203 -0.1815 0.7848 0.0280 Uiso
C10B C -0.06865(28) -0.2383(2) 0.6720(7) 0.0198 Uani
H7B H -0.0883 -0.2260 0.6523 0.0240 Uiso
C11B C -0.05359(27) -0.29763(19) 0.6509(6) 0.0153 Uani
H8B H -0.0625 -0.3280 0.6174 0.0180 Uiso
C12B C 0.26287(28) -0.15433(19) 0.4454(7) 0.0214 Uani
O2B O 0.25421(23) -0.14268(16) 0.5713(5) 0.0339 Uani
O3B O 0.24620(21) -0.15623(15) 0.3136(5) 0.0290 Uani
C13B C 0.2981(3) -0.1710(2) 0.4495(8) 0.0299 Uani
F1B F 0.32480(20) -0.15811(15) 0.5757(4) 0.0383 Uani
F2B F 0.32726(23) -0.15552(17) 0.3258(5) 0.0468 Uani
F3B F 0.27674(19) -0.21697(14) 0.4428(6) 0.0505 Uani
Ag1I Ag -0.147255(15) -0.323067(15) 0.49692(5) 0.0195 Uani
O1I O -0.33676(13) -0.33306(13) 0.2151(4) 0.0175 Uani
N1I N -0.20678(15) -0.34446(15) 0.3412(5) 0.0146 Uani
N2I N -0.28152(15) -0.19960(16) 0.3783(5) 0.0159 Uani
C1I C -0.21791(19) -0.37884(18) 0.2375(6) 0.0158 Uani
H1I H -0.2007 -0.3943 0.2381 0.0190 Uiso
C2I C -0.2535(2) -0.39251(19) 0.1300(7) 0.0188 Uani
H2I H -0.2602 -0.4166 0.0575 0.0230 Uiso
C3I C -0.27891(19) -0.37043(18) 0.1303(6) 0.0166 Uani
H3I H -0.3041 -0.3797 0.0603 0.0190 Uiso
C4I C -0.26700(19) -0.33432(18) 0.2351(6) 0.0143 Uani
C5I C -0.23083(18) -0.32234(19) 0.3369(6) 0.0144 Uani
H4I H -0.2226 -0.2974 0.4071 0.0180 Uiso
C6I C -0.29514(19) -0.31102(19) 0.2398(6) 0.0133 Uani
C7I C -0.27219(19) -0.26080(19) 0.2717(6) 0.0147 Uani
C8I C -0.2284(2) -0.2299(2) 0.2225(7) 0.0199 Uani
H5I H -0.2100 -0.2401 0.1705 0.0240 Uiso
C9I C -0.2114(2) -0.1833(2) 0.2501(7) 0.0230 Uani
H6I H -0.1815 -0.1612 0.2152 0.0280 Uiso
C10I C -0.2383(2) -0.16965(19) 0.3280(7) 0.0198 Uani
H7I H -0.2260 -0.1377 0.3477 0.0240 Uiso
C11I C -0.29763(19) -0.24404(19) 0.3491(6) 0.0153 Uani
H8I H -0.3280 -0.2655 0.3826 0.0180 Uiso
C12I C -0.15433(19) -0.4172(2) 0.5546(7) 0.0214 Uani
O2I O -0.14268(16) -0.39689(16) 0.4287(5) 0.0339 Uani
O3I O -0.15623(15) -0.40243(15) 0.6864(5) 0.0290 Uani
C13I C -0.1710(2) -0.4691(2) 0.5505(8) 0.0299 Uani
F1I F -0.15811(15) -0.48291(13) 0.4243(4) 0.0383 Uani
F2I F -0.15552(17) -0.48278(15) 0.6742(5) 0.0468 Uani
F3I F -0.21697(14) -0.49371(13) 0.5572(6) 0.0505 Uani
O4 O 0.22077(17) 0.09052(17) 0.3660(6) 0.0402 Uani
H9 H 0.2307 0.0880 0.4539 0.0600 Uiso
C14 C 0.1722(3) 0.0713(3) 0.3737(9) 0.0443 Uani
H10 H 0.1647 0.0900 0.4450 0.0530 Uiso
H11 H 0.1577 0.0396 0.4158 0.0530 Uiso
C15 C 0.1541(3) 0.0707(3) 0.2141(10) 0.0554 Uani
H12 H 0.1600 0.0502 0.1461 0.0660 Uiso
H13 H 0.1710 0.1022 0.1694 0.0660 Uiso
C16 C 0.1029(4) 0.0544(4) 0.2118(15) 0.0898 Uani
H14 H 0.0966 0.0740 0.2829 0.1080 Uiso
H15 H 0.0938 0.0578 0.1043 0.1080 Uiso
C17 C 0.0757(6) 0.0070(6) 0.260(2) 0.1589 Uani
H16 H 0.0430 -0.0020 0.2595 0.2380 Uiso
H17 H 0.0848 0.0035 0.3661 0.2380 Uiso
H18 H 0.0808 -0.0126 0.1871 0.2380 Uiso
loop_
_atom_site_aniso_label
_atom_site_aniso_U_11
_atom_site_aniso_U_22
_atom_site_aniso_U_33
_atom_site_aniso_U_23
_atom_site_aniso_U_13
_atom_site_aniso_U_12
Ag1 0.0151(3) 0.0207(3) 0.0235(3) -0.00494(19) -0.00735(18) 0.0096(2)
O1 0.016(2) 0.022(2) 0.015(2) -0.0041(16) -0.0023(16) 0.0098(18)
N1 0.012(2) 0.014(2) 0.017(2) -0.0020(19) -0.0019(19) 0.006(2)
N2 0.015(2) 0.016(3) 0.017(2) -0.001(2) 0.000(2) 0.008(2)
C1 0.015(3) 0.009(3) 0.022(3) 0.000(2) 0.001(2) 0.005(2)
C2 0.030(3) 0.016(3) 0.015(3) -0.003(2) 0.002(3) 0.015(3)
C3 0.014(3) 0.015(3) 0.015(3) 0.002(2) -0.003(2) 0.003(2)
C4 0.016(3) 0.010(3) 0.011(3) 0.002(2) 0.005(2) 0.002(2)
C5 0.015(3) 0.017(3) 0.014(3) 0.000(2) 0.003(2) 0.010(2)
C6 0.018(3) 0.021(3) 0.004(3) 0.005(2) 0.005(2) 0.012(3)
C7 0.015(3) 0.016(3) 0.012(3) 0.002(2) 0.000(2) 0.007(2)
C8 0.023(3) 0.025(3) 0.021(3) 0.002(2) 0.005(2) 0.019(3)
C9 0.021(3) 0.014(3) 0.029(3) 0.003(3) 0.009(3) 0.005(3)
C10 0.023(3) 0.012(3) 0.026(3) 0.003(2) 0.000(3) 0.010(3)
C11 0.015(3) 0.016(3) 0.014(3) 0.000(2) -0.002(2) 0.007(2)
C12 0.011(3) 0.031(4) 0.027(4) -0.003(3) -0.004(2) 0.014(3)
O2 0.042(3) 0.032(3) 0.035(3) 0.003(2) 0.001(2) 0.024(2)
O3 0.026(2) 0.032(3) 0.031(3) -0.009(2) -0.003(2) 0.016(2)
C13 0.035(4) 0.031(4) 0.031(4) -0.004(3) 0.004(3) 0.022(3)
F1 0.059(3) 0.029(2) 0.035(2) -0.0039(17) 0.008(2) 0.028(2)
F2 0.077(3) 0.054(3) 0.035(2) 0.015(2) 0.015(2) 0.052(3)
F3 0.027(2) 0.028(2) 0.086(3) -0.011(2) 0.012(2) 0.0059(19)
Ag1J 0.0207 0.0166 0.0235 -0.00241 0.00494 0.0111
O1J 0.022 0.0184 0.015 0.0018 0.0041 0.0122
N1J 0.014 0.014 0.017 0.0001 0.002 0.008
N2J 0.016 0.015 0.017 0.001 0.001 0.008
C1J 0.009 0.014 0.022 0.001 0 0.004
C2J 0.016 0.016 0.015 0.005 0.003 0.001
C3J 0.015 0.023 0.015 -0.005 -0.002 0.012
C4J 0.01 0.022 0.011 0.003 -0.002 0.008
C5J 0.017 0.012 0.014 0.003 0 0.007
C6J 0.021 0.015 0.004 0 -0.005 0.009
C7J 0.016 0.017 0.012 -0.002 -0.002 0.009
C8J 0.025 0.01 0.021 0.003 -0.002 0.006
C9J 0.014 0.025 0.029 0.006 -0.003 0.009
C10J 0.012 0.015 0.026 -0.003 -0.003 0.002
C11J 0.016 0.017 0.014 -0.002 0 0.009
C12J 0.031 0.014 0.027 -0.001 0.003 0.017
O2J 0.032 0.026 0.035 -0.002 -0.003 0.008
O3J 0.032 0.026 0.031 0.006 0.009 0.016
C13J 0.031 0.022 0.031 0.008 0.004 0.009
F1J 0.029 0.032 0.035 0.0119 0.0039 0.001
F2J 0.054 0.027 0.035 0 -0.015 0.002
F3J 0.028 0.0432 0.086 0.023 0.011 0.0221
Ag1K 0.0166 0.0151 0.0235 0.00735 0.00241 0.0055
O1K 0.0184 0.016 0.015 0.0023 -0.0018 0.0062
N1K 0.014 0.012 0.017 0.0019 -0.0001 0.006
N2K 0.015 0.015 0.017 0 -0.001 0.007
C1K 0.014 0.015 0.022 -0.001 -0.001 0.01
C2K 0.016 0.03 0.015 -0.002 -0.005 0.015
C3K 0.023 0.014 0.015 0.003 0.005 0.011
C4K 0.022 0.016 0.011 -0.005 -0.003 0.014
C5K 0.012 0.015 0.014 -0.003 -0.003 0.005
C6K 0.015 0.018 0.004 -0.005 0 0.006
C7K 0.017 0.015 0.012 0 0.002 0.008
C8K 0.01 0.023 0.021 -0.005 -0.003 0.004
C9K 0.025 0.021 0.029 -0.009 -0.006 0.016
C10K 0.015 0.023 0.026 0 0.003 0.013
C11K 0.017 0.015 0.014 0.002 0.002 0.008
C12K 0.014 0.011 0.027 0.004 0.001 -0.003
O2K 0.026 0.042 0.035 -0.001 0.002 0.018
O3K 0.026 0.026 0.031 0.003 -0.006 0.01
C13K 0.022 0.035 0.031 -0.004 -0.008 0.013
F1K 0.032 0.059 0.035 -0.008 -0.0119 0.031
F2K 0.027 0.077 0.035 -0.015 0 0.025
F3K 0.0432 0.027 0.086 -0.012 -0.023 0.0211
Ag1A 0.0207 0.0166 0.0235 -0.00241 0.00494 0.0111
O1A 0.022 0.0184 0.015 0.0018 0.0041 0.0122
N1A 0.014 0.014 0.017 0.0001 0.002 0.008
N2A 0.016 0.015 0.017 0.001 0.001 0.008
C1A 0.009 0.014 0.022 0.001 0 0.004
C2A 0.016 0.016 0.015 0.005 0.003 0.001
C3A 0.015 0.023 0.015 -0.005 -0.002 0.012
C4A 0.01 0.022 0.011 0.003 -0.002 0.008
C5A 0.017 0.012 0.014 0.003 0 0.007
C6A 0.021 0.015 0.004 0 -0.005 0.009
C7A 0.016 0.017 0.012 -0.002 -0.002 0.009
C8A 0.025 0.01 0.021 0.003 -0.002 0.006
C9A 0.014 0.025 0.029 0.006 -0.003 0.009
C10A 0.012 0.015 0.026 -0.003 -0.003 0.002
C11A 0.016 0.017 0.014 -0.002 0 0.009
C12A 0.031 0.014 0.027 -0.001 0.003 0.017
O2A 0.032 0.026 0.035 -0.002 -0.003 0.008
O3A 0.032 0.026 0.031 0.006 0.009 0.016
C13A 0.031 0.022 0.031 0.008 0.004 0.009
F1A 0.029 0.032 0.035 0.0119 0.0039 0.001
F2A 0.054 0.027 0.035 0 -0.015 0.002
F3A 0.028 0.0432 0.086 0.023 0.011 0.0221
Ag1B 0.0166 0.0151 0.0235 0.00735 0.00241 0.0055
O1B 0.0184 0.016 0.015 0.0023 -0.0018 0.0062
N1B 0.014 0.012 0.017 0.0019 -0.0001 0.006
N2B 0.015 0.015 0.017 0 -0.001 0.007
C1B 0.014 0.015 0.022 -0.001 -0.001 0.01
C2B 0.016 0.03 0.015 -0.002 -0.005 0.015
C3B 0.023 0.014 0.015 0.003 0.005 0.011
C4B 0.022 0.016 0.011 -0.005 -0.003 0.014
C5B 0.012 0.015 0.014 -0.003 -0.003 0.005
C6B 0.015 0.018 0.004 -0.005 0 0.006
C7B 0.017 0.015 0.012 0 0.002 0.008
C8B 0.01 0.023 0.021 -0.005 -0.003 0.004
C9B 0.025 0.021 0.029 -0.009 -0.006 0.016
C10B 0.015 0.023 0.026 0 0.003 0.013
C11B 0.017 0.015 0.014 0.002 0.002 0.008
C12B 0.014 0.011 0.027 0.004 0.001 -0.003
O2B 0.026 0.042 0.035 -0.001 0.002 0.018
O3B 0.026 0.026 0.031 0.003 -0.006 0.01
C13B 0.022 0.035 0.031 -0.004 -0.008 0.013
F1B 0.032 0.059 0.035 -0.008 -0.0119 0.031
F2B 0.027 0.077 0.035 -0.015 0 0.025
F3B 0.0432 0.027 0.086 -0.012 -0.023 0.0211
Ag1I 0.0151 0.0207 0.0235 -0.00494 -0.00735 0.0096
O1I 0.016 0.022 0.015 -0.0041 -0.0023 0.0098
N1I 0.012 0.014 0.017 -0.002 -0.0019 0.006
N2I 0.015 0.016 0.017 -0.001 0 0.008
C1I 0.015 0.009 0.022 0 0.001 0.005
C2I 0.03 0.016 0.015 -0.003 0.002 0.015
C3I 0.014 0.015 0.015 0.002 -0.003 0.003
C4I 0.016 0.01 0.011 0.002 0.005 0.002
C5I 0.015 0.017 0.014 0 0.003 0.01
C6I 0.018 0.021 0.004 0.005 0.005 0.012
C7I 0.015 0.016 0.012 0.002 0 0.007
C8I 0.023 0.025 0.021 0.002 0.005 0.019
C9I 0.021 0.014 0.029 0.003 0.009 0.005
C10I 0.023 0.012 0.026 0.003 0 0.01
C11I 0.015 0.016 0.014 0 -0.002 0.007
C12I 0.011 0.031 0.027 -0.003 -0.004 0.014
O2I 0.042 0.032 0.035 0.003 0.001 0.024
O3I 0.026 0.032 0.031 -0.009 -0.003 0.016
C13I 0.035 0.031 0.031 -0.004 0.004 0.022
F1I 0.059 0.029 0.035 -0.0039 0.008 0.028
F2I 0.077 0.054 0.035 0.015 0.015 0.052
F3I 0.027 0.028 0.086 -0.011 0.012 0.0059
O4 0.041(3) 0.041(3) 0.038(2) 0.003(2) 0.003(2) 0.020(2)
C14 0.043(3) 0.044(3) 0.045(3) -0.003(3) -0.003(3) 0.021(3)
C15 0.062(4) 0.047(3) 0.061(4) 0.003(3) -0.009(3) 0.030(3)
C16 0.088(5) 0.082(4) 0.096(5) 0.006(4) -0.013(4) 0.040(4)
C17 0.154(7) 0.155(7) 0.162(7) 0.006(5) -0.011(5) 0.073(5)
loop_
_geom_bond_atom_site_label_1
_geom_bond_atom_site_label_2
_geom_bond_site_symmetry_1
_geom_bond_site_symmetry_2
Ag1 N1 1_555 1_555
O1 C6 1_555 1_555
N1 C1 1_555 1_555
N2 C10 1_555 1_555
C1 H1 1_555 1_555
C2 C1 1_555 1_555
H2 C2 1_555 1_555
C3 C2 1_555 1_555
H3 C3 1_555 1_555
C4 C3 1_555 1_555
C5 N1 1_555 1_555
H4 C5 1_555 1_555
C6 C4 1_555 1_555
C7 C6 1_555 1_555
C8 C7 1_555 1_555
H5 C8 1_555 1_555
C9 C8 1_555 1_555
H6 C9 1_555 1_555
C10 C9 1_555 1_555
H7 C10 1_555 1_555
C11 N2 1_555 1_555
H8 C11 1_555 1_555
C12 O2 1_555 1_555
O2 Ag1 1_555 1_555
O3 C12 1_555 1_555
C13 C12 1_555 1_555
F1 C13 1_555 1_555
F2 C13 1_555 1_555
F3 C13 1_555 1_555
O4 H9 1_555 1_555
C14 O4 1_555 1_555
H10 C14 1_555 1_555
H11 C14 1_555 1_555
C15 C14 1_555 1_555
H12 C15 1_555 1_555
H13 C15 1_555 1_555
C16 C15 1_555 1_555
H14 C16 1_555 1_555
H15 C16 1_555 1_555
C17 C16 1_555 1_555
H16 C17 1_555 1_555
H17 C17 1_555 1_555
H18 C17 1_555 1_555
Ag1J N2 1_555 1_555
O1J C6J 1_555 1_555
N1J Ag1J 1_555 1_555
N2J C10J 1_555 1_555
C1J N1J 1_555 1_555
H1J C1J 1_555 1_555
C2J C1J 1_555 1_555
H2J C2J 1_555 1_555
C3J C2J 1_555 1_555
H3J C3J 1_555 1_555
C4J C3J 1_555 1_555
C5J N1J 1_555 1_555
H4J C5J 1_555 1_555
C6J C4J 1_555 1_555
C7J C6J 1_555 1_555
C8J C7J 1_555 1_555
H5J C8J 1_555 1_555
C9J C8J 1_555 1_555
H6J C9J 1_555 1_555
C10J C9J 1_555 1_555
H7J C10J 1_555 1_555
C11J N2J 1_555 1_555
H8J C11J 1_555 1_555
C12J O2J 1_555 1_555
O2J Ag1J 1_555 1_555
O3J C12J 1_555 1_555
C13J C12J 1_555 1_555
F1J C13J 1_555 1_555
F2J C13J 1_555 1_555
F3J C13J 1_555 1_555
Ag1K N1K 1_555 1_555
O1K C6K 1_555 1_555
N1K C1K 1_555 1_555
N2K Ag1 1_555 1_555
C1K H1K 1_555 1_555
C2K C1K 1_555 1_555
H2K C2K 1_555 1_555
C3K C2K 1_555 1_555
H3K C3K 1_555 1_555
C4K C3K 1_555 1_555
C5K N1K 1_555 1_555
H4K C5K 1_555 1_555
C6K C4K 1_555 1_555
C7K C6K 1_555 1_555
C8K C7K 1_555 1_555
H5K C8K 1_555 1_555
C9K C8K 1_555 1_555
H6K C9K 1_555 1_555
C10K N2K 1_555 1_555
H7K C10K 1_555 1_555
C11K N2K 1_555 1_555
H8K C11K 1_555 1_555
C12K O2K 1_555 1_555
O2K Ag1K 1_555 1_555
O3K C12K 1_555 1_555
C13K C12K 1_555 1_555
F1K C13K 1_555 1_555
F2K C13K 1_555 1_555
F3K C13K 1_555 1_555
Ag1A N1A 1_555 1_555
O1A C6A 1_555 1_555
N1A C1A 1_555 1_555
N2A Ag1K 1_555 1_555
C1A H1A 1_555 1_555
C2A C1A 1_555 1_555
H2A C2A 1_555 1_555
C3A C2A 1_555 1_555
H3A C3A 1_555 1_555
C4A C3A 1_555 1_555
C5A N1A 1_555 1_555
H4A C5A 1_555 1_555
C6A C4A 1_555 1_555
C7A C6A 1_555 1_555
C8A C7A 1_555 1_555
H5A C8A 1_555 1_555
C9A C8A 1_555 1_555
H6A C9A 1_555 1_555
C10A N2A 1_555 1_555
H7A C10A 1_555 1_555
C11A N2A 1_555 1_555
H8A C11A 1_555 1_555
C12A O2A 1_555 1_555
O2A Ag1A 1_555 1_555
O3A C12A 1_555 1_555
C13A C12A 1_555 1_555
F1A C13A 1_555 1_555
F2A C13A 1_555 1_555
F3A C13A 1_555 1_555
Ag1B N2J 1_555 1_555
O1B C6B 1_555 1_555
N1B Ag1B 1_555 1_555
N2B C10B 1_555 1_555
C1B N1B 1_555 1_555
H1B C1B 1_555 1_555
C2B C1B 1_555 1_555
H2B C2B 1_555 1_555
C3B C2B 1_555 1_555
H3B C3B 1_555 1_555
C4B C3B 1_555 1_555
C5B N1B 1_555 1_555
H4B C5B 1_555 1_555
C6B C4B 1_555 1_555
C7B C6B 1_555 1_555
C8B C7B 1_555 1_555
H5B C8B 1_555 1_555
C9B C8B 1_555 1_555
H6B C9B 1_555 1_555
C10B C9B 1_555 1_555
H7B C10B 1_555 1_555
C11B N2B 1_555 1_555
H8B C11B 1_555 1_555
C12B O2B 1_555 1_555
O2B Ag1B 1_555 1_555
O3B C12B 1_555 1_555
C13B C12B 1_555 1_555
F1B C13B 1_555 1_555
F2B C13B 1_555 1_555
F3B C13B 1_555 1_555
Ag1I N2B 1_555 1_555
O1I C6I 1_555 1_555
N1I Ag1I 1_555 1_555
N2I Ag1A 1_555 1_555
C1I N1I 1_555 1_555
H1I C1I 1_555 1_555
C2I C1I 1_555 1_555
H2I C2I 1_555 1_555
C3I C2I 1_555 1_555
H3I C3I 1_555 1_555
C4I C3I 1_555 1_555
C5I N1I 1_555 1_555
H4I C5I 1_555 1_555
C6I C4I 1_555 1_555
C7I C6I 1_555 1_555
C8I C7I 1_555 1_555
H5I C8I 1_555 1_555
C9I C8I 1_555 1_555
H6I C9I 1_555 1_555
C10I N2I 1_555 1_555
H7I C10I 1_555 1_555
C11I N2I 1_555 1_555
H8I C11I 1_555 1_555
C12I O2I 1_555 1_555
O2I Ag1I 1_555 1_555
O3I C12I 1_555 1_555
C13I C12I 1_555 1_555
F1I C13I 1_555 1_555
F2I C13I 1_555 1_555
F3I C13I 1_555 1_555
C4 C5 1_555 1_555
C7 C11 1_555 1_555
C4J C5J 1_555 1_555
C7J C11J 1_555 1_555
C4K C5K 1_555 1_555
C7K C11K 1_555 1_555
C9K C10K 1_555 1_555
C4A C5A 1_555 1_555
C7A C11A 1_555 1_555
C9A C10A 1_555 1_555
C4B C5B 1_555 1_555
C7B C11B 1_555 1_555
C4I C5I 1_555 1_555
C7I C11I 1_555 1_555
C9I C10I 1_555 1_555

#END
