
#######################################################################
#
#                 Cambridge Crystallographic Data Centre
#                                CCDC 
#
#######################################################################
#
# If this CIF has been generated from an entry in the Cambridge 
# Structural Database, then it will include bibliographic, chemical, 
# crystal, experimental, refinement or atomic coordinate data resulting 
# from the CCDC's data processing and validation procedures.
#
#######################################################################

data_FUSMUC
_chemical_formula_moiety         'C79 H49 Ag6 Cl3 F18 N12 O18'
_symmetry_cell_setting           rhombohedral
_symmetry_space_group_name_H-M   'R -3'
_symmetry_Int_Tables_number      148
_space_group_name_Hall           '-R 3'
loop_
_symmetry_equiv_pos_site_id
_symmetry_equiv_pos_as_xyz
1 x,y,z
2 -y,x-y,z
3 -x+y,-x,z
4 2/3+x,1/3+y,1/3+z
5 2/3-y,1/3+x-y,1/3+z
6 2/3-x+y,1/3-x,1/3+z
7 1/3+x,2/3+y,2/3+z
8 1/3-y,2/3+x-y,2/3+z
9 1/3-x+y,2/3-x,2/3+z
10 -x,-y,-z
11 y,-x+y,-z
12 x-y,x,-z
13 1/3-x,2/3-y,2/3-z
14 1/3+y,2/3-x+y,2/3-z
15 1/3+x-y,2/3+x,2/3-z
16 2/3-x,1/3-y,1/3-z
17 2/3+y,1/3-x+y,1/3-z
18 2/3+x-y,1/3+x,1/3-z
_cell_length_a                   33.856(2)
_cell_length_b                   33.856(2)
_cell_length_c                   8.4224(12)
_cell_angle_alpha                90
_cell_angle_beta                 90
_cell_angle_gamma                120
_cell_volume                     8360.61
loop_
_atom_site_label
_atom_site_type_symbol
_atom_site_fract_x
_atom_site_fract_y
_atom_site_fract_z
_atom_site_U_iso_or_equiv
_atom_site_thermal_displace_type
Ag1 Ag 0.14736(2) 0.32092(2) 0.50424(7) 0.0329 Uani
O1 O 0.33504(17) 0.32901(17) 0.7864(6) 0.0278 Uani
N1 N 0.2062(2) 0.3407(2) 0.6593(7) 0.0237 Uani
N2 N 0.2775(2) 0.1961(2) 0.6149(8) 0.0300 Uani
C1 C 0.2194(2) 0.3766(2) 0.7617(9) 0.0261 Uani
H1 H 0.2029 0.3924 0.7616 0.0320 Uiso
C2 C 0.2555(3) 0.3906(3) 0.8645(9) 0.0308 Uani
H2 H 0.2638 0.4158 0.9333 0.0370 Uiso
C3 C 0.2792(2) 0.3677(3) 0.8659(9) 0.0254 Uani
H3 H 0.3046 0.3774 0.9348 0.0300 Uiso
C4 C 0.2664(2) 0.3305(2) 0.7670(8) 0.0206 Uani
C5 C 0.2294(2) 0.3181(2) 0.6657(8) 0.0239 Uani
H4 H 0.2201 0.2925 0.5981 0.0290 Uiso
C6 C 0.2934(3) 0.3069(3) 0.7629(8) 0.0257 Uani
C7 C 0.2703(2) 0.2573(2) 0.7289(8) 0.0221 Uani
C8 C 0.2274(3) 0.2268(3) 0.7852(10) 0.0369 Uani
H5 H 0.2101 0.2369 0.8436 0.0440 Uiso
C9 C 0.2103(3) 0.1810(3) 0.7538(11) 0.0388 Uani
H6 H 0.1809 0.1591 0.7913 0.0460 Uiso
C10 C 0.2358(3) 0.1672(3) 0.6687(9) 0.0334 Uani
H7 H 0.2232 0.1356 0.6471 0.0400 Uiso
C11 C 0.2948(3) 0.2410(2) 0.6462(8) 0.0236 Uani
H8 H 0.3247 0.2621 0.6104 0.0280 Uiso
C12 C 0.1539(3) 0.4126(3) 0.4589(11) 0.0374 Uani
O2 O 0.1532(2) 0.3916(2) 0.3364(8) 0.0559 Uani
O3 O 0.1486(2) 0.4013(3) 0.5949(9) 0.0593 Uani
C13 C 0.1642(3) 0.4618(3) 0.4228(13) 0.0524 Uani
F1 F 0.1551(2) 0.48167(18) 0.5408(7) 0.0597 Uani
F2 F 0.2085(2) 0.4887(2) 0.3899(10) 0.0932 Uani
F3 F 0.1402(3) 0.4629(3) 0.2971(8) 0.0914 Uani
Ag1J Ag 0.32092(2) 0.17356(3) 0.49576(7) 0.0329 Uani
O1J O 0.32901(17) -0.00603(24) 0.2136(6) 0.0278 Uani
N1J N 0.3407(2) 0.1345(3) 0.3407(7) 0.0237 Uani
N2J N 0.1961(2) -0.0814(3) 0.3851(8) 0.0300 Uani
C1J C 0.3766(2) 0.1572(3) 0.2383(9) 0.0261 Uani
H1J H 0.3924 0.1895 0.2384 0.0320 Uiso
C2J C 0.3906(3) 0.1351(4) 0.1355(9) 0.0308 Uani
H2J H 0.4158 0.1520 0.0667 0.0370 Uiso
C3J C 0.3677(3) 0.0885(4) 0.1341(9) 0.0254 Uani
H3J H 0.3774 0.0728 0.0652 0.0300 Uiso
C4J C 0.3305(2) 0.0641(3) 0.2330(8) 0.0206 Uani
C5J C 0.3181(2) 0.0887(3) 0.3343(8) 0.0239 Uani
H4J H 0.2925 0.0724 0.4019 0.0290 Uiso
C6J C 0.3069(3) 0.0135(4) 0.2371(8) 0.0257 Uani
C7J C 0.2573(2) -0.0130(3) 0.2711(8) 0.0221 Uani
C8J C 0.2268(3) -0.0006(4) 0.2148(10) 0.0369 Uani
H5J H 0.2369 0.0268 0.1564 0.0440 Uiso
C9J C 0.1810(3) -0.0293(4) 0.2462(11) 0.0388 Uani
H6J H 0.1591 -0.0218 0.2087 0.0460 Uiso
C10J C 0.1672(3) -0.0686(4) 0.3313(9) 0.0334 Uani
H7J H 0.1356 -0.0876 0.3529 0.0400 Uiso
C11J C 0.2410(2) -0.0538(4) 0.3538(8) 0.0236 Uani
H8J H 0.2621 -0.0626 0.3896 0.0280 Uiso
C12J C 0.4126(3) 0.2587(4) 0.5411(11) 0.0374 Uani
O2J O 0.3916(2) 0.2384(3) 0.6636(8) 0.0559 Uani
O3J O 0.4013(3) 0.2527(4) 0.4051(9) 0.0593 Uani
C13J C 0.4618(3) 0.2976(4) 0.5772(13) 0.0524 Uani
F1J F 0.48167(18) 0.32657(27) 0.4592(7) 0.0597 Uani
F2J F 0.4887(2) 0.2802(3) 0.6101(10) 0.0932 Uani
F3J F 0.4629(3) 0.3227(4) 0.7029(8) 0.0914 Uani
Ag1K Ag -0.17356(3) 0.14736(2) 0.49576(7) 0.0329 Uani
O1K O 0.00603(24) 0.33504(17) 0.2136(6) 0.0278 Uani
N1K N -0.1345(3) 0.2062(2) 0.3407(7) 0.0237 Uani
N2K N 0.0814(3) 0.2775(2) 0.3851(8) 0.0300 Uani
C1K C -0.1572(3) 0.2194(2) 0.2383(9) 0.0261 Uani
H1K H -0.1895 0.2029 0.2384 0.0320 Uiso
C2K C -0.1351(4) 0.2555(3) 0.1355(9) 0.0308 Uani
H2K H -0.1520 0.2638 0.0667 0.0370 Uiso
C3K C -0.0885(4) 0.2792(2) 0.1341(9) 0.0254 Uani
H3K H -0.0728 0.3046 0.0652 0.0300 Uiso
C4K C -0.0641(3) 0.2664(2) 0.2330(8) 0.0206 Uani
C5K C -0.0887(3) 0.2294(2) 0.3343(8) 0.0239 Uani
H4K H -0.0724 0.2201 0.4019 0.0290 Uiso
C6K C -0.0135(4) 0.2934(3) 0.2371(8) 0.0257 Uani
C7K C 0.0130(3) 0.2703(2) 0.2711(8) 0.0221 Uani
C8K C 0.0006(4) 0.2274(3) 0.2148(10) 0.0369 Uani
H5K H -0.0268 0.2101 0.1564 0.0440 Uiso
C9K C 0.0293(4) 0.2103(3) 0.2462(11) 0.0388 Uani
H6K H 0.0218 0.1809 0.2087 0.0460 Uiso
C10K C 0.0686(4) 0.2358(3) 0.3313(9) 0.0334 Uani
H7K H 0.0876 0.2232 0.3529 0.0400 Uiso
C11K C 0.0538(4) 0.2948(3) 0.3538(8) 0.0236 Uani
H8K H 0.0626 0.3247 0.3896 0.0280 Uiso
C12K C -0.2587(4) 0.1539(3) 0.5411(11) 0.0374 Uani
O2K O -0.2384(3) 0.1532(2) 0.6636(8) 0.0559 Uani
O3K O -0.2527(4) 0.1486(2) 0.4051(9) 0.0593 Uani
C13K C -0.2976(4) 0.1642(3) 0.5772(13) 0.0524 Uani
F1K F -0.32657(27) 0.1551(2) 0.4592(7) 0.0597 Uani
F2K F -0.2802(3) 0.2085(2) 0.6101(10) 0.0932 Uani
F3K F -0.3227(4) 0.1402(3) 0.7029(8) 0.0914 Uani
Ag1A Ag -0.32092(2) -0.17356(3) 0.50424(7) 0.0329 Uani
O1A O -0.32901(17) 0.00603(24) 0.7864(6) 0.0278 Uani
N1A N -0.3407(2) -0.1345(3) 0.6593(7) 0.0237 Uani
N2A N -0.1961(2) 0.0814(3) 0.6149(8) 0.0300 Uani
C1A C -0.3766(2) -0.1572(3) 0.7617(9) 0.0261 Uani
H1A H -0.3924 -0.1895 0.7616 0.0320 Uiso
C2A C -0.3906(3) -0.1351(4) 0.8645(9) 0.0308 Uani
H2A H -0.4158 -0.1520 0.9333 0.0370 Uiso
C3A C -0.3677(3) -0.0885(4) 0.8659(9) 0.0254 Uani
H3A H -0.3774 -0.0728 0.9348 0.0300 Uiso
C4A C -0.3305(2) -0.0641(3) 0.7670(8) 0.0206 Uani
C5A C -0.3181(2) -0.0887(3) 0.6657(8) 0.0239 Uani
H4A H -0.2925 -0.0724 0.5981 0.0290 Uiso
C6A C -0.3069(3) -0.0135(4) 0.7629(8) 0.0257 Uani
C7A C -0.2573(2) 0.0130(3) 0.7289(8) 0.0221 Uani
C8A C -0.2268(3) 0.0006(4) 0.7852(10) 0.0369 Uani
H5A H -0.2369 -0.0268 0.8436 0.0440 Uiso
C9A C -0.1810(3) 0.0293(4) 0.7538(11) 0.0388 Uani
H6A H -0.1591 0.0218 0.7913 0.0460 Uiso
C10A C -0.1672(3) 0.0686(4) 0.6687(9) 0.0334 Uani
H7A H -0.1356 0.0876 0.6471 0.0400 Uiso
C11A C -0.2410(2) 0.0538(4) 0.6462(8) 0.0236 Uani
H8A H -0.2621 0.0626 0.6104 0.0280 Uiso
C12A C -0.4126(3) -0.2587(4) 0.4589(11) 0.0374 Uani
O2A O -0.3916(2) -0.2384(3) 0.3364(8) 0.0559 Uani
O3A O -0.4013(3) -0.2527(4) 0.5949(9) 0.0593 Uani
C13A C -0.4618(3) -0.2976(4) 0.4228(13) 0.0524 Uani
F1A F -0.48167(18) -0.32657(27) 0.5408(7) 0.0597 Uani
F2A F -0.4887(2) -0.2802(3) 0.3899(10) 0.0932 Uani
F3A F -0.4629(3) -0.3227(4) 0.2971(8) 0.0914 Uani
Ag1B Ag 0.17356(3) -0.14736(2) 0.50424(7) 0.0329 Uani
O1B O -0.00603(24) -0.33504(17) 0.7864(6) 0.0278 Uani
N1B N 0.1345(3) -0.2062(2) 0.6593(7) 0.0237 Uani
N2B N -0.0814(3) -0.2775(2) 0.6149(8) 0.0300 Uani
C1B C 0.1572(3) -0.2194(2) 0.7617(9) 0.0261 Uani
H1B H 0.1895 -0.2029 0.7616 0.0320 Uiso
C2B C 0.1351(4) -0.2555(3) 0.8645(9) 0.0308 Uani
H2B H 0.1520 -0.2638 0.9333 0.0370 Uiso
C3B C 0.0885(4) -0.2792(2) 0.8659(9) 0.0254 Uani
H3B H 0.0728 -0.3046 0.9348 0.0300 Uiso
C4B C 0.0641(3) -0.2664(2) 0.7670(8) 0.0206 Uani
C5B C 0.0887(3) -0.2294(2) 0.6657(8) 0.0239 Uani
H4B H 0.0724 -0.2201 0.5981 0.0290 Uiso
C6B C 0.0135(4) -0.2934(3) 0.7629(8) 0.0257 Uani
C7B C -0.0130(3) -0.2703(2) 0.7289(8) 0.0221 Uani
C8B C -0.0006(4) -0.2274(3) 0.7852(10) 0.0369 Uani
H5B H 0.0268 -0.2101 0.8436 0.0440 Uiso
C9B C -0.0293(4) -0.2103(3) 0.7538(11) 0.0388 Uani
H6B H -0.0218 -0.1809 0.7913 0.0460 Uiso
C10B C -0.0686(4) -0.2358(3) 0.6687(9) 0.0334 Uani
H7B H -0.0876 -0.2232 0.6471 0.0400 Uiso
C11B C -0.0538(4) -0.2948(3) 0.6462(8) 0.0236 Uani
H8B H -0.0626 -0.3247 0.6104 0.0280 Uiso
C12B C 0.2587(4) -0.1539(3) 0.4589(11) 0.0374 Uani
O2B O 0.2384(3) -0.1532(2) 0.3364(8) 0.0559 Uani
O3B O 0.2527(4) -0.1486(2) 0.5949(9) 0.0593 Uani
C13B C 0.2976(4) -0.1642(3) 0.4228(13) 0.0524 Uani
F1B F 0.32657(27) -0.1551(2) 0.5408(7) 0.0597 Uani
F2B F 0.2802(3) -0.2085(2) 0.3899(10) 0.0932 Uani
F3B F 0.3227(4) -0.1402(3) 0.2971(8) 0.0914 Uani
Ag1I Ag -0.14736(2) -0.32092(2) 0.49576(7) 0.0329 Uani
O1I O -0.33504(17) -0.32901(17) 0.2136(6) 0.0278 Uani
N1I N -0.2062(2) -0.3407(2) 0.3407(7) 0.0237 Uani
N2I N -0.2775(2) -0.1961(2) 0.3851(8) 0.0300 Uani
C1I C -0.2194(2) -0.3766(2) 0.2383(9) 0.0261 Uani
H1I H -0.2029 -0.3924 0.2384 0.0320 Uiso
C2I C -0.2555(3) -0.3906(3) 0.1355(9) 0.0308 Uani
H2I H -0.2638 -0.4158 0.0667 0.0370 Uiso
C3I C -0.2792(2) -0.3677(3) 0.1341(9) 0.0254 Uani
H3I H -0.3046 -0.3774 0.0652 0.0300 Uiso
C4I C -0.2664(2) -0.3305(2) 0.2330(8) 0.0206 Uani
C5I C -0.2294(2) -0.3181(2) 0.3343(8) 0.0239 Uani
H4I H -0.2201 -0.2925 0.4019 0.0290 Uiso
C6I C -0.2934(3) -0.3069(3) 0.2371(8) 0.0257 Uani
C7I C -0.2703(2) -0.2573(2) 0.2711(8) 0.0221 Uani
C8I C -0.2274(3) -0.2268(3) 0.2148(10) 0.0369 Uani
H5I H -0.2101 -0.2369 0.1564 0.0440 Uiso
C9I C -0.2103(3) -0.1810(3) 0.2462(11) 0.0388 Uani
H6I H -0.1809 -0.1591 0.2087 0.0460 Uiso
C10I C -0.2358(3) -0.1672(3) 0.3313(9) 0.0334 Uani
H7I H -0.2232 -0.1356 0.3529 0.0400 Uiso
C11I C -0.2948(3) -0.2410(2) 0.3538(8) 0.0236 Uani
H8I H -0.3247 -0.2621 0.3896 0.0280 Uiso
C12I C -0.1539(3) -0.4126(3) 0.5411(11) 0.0374 Uani
O2I O -0.1532(2) -0.3916(2) 0.6636(8) 0.0559 Uani
O3I O -0.1486(2) -0.4013(3) 0.4051(9) 0.0593 Uani
C13I C -0.1642(3) -0.4618(3) 0.5772(13) 0.0524 Uani
F1I F -0.1551(2) -0.48167(18) 0.4592(7) 0.0597 Uani
F2I F -0.2085(2) -0.4887(2) 0.6101(10) 0.0932 Uani
F3I F -0.1402(3) -0.4629(3) 0.7029(8) 0.0914 Uani
C14 C 0.1219(5) 0.0699(6) 0.2154(19) 0.2580 Uani
H9 H 0.1141 0.0923 0.1689 0.3080 Uiso
Cl1 Cl 0.1696(5) 0.0755(3) 0.141(3) 0.6511 Uani
Cl2 Cl 0.1322(5) 0.0776(4) 0.4102(13) 0.3941 Uani
Cl3 Cl 0.0809(5) 0.0172(5) 0.1931(17) 0.4151 Uani
loop_
_atom_site_aniso_label
_atom_site_aniso_U_11
_atom_site_aniso_U_22
_atom_site_aniso_U_33
_atom_site_aniso_U_23
_atom_site_aniso_U_13
_atom_site_aniso_U_12
Ag1 0.0247(3) 0.0435(4) 0.0320(4) -0.0063(3) -0.0072(2) 0.0181(3)
O1 0.027(3) 0.034(3) 0.026(3) -0.005(2) -0.003(2) 0.018(2)
N1 0.022(3) 0.031(3) 0.023(3) -0.004(3) -0.001(2) 0.017(3)
N2 0.035(4) 0.029(4) 0.030(4) 0.004(3) 0.003(3) 0.019(3)
C1 0.027(4) 0.028(4) 0.025(4) -0.001(3) 0.002(3) 0.015(3)
C2 0.038(5) 0.028(4) 0.031(4) -0.008(3) -0.005(3) 0.020(4)
C3 0.023(4) 0.036(4) 0.023(4) 0.004(3) -0.002(3) 0.019(3)
C4 0.026(4) 0.021(4) 0.015(4) -0.002(3) 0.001(3) 0.012(3)
C5 0.024(4) 0.023(4) 0.021(4) -0.002(3) 0.004(3) 0.009(3)
C6 0.032(4) 0.033(4) 0.017(4) -0.002(3) -0.003(3) 0.020(4)
C7 0.030(4) 0.027(4) 0.013(4) 0.004(3) 0.001(3) 0.017(3)
C8 0.047(5) 0.039(5) 0.032(5) 0.003(4) 0.013(4) 0.027(4)
C9 0.032(5) 0.033(5) 0.051(6) 0.011(4) 0.018(4) 0.016(4)
C10 0.036(5) 0.030(4) 0.031(5) 0.007(3) 0.003(4) 0.014(4)
C11 0.029(4) 0.029(4) 0.012(4) 0.001(3) 0.001(3) 0.014(3)
C12 0.022(4) 0.053(5) 0.043(6) -0.005(4) -0.002(4) 0.023(4)
O2 0.043(4) 0.067(4) 0.065(5) -0.033(4) -0.009(3) 0.033(4)
O3 0.074(5) 0.083(5) 0.046(4) 0.015(4) 0.012(4) 0.058(4)
C13 0.051(6) 0.057(6) 0.056(7) 0.008(5) 0.026(5) 0.032(5)
F1 0.064(4) 0.051(3) 0.071(4) -0.011(3) 0.011(3) 0.034(3)
F2 0.072(5) 0.049(4) 0.157(7) 0.018(4) 0.058(5) 0.029(3)
F3 0.142(7) 0.144(7) 0.053(4) 0.033(4) 0.031(4) 0.120(6)
Ag1J 0.0435 0.032 0.032 -0.0009 0.0063 0.0254
O1J 0.034 0.025 0.026 0.002 0.005 0.016
N1J 0.031 0.019 0.023 0.003 0.004 0.014
N2J 0.029 0.026 0.03 -0.001 -0.004 0.01
C1J 0.028 0.025 0.025 0.003 0.001 0.013
C2J 0.028 0.026 0.031 0.003 0.008 0.008
C3J 0.036 0.021 0.023 -0.006 -0.004 0.017
C4J 0.021 0.023 0.015 0.003 0.002 0.009
C5J 0.023 0.029 0.021 0.006 0.002 0.014
C6J 0.033 0.025 0.017 -0.001 0.002 0.013
C7J 0.027 0.023 0.013 -0.003 -0.004 0.01
C8J 0.039 0.032 0.032 0.01 -0.003 0.012
C9J 0.033 0.033 0.051 0.007 -0.011 0.017
C10J 0.03 0.038 0.031 -0.004 -0.007 0.016
C11J 0.029 0.03 0.012 0 -0.001 0.015
C12J 0.053 0.029 0.043 0.003 0.005 0.03
O2J 0.067 0.044 0.065 0.024 0.033 0.034
O3J 0.083 0.041 0.046 -0.003 -0.015 0.025
C13J 0.057 0.044 0.056 0.018 -0.008 0.025
F1J 0.051 0.047 0.071 0.022 0.011 0.017
F2J 0.049 0.063 0.157 0.04 -0.018 0.02
F3J 0.144 0.046 0.053 -0.002 -0.033 0.024
Ag1K 0.032 0.0247 0.032 0.0072 0.0009 0.0066
O1K 0.025 0.027 0.026 0.003 -0.002 0.009
N1K 0.019 0.022 0.023 0.001 -0.003 0.005
N2K 0.026 0.035 0.03 -0.003 0.001 0.016
C1K 0.025 0.027 0.025 -0.002 -0.003 0.012
C2K 0.026 0.038 0.031 0.005 -0.003 0.018
C3K 0.021 0.023 0.023 0.002 0.006 0.004
C4K 0.023 0.026 0.015 -0.001 -0.003 0.014
C5K 0.029 0.024 0.021 -0.004 -0.006 0.015
C6K 0.025 0.032 0.017 0.003 0.001 0.012
C7K 0.023 0.03 0.013 -0.001 0.003 0.013
C8K 0.032 0.047 0.032 -0.013 -0.01 0.02
C9K 0.033 0.032 0.051 -0.018 -0.007 0.016
C10K 0.038 0.036 0.031 -0.003 0.004 0.022
C11K 0.03 0.029 0.012 -0.001 0 0.015
C12K 0.029 0.022 0.043 0.002 -0.003 -0.001
O2K 0.044 0.043 0.065 0.009 -0.024 0.01
O3K 0.041 0.074 0.046 -0.012 0.003 0.016
C13K 0.044 0.051 0.056 -0.026 -0.018 0.019
F1K 0.047 0.064 0.071 -0.011 -0.022 0.03
F2K 0.063 0.072 0.157 -0.058 -0.04 0.043
F3K 0.046 0.142 0.053 -0.031 0.002 0.022
Ag1A 0.0435 0.032 0.032 -0.0009 0.0063 0.0254
O1A 0.034 0.025 0.026 0.002 0.005 0.016
N1A 0.031 0.019 0.023 0.003 0.004 0.014
N2A 0.029 0.026 0.03 -0.001 -0.004 0.01
C1A 0.028 0.025 0.025 0.003 0.001 0.013
C2A 0.028 0.026 0.031 0.003 0.008 0.008
C3A 0.036 0.021 0.023 -0.006 -0.004 0.017
C4A 0.021 0.023 0.015 0.003 0.002 0.009
C5A 0.023 0.029 0.021 0.006 0.002 0.014
C6A 0.033 0.025 0.017 -0.001 0.002 0.013
C7A 0.027 0.023 0.013 -0.003 -0.004 0.01
C8A 0.039 0.032 0.032 0.01 -0.003 0.012
C9A 0.033 0.033 0.051 0.007 -0.011 0.017
C10A 0.03 0.038 0.031 -0.004 -0.007 0.016
C11A 0.029 0.03 0.012 0 -0.001 0.015
C12A 0.053 0.029 0.043 0.003 0.005 0.03
O2A 0.067 0.044 0.065 0.024 0.033 0.034
O3A 0.083 0.041 0.046 -0.003 -0.015 0.025
C13A 0.057 0.044 0.056 0.018 -0.008 0.025
F1A 0.051 0.047 0.071 0.022 0.011 0.017
F2A 0.049 0.063 0.157 0.04 -0.018 0.02
F3A 0.144 0.046 0.053 -0.002 -0.033 0.024
Ag1B 0.032 0.0247 0.032 0.0072 0.0009 0.0066
O1B 0.025 0.027 0.026 0.003 -0.002 0.009
N1B 0.019 0.022 0.023 0.001 -0.003 0.005
N2B 0.026 0.035 0.03 -0.003 0.001 0.016
C1B 0.025 0.027 0.025 -0.002 -0.003 0.012
C2B 0.026 0.038 0.031 0.005 -0.003 0.018
C3B 0.021 0.023 0.023 0.002 0.006 0.004
C4B 0.023 0.026 0.015 -0.001 -0.003 0.014
C5B 0.029 0.024 0.021 -0.004 -0.006 0.015
C6B 0.025 0.032 0.017 0.003 0.001 0.012
C7B 0.023 0.03 0.013 -0.001 0.003 0.013
C8B 0.032 0.047 0.032 -0.013 -0.01 0.02
C9B 0.033 0.032 0.051 -0.018 -0.007 0.016
C10B 0.038 0.036 0.031 -0.003 0.004 0.022
C11B 0.03 0.029 0.012 -0.001 0 0.015
C12B 0.029 0.022 0.043 0.002 -0.003 -0.001
O2B 0.044 0.043 0.065 0.009 -0.024 0.01
O3B 0.041 0.074 0.046 -0.012 0.003 0.016
C13B 0.044 0.051 0.056 -0.026 -0.018 0.019
F1B 0.047 0.064 0.071 -0.011 -0.022 0.03
F2B 0.063 0.072 0.157 -0.058 -0.04 0.043
F3B 0.046 0.142 0.053 -0.031 0.002 0.022
Ag1I 0.0247 0.0435 0.032 -0.0063 -0.0072 0.0181
O1I 0.027 0.034 0.026 -0.005 -0.003 0.018
N1I 0.022 0.031 0.023 -0.004 -0.001 0.017
N2I 0.035 0.029 0.03 0.004 0.003 0.019
C1I 0.027 0.028 0.025 -0.001 0.002 0.015
C2I 0.038 0.028 0.031 -0.008 -0.005 0.02
C3I 0.023 0.036 0.023 0.004 -0.002 0.019
C4I 0.026 0.021 0.015 -0.002 0.001 0.012
C5I 0.024 0.023 0.021 -0.002 0.004 0.009
C6I 0.032 0.033 0.017 -0.002 -0.003 0.02
C7I 0.03 0.027 0.013 0.004 0.001 0.017
C8I 0.047 0.039 0.032 0.003 0.013 0.027
C9I 0.032 0.033 0.051 0.011 0.018 0.016
C10I 0.036 0.03 0.031 0.007 0.003 0.014
C11I 0.029 0.029 0.012 0.001 0.001 0.014
C12I 0.022 0.053 0.043 -0.005 -0.002 0.023
O2I 0.043 0.067 0.065 -0.033 -0.009 0.033
O3I 0.074 0.083 0.046 0.015 0.012 0.058
C13I 0.051 0.057 0.056 0.008 0.026 0.032
F1I 0.064 0.051 0.071 -0.011 0.011 0.034
F2I 0.072 0.049 0.157 0.018 0.058 0.029
F3I 0.142 0.144 0.053 0.033 0.031 0.12
C14 0.21(3) 0.099(17) 0.39(5) -0.01(2) -0.20(3) 0.021(18)
Cl1 0.48(2) 0.107(6) 1.34(5) 0.120(14) 0.65(3) 0.127(9)
Cl2 0.52(2) 0.203(9) 0.277(13) 0.066(8) -0.187(14) 0.044(11)
Cl3 0.37(2) 0.289(16) 0.42(2) -0.012(15) -0.099(16) 0.040(14)
loop_
_geom_bond_atom_site_label_1
_geom_bond_atom_site_label_2
_geom_bond_site_symmetry_1
_geom_bond_site_symmetry_2
Ag1 N1 1_555 1_555
O1 C6 1_555 1_555
N1 C1 1_555 1_555
N2 C10 1_555 1_555
C1 H1 1_555 1_555
C2 C1 1_555 1_555
H2 C2 1_555 1_555
C3 C2 1_555 1_555
H3 C3 1_555 1_555
C4 C3 1_555 1_555
C5 N1 1_555 1_555
H4 C5 1_555 1_555
C6 C4 1_555 1_555
C7 C6 1_555 1_555
C8 C7 1_555 1_555
H5 C8 1_555 1_555
C9 C8 1_555 1_555
H6 C9 1_555 1_555
C10 C9 1_555 1_555
H7 C10 1_555 1_555
C11 N2 1_555 1_555
H8 C11 1_555 1_555
C12 O2 1_555 1_555
O2 Ag1 1_555 1_555
O3 C12 1_555 1_555
C13 C12 1_555 1_555
F1 C13 1_555 1_555
F2 C13 1_555 1_555
F3 C13 1_555 1_555
C14 H9 1_555 1_555
Cl1 C14 1_555 1_555
Cl2 C14 1_555 1_555
Cl3 C14 1_555 1_555
Ag1J N2 1_555 1_555
O1J C6J 1_555 1_555
N1J Ag1J 1_555 1_555
N2J C10J 1_555 1_555
C1J N1J 1_555 1_555
H1J C1J 1_555 1_555
C2J C1J 1_555 1_555
H2J C2J 1_555 1_555
C3J C2J 1_555 1_555
H3J C3J 1_555 1_555
C4J C3J 1_555 1_555
C5J N1J 1_555 1_555
H4J C5J 1_555 1_555
C6J C4J 1_555 1_555
C7J C6J 1_555 1_555
C8J C7J 1_555 1_555
H5J C8J 1_555 1_555
C9J C8J 1_555 1_555
H6J C9J 1_555 1_555
C10J C9J 1_555 1_555
H7J C10J 1_555 1_555
C11J N2J 1_555 1_555
H8J C11J 1_555 1_555
C12J O2J 1_555 1_555
O2J Ag1J 1_555 1_555
O3J C12J 1_555 1_555
C13J C12J 1_555 1_555
F1J C13J 1_555 1_555
F2J C13J 1_555 1_555
F3J C13J 1_555 1_555
Ag1K N1K 1_555 1_555
O1K C6K 1_555 1_555
N1K C1K 1_555 1_555
N2K Ag1 1_555 1_555
C1K H1K 1_555 1_555
C2K C1K 1_555 1_555
H2K C2K 1_555 1_555
C3K C2K 1_555 1_555
H3K C3K 1_555 1_555
C4K C3K 1_555 1_555
C5K N1K 1_555 1_555
H4K C5K 1_555 1_555
C6K C4K 1_555 1_555
C7K C6K 1_555 1_555
C8K C7K 1_555 1_555
H5K C8K 1_555 1_555
C9K C8K 1_555 1_555
H6K C9K 1_555 1_555
C10K N2K 1_555 1_555
H7K C10K 1_555 1_555
C11K N2K 1_555 1_555
H8K C11K 1_555 1_555
C12K O2K 1_555 1_555
O2K Ag1K 1_555 1_555
O3K C12K 1_555 1_555
C13K C12K 1_555 1_555
F1K C13K 1_555 1_555
F2K C13K 1_555 1_555
F3K C13K 1_555 1_555
Ag1A N1A 1_555 1_555
O1A C6A 1_555 1_555
N1A C1A 1_555 1_555
N2A Ag1K 1_555 1_555
C1A H1A 1_555 1_555
C2A C1A 1_555 1_555
H2A C2A 1_555 1_555
C3A C2A 1_555 1_555
H3A C3A 1_555 1_555
C4A C3A 1_555 1_555
C5A N1A 1_555 1_555
H4A C5A 1_555 1_555
C6A C4A 1_555 1_555
C7A C6A 1_555 1_555
C8A C7A 1_555 1_555
H5A C8A 1_555 1_555
C9A C8A 1_555 1_555
H6A C9A 1_555 1_555
C10A N2A 1_555 1_555
H7A C10A 1_555 1_555
C11A N2A 1_555 1_555
H8A C11A 1_555 1_555
C12A O2A 1_555 1_555
O2A Ag1A 1_555 1_555
O3A C12A 1_555 1_555
C13A C12A 1_555 1_555
F1A C13A 1_555 1_555
F2A C13A 1_555 1_555
F3A C13A 1_555 1_555
Ag1B N2J 1_555 1_555
O1B C6B 1_555 1_555
N1B Ag1B 1_555 1_555
N2B C10B 1_555 1_555
C1B N1B 1_555 1_555
H1B C1B 1_555 1_555
C2B C1B 1_555 1_555
H2B C2B 1_555 1_555
C3B C2B 1_555 1_555
H3B C3B 1_555 1_555
C4B C3B 1_555 1_555
C5B N1B 1_555 1_555
H4B C5B 1_555 1_555
C6B C4B 1_555 1_555
C7B C6B 1_555 1_555
C8B C7B 1_555 1_555
H5B C8B 1_555 1_555
C9B C8B 1_555 1_555
H6B C9B 1_555 1_555
C10B C9B 1_555 1_555
H7B C10B 1_555 1_555
C11B N2B 1_555 1_555
H8B C11B 1_555 1_555
C12B O2B 1_555 1_555
O2B Ag1B 1_555 1_555
O3B C12B 1_555 1_555
C13B C12B 1_555 1_555
F1B C13B 1_555 1_555
F2B C13B 1_555 1_555
F3B C13B 1_555 1_555
Ag1I N2B 1_555 1_555
O1I C6I 1_555 1_555
N1I Ag1I 1_555 1_555
N2I Ag1A 1_555 1_555
C1I N1I 1_555 1_555
H1I C1I 1_555 1_555
C2I C1I 1_555 1_555
H2I C2I 1_555 1_555
C3I C2I 1_555 1_555
H3I C3I 1_555 1_555
C4I C3I 1_555 1_555
C5I N1I 1_555 1_555
H4I C5I 1_555 1_555
C6I C4I 1_555 1_555
C7I C6I 1_555 1_555
C8I C7I 1_555 1_555
H5I C8I 1_555 1_555
C9I C8I 1_555 1_555
H6I C9I 1_555 1_555
C10I N2I 1_555 1_555
H7I C10I 1_555 1_555
C11I N2I 1_555 1_555
H8I C11I 1_555 1_555
C12I O2I 1_555 1_555
O2I Ag1I 1_555 1_555
O3I C12I 1_555 1_555
C13I C12I 1_555 1_555
F1I C13I 1_555 1_555
F2I C13I 1_555 1_555
F3I C13I 1_555 1_555
C4 C5 1_555 1_555
C7 C11 1_555 1_555
C4J C5J 1_555 1_555
C7J C11J 1_555 1_555
C4K C5K 1_555 1_555
C7K C11K 1_555 1_555
C9K C10K 1_555 1_555
C4A C5A 1_555 1_555
C7A C11A 1_555 1_555
C9A C10A 1_555 1_555
C4B C5B 1_555 1_555
C7B C11B 1_555 1_555
C4I C5I 1_555 1_555
C7I C11I 1_555 1_555
C9I C10I 1_555 1_555

#END
