
#######################################################################
#
#                 Cambridge Crystallographic Data Centre
#                                CCDC 
#
#######################################################################
#
# If this CIF has been generated from an entry in the Cambridge 
# Structural Database, then it will include bibliographic, chemical, 
# crystal, experimental, refinement or atomic coordinate data resulting 
# from the CCDC's data processing and validation procedures.
#
#######################################################################

data_FUSMEM
_chemical_formula_moiety         'C82 H56 Ag6 F18 N12 O19'
_symmetry_cell_setting           rhombohedral
_symmetry_space_group_name_H-M   'R -3'
_symmetry_Int_Tables_number      148
_space_group_name_Hall           '-R 3'
loop_
_symmetry_equiv_pos_site_id
_symmetry_equiv_pos_as_xyz
1 x,y,z
2 -y,x-y,z
3 -x+y,-x,z
4 2/3+x,1/3+y,1/3+z
5 2/3-y,1/3+x-y,1/3+z
6 2/3-x+y,1/3-x,1/3+z
7 1/3+x,2/3+y,2/3+z
8 1/3-y,2/3+x-y,2/3+z
9 1/3-x+y,2/3-x,2/3+z
10 -x,-y,-z
11 y,-x+y,-z
12 x-y,x,-z
13 1/3-x,2/3-y,2/3-z
14 1/3+y,2/3-x+y,2/3-z
15 1/3+x-y,2/3+x,2/3-z
16 2/3-x,1/3-y,1/3-z
17 2/3+y,1/3-x+y,1/3-z
18 2/3+x-y,1/3+x,1/3-z
_cell_length_a                   33.453(3)
_cell_length_b                   33.453(3)
_cell_length_c                   8.4275(12)
_cell_angle_alpha                90
_cell_angle_beta                 90
_cell_angle_gamma                120
_cell_volume                     8167.7
loop_
_atom_site_label
_atom_site_type_symbol
_atom_site_fract_x
_atom_site_fract_y
_atom_site_fract_z
_atom_site_U_iso_or_equiv
_atom_site_thermal_displace_type
Ag1 Ag 0.147058(8) 0.321810(9) 0.50263(3) 0.0323 Uani
O1 O 0.33491(7) 0.33006(7) 0.7924(2) 0.0286 Uani
N1 N 0.20605(9) 0.34242(9) 0.6615(3) 0.0261 Uani
N2 N 0.27857(9) 0.19738(9) 0.6182(3) 0.0277 Uani
C1 C 0.21847(11) 0.37789(11) 0.7602(4) 0.0294 Uani
H1 H 0.2018 0.3940 0.7572 0.0350 Uiso
C2 C 0.25446(11) 0.39209(11) 0.8664(4) 0.0298 Uani
H2 H 0.2621 0.4172 0.9360 0.0360 Uiso
C3 C 0.27909(11) 0.36936(10) 0.8700(4) 0.0277 Uani
H3 H 0.3045 0.3790 0.9404 0.0330 Uiso
C4 C 0.26631(10) 0.33225(10) 0.7697(3) 0.0239 Uani
C5 C 0.22944(10) 0.31975(10) 0.6675(3) 0.0247 Uani
H4 H 0.2205 0.2941 0.5991 0.0300 Uiso
C6 C 0.29388(10) 0.30853(10) 0.7665(3) 0.0238 Uani
C7 C 0.27083(10) 0.25845(10) 0.7321(3) 0.0244 Uani
C8 C 0.22695(11) 0.22745(11) 0.7858(4) 0.0314 Uani
H5 H 0.2092 0.2377 0.8430 0.0380 Uiso
C9 C 0.20962(12) 0.18099(12) 0.7536(4) 0.0367 Uani
H6 H 0.1797 0.1587 0.7891 0.0440 Uiso
C10 C 0.23600(11) 0.16772(11) 0.6704(4) 0.0330 Uani
H7 H 0.2236 0.1358 0.6485 0.0400 Uiso
C11 C 0.29543(10) 0.24189(10) 0.6509(3) 0.0256 Uani
H8 H 0.3259 0.2633 0.6168 0.0310 Uiso
C12 C 0.15379(11) 0.41398(12) 0.4486(4) 0.0339 Uani
O2 O 0.15432(9) 0.39517(10) 0.3241(3) 0.0512 Uani
O3 O 0.14579(10) 0.39872(10) 0.5837(3) 0.0513 Uani
C13 C 0.16693(14) 0.46460(14) 0.4281(5) 0.0444 Uani
F1 F 0.15578(9) 0.48173(8) 0.5511(3) 0.0533 Uani
F2 F 0.21216(9) 0.49099(8) 0.4070(4) 0.0723 Uani
F3 F 0.14635(11) 0.47054(11) 0.3020(3) 0.0751 Uani
Ag1J Ag 0.321810(9) 0.174752(12) 0.49737(3) 0.0323 Uani
O1J O 0.33006(7) -0.00485(10) 0.2076(2) 0.0286 Uani
N1J N 0.34242(9) 0.13637(13) 0.3385(3) 0.0261 Uani
N2J N 0.19738(9) -0.08119(13) 0.3818(3) 0.0277 Uani
C1J C 0.37789(11) 0.15942(16) 0.2398(4) 0.0294 Uani
H1J H 0.3940 0.1922 0.2428 0.0350 Uiso
C2J C 0.39209(11) 0.13763(16) 0.1336(4) 0.0298 Uani
H2J H 0.4172 0.1551 0.0640 0.0360 Uiso
C3J C 0.36936(10) 0.09027(15) 0.1300(4) 0.0277 Uani
H3J H 0.3790 0.0745 0.0596 0.0330 Uiso
C4J C 0.33225(10) 0.06594(14) 0.2303(3) 0.0239 Uani
C5J C 0.31975(10) 0.09031(14) 0.3325(3) 0.0247 Uani
H4J H 0.2941 0.0736 0.4009 0.0300 Uiso
C6J C 0.30853(10) 0.01465(14) 0.2335(3) 0.0238 Uani
C7J C 0.25845(10) -0.01238(14) 0.2679(3) 0.0244 Uani
C8J C 0.22745(11) 0.00050(16) 0.2142(4) 0.0314 Uani
H5J H 0.2377 0.0285 0.1570 0.0380 Uiso
C9J C 0.18099(12) -0.02863(17) 0.2464(4) 0.0367 Uani
H6J H 0.1587 -0.0210 0.2109 0.0440 Uiso
C10J C 0.16772(11) -0.06828(16) 0.3296(4) 0.0330 Uani
H7J H 0.1358 -0.0878 0.3515 0.0400 Uiso
C11J C 0.24189(10) -0.05354(14) 0.3491(3) 0.0256 Uani
H8J H 0.2633 -0.0626 0.3832 0.0310 Uiso
C12J C 0.41398(12) 0.26019(16) 0.5514(4) 0.0339 Uani
O2J O 0.39517(10) 0.24085(13) 0.6759(3) 0.0512 Uani
O3J O 0.39872(10) 0.25293(14) 0.4163(3) 0.0513 Uani
C13J C 0.46460(14) 0.29767(20) 0.5719(5) 0.0444 Uani
F1J F 0.48173(8) 0.32595(12) 0.4489(3) 0.0533 Uani
F2J F 0.49099(8) 0.27883(12) 0.5930(4) 0.0723 Uani
F3J F 0.47054(11) 0.32419(16) 0.6980(3) 0.0751 Uani
Ag1K Ag -0.174752(12) 0.147058(8) 0.49737(3) 0.0323 Uani
O1K O 0.00485(10) 0.33491(7) 0.2076(2) 0.0286 Uani
N1K N -0.13637(13) 0.20605(9) 0.3385(3) 0.0261 Uani
N2K N 0.08119(13) 0.27857(9) 0.3818(3) 0.0277 Uani
C1K C -0.15942(16) 0.21847(11) 0.2398(4) 0.0294 Uani
H1K H -0.1922 0.2018 0.2428 0.0350 Uiso
C2K C -0.13763(16) 0.25446(11) 0.1336(4) 0.0298 Uani
H2K H -0.1551 0.2621 0.0640 0.0360 Uiso
C3K C -0.09027(15) 0.27909(11) 0.1300(4) 0.0277 Uani
H3K H -0.0745 0.3045 0.0596 0.0330 Uiso
C4K C -0.06594(14) 0.26631(10) 0.2303(3) 0.0239 Uani
C5K C -0.09031(14) 0.22944(10) 0.3325(3) 0.0247 Uani
H4K H -0.0736 0.2205 0.4009 0.0300 Uiso
C6K C -0.01465(14) 0.29388(10) 0.2335(3) 0.0238 Uani
C7K C 0.01238(14) 0.27083(10) 0.2679(3) 0.0244 Uani
C8K C -0.00050(16) 0.22695(11) 0.2142(4) 0.0314 Uani
H5K H -0.0285 0.2092 0.1570 0.0380 Uiso
C9K C 0.02863(17) 0.20962(12) 0.2464(4) 0.0367 Uani
H6K H 0.0210 0.1797 0.2109 0.0440 Uiso
C10K C 0.06828(16) 0.23600(11) 0.3296(4) 0.0330 Uani
H7K H 0.0878 0.2236 0.3515 0.0400 Uiso
C11K C 0.05354(14) 0.29543(10) 0.3491(3) 0.0256 Uani
H8K H 0.0626 0.3259 0.3832 0.0310 Uiso
C12K C -0.26019(16) 0.15379(11) 0.5514(4) 0.0339 Uani
O2K O -0.24085(13) 0.15432(9) 0.6759(3) 0.0512 Uani
O3K O -0.25293(14) 0.14579(10) 0.4163(3) 0.0513 Uani
C13K C -0.29767(20) 0.16693(14) 0.5719(5) 0.0444 Uani
F1K F -0.32595(12) 0.15578(9) 0.4489(3) 0.0533 Uani
F2K F -0.27883(12) 0.21216(9) 0.5930(4) 0.0723 Uani
F3K F -0.32419(16) 0.14635(11) 0.6980(3) 0.0751 Uani
Ag1A Ag -0.321810(9) -0.174752(12) 0.50263(3) 0.0323 Uani
O1A O -0.33006(7) 0.00485(10) 0.7924(2) 0.0286 Uani
N1A N -0.34242(9) -0.13637(13) 0.6615(3) 0.0261 Uani
N2A N -0.19738(9) 0.08119(13) 0.6182(3) 0.0277 Uani
C1A C -0.37789(11) -0.15942(16) 0.7602(4) 0.0294 Uani
H1A H -0.3940 -0.1922 0.7572 0.0350 Uiso
C2A C -0.39209(11) -0.13763(16) 0.8664(4) 0.0298 Uani
H2A H -0.4172 -0.1551 0.9360 0.0360 Uiso
C3A C -0.36936(10) -0.09027(15) 0.8700(4) 0.0277 Uani
H3A H -0.3790 -0.0745 0.9404 0.0330 Uiso
C4A C -0.33225(10) -0.06594(14) 0.7697(3) 0.0239 Uani
C5A C -0.31975(10) -0.09031(14) 0.6675(3) 0.0247 Uani
H4A H -0.2941 -0.0736 0.5991 0.0300 Uiso
C6A C -0.30853(10) -0.01465(14) 0.7665(3) 0.0238 Uani
C7A C -0.25845(10) 0.01238(14) 0.7321(3) 0.0244 Uani
C8A C -0.22745(11) -0.00050(16) 0.7858(4) 0.0314 Uani
H5A H -0.2377 -0.0285 0.8430 0.0380 Uiso
C9A C -0.18099(12) 0.02863(17) 0.7536(4) 0.0367 Uani
H6A H -0.1587 0.0210 0.7891 0.0440 Uiso
C10A C -0.16772(11) 0.06828(16) 0.6704(4) 0.0330 Uani
H7A H -0.1358 0.0878 0.6485 0.0400 Uiso
C11A C -0.24189(10) 0.05354(14) 0.6509(3) 0.0256 Uani
H8A H -0.2633 0.0626 0.6168 0.0310 Uiso
C12A C -0.41398(12) -0.26019(16) 0.4486(4) 0.0339 Uani
O2A O -0.39517(10) -0.24085(13) 0.3241(3) 0.0512 Uani
O3A O -0.39872(10) -0.25293(14) 0.5837(3) 0.0513 Uani
C13A C -0.46460(14) -0.29767(20) 0.4281(5) 0.0444 Uani
F1A F -0.48173(8) -0.32595(12) 0.5511(3) 0.0533 Uani
F2A F -0.49099(8) -0.27883(12) 0.4070(4) 0.0723 Uani
F3A F -0.47054(11) -0.32419(16) 0.3020(3) 0.0751 Uani
Ag1B Ag 0.174752(12) -0.147058(8) 0.50263(3) 0.0323 Uani
O1B O -0.00485(10) -0.33491(7) 0.7924(2) 0.0286 Uani
N1B N 0.13637(13) -0.20605(9) 0.6615(3) 0.0261 Uani
N2B N -0.08119(13) -0.27857(9) 0.6182(3) 0.0277 Uani
C1B C 0.15942(16) -0.21847(11) 0.7602(4) 0.0294 Uani
H1B H 0.1922 -0.2018 0.7572 0.0350 Uiso
C2B C 0.13763(16) -0.25446(11) 0.8664(4) 0.0298 Uani
H2B H 0.1551 -0.2621 0.9360 0.0360 Uiso
C3B C 0.09027(15) -0.27909(11) 0.8700(4) 0.0277 Uani
H3B H 0.0745 -0.3045 0.9404 0.0330 Uiso
C4B C 0.06594(14) -0.26631(10) 0.7697(3) 0.0239 Uani
C5B C 0.09031(14) -0.22944(10) 0.6675(3) 0.0247 Uani
H4B H 0.0736 -0.2205 0.5991 0.0300 Uiso
C6B C 0.01465(14) -0.29388(10) 0.7665(3) 0.0238 Uani
C7B C -0.01238(14) -0.27083(10) 0.7321(3) 0.0244 Uani
C8B C 0.00050(16) -0.22695(11) 0.7858(4) 0.0314 Uani
H5B H 0.0285 -0.2092 0.8430 0.0380 Uiso
C9B C -0.02863(17) -0.20962(12) 0.7536(4) 0.0367 Uani
H6B H -0.0210 -0.1797 0.7891 0.0440 Uiso
C10B C -0.06828(16) -0.23600(11) 0.6704(4) 0.0330 Uani
H7B H -0.0878 -0.2236 0.6485 0.0400 Uiso
C11B C -0.05354(14) -0.29543(10) 0.6509(3) 0.0256 Uani
H8B H -0.0626 -0.3259 0.6168 0.0310 Uiso
C12B C 0.26019(16) -0.15379(11) 0.4486(4) 0.0339 Uani
O2B O 0.24085(13) -0.15432(9) 0.3241(3) 0.0512 Uani
O3B O 0.25293(14) -0.14579(10) 0.5837(3) 0.0513 Uani
C13B C 0.29767(20) -0.16693(14) 0.4281(5) 0.0444 Uani
F1B F 0.32595(12) -0.15578(9) 0.5511(3) 0.0533 Uani
F2B F 0.27883(12) -0.21216(9) 0.4070(4) 0.0723 Uani
F3B F 0.32419(16) -0.14635(11) 0.3020(3) 0.0751 Uani
Ag1I Ag -0.147058(8) -0.321810(9) 0.49737(3) 0.0323 Uani
O1I O -0.33491(7) -0.33006(7) 0.2076(2) 0.0286 Uani
N1I N -0.20605(9) -0.34242(9) 0.3385(3) 0.0261 Uani
N2I N -0.27857(9) -0.19738(9) 0.3818(3) 0.0277 Uani
C1I C -0.21847(11) -0.37789(11) 0.2398(4) 0.0294 Uani
H1I H -0.2018 -0.3940 0.2428 0.0350 Uiso
C2I C -0.25446(11) -0.39209(11) 0.1336(4) 0.0298 Uani
H2I H -0.2621 -0.4172 0.0640 0.0360 Uiso
C3I C -0.27909(11) -0.36936(10) 0.1300(4) 0.0277 Uani
H3I H -0.3045 -0.3790 0.0596 0.0330 Uiso
C4I C -0.26631(10) -0.33225(10) 0.2303(3) 0.0239 Uani
C5I C -0.22944(10) -0.31975(10) 0.3325(3) 0.0247 Uani
H4I H -0.2205 -0.2941 0.4009 0.0300 Uiso
C6I C -0.29388(10) -0.30853(10) 0.2335(3) 0.0238 Uani
C7I C -0.27083(10) -0.25845(10) 0.2679(3) 0.0244 Uani
C8I C -0.22695(11) -0.22745(11) 0.2142(4) 0.0314 Uani
H5I H -0.2092 -0.2377 0.1570 0.0380 Uiso
C9I C -0.20962(12) -0.18099(12) 0.2464(4) 0.0367 Uani
H6I H -0.1797 -0.1587 0.2109 0.0440 Uiso
C10I C -0.23600(11) -0.16772(11) 0.3296(4) 0.0330 Uani
H7I H -0.2236 -0.1358 0.3515 0.0400 Uiso
C11I C -0.29543(10) -0.24189(10) 0.3491(3) 0.0256 Uani
H8I H -0.3259 -0.2633 0.3832 0.0310 Uiso
C12I C -0.15379(11) -0.41398(12) 0.5514(4) 0.0339 Uani
O2I O -0.15432(9) -0.39517(10) 0.6759(3) 0.0512 Uani
O3I O -0.14579(10) -0.39872(10) 0.4163(3) 0.0513 Uani
C13I C -0.16693(14) -0.46460(14) 0.5719(5) 0.0444 Uani
F1I F -0.15578(9) -0.48173(8) 0.4489(3) 0.0533 Uani
F2I F -0.21216(9) -0.49099(8) 0.5930(4) 0.0723 Uani
F3I F -0.14635(11) -0.47054(11) 0.6980(3) 0.0751 Uani
O4 O 0.0941(5) 0.0164(6) 0.2530(16) 0.3662 Uani
C14 C 0.1207(4) 0.0381(5) 0.3878(12) 0.1807 Uani
H9 H 0.1243 0.0155 0.4530 0.2170 Uiso
H10 H 0.1054 0.0511 0.4530 0.2170 Uiso
C15 C 0.1666(4) 0.0755(3) 0.3347(10) 0.1982 Uani
H11 H 0.1727 0.1057 0.3757 0.2370 Uiso
H12 H 0.1914 0.0698 0.3723 0.2370 Uiso
C16 C 0.1644(4) 0.0746(3) 0.1588(10) 0.1676 Uani
H13 H 0.1748 0.1058 0.1162 0.2020 Uiso
H14 H 0.1842 0.0631 0.1141 0.2020 Uiso
C17 C 0.1156(4) 0.0429(6) 0.1195(14) 0.2407 Uani
H15 H 0.1005 0.0608 0.0883 0.2880 Uiso
H16 H 0.1132 0.0228 0.0297 0.2880 Uiso
loop_
_atom_site_aniso_label
_atom_site_aniso_U_11
_atom_site_aniso_U_22
_atom_site_aniso_U_33
_atom_site_aniso_U_23
_atom_site_aniso_U_13
_atom_site_aniso_U_12
Ag1 0.02790(15) 0.03667(16) 0.03356(17) -0.00507(10) -0.00809(9) 0.01701(11)
O1 0.0259(12) 0.0358(12) 0.0239(11) -0.0039(9) -0.0026(8) 0.0152(10)
N1 0.0258(13) 0.0299(13) 0.0239(13) -0.0016(10) -0.0003(10) 0.0148(11)
N2 0.0326(14) 0.0284(14) 0.0252(14) 0.0023(10) 0.0018(10) 0.0175(12)
C1 0.0300(16) 0.0306(16) 0.0298(17) 0.0001(13) 0.0031(13) 0.0168(14)
C2 0.0329(17) 0.0285(16) 0.0272(17) -0.0060(12) -0.0023(13) 0.0148(14)
C3 0.0297(16) 0.0290(16) 0.0225(16) -0.0014(12) -0.0026(12) 0.0133(13)
C4 0.0255(15) 0.0260(15) 0.0188(15) 0.0015(11) 0.0029(11) 0.0119(12)
C5 0.0263(15) 0.0247(14) 0.0218(15) -0.0010(11) 0.0016(12) 0.0117(13)
C6 0.0293(16) 0.0307(16) 0.0125(14) 0.0011(11) 0.0008(11) 0.0159(13)
C7 0.0277(15) 0.0290(15) 0.0184(15) 0.0011(11) -0.0013(11) 0.0155(13)
C8 0.0316(17) 0.0329(17) 0.0332(18) 0.0037(13) 0.0056(13) 0.0188(14)
C9 0.0308(17) 0.0300(17) 0.047(2) 0.0072(15) 0.0092(15) 0.0135(14)
C10 0.0344(17) 0.0257(16) 0.0378(19) 0.0019(13) -0.0003(14) 0.0142(14)
C11 0.0276(15) 0.0272(15) 0.0221(15) 0.0042(12) 0.0019(12) 0.0137(13)
C12 0.0287(17) 0.0381(18) 0.041(2) -0.0063(15) -0.0026(14) 0.0212(15)
O2 0.0419(15) 0.0548(16) 0.0563(17) -0.0224(14) -0.0048(12) 0.0238(13)
O3 0.0685(19) 0.0541(17) 0.0474(17) 0.0107(13) 0.0089(13) 0.0428(15)
C13 0.049(2) 0.051(2) 0.044(2) 0.0051(17) 0.0133(17) 0.0331(19)
F1 0.0694(15) 0.0473(13) 0.0560(15) -0.0050(10) 0.0104(12) 0.0388(12)
F2 0.0566(15) 0.0419(13) 0.112(2) 0.0065(14) 0.0316(15) 0.0198(12)
F3 0.115(2) 0.109(2) 0.0480(15) 0.0242(15) 0.0158(15) 0.091(2)
Ag1J 0.03667 0.03055 0.03356 -0.00302 0.00507 0.01966
O1J 0.0358 0.0313 0.0239 0.0013 0.0039 0.0206
N1J 0.0299 0.0261 0.0239 0.0013 0.0016 0.0151
N2J 0.0284 0.026 0.0252 -0.0005 -0.0023 0.0109
C1J 0.0306 0.027 0.0298 0.003 -0.0001 0.0138
C2J 0.0285 0.0318 0.0272 0.0037 0.006 0.0137
C3J 0.029 0.0321 0.0225 -0.0012 0.0014 0.0157
C4J 0.026 0.0277 0.0188 0.0014 -0.0015 0.0141
C5J 0.0247 0.0276 0.0218 0.0026 0.001 0.013
C6J 0.0307 0.0282 0.0125 -0.0003 -0.0011 0.0148
C7J 0.029 0.0257 0.0184 -0.0024 -0.0011 0.0135
C8J 0.0329 0.0269 0.0332 0.0019 -0.0037 0.0141
C9J 0.03 0.0338 0.047 0.002 -0.0072 0.0165
C10J 0.0257 0.0317 0.0378 -0.0022 -0.0019 0.0115
C11J 0.0272 0.0274 0.0221 -0.0023 -0.0042 0.0135
C12J 0.0381 0.0244 0.041 0.0037 0.0063 0.0169
O2J 0.0548 0.0491 0.0563 0.0176 0.0224 0.031
O3J 0.0541 0.037 0.0474 -0.0018 -0.0107 0.0113
C13J 0.051 0.0338 0.044 0.0082 -0.0051 0.0179
F1J 0.0473 0.0391 0.056 0.0154 0.005 0.0085
F2J 0.0419 0.0589 0.112 0.0251 -0.0065 0.0221
F3J 0.109 0.042 0.048 -0.0084 -0.0242 0.018
Ag1K 0.03055 0.0279 0.03356 0.00809 0.00302 0.01089
O1K 0.0313 0.0259 0.0239 0.0026 -0.0013 0.0107
N1K 0.0261 0.0258 0.0239 0.0003 -0.0013 0.011
N2K 0.026 0.0326 0.0252 -0.0018 0.0005 0.0151
C1K 0.027 0.03 0.0298 -0.0031 -0.003 0.0132
C2K 0.0318 0.0329 0.0272 0.0023 -0.0037 0.0181
C3K 0.0321 0.0297 0.0225 0.0026 0.0012 0.0164
C4K 0.0277 0.0255 0.0188 -0.0029 -0.0014 0.0136
C5K 0.0276 0.0263 0.0218 -0.0016 -0.0026 0.0146
C6K 0.0282 0.0293 0.0125 -0.0008 0.0003 0.0134
C7K 0.0257 0.0277 0.0184 0.0013 0.0024 0.0122
C8K 0.0269 0.0316 0.0332 -0.0056 -0.0019 0.0128
C9K 0.0338 0.0308 0.047 -0.0092 -0.002 0.0173
C10K 0.0317 0.0344 0.0378 0.0003 0.0022 0.0202
C11K 0.0274 0.0276 0.0221 -0.0019 0.0023 0.0139
C12K 0.0244 0.0287 0.041 0.0026 -0.0037 0.0075
O2K 0.0491 0.0419 0.0563 0.0048 -0.0176 0.0181
O3K 0.037 0.0685 0.0474 -0.0089 0.0018 0.0257
C13K 0.0338 0.049 0.044 -0.0133 -0.0082 0.0159
F1K 0.0391 0.0694 0.056 -0.0104 -0.0154 0.0306
F2K 0.0589 0.0566 0.112 -0.0316 -0.0251 0.0368
F3K 0.042 0.115 0.048 -0.0158 0.0084 0.024
Ag1A 0.03667 0.03055 0.03356 -0.00302 0.00507 0.01966
O1A 0.0358 0.0313 0.0239 0.0013 0.0039 0.0206
N1A 0.0299 0.0261 0.0239 0.0013 0.0016 0.0151
N2A 0.0284 0.026 0.0252 -0.0005 -0.0023 0.0109
C1A 0.0306 0.027 0.0298 0.003 -0.0001 0.0138
C2A 0.0285 0.0318 0.0272 0.0037 0.006 0.0137
C3A 0.029 0.0321 0.0225 -0.0012 0.0014 0.0157
C4A 0.026 0.0277 0.0188 0.0014 -0.0015 0.0141
C5A 0.0247 0.0276 0.0218 0.0026 0.001 0.013
C6A 0.0307 0.0282 0.0125 -0.0003 -0.0011 0.0148
C7A 0.029 0.0257 0.0184 -0.0024 -0.0011 0.0135
C8A 0.0329 0.0269 0.0332 0.0019 -0.0037 0.0141
C9A 0.03 0.0338 0.047 0.002 -0.0072 0.0165
C10A 0.0257 0.0317 0.0378 -0.0022 -0.0019 0.0115
C11A 0.0272 0.0274 0.0221 -0.0023 -0.0042 0.0135
C12A 0.0381 0.0244 0.041 0.0037 0.0063 0.0169
O2A 0.0548 0.0491 0.0563 0.0176 0.0224 0.031
O3A 0.0541 0.037 0.0474 -0.0018 -0.0107 0.0113
C13A 0.051 0.0338 0.044 0.0082 -0.0051 0.0179
F1A 0.0473 0.0391 0.056 0.0154 0.005 0.0085
F2A 0.0419 0.0589 0.112 0.0251 -0.0065 0.0221
F3A 0.109 0.042 0.048 -0.0084 -0.0242 0.018
Ag1B 0.03055 0.0279 0.03356 0.00809 0.00302 0.01089
O1B 0.0313 0.0259 0.0239 0.0026 -0.0013 0.0107
N1B 0.0261 0.0258 0.0239 0.0003 -0.0013 0.011
N2B 0.026 0.0326 0.0252 -0.0018 0.0005 0.0151
C1B 0.027 0.03 0.0298 -0.0031 -0.003 0.0132
C2B 0.0318 0.0329 0.0272 0.0023 -0.0037 0.0181
C3B 0.0321 0.0297 0.0225 0.0026 0.0012 0.0164
C4B 0.0277 0.0255 0.0188 -0.0029 -0.0014 0.0136
C5B 0.0276 0.0263 0.0218 -0.0016 -0.0026 0.0146
C6B 0.0282 0.0293 0.0125 -0.0008 0.0003 0.0134
C7B 0.0257 0.0277 0.0184 0.0013 0.0024 0.0122
C8B 0.0269 0.0316 0.0332 -0.0056 -0.0019 0.0128
C9B 0.0338 0.0308 0.047 -0.0092 -0.002 0.0173
C10B 0.0317 0.0344 0.0378 0.0003 0.0022 0.0202
C11B 0.0274 0.0276 0.0221 -0.0019 0.0023 0.0139
C12B 0.0244 0.0287 0.041 0.0026 -0.0037 0.0075
O2B 0.0491 0.0419 0.0563 0.0048 -0.0176 0.0181
O3B 0.037 0.0685 0.0474 -0.0089 0.0018 0.0257
C13B 0.0338 0.049 0.044 -0.0133 -0.0082 0.0159
F1B 0.0391 0.0694 0.056 -0.0104 -0.0154 0.0306
F2B 0.0589 0.0566 0.112 -0.0316 -0.0251 0.0368
F3B 0.042 0.115 0.048 -0.0158 0.0084 0.024
Ag1I 0.0279 0.03667 0.03356 -0.00507 -0.00809 0.01701
O1I 0.0259 0.0358 0.0239 -0.0039 -0.0026 0.0152
N1I 0.0258 0.0299 0.0239 -0.0016 -0.0003 0.0148
N2I 0.0326 0.0284 0.0252 0.0023 0.0018 0.0175
C1I 0.03 0.0306 0.0298 0.0001 0.0031 0.0168
C2I 0.0329 0.0285 0.0272 -0.006 -0.0023 0.0148
C3I 0.0297 0.029 0.0225 -0.0014 -0.0026 0.0133
C4I 0.0255 0.026 0.0188 0.0015 0.0029 0.0119
C5I 0.0263 0.0247 0.0218 -0.001 0.0016 0.0117
C6I 0.0293 0.0307 0.0125 0.0011 0.0008 0.0159
C7I 0.0277 0.029 0.0184 0.0011 -0.0013 0.0155
C8I 0.0316 0.0329 0.0332 0.0037 0.0056 0.0188
C9I 0.0308 0.03 0.047 0.0072 0.0092 0.0135
C10I 0.0344 0.0257 0.0378 0.0019 -0.0003 0.0142
C11I 0.0276 0.0272 0.0221 0.0042 0.0019 0.0137
C12I 0.0287 0.0381 0.041 -0.0063 -0.0026 0.0212
O2I 0.0419 0.0548 0.0563 -0.0224 -0.0048 0.0238
O3I 0.0685 0.0541 0.0474 0.0107 0.0089 0.0428
C13I 0.049 0.051 0.044 0.0051 0.0133 0.0331
F1I 0.0694 0.0473 0.056 -0.005 0.0104 0.0388
F2I 0.0566 0.0419 0.112 0.0065 0.0316 0.0198
F3I 0.115 0.109 0.048 0.0242 0.0158 0.091
O4 0.314(16) 0.386(18) 0.256(15) 0.031(14) -0.055(13) 0.068(13)
C14 0.195(12) 0.207(12) 0.146(10) 0.024(9) -0.009(9) 0.105(10)
C15 0.347(16) 0.092(6) 0.132(8) 0.012(5) 0.078(10) 0.092(8)
C16 0.274(13) 0.076(5) 0.148(8) 0.024(5) 0.111(9) 0.084(7)
C17 0.167(11) 0.294(17) 0.162(12) 0.056(11) -0.035(10) 0.041(11)
loop_
_geom_bond_atom_site_label_1
_geom_bond_atom_site_label_2
_geom_bond_site_symmetry_1
_geom_bond_site_symmetry_2
Ag1 N1 1_555 1_555
O1 C6 1_555 1_555
N1 C1 1_555 1_555
N2 C10 1_555 1_555
C1 H1 1_555 1_555
C2 C1 1_555 1_555
H2 C2 1_555 1_555
C3 C2 1_555 1_555
H3 C3 1_555 1_555
C4 C3 1_555 1_555
C5 N1 1_555 1_555
H4 C5 1_555 1_555
C6 C4 1_555 1_555
C7 C6 1_555 1_555
C8 C7 1_555 1_555
H5 C8 1_555 1_555
C9 C8 1_555 1_555
H6 C9 1_555 1_555
C10 C9 1_555 1_555
H7 C10 1_555 1_555
C11 N2 1_555 1_555
H8 C11 1_555 1_555
C12 O2 1_555 1_555
O3 Ag1 1_555 1_555
C13 C12 1_555 1_555
F1 C13 1_555 1_555
F2 C13 1_555 1_555
F3 C13 1_555 1_555
O4 C14 1_555 1_555
C14 H9 1_555 1_555
H10 C14 1_555 1_555
C15 C14 1_555 1_555
H11 C15 1_555 1_555
H12 C15 1_555 1_555
C16 C15 1_555 1_555
H13 C16 1_555 1_555
H14 C16 1_555 1_555
C17 O4 1_555 1_555
H15 C17 1_555 1_555
H16 C17 1_555 1_555
Ag1J N2 1_555 1_555
O1J C6J 1_555 1_555
N1J Ag1J 1_555 1_555
N2J C10J 1_555 1_555
C1J N1J 1_555 1_555
H1J C1J 1_555 1_555
C2J C1J 1_555 1_555
H2J C2J 1_555 1_555
C3J C2J 1_555 1_555
H3J C3J 1_555 1_555
C4J C3J 1_555 1_555
C5J N1J 1_555 1_555
H4J C5J 1_555 1_555
C6J C4J 1_555 1_555
C7J C6J 1_555 1_555
C8J C7J 1_555 1_555
H5J C8J 1_555 1_555
C9J C8J 1_555 1_555
H6J C9J 1_555 1_555
C10J C9J 1_555 1_555
H7J C10J 1_555 1_555
C11J N2J 1_555 1_555
H8J C11J 1_555 1_555
C12J O2J 1_555 1_555
O3J Ag1J 1_555 1_555
C13J C12J 1_555 1_555
F1J C13J 1_555 1_555
F2J C13J 1_555 1_555
F3J C13J 1_555 1_555
Ag1K N1K 1_555 1_555
O1K C6K 1_555 1_555
N1K C1K 1_555 1_555
N2K Ag1 1_555 1_555
C1K H1K 1_555 1_555
C2K C1K 1_555 1_555
H2K C2K 1_555 1_555
C3K C2K 1_555 1_555
H3K C3K 1_555 1_555
C4K C3K 1_555 1_555
C5K N1K 1_555 1_555
H4K C5K 1_555 1_555
C6K C4K 1_555 1_555
C7K C6K 1_555 1_555
C8K C7K 1_555 1_555
H5K C8K 1_555 1_555
C9K C8K 1_555 1_555
H6K C9K 1_555 1_555
C10K N2K 1_555 1_555
H7K C10K 1_555 1_555
C11K N2K 1_555 1_555
H8K C11K 1_555 1_555
C12K O2K 1_555 1_555
O3K Ag1K 1_555 1_555
C13K C12K 1_555 1_555
F1K C13K 1_555 1_555
F2K C13K 1_555 1_555
F3K C13K 1_555 1_555
Ag1A N1A 1_555 1_555
O1A C6A 1_555 1_555
N1A C1A 1_555 1_555
N2A Ag1K 1_555 1_555
C1A H1A 1_555 1_555
C2A C1A 1_555 1_555
H2A C2A 1_555 1_555
C3A C2A 1_555 1_555
H3A C3A 1_555 1_555
C4A C3A 1_555 1_555
C5A N1A 1_555 1_555
H4A C5A 1_555 1_555
C6A C4A 1_555 1_555
C7A C6A 1_555 1_555
C8A C7A 1_555 1_555
H5A C8A 1_555 1_555
C9A C8A 1_555 1_555
H6A C9A 1_555 1_555
C10A N2A 1_555 1_555
H7A C10A 1_555 1_555
C11A N2A 1_555 1_555
H8A C11A 1_555 1_555
C12A O2A 1_555 1_555
O3A Ag1A 1_555 1_555
C13A C12A 1_555 1_555
F1A C13A 1_555 1_555
F2A C13A 1_555 1_555
F3A C13A 1_555 1_555
Ag1B N2J 1_555 1_555
O1B C6B 1_555 1_555
N1B Ag1B 1_555 1_555
N2B C10B 1_555 1_555
C1B N1B 1_555 1_555
H1B C1B 1_555 1_555
C2B C1B 1_555 1_555
H2B C2B 1_555 1_555
C3B C2B 1_555 1_555
H3B C3B 1_555 1_555
C4B C3B 1_555 1_555
C5B N1B 1_555 1_555
H4B C5B 1_555 1_555
C6B C4B 1_555 1_555
C7B C6B 1_555 1_555
C8B C7B 1_555 1_555
H5B C8B 1_555 1_555
C9B C8B 1_555 1_555
H6B C9B 1_555 1_555
C10B C9B 1_555 1_555
H7B C10B 1_555 1_555
C11B N2B 1_555 1_555
H8B C11B 1_555 1_555
C12B O2B 1_555 1_555
O3B Ag1B 1_555 1_555
C13B C12B 1_555 1_555
F1B C13B 1_555 1_555
F2B C13B 1_555 1_555
F3B C13B 1_555 1_555
Ag1I N2B 1_555 1_555
O1I C6I 1_555 1_555
N1I Ag1I 1_555 1_555
N2I Ag1A 1_555 1_555
C1I N1I 1_555 1_555
H1I C1I 1_555 1_555
C2I C1I 1_555 1_555
H2I C2I 1_555 1_555
C3I C2I 1_555 1_555
H3I C3I 1_555 1_555
C4I C3I 1_555 1_555
C5I N1I 1_555 1_555
H4I C5I 1_555 1_555
C6I C4I 1_555 1_555
C7I C6I 1_555 1_555
C8I C7I 1_555 1_555
H5I C8I 1_555 1_555
C9I C8I 1_555 1_555
H6I C9I 1_555 1_555
C10I N2I 1_555 1_555
H7I C10I 1_555 1_555
C11I N2I 1_555 1_555
H8I C11I 1_555 1_555
C12I O2I 1_555 1_555
O3I Ag1I 1_555 1_555
C13I C12I 1_555 1_555
F1I C13I 1_555 1_555
F2I C13I 1_555 1_555
F3I C13I 1_555 1_555
C4 C5 1_555 1_555
C7 C11 1_555 1_555
C12 O3 1_555 1_555
C16 C17 1_555 1_555
C4J C5J 1_555 1_555
C7J C11J 1_555 1_555
C12J O3J 1_555 1_555
C4K C5K 1_555 1_555
C7K C11K 1_555 1_555
C9K C10K 1_555 1_555
C12K O3K 1_555 1_555
C4A C5A 1_555 1_555
C7A C11A 1_555 1_555
C9A C10A 1_555 1_555
C12A O3A 1_555 1_555
C4B C5B 1_555 1_555
C7B C11B 1_555 1_555
C12B O3B 1_555 1_555
C4I C5I 1_555 1_555
C7I C11I 1_555 1_555
C9I C10I 1_555 1_555
C12I O3I 1_555 1_555

#END
