
#######################################################################
#
#                 Cambridge Crystallographic Data Centre
#                                CCDC 
#
#######################################################################
#
# If this CIF has been generated from an entry in the Cambridge 
# Structural Database, then it will include bibliographic, chemical, 
# crystal, experimental, refinement or atomic coordinate data resulting 
# from the CCDC's data processing and validation procedures.
#
#######################################################################

data_FUSMOW
_chemical_formula_moiety         'C82 H58 Ag6 F18 N12 O19'
_symmetry_cell_setting           rhombohedral
_symmetry_space_group_name_H-M   'R -3'
_symmetry_Int_Tables_number      148
_space_group_name_Hall           '-R 3'
loop_
_symmetry_equiv_pos_site_id
_symmetry_equiv_pos_as_xyz
1 x,y,z
2 -y,x-y,z
3 -x+y,-x,z
4 2/3+x,1/3+y,1/3+z
5 2/3-y,1/3+x-y,1/3+z
6 2/3-x+y,1/3-x,1/3+z
7 1/3+x,2/3+y,2/3+z
8 1/3-y,2/3+x-y,2/3+z
9 1/3-x+y,2/3-x,2/3+z
10 -x,-y,-z
11 y,-x+y,-z
12 x-y,x,-z
13 1/3-x,2/3-y,2/3-z
14 1/3+y,2/3-x+y,2/3-z
15 1/3+x-y,2/3+x,2/3-z
16 2/3-x,1/3-y,1/3-z
17 2/3+y,1/3-x+y,1/3-z
18 2/3+x-y,1/3+x,1/3-z
_cell_length_a                   34.1447(14)
_cell_length_b                   34.1447(14)
_cell_length_c                   8.3594(7)
_cell_angle_alpha                90
_cell_angle_beta                 90
_cell_angle_gamma                120
_cell_volume                     8440.19
loop_
_atom_site_label
_atom_site_type_symbol
_atom_site_fract_x
_atom_site_fract_y
_atom_site_fract_z
Ag1 Ag 0.147114(9) 0.320138(9) 0.50711(3)
O1 O 0.33472(8) 0.32830(8) 0.7758(3)
N1 N 0.20603(9) 0.33960(9) 0.6612(3)
N2 N 0.27764(10) 0.19651(10) 0.6094(3)
C1 C 0.21966(12) 0.37535(12) 0.7596(4)
H1 H 0.2031 0.3910 0.7606
C2 C 0.25698(12) 0.39028(11) 0.8596(4)
H2 H 0.2658 0.4157 0.9275
C3 C 0.28109(12) 0.36768(11) 0.8589(4)
H3 H 0.3069 0.3775 0.9252
C4 C 0.26696(11) 0.33031(11) 0.7598(4)
C5 C 0.22933(11) 0.31740(11) 0.6630(4)
H4 H 0.2197 0.2918 0.5954
C6 C 0.29392(11) 0.30693(11) 0.7531(4)
C7 C 0.27079(11) 0.25735(11) 0.7212(4)
C8 C 0.22820(12) 0.22737(12) 0.7817(4)
H5 H 0.2114 0.2379 0.8402
C9 C 0.21096(13) 0.18141(12) 0.7536(5)
H6 H 0.1820 0.1598 0.7935
C10 C 0.23631(13) 0.16772(12) 0.6673(4)
H7 H 0.2240 0.1363 0.6477
C11 C 0.29427(12) 0.24057(11) 0.6384(4)
H8 H 0.3237 0.2614 0.6001
C12 C 0.15298(11) 0.41045(13) 0.4648(5)
O2 O 0.15351(10) 0.38954(10) 0.3442(4)
O3 O 0.14637(11) 0.39825(10) 0.6040(4)
C13 C 0.16362(15) 0.45894(15) 0.4298(5)
F1 F 0.15380(9) 0.47818(8) 0.5503(3)
F2 F 0.20734(11) 0.48575(10) 0.3975(5)
F3 F 0.14003(14) 0.46042(13) 0.3027(3)
Ag1J Ag 0.320138(9) 0.173024(13) 0.49289(3)
O1J O 0.32830(8) -0.00642(11) 0.2242(3)
N1J N 0.33960(9) 0.13357(13) 0.3388(3)
N2J N 0.19651(10) -0.08113(14) 0.3906(3)
C1J C 0.37535(12) 0.15569(17) 0.2404(4)
H1J H 0.3910 0.1879 0.2394
C2J C 0.39028(11) 0.13330(16) 0.1404(4)
H2J H 0.4157 0.1499 0.0725
C3J C 0.36768(11) 0.08659(16) 0.1411(4)
H3J H 0.3775 0.0706 0.0748
C4J C 0.33031(11) 0.06335(16) 0.2402(4)
C5J C 0.31740(11) 0.08807(16) 0.3370(4)
H4J H 0.2918 0.0721 0.4046
C6J C 0.30693(11) 0.01301(16) 0.2469(4)
C7J C 0.25735(11) -0.01344(16) 0.2788(4)
C8J C 0.22737(12) -0.00083(17) 0.2183(4)
H5J H 0.2379 0.0265 0.1598
C9J C 0.18141(12) -0.02955(18) 0.2464(5)
H6J H 0.1598 -0.0222 0.2065
C10J C 0.16772(12) -0.06859(18) 0.3327(4)
H7J H 0.1363 -0.0877 0.3523
C11J C 0.24057(11) -0.05370(16) 0.3616(4)
H8J H 0.2614 -0.0623 0.3999
C12J C 0.41045(13) 0.25747(17) 0.5352(5)
O2J O 0.38954(10) 0.23603(14) 0.6558(4)
O3J O 0.39825(10) 0.25188(15) 0.3960(4)
C13J C 0.45894(15) 0.29532(21) 0.5702(5)
F1J F 0.47818(8) 0.32438(12) 0.4497(3)
F2J F 0.48575(10) 0.27841(15) 0.6025(5)
F3J F 0.46042(13) 0.32039(19) 0.6973(3)
Ag1K Ag -0.173024(13) 0.147114(9) 0.49289(3)
O1K O 0.00642(11) 0.33472(8) 0.2242(3)
N1K N -0.13357(13) 0.20603(9) 0.3388(3)
N2K N 0.08113(14) 0.27764(10) 0.3906(3)
C1K C -0.15569(17) 0.21966(12) 0.2404(4)
H1K H -0.1879 0.2031 0.2394
C2K C -0.13330(16) 0.25698(12) 0.1404(4)
H2K H -0.1499 0.2658 0.0725
C3K C -0.08659(16) 0.28109(12) 0.1411(4)
H3K H -0.0706 0.3069 0.0748
C4K C -0.06335(16) 0.26696(11) 0.2402(4)
C5K C -0.08807(16) 0.22933(11) 0.3370(4)
H4K H -0.0721 0.2197 0.4046
C6K C -0.01301(16) 0.29392(11) 0.2469(4)
C7K C 0.01344(16) 0.27079(11) 0.2788(4)
C8K C 0.00083(17) 0.22820(12) 0.2183(4)
H5K H -0.0265 0.2114 0.1598
C9K C 0.02955(18) 0.21096(13) 0.2464(5)
H6K H 0.0222 0.1820 0.2065
C10K C 0.06859(18) 0.23631(13) 0.3327(4)
H7K H 0.0877 0.2240 0.3523
C11K C 0.05370(16) 0.29427(12) 0.3616(4)
H8K H 0.0623 0.3237 0.3999
C12K C -0.25747(17) 0.15298(11) 0.5352(5)
O2K O -0.23603(14) 0.15351(10) 0.6558(4)
O3K O -0.25188(15) 0.14637(11) 0.3960(4)
C13K C -0.29532(21) 0.16362(15) 0.5702(5)
F1K F -0.32438(12) 0.15380(9) 0.4497(3)
F2K F -0.27841(15) 0.20734(11) 0.6025(5)
F3K F -0.32039(19) 0.14003(14) 0.6973(3)
Ag1A Ag -0.320138(9) -0.173024(13) 0.50711(3)
O1A O -0.32830(8) 0.00642(11) 0.7758(3)
N1A N -0.33960(9) -0.13357(13) 0.6612(3)
N2A N -0.19651(10) 0.08113(14) 0.6094(3)
C1A C -0.37535(12) -0.15569(17) 0.7596(4)
H1A H -0.3910 -0.1879 0.7606
C2A C -0.39028(11) -0.13330(16) 0.8596(4)
H2A H -0.4157 -0.1499 0.9275
C3A C -0.36768(11) -0.08659(16) 0.8589(4)
H3A H -0.3775 -0.0706 0.9252
C4A C -0.33031(11) -0.06335(16) 0.7598(4)
C5A C -0.31740(11) -0.08807(16) 0.6630(4)
H4A H -0.2918 -0.0721 0.5954
C6A C -0.30693(11) -0.01301(16) 0.7531(4)
C7A C -0.25735(11) 0.01344(16) 0.7212(4)
C8A C -0.22737(12) 0.00083(17) 0.7817(4)
H5A H -0.2379 -0.0265 0.8402
C9A C -0.18141(12) 0.02955(18) 0.7536(5)
H6A H -0.1598 0.0222 0.7935
C10A C -0.16772(12) 0.06859(18) 0.6673(4)
H7A H -0.1363 0.0877 0.6477
C11A C -0.24057(11) 0.05370(16) 0.6384(4)
H8A H -0.2614 0.0623 0.6001
C12A C -0.41045(13) -0.25747(17) 0.4648(5)
O2A O -0.38954(10) -0.23603(14) 0.3442(4)
O3A O -0.39825(10) -0.25188(15) 0.6040(4)
C13A C -0.45894(15) -0.29532(21) 0.4298(5)
F1A F -0.47818(8) -0.32438(12) 0.5503(3)
F2A F -0.48575(10) -0.27841(15) 0.3975(5)
F3A F -0.46042(13) -0.32039(19) 0.3027(3)
Ag1B Ag 0.173024(13) -0.147114(9) 0.50711(3)
O1B O -0.00642(11) -0.33472(8) 0.7758(3)
N1B N 0.13357(13) -0.20603(9) 0.6612(3)
N2B N -0.08113(14) -0.27764(10) 0.6094(3)
C1B C 0.15569(17) -0.21966(12) 0.7596(4)
H1B H 0.1879 -0.2031 0.7606
C2B C 0.13330(16) -0.25698(12) 0.8596(4)
H2B H 0.1499 -0.2658 0.9275
C3B C 0.08659(16) -0.28109(12) 0.8589(4)
H3B H 0.0706 -0.3069 0.9252
C4B C 0.06335(16) -0.26696(11) 0.7598(4)
C5B C 0.08807(16) -0.22933(11) 0.6630(4)
H4B H 0.0721 -0.2197 0.5954
C6B C 0.01301(16) -0.29392(11) 0.7531(4)
C7B C -0.01344(16) -0.27079(11) 0.7212(4)
C8B C -0.00083(17) -0.22820(12) 0.7817(4)
H5B H 0.0265 -0.2114 0.8402
C9B C -0.02955(18) -0.21096(13) 0.7536(5)
H6B H -0.0222 -0.1820 0.7935
C10B C -0.06859(18) -0.23631(13) 0.6673(4)
H7B H -0.0877 -0.2240 0.6477
C11B C -0.05370(16) -0.29427(12) 0.6384(4)
H8B H -0.0623 -0.3237 0.6001
C12B C 0.25747(17) -0.15298(11) 0.4648(5)
O2B O 0.23603(14) -0.15351(10) 0.3442(4)
O3B O 0.25188(15) -0.14637(11) 0.6040(4)
C13B C 0.29532(21) -0.16362(15) 0.4298(5)
F1B F 0.32438(12) -0.15380(9) 0.5503(3)
F2B F 0.27841(15) -0.20734(11) 0.3975(5)
F3B F 0.32039(19) -0.14003(14) 0.3027(3)
Ag1I Ag -0.147114(9) -0.320138(9) 0.49289(3)
O1I O -0.33472(8) -0.32830(8) 0.2242(3)
N1I N -0.20603(9) -0.33960(9) 0.3388(3)
N2I N -0.27764(10) -0.19651(10) 0.3906(3)
C1I C -0.21966(12) -0.37535(12) 0.2404(4)
H1I H -0.2031 -0.3910 0.2394
C2I C -0.25698(12) -0.39028(11) 0.1404(4)
H2I H -0.2658 -0.4157 0.0725
C3I C -0.28109(12) -0.36768(11) 0.1411(4)
H3I H -0.3069 -0.3775 0.0748
C4I C -0.26696(11) -0.33031(11) 0.2402(4)
C5I C -0.22933(11) -0.31740(11) 0.3370(4)
H4I H -0.2197 -0.2918 0.4046
C6I C -0.29392(11) -0.30693(11) 0.2469(4)
C7I C -0.27079(11) -0.25735(11) 0.2788(4)
C8I C -0.22820(12) -0.22737(12) 0.2183(4)
H5I H -0.2114 -0.2379 0.1598
C9I C -0.21096(13) -0.18141(12) 0.2464(5)
H6I H -0.1820 -0.1598 0.2065
C10I C -0.23631(13) -0.16772(12) 0.3327(4)
H7I H -0.2240 -0.1363 0.3523
C11I C -0.29427(12) -0.24057(11) 0.3616(4)
H8I H -0.3237 -0.2614 0.3999
C12I C -0.15298(11) -0.41045(13) 0.5352(5)
O2I O -0.15351(10) -0.38954(10) 0.6558(4)
O3I O -0.14637(11) -0.39825(10) 0.3960(4)
C13I C -0.16362(15) -0.45894(15) 0.5702(5)
F1I F -0.15380(9) -0.47818(8) 0.4497(3)
F2I F -0.20734(11) -0.48575(10) 0.6025(5)
F3I F -0.14003(14) -0.46042(13) 0.6973(3)
C14 C 0.1097(9) 0.0644(9) 0.405(3)
C15 C 0.1176(9) 0.0682(7) 0.225(3)
C16 C 0.0752(11) 0.0435(8) 0.120(3)
H9 H 0.0840 0.0412 0.0106
H10 H 0.0590 0.0605 0.1198
H11 H 0.0554 0.0132 0.1632
O4 O 0.0616(9) 0.0388(12) 0.439(3)
C17 C 0.1423(11) 0.0700(9) 0.045(3)
H12 H 0.1733 0.0754 0.0534
H13 H 0.1428 0.0989 0.0498
H14 H 0.1293 0.0552 -0.0578
loop_
_geom_bond_atom_site_label_1
_geom_bond_atom_site_label_2
_geom_bond_site_symmetry_1
_geom_bond_site_symmetry_2
Ag1 N1 1_555 1_555
O1 C6 1_555 1_555
N1 C1 1_555 1_555
N2 C10 1_555 1_555
C1 H1 1_555 1_555
C2 C1 1_555 1_555
H2 C2 1_555 1_555
C3 C2 1_555 1_555
H3 C3 1_555 1_555
C4 C3 1_555 1_555
C5 N1 1_555 1_555
H4 C5 1_555 1_555
C6 C4 1_555 1_555
C7 C6 1_555 1_555
C8 C7 1_555 1_555
H5 C8 1_555 1_555
C9 C8 1_555 1_555
H6 C9 1_555 1_555
C10 C9 1_555 1_555
H7 C10 1_555 1_555
C11 N2 1_555 1_555
H8 C11 1_555 1_555
C12 O2 1_555 1_555
O2 Ag1 1_555 1_555
O3 C12 1_555 1_555
C13 C12 1_555 1_555
F1 C13 1_555 1_555
F2 C13 1_555 1_555
F3 C13 1_555 1_555
C14 C15 1_555 1_555
C15 C16 1_555 1_555
C16 H9 1_555 1_555
H10 C16 1_555 1_555
H11 C16 1_555 1_555
O4 C14 1_555 1_555
C17 C15 1_555 1_555
H12 C17 1_555 1_555
H13 C17 1_555 1_555
H14 C17 1_555 1_555
Ag1J N2 1_555 1_555
O1J C6J 1_555 1_555
N1J Ag1J 1_555 1_555
N2J C10J 1_555 1_555
C1J N1J 1_555 1_555
H1J C1J 1_555 1_555
C2J C1J 1_555 1_555
H2J C2J 1_555 1_555
C3J C2J 1_555 1_555
H3J C3J 1_555 1_555
C4J C3J 1_555 1_555
C5J N1J 1_555 1_555
H4J C5J 1_555 1_555
C6J C4J 1_555 1_555
C7J C6J 1_555 1_555
C8J C7J 1_555 1_555
H5J C8J 1_555 1_555
C9J C8J 1_555 1_555
H6J C9J 1_555 1_555
C10J C9J 1_555 1_555
H7J C10J 1_555 1_555
C11J N2J 1_555 1_555
H8J C11J 1_555 1_555
C12J O2J 1_555 1_555
O2J Ag1J 1_555 1_555
O3J C12J 1_555 1_555
C13J C12J 1_555 1_555
F1J C13J 1_555 1_555
F2J C13J 1_555 1_555
F3J C13J 1_555 1_555
Ag1K N1K 1_555 1_555
O1K C6K 1_555 1_555
N1K C1K 1_555 1_555
N2K Ag1 1_555 1_555
C1K H1K 1_555 1_555
C2K C1K 1_555 1_555
H2K C2K 1_555 1_555
C3K C2K 1_555 1_555
H3K C3K 1_555 1_555
C4K C3K 1_555 1_555
C5K N1K 1_555 1_555
H4K C5K 1_555 1_555
C6K C4K 1_555 1_555
C7K C6K 1_555 1_555
C8K C7K 1_555 1_555
H5K C8K 1_555 1_555
C9K C8K 1_555 1_555
H6K C9K 1_555 1_555
C10K N2K 1_555 1_555
H7K C10K 1_555 1_555
C11K N2K 1_555 1_555
H8K C11K 1_555 1_555
C12K O2K 1_555 1_555
O2K Ag1K 1_555 1_555
O3K C12K 1_555 1_555
C13K C12K 1_555 1_555
F1K C13K 1_555 1_555
F2K C13K 1_555 1_555
F3K C13K 1_555 1_555
Ag1A N1A 1_555 1_555
O1A C6A 1_555 1_555
N1A C1A 1_555 1_555
N2A Ag1K 1_555 1_555
C1A H1A 1_555 1_555
C2A C1A 1_555 1_555
H2A C2A 1_555 1_555
C3A C2A 1_555 1_555
H3A C3A 1_555 1_555
C4A C3A 1_555 1_555
C5A N1A 1_555 1_555
H4A C5A 1_555 1_555
C6A C4A 1_555 1_555
C7A C6A 1_555 1_555
C8A C7A 1_555 1_555
H5A C8A 1_555 1_555
C9A C8A 1_555 1_555
H6A C9A 1_555 1_555
C10A N2A 1_555 1_555
H7A C10A 1_555 1_555
C11A N2A 1_555 1_555
H8A C11A 1_555 1_555
C12A O2A 1_555 1_555
O2A Ag1A 1_555 1_555
O3A C12A 1_555 1_555
C13A C12A 1_555 1_555
F1A C13A 1_555 1_555
F2A C13A 1_555 1_555
F3A C13A 1_555 1_555
Ag1B N2J 1_555 1_555
O1B C6B 1_555 1_555
N1B Ag1B 1_555 1_555
N2B C10B 1_555 1_555
C1B N1B 1_555 1_555
H1B C1B 1_555 1_555
C2B C1B 1_555 1_555
H2B C2B 1_555 1_555
C3B C2B 1_555 1_555
H3B C3B 1_555 1_555
C4B C3B 1_555 1_555
C5B N1B 1_555 1_555
H4B C5B 1_555 1_555
C6B C4B 1_555 1_555
C7B C6B 1_555 1_555
C8B C7B 1_555 1_555
H5B C8B 1_555 1_555
C9B C8B 1_555 1_555
H6B C9B 1_555 1_555
C10B C9B 1_555 1_555
H7B C10B 1_555 1_555
C11B N2B 1_555 1_555
H8B C11B 1_555 1_555
C12B O2B 1_555 1_555
O2B Ag1B 1_555 1_555
O3B C12B 1_555 1_555
C13B C12B 1_555 1_555
F1B C13B 1_555 1_555
F2B C13B 1_555 1_555
F3B C13B 1_555 1_555
Ag1I N2B 1_555 1_555
O1I C6I 1_555 1_555
N1I Ag1I 1_555 1_555
N2I Ag1A 1_555 1_555
C1I N1I 1_555 1_555
H1I C1I 1_555 1_555
C2I C1I 1_555 1_555
H2I C2I 1_555 1_555
C3I C2I 1_555 1_555
H3I C3I 1_555 1_555
C4I C3I 1_555 1_555
C5I N1I 1_555 1_555
H4I C5I 1_555 1_555
C6I C4I 1_555 1_555
C7I C6I 1_555 1_555
C8I C7I 1_555 1_555
H5I C8I 1_555 1_555
C9I C8I 1_555 1_555
H6I C9I 1_555 1_555
C10I N2I 1_555 1_555
H7I C10I 1_555 1_555
C11I N2I 1_555 1_555
H8I C11I 1_555 1_555
C12I O2I 1_555 1_555
O2I Ag1I 1_555 1_555
O3I C12I 1_555 1_555
C13I C12I 1_555 1_555
F1I C13I 1_555 1_555
F2I C13I 1_555 1_555
F3I C13I 1_555 1_555
C4 C5 1_555 1_555
C7 C11 1_555 1_555
C4J C5J 1_555 1_555
C7J C11J 1_555 1_555
C4K C5K 1_555 1_555
C7K C11K 1_555 1_555
C9K C10K 1_555 1_555
C4A C5A 1_555 1_555
C7A C11A 1_555 1_555
C9A C10A 1_555 1_555
C4B C5B 1_555 1_555
C7B C11B 1_555 1_555
C4I C5I 1_555 1_555
C7I C11I 1_555 1_555
C9I C10I 1_555 1_555

#END
