
#######################################################################
#
#                 Cambridge Crystallographic Data Centre
#                                CCDC 
#
#######################################################################
#
# If this CIF has been generated from an entry in the Cambridge 
# Structural Database, then it will include bibliographic, chemical, 
# crystal, experimental, refinement or atomic coordinate data resulting 
# from the CCDC's data processing and validation procedures.
#
#######################################################################

data_FUSMIQ
_chemical_formula_moiety         'C82 H58 Ag6 F18 N12 O19'
_symmetry_cell_setting           rhombohedral
_symmetry_space_group_name_H-M   'R -3'
_symmetry_Int_Tables_number      148
_space_group_name_Hall           '-R 3'
loop_
_symmetry_equiv_pos_site_id
_symmetry_equiv_pos_as_xyz
1 x,y,z
2 -y,x-y,z
3 -x+y,-x,z
4 2/3+x,1/3+y,1/3+z
5 2/3-y,1/3+x-y,1/3+z
6 2/3-x+y,1/3-x,1/3+z
7 1/3+x,2/3+y,2/3+z
8 1/3-y,2/3+x-y,2/3+z
9 1/3-x+y,2/3-x,2/3+z
10 -x,-y,-z
11 y,-x+y,-z
12 x-y,x,-z
13 1/3-x,2/3-y,2/3-z
14 1/3+y,2/3-x+y,2/3-z
15 1/3+x-y,2/3+x,2/3-z
16 2/3-x,1/3-y,1/3-z
17 2/3+y,1/3-x+y,1/3-z
18 2/3+x-y,1/3+x,1/3-z
_cell_length_a                   34.0297(16)
_cell_length_b                   34.0297(16)
_cell_length_c                   8.3643(8)
_cell_angle_alpha                90
_cell_angle_beta                 90
_cell_angle_gamma                120
_cell_volume                     8388.35
loop_
_atom_site_label
_atom_site_type_symbol
_atom_site_fract_x
_atom_site_fract_y
_atom_site_fract_z
_atom_site_U_iso_or_equiv
_atom_site_thermal_displace_type
Ag1 Ag 0.147856(14) 0.320770(15) 0.50677(5) 0.0293 Uani
O1 O 0.33501(12) 0.32789(12) 0.7796(4) 0.0240 Uani
N1 N 0.20660(14) 0.33997(15) 0.6616(5) 0.0240 Uani
N2 N 0.27824(15) 0.19639(15) 0.6113(5) 0.0253 Uani
C1 C 0.22036(18) 0.37545(18) 0.7608(6) 0.0257 Uani
H1 H 0.2039 0.3913 0.7613 0.0310 Uiso
C2 C 0.25715(19) 0.39023(18) 0.8623(7) 0.0271 Uani
H2 H 0.2654 0.4153 0.9315 0.0330 Uiso
C3 C 0.28159(18) 0.36796(18) 0.8612(6) 0.0243 Uani
H3 H 0.3077 0.3780 0.9267 0.0290 Uiso
C4 C 0.26699(16) 0.33006(17) 0.7611(6) 0.0202 Uani
C5 C 0.22959(17) 0.31716(17) 0.6650(6) 0.0223 Uani
H4 H 0.2196 0.2912 0.5986 0.0270 Uiso
C6 C 0.29437(17) 0.30682(17) 0.7558(6) 0.0204 Uani
C7 C 0.27121(18) 0.25724(18) 0.7239(6) 0.0218 Uani
C8 C 0.22811(19) 0.22701(19) 0.7808(7) 0.0282 Uani
H5 H 0.2109 0.2374 0.8382 0.0340 Uiso
C9 C 0.2108(2) 0.18096(19) 0.7512(7) 0.0336 Uani
H6 H 0.1815 0.1592 0.7887 0.0400 Uiso
C10 C 0.23688(19) 0.16719(19) 0.6666(7) 0.0290 Uani
H7 H 0.2248 0.1357 0.6471 0.0350 Uiso
C11 C 0.29508(18) 0.24043(17) 0.6406(6) 0.0219 Uani
H8 H 0.3247 0.2613 0.6029 0.0270 Uiso
C12 C 0.15382(18) 0.4119(2) 0.4653(7) 0.0322 Uani
O2 O 0.15369(15) 0.39106(16) 0.3440(6) 0.0477 Uani
O3 O 0.14724(17) 0.39880(17) 0.6045(6) 0.0480 Uani
C13 C 0.1658(2) 0.4613(2) 0.4337(9) 0.0456 Uani
F1 F 0.15529(15) 0.47982(14) 0.5555(5) 0.0547 Uani
F2 F 0.1434(2) 0.4642(2) 0.3070(6) 0.0860 Uani
F3 F 0.20947(17) 0.48733(15) 0.4071(8) 0.0874 Uani
Ag1J Ag 0.320770(15) 0.172914(21) 0.49323(5) 0.0293 Uani
O1J O 0.32789(12) -0.00712(17) 0.2204(4) 0.0240 Uani
N1J N 0.33997(15) 0.13337(21) 0.3384(5) 0.0240 Uani
N2J N 0.19639(15) -0.08185(21) 0.3887(5) 0.0253 Uani
C1J C 0.37545(18) 0.15509(25) 0.2392(6) 0.0257 Uani
H1J H 0.3913 0.1874 0.2387 0.0310 Uiso
C2J C 0.39023(18) 0.13308(26) 0.1377(7) 0.0271 Uani
H2J H 0.4153 0.1499 0.0685 0.0330 Uiso
C3J C 0.36796(18) 0.08637(25) 0.1388(6) 0.0243 Uani
H3J H 0.3780 0.0703 0.0733 0.0290 Uiso
C4J C 0.33006(17) 0.06307(23) 0.2389(6) 0.0202 Uani
C5J C 0.31716(17) 0.08757(24) 0.3350(6) 0.0223 Uani
H4J H 0.2912 0.0716 0.4014 0.0270 Uiso
C6J C 0.30682(17) 0.01245(24) 0.2442(6) 0.0204 Uani
C7J C 0.25724(18) -0.01397(25) 0.2761(6) 0.0218 Uani
C8J C 0.22701(19) -0.00110(27) 0.2192(7) 0.0282 Uani
H5J H 0.2374 0.0265 0.1618 0.0340 Uiso
C9J C 0.18096(19) -0.02984(28) 0.2488(7) 0.0336 Uani
H6J H 0.1592 -0.0223 0.2113 0.0400 Uiso
C10J C 0.16719(19) -0.06969(27) 0.3334(7) 0.0290 Uani
H7J H 0.1357 -0.0891 0.3529 0.0350 Uiso
C11J C 0.24043(17) -0.05465(25) 0.3594(6) 0.0219 Uani
H8J H 0.2613 -0.0634 0.3971 0.0270 Uiso
C12J C 0.4119(2) 0.25808(27) 0.5347(7) 0.0322 Uani
O2J O 0.39106(16) 0.23737(22) 0.6560(6) 0.0477 Uani
O3J O 0.39880(17) 0.25156(24) 0.3955(6) 0.0480 Uani
C13J C 0.4613(2) 0.2955(3) 0.5663(9) 0.0456 Uani
F1J F 0.47982(14) 0.32453(21) 0.4445(5) 0.0547 Uani
F2J F 0.4642(2) 0.3208(3) 0.6930(6) 0.0860 Uani
F3J F 0.48733(15) 0.27786(23) 0.5929(8) 0.0874 Uani
Ag1K Ag -0.172914(21) 0.147856(14) 0.49323(5) 0.0293 Uani
O1K O 0.00712(17) 0.33501(12) 0.2204(4) 0.0240 Uani
N1K N -0.13337(21) 0.20660(14) 0.3384(5) 0.0240 Uani
N2K N 0.08185(21) 0.27824(15) 0.3887(5) 0.0253 Uani
C1K C -0.15509(25) 0.22036(18) 0.2392(6) 0.0257 Uani
H1K H -0.1874 0.2039 0.2387 0.0310 Uiso
C2K C -0.13308(26) 0.25715(19) 0.1377(7) 0.0271 Uani
H2K H -0.1499 0.2654 0.0685 0.0330 Uiso
C3K C -0.08637(25) 0.28159(18) 0.1388(6) 0.0243 Uani
H3K H -0.0703 0.3077 0.0733 0.0290 Uiso
C4K C -0.06307(23) 0.26699(16) 0.2389(6) 0.0202 Uani
C5K C -0.08757(24) 0.22959(17) 0.3350(6) 0.0223 Uani
H4K H -0.0716 0.2196 0.4014 0.0270 Uiso
C6K C -0.01245(24) 0.29437(17) 0.2442(6) 0.0204 Uani
C7K C 0.01397(25) 0.27121(18) 0.2761(6) 0.0218 Uani
C8K C 0.00110(27) 0.22811(19) 0.2192(7) 0.0282 Uani
H5K H -0.0265 0.2109 0.1618 0.0340 Uiso
C9K C 0.02984(28) 0.2108(2) 0.2488(7) 0.0336 Uani
H6K H 0.0223 0.1815 0.2113 0.0400 Uiso
C10K C 0.06969(27) 0.23688(19) 0.3334(7) 0.0290 Uani
H7K H 0.0891 0.2248 0.3529 0.0350 Uiso
C11K C 0.05465(25) 0.29508(18) 0.3594(6) 0.0219 Uani
H8K H 0.0634 0.3247 0.3971 0.0270 Uiso
C12K C -0.25808(27) 0.15382(18) 0.5347(7) 0.0322 Uani
O2K O -0.23737(22) 0.15369(15) 0.6560(6) 0.0477 Uani
O3K O -0.25156(24) 0.14724(17) 0.3955(6) 0.0480 Uani
C13K C -0.2955(3) 0.1658(2) 0.5663(9) 0.0456 Uani
F1K F -0.32453(21) 0.15529(15) 0.4445(5) 0.0547 Uani
F2K F -0.3208(3) 0.1434(2) 0.6930(6) 0.0860 Uani
F3K F -0.27786(23) 0.20947(17) 0.5929(8) 0.0874 Uani
Ag1A Ag -0.320770(15) -0.172914(21) 0.50677(5) 0.0293 Uani
O1A O -0.32789(12) 0.00712(17) 0.7796(4) 0.0240 Uani
N1A N -0.33997(15) -0.13337(21) 0.6616(5) 0.0240 Uani
N2A N -0.19639(15) 0.08185(21) 0.6113(5) 0.0253 Uani
C1A C -0.37545(18) -0.15509(25) 0.7608(6) 0.0257 Uani
H1A H -0.3913 -0.1874 0.7613 0.0310 Uiso
C2A C -0.39023(18) -0.13308(26) 0.8623(7) 0.0271 Uani
H2A H -0.4153 -0.1499 0.9315 0.0330 Uiso
C3A C -0.36796(18) -0.08637(25) 0.8612(6) 0.0243 Uani
H3A H -0.3780 -0.0703 0.9267 0.0290 Uiso
C4A C -0.33006(17) -0.06307(23) 0.7611(6) 0.0202 Uani
C5A C -0.31716(17) -0.08757(24) 0.6650(6) 0.0223 Uani
H4A H -0.2912 -0.0716 0.5986 0.0270 Uiso
C6A C -0.30682(17) -0.01245(24) 0.7558(6) 0.0204 Uani
C7A C -0.25724(18) 0.01397(25) 0.7239(6) 0.0218 Uani
C8A C -0.22701(19) 0.00110(27) 0.7808(7) 0.0282 Uani
H5A H -0.2374 -0.0265 0.8382 0.0340 Uiso
C9A C -0.18096(19) 0.02984(28) 0.7512(7) 0.0336 Uani
H6A H -0.1592 0.0223 0.7887 0.0400 Uiso
C10A C -0.16719(19) 0.06969(27) 0.6666(7) 0.0290 Uani
H7A H -0.1357 0.0891 0.6471 0.0350 Uiso
C11A C -0.24043(17) 0.05465(25) 0.6406(6) 0.0219 Uani
H8A H -0.2613 0.0634 0.6029 0.0270 Uiso
C12A C -0.4119(2) -0.25808(27) 0.4653(7) 0.0322 Uani
O2A O -0.39106(16) -0.23737(22) 0.3440(6) 0.0477 Uani
O3A O -0.39880(17) -0.25156(24) 0.6045(6) 0.0480 Uani
C13A C -0.4613(2) -0.2955(3) 0.4337(9) 0.0456 Uani
F1A F -0.47982(14) -0.32453(21) 0.5555(5) 0.0547 Uani
F2A F -0.4642(2) -0.3208(3) 0.3070(6) 0.0860 Uani
F3A F -0.48733(15) -0.27786(23) 0.4071(8) 0.0874 Uani
Ag1B Ag 0.172914(21) -0.147856(14) 0.50677(5) 0.0293 Uani
O1B O -0.00712(17) -0.33501(12) 0.7796(4) 0.0240 Uani
N1B N 0.13337(21) -0.20660(14) 0.6616(5) 0.0240 Uani
N2B N -0.08185(21) -0.27824(15) 0.6113(5) 0.0253 Uani
C1B C 0.15509(25) -0.22036(18) 0.7608(6) 0.0257 Uani
H1B H 0.1874 -0.2039 0.7613 0.0310 Uiso
C2B C 0.13308(26) -0.25715(19) 0.8623(7) 0.0271 Uani
H2B H 0.1499 -0.2654 0.9315 0.0330 Uiso
C3B C 0.08637(25) -0.28159(18) 0.8612(6) 0.0243 Uani
H3B H 0.0703 -0.3077 0.9267 0.0290 Uiso
C4B C 0.06307(23) -0.26699(16) 0.7611(6) 0.0202 Uani
C5B C 0.08757(24) -0.22959(17) 0.6650(6) 0.0223 Uani
H4B H 0.0716 -0.2196 0.5986 0.0270 Uiso
C6B C 0.01245(24) -0.29437(17) 0.7558(6) 0.0204 Uani
C7B C -0.01397(25) -0.27121(18) 0.7239(6) 0.0218 Uani
C8B C -0.00110(27) -0.22811(19) 0.7808(7) 0.0282 Uani
H5B H 0.0265 -0.2109 0.8382 0.0340 Uiso
C9B C -0.02984(28) -0.2108(2) 0.7512(7) 0.0336 Uani
H6B H -0.0223 -0.1815 0.7887 0.0400 Uiso
C10B C -0.06969(27) -0.23688(19) 0.6666(7) 0.0290 Uani
H7B H -0.0891 -0.2248 0.6471 0.0350 Uiso
C11B C -0.05465(25) -0.29508(18) 0.6406(6) 0.0219 Uani
H8B H -0.0634 -0.3247 0.6029 0.0270 Uiso
C12B C 0.25808(27) -0.15382(18) 0.4653(7) 0.0322 Uani
O2B O 0.23737(22) -0.15369(15) 0.3440(6) 0.0477 Uani
O3B O 0.25156(24) -0.14724(17) 0.6045(6) 0.0480 Uani
C13B C 0.2955(3) -0.1658(2) 0.4337(9) 0.0456 Uani
F1B F 0.32453(21) -0.15529(15) 0.5555(5) 0.0547 Uani
F2B F 0.3208(3) -0.1434(2) 0.3070(6) 0.0860 Uani
F3B F 0.27786(23) -0.20947(17) 0.4071(8) 0.0874 Uani
Ag1I Ag -0.147856(14) -0.320770(15) 0.49323(5) 0.0293 Uani
O1I O -0.33501(12) -0.32789(12) 0.2204(4) 0.0240 Uani
N1I N -0.20660(14) -0.33997(15) 0.3384(5) 0.0240 Uani
N2I N -0.27824(15) -0.19639(15) 0.3887(5) 0.0253 Uani
C1I C -0.22036(18) -0.37545(18) 0.2392(6) 0.0257 Uani
H1I H -0.2039 -0.3913 0.2387 0.0310 Uiso
C2I C -0.25715(19) -0.39023(18) 0.1377(7) 0.0271 Uani
H2I H -0.2654 -0.4153 0.0685 0.0330 Uiso
C3I C -0.28159(18) -0.36796(18) 0.1388(6) 0.0243 Uani
H3I H -0.3077 -0.3780 0.0733 0.0290 Uiso
C4I C -0.26699(16) -0.33006(17) 0.2389(6) 0.0202 Uani
C5I C -0.22959(17) -0.31716(17) 0.3350(6) 0.0223 Uani
H4I H -0.2196 -0.2912 0.4014 0.0270 Uiso
C6I C -0.29437(17) -0.30682(17) 0.2442(6) 0.0204 Uani
C7I C -0.27121(18) -0.25724(18) 0.2761(6) 0.0218 Uani
C8I C -0.22811(19) -0.22701(19) 0.2192(7) 0.0282 Uani
H5I H -0.2109 -0.2374 0.1618 0.0340 Uiso
C9I C -0.2108(2) -0.18096(19) 0.2488(7) 0.0336 Uani
H6I H -0.1815 -0.1592 0.2113 0.0400 Uiso
C10I C -0.23688(19) -0.16719(19) 0.3334(7) 0.0290 Uani
H7I H -0.2248 -0.1357 0.3529 0.0350 Uiso
C11I C -0.29508(18) -0.24043(17) 0.3594(6) 0.0219 Uani
H8I H -0.3247 -0.2613 0.3971 0.0270 Uiso
C12I C -0.15382(18) -0.4119(2) 0.5347(7) 0.0322 Uani
O2I O -0.15369(15) -0.39106(16) 0.6560(6) 0.0477 Uani
O3I O -0.14724(17) -0.39880(17) 0.3955(6) 0.0480 Uani
C13I C -0.1658(2) -0.4613(2) 0.5663(9) 0.0456 Uani
F1I F -0.15529(15) -0.47982(14) 0.4445(5) 0.0547 Uani
F2I F -0.1434(2) -0.4642(2) 0.6930(6) 0.0860 Uani
F3I F -0.20947(17) -0.48733(15) 0.5929(8) 0.0874 Uani
O4 O 0.1819(10) 0.0817(8) 0.313(4) 0.2584 Uani
H9 H 0.1837 0.0641 0.3792 0.3900 Uiso
C14 C 0.1227(14) 0.0826(13) 0.462(5) 0.3071 Uani
H10 H 0.1345 0.1154 0.4688 0.4580 Uiso
H11 H 0.1359 0.0732 0.5474 0.4580 Uiso
H12 H 0.0896 0.0665 0.4730 0.4580 Uiso
C15 C 0.1352(11) 0.0713(8) 0.301(4) 0.2909 Uani
H13 H 0.1332 0.0913 0.2173 0.3490 Uiso
C16 C 0.1072(11) 0.0221(9) 0.247(5) 0.2936 Uani
H14 H 0.1221 0.0176 0.1530 0.3530 Uiso
H15 H 0.1074 0.0024 0.3340 0.3530 Uiso
C17 C 0.0582(11) 0.0069(13) 0.205(5) 0.2944 Uani
H16 H 0.0380 -0.0153 0.2837 0.4400 Uiso
H17 H 0.0514 -0.0071 0.0984 0.4400 Uiso
H18 H 0.0538 0.0332 0.2044 0.4400 Uiso
loop_
_atom_site_aniso_label
_atom_site_aniso_U_11
_atom_site_aniso_U_22
_atom_site_aniso_U_33
_atom_site_aniso_U_23
_atom_site_aniso_U_13
_atom_site_aniso_U_12
Ag1 0.0202(3) 0.0342(3) 0.0348(3) -0.00577(18) -0.00785(17) 0.0146(2)
O1 0.0187(19) 0.030(2) 0.0236(19) -0.0010(15) -0.0019(14) 0.0123(16)
N1 0.018(2) 0.025(2) 0.029(2) -0.0004(19) -0.0003(18) 0.0108(19)
N2 0.028(2) 0.022(2) 0.028(2) 0.0016(19) 0.0020(19) 0.014(2)
C1 0.025(3) 0.025(3) 0.029(3) 0.000(2) 0.002(2) 0.014(2)
C2 0.029(3) 0.023(3) 0.032(3) -0.007(2) -0.005(2) 0.015(2)
C3 0.024(3) 0.023(3) 0.025(3) -0.002(2) -0.003(2) 0.011(2)
C4 0.017(2) 0.018(2) 0.022(3) 0.004(2) 0.004(2) 0.006(2)
C5 0.020(3) 0.021(3) 0.023(3) -0.001(2) 0.002(2) 0.008(2)
C6 0.022(3) 0.024(3) 0.016(2) 0.003(2) 0.0035(19) 0.012(2)
C7 0.023(3) 0.024(3) 0.020(3) 0.001(2) 0.000(2) 0.013(2)
C8 0.029(3) 0.028(3) 0.030(3) 0.004(2) 0.010(2) 0.016(3)
C9 0.029(3) 0.025(3) 0.046(4) 0.007(3) 0.012(3) 0.013(3)
C10 0.031(3) 0.021(3) 0.035(3) 0.004(2) 0.003(2) 0.013(2)
C11 0.022(3) 0.021(3) 0.023(3) 0.006(2) 0.003(2) 0.011(2)
C12 0.020(3) 0.041(3) 0.042(4) -0.008(3) -0.003(2) 0.020(3)
O2 0.036(3) 0.047(3) 0.059(3) -0.020(2) -0.004(2) 0.020(2)
O3 0.058(3) 0.055(3) 0.048(3) 0.007(2) 0.005(2) 0.041(3)
C13 0.049(4) 0.050(4) 0.050(4) 0.004(3) 0.015(3) 0.034(4)
F1 0.070(3) 0.047(2) 0.064(3) -0.004(2) 0.013(2) 0.042(2)
F2 0.146(5) 0.129(5) 0.050(3) 0.024(3) 0.018(3) 0.119(5)
F3 0.062(3) 0.040(3) 0.161(5) 0.016(3) 0.055(3) 0.026(2)
Ag1J 0.0342 0.0252 0.0348 -0.00208 0.00577 0.0196
O1J 0.03 0.0241 0.0236 -0.0009 0.001 0.0177
N1J 0.025 0.0214 0.029 0.0001 0.0004 0.0142
N2J 0.022 0.022 0.028 0.0004 -0.0016 0.008
C1J 0.025 0.022 0.029 0.002 0 0.011
C2J 0.023 0.022 0.032 0.002 0.007 0.008
C3J 0.023 0.025 0.025 -0.001 0.002 0.012
C4J 0.018 0.023 0.022 0 -0.004 0.012
C5J 0.021 0.025 0.023 0.003 0.001 0.013
C6J 0.024 0.022 0.016 0.0005 -0.003 0.012
C7J 0.024 0.021 0.02 -0.001 -0.001 0.011
C8J 0.028 0.025 0.03 0.006 -0.004 0.012
C9J 0.025 0.028 0.046 0.005 -0.007 0.012
C10J 0.021 0.026 0.035 -0.001 -0.004 0.008
C11J 0.021 0.021 0.023 -0.003 -0.006 0.01
C12J 0.041 0.021 0.042 0.005 0.008 0.021
O2J 0.047 0.043 0.059 0.016 0.02 0.027
O3J 0.055 0.031 0.048 -0.002 -0.007 0.014
C13J 0.05 0.031 0.05 0.011 -0.004 0.016
F1J 0.047 0.033 0.064 0.017 0.004 0.005
F2J 0.129 0.037 0.05 -0.006 -0.024 0.01
F3J 0.04 0.05 0.161 0.039 -0.016 0.014
Ag1K 0.0252 0.0202 0.0348 0.00785 0.00208 0.0056
O1K 0.0241 0.0187 0.0236 0.0019 0.0009 0.0064
N1K 0.0214 0.018 0.029 0.0003 -0.0001 0.0072
N2K 0.022 0.028 0.028 -0.002 -0.0004 0.014
C1K 0.022 0.025 0.029 -0.002 -0.002 0.011
C2K 0.022 0.029 0.032 0.005 -0.002 0.014
C3K 0.025 0.024 0.025 0.003 0.001 0.013
C4K 0.023 0.017 0.022 -0.004 0 0.011
C5K 0.025 0.02 0.023 -0.002 -0.003 0.012
C6K 0.022 0.022 0.016 -0.0035 -0.0005 0.01
C7K 0.021 0.023 0.02 0 0.001 0.01
C8K 0.025 0.029 0.03 -0.01 -0.006 0.013
C9K 0.028 0.029 0.046 -0.012 -0.005 0.016
C10K 0.026 0.031 0.035 -0.003 0.001 0.018
C11K 0.021 0.022 0.023 -0.003 0.003 0.011
C12K 0.021 0.02 0.042 0.003 -0.005 0
O2K 0.043 0.036 0.059 0.004 -0.016 0.016
O3K 0.031 0.058 0.048 -0.005 0.002 0.017
C13K 0.031 0.049 0.05 -0.015 -0.011 0.015
F1K 0.033 0.07 0.064 -0.013 -0.017 0.028
F2K 0.037 0.146 0.05 -0.018 0.006 0.027
F3K 0.05 0.062 0.161 -0.055 -0.039 0.036
Ag1A 0.0342 0.0252 0.0348 -0.00208 0.00577 0.0196
O1A 0.03 0.0241 0.0236 -0.0009 0.001 0.0177
N1A 0.025 0.0214 0.029 0.0001 0.0004 0.0142
N2A 0.022 0.022 0.028 0.0004 -0.0016 0.008
C1A 0.025 0.022 0.029 0.002 0 0.011
C2A 0.023 0.022 0.032 0.002 0.007 0.008
C3A 0.023 0.025 0.025 -0.001 0.002 0.012
C4A 0.018 0.023 0.022 0 -0.004 0.012
C5A 0.021 0.025 0.023 0.003 0.001 0.013
C6A 0.024 0.022 0.016 0.0005 -0.003 0.012
C7A 0.024 0.021 0.02 -0.001 -0.001 0.011
C8A 0.028 0.025 0.03 0.006 -0.004 0.012
C9A 0.025 0.028 0.046 0.005 -0.007 0.012
C10A 0.021 0.026 0.035 -0.001 -0.004 0.008
C11A 0.021 0.021 0.023 -0.003 -0.006 0.01
C12A 0.041 0.021 0.042 0.005 0.008 0.021
O2A 0.047 0.043 0.059 0.016 0.02 0.027
O3A 0.055 0.031 0.048 -0.002 -0.007 0.014
C13A 0.05 0.031 0.05 0.011 -0.004 0.016
F1A 0.047 0.033 0.064 0.017 0.004 0.005
F2A 0.129 0.037 0.05 -0.006 -0.024 0.01
F3A 0.04 0.05 0.161 0.039 -0.016 0.014
Ag1B 0.0252 0.0202 0.0348 0.00785 0.00208 0.0056
O1B 0.0241 0.0187 0.0236 0.0019 0.0009 0.0064
N1B 0.0214 0.018 0.029 0.0003 -0.0001 0.0072
N2B 0.022 0.028 0.028 -0.002 -0.0004 0.014
C1B 0.022 0.025 0.029 -0.002 -0.002 0.011
C2B 0.022 0.029 0.032 0.005 -0.002 0.014
C3B 0.025 0.024 0.025 0.003 0.001 0.013
C4B 0.023 0.017 0.022 -0.004 0 0.011
C5B 0.025 0.02 0.023 -0.002 -0.003 0.012
C6B 0.022 0.022 0.016 -0.0035 -0.0005 0.01
C7B 0.021 0.023 0.02 0 0.001 0.01
C8B 0.025 0.029 0.03 -0.01 -0.006 0.013
C9B 0.028 0.029 0.046 -0.012 -0.005 0.016
C10B 0.026 0.031 0.035 -0.003 0.001 0.018
C11B 0.021 0.022 0.023 -0.003 0.003 0.011
C12B 0.021 0.02 0.042 0.003 -0.005 0
O2B 0.043 0.036 0.059 0.004 -0.016 0.016
O3B 0.031 0.058 0.048 -0.005 0.002 0.017
C13B 0.031 0.049 0.05 -0.015 -0.011 0.015
F1B 0.033 0.07 0.064 -0.013 -0.017 0.028
F2B 0.037 0.146 0.05 -0.018 0.006 0.027
F3B 0.05 0.062 0.161 -0.055 -0.039 0.036
Ag1I 0.0202 0.0342 0.0348 -0.00577 -0.00785 0.0146
O1I 0.0187 0.03 0.0236 -0.001 -0.0019 0.0123
N1I 0.018 0.025 0.029 -0.0004 -0.0003 0.0108
N2I 0.028 0.022 0.028 0.0016 0.002 0.014
C1I 0.025 0.025 0.029 0 0.002 0.014
C2I 0.029 0.023 0.032 -0.007 -0.005 0.015
C3I 0.024 0.023 0.025 -0.002 -0.003 0.011
C4I 0.017 0.018 0.022 0.004 0.004 0.006
C5I 0.02 0.021 0.023 -0.001 0.002 0.008
C6I 0.022 0.024 0.016 0.003 0.0035 0.012
C7I 0.023 0.024 0.02 0.001 0 0.013
C8I 0.029 0.028 0.03 0.004 0.01 0.016
C9I 0.029 0.025 0.046 0.007 0.012 0.013
C10I 0.031 0.021 0.035 0.004 0.003 0.013
C11I 0.022 0.021 0.023 0.006 0.003 0.011
C12I 0.02 0.041 0.042 -0.008 -0.003 0.02
O2I 0.036 0.047 0.059 -0.02 -0.004 0.02
O3I 0.058 0.055 0.048 0.007 0.005 0.041
C13I 0.049 0.05 0.05 0.004 0.015 0.034
F1I 0.07 0.047 0.064 -0.004 0.013 0.042
F2I 0.146 0.129 0.05 0.024 0.018 0.119
F3I 0.062 0.04 0.161 0.016 0.055 0.026
O4 0.36(2) 0.119(11) 0.27(2) 0.049(14) 0.221(19) 0.100(13)
C14 0.39(2) 0.154(13) 0.30(2) 0.050(14) 0.20(2) 0.078(15)
C15 0.38(2) 0.144(11) 0.29(2) 0.048(12) 0.211(19) 0.087(13)
C16 0.38(2) 0.147(11) 0.29(2) 0.049(13) 0.210(19) 0.084(13)
C17 0.38(2) 0.147(13) 0.29(2) 0.045(14) 0.21(2) 0.082(15)
loop_
_geom_bond_atom_site_label_1
_geom_bond_atom_site_label_2
_geom_bond_site_symmetry_1
_geom_bond_site_symmetry_2
Ag1 N1 1_555 1_555
O1 C6 1_555 1_555
N1 C1 1_555 1_555
N2 C10 1_555 1_555
C1 H1 1_555 1_555
C2 C1 1_555 1_555
H2 C2 1_555 1_555
C3 C2 1_555 1_555
H3 C3 1_555 1_555
C4 C3 1_555 1_555
C5 N1 1_555 1_555
H4 C5 1_555 1_555
C6 C4 1_555 1_555
C7 C6 1_555 1_555
C8 C7 1_555 1_555
H5 C8 1_555 1_555
C9 C8 1_555 1_555
H6 C9 1_555 1_555
C10 C9 1_555 1_555
H7 C10 1_555 1_555
C11 N2 1_555 1_555
H8 C11 1_555 1_555
C12 O2 1_555 1_555
O2 Ag1 1_555 1_555
O3 C12 1_555 1_555
C13 C12 1_555 1_555
F1 C13 1_555 1_555
F2 C13 1_555 1_555
F3 C13 1_555 1_555
O4 H9 1_555 1_555
C14 H10 1_555 1_555
H11 C14 1_555 1_555
H12 C14 1_555 1_555
C15 O4 1_555 1_555
H13 C15 1_555 1_555
C16 C15 1_555 1_555
H14 C16 1_555 1_555
H15 C16 1_555 1_555
C17 C16 1_555 1_555
H16 C17 1_555 1_555
H17 C17 1_555 1_555
H18 C17 1_555 1_555
Ag1J N2 1_555 1_555
O1J C6J 1_555 1_555
N1J Ag1J 1_555 1_555
N2J C10J 1_555 1_555
C1J N1J 1_555 1_555
H1J C1J 1_555 1_555
C2J C1J 1_555 1_555
H2J C2J 1_555 1_555
C3J C2J 1_555 1_555
H3J C3J 1_555 1_555
C4J C3J 1_555 1_555
C5J N1J 1_555 1_555
H4J C5J 1_555 1_555
C6J C4J 1_555 1_555
C7J C6J 1_555 1_555
C8J C7J 1_555 1_555
H5J C8J 1_555 1_555
C9J C8J 1_555 1_555
H6J C9J 1_555 1_555
C10J C9J 1_555 1_555
H7J C10J 1_555 1_555
C11J N2J 1_555 1_555
H8J C11J 1_555 1_555
C12J O2J 1_555 1_555
O2J Ag1J 1_555 1_555
O3J C12J 1_555 1_555
C13J C12J 1_555 1_555
F1J C13J 1_555 1_555
F2J C13J 1_555 1_555
F3J C13J 1_555 1_555
Ag1K N1K 1_555 1_555
O1K C6K 1_555 1_555
N1K C1K 1_555 1_555
N2K Ag1 1_555 1_555
C1K H1K 1_555 1_555
C2K C1K 1_555 1_555
H2K C2K 1_555 1_555
C3K C2K 1_555 1_555
H3K C3K 1_555 1_555
C4K C3K 1_555 1_555
C5K N1K 1_555 1_555
H4K C5K 1_555 1_555
C6K C4K 1_555 1_555
C7K C6K 1_555 1_555
C8K C7K 1_555 1_555
H5K C8K 1_555 1_555
C9K C8K 1_555 1_555
H6K C9K 1_555 1_555
C10K N2K 1_555 1_555
H7K C10K 1_555 1_555
C11K N2K 1_555 1_555
H8K C11K 1_555 1_555
C12K O2K 1_555 1_555
O2K Ag1K 1_555 1_555
O3K C12K 1_555 1_555
C13K C12K 1_555 1_555
F1K C13K 1_555 1_555
F2K C13K 1_555 1_555
F3K C13K 1_555 1_555
Ag1A N1A 1_555 1_555
O1A C6A 1_555 1_555
N1A C1A 1_555 1_555
N2A Ag1K 1_555 1_555
C1A H1A 1_555 1_555
C2A C1A 1_555 1_555
H2A C2A 1_555 1_555
C3A C2A 1_555 1_555
H3A C3A 1_555 1_555
C4A C3A 1_555 1_555
C5A N1A 1_555 1_555
H4A C5A 1_555 1_555
C6A C4A 1_555 1_555
C7A C6A 1_555 1_555
C8A C7A 1_555 1_555
H5A C8A 1_555 1_555
C9A C8A 1_555 1_555
H6A C9A 1_555 1_555
C10A N2A 1_555 1_555
H7A C10A 1_555 1_555
C11A N2A 1_555 1_555
H8A C11A 1_555 1_555
C12A O2A 1_555 1_555
O2A Ag1A 1_555 1_555
O3A C12A 1_555 1_555
C13A C12A 1_555 1_555
F1A C13A 1_555 1_555
F2A C13A 1_555 1_555
F3A C13A 1_555 1_555
Ag1B N2J 1_555 1_555
O1B C6B 1_555 1_555
N1B Ag1B 1_555 1_555
N2B C10B 1_555 1_555
C1B N1B 1_555 1_555
H1B C1B 1_555 1_555
C2B C1B 1_555 1_555
H2B C2B 1_555 1_555
C3B C2B 1_555 1_555
H3B C3B 1_555 1_555
C4B C3B 1_555 1_555
C5B N1B 1_555 1_555
H4B C5B 1_555 1_555
C6B C4B 1_555 1_555
C7B C6B 1_555 1_555
C8B C7B 1_555 1_555
H5B C8B 1_555 1_555
C9B C8B 1_555 1_555
H6B C9B 1_555 1_555
C10B C9B 1_555 1_555
H7B C10B 1_555 1_555
C11B N2B 1_555 1_555
H8B C11B 1_555 1_555
C12B O2B 1_555 1_555
O2B Ag1B 1_555 1_555
O3B C12B 1_555 1_555
C13B C12B 1_555 1_555
F1B C13B 1_555 1_555
F2B C13B 1_555 1_555
F3B C13B 1_555 1_555
Ag1I N2B 1_555 1_555
O1I C6I 1_555 1_555
N1I Ag1I 1_555 1_555
N2I Ag1A 1_555 1_555
C1I N1I 1_555 1_555
H1I C1I 1_555 1_555
C2I C1I 1_555 1_555
H2I C2I 1_555 1_555
C3I C2I 1_555 1_555
H3I C3I 1_555 1_555
C4I C3I 1_555 1_555
C5I N1I 1_555 1_555
H4I C5I 1_555 1_555
C6I C4I 1_555 1_555
C7I C6I 1_555 1_555
C8I C7I 1_555 1_555
H5I C8I 1_555 1_555
C9I C8I 1_555 1_555
H6I C9I 1_555 1_555
C10I N2I 1_555 1_555
H7I C10I 1_555 1_555
C11I N2I 1_555 1_555
H8I C11I 1_555 1_555
C12I O2I 1_555 1_555
O2I Ag1I 1_555 1_555
O3I C12I 1_555 1_555
C13I C12I 1_555 1_555
F1I C13I 1_555 1_555
F2I C13I 1_555 1_555
F3I C13I 1_555 1_555
C4 C5 1_555 1_555
C7 C11 1_555 1_555
C14 C15 1_555 1_555
C4J C5J 1_555 1_555
C7J C11J 1_555 1_555
C4K C5K 1_555 1_555
C7K C11K 1_555 1_555
C9K C10K 1_555 1_555
C4A C5A 1_555 1_555
C7A C11A 1_555 1_555
C9A C10A 1_555 1_555
C4B C5B 1_555 1_555
C7B C11B 1_555 1_555
C4I C5I 1_555 1_555
C7I C11I 1_555 1_555
C9I C10I 1_555 1_555

#END
