
#######################################################################
#
#                 Cambridge Crystallographic Data Centre
#                                CCDC 
#
#######################################################################
#
# If this CIF has been generated from an entry in the Cambridge 
# Structural Database, then it will include bibliographic, chemical, 
# crystal, experimental, refinement or atomic coordinate data resulting 
# from the CCDC's data processing and validation procedures.
#
#######################################################################

data_FUSNEN
_chemical_formula_moiety         'C78 H50 Ag6 F18 N12 O19'
_symmetry_cell_setting           rhombohedral
_symmetry_space_group_name_H-M   'R -3'
_symmetry_Int_Tables_number      148
_space_group_name_Hall           '-R 3'
loop_
_symmetry_equiv_pos_site_id
_symmetry_equiv_pos_as_xyz
1 x,y,z
2 -y,x-y,z
3 -x+y,-x,z
4 2/3+x,1/3+y,1/3+z
5 2/3-y,1/3+x-y,1/3+z
6 2/3-x+y,1/3-x,1/3+z
7 1/3+x,2/3+y,2/3+z
8 1/3-y,2/3+x-y,2/3+z
9 1/3-x+y,2/3-x,2/3+z
10 -x,-y,-z
11 y,-x+y,-z
12 x-y,x,-z
13 1/3-x,2/3-y,2/3-z
14 1/3+y,2/3-x+y,2/3-z
15 1/3+x-y,2/3+x,2/3-z
16 2/3-x,1/3-y,1/3-z
17 2/3+y,1/3-x+y,1/3-z
18 2/3+x-y,1/3+x,1/3-z
_cell_length_a                   34.533(6)
_cell_length_b                   34.533(6)
_cell_length_c                   8.473(3)
_cell_angle_alpha                90
_cell_angle_beta                 90
_cell_angle_gamma                120
_cell_volume                     8750.57
loop_
_atom_site_label
_atom_site_type_symbol
_atom_site_fract_x
_atom_site_fract_y
_atom_site_fract_z
Ag1 Ag 0.14518(2) 0.31774(3) 0.50581(9)
O1 O 0.33328(18) 0.3288(2) 0.7516(7)
N1 N 0.2047(2) 0.3378(2) 0.6547(7)
N2 N 0.2765(2) 0.1975(2) 0.6036(8)
C1 C 0.2181(3) 0.3728(3) 0.7508(10)
H1 H 0.2015 0.3874 0.7542
C2 C 0.2555(3) 0.3884(3) 0.8456(11)
H2 H 0.2638 0.4128 0.9118
C3 C 0.2800(3) 0.3675(3) 0.8408(9)
H3 H 0.3057 0.3779 0.9016
C4 C 0.2660(2) 0.3301(2) 0.7438(7)
C5 C 0.2280(2) 0.3171(3) 0.6528(8)
H4 H 0.2184 0.2924 0.5871
C6 C 0.2928(3) 0.3074(3) 0.7344(8)
C7 C 0.2705(3) 0.2585(3) 0.7086(8)
C8 C 0.2284(3) 0.2288(3) 0.7744(11)
H5 H 0.2125 0.2392 0.8317
C9 C 0.2118(4) 0.1840(3) 0.7508(15)
H6 H 0.1840 0.1633 0.7916
C10 C 0.2365(3) 0.1694(3) 0.6662(12)
H7 H 0.2247 0.1389 0.6521
C11 C 0.2933(3) 0.2412(3) 0.6286(9)
H8 H 0.3217 0.2609 0.5902
C12 C 0.1536(3) 0.4097(4) 0.4639(13)
O2 O 0.1444(4) 0.3962(4) 0.5952(11)
O3 O 0.1554(3) 0.3884(3) 0.3489(12)
C13 C 0.1630(5) 0.4565(6) 0.4334(18)
F1 F 0.2029(5) 0.4816(4) 0.390(2)
F2 F 0.1363(6) 0.4555(6) 0.3100(12)
F3 F 0.1529(4) 0.4753(3) 0.5423(12)
Ag1J Ag 0.31774(3) 0.17256(4) 0.49419(9)
O1J O 0.3288(2) -0.00448(27) 0.2484(7)
N1J N 0.3378(2) 0.1331(3) 0.3453(7)
N2J N 0.1975(2) -0.0790(3) 0.3964(8)
C1J C 0.3728(3) 0.1547(4) 0.2492(10)
H1J H 0.3874 0.1859 0.2458
C2J C 0.3884(3) 0.1329(4) 0.1544(11)
H2J H 0.4128 0.1490 0.0882
C3J C 0.3675(3) 0.0875(4) 0.1592(9)
H3J H 0.3779 0.0722 0.0984
C4J C 0.3301(2) 0.0641(3) 0.2562(7)
C5J C 0.3171(3) 0.0891(4) 0.3472(8)
H4J H 0.2924 0.0740 0.4129
C6J C 0.3074(3) 0.0146(4) 0.2656(8)
C7J C 0.2585(3) -0.0120(4) 0.2914(8)
C8J C 0.2288(3) 0.0004(4) 0.2256(11)
H5J H 0.2392 0.0267 0.1683
C9J C 0.1840(3) -0.0278(5) 0.2492(15)
H6J H 0.1633 -0.0207 0.2084
C10J C 0.1694(3) -0.0671(4) 0.3338(12)
H7J H 0.1389 -0.0858 0.3479
C11J C 0.2412(3) -0.0521(4) 0.3714(9)
H8J H 0.2609 -0.0608 0.4098
C12J C 0.4097(4) 0.2561(5) 0.5361(13)
O2J O 0.3962(4) 0.2518(6) 0.4048(11)
O3J O 0.3884(3) 0.2330(4) 0.6511(12)
C13J C 0.4565(6) 0.2935(8) 0.5666(18)
F1J F 0.4816(4) 0.2787(6) 0.610(2)
F2J F 0.4555(6) 0.3192(8) 0.6900(12)
F3J F 0.4753(3) 0.3224(5) 0.4577(12)
Ag1K Ag -0.17256(4) 0.14518(2) 0.49419(9)
O1K O 0.00448(27) 0.33328(18) 0.2484(7)
N1K N -0.1331(3) 0.2047(2) 0.3453(7)
N2K N 0.0790(3) 0.2765(2) 0.3964(8)
C1K C -0.1547(4) 0.2181(3) 0.2492(10)
H1K H -0.1859 0.2015 0.2458
C2K C -0.1329(4) 0.2555(3) 0.1544(11)
H2K H -0.1490 0.2638 0.0882
C3K C -0.0875(4) 0.2800(3) 0.1592(9)
H3K H -0.0722 0.3057 0.0984
C4K C -0.0641(3) 0.2660(2) 0.2562(7)
C5K C -0.0891(4) 0.2280(2) 0.3472(8)
H4K H -0.0740 0.2184 0.4129
C6K C -0.0146(4) 0.2928(3) 0.2656(8)
C7K C 0.0120(4) 0.2705(3) 0.2914(8)
C8K C -0.0004(4) 0.2284(3) 0.2256(11)
H5K H -0.0267 0.2125 0.1683
C9K C 0.0278(5) 0.2118(4) 0.2492(15)
H6K H 0.0207 0.1840 0.2084
C10K C 0.0671(4) 0.2365(3) 0.3338(12)
H7K H 0.0858 0.2247 0.3479
C11K C 0.0521(4) 0.2933(3) 0.3714(9)
H8K H 0.0608 0.3217 0.4098
C12K C -0.2561(5) 0.1536(3) 0.5361(13)
O2K O -0.2518(6) 0.1444(4) 0.4048(11)
O3K O -0.2330(4) 0.1554(3) 0.6511(12)
C13K C -0.2935(8) 0.1630(5) 0.5666(18)
F1K F -0.2787(6) 0.2029(5) 0.610(2)
F2K F -0.3192(8) 0.1363(6) 0.6900(12)
F3K F -0.3224(5) 0.1529(4) 0.4577(12)
Ag1A Ag -0.31774(3) -0.17256(4) 0.50581(9)
O1A O -0.3288(2) 0.00448(27) 0.7516(7)
N1A N -0.3378(2) -0.1331(3) 0.6547(7)
N2A N -0.1975(2) 0.0790(3) 0.6036(8)
C1A C -0.3728(3) -0.1547(4) 0.7508(10)
H1A H -0.3874 -0.1859 0.7542
C2A C -0.3884(3) -0.1329(4) 0.8456(11)
H2A H -0.4128 -0.1490 0.9118
C3A C -0.3675(3) -0.0875(4) 0.8408(9)
H3A H -0.3779 -0.0722 0.9016
C4A C -0.3301(2) -0.0641(3) 0.7438(7)
C5A C -0.3171(3) -0.0891(4) 0.6528(8)
H4A H -0.2924 -0.0740 0.5871
C6A C -0.3074(3) -0.0146(4) 0.7344(8)
C7A C -0.2585(3) 0.0120(4) 0.7086(8)
C8A C -0.2288(3) -0.0004(4) 0.7744(11)
H5A H -0.2392 -0.0267 0.8317
C9A C -0.1840(3) 0.0278(5) 0.7508(15)
H6A H -0.1633 0.0207 0.7916
C10A C -0.1694(3) 0.0671(4) 0.6662(12)
H7A H -0.1389 0.0858 0.6521
C11A C -0.2412(3) 0.0521(4) 0.6286(9)
H8A H -0.2609 0.0608 0.5902
C12A C -0.4097(4) -0.2561(5) 0.4639(13)
O2A O -0.3962(4) -0.2518(6) 0.5952(11)
O3A O -0.3884(3) -0.2330(4) 0.3489(12)
C13A C -0.4565(6) -0.2935(8) 0.4334(18)
F1A F -0.4816(4) -0.2787(6) 0.390(2)
F2A F -0.4555(6) -0.3192(8) 0.3100(12)
F3A F -0.4753(3) -0.3224(5) 0.5423(12)
Ag1B Ag 0.17256(4) -0.14518(2) 0.50581(9)
O1B O -0.00448(27) -0.33328(18) 0.7516(7)
N1B N 0.1331(3) -0.2047(2) 0.6547(7)
N2B N -0.0790(3) -0.2765(2) 0.6036(8)
C1B C 0.1547(4) -0.2181(3) 0.7508(10)
H1B H 0.1859 -0.2015 0.7542
C2B C 0.1329(4) -0.2555(3) 0.8456(11)
H2B H 0.1490 -0.2638 0.9118
C3B C 0.0875(4) -0.2800(3) 0.8408(9)
H3B H 0.0722 -0.3057 0.9016
C4B C 0.0641(3) -0.2660(2) 0.7438(7)
C5B C 0.0891(4) -0.2280(2) 0.6528(8)
H4B H 0.0740 -0.2184 0.5871
C6B C 0.0146(4) -0.2928(3) 0.7344(8)
C7B C -0.0120(4) -0.2705(3) 0.7086(8)
C8B C 0.0004(4) -0.2284(3) 0.7744(11)
H5B H 0.0267 -0.2125 0.8317
C9B C -0.0278(5) -0.2118(4) 0.7508(15)
H6B H -0.0207 -0.1840 0.7916
C10B C -0.0671(4) -0.2365(3) 0.6662(12)
H7B H -0.0858 -0.2247 0.6521
C11B C -0.0521(4) -0.2933(3) 0.6286(9)
H8B H -0.0608 -0.3217 0.5902
C12B C 0.2561(5) -0.1536(3) 0.4639(13)
O2B O 0.2518(6) -0.1444(4) 0.5952(11)
O3B O 0.2330(4) -0.1554(3) 0.3489(12)
C13B C 0.2935(8) -0.1630(5) 0.4334(18)
F1B F 0.2787(6) -0.2029(5) 0.390(2)
F2B F 0.3192(8) -0.1363(6) 0.3100(12)
F3B F 0.3224(5) -0.1529(4) 0.5423(12)
Ag1I Ag -0.14518(2) -0.31774(3) 0.49419(9)
O1I O -0.33328(18) -0.3288(2) 0.2484(7)
N1I N -0.2047(2) -0.3378(2) 0.3453(7)
N2I N -0.2765(2) -0.1975(2) 0.3964(8)
C1I C -0.2181(3) -0.3728(3) 0.2492(10)
H1I H -0.2015 -0.3874 0.2458
C2I C -0.2555(3) -0.3884(3) 0.1544(11)
H2I H -0.2638 -0.4128 0.0882
C3I C -0.2800(3) -0.3675(3) 0.1592(9)
H3I H -0.3057 -0.3779 0.0984
C4I C -0.2660(2) -0.3301(2) 0.2562(7)
C5I C -0.2280(2) -0.3171(3) 0.3472(8)
H4I H -0.2184 -0.2924 0.4129
C6I C -0.2928(3) -0.3074(3) 0.2656(8)
C7I C -0.2705(3) -0.2585(3) 0.2914(8)
C8I C -0.2284(3) -0.2288(3) 0.2256(11)
H5I H -0.2125 -0.2392 0.1683
C9I C -0.2118(4) -0.1840(3) 0.2492(15)
H6I H -0.1840 -0.1633 0.2084
C10I C -0.2365(3) -0.1694(3) 0.3338(12)
H7I H -0.2247 -0.1389 0.3479
C11I C -0.2933(3) -0.2412(3) 0.3714(9)
H8I H -0.3217 -0.2609 0.4098
C12I C -0.1536(3) -0.4097(4) 0.5361(13)
O2I O -0.1444(4) -0.3962(4) 0.4048(11)
O3I O -0.1554(3) -0.3884(3) 0.6511(12)
C13I C -0.1630(5) -0.4565(6) 0.5666(18)
F1I F -0.2029(5) -0.4816(4) 0.610(2)
F2I F -0.1363(6) -0.4555(6) 0.6900(12)
F3I F -0.1529(4) -0.4753(3) 0.4577(12)
O4 O 0.1719(18) 0.0810(17) 0.180(6)
loop_
_geom_bond_atom_site_label_1
_geom_bond_atom_site_label_2
_geom_bond_site_symmetry_1
_geom_bond_site_symmetry_2
Ag1 N1 1_555 1_555
O1 C6 1_555 1_555
N1 C1 1_555 1_555
N2 C10 1_555 1_555
C1 H1 1_555 1_555
C2 C1 1_555 1_555
H2 C2 1_555 1_555
C3 C2 1_555 1_555
H3 C3 1_555 1_555
C4 C3 1_555 1_555
C5 N1 1_555 1_555
H4 C5 1_555 1_555
C6 C4 1_555 1_555
C7 C6 1_555 1_555
C8 C7 1_555 1_555
H5 C8 1_555 1_555
C9 C8 1_555 1_555
H6 C9 1_555 1_555
C10 C9 1_555 1_555
H7 C10 1_555 1_555
C11 N2 1_555 1_555
H8 C11 1_555 1_555
C12 O2 1_555 1_555
O3 Ag1 1_555 1_555
C13 C12 1_555 1_555
F1 C13 1_555 1_555
F2 C13 1_555 1_555
F3 C13 1_555 1_555
Ag1J N2 1_555 1_555
O1J C6J 1_555 1_555
N1J Ag1J 1_555 1_555
N2J C10J 1_555 1_555
C1J N1J 1_555 1_555
H1J C1J 1_555 1_555
C2J C1J 1_555 1_555
H2J C2J 1_555 1_555
C3J C2J 1_555 1_555
H3J C3J 1_555 1_555
C4J C3J 1_555 1_555
C5J N1J 1_555 1_555
H4J C5J 1_555 1_555
C6J C4J 1_555 1_555
C7J C6J 1_555 1_555
C8J C7J 1_555 1_555
H5J C8J 1_555 1_555
C9J C8J 1_555 1_555
H6J C9J 1_555 1_555
C10J C9J 1_555 1_555
H7J C10J 1_555 1_555
C11J N2J 1_555 1_555
H8J C11J 1_555 1_555
C12J O2J 1_555 1_555
O3J Ag1J 1_555 1_555
C13J C12J 1_555 1_555
F1J C13J 1_555 1_555
F2J C13J 1_555 1_555
F3J C13J 1_555 1_555
Ag1K N1K 1_555 1_555
O1K C6K 1_555 1_555
N1K C1K 1_555 1_555
N2K Ag1 1_555 1_555
C1K H1K 1_555 1_555
C2K C1K 1_555 1_555
H2K C2K 1_555 1_555
C3K C2K 1_555 1_555
H3K C3K 1_555 1_555
C4K C3K 1_555 1_555
C5K N1K 1_555 1_555
H4K C5K 1_555 1_555
C6K C4K 1_555 1_555
C7K C6K 1_555 1_555
C8K C7K 1_555 1_555
H5K C8K 1_555 1_555
C9K C8K 1_555 1_555
H6K C9K 1_555 1_555
C10K N2K 1_555 1_555
H7K C10K 1_555 1_555
C11K N2K 1_555 1_555
H8K C11K 1_555 1_555
C12K O2K 1_555 1_555
O3K Ag1K 1_555 1_555
C13K C12K 1_555 1_555
F1K C13K 1_555 1_555
F2K C13K 1_555 1_555
F3K C13K 1_555 1_555
Ag1A N1A 1_555 1_555
O1A C6A 1_555 1_555
N1A C1A 1_555 1_555
N2A Ag1K 1_555 1_555
C1A H1A 1_555 1_555
C2A C1A 1_555 1_555
H2A C2A 1_555 1_555
C3A C2A 1_555 1_555
H3A C3A 1_555 1_555
C4A C3A 1_555 1_555
C5A N1A 1_555 1_555
H4A C5A 1_555 1_555
C6A C4A 1_555 1_555
C7A C6A 1_555 1_555
C8A C7A 1_555 1_555
H5A C8A 1_555 1_555
C9A C8A 1_555 1_555
H6A C9A 1_555 1_555
C10A N2A 1_555 1_555
H7A C10A 1_555 1_555
C11A N2A 1_555 1_555
H8A C11A 1_555 1_555
C12A O2A 1_555 1_555
O3A Ag1A 1_555 1_555
C13A C12A 1_555 1_555
F1A C13A 1_555 1_555
F2A C13A 1_555 1_555
F3A C13A 1_555 1_555
Ag1B N2J 1_555 1_555
O1B C6B 1_555 1_555
N1B Ag1B 1_555 1_555
N2B C10B 1_555 1_555
C1B N1B 1_555 1_555
H1B C1B 1_555 1_555
C2B C1B 1_555 1_555
H2B C2B 1_555 1_555
C3B C2B 1_555 1_555
H3B C3B 1_555 1_555
C4B C3B 1_555 1_555
C5B N1B 1_555 1_555
H4B C5B 1_555 1_555
C6B C4B 1_555 1_555
C7B C6B 1_555 1_555
C8B C7B 1_555 1_555
H5B C8B 1_555 1_555
C9B C8B 1_555 1_555
H6B C9B 1_555 1_555
C10B C9B 1_555 1_555
H7B C10B 1_555 1_555
C11B N2B 1_555 1_555
H8B C11B 1_555 1_555
C12B O2B 1_555 1_555
O3B Ag1B 1_555 1_555
C13B C12B 1_555 1_555
F1B C13B 1_555 1_555
F2B C13B 1_555 1_555
F3B C13B 1_555 1_555
Ag1I N2B 1_555 1_555
O1I C6I 1_555 1_555
N1I Ag1I 1_555 1_555
N2I Ag1A 1_555 1_555
C1I N1I 1_555 1_555
H1I C1I 1_555 1_555
C2I C1I 1_555 1_555
H2I C2I 1_555 1_555
C3I C2I 1_555 1_555
H3I C3I 1_555 1_555
C4I C3I 1_555 1_555
C5I N1I 1_555 1_555
H4I C5I 1_555 1_555
C6I C4I 1_555 1_555
C7I C6I 1_555 1_555
C8I C7I 1_555 1_555
H5I C8I 1_555 1_555
C9I C8I 1_555 1_555
H6I C9I 1_555 1_555
C10I N2I 1_555 1_555
H7I C10I 1_555 1_555
C11I N2I 1_555 1_555
H8I C11I 1_555 1_555
C12I O2I 1_555 1_555
O3I Ag1I 1_555 1_555
C13I C12I 1_555 1_555
F1I C13I 1_555 1_555
F2I C13I 1_555 1_555
F3I C13I 1_555 1_555
C4 C5 1_555 1_555
C7 C11 1_555 1_555
C12 O3 1_555 1_555
C4J C5J 1_555 1_555
C7J C11J 1_555 1_555
C12J O3J 1_555 1_555
C4K C5K 1_555 1_555
C7K C11K 1_555 1_555
C9K C10K 1_555 1_555
C12K O3K 1_555 1_555
C4A C5A 1_555 1_555
C7A C11A 1_555 1_555
C9A C10A 1_555 1_555
C12A O3A 1_555 1_555
C4B C5B 1_555 1_555
C7B C11B 1_555 1_555
C12B O3B 1_555 1_555
C4I C5I 1_555 1_555
C7I C11I 1_555 1_555
C9I C10I 1_555 1_555
C12I O3I 1_555 1_555

#END
