
#######################################################################
#
#                 Cambridge Crystallographic Data Centre
#                                CCDC 
#
#######################################################################
#
# If this CIF has been generated from an entry in the Cambridge 
# Structural Database, then it will include bibliographic, chemical, 
# crystal, experimental, refinement or atomic coordinate data resulting 
# from the CCDC's data processing and validation procedures.
#
#######################################################################

data_FUSNAJ
_chemical_formula_moiety         'C79 H52 Ag6 F18 N12 O19'
_symmetry_cell_setting           rhombohedral
_symmetry_space_group_name_H-M   'R -3'
_symmetry_Int_Tables_number      148
_space_group_name_Hall           '-R 3'
loop_
_symmetry_equiv_pos_site_id
_symmetry_equiv_pos_as_xyz
1 x,y,z
2 -y,x-y,z
3 -x+y,-x,z
4 2/3+x,1/3+y,1/3+z
5 2/3-y,1/3+x-y,1/3+z
6 2/3-x+y,1/3-x,1/3+z
7 1/3+x,2/3+y,2/3+z
8 1/3-y,2/3+x-y,2/3+z
9 1/3-x+y,2/3-x,2/3+z
10 -x,-y,-z
11 y,-x+y,-z
12 x-y,x,-z
13 1/3-x,2/3-y,2/3-z
14 1/3+y,2/3-x+y,2/3-z
15 1/3+x-y,2/3+x,2/3-z
16 2/3-x,1/3-y,1/3-z
17 2/3+y,1/3-x+y,1/3-z
18 2/3+x-y,1/3+x,1/3-z
_cell_length_a                   34.471(6)
_cell_length_b                   34.471(6)
_cell_length_c                   8.463(2)
_cell_angle_alpha                90
_cell_angle_beta                 90
_cell_angle_gamma                120
_cell_volume                     8708.89
loop_
_atom_site_label
_atom_site_type_symbol
_atom_site_fract_x
_atom_site_fract_y
_atom_site_fract_z
Ag1 Ag 0.145703(15) 0.318468(18) 0.50522(7)
O1 O 0.33385(12) 0.32890(14) 0.7573(5)
N1 N 0.20490(15) 0.33842(15) 0.6550(5)
N2 N 0.27686(17) 0.19766(16) 0.6070(6)
C1 C 0.21891(19) 0.37387(19) 0.7508(7)
H1 H 0.2026 0.3887 0.7533
C2 C 0.2557(2) 0.3894(2) 0.8446(8)
H2 H 0.2643 0.4142 0.9089
C3 C 0.2802(2) 0.36750(19) 0.8430(7)
H3 H 0.3057 0.3776 0.9054
C4 C 0.26623(17) 0.33015(17) 0.7465(6)
C5 C 0.22835(17) 0.31697(18) 0.6541(6)
H4 H 0.2188 0.2922 0.5887
C6 C 0.29322(18) 0.30746(18) 0.7381(6)
C7 C 0.27085(18) 0.25862(19) 0.7109(6)
C8 C 0.2290(2) 0.2291(2) 0.7719(8)
H5 H 0.2127 0.2394 0.8272
C9 C 0.2123(2) 0.1839(2) 0.7484(10)
H6 H 0.1845 0.1633 0.7897
C10 C 0.2364(2) 0.1698(2) 0.6651(9)
H7 H 0.2241 0.1392 0.6477
C11 C 0.29337(19) 0.24115(18) 0.6316(6)
H8 H 0.3218 0.2609 0.5929
C12 C 0.1532(2) 0.4098(3) 0.4628(10)
O2 O 0.15530(19) 0.3904(2) 0.3488(8)
O3 O 0.1440(3) 0.3963(2) 0.5957(9)
C13 C 0.1648(4) 0.4582(4) 0.4345(15)
F1 F 0.1542(2) 0.4765(2) 0.5470(8)
F2 F 0.2061(3) 0.4848(2) 0.3984(15)
F3 F 0.1386(4) 0.4585(4) 0.3153(10)
Ag1J Ag 0.318468(18) 0.172765(23) 0.49478(7)
O1J O 0.32890(14) -0.00495(18) 0.2427(5)
N1J N 0.33842(15) 0.13352(21) 0.3450(5)
N2J N 0.19766(16) -0.07920(23) 0.3930(6)
C1J C 0.37387(19) 0.15496(27) 0.2492(7)
H1J H 0.3887 0.1861 0.2467
C2J C 0.3894(2) 0.1337(3) 0.1554(8)
H2J H 0.4142 0.1499 0.0911
C3J C 0.36750(19) 0.08730(28) 0.1570(7)
H3J H 0.3776 0.0719 0.0946
C4J C 0.33015(17) 0.06392(24) 0.2535(6)
C5J C 0.31697(18) 0.08862(25) 0.3459(6)
H4J H 0.2922 0.0734 0.4113
C6J C 0.30746(18) 0.01424(25) 0.2619(6)
C7J C 0.25862(19) -0.01223(26) 0.2891(6)
C8J C 0.2291(2) 0.0001(3) 0.2281(8)
H5J H 0.2394 0.0267 0.1728
C9J C 0.1839(2) -0.0284(3) 0.2516(10)
H6J H 0.1633 -0.0212 0.2103
C10J C 0.1698(2) -0.0666(3) 0.3349(9)
H7J H 0.1392 -0.0849 0.3523
C11J C 0.24115(18) -0.05222(26) 0.3684(6)
H8J H 0.2609 -0.0609 0.4071
C12J C 0.4098(3) 0.2566(4) 0.5372(10)
O2J O 0.3904(2) 0.23510(28) 0.6512(8)
O3J O 0.3963(2) 0.2523(4) 0.4043(9)
C13J C 0.4582(4) 0.2934(6) 0.5655(15)
F1J F 0.4765(2) 0.3223(3) 0.4530(8)
F2J F 0.4848(2) 0.2787(4) 0.6016(15)
F3J F 0.4585(4) 0.3199(6) 0.6847(10)
Ag1K Ag -0.172765(23) 0.145703(15) 0.49478(7)
O1K O 0.00495(18) 0.33385(12) 0.2427(5)
N1K N -0.13352(21) 0.20490(15) 0.3450(5)
N2K N 0.07920(23) 0.27686(17) 0.3930(6)
C1K C -0.15496(27) 0.21891(19) 0.2492(7)
H1K H -0.1861 0.2026 0.2467
C2K C -0.1337(3) 0.2557(2) 0.1554(8)
H2K H -0.1499 0.2643 0.0911
C3K C -0.08730(28) 0.2802(2) 0.1570(7)
H3K H -0.0719 0.3057 0.0946
C4K C -0.06392(24) 0.26623(17) 0.2535(6)
C5K C -0.08862(25) 0.22835(17) 0.3459(6)
H4K H -0.0734 0.2188 0.4113
C6K C -0.01424(25) 0.29322(18) 0.2619(6)
C7K C 0.01223(26) 0.27085(18) 0.2891(6)
C8K C -0.0001(3) 0.2290(2) 0.2281(8)
H5K H -0.0267 0.2127 0.1728
C9K C 0.0284(3) 0.2123(2) 0.2516(10)
H6K H 0.0212 0.1845 0.2103
C10K C 0.0666(3) 0.2364(2) 0.3349(9)
H7K H 0.0849 0.2241 0.3523
C11K C 0.05222(26) 0.29337(19) 0.3684(6)
H8K H 0.0609 0.3218 0.4071
C12K C -0.2566(4) 0.1532(2) 0.5372(10)
O2K O -0.23510(28) 0.15530(19) 0.6512(8)
O3K O -0.2523(4) 0.1440(3) 0.4043(9)
C13K C -0.2934(6) 0.1648(4) 0.5655(15)
F1K F -0.3223(3) 0.1542(2) 0.4530(8)
F2K F -0.2787(4) 0.2061(3) 0.6016(15)
F3K F -0.3199(6) 0.1386(4) 0.6847(10)
Ag1A Ag -0.318468(18) -0.172765(23) 0.50522(7)
O1A O -0.32890(14) 0.00495(18) 0.7573(5)
N1A N -0.33842(15) -0.13352(21) 0.6550(5)
N2A N -0.19766(16) 0.07920(23) 0.6070(6)
C1A C -0.37387(19) -0.15496(27) 0.7508(7)
H1A H -0.3887 -0.1861 0.7533
C2A C -0.3894(2) -0.1337(3) 0.8446(8)
H2A H -0.4142 -0.1499 0.9089
C3A C -0.36750(19) -0.08730(28) 0.8430(7)
H3A H -0.3776 -0.0719 0.9054
C4A C -0.33015(17) -0.06392(24) 0.7465(6)
C5A C -0.31697(18) -0.08862(25) 0.6541(6)
H4A H -0.2922 -0.0734 0.5887
C6A C -0.30746(18) -0.01424(25) 0.7381(6)
C7A C -0.25862(19) 0.01223(26) 0.7109(6)
C8A C -0.2291(2) -0.0001(3) 0.7719(8)
H5A H -0.2394 -0.0267 0.8272
C9A C -0.1839(2) 0.0284(3) 0.7484(10)
H6A H -0.1633 0.0212 0.7897
C10A C -0.1698(2) 0.0666(3) 0.6651(9)
H7A H -0.1392 0.0849 0.6477
C11A C -0.24115(18) 0.05222(26) 0.6316(6)
H8A H -0.2609 0.0609 0.5929
C12A C -0.4098(3) -0.2566(4) 0.4628(10)
O2A O -0.3904(2) -0.23510(28) 0.3488(8)
O3A O -0.3963(2) -0.2523(4) 0.5957(9)
C13A C -0.4582(4) -0.2934(6) 0.4345(15)
F1A F -0.4765(2) -0.3223(3) 0.5470(8)
F2A F -0.4848(2) -0.2787(4) 0.3984(15)
F3A F -0.4585(4) -0.3199(6) 0.3153(10)
Ag1B Ag 0.172765(23) -0.145703(15) 0.50522(7)
O1B O -0.00495(18) -0.33385(12) 0.7573(5)
N1B N 0.13352(21) -0.20490(15) 0.6550(5)
N2B N -0.07920(23) -0.27686(17) 0.6070(6)
C1B C 0.15496(27) -0.21891(19) 0.7508(7)
H1B H 0.1861 -0.2026 0.7533
C2B C 0.1337(3) -0.2557(2) 0.8446(8)
H2B H 0.1499 -0.2643 0.9089
C3B C 0.08730(28) -0.2802(2) 0.8430(7)
H3B H 0.0719 -0.3057 0.9054
C4B C 0.06392(24) -0.26623(17) 0.7465(6)
C5B C 0.08862(25) -0.22835(17) 0.6541(6)
H4B H 0.0734 -0.2188 0.5887
C6B C 0.01424(25) -0.29322(18) 0.7381(6)
C7B C -0.01223(26) -0.27085(18) 0.7109(6)
C8B C 0.0001(3) -0.2290(2) 0.7719(8)
H5B H 0.0267 -0.2127 0.8272
C9B C -0.0284(3) -0.2123(2) 0.7484(10)
H6B H -0.0212 -0.1845 0.7897
C10B C -0.0666(3) -0.2364(2) 0.6651(9)
H7B H -0.0849 -0.2241 0.6477
C11B C -0.05222(26) -0.29337(19) 0.6316(6)
H8B H -0.0609 -0.3218 0.5929
C12B C 0.2566(4) -0.1532(2) 0.4628(10)
O2B O 0.23510(28) -0.15530(19) 0.3488(8)
O3B O 0.2523(4) -0.1440(3) 0.5957(9)
C13B C 0.2934(6) -0.1648(4) 0.4345(15)
F1B F 0.3223(3) -0.1542(2) 0.5470(8)
F2B F 0.2787(4) -0.2061(3) 0.3984(15)
F3B F 0.3199(6) -0.1386(4) 0.3153(10)
Ag1I Ag -0.145703(15) -0.318468(18) 0.49478(7)
O1I O -0.33385(12) -0.32890(14) 0.2427(5)
N1I N -0.20490(15) -0.33842(15) 0.3450(5)
N2I N -0.27686(17) -0.19766(16) 0.3930(6)
C1I C -0.21891(19) -0.37387(19) 0.2492(7)
H1I H -0.2026 -0.3887 0.2467
C2I C -0.2557(2) -0.3894(2) 0.1554(8)
H2I H -0.2643 -0.4142 0.0911
C3I C -0.2802(2) -0.36750(19) 0.1570(7)
H3I H -0.3057 -0.3776 0.0946
C4I C -0.26623(17) -0.33015(17) 0.2535(6)
C5I C -0.22835(17) -0.31697(18) 0.3459(6)
H4I H -0.2188 -0.2922 0.4113
C6I C -0.29322(18) -0.30746(18) 0.2619(6)
C7I C -0.27085(18) -0.25862(19) 0.2891(6)
C8I C -0.2290(2) -0.2291(2) 0.2281(8)
H5I H -0.2127 -0.2394 0.1728
C9I C -0.2123(2) -0.1839(2) 0.2516(10)
H6I H -0.1845 -0.1633 0.2103
C10I C -0.2364(2) -0.1698(2) 0.3349(9)
H7I H -0.2241 -0.1392 0.3523
C11I C -0.29337(19) -0.24115(18) 0.3684(6)
H8I H -0.3218 -0.2609 0.4071
C12I C -0.1532(2) -0.4098(3) 0.5372(10)
O2I O -0.15530(19) -0.3904(2) 0.6512(8)
O3I O -0.1440(3) -0.3963(2) 0.4043(9)
C13I C -0.1648(4) -0.4582(4) 0.5655(15)
F1I F -0.1542(2) -0.4765(2) 0.4530(8)
F2I F -0.2061(3) -0.4848(2) 0.6016(15)
F3I F -0.1386(4) -0.4585(4) 0.6847(10)
O4 O 0.1338(19) 0.063(2) 0.402(7)
C14 C 0.1737(19) 0.082(2) 0.327(8)
loop_
_geom_bond_atom_site_label_1
_geom_bond_atom_site_label_2
_geom_bond_site_symmetry_1
_geom_bond_site_symmetry_2
Ag1 N1 1_555 1_555
O1 C6 1_555 1_555
N1 C1 1_555 1_555
N2 C10 1_555 1_555
C1 H1 1_555 1_555
C2 C1 1_555 1_555
H2 C2 1_555 1_555
C3 C2 1_555 1_555
H3 C3 1_555 1_555
C4 C3 1_555 1_555
C5 N1 1_555 1_555
H4 C5 1_555 1_555
C6 C4 1_555 1_555
C7 C6 1_555 1_555
C8 C7 1_555 1_555
H5 C8 1_555 1_555
C9 C8 1_555 1_555
H6 C9 1_555 1_555
C10 C9 1_555 1_555
H7 C10 1_555 1_555
C11 N2 1_555 1_555
H8 C11 1_555 1_555
C12 O2 1_555 1_555
O2 Ag1 1_555 1_555
O3 C12 1_555 1_555
C13 C12 1_555 1_555
F1 C13 1_555 1_555
F2 C13 1_555 1_555
F3 C13 1_555 1_555
O4 C14 1_555 1_555
Ag1J N2 1_555 1_555
O1J C6J 1_555 1_555
N1J Ag1J 1_555 1_555
N2J C10J 1_555 1_555
C1J N1J 1_555 1_555
H1J C1J 1_555 1_555
C2J C1J 1_555 1_555
H2J C2J 1_555 1_555
C3J C2J 1_555 1_555
H3J C3J 1_555 1_555
C4J C3J 1_555 1_555
C5J N1J 1_555 1_555
H4J C5J 1_555 1_555
C6J C4J 1_555 1_555
C7J C6J 1_555 1_555
C8J C7J 1_555 1_555
H5J C8J 1_555 1_555
C9J C8J 1_555 1_555
H6J C9J 1_555 1_555
C10J C9J 1_555 1_555
H7J C10J 1_555 1_555
C11J N2J 1_555 1_555
H8J C11J 1_555 1_555
C12J O2J 1_555 1_555
O2J Ag1J 1_555 1_555
O3J C12J 1_555 1_555
C13J C12J 1_555 1_555
F1J C13J 1_555 1_555
F2J C13J 1_555 1_555
F3J C13J 1_555 1_555
Ag1K N1K 1_555 1_555
O1K C6K 1_555 1_555
N1K C1K 1_555 1_555
N2K Ag1 1_555 1_555
C1K H1K 1_555 1_555
C2K C1K 1_555 1_555
H2K C2K 1_555 1_555
C3K C2K 1_555 1_555
H3K C3K 1_555 1_555
C4K C3K 1_555 1_555
C5K N1K 1_555 1_555
H4K C5K 1_555 1_555
C6K C4K 1_555 1_555
C7K C6K 1_555 1_555
C8K C7K 1_555 1_555
H5K C8K 1_555 1_555
C9K C8K 1_555 1_555
H6K C9K 1_555 1_555
C10K N2K 1_555 1_555
H7K C10K 1_555 1_555
C11K N2K 1_555 1_555
H8K C11K 1_555 1_555
C12K O2K 1_555 1_555
O2K Ag1K 1_555 1_555
O3K C12K 1_555 1_555
C13K C12K 1_555 1_555
F1K C13K 1_555 1_555
F2K C13K 1_555 1_555
F3K C13K 1_555 1_555
Ag1A N1A 1_555 1_555
O1A C6A 1_555 1_555
N1A C1A 1_555 1_555
N2A Ag1K 1_555 1_555
C1A H1A 1_555 1_555
C2A C1A 1_555 1_555
H2A C2A 1_555 1_555
C3A C2A 1_555 1_555
H3A C3A 1_555 1_555
C4A C3A 1_555 1_555
C5A N1A 1_555 1_555
H4A C5A 1_555 1_555
C6A C4A 1_555 1_555
C7A C6A 1_555 1_555
C8A C7A 1_555 1_555
H5A C8A 1_555 1_555
C9A C8A 1_555 1_555
H6A C9A 1_555 1_555
C10A N2A 1_555 1_555
H7A C10A 1_555 1_555
C11A N2A 1_555 1_555
H8A C11A 1_555 1_555
C12A O2A 1_555 1_555
O2A Ag1A 1_555 1_555
O3A C12A 1_555 1_555
C13A C12A 1_555 1_555
F1A C13A 1_555 1_555
F2A C13A 1_555 1_555
F3A C13A 1_555 1_555
Ag1B N2J 1_555 1_555
O1B C6B 1_555 1_555
N1B Ag1B 1_555 1_555
N2B C10B 1_555 1_555
C1B N1B 1_555 1_555
H1B C1B 1_555 1_555
C2B C1B 1_555 1_555
H2B C2B 1_555 1_555
C3B C2B 1_555 1_555
H3B C3B 1_555 1_555
C4B C3B 1_555 1_555
C5B N1B 1_555 1_555
H4B C5B 1_555 1_555
C6B C4B 1_555 1_555
C7B C6B 1_555 1_555
C8B C7B 1_555 1_555
H5B C8B 1_555 1_555
C9B C8B 1_555 1_555
H6B C9B 1_555 1_555
C10B C9B 1_555 1_555
H7B C10B 1_555 1_555
C11B N2B 1_555 1_555
H8B C11B 1_555 1_555
C12B O2B 1_555 1_555
O2B Ag1B 1_555 1_555
O3B C12B 1_555 1_555
C13B C12B 1_555 1_555
F1B C13B 1_555 1_555
F2B C13B 1_555 1_555
F3B C13B 1_555 1_555
Ag1I N2B 1_555 1_555
O1I C6I 1_555 1_555
N1I Ag1I 1_555 1_555
N2I Ag1A 1_555 1_555
C1I N1I 1_555 1_555
H1I C1I 1_555 1_555
C2I C1I 1_555 1_555
H2I C2I 1_555 1_555
C3I C2I 1_555 1_555
H3I C3I 1_555 1_555
C4I C3I 1_555 1_555
C5I N1I 1_555 1_555
H4I C5I 1_555 1_555
C6I C4I 1_555 1_555
C7I C6I 1_555 1_555
C8I C7I 1_555 1_555
H5I C8I 1_555 1_555
C9I C8I 1_555 1_555
H6I C9I 1_555 1_555
C10I N2I 1_555 1_555
H7I C10I 1_555 1_555
C11I N2I 1_555 1_555
H8I C11I 1_555 1_555
C12I O2I 1_555 1_555
O2I Ag1I 1_555 1_555
O3I C12I 1_555 1_555
C13I C12I 1_555 1_555
F1I C13I 1_555 1_555
F2I C13I 1_555 1_555
F3I C13I 1_555 1_555
C4 C5 1_555 1_555
C7 C11 1_555 1_555
C4J C5J 1_555 1_555
C7J C11J 1_555 1_555
C4K C5K 1_555 1_555
C7K C11K 1_555 1_555
C9K C10K 1_555 1_555
C4A C5A 1_555 1_555
C7A C11A 1_555 1_555
C9A C10A 1_555 1_555
C4B C5B 1_555 1_555
C7B C11B 1_555 1_555
C4I C5I 1_555 1_555
C7I C11I 1_555 1_555
C9I C10I 1_555 1_555

#END
