
#######################################################################
#
#                 Cambridge Crystallographic Data Centre
#                                CCDC 
#
#######################################################################
#
# If this CIF has been generated from an entry in the Cambridge 
# Structural Database, then it will include bibliographic, chemical, 
# crystal, experimental, refinement or atomic coordinate data resulting 
# from the CCDC's data processing and validation procedures.
#
#######################################################################

data_FUSNIR
_chemical_formula_moiety         'C86 H54 Ag6 F30 N12 O19'
_symmetry_cell_setting           rhombohedral
_symmetry_space_group_name_H-M   'R -3'
_symmetry_Int_Tables_number      148
_space_group_name_Hall           '-R 3'
loop_
_symmetry_equiv_pos_site_id
_symmetry_equiv_pos_as_xyz
1 x,y,z
2 -y,x-y,z
3 -x+y,-x,z
4 2/3+x,1/3+y,1/3+z
5 2/3-y,1/3+x-y,1/3+z
6 2/3-x+y,1/3-x,1/3+z
7 1/3+x,2/3+y,2/3+z
8 1/3-y,2/3+x-y,2/3+z
9 1/3-x+y,2/3-x,2/3+z
10 -x,-y,-z
11 y,-x+y,-z
12 x-y,x,-z
13 1/3-x,2/3-y,2/3-z
14 1/3+y,2/3-x+y,2/3-z
15 1/3+x-y,2/3+x,2/3-z
16 2/3-x,1/3-y,1/3-z
17 2/3+y,1/3-x+y,1/3-z
18 2/3+x-y,1/3+x,1/3-z
_cell_length_a                   34.5619(6)
_cell_length_b                   34.5619(6)
_cell_length_c                   8.3343(3)
_cell_angle_alpha                90
_cell_angle_beta                 90
_cell_angle_gamma                120
_cell_volume                     8621.74
loop_
_atom_site_label
_atom_site_type_symbol
_atom_site_fract_x
_atom_site_fract_y
_atom_site_fract_z
_atom_site_U_iso_or_equiv
_atom_site_thermal_displace_type
Ag1 Ag 0.807378(16) 0.150602(17) 0.83647(7) 0.0288 Uani
O1 O 1.00200(14) 0.32394(15) 1.0196(5) 0.0211 Uani
N1 N 0.86756(19) 0.19000(19) 0.9814(7) 0.0230 Uani
N2 N 0.95121(19) 0.40832(19) 0.9396(7) 0.0241 Uani
C1 C 0.8927(2) 0.2350(2) 0.9694(8) 0.0209 Uani
H1 H 0.8830 0.2505 0.9012 0.0250 Uiso
C2 C 0.9322(2) 0.2589(2) 1.0541(7) 0.0194 Uani
C3 C 0.9460(2) 0.2367(2) 1.1577(8) 0.0242 Uani
H2 H 0.9733 0.2525 1.2151 0.0290 Uiso
C4 C 0.9189(2) 0.1909(2) 1.1751(8) 0.0272 Uani
H3 H 0.9267 0.1748 1.2480 0.0330 Uiso
C5 C 0.8804(2) 0.1691(2) 1.0844(8) 0.0247 Uani
H4 H 0.8621 0.1376 1.0960 0.0290 Uiso
C6 C 0.9620(2) 0.3085(2) 1.0307(7) 0.0191 Uani
C7 C 0.9650(2) 0.3784(2) 0.9443(7) 0.0201 Uani
H5 H 0.9921 0.3854 0.8912 0.0240 Uiso
C8 C 0.9418(2) 0.3376(2) 1.0230(7) 0.0192 Uani
C9 C 0.9021(2) 0.3272(2) 1.1009(8) 0.0264 Uani
H6 H 0.8854 0.2997 1.1563 0.0320 Uiso
C10 C 0.8876(3) 0.3573(3) 1.0964(10) 0.0359 Uani
H7 H 0.8607 0.3510 1.1493 0.0430 Uiso
C11 C 0.9121(2) 0.3971(2) 1.0148(9) 0.0308 Uani
H8 H 0.9011 0.4174 1.0110 0.0370 Uiso
C12 C 0.8238(2) 0.0737(2) 0.7821(10) 0.0321 Uani
O2 O 0.8066(2) 0.0752(2) 0.9110(7) 0.0466 Uani
O3 O 0.8334(2) 0.0987(2) 0.6668(7) 0.0496 Uani
C13 C 0.8428(3) 0.0422(3) 0.7960(13) 0.1389 Uani
F1 F 0.8180(2) 0.00600(19) 0.8788(10) 0.0834 Uani
F2 F 0.8425(5) 0.0257(4) 0.6291(14) 0.1616 Uani
C14 C 0.8917(4) 0.0593(4) 0.827(2) 0.1883 Uani
F3 F 0.9115(6) 0.0777(6) 0.687(2) 0.1811 Uani
F4 F 0.8964(7) 0.0242(6) 0.873(3) 0.1818 Uani
F5 F 0.9057(7) 0.0902(7) 0.945(3) 0.1876 Uani
Ag1M Ag 0.483935(17) 0.009891(23) 0.83020(7) 0.0288 Uani
O1M O 0.65727(15) -0.01139(21) 0.6471(5) 0.0211 Uani
N1M N 0.52333(19) -0.01089(27) 0.6853(7) 0.0230 Uani
N2M N 0.74165(19) 0.12378(27) 0.7271(7) 0.0241 Uani
C1M C 0.5683(2) 0.0090(3) 0.6973(8) 0.0209 Uani
H1M H 0.5838 0.0342 0.7655 0.0250 Uiso
C2M C 0.5922(2) -0.0066(3) 0.6126(7) 0.0194 Uani
C3M C 0.5700(2) -0.0426(3) 0.5090(8) 0.0242 Uani
H2M H 0.5858 -0.0541 0.4516 0.0290 Uiso
C4M C 0.5242(2) -0.0613(3) 0.4916(8) 0.0272 Uani
H3M H 0.5081 -0.0852 0.4187 0.0330 Uiso
C5M C 0.5024(2) -0.0446(3) 0.5823(8) 0.0247 Uani
H4M H 0.4709 -0.0578 0.5707 0.0290 Uiso
C6M C 0.6418(2) 0.0132(3) 0.6360(7) 0.0191 Uani
C7M C 0.7117(2) 0.0801(3) 0.7224(7) 0.0201 Uani
H5M H 0.7187 0.0600 0.7755 0.0240 Uiso
C8M C 0.6709(2) 0.0625(3) 0.6437(7) 0.0192 Uani
C9M C 0.6605(2) 0.0918(3) 0.5658(8) 0.0264 Uani
H6M H 0.6330 0.0810 0.5104 0.0320 Uiso
C10M C 0.6906(3) 0.1364(4) 0.5703(10) 0.0359 Uani
H7M H 0.6843 0.1570 0.5174 0.0430 Uiso
C11M C 0.7304(2) 0.1517(3) 0.6519(9) 0.0308 Uani
H8M H 0.7507 0.1830 0.6557 0.0370 Uiso
C12M C 0.4070(2) -0.0834(3) 0.8846(10) 0.0321 Uani
O2M O 0.4085(2) -0.0647(3) 0.7557(7) 0.0466 Uani
O3M O 0.4320(2) -0.0680(3) 0.9999(7) 0.0496 Uani
C13M C 0.3755(3) -0.1339(4) 0.8707(13) 0.1389 Uani
F1M F 0.33933(19) -0.14533(28) 0.7879(10) 0.0834 Uani
F2M F 0.3590(4) -0.1501(6) 1.0376(14) 0.1616 Uani
C14M C 0.3926(4) -0.1657(6) 0.840(2) 0.1883 Uani
F3M F 0.4110(6) -0.1671(8) 0.980(2) 0.1811 Uani
F4M F 0.3575(6) -0.2055(9) 0.794(3) 0.1818 Uani
F5M F 0.4235(7) -0.1488(10) 0.722(3) 0.1876 Uani
Ag1N Ag 0.990109(23) 0.474045(16) 0.83020(7) 0.0288 Uani
O1N O 1.01139(21) 0.66867(14) 0.6471(5) 0.0211 Uani
N1N N 1.01089(27) 0.53423(19) 0.6853(7) 0.0230 Uani
N2N N 0.87622(27) 0.61788(19) 0.7271(7) 0.0241 Uani
C1N C 0.9910(3) 0.5594(2) 0.6973(8) 0.0209 Uani
H1N H 0.9658 0.5497 0.7655 0.0250 Uiso
C2N C 1.0066(3) 0.5989(2) 0.6126(7) 0.0194 Uani
C3N C 1.0426(3) 0.6127(2) 0.5090(8) 0.0242 Uani
H2N H 1.0541 0.6400 0.4516 0.0290 Uiso
C4N C 1.0613(3) 0.5856(2) 0.4916(8) 0.0272 Uani
H3N H 1.0852 0.5934 0.4187 0.0330 Uiso
C5N C 1.0446(3) 0.5471(2) 0.5823(8) 0.0247 Uani
H4N H 1.0578 0.5288 0.5707 0.0290 Uiso
C6N C 0.9868(3) 0.6287(2) 0.6360(7) 0.0191 Uani
C7N C 0.9199(3) 0.6317(2) 0.7224(7) 0.0201 Uani
H5N H 0.9400 0.6588 0.7755 0.0240 Uiso
C8N C 0.9375(3) 0.6085(2) 0.6437(7) 0.0192 Uani
C9N C 0.9082(3) 0.5688(2) 0.5658(8) 0.0264 Uani
H6N H 0.9190 0.5521 0.5104 0.0320 Uiso
C10N C 0.8636(4) 0.5543(3) 0.5703(10) 0.0359 Uani
H7N H 0.8430 0.5274 0.5174 0.0430 Uiso
C11N C 0.8483(3) 0.5788(2) 0.6519(9) 0.0308 Uani
H8N H 0.8170 0.5678 0.6557 0.0370 Uiso
C12N C 1.0834(3) 0.4905(2) 0.8846(10) 0.0321 Uani
O2N O 1.0647(3) 0.4733(2) 0.7557(7) 0.0466 Uani
O3N O 1.0680(3) 0.5001(2) 0.9999(7) 0.0496 Uani
C13N C 1.1339(4) 0.5095(3) 0.8707(13) 0.1389 Uani
F1N F 1.14533(28) 0.4847(2) 0.7879(10) 0.0834 Uani
F2N F 1.1501(6) 0.5092(5) 1.0376(14) 0.1616 Uani
C14N C 1.1657(6) 0.5584(4) 0.840(2) 0.1883 Uani
F3N F 1.1671(8) 0.5782(6) 0.980(2) 0.1811 Uani
F4N F 1.2055(9) 0.5631(7) 0.794(3) 0.1818 Uani
F5N F 1.1488(10) 0.5724(7) 0.722(3) 0.1876 Uani
Ag1A Ag 0.849398(17) 0.656776(23) 0.83647(7) 0.0288 Uani
O1A O 0.67606(15) 0.67806(21) 1.0196(5) 0.0211 Uani
N1A N 0.81000(19) 0.67756(27) 0.9814(7) 0.0230 Uani
N2A N 0.59168(19) 0.54289(27) 0.9396(7) 0.0241 Uani
C1A C 0.7650(2) 0.6577(3) 0.9694(8) 0.0209 Uani
H1A H 0.7495 0.6325 0.9012 0.0250 Uiso
C2A C 0.7411(2) 0.6733(3) 1.0541(7) 0.0194 Uani
C3A C 0.7633(2) 0.7093(3) 1.1577(8) 0.0242 Uani
H2A H 0.7475 0.7208 1.2151 0.0290 Uiso
C4A C 0.8091(2) 0.7280(3) 1.1751(8) 0.0272 Uani
H3A H 0.8252 0.7519 1.2480 0.0330 Uiso
C5A C 0.8309(2) 0.7113(3) 1.0844(8) 0.0247 Uani
H4A H 0.8624 0.7245 1.0960 0.0290 Uiso
C6A C 0.6915(2) 0.6535(3) 1.0307(7) 0.0191 Uani
C7A C 0.6216(2) 0.5866(3) 0.9443(7) 0.0201 Uani
H5A H 0.6146 0.6067 0.8912 0.0240 Uiso
C8A C 0.6624(2) 0.6042(3) 1.0230(7) 0.0192 Uani
C9A C 0.6728(2) 0.5749(3) 1.1009(8) 0.0264 Uani
H6A H 0.7003 0.5857 1.1563 0.0320 Uiso
C10A C 0.6427(3) 0.5303(4) 1.0964(10) 0.0359 Uani
H7A H 0.6490 0.5097 1.1493 0.0430 Uiso
C11A C 0.6029(2) 0.5150(3) 1.0148(9) 0.0308 Uani
H8A H 0.5826 0.4837 1.0110 0.0370 Uiso
C12A C 0.9263(2) 0.7501(3) 0.7821(10) 0.0321 Uani
O2A O 0.9248(2) 0.7314(3) 0.9110(7) 0.0466 Uani
O3A O 0.9013(2) 0.7347(3) 0.6668(7) 0.0496 Uani
C13A C 0.9578(3) 0.8006(4) 0.7960(13) 0.1389 Uani
F1A F 0.99400(19) 0.81200(28) 0.8788(10) 0.0834 Uani
F2A F 0.9743(4) 0.8168(6) 0.6291(14) 0.1616 Uani
C14A C 0.9407(4) 0.8324(6) 0.827(2) 0.1883 Uani
F3A F 0.9223(6) 0.8338(8) 0.687(2) 0.1811 Uani
F4A F 0.9758(6) 0.8722(9) 0.873(3) 0.1818 Uani
F5A F 0.9098(7) 0.8155(10) 0.945(3) 0.1876 Uani
Ag1B Ag 0.343224(23) 0.192622(16) 0.83647(7) 0.0288 Uani
O1B O 0.32194(21) -0.00200(14) 1.0196(5) 0.0211 Uani
N1B N 0.32244(27) 0.13244(19) 0.9814(7) 0.0230 Uani
N2B N 0.45711(27) 0.04879(19) 0.9396(7) 0.0241 Uani
C1B C 0.3423(3) 0.1073(2) 0.9694(8) 0.0209 Uani
H1B H 0.3675 0.1170 0.9012 0.0250 Uiso
C2B C 0.3267(3) 0.0678(2) 1.0541(7) 0.0194 Uani
C3B C 0.2907(3) 0.0540(2) 1.1577(8) 0.0242 Uani
H2B H 0.2792 0.0267 1.2151 0.0290 Uiso
C4B C 0.2720(3) 0.0811(2) 1.1751(8) 0.0272 Uani
H3B H 0.2481 0.0733 1.2480 0.0330 Uiso
C5B C 0.2887(3) 0.1196(2) 1.0844(8) 0.0247 Uani
H4B H 0.2755 0.1379 1.0960 0.0290 Uiso
C6B C 0.3465(3) 0.0380(2) 1.0307(7) 0.0191 Uani
C7B C 0.4134(3) 0.0350(2) 0.9443(7) 0.0201 Uani
H5B H 0.3933 0.0079 0.8912 0.0240 Uiso
C8B C 0.3958(3) 0.0582(2) 1.0230(7) 0.0192 Uani
C9B C 0.4251(3) 0.0979(2) 1.1009(8) 0.0264 Uani
H6B H 0.4143 0.1146 1.1563 0.0320 Uiso
C10B C 0.4697(4) 0.1124(3) 1.0964(10) 0.0359 Uani
H7B H 0.4903 0.1393 1.1493 0.0430 Uiso
C11B C 0.4850(3) 0.0879(2) 1.0148(9) 0.0308 Uani
H8B H 0.5163 0.0989 1.0110 0.0370 Uiso
C12B C 0.2499(3) 0.1762(2) 0.7821(10) 0.0321 Uani
O2B O 0.2686(3) 0.1934(2) 0.9110(7) 0.0466 Uani
O3B O 0.2653(3) 0.1666(2) 0.6668(7) 0.0496 Uani
C13B C 0.1994(4) 0.1572(3) 0.7960(13) 0.1389 Uani
F1B F 0.18800(28) 0.1820(2) 0.8788(10) 0.0834 Uani
F2B F 0.1832(6) 0.1575(5) 0.6291(14) 0.1616 Uani
C14B C 0.1676(6) 0.1083(4) 0.827(2) 0.1883 Uani
F3B F 0.1662(8) 0.0885(6) 0.687(2) 0.1811 Uani
F4B F 0.1278(9) 0.1036(7) 0.873(3) 0.1818 Uani
F5B F 0.1845(10) 0.0943(7) 0.945(3) 0.1876 Uani
Ag1L Ag 0.525955(16) 0.516065(17) 0.83020(7) 0.0288 Uani
O1L O 0.33133(14) 0.34273(15) 0.6471(5) 0.0211 Uani
N1L N 0.46577(19) 0.47667(19) 0.6853(7) 0.0230 Uani
N2L N 0.38212(19) 0.25835(19) 0.7271(7) 0.0241 Uani
C1L C 0.4406(2) 0.4317(2) 0.6973(8) 0.0209 Uani
H1L H 0.4503 0.4162 0.7655 0.0250 Uiso
C2L C 0.4011(2) 0.4078(2) 0.6126(7) 0.0194 Uani
C3L C 0.3873(2) 0.4300(2) 0.5090(8) 0.0242 Uani
H2L H 0.3600 0.4142 0.4516 0.0290 Uiso
C4L C 0.4144(2) 0.4758(2) 0.4916(8) 0.0272 Uani
H3L H 0.4066 0.4919 0.4187 0.0330 Uiso
C5L C 0.4529(2) 0.4976(2) 0.5823(8) 0.0247 Uani
H4L H 0.4712 0.5291 0.5707 0.0290 Uiso
C6L C 0.3713(2) 0.3582(2) 0.6360(7) 0.0191 Uani
C7L C 0.3683(2) 0.2883(2) 0.7224(7) 0.0201 Uani
H5L H 0.3412 0.2813 0.7755 0.0240 Uiso
C8L C 0.3915(2) 0.3291(2) 0.6437(7) 0.0192 Uani
C9L C 0.4312(2) 0.3395(2) 0.5658(8) 0.0264 Uani
H6L H 0.4479 0.3670 0.5104 0.0320 Uiso
C10L C 0.4457(3) 0.3094(3) 0.5703(10) 0.0359 Uani
H7L H 0.4726 0.3157 0.5174 0.0430 Uiso
C11L C 0.4212(2) 0.2696(2) 0.6519(9) 0.0308 Uani
H8L H 0.4322 0.2493 0.6557 0.0370 Uiso
C12L C 0.5095(2) 0.5930(2) 0.8846(10) 0.0321 Uani
O2L O 0.5267(2) 0.5915(2) 0.7557(7) 0.0466 Uani
O3L O 0.4999(2) 0.5680(2) 0.9999(7) 0.0496 Uani
C13L C 0.4905(3) 0.6245(3) 0.8707(13) 0.1389 Uani
F1L F 0.5153(2) 0.66067(19) 0.7879(10) 0.0834 Uani
F2L F 0.4908(5) 0.6410(4) 1.0376(14) 0.1616 Uani
C14L C 0.4416(4) 0.6074(4) 0.840(2) 0.1883 Uani
F3L F 0.4218(6) 0.5890(6) 0.980(2) 0.1811 Uani
F4L F 0.4369(7) 0.6425(6) 0.794(3) 0.1818 Uani
F5L F 0.4276(7) 0.5765(7) 0.722(3) 0.1876 Uani
O4 O 0.8711(4) 0.0949(4) 1.3558(17) 0.0238 Uani
H9 H 0.8626 0.0926 1.4516 0.0360 Uiso
C15 C 0.8942(8) 0.0722(8) 1.335(3) 0.0414 Uani
H10 H 0.9261 0.0939 1.3564 0.0500 Uiso
H11 H 0.8919 0.0642 1.2203 0.0500 Uiso
C16 C 0.883(2) 0.0302(13) 1.430(8) 0.1689 Uani
H12 H 0.9025 0.0189 1.3968 0.2540 Uiso
H13 H 0.8516 0.0074 1.4094 0.2540 Uiso
H14 H 0.8868 0.0372 1.5448 0.2540 Uiso
loop_
_atom_site_aniso_label
_atom_site_aniso_U_11
_atom_site_aniso_U_22
_atom_site_aniso_U_33
_atom_site_aniso_U_23
_atom_site_aniso_U_13
_atom_site_aniso_U_12
Ag1 0.0203(3) 0.0244(4) 0.0337(4) 0.00102(19) -0.00559(19) 0.0052(2)
O1 0.018(2) 0.024(2) 0.019(2) 0.0017(17) -0.0002(17) 0.0087(19)
N1 0.018(3) 0.022(3) 0.025(3) 0.003(2) 0.001(2) 0.007(2)
N2 0.030(3) 0.024(3) 0.023(3) 0.001(2) 0.005(2) 0.017(2)
C1 0.022(3) 0.022(3) 0.020(3) 0.005(2) 0.003(2) 0.012(3)
C2 0.021(3) 0.020(3) 0.017(3) 0.002(2) 0.003(2) 0.010(3)
C3 0.021(3) 0.026(3) 0.026(3) -0.002(3) -0.005(3) 0.012(3)
C4 0.030(4) 0.025(3) 0.027(3) 0.005(3) -0.001(3) 0.014(3)
C5 0.021(3) 0.020(3) 0.030(3) 0.004(3) 0.007(3) 0.008(3)
C6 0.024(3) 0.021(3) 0.012(3) -0.001(2) -0.001(2) 0.011(3)
C7 0.019(3) 0.020(3) 0.019(3) -0.001(2) 0.002(2) 0.008(3)
C8 0.022(3) 0.020(3) 0.015(3) 0.000(2) -0.001(2) 0.010(3)
C9 0.029(4) 0.024(3) 0.026(3) 0.005(3) 0.007(3) 0.013(3)
C10 0.032(4) 0.036(4) 0.045(4) 0.008(3) 0.015(3) 0.021(3)
C11 0.031(4) 0.027(4) 0.039(4) 0.003(3) 0.008(3) 0.018(3)
C12 0.020(3) 0.024(3) 0.043(4) 0.003(3) 0.001(3) 0.004(3)
O2 0.051(4) 0.038(3) 0.041(3) 0.006(3) 0.008(3) 0.015(3)
O3 0.047(4) 0.048(4) 0.034(3) 0.012(3) -0.001(3) 0.009(3)
C13 0.147(16) 0.075(10) 0.23(2) 0.070(12) 0.133(17) 0.082(11)
F1 0.083(5) 0.038(3) 0.129(6) 0.007(4) -0.031(4) 0.030(3)
F2 0.267(4) 0.153(3) 0.142(4) -0.011(3) 0.028(4) 0.163(3)
C14 0.128(3) 0.122(3) 0.357(4) -0.029(4) -0.065(4) 0.094(3)
F3 0.124(4) 0.116(4) 0.354(5) -0.027(5) -0.066(5) 0.098(4)
F4 0.123(4) 0.118(4) 0.356(5) -0.025(5) -0.066(5) 0.099(4)
F5 0.127(4) 0.122(4) 0.356(5) -0.030(5) -0.067(5) 0.094(4)
Ag1M 0.0244 0.0343 0.0337 -0.00661 -0.00102 0.0192
O1M 0.024 0.0246 0.019 -0.0019 -0.0017 0.0153
N1M 0.022 0.026 0.025 -0.002 -0.003 0.015
N2M 0.024 0.02 0.023 0.004 -0.001 0.007
C1M 0.022 0.02 0.02 -0.002 -0.005 0.01
C2M 0.02 0.021 0.017 0.001 -0.002 0.01
C3M 0.026 0.023 0.026 -0.003 0.002 0.014
C4M 0.025 0.027 0.027 -0.006 -0.005 0.011
C5M 0.02 0.025 0.03 0.003 -0.004 0.012
C6M 0.021 0.023 0.012 2.11299e-19 0.001 0.01
C7M 0.02 0.023 0.019 0.003 0.001 0.012
C8M 0.02 0.022 0.015 -0.001 0 0.01
C9M 0.024 0.027 0.026 0.002 -0.005 0.011
C10M 0.036 0.026 0.045 0.007 -0.008 0.015
C11M 0.027 0.022 0.039 0.005 -0.003 0.009
C12M 0.024 0.036 0.043 -0.002 -0.003 0.02
O2M 0.038 0.059 0.041 0.002 -0.006 0.023
O3M 0.048 0.077 0.034 -0.013 -0.012 0.039
C13M 0.075 0.058 0.23 0.063 -0.07 -0.007
F1M 0.038 0.061 0.129 -0.038 -0.007 0.008
F2M 0.153 0.094 0.142 0.039 0.011 -0.01
C14M 0.122 0.062 0.357 -0.036 0.029 0.028
F3M 0.116 0.044 0.354 -0.039 0.027 0.018
F4M 0.118 0.043 0.356 -0.041 0.025 0.019
F5M 0.122 0.061 0.356 -0.037 0.03 0.028
Ag1N 0.0343 0.0203 0.0337 0.00559 0.00661 0.0151
O1N 0.0246 0.018 0.019 0.0002 0.0019 0.0093
N1N 0.026 0.018 0.025 -0.001 0.002 0.011
N2N 0.02 0.03 0.023 -0.005 -0.004 0.013
C1N 0.02 0.022 0.02 -0.003 0.002 0.01
C2N 0.021 0.021 0.017 -0.003 -0.001 0.011
C3N 0.023 0.021 0.026 0.005 0.003 0.009
C4N 0.027 0.03 0.027 0.001 0.006 0.016
C5N 0.025 0.021 0.03 -0.007 -0.003 0.013
C6N 0.023 0.024 0.012 0.001 -2.11299e-19 0.013
C7N 0.023 0.019 0.019 -0.002 -0.003 0.011
C8N 0.022 0.022 0.015 0.001 0.001 0.012
C9N 0.027 0.029 0.026 -0.007 -0.002 0.016
C10N 0.026 0.032 0.045 -0.015 -0.007 0.011
C11N 0.022 0.031 0.039 -0.008 -0.005 0.013
C12N 0.036 0.02 0.043 -0.001 0.002 0.016
O2N 0.059 0.051 0.041 -0.008 -0.002 0.036
O3N 0.077 0.047 0.034 0.001 0.013 0.038
C13N 0.058 0.147 0.23 -0.133 -0.063 0.065
F1N 0.061 0.083 0.129 0.031 0.038 0.053
F2N 0.094 0.267 0.142 -0.028 -0.039 0.104
C14N 0.062 0.128 0.357 0.065 0.036 0.034
F3N 0.044 0.124 0.354 0.066 0.039 0.026
F4N 0.043 0.123 0.356 0.066 0.041 0.024
F5N 0.061 0.127 0.356 0.067 0.037 0.033
Ag1A 0.0244 0.0343 0.0337 -0.00661 -0.00102 0.0192
O1A 0.024 0.0246 0.019 -0.0019 -0.0017 0.0153
N1A 0.022 0.026 0.025 -0.002 -0.003 0.015
N2A 0.024 0.02 0.023 0.004 -0.001 0.007
C1A 0.022 0.02 0.02 -0.002 -0.005 0.01
C2A 0.02 0.021 0.017 0.001 -0.002 0.01
C3A 0.026 0.023 0.026 -0.003 0.002 0.014
C4A 0.025 0.027 0.027 -0.006 -0.005 0.011
C5A 0.02 0.025 0.03 0.003 -0.004 0.012
C6A 0.021 0.023 0.012 2.11299e-19 0.001 0.01
C7A 0.02 0.023 0.019 0.003 0.001 0.012
C8A 0.02 0.022 0.015 -0.001 0 0.01
C9A 0.024 0.027 0.026 0.002 -0.005 0.011
C10A 0.036 0.026 0.045 0.007 -0.008 0.015
C11A 0.027 0.022 0.039 0.005 -0.003 0.009
C12A 0.024 0.036 0.043 -0.002 -0.003 0.02
O2A 0.038 0.059 0.041 0.002 -0.006 0.023
O3A 0.048 0.077 0.034 -0.013 -0.012 0.039
C13A 0.075 0.058 0.23 0.063 -0.07 -0.007
F1A 0.038 0.061 0.129 -0.038 -0.007 0.008
F2A 0.153 0.094 0.142 0.039 0.011 -0.01
C14A 0.122 0.062 0.357 -0.036 0.029 0.028
F3A 0.116 0.044 0.354 -0.039 0.027 0.018
F4A 0.118 0.043 0.356 -0.041 0.025 0.019
F5A 0.122 0.061 0.356 -0.037 0.03 0.028
Ag1B 0.0343 0.0203 0.0337 0.00559 0.00661 0.0151
O1B 0.0246 0.018 0.019 0.0002 0.0019 0.0093
N1B 0.026 0.018 0.025 -0.001 0.002 0.011
N2B 0.02 0.03 0.023 -0.005 -0.004 0.013
C1B 0.02 0.022 0.02 -0.003 0.002 0.01
C2B 0.021 0.021 0.017 -0.003 -0.001 0.011
C3B 0.023 0.021 0.026 0.005 0.003 0.009
C4B 0.027 0.03 0.027 0.001 0.006 0.016
C5B 0.025 0.021 0.03 -0.007 -0.003 0.013
C6B 0.023 0.024 0.012 0.001 -2.11299e-19 0.013
C7B 0.023 0.019 0.019 -0.002 -0.003 0.011
C8B 0.022 0.022 0.015 0.001 0.001 0.012
C9B 0.027 0.029 0.026 -0.007 -0.002 0.016
C10B 0.026 0.032 0.045 -0.015 -0.007 0.011
C11B 0.022 0.031 0.039 -0.008 -0.005 0.013
C12B 0.036 0.02 0.043 -0.001 0.002 0.016
O2B 0.059 0.051 0.041 -0.008 -0.002 0.036
O3B 0.077 0.047 0.034 0.001 0.013 0.038
C13B 0.058 0.147 0.23 -0.133 -0.063 0.065
F1B 0.061 0.083 0.129 0.031 0.038 0.053
F2B 0.094 0.267 0.142 -0.028 -0.039 0.104
C14B 0.062 0.128 0.357 0.065 0.036 0.034
F3B 0.044 0.124 0.354 0.066 0.039 0.026
F4B 0.043 0.123 0.356 0.066 0.041 0.024
F5B 0.061 0.127 0.356 0.067 0.037 0.033
Ag1L 0.0203 0.0244 0.0337 0.00102 -0.00559 0.0052
O1L 0.018 0.024 0.019 0.0017 -0.0002 0.0087
N1L 0.018 0.022 0.025 0.003 0.001 0.007
N2L 0.03 0.024 0.023 0.001 0.005 0.017
C1L 0.022 0.022 0.02 0.005 0.003 0.012
C2L 0.021 0.02 0.017 0.002 0.003 0.01
C3L 0.021 0.026 0.026 -0.002 -0.005 0.012
C4L 0.03 0.025 0.027 0.005 -0.001 0.014
C5L 0.021 0.02 0.03 0.004 0.007 0.008
C6L 0.024 0.021 0.012 -0.001 -0.001 0.011
C7L 0.019 0.02 0.019 -0.001 0.002 0.008
C8L 0.022 0.02 0.015 0 -0.001 0.01
C9L 0.029 0.024 0.026 0.005 0.007 0.013
C10L 0.032 0.036 0.045 0.008 0.015 0.021
C11L 0.031 0.027 0.039 0.003 0.008 0.018
C12L 0.02 0.024 0.043 0.003 0.001 0.004
O2L 0.051 0.038 0.041 0.006 0.008 0.015
O3L 0.047 0.048 0.034 0.012 -0.001 0.009
C13L 0.147 0.075 0.23 0.07 0.133 0.082
F1L 0.083 0.038 0.129 0.007 -0.031 0.03
F2L 0.267 0.153 0.142 -0.011 0.028 0.163
C14L 0.128 0.122 0.357 -0.029 -0.065 0.094
F3L 0.124 0.116 0.354 -0.027 -0.066 0.098
F4L 0.123 0.118 0.356 -0.025 -0.066 0.099
F5L 0.127 0.122 0.356 -0.03 -0.067 0.094
O4 0.026 0.02 0.026 0.013 0.008 0.012
C15 0.036 0.055 0.039 0.004 0.003 0.027
C16 0.12 0.15 0.16 -0.04 -0.03 0.01
loop_
_geom_bond_atom_site_label_1
_geom_bond_atom_site_label_2
_geom_bond_site_symmetry_1
_geom_bond_site_symmetry_2
Ag1 N1 1_555 1_555
O1 C6 1_555 1_555
N1 C1 1_555 1_555
N2 C7 1_555 1_555
C1 H1 1_555 1_555
C2 C1 1_555 1_555
C3 C2 1_555 1_555
H2 C3 1_555 1_555
C4 C3 1_555 1_555
H3 C4 1_555 1_555
C5 N1 1_555 1_555
H4 C5 1_555 1_555
C6 C2 1_555 1_555
C7 H5 1_555 1_555
C8 C6 1_555 1_555
C9 C8 1_555 1_555
H6 C9 1_555 1_555
C10 C9 1_555 1_555
H7 C10 1_555 1_555
C11 N2 1_555 1_555
H8 C11 1_555 1_555
C12 O2 1_555 1_555
O2 Ag1 1_555 1_555
O3 C12 1_555 1_555
C13 C12 1_555 1_555
F1 C13 1_555 1_555
F2 C13 1_555 1_555
C14 C13 1_555 1_555
F3 C14 1_555 1_555
F4 C14 1_555 1_555
F5 C14 1_555 1_555
O4 H9 1_555 1_555
C15 O4 1_555 1_555
H10 C15 1_555 1_555
H11 C15 1_555 1_555
C16 C15 1_555 1_555
H12 C16 1_555 1_555
H13 C16 1_555 1_555
H14 C16 1_555 1_555
Ag1M N1M 1_555 1_555
O1M C6M 1_555 1_555
N1M C1M 1_555 1_555
N2M Ag1 1_555 1_555
C1M H1M 1_555 1_555
C2M C1M 1_555 1_555
C3M C2M 1_555 1_555
H2M C3M 1_555 1_555
C4M C3M 1_555 1_555
H3M C4M 1_555 1_555
C5M N1M 1_555 1_555
H4M C5M 1_555 1_555
C6M C2M 1_555 1_555
C7M N2M 1_555 1_555
H5M C7M 1_555 1_555
C8M C6M 1_555 1_555
C9M C8M 1_555 1_555
H6M C9M 1_555 1_555
C10M C9M 1_555 1_555
H7M C10M 1_555 1_555
C11M N2M 1_555 1_555
H8M C11M 1_555 1_555
C12M O2M 1_555 1_555
O2M Ag1M 1_555 1_555
O3M C12M 1_555 1_555
C13M C12M 1_555 1_555
F1M C13M 1_555 1_555
F2M C13M 1_555 1_555
C14M C13M 1_555 1_555
F3M C14M 1_555 1_555
F4M C14M 1_555 1_555
F5M C14M 1_555 1_555
Ag1N N2 1_555 1_555
O1N C6N 1_555 1_555
N1N Ag1N 1_555 1_555
N2N C7N 1_555 1_555
C1N N1N 1_555 1_555
H1N C1N 1_555 1_555
C2N C1N 1_555 1_555
C3N C2N 1_555 1_555
H2N C3N 1_555 1_555
C4N C3N 1_555 1_555
H3N C4N 1_555 1_555
C5N N1N 1_555 1_555
H4N C5N 1_555 1_555
C6N C2N 1_555 1_555
C7N H5N 1_555 1_555
C8N C6N 1_555 1_555
C9N C8N 1_555 1_555
H6N C9N 1_555 1_555
C10N C9N 1_555 1_555
H7N C10N 1_555 1_555
C11N N2N 1_555 1_555
H8N C11N 1_555 1_555
C12N O2N 1_555 1_555
O2N Ag1N 1_555 1_555
O3N C12N 1_555 1_555
C13N C12N 1_555 1_555
F1N C13N 1_555 1_555
F2N C13N 1_555 1_555
C14N C13N 1_555 1_555
F3N C14N 1_555 1_555
F4N C14N 1_555 1_555
F5N C14N 1_555 1_555
Ag1A N2N 1_555 1_555
O1A C6A 1_555 1_555
N1A Ag1A 1_555 1_555
N2A C7A 1_555 1_555
C1A N1A 1_555 1_555
H1A C1A 1_555 1_555
C2A C1A 1_555 1_555
C3A C2A 1_555 1_555
H2A C3A 1_555 1_555
C4A C3A 1_555 1_555
H3A C4A 1_555 1_555
C5A N1A 1_555 1_555
H4A C5A 1_555 1_555
C6A C2A 1_555 1_555
C7A H5A 1_555 1_555
C8A C6A 1_555 1_555
C9A C8A 1_555 1_555
H6A C9A 1_555 1_555
C10A C9A 1_555 1_555
H7A C10A 1_555 1_555
C11A N2A 1_555 1_555
H8A C11A 1_555 1_555
C12A O2A 1_555 1_555
O2A Ag1A 1_555 1_555
O3A C12A 1_555 1_555
C13A C12A 1_555 1_555
F1A C13A 1_555 1_555
F2A C13A 1_555 1_555
C14A C13A 1_555 1_555
F3A C14A 1_555 1_555
F4A C14A 1_555 1_555
F5A C14A 1_555 1_555
Ag1B N1B 1_555 1_555
O1B C6B 1_555 1_555
N1B C1B 1_555 1_555
N2B Ag1M 1_555 1_555
C1B H1B 1_555 1_555
C2B C1B 1_555 1_555
C3B C2B 1_555 1_555
H2B C3B 1_555 1_555
C4B C3B 1_555 1_555
H3B C4B 1_555 1_555
C5B N1B 1_555 1_555
H4B C5B 1_555 1_555
C6B C2B 1_555 1_555
C7B N2B 1_555 1_555
H5B C7B 1_555 1_555
C8B C6B 1_555 1_555
C9B C8B 1_555 1_555
H6B C9B 1_555 1_555
C10B C9B 1_555 1_555
H7B C10B 1_555 1_555
C11B N2B 1_555 1_555
H8B C11B 1_555 1_555
C12B O2B 1_555 1_555
O2B Ag1B 1_555 1_555
O3B C12B 1_555 1_555
C13B C12B 1_555 1_555
F1B C13B 1_555 1_555
F2B C13B 1_555 1_555
C14B C13B 1_555 1_555
F3B C14B 1_555 1_555
F4B C14B 1_555 1_555
F5B C14B 1_555 1_555
Ag1L N2A 1_555 1_555
O1L C6L 1_555 1_555
N1L Ag1L 1_555 1_555
N2L Ag1B 1_555 1_555
C1L N1L 1_555 1_555
H1L C1L 1_555 1_555
C2L C1L 1_555 1_555
C3L C2L 1_555 1_555
H2L C3L 1_555 1_555
C4L C3L 1_555 1_555
H3L C4L 1_555 1_555
C5L N1L 1_555 1_555
H4L C5L 1_555 1_555
C6L C2L 1_555 1_555
C7L N2L 1_555 1_555
H5L C7L 1_555 1_555
C8L C6L 1_555 1_555
C9L C8L 1_555 1_555
H6L C9L 1_555 1_555
C10L C9L 1_555 1_555
H7L C10L 1_555 1_555
C11L N2L 1_555 1_555
H8L C11L 1_555 1_555
C12L O2L 1_555 1_555
O2L Ag1L 1_555 1_555
O3L C12L 1_555 1_555
C13L C12L 1_555 1_555
F1L C13L 1_555 1_555
F2L C13L 1_555 1_555
C14L C13L 1_555 1_555
F3L C14L 1_555 1_555
F4L C14L 1_555 1_555
F5L C14L 1_555 1_555
C4 C5 1_555 1_555
C7 C8 1_555 1_555
C10 C11 1_555 1_555
C4M C5M 1_555 1_555
C7M C8M 1_555 1_555
C10M C11M 1_555 1_555
C4N C5N 1_555 1_555
C7N C8N 1_555 1_555
C10N C11N 1_555 1_555
C4A C5A 1_555 1_555
C7A C8A 1_555 1_555
C10A C11A 1_555 1_555
C4B C5B 1_555 1_555
C7B C8B 1_555 1_555
C10B C11B 1_555 1_555
C4L C5L 1_555 1_555
C7L C8L 1_555 1_555
C10L C11L 1_555 1_555

#END
