
#######################################################################
#
#                 Cambridge Crystallographic Data Centre
#                                CCDC 
#
#######################################################################
#
# If this CIF has been generated from an entry in the Cambridge 
# Structural Database, then it will include bibliographic, chemical, 
# crystal, experimental, refinement or atomic coordinate data resulting 
# from the CCDC's data processing and validation procedures.
#
#######################################################################

data_ATEZAC
_chemical_formula_moiety         '(C80 H50 Er3 O19 1+)n'
_symmetry_cell_setting           monoclinic
_symmetry_space_group_name_H-M   'C 2/c'
_symmetry_Int_Tables_number      15
_space_group_name_Hall           '-C 2yc'
loop_
_symmetry_equiv_pos_site_id
_symmetry_equiv_pos_as_xyz
1 x,y,z
2 -x,y,1/2-z
3 1/2+x,1/2+y,z
4 1/2-x,1/2+y,1/2-z
5 -x,-y,-z
6 x,-y,1/2+z
7 1/2-x,1/2-y,-z
8 1/2+x,1/2-y,1/2+z
_cell_length_a                   32.318(3)
_cell_length_b                   29.354(3)
_cell_length_c                   18.5232(17)
_cell_angle_alpha                90
_cell_angle_beta                 104.277(2)
_cell_angle_gamma                90
_cell_volume                     17029.5
loop_
_atom_site_label
_atom_site_type_symbol
_atom_site_fract_x
_atom_site_fract_y
_atom_site_fract_z
Er1 Er 0.0000 0.306181(9) 0.2500
Er2 Er 0.014358(6) 0.228319(8) 0.046227(15)
O1 O 0.03692(12) 0.20545(13) 0.1636(3)
O2 O 0.04525(11) 0.24637(13) 0.2678(3)
O3 O 0.46091(12) 0.18313(17) 0.6361(3)
O4 O 0.45224(12) 0.23387(16) 0.5460(3)
O5 O 0.08177(16) -0.22194(16) 0.5188(4)
O6 O 0.04683(14) -0.16012(16) 0.5155(4)
O7 O 0.45260(12) -0.20693(13) 0.4089(3)
O8 O 0.44612(11) -0.17027(14) 0.3028(2)
O9 O 0.0000 0.3874(3) 0.2500
H1 H 0.0247 0.3967 0.2596
O10 O -0.03578(16) 0.17040(17) 0.0445(3)
H2 H -0.0495 0.1758 0.0754
H3 H -0.0231 0.1449 0.0557
C1 C 0.24582(13) 0.03994(14) 0.3985(3)
C2 C 0.20855(13) 0.06385(15) 0.3672(3)
H4 H 0.1837 0.0479 0.3457
C3 C 0.20785(13) 0.11092(15) 0.3674(3)
C4 C 0.24458(14) 0.13549(17) 0.4021(3)
H5 H 0.2441 0.1672 0.4025
C5 C 0.28184(14) 0.11221(17) 0.4360(3)
C6 C 0.28194(14) 0.06445(16) 0.4333(3)
H6 H 0.3069 0.0488 0.4554
C7 C 0.16767(13) 0.13716(15) 0.3297(3)
C8 C 0.15455(16) 0.17325(18) 0.3664(3)
H7 H 0.1706 0.1810 0.4137
C9 C 0.11854(16) 0.19800(17) 0.3351(4)
H8 H 0.1104 0.2222 0.3610
C10 C 0.09444(14) 0.18650(14) 0.2646(3)
C11 C 0.10664(16) 0.15034(18) 0.2272(3)
H9 H 0.0908 0.1429 0.1796
C12 C 0.14241(15) 0.12505(16) 0.2603(3)
H10 H 0.1496 0.0997 0.2358
C13 C 0.05575(16) 0.21519(19) 0.2296(4)
C14 C 0.32140(14) 0.13725(17) 0.4725(4)
C15 C 0.34757(17) 0.1202(2) 0.5381(4)
H11 H 0.3395 0.0941 0.5595
C16 C 0.38538(16) 0.1416(2) 0.5717(4)
H12 H 0.4025 0.1299 0.6156
C17 C 0.39784(14) 0.1803(2) 0.5405(3)
C18 C 0.37149(16) 0.19813(19) 0.4771(3)
H13 H 0.3792 0.2248 0.4568
C19 C 0.33358(15) 0.17684(18) 0.4432(4)
H14 H 0.3161 0.1893 0.4002
C20 C 0.43986(16) 0.2019(3) 0.5766(4)
C21 C 0.24737(13) -0.01015(15) 0.4023(3)
C22 C 0.28265(14) -0.03355(16) 0.3933(3)
H15 H 0.3048 -0.0174 0.3812
C23 C 0.28630(15) -0.08168(16) 0.4021(3)
C24 C 0.25279(15) -0.10504(16) 0.4188(3)
H16 H 0.2545 -0.1365 0.4245
C25 C 0.21633(15) -0.08223(16) 0.4273(4)
C26 C 0.21416(14) -0.03510(16) 0.4193(3)
H17 H 0.1900 -0.0198 0.4254
C27 C 0.18148(16) -0.10741(16) 0.4500(4)
C28 C 0.11430(17) -0.1540(2) 0.4881(4)
C29 C 0.07927(18) -0.1809(2) 0.5081(4)
C30 C 0.32459(15) -0.10590(16) 0.3911(3)
C31 C 0.34066(16) -0.14448(16) 0.4352(3)
H18 H 0.3268 -0.1547 0.4706
C32 C 0.37638(16) -0.16700(16) 0.4264(4)
H19 H 0.3870 -0.1918 0.4567
C33 C 0.39677(14) -0.15287(16) 0.3723(3)
C34 C 0.38048(16) -0.11604(17) 0.3275(3)
H20 H 0.3930 -0.1072 0.2895
C35 C 0.34592(16) -0.09266(17) 0.3391(3)
H21 H 0.3366 -0.0668 0.3106
C36 C 0.43473(16) -0.17906(18) 0.3595(4)
C37 C 0.1140(3) -0.1136(3) 0.4779(9)
H22 H 0.0910 -0.0969 0.4855
C38 C 0.1817(4) -0.1494(5) 0.4547(7)
H23 H 0.1997 -0.1670 0.4338
C39 C 0.1515(4) -0.1716(5) 0.4957(7)
H24 H 0.1597 -0.1972 0.5254
C40 C 0.1463(3) -0.0902(2) 0.4554(9)
H25 H 0.1416 -0.0595 0.4433
H1A H -0.0247 0.3967 0.2404
Er2A Er -0.014358(6) 0.228319(8) 0.453773(15)
O1A O -0.03692(12) 0.20545(13) 0.3364(3)
O2A O -0.04525(11) 0.24637(13) 0.2322(3)
O3A O -0.46091(12) 0.18313(17) -0.1361(3)
O4A O -0.45224(12) 0.23387(16) -0.0460(3)
O5A O -0.08177(16) -0.22194(16) -0.0188(4)
O6A O -0.04683(14) -0.16012(16) -0.0155(4)
O7A O -0.45260(12) -0.20693(13) 0.0911(3)
O8A O -0.44612(11) -0.17027(14) 0.1972(2)
O10A O 0.03578(16) 0.17040(17) 0.4555(3)
H2A H 0.0495 0.1758 0.4246
H3A H 0.0231 0.1449 0.4443
C1A C -0.24582(13) 0.03994(14) 0.1015(3)
C2A C -0.20855(13) 0.06385(15) 0.1328(3)
H4A H -0.1837 0.0479 0.1543
C3A C -0.20785(13) 0.11092(15) 0.1326(3)
C4A C -0.24458(14) 0.13549(17) 0.0979(3)
H5A H -0.2441 0.1672 0.0975
C5A C -0.28184(14) 0.11221(17) 0.0640(3)
C6A C -0.28194(14) 0.06445(16) 0.0667(3)
H6A H -0.3069 0.0488 0.0446
C7A C -0.16767(13) 0.13716(15) 0.1703(3)
C8A C -0.15455(16) 0.17325(18) 0.1336(3)
H7A H -0.1706 0.1810 0.0863
C9A C -0.11854(16) 0.19800(17) 0.1649(4)
H8A H -0.1104 0.2222 0.1390
C10A C -0.09444(14) 0.18650(14) 0.2354(3)
C11A C -0.10664(16) 0.15034(18) 0.2728(3)
H9A H -0.0908 0.1429 0.3204
C12A C -0.14241(15) 0.12505(16) 0.2397(3)
H10A H -0.1496 0.0997 0.2642
C13A C -0.05575(16) 0.21519(19) 0.2704(4)
C14A C -0.32140(14) 0.13725(17) 0.0275(4)
C15A C -0.34757(17) 0.1202(2) -0.0381(4)
H11A H -0.3395 0.0941 -0.0595
C16A C -0.38538(16) 0.1416(2) -0.0717(4)
H12A H -0.4025 0.1299 -0.1156
C17A C -0.39784(14) 0.1803(2) -0.0405(3)
C18A C -0.37149(16) 0.19813(19) 0.0229(3)
H13A H -0.3792 0.2248 0.0432
C19A C -0.33358(15) 0.17684(18) 0.0568(4)
H14A H -0.3161 0.1893 0.0998
C20A C -0.43986(16) 0.2019(3) -0.0766(4)
C21A C -0.24737(13) -0.01015(15) 0.0977(3)
C22A C -0.28265(14) -0.03355(16) 0.1067(3)
H15A H -0.3048 -0.0174 0.1188
C23A C -0.28630(15) -0.08168(16) 0.0979(3)
C24A C -0.25279(15) -0.10504(16) 0.0812(3)
H16A H -0.2545 -0.1365 0.0755
C25A C -0.21633(15) -0.08223(16) 0.0727(4)
C26A C -0.21416(14) -0.03510(16) 0.0807(3)
H17A H -0.1900 -0.0198 0.0746
C27A C -0.18148(16) -0.10741(16) 0.0500(4)
C28A C -0.11430(17) -0.1540(2) 0.0119(4)
C29A C -0.07927(18) -0.1809(2) -0.0081(4)
C30A C -0.32459(15) -0.10590(16) 0.1089(3)
C31A C -0.34066(16) -0.14448(16) 0.0648(3)
H18A H -0.3268 -0.1547 0.0294
C32A C -0.37638(16) -0.16700(16) 0.0736(4)
H19A H -0.3870 -0.1918 0.0433
C33A C -0.39677(14) -0.15287(16) 0.1277(3)
C34A C -0.38048(16) -0.11604(17) 0.1725(3)
H20A H -0.3930 -0.1072 0.2105
C35A C -0.34592(16) -0.09266(17) 0.1609(3)
H21A H -0.3366 -0.0668 0.1894
C36A C -0.43473(16) -0.17906(18) 0.1405(4)
C37A C -0.1140(3) -0.1136(3) 0.0221(9)
H22A H -0.0910 -0.0969 0.0145
C38A C -0.1817(4) -0.1494(5) 0.0453(7)
H23A H -0.1997 -0.1670 0.0662
C39A C -0.1515(4) -0.1716(5) 0.0043(7)
H24A H -0.1597 -0.1972 -0.0254
C40A C -0.1463(3) -0.0902(2) 0.0446(9)
H25A H -0.1416 -0.0595 0.0567
Er1B Er -0.5000 -0.193819(9) 0.2500
Er1B_2 Er 0.5000 -0.193819(9) 0.2500
Er1F Er -0.5000 0.193819(9) -0.2500
Er1F_2 Er 0.5000 0.193819(9) 0.7500
Er2B Er -0.485642(6) -0.271681(8) 0.046227(15)
Er2C Er 0.485642(6) -0.271681(8) 0.453773(15)
Er2D Er -0.014358(6) -0.228319(8) -0.046227(15)
Er2E Er 0.014358(6) -0.228319(8) 0.546227(15)
Er2F Er -0.514358(6) 0.271681(8) -0.046227(15)
Er2G Er 0.514358(6) 0.271681(8) 0.546227(15)
O3F O 0.03909(12) 0.31687(17) 0.3639(3)
O3G O -0.03909(12) 0.31687(17) 0.1361(3)
O4F O 0.04776(12) 0.26613(16) 0.4540(3)
O4G O -0.04776(12) 0.26613(16) 0.0460(3)
O5D O -0.08177(16) 0.22194(16) 0.4812(4)
O5E O 0.08177(16) 0.22194(16) 0.0188(4)
O6D O -0.04683(14) 0.16012(16) 0.4845(4)
O6E O 0.04683(14) 0.16012(16) 0.0155(4)
O7B O -0.04740(12) 0.29307(13) 0.4089(3)
O7C O 0.04740(12) 0.29307(13) 0.0911(3)
O8B O -0.05388(11) 0.32973(14) 0.3028(2)
O8C O 0.05388(11) 0.32973(14) 0.1972(2)
loop_
_geom_bond_atom_site_label_1
_geom_bond_atom_site_label_2
_geom_bond_site_symmetry_1
_geom_bond_site_symmetry_2
Er1 O2 1_555 1_555
Er2 O1 1_555 1_555
O1 C13 1_555 1_555
O2 C13 1_555 1_555
O3 C20 1_555 1_555
O4 C20 1_555 1_555
O5 C29 1_555 1_555
O6 C29 1_555 1_555
O7 C36 1_555 1_555
O8 C36 1_555 1_555
O9 Er1 1_555 1_555
H1 O9 1_555 1_555
O10 Er2 1_555 1_555
H2 O10 1_555 1_555
H3 O10 1_555 1_555
C1 C2 1_555 1_555
C2 H4 1_555 1_555
C3 C2 1_555 1_555
C4 C3 1_555 1_555
H5 C4 1_555 1_555
C5 C4 1_555 1_555
C6 C1 1_555 1_555
H6 C6 1_555 1_555
C7 C3 1_555 1_555
C8 C7 1_555 1_555
H7 C8 1_555 1_555
C9 C8 1_555 1_555
H8 C9 1_555 1_555
C10 C9 1_555 1_555
C11 C10 1_555 1_555
H9 C11 1_555 1_555
C12 C7 1_555 1_555
H10 C12 1_555 1_555
C13 C10 1_555 1_555
C14 C5 1_555 1_555
C15 C14 1_555 1_555
H11 C15 1_555 1_555
C16 C15 1_555 1_555
H12 C16 1_555 1_555
C17 C16 1_555 1_555
C18 C17 1_555 1_555
H13 C18 1_555 1_555
C19 C14 1_555 1_555
H14 C19 1_555 1_555
C20 C17 1_555 1_555
C21 C1 1_555 1_555
C22 C21 1_555 1_555
H15 C22 1_555 1_555
C23 C22 1_555 1_555
C24 C23 1_555 1_555
H16 C24 1_555 1_555
C25 C24 1_555 1_555
C26 C21 1_555 1_555
H17 C26 1_555 1_555
C27 C25 1_555 1_555
C28 C29 1_555 1_555
C30 C23 1_555 1_555
C31 C30 1_555 1_555
H18 C31 1_555 1_555
C32 C31 1_555 1_555
H19 C32 1_555 1_555
C33 C32 1_555 1_555
C34 C33 1_555 1_555
H20 C34 1_555 1_555
C35 C30 1_555 1_555
H21 C35 1_555 1_555
C36 C33 1_555 1_555
C37 C28 1_555 1_555
H22 C37 1_555 1_555
C38 C27 1_555 1_555
H23 C38 1_555 1_555
C39 C28 1_555 1_555
H24 C39 1_555 1_555
C40 C27 1_555 1_555
H25 C40 1_555 1_555
H1A O9 1_555 1_555
Er2A O1A 1_555 1_555
O1A C13A 1_555 1_555
O2A Er1 1_555 1_555
O3A C20A 1_555 1_555
O4A C20A 1_555 1_555
O5A C29A 1_555 1_555
O6A C29A 1_555 1_555
O7A C36A 1_555 1_555
O8A C36A 1_555 1_555
O10A Er2A 1_555 1_555
H2A O10A 1_555 1_555
H3A O10A 1_555 1_555
C1A C2A 1_555 1_555
C2A H4A 1_555 1_555
C3A C2A 1_555 1_555
C4A C3A 1_555 1_555
H5A C4A 1_555 1_555
C5A C4A 1_555 1_555
C6A C1A 1_555 1_555
H6A C6A 1_555 1_555
C7A C3A 1_555 1_555
C8A C7A 1_555 1_555
H7A C8A 1_555 1_555
C9A C8A 1_555 1_555
H8A C9A 1_555 1_555
C10A C9A 1_555 1_555
C11A C10A 1_555 1_555
H9A C11A 1_555 1_555
C12A C7A 1_555 1_555
H10A C12A 1_555 1_555
C13A O2A 1_555 1_555
C14A C5A 1_555 1_555
C15A C14A 1_555 1_555
H11A C15A 1_555 1_555
C16A C15A 1_555 1_555
H12A C16A 1_555 1_555
C17A C16A 1_555 1_555
C18A C17A 1_555 1_555
H13A C18A 1_555 1_555
C19A C14A 1_555 1_555
H14A C19A 1_555 1_555
C20A C17A 1_555 1_555
C21A C1A 1_555 1_555
C22A C21A 1_555 1_555
H15A C22A 1_555 1_555
C23A C22A 1_555 1_555
C24A C23A 1_555 1_555
H16A C24A 1_555 1_555
C25A C24A 1_555 1_555
C26A C21A 1_555 1_555
H17A C26A 1_555 1_555
C27A C25A 1_555 1_555
C28A C29A 1_555 1_555
C30A C23A 1_555 1_555
C31A C30A 1_555 1_555
H18A C31A 1_555 1_555
C32A C31A 1_555 1_555
H19A C32A 1_555 1_555
C33A C32A 1_555 1_555
C34A C33A 1_555 1_555
H20A C34A 1_555 1_555
C35A C30A 1_555 1_555
H21A C35A 1_555 1_555
C36A C33A 1_555 1_555
C37A C28A 1_555 1_555
H22A C37A 1_555 1_555
C38A C27A 1_555 1_555
H23A C38A 1_555 1_555
C39A C28A 1_555 1_555
H24A C39A 1_555 1_555
C40A C27A 1_555 1_555
H25A C40A 1_555 1_555
Er1B O8A 1_555 1_555
Er1B_2 O8 1_555 1_555
Er1F O3A 1_555 1_555
Er1F_2 O3 1_555 1_555
Er2B O7A 1_555 1_555
Er2C O7 1_555 1_555
Er2D O5A 1_555 1_555
Er2E O5 1_555 1_555
Er2F O4A 1_555 1_555
Er2G O4 1_555 1_555
O3F Er1 1_555 1_555
O3G Er1 1_555 1_555
O4F Er2A 1_555 1_555
O4G Er2 1_555 1_555
O5D Er2A 1_555 1_555
O5E Er2 1_555 1_555
O6D Er2A 1_555 1_555
O6E Er2 1_555 1_555
O7B Er2A 1_555 1_555
O7C Er2 1_555 1_555
O8B Er1 1_555 1_555
O8C Er1 1_555 1_555
O6 Er2E 1_555 1_555
C5 C6 1_555 1_555
C11 C12 1_555 1_555
C18 C19 1_555 1_555
C25 C26 1_555 1_555
C34 C35 1_555 1_555
C37 C40 1_555 1_555
C38 C39 1_555 1_555
O6A Er2D 1_555 1_555
C5A C6A 1_555 1_555
C10A C13A 1_555 1_555
C11A C12A 1_555 1_555
C18A C19A 1_555 1_555
C25A C26A 1_555 1_555
C34A C35A 1_555 1_555
C37A C40A 1_555 1_555
C38A C39A 1_555 1_555

#END
