
#######################################################################
#
#                 Cambridge Crystallographic Data Centre
#                                CCDC 
#
#######################################################################
#
# If this CIF has been generated from an entry in the Cambridge 
# Structural Database, then it will include bibliographic, chemical, 
# crystal, experimental, refinement or atomic coordinate data resulting 
# from the CCDC's data processing and validation procedures.
#
#######################################################################

data_DEZKAW
_chemical_formula_moiety         '(C12 H14 Mn1 N8 O2)n'
_symmetry_cell_setting           tetragonal
_symmetry_space_group_name_H-M   'I 41/a'
_symmetry_Int_Tables_number      88
_space_group_name_Hall           '-I 4ad'
loop_
_symmetry_equiv_pos_site_id
_symmetry_equiv_pos_as_xyz
1 x,y,z
2 3/4-y,1/4+x,1/4+z
3 -x,1/2-y,z
4 1/4+y,1/4-x,1/4+z
5 1/2+x,1/2+y,1/2+z
6 1/4-y,3/4+x,3/4+z
7 1/2-x,-y,1/2+z
8 3/4+y,3/4-x,3/4+z
9 -x,-y,-z
10 1/4+y,3/4-x,3/4-z
11 x,1/2+y,-z
12 3/4-y,3/4+x,3/4-z
13 1/2-x,1/2-y,1/2-z
14 3/4+y,1/4-x,1/4-z
15 1/2+x,y,1/2-z
16 1/4-y,1/4+x,1/4-z
_cell_length_a                   19.6971(9)
_cell_length_b                   19.6971(9)
_cell_length_c                   19.9978(8)
_cell_angle_alpha                90
_cell_angle_beta                 90
_cell_angle_gamma                90
_cell_volume                     7758.66
loop_
_atom_site_label
_atom_site_type_symbol
_atom_site_fract_x
_atom_site_fract_y
_atom_site_fract_z
_atom_site_U_iso_or_equiv
_atom_site_thermal_displace_type
Mn1 Mn 0.10504(3) 1.01786(3) 0.02432(3) 0.0384 Uani
C1 C 0.1761(3) 1.2567(2) 0.1079(2) 0.0653 Uani
H1 H 0.1615 1.2936 0.0827 0.0780 Uiso
C2 C 0.19548(17) 1.15803(17) 0.13974(17) 0.0378 Uani
C3 C 0.19926(17) 1.08502(17) 0.14962(17) 0.0372 Uani
C4 C 0.1872(2) 0.97916(18) 0.1477(2) 0.0465 Uani
C5 C 0.1625(2) 0.9123(2) 0.1265(2) 0.0573 Uani
C6 C 0.1824(4) 0.8520(2) 0.1572(4) 0.1063 Uani
H2 H 0.2136 0.8523 0.1922 0.1270 Uiso
C7 C 0.1551(5) 0.7923(3) 0.1349(4) 0.1300 Uani
H3 H 0.1682 0.7515 0.1544 0.1560 Uiso
C8 C 0.1084(4) 0.7920(3) 0.0838(4) 0.1000 Uani
H4 H 0.0884 0.7519 0.0694 0.1200 Uiso
C9 C 0.0924(3) 0.8531(2) 0.0549(3) 0.0723 Uani
H5 H 0.0617 0.8533 0.0195 0.0870 Uiso
N1 N 0.1665(2) 1.19189(16) 0.08879(17) 0.0585 Uani
N2 N 0.22080(15) 1.19863(14) 0.18682(15) 0.0408 Uani
N3 N 0.20823(18) 1.26339(15) 0.16586(16) 0.0498 Uani
N4 N 0.17066(15) 1.03598(14) 0.11216(15) 0.0394 Uani
N5 N 0.22361(19) 0.99158(16) 0.20199(18) 0.0558 Uani
N6 N 0.23178(17) 1.06108(15) 0.20283(16) 0.0483 Uani
N7 N 0.11885(18) 0.91274(16) 0.07504(18) 0.0520 Uani
O1 O 0.1078(2) 1.12075(16) -0.01524(16) 0.0668 Uani
H6 H 0.127(3) 1.141(3) 0.0180(17) 0.1000 Uiso
H7 H 0.133(2) 1.126(3) -0.0496(16) 0.1000 Uiso
Mn1C Mn 0.26786(3) 1.14496(3) 0.27432(3) 0.0384 Uani
Mn1O Mn 0.23214(3) 1.35504(3) 0.22568(3) 0.0384 Uani
N2E N 0.05137(14) 0.97080(15) -0.06318(15) 0.0408 Uani
N3M N 0.01339(15) 1.04177(18) 0.08414(16) 0.0498 Uani
N6E N 0.18892(15) 0.98178(17) -0.04717(16) 0.0483 Uani
C10 C 0.0893(10) 0.0460(9) 0.7182(7) 0.1337 Uani
H8 H 0.0772 -0.0002 0.7280 0.2010 Uiso
H9 H 0.1337 0.0471 0.6985 0.2010 Uiso
H10 H 0.0570 0.0649 0.6875 0.2010 Uiso
C11 C 0.0423(8) 0.1107(6) 0.8203(7) 0.0977 Uani
H11 H 0.0155 0.0744 0.8385 0.1470 Uiso
H12 H 0.0135 0.1412 0.7960 0.1470 Uiso
H13 H 0.0643 0.1347 0.8560 0.1470 Uiso
C12 C 0.1562(10) 0.0947(7) 0.8085(7) 0.1220 Uani
H14 H 0.1956 0.0772 0.7895 0.1460 Uiso
N8 N 0.0894(9) 0.0849(5) 0.7789(6) 0.1240 Uani
O2 O 0.1566(9) 0.1257(4) 0.8574(4) 0.1680 Uani
loop_
_atom_site_aniso_label
_atom_site_aniso_U_11
_atom_site_aniso_U_22
_atom_site_aniso_U_33
_atom_site_aniso_U_23
_atom_site_aniso_U_13
_atom_site_aniso_U_12
Mn1 0.0331(3) 0.0446(4) 0.0374(4) -0.0176(2) -0.0015(2) 0.0011(2)
C1 0.106(4) 0.035(2) 0.055(3) -0.0008(17) -0.047(3) 0.001(2)
C2 0.0406(18) 0.0360(18) 0.0368(18) -0.0019(14) -0.0116(14) -0.0013(14)
C3 0.0370(17) 0.0364(18) 0.0382(19) -0.0070(14) -0.0086(14) -0.0002(13)
C4 0.053(2) 0.0326(19) 0.054(2) -0.0024(16) -0.0099(17) 0.0035(15)
C5 0.072(3) 0.033(2) 0.067(3) -0.0075(18) -0.010(2) -0.0002(18)
C6 0.165(7) 0.036(3) 0.118(5) 0.006(3) -0.049(5) 0.000(3)
C7 0.218(9) 0.035(3) 0.137(6) 0.004(3) -0.047(7) -0.007(4)
C8 0.148(6) 0.042(3) 0.110(5) -0.016(3) -0.012(4) -0.023(3)
C9 0.089(4) 0.049(3) 0.079(3) -0.022(2) 0.004(3) -0.016(2)
N1 0.089(3) 0.0379(17) 0.0485(19) -0.0022(14) -0.0371(18) -0.0010(16)
N2 0.0498(17) 0.0311(15) 0.0416(17) -0.0014(12) -0.0188(13) -0.0031(12)
N3 0.070(2) 0.0316(15) 0.0477(18) -0.0014(13) -0.0279(16) 0.0001(14)
N4 0.0411(16) 0.0337(15) 0.0433(17) -0.0061(12) -0.0082(13) 0.0004(12)
N5 0.072(2) 0.0344(17) 0.061(2) -0.0008(15) -0.0247(18) 0.0043(15)
N6 0.060(2) 0.0358(17) 0.0491(19) -0.0017(13) -0.0245(15) 0.0008(14)
N7 0.060(2) 0.0399(17) 0.056(2) -0.0135(15) 0.0022(16) -0.0076(14)
O1 0.098(3) 0.0501(18) 0.0524(18) -0.0111(14) -0.0215(17) -0.0007(16)
Mn1C 0.0446 0.0331 0.0374 0.0015 -0.0176 -0.0011
Mn1O 0.0446 0.0331 0.0374 0.0015 -0.0176 -0.0011
N2E 0.0311 0.0498 0.0416 -0.0188 0.0014 0.0031
N3M 0.0316 0.07 0.0477 -0.0279 0.0014 -0.0001
N6E 0.0358 0.06 0.0491 -0.0245 0.0017 -0.0008
C10 0.171(18) 0.129(14) 0.101(12) -0.012(10) 0.022(11) 0.020(12)
C11 0.134(12) 0.078(8) 0.081(8) -0.005(6) 0.034(8) 0.016(7)
C12 0.176(17) 0.073(9) 0.117(13) 0.040(9) 0.051(12) 0.025(10)
N8 0.216(16) 0.063(6) 0.093(8) -0.013(6) 0.064(10) 0.005(8)
O2 0.42(2) 0.046(4) 0.038(4) -0.004(3) 0.065(7) 0.018(7)
loop_
_geom_bond_atom_site_label_1
_geom_bond_atom_site_label_2
_geom_bond_site_symmetry_1
_geom_bond_site_symmetry_2
Mn1 N4 1_555 1_555
C1 H1 1_555 1_555
C2 C3 1_555 1_555
C3 N4 1_555 1_555
C4 C5 1_555 1_555
C5 C6 1_555 1_555
C6 H2 1_555 1_555
C7 C6 1_555 1_555
H3 C7 1_555 1_555
C8 C7 1_555 1_555
H4 C8 1_555 1_555
C9 C8 1_555 1_555
H5 C9 1_555 1_555
N1 C1 1_555 1_555
N2 C2 1_555 1_555
N3 C1 1_555 1_555
N4 C4 1_555 1_555
N5 C4 1_555 1_555
N6 C3 1_555 1_555
N7 Mn1 1_555 1_555
O1 Mn1 1_555 1_555
H6 O1 1_555 1_555
H7 O1 1_555 1_555
C10 H8 1_555 1_555
H9 C10 1_555 1_555
H10 C10 1_555 1_555
C11 H11 1_555 1_555
H12 C11 1_555 1_555
H13 C11 1_555 1_555
C12 H14 1_555 1_555
N8 C10 1_555 1_555
O2 C12 1_555 1_555
Mn1C N2 1_555 1_555
Mn1O N3 1_555 1_555
N2E Mn1 1_555 1_555
N3M Mn1 1_555 1_555
N6E Mn1 1_555 1_555
C2 N1 1_555 1_555
C5 N7 1_555 1_555
C9 N7 1_555 1_555
N2 N3 1_555 1_555
N5 N6 1_555 1_555
N6 Mn1C 1_555 1_555
C11 N8 1_555 1_555
C12 N8 1_555 1_555

#END
