
#######################################################################
#
#                 Cambridge Crystallographic Data Centre
#                                CCDC 
#
#######################################################################
#
# If this CIF has been generated from an entry in the Cambridge 
# Structural Database, then it will include bibliographic, chemical, 
# crystal, experimental, refinement or atomic coordinate data resulting 
# from the CCDC's data processing and validation procedures.
#
#######################################################################

data_YEGFIB
_chemical_formula_moiety         '(C36 H42 Cd1 N4 O13)n'
_symmetry_cell_setting           tetragonal
_symmetry_space_group_name_H-M   'P 41 21 2'
_symmetry_Int_Tables_number      92
_space_group_name_Hall           'P 4abw 2nw'
loop_
_symmetry_equiv_pos_site_id
_symmetry_equiv_pos_as_xyz
1 x,y,z
2 -x,-y,1/2+z
3 1/2-y,1/2+x,1/4+z
4 1/2+y,1/2-x,3/4+z
5 1/2-x,1/2+y,1/4-z
6 1/2+x,1/2-y,3/4-z
7 y,x,-z
8 -y,-x,1/2-z
_cell_length_a                   22.5663(14)
_cell_length_b                   22.5663(14)
_cell_length_c                   13.8877(18)
_cell_angle_alpha                90
_cell_angle_beta                 90
_cell_angle_gamma                90
_cell_volume                     7072.14
loop_
_atom_site_label
_atom_site_type_symbol
_atom_site_fract_x
_atom_site_fract_y
_atom_site_fract_z
_atom_site_U_iso_or_equiv
_atom_site_thermal_displace_type
O1 O 0.50467(14) 0.08394(15) 0.4105(2) 0.0388 Uani
H1 H 0.4754 0.0617 0.4240 0.0460 Uiso
H2 H 0.4993 0.1206 0.4212 0.0460 Uiso
C1 C 0.74328(19) 1.00866(17) 0.2460(3) 0.0269 Uani
C2 C 0.72255(19) 1.02752(17) 0.3444(3) 0.0265 Uani
C3 C 0.7626(2) 1.03510(19) 0.4199(3) 0.0313 Uani
H3 H 0.8037 1.0288 0.4092 0.0380 Uiso
C4 C 0.7428(2) 1.0519(2) 0.5109(3) 0.0360 Uani
H4 H 0.7703 1.0570 0.5620 0.0430 Uiso
C5 C 0.6834(2) 1.06104(18) 0.5267(3) 0.0274 Uani
C6 C 0.64325(19) 1.05387(18) 0.4524(3) 0.0300 Uani
H5 H 0.6021 1.0600 0.4635 0.0360 Uiso
C7 C 0.66321(19) 1.03781(18) 0.3620(3) 0.0273 Uani
H6 H 0.6355 1.0338 0.3108 0.0330 Uiso
C8 C 0.6053(2) 1.0753(2) 0.6399(3) 0.0353 Uani
H7 H 0.5881 1.0366 0.6217 0.0420 Uiso
H8 H 0.5848 1.1067 0.6028 0.0420 Uiso
C9 C 0.5972(2) 1.0858(2) 0.7461(3) 0.0363 Uani
H9 H 0.5576 1.0717 0.7667 0.0440 Uiso
H10 H 0.6276 1.0637 0.7829 0.0440 Uiso
C10 C 0.5886(2) 1.16720(18) 0.8542(3) 0.0280 Uani
C11 C 0.58300(18) 1.2283(2) 0.8649(3) 0.0303 Uani
H11 H 0.5896 1.2538 0.8115 0.0370 Uiso
C12 C 0.56793(19) 1.25178(18) 0.9534(3) 0.0290 Uani
H12 H 0.5637 1.2935 0.9601 0.0350 Uiso
C13 C 0.55886(19) 1.21545(16) 1.0329(3) 0.0237 Uani
C14 C 0.56542(19) 1.15523(19) 1.0206(3) 0.0287 Uani
H13 H 0.5594 1.1298 1.0742 0.0340 Uiso
C15 C 0.58064(19) 1.13052(18) 0.9322(3) 0.0293 Uani
H14 H 0.5855 1.0889 0.9258 0.0350 Uiso
C16 C 0.54268(18) 1.24144(16) 1.1286(3) 0.0225 Uani
C17 C 0.7396(2) 1.1090(2) 0.0077(3) 0.0370 Uani
H15 H 0.7119 1.0870 -0.0296 0.0440 Uiso
C18 C 0.81846(19) 1.17273(18) 0.1127(3) 0.0303 Uani
H16 H 0.8472 1.1937 0.1492 0.0360 Uiso
C19 C 0.76915(17) 1.20150(17) 0.0788(3) 0.0247 Uani
C20 C 0.7293(2) 1.16855(18) 0.0231(3) 0.0357 Uani
H17 H 0.6954 1.1871 -0.0041 0.0420 Uiso
C21 C 0.82612(19) 1.11297(19) 0.0936(3) 0.0333 Uani
H18 H 0.8607 1.0938 0.1171 0.0400 Uiso
C22 C 0.75660(18) 1.26442(17) 0.1030(3) 0.0247 Uani
C23 C 0.80230(19) 1.30442(18) 0.1194(3) 0.0310 Uani
H19 H 0.8425 1.2922 0.1145 0.0370 Uiso
C24 C 0.78832(19) 1.36194(18) 0.1427(3) 0.0313 Uani
H20 H 0.8199 1.3889 0.1537 0.0370 Uiso
C25 C 0.68894(19) 1.34383(19) 0.1350(3) 0.0320 Uani
H21 H 0.6492 1.3572 0.1400 0.0390 Uiso
C26 C 0.69954(18) 1.2851(2) 0.1113(3) 0.0333 Uani
H22 H 0.6672 1.2590 0.1008 0.0400 Uiso
Cd1 Cd 0.784055(12) 0.979995(11) 0.062572(19) 0.0207 Uani
N1 N 0.78667(16) 1.08123(14) 0.0432(2) 0.0263 Uani
N2 N 0.73303(14) 1.38219(14) 0.1510(2) 0.0232 Uani
O2 O 0.79804(13) 0.99979(14) 0.2317(2) 0.0341 Uani
O3 O 0.70616(13) 1.00216(12) 0.1796(2) 0.0322 Uani
O4 O 0.66747(14) 1.07612(15) 0.6190(2) 0.0360 Uani
O5 O 0.60272(13) 1.14789(13) 0.7638(2) 0.0321 Uani
O6 O 0.52785(12) 1.20673(12) 1.1961(2) 0.0284 Uani
O7 O 0.54445(12) 1.29646(12) 1.14148(19) 0.0276 Uani
O8 O 0.88622(13) 0.96933(14) 0.0633(2) 0.0374 Uani
H27 H 0.9025 1.0024 0.0507 0.0450 Uiso
H28 H 0.9028 0.9523 0.1108 0.0450 Uiso
C16C C 0.74144(16) 0.95732(18) -0.1214(3) 0.0225 Uani
Cd1D Cd 0.715945(12) 1.479995(11) 0.187428(19) 0.0207 Uani
Cd1B Cd 0.520005(11) 1.284055(12) 1.312572(19) 0.0207 Uani
N2D N 0.76697(14) 0.88219(14) 0.0990(2) 0.0232 Uani
O6C O 0.70673(12) 0.97215(12) -0.0539(2) 0.0284 Uani
O7C O 0.79646(12) 0.95555(12) -0.10852(19) 0.0276 Uani
C27 C 0.7014(4) 0.6306(3) 0.5079(7) 0.0877 Uani
H23 H 0.7112 0.5896 0.5094 0.1050 Uiso
C28 C 0.7470(3) 0.6743(3) 0.5142(5) 0.0710 Uani
H24 H 0.7866 0.6630 0.5280 0.0850 Uiso
C29 C 0.7329(3) 0.7329(3) 0.5000 0.0567 Uani
C30 C 0.7814(4) 0.7814(4) 0.5000 0.0723 Uani
C31 C 0.7832(4) 0.8203(3) 0.4246(6) 0.0913 Uani
H25 H 0.7552 0.8194 0.3735 0.1090 Uiso
C32 C 0.8307(5) 0.8623(5) 0.4286(9) 0.1180 Uani
H26 H 0.8360 0.8885 0.3757 0.1420 Uiso
N3 N 0.6469(3) 0.6469(3) 0.5000 0.1003 Uani
N4 N 0.8663(4) 0.8663(4) 0.5000 0.1780 Uani
C27F C 0.6306(3) 0.7014(4) 0.4921(7) 0.0877 Uani
H23F H 0.5896 0.7112 0.4906 0.1050 Uiso
C28F C 0.6743(3) 0.7470(3) 0.4858(5) 0.0710 Uani
H24F H 0.6630 0.7866 0.4720 0.0850 Uiso
C31F C 0.8203(3) 0.7832(4) 0.5754(6) 0.0913 Uani
H25F H 0.8194 0.7552 0.6265 0.1090 Uiso
C32F C 0.8623(5) 0.8307(5) 0.5714(9) 0.1180 Uani
H26F H 0.8885 0.8360 0.6243 0.1420 Uiso
O9 O 0.58608(13) 0.98397(15) 0.9678(2) 0.0371 Uani
H29 H 0.5803 0.9898 1.0275 0.0450 Uiso
H30 H 0.6230 0.9765 0.9660 0.0450 Uiso
O10 O 0.95351(19) 0.90801(16) 0.1913(3) 0.0697 Uani
H31 H 0.9571 0.8724 0.1722 0.0830 Uiso
H32 H 0.9842 0.8978 0.2228 0.0830 Uiso
O11 O 0.0483(4) 0.9282(4) 0.3214(7) 0.0697 Uani
H33 H 0.0725 0.8994 0.3234 0.0830 Uiso
H34 H 0.0349 0.9180 0.3761 0.0830 Uiso
O12 O 0.9422(4) 0.0390(4) 0.4888(7) 0.0630 Uani
H35 H 0.9261 0.0057 0.4997 0.0750 Uiso
H36 H 0.9517 0.0468 0.5466 0.0750 Uiso
O13 O 0.9044(2) 0.0288(4) 0.3110(4) 0.1477 Uani
H37 H 0.8986 0.0574 0.3498 0.1770 Uiso
H38 H 0.8726 0.0236 0.2793 0.1770 Uiso
loop_
_atom_site_aniso_label
_atom_site_aniso_U_11
_atom_site_aniso_U_22
_atom_site_aniso_U_33
_atom_site_aniso_U_23
_atom_site_aniso_U_13
_atom_site_aniso_U_12
O1 0.0394(18) 0.0403(18) 0.0366(18) -0.0002(14) 0.0080(14) -0.0025(14)
C1 0.038(2) 0.022(2) 0.0208(19) -0.0012(16) 0.0088(17) 0.0007(17)
C2 0.037(2) 0.0221(19) 0.0204(18) -0.0038(15) 0.0047(16) -0.0006(18)
C3 0.034(2) 0.037(3) 0.023(2) -0.0043(17) 0.0000(17) 0.0085(17)
C4 0.035(2) 0.048(3) 0.025(2) -0.004(2) -0.0020(19) 0.005(2)
C5 0.036(2) 0.025(2) 0.0211(19) -0.0026(16) 0.0007(17) 0.0028(17)
C6 0.032(2) 0.029(2) 0.029(2) -0.0054(18) 0.0029(18) -0.0008(17)
C7 0.034(2) 0.025(2) 0.023(2) -0.0040(16) -0.0025(17) -0.0021(16)
C8 0.038(3) 0.039(3) 0.029(2) -0.0046(19) 0.0054(19) 0.002(2)
C9 0.044 0.035 0.03 -0.0041 0.005 0.005
C10 0.026 0.037 0.0209 -0.0022 0.0037 0.0012
C11 0.038 0.029 0.024 0.0047 0.0075 0.0016
C12 0.028 0.032 0.027 -0.0025 0.0036 -0.0015
C13 0.0207 0.031 0.0194 -0.0044 0.0003 -0.0032
C14 0.03 0.033 0.023 0.0013 0.0027 -0.002
C15 0.03 0.029 0.029 -0.002 0.0035 0.0003
C16 0.0159 0.033 0.0187 -0.0014 0.001 0.0002
C17 0.04 0.029 0.042 -0.007 -0.017 -0.0001
C18 0.025 0.023 0.043 -0.0068 -0.0032 -0.0032
C19 0.026 0.022 0.026 -0.0026 0.002 -0.0032
C20 0.036 0.022 0.049 -0.0037 -0.017 0.0059
C21 0.026 0.029 0.045 -0.0066 -0.0087 0.0021
C22 0.027 0.022 0.025 0.0019 0.0015 0.0002
C23 0.022 0.024 0.047 -0.0025 0.0012 -0.0018
C24 0.026 0.023 0.045 -0.0027 0.002 -0.0051
C25 0.026 0.026 0.044 -0.0032 0.0002 0.002
C26 0.026 0.024 0.05 -0.007 -0.0072 -0.0027
Cd1 0.02472(15) 0.01835(14) 0.01913(13) -0.00358(11) -0.00077(12) -0.00056(10)
N1 0.0331 0.0193 0.0266 0.0026 0.0001 0.0022
N2 0.0244 0.0209 0.0242 0.0027 0.001 -0.0021
O2 0.0341(18) 0.0405(18) 0.0277(15) -0.0087(13) 0.0021(12) 0.0036(12)
O3 0.0381(17) 0.0341(15) 0.0243(15) -0.0072(12) -0.0005(13) 0.0030(12)
O4 0.0368(18) 0.050(2) 0.0213(15) -0.0100(14) 0.0003(13) 0.0055(14)
O5 0.0383 0.0355 0.0225 -0.0074 0.0076 -0.0011
O6 0.0311 0.0309 0.0233 -0.0026 0.0083 0
O7 0.0307 0.0275 0.0247 -0.0072 0.0037 0.0012
O8 0.0316(16) 0.0462(19) 0.0344(16) 0.0013(16) 0.0007(14) -0.0107(13)
C16C 0.033 0.0159 0.0187 -0.001 -0.0014 -0.0002
Cd1D 0.02472 0.01835 0.01913 0.00358 -0.00077 0.00056
Cd1B 0.01835 0.02472 0.01913 -0.00077 0.00358 0.00056
N2D 0.0244(17) 0.0209(16) 0.0242(17) -0.0027(13) 0.0010(13) 0.0021(13)
O6C 0.0309 0.0311 0.0233 -0.0083 -0.0026 0
O7C 0.0275 0.0307 0.0247 -0.0037 -0.0072 -0.0012
C27 0.081(5) 0.063(4) 0.119(7) 0.023(4) 0.036(5) 0.011(4)
C28 0.059(4) 0.077(5) 0.077(5) 0.024(4) 0.006(3) 0.023(3)
C29 0.058(3) 0.058(3) 0.054(5) 0.004(3) -0.004(3) 0.015(4)
C30 0.080(4) 0.080(4) 0.057(5) -0.021(3) 0.021(3) 0.012(6)
C31 0.110(5) 0.059(4) 0.105(5) -0.015(4) 0.048(5) -0.001(4)
C32 0.138(7) 0.082(6) 0.134(7) -0.040(5) 0.059(6) -0.002(5)
N3 0.089(4) 0.089(4) 0.123(9) -0.014(5) 0.014(5) -0.006(6)
N4 0.132(8) 0.132(8) 0.27(2) -0.125(12) 0.125(12) -0.034(10)
C27F 0.063 0.081 0.119 -0.036 -0.023 0.011
C28F 0.077 0.059 0.077 -0.006 -0.024 0.023
C31F 0.059 0.11 0.105 -0.048 0.015 -0.001
C32F 0.082 0.138 0.134 -0.059 0.04 -0.002
O9 0.0314(16) 0.0477(19) 0.0322(16) -0.0133(14) -0.0010(13) 0.0000(14)
O10 0.079(3) 0.039(2) 0.091(3) -0.009(2) -0.045(3) 0.0137(19)
O11 0.073(6) 0.054(5) 0.082(6) 0.012(5) -0.016(5) 0.000(4)
O12 0.059(5) 0.058(5) 0.072(6) 0.005(4) 0.002(4) -0.015(4)
O13 0.060(3) 0.314(11) 0.069(3) -0.053(5) -0.012(3) -0.023(5)
loop_
_geom_bond_atom_site_label_1
_geom_bond_atom_site_label_2
_geom_bond_site_symmetry_1
_geom_bond_site_symmetry_2
O1 H1 1_555 1_555
H2 O1 1_555 1_555
C1 C2 1_555 1_555
C2 C3 1_555 1_555
C3 H3 1_555 1_555
C4 C3 1_555 1_555
H4 C4 1_555 1_555
C5 C4 1_555 1_555
C6 C5 1_555 1_555
H5 C6 1_555 1_555
C7 C2 1_555 1_555
H6 C7 1_555 1_555
C8 H7 1_555 1_555
H8 C8 1_555 1_555
C9 C8 1_555 1_555
H9 C9 1_555 1_555
H10 C9 1_555 1_555
C10 C11 1_555 1_555
C11 H11 1_555 1_555
C12 C11 1_555 1_555
H12 C12 1_555 1_555
C13 C12 1_555 1_555
C14 C13 1_555 1_555
H13 C14 1_555 1_555
C15 C10 1_555 1_555
H14 C15 1_555 1_555
C16 C13 1_555 1_555
C17 H15 1_555 1_555
C18 H16 1_555 1_555
C19 C18 1_555 1_555
C20 C17 1_555 1_555
H17 C20 1_555 1_555
C21 C18 1_555 1_555
H18 C21 1_555 1_555
C22 C19 1_555 1_555
C23 C22 1_555 1_555
H19 C23 1_555 1_555
C24 C23 1_555 1_555
H20 C24 1_555 1_555
C25 H21 1_555 1_555
C26 C22 1_555 1_555
H22 C26 1_555 1_555
C27 H23 1_555 1_555
C28 C27 1_555 1_555
H24 C28 1_555 1_555
C29 C28 1_555 1_555
C30 C29 1_555 1_555
C31 C30 1_555 1_555
H25 C31 1_555 1_555
C32 C31 1_555 1_555
H26 C32 1_555 1_555
Cd1 N1 1_555 1_555
N1 C17 1_555 1_555
N2 C24 1_555 1_555
N3 C27 1_555 1_555
N4 C32 1_555 1_555
O2 C1 1_555 1_555
O3 C1 1_555 1_555
O4 C5 1_555 1_555
O5 C9 1_555 1_555
O6 C16 1_555 1_555
O7 C16 1_555 1_555
O8 Cd1 1_555 1_555
H27 O8 1_555 1_555
H28 O8 1_555 1_555
O9 H29 1_555 1_555
H30 O9 1_555 1_555
O10 H31 1_555 1_555
H32 O10 1_555 1_555
O11 H33 1_555 1_555
H34 O11 1_555 1_555
O12 H35 1_555 1_555
H36 O12 1_555 1_555
O13 H37 1_555 1_555
H38 O13 1_555 1_555
C16C O6C 1_555 1_555
C27F N3 1_555 1_555
H23F C27F 1_555 1_555
C28F C29 1_555 1_555
H24F C28F 1_555 1_555
C31F C30 1_555 1_555
H25F C31F 1_555 1_555
C32F N4 1_555 1_555
H26F C32F 1_555 1_555
Cd1D N2 1_555 1_555
Cd1B O6 1_555 1_555
N2D Cd1 1_555 1_555
O6C Cd1 1_555 1_555
O7C Cd1 1_555 1_555
C6 C7 1_555 1_555
C8 O4 1_555 1_555
C10 O5 1_555 1_555
C14 C15 1_555 1_555
C19 C20 1_555 1_555
C21 N1 1_555 1_555
C25 C26 1_555 1_555
C25 N2 1_555 1_555
Cd1 O2 1_555 1_555
Cd1 O3 1_555 1_555
O7 Cd1B 1_555 1_555
C16C O7C 1_555 1_555
C27F C28F 1_555 1_555
C31F C32F 1_555 1_555

#END
