
#######################################################################
#
#                 Cambridge Crystallographic Data Centre
#                                CCDC 
#
#######################################################################
#
# If this CIF has been generated from an entry in the Cambridge 
# Structural Database, then it will include bibliographic, chemical, 
# crystal, experimental, refinement or atomic coordinate data resulting 
# from the CCDC's data processing and validation procedures.
#
#######################################################################

data_ZESTIC
_chemical_formula_moiety         '(C36 H26 Cd1 N8)n'
_symmetry_cell_setting           monoclinic
_symmetry_space_group_name_H-M   'C c'
_symmetry_Int_Tables_number      9
_space_group_name_Hall           'C -2yc'
loop_
_symmetry_equiv_pos_site_id
_symmetry_equiv_pos_as_xyz
1 x,y,z
2 x,-y,1/2+z
3 1/2+x,1/2+y,z
4 1/2+x,1/2-y,1/2+z
_cell_length_a                   24.6972(5)
_cell_length_b                   9.6072(2)
_cell_length_c                   18.2223(4)
_cell_angle_alpha                90
_cell_angle_beta                 107.7100(10)
_cell_angle_gamma                90
_cell_volume                     4118.72
loop_
_atom_site_label
_atom_site_type_symbol
_atom_site_fract_x
_atom_site_fract_y
_atom_site_fract_z
_atom_site_U_iso_or_equiv
_atom_site_thermal_displace_type
C1 C 0.53183(12) 0.4619(4) 0.25220(17) 0.0416 Uani
H1 H 0.4978 0.5047 0.2509 0.0500 Uiso
C2 C 0.57528(18) 0.4300(4) 0.3207(2) 0.0521 Uani
H2 H 0.5751 0.4471 0.3709 0.0620 Uiso
C3 C 0.61720(13) 0.3693(4) 0.29858(18) 0.0443 Uani
H3 H 0.6515 0.3359 0.3309 0.0530 Uiso
C4 C 0.59894(10) 0.3661(3) 0.21604(15) 0.0321 Uani
C5 C 0.62907(8) 0.3055(2) 0.17002(13) 0.0317 Uani
C6 C 0.61000(10) 0.2849(2) 0.09032(14) 0.0301 Uani
C7 C 0.64295(11) 0.2322(3) 0.04354(15) 0.0445 Uani
H4 H 0.6810 0.2063 0.0610 0.0530 Uiso
C8 C 0.60962(12) 0.2268(4) -0.02904(15) 0.0507 Uani
H5 H 0.6198 0.1962 -0.0715 0.0610 Uiso
C9 C 0.55506(10) 0.2771(3) -0.02913(14) 0.0371 Uani
H6 H 0.5237 0.2856 -0.0728 0.0440 Uiso
C10 C 0.68811(9) 0.2546(3) 0.21118(13) 0.0336 Uani
C11 C 0.70235(10) 0.1161(3) 0.20785(14) 0.0391 Uani
H7 H 0.6754 0.0548 0.1781 0.0470 Uiso
C12 C 0.75531(11) 0.0673(3) 0.24749(15) 0.0394 Uani
H8 H 0.7633 -0.0273 0.2479 0.0470 Uiso
C13 C 0.79638(9) 0.1598(3) 0.28660(12) 0.0324 Uani
C14 C 0.78431(10) 0.2989(3) 0.28788(14) 0.0362 Uani
H9 H 0.8124 0.3613 0.3137 0.0430 Uiso
C15 C 0.73005(9) 0.3455(3) 0.25055(15) 0.0375 Uani
H10 H 0.7217 0.4397 0.2520 0.0450 Uiso
C16 C 0.87967(10) 0.1400(3) 0.40339(13) 0.0307 Uani
H11 H 0.8666 0.2020 0.4333 0.0370 Uiso
C17 C 0.93114(11) -0.0065(3) 0.36650(15) 0.0348 Uani
H12 H 0.9609 -0.0662 0.3671 0.0420 Uiso
C18 C 0.88557(13) 0.0189(4) 0.30396(17) 0.0446 Uani
H13 H 0.8783 -0.0187 0.2549 0.0540 Uiso
C19 C 0.41212(9) 0.6823(2) 0.11894(13) 0.0308 Uani
H14 H 0.4439 0.7392 0.1278 0.0370 Uiso
C20 C 0.35891(10) 0.7282(2) 0.12534(15) 0.0328 Uani
H15 H 0.3496 0.8169 0.1381 0.0390 Uiso
C21 C 0.32401(9) 0.6125(2) 0.10858(12) 0.0260 Uani
H16 H 0.2863 0.6080 0.1080 0.0310 Uiso
C22 C 0.35687(8) 0.5012(2) 0.09235(11) 0.0223 Uani
C23 C 0.33789(8) 0.3623(2) 0.07682(11) 0.0226 Uani
C24 C 0.36887(9) 0.2465(2) 0.06659(13) 0.0247 Uani
C25 C 0.34592(10) 0.1103(2) 0.04517(14) 0.0349 Uani
H17 H 0.3089 0.0812 0.0392 0.0420 Uiso
C26 C 0.38997(11) 0.0302(3) 0.03508(18) 0.0428 Uani
H18 H 0.3886 -0.0628 0.0205 0.0510 Uiso
C27 C 0.43773(10) 0.1212(2) 0.05190(15) 0.0359 Uani
H19 H 0.4734 0.0943 0.0498 0.0430 Uiso
C28 C 0.27632(8) 0.3382(2) 0.06654(12) 0.0254 Uani
C29 C 0.25965(9) 0.2640(2) 0.12161(12) 0.0293 Uani
H20 H 0.2870 0.2310 0.1654 0.0350 Uiso
C30 C 0.20219(9) 0.2390(2) 0.11158(13) 0.0333 Uani
H21 H 0.1912 0.1905 0.1489 0.0400 Uiso
C31 C 0.16138(8) 0.2869(2) 0.04547(12) 0.0258 Uani
C32 C 0.17761(8) 0.3620(2) -0.00973(12) 0.0309 Uani
H22 H 0.1505 0.3943 -0.0539 0.0370 Uiso
C33 C 0.23530(9) 0.3882(2) 0.00245(13) 0.0311 Uani
H23 H 0.2463 0.4405 -0.0335 0.0370 Uiso
C34 C 0.08238(9) 0.1401(2) 0.05464(15) 0.0354 Uani
H24 H 0.1049 0.0654 0.0784 0.0420 Uiso
C35 C 0.01041(9) 0.2687(3) 0.00283(16) 0.0379 Uani
H25 H -0.0269 0.3003 -0.0155 0.0450 Uiso
C36 C 0.05721(9) 0.3431(3) 0.00008(16) 0.0378 Uani
H26 H 0.0578 0.4312 -0.0208 0.0450 Uiso
N1 N 0.54527(13) 0.4236(2) 0.18956(18) 0.0335 Uani
N2 N 0.55553(7) 0.3101(2) 0.04205(11) 0.0286 Uani
N3 N 0.85235(9) 0.1122(3) 0.32841(11) 0.0285 Uani
N4 N 0.92701(12) 0.0684(2) 0.42853(16) 0.0301 Uani
N5 N 0.41128(7) 0.54926(18) 0.09895(11) 0.0252 Uani
N6 N 0.42599(7) 0.24817(19) 0.07082(10) 0.0254 Uani
N7 N 0.10288(8) 0.2595(2) 0.03490(13) 0.0302 Uani
N8 N 0.02621(7) 0.1424(2) 0.03602(11) 0.0305 Uani
Cd1 Cd 0.482541(6) 0.435010(12) 0.066286(7) 0.0227 Uani
N4C N 0.42701(12) 0.4316(2) -0.07147(16) 0.0301 Uani
N8B N 0.52621(7) 0.6424(2) 0.03602(11) 0.0305 Uani
Cd1B Cd -0.017459(6) -0.064990(12) 0.066286(7) 0.0227 Uani
Cd1C Cd 0.982541(6) 0.064990(12) 0.566286(7) 0.0227 Uani
loop_
_atom_site_aniso_label
_atom_site_aniso_U_11
_atom_site_aniso_U_22
_atom_site_aniso_U_33
_atom_site_aniso_U_23
_atom_site_aniso_U_13
_atom_site_aniso_U_12
C1 0.0213(12) 0.0645(18) 0.0352(14) 0.0049(12) 0.0030(11) 0.0066(12)
C2 0.0388(18) 0.092(3) 0.0225(13) 0.0063(13) 0.0047(12) -0.0044(15)
C3 0.0270(14) 0.066(2) 0.0352(15) 0.0001(14) 0.0025(12) 0.0074(14)
C4 0.0191(11) 0.0407(12) 0.0339(12) 0.0049(10) 0.0041(9) -0.0003(9)
C5 0.0157(9) 0.0416(11) 0.0317(10) -0.0001(9) -0.0019(8) 0.0011(8)
C6 0.0182(10) 0.0334(12) 0.0350(12) 0.0018(9) 0.0025(9) 0.0044(8)
C7 0.0242(11) 0.0667(17) 0.0416(13) 0.0053(12) 0.0085(10) 0.0205(11)
C8 0.0401(14) 0.077(2) 0.0359(12) -0.0039(12) 0.0130(11) 0.0198(13)
C9 0.0242(10) 0.0470(13) 0.0352(11) -0.0006(10) 0.0019(9) 0.0056(9)
C10 0.0197(10) 0.0456(12) 0.0298(10) 0.0020(9) -0.0008(8) 0.0117(9)
C11 0.0247(11) 0.0457(13) 0.0369(12) -0.0072(10) -0.0054(9) 0.0055(10)
C12 0.0272(12) 0.0476(14) 0.0338(12) -0.0096(9) -0.0049(10) 0.0179(10)
C13 0.0199(9) 0.0487(13) 0.0240(9) 0.0002(8) 0.0000(8) 0.0126(8)
C14 0.0207(10) 0.0440(12) 0.0368(11) 0.0031(10) -0.0020(9) 0.0056(9)
C15 0.0189(10) 0.0421(12) 0.0453(13) 0.0016(10) 0.0003(9) 0.0042(9)
C16 0.0202(11) 0.0458(13) 0.0238(10) -0.0043(9) 0.0032(9) 0.0038(9)
C17 0.0237(11) 0.0467(15) 0.0317(12) 0.0016(11) 0.0049(10) 0.0124(11)
C18 0.0237(13) 0.080(2) 0.0252(12) -0.0063(14) 0.0000(10) 0.0245(15)
C19 0.0217(10) 0.0309(10) 0.0384(11) -0.0020(9) 0.0071(9) -0.0064(8)
C20 0.0277(11) 0.0267(10) 0.0463(13) -0.0047(9) 0.0147(10) 0.0000(8)
C21 0.0186(9) 0.0269(9) 0.0341(10) 0.0015(8) 0.0103(8) 0.0015(7)
C22 0.0127(8) 0.0258(9) 0.0278(9) 0.0024(7) 0.0054(7) 0.0003(7)
C23 0.0127(8) 0.0299(10) 0.0252(9) 0.0038(7) 0.0057(7) -0.0035(7)
C24 0.0182(10) 0.0231(9) 0.0335(11) 0.0030(8) 0.0091(8) -0.0026(7)
C25 0.0319(12) 0.0267(10) 0.0486(13) 0.0005(9) 0.0158(10) -0.0052(9)
C26 0.0363(13) 0.0228(10) 0.0699(18) -0.0025(11) 0.0170(13) -0.0006(9)
C27 0.0279(11) 0.0308(11) 0.0498(13) 0.0039(10) 0.0132(10) 0.0016(9)
C28 0.0178(8) 0.0272(9) 0.0320(10) 0.0013(7) 0.0087(8) -0.0065(7)
C29 0.0164(9) 0.0405(11) 0.0276(9) 0.0054(8) 0.0017(8) -0.0097(8)
C30 0.0199(10) 0.0420(12) 0.0380(11) 0.0097(9) 0.0089(9) -0.0075(8)
C31 0.0141(8) 0.0299(9) 0.0331(10) 0.0000(8) 0.0067(8) -0.0066(7)
C32 0.0150(9) 0.0418(12) 0.0306(10) 0.0131(9) -0.0009(8) -0.0057(8)
C33 0.0207(10) 0.0378(11) 0.0355(11) 0.0099(9) 0.0097(9) -0.0071(8)
C34 0.0173(10) 0.0355(11) 0.0507(13) 0.0146(10) 0.0065(10) -0.0037(8)
C35 0.0161(9) 0.0405(12) 0.0583(15) 0.0080(10) 0.0131(10) -0.0015(8)
C36 0.0203(10) 0.0342(11) 0.0565(14) 0.0115(10) 0.0081(10) 0.0014(8)
N1 0.0250(13) 0.0413(12) 0.0307(13) -0.0009(8) 0.0031(10) 0.0052(8)
N2 0.0135(8) 0.0368(9) 0.0327(9) 0.0015(8) 0.0028(7) -0.0001(7)
N3 0.0227(10) 0.0423(10) 0.0149(8) -0.0002(8) -0.0027(8) 0.0112(9)
N4 0.0171(11) 0.0426(13) 0.0234(11) -0.0068(7) -0.0046(9) 0.0079(7)
N5 0.0141(8) 0.0303(9) 0.0298(8) -0.0009(7) 0.0044(7) -0.0046(6)
N6 0.0148(8) 0.0282(8) 0.0311(9) 0.0062(7) 0.0040(7) -0.0002(6)
N7 0.0150(8) 0.0313(10) 0.0441(11) 0.0057(8) 0.0085(8) -0.0041(7)
N8 0.0133(8) 0.0383(9) 0.0380(9) 0.0045(8) 0.0051(7) -0.0078(7)
Cd1 0.01029(5) 0.02943(6) 0.02646(6) 0.00315(7) 0.00252(4) -0.00156(7)
N4C 0.0171 0.0426 0.0234 0.0068 -0.0046 -0.0079
N8B 0.0133 0.0383 0.038 0.0045 0.0051 -0.0078
Cd1B 0.01029 0.02943 0.02646 0.00315 0.00252 -0.00156
Cd1C 0.01029 0.02943 0.02646 -0.00315 0.00252 0.00156
loop_
_geom_bond_atom_site_label_1
_geom_bond_atom_site_label_2
_geom_bond_site_symmetry_1
_geom_bond_site_symmetry_2
C1 H1 1_555 1_555
C2 C1 1_555 1_555
H2 C2 1_555 1_555
C3 C2 1_555 1_555
H3 C3 1_555 1_555
C4 C3 1_555 1_555
C5 C4 1_555 1_555
C6 C5 1_555 1_555
C7 C6 1_555 1_555
H4 C7 1_555 1_555
C8 C7 1_555 1_555
H5 C8 1_555 1_555
C9 C8 1_555 1_555
H6 C9 1_555 1_555
C10 C5 1_555 1_555
C11 C10 1_555 1_555
H7 C11 1_555 1_555
C12 C11 1_555 1_555
H8 C12 1_555 1_555
C13 C12 1_555 1_555
C14 C13 1_555 1_555
H9 C14 1_555 1_555
C15 C10 1_555 1_555
H10 C15 1_555 1_555
C16 H11 1_555 1_555
C17 H12 1_555 1_555
C18 C17 1_555 1_555
H13 C18 1_555 1_555
C19 H14 1_555 1_555
C20 C19 1_555 1_555
H15 C20 1_555 1_555
C21 C20 1_555 1_555
H16 C21 1_555 1_555
C22 C21 1_555 1_555
C23 C22 1_555 1_555
C24 C23 1_555 1_555
C25 C24 1_555 1_555
H17 C25 1_555 1_555
C26 C25 1_555 1_555
H18 C26 1_555 1_555
C27 C26 1_555 1_555
H19 C27 1_555 1_555
C28 C23 1_555 1_555
C29 C28 1_555 1_555
H20 C29 1_555 1_555
C30 C29 1_555 1_555
H21 C30 1_555 1_555
C31 C30 1_555 1_555
C32 C31 1_555 1_555
H22 C32 1_555 1_555
C33 C28 1_555 1_555
H23 C33 1_555 1_555
C34 H24 1_555 1_555
C35 H25 1_555 1_555
C36 C35 1_555 1_555
H26 C36 1_555 1_555
N1 C1 1_555 1_555
N2 C6 1_555 1_555
N3 C13 1_555 1_555
N4 C16 1_555 1_555
N5 C19 1_555 1_555
N6 C24 1_555 1_555
N7 C31 1_555 1_555
N8 C34 1_555 1_555
Cd1 N1 1_555 1_555
N4C Cd1 1_555 1_555
N8B Cd1 1_555 1_555
Cd1B N8 1_555 1_555
Cd1C N4 1_555 1_555
C4 N1 1_555 1_555
C9 N2 1_555 1_555
C14 C15 1_555 1_555
C16 N3 1_555 1_555
C17 N4 1_555 1_555
C18 N3 1_555 1_555
C22 N5 1_555 1_555
C27 N6 1_555 1_555
C32 C33 1_555 1_555
C34 N7 1_555 1_555
C35 N8 1_555 1_555
C36 N7 1_555 1_555
N2 Cd1 1_555 1_555
N5 Cd1 1_555 1_555
N6 Cd1 1_555 1_555

#END
