
#######################################################################
#
#                 Cambridge Crystallographic Data Centre
#                                CCDC 
#
#######################################################################
#
# If this CIF has been generated from an entry in the Cambridge 
# Structural Database, then it will include bibliographic, chemical, 
# crystal, experimental, refinement or atomic coordinate data resulting 
# from the CCDC's data processing and validation procedures.
#
#######################################################################

data_CUGFAN01
_chemical_formula_moiety         '(C26 H28 B2 N16 O6 Zn2)n'
_symmetry_cell_setting           triclinic
_symmetry_space_group_name_H-M   'P -1'
_symmetry_Int_Tables_number      2
_space_group_name_Hall           '-P 1'
loop_
_symmetry_equiv_pos_site_id
_symmetry_equiv_pos_as_xyz
1 x,y,z
2 -x,-y,-z
_cell_length_a                   8.8649(4)
_cell_length_b                   10.5565(4)
_cell_length_c                   10.6310(5)
_cell_angle_alpha                99.986(3)
_cell_angle_beta                 110.233(4)
_cell_angle_gamma                97.819(4)
_cell_volume                     898.421
loop_
_atom_site_label
_atom_site_type_symbol
_atom_site_fract_x
_atom_site_fract_y
_atom_site_fract_z
Zn1 Zn 1.79770(6) 0.32194(5) 0.24878(5)
O1 O 1.8099(4) 0.3951(3) 0.4553(3)
O2 O 1.9471(4) 0.5644(3) 0.6378(3)
N1 N 1.1877(4) 0.2932(3) -0.1735(4)
N2 N 1.2863(4) 0.1898(3) 0.0268(4)
N3 N 1.5474(4) 0.2369(4) 0.1742(4)
N4 N 1.0933(4) 0.0501(3) -0.2024(4)
N5 N 0.9925(4) 0.2197(3) -0.0653(4)
C1 C 1.4373(5) 0.2678(4) 0.0703(4)
H1 H 1.4613 0.3363 0.0311
C2 C 1.3017(6) 0.1023(4) 0.1119(5)
H2 H 1.2184 0.0363 0.1086
C3 C 1.1749(5) 0.4203(4) -0.1490(4)
H3 H 1.1189 0.4539 -0.0957
C4 C 1.9296(5) 0.4881(4) 0.5269(4)
C5 C 0.9876(5) 0.2463(4) 0.0630(5)
H4 H 1.0726 0.2418 0.1423
C6 C 1.1917(5) -0.0374(4) -0.1940(5)
H5 H 1.2967 -0.0220 -0.1264
C7 C 0.7584(6) 0.2749(5) -0.0720(5)
H6 H 0.6540 0.2933 -0.1042
C8 C 1.4621(5) 0.1314(4) 0.2011(5)
H7 H 1.5071 0.0875 0.2692
C9 C 0.8441(6) 0.2395(5) -0.1517(5)
H8 H 0.8096 0.2303 -0.2465
C10 C 1.3185(5) 0.4057(4) -0.2756(5)
H9 H 1.3802 0.4277 -0.3267
C11 C 1.2805(5) 0.2839(4) -0.2544(4)
H10 H 1.3113 0.2085 -0.2881
C12 C 0.9724(7) -0.1295(5) -0.3694(5)
H11 H 0.8962 -0.1900 -0.4476
C13 C 0.9508(7) -0.0107(5) -0.3151(5)
H12 H 0.8573 0.0237 -0.3477
B1 B 1.1374(6) 0.1878(4) -0.1039(5)
N6 N 1.1241(5) -0.1467(4) -0.2912(4)
N7 N 0.8493(4) 0.2793(4) 0.0628(4)
N8 N 1.2503(4) 0.4919(4) -0.2086(4)
O1A O 2.1901(4) 0.6049(3) 0.5447(3)
O2A O 2.0529(4) 0.4356(3) 0.3622(3)
C4A C 2.0704(5) 0.5119(4) 0.4731(4)
Zn1A Zn 1.20230(6) -0.32194(5) -0.24878(5)
N1A N 1.8123(4) -0.2932(3) 0.1735(4)
N2A N 1.7137(4) -0.1898(3) -0.0268(4)
N3A N 1.4526(4) -0.2369(4) -0.1742(4)
N4A N 1.9067(4) -0.0501(3) 0.2024(4)
N5A N 2.0075(4) -0.2197(3) 0.0653(4)
C1A C 1.5627(5) -0.2678(4) -0.0703(4)
H1A H 1.5387 -0.3363 -0.0311
C2A C 1.6983(6) -0.1023(4) -0.1119(5)
H2A H 1.7816 -0.0363 -0.1086
C3A C 1.8251(5) -0.4203(4) 0.1490(4)
H3A H 1.8811 -0.4539 0.0957
C5A C 2.0124(5) -0.2463(4) -0.0630(5)
H4A H 1.9274 -0.2418 -0.1423
C6A C 1.8083(5) 0.0374(4) 0.1940(5)
H5A H 1.7033 0.0220 0.1264
C7A C 2.2416(6) -0.2749(5) 0.0720(5)
H6A H 2.3460 -0.2933 0.1042
C8A C 1.5379(5) -0.1314(4) -0.2011(5)
H7A H 1.4929 -0.0875 -0.2692
C9A C 2.1559(6) -0.2395(5) 0.1517(5)
H8A H 2.1904 -0.2303 0.2465
C10A C 1.6815(5) -0.4057(4) 0.2756(5)
H9A H 1.6198 -0.4277 0.3267
C11A C 1.7195(5) -0.2839(4) 0.2544(4)
H10A H 1.6887 -0.2085 0.2881
C12A C 2.0276(7) 0.1295(5) 0.3694(5)
H11A H 2.1038 0.1900 0.4476
C13A C 2.0492(7) 0.0107(5) 0.3151(5)
H12A H 2.1427 -0.0237 0.3477
B1A B 1.8626(6) -0.1878(4) 0.1039(5)
N6A N 1.8759(5) 0.1467(4) 0.2912(4)
N7A N 2.1507(4) -0.2793(4) -0.0628(4)
N8A N 1.7497(4) -0.4919(4) 0.2086(4)
Zn1_2 Zn 0.79770(6) 0.32194(5) 0.24878(5)
Zn1_3 Zn 1.79770(6) -0.67806(5) 0.24878(5)
Zn1A_2 Zn 1.20230(6) 0.67806(5) -0.24878(5)
Zn1A_3 Zn 2.20230(6) -0.32194(5) -0.24878(5)
Zn1A_4 Zn 2.20230(6) 0.67806(5) 0.75122(5)
O1A_2 O 1.1901(4) -0.3951(3) -0.4553(3)
O2_2 O 0.9471(4) -0.4356(3) -0.3622(3)
N7_2 N 1.8493(4) 0.2793(4) 0.0628(4)
N7A_2 N 1.1507(4) -0.2793(4) -0.0628(4)
N8_2 N 1.2503(4) -0.5081(4) -0.2086(4)
N8A_2 N 1.7497(4) 0.5081(4) 0.2086(4)
O3 O 0.3386(8) 0.4252(10) 0.3183(9)
O4 O 0.4511(9) 0.6965(12) 0.4749(8)
loop_
_geom_bond_atom_site_label_1
_geom_bond_atom_site_label_2
_geom_bond_site_symmetry_1
_geom_bond_site_symmetry_2
Zn1 O1 1_555 1_555
O1 C4 1_555 1_555
O2 C4 1_555 1_555
N1 C3 1_555 1_555
N2 C1 1_555 1_555
N3 Zn1 1_555 1_555
N4 C6 1_555 1_555
N5 C5 1_555 1_555
C1 N3 1_555 1_555
H1 C1 1_555 1_555
C2 N2 1_555 1_555
H2 C2 1_555 1_555
C3 H3 1_555 1_555
C4 C4A 1_555 1_555
C5 H4 1_555 1_555
C6 H5 1_555 1_555
C7 H6 1_555 1_555
C8 N3 1_555 1_555
H7 C8 1_555 1_555
C9 N5 1_555 1_555
H8 C9 1_555 1_555
C10 H9 1_555 1_555
C11 N1 1_555 1_555
H10 C11 1_555 1_555
C12 H11 1_555 1_555
C13 N4 1_555 1_555
H12 C13 1_555 1_555
B1 N1 1_555 1_555
N6 C6 1_555 1_555
N7 C5 1_555 1_555
N8 C3 1_555 1_555
O1A C4A 1_555 1_555
O2A Zn1 1_555 1_555
C4A O2A 1_555 1_555
Zn1A N6 1_555 1_555
N1A C3A 1_555 1_555
N2A C1A 1_555 1_555
N3A Zn1A 1_555 1_555
N4A C6A 1_555 1_555
N5A C5A 1_555 1_555
C1A N3A 1_555 1_555
H1A C1A 1_555 1_555
C2A N2A 1_555 1_555
H2A C2A 1_555 1_555
C3A H3A 1_555 1_555
C5A H4A 1_555 1_555
C6A H5A 1_555 1_555
C7A H6A 1_555 1_555
C8A N3A 1_555 1_555
H7A C8A 1_555 1_555
C9A N5A 1_555 1_555
H8A C9A 1_555 1_555
C10A H9A 1_555 1_555
C11A N1A 1_555 1_555
H10A C11A 1_555 1_555
C12A H11A 1_555 1_555
C13A N4A 1_555 1_555
H12A C13A 1_555 1_555
B1A N1A 1_555 1_555
N6A Zn1 1_555 1_555
N7A C5A 1_555 1_555
N8A C3A 1_555 1_555
Zn1_2 N7 1_555 1_555
Zn1_3 N8A 1_555 1_555
Zn1A_2 N8 1_555 1_555
Zn1A_3 N7A 1_555 1_555
Zn1A_4 O2 1_555 1_555
O1A_2 Zn1A 1_555 1_555
O2_2 Zn1A 1_555 1_555
N7_2 Zn1 1_555 1_555
N7A_2 Zn1A 1_555 1_555
N8_2 Zn1A 1_555 1_555
N8A_2 Zn1 1_555 1_555
N2 B1 1_555 1_555
N4 B1 1_555 1_555
N5 B1 1_555 1_555
C2 C8 1_555 1_555
C7 C9 1_555 1_555
C7 N7 1_555 1_555
C10 C11 1_555 1_555
C10 N8 1_555 1_555
C12 C13 1_555 1_555
C12 N6 1_555 1_555
O1A Zn1A_4 1_555 1_555
N2A B1A 1_555 1_555
N4A B1A 1_555 1_555
N5A B1A 1_555 1_555
C2A C8A 1_555 1_555
C6A N6A 1_555 1_555
C7A C9A 1_555 1_555
C7A N7A 1_555 1_555
C10A C11A 1_555 1_555
C10A N8A 1_555 1_555
C12A C13A 1_555 1_555
C12A N6A 1_555 1_555

#END
