
#######################################################################
#
#                 Cambridge Crystallographic Data Centre
#                                CCDC 
#
#######################################################################
#
# If this CIF has been generated from an entry in the Cambridge 
# Structural Database, then it will include bibliographic, chemical, 
# crystal, experimental, refinement or atomic coordinate data resulting 
# from the CCDC's data processing and validation procedures.
#
#######################################################################

data_COXFOL
_chemical_formula_moiety         '(C52 H52 Co6 N2 O31)n'
_symmetry_cell_setting           monoclinic
_symmetry_space_group_name_H-M   'P 21/c'
_symmetry_Int_Tables_number      14
_space_group_name_Hall           '-P 2ybc'
loop_
_symmetry_equiv_pos_site_id
_symmetry_equiv_pos_as_xyz
1 x,y,z
2 -x,1/2+y,1/2-z
3 -x,-y,-z
4 x,1/2-y,1/2+z
_cell_length_a                   22.787(5)
_cell_length_b                   10.590(2)
_cell_length_c                   27.675(5)
_cell_angle_alpha                90
_cell_angle_beta                 107.79(3)
_cell_angle_gamma                90
_cell_volume                     6359.03
loop_
_atom_site_label
_atom_site_type_symbol
_atom_site_fract_x
_atom_site_fract_y
_atom_site_fract_z
C1 C 0.5410(6) 0.3890(14) 0.9618(5)
H1 H 0.5443 0.3815 0.9960
C2 C 0.1431(6) 0.1567(12) 0.9468(4)
C3 C 0.3579(5) 0.1781(11) 1.0578(4)
H2 H 0.3296 0.2371 1.0620
C4 C 0.2177(5) 0.5940(10) 0.7517(4)
C5 C 0.3687(4) 0.1658(9) 1.0114(3)
C6 C 0.2802(4) 0.8158(8) 0.8692(3)
H3 H 0.2394 0.8038 0.8681
C7 C -0.0915(4) 0.6631(9) 0.7459(3)
C8 C 0.1974(5) 0.8096(11) 0.7309(4)
C9 C 0.3344(5) 0.2470(11) 0.9665(4)
C10 C 0.2993(4) 0.9334(8) 0.8579(3)
C11 C 0.2326(5) 0.7054(10) 0.7331(4)
H4 H 0.2671 0.7095 0.7220
C12 C 0.1585(5) 0.1532(10) 1.0857(3)
C13 C 0.2997(5) 0.5855(10) 0.8915(4)
C14 C 0.2569(5) 0.4833(10) 0.7548(3)
C15 C 0.2561(4) 1.0415(9) 0.8431(3)
C16 C 0.3214(5) 0.7154(9) 0.8821(3)
C17 C 0.1338(4) 0.1243(9) 0.9962(3)
C18 C 0.0914(5) 0.4477(11) 0.8700(4)
C19 C 0.1668(4) 0.1816(9) 1.0401(3)
H5 H 0.1959 0.2421 1.0390
C20 C -0.0031(4) 0.5521(9) 0.8085(3)
H6 H 0.0008 0.4980 0.7832
C21 C 0.1922(5) 0.2294(10) 1.1324(4)
C22 C 0.4259(5) 0.3405(11) 0.8334(4)
C23 C -0.0494(4) 0.6433(9) 0.7980(3)
C24 C 0.0374(4) 0.5438(8) 0.8580(3)
C25 C 0.4087(5) 0.0723(10) 1.0046(4)
H7 H 0.4145 0.0629 0.9730
C26 C 0.3895(6) 0.1019(15) 1.0980(4)
C27 C 0.1657(5) 0.5889(13) 0.7685(5)
H8 H 0.1554 0.5131 0.7809
C28 C 0.2157(5) 0.9336(11) 0.7123(3)
C29 C 0.4836(5) 0.3732(9) 0.8742(4)
C30 C 0.1177(5) 0.0582(10) 1.0882(4)
H9 H 0.1122 0.0371 1.1192
C31 C 0.5334(4) 0.4119(8) 0.8615(4)
H10 H 0.5305 0.4167 0.8273
C32 C 0.3820(5) 0.7371(10) 0.8851(4)
H11 H 0.4100 0.6705 0.8933
C33 C 0.3606(5) 0.9521(9) 0.8625(4)
H12 H 0.3740 1.0317 0.8562
C34 C 0.0926(5) 0.0302(11) 0.9977(4)
H13 H 0.0699 -0.0095 0.9679
C35 C 0.0849(5) -0.0055(10) 1.0441(4)
H14 H 0.0582 -0.0709 1.0455
C36 C 0.4023(5) 0.8544(11) 0.8762(5)
H15 H 0.4437 0.8677 0.8795
C37 C 0.5890(5) 0.4451(10) 0.8974(4)
C38 C 0.4305(7) 0.0079(14) 1.0914(5)
H16 H 0.4512 -0.0442 1.1183
C39 C 0.0319(6) 0.6270(13) 0.8951(4)
H17 H 0.0600 0.6228 0.9275
C40 C 0.6403(5) 0.4932(12) 0.8800(6)
C41 C 0.4396(5) -0.0060(12) 1.0435(5)
H18 H 0.4662 -0.0674 1.0384
C42 C 0.4871(5) 0.3558(12) 0.9252(4)
H19 H 0.4540 0.3227 0.9341
C43 C 0.3714(11) 0.130(3) 1.1477(4)
C44 C 0.5911(6) 0.4343(12) 0.9472(4)
H20 H 0.6270 0.4579 0.9723
C45 C -0.0133(6) 0.7135(15) 0.8852(5)
H21 H -0.0182 0.7656 0.9108
C46 C 0.1467(6) 0.8009(12) 0.7488(5)
H22 H 0.1229 0.8725 0.7483
C47 C 0.1307(6) 0.6898(15) 0.7671(5)
H23 H 0.0961 0.6854 0.7783
C48 C -0.0527(6) 0.7235(13) 0.8359(5)
H24 H -0.0823 0.7870 0.8283
Co1 Co 0.22264(6) 0.40893(12) 0.93433(4)
Co2 Co 0.14803(6) 0.19679(12) 0.85126(5)
Co3 Co 0.30107(5) 0.30934(11) 0.85823(4)
Co4 Co -0.21954(6) 0.70835(11) 0.75657(4)
Co5 Co 0.35256(6) 0.16069(14) 1.23143(5)
Co6 Co 0.28869(6) 0.41500(13) 1.16707(5)
H37 H 0.198(2) 0.384(4) 0.8444(16)
H38 H -0.318(2) 0.638(4) 0.7403(12)
O1 O 0.2193(3) 0.4960(7) 1.0023(2)
O2 O 0.2164(2) 0.3289(6) 0.8657(2)
O3 O -0.0787(3) 0.6118(6) 0.7089(2)
O4 O -0.1392(3) 0.7314(6) 0.7373(2)
O5 O 0.0847(3) 0.3552(7) 0.8411(2)
O6 O 0.1361(3) 0.4794(7) 0.9077(3)
O7 O 0.1909(3) 0.1950(6) 1.1749(2)
O8 O 0.2182(4) 0.3292(6) 1.1231(3)
O9 O 0.1122(4) 0.1160(8) 0.9063(3)
O10 O 0.1889(5) 0.2274(9) 0.9489(3)
O11 O 0.3827(3) 0.2811(6) 0.8427(3)
O12 O 0.4254(4) 0.3669(11) 0.7890(3)
O13 O 0.6935(4) 0.4929(10) 0.9083(3)
O14 O 0.6282(4) 0.5264(7) 0.8350(4)
O15 O 0.3369(3) 0.2148(6) 0.9242(2)
O16 O 0.3052(3) 0.3403(7) 0.9760(3)
O17 O 0.2594(3) 0.5780(6) 0.9137(3)
O18 O 0.3251(3) 0.4948(5) 0.8774(2)
O19 O 0.2079(3) 1.0400(6) 0.8568(2)
O20 O 0.2702(2) 1.1334(5) 0.8189(2)
O21 O 0.2985(3) 0.4874(6) 0.7332(3)
O22 O 0.2488(3) 0.3826(5) 0.7782(2)
O23 O 0.2548(3) 0.9252(6) 0.6890(3)
O24 O 0.1902(3) 1.0315(6) 0.7204(2)
O25 O 0.4062(5) 0.0471(16) 1.1840(4)
O26 O 0.3388(9) 0.1901(15) 1.1546(6)
O27 O -0.3062(3) 0.6798(6) 0.7675(2)
Co2A Co -0.14803(6) 0.69679(12) 0.64874(5)
Co2_2 Co 0.14803(6) 1.19679(12) 0.85126(5)
Co3_2 Co 0.30107(5) 1.30934(11) 0.85823(4)
Co4B Co 0.21954(6) 0.29165(11) 1.24343(4)
Co4A Co 0.21954(6) 1.20835(11) 0.74343(4)
Co4A_2 Co 0.21954(6) 0.20835(11) 0.74343(4)
Co5C Co 0.35256(6) 0.33931(14) 0.73143(5)
Co5B Co -0.35256(6) 0.83931(14) 0.76857(5)
Co6B Co 0.71131(6) 0.58500(13) 0.83293(5)
Co6C Co 0.28869(6) 1.08500(13) 0.66707(5)
Co6B_2 Co -0.28869(6) 0.58500(13) 0.83293(5)
H38B H 0.318(2) 0.362(4) 1.2597(12)
O3A O 0.0787(3) 0.1118(6) 0.7911(2)
O7B O -0.1909(3) 0.8050(6) 0.8251(2)
O12C O 0.4254(4) 0.1331(11) 1.2890(3)
O14B O 0.3718(4) 0.4736(7) 1.1650(4)
O19_2 O 0.2079(3) 0.0400(6) 0.8568(2)
O20_2 O 0.2702(2) 0.1334(5) 0.8189(2)
O20A O -0.2702(2) 0.6334(5) 0.6811(2)
O21C O 0.2985(3) 0.0126(6) 1.2332(3)
O22A O -0.2488(3) 0.8826(5) 0.7218(2)
O23C O 0.2548(3) 0.5748(6) 1.1890(3)
O24A O -0.1902(3) 0.5315(6) 0.7796(2)
O27B O 0.3062(3) 0.3202(6) 1.2325(2)
C49 C 0.6052(13) 0.239(3) 0.7830(17)
H25 H 0.6340 0.2387 0.7639
H26 H 0.6230 0.1959 0.8147
H27 H 0.5957 0.3243 0.7895
C50 C 0.5068(10) 0.206(2) 0.7001(10)
H28 H 0.4660 0.1727 0.6942
H29 H 0.5246 0.1717 0.6757
H30 H 0.5047 0.2964 0.6969
N2 N 0.5462(15) 0.171(2) 0.7528(11)
H41 H 0.5567 0.0896 0.7512
H42 H 0.5211 0.1730 0.7724
C51 C 0.1662(12) 0.802(3) 0.9354(14)
H31 H 0.1563 0.7435 0.9075
H32 H 0.1697 0.8853 0.9233
H33 H 0.1341 0.8000 0.9513
C52 C 0.2776(15) 0.864(2) 0.9963(10)
H34 H 0.2702 0.9272 0.9702
H35 H 0.3192 0.8341 1.0040
H36 H 0.2716 0.9005 1.0262
N1 N 0.2348(10) 0.7588(14) 0.9788(9)
H39 H 0.2270 0.7236 1.0058
H40 H 0.2530 0.6999 0.9648
O28 O 0.4644(12) 0.037(4) 0.7724(8)
O29 O 1.0012(11) 0.141(2) 0.4754(10)
O30 O 0.1099(14) 0.494(2) 0.0404(10)
O31 O 0.9811(8) 0.346(4) 0.3577(12)
loop_
_geom_bond_atom_site_label_1
_geom_bond_atom_site_label_2
_geom_bond_site_symmetry_1
_geom_bond_site_symmetry_2
C1 H1 1_555 1_555
C2 C17 1_555 1_555
C3 H2 1_555 1_555
C4 C11 1_555 1_555
C5 C3 1_555 1_555
C6 H3 1_555 1_555
C7 C23 1_555 1_555
C8 C11 1_555 1_555
C9 C5 1_555 1_555
C10 C6 1_555 1_555
C11 H4 1_555 1_555
C12 C19 1_555 1_555
C13 C16 1_555 1_555
C14 C4 1_555 1_555
C15 C10 1_555 1_555
C16 C6 1_555 1_555
C17 C19 1_555 1_555
C18 C24 1_555 1_555
C19 H5 1_555 1_555
C20 H6 1_555 1_555
C21 C12 1_555 1_555
C22 C29 1_555 1_555
C23 C20 1_555 1_555
C24 C20 1_555 1_555
C25 C5 1_555 1_555
H7 C25 1_555 1_555
C26 C3 1_555 1_555
C27 C4 1_555 1_555
H8 C27 1_555 1_555
C28 C8 1_555 1_555
C29 C31 1_555 1_555
C30 C12 1_555 1_555
H9 C30 1_555 1_555
C31 H10 1_555 1_555
C32 C16 1_555 1_555
H11 C32 1_555 1_555
C33 C10 1_555 1_555
H12 C33 1_555 1_555
C34 C17 1_555 1_555
H13 C34 1_555 1_555
C35 C30 1_555 1_555
H14 C35 1_555 1_555
C36 C32 1_555 1_555
H15 C36 1_555 1_555
C37 C31 1_555 1_555
C38 C26 1_555 1_555
H16 C38 1_555 1_555
C39 C24 1_555 1_555
H17 C39 1_555 1_555
C40 C37 1_555 1_555
C41 C25 1_555 1_555
H18 C41 1_555 1_555
C42 C1 1_555 1_555
H19 C42 1_555 1_555
C43 C26 1_555 1_555
C44 C1 1_555 1_555
H20 C44 1_555 1_555
C45 C39 1_555 1_555
H21 C45 1_555 1_555
C46 C8 1_555 1_555
H22 C46 1_555 1_555
C47 C27 1_555 1_555
H23 C47 1_555 1_555
C48 C23 1_555 1_555
H24 C48 1_555 1_555
C49 H25 1_555 1_555
H26 C49 1_555 1_555
H27 C49 1_555 1_555
C50 H28 1_555 1_555
H29 C50 1_555 1_555
H30 C50 1_555 1_555
C51 H31 1_555 1_555
H32 C51 1_555 1_555
H33 C51 1_555 1_555
C52 H34 1_555 1_555
H35 C52 1_555 1_555
H36 C52 1_555 1_555
Co1 O1 1_555 1_555
Co2 O2 1_555 1_555
Co3 O2 1_555 1_555
Co4 O4 1_555 1_555
Co5 O25 1_555 1_555
Co6 O8 1_555 1_555
H37 O2 1_555 1_555
H38 O27 1_555 1_555
N1 C51 1_555 1_555
H39 N1 1_555 1_555
H40 N1 1_555 1_555
N2 C49 1_555 1_555
H41 N2 1_555 1_555
H42 N2 1_555 1_555
O2 Co1 1_555 1_555
O3 C7 1_555 1_555
O4 C7 1_555 1_555
O5 C18 1_555 1_555
O6 C18 1_555 1_555
O7 C21 1_555 1_555
O8 C21 1_555 1_555
O9 C2 1_555 1_555
O10 C2 1_555 1_555
O11 C22 1_555 1_555
O12 C22 1_555 1_555
O13 C40 1_555 1_555
O14 C40 1_555 1_555
O15 C9 1_555 1_555
O16 C9 1_555 1_555
O17 C13 1_555 1_555
O18 C13 1_555 1_555
O19 C15 1_555 1_555
O20 C15 1_555 1_555
O21 C14 1_555 1_555
O22 C14 1_555 1_555
O23 C28 1_555 1_555
O24 C28 1_555 1_555
O25 C43 1_555 1_555
O26 C43 1_555 1_555
O27 Co4 1_555 1_555
Co2A O3 1_555 1_555
Co2_2 O19 1_555 1_555
Co3_2 O20 1_555 1_555
Co4B O7 1_555 1_555
Co4A O20 1_555 1_555
Co4A_2 O22 1_555 1_555
Co5C O12 1_555 1_555
Co5B O27 1_555 1_555
Co6B O14 1_555 1_555
Co6C O23 1_555 1_555
Co6B_2 O27 1_555 1_555
H38B O27B 1_555 1_555
O3A Co2 1_555 1_555
O7B Co4 1_555 1_555
O12C Co5 1_555 1_555
O14B Co6 1_555 1_555
O19_2 Co2 1_555 1_555
O20_2 Co3 1_555 1_555
O20A Co4 1_555 1_555
O21C Co5 1_555 1_555
O22A Co4 1_555 1_555
O23C Co6 1_555 1_555
O24A Co4 1_555 1_555
O27B Co5 1_555 1_555
C29 C42 1_555 1_555
C33 C36 1_555 1_555
C34 C35 1_555 1_555
C37 C44 1_555 1_555
C38 C41 1_555 1_555
C45 C48 1_555 1_555
C46 C47 1_555 1_555
C50 N2 1_555 1_555
C52 N1 1_555 1_555
Co1 O6 1_555 1_555
Co1 O10 1_555 1_555
Co1 O16 1_555 1_555
Co1 O17 1_555 1_555
Co2 O5 1_555 1_555
Co2 O9 1_555 1_555
Co3 O11 1_555 1_555
Co3 O15 1_555 1_555
Co3 O18 1_555 1_555
Co3 O22 1_555 1_555
Co5 O26 1_555 1_555
Co6 O27B 1_555 1_555
O21 Co5C 1_555 1_555
O24 Co4A 1_555 1_555
Co4B O27B 1_555 1_555
Co4A_2 O20_2 1_555 1_555

#END
