
#######################################################################
#
#                 Cambridge Crystallographic Data Centre
#                                CCDC 
#
#######################################################################
#
# If this CIF has been generated from an entry in the Cambridge 
# Structural Database, then it will include bibliographic, chemical, 
# crystal, experimental, refinement or atomic coordinate data resulting 
# from the CCDC's data processing and validation procedures.
#
#######################################################################

data_OREZAO
_chemical_formula_moiety         '(C36 H64 Ca1 Cu6 N6 O27 S6)n'
_symmetry_cell_setting           hexagonal
_symmetry_space_group_name_H-M   'P 63'
_symmetry_Int_Tables_number      173
_space_group_name_Hall           'P 6c'
loop_
_symmetry_equiv_pos_site_id
_symmetry_equiv_pos_as_xyz
1 x,y,z
2 -y,x-y,z
3 -x+y,-x,z
4 -x,-y,1/2+z
5 y,-x+y,1/2+z
6 x-y,x,1/2+z
_cell_length_a                   17.7992(16)
_cell_length_b                   17.7992(16)
_cell_length_c                   12.7145(16)
_cell_angle_alpha                90
_cell_angle_beta                 90
_cell_angle_gamma                120
_cell_volume                     3488.44
loop_
_atom_site_label
_atom_site_type_symbol
_atom_site_fract_x
_atom_site_fract_y
_atom_site_fract_z
Cu1 Cu 0.1368(3) 0.5538(2) -0.7338(2)
Cu2 Cu 0.1377(3) 0.5548(3) -0.99589(19)
Ca1 Ca 0.3333 0.6667 -0.8654(13)
O1 O 0.1767(7) 0.5340(6) -0.871(2)
N1 N 0.0888(15) 0.5951(16) -0.635(2)
N2 N -0.1016(13) 0.4016(13) -0.6106(18)
O2 O 0.2348(13) 0.6747(13) -0.7305(19)
O3 O 0.0232(11) 0.4481(11) -0.7170(18)
O4 O 0.2942(13) 0.8032(13) -0.6382(18)
O5 O -0.2401(14) 0.3245(15) -0.500(2)
O6 O -0.0199(15) 0.5610(15) -0.514(2)
O7 O -0.2829(21) 0.2019(15) -0.5733(18)
C1 C 0.2361(19) 0.724(2) -0.662(3)
C2 C 0.145(2) 0.695(2) -0.602(3)
H1 H 0.1532 0.7013 -0.5238
C3 C -0.0190(18) 0.4537(18) -0.640(2)
C4 C 0.021(2) 0.539(2) -0.583(3)
C5 C -0.225(2) 0.275(2) -0.569(3)
C6 C -0.1515(17) 0.3163(18) -0.637(2)
H2 H -0.1794 0.3215 -0.7031
C7 C 0.094(2) 0.738(3) -0.640(3)
H3 H 0.0369 0.7101 -0.6040
H4 H 0.1255 0.7997 -0.6187
C8 C 0.080(4) 0.733(4) -0.752(3)
H5 H 0.1351 0.7805 -0.7801
H6 H 0.0374 0.7532 -0.7611
C9 C 0.108(5) 0.753(4) -0.933(4)
H7 H 0.1082 0.7392 -1.0076
H8 H 0.1683 0.7857 -0.9076
H9 H 0.0802 0.7878 -0.9238
C10 C -0.0952 0.2769 -0.6832
H10 H -0.0490 0.3254 -0.7241
H11 H -0.1337 0.2343 -0.7363
C11 C -0.0459 0.2303 -0.6293
H12 H 0.0128 0.2820 -0.6247
H13 H -0.0426 0.1994 -0.6923
C12 C 0.026(7) 0.124(7) -0.612(8)
H14 H 0.0377 0.0874 -0.5651
H15 H 0.0807 0.1719 -0.6382
H16 H -0.0100 0.0895 -0.6708
S1 S 0.0457(13) 0.6461(13) -0.853(3)
S2 S -0.0330 0.1689 -0.5369
Cu1A Cu 0.4462(2) 0.5830(4) -0.7338(2)
Cu2A Cu 0.4452(3) 0.5829(4) -0.99589(19)
O1A O 0.4660(6) 0.6427(9) -0.871(2)
N1A N 0.4049(16) 0.4937(22) -0.635(2)
N2A N 0.5984(13) 0.4968(18) -0.6106(18)
O2A O 0.3253(13) 0.5601(18) -0.7305(19)
O3A O 0.5519(11) 0.5751(16) -0.7170(18)
O4A O 0.1968(13) 0.4910(18) -0.6382(18)
O5A O 0.6755(15) 0.4354(21) -0.500(2)
O6A O 0.4390(15) 0.4191(21) -0.514(2)
O7A O 0.7981(15) 0.5152(26) -0.5733(18)
C1A C 0.276(2) 0.5121(28) -0.662(3)
C2A C 0.305(2) 0.450(3) -0.602(3)
H1A H 0.2987 0.4519 -0.5238
C3A C 0.5463(18) 0.5273(25) -0.640(2)
C4A C 0.461(2) 0.482(3) -0.583(3)
C5A C 0.725(2) 0.500(3) -0.569(3)
C6A C 0.6837(18) 0.5322(25) -0.637(2)
H2A H 0.6785 0.4991 -0.7031
C7A C 0.262(3) 0.356(4) -0.640(3)
H3A H 0.2899 0.3268 -0.6040
H4A H 0.2003 0.3258 -0.6187
C8A C 0.267(4) 0.347(6) -0.752(3)
H5A H 0.2195 0.3546 -0.7801
H6A H 0.2468 0.2842 -0.7611
C9A C 0.247(4) 0.355(6) -0.933(4)
H7A H 0.2608 0.3690 -1.0076
H8A H 0.2143 0.3826 -0.9076
H9A H 0.2122 0.2924 -0.9238
C10A C 0.7231 0.6279 -0.6832
H10A H 0.6746 0.6256 -0.7241
H11A H 0.7657 0.6320 -0.7363
C11A C 0.7697 0.7238 -0.6293
H12A H 0.7180 0.7308 -0.6247
H13A H 0.8006 0.7580 -0.6923
C12A C 0.876(7) 0.902(10) -0.612(8)
H14A H 0.9126 0.9503 -0.5651
H15A H 0.8281 0.9088 -0.6382
H16A H 0.9105 0.9005 -0.6708
S1A S 0.3539(13) 0.3996(18) -0.853(3)
S2A S 0.8311 0.7981 -0.5369
Cu1B Cu 0.4170(4) 0.8632(3) -0.7338(2)
Cu2B Cu 0.4171(4) 0.8623(3) -0.99589(19)
O1B O 0.3573(9) 0.8233(7) -0.871(2)
N1B N 0.5063(22) 0.9112(15) -0.635(2)
N2B N 0.5032(18) 1.1016(13) -0.6106(18)
O2B O 0.4399(18) 0.7652(13) -0.7305(19)
O3B O 0.4249(16) 0.9768(11) -0.7170(18)
O4B O 0.5090(18) 0.7058(13) -0.6382(18)
O5B O 0.5646(21) 1.2401(14) -0.500(2)
O6B O 0.5809(21) 1.0199(15) -0.514(2)
O7B O 0.4848(26) 1.2829(21) -0.5733(18)
C1B C 0.4879(28) 0.7639(19) -0.662(3)
C2B C 0.550(3) 0.855(2) -0.602(3)
H1B H 0.5481 0.8468 -0.5238
C3B C 0.4727(25) 1.0190(18) -0.640(2)
C4B C 0.518(3) 0.979(2) -0.583(3)
C5B C 0.500(3) 1.225(2) -0.569(3)
C6B C 0.4678(25) 1.1515(17) -0.637(2)
H2B H 0.5009 1.1794 -0.7031
C7B C 0.644(4) 0.906(2) -0.640(3)
H3B H 0.6732 0.9631 -0.6040
H4B H 0.6742 0.8745 -0.6187
C8B C 0.653(6) 0.920(4) -0.752(3)
H5B H 0.6454 0.8649 -0.7801
H6B H 0.7158 0.9626 -0.7611
C9B C 0.645(6) 0.892(5) -0.933(4)
H7B H 0.6310 0.8918 -1.0076
H8B H 0.6174 0.8317 -0.9076
H9B H 0.7076 0.9198 -0.9238
C10B C 0.3721 1.0952 -0.6832
H10B H 0.3744 1.0490 -0.7241
H11B H 0.3680 1.1337 -0.7363
C11B C 0.2762 1.0459 -0.6293
H12B H 0.2692 0.9872 -0.6247
H13B H 0.2420 1.0426 -0.6923
C12B C 0.098(10) 0.974(7) -0.612(8)
H14B H 0.0497 0.9623 -0.5651
H15B H 0.0912 0.9193 -0.6382
H16B H 0.0995 1.0100 -0.6708
S1B S 0.6004(18) 0.9543(13) -0.853(3)
S2B S 0.2019 1.0330 -0.5369
Cu2C Cu -0.1377(3) 0.4452(3) -0.49589(19)
Cu2C_2 Cu 0.8623(3) 0.4452(3) -0.49589(19)
Cu2D Cu 0.5548(3) 0.4171(4) -0.49589(19)
Cu2D_2 Cu 0.5548(3) 1.4171(4) -0.49589(19)
Cu2E Cu -0.4171(4) 0.1377(3) -0.49589(19)
Cu2E_2 Cu 0.5829(4) 1.1377(3) -0.49589(19)
Ca1C Ca -0.3333 0.3333 -0.3654(13)
Ca1C_2 Ca 0.6667 0.3333 -0.3654(13)
Ca1C_3 Ca 0.6667 1.3333 -0.3654(13)
N2C N 0.1016(13) 0.5984(13) -1.1106(18)
N2D N 0.4016(13) 0.5032(18) -1.1106(18)
N2E N 0.4968(18) 0.8984(13) -1.1106(18)
O5C O 0.2401(14) 0.6755(15) -1.000(2)
O5D O 0.3245(15) 0.5646(21) -1.000(2)
O5E O 0.4354(21) 0.7599(14) -1.000(2)
O6C O 0.0199(15) 0.4390(15) -1.014(2)
O6D O 0.5610(15) 0.5809(21) -1.014(2)
O6E O 0.4191(21) 0.9801(15) -1.014(2)
O7C O 0.2829(21) 0.7981(15) -1.0733(18)
O7D O 0.2019(15) 0.4848(26) -1.0733(18)
O7E O 0.5152(26) 0.7171(21) -1.0733(18)
O8 O 0.321(2) 1.000(3) -0.851(5)
O10 O -0.3636(19) 1.243(2) 0.191(3)
O11 O 0.0000 1.0000 -1.021(15)
O12 O -0.171(3) 0.711(3) -0.787(5)
O13 O -0.130(7) 0.520(7) -0.800(9)
O15 O -0.086(4) 0.705(4) -0.629(6)
loop_
_geom_bond_atom_site_label_1
_geom_bond_atom_site_label_2
_geom_bond_site_symmetry_1
_geom_bond_site_symmetry_2
Cu1 O1 1_555 1_555
Cu2 O1 1_555 1_555
Ca1 O1 1_555 1_555
N1 Cu1 1_555 1_555
N2 C3 1_555 1_555
O2 Cu1 1_555 1_555
O3 Cu1 1_555 1_555
O4 C1 1_555 1_555
O5 C5 1_555 1_555
O6 C4 1_555 1_555
O7 C5 1_555 1_555
C1 O2 1_555 1_555
C2 N1 1_555 1_555
H1 C2 1_555 1_555
C3 O3 1_555 1_555
C4 N1 1_555 1_555
C5 C6 1_555 1_555
C6 N2 1_555 1_555
H2 C6 1_555 1_555
C7 C2 1_555 1_555
H3 C7 1_555 1_555
H4 C7 1_555 1_555
C8 C7 1_555 1_555
H5 C8 1_555 1_555
H6 C8 1_555 1_555
C9 H7 1_555 1_555
H8 C9 1_555 1_555
H9 C9 1_555 1_555
C10 C6 1_555 1_555
H10 C10 1_555 1_555
H11 C10 1_555 1_555
C11 C10 1_555 1_555
H12 C11 1_555 1_555
H13 C11 1_555 1_555
C12 H14 1_555 1_555
H15 C12 1_555 1_555
H16 C12 1_555 1_555
S1 C8 1_555 1_555
S2 C11 1_555 1_555
Cu1A O1A 1_555 1_555
Cu2A O1A 1_555 1_555
O1A Ca1 1_555 1_555
N1A Cu1A 1_555 1_555
N2A C3A 1_555 1_555
O2A Ca1 1_555 1_555
O3A Cu1A 1_555 1_555
O4A Cu1 1_555 1_555
O5A C5A 1_555 1_555
O6A C4A 1_555 1_555
O7A C5A 1_555 1_555
C1A O2A 1_555 1_555
C2A N1A 1_555 1_555
H1A C2A 1_555 1_555
C3A O3A 1_555 1_555
C4A N1A 1_555 1_555
C5A C6A 1_555 1_555
C6A N2A 1_555 1_555
H2A C6A 1_555 1_555
C7A C2A 1_555 1_555
H3A C7A 1_555 1_555
H4A C7A 1_555 1_555
C8A C7A 1_555 1_555
H5A C8A 1_555 1_555
H6A C8A 1_555 1_555
C9A H7A 1_555 1_555
H8A C9A 1_555 1_555
H9A C9A 1_555 1_555
C10A C6A 1_555 1_555
H10A C10A 1_555 1_555
H11A C10A 1_555 1_555
C11A C10A 1_555 1_555
H12A C11A 1_555 1_555
H13A C11A 1_555 1_555
C12A H14A 1_555 1_555
H15A C12A 1_555 1_555
H16A C12A 1_555 1_555
S1A C8A 1_555 1_555
S2A C11A 1_555 1_555
Cu1B O4 1_555 1_555
Cu2B O1B 1_555 1_555
O1B Ca1 1_555 1_555
N1B Cu1B 1_555 1_555
N2B C3B 1_555 1_555
O2B Ca1 1_555 1_555
O3B Cu1B 1_555 1_555
O4B Cu1A 1_555 1_555
O5B C5B 1_555 1_555
O6B C4B 1_555 1_555
O7B C5B 1_555 1_555
C1B O2B 1_555 1_555
C2B N1B 1_555 1_555
H1B C2B 1_555 1_555
C3B O3B 1_555 1_555
C4B N1B 1_555 1_555
C5B C6B 1_555 1_555
C6B N2B 1_555 1_555
H2B C6B 1_555 1_555
C7B C2B 1_555 1_555
H3B C7B 1_555 1_555
H4B C7B 1_555 1_555
C8B C7B 1_555 1_555
H5B C8B 1_555 1_555
H6B C8B 1_555 1_555
C9B H7B 1_555 1_555
H8B C9B 1_555 1_555
H9B C9B 1_555 1_555
C10B C6B 1_555 1_555
H10B C10B 1_555 1_555
H11B C10B 1_555 1_555
C11B C10B 1_555 1_555
H12B C11B 1_555 1_555
H13B C11B 1_555 1_555
C12B H14B 1_555 1_555
H15B C12B 1_555 1_555
H16B C12B 1_555 1_555
S1B C8B 1_555 1_555
S2B C11B 1_555 1_555
Cu2C N2 1_555 1_555
Cu2C_2 O7A 1_555 1_555
Cu2D N2A 1_555 1_555
Cu2D_2 O7B 1_555 1_555
Cu2E O7 1_555 1_555
Cu2E_2 N2B 1_555 1_555
Ca1C O5 1_555 1_555
Ca1C_2 O5A 1_555 1_555
Ca1C_3 O5B 1_555 1_555
N2C Cu2 1_555 1_555
N2D Cu2A 1_555 1_555
N2E Cu2B 1_555 1_555
O5C Cu2 1_555 1_555
O5D Ca1 1_555 1_555
O5E Ca1 1_555 1_555
O6C Cu2 1_555 1_555
O6D Cu2A 1_555 1_555
O6E Cu2B 1_555 1_555
O7C Cu2B 1_555 1_555
O7D Cu2 1_555 1_555
O7E Cu2A 1_555 1_555
Ca1 O2 1_555 1_555
Ca1 O5C 1_555 1_555
O5 Cu2C 1_555 1_555
O6 Cu2C 1_555 1_555
C1 C2 1_555 1_555
C3 C4 1_555 1_555
C9 S1 1_555 1_555
C12 S2 1_555 1_555
Cu1A O2A 1_555 1_555
Cu2A O5D 1_555 1_555
O4A C1A 1_555 1_555
O5A Cu2D 1_555 1_555
O6A Cu2D 1_555 1_555
C1A C2A 1_555 1_555
C3A C4A 1_555 1_555
C9A S1A 1_555 1_555
C12A S2A 1_555 1_555
Cu1B O1B 1_555 1_555
Cu1B O2B 1_555 1_555
Cu2B O5E 1_555 1_555
O4B C1B 1_555 1_555
O5B Cu2E_2 1_555 1_555
O6B Cu2E_2 1_555 1_555
C1B C2B 1_555 1_555
C3B C4B 1_555 1_555
C9B S1B 1_555 1_555
C12B S2B 1_555 1_555

#END
