
#######################################################################
#
#                 Cambridge Crystallographic Data Centre
#                                CCDC 
#
#######################################################################
#
# If this CIF has been generated from an entry in the Cambridge 
# Structural Database, then it will include bibliographic, chemical, 
# crystal, experimental, refinement or atomic coordinate data resulting 
# from the CCDC's data processing and validation procedures.
#
#######################################################################

data_CASWIE
_chemical_formula_moiety         'Al1 O21 P9 Zn6'
_symmetry_cell_setting           hexagonal
_symmetry_space_group_name_H-M   'P 63 m c'
_symmetry_Int_Tables_number      186
_space_group_name_Hall           'P 6c -2c'
loop_
_symmetry_equiv_pos_site_id
_symmetry_equiv_pos_as_xyz
1 x,y,z
2 -y,x-y,z
3 -x+y,-x,z
4 -x,-y,1/2+z
5 y,-x+y,1/2+z
6 x-y,x,1/2+z
7 -y,-x,z
8 -x+y,y,z
9 x,x-y,z
10 y,x,1/2+z
11 x-y,-y,1/2+z
12 -x,-x+y,1/2+z
_cell_length_a                   15.269(2)
_cell_length_b                   15.269(2)
_cell_length_c                   10.336(3)
_cell_angle_alpha                90
_cell_angle_beta                 90
_cell_angle_gamma                120
_cell_volume                     2086.91
loop_
_atom_site_label
_atom_site_type_symbol
_atom_site_fract_x
_atom_site_fract_y
_atom_site_fract_z
_atom_site_U_iso_or_equiv
_atom_site_thermal_displace_type
Zn1 Zn 0.086024(8) 0.543012(6) 0.999052(19) 0.0316 Uani
Al1 Al 0.3333 0.6667 0.77877(6) 0.0144 Uani
P1 P 0.235460(34) 0.470920(17) 0.98042(5) 0.0312 Uani
O1 O 0.05766(7) 0.52883(5) 0.81528(12) 0.0321 Uani
O2 O 0.04752(7) 0.52376(5) 0.57061(12) 0.0446 Uani
O3 O 0.21700(6) 0.60850(4) 0.67146(11) 0.0222 Uani
O4 O 0.15562(7) 0.47295(11) 1.06114(11) 0.0770 Uani
O5 O 0.27444(10) 0.54888(4) 0.87825(12) 0.0411 Uani
P2 P 0.10779(5) 0.52766(3) 0.68915(6) 0.0207 Uani
Zn1A Zn 0.456988(6) 0.543012(10) 0.999052(19) 0.0316 Uani
Zn1B Zn 0.456988(10) 0.913976(8) 0.999052(19) 0.0316 Uani
Zn1C Zn -0.086024(8) 0.456988(6) 0.499052(19) 0.0316 Uani
Zn1D Zn 0.543012(6) 0.456988(10) 0.499052(19) 0.0316 Uani
Zn1E Zn 0.543012(10) 1.086024(8) 0.499052(19) 0.0316 Uani
P1B P 0.235460(38) 0.764540(34) 0.98042(5) 0.0312 Uani
P1A P 0.529080(17) 0.764540(38) 0.98042(5) 0.0312 Uani
O1A O 0.47117(5) 0.52883(9) 0.81528(12) 0.0321 Uani
O1B O 0.47117(9) 0.94234(7) 0.81528(12) 0.0321 Uani
O2A O 0.47624(5) 0.52376(9) 0.57061(12) 0.0446 Uani
O2B O 0.47624(9) 0.95248(7) 0.57061(12) 0.0446 Uani
O2C O -0.04752(7) 0.47624(5) 1.07061(12) 0.0446 Uani
O2D O 0.52376(5) 0.47624(9) 1.07061(12) 0.0446 Uani
O2E O 0.52376(9) 1.04752(7) 1.07061(12) 0.0446 Uani
O3A O 0.39150(4) 0.60850(7) 0.67146(11) 0.0222 Uani
O3B O 0.39150(7) 0.78300(6) 0.67146(11) 0.0222 Uani
O4G O 0.31733(13) 0.47295(11) 1.06114(11) 0.0770 Uani
O4B O 0.31733(13) 0.84438(7) 1.06114(11) 0.0770 Uani
O4H O 0.15562(7) 0.68267(13) 1.06114(11) 0.0770 Uani
O4A O 0.52705(11) 0.68267(13) 1.06114(11) 0.0770 Uani
O4F O 0.52705(11) 0.84438(7) 1.06114(11) 0.0770 Uani
O5B O 0.27444(11) 0.72556(10) 0.87825(12) 0.0411 Uani
O5A O 0.45112(4) 0.72556(11) 0.87825(12) 0.0411 Uani
P2H P 0.10779(5) 0.58013(6) 0.68915(6) 0.0207 Uani
P2A P 0.47234(3) 0.58013(6) 0.68915(6) 0.0207 Uani
P2G P 0.41987(6) 0.52766(3) 0.68915(6) 0.0207 Uani
P2B P 0.41987(6) 0.89221(5) 0.68915(6) 0.0207 Uani
P2F P 0.47234(3) 0.89221(5) 0.68915(6) 0.0207 Uani
loop_
_atom_site_aniso_label
_atom_site_aniso_U_11
_atom_site_aniso_U_22
_atom_site_aniso_U_33
_atom_site_aniso_U_23
_atom_site_aniso_U_13
_atom_site_aniso_U_12
Zn1 0.0176 0.04705 0.02027 0.0018 0.0036 0.0088
Al1 0.01575(18) 0.01575(18) 0.0118(3) 0.000 0.000 0.00787(9)
P1 0.02787(14) 0.0306(2) 0.0362(2) 0.01935(18) 0.00967(9) 0.01531(10)
O1 0.0164 0.0457 0.0244 0.0025 0.005 0.0082
O2 0.0198 0.0759 0.0193 -0.0041 -0.0082 0.0099
O3 0.0192 0.0266 0.0183 -0.0019 -0.0038 0.0096
O4 0.0508 0.162 0.0447 0.059 0.0316 0.073
O5 0.0491(6) 0.0323(7) 0.0361(7) 0.0227(5) 0.0113(3) 0.0161(4)
P2 0.01407 0.0264 0.0172 -0.00223 -0.00099 0.00687
Zn1A 0.04705 0.04705 0.02027 0.0018 -0.0018 0.03825
Zn1B 0.04705 0.0176 0.02027 -0.0036 -0.0018 0.0088
Zn1C 0.0176 0.04705 0.02027 -0.0018 -0.0036 0.0088
Zn1D 0.04705(4) 0.04705(4) 0.02027(8) -0.00180(4) 0.00180(4) 0.03825(4)
Zn1E 0.04705 0.0176 0.02027 0.0036 0.0018 0.0088
P1B 0.02785 0.02787 0.0362 -0.00967 0.00968 0.01256
P1A 0.0306 0.02785 0.0362 -0.00968 -0.01935 0.01529
O1A 0.0457(2) 0.0457(2) 0.0244(6) 0.0025(3) -0.0025(3) 0.0375(3)
O1B 0.0457 0.0164 0.0244 -0.005 -0.0025 0.0082
O2A 0.0759(3) 0.0759(3) 0.0193(6) -0.0041(3) 0.0041(3) 0.0660(3)
O2B 0.0759 0.0198 0.0193 0.0082 0.0041 0.0099
O2C 0.0198 0.0759 0.0193 0.0041 0.0082 0.0099
O2D 0.0759 0.0759 0.0193 0.0041 -0.0041 0.066
O2E 0.0759 0.0198 0.0193 -0.0082 -0.0041 0.0099
O3A 0.0266(2) 0.0266(2) 0.0183(4) -0.0019(2) 0.0019(2) 0.0170(3)
O3B 0.0266 0.0192 0.0183 0.0038 0.0019 0.0096
O4G 0.0668(4) 0.1620(6) 0.0447(5) 0.0590(4) 0.0274(4) 0.0890(3)
O4B 0.0668 0.0508 0.0447 -0.0316 0.0274 -0.0222
O4H 0.0508 0.0668 0.0447 -0.0274 0.0316 -0.0222
O4A 0.162 0.0668 0.0447 -0.0274 -0.059 0.089
O4F 0.162 0.0508 0.0447 -0.0316 -0.059 0.073
O5B 0.0492 0.0491 0.0361 -0.0113 0.0114 0.033
O5A 0.0323 0.0492 0.0361 -0.0114 -0.0227 0.0162
P2H 0.01407 0.02673 0.0172 0.00124 -0.00099 0.0072
P2A 0.02640(17) 0.02673(17) 0.0172(2) 0.00124(19) 0.00223(17) 0.01953(12)
P2G 0.02673 0.0264 0.0172 -0.00223 -0.00124 0.01953
P2B 0.02673 0.01407 0.0172 0.00099 -0.00124 0.0072
P2F 0.0264 0.01407 0.0172 0.00099 0.00223 0.00687
loop_
_geom_bond_atom_site_label_1
_geom_bond_atom_site_label_2
_geom_bond_site_symmetry_1
_geom_bond_site_symmetry_2
Zn1 O1 1_555 1_555
Al1 O3 1_555 1_555
P1 O4 1_555 1_555
O1 P2 1_555 1_555
O2 P2 1_555 1_555
O3 P2 1_555 1_555
O4 Zn1 1_555 1_555
O5 Al1 1_555 1_555
P2 P2H 1_555 1_555
Zn1A O1A 1_555 1_555
Zn1B O1B 1_555 1_555
Zn1C O2 1_555 1_555
Zn1D O2A 1_555 1_555
Zn1E O2B 1_555 1_555
P1B O4B 1_555 1_555
P1A O4A 1_555 1_555
O1A P2A 1_555 1_555
O1B P2B 1_555 1_555
O2A P2A 1_555 1_555
O2B P2B 1_555 1_555
O2C Zn1 1_555 1_555
O2D Zn1A 1_555 1_555
O2E Zn1B 1_555 1_555
O3A Al1 1_555 1_555
O3B Al1 1_555 1_555
O4G P1 1_555 1_555
O4B Zn1B 1_555 1_555
O4H Zn1 1_555 1_555
O4A Zn1A 1_555 1_555
O4F Zn1B 1_555 1_555
O5B Al1 1_555 1_555
O5A Al1 1_555 1_555
P2H O1 1_555 1_555
P2A O3A 1_555 1_555
P2G O1A 1_555 1_555
P2B O3B 1_555 1_555
P2F O1B 1_555 1_555
P1 O5 1_555 1_555
O2 P2H 1_555 1_555
O3 P2H 1_555 1_555
Zn1A O4G 1_555 1_555
P1B O4H 1_555 1_555
P1B O5B 1_555 1_555
P1A O4F 1_555 1_555
P1A O5A 1_555 1_555
O2A P2G 1_555 1_555
O2B P2F 1_555 1_555
O3A P2G 1_555 1_555
O3B P2F 1_555 1_555
P2A P2G 1_555 1_555
P2B P2F 1_555 1_555

#END
