
#######################################################################
#
#                 Cambridge Crystallographic Data Centre
#                                CCDC 
#
#######################################################################
#
# If this CIF has been generated from an entry in the Cambridge 
# Structural Database, then it will include bibliographic, chemical, 
# crystal, experimental, refinement or atomic coordinate data resulting 
# from the CCDC's data processing and validation procedures.
#
#######################################################################

data_XUZVUL
_chemical_formula_moiety         '(C16 H15 Ag2 N3 O6)n'
_symmetry_cell_setting           hexagonal
_symmetry_space_group_name_H-M   'P 61 2 2'
_symmetry_Int_Tables_number      178
_space_group_name_Hall           'P 61 2 (0 0 5)'
loop_
_symmetry_equiv_pos_site_id
_symmetry_equiv_pos_as_xyz
1 x,y,z
2 x-y,x,1/6+z
3 -y,x-y,1/3+z
4 -x,-y,1/2+z
5 -x+y,-x,2/3+z
6 y,-x+y,5/6+z
7 x-y,-y,-z
8 -x,-x+y,2/3-z
9 y,x,1/3-z
10 -y,-x,5/6-z
11 -x+y,y,1/2-z
12 x,x-y,1/6-z
_cell_length_a                   16.5478(10)
_cell_length_b                   16.5478(12)
_cell_length_c                   12.4353(15)
_cell_angle_alpha                90
_cell_angle_beta                 90
_cell_angle_gamma                120
_cell_volume                     2948.95
loop_
_atom_site_label
_atom_site_type_symbol
_atom_site_fract_x
_atom_site_fract_y
_atom_site_fract_z
Ag1 Ag 0.65222(3) 0.34778(3) 0.4167
Ag2 Ag 0.39649(3) 0.60351(3) 0.4167
N1 N 0.5740(3) 0.4260(3) 0.4167
N2 N 0.4784(3) 0.5216(3) 0.4167
N3 N -0.0000 0.1821(7) 0.3333
O1 O 0.1880(4) 0.5971(4) 0.3056(4)
O2 O 0.2418(4) 0.5132(4) 0.3862(5)
O3 O 0.0697(6) 0.1817(6) 0.3663(11)
C1 C -0.0000 0.4350(6) 0.3333
H1 H -0.0000 0.4924 0.3333
C2 C 0.0839(5) 0.4346(5) 0.3410(6)
C3 C 0.0832(6) 0.3518(6) 0.3437(7)
H2 H 0.1397 0.3507 0.3525
C4 C -0.0000 0.2704(7) 0.3333
C5 C 0.1788(5) 0.5239(5) 0.3451(6)
C6 C 0.3338(6) 0.3847(6) 0.4755(8)
H3 H 0.3287 0.3876 0.5538
H4 H 0.3023 0.3193 0.4525
H5 H 0.3045 0.4167 0.4408
C7 C 0.4375(8) 0.2843(7) 0.4711(8)
H6 H 0.4063 0.2461 0.4078
H7 H 0.3913 0.2713 0.5277
H8 H 0.4843 0.2694 0.4974
C8 C 0.4820(6) 0.3809(6) 0.4427(5)
C9 C 0.4342(6) 0.4311(6) 0.4445(6)
C6I C 0.6153(6) 0.6662(6) 0.3578(8)
H3I H 0.6124 0.6713 0.2795
H4I H 0.6807 0.6977 0.3808
H5I H 0.5833 0.6955 0.3925
C7I C 0.7157(7) 0.5625(8) 0.3622(8)
H6I H 0.7539 0.5937 0.4255
H7I H 0.7287 0.6087 0.3056
H8I H 0.7306 0.5157 0.3359
C8I C 0.6191(6) 0.5180(6) 0.3906(5)
C9I C 0.5689(6) 0.5658(6) 0.3888(6)
O1G O -0.1880(4) 0.4091(6) 0.3611(4)
O2G O -0.2418(4) 0.2714(6) 0.2805(5)
O3G O -0.0697(6) 0.1120(8) 0.3004(11)
C2G C -0.0839(5) 0.3507(7) 0.3257(6)
C3G C -0.0832(6) 0.2686(8) 0.3230(7)
H2G H -0.1397 0.2110 0.3142
C5G C -0.1788(5) 0.3451(7) 0.3216(6)
Ag1_2 Ag -0.34778(3) 0.34778(3) 0.4167
Ag1A Ag 0.30444(4) 0.65222(3) 0.5834
Ag1E Ag 0.34778(3) 0.69556(4) 0.2500
Ag2A Ag 0.79298(4) 0.39649(3) 0.5834
Ag2E Ag -0.39649(3) 0.20702(4) 0.2500
Ag2E_2 Ag 0.60351(3) 0.20702(4) 0.2500
O1A O 0.5909(6) 0.1880(4) 0.4723(4)
O1G_2 O 0.8120(4) 0.4091(6) 0.3611(4)
O2I O 0.4868(4) 0.7582(4) 0.4471(5)
loop_
_geom_bond_atom_site_label_1
_geom_bond_atom_site_label_2
_geom_bond_site_symmetry_1
_geom_bond_site_symmetry_2
Ag1 N1 1_555 1_555
Ag2 N2 1_555 1_555
N1 C8 1_555 1_555
N2 C9 1_555 1_555
N3 O3 1_555 1_555
O1 C5 1_555 1_555
O2 Ag2 1_555 1_555
C1 H1 1_555 1_555
C2 C1 1_555 1_555
C3 C2 1_555 1_555
H2 C3 1_555 1_555
C4 N3 1_555 1_555
C5 O2 1_555 1_555
C6 H3 1_555 1_555
H4 C6 1_555 1_555
H5 C6 1_555 1_555
C7 H6 1_555 1_555
H7 C7 1_555 1_555
H8 C7 1_555 1_555
C8 C7 1_555 1_555
C9 C6 1_555 1_555
C6I H3I 1_555 1_555
H4I C6I 1_555 1_555
H5I C6I 1_555 1_555
C7I H6I 1_555 1_555
H7I C7I 1_555 1_555
H8I C7I 1_555 1_555
C8I N1 1_555 1_555
C9I N2 1_555 1_555
O1G C5G 1_555 1_555
O2G C5G 1_555 1_555
O3G N3 1_555 1_555
C2G C1 1_555 1_555
C3G C4 1_555 1_555
H2G C3G 1_555 1_555
C5G C2G 1_555 1_555
Ag1_2 O1G 1_555 1_555
Ag1A Ag2 1_555 1_555
Ag1E Ag2 1_555 1_555
Ag2A Ag1 1_555 1_555
Ag2E O2G 1_555 1_555
Ag2E_2 Ag1 1_555 1_555
O1A Ag1 1_555 1_555
O1G_2 Ag1 1_555 1_555
O2I Ag2 1_555 1_555
O1 Ag1E 1_555 1_555
C2 C5 1_555 1_555
C3 C4 1_555 1_555
C8 C9 1_555 1_555
C6I C9I 1_555 1_555
C7I C8I 1_555 1_555
C8I C9I 1_555 1_555
C2G C3G 1_555 1_555
Ag1_2 Ag2E 1_555 1_555

#END
