
#######################################################################
#
#                 Cambridge Crystallographic Data Centre
#                                CCDC 
#
#######################################################################
#
# If this CIF has been generated from an entry in the Cambridge 
# Structural Database, then it will include bibliographic, chemical, 
# crystal, experimental, refinement or atomic coordinate data resulting 
# from the CCDC's data processing and validation procedures.
#
#######################################################################

data_NATFAS
_chemical_formula_moiety         '(C46 H32 N3 O32 Zn6 1-)n'
_symmetry_cell_setting           orthorhombic
_symmetry_space_group_name_H-M   'P n m a'
_symmetry_Int_Tables_number      62
_space_group_name_Hall           '-P 2ac 2n'
loop_
_symmetry_equiv_pos_site_id
_symmetry_equiv_pos_as_xyz
1 x,y,z
2 1/2-x,-y,1/2+z
3 1/2+x,1/2-y,1/2-z
4 -x,1/2+y,-z
5 -x,-y,-z
6 1/2+x,y,1/2-z
7 1/2-x,1/2+y,1/2+z
8 x,1/2-y,z
_cell_length_a                   14.3929(6)
_cell_length_b                   17.8516(8)
_cell_length_c                   26.7111(11)
_cell_angle_alpha                90
_cell_angle_beta                 90
_cell_angle_gamma                90
_cell_volume                     6863.05
loop_
_atom_site_label
_atom_site_type_symbol
_atom_site_fract_x
_atom_site_fract_y
_atom_site_fract_z
Zn1 Zn 0.56416(4) 0.47132(3) 0.70404(2)
Zn2 Zn 0.75417(4) 0.53592(3) 0.34199(2)
Zn3 Zn 0.86657(4) 0.45782(3) 0.44410(2)
O1 O 0.5426(3) 0.4966(3) 0.63409(13)
O2 O 0.4912(4) 0.3845(3) 0.61425(17)
O3 O 0.6656(3) 0.4959(3) 0.39668(13)
O4 O 0.8042(3) 0.4368(2) 0.32442(13)
O5 O 0.8822(3) 0.3876(2) 0.38887(14)
O6 O 0.7412(3) 0.4753(3) 0.46711(16)
O7 O 0.9193(3) 0.4013(2) 0.49837(13)
O8 O 1.0578(3) 0.4200(3) 0.4658(2)
O9 O 1.0827(3) 0.4471(2) 0.57753(16)
O10 O 1.2008(3) 0.3848(2) 0.61193(14)
O11 O 0.9463(3) 0.43349(19) 0.24126(13)
O12 O 0.8134(3) 0.4038(3) 0.20426(17)
O13 O 0.4806(2) 0.39065(19) 0.73022(13)
O14 O 0.3556(2) 0.44775(19) 0.70171(12)
O15 O 0.1605(2) 0.4225(2) 0.71520(14)
O16 O 0.1743(2) 0.4021(2) 0.79566(13)
C1 C 0.5095(4) 0.4507(4) 0.6041(2)
C2 C 0.5013(4) 0.4772(4) 0.55040(19)
C3 C 0.5793(4) 0.4749(4) 0.52131(19)
H1 H 0.6346 0.4591 0.5359
C4 C 0.5804(4) 0.4950(4) 0.47105(18)
C5 C 0.6690(4) 0.4880(3) 0.44238(19)
C6 C 0.8510(3) 0.3874(3) 0.34508(19)
C7 C 1.0053(4) 0.3871(3) 0.4939(2)
C8 C 1.0375(3) 0.3177(3) 0.5214(2)
C9 C 1.0961(4) 0.3175(3) 0.56182(19)
C10 C 1.1302(4) 0.3884(3) 0.5853(2)
C11 C 1.1255(5) 0.2500 0.5821(3)
H2 H 1.1652 0.2500 0.6096
C12 C 1.0087(5) 0.2500 0.5011(3)
H3 H 0.9694 0.2500 0.4735
C13 C 0.8687(3) 0.3180(3) 0.31526(17)
C14 C 0.8747(3) 0.3183(3) 0.26298(18)
C15 C 0.8763(4) 0.3907(3) 0.23377(19)
C16 C 0.8795(5) 0.2500 0.2374(3)
H4 H 0.8859 0.2500 0.2028
C17 C 0.8669(5) 0.2500 0.3402(3)
H5 H 0.8644 0.2500 0.3750
C18 C 0.3962(3) 0.3901(3) 0.71842(16)
C19 C 0.3434(3) 0.3184(3) 0.72577(17)
C20 C 0.2519(3) 0.3178(3) 0.74116(17)
C21 C 0.1931(3) 0.3869(3) 0.75098(19)
C22 C 0.2070(5) 0.2500 0.7499(3)
H6 H 0.1462 0.2500 0.7618
C23 C 0.3898(4) 0.2500 0.7197(2)
H7 H 0.4526 0.2500 0.7114
O1D O 0.4574(3) 0.5034(3) 0.36591(13)
O2D O 0.5088(4) 0.6155(3) 0.38575(17)
O3D O 0.3344(3) 0.5041(3) 0.60332(13)
O6D O 0.2588(3) 0.5247(3) 0.53289(16)
C1D C 0.4905(4) 0.5493(4) 0.3959(2)
C2D C 0.4987(4) 0.5228(4) 0.44960(19)
C3D C 0.4207(4) 0.5251(4) 0.47869(19)
H1D H 0.3654 0.5409 0.4641
C4D C 0.4196(4) 0.5050(4) 0.52895(18)
C5D C 0.3310(4) 0.5120(3) 0.55762(19)
O4G O 0.8042(3) 0.0632(2) 0.32442(13)
O5G O 0.8822(3) 0.1124(2) 0.38887(14)
O11G O 0.9463(3) 0.06651(19) 0.24126(13)
O12G O 0.8134(3) 0.0962(3) 0.20426(17)
C6G C 0.8510(3) 0.1126(3) 0.34508(19)
C13G C 0.8687(3) 0.1820(3) 0.31526(17)
C14G C 0.8747(3) 0.1817(3) 0.26298(18)
C15G C 0.8763(4) 0.1093(3) 0.23377(19)
O7G O 0.9193(3) 0.0987(2) 0.49837(13)
O8G O 1.0578(3) 0.0800(3) 0.4658(2)
O9G O 1.0827(3) 0.0529(2) 0.57753(16)
O10G O 1.2008(3) 0.1152(2) 0.61193(14)
C7G C 1.0053(4) 0.1129(3) 0.4939(2)
C8G C 1.0375(3) 0.1823(3) 0.5214(2)
C9G C 1.0961(4) 0.1825(3) 0.56182(19)
C10G C 1.1302(4) 0.1116(3) 0.5853(2)
O13G O 0.4806(2) 0.10935(19) 0.73022(13)
O14G O 0.3556(2) 0.05225(19) 0.70171(12)
O15G O 0.1605(2) 0.0775(2) 0.71520(14)
O16G O 0.1743(2) 0.0979(2) 0.79566(13)
C18G C 0.3962(3) 0.1099(3) 0.71842(16)
C19G C 0.3434(3) 0.1816(3) 0.72577(17)
C20G C 0.2519(3) 0.1822(3) 0.74116(17)
C21G C 0.1931(3) 0.1131(3) 0.75098(19)
Zn1D Zn 0.43584(4) 0.52868(3) 0.29596(2)
Zn2D Zn 0.24583(4) 0.46408(3) 0.65801(2)
Zn3D Zn 0.13343(4) 0.54218(3) 0.55590(2)
Zn1A Zn 0.93584(4) 0.52868(3) 0.20404(2)
Zn1B Zn 0.06416(4) 0.02868(3) 0.79596(2)
Zn1E Zn 0.06416(4) 0.47132(3) 0.79596(2)
Zn1F Zn 0.93584(4) -0.02868(3) 0.20404(2)
Zn1G Zn 0.56416(4) 0.02868(3) 0.70404(2)
Zn2C Zn 0.24583(4) 0.03592(3) 0.65801(2)
Zn2C_2 Zn 1.24583(4) 0.03592(3) 0.65801(2)
Zn2D_2 Zn 1.24583(4) 0.46408(3) 0.65801(2)
Zn2G Zn 0.75417(4) -0.03592(3) 0.34199(2)
Zn3C Zn 1.13343(4) -0.04218(3) 0.55590(2)
Zn3D_2 Zn 1.13343(4) 0.54218(3) 0.55590(2)
Zn3G Zn 0.86657(4) 0.04218(3) 0.44410(2)
O4D O 0.1958(3) 0.5632(2) 0.67558(13)
O5D O 0.1178(3) 0.6124(2) 0.61113(14)
O7D O 0.0807(3) 0.5987(2) 0.50163(13)
O9_2 O 0.0827(3) 0.4471(2) 0.57753(16)
O9D O 0.9173(3) 0.5529(2) 0.42247(16)
O10_2 O 0.2008(3) 0.3848(2) 0.61193(14)
O10D O 0.7992(3) 0.6152(2) 0.38807(14)
O11A O 0.5537(3) 0.56651(19) 0.74126(13)
O11E O 0.4463(3) 0.43349(19) 0.25874(13)
O13D O 0.5194(2) 0.60935(19) 0.26978(13)
O14D O 0.6444(2) 0.55225(19) 0.29829(12)
O15D O 0.8395(2) 0.5775(2) 0.28480(14)
O16A O 0.3257(2) 0.5979(2) 0.29566(13)
O16E O 0.6743(2) 0.4021(2) 0.70434(13)
N1 N 1.1115(6) 0.5231(8) 0.3846(4)
H8 H 1.0963 0.5714 0.3845
H9 H 1.0787 0.5015 0.4089
C24 C 1.2043(9) 0.5180(14) 0.3975(5)
H10 H 1.2293 0.4690 0.3914
H11 H 1.2095 0.5297 0.4325
H12 H 1.2383 0.5543 0.3783
C25 C 1.0813(12) 0.4920(15) 0.3384(5)
H13 H 1.1056 0.5220 0.3116
H14 H 1.0147 0.4914 0.3367
H15 H 1.1045 0.4418 0.3355
N2 N 0.443(2) 0.2500 0.5581(11)
H16 H 0.4715 0.2095 0.5703
C26 C 0.351(2) 0.2500 0.5712(11)
C27 C 0.448(3) 0.2500 0.5036(12)
H16G H 0.4715 0.2905 0.5703
N3 N 0.635(2) 0.2500 0.2573(11)
H17 H 0.6937 0.2500 0.2463
H18 H 0.5959 0.2500 0.2316
C28 C 0.6147(10) 0.1834(11) 0.2972(6)
H19 H 0.6451 0.1954 0.3282
H20 H 0.6405 0.1381 0.2838
H21 H 0.5494 0.1767 0.3030
C28G C 0.6147(10) 0.3166(11) 0.2972(6)
H19G H 0.6451 0.3046 0.3282
H20G H 0.6405 0.3619 0.2838
H21G H 0.5494 0.3233 0.3030
loop_
_geom_bond_atom_site_label_1
_geom_bond_atom_site_label_2
_geom_bond_site_symmetry_1
_geom_bond_site_symmetry_2
Zn1 O1 1_555 1_555
Zn2 O3 1_555 1_555
Zn3 O5 1_555 1_555
O1 C1 1_555 1_555
O2 C1 1_555 1_555
O3 C5 1_555 1_555
O4 Zn2 1_555 1_555
O5 C6 1_555 1_555
O6 Zn3 1_555 1_555
O7 Zn3 1_555 1_555
O8 C7 1_555 1_555
O9 C10 1_555 1_555
O10 C10 1_555 1_555
O11 C15 1_555 1_555
O12 C15 1_555 1_555
O13 Zn1 1_555 1_555
O14 C18 1_555 1_555
O15 C21 1_555 1_555
O16 C21 1_555 1_555
C1 C2 1_555 1_555
C2 C3 1_555 1_555
C3 H1 1_555 1_555
C4 C3 1_555 1_555
C5 O6 1_555 1_555
C6 O4 1_555 1_555
C7 O7 1_555 1_555
C8 C7 1_555 1_555
C9 C8 1_555 1_555
C10 C9 1_555 1_555
C11 C9 1_555 1_555
H2 C11 1_555 1_555
C12 C8 1_555 1_555
H3 C12 1_555 1_555
C13 C6 1_555 1_555
C14 C13 1_555 1_555
C15 C14 1_555 1_555
C16 C14 1_555 1_555
H4 C16 1_555 1_555
C17 C13 1_555 1_555
H5 C17 1_555 1_555
C18 O13 1_555 1_555
C19 C18 1_555 1_555
C20 C19 1_555 1_555
C21 C20 1_555 1_555
C22 C20 1_555 1_555
H6 C22 1_555 1_555
C23 C19 1_555 1_555
H7 C23 1_555 1_555
N1 H8 1_555 1_555
H9 N1 1_555 1_555
C24 N1 1_555 1_555
H10 C24 1_555 1_555
H11 C24 1_555 1_555
H12 C24 1_555 1_555
C25 N1 1_555 1_555
H13 C25 1_555 1_555
H14 C25 1_555 1_555
H15 C25 1_555 1_555
N2 H16 1_555 1_555
C26 N2 1_555 1_555
C27 N2 1_555 1_555
N3 H17 1_555 1_555
H18 N3 1_555 1_555
C28 N3 1_555 1_555
H19 C28 1_555 1_555
H20 C28 1_555 1_555
H21 C28 1_555 1_555
O1D C1D 1_555 1_555
O2D C1D 1_555 1_555
O3D C5D 1_555 1_555
O6D C5D 1_555 1_555
C1D C2D 1_555 1_555
C2D C4 1_555 1_555
C3D C2D 1_555 1_555
H1D C3D 1_555 1_555
C4D C2 1_555 1_555
C5D C4D 1_555 1_555
O4G C6G 1_555 1_555
O5G C6G 1_555 1_555
O11G C15G 1_555 1_555
O12G C15G 1_555 1_555
C6G C13G 1_555 1_555
C13G C17 1_555 1_555
C14G C16 1_555 1_555
C15G C14G 1_555 1_555
O7G C7G 1_555 1_555
O8G C7G 1_555 1_555
O9G C10G 1_555 1_555
O10G C10G 1_555 1_555
C7G C8G 1_555 1_555
C8G C12 1_555 1_555
C9G C11 1_555 1_555
C10G C9G 1_555 1_555
O13G C18G 1_555 1_555
O14G C18G 1_555 1_555
O15G C21G 1_555 1_555
O16G C21G 1_555 1_555
C18G C19G 1_555 1_555
C19G C23 1_555 1_555
C20G C22 1_555 1_555
C21G C20G 1_555 1_555
Zn1D O1D 1_555 1_555
Zn2D O14 1_555 1_555
Zn3D O6D 1_555 1_555
Zn1A O11 1_555 1_555
Zn1B O16G 1_555 1_555
Zn1E O16 1_555 1_555
Zn1F O11G 1_555 1_555
Zn1G O13G 1_555 1_555
Zn2C O14G 1_555 1_555
Zn2C_2 O10G 1_555 1_555
Zn2D_2 O10 1_555 1_555
Zn2G O4G 1_555 1_555
Zn3C O9G 1_555 1_555
Zn3D_2 O9 1_555 1_555
Zn3G O5G 1_555 1_555
O4D Zn2D 1_555 1_555
O5D Zn3D 1_555 1_555
O7D Zn3D 1_555 1_555
O9_2 Zn3D 1_555 1_555
O9D Zn3 1_555 1_555
O10_2 Zn2D 1_555 1_555
O10D Zn2 1_555 1_555
O11A Zn1 1_555 1_555
O11E Zn1D 1_555 1_555
O13D Zn1D 1_555 1_555
O14D Zn2 1_555 1_555
O15D Zn2 1_555 1_555
O16A Zn1D 1_555 1_555
O16E Zn1 1_555 1_555
H16G N2 1_555 1_555
C28G N3 1_555 1_555
H19G C28G 1_555 1_555
H20G C28G 1_555 1_555
H21G C28G 1_555 1_555
O15 Zn2D 1_555 1_555
C4 C5 1_555 1_555
O3D Zn2D 1_555 1_555
C3D C4D 1_555 1_555
C13G C14G 1_555 1_555
O7G Zn3G 1_555 1_555
C8G C9G 1_555 1_555
O15G Zn2C 1_555 1_555
C19G C20G 1_555 1_555

#END
