
#######################################################################
#
#                 Cambridge Crystallographic Data Centre
#                                CCDC 
#
#######################################################################
#
# If this CIF has been generated from an entry in the Cambridge 
# Structural Database, then it will include bibliographic, chemical, 
# crystal, experimental, refinement or atomic coordinate data resulting 
# from the CCDC's data processing and validation procedures.
#
#######################################################################

data_ITIPAE
_chemical_formula_moiety         '(C15 H19 N1 O25 Zn6)n'
_symmetry_cell_setting           monoclinic
_symmetry_space_group_name_H-M   'P 21/c'
_symmetry_Int_Tables_number      14
_space_group_name_Hall           '-P 2ybc'
loop_
_symmetry_equiv_pos_site_id
_symmetry_equiv_pos_as_xyz
1 x,y,z
2 -x,1/2+y,1/2-z
3 -x,-y,-z
4 x,1/2-y,1/2+z
_cell_length_a                   11.418(2)
_cell_length_b                   10.037(2)
_cell_length_c                   18.546(5)
_cell_angle_alpha                90
_cell_angle_beta                 126.68(2)
_cell_angle_gamma                90
_cell_volume                     1704.55
loop_
_atom_site_label
_atom_site_type_symbol
_atom_site_fract_x
_atom_site_fract_y
_atom_site_fract_z
Zn1 Zn 0.93538(4) 0.87823(3) 0.69467(2)
Zn2 Zn 0.87689(3) 0.57108(3) 0.63188(2)
Zn3 Zn 1.0000 0.5000 0.5000
Zn4 Zn 0.5000 0.5000 0.5000
O1 O 0.7123(2) 0.8632(2) 0.60792(15)
O2 O 0.6679(2) 0.64702(19) 0.56966(13)
O3 O 0.9469(2) 0.68691(18) 0.74942(12)
O4 O 1.0594(3) 0.5454(2) 0.86547(14)
O5 O 0.9583(2) 0.74787(19) 0.61432(13)
O6 O 0.9883(3) 0.7050(2) 0.50759(15)
O7 O 0.8360(2) 0.4739(2) 0.52201(13)
O8 O 0.6071(3) 0.4049(2) 0.45542(17)
O9 O 0.8430(2) 0.41099(19) 0.69197(13)
O10 O 0.6036(3) 0.3732(2) 0.61061(16)
O11 O 1.0840(2) 0.4798(2) 0.71334(13)
O12 O 1.1751(3) 0.4875(3) 0.63607(15)
C1 C 0.6305(3) 0.7661(3) 0.5692(2)
H1 H 0.5308 0.7823 0.5361
C2 C 1.0121(4) 0.6566(3) 0.8314(2)
H2 H 1.0257 0.7247 0.8697
C3 C 0.9830(4) 0.7808(3) 0.5581(2)
H3 H 0.9987 0.8708 0.5549
C4 C 0.7226(3) 0.4063(3) 0.4646(2)
H4 H 0.7281 0.3526 0.4258
C5 C 0.7309(4) 0.3506(3) 0.6738(2)
H5 H 0.7468 0.2820 0.7124
C6 C 1.1848(3) 0.4700(3) 0.7044(2)
H6 H 1.2766 0.4468 0.7556
Zn1B Zn 0.06462(4) 0.12177(3) 0.30533(2)
Zn2B Zn 0.12311(3) 0.42892(3) 0.36812(2)
O1B O 0.2877(2) 0.1368(2) 0.39208(15)
O2B O 0.3321(2) 0.35298(19) 0.43034(13)
O3B O 0.0531(2) 0.31309(18) 0.25058(12)
O4B O -0.0594(3) 0.4546(2) 0.13453(14)
O5B O 0.0417(2) 0.25213(19) 0.38568(13)
O6B O 0.0117(3) 0.2950(2) 0.49241(15)
O7B O 0.1640(2) 0.5261(2) 0.47799(13)
O8B O 0.3929(3) 0.5951(2) 0.54458(17)
O9B O 0.1570(2) 0.58901(19) 0.30803(13)
O10B O 0.3964(3) 0.6268(2) 0.38939(16)
O11B O -0.0840(2) 0.5202(2) 0.28666(13)
O12B O -0.1751(3) 0.5125(3) 0.36393(15)
C1B C 0.3695(3) 0.2339(3) 0.4308(2)
H1B H 0.4692 0.2177 0.4639
C2B C -0.0121(4) 0.3434(3) 0.1686(2)
H2B H -0.0257 0.2753 0.1303
C3B C 0.0170(4) 0.2192(3) 0.4419(2)
H3B H 0.0013 0.1292 0.4451
C4B C 0.2774(3) 0.5937(3) 0.5354(2)
H4B H 0.2719 0.6474 0.5742
C5B C 0.2691(4) 0.6494(3) 0.3262(2)
H5B H 0.2532 0.7180 0.2876
C6B C -0.1848(3) 0.5300(3) 0.2956(2)
H6B H -0.2766 0.5532 0.2444
Zn1A Zn 1.06462(4) 0.37823(3) 0.80533(2)
Zn1C Zn -0.06462(4) 0.62177(3) 0.19467(2)
Zn3_2 Zn 0.0000 0.5000 0.5000
O4A O 0.9406(3) 1.0454(2) 0.63453(14)
O4C O 0.0594(3) -0.0454(2) 0.36547(14)
O6B_2 O 1.0117(3) 0.2950(2) 0.49241(15)
O7B_2 O 1.1640(2) 0.5261(2) 0.47799(13)
O9A O 1.1570(2) 0.91099(19) 0.80803(13)
O9C O -0.1570(2) 0.08901(19) 0.19197(13)
O11A O 0.9160(2) 0.9798(2) 0.78666(13)
O11C O 0.0840(2) 0.0202(2) 0.21334(13)
O12B_2 O 0.8249(3) 0.5125(3) 0.36393(15)
O13 O 1.7017(9) 0.3611(7) 0.8341(5)
N1 N 1.6272(6) 0.5683(6) 0.8389(3)
C7 C 1.5934(16) 0.631(2) 0.8839(10)
H7 H 1.5722 0.7221 0.8645
H8 H 1.5090 0.5904 0.8743
H9 H 1.6736 0.6274 0.9466
C8 C 1.650(2) 0.6189(17) 0.7743(9)
H10 H 1.6254 0.7117 0.7634
H11 H 1.7510 0.6077 0.7981
H12 H 1.5897 0.5704 0.7189
C9 C 1.657(2) 0.4541(15) 0.8540(16)
H13 H 1.6404 0.4250 0.8949
loop_
_geom_bond_atom_site_label_1
_geom_bond_atom_site_label_2
_geom_bond_site_symmetry_1
_geom_bond_site_symmetry_2
Zn1 O1 1_555 1_555
Zn2 O2 1_555 1_555
Zn3 O6 1_555 1_555
Zn4 O2 1_555 1_555
O1 C1 1_555 1_555
O2 C1 1_555 1_555
O3 Zn1 1_555 1_555
O4 C2 1_555 1_555
O5 Zn1 1_555 1_555
O6 C3 1_555 1_555
O7 Zn2 1_555 1_555
O8 Zn4 1_555 1_555
O9 Zn2 1_555 1_555
O10 Zn4 1_555 1_555
O11 Zn2 1_555 1_555
O12 Zn3 1_555 1_555
C1 H1 1_555 1_555
C2 O3 1_555 1_555
H2 C2 1_555 1_555
C3 O5 1_555 1_555
H3 C3 1_555 1_555
C4 O7 1_555 1_555
H4 C4 1_555 1_555
C5 O9 1_555 1_555
H5 C5 1_555 1_555
C6 O11 1_555 1_555
H6 C6 1_555 1_555
O13 C9 1_555 1_555
N1 C7 1_555 1_555
C7 H7 1_555 1_555
H8 C7 1_555 1_555
H9 C7 1_555 1_555
C8 N1 1_555 1_555
H10 C8 1_555 1_555
H11 C8 1_555 1_555
H12 C8 1_555 1_555
C9 N1 1_555 1_555
H13 C9 1_555 1_555
Zn1B O1B 1_555 1_555
Zn2B O2B 1_555 1_555
O1B C1B 1_555 1_555
O2B Zn4 1_555 1_555
O3B Zn1B 1_555 1_555
O4B C2B 1_555 1_555
O5B Zn1B 1_555 1_555
O6B C3B 1_555 1_555
O7B Zn2B 1_555 1_555
O8B Zn4 1_555 1_555
O9B Zn2B 1_555 1_555
O10B Zn4 1_555 1_555
O11B Zn2B 1_555 1_555
O12B C6B 1_555 1_555
C1B O2B 1_555 1_555
H1B C1B 1_555 1_555
C2B O3B 1_555 1_555
H2B C2B 1_555 1_555
C3B O5B 1_555 1_555
H3B C3B 1_555 1_555
C4B O7B 1_555 1_555
H4B C4B 1_555 1_555
C5B O9B 1_555 1_555
H5B C5B 1_555 1_555
C6B O11B 1_555 1_555
H6B C6B 1_555 1_555
Zn1A O4 1_555 1_555
Zn1C O4B 1_555 1_555
Zn3_2 O6B 1_555 1_555
O4A Zn1 1_555 1_555
O4C Zn1B 1_555 1_555
O6B_2 Zn3 1_555 1_555
O7B_2 Zn3 1_555 1_555
O9A Zn1 1_555 1_555
O9C Zn1B 1_555 1_555
O11A Zn1 1_555 1_555
O11C Zn1B 1_555 1_555
O12B_2 Zn3 1_555 1_555
Zn2 O3 1_555 1_555
Zn2 O5 1_555 1_555
Zn3 O7 1_555 1_555
O8 C4 1_555 1_555
O9 Zn1A 1_555 1_555
O10 C5 1_555 1_555
O11 Zn1A 1_555 1_555
O12 C6 1_555 1_555
Zn2B O3B 1_555 1_555
Zn2B O5B 1_555 1_555
O7B Zn3_2 1_555 1_555
O8B C4B 1_555 1_555
O9B Zn1C 1_555 1_555
O10B C5B 1_555 1_555
O11B Zn1C 1_555 1_555
O12B Zn3_2 1_555 1_555

#END
