
#######################################################################
#
#                 Cambridge Crystallographic Data Centre
#                                CCDC 
#
#######################################################################
#
# If this CIF has been generated from an entry in the Cambridge 
# Structural Database, then it will include bibliographic, chemical, 
# crystal, experimental, refinement or atomic coordinate data resulting 
# from the CCDC's data processing and validation procedures.
#
#######################################################################

data_GEPDEM
_chemical_formula_moiety         '(C16 H20 N6 O13 Zn2)n'
_symmetry_cell_setting           monoclinic
_symmetry_space_group_name_H-M   'C 2/c'
_symmetry_Int_Tables_number      15
_space_group_name_Hall           '-C 2yc'
loop_
_symmetry_equiv_pos_site_id
_symmetry_equiv_pos_as_xyz
1 x,y,z
2 -x,y,1/2-z
3 1/2+x,1/2+y,z
4 1/2-x,1/2+y,1/2-z
5 -x,-y,-z
6 x,-y,1/2+z
7 1/2-x,1/2-y,-z
8 1/2+x,1/2-y,1/2+z
_cell_length_a                   16.411(3)
_cell_length_b                   9.8620(16)
_cell_length_c                   16.667(3)
_cell_angle_alpha                90
_cell_angle_beta                 111.678(3)
_cell_angle_gamma                90
_cell_volume                     2506.69
loop_
_atom_site_label
_atom_site_type_symbol
_atom_site_fract_x
_atom_site_fract_y
_atom_site_fract_z
_atom_site_U_iso_or_equiv
_atom_site_thermal_displace_type
Zn1 Zn 0.21723(8) 0.22288(10) 0.32210(6) 0.0459 Uani
O1 O 0.2490(4) 0.2459(6) 0.2190(3) 0.0428 Uani
O2 O 0.1136(4) 0.2869(9) 0.1298(4) 0.0682 Uani
O3 O 0.2454(5) 0.5289(6) 0.1460(4) 0.0491 Uani
O4 O 0.3125(5) 0.6050(7) 0.0620(4) 0.0549 Uani
O5 O 0.3307(4) 0.3066(7) 0.4124(4) 0.0494 Uani
O6 O 0.0850(7) 0.1142(15) 0.2443(8) 0.1229 Uani
N1 N 0.0857(4) 0.5854(6) 0.3049(4) 0.0306 Uani
N2 N 0.0672(4) 0.5347(8) 0.3723(4) 0.0407 Uani
N3 N 0.1465(4) 0.3867(6) 0.3304(4) 0.0303 Uani
C1 C 0.0490(5) 0.7134(8) 0.2646(6) 0.0413 Uani
H1 H 0.0659 0.7292 0.2154 0.0490 Uiso
H2 H 0.0727 0.7865 0.3055 0.0490 Uiso
C2 C 0.1050(5) 0.4166(9) 0.3852(5) 0.0376 Uani
H3 H 0.1037 0.3575 0.4282 0.0450 Uiso
C3 C 0.1327(5) 0.4950(7) 0.2806(5) 0.0298 Uani
H4 H 0.1526 0.5066 0.2356 0.0360 Uiso
C4 C 0.2238(5) 0.2661(8) 0.0708(5) 0.0308 Uani
C5 C 0.2625(5) 0.3745(8) 0.0439(4) 0.0302 Uani
C6 C 0.2117(5) 0.1440(8) 0.0272(5) 0.0328 Uani
H5 H 0.1858 0.0723 0.0452 0.0390 Uiso
C7 C 0.1927(5) 0.2703(8) 0.1460(5) 0.0341 Uani
C8 C 0.2752(5) 0.5106(8) 0.0862(5) 0.0351 Uani
H6 H 0.354(5) 0.368(6) 0.450(5) 0.0420 Uiso
H7 H 0.365(5) 0.242(5) 0.424(5) 0.0420 Uiso
H10 H 0.062(6) 0.040(7) 0.203(5) 0.0420 Uiso
H11 H 0.043(5) 0.173(8) 0.229(7) 0.0420 Uiso
Zn1F Zn 0.28277(8) 0.27712(10) -0.32210(6) 0.0459 Uani
Zn1C Zn 0.28277(8) 0.72288(10) 0.17790(6) 0.0459 Uani
Zn1E Zn 0.21723(8) -0.22288(10) -0.17790(6) 0.0459 Uani
Zn1A Zn -0.21723(8) 0.22288(10) 0.17790(6) 0.0459 Uani
O1F O 0.2510(4) 0.2541(6) -0.2190(3) 0.0428 Uani
O2F O 0.3864(4) 0.2131(9) -0.1298(4) 0.0682 Uani
O3F O 0.2546(5) -0.0289(6) -0.1460(4) 0.0491 Uani
O3C O 0.2546(5) 0.0289(6) 0.3540(4) 0.0491 Uani
O3E O 0.2454(5) 0.4711(6) -0.3540(4) 0.0491 Uani
O4F O 0.1875(5) -0.1050(7) -0.0620(4) 0.0549 Uani
O4C O 0.1875(5) 0.1050(7) 0.4380(4) 0.0549 Uani
O4E O 0.3125(5) 0.3950(7) -0.4380(4) 0.0549 Uani
O5F O 0.1693(4) 0.1934(7) -0.4124(4) 0.0494 Uani
O6F O 0.4150(7) 0.3858(15) -0.2443(8) 0.1229 Uani
N1A N -0.0857(4) 0.5854(6) 0.1951(4) 0.0306 Uani
N2A N -0.0672(4) 0.5347(8) 0.1277(4) 0.0407 Uani
N3A N -0.1465(4) 0.3867(6) 0.1696(4) 0.0303 Uani
N3F N 0.3535(4) 0.1133(6) -0.3304(4) 0.0303 Uani
C1A C -0.0490(5) 0.7134(8) 0.2354(6) 0.0413 Uani
H1A H -0.0659 0.7292 0.2846 0.0490 Uiso
H2A H -0.0727 0.7865 0.1945 0.0490 Uiso
C2A C -0.1050(5) 0.4166(9) 0.1148(5) 0.0376 Uani
H3A H -0.1037 0.3575 0.0718 0.0450 Uiso
C3A C -0.1327(5) 0.4950(7) 0.2194(5) 0.0298 Uani
H4A H -0.1526 0.5066 0.2644 0.0360 Uiso
C4F C 0.2762(5) 0.2339(8) -0.0708(5) 0.0308 Uani
C5F C 0.2375(5) 0.1255(8) -0.0439(4) 0.0302 Uani
C6F C 0.2883(5) 0.3560(8) -0.0272(5) 0.0328 Uani
H5F H 0.3142 0.4277 -0.0452 0.0390 Uiso
C7F C 0.3073(5) 0.2297(8) -0.1460(5) 0.0341 Uani
C8F C 0.2248(5) -0.0106(8) -0.0862(5) 0.0351 Uani
H6F H 0.146(5) 0.132(6) -0.450(5) 0.0420 Uiso
H7F H 0.135(5) 0.258(5) -0.424(5) 0.0420 Uiso
H10F H 0.438(6) 0.460(7) -0.203(5) 0.0420 Uiso
H11F H 0.457(5) 0.327(8) -0.229(7) 0.0420 Uiso
O7 O 0.4879(5) 0.1923(12) 0.4711(5) 0.0979 Uani
H8 H 0.517(5) 0.199(9) 0.524(3) 0.0420 Uiso
H9 H 0.516(5) 0.172(9) 0.440(5) 0.0420 Uiso
loop_
_atom_site_aniso_label
_atom_site_aniso_U_11
_atom_site_aniso_U_22
_atom_site_aniso_U_33
_atom_site_aniso_U_23
_atom_site_aniso_U_13
_atom_site_aniso_U_12
Zn1 0.0718(8) 0.0440(7) 0.0325(6) 0.0170(4) 0.0318(5) 0.0360(6)
O1 0.058(4) 0.054(4) 0.024(3) 0.016(2) 0.024(3) 0.024(3)
O2 0.047(4) 0.124(7) 0.044(4) -0.009(4) 0.029(3) 0.005(4)
O3 0.084(5) 0.038(3) 0.037(3) -0.006(3) 0.036(3) 0.000(3)
O4 0.077(5) 0.053(4) 0.041(3) -0.011(3) 0.029(3) -0.020(4)
O5 0.052(4) 0.053(4) 0.045(4) 0.003(3) 0.020(3) 0.015(3)
O6 0.081(7) 0.165(13) 0.120(9) -0.029(9) 0.034(7) -0.029(8)
N1 0.025(3) 0.031(3) 0.035(3) -0.001(3) 0.010(3) 0.001(3)
N2 0.037(4) 0.053(4) 0.036(4) 0.001(3) 0.018(3) 0.015(3)
N3 0.033(3) 0.033(3) 0.028(3) 0.005(3) 0.015(3) 0.009(3)
C1 0.033(4) 0.025(4) 0.059(6) -0.001(4) 0.009(4) 0.006(3)
C2 0.042(4) 0.045(5) 0.032(4) 0.012(3) 0.021(4) 0.015(4)
C3 0.029(4) 0.029(4) 0.029(4) 0.000(3) 0.008(3) 0.005(3)
C4 0.034(4) 0.042(4) 0.019(3) 0.007(3) 0.013(3) 0.015(3)
C5 0.032(4) 0.041(4) 0.019(3) 0.005(3) 0.011(3) 0.012(3)
C6 0.038 0.039 0.028 0.005 0.02 0.002
C7 0.037(4) 0.042(5) 0.029(4) 0.005(3) 0.019(3) 0.013(4)
C8 0.046(5) 0.037(4) 0.021(4) 0.000(3) 0.011(3) 0.008(4)
Zn1F 0.0718 0.044 0.0325 0.017 0.0318 0.036
Zn1C 0.0718 0.044 0.0325 -0.017 0.0318 -0.036
Zn1E 0.0718 0.044 0.0325 -0.017 0.0318 -0.036
Zn1A 0.0718 0.044 0.0325 -0.017 0.0318 -0.036
O1F 0.058 0.054 0.024 0.016 0.024 0.024
O2F 0.047 0.124 0.044 -0.009 0.029 0.005
O3F 0.084 0.038 0.037 -0.006 0.036 0
O3C 0.084 0.038 0.037 0.006 0.036 0
O3E 0.084 0.038 0.037 0.006 0.036 0
O4F 0.077 0.053 0.041 -0.011 0.029 -0.02
O4C 0.077 0.053 0.041 0.011 0.029 0.02
O4E 0.077 0.053 0.041 0.011 0.029 0.02
O5F 0.052 0.053 0.045 0.003 0.02 0.015
O6F 0.081 0.165 0.12 -0.029 0.034 -0.029
N1A 0.025 0.031 0.035 0.001 0.01 -0.001
N2A 0.037 0.053 0.036 -0.001 0.018 -0.015
N3A 0.033 0.033 0.028 -0.005 0.015 -0.009
N3F 0.033 0.033 0.028 0.005 0.015 0.009
C1A 0.033 0.025 0.059 0.001 0.009 -0.006
C2A 0.042 0.045 0.032 -0.012 0.021 -0.015
C3A 0.029 0.029 0.029 0 0.008 -0.005
C4F 0.034 0.042 0.019 0.007 0.013 0.015
C5F 0.032 0.041 0.019 0.005 0.011 0.012
C6F 0.038(4) 0.039(4) 0.028(4) 0.005(3) 0.020(3) 0.002(3)
C7F 0.037 0.042 0.029 0.005 0.019 0.013
C8F 0.046 0.037 0.021 0 0.011 0.008
O7 0.057(5) 0.174(10) 0.050(5) -0.031(5) 0.005(4) 0.057(6)
loop_
_geom_bond_atom_site_label_1
_geom_bond_atom_site_label_2
_geom_bond_site_symmetry_1
_geom_bond_site_symmetry_2
Zn1 O1 1_555 1_555
O1 C7 1_555 1_555
O2 C7 1_555 1_555
O3 C8 1_555 1_555
O4 C8 1_555 1_555
O5 Zn1 1_555 1_555
O6 Zn1 1_555 1_555
O7 H8 1_555 1_555
N1 N2 1_555 1_555
N2 C2 1_555 1_555
N3 Zn1 1_555 1_555
C1 N1 1_555 1_555
H1 C1 1_555 1_555
H2 C1 1_555 1_555
C2 N3 1_555 1_555
H3 C2 1_555 1_555
C3 N1 1_555 1_555
H4 C3 1_555 1_555
C4 C5 1_555 1_555
C5 C8 1_555 1_555
C6 C4 1_555 1_555
H5 C6 1_555 1_555
C7 C4 1_555 1_555
H6 O5 1_555 1_555
H7 O5 1_555 1_555
H9 O7 1_555 1_555
H10 O6 1_555 1_555
H11 O6 1_555 1_555
Zn1F O1F 1_555 1_555
Zn1C O3 1_555 1_555
Zn1E O3F 1_555 1_555
Zn1A N3A 1_555 1_555
O1F C7F 1_555 1_555
O2F C7F 1_555 1_555
O3F C8F 1_555 1_555
O3C Zn1 1_555 1_555
O3E Zn1F 1_555 1_555
O4F Zn1E 1_555 1_555
O4C Zn1 1_555 1_555
O4E Zn1F 1_555 1_555
O5F Zn1F 1_555 1_555
O6F Zn1F 1_555 1_555
N1A N2A 1_555 1_555
N2A C2A 1_555 1_555
N3A C2A 1_555 1_555
N3F Zn1F 1_555 1_555
C1A C1 1_555 1_555
H1A C1A 1_555 1_555
H2A C1A 1_555 1_555
C2A H3A 1_555 1_555
C3A N1A 1_555 1_555
H4A C3A 1_555 1_555
C4F C5F 1_555 1_555
C5F C6 1_555 1_555
C6F C5 1_555 1_555
H5F C6F 1_555 1_555
C7F C4F 1_555 1_555
C8F O4F 1_555 1_555
H6F O5F 1_555 1_555
H7F O5F 1_555 1_555
H10F O6F 1_555 1_555
H11F O6F 1_555 1_555
O4 Zn1C 1_555 1_555
N3 C3 1_555 1_555
N1A C1A 1_555 1_555
N3A C3A 1_555 1_555
C4F C6F 1_555 1_555
C5F C8F 1_555 1_555

#END
