
#######################################################################
#
#                 Cambridge Crystallographic Data Centre
#                                CCDC 
#
#######################################################################
#
# If this CIF has been generated from an entry in the Cambridge 
# Structural Database, then it will include bibliographic, chemical, 
# crystal, experimental, refinement or atomic coordinate data resulting 
# from the CCDC's data processing and validation procedures.
#
#######################################################################

data_COGKEP
_chemical_formula_moiety         'C5 Co1 N2 O12 P4 Zn1'
_symmetry_cell_setting           rhombohedral
_symmetry_space_group_name_H-M   'R -3'
_symmetry_Int_Tables_number      148
_space_group_name_Hall           '-R 3'
loop_
_symmetry_equiv_pos_site_id
_symmetry_equiv_pos_as_xyz
1 x,y,z
2 -y,x-y,z
3 -x+y,-x,z
4 2/3+x,1/3+y,1/3+z
5 2/3-y,1/3+x-y,1/3+z
6 2/3-x+y,1/3-x,1/3+z
7 1/3+x,2/3+y,2/3+z
8 1/3-y,2/3+x-y,2/3+z
9 1/3-x+y,2/3-x,2/3+z
10 -x,-y,-z
11 y,-x+y,-z
12 x-y,x,-z
13 1/3-x,2/3-y,2/3-z
14 1/3+y,2/3-x+y,2/3-z
15 1/3+x-y,2/3+x,2/3-z
16 2/3-x,1/3-y,1/3-z
17 2/3+y,1/3-x+y,1/3-z
18 2/3+x-y,1/3+x,1/3-z
_cell_length_a                   13.5393(8)
_cell_length_b                   13.5393(8)
_cell_length_c                   15.0443(10)
_cell_angle_alpha                90
_cell_angle_beta                 90
_cell_angle_gamma                120
_cell_volume                     2388.33
loop_
_atom_site_label
_atom_site_type_symbol
_atom_site_fract_x
_atom_site_fract_y
_atom_site_fract_z
_atom_site_U_iso_or_equiv
_atom_site_thermal_displace_type
Zn1 Zn 0.08880(6) 0.63793(6) 0.07900(5) 0.0195 Uani
Co1 Co 0.3333 0.6667 0.1667 0.0169 Uani
P1 P 0.12850(12) 0.44093(14) 0.05675(11) 0.0167 Uani
O1 O 0.1862(3) 0.5665(4) 0.0871(3) 0.0217 Uani
O2 O 0.1942(5) 0.7823(6) 0.0270(5) 0.0462 Uani
O3 O 0.0336(5) 0.6416(4) 0.1990(3) 0.0411 Uani
O4 O -0.0547(5) 0.5735(6) 0.0238(4) 0.0551 Uani
P1B P 0.31243(18) 0.87150(12) 0.05675(11) 0.0167 Uani
P1P P 0.10760(14) 0.64576(18) 0.27658(11) 0.0167 Uani
P1I P -0.12850(12) 0.55907(14) -0.05675(11) 0.0167 Uani
O1A O 0.4335(4) 0.6197(5) 0.0871(3) 0.0217 Uani
O1B O 0.3803(5) 0.8138(3) 0.0871(3) 0.0217 Uani
O1P O 0.2332(4) 0.7136(5) 0.2462(3) 0.0217 Uani
O1Q O 0.2864(5) 0.5195(3) 0.2462(3) 0.0217 Uani
O1O O 0.4805(3) 0.7668(4) 0.2462(3) 0.0217 Uani
O2A O 0.2177(6) 0.4119(8) 0.0270(5) 0.0462 Uani
O3Q O 0.0587(6) 0.3669(5) 0.1343(3) 0.0411 Uani
O4I O 0.0547(5) 0.4265(6) -0.0238(4) 0.0551 Uani
N1 N 0.3333 0.1667 0.1667 0.1087 Uani
N2 N 0.0000 0.0000 0.163(3) 0.1853 Uani
C1 C 0.1211(8) 0.091(4) 0.191(3) 0.1681 Uani
C2 C 0.2123(8) 0.104(4) 0.1271(16) 0.1411 Uani
C1A C -0.091(4) 0.0301(41) 0.191(3) 0.1681 Uani
C1B C -0.0301(41) -0.1211(8) 0.191(3) 0.1681 Uani
C2O C 0.4544(8) 0.229(4) 0.2062(16) 0.1411 Uani
loop_
_atom_site_aniso_label
_atom_site_aniso_U_11
_atom_site_aniso_U_22
_atom_site_aniso_U_33
_atom_site_aniso_U_23
_atom_site_aniso_U_13
_atom_site_aniso_U_12
Zn1 0.0126(4) 0.0227(5) 0.0237(5) 0.0021(3) -0.0034(3) 0.0092(3)
Co1 0.0067(6) 0.0067(6) 0.0372(12) 0.000 0.000 0.0033(3)
P1 0.0123(7) 0.0189(8) 0.0159(8) -0.0046(6) -0.0051(5) 0.0056(6)
O1 0.010(2) 0.011(2) 0.044(3) -0.0011(18) -0.0048(18) 0.0051(17)
O2 0.032 0.025 0.064 0.019 -0.026 0.001
O3 0.025 0.083 0.022 -0.009 -0.005 0.032
O4 0.018 0.082 0.04 0.01 -0.02 0.006
P1B 0.02 0.0123 0.0159 0.0051 0.0005 0.0067
P1P 0.0189 0.02 0.0159 -0.0005 0.0046 0.0133
P1I 0.0123 0.0189 0.0159 -0.0046 -0.0051 0.0056
O1A 0.011 0.0108 0.044 -0.0037 0.0011 0.0059
O1B 0.0108 0.01 0.044 0.0048 0.0037 0.0049
O1P 0.011 0.0108 0.044 -0.0037 0.0011 0.0059
O1Q 0.0108 0.01 0.044 0.0048 0.0037 0.0049
O1O 0.01 0.011 0.044 -0.0011 -0.0048 0.0051
O2A 0.025(3) 0.055(4) 0.064(4) -0.045(3) -0.019(3) 0.024(3)
O3Q 0.044(3) 0.025(3) 0.022(3) 0.005(2) -0.004(2) -0.007(2)
O4I 0.018(3) 0.082(5) 0.040(3) 0.010(3) -0.020(2) 0.006(3)
N1 0.128(10) 0.102(10) 0.110(10) 0.014(7) 0.005(8) 0.068(8)
N2 0.182(8) 0.182(8) 0.192(11) 0.000 0.000 0.091(4)
C1 0.166(10) 0.166(10) 0.167(10) -0.003(7) 0.003(7) 0.079(7)
C2 0.148(10) 0.136(10) 0.138(10) 0.004(7) 0.010(7) 0.070(7)
C1A 0.166 0.174 0.167 0.006 0.003 0.087
C1B 0.174 0.166 0.167 -0.003 -0.006 0.087
C2O 0.148 0.136 0.138 0.004 0.01 0.07
loop_
_geom_bond_atom_site_label_1
_geom_bond_atom_site_label_2
_geom_bond_site_symmetry_1
_geom_bond_site_symmetry_2
Zn1 O1 1_555 1_555
Co1 O1 1_555 1_555
P1 O1 1_555 1_555
O2 Zn1 1_555 1_555
O3 Zn1 1_555 1_555
O4 Zn1 1_555 1_555
N1 C2 1_555 1_555
N2 C1 1_555 1_555
C1 C2 1_555 1_555
P1B O2 1_555 1_555
P1P O3 1_555 1_555
P1I O4 1_555 1_555
O1A Co1 1_555 1_555
O1B Co1 1_555 1_555
O1P Co1 1_555 1_555
O1Q Co1 1_555 1_555
O1O Co1 1_555 1_555
O2A P1 1_555 1_555
O3Q P1 1_555 1_555
O4I P1 1_555 1_555
C1A N2 1_555 1_555
C1B N2 1_555 1_555
C2O N1 1_555 1_555
P1B O1B 1_555 1_555
P1P O1P 1_555 1_555

#END
