
#######################################################################
#
#                 Cambridge Crystallographic Data Centre
#                                CCDC 
#
#######################################################################
#
# If this CIF has been generated from an entry in the Cambridge 
# Structural Database, then it will include bibliographic, chemical, 
# crystal, experimental, refinement or atomic coordinate data resulting 
# from the CCDC's data processing and validation procedures.
#
#######################################################################

data_EZOBUR
_chemical_formula_moiety         '(C116 H76 Cu6 F72 N12 O28)n'
_symmetry_cell_setting           monoclinic
_symmetry_space_group_name_H-M   'C 2/c'
_symmetry_Int_Tables_number      15
_space_group_name_Hall           '-C 2yc'
loop_
_symmetry_equiv_pos_site_id
_symmetry_equiv_pos_as_xyz
1 x,y,z
2 -x,y,1/2-z
3 1/2+x,1/2+y,z
4 1/2-x,1/2+y,1/2-z
5 -x,-y,-z
6 x,-y,1/2+z
7 1/2-x,1/2-y,-z
8 1/2+x,1/2-y,1/2+z
_cell_length_a                   61.5935(3)
_cell_length_b                   15.6399(1)
_cell_length_c                   17.9843(1)
_cell_angle_alpha                90
_cell_angle_beta                 95.8549(2)
_cell_angle_gamma                90
_cell_volume                     17234.2
loop_
_atom_site_label
_atom_site_type_symbol
_atom_site_fract_x
_atom_site_fract_y
_atom_site_fract_z
_atom_site_U_iso_or_equiv
_atom_site_thermal_displace_type
Cu1 Cu 0.155308(12) 0.05568(5) 0.52388(4) 0.0609 Uani
Cu2 Cu 0.292877(10) 0.19451(4) 0.63533(4) 0.0488 Uani
Cu3 Cu 0.0000 0.0000 0.5000 0.0520 Uani
Cu4 Cu 0.0000 -0.25296(7) 0.2500 0.0678 Uani
O1 O 0.13740(6) 0.0996(3) 0.4191(2) 0.0668 Uani
O2 O 0.29794(6) 0.1390(2) 0.5405(2) 0.0486 Uani
O3 O 0.17261(10) 0.0129(4) 0.6270(3) 0.0959 Uani
O4 O 0.15248(9) 0.1713(4) 0.5765(3) 0.0820 Uani
O5 O 0.16063(8) -0.0643(3) 0.4802(3) 0.0717 Uani
O6 O 0.12825(8) 0.0155(3) 0.5593(3) 0.0820 Uani
O7 O 0.28577(7) 0.2580(3) 0.7248(2) 0.0626 Uani
O8 O 0.32699(7) 0.1933(3) 0.6903(2) 0.0709 Uani
O9 O 0.25476(7) 0.2046(3) 0.6092(2) 0.0620 Uani
O10 O 0.28661(7) 0.0848(3) 0.6797(2) 0.0655 Uani
O11 O 0.01354(8) 0.1134(3) 0.4707(3) 0.0753 Uani
O12 O -0.02455(8) 0.0169(4) 0.4120(3) 0.0789 Uani
O13 O 0.02471(8) -0.2514(3) 0.1919(3) 0.0763 Uani
O14 O -0.01308(13) -0.3542(4) 0.1816(5) 0.1264 Uani
N1 N 0.01843(8) -0.0650(3) 0.4279(3) 0.0596 Uani
N2 N 0.01824(8) -0.1580(3) 0.3257(3) 0.0631 Uani
N3 N 0.11629(7) 0.1023(4) 0.4060(3) 0.0597 Uani
N4 N 0.20326(7) 0.1923(3) 0.4177(2) 0.0467 Uani
N5 N 0.18325(7) 0.0937(3) 0.4816(2) 0.0490 Uani
N6 N 0.29970(7) 0.0571(3) 0.5333(3) 0.0505 Uani
C1 C 0.03991(9) -0.0502(4) 0.4248(4) 0.0591 Uani
H1 H 0.0471 -0.0133 0.4595 0.0710 Uiso
C2 C 0.00864(10) -0.1186(4) 0.3785(3) 0.0576 Uani
H2 H -0.0061 -0.1294 0.3811 0.0690 Uiso
C3 C 0.03959(10) -0.1429(4) 0.3229(4) 0.0634 Uani
H3 H 0.0467 -0.1706 0.2865 0.0760 Uiso
C4 C 0.05162(9) -0.0878(4) 0.3721(4) 0.0574 Uani
C5 C 0.07495(9) -0.0703(4) 0.3652(4) 0.0588 Uani
C6 C 0.08412(9) 0.0071(4) 0.3892(3) 0.0567 Uani
H4 H 0.0757 0.0477 0.4108 0.0680 Uiso
C7 C 0.10616(9) 0.0245(4) 0.3810(3) 0.0600 Uani
C8 C 0.11829(10) -0.0358(6) 0.3478(4) 0.0750 Uani
H5 H 0.1328 -0.0249 0.3417 0.0900 Uiso
C9 C 0.10911(11) -0.1109(6) 0.3240(5) 0.0842 Uani
H6 H 0.1175 -0.1505 0.3009 0.1010 Uiso
C10 C 0.08770(11) -0.1307(5) 0.3328(4) 0.0777 Uani
H7 H 0.0819 -0.1834 0.3174 0.0930 Uiso
C11 C 0.10521(10) 0.1863(5) 0.4134(4) 0.0662 Uani
C12 C 0.08928(13) 0.2023(6) 0.3441(5) 0.0858 Uani
H8 H 0.0782 0.1589 0.3405 0.1290 Uiso
H9 H 0.0970 0.2006 0.3004 0.1290 Uiso
H10 H 0.0826 0.2574 0.3479 0.1290 Uiso
C13 C 0.09431(12) 0.1881(5) 0.4851(5) 0.0817 Uani
H11 H 0.0833 0.1443 0.4835 0.1220 Uiso
H12 H 0.0877 0.2429 0.4905 0.1220 Uiso
H13 H 0.1050 0.1781 0.5268 0.1220 Uiso
C14 C 0.12273(12) 0.2563(5) 0.4187(5) 0.0828 Uani
H14 H 0.1299 0.2565 0.3739 0.1240 Uiso
H15 H 0.1332 0.2453 0.4609 0.1240 Uiso
H16 H 0.1160 0.3109 0.4248 0.1240 Uiso
C15 C 0.22099(9) 0.1408(4) 0.4282(3) 0.0499 Uani
H17 H 0.2336 0.1563 0.4074 0.0600 Uiso
C16 C 0.18513(9) 0.1666(4) 0.4445(3) 0.0499 Uani
H18 H 0.1729 0.2017 0.4369 0.0600 Uiso
C17 C 0.20120(9) 0.0448(4) 0.4942(3) 0.0504 Uani
H19 H 0.2003 -0.0056 0.5213 0.0610 Uiso
C18 C 0.22077(8) 0.0659(3) 0.4689(3) 0.0440 Uani
C19 C 0.24095(9) 0.0148(3) 0.4869(3) 0.0470 Uani
C20 C 0.26091(9) 0.0569(3) 0.4990(3) 0.0475 Uani
H20 H 0.2615 0.1160 0.4935 0.0570 Uiso
C21 C 0.27997(9) 0.0106(3) 0.5194(3) 0.0491 Uani
C22 C 0.27889(11) -0.0776(4) 0.5285(4) 0.0663 Uani
H21 H 0.2914 -0.1089 0.5441 0.0800 Uiso
C23 C 0.25893(12) -0.1180(4) 0.5139(5) 0.0750 Uani
H22 H 0.2583 -0.1773 0.5174 0.0900 Uiso
C24 C 0.24020(10) -0.0740(4) 0.4946(4) 0.0604 Uani
H23 H 0.2270 -0.1028 0.4866 0.0720 Uiso
C25 C 0.32245(10) 0.0194(4) 0.5353(4) 0.0613 Uani
C26 C 0.32372(13) -0.0345(5) 0.4658(5) 0.0807 Uani
H24 H 0.3138 -0.0819 0.4665 0.1210 Uiso
H25 H 0.3198 -0.0003 0.4222 0.1210 Uiso
H26 H 0.3383 -0.0555 0.4648 0.1210 Uiso
C27 C 0.33840(10) 0.0953(5) 0.5335(5) 0.0816 Uani
H27 H 0.3352 0.1264 0.4877 0.1230 Uiso
H28 H 0.3368 0.1324 0.5751 0.1230 Uiso
H29 H 0.3531 0.0742 0.5366 0.1230 Uiso
C28 C 0.32788(12) -0.0302(5) 0.6083(4) 0.0791 Uani
H30 H 0.3179 -0.0771 0.6102 0.1190 Uiso
H31 H 0.3425 -0.0517 0.6104 0.1190 Uiso
H32 H 0.3266 0.0072 0.6500 0.1190 Uiso
C29 C 0.18015(19) -0.0026(7) 0.7565(7) 0.1177 Uani
C30 C 0.17059(13) 0.0471(5) 0.6890(4) 0.0774 Uani
C31 C 0.16122(12) 0.1265(5) 0.7021(4) 0.0692 Uani
H33 H 0.1601 0.1427 0.7513 0.0830 Uiso
C32 C 0.15365(12) 0.1814(5) 0.6462(4) 0.0718 Uani
C33 C 0.1465(2) 0.2683(7) 0.6704(5) 0.1059 Uani
C34 C 0.15703(16) -0.2080(5) 0.4574(5) 0.0869 Uani
C35 C 0.14930(12) -0.1288(4) 0.4927(4) 0.0684 Uani
C36 C 0.13086(13) -0.1313(5) 0.5323(4) 0.0815 Uani
H34 H 0.1244 -0.1841 0.5390 0.0980 Uiso
C37 C 0.12189(12) -0.0611(5) 0.5613(4) 0.0744 Uani
C38 C 0.10170(17) -0.0683(7) 0.6035(5) 0.1058 Uani
C39 C 0.28257(17) 0.2883(7) 0.8487(4) 0.0963 Uani
C40 C 0.29561(12) 0.2538(4) 0.7894(4) 0.0651 Uani
C41 C 0.31632(13) 0.2243(6) 0.8101(4) 0.0809 Uani
H35 H 0.3212 0.2232 0.8608 0.0970 Uiso
C42 C 0.33058(12) 0.1958(5) 0.7598(4) 0.0727 Uani
C43 C 0.35301(16) 0.1683(9) 0.7902(5) 0.1136 Uani
C44 C 0.22168(12) 0.2132(5) 0.6604(4) 0.0764 Uani
C45 C 0.24369(10) 0.1730(4) 0.6556(4) 0.0616 Uani
C46 C 0.24949(12) 0.1026(5) 0.7033(4) 0.0747 Uani
H36 H 0.2390 0.0813 0.7322 0.0900 Uiso
C47 C 0.26978(12) 0.0636(4) 0.7094(4) 0.0677 Uani
C48 C 0.27342(17) -0.0138(8) 0.7592(5) 0.1027 Uani
C49 C 0.02172(18) 0.2355(7) 0.4042(7) 0.1107 Uani
C50 C 0.00753(12) 0.1567(5) 0.4146(4) 0.0707 Uani
C51 C -0.00979(13) 0.1416(6) 0.3608(5) 0.0835 Uani
H37 H -0.0119 0.1790 0.3205 0.1000 Uiso
C52 C -0.02421(11) 0.0733(5) 0.3638(4) 0.0713 Uani
C53 C -0.04170(16) 0.0645(8) 0.2990(5) 0.1034 Uani
C54 C 0.05403(19) -0.2945(9) 0.1306(8) 0.1324 Uani
C55 C 0.03072(14) -0.3128(5) 0.1529(4) 0.0802 Uani
C56 C 0.01960(18) -0.3839(6) 0.1299(6) 0.1073 Uani
H38 H 0.0263 -0.4233 0.1009 0.1290 Uiso
C57 C -0.0011(2) -0.4006(7) 0.1472(6) 0.1161 Uani
C58 C -0.0144(5) -0.4968(17) 0.109(2) 0.2449 Uani
F1 F 0.2024(2) -0.0107(10) 0.7595(8) 0.1210 Uiso
F2 F 0.17420(16) 0.0178(6) 0.8184(5) 0.0820 Uiso
F3 F 0.1694(3) -0.0864(12) 0.7441(11) 0.1450 Uiso
F4 F 0.13946(19) 0.2741(7) 0.7349(6) 0.0920 Uiso
F5 F 0.1325(2) 0.3061(8) 0.6179(7) 0.1150 Uiso
F6 F 0.1639(2) 0.3255(9) 0.6636(8) 0.1290 Uiso
F7 F 0.15980(17) -0.1990(6) 0.3880(5) 0.0840 Uiso
F8 F 0.1730(2) -0.2454(8) 0.4954(7) 0.1060 Uiso
F9 F 0.1418(2) -0.2738(9) 0.4565(8) 0.1230 Uiso
F10 F 0.1066(2) -0.0797(9) 0.6716(7) 0.1170 Uiso
F11 F 0.0907(3) -0.1420(11) 0.5819(10) 0.1530 Uiso
F12 F 0.0867(2) -0.0073(9) 0.5832(7) 0.1150 Uiso
F13 F 0.26195(19) 0.2570(7) 0.8434(6) 0.1080 Uiso
F14 F 0.2899(2) 0.2686(8) 0.9187(7) 0.1070 Uiso
F15 F 0.2783(2) 0.3733(9) 0.8442(7) 0.1200 Uiso
F16 F 0.35563(19) 0.1419(9) 0.8579(7) 0.1080 Uiso
F17 F 0.36320(18) 0.1196(8) 0.7457(6) 0.0990 Uiso
F18 F 0.3668(2) 0.2415(8) 0.7841(7) 0.1150 Uiso
F19 F 0.2543(2) -0.0486(8) 0.7788(7) 0.1000 Uiso
F20 F 0.2859(3) -0.0704(11) 0.7363(9) 0.1380 Uiso
F21 F 0.2829(2) 0.0142(9) 0.8248(8) 0.1230 Uiso
F22 F 0.20662(16) 0.1926(7) 0.6069(6) 0.0870 Uiso
F23 F 0.2233(2) 0.2990(8) 0.6589(8) 0.1060 Uiso
F24 F 0.21426(19) 0.2015(8) 0.7294(7) 0.0980 Uiso
F25 F 0.0152(3) 0.2993(10) 0.4455(10) 0.1290 Uiso
F26 F 0.0204(2) 0.2624(9) 0.3314(8) 0.1110 Uiso
F27 F 0.0414(3) 0.2308(11) 0.4374(10) 0.1460 Uiso
F28 F -0.03713(18) 0.0885(8) 0.2340(6) 0.0980 Uiso
F29 F -0.05211(17) -0.0181(8) 0.3014(6) 0.0910 Uiso
F30 F -0.0590(2) 0.1156(8) 0.3093(7) 0.1060 Uiso
F31 F 0.0584(2) -0.3438(8) 0.0744(7) 0.1070 Uiso
F32 F 0.0591(3) -0.2248(13) 0.1199(11) 0.1500 Uiso
F33 F 0.0666(3) -0.3210(12) 0.1990(10) 0.1500 Uiso
F34 F 0.0046(3) -0.5472(13) 0.1136(13) 0.1730 Uiso
F35 F -0.0236(4) -0.5187(12) 0.1606(12) 0.1540 Uiso
F36 F -0.0214(5) -0.4724(17) 0.0472(16) 0.2060 Uiso
Cu1D Cu -0.155308(12) -0.05568(5) 0.47612(4) 0.0609 Uani
Cu2D Cu -0.292877(10) -0.19451(4) 0.36467(4) 0.0488 Uani
Cu2F Cu 0.207123(10) 0.30549(4) 0.36467(4) 0.0488 Uani
Cu2B Cu -0.207123(10) -0.30549(4) 0.63533(4) 0.0488 Uani
Cu4D Cu 0.0000 0.25296(7) 0.7500 0.0678 Uani
O1D O -0.13740(6) -0.0996(3) 0.5809(2) 0.0668 Uani
O2D O -0.29794(6) -0.1390(2) 0.4595(2) 0.0486 Uani
O3D O -0.17261(10) -0.0129(4) 0.3730(3) 0.0959 Uani
O4D O -0.15248(9) -0.1713(4) 0.4235(3) 0.0820 Uani
O5D O -0.16063(8) 0.0643(3) 0.5198(3) 0.0717 Uani
O6D O -0.12825(8) -0.0155(3) 0.4407(3) 0.0820 Uani
O7D O -0.28577(7) -0.2580(3) 0.2752(2) 0.0626 Uani
O8D O -0.32699(7) -0.1933(3) 0.3097(2) 0.0709 Uani
O9D O -0.25476(7) -0.2046(3) 0.3908(2) 0.0620 Uani
O10D O -0.28661(7) -0.0848(3) 0.3203(2) 0.0655 Uani
O11D O -0.01354(8) -0.1134(3) 0.5293(3) 0.0753 Uani
O12D O 0.02455(8) -0.0169(4) 0.5880(3) 0.0789 Uani
O13A O -0.02471(8) -0.2514(3) 0.3081(3) 0.0763 Uani
O14A O 0.01308(13) -0.3542(4) 0.3184(5) 0.1264 Uani
N1D N -0.01843(8) 0.0650(3) 0.5721(3) 0.0596 Uani
N2D N -0.01824(8) 0.1580(3) 0.6743(3) 0.0631 Uani
N2A N -0.01824(8) -0.1580(3) 0.1743(3) 0.0631 Uani
N3D N -0.11629(7) -0.1023(4) 0.5940(3) 0.0597 Uani
N4D N -0.20326(7) -0.1923(3) 0.5823(2) 0.0467 Uani
N4F N 0.29674(7) 0.3077(3) 0.5823(2) 0.0467 Uani
N4B N -0.29674(7) -0.3077(3) 0.4177(2) 0.0467 Uani
N5D N -0.18325(7) -0.0937(3) 0.5184(2) 0.0490 Uani
N6D N -0.29970(7) -0.0571(3) 0.4667(3) 0.0505 Uani
C1D C -0.03991(9) 0.0502(4) 0.5752(4) 0.0591 Uani
H1D H -0.0471 0.0133 0.5405 0.0710 Uiso
C2D C -0.00864(10) 0.1186(4) 0.6215(3) 0.0576 Uani
H2D H 0.0061 0.1294 0.6189 0.0690 Uiso
C3D C -0.03959(10) 0.1429(4) 0.6771(4) 0.0634 Uani
H3D H -0.0467 0.1706 0.7135 0.0760 Uiso
C4D C -0.05162(9) 0.0878(4) 0.6279(4) 0.0574 Uani
C5D C -0.07495(9) 0.0703(4) 0.6348(4) 0.0588 Uani
C6D C -0.08412(9) -0.0071(4) 0.6108(3) 0.0567 Uani
H4D H -0.0757 -0.0477 0.5892 0.0680 Uiso
C7D C -0.10616(9) -0.0245(4) 0.6190(3) 0.0600 Uani
C8D C -0.11829(10) 0.0358(6) 0.6522(4) 0.0750 Uani
H5D H -0.1328 0.0249 0.6583 0.0900 Uiso
C9D C -0.10911(11) 0.1109(6) 0.6760(5) 0.0842 Uani
H6D H -0.1175 0.1505 0.6991 0.1010 Uiso
C10D C -0.08770(11) 0.1307(5) 0.6672(4) 0.0777 Uani
H7D H -0.0819 0.1834 0.6826 0.0930 Uiso
C11D C -0.10521(10) -0.1863(5) 0.5866(4) 0.0662 Uani
C12D C -0.08928(13) -0.2023(6) 0.6559(5) 0.0858 Uani
H8D H -0.0782 -0.1589 0.6595 0.1290 Uiso
H9D H -0.0970 -0.2006 0.6996 0.1290 Uiso
H10D H -0.0826 -0.2574 0.6521 0.1290 Uiso
C13D C -0.09431(12) -0.1881(5) 0.5149(5) 0.0817 Uani
H11D H -0.0833 -0.1443 0.5165 0.1220 Uiso
H12D H -0.0877 -0.2429 0.5095 0.1220 Uiso
H13D H -0.1050 -0.1781 0.4732 0.1220 Uiso
C14D C -0.12273(12) -0.2563(5) 0.5813(5) 0.0828 Uani
H14D H -0.1299 -0.2565 0.6261 0.1240 Uiso
H15D H -0.1332 -0.2453 0.5391 0.1240 Uiso
H16D H -0.1160 -0.3109 0.5752 0.1240 Uiso
C15D C -0.22099(9) -0.1408(4) 0.5718(3) 0.0499 Uani
H17D H -0.2336 -0.1563 0.5926 0.0600 Uiso
C16D C -0.18513(9) -0.1666(4) 0.5555(3) 0.0499 Uani
H18D H -0.1729 -0.2017 0.5631 0.0600 Uiso
C17D C -0.20120(9) -0.0448(4) 0.5058(3) 0.0504 Uani
H19D H -0.2003 0.0056 0.4787 0.0610 Uiso
C18D C -0.22077(8) -0.0659(3) 0.5311(3) 0.0440 Uani
C19D C -0.24095(9) -0.0148(3) 0.5131(3) 0.0470 Uani
C20D C -0.26091(9) -0.0569(3) 0.5010(3) 0.0475 Uani
H20D H -0.2615 -0.1160 0.5065 0.0570 Uiso
C21D C -0.27997(9) -0.0106(3) 0.4806(3) 0.0491 Uani
C22D C -0.27889(11) 0.0776(4) 0.4715(4) 0.0663 Uani
H21D H -0.2914 0.1089 0.4559 0.0800 Uiso
C23D C -0.25893(12) 0.1180(4) 0.4861(5) 0.0750 Uani
H22D H -0.2583 0.1773 0.4826 0.0900 Uiso
C24D C -0.24020(10) 0.0740(4) 0.5054(4) 0.0604 Uani
H23D H -0.2270 0.1028 0.5134 0.0720 Uiso
C25D C -0.32245(10) -0.0194(4) 0.4647(4) 0.0613 Uani
C26D C -0.32372(13) 0.0345(5) 0.5342(5) 0.0807 Uani
H24D H -0.3138 0.0819 0.5335 0.1210 Uiso
H25D H -0.3198 0.0003 0.5778 0.1210 Uiso
H26D H -0.3383 0.0555 0.5352 0.1210 Uiso
C27D C -0.33840(10) -0.0953(5) 0.4665(5) 0.0816 Uani
H27D H -0.3352 -0.1264 0.5123 0.1230 Uiso
H28D H -0.3368 -0.1324 0.4249 0.1230 Uiso
H29D H -0.3531 -0.0742 0.4634 0.1230 Uiso
C28D C -0.32788(12) 0.0302(5) 0.3917(4) 0.0791 Uani
H30D H -0.3179 0.0771 0.3898 0.1190 Uiso
H31D H -0.3425 0.0517 0.3896 0.1190 Uiso
H32D H -0.3266 -0.0072 0.3500 0.1190 Uiso
C29D C -0.18015(19) 0.0026(7) 0.2435(7) 0.1177 Uani
C30D C -0.17059(13) -0.0471(5) 0.3110(4) 0.0774 Uani
C31D C -0.16122(12) -0.1265(5) 0.2979(4) 0.0692 Uani
H33D H -0.1601 -0.1427 0.2487 0.0830 Uiso
C32D C -0.15365(12) -0.1814(5) 0.3538(4) 0.0718 Uani
C33D C -0.1465(2) -0.2683(7) 0.3296(5) 0.1059 Uani
C34D C -0.15703(16) 0.2080(5) 0.5426(5) 0.0869 Uani
C35D C -0.14930(12) 0.1288(4) 0.5073(4) 0.0684 Uani
C36D C -0.13086(13) 0.1313(5) 0.4677(4) 0.0815 Uani
H34D H -0.1244 0.1841 0.4610 0.0980 Uiso
C37D C -0.12189(12) 0.0611(5) 0.4387(4) 0.0744 Uani
C38D C -0.10170(17) 0.0683(7) 0.3965(5) 0.1058 Uani
C39D C -0.28257(17) -0.2883(7) 0.1513(4) 0.0963 Uani
C40D C -0.29561(12) -0.2538(4) 0.2106(4) 0.0651 Uani
C41D C -0.31632(13) -0.2243(6) 0.1899(4) 0.0809 Uani
H35D H -0.3212 -0.2232 0.1392 0.0970 Uiso
C42D C -0.33058(12) -0.1958(5) 0.2402(4) 0.0727 Uani
C43D C -0.35301(16) -0.1683(9) 0.2098(5) 0.1136 Uani
C44D C -0.22168(12) -0.2132(5) 0.3396(4) 0.0764 Uani
C45D C -0.24369(10) -0.1730(4) 0.3444(4) 0.0616 Uani
C46D C -0.24949(12) -0.1026(5) 0.2967(4) 0.0747 Uani
H36D H -0.2390 -0.0813 0.2678 0.0900 Uiso
C47D C -0.26978(12) -0.0636(4) 0.2906(4) 0.0677 Uani
C48D C -0.27342(17) 0.0138(8) 0.2408(5) 0.1027 Uani
C49D C -0.02172(18) -0.2355(7) 0.5958(7) 0.1107 Uani
C50D C -0.00753(12) -0.1567(5) 0.5854(4) 0.0707 Uani
C51D C 0.00979(13) -0.1416(6) 0.6392(5) 0.0835 Uani
H37D H 0.0119 -0.1790 0.6795 0.1000 Uiso
C52D C 0.02421(11) -0.0733(5) 0.6362(4) 0.0713 Uani
C53D C 0.04170(16) -0.0645(8) 0.7010(5) 0.1034 Uani
C54A C -0.05403(19) -0.2945(9) 0.3694(8) 0.1324 Uani
C55A C -0.03072(14) -0.3128(5) 0.3471(4) 0.0802 Uani
C56A C -0.01960(18) -0.3839(6) 0.3701(6) 0.1073 Uani
H38A H -0.0263 -0.4233 0.3991 0.1290 Uiso
C57A C 0.0011(2) -0.4006(7) 0.3528(6) 0.1161 Uani
C58A C 0.0144(5) -0.4968(17) 0.391(2) 0.2449 Uani
F1D F -0.2024(2) 0.0107(10) 0.2405(8) 0.1210 Uiso
F2D F -0.17420(16) -0.0178(6) 0.1816(5) 0.0820 Uiso
F3D F -0.1694(3) 0.0864(12) 0.2559(11) 0.1450 Uiso
F4D F -0.13946(19) -0.2741(7) 0.2651(6) 0.0920 Uiso
F5D F -0.1325(2) -0.3061(8) 0.3821(7) 0.1150 Uiso
F6D F -0.1639(2) -0.3255(9) 0.3364(8) 0.1290 Uiso
F7D F -0.15980(17) 0.1990(6) 0.6120(5) 0.0840 Uiso
F8D F -0.1730(2) 0.2454(8) 0.5046(7) 0.1060 Uiso
F9D F -0.1418(2) 0.2738(9) 0.5435(8) 0.1230 Uiso
F10D F -0.1066(2) 0.0797(9) 0.3284(7) 0.1170 Uiso
F11D F -0.0907(3) 0.1420(11) 0.4181(10) 0.1530 Uiso
F12D F -0.0867(2) 0.0073(9) 0.4168(7) 0.1150 Uiso
F13D F -0.26195(19) -0.2570(7) 0.1566(6) 0.1080 Uiso
F14D F -0.2899(2) -0.2686(8) 0.0813(7) 0.1070 Uiso
F15D F -0.2783(2) -0.3733(9) 0.1558(7) 0.1200 Uiso
F16D F -0.35563(19) -0.1419(9) 0.1421(7) 0.1080 Uiso
F17D F -0.36320(18) -0.1196(8) 0.2543(6) 0.0990 Uiso
F18D F -0.3668(2) -0.2415(8) 0.2159(7) 0.1150 Uiso
F19D F -0.2543(2) 0.0486(8) 0.2212(7) 0.1000 Uiso
F20D F -0.2859(3) 0.0704(11) 0.2637(9) 0.1380 Uiso
F21D F -0.2829(2) -0.0142(9) 0.1752(8) 0.1230 Uiso
F22D F -0.20662(16) -0.1926(7) 0.3931(6) 0.0870 Uiso
F23D F -0.2233(2) -0.2990(8) 0.3411(8) 0.1060 Uiso
F24D F -0.21426(19) -0.2015(8) 0.2706(7) 0.0980 Uiso
F25D F -0.0152(3) -0.2993(10) 0.5545(10) 0.1290 Uiso
F26D F -0.0204(2) -0.2624(9) 0.6686(8) 0.1110 Uiso
F27D F -0.0414(3) -0.2308(11) 0.5626(10) 0.1460 Uiso
F28D F 0.03713(18) -0.0885(8) 0.7660(6) 0.0980 Uiso
F29D F 0.05211(17) 0.0181(8) 0.6986(6) 0.0910 Uiso
F30D F 0.0590(2) -0.1156(8) 0.6907(7) 0.1060 Uiso
F31A F -0.0584(2) -0.3438(8) 0.4256(7) 0.1070 Uiso
F32A F -0.0591(3) -0.2248(13) 0.3801(11) 0.1500 Uiso
F33A F -0.0666(3) -0.3210(12) 0.3010(10) 0.1500 Uiso
F34A F -0.0046(3) -0.5472(13) 0.3864(13) 0.1730 Uiso
F35A F 0.0236(4) -0.5187(12) 0.3394(12) 0.1540 Uiso
F36A F 0.0214(5) -0.4724(17) 0.4528(16) 0.2060 Uiso
loop_
_atom_site_aniso_label
_atom_site_aniso_U_11
_atom_site_aniso_U_22
_atom_site_aniso_U_33
_atom_site_aniso_U_23
_atom_site_aniso_U_13
_atom_site_aniso_U_12
Cu1 0.0573(4) 0.0634(5) 0.0653(5) -0.0093(3) 0.0228(3) -0.0157(3)
Cu2 0.0475 0.049 0.0502 0.0013 0.0059 -0.004
Cu3 0.0426(5) 0.0596(6) 0.0539(6) -0.0071(4) 0.0061(4) -0.0057(4)
Cu4 0.0820(8) 0.0519(6) 0.0737(7) 0.000 0.0279(6) 0.000
O1 0.036(2) 0.096(3) 0.068(3) 0.006(2) 0.0038(18) -0.008(2)
O2 0.048 0.043 0.055 -0.0006 0.0059 -0.0043
O3 0.103(4) 0.090(4) 0.104(4) -0.028(3) 0.055(3) -0.018(3)
O4 0.090(3) 0.106(4) 0.051(3) -0.003(2) 0.012(2) -0.017(3)
O5 0.071(3) 0.070(3) 0.077(3) -0.002(2) 0.021(2) -0.004(2)
O6 0.075(3) 0.084(3) 0.093(4) -0.006(3) 0.038(3) -0.012(3)
O7 0.067 0.067 0.054 -0.004 0.007 -0.001
O8 0.062 0.096 0.054 -0.001 0.002 -0.001
O9 0.065 0.061 0.062 0.006 0.016 -0.012
O10 0.072 0.06 0.066 0.009 0.014 -0.001
O11 0.068(3) 0.083(3) 0.074(3) 0.002(3) 0.003(2) -0.003(2)
O12 0.071(3) 0.086(3) 0.080(3) -0.004(3) 0.009(2) -0.006(3)
O13 0.086(3) 0.069(3) 0.078(3) -0.008(2) 0.028(3) 0.003(2)
O14 0.126(6) 0.086(4) 0.177(7) 0.000(5) 0.063(5) -0.010(4)
N1 0.050(3) 0.068(3) 0.061(3) -0.005(2) 0.007(2) -0.011(2)
N2 0.054(3) 0.065(3) 0.070(3) -0.009(3) 0.005(2) -0.013(2)
N3 0.038(2) 0.084(4) 0.057(3) 0.007(3) 0.004(2) -0.008(2)
N4 0.042 0.047 0.051 -0.0011 0.0048 -0.0048
N5 0.043 0.057 0.048 -0.004 0.0088 -0.009
N6 0.047 0.048 0.056 0 0.003 -0.001
C1 0.048(3) 0.069(4) 0.060(4) -0.011(3) 0.004(3) -0.012(3)
C2 0.051(3) 0.062(4) 0.060(3) -0.009(3) 0.007(3) -0.010(3)
C3 0.051(3) 0.072(4) 0.067(4) -0.011(3) 0.005(3) -0.004(3)
C4 0.046(3) 0.062(3) 0.063(4) 0.001(3) 0.000(3) -0.005(3)
C5 0.043(3) 0.072(4) 0.061(4) -0.002(3) 0.004(3) -0.003(3)
C6 0.044(3) 0.070(4) 0.057(3) -0.001(3) 0.009(2) 0.001(3)
C7 0.042(3) 0.081(4) 0.057(3) -0.002(3) 0.005(2) -0.005(3)
C8 0.041(3) 0.114(6) 0.070(4) -0.014(4) 0.005(3) -0.003(3)
C9 0.053(4) 0.110(6) 0.090(5) -0.031(5) 0.009(3) 0.010(4)
C10 0.055(4) 0.089(5) 0.087(5) -0.021(4) -0.003(3) 0.000(3)
C11 0.046(3) 0.076(4) 0.075(4) 0.004(3) -0.001(3) -0.007(3)
C12 0.070(4) 0.093(5) 0.091(5) 0.014(4) -0.009(4) -0.002(4)
C13 0.063(4) 0.092(5) 0.092(5) -0.016(4) 0.017(4) -0.001(4)
C14 0.070(4) 0.080(5) 0.098(6) 0.008(4) 0.006(4) -0.022(4)
C15 0.046 0.053 0.052 -0.002 0.012 -0.006
C16 0.044 0.052 0.054 -0.002 0.006 -0.006
C17 0.05 0.048 0.054 0.002 0.009 -0.012
C18 0.047 0.042 0.044 -0.005 0.009 -0.008
C19 0.052 0.044 0.046 -0.002 0.01 -0.006
C20 0.052 0.043 0.048 0.001 0.008 -0.003
C21 0.054 0.045 0.049 -0.002 0.008 -0.002
C22 0.061 0.052 0.085 0.008 0.003 0.002
C23 0.073 0.041 0.111 0.003 0.009 -0.003
C24 0.057 0.051 0.074 0.002 0.01 -0.012
C25 0.046 0.061 0.077 -0.004 0.007 0.004
C26 0.075 0.079 0.09 -0.019 0.018 0.01
C27 0.046 0.09 0.111 -0.02 0.018 -0.006
C28 0.071 0.081 0.083 0.004 -0.004 0.016
C29 0.123(8) 0.092(6) 0.153(10) 0.027(6) 0.086(8) 0.034(6)
C30 0.083(5) 0.077(5) 0.078(5) -0.005(4) 0.037(4) -0.014(4)
C31 0.082(4) 0.078(4) 0.050(3) -0.003(3) 0.019(3) 0.001(4)
C32 0.072(4) 0.081(5) 0.065(4) -0.007(4) 0.019(3) -0.011(4)
C33 0.144(9) 0.107(7) 0.069(5) 0.024(5) 0.022(5) 0.015(6)
C34 0.109(6) 0.076(5) 0.071(5) 0.003(4) -0.014(4) 0.002(4)
C35 0.082(4) 0.062(4) 0.060(4) 0.004(3) 0.001(3) -0.010(3)
C36 0.092(5) 0.079(5) 0.075(5) 0.007(4) 0.016(4) -0.029(4)
C37 0.067(4) 0.089(5) 0.068(4) 0.004(4) 0.011(3) -0.020(4)
C38 0.105(7) 0.130(8) 0.080(6) 0.026(5) -0.002(5) -0.055(6)
C39 0.121 0.12 0.048 0.007 0.009 -0.008
C40 0.076 0.065 0.055 -0.001 0.01 -0.004
C41 0.087 0.11 0.045 -0.001 0.003 0
C42 0.072 0.088 0.056 0.006 -0.003 -0.002
C43 0.089 0.196 0.054 0.022 -0.001 -0.004
C44 0.067 0.091 0.073 -0.02 0.016 -0.02
C45 0.058 0.068 0.06 -0.012 0.012 -0.016
C46 0.08 0.079 0.069 0.007 0.026 -0.019
C47 0.079 0.063 0.061 0.008 0.007 -0.017
C48 0.101 0.136 0.072 0.021 0.013 -0.028
C49 0.101(7) 0.116(8) 0.111(8) 0.003(6) -0.009(6) 0.020(6)
C50 0.071(4) 0.067(4) 0.076(5) -0.001(4) 0.016(4) 0.000(3)
C51 0.077(5) 0.092(5) 0.080(5) 0.018(4) 0.001(4) 0.004(4)
C52 0.065(4) 0.089(5) 0.061(4) -0.012(4) 0.012(3) 0.010(4)
C53 0.089(6) 0.140(9) 0.084(6) -0.014(6) 0.022(5) -0.020(6)
C54 0.109(8) 0.143(11) 0.152(11) -0.072(9) 0.046(8) 0.027(7)
C55 0.086(5) 0.085(5) 0.072(5) -0.004(4) 0.020(4) 0.019(4)
C56 0.123(8) 0.090(6) 0.116(7) -0.029(5) 0.046(6) 0.003(6)
C57 0.149(10) 0.089(6) 0.115(8) -0.023(6) 0.036(7) -0.029(7)
C58 0.27(3) 0.22(2) 0.28(3) -0.02(2) 0.20(3) -0.01(2)
Cu1D 0.0573 0.0634 0.0653 -0.0093 0.0228 -0.0157
Cu2D 0.0475 0.049 0.0502 0.0013 0.0059 -0.004
Cu2F 0.0475 0.049 0.0502 0.0013 0.0059 -0.004
Cu2B 0.0475 0.049 0.0502 0.0013 0.0059 -0.004
Cu4D 0.082 0.0519 0.0737 0 0.0279 0
O1D 0.036 0.096 0.068 0.006 0.0038 -0.008
O2D 0.048 0.043 0.055 -0.0006 0.0059 -0.0043
O3D 0.103 0.09 0.104 -0.028 0.055 -0.018
O4D 0.09 0.106 0.051 -0.003 0.012 -0.017
O5D 0.071 0.07 0.077 -0.002 0.021 -0.004
O6D 0.075 0.084 0.093 -0.006 0.038 -0.012
O7D 0.067 0.067 0.054 -0.004 0.007 -0.001
O8D 0.062 0.096 0.054 -0.001 0.002 -0.001
O9D 0.065 0.061 0.062 0.006 0.016 -0.012
O10D 0.072 0.06 0.066 0.009 0.014 -0.001
O11D 0.068 0.083 0.074 0.002 0.003 -0.003
O12D 0.071 0.086 0.08 -0.004 0.009 -0.006
O13A 0.086 0.069 0.078 0.008 0.028 -0.003
O14A 0.126 0.086 0.177 0 0.063 0.01
N1D 0.05 0.068 0.061 -0.005 0.007 -0.011
N2D 0.054 0.065 0.07 -0.009 0.005 -0.013
N2A 0.054 0.065 0.07 0.009 0.005 0.013
N3D 0.038 0.084 0.057 0.007 0.004 -0.008
N4D 0.042 0.047 0.051 -0.0011 0.0048 -0.0048
N4F 0.042 0.047 0.051 -0.0011 0.0048 -0.0048
N4B 0.042 0.047 0.051 -0.0011 0.0048 -0.0048
N5D 0.043 0.057 0.048 -0.004 0.0088 -0.009
N6D 0.047 0.048 0.056 0 0.003 -0.001
C1D 0.048 0.069 0.06 -0.011 0.004 -0.012
C2D 0.051 0.062 0.06 -0.009 0.007 -0.01
C3D 0.051 0.072 0.067 -0.011 0.005 -0.004
C4D 0.046 0.062 0.063 0.001 0 -0.005
C5D 0.043 0.072 0.061 -0.002 0.004 -0.003
C6D 0.044 0.07 0.057 -0.001 0.009 0.001
C7D 0.042 0.081 0.057 -0.002 0.005 -0.005
C8D 0.041 0.114 0.07 -0.014 0.005 -0.003
C9D 0.053 0.11 0.09 -0.031 0.009 0.01
C10D 0.055 0.089 0.087 -0.021 -0.003 0
C11D 0.046 0.076 0.075 0.004 -0.001 -0.007
C12D 0.07 0.093 0.091 0.014 -0.009 -0.002
C13D 0.063 0.092 0.092 -0.016 0.017 -0.001
C14D 0.07 0.08 0.098 0.008 0.006 -0.022
C15D 0.046 0.053 0.052 -0.002 0.012 -0.006
C16D 0.044 0.052 0.054 -0.002 0.006 -0.006
C17D 0.05 0.048 0.054 0.002 0.009 -0.012
C18D 0.047 0.042 0.044 -0.005 0.009 -0.008
C19D 0.052 0.044 0.046 -0.002 0.01 -0.006
C20D 0.052 0.043 0.048 0.001 0.008 -0.003
C21D 0.054 0.045 0.049 -0.002 0.008 -0.002
C22D 0.061 0.052 0.085 0.008 0.003 0.002
C23D 0.073 0.041 0.111 0.003 0.009 -0.003
C24D 0.057 0.051 0.074 0.002 0.01 -0.012
C25D 0.046 0.061 0.077 -0.004 0.007 0.004
C26D 0.075 0.079 0.09 -0.019 0.018 0.01
C27D 0.046 0.09 0.111 -0.02 0.018 -0.006
C28D 0.071 0.081 0.083 0.004 -0.004 0.016
C29D 0.123 0.092 0.153 0.027 0.086 0.034
C30D 0.083 0.077 0.078 -0.005 0.037 -0.014
C31D 0.082 0.078 0.05 -0.003 0.019 0.001
C32D 0.072 0.081 0.065 -0.007 0.019 -0.011
C33D 0.144 0.107 0.069 0.024 0.022 0.015
C34D 0.109 0.076 0.071 0.003 -0.014 0.002
C35D 0.082 0.062 0.06 0.004 0.001 -0.01
C36D 0.092 0.079 0.075 0.007 0.016 -0.029
C37D 0.067 0.089 0.068 0.004 0.011 -0.02
C38D 0.105 0.13 0.08 0.026 -0.002 -0.055
C39D 0.121 0.12 0.048 0.007 0.009 -0.008
C40D 0.076 0.065 0.055 -0.001 0.01 -0.004
C41D 0.087 0.11 0.045 -0.001 0.003 0
C42D 0.072 0.088 0.056 0.006 -0.003 -0.002
C43D 0.089 0.196 0.054 0.022 -0.001 -0.004
C44D 0.067 0.091 0.073 -0.02 0.016 -0.02
C45D 0.058 0.068 0.06 -0.012 0.012 -0.016
C46D 0.08 0.079 0.069 0.007 0.026 -0.019
C47D 0.079 0.063 0.061 0.008 0.007 -0.017
C48D 0.101 0.136 0.072 0.021 0.013 -0.028
C49D 0.101 0.116 0.111 0.003 -0.009 0.02
C50D 0.071 0.067 0.076 -0.001 0.016 0
C51D 0.077 0.092 0.08 0.018 0.001 0.004
C52D 0.065 0.089 0.061 -0.012 0.012 0.01
C53D 0.089 0.14 0.084 -0.014 0.022 -0.02
C54A 0.109 0.143 0.152 0.072 0.046 -0.027
C55A 0.086 0.085 0.072 0.004 0.02 -0.019
C56A 0.123 0.09 0.116 0.029 0.046 -0.003
C57A 0.149 0.089 0.115 0.023 0.036 0.029
C58A 0.27 0.22 0.28 0.02 0.2 0.01
loop_
_geom_bond_atom_site_label_1
_geom_bond_atom_site_label_2
_geom_bond_site_symmetry_1
_geom_bond_site_symmetry_2
Cu1 O1 1_555 1_555
Cu2 O2 1_555 1_555
Cu3 O11 1_555 1_555
Cu4 O13 1_555 1_555
O1 N3 1_555 1_555
O2 N6 1_555 1_555
O3 Cu1 1_555 1_555
O4 Cu1 1_555 1_555
O5 Cu1 1_555 1_555
O6 Cu1 1_555 1_555
O7 Cu2 1_555 1_555
O8 Cu2 1_555 1_555
O9 Cu2 1_555 1_555
O10 Cu2 1_555 1_555
O11 C50 1_555 1_555
O12 Cu3 1_555 1_555
O13 C55 1_555 1_555
O14 Cu4 1_555 1_555
N1 Cu3 1_555 1_555
N2 Cu4 1_555 1_555
N3 C7 1_555 1_555
N4 C15 1_555 1_555
N5 Cu1 1_555 1_555
N6 C21 1_555 1_555
C1 N1 1_555 1_555
H1 C1 1_555 1_555
C2 N1 1_555 1_555
H2 C2 1_555 1_555
C3 N2 1_555 1_555
H3 C3 1_555 1_555
C4 C1 1_555 1_555
C5 C4 1_555 1_555
C6 C5 1_555 1_555
H4 C6 1_555 1_555
C7 C6 1_555 1_555
C8 C7 1_555 1_555
H5 C8 1_555 1_555
C9 C8 1_555 1_555
H6 C9 1_555 1_555
C10 C5 1_555 1_555
H7 C10 1_555 1_555
C11 N3 1_555 1_555
C12 C11 1_555 1_555
H8 C12 1_555 1_555
H9 C12 1_555 1_555
H10 C12 1_555 1_555
C13 C11 1_555 1_555
H11 C13 1_555 1_555
H12 C13 1_555 1_555
H13 C13 1_555 1_555
C14 C11 1_555 1_555
H14 C14 1_555 1_555
H15 C14 1_555 1_555
H16 C14 1_555 1_555
C15 H17 1_555 1_555
C16 N4 1_555 1_555
H18 C16 1_555 1_555
C17 N5 1_555 1_555
H19 C17 1_555 1_555
C18 C15 1_555 1_555
C19 C18 1_555 1_555
C20 C19 1_555 1_555
H20 C20 1_555 1_555
C21 C20 1_555 1_555
C22 C21 1_555 1_555
H21 C22 1_555 1_555
C23 C22 1_555 1_555
H22 C23 1_555 1_555
C24 C19 1_555 1_555
H23 C24 1_555 1_555
C25 N6 1_555 1_555
C26 C25 1_555 1_555
H24 C26 1_555 1_555
H25 C26 1_555 1_555
H26 C26 1_555 1_555
C27 C25 1_555 1_555
H27 C27 1_555 1_555
H28 C27 1_555 1_555
H29 C27 1_555 1_555
C28 C25 1_555 1_555
H30 C28 1_555 1_555
H31 C28 1_555 1_555
H32 C28 1_555 1_555
C29 C30 1_555 1_555
C30 O3 1_555 1_555
C31 C30 1_555 1_555
H33 C31 1_555 1_555
C32 O4 1_555 1_555
C33 C32 1_555 1_555
C34 C35 1_555 1_555
C35 O5 1_555 1_555
C36 C35 1_555 1_555
H34 C36 1_555 1_555
C37 O6 1_555 1_555
C38 C37 1_555 1_555
C39 C40 1_555 1_555
C40 O7 1_555 1_555
C41 C40 1_555 1_555
H35 C41 1_555 1_555
C42 O8 1_555 1_555
C43 C42 1_555 1_555
C44 C45 1_555 1_555
C45 O9 1_555 1_555
C46 C45 1_555 1_555
H36 C46 1_555 1_555
C47 O10 1_555 1_555
C48 C47 1_555 1_555
C49 C50 1_555 1_555
C50 C51 1_555 1_555
C51 H37 1_555 1_555
C52 O12 1_555 1_555
C53 C52 1_555 1_555
C54 C55 1_555 1_555
C55 C56 1_555 1_555
C56 H38 1_555 1_555
C57 O14 1_555 1_555
C58 C57 1_555 1_555
F1 C29 1_555 1_555
F2 C29 1_555 1_555
F3 C29 1_555 1_555
F4 C33 1_555 1_555
F5 C33 1_555 1_555
F6 C33 1_555 1_555
F7 C34 1_555 1_555
F8 C34 1_555 1_555
F9 C34 1_555 1_555
F10 C38 1_555 1_555
F11 C38 1_555 1_555
F12 C38 1_555 1_555
F13 C39 1_555 1_555
F14 C39 1_555 1_555
F15 C39 1_555 1_555
F16 C43 1_555 1_555
F17 C43 1_555 1_555
F18 C43 1_555 1_555
F19 C48 1_555 1_555
F20 C48 1_555 1_555
F21 C48 1_555 1_555
F22 C44 1_555 1_555
F23 C44 1_555 1_555
F24 C44 1_555 1_555
F25 C49 1_555 1_555
F26 C49 1_555 1_555
F27 C49 1_555 1_555
F28 C53 1_555 1_555
F29 C53 1_555 1_555
F30 C53 1_555 1_555
F31 C54 1_555 1_555
F32 C54 1_555 1_555
F33 C54 1_555 1_555
F34 C58 1_555 1_555
F35 C58 1_555 1_555
F36 C58 1_555 1_555
Cu1D O1D 1_555 1_555
Cu2D O2D 1_555 1_555
Cu2F N4 1_555 1_555
Cu2B N4D 1_555 1_555
Cu4D N2D 1_555 1_555
O1D N3D 1_555 1_555
O2D N6D 1_555 1_555
O3D Cu1D 1_555 1_555
O4D Cu1D 1_555 1_555
O5D Cu1D 1_555 1_555
O6D Cu1D 1_555 1_555
O7D Cu2D 1_555 1_555
O8D Cu2D 1_555 1_555
O9D Cu2D 1_555 1_555
O10D Cu2D 1_555 1_555
O11D Cu3 1_555 1_555
O12D Cu3 1_555 1_555
O13A Cu4 1_555 1_555
O14A Cu4 1_555 1_555
N1D Cu3 1_555 1_555
N2D C2D 1_555 1_555
N2A Cu4 1_555 1_555
N3D C7D 1_555 1_555
N4D C15D 1_555 1_555
N4F Cu2 1_555 1_555
N4B Cu2D 1_555 1_555
N5D Cu1D 1_555 1_555
N6D C21D 1_555 1_555
C1D N1D 1_555 1_555
H1D C1D 1_555 1_555
C2D N1D 1_555 1_555
H2D C2D 1_555 1_555
C3D N2D 1_555 1_555
H3D C3D 1_555 1_555
C4D C1D 1_555 1_555
C5D C4D 1_555 1_555
C6D C5D 1_555 1_555
H4D C6D 1_555 1_555
C7D C6D 1_555 1_555
C8D C7D 1_555 1_555
H5D C8D 1_555 1_555
C9D C8D 1_555 1_555
H6D C9D 1_555 1_555
C10D C5D 1_555 1_555
H7D C10D 1_555 1_555
C11D N3D 1_555 1_555
C12D C11D 1_555 1_555
H8D C12D 1_555 1_555
H9D C12D 1_555 1_555
H10D C12D 1_555 1_555
C13D C11D 1_555 1_555
H11D C13D 1_555 1_555
H12D C13D 1_555 1_555
H13D C13D 1_555 1_555
C14D C11D 1_555 1_555
H14D C14D 1_555 1_555
H15D C14D 1_555 1_555
H16D C14D 1_555 1_555
C15D H17D 1_555 1_555
C16D N4D 1_555 1_555
H18D C16D 1_555 1_555
C17D N5D 1_555 1_555
H19D C17D 1_555 1_555
C18D C15D 1_555 1_555
C19D C18D 1_555 1_555
C20D C19D 1_555 1_555
H20D C20D 1_555 1_555
C21D C20D 1_555 1_555
C22D C21D 1_555 1_555
H21D C22D 1_555 1_555
C23D C22D 1_555 1_555
H22D C23D 1_555 1_555
C24D C19D 1_555 1_555
H23D C24D 1_555 1_555
C25D N6D 1_555 1_555
C26D C25D 1_555 1_555
H24D C26D 1_555 1_555
H25D C26D 1_555 1_555
H26D C26D 1_555 1_555
C27D C25D 1_555 1_555
H27D C27D 1_555 1_555
H28D C27D 1_555 1_555
H29D C27D 1_555 1_555
C28D C25D 1_555 1_555
H30D C28D 1_555 1_555
H31D C28D 1_555 1_555
H32D C28D 1_555 1_555
C29D C30D 1_555 1_555
C30D O3D 1_555 1_555
C31D C30D 1_555 1_555
H33D C31D 1_555 1_555
C32D O4D 1_555 1_555
C33D C32D 1_555 1_555
C34D C35D 1_555 1_555
C35D O5D 1_555 1_555
C36D C35D 1_555 1_555
H34D C36D 1_555 1_555
C37D O6D 1_555 1_555
C38D C37D 1_555 1_555
C39D C40D 1_555 1_555
C40D O7D 1_555 1_555
C41D C40D 1_555 1_555
H35D C41D 1_555 1_555
C42D O8D 1_555 1_555
C43D C42D 1_555 1_555
C44D C45D 1_555 1_555
C45D O9D 1_555 1_555
C46D C45D 1_555 1_555
H36D C46D 1_555 1_555
C47D O10D 1_555 1_555
C48D C47D 1_555 1_555
C49D C50D 1_555 1_555
C50D O11D 1_555 1_555
C51D C50D 1_555 1_555
H37D C51D 1_555 1_555
C52D O12D 1_555 1_555
C53D C52D 1_555 1_555
C54A C55A 1_555 1_555
C55A O13A 1_555 1_555
C56A C55A 1_555 1_555
H38A C56A 1_555 1_555
C57A O14A 1_555 1_555
C58A C57A 1_555 1_555
F1D C29D 1_555 1_555
F2D C29D 1_555 1_555
F3D C29D 1_555 1_555
F4D C33D 1_555 1_555
F5D C33D 1_555 1_555
F6D C33D 1_555 1_555
F7D C34D 1_555 1_555
F8D C34D 1_555 1_555
F9D C34D 1_555 1_555
F10D C38D 1_555 1_555
F11D C38D 1_555 1_555
F12D C38D 1_555 1_555
F13D C39D 1_555 1_555
F14D C39D 1_555 1_555
F15D C39D 1_555 1_555
F16D C43D 1_555 1_555
F17D C43D 1_555 1_555
F18D C43D 1_555 1_555
F19D C48D 1_555 1_555
F20D C48D 1_555 1_555
F21D C48D 1_555 1_555
F22D C44D 1_555 1_555
F23D C44D 1_555 1_555
F24D C44D 1_555 1_555
F25D C49D 1_555 1_555
F26D C49D 1_555 1_555
F27D C49D 1_555 1_555
F28D C53D 1_555 1_555
F29D C53D 1_555 1_555
F30D C53D 1_555 1_555
F31A C54A 1_555 1_555
F32A C54A 1_555 1_555
F33A C54A 1_555 1_555
F34A C58A 1_555 1_555
F35A C58A 1_555 1_555
F36A C58A 1_555 1_555
N2 C2 1_555 1_555
N5 C16 1_555 1_555
C3 C4 1_555 1_555
C9 C10 1_555 1_555
C17 C18 1_555 1_555
C23 C24 1_555 1_555
C31 C32 1_555 1_555
C36 C37 1_555 1_555
C41 C42 1_555 1_555
C46 C47 1_555 1_555
C51 C52 1_555 1_555
C56 C57 1_555 1_555
N5D C16D 1_555 1_555
C3D C4D 1_555 1_555
C9D C10D 1_555 1_555
C17D C18D 1_555 1_555
C23D C24D 1_555 1_555
C31D C32D 1_555 1_555
C36D C37D 1_555 1_555
C41D C42D 1_555 1_555
C46D C47D 1_555 1_555
C51D C52D 1_555 1_555
C56A C57A 1_555 1_555

#END
