
#######################################################################
#
#                 Cambridge Crystallographic Data Centre
#                                CCDC 
#
#######################################################################
#
# If this CIF has been generated from an entry in the Cambridge 
# Structural Database, then it will include bibliographic, chemical, 
# crystal, experimental, refinement or atomic coordinate data resulting 
# from the CCDC's data processing and validation procedures.
#
#######################################################################

data_EZOBUR02
_chemical_formula_moiety         '(C116 H76 Cu6 F72 N12 O28)n'
_symmetry_cell_setting           monoclinic
_symmetry_space_group_name_H-M   'C 2/c'
_symmetry_Int_Tables_number      15
_space_group_name_Hall           '-C 2yc'
loop_
_symmetry_equiv_pos_site_id
_symmetry_equiv_pos_as_xyz
1 x,y,z
2 -x,y,1/2-z
3 1/2+x,1/2+y,z
4 1/2-x,1/2+y,1/2-z
5 -x,-y,-z
6 x,-y,1/2+z
7 1/2-x,1/2-y,-z
8 1/2+x,1/2-y,1/2+z
_cell_length_a                   60.8915(4)
_cell_length_b                   15.4268(1)
_cell_length_c                   17.6013(2)
_cell_angle_alpha                90
_cell_angle_beta                 95.3729(4)
_cell_angle_gamma                90
_cell_volume                     16461.3
loop_
_atom_site_label
_atom_site_type_symbol
_atom_site_fract_x
_atom_site_fract_y
_atom_site_fract_z
_atom_site_U_iso_or_equiv
_atom_site_thermal_displace_type
Cu1 Cu 0.154438(7) 0.05445(3) 0.51944(2) 0.0218 Uani
Cu2 Cu 0.292360(7) 0.19360(3) 0.63636(2) 0.0204 Uani
Cu3 Cu -0.0000 0.0000 0.5000 0.0223 Uani
Cu4 Cu 0.0000 -0.26012(4) 0.2500 0.0312 Uani
O1 O 0.13923(4) 0.09334(17) 0.41967(14) 0.0246 Uani
O2 O 0.29844(4) 0.13941(15) 0.53986(13) 0.0205 Uani
O3 O 0.17047(4) 0.01809(17) 0.61918(14) 0.0277 Uani
O4 O 0.15156(4) 0.18502(18) 0.57360(14) 0.0300 Uani
O5 O 0.16037(4) -0.08039(17) 0.47769(15) 0.0277 Uani
O6 O 0.12703(4) 0.01454(17) 0.55488(15) 0.0269 Uani
O7 O 0.28395(4) 0.25734(17) 0.72723(14) 0.0270 Uani
O8 O 0.32676(4) 0.19635(18) 0.69407(14) 0.0292 Uani
O9 O 0.25385(4) 0.20377(16) 0.60785(14) 0.0249 Uani
O10 O 0.28613(4) 0.08191(16) 0.67986(14) 0.0262 Uani
O11 O 0.01373(4) 0.10827(17) 0.46981(15) 0.0299 Uani
O12 O -0.02614(4) 0.01635(19) 0.40460(16) 0.0336 Uani
O13 O 0.02471(5) -0.25820(18) 0.18914(17) 0.0340 Uani
O14 O -0.01373(6) -0.3631(2) 0.1804(3) 0.0657 Uani
N1 N 0.01847(5) -0.0674(2) 0.42882(18) 0.0262 Uani
N2 N 0.01822(5) -0.1640(2) 0.32543(18) 0.0292 Uani
N3 N 0.11795(5) 0.0961(2) 0.40620(16) 0.0227 Uani
N4 N 0.20371(5) 0.19172(19) 0.41564(16) 0.0200 Uani
N5 N 0.18288(5) 0.08960(19) 0.47778(16) 0.0207 Uani
N6 N 0.30048(5) 0.05637(18) 0.53204(16) 0.0208 Uani
C1 C 0.04031(6) -0.0547(2) 0.4265(2) 0.0259 Uani
H1 H 0.0479 -0.0174 0.4631 0.0310 Uiso
C2 C 0.00844(6) -0.1225(2) 0.3786(2) 0.0273 Uani
H2 H -0.0069 -0.1327 0.3813 0.0330 Uiso
C3 C 0.03979(6) -0.1491(3) 0.3221(2) 0.0294 Uani
H3 H 0.0471 -0.1772 0.2836 0.0350 Uiso
C4 C 0.05194(6) -0.0940(2) 0.3728(2) 0.0250 Uani
C5 C 0.07574(6) -0.0775(3) 0.3656(2) 0.0253 Uani
C6 C 0.08539(6) 0.0007(2) 0.3906(2) 0.0236 Uani
H4 H 0.0769 0.0428 0.4141 0.0280 Uiso
C7 C 0.10749(6) 0.0174(2) 0.3813(2) 0.0239 Uani
C8 C 0.12004(6) -0.0443(3) 0.3461(2) 0.0280 Uani
H5 H 0.1351 -0.0330 0.3391 0.0340 Uiso
C9 C 0.11043(6) -0.1214(3) 0.3219(2) 0.0304 Uani
H6 H 0.1189 -0.1632 0.2978 0.0370 Uiso
C10 C 0.08864(6) -0.1391(3) 0.3318(2) 0.0281 Uani
H7 H 0.0824 -0.1932 0.3157 0.0340 Uiso
C11 C 0.10660(6) 0.1830(2) 0.4123(2) 0.0256 Uani
C12 C 0.09044(6) 0.1953(3) 0.3412(2) 0.0319 Uani
H8 H 0.0792 0.1495 0.3391 0.0480 Uiso
H9 H 0.0985 0.1922 0.2955 0.0480 Uiso
H10 H 0.0833 0.2520 0.3434 0.0480 Uiso
C13 C 0.09564(6) 0.1871(3) 0.4870(2) 0.0284 Uani
H11 H 0.0842 0.1424 0.4867 0.0420 Uiso
H12 H 0.0890 0.2444 0.4920 0.0420 Uiso
H13 H 0.1068 0.1772 0.5301 0.0420 Uiso
C14 C 0.12436(6) 0.2530(3) 0.4130(2) 0.0290 Uani
H14 H 0.1314 0.2507 0.3652 0.0440 Uiso
H15 H 0.1355 0.2431 0.4561 0.0440 Uiso
H16 H 0.1176 0.3101 0.4182 0.0440 Uiso
C15 C 0.22133(6) 0.1397(2) 0.42584(19) 0.0208 Uani
H17 H 0.2346 0.1565 0.4052 0.0250 Uiso
C16 C 0.18494(6) 0.1648(2) 0.44190(19) 0.0219 Uani
H18 H 0.1724 0.2015 0.4346 0.0260 Uiso
C17 C 0.20081(6) 0.0391(2) 0.49065(19) 0.0218 Uani
H19 H 0.1997 -0.0138 0.5176 0.0260 Uiso
C18 C 0.22093(6) 0.0621(2) 0.46557(19) 0.0200 Uani
C19 C 0.24130(6) 0.0106(2) 0.48307(19) 0.0210 Uani
C20 C 0.26136(6) 0.0541(2) 0.49681(19) 0.0207 Uani
H20 H 0.2618 0.1154 0.4925 0.0250 Uiso
C21 C 0.28078(6) 0.0081(2) 0.5168(2) 0.0220 Uani
C22 C 0.28005(6) -0.0823(2) 0.5222(2) 0.0263 Uani
H21 H 0.2931 -0.1142 0.5361 0.0310 Uiso
C23 C 0.26018(6) -0.1246(2) 0.5074(2) 0.0275 Uani
H22 H 0.2598 -0.1860 0.5108 0.0330 Uiso
C24 C 0.24075(6) -0.0794(2) 0.4875(2) 0.0251 Uani
H23 H 0.2272 -0.1097 0.4770 0.0300 Uiso
C25 C 0.32374(6) 0.0191(2) 0.5359(2) 0.0246 Uani
C26 C 0.32586(6) -0.0328(3) 0.4628(2) 0.0292 Uani
H24 H 0.3159 -0.0827 0.4612 0.0440 Uiso
H25 H 0.3220 0.0043 0.4183 0.0440 Uiso
H26 H 0.3411 -0.0532 0.4620 0.0440 Uiso
C27 C 0.33964(6) 0.0955(3) 0.5372(2) 0.0305 Uani
H27 H 0.3367 0.1292 0.4901 0.0460 Uiso
H28 H 0.3376 0.1325 0.5812 0.0460 Uiso
H29 H 0.3548 0.0739 0.5410 0.0460 Uiso
C28 C 0.32841(6) -0.0323(3) 0.6097(2) 0.0311 Uani
H30 H 0.3179 -0.0804 0.6103 0.0460 Uiso
H31 H 0.3435 -0.0554 0.6126 0.0460 Uiso
H32 H 0.3269 0.0057 0.6534 0.0460 Uiso
C29 C 0.17826(7) -0.0038(3) 0.7496(2) 0.0332 Uani
C30 C 0.16900(6) 0.0532(2) 0.6835(2) 0.0258 Uani
C31 C 0.16061(6) 0.1340(3) 0.7003(2) 0.0266 Uani
H33 H 0.1599 0.1490 0.7524 0.0320 Uiso
C32 C 0.15318(6) 0.1944(3) 0.6439(2) 0.0273 Uani
C33 C 0.14697(8) 0.2844(3) 0.6705(2) 0.0400 Uani
C34 C 0.15374(7) -0.2272(3) 0.4544(2) 0.0310 Uani
C35 C 0.14775(6) -0.1402(2) 0.4898(2) 0.0261 Uani
C36 C 0.12888(6) -0.1384(3) 0.5311(2) 0.0299 Uani
H34 H 0.1216 -0.1915 0.5394 0.0360 Uiso
C37 C 0.12062(6) -0.0632(3) 0.5597(2) 0.0274 Uani
C38 C 0.10037(7) -0.0702(3) 0.6040(2) 0.0365 Uani
C39 C 0.27976(7) 0.2928(3) 0.8531(2) 0.0356 Uani
C40 C 0.29407(6) 0.2571(2) 0.7936(2) 0.0272 Uani
C41 C 0.31520(7) 0.2300(3) 0.8162(2) 0.0314 Uani
H35 H 0.3199 0.2294 0.8692 0.0370 Uiso
C42 C 0.33006(6) 0.2034(3) 0.7648(2) 0.0292 Uani
C43 C 0.35361(7) 0.1821(4) 0.7967(2) 0.0451 Uani
C44 C 0.22010(6) 0.2136(3) 0.6616(2) 0.0275 Uani
C45 C 0.24275(6) 0.1713(2) 0.6564(2) 0.0245 Uani
C46 C 0.24827(6) 0.0997(3) 0.7043(2) 0.0291 Uani
H36 H 0.2373 0.0772 0.7339 0.0350 Uiso
C47 C 0.26867(6) 0.0606(2) 0.7103(2) 0.0269 Uani
C48 C 0.27228(7) -0.0197(3) 0.7603(2) 0.0336 Uani
C49 C 0.02304(7) 0.2312(3) 0.4046(3) 0.0388 Uani
C50 C 0.00799(6) 0.1539(3) 0.4115(2) 0.0291 Uani
C51 C -0.00960(7) 0.1424(3) 0.3567(2) 0.0347 Uani
H37 H -0.0113 0.1827 0.3158 0.0420 Uiso
C52 C -0.02503(6) 0.0752(3) 0.3576(2) 0.0320 Uani
C53 C -0.04304(8) 0.0747(4) 0.2906(3) 0.0487 Uani
C54 C 0.05403(8) -0.3041(4) 0.1247(3) 0.0509 Uani
C55 C 0.03082(7) -0.3202(3) 0.1485(2) 0.0330 Uani
C56 C 0.01960(9) -0.3934(3) 0.1256(3) 0.0484 Uani
H38 H 0.0267 -0.4350 0.0965 0.0580 Uiso
C57 C -0.00202(9) -0.4098(3) 0.1436(3) 0.0539 Uani
C58 C -0.01144(15) -0.5010(7) 0.1165(6) 0.1060 Uani
F1 F 0.20098(9) -0.0105(4) 0.7478(3) 0.0360 Uiso
F2 F 0.17512(9) 0.0244(4) 0.8176(3) 0.0254 Uiso
F3 F 0.17083(13) -0.0809(5) 0.7493(4) 0.0530 Uiso
F7 F 0.14083(13) 0.2875(3) 0.7403(3) 0.0218 Uiso
F8 F 0.13279(12) 0.3250(4) 0.6207(3) 0.0298 Uiso
F9 F 0.16659(11) 0.3355(4) 0.6717(4) 0.0409 Uiso
F16 F 0.16046(11) -0.2147(6) 0.3824(4) 0.0340 Uiso
F17 F 0.16934(12) -0.2663(5) 0.4931(5) 0.0420 Uiso
F18 F 0.13745(15) -0.2898(5) 0.4640(5) 0.0360 Uiso
F25 F 0.10407(19) -0.0671(7) 0.6722(7) 0.0420 Uiso
F26 F 0.08784(15) -0.1385(7) 0.5899(5) 0.0430 Uiso
F27 F 0.08534(18) -0.0004(7) 0.5830(6) 0.0430 Uiso
F34 F 0.25978(11) 0.2464(5) 0.8496(4) 0.0253 Uiso
F35 F 0.28852(10) 0.2802(5) 0.9265(3) 0.0182 Uiso
F36 F 0.27464(14) 0.3771(4) 0.8418(4) 0.0281 Uiso
F43 F 0.35478(16) 0.1783(9) 0.8763(5) 0.0250 Uiso
F45 F 0.36565(15) 0.2705(7) 0.7884(5) 0.0450 Uiso
F47 F 0.36180(16) 0.1146(7) 0.7625(5) 0.0129 Uiso
F52 F 0.25355(11) -0.0525(4) 0.7840(4) 0.0360 Uiso
F53 F 0.28210(11) -0.0826(4) 0.7274(4) 0.0431 Uiso
F54 F 0.28533(10) 0.0039(4) 0.8247(3) 0.0384 Uiso
F58 F 0.20471(8) 0.1844(4) 0.6074(3) 0.0241 Uiso
F59 F 0.22104(11) 0.2967(4) 0.6516(4) 0.0370 Uiso
F60 F 0.21364(10) 0.2206(4) 0.7299(3) 0.0308 Uiso
F64 F 0.01981(14) 0.2917(6) 0.4492(5) 0.0520 Uiso
F65 F 0.02123(12) 0.2645(5) 0.3310(4) 0.0450 Uiso
F66 F 0.04464(12) 0.2099(5) 0.4230(4) 0.0420 Uiso
F70 F -0.03656(9) 0.0841(4) 0.2232(3) 0.0299 Uiso
F71 F -0.05534(9) -0.0074(4) 0.2931(3) 0.0379 Uiso
F72 F -0.05835(11) 0.1309(5) 0.2995(4) 0.0533 Uiso
F76 F 0.05886(11) -0.3561(4) 0.0664(4) 0.0489 Uiso
F77 F 0.05777(13) -0.2328(5) 0.1016(5) 0.0550 Uiso
F78 F 0.06788(13) -0.3173(5) 0.1929(4) 0.0590 Uiso
F82 F 0.00463(18) -0.5634(7) 0.1137(7) 0.0800 Uiso
F83 F -0.0280(2) -0.5214(8) 0.1525(7) 0.0850 Uiso
F84 F -0.0257(2) -0.4830(8) 0.0494(7) 0.0900 Uiso
Cu1D Cu -0.154438(7) -0.05445(3) 0.48056(2) 0.0218 Uani
Cu2D Cu -0.292360(7) -0.19360(3) 0.36364(2) 0.0204 Uani
Cu2F Cu 0.207640(7) 0.30640(3) 0.36364(2) 0.0204 Uani
Cu2B Cu -0.207640(7) -0.30640(3) 0.63636(2) 0.0204 Uani
Cu4D Cu -0.0000 0.26012(4) 0.7500 0.0312 Uani
O1D O -0.13923(4) -0.09334(17) 0.58033(14) 0.0246 Uani
O2D O -0.29844(4) -0.13941(15) 0.46014(13) 0.0205 Uani
O3D O -0.17047(4) -0.01809(17) 0.38082(14) 0.0277 Uani
O4D O -0.15156(4) -0.18502(18) 0.42640(14) 0.0300 Uani
O5D O -0.16037(4) 0.08039(17) 0.52231(15) 0.0277 Uani
O6D O -0.12703(4) -0.01454(17) 0.44512(15) 0.0269 Uani
O7D O -0.28395(4) -0.25734(17) 0.27277(14) 0.0270 Uani
O8D O -0.32676(4) -0.19635(18) 0.30593(14) 0.0292 Uani
O9D O -0.25385(4) -0.20377(16) 0.39215(14) 0.0249 Uani
O10D O -0.28613(4) -0.08191(16) 0.32014(14) 0.0262 Uani
O11D O -0.01373(4) -0.10827(17) 0.53019(15) 0.0299 Uani
O12D O 0.02614(4) -0.01635(19) 0.59540(16) 0.0336 Uani
O13A O -0.02471(5) -0.25820(18) 0.31086(17) 0.0340 Uani
O14A O 0.01373(6) -0.3631(2) 0.3196(3) 0.0657 Uani
N1D N -0.01847(5) 0.0674(2) 0.57118(18) 0.0262 Uani
N2D N -0.01822(5) 0.1640(2) 0.67457(18) 0.0292 Uani
N2A N -0.01822(5) -0.1640(2) 0.17457(18) 0.0292 Uani
N3D N -0.11795(5) -0.0961(2) 0.59380(16) 0.0227 Uani
N4D N -0.20371(5) -0.19172(19) 0.58436(16) 0.0200 Uani
N4F N 0.29629(5) 0.30828(19) 0.58436(16) 0.0200 Uani
N4B N -0.29629(5) -0.30828(19) 0.41564(16) 0.0200 Uani
N5D N -0.18288(5) -0.08960(19) 0.52222(16) 0.0207 Uani
N6D N -0.30048(5) -0.05637(18) 0.46796(16) 0.0208 Uani
C1D C -0.04031(6) 0.0547(2) 0.5735(2) 0.0259 Uani
H1D H -0.0479 0.0174 0.5369 0.0310 Uiso
C2D C -0.00844(6) 0.1225(2) 0.6214(2) 0.0273 Uani
H2D H 0.0069 0.1327 0.6187 0.0330 Uiso
C3D C -0.03979(6) 0.1491(3) 0.6779(2) 0.0294 Uani
H3D H -0.0471 0.1772 0.7164 0.0350 Uiso
C4D C -0.05194(6) 0.0940(2) 0.6272(2) 0.0250 Uani
C5D C -0.07574(6) 0.0775(3) 0.6344(2) 0.0253 Uani
C6D C -0.08539(6) -0.0007(2) 0.6094(2) 0.0236 Uani
H4D H -0.0769 -0.0428 0.5859 0.0280 Uiso
C7D C -0.10749(6) -0.0174(2) 0.6187(2) 0.0239 Uani
C8D C -0.12004(6) 0.0443(3) 0.6539(2) 0.0280 Uani
H5D H -0.1351 0.0330 0.6609 0.0340 Uiso
C9D C -0.11043(6) 0.1214(3) 0.6781(2) 0.0304 Uani
H6D H -0.1189 0.1632 0.7022 0.0370 Uiso
C10D C -0.08864(6) 0.1391(3) 0.6682(2) 0.0281 Uani
H7D H -0.0824 0.1932 0.6843 0.0340 Uiso
C11D C -0.10660(6) -0.1830(2) 0.5877(2) 0.0256 Uani
C12D C -0.09044(6) -0.1953(3) 0.6588(2) 0.0319 Uani
H8D H -0.0792 -0.1495 0.6609 0.0480 Uiso
H9D H -0.0985 -0.1922 0.7045 0.0480 Uiso
H10D H -0.0833 -0.2520 0.6566 0.0480 Uiso
C13D C -0.09564(6) -0.1871(3) 0.5130(2) 0.0284 Uani
H11D H -0.0842 -0.1424 0.5133 0.0420 Uiso
H12D H -0.0890 -0.2444 0.5080 0.0420 Uiso
H13D H -0.1068 -0.1772 0.4699 0.0420 Uiso
C14D C -0.12436(6) -0.2530(3) 0.5870(2) 0.0290 Uani
H14D H -0.1314 -0.2507 0.6348 0.0440 Uiso
H15D H -0.1355 -0.2431 0.5439 0.0440 Uiso
H16D H -0.1176 -0.3101 0.5818 0.0440 Uiso
C15D C -0.22133(6) -0.1397(2) 0.57416(19) 0.0208 Uani
H17D H -0.2346 -0.1565 0.5948 0.0250 Uiso
C16D C -0.18494(6) -0.1648(2) 0.55810(19) 0.0219 Uani
H18D H -0.1724 -0.2015 0.5654 0.0260 Uiso
C17D C -0.20081(6) -0.0391(2) 0.50935(19) 0.0218 Uani
H19D H -0.1997 0.0138 0.4824 0.0260 Uiso
C18D C -0.22093(6) -0.0621(2) 0.53443(19) 0.0200 Uani
C19D C -0.24130(6) -0.0106(2) 0.51693(19) 0.0210 Uani
C20D C -0.26136(6) -0.0541(2) 0.50319(19) 0.0207 Uani
H20D H -0.2618 -0.1154 0.5075 0.0250 Uiso
C21D C -0.28078(6) -0.0081(2) 0.4832(2) 0.0220 Uani
C22D C -0.28005(6) 0.0823(2) 0.4778(2) 0.0263 Uani
H21D H -0.2931 0.1142 0.4639 0.0310 Uiso
C23D C -0.26018(6) 0.1246(2) 0.4926(2) 0.0275 Uani
H22D H -0.2598 0.1860 0.4892 0.0330 Uiso
C24D C -0.24075(6) 0.0794(2) 0.5125(2) 0.0251 Uani
H23D H -0.2272 0.1097 0.5230 0.0300 Uiso
C25D C -0.32374(6) -0.0191(2) 0.4641(2) 0.0246 Uani
C26D C -0.32586(6) 0.0328(3) 0.5372(2) 0.0292 Uani
H24D H -0.3159 0.0827 0.5388 0.0440 Uiso
H25D H -0.3220 -0.0043 0.5817 0.0440 Uiso
H26D H -0.3411 0.0532 0.5380 0.0440 Uiso
C27D C -0.33964(6) -0.0955(3) 0.4628(2) 0.0305 Uani
H27D H -0.3367 -0.1292 0.5099 0.0460 Uiso
H28D H -0.3376 -0.1325 0.4188 0.0460 Uiso
H29D H -0.3548 -0.0739 0.4590 0.0460 Uiso
C28D C -0.32841(6) 0.0323(3) 0.3903(2) 0.0311 Uani
H30D H -0.3179 0.0804 0.3897 0.0460 Uiso
H31D H -0.3435 0.0554 0.3874 0.0460 Uiso
H32D H -0.3269 -0.0057 0.3466 0.0460 Uiso
C29D C -0.17826(7) 0.0038(3) 0.2504(2) 0.0332 Uani
C30D C -0.16900(6) -0.0532(2) 0.3165(2) 0.0258 Uani
C31D C -0.16061(6) -0.1340(3) 0.2997(2) 0.0266 Uani
H33D H -0.1599 -0.1490 0.2476 0.0320 Uiso
C32D C -0.15318(6) -0.1944(3) 0.3561(2) 0.0273 Uani
C33D C -0.14697(8) -0.2844(3) 0.3295(2) 0.0400 Uani
C34D C -0.15374(7) 0.2272(3) 0.5456(2) 0.0310 Uani
C35D C -0.14775(6) 0.1402(2) 0.5102(2) 0.0261 Uani
C36D C -0.12888(6) 0.1384(3) 0.4689(2) 0.0299 Uani
H34D H -0.1216 0.1915 0.4606 0.0360 Uiso
C37D C -0.12062(6) 0.0632(3) 0.4403(2) 0.0274 Uani
C38D C -0.10037(7) 0.0702(3) 0.3960(2) 0.0365 Uani
C39D C -0.27976(7) -0.2928(3) 0.1469(2) 0.0356 Uani
C40D C -0.29407(6) -0.2571(2) 0.2064(2) 0.0272 Uani
C41D C -0.31520(7) -0.2300(3) 0.1838(2) 0.0314 Uani
H35D H -0.3199 -0.2294 0.1308 0.0370 Uiso
C42D C -0.33006(6) -0.2034(3) 0.2352(2) 0.0292 Uani
C43D C -0.35361(7) -0.1821(4) 0.2033(2) 0.0451 Uani
C44D C -0.22010(6) -0.2136(3) 0.3384(2) 0.0275 Uani
C45D C -0.24275(6) -0.1713(2) 0.3436(2) 0.0245 Uani
C46D C -0.24827(6) -0.0997(3) 0.2957(2) 0.0291 Uani
H36D H -0.2373 -0.0772 0.2661 0.0350 Uiso
C47D C -0.26867(6) -0.0606(2) 0.2897(2) 0.0269 Uani
C48D C -0.27228(7) 0.0197(3) 0.2397(2) 0.0336 Uani
C49D C -0.02304(7) -0.2312(3) 0.5954(3) 0.0388 Uani
C50D C -0.00799(6) -0.1539(3) 0.5885(2) 0.0291 Uani
C51D C 0.00960(7) -0.1424(3) 0.6433(2) 0.0347 Uani
H37D H 0.0113 -0.1827 0.6842 0.0420 Uiso
C52D C 0.02503(6) -0.0752(3) 0.6424(2) 0.0320 Uani
C53D C 0.04304(8) -0.0747(4) 0.7094(3) 0.0487 Uani
C54A C -0.05403(8) -0.3041(4) 0.3753(3) 0.0509 Uani
C55A C -0.03082(7) -0.3202(3) 0.3515(2) 0.0330 Uani
C56A C -0.01960(9) -0.3934(3) 0.3744(3) 0.0484 Uani
H38A H -0.0267 -0.4350 0.4035 0.0580 Uiso
C57A C 0.00202(9) -0.4098(3) 0.3564(3) 0.0539 Uani
C58A C 0.01144(15) -0.5010(7) 0.3835(6) 0.1060 Uani
F1D F -0.20098(9) 0.0105(4) 0.2522(3) 0.0360 Uiso
F2D F -0.17512(9) -0.0244(4) 0.1824(3) 0.0254 Uiso
F3D F -0.17083(13) 0.0809(5) 0.2507(4) 0.0530 Uiso
F7D F -0.14083(13) -0.2875(3) 0.2597(3) 0.0218 Uiso
F8D F -0.13279(12) -0.3250(4) 0.3793(3) 0.0298 Uiso
F9D F -0.16659(11) -0.3355(4) 0.3283(4) 0.0409 Uiso
F16D F -0.16046(11) 0.2147(6) 0.6176(4) 0.0340 Uiso
F17D F -0.16934(12) 0.2663(5) 0.5069(5) 0.0420 Uiso
F18D F -0.13745(15) 0.2898(5) 0.5360(5) 0.0360 Uiso
F25D F -0.10407(19) 0.0671(7) 0.3278(7) 0.0420 Uiso
F26D F -0.08784(15) 0.1385(7) 0.4101(5) 0.0430 Uiso
F27D F -0.08534(18) 0.0004(7) 0.4170(6) 0.0430 Uiso
F34D F -0.25978(11) -0.2464(5) 0.1504(4) 0.0253 Uiso
F35D F -0.28852(10) -0.2802(5) 0.0735(3) 0.0182 Uiso
F36D F -0.27464(14) -0.3771(4) 0.1582(4) 0.0281 Uiso
F43D F -0.35478(16) -0.1783(9) 0.1237(5) 0.0250 Uiso
F45D F -0.36565(15) -0.2705(7) 0.2116(5) 0.0450 Uiso
F47D F -0.36180(16) -0.1146(7) 0.2375(5) 0.0129 Uiso
F52D F -0.25355(11) 0.0525(4) 0.2160(4) 0.0360 Uiso
F53D F -0.28210(11) 0.0826(4) 0.2726(4) 0.0431 Uiso
F54D F -0.28533(10) -0.0039(4) 0.1753(3) 0.0384 Uiso
F58D F -0.20471(8) -0.1844(4) 0.3926(3) 0.0241 Uiso
F59D F -0.22104(11) -0.2967(4) 0.3484(4) 0.0370 Uiso
F60D F -0.21364(10) -0.2206(4) 0.2701(3) 0.0308 Uiso
F64D F -0.01981(14) -0.2917(6) 0.5508(5) 0.0520 Uiso
F65D F -0.02123(12) -0.2645(5) 0.6690(4) 0.0450 Uiso
F66D F -0.04464(12) -0.2099(5) 0.5770(4) 0.0420 Uiso
F70D F 0.03656(9) -0.0841(4) 0.7768(3) 0.0299 Uiso
F71D F 0.05534(9) 0.0074(4) 0.7069(3) 0.0379 Uiso
F72D F 0.05835(11) -0.1309(5) 0.7005(4) 0.0533 Uiso
F76A F -0.05886(11) -0.3561(4) 0.4336(4) 0.0489 Uiso
F77A F -0.05777(13) -0.2328(5) 0.3984(5) 0.0550 Uiso
F78A F -0.06788(13) -0.3173(5) 0.3071(4) 0.0590 Uiso
F82A F -0.00463(18) -0.5634(7) 0.3863(7) 0.0800 Uiso
F83A F 0.0280(2) -0.5214(8) 0.3475(7) 0.0850 Uiso
F84A F 0.0257(2) -0.4830(8) 0.4506(7) 0.0900 Uiso
loop_
_atom_site_aniso_label
_atom_site_aniso_U_11
_atom_site_aniso_U_22
_atom_site_aniso_U_33
_atom_site_aniso_U_23
_atom_site_aniso_U_13
_atom_site_aniso_U_12
Cu1 0.0179(2) 0.0250(2) 0.0229(2) -0.00181(17) 0.00368(16) -0.00400(17)
Cu2 0.019 0.0204 0.0217 0.00056 0.002 -0.00154
Cu3 0.0169(3) 0.0239(3) 0.0260(3) -0.0019(2) 0.0014(2) -0.0016(2)
Cu4 0.0355(4) 0.0201(3) 0.0401(4) 0.000 0.0148(3) 0.000
O1 0.0149(12) 0.0342(14) 0.0246(13) -0.0008(11) 0.0020(10) -0.0035(10)
O2 0.0223 0.016 0.0232 -0.0003 0.0017 -0.0012
O3 0.0255(13) 0.0310(14) 0.0272(14) -0.0039(11) 0.0061(11) -0.0025(11)
O4 0.0311(14) 0.0348(15) 0.0238(14) -0.0004(11) 0.0013(11) -0.0014(12)
O5 0.0262(13) 0.0257(14) 0.0312(14) -0.0025(11) 0.0033(11) -0.0021(11)
O6 0.0227(13) 0.0291(14) 0.0296(14) -0.0012(11) 0.0063(10) -0.0019(11)
O7 0.0261 0.0288 0.0257 0.0009 0.0003 0.0011
O8 0.0239 0.0399 0.0236 0.0003 0.0004 -0.0004
O9 0.0216 0.0256 0.0278 0.0002 0.0038 -0.0034
O10 0.0261 0.0259 0.0272 0.0029 0.005 -0.0014
O11 0.0266(13) 0.0307(14) 0.0317(14) 0.0008(12) -0.0010(11) -0.0014(11)
O12 0.0281(14) 0.0368(16) 0.0354(15) -0.0011(13) 0.0002(12) -0.0030(12)
O13 0.0346(15) 0.0273(14) 0.0415(16) -0.0055(12) 0.0114(12) -0.0007(12)
O14 0.049(2) 0.044(2) 0.108(3) 0.023(2) 0.028(2) 0.0014(17)
N1 0.0210(15) 0.0293(17) 0.0282(16) -0.0026(13) 0.0022(13) -0.0051(13)
N2 0.0213(16) 0.0343(18) 0.0317(17) -0.0086(14) 0.0005(13) -0.0042(13)
N3 0.0148(14) 0.0301(17) 0.0233(15) -0.0010(13) 0.0022(11) -0.0028(12)
N4 0.0183 0.0215 0.0199 -0.0027 0.0003 -0.0031
N5 0.0185 0.0235 0.0202 -0.0014 0.002 -0.0035
N6 0.0194 0.019 0.0241 0.001 0.0022 -0.0004
C1 0.0225(18) 0.0275(19) 0.0272(19) -0.0036(15) 0.0001(15) -0.0059(15)
C2 0.0199(17) 0.029(2) 0.033(2) -0.0035(16) 0.0031(15) -0.0022(15)
C3 0.0233(18) 0.034(2) 0.031(2) -0.0068(17) 0.0035(15) -0.0043(16)
C4 0.0192(17) 0.0274(19) 0.0279(19) 0.0004(15) -0.0009(14) -0.0021(15)
C5 0.0199(17) 0.032(2) 0.0236(18) -0.0027(15) -0.0001(14) -0.0038(15)
C6 0.0195(17) 0.0284(19) 0.0229(17) -0.0029(15) 0.0019(14) -0.0002(14)
C7 0.0201(17) 0.0285(19) 0.0224(17) -0.0003(15) -0.0010(14) -0.0023(15)
C8 0.0197(17) 0.039(2) 0.0252(19) -0.0043(16) 0.0012(14) -0.0008(16)
C9 0.0236(19) 0.038(2) 0.029(2) -0.0079(17) 0.0000(15) 0.0027(16)
C10 0.0229(18) 0.031(2) 0.030(2) -0.0074(16) 0.0001(15) -0.0027(15)
C11 0.0212(17) 0.0279(19) 0.0272(19) -0.0001(15) 0.0004(15) -0.0006(15)
C12 0.0264(19) 0.036(2) 0.032(2) 0.0033(17) -0.0047(16) -0.0032(17)
C13 0.0237(18) 0.029(2) 0.033(2) -0.0046(16) 0.0055(15) -0.0010(15)
C14 0.0255(19) 0.029(2) 0.032(2) 0.0018(16) -0.0001(16) -0.0057(16)
C15 0.0189 0.0222 0.0214 -0.0021 0.0023 -0.0035
C16 0.019 0.024 0.0225 -0.0029 0.0002 -0.0026
C17 0.0222 0.0226 0.0201 -0.0021 -0.0003 -0.0022
C18 0.0201 0.0199 0.0199 -0.0037 0.0008 -0.0025
C19 0.0214 0.0215 0.0203 -0.0005 0.0034 -0.0031
C20 0.0222 0.0188 0.0213 0.0005 0.0025 -0.0019
C21 0.02 0.0237 0.0223 0.0002 0.0016 -0.0035
C22 0.0237 0.022 0.033 0.0013 0.0014 0.0026
C23 0.0253 0.017 0.04 0.0021 0.0019 -0.0018
C24 0.0219 0.0226 0.031 -0.001 0.0037 -0.0055
C25 0.0177 0.0253 0.0307 -0.001 0.0023 0.0017
C26 0.0267 0.028 0.033 -0.0051 0.004 0.0019
C27 0.0188 0.03 0.043 -0.0076 0.0039 -0.0017
C28 0.028 0.031 0.033 0.001 -0.0035 0.0054
C29 0.036(2) 0.033(2) 0.032(2) 0.0008(17) 0.0113(17) 0.0071(17)
C30 0.0204(17) 0.031(2) 0.0271(19) 0.0003(16) 0.0075(14) -0.0040(15)
C31 0.0251(18) 0.033(2) 0.0222(18) -0.0018(15) 0.0053(14) -0.0014(15)
C32 0.0242(18) 0.031(2) 0.027(2) -0.0021(16) 0.0046(15) -0.0035(15)
C33 0.054(3) 0.032(2) 0.034(2) 0.0022(18) 0.004(2) 0.001(2)
C34 0.039(2) 0.027(2) 0.026(2) -0.0002(16) -0.0028(17) -0.0005(17)
C35 0.0296(19) 0.027(2) 0.0205(17) 0.0015(15) -0.0034(15) -0.0014(16)
C36 0.032(2) 0.029(2) 0.029(2) 0.0034(16) 0.0047(16) -0.0076(16)
C37 0.0258(19) 0.033(2) 0.0230(18) 0.0008(16) 0.0004(15) -0.0074(16)
C38 0.034(2) 0.045(3) 0.031(2) 0.0022(19) 0.0058(17) -0.0123(19)
C39 0.042 0.041 0.024 0.0014 0.0045 0
C40 0.031 0.0235 0.027 0.0032 0.0027 -0.0036
C41 0.035 0.037 0.0213 0.0011 -0.002 -0.0005
C42 0.029 0.032 0.026 0.0014 -0.0004 -0.0034
C43 0.03 0.081 0.024 0.004 0.0009 -0.004
C44 0.0236 0.032 0.027 -0.0061 0.0033 -0.0065
C45 0.0209 0.0261 0.0268 -0.0057 0.0039 -0.0057
C46 0.029 0.032 0.0272 0.003 0.0073 -0.0071
C47 0.032 0.0261 0.0228 -0.0006 0.0029 -0.0041
C48 0.035 0.035 0.031 0.01 0.0038 -0.0053
C49 0.041(2) 0.034(2) 0.042(2) 0.006(2) 0.0070(19) 0.0017(19)
C50 0.0252(19) 0.031(2) 0.032(2) -0.0008(17) 0.0076(16) 0.0073(16)
C51 0.031(2) 0.041(2) 0.032(2) 0.0074(18) 0.0029(17) 0.0036(18)
C52 0.0246(19) 0.045(2) 0.027(2) -0.0069(19) 0.0051(16) 0.0053(17)
C53 0.039(3) 0.070(3) 0.036(2) -0.007(2) -0.002(2) 0.002(2)
C54 0.041(3) 0.056(3) 0.057(3) -0.025(3) 0.012(2) 0.011(2)
C55 0.037(2) 0.032(2) 0.030(2) -0.0030(17) 0.0037(17) 0.0056(17)
C56 0.059(3) 0.038(3) 0.050(3) -0.013(2) 0.015(2) -0.002(2)
C57 0.062(3) 0.043(3) 0.057(3) 0.002(2) 0.007(3) -0.014(3)
C58 0.084(6) 0.128(8) 0.107(7) 0.016(6) 0.015(5) -0.059(6)
Cu1D 0.0179 0.025 0.0229 -0.00181 0.00368 -0.004
Cu2D 0.019 0.0204 0.0217 0.00056 0.002 -0.00154
Cu2F 0.019 0.0204 0.0217 0.00056 0.002 -0.00154
Cu2B 0.019 0.0204 0.0217 0.00056 0.002 -0.00154
Cu4D 0.0355 0.0201 0.0401 0 0.0148 0
O1D 0.0149 0.0342 0.0246 -0.0008 0.002 -0.0035
O2D 0.0223 0.016 0.0232 -0.0003 0.0017 -0.0012
O3D 0.0255 0.031 0.0272 -0.0039 0.0061 -0.0025
O4D 0.0311 0.0348 0.0238 -0.0004 0.0013 -0.0014
O5D 0.0262 0.0257 0.0312 -0.0025 0.0033 -0.0021
O6D 0.0227 0.0291 0.0296 -0.0012 0.0063 -0.0019
O7D 0.0261 0.0288 0.0257 0.0009 0.0003 0.0011
O8D 0.0239 0.0399 0.0236 0.0003 0.0004 -0.0004
O9D 0.0216 0.0256 0.0278 0.0002 0.0038 -0.0034
O10D 0.0261 0.0259 0.0272 0.0029 0.005 -0.0014
O11D 0.0266 0.0307 0.0317 0.0008 -0.001 -0.0014
O12D 0.0281 0.0368 0.0354 -0.0011 0.0002 -0.003
O13A 0.0346 0.0273 0.0415 0.0055 0.0114 0.0007
O14A 0.049 0.044 0.108 -0.023 0.028 -0.0014
N1D 0.021 0.0293 0.0282 -0.0026 0.0022 -0.0051
N2D 0.0213 0.0343 0.0317 -0.0086 0.0005 -0.0042
N2A 0.0213 0.0343 0.0317 0.0086 0.0005 0.0042
N3D 0.0148 0.0301 0.0233 -0.001 0.0022 -0.0028
N4D 0.0183 0.0215 0.0199 -0.0027 0.0003 -0.0031
N4F 0.0183 0.0215 0.0199 -0.0027 0.0003 -0.0031
N4B 0.0183 0.0215 0.0199 -0.0027 0.0003 -0.0031
N5D 0.0185 0.0235 0.0202 -0.0014 0.002 -0.0035
N6D 0.0194 0.019 0.0241 0.001 0.0022 -0.0004
C1D 0.0225 0.0275 0.0272 -0.0036 0.0001 -0.0059
C2D 0.0199 0.029 0.033 -0.0035 0.0031 -0.0022
C3D 0.0233 0.034 0.031 -0.0068 0.0035 -0.0043
C4D 0.0192 0.0274 0.0279 0.0004 -0.0009 -0.0021
C5D 0.0199 0.032 0.0236 -0.0027 -0.0001 -0.0038
C6D 0.0195 0.0284 0.0229 -0.0029 0.0019 -0.0002
C7D 0.0201 0.0285 0.0224 -0.0003 -0.001 -0.0023
C8D 0.0197 0.039 0.0252 -0.0043 0.0012 -0.0008
C9D 0.0236 0.038 0.029 -0.0079 0 0.0027
C10D 0.0229 0.031 0.03 -0.0074 0.0001 -0.0027
C11D 0.0212 0.0279 0.0272 -0.0001 0.0004 -0.0006
C12D 0.0264 0.036 0.032 0.0033 -0.0047 -0.0032
C13D 0.0237 0.029 0.033 -0.0046 0.0055 -0.001
C14D 0.0255 0.029 0.032 0.0018 -0.0001 -0.0057
C15D 0.0189 0.0222 0.0214 -0.0021 0.0023 -0.0035
C16D 0.019 0.024 0.0225 -0.0029 0.0002 -0.0026
C17D 0.0222 0.0226 0.0201 -0.0021 -0.0003 -0.0022
C18D 0.0201 0.0199 0.0199 -0.0037 0.0008 -0.0025
C19D 0.0214 0.0215 0.0203 -0.0005 0.0034 -0.0031
C20D 0.0222 0.0188 0.0213 0.0005 0.0025 -0.0019
C21D 0.02 0.0237 0.0223 0.0002 0.0016 -0.0035
C22D 0.0237 0.022 0.033 0.0013 0.0014 0.0026
C23D 0.0253 0.017 0.04 0.0021 0.0019 -0.0018
C24D 0.0219 0.0226 0.031 -0.001 0.0037 -0.0055
C25D 0.0177 0.0253 0.0307 -0.001 0.0023 0.0017
C26D 0.0267 0.028 0.033 -0.0051 0.004 0.0019
C27D 0.0188 0.03 0.043 -0.0076 0.0039 -0.0017
C28D 0.028 0.031 0.033 0.001 -0.0035 0.0054
C29D 0.036 0.033 0.032 0.0008 0.0113 0.0071
C30D 0.0204 0.031 0.0271 0.0003 0.0075 -0.004
C31D 0.0251 0.033 0.0222 -0.0018 0.0053 -0.0014
C32D 0.0242 0.031 0.027 -0.0021 0.0046 -0.0035
C33D 0.054 0.032 0.034 0.0022 0.004 0.001
C34D 0.039 0.027 0.026 -0.0002 -0.0028 -0.0005
C35D 0.0296 0.027 0.0205 0.0015 -0.0034 -0.0014
C36D 0.032 0.029 0.029 0.0034 0.0047 -0.0076
C37D 0.0258 0.033 0.023 0.0008 0.0004 -0.0074
C38D 0.034 0.045 0.031 0.0022 0.0058 -0.0123
C39D 0.042 0.041 0.024 0.0014 0.0045 0
C40D 0.031 0.0235 0.027 0.0032 0.0027 -0.0036
C41D 0.035 0.037 0.0213 0.0011 -0.002 -0.0005
C42D 0.029 0.032 0.026 0.0014 -0.0004 -0.0034
C43D 0.03 0.081 0.024 0.004 0.0009 -0.004
C44D 0.0236 0.032 0.027 -0.0061 0.0033 -0.0065
C45D 0.0209 0.0261 0.0268 -0.0057 0.0039 -0.0057
C46D 0.029 0.032 0.0272 0.003 0.0073 -0.0071
C47D 0.032 0.0261 0.0228 -0.0006 0.0029 -0.0041
C48D 0.035 0.035 0.031 0.01 0.0038 -0.0053
C49D 0.041 0.034 0.042 0.006 0.007 0.0017
C50D 0.0252 0.031 0.032 -0.0008 0.0076 0.0073
C51D 0.031 0.041 0.032 0.0074 0.0029 0.0036
C52D 0.0246 0.045 0.027 -0.0069 0.0051 0.0053
C53D 0.039 0.07 0.036 -0.007 -0.002 0.002
C54A 0.041 0.056 0.057 0.025 0.012 -0.011
C55A 0.037 0.032 0.03 0.003 0.0037 -0.0056
C56A 0.059 0.038 0.05 0.013 0.015 0.002
C57A 0.062 0.043 0.057 -0.002 0.007 0.014
C58A 0.084 0.128 0.107 -0.016 0.015 0.059
loop_
_geom_bond_atom_site_label_1
_geom_bond_atom_site_label_2
_geom_bond_site_symmetry_1
_geom_bond_site_symmetry_2
Cu1 O1 1_555 1_555
Cu2 O2 1_555 1_555
Cu3 O11 1_555 1_555
Cu4 O13 1_555 1_555
O1 N3 1_555 1_555
O2 N6 1_555 1_555
O3 Cu1 1_555 1_555
O4 Cu1 1_555 1_555
O5 Cu1 1_555 1_555
O6 Cu1 1_555 1_555
O7 Cu2 1_555 1_555
O8 Cu2 1_555 1_555
O9 Cu2 1_555 1_555
O10 Cu2 1_555 1_555
O11 C50 1_555 1_555
O12 Cu3 1_555 1_555
O13 C55 1_555 1_555
O14 Cu4 1_555 1_555
N1 Cu3 1_555 1_555
N2 Cu4 1_555 1_555
N3 C7 1_555 1_555
N4 C15 1_555 1_555
N5 Cu1 1_555 1_555
N6 C21 1_555 1_555
C1 N1 1_555 1_555
H1 C1 1_555 1_555
C2 N1 1_555 1_555
H2 C2 1_555 1_555
C3 N2 1_555 1_555
H3 C3 1_555 1_555
C4 C1 1_555 1_555
C5 C4 1_555 1_555
C6 C5 1_555 1_555
H4 C6 1_555 1_555
C7 C6 1_555 1_555
C8 C7 1_555 1_555
H5 C8 1_555 1_555
C9 C8 1_555 1_555
H6 C9 1_555 1_555
C10 C5 1_555 1_555
H7 C10 1_555 1_555
C11 N3 1_555 1_555
C12 C11 1_555 1_555
H8 C12 1_555 1_555
H9 C12 1_555 1_555
H10 C12 1_555 1_555
C13 C11 1_555 1_555
H11 C13 1_555 1_555
H12 C13 1_555 1_555
H13 C13 1_555 1_555
C14 C11 1_555 1_555
H14 C14 1_555 1_555
H15 C14 1_555 1_555
H16 C14 1_555 1_555
C15 H17 1_555 1_555
C16 N4 1_555 1_555
H18 C16 1_555 1_555
C17 N5 1_555 1_555
H19 C17 1_555 1_555
C18 C15 1_555 1_555
C19 C18 1_555 1_555
C20 C19 1_555 1_555
H20 C20 1_555 1_555
C21 C20 1_555 1_555
C22 C21 1_555 1_555
H21 C22 1_555 1_555
C23 C22 1_555 1_555
H22 C23 1_555 1_555
C24 C19 1_555 1_555
H23 C24 1_555 1_555
C25 N6 1_555 1_555
C26 C25 1_555 1_555
H24 C26 1_555 1_555
H25 C26 1_555 1_555
H26 C26 1_555 1_555
C27 C25 1_555 1_555
H27 C27 1_555 1_555
H28 C27 1_555 1_555
H29 C27 1_555 1_555
C28 C25 1_555 1_555
H30 C28 1_555 1_555
H31 C28 1_555 1_555
H32 C28 1_555 1_555
C29 C30 1_555 1_555
C30 O3 1_555 1_555
C31 C30 1_555 1_555
H33 C31 1_555 1_555
C32 O4 1_555 1_555
C33 C32 1_555 1_555
C34 C35 1_555 1_555
C35 O5 1_555 1_555
C36 C35 1_555 1_555
H34 C36 1_555 1_555
C37 O6 1_555 1_555
C38 C37 1_555 1_555
C39 C40 1_555 1_555
C40 O7 1_555 1_555
C41 C40 1_555 1_555
H35 C41 1_555 1_555
C42 O8 1_555 1_555
C43 C42 1_555 1_555
C44 C45 1_555 1_555
C45 O9 1_555 1_555
C46 C45 1_555 1_555
H36 C46 1_555 1_555
C47 O10 1_555 1_555
C48 C47 1_555 1_555
C49 C50 1_555 1_555
C50 C51 1_555 1_555
C51 H37 1_555 1_555
C52 O12 1_555 1_555
C53 C52 1_555 1_555
C54 C55 1_555 1_555
C55 C56 1_555 1_555
C56 H38 1_555 1_555
C57 O14 1_555 1_555
C58 C57 1_555 1_555
F1 C29 1_555 1_555
F2 C29 1_555 1_555
F3 C29 1_555 1_555
F7 C33 1_555 1_555
F8 C33 1_555 1_555
F9 C33 1_555 1_555
F16 C34 1_555 1_555
F17 C34 1_555 1_555
F18 C34 1_555 1_555
F25 C38 1_555 1_555
F26 C38 1_555 1_555
F27 C38 1_555 1_555
F34 C39 1_555 1_555
F35 C39 1_555 1_555
F36 C39 1_555 1_555
F43 C43 1_555 1_555
F45 C43 1_555 1_555
F47 C43 1_555 1_555
F52 C48 1_555 1_555
F53 C48 1_555 1_555
F54 C48 1_555 1_555
F58 C44 1_555 1_555
F59 C44 1_555 1_555
F60 C44 1_555 1_555
F64 C49 1_555 1_555
F65 C49 1_555 1_555
F66 C49 1_555 1_555
F70 C53 1_555 1_555
F71 C53 1_555 1_555
F72 C53 1_555 1_555
F76 C54 1_555 1_555
F77 C54 1_555 1_555
F78 C54 1_555 1_555
F82 C58 1_555 1_555
F83 C58 1_555 1_555
F84 C58 1_555 1_555
Cu1D O1D 1_555 1_555
Cu2D O2D 1_555 1_555
Cu2F N4 1_555 1_555
Cu2B N4D 1_555 1_555
Cu4D N2D 1_555 1_555
O1D N3D 1_555 1_555
O2D N6D 1_555 1_555
O3D Cu1D 1_555 1_555
O4D Cu1D 1_555 1_555
O5D Cu1D 1_555 1_555
O6D Cu1D 1_555 1_555
O7D Cu2D 1_555 1_555
O8D Cu2D 1_555 1_555
O9D Cu2D 1_555 1_555
O10D Cu2D 1_555 1_555
O11D Cu3 1_555 1_555
O12D Cu3 1_555 1_555
O13A Cu4 1_555 1_555
O14A Cu4 1_555 1_555
N1D Cu3 1_555 1_555
N2D C2D 1_555 1_555
N2A Cu4 1_555 1_555
N3D C7D 1_555 1_555
N4D C15D 1_555 1_555
N4F Cu2 1_555 1_555
N4B Cu2D 1_555 1_555
N5D Cu1D 1_555 1_555
N6D C21D 1_555 1_555
C1D N1D 1_555 1_555
H1D C1D 1_555 1_555
C2D N1D 1_555 1_555
H2D C2D 1_555 1_555
C3D N2D 1_555 1_555
H3D C3D 1_555 1_555
C4D C1D 1_555 1_555
C5D C4D 1_555 1_555
C6D C5D 1_555 1_555
H4D C6D 1_555 1_555
C7D C6D 1_555 1_555
C8D C7D 1_555 1_555
H5D C8D 1_555 1_555
C9D C8D 1_555 1_555
H6D C9D 1_555 1_555
C10D C5D 1_555 1_555
H7D C10D 1_555 1_555
C11D N3D 1_555 1_555
C12D C11D 1_555 1_555
H8D C12D 1_555 1_555
H9D C12D 1_555 1_555
H10D C12D 1_555 1_555
C13D C11D 1_555 1_555
H11D C13D 1_555 1_555
H12D C13D 1_555 1_555
H13D C13D 1_555 1_555
C14D C11D 1_555 1_555
H14D C14D 1_555 1_555
H15D C14D 1_555 1_555
H16D C14D 1_555 1_555
C15D H17D 1_555 1_555
C16D N4D 1_555 1_555
H18D C16D 1_555 1_555
C17D N5D 1_555 1_555
H19D C17D 1_555 1_555
C18D C15D 1_555 1_555
C19D C18D 1_555 1_555
C20D C19D 1_555 1_555
H20D C20D 1_555 1_555
C21D C20D 1_555 1_555
C22D C21D 1_555 1_555
H21D C22D 1_555 1_555
C23D C22D 1_555 1_555
H22D C23D 1_555 1_555
C24D C19D 1_555 1_555
H23D C24D 1_555 1_555
C25D N6D 1_555 1_555
C26D C25D 1_555 1_555
H24D C26D 1_555 1_555
H25D C26D 1_555 1_555
H26D C26D 1_555 1_555
C27D C25D 1_555 1_555
H27D C27D 1_555 1_555
H28D C27D 1_555 1_555
H29D C27D 1_555 1_555
C28D C25D 1_555 1_555
H30D C28D 1_555 1_555
H31D C28D 1_555 1_555
H32D C28D 1_555 1_555
C29D C30D 1_555 1_555
C30D O3D 1_555 1_555
C31D C30D 1_555 1_555
H33D C31D 1_555 1_555
C32D O4D 1_555 1_555
C33D C32D 1_555 1_555
C34D C35D 1_555 1_555
C35D O5D 1_555 1_555
C36D C35D 1_555 1_555
H34D C36D 1_555 1_555
C37D O6D 1_555 1_555
C38D C37D 1_555 1_555
C39D C40D 1_555 1_555
C40D O7D 1_555 1_555
C41D C40D 1_555 1_555
H35D C41D 1_555 1_555
C42D O8D 1_555 1_555
C43D C42D 1_555 1_555
C44D C45D 1_555 1_555
C45D O9D 1_555 1_555
C46D C45D 1_555 1_555
H36D C46D 1_555 1_555
C47D O10D 1_555 1_555
C48D C47D 1_555 1_555
C49D C50D 1_555 1_555
C50D O11D 1_555 1_555
C51D C50D 1_555 1_555
H37D C51D 1_555 1_555
C52D O12D 1_555 1_555
C53D C52D 1_555 1_555
C54A C55A 1_555 1_555
C55A O13A 1_555 1_555
C56A C55A 1_555 1_555
H38A C56A 1_555 1_555
C57A O14A 1_555 1_555
C58A C57A 1_555 1_555
F1D C29D 1_555 1_555
F2D C29D 1_555 1_555
F3D C29D 1_555 1_555
F7D C33D 1_555 1_555
F8D C33D 1_555 1_555
F9D C33D 1_555 1_555
F16D C34D 1_555 1_555
F17D C34D 1_555 1_555
F18D C34D 1_555 1_555
F25D C38D 1_555 1_555
F26D C38D 1_555 1_555
F27D C38D 1_555 1_555
F34D C39D 1_555 1_555
F35D C39D 1_555 1_555
F36D C39D 1_555 1_555
F43D C43D 1_555 1_555
F45D C43D 1_555 1_555
F47D C43D 1_555 1_555
F52D C48D 1_555 1_555
F53D C48D 1_555 1_555
F54D C48D 1_555 1_555
F58D C44D 1_555 1_555
F59D C44D 1_555 1_555
F60D C44D 1_555 1_555
F64D C49D 1_555 1_555
F65D C49D 1_555 1_555
F66D C49D 1_555 1_555
F70D C53D 1_555 1_555
F71D C53D 1_555 1_555
F72D C53D 1_555 1_555
F76A C54A 1_555 1_555
F77A C54A 1_555 1_555
F78A C54A 1_555 1_555
F82A C58A 1_555 1_555
F83A C58A 1_555 1_555
F84A C58A 1_555 1_555
N2 C2 1_555 1_555
N5 C16 1_555 1_555
C3 C4 1_555 1_555
C9 C10 1_555 1_555
C17 C18 1_555 1_555
C23 C24 1_555 1_555
C31 C32 1_555 1_555
C36 C37 1_555 1_555
C41 C42 1_555 1_555
C46 C47 1_555 1_555
C51 C52 1_555 1_555
C56 C57 1_555 1_555
N5D C16D 1_555 1_555
C3D C4D 1_555 1_555
C9D C10D 1_555 1_555
C17D C18D 1_555 1_555
C23D C24D 1_555 1_555
C31D C32D 1_555 1_555
C36D C37D 1_555 1_555
C41D C42D 1_555 1_555
C46D C47D 1_555 1_555
C51D C52D 1_555 1_555
C56A C57A 1_555 1_555

#END
