
#######################################################################
#
#                 Cambridge Crystallographic Data Centre
#                                CCDC 
#
#######################################################################
#
# If this CIF has been generated from an entry in the Cambridge 
# Structural Database, then it will include bibliographic, chemical, 
# crystal, experimental, refinement or atomic coordinate data resulting 
# from the CCDC's data processing and validation procedures.
#
#######################################################################

data_ATAYAX
_chemical_formula_moiety         '(C22 H14 F1 N1 O10 Zn2)n'
_symmetry_cell_setting           hexagonal
_symmetry_space_group_name_H-M   'P 63/m m c'
_symmetry_Int_Tables_number      194
_space_group_name_Hall           '-P 6c 2c'
loop_
_symmetry_equiv_pos_site_id
_symmetry_equiv_pos_as_xyz
1 x,y,z
2 x-y,x,1/2+z
3 -y,x-y,z
4 -x,-y,1/2+z
5 -x+y,-x,z
6 y,-x+y,1/2+z
7 x-y,-y,-z
8 -x,-x+y,-z
9 y,x,-z
10 -y,-x,1/2-z
11 -x+y,y,1/2-z
12 x,x-y,1/2-z
13 -x,-y,-z
14 -x+y,-x,1/2-z
15 y,-x+y,-z
16 x,y,1/2-z
17 x-y,x,-z
18 -y,x-y,1/2-z
19 -x+y,y,z
20 x,x-y,z
21 -y,-x,z
22 y,x,1/2+z
23 x-y,-y,1/2+z
24 -x,-x+y,1/2+z
_cell_length_a                   18.557(7)
_cell_length_b                   18.557(7)
_cell_length_c                   24.189(10)
_cell_angle_alpha                90
_cell_angle_beta                 90
_cell_angle_gamma                120
_cell_volume                     7213.8
loop_
_atom_site_label
_atom_site_type_symbol
_atom_site_fract_x
_atom_site_fract_y
_atom_site_fract_z
C1 C 0.8832(4) 0.7664(7) 0.6979(4)
H1 H 0.8980 0.7961 0.6639
C2 C 0.9088(3) 0.5502(3) 0.5452(2)
C3 C 0.9033(5) 0.8067(11) 0.7500
C4 C 0.8237(4) 0.6475(8) 0.7500
C5 C 0.7786(2) 0.5572(4) 0.5453(2)
H2 H 0.7650 0.5300 0.5105
C6 C 0.8541(3) 0.5774(3) 0.57125(19)
C7 C 0.8741(3) 0.6194(3) 0.62090(17)
H3 H 0.9252 0.6332 0.6384
C8 C 0.8433(2) 0.6865(5) 0.7002(3)
C9 C 0.8209(2) 0.6418(4) 0.6457(3)
N1 N 0.7793(4) 0.5587(8) 0.7500
H4 H 0.7657 0.5313 0.7815
O1 O 0.89041(19) 0.5193(2) 0.49778(14)
O2 O 0.9717(2) 0.5626(2) 0.57241(15)
O3 O 0.8753(3) 0.43764(16) 0.3835(2)
Zn1 Zn 0.94603(3) 0.473016(17) 0.44975(2)
F1 F 0.9483(4) 0.8967(8) 0.7500
H4J H 0.7656 0.5313 0.7185
C1J C 0.8832(8) 0.7664(7) 0.8021(4)
H1J H 0.8981 0.7961 0.8361
C2J C 0.6414(4) 0.5502(3) 0.9548(2)
C5J C 0.7786(4) 0.5572(4) 0.9547(2)
H2J H 0.7650 0.5300 0.9895
C6J C 0.7233(4) 0.5774(3) 0.92875(19)
C7J C 0.7453(4) 0.6194(3) 0.87910(17)
H3J H 0.7080 0.6332 0.8616
C8J C 0.8432(5) 0.6865(5) 0.7998(3)
C9J C 0.8209(4) 0.6418(4) 0.8543(3)
O1J O 0.62889(28) 0.5193(2) 1.00222(14)
O2J O 0.5909(3) 0.5626(2) 0.92759(15)
C2O C 0.9088(3) 0.5502(3) 0.9548(2)
C6O C 0.8541(3) 0.5774(3) 0.92875(19)
C7O C 0.8741(3) 0.6194(3) 0.87910(17)
H3O H 0.9252 0.6332 0.8616
O1O O 0.89041(19) 0.5193(2) 1.00222(14)
O2O O 0.9717(2) 0.5626(2) 0.92759(15)
C2R C 0.6414(4) 0.5502(3) 0.5452(2)
C6R C 0.7233(4) 0.5774(3) 0.57125(19)
C7R C 0.7453(4) 0.6194(3) 0.62090(17)
H3R H 0.7080 0.6332 0.6384
O1R O 0.62889(28) 0.5193(2) 0.49778(14)
O2R O 0.5909(3) 0.5626(2) 0.57241(15)
O3B O 0.56236(16) 0.43766(34) 0.3835(2)
Zn1B Zn 0.526984(17) 0.473014(34) 0.44975(2)
O1B O 0.4807(2) 0.37111(28) 0.49778(14)
O1S O 0.89041(19) 0.37111(28) 0.49778(14)
O2F O 0.4091(3) 0.4374(2) 0.42759(15)
O2G O 1.0283(2) 0.5909(3) 0.42759(15)
O2L O 1.0283(2) 0.4374(2) 0.42759(15)
O2N O 0.5626(2) 0.5909(3) 0.42759(15)
Zn1C Zn 1.05397(3) 0.526984(17) 0.94975(2)
Zn1E Zn 0.473016(17) 0.526986(34) 0.94975(2)
Zn1F Zn 0.473014(34) 0.526984(17) 0.55025(2)
Zn1G Zn 1.05397(3) 0.526986(34) 0.55025(2)
Zn1J Zn 0.526986(34) 0.473016(17) 1.05025(2)
Zn1K Zn 0.94603(3) 0.473014(34) 1.05025(2)
loop_
_geom_bond_atom_site_label_1
_geom_bond_atom_site_label_2
_geom_bond_site_symmetry_1
_geom_bond_site_symmetry_2
C1 H1 1_555 1_555
C2 C6 1_555 1_555
C3 C1 1_555 1_555
C4 C8 1_555 1_555
C5 H2 1_555 1_555
C6 C5 1_555 1_555
C7 C6 1_555 1_555
H3 C7 1_555 1_555
C8 C1 1_555 1_555
C9 C7 1_555 1_555
N1 C4 1_555 1_555
H4 N1 1_555 1_555
O1 C2 1_555 1_555
O2 C2 1_555 1_555
O3 Zn1 1_555 1_555
Zn1 O1 1_555 1_555
F1 C3 1_555 1_555
H4J N1 1_555 1_555
C1J C3 1_555 1_555
H1J C1J 1_555 1_555
C2J C6J 1_555 1_555
C5J H2J 1_555 1_555
C6J C5J 1_555 1_555
C7J C6J 1_555 1_555
H3J C7J 1_555 1_555
C8J C4 1_555 1_555
C9J C7J 1_555 1_555
O1J C2J 1_555 1_555
O2J C2J 1_555 1_555
C2O C6O 1_555 1_555
C6O C5J 1_555 1_555
C7O C9J 1_555 1_555
H3O C7O 1_555 1_555
O1O C2O 1_555 1_555
O2O C2O 1_555 1_555
C2R C6R 1_555 1_555
C6R C5 1_555 1_555
C7R C9 1_555 1_555
H3R C7R 1_555 1_555
O1R C2R 1_555 1_555
O2R C2R 1_555 1_555
O3B Zn1B 1_555 1_555
Zn1B O1R 1_555 1_555
O1B Zn1B 1_555 1_555
O1S Zn1 1_555 1_555
O2F Zn1B 1_555 1_555
O2G Zn1 1_555 1_555
O2L Zn1 1_555 1_555
O2N Zn1B 1_555 1_555
Zn1C O2O 1_555 1_555
Zn1E O2J 1_555 1_555
Zn1F O2R 1_555 1_555
Zn1G O2 1_555 1_555
Zn1J O1J 1_555 1_555
Zn1K O1O 1_555 1_555
C8 C9 1_555 1_555
C1J C8J 1_555 1_555
C8J C9J 1_555 1_555
C6O C7O 1_555 1_555
C6R C7R 1_555 1_555

#END
