
#######################################################################
#
#                 Cambridge Crystallographic Data Centre
#                                CCDC 
#
#######################################################################
#
# If this CIF has been generated from an entry in the Cambridge 
# Structural Database, then it will include bibliographic, chemical, 
# crystal, experimental, refinement or atomic coordinate data resulting 
# from the CCDC's data processing and validation procedures.
#
#######################################################################

data_PEPLIG
_chemical_formula_moiety         '(C12 H8 O5 S1 V1)n'
_symmetry_cell_setting           orthorhombic
_symmetry_space_group_name_H-M   'P 21 21 21'
_symmetry_Int_Tables_number      19
_space_group_name_Hall           'P 2ac 2ab'
loop_
_symmetry_equiv_pos_site_id
_symmetry_equiv_pos_as_xyz
1 x,y,z
2 1/2-x,-y,1/2+z
3 -x,1/2+y,1/2-z
4 1/2+x,1/2-y,-z
_cell_length_a                   6.7858(10)
_cell_length_b                   12.6180(19)
_cell_length_c                   17.086(3)
_cell_angle_alpha                90
_cell_angle_beta                 90
_cell_angle_gamma                90
_cell_volume                     1462.96
loop_
_atom_site_label
_atom_site_type_symbol
_atom_site_fract_x
_atom_site_fract_y
_atom_site_fract_z
_atom_site_U_iso_or_equiv
_atom_site_thermal_displace_type
S1 S -0.8905(13) 0.3994(5) -0.0230(4) 0.2943 Uani
C1 C -0.6759(13) 0.4130(9) -0.0778(6) 0.1163 Uani
H1 H -0.5824 0.4662 -0.0716 0.1400 Uiso
C2 C -0.6666(16) 0.3323(8) -0.1318(6) 0.0920 Uani
H2 H -0.5652 0.3238 -0.1678 0.1100 Uiso
C3 C -0.8290(18) 0.2645(7) -0.1256(6) 0.0997 Uani
H3 H -0.8366 0.2035 -0.1559 0.1190 Uiso
C4 C -0.9764(19) 0.2896(8) -0.0743(7) 0.1683 Uani
H4 H -1.0967 0.2553 -0.0681 0.2020 Uiso
V1 V 0.05886(7) 0.73460(4) -0.00074(4) 0.0116 Uani
O1 O -0.2224(3) 0.81466(17) 0.00396(16) 0.0146 Uani
O2 O -0.0620(5) 0.6551(2) -0.08833(16) 0.0203 Uani
O3 O -0.4410(5) 0.3650(2) -0.42387(16) 0.0211 Uani
O4 O -0.1096(5) 0.3495(3) -0.42316(17) 0.0218 Uani
O5 O -0.3902(5) 0.6701(2) -0.08930(16) 0.0211 Uani
C5 C -0.2393(7) 0.5744(3) -0.1907(2) 0.0194 Uani
C6 C -0.0695(8) 0.5275(4) -0.2199(3) 0.0340 Uani
H5 H 0.0505 0.5364 -0.1944 0.0410 Uiso
C7 C -0.2274(7) 0.6375(4) -0.1174(2) 0.0174 Uani
C8 C -0.4256(8) 0.5033(4) -0.2974(3) 0.0300 Uani
H6 H -0.5453 0.4955 -0.3233 0.0360 Uiso
C9 C -0.4173(7) 0.5634(4) -0.2301(2) 0.0297 Uani
H7 H -0.5302 0.5963 -0.2111 0.0360 Uiso
C10 C -0.2603(7) 0.4550(3) -0.3268(2) 0.0194 Uani
C11 C -0.0810(7) 0.4670(4) -0.2881(3) 0.0323 Uani
H8 H 0.0315 0.4345 -0.3079 0.0390 Uiso
C12 C -0.2702(7) 0.3846(3) -0.3968(2) 0.0177 Uani
V1A V -0.55886(7) 0.26540(4) -0.50074(4) 0.0116 Uani
V1B V -0.05886(7) 0.23460(4) -0.49926(4) 0.0116 Uani
V1C V -0.44114(7) 0.76540(4) 0.00074(4) 0.0116 Uani
O1C O 0.2776(3) 0.68534(17) -0.00396(16) 0.0146 Uani
O3A O -0.0590(5) 0.6350(2) 0.07613(16) 0.0211 Uani
O4B O 0.1096(5) 0.8495(3) -0.07684(17) 0.0218 Uani
O5C O 0.1098(5) 0.8299(2) 0.08930(16) 0.0211 Uani
loop_
_atom_site_aniso_label
_atom_site_aniso_U_11
_atom_site_aniso_U_22
_atom_site_aniso_U_33
_atom_site_aniso_U_23
_atom_site_aniso_U_13
_atom_site_aniso_U_12
S1 0.503 0.179 0.201 0.002 -0.007 0.113
C1 0.122 0.121 0.106 0.056 0.017 -0.01
C2 0.12 0.067 0.089 0.016 0.021 0.013
C3 0.174 0.05 0.075 -0.026 0.001 0.025
C4 0.185 0.083 0.237 0.053 0.014 0.001
V1 0.008 0.018 0.0089 -0.0002 0.0006 -0.0005
O1 0.0096 0.0187 0.0155 -0.003 -0.0002 0.0019
O2 0.0131 0.0294 0.0183 -0.0116 -0.0036 0.0022
O3 0.0128 0.0285 0.0219 -0.0087 -0.0045 0.0028
O4 0.0132 0.0326 0.0196 -0.0115 0.0004 -0.0025
O5 0.0095 0.0356 0.0181 -0.0099 0.0038 -0.0019
C5 0.013 0.027 0.0183 -0.006 -0.0009 0.0018
C6 0.012 0.056 0.034 -0.031 -0.002 -0.001
C7 0.012 0.026 0.0143 -0.0032 -0.0023 -0.0012
C8 0.011 0.048 0.031 -0.02 -0.0042 0.003
C9 0.015 0.047 0.027 -0.017 -0.0018 0.004
C10 0.015 0.026 0.0173 -0.0084 0.0004 -0.0019
C11 0.012 0.052 0.033 -0.027 -0.0006 0.008
C12 0.019 0.021 0.0132 -0.0032 0.0022 0.0014
V1A 0.008 0.018 0.0089 0.0002 -0.0006 -0.0005
V1B 0.008 0.018 0.0089 0.0002 0.0006 0.0005
V1C 0.008 0.018 0.0089 -0.0002 -0.0006 0.0005
O1C 0.0096 0.0187 0.0155 -0.003 0.0002 -0.0019
O3A 0.0128 0.0285 0.0219 0.0087 0.0045 0.0028
O4B 0.0132 0.0326 0.0196 0.0115 0.0004 0.0025
O5C 0.0095 0.0356 0.0181 -0.0099 -0.0038 0.0019
loop_
_geom_bond_atom_site_label_1
_geom_bond_atom_site_label_2
_geom_bond_site_symmetry_1
_geom_bond_site_symmetry_2
S1 C1 1_555 1_555
C1 H1 1_555 1_555
C2 C1 1_555 1_555
H2 C2 1_555 1_555
C3 C2 1_555 1_555
H3 C3 1_555 1_555
C4 S1 1_555 1_555
H4 C4 1_555 1_555
V1 O1 1_555 1_555
O1 V1C 1_555 1_555
O2 V1 1_555 1_555
O3 C12 1_555 1_555
O4 C12 1_555 1_555
O5 C7 1_555 1_555
C5 C6 1_555 1_555
C6 H5 1_555 1_555
C7 O2 1_555 1_555
C8 H6 1_555 1_555
C9 C5 1_555 1_555
H7 C9 1_555 1_555
C10 C8 1_555 1_555
C11 C6 1_555 1_555
H8 C11 1_555 1_555
C12 C10 1_555 1_555
V1A O3 1_555 1_555
V1B O4 1_555 1_555
V1C O5 1_555 1_555
O1C V1 1_555 1_555
O3A V1 1_555 1_555
O4B V1 1_555 1_555
O5C V1 1_555 1_555
C3 C4 1_555 1_555
C5 C7 1_555 1_555
C8 C9 1_555 1_555
C10 C11 1_555 1_555

#END
