
#######################################################################
#
#                 Cambridge Crystallographic Data Centre
#                                CCDC 
#
#######################################################################
#
# If this CIF has been generated from an entry in the Cambridge 
# Structural Database, then it will include bibliographic, chemical, 
# crystal, experimental, refinement or atomic coordinate data resulting 
# from the CCDC's data processing and validation procedures.
#
#######################################################################

data_PEPLAY
_chemical_formula_moiety         'C19 H4 O10 V2'
_symmetry_cell_setting           orthorhombic
_symmetry_space_group_name_H-M   'P 21 21 21'
_symmetry_Int_Tables_number      19
_space_group_name_Hall           'P 2ac 2ab'
loop_
_symmetry_equiv_pos_site_id
_symmetry_equiv_pos_as_xyz
1 x,y,z
2 1/2-x,-y,1/2+z
3 -x,1/2+y,1/2-z
4 1/2+x,1/2-y,-z
_cell_length_a                   6.8094(3)
_cell_length_b                   12.4220(6)
_cell_length_c                   17.1733(8)
_cell_angle_alpha                90
_cell_angle_beta                 90
_cell_angle_gamma                90
_cell_volume                     1452.63
loop_
_atom_site_label
_atom_site_type_symbol
_atom_site_fract_x
_atom_site_fract_y
_atom_site_fract_z
_atom_site_U_iso_or_equiv
_atom_site_thermal_displace_type
V1 V 0.06055(5) 0.26567(3) 1.00084(3) 0.0127 Uani
O1 O 0.2783(3) 0.31685(14) 1.00492(13) 0.0174 Uani
O2 O 0.1122(4) 0.1711(2) 0.91063(13) 0.0242 Uani
O3 O 0.1119(4) 0.1483(2) 1.07571(14) 0.0247 Uani
O4 O -0.0606(4) 0.3446(2) 1.08929(13) 0.0241 Uani
O5 O -0.0606(4) 0.3672(2) 0.92476(14) 0.0242 Uani
C1 C 0.2735(5) 0.1386(3) 0.88222(17) 0.0192 Uani
C2 C 0.2617(5) 0.0764(3) 0.80846(18) 0.0218 Uani
C3 C 0.0801(6) 0.0522(4) 0.7761(2) 0.0394 Uani
H1 H -0.0346 0.0758 0.8000 0.0470 Uiso
C4 C 0.0709(6) -0.0074(4) 0.7079(2) 0.0402 Uani
H2 H -0.0506 -0.0236 0.6862 0.0480 Uiso
C5 C 0.4327(6) 0.0403(4) 0.7725(2) 0.0390 Uani
H3 H 0.5546 0.0557 0.7942 0.0470 Uiso
C6 C 0.4203(6) -0.0185(4) 0.7045(2) 0.0403 Uani
H4 H 0.5344 -0.0421 0.6801 0.0480 Uiso
C7 C 0.2707(5) 0.1130(3) 1.10193(17) 0.0198 Uani
C8 C 0.2388(5) -0.0426(3) 0.67237(18) 0.0246 Uani
V1C V 0.56055(5) 0.23433(3) 0.99916(3) 0.0127 Uani
O1C O -0.2217(3) 0.18315(14) 0.99508(13) 0.0174 Uani
O4C O 0.4394(4) 0.1554(2) 0.91071(13) 0.0241 Uani
O5C O 0.4394(4) 0.1328(2) 1.07524(14) 0.0242 Uani
C1C C -0.2265(5) 0.3614(3) 1.11778(17) 0.0192 Uani
C7C C -0.2293(5) 0.3870(3) 0.89807(17) 0.0198 Uani
C7A C 0.2293(5) -0.1130(3) 0.60193(17) 0.0198 Uani
C8A C 0.2612(5) 0.0426(3) 1.17237(18) 0.0246 Uani
C9 C 0.401(2) 0.7757(12) 0.8616(8) 0.1060 Uiso
C10 C 0.596(2) 0.7773(13) 0.8604(8) 0.1080 Uiso
O6 O 0.005(2) 0.7767(13) 0.8600(9) 0.1080 Uiso
C11 C 0.731(3) 0.8380(13) 0.9133(9) 0.0930 Uiso
C12 C 0.330(2) 0.8346(13) 0.9143(9) 0.0900 Uiso
C13 C 0.129(2) 0.8362(13) 0.9152(9) 0.0910 Uiso
C14 C 0.438(2) 0.8915(11) 0.9670(8) 0.1080 Uiso
C15 C 0.639(2) 0.8958(12) 0.9674(8) 0.1090 Uiso
O7 O 0.052(2) 0.8925(11) 0.9667(8) 0.1080 Uiso
loop_
_atom_site_aniso_label
_atom_site_aniso_U_11
_atom_site_aniso_U_22
_atom_site_aniso_U_33
_atom_site_aniso_U_23
_atom_site_aniso_U_13
_atom_site_aniso_U_12
V1 0.0113(2) 0.0167(2) 0.01005(19) 0.0000(2) -0.0003(2) 0.00077(13)
O1 0.0151(8) 0.0190(9) 0.0180(8) 0.0002(10) -0.0009(9) 0.0005(6)
O2 0.0166(11) 0.0356(14) 0.0203(11) -0.0129(10) -0.0004(8) -0.0003(10)
O3 0.0188 0.0316 0.0237 0.0149 -0.005 -0.002
O4 0.0182 0.0345 0.0196 -0.0127 0.0028 -0.0013
O5 0.0186 0.0286 0.0254 0.0121 -0.0046 -0.001
C1 0.0202(15) 0.0222(14) 0.0151(12) -0.0060(11) 0.0007(11) -0.0020(12)
C2 0.0143(14) 0.0318(17) 0.0193(13) -0.0134(12) -0.0006(11) 0.0022(13)
C3 0.0116(15) 0.071(3) 0.0356(19) -0.034(2) -0.0007(14) 0.0046(17)
C4 0.0175(17) 0.067(3) 0.036(2) -0.033(2) -0.0055(15) -0.0017(18)
C5 0.0141(15) 0.068(3) 0.035(2) -0.0320(19) 0.0018(15) -0.0021(18)
C6 0.0210(18) 0.067(3) 0.033(2) -0.032(2) 0.0037(15) 0.0007(19)
C7 0.0204 0.0234 0.0156 0.0071 -0.0021 -0.0003
C8 0.0221(15) 0.0310(17) 0.0206(13) -0.0131(13) -0.0017(12) -0.0018(14)
V1C 0.0113 0.0167 0.01005 0 0.0003 -0.00077
O1C 0.0151 0.019 0.018 0.0002 0.0009 -0.0005
O4C 0.0182(11) 0.0345(12) 0.0196(10) -0.0127(9) -0.0028(9) 0.0013(11)
O5C 0.0186 0.0286 0.0254 0.0121 0.0046 0.001
C1C 0.0202 0.0222 0.0151 -0.006 -0.0007 0.002
C7C 0.0204 0.0234 0.0156 0.0071 0.0021 0.0003
C7A 0.0204(15) 0.0234(15) 0.0156(12) -0.0071(11) 0.0021(11) -0.0003(12)
C8A 0.0221 0.031 0.0206 0.0131 0.0017 -0.0018
loop_
_geom_bond_atom_site_label_1
_geom_bond_atom_site_label_2
_geom_bond_site_symmetry_1
_geom_bond_site_symmetry_2
V1 O1 1_555 1_555
O1 V1C 1_555 1_555
O2 V1 1_555 1_555
O3 V1 1_555 1_555
O4 V1 1_555 1_555
O5 V1 1_555 1_555
C1 O2 1_555 1_555
C2 C1 1_555 1_555
C3 C2 1_555 1_555
H1 C3 1_555 1_555
C4 C3 1_555 1_555
H2 C4 1_555 1_555
C5 C2 1_555 1_555
H3 C5 1_555 1_555
C6 C5 1_555 1_555
H4 C6 1_555 1_555
C7 O3 1_555 1_555
C8 C4 1_555 1_555
C9 C10 1_555 1_555
C10 C11 1_555 1_555
O6 C13 1_555 1_555
C11 C15 1_555 1_555
C12 C9 1_555 1_555
C13 C12 1_555 1_555
C14 C12 1_555 1_555
C15 C14 1_555 1_555
O7 C13 1_555 1_555
V1C O4C 1_555 1_555
O1C V1 1_555 1_555
O4C C1 1_555 1_555
O5C C7 1_555 1_555
C1C O4 1_555 1_555
C7C O5 1_555 1_555
C7A C8 1_555 1_555
C8A C7 1_555 1_555
C6 C8 1_555 1_555
V1C O5C 1_555 1_555

#END
