
#######################################################################
#
#                 Cambridge Crystallographic Data Centre
#                                CCDC 
#
#######################################################################
#
# If this CIF has been generated from an entry in the Cambridge 
# Structural Database, then it will include bibliographic, chemical, 
# crystal, experimental, refinement or atomic coordinate data resulting 
# from the CCDC's data processing and validation procedures.
#
#######################################################################

data_PEPLOM
_chemical_formula_moiety         '(C11 H10 O6 V1)n'
_symmetry_cell_setting           orthorhombic
_symmetry_space_group_name_H-M   'P n m a'
_symmetry_Int_Tables_number      62
_space_group_name_Hall           '-P 2ac 2n'
loop_
_symmetry_equiv_pos_site_id
_symmetry_equiv_pos_as_xyz
1 x,y,z
2 1/2-x,-y,1/2+z
3 -x,1/2+y,-z
4 1/2+x,1/2-y,1/2-z
5 -x,-y,-z
6 1/2+x,y,1/2-z
7 x,1/2-y,z
8 1/2-x,1/2+y,1/2+z
_cell_length_a                   6.796(3)
_cell_length_b                   18.410(8)
_cell_length_c                   10.214(4)
_cell_angle_alpha                90
_cell_angle_beta                 90
_cell_angle_gamma                90
_cell_volume                     1277.92
loop_
_atom_site_label
_atom_site_type_symbol
_atom_site_fract_x
_atom_site_fract_y
_atom_site_fract_z
_atom_site_U_iso_or_equiv
_atom_site_thermal_displace_type
V1 V 0.1993(4) 0.7500 0.7323(2) 0.0153 Uiso
O1 O 0.1483(11) 0.6725(4) 0.8603(6) 0.0196 Uiso
O2 O -0.0160(15) 0.7500 0.6716(9) 0.0160 Uiso
O3 O -0.1807(12) 0.6717(4) 0.8758(7) 0.0245 Uiso
C1 C -0.0138(16) 0.6437(6) 0.8916(9) 0.0170 Uiso
C2 C -0.0072(17) 0.5697(6) 0.9523(10) 0.0210 Uiso
C3 C -0.177(2) 0.5346(7) 0.9861(11) 0.0340 Uiso
H1 H -0.2974 0.5579 0.9760 0.0410 Uiso
C4 C 0.170(2) 0.5350(7) 0.9648(11) 0.0340 Uiso
H2 H 0.2859 0.5584 0.9401 0.0410 Uiso
V1E V -0.3007(4) 0.7500 0.7677(2) 0.0153 Uiso
V1D V -0.1993(4) 0.2500 1.2677(2) 0.0153 Uiso
V1G V 0.3007(4) 0.2500 1.2323(2) 0.0153 Uiso
O1D O -0.1483(11) 0.3275(4) 1.1397(6) 0.0196 Uiso
O1F O 0.1483(11) 0.8275(4) 0.8603(6) 0.0196 Uiso
O2E O 0.4840(15) 0.7500 0.8284(9) 0.0160 Uiso
O3D O 0.1807(12) 0.3283(4) 1.1242(7) 0.0245 Uiso
O3E O 0.3193(12) 0.6717(4) 0.6242(7) 0.0245 Uiso
O3C O 0.3193(12) 0.8283(4) 0.6242(7) 0.0245 Uiso
C1D C 0.0138(16) 0.3563(6) 1.1084(9) 0.0170 Uiso
C2D C 0.0072(17) 0.4303(6) 1.0477(10) 0.0210 Uiso
C3D C 0.177(2) 0.4654(7) 1.0139(11) 0.0340 Uiso
H1D H 0.2974 0.4421 1.0240 0.0410 Uiso
C4D C -0.170(2) 0.4650(7) 1.0352(11) 0.0340 Uiso
H2D H -0.2859 0.4416 1.0599 0.0410 Uiso
O4 O 0.983(3) 0.7500 0.1476(18) 0.0760 Uiso
C5 C 0.984(4) 0.7500 0.267(2) 0.0520 Uiso
C6 C 0.979(3) 0.6822(11) 0.3431(18) 0.0700 Uiso
H3 H 0.8586 0.6798 0.3921 0.1050 Uiso
H4 H 1.0887 0.6811 0.4021 0.1050 Uiso
H5 H 0.9863 0.6414 0.2846 0.1050 Uiso
C6F C 0.979(3) 0.8178(11) 0.3431(18) 0.0700 Uiso
H3F H 0.8586 0.8202 0.3921 0.1050 Uiso
H4F H 1.0887 0.8189 0.4021 0.1050 Uiso
H5F H 0.9863 0.8586 0.2846 0.1050 Uiso
loop_
_geom_bond_atom_site_label_1
_geom_bond_atom_site_label_2
_geom_bond_site_symmetry_1
_geom_bond_site_symmetry_2
V1 O1 1_555 1_555
O1 C1 1_555 1_555
O2 V1 1_555 1_555
O3 C1 1_555 1_555
C1 C2 1_555 1_555
C2 C3 1_555 1_555
C3 H1 1_555 1_555
C4 C2 1_555 1_555
H2 C4 1_555 1_555
O4 C5 1_555 1_555
C5 C6 1_555 1_555
C6 H3 1_555 1_555
H4 C6 1_555 1_555
H5 C6 1_555 1_555
V1E O2 1_555 1_555
V1D O1D 1_555 1_555
V1G O3D 1_555 1_555
O1D C1D 1_555 1_555
O1F V1 1_555 1_555
O2E V1 1_555 1_555
O3D C1D 1_555 1_555
O3E V1 1_555 1_555
O3C V1 1_555 1_555
C1D C2D 1_555 1_555
C2D C3D 1_555 1_555
C3D C4 1_555 1_555
H1D C3D 1_555 1_555
C4D C3 1_555 1_555
H2D C4D 1_555 1_555
C6F C5 1_555 1_555
H3F C6F 1_555 1_555
H4F C6F 1_555 1_555
H5F C6F 1_555 1_555
O3 V1E 1_555 1_555
C2D C4D 1_555 1_555

#END
