
#######################################################################
#
#                 Cambridge Crystallographic Data Centre
#                                CCDC 
#
#######################################################################
#
# If this CIF has been generated from an entry in the Cambridge 
# Structural Database, then it will include bibliographic, chemical, 
# crystal, experimental, refinement or atomic coordinate data resulting 
# from the CCDC's data processing and validation procedures.
#
#######################################################################

data_PEPLEC
_chemical_formula_moiety         '(C14 H11 N1 O5 V1)n'
_symmetry_cell_setting           orthorhombic
_symmetry_space_group_name_H-M   'P 21 21 21'
_symmetry_Int_Tables_number      19
_space_group_name_Hall           'P 2ac 2ab'
loop_
_symmetry_equiv_pos_site_id
_symmetry_equiv_pos_as_xyz
1 x,y,z
2 1/2-x,-y,1/2+z
3 -x,1/2+y,1/2-z
4 1/2+x,1/2-y,-z
_cell_length_a                   6.7849(10)
_cell_length_b                   13.0309(19)
_cell_length_c                   16.851(2)
_cell_angle_alpha                90
_cell_angle_beta                 90
_cell_angle_gamma                90
_cell_volume                     1489.85
loop_
_atom_site_label
_atom_site_type_symbol
_atom_site_fract_x
_atom_site_fract_y
_atom_site_fract_z
_atom_site_U_iso_or_equiv
_atom_site_thermal_displace_type
C1 C 1.2704(5) 0.6323(2) 0.61301(13) 0.0146 Uani
C2 C 1.2607(5) 0.5652(2) 0.68537(13) 0.0175 Uani
C3 C 1.0822(5) 0.5508(3) 0.72343(16) 0.0263 Uani
H1 H 0.9696 0.5828 0.7039 0.0320 Uiso
C4 C 1.0693(5) 0.4894(3) 0.79006(17) 0.0280 Uani
H2 H 0.9486 0.4793 0.8150 0.0340 Uiso
C5 C 1.4202(5) 0.4591(3) 0.78213(17) 0.0270 Uani
H3 H 1.5342 0.4296 0.8025 0.0320 Uiso
C6 C 1.4297(5) 0.5195(3) 0.71457(17) 0.0253 Uani
H4 H 1.5496 0.5293 0.6889 0.0300 Uiso
C7 C 1.2280(5) 0.3753(2) 0.89051(14) 0.0147 Uani
C8 C 1.2396(5) 0.4426(2) 0.81955(14) 0.0187 Uani
O1 O 1.27884(17) 0.81290(9) 0.49881(11) 0.0136 Uani
O2 O 1.1099(3) 0.66511(16) 0.58593(10) 0.0190 Uani
O3 O 1.0604(4) 0.35603(16) 0.91872(10) 0.0186 Uani
O4 O 1.4404(4) 0.65103(16) 0.58604(10) 0.0186 Uani
O5 O 1.3890(3) 0.34023(16) 0.91691(11) 0.0194 Uani
V1 V 1.05922(4) 0.76464(2) 0.49966(3) 0.0095 Uani
O1C O 0.77884(17) 0.68710(9) 0.50119(11) 0.0136 Uani
O3B O 0.9396(4) 0.85603(16) 0.58128(10) 0.0186 Uani
O4C O 0.9404(4) 0.84897(16) 0.41396(10) 0.0186 Uani
O5A O 1.1110(3) 0.65977(16) 0.41691(11) 0.0194 Uani
V1C V 1.55922(4) 0.73536(2) 0.50034(3) 0.0095 Uani
V1B V 0.94078(4) 0.26464(2) 1.00034(3) 0.0095 Uani
V1A V 1.44078(4) 0.23536(2) 0.99966(3) 0.0095 Uani
C9 C -0.0112(9) 0.1389(4) 0.4586(3) 0.1100 Uani
C10 C 0.1648(13) 0.0854(3) 0.4671(3) 0.1377 Uani
H5 H 0.1753 0.0337 0.5050 0.1650 Uiso
C11 C 0.3250(9) 0.1091(6) 0.4191(5) 0.2633 Uani
H6 H 0.4427 0.0733 0.4248 0.3160 Uiso
C12 C 0.3093(11) 0.1863(7) 0.3626(5) 0.2683 Uani
H7 H 0.4165 0.2022 0.3304 0.3240 Uiso
C13 C 0.1333(15) 0.2398(4) 0.3540(3) 0.1900 Uani
H8 H 0.1228 0.2915 0.3162 0.2280 Uiso
C14 C -0.0269(10) 0.2161(4) 0.4020(4) 0.1200 Uani
H9 H -0.1446 0.2519 0.3963 0.1440 Uiso
N1 N -0.172(2) 0.1127(8) 0.4961(6) 0.2680 Uani
H10 H -0.1714 0.0606 0.5274 0.3220 Uiso
H11 H -0.2783 0.1475 0.4894 0.3220 Uiso
loop_
_atom_site_aniso_label
_atom_site_aniso_U_11
_atom_site_aniso_U_22
_atom_site_aniso_U_33
_atom_site_aniso_U_23
_atom_site_aniso_U_13
_atom_site_aniso_U_12
C1 0.0162 0.0154 0.0121 0.0046 0.0021 -0.0035
C2 0.0158 0.0225 0.0142 0.008 -0.0005 0.0002
C3 0.0135 0.0383 0.027 0.0175 0.0028 0.0056
C4 0.0127 0.044 0.0272 0.0199 0.0019 0.0033
C5 0.0146 0.0395 0.0269 0.0204 -0.0008 0.0024
C6 0.0161 0.0366 0.0233 0.0161 0.007 0.0009
C7 0.0142 0.0167 0.0133 0.0013 -0.0017 0.0024
C8 0.0147 0.0224 0.0189 0.0091 0.0024 -0.0012
O1 0.0120(5) 0.0139(5) 0.0150(5) 0.0012(10) -0.0010(10) 0.0000(4)
O2 0.0143 0.0257 0.0169 0.0128 -0.0022 -0.0006
O3 0.0129 0.0244 0.0186 0.0117 0.0035 0.001
O4 0.0156 0.0224 0.0177 0.0093 0.0024 0.0009
O5 0.014 0.0249 0.0194 0.0116 -0.0011 -0.0014
V1 0.00839(17) 0.01211(17) 0.00810(16) 0.0000(2) -0.0006(2) 0.00050(9)
O1C 0.012 0.0139 0.015 0.0012 0.001 0
O3B 0.0129 0.0244 0.0186 -0.0117 0.0035 -0.001
O4C 0.0156(11) 0.0224(9) 0.0177(9) 0.0093(8) -0.0024(9) -0.0009(11)
O5A 0.014 0.0249 0.0194 -0.0116 0.0011 -0.0014
V1C 0.00839 0.01211 0.0081 0 0.0006 -0.0005
V1B 0.00839 0.01211 0.0081 0 -0.0006 -0.0005
V1A 0.00839 0.01211 0.0081 0 0.0006 0.0005
C9 0.133(6) 0.103(5) 0.094(4) -0.039(4) 0.040(5) -0.065(5)
C10 0.193(10) 0.080(4) 0.140(6) -0.047(4) -0.069(7) 0.022(6)
C11 0.104(7) 0.286(16) 0.40(2) -0.293(16) 0.040(10) -0.046(8)
C12 0.40(3) 0.175(13) 0.230(14) -0.115(12) 0.078(17) -0.130(17)
C13 0.371(19) 0.111(6) 0.088(6) -0.008(4) 0.057(8) -0.113(10)
C14 0.165(7) 0.077(4) 0.118(5) -0.021(4) -0.006(6) -0.003(5)
N1 0.310(16) 0.215(10) 0.279(13) -0.094(9) -0.038(15) -0.077(10)
loop_
_geom_bond_atom_site_label_1
_geom_bond_atom_site_label_2
_geom_bond_site_symmetry_1
_geom_bond_site_symmetry_2
C1 C2 1_555 1_555
C2 C3 1_555 1_555
C3 H1 1_555 1_555
C4 C3 1_555 1_555
H2 C4 1_555 1_555
C5 H3 1_555 1_555
C6 C2 1_555 1_555
H4 C6 1_555 1_555
C7 C8 1_555 1_555
C8 C4 1_555 1_555
O1 V1 1_555 1_555
O2 C1 1_555 1_555
O3 C7 1_555 1_555
O4 C1 1_555 1_555
O5 C7 1_555 1_555
V1 O2 1_555 1_555
C9 C10 1_555 1_555
C10 H5 1_555 1_555
C11 C10 1_555 1_555
H6 C11 1_555 1_555
C12 C11 1_555 1_555
H7 C12 1_555 1_555
C13 C12 1_555 1_555
H8 C13 1_555 1_555
C14 C9 1_555 1_555
H9 C14 1_555 1_555
N1 C9 1_555 1_555
H10 N1 1_555 1_555
H11 N1 1_555 1_555
O1C V1 1_555 1_555
O3B V1 1_555 1_555
O4C V1 1_555 1_555
O5A V1 1_555 1_555
V1C O1 1_555 1_555
V1B O3 1_555 1_555
V1A O5 1_555 1_555
C5 C6 1_555 1_555
C5 C8 1_555 1_555
O4 V1C 1_555 1_555
C13 C14 1_555 1_555

#END
