
#######################################################################
#
#                 Cambridge Crystallographic Data Centre
#                                CCDC 
#
#######################################################################
#
# If this CIF has been generated from an entry in the Cambridge 
# Structural Database, then it will include bibliographic, chemical, 
# crystal, experimental, refinement or atomic coordinate data resulting 
# from the CCDC's data processing and validation procedures.
#
#######################################################################

data_WEYPUN
_chemical_formula_moiety         '(C16 H16 Mn1 N2 O6)n'
_symmetry_cell_setting           orthorhombic
_symmetry_space_group_name_H-M   'P b c a'
_symmetry_Int_Tables_number      61
_space_group_name_Hall           '-P 2ac 2ab'
loop_
_symmetry_equiv_pos_site_id
_symmetry_equiv_pos_as_xyz
1 x,y,z
2 1/2-x,-y,1/2+z
3 -x,1/2+y,1/2-z
4 1/2+x,1/2-y,-z
5 -x,-y,-z
6 1/2+x,y,1/2-z
7 x,1/2-y,1/2+z
8 1/2-x,1/2+y,z
_cell_length_a                   12.6358(8)
_cell_length_b                   15.2897(9)
_cell_length_c                   16.4183(10)
_cell_angle_alpha                90
_cell_angle_beta                 90
_cell_angle_gamma                90
_cell_volume                     3171.98
loop_
_atom_site_label
_atom_site_type_symbol
_atom_site_fract_x
_atom_site_fract_y
_atom_site_fract_z
_atom_site_U_iso_or_equiv
_atom_site_thermal_displace_type
Mn1 Mn 0.00789(3) 0.08922(2) 0.39866(2) 0.0200 Uani
C1 C -0.23571(19) 0.08361(16) 0.59831(16) 0.0213 Uani
C2 C -0.2811(2) 0.16029(16) 0.59008(17) 0.0260 Uani
H1 H -0.2537 0.2016 0.5524 0.0310 Uiso
C3 C -0.3703(2) 0.18108(16) 0.63720(17) 0.0249 Uani
C4 C -0.41544(19) 0.12412(16) 0.69381(16) 0.0204 Uani
H2 H -0.4770 0.1398 0.7236 0.0240 Uiso
C5 C -0.36932(19) 0.04795(16) 0.70420(17) 0.0225 Uani
C6 C -0.27899(19) 0.02727(16) 0.65625(16) 0.0211 Uani
H3 H -0.2463 -0.0280 0.6641 0.0250 Uiso
C7 C -0.14192(19) 0.06072(16) 0.54166(17) 0.0229 Uani
C8 C -0.4172(2) 0.26479(16) 0.62872(17) 0.0252 Uani
C9 C -0.4157(2) -0.00973(16) 0.77074(16) 0.0227 Uani
O1 O -0.09388(13) 0.11880(11) 0.50384(12) 0.0267 Uani
O2 O -0.11824(13) -0.01315(11) 0.53287(12) 0.0247 Uani
O3 O -0.50681(15) 0.27966(13) 0.66182(15) 0.0436 Uani
O4 O -0.36744(15) 0.31874(12) 0.58838(13) 0.0356 Uani
O5 O -0.50945(16) 0.00025(14) 0.79493(14) 0.0457 Uani
O6 O -0.36041(16) -0.06408(13) 0.80365(16) 0.0498 Uani
Mn1A Mn -0.50789(3) -0.08922(2) 0.89866(2) 0.0200 Uani
Mn1C Mn -0.49211(3) 0.41078(2) 0.60134(2) 0.0200 Uani
Mn1D Mn -0.00789(3) -0.08922(2) 0.60134(2) 0.0200 Uani
O2D O 0.11824(13) 0.01315(11) 0.46713(12) 0.0247 Uani
O3C O -0.00681(15) 0.22034(13) 0.33818(15) 0.0436 Uani
O4C O 0.13256(15) 0.18126(12) 0.41162(13) 0.0356 Uani
O5A O 0.00945(16) -0.00025(14) 0.29493(14) 0.0457 Uani
O6A O -0.13959(16) 0.06408(13) 0.30365(16) 0.0498 Uani
N1 N -0.9372(3) 0.2776(3) 0.63671(19) 0.0706 Uani
N2 N -0.7939(2) 0.2066(2) 0.6199(2) 0.0738 Uani
C10 C -0.8557(4) 0.3252(3) 0.6656(2) 0.0753 Uani
H4 H -0.8613 0.3811 0.6905 0.0910 Uiso
C11 C -0.7673(3) 0.2821(3) 0.6539(2) 0.0700 Uani
H5 H -0.6979 0.3012 0.6672 0.0840 Uiso
C12 C -0.8980(3) 0.2073(3) 0.6097(2) 0.0581 Uani
H6 H -0.9376 0.1613 0.5854 0.0700 Uiso
C13 C -1.0502(4) 0.2979(4) 0.6360(4) 0.1307 Uani
H7 H -1.0890 0.2498 0.6102 0.1960 Uiso
H8 H -1.0621 0.3519 0.6053 0.1960 Uiso
H9 H -1.0753 0.3055 0.6920 0.1960 Uiso
C14 C -0.7036(5) 0.1589(4) 0.5642(4) 0.1410 Uani
H10 H -0.7286 0.1394 0.5100 0.1690 Uiso
H11 H -0.6360 0.1914 0.5603 0.1690 Uiso
C15 C -0.7054(4) 0.0967(3) 0.6218(3) 0.0980 Uani
H12 H -0.7742 0.0662 0.6270 0.1180 Uiso
H13 H -0.6788 0.1162 0.6755 0.1180 Uiso
C16 C -0.6164(5) 0.0433(4) 0.5659(4) 0.1460 Uani
H14 H -0.5974 -0.0115 0.5931 0.2190 Uiso
H15 H -0.5531 0.0796 0.5594 0.2190 Uiso
H16 H -0.6465 0.0304 0.5122 0.2190 Uiso
loop_
_atom_site_aniso_label
_atom_site_aniso_U_11
_atom_site_aniso_U_22
_atom_site_aniso_U_33
_atom_site_aniso_U_23
_atom_site_aniso_U_13
_atom_site_aniso_U_12
Mn1 0.01904(17) 0.01096(16) 0.0301(2) -0.00036(15) 0.00097(17) -0.00091(15)
C1 0.0173(10) 0.0162(11) 0.0304(14) 0.0023(10) 0.0010(11) -0.0005(10)
C2 0.0230(12) 0.0177(12) 0.0372(16) 0.0023(11) 0.0022(12) 0.0013(10)
C3 0.0247(12) 0.0149(11) 0.0351(15) -0.0017(11) -0.0012(12) -0.0022(10)
C4 0.0197(11) 0.0172(11) 0.0242(14) 0.0000(10) 0.0020(11) 0.0026(10)
C5 0.0206(11) 0.0161(11) 0.0309(15) 0.0015(11) -0.0018(11) -0.0026(10)
C6 0.0205(11) 0.0162(11) 0.0265(14) 0.0014(10) 0.0008(11) 0.0006(10)
C7 0.0179(11) 0.0155(11) 0.0353(15) 0.0019(11) -0.0007(11) 0.0022(10)
C8 0.0255(12) 0.0156(11) 0.0346(15) 0.0009(11) 0.0005(12) 0.0049(10)
C9 0.0244(12) 0.0166(11) 0.0270(14) -0.0014(10) 0.0004(11) -0.0016(10)
O1 0.0219(8) 0.0136(8) 0.0447(12) 0.0040(8) 0.0095(8) 0.0011(7)
O2 0.0220(8) 0.0116(8) 0.0404(11) -0.0010(7) 0.0012(8) 0.0032(7)
O3 0.0292(10) 0.0222(10) 0.0794(16) 0.0069(11) 0.0157(11) 0.0077(8)
O4 0.0342(10) 0.0126(8) 0.0600(13) 0.0114(8) 0.0127(10) 0.0070(8)
O5 0.0396(11) 0.0349(11) 0.0627(14) 0.0263(10) 0.0208(11) 0.0111(9)
O6 0.0330(10) 0.0297(10) 0.0867(17) 0.0339(10) 0.0050(12) -0.0014(9)
Mn1A 0.01904 0.01096 0.0301 0.00036 -0.00097 -0.00091
Mn1C 0.01904 0.01096 0.0301 -0.00036 -0.00097 0.00091
Mn1D 0.01904 0.01096 0.0301 -0.00036 0.00097 -0.00091
O2D 0.022 0.0116 0.0404 -0.001 0.0012 0.0032
O3C 0.0292 0.0222 0.0794 0.0069 -0.0157 -0.0077
O4C 0.0342 0.0126 0.06 0.0114 -0.0127 -0.007
O5A 0.0396 0.0349 0.0627 -0.0263 -0.0208 0.0111
O6A 0.033 0.0297 0.0867 -0.0339 -0.005 -0.0014
N1 0.071(2) 0.089(3) 0.0517(19) -0.0195(18) -0.0199(17) -0.007(2)
N2 0.0563(16) 0.094(2) 0.071(2) -0.0419(17) 0.0124(16) -0.0482(16)
C10 0.113(3) 0.072(3) 0.041(2) -0.009(2) -0.017(2) -0.033(3)
C11 0.071(2) 0.083(2) 0.056(2) -0.0299(19) 0.0177(19) -0.0511(19)
C12 0.068(2) 0.074(2) 0.0323(19) -0.0043(17) 0.0070(17) -0.0460(18)
C13 0.108(3) 0.158(4) 0.126(4) -0.039(3) -0.045(3) 0.019(3)
C14 0.152(3) 0.132(3) 0.139(3) 0.008(2) -0.029(2) -0.024(2)
C15 0.105(3) 0.103(3) 0.086(2) 0.004(2) 0.003(2) -0.032(2)
C16 0.134(4) 0.130(4) 0.174(5) -0.035(4) -0.055(4) -0.001(4)
loop_
_geom_bond_atom_site_label_1
_geom_bond_atom_site_label_2
_geom_bond_site_symmetry_1
_geom_bond_site_symmetry_2
Mn1 O1 1_555 1_555
C1 C2 1_555 1_555
C2 H1 1_555 1_555
C3 C2 1_555 1_555
C4 C3 1_555 1_555
H2 C4 1_555 1_555
C5 C4 1_555 1_555
C6 C1 1_555 1_555
H3 C6 1_555 1_555
C7 C1 1_555 1_555
C8 C3 1_555 1_555
C9 C5 1_555 1_555
O1 C7 1_555 1_555
O2 C7 1_555 1_555
O3 C8 1_555 1_555
O4 C8 1_555 1_555
O5 C9 1_555 1_555
O6 C9 1_555 1_555
N1 C10 1_555 1_555
N2 C11 1_555 1_555
C10 H4 1_555 1_555
C11 C10 1_555 1_555
H5 C11 1_555 1_555
C12 N1 1_555 1_555
H6 C12 1_555 1_555
C13 N1 1_555 1_555
H7 C13 1_555 1_555
H8 C13 1_555 1_555
H9 C13 1_555 1_555
C14 N2 1_555 1_555
H10 C14 1_555 1_555
H11 C14 1_555 1_555
C15 C14 1_555 1_555
H12 C15 1_555 1_555
H13 C15 1_555 1_555
C16 C15 1_555 1_555
H14 C16 1_555 1_555
H15 C16 1_555 1_555
H16 C16 1_555 1_555
Mn1A O5 1_555 1_555
Mn1C O3 1_555 1_555
Mn1D O2 1_555 1_555
O2D Mn1 1_555 1_555
O3C Mn1 1_555 1_555
O4C Mn1 1_555 1_555
O5A Mn1 1_555 1_555
O6A Mn1 1_555 1_555
C5 C6 1_555 1_555
O4 Mn1C 1_555 1_555
O6 Mn1A 1_555 1_555
N2 C12 1_555 1_555

#END
