
#######################################################################
#
#                 Cambridge Crystallographic Data Centre
#                                CCDC 
#
#######################################################################
#
# If this CIF has been generated from an entry in the Cambridge 
# Structural Database, then it will include bibliographic, chemical, 
# crystal, experimental, refinement or atomic coordinate data resulting 
# from the CCDC's data processing and validation procedures.
#
#######################################################################

data_WEYQEY
_chemical_formula_moiety         '(C16 H16 Mn1 N2 O6)n'
_symmetry_cell_setting           orthorhombic
_symmetry_space_group_name_H-M   'P b c a'
_symmetry_Int_Tables_number      61
_space_group_name_Hall           '-P 2ac 2ab'
loop_
_symmetry_equiv_pos_site_id
_symmetry_equiv_pos_as_xyz
1 x,y,z
2 1/2-x,-y,1/2+z
3 -x,1/2+y,1/2-z
4 1/2+x,1/2-y,-z
5 -x,-y,-z
6 1/2+x,y,1/2-z
7 x,1/2-y,1/2+z
8 1/2-x,1/2+y,z
_cell_length_a                   12.6991(5)
_cell_length_b                   15.5711(6)
_cell_length_c                   16.3313(6)
_cell_angle_alpha                90
_cell_angle_beta                 90
_cell_angle_gamma                90
_cell_volume                     3229.33
loop_
_atom_site_label
_atom_site_type_symbol
_atom_site_fract_x
_atom_site_fract_y
_atom_site_fract_z
_atom_site_U_iso_or_equiv
_atom_site_thermal_displace_type
Mn1 Mn 0.60058(2) 0.00472(2) 0.588780(17) 0.0333 Uani
C1 C 0.70445(13) 0.36659(16) 0.45226(11) 0.0393 Uani
C2 C 0.69328(13) 0.41351(16) 0.37558(12) 0.0373 Uani
H1 H 0.7223 0.4675 0.3666 0.0450 Uiso
C3 C 0.63688(13) 0.37081(15) 0.31928(11) 0.0362 Uani
C4 C 0.58895(14) 0.28255(17) 0.34042(12) 0.0393 Uani
H2 H 0.5500 0.2560 0.2993 0.0470 Uiso
C5 C 0.59772(12) 0.23620(16) 0.41725(11) 0.0342 Uani
C6 C 0.65636(13) 0.27847(16) 0.47299(11) 0.0376 Uani
H3 H 0.6678 0.2543 0.5243 0.0450 Uiso
C7 C 0.77302(13) 0.41514(18) 0.51217(12) 0.0459 Uani
C8 C 0.62841(12) 0.41966(14) 0.23128(11) 0.0332 Uani
C9 C 0.54097(13) 0.14384(15) 0.44014(11) 0.0349 Uani
O1 O 0.79814(15) 0.49874(15) 0.49855(15) 0.0809 Uani
O2 O 0.80079(15) 0.35832(18) 0.56480(13) 0.0848 Uani
O3 O 0.66043(15) 0.50589(13) 0.22097(12) 0.0626 Uani
O4 O 0.58509(15) 0.37256(15) 0.18262(10) 0.0663 Uani
O5 O 0.53543(11) 0.11742(12) 0.51326(8) 0.0463 Uani
O6 O 0.50075(10) 0.09948(12) 0.38270(9) 0.0468 Uani
Mn1D Mn 0.39942(2) -0.00472(2) 0.411220(17) 0.0333 Uani
Mn1F Mn 0.60058(2) 0.49528(2) 0.088780(17) 0.0333 Uani
Mn1G Mn 0.89942(2) 0.50472(2) 0.588780(17) 0.0333 Uani
O1G O 0.70186(15) -0.00126(15) 0.49855(15) 0.0809 Uani
O3F O 0.66043(15) -0.00589(13) 0.72097(12) 0.0626 Uani
O4F O 0.58509(15) 0.12744(15) 0.68262(10) 0.0663 Uani
O6D O 0.49925(10) -0.09948(12) 0.61730(9) 0.0468 Uani
N1 N 0.3792(2) 0.2034(3) 0.7060(3) 0.1307 Uani
N2 N 0.36284(16) 0.0609(2) 0.7742(2) 0.0974 Uani
C10 C 0.3604(3) -0.0517(4) 0.7964(5) 0.1833 Uani
H4 H 0.3861 -0.0832 0.7500 0.2750 Uiso
H5 H 0.2895 -0.0692 0.8082 0.2750 Uiso
H6 H 0.4044 -0.0633 0.8430 0.2750 Uiso
C11 C 0.3336(3) 0.1410(3) 0.8210(3) 0.1122 Uani
H7 H 0.3076 0.1367 0.8741 0.1350 Uiso
C12 C 0.3910(2) 0.1004(3) 0.7055(3) 0.0958 Uani
H8 H 0.4159 0.0705 0.6601 0.1150 Uiso
C13 C 0.3464(2) 0.2287(3) 0.7815(3) 0.1034 Uani
H9 H 0.3351 0.2834 0.8026 0.1240 Uiso
C14 C 0.4327(4) 0.2830(5) 0.6656(4) 0.4337 Uani
H10 H 0.4319 0.3313 0.7032 0.5200 Uiso
H11 H 0.5054 0.2699 0.6522 0.5200 Uiso
C15 C 0.3807(3) 0.3024(4) 0.5992(3) 0.1617 Uani
H12 H 0.3095 0.3184 0.6145 0.1940 Uiso
H13 H 0.3760 0.2513 0.5653 0.1940 Uiso
C16 C 0.4336(5) 0.3837(5) 0.5416(4) 0.2037 Uani
H14 H 0.3894 0.3943 0.4950 0.3060 Uiso
H15 H 0.5026 0.3675 0.5234 0.3060 Uiso
H16 H 0.4383 0.4349 0.5742 0.3060 Uiso
loop_
_atom_site_aniso_label
_atom_site_aniso_U_11
_atom_site_aniso_U_22
_atom_site_aniso_U_33
_atom_site_aniso_U_23
_atom_site_aniso_U_13
_atom_site_aniso_U_12
Mn1 0.02064(11) 0.0566(2) 0.02262(14) -0.00122(12) 0.00132(8) -0.00164(11)
C1 0.0207(6) 0.0665(14) 0.0306(8) -0.0068(9) -0.0036(6) 0.0024(8)
C2 0.0226(6) 0.0539(13) 0.0354(9) 0.0001(9) -0.0001(6) -0.0010(8)
C3 0.0232(6) 0.0590(13) 0.0265(8) 0.0050(9) -0.0009(6) 0.0011(8)
C4 0.0255(7) 0.0646(14) 0.0277(8) 0.0032(9) -0.0051(6) -0.0044(8)
C5 0.0225(6) 0.0543(13) 0.0258(8) -0.0002(9) -0.0014(5) -0.0015(8)
C6 0.0233(6) 0.0660(14) 0.0236(7) 0.0024(9) -0.0053(6) 0.0019(8)
C7 0.0202(6) 0.0871(17) 0.0303(8) 0.0004(11) 0.0010(6) 0.0076(9)
C8 0.0179(5) 0.0498(12) 0.0320(8) 0.0172(9) -0.0071(5) 0.0000(7)
C9 0.0226(6) 0.0525(13) 0.0297(8) 0.0028(9) -0.0015(6) 0.0017(8)
O1 0.0446(8) 0.1273(19) 0.0708(11) 0.0032(11) -0.0346(8) -0.0259(9)
O2 0.0558(9) 0.136(2) 0.0627(10) -0.0029(12) -0.0381(8) -0.0121(12)
O3 0.0460(8) 0.0978(15) 0.0440(8) 0.0252(9) -0.0088(7) -0.0134(9)
O4 0.0600(9) 0.1051(15) 0.0339(7) 0.0152(9) -0.0152(7) -0.0217(10)
O5 0.0289(5) 0.0791(11) 0.0310(6) 0.0145(7) 0.0041(5) 0.0022(7)
O6 0.0259(5) 0.0803(11) 0.0341(7) 0.0031(8) -0.0039(5) -0.0146(7)
Mn1D 0.02064 0.0566 0.02262 -0.00122 0.00132 -0.00164
Mn1F 0.02064 0.0566 0.02262 0.00122 0.00132 0.00164
Mn1G 0.02064 0.0566 0.02262 -0.00122 -0.00132 0.00164
O1G 0.0446 0.1273 0.0708 0.0032 0.0346 0.0259
O3F 0.046 0.0978 0.044 -0.0252 -0.0088 0.0134
O4F 0.06 0.1051 0.0339 -0.0152 -0.0152 0.0217
O6D 0.0259 0.0803 0.0341 0.0031 -0.0039 -0.0146
N1 0.0570(11) 0.166(3) 0.169(3) -0.077(2) 0.0565(15) -0.0419(16)
N2 0.0252(8) 0.145(3) 0.122(2) -0.018(2) 0.0108(12) 0.0066(13)
C10 0.0560(18) 0.210(5) 0.284(8) 0.045(6) 0.042(3) 0.054(3)
C11 0.0396(12) 0.206(5) 0.091(2) -0.039(3) 0.0071(14) 0.008(2)
C12 0.0325(10) 0.128(3) 0.127(3) -0.068(2) 0.0141(13) -0.0047(14)
C13 0.0433(12) 0.155(3) 0.112(2) -0.072(2) 0.0208(14) -0.0164(17)
C14 0.122(2) 0.802(9) 0.377(5) -0.456(5) -0.158(3) 0.252(4)
C15 0.0500(16) 0.273(7) 0.162(4) -0.088(4) -0.023(2) -0.003(3)
C16 0.154(4) 0.322(7) 0.135(4) 0.067(5) 0.042(4) 0.133(4)
loop_
_geom_bond_atom_site_label_1
_geom_bond_atom_site_label_2
_geom_bond_site_symmetry_1
_geom_bond_site_symmetry_2
Mn1 O5 1_555 1_555
C1 C2 1_555 1_555
C2 H1 1_555 1_555
C3 C2 1_555 1_555
C4 C3 1_555 1_555
H2 C4 1_555 1_555
C5 C4 1_555 1_555
C6 C1 1_555 1_555
H3 C6 1_555 1_555
C7 C1 1_555 1_555
C8 C3 1_555 1_555
C9 C5 1_555 1_555
O1 C7 1_555 1_555
O2 C7 1_555 1_555
O3 C8 1_555 1_555
O4 C8 1_555 1_555
O5 C9 1_555 1_555
O6 C9 1_555 1_555
N1 C12 1_555 1_555
N2 C10 1_555 1_555
C10 H4 1_555 1_555
H5 C10 1_555 1_555
H6 C10 1_555 1_555
C11 N2 1_555 1_555
H7 C11 1_555 1_555
C12 N2 1_555 1_555
H8 C12 1_555 1_555
C13 N1 1_555 1_555
H9 C13 1_555 1_555
C14 N1 1_555 1_555
H10 C14 1_555 1_555
H11 C14 1_555 1_555
C15 C14 1_555 1_555
H12 C15 1_555 1_555
H13 C15 1_555 1_555
C16 C15 1_555 1_555
H14 C16 1_555 1_555
H15 C16 1_555 1_555
H16 C16 1_555 1_555
Mn1D O6 1_555 1_555
Mn1F O3 1_555 1_555
Mn1G O1 1_555 1_555
O1G Mn1 1_555 1_555
O3F Mn1 1_555 1_555
O4F Mn1 1_555 1_555
O6D Mn1 1_555 1_555
C5 C6 1_555 1_555
O4 Mn1F 1_555 1_555
C11 C13 1_555 1_555

#END
