
#######################################################################
#
#                 Cambridge Crystallographic Data Centre
#                                CCDC 
#
#######################################################################
#
# If this CIF has been generated from an entry in the Cambridge 
# Structural Database, then it will include bibliographic, chemical, 
# crystal, experimental, refinement or atomic coordinate data resulting 
# from the CCDC's data processing and validation procedures.
#
#######################################################################

data_WEYQAU
_chemical_formula_moiety         '(C15 H14 Mn1 N2 O6)n'
_symmetry_cell_setting           orthorhombic
_symmetry_space_group_name_H-M   'P b c a'
_symmetry_Int_Tables_number      61
_space_group_name_Hall           '-P 2ac 2ab'
loop_
_symmetry_equiv_pos_site_id
_symmetry_equiv_pos_as_xyz
1 x,y,z
2 1/2-x,-y,1/2+z
3 -x,1/2+y,1/2-z
4 1/2+x,1/2-y,-z
5 -x,-y,-z
6 1/2+x,y,1/2-z
7 x,1/2-y,1/2+z
8 1/2-x,1/2+y,z
_cell_length_a                   12.4378(6)
_cell_length_b                   14.7717(8)
_cell_length_c                   16.6097(9)
_cell_angle_alpha                90
_cell_angle_beta                 90
_cell_angle_gamma                90
_cell_volume                     3051.66
loop_
_atom_site_label
_atom_site_type_symbol
_atom_site_fract_x
_atom_site_fract_y
_atom_site_fract_z
_atom_site_U_iso_or_equiv
_atom_site_thermal_displace_type
Mn1 Mn 0.604574(19) 0.01655(2) 0.579815(16) 0.0208 Uani
C1 C 0.79655(13) -0.12973(16) 0.43917(11) 0.0265 Uani
C2 C 0.84701(13) -0.21923(15) 0.46087(11) 0.0242 Uani
H1 H 0.8397 -0.2415 0.5142 0.0290 Uiso
C3 C 0.90360(12) -0.26964(16) 0.40517(11) 0.0231 Uani
C4 C 0.90623(12) -0.23221(15) 0.32697(11) 0.0233 Uani
H2 H 0.9406 -0.2661 0.2857 0.0280 Uiso
C5 C 0.85780(13) -0.14153(15) 0.30456(11) 0.0240 Uani
C6 C 0.80424(13) -0.08927(15) 0.36146(11) 0.0246 Uani
H3 H 0.7752 -0.0313 0.3495 0.0300 Uiso
C7 C 0.73122(13) -0.07771(16) 0.49681(11) 0.0284 Uani
C8 C 0.96222(12) -0.36293(14) 0.42940(11) 0.0226 Uani
C9 C 0.86314(13) -0.09813(16) 0.21984(11) 0.0263 Uani
O1 O 0.70780(11) 0.01690(12) 0.48576(10) 0.0399 Uani
O2 O 0.69905(11) -0.13277(12) 0.55327(9) 0.0384 Uani
O3 O 0.99914(9) -0.41699(11) 0.37496(8) 0.0289 Uani
O4 O 0.97454(9) -0.38022(10) 0.50401(7) 0.0271 Uani
O5 O 0.82780(10) -0.00949(11) 0.20431(9) 0.0339 Uani
O6 O 0.90454(11) -0.15191(12) 0.16736(8) 0.0358 Uani
Mn1A Mn 0.895426(19) -0.01655(2) 0.079815(16) 0.0208 Uani
Mn1C Mn 1.104574(19) -0.51655(2) 0.420185(16) 0.0208 Uani
Mn1G Mn 0.895426(19) -0.48345(2) 0.579815(16) 0.0208 Uani
O3C O 0.49914(9) -0.08301(11) 0.62504(8) 0.0289 Uani
O4G O 0.52546(9) 0.11978(10) 0.50401(7) 0.0271 Uani
O5A O 0.67220(10) 0.00949(11) 0.70431(9) 0.0339 Uani
O6A O 0.59546(11) 0.15191(12) 0.66736(8) 0.0358 Uani
N1 N 1.12421(16) -0.0925(2) 0.29040(19) 0.0906 Uani
N2 N 1.12129(14) -0.22255(18) 0.20306(15) 0.0612 Uani
C10 C 1.10163(16) -0.1153(2) 0.2143(2) 0.0919 Uani
H4 H 1.0779 -0.0748 0.1735 0.1100 Uiso
C11 C 1.1553(2) -0.1776(3) 0.3280(3) 0.0887 Uani
H5 H 1.1760 -0.1811 0.3830 0.1070 Uiso
C12 C 1.15266(18) -0.2562(2) 0.27669(18) 0.0639 Uani
H6 H 1.1688 -0.3171 0.2905 0.0770 Uiso
C13 C 1.1104(3) -0.2850(3) 0.1318(2) 0.0983 Uani
H7 H 1.1302 -0.3467 0.1478 0.1470 Uiso
H8 H 1.1580 -0.2645 0.0885 0.1470 Uiso
H9 H 1.0358 -0.2845 0.1128 0.1470 Uiso
C14 C 1.1124(2) 0.0156(3) 0.3300(3) 0.1084 Uani
H10 H 1.1834 0.0456 0.3342 0.1300 Uiso
H11 H 1.0638 0.0536 0.2970 0.1300 Uiso
C15 C 1.0658(3) -0.0028(4) 0.4108(3) 0.1900 Uani
H12 H 1.0567 0.0543 0.4400 0.2850 Uiso
H13 H 1.1142 -0.0425 0.4411 0.2850 Uiso
H14 H 0.9958 -0.0324 0.4046 0.2850 Uiso
loop_
_atom_site_aniso_label
_atom_site_aniso_U_11
_atom_site_aniso_U_22
_atom_site_aniso_U_33
_atom_site_aniso_U_23
_atom_site_aniso_U_13
_atom_site_aniso_U_12
Mn1 0.01247(10) 0.0339(2) 0.01589(13) -0.00101(12) 0.00115(9) -0.00042(11)
C1 0.0161(6) 0.0400(13) 0.0234(9) 0.0010(9) 0.0009(6) -0.0001(8)
C2 0.0178(7) 0.0364(13) 0.0185(9) -0.0005(9) 0.0020(6) 0.0008(8)
C3 0.0124(6) 0.0315(12) 0.0253(9) 0.0025(9) 0.0015(6) 0.0011(7)
C4 0.0144(6) 0.0344(13) 0.0211(9) -0.0008(9) 0.0030(6) 0.0003(7)
C5 0.0140(6) 0.0413(13) 0.0167(8) 0.0035(9) 0.0007(6) -0.0003(8)
C6 0.0140(6) 0.0339(12) 0.0260(9) 0.0063(9) -0.0016(6) 0.0031(8)
C7 0.0161(7) 0.0503(14) 0.0188(9) -0.0029(9) -0.0030(6) -0.0040(9)
C8 0.0120(6) 0.0321(12) 0.0236(9) 0.0011(8) 0.0020(6) -0.0019(8)
C9 0.0123(6) 0.0412(13) 0.0255(9) 0.0068(9) -0.0004(6) -0.0039(8)
O1 0.0253(6) 0.0569(11) 0.0375(8) 0.0075(8) 0.0172(6) 0.0167(7)
O2 0.0261(6) 0.0564(11) 0.0328(8) 0.0021(8) 0.0142(6) 0.0060(7)
O3 0.0153(5) 0.0485(10) 0.0228(7) 0.0012(7) 0.0016(5) 0.0083(6)
O4 0.0130(4) 0.0463(9) 0.0221(6) 0.0058(6) 0.0001(4) -0.0022(6)
O5 0.0198(5) 0.0538(10) 0.0281(7) 0.0119(7) 0.0044(5) 0.0085(6)
O6 0.0314(6) 0.0562(11) 0.0199(7) 0.0065(7) 0.0066(5) 0.0062(7)
Mn1A 0.01247 0.0339 0.01589 0.00101 -0.00115 -0.00042
Mn1C 0.01247 0.0339 0.01589 -0.00101 -0.00115 0.00042
Mn1G 0.01247 0.0339 0.01589 -0.00101 -0.00115 0.00042
O3C 0.0153 0.0485 0.0228 0.0012 -0.0016 -0.0083
O4G 0.013 0.0463 0.0221 0.0058 -0.0001 0.0022
O5A 0.0198 0.0538 0.0281 -0.0119 -0.0044 0.0085
O6A 0.0314 0.0562 0.0199 -0.0065 -0.0066 0.0062
N1 0.0178(8) 0.130(3) 0.124(2) -0.001(2) -0.0014(12) -0.0079(13)
N2 0.0174(7) 0.0876(18) 0.0786(15) 0.0378(14) 0.0018(9) -0.0020(10)
C10 0.0098(8) 0.108(2) 0.158(3) 0.0927(19) 0.0064(12) 0.0020(11)
C11 0.0320(12) 0.108(3) 0.126(3) 0.036(2) 0.0146(15) -0.0132(16)
C12 0.0283(10) 0.078(2) 0.0855(19) 0.0379(17) 0.0051(12) -0.0072(13)
C13 0.0498(16) 0.153(4) 0.092(3) 0.014(3) -0.0012(17) -0.016(2)
C14 0.0332(14) 0.121(4) 0.171(4) 0.012(3) -0.022(2) 0.0084(18)
C15 0.060(2) 0.363(8) 0.147(4) -0.119(4) 0.020(3) -0.065(3)
loop_
_geom_bond_atom_site_label_1
_geom_bond_atom_site_label_2
_geom_bond_site_symmetry_1
_geom_bond_site_symmetry_2
Mn1 O1 1_555 1_555
C1 C2 1_555 1_555
C2 H1 1_555 1_555
C3 C2 1_555 1_555
C4 C3 1_555 1_555
H2 C4 1_555 1_555
C5 C4 1_555 1_555
C6 C1 1_555 1_555
H3 C6 1_555 1_555
C7 C1 1_555 1_555
C8 C3 1_555 1_555
C9 C5 1_555 1_555
O1 C7 1_555 1_555
O2 C7 1_555 1_555
O3 C8 1_555 1_555
O4 C8 1_555 1_555
O5 C9 1_555 1_555
O6 C9 1_555 1_555
N1 C10 1_555 1_555
N2 C10 1_555 1_555
C10 H4 1_555 1_555
C11 N1 1_555 1_555
H5 C11 1_555 1_555
C12 N2 1_555 1_555
H6 C12 1_555 1_555
C13 N2 1_555 1_555
H7 C13 1_555 1_555
H8 C13 1_555 1_555
H9 C13 1_555 1_555
C14 N1 1_555 1_555
H10 C14 1_555 1_555
H11 C14 1_555 1_555
C15 C14 1_555 1_555
H12 C15 1_555 1_555
H13 C15 1_555 1_555
H14 C15 1_555 1_555
Mn1A O5 1_555 1_555
Mn1C O3 1_555 1_555
Mn1G O4 1_555 1_555
O3C Mn1 1_555 1_555
O4G Mn1 1_555 1_555
O5A Mn1 1_555 1_555
O6A Mn1 1_555 1_555
C5 C6 1_555 1_555
O6 Mn1A 1_555 1_555
C11 C12 1_555 1_555

#END
