
#######################################################################
#
#                 Cambridge Crystallographic Data Centre
#                                CCDC 
#
#######################################################################
#
# If this CIF has been generated from an entry in the Cambridge 
# Structural Database, then it will include bibliographic, chemical, 
# crystal, experimental, refinement or atomic coordinate data resulting 
# from the CCDC's data processing and validation procedures.
#
#######################################################################

data_MUTDEM
_chemical_formula_moiety         '(C9 H12 Fe1 N7 O3)n'
_symmetry_cell_setting           tetragonal
_symmetry_space_group_name_H-M   'I 41/a'
_symmetry_Int_Tables_number      88
_space_group_name_Hall           '-I 4ad'
loop_
_symmetry_equiv_pos_site_id
_symmetry_equiv_pos_as_xyz
1 x,y,z
2 1/2-x,-y,1/2+z
3 3/4-y,1/4+x,1/4+z
4 3/4+y,3/4-x,3/4+z
5 1/2+x,1/2+y,1/2+z
6 -x,1/2-y,z
7 1/4-y,3/4+x,3/4+z
8 1/4+y,1/4-x,1/4+z
9 -x,-y,-z
10 1/2+x,y,1/2-z
11 1/4+y,3/4-x,3/4-z
12 1/4-y,1/4+x,1/4-z
13 1/2-x,1/2-y,1/2-z
14 x,1/2+y,-z
15 3/4+y,1/4-x,1/4-z
16 3/4-y,3/4+x,3/4-z
_cell_length_a                   19.623(3)
_cell_length_b                   19.623(3)
_cell_length_c                   19.147(4)
_cell_angle_alpha                90
_cell_angle_beta                 90
_cell_angle_gamma                90
_cell_volume                     7372.78
loop_
_atom_site_label
_atom_site_type_symbol
_atom_site_fract_x
_atom_site_fract_y
_atom_site_fract_z
_atom_site_U_iso_or_equiv
_atom_site_thermal_displace_type
Fe1 Fe 0.39624(3) 0.52176(3) 0.02003(3) 0.0346 Uani
N1 N 0.38293(19) 0.41754(17) 0.07140(19) 0.0454 Uani
N2 N 0.32919(15) 0.53958(15) 0.10716(16) 0.0339 Uani
N3 N 0.2705(2) 0.49598(18) 0.1984(2) 0.0536 Uani
H1 H 0.2539 0.4671 0.2276 0.0640 Uiso
N4 N 0.26240(18) 0.56483(16) 0.19883(18) 0.0439 Uani
N5 N 0.3350(2) 0.69682(18) 0.08489(19) 0.0567 Uani
N6 N 0.27632(17) 0.70140(15) 0.18493(16) 0.0377 Uani
N7 N 0.29098(19) 0.76686(16) 0.16637(18) 0.0457 Uani
C1 C 0.4122(3) 0.3580(2) 0.0532(3) 0.0623 Uani
H2 H 0.4456 0.3569 0.0187 0.0740 Uiso
C2 C 0.3925(4) 0.2995(3) 0.0855(4) 0.1010 Uani
H3 H 0.4124 0.2588 0.0712 0.1220 Uiso
C3 C 0.3473(4) 0.2971(2) 0.1354(4) 0.0953 Uani
H4 H 0.3363 0.2563 0.1575 0.1150 Uiso
C4 C 0.3176(4) 0.3555(3) 0.1535(4) 0.0940 Uani
H5 H 0.2835 0.3554 0.1871 0.1130 Uiso
C5 C 0.3369(3) 0.4168(2) 0.1228(2) 0.0523 Uani
C6 C 0.3099(2) 0.4827(2) 0.1429(2) 0.0417 Uani
C7 C 0.29816(19) 0.58853(19) 0.14440(19) 0.0337 Uani
C8 C 0.30315(19) 0.66218(19) 0.13532(19) 0.0341 Uani
C9 C 0.3249(3) 0.7612(2) 0.1068(2) 0.0617 Uani
H6 H 0.3404 0.7989 0.0820 0.0740 Uiso
O1 O 0.39412(18) 0.62168(15) -0.01873(15) 0.0555 Uani
H7 H 0.4338 0.6330 -0.0324 0.0830 Uiso
H8 H 0.3813 0.6485 0.0136 0.0830 Uiso
Fe1B Fe 0.22824(3) 0.64624(3) 0.27003(3) 0.0346 Uani
Fe1N Fe 0.27176(3) 0.85376(3) 0.22997(3) 0.0346 Uani
N4C N 0.31483(16) 0.48760(18) -0.05117(18) 0.0439 Uani
N6C N 0.45140(15) 0.47368(17) -0.06507(16) 0.0377 Uani
N7K N 0.48314(16) 0.54098(19) 0.08363(18) 0.0457 Uani
O2 O 0.1555(6) 0.4275(5) 0.2519(3) 0.3160 Uani
H9 H 0.1134 0.4205 0.2592 0.4740 Uiso
H10 H 0.1653 0.4162 0.2102 0.4740 Uiso
O3 O 0.3368(8) 0.6500(3) 0.8580(4) 0.3563 Uani
H11 H 0.3655 0.6363 0.8882 0.5360 Uiso
H12 H 0.2967 0.6452 0.8740 0.5360 Uiso
loop_
_atom_site_aniso_label
_atom_site_aniso_U_11
_atom_site_aniso_U_22
_atom_site_aniso_U_33
_atom_site_aniso_U_23
_atom_site_aniso_U_13
_atom_site_aniso_U_12
Fe1 0.0310(4) 0.0386(4) 0.0341(3) -0.0132(2) 0.0017(2) -0.0011(2)
N1 0.050(2) 0.0371(19) 0.049(2) -0.0092(16) 0.0039(17) 0.0038(16)
N2 0.0336(17) 0.0309(17) 0.0371(17) -0.0062(13) 0.0095(14) -0.0011(14)
N3 0.072(3) 0.0308(19) 0.058(2) 0.0007(17) 0.029(2) -0.0070(18)
N4 0.053(2) 0.0307(18) 0.048(2) -0.0050(15) 0.0205(17) -0.0030(16)
N5 0.085(3) 0.037(2) 0.048(2) -0.0002(16) 0.036(2) -0.0011(19)
N6 0.047(2) 0.0287(17) 0.0374(17) -0.0031(14) 0.0141(15) 0.0030(15)
N7 0.061(2) 0.0292(18) 0.047(2) 0.0000(15) 0.0283(17) 0.0004(16)
C1 0.075(3) 0.040(3) 0.072(3) -0.010(2) 0.010(3) 0.015(2)
C2 0.155(7) 0.033(3) 0.115(6) -0.011(3) 0.028(5) 0.023(4)
C3 0.160(6) 0.024(3) 0.102(5) 0.006(3) 0.066(5) 0.012(3)
C4 0.135(6) 0.046(3) 0.101(5) 0.001(3) 0.053(5) 0.001(3)
C5 0.075(3) 0.030(2) 0.052(3) -0.0015(19) 0.015(2) 0.000(2)
C6 0.044(2) 0.035(2) 0.046(2) -0.0073(18) 0.0085(19) -0.0021(18)
C7 0.034(2) 0.035(2) 0.0321(18) -0.0047(16) 0.0105(16) -0.0029(16)
C8 0.038(2) 0.030(2) 0.0344(19) -0.0010(15) 0.0105(16) 0.0009(16)
C9 0.104(4) 0.029(2) 0.052(3) -0.0008(19) 0.045(3) -0.004(2)
O1 0.076(2) 0.0439(18) 0.0465(18) -0.0107(14) 0.0209(15) -0.0028(16)
Fe1B 0.0386 0.031 0.0341 0.0017 0.0132 0.0011
Fe1N 0.0386 0.031 0.0341 0.0017 0.0132 0.0011
N4C 0.0307 0.053 0.048 -0.0205 -0.005 0.003
N6C 0.0287 0.047 0.0374 -0.0141 -0.0031 -0.003
N7K 0.0292 0.061 0.047 -0.0283 0 -0.0004
O2 0.413(17) 0.212(9) 0.323(15) -0.016(10) 0.217(14) -0.130(10)
O3 0.83(3) 0.073(4) 0.166(7) 0.017(4) -0.233(12) -0.034(8)
loop_
_geom_bond_atom_site_label_1
_geom_bond_atom_site_label_2
_geom_bond_site_symmetry_1
_geom_bond_site_symmetry_2
Fe1 N1 1_555 1_555
N1 C1 1_555 1_555
N2 Fe1 1_555 1_555
N3 H1 1_555 1_555
N4 N3 1_555 1_555
N5 C8 1_555 1_555
N6 N7 1_555 1_555
N7 C9 1_555 1_555
C1 H2 1_555 1_555
C2 C1 1_555 1_555
H3 C2 1_555 1_555
C3 C2 1_555 1_555
H4 C3 1_555 1_555
C4 C3 1_555 1_555
H5 C4 1_555 1_555
C5 N1 1_555 1_555
C6 N2 1_555 1_555
C7 N2 1_555 1_555
C8 N6 1_555 1_555
C9 N5 1_555 1_555
H6 C9 1_555 1_555
O1 Fe1 1_555 1_555
H7 O1 1_555 1_555
H8 O1 1_555 1_555
O2 H9 1_555 1_555
H10 O2 1_555 1_555
O3 H11 1_555 1_555
H12 O3 1_555 1_555
Fe1B N4 1_555 1_555
Fe1N N7 1_555 1_555
N4C Fe1 1_555 1_555
N6C Fe1 1_555 1_555
N7K Fe1 1_555 1_555
N3 C6 1_555 1_555
N4 C7 1_555 1_555
N6 Fe1B 1_555 1_555
C4 C5 1_555 1_555
C5 C6 1_555 1_555
C7 C8 1_555 1_555

#END
