
#######################################################################
#
#                 Cambridge Crystallographic Data Centre
#                                CCDC 
#
#######################################################################
#
# If this CIF has been generated from an entry in the Cambridge 
# Structural Database, then it will include bibliographic, chemical, 
# crystal, experimental, refinement or atomic coordinate data resulting 
# from the CCDC's data processing and validation procedures.
#
#######################################################################

data_MUTDIQ
_chemical_formula_moiety         '(C13 H21 Mn1 N7 O4)n'
_symmetry_cell_setting           tetragonal
_symmetry_space_group_name_H-M   'I 41/a'
_symmetry_Int_Tables_number      88
_space_group_name_Hall           '-I 4ad'
loop_
_symmetry_equiv_pos_site_id
_symmetry_equiv_pos_as_xyz
1 x,y,z
2 1/2-x,-y,1/2+z
3 3/4-y,1/4+x,1/4+z
4 3/4+y,3/4-x,3/4+z
5 1/2+x,1/2+y,1/2+z
6 -x,1/2-y,z
7 1/4-y,3/4+x,3/4+z
8 1/4+y,1/4-x,1/4+z
9 -x,-y,-z
10 1/2+x,y,1/2-z
11 1/4+y,3/4-x,3/4-z
12 1/4-y,1/4+x,1/4-z
13 1/2-x,1/2-y,1/2-z
14 x,1/2+y,-z
15 3/4+y,1/4-x,1/4-z
16 3/4-y,3/4+x,3/4-z
_cell_length_a                   19.692(9)
_cell_length_b                   19.692(9)
_cell_length_c                   20.101(20)
_cell_angle_alpha                90
_cell_angle_beta                 90
_cell_angle_gamma                90
_cell_volume                     7794.66
loop_
_atom_site_label
_atom_site_type_symbol
_atom_site_fract_x
_atom_site_fract_y
_atom_site_fract_z
_atom_site_U_iso_or_equiv
_atom_site_thermal_displace_type
Mn1 Mn 0.60456(3) 0.51543(4) 1.02730(3) 0.0319 Uani
N1 N 0.8385(2) 0.3695(2) 0.82764(19) 0.0443 Uani
N2 N 0.6898(2) 0.4785(2) 0.95706(17) 0.0410 Uani
N3 N 0.7588(2) 0.4693(2) 0.95652(19) 0.0460 Uani
N4 N 0.71522(18) 0.42061(18) 0.86507(17) 0.0320 Uani
N5 N 0.55269(18) 0.47066(18) 0.93824(17) 0.0313 Uani
N6 N 0.4879(2) 0.4638(2) 0.91367(18) 0.0397 Uani
N7 N 0.5607(2) 0.4267(2) 0.83578(18) 0.0440 Uani
C1 C 0.8983(3) 0.3460(3) 0.8060(3) 0.0647 Uani
H1 H 0.8986 0.3152 0.7709 0.0680 Uiso
C2 C 0.9591(3) 0.3652(4) 0.8330(4) 0.0893 Uani
H2 H 0.9996 0.3478 0.8163 0.0900 Uiso
C3 C 0.9596(3) 0.4099(4) 0.8843(4) 0.0990 Uani
H3 H 1.0004 0.4240 0.9031 0.1500 Uiso
C4 C 0.8981(3) 0.4342(4) 0.9084(3) 0.0783 Uani
H4 H 0.8971 0.4650 0.9435 0.0900 Uiso
C5 C 0.8387(2) 0.4120(3) 0.8795(3) 0.0473 Uani
C6 C 0.7715(2) 0.4350(2) 0.9006(2) 0.0380 Uani
C7 C 0.6659(2) 0.4490(2) 0.9023(2) 0.0300 Uani
C8 C 0.5935(2) 0.4482(2) 0.8903(2) 0.0323 Uani
C9 C 0.4953(3) 0.4382(3) 0.8534(2) 0.0493 Uani
H5 H 0.4588 0.4289 0.8255 0.0350 Uiso
O1 O 0.60862(18) 0.61773(16) 0.98903(16) 0.0491 Uani
H6 H 0.6254 0.6203 0.9459 0.0670 Uiso
H7 H 0.6362 0.6465 1.0138 0.1000 Uiso
Mn1F Mn 0.73457(4) 0.35456(3) 0.77730(3) 0.0319 Uani
Mn1H Mn 0.39544(3) 0.48457(4) 0.97270(3) 0.0319 Uani
N1G N 0.6195(2) 0.4115(2) 1.07764(19) 0.0443 Uani
N4G N 0.67061(18) 0.53478(18) 1.11507(17) 0.0320 Uani
N6H N 0.5121(2) 0.5362(2) 1.08633(18) 0.0397 Uani
C10 C 0.5334(8) 0.6362(9) 0.8020(10) 0.3007 Uani
H8 H 0.5040 0.6071 0.8273 0.4520 Uiso
H9 H 0.5167 0.6398 0.7573 0.4520 Uiso
H10 H 0.5345 0.6805 0.8220 0.4520 Uiso
C11 C 0.5973(8) 0.6096(7) 0.8012(6) 0.2087 Uani
H11 H 0.6206 0.6260 0.7619 0.2500 Uiso
H12 H 0.5939 0.5606 0.7975 0.2500 Uiso
O2 O 0.6364(3) 0.6252(3) 0.8570(2) 0.1230 Uani
H13 H 0.6757 0.6129 0.8508 0.1840 Uiso
C12 C 0.9278(7) 0.4068(11) 0.1020(10) 0.4023 Uani
H14 H 0.9344 0.3585 0.1005 0.6010 Uiso
H15 H 0.9438 0.4240 0.1439 0.6010 Uiso
H16 H 0.9528 0.4277 0.0665 0.6010 Uiso
C13 C 0.8575(7) 0.4218(8) 0.0948(7) 0.2750 Uani
H17 H 0.8361 0.4210 0.1383 0.3280 Uiso
H18 H 0.8363 0.3869 0.0678 0.3280 Uiso
O3 O 0.8457(3) 0.4884(4) 0.0640(3) 0.1540 Uani
H19 H 0.8175 0.4846 0.0342 0.2310 Uiso
O4 O -0.0000 0.2500 0.6697(9) 0.3097 Uani
H20 H 0.027(3) 0.258(4) 0.706(2) 0.0800 Uiso
H20E H -0.027(3) 0.242(4) 0.706(2) 0.0800 Uiso
loop_
_atom_site_aniso_label
_atom_site_aniso_U_11
_atom_site_aniso_U_22
_atom_site_aniso_U_33
_atom_site_aniso_U_23
_atom_site_aniso_U_13
_atom_site_aniso_U_12
Mn1 0.0306(5) 0.0381(5) 0.0271(4) -0.0112(3) -0.0014(3) 0.0010(3)
N1 0.035(3) 0.056(3) 0.042(2) -0.003(2) 0.0114(19) 0.008(2)
N2 0.034(3) 0.053(3) 0.036(2) -0.0191(19) -0.0006(18) 0.001(2)
N3 0.028(3) 0.064(3) 0.046(3) -0.019(2) 0.0011(19) 0.000(2)
N4 0.026(2) 0.034(2) 0.036(2) -0.0032(17) 0.0038(18) -0.0037(18)
N5 0.026(2) 0.040(3) 0.028(2) -0.0102(17) -0.0005(17) -0.0003(18)
N6 0.036(3) 0.050(3) 0.033(2) -0.0153(19) -0.0001(18) 0.002(2)
N7 0.032(3) 0.068(3) 0.032(2) -0.024(2) 0.0000(18) 0.004(2)
C1 0.041(4) 0.096(5) 0.057(4) -0.015(4) 0.009(3) 0.013(3)
C2 0.031(4) 0.155(8) 0.082(5) -0.017(5) 0.013(4) 0.015(4)
C3 0.034(4) 0.159(8) 0.104(6) -0.041(6) -0.007(4) -0.002(4)
C4 0.029(4) 0.119(6) 0.087(5) -0.039(5) -0.003(3) 0.002(4)
C5 0.026(3) 0.066(4) 0.050(3) -0.007(3) 0.005(2) 0.001(3)
C6 0.036(3) 0.040(3) 0.038(3) -0.006(2) 0.002(2) -0.002(2)
C7 0.032(3) 0.030(3) 0.028(2) -0.008(2) 0.003(2) 0.002(2)
C8 0.032(3) 0.036(3) 0.029(2) -0.008(2) 0.003(2) 0.003(2)
C9 0.032(3) 0.078(4) 0.038(3) -0.024(3) -0.003(2) -0.001(3)
O1 0.073(3) 0.044(2) 0.0304(19) -0.0055(16) -0.0091(18) -0.0037(19)
Mn1F 0.0381 0.0306 0.0271 -0.0014 0.0112 -0.001
Mn1H 0.0306 0.0381 0.0271 -0.0112 -0.0014 0.001
N1G 0.056 0.035 0.042 -0.0114 -0.003 -0.008
N4G 0.034 0.026 0.036 -0.0038 -0.0032 0.0037
N6H 0.036 0.05 0.033 -0.0153 -0.0001 0.002
C10 0.222(18) 0.33(3) 0.35(2) -0.145(19) 0.020(18) -0.029(16)
C11 0.322(19) 0.159(12) 0.145(11) 0.008(9) -0.090(13) -0.009(13)
O2 0.234(7) 0.082(4) 0.053(3) -0.003(3) 0.013(4) -0.009(5)
C12 0.207(15) 0.66(3) 0.34(2) 0.16(2) -0.005(18) 0.13(2)
C13 0.162(12) 0.47(3) 0.193(13) 0.147(16) -0.025(11) 0.051(16)
O3 0.112(5) 0.238(8) 0.112(5) -0.068(5) -0.045(4) 0.022(5)
O4 0.42(3) 0.199(16) 0.31(3) 0.000 0.000 -0.102(18)
loop_
_geom_bond_atom_site_label_1
_geom_bond_atom_site_label_2
_geom_bond_site_symmetry_1
_geom_bond_site_symmetry_2
Mn1 N2 1_555 1_555
N1 C1 1_555 1_555
N2 N3 1_555 1_555
N3 C6 1_555 1_555
N4 C6 1_555 1_555
N5 Mn1 1_555 1_555
N6 N5 1_555 1_555
N7 C8 1_555 1_555
C1 H1 1_555 1_555
C2 C1 1_555 1_555
H2 C2 1_555 1_555
C3 C2 1_555 1_555
H3 C3 1_555 1_555
C4 C3 1_555 1_555
H4 C4 1_555 1_555
C5 N1 1_555 1_555
C6 C5 1_555 1_555
C7 N2 1_555 1_555
C8 N5 1_555 1_555
C9 N6 1_555 1_555
H5 C9 1_555 1_555
O1 Mn1 1_555 1_555
H6 O1 1_555 1_555
H7 O1 1_555 1_555
C10 H8 1_555 1_555
H9 C10 1_555 1_555
H10 C10 1_555 1_555
C11 C10 1_555 1_555
H11 C11 1_555 1_555
H12 C11 1_555 1_555
O2 C11 1_555 1_555
H13 O2 1_555 1_555
C12 H14 1_555 1_555
H15 C12 1_555 1_555
H16 C12 1_555 1_555
C13 C12 1_555 1_555
H17 C13 1_555 1_555
H18 C13 1_555 1_555
O3 C13 1_555 1_555
H19 O3 1_555 1_555
O4 H20 1_555 1_555
Mn1F N1 1_555 1_555
Mn1H N6 1_555 1_555
N1G Mn1 1_555 1_555
N4G Mn1 1_555 1_555
N6H Mn1 1_555 1_555
H20E O4 1_555 1_555
N4 C7 1_555 1_555
N4 Mn1F 1_555 1_555
N7 C9 1_555 1_555
C4 C5 1_555 1_555
C7 C8 1_555 1_555

#END
