
#######################################################################
#
#                 Cambridge Crystallographic Data Centre
#                                CCDC 
#
#######################################################################
#
# If this CIF has been generated from an entry in the Cambridge 
# Structural Database, then it will include bibliographic, chemical, 
# crystal, experimental, refinement or atomic coordinate data resulting 
# from the CCDC's data processing and validation procedures.
#
#######################################################################

data_ETIYEN
_chemical_formula_moiety         '(C23 H26 Mn2 N2 O10)n'
_symmetry_cell_setting           monoclinic
_symmetry_space_group_name_H-M   'P 21/n'
_symmetry_Int_Tables_number      14
_space_group_name_Hall           '-P 2yn'
loop_
_symmetry_equiv_pos_site_id
_symmetry_equiv_pos_as_xyz
1 x,y,z
2 1/2-x,1/2+y,1/2-z
3 -x,-y,-z
4 1/2+x,1/2-y,1/2+z
_cell_length_a                   12.1117(15)
_cell_length_b                   11.1419(14)
_cell_length_c                   18.742(2)
_cell_angle_alpha                90
_cell_angle_beta                 93.472(2)
_cell_angle_gamma                90
_cell_volume                     2524.54
loop_
_atom_site_label
_atom_site_type_symbol
_atom_site_fract_x
_atom_site_fract_y
_atom_site_fract_z
Mn1 Mn 0.09829(3) 0.11129(3) 0.71531(2)
O1 O 0.22170(14) 0.22422(15) 0.68924(8)
Mn2 Mn -0.18857(3) 0.22075(3) 0.28293(2)
O2 O 0.43734(16) 0.2878(2) 0.69294(10)
H1 H 0.4854 0.3423 0.6962
O3 O -0.0611(2) 0.1754(2) 0.35671(13)
C1 C 0.2150(2) 0.1809(3) 0.56359(12)
O4 O 0.00156(19) -0.0119(2) 0.35605(13)
C2 C 0.2101(4) 0.0673(4) 0.5382(2)
H2 H 0.2547 0.0071 0.5613
O5 O 0.5695(3) 0.3600(3) 0.32126(14)
C3 C 0.1410(4) 0.0365(3) 0.4788(2)
H3 H 0.1381 -0.0443 0.4626
O6 O 0.6831(3) 0.2119(2) 0.35734(15)
C4 C 0.0769(2) 0.1229(2) 0.44348(12)
O7 O -0.27635(15) 0.52766(16) 0.24323(9)
C5 C 0.0780(3) 0.2369(3) 0.4718(2)
H4 H 0.0323 0.2974 0.4498
O8 O -0.15225(18) 0.41019(18) 0.30432(11)
C6 C 0.1454(3) 0.2643(3) 0.5322(2)
H5 H 0.1429 0.3426 0.5521
C7 C -0.0004(2) 0.0929(2) 0.38030(12)
C8 C 0.6046(3) 0.2834(3) 0.36540(15)
C9 C -0.1840(2) 0.5067(2) 0.27746(14)
H6 H -0.1342 0.5724 0.2829
C10 C 0.2890(3) 0.1969(4) 0.63182(16)
H7 H 0.3308 0.1210 0.6426
C11 C 0.3709(3) 0.3011(3) 0.62587(16)
H8 H 0.3300 0.3790 0.6260
C12 C 0.4376(3) 0.2947(5) 0.56046(19)
C13 C 0.4076(4) 0.3685(4) 0.5033(3)
H9 H 0.3484 0.4237 0.5070
C14 C 0.4629(5) 0.3631(5) 0.4408(3)
H10 H 0.4408 0.4143 0.4020
C15 C 0.5496(6) 0.2842(8) 0.4340(3)
C16 C 0.5796(4) 0.2097(5) 0.4909(3)
H11 H 0.6389 0.1548 0.4870
C17 C 0.5236(4) 0.2141(5) 0.5542(2)
H12 H 0.5447 0.1619 0.5928
N1 N -0.1230(4) 0.3612(4) 0.5994(3)
O9 O -0.02410(19) 0.2596(2) 0.68725(16)
C18 C -0.0790(5) 0.2649(4) 0.6316(4)
H13 H -0.0925 0.1907 0.6077
C19 C -0.1060(6) 0.4742(5) 0.6298(6)
H14 H -0.1439 0.5349 0.5994
H15 H -0.0266 0.4917 0.6341
H16 H -0.1355 0.4756 0.6773
C20 C -0.1834(11) 0.3624(10) 0.5310(6)
H17 H -0.2070 0.4445 0.5194
H18 H -0.2485 0.3105 0.5327
H19 H -0.1358 0.3328 0.4944
Mn1B Mn -0.09829(3) -0.11129(3) 0.28469(2)
Mn1C Mn -0.40171(3) 0.38871(3) 0.21531(2)
Mn1C_2 Mn 0.59829(3) 0.38871(3) 0.21531(2)
O1C O -0.27830(14) 0.27578(15) 0.18924(8)
Mn2_2 Mn 0.81143(3) 0.22075(3) 0.28293(2)
Mn2A Mn -0.31143(3) 0.72075(3) 0.21707(2)
Mn2C Mn 0.31143(3) 0.27925(3) 0.78293(2)
O2C O -0.06266(16) 0.2122(2) 0.19294(10)
O4B O -0.00156(19) 0.0119(2) 0.64395(13)
O5C O 0.0695(3) 0.1400(3) 0.82126(14)
O6_2 O -0.3169(3) 0.2119(2) 0.35734(15)
O7A O -0.22365(15) 0.02766(16) 0.25677(9)
O7C O 0.22365(15) -0.02766(16) 0.74323(9)
N2 N 0.7508(4) 0.4031(7) 0.7956(3)
O10 O 0.6159(5) 0.4486(6) 0.7177(3)
C29 C 0.6721(8) 0.3735(10) 0.7512(5)
H26 H 0.6562 0.2908 0.7438
C30 C 0.7791(17) 0.5316(15) 0.8057(11)
H27 H 0.8412 0.5392 0.8415
H28 H 0.8000 0.5657 0.7602
H29 H 0.7149 0.5748 0.8221
C31 C 0.8247(11) 0.3397(16) 0.8355(8)
H30 H 0.8733 0.3945 0.8636
H31 H 0.7861 0.2873 0.8678
H32 H 0.8689 0.2908 0.8045
loop_
_geom_bond_atom_site_label_1
_geom_bond_atom_site_label_2
_geom_bond_site_symmetry_1
_geom_bond_site_symmetry_2
Mn1 O1 1_555 1_555
O1 C10 1_555 1_555
Mn2 O3 1_555 1_555
O2 H1 1_555 1_555
O3 C7 1_555 1_555
C1 C2 1_555 1_555
O4 C7 1_555 1_555
C2 H2 1_555 1_555
O5 C8 1_555 1_555
C3 C2 1_555 1_555
H3 C3 1_555 1_555
O6 C8 1_555 1_555
C4 C3 1_555 1_555
O7 C9 1_555 1_555
C5 C4 1_555 1_555
H4 C5 1_555 1_555
O8 Mn2 1_555 1_555
C6 C1 1_555 1_555
H5 C6 1_555 1_555
C7 C4 1_555 1_555
C8 C15 1_555 1_555
C9 O8 1_555 1_555
H6 C9 1_555 1_555
C10 C1 1_555 1_555
H7 C10 1_555 1_555
C11 O2 1_555 1_555
H8 C11 1_555 1_555
C12 C11 1_555 1_555
C13 C12 1_555 1_555
H9 C13 1_555 1_555
C14 C13 1_555 1_555
H10 C14 1_555 1_555
C15 C14 1_555 1_555
C16 C15 1_555 1_555
H11 C16 1_555 1_555
C17 C12 1_555 1_555
H12 C17 1_555 1_555
N1 C18 1_555 1_555
O9 Mn1 1_555 1_555
C18 O9 1_555 1_555
H13 C18 1_555 1_555
C19 N1 1_555 1_555
H14 C19 1_555 1_555
H15 C19 1_555 1_555
H16 C19 1_555 1_555
C20 N1 1_555 1_555
H17 C20 1_555 1_555
H18 C20 1_555 1_555
H19 C20 1_555 1_555
N2 C29 1_555 1_555
O10 C29 1_555 1_555
C29 H26 1_555 1_555
C30 N2 1_555 1_555
H27 C30 1_555 1_555
H28 C30 1_555 1_555
H29 C30 1_555 1_555
C31 N2 1_555 1_555
H30 C31 1_555 1_555
H31 C31 1_555 1_555
H32 C31 1_555 1_555
Mn1B O4 1_555 1_555
Mn1C O7 1_555 1_555
Mn1C_2 O5 1_555 1_555
O1C Mn2 1_555 1_555
Mn2_2 O6 1_555 1_555
Mn2A O7 1_555 1_555
Mn2C O1 1_555 1_555
O2C Mn2 1_555 1_555
O4B Mn1 1_555 1_555
O5C Mn1 1_555 1_555
O6_2 Mn2 1_555 1_555
O7A Mn2 1_555 1_555
O7C Mn1 1_555 1_555
O2 Mn2C 1_555 1_555
C5 C6 1_555 1_555
C10 C11 1_555 1_555
C16 C17 1_555 1_555
Mn1B O7A 1_555 1_555
Mn1C O1C 1_555 1_555

#END
