
#######################################################################
#
#                 Cambridge Crystallographic Data Centre
#                                CCDC 
#
#######################################################################
#
# If this CIF has been generated from an entry in the Cambridge 
# Structural Database, then it will include bibliographic, chemical, 
# crystal, experimental, refinement or atomic coordinate data resulting 
# from the CCDC's data processing and validation procedures.
#
#######################################################################

data_EXEMUR
_chemical_formula_moiety         '(C72 H50 Cd5 Cl14 N6 O13 2+)n'
_symmetry_cell_setting           trigonal
_symmetry_space_group_name_H-M   'P -3 1 c'
_symmetry_Int_Tables_number      163
_space_group_name_Hall           '-P 3 2c'
loop_
_symmetry_equiv_pos_site_id
_symmetry_equiv_pos_as_xyz
1 x,y,z
2 -y,x-y,z
3 -x+y,-x,z
4 -y,-x,1/2-z
5 x,x-y,1/2-z
6 -x+y,y,1/2-z
7 -x,-y,-z
8 y,-x+y,-z
9 x-y,x,-z
10 y,x,1/2+z
11 -x,-x+y,1/2+z
12 x-y,-y,1/2+z
_cell_length_a                   18.196(5)
_cell_length_b                   18.196(5)
_cell_length_c                   15.127(5)
_cell_angle_alpha                90
_cell_angle_beta                 90
_cell_angle_gamma                120
_cell_volume                     4337.46
loop_
_atom_site_label
_atom_site_type_symbol
_atom_site_fract_x
_atom_site_fract_y
_atom_site_fract_z
O3 O 0.8290(8) 0.9606(6) 0.8680(9)
Cd3 Cd 0.6667 0.3333 0.7500
Cl2 Cl 0.6667 0.3333 0.5898(5)
Cl3 Cl 0.6052(2) 0.4192(2) 0.7006(3)
Cl3C Cl 0.5808(2) 0.3948(2) 0.7994(3)
Cl3A Cl 0.5808(2) 0.1860(3) 0.7006(3)
Cl3D Cl 0.6052(2) 0.1860(3) 0.7994(3)
Cl3B Cl 0.8140(3) 0.3948(2) 0.7006(3)
Cl3E Cl 0.8140(3) 0.4192(2) 0.7994(3)
Cl2C Cl 0.6667 0.3333 0.9102(5)
C1 C 0.0567(3) 0.3248(3) 0.8219(3)
C2 C -0.0339(3) 0.2716(3) 0.8533(3)
C3 C -0.0586(4) 0.1981(4) 0.8997(5)
H1 H -0.0183 0.1813 0.9137
C4 C -0.0908(3) 0.2976(4) 0.8386(5)
H2 H -0.0734 0.3498 0.8089
C5 C -0.1425(4) 0.1484(4) 0.9262(5)
H3 H -0.1602 0.0968 0.9572
C6 C -0.1740(3) 0.2490(4) 0.8665(6)
H4 H -0.2133 0.2681 0.8567
C7 C -0.1992(3) 0.1745(3) 0.9074(4)
C8 C -0.3215(3) 0.1523(4) 0.9898(5)
H5 H -0.2879 0.2086 1.0114
C9 C -0.3314(4) 0.0415(3) 0.9114(5)
H6 H -0.3047 0.0170 0.8782
C10 C -0.4038(3) 0.1052(4) 1.0171(5)
H7 H -0.4256 0.1284 1.0589
C11 C -0.4155(4) -0.0072(3) 0.9350(5)
H8 H -0.4470 -0.0645 0.9159
C12 C -0.4547(3) 0.0260(3) 0.9857(4)
N1 N -0.2877(2) 0.1225(2) 0.9351(3)
O1 O 0.1139(2) 0.3151(3) 0.8547(3)
O2 O 0.0718(2) 0.3772(3) 0.7633(3)
Cl1 Cl 0.22970(6) 0.54043(5) 0.64607(7)
Cd1 Cd 0.3333 0.6667 0.7500
Cd2 Cd 0.211500(11) 0.42300(2) 0.7500
C1F C -1.0567(3) -0.3248(3) 1.1781(3)
C2F C -0.9661(3) -0.2716(3) 1.1467(3)
C3F C -0.9414(4) -0.1981(4) 1.1003(5)
H1F H -0.9817 -0.1813 1.0863
C4F C -0.9092(3) -0.2976(4) 1.1614(5)
H2F H -0.9266 -0.3498 1.1911
C5F C -0.8575(4) -0.1484(4) 1.0738(5)
H3F H -0.8398 -0.0968 1.0428
C6F C -0.8260(3) -0.2490(4) 1.1335(6)
H4F H -0.7867 -0.2681 1.1433
C7F C -0.8008(3) -0.1745(3) 1.0926(4)
C8F C -0.6785(3) -0.1523(4) 1.0102(5)
H5F H -0.7121 -0.2086 0.9886
C9F C -0.6686(4) -0.0415(3) 1.0886(5)
H6F H -0.6953 -0.0170 1.1218
C10F C -0.5962(3) -0.1052(4) 0.9829(5)
H7F H -0.5744 -0.1284 0.9411
C11F C -0.5845(4) 0.0072(3) 1.0650(5)
H8F H -0.5530 0.0645 1.0841
C12F C -0.5453(3) -0.0260(3) 1.0143(4)
N1F N -0.7123(2) -0.1225(2) 1.0649(3)
O1F O -1.1139(2) -0.3151(3) 1.1453(3)
O2F O -1.0718(2) -0.3772(3) 1.2367(3)
C1A C 0.6752(3) 0.7319(4) 0.8219(3)
C2A C 0.7284(3) 0.6945(4) 0.8533(3)
C3A C 0.8019(4) 0.7433(6) 0.8997(5)
H1A H 0.8187 0.8004 0.9137
C4A C 0.7024(4) 0.6116(5) 0.8386(5)
H2A H 0.6502 0.5768 0.8089
C5A C 0.8516(4) 0.7091(6) 0.9262(5)
H3A H 0.9032 0.7430 0.9572
C6A C 0.7510(4) 0.5770(5) 0.8665(6)
H4A H 0.7319 0.5186 0.8567
C7A C 0.8255(3) 0.6263(4) 0.9074(4)
C8A C 0.8477(4) 0.5262(5) 0.9898(5)
H5A H 0.7914 0.5035 1.0114
C9A C 0.9585(3) 0.6271(5) 0.9114(5)
H6A H 0.9830 0.6783 0.8782
C10A C 0.8948(4) 0.4910(5) 1.0171(5)
H7A H 0.8716 0.4460 1.0589
C11A C 1.0072(3) 0.5917(5) 0.9350(5)
H8A H 1.0645 0.6175 0.9159
C12A C 0.9740(3) 0.5193(4) 0.9857(4)
N1A N 0.8775(2) 0.5898(3) 0.9351(3)
O1A O 0.6849(3) 0.7988(4) 0.8547(3)
O2A O 0.6228(3) 0.6946(4) 0.7633(3)
Cl1A Cl 0.45957(5) 0.68927(8) 0.64607(7)
Cd2A Cd 0.57700(2) 0.788500(23) 0.7500
C1G C 1.3248(3) 0.2681(4) 1.1781(3)
C2G C 1.2716(3) 0.3055(4) 1.1467(3)
C3G C 1.1981(4) 0.2567(6) 1.1003(5)
H1G H 1.1813 0.1996 1.0863
C4G C 1.2976(4) 0.3884(5) 1.1614(5)
H2G H 1.3498 0.4232 1.1911
C5G C 1.1484(4) 0.2909(6) 1.0738(5)
H3G H 1.0968 0.2570 1.0428
C6G C 1.2490(4) 0.4230(5) 1.1335(6)
H4G H 1.2681 0.4814 1.1433
C7G C 1.1745(3) 0.3737(4) 1.0926(4)
C8G C 1.1523(4) 0.4738(5) 1.0102(5)
H5G H 1.2086 0.4965 0.9886
C9G C 1.0415(3) 0.3729(5) 1.0886(5)
H6G H 1.0170 0.3217 1.1218
C10G C 1.1052(4) 0.5090(5) 0.9829(5)
H7G H 1.1284 0.5540 0.9411
C11G C 0.9928(3) 0.4083(5) 1.0650(5)
H8G H 0.9355 0.3825 1.0841
C12G C 1.0260(3) 0.4807(4) 1.0143(4)
N1G N 1.1225(2) 0.4102(3) 1.0649(3)
O1G O 1.3151(3) 0.2012(4) 1.1453(3)
O2G O 1.3772(3) 0.3054(4) 1.2367(3)
C1B C 0.2681(4) 0.9433(3) 0.8219(3)
C2B C 0.3055(4) 1.0339(3) 0.8533(3)
C3B C 0.2567(6) 1.0586(4) 0.8997(5)
H1B H 0.1996 1.0183 0.9137
C4B C 0.3884(5) 1.0908(3) 0.8386(5)
H2B H 0.4232 1.0734 0.8089
C5B C 0.2909(6) 1.1425(4) 0.9262(5)
H3B H 0.2570 1.1602 0.9572
C6B C 0.4230(5) 1.1740(3) 0.8665(6)
H4B H 0.4814 1.2133 0.8567
C7B C 0.3737(4) 1.1992(3) 0.9074(4)
C8B C 0.4738(5) 1.3215(3) 0.9898(5)
H5B H 0.4965 1.2879 1.0114
C9B C 0.3729(5) 1.3314(4) 0.9114(5)
H6B H 0.3217 1.3047 0.8782
C10B C 0.5090(5) 1.4038(3) 1.0171(5)
H7B H 0.5540 1.4256 1.0589
C11B C 0.4083(5) 1.4155(4) 0.9350(5)
H8B H 0.3825 1.4470 0.9159
C12B C 0.4807(4) 1.4547(3) 0.9857(4)
N1B N 0.4102(3) 1.2877(2) 0.9351(3)
O1B O 0.2012(4) 0.8861(2) 0.8547(3)
O2B O 0.3054(4) 0.9282(2) 0.7633(3)
Cl1B Cl 0.31073(8) 0.77030(6) 0.64607(7)
Cd2B Cd 0.211500(23) 0.788500(11) 0.7500
C1H C 0.7319(4) 2.0567(3) 1.1781(3)
C2H C 0.6945(4) 1.9661(3) 1.1467(3)
C3H C 0.7433(6) 1.9414(4) 1.1003(5)
H1H H 0.8004 1.9817 1.0863
C4H C 0.6116(5) 1.9092(3) 1.1614(5)
H2H H 0.5768 1.9266 1.1911
C5H C 0.7091(6) 1.8575(4) 1.0738(5)
H3H H 0.7430 1.8398 1.0428
C6H C 0.5770(5) 1.8260(3) 1.1335(6)
H4H H 0.5186 1.7867 1.1433
C7H C 0.6263(4) 1.8008(3) 1.0926(4)
C8H C 0.5262(5) 1.6785(3) 1.0102(5)
H5H H 0.5035 1.7121 0.9886
C9H C 0.6271(5) 1.6686(4) 1.0886(5)
H6H H 0.6783 1.6953 1.1218
C10H C 0.4910(5) 1.5962(3) 0.9829(5)
H7H H 0.4460 1.5744 0.9411
C11H C 0.5917(5) 1.5845(4) 1.0650(5)
H8H H 0.6175 1.5530 1.0841
C12H C 0.5193(4) 1.5453(3) 1.0143(4)
N1H N 0.5898(3) 1.7123(2) 1.0649(3)
O1H O 0.7988(4) 2.1139(2) 1.1453(3)
O2H O 0.6946(4) 2.0718(2) 1.2367(3)
Cl1C Cl 0.45957(5) 0.77030(6) 0.85393(7)
Cl1D Cl 0.22970(6) 0.68927(8) 0.85393(7)
Cl1E Cl 0.31073(8) 0.54043(5) 0.85393(7)
O1C O 0.6849(3) 0.8861(2) 0.6453(3)
O1D O 0.1139(2) 0.7988(4) 0.6453(3)
O1E O 0.2012(4) 0.3151(3) 0.6453(3)
O2C O 0.6228(3) 0.9282(2) 0.7367(3)
O2D O 0.0718(2) 0.6946(4) 0.7367(3)
O2E O 0.3054(4) 0.3772(3) 0.7367(3)
Cd2F Cd -1.211500(11) -0.42300(2) 1.2500
Cd2G Cd 1.42300(2) 0.211500(23) 1.2500
Cd2H Cd 0.788500(23) 2.211500(11) 1.2500
loop_
_geom_bond_atom_site_label_1
_geom_bond_atom_site_label_2
_geom_bond_site_symmetry_1
_geom_bond_site_symmetry_2
C1 C2 1_555 1_555
C2 C3 1_555 1_555
C3 H1 1_555 1_555
C4 C2 1_555 1_555
H2 C4 1_555 1_555
C5 C3 1_555 1_555
H3 C5 1_555 1_555
C6 C4 1_555 1_555
H4 C6 1_555 1_555
C7 C5 1_555 1_555
C8 H5 1_555 1_555
C9 H6 1_555 1_555
C10 C8 1_555 1_555
H7 C10 1_555 1_555
C11 C9 1_555 1_555
H8 C11 1_555 1_555
C12 C10 1_555 1_555
N1 C7 1_555 1_555
O1 C1 1_555 1_555
O2 C1 1_555 1_555
Cl1 Cd1 1_555 1_555
Cd1 Cl1A 1_555 1_555
Cd2 O1 1_555 1_555
Cd3 Cl2 1_555 1_555
Cl3 Cd3 1_555 1_555
C1F C2F 1_555 1_555
C2F C3F 1_555 1_555
C3F H1F 1_555 1_555
C4F C2F 1_555 1_555
H2F C4F 1_555 1_555
C5F C3F 1_555 1_555
H3F C5F 1_555 1_555
C6F C4F 1_555 1_555
H4F C6F 1_555 1_555
C7F C5F 1_555 1_555
C8F H5F 1_555 1_555
C9F H6F 1_555 1_555
C10F C8F 1_555 1_555
H7F C10F 1_555 1_555
C11F C9F 1_555 1_555
H8F C11F 1_555 1_555
C12F C12 1_555 1_555
N1F C7F 1_555 1_555
O1F C1F 1_555 1_555
O2F C1F 1_555 1_555
C1A C2A 1_555 1_555
C2A C3A 1_555 1_555
C3A H1A 1_555 1_555
C4A C2A 1_555 1_555
H2A C4A 1_555 1_555
C5A C3A 1_555 1_555
H3A C5A 1_555 1_555
C6A C4A 1_555 1_555
H4A C6A 1_555 1_555
C7A C5A 1_555 1_555
C8A H5A 1_555 1_555
C9A H6A 1_555 1_555
C10A C8A 1_555 1_555
H7A C10A 1_555 1_555
C11A C9A 1_555 1_555
H8A C11A 1_555 1_555
C12A C10A 1_555 1_555
N1A C7A 1_555 1_555
O1A C1A 1_555 1_555
O2A C1A 1_555 1_555
Cl1A Cd2A 1_555 1_555
Cd2A O1A 1_555 1_555
C1G C2G 1_555 1_555
C2G C3G 1_555 1_555
C3G H1G 1_555 1_555
C4G C2G 1_555 1_555
H2G C4G 1_555 1_555
C5G C3G 1_555 1_555
H3G C5G 1_555 1_555
C6G C4G 1_555 1_555
H4G C6G 1_555 1_555
C7G C5G 1_555 1_555
C8G H5G 1_555 1_555
C9G H6G 1_555 1_555
C10G C8G 1_555 1_555
H7G C10G 1_555 1_555
C11G C9G 1_555 1_555
H8G C11G 1_555 1_555
C12G C12A 1_555 1_555
N1G C7G 1_555 1_555
O1G C1G 1_555 1_555
O2G C1G 1_555 1_555
C1B C2B 1_555 1_555
C2B C3B 1_555 1_555
C3B H1B 1_555 1_555
C4B C2B 1_555 1_555
H2B C4B 1_555 1_555
C5B C3B 1_555 1_555
H3B C5B 1_555 1_555
C6B C4B 1_555 1_555
H4B C6B 1_555 1_555
C7B C5B 1_555 1_555
C8B H5B 1_555 1_555
C9B H6B 1_555 1_555
C10B C8B 1_555 1_555
H7B C10B 1_555 1_555
C11B C9B 1_555 1_555
H8B C11B 1_555 1_555
C12B C10B 1_555 1_555
N1B C7B 1_555 1_555
O1B C1B 1_555 1_555
O2B C1B 1_555 1_555
Cl1B Cd1 1_555 1_555
Cd2B O1B 1_555 1_555
C1H C2H 1_555 1_555
C2H C3H 1_555 1_555
C3H H1H 1_555 1_555
C4H C2H 1_555 1_555
H2H C4H 1_555 1_555
C5H C3H 1_555 1_555
H3H C5H 1_555 1_555
C6H C4H 1_555 1_555
H4H C6H 1_555 1_555
C7H C5H 1_555 1_555
C8H H5H 1_555 1_555
C9H H6H 1_555 1_555
C10H C8H 1_555 1_555
H7H C10H 1_555 1_555
C11H C9H 1_555 1_555
H8H C11H 1_555 1_555
C12H C12B 1_555 1_555
N1H C7H 1_555 1_555
O1H C1H 1_555 1_555
O2H C1H 1_555 1_555
Cl1C Cd1 1_555 1_555
Cl1D Cd1 1_555 1_555
Cl1E Cd1 1_555 1_555
O1C Cd2A 1_555 1_555
O1D Cd2B 1_555 1_555
O1E Cd2 1_555 1_555
O2C Cd2A 1_555 1_555
O2D Cd2B 1_555 1_555
O2E Cd2 1_555 1_555
Cd2F O1F 1_555 1_555
Cd2G O1G 1_555 1_555
Cd2H O1H 1_555 1_555
Cl3C Cd3 1_555 1_555
Cl3A Cd3 1_555 1_555
Cl3D Cd3 1_555 1_555
Cl3B Cd3 1_555 1_555
Cl3E Cd3 1_555 1_555
Cl2C Cd3 1_555 1_555
C6 C7 1_555 1_555
C8 N1 1_555 1_555
C9 N1 1_555 1_555
C11 C12 1_555 1_555
O2 Cd2 1_555 1_555
Cl1 Cd2 1_555 1_555
Cd2 Cl1E 1_555 1_555
Cl3 Cl3C 1_555 1_555
C6F C7F 1_555 1_555
C8F N1F 1_555 1_555
C9F N1F 1_555 1_555
C10F C12F 1_555 1_555
C11F C12F 1_555 1_555
O2F Cd2F 1_555 1_555
C6A C7A 1_555 1_555
C8A N1A 1_555 1_555
C9A N1A 1_555 1_555
C11A C12A 1_555 1_555
O2A Cd2A 1_555 1_555
Cd2A Cl1C 1_555 1_555
C6G C7G 1_555 1_555
C8G N1G 1_555 1_555
C9G N1G 1_555 1_555
C10G C12G 1_555 1_555
C11G C12G 1_555 1_555
O2G Cd2G 1_555 1_555
C6B C7B 1_555 1_555
C8B N1B 1_555 1_555
C9B N1B 1_555 1_555
C11B C12B 1_555 1_555
O2B Cd2B 1_555 1_555
Cl1B Cd2B 1_555 1_555
Cd2B Cl1D 1_555 1_555
C6H C7H 1_555 1_555
C8H N1H 1_555 1_555
C9H N1H 1_555 1_555
C10H C12H 1_555 1_555
C11H C12H 1_555 1_555
O2H Cd2H 1_555 1_555
Cl3A Cl3D 1_555 1_555
Cl3B Cl3E 1_555 1_555

#END
