
#######################################################################
#
#                 Cambridge Crystallographic Data Centre
#                                CCDC 
#
#######################################################################
#
# If this CIF has been generated from an entry in the Cambridge 
# Structural Database, then it will include bibliographic, chemical, 
# crystal, experimental, refinement or atomic coordinate data resulting 
# from the CCDC's data processing and validation procedures.
#
#######################################################################

data_KOGYIP
_chemical_formula_moiety         '(C20 H16 Cl1 Cu2 N4 1+)n'
_symmetry_cell_setting           orthorhombic
_symmetry_space_group_name_H-M   'C 2 2 2'
_symmetry_Int_Tables_number      21
_space_group_name_Hall           'C 2 2'
loop_
_symmetry_equiv_pos_site_id
_symmetry_equiv_pos_as_xyz
1 x,y,z
2 -x,-y,z
3 -x,y,-z
4 x,-y,-z
5 1/2+x,1/2+y,z
6 1/2-x,1/2-y,z
7 1/2-x,1/2+y,-z
8 1/2+x,1/2-y,-z
_cell_length_a                   15.083(2)
_cell_length_b                   20.531(3)
_cell_length_c                   3.6656(6)
_cell_angle_alpha                90
_cell_angle_beta                 90
_cell_angle_gamma                90
_cell_volume                     1135.12
loop_
_atom_site_label
_atom_site_type_symbol
_atom_site_fract_x
_atom_site_fract_y
_atom_site_fract_z
Cu1 Cu 0.62178(8) 0.5000 -0.5000
Cl1 Cl 0.5000 0.5000 -1.0000
N1 N 0.6691(3) 0.5889(2) -0.5342(17)
C1 C 0.6183(4) 0.6384(3) -0.6426(18)
H1 H 0.5604 0.6295 -0.7143
C2 C 0.6471(4) 0.7015(3) -0.6537(17)
H2 H 0.6095 0.7343 -0.7351
C3 C 0.7319(4) 0.7163(2) -0.5440(19)
C4 C 0.7859(4) 0.6640(3) -0.4321(17)
H3 H 0.8445 0.6713 -0.3635
C5 C 0.7512(4) 0.6024(3) -0.4255(17)
H4 H 0.7865 0.5684 -0.3413
Cu1_2 Cu 0.62178(8) 0.5000 -1.5000
Cu1A Cu 0.37822(8) 0.5000 -1.5000
Cu1A_2 Cu 0.37822(8) 0.5000 -0.5000
Cu1E Cu 0.87822(8) 1.0000 -0.5000
Cu1E_2 Cu 0.87822(8) 0.0000 -0.5000
Cl1_2 Cl 0.5000 0.5000 0.0000
Cl1_3 Cl 0.5000 0.5000 -2.0000
N1E N 0.8309(3) 0.9111(2) -0.5342(17)
N1C N 0.6691(3) 0.4111(2) -0.4658(17)
N1F N 0.8309(3) 0.0889(2) -0.4658(17)
N1_2 N 0.6691(3) 0.5889(2) -1.5342(17)
N1C_2 N 0.6691(3) 0.4111(2) -1.4658(17)
C1E C 0.8817(4) 0.8616(3) -0.6426(18)
C1C C 0.6183(4) 0.3616(3) -0.3574(18)
C1F C 0.8817(4) 0.1384(3) -0.3574(18)
H1E H 0.9396 0.8705 -0.7143
H1C H 0.5604 0.3705 -0.2857
H1F H 0.9396 0.1295 -0.2857
C2E C 0.8529(4) 0.7985(3) -0.6537(17)
C2C C 0.6471(4) 0.2985(3) -0.3463(17)
C2F C 0.8529(4) 0.2015(3) -0.3463(17)
H2E H 0.8905 0.7657 -0.7351
H2C H 0.6095 0.2657 -0.2649
H2F H 0.8905 0.2343 -0.2649
C3E C 0.7681(4) 0.7837(2) -0.5440(19)
C3C C 0.7319(4) 0.2837(2) -0.4560(19)
C3F C 0.7681(4) 0.2163(2) -0.4560(19)
C4E C 0.7141(4) 0.8360(3) -0.4321(17)
C4C C 0.7859(4) 0.3360(3) -0.5679(17)
C4F C 0.7141(4) 0.1640(3) -0.5679(17)
H3E H 0.6555 0.8287 -0.3635
H3C H 0.8445 0.3287 -0.6365
H3F H 0.6555 0.1713 -0.6365
C5E C 0.7488(4) 0.8976(3) -0.4255(17)
C5C C 0.7512(4) 0.3976(3) -0.5745(17)
C5F C 0.7488(4) 0.1024(3) -0.5745(17)
H4E H 0.7135 0.9316 -0.3413
H4C H 0.7865 0.4316 -0.6587
H4F H 0.7135 0.0684 -0.6587
loop_
_geom_bond_atom_site_label_1
_geom_bond_atom_site_label_2
_geom_bond_site_symmetry_1
_geom_bond_site_symmetry_2
Cu1 Cl1 1_555 1_555
Cl1 Cu1_2 1_555 1_555
N1 Cu1 1_555 1_555
C1 N1 1_555 1_555
H1 C1 1_555 1_555
C2 C1 1_555 1_555
H2 C2 1_555 1_555
C3 C2 1_555 1_555
C4 C3 1_555 1_555
H3 C4 1_555 1_555
C5 N1 1_555 1_555
H4 C5 1_555 1_555
Cu1_2 Cl1_3 1_555 1_555
Cu1A Cl1 1_555 1_555
Cu1A_2 Cl1 1_555 1_555
Cu1E N1E 1_555 1_555
Cu1E_2 N1F 1_555 1_555
Cl1_2 Cu1 1_555 1_555
Cl1_3 Cu1A 1_555 1_555
N1E C1E 1_555 1_555
N1C Cu1 1_555 1_555
N1F C1F 1_555 1_555
N1_2 Cu1_2 1_555 1_555
N1C_2 Cu1_2 1_555 1_555
C1E H1E 1_555 1_555
C1C N1C 1_555 1_555
C1F H1F 1_555 1_555
H1C C1C 1_555 1_555
C2E C1E 1_555 1_555
C2C C1C 1_555 1_555
C2F C1F 1_555 1_555
H2E C2E 1_555 1_555
H2C C2C 1_555 1_555
H2F C2F 1_555 1_555
C3E C3 1_555 1_555
C3C C2C 1_555 1_555
C3F C2F 1_555 1_555
C4E C3E 1_555 1_555
C4C C3C 1_555 1_555
C4F C3F 1_555 1_555
H3E C4E 1_555 1_555
H3C C4C 1_555 1_555
H3F C4F 1_555 1_555
C5E N1E 1_555 1_555
C5C N1C 1_555 1_555
C5F N1F 1_555 1_555
H4E C5E 1_555 1_555
H4C C5C 1_555 1_555
H4F C5F 1_555 1_555
C4 C5 1_555 1_555
Cu1A_2 Cl1_2 1_555 1_555
C2E C3E 1_555 1_555
C3C C3F 1_555 1_555
C4E C5E 1_555 1_555
C4C C5C 1_555 1_555
C4F C5F 1_555 1_555

#END
