
#######################################################################
#
#                 Cambridge Crystallographic Data Centre
#                                CCDC 
#
#######################################################################
#
# If this CIF has been generated from an entry in the Cambridge 
# Structural Database, then it will include bibliographic, chemical, 
# crystal, experimental, refinement or atomic coordinate data resulting 
# from the CCDC's data processing and validation procedures.
#
#######################################################################

data_OFEZEF
_chemical_formula_moiety         '(C9 H48 Al9 N5 O49 P12 12-)n'
_symmetry_cell_setting           cubic
_symmetry_space_group_name_H-M   'I -4 3 m'
_symmetry_Int_Tables_number      217
_space_group_name_Hall           'I -4 2 3'
loop_
_symmetry_equiv_pos_site_id
_symmetry_equiv_pos_as_xyz
1 x,y,z
2 -x,-y,z
3 -x,y,-z
4 x,-y,-z
5 z,x,y
6 z,-x,-y
7 -z,-x,y
8 -z,x,-y
9 y,z,x
10 -y,z,-x
11 y,-z,-x
12 -y,-z,x
13 y,x,z
14 -y,-x,z
15 y,-x,-z
16 -y,x,-z
17 x,z,y
18 -x,z,-y
19 -x,-z,y
20 x,-z,-y
21 z,y,x
22 z,-y,-x
23 -z,y,-x
24 -z,-y,x
25 1/2+x,1/2+y,1/2+z
26 1/2-x,1/2-y,1/2+z
27 1/2-x,1/2+y,1/2-z
28 1/2+x,1/2-y,1/2-z
29 1/2+z,1/2+x,1/2+y
30 1/2+z,1/2-x,1/2-y
31 1/2-z,1/2-x,1/2+y
32 1/2-z,1/2+x,1/2-y
33 1/2+y,1/2+z,1/2+x
34 1/2-y,1/2+z,1/2-x
35 1/2+y,1/2-z,1/2-x
36 1/2-y,1/2-z,1/2+x
37 1/2+y,1/2+x,1/2+z
38 1/2-y,1/2-x,1/2+z
39 1/2+y,1/2-x,1/2-z
40 1/2-y,1/2+x,1/2-z
41 1/2+x,1/2+z,1/2+y
42 1/2-x,1/2+z,1/2-y
43 1/2-x,1/2-z,1/2+y
44 1/2+x,1/2-z,1/2-y
45 1/2+z,1/2+y,1/2+x
46 1/2+z,1/2-y,1/2-x
47 1/2-z,1/2+y,1/2-x
48 1/2-z,1/2-y,1/2+x
_cell_length_a                   16.795(2)
_cell_length_b                   16.795(2)
_cell_length_c                   16.795(2)
_cell_angle_alpha                90
_cell_angle_beta                 90
_cell_angle_gamma                90
_cell_volume                     4737.4
loop_
_atom_site_label
_atom_site_type_symbol
_atom_site_fract_x
_atom_site_fract_y
_atom_site_fract_z
O1 O 0.0534(11) 0.9466(11) 0.2309(14)
H8 H 0.0184(11) 0.8888(11) 0.2290(14)
H8M H 0.1112(11) 0.9816(11) 0.2290(14)
N3 N 0.0903(19) 0.9097(19) 0.0903(19)
H9 H 0.04(14) 0.90(14) 0.04(14)
H9E H 0.04(14) 0.96(14) 0.10(14)
H9K H 0.10(14) 0.96(14) 0.04(14)
Al1 Al -0.0000 0.5000 0.2500
Al2 Al -0.0000 0.5000 0.0000
P1 P 0.12243(10) 0.57089(13) 0.12243(10)
O2 O 0.1418(3) 0.6554(4) 0.1418(3)
O3 O 0.0949(3) 0.5253(3) 0.1954(3)
O4 O 0.0576(3) 0.5666(5) 0.0576(3)
Al1T Al 0.2500 0.5000 0.0000
Al1V Al -0.2500 0.5000 0.0000
Al1B Al -0.0000 0.5000 -0.2500
Al1P Al -0.0000 0.2500 0.5000
Al1R Al -0.0000 0.7500 0.5000
Al1P_2 Al 0.0000 0.2500 -0.5000
Al1R_2 Al 0.0000 0.7500 -0.5000
Al1B_2 Al -0.0000 0.5000 0.7500
Al1V_2 Al -0.2500 0.5000 1.0000
Al1T_2 Al 0.2500 0.5000 1.0000
Al2FA Al -0.0000 0.5000 0.5000
Al2FA_2 Al 0.0000 0.5000 -0.5000
Al2_2 Al -0.0000 0.5000 1.0000
P1A P -0.12243(10) 0.42911(13) 0.12243(10)
P1B P -0.12243(10) 0.57089(13) -0.12243(10)
P1C P 0.12243(10) 0.42911(13) -0.12243(10)
P1HA P 0.07089(13) 0.37757(10) 0.37757(10)
P1GA P -0.07089(13) 0.62243(10) 0.37757(10)
P1IA P -0.07089(13) 0.37757(10) -0.37757(10)
P1FA P 0.07089(13) 0.62243(10) -0.37757(10)
P1FA_2 P 0.07089(13) 0.62243(10) 0.62243(10)
P1IA_2 P -0.07089(13) 0.37757(10) 0.62243(10)
P1B_2 P -0.12243(10) 0.57089(13) 0.87757(10)
P1C_2 P 0.12243(10) 0.42911(13) 0.87757(10)
O2A O -0.1418(3) 0.3446(4) 0.1418(3)
O2B O -0.1418(3) 0.6554(4) -0.1418(3)
O2C O 0.1418(3) 0.3446(4) -0.1418(3)
O2HA O 0.1554(4) 0.3582(3) 0.3582(3)
O2GA O -0.1554(4) 0.6418(3) 0.3582(3)
O2IA O -0.1554(4) 0.3582(3) -0.3582(3)
O2FA O 0.1554(4) 0.6418(3) -0.3582(3)
O2FA_2 O 0.1554(4) 0.6418(3) 0.6418(3)
O2IA_2 O -0.1554(4) 0.3582(3) 0.6418(3)
O2B_2 O -0.1418(3) 0.6554(4) 0.8582(3)
O2C_2 O 0.1418(3) 0.3446(4) 0.8582(3)
O3T O 0.1954(3) 0.5253(3) 0.0949(3)
O3A O -0.0949(3) 0.4747(3) 0.1954(3)
O3W O -0.1954(3) 0.4747(3) 0.0949(3)
O3B O -0.0949(3) 0.5253(3) -0.1954(3)
O3V O -0.1954(3) 0.5253(3) -0.0949(3)
O3C O 0.0949(3) 0.4747(3) -0.1954(3)
O3U O 0.1954(3) 0.4747(3) -0.0949(3)
O3LA O 0.0253(3) 0.4051(3) 0.3046(3)
O3HA O 0.0253(3) 0.3046(3) 0.4051(3)
O3MA O -0.0253(3) 0.5949(3) 0.3046(3)
O3GA O -0.0253(3) 0.6954(3) 0.4051(3)
O3DA O 0.3046(3) 0.4051(3) 0.0253(3)
O3EA O 0.3046(3) 0.5949(3) -0.0253(3)
O3BA O -0.3046(3) 0.5949(3) 0.0253(3)
O3CA O -0.3046(3) 0.4051(3) -0.0253(3)
O3KA O -0.0253(3) 0.4051(3) -0.3046(3)
O3IA O -0.0253(3) 0.3046(3) -0.4051(3)
O3JA O 0.0253(3) 0.5949(3) -0.3046(3)
O3FA O 0.0253(3) 0.6954(3) -0.4051(3)
O3JA_2 O 0.0253(3) 0.5949(3) 0.6954(3)
O3FA_2 O 0.0253(3) 0.6954(3) 0.5949(3)
O3KA_2 O -0.0253(3) 0.4051(3) 0.6954(3)
O3IA_2 O -0.0253(3) 0.3046(3) 0.5949(3)
O3Q O -0.0949(3) 0.1954(3) 0.4747(3)
O3P O 0.0949(3) 0.1954(3) 0.5253(3)
O3S O 0.0949(3) 0.8046(3) 0.4747(3)
O3R O -0.0949(3) 0.8046(3) 0.5253(3)
O3B_2 O -0.0949(3) 0.5253(3) 0.8046(3)
O3C_2 O 0.0949(3) 0.4747(3) 0.8046(3)
O3V_2 O -0.1954(3) 0.5253(3) 0.9051(3)
O3U_2 O 0.1954(3) 0.4747(3) 0.9051(3)
O4A O -0.0576(3) 0.4334(5) 0.0576(3)
O4B O -0.0576(3) 0.5666(5) -0.0576(3)
O4C O 0.0576(3) 0.4334(5) -0.0576(3)
O4HA O 0.0666(5) 0.4424(3) 0.4424(3)
O4GA O -0.0666(5) 0.5576(3) 0.4424(3)
O4IA O -0.0666(5) 0.4424(3) -0.4424(3)
O4FA O 0.0666(5) 0.5576(3) -0.4424(3)
O4FA_2 O 0.0666(5) 0.5576(3) 0.5576(3)
O4IA_2 O -0.0666(5) 0.4424(3) 0.5576(3)
O4B_2 O -0.0576(3) 0.5666(5) 0.9424(3)
O4C_2 O 0.0576(3) 0.4334(5) 0.9424(3)
N1 N -0.2027(6) 0.7973(6) 0.2027(6)
N2 N -0.1964(4) 0.8036(4) 0.3771(5)
H1 H -0.2034(4) 0.8250(4) 0.4255(5)
H2 H -0.2439(4) 0.7976(4) 0.3530(5)
H3 H -0.1735(4) 0.7549(4) 0.3825(5)
C1 C -0.1300(10) 0.8203(9) 0.2460(9)
H4 H -0.0970(10) 0.7739(9) 0.2513(9)
H5 H -0.1012(10) 0.8583(9) 0.2144(9)
C2 C -0.1457(6) 0.8543(6) 0.3279(7)
H6 H -0.0953(6) 0.8616(6) 0.3541(7)
H7 H -0.1698(6) 0.9068(6) 0.3229(7)
N2J N -0.1964(4) 0.6229(5) 0.1964(4)
N2G N -0.3771(5) 0.8036(4) 0.1964(4)
H1S H -0.2034(4) 0.5745(5) 0.1750(4)
H1J H -0.1750(4) 0.5745(5) 0.2034(4)
H1V H -0.4255(5) 0.8250(4) 0.2034(4)
H1G H -0.4255(5) 0.7966(4) 0.1750(4)
H1L H -0.1750(4) 0.7966(4) 0.4255(5)
H2S H -0.2439(4) 0.6470(5) 0.2024(4)
H2J H -0.2024(4) 0.6470(5) 0.2439(4)
H2V H -0.3530(5) 0.7976(4) 0.2439(4)
H2G H -0.3530(5) 0.7561(4) 0.2024(4)
H2L H -0.2024(4) 0.7561(4) 0.3530(5)
H3J H -0.2451(4) 0.6175(5) 0.1735(4)
H3S H -0.1735(4) 0.6175(5) 0.2451(4)
H3G H -0.3825(5) 0.8265(4) 0.2451(4)
H3V H -0.3825(5) 0.7549(4) 0.1735(4)
H3L H -0.2451(4) 0.8265(4) 0.3825(5)
C1L C -0.1797(9) 0.8700(10) 0.2460(9)
C1G C -0.2460(9) 0.8700(10) 0.1797(9)
C1V C -0.2460(9) 0.8203(9) 0.1300(10)
C1J C -0.1797(9) 0.7540(9) 0.1300(10)
C1S C -0.1300(10) 0.7540(9) 0.1797(9)
H4S H -0.0970(10) 0.7487(9) 0.2261(9)
H4V H -0.2513(9) 0.7739(9) 0.0970(10)
H4J H -0.2261(9) 0.7487(9) 0.0970(10)
H4L H -0.2261(9) 0.9030(10) 0.2513(9)
H4G H -0.2513(9) 0.9030(10) 0.2261(9)
H5S H -0.1012(10) 0.7856(9) 0.1417(9)
H5J H -0.1417(9) 0.7856(9) 0.1012(10)
H5V H -0.2144(9) 0.8583(9) 0.1012(10)
H5G H -0.2144(9) 0.8988(10) 0.1417(9)
H5L H -0.1417(9) 0.8988(10) 0.2144(9)
C2J C -0.1457(6) 0.6721(7) 0.1457(6)
C2G C -0.3279(7) 0.8543(6) 0.1457(6)
H6L H -0.1384(6) 0.9047(6) 0.3541(7)
H6V H -0.3541(7) 0.8616(6) 0.0953(6)
H6G H -0.3541(7) 0.9047(6) 0.1384(6)
H6S H -0.0953(6) 0.6459(7) 0.1384(6)
H6J H -0.1384(6) 0.6459(7) 0.0953(6)
H7L H -0.0932(6) 0.8302(6) 0.3229(7)
H7G H -0.3229(7) 0.8302(6) 0.0932(6)
H7V H -0.3229(7) 0.9068(6) 0.1698(6)
H7J H -0.0932(6) 0.6771(7) 0.1698(6)
H7S H -0.1698(6) 0.6771(7) 0.0932(6)
loop_
_geom_bond_atom_site_label_1
_geom_bond_atom_site_label_2
_geom_bond_site_symmetry_1
_geom_bond_site_symmetry_2
N1 C1 1_555 1_555
N2 H1 1_555 1_555
H1 H1L 1_555 1_555
H2 N2 1_555 1_555
H3 N2 1_555 1_555
C1 H4 1_555 1_555
H4 H4S 1_555 1_555
H5 C1 1_555 1_555
C2 N2 1_555 1_555
H6 C2 1_555 1_555
H7 C2 1_555 1_555
O1 H8 1_555 1_555
N3 H9 1_555 1_555
Al1 O3 1_555 1_555
Al2 O4 1_555 1_555
P1 O2 1_555 1_555
O3 P1 1_555 1_555
O4 P1 1_555 1_555
N2J H1S 1_555 1_555
N2G H1V 1_555 1_555
H1S H1J 1_555 1_555
H1J N2J 1_555 1_555
H1V H1G 1_555 1_555
H1G N2G 1_555 1_555
H1L N2 1_555 1_555
H2S N2J 1_555 1_555
H2J N2J 1_555 1_555
H2V N2G 1_555 1_555
H2G N2G 1_555 1_555
H2L N2 1_555 1_555
H3J N2J 1_555 1_555
H3S N2J 1_555 1_555
H3G N2G 1_555 1_555
H3V N2G 1_555 1_555
H3L N2 1_555 1_555
C1L N1 1_555 1_555
C1G N1 1_555 1_555
C1V N1 1_555 1_555
C1J N1 1_555 1_555
C1S N1 1_555 1_555
H4S C1S 1_555 1_555
H4V C1V 1_555 1_555
H4J C1J 1_555 1_555
H4L C1L 1_555 1_555
H4G C1G 1_555 1_555
H5S C1S 1_555 1_555
H5J C1J 1_555 1_555
H5V C1V 1_555 1_555
H5G C1G 1_555 1_555
H5L C1L 1_555 1_555
C2J N2J 1_555 1_555
C2G N2G 1_555 1_555
H6L C2 1_555 1_555
H6V C2G 1_555 1_555
H6G C2G 1_555 1_555
H6S C2J 1_555 1_555
H6J C2J 1_555 1_555
H7L C2 1_555 1_555
H7G C2G 1_555 1_555
H7V C2G 1_555 1_555
H7J C2J 1_555 1_555
H7S C2J 1_555 1_555
H8M O1 1_555 1_555
H9E N3 1_555 1_555
H9K N3 1_555 1_555
Al1T O3T 1_555 1_555
Al1V O3W 1_555 1_555
Al1B O3B 1_555 1_555
Al1P O3HA 1_555 1_555
Al1R O3GA 1_555 1_555
Al1P_2 O3IA 1_555 1_555
Al1R_2 O3FA 1_555 1_555
Al1B_2 O3JA_2 1_555 1_555
Al1V_2 O3V_2 1_555 1_555
Al1T_2 O3U_2 1_555 1_555
Al2FA O4HA 1_555 1_555
Al2FA_2 O4IA 1_555 1_555
Al2_2 O4B_2 1_555 1_555
P1A O2A 1_555 1_555
P1B O2B 1_555 1_555
P1C O2C 1_555 1_555
P1HA O2HA 1_555 1_555
P1GA O2GA 1_555 1_555
P1IA O2IA 1_555 1_555
P1FA O2FA 1_555 1_555
P1FA_2 O2FA_2 1_555 1_555
P1IA_2 O2IA_2 1_555 1_555
P1B_2 O2B_2 1_555 1_555
P1C_2 O2C_2 1_555 1_555
O3T P1 1_555 1_555
O3A Al1 1_555 1_555
O3W P1A 1_555 1_555
O3B P1B 1_555 1_555
O3V Al1V 1_555 1_555
O3C Al1B 1_555 1_555
O3U Al1T 1_555 1_555
O3LA Al1 1_555 1_555
O3HA P1HA 1_555 1_555
O3MA Al1 1_555 1_555
O3GA P1GA 1_555 1_555
O3DA Al1T 1_555 1_555
O3EA Al1T 1_555 1_555
O3BA Al1V 1_555 1_555
O3CA Al1V 1_555 1_555
O3KA Al1B 1_555 1_555
O3IA P1IA 1_555 1_555
O3JA Al1B 1_555 1_555
O3FA P1FA 1_555 1_555
O3JA_2 P1FA_2 1_555 1_555
O3FA_2 Al1R 1_555 1_555
O3KA_2 Al1B_2 1_555 1_555
O3IA_2 Al1P 1_555 1_555
O3Q Al1P 1_555 1_555
O3P Al1P 1_555 1_555
O3S Al1R 1_555 1_555
O3R Al1R 1_555 1_555
O3B_2 Al1B_2 1_555 1_555
O3C_2 Al1B_2 1_555 1_555
O3V_2 P1B_2 1_555 1_555
O3U_2 P1C_2 1_555 1_555
O4A Al2 1_555 1_555
O4B Al2 1_555 1_555
O4C Al2 1_555 1_555
O4HA P1HA 1_555 1_555
O4GA Al2FA 1_555 1_555
O4IA P1IA 1_555 1_555
O4FA Al2FA_2 1_555 1_555
O4FA_2 Al2FA 1_555 1_555
O4IA_2 Al2FA 1_555 1_555
O4B_2 P1B_2 1_555 1_555
O4C_2 Al2_2 1_555 1_555
H2 H3L 1_555 1_555
H3 H2L 1_555 1_555
C1 C2 1_555 1_555
C1 C1L 1_555 1_555
C1 C1S 1_555 1_555
C2 C1L 1_555 1_555
H6 H7L 1_555 1_555
H7 H6L 1_555 1_555
H2S H3J 1_555 1_555
H2J H3S 1_555 1_555
H2V H3G 1_555 1_555
H2G H3V 1_555 1_555
C1L C1G 1_555 1_555
C1G C1V 1_555 1_555
C1G C2G 1_555 1_555
C1V C1J 1_555 1_555
C1V C2G 1_555 1_555
C1J C1S 1_555 1_555
C1J C2J 1_555 1_555
C1S C2J 1_555 1_555
H4V H4J 1_555 1_555
H4L H4G 1_555 1_555
H6V H7G 1_555 1_555
H6G H7V 1_555 1_555
H6S H7J 1_555 1_555
H6J H7S 1_555 1_555
P1A O3A 1_555 1_555
P1A O4A 1_555 1_555
P1B O3V 1_555 1_555
P1B O4B 1_555 1_555
P1C O3C 1_555 1_555
P1C O3U 1_555 1_555
P1C O4C 1_555 1_555
P1HA O3LA 1_555 1_555
P1GA O3MA 1_555 1_555
P1GA O4GA 1_555 1_555
P1IA O3KA 1_555 1_555
P1FA O3JA 1_555 1_555
P1FA O4FA 1_555 1_555
P1FA_2 O3FA_2 1_555 1_555
P1FA_2 O4FA_2 1_555 1_555
P1IA_2 O3KA_2 1_555 1_555
P1IA_2 O3IA_2 1_555 1_555
P1IA_2 O4IA_2 1_555 1_555
P1B_2 O3B_2 1_555 1_555
P1C_2 O3C_2 1_555 1_555
P1C_2 O4C_2 1_555 1_555

#END
