
#######################################################################
#
#                 Cambridge Crystallographic Data Centre
#                                CCDC 
#
#######################################################################
#
# If this CIF has been generated from an entry in the Cambridge 
# Structural Database, then it will include bibliographic, chemical, 
# crystal, experimental, refinement or atomic coordinate data resulting 
# from the CCDC's data processing and validation procedures.
#
#######################################################################

data_MEJMOE
_chemical_formula_moiety         '(C44 H32 Fe2 O13 Zn4)n'
_symmetry_cell_setting           cubic
_symmetry_space_group_name_H-M   'P a -3'
_symmetry_Int_Tables_number      205
_space_group_name_Hall           '-P 2ac 2ab 3'
loop_
_symmetry_equiv_pos_site_id
_symmetry_equiv_pos_as_xyz
1 x,y,z
2 z,x,y
3 y,z,x
4 1/2-x,-y,1/2+z
5 -x,1/2+y,1/2-z
6 1/2+x,1/2-y,-z
7 1/2+z,1/2-x,-y
8 1/2-z,-x,1/2+y
9 -z,1/2+x,1/2-y
10 -y,1/2+z,1/2-x
11 1/2+y,1/2-z,-x
12 1/2-y,-z,1/2+x
13 -x,-y,-z
14 -z,-x,-y
15 -y,-z,-x
16 1/2+x,y,1/2-z
17 x,1/2-y,1/2+z
18 1/2-x,1/2+y,z
19 1/2-z,1/2+x,y
20 1/2+z,x,1/2-y
21 z,1/2-x,1/2+y
22 y,1/2-z,1/2+x
23 1/2-y,1/2+z,x
24 1/2+y,z,1/2-x
_cell_length_a                   25.507(3)
_cell_length_b                   25.507(3)
_cell_length_c                   25.507(3)
_cell_angle_alpha                90
_cell_angle_beta                 90
_cell_angle_gamma                90
_cell_volume                     16595
loop_
_atom_site_label
_atom_site_type_symbol
_atom_site_fract_x
_atom_site_fract_y
_atom_site_fract_z
_atom_site_U_iso_or_equiv
_atom_site_thermal_displace_type
Zn1 Zn 0.186787(19) 0.828437(19) 0.232658(19) 0.0075 Uani
Zn2 Zn 0.266112(19) 0.733888(19) 0.233888(19) 0.0080 Uani
O1 O 0.22230(12) 0.77770(12) 0.27770(12) 0.0094 Uani
O2 O 0.20145(13) 0.81828(13) 0.15753(12) 0.0137 Uani
O3 O 0.18056(13) 0.76601(13) -0.11112(12) 0.0142 Uani
O4 O 0.24729(13) 0.70916(13) -0.10184(12) 0.0152 Uani
O5 O 0.26084(13) 0.75335(14) 0.16104(12) 0.0158 Uani
C1 C 0.22918(17) 0.78255(18) 0.13679(17) 0.0127 Uani
C2 C 0.22461(18) 0.77326(18) 0.07947(17) 0.0130 Uani
C3 C 0.19482(19) 0.80629(19) 0.04748(18) 0.0153 Uani
H1 H 0.1776 0.8359 0.0621 0.0180 Uiso
C4 C 0.19042(18) 0.79559(19) -0.00577(17) 0.0147 Uani
H2 H 0.1703 0.8179 -0.0277 0.0170 Uiso
C5 C 0.2484(2) 0.7292(2) 0.05840(19) 0.0203 Uani
H3 H 0.2676 0.7062 0.0805 0.0240 Uiso
C6 C 0.2443(2) 0.7186(2) 0.00539(19) 0.0213 Uani
H4 H 0.2609 0.6886 -0.0090 0.0260 Uiso
C7 C 0.21420(18) 0.74171(17) -0.08457(17) 0.0120 Uani
C8 C 0.21574(18) 0.75197(18) -0.02682(17) 0.0143 Uani
Zn1I Zn 0.171563(19) 0.732658(19) 0.313213(19) 0.0075 Uani
Zn1G Zn 0.267342(19) 0.813213(19) 0.328437(19) 0.0075 Uani
Zn1N Zn 0.171563(19) 0.767342(19) -0.186787(19) 0.0075 Uani
Zn1R Zn 0.267342(19) 0.686787(19) -0.171563(19) 0.0075 Uani
Zn1O Zn 0.686787(19) 0.828437(19) 0.267342(19) 0.0075 Uani
Zn1V Zn 0.671563(19) 0.732658(19) 0.186787(19) 0.0075 Uani
Zn1T Zn 0.232658(19) 0.313213(19) 0.328437(19) 0.0075 Uani
Zn1Q Zn 0.313213(19) 0.328437(19) 0.232658(19) 0.0075 Uani
O2G O 0.34247(12) 0.79855(13) 0.31828(13) 0.0137 Uani
O2I O 0.18172(13) 0.65753(12) 0.29855(13) 0.0137 Uani
O3G O 0.61112(12) 0.81944(13) 0.26601(13) 0.0142 Uani
O3I O 0.23399(13) 0.38888(12) 0.31944(13) 0.0142 Uani
O3M O 0.11112(12) 0.81944(13) 0.23399(13) 0.0142 Uani
O3P O 0.18056(13) 0.73399(13) 0.38888(12) 0.0142 Uani
O3W O 0.26601(13) 0.88888(12) 0.31944(13) 0.0142 Uani
O4G O 0.60184(12) 0.75271(13) 0.20916(13) 0.0152 Uani
O4I O 0.29084(13) 0.39816(12) 0.25271(13) 0.0152 Uani
O4W O 0.20916(13) 0.89816(12) 0.25271(13) 0.0152 Uani
O4M O 0.10184(12) 0.75271(13) 0.29084(13) 0.0152 Uani
O4P O 0.24729(13) 0.79084(13) 0.39816(12) 0.0152 Uani
O5G O 0.33896(12) 0.73916(13) 0.25335(14) 0.0158 Uani
O5I O 0.24665(14) 0.66104(12) 0.23916(13) 0.0158 Uani
C1G C 0.36321(17) 0.77082(17) 0.28255(18) 0.0127 Uani
C1I C 0.21745(18) 0.63679(17) 0.27082(17) 0.0127 Uani
C2G C 0.42053(17) 0.77539(18) 0.27326(18) 0.0130 Uani
C2I C 0.22674(18) 0.57947(17) 0.27539(18) 0.0130 Uani
C3G C 0.45252(18) 0.80518(19) 0.30629(19) 0.0153 Uani
C3I C 0.19371(19) 0.54748(18) 0.30518(19) 0.0153 Uani
H1G H 0.4379 0.8224 0.3359 0.0180 Uiso
H1I H 0.1641 0.5621 0.3224 0.0180 Uiso
C4G C 0.50577(17) 0.80958(18) 0.29559(19) 0.0147 Uani
C4I C 0.20441(19) 0.49423(17) 0.30958(18) 0.0147 Uani
H2G H 0.5277 0.8297 0.3179 0.0170 Uiso
H2I H 0.1821 0.4723 0.3297 0.0170 Uiso
C5G C 0.44160(19) 0.7516(2) 0.2292(2) 0.0203 Uani
C5I C 0.2708(2) 0.55840(19) 0.2516(2) 0.0203 Uani
H3G H 0.4195 0.7324 0.2062 0.0240 Uiso
H3I H 0.2938 0.5805 0.2324 0.0240 Uiso
C6G C 0.49461(19) 0.7557(2) 0.2186(2) 0.0213 Uani
C6I C 0.2814(2) 0.50539(19) 0.2557(2) 0.0213 Uani
H4G H 0.5090 0.7391 0.1886 0.0260 Uiso
H4I H 0.3114 0.4910 0.2391 0.0260 Uiso
C7G C 0.58457(17) 0.78580(18) 0.24171(17) 0.0120 Uani
C7I C 0.25829(17) 0.41543(17) 0.28580(18) 0.0120 Uani
C8G C 0.52682(17) 0.78426(18) 0.25197(18) 0.0143 Uani
C8I C 0.24803(18) 0.47318(17) 0.28426(18) 0.0143 Uani
Fe1 Fe 0.34831(4) 0.91639(3) 0.14171(3) 0.0311 Uani
C9 C 0.3666(3) 0.8385(3) 0.1539(3) 0.0393 Uani
H5 H 0.3533 0.8081 0.1330 0.0470 Uiso
C10 C 0.4127(3) 0.8685(3) 0.1429(3) 0.0497 Uani
H6 H 0.4375 0.8625 0.1131 0.0600 Uiso
C11 C 0.4174(3) 0.9078(3) 0.1818(4) 0.0550 Uani
H7 H 0.4460 0.9343 0.1847 0.0660 Uiso
C12 C 0.3739(3) 0.9023(3) 0.2160(3) 0.0407 Uani
H8 H 0.3665 0.9247 0.2473 0.0490 Uiso
C13 C 0.3427(3) 0.8604(3) 0.1983(3) 0.0353 Uani
H9 H 0.3095 0.8478 0.2150 0.0420 Uiso
C14 C 0.2933(5) 0.9175(3) 0.0855(5) 0.0803 Uani
H10 H 0.2783 0.8862 0.0673 0.0960 Uiso
C15 C 0.3371(5) 0.9472(4) 0.0684(3) 0.0707 Uani
H11 H 0.3590 0.9409 0.0364 0.0850 Uiso
C16 C 0.3425(5) 0.9875(3) 0.1045(4) 0.0723 Uani
H12 H 0.3708 1.0147 0.1037 0.0870 Uiso
C17 C 0.3044(5) 0.9838(4) 0.1426(4) 0.0707 Uani
H13 H 0.2999 1.0080 0.1732 0.0850 Uiso
C18 C 0.2737(4) 0.9406(4) 0.1314(5) 0.0750 Uani
H14 H 0.2424 0.9285 0.1518 0.0900 Uiso
Fe2 Fe 0.18003(4) 1.02747(4) -0.00038(4) 0.0381 Uani
C19 C 0.1166(3) 0.9876(3) 0.0278(4) 0.0533 Uani
H15 H 0.0885 1.0017 0.0512 0.0640 Uiso
C20 C 0.1623(3) 0.9624(3) 0.0431(3) 0.0487 Uani
H16 H 0.1734 0.9564 0.0802 0.0590 Uiso
C21 C 0.1908(4) 0.9480(3) -0.0005(3) 0.0527 Uani
H17 H 0.2254 0.9297 -0.0001 0.0630 Uiso
C22 C 0.1635(4) 0.9645(3) -0.0457(3) 0.0630 Uani
H18 H 0.1746 0.9590 -0.0829 0.0750 Uiso
C23 C 0.1174(4) 0.9888(3) -0.0288(4) 0.0667 Uani
H19 H 0.0895 1.0040 -0.0519 0.0800 Uiso
C24 C 0.1743(4) 1.1029(3) 0.0251(5) 0.0693 Uani
H20 H 0.1443 1.1179 0.0455 0.0830 Uiso
C25 C 0.2193(4) 1.0786(4) 0.0469(4) 0.0740 Uani
H21 H 0.2268 1.0737 0.0851 0.0890 Uiso
C26 C 0.2519(3) 1.0619(4) 0.0045(4) 0.0623 Uani
H22 H 0.2867 1.0439 0.0069 0.0750 Uiso
C27 C 0.2250(3) 1.0784(4) -0.0429(4) 0.0613 Uani
H23 H 0.2377 1.0724 -0.0795 0.0740 Uiso
C28 C 0.1785(4) 1.1019(3) -0.0295(5) 0.0663 Uani
H24 H 0.1519 1.1160 -0.0546 0.0800 Uiso
loop_
_atom_site_aniso_label
_atom_site_aniso_U_11
_atom_site_aniso_U_22
_atom_site_aniso_U_33
_atom_site_aniso_U_23
_atom_site_aniso_U_13
_atom_site_aniso_U_12
Zn1 0.0076(2) 0.0073(2) 0.0077(2) 0.00058(17) -0.00089(17) -0.00070(17)
Zn2 0.0080(2) 0.0080(2) 0.0080(2) 0.00034(17) -0.00034(17) -0.00034(17)
O1 0.0094(10) 0.0094(10) 0.0094(10) 0.0015(12) -0.0015(12) -0.0015(12)
O2 0.0198(16) 0.0133(15) 0.0080(14) -0.0010(12) 0.0033(12) -0.0001(13)
O3 0.0166(16) 0.0172(16) 0.0088(15) -0.0027(12) -0.0021(12) 0.0048(13)
O4 0.0201(17) 0.0159(16) 0.0095(15) -0.0025(12) -0.0014(13) 0.0057(13)
O5 0.0165(16) 0.0229(17) 0.0079(15) 0.0017(13) 0.0007(12) 0.0037(14)
C1 0.012(2) 0.016(2) 0.010(2) -0.0002(17) 0.0003(16) -0.0046(17)
C2 0.013(2) 0.017(2) 0.009(2) 0.0013(17) 0.0021(16) -0.0012(17)
C3 0.019(2) 0.016(2) 0.011(2) -0.0020(17) 0.0008(17) 0.0035(18)
C4 0.018(2) 0.017(2) 0.009(2) 0.0001(17) 0.0016(17) 0.0050(18)
C5 0.028(3) 0.022(2) 0.011(2) 0.0007(19) -0.0026(19) 0.009(2)
C6 0.033(3) 0.018(2) 0.013(2) -0.0007(19) 0.000(2) 0.010(2)
C7 0.014(2) 0.012(2) 0.010(2) 0.0000(16) 0.0035(16) -0.0002(16)
C8 0.018(2) 0.016(2) 0.009(2) -0.0001(17) -0.0005(17) 0.0026(18)
Zn1I 0.0073 0.0077 0.0076 0.00089 -0.0007 -0.00058
Zn1G 0.0077 0.0076 0.0073 0.0007 -0.00058 -0.00089
Zn1N 0.0073 0.0077 0.0076 -0.00089 -0.0007 0.00058
Zn1R 0.0077 0.0076 0.0073 -0.0007 -0.00058 0.00089
Zn1O 0.0076 0.0073 0.0077 -0.00058 0.00089 -0.0007
Zn1V 0.0073 0.0077 0.0076 -0.00089 0.0007 -0.00058
Zn1T 0.0077 0.0076 0.0073 0.0007 0.00058 0.00089
Zn1Q 0.0076 0.0073 0.0077 0.00058 0.00089 0.0007
O2G 0.008 0.0198 0.0133 0.0001 0.001 0.0033
O2I 0.0133 0.008 0.0198 -0.0033 -0.0001 0.001
O3G 0.0088 0.0166 0.0172 -0.0048 0.0027 -0.0021
O3I 0.0172 0.0088 0.0166 0.0021 0.0048 0.0027
O3M 0.0088 0.0166 0.0172 0.0048 -0.0027 -0.0021
O3P 0.0166 0.0172 0.0088 0.0027 -0.0021 -0.0048
O3W 0.0172 0.0088 0.0166 0.0021 -0.0048 -0.0027
O4G 0.0095 0.0201 0.0159 -0.0057 0.0025 -0.0014
O4I 0.0159 0.0095 0.0201 0.0014 0.0057 0.0025
O4W 0.0159 0.0095 0.0201 0.0014 -0.0057 -0.0025
O4M 0.0095 0.0201 0.0159 0.0057 -0.0025 -0.0014
O4P 0.0201 0.0159 0.0095 0.0025 -0.0014 -0.0057
O5G 0.0079 0.0165 0.0229 -0.0037 -0.0017 0.0007
O5I 0.0229 0.0079 0.0165 -0.0007 0.0037 -0.0017
C1G 0.01 0.012 0.016 0.0046 0.0002 0.0003
C1I 0.016 0.01 0.012 -0.0003 -0.0046 0.0002
C2G 0.009 0.013 0.017 0.0012 -0.0013 0.0021
C2I 0.017 0.009 0.013 -0.0021 -0.0012 -0.0013
C3G 0.011 0.019 0.016 -0.0035 0.002 0.0008
C3I 0.016 0.011 0.019 -0.0008 0.0035 0.002
C4G 0.009 0.018 0.017 -0.005 -0.0001 0.0016
C4I 0.017 0.009 0.018 -0.0016 0.005 -0.0001
C5G 0.011 0.028 0.022 -0.009 -0.0007 -0.0026
C5I 0.022 0.011 0.028 0.0026 0.009 -0.0007
C6G 0.013 0.033 0.018 -0.01 0.0007 0
C6I 0.018 0.013 0.033 0 0.01 0.0007
C7G 0.01 0.014 0.012 0.0002 0 0.0035
C7I 0.012 0.01 0.014 -0.0035 -0.0002 0
C8G 0.009 0.018 0.016 -0.0026 0.0001 -0.0005
C8I 0.016 0.009 0.018 0.0005 0.0026 0.0001
Fe1 0.0399(5) 0.0271(4) 0.0264(4) 0.0048(3) 0.0020(4) -0.0071(4)
C9 0.040(4) 0.036(3) 0.042(4) 0.004(3) -0.001(3) 0.007(3)
C10 0.045(4) 0.057(5) 0.047(4) -0.002(4) 0.021(3) 0.002(4)
C11 0.029(4) 0.064(5) 0.072(5) -0.002(4) -0.005(4) -0.013(3)
C12 0.043(4) 0.049(4) 0.030(3) -0.002(3) -0.007(3) 0.005(3)
C13 0.036(3) 0.036(3) 0.034(3) 0.018(3) -0.003(3) 0.003(3)
C14 0.118(9) 0.033(4) 0.090(7) 0.022(5) -0.071(7) -0.021(5)
C15 0.123(9) 0.059(5) 0.030(4) 0.020(4) 0.006(5) 0.006(6)
C16 0.114(9) 0.039(4) 0.064(6) 0.028(4) -0.008(6) -0.023(5)
C17 0.104(8) 0.044(5) 0.064(6) 0.013(4) 0.000(6) 0.024(5)
C18 0.048(5) 0.084(7) 0.093(8) 0.062(6) -0.014(5) 0.006(5)
Fe2 0.0351(5) 0.0346(5) 0.0445(6) 0.0022(4) -0.0020(4) -0.0110(4)
C19 0.040(4) 0.056(5) 0.064(5) 0.008(4) -0.003(4) -0.022(4)
C20 0.054(5) 0.043(4) 0.049(4) 0.009(3) -0.001(4) -0.015(3)
C21 0.075(6) 0.040(4) 0.043(4) 0.002(3) -0.009(4) 0.004(4)
C22 0.106(8) 0.041(4) 0.042(4) 0.002(3) -0.013(5) -0.014(5)
C23 0.067(6) 0.037(4) 0.096(7) 0.017(4) -0.046(5) -0.021(4)
C24 0.068(6) 0.040(4) 0.100(8) -0.018(5) 0.014(6) -0.021(4)
C25 0.091(8) 0.066(6) 0.065(6) -0.010(5) -0.003(5) -0.048(6)
C26 0.035(4) 0.077(6) 0.075(6) 0.009(5) -0.007(4) -0.026(4)
C27 0.051(5) 0.077(6) 0.056(5) 0.012(4) -0.001(4) -0.034(4)
C28 0.055(5) 0.037(4) 0.107(8) 0.011(5) -0.011(5) -0.013(4)
loop_
_geom_bond_atom_site_label_1
_geom_bond_atom_site_label_2
_geom_bond_site_symmetry_1
_geom_bond_site_symmetry_2
Zn1 O1 1_555 1_555
Zn2 O1 1_555 1_555
O1 Zn1I 1_555 1_555
O2 Zn1 1_555 1_555
O3 C7 1_555 1_555
O4 C7 1_555 1_555
O5 Zn2 1_555 1_555
C1 O2 1_555 1_555
C2 C1 1_555 1_555
C3 C2 1_555 1_555
H1 C3 1_555 1_555
C4 C3 1_555 1_555
H2 C4 1_555 1_555
C5 C2 1_555 1_555
H3 C5 1_555 1_555
C6 C5 1_555 1_555
H4 C6 1_555 1_555
C7 C8 1_555 1_555
C8 C4 1_555 1_555
Fe1 C9 1_555 1_555
C9 H5 1_555 1_555
C10 Fe1 1_555 1_555
H6 C10 1_555 1_555
C11 Fe1 1_555 1_555
H7 C11 1_555 1_555
C12 Fe1 1_555 1_555
H8 C12 1_555 1_555
C13 Fe1 1_555 1_555
H9 C13 1_555 1_555
C14 Fe1 1_555 1_555
H10 C14 1_555 1_555
C15 Fe1 1_555 1_555
H11 C15 1_555 1_555
C16 Fe1 1_555 1_555
H12 C16 1_555 1_555
C17 Fe1 1_555 1_555
H13 C17 1_555 1_555
C18 Fe1 1_555 1_555
H14 C18 1_555 1_555
Fe2 C19 1_555 1_555
C19 H15 1_555 1_555
C20 Fe2 1_555 1_555
H16 C20 1_555 1_555
C21 Fe2 1_555 1_555
H17 C21 1_555 1_555
C22 Fe2 1_555 1_555
H18 C22 1_555 1_555
C23 Fe2 1_555 1_555
H19 C23 1_555 1_555
C24 Fe2 1_555 1_555
H20 C24 1_555 1_555
C25 Fe2 1_555 1_555
H21 C25 1_555 1_555
C26 Fe2 1_555 1_555
H22 C26 1_555 1_555
C27 Fe2 1_555 1_555
H23 C27 1_555 1_555
C28 Fe2 1_555 1_555
H24 C28 1_555 1_555
Zn1I O2I 1_555 1_555
Zn1G O1 1_555 1_555
Zn1N O3 1_555 1_555
Zn1R O4 1_555 1_555
Zn1O O3G 1_555 1_555
Zn1V O4G 1_555 1_555
Zn1T O3I 1_555 1_555
Zn1Q O4I 1_555 1_555
O2G Zn1G 1_555 1_555
O2I C1I 1_555 1_555
O3G C7G 1_555 1_555
O3I C7I 1_555 1_555
O3M Zn1 1_555 1_555
O3P Zn1I 1_555 1_555
O3W Zn1G 1_555 1_555
O4G C7G 1_555 1_555
O4I C7I 1_555 1_555
O4W Zn1 1_555 1_555
O4M Zn1I 1_555 1_555
O4P Zn1G 1_555 1_555
O5G Zn2 1_555 1_555
O5I Zn2 1_555 1_555
C1G O2G 1_555 1_555
C1I O5I 1_555 1_555
C2G C1G 1_555 1_555
C2I C1I 1_555 1_555
C3G C2G 1_555 1_555
C3I C2I 1_555 1_555
H1G C3G 1_555 1_555
H1I C3I 1_555 1_555
C4G C3G 1_555 1_555
C4I C3I 1_555 1_555
H2G C4G 1_555 1_555
H2I C4I 1_555 1_555
C5G C2G 1_555 1_555
C5I C2I 1_555 1_555
H3G C5G 1_555 1_555
H3I C5I 1_555 1_555
C6G C5G 1_555 1_555
C6I C5I 1_555 1_555
H4G C6G 1_555 1_555
H4I C6I 1_555 1_555
C7G C8G 1_555 1_555
C7I C8I 1_555 1_555
C8G C4G 1_555 1_555
C8I C4I 1_555 1_555
O5 C1 1_555 1_555
C6 C8 1_555 1_555
C9 C10 1_555 1_555
C9 C13 1_555 1_555
C10 C11 1_555 1_555
C11 C12 1_555 1_555
C12 C13 1_555 1_555
C14 C15 1_555 1_555
C14 C18 1_555 1_555
C15 C16 1_555 1_555
C16 C17 1_555 1_555
C17 C18 1_555 1_555
C19 C20 1_555 1_555
C19 C23 1_555 1_555
C20 C21 1_555 1_555
C21 C22 1_555 1_555
C22 C23 1_555 1_555
C24 C25 1_555 1_555
C24 C28 1_555 1_555
C25 C26 1_555 1_555
C26 C27 1_555 1_555
C27 C28 1_555 1_555
O5G C1G 1_555 1_555
C6G C8G 1_555 1_555
C6I C8I 1_555 1_555

#END
