
#######################################################################
#
#                 Cambridge Crystallographic Data Centre
#                                CCDC 
#
#######################################################################
#
# If this CIF has been generated from an entry in the Cambridge 
# Structural Database, then it will include bibliographic, chemical, 
# crystal, experimental, refinement or atomic coordinate data resulting 
# from the CCDC's data processing and validation procedures.
#
#######################################################################

data_RIGTIL
_chemical_formula_moiety         '(C23 H24 N2 O20 Zn2 2-)n'
_symmetry_cell_setting           monoclinic
_symmetry_space_group_name_H-M   'P 21/c'
_symmetry_Int_Tables_number      14
_space_group_name_Hall           '-P 2ybc'
loop_
_symmetry_equiv_pos_site_id
_symmetry_equiv_pos_as_xyz
1 x,y,z
2 -x,1/2+y,1/2-z
3 -x,-y,-z
4 x,1/2-y,1/2+z
_cell_length_a                   9.4116(5)
_cell_length_b                   13.2967(7)
_cell_length_c                   14.9365(7)
_cell_angle_alpha                90
_cell_angle_beta                 98.019(1)
_cell_angle_gamma                90
_cell_volume                     1850.92
loop_
_atom_site_label
_atom_site_type_symbol
_atom_site_fract_x
_atom_site_fract_y
_atom_site_fract_z
Zn1 Zn 0.03224(3) 0.868391(18) 0.655799(16)
O1 O -0.12169(17) 0.93992(13) 0.57346(12)
O2 O -0.2471(2) 0.88346(15) 0.67771(13)
O3 O -0.19966(17) 1.07416(13) 0.38906(11)
O4 O -0.17684(18) 1.16056(13) 0.51950(12)
C1 C -0.3718(2) 0.97078(17) 0.55241(15)
C2 C -0.3698(2) 1.04428(17) 0.48554(15)
C3 C -0.5024(2) 0.92813(17) 0.56651(15)
H1 H -0.5037 0.8792 0.6127
C4 C -0.2385(2) 0.92954(17) 0.60636(15)
C5 C -0.2357(2) 1.09738(17) 0.46576(15)
O5 O 0.20752(18) 0.67090(13) 0.66424(12)
O6 O -0.01647(18) 0.72814(12) 0.62750(12)
O7 O -0.04691(18) 0.37636(12) 0.71149(11)
O8 O -0.0393(2) 0.54056(14) 0.73844(12)
C6 C 0.0402(2) 0.57553(16) 0.56367(15)
C7 C 0.0576(2) 0.58931(16) 0.47342(15)
H2 H 0.0973 0.6504 0.4552
C8 C -0.0176(2) 0.48514(16) 0.59029(15)
C9 C 0.0823(2) 0.66294(17) 0.62596(15)
C10 C -0.0358(2) 0.46679(17) 0.68687(15)
Zn1B Zn -1.03224(3) 1.131609(18) 0.344201(16)
Zn1B_2 Zn -0.03224(3) 1.131609(18) 0.344201(16)
Zn1A Zn -0.03224(3) 0.368391(18) 0.844201(16)
Zn1_2 Zn -0.96776(3) 0.868391(18) 0.655799(16)
Zn1B_3 Zn -0.03224(3) 0.131609(18) 0.344201(16)
Zn1C Zn 0.03224(3) 0.631609(18) 0.155799(16)
O1B O -0.87831(17) 1.06008(13) 0.42654(12)
O2B O -0.7529(2) 1.11654(15) 0.32229(13)
O3B O -0.80034(17) 0.92584(13) 0.61094(11)
O3B_2 O 0.19966(17) 0.92584(13) 0.61094(11)
O3_2 O -1.19966(17) 1.07416(13) 0.38906(11)
O4B O -0.82316(18) 0.83944(13) 0.48050(12)
C1B C -0.6282(2) 1.02922(17) 0.44759(15)
C2B C -0.6302(2) 0.95572(17) 0.51446(15)
C3B C -0.4976(2) 1.07187(17) 0.43349(15)
H1B H -0.4963 1.1208 0.3873
C4B C -0.7615(2) 1.07046(17) 0.39364(15)
C5B C -0.7643(2) 0.90262(17) 0.53424(15)
O5B O -0.20752(18) 0.32910(13) 0.33576(12)
O6B O 0.01647(18) 0.27186(12) 0.37250(12)
O6B_2 O -0.98353(18) 1.27186(12) 0.37250(12)
O7B O 0.04691(18) 0.62364(12) 0.28851(11)
O7A O 0.04691(18) 0.87636(12) 0.78851(11)
O7C O -1.04691(18) 1.12364(12) 0.21149(11)
O8B O 0.0393(2) 0.45944(14) 0.26156(12)
C6B C -0.0402(2) 0.42447(16) 0.43633(15)
C7B C -0.0576(2) 0.41069(16) 0.52658(15)
H2B H -0.0973 0.3496 0.5448
C8B C 0.0176(2) 0.51486(16) 0.40971(15)
C9B C -0.0823(2) 0.33706(17) 0.37404(15)
C10B C 0.0358(2) 0.53321(17) 0.31313(15)
N1 N 0.2934(3) 1.1642(3) 0.8054(2)
H3 H 0.2231 1.1212 0.8016
H4 H 0.3625 1.1541 0.8497
H5 H 0.2726 1.2256 0.8189
C11 C 0.3328(3) 1.1789(3) 0.7146(2)
H6 H 0.4383 1.2117 0.7123
H7 H 0.3743 1.1080 0.6924
C12 C 0.2738(3) 1.2619(2) 0.56495(19)
H8 H 0.1951 1.2867 0.5206
H9 H 0.3275 1.2103 0.5370
H10 H 0.3380 1.3178 0.5857
N2 N 0.1015(3) 1.1399(2) 0.6099(2)
H14 H 0.0212 1.1639 0.5766
H15 H 0.0766 1.1045 0.6556
H16 H 0.1427 1.0946 0.5692
C13 C 0.2138(3) 1.2175(4) 0.6440(2)
H17 H 0.1646 1.2717 0.6718
O9 O 0.3900(3) 0.5682(2) 0.3988(2)
H22 H 0.4572 0.5478 0.3743
H23 H 0.3578 0.6178 0.3702
O10 O 0.4618(3) 0.6631(2) 0.56783(19)
H24 H 0.3901 0.6640 0.5933
H25 H 0.4418 0.6355 0.5186
O11 O 0.3873(3) 1.0068(2) 0.1991(2)
H26 H 0.3241 0.9640 0.1902
H27 H 0.3608 1.0369 0.2417
O12 O 0.3356(2) 0.76559(16) 0.33999(13)
H28 H 0.2875 0.7767 0.2909
H29 H 0.3032 0.7964 0.3802
loop_
_geom_bond_atom_site_label_1
_geom_bond_atom_site_label_2
_geom_bond_site_symmetry_1
_geom_bond_site_symmetry_2
Zn1 O1 1_555 1_555
O1 C4 1_555 1_555
O2 C4 1_555 1_555
O3 C5 1_555 1_555
O4 C5 1_555 1_555
C1 C2 1_555 1_555
C2 C5 1_555 1_555
C3 C1 1_555 1_555
H1 C3 1_555 1_555
C4 C1 1_555 1_555
O5 C9 1_555 1_555
O6 Zn1 1_555 1_555
O7 C10 1_555 1_555
O8 C10 1_555 1_555
C6 C7 1_555 1_555
C7 H2 1_555 1_555
C8 C6 1_555 1_555
C9 O6 1_555 1_555
C10 C8 1_555 1_555
N1 H3 1_555 1_555
H4 N1 1_555 1_555
H5 N1 1_555 1_555
C11 N1 1_555 1_555
H6 C11 1_555 1_555
H7 C11 1_555 1_555
C12 H8 1_555 1_555
H9 C12 1_555 1_555
H10 C12 1_555 1_555
N2 H14 1_555 1_555
H15 N2 1_555 1_555
H16 N2 1_555 1_555
C13 C11 1_555 1_555
H17 C13 1_555 1_555
O9 H22 1_555 1_555
H23 O9 1_555 1_555
O10 H24 1_555 1_555
H25 O10 1_555 1_555
O11 H26 1_555 1_555
H27 O11 1_555 1_555
O12 H28 1_555 1_555
H29 O12 1_555 1_555
Zn1B O1B 1_555 1_555
Zn1B_2 O3 1_555 1_555
Zn1A O7 1_555 1_555
Zn1_2 O3B 1_555 1_555
Zn1B_3 O6B 1_555 1_555
Zn1C O7B 1_555 1_555
O1B C4B 1_555 1_555
O2B C4B 1_555 1_555
O3B C5B 1_555 1_555
O3B_2 Zn1 1_555 1_555
O3_2 Zn1B 1_555 1_555
O4B C5B 1_555 1_555
C1B C2B 1_555 1_555
C2B C3 1_555 1_555
C3B C2 1_555 1_555
H1B C3B 1_555 1_555
C4B C1B 1_555 1_555
C5B C2B 1_555 1_555
O5B C9B 1_555 1_555
O6B C9B 1_555 1_555
O6B_2 Zn1B 1_555 1_555
O7B C10B 1_555 1_555
O7A Zn1 1_555 1_555
O7C Zn1B 1_555 1_555
O8B C10B 1_555 1_555
C6B C7B 1_555 1_555
C7B C8 1_555 1_555
H2B C7B 1_555 1_555
C8B C7 1_555 1_555
C9B C6B 1_555 1_555
C10B C8B 1_555 1_555
C6 C9 1_555 1_555
C12 C13 1_555 1_555
N2 C13 1_555 1_555
C1B C3B 1_555 1_555
C6B C8B 1_555 1_555

#END
