
#######################################################################
#
#                 Cambridge Crystallographic Data Centre
#                                CCDC 
#
#######################################################################
#
# If this CIF has been generated from an entry in the Cambridge 
# Structural Database, then it will include bibliographic, chemical, 
# crystal, experimental, refinement or atomic coordinate data resulting 
# from the CCDC's data processing and validation procedures.
#
#######################################################################

data_LOXWEC
_chemical_formula_moiety         '(C23 H22 Cu2 N4 O10)n'
_symmetry_cell_setting           monoclinic
_symmetry_space_group_name_H-M   'C 2/c'
_symmetry_Int_Tables_number      15
_space_group_name_Hall           '-C 2yc'
loop_
_symmetry_equiv_pos_site_id
_symmetry_equiv_pos_as_xyz
1 x,y,z
2 -x,y,1/2-z
3 1/2+x,1/2+y,z
4 1/2-x,1/2+y,1/2-z
5 -x,-y,-z
6 x,-y,1/2+z
7 1/2-x,1/2-y,-z
8 1/2+x,1/2-y,1/2+z
_cell_length_a                   27.689(6)
_cell_length_b                   13.176(3)
_cell_length_c                   8.5800(19)
_cell_angle_alpha                90
_cell_angle_beta                 95.783(3)
_cell_angle_gamma                90
_cell_volume                     3114.31
loop_
_atom_site_label
_atom_site_type_symbol
_atom_site_fract_x
_atom_site_fract_y
_atom_site_fract_z
_atom_site_U_iso_or_equiv
_atom_site_thermal_displace_type
Cu1 Cu 0.710660(11) 0.29539(2) 0.53753(3) 0.0143 Uani
O1 O 0.74546(7) 0.57947(13) 0.9880(2) 0.0228 Uani
O2 O 0.74730(7) 0.29417(14) 0.7470(2) 0.0201 Uani
O3 O 0.81279(7) 0.65685(13) 0.9263(2) 0.0207 Uani
O4 O 0.81541(7) 0.22053(15) 0.6840(2) 0.0241 Uani
N1 N 0.65154(8) 0.37079(16) 0.6398(2) 0.0176 Uani
C1 C 0.78740(9) 0.57936(19) 0.9437(3) 0.0166 Uani
C2 C 0.81457(10) 0.28815(18) 0.9415(3) 0.0182 Uani
H1 H 0.8502 0.2903 0.9382 0.0220 Uiso
H2 H 0.8072 0.2326 1.0132 0.0220 Uiso
C3 C 0.58098(10) 0.3608(2) 0.7797(3) 0.0232 Uani
H3 H 0.5559 0.3205 0.8158 0.0280 Uiso
C4 C 0.79033(9) 0.26550(18) 0.7783(3) 0.0165 Uani
C5 C 0.80876(10) 0.47806(18) 0.9016(3) 0.0197 Uani
H4 H 0.7965 0.4614 0.7922 0.0240 Uiso
H5 H 0.8444 0.4856 0.9054 0.0240 Uiso
C6 C 0.79771(10) 0.38881(19) 1.0059(3) 0.0186 Uani
H6 H 0.7623 0.3857 1.0139 0.0220 Uiso
H7 H 0.8141 0.3996 1.1125 0.0220 Uiso
C7 C 0.61529(10) 0.3176(2) 0.6939(3) 0.0219 Uani
H8 H 0.6132 0.2469 0.6722 0.0260 Uiso
C8 C 0.65431(10) 0.4706(2) 0.6731(3) 0.0220 Uani
H9 H 0.6800 0.5090 0.6372 0.0260 Uiso
C9 C 0.62104(9) 0.5196(2) 0.7578(3) 0.0255 Uani
H10 H 0.6238 0.5904 0.7780 0.0310 Uiso
N2 N 0.51514(8) 0.4674(2) 0.9611(3) 0.0291 Uani
C10 C 0.58379(9) 0.4643(2) 0.8124(3) 0.0223 Uani
C11 C 0.54805(9) 0.5169(2) 0.9005(3) 0.0266 Uani
H11 H 0.5496 0.5885 0.9120 0.0320 Uiso
N1D N 0.34846(8) 0.62921(16) 1.3602(2) 0.0176 Uani
C3D C 0.41902(10) 0.6392(2) 1.2203(3) 0.0232 Uani
H3D H 0.4441 0.6795 1.1842 0.0280 Uiso
C7D C 0.38471(10) 0.6824(2) 1.3061(3) 0.0219 Uani
H8D H 0.3868 0.7531 1.3278 0.0260 Uiso
C8D C 0.34569(10) 0.5294(2) 1.3269(3) 0.0220 Uani
H9D H 0.3200 0.4910 1.3628 0.0260 Uiso
C9D C 0.37896(9) 0.4804(2) 1.2422(3) 0.0255 Uani
H10D H 0.3762 0.4096 1.2220 0.0310 Uiso
N2D N 0.48486(8) 0.5326(2) 1.0389(3) 0.0291 Uani
C10D C 0.41621(9) 0.5357(2) 1.1876(3) 0.0223 Uani
C11D C 0.45195(9) 0.4831(2) 1.0995(3) 0.0266 Uani
H11D H 0.4504 0.4115 1.0880 0.0320 Uiso
Cu1D Cu 0.289340(11) 0.70461(2) 1.46247(3) 0.0143 Uani
O1D O 0.25454(7) 0.42053(13) 1.0120(2) 0.0228 Uani
O2D O 0.25270(7) 0.70583(14) 1.2530(2) 0.0201 Uani
O3D O 0.18721(7) 0.34315(13) 1.0737(2) 0.0207 Uani
O4D O 0.18459(7) 0.77947(15) 1.3160(2) 0.0241 Uani
C1D C 0.21260(9) 0.42064(19) 1.0563(3) 0.0166 Uani
C2D C 0.18543(10) 0.71185(18) 1.0585(3) 0.0182 Uani
H1D H 0.1498 0.7097 1.0618 0.0220 Uiso
H2D H 0.1928 0.7674 0.9868 0.0220 Uiso
C4D C 0.20967(9) 0.73450(18) 1.2217(3) 0.0165 Uani
C5D C 0.19124(10) 0.52194(18) 1.0984(3) 0.0197 Uani
H4D H 0.2035 0.5386 1.2078 0.0240 Uiso
H5D H 0.1556 0.5144 1.0946 0.0240 Uiso
C6D C 0.20229(10) 0.61119(19) 0.9941(3) 0.0186 Uani
H6D H 0.2377 0.6143 0.9861 0.0220 Uiso
H7D H 0.1859 0.6004 0.8875 0.0220 Uiso
Cu1A Cu 0.289340(11) 0.29539(2) 0.96247(3) 0.0143 Uani
Cu1B Cu 0.210660(11) 0.79539(2) 1.53753(3) 0.0143 Uani
Cu1C Cu 0.789340(11) 0.79539(2) 0.96247(3) 0.0143 Uani
Cu1E Cu 0.710660(11) 0.70461(2) 1.03753(3) 0.0143 Uani
Cu1F Cu 0.789340(11) 0.20461(2) 0.46247(3) 0.0143 Uani
Cu1G Cu 0.210660(11) 0.20461(2) 1.03753(3) 0.0143 Uani
O1A O 0.25454(7) 0.57947(13) 1.5120(2) 0.0228 Uani
O1E O 0.74546(7) 0.42053(13) 0.4880(2) 0.0228 Uani
O3C O 0.68721(7) 0.15685(13) 0.5737(2) 0.0207 Uani
O3G O 0.31279(7) 0.84315(13) 1.4263(2) 0.0207 Uani
O4B O 0.31541(7) 0.72053(15) 1.6840(2) 0.0241 Uani
O4F O 0.68459(7) 0.27947(15) 0.3160(2) 0.0241 Uani
O5 O 0.6002(6) 0.0629(14) 0.3283(17) 0.1118 Uani
C12 C 0.5872(6) 0.144(2) 0.345(2) 0.0929 Uani
O6 O 0.5717(7) 0.2217(14) 0.342(3) 0.1486 Uani
loop_
_atom_site_aniso_label
_atom_site_aniso_U_11
_atom_site_aniso_U_22
_atom_site_aniso_U_33
_atom_site_aniso_U_23
_atom_site_aniso_U_13
_atom_site_aniso_U_12
Cu1 0.02173(17) 0.00896(16) 0.01310(16) -0.00057(10) 0.00649(11) 0.00179(11)
O1 0.0304 0.0112 0.0292 -0.0022 0.0149 -0.0025
O2 0.0241(9) 0.0213(9) 0.0156(8) -0.0035(7) 0.0053(7) 0.0020(7)
O3 0.0253 0.0101 0.0278 0.001 0.0088 -0.0009
O4 0.031 0.0266 0.0148 -0.0032 0.0033 0.0111
N1 0.0219(10) 0.0148(10) 0.0169(10) -0.0010(8) 0.0064(8) 0.0026(8)
C1 0.0248 0.013 0.0125 -0.0004 0.0044 0.0015
C2 0.0276(13) 0.0133(11) 0.0140(11) 0.0005(9) 0.0032(10) 0.0010(10)
C3 0.0231(13) 0.0241(14) 0.0239(13) -0.0010(11) 0.0101(11) 0.0003(11)
C4 0.0268(13) 0.0076(10) 0.0158(12) 0.0007(8) 0.0061(10) -0.0009(9)
C5 0.0312 0.0102 0.0193 -0.001 0.011 -0.0002
C6 0.0306(13) 0.0114(11) 0.0143(11) -0.0010(9) 0.0053(10) -0.0012(10)
C7 0.0277(14) 0.0160(12) 0.0231(13) -0.0012(10) 0.0084(11) 0.0008(10)
C8 0.0218(12) 0.0180(13) 0.0276(14) -0.0058(10) 0.0096(10) -0.0012(10)
C9 0.0223(13) 0.0200(13) 0.0348(15) -0.0116(11) 0.0062(11) 0.0005(11)
N2 0.0196(11) 0.0382(14) 0.0304(13) -0.0182(11) 0.0064(10) 0.0031(10)
C10 0.0190(12) 0.0266(14) 0.0215(13) -0.0094(11) 0.0032(10) 0.0036(10)
C11 0.0211(13) 0.0325(15) 0.0263(14) -0.0136(12) 0.0029(11) 0.0032(11)
N1D 0.0219 0.0148 0.0169 -0.001 0.0064 0.0026
C3D 0.0231 0.0241 0.0239 -0.001 0.0101 0.0003
C7D 0.0277 0.016 0.0231 -0.0012 0.0084 0.0008
C8D 0.0218 0.018 0.0276 -0.0058 0.0096 -0.0012
C9D 0.0223 0.02 0.0348 -0.0116 0.0062 0.0005
N2D 0.0196 0.0382 0.0304 -0.0182 0.0064 0.0031
C10D 0.019 0.0266 0.0215 -0.0094 0.0032 0.0036
C11D 0.0211 0.0325 0.0263 -0.0136 0.0029 0.0032
Cu1D 0.02173 0.00896 0.0131 -0.00057 0.00649 0.00179
O1D 0.0304 0.0112 0.0292 -0.0022 0.0149 -0.0025
O2D 0.0241 0.0213 0.0156 -0.0035 0.0053 0.002
O3D 0.0253 0.0101 0.0278 0.001 0.0088 -0.0009
O4D 0.031 0.0266 0.0148 -0.0032 0.0033 0.0111
C1D 0.0248 0.013 0.0125 -0.0004 0.0044 0.0015
C2D 0.0276 0.0133 0.014 0.0005 0.0032 0.001
C4D 0.0268 0.0076 0.0158 0.0007 0.0061 -0.0009
C5D 0.0312 0.0102 0.0193 -0.001 0.011 -0.0002
C6D 0.0306 0.0114 0.0143 -0.001 0.0053 -0.0012
Cu1A 0.02173 0.00896 0.0131 0.00057 0.00649 -0.00179
Cu1B 0.02173 0.00896 0.0131 -0.00057 0.00649 0.00179
Cu1C 0.02173 0.00896 0.0131 0.00057 0.00649 -0.00179
Cu1E 0.02173 0.00896 0.0131 0.00057 0.00649 -0.00179
Cu1F 0.02173 0.00896 0.0131 -0.00057 0.00649 0.00179
Cu1G 0.02173 0.00896 0.0131 0.00057 0.00649 -0.00179
O1A 0.0304 0.0112 0.0292 0.0022 0.0149 0.0025
O1E 0.0304 0.0112 0.0292 0.0022 0.0149 0.0025
O3C 0.0253 0.0101 0.0278 -0.001 0.0088 0.0009
O3G 0.0253 0.0101 0.0278 -0.001 0.0088 0.0009
O4B 0.031 0.0266 0.0148 -0.0032 0.0033 0.0111
O4F 0.031 0.0266 0.0148 -0.0032 0.0033 0.0111
O5 0.107(11) 0.137(14) 0.092(10) -0.048(10) 0.013(8) 0.018(10)
C12 0.056(9) 0.120(19) 0.106(15) -0.076(14) 0.025(9) -0.002(11)
O6 0.114(13) 0.097(14) 0.24(2) -0.063(14) 0.043(15) -0.011(10)
loop_
_geom_bond_atom_site_label_1
_geom_bond_atom_site_label_2
_geom_bond_site_symmetry_1
_geom_bond_site_symmetry_2
Cu1 O2 1_555 1_555
O1 C1 1_555 1_555
O2 C4 1_555 1_555
O3 C1 1_555 1_555
O4 C4 1_555 1_555
N1 Cu1 1_555 1_555
C1 C5 1_555 1_555
C2 H1 1_555 1_555
H2 C2 1_555 1_555
C3 H3 1_555 1_555
C4 C2 1_555 1_555
C5 H4 1_555 1_555
H5 C5 1_555 1_555
C6 C2 1_555 1_555
H6 C6 1_555 1_555
H7 C6 1_555 1_555
C7 N1 1_555 1_555
H8 C7 1_555 1_555
C8 N1 1_555 1_555
H9 C8 1_555 1_555
C9 C8 1_555 1_555
H10 C9 1_555 1_555
N2 C11 1_555 1_555
C10 C3 1_555 1_555
C11 C10 1_555 1_555
H11 C11 1_555 1_555
O5 C12 1_555 1_555
C12 O6 1_555 1_555
N1D C7D 1_555 1_555
C3D H3D 1_555 1_555
C7D C3D 1_555 1_555
H8D C7D 1_555 1_555
C8D N1D 1_555 1_555
H9D C8D 1_555 1_555
C9D C8D 1_555 1_555
H10D C9D 1_555 1_555
N2D N2 1_555 1_555
C10D C3D 1_555 1_555
C11D N2D 1_555 1_555
H11D C11D 1_555 1_555
Cu1D N1D 1_555 1_555
O1D C1D 1_555 1_555
O2D Cu1D 1_555 1_555
O3D C1D 1_555 1_555
O4D C4D 1_555 1_555
C1D C5D 1_555 1_555
C2D H1D 1_555 1_555
H2D C2D 1_555 1_555
C4D O2D 1_555 1_555
C5D H4D 1_555 1_555
H5D C5D 1_555 1_555
C6D C2D 1_555 1_555
H6D C6D 1_555 1_555
H7D C6D 1_555 1_555
Cu1A O1D 1_555 1_555
Cu1B Cu1D 1_555 1_555
Cu1C O3 1_555 1_555
Cu1E O1 1_555 1_555
Cu1F Cu1 1_555 1_555
Cu1G O3D 1_555 1_555
O1A Cu1D 1_555 1_555
O1E Cu1 1_555 1_555
O3C Cu1 1_555 1_555
O3G Cu1D 1_555 1_555
O4B Cu1D 1_555 1_555
O4F Cu1 1_555 1_555
O4 Cu1F 1_555 1_555
C3 C7 1_555 1_555
C5 C6 1_555 1_555
C9 C10 1_555 1_555
C9D C10D 1_555 1_555
C10D C11D 1_555 1_555
O4D Cu1B 1_555 1_555
C2D C4D 1_555 1_555
C5D C6D 1_555 1_555
Cu1A Cu1G 1_555 1_555
Cu1C Cu1E 1_555 1_555

#END
