
#######################################################################
#
#                 Cambridge Crystallographic Data Centre
#                                CCDC 
#
#######################################################################
#
# If this CIF has been generated from an entry in the Cambridge 
# Structural Database, then it will include bibliographic, chemical, 
# crystal, experimental, refinement or atomic coordinate data resulting 
# from the CCDC's data processing and validation procedures.
#
#######################################################################

data_RUJGOT
_chemical_formula_moiety         '(C14 H16 Mn3 N2 O14)n'
_symmetry_cell_setting           monoclinic
_symmetry_space_group_name_H-M   'C 2/c'
_symmetry_Int_Tables_number      15
_space_group_name_Hall           '-C 2yc'
loop_
_symmetry_equiv_pos_site_id
_symmetry_equiv_pos_as_xyz
1 x,y,z
2 -x,y,1/2-z
3 1/2+x,1/2+y,z
4 1/2-x,1/2+y,1/2-z
5 -x,-y,-z
6 x,-y,1/2+z
7 1/2-x,1/2-y,-z
8 1/2+x,1/2-y,1/2+z
_cell_length_a                   17.334(3)
_cell_length_b                   11.183(2)
_cell_length_c                   11.418(2)
_cell_angle_alpha                90
_cell_angle_beta                 95.96(3)
_cell_angle_gamma                90
_cell_volume                     2201.37
loop_
_atom_site_label
_atom_site_type_symbol
_atom_site_fract_x
_atom_site_fract_y
_atom_site_fract_z
_atom_site_U_iso_or_equiv
_atom_site_thermal_displace_type
Mn1 Mn 0.0000 0.62974(6) 0.7500 0.0233 Uani
Mn2 Mn 0.41120(3) 0.95209(4) 0.48511(4) 0.0257 Uani
O1 O 0.30252(13) 1.0493(2) 0.4751(2) 0.0385 Uani
O3 O 0.14298(13) 0.7148(2) 0.58004(19) 0.0364 Uani
O5 O 0.08423(13) 0.7739(2) 0.73638(18) 0.0346 Uani
O6 O 0.10275(15) 0.3597(2) 0.84929(19) 0.0439 Uani
O7 O 0.02493(13) 0.6057(2) 0.93965(19) 0.0263 Uani
H5 H 0.040(2) 0.661(3) 0.961(3) 0.0370 Uiso
O8 O 0.08565(12) 0.49145(19) 0.70331(17) 0.0304 Uani
N1 N 0.25704(15) 1.0320(2) 0.5612(2) 0.0308 Uani
C1 C 0.12926(17) 0.7889(3) 0.6579(3) 0.0266 Uani
C2 C 0.17166(18) 0.9073(3) 0.6565(3) 0.0272 Uani
C3 C 0.21922(18) 0.9272(3) 0.5682(3) 0.0299 Uani
H6 H 0.2277(17) 0.868(3) 0.508(3) 0.0280 Uiso
C4 C 0.2490(2) 1.1205(3) 0.6397(3) 0.0381 Uani
H7 H 0.2776(19) 1.190(3) 0.625(3) 0.0370 Uiso
C5 C 0.2033(2) 1.1033(3) 0.7291(3) 0.0408 Uani
H8 H 0.1996(19) 1.170(3) 0.787(3) 0.0420 Uiso
C6 C 0.1644(2) 0.9969(3) 0.7385(3) 0.0357 Uani
H9 H 0.1308(19) 0.983(3) 0.800(3) 0.0380 Uiso
C7 C 0.1054(2) 0.3931(3) 0.7454(3) 0.0374 Uani
H10 H 0.119(2) 0.327(4) 0.690(3) 0.0610 Uiso
Mn2A Mn -0.41120(3) 0.95209(4) 1.01489(4) 0.0257 Uani
Mn2F Mn 0.08880(3) 0.54791(4) 0.51489(4) 0.0257 Uani
Mn2C Mn 0.08880(3) 0.45209(4) 1.01489(4) 0.0257 Uani
Mn2G Mn -0.08880(3) 0.54791(4) 0.98511(4) 0.0257 Uani
Mn2B Mn -0.08880(3) 0.45209(4) 0.48511(4) 0.0257 Uani
O1A O -0.30252(13) 1.0493(2) 1.0249(2) 0.0385 Uani
O3A O -0.14298(13) 0.7148(2) 0.91996(19) 0.0364 Uani
O3F O 0.35702(13) 0.7852(2) 0.41996(19) 0.0364 Uani
O3G O -0.35702(13) 0.7852(2) 1.08004(19) 0.0364 Uani
O5A O -0.08423(13) 0.7739(2) 0.76362(18) 0.0346 Uani
O6A O -0.10275(15) 0.3597(2) 0.65071(19) 0.0439 Uani
O6C O 0.39725(15) 0.8597(2) 0.65071(19) 0.0439 Uani
O6B O -0.39725(15) 0.8597(2) 0.84929(19) 0.0439 Uani
O7A O -0.02493(13) 0.6057(2) 0.56035(19) 0.0263 Uani
O7C O 0.47507(13) 1.1057(2) 0.56035(19) 0.0263 Uani
O7G O 0.52493(13) 0.8943(2) 0.43965(19) 0.0263 Uani
O7B O -0.47507(13) 1.1057(2) 0.93965(19) 0.0263 Uani
O7F O -0.52493(13) 0.8943(2) 1.06035(19) 0.0263 Uani
H5A H -0.040(2) 0.661(3) 0.539(3) 0.0370 Uiso
H5C H 0.460(2) 1.161(3) 0.539(3) 0.0370 Uiso
H5G H 0.540(2) 0.839(3) 0.461(3) 0.0370 Uiso
H5B H -0.460(2) 1.161(3) 0.961(3) 0.0370 Uiso
H5F H -0.540(2) 0.839(3) 1.039(3) 0.0370 Uiso
O8A O -0.08565(12) 0.49145(19) 0.79669(17) 0.0304 Uani
O8F O 0.41435(12) 1.00855(19) 0.29669(17) 0.0304 Uani
O8G O -0.41435(12) 1.00855(19) 1.20331(17) 0.0304 Uani
N1A N -0.25704(15) 1.0320(2) 0.9388(2) 0.0308 Uani
C1A C -0.12926(17) 0.7889(3) 0.8421(3) 0.0266 Uani
C2A C -0.17166(18) 0.9073(3) 0.8435(3) 0.0272 Uani
C3A C -0.21922(18) 0.9272(3) 0.9318(3) 0.0299 Uani
H6A H -0.2277(17) 0.868(3) 0.992(3) 0.0280 Uiso
C4A C -0.2490(2) 1.1205(3) 0.8603(3) 0.0381 Uani
H7A H -0.2776(19) 1.190(3) 0.875(3) 0.0370 Uiso
C5A C -0.2033(2) 1.1033(3) 0.7709(3) 0.0408 Uani
H8A H -0.1996(19) 1.170(3) 0.713(3) 0.0420 Uiso
C6A C -0.1644(2) 0.9969(3) 0.7615(3) 0.0357 Uani
H9A H -0.1308(19) 0.983(3) 0.700(3) 0.0380 Uiso
C7A C -0.1054(2) 0.3931(3) 0.7546(3) 0.0374 Uani
H10A H -0.119(2) 0.327(4) 0.810(3) 0.0610 Uiso
O2 O 0.4316(4) 0.3856(7) 0.5389(5) 0.2791 Uani
H1 H 0.4595 0.3797 0.4821 0.3350 Uiso
H2 H 0.4210 0.3482 0.6001 0.3350 Uiso
O4 O 0.5220(3) 0.6367(3) 0.8710(3) 0.1155 Uani
H3 H 0.5500 0.6991 0.8810 0.1380 Uiso
H4 H 0.5085 0.6545 0.7994 0.1380 Uiso
loop_
_atom_site_aniso_label
_atom_site_aniso_U_11
_atom_site_aniso_U_22
_atom_site_aniso_U_33
_atom_site_aniso_U_23
_atom_site_aniso_U_13
_atom_site_aniso_U_12
Mn1 0.0265(4) 0.0246(4) 0.0203(3) 0.000 0.0097(3) 0.000
Mn2 0.0275 0.0281 0.0231 -0.0034 0.01088 -0.0053
O1 0.0331 0.0407 0.0454 0.0076 0.0212 -0.0026
O3 0.0438 0.0315 0.0367 -0.0103 0.0172 -0.0127
O5 0.0382 0.0341 0.0347 -0.0051 0.0195 -0.0096
O6 0.0711(18) 0.0377(14) 0.0245(12) 0.0039(11) 0.0123(12) 0.0153(12)
O7 0.0315(13) 0.0257(14) 0.0226(12) 0.0016(10) 0.0069(9) -0.0007(11)
O8 0.0364(13) 0.0305(13) 0.0264(12) 0.0040(9) 0.0132(10) 0.0062(10)
N1 0.0264 0.0319 0.0351 0.0024 0.0085 -0.0013
C1 0.0246 0.0285 0.0271 0.0013 0.0039 -0.0029
C2 0.0269 0.0276 0.0278 -0.0024 0.0056 -0.0017
C3 0.0316 0.0259 0.0329 -0.0035 0.0073 -0.004
C4 0.042 0.029 0.044 -0.0043 0.0073 -0.009
C5 0.049 0.034 0.041 -0.0116 0.0125 -0.0052
C6 0.041 0.0335 0.0348 -0.0028 0.0141 -0.0039
C7 0.049(2) 0.036(2) 0.0286(19) -0.0059(16) 0.0110(16) 0.0108(17)
Mn2A 0.0275 0.0281 0.0231 0.0034 0.01088 0.0053
Mn2F 0.0275 0.0281 0.0231 -0.0034 0.01088 -0.0053
Mn2C 0.0275(3) 0.0281(3) 0.0231(3) 0.0034(2) 0.01088(19) 0.0053(2)
Mn2G 0.0275 0.0281 0.0231 0.0034 0.01088 0.0053
Mn2B 0.0275 0.0281 0.0231 -0.0034 0.01088 -0.0053
O1A 0.0331 0.0407 0.0454 -0.0076 0.0212 0.0026
O3A 0.0438 0.0315 0.0367 0.0103 0.0172 0.0127
O3F 0.0438 0.0315 0.0367 -0.0103 0.0172 -0.0127
O3G 0.0438 0.0315 0.0367 0.0103 0.0172 0.0127
O5A 0.0382 0.0341 0.0347 0.0051 0.0195 0.0096
O6A 0.0711 0.0377 0.0245 -0.0039 0.0123 -0.0153
O6C 0.0711 0.0377 0.0245 -0.0039 0.0123 -0.0153
O6B 0.0711 0.0377 0.0245 0.0039 0.0123 0.0153
O7A 0.0315 0.0257 0.0226 -0.0016 0.0069 0.0007
O7C 0.0315 0.0257 0.0226 -0.0016 0.0069 0.0007
O7G 0.0315 0.0257 0.0226 -0.0016 0.0069 0.0007
O7B 0.0315 0.0257 0.0226 0.0016 0.0069 -0.0007
O7F 0.0315 0.0257 0.0226 0.0016 0.0069 -0.0007
O8A 0.0364 0.0305 0.0264 -0.004 0.0132 -0.0062
O8F 0.0364 0.0305 0.0264 0.004 0.0132 0.0062
O8G 0.0364 0.0305 0.0264 -0.004 0.0132 -0.0062
N1A 0.0264 0.0319 0.0351 -0.0024 0.0085 0.0013
C1A 0.0246 0.0285 0.0271 -0.0013 0.0039 0.0029
C2A 0.0269 0.0276 0.0278 0.0024 0.0056 0.0017
C3A 0.0316 0.0259 0.0329 0.0035 0.0073 0.004
C4A 0.042 0.029 0.044 0.0043 0.0073 0.009
C5A 0.049 0.034 0.041 0.0116 0.0125 0.0052
C6A 0.041 0.0335 0.0348 0.0028 0.0141 0.0039
C7A 0.049 0.036 0.0286 0.0059 0.011 -0.0108
O2 0.318(9) 0.407(11) 0.134(5) 0.140(6) 0.127(6) 0.266(9)
O4 0.143(4) 0.100(3) 0.107(3) -0.010(2) 0.030(3) -0.050(3)
loop_
_geom_bond_atom_site_label_1
_geom_bond_atom_site_label_2
_geom_bond_site_symmetry_1
_geom_bond_site_symmetry_2
Mn1 O5 1_555 1_555
Mn2 O1 1_555 1_555
O1 N1 1_555 1_555
O2 H1 1_555 1_555
H2 O2 1_555 1_555
O3 C1 1_555 1_555
O4 H3 1_555 1_555
H4 O4 1_555 1_555
O5 C1 1_555 1_555
O6 C7 1_555 1_555
O7 Mn1 1_555 1_555
H5 O7 1_555 1_555
O8 Mn1 1_555 1_555
N1 C3 1_555 1_555
C1 C2 1_555 1_555
C2 C3 1_555 1_555
C3 H6 1_555 1_555
C4 N1 1_555 1_555
H7 C4 1_555 1_555
C5 C4 1_555 1_555
H8 C5 1_555 1_555
C6 C2 1_555 1_555
H9 C6 1_555 1_555
C7 O8 1_555 1_555
H10 C7 1_555 1_555
Mn2A O1A 1_555 1_555
Mn2F O3 1_555 1_555
Mn2C O6 1_555 1_555
Mn2G O7 1_555 1_555
Mn2B O6A 1_555 1_555
O1A N1A 1_555 1_555
O3A Mn2G 1_555 1_555
O3F Mn2 1_555 1_555
O3G Mn2A 1_555 1_555
O5A Mn1 1_555 1_555
O6A C7A 1_555 1_555
O6C Mn2 1_555 1_555
O6B Mn2A 1_555 1_555
O7A Mn1 1_555 1_555
O7C Mn2 1_555 1_555
O7G Mn2 1_555 1_555
O7B Mn2A 1_555 1_555
O7F Mn2A 1_555 1_555
H5A O7A 1_555 1_555
H5C O7C 1_555 1_555
H5G O7G 1_555 1_555
H5B O7B 1_555 1_555
H5F O7F 1_555 1_555
O8A Mn1 1_555 1_555
O8F Mn2 1_555 1_555
O8G Mn2A 1_555 1_555
N1A C3A 1_555 1_555
C1A O3A 1_555 1_555
C2A C1A 1_555 1_555
C3A C2A 1_555 1_555
H6A C3A 1_555 1_555
C4A N1A 1_555 1_555
H7A C4A 1_555 1_555
C5A C4A 1_555 1_555
H8A C5A 1_555 1_555
C6A C2A 1_555 1_555
H9A C6A 1_555 1_555
C7A O8A 1_555 1_555
H10A C7A 1_555 1_555
O7 Mn2C 1_555 1_555
O8 Mn2F 1_555 1_555
C5 C6 1_555 1_555
Mn2F O7A 1_555 1_555
Mn2G O8A 1_555 1_555
Mn2B O7A 1_555 1_555
O5A C1A 1_555 1_555
C5A C6A 1_555 1_555

#END
