
#######################################################################
#
#                 Cambridge Crystallographic Data Centre
#                                CCDC 
#
#######################################################################
#
# If this CIF has been generated from an entry in the Cambridge 
# Structural Database, then it will include bibliographic, chemical, 
# crystal, experimental, refinement or atomic coordinate data resulting 
# from the CCDC's data processing and validation procedures.
#
#######################################################################

data_EBUREA
_chemical_formula_moiety         '(C30 H42 Mn3 N4 O26)n'
_symmetry_cell_setting           monoclinic
_symmetry_space_group_name_H-M   'C c'
_symmetry_Int_Tables_number      9
_space_group_name_Hall           'C -2yc'
loop_
_symmetry_equiv_pos_site_id
_symmetry_equiv_pos_as_xyz
1 x,y,z
2 x,-y,1/2+z
3 1/2+x,1/2+y,z
4 1/2+x,1/2-y,1/2+z
_cell_length_a                   30.3206(18)
_cell_length_b                   7.2470(3)
_cell_length_c                   19.3370(9)
_cell_angle_alpha                90
_cell_angle_beta                 106.844(2)
_cell_angle_gamma                90
_cell_volume                     4066.69
loop_
_atom_site_label
_atom_site_type_symbol
_atom_site_fract_x
_atom_site_fract_y
_atom_site_fract_z
Mn1 Mn 0.82317(4) 0.66192(13) 0.91008(5)
Mn2 Mn 1.20797(4) 0.07859(14) 0.95095(5)
Mn3 Mn 1.21546(4) 0.61527(14) 0.76928(5)
C1 C 0.8040(3) 0.3641(9) 0.7839(4)
C2 C 0.8265(3) 0.2792(9) 0.7303(4)
C3 C 0.8734(2) 0.2390(9) 0.7507(4)
H1 H 0.8917 0.2602 0.7977
C4 C 0.8926(3) 0.1651(10) 0.6980(4)
C5 C 0.8670(2) 0.1447(10) 0.6286(4)
H2 H 0.8807 0.1042 0.5942
C6 C 0.8196(3) 0.1841(9) 0.6081(4)
C7 C 0.7918(3) 0.1634(9) 0.5308(4)
C8 C 0.7993(2) 0.2478(8) 0.6590(3)
H3 H 0.7678 0.2698 0.6460
C9 C 1.0096(2) 0.0306(9) 0.7847(4)
C10 C 1.0363(3) 0.0008(12) 0.8539(4)
H4 H 1.0244 0.0200 0.8925
C11 C 1.0814(3) -0.0584(11) 0.8660(5)
H5 H 1.0993 -0.0836 0.9129
C12 C 1.1001(3) -0.0805(10) 0.8091(4)
C13 C 1.1494(3) -0.1475(9) 0.8242(4)
C14 C 1.0725(3) -0.0523(10) 0.7383(4)
H6 H 1.0847 -0.0726 0.6999
C15 C 1.0270(3) 0.0059(11) 0.7244(4)
H7 H 1.0087 0.0279 0.6775
C16 C 1.1513(2) 0.3508(9) 0.8315(4)
C17 C 1.1034(2) 0.4195(9) 0.7978(4)
C18 C 1.0865(3) 0.4497(10) 0.7226(4)
H8 H 1.1059 0.4328 0.6938
C19 C 1.0418(3) 0.5035(10) 0.6916(4)
H9 H 1.0311 0.5215 0.6419
C20 C 1.0121(3) 0.5314(9) 0.7342(4)
C21 C 1.0281(2) 0.5017(10) 0.8093(4)
H10 H 1.0085 0.5196 0.8379
C22 C 1.0735(3) 0.4451(11) 0.8407(4)
H11 H 1.0841 0.4242 0.8902
C23 C 0.8958(3) 0.6644(9) 0.7053(4)
C24 C 0.8724(2) 0.6235(9) 0.6320(4)
H12 H 0.8883 0.5705 0.6026
C25 C 0.8248(2) 0.6635(9) 0.6038(4)
C26 C 0.8000(3) 0.5995(9) 0.5306(4)
C27 C 0.8016(2) 0.7447(10) 0.6478(4)
H13 H 0.7705 0.7723 0.6291
C28 C 0.8242(2) 0.7854(9) 0.7196(4)
C29 C 0.7986(3) 0.8704(8) 0.7678(3)
C30 C 0.8709(2) 0.7433(9) 0.7487(3)
H14 H 0.8856 0.7677 0.7972
N1 N 0.9403(2) 0.1202(8) 0.7114(3)
N2 N 0.9619(2) 0.0835(8) 0.7749(3)
N3 N 0.9661(2) 0.5863(8) 0.6983(4)
N4 N 0.9422(2) 0.6222(8) 0.7389(3)
O1 O 0.83087(18) 0.4336(7) 0.8408(3)
O2 O 0.76083(18) 0.3628(6) 0.7680(3)
O3 O 0.74939(18) 0.2037(7) 0.5138(3)
O4 O 0.81157(18) 0.1127(6) 0.4836(2)
O5 O 1.16234(19) -0.1921(8) 0.7692(3)
O6 O 1.17380(18) -0.1540(7) 0.8873(2)
O7 O 1.15936(18) 0.2772(7) 0.8928(3)
O8 O 1.18054(17) 0.3618(7) 0.7960(3)
O9 O 0.82291(19) 0.5217(7) 0.4936(3)
O10 O 0.75682(19) 0.6229(7) 0.5086(3)
O11 O 0.75803(19) 0.9246(7) 0.7369(3)
O12 O 0.81799(19) 0.8780(6) 0.8351(3)
O13 O 0.74517(18) 0.6193(6) 0.8626(3)
O14 O 0.8974(2) 0.6845(8) 0.9531(3)
O15 O 1.16862(19) 0.0508(8) 1.0276(3)
O16 O 1.2510(2) 0.6234(7) 0.8840(3)
O17 O 1.1780(2) 0.6102(8) 0.6533(3)
Mn1A Mn 0.82317(4) 0.33808(13) 0.41008(5)
Mn2C Mn 0.70797(4) 0.42141(14) 0.45095(5)
Mn2B Mn 0.70797(4) 0.57859(14) 0.95095(5)
Mn3B Mn 0.71546(4) 0.11527(14) 0.76928(5)
Mn3_2 Mn 1.21546(4) -0.38473(14) 0.76928(5)
Mn3B_2 Mn 0.71546(4) 1.11527(14) 0.76928(5)
O2B O 1.26083(18) 0.8628(6) 0.7680(3)
O3C O 1.24939(18) 0.2963(7) 1.0138(3)
O4A O 0.81157(18) 0.8873(6) 0.9836(2)
O5_2 O 1.16234(19) 0.8079(8) 0.7692(3)
O9A O 0.82291(19) 0.4783(7) 0.9936(3)
O10C O 1.25682(19) -0.1229(7) 1.0086(3)
O11B O 1.25803(19) 0.4246(7) 0.7369(3)
O13B O 1.24517(18) 0.1193(6) 0.8626(3)
O18 O 0.8765(2) 0.8428(8) 0.4579(3)
O19 O 0.9418(2) 0.9806(9) 0.9125(3)
O20 O 0.9482(3) 0.3901(11) 0.0378(4)
O21 O 0.6836(3) 0.9185(9) 0.5288(4)
O22 O 0.6744(4) 0.3918(11) 0.1627(4)
O23 O 0.5965(3) 0.7449(16) 0.0537(4)
O24 O 0.5339(7) 0.980(3) 0.9937(9)
O25 O 0.5260(5) 0.438(2) 0.0378(7)
O26 O 0.5972(8) 0.177(3) 0.0402(15)
loop_
_geom_bond_atom_site_label_1
_geom_bond_atom_site_label_2
_geom_bond_site_symmetry_1
_geom_bond_site_symmetry_2
Mn1 O1 1_555 1_555
Mn2 O6 1_555 1_555
Mn3 O8 1_555 1_555
C1 C2 1_555 1_555
C2 C3 1_555 1_555
C3 H1 1_555 1_555
C4 C3 1_555 1_555
C5 C4 1_555 1_555
H2 C5 1_555 1_555
C6 C5 1_555 1_555
C7 C6 1_555 1_555
C8 C2 1_555 1_555
H3 C8 1_555 1_555
C9 C10 1_555 1_555
C10 H4 1_555 1_555
C11 C10 1_555 1_555
H5 C11 1_555 1_555
C12 C11 1_555 1_555
C13 C12 1_555 1_555
C14 C12 1_555 1_555
H6 C14 1_555 1_555
C15 C9 1_555 1_555
H7 C15 1_555 1_555
C16 C17 1_555 1_555
C17 C18 1_555 1_555
C18 H8 1_555 1_555
C19 C18 1_555 1_555
H9 C19 1_555 1_555
C20 C19 1_555 1_555
C21 C20 1_555 1_555
H10 C21 1_555 1_555
C22 C17 1_555 1_555
H11 C22 1_555 1_555
C23 C24 1_555 1_555
C24 H12 1_555 1_555
C25 C24 1_555 1_555
C26 C25 1_555 1_555
C27 C25 1_555 1_555
H13 C27 1_555 1_555
C28 C27 1_555 1_555
C29 C28 1_555 1_555
C30 C23 1_555 1_555
H14 C30 1_555 1_555
N1 C4 1_555 1_555
N2 C9 1_555 1_555
N3 C20 1_555 1_555
N4 C23 1_555 1_555
O1 C1 1_555 1_555
O2 C1 1_555 1_555
O3 C7 1_555 1_555
O4 C7 1_555 1_555
O5 C13 1_555 1_555
O6 C13 1_555 1_555
O7 Mn2 1_555 1_555
O8 C16 1_555 1_555
O9 C26 1_555 1_555
O10 C26 1_555 1_555
O11 C29 1_555 1_555
O12 Mn1 1_555 1_555
O13 Mn1 1_555 1_555
O14 Mn1 1_555 1_555
O15 Mn2 1_555 1_555
O16 Mn3 1_555 1_555
O17 Mn3 1_555 1_555
Mn1A O4 1_555 1_555
Mn2C O3 1_555 1_555
Mn2B O13 1_555 1_555
Mn3B O2 1_555 1_555
Mn3_2 O5 1_555 1_555
Mn3B_2 O11 1_555 1_555
O2B Mn3 1_555 1_555
O3C Mn2 1_555 1_555
O4A Mn1 1_555 1_555
O5_2 Mn3 1_555 1_555
O9A Mn1 1_555 1_555
O10C Mn2 1_555 1_555
O11B Mn3 1_555 1_555
O13B Mn2 1_555 1_555
C6 C8 1_555 1_555
C14 C15 1_555 1_555
C16 O7 1_555 1_555
C21 C22 1_555 1_555
C28 C30 1_555 1_555
C29 O12 1_555 1_555
N1 N2 1_555 1_555
N3 N4 1_555 1_555
O9 Mn1A 1_555 1_555
O10 Mn2C 1_555 1_555

#END
