
#######################################################################
#
#                 Cambridge Crystallographic Data Centre
#                                CCDC 
#
#######################################################################
#
# If this CIF has been generated from an entry in the Cambridge 
# Structural Database, then it will include bibliographic, chemical, 
# crystal, experimental, refinement or atomic coordinate data resulting 
# from the CCDC's data processing and validation procedures.
#
#######################################################################

data_LOSDAA
_chemical_formula_moiety         '(C24 H16 Ag1 In1 N4 O8)n'
_symmetry_cell_setting           orthorhombic
_symmetry_space_group_name_H-M   'I 2 2 2'
_symmetry_Int_Tables_number      23
_space_group_name_Hall           'I 2 2'
loop_
_symmetry_equiv_pos_site_id
_symmetry_equiv_pos_as_xyz
1 x,y,z
2 -x,-y,z
3 -x,y,-z
4 x,-y,-z
5 1/2+x,1/2+y,1/2+z
6 1/2-x,1/2-y,1/2+z
7 1/2-x,1/2+y,1/2-z
8 1/2+x,1/2-y,1/2-z
_cell_length_a                   10.8851(12)
_cell_length_b                   11.8615(10)
_cell_length_c                   13.9326(10)
_cell_angle_alpha                90
_cell_angle_beta                 90
_cell_angle_gamma                90
_cell_volume                     1798.89
loop_
_atom_site_label
_atom_site_type_symbol
_atom_site_fract_x
_atom_site_fract_y
_atom_site_fract_z
Ag1 Ag 0.5000 0.0000 0.5000
In1 In 1.0000 -0.5000 0.5000
N1 N 0.6066(13) -0.1271(12) 0.4057(7)
O1 O 0.9037(6) -0.4181(6) 0.3745(4)
O2 O 0.8503(6) -0.3587(6) 0.5167(4)
C1 C 0.616(2) -0.104(2) 0.3089(15)
H1 H 0.5928 -0.0305 0.2827
C2 C 0.7484(14) -0.2649(15) 0.2860(14)
H2 H 0.7974 -0.3086 0.2459
C3 C 0.6621(19) -0.1894(15) 0.2502(8)
H3 H 0.6465 -0.1866 0.1809
C4 C 0.6850(11) -0.2008(11) 0.4393(7)
H4 H 0.6932 -0.2066 0.5055
C5 C 0.8420(10) -0.3537(9) 0.4279(7)
C6 C 0.7567(10) -0.2708(10) 0.3828(9)
N1A N 0.3934(13) 0.1271(12) 0.4057(7)
O1A O 0.0963(6) 0.4181(6) 0.3745(4)
O2A O 0.1497(6) 0.3587(6) 0.5167(4)
C1A C 0.384(2) 0.104(2) 0.3089(15)
H1A H 0.4072 0.0305 0.2827
C2A C 0.2516(14) 0.2649(15) 0.2860(14)
H2A H 0.2026 0.3086 0.2459
C3A C 0.3379(19) 0.1894(15) 0.2502(8)
H3A H 0.3535 0.1866 0.1809
C4A C 0.3150(11) 0.2008(11) 0.4393(7)
H4A H 0.3068 0.2066 0.5055
C5A C 0.1580(10) 0.3537(9) 0.4279(7)
C6A C 0.2433(10) 0.2708(10) 0.3828(9)
N1B N 0.3934(13) -0.1271(12) 0.5943(7)
O1B O 0.0963(6) -0.4181(6) 0.6255(4)
O2B O 0.1497(6) -0.3587(6) 0.4833(4)
C1B C 0.384(2) -0.104(2) 0.6911(15)
H1B H 0.4072 -0.0305 0.7173
C2B C 0.2516(14) -0.2649(15) 0.7140(14)
H2B H 0.2026 -0.3086 0.7541
C3B C 0.3379(19) -0.1894(15) 0.7498(8)
H3B H 0.3535 -0.1866 0.8191
C4B C 0.3150(11) -0.2008(11) 0.5607(7)
H4B H 0.3068 -0.2066 0.4945
C5B C 0.1580(10) -0.3537(9) 0.5721(7)
C6B C 0.2433(10) -0.2708(10) 0.6172(9)
N1C N 0.6066(13) 0.1271(12) 0.5943(7)
O1C O 0.9037(6) 0.4181(6) 0.6255(4)
O2C O 0.8503(6) 0.3587(6) 0.4833(4)
C1C C 0.616(2) 0.104(2) 0.6911(15)
H1C H 0.5928 0.0305 0.7173
C2C C 0.7484(14) 0.2649(15) 0.7140(14)
H2C H 0.7974 0.3086 0.7541
C3C C 0.6621(19) 0.1894(15) 0.7498(8)
H3C H 0.6465 0.1866 0.8191
C4C C 0.6850(11) 0.2008(11) 0.5607(7)
H4C H 0.6932 0.2066 0.4945
C5C C 0.8420(10) 0.3537(9) 0.5721(7)
C6C C 0.7567(10) 0.2708(10) 0.6172(9)
In1_2 In 0.0000 -0.5000 0.5000
In1_3 In -0.0000 0.5000 0.5000
In1_4 In 1.0000 0.5000 0.5000
O1A_2 O 1.0963(6) -0.5819(6) 0.3745(4)
O1B_2 O 1.0963(6) -0.4181(6) 0.6255(4)
O1C_2 O 0.9037(6) -0.5819(6) 0.6255(4)
O2A_2 O 1.1497(6) -0.6413(6) 0.5167(4)
O2B_2 O 1.1497(6) -0.3587(6) 0.4833(4)
O2C_2 O 0.8503(6) -0.6413(6) 0.4833(4)
loop_
_geom_bond_atom_site_label_1
_geom_bond_atom_site_label_2
_geom_bond_site_symmetry_1
_geom_bond_site_symmetry_2
Ag1 N1 1_555 1_555
In1 O1 1_555 1_555
N1 C1 1_555 1_555
O1 C5 1_555 1_555
O2 In1 1_555 1_555
C1 H1 1_555 1_555
C2 H2 1_555 1_555
C3 C1 1_555 1_555
H3 C3 1_555 1_555
C4 N1 1_555 1_555
H4 C4 1_555 1_555
C5 O2 1_555 1_555
C6 C2 1_555 1_555
N1A Ag1 1_555 1_555
O1A C5A 1_555 1_555
O2A C5A 1_555 1_555
C1A N1A 1_555 1_555
H1A C1A 1_555 1_555
C2A H2A 1_555 1_555
C3A C1A 1_555 1_555
H3A C3A 1_555 1_555
C4A N1A 1_555 1_555
H4A C4A 1_555 1_555
C5A C6A 1_555 1_555
C6A C2A 1_555 1_555
N1B Ag1 1_555 1_555
O1B C5B 1_555 1_555
O2B C5B 1_555 1_555
C1B N1B 1_555 1_555
H1B C1B 1_555 1_555
C2B H2B 1_555 1_555
C3B C1B 1_555 1_555
H3B C3B 1_555 1_555
C4B N1B 1_555 1_555
H4B C4B 1_555 1_555
C5B C6B 1_555 1_555
C6B C2B 1_555 1_555
N1C Ag1 1_555 1_555
O1C C5C 1_555 1_555
O2C C5C 1_555 1_555
C1C N1C 1_555 1_555
H1C C1C 1_555 1_555
C2C H2C 1_555 1_555
C3C C1C 1_555 1_555
H3C C3C 1_555 1_555
C4C N1C 1_555 1_555
H4C C4C 1_555 1_555
C5C C6C 1_555 1_555
C6C C2C 1_555 1_555
In1_2 O1B 1_555 1_555
In1_3 O1A 1_555 1_555
In1_4 O1C 1_555 1_555
O1A_2 In1 1_555 1_555
O1B_2 In1 1_555 1_555
O1C_2 In1 1_555 1_555
O2A_2 In1 1_555 1_555
O2B_2 In1 1_555 1_555
O2C_2 In1 1_555 1_555
C2 C3 1_555 1_555
C4 C6 1_555 1_555
C5 C6 1_555 1_555
O2A In1_3 1_555 1_555
C2A C3A 1_555 1_555
C4A C6A 1_555 1_555
O2B In1_2 1_555 1_555
C2B C3B 1_555 1_555
C4B C6B 1_555 1_555
O2C In1_4 1_555 1_555
C2C C3C 1_555 1_555
C4C C6C 1_555 1_555

#END
