
#######################################################################
#
#                 Cambridge Crystallographic Data Centre
#                                CCDC 
#
#######################################################################
#
# If this CIF has been generated from an entry in the Cambridge 
# Structural Database, then it will include bibliographic, chemical, 
# crystal, experimental, refinement or atomic coordinate data resulting 
# from the CCDC's data processing and validation procedures.
#
#######################################################################

data_NUYNEC
_chemical_formula_moiety         '(C54 H78 N2 O34 Ti6)n'
_symmetry_cell_setting           trigonal
_symmetry_space_group_name_H-M   'P 3'
_symmetry_Int_Tables_number      143
_space_group_name_Hall           'P 3'
loop_
_symmetry_equiv_pos_site_id
_symmetry_equiv_pos_as_xyz
1 x,y,z
2 -x+y,-x,z
3 -y,x-y,z
_cell_length_a                   12.6539(13)
_cell_length_b                   12.6539(13)
_cell_length_c                   15.1151(15)
_cell_angle_alpha                90
_cell_angle_beta                 90
_cell_angle_gamma                120
_cell_volume                     2096
loop_
_atom_site_label
_atom_site_type_symbol
_atom_site_fract_x
_atom_site_fract_y
_atom_site_fract_z
Ti1 Ti 0.52750(69) 0.21230(67) 0.35853(73)
Ti2 Ti 0.49026(61) 0.75639(59) 0.81731(79)
O1 O 0.37582(92) 0.0984(17) 0.32235(87)
O2 O 0.64794(67) 0.8246(12) 0.78837(78)
O3 O 0.43225(66) 0.6887(10) 0.70891(38)
O4 O 0.48479(90) 0.31651(93) 0.41903(53)
O5 O 0.6132(11) 0.48320(97) 0.46866(76)
O6 O 0.49798(79) 0.62502(78) -0.13943(54)
O7 O 0.56028(48) 0.3181(11) 0.25412(51)
O8 O 0.3319(11) 0.49407(94) -0.07892(63)
O9 O 0.52705(54) 0.41053(78) 0.32778(39)
O10 O 0.39440(66) 0.50384(63) 0.76780(42)
C1 C 0.5030(13) 0.3962(16) 0.47915(69)
C2 C 0.4374(11) 0.5961(12) 0.72361(48)
C3 C 0.402540 0.419998 0.520763
C4 C 0.540318 0.603315 0.666220
C5 C 0.412182 0.547521 0.522544
C6 C 0.537807 0.481417 0.655615
C7 C 0.521835 0.646149 0.575134
C8 C 0.420503 0.384477 0.612243
C9 C 0.494773 0.433942 -0.001165
C10 C 0.470501 0.412380 0.161831
C11 C 0.537236 0.400067 0.081858
C12 C 0.498139 0.543576 0.171934
C13 C 0.477101 0.595942 0.089163
C14 C 0.524665 0.566158 0.005617
C15 C 0.44351(83) 0.56912(89) -0.06998(58)
C16 C 0.51332(57) 0.38860(99) 0.24951(79)
O11 O 0.666667 0.333333 0.40397(81)
O12 O 0.333333 0.666667 0.84779(83)
Ti1A Ti -0.31520(96) 0.47250(69) 0.35853(73)
Ti2A Ti 0.26613(85) 0.50974(61) 0.81731(79)
O1A O -0.2774(19) 0.62418(92) 0.32235(87)
O2A O 0.1767(14) 0.35206(67) 0.78837(78)
O3A O 0.2564(12) 0.56775(66) 0.70891(38)
O4A O -0.1683(13) 0.51521(90) 0.41903(53)
O5A O -0.1300(15) 0.3868(11) 0.46866(76)
O6A O 0.1270(11) 0.50202(79) -0.13943(54)
O7A O -0.2422(12) 0.43972(48) 0.25412(51)
O8A O 0.1622(15) 0.6681(11) -0.07892(63)
O9A O -0.11652(95) 0.47295(54) 0.32778(39)
O10A O 0.10944(91) 0.60560(66) 0.76780(42)
C1A C -0.1068(21) 0.4970(13) 0.47915(69)
C2A C 0.1587(16) 0.5626(11) 0.72361(48)
C3A C 0.017458 0.597460 0.520763
C4A C 0.062997 0.459682 0.666220
C5A C 0.135339 0.587818 0.522544
C6A C -0.056390 0.462193 0.655615
C7A C 0.124314 0.478165 0.575134
C8A C -0.036026 0.579497 0.612243
C9A C -0.060831 0.505227 -0.001165
C10A C -0.058121 0.529499 0.161831
C11A C -0.137169 0.462764 0.081858
C12A C 0.045437 0.501861 0.171934
C13A C 0.118841 0.522899 0.089163
C14A C 0.041493 0.475335 0.005617
C15A C 0.1256(12) 0.55649(83) -0.06998(58)
C16A C -0.1247(11) 0.48668(57) 0.24951(79)
Ti1B Ti 0.78770(67) 0.31520(96) 0.35853(73)
Ti2B Ti 0.24361(59) -0.26613(85) 0.81731(79)
O1B O 0.9016(17) 0.2774(19) 0.32235(87)
O2B O 0.1754(12) -0.1767(14) 0.78837(78)
O3B O 0.3113(10) -0.2564(12) 0.70891(38)
O4B O 0.68349(93) 0.1683(13) 0.41903(53)
O5B O 0.51680(97) 0.1300(15) 0.46866(76)
O6B O 0.37498(78) -0.1270(11) -0.13943(54)
O7B O 0.6819(11) 0.2422(12) 0.25412(51)
O8B O 0.50593(94) -0.1622(15) -0.07892(63)
O9B O 0.58947(78) 0.11652(95) 0.32778(39)
O10B O 0.49616(63) -0.10944(91) 0.76780(42)
C1B C 0.6038(16) 0.1068(21) 0.47915(69)
C2B C 0.4039(12) -0.1587(16) 0.72361(48)
C3B C 0.580002 -0.017458 0.520763
C4B C 0.396685 -0.062997 0.666220
C5B C 0.452479 -0.135339 0.522544
C6B C 0.518583 0.056390 0.655615
C7B C 0.353851 -0.124314 0.575134
C8B C 0.615523 0.036026 0.612243
C9B C 0.566058 0.060831 -0.001165
C10B C 0.587620 0.058121 0.161831
C11B C 0.599933 0.137169 0.081858
C12B C 0.456424 -0.045437 0.171934
C13B C 0.404058 -0.118841 0.089163
C14B C 0.433842 -0.041493 0.005617
C15B C 0.43088(89) -0.1256(12) -0.06998(58)
C16B C 0.61140(99) 0.1247(11) 0.24951(79)
Ti1A_2 Ti 0.68480(96) 0.47250(69) 0.35853(73)
Ti1B_2 Ti -0.21230(67) 0.31520(96) 0.35853(73)
Ti2A_2 Ti 0.26613(85) 0.50974(61) -0.18269(79)
Ti2B_2 Ti 0.24361(59) -0.26613(85) -0.18269(79)
Ti2B_3 Ti 0.24361(59) 0.73387(85) -0.18269(79)
Ti2B_4 Ti 0.24361(59) 0.73387(85) 0.81731(79)
Ti2_2 Ti 0.49026(61) -0.24361(59) -0.18269(79)
Ti2_3 Ti 0.49026(61) -0.24361(59) 0.81731(79)
Ti2_4 Ti 0.49026(61) 0.75639(59) -0.18269(79)
O5A_2 O 0.8700(15) 0.3868(11) 0.46866(76)
O5_2 O -0.3868(11) 0.48320(97) 0.46866(76)
O6A_2 O 0.1270(11) 0.50202(79) 0.86057(54)
O6B_2 O 0.37498(78) -0.1270(11) 0.86057(54)
O6_2 O 0.49798(79) 0.62502(78) 0.86057(54)
O8A_2 O 0.1622(15) -0.3319(11) 0.92108(63)
O8B_2 O 0.50593(94) 0.8378(15) 0.92108(63)
O8_2 O 0.3319(11) 0.49407(94) 0.92108(63)
O9A_2 O 0.88348(95) 0.47295(54) 0.32778(39)
O9_2 O -0.47295(54) 0.41053(78) 0.32778(39)
O10A_2 O 0.10944(91) -0.39440(66) 0.76780(42)
O10B_2 O 0.49616(63) 0.89056(91) 0.76780(42)
O11A O -0.333334 0.333333 0.40397(81)
O12A O 0.333334 -0.333333 0.84779(83)
O13 O 0.539199 0.292819 0.735704
C17 C 0.502871 0.255786 0.656916
N1 N 0.399256 0.145653 0.642095
C18 C 0.343791 0.113070 0.554199
C19 C 0.342174 0.057006 0.712600
O14 O 0.229511 0.390943 1.035207
C20 C 0.191023 0.389476 1.1129
N2 N 0.067895 0.319030 1.128944
C21 C 0.022622 0.294543 1.219522
C22 C -0.022429 0.267630 1.058322
loop_
_geom_bond_atom_site_label_1
_geom_bond_atom_site_label_2
_geom_bond_site_symmetry_1
_geom_bond_site_symmetry_2
Ti1 O1 1_555 1_555
Ti2 O2 1_555 1_555
O3 Ti2 1_555 1_555
O4 Ti1 1_555 1_555
O5 C1 1_555 1_555
O6 C15 1_555 1_555
O7 Ti1 1_555 1_555
O8 C15 1_555 1_555
O9 C16 1_555 1_555
O10 C2 1_555 1_555
C1 O4 1_555 1_555
C2 O3 1_555 1_555
C3 C1 1_555 1_555
C4 C2 1_555 1_555
C5 C3 1_555 1_555
C6 C4 1_555 1_555
C7 C4 1_555 1_555
C8 C3 1_555 1_555
C9 C11 1_555 1_555
C10 C11 1_555 1_555
C12 C10 1_555 1_555
C13 C12 1_555 1_555
C14 C9 1_555 1_555
C15 C14 1_555 1_555
C16 O7 1_555 1_555
O11 Ti1 1_555 1_555
O12 Ti2 1_555 1_555
O13 C17 1_555 1_555
C17 N1 1_555 1_555
N1 C18 1_555 1_555
C19 N1 1_555 1_555
O14 C20 1_555 1_555
C20 N2 1_555 1_555
N2 C21 1_555 1_555
C22 N2 1_555 1_555
Ti1A O1A 1_555 1_555
Ti2A O10 1_555 1_555
O2A Ti2A 1_555 1_555
O3A Ti2A 1_555 1_555
O4A Ti1A 1_555 1_555
O5A C1A 1_555 1_555
O6A C15A 1_555 1_555
O7A Ti1A 1_555 1_555
O8A C15A 1_555 1_555
O9A C16A 1_555 1_555
O10A C2A 1_555 1_555
C1A O4A 1_555 1_555
C2A O3A 1_555 1_555
C3A C1A 1_555 1_555
C4A C2A 1_555 1_555
C5A C3A 1_555 1_555
C6A C4A 1_555 1_555
C7A C4A 1_555 1_555
C8A C3A 1_555 1_555
C9A C11A 1_555 1_555
C10A C11A 1_555 1_555
C12A C10A 1_555 1_555
C13A C12A 1_555 1_555
C14A C9A 1_555 1_555
C15A C14A 1_555 1_555
C16A O7A 1_555 1_555
Ti1B O11 1_555 1_555
Ti2B O2B 1_555 1_555
O1B Ti1B 1_555 1_555
O3B Ti2B 1_555 1_555
O4B Ti1B 1_555 1_555
O5B Ti1 1_555 1_555
O6B C15B 1_555 1_555
O7B Ti1B 1_555 1_555
O8B C15B 1_555 1_555
O9B Ti1 1_555 1_555
O10B C2B 1_555 1_555
C1B O4B 1_555 1_555
C2B O3B 1_555 1_555
C3B C1B 1_555 1_555
C4B C2B 1_555 1_555
C5B C3B 1_555 1_555
C6B C4B 1_555 1_555
C7B C4B 1_555 1_555
C8B C3B 1_555 1_555
C9B C11B 1_555 1_555
C10B C11B 1_555 1_555
C12B C10B 1_555 1_555
C13B C12B 1_555 1_555
C14B C9B 1_555 1_555
C15B C14B 1_555 1_555
C16B O7B 1_555 1_555
Ti1A_2 O5 1_555 1_555
Ti1B_2 O5A 1_555 1_555
Ti2A_2 O8 1_555 1_555
Ti2B_2 O6B 1_555 1_555
Ti2B_3 O8A 1_555 1_555
Ti2B_4 O12 1_555 1_555
Ti2_2 O8B 1_555 1_555
Ti2_3 O10B 1_555 1_555
Ti2_4 O6 1_555 1_555
O5A_2 Ti1B 1_555 1_555
O5_2 Ti1A 1_555 1_555
O6A_2 Ti2A 1_555 1_555
O6B_2 Ti2B 1_555 1_555
O6_2 Ti2 1_555 1_555
O8A_2 Ti2B 1_555 1_555
O8B_2 Ti2 1_555 1_555
O8_2 Ti2A 1_555 1_555
O9A_2 Ti1B 1_555 1_555
O9_2 Ti1A 1_555 1_555
O10A_2 Ti2B 1_555 1_555
O10B_2 Ti2 1_555 1_555
O11A Ti1A 1_555 1_555
O12A Ti2B 1_555 1_555
O9 Ti1A_2 1_555 1_555
C5 C7 1_555 1_555
C6 C8 1_555 1_555
C10 C16 1_555 1_555
C13 C14 1_555 1_555
O11 Ti1A_2 1_555 1_555
O12 Ti2A 1_555 1_555
O6A Ti2A_2 1_555 1_555
O9A Ti1B_2 1_555 1_555
O10A Ti2B_4 1_555 1_555
C5A C7A 1_555 1_555
C6A C8A 1_555 1_555
C10A C16A 1_555 1_555
C13A C14A 1_555 1_555
O5B C1B 1_555 1_555
O9B C16B 1_555 1_555
C5B C7B 1_555 1_555
C6B C8B 1_555 1_555
C10B C16B 1_555 1_555
C13B C14B 1_555 1_555
Ti1B_2 O11A 1_555 1_555
Ti2_3 O12A 1_555 1_555

#END
