
#######################################################################
#
#                 Cambridge Crystallographic Data Centre
#                                CCDC 
#
#######################################################################
#
# If this CIF has been generated from an entry in the Cambridge 
# Structural Database, then it will include bibliographic, chemical, 
# crystal, experimental, refinement or atomic coordinate data resulting 
# from the CCDC's data processing and validation procedures.
#
#######################################################################

data_UXIRUP
_chemical_formula_moiety         'C276 H120 Co56 N24 O191'
_symmetry_cell_setting           cubic
_symmetry_space_group_name_H-M   'F m -3'
_symmetry_Int_Tables_number      202
_space_group_name_Hall           '-F 2 2 3'
loop_
_symmetry_equiv_pos_site_id
_symmetry_equiv_pos_as_xyz
1 x,y,z
2 -x,-y,z
3 -x,y,-z
4 x,-y,-z
5 z,x,y
6 z,-x,-y
7 -z,-x,y
8 -z,x,-y
9 y,z,x
10 -y,z,-x
11 y,-z,-x
12 -y,-z,x
13 x,1/2+y,1/2+z
14 -x,1/2-y,1/2+z
15 -x,1/2+y,1/2-z
16 x,1/2-y,1/2-z
17 z,1/2+x,1/2+y
18 z,1/2-x,1/2-y
19 -z,1/2-x,1/2+y
20 -z,1/2+x,1/2-y
21 y,1/2+z,1/2+x
22 -y,1/2+z,1/2-x
23 y,1/2-z,1/2-x
24 -y,1/2-z,1/2+x
25 1/2+x,y,1/2+z
26 1/2-x,-y,1/2+z
27 1/2-x,y,1/2-z
28 1/2+x,-y,1/2-z
29 1/2+z,x,1/2+y
30 1/2+z,-x,1/2-y
31 1/2-z,-x,1/2+y
32 1/2-z,x,1/2-y
33 1/2+y,z,1/2+x
34 1/2-y,z,1/2-x
35 1/2+y,-z,1/2-x
36 1/2-y,-z,1/2+x
37 1/2+x,1/2+y,z
38 1/2-x,1/2-y,z
39 1/2-x,1/2+y,-z
40 1/2+x,1/2-y,-z
41 1/2+z,1/2+x,y
42 1/2+z,1/2-x,-y
43 1/2-z,1/2-x,y
44 1/2-z,1/2+x,-y
45 1/2+y,1/2+z,x
46 1/2-y,1/2+z,-x
47 1/2+y,1/2-z,-x
48 1/2-y,1/2-z,x
49 -x,-y,-z
50 x,y,-z
51 x,-y,z
52 -x,y,z
53 -z,-x,-y
54 -z,x,y
55 z,x,-y
56 z,-x,y
57 -y,-z,-x
58 y,-z,x
59 -y,z,x
60 y,z,-x
61 -x,1/2-y,1/2-z
62 x,1/2+y,1/2-z
63 x,1/2-y,1/2+z
64 -x,1/2+y,1/2+z
65 -z,1/2-x,1/2-y
66 -z,1/2+x,1/2+y
67 z,1/2+x,1/2-y
68 z,1/2-x,1/2+y
69 -y,1/2-z,1/2-x
70 y,1/2-z,1/2+x
71 -y,1/2+z,1/2+x
72 y,1/2+z,1/2-x
73 1/2-x,-y,1/2-z
74 1/2+x,y,1/2-z
75 1/2+x,-y,1/2+z
76 1/2-x,y,1/2+z
77 1/2-z,-x,1/2-y
78 1/2-z,x,1/2+y
79 1/2+z,x,1/2-y
80 1/2+z,-x,1/2+y
81 1/2-y,-z,1/2-x
82 1/2+y,-z,1/2+x
83 1/2-y,z,1/2+x
84 1/2+y,z,1/2-x
85 1/2-x,1/2-y,-z
86 1/2+x,1/2+y,-z
87 1/2+x,1/2-y,z
88 1/2-x,1/2+y,z
89 1/2-z,1/2-x,-y
90 1/2-z,1/2+x,y
91 1/2+z,1/2+x,-y
92 1/2+z,1/2-x,y
93 1/2-y,1/2-z,-x
94 1/2+y,1/2-z,x
95 1/2-y,1/2+z,x
96 1/2+y,1/2+z,-x
_cell_length_a                   42.3067(7)
_cell_length_b                   42.3067(7)
_cell_length_c                   42.3067(7)
_cell_angle_alpha                90
_cell_angle_beta                 90
_cell_angle_gamma                90
_cell_volume                     75722.9
loop_
_atom_site_label
_atom_site_type_symbol
_atom_site_fract_x
_atom_site_fract_y
_atom_site_fract_z
_atom_site_U_iso_or_equiv
_atom_site_thermal_displace_type
Co1 Co -0.0000 0.18723(4) 0.17448(3) 0.0477 Uani
Co2 Co 0.0000 0.13834(3) 0.12685(3) 0.0497 Uani
O1 O 0.03318(15) 0.12382(16) 0.15869(16) 0.0823 Uani
O2 O 0.03379(14) 0.16060(15) 0.19598(16) 0.0747 Uani
O3 O 0.1409(4) 0.0854(3) 0.2945(3) 0.2373 Uani
O4 O 0.14350(14) 0.03337(16) 0.20195(16) 0.0773 Uani
O5 O 0.10607(15) 0.03432(14) 0.16435(15) 0.0780 Uani
O6 O -0.0000 0.0995(3) 0.0983(3) 0.1520 Uani
O7 O -0.0000 0.2293(3) 0.2003(3) 0.1440 Uani
C1 C 0.1193(2) 0.0444(2) 0.1888(2) 0.0637 Uani
C2 C 0.04309(19) 0.1360(2) 0.1838(2) 0.0643 Uani
C3 C 0.0682(2) 0.1173(2) 0.20085(19) 0.0650 Uani
C4 C 0.0803(2) 0.0895(2) 0.1879(2) 0.0610 Uani
H1 H 0.0722 0.0817 0.1690 0.0730 Uiso
C5 C 0.10478(19) 0.07355(19) 0.2035(2) 0.0613 Uani
C6 C 0.1164(2) 0.0851(2) 0.2322(2) 0.0713 Uani
H2 H 0.1326 0.0745 0.2426 0.0860 Uiso
C7 C 0.1039(2) 0.1119(2) 0.2447(2) 0.0743 Uani
C8 C 0.0807(2) 0.1288(2) 0.2289(2) 0.0773 Uani
H3 H 0.0735 0.1479 0.2372 0.0920 Uiso
N1 N 0.1159(2) 0.1251(2) 0.2733(2) 0.1097 Uani
H4 H 0.1113 0.1447 0.2763 0.1320 Uiso
C9 C 0.1329(4) 0.1119(4) 0.2961(4) 0.1573 Uani
C10 C 0.1412(3) 0.1337(3) 0.3226(3) 0.1140 Uani
C11 C 0.1243(3) 0.1601(4) 0.3338(3) 0.1353 Uani
H5 H 0.1057 0.1658 0.3234 0.1630 Uiso
C12 C -0.0000 0.2479(16) 0.1872(15) 0.1700 Uiso
Co1V Co 0.18723(4) 0.32552(3) 0.5000 0.0477 Uani
Co1EA Co 0.32552(3) 0.0000 0.31277(4) 0.0477 Uani
Co1H Co 0.18723(4) 0.17448(3) 0.0000 0.0477 Uani
Co1PA Co 0.32552(3) 0.5000 0.18723(4) 0.0477 Uani
Co1O Co 0.0000 0.31277(4) 0.32552(3) 0.0477 Uani
Co1W Co -0.18723(4) 0.32552(3) 0.5000 0.0477 Uani
Co1CA Co -0.32552(3) 0.0000 0.31277(4) 0.0477 Uani
Co1I Co -0.18723(4) 0.17448(3) 0.0000 0.0477 Uani
Co1NA Co -0.32552(3) 0.5000 0.18723(4) 0.0477 Uani
Co1D Co 0.17448(3) -0.0000 0.18723(4) 0.0477 Uani
Co1GA Co 0.31277(4) 0.17448(3) 0.5000 0.0477 Uani
Co1UA Co 0.31277(4) 0.32552(3) 0.0000 0.0477 Uani
Co1Q Co 0.17448(3) 0.5000 0.31277(4) 0.0477 Uani
Co1F Co -0.17448(3) -0.0000 0.18723(4) 0.0477 Uani
Co1FA Co -0.31277(4) 0.17448(3) 0.5000 0.0477 Uani
Co1TA Co -0.31277(4) 0.32552(3) 0.0000 0.0477 Uani
Co1S Co -0.17448(3) 0.5000 0.31277(4) 0.0477 Uani
Co1KA Co 0.5000 0.31277(4) 0.17448(3) 0.0477 Uani
Co1Z Co 0.5000 0.18723(4) 0.32552(3) 0.0477 Uani
Co1M Co 0.0000 0.31277(4) 0.67448(3) 0.0477 Uani
Co1DA Co 0.32552(3) 0.0000 0.68723(4) 0.0477 Uani
Co1E Co 0.17448(3) 0.0000 0.81277(4) 0.0477 Uani
Co1B Co -0.0000 0.18723(4) 0.82552(3) 0.0477 Uani
Co1P Co 0.17448(3) 0.5000 0.68723(4) 0.0477 Uani
Co1QA Co 0.32552(3) 0.5000 0.81277(4) 0.0477 Uani
Co1MA Co 0.5000 0.31277(4) 0.82552(3) 0.0477 Uani
Co1X Co 0.5000 0.18723(4) 0.67448(3) 0.0477 Uani
Co2V Co 0.13834(3) 0.37315(3) 0.5000 0.0497 Uani
Co2EA Co 0.37315(3) 0.0000 0.36166(3) 0.0497 Uani
Co2H Co 0.13834(3) 0.12685(3) 0.0000 0.0497 Uani
Co2PA Co 0.37315(3) 0.5000 0.13834(3) 0.0497 Uani
Co2O Co 0.0000 0.36166(3) 0.37315(3) 0.0497 Uani
Co2W Co -0.13834(3) 0.37315(3) 0.5000 0.0497 Uani
Co2CA Co -0.37315(3) 0.0000 0.36166(3) 0.0497 Uani
Co2I Co -0.13834(3) 0.12685(3) 0.0000 0.0497 Uani
Co2NA Co -0.37315(3) 0.5000 0.13834(3) 0.0497 Uani
Co2D Co 0.12685(3) 0.0000 0.13834(3) 0.0497 Uani
Co2GA Co 0.36166(3) 0.12685(3) 0.5000 0.0497 Uani
Co2UA Co 0.36166(3) 0.37315(3) 0.0000 0.0497 Uani
Co2Q Co 0.12685(3) 0.5000 0.36166(3) 0.0497 Uani
Co2F Co -0.12685(3) 0.0000 0.13834(3) 0.0497 Uani
Co2FA Co -0.36166(3) 0.12685(3) 0.5000 0.0497 Uani
Co2TA Co -0.36166(3) 0.37315(3) 0.0000 0.0497 Uani
Co2S Co -0.12685(3) 0.5000 0.36166(3) 0.0497 Uani
Co2KA Co 0.5000 0.36166(3) 0.12685(3) 0.0497 Uani
Co2Z Co 0.5000 0.13834(3) 0.37315(3) 0.0497 Uani
Co2M Co 0.0000 0.36166(3) 0.62685(3) 0.0497 Uani
Co2DA Co 0.37315(3) 0.0000 0.63834(3) 0.0497 Uani
Co2E Co 0.12685(3) -0.0000 0.86166(3) 0.0497 Uani
Co2B Co 0.0000 0.13834(3) 0.87315(3) 0.0497 Uani
Co2P Co 0.12685(3) 0.5000 0.63834(3) 0.0497 Uani
Co2QA Co 0.37315(3) 0.5000 0.86166(3) 0.0497 Uani
Co2MA Co 0.5000 0.36166(3) 0.87315(3) 0.0497 Uani
Co2X Co 0.5000 0.13834(3) 0.62685(3) 0.0497 Uani
O1V O 0.12382(16) 0.34131(16) 0.46682(15) 0.0823 Uani
O1EA O 0.34131(16) 0.03318(15) 0.37618(16) 0.0823 Uani
O1H O 0.12382(16) 0.15869(16) 0.03318(15) 0.0823 Uani
O1PA O 0.34131(16) 0.46682(15) 0.12382(16) 0.0823 Uani
O1O O 0.03318(15) 0.37618(16) 0.34131(16) 0.0823 Uani
O1YA O -0.03318(15) 0.12382(16) 0.15869(16) 0.0823 Uani
O1PB O -0.12382(16) 0.34131(16) 0.46682(15) 0.0823 Uani
O1ZB O -0.34131(16) 0.03318(15) 0.37618(16) 0.0823 Uani
O1FB O -0.12382(16) 0.15869(16) 0.03318(15) 0.0823 Uani
O1MC O -0.34131(16) 0.46682(15) 0.12382(16) 0.0823 Uani
O1HB O -0.03318(15) 0.37618(16) 0.34131(16) 0.0823 Uani
O1Q O 0.15869(16) 0.46682(15) 0.37618(16) 0.0823 Uani
O1KA O 0.46682(15) 0.37618(16) 0.15869(16) 0.0823 Uani
O1GA O 0.37618(16) 0.15869(16) 0.46682(15) 0.0823 Uani
O1QB O 0.12382(16) 0.34131(16) 0.53318(15) 0.0823 Uani
O1YB O 0.34131(16) 0.03318(15) 0.62382(16) 0.0823 Uani
O1WA O 0.03318(15) 0.12382(16) 0.84131(16) 0.0823 Uani
O1OB O 0.15869(16) 0.46682(15) 0.62382(16) 0.0823 Uani
O1FC O 0.46682(15) 0.37618(16) 0.84131(16) 0.0823 Uani
O1DC O 0.37618(16) 0.15869(16) 0.53318(15) 0.0823 Uani
O1Z O 0.46682(15) 0.12382(16) 0.34131(16) 0.0823 Uani
O1UA O 0.37618(16) 0.34131(16) 0.03318(15) 0.0823 Uani
O1D O 0.15869(16) 0.03318(15) 0.12382(16) 0.0823 Uani
O1XB O 0.34131(16) -0.03318(15) 0.37618(16) 0.0823 Uani
O1GB O 0.12382(16) 0.15869(16) -0.03318(15) 0.0823 Uani
O1KC O 0.34131(16) 0.53318(15) 0.12382(16) 0.0823 Uani
O1W O -0.12382(16) 0.34131(16) 0.53318(15) 0.0823 Uani
O1CA O -0.34131(16) -0.03318(15) 0.37618(16) 0.0823 Uani
O1I O -0.12382(16) 0.15869(16) -0.03318(15) 0.0823 Uani
O1NA O -0.34131(16) 0.53318(15) 0.12382(16) 0.0823 Uani
O1CB O 0.15869(16) -0.03318(15) 0.12382(16) 0.0823 Uani
O2V O 0.16060(15) 0.30402(16) 0.46621(14) 0.0747 Uani
O2EA O 0.30402(16) 0.03379(14) 0.33940(15) 0.0747 Uani
O2H O 0.16060(15) 0.19598(16) 0.03379(14) 0.0747 Uani
O2PA O 0.30402(16) 0.46621(14) 0.16060(15) 0.0747 Uani
O2O O 0.03379(14) 0.33940(15) 0.30402(16) 0.0747 Uani
O2YA O -0.03379(14) 0.16060(15) 0.19598(16) 0.0747 Uani
O2PB O -0.16060(15) 0.30402(16) 0.46621(14) 0.0747 Uani
O2ZB O -0.30402(16) 0.03379(14) 0.33940(15) 0.0747 Uani
O2FB O -0.16060(15) 0.19598(16) 0.03379(14) 0.0747 Uani
O2MC O -0.30402(16) 0.46621(14) 0.16060(15) 0.0747 Uani
O2HB O -0.03379(14) 0.33940(15) 0.30402(16) 0.0747 Uani
O2Q O 0.19598(16) 0.46621(14) 0.33940(15) 0.0747 Uani
O2KA O 0.46621(14) 0.33940(15) 0.19598(16) 0.0747 Uani
O2GA O 0.33940(15) 0.19598(16) 0.46621(14) 0.0747 Uani
O2QB O 0.16060(15) 0.30402(16) 0.53379(14) 0.0747 Uani
O2YB O 0.30402(16) 0.03379(14) 0.66060(15) 0.0747 Uani
O2WA O 0.03379(14) 0.16060(15) 0.80402(16) 0.0747 Uani
O2OB O 0.19598(16) 0.46621(14) 0.66060(15) 0.0747 Uani
O2FC O 0.46621(14) 0.33940(15) 0.80402(16) 0.0747 Uani
O2DC O 0.33940(15) 0.19598(16) 0.53379(14) 0.0747 Uani
O2Z O 0.46621(14) 0.16060(15) 0.30402(16) 0.0747 Uani
O2UA O 0.33940(15) 0.30402(16) 0.03379(14) 0.0747 Uani
O2D O 0.19598(16) 0.03379(14) 0.16060(15) 0.0747 Uani
O2XB O 0.30402(16) -0.03379(14) 0.33940(15) 0.0747 Uani
O2GB O 0.16060(15) 0.19598(16) -0.03379(14) 0.0747 Uani
O2KC O 0.30402(16) 0.53379(14) 0.16060(15) 0.0747 Uani
O2W O -0.16060(15) 0.30402(16) 0.53379(14) 0.0747 Uani
O2CA O -0.30402(16) -0.03379(14) 0.33940(15) 0.0747 Uani
O2I O -0.16060(15) 0.19598(16) -0.03379(14) 0.0747 Uani
O2NA O -0.30402(16) 0.53379(14) 0.16060(15) 0.0747 Uani
O2CB O 0.19598(16) -0.03379(14) 0.16060(15) 0.0747 Uani
O3V O 0.0854(3) 0.2055(3) 0.3591(4) 0.2373 Uani
O3EA O 0.2055(3) 0.1409(4) 0.4146(3) 0.2373 Uani
O3H O 0.0854(3) 0.2945(3) 0.1409(4) 0.2373 Uani
O3PA O 0.2055(3) 0.3591(4) 0.0854(3) 0.2373 Uani
O3O O 0.1409(4) 0.4146(3) 0.2055(3) 0.2373 Uani
O3YA O -0.1409(4) 0.0854(3) 0.2945(3) 0.2373 Uani
O3PB O -0.0854(3) 0.2055(3) 0.3591(4) 0.2373 Uani
O3ZB O -0.2055(3) 0.1409(4) 0.4146(3) 0.2373 Uani
O3FB O -0.0854(3) 0.2945(3) 0.1409(4) 0.2373 Uani
O3MC O -0.2055(3) 0.3591(4) 0.0854(3) 0.2373 Uani
O3HB O -0.1409(4) 0.4146(3) 0.2055(3) 0.2373 Uani
O3Q O 0.2945(3) 0.3591(4) 0.4146(3) 0.2373 Uani
O3KA O 0.3591(4) 0.4146(3) 0.2945(3) 0.2373 Uani
O3GA O 0.4146(3) 0.2945(3) 0.3591(4) 0.2373 Uani
O3QB O 0.0854(3) 0.2055(3) 0.6409(4) 0.2373 Uani
O3YB O 0.2055(3) 0.1409(4) 0.5854(3) 0.2373 Uani
O3WA O 0.1409(4) 0.0854(3) 0.7055(3) 0.2373 Uani
O3OB O 0.2945(3) 0.3591(4) 0.5854(3) 0.2373 Uani
O3FC O 0.3591(4) 0.4146(3) 0.7055(3) 0.2373 Uani
O3DC O 0.4146(3) 0.2945(3) 0.6409(4) 0.2373 Uani
O3Z O 0.3591(4) 0.0854(3) 0.2055(3) 0.2373 Uani
O3UA O 0.4146(3) 0.2055(3) 0.1409(4) 0.2373 Uani
O3D O 0.2945(3) 0.1409(4) 0.0854(3) 0.2373 Uani
O4V O 0.03337(16) 0.29805(16) 0.35650(14) 0.0773 Uani
O4EA O 0.29805(16) 0.14350(14) 0.46663(16) 0.0773 Uani
O4H O 0.03337(16) 0.20195(16) 0.14350(14) 0.0773 Uani
O4PA O 0.29805(16) 0.35650(14) 0.03337(16) 0.0773 Uani
O4O O 0.14350(14) 0.46663(16) 0.29805(16) 0.0773 Uani
O4YA O -0.14350(14) 0.03337(16) 0.20195(16) 0.0773 Uani
O4PB O -0.03337(16) 0.29805(16) 0.35650(14) 0.0773 Uani
O4ZB O -0.29805(16) 0.14350(14) 0.46663(16) 0.0773 Uani
O4FB O -0.03337(16) 0.20195(16) 0.14350(14) 0.0773 Uani
O4MC O -0.29805(16) 0.35650(14) 0.03337(16) 0.0773 Uani
O4HB O -0.14350(14) 0.46663(16) 0.29805(16) 0.0773 Uani
O4Q O 0.20195(16) 0.35650(14) 0.46663(16) 0.0773 Uani
O4KA O 0.35650(14) 0.46663(16) 0.20195(16) 0.0773 Uani
O4GA O 0.46663(16) 0.20195(16) 0.35650(14) 0.0773 Uani
O4QB O 0.03337(16) 0.29805(16) 0.64350(14) 0.0773 Uani
O4YB O 0.29805(16) 0.14350(14) 0.53337(16) 0.0773 Uani
O4WA O 0.14350(14) 0.03337(16) 0.79805(16) 0.0773 Uani
O4OB O 0.20195(16) 0.35650(14) 0.53337(16) 0.0773 Uani
O4FC O 0.35650(14) 0.46663(16) 0.79805(16) 0.0773 Uani
O4DC O 0.46663(16) 0.20195(16) 0.64350(14) 0.0773 Uani
O4Z O 0.35650(14) 0.03337(16) 0.29805(16) 0.0773 Uani
O4UA O 0.46663(16) 0.29805(16) 0.14350(14) 0.0773 Uani
O4D O 0.20195(16) 0.14350(14) 0.03337(16) 0.0773 Uani
O4TB O 0.35650(14) -0.03337(16) 0.29805(16) 0.0773 Uani
O4BB O 0.20195(16) 0.14350(14) -0.03337(16) 0.0773 Uani
O4IC O 0.35650(14) 0.53337(16) 0.20195(16) 0.0773 Uani
O4LB O -0.20195(16) 0.35650(14) 0.46663(16) 0.0773 Uani
O4R O -0.20195(16) 0.35650(14) 0.53337(16) 0.0773 Uani
O4UB O -0.35650(14) 0.03337(16) 0.29805(16) 0.0773 Uani
O4AA O -0.35650(14) -0.03337(16) 0.29805(16) 0.0773 Uani
O4AB O -0.20195(16) 0.14350(14) 0.03337(16) 0.0773 Uani
O4G O -0.20195(16) 0.14350(14) -0.03337(16) 0.0773 Uani
O4HC O -0.35650(14) 0.46663(16) 0.20195(16) 0.0773 Uani
O4JA O -0.35650(14) 0.53337(16) 0.20195(16) 0.0773 Uani
O4XA O 0.14350(14) -0.03337(16) 0.20195(16) 0.0773 Uani
O5V O 0.03432(14) 0.33565(15) 0.39393(15) 0.0780 Uani
O5EA O 0.33565(15) 0.10607(15) 0.46568(14) 0.0780 Uani
O5H O 0.03432(14) 0.16435(15) 0.10607(15) 0.0780 Uani
O5PA O 0.33565(15) 0.39393(15) 0.03432(14) 0.0780 Uani
O5O O 0.10607(15) 0.46568(14) 0.33565(15) 0.0780 Uani
O5YA O -0.10607(15) 0.03432(14) 0.16435(15) 0.0780 Uani
O5PB O -0.03432(14) 0.33565(15) 0.39393(15) 0.0780 Uani
O5ZB O -0.33565(15) 0.10607(15) 0.46568(14) 0.0780 Uani
O5FB O -0.03432(14) 0.16435(15) 0.10607(15) 0.0780 Uani
O5MC O -0.33565(15) 0.39393(15) 0.03432(14) 0.0780 Uani
O5HB O -0.10607(15) 0.46568(14) 0.33565(15) 0.0780 Uani
O5Q O 0.16435(15) 0.39393(15) 0.46568(14) 0.0780 Uani
O5KA O 0.39393(15) 0.46568(14) 0.16435(15) 0.0780 Uani
O5GA O 0.46568(14) 0.16435(15) 0.39393(15) 0.0780 Uani
O5QB O 0.03432(14) 0.33565(15) 0.60607(15) 0.0780 Uani
O5YB O 0.33565(15) 0.10607(15) 0.53432(14) 0.0780 Uani
O5WA O 0.10607(15) 0.03432(14) 0.83565(15) 0.0780 Uani
O5OB O 0.16435(15) 0.39393(15) 0.53432(14) 0.0780 Uani
O5FC O 0.39393(15) 0.46568(14) 0.83565(15) 0.0780 Uani
O5DC O 0.46568(14) 0.16435(15) 0.60607(15) 0.0780 Uani
O5Z O 0.39393(15) 0.03432(14) 0.33565(15) 0.0780 Uani
O5UA O 0.46568(14) 0.33565(15) 0.10607(15) 0.0780 Uani
O5D O 0.16435(15) 0.10607(15) 0.03432(14) 0.0780 Uani
O5TB O 0.39393(15) -0.03432(14) 0.33565(15) 0.0780 Uani
O5BB O 0.16435(15) 0.10607(15) -0.03432(14) 0.0780 Uani
O5IC O 0.39393(15) 0.53432(14) 0.16435(15) 0.0780 Uani
O5LB O -0.16435(15) 0.39393(15) 0.46568(14) 0.0780 Uani
O5R O -0.16435(15) 0.39393(15) 0.53432(14) 0.0780 Uani
O5UB O -0.39393(15) 0.03432(14) 0.33565(15) 0.0780 Uani
O5AA O -0.39393(15) -0.03432(14) 0.33565(15) 0.0780 Uani
O5AB O -0.16435(15) 0.10607(15) 0.03432(14) 0.0780 Uani
O5G O -0.16435(15) 0.10607(15) -0.03432(14) 0.0780 Uani
O5HC O -0.39393(15) 0.46568(14) 0.16435(15) 0.0780 Uani
O5JA O -0.39393(15) 0.53432(14) 0.16435(15) 0.0780 Uani
O5XA O 0.10607(15) -0.03432(14) 0.16435(15) 0.0780 Uani
O6V O 0.0995(3) 0.4017(3) 0.5000 0.1520 Uani
O6EA O 0.4017(3) 0.0000 0.4005(3) 0.1520 Uani
O6H O 0.0995(3) 0.0983(3) 0.0000 0.1520 Uani
O6PA O 0.4017(3) 0.5000 0.0995(3) 0.1520 Uani
O6O O 0.0000 0.4005(3) 0.4017(3) 0.1520 Uani
O6W O -0.0995(3) 0.4017(3) 0.5000 0.1520 Uani
O6CA O -0.4017(3) 0.0000 0.4005(3) 0.1520 Uani
O6I O -0.0995(3) 0.0983(3) 0.0000 0.1520 Uani
O6NA O -0.4017(3) 0.5000 0.0995(3) 0.1520 Uani
O6D O 0.0983(3) -0.0000 0.0995(3) 0.1520 Uani
O6GA O 0.4005(3) 0.0983(3) 0.5000 0.1520 Uani
O7V O 0.2293(3) 0.2997(3) 0.5000 0.1440 Uani
O7EA O 0.2997(3) 0.0000 0.2707(3) 0.1440 Uani
O7H O 0.2293(3) 0.2003(3) 0.0000 0.1440 Uani
O7PA O 0.2997(3) 0.5000 0.2293(3) 0.1440 Uani
O7O O 0.0000 0.2707(3) 0.2997(3) 0.1440 Uani
O7W O -0.2293(3) 0.2997(3) 0.5000 0.1440 Uani
O7CA O -0.2997(3) 0.0000 0.2707(3) 0.1440 Uani
O7I O -0.2293(3) 0.2003(3) 0.0000 0.1440 Uani
O7NA O -0.2997(3) 0.5000 0.2293(3) 0.1440 Uani
O7D O 0.2003(3) 0.0000 0.2293(3) 0.1440 Uani
O7GA O 0.2707(3) 0.2003(3) 0.5000 0.1440 Uani
C1V C 0.0444(2) 0.3112(2) 0.3807(2) 0.0637 Uani
C1EA C 0.3112(2) 0.1193(2) 0.4556(2) 0.0637 Uani
C1H C 0.0444(2) 0.1888(2) 0.1193(2) 0.0637 Uani
C1PA C 0.3112(2) 0.3807(2) 0.0444(2) 0.0637 Uani
C1O C 0.1193(2) 0.4556(2) 0.3112(2) 0.0637 Uani
C1YA C -0.1193(2) 0.0444(2) 0.1888(2) 0.0637 Uani
C1PB C -0.0444(2) 0.3112(2) 0.3807(2) 0.0637 Uani
C1ZB C -0.3112(2) 0.1193(2) 0.4556(2) 0.0637 Uani
C1FB C -0.0444(2) 0.1888(2) 0.1193(2) 0.0637 Uani
C1MC C -0.3112(2) 0.3807(2) 0.0444(2) 0.0637 Uani
C1HB C -0.1193(2) 0.4556(2) 0.3112(2) 0.0637 Uani
C1Q C 0.1888(2) 0.3807(2) 0.4556(2) 0.0637 Uani
C1KA C 0.3807(2) 0.4556(2) 0.1888(2) 0.0637 Uani
C1GA C 0.4556(2) 0.1888(2) 0.3807(2) 0.0637 Uani
C1QB C 0.0444(2) 0.3112(2) 0.6193(2) 0.0637 Uani
C1YB C 0.3112(2) 0.1193(2) 0.5444(2) 0.0637 Uani
C1WA C 0.1193(2) 0.0444(2) 0.8112(2) 0.0637 Uani
C1OB C 0.1888(2) 0.3807(2) 0.5444(2) 0.0637 Uani
C1FC C 0.3807(2) 0.4556(2) 0.8112(2) 0.0637 Uani
C1DC C 0.4556(2) 0.1888(2) 0.6193(2) 0.0637 Uani
C1Z C 0.3807(2) 0.0444(2) 0.3112(2) 0.0637 Uani
C1UA C 0.4556(2) 0.3112(2) 0.1193(2) 0.0637 Uani
C1D C 0.1888(2) 0.1193(2) 0.0444(2) 0.0637 Uani
C2V C 0.1360(2) 0.3162(2) 0.45691(19) 0.0643 Uani
C2EA C 0.3162(2) 0.04309(19) 0.3640(2) 0.0643 Uani
C2H C 0.1360(2) 0.1838(2) 0.04309(19) 0.0643 Uani
C2PA C 0.3162(2) 0.45691(19) 0.1360(2) 0.0643 Uani
C2O C 0.04309(19) 0.3640(2) 0.3162(2) 0.0643 Uani
C2YA C -0.04309(19) 0.1360(2) 0.1838(2) 0.0643 Uani
C2PB C -0.1360(2) 0.3162(2) 0.45691(19) 0.0643 Uani
C2ZB C -0.3162(2) 0.04309(19) 0.3640(2) 0.0643 Uani
C2FB C -0.1360(2) 0.1838(2) 0.04309(19) 0.0643 Uani
C2MC C -0.3162(2) 0.45691(19) 0.1360(2) 0.0643 Uani
C2HB C -0.04309(19) 0.3640(2) 0.3162(2) 0.0643 Uani
C2Q C 0.1838(2) 0.45691(19) 0.3640(2) 0.0643 Uani
C2KA C 0.45691(19) 0.3640(2) 0.1838(2) 0.0643 Uani
C2GA C 0.3640(2) 0.1838(2) 0.45691(19) 0.0643 Uani
C2QB C 0.1360(2) 0.3162(2) 0.54309(19) 0.0643 Uani
C2YB C 0.3162(2) 0.04309(19) 0.6360(2) 0.0643 Uani
C2WA C 0.04309(19) 0.1360(2) 0.8162(2) 0.0643 Uani
C2OB C 0.1838(2) 0.45691(19) 0.6360(2) 0.0643 Uani
C2FC C 0.45691(19) 0.3640(2) 0.8162(2) 0.0643 Uani
C2DC C 0.3640(2) 0.1838(2) 0.54309(19) 0.0643 Uani
C2Z C 0.45691(19) 0.1360(2) 0.3162(2) 0.0643 Uani
C2UA C 0.3640(2) 0.3162(2) 0.04309(19) 0.0643 Uani
C2D C 0.1838(2) 0.04309(19) 0.1360(2) 0.0643 Uani
C3V C 0.1173(2) 0.29915(19) 0.4318(2) 0.0650 Uani
C3EA C 0.29915(19) 0.0682(2) 0.3827(2) 0.0650 Uani
C3H C 0.1173(2) 0.20085(19) 0.0682(2) 0.0650 Uani
C3PA C 0.29915(19) 0.4318(2) 0.1173(2) 0.0650 Uani
C3O C 0.0682(2) 0.3827(2) 0.29915(19) 0.0650 Uani
C3YA C -0.0682(2) 0.1173(2) 0.20085(19) 0.0650 Uani
C3PB C -0.1173(2) 0.29915(19) 0.4318(2) 0.0650 Uani
C3ZB C -0.29915(19) 0.0682(2) 0.3827(2) 0.0650 Uani
C3FB C -0.1173(2) 0.20085(19) 0.0682(2) 0.0650 Uani
C3MC C -0.29915(19) 0.4318(2) 0.1173(2) 0.0650 Uani
C3HB C -0.0682(2) 0.3827(2) 0.29915(19) 0.0650 Uani
C3Q C 0.20085(19) 0.4318(2) 0.3827(2) 0.0650 Uani
C3KA C 0.4318(2) 0.3827(2) 0.20085(19) 0.0650 Uani
C3GA C 0.3827(2) 0.20085(19) 0.4318(2) 0.0650 Uani
C3QB C 0.1173(2) 0.29915(19) 0.5682(2) 0.0650 Uani
C3YB C 0.29915(19) 0.0682(2) 0.6173(2) 0.0650 Uani
C3WA C 0.0682(2) 0.1173(2) 0.79915(19) 0.0650 Uani
C3OB C 0.20085(19) 0.4318(2) 0.6173(2) 0.0650 Uani
C3FC C 0.4318(2) 0.3827(2) 0.79915(19) 0.0650 Uani
C3DC C 0.3827(2) 0.20085(19) 0.5682(2) 0.0650 Uani
C3Z C 0.4318(2) 0.1173(2) 0.29915(19) 0.0650 Uani
C3UA C 0.3827(2) 0.29915(19) 0.0682(2) 0.0650 Uani
C3D C 0.20085(19) 0.0682(2) 0.1173(2) 0.0650 Uani
C4V C 0.0895(2) 0.3121(2) 0.4197(2) 0.0610 Uani
C4EA C 0.3121(2) 0.0803(2) 0.4105(2) 0.0610 Uani
C4H C 0.0895(2) 0.1879(2) 0.0803(2) 0.0610 Uani
C4PA C 0.3121(2) 0.4197(2) 0.0895(2) 0.0610 Uani
C4O C 0.0803(2) 0.4105(2) 0.3121(2) 0.0610 Uani
C4YA C -0.0803(2) 0.0895(2) 0.1879(2) 0.0610 Uani
C4PB C -0.0895(2) 0.3121(2) 0.4197(2) 0.0610 Uani
C4ZB C -0.3121(2) 0.0803(2) 0.4105(2) 0.0610 Uani
C4FB C -0.0895(2) 0.1879(2) 0.0803(2) 0.0610 Uani
C4MC C -0.3121(2) 0.4197(2) 0.0895(2) 0.0610 Uani
C4HB C -0.0803(2) 0.4105(2) 0.3121(2) 0.0610 Uani
C4Q C 0.1879(2) 0.4197(2) 0.4105(2) 0.0610 Uani
C4KA C 0.4197(2) 0.4105(2) 0.1879(2) 0.0610 Uani
C4GA C 0.4105(2) 0.1879(2) 0.4197(2) 0.0610 Uani
C4QB C 0.0895(2) 0.3121(2) 0.5803(2) 0.0610 Uani
C4YB C 0.3121(2) 0.0803(2) 0.5895(2) 0.0610 Uani
C4WA C 0.0803(2) 0.0895(2) 0.8121(2) 0.0610 Uani
C4OB C 0.1879(2) 0.4197(2) 0.5895(2) 0.0610 Uani
C4FC C 0.4197(2) 0.4105(2) 0.8121(2) 0.0610 Uani
C4DC C 0.4105(2) 0.1879(2) 0.5803(2) 0.0610 Uani
C4Z C 0.4197(2) 0.0895(2) 0.3121(2) 0.0610 Uani
C4UA C 0.4105(2) 0.3121(2) 0.0803(2) 0.0610 Uani
C4D C 0.1879(2) 0.0803(2) 0.0895(2) 0.0610 Uani
H1V H 0.0817 0.3310 0.4278 0.0730 Uiso
H1EA H 0.3310 0.0722 0.4183 0.0730 Uiso
H1H H 0.0817 0.1690 0.0722 0.0730 Uiso
H1PA H 0.3310 0.4278 0.0817 0.0730 Uiso
H1O H 0.0722 0.4183 0.3310 0.0730 Uiso
H1YA H -0.0722 0.0817 0.1690 0.0730 Uiso
H1PB H -0.0817 0.3310 0.4278 0.0730 Uiso
H1ZB H -0.3310 0.0722 0.4183 0.0730 Uiso
H1FB H -0.0817 0.1690 0.0722 0.0730 Uiso
H1MC H -0.3310 0.4278 0.0817 0.0730 Uiso
H1HB H -0.0722 0.4183 0.3310 0.0730 Uiso
H1Q H 0.1690 0.4278 0.4183 0.0730 Uiso
H1KA H 0.4278 0.4183 0.1690 0.0730 Uiso
H1GA H 0.4183 0.1690 0.4278 0.0730 Uiso
H1QB H 0.0817 0.3310 0.5722 0.0730 Uiso
H1YB H 0.3310 0.0722 0.5817 0.0730 Uiso
H1WA H 0.0722 0.0817 0.8310 0.0730 Uiso
H1OB H 0.1690 0.4278 0.5817 0.0730 Uiso
H1FC H 0.4278 0.4183 0.8310 0.0730 Uiso
H1DC H 0.4183 0.1690 0.5722 0.0730 Uiso
H1Z H 0.4278 0.0817 0.3310 0.0730 Uiso
H1UA H 0.4183 0.3310 0.0722 0.0730 Uiso
H1D H 0.1690 0.0722 0.0817 0.0730 Uiso
C5V C 0.07355(19) 0.2965(2) 0.39522(19) 0.0613 Uani
C5EA C 0.2965(2) 0.10478(19) 0.42645(19) 0.0613 Uani
C5H C 0.07355(19) 0.2035(2) 0.10478(19) 0.0613 Uani
C5PA C 0.2965(2) 0.39522(19) 0.07355(19) 0.0613 Uani
C5O C 0.10478(19) 0.42645(19) 0.2965(2) 0.0613 Uani
C5YA C -0.10478(19) 0.07355(19) 0.2035(2) 0.0613 Uani
C5PB C -0.07355(19) 0.2965(2) 0.39522(19) 0.0613 Uani
C5ZB C -0.2965(2) 0.10478(19) 0.42645(19) 0.0613 Uani
C5FB C -0.07355(19) 0.2035(2) 0.10478(19) 0.0613 Uani
C5MC C -0.2965(2) 0.39522(19) 0.07355(19) 0.0613 Uani
C5HB C -0.10478(19) 0.42645(19) 0.2965(2) 0.0613 Uani
C5Q C 0.2035(2) 0.39522(19) 0.42645(19) 0.0613 Uani
C5KA C 0.39522(19) 0.42645(19) 0.2035(2) 0.0613 Uani
C5GA C 0.42645(19) 0.2035(2) 0.39522(19) 0.0613 Uani
C5QB C 0.07355(19) 0.2965(2) 0.60478(19) 0.0613 Uani
C5YB C 0.2965(2) 0.10478(19) 0.57355(19) 0.0613 Uani
C5WA C 0.10478(19) 0.07355(19) 0.7965(2) 0.0613 Uani
C5OB C 0.2035(2) 0.39522(19) 0.57355(19) 0.0613 Uani
C5FC C 0.39522(19) 0.42645(19) 0.7965(2) 0.0613 Uani
C5DC C 0.42645(19) 0.2035(2) 0.60478(19) 0.0613 Uani
C5Z C 0.39522(19) 0.07355(19) 0.2965(2) 0.0613 Uani
C5UA C 0.42645(19) 0.2965(2) 0.10478(19) 0.0613 Uani
C5D C 0.2035(2) 0.10478(19) 0.07355(19) 0.0613 Uani
C6V C 0.0851(2) 0.2678(2) 0.3836(2) 0.0713 Uani
C6EA C 0.2678(2) 0.1164(2) 0.4149(2) 0.0713 Uani
C6H C 0.0851(2) 0.2322(2) 0.1164(2) 0.0713 Uani
C6PA C 0.2678(2) 0.3836(2) 0.0851(2) 0.0713 Uani
C6O C 0.1164(2) 0.4149(2) 0.2678(2) 0.0713 Uani
C6YA C -0.1164(2) 0.0851(2) 0.2322(2) 0.0713 Uani
C6PB C -0.0851(2) 0.2678(2) 0.3836(2) 0.0713 Uani
C6ZB C -0.2678(2) 0.1164(2) 0.4149(2) 0.0713 Uani
C6FB C -0.0851(2) 0.2322(2) 0.1164(2) 0.0713 Uani
C6MC C -0.2678(2) 0.3836(2) 0.0851(2) 0.0713 Uani
C6HB C -0.1164(2) 0.4149(2) 0.2678(2) 0.0713 Uani
C6Q C 0.2322(2) 0.3836(2) 0.4149(2) 0.0713 Uani
C6KA C 0.3836(2) 0.4149(2) 0.2322(2) 0.0713 Uani
C6GA C 0.4149(2) 0.2322(2) 0.3836(2) 0.0713 Uani
C6QB C 0.0851(2) 0.2678(2) 0.6164(2) 0.0713 Uani
C6YB C 0.2678(2) 0.1164(2) 0.5851(2) 0.0713 Uani
C6WA C 0.1164(2) 0.0851(2) 0.7678(2) 0.0713 Uani
C6OB C 0.2322(2) 0.3836(2) 0.5851(2) 0.0713 Uani
C6FC C 0.3836(2) 0.4149(2) 0.7678(2) 0.0713 Uani
C6DC C 0.4149(2) 0.2322(2) 0.6164(2) 0.0713 Uani
C6Z C 0.3836(2) 0.0851(2) 0.2678(2) 0.0713 Uani
C6UA C 0.4149(2) 0.2678(2) 0.1164(2) 0.0713 Uani
C6D C 0.2322(2) 0.1164(2) 0.0851(2) 0.0713 Uani
H2V H 0.0745 0.2574 0.3674 0.0860 Uiso
H2EA H 0.2574 0.1326 0.4255 0.0860 Uiso
H2H H 0.0745 0.2426 0.1326 0.0860 Uiso
H2PA H 0.2574 0.3674 0.0745 0.0860 Uiso
H2O H 0.1326 0.4255 0.2574 0.0860 Uiso
H2YA H -0.1326 0.0745 0.2426 0.0860 Uiso
H2PB H -0.0745 0.2574 0.3674 0.0860 Uiso
H2ZB H -0.2574 0.1326 0.4255 0.0860 Uiso
H2FB H -0.0745 0.2426 0.1326 0.0860 Uiso
H2MC H -0.2574 0.3674 0.0745 0.0860 Uiso
H2HB H -0.1326 0.4255 0.2574 0.0860 Uiso
H2Q H 0.2426 0.3674 0.4255 0.0860 Uiso
H2KA H 0.3674 0.4255 0.2426 0.0860 Uiso
H2GA H 0.4255 0.2426 0.3674 0.0860 Uiso
H2QB H 0.0745 0.2574 0.6326 0.0860 Uiso
H2YB H 0.2574 0.1326 0.5745 0.0860 Uiso
H2WA H 0.1326 0.0745 0.7574 0.0860 Uiso
H2OB H 0.2426 0.3674 0.5745 0.0860 Uiso
H2FC H 0.3674 0.4255 0.7574 0.0860 Uiso
H2DC H 0.4255 0.2426 0.6326 0.0860 Uiso
H2Z H 0.3674 0.0745 0.2574 0.0860 Uiso
H2UA H 0.4255 0.2574 0.1326 0.0860 Uiso
H2D H 0.2426 0.1326 0.0745 0.0860 Uiso
C7V C 0.1119(2) 0.2553(2) 0.3961(2) 0.0743 Uani
C7EA C 0.2553(2) 0.1039(2) 0.3881(2) 0.0743 Uani
C7H C 0.1119(2) 0.2447(2) 0.1039(2) 0.0743 Uani
C7PA C 0.2553(2) 0.3961(2) 0.1119(2) 0.0743 Uani
C7O C 0.1039(2) 0.3881(2) 0.2553(2) 0.0743 Uani
C7YA C -0.1039(2) 0.1119(2) 0.2447(2) 0.0743 Uani
C7PB C -0.1119(2) 0.2553(2) 0.3961(2) 0.0743 Uani
C7ZB C -0.2553(2) 0.1039(2) 0.3881(2) 0.0743 Uani
C7FB C -0.1119(2) 0.2447(2) 0.1039(2) 0.0743 Uani
C7MC C -0.2553(2) 0.3961(2) 0.1119(2) 0.0743 Uani
C7HB C -0.1039(2) 0.3881(2) 0.2553(2) 0.0743 Uani
C7Q C 0.2447(2) 0.3961(2) 0.3881(2) 0.0743 Uani
C7KA C 0.3961(2) 0.3881(2) 0.2447(2) 0.0743 Uani
C7GA C 0.3881(2) 0.2447(2) 0.3961(2) 0.0743 Uani
C7QB C 0.1119(2) 0.2553(2) 0.6039(2) 0.0743 Uani
C7YB C 0.2553(2) 0.1039(2) 0.6119(2) 0.0743 Uani
C7WA C 0.1039(2) 0.1119(2) 0.7553(2) 0.0743 Uani
C7OB C 0.2447(2) 0.3961(2) 0.6119(2) 0.0743 Uani
C7FC C 0.3961(2) 0.3881(2) 0.7553(2) 0.0743 Uani
C7DC C 0.3881(2) 0.2447(2) 0.6039(2) 0.0743 Uani
C7Z C 0.3961(2) 0.1119(2) 0.2553(2) 0.0743 Uani
C7UA C 0.3881(2) 0.2553(2) 0.1039(2) 0.0743 Uani
C7D C 0.2447(2) 0.1039(2) 0.1119(2) 0.0743 Uani
C8V C 0.1288(2) 0.2711(2) 0.4193(2) 0.0773 Uani
C8EA C 0.2711(2) 0.0807(2) 0.3712(2) 0.0773 Uani
C8H C 0.1288(2) 0.2289(2) 0.0807(2) 0.0773 Uani
C8PA C 0.2711(2) 0.4193(2) 0.1288(2) 0.0773 Uani
C8O C 0.0807(2) 0.3712(2) 0.2711(2) 0.0773 Uani
C8YA C -0.0807(2) 0.1288(2) 0.2289(2) 0.0773 Uani
C8PB C -0.1288(2) 0.2711(2) 0.4193(2) 0.0773 Uani
C8ZB C -0.2711(2) 0.0807(2) 0.3712(2) 0.0773 Uani
C8FB C -0.1288(2) 0.2289(2) 0.0807(2) 0.0773 Uani
C8MC C -0.2711(2) 0.4193(2) 0.1288(2) 0.0773 Uani
C8HB C -0.0807(2) 0.3712(2) 0.2711(2) 0.0773 Uani
C8Q C 0.2289(2) 0.4193(2) 0.3712(2) 0.0773 Uani
C8KA C 0.4193(2) 0.3712(2) 0.2289(2) 0.0773 Uani
C8GA C 0.3712(2) 0.2289(2) 0.4193(2) 0.0773 Uani
C8QB C 0.1288(2) 0.2711(2) 0.5807(2) 0.0773 Uani
C8YB C 0.2711(2) 0.0807(2) 0.6288(2) 0.0773 Uani
C8WA C 0.0807(2) 0.1288(2) 0.7711(2) 0.0773 Uani
C8OB C 0.2289(2) 0.4193(2) 0.6288(2) 0.0773 Uani
C8FC C 0.4193(2) 0.3712(2) 0.7711(2) 0.0773 Uani
C8DC C 0.3712(2) 0.2289(2) 0.5807(2) 0.0773 Uani
C8Z C 0.4193(2) 0.1288(2) 0.2711(2) 0.0773 Uani
C8UA C 0.3712(2) 0.2711(2) 0.0807(2) 0.0773 Uani
C8D C 0.2289(2) 0.0807(2) 0.1288(2) 0.0773 Uani
H3V H 0.1479 0.2628 0.4265 0.0920 Uiso
H3EA H 0.2628 0.0735 0.3521 0.0920 Uiso
H3H H 0.1479 0.2372 0.0735 0.0920 Uiso
H3PA H 0.2628 0.4265 0.1479 0.0920 Uiso
H3O H 0.0735 0.3521 0.2628 0.0920 Uiso
H3YA H -0.0735 0.1479 0.2372 0.0920 Uiso
H3PB H -0.1479 0.2628 0.4265 0.0920 Uiso
H3ZB H -0.2628 0.0735 0.3521 0.0920 Uiso
H3FB H -0.1479 0.2372 0.0735 0.0920 Uiso
H3MC H -0.2628 0.4265 0.1479 0.0920 Uiso
H3HB H -0.0735 0.3521 0.2628 0.0920 Uiso
H3Q H 0.2372 0.4265 0.3521 0.0920 Uiso
H3KA H 0.4265 0.3521 0.2372 0.0920 Uiso
H3GA H 0.3521 0.2372 0.4265 0.0920 Uiso
H3QB H 0.1479 0.2628 0.5735 0.0920 Uiso
H3YB H 0.2628 0.0735 0.6479 0.0920 Uiso
H3WA H 0.0735 0.1479 0.7628 0.0920 Uiso
H3OB H 0.2372 0.4265 0.6479 0.0920 Uiso
H3FC H 0.4265 0.3521 0.7628 0.0920 Uiso
H3DC H 0.3521 0.2372 0.5735 0.0920 Uiso
H3Z H 0.4265 0.1479 0.2628 0.0920 Uiso
H3UA H 0.3521 0.2628 0.0735 0.0920 Uiso
H3D H 0.2372 0.0735 0.1479 0.0920 Uiso
N1V N 0.1251(2) 0.2267(2) 0.3841(2) 0.1097 Uani
N1EA N 0.2267(2) 0.1159(2) 0.3749(2) 0.1097 Uani
N1H N 0.1251(2) 0.2733(2) 0.1159(2) 0.1097 Uani
N1PA N 0.2267(2) 0.3841(2) 0.1251(2) 0.1097 Uani
N1O N 0.1159(2) 0.3749(2) 0.2267(2) 0.1097 Uani
N1YA N -0.1159(2) 0.1251(2) 0.2733(2) 0.1097 Uani
N1PB N -0.1251(2) 0.2267(2) 0.3841(2) 0.1097 Uani
N1ZB N -0.2267(2) 0.1159(2) 0.3749(2) 0.1097 Uani
N1FB N -0.1251(2) 0.2733(2) 0.1159(2) 0.1097 Uani
N1MC N -0.2267(2) 0.3841(2) 0.1251(2) 0.1097 Uani
N1HB N -0.1159(2) 0.3749(2) 0.2267(2) 0.1097 Uani
N1Q N 0.2733(2) 0.3841(2) 0.3749(2) 0.1097 Uani
N1KA N 0.3841(2) 0.3749(2) 0.2733(2) 0.1097 Uani
N1GA N 0.3749(2) 0.2733(2) 0.3841(2) 0.1097 Uani
N1QB N 0.1251(2) 0.2267(2) 0.6159(2) 0.1097 Uani
N1YB N 0.2267(2) 0.1159(2) 0.6251(2) 0.1097 Uani
N1WA N 0.1159(2) 0.1251(2) 0.7267(2) 0.1097 Uani
N1OB N 0.2733(2) 0.3841(2) 0.6251(2) 0.1097 Uani
N1FC N 0.3841(2) 0.3749(2) 0.7267(2) 0.1097 Uani
N1DC N 0.3749(2) 0.2733(2) 0.6159(2) 0.1097 Uani
N1Z N 0.3841(2) 0.1251(2) 0.2267(2) 0.1097 Uani
N1UA N 0.3749(2) 0.2267(2) 0.1159(2) 0.1097 Uani
N1D N 0.2733(2) 0.1159(2) 0.1251(2) 0.1097 Uani
H4V H 0.1447 0.2237 0.3887 0.1320 Uiso
H4EA H 0.2237 0.1113 0.3553 0.1320 Uiso
H4H H 0.1447 0.2763 0.1113 0.1320 Uiso
H4PA H 0.2237 0.3887 0.1447 0.1320 Uiso
H4O H 0.1113 0.3553 0.2237 0.1320 Uiso
H4YA H -0.1113 0.1447 0.2763 0.1320 Uiso
H4PB H -0.1447 0.2237 0.3887 0.1320 Uiso
H4ZB H -0.2237 0.1113 0.3553 0.1320 Uiso
H4FB H -0.1447 0.2763 0.1113 0.1320 Uiso
H4MC H -0.2237 0.3887 0.1447 0.1320 Uiso
H4HB H -0.1113 0.3553 0.2237 0.1320 Uiso
H4Q H 0.2763 0.3887 0.3553 0.1320 Uiso
H4KA H 0.3887 0.3553 0.2763 0.1320 Uiso
H4GA H 0.3553 0.2763 0.3887 0.1320 Uiso
H4QB H 0.1447 0.2237 0.6113 0.1320 Uiso
H4YB H 0.2237 0.1113 0.6447 0.1320 Uiso
H4WA H 0.1113 0.1447 0.7237 0.1320 Uiso
H4OB H 0.2763 0.3887 0.6447 0.1320 Uiso
H4FC H 0.3887 0.3553 0.7237 0.1320 Uiso
H4DC H 0.3553 0.2763 0.6113 0.1320 Uiso
H4Z H 0.3887 0.1447 0.2237 0.1320 Uiso
H4UA H 0.3553 0.2237 0.1113 0.1320 Uiso
H4D H 0.2763 0.1113 0.1447 0.1320 Uiso
C9V C 0.1119(4) 0.2039(4) 0.3671(4) 0.1573 Uani
C9EA C 0.2039(4) 0.1329(4) 0.3881(4) 0.1573 Uani
C9H C 0.1119(4) 0.2961(4) 0.1329(4) 0.1573 Uani
C9PA C 0.2039(4) 0.3671(4) 0.1119(4) 0.1573 Uani
C9O C 0.1329(4) 0.3881(4) 0.2039(4) 0.1573 Uani
C9YA C -0.1329(4) 0.1119(4) 0.2961(4) 0.1573 Uani
C9PB C -0.1119(4) 0.2039(4) 0.3671(4) 0.1573 Uani
C9ZB C -0.2039(4) 0.1329(4) 0.3881(4) 0.1573 Uani
C9FB C -0.1119(4) 0.2961(4) 0.1329(4) 0.1573 Uani
C9MC C -0.2039(4) 0.3671(4) 0.1119(4) 0.1573 Uani
C9HB C -0.1329(4) 0.3881(4) 0.2039(4) 0.1573 Uani
C9Q C 0.2961(4) 0.3671(4) 0.3881(4) 0.1573 Uani
C9KA C 0.3671(4) 0.3881(4) 0.2961(4) 0.1573 Uani
C9GA C 0.3881(4) 0.2961(4) 0.3671(4) 0.1573 Uani
C9QB C 0.1119(4) 0.2039(4) 0.6329(4) 0.1573 Uani
C9YB C 0.2039(4) 0.1329(4) 0.6119(4) 0.1573 Uani
C9WA C 0.1329(4) 0.1119(4) 0.7039(4) 0.1573 Uani
C9OB C 0.2961(4) 0.3671(4) 0.6119(4) 0.1573 Uani
C9FC C 0.3671(4) 0.3881(4) 0.7039(4) 0.1573 Uani
C9DC C 0.3881(4) 0.2961(4) 0.6329(4) 0.1573 Uani
C9Z C 0.3671(4) 0.1119(4) 0.2039(4) 0.1573 Uani
C9UA C 0.3881(4) 0.2039(4) 0.1329(4) 0.1573 Uani
C9D C 0.2961(4) 0.1329(4) 0.1119(4) 0.1573 Uani
C10V C 0.1337(3) 0.1774(3) 0.3588(3) 0.1140 Uani
C10EA C 0.1774(3) 0.1412(3) 0.3663(3) 0.1140 Uani
C10H C 0.1337(3) 0.3226(3) 0.1412(3) 0.1140 Uani
C10PA C 0.1774(3) 0.3588(3) 0.1337(3) 0.1140 Uani
C10O C 0.1412(3) 0.3663(3) 0.1774(3) 0.1140 Uani
C10YA C -0.1412(3) 0.1337(3) 0.3226(3) 0.1140 Uani
C10PB C -0.1337(3) 0.1774(3) 0.3588(3) 0.1140 Uani
C10ZB C -0.1774(3) 0.1412(3) 0.3663(3) 0.1140 Uani
C10FB C -0.1337(3) 0.3226(3) 0.1412(3) 0.1140 Uani
C10MC C -0.1774(3) 0.3588(3) 0.1337(3) 0.1140 Uani
C10HB C -0.1412(3) 0.3663(3) 0.1774(3) 0.1140 Uani
C10Q C 0.3226(3) 0.3588(3) 0.3663(3) 0.1140 Uani
C10KA C 0.3588(3) 0.3663(3) 0.3226(3) 0.1140 Uani
C10GA C 0.3663(3) 0.3226(3) 0.3588(3) 0.1140 Uani
C10QB C 0.1337(3) 0.1774(3) 0.6412(3) 0.1140 Uani
C10YB C 0.1774(3) 0.1412(3) 0.6337(3) 0.1140 Uani
C10WA C 0.1412(3) 0.1337(3) 0.6774(3) 0.1140 Uani
C10OB C 0.3226(3) 0.3588(3) 0.6337(3) 0.1140 Uani
C10FC C 0.3588(3) 0.3663(3) 0.6774(3) 0.1140 Uani
C10DC C 0.3663(3) 0.3226(3) 0.6412(3) 0.1140 Uani
C10Z C 0.3588(3) 0.1337(3) 0.1774(3) 0.1140 Uani
C10UA C 0.3663(3) 0.1774(3) 0.1412(3) 0.1140 Uani
C10D C 0.3226(3) 0.1412(3) 0.1337(3) 0.1140 Uani
C11V C 0.1601(4) 0.1662(3) 0.3757(3) 0.1353 Uani
C11EA C 0.1662(3) 0.1243(3) 0.3399(4) 0.1353 Uani
C11H C 0.1601(4) 0.3338(3) 0.1243(3) 0.1353 Uani
C11PA C 0.1662(3) 0.3757(3) 0.1601(4) 0.1353 Uani
C11O C 0.1243(3) 0.3399(4) 0.1662(3) 0.1353 Uani
C11YA C -0.1243(3) 0.1601(4) 0.3338(3) 0.1353 Uani
C11PB C -0.1601(4) 0.1662(3) 0.3757(3) 0.1353 Uani
C11ZB C -0.1662(3) 0.1243(3) 0.3399(4) 0.1353 Uani
C11FB C -0.1601(4) 0.3338(3) 0.1243(3) 0.1353 Uani
C11MC C -0.1662(3) 0.3757(3) 0.1601(4) 0.1353 Uani
C11HB C -0.1243(3) 0.3399(4) 0.1662(3) 0.1353 Uani
C11Q C 0.3338(3) 0.3757(3) 0.3399(4) 0.1353 Uani
C11KA C 0.3757(3) 0.3399(4) 0.3338(3) 0.1353 Uani
C11GA C 0.3399(4) 0.3338(3) 0.3757(3) 0.1353 Uani
C11QB C 0.1601(4) 0.1662(3) 0.6243(3) 0.1353 Uani
C11YB C 0.1662(3) 0.1243(3) 0.6601(4) 0.1353 Uani
C11WA C 0.1243(3) 0.1601(4) 0.6662(3) 0.1353 Uani
C11OB C 0.3338(3) 0.3757(3) 0.6601(4) 0.1353 Uani
C11FC C 0.3757(3) 0.3399(4) 0.6662(3) 0.1353 Uani
C11DC C 0.3399(4) 0.3338(3) 0.6243(3) 0.1353 Uani
C11Z C 0.3757(3) 0.1601(4) 0.1662(3) 0.1353 Uani
C11UA C 0.3399(4) 0.1662(3) 0.1243(3) 0.1353 Uani
C11D C 0.3338(3) 0.1243(3) 0.1601(4) 0.1353 Uani
H5EA H 0.1766 0.1057 0.3342 0.1630 Uiso
H5V H 0.1658 0.1766 0.3943 0.1630 Uiso
H5H H 0.1658 0.3234 0.1057 0.1630 Uiso
H5O H 0.1057 0.3342 0.1766 0.1630 Uiso
H5PA H 0.1766 0.3943 0.1658 0.1630 Uiso
H5YA H -0.1057 0.1658 0.3234 0.1630 Uiso
H5ZB H -0.1766 0.1057 0.3342 0.1630 Uiso
H5PB H -0.1658 0.1766 0.3943 0.1630 Uiso
H5FB H -0.1658 0.3234 0.1057 0.1630 Uiso
H5HB H -0.1057 0.3342 0.1766 0.1630 Uiso
H5MC H -0.1766 0.3943 0.1658 0.1630 Uiso
H5Q H 0.3234 0.3943 0.3342 0.1630 Uiso
H5GA H 0.3342 0.3234 0.3943 0.1630 Uiso
H5KA H 0.3943 0.3342 0.3234 0.1630 Uiso
H5QB H 0.1658 0.1766 0.6057 0.1630 Uiso
H5WA H 0.1057 0.1658 0.6766 0.1630 Uiso
H5YB H 0.1766 0.1057 0.6658 0.1630 Uiso
H5OB H 0.3234 0.3943 0.6658 0.1630 Uiso
H5DC H 0.3342 0.3234 0.6057 0.1630 Uiso
H5FC H 0.3943 0.3342 0.6766 0.1630 Uiso
H5Z H 0.3943 0.1658 0.1766 0.1630 Uiso
H5D H 0.3234 0.1057 0.1658 0.1630 Uiso
H5UA H 0.3342 0.1766 0.1057 0.1630 Uiso
C12V C 0.2479(16) 0.3128(15) 0.5000 0.1700 Uiso
C12EA C 0.3128(15) 0.0000 0.2521(16) 0.1700 Uiso
C12H C 0.2479(16) 0.1872(15) 0.0000 0.1700 Uiso
C12PA C 0.3128(15) 0.5000 0.2479(16) 0.1700 Uiso
C12O C 0.0000 0.2521(16) 0.3128(15) 0.1700 Uiso
C12W C -0.2479(16) 0.3128(15) 0.5000 0.1700 Uiso
C12CA C -0.3128(15) 0.0000 0.2521(16) 0.1700 Uiso
C12I C -0.2479(16) 0.1872(15) 0.0000 0.1700 Uiso
C12NA C -0.3128(15) 0.5000 0.2479(16) 0.1700 Uiso
C12D C 0.1872(15) 0.0000 0.2479(16) 0.1700 Uiso
C12GA C 0.2521(16) 0.1872(15) 0.5000 0.1700 Uiso
O8 O 0.0000 0.0000 0.0000 0.2400 Uiso
O9 O 0.0984(19) 0.0000 0.2734(18) 0.2000 Uiso
O10 O -0.0000 -0.0000 0.364(4) 0.3600 Uiso
O11 O 0.0000 0.147(4) 0.0000 0.1800 Uiso
O12 O 0.046(4) 0.0000 0.438(4) 0.1800 Uiso
O13 O 0.0827(11) 0.0827(11) 0.0827(11) 0.1700 Uiso
O14 O 0.211(4) 0.211(4) 0.289(4) 0.2100 Uiso
loop_
_atom_site_aniso_label
_atom_site_aniso_U_11
_atom_site_aniso_U_22
_atom_site_aniso_U_33
_atom_site_aniso_U_23
_atom_site_aniso_U_13
_atom_site_aniso_U_12
Co1 0.0452(10) 0.0482(9) 0.0497(9) -0.0126(6) 0.000 0.000
Co2 0.0452(10) 0.0523(10) 0.0515(10) -0.0156(7) 0.000 0.000
O1 0.062(4) 0.104(5) 0.081(5) 0.001(4) -0.027(3) 0.001(3)
O2 0.055(4) 0.074(5) 0.095(5) 0.006(4) -0.005(3) 0.015(3)
O3 0.308(16) 0.190(12) 0.214(12) -0.125(10) -0.161(11) 0.154(12)
O4 0.082 0.058 0.092 -0.007 -0.004 0.015
O5 0.088 0.071 0.075 -0.03 0.001 -0.003
O6 0.317(18) 0.072(7) 0.067(7) -0.014(6) 0.000 0.000
O7 0.259(19) 0.069(8) 0.104(10) -0.015(7) 0.000 0.000
C1 0.082(7) 0.047(5) 0.062(6) -0.011(4) 0.005(5) -0.009(5)
C2 0.040(5) 0.077(7) 0.076(7) 0.004(5) -0.010(4) -0.004(5)
C3 0.068(6) 0.073(6) 0.054(5) -0.010(4) -0.008(4) 0.009(4)
C4 0.061(6) 0.067(6) 0.055(5) -0.008(4) 0.001(4) -0.005(4)
C5 0.061(6) 0.064(6) 0.059(5) -0.013(4) -0.010(4) 0.010(4)
C6 0.076(6) 0.058(6) 0.080(7) -0.015(5) -0.027(5) 0.018(5)
C7 0.080(7) 0.081(6) 0.062(6) -0.031(5) -0.032(5) 0.025(5)
C8 0.073(6) 0.083(7) 0.076(7) -0.021(5) -0.027(5) 0.021(5)
N1 0.114(7) 0.115(7) 0.100(7) -0.038(6) -0.054(6) 0.047(6)
C9 0.163(14) 0.114(11) 0.195(16) -0.056(11) -0.094(12) 0.082(11)
C10 0.126(10) 0.125(10) 0.091(9) -0.062(8) -0.051(8) 0.044(9)
C11 0.109(10) 0.191(16) 0.106(10) -0.024(11) -0.062(9) 0.044(10)
Co1V 0.0482 0.0497 0.0452 0 0 0.0126
Co1EA 0.0497 0.0452 0.0482 0 -0.0126 0
Co1H 0.0482 0.0497 0.0452 0 0 -0.0126
Co1PA 0.0497 0.0452 0.0482 0 0.0126 0
Co1O 0.0452 0.0482 0.0497 -0.0126 0 0
Co1W 0.0482 0.0497 0.0452 0 0 -0.0126
Co1CA 0.0497 0.0452 0.0482 0 0.0126 0
Co1I 0.0482 0.0497 0.0452 0 0 0.0126
Co1NA 0.0497 0.0452 0.0482 0 -0.0126 0
Co1D 0.0497 0.0452 0.0482 0 -0.0126 0
Co1GA 0.0482 0.0497 0.0452 0 0 0.0126
Co1UA 0.0482 0.0497 0.0452 0 0 -0.0126
Co1Q 0.0497 0.0452 0.0482 0 0.0126 0
Co1F 0.0497 0.0452 0.0482 0 0.0126 0
Co1FA 0.0482 0.0497 0.0452 0 0 -0.0126
Co1TA 0.0482 0.0497 0.0452 0 0 0.0126
Co1S 0.0497 0.0452 0.0482 0 -0.0126 0
Co1KA 0.0452 0.0482 0.0497 0.0126 0 0
Co1Z 0.0452 0.0482 0.0497 0.0126 0 0
Co1M 0.0452 0.0482 0.0497 0.0126 0 0
Co1DA 0.0497 0.0452 0.0482 0 0.0126 0
Co1E 0.0497 0.0452 0.0482 0 0.0126 0
Co1B 0.0452 0.0482 0.0497 0.0126 0 0
Co1P 0.0497 0.0452 0.0482 0 -0.0126 0
Co1QA 0.0497 0.0452 0.0482 0 -0.0126 0
Co1MA 0.0452 0.0482 0.0497 -0.0126 0 0
Co1X 0.0452 0.0482 0.0497 -0.0126 0 0
Co2V 0.0523 0.0515 0.0452 0 0 0.0156
Co2EA 0.0515 0.0452 0.0523 0 -0.0156 0
Co2H 0.0523 0.0515 0.0452 0 0 -0.0156
Co2PA 0.0515 0.0452 0.0523 0 0.0156 0
Co2O 0.0452 0.0523 0.0515 -0.0156 0 0
Co2W 0.0523 0.0515 0.0452 0 0 -0.0156
Co2CA 0.0515 0.0452 0.0523 0 0.0156 0
Co2I 0.0523 0.0515 0.0452 0 0 0.0156
Co2NA 0.0515 0.0452 0.0523 0 -0.0156 0
Co2D 0.0515 0.0452 0.0523 0 -0.0156 0
Co2GA 0.0523 0.0515 0.0452 0 0 0.0156
Co2UA 0.0523 0.0515 0.0452 0 0 -0.0156
Co2Q 0.0515 0.0452 0.0523 0 0.0156 0
Co2F 0.0515 0.0452 0.0523 0 0.0156 0
Co2FA 0.0523 0.0515 0.0452 0 0 -0.0156
Co2TA 0.0523 0.0515 0.0452 0 0 0.0156
Co2S 0.0515 0.0452 0.0523 0 -0.0156 0
Co2KA 0.0452 0.0523 0.0515 0.0156 0 0
Co2Z 0.0452 0.0523 0.0515 0.0156 0 0
Co2M 0.0452 0.0523 0.0515 0.0156 0 0
Co2DA 0.0515 0.0452 0.0523 0 0.0156 0
Co2E 0.0515 0.0452 0.0523 0 0.0156 0
Co2B 0.0452 0.0523 0.0515 0.0156 0 0
Co2P 0.0515 0.0452 0.0523 0 -0.0156 0
Co2QA 0.0515 0.0452 0.0523 0 -0.0156 0
Co2MA 0.0452 0.0523 0.0515 -0.0156 0 0
Co2X 0.0452 0.0523 0.0515 -0.0156 0 0
O1V 0.104 0.081 0.062 -0.027 -0.001 -0.001
O1EA 0.081 0.062 0.104 -0.001 0.001 0.027
O1H 0.104 0.081 0.062 -0.027 0.001 0.001
O1PA 0.081 0.062 0.104 -0.001 -0.001 -0.027
O1O 0.062 0.104 0.081 0.001 0.027 -0.001
O1YA 0.062 0.104 0.081 0.001 0.027 -0.001
O1PB 0.104 0.081 0.062 -0.027 0.001 0.001
O1ZB 0.081 0.062 0.104 -0.001 -0.001 -0.027
O1FB 0.104 0.081 0.062 -0.027 -0.001 -0.001
O1MC 0.081 0.062 0.104 -0.001 0.001 0.027
O1HB 0.062 0.104 0.081 0.001 -0.027 0.001
O1Q 0.081 0.062 0.104 0.001 -0.001 0.027
O1KA 0.062 0.104 0.081 -0.001 0.027 0.001
O1GA 0.104 0.081 0.062 0.027 0.001 -0.001
O1QB 0.104 0.081 0.062 0.027 0.001 -0.001
O1YB 0.081 0.062 0.104 0.001 -0.001 0.027
O1WA 0.062 0.104 0.081 -0.001 0.027 0.001
O1OB 0.081 0.062 0.104 -0.001 0.001 0.027
O1FC 0.062 0.104 0.081 0.001 -0.027 0.001
O1DC 0.104 0.081 0.062 -0.027 -0.001 -0.001
O1Z 0.062 0.104 0.081 -0.001 -0.027 -0.001
O1UA 0.104 0.081 0.062 0.027 -0.001 0.001
O1D 0.081 0.062 0.104 0.001 0.001 -0.027
O1XB 0.081 0.062 0.104 0.001 0.001 -0.027
O1GB 0.104 0.081 0.062 0.027 -0.001 0.001
O1KC 0.081 0.062 0.104 0.001 -0.001 0.027
O1W 0.104 0.081 0.062 0.027 -0.001 0.001
O1CA 0.081 0.062 0.104 0.001 -0.001 0.027
O1I 0.104 0.081 0.062 0.027 0.001 -0.001
O1NA 0.081 0.062 0.104 0.001 0.001 -0.027
O1CB 0.081 0.062 0.104 -0.001 0.001 0.027
O2V 0.074 0.095 0.055 -0.005 -0.015 -0.006
O2EA 0.095 0.055 0.074 -0.015 0.006 0.005
O2H 0.074 0.095 0.055 -0.005 0.015 0.006
O2PA 0.095 0.055 0.074 -0.015 -0.006 -0.005
O2O 0.055 0.074 0.095 0.006 0.005 -0.015
O2YA 0.055 0.074 0.095 0.006 0.005 -0.015
O2PB 0.074 0.095 0.055 -0.005 0.015 0.006
O2ZB 0.095 0.055 0.074 -0.015 -0.006 -0.005
O2FB 0.074 0.095 0.055 -0.005 -0.015 -0.006
O2MC 0.095 0.055 0.074 -0.015 0.006 0.005
O2HB 0.055 0.074 0.095 0.006 -0.005 0.015
O2Q 0.095 0.055 0.074 0.015 -0.006 0.005
O2KA 0.055 0.074 0.095 -0.006 0.005 0.015
O2GA 0.074 0.095 0.055 0.005 0.015 -0.006
O2QB 0.074 0.095 0.055 0.005 0.015 -0.006
O2YB 0.095 0.055 0.074 0.015 -0.006 0.005
O2WA 0.055 0.074 0.095 -0.006 0.005 0.015
O2OB 0.095 0.055 0.074 -0.015 0.006 0.005
O2FC 0.055 0.074 0.095 0.006 -0.005 0.015
O2DC 0.074 0.095 0.055 -0.005 -0.015 -0.006
O2Z 0.055 0.074 0.095 -0.006 -0.005 -0.015
O2UA 0.074 0.095 0.055 0.005 -0.015 0.006
O2D 0.095 0.055 0.074 0.015 0.006 -0.005
O2XB 0.095 0.055 0.074 0.015 0.006 -0.005
O2GB 0.074 0.095 0.055 0.005 -0.015 0.006
O2KC 0.095 0.055 0.074 0.015 -0.006 0.005
O2W 0.074 0.095 0.055 0.005 -0.015 0.006
O2CA 0.095 0.055 0.074 0.015 -0.006 0.005
O2I 0.074 0.095 0.055 0.005 0.015 -0.006
O2NA 0.095 0.055 0.074 0.015 0.006 -0.005
O2CB 0.095 0.055 0.074 -0.015 0.006 0.005
O3V 0.19 0.214 0.308 -0.161 -0.154 0.125
O3EA 0.214 0.308 0.19 -0.154 -0.125 0.161
O3H 0.19 0.214 0.308 -0.161 0.154 -0.125
O3PA 0.214 0.308 0.19 -0.154 0.125 -0.161
O3O 0.308 0.19 0.214 -0.125 0.161 -0.154
O3YA 0.308 0.19 0.214 -0.125 0.161 -0.154
O3PB 0.19 0.214 0.308 -0.161 0.154 -0.125
O3ZB 0.214 0.308 0.19 -0.154 0.125 -0.161
O3FB 0.19 0.214 0.308 -0.161 -0.154 0.125
O3MC 0.214 0.308 0.19 -0.154 -0.125 0.161
O3HB 0.308 0.19 0.214 -0.125 -0.161 0.154
O3Q 0.214 0.308 0.19 0.154 0.125 0.161
O3KA 0.308 0.19 0.214 0.125 0.161 0.154
O3GA 0.19 0.214 0.308 0.161 0.154 0.125
O3QB 0.19 0.214 0.308 0.161 0.154 0.125
O3YB 0.214 0.308 0.19 0.154 0.125 0.161
O3WA 0.308 0.19 0.214 0.125 0.161 0.154
O3OB 0.214 0.308 0.19 -0.154 -0.125 0.161
O3FC 0.308 0.19 0.214 -0.125 -0.161 0.154
O3DC 0.19 0.214 0.308 -0.161 -0.154 0.125
O3Z 0.308 0.19 0.214 0.125 -0.161 -0.154
O3UA 0.19 0.214 0.308 0.161 -0.154 -0.125
O3D 0.214 0.308 0.19 0.154 -0.125 -0.161
O4V 0.058 0.092 0.082 -0.004 -0.015 0.007
O4EA 0.092 0.082 0.058 -0.015 -0.007 0.004
O4H 0.058 0.092 0.082 -0.004 0.015 -0.007
O4PA 0.092 0.082 0.058 -0.015 0.007 -0.004
O4O 0.082 0.058 0.092 -0.007 0.004 -0.015
O4YA 0.082 0.058 0.092 -0.007 0.004 -0.015
O4PB 0.058 0.092 0.082 -0.004 0.015 -0.007
O4ZB 0.092 0.082 0.058 -0.015 0.007 -0.004
O4FB 0.058 0.092 0.082 -0.004 -0.015 0.007
O4MC 0.092 0.082 0.058 -0.015 -0.007 0.004
O4HB 0.082 0.058 0.092 -0.007 -0.004 0.015
O4Q 0.092 0.082 0.058 0.015 0.007 0.004
O4KA 0.082 0.058 0.092 0.007 0.004 0.015
O4GA 0.058 0.092 0.082 0.004 0.015 0.007
O4QB 0.058 0.092 0.082 0.004 0.015 0.007
O4YB 0.092 0.082 0.058 0.015 0.007 0.004
O4WA 0.082 0.058 0.092 0.007 0.004 0.015
O4OB 0.092 0.082 0.058 -0.015 -0.007 0.004
O4FC 0.082 0.058 0.092 -0.007 -0.004 0.015
O4DC 0.058 0.092 0.082 -0.004 -0.015 0.007
O4Z 0.082 0.058 0.092 0.007 -0.004 -0.015
O4UA 0.058 0.092 0.082 0.004 -0.015 -0.007
O4D 0.092 0.082 0.058 0.015 -0.007 -0.004
O4TB 0.082 0.058 0.092 -0.007 -0.004 0.015
O4BB 0.092 0.082 0.058 -0.015 0.007 -0.004
O4IC 0.082 0.058 0.092 -0.007 0.004 -0.015
O4LB 0.092 0.082 0.058 0.015 -0.007 -0.004
O4R 0.092 0.082 0.058 -0.015 0.007 -0.004
O4UB 0.082 0.058 0.092 0.007 0.004 0.015
O4AA 0.082 0.058 0.092 -0.007 0.004 -0.015
O4AB 0.092 0.082 0.058 0.015 0.007 0.004
O4G 0.092 0.082 0.058 -0.015 -0.007 0.004
O4HC 0.082 0.058 0.092 0.007 -0.004 -0.015
O4JA 0.082 0.058 0.092 -0.007 -0.004 0.015
O4XA 0.082 0.058 0.092 0.007 -0.004 -0.015
O5V 0.071 0.075 0.088 0.001 0.003 0.03
O5EA 0.075 0.088 0.071 0.003 -0.03 -0.001
O5H 0.071 0.075 0.088 0.001 -0.003 -0.03
O5PA 0.075 0.088 0.071 0.003 0.03 0.001
O5O 0.088 0.071 0.075 -0.03 -0.001 0.003
O5YA 0.088 0.071 0.075 -0.03 -0.001 0.003
O5PB 0.071 0.075 0.088 0.001 -0.003 -0.03
O5ZB 0.075 0.088 0.071 0.003 0.03 0.001
O5FB 0.071 0.075 0.088 0.001 0.003 0.03
O5MC 0.075 0.088 0.071 0.003 -0.03 -0.001
O5HB 0.088 0.071 0.075 -0.03 0.001 -0.003
O5Q 0.075 0.088 0.071 -0.003 0.03 -0.001
O5KA 0.088 0.071 0.075 0.03 -0.001 -0.003
O5GA 0.071 0.075 0.088 -0.001 -0.003 0.03
O5QB 0.071 0.075 0.088 -0.001 -0.003 0.03
O5YB 0.075 0.088 0.071 -0.003 0.03 -0.001
O5WA 0.088 0.071 0.075 0.03 -0.001 -0.003
O5OB 0.075 0.088 0.071 0.003 -0.03 -0.001
O5FC 0.088 0.071 0.075 -0.03 0.001 -0.003
O5DC 0.071 0.075 0.088 0.001 0.003 0.03
O5Z 0.088 0.071 0.075 0.03 0.001 0.003
O5UA 0.071 0.075 0.088 -0.001 0.003 -0.03
O5D 0.075 0.088 0.071 -0.003 -0.03 0.001
O5TB 0.088 0.071 0.075 -0.03 0.001 -0.003
O5BB 0.075 0.088 0.071 0.003 0.03 0.001
O5IC 0.088 0.071 0.075 -0.03 -0.001 0.003
O5LB 0.075 0.088 0.071 -0.003 -0.03 0.001
O5R 0.075 0.088 0.071 0.003 0.03 0.001
O5UB 0.088 0.071 0.075 0.03 -0.001 -0.003
O5AA 0.088 0.071 0.075 -0.03 -0.001 0.003
O5AB 0.075 0.088 0.071 -0.003 0.03 -0.001
O5G 0.075 0.088 0.071 0.003 -0.03 -0.001
O5HC 0.088 0.071 0.075 0.03 0.001 0.003
O5JA 0.088 0.071 0.075 -0.03 0.001 -0.003
O5XA 0.088 0.071 0.075 0.03 0.001 0.003
O6V 0.072 0.067 0.317 0 0 0.014
O6EA 0.067 0.317 0.072 0 -0.014 0
O6H 0.072 0.067 0.317 0 0 -0.014
O6PA 0.067 0.317 0.072 0 0.014 0
O6O 0.317 0.072 0.067 -0.014 0 0
O6W 0.072 0.067 0.317 0 0 -0.014
O6CA 0.067 0.317 0.072 0 0.014 0
O6I 0.072 0.067 0.317 0 0 0.014
O6NA 0.067 0.317 0.072 0 -0.014 0
O6D 0.067 0.317 0.072 0 -0.014 0
O6GA 0.072 0.067 0.317 0 0 0.014
O7V 0.069 0.104 0.259 0 0 0.015
O7EA 0.104 0.259 0.069 0 -0.015 0
O7H 0.069 0.104 0.259 0 0 -0.015
O7PA 0.104 0.259 0.069 0 0.015 0
O7O 0.259 0.069 0.104 -0.015 0 0
O7W 0.069 0.104 0.259 0 0 -0.015
O7CA 0.104 0.259 0.069 0 0.015 0
O7I 0.069 0.104 0.259 0 0 0.015
O7NA 0.104 0.259 0.069 0 -0.015 0
O7D 0.104 0.259 0.069 0 -0.015 0
O7GA 0.069 0.104 0.259 0 0 0.015
C1V 0.047 0.062 0.082 0.005 0.009 0.011
C1EA 0.062 0.082 0.047 0.009 -0.011 -0.005
C1H 0.047 0.062 0.082 0.005 -0.009 -0.011
C1PA 0.062 0.082 0.047 0.009 0.011 0.005
C1O 0.082 0.047 0.062 -0.011 -0.005 0.009
C1YA 0.082 0.047 0.062 -0.011 -0.005 0.009
C1PB 0.047 0.062 0.082 0.005 -0.009 -0.011
C1ZB 0.062 0.082 0.047 0.009 0.011 0.005
C1FB 0.047 0.062 0.082 0.005 0.009 0.011
C1MC 0.062 0.082 0.047 0.009 -0.011 -0.005
C1HB 0.082 0.047 0.062 -0.011 0.005 -0.009
C1Q 0.062 0.082 0.047 -0.009 0.011 -0.005
C1KA 0.082 0.047 0.062 0.011 -0.005 -0.009
C1GA 0.047 0.062 0.082 -0.005 -0.009 0.011
C1QB 0.047 0.062 0.082 -0.005 -0.009 0.011
C1YB 0.062 0.082 0.047 -0.009 0.011 -0.005
C1WA 0.082 0.047 0.062 0.011 -0.005 -0.009
C1OB 0.062 0.082 0.047 0.009 -0.011 -0.005
C1FC 0.082 0.047 0.062 -0.011 0.005 -0.009
C1DC 0.047 0.062 0.082 0.005 0.009 0.011
C1Z 0.082 0.047 0.062 0.011 0.005 0.009
C1UA 0.047 0.062 0.082 -0.005 0.009 -0.011
C1D 0.062 0.082 0.047 -0.009 -0.011 0.005
C2V 0.077 0.076 0.04 -0.01 0.004 -0.004
C2EA 0.076 0.04 0.077 0.004 0.004 0.01
C2H 0.077 0.076 0.04 -0.01 -0.004 0.004
C2PA 0.076 0.04 0.077 0.004 -0.004 -0.01
C2O 0.04 0.077 0.076 0.004 0.01 0.004
C2YA 0.04 0.077 0.076 0.004 0.01 0.004
C2PB 0.077 0.076 0.04 -0.01 -0.004 0.004
C2ZB 0.076 0.04 0.077 0.004 -0.004 -0.01
C2FB 0.077 0.076 0.04 -0.01 0.004 -0.004
C2MC 0.076 0.04 0.077 0.004 0.004 0.01
C2HB 0.04 0.077 0.076 0.004 -0.01 -0.004
C2Q 0.076 0.04 0.077 -0.004 -0.004 0.01
C2KA 0.04 0.077 0.076 -0.004 0.01 -0.004
C2GA 0.077 0.076 0.04 0.01 -0.004 -0.004
C2QB 0.077 0.076 0.04 0.01 -0.004 -0.004
C2YB 0.076 0.04 0.077 -0.004 -0.004 0.01
C2WA 0.04 0.077 0.076 -0.004 0.01 -0.004
C2OB 0.076 0.04 0.077 0.004 0.004 0.01
C2FC 0.04 0.077 0.076 0.004 -0.01 -0.004
C2DC 0.077 0.076 0.04 -0.01 0.004 -0.004
C2Z 0.04 0.077 0.076 -0.004 -0.01 0.004
C2UA 0.077 0.076 0.04 0.01 0.004 0.004
C2D 0.076 0.04 0.077 -0.004 0.004 -0.01
C3V 0.073 0.054 0.068 -0.008 -0.009 0.01
C3EA 0.054 0.068 0.073 -0.009 -0.01 0.008
C3H 0.073 0.054 0.068 -0.008 0.009 -0.01
C3PA 0.054 0.068 0.073 -0.009 0.01 -0.008
C3O 0.068 0.073 0.054 -0.01 0.008 -0.009
C3YA 0.068 0.073 0.054 -0.01 0.008 -0.009
C3PB 0.073 0.054 0.068 -0.008 0.009 -0.01
C3ZB 0.054 0.068 0.073 -0.009 0.01 -0.008
C3FB 0.073 0.054 0.068 -0.008 -0.009 0.01
C3MC 0.054 0.068 0.073 -0.009 -0.01 0.008
C3HB 0.068 0.073 0.054 -0.01 -0.008 0.009
C3Q 0.054 0.068 0.073 0.009 0.01 0.008
C3KA 0.068 0.073 0.054 0.01 0.008 0.009
C3GA 0.073 0.054 0.068 0.008 0.009 0.01
C3QB 0.073 0.054 0.068 0.008 0.009 0.01
C3YB 0.054 0.068 0.073 0.009 0.01 0.008
C3WA 0.068 0.073 0.054 0.01 0.008 0.009
C3OB 0.054 0.068 0.073 -0.009 -0.01 0.008
C3FC 0.068 0.073 0.054 -0.01 -0.008 0.009
C3DC 0.073 0.054 0.068 -0.008 -0.009 0.01
C3Z 0.068 0.073 0.054 0.01 -0.008 -0.009
C3UA 0.073 0.054 0.068 0.008 -0.009 -0.01
C3D 0.054 0.068 0.073 0.009 -0.01 -0.008
C4V 0.067 0.055 0.061 0.001 0.005 0.008
C4EA 0.055 0.061 0.067 0.005 -0.008 -0.001
C4H 0.067 0.055 0.061 0.001 -0.005 -0.008
C4PA 0.055 0.061 0.067 0.005 0.008 0.001
C4O 0.061 0.067 0.055 -0.008 -0.001 0.005
C4YA 0.061 0.067 0.055 -0.008 -0.001 0.005
C4PB 0.067 0.055 0.061 0.001 -0.005 -0.008
C4ZB 0.055 0.061 0.067 0.005 0.008 0.001
C4FB 0.067 0.055 0.061 0.001 0.005 0.008
C4MC 0.055 0.061 0.067 0.005 -0.008 -0.001
C4HB 0.061 0.067 0.055 -0.008 0.001 -0.005
C4Q 0.055 0.061 0.067 -0.005 0.008 -0.001
C4KA 0.061 0.067 0.055 0.008 -0.001 -0.005
C4GA 0.067 0.055 0.061 -0.001 -0.005 0.008
C4QB 0.067 0.055 0.061 -0.001 -0.005 0.008
C4YB 0.055 0.061 0.067 -0.005 0.008 -0.001
C4WA 0.061 0.067 0.055 0.008 -0.001 -0.005
C4OB 0.055 0.061 0.067 0.005 -0.008 -0.001
C4FC 0.061 0.067 0.055 -0.008 0.001 -0.005
C4DC 0.067 0.055 0.061 0.001 0.005 0.008
C4Z 0.061 0.067 0.055 0.008 0.001 0.005
C4UA 0.067 0.055 0.061 -0.001 0.005 -0.008
C4D 0.055 0.061 0.067 -0.005 -0.008 0.001
C5V 0.064 0.059 0.061 -0.01 -0.01 0.013
C5EA 0.059 0.061 0.064 -0.01 -0.013 0.01
C5H 0.064 0.059 0.061 -0.01 0.01 -0.013
C5PA 0.059 0.061 0.064 -0.01 0.013 -0.01
C5O 0.061 0.064 0.059 -0.013 0.01 -0.01
C5YA 0.061 0.064 0.059 -0.013 0.01 -0.01
C5PB 0.064 0.059 0.061 -0.01 0.01 -0.013
C5ZB 0.059 0.061 0.064 -0.01 0.013 -0.01
C5FB 0.064 0.059 0.061 -0.01 -0.01 0.013
C5MC 0.059 0.061 0.064 -0.01 -0.013 0.01
C5HB 0.061 0.064 0.059 -0.013 -0.01 0.01
C5Q 0.059 0.061 0.064 0.01 0.013 0.01
C5KA 0.061 0.064 0.059 0.013 0.01 0.01
C5GA 0.064 0.059 0.061 0.01 0.01 0.013
C5QB 0.064 0.059 0.061 0.01 0.01 0.013
C5YB 0.059 0.061 0.064 0.01 0.013 0.01
C5WA 0.061 0.064 0.059 0.013 0.01 0.01
C5OB 0.059 0.061 0.064 -0.01 -0.013 0.01
C5FC 0.061 0.064 0.059 -0.013 -0.01 0.01
C5DC 0.064 0.059 0.061 -0.01 -0.01 0.013
C5Z 0.061 0.064 0.059 0.013 -0.01 -0.01
C5UA 0.064 0.059 0.061 0.01 -0.01 -0.013
C5D 0.059 0.061 0.064 0.01 -0.013 -0.01
C6V 0.058 0.08 0.076 -0.027 -0.018 0.015
C6EA 0.08 0.076 0.058 -0.018 -0.015 0.027
C6H 0.058 0.08 0.076 -0.027 0.018 -0.015
C6PA 0.08 0.076 0.058 -0.018 0.015 -0.027
C6O 0.076 0.058 0.08 -0.015 0.027 -0.018
C6YA 0.076 0.058 0.08 -0.015 0.027 -0.018
C6PB 0.058 0.08 0.076 -0.027 0.018 -0.015
C6ZB 0.08 0.076 0.058 -0.018 0.015 -0.027
C6FB 0.058 0.08 0.076 -0.027 -0.018 0.015
C6MC 0.08 0.076 0.058 -0.018 -0.015 0.027
C6HB 0.076 0.058 0.08 -0.015 -0.027 0.018
C6Q 0.08 0.076 0.058 0.018 0.015 0.027
C6KA 0.076 0.058 0.08 0.015 0.027 0.018
C6GA 0.058 0.08 0.076 0.027 0.018 0.015
C6QB 0.058 0.08 0.076 0.027 0.018 0.015
C6YB 0.08 0.076 0.058 0.018 0.015 0.027
C6WA 0.076 0.058 0.08 0.015 0.027 0.018
C6OB 0.08 0.076 0.058 -0.018 -0.015 0.027
C6FC 0.076 0.058 0.08 -0.015 -0.027 0.018
C6DC 0.058 0.08 0.076 -0.027 -0.018 0.015
C6Z 0.076 0.058 0.08 0.015 -0.027 -0.018
C6UA 0.058 0.08 0.076 0.027 -0.018 -0.015
C6D 0.08 0.076 0.058 0.018 -0.015 -0.027
C7V 0.081 0.062 0.08 -0.032 -0.025 0.031
C7EA 0.062 0.08 0.081 -0.025 -0.031 0.032
C7H 0.081 0.062 0.08 -0.032 0.025 -0.031
C7PA 0.062 0.08 0.081 -0.025 0.031 -0.032
C7O 0.08 0.081 0.062 -0.031 0.032 -0.025
C7YA 0.08 0.081 0.062 -0.031 0.032 -0.025
C7PB 0.081 0.062 0.08 -0.032 0.025 -0.031
C7ZB 0.062 0.08 0.081 -0.025 0.031 -0.032
C7FB 0.081 0.062 0.08 -0.032 -0.025 0.031
C7MC 0.062 0.08 0.081 -0.025 -0.031 0.032
C7HB 0.08 0.081 0.062 -0.031 -0.032 0.025
C7Q 0.062 0.08 0.081 0.025 0.031 0.032
C7KA 0.08 0.081 0.062 0.031 0.032 0.025
C7GA 0.081 0.062 0.08 0.032 0.025 0.031
C7QB 0.081 0.062 0.08 0.032 0.025 0.031
C7YB 0.062 0.08 0.081 0.025 0.031 0.032
C7WA 0.08 0.081 0.062 0.031 0.032 0.025
C7OB 0.062 0.08 0.081 -0.025 -0.031 0.032
C7FC 0.08 0.081 0.062 -0.031 -0.032 0.025
C7DC 0.081 0.062 0.08 -0.032 -0.025 0.031
C7Z 0.08 0.081 0.062 0.031 -0.032 -0.025
C7UA 0.081 0.062 0.08 0.032 -0.025 -0.031
C7D 0.062 0.08 0.081 0.025 -0.031 -0.032
C8V 0.083 0.076 0.073 -0.027 -0.021 0.021
C8EA 0.076 0.073 0.083 -0.021 -0.021 0.027
C8H 0.083 0.076 0.073 -0.027 0.021 -0.021
C8PA 0.076 0.073 0.083 -0.021 0.021 -0.027
C8O 0.073 0.083 0.076 -0.021 0.027 -0.021
C8YA 0.073 0.083 0.076 -0.021 0.027 -0.021
C8PB 0.083 0.076 0.073 -0.027 0.021 -0.021
C8ZB 0.076 0.073 0.083 -0.021 0.021 -0.027
C8FB 0.083 0.076 0.073 -0.027 -0.021 0.021
C8MC 0.076 0.073 0.083 -0.021 -0.021 0.027
C8HB 0.073 0.083 0.076 -0.021 -0.027 0.021
C8Q 0.076 0.073 0.083 0.021 0.021 0.027
C8KA 0.073 0.083 0.076 0.021 0.027 0.021
C8GA 0.083 0.076 0.073 0.027 0.021 0.021
C8QB 0.083 0.076 0.073 0.027 0.021 0.021
C8YB 0.076 0.073 0.083 0.021 0.021 0.027
C8WA 0.073 0.083 0.076 0.021 0.027 0.021
C8OB 0.076 0.073 0.083 -0.021 -0.021 0.027
C8FC 0.073 0.083 0.076 -0.021 -0.027 0.021
C8DC 0.083 0.076 0.073 -0.027 -0.021 0.021
C8Z 0.073 0.083 0.076 0.021 -0.027 -0.021
C8UA 0.083 0.076 0.073 0.027 -0.021 -0.021
C8D 0.076 0.073 0.083 0.021 -0.021 -0.027
N1V 0.115 0.1 0.114 -0.054 -0.047 0.038
N1EA 0.1 0.114 0.115 -0.047 -0.038 0.054
N1H 0.115 0.1 0.114 -0.054 0.047 -0.038
N1PA 0.1 0.114 0.115 -0.047 0.038 -0.054
N1O 0.114 0.115 0.1 -0.038 0.054 -0.047
N1YA 0.114 0.115 0.1 -0.038 0.054 -0.047
N1PB 0.115 0.1 0.114 -0.054 0.047 -0.038
N1ZB 0.1 0.114 0.115 -0.047 0.038 -0.054
N1FB 0.115 0.1 0.114 -0.054 -0.047 0.038
N1MC 0.1 0.114 0.115 -0.047 -0.038 0.054
N1HB 0.114 0.115 0.1 -0.038 -0.054 0.047
N1Q 0.1 0.114 0.115 0.047 0.038 0.054
N1KA 0.114 0.115 0.1 0.038 0.054 0.047
N1GA 0.115 0.1 0.114 0.054 0.047 0.038
N1QB 0.115 0.1 0.114 0.054 0.047 0.038
N1YB 0.1 0.114 0.115 0.047 0.038 0.054
N1WA 0.114 0.115 0.1 0.038 0.054 0.047
N1OB 0.1 0.114 0.115 -0.047 -0.038 0.054
N1FC 0.114 0.115 0.1 -0.038 -0.054 0.047
N1DC 0.115 0.1 0.114 -0.054 -0.047 0.038
N1Z 0.114 0.115 0.1 0.038 -0.054 -0.047
N1UA 0.115 0.1 0.114 0.054 -0.047 -0.038
N1D 0.1 0.114 0.115 0.047 -0.038 -0.054
C9V 0.114 0.195 0.163 -0.094 -0.082 0.056
C9EA 0.195 0.163 0.114 -0.082 -0.056 0.094
C9H 0.114 0.195 0.163 -0.094 0.082 -0.056
C9PA 0.195 0.163 0.114 -0.082 0.056 -0.094
C9O 0.163 0.114 0.195 -0.056 0.094 -0.082
C9YA 0.163 0.114 0.195 -0.056 0.094 -0.082
C9PB 0.114 0.195 0.163 -0.094 0.082 -0.056
C9ZB 0.195 0.163 0.114 -0.082 0.056 -0.094
C9FB 0.114 0.195 0.163 -0.094 -0.082 0.056
C9MC 0.195 0.163 0.114 -0.082 -0.056 0.094
C9HB 0.163 0.114 0.195 -0.056 -0.094 0.082
C9Q 0.195 0.163 0.114 0.082 0.056 0.094
C9KA 0.163 0.114 0.195 0.056 0.094 0.082
C9GA 0.114 0.195 0.163 0.094 0.082 0.056
C9QB 0.114 0.195 0.163 0.094 0.082 0.056
C9YB 0.195 0.163 0.114 0.082 0.056 0.094
C9WA 0.163 0.114 0.195 0.056 0.094 0.082
C9OB 0.195 0.163 0.114 -0.082 -0.056 0.094
C9FC 0.163 0.114 0.195 -0.056 -0.094 0.082
C9DC 0.114 0.195 0.163 -0.094 -0.082 0.056
C9Z 0.163 0.114 0.195 0.056 -0.094 -0.082
C9UA 0.114 0.195 0.163 0.094 -0.082 -0.056
C9D 0.195 0.163 0.114 0.082 -0.056 -0.094
C10V 0.125 0.091 0.126 -0.051 -0.044 0.062
C10EA 0.091 0.126 0.125 -0.044 -0.062 0.051
C10H 0.125 0.091 0.126 -0.051 0.044 -0.062
C10PA 0.091 0.126 0.125 -0.044 0.062 -0.051
C10O 0.126 0.125 0.091 -0.062 0.051 -0.044
C10YA 0.126 0.125 0.091 -0.062 0.051 -0.044
C10PB 0.125 0.091 0.126 -0.051 0.044 -0.062
C10ZB 0.091 0.126 0.125 -0.044 0.062 -0.051
C10FB 0.125 0.091 0.126 -0.051 -0.044 0.062
C10MC 0.091 0.126 0.125 -0.044 -0.062 0.051
C10HB 0.126 0.125 0.091 -0.062 -0.051 0.044
C10Q 0.091 0.126 0.125 0.044 0.062 0.051
C10KA 0.126 0.125 0.091 0.062 0.051 0.044
C10GA 0.125 0.091 0.126 0.051 0.044 0.062
C10QB 0.125 0.091 0.126 0.051 0.044 0.062
C10YB 0.091 0.126 0.125 0.044 0.062 0.051
C10WA 0.126 0.125 0.091 0.062 0.051 0.044
C10OB 0.091 0.126 0.125 -0.044 -0.062 0.051
C10FC 0.126 0.125 0.091 -0.062 -0.051 0.044
C10DC 0.125 0.091 0.126 -0.051 -0.044 0.062
C10Z 0.126 0.125 0.091 0.062 -0.051 -0.044
C10UA 0.125 0.091 0.126 0.051 -0.044 -0.062
C10D 0.091 0.126 0.125 0.044 -0.062 -0.051
C11V 0.191 0.106 0.109 -0.062 -0.044 0.024
C11EA 0.106 0.109 0.191 -0.044 -0.024 0.062
C11H 0.191 0.106 0.109 -0.062 0.044 -0.024
C11PA 0.106 0.109 0.191 -0.044 0.024 -0.062
C11O 0.109 0.191 0.106 -0.024 0.062 -0.044
C11YA 0.109 0.191 0.106 -0.024 0.062 -0.044
C11PB 0.191 0.106 0.109 -0.062 0.044 -0.024
C11ZB 0.106 0.109 0.191 -0.044 0.024 -0.062
C11FB 0.191 0.106 0.109 -0.062 -0.044 0.024
C11MC 0.106 0.109 0.191 -0.044 -0.024 0.062
C11HB 0.109 0.191 0.106 -0.024 -0.062 0.044
C11Q 0.106 0.109 0.191 0.044 0.024 0.062
C11KA 0.109 0.191 0.106 0.024 0.062 0.044
C11GA 0.191 0.106 0.109 0.062 0.044 0.024
C11QB 0.191 0.106 0.109 0.062 0.044 0.024
C11YB 0.106 0.109 0.191 0.044 0.024 0.062
C11WA 0.109 0.191 0.106 0.024 0.062 0.044
C11OB 0.106 0.109 0.191 -0.044 -0.024 0.062
C11FC 0.109 0.191 0.106 -0.024 -0.062 0.044
C11DC 0.191 0.106 0.109 -0.062 -0.044 0.024
C11Z 0.109 0.191 0.106 0.024 -0.062 -0.044
C11UA 0.191 0.106 0.109 0.062 -0.044 -0.024
C11D 0.106 0.109 0.191 0.044 -0.024 -0.062
loop_
_geom_bond_atom_site_label_1
_geom_bond_atom_site_label_2
_geom_bond_site_symmetry_1
_geom_bond_site_symmetry_2
Co1 O2 1_555 1_555
Co2 O1 1_555 1_555
O1 C2 1_555 1_555
O2 C2 1_555 1_555
O3 C9 1_555 1_555
O4 C1 1_555 1_555
O5 C1 1_555 1_555
O6 Co2 1_555 1_555
O7 Co1 1_555 1_555
C1 C5 1_555 1_555
C2 C3 1_555 1_555
C3 C4 1_555 1_555
C4 H1 1_555 1_555
C5 C4 1_555 1_555
C6 C5 1_555 1_555
H2 C6 1_555 1_555
C7 C6 1_555 1_555
C8 C3 1_555 1_555
H3 C8 1_555 1_555
N1 C7 1_555 1_555
H4 N1 1_555 1_555
C9 N1 1_555 1_555
C10 C9 1_555 1_555
C11 C10 1_555 1_555
H5 C11 1_555 1_555
C12 O7 1_555 1_555
Co1V O2V 1_555 1_555
Co1EA O2EA 1_555 1_555
Co1H O2H 1_555 1_555
Co1PA O2PA 1_555 1_555
Co1O O2O 1_555 1_555
Co1W O2PB 1_555 1_555
Co1CA O2ZB 1_555 1_555
Co1I O2FB 1_555 1_555
Co1NA O2MC 1_555 1_555
Co1D O4 1_555 1_555
Co1GA O2GA 1_555 1_555
Co1UA O2UA 1_555 1_555
Co1Q O2Q 1_555 1_555
Co1F O4YA 1_555 1_555
Co1FA O4ZB 1_555 1_555
Co1TA O4MC 1_555 1_555
Co1S O4HB 1_555 1_555
Co1KA O2KA 1_555 1_555
Co1Z O2Z 1_555 1_555
Co1M O4QB 1_555 1_555
Co1DA O2YB 1_555 1_555
Co1E O4WA 1_555 1_555
Co1B O2WA 1_555 1_555
Co1P O2OB 1_555 1_555
Co1QA O4FC 1_555 1_555
Co1MA O2FC 1_555 1_555
Co1X O4DC 1_555 1_555
Co2V O1V 1_555 1_555
Co2EA O1EA 1_555 1_555
Co2H O1H 1_555 1_555
Co2PA O1PA 1_555 1_555
Co2O O1O 1_555 1_555
Co2W O1PB 1_555 1_555
Co2CA O1ZB 1_555 1_555
Co2I O1FB 1_555 1_555
Co2NA O1MC 1_555 1_555
Co2D O5 1_555 1_555
Co2GA O1GA 1_555 1_555
Co2UA O1UA 1_555 1_555
Co2Q O1Q 1_555 1_555
Co2F O5YA 1_555 1_555
Co2FA O5ZB 1_555 1_555
Co2TA O5MC 1_555 1_555
Co2S O5HB 1_555 1_555
Co2KA O1KA 1_555 1_555
Co2Z O1Z 1_555 1_555
Co2M O5QB 1_555 1_555
Co2DA O1YB 1_555 1_555
Co2E O5WA 1_555 1_555
Co2B O1WA 1_555 1_555
Co2P O1OB 1_555 1_555
Co2QA O5FC 1_555 1_555
Co2MA O1FC 1_555 1_555
Co2X O5DC 1_555 1_555
O1V C2V 1_555 1_555
O1EA C2EA 1_555 1_555
O1H C2H 1_555 1_555
O1PA C2PA 1_555 1_555
O1O C2O 1_555 1_555
O1YA Co2 1_555 1_555
O1PB C2PB 1_555 1_555
O1ZB C2ZB 1_555 1_555
O1FB C2FB 1_555 1_555
O1MC C2MC 1_555 1_555
O1HB Co2O 1_555 1_555
O1Q C2Q 1_555 1_555
O1KA C2KA 1_555 1_555
O1GA C2GA 1_555 1_555
O1QB Co2V 1_555 1_555
O1YB C2YB 1_555 1_555
O1WA C2WA 1_555 1_555
O1OB C2OB 1_555 1_555
O1FC C2FC 1_555 1_555
O1DC Co2GA 1_555 1_555
O1Z C2Z 1_555 1_555
O1UA C2UA 1_555 1_555
O1D Co2D 1_555 1_555
O1XB Co2EA 1_555 1_555
O1GB Co2H 1_555 1_555
O1KC Co2PA 1_555 1_555
O1W Co2W 1_555 1_555
O1CA Co2CA 1_555 1_555
O1I Co2I 1_555 1_555
O1NA Co2NA 1_555 1_555
O1CB Co2D 1_555 1_555
O2V C2V 1_555 1_555
O2EA C2EA 1_555 1_555
O2H C2H 1_555 1_555
O2PA C2PA 1_555 1_555
O2O C2O 1_555 1_555
O2YA Co1 1_555 1_555
O2PB C2PB 1_555 1_555
O2ZB C2ZB 1_555 1_555
O2FB C2FB 1_555 1_555
O2MC C2MC 1_555 1_555
O2HB Co1O 1_555 1_555
O2Q C2Q 1_555 1_555
O2KA C2KA 1_555 1_555
O2GA C2GA 1_555 1_555
O2QB Co1V 1_555 1_555
O2YB C2YB 1_555 1_555
O2WA C2WA 1_555 1_555
O2OB C2OB 1_555 1_555
O2FC C2FC 1_555 1_555
O2DC Co1GA 1_555 1_555
O2Z C2Z 1_555 1_555
O2UA C2UA 1_555 1_555
O2D Co1D 1_555 1_555
O2XB Co1EA 1_555 1_555
O2GB Co1H 1_555 1_555
O2KC Co1PA 1_555 1_555
O2W Co1W 1_555 1_555
O2CA Co1CA 1_555 1_555
O2I Co1I 1_555 1_555
O2NA Co1NA 1_555 1_555
O2CB Co1D 1_555 1_555
O3V C9V 1_555 1_555
O3EA C9EA 1_555 1_555
O3H C9H 1_555 1_555
O3PA C9PA 1_555 1_555
O3O C9O 1_555 1_555
O3YA C9YA 1_555 1_555
O3PB C9PB 1_555 1_555
O3ZB C9ZB 1_555 1_555
O3FB C9FB 1_555 1_555
O3MC C9MC 1_555 1_555
O3HB C9HB 1_555 1_555
O3Q C9Q 1_555 1_555
O3KA C9KA 1_555 1_555
O3GA C9GA 1_555 1_555
O3QB C9QB 1_555 1_555
O3YB C9YB 1_555 1_555
O3WA C9WA 1_555 1_555
O3OB C9OB 1_555 1_555
O3FC C9FC 1_555 1_555
O3DC C9DC 1_555 1_555
O3Z C9Z 1_555 1_555
O3UA C9UA 1_555 1_555
O3D C9D 1_555 1_555
O4V Co1O 1_555 1_555
O4EA Co1GA 1_555 1_555
O4H Co1 1_555 1_555
O4PA Co1UA 1_555 1_555
O4O Co1Q 1_555 1_555
O4YA C1YA 1_555 1_555
O4PB Co1O 1_555 1_555
O4ZB C1ZB 1_555 1_555
O4FB Co1 1_555 1_555
O4MC C1MC 1_555 1_555
O4HB C1HB 1_555 1_555
O4Q Co1V 1_555 1_555
O4KA Co1PA 1_555 1_555
O4GA Co1Z 1_555 1_555
O4QB C1QB 1_555 1_555
O4YB Co1GA 1_555 1_555
O4WA C1WA 1_555 1_555
O4OB Co1V 1_555 1_555
O4FC C1FC 1_555 1_555
O4DC C1DC 1_555 1_555
O4Z Co1EA 1_555 1_555
O4UA Co1KA 1_555 1_555
O4D Co1H 1_555 1_555
O4TB Co1EA 1_555 1_555
O4BB Co1H 1_555 1_555
O4IC Co1PA 1_555 1_555
O4LB Co1W 1_555 1_555
O4R Co1W 1_555 1_555
O4UB Co1CA 1_555 1_555
O4AA Co1CA 1_555 1_555
O4AB Co1I 1_555 1_555
O4G Co1I 1_555 1_555
O4HC Co1NA 1_555 1_555
O4JA Co1NA 1_555 1_555
O4XA Co1D 1_555 1_555
O5V Co2O 1_555 1_555
O5EA Co2GA 1_555 1_555
O5H Co2 1_555 1_555
O5PA Co2UA 1_555 1_555
O5O Co2Q 1_555 1_555
O5YA C1YA 1_555 1_555
O5PB Co2O 1_555 1_555
O5ZB C1ZB 1_555 1_555
O5FB Co2 1_555 1_555
O5MC C1MC 1_555 1_555
O5HB C1HB 1_555 1_555
O5Q Co2V 1_555 1_555
O5KA Co2PA 1_555 1_555
O5GA Co2Z 1_555 1_555
O5QB C1QB 1_555 1_555
O5YB Co2GA 1_555 1_555
O5WA C1WA 1_555 1_555
O5OB Co2V 1_555 1_555
O5FC C1FC 1_555 1_555
O5DC C1DC 1_555 1_555
O5Z Co2EA 1_555 1_555
O5UA Co2KA 1_555 1_555
O5D Co2H 1_555 1_555
O5TB Co2EA 1_555 1_555
O5BB Co2H 1_555 1_555
O5IC Co2PA 1_555 1_555
O5LB Co2W 1_555 1_555
O5R Co2W 1_555 1_555
O5UB Co2CA 1_555 1_555
O5AA Co2CA 1_555 1_555
O5AB Co2I 1_555 1_555
O5G Co2I 1_555 1_555
O5HC Co2NA 1_555 1_555
O5JA Co2NA 1_555 1_555
O5XA Co2D 1_555 1_555
O6V Co2V 1_555 1_555
O6EA Co2EA 1_555 1_555
O6H Co2H 1_555 1_555
O6PA Co2PA 1_555 1_555
O6O Co2O 1_555 1_555
O6W Co2W 1_555 1_555
O6CA Co2CA 1_555 1_555
O6I Co2I 1_555 1_555
O6NA Co2NA 1_555 1_555
O6D Co2D 1_555 1_555
O6GA Co2GA 1_555 1_555
O7V Co1V 1_555 1_555
O7EA Co1EA 1_555 1_555
O7H Co1H 1_555 1_555
O7PA Co1PA 1_555 1_555
O7O Co1O 1_555 1_555
O7W Co1W 1_555 1_555
O7CA Co1CA 1_555 1_555
O7I Co1I 1_555 1_555
O7NA Co1NA 1_555 1_555
O7D Co1D 1_555 1_555
O7GA Co1GA 1_555 1_555
C1V O4V 1_555 1_555
C1EA O4EA 1_555 1_555
C1H O4H 1_555 1_555
C1PA O4PA 1_555 1_555
C1O O4O 1_555 1_555
C1YA C5YA 1_555 1_555
C1PB O4PB 1_555 1_555
C1ZB C5ZB 1_555 1_555
C1FB O4FB 1_555 1_555
C1MC C5MC 1_555 1_555
C1HB C5HB 1_555 1_555
C1Q O4Q 1_555 1_555
C1KA O4KA 1_555 1_555
C1GA O4GA 1_555 1_555
C1QB C5QB 1_555 1_555
C1YB O4YB 1_555 1_555
C1WA C5WA 1_555 1_555
C1OB O4OB 1_555 1_555
C1FC C5FC 1_555 1_555
C1DC C5DC 1_555 1_555
C1Z O4Z 1_555 1_555
C1UA O4UA 1_555 1_555
C1D O4D 1_555 1_555
C2V C3V 1_555 1_555
C2EA C3EA 1_555 1_555
C2H C3H 1_555 1_555
C2PA C3PA 1_555 1_555
C2O C3O 1_555 1_555
C2YA O1YA 1_555 1_555
C2PB C3PB 1_555 1_555
C2ZB C3ZB 1_555 1_555
C2FB C3FB 1_555 1_555
C2MC C3MC 1_555 1_555
C2HB O1HB 1_555 1_555
C2Q C3Q 1_555 1_555
C2KA C3KA 1_555 1_555
C2GA C3GA 1_555 1_555
C2QB O1QB 1_555 1_555
C2YB C3YB 1_555 1_555
C2WA C3WA 1_555 1_555
C2OB C3OB 1_555 1_555
C2FC C3FC 1_555 1_555
C2DC O1DC 1_555 1_555
C2Z C3Z 1_555 1_555
C2UA C3UA 1_555 1_555
C2D O1D 1_555 1_555
C3V C4V 1_555 1_555
C3EA C4EA 1_555 1_555
C3H C4H 1_555 1_555
C3PA C4PA 1_555 1_555
C3O C4O 1_555 1_555
C3YA C2YA 1_555 1_555
C3PB C4PB 1_555 1_555
C3ZB C4ZB 1_555 1_555
C3FB C4FB 1_555 1_555
C3MC C4MC 1_555 1_555
C3HB C2HB 1_555 1_555
C3Q C4Q 1_555 1_555
C3KA C4KA 1_555 1_555
C3GA C4GA 1_555 1_555
C3QB C2QB 1_555 1_555
C3YB C4YB 1_555 1_555
C3WA C4WA 1_555 1_555
C3OB C4OB 1_555 1_555
C3FC C4FC 1_555 1_555
C3DC C2DC 1_555 1_555
C3Z C4Z 1_555 1_555
C3UA C4UA 1_555 1_555
C3D C2D 1_555 1_555
C4V H1V 1_555 1_555
C4EA H1EA 1_555 1_555
C4H H1H 1_555 1_555
C4PA H1PA 1_555 1_555
C4O H1O 1_555 1_555
C4YA C3YA 1_555 1_555
C4PB H1PB 1_555 1_555
C4ZB H1ZB 1_555 1_555
C4FB H1FB 1_555 1_555
C4MC H1MC 1_555 1_555
C4HB C3HB 1_555 1_555
C4Q H1Q 1_555 1_555
C4KA H1KA 1_555 1_555
C4GA H1GA 1_555 1_555
C4QB C3QB 1_555 1_555
C4YB H1YB 1_555 1_555
C4WA H1WA 1_555 1_555
C4OB H1OB 1_555 1_555
C4FC H1FC 1_555 1_555
C4DC C3DC 1_555 1_555
C4Z H1Z 1_555 1_555
C4UA H1UA 1_555 1_555
C4D C3D 1_555 1_555
H1YA C4YA 1_555 1_555
H1HB C4HB 1_555 1_555
H1QB C4QB 1_555 1_555
H1DC C4DC 1_555 1_555
H1D C4D 1_555 1_555
C5V C1V 1_555 1_555
C5EA C1EA 1_555 1_555
C5H C1H 1_555 1_555
C5PA C1PA 1_555 1_555
C5O C1O 1_555 1_555
C5YA C4YA 1_555 1_555
C5PB C1PB 1_555 1_555
C5ZB C4ZB 1_555 1_555
C5FB C1FB 1_555 1_555
C5MC C4MC 1_555 1_555
C5HB C4HB 1_555 1_555
C5Q C1Q 1_555 1_555
C5KA C1KA 1_555 1_555
C5GA C1GA 1_555 1_555
C5QB C4QB 1_555 1_555
C5YB C1YB 1_555 1_555
C5WA C4WA 1_555 1_555
C5OB C1OB 1_555 1_555
C5FC C4FC 1_555 1_555
C5DC C4DC 1_555 1_555
C5Z C1Z 1_555 1_555
C5UA C1UA 1_555 1_555
C5D C1D 1_555 1_555
C6V C5V 1_555 1_555
C6EA C5EA 1_555 1_555
C6H C5H 1_555 1_555
C6PA C5PA 1_555 1_555
C6O C5O 1_555 1_555
C6YA C5YA 1_555 1_555
C6PB C5PB 1_555 1_555
C6ZB C5ZB 1_555 1_555
C6FB C5FB 1_555 1_555
C6MC C5MC 1_555 1_555
C6HB C5HB 1_555 1_555
C6Q C5Q 1_555 1_555
C6KA C5KA 1_555 1_555
C6GA C5GA 1_555 1_555
C6QB C5QB 1_555 1_555
C6YB C5YB 1_555 1_555
C6WA C5WA 1_555 1_555
C6OB C5OB 1_555 1_555
C6FC C5FC 1_555 1_555
C6DC C5DC 1_555 1_555
C6Z C5Z 1_555 1_555
C6UA C5UA 1_555 1_555
C6D C5D 1_555 1_555
H2V C6V 1_555 1_555
H2EA C6EA 1_555 1_555
H2H C6H 1_555 1_555
H2PA C6PA 1_555 1_555
H2O C6O 1_555 1_555
H2YA C6YA 1_555 1_555
H2PB C6PB 1_555 1_555
H2ZB C6ZB 1_555 1_555
H2FB C6FB 1_555 1_555
H2MC C6MC 1_555 1_555
H2HB C6HB 1_555 1_555
H2Q C6Q 1_555 1_555
H2KA C6KA 1_555 1_555
H2GA C6GA 1_555 1_555
H2QB C6QB 1_555 1_555
H2YB C6YB 1_555 1_555
H2WA C6WA 1_555 1_555
H2OB C6OB 1_555 1_555
H2FC C6FC 1_555 1_555
H2DC C6DC 1_555 1_555
H2Z C6Z 1_555 1_555
H2UA C6UA 1_555 1_555
H2D C6D 1_555 1_555
C7V C6V 1_555 1_555
C7EA C6EA 1_555 1_555
C7H C6H 1_555 1_555
C7PA C6PA 1_555 1_555
C7O C6O 1_555 1_555
C7YA C6YA 1_555 1_555
C7PB C6PB 1_555 1_555
C7ZB C6ZB 1_555 1_555
C7FB C6FB 1_555 1_555
C7MC C6MC 1_555 1_555
C7HB C6HB 1_555 1_555
C7Q C6Q 1_555 1_555
C7KA C6KA 1_555 1_555
C7GA C6GA 1_555 1_555
C7QB C6QB 1_555 1_555
C7YB C6YB 1_555 1_555
C7WA C6WA 1_555 1_555
C7OB C6OB 1_555 1_555
C7FC C6FC 1_555 1_555
C7DC C6DC 1_555 1_555
C7Z C6Z 1_555 1_555
C7UA C6UA 1_555 1_555
C7D C6D 1_555 1_555
C8V C3V 1_555 1_555
C8EA C3EA 1_555 1_555
C8H C3H 1_555 1_555
C8PA C3PA 1_555 1_555
C8O C3O 1_555 1_555
C8YA C3YA 1_555 1_555
C8PB C3PB 1_555 1_555
C8ZB C3ZB 1_555 1_555
C8FB C3FB 1_555 1_555
C8MC C3MC 1_555 1_555
C8HB C3HB 1_555 1_555
C8Q C3Q 1_555 1_555
C8KA C3KA 1_555 1_555
C8GA C3GA 1_555 1_555
C8QB C3QB 1_555 1_555
C8YB C3YB 1_555 1_555
C8WA C3WA 1_555 1_555
C8OB C3OB 1_555 1_555
C8FC C3FC 1_555 1_555
C8DC C3DC 1_555 1_555
C8Z C3Z 1_555 1_555
C8UA C3UA 1_555 1_555
C8D C3D 1_555 1_555
H3V C8V 1_555 1_555
H3EA C8EA 1_555 1_555
H3H C8H 1_555 1_555
H3PA C8PA 1_555 1_555
H3O C8O 1_555 1_555
H3YA C8YA 1_555 1_555
H3PB C8PB 1_555 1_555
H3ZB C8ZB 1_555 1_555
H3FB C8FB 1_555 1_555
H3MC C8MC 1_555 1_555
H3HB C8HB 1_555 1_555
H3Q C8Q 1_555 1_555
H3KA C8KA 1_555 1_555
H3GA C8GA 1_555 1_555
H3QB C8QB 1_555 1_555
H3YB C8YB 1_555 1_555
H3WA C8WA 1_555 1_555
H3OB C8OB 1_555 1_555
H3FC C8FC 1_555 1_555
H3DC C8DC 1_555 1_555
H3Z C8Z 1_555 1_555
H3UA C8UA 1_555 1_555
H3D C8D 1_555 1_555
N1V C7V 1_555 1_555
N1EA C7EA 1_555 1_555
N1H C7H 1_555 1_555
N1PA C7PA 1_555 1_555
N1O C7O 1_555 1_555
N1YA C7YA 1_555 1_555
N1PB C7PB 1_555 1_555
N1ZB C7ZB 1_555 1_555
N1FB C7FB 1_555 1_555
N1MC C7MC 1_555 1_555
N1HB C7HB 1_555 1_555
N1Q C7Q 1_555 1_555
N1KA C7KA 1_555 1_555
N1GA C7GA 1_555 1_555
N1QB C7QB 1_555 1_555
N1YB C7YB 1_555 1_555
N1WA C7WA 1_555 1_555
N1OB C7OB 1_555 1_555
N1FC C7FC 1_555 1_555
N1DC C7DC 1_555 1_555
N1Z C7Z 1_555 1_555
N1UA C7UA 1_555 1_555
N1D C7D 1_555 1_555
H4V N1V 1_555 1_555
H4EA N1EA 1_555 1_555
H4H N1H 1_555 1_555
H4PA N1PA 1_555 1_555
H4O N1O 1_555 1_555
H4YA N1YA 1_555 1_555
H4PB N1PB 1_555 1_555
H4ZB N1ZB 1_555 1_555
H4FB N1FB 1_555 1_555
H4MC N1MC 1_555 1_555
H4HB N1HB 1_555 1_555
H4Q N1Q 1_555 1_555
H4KA N1KA 1_555 1_555
H4GA N1GA 1_555 1_555
H4QB N1QB 1_555 1_555
H4YB N1YB 1_555 1_555
H4WA N1WA 1_555 1_555
H4OB N1OB 1_555 1_555
H4FC N1FC 1_555 1_555
H4DC N1DC 1_555 1_555
H4Z N1Z 1_555 1_555
H4UA N1UA 1_555 1_555
H4D N1D 1_555 1_555
C9V N1V 1_555 1_555
C9EA N1EA 1_555 1_555
C9H N1H 1_555 1_555
C9PA N1PA 1_555 1_555
C9O N1O 1_555 1_555
C9YA N1YA 1_555 1_555
C9PB N1PB 1_555 1_555
C9ZB N1ZB 1_555 1_555
C9FB N1FB 1_555 1_555
C9MC N1MC 1_555 1_555
C9HB N1HB 1_555 1_555
C9Q N1Q 1_555 1_555
C9KA N1KA 1_555 1_555
C9GA N1GA 1_555 1_555
C9QB N1QB 1_555 1_555
C9YB N1YB 1_555 1_555
C9WA N1WA 1_555 1_555
C9OB N1OB 1_555 1_555
C9FC N1FC 1_555 1_555
C9DC N1DC 1_555 1_555
C9Z N1Z 1_555 1_555
C9UA N1UA 1_555 1_555
C9D N1D 1_555 1_555
C10V C11 1_555 1_555
C10EA C9EA 1_555 1_555
C10H C9H 1_555 1_555
C10PA C9PA 1_555 1_555
C10O C9O 1_555 1_555
C10YA C9YA 1_555 1_555
C10PB C9PB 1_555 1_555
C10ZB C9ZB 1_555 1_555
C10FB C9FB 1_555 1_555
C10MC C9MC 1_555 1_555
C10HB C9HB 1_555 1_555
C10Q C9Q 1_555 1_555
C10KA C9KA 1_555 1_555
C10GA C9GA 1_555 1_555
C10QB C9QB 1_555 1_555
C10YB C9YB 1_555 1_555
C10WA C9WA 1_555 1_555
C10OB C9OB 1_555 1_555
C10FC C9FC 1_555 1_555
C10DC C9DC 1_555 1_555
C10Z C9Z 1_555 1_555
C10UA C9UA 1_555 1_555
C10D C9D 1_555 1_555
C11V C10V 1_555 1_555
C11EA C10 1_555 1_555
C11H C10H 1_555 1_555
C11PA C10PA 1_555 1_555
C11O C10H 1_555 1_555
C11YA C10YA 1_555 1_555
C11PB C10PB 1_555 1_555
C11ZB C10YA 1_555 1_555
C11FB C10FB 1_555 1_555
C11MC C10MC 1_555 1_555
C11HB C10FB 1_555 1_555
C11Q C10Q 1_555 1_555
C11KA C10KA 1_555 1_555
C11GA C10Q 1_555 1_555
C11QB C10QB 1_555 1_555
C11YB C10YB 1_555 1_555
C11WA C10QB 1_555 1_555
C11OB C10OB 1_555 1_555
C11FC C10FC 1_555 1_555
C11DC C10OB 1_555 1_555
C11Z C10Z 1_555 1_555
C11UA C10UA 1_555 1_555
C11D C10Z 1_555 1_555
H5EA C11EA 1_555 1_555
H5V C11V 1_555 1_555
H5H C11H 1_555 1_555
H5O C11O 1_555 1_555
H5PA C11PA 1_555 1_555
H5YA C11YA 1_555 1_555
H5ZB C11ZB 1_555 1_555
H5PB C11PB 1_555 1_555
H5FB C11FB 1_555 1_555
H5HB C11HB 1_555 1_555
H5MC C11MC 1_555 1_555
H5Q C11Q 1_555 1_555
H5GA C11GA 1_555 1_555
H5KA C11KA 1_555 1_555
H5QB C11QB 1_555 1_555
H5WA C11WA 1_555 1_555
H5YB C11YB 1_555 1_555
H5OB C11OB 1_555 1_555
H5DC C11DC 1_555 1_555
H5FC C11FC 1_555 1_555
H5Z C11Z 1_555 1_555
H5D C11D 1_555 1_555
H5UA C11UA 1_555 1_555
C12V O7V 1_555 1_555
C12EA O7EA 1_555 1_555
C12H O7H 1_555 1_555
C12PA O7PA 1_555 1_555
C12O O7O 1_555 1_555
C12W O7W 1_555 1_555
C12CA O7CA 1_555 1_555
C12I O7I 1_555 1_555
C12NA O7NA 1_555 1_555
C12D O7D 1_555 1_555
C12GA O7GA 1_555 1_555
C7 C8 1_555 1_555
O2YA C2YA 1_555 1_555
O2HB C2HB 1_555 1_555
O2QB C2QB 1_555 1_555
O2DC C2DC 1_555 1_555
O2D C2D 1_555 1_555
O5V C1V 1_555 1_555
O5EA C1EA 1_555 1_555
O5H C1H 1_555 1_555
O5PA C1PA 1_555 1_555
O5O C1O 1_555 1_555
O5PB C1PB 1_555 1_555
O5FB C1FB 1_555 1_555
O5Q C1Q 1_555 1_555
O5KA C1KA 1_555 1_555
O5GA C1GA 1_555 1_555
O5YB C1YB 1_555 1_555
O5OB C1OB 1_555 1_555
O5Z C1Z 1_555 1_555
O5UA C1UA 1_555 1_555
O5D C1D 1_555 1_555
C4V C5V 1_555 1_555
C4EA C5EA 1_555 1_555
C4H C5H 1_555 1_555
C4PA C5PA 1_555 1_555
C4O C5O 1_555 1_555
C4PB C5PB 1_555 1_555
C4FB C5FB 1_555 1_555
C4Q C5Q 1_555 1_555
C4KA C5KA 1_555 1_555
C4GA C5GA 1_555 1_555
C4YB C5YB 1_555 1_555
C4OB C5OB 1_555 1_555
C4Z C5Z 1_555 1_555
C4UA C5UA 1_555 1_555
C4D C5D 1_555 1_555
C7V C8V 1_555 1_555
C7EA C8EA 1_555 1_555
C7H C8H 1_555 1_555
C7PA C8PA 1_555 1_555
C7O C8O 1_555 1_555
C7YA C8YA 1_555 1_555
C7PB C8PB 1_555 1_555
C7ZB C8ZB 1_555 1_555
C7FB C8FB 1_555 1_555
C7MC C8MC 1_555 1_555
C7HB C8HB 1_555 1_555
C7Q C8Q 1_555 1_555
C7KA C8KA 1_555 1_555
C7GA C8GA 1_555 1_555
C7QB C8QB 1_555 1_555
C7YB C8YB 1_555 1_555
C7WA C8WA 1_555 1_555
C7OB C8OB 1_555 1_555
C7FC C8FC 1_555 1_555
C7DC C8DC 1_555 1_555
C7Z C8Z 1_555 1_555
C7UA C8UA 1_555 1_555
C7D C8D 1_555 1_555
C9V C10V 1_555 1_555
C10EA C11V 1_555 1_555
C10EA C11EA 1_555 1_555
C10PA C11H 1_555 1_555
C10O C11PA 1_555 1_555
C10O C11O 1_555 1_555
C10PB C11YA 1_555 1_555
C10ZB C11PB 1_555 1_555
C10ZB C11ZB 1_555 1_555
C10MC C11FB 1_555 1_555
C10HB C11MC 1_555 1_555
C10HB C11HB 1_555 1_555
C10KA C11Q 1_555 1_555
C10GA C11KA 1_555 1_555
C10GA C11GA 1_555 1_555
C10YB C11QB 1_555 1_555
C10WA C11YB 1_555 1_555
C10WA C11WA 1_555 1_555
C10FC C11OB 1_555 1_555
C10DC C11FC 1_555 1_555
C10DC C11DC 1_555 1_555
C10UA C11Z 1_555 1_555
C10D C11UA 1_555 1_555
C10D C11D 1_555 1_555

#END
