
#######################################################################
#
#                 Cambridge Crystallographic Data Centre
#                                CCDC 
#
#######################################################################
#
# If this CIF has been generated from an entry in the Cambridge 
# Structural Database, then it will include bibliographic, chemical, 
# crystal, experimental, refinement or atomic coordinate data resulting 
# from the CCDC's data processing and validation procedures.
#
#######################################################################

data_QOJKAB
_chemical_formula_moiety         '(C9 H18 N9 O18 Zn3 3-)n'
_symmetry_cell_setting           tetragonal
_symmetry_space_group_name_H-M   'P 41 21 2'
_symmetry_Int_Tables_number      92
_space_group_name_Hall           'P 4abw 2nw'
loop_
_symmetry_equiv_pos_site_id
_symmetry_equiv_pos_as_xyz
1 x,y,z
2 1/2-y,1/2+x,1/4+z
3 -x,-y,1/2+z
4 1/2+y,1/2-x,3/4+z
5 1/2-x,1/2+y,1/4-z
6 y,x,-z
7 1/2+x,1/2-y,3/4-z
8 -y,-x,1/2-z
_cell_length_a                   9.0931(7)
_cell_length_b                   9.0931(7)
_cell_length_c                   38.333(3)
_cell_angle_alpha                90
_cell_angle_beta                 90
_cell_angle_gamma                90
_cell_volume                     3169.54
loop_
_atom_site_label
_atom_site_type_symbol
_atom_site_fract_x
_atom_site_fract_y
_atom_site_fract_z
Zn1 Zn 0.738049(19) 0.738049(19) 0.0000
Zn2 Zn 0.750845(15) 0.251631(14) -0.083727(4)
C1 C 0.51973(15) 0.18208(16) -0.13126(4)
C2 C 0.75007(16) 1.00606(15) -0.03610(4)
C3 C 0.70308(16) 0.50802(16) -0.04712(4)
O1 O 0.65221(12) 0.44284(11) -0.07511(3)
O2 O 0.66144(11) 0.19856(12) -0.12832(3)
O3 O 0.46237(11) 0.23184(14) -0.15995(3)
O4 O 0.69661(13) 1.13509(12) -0.04322(3)
O5 O 0.64851(12) 0.63830(11) -0.04054(3)
O6 O 0.69596(12) 0.94501(11) -0.00846(3)
O7 O 0.44448(13) 0.11958(15) -0.10833(3)
O8 O 0.84857(14) 0.94639(13) -0.05427(3)
O9 O 0.79650(12) 0.44878(12) -0.02809(3)
C3E C 0.50802(16) 0.70308(16) 0.04712(4)
O1E O 0.44284(11) 0.65221(12) 0.07511(3)
O5E O 0.63830(11) 0.64851(12) 0.04054(3)
O9E O 0.44878(12) 0.79650(12) 0.02809(3)
C2E C 1.00606(15) 0.75007(16) 0.03610(4)
O4E O 1.13509(12) 0.69661(13) 0.04322(3)
O6E O 0.94501(11) 0.69596(12) 0.00846(3)
O8E O 0.94639(13) 0.84857(14) 0.05427(3)
Zn2E Zn 0.251631(14) 0.750845(15) 0.083727(4)
C1F C 1.01973(15) 0.31792(16) -0.11874(4)
O2F O 1.16144(11) 0.30144(12) -0.12168(3)
O3F O 0.96237(11) 0.26816(14) -0.09005(3)
O7F O 0.94448(13) 0.38042(15) -0.14167(3)
O4_2 O 0.69661(13) 0.13509(12) -0.04322(3)
Zn2F Zn 0.250845(15) 0.248369(14) -0.166273(4)
Zn2_2 Zn 0.750845(15) 1.251631(14) -0.083727(4)
Zn2E_2 Zn 1.251631(14) 0.750845(15) 0.083727(4)
O2E O 0.19856(12) 0.66144(11) 0.12832(3)
O3A O 0.26816(14) 0.96237(11) 0.09005(3)
O4E_2 O 0.13509(12) 0.69661(13) 0.04322(3)
Zn2F_2 Zn 1.250845(15) 0.248369(14) -0.166273(4)
C4 C 0.7591(2) 0.97080(18) 0.12432(4)
N1 N 0.90226(17) 0.99103(17) 0.12010(4)
N2 N 0.68489(17) 0.89320(18) 0.10065(4)
N3 N 0.68935(17) 1.02813(19) 0.15130(4)
H1 H 0.95645 1.04597 0.13681
H2 H 0.95075 0.95056 0.10036
H3 H 0.73471 0.85168 0.08122
H4 H 0.58188 0.87960 0.10323
H5 H 0.74172 1.08485 0.16800
H6 H 0.58664 1.01270 0.15399
C5 C 0.99911(16) 0.2504(2) 0.03898(4)
N4 N 1.0810(2) 0.19530(19) 0.06388(4)
N5 N 0.9899(2) 0.39391(17) 0.03464(4)
N6 N 0.9229(2) 0.1618(2) 0.01830(5)
H7 H 1.1345 0.25909 0.07885
H8 H 1.0871 0.09181 0.06694
H9 H 1.0444 0.45793 0.04936
H10 H 0.9291 0.43334 0.01679
H11 H 0.9273 0.0583 0.02140
H12 H 0.8635 0.2024 0.00032
C6 C 1.2513(2) 0.49818(16) -0.04149(4)
N7 N 1.10602(16) 0.49090(16) -0.04065(4)
N8 N 1.32623(16) 0.42502(18) -0.06534(4)
N9 N 1.32145(17) 0.58072(17) -0.01799(4)
H13 H 1.05271 0.54410 -0.02348
H14 H 1.05503 0.43218 -0.05720
H15 H 1.43055 0.43043 -0.06584
H16 H 1.27554 0.36653 -0.08198
H17 H 1.42572 0.58718 -0.01833
H18 H 1.26686 0.63306 -0.00089
loop_
_geom_bond_atom_site_label_1
_geom_bond_atom_site_label_2
_geom_bond_site_symmetry_1
_geom_bond_site_symmetry_2
Zn1 O5 1_555 1_555
Zn2 O1 1_555 1_555
C1 O2 1_555 1_555
C2 O4 1_555 1_555
C3 O1 1_555 1_555
O2 Zn2 1_555 1_555
O3 C1 1_555 1_555
O4 Zn2_2 1_555 1_555
O5 C3 1_555 1_555
O6 Zn1 1_555 1_555
O7 C1 1_555 1_555
O8 C2 1_555 1_555
O9 C3 1_555 1_555
C4 N1 1_555 1_555
N1 H1 1_555 1_555
N2 C4 1_555 1_555
N3 C4 1_555 1_555
H2 N1 1_555 1_555
H3 N2 1_555 1_555
H4 N2 1_555 1_555
H5 N3 1_555 1_555
H6 N3 1_555 1_555
C5 N4 1_555 1_555
N4 H7 1_555 1_555
N5 C5 1_555 1_555
N6 C5 1_555 1_555
H8 N4 1_555 1_555
H9 N5 1_555 1_555
H10 N5 1_555 1_555
H11 N6 1_555 1_555
H12 N6 1_555 1_555
C6 N7 1_555 1_555
N7 H13 1_555 1_555
N8 C6 1_555 1_555
N9 C6 1_555 1_555
H14 N7 1_555 1_555
H15 N8 1_555 1_555
H16 N8 1_555 1_555
H17 N9 1_555 1_555
H18 N9 1_555 1_555
C3E O1E 1_555 1_555
O1E Zn2E 1_555 1_555
O5E Zn1 1_555 1_555
O9E C3E 1_555 1_555
C2E O4E 1_555 1_555
O4E Zn2E_2 1_555 1_555
O6E Zn1 1_555 1_555
O8E C2E 1_555 1_555
Zn2E O2E 1_555 1_555
C1F O2F 1_555 1_555
O2F Zn2F_2 1_555 1_555
O3F Zn2 1_555 1_555
O7F C1F 1_555 1_555
O4_2 Zn2 1_555 1_555
Zn2F O3 1_555 1_555
O3A Zn2E 1_555 1_555
O4E_2 Zn2E 1_555 1_555
C2 O6 1_555 1_555
C3E O5E 1_555 1_555
C2E O6E 1_555 1_555
C1F O3F 1_555 1_555

#END
