
#######################################################################
#
#                 Cambridge Crystallographic Data Centre
#                                CCDC 
#
#######################################################################
#
# If this CIF has been generated from an entry in the Cambridge 
# Structural Database, then it will include bibliographic, chemical, 
# crystal, experimental, refinement or atomic coordinate data resulting 
# from the CCDC's data processing and validation procedures.
#
#######################################################################

data_POBNEA
_chemical_formula_moiety         '(C30 H38 Co2 Li5 N6 O31 3-)n'
_symmetry_cell_setting           hexagonal
_symmetry_space_group_name_H-M   'P 63/m'
_symmetry_Int_Tables_number      176
_space_group_name_Hall           '-P 6c'
loop_
_symmetry_equiv_pos_site_id
_symmetry_equiv_pos_as_xyz
1 x,y,z
2 -y,x-y,z
3 -x+y,-x,z
4 x-y,x,1/2+z
5 y,-x+y,1/2+z
6 -x,-y,1/2+z
7 -x,-y,-z
8 y,-x+y,-z
9 x-y,x,-z
10 -x+y,-x,1/2-z
11 -y,x-y,1/2-z
12 x,y,1/2-z
_cell_length_a                   18.6580(16)
_cell_length_b                   18.6580(16)
_cell_length_c                   14.8400(12)
_cell_angle_alpha                90
_cell_angle_beta                 90
_cell_angle_gamma                120
_cell_volume                     4473.99
loop_
_atom_site_label
_atom_site_type_symbol
_atom_site_fract_x
_atom_site_fract_y
_atom_site_fract_z
_atom_site_U_iso_or_equiv
_atom_site_thermal_displace_type
Co1 Co 0.3333 0.6667 0.01918(12) 0.0512 Uani
Li1 Li 0.5000 0.5000 0.0000 0.1900 Uiso
N1 N 0.3444(4) 0.5734(4) 0.0868(4) 0.0517 Uiso
O1 O 0.4207(5) 0.5058(5) 0.0821(5) 0.0860 Uiso
O2 O 0.4932(6) 0.5907(5) -0.0696(6) 0.1030 Uiso
O3 O 0.4199(4) 0.6539(4) -0.0637(4) 0.0659 Uiso
C1 C 0.3044(5) 0.5351(5) 0.1682(5) 0.0460 Uiso
C2 C 0.3465(7) 0.5666(7) 0.2500 0.0470 Uiso
C3 C 0.2232(6) 0.4700(6) 0.1693(6) 0.0620 Uiso
C4 C 0.1843(9) 0.4387(9) 0.2500 0.0720 Uiso
C5 C 0.3980(5) 0.5565(5) 0.0530(6) 0.0570 Uiso
C6 C 0.4384(6) 0.6035(6) -0.0342(6) 0.0640 Uiso
O4 O 0.6241(14) 0.6103(15) 0.0995(16) 0.2550 Uiso
Co1K Co 0.3333 0.6667 0.48082(12) 0.0512 Uani
Li1K Li 0.5000 0.5000 0.5000 0.1900 Uiso
Li1A Li 0.5000 1.0000 0.0000 0.1900 Uiso
Li1D Li 0.5000 1.0000 0.5000 0.1900 Uiso
Li1B Li -0.0000 0.5000 0.0000 0.1900 Uiso
Li1C Li -0.0000 0.5000 0.5000 0.1900 Uiso
N1K N 0.3444(4) 0.5734(4) 0.4132(4) 0.0517 Uiso
N1A N 0.4266(4) 0.7710(6) 0.0868(4) 0.0517 Uiso
N1J N 0.4266(4) 0.7710(6) 0.4132(4) 0.0517 Uiso
N1B N 0.2290(6) 0.6556(4) 0.0868(4) 0.0517 Uiso
N1I N 0.2290(6) 0.6556(4) 0.4132(4) 0.0517 Uiso
O1K O 0.4207(5) 0.5058(5) 0.4179(5) 0.0860 Uiso
O1A O 0.4942(5) 0.9149(7) 0.0821(5) 0.0860 Uiso
O1J O 0.4942(5) 0.9149(7) 0.4179(5) 0.0860 Uiso
O1B O 0.0851(7) 0.5793(5) 0.0821(5) 0.0860 Uiso
O1I O 0.0851(7) 0.5793(5) 0.4179(5) 0.0860 Uiso
O1F O 0.5793(5) 0.4942(5) -0.0821(5) 0.0860 Uiso
O1E O 0.5793(5) 0.4942(5) 0.5821(5) 0.0860 Uiso
O1G O 0.5058(5) 1.0851(7) -0.0821(5) 0.0860 Uiso
O2K O 0.4932(6) 0.5907(5) 0.5696(6) 0.1030 Uiso
O2A O 0.4093(5) 0.9025(8) -0.0696(6) 0.1030 Uiso
O2J O 0.4093(5) 0.9025(8) 0.5696(6) 0.1030 Uiso
O2B O 0.0975(8) 0.5068(6) -0.0696(6) 0.1030 Uiso
O2I O 0.0975(8) 0.5068(6) 0.5696(6) 0.1030 Uiso
O2F O 0.5068(6) 0.4093(5) 0.0696(6) 0.1030 Uiso
O2E O 0.5068(6) 0.4093(5) 0.4304(6) 0.1030 Uiso
O2G O 0.5907(5) 1.0975(8) 0.0696(6) 0.1030 Uiso
O3K O 0.4199(4) 0.6539(4) 0.5637(4) 0.0659 Uiso
O3A O 0.3461(4) 0.7660(6) -0.0637(4) 0.0659 Uiso
O3J O 0.3461(4) 0.7660(6) 0.5637(4) 0.0659 Uiso
O3B O 0.2340(6) 0.5801(4) -0.0637(4) 0.0659 Uiso
O3I O 0.2340(6) 0.5801(4) 0.5637(4) 0.0659 Uiso
C1K C 0.3044(5) 0.5351(5) 0.3318(5) 0.0460 Uiso
C1A C 0.4649(5) 0.7693(7) 0.1682(5) 0.0460 Uiso
C1J C 0.4649(5) 0.7693(7) 0.3318(5) 0.0460 Uiso
C1B C 0.2307(7) 0.6956(5) 0.1682(5) 0.0460 Uiso
C1I C 0.2307(7) 0.6956(5) 0.3318(5) 0.0460 Uiso
C2A C 0.4334(7) 0.7799(10) 0.2500 0.0470 Uiso
C2B C 0.2201(10) 0.6535(7) 0.2500 0.0470 Uiso
C3K C 0.2232(6) 0.4700(6) 0.3307(6) 0.0620 Uiso
C3A C 0.5300(6) 0.7532(8) 0.1693(6) 0.0620 Uiso
C3J C 0.5300(6) 0.7532(8) 0.3307(6) 0.0620 Uiso
C3B C 0.2468(8) 0.7768(6) 0.1693(6) 0.0620 Uiso
C3I C 0.2468(8) 0.7768(6) 0.3307(6) 0.0620 Uiso
C4A C 0.5613(9) 0.7456(13) 0.2500 0.0720 Uiso
C4B C 0.2544(13) 0.8157(9) 0.2500 0.0720 Uiso
C5K C 0.3980(5) 0.5565(5) 0.4470(6) 0.0570 Uiso
C5A C 0.4435(5) 0.8415(7) 0.0530(6) 0.0570 Uiso
C5J C 0.4435(5) 0.8415(7) 0.4470(6) 0.0570 Uiso
C5B C 0.1585(7) 0.6020(5) 0.0530(6) 0.0570 Uiso
C5I C 0.1585(7) 0.6020(5) 0.4470(6) 0.0570 Uiso
C6K C 0.4384(6) 0.6035(6) 0.5342(6) 0.0640 Uiso
C6A C 0.3965(6) 0.8349(8) -0.0342(6) 0.0640 Uiso
C6J C 0.3965(6) 0.8349(8) 0.5342(6) 0.0640 Uiso
C6B C 0.1651(8) 0.5616(6) -0.0342(6) 0.0640 Uiso
C6I C 0.1651(8) 0.5616(6) 0.5342(6) 0.0640 Uiso
O4F O 0.3759(14) 0.3897(15) -0.0995(16) 0.2550 Uiso
O4K O 0.6241(14) 0.6103(15) 0.4005(16) 0.2550 Uiso
O4E O 0.3759(14) 0.3897(15) 0.5995(16) 0.2550 Uiso
O4A O 0.3897(15) 1.0138(21) 0.0995(16) 0.2550 Uiso
O4G O 0.6103(15) 0.9862(21) -0.0995(16) 0.2550 Uiso
Li2 Li 0.445(4) 0.319(4) 0.2500 0.1700 Uiso
Li3 Li 0.0000 -0.0000 0.2500 0.2200 Uiso
O5 O 0.4773(13) 0.4930(13) 0.2500 0.1630 Uiso
O6 O 0.4385(15) 0.1930(14) 0.1199(15) 0.2530 Uiso
O7 O 0.582(3) 0.399(3) 0.2500 0.3370 Uiso
O8 O 0.096(3) -0.002(3) -0.114(3) 0.5600 Uiso
O9 O 0.3201(15) 0.3504(14) 0.1481(19) 0.3040 Uiso
O10 O 0.3333 0.6667 -0.2500 0.4300 Uiso
O11 O 0.304(2) 0.223(3) 0.017(2) 0.3950 Uiso
loop_
_atom_site_aniso_label
_atom_site_aniso_U_11
_atom_site_aniso_U_22
_atom_site_aniso_U_33
_atom_site_aniso_U_23
_atom_site_aniso_U_13
_atom_site_aniso_U_12
Co1 0.0544(12) 0.0544(12) 0.0448(15) 0.000 0.000 0.0272(6)
Co1K 0.0544 0.0544 0.0448 0 0 0.0272
loop_
_geom_bond_atom_site_label_1
_geom_bond_atom_site_label_2
_geom_bond_site_symmetry_1
_geom_bond_site_symmetry_2
Co1 N1 1_555 1_555
Li1 O1 1_555 1_555
N1 C1 1_555 1_555
O1 C5 1_555 1_555
O2 Li1 1_555 1_555
O3 Co1 1_555 1_555
C1 C2 1_555 1_555
C2 C1K 1_555 1_555
C3 C1 1_555 1_555
C4 C3 1_555 1_555
C5 N1 1_555 1_555
C6 O2 1_555 1_555
O4 Li1 1_555 1_555
Co1K N1K 1_555 1_555
Li1K O1K 1_555 1_555
Li1A O1A 1_555 1_555
Li1D O1J 1_555 1_555
Li1B O1B 1_555 1_555
Li1C O1I 1_555 1_555
N1K C1K 1_555 1_555
N1A Co1 1_555 1_555
N1J Co1K 1_555 1_555
N1B Co1 1_555 1_555
N1I Co1K 1_555 1_555
O1K C5K 1_555 1_555
O1A C5A 1_555 1_555
O1J C5J 1_555 1_555
O1B C5B 1_555 1_555
O1I C5I 1_555 1_555
O1F Li1 1_555 1_555
O1E Li1K 1_555 1_555
O1G Li1A 1_555 1_555
O2K Li1K 1_555 1_555
O2A Li1A 1_555 1_555
O2J Li1D 1_555 1_555
O2B Li1B 1_555 1_555
O2I Li1C 1_555 1_555
O2F Li1 1_555 1_555
O2E Li1K 1_555 1_555
O2G Li1A 1_555 1_555
O3K Co1K 1_555 1_555
O3A Co1 1_555 1_555
O3J Co1K 1_555 1_555
O3B Co1 1_555 1_555
O3I Co1K 1_555 1_555
C1K C3K 1_555 1_555
C1A N1A 1_555 1_555
C1J N1J 1_555 1_555
C1B N1B 1_555 1_555
C1I N1I 1_555 1_555
C2A C1A 1_555 1_555
C2B C1B 1_555 1_555
C3K C4 1_555 1_555
C3A C1A 1_555 1_555
C3J C1J 1_555 1_555
C3B C1B 1_555 1_555
C3I C1I 1_555 1_555
C4A C3A 1_555 1_555
C4B C3B 1_555 1_555
C5K N1K 1_555 1_555
C5A N1A 1_555 1_555
C5J N1J 1_555 1_555
C5B N1B 1_555 1_555
C5I N1I 1_555 1_555
C6K O2K 1_555 1_555
C6A O2A 1_555 1_555
C6J O2J 1_555 1_555
C6B O2B 1_555 1_555
C6I O2I 1_555 1_555
O4F Li1 1_555 1_555
O4K Li1K 1_555 1_555
O4E Li1K 1_555 1_555
O4A Li1A 1_555 1_555
O4G Li1A 1_555 1_555
O3 C6 1_555 1_555
C5 C6 1_555 1_555
O3K C6K 1_555 1_555
O3A C6A 1_555 1_555
O3J C6J 1_555 1_555
O3B C6B 1_555 1_555
O3I C6I 1_555 1_555
C1J C2A 1_555 1_555
C1I C2B 1_555 1_555
C3J C4A 1_555 1_555
C3I C4B 1_555 1_555
C5K C6K 1_555 1_555
C5A C6A 1_555 1_555
C5J C6J 1_555 1_555
C5B C6B 1_555 1_555
C5I C6I 1_555 1_555

#END
