
#######################################################################
#
#                 Cambridge Crystallographic Data Centre
#                                CCDC 
#
#######################################################################
#
# If this CIF has been generated from an entry in the Cambridge 
# Structural Database, then it will include bibliographic, chemical, 
# crystal, experimental, refinement or atomic coordinate data resulting 
# from the CCDC's data processing and validation procedures.
#
#######################################################################

data_YARSIV
_chemical_formula_moiety         '(C30 H22 N8 O13 Zn3)n'
_symmetry_cell_setting           monoclinic
_symmetry_space_group_name_H-M   'C 2/c'
_symmetry_Int_Tables_number      15
_space_group_name_Hall           '-C 2yc'
loop_
_symmetry_equiv_pos_site_id
_symmetry_equiv_pos_as_xyz
1 x,y,z
2 -x,y,1/2-z
3 1/2+x,1/2+y,z
4 1/2-x,1/2+y,1/2-z
5 -x,-y,-z
6 x,-y,1/2+z
7 1/2-x,1/2-y,-z
8 1/2+x,1/2-y,1/2+z
_cell_length_a                   15.109(3)
_cell_length_b                   20.800(4)
_cell_length_c                   12.030(2)
_cell_angle_alpha                90
_cell_angle_beta                 118.22(3)
_cell_angle_gamma                90
_cell_volume                     3331.26
loop_
_atom_site_label
_atom_site_type_symbol
_atom_site_fract_x
_atom_site_fract_y
_atom_site_fract_z
O1 O 0.41684(18) 0.33312(12) 0.0902(2)
O2 O 0.37222(18) 0.28398(12) 0.2643(2)
N1 N 0.0126(2) 0.35804(13) 0.0483(3)
C1 C -0.0500(3) 0.39108(18) 0.0811(4)
C2 C -0.0059(3) 0.29705(17) 0.0551(4)
Zn1 Zn 0.12821(3) 0.383018(18) 0.00952(4)
Zn2 Zn 0.5000 0.28027(3) 0.2500
O3 O 0.21523(18) 0.31740(13) 0.1513(3)
O4 O 0.26023(19) 0.37015(12) -0.0163(2)
O5 O 0.44531(18) 0.05573(11) 0.1475(2)
C3 C -0.2676(3) 0.0461(2) 0.2484(4)
N2 N -0.3068(2) -0.03651(13) 0.1167(3)
N3 N -0.2295(2) 0.05685(14) 0.1663(3)
C4 C 0.3028(3) 0.31129(16) 0.1719(3)
N4 N -0.0768(2) 0.28879(13) 0.0903(3)
C5 C -0.1848(3) 0.11505(17) 0.1532(3)
C6 C 0.3286(3) 0.34077(16) 0.0722(3)
C7 C -0.2551(3) 0.00559(17) 0.0903(4)
C8 C -0.1135(3) 0.22911(16) 0.1112(3)
C9 C 0.5000 0.1566(2) 0.2500
C10 C -0.2062(3) 0.17142(19) 0.1927(4)
C11 C -0.0912(3) 0.17185(18) 0.0708(4)
C12 C 0.5000 0.0823(2) 0.2500
C13 C -0.1263(3) 0.11451(19) 0.0939(4)
C14 C -0.1698(3) 0.22872(18) 0.1724(4)
C15 C -0.1056(3) 0.34927(18) 0.1061(4)
C16 C -0.3144(3) -0.0106(2) 0.2164(4)
O6 O 0.44608(19) 0.18523(11) 0.1490(2)
H1 H -0.259(3) 0.0764(17) 0.316(3)
H2 H -0.182(3) 0.2679(17) 0.199(3)
H3 H -0.241(3) -0.0006(16) 0.025(3)
H4 H -0.049(2) 0.4361(17) 0.081(3)
H5 H 0.027(3) 0.2667(18) 0.038(3)
H6 H -0.246(3) 0.1718(18) 0.230(4)
H7 H -0.350(3) -0.0310(19) 0.251(4)
H8 H -0.149(3) 0.3554(19) 0.132(4)
H9 H -0.112(3) 0.076(2) 0.070(4)
H10 H -0.053(3) 0.173(2) 0.026(4)
O1A O 0.58316(18) 0.33312(12) 0.4098(2)
O2A O 0.62778(18) 0.28398(12) 0.2357(2)
N1B N 0.5126(2) 0.85804(13) 0.0483(3)
N1A N 0.9874(2) 0.35804(13) 0.4517(3)
C1B C 0.4500(3) 0.89108(18) 0.0811(4)
C2B C 0.4941(3) 0.79705(17) 0.0551(4)
Zn1A Zn 0.87179(3) 0.383018(18) 0.49048(4)
Zn1F Zn 0.37179(3) 0.116982(18) -0.00952(4)
Zn1B Zn -0.37179(3) -0.116982(18) 0.00952(4)
Zn1G Zn 0.62821(3) 0.116982(18) 0.50952(4)
Zn1B_2 Zn 0.62821(3) 0.883018(18) 0.00952(4)
O3A O 0.78477(18) 0.31740(13) 0.3487(3)
O4A O 0.73977(19) 0.37015(12) 0.5163(2)
O5A O 0.55469(18) 0.05573(11) 0.3525(2)
O5F O 0.05469(18) 0.44427(11) -0.1475(2)
O5G O 0.94531(18) 0.44427(11) 0.6475(2)
C3B C 0.2324(3) 0.5461(2) 0.2484(4)
N2B N 0.1932(2) 0.46349(13) 0.1167(3)
N2C N 0.8068(2) 0.46349(13) 0.3833(3)
N3B N 0.2705(2) 0.55685(14) 0.1663(3)
C4A C 0.6972(3) 0.31129(16) 0.3281(3)
N4B N 0.4232(2) 0.78879(13) 0.0903(3)
C5B C 0.3152(3) 0.61505(17) 0.1532(3)
C6A C 0.6714(3) 0.34077(16) 0.4278(3)
C7B C 0.2449(3) 0.50559(17) 0.0903(4)
C8B C 0.3865(3) 0.72911(16) 0.1112(3)
C10B C 0.2938(3) 0.67142(19) 0.1927(4)
C11B C 0.4088(3) 0.67185(18) 0.0708(4)
C13B C 0.3737(3) 0.61451(19) 0.0939(4)
C14B C 0.3302(3) 0.72872(18) 0.1724(4)
C15B C 0.3944(3) 0.84927(18) 0.1061(4)
C16B C 0.1856(3) 0.4894(2) 0.2164(4)
O6A O 0.55392(19) 0.18523(11) 0.3510(2)
O6F O 0.05392(19) 0.31477(11) -0.1490(2)
O6G O 0.94608(19) 0.31477(11) 0.6490(2)
H1B H 0.241(3) 0.5764(17) 0.316(3)
H2B H 0.318(3) 0.7679(17) 0.199(3)
H3B H 0.259(3) 0.4994(16) 0.025(3)
H4B H 0.451(2) 0.9361(17) 0.081(3)
H5B H 0.527(3) 0.7667(18) 0.038(3)
H6B H 0.254(3) 0.6718(18) 0.230(4)
H7B H 0.150(3) 0.4690(19) 0.251(4)
H8B H 0.351(3) 0.8554(19) 0.132(4)
H9B H 0.388(3) 0.576(2) 0.070(4)
H10B H 0.447(3) 0.673(2) 0.026(4)
O7 O 0.4919(6) 0.4647(2) 0.1040(11)
H11 H 0.4452 0.4705 0.0291
H12 H 0.4605 0.4390 0.1280
loop_
_geom_bond_atom_site_label_1
_geom_bond_atom_site_label_2
_geom_bond_site_symmetry_1
_geom_bond_site_symmetry_2
O1 Zn2 1_555 1_555
O2 Zn2 1_555 1_555
N1 C1 1_555 1_555
C1 C15 1_555 1_555
C2 N1 1_555 1_555
Zn1 N1 1_555 1_555
Zn2 O6 1_555 1_555
O3 Zn1 1_555 1_555
O4 Zn1 1_555 1_555
O5 C12 1_555 1_555
C3 N3 1_555 1_555
N2 C7 1_555 1_555
N3 C5 1_555 1_555
C4 O2 1_555 1_555
N4 C2 1_555 1_555
C5 C10 1_555 1_555
C6 O1 1_555 1_555
C7 N3 1_555 1_555
C8 N4 1_555 1_555
C9 C12 1_555 1_555
C10 C14 1_555 1_555
C11 C8 1_555 1_555
C12 O5A 1_555 1_555
C13 C5 1_555 1_555
C14 C8 1_555 1_555
C15 N4 1_555 1_555
C16 C3 1_555 1_555
O6 C9 1_555 1_555
H1 C3 1_555 1_555
H2 C14 1_555 1_555
H3 C7 1_555 1_555
H4 C1 1_555 1_555
H5 C2 1_555 1_555
H6 C10 1_555 1_555
H7 C16 1_555 1_555
H8 C15 1_555 1_555
H9 C13 1_555 1_555
H10 C11 1_555 1_555
O7 H11 1_555 1_555
H12 O7 1_555 1_555
O1A Zn2 1_555 1_555
O2A Zn2 1_555 1_555
N1B C1B 1_555 1_555
N1A Zn1A 1_555 1_555
C1B C15B 1_555 1_555
C2B N1B 1_555 1_555
Zn1A O3A 1_555 1_555
Zn1F O5 1_555 1_555
Zn1B N2 1_555 1_555
Zn1G O5A 1_555 1_555
Zn1B_2 N1B 1_555 1_555
O3A C4A 1_555 1_555
O4A Zn1A 1_555 1_555
O5F Zn1 1_555 1_555
O5G Zn1A 1_555 1_555
C3B N3B 1_555 1_555
N2B Zn1 1_555 1_555
N2C Zn1A 1_555 1_555
N3B C5B 1_555 1_555
C4A O2A 1_555 1_555
N4B C2B 1_555 1_555
C5B C10B 1_555 1_555
C6A O1A 1_555 1_555
C7B N2B 1_555 1_555
C8B N4B 1_555 1_555
C10B C14B 1_555 1_555
C11B C8B 1_555 1_555
C13B C5B 1_555 1_555
C14B C8B 1_555 1_555
C15B N4B 1_555 1_555
C16B C3B 1_555 1_555
O6A Zn2 1_555 1_555
O6F Zn1 1_555 1_555
O6G Zn1A 1_555 1_555
H1B C3B 1_555 1_555
H2B C14B 1_555 1_555
H3B C7B 1_555 1_555
H4B C1B 1_555 1_555
H5B C2B 1_555 1_555
H6B C10B 1_555 1_555
H7B C16B 1_555 1_555
H8B C15B 1_555 1_555
H9B C13B 1_555 1_555
H10B C11B 1_555 1_555
O3 C4 1_555 1_555
O4 C6 1_555 1_555
N2 C16 1_555 1_555
C4 C6 1_555 1_555
C9 O6A 1_555 1_555
C11 C13 1_555 1_555
O6 Zn1F 1_555 1_555
Zn1G O6A 1_555 1_555
O4A C6A 1_555 1_555
N2B C16B 1_555 1_555
N3B C7B 1_555 1_555
C4A C6A 1_555 1_555
C11B C13B 1_555 1_555

#END
