
#######################################################################
#
#                 Cambridge Crystallographic Data Centre
#                                CCDC 
#
#######################################################################
#
# If this CIF has been generated from an entry in the Cambridge 
# Structural Database, then it will include bibliographic, chemical, 
# crystal, experimental, refinement or atomic coordinate data resulting 
# from the CCDC's data processing and validation procedures.
#
#######################################################################

data_NABVAQ
_chemical_formula_moiety         'C192 H84 O52 Zr22'
_symmetry_cell_setting           rhombohedral
_symmetry_space_group_name_H-M   'R -3 m'
_symmetry_Int_Tables_number      166
_space_group_name_Hall           '-R 3 2"'
loop_
_symmetry_equiv_pos_site_id
_symmetry_equiv_pos_as_xyz
1 x,y,z
2 -y,x-y,z
3 -x+y,-x,z
4 y,x,-z
5 x-y,-y,-z
6 -x,-x+y,-z
7 2/3+x,1/3+y,1/3+z
8 2/3-y,1/3+x-y,1/3+z
9 2/3-x+y,1/3-x,1/3+z
10 2/3+y,1/3+x,1/3-z
11 2/3+x-y,1/3-y,1/3-z
12 2/3-x,1/3-x+y,1/3-z
13 1/3+x,2/3+y,2/3+z
14 1/3-y,2/3+x-y,2/3+z
15 1/3-x+y,2/3-x,2/3+z
16 1/3+y,2/3+x,2/3-z
17 1/3+x-y,2/3-y,2/3-z
18 1/3-x,2/3-x+y,2/3-z
19 -x,-y,-z
20 y,-x+y,-z
21 x-y,x,-z
22 -y,-x,z
23 -x+y,y,z
24 x,x-y,z
25 1/3-x,2/3-y,2/3-z
26 1/3+y,2/3-x+y,2/3-z
27 1/3+x-y,2/3+x,2/3-z
28 1/3-y,2/3-x,2/3+z
29 1/3-x+y,2/3+y,2/3+z
30 1/3+x,2/3+x-y,2/3+z
31 2/3-x,1/3-y,1/3-z
32 2/3+y,1/3-x+y,1/3-z
33 2/3+x-y,1/3+x,1/3-z
34 2/3-y,1/3-x,1/3+z
35 2/3-x+y,1/3+y,1/3+z
36 2/3+x,1/3+x-y,1/3+z
_cell_length_a                   28.1333(9)
_cell_length_b                   28.1333(9)
_cell_length_c                   69.411(5)
_cell_angle_alpha                90
_cell_angle_beta                 90
_cell_angle_gamma                120
_cell_volume                     47577.4
loop_
_atom_site_label
_atom_site_type_symbol
_atom_site_fract_x
_atom_site_fract_y
_atom_site_fract_z
Zr1 Zr 0.708160(10) 0.291840(10) 0.136153(7)
Zr2 Zr 0.625142(10) 0.25028(2) 0.095050(7)
O1 O 0.54339(11) 0.17956(10) 0.10313(4)
O2 O 0.51633(10) 0.20740(10) 0.12965(4)
O3 O 0.71358(6) 0.28642(6) 0.10366(5)
O4 O 0.6667 0.3333 0.08924(8)
O5 O 0.63164(6) 0.26328(13) 0.12423(5)
O6 O 0.6667 0.3333 0.15047(9)
O7 O 0.91167(18) 0.00646(13) -0.17262(4)
O8 O 0.66966(12) 0.24588(13) 0.06934(4)
C1 C 0.51204(16) 0.17167(17) 0.11728(7)
C2 C 0.46434(17) 0.11451(17) 0.11985(7)
C3 C 0.42653(19) 0.1035(2) 0.13385(8)
H1 H 0.4303 0.1319 0.1418
C4 C 0.3818(2) 0.0505(2) 0.13672(9)
H2 H 0.3564 0.0438 0.1464
C5 C 0.3762(2) 0.0087(2) 0.12510(10)
C6 C 0.4172(3) 0.0191(2) 0.11172(10)
H3 H 0.4158 -0.0098 0.1048
C7 C 0.4602(2) 0.0724(2) 0.10864(9)
H4 H 0.4860 0.0793 0.0991
C8 C 0.3320(2) -0.0466(2) 0.12684(10)
C9 C 0.2924(2) -0.0911(2) 0.12883(10)
C10 C 0.2434(2) -0.1437(2) 0.13009(10)
C11 C 0.2047(2) -0.1528(2) 0.14373(10)
C12 C 0.2118(3) -0.1139(3) 0.15805(11)
H5 H 0.2441 -0.0801 0.1578
C13 C 0.1754(3) -0.1227(3) 0.17172(12)
C14 C 0.2362(2) -0.1846(2) 0.11644(10)
C15 C 0.2769(3) -0.1777(3) 0.10186(12)
H6 H 0.3101 -0.1448 0.1016
C16 C 0.2687(3) -0.2163(3) 0.08884(14)
C17 C 0.71742(14) 0.28258(14) 0.06190(11)
C18 C 0.73175(16) 0.26825(16) 0.04296(12)
C19 C 0.6936(3) 0.2195(3) 0.03407(11)
H7 H 0.6594 0.1963 0.0395
C20 C 0.7099(4) 0.2074(3) 0.01622(13)
H8 H 0.6859 0.1749 0.0099
C21 C 0.7588(3) 0.2412(3) 0.0082(2)
C22 C 0.7732(3) 0.2268(3) -0.0109(2)
C23 C 0.7850(3) 0.2150(3) -0.0248(2)
C24 C 0.8012(3) 0.1988(3) -0.04284(18)
C25 C 0.8518(5) 0.2355(5) -0.05017(15)
C26 C 0.8865(6) 0.2899(6) -0.0431(2)
H9 H 0.8754 0.3016 -0.0323
C27 C 0.9324(7) 0.3228(7) -0.0511(2)
H10 H 0.9534 0.3583 -0.0464
C28 C 0.9514(6) 0.3054(6) -0.0670(3)
H11 H 0.9862 0.3291 -0.0719
C29 C 0.9215(5) 0.2567(6) -0.0754(2)
H12 H 0.9351 0.2485 -0.0864
C30 C 0.8695(5) 0.2168(5) -0.06810(15)
C31 C 0.8338(3) 0.1662(3) -0.07514(19)
C32 C 0.8525(3) 0.1475(3) -0.09229(18)
C33 C 0.8664(3) 0.1336(3) -0.1048(2)
C34 C 0.8864(2) 0.1136(2) -0.12035(17)
C35 C 0.9387(3) 0.1468(3) -0.12766(12)
H13 H 0.9611 0.1817 -0.1226
C36 C 0.9579(3) 0.1267(3) -0.14309(10)
H14 H 0.9930 0.1488 -0.1480
C37 C 0.94470(33) 0.05534(14) -0.16672(10)
C38 C 0.92499(34) 0.07503(15) -0.15059(11)
O1U O -0.17956(10) -0.54339(11) 0.10313(4)
O2U O -0.20740(10) -0.51633(10) 0.12965(4)
C1U C -0.17167(17) -0.51204(16) 0.11728(7)
C2U C -0.11451(17) -0.46434(17) 0.11985(7)
C3U C -0.1035(2) -0.42653(19) 0.13385(8)
H1U H -0.1319 -0.4303 0.1418
C4U C -0.0505(2) -0.3818(2) 0.13672(9)
H2U H -0.0438 -0.3564 0.1464
C5U C -0.0087(2) -0.3762(2) 0.12510(10)
C6U C -0.0191(2) -0.4172(3) 0.11172(10)
H3U H 0.0098 -0.4158 0.1048
C7U C -0.0724(2) -0.4602(2) 0.10864(9)
H4U H -0.0793 -0.4860 0.0991
C8U C 0.0466(2) -0.3320(2) 0.12684(10)
C9U C 0.0911(2) -0.2924(2) 0.12883(10)
C10U C 0.1437(2) -0.2434(2) 0.13009(10)
C11U C 0.1528(2) -0.2047(2) 0.14373(10)
C12U C 0.1139(3) -0.2118(3) 0.15805(11)
H5U H 0.0801 -0.2441 0.1578
C13U C 0.1227(3) -0.1754(3) 0.17172(12)
C14U C 0.1846(2) -0.2362(2) 0.11644(10)
C15U C 0.1777(3) -0.2769(3) 0.10186(12)
H6U H 0.1448 -0.3101 0.1016
C16U C 0.2163(3) -0.2687(3) 0.08884(14)
O7U O 0.99354(13) 0.08833(18) -0.17262(4)
O8U O 0.75412(13) 0.33034(12) 0.06934(4)
C19U C 0.7805(3) 0.3064(3) 0.03407(11)
H7U H 0.8037 0.3406 0.0395
C20U C 0.7926(3) 0.2901(4) 0.01622(13)
H8U H 0.8251 0.3141 0.0099
C25U C 0.7645(5) 0.1482(5) -0.05017(15)
C26U C 0.7101(6) 0.1135(6) -0.0431(2)
H9U H 0.6984 0.1246 -0.0323
C27U C 0.6772(7) 0.0676(7) -0.0511(2)
H10U H 0.6417 0.0466 -0.0464
C28U C 0.6946(6) 0.0486(6) -0.0670(3)
H11U H 0.6709 0.0138 -0.0719
C29U C 0.7433(6) 0.0785(5) -0.0754(2)
H12U H 0.7515 0.0649 -0.0864
C30U C 0.7832(5) 0.1305(5) -0.06810(15)
C35U C 0.8532(3) 0.0613(3) -0.12766(12)
H13U H 0.8183 0.0389 -0.1226
C36U C 0.8733(3) 0.0421(3) -0.14309(10)
H14U H 0.8512 0.0070 -0.1480
Zr1A Zr -0.291840(10) -0.583680(14) 0.136153(7)
Zr2A Zr -0.25028(2) -0.625138(22) 0.095050(7)
O1A O -0.17956(10) -0.63617(15) 0.10313(4)
O2A O -0.20740(10) -0.69107(14) 0.12965(4)
O3A O -0.28642(6) -0.57284(8) 0.10366(5)
O5A O -0.26328(13) -0.63164(14) 0.12423(5)
O7A O -0.00646(13) -0.09479(22) -0.17262(4)
O8A O -0.24588(13) -0.57622(18) 0.06934(4)
C1A C -0.17167(17) -0.65963(23) 0.11728(7)
C2A C -0.11451(17) -0.65017(24) 0.11985(7)
C3A C -0.1035(2) -0.67697(28) 0.13385(8)
H1A H -0.1319 -0.7016 0.1418
C4A C -0.0505(2) -0.6687(3) 0.13672(9)
H2A H -0.0438 -0.6874 0.1464
C5A C -0.0087(2) -0.6325(3) 0.12510(10)
C6A C -0.0191(2) -0.6019(4) 0.11172(10)
H3A H 0.0098 -0.5744 0.1048
C7A C -0.0724(2) -0.6122(3) 0.10864(9)
H4A H -0.0793 -0.5933 0.0991
C8A C 0.0466(2) -0.6214(3) 0.12684(10)
C9A C 0.0911(2) -0.6165(3) 0.12883(10)
C10A C 0.1437(2) -0.6129(3) 0.13009(10)
C11A C 0.1528(2) -0.6425(3) 0.14373(10)
C12A C 0.1139(3) -0.6743(4) 0.15805(11)
H5A H 0.0801 -0.6758 0.1578
C13A C 0.1227(3) -0.7019(4) 0.17172(12)
C14A C 0.1846(2) -0.5792(3) 0.11644(10)
C15A C 0.1777(3) -0.5454(4) 0.10186(12)
H6A H 0.1448 -0.5451 0.1016
C16A C 0.2163(3) -0.5150(4) 0.08884(14)
C17A C -0.28258(14) -0.56516(20) 0.06190(11)
C18A C -0.26825(16) -0.53650(23) 0.04296(12)
C19A C -0.2195(3) -0.5259(4) 0.03407(11)
H7A H -0.1963 -0.5369 0.0395
C20A C -0.2074(3) -0.4975(5) 0.01622(13)
H8A H -0.1749 -0.4890 0.0099
C21A C -0.2412(3) -0.4824(4) 0.0082(2)
C22A C -0.2268(3) -0.4536(4) -0.0109(2)
C23A C -0.2150(3) -0.4300(4) -0.0248(2)
C24A C -0.1988(3) -0.3976(4) -0.04284(18)
C25A C -0.2355(5) -0.3837(7) -0.05017(15)
C26A C -0.2899(6) -0.4034(8) -0.0431(2)
H9A H -0.3016 -0.4262 -0.0323
C27A C -0.3228(7) -0.3904(10) -0.0511(2)
H10A H -0.3583 -0.4049 -0.0464
C28A C -0.3054(6) -0.3540(8) -0.0670(3)
H11A H -0.3291 -0.3429 -0.0719
C29A C -0.2567(6) -0.3352(8) -0.0754(2)
H12A H -0.2485 -0.3134 -0.0864
C30A C -0.2168(5) -0.3473(7) -0.06810(15)
C31A C -0.1662(3) -0.3324(4) -0.07514(19)
C32A C -0.1475(3) -0.2950(4) -0.09229(18)
C33A C -0.1336(3) -0.2672(4) -0.1048(2)
C34A C -0.1136(2) -0.2272(3) -0.12035(17)
C35A C -0.1468(3) -0.2081(4) -0.12766(12)
H13A H -0.1817 -0.2206 -0.1226
C36A C -0.1267(3) -0.1688(4) -0.14309(10)
H14A H -0.1488 -0.1558 -0.1480
C37A C -0.05534(14) -0.11064(36) -0.16672(10)
C38A C -0.07503(15) -0.15004(37) -0.15059(11)
O1W O 0.54339(11) -0.63617(15) 0.10313(4)
O2W O 0.51633(10) -0.69107(14) 0.12965(4)
C1W C 0.51204(16) -0.65963(23) 0.11728(7)
C2W C 0.46434(17) -0.65017(24) 0.11985(7)
C3W C 0.42653(19) -0.67697(28) 0.13385(8)
H1W H 0.4303 -0.7016 0.1418
C4W C 0.3818(2) -0.6687(3) 0.13672(9)
H2W H 0.3564 -0.6874 0.1464
C5W C 0.3762(2) -0.6325(3) 0.12510(10)
C6W C 0.4172(3) -0.6019(4) 0.11172(10)
H3W H 0.4158 -0.5744 0.1048
C7W C 0.4602(2) -0.6122(3) 0.10864(9)
H4W H 0.4860 -0.5933 0.0991
C8W C 0.3320(2) -0.6214(3) 0.12684(10)
C9W C 0.2924(2) -0.6165(3) 0.12883(10)
C10W C 0.2434(2) -0.6129(3) 0.13009(10)
C11W C 0.2047(2) -0.6425(3) 0.14373(10)
C12W C 0.2118(3) -0.6743(4) 0.15805(11)
H5W H 0.2441 -0.6758 0.1578
C13W C 0.1754(3) -0.7019(4) 0.17172(12)
C14W C 0.2362(2) -0.5792(3) 0.11644(10)
C15W C 0.2769(3) -0.5454(4) 0.10186(12)
H6W H 0.3101 -0.5451 0.1016
C16W C 0.2687(3) -0.5150(4) 0.08884(14)
O7W O -0.08833(18) -0.09479(22) -0.17262(4)
O8W O -0.33034(12) -0.57622(18) 0.06934(4)
C19W C -0.3064(3) -0.5259(4) 0.03407(11)
H7W H -0.3406 -0.5369 0.0395
C20W C -0.2901(4) -0.4975(5) 0.01622(13)
H8W H -0.3141 -0.4890 0.0099
C25W C -0.1482(5) -0.3837(7) -0.05017(15)
C26W C -0.1135(6) -0.4034(8) -0.0431(2)
H9W H -0.1246 -0.4262 -0.0323
C27W C -0.0676(7) -0.3904(10) -0.0511(2)
H10W H -0.0466 -0.4049 -0.0464
C28W C -0.0486(6) -0.3540(8) -0.0670(3)
H11W H -0.0138 -0.3429 -0.0719
C29W C -0.0785(5) -0.3352(8) -0.0754(2)
H12W H -0.0649 -0.3134 -0.0864
C30W C -0.1305(5) -0.3473(7) -0.06810(15)
C35W C -0.0613(3) -0.2081(4) -0.12766(12)
H13W H -0.0389 -0.2206 -0.1226
C36W C -0.0421(3) -0.1688(4) -0.14309(10)
H14W H -0.0070 -0.1558 -0.1480
Zr1B Zr -0.416320(14) -0.708160(10) 0.136153(7)
Zr2B Zr -0.374862(22) -0.625142(10) 0.095050(7)
O1B O -0.36383(15) -0.54339(11) 0.10313(4)
O2B O -0.30893(14) -0.51633(10) 0.12965(4)
O3B O -0.42716(8) -0.71358(6) 0.10366(5)
O5B O -0.36836(14) -0.63164(6) 0.12423(5)
O7B O -0.90521(22) -0.91167(18) -0.17262(4)
O8B O -0.42378(18) -0.66966(12) 0.06934(4)
C1B C -0.34037(23) -0.51204(16) 0.11728(7)
C2B C -0.34983(24) -0.46434(17) 0.11985(7)
C3B C -0.32303(28) -0.42653(19) 0.13385(8)
H1B H -0.2984 -0.4303 0.1418
C4B C -0.3313(3) -0.3818(2) 0.13672(9)
H2B H -0.3126 -0.3564 0.1464
C5B C -0.3675(3) -0.3762(2) 0.12510(10)
C6B C -0.3981(4) -0.4172(3) 0.11172(10)
H3B H -0.4256 -0.4158 0.1048
C7B C -0.3878(3) -0.4602(2) 0.10864(9)
H4B H -0.4067 -0.4860 0.0991
C8B C -0.3786(3) -0.3320(2) 0.12684(10)
C9B C -0.3835(3) -0.2924(2) 0.12883(10)
C10B C -0.3871(3) -0.2434(2) 0.13009(10)
C11B C -0.3575(3) -0.2047(2) 0.14373(10)
C12B C -0.3257(4) -0.2118(3) 0.15805(11)
H5B H -0.3242 -0.2441 0.1578
C13B C -0.2981(4) -0.1754(3) 0.17172(12)
C14B C -0.4208(3) -0.2362(2) 0.11644(10)
C15B C -0.4546(4) -0.2769(3) 0.10186(12)
H6B H -0.4549 -0.3101 0.1016
C16B C -0.4850(4) -0.2687(3) 0.08884(14)
C17B C -0.43484(20) -0.71742(14) 0.06190(11)
C18B C -0.46350(23) -0.73175(16) 0.04296(12)
C19B C -0.4741(4) -0.6936(3) 0.03407(11)
H7B H -0.4631 -0.6594 0.0395
C20B C -0.5025(5) -0.7099(4) 0.01622(13)
H8B H -0.5110 -0.6859 0.0099
C21B C -0.5176(4) -0.7588(3) 0.0082(2)
C22B C -0.5464(4) -0.7732(3) -0.0109(2)
C23B C -0.5700(4) -0.7850(3) -0.0248(2)
C24B C -0.6024(4) -0.8012(3) -0.04284(18)
C25B C -0.6163(7) -0.8518(5) -0.05017(15)
C26B C -0.5966(8) -0.8865(6) -0.0431(2)
H9B H -0.5738 -0.8754 -0.0323
C27B C -0.6096(10) -0.9324(7) -0.0511(2)
H10B H -0.5951 -0.9534 -0.0464
C28B C -0.6460(8) -0.9514(6) -0.0670(3)
H11B H -0.6571 -0.9862 -0.0719
C29B C -0.6648(8) -0.9215(5) -0.0754(2)
H12B H -0.6866 -0.9351 -0.0864
C30B C -0.6527(7) -0.8695(5) -0.06810(15)
C31B C -0.6676(4) -0.8338(3) -0.07514(19)
C32B C -0.7050(4) -0.8525(3) -0.09229(18)
C33B C -0.7328(4) -0.8664(3) -0.1048(2)
C34B C -0.7728(3) -0.8864(2) -0.12035(17)
C35B C -0.7919(4) -0.9387(3) -0.12766(12)
H13B H -0.7794 -0.9611 -0.1226
C36B C -0.8312(4) -0.9579(3) -0.14309(10)
H14B H -0.8442 -0.9930 -0.1480
C37B C -0.88936(36) -0.94470(33) -0.16672(10)
C38B C -0.84996(37) -0.92499(34) -0.15059(11)
O1V O -0.36383(15) 0.17956(10) 0.10313(4)
O2V O -0.30893(14) 0.20740(10) 0.12965(4)
C1V C -0.34037(23) 0.17167(17) 0.11728(7)
C2V C -0.34983(24) 0.11451(17) 0.11985(7)
C3V C -0.32303(28) 0.1035(2) 0.13385(8)
H1V H -0.2984 0.1319 0.1418
C4V C -0.3313(3) 0.0505(2) 0.13672(9)
H2V H -0.3126 0.0438 0.1464
C5V C -0.3675(3) 0.0087(2) 0.12510(10)
C6V C -0.3981(4) 0.0191(2) 0.11172(10)
H3V H -0.4256 -0.0098 0.1048
C7V C -0.3878(3) 0.0724(2) 0.10864(9)
H4V H -0.4067 0.0793 0.0991
C8V C -0.3786(3) -0.0466(2) 0.12684(10)
C9V C -0.3835(3) -0.0911(2) 0.12883(10)
C10V C -0.3871(3) -0.1437(2) 0.13009(10)
C11V C -0.3575(3) -0.1528(2) 0.14373(10)
C12V C -0.3257(4) -0.1139(3) 0.15805(11)
H5V H -0.3242 -0.0801 0.1578
C13V C -0.2981(4) -0.1227(3) 0.17172(12)
C14V C -0.4208(3) -0.1846(2) 0.11644(10)
C15V C -0.4546(4) -0.1777(3) 0.10186(12)
H6V H -0.4549 -0.1448 0.1016
C16V C -0.4850(4) -0.2163(3) 0.08884(14)
O7V O -0.90521(22) -0.99354(13) -0.17262(4)
O8V O -0.42378(18) -0.75412(13) 0.06934(4)
C19V C -0.4741(4) -0.7805(3) 0.03407(11)
H7V H -0.4631 -0.8037 0.0395
C20V C -0.5025(5) -0.7926(3) 0.01622(13)
H8V H -0.5110 -0.8251 0.0099
C25V C -0.6163(7) -0.7645(5) -0.05017(15)
C26V C -0.5966(8) -0.7101(6) -0.0431(2)
H9V H -0.5738 -0.6984 -0.0323
C27V C -0.6096(10) -0.6772(7) -0.0511(2)
H10V H -0.5951 -0.6417 -0.0464
C28V C -0.6460(8) -0.6946(6) -0.0670(3)
H11V H -0.6571 -0.6709 -0.0719
C29V C -0.6648(8) -0.7433(6) -0.0754(2)
H12V H -0.6866 -0.7515 -0.0864
C30V C -0.6527(7) -0.7832(5) -0.06810(15)
C35V C -0.7919(4) -0.8532(3) -0.12766(12)
H13V H -0.7794 -0.8183 -0.1226
C36V C -0.8312(4) -0.8733(3) -0.14309(10)
H14V H -0.8442 -0.8512 -0.1480
Zr1_2 Zr -0.291840(10) -0.708160(10) 0.136153(7)
Zr1_3 Zr -0.291840(10) 0.291840(10) 0.136153(7)
Zr1A_2 Zr 0.708160(10) 0.416320(14) 0.136153(7)
Zr1B_2 Zr 0.583680(14) -0.708160(10) 0.136153(7)
Zr1B_3 Zr 0.583680(14) 0.291840(10) 0.136153(7)
Zr1L Zr -0.958507(10) -1.041493(10) -0.197180(7)
Zr1L_2 Zr 0.041493(10) -0.041493(10) -0.197180(7)
Zr1M Zr -0.958507(10) -0.917013(14) -0.197180(7)
Zr1M_2 Zr 1.041493(10) 0.082987(14) -0.197180(7)
Zr1N Zr -0.082987(14) -0.041493(10) -0.197180(7)
Zr1N_2 Zr 0.917013(14) -0.041493(10) -0.197180(7)
Zr2_2 Zr -0.374858(10) -0.74972(2) 0.095050(7)
Zr2_3 Zr -0.374858(10) 0.25028(2) 0.095050(7)
Zr2A_2 Zr 0.74972(2) 0.374862(22) 0.095050(7)
Zr2B_2 Zr 0.625138(22) -0.625142(10) 0.095050(7)
Zr2B_3 Zr 0.625138(22) 0.374858(10) 0.095050(7)
O1V_2 O 0.63617(15) 0.17956(10) 0.10313(4)
O1W_2 O -0.45661(11) -0.63617(15) 0.10313(4)
O2_2 O -0.48367(10) -0.79260(10) 0.12965(4)
O2A_2 O 0.79260(10) 0.30893(14) 0.12965(4)
O2V_2 O 0.69107(14) 0.20740(10) 0.12965(4)
O2W_2 O -0.48367(10) -0.69107(14) 0.12965(4)
O3_2 O -0.28642(6) -0.71358(6) 0.10366(5)
O3B_2 O 0.57284(8) 0.28642(6) 0.10366(5)
O4_2 O -0.3333 -0.6667 0.08924(8)
O5_2 O -0.36836(6) -0.73672(13) 0.12423(5)
O5A_2 O 0.73672(13) 0.36836(14) 0.12423(5)
O6_2 O -0.3333 -0.6667 0.15047(9)
O7F O -0.42166(18) -0.66021(13) 0.16071(4)
O7G O 0.66021(13) 0.23854(22) 0.16071(4)
O7H O -0.23854(22) -0.57834(18) 0.16071(4)
O7GA O -0.33979(13) -0.57834(18) 0.16071(4)
O7HA O 0.76146(22) 0.33979(13) 0.16071(4)
O7IA O -0.42166(18) -0.76146(22) 0.16071(4)
O8U_2 O -0.24588(13) -0.66966(12) 0.06934(4)
O8V_2 O 0.57622(18) 0.24588(13) 0.06934(4)
loop_
_geom_bond_atom_site_label_1
_geom_bond_atom_site_label_2
_geom_bond_site_symmetry_1
_geom_bond_site_symmetry_2
Zr1 O3 1_555 1_555
Zr2 O1 1_555 1_555
O1 C1 1_555 1_555
O2 C1 1_555 1_555
O3 Zr2 1_555 1_555
O4 Zr2 1_555 1_555
O5 Zr1 1_555 1_555
O6 Zr1 1_555 1_555
O7 C37 1_555 1_555
O8 Zr2 1_555 1_555
C1 C2 1_555 1_555
C2 C3 1_555 1_555
C3 H1 1_555 1_555
C4 C3 1_555 1_555
H2 C4 1_555 1_555
C5 C4 1_555 1_555
C6 C5 1_555 1_555
H3 C6 1_555 1_555
C7 C2 1_555 1_555
H4 C7 1_555 1_555
C8 C5 1_555 1_555
C9 C8 1_555 1_555
C10 C9 1_555 1_555
C11 C10 1_555 1_555
C12 C11 1_555 1_555
H5 C12 1_555 1_555
C13 C12 1_555 1_555
C14 C10 1_555 1_555
C15 C14 1_555 1_555
H6 C15 1_555 1_555
C16 C15 1_555 1_555
C17 O8 1_555 1_555
C18 C17 1_555 1_555
C19 C18 1_555 1_555
H7 C19 1_555 1_555
C20 C19 1_555 1_555
H8 C20 1_555 1_555
C21 C20 1_555 1_555
C22 C21 1_555 1_555
C23 C22 1_555 1_555
C24 C23 1_555 1_555
C25 C24 1_555 1_555
C26 C25 1_555 1_555
H9 C26 1_555 1_555
C27 C26 1_555 1_555
H10 C27 1_555 1_555
C28 C27 1_555 1_555
H11 C28 1_555 1_555
C29 C28 1_555 1_555
H12 C29 1_555 1_555
C30 C25 1_555 1_555
C31 C30 1_555 1_555
C32 C31 1_555 1_555
C33 C32 1_555 1_555
C34 C33 1_555 1_555
C35 C34 1_555 1_555
H13 C35 1_555 1_555
C36 C35 1_555 1_555
H14 C36 1_555 1_555
C37 C38 1_555 1_555
C38 C36 1_555 1_555
O1U C1U 1_555 1_555
O2U C1U 1_555 1_555
C1U C2U 1_555 1_555
C2U C3U 1_555 1_555
C3U H1U 1_555 1_555
C4U C3U 1_555 1_555
H2U C4U 1_555 1_555
C5U C4U 1_555 1_555
C6U C5U 1_555 1_555
H3U C6U 1_555 1_555
C7U C2U 1_555 1_555
H4U C7U 1_555 1_555
C8U C5U 1_555 1_555
C9U C8U 1_555 1_555
C10U C9U 1_555 1_555
C11U C11 1_555 1_555
C12U C11U 1_555 1_555
H5U C12U 1_555 1_555
C13U C13 1_555 1_555
C14U C14 1_555 1_555
C15U C14U 1_555 1_555
H6U C15U 1_555 1_555
C16U C16 1_555 1_555
O7U C37 1_555 1_555
O8U C17 1_555 1_555
C19U C18 1_555 1_555
H7U C19U 1_555 1_555
C20U C21 1_555 1_555
H8U C20U 1_555 1_555
C25U C24 1_555 1_555
C26U C25U 1_555 1_555
H9U C26U 1_555 1_555
C27U C26U 1_555 1_555
H10U C27U 1_555 1_555
C28U C27U 1_555 1_555
H11U C28U 1_555 1_555
C29U C28U 1_555 1_555
H12U C29U 1_555 1_555
C30U C31 1_555 1_555
C35U C34 1_555 1_555
H13U C35U 1_555 1_555
C36U C38 1_555 1_555
H14U C36U 1_555 1_555
Zr1A O2U 1_555 1_555
Zr2A O1U 1_555 1_555
O1A Zr2A 1_555 1_555
O2A C1A 1_555 1_555
O3A Zr1A 1_555 1_555
O5A Zr1A 1_555 1_555
O7A C37A 1_555 1_555
O8A Zr2A 1_555 1_555
C1A O1A 1_555 1_555
C2A C1A 1_555 1_555
C3A C2A 1_555 1_555
H1A C3A 1_555 1_555
C4A C3A 1_555 1_555
H2A C4A 1_555 1_555
C5A C4A 1_555 1_555
C6A C5A 1_555 1_555
H3A C6A 1_555 1_555
C7A C2A 1_555 1_555
H4A C7A 1_555 1_555
C8A C5A 1_555 1_555
C9A C8A 1_555 1_555
C10A C9A 1_555 1_555
C11A C10A 1_555 1_555
C12A C11A 1_555 1_555
H5A C12A 1_555 1_555
C13A C12A 1_555 1_555
C14A C10A 1_555 1_555
C15A C14A 1_555 1_555
H6A C15A 1_555 1_555
C16A C15A 1_555 1_555
C17A O8A 1_555 1_555
C18A C17A 1_555 1_555
C19A C18A 1_555 1_555
H7A C19A 1_555 1_555
C20A C19A 1_555 1_555
H8A C20A 1_555 1_555
C21A C20A 1_555 1_555
C22A C21A 1_555 1_555
C23A C22A 1_555 1_555
C24A C23A 1_555 1_555
C25A C24A 1_555 1_555
C26A C25A 1_555 1_555
H9A C26A 1_555 1_555
C27A C26A 1_555 1_555
H10A C27A 1_555 1_555
C28A C27A 1_555 1_555
H11A C28A 1_555 1_555
C29A C28A 1_555 1_555
H12A C29A 1_555 1_555
C30A C25A 1_555 1_555
C31A C30A 1_555 1_555
C32A C31A 1_555 1_555
C33A C32A 1_555 1_555
C34A C33A 1_555 1_555
C35A C34A 1_555 1_555
H13A C35A 1_555 1_555
C36A C35A 1_555 1_555
H14A C36A 1_555 1_555
C37A C38A 1_555 1_555
C38A C36A 1_555 1_555
O1W C1W 1_555 1_555
O2W C1W 1_555 1_555
C1W C2W 1_555 1_555
C2W C3W 1_555 1_555
C3W H1W 1_555 1_555
C4W C3W 1_555 1_555
H2W C4W 1_555 1_555
C5W C4W 1_555 1_555
C6W C5W 1_555 1_555
H3W C6W 1_555 1_555
C7W C2W 1_555 1_555
H4W C7W 1_555 1_555
C8W C5W 1_555 1_555
C9W C8W 1_555 1_555
C10W C9W 1_555 1_555
C11W C11A 1_555 1_555
C12W C11W 1_555 1_555
H5W C12W 1_555 1_555
C13W C13A 1_555 1_555
C14W C14A 1_555 1_555
C15W C14W 1_555 1_555
H6W C15W 1_555 1_555
C16W C16A 1_555 1_555
O7W C37A 1_555 1_555
O8W C17A 1_555 1_555
C19W C18A 1_555 1_555
H7W C19W 1_555 1_555
C20W C21A 1_555 1_555
H8W C20W 1_555 1_555
C25W C24A 1_555 1_555
C26W C25W 1_555 1_555
H9W C26W 1_555 1_555
C27W C26W 1_555 1_555
H10W C27W 1_555 1_555
C28W C27W 1_555 1_555
H11W C28W 1_555 1_555
C29W C28W 1_555 1_555
H12W C29W 1_555 1_555
C30W C31A 1_555 1_555
C35W C34A 1_555 1_555
H13W C35W 1_555 1_555
C36W C38A 1_555 1_555
H14W C36W 1_555 1_555
Zr1B O3B 1_555 1_555
Zr2B O3A 1_555 1_555
O1B Zr2B 1_555 1_555
O2B Zr1A 1_555 1_555
O3B Zr2B 1_555 1_555
O5B Zr1A 1_555 1_555
O7B C37B 1_555 1_555
O8B Zr2B 1_555 1_555
C1B O1B 1_555 1_555
C2B C1B 1_555 1_555
C3B C2B 1_555 1_555
H1B C3B 1_555 1_555
C4B C3B 1_555 1_555
H2B C4B 1_555 1_555
C5B C4B 1_555 1_555
C6B C5B 1_555 1_555
H3B C6B 1_555 1_555
C7B C2B 1_555 1_555
H4B C7B 1_555 1_555
C8B C5B 1_555 1_555
C9B C8B 1_555 1_555
C10B C9B 1_555 1_555
C11B C10B 1_555 1_555
C12B C11B 1_555 1_555
H5B C12B 1_555 1_555
C13B C12B 1_555 1_555
C14B C10B 1_555 1_555
C15B C14B 1_555 1_555
H6B C15B 1_555 1_555
C16B C15B 1_555 1_555
C17B O8B 1_555 1_555
C18B C17B 1_555 1_555
C19B C18B 1_555 1_555
H7B C19B 1_555 1_555
C20B C19B 1_555 1_555
H8B C20B 1_555 1_555
C21B C20B 1_555 1_555
C22B C21B 1_555 1_555
C23B C22B 1_555 1_555
C24B C23B 1_555 1_555
C25B C24B 1_555 1_555
C26B C25B 1_555 1_555
H9B C26B 1_555 1_555
C27B C26B 1_555 1_555
H10B C27B 1_555 1_555
C28B C27B 1_555 1_555
H11B C28B 1_555 1_555
C29B C28B 1_555 1_555
H12B C29B 1_555 1_555
C30B C25B 1_555 1_555
C31B C30B 1_555 1_555
C32B C31B 1_555 1_555
C33B C32B 1_555 1_555
C34B C33B 1_555 1_555
C35B C34B 1_555 1_555
H13B C35B 1_555 1_555
C36B C35B 1_555 1_555
H14B C36B 1_555 1_555
C37B C38B 1_555 1_555
C38B C36B 1_555 1_555
O1V C1V 1_555 1_555
O2V C1V 1_555 1_555
C1V C2V 1_555 1_555
C2V C3V 1_555 1_555
C3V H1V 1_555 1_555
C4V C3V 1_555 1_555
H2V C4V 1_555 1_555
C5V C4V 1_555 1_555
C6V C5V 1_555 1_555
H3V C6V 1_555 1_555
C7V C2V 1_555 1_555
H4V C7V 1_555 1_555
C8V C5V 1_555 1_555
C9V C8V 1_555 1_555
C10V C9V 1_555 1_555
C11V C11B 1_555 1_555
C12V C11V 1_555 1_555
H5V C12V 1_555 1_555
C13V C13B 1_555 1_555
C14V C14B 1_555 1_555
C15V C14V 1_555 1_555
H6V C15V 1_555 1_555
C16V C16B 1_555 1_555
O7V C37B 1_555 1_555
O8V C17B 1_555 1_555
C19V C18B 1_555 1_555
H7V C19V 1_555 1_555
C20V C21B 1_555 1_555
H8V C20V 1_555 1_555
C25V C24B 1_555 1_555
C26V C25V 1_555 1_555
H9V C26V 1_555 1_555
C27V C26V 1_555 1_555
H10V C27V 1_555 1_555
C28V C27V 1_555 1_555
H11V C28V 1_555 1_555
C29V C28V 1_555 1_555
H12V C29V 1_555 1_555
C30V C31B 1_555 1_555
C35V C34B 1_555 1_555
H13V C35V 1_555 1_555
C36V C38B 1_555 1_555
H14V C36V 1_555 1_555
Zr1_2 O2A 1_555 1_555
Zr1_3 O2V 1_555 1_555
Zr1A_2 O6 1_555 1_555
Zr1B_2 O2W 1_555 1_555
Zr1B_3 O2 1_555 1_555
Zr1L O7V 1_555 1_555
Zr1L_2 O7A 1_555 1_555
Zr1M O7B 1_555 1_555
Zr1M_2 O7U 1_555 1_555
Zr1N O7W 1_555 1_555
Zr1N_2 O7 1_555 1_555
Zr2_2 O3B 1_555 1_555
Zr2_3 O1V 1_555 1_555
Zr2A_2 O3 1_555 1_555
Zr2B_2 O1W 1_555 1_555
Zr2B_3 O4 1_555 1_555
O1V_2 Zr2 1_555 1_555
O1W_2 Zr2B 1_555 1_555
O2_2 Zr1B 1_555 1_555
O2A_2 Zr1 1_555 1_555
O2V_2 Zr1 1_555 1_555
O2W_2 Zr1B 1_555 1_555
O3_2 Zr2A 1_555 1_555
O3B_2 Zr2 1_555 1_555
O4_2 Zr2A 1_555 1_555
O5_2 Zr1B 1_555 1_555
O5A_2 Zr1 1_555 1_555
O6_2 Zr1A 1_555 1_555
O7F Zr1B 1_555 1_555
O7G Zr1 1_555 1_555
O7H Zr1A 1_555 1_555
O7GA Zr1A 1_555 1_555
O7HA Zr1 1_555 1_555
O7IA Zr1B 1_555 1_555
O8U_2 Zr2A 1_555 1_555
O8V_2 Zr2 1_555 1_555
Zr2 O5 1_555 1_555
O4 Zr2A_2 1_555 1_555
O5 Zr1B_3 1_555 1_555
O6 Zr1B_3 1_555 1_555
C6 C7 1_555 1_555
C29 C30 1_555 1_555
C6U C7U 1_555 1_555
C10U C11U 1_555 1_555
C10U C14U 1_555 1_555
C12U C13U 1_555 1_555
C15U C16U 1_555 1_555
O8U Zr2A_2 1_555 1_555
C19U C20U 1_555 1_555
C25U C30U 1_555 1_555
C29U C30U 1_555 1_555
C35U C36U 1_555 1_555
Zr2A O3A 1_555 1_555
Zr2A O5A 1_555 1_555
O5A Zr1_2 1_555 1_555
C6A C7A 1_555 1_555
C29A C30A 1_555 1_555
C6W C7W 1_555 1_555
C10W C11W 1_555 1_555
C10W C14W 1_555 1_555
C12W C13W 1_555 1_555
C15W C16W 1_555 1_555
O8W Zr2B 1_555 1_555
C19W C20W 1_555 1_555
C25W C30W 1_555 1_555
C29W C30W 1_555 1_555
C35W C36W 1_555 1_555
Zr1B O5B 1_555 1_555
Zr1B O6_2 1_555 1_555
Zr2B O5B 1_555 1_555
Zr2B O4_2 1_555 1_555
O2B C1B 1_555 1_555
C6B C7B 1_555 1_555
C29B C30B 1_555 1_555
C6V C7V 1_555 1_555
C10V C11V 1_555 1_555
C10V C14V 1_555 1_555
C12V C13V 1_555 1_555
C15V C16V 1_555 1_555
O8V Zr2_2 1_555 1_555
C19V C20V 1_555 1_555
C25V C30V 1_555 1_555
C29V C30V 1_555 1_555
C35V C36V 1_555 1_555
Zr1_2 O3_2 1_555 1_555
Zr1_2 O5_2 1_555 1_555
Zr1_2 O6_2 1_555 1_555
Zr1A_2 O5A_2 1_555 1_555
Zr1B_3 O3B_2 1_555 1_555
Zr2_2 O3_2 1_555 1_555
Zr2_2 O4_2 1_555 1_555
Zr2_2 O5_2 1_555 1_555
Zr2A_2 O5A_2 1_555 1_555
Zr2B_3 O3B_2 1_555 1_555

#END
