
#######################################################################
#
#                 Cambridge Crystallographic Data Centre
#                                CCDC 
#
#######################################################################
#
# If this CIF has been generated from an entry in the Cambridge 
# Structural Database, then it will include bibliographic, chemical, 
# crystal, experimental, refinement or atomic coordinate data resulting 
# from the CCDC's data processing and validation procedures.
#
#######################################################################

data_NANNEY
_chemical_formula_moiety         '(C48 H39 N11 O5 Zn1)n'
_symmetry_cell_setting           orthorhombic
_symmetry_space_group_name_H-M   'P 21 21 21'
_symmetry_Int_Tables_number      19
_space_group_name_Hall           'P 2ac 2ab'
loop_
_symmetry_equiv_pos_site_id
_symmetry_equiv_pos_as_xyz
1 x,y,z
2 1/2-x,-y,1/2+z
3 -x,1/2+y,1/2-z
4 1/2+x,1/2-y,-z
_cell_length_a                   9.3272(10)
_cell_length_b                   21.377(2)
_cell_length_c                   21.377
_cell_angle_alpha                90
_cell_angle_beta                 90
_cell_angle_gamma                90
_cell_volume                     4262.31
loop_
_atom_site_label
_atom_site_type_symbol
_atom_site_fract_x
_atom_site_fract_y
_atom_site_fract_z
_atom_site_U_iso_or_equiv
_atom_site_thermal_displace_type
Zn1 Zn 0.42272(4) 0.99694(2) 0.64694(2) 0.0178 Uani
C1 C 0.1366(4) 0.95129(18) 0.60266(18) 0.0182 Uani
H1 H 0.106861 0.940204 0.642680 0.0220 Uiso
C2 C 0.2554(4) 0.98573(18) 0.52591(18) 0.0212 Uani
H2 H 0.328730 1.004266 0.502996 0.0260 Uiso
C3 C -0.7480(5) 0.9375(2) 0.24905(18) 0.0217 Uani
H3 H -0.682639 0.969998 0.253888 0.0260 Uiso
C4 C -0.9173(5) 0.87898(19) 0.21814(18) 0.0231 Uani
H4 H -0.995126 0.864837 0.194898 0.0280 Uiso
C5 C -0.9402(5) 0.7866(3) 0.7276(2) 0.0360 Uani
H5 H -0.968900 0.825881 0.713636 0.0430 Uiso
C6 C -0.9215(7) 0.7038(3) 0.7762(3) 0.0587 Uani
H6 H -0.939395 0.672525 0.805415 0.0710 Uiso
C7 C -0.0710(4) 0.91019(17) 0.54159(17) 0.0169 Uani
C8 C -0.0968(4) 0.88144(19) 0.48438(19) 0.0217 Uani
H7 H -0.027325 0.882105 0.453177 0.0260 Uiso
C9 C -0.2268(4) 0.85175(19) 0.47417(19) 0.0205 Uani
H8 H -0.243990 0.832236 0.436017 0.0240 Uiso
C10 C -0.3324(4) 0.85080(18) 0.52050(18) 0.0170 Uani
C11 C -0.3024(4) 0.87818(18) 0.57802(18) 0.0190 Uani
H9 H -0.370183 0.876514 0.609882 0.0230 Uiso
C12 C -0.1728(4) 0.90786(19) 0.58834(17) 0.0186 Uani
H10 H -0.154170 0.926286 0.626901 0.0220 Uiso
C13 C -0.6703(4) 0.86903(19) 0.33784(17) 0.0188 Uani
C14 C -0.6699(4) 0.80703(18) 0.35831(18) 0.0181 Uani
H11 H -0.715344 0.776084 0.335038 0.0220 Uiso
C15 C -0.6015(4) 0.79234(19) 0.41323(18) 0.0192 Uani
H12 H -0.602540 0.751419 0.427994 0.0230 Uiso
C16 C -0.5303(4) 0.83893(19) 0.44692(18) 0.0177 Uani
C17 C -0.5260(4) 0.90017(19) 0.42445(18) 0.0220 Uani
H13 H -0.475002 0.930698 0.446016 0.0270 Uiso
C18 C -0.5975(4) 0.91514(19) 0.37031(18) 0.0228 Uani
H14 H -0.596888 0.956060 0.355543 0.0270 Uiso
C19 C -0.5612(4) 0.80358(17) 0.55428(17) 0.0174 Uani
C20 C -0.5113(4) 0.76663(19) 0.60340(19) 0.0227 Uani
H15 H -0.416569 0.753083 0.603243 0.0270 Uiso
C21 C -0.5999(4) 0.74980(18) 0.65219(19) 0.0218 Uani
H16 H -0.564348 0.726394 0.685421 0.0260 Uiso
C22 C -0.7425(4) 0.76813(18) 0.65122(19) 0.0216 Uani
C23 C -0.7958(4) 0.80164(18) 0.60138(18) 0.0187 Uani
H17 H -0.892666 0.811927 0.600085 0.0220 Uiso
C24 C -0.7064(4) 0.82007(18) 0.55327(19) 0.0197 Uani
H18 H -0.742761 0.843458 0.520190 0.0230 Uiso
C25 C 0.6354(4) 1.04577(19) 0.5606(2) 0.0220 Uani
C26 C 1.5995(5) 1.40042(19) 0.76946(18) 0.0228 Uani
C27 C 0.7832(5) 1.07528(18) 0.55603(18) 0.0210 Uani
C28 C 0.8791(5) 1.0724(2) 0.60530(19) 0.0237 Uani
H19 H 0.852005 1.052971 0.642401 0.0280 Uiso
C29 C 1.0164(5) 1.09825(19) 0.6000(2) 0.0237 Uani
H20 H 1.079277 1.096223 0.633725 0.0280 Uiso
C30 C 1.0597(5) 1.12702(18) 0.54470(18) 0.0217 Uani
C31 C 0.9641(5) 1.1279(2) 0.4949(2) 0.0303 Uani
H21 H 0.991638 1.145711 0.457090 0.0360 Uiso
C32 C 0.8280(5) 1.1027(2) 0.5011(2) 0.0310 Uani
H22 H 0.765319 1.104246 0.467255 0.0380 Uiso
C33 C 1.5456(4) 1.35243(19) 0.72361(18) 0.0214 Uani
C34 C 1.6410(5) 1.3199(2) 0.68515(19) 0.0260 Uani
H23 H 1.738843 1.327515 0.688727 0.0310 Uiso
C35 C 1.5933(5) 1.27663(19) 0.64195(18) 0.0244 Uani
H24 H 1.659415 1.255368 0.617296 0.0290 Uiso
C36 C 1.4456(4) 1.26422(18) 0.63465(18) 0.0208 Uani
C37 C 1.3512(5) 1.2954(2) 0.6747(2) 0.0277 Uani
H25 H 1.253463 1.287382 0.671542 0.0330 Uiso
C38 C 1.3992(5) 1.3380(2) 0.71903(19) 0.0247 Uani
H26 H 1.334009 1.357078 0.745836 0.0290 Uiso
C39 C 1.3941(4) 1.22123(19) 0.58449(18) 0.0213 Uani
C40 C 1.4735(5) 1.2123(2) 0.53034(19) 0.0267 Uani
H27 H 1.563785 1.230548 0.527010 0.0320 Uiso
C41 C 1.4211(5) 1.1769(2) 0.4811(2) 0.0293 Uani
H28 H 1.475241 1.171981 0.444905 0.0350 Uiso
C42 C 1.2877(5) 1.1487(2) 0.4860(2) 0.0260 Uani
H29 H 1.253326 1.124475 0.453117 0.0310 Uiso
C43 C 1.2047(5) 1.15626(19) 0.53943(19) 0.0220 Uani
C44 C 1.2601(4) 1.19199(19) 0.58805(19) 0.0214 Uani
H30 H 1.206140 1.196645 0.624327 0.0260 Uiso
N1 N 0.2607(3) 0.97896(14) 0.58831(14) 0.0174 Uani
N2 N 0.0624(3) 0.94221(15) 0.55021(14) 0.0176 Uani
N3 N 0.1379(4) 0.96399(17) 0.49994(15) 0.0228 Uani
N4 N -0.8517(4) 0.93555(16) 0.20684(14) 0.0187 Uani
N5 N -0.7519(3) 0.88560(15) 0.28353(15) 0.0187 Uani
N6 N -0.8615(4) 0.84650(17) 0.26431(16) 0.0241 Uani
N7 N -0.9977(5) 0.7571(3) 0.7756(2) 0.0490 Uani
N8 N -0.8341(4) 0.75237(18) 0.70153(16) 0.0285 Uani
N9 N -0.8192(5) 0.6978(2) 0.7333(2) 0.0497 Uani
N10 N -0.4676(3) 0.82371(16) 0.50651(15) 0.0201 Uani
O1 O 0.5927(3) 1.03859(15) 0.61752(13) 0.0303 Uani
O2 O 0.5703(3) 1.02970(15) 0.51444(13) 0.0323 Uani
O3 O 1.5040(3) 1.42541(14) 0.80520(13) 0.0270 Uani
O4 O 1.7282(3) 1.41497(15) 0.77038(14) 0.0307 Uani
Zn1A Zn -0.92272(4) 1.00306(2) 0.14694(2) 0.0178 Uani
Zn1B Zn 1.57728(4) 1.49694(2) 0.85306(2) 0.0178 Uani
N4A N 0.3517(4) 1.06445(16) 0.70684(14) 0.0187 Uani
O3B O 0.4960(3) 0.92541(14) 0.69480(13) 0.0270 Uani
C45 C 0.6032(7) 0.0334(3) 0.2897(4) 0.0670 Uani
C46 C 0.5251(7) 0.0794(3) 0.3339(3) 0.0590 Uani
H31 H 0.528042 0.063519 0.375861 0.0880 Uiso
H32 H 0.427130 0.083722 0.320806 0.0880 Uiso
H33 H 0.571596 0.119388 0.332326 0.0880 Uiso
C47 C 0.7692(9) 0.0140(4) 0.3734(3) 0.0897 Uani
H34 H 0.853695 0.039592 0.371477 0.1340 Uiso
H35 H 0.792676 -0.025703 0.391614 0.1340 Uiso
H36 H 0.697887 0.034463 0.398496 0.1340 Uiso
C48 C 0.7924(8) -0.0374(4) 0.2693(3) 0.0800 Uani
H37 H 0.769696 -0.079966 0.279566 0.1200 Uiso
H38 H 0.893524 -0.030667 0.274233 0.1200 Uiso
H39 H 0.765429 -0.029093 0.226781 0.1200 Uiso
N11 N 0.7140(6) 0.0046(3) 0.3110(2) 0.0657 Uani
O5 O 0.5568(5) 0.0248(3) 0.23416(18) 0.0733 Uani
loop_
_atom_site_aniso_label
_atom_site_aniso_U_11
_atom_site_aniso_U_22
_atom_site_aniso_U_33
_atom_site_aniso_U_23
_atom_site_aniso_U_13
_atom_site_aniso_U_12
Zn1 0.0144(2) 0.0223(2) 0.01677(19) -0.0009(2) -0.00031(18) -0.0017(2)
C1 0.0164(19) 0.020(2) 0.0182(19) 0.0012(16) -0.0019(16) -0.0008(16)
C2 0.0186(19) 0.022(2) 0.0229(19) 0.0000(16) 0.0019(16) -0.0037(17)
C3 0.020(2) 0.023(2) 0.022(2) 0.0012(17) 0.0014(17) -0.0043(18)
C4 0.021(2) 0.027(2) 0.0213(19) -0.0033(17) -0.0027(19) -0.009(2)
C5 0.028(3) 0.051(3) 0.029(2) -0.002(2) 0.002(2) -0.005(2)
C6 0.055(4) 0.072(4) 0.049(3) 0.033(3) 0.010(3) -0.018(4)
C7 0.0117(17) 0.0179(19) 0.0210(18) 0.0018(15) -0.0067(17) 0.0001(17)
C8 0.017(2) 0.025(2) 0.023(2) -0.0030(17) 0.0025(18) 0.0000(18)
C9 0.018(2) 0.024(2) 0.0194(19) -0.0039(17) -0.0008(17) -0.0015(17)
C10 0.0114(19) 0.018(2) 0.0216(19) 0.0011(17) -0.0019(16) 0.0002(15)
C11 0.0161(19) 0.021(2) 0.0200(19) 0.0006(17) 0.0031(16) 0.0020(17)
C12 0.019(2) 0.022(2) 0.0148(18) -0.0041(17) -0.0030(17) -0.0030(17)
C13 0.0119(18) 0.027(2) 0.0175(19) 0.0002(16) -0.0008(15) -0.0020(16)
C14 0.0145(18) 0.022(2) 0.0178(18) -0.0044(18) 0.0023(17) -0.0035(15)
C15 0.017(2) 0.020(2) 0.0207(19) 0.0018(16) 0.0042(16) 0.0011(16)
C16 0.0109(18) 0.024(2) 0.0183(18) 0.0007(17) 0.0011(15) 0.0016(16)
C17 0.019(2) 0.023(2) 0.024(2) -0.0018(17) -0.0003(17) -0.0068(17)
C18 0.021(2) 0.0184(19) 0.029(2) 0.0032(17) -0.0037(18) -0.0035(17)
C19 0.017(2) 0.0166(18) 0.0186(18) -0.0013(16) -0.0014(17) -0.0048(16)
C20 0.017(2) 0.023(2) 0.028(2) 0.0005(18) -0.0068(18) 0.0009(18)
C21 0.023(2) 0.022(2) 0.0203(19) 0.0053(17) -0.0062(18) -0.0010(16)
C22 0.021(2) 0.023(2) 0.0207(19) -0.0002(18) 0.0011(18) -0.0075(17)
C23 0.0121(19) 0.020(2) 0.024(2) -0.0036(17) 0.0010(16) 0.0006(17)
C24 0.019(2) 0.018(2) 0.022(2) 0.0016(17) -0.0021(17) 0.0016(17)
C25 0.018(2) 0.019(2) 0.029(2) 0.0018(18) 0.0013(18) -0.0009(17)
C26 0.031(3) 0.018(2) 0.0194(19) 0.0055(17) 0.0007(19) -0.0014(19)
C27 0.022(2) 0.018(2) 0.023(2) -0.0022(17) 0.0026(17) -0.0047(17)
C28 0.026(2) 0.021(2) 0.024(2) 0.0000(18) 0.0035(18) -0.0045(18)
C29 0.023(2) 0.023(2) 0.025(2) -0.0048(18) -0.0030(18) 0.0030(18)
C30 0.022(2) 0.0190(19) 0.024(2) -0.0023(17) -0.0002(18) -0.0042(18)
C31 0.029(3) 0.035(3) 0.027(2) 0.006(2) 0.0009(19) -0.010(2)
C32 0.027(2) 0.037(3) 0.029(2) 0.003(2) -0.009(2) -0.009(2)
C33 0.023(2) 0.023(2) 0.0181(19) 0.0039(17) -0.0030(17) -0.0036(17)
C34 0.019(2) 0.034(3) 0.025(2) -0.0018(19) -0.0045(18) -0.0054(19)
C35 0.025(2) 0.029(2) 0.0193(19) -0.0024(18) 0.0019(19) -0.0009(18)
C36 0.022(2) 0.0194(19) 0.021(2) 0.0043(16) 0.0011(17) -0.0050(17)
C37 0.019(2) 0.029(2) 0.035(2) -0.005(2) 0.0009(19) -0.0035(19)
C38 0.023(2) 0.027(2) 0.024(2) -0.0014(18) 0.0010(18) 0.0002(19)
C39 0.024(2) 0.018(2) 0.0220(19) 0.0019(17) -0.0050(17) -0.0001(17)
C40 0.021(2) 0.031(2) 0.028(2) -0.0012(19) 0.0014(19) -0.0041(19)
C41 0.031(2) 0.031(2) 0.026(2) -0.0072(19) 0.008(2) -0.007(2)
C42 0.027(2) 0.025(2) 0.026(2) -0.0043(19) -0.0021(19) -0.0029(19)
C43 0.022(2) 0.019(2) 0.025(2) 0.0017(17) -0.0009(18) -0.0015(18)
C44 0.020(2) 0.025(2) 0.0192(19) 0.0007(18) 0.0023(18) -0.0015(18)
N1 0.0142(16) 0.0197(17) 0.0184(15) -0.0017(13) -0.0026(14) -0.0015(13)
N2 0.0135(16) 0.0213(17) 0.0181(15) -0.0005(13) -0.0001(14) -0.0011(14)
N3 0.0185(17) 0.027(2) 0.0230(17) 0.0020(15) -0.0022(14) -0.0048(15)
N4 0.0183(17) 0.0202(18) 0.0177(15) 0.0013(14) 0.0018(14) -0.0002(14)
N5 0.0144(17) 0.0222(18) 0.0195(16) 0.0025(14) -0.0033(14) -0.0056(14)
N6 0.0237(19) 0.0246(19) 0.0239(18) 0.0013(16) -0.0068(16) -0.0051(16)
N7 0.031(2) 0.081(4) 0.035(2) 0.012(2) 0.004(2) -0.010(3)
N8 0.022(2) 0.035(2) 0.0286(19) 0.0072(17) 0.0019(16) -0.0052(17)
N9 0.039(3) 0.055(3) 0.055(3) 0.028(3) 0.012(2) -0.003(2)
N10 0.0132(17) 0.0286(19) 0.0186(16) 0.0016(15) -0.0033(13) -0.0031(14)
O1 0.0215(16) 0.0420(19) 0.0275(15) -0.0006(14) 0.0049(13) -0.0124(15)
O2 0.0214(15) 0.0481(19) 0.0274(15) -0.0036(14) 0.0000(14) -0.0118(15)
O3 0.0297(17) 0.0270(16) 0.0243(14) -0.0050(13) 0.0038(13) -0.0083(14)
O4 0.0246(17) 0.0352(19) 0.0322(16) -0.0081(15) -0.0029(14) -0.0037(15)
Zn1A 0.0144 0.0223 0.01677 0.0009 0.00031 -0.0017
Zn1B 0.0144 0.0223 0.01677 0.0009 -0.00031 0.0017
N4A 0.0183 0.0202 0.0177 -0.0013 -0.0018 -0.0002
O3B 0.0297 0.027 0.0243 0.005 0.0038 0.0083
C45 0.034(3) 0.058(4) 0.109(6) 0.017(4) 0.004(4) -0.013(3)
C46 0.057(4) 0.049(3) 0.071(4) -0.017(3) 0.018(3) -0.001(3)
C47 0.105(6) 0.118(7) 0.046(3) -0.005(4) -0.025(4) 0.019(6)
C48 0.062(4) 0.101(6) 0.077(5) -0.033(4) 0.028(4) 0.017(4)
N11 0.069(4) 0.073(4) 0.055(3) -0.001(3) -0.003(3) -0.016(4)
O5 0.050(3) 0.131(4) 0.039(2) -0.016(2) -0.010(2) 0.002(3)
loop_
_geom_bond_atom_site_label_1
_geom_bond_atom_site_label_2
_geom_bond_site_symmetry_1
_geom_bond_site_symmetry_2
Zn1 N1 1_555 1_555
C1 H1 1_555 1_555
C2 H2 1_555 1_555
C3 H3 1_555 1_555
C4 H4 1_555 1_555
C5 H5 1_555 1_555
C6 H6 1_555 1_555
C7 C8 1_555 1_555
C8 H7 1_555 1_555
C9 C8 1_555 1_555
H8 C9 1_555 1_555
C10 C9 1_555 1_555
C11 C10 1_555 1_555
H9 C11 1_555 1_555
C12 C7 1_555 1_555
H10 C12 1_555 1_555
C13 C14 1_555 1_555
C14 H11 1_555 1_555
C15 C14 1_555 1_555
H12 C15 1_555 1_555
C16 C15 1_555 1_555
C17 C16 1_555 1_555
H13 C17 1_555 1_555
C18 C13 1_555 1_555
H14 C18 1_555 1_555
C19 C20 1_555 1_555
C20 H15 1_555 1_555
C21 C20 1_555 1_555
H16 C21 1_555 1_555
C22 C21 1_555 1_555
C23 C22 1_555 1_555
H17 C23 1_555 1_555
C24 C19 1_555 1_555
H18 C24 1_555 1_555
C25 C27 1_555 1_555
C26 C33 1_555 1_555
C27 C28 1_555 1_555
C28 H19 1_555 1_555
C29 C28 1_555 1_555
H20 C29 1_555 1_555
C30 C29 1_555 1_555
C31 C30 1_555 1_555
H21 C31 1_555 1_555
C32 C27 1_555 1_555
H22 C32 1_555 1_555
C33 C34 1_555 1_555
C34 H23 1_555 1_555
C35 C34 1_555 1_555
H24 C35 1_555 1_555
C36 C35 1_555 1_555
C37 C36 1_555 1_555
H25 C37 1_555 1_555
C38 C33 1_555 1_555
H26 C38 1_555 1_555
C39 C36 1_555 1_555
C40 C39 1_555 1_555
H27 C40 1_555 1_555
C41 C40 1_555 1_555
H28 C41 1_555 1_555
C42 C41 1_555 1_555
H29 C42 1_555 1_555
C43 C30 1_555 1_555
C44 C39 1_555 1_555
H30 C44 1_555 1_555
N1 C1 1_555 1_555
N2 C1 1_555 1_555
N3 C2 1_555 1_555
N4 C3 1_555 1_555
N5 C3 1_555 1_555
N6 C4 1_555 1_555
N7 C5 1_555 1_555
N8 C5 1_555 1_555
N9 C6 1_555 1_555
N10 C10 1_555 1_555
O1 Zn1 1_555 1_555
O2 C25 1_555 1_555
O3 C26 1_555 1_555
O4 C26 1_555 1_555
C45 C46 1_555 1_555
C46 H31 1_555 1_555
H32 C46 1_555 1_555
H33 C46 1_555 1_555
C47 H34 1_555 1_555
H35 C47 1_555 1_555
H36 C47 1_555 1_555
C48 H37 1_555 1_555
H38 C48 1_555 1_555
H39 C48 1_555 1_555
N11 C45 1_555 1_555
O5 C45 1_555 1_555
Zn1A N4 1_555 1_555
Zn1B O3 1_555 1_555
N4A Zn1 1_555 1_555
O3B Zn1 1_555 1_555
C2 N1 1_555 1_555
C4 N4 1_555 1_555
C6 N7 1_555 1_555
C7 N2 1_555 1_555
C11 C12 1_555 1_555
C13 N5 1_555 1_555
C16 N10 1_555 1_555
C17 C18 1_555 1_555
C19 N10 1_555 1_555
C22 N8 1_555 1_555
C23 C24 1_555 1_555
C25 O1 1_555 1_555
C31 C32 1_555 1_555
C37 C38 1_555 1_555
C42 C43 1_555 1_555
C43 C44 1_555 1_555
N2 N3 1_555 1_555
N5 N6 1_555 1_555
N8 N9 1_555 1_555
C47 N11 1_555 1_555
C48 N11 1_555 1_555

#END
