
#######################################################################
#
#                 Cambridge Crystallographic Data Centre
#                                CCDC 
#
#######################################################################
#
# If this CIF has been generated from an entry in the Cambridge 
# Structural Database, then it will include bibliographic, chemical, 
# crystal, experimental, refinement or atomic coordinate data resulting 
# from the CCDC's data processing and validation procedures.
#
#######################################################################

data_MEJZIM
_chemical_formula_moiety         '(C37 H61 Ce3 N3 O31 P3)n'
_symmetry_cell_setting           triclinic
_symmetry_space_group_name_H-M   'P -1'
_symmetry_Int_Tables_number      2
_space_group_name_Hall           '-P 1'
loop_
_symmetry_equiv_pos_site_id
_symmetry_equiv_pos_as_xyz
1 x,y,z
2 -x,-y,-z
_cell_length_a                   15.2095(12)
_cell_length_b                   15.3049(12)
_cell_length_c                   15.3698(12)
_cell_angle_alpha                106.485(1)
_cell_angle_beta                 117.143(1)
_cell_angle_gamma                103.236(1)
_cell_volume                     2770.51
loop_
_atom_site_label
_atom_site_type_symbol
_atom_site_fract_x
_atom_site_fract_y
_atom_site_fract_z
Ce1 Ce 0.05686(4) 0.19758(4) 0.36611(4)
Ce2 Ce 0.32052(4) 0.18275(4) 0.61513(4)
Ce3 Ce 0.08463(4) -0.14570(4) 0.43728(4)
P1 P 0.12575(19) 0.01765(19) 0.3101(2)
P2 P 0.19642(19) 0.30505(18) 0.6739(2)
P3 P -0.11717(18) -0.02455(18) 0.3573(2)
O1 O 0.0232(7) 0.0269(6) 0.2355(7)
O2 O 0.1863(7) 0.1081(6) 0.4208(7)
O3 O 0.1127(7) -0.0797(6) 0.3165(7)
O4 O 0.7135(7) 0.0975(7) 0.4611(8)
O5 O 0.6364(7) -0.0446(6) 0.4614(7)
O6 O 0.2791(6) 0.2757(6) 0.7473(7)
O7 O 0.1745(6) 0.2548(6) 0.5609(7)
O8 O 0.0953(6) 0.2903(6) 0.6742(7)
O9 O 0.1297(7) 0.7435(6) 0.5292(7)
O10 O -0.0028(7) 0.6801(6) 0.5498(7)
O11 O -0.0564(7) 0.0897(6) 0.4033(7)
O12 O -0.0461(7) -0.0806(6) 0.3723(7)
O13 O -0.1813(7) -0.0384(6) 0.4086(7)
O14 O -0.2781(7) -0.5079(7) -0.1118(8)
H1 H -0.2948 -0.5254 -0.1769
O15 O -0.4228(7) -0.5318(7) -0.1065(8)
O16 O -0.4762(7) 0.2721(7) -0.2091(8)
O17 O -0.5851(7) 0.1389(7) -0.2270(7)
O18 O -0.0338(7) 0.2363(7) 0.1981(8)
O19 O -0.1489(7) 0.1399(7) 0.2171(7)
O20 O 0.5948(7) 0.6415(6) 0.3610(7)
O21 O 0.5567(7) 0.7523(7) 0.4449(7)
O22 O 0.2003(7) 0.2574(7) 0.3227(8)
O23 O 0.1826(7) 0.3748(7) 0.4273(8)
O24 O 0.0968(7) -0.2799(7) 0.3078(7)
H2 H 0.0379 -0.3327 0.2694
H3 H 0.1492 -0.2926 0.3445
N1 N 0.3200(7) 0.0410(7) 0.3229(7)
H18 H 0.3367 0.0555 0.3910
N2 N 0.2118(6) 0.4865(6) 0.6644(7)
H19 H 0.1589 0.4379 0.5964
N3 N -0.2480(7) -0.1813(7) 0.1418(7)
H20 H -0.2542 -0.2137 0.1804
C1 C 0.2106(8) 0.0411(9) 0.2586(9)
H21 H 0.1720 -0.0097 0.1837
H22 H 0.2213 0.1057 0.2577
C2 C 0.4050(8) 0.1187(9) 0.3321(10)
H23 H 0.4049 0.1834 0.3635
H24 H 0.3887 0.1054 0.2596
C3 C 0.5178(9) 0.1236(8) 0.4028(10)
H25 H 0.5706 0.1729 0.4025
H26 H 0.5381 0.1450 0.4776
C4 C 0.5202(8) 0.0224(8) 0.3612(10)
H27 H 0.5075 0.0075 0.2891
C5 C 0.4266(8) -0.0618(8) 0.3436(9)
H28 H 0.4235 -0.1262 0.3059
H29 H 0.4413 -0.0549 0.4142
C6 C 0.3182(8) -0.0598(8) 0.2784(10)
H30 H 0.2968 -0.0798 0.2034
H31 H 0.2640 -0.1083 0.2779
C7 C 0.6325(9) 0.0247(8) 0.4332(9)
C8 C 0.2754(8) 0.4392(8) 0.7273(9)
H32 H 0.2999 0.4732 0.8032
H33 H 0.3394 0.4484 0.7249
C9 C 0.1585(8) 0.5290(8) 0.7139(9)
H34 H 0.2138 0.5790 0.7888
H35 H 0.1111 0.4759 0.7156
C10 C 0.0928(8) 0.5764(8) 0.6535(9)
H36 H 0.0285 0.5242 0.5839
H37 H 0.0687 0.6109 0.6956
C11 C 0.1570(9) 0.6510(8) 0.6330(9)
H38 H 0.2137 0.7076 0.7049
C12 C 0.2160(8) 0.6089(8) 0.5880(9)
H39 H 0.1632 0.5582 0.5128
H40 H 0.2648 0.6622 0.5880
C13 C 0.2813(8) 0.5623(8) 0.6532(9)
H41 H 0.3113 0.5305 0.6166
H42 H 0.3415 0.6145 0.7253
C14 C 0.0901(8) 0.6946(8) 0.5654(9)
C15 C -0.2114(9) -0.0720(8) 0.2090(8)
H43 H -0.2752 -0.0597 0.1954
H44 H -0.1764 -0.0337 0.1843
C16 C -0.1662(10) -0.1992(9) 0.1187(10)
H45 H -0.0947 -0.1665 0.1865
H46 H -0.1632 -0.1705 0.0709
C17 C -0.1970(11) -0.3098(10) 0.0654(11)
H47 H -0.1944 -0.3372 0.1158
H48 H -0.1448 -0.3203 0.0488
C18 C -0.3117(12) -0.3650(11) -0.0403(12)
H49 H -0.3093 -0.3415 -0.0926
C19 C -0.3951(12) -0.3393(11) -0.0213(12)
H50 H -0.4068 -0.3697 0.0222
H51 H -0.4640 -0.3671 -0.0911
C20 C -0.3567(11) -0.2263(10) 0.0371(10)
H52 H -0.3521 -0.1965 -0.0094
H53 H -0.4088 -0.2123 0.0519
C21 C -0.3373(14) -0.4796(13) -0.0883(13)
C22 C -0.4923(8) 0.2076(9) -0.1779(9)
C23 C -0.3974(9) 0.2045(9) -0.0865(9)
C24 C -0.2924(9) 0.2725(9) -0.0364(10)
H54 H -0.2791 0.3226 -0.0575
C25 C -0.2061(10) 0.2665(10) 0.0457(10)
H55 H -0.1352 0.3125 0.0788
C26 C -0.2244(9) 0.1946(9) 0.0776(9)
C27 C -0.3290(9) 0.1277(10) 0.0306(10)
H56 H -0.3413 0.0803 0.0553
C28 C -0.4159(9) 0.1304(9) -0.0529(10)
H57 H -0.4863 0.0831 -0.0867
C29 C -0.1289(9) 0.1900(9) 0.1694(9)
C30 C 0.5419(8) 0.6634(8) 0.4015(10)
C31 C 0.4599(9) 0.5808(8) 0.3919(10)
C32 C 0.4505(9) 0.4828(8) 0.3550(10)
H58 H 0.4961 0.4679 0.3344
C33 C 0.3748(9) 0.4083(9) 0.3487(10)
H59 H 0.3688 0.3430 0.3227
C34 C 0.3053(8) 0.4287(8) 0.3812(9)
C35 C 0.3142(9) 0.5261(9) 0.4168(10)
H60 H 0.2673 0.5405 0.4357
C36 C 0.3919(9) 0.6030(9) 0.4248(10)
H61 H 0.3987 0.6685 0.4517
C37 C 0.2253(9) 0.3493(8) 0.3775(10)
Ce1A Ce -0.05686(4) 0.80242(4) 0.63389(4)
Ce2A Ce 0.67948(4) -0.18275(4) 0.38487(4)
Ce2A_2 Ce -0.32052(4) -0.18275(4) 0.38487(4)
Ce2_2 Ce -0.67948(4) 0.18275(4) -0.38487(4)
Ce2A_3 Ce 0.67948(4) 0.81725(4) 0.38487(4)
Ce3A Ce 0.91537(4) 0.14570(4) 0.56272(4)
Ce3A_2 Ce -0.08463(4) 0.14570(4) 0.56272(4)
Ce3_2 Ce 0.08463(4) 0.85430(4) 0.43728(4)
O4A O 0.2865(7) -0.0975(7) 0.5389(8)
O5A O 0.3636(7) 0.0446(6) 0.5386(7)
O8A O -0.0953(6) -0.2903(6) 0.3258(7)
O9_2 O 0.1297(7) -0.2565(6) 0.5292(7)
O10A O 0.0028(7) 0.3199(6) 0.4502(7)
O11A O 0.0564(7) -0.0897(6) 0.5967(7)
O13A O 0.1813(7) 0.0384(6) 0.5914(7)
O16_2 O 0.5238(7) 0.2721(7) 0.7909(8)
O17_2 O 0.4149(7) 0.1389(7) 0.7730(7)
O20A O 0.4052(7) 0.3585(6) 0.6390(7)
O21A O 0.4433(7) 0.2477(7) 0.5551(7)
O25 O 0.4811(8) 0.8105(8) 0.8169(9)
H4 H 0.4532 0.8474 0.7933
H5 H 0.4905 0.8217 0.8786
O26 O 0.3359(7) 0.9019(7) 0.7557(8)
H6 H 0.2931 0.9229 0.7183
H7 H 0.3418 0.9169 0.8163
O27 O 0.9088(19) 0.9872(18) 0.0183(18)
H8 H 0.9360 1.0295 0.0835
H9 H 0.8858 0.9280 0.0111
O28 O 0.7214(10) 0.9377(9) 0.9375(10)
H10 H 0.6628 0.9388 0.9294
H11 H 0.7317 0.9564 0.8947
O29 O 0.9442(9) 0.4912(9) 0.7520(10)
H12 H 0.8905 0.5029 0.7162
H13 H 0.9295 0.4578 0.7828
O30 O 0.7384(9) 0.3097(8) 0.7515(9)
H14 H 0.6805 0.3146 0.7122
H15 H 0.7230 0.2604 0.7649
O31 O 0.9141(9) 0.2941(9) 0.8810(10)
H16 H 0.9658 0.3464 0.9391
H17 H 0.9071 0.2435 0.8937
loop_
_geom_bond_atom_site_label_1
_geom_bond_atom_site_label_2
_geom_bond_site_symmetry_1
_geom_bond_site_symmetry_2
Ce1 O1 1_555 1_555
Ce2 O2 1_555 1_555
Ce3 O3 1_555 1_555
P1 O1 1_555 1_555
P2 O6 1_555 1_555
P3 O11 1_555 1_555
O2 Ce1 1_555 1_555
O3 P1 1_555 1_555
O4 C7 1_555 1_555
O5 C7 1_555 1_555
O6 Ce2 1_555 1_555
O7 Ce1 1_555 1_555
O8 P2 1_555 1_555
O9 C14 1_555 1_555
O10 C14 1_555 1_555
O11 Ce1 1_555 1_555
O12 Ce3 1_555 1_555
O13 P3 1_555 1_555
O14 H1 1_555 1_555
O15 C21 1_555 1_555
O16 C22 1_555 1_555
O17 C22 1_555 1_555
O18 Ce1 1_555 1_555
O19 Ce1 1_555 1_555
O20 C30 1_555 1_555
O21 C30 1_555 1_555
O22 Ce1 1_555 1_555
O23 Ce1 1_555 1_555
O24 Ce3 1_555 1_555
H2 O24 1_555 1_555
H3 O24 1_555 1_555
O25 H4 1_555 1_555
H5 O25 1_555 1_555
O26 H6 1_555 1_555
H7 O26 1_555 1_555
O27 H8 1_555 1_555
H9 O27 1_555 1_555
O28 H10 1_555 1_555
H11 O28 1_555 1_555
O29 H12 1_555 1_555
H13 O29 1_555 1_555
O30 H14 1_555 1_555
H15 O30 1_555 1_555
O31 H16 1_555 1_555
H17 O31 1_555 1_555
N1 H18 1_555 1_555
N2 H19 1_555 1_555
N3 H20 1_555 1_555
C1 P1 1_555 1_555
H21 C1 1_555 1_555
H22 C1 1_555 1_555
C2 N1 1_555 1_555
H23 C2 1_555 1_555
H24 C2 1_555 1_555
C3 C2 1_555 1_555
H25 C3 1_555 1_555
H26 C3 1_555 1_555
C4 C3 1_555 1_555
H27 C4 1_555 1_555
C5 C4 1_555 1_555
H28 C5 1_555 1_555
H29 C5 1_555 1_555
C6 N1 1_555 1_555
H30 C6 1_555 1_555
H31 C6 1_555 1_555
C7 C4 1_555 1_555
C8 P2 1_555 1_555
H32 C8 1_555 1_555
H33 C8 1_555 1_555
C9 N2 1_555 1_555
H34 C9 1_555 1_555
H35 C9 1_555 1_555
C10 C9 1_555 1_555
H36 C10 1_555 1_555
H37 C10 1_555 1_555
C11 C10 1_555 1_555
H38 C11 1_555 1_555
C12 C11 1_555 1_555
H39 C12 1_555 1_555
H40 C12 1_555 1_555
C13 N2 1_555 1_555
H41 C13 1_555 1_555
H42 C13 1_555 1_555
C14 C11 1_555 1_555
C15 P3 1_555 1_555
H43 C15 1_555 1_555
H44 C15 1_555 1_555
C16 N3 1_555 1_555
H45 C16 1_555 1_555
H46 C16 1_555 1_555
C17 C16 1_555 1_555
H47 C17 1_555 1_555
H48 C17 1_555 1_555
C18 C17 1_555 1_555
H49 C18 1_555 1_555
C19 C18 1_555 1_555
H50 C19 1_555 1_555
H51 C19 1_555 1_555
C20 N3 1_555 1_555
H52 C20 1_555 1_555
H53 C20 1_555 1_555
C21 O14 1_555 1_555
C22 C23 1_555 1_555
C23 C24 1_555 1_555
C24 H54 1_555 1_555
C25 C24 1_555 1_555
H55 C25 1_555 1_555
C26 C25 1_555 1_555
C27 C26 1_555 1_555
H56 C27 1_555 1_555
C28 C23 1_555 1_555
H57 C28 1_555 1_555
C29 O18 1_555 1_555
C30 C31 1_555 1_555
C31 C32 1_555 1_555
C32 H58 1_555 1_555
C33 C32 1_555 1_555
H59 C33 1_555 1_555
C34 C33 1_555 1_555
C35 C34 1_555 1_555
H60 C35 1_555 1_555
C36 C31 1_555 1_555
H61 C36 1_555 1_555
C37 O22 1_555 1_555
Ce1A O10 1_555 1_555
Ce2A O5 1_555 1_555
Ce2A_2 O13 1_555 1_555
Ce2_2 O16 1_555 1_555
Ce2A_3 O20 1_555 1_555
Ce3A O4 1_555 1_555
Ce3A_2 O8 1_555 1_555
Ce3_2 O9 1_555 1_555
O4A Ce3 1_555 1_555
O5A Ce2 1_555 1_555
O8A Ce3 1_555 1_555
O9_2 Ce3 1_555 1_555
O10A Ce1 1_555 1_555
O11A Ce3 1_555 1_555
O13A Ce2 1_555 1_555
O16_2 Ce2 1_555 1_555
O17_2 Ce2 1_555 1_555
O20A Ce2 1_555 1_555
O21A Ce2 1_555 1_555
Ce2 O7 1_555 1_555
Ce3 O13A 1_555 1_555
P1 O2 1_555 1_555
P2 O7 1_555 1_555
P3 O12 1_555 1_555
O11 Ce3A_2 1_555 1_555
O13 Ce3A_2 1_555 1_555
O17 Ce2_2 1_555 1_555
O19 C29 1_555 1_555
O21 Ce2A_3 1_555 1_555
O23 C37 1_555 1_555
N1 C1 1_555 1_555
N2 C8 1_555 1_555
N3 C15 1_555 1_555
C5 C6 1_555 1_555
C12 C13 1_555 1_555
C18 C21 1_555 1_555
C19 C20 1_555 1_555
C26 C29 1_555 1_555
C27 C28 1_555 1_555
C34 C37 1_555 1_555
C35 C36 1_555 1_555

#END
