
#######################################################################
#
#                 Cambridge Crystallographic Data Centre
#                                CCDC 
#
#######################################################################
#
# If this CIF has been generated from an entry in the Cambridge 
# Structural Database, then it will include bibliographic, chemical, 
# crystal, experimental, refinement or atomic coordinate data resulting 
# from the CCDC's data processing and validation procedures.
#
#######################################################################

data_MEJZEI
_chemical_formula_moiety         '(C37 H61 La3 N3 O31 P3)n'
_symmetry_cell_setting           triclinic
_symmetry_space_group_name_H-M   'P -1'
_symmetry_Int_Tables_number      2
_space_group_name_Hall           '-P 1'
loop_
_symmetry_equiv_pos_site_id
_symmetry_equiv_pos_as_xyz
1 x,y,z
2 -x,-y,-z
_cell_length_a                   15.2688(15)
_cell_length_b                   15.3552(16)
_cell_length_c                   15.403(3)
_cell_angle_alpha                106.787(2)
_cell_angle_beta                 117.059(2)
_cell_angle_gamma                103.195(1)
_cell_volume                     2791.62
loop_
_atom_site_label
_atom_site_type_symbol
_atom_site_fract_x
_atom_site_fract_y
_atom_site_fract_z
La1 La 0.05702(5) 0.19746(4) 0.36576(5)
La2 La 0.32161(5) 0.18393(4) 0.61665(5)
La3 La 0.08488(5) -0.14639(5) 0.43676(5)
P1 P 0.1259(2) 0.0168(2) 0.3090(2)
P2 P 0.1967(2) 0.3066(2) 0.6756(2)
P3 P -0.1175(2) -0.0251(2) 0.3561(2)
O1 O 0.0236(7) 0.0253(7) 0.2338(8)
O2 O 0.1867(7) 0.1083(7) 0.4215(8)
O3 O 0.1138(7) -0.0810(7) 0.3150(8)
O4 O 0.7125(8) 0.0967(7) 0.4612(8)
O5 O 0.6353(7) -0.0447(7) 0.4608(8)
O6 O 0.2792(7) 0.2777(7) 0.7498(8)
O7 O 0.1753(7) 0.2560(7) 0.5624(8)
O8 O 0.0969(7) 0.2926(7) 0.6772(8)
O9 O 0.1304(8) 0.7432(7) 0.5311(8)
O10 O -0.0034(7) 0.6781(7) 0.5495(8)
O11 O -0.0571(7) 0.0889(7) 0.4026(8)
O12 O -0.0469(7) -0.0803(7) 0.3712(8)
O13 O -0.1822(7) -0.0391(7) 0.4072(8)
O14 O -0.2766(12) -0.5072(10) -0.1117(13)
H1 H -0.2933 -0.5247 -0.1767
O15 O -0.4198(11) -0.5319(10) -0.1030(12)
O16 O -0.4749(8) 0.2721(7) -0.2080(9)
O17 O -0.5834(8) 0.1407(7) -0.2245(8)
O18 O -0.0361(8) 0.2345(7) 0.1956(9)
O19 O -0.1484(8) 0.1408(7) 0.2166(9)
O20 O 0.5930(8) 0.6388(7) 0.3593(8)
O21 O 0.5561(8) 0.7507(7) 0.4442(8)
O22 O 0.2020(8) 0.2588(7) 0.3243(8)
O23 O 0.1839(8) 0.3754(7) 0.4278(8)
O24 O 0.0968(9) -0.2821(8) 0.3046(9)
H2 H 0.0380 -0.3350 0.2662
H3 H 0.1493 -0.2948 0.3413
N1 N 0.3210(7) 0.0403(7) 0.3233(8)
H18 H 0.3376 0.0549 0.3914
N2 N 0.2116(7) 0.4865(7) 0.6638(8)
H19 H 0.1587 0.4378 0.5958
N3 N -0.2480(8) -0.1817(7) 0.1408(8)
H20 H -0.2542 -0.2141 0.1794
C1 C 0.2112(9) 0.0405(10) 0.2585(10)
H21 H 0.1728 -0.0101 0.1834
H22 H 0.2221 0.1051 0.2582
C2 C 0.4050(9) 0.1183(9) 0.3319(11)
H23 H 0.4049 0.1829 0.3631
H24 H 0.3891 0.1044 0.2594
C3 C 0.5173(10) 0.1227(9) 0.4035(11)
H25 H 0.5706 0.1727 0.4050
H26 H 0.5360 0.1431 0.4777
C4 C 0.5210(9) 0.0222(9) 0.3617(11)
H27 H 0.5085 0.0071 0.2896
C5 C 0.4275(9) -0.0609(9) 0.3446(11)
H28 H 0.4251 -0.1255 0.3085
H29 H 0.4418 -0.0524 0.4154
C6 C 0.3183(10) -0.0606(9) 0.2771(11)
H30 H 0.2983 -0.0797 0.2026
H31 H 0.2637 -0.1096 0.2752
C7 C 0.6308(9) 0.0247(8) 0.4332(10)
C8 C 0.2752(9) 0.4406(8) 0.7279(10)
H32 H 0.2993 0.4756 0.8036
H33 H 0.3391 0.4496 0.7258
C9 C 0.1594(10) 0.5308(9) 0.7168(10)
H34 H 0.2151 0.5815 0.7913
H35 H 0.1123 0.4786 0.7193
C10 C 0.0935(9) 0.5776(9) 0.6532(10)
H36 H 0.0308 0.5246 0.5831
H37 H 0.0674 0.6114 0.6931
C11 C 0.1572(9) 0.6512(9) 0.6344(10)
H38 H 0.2142 0.7076 0.7065
C12 C 0.2145(9) 0.6072(9) 0.5868(10)
H39 H 0.1611 0.5546 0.5126
H40 H 0.2620 0.6591 0.5844
C13 C 0.2806(9) 0.5642(9) 0.6558(10)
H41 H 0.3150 0.5352 0.6232
H42 H 0.3373 0.6177 0.7285
C14 C 0.0900(9) 0.6947(9) 0.5658(10)
C15 C -0.2121(10) -0.0736(9) 0.2073(10)
H43 H -0.2758 -0.0616 0.1938
H44 H -0.1776 -0.0354 0.1825
C16 C -0.1671(12) -0.2002(10) 0.1174(11)
H45 H -0.0957 -0.1665 0.1851
H46 H -0.1646 -0.1721 0.0692
C17 C -0.1959(13) -0.3101(11) 0.0650(13)
H47 H -0.1929 -0.3371 0.1155
H48 H -0.1432 -0.3198 0.0491
C18 C -0.3111(14) -0.3677(12) -0.0423(13)
H49 H -0.3091 -0.3450 -0.0950
C19 C -0.3932(14) -0.3419(12) -0.0230(14)
H50 H -0.4042 -0.3715 0.0210
H51 H -0.4621 -0.3704 -0.0926
C20 C -0.3547(12) -0.2266(11) 0.0360(12)
H52 H -0.3490 -0.1972 -0.0102
H53 H -0.4073 -0.2125 0.0495
C21 C -0.3394(16) -0.4797(14) -0.0897(15)
C22 C -0.4907(10) 0.2076(10) -0.1762(11)
C23 C -0.3970(10) 0.2066(10) -0.0845(11)
C24 C -0.2917(10) 0.2700(10) -0.0378(11)
H54 H -0.2780 0.3170 -0.0622
C25 C -0.2055(11) 0.2661(11) 0.0441(11)
H55 H -0.1351 0.3123 0.0768
C26 C -0.2235(10) 0.1941(10) 0.0776(11)
C27 C -0.3288(10) 0.1302(10) 0.0327(11)
H56 H -0.3419 0.0853 0.0596
C28 C -0.4157(11) 0.1322(11) -0.0521(11)
H57 H -0.4857 0.0842 -0.0871
C29 C -0.1290(10) 0.1895(10) 0.1690(11)
C30 C 0.5411(11) 0.6630(9) 0.3998(11)
C31 C 0.4618(10) 0.5821(9) 0.3951(11)
C32 C 0.4493(10) 0.4814(9) 0.3536(11)
H58 H 0.4914 0.4648 0.3288
C33 C 0.3738(10) 0.4082(9) 0.3504(11)
H59 H 0.3689 0.3433 0.3269
C34 C 0.3062(10) 0.4279(9) 0.3805(11)
C35 C 0.3163(11) 0.5273(9) 0.4181(11)
H60 H 0.2713 0.5424 0.4393
C36 C 0.3921(10) 0.6030(9) 0.4240(11)
H61 H 0.3963 0.6678 0.4473
C37 C 0.2262(10) 0.3502(9) 0.3777(11)
La1A La -0.05702(5) 0.80254(4) 0.63424(5)
La2A La 0.67839(5) -0.18393(4) 0.38335(5)
La2A_2 La -0.32161(5) -0.18393(4) 0.38335(5)
La2_2 La -0.67839(5) 0.18393(4) -0.38335(5)
La2A_3 La 0.67839(5) 0.81607(4) 0.38335(5)
La3A La 0.91512(5) 0.14639(5) 0.56324(5)
La3A_2 La -0.08488(5) 0.14639(5) 0.56324(5)
La3_2 La 0.08488(5) 0.85361(5) 0.43676(5)
O4A O 0.2875(8) -0.0967(7) 0.5388(8)
O5A O 0.3647(7) 0.0447(7) 0.5392(8)
O8A O -0.0969(7) -0.2926(7) 0.3228(8)
O9_2 O 0.1304(8) -0.2568(7) 0.5311(8)
O10A O 0.0034(7) 0.3219(7) 0.4505(8)
O11A O 0.0571(7) -0.0889(7) 0.5974(8)
O13A O 0.1822(7) 0.0391(7) 0.5928(8)
O16_2 O 0.5251(8) 0.2721(7) 0.7920(9)
O17_2 O 0.4166(8) 0.1407(7) 0.7755(8)
O20A O 0.4070(8) 0.3612(7) 0.6407(8)
O21A O 0.4439(8) 0.2493(7) 0.5558(8)
O25 O 0.4784(9) 0.8081(9) 0.8126(10)
H4 H 0.4505 0.8450 0.7890
H5 H 0.4878 0.8193 0.8743
O26 O 0.3356(8) 0.9028(8) 0.7559(9)
H6 H 0.2928 0.9238 0.7186
H7 H 0.3415 0.9178 0.8166
O27 O 0.9102(13) 0.9836(13) 0.0182(13)
H8 H 0.9375 1.0259 0.0834
H9 H 0.8873 0.9244 0.0110
O28 O 0.7197(10) 0.9401(9) 0.9418(10)
H10 H 0.6611 0.9412 0.9337
H11 H 0.7300 0.9587 0.8991
O29 O 0.9445(9) 0.4921(9) 0.7489(10)
H12 H 0.8907 0.5038 0.7132
H13 H 0.9297 0.4588 0.7797
O30 O 0.7361(10) 0.3068(9) 0.7478(10)
H14 H 0.6782 0.3117 0.7085
H15 H 0.7207 0.2576 0.7611
O31 O 0.9144(10) 0.2966(9) 0.8831(10)
H16 H 0.9661 0.3489 0.9413
H17 H 0.9074 0.2460 0.8958
loop_
_geom_bond_atom_site_label_1
_geom_bond_atom_site_label_2
_geom_bond_site_symmetry_1
_geom_bond_site_symmetry_2
La1 O1 1_555 1_555
La2 O2 1_555 1_555
La3 O3 1_555 1_555
P1 O1 1_555 1_555
P2 O6 1_555 1_555
P3 O11 1_555 1_555
O2 La1 1_555 1_555
O3 P1 1_555 1_555
O4 C7 1_555 1_555
O5 C7 1_555 1_555
O6 La2 1_555 1_555
O7 La1 1_555 1_555
O8 P2 1_555 1_555
O9 C14 1_555 1_555
O10 C14 1_555 1_555
O11 La1 1_555 1_555
O12 La3 1_555 1_555
O13 P3 1_555 1_555
O14 H1 1_555 1_555
O15 C21 1_555 1_555
O16 C22 1_555 1_555
O17 C22 1_555 1_555
O18 La1 1_555 1_555
O19 La1 1_555 1_555
O20 C30 1_555 1_555
O21 C30 1_555 1_555
O22 La1 1_555 1_555
O23 La1 1_555 1_555
O24 La3 1_555 1_555
H2 O24 1_555 1_555
H3 O24 1_555 1_555
O25 H4 1_555 1_555
H5 O25 1_555 1_555
O26 H6 1_555 1_555
H7 O26 1_555 1_555
O27 H8 1_555 1_555
H9 O27 1_555 1_555
O28 H10 1_555 1_555
H11 O28 1_555 1_555
O29 H12 1_555 1_555
H13 O29 1_555 1_555
O30 H14 1_555 1_555
H15 O30 1_555 1_555
O31 H16 1_555 1_555
H17 O31 1_555 1_555
N1 H18 1_555 1_555
N2 H19 1_555 1_555
N3 H20 1_555 1_555
C1 P1 1_555 1_555
H21 C1 1_555 1_555
H22 C1 1_555 1_555
C2 N1 1_555 1_555
H23 C2 1_555 1_555
H24 C2 1_555 1_555
C3 C2 1_555 1_555
H25 C3 1_555 1_555
H26 C3 1_555 1_555
C4 C3 1_555 1_555
H27 C4 1_555 1_555
C5 C4 1_555 1_555
H28 C5 1_555 1_555
H29 C5 1_555 1_555
C6 N1 1_555 1_555
H30 C6 1_555 1_555
H31 C6 1_555 1_555
C7 C4 1_555 1_555
C8 P2 1_555 1_555
H32 C8 1_555 1_555
H33 C8 1_555 1_555
C9 N2 1_555 1_555
H34 C9 1_555 1_555
H35 C9 1_555 1_555
C10 C9 1_555 1_555
H36 C10 1_555 1_555
H37 C10 1_555 1_555
C11 C10 1_555 1_555
H38 C11 1_555 1_555
C12 C11 1_555 1_555
H39 C12 1_555 1_555
H40 C12 1_555 1_555
C13 N2 1_555 1_555
H41 C13 1_555 1_555
H42 C13 1_555 1_555
C14 C11 1_555 1_555
C15 P3 1_555 1_555
H43 C15 1_555 1_555
H44 C15 1_555 1_555
C16 N3 1_555 1_555
H45 C16 1_555 1_555
H46 C16 1_555 1_555
C17 C16 1_555 1_555
H47 C17 1_555 1_555
H48 C17 1_555 1_555
C18 C17 1_555 1_555
H49 C18 1_555 1_555
C19 C18 1_555 1_555
H50 C19 1_555 1_555
H51 C19 1_555 1_555
C20 N3 1_555 1_555
H52 C20 1_555 1_555
H53 C20 1_555 1_555
C21 O14 1_555 1_555
C22 C23 1_555 1_555
C23 C24 1_555 1_555
C24 H54 1_555 1_555
C25 C24 1_555 1_555
H55 C25 1_555 1_555
C26 C25 1_555 1_555
C27 C26 1_555 1_555
H56 C27 1_555 1_555
C28 C23 1_555 1_555
H57 C28 1_555 1_555
C29 O18 1_555 1_555
C30 C31 1_555 1_555
C31 C32 1_555 1_555
C32 H58 1_555 1_555
C33 C32 1_555 1_555
H59 C33 1_555 1_555
C34 C33 1_555 1_555
C35 C34 1_555 1_555
H60 C35 1_555 1_555
C36 C31 1_555 1_555
H61 C36 1_555 1_555
C37 O22 1_555 1_555
La1A O10 1_555 1_555
La2A O5 1_555 1_555
La2A_2 O13 1_555 1_555
La2_2 O16 1_555 1_555
La2A_3 O20 1_555 1_555
La3A O4 1_555 1_555
La3A_2 O8 1_555 1_555
La3_2 O9 1_555 1_555
O4A La3 1_555 1_555
O5A La2 1_555 1_555
O8A La3 1_555 1_555
O9_2 La3 1_555 1_555
O10A La1 1_555 1_555
O11A La3 1_555 1_555
O13A La2 1_555 1_555
O16_2 La2 1_555 1_555
O17_2 La2 1_555 1_555
O20A La2 1_555 1_555
O21A La2 1_555 1_555
La2 O7 1_555 1_555
La3 O13A 1_555 1_555
P1 O2 1_555 1_555
P2 O7 1_555 1_555
P3 O12 1_555 1_555
O11 La3A_2 1_555 1_555
O13 La3A_2 1_555 1_555
O17 La2_2 1_555 1_555
O19 C29 1_555 1_555
O21 La2A_3 1_555 1_555
O23 C37 1_555 1_555
N1 C1 1_555 1_555
N2 C8 1_555 1_555
N3 C15 1_555 1_555
C5 C6 1_555 1_555
C12 C13 1_555 1_555
C18 C21 1_555 1_555
C19 C20 1_555 1_555
C26 C29 1_555 1_555
C27 C28 1_555 1_555
C34 C37 1_555 1_555
C35 C36 1_555 1_555

#END
