
#######################################################################
#
#                 Cambridge Crystallographic Data Centre
#                                CCDC 
#
#######################################################################
#
# If this CIF has been generated from an entry in the Cambridge 
# Structural Database, then it will include bibliographic, chemical, 
# crystal, experimental, refinement or atomic coordinate data resulting 
# from the CCDC's data processing and validation procedures.
#
#######################################################################

data_MEJZUY
_chemical_formula_moiety         '(C37 H61 N3 O31 P3 Sm3)n'
_symmetry_cell_setting           triclinic
_symmetry_space_group_name_H-M   'P -1'
_symmetry_Int_Tables_number      2
_space_group_name_Hall           '-P 1'
loop_
_symmetry_equiv_pos_site_id
_symmetry_equiv_pos_as_xyz
1 x,y,z
2 -x,-y,-z
_cell_length_a                   15.040(3)
_cell_length_b                   15.090(3)
_cell_length_c                   15.179(5)
_cell_angle_alpha                105.689(4)
_cell_angle_beta                 103.559(4)
_cell_angle_gamma                117.111(3)
_cell_volume                     2682.74
loop_
_atom_site_label
_atom_site_type_symbol
_atom_site_fract_x
_atom_site_fract_y
_atom_site_fract_z
Sm1 Sm 0.18247(7) -0.11268(8) 0.31907(7)
Sm2 Sm 0.44276(7) 0.13319(8) 0.30217(7)
Sm3 Sm 0.58430(7) -0.06229(8) 0.35706(7)
P1 P 0.3831(4) -0.1417(4) 0.4774(3)
P2 P 0.3054(4) -0.1719(4) 0.1991(3)
P3 P 0.3750(4) 0.1895(4) 0.4788(4)
O1 O 0.4460(8) -0.0943(9) 0.5913(8)
O2 O 0.4538(9) -0.1266(9) 0.4208(8)
O3 O 0.3184(8) -0.0893(9) 0.4632(8)
O4 O 0.0728(16) -0.6124(18) -0.0286(13)
O5 O 0.2265(18) -0.6012(19) -0.0035(17)
H1 H 0.2016 -0.6252 -0.0673
O6 O 0.2208(9) -0.2476(10) 0.2289(8)
O7 O 0.3299(9) -0.0555(10) 0.2505(8)
O8 O 0.4062(9) -0.1729(10) 0.2144(8)
O9 O 0.5038(9) -0.0520(10) -0.1826(9)
O10 O 0.3708(10) -0.0252(11) -0.2465(9)
O11 O 0.3873(9) 0.1793(11) 0.5770(9)
O12 O 0.3122(9) 0.0772(10) 0.3881(8)
O13 O 0.4774(9) 0.2622(11) 0.4676(9)
O14 O -0.2175(9) 0.0357(11) 0.4021(9)
O15 O -0.1403(9) 0.0388(12) 0.5471(9)
O16 O 0.0878(9) -0.2711(12) 0.3624(9)
O17 O -0.0190(10) -0.2892(11) 0.2255(10)
O18 O -0.3545(10) -0.7194(11) 0.3571(10)
O19 O -0.4699(11) -0.6986(11) 0.2617(10)
O20 O 0.0564(10) -0.0520(12) 0.2574(9)
O21 O 0.1011(10) -0.1331(11) 0.1485(9)
O22 O -0.3017(10) -0.1797(11) -0.2437(9)
O23 O -0.3191(10) -0.0723(12) -0.1269(9)
O24 O 0.5972(12) -0.1884(14) 0.2273(10)
H2 H 0.6585 -0.1535 0.2232
H3 H 0.5921 -0.2403 0.2428
N1 N 0.2561(12) -0.3597(12) 0.3241(11)
H18 H 0.2502 -0.3203 0.2903
N2 N 0.2885(11) -0.1623(12) 0.0157(10)
H19 H 0.3429 -0.0936 0.0632
N3 N 0.1807(11) 0.1790(13) 0.4581(11)
H20 H 0.1634 0.1097 0.4432
C1 C 0.2898(14) -0.2901(15) 0.4319(13)
H21 H 0.3251 -0.3148 0.4714
H22 H 0.2248 -0.3046 0.4429
C2 C 0.1447(15) -0.4626(16) 0.2814(14)
H23 H 0.1518 -0.5094 0.3111
H24 H 0.0916 -0.4499 0.2961
C3 C 0.1064(19) -0.5228(19) 0.1672(15)
H25 H 0.0360 -0.5919 0.1387
H26 H 0.0976 -0.4769 0.1373
C4 C 0.1905(16) -0.5419(18) 0.1389(15)
H27 H 0.1927 -0.5949 0.1617
C5 C 0.3065(16) -0.4381(17) 0.1961(13)
H28 H 0.3597 -0.4534 0.1858
H29 H 0.3069 -0.3879 0.1678
C6 C 0.3397(15) -0.3809(18) 0.3070(14)
H30 H 0.4125 -0.3139 0.3414
H31 H 0.3395 -0.4315 0.3346
C7 C 0.158(3) -0.589(2) 0.026(2)
C8 C 0.2269(14) -0.2250(16) 0.0644(13)
H32 H 0.1642 -0.2197 0.0557
H33 H 0.1999 -0.3017 0.0309
C9 C 0.3396(15) -0.2159(16) -0.0287(14)
H34 H 0.2821 -0.2900 -0.0782
H35 H 0.3862 -0.2199 0.0240
C10 C 0.4087(14) -0.1544(16) -0.0760(13)
H36 H 0.4357 -0.1945 -0.1076
H37 H 0.4716 -0.0837 -0.0246
C11 C 0.3417(14) -0.1353(15) -0.1529(13)
H38 H 0.2855 -0.2070 -0.2073
C12 C 0.2841(14) -0.0863(16) -0.1092(13)
H39 H 0.2344 -0.0864 -0.1629
H40 H 0.3378 -0.0109 -0.0603
C13 C 0.2189(15) -0.1534(16) -0.0627(14)
H41 H 0.1872 -0.1178 -0.0333
H42 H 0.1596 -0.2265 -0.1130
C14 C 0.4110(14) -0.0635(15) -0.1973(13)
C15 C 0.2919(12) 0.2462(14) 0.4583(12)
H43 H 0.3310 0.3190 0.5118
H44 H 0.2823 0.2526 0.3957
C16 C 0.0937(15) 0.1703(19) 0.3807(14)
H45 H 0.1111 0.2441 0.3987
H46 H 0.0940 0.1442 0.3157
C17 C -0.0184(15) 0.1009(18) 0.3756(13)
H47 H -0.0724 0.1005 0.3259
H48 H -0.0372 0.0265 0.3560
C18 C -0.0230(14) 0.1377(16) 0.4782(13)
H49 H -0.0088 0.2101 0.4938
C19 C 0.0723(13) 0.1547(16) 0.5596(13)
H50 H 0.0751 0.1881 0.6245
H51 H 0.0566 0.0824 0.5486
C20 C 0.1817(14) 0.2244(16) 0.5607(13)
H52 H 0.2384 0.2281 0.6105
H53 H 0.2000 0.2982 0.5763
C21 C -0.1344(16) 0.0667(17) 0.4766(15)
C22 C 0.0480(15) -0.0956(16) 0.1682(14)
C23 C -0.0403(15) -0.1068(16) 0.0852(14)
C24 C -0.0488(16) -0.1448(18) -0.0124(16)
H54 H -0.0013 -0.1678 -0.0253
C25 C -0.1271(14) -0.1516(16) -0.0916(13)
H55 H -0.1309 -0.1751 -0.1586
C26 C -0.1985(15) -0.1192(16) -0.0724(14)
C27 C -0.1891(17) -0.0880(19) 0.0273(15)
H56 H -0.2385 -0.0678 0.0399
C28 C -0.1118(15) -0.0787(17) 0.1038(13)
H57 H -0.1109 -0.0586 0.1699
C29 C -0.2789(14) -0.1267(15) -0.1526(13)
C30 C -0.0018(15) -0.3198(15) 0.2940(14)
C31 C -0.1022(15) -0.4140(17) 0.2959(15)
C32 C -0.0845(15) -0.4438(17) 0.3719(15)
H58 H -0.0106 -0.4068 0.4219
C33 C -0.1735(14) -0.5268(16) 0.3749(14)
H59 H -0.1618 -0.5500 0.4275
C34 C -0.2802(15) -0.5805(18) 0.3023(14)
C35 C -0.2926(18) -0.5458(19) 0.2291(16)
H60 H -0.3662 -0.5801 0.1799
C36 C -0.2074(16) -0.4656(18) 0.2229(15)
H61 H -0.2177 -0.4465 0.1672
C37 C -0.3724(16) -0.6693(16) 0.3090(15)
Sm1A Sm -0.18247(7) 0.11268(8) 0.68093(7)
Sm2A Sm 0.55724(7) -0.13319(8) 0.69783(7)
Sm2A_2 Sm 0.55724(7) -0.13319(8) -0.30217(7)
Sm2_2 Sm -0.55724(7) -0.86681(8) 0.30217(7)
Sm2A_3 Sm -0.44276(7) -0.13319(8) -0.30217(7)
Sm3A Sm 0.41570(7) 0.06229(8) 0.64294(7)
Sm3A_2 Sm 0.41570(7) 0.06229(8) -0.35706(7)
Sm3_2 Sm -0.41570(7) -0.06229(8) 0.35706(7)
O1A O 0.5540(8) 0.0943(9) 0.4087(8)
O3A O 0.6816(8) 0.0893(9) 0.5368(8)
O9A O 0.4962(9) 0.0520(10) 0.1826(9)
O10A O 0.6292(10) 0.0252(11) 0.2465(9)
O11A O 0.6127(9) -0.1793(11) 0.4230(9)
O14_2 O 0.7825(9) 0.0357(11) 0.4021(9)
O15A O 0.1403(9) -0.0388(12) 0.4529(9)
O18_2 O 0.6455(10) 0.2806(11) 0.3571(10)
O19_2 O 0.5301(11) 0.3014(11) 0.2617(10)
O22A O 0.3017(10) 0.1797(11) 0.2437(9)
O23A O 0.3191(10) 0.0723(12) 0.1269(9)
O25 O 0.8334(12) -0.7426(13) 0.4029(11)
H4 H 0.8305 -0.7623 0.4505
H5 H 0.8024 -0.7994 0.3476
O26 O 0.3959(19) -0.4809(17) 0.4920(16)
H6 H 0.4659 -0.4456 0.5134
H7 H 0.3774 -0.4926 0.5388
O27 O 0.664(3) -0.388(3) 0.701(3)
H8 H 0.6412 -0.4530 0.6615
H9 H 0.7318 -0.3446 0.7144
O28 O 0.583(3) -0.385(3) 0.211(3)
H10 H 0.5966 -0.4079 0.2546
H11 H 0.5473 -0.4383 0.1521
O29 O 0.781(8) -0.247(8) 0.198(7)
H12 H 0.8170 -0.2025 0.1767
H13 H 0.7480 -0.3131 0.1539
O30 O 0.030(4) -0.319(4) 0.684(3)
H14 H -0.0025 -0.2917 0.7074
H15 H -0.0126 -0.3887 0.6547
O31 O 0.500(4) -0.525(4) 0.299(3)
H16 H 0.4907 -0.5564 0.3376
H17 H 0.4682 -0.5733 0.2380
loop_
_geom_bond_atom_site_label_1
_geom_bond_atom_site_label_2
_geom_bond_site_symmetry_1
_geom_bond_site_symmetry_2
Sm1 O3 1_555 1_555
Sm2 O7 1_555 1_555
Sm3 O2 1_555 1_555
P1 O1 1_555 1_555
P2 O6 1_555 1_555
P3 O11 1_555 1_555
O1 Sm2A 1_555 1_555
O2 P1 1_555 1_555
O3 P1 1_555 1_555
O4 C7 1_555 1_555
O5 H1 1_555 1_555
O6 Sm1 1_555 1_555
O7 Sm1 1_555 1_555
O8 Sm3 1_555 1_555
O9 C14 1_555 1_555
O10 C14 1_555 1_555
O11 Sm3A 1_555 1_555
O12 Sm1 1_555 1_555
O13 Sm2 1_555 1_555
O14 C21 1_555 1_555
O15 C21 1_555 1_555
O16 Sm1 1_555 1_555
O17 Sm1 1_555 1_555
O18 C37 1_555 1_555
O19 C37 1_555 1_555
O20 Sm1 1_555 1_555
O21 Sm1 1_555 1_555
O22 C29 1_555 1_555
O23 C29 1_555 1_555
O24 Sm3 1_555 1_555
H2 O24 1_555 1_555
H3 O24 1_555 1_555
O25 H4 1_555 1_555
H5 O25 1_555 1_555
O26 H6 1_555 1_555
H7 O26 1_555 1_555
O27 H8 1_555 1_555
H9 O27 1_555 1_555
O28 H10 1_555 1_555
H11 O28 1_555 1_555
O29 H12 1_555 1_555
H13 O29 1_555 1_555
O30 H14 1_555 1_555
H15 O30 1_555 1_555
O31 H16 1_555 1_555
H17 O31 1_555 1_555
N1 H18 1_555 1_555
N2 H19 1_555 1_555
N3 H20 1_555 1_555
C1 P1 1_555 1_555
H21 C1 1_555 1_555
H22 C1 1_555 1_555
C2 N1 1_555 1_555
H23 C2 1_555 1_555
H24 C2 1_555 1_555
C3 C2 1_555 1_555
H25 C3 1_555 1_555
H26 C3 1_555 1_555
C4 C3 1_555 1_555
H27 C4 1_555 1_555
C5 C4 1_555 1_555
H28 C5 1_555 1_555
H29 C5 1_555 1_555
C6 N1 1_555 1_555
H30 C6 1_555 1_555
H31 C6 1_555 1_555
C7 O5 1_555 1_555
C8 P2 1_555 1_555
H32 C8 1_555 1_555
H33 C8 1_555 1_555
C9 N2 1_555 1_555
H34 C9 1_555 1_555
H35 C9 1_555 1_555
C10 C9 1_555 1_555
H36 C10 1_555 1_555
H37 C10 1_555 1_555
C11 C10 1_555 1_555
H38 C11 1_555 1_555
C12 C11 1_555 1_555
H39 C12 1_555 1_555
H40 C12 1_555 1_555
C13 N2 1_555 1_555
H41 C13 1_555 1_555
H42 C13 1_555 1_555
C14 C11 1_555 1_555
C15 P3 1_555 1_555
H43 C15 1_555 1_555
H44 C15 1_555 1_555
C16 N3 1_555 1_555
H45 C16 1_555 1_555
H46 C16 1_555 1_555
C17 C16 1_555 1_555
H47 C17 1_555 1_555
H48 C17 1_555 1_555
C18 C17 1_555 1_555
H49 C18 1_555 1_555
C19 C18 1_555 1_555
H50 C19 1_555 1_555
H51 C19 1_555 1_555
C20 N3 1_555 1_555
H52 C20 1_555 1_555
H53 C20 1_555 1_555
C21 C18 1_555 1_555
C22 O20 1_555 1_555
C23 C22 1_555 1_555
C24 C23 1_555 1_555
H54 C24 1_555 1_555
C25 C24 1_555 1_555
H55 C25 1_555 1_555
C26 C25 1_555 1_555
C27 C26 1_555 1_555
H56 C27 1_555 1_555
C28 C23 1_555 1_555
H57 C28 1_555 1_555
C29 C26 1_555 1_555
C30 O16 1_555 1_555
C31 C30 1_555 1_555
C32 C31 1_555 1_555
H58 C32 1_555 1_555
C33 C32 1_555 1_555
H59 C33 1_555 1_555
C34 C33 1_555 1_555
C35 C34 1_555 1_555
H60 C35 1_555 1_555
C36 C31 1_555 1_555
H61 C36 1_555 1_555
C37 C34 1_555 1_555
Sm1A O15 1_555 1_555
Sm2A_2 O9 1_555 1_555
Sm2_2 O18 1_555 1_555
Sm2A_3 O22 1_555 1_555
Sm3A O1 1_555 1_555
Sm3A_2 O10 1_555 1_555
Sm3_2 O14 1_555 1_555
O1A Sm2 1_555 1_555
O3A Sm3 1_555 1_555
O9A Sm2 1_555 1_555
O10A Sm3 1_555 1_555
O11A Sm3 1_555 1_555
O14_2 Sm3 1_555 1_555
O15A Sm1 1_555 1_555
O18_2 Sm2 1_555 1_555
O19_2 Sm2 1_555 1_555
O22A Sm2 1_555 1_555
O23A Sm2 1_555 1_555
Sm2 O12 1_555 1_555
Sm3 O1A 1_555 1_555
P2 O7 1_555 1_555
P2 O8 1_555 1_555
P3 O12 1_555 1_555
P3 O13 1_555 1_555
O3 Sm3A 1_555 1_555
O17 C30 1_555 1_555
O19 Sm2_2 1_555 1_555
O21 C22 1_555 1_555
O23 Sm2A_3 1_555 1_555
N1 C1 1_555 1_555
N2 C8 1_555 1_555
N3 C15 1_555 1_555
C4 C7 1_555 1_555
C5 C6 1_555 1_555
C12 C13 1_555 1_555
C19 C20 1_555 1_555
C27 C28 1_555 1_555
C35 C36 1_555 1_555

#END
