
#######################################################################
#
#                 Cambridge Crystallographic Data Centre
#                                CCDC 
#
#######################################################################
#
# If this CIF has been generated from an entry in the Cambridge 
# Structural Database, then it will include bibliographic, chemical, 
# crystal, experimental, refinement or atomic coordinate data resulting 
# from the CCDC's data processing and validation procedures.
#
#######################################################################

data_DAFJUS
_chemical_formula_moiety         '(C42 H25 Mg3 N6 O13 1-)n'
_symmetry_cell_setting           hexagonal
_symmetry_space_group_name_H-M   'P 63/m m c'
_symmetry_Int_Tables_number      194
_space_group_name_Hall           '-P 6c 2c'
loop_
_symmetry_equiv_pos_site_id
_symmetry_equiv_pos_as_xyz
1 x,y,z
2 x-y,x,1/2+z
3 -y,x-y,z
4 -x,-y,1/2+z
5 -x+y,-x,z
6 y,-x+y,1/2+z
7 -y,-x,1/2-z
8 x-y,-y,-z
9 x,x-y,1/2-z
10 y,x,-z
11 -x+y,y,1/2-z
12 -x,-x+y,-z
13 -x,-y,-z
14 -x+y,-x,1/2-z
15 y,-x+y,-z
16 x,y,1/2-z
17 x-y,x,-z
18 -y,x-y,1/2-z
19 y,x,1/2+z
20 -x+y,y,z
21 -x,-x+y,1/2+z
22 -y,-x,z
23 x-y,-y,1/2+z
24 x,x-y,z
_cell_length_a                   17.0231(11)
_cell_length_b                   17.0231(11)
_cell_length_c                   14.947(3)
_cell_angle_alpha                90
_cell_angle_beta                 90
_cell_angle_gamma                120
_cell_volume                     3751.13
loop_
_atom_site_label
_atom_site_type_symbol
_atom_site_fract_x
_atom_site_fract_y
_atom_site_fract_z
Mg1 Mg 0.26589(4) 0.53177(8) 0.2500
N1 N 0.18963(11) 0.3793(2) 0.2500
O1 O 0.3333 0.6667 0.2500
O2 O 0.17569(10) 0.52249(9) 0.15414(10)
C1 C 0.2321(2) 0.3306(2) 0.2500
C2 C 0.14665(18) 0.57332(9) 0.12922(18)
H1 H 0.2952 0.3622 0.2500
C3 C 0.1890(2) 0.2377(2) 0.2500
C4 C 0.0707(2) 0.53533(10) 0.0625(2)
H2 H 0.2220 0.2077 0.2500
C5 C 0.09473(14) 0.1895(3) 0.2500
C6 C 0.03447(18) 0.44822(16) 0.03131(19)
C7 C 0.04373(14) 0.0875(3) 0.2500
H3 H 0.0567 0.4118 0.0527
N2 N 0.0931(2) 0.04654(11) 0.2500
O2J O 0.34680(13) 0.52249(9) 0.34586(10)
O2O O 0.17569(10) 0.52249(9) 0.34586(10)
O2S O 0.34680(13) 0.52249(9) 0.15414(10)
C1J C 0.0985(3) 0.3306(2) 0.2500
Mg1B Mg 0.46823(8) 0.73412(9) 0.2500
Mg1D Mg 0.26588(9) 0.73411(4) 0.2500
H1J H 0.0670 0.3622 0.2500
C3J C 0.0487(3) 0.2377(2) 0.2500
O2W O 0.17569(10) 0.65320(13) 0.15414(10)
H2J H -0.0143 0.2077 0.2500
C6W C 0.03447(18) 0.58625(24) 0.03131(19)
C6K C -0.03447(18) 0.41375(24) -0.03131(19)
C6L C -0.03447(18) 0.55178(16) -0.03131(19)
H3W H 0.0567 0.6449 0.0527
N2B N -0.04654(11) 0.04656(23) 0.2500
C4K C -0.0707(2) 0.46463(22) -0.0625(2)
H3K H -0.0567 0.3551 -0.0527
H3L H -0.0567 0.5882 -0.0527
C7D C 0.04377(33) -0.04373(14) 0.2500
C7B C -0.0875(3) -0.04377(33) 0.2500
C2K C -0.14665(18) 0.42667(20) -0.12922(18)
C5D C 0.09477(33) -0.09473(14) 0.2500
N2D N -0.04656(23) -0.0931(2) 0.2500
C5B C -0.1895(3) -0.09477(33) 0.2500
O2K O -0.17569(10) 0.34680(13) -0.15414(10)
O2L O -0.17569(10) 0.47751(9) -0.15414(10)
C3D C 0.0487(3) -0.1890(2) 0.2500
C3H C 0.1890(2) -0.0487(3) 0.2500
C3B C -0.2377(2) -0.0487(3) 0.2500
C3F C -0.2377(2) -0.1890(2) 0.2500
Mg1A Mg -0.26588(9) 0.26589(4) -0.2500
Mg1C Mg -0.26589(4) 0.46823(8) -0.2500
C1D C 0.0985(3) -0.2321(2) 0.2500
H2D H -0.0143 -0.2220 0.2500
C1H C 0.2321(2) -0.0985(3) 0.2500
H2H H 0.2220 0.0143 0.2500
C1B C -0.3306(2) -0.0985(3) 0.2500
H2B H -0.2077 0.0143 0.2500
C1F C -0.3306(2) -0.2321(2) 0.2500
H2F H -0.2077 -0.2220 0.2500
O2P O -0.34680(13) 0.17569(10) -0.15414(10)
H1D H 0.0670 -0.2952 0.2500
N1D N 0.18967(23) -0.18963(11) 0.2500
H1H H 0.2952 -0.0670 0.2500
H1B H -0.3622 -0.0670 0.2500
N1B N -0.3793(2) -0.18967(23) 0.2500
H1F H -0.3622 -0.2952 0.2500
C2I C -0.42668(9) 0.14665(18) -0.12922(18)
Mg1E Mg -0.46823(8) 0.26588(9) -0.2500
Mg1D_2 Mg 0.26588(9) -0.26589(4) 0.2500
Mg1B_2 Mg -0.53177(8) -0.26588(9) 0.2500
C4I C -0.46467(10) 0.0707(2) -0.0625(2)
O2I O -0.47751(9) 0.17569(10) -0.15414(10)
O2B O -0.52249(9) -0.34680(13) 0.15414(10)
O2U O -0.52249(9) -0.17569(10) 0.15414(10)
O1_2 O -0.6667 -0.3333 0.2500
O2F O -0.52249(9) -0.17569(10) 0.34586(10)
O2Q O -0.52249(9) -0.34680(13) 0.34586(10)
C6I C -0.55178(16) 0.03447(18) -0.03131(19)
C6P C -0.41375(24) 0.03447(18) -0.03131(19)
C2B C -0.57332(9) -0.42667(20) 0.12922(18)
C2D C -0.57333(20) -0.14665(18) 0.12922(18)
Mg1D_3 Mg -0.73412(9) -0.26589(4) 0.2500
Mg1_2 Mg -0.73411(4) -0.46823(8) 0.2500
C6D C -0.58625(24) -0.03447(18) 0.03131(19)
H3I H -0.5882 0.0567 -0.0527
H3P H -0.3551 0.0567 -0.0527
C6U C -0.44822(16) -0.03447(18) 0.03131(19)
C4B C -0.53533(10) -0.46463(22) 0.0625(2)
O2S_2 O -0.65320(13) -0.47751(9) 0.15414(10)
C4D C -0.53537(22) -0.0707(2) 0.0625(2)
O2D O -0.65320(13) -0.17569(10) 0.15414(10)
N1D_2 N -0.81033(23) -0.18963(11) 0.2500
O2H O -0.82431(10) -0.34680(13) 0.34586(10)
O2M O -0.65320(13) -0.17569(10) 0.34586(10)
O2W_2 O -0.82431(10) -0.34680(13) 0.15414(10)
H3D H -0.6449 -0.0567 0.0527
H3U H -0.4118 -0.0567 0.0527
C6B C -0.44822(16) -0.41375(24) 0.03131(19)
C6S C -0.58625(24) -0.55178(16) 0.03131(19)
H3B H -0.4118 -0.3551 0.0527
C6G C -0.41375(24) -0.44822(16) -0.03131(19)
C6N C -0.55178(16) -0.58625(24) -0.03131(19)
H3S H -0.6449 -0.5882 0.0527
C4G C -0.46463(22) -0.53533(10) -0.0625(2)
H3G H -0.3551 -0.4118 -0.0527
H3N H -0.5882 -0.6449 -0.0527
C2G C -0.42667(20) -0.57332(9) -0.12922(18)
O2G O -0.34680(13) -0.52249(9) -0.15414(10)
O2N O -0.47751(9) -0.65320(13) -0.15414(10)
Mg1C_2 Mg -0.26589(4) -0.53177(8) -0.2500
Mg1E_2 Mg -0.46823(8) -0.73412(9) -0.2500
loop_
_geom_bond_atom_site_label_1
_geom_bond_atom_site_label_2
_geom_bond_site_symmetry_1
_geom_bond_site_symmetry_2
Mg1 N1 1_555 1_555
N1 C1 1_555 1_555
O1 Mg1 1_555 1_555
O2 Mg1 1_555 1_555
C1 H1 1_555 1_555
C2 O2 1_555 1_555
C3 C1 1_555 1_555
C4 C2 1_555 1_555
H2 C3 1_555 1_555
C5 C3 1_555 1_555
C6 C4 1_555 1_555
C7 C5 1_555 1_555
H3 C6 1_555 1_555
N2 C7 1_555 1_555
O2J Mg1 1_555 1_555
O2O Mg1 1_555 1_555
O2S Mg1 1_555 1_555
C1J N1 1_555 1_555
Mg1B O1 1_555 1_555
Mg1D O1 1_555 1_555
H1J C1J 1_555 1_555
C3J C5 1_555 1_555
O2W C2 1_555 1_555
H2J C3J 1_555 1_555
C6W C4 1_555 1_555
C6K C6 1_555 1_555
C6L C6W 1_555 1_555
H3W C6W 1_555 1_555
N2B C7 1_555 1_555
C4K C6K 1_555 1_555
H3K C6K 1_555 1_555
H3L C6L 1_555 1_555
C7D N2 1_555 1_555
C7B N2B 1_555 1_555
C2K C4K 1_555 1_555
C5D C7D 1_555 1_555
N2D C7D 1_555 1_555
C5B C7B 1_555 1_555
O2K C2K 1_555 1_555
O2L C2K 1_555 1_555
C3D C5D 1_555 1_555
C3H C5D 1_555 1_555
C3B C5B 1_555 1_555
C3F C5B 1_555 1_555
Mg1A O2K 1_555 1_555
Mg1C O2L 1_555 1_555
C1D C3D 1_555 1_555
H2D C3D 1_555 1_555
C1H C3H 1_555 1_555
H2H C3H 1_555 1_555
C1B C3B 1_555 1_555
H2B C3B 1_555 1_555
C1F C3F 1_555 1_555
H2F C3F 1_555 1_555
O2P Mg1A 1_555 1_555
H1D C1D 1_555 1_555
N1D C1D 1_555 1_555
H1H C1H 1_555 1_555
H1B C1B 1_555 1_555
N1B C1B 1_555 1_555
H1F C1F 1_555 1_555
C2I O2P 1_555 1_555
Mg1E O2I 1_555 1_555
Mg1D_2 N1D 1_555 1_555
Mg1B_2 N1B 1_555 1_555
C4I C2I 1_555 1_555
O2I C2I 1_555 1_555
O2B Mg1B_2 1_555 1_555
O2U Mg1B_2 1_555 1_555
O1_2 Mg1B_2 1_555 1_555
O2F Mg1B_2 1_555 1_555
O2Q Mg1B_2 1_555 1_555
C6I C4I 1_555 1_555
C6P C4I 1_555 1_555
C2B O2B 1_555 1_555
C2D O2U 1_555 1_555
Mg1D_3 O1_2 1_555 1_555
Mg1_2 O1_2 1_555 1_555
C6D C6I 1_555 1_555
H3I C6I 1_555 1_555
H3P C6P 1_555 1_555
C6U C6P 1_555 1_555
C4B C2B 1_555 1_555
O2S_2 C2B 1_555 1_555
C4D C2D 1_555 1_555
O2D C2D 1_555 1_555
N1D_2 Mg1D_3 1_555 1_555
O2H Mg1D_3 1_555 1_555
O2M Mg1D_3 1_555 1_555
O2W_2 Mg1D_3 1_555 1_555
H3D C6D 1_555 1_555
H3U C6U 1_555 1_555
C6B C4B 1_555 1_555
C6S C4B 1_555 1_555
H3B C6B 1_555 1_555
C6G C6B 1_555 1_555
C6N C6S 1_555 1_555
H3S C6S 1_555 1_555
C4G C6G 1_555 1_555
H3G C6G 1_555 1_555
H3N C6N 1_555 1_555
C2G C4G 1_555 1_555
O2G C2G 1_555 1_555
O2N C2G 1_555 1_555
Mg1C_2 O2G 1_555 1_555
Mg1E_2 O2N 1_555 1_555
C1J C3J 1_555 1_555
Mg1D O2W 1_555 1_555
C6L C4K 1_555 1_555
C7B N2D 1_555 1_555
C1H N1D 1_555 1_555
C1F N1B 1_555 1_555
Mg1D_3 O2D 1_555 1_555
Mg1_2 O2S_2 1_555 1_555
C6D C4D 1_555 1_555
C6U C4D 1_555 1_555
C6N C4G 1_555 1_555

#END
