
#######################################################################
#
#                 Cambridge Crystallographic Data Centre
#                                CCDC 
#
#######################################################################
#
# If this CIF has been generated from an entry in the Cambridge 
# Structural Database, then it will include bibliographic, chemical, 
# crystal, experimental, refinement or atomic coordinate data resulting 
# from the CCDC's data processing and validation procedures.
#
#######################################################################

data_DAFJOM
_chemical_formula_moiety         'C42 H24 Mg13 N6 O36'
_symmetry_cell_setting           hexagonal
_symmetry_space_group_name_H-M   'P 63/m m c'
_symmetry_Int_Tables_number      194
_space_group_name_Hall           '-P 6c 2c'
loop_
_symmetry_equiv_pos_site_id
_symmetry_equiv_pos_as_xyz
1 x,y,z
2 -y,x-y,z
3 -x+y,-x,z
4 -x,-y,1/2+z
5 y,-x+y,1/2+z
6 x-y,x,1/2+z
7 y,x,-z
8 x-y,-y,-z
9 -x,-x+y,-z
10 -y,-x,1/2-z
11 -x+y,y,1/2-z
12 x,x-y,1/2-z
13 -x,-y,-z
14 y,-x+y,-z
15 x-y,x,-z
16 x,y,1/2-z
17 -y,x-y,1/2-z
18 -x+y,-x,1/2-z
19 -y,-x,z
20 -x+y,y,z
21 x,x-y,z
22 y,x,1/2+z
23 x-y,-y,1/2+z
24 -x,-x+y,1/2+z
_cell_length_a                   16.6165(10)
_cell_length_b                   16.6165(10)
_cell_length_c                   15.3366(19)
_cell_angle_alpha                90
_cell_angle_beta                 90
_cell_angle_gamma                120
_cell_volume                     3667.24
loop_
_atom_site_label
_atom_site_type_symbol
_atom_site_fract_x
_atom_site_fract_y
_atom_site_fract_z
Mg1 Mg 0.53007(18) 0.26504(9) 0.2500
C1 C 0.5726(2) 0.1452(4) 0.1308(3)
C2 C 0.5350(2) 0.0701(4) 0.0627(3)
C3 C 0.4455(3) 0.0351(3) 0.0315(3)
N1 N 0.3813(5) 0.1907(2) 0.2500
C4 C 0.3372(6) 0.2397(5) 0.2500
H1 H 0.3706 0.3043 0.2500
C5 C 0.2427(5) 0.1933(4) 0.2500
H2 H 0.2096 0.2247 0.2500
C6 C 0.1991(6) 0.0995(3) 0.2500
C7 C 0.0938(3) 0.04690(17) 0.2500
O1 O 0.6667 0.3333 0.2500
O2 O 0.5200(2) 0.1749(2) 0.15646(19)
O3 O 0.3857(5) 0.0653(6) 0.0541(6)
H3 H 0.4102 0.1064 0.0909
N2 N 0.04722(18) 0.0944(4) 0.2500
C1G C 0.4274(4) -0.1452(4) -0.1308(3)
C2G C 0.4649(4) -0.0701(4) -0.0627(3)
C3G C 0.4104(4) -0.0351(3) -0.0315(3)
O2G O 0.3451(3) -0.1749(2) -0.15646(19)
O3G O 0.3204(8) -0.0653(6) -0.0541(6)
H3G H 0.3038 -0.1064 -0.0909
C3L C 0.5545(3) -0.0351(3) -0.0315(3)
O2L O 0.4800(2) -0.1749(2) -0.15646(19)
O3L O 0.6143(5) -0.0653(6) -0.0541(6)
H3L H 0.5898 -0.1064 -0.0909
C3S C 0.5896(4) 0.0351(3) 0.0315(3)
O2S O 0.6549(3) 0.1749(2) 0.15646(19)
O3S O 0.6796(8) 0.0653(6) 0.0541(6)
H3S H 0.6962 0.1064 0.0909
N1A N -0.1907(2) 0.1906(5) 0.2500
C4A C -0.2397(5) 0.0975(8) 0.2500
H1A H -0.3043 0.0663 0.2500
C5A C -0.1933(4) 0.0494(6) 0.2500
H2A H -0.2247 -0.0151 0.2500
C6A C -0.0995(3) 0.0996(7) 0.2500
C7A C -0.04690(17) 0.04690(34) 0.2500
N2A N -0.0944(4) -0.04718(44) 0.2500
N1B N -0.1906(5) -0.3813(5) 0.2500
C4B C -0.0975(8) -0.3372(6) 0.2500
H1B H -0.0663 -0.3706 0.2500
C5B C -0.0494(6) -0.2427(5) 0.2500
H2B H 0.0151 -0.2096 0.2500
C6B C -0.0996(7) -0.1991(6) 0.2500
C7B C -0.04690(34) -0.0938(3) 0.2500
N2B N 0.04718(44) -0.04722(18) 0.2500
C4J C -0.0975(8) 0.2397(5) 0.2500
H1J H -0.0663 0.3043 0.2500
C5J C -0.0494(6) 0.1933(4) 0.2500
H2J H 0.0151 0.2247 0.2500
C4K C 0.3372(6) 0.0975(8) 0.2500
H1K H 0.3706 0.0663 0.2500
C5K C 0.2427(5) 0.0494(6) 0.2500
H2K H 0.2096 -0.0151 0.2500
C4I C -0.2397(5) -0.3372(6) 0.2500
H1I H -0.3043 -0.3706 0.2500
C5I C -0.1933(4) -0.2427(5) 0.2500
H2I H -0.2247 -0.2096 0.2500
Mg1A Mg -0.26504(9) 0.26503(20) 0.2500
C1A C -0.1452(4) 0.4274(4) 0.1308(3)
C2A C -0.0701(4) 0.4649(4) 0.0627(3)
C3A C -0.0351(3) 0.4104(4) 0.0315(3)
O2A O -0.1749(2) 0.3451(3) 0.15646(19)
O3A O -0.0653(6) 0.3204(8) 0.0541(6)
H3A H -0.1064 0.3038 0.0909
C1F C 0.1452(4) 0.5726(2) -0.1308(3)
C2F C 0.0701(4) 0.5350(2) -0.0627(3)
C3F C 0.0351(3) 0.4455(3) -0.0315(3)
O2F O 0.1749(2) 0.5200(2) -0.15646(19)
O3F O 0.0653(6) 0.3857(5) -0.0541(6)
H3F H 0.1064 0.4102 -0.0909
C3M C 0.0351(3) 0.5896(4) -0.0315(3)
O2M O 0.1749(2) 0.6549(3) -0.15646(19)
O3M O 0.0653(6) 0.6796(8) -0.0541(6)
H3M H 0.1064 0.6962 -0.0909
C3R C -0.0351(3) 0.5545(3) 0.0315(3)
O2R O -0.1749(2) 0.4800(2) 0.15646(19)
O3R O -0.0653(6) 0.6143(5) 0.0541(6)
H3R H -0.1064 0.5898 0.0909
Mg1B Mg -0.26503(20) -0.53007(18) 0.2500
C1B C -0.4274(4) -0.5726(2) 0.1308(3)
C2B C -0.4649(4) -0.5350(2) 0.0627(3)
C3B C -0.4104(4) -0.4455(3) 0.0315(3)
O2B O -0.3451(3) -0.5200(2) 0.15646(19)
O3B O -0.3204(8) -0.3857(5) 0.0541(6)
H3B H -0.3038 -0.4102 0.0909
C1H C -0.5726(2) -0.4274(4) -0.1308(3)
C2H C -0.5350(2) -0.4649(4) -0.0627(3)
C3H C -0.4455(3) -0.4104(4) -0.0315(3)
O2H O -0.5200(2) -0.3451(3) -0.15646(19)
O3H O -0.3857(5) -0.3204(8) -0.0541(6)
H3H H -0.4102 -0.3038 -0.0909
C3N C -0.5896(4) -0.5545(3) -0.0315(3)
O2N O -0.6549(3) -0.4800(2) -0.15646(19)
O3N O -0.6796(8) -0.6143(5) -0.0541(6)
H3N H -0.6962 -0.5898 -0.0909
C3T C -0.5545(3) -0.5896(4) 0.0315(3)
O2T O -0.4800(2) -0.6549(3) 0.15646(19)
O3T O -0.6143(5) -0.6796(8) 0.0541(6)
H3T H -0.5898 -0.6962 0.0909
Mg1_2 Mg -0.46993(18) -0.73496(9) 0.2500
Mg1A_2 Mg 0.73496(9) 0.26503(20) 0.2500
Mg1B_2 Mg -0.26503(20) 0.46993(18) 0.2500
Mg1B_3 Mg 0.73497(20) 0.46993(18) 0.2500
Mg1C Mg -0.53007(18) -0.26504(9) -0.2500
Mg1C_2 Mg 0.46993(18) -0.26504(9) -0.2500
Mg1D Mg 0.26504(9) -0.26503(20) -0.2500
Mg1D_2 Mg 0.26504(9) 0.73497(20) -0.2500
Mg1E Mg -0.73497(20) -0.46993(18) -0.2500
Mg1E_2 Mg 0.26503(20) 0.53007(18) -0.2500
O1_2 O -0.3333 -0.6667 0.2500
O1_3 O -0.3333 0.3333 0.2500
O2I O -0.1749(2) -0.5200(2) 0.34354(19)
O2J O -0.3451(3) 0.1749(2) 0.34354(19)
O2K O 0.5200(2) 0.3451(3) 0.34354(19)
O2O O 0.5200(2) 0.1749(2) 0.34354(19)
O2P O -0.1749(2) 0.3451(3) 0.34354(19)
O2Q O -0.3451(3) -0.5200(2) 0.34354(19)
O2R_2 O -0.1749(2) -0.5200(2) 0.15646(19)
O2S_2 O -0.3451(3) 0.1749(2) 0.15646(19)
O2T_2 O 0.5200(2) 0.3451(3) 0.15646(19)
loop_
_geom_bond_atom_site_label_1
_geom_bond_atom_site_label_2
_geom_bond_site_symmetry_1
_geom_bond_site_symmetry_2
Mg1 N1 1_555 1_555
C1 C2 1_555 1_555
C2 C3 1_555 1_555
C3 O3 1_555 1_555
N1 C4 1_555 1_555
C4 H1 1_555 1_555
C5 C4 1_555 1_555
H2 C5 1_555 1_555
C6 C5 1_555 1_555
C7 C6 1_555 1_555
O1 Mg1 1_555 1_555
O2 Mg1 1_555 1_555
O3 H3 1_555 1_555
N2 C7 1_555 1_555
C1G C2G 1_555 1_555
C2G C3G 1_555 1_555
C3G C3 1_555 1_555
O2G C1G 1_555 1_555
O3G C3G 1_555 1_555
H3G O3G 1_555 1_555
C3L C2G 1_555 1_555
O2L C1G 1_555 1_555
O3L C3L 1_555 1_555
H3L O3L 1_555 1_555
C3S C2 1_555 1_555
O2S C1 1_555 1_555
O3S C3S 1_555 1_555
H3S O3S 1_555 1_555
N1A C4A 1_555 1_555
C4A H1A 1_555 1_555
C5A C4A 1_555 1_555
H2A C5A 1_555 1_555
C6A C5A 1_555 1_555
C7A N2 1_555 1_555
N2A C7A 1_555 1_555
N1B C4B 1_555 1_555
C4B H1B 1_555 1_555
C5B C4B 1_555 1_555
H2B C5B 1_555 1_555
C6B C5B 1_555 1_555
C7B N2A 1_555 1_555
N2B C7 1_555 1_555
C4J N1A 1_555 1_555
H1J C4J 1_555 1_555
C5J C6A 1_555 1_555
H2J C5J 1_555 1_555
C4K N1 1_555 1_555
H1K C4K 1_555 1_555
C5K C6 1_555 1_555
H2K C5K 1_555 1_555
C4I N1B 1_555 1_555
H1I C4I 1_555 1_555
C5I C6B 1_555 1_555
H2I C5I 1_555 1_555
Mg1A N1A 1_555 1_555
C1A C2A 1_555 1_555
C2A C3A 1_555 1_555
C3A O3A 1_555 1_555
O2A Mg1A 1_555 1_555
O3A H3A 1_555 1_555
C1F C2F 1_555 1_555
C2F C3F 1_555 1_555
C3F C3A 1_555 1_555
O2F C1F 1_555 1_555
O3F C3F 1_555 1_555
H3F O3F 1_555 1_555
C3M C2F 1_555 1_555
O2M C1F 1_555 1_555
O3M C3M 1_555 1_555
H3M O3M 1_555 1_555
C3R C2A 1_555 1_555
O2R C1A 1_555 1_555
O3R C3R 1_555 1_555
H3R O3R 1_555 1_555
Mg1B N1B 1_555 1_555
C1B C2B 1_555 1_555
C2B C3B 1_555 1_555
C3B O3B 1_555 1_555
O2B Mg1B 1_555 1_555
O3B H3B 1_555 1_555
C1H C2H 1_555 1_555
C2H C3H 1_555 1_555
C3H C3B 1_555 1_555
O2H C1H 1_555 1_555
O3H C3H 1_555 1_555
H3H O3H 1_555 1_555
C3N C2H 1_555 1_555
O2N C1H 1_555 1_555
O3N C3N 1_555 1_555
H3N O3N 1_555 1_555
C3T C2B 1_555 1_555
O2T C1B 1_555 1_555
O3T C3T 1_555 1_555
H3T O3T 1_555 1_555
Mg1_2 O2T 1_555 1_555
Mg1A_2 O1 1_555 1_555
Mg1B_2 O2R 1_555 1_555
Mg1B_3 O1 1_555 1_555
Mg1C O2H 1_555 1_555
Mg1C_2 O2L 1_555 1_555
Mg1D O2G 1_555 1_555
Mg1D_2 O2M 1_555 1_555
Mg1E O2N 1_555 1_555
Mg1E_2 O2F 1_555 1_555
O1_2 Mg1B 1_555 1_555
O1_3 Mg1A 1_555 1_555
O2I Mg1B 1_555 1_555
O2J Mg1A 1_555 1_555
O2K Mg1 1_555 1_555
O2O Mg1 1_555 1_555
O2P Mg1A 1_555 1_555
O2Q Mg1B 1_555 1_555
O2R_2 Mg1B 1_555 1_555
O2S_2 Mg1A 1_555 1_555
O2T_2 Mg1 1_555 1_555
C1 O2 1_555 1_555
C3L C3S 1_555 1_555
O2S Mg1A_2 1_555 1_555
C6A C7A 1_555 1_555
C6B C7B 1_555 1_555
C7B N2B 1_555 1_555
C4J C5J 1_555 1_555
C4K C5K 1_555 1_555
C4I C5I 1_555 1_555
C1A O2A 1_555 1_555
C3M C3R 1_555 1_555
C1B O2B 1_555 1_555
C3N C3T 1_555 1_555
Mg1_2 O1_2 1_555 1_555
Mg1B_2 O1_3 1_555 1_555

#END
