
#######################################################################
#
#                 Cambridge Crystallographic Data Centre
#                                CCDC 
#
#######################################################################
#
# If this CIF has been generated from an entry in the Cambridge 
# Structural Database, then it will include bibliographic, chemical, 
# crystal, experimental, refinement or atomic coordinate data resulting 
# from the CCDC's data processing and validation procedures.
#
#######################################################################

data_DAFKED
_chemical_formula_moiety         'C42 H36 N18 O24 Zn13'
_symmetry_cell_setting           hexagonal
_symmetry_space_group_name_H-M   'P 63/m m c'
_symmetry_Int_Tables_number      194
_space_group_name_Hall           '-P 6c 2c'
loop_
_symmetry_equiv_pos_site_id
_symmetry_equiv_pos_as_xyz
1 x,y,z
2 -y,x-y,z
3 -x+y,-x,z
4 -x,-y,1/2+z
5 y,-x+y,1/2+z
6 x-y,x,1/2+z
7 y,x,-z
8 x-y,-y,-z
9 -x,-x+y,-z
10 -y,-x,1/2-z
11 -x+y,y,1/2-z
12 x,x-y,1/2-z
13 -x,-y,-z
14 y,-x+y,-z
15 x-y,x,-z
16 x,y,1/2-z
17 -y,x-y,1/2-z
18 -x+y,-x,1/2-z
19 -y,-x,z
20 -x+y,y,z
21 x,x-y,z
22 y,x,1/2+z
23 x-y,-y,1/2+z
24 -x,-x+y,1/2+z
_cell_length_a                   17.0539(4)
_cell_length_b                   17.0539(4)
_cell_length_c                   14.9837(7)
_cell_angle_alpha                90
_cell_angle_beta                 90
_cell_angle_gamma                120
_cell_volume                     3773.96
loop_
_atom_site_label
_atom_site_type_symbol
_atom_site_fract_x
_atom_site_fract_y
_atom_site_fract_z
Zn1 Zn 0.52977(6) 0.26488(3) 0.2500
C1 C 0.5740(2) 0.4260(2) 0.1273(5)
C2 C 0.5356(3) 0.4644(3) 0.0618(5)
C3 C 0.455(2) 0.407(3) 0.0094(12)
N1 N 0.4124(17) 0.3085(17) 0.0165(19)
H1 H 0.3827 0.2812 0.0638
H2 H 0.4172 0.2778 -0.0266
C4 C 0.3361(5) 0.2335(5) 0.2500
H3 H 0.3673 0.2964 0.2500
C5 C 0.2420(5) 0.1888(5) 0.2500
H4 H 0.2121 0.2218 0.2500
C6 C 0.1936(6) 0.0968(3) 0.2500
C7 C 0.0938(6) 0.0469(3) 0.2500
N2 N 0.3837(5) 0.1919(3) 0.2500
N3 N 0.0466(3) 0.0932(6) 0.2500
O1 O 0.6667 0.3333 0.2500
O2 O 0.5229(2) 0.3472(3) 0.1528(3)
C1F C 0.4260(2) 0.5740(2) -0.1273(5)
C2F C 0.4644(3) 0.5356(3) -0.0618(5)
C3F C 0.407(3) 0.455(2) -0.0094(12)
N1F N 0.3085(17) 0.4124(17) -0.0165(19)
H1F H 0.2812 0.3827 -0.0638
H2F H 0.2778 0.4172 0.0266
O2F O 0.3472(3) 0.5229(2) -0.1528(3)
C3L C 0.545(2) 0.593(3) -0.0094(12)
N1L N 0.5876(17) 0.6915(17) -0.0165(19)
H1L H 0.6173 0.7188 -0.0638
H2L H 0.5828 0.7222 0.0266
O2L O 0.4771(2) 0.6528(3) -0.1528(3)
C3R C 0.593(3) 0.545(2) 0.0094(12)
N1R N 0.6915(17) 0.5876(17) 0.0165(19)
H1R H 0.7188 0.6173 0.0638
H2R H 0.7222 0.5828 -0.0266
O2R O 0.6528(3) 0.4771(2) 0.1528(3)
C4A C -0.2335(5) 0.1026(7) 0.2500
H3A H -0.2964 0.0709 0.2500
C5A C -0.1888(5) 0.0532(7) 0.2500
H4A H -0.2218 -0.0097 0.2500
C6A C -0.0968(3) 0.0968(7) 0.2500
C7A C -0.0469(3) 0.0469(7) 0.2500
N2A N -0.1919(3) 0.1918(6) 0.2500
N3A N -0.0932(6) -0.0466(7) 0.2500
C4B C -0.1026(7) -0.3361(5) 0.2500
H3B H -0.0709 -0.3673 0.2500
C5B C -0.0532(7) -0.2420(5) 0.2500
H4B H 0.0097 -0.2121 0.2500
C6B C -0.0968(7) -0.1936(6) 0.2500
C7B C -0.0469(7) -0.0938(6) 0.2500
N2B N -0.1918(6) -0.3837(5) 0.2500
N3B N 0.0466(7) -0.0466(3) 0.2500
C4J C -0.1026(7) 0.2335(5) 0.2500
H3J H -0.0709 0.2964 0.2500
C5J C -0.0532(7) 0.1888(5) 0.2500
H4J H 0.0097 0.2218 0.2500
C4K C 0.3361(5) 0.1026(7) 0.2500
H3K H 0.3673 0.0709 0.2500
C5K C 0.2420(5) 0.0532(7) 0.2500
H4K H 0.2121 -0.0097 0.2500
C4I C -0.2335(5) -0.3361(5) 0.2500
H3I H -0.2964 -0.3673 0.2500
C5I C -0.1888(5) -0.2420(5) 0.2500
H4I H -0.2218 -0.2121 0.2500
Zn1A Zn -0.26488(3) 0.26489(7) 0.2500
C1A C -0.4260(2) 0.1480(3) 0.1273(5)
C2A C -0.4644(3) 0.0712(4) 0.0618(5)
C3A C -0.407(3) 0.048(4) 0.0094(12)
N1A N -0.3085(17) 0.1039(24) 0.0165(19)
H1A H -0.2812 0.1015 0.0638
H2A H -0.2778 0.1394 -0.0266
O2A O -0.3472(3) 0.1757(4) 0.1528(3)
C1H C -0.5740(2) -0.1480(3) -0.1273(5)
C2H C -0.5356(3) -0.0712(4) -0.0618(5)
C3H C -0.455(2) -0.048(4) -0.0094(12)
N1H N -0.4124(17) -0.1039(24) -0.0165(19)
H1H H -0.3827 -0.1015 -0.0638
H2H H -0.4172 -0.1394 0.0266
O2H O -0.5229(2) -0.1757(4) -0.1528(3)
C3M C -0.593(3) -0.048(4) -0.0094(12)
N1M N -0.6915(17) -0.1039(24) -0.0165(19)
H1M H -0.7188 -0.1015 -0.0638
H2M H -0.7222 -0.1394 0.0266
O2M O -0.6528(3) -0.1757(4) -0.1528(3)
C3T C -0.545(2) 0.048(4) 0.0094(12)
N1T N -0.5876(17) 0.1039(24) 0.0165(19)
H1T H -0.6173 0.1015 0.0638
H2T H -0.5828 0.1394 -0.0266
O2T O -0.4771(2) 0.1757(4) 0.1528(3)
Zn1B Zn -0.26489(7) -0.52977(6) 0.2500
C1B C -0.1480(3) -0.5740(2) 0.1273(5)
C2B C -0.0712(4) -0.5356(3) 0.0618(5)
C3B C -0.048(4) -0.455(2) 0.0094(12)
N1B N -0.1039(24) -0.4124(17) 0.0165(19)
H1B H -0.1015 -0.3827 0.0638
H2B H -0.1394 -0.4172 -0.0266
O2B O -0.1757(4) -0.5229(2) 0.1528(3)
C1G C 0.1480(3) -0.4260(2) -0.1273(5)
C2G C 0.0712(4) -0.4644(3) -0.0618(5)
C3G C 0.048(4) -0.407(3) -0.0094(12)
N1G N 0.1039(24) -0.3085(17) -0.0165(19)
H1G H 0.1015 -0.2812 -0.0638
H2G H 0.1394 -0.2778 0.0266
O2G O 0.1757(4) -0.3472(3) -0.1528(3)
C3N C 0.048(4) -0.545(2) -0.0094(12)
N1N N 0.1039(24) -0.5876(17) -0.0165(19)
H1N H 0.1015 -0.6173 -0.0638
H2N H 0.1394 -0.5828 0.0266
O2N O 0.1757(4) -0.4771(2) -0.1528(3)
C3S C -0.048(4) -0.593(3) 0.0094(12)
N1S N -0.1039(24) -0.6915(17) 0.0165(19)
H1S H -0.1015 -0.7188 0.0638
H2S H -0.1394 -0.7222 -0.0266
O2S O -0.1757(4) -0.6528(3) 0.1528(3)
Zn1_2 Zn -0.47023(6) 0.26488(3) 0.2500
Zn1A_2 Zn -0.26488(3) -0.73511(7) 0.2500
Zn1A_3 Zn 0.73512(3) 0.26489(7) 0.2500
Zn1B_2 Zn 0.73511(7) 0.47023(6) 0.2500
Zn1C Zn -0.52977(6) -0.26488(3) -0.2500
Zn1C_2 Zn 0.47023(6) 0.73512(3) -0.2500
Zn1D Zn -0.73512(3) -0.26489(7) -0.2500
Zn1D_2 Zn 0.26488(3) -0.26489(7) -0.2500
Zn1E Zn 0.26489(7) -0.47023(6) -0.2500
Zn1E_2 Zn 0.26489(7) 0.52977(6) -0.2500
O1_2 O -0.3333 -0.6667 0.2500
O1_3 O -0.3333 0.3333 0.2500
O2I O -0.3472(3) -0.5229(2) 0.3472(3)
O2J O -0.1757(4) 0.3472(3) 0.3472(3)
O2K O 0.5229(2) 0.1757(4) 0.3472(3)
O2O O 0.5229(2) 0.3472(3) 0.3472(3)
O2P O -0.3472(3) 0.1757(4) 0.3472(3)
O2Q O -0.1757(4) -0.5229(2) 0.3472(3)
O2R_2 O -0.3472(3) -0.5229(2) 0.1528(3)
O2S_2 O -0.1757(4) 0.3472(3) 0.1528(3)
O2T_2 O 0.5229(2) 0.1757(4) 0.1528(3)
loop_
_geom_bond_atom_site_label_1
_geom_bond_atom_site_label_2
_geom_bond_site_symmetry_1
_geom_bond_site_symmetry_2
Zn1 N2 1_555 1_555
C1 C2 1_555 1_555
C2 C3 1_555 1_555
C3 N1 1_555 1_555
N1 H1 1_555 1_555
H2 N1 1_555 1_555
C4 H3 1_555 1_555
C5 C4 1_555 1_555
H4 C5 1_555 1_555
C6 C5 1_555 1_555
C7 C6 1_555 1_555
N2 C4 1_555 1_555
N3 C7 1_555 1_555
O1 Zn1 1_555 1_555
O2 Zn1 1_555 1_555
C1F C2F 1_555 1_555
C2F C3F 1_555 1_555
C3F C3 1_555 1_555
N1F C3F 1_555 1_555
H1F N1F 1_555 1_555
H2F N1F 1_555 1_555
O2F C1F 1_555 1_555
C3L C2F 1_555 1_555
N1L C3L 1_555 1_555
H1L N1L 1_555 1_555
H2L N1L 1_555 1_555
O2L C1F 1_555 1_555
C3R C2 1_555 1_555
N1R C3R 1_555 1_555
H1R N1R 1_555 1_555
H2R N1R 1_555 1_555
O2R C1 1_555 1_555
C4A H3A 1_555 1_555
C5A C4A 1_555 1_555
H4A C5A 1_555 1_555
C6A C5A 1_555 1_555
C7A N3 1_555 1_555
N2A C4A 1_555 1_555
N3A C7A 1_555 1_555
C4B H3B 1_555 1_555
C5B C4B 1_555 1_555
H4B C5B 1_555 1_555
C6B C5B 1_555 1_555
C7B N3A 1_555 1_555
N2B C4B 1_555 1_555
N3B C7 1_555 1_555
C4J N2A 1_555 1_555
H3J C4J 1_555 1_555
C5J C6A 1_555 1_555
H4J C5J 1_555 1_555
C4K N2 1_555 1_555
H3K C4K 1_555 1_555
C5K C6 1_555 1_555
H4K C5K 1_555 1_555
C4I N2B 1_555 1_555
H3I C4I 1_555 1_555
C5I C6B 1_555 1_555
H4I C5I 1_555 1_555
Zn1A N2A 1_555 1_555
C1A C2A 1_555 1_555
C2A C3A 1_555 1_555
C3A N1A 1_555 1_555
N1A H1A 1_555 1_555
H2A N1A 1_555 1_555
O2A Zn1A 1_555 1_555
C1H C2H 1_555 1_555
C2H C3H 1_555 1_555
C3H C3A 1_555 1_555
N1H C3H 1_555 1_555
H1H N1H 1_555 1_555
H2H N1H 1_555 1_555
O2H C1H 1_555 1_555
C3M C2H 1_555 1_555
N1M C3M 1_555 1_555
H1M N1M 1_555 1_555
H2M N1M 1_555 1_555
O2M C1H 1_555 1_555
C3T C2A 1_555 1_555
N1T C3T 1_555 1_555
H1T N1T 1_555 1_555
H2T N1T 1_555 1_555
O2T C1A 1_555 1_555
Zn1B N2B 1_555 1_555
C1B C2B 1_555 1_555
C2B C3B 1_555 1_555
C3B N1B 1_555 1_555
N1B H1B 1_555 1_555
H2B N1B 1_555 1_555
O2B Zn1B 1_555 1_555
C1G C2G 1_555 1_555
C2G C3G 1_555 1_555
C3G C3B 1_555 1_555
N1G C3G 1_555 1_555
H1G N1G 1_555 1_555
H2G N1G 1_555 1_555
O2G C1G 1_555 1_555
C3N C2G 1_555 1_555
N1N C3N 1_555 1_555
H1N N1N 1_555 1_555
H2N N1N 1_555 1_555
O2N C1G 1_555 1_555
C3S C2B 1_555 1_555
N1S C3S 1_555 1_555
H1S N1S 1_555 1_555
H2S N1S 1_555 1_555
O2S C1B 1_555 1_555
Zn1_2 O2T 1_555 1_555
Zn1A_2 O2S 1_555 1_555
Zn1A_3 O1 1_555 1_555
Zn1B_2 O1 1_555 1_555
Zn1C O2H 1_555 1_555
Zn1C_2 O2L 1_555 1_555
Zn1D O2M 1_555 1_555
Zn1D_2 O2G 1_555 1_555
Zn1E O2N 1_555 1_555
Zn1E_2 O2F 1_555 1_555
O1_2 Zn1B 1_555 1_555
O1_3 Zn1A 1_555 1_555
O2I Zn1B 1_555 1_555
O2J Zn1A 1_555 1_555
O2K Zn1 1_555 1_555
O2O Zn1 1_555 1_555
O2P Zn1A 1_555 1_555
O2Q Zn1B 1_555 1_555
O2R_2 Zn1B 1_555 1_555
O2S_2 Zn1A 1_555 1_555
O2T_2 Zn1 1_555 1_555
C1 O2 1_555 1_555
C3L C3R 1_555 1_555
O2R Zn1B_2 1_555 1_555
C6A C7A 1_555 1_555
C6B C7B 1_555 1_555
C7B N3B 1_555 1_555
C4J C5J 1_555 1_555
C4K C5K 1_555 1_555
C4I C5I 1_555 1_555
C1A O2A 1_555 1_555
C3M C3T 1_555 1_555
C1B O2B 1_555 1_555
C3N C3S 1_555 1_555
Zn1_2 O1_3 1_555 1_555
Zn1A_2 O1_2 1_555 1_555

#END
