
#######################################################################
#
#                 Cambridge Crystallographic Data Centre
#                                CCDC 
#
#######################################################################
#
# If this CIF has been generated from an entry in the Cambridge 
# Structural Database, then it will include bibliographic, chemical, 
# crystal, experimental, refinement or atomic coordinate data resulting 
# from the CCDC's data processing and validation procedures.
#
#######################################################################

data_DAFYOB
_chemical_formula_moiety         'C24 H12 Mg9 O34'
_symmetry_cell_setting           hexagonal
_symmetry_space_group_name_H-M   'P 63/m m c'
_symmetry_Int_Tables_number      194
_space_group_name_Hall           '-P 6c 2c'
loop_
_symmetry_equiv_pos_site_id
_symmetry_equiv_pos_as_xyz
1 x,y,z
2 x-y,x,1/2+z
3 -y,x-y,z
4 -x,-y,1/2+z
5 -x+y,-x,z
6 y,-x+y,1/2+z
7 -y,-x,1/2-z
8 x-y,-y,-z
9 x,x-y,1/2-z
10 y,x,-z
11 -x+y,y,1/2-z
12 -x,-x+y,-z
13 -x,-y,-z
14 -x+y,-x,1/2-z
15 y,-x+y,-z
16 x,y,1/2-z
17 x-y,x,-z
18 -y,x-y,1/2-z
19 y,x,1/2+z
20 -x+y,y,z
21 -x,-x+y,1/2+z
22 -y,-x,z
23 x-y,-y,1/2+z
24 x,x-y,z
_cell_length_a                   16.2122(3)
_cell_length_b                   16.2122(3)
_cell_length_c                   16.0642(7)
_cell_angle_alpha                90
_cell_angle_beta                 90
_cell_angle_gamma                120
_cell_volume                     3656.57
loop_
_atom_site_label
_atom_site_type_symbol
_atom_site_fract_x
_atom_site_fract_y
_atom_site_fract_z
Mg1 Mg 0.26181(4) 0.73819(4) 0.2500
C1 C 0.03364(17) 0.44307(17) 0.03188(14)
C2 C 0.0688(2) 0.53438(11) 0.06374(16)
C3 C 0.1420(2) 0.57099(10) 0.13133(16)
O1 O 0.18789(13) 0.81211(13) 0.2500
O2 O 0.3333 0.6667 0.2500
O3 O 0.16931(10) 0.65341(11) 0.15827(8)
O4 O 0.0633(3) 0.3834(3) 0.0583(3)
H1 H 0.1068 0.4131 0.0964
C1K C -0.03364(17) 0.40943(24) -0.03188(14)
C2K C -0.0688(2) 0.46558(23) -0.06374(16)
C3K C -0.1420(2) 0.42899(22) -0.13133(16)
O3K O -0.16931(10) 0.48410(15) -0.15827(8)
O4K O -0.0633(3) 0.3201(4) -0.0583(3)
H1K H -0.1068 0.3063 -0.0964
C1L C -0.03364(17) 0.55693(17) -0.03188(14)
O3L O -0.16931(10) 0.34659(11) -0.15827(8)
O4L O -0.0633(3) 0.6166(3) -0.0583(3)
H1L H -0.1068 0.5869 -0.0964
C1W C 0.03364(17) 0.59057(24) 0.03188(14)
O3W O 0.16931(10) 0.51590(15) 0.15827(8)
O4W O 0.0633(3) 0.6799(4) 0.0583(3)
H1W H 0.1068 0.6937 0.0964
Mg1B Mg 0.26181(4) 0.52362(6) 0.2500
C1B C 0.55693(17) 0.59057(24) 0.03188(14)
C2B C 0.46562(11) 0.53442(23) 0.06374(16)
C3B C 0.42901(10) 0.57101(22) 0.13133(16)
O1B O 0.18789(13) 0.37578(18) 0.2500
O3B O 0.34659(11) 0.51590(15) 0.15827(8)
O4B O 0.6166(3) 0.6799(4) 0.0583(3)
H1B H 0.5869 0.6937 0.0964
C1G C 0.59057(24) 0.55693(17) -0.03188(14)
C2G C 0.53442(23) 0.46562(11) -0.06374(16)
C3G C 0.57101(22) 0.42901(10) -0.13133(16)
O3G O 0.51590(15) 0.34659(11) -0.15827(8)
O4G O 0.6799(4) 0.6166(3) -0.0583(3)
H1G H 0.6937 0.5869 -0.0964
C1N C 0.44307(17) 0.40943(24) -0.03188(14)
O3N O 0.65341(11) 0.48410(15) -0.15827(8)
O4N O 0.3834(3) 0.3201(4) -0.0583(3)
H1N H 0.4131 0.3063 -0.0964
C1S C 0.40943(24) 0.44307(17) 0.03188(14)
O3S O 0.48410(15) 0.65341(11) 0.15827(8)
O4S O 0.3201(4) 0.3834(3) 0.0583(3)
H1S H 0.3063 0.4131 0.0964
Mg1D Mg 0.47638(6) 0.73819(4) 0.2500
C1D C 0.40943(24) 0.96636(17) 0.03188(14)
C2D C 0.46558(23) 0.9312(2) 0.06374(16)
C3D C 0.42899(22) 0.8580(2) 0.13133(16)
O1D O 0.62422(18) 0.81211(13) 0.2500
O3D O 0.48410(15) 0.83069(10) 0.15827(8)
O4D O 0.3201(4) 0.9367(3) 0.0583(3)
H1D H 0.3063 0.8932 0.0964
C1I C 0.44307(17) 1.03364(17) -0.03188(14)
C2I C 0.53438(11) 1.0688(2) -0.06374(16)
C3I C 0.57099(10) 1.1420(2) -0.13133(16)
O3I O 0.65341(11) 1.16931(10) -0.15827(8)
O4I O 0.3834(3) 1.0633(3) -0.0583(3)
H1I H 0.4131 1.1068 -0.0964
C1P C 0.59057(24) 1.03364(17) -0.03188(14)
O3P O 0.51590(15) 1.16931(10) -0.15827(8)
O4P O 0.6799(4) 1.0633(3) -0.0583(3)
H1P H 0.6937 1.1068 -0.0964
C1U C 0.55693(17) 0.96636(17) 0.03188(14)
O3U O 0.34659(11) 0.83069(10) 0.15827(8)
O4U O 0.6166(3) 0.9367(3) 0.0583(3)
H1U H 0.5869 0.8932 0.0964
Mg1A Mg 0.52362(6) 0.26181(4) -0.2500
Mg1A_2 Mg 0.52362(6) 1.26181(4) -0.2500
Mg1C Mg -0.26181(4) 0.26181(4) -0.2500
Mg1C_2 Mg 0.73819(4) 1.26181(4) -0.2500
Mg1E Mg -0.26181(4) 0.47638(6) -0.2500
Mg1E_2 Mg 0.73819(4) 0.47638(6) -0.2500
O3F O 0.34659(11) 0.83069(10) 0.34173(8)
O3H O 0.16931(10) 0.51590(15) 0.34173(8)
O3J O 0.48410(15) 0.65341(11) 0.34173(8)
O3M O 0.48410(15) 0.83069(10) 0.34173(8)
O3O O 0.16931(10) 0.65341(11) 0.34173(8)
O3Q O 0.34659(11) 0.51590(15) 0.34173(8)
loop_
_geom_bond_atom_site_label_1
_geom_bond_atom_site_label_2
_geom_bond_site_symmetry_1
_geom_bond_site_symmetry_2
Mg1 O1 1_555 1_555
C1 C2 1_555 1_555
C2 C3 1_555 1_555
C3 O3 1_555 1_555
O2 Mg1 1_555 1_555
O3 Mg1 1_555 1_555
O4 C1 1_555 1_555
H1 O4 1_555 1_555
C1K C1 1_555 1_555
C2K C1K 1_555 1_555
C3K C2K 1_555 1_555
O3K C3K 1_555 1_555
O4K C1K 1_555 1_555
H1K O4K 1_555 1_555
C1L C2K 1_555 1_555
O3L C3K 1_555 1_555
O4L C1L 1_555 1_555
H1L O4L 1_555 1_555
C1W C2 1_555 1_555
O3W C3 1_555 1_555
O4W C1W 1_555 1_555
H1W O4W 1_555 1_555
Mg1B O2 1_555 1_555
C1B C2B 1_555 1_555
C2B C3B 1_555 1_555
C3B O3B 1_555 1_555
O1B Mg1B 1_555 1_555
O3B Mg1B 1_555 1_555
O4B C1B 1_555 1_555
H1B O4B 1_555 1_555
C1G C1B 1_555 1_555
C2G C1G 1_555 1_555
C3G C2G 1_555 1_555
O3G C3G 1_555 1_555
O4G C1G 1_555 1_555
H1G O4G 1_555 1_555
C1N C2G 1_555 1_555
O3N C3G 1_555 1_555
O4N C1N 1_555 1_555
H1N O4N 1_555 1_555
C1S C2B 1_555 1_555
O3S C3B 1_555 1_555
O4S C1S 1_555 1_555
H1S O4S 1_555 1_555
Mg1D O2 1_555 1_555
C1D C2D 1_555 1_555
C2D C3D 1_555 1_555
C3D O3D 1_555 1_555
O1D Mg1D 1_555 1_555
O3D Mg1D 1_555 1_555
O4D C1D 1_555 1_555
H1D O4D 1_555 1_555
C1I C1D 1_555 1_555
C2I C1I 1_555 1_555
C3I C2I 1_555 1_555
O3I C3I 1_555 1_555
O4I C1I 1_555 1_555
H1I O4I 1_555 1_555
C1P C2I 1_555 1_555
O3P C3I 1_555 1_555
O4P C1P 1_555 1_555
H1P O4P 1_555 1_555
C1U C2D 1_555 1_555
O3U Mg1 1_555 1_555
O4U C1U 1_555 1_555
H1U O4U 1_555 1_555
Mg1A O3G 1_555 1_555
Mg1A_2 O3P 1_555 1_555
Mg1C O3L 1_555 1_555
Mg1C_2 O3I 1_555 1_555
Mg1E O3K 1_555 1_555
Mg1E_2 O3N 1_555 1_555
O3F Mg1 1_555 1_555
O3H Mg1B 1_555 1_555
O3J Mg1D 1_555 1_555
O3M Mg1D 1_555 1_555
O3O Mg1 1_555 1_555
O3Q Mg1B 1_555 1_555
C1L C1W 1_555 1_555
O3W Mg1B 1_555 1_555
C1N C1S 1_555 1_555
O3S Mg1D 1_555 1_555
C3D O3U 1_555 1_555
C1P C1U 1_555 1_555

#END
