
#######################################################################
#
#                 Cambridge Crystallographic Data Centre
#                                CCDC 
#
#######################################################################
#
# If this CIF has been generated from an entry in the Cambridge 
# Structural Database, then it will include bibliographic, chemical, 
# crystal, experimental, refinement or atomic coordinate data resulting 
# from the CCDC's data processing and validation procedures.
#
#######################################################################

data_DAFYER
_chemical_formula_moiety         'C42 H12 Mg13 N18 O48'
_symmetry_cell_setting           hexagonal
_symmetry_space_group_name_H-M   'P 63/m m c'
_symmetry_Int_Tables_number      194
_space_group_name_Hall           '-P 6c 2c'
loop_
_symmetry_equiv_pos_site_id
_symmetry_equiv_pos_as_xyz
1 x,y,z
2 -y,x-y,z
3 -x+y,-x,z
4 -x,-y,1/2+z
5 y,-x+y,1/2+z
6 x-y,x,1/2+z
7 y,x,-z
8 x-y,-y,-z
9 -x,-x+y,-z
10 -y,-x,1/2-z
11 -x+y,y,1/2-z
12 x,x-y,1/2-z
13 -x,-y,-z
14 y,-x+y,-z
15 x-y,x,-z
16 x,y,1/2-z
17 -y,x-y,1/2-z
18 -x+y,-x,1/2-z
19 -y,-x,z
20 -x+y,y,z
21 x,x-y,z
22 y,x,1/2+z
23 x-y,-y,1/2+z
24 -x,-x+y,1/2+z
_cell_length_a                   16.9065(5)
_cell_length_b                   16.9065(5)
_cell_length_c                   14.7154(10)
_cell_angle_alpha                90
_cell_angle_beta                 90
_cell_angle_gamma                120
_cell_volume                     3642.59
loop_
_atom_site_label
_atom_site_type_symbol
_atom_site_fract_x
_atom_site_fract_y
_atom_site_fract_z
Mg1 Mg 0.53289(13) 0.26644(7) 0.7500
O1 O 0.6667 0.3333 0.7500
O2 O 0.52359(19) 0.1785(2) 0.6540(2)
N1 N 0.3800(4) 0.1900(2) 0.7500
C1 C 0.57513(19) 0.1503(4) 0.6285(4)
C2 C 0.1908(6) 0.0954(3) 0.7500
C3 C 0.2380(5) 0.1890(5) 0.7500
H1 H 0.2073 0.2218 0.7500
N2 N 0.0470(3) -0.0470(3) 0.7500
C4 C 0.5371(2) 0.0741(4) 0.5597(4)
C5 C 0.0886(6) 0.0443(3) 0.7500
C6 C 0.3336(5) 0.2339(5) 0.7500
H2 H 0.3659 0.2974 0.7500
C7 C 0.4524(4) 0.0376(3) 0.5300(3)
N3 N 0.3909(7) 0.0725(7) 0.5567(7)
O3 O 0.414(2) 0.1372(17) 0.5047(19)
O4 O 0.333(2) 0.042(3) 0.6157(19)
O2G O 0.34509(28) -0.1785(2) 0.3460(2)
C1G C 0.42483(44) -0.1503(4) 0.3715(4)
C4G C 0.4630(4) -0.0741(4) 0.4403(4)
C7G C 0.4148(5) -0.0376(3) 0.4700(3)
N3G N 0.3184(10) -0.0725(7) 0.4433(7)
O3G O 0.2768(26) -0.1372(17) 0.4953(19)
O4G O 0.291(4) -0.042(3) 0.3843(19)
O2L O 0.47641(19) -0.1785(2) 0.3460(2)
C7L C 0.5476(4) -0.0376(3) 0.4700(3)
N3L N 0.6091(7) -0.0725(7) 0.4433(7)
O3L O 0.586(2) -0.1372(17) 0.4953(19)
O4L O 0.667(2) -0.042(3) 0.3843(19)
O2S O 0.65491(28) 0.1785(2) 0.6540(2)
C7S C 0.5852(5) 0.0376(3) 0.5300(3)
N3S N 0.6816(10) 0.0725(7) 0.5567(7)
O3S O 0.7232(26) 0.1372(17) 0.5047(19)
O4S O 0.709(4) 0.042(3) 0.6157(19)
N1A N -0.1900(2) 0.1900(4) 0.7500
C2A C -0.0954(3) 0.0954(7) 0.7500
C3A C -0.1890(5) 0.0490(7) 0.7500
H1A H -0.2218 -0.0145 0.7500
N2A N 0.0470(3) 0.0940(4) 0.7500
C5A C -0.0443(3) 0.0443(7) 0.7500
C6A C -0.2339(5) 0.0997(7) 0.7500
H2A H -0.2974 0.0685 0.7500
N1B N -0.1900(4) -0.3800(4) 0.7500
C2B C -0.0954(7) -0.1908(6) 0.7500
C3B C -0.0490(7) -0.2380(5) 0.7500
H1B H 0.0145 -0.2073 0.7500
N2B N -0.0940(4) -0.0470(3) 0.7500
C5B C -0.0443(7) -0.0886(6) 0.7500
C6B C -0.0997(7) -0.3336(5) 0.7500
H2B H -0.0685 -0.3659 0.7500
C3I C -0.1890(5) -0.2380(5) 0.7500
H1I H -0.2218 -0.2073 0.7500
C6I C -0.2339(5) -0.3336(5) 0.7500
H2I H -0.2974 -0.3659 0.7500
C3J C -0.0490(7) 0.1890(5) 0.7500
H1J H 0.0145 0.2218 0.7500
C6J C -0.0997(7) 0.2339(5) 0.7500
H2J H -0.0685 0.2974 0.7500
C3K C 0.2380(5) 0.0490(7) 0.7500
H1K H 0.2073 -0.0145 0.7500
C6K C 0.3336(5) 0.0997(7) 0.7500
H2K H 0.3659 0.0685 0.7500
Mg1A Mg -0.26644(7) 0.26645(15) 0.7500
O2A O -0.1785(2) 0.34509(28) 0.6540(2)
C1A C -0.1503(4) 0.42483(44) 0.6285(4)
C4A C -0.0741(4) 0.4630(4) 0.5597(4)
C7A C -0.0376(3) 0.4148(5) 0.5300(3)
N3A N -0.0725(7) 0.3184(10) 0.5567(7)
O3A O -0.1372(17) 0.2768(26) 0.5047(19)
O4A O -0.042(3) 0.291(4) 0.6157(19)
O2F O 0.1785(2) 0.52359(19) 0.3460(2)
C1F C 0.1503(4) 0.57513(19) 0.3715(4)
C4F C 0.0741(4) 0.5371(2) 0.4403(4)
C7F C 0.0376(3) 0.4524(4) 0.4700(3)
N3F N 0.0725(7) 0.3909(7) 0.4433(7)
O3F O 0.1372(17) 0.414(2) 0.4953(19)
O4F O 0.042(3) 0.333(2) 0.3843(19)
O2M O 0.1785(2) 0.65491(28) 0.3460(2)
C7M C 0.0376(3) 0.5852(5) 0.4700(3)
N3M N 0.0725(7) 0.6816(10) 0.4433(7)
O3M O 0.1372(17) 0.7232(26) 0.4953(19)
O4M O 0.042(3) 0.709(4) 0.3843(19)
O2R O -0.1785(2) 0.47641(19) 0.6540(2)
C7R C -0.0376(3) 0.5476(4) 0.5300(3)
N3R N -0.0725(7) 0.6091(7) 0.5567(7)
O3R O -0.1372(17) 0.586(2) 0.5047(19)
O4R O -0.042(3) 0.667(2) 0.6157(19)
Mg1B Mg -0.26645(15) -0.53289(13) 0.7500
O2B O -0.34509(28) -0.52359(19) 0.6540(2)
C1B C -0.42483(44) -0.57513(19) 0.6285(4)
C4B C -0.4630(4) -0.5371(2) 0.5597(4)
C7B C -0.4148(5) -0.4524(4) 0.5300(3)
N3B N -0.3184(10) -0.3909(7) 0.5567(7)
O3B O -0.2768(26) -0.414(2) 0.5047(19)
O4B O -0.291(4) -0.333(2) 0.6157(19)
O2H O -0.52359(19) -0.34509(28) 0.3460(2)
C1H C -0.57513(19) -0.42483(44) 0.3715(4)
C4H C -0.5371(2) -0.4630(4) 0.4403(4)
C7H C -0.4524(4) -0.4148(5) 0.4700(3)
N3H N -0.3909(7) -0.3184(10) 0.4433(7)
O3H O -0.414(2) -0.2768(26) 0.4953(19)
O4H O -0.333(2) -0.291(4) 0.3843(19)
O2N O -0.65491(28) -0.47641(19) 0.3460(2)
C7N C -0.5852(5) -0.5476(4) 0.4700(3)
N3N N -0.6816(10) -0.6091(7) 0.4433(7)
O3N O -0.7232(26) -0.586(2) 0.4953(19)
O4N O -0.709(4) -0.667(2) 0.3843(19)
O2T O -0.47641(19) -0.65491(28) 0.6540(2)
C7T C -0.5476(4) -0.5852(5) 0.5300(3)
N3T N -0.6091(7) -0.6816(10) 0.5567(7)
O3T O -0.586(2) -0.7232(26) 0.5047(19)
O4T O -0.667(2) -0.709(4) 0.6157(19)
Mg1_2 Mg -0.46711(13) -0.73356(7) 0.7500
Mg1A_2 Mg 0.73356(7) 0.26645(15) 0.7500
Mg1B_2 Mg -0.26645(15) 0.46711(13) 0.7500
Mg1B_3 Mg 0.73355(15) 0.46711(13) 0.7500
Mg1C Mg -0.53289(13) -0.26644(7) 0.2500
Mg1C_2 Mg 0.46711(13) -0.26644(7) 0.2500
Mg1D Mg 0.26644(7) -0.26645(15) 0.2500
Mg1D_2 Mg 0.26644(7) 0.73355(15) 0.2500
Mg1E Mg -0.73355(15) -0.46711(13) 0.2500
Mg1E_2 Mg 0.26645(15) 0.53289(13) 0.2500
O1_2 O -0.3333 -0.6667 0.7500
O1_3 O -0.3333 0.3333 0.7500
O2I O -0.1785(2) -0.52359(19) 0.8460(2)
O2J O -0.34509(28) 0.1785(2) 0.8460(2)
O2K O 0.52359(19) 0.34509(28) 0.8460(2)
O2O O 0.52359(19) 0.1785(2) 0.8460(2)
O2P O -0.1785(2) 0.34509(28) 0.8460(2)
O2Q O -0.34509(28) -0.52359(19) 0.8460(2)
O2R_2 O -0.1785(2) -0.52359(19) 0.6540(2)
O2S_2 O -0.34509(28) 0.1785(2) 0.6540(2)
O2T_2 O 0.52359(19) 0.34509(28) 0.6540(2)
loop_
_geom_bond_atom_site_label_1
_geom_bond_atom_site_label_2
_geom_bond_site_symmetry_1
_geom_bond_site_symmetry_2
Mg1 O1 1_555 1_555
O1 Mg1A_2 1_555 1_555
O2 Mg1 1_555 1_555
N1 Mg1 1_555 1_555
C1 O2 1_555 1_555
C2 C3 1_555 1_555
C3 H1 1_555 1_555
N2 C5 1_555 1_555
C4 C1 1_555 1_555
C5 C2 1_555 1_555
C6 N1 1_555 1_555
H2 C6 1_555 1_555
C7 C4 1_555 1_555
N3 C7 1_555 1_555
O3 N3 1_555 1_555
O4 N3 1_555 1_555
O2G C1G 1_555 1_555
C1G C4G 1_555 1_555
C4G C7G 1_555 1_555
C7G C7 1_555 1_555
N3G C7G 1_555 1_555
O3G N3G 1_555 1_555
O4G N3G 1_555 1_555
O2L C1G 1_555 1_555
C7L C4G 1_555 1_555
N3L C7L 1_555 1_555
O3L N3L 1_555 1_555
O4L N3L 1_555 1_555
O2S C1 1_555 1_555
C7S C4 1_555 1_555
N3S C7S 1_555 1_555
O3S N3S 1_555 1_555
O4S N3S 1_555 1_555
N1A C6A 1_555 1_555
C2A C3A 1_555 1_555
C3A H1A 1_555 1_555
N2A C5 1_555 1_555
C5A C2A 1_555 1_555
C6A C3A 1_555 1_555
H2A C6A 1_555 1_555
N1B C6B 1_555 1_555
C2B C3B 1_555 1_555
C3B H1B 1_555 1_555
N2B C5A 1_555 1_555
C5B N2 1_555 1_555
C6B C3B 1_555 1_555
H2B C6B 1_555 1_555
C3I C2B 1_555 1_555
H1I C3I 1_555 1_555
C6I N1B 1_555 1_555
H2I C6I 1_555 1_555
C3J C2A 1_555 1_555
H1J C3J 1_555 1_555
C6J N1A 1_555 1_555
H2J C6J 1_555 1_555
C3K C2 1_555 1_555
H1K C3K 1_555 1_555
C6K N1 1_555 1_555
H2K C6K 1_555 1_555
Mg1A N1A 1_555 1_555
O2A Mg1A 1_555 1_555
C1A O2A 1_555 1_555
C4A C1A 1_555 1_555
C7A C4A 1_555 1_555
N3A C7A 1_555 1_555
O3A N3A 1_555 1_555
O4A N3A 1_555 1_555
O2F C1F 1_555 1_555
C1F C4F 1_555 1_555
C4F C7F 1_555 1_555
C7F C7A 1_555 1_555
N3F C7F 1_555 1_555
O3F N3F 1_555 1_555
O4F N3F 1_555 1_555
O2M C1F 1_555 1_555
C7M C4F 1_555 1_555
N3M C7M 1_555 1_555
O3M N3M 1_555 1_555
O4M N3M 1_555 1_555
O2R C1A 1_555 1_555
C7R C4A 1_555 1_555
N3R C7R 1_555 1_555
O3R N3R 1_555 1_555
O4R N3R 1_555 1_555
Mg1B N1B 1_555 1_555
O2B Mg1B 1_555 1_555
C1B O2B 1_555 1_555
C4B C1B 1_555 1_555
C7B C4B 1_555 1_555
N3B C7B 1_555 1_555
O3B N3B 1_555 1_555
O4B N3B 1_555 1_555
O2H C1H 1_555 1_555
C1H C4H 1_555 1_555
C4H C7H 1_555 1_555
C7H C7B 1_555 1_555
N3H C7H 1_555 1_555
O3H N3H 1_555 1_555
O4H N3H 1_555 1_555
O2N C1H 1_555 1_555
C7N C4H 1_555 1_555
N3N C7N 1_555 1_555
O3N N3N 1_555 1_555
O4N N3N 1_555 1_555
O2T C1B 1_555 1_555
C7T C4B 1_555 1_555
N3T C7T 1_555 1_555
O3T N3T 1_555 1_555
O4T N3T 1_555 1_555
Mg1_2 O2T 1_555 1_555
Mg1A_2 O2S 1_555 1_555
Mg1B_2 O2R 1_555 1_555
Mg1B_3 O1 1_555 1_555
Mg1C O2H 1_555 1_555
Mg1C_2 O2L 1_555 1_555
Mg1D O2G 1_555 1_555
Mg1D_2 O2M 1_555 1_555
Mg1E O2N 1_555 1_555
Mg1E_2 O2F 1_555 1_555
O1_2 Mg1B 1_555 1_555
O1_3 Mg1A 1_555 1_555
O2I Mg1B 1_555 1_555
O2J Mg1A 1_555 1_555
O2K Mg1 1_555 1_555
O2O Mg1 1_555 1_555
O2P Mg1A 1_555 1_555
O2Q Mg1B 1_555 1_555
O2R_2 Mg1B 1_555 1_555
O2S_2 Mg1A 1_555 1_555
O2T_2 Mg1 1_555 1_555
C3 C6 1_555 1_555
C7L C7S 1_555 1_555
N2A C5A 1_555 1_555
C2B C5B 1_555 1_555
N2B C5B 1_555 1_555
C3I C6I 1_555 1_555
C3J C6J 1_555 1_555
C3K C6K 1_555 1_555
C7M C7R 1_555 1_555
C7N C7T 1_555 1_555
Mg1_2 O1_2 1_555 1_555
Mg1B_2 O1_3 1_555 1_555

#END
