
#######################################################################
#
#                 Cambridge Crystallographic Data Centre
#                                CCDC 
#
#######################################################################
#
# If this CIF has been generated from an entry in the Cambridge 
# Structural Database, then it will include bibliographic, chemical, 
# crystal, experimental, refinement or atomic coordinate data resulting 
# from the CCDC's data processing and validation procedures.
#
#######################################################################

data_OPAHIY
_chemical_formula_moiety         'C174 H104 Cd18 N2 O47'
_symmetry_cell_setting           orthorhombic
_symmetry_space_group_name_H-M   'P m n a'
_symmetry_Int_Tables_number      53
_space_group_name_Hall           '-P 2ac 2'
loop_
_symmetry_equiv_pos_site_id
_symmetry_equiv_pos_as_xyz
1 x,y,z
2 1/2-x,-y,1/2+z
3 x,-y,-z
4 1/2-x,y,1/2-z
5 -x,-y,-z
6 1/2+x,y,1/2-z
7 -x,y,z
8 1/2+x,-y,1/2+z
_cell_length_a                   41.5870(13)
_cell_length_b                   17.4650(9)
_cell_length_c                   17.9499(8)
_cell_angle_alpha                90
_cell_angle_beta                 90
_cell_angle_gamma                90
_cell_volume                     13037.3
loop_
_atom_site_label
_atom_site_type_symbol
_atom_site_fract_x
_atom_site_fract_y
_atom_site_fract_z
C1 C 0.19142(12) 0.4849(4) 0.1172(3)
C2 C 0.16475(12) 0.4838(4) 0.1738(3)
C3 C 0.15540(16) 0.4177(5) 0.2085(5)
H1 H 0.1662 0.3723 0.1981
C4 C 0.12995(16) 0.4170(5) 0.2592(4)
H2 H 0.1242 0.3719 0.2832
C5 C 0.11332(12) 0.4840(4) 0.2734(3)
C6 C 0.12292(15) 0.5504(4) 0.2380(4)
H3 H 0.1122 0.5960 0.2482
C7 C 0.14784(16) 0.5503(4) 0.1882(4)
H4 H 0.1534 0.5954 0.1639
C8 C 0.08476(11) 0.4836(3) 0.3245(3)
C9 C 0.03034(10) 0.4894(3) 0.4178(2)
C10 C 0.0838(2) 0.4422(7) 0.3906(5)
H5 H 0.1017 0.4137 0.4051
C11 C 0.05632(19) 0.4427(7) 0.4358(6)
H6 H 0.0554 0.4118 0.4779
C12 C 0.0305(2) 0.5297(6) 0.3509(5)
H7 H 0.0125 0.5575 0.3364
C13 C 0.05762(17) 0.5281(6) 0.3061(5)
H8 H 0.0579 0.5571 0.2626
C14 C 0.3390(2) 0.3854(7) -0.0590(6)
H9 H 0.3313 0.4235 -0.0904
C15 C 0.3685(2) 0.3516(7) -0.0751(6)
H10 H 0.3798 0.3655 -0.1177
C16 C 0.3648(2) 0.2793(7) 0.0380(5)
H11 H 0.3743 0.2453 0.0713
C17 C 0.33482(9) 0.3114(3) 0.0543(2)
H12 H 0.3242 0.2987 0.0981
C18 C 0.41590(9) 0.2312(3) -0.1185(2)
H13 H 0.3991 0.2313 -0.1526
C19 C 0.44527(9) 0.1969(3) -0.1370(2)
H14 H 0.4489 0.1811 -0.1858
C20 C 0.46455(9) 0.2211(3) -0.0123(2)
H15 H 0.4806 0.2179 0.0238
C21 C 0.43623(9) 0.2607(3) 0.0047(2)
H16 H 0.4341 0.2862 0.0500
C22 C 0.5368(2) -0.0072(8) -0.2099(6)
H17 H 0.5214 -0.0029 -0.2473
C23 C 0.5646(2) -0.0487(7) -0.2262(6)
H18 H 0.5680 -0.0689 -0.2735
C24 C 0.58593(18) -0.0149(6) -0.1048(5)
H19 H 0.6035 -0.0112 -0.0728
C25 C 0.55683(12) 0.0233(4) -0.0908(3)
H20 H 0.5545 0.0472 -0.0448
C26 C 0.64485(12) -0.0947(4) -0.1425(3)
H21 H 0.6450 -0.0597 -0.1035
C27 C 0.67284(12) -0.1393(4) -0.1575(3)
H22 H 0.6914 -0.1341 -0.1290
C28 C 0.64863(12) -0.1841(4) -0.2719(3)
H23 H 0.6514 -0.2078 -0.3178
C29 C 0.62083(12) -0.1393(4) -0.2572(3)
H24 H 0.6052 -0.1341 -0.2940
C30 C 0.0000 0.4942(5) 0.4629(4)
C31 C 0.28808(12) 0.3963(3) 0.0184(4)
C32 C 0.32066(10) 0.3640(3) 0.0027(3)
C33 C 0.38069(10) 0.2982(3) -0.0282(3)
C34 C 0.41170(10) 0.2615(3) -0.0459(3)
C35 C 0.46978(9) 0.1857(3) -0.0818(3)
C36 C 0.5000 0.1426(4) -0.0996(5)
C37 C 0.5000 0.0720(5) -0.1263(5)
C38 C 0.53041(12) 0.0281(3) -0.1424(3)
C39 C 0.58688(14) -0.0590(3) -0.1705(3)
C40 C 0.2395(4) 0.4775(5) 0.2806(8)
C41 C 0.2759(3) 0.5495(8) 0.1985(6)
C42 C 0.2305(5) 0.6134(7) 0.2707(14)
N1 N 0.2500 0.5466(5) 0.2500
O1 O 0.2500 0.4176(4) 0.2500
Cd1 Cd 0.241996(10) 0.33341(3) 0.14948(3)
Cd2 Cd 0.234010(9) 0.5000 0.0000
O2 O 0.27905(9) 0.4023(3) 0.0856(3)
O3 O 0.27145(11) 0.4180(3) -0.0346(3)
O4 O 0.20642(9) 0.4236(3) 0.1026(3)
O5 O 0.19724(11) 0.5443(3) 0.0834(3)
O6 O 0.2305(2) 0.2622(4) 0.0428(5)
H25 H 0.2375 0.2243 0.0174
H26 H 0.2120 0.2755 0.0257
C43 C 0.61646(14) -0.1025(4) -0.1880(3)
C44 C 0.67135(16) -0.1915(4) -0.2169(3)
C45 C 0.70040(18) -0.2415(4) -0.2329(6)
O7 O 0.70378(11) -0.2685(3) -0.2934(4)
O8 O 0.71970(18) -0.2509(4) -0.1802(4)
C1B C 0.19142(12) 0.5151(4) 0.8828(3)
C2B C 0.16475(12) 0.5162(4) 0.8262(3)
C3B C 0.15540(16) 0.5823(5) 0.7915(5)
H1B H 0.1662 0.6277 0.8019
C4B C 0.12995(16) 0.5830(5) 0.7408(4)
H2B H 0.1242 0.6281 0.7168
C5B C 0.11332(12) 0.5160(4) 0.7266(3)
C6B C 0.12292(15) 0.4496(4) 0.7620(4)
H3B H 0.1122 0.4040 0.7518
C7B C 0.14784(16) 0.4497(4) 0.8118(4)
H4B H 0.1534 0.4046 0.8361
C8B C 0.08476(11) 0.5164(3) 0.6755(3)
C9B C 0.03034(10) 0.5106(3) 0.5822(2)
C10B C 0.0838(2) 0.5578(7) 0.6094(5)
H5B H 0.1017 0.5863 0.5949
C11B C 0.05632(19) 0.5573(7) 0.5642(6)
H6B H 0.0554 0.5882 0.5221
C12B C 0.0305(2) 0.4703(6) 0.6491(5)
H7B H 0.0125 0.4425 0.6636
C13B C 0.05762(17) 0.4719(6) 0.6939(5)
H8B H 0.0579 0.4429 0.7374
C30B C -0.0000 0.5058(5) 0.5371(4)
O4B O 0.20642(9) 0.5764(3) 0.8974(3)
O5B O 0.19724(11) 0.4557(3) 0.9166(3)
C1D C -0.19142(12) 0.5151(4) 0.8828(3)
C2D C -0.16475(12) 0.5162(4) 0.8262(3)
C3D C -0.15540(16) 0.5823(5) 0.7915(5)
H1D H -0.1662 0.6277 0.8019
C4D C -0.12995(16) 0.5830(5) 0.7408(4)
H2D H -0.1242 0.6281 0.7168
C5D C -0.11332(12) 0.5160(4) 0.7266(3)
C6D C -0.12292(15) 0.4496(4) 0.7620(4)
H3D H -0.1122 0.4040 0.7518
C7D C -0.14784(16) 0.4497(4) 0.8118(4)
H4D H -0.1534 0.4046 0.8361
C8D C -0.08476(11) 0.5164(3) 0.6755(3)
C9D C -0.03034(10) 0.5106(3) 0.5822(2)
C10D C -0.0838(2) 0.5578(7) 0.6094(5)
H5D H -0.1017 0.5863 0.5949
C11D C -0.05632(19) 0.5573(7) 0.5642(6)
H6D H -0.0554 0.5882 0.5221
C12D C -0.0305(2) 0.4703(6) 0.6491(5)
H7D H -0.0125 0.4425 0.6636
C13D C -0.05762(17) 0.4719(6) 0.6939(5)
H8D H -0.0579 0.4429 0.7374
O4D O -0.20642(9) 0.5764(3) 0.8974(3)
O5D O -0.19724(11) 0.4557(3) 0.9166(3)
C1F C -0.19142(12) 0.4849(4) 0.1172(3)
C2F C -0.16475(12) 0.4838(4) 0.1738(3)
C3F C -0.15540(16) 0.4177(5) 0.2085(5)
H1F H -0.1662 0.3723 0.1981
C4F C -0.12995(16) 0.4170(5) 0.2592(4)
H2F H -0.1242 0.3719 0.2832
C5F C -0.11332(12) 0.4840(4) 0.2734(3)
C6F C -0.12292(15) 0.5504(4) 0.2380(4)
H3F H -0.1122 0.5960 0.2482
C7F C -0.14784(16) 0.5503(4) 0.1882(4)
H4F H -0.1534 0.5954 0.1639
C8F C -0.08476(11) 0.4836(3) 0.3245(3)
C9F C -0.03034(10) 0.4894(3) 0.4178(2)
C10F C -0.0838(2) 0.4422(7) 0.3906(5)
H5F H -0.1017 0.4137 0.4051
C11F C -0.05632(19) 0.4427(7) 0.4358(6)
H6F H -0.0554 0.4118 0.4779
C12F C -0.0305(2) 0.5297(6) 0.3509(5)
H7F H -0.0125 0.5575 0.3364
C13F C -0.05762(17) 0.5281(6) 0.3061(5)
H8F H -0.0579 0.5571 0.2626
O4F O -0.20642(9) 0.4236(3) 0.1026(3)
O5F O -0.19724(11) 0.5443(3) 0.0834(3)
C14F C 0.6610(2) 0.3854(7) -0.0590(6)
H9F H 0.6687 0.4235 -0.0904
C15F C 0.6315(2) 0.3516(7) -0.0751(6)
H10F H 0.6202 0.3655 -0.1177
C16F C 0.6352(2) 0.2793(7) 0.0380(5)
H11F H 0.6257 0.2453 0.0713
C17F C 0.66518(9) 0.3114(3) 0.0543(2)
H12F H 0.6758 0.2987 0.0981
C18F C 0.58410(9) 0.2312(3) -0.1185(2)
H13F H 0.6009 0.2313 -0.1526
C19F C 0.55473(9) 0.1969(3) -0.1370(2)
H14F H 0.5511 0.1811 -0.1858
C20F C 0.53545(9) 0.2211(3) -0.0123(2)
H15F H 0.5194 0.2179 0.0238
C21F C 0.56377(9) 0.2607(3) 0.0047(2)
H16F H 0.5659 0.2862 0.0500
C22F C 0.4632(2) -0.0072(8) -0.2099(6)
H17F H 0.4786 -0.0029 -0.2473
C23F C 0.4354(2) -0.0487(7) -0.2262(6)
H18F H 0.4320 -0.0689 -0.2735
C24F C 0.41407(18) -0.0149(6) -0.1048(5)
H19F H 0.3965 -0.0112 -0.0728
C25F C 0.44317(12) 0.0233(4) -0.0908(3)
H20F H 0.4455 0.0472 -0.0448
C26F C 0.35515(12) -0.0947(4) -0.1425(3)
H21F H 0.3550 -0.0597 -0.1035
C27F C 0.32716(12) -0.1393(4) -0.1575(3)
H22F H 0.3086 -0.1341 -0.1290
C28F C 0.35137(12) -0.1841(4) -0.2719(3)
H23F H 0.3486 -0.2078 -0.3178
C29F C 0.37917(12) -0.1393(4) -0.2572(3)
H24F H 0.3948 -0.1341 -0.2940
C31F C 0.71192(12) 0.3963(3) 0.0184(4)
C32F C 0.67934(10) 0.3640(3) 0.0027(3)
C33F C 0.61931(10) 0.2982(3) -0.0282(3)
C34F C 0.58830(10) 0.2615(3) -0.0459(3)
C35F C 0.53022(9) 0.1857(3) -0.0818(3)
C38F C 0.46959(12) 0.0281(3) -0.1424(3)
C39F C 0.41312(14) -0.0590(3) -0.1705(3)
O2F O 0.72095(9) 0.4023(3) 0.0856(3)
O3F O 0.72855(11) 0.4180(3) -0.0346(3)
C43F C 0.38354(14) -0.1025(4) -0.1880(3)
C44F C 0.32865(16) -0.1915(4) -0.2169(3)
C45F C 0.29960(18) -0.2415(4) -0.2329(6)
O7F O 0.29622(11) -0.2685(3) -0.2934(4)
O8F O 0.28030(18) -0.2509(4) -0.1802(4)
C40C C 0.2605(4) 0.4775(5) 0.2194(8)
C41C C 0.2241(3) 0.5495(8) 0.3015(6)
C42C C 0.2695(5) 0.6134(7) 0.2293(14)
C14B C 0.3390(2) -0.3854(7) 0.0590(6)
H9B H 0.3313 -0.4235 0.0904
C15B C 0.3685(2) -0.3516(7) 0.0751(6)
H10B H 0.3798 -0.3655 0.1177
C16B C 0.3648(2) -0.2793(7) -0.0380(5)
H11B H 0.3743 -0.2453 -0.0713
C17B C 0.33482(9) -0.3114(3) -0.0543(2)
H12B H 0.3242 -0.2987 -0.0981
C18B C 0.41590(9) -0.2312(3) 0.1185(2)
H13B H 0.3991 -0.2313 0.1526
C19B C 0.44527(9) -0.1969(3) 0.1370(2)
H14B H 0.4489 -0.1811 0.1858
C20B C 0.46455(9) -0.2211(3) 0.0123(2)
H15B H 0.4806 -0.2179 -0.0238
C21B C 0.43623(9) -0.2607(3) -0.0047(2)
H16B H 0.4341 -0.2862 -0.0500
C22B C 0.5368(2) 0.0072(8) 0.2099(6)
H17B H 0.5214 0.0029 0.2473
C23B C 0.5646(2) 0.0487(7) 0.2262(6)
H18B H 0.5680 0.0689 0.2735
C24B C 0.58593(18) 0.0149(6) 0.1048(5)
H19B H 0.6035 0.0112 0.0728
C25B C 0.55683(12) -0.0233(4) 0.0908(3)
H20B H 0.5545 -0.0472 0.0448
C26B C 0.64485(12) 0.0947(4) 0.1425(3)
H21B H 0.6450 0.0597 0.1035
C27B C 0.67284(12) 0.1393(4) 0.1575(3)
H22B H 0.6914 0.1341 0.1290
C28B C 0.64863(12) 0.1841(4) 0.2719(3)
H23B H 0.6514 0.2078 0.3178
C29B C 0.62083(12) 0.1393(4) 0.2572(3)
H24B H 0.6052 0.1341 0.2940
C31B C 0.28808(12) -0.3963(3) -0.0184(4)
C32B C 0.32066(10) -0.3640(3) -0.0027(3)
C33B C 0.38069(10) -0.2982(3) 0.0282(3)
C34B C 0.41170(10) -0.2615(3) 0.0459(3)
C35B C 0.46978(9) -0.1857(3) 0.0818(3)
C36B C 0.5000 -0.1426(4) 0.0996(5)
C37B C 0.5000 -0.0720(5) 0.1263(5)
C38B C 0.53041(12) -0.0281(3) 0.1424(3)
C39B C 0.58688(14) 0.0590(3) 0.1705(3)
C40B C 0.2395(4) -0.4775(5) -0.2806(8)
C41B C 0.2759(3) -0.5495(8) -0.1985(6)
C42B C 0.2305(5) -0.6134(7) -0.2707(14)
N1A N 0.2500 -0.5466(5) -0.2500
O1A O 0.2500 -0.4176(4) -0.2500
Cd1B Cd 0.241996(10) -0.33341(3) -0.14948(3)
O2B O 0.27905(9) -0.4023(3) -0.0856(3)
O3B O 0.27145(11) -0.4180(3) 0.0346(3)
O6B O 0.2305(2) -0.2622(4) -0.0428(5)
H25B H 0.2375 -0.2243 -0.0174
H26B H 0.2120 -0.2755 -0.0257
C43B C 0.61646(14) 0.1025(4) 0.1880(3)
C44B C 0.67135(16) 0.1915(4) 0.2169(3)
C45B C 0.70040(18) 0.2415(4) 0.2329(6)
O7B O 0.70378(11) 0.2685(3) 0.2934(4)
O8B O 0.71970(18) 0.2509(4) 0.1802(4)
C14D C 0.6610(2) -0.3854(7) 0.0590(6)
H9D H 0.6687 -0.4235 0.0904
C15D C 0.6315(2) -0.3516(7) 0.0751(6)
H10D H 0.6202 -0.3655 0.1177
C16D C 0.6352(2) -0.2793(7) -0.0380(5)
H11D H 0.6257 -0.2453 -0.0713
C17D C 0.66518(9) -0.3114(3) -0.0543(2)
H12D H 0.6758 -0.2987 -0.0981
C18D C 0.58410(9) -0.2312(3) 0.1185(2)
H13D H 0.6009 -0.2313 0.1526
C19D C 0.55473(9) -0.1969(3) 0.1370(2)
H14D H 0.5511 -0.1811 0.1858
C20D C 0.53545(9) -0.2211(3) 0.0123(2)
H15D H 0.5194 -0.2179 -0.0238
C21D C 0.56377(9) -0.2607(3) -0.0047(2)
H16D H 0.5659 -0.2862 -0.0500
C22D C 0.4632(2) 0.0072(8) 0.2099(6)
H17D H 0.4786 0.0029 0.2473
C23D C 0.4354(2) 0.0487(7) 0.2262(6)
H18D H 0.4320 0.0689 0.2735
C24D C 0.41407(18) 0.0149(6) 0.1048(5)
H19D H 0.3965 0.0112 0.0728
C25D C 0.44317(12) -0.0233(4) 0.0908(3)
H20D H 0.4455 -0.0472 0.0448
C26D C 0.35515(12) 0.0947(4) 0.1425(3)
H21D H 0.3550 0.0597 0.1035
C27D C 0.32716(12) 0.1393(4) 0.1575(3)
H22D H 0.3086 0.1341 0.1290
C28D C 0.35137(12) 0.1841(4) 0.2719(3)
H23D H 0.3486 0.2078 0.3178
C29D C 0.37917(12) 0.1393(4) 0.2572(3)
H24D H 0.3948 0.1341 0.2940
C31D C 0.71192(12) -0.3963(3) -0.0184(4)
C32D C 0.67934(10) -0.3640(3) -0.0027(3)
C33D C 0.61931(10) -0.2982(3) 0.0282(3)
C34D C 0.58830(10) -0.2615(3) 0.0459(3)
C35D C 0.53022(9) -0.1857(3) 0.0818(3)
C38D C 0.46959(12) -0.0281(3) 0.1424(3)
C39D C 0.41312(14) 0.0590(3) 0.1705(3)
O2D O 0.72095(9) -0.4023(3) -0.0856(3)
O3D O 0.72855(11) -0.4180(3) 0.0346(3)
C43D C 0.38354(14) 0.1025(4) 0.1880(3)
C44D C 0.32865(16) 0.1915(4) 0.2169(3)
C45D C 0.29960(18) 0.2415(4) 0.2329(6)
O7D O 0.29622(11) 0.2685(3) 0.2934(4)
O8D O 0.28030(18) 0.2509(4) 0.1802(4)
C40A C 0.2605(4) -0.4775(5) -0.2194(8)
C41A C 0.2241(3) -0.5495(8) -0.3015(6)
C42A C 0.2695(5) -0.6134(7) -0.2293(14)
Cd1F Cd -0.241996(10) 0.33341(3) 0.14948(3)
Cd2D Cd -0.234010(9) 0.5000 0.0000
O6F O -0.2305(2) 0.2622(4) 0.0428(5)
H25F H -0.2375 0.2243 0.0174
H26F H -0.2120 0.2755 0.0257
Cd1C Cd 0.258004(10) 0.33341(3) 0.35052(3)
O6C O 0.2695(2) 0.2622(4) 0.4572(5)
H25C H 0.2625 0.2243 0.4826
H26C H 0.2880 0.2755 0.4743
O1E O -0.2500 0.4176(4) 0.2500
Cd1A Cd 0.258004(10) -0.33341(3) -0.35052(3)
Cd1B_2 Cd 0.241996(10) 0.66659(3) 0.85052(3)
Cd1D Cd -0.241996(10) 0.66659(3) 0.85052(3)
Cd1D_2 Cd 0.758004(10) -0.33341(3) -0.14948(3)
Cd1E Cd 0.741996(10) 0.33341(3) 0.35052(3)
Cd1F_2 Cd 0.758004(10) 0.33341(3) 0.14948(3)
Cd1G Cd 0.741996(10) -0.33341(3) -0.35052(3)
Cd2_2 Cd 0.234010(9) -0.5000 0.0000
Cd2_3 Cd 0.234010(9) 0.5000 1.0000
Cd2D_2 Cd -0.234010(9) 0.5000 1.0000
Cd2D_3 Cd 0.765990(9) -0.5000 0.0000
Cd2D_4 Cd 0.765990(9) 0.5000 0.0000
O2C O 0.22095(9) 0.4023(3) 0.4144(3)
O2F_2 O -0.27905(9) 0.4023(3) 0.0856(3)
O3B_2 O 0.27145(11) 0.5820(3) 0.0346(3)
O3D_2 O -0.27145(11) 0.5820(3) 0.0346(3)
O3F_2 O -0.27145(11) 0.4180(3) -0.0346(3)
O4B_2 O 0.20642(9) -0.4236(3) -0.1026(3)
O4B_3 O 0.20642(9) 0.5764(3) -0.1026(3)
O4C O 0.29358(9) 0.4236(3) 0.3974(3)
O4D_2 O -0.20642(9) 0.5764(3) -0.1026(3)
O5B_2 O 0.19724(11) 0.4557(3) -0.0834(3)
O5D_2 O -0.19724(11) 0.4557(3) -0.0834(3)
O7A O -0.20378(11) 0.2685(3) 0.2066(4)
O7E O 0.20378(11) -0.2685(3) -0.2066(4)
O7G O 0.20378(11) 0.2685(3) 0.2066(4)
O8B_2 O -0.28030(18) 0.2509(4) 0.1802(4)
O8G O 0.21970(18) 0.2509(4) 0.3198(4)
loop_
_geom_bond_atom_site_label_1
_geom_bond_atom_site_label_2
_geom_bond_site_symmetry_1
_geom_bond_site_symmetry_2
C1 C2 1_555 1_555
C2 C3 1_555 1_555
C3 H1 1_555 1_555
C4 C3 1_555 1_555
H2 C4 1_555 1_555
C5 C4 1_555 1_555
C6 C5 1_555 1_555
H3 C6 1_555 1_555
C7 C2 1_555 1_555
H4 C7 1_555 1_555
C8 C5 1_555 1_555
C9 C11 1_555 1_555
C10 C8 1_555 1_555
H5 C10 1_555 1_555
C11 C10 1_555 1_555
H6 C11 1_555 1_555
C12 C9 1_555 1_555
H7 C12 1_555 1_555
C13 C8 1_555 1_555
H8 C13 1_555 1_555
C14 H9 1_555 1_555
C15 C14 1_555 1_555
H10 C15 1_555 1_555
C16 H11 1_555 1_555
C17 C16 1_555 1_555
H12 C17 1_555 1_555
C18 H13 1_555 1_555
C19 C18 1_555 1_555
H14 C19 1_555 1_555
C20 H15 1_555 1_555
C21 C20 1_555 1_555
H16 C21 1_555 1_555
C22 H17 1_555 1_555
C23 C22 1_555 1_555
H18 C23 1_555 1_555
C24 H19 1_555 1_555
C25 C24 1_555 1_555
H20 C25 1_555 1_555
C26 H21 1_555 1_555
C27 C26 1_555 1_555
H22 C27 1_555 1_555
C28 H23 1_555 1_555
C29 C28 1_555 1_555
H24 C29 1_555 1_555
C30 C9 1_555 1_555
C31 C32 1_555 1_555
C32 C14 1_555 1_555
C33 C15 1_555 1_555
C34 C18 1_555 1_555
C35 C19 1_555 1_555
C36 C35 1_555 1_555
C37 C36 1_555 1_555
C38 C22 1_555 1_555
C39 C23 1_555 1_555
C40 N1 1_555 1_555
C41 N1 1_555 1_555
C42 N1 1_555 1_555
N1 C40C 1_555 1_555
O1 C40 1_555 1_555
Cd1 O1 1_555 1_555
Cd2 O3 1_555 1_555
O2 C31 1_555 1_555
O3 C31 1_555 1_555
O4 C1 1_555 1_555
O5 C1 1_555 1_555
O6 Cd1 1_555 1_555
H25 O6 1_555 1_555
H26 O6 1_555 1_555
C43 C26 1_555 1_555
C44 C27 1_555 1_555
C45 C44 1_555 1_555
O7 C45 1_555 1_555
O8 C45 1_555 1_555
C1B C2B 1_555 1_555
C2B C3B 1_555 1_555
C3B H1B 1_555 1_555
C4B C3B 1_555 1_555
H2B C4B 1_555 1_555
C5B C4B 1_555 1_555
C6B C5B 1_555 1_555
H3B C6B 1_555 1_555
C7B C2B 1_555 1_555
H4B C7B 1_555 1_555
C8B C5B 1_555 1_555
C9B C11B 1_555 1_555
C10B C8B 1_555 1_555
H5B C10B 1_555 1_555
C11B C10B 1_555 1_555
H6B C11B 1_555 1_555
C12B C9B 1_555 1_555
H7B C12B 1_555 1_555
C13B C8B 1_555 1_555
H8B C13B 1_555 1_555
C30B C30 1_555 1_555
O4B C1B 1_555 1_555
O5B C1B 1_555 1_555
C1D C2D 1_555 1_555
C2D C3D 1_555 1_555
C3D H1D 1_555 1_555
C4D C3D 1_555 1_555
H2D C4D 1_555 1_555
C5D C4D 1_555 1_555
C6D C5D 1_555 1_555
H3D C6D 1_555 1_555
C7D C2D 1_555 1_555
H4D C7D 1_555 1_555
C8D C5D 1_555 1_555
C9D C30B 1_555 1_555
C10D C8D 1_555 1_555
H5D C10D 1_555 1_555
C11D C9D 1_555 1_555
H6D C11D 1_555 1_555
C12D C9D 1_555 1_555
H7D C12D 1_555 1_555
C13D C8D 1_555 1_555
H8D C13D 1_555 1_555
O4D C1D 1_555 1_555
O5D C1D 1_555 1_555
C1F C2F 1_555 1_555
C2F C3F 1_555 1_555
C3F H1F 1_555 1_555
C4F C3F 1_555 1_555
H2F C4F 1_555 1_555
C5F C4F 1_555 1_555
C6F C5F 1_555 1_555
H3F C6F 1_555 1_555
C7F C2F 1_555 1_555
H4F C7F 1_555 1_555
C8F C5F 1_555 1_555
C9F C30 1_555 1_555
C10F C8F 1_555 1_555
H5F C10F 1_555 1_555
C11F C9F 1_555 1_555
H6F C11F 1_555 1_555
C12F C9F 1_555 1_555
H7F C12F 1_555 1_555
C13F C8F 1_555 1_555
H8F C13F 1_555 1_555
O4F C1F 1_555 1_555
O5F C1F 1_555 1_555
C14F H9F 1_555 1_555
C15F C14F 1_555 1_555
H10F C15F 1_555 1_555
C16F H11F 1_555 1_555
C17F C16F 1_555 1_555
H12F C17F 1_555 1_555
C18F H13F 1_555 1_555
C19F C18F 1_555 1_555
H14F C19F 1_555 1_555
C20F H15F 1_555 1_555
C21F C20F 1_555 1_555
H16F C21F 1_555 1_555
C22F H17F 1_555 1_555
C23F C22F 1_555 1_555
H18F C23F 1_555 1_555
C24F H19F 1_555 1_555
C25F C24F 1_555 1_555
H20F C25F 1_555 1_555
C26F H21F 1_555 1_555
C27F C26F 1_555 1_555
H22F C27F 1_555 1_555
C28F H23F 1_555 1_555
C29F C28F 1_555 1_555
H24F C29F 1_555 1_555
C31F C32F 1_555 1_555
C32F C14F 1_555 1_555
C33F C15F 1_555 1_555
C34F C18F 1_555 1_555
C35F C36 1_555 1_555
C38F C37 1_555 1_555
C39F C23F 1_555 1_555
O2F C31F 1_555 1_555
O3F C31F 1_555 1_555
C43F C26F 1_555 1_555
C44F C27F 1_555 1_555
C45F C44F 1_555 1_555
O7F C45F 1_555 1_555
O8F C45F 1_555 1_555
C40C C40 1_555 1_555
C41C C40 1_555 1_555
C42C C41 1_555 1_555
C14B H9B 1_555 1_555
C15B C14B 1_555 1_555
H10B C15B 1_555 1_555
C16B H11B 1_555 1_555
C17B C16B 1_555 1_555
H12B C17B 1_555 1_555
C18B H13B 1_555 1_555
C19B C18B 1_555 1_555
H14B C19B 1_555 1_555
C20B H15B 1_555 1_555
C21B C20B 1_555 1_555
H16B C21B 1_555 1_555
C22B H17B 1_555 1_555
C23B C22B 1_555 1_555
H18B C23B 1_555 1_555
C24B H19B 1_555 1_555
C25B C24B 1_555 1_555
H20B C25B 1_555 1_555
C26B H21B 1_555 1_555
C27B C26B 1_555 1_555
H22B C27B 1_555 1_555
C28B H23B 1_555 1_555
C29B C28B 1_555 1_555
H24B C29B 1_555 1_555
C31B C32B 1_555 1_555
C32B C14B 1_555 1_555
C33B C15B 1_555 1_555
C34B C18B 1_555 1_555
C35B C19B 1_555 1_555
C36B C35B 1_555 1_555
C37B C36B 1_555 1_555
C38B C22B 1_555 1_555
C39B C23B 1_555 1_555
C40B N1A 1_555 1_555
C41B N1A 1_555 1_555
C42B N1A 1_555 1_555
N1A C40A 1_555 1_555
O1A C40B 1_555 1_555
Cd1B O8F 1_555 1_555
O2B C31B 1_555 1_555
O3B C31B 1_555 1_555
O6B Cd1B 1_555 1_555
H25B O6B 1_555 1_555
H26B O6B 1_555 1_555
C43B C26B 1_555 1_555
C44B C27B 1_555 1_555
C45B C44B 1_555 1_555
O7B C45B 1_555 1_555
O8B C45B 1_555 1_555
C14D H9D 1_555 1_555
C15D C14D 1_555 1_555
H10D C15D 1_555 1_555
C16D H11D 1_555 1_555
C17D C16D 1_555 1_555
H12D C17D 1_555 1_555
C18D H13D 1_555 1_555
C19D C18D 1_555 1_555
H14D C19D 1_555 1_555
C20D H15D 1_555 1_555
C21D C20D 1_555 1_555
H16D C21D 1_555 1_555
C22D H17D 1_555 1_555
C23D C22D 1_555 1_555
H18D C23D 1_555 1_555
C24D H19D 1_555 1_555
C25D C24D 1_555 1_555
H20D C25D 1_555 1_555
C26D H21D 1_555 1_555
C27D C26D 1_555 1_555
H22D C27D 1_555 1_555
C28D H23D 1_555 1_555
C29D C28D 1_555 1_555
H24D C29D 1_555 1_555
C31D C32D 1_555 1_555
C32D C14D 1_555 1_555
C33D C15D 1_555 1_555
C34D C18D 1_555 1_555
C35D C36B 1_555 1_555
C38D C37B 1_555 1_555
C39D C23D 1_555 1_555
O2D C31D 1_555 1_555
O3D C31D 1_555 1_555
C43D C26D 1_555 1_555
C44D C27D 1_555 1_555
C45D C44D 1_555 1_555
O7D C45D 1_555 1_555
O8D Cd1 1_555 1_555
C40A C40B 1_555 1_555
C41A C40B 1_555 1_555
C42A C41B 1_555 1_555
Cd1F O4F 1_555 1_555
Cd2D O4F 1_555 1_555
O6F Cd1F 1_555 1_555
H25F O6F 1_555 1_555
H26F O6F 1_555 1_555
Cd1C O1 1_555 1_555
O6C Cd1C 1_555 1_555
H25C O6C 1_555 1_555
H26C O6C 1_555 1_555
O1E Cd1F 1_555 1_555
Cd1A O7F 1_555 1_555
Cd1B_2 O4B 1_555 1_555
Cd1D O4D 1_555 1_555
Cd1D_2 O8 1_555 1_555
Cd1E O7B 1_555 1_555
Cd1F_2 O2F 1_555 1_555
Cd1G O7 1_555 1_555
Cd2_2 O3B 1_555 1_555
Cd2_3 O4B 1_555 1_555
Cd2D_2 O4D 1_555 1_555
Cd2D_3 O3D 1_555 1_555
Cd2D_4 O3F 1_555 1_555
O2C Cd1C 1_555 1_555
O2F_2 Cd1F 1_555 1_555
O3B_2 Cd2 1_555 1_555
O3D_2 Cd2D 1_555 1_555
O3F_2 Cd2D 1_555 1_555
O4B_2 Cd1B 1_555 1_555
O4B_3 Cd2 1_555 1_555
O4C Cd1C 1_555 1_555
O4D_2 Cd2D 1_555 1_555
O5B_2 Cd2 1_555 1_555
O5D_2 Cd2D 1_555 1_555
O7A Cd1F 1_555 1_555
O7E Cd1B 1_555 1_555
O7G Cd1 1_555 1_555
O8B_2 Cd1F 1_555 1_555
O8G Cd1C 1_555 1_555
C6 C7 1_555 1_555
C12 C13 1_555 1_555
C16 C33 1_555 1_555
C17 C32 1_555 1_555
C20 C35 1_555 1_555
C21 C34 1_555 1_555
C24 C39 1_555 1_555
C25 C38 1_555 1_555
C28 C44 1_555 1_555
C29 C43 1_555 1_555
C33 C34 1_555 1_555
C37 C38 1_555 1_555
C39 C43 1_555 1_555
C41 C40C 1_555 1_555
C42 C41C 1_555 1_555
C42 C42C 1_555 1_555
N1 C41C 1_555 1_555
N1 C42C 1_555 1_555
O1 C40C 1_555 1_555
Cd1 O2 1_555 1_555
Cd1 O4 1_555 1_555
Cd2 O4 1_555 1_555
Cd2 O5 1_555 1_555
C6B C7B 1_555 1_555
C9B C30B 1_555 1_555
C12B C13B 1_555 1_555
O5B Cd2_3 1_555 1_555
C6D C7D 1_555 1_555
C10D C11D 1_555 1_555
C12D C13D 1_555 1_555
O5D Cd2D_2 1_555 1_555
C6F C7F 1_555 1_555
C10F C11F 1_555 1_555
C12F C13F 1_555 1_555
O5F Cd2D 1_555 1_555
C16F C33F 1_555 1_555
C17F C32F 1_555 1_555
C19F C35F 1_555 1_555
C20F C35F 1_555 1_555
C21F C34F 1_555 1_555
C22F C38F 1_555 1_555
C24F C39F 1_555 1_555
C25F C38F 1_555 1_555
C28F C44F 1_555 1_555
C29F C43F 1_555 1_555
C33F C34F 1_555 1_555
C39F C43F 1_555 1_555
C16B C33B 1_555 1_555
C17B C32B 1_555 1_555
C20B C35B 1_555 1_555
C21B C34B 1_555 1_555
C24B C39B 1_555 1_555
C25B C38B 1_555 1_555
C28B C44B 1_555 1_555
C29B C43B 1_555 1_555
C33B C34B 1_555 1_555
C37B C38B 1_555 1_555
C39B C43B 1_555 1_555
C41B C40A 1_555 1_555
C42B C41A 1_555 1_555
C42B C42A 1_555 1_555
N1A C41A 1_555 1_555
N1A C42A 1_555 1_555
O1A Cd1B 1_555 1_555
O1A C40A 1_555 1_555
O1A Cd1A 1_555 1_555
Cd1B O2B 1_555 1_555
O8B Cd1F_2 1_555 1_555
C16D C33D 1_555 1_555
C17D C32D 1_555 1_555
C19D C35D 1_555 1_555
C20D C35D 1_555 1_555
C21D C34D 1_555 1_555
C22D C38D 1_555 1_555
C24D C39D 1_555 1_555
C25D C38D 1_555 1_555
C28D C44D 1_555 1_555
C29D C43D 1_555 1_555
C33D C34D 1_555 1_555
C39D C43D 1_555 1_555
O2D Cd1D_2 1_555 1_555
C45D O8D 1_555 1_555
O7D Cd1C 1_555 1_555
Cd2_2 O4B_2 1_555 1_555

#END
