
#######################################################################
#
#                 Cambridge Crystallographic Data Centre
#                                CCDC 
#
#######################################################################
#
# If this CIF has been generated from an entry in the Cambridge 
# Structural Database, then it will include bibliographic, chemical, 
# crystal, experimental, refinement or atomic coordinate data resulting 
# from the CCDC's data processing and validation procedures.
#
#######################################################################

data_PAMVEG
_chemical_formula_moiety         '(C16 H28 N4 O7 Zn1)n'
_symmetry_cell_setting           orthorhombic
_symmetry_space_group_name_H-M   'P 21 21 21'
_symmetry_Int_Tables_number      19
_space_group_name_Hall           'P 2ac 2ab'
loop_
_symmetry_equiv_pos_site_id
_symmetry_equiv_pos_as_xyz
1 x,y,z
2 1/2-x,-y,1/2+z
3 -x,1/2+y,1/2-z
4 1/2+x,1/2-y,-z
_cell_length_a                   6.5568(11)
_cell_length_b                   15.078(3)
_cell_length_c                   20.543(3)
_cell_angle_alpha                90
_cell_angle_beta                 90
_cell_angle_gamma                90
_cell_volume                     2030.95
loop_
_atom_site_label
_atom_site_type_symbol
_atom_site_fract_x
_atom_site_fract_y
_atom_site_fract_z
_atom_site_U_iso_or_equiv
_atom_site_thermal_displace_type
Zn1 Zn 0.14868(5) 0.51362(2) 0.187834(13) 0.0205 Uani
C1 C -0.1519(14) 0.6401(6) 0.2461(4) 0.0233 Uani
H1 H -0.2017 0.5968 0.2765 0.0280 Uiso
C2 C 0.0145(5) 0.7050(2) 0.17232(14) 0.0293 Uani
H2 H 0.1206 0.7186 0.1424 0.0350 Uiso
C3 C -0.1191(6) 0.7637(2) 0.19554(16) 0.0482 Uani
H3 H -0.1318 0.8273 0.1823 0.0580 Uiso
C4 C -0.3621(10) 0.7657(4) 0.2880(3) 0.0247 Uani
H4 H -0.3711 0.7334 0.3281 0.0300 Uiso
H5 H -0.3280 0.8261 0.2980 0.0300 Uiso
C5 C -0.5673(13) 0.7603(6) 0.2528(3) 0.0290 Uani
H6 H -0.6088 0.6998 0.2470 0.0350 Uiso
H7 H -0.5547 0.7871 0.2106 0.0350 Uiso
C6 C -0.8194(11) 0.8836(5) 0.2719(3) 0.0267 Uani
H8 H -0.8040 0.9121 0.2304 0.0320 Uiso
C7 C -0.7952(5) 0.7897(3) 0.35801(18) 0.0447 Uani
H9 H -0.7696 0.7339 0.3829 0.0530 Uiso
C8 C -0.9498(6) 0.8457(2) 0.36674(16) 0.0389 Uani
H10 H -1.0499 0.8403 0.3999 0.0470 Uiso
C9 C 1.2405(4) 0.50789(19) -0.18352(13) 0.0284 Uani
C10 C 1.0924(5) 0.5169(2) -0.12668(14) 0.0373 Uani
H11 H 0.9586 0.5364 -0.1439 0.0450 Uiso
H12 H 1.0731 0.4577 -0.1068 0.0450 Uiso
C11 C 1.1572(6) 0.5803(3) -0.07468(16) 0.0517 Uani
H13 H 1.1713 0.6402 -0.0939 0.0620 Uiso
H14 H 1.2927 0.5622 -0.0581 0.0620 Uiso
C12 C 1.0076(6) 0.5849(3) -0.01773(16) 0.0492 Uani
H15 H 0.9812 0.5239 -0.0020 0.0590 Uiso
H16 H 1.0722 0.6182 0.0183 0.0590 Uiso
C13 C 0.8051(5) 0.6283(2) -0.03403(15) 0.0362 Uani
H17 H 0.7361 0.5930 -0.0682 0.0440 Uiso
H18 H 0.8314 0.6882 -0.0520 0.0440 Uiso
C14 C 0.6617(5) 0.6370(2) 0.02487(14) 0.0326 Uani
H19 H 0.7307 0.6717 0.0593 0.0390 Uiso
H20 H 0.5378 0.6699 0.0116 0.0390 Uiso
C15 C 0.6000(5) 0.5477(2) 0.05210(14) 0.0339 Uani
H21 H 0.7216 0.5191 0.0714 0.0410 Uiso
H22 H 0.5523 0.5097 0.0159 0.0410 Uiso
C16 C 0.4345(5) 0.5523(2) 0.10303(15) 0.0331 Uani
N1 N -0.0220(4) 0.62314(17) 0.19728(13) 0.0286 Uani
N2 N -0.2038(9) 0.7264(4) 0.2464(3) 0.0207 Uani
N3 N -0.7228(8) 0.8100(4) 0.2911(3) 0.0210 Uani
N4 N -0.9450(4) 0.91217(16) 0.32140(13) 0.0275 Uani
O1 O 1.1604(3) 0.50479(15) -0.23945(9) 0.0335 Uani
O3 O 1.4264(3) 0.50628(15) -0.17460(9) 0.0328 Uani
O5 O 0.3227(3) 0.48367(17) 0.11029(9) 0.0383 Uani
O7 O 0.4094(4) 0.61795(19) 0.13658(11) 0.0497 Uani
Zn1B Zn -1.14868(5) 1.01362(2) 0.312166(13) 0.0205 Uani
Zn1A Zn 1.35132(5) 0.48638(2) -0.312166(13) 0.0205 Uani
N4B N -0.0550(4) 0.41217(16) 0.17860(13) 0.0275 Uani
O1A O 0.3396(3) 0.49521(15) 0.26055(9) 0.0335 Uani
O2 O 1.1696(3) 0.64442(15) 0.51189(9) 0.0354 Uani
H23 H 1.1216 0.6918 0.5283 0.0420 Uiso
H24 H 1.1816 0.6049 0.5412 0.0420 Uiso
O4 O 1.5309(3) 0.68588(16) 0.45519(11) 0.0396 Uani
H25 H 1.4326 0.6584 0.4730 0.0480 Uiso
H26 H 1.6252 0.6491 0.4465 0.0480 Uiso
O6 O 0.8842(4) 0.61031(17) 0.41359(11) 0.0423 Uani
H27 H 0.9402 0.5751 0.3867 0.0510 Uiso
H28 H 0.9689 0.6212 0.4439 0.0510 Uiso
loop_
_atom_site_aniso_label
_atom_site_aniso_U_11
_atom_site_aniso_U_22
_atom_site_aniso_U_33
_atom_site_aniso_U_23
_atom_site_aniso_U_13
_atom_site_aniso_U_12
Zn1 0.01904(17) 0.02017(17) 0.02227(16) -0.00157(12) 0.00218(13) 0.00168(12)
C1 0.025 0.021 0.024 0.002 0.007 -0.002
C2 0.0339 0.0275 0.0266 0.0038 0.004 0.0043
C3 0.073 0.0278 0.0438 0.0095 0.019 0.0198
C4 0.018 0.028 0.028 -0.004 -0.003 0.006
C5 0.019 0.039 0.029 -0.007 -0.004 0.012
C6 0.03 0.029 0.021 0.001 0.005 0.003
C7 0.031 0.048 0.055 0.022 0.0075 0.0096
C8 0.039 0.047 0.0308 0.0138 0.0091 0.0194
C9 0.0327 0.0239 0.0285 0.0052 0.0026 -0.0021
C10 0.0386 0.042 0.0314 0.0023 0.0092 -0.0111
C11 0.037 0.08 0.0382 -0.0132 0.0105 -0.007
C12 0.035 0.08 0.0327 -0.0107 0.0082 -0.0052
C13 0.041 0.039 0.0287 0.0015 0.0106 -0.0063
C14 0.0303 0.0347 0.0327 -0.004 0.0052 -0.0003
C15 0.036 0.0358 0.0298 -0.0033 0.0085 -0.0037
C16 0.025 0.046 0.0283 0.0014 -0.0015 -0.0014
N1 0.0276 0.0236 0.0346 0.0038 0.006 0.0083
N2 0.013 0.021 0.028 0 0 0.003
N3 0.012 0.029 0.022 0.002 -0.005 0.002
N4 0.0182 0.0244 0.04 0.0048 0.0082 0.0042
O1 0.0318 0.0423 0.0263 0.0006 0.0044 0.0072
O3 0.0369 0.0347 0.0268 0.0011 0.0013 0.0002
O5 0.0299 0.0564 0.0285 -0.0002 0.0055 -0.009
O7 0.0453 0.058 0.0458 -0.0141 0.021 0.0038
Zn1B 0.01904 0.02017 0.02227 0.00157 0.00218 -0.00168
Zn1A 0.01904 0.02017 0.02227 0.00157 -0.00218 0.00168
N4B 0.0182(13) 0.0244(14) 0.0400(15) -0.0048(12) 0.0082(12) -0.0042(10)
O1A 0.0318(11) 0.0423(14) 0.0263(10) -0.0006(9) -0.0044(9) 0.0072(14)
O2 0.0355(13) 0.0341(12) 0.0365(11) -0.0051(9) -0.0060(11) -0.0012(11)
O4 0.0264(13) 0.0401(14) 0.0523(13) -0.0002(11) 0.0035(11) -0.0003(10)
O6 0.0340(14) 0.0542(16) 0.0388(12) -0.0111(11) -0.0041(11) 0.0039(12)
loop_
_geom_bond_atom_site_label_1
_geom_bond_atom_site_label_2
_geom_bond_site_symmetry_1
_geom_bond_site_symmetry_2
Zn1 N1 1_555 1_555
C1 H1 1_555 1_555
C2 H2 1_555 1_555
C3 C2 1_555 1_555
H3 C3 1_555 1_555
C4 H4 1_555 1_555
H5 C4 1_555 1_555
C5 C4 1_555 1_555
H6 C5 1_555 1_555
H7 C5 1_555 1_555
C6 H8 1_555 1_555
C7 H9 1_555 1_555
C8 C7 1_555 1_555
H10 C8 1_555 1_555
C9 C10 1_555 1_555
C10 H11 1_555 1_555
H12 C10 1_555 1_555
C11 C10 1_555 1_555
H13 C11 1_555 1_555
H14 C11 1_555 1_555
C12 C11 1_555 1_555
H15 C12 1_555 1_555
H16 C12 1_555 1_555
C13 C12 1_555 1_555
H17 C13 1_555 1_555
H18 C13 1_555 1_555
C14 C13 1_555 1_555
H19 C14 1_555 1_555
H20 C14 1_555 1_555
C15 C14 1_555 1_555
H21 C15 1_555 1_555
H22 C15 1_555 1_555
C16 C15 1_555 1_555
N1 C1 1_555 1_555
N2 C1 1_555 1_555
N3 C5 1_555 1_555
N4 C6 1_555 1_555
O1 C9 1_555 1_555
O2 H23 1_555 1_555
H24 O2 1_555 1_555
O3 C9 1_555 1_555
O4 H25 1_555 1_555
H26 O4 1_555 1_555
O5 Zn1 1_555 1_555
O6 H27 1_555 1_555
H28 O6 1_555 1_555
O7 C16 1_555 1_555
Zn1B N4 1_555 1_555
Zn1A O1 1_555 1_555
N4B Zn1 1_555 1_555
O1A Zn1 1_555 1_555
C2 N1 1_555 1_555
C3 N2 1_555 1_555
C4 N2 1_555 1_555
C6 N3 1_555 1_555
C7 N3 1_555 1_555
C8 N4 1_555 1_555
C16 O5 1_555 1_555

#END
