
#######################################################################
#
#                 Cambridge Crystallographic Data Centre
#                                CCDC 
#
#######################################################################
#
# If this CIF has been generated from an entry in the Cambridge 
# Structural Database, then it will include bibliographic, chemical, 
# crystal, experimental, refinement or atomic coordinate data resulting 
# from the CCDC's data processing and validation procedures.
#
#######################################################################

data_NIJSAC
_chemical_formula_moiety         '(C16 H17 Cu1 N7 O10)n'
_symmetry_cell_setting           orthorhombic
_symmetry_space_group_name_H-M   'P 21 21 21'
_symmetry_Int_Tables_number      19
_space_group_name_Hall           'P 2ac 2ab'
loop_
_symmetry_equiv_pos_site_id
_symmetry_equiv_pos_as_xyz
1 x,y,z
2 1/2-x,-y,1/2+z
3 -x,1/2+y,1/2-z
4 1/2+x,1/2-y,-z
_cell_length_a                   5.7467(5)
_cell_length_b                   17.9631(16)
_cell_length_c                   20.3944(19)
_cell_angle_alpha                90
_cell_angle_beta                 90
_cell_angle_gamma                90
_cell_volume                     2105.28
loop_
_atom_site_label
_atom_site_type_symbol
_atom_site_fract_x
_atom_site_fract_y
_atom_site_fract_z
_atom_site_U_iso_or_equiv
_atom_site_thermal_displace_type
Cu1 Cu 0.64423(4) 0.996168(12) 0.791511(9) 0.0260 Uani
O1 O 0.5416(2) 1.04654(7) 0.71096(6) 0.0290 Uani
O2 O 0.8013(2) 0.96765(7) 0.67106(6) 0.0406 Uani
O3 O 0.8242(2) 0.89712(7) 0.53668(7) 0.0366 Uani
O4 O 1.1125(2) 0.97677(8) 0.55613(7) 0.0444 Uani
H1 H 1.1898 0.9384 0.5575 0.0670 Uiso
O5 O 0.9572(3) 0.98612(9) 0.42067(7) 0.0630 Uani
O6 O 0.7222(2) 1.05970(7) 0.36453(6) 0.0347 Uani
O7 O 0.1239(3) 1.20241(9) 0.47180(7) 0.0513 Uani
O8 O 0.1280(3) 1.21599(9) 0.57640(7) 0.0685 Uani
N1 N 0.2027(3) 1.18854(10) 0.52616(8) 0.0379 Uani
N2 N 0.3892(3) 0.92110(8) 0.78148(7) 0.0282 Uani
N3 N 0.1565(3) 0.84509(8) 0.73080(7) 0.0278 Uani
N4 N 0.2203(3) 0.80861(9) 0.78665(8) 0.0368 Uani
N5 N -0.1437(3) 0.65906(8) 0.72423(7) 0.0313 Uani
N6 N -0.2420(3) 0.62383(10) 0.67207(8) 0.0391 Uani
N7 N 0.0929(3) 0.56893(9) 0.70135(7) 0.0322 Uani
C1 C 0.6161(3) 1.05116(9) 0.59707(8) 0.0230 Uani
C2 C 0.7333(3) 1.02623(10) 0.54076(8) 0.0261 Uani
C3 C 0.6788(3) 1.05796(10) 0.47982(8) 0.0266 Uani
C4 C 0.5086(3) 1.11230(10) 0.47500(9) 0.0290 Uani
H2 H 0.4720 1.1332 0.4346 0.0350 Uiso
C5 C 0.3948(3) 1.13472(10) 0.53067(9) 0.0273 Uani
C6 C 0.4474(3) 1.10643(10) 0.59151(9) 0.0274 Uani
H3 H 0.3710 1.1240 0.6286 0.0330 Uiso
C7 C 0.6606(3) 1.01853(9) 0.66372(8) 0.0251 Uani
C8 C 0.8954(3) 0.96024(11) 0.54442(8) 0.0281 Uani
C9 C 0.8004(4) 1.03224(11) 0.41797(9) 0.0340 Uani
C10 C 0.3579(4) 0.85670(11) 0.81526(9) 0.0361 Uani
H4 H 0.4286 0.8475 0.8555 0.0430 Uiso
C11 C 0.2571(3) 0.91079(11) 0.72854(9) 0.0281 Uani
H5 H 0.2387 0.9451 0.6948 0.0340 Uiso
C12 C 0.0128(4) 0.80910(11) 0.68064(9) 0.0326 Uani
H6 H 0.0885 0.7634 0.6669 0.0390 Uiso
H7 H 0.0035 0.8416 0.6427 0.0390 Uiso
C13 C -0.2321(3) 0.79088(11) 0.70339(11) 0.0376 Uani
H8 H -0.2978 0.8348 0.7239 0.0450 Uiso
H9 H -0.3263 0.7795 0.6652 0.0450 Uiso
C14 C -0.2503(4) 0.72641(11) 0.75121(10) 0.0366 Uani
H10 H -0.1732 0.7396 0.7919 0.0440 Uiso
H11 H -0.4128 0.7168 0.7609 0.0440 Uiso
C15 C 0.0516(4) 0.62648(11) 0.74079(10) 0.0328 Uani
H12 H 0.1474 0.6414 0.7751 0.0390 Uiso
C16 C -0.0942(4) 0.57026(11) 0.66010(10) 0.0375 Uani
H13 H -0.1146 0.5360 0.6264 0.0450 Uiso
Cu1A Cu 0.85577(4) 1.003832(12) 0.291511(9) 0.0260 Uani
Cu1B Cu 0.35577(4) 0.496168(12) 0.708489(9) 0.0260 Uani
O5A O 0.5428(3) 1.01388(9) 0.92067(7) 0.0630 Uani
O6A O 0.7778(2) 0.94030(7) 0.86453(6) 0.0347 Uani
N7B N 0.9071(3) 1.06893(9) 0.79865(7) 0.0322 Uani
O9 O 0.3785(3) 0.86046(10) 0.56338(11) 0.0847 Uani
H14 H 0.5192 0.8697 0.5535 0.1270 Uiso
H15 H 0.3614 0.8138 0.5583 0.1270 Uiso
O10 O 0.8886(4) 0.80231(10) 0.41919(11) 0.0996 Uani
H16 H 0.8907 0.8350 0.4493 0.1490 Uiso
H17 H 0.9501 0.8217 0.3854 0.1490 Uiso
loop_
_atom_site_aniso_label
_atom_site_aniso_U_11
_atom_site_aniso_U_22
_atom_site_aniso_U_33
_atom_site_aniso_U_23
_atom_site_aniso_U_13
_atom_site_aniso_U_12
Cu1 0.03190(10) 0.02839(11) 0.01762(9) 0.00103(10) -0.00404(8) -0.00033(11)
O1 0.0342(6) 0.0339(7) 0.0188(6) 0.0002(6) -0.0002(6) 0.0015(6)
O2 0.0509(8) 0.0412(8) 0.0296(7) 0.0028(6) -0.0019(6) 0.0190(7)
O3 0.0338(7) 0.0291(7) 0.0469(8) -0.0050(6) 0.0051(7) 0.0024(7)
O4 0.0249(7) 0.0464(9) 0.0620(9) -0.0009(7) -0.0034(7) -0.0009(6)
O5 0.0751(10) 0.0779(11) 0.0360(8) 0.0079(8) 0.0200(7) 0.0437(10)
O6 0.0447(8) 0.0384(8) 0.0210(6) -0.0023(6) 0.0070(6) -0.0004(7)
O7 0.0595(9) 0.0587(9) 0.0358(7) 0.0042(7) -0.0097(8) 0.0267(9)
O8 0.0872(12) 0.0804(11) 0.0380(8) -0.0006(8) 0.0100(9) 0.0543(10)
N1 0.0454(10) 0.0376(10) 0.0307(9) 0.0023(8) 0.0029(8) 0.0103(8)
N2 0.0304(8) 0.0300(8) 0.0241(7) 0.0004(6) -0.0014(7) 0.0003(7)
N3 0.0302(8) 0.0279(8) 0.0254(7) 0.0032(6) -0.0024(7) -0.0010(8)
N4 0.0433(10) 0.0361(9) 0.0310(8) 0.0106(8) -0.0043(8) -0.0047(8)
N5 0.0301(8) 0.0276(8) 0.0363(9) 0.0014(6) -0.0044(8) -0.0024(8)
N6 0.0358(9) 0.0389(10) 0.0425(10) -0.0004(8) -0.0099(8) -0.0004(8)
N7 0.0378(9) 0.0302(8) 0.0287(8) 0.0013(7) -0.0070(7) 0.0014(7)
C1 0.0266(9) 0.0218(9) 0.0207(8) 0.0001(7) -0.0001(8) -0.0002(8)
C2 0.0270(9) 0.0272(11) 0.0240(9) 0.0009(7) 0.0017(8) -0.0046(8)
C3 0.0284(10) 0.0282(10) 0.0232(8) -0.0006(7) 0.0054(8) -0.0025(8)
C4 0.0372(10) 0.0306(11) 0.0191(9) 0.0031(8) -0.0005(8) -0.0008(9)
C5 0.0340(11) 0.0253(10) 0.0227(8) 0.0003(7) 0.0021(8) 0.0043(8)
C6 0.0369(10) 0.0275(10) 0.0177(8) -0.0028(8) 0.0046(8) 0.0017(8)
C7 0.0295(9) 0.0245(10) 0.0212(8) 0.0003(7) -0.0027(8) -0.0019(8)
C8 0.0261(10) 0.0361(11) 0.0221(9) 0.0017(8) 0.0065(8) 0.0015(9)
C9 0.0415(12) 0.0354(11) 0.0250(9) -0.0013(8) 0.0098(8) -0.0026(9)
C10 0.0376(11) 0.0433(12) 0.0273(9) 0.0075(8) -0.0041(9) -0.0053(10)
C11 0.0274(9) 0.0275(10) 0.0295(10) 0.0048(8) -0.0026(8) 0.0009(8)
C12 0.0398(11) 0.0287(11) 0.0293(10) 0.0003(8) -0.0034(9) 0.0009(9)
C13 0.0323(10) 0.0267(11) 0.0539(13) 0.0005(10) -0.0089(10) 0.0014(8)
C14 0.0317(10) 0.0324(11) 0.0456(12) -0.0045(9) 0.0047(10) 0.0017(9)
C15 0.0376(10) 0.0251(10) 0.0357(10) 0.0016(9) -0.0080(9) 0.0003(9)
C16 0.0390(12) 0.0385(12) 0.0350(10) -0.0029(9) -0.0088(9) -0.0008(10)
Cu1A 0.0319 0.02839 0.01762 -0.00103 0.00404 -0.00033
Cu1B 0.0319 0.02839 0.01762 -0.00103 -0.00404 0.00033
O5A 0.0751 0.0779 0.036 -0.0079 -0.02 0.0437
O6A 0.0447 0.0384 0.021 0.0023 -0.007 -0.0004
N7B 0.0378 0.0302 0.0287 -0.0013 -0.007 -0.0014
O9 0.0334(9) 0.0648(11) 0.156(2) 0.0158(12) 0.0150(12) 0.0072(10)
O10 0.1285(18) 0.0671(12) 0.1031(15) -0.0294(11) 0.0471(14) -0.0210(14)
loop_
_geom_bond_atom_site_label_1
_geom_bond_atom_site_label_2
_geom_bond_site_symmetry_1
_geom_bond_site_symmetry_2
Cu1 O1 1_555 1_555
O1 C7 1_555 1_555
O2 Cu1 1_555 1_555
O3 C8 1_555 1_555
O4 H1 1_555 1_555
O5 C9 1_555 1_555
O6 C9 1_555 1_555
O7 N1 1_555 1_555
O8 N1 1_555 1_555
N1 C5 1_555 1_555
N2 Cu1 1_555 1_555
N3 N4 1_555 1_555
N4 C10 1_555 1_555
N5 N6 1_555 1_555
N6 C16 1_555 1_555
N7 C15 1_555 1_555
C1 C2 1_555 1_555
C2 C3 1_555 1_555
C3 C4 1_555 1_555
C4 H2 1_555 1_555
C5 C4 1_555 1_555
C6 C1 1_555 1_555
H3 C6 1_555 1_555
C7 O2 1_555 1_555
C8 O4 1_555 1_555
C9 C3 1_555 1_555
C10 N2 1_555 1_555
H4 C10 1_555 1_555
C11 N2 1_555 1_555
H5 C11 1_555 1_555
C12 N3 1_555 1_555
H6 C12 1_555 1_555
H7 C12 1_555 1_555
C13 C12 1_555 1_555
H8 C13 1_555 1_555
H9 C13 1_555 1_555
C14 N5 1_555 1_555
H10 C14 1_555 1_555
H11 C14 1_555 1_555
C15 N5 1_555 1_555
H12 C15 1_555 1_555
C16 N7 1_555 1_555
H13 C16 1_555 1_555
O9 H14 1_555 1_555
H15 O9 1_555 1_555
O10 H16 1_555 1_555
H17 O10 1_555 1_555
Cu1A O5 1_555 1_555
Cu1B N7 1_555 1_555
O5A Cu1 1_555 1_555
O6A Cu1 1_555 1_555
N7B Cu1 1_555 1_555
O6 Cu1A 1_555 1_555
N3 C11 1_555 1_555
C1 C7 1_555 1_555
C2 C8 1_555 1_555
C5 C6 1_555 1_555
C13 C14 1_555 1_555

#END
