
#######################################################################
#
#                 Cambridge Crystallographic Data Centre
#                                CCDC 
#
#######################################################################
#
# If this CIF has been generated from an entry in the Cambridge 
# Structural Database, then it will include bibliographic, chemical, 
# crystal, experimental, refinement or atomic coordinate data resulting 
# from the CCDC's data processing and validation procedures.
#
#######################################################################

data_FASVIH
_chemical_formula_moiety         '(C14 H18 Cu2 N2 O8)n'
_symmetry_cell_setting           monoclinic
_symmetry_space_group_name_H-M   'P 21/n'
_symmetry_Int_Tables_number      14
_space_group_name_Hall           '-P 2yn'
loop_
_symmetry_equiv_pos_site_id
_symmetry_equiv_pos_as_xyz
1 x,y,z
2 1/2-x,1/2+y,1/2-z
3 -x,-y,-z
4 1/2+x,1/2-y,1/2+z
_cell_length_a                   7.4054(15)
_cell_length_b                   18.811(4)
_cell_length_c                   12.006(2)
_cell_angle_alpha                90
_cell_angle_beta                 97.06(3)
_cell_angle_gamma                90
_cell_volume                     1659.79
loop_
_atom_site_label
_atom_site_type_symbol
_atom_site_fract_x
_atom_site_fract_y
_atom_site_fract_z
C1 C 0.0314(7) 0.1764(3) 0.3261(4)
C2 C -0.0403(6) 0.2389(3) 0.2569(4)
C3 C -0.2227(7) 0.2572(3) 0.2526(5)
H1 H -0.2980 0.2315 0.2943
C4 C -0.2918(7) 0.3122(3) 0.1882(4)
H2 H -0.4147 0.3230 0.1861
C5 C -0.1836(6) 0.3537(3) 0.1240(4)
C6 C 0.0000(6) 0.3354(2) 0.1269(4)
C7 C 0.0693(7) 0.2778(3) 0.1950(4)
H3 H 0.1918 0.2660 0.1980
C8 C 0.1243(6) 0.3748(3) 0.0614(4)
C9 C 0.4952(8) 0.0540(3) 0.2451(5)
C10 C 0.4939(12) -0.0573(4) 0.1155(7)
Cu1 Cu -0.06239(6) 0.07552(2) 0.49378(4)
Cu2 Cu 0.31740(6) 0.05901(3) 0.43150(4)
N1 N 0.5663(15) 0.0273(6) 0.1562(9)
O1 O -0.0889(4) 0.14550(16) 0.3769(3)
O2 O 0.1951(4) 0.15894(17) 0.3310(3)
O3 O 0.2949(3) 0.36657(14) 0.0877(2)
O4 O 0.0665(4) 0.41676(15) -0.0183(3)
O5 O -0.0803(3) -0.00840(14) 0.5898(2)
O6 O -0.2631(4) 0.40738(16) 0.0667(2)
O7 O 0.3919(4) 0.01729(18) 0.2952(3)
C11 C 0.6818(9) 0.0706(4) 0.0831(6)
Cu1B Cu 0.06239(6) -0.07552(2) 0.50622(4)
Cu1C Cu -0.56239(6) 0.42448(2) -0.00622(4)
Cu1C_2 Cu 0.43761(6) 0.42448(2) -0.00622(4)
Cu2B Cu -0.31740(6) -0.05901(3) 0.56850(4)
Cu2C Cu -0.18260(6) 0.44099(3) -0.06850(4)
O3C O -0.2051(3) 0.13343(14) 0.5877(2)
O4C O -0.4335(4) 0.08324(15) 0.4817(3)
O4C_2 O 0.5665(4) 0.08324(15) 0.4817(3)
O5B O 0.0803(3) 0.00840(14) 0.4102(2)
O6C O 0.2369(4) 0.09262(16) 0.5667(2)
C12 C 0.4223(9) 0.4214(3) 0.3396(5)
H4 H 0.3126 0.4115 0.2961
C13 C 0.6307(10) 0.3957(4) 0.5070(6)
H5 H 0.6293 0.4464 0.5153
H6 H 0.7420 0.3814 0.4800
H7 H 0.6223 0.3737 0.5783
C14 C 0.3876(10) 0.3120(4) 0.4516(6)
H8 H 0.2721 0.3110 0.4055
H9 H 0.3686 0.3110 0.5293
H10 H 0.4580 0.2713 0.4351
N2 N 0.4814(11) 0.3744(4) 0.4295(6)
O8 O 0.5032(10) 0.4719(4) 0.3171(6)
loop_
_geom_bond_atom_site_label_1
_geom_bond_atom_site_label_2
_geom_bond_site_symmetry_1
_geom_bond_site_symmetry_2
C1 C2 1_555 1_555
C2 C3 1_555 1_555
C3 H1 1_555 1_555
C4 C3 1_555 1_555
H2 C4 1_555 1_555
C5 C4 1_555 1_555
C6 C5 1_555 1_555
C7 C2 1_555 1_555
H3 C7 1_555 1_555
C8 C6 1_555 1_555
C9 N1 1_555 1_555
C10 N1 1_555 1_555
Cu1 O1 1_555 1_555
Cu2 O2 1_555 1_555
N1 C11 1_555 1_555
O1 C1 1_555 1_555
O2 C1 1_555 1_555
O3 C8 1_555 1_555
O4 C8 1_555 1_555
O5 Cu1 1_555 1_555
O6 C5 1_555 1_555
O7 C9 1_555 1_555
C12 H4 1_555 1_555
C13 H5 1_555 1_555
H6 C13 1_555 1_555
H7 C13 1_555 1_555
C14 H8 1_555 1_555
H9 C14 1_555 1_555
H10 C14 1_555 1_555
N2 C12 1_555 1_555
O8 C12 1_555 1_555
Cu1B O5 1_555 1_555
Cu1C O6 1_555 1_555
Cu1C_2 O3 1_555 1_555
Cu2B O5 1_555 1_555
Cu2C O4 1_555 1_555
O3C Cu1 1_555 1_555
O4C Cu1 1_555 1_555
O4C_2 Cu2 1_555 1_555
O5B Cu1 1_555 1_555
O6C Cu1 1_555 1_555
C6 C7 1_555 1_555
Cu2 O7 1_555 1_555
Cu2 O5B 1_555 1_555
Cu2 O6C 1_555 1_555
O4 Cu1C_2 1_555 1_555
O6 Cu2C 1_555 1_555
C13 N2 1_555 1_555
C14 N2 1_555 1_555
Cu1B O5B 1_555 1_555

#END
