
#######################################################################
#
#                 Cambridge Crystallographic Data Centre
#                                CCDC 
#
#######################################################################
#
# If this CIF has been generated from an entry in the Cambridge 
# Structural Database, then it will include bibliographic, chemical, 
# crystal, experimental, refinement or atomic coordinate data resulting 
# from the CCDC's data processing and validation procedures.
#
#######################################################################

data_ELIJOZ
_chemical_formula_moiety         '(C15 H13 Ce1 O10)n'
_symmetry_cell_setting           triclinic
_symmetry_space_group_name_H-M   'P -1'
_symmetry_Int_Tables_number      2
_space_group_name_Hall           '-P 1'
loop_
_symmetry_equiv_pos_site_id
_symmetry_equiv_pos_as_xyz
1 x,y,z
2 -x,-y,-z
_cell_length_a                   9.4230(8)
_cell_length_b                   9.9470(8)
_cell_length_c                   11.4190(10)
_cell_angle_alpha                93.6330(10)
_cell_angle_beta                 98.0920(10)
_cell_angle_gamma                110.6490(10)
_cell_volume                     984.175
loop_
_atom_site_label
_atom_site_type_symbol
_atom_site_fract_x
_atom_site_fract_y
_atom_site_fract_z
C1 C 0.4207(6) 0.7740(5) 0.1036(4)
C2 C 0.2782(6) 0.6573(5) 0.1246(4)
C3 C 0.2468(6) 0.5153(5) 0.0769(4)
H1 H 0.3168 0.4935 0.0368
C4 C 0.1118(6) 0.4074(5) 0.0892(4)
C5 C 0.0101(6) 0.4370(5) 0.1552(4)
H2 H -0.0810 0.3643 0.1637
C6 C 0.0484(6) 0.5776(5) 0.2075(4)
C7 C 0.1779(6) 0.6898(5) 0.1889(4)
H3 H 0.1970 0.7849 0.2189
C8 C 0.0747(6) 0.2557(5) 0.0317(4)
C9 C 0.1280(7) 0.6592(7) 0.4587(5)
H4 H 0.1734 0.5974 0.4304
C10 C 0.1813(7) 0.7333(7) 0.5705(5)
H5 H 0.2639 0.7215 0.6176
C11 C 0.1158(6) 0.8258(6) 0.6159(5)
C12 C -0.0123(8) 0.8371(7) 0.5437(5)
H6 H -0.0609 0.8955 0.5730
C13 C -0.0675(8) 0.7637(7) 0.4303(6)
H7 H -0.1522 0.7726 0.3836
C14 C 0.0043(6) 0.6774(6) 0.3873(5)
C15 C 0.1754(6) 0.9098(6) 0.7344(5)
Ce1 Ce 0.71581(3) 0.95408(2) 0.01521(2)
O1 O 0.5438(4) 0.7489(4) 0.1126(4)
O2 O 0.4152(4) 0.8925(4) 0.0751(3)
O3 O 0.5088(5) 0.7806(4) -0.1497(4)
O4 O 0.1777(5) 0.2310(4) -0.0135(4)
O5 O 0.8126(5) 0.9582(5) -0.1868(4)
O6 O -0.0555(5) 0.1638(4) 0.0317(4)
O7 O 0.2860(5) 0.8897(5) 0.8003(4)
O8 O 0.1208(5) 1.0000(4) 0.7716(3)
O9 O -0.0545(4) 0.6050(4) 0.2736(3)
Ce1A Ce 0.28419(3) 1.04592(2) -0.01521(2)
Ce1A_2 Ce 0.28419(3) 0.04592(2) -0.01521(2)
Ce1_2 Ce -0.28419(3) -0.04592(2) 0.01521(2)
Ce1A_3 Ce 0.28419(3) 1.04592(2) 0.98479(2)
O2A O 0.5848(4) 1.1075(4) -0.0751(3)
O4A O 0.8223(5) 0.7690(4) 0.0135(4)
O6_2 O 0.9445(5) 1.1638(4) 0.0317(4)
O7A O 0.7140(5) 1.1103(5) 0.1997(4)
O8A O 0.8792(5) 1.0000(4) 0.2284(3)
O10 O 0.6135(5) 0.5208(5) 0.2013(5)
loop_
_geom_bond_atom_site_label_1
_geom_bond_atom_site_label_2
_geom_bond_site_symmetry_1
_geom_bond_site_symmetry_2
C1 C2 1_555 1_555
C2 C3 1_555 1_555
C3 H1 1_555 1_555
C4 C3 1_555 1_555
C5 C4 1_555 1_555
H2 C5 1_555 1_555
C6 C5 1_555 1_555
C7 C2 1_555 1_555
H3 C7 1_555 1_555
C8 C4 1_555 1_555
C9 H4 1_555 1_555
C10 C9 1_555 1_555
H5 C10 1_555 1_555
C11 C10 1_555 1_555
C12 C11 1_555 1_555
H6 C12 1_555 1_555
C13 C12 1_555 1_555
H7 C13 1_555 1_555
C14 C9 1_555 1_555
C15 C11 1_555 1_555
Ce1 O1 1_555 1_555
O1 C1 1_555 1_555
O2 C1 1_555 1_555
O3 Ce1 1_555 1_555
O4 C8 1_555 1_555
O5 Ce1 1_555 1_555
O6 C8 1_555 1_555
O7 C15 1_555 1_555
O8 C15 1_555 1_555
O9 C6 1_555 1_555
Ce1A O2 1_555 1_555
Ce1A_2 O4 1_555 1_555
Ce1_2 O6 1_555 1_555
Ce1A_3 O7 1_555 1_555
O2A Ce1 1_555 1_555
O4A Ce1 1_555 1_555
O6_2 Ce1 1_555 1_555
O7A Ce1 1_555 1_555
O8A Ce1 1_555 1_555
C6 C7 1_555 1_555
C13 C14 1_555 1_555
C14 O9 1_555 1_555
Ce1 O2 1_555 1_555
O8 Ce1A_3 1_555 1_555
Ce1A O2A 1_555 1_555

#END
