
#######################################################################
#
#                 Cambridge Crystallographic Data Centre
#                                CCDC 
#
#######################################################################
#
# If this CIF has been generated from an entry in the Cambridge 
# Structural Database, then it will include bibliographic, chemical, 
# crystal, experimental, refinement or atomic coordinate data resulting 
# from the CCDC's data processing and validation procedures.
#
#######################################################################

data_ELIKAM
_chemical_formula_moiety         '(C15 H13 O10 Pr1)n'
_symmetry_cell_setting           triclinic
_symmetry_space_group_name_H-M   'P -1'
_symmetry_Int_Tables_number      2
_space_group_name_Hall           '-P 1'
loop_
_symmetry_equiv_pos_site_id
_symmetry_equiv_pos_as_xyz
1 x,y,z
2 -x,-y,-z
_cell_length_a                   9.3980(19)
_cell_length_b                   9.911(2)
_cell_length_c                   11.422(2)
_cell_angle_alpha                93.965(3)
_cell_angle_beta                 98.131(3)
_cell_angle_gamma                110.782(2)
_cell_volume                     976.449
loop_
_atom_site_label
_atom_site_type_symbol
_atom_site_fract_x
_atom_site_fract_y
_atom_site_fract_z
C1 C 0.8234(9) 0.5895(8) 0.7635(6)
C2 C 0.8835(9) 0.6735(8) 0.8834(7)
C3 C 1.0113(11) 0.6610(10) 0.9554(7)
H1 H 1.0598 0.6022 0.9260
C4 C 1.0659(11) 0.7356(11) 1.0702(8)
H2 H 1.1502 0.7263 1.1175
C5 C 0.9955(9) 0.8222(9) 1.1130(7)
C6 C 0.8741(10) 0.8408(10) 1.0408(7)
H3 H 0.8299 0.9043 1.0686
C7 C 0.8198(10) 0.7662(10) 0.9294(7)
H4 H 0.7367 0.7781 0.8827
C8 C 0.9512(8) 0.9214(8) 1.2938(6)
C9 C 0.9886(8) 1.0613(8) 1.3451(6)
H5 H 1.0803 1.1339 1.3363
C10 C 0.8885(8) 1.0936(7) 1.4102(6)
C11 C 0.9246(8) 1.2446(7) 1.4671(6)
C12 C 0.7514(8) 0.9832(7) 1.4224(6)
H6 H 0.6806 1.0049 1.4618
C13 C 0.7216(8) 0.8425(7) 1.3759(6)
C14 C 0.8213(8) 0.8092(8) 1.3115(6)
H7 H 0.8014 0.7136 1.2809
C15 C 0.5797(8) 0.7254(7) 1.3976(6)
O1 O 0.7151(6) 0.6106(6) 0.6977(5)
O2 O 0.8776(7) 0.4997(6) 0.7263(5)
O3 O 0.5087(6) 0.2805(6) 0.3500(5)
O4 O 1.0552(6) 1.3378(6) 1.4684(5)
O5 O 0.8118(7) 0.4575(7) 0.3149(5)
O6 O 0.8213(6) 1.2698(6) 1.5120(5)
O7 O 0.5853(6) 0.6059(5) 1.4256(5)
O8 O 0.4538(6) 0.7482(6) 1.3887(5)
O9 O 1.0556(6) 0.8938(6) 1.2271(5)
Pr1 Pr 0.71572(4) 0.45440(4) 0.51488(3)
O4A O 0.9448(6) 0.6622(6) 0.5316(5)
O6_2 O 0.8213(6) 0.2698(6) 0.5120(5)
O7_2 O 0.5853(6) 0.6059(5) 0.4256(5)
O7A O 0.4147(6) 0.3941(5) 0.5744(5)
O8A O 0.5462(6) 0.2518(6) 0.6113(5)
Pr1A Pr 1.28428(4) 1.54560(4) 1.48512(3)
Pr1_2 Pr 0.71572(4) 1.45440(4) 1.51488(3)
Pr1_3 Pr 0.71572(4) 0.45440(4) 1.51488(3)
Pr1A_2 Pr 0.28428(4) 0.54560(4) 1.48512(3)
O10 O 0.6137(7) 0.0223(7) 0.7018(7)
loop_
_geom_bond_atom_site_label_1
_geom_bond_atom_site_label_2
_geom_bond_site_symmetry_1
_geom_bond_site_symmetry_2
C1 C2 1_555 1_555
C2 C3 1_555 1_555
C3 H1 1_555 1_555
C4 C3 1_555 1_555
H2 C4 1_555 1_555
C5 C4 1_555 1_555
C6 C5 1_555 1_555
H3 C6 1_555 1_555
C7 C2 1_555 1_555
H4 C7 1_555 1_555
C8 C9 1_555 1_555
C9 H5 1_555 1_555
C10 C9 1_555 1_555
C11 C10 1_555 1_555
C12 C10 1_555 1_555
H6 C12 1_555 1_555
C13 C12 1_555 1_555
C14 C8 1_555 1_555
H7 C14 1_555 1_555
C15 C13 1_555 1_555
O1 C1 1_555 1_555
O2 C1 1_555 1_555
O3 Pr1 1_555 1_555
O4 C11 1_555 1_555
O5 Pr1 1_555 1_555
O6 C11 1_555 1_555
O7 C15 1_555 1_555
O8 C15 1_555 1_555
O9 C5 1_555 1_555
Pr1 O1 1_555 1_555
O4A Pr1 1_555 1_555
O6_2 Pr1 1_555 1_555
O7_2 Pr1 1_555 1_555
O7A Pr1 1_555 1_555
O8A Pr1 1_555 1_555
Pr1A O4 1_555 1_555
Pr1_2 O6 1_555 1_555
Pr1_3 O7 1_555 1_555
Pr1A_2 O7 1_555 1_555
C6 C7 1_555 1_555
C8 O9 1_555 1_555
C13 C14 1_555 1_555
O2 Pr1 1_555 1_555
O8 Pr1A_2 1_555 1_555

#END
