
#######################################################################
#
#                 Cambridge Crystallographic Data Centre
#                                CCDC 
#
#######################################################################
#
# If this CIF has been generated from an entry in the Cambridge 
# Structural Database, then it will include bibliographic, chemical, 
# crystal, experimental, refinement or atomic coordinate data resulting 
# from the CCDC's data processing and validation procedures.
#
#######################################################################

data_ELIKUG
_chemical_formula_moiety         '(C15 H13 Gd1 O10)n'
_symmetry_cell_setting           triclinic
_symmetry_space_group_name_H-M   'P -1'
_symmetry_Int_Tables_number      2
_space_group_name_Hall           '-P 1'
loop_
_symmetry_equiv_pos_site_id
_symmetry_equiv_pos_as_xyz
1 x,y,z
2 -x,-y,-z
_cell_length_a                   9.3310(9)
_cell_length_b                   9.8410(9)
_cell_length_c                   11.4230(11)
_cell_angle_alpha                94.2240(10)
_cell_angle_beta                 98.5100(10)
_cell_angle_gamma                110.9520(10)
_cell_volume                     959.652
loop_
_atom_site_label
_atom_site_type_symbol
_atom_site_fract_x
_atom_site_fract_y
_atom_site_fract_z
C1 C 0.0764(7) -0.2475(7) 0.0333(6)
C2 C 0.1115(7) -0.0937(7) 0.0895(6)
C3 C 0.2473(7) 0.0184(7) 0.0778(6)
H1 H 0.3186 -0.0023 0.0378
C4 C 0.2773(7) 0.1618(7) 0.1256(6)
C5 C 0.1758(8) 0.1914(7) 0.1901(6)
H2 H 0.1950 0.2876 0.2211
C6 C 0.0460(8) 0.0785(7) 0.2087(6)
C7 C 0.0103(8) -0.0642(7) 0.1550(6)
H3 H -0.0811 -0.1393 0.1632
C8 C 0.4191(7) 0.2829(7) 0.1031(6)
C9 C 0.0029(8) 0.1782(8) 0.3887(6)
C10 C 0.1298(9) 0.1623(9) 0.4608(7)
H4 H 0.1765 0.1009 0.4318
C11 C 0.1839(9) 0.2366(9) 0.5727(7)
H5 H 0.2697 0.2269 0.6189
C12 C 0.1157(8) 0.3274(8) 0.6215(7)
C13 C -0.0139(9) 0.3393(9) 0.5484(7)
H6 H -0.0630 0.3978 0.5783
C14 C -0.0702(9) 0.2650(9) 0.4319(7)
H7 H -0.1555 0.2742 0.3846
C15 C 0.1765(7) 0.4131(7) 0.7408(6)
Gd1 Gd -0.28115(3) -0.54561(3) 0.01460(3)
O1 O -0.0542(6) -0.3423(5) 0.0319(5)
O2 O 0.1820(5) -0.2708(5) -0.0113(5)
O3 O -0.1893(6) -0.5433(6) -0.1808(5)
O4 O 0.5471(5) 0.2638(5) 0.1100(5)
O5 O -0.4880(6) -0.7173(6) -0.1440(5)
O6 O 0.4063(5) 0.3999(5) 0.0740(4)
O8 O 0.2846(6) 0.3904(5) 0.8084(4)
O9 O 0.1233(6) 0.5056(5) 0.7783(4)
O10 O -0.0573(5) 0.1050(5) 0.2743(4)
Gd1A Gd 0.28115(3) -0.45439(3) -0.01460(3)
Gd1_2 Gd 0.71885(3) 0.45439(3) 0.01460(3)
Gd1A_2 Gd 0.28115(3) 0.54561(3) -0.01460(3)
Gd1A_3 Gd 0.28115(3) 0.54561(3) 0.98540(3)
O2A O -0.1820(5) -0.7292(5) 0.0113(5)
O4_2 O -0.4529(5) -0.7362(5) 0.1100(5)
O6_2 O -0.5937(5) -0.6001(5) 0.0740(4)
O6A O -0.4063(5) -0.3999(5) -0.0740(4)
O8A O -0.2846(6) -0.3904(5) 0.1916(4)
O9A O -0.1233(6) -0.5056(5) 0.2217(4)
O7 O 0.6110(7) 0.0262(6) 0.1971(6)
loop_
_geom_bond_atom_site_label_1
_geom_bond_atom_site_label_2
_geom_bond_site_symmetry_1
_geom_bond_site_symmetry_2
C1 C2 1_555 1_555
C2 C3 1_555 1_555
C3 H1 1_555 1_555
C4 C3 1_555 1_555
C5 C4 1_555 1_555
H2 C5 1_555 1_555
C6 C5 1_555 1_555
C7 C2 1_555 1_555
H3 C7 1_555 1_555
C8 C4 1_555 1_555
C9 C10 1_555 1_555
C10 H4 1_555 1_555
C11 C10 1_555 1_555
H5 C11 1_555 1_555
C12 C11 1_555 1_555
C13 C12 1_555 1_555
H6 C13 1_555 1_555
C14 C9 1_555 1_555
H7 C14 1_555 1_555
C15 C12 1_555 1_555
Gd1 O1 1_555 1_555
O1 C1 1_555 1_555
O2 C1 1_555 1_555
O3 Gd1 1_555 1_555
O4 C8 1_555 1_555
O5 Gd1 1_555 1_555
O6 C8 1_555 1_555
O8 C15 1_555 1_555
O9 C15 1_555 1_555
O10 C6 1_555 1_555
Gd1A O2 1_555 1_555
Gd1_2 O4 1_555 1_555
Gd1A_2 O6 1_555 1_555
Gd1A_3 O8 1_555 1_555
O2A Gd1 1_555 1_555
O4_2 Gd1 1_555 1_555
O6_2 Gd1 1_555 1_555
O6A Gd1 1_555 1_555
O8A Gd1 1_555 1_555
O9A Gd1 1_555 1_555
C6 C7 1_555 1_555
C9 O10 1_555 1_555
C13 C14 1_555 1_555
O6 Gd1_2 1_555 1_555
O9 Gd1A_3 1_555 1_555

#END
