
#######################################################################
#
#                 Cambridge Crystallographic Data Centre
#                                CCDC 
#
#######################################################################
#
# If this CIF has been generated from an entry in the Cambridge 
# Structural Database, then it will include bibliographic, chemical, 
# crystal, experimental, refinement or atomic coordinate data resulting 
# from the CCDC's data processing and validation procedures.
#
#######################################################################

data_ELIKIU
_chemical_formula_moiety         '(C15 H13 O10 Sm1)n'
_symmetry_cell_setting           triclinic
_symmetry_space_group_name_H-M   'P -1'
_symmetry_Int_Tables_number      2
_space_group_name_Hall           '-P 1'
loop_
_symmetry_equiv_pos_site_id
_symmetry_equiv_pos_as_xyz
1 x,y,z
2 -x,-y,-z
_cell_length_a                   9.3410(10)
_cell_length_b                   9.8650(12)
_cell_length_c                   11.4150(12)
_cell_angle_alpha                94.0330(10)
_cell_angle_beta                 98.3320(10)
_cell_angle_gamma                110.8090(10)
_cell_volume                     964.413
loop_
_atom_site_label
_atom_site_type_symbol
_atom_site_fract_x
_atom_site_fract_y
_atom_site_fract_z
C1 C 0.3233(8) 0.5880(7) 0.7609(6)
C2 C 0.3835(8) 0.6720(7) 0.8805(6)
C3 C 0.5147(9) 0.6622(8) 0.9529(6)
H1 H 0.5655 0.6055 0.9229
C4 C 0.5689(9) 0.7359(8) 1.0681(7)
H2 H 0.6537 0.7266 1.1157
C5 C 0.4967(8) 0.8221(7) 1.1108(6)
C6 C 0.3706(9) 0.8376(8) 1.0397(6)
H3 H 0.3235 0.8983 1.0689
C7 C 0.3167(9) 0.7640(8) 0.9274(6)
H4 H 0.2327 0.7756 0.8805
C8 C 0.4527(7) 0.9221(7) 1.2921(5)
C9 C 0.3232(7) 0.8093(7) 1.3099(6)
H5 H 0.3043 0.7136 1.2787
C10 C 0.2224(7) 0.8391(6) 1.3740(5)
C11 C 0.2523(7) 0.9819(6) 1.4231(5)
H6 H 0.1819 1.0026 1.4642
C12 C 0.3886(7) 1.0933(6) 1.4099(5)
C13 C 0.4893(7) 1.0637(7) 1.3442(6)
H7 H 0.5805 1.1379 1.3351
C14 C 0.0802(7) 0.7198(7) 1.3974(5)
C15 C 0.4236(7) 1.2462(6) 1.4675(5)
O1 O 0.2152(5) 0.6098(5) 0.6936(4)
O2 O 0.3780(6) 0.4966(5) 0.7237(4)
O3 O 0.3105(6) 0.4576(6) 0.3176(5)
O4 O -0.0473(5) 0.7411(5) 1.3885(4)
O5 O 0.0110(5) 0.2821(5) 0.3554(4)
O6 O 0.0886(5) 0.6019(5) 1.4257(4)
O8 O 0.3182(5) 1.2702(5) 1.5111(4)
O9 O 0.5553(5) 1.3403(5) 1.4675(4)
O10 O 0.5573(5) 0.8952(5) 1.2259(4)
Sm1 Sm 0.21739(3) 0.45435(3) 0.51503(2)
O4A O 0.0473(5) 0.2589(5) 0.6115(4)
O6_2 O 0.0886(5) 0.6019(5) 0.4257(4)
O6A O -0.0886(5) 0.3981(5) 0.5743(4)
O8_2 O 0.3182(5) 0.2702(5) 0.5111(4)
O9A O 0.4447(5) 0.6597(5) 0.5325(4)
Sm1A Sm -0.21739(3) 0.54565(3) 1.48497(2)
Sm1_2 Sm 0.21739(3) 0.45435(3) 1.51503(2)
Sm1_3 Sm 0.21739(3) 1.45435(3) 1.51503(2)
Sm1A_2 Sm 0.78261(3) 1.54565(3) 1.48497(2)
O7 O 0.1121(7) 0.0242(6) 0.7002(6)
loop_
_geom_bond_atom_site_label_1
_geom_bond_atom_site_label_2
_geom_bond_site_symmetry_1
_geom_bond_site_symmetry_2
C1 C2 1_555 1_555
C2 C3 1_555 1_555
C3 H1 1_555 1_555
C4 C3 1_555 1_555
H2 C4 1_555 1_555
C5 C4 1_555 1_555
C6 C5 1_555 1_555
H3 C6 1_555 1_555
C7 C2 1_555 1_555
H4 C7 1_555 1_555
C8 C9 1_555 1_555
C9 H5 1_555 1_555
C10 C9 1_555 1_555
C11 C10 1_555 1_555
H6 C11 1_555 1_555
C12 C11 1_555 1_555
C13 C8 1_555 1_555
H7 C13 1_555 1_555
C14 C10 1_555 1_555
C15 C12 1_555 1_555
O1 C1 1_555 1_555
O2 C1 1_555 1_555
O3 Sm1 1_555 1_555
O4 C14 1_555 1_555
O5 Sm1 1_555 1_555
O6 C14 1_555 1_555
O8 C15 1_555 1_555
O9 C15 1_555 1_555
O10 C5 1_555 1_555
Sm1 O1 1_555 1_555
O4A Sm1 1_555 1_555
O6_2 Sm1 1_555 1_555
O6A Sm1 1_555 1_555
O8_2 Sm1 1_555 1_555
O9A Sm1 1_555 1_555
Sm1A O4 1_555 1_555
Sm1_2 O6 1_555 1_555
Sm1_3 O8 1_555 1_555
Sm1A_2 O9 1_555 1_555
C6 C7 1_555 1_555
C8 O10 1_555 1_555
C12 C13 1_555 1_555
O2 Sm1 1_555 1_555
O6 Sm1A 1_555 1_555

#END
