
#######################################################################
#
#                 Cambridge Crystallographic Data Centre
#                                CCDC 
#
#######################################################################
#
# If this CIF has been generated from an entry in the Cambridge 
# Structural Database, then it will include bibliographic, chemical, 
# crystal, experimental, refinement or atomic coordinate data resulting 
# from the CCDC's data processing and validation procedures.
#
#######################################################################

data_ELILIV
_chemical_formula_moiety         '(C15 H13 O10 Tm1)n'
_symmetry_cell_setting           triclinic
_symmetry_space_group_name_H-M   'P -1'
_symmetry_Int_Tables_number      2
_space_group_name_Hall           '-P 1'
loop_
_symmetry_equiv_pos_site_id
_symmetry_equiv_pos_as_xyz
1 x,y,z
2 -x,-y,-z
_cell_length_a                   9.3560(6)
_cell_length_b                   9.7960(7)
_cell_length_c                   11.4150(8)
_cell_angle_alpha                94.7990(10)
_cell_angle_beta                 99.6140(10)
_cell_angle_gamma                111.7380(10)
_cell_volume                     945.982
loop_
_atom_site_label
_atom_site_type_symbol
_atom_site_fract_x
_atom_site_fract_y
_atom_site_fract_z
C1 C 0.1735(7) 0.4108(7) 0.7482(6)
C2 C 0.1161(8) 0.3287(7) 0.6263(6)
C3 C -0.0133(9) 0.3391(9) 0.5499(7)
H1 H -0.0649 0.3950 0.5793
C4 C -0.0650(9) 0.2671(9) 0.4314(7)
H2 H -0.1482 0.2775 0.3812
C5 C 0.0076(8) 0.1808(7) 0.3893(6)
C6 C 0.1331(10) 0.1647(9) 0.4632(7)
H3 H 0.1800 0.1040 0.4342
C7 C 0.1860(9) 0.2383(9) 0.5775(6)
H4 H 0.2714 0.2289 0.6255
C8 C 0.0510(7) 0.0807(7) 0.2072(5)
C9 C 0.1800(7) 0.1982(7) 0.1922(5)
H5 H 0.1993 0.2950 0.2251
C10 C 0.2818(7) 0.1693(6) 0.1264(5)
C11 C 0.2526(7) 0.0246(7) 0.0786(5)
H6 H 0.3240 0.0056 0.0390
C12 C 0.1187(7) -0.0912(6) 0.0890(5)
C13 C 0.0149(7) -0.0648(7) 0.1553(5)
H7 H -0.0752 -0.1425 0.1642
C14 C 0.4184(7) 0.2952(7) 0.1020(5)
C15 C 0.0827(7) -0.2469(6) 0.0327(5)
O1 O 0.1207(6) 0.5038(5) 0.7848(4)
O2 O 0.2790(5) 0.3871(5) 0.8200(4)
O3 O 0.1929(6) 0.5483(6) 1.1829(5)
O4 O 0.3983(5) 0.4103(5) 0.0784(4)
O5 O 0.4861(5) 0.7168(5) 1.1449(4)
O6 O 0.5468(5) 0.2800(5) 0.1034(4)
O8 O 0.1927(5) -0.2679(5) -0.0061(4)
O9 O -0.0495(5) -0.3458(5) 0.0286(4)
O10 O -0.0543(5) 0.1058(5) 0.2715(4)
Tm1 Tm 0.27485(3) 0.54484(2) 0.98976(2)
O4_2 O 0.3983(5) 0.4103(5) 1.0784(4)
O6A O 0.4532(5) 0.7200(5) 0.8966(4)
O8_2 O 0.1927(5) 0.7321(5) 0.9939(4)
O9A O 0.0495(5) 0.3458(5) 0.9714(4)
Tm1_2 Tm 0.27485(3) 0.54484(2) -0.01024(2)
Tm1A Tm 0.72515(3) 0.45516(2) 0.01024(2)
Tm1_3 Tm 0.27485(3) -0.45516(2) -0.01024(2)
Tm1A_2 Tm -0.27485(3) -0.54484(2) 0.01024(2)
O7 O 0.6117(7) 0.0351(6) 0.1886(6)
loop_
_geom_bond_atom_site_label_1
_geom_bond_atom_site_label_2
_geom_bond_site_symmetry_1
_geom_bond_site_symmetry_2
C1 C2 1_555 1_555
C2 C3 1_555 1_555
C3 H1 1_555 1_555
C4 C3 1_555 1_555
H2 C4 1_555 1_555
C5 C4 1_555 1_555
C6 C5 1_555 1_555
H3 C6 1_555 1_555
C7 C2 1_555 1_555
H4 C7 1_555 1_555
C8 C9 1_555 1_555
C9 H5 1_555 1_555
C10 C9 1_555 1_555
C11 C10 1_555 1_555
H6 C11 1_555 1_555
C12 C11 1_555 1_555
C13 C8 1_555 1_555
H7 C13 1_555 1_555
C14 C10 1_555 1_555
C15 C12 1_555 1_555
O1 C1 1_555 1_555
O2 C1 1_555 1_555
O3 Tm1 1_555 1_555
O4 C14 1_555 1_555
O5 Tm1 1_555 1_555
O6 C14 1_555 1_555
O8 C15 1_555 1_555
O9 C15 1_555 1_555
O10 C5 1_555 1_555
Tm1 O1 1_555 1_555
O4_2 Tm1 1_555 1_555
O6A Tm1 1_555 1_555
O8_2 Tm1 1_555 1_555
O9A Tm1 1_555 1_555
Tm1_2 O4 1_555 1_555
Tm1A O6 1_555 1_555
Tm1_3 O8 1_555 1_555
Tm1A_2 O9 1_555 1_555
C6 C7 1_555 1_555
C8 O10 1_555 1_555
C12 C13 1_555 1_555
O2 Tm1 1_555 1_555

#END
