
#######################################################################
#
#                 Cambridge Crystallographic Data Centre
#                                CCDC 
#
#######################################################################
#
# If this CIF has been generated from an entry in the Cambridge 
# Structural Database, then it will include bibliographic, chemical, 
# crystal, experimental, refinement or atomic coordinate data resulting 
# from the CCDC's data processing and validation procedures.
#
#######################################################################

data_ELILER
_chemical_formula_moiety         '(C15 H13 Er1 O10)n'
_symmetry_cell_setting           triclinic
_symmetry_space_group_name_H-M   'P -1'
_symmetry_Int_Tables_number      2
_space_group_name_Hall           '-P 1'
loop_
_symmetry_equiv_pos_site_id
_symmetry_equiv_pos_as_xyz
1 x,y,z
2 -x,-y,-z
_cell_length_a                   9.3490(12)
_cell_length_b                   9.8000(13)
_cell_length_c                   11.3790(15)
_cell_angle_alpha                94.441(2)
_cell_angle_beta                 99.3050(10)
_cell_angle_gamma                111.5270(10)
_cell_volume                     946.381
loop_
_atom_site_label
_atom_site_type_symbol
_atom_site_fract_x
_atom_site_fract_y
_atom_site_fract_z
C1 C 0.1761(8) 0.4130(8) 0.7470(6)
C2 C 0.1170(9) 0.3302(8) 0.6259(7)
C3 C 0.1851(10) 0.2376(10) 0.5767(7)
H1 H 0.2706 0.2277 0.6242
C4 C 0.1306(10) 0.1631(9) 0.4633(7)
H2 H 0.1768 0.1016 0.4345
C5 C 0.0047(9) 0.1790(8) 0.3898(7)
C6 C -0.0684(10) 0.2651(10) 0.4324(8)
H3 H -0.1530 0.2744 0.3832
C7 C -0.0146(10) 0.3378(10) 0.5496(7)
H4 H -0.0664 0.3936 0.5792
C8 C 0.0493(8) 0.0778(8) 0.2065(6)
C9 C 0.0143(8) -0.0640(8) 0.1544(6)
H5 H -0.0768 -0.1405 0.1627
C10 C 0.1156(8) -0.0929(8) 0.0894(6)
C11 C 0.2505(8) 0.0231(7) 0.0789(6)
H6 H 0.3219 0.0036 0.0391
C12 C 0.2811(8) 0.1680(8) 0.1268(6)
C13 C 0.1790(8) 0.1959(8) 0.1909(6)
H7 H 0.1971 0.2924 0.2231
C14 C 0.0815(8) -0.2458(8) 0.0336(6)
C15 C 0.4169(8) 0.2915(8) 0.1032(6)
Er1 Er 0.27581(3) 0.54510(3) 0.98869(3)
O1 O 0.1222(6) 0.5052(6) 0.7833(5)
O2 O 0.2802(6) 0.3885(6) 0.8174(5)
O3 O 0.4860(6) 0.7165(6) 1.1444(5)
O4 O 0.5476(6) 0.2774(6) 0.1061(5)
O5 O 0.1912(7) 0.5475(7) 1.1809(5)
O6 O 0.3998(6) 0.4094(5) 0.0781(5)
O8 O 0.1898(6) -0.2687(6) -0.0090(5)
O9 O -0.0503(6) -0.3447(5) 0.0293(5)
O10 O -0.0565(6) 0.1044(6) 0.2727(4)
Er1A Er 0.72419(3) 0.45490(3) 0.01131(3)
Er1_2 Er 0.27581(3) 0.54510(3) -0.01131(3)
Er1_3 Er 0.27581(3) -0.45490(3) -0.01131(3)
Er1A_2 Er -0.27581(3) -0.54510(3) 0.01131(3)
O4A O 0.4524(6) 0.7226(6) 0.8939(5)
O6_2 O 0.3998(6) 0.4094(5) 1.0781(5)
O8_2 O 0.1898(6) 0.7313(6) 0.9910(5)
O9A O 0.0503(6) 0.3447(5) 0.9707(5)
O7 O 0.6120(7) 0.0339(7) 0.1941(6)
loop_
_geom_bond_atom_site_label_1
_geom_bond_atom_site_label_2
_geom_bond_site_symmetry_1
_geom_bond_site_symmetry_2
C1 C2 1_555 1_555
C2 C3 1_555 1_555
C3 H1 1_555 1_555
C4 C3 1_555 1_555
H2 C4 1_555 1_555
C5 C4 1_555 1_555
C6 C5 1_555 1_555
H3 C6 1_555 1_555
C7 C2 1_555 1_555
H4 C7 1_555 1_555
C8 C9 1_555 1_555
C9 H5 1_555 1_555
C10 C9 1_555 1_555
C11 C10 1_555 1_555
H6 C11 1_555 1_555
C12 C11 1_555 1_555
C13 C8 1_555 1_555
H7 C13 1_555 1_555
C14 C10 1_555 1_555
C15 C12 1_555 1_555
Er1 O1 1_555 1_555
O1 C1 1_555 1_555
O2 C1 1_555 1_555
O3 Er1 1_555 1_555
O4 C15 1_555 1_555
O5 Er1 1_555 1_555
O6 C15 1_555 1_555
O8 C14 1_555 1_555
O9 C14 1_555 1_555
O10 C5 1_555 1_555
Er1A O4 1_555 1_555
Er1_2 O6 1_555 1_555
Er1_3 O8 1_555 1_555
Er1A_2 O9 1_555 1_555
O4A Er1 1_555 1_555
O6_2 Er1 1_555 1_555
O8_2 Er1 1_555 1_555
O9A Er1 1_555 1_555
C6 C7 1_555 1_555
C8 O10 1_555 1_555
C12 C13 1_555 1_555
Er1 O2 1_555 1_555

#END
