
#######################################################################
#
#                 Cambridge Crystallographic Data Centre
#                                CCDC 
#
#######################################################################
#
# If this CIF has been generated from an entry in the Cambridge 
# Structural Database, then it will include bibliographic, chemical, 
# crystal, experimental, refinement or atomic coordinate data resulting 
# from the CCDC's data processing and validation procedures.
#
#######################################################################

data_DAHPAE
_chemical_formula_moiety         '(C8 H12 N1 O8 Yb1)n'
_symmetry_cell_setting           tetragonal
_symmetry_space_group_name_H-M   'I 41/a'
_symmetry_Int_Tables_number      88
_space_group_name_Hall           '-I 4ad'
loop_
_symmetry_equiv_pos_site_id
_symmetry_equiv_pos_as_xyz
1 x,y,z
2 3/4-y,1/4+x,1/4+z
3 1/4+y,1/4-x,1/4+z
4 1/2+x,1/2+y,1/2+z
5 1/4-y,3/4+x,3/4+z
6 -x,1/2-y,z
7 1/2-x,-y,1/2+z
8 3/4+y,3/4-x,3/4+z
9 -x,-y,-z
10 1/4+y,3/4-x,3/4-z
11 3/4-y,3/4+x,3/4-z
12 1/2-x,1/2-y,1/2-z
13 3/4+y,1/4-x,1/4-z
14 x,1/2+y,-z
15 1/2+x,y,1/2-z
16 1/4-y,1/4+x,1/4-z
_cell_length_a                   8.4410(4)
_cell_length_b                   8.4410(4)
_cell_length_c                   17.5000(5)
_cell_angle_alpha                90
_cell_angle_beta                 90
_cell_angle_gamma                90
_cell_volume                     1246.88
loop_
_atom_site_label
_atom_site_type_symbol
_atom_site_fract_x
_atom_site_fract_y
_atom_site_fract_z
_atom_site_U_iso_or_equiv
_atom_site_thermal_displace_type
Yb1 Yb -0.0000 0.2500 0.1250 0.0206 Uani
O1 O 0.1386(3) 0.1479(3) 0.01736(14) 0.0286 Uani
O2 O 0.1265(3) -0.0297(3) -0.07737(13) 0.0295 Uani
C1 C 0.0772(3) 0.0341(4) -0.01712(18) 0.0229 Uani
C1H C -0.0772(3) -0.0341(4) 0.01712(18) 0.0229 Uani
O1H O -0.1386(3) -0.1479(3) -0.01736(14) 0.0286 Uani
O2H O -0.1265(3) 0.0297(3) 0.07737(13) 0.0295 Uani
O1O O 0.1021(3) 0.3886(3) 0.23264(14) 0.0286 Uani
O2O O 0.2797(3) 0.3765(3) 0.32737(13) 0.0295 Uani
C1O C 0.2159(4) 0.3272(3) 0.26712(18) 0.0229 Uani
C1B C 0.2841(4) 0.1728(3) 0.23288(18) 0.0229 Uani
O1B O 0.3979(3) 0.1114(3) 0.26736(14) 0.0286 Uani
O2B O 0.2203(3) 0.1235(3) 0.17263(13) 0.0295 Uani
O1L O -0.1021(3) 0.1114(3) 0.23264(14) 0.0286 Uani
O1E O -0.1386(3) 0.3521(3) 0.01736(14) 0.0286 Uani
O2A O -0.2203(3) 0.3765(3) 0.17263(13) 0.0295 Uani
O2M O 0.1265(3) 0.4703(3) 0.07737(13) 0.0295 Uani
Yb1D Yb 0.0000 -0.2500 -0.1250 0.0206 Uani
Yb1A Yb 0.5000 0.2500 0.3750 0.0206 Uani
N1 N 0.5000 0.7500 0.1250 0.0373 Uani
C2 C 0.6397(8) 0.7824(8) 0.1733(4) 0.0709 Uiso
H1 H 0.6612 0.6920 0.2049 0.0850 Uiso
H2 H 0.6191 0.8729 0.2050 0.0850 Uiso
H3 H 0.7298 0.8035 0.1413 0.0850 Uiso
C2O C 0.4676(8) 0.8897(8) 0.0767(4) 0.0709 Uiso
H1O H 0.5580 0.9112 0.0451 0.0850 Uiso
H2O H 0.3771 0.8691 0.0450 0.0850 Uiso
H3O H 0.4465 0.9798 0.1087 0.0850 Uiso
C2L C 0.5324(8) 0.6103(8) 0.0767(4) 0.0709 Uiso
H1L H 0.4420 0.5888 0.0451 0.0850 Uiso
H2L H 0.6229 0.6309 0.0450 0.0850 Uiso
H3L H 0.5535 0.5202 0.1087 0.0850 Uiso
C2E C 0.3603(8) 0.7176(8) 0.1733(4) 0.0709 Uiso
H1E H 0.3388 0.8080 0.2049 0.0850 Uiso
H2E H 0.3809 0.6271 0.2050 0.0850 Uiso
H3E H 0.2702 0.6965 0.1413 0.0850 Uiso
loop_
_atom_site_aniso_label
_atom_site_aniso_U_11
_atom_site_aniso_U_22
_atom_site_aniso_U_33
_atom_site_aniso_U_23
_atom_site_aniso_U_13
_atom_site_aniso_U_12
Yb1 0.02353(15) 0.02353(15) 0.01485(16) 0.000 0.000 0.000
O1 0.0255(11) 0.0365(12) 0.0238(11) -0.0075(10) 0.0035(9) -0.0081(9)
O2 0.0327(12) 0.0337(12) 0.0221(11) -0.0067(10) 0.0109(10) -0.0068(10)
C1 0.0214(13) 0.0273(15) 0.0199(14) 0.0013(12) 0.0022(11) -0.0026(11)
C1H 0.0214 0.0273 0.0199 0.0013 0.0022 -0.0026
O1H 0.0255 0.0365 0.0238 -0.0075 0.0035 -0.0081
O2H 0.0327 0.0337 0.0221 -0.0067 0.0109 -0.0068
O1O 0.0365 0.0255 0.0238 -0.0035 -0.0075 0.0081
O2O 0.0337 0.0327 0.0221 -0.0109 -0.0067 0.0068
C1O 0.0273 0.0214 0.0199 -0.0022 0.0013 0.0026
C1B 0.0273 0.0214 0.0199 -0.0022 0.0013 0.0026
O1B 0.0365 0.0255 0.0238 -0.0035 -0.0075 0.0081
O2B 0.0337 0.0327 0.0221 -0.0109 -0.0067 0.0068
O1L 0.0365 0.0255 0.0238 0.0035 0.0075 0.0081
O1E 0.0255 0.0365 0.0238 0.0075 -0.0035 -0.0081
O2A 0.0337 0.0327 0.0221 0.0109 0.0067 0.0068
O2M 0.0327 0.0337 0.0221 0.0067 -0.0109 -0.0068
Yb1D 0.02353 0.02353 0.01485 0 0 0
Yb1A 0.02353 0.02353 0.01485 0 0 0
N1 0.040(2) 0.040(2) 0.032(3) 0.000 0.000 0.000
loop_
_geom_bond_atom_site_label_1
_geom_bond_atom_site_label_2
_geom_bond_site_symmetry_1
_geom_bond_site_symmetry_2
Yb1 O1 1_555 1_555
O1 C1 1_555 1_555
O2 C1 1_555 1_555
C1 C1H 1_555 1_555
N1 C2 1_555 1_555
C2 H1 1_555 1_555
H2 C2 1_555 1_555
H3 C2 1_555 1_555
C1H O1H 1_555 1_555
O1H Yb1D 1_555 1_555
O2H Yb1 1_555 1_555
O1O Yb1 1_555 1_555
O2O C1O 1_555 1_555
C1O O1O 1_555 1_555
C1B C1O 1_555 1_555
O1B C1B 1_555 1_555
O2B Yb1 1_555 1_555
O1L Yb1 1_555 1_555
O1E Yb1 1_555 1_555
O2A Yb1 1_555 1_555
O2M Yb1 1_555 1_555
Yb1D O2 1_555 1_555
Yb1A O2O 1_555 1_555
C2O N1 1_555 1_555
H1O C2O 1_555 1_555
H2O C2O 1_555 1_555
H3O C2O 1_555 1_555
C2L N1 1_555 1_555
H1L C2L 1_555 1_555
H2L C2L 1_555 1_555
H3L C2L 1_555 1_555
C2E N1 1_555 1_555
H1E C2E 1_555 1_555
H2E C2E 1_555 1_555
H3E C2E 1_555 1_555
C1H O2H 1_555 1_555
C1B O2B 1_555 1_555
O1B Yb1A 1_555 1_555

#END
