
#######################################################################
#
#                 Cambridge Crystallographic Data Centre
#                                CCDC 
#
#######################################################################
#
# If this CIF has been generated from an entry in the Cambridge 
# Structural Database, then it will include bibliographic, chemical, 
# crystal, experimental, refinement or atomic coordinate data resulting 
# from the CCDC's data processing and validation procedures.
#
#######################################################################

data_POLBAT
_chemical_formula_moiety         '(C2 H9 Ga3 N1 O13 P3)n'
_symmetry_cell_setting           monoclinic
_symmetry_space_group_name_H-M   'P 21/n'
_symmetry_Int_Tables_number      14
_space_group_name_Hall           '-P 2yn'
loop_
_symmetry_equiv_pos_site_id
_symmetry_equiv_pos_as_xyz
1 x,y,z
2 1/2-x,1/2+y,1/2-z
3 -x,-y,-z
4 1/2+x,1/2-y,1/2+z
_cell_length_a                   8.787(1)
_cell_length_b                   17.783(3)
_cell_length_c                   9.204(1)
_cell_angle_alpha                90
_cell_angle_beta                 109.56(1)
_cell_angle_gamma                90
_cell_volume                     1355.21
loop_
_atom_site_label
_atom_site_type_symbol
_atom_site_fract_x
_atom_site_fract_y
_atom_site_fract_z
Ga1 Ga 0.0679(1) 0.2949(1) 0.3036(1)
Ga2 Ga 0.1355(1) 0.1100(1) 0.1658(1)
Ga3 Ga 0.5135(1) 0.3291(1) 0.1962(1)
P1 P 0.3412(1) 0.4294(1) 0.3698(1)
P2 P -0.1973(1) 0.2887(1) 0.4831(1)
P3 P 0.2483(1) 0.1613(1) 0.5089(1)
O1 O 0.0349(2) 0.2095(1) 0.1783(2)
O2 O 0.1949(2) 0.3782(1) 0.3146(2)
O3 O 0.2420(2) 0.2442(1) 0.4620(2)
O4 O -0.0498(2) 0.3032(1) 0.4391(2)
O5 O 0.4033(2) 0.1468(1) 0.6425(2)
O6 O 0.4584(2) 0.4125(1) 0.2802(2)
O7 O -0.1708(2) 0.2207(1) 0.5926(2)
O8 O 0.1012(2) 0.1384(1) 0.5555(2)
O9 O -0.3460(2) 0.2696(1) 0.3428(2)
O10 O 0.2447(2) 0.1088(1) 0.3762(2)
O11 O 0.4290(2) 0.4190(1) 0.5426(2)
O12 O 0.2782(2) 0.5092(1) 0.3356(2)
O13 O -0.2268(2) 0.3593(1) 0.5627(2)
H1 H -0.0790(70) 0.2110(30) 0.0950(70)
O5C O -0.0967(2) 0.3532(1) 0.1425(2)
O11C O -0.0710(2) 0.0810(1) 0.0426(2)
O12A O 0.2218(2) 0.0092(1) 0.1644(2)
O13C O 0.2732(2) 0.1407(1) 0.0627(2)
O7C O 0.3292(2) 0.2793(1) 0.0926(2)
O8C O 0.6012(2) 0.3616(1) 0.0555(2)
O9_2 O 0.6540(2) 0.2696(1) 0.3428(2)
Ga1C Ga 0.5679(1) 0.2051(1) 0.8036(1)
Ga3C Ga 0.0135(1) 0.1709(1) 0.6962(1)
Ga3_2 Ga -0.4865(1) 0.3291(1) 0.1962(1)
Ga2C Ga 0.6355(1) 0.3900(1) 0.6658(1)
Ga2A Ga 0.3645(1) 0.6100(1) 0.3342(1)
Ga2C_2 Ga -0.3645(1) 0.3900(1) 0.6658(1)
N1 N 0.9294(3) 0.5116(2) 0.2169(3)
C1 C 0.8707(6) 0.5649(3) 0.0847(6)
C2 C 0.8336(8) 0.5137(4) 0.3229(7)
H2 H 0.8890(60) 0.4660(30) 0.3980(60)
H3 H 0.8640(70) 0.5670(20) 0.3860(60)
H4 H 0.7080(50) 0.5100(30) 0.2460(60)
H5 H 1.0260(70) 0.5200(30) 0.2660(70)
H6 H 0.9270(70) 0.4610(30) 0.1850(70)
loop_
_geom_bond_atom_site_label_1
_geom_bond_atom_site_label_2
_geom_bond_site_symmetry_1
_geom_bond_site_symmetry_2
Ga1 O1 1_555 1_555
Ga2 O1 1_555 1_555
Ga3 O6 1_555 1_555
P1 O2 1_555 1_555
P2 O4 1_555 1_555
P3 O3 1_555 1_555
O1 H1 1_555 1_555
O2 Ga1 1_555 1_555
O3 Ga1 1_555 1_555
O4 Ga1 1_555 1_555
O5 P3 1_555 1_555
O6 P1 1_555 1_555
O7 P2 1_555 1_555
O8 P3 1_555 1_555
O9 P2 1_555 1_555
O10 Ga2 1_555 1_555
O11 P1 1_555 1_555
O12 P1 1_555 1_555
O13 P2 1_555 1_555
N1 C1 1_555 1_555
C2 N1 1_555 1_555
H2 C2 1_555 1_555
H3 C2 1_555 1_555
H4 C2 1_555 1_555
H5 N1 1_555 1_555
H6 N1 1_555 1_555
O5C Ga1 1_555 1_555
O11C Ga2 1_555 1_555
O12A Ga2 1_555 1_555
O13C Ga2 1_555 1_555
O7C Ga3 1_555 1_555
O8C Ga3 1_555 1_555
O9_2 Ga3 1_555 1_555
Ga1C O5 1_555 1_555
Ga3C O7 1_555 1_555
Ga3_2 O9 1_555 1_555
Ga2C O11 1_555 1_555
Ga2A O12 1_555 1_555
Ga2C_2 O13 1_555 1_555
P3 O10 1_555 1_555
O8 Ga3C 1_555 1_555

#END
