
#######################################################################
#
#                 Cambridge Crystallographic Data Centre
#                                CCDC 
#
#######################################################################
#
# If this CIF has been generated from an entry in the Cambridge 
# Structural Database, then it will include bibliographic, chemical, 
# crystal, experimental, refinement or atomic coordinate data resulting 
# from the CCDC's data processing and validation procedures.
#
#######################################################################

data_QITXAU
_chemical_formula_moiety         '(C64 H78 N18 O20 S2 Zn3)n'
_symmetry_cell_setting           triclinic
_symmetry_space_group_name_H-M   'P -1'
_symmetry_Int_Tables_number      2
_space_group_name_Hall           '-P 1'
loop_
_symmetry_equiv_pos_site_id
_symmetry_equiv_pos_as_xyz
1 x,y,z
2 -x,-y,-z
_cell_length_a                   9.691(2)
_cell_length_b                   14.157(4)
_cell_length_c                   16.055(4)
_cell_angle_alpha                107.408(4)
_cell_angle_beta                 99.937(3)
_cell_angle_gamma                104.264(3)
_cell_volume                     1963.43
loop_
_atom_site_label
_atom_site_type_symbol
_atom_site_fract_x
_atom_site_fract_y
_atom_site_fract_z
Zn1 Zn 0.80800(5) 0.90897(4) 0.93976(3)
S1 S 0.98870(13) 0.48582(9) 0.70239(8)
O1 O 0.9487(4) 0.8558(3) 0.8765(2)
O2 O 1.1745(4) 0.9556(2) 0.9644(2)
O3 O 1.5975(3) 0.8350(3) 0.9166(2)
O4 O 1.5707(4) 0.7076(3) 0.7887(3)
O5 O 1.0761(4) 0.4171(3) 0.6937(3)
O6 O 0.8792(5) 0.4626(3) 0.7506(3)
O7 O 0.9247(6) 0.4946(3) 0.6175(3)
N1 N 0.9563(6) 0.7586(3) 1.1152(3)
N2 N 0.9134(7) 0.8274(4) 1.1745(3)
N3 N 0.8731(5) 0.8466(3) 1.0401(3)
N4 N 0.7373(4) 1.0120(3) 0.7180(3)
N5 N 0.6577(6) 1.0616(4) 0.7660(3)
N6 N 0.7589(5) 0.9744(3) 0.8398(3)
C1 C 1.0125(9) 0.5922(5) 1.0673(4)
C2 C 1.1315(9) 0.5848(5) 1.0324(4)
C3 C 1.1186(9) 0.4896(5) 0.9650(4)
C4 C 1.0266(9) 0.6897(5) 1.1453(4)
H1 H 0.9814 0.6695 1.1894
H2 H 1.1304 0.7274 1.1748
C5 C 1.2721(11) 0.6770(6) 1.0631(7)
H3 H 1.3275 0.6855 1.1220
H4 H 1.2471 0.7392 1.0659
H5 H 1.3305 0.6646 1.0209
C6 C 1.2516(10) 0.4781(6) 0.9308(5)
H6 H 1.2987 0.5405 0.9211
H7 H 1.2206 0.4197 0.8748
H8 H 1.3199 0.4668 0.9748
C7 C 0.8642(8) 0.8777(5) 1.1258(4)
H9 H 0.8260 0.9311 1.1490
C8 C 0.9336(7) 0.7718(4) 1.0369(4)
H10 H 0.9568 0.7337 0.9862
C9 C 0.6231(5) 1.0132(4) 0.5668(3)
C10 C 0.5271(5) 0.9129(4) 0.5143(3)
C11 C 0.4047(6) 0.8994(4) 0.4458(3)
C12 C 0.7623(6) 1.0256(4) 0.6340(3)
H11 H 0.8075 0.9750 0.6057
H12 H 0.8313 1.0946 0.6491
C13 C 0.5523(7) 0.8180(4) 0.5312(4)
H13 H 0.5001 0.8026 0.5737
H14 H 0.6560 0.8318 0.5554
H15 H 0.5168 0.7593 0.4752
C14 C 0.3080(7) 0.7895(4) 0.3858(4)
H16 H 0.3557 0.7605 0.3414
H17 H 0.2145 0.7913 0.3558
H18 H 0.2925 0.7470 0.4222
C15 C 0.6727(7) 1.0360(5) 0.8375(4)
H19 H 0.6280 1.0582 0.8833
C16 C 0.7961(6) 0.9613(4) 0.7629(3)
H20 H 0.8558 0.9217 0.7432
C17 C 1.1473(5) 0.7905(3) 0.8592(3)
C18 C 1.2986(5) 0.8114(3) 0.8720(3)
H21 H 1.3621 0.8779 0.9079
C19 C 1.3559(5) 0.7347(4) 0.8321(3)
C20 C 1.2616(5) 0.6350(3) 0.7796(3)
H22 H 1.2992 0.5830 0.7518
C21 C 1.1114(5) 0.6137(3) 0.7690(3)
C22 C 1.0537(5) 0.6911(4) 0.8068(3)
H23 H 0.9520 0.6764 0.7970
C23 C 1.0859(5) 0.8744(3) 0.9036(3)
C24 C 1.5208(5) 0.7594(4) 0.8454(4)
N1A N 1.0437(6) 0.2414(3) 0.8848(3)
N2A N 1.0866(7) 0.1726(4) 0.8255(3)
N3A N 1.1269(5) 0.1534(3) 0.9599(3)
C1A C 0.9875(9) 0.4078(5) 0.9327(4)
C2A C 0.8685(9) 0.4152(5) 0.9676(4)
C3A C 0.8814(9) 0.5104(5) 1.0350(4)
C4A C 0.9734(9) 0.3103(5) 0.8547(4)
H1A H 1.0186 0.3305 0.8106
H2A H 0.8696 0.2726 0.8252
C5A C 0.7279(11) 0.3230(6) 0.9369(7)
H3A H 0.6725 0.3145 0.8780
H4A H 0.7529 0.2608 0.9341
H5A H 0.6695 0.3354 0.9791
C6A C 0.7484(10) 0.5219(6) 1.0692(5)
H6A H 0.7013 0.4595 1.0789
H7A H 0.7794 0.5803 1.1252
H8A H 0.6801 0.5332 1.0252
C7A C 1.1358(8) 0.1223(5) 0.8742(4)
H9A H 1.1740 0.0689 0.8510
C8A C 1.0664(7) 0.2282(4) 0.9631(4)
H10A H 1.0432 0.2663 1.0138
N4A N 0.2627(4) 0.9880(3) 0.2820(3)
N5A N 0.3423(6) 0.9384(4) 0.2340(3)
N6A N 0.2411(5) 1.0256(3) 0.1602(3)
C9A C 0.3769(5) 0.9868(4) 0.4332(3)
C10A C 0.4729(5) 1.0871(4) 0.4857(3)
C11A C 0.5953(6) 1.1006(4) 0.5542(3)
C12A C 0.2377(6) 0.9744(4) 0.3660(3)
H11A H 0.1925 1.0250 0.3943
H12A H 0.1687 0.9054 0.3509
C13A C 0.4477(7) 1.1820(4) 0.4688(4)
H13A H 0.4999 1.1974 0.4263
H14A H 0.3440 1.1682 0.4446
H15A H 0.4832 1.2407 0.5248
C14A C 0.6920(7) 1.2105(4) 0.6142(4)
H16A H 0.6443 1.2395 0.6586
H17A H 0.7855 1.2087 0.6442
H18A H 0.7075 1.2530 0.5778
C15A C 0.3273(7) 0.9640(5) 0.1625(4)
H19A H 0.3720 0.9418 0.1167
C16A C 0.2039(6) 1.0387(4) 0.2371(3)
H20A H 0.1442 1.0783 0.2568
Zn1A Zn 0.19200(5) 1.09103(4) 0.06024(3)
S1A S 0.01130(13) 1.51418(9) 0.29761(8)
O1A O 0.0513(4) 1.1442(3) 0.1235(2)
O2A O -0.1745(4) 1.0444(2) 0.0356(2)
O3A O -0.5975(3) 1.1650(3) 0.0834(2)
O4A O -0.5707(4) 1.2924(3) 0.2113(3)
O5A O -0.0761(4) 1.5829(3) 0.3063(3)
O6A O 0.1208(5) 1.5374(3) 0.2494(3)
O7A O 0.0753(6) 1.5054(3) 0.3825(3)
C17A C -0.1473(5) 1.2095(3) 0.1408(3)
C18A C -0.2986(5) 1.1886(3) 0.1280(3)
H21A H -0.3621 1.1221 0.0921
C19A C -0.3559(5) 1.2653(4) 0.1679(3)
C20A C -0.2616(5) 1.3650(3) 0.2204(3)
H22A H -0.2992 1.4170 0.2482
C21A C -0.1114(5) 1.3863(3) 0.2310(3)
C22A C -0.0537(5) 1.3089(4) 0.1932(3)
H23A H 0.0480 1.3236 0.2030
C23A C -0.0859(5) 1.1256(3) 0.0964(3)
C24A C -0.5208(5) 1.2406(4) 0.1546(4)
Zn1_2 Zn -0.19200(5) 0.90897(4) -0.06024(3)
Zn1_3 Zn 1.80800(5) 0.90897(4) 0.93976(3)
Zn1A_2 Zn -0.80800(5) 1.09103(4) 0.06024(3)
Zn1A_3 Zn 1.19200(5) 0.09103(4) 1.06024(3)
Zn1A_4 Zn 1.19200(5) 1.09103(4) 1.06024(3)
O2_2 O 0.1745(4) 0.9556(2) -0.0356(2)
O2A_2 O 0.8255(4) 1.0444(2) 1.0356(2)
O3_2 O 0.5975(3) 0.8350(3) 0.9166(2)
O3A_2 O 0.4025(3) 1.1650(3) 0.0834(2)
N3A_2 N 0.1269(5) 1.1534(3) -0.0401(3)
Zn2 Zn 0.5000 0.5000 0.5000
O8 O 0.5740(4) 0.4060(3) 0.3965(2)
H24 H 0.658(4) 0.391(4) 0.407(3)
H25 H 0.530(5) 0.365(4) 0.3391(18)
O9 O 0.5997(4) 0.4472(3) 0.5971(3)
H26 H 0.698(2) 0.468(5) 0.614(3)
H27 H 0.576(5) 0.442(5) 0.647(2)
N7 N 0.1143(5) 0.2644(3) 0.4761(3)
N8 N 0.1145(5) 0.2292(3) 0.3871(3)
N9 N 0.2982(4) 0.3792(3) 0.4653(3)
C25 C 0.0033(6) 0.0995(4) 0.5027(4)
C26 C 0.1076(6) 0.0874(4) 0.5669(4)
C27 C 0.1033(6) -0.0134(4) 0.5641(4)
C28 C 0.0012(6) 0.2092(4) 0.5110(4)
H28 H -0.0955 0.2047 0.4782
H29 H 0.0163 0.2497 0.5742
C29 C 0.2248(8) 0.1812(5) 0.6401(4)
H30 H 0.2499 0.2369 0.6174
H31 H 0.3112 0.1625 0.6575
H32 H 0.1875 0.2037 0.6918
C30 C 0.2142(8) -0.0258(5) 0.6353(5)
H33 H 0.3004 -0.0302 0.6146
H34 H 0.1712 -0.0883 0.6460
H35 H 0.2414 0.0333 0.6905
C31 C 0.2270(5) 0.3010(4) 0.3841(3)
H36 H 0.2554 0.2986 0.3313
C32 C 0.2224(6) 0.3533(4) 0.5204(4)
H37 H 0.2423 0.3921 0.5817
N7A N -0.1143(5) -0.2644(3) 0.5239(3)
N8A N -0.1145(5) -0.2292(3) 0.6129(3)
N9A N -0.2982(4) -0.3792(3) 0.5347(3)
C25A C -0.0033(6) -0.0995(4) 0.4973(4)
C26A C -0.1076(6) -0.0874(4) 0.4331(4)
C27A C -0.1033(6) 0.0134(4) 0.4359(4)
C28A C -0.0012(6) -0.2092(4) 0.4890(4)
H28A H 0.0955 -0.2047 0.5218
H29A H -0.0163 -0.2497 0.4258
C29A C -0.2248(8) -0.1812(5) 0.3599(4)
H30A H -0.2499 -0.2369 0.3826
H31A H -0.3112 -0.1625 0.3425
H32A H -0.1875 -0.2037 0.3082
C30A C -0.2142(8) 0.0258(5) 0.3647(5)
H33A H -0.3004 0.0302 0.3854
H34A H -0.1712 0.0883 0.3540
H35A H -0.2414 -0.0333 0.3095
C31A C -0.2270(5) -0.3010(4) 0.6159(3)
H36A H -0.2554 -0.2986 0.6687
C32A C -0.2224(6) -0.3533(4) 0.4796(4)
H37A H -0.2423 -0.3921 0.4183
O8A O 0.4260(4) 0.5940(3) 0.6035(2)
H24A H 0.342(4) 0.609(4) 0.593(3)
H25A H 0.470(5) 0.635(4) 0.6609(18)
O9A O 0.4003(4) 0.5528(3) 0.4029(3)
H26A H 0.302(2) 0.532(5) 0.386(3)
H27A H 0.424(5) 0.558(5) 0.353(2)
Zn2_2 Zn -0.5000 -0.5000 0.5000
N9A_2 N 0.7018(4) 0.6208(3) 0.5347(3)
O10 O 0.8346(5) 0.3659(4) 0.4383(3)
H38 H 0.883(6) 0.411(4) 0.4939(18)
H39 H 0.897(6) 0.379(5) 0.405(3)
O11 O 0.5137(18) 0.4804(12) 0.7529(8)
loop_
_geom_bond_atom_site_label_1
_geom_bond_atom_site_label_2
_geom_bond_site_symmetry_1
_geom_bond_site_symmetry_2
Zn1 O1 1_555 1_555
S1 O5 1_555 1_555
O1 C23 1_555 1_555
O2 C23 1_555 1_555
O3 C24 1_555 1_555
O4 C24 1_555 1_555
O6 S1 1_555 1_555
O7 S1 1_555 1_555
N1 N2 1_555 1_555
N2 C7 1_555 1_555
N3 Zn1 1_555 1_555
N4 N5 1_555 1_555
N5 C15 1_555 1_555
N6 Zn1 1_555 1_555
C1 C2 1_555 1_555
C2 C3 1_555 1_555
C3 C6 1_555 1_555
C4 N1 1_555 1_555
H1 C4 1_555 1_555
H2 C4 1_555 1_555
C5 C2 1_555 1_555
H3 C5 1_555 1_555
H4 C5 1_555 1_555
H5 C5 1_555 1_555
C6 H6 1_555 1_555
H7 C6 1_555 1_555
H8 C6 1_555 1_555
C7 N3 1_555 1_555
H9 C7 1_555 1_555
C8 N1 1_555 1_555
H10 C8 1_555 1_555
C9 C10 1_555 1_555
C10 C11 1_555 1_555
C11 C14 1_555 1_555
C12 N4 1_555 1_555
H11 C12 1_555 1_555
H12 C12 1_555 1_555
C13 C10 1_555 1_555
H13 C13 1_555 1_555
H14 C13 1_555 1_555
H15 C13 1_555 1_555
C14 H16 1_555 1_555
H17 C14 1_555 1_555
H18 C14 1_555 1_555
C15 N6 1_555 1_555
H19 C15 1_555 1_555
C16 N4 1_555 1_555
H20 C16 1_555 1_555
C17 C18 1_555 1_555
C18 H21 1_555 1_555
C19 C18 1_555 1_555
C20 C19 1_555 1_555
H22 C20 1_555 1_555
C21 S1 1_555 1_555
C22 C17 1_555 1_555
H23 C22 1_555 1_555
C23 C17 1_555 1_555
C24 C19 1_555 1_555
Zn2 O8 1_555 1_555
O8 H24 1_555 1_555
H25 O8 1_555 1_555
O9 Zn2 1_555 1_555
H26 O9 1_555 1_555
H27 O9 1_555 1_555
N7 N8 1_555 1_555
N8 C31 1_555 1_555
N9 Zn2 1_555 1_555
C25 C26 1_555 1_555
C26 C27 1_555 1_555
C27 C30 1_555 1_555
C28 N7 1_555 1_555
H28 C28 1_555 1_555
H29 C28 1_555 1_555
C29 C26 1_555 1_555
H30 C29 1_555 1_555
H31 C29 1_555 1_555
H32 C29 1_555 1_555
C30 H33 1_555 1_555
H34 C30 1_555 1_555
H35 C30 1_555 1_555
C31 N9 1_555 1_555
H36 C31 1_555 1_555
C32 N7 1_555 1_555
H37 C32 1_555 1_555
O10 H38 1_555 1_555
H39 O10 1_555 1_555
N1A N2A 1_555 1_555
N2A C7A 1_555 1_555
N3A C7A 1_555 1_555
C1A C3 1_555 1_555
C2A C1A 1_555 1_555
C3A C1 1_555 1_555
C4A N1A 1_555 1_555
H1A C4A 1_555 1_555
H2A C4A 1_555 1_555
C5A C2A 1_555 1_555
H3A C5A 1_555 1_555
H4A C5A 1_555 1_555
H5A C5A 1_555 1_555
C6A C3A 1_555 1_555
H6A C6A 1_555 1_555
H7A C6A 1_555 1_555
H8A C6A 1_555 1_555
C7A H9A 1_555 1_555
C8A N1A 1_555 1_555
H10A C8A 1_555 1_555
N4A N5A 1_555 1_555
N5A C15A 1_555 1_555
N6A C15A 1_555 1_555
C9A C11 1_555 1_555
C10A C9A 1_555 1_555
C11A C9 1_555 1_555
C12A N4A 1_555 1_555
H11A C12A 1_555 1_555
H12A C12A 1_555 1_555
C13A C10A 1_555 1_555
H13A C13A 1_555 1_555
H14A C13A 1_555 1_555
H15A C13A 1_555 1_555
C14A C11A 1_555 1_555
H16A C14A 1_555 1_555
H17A C14A 1_555 1_555
H18A C14A 1_555 1_555
C15A H19A 1_555 1_555
C16A N4A 1_555 1_555
H20A C16A 1_555 1_555
Zn1A N6A 1_555 1_555
S1A O5A 1_555 1_555
O1A Zn1A 1_555 1_555
O2A C23A 1_555 1_555
O3A C24A 1_555 1_555
O4A C24A 1_555 1_555
O6A S1A 1_555 1_555
O7A S1A 1_555 1_555
C17A C18A 1_555 1_555
C18A H21A 1_555 1_555
C19A C18A 1_555 1_555
C20A C19A 1_555 1_555
H22A C20A 1_555 1_555
C21A S1A 1_555 1_555
C22A C17A 1_555 1_555
H23A C22A 1_555 1_555
C23A O1A 1_555 1_555
C24A C19A 1_555 1_555
Zn1_2 O2A 1_555 1_555
Zn1_3 O3 1_555 1_555
Zn1A_2 O3A 1_555 1_555
Zn1A_3 N3A 1_555 1_555
Zn1A_4 O2 1_555 1_555
O2_2 Zn1A 1_555 1_555
O2A_2 Zn1 1_555 1_555
O3_2 Zn1 1_555 1_555
O3A_2 Zn1A 1_555 1_555
N3A_2 Zn1A 1_555 1_555
N7A N8A 1_555 1_555
N8A C31A 1_555 1_555
N9A C31A 1_555 1_555
C25A C27 1_555 1_555
C26A C25A 1_555 1_555
C27A C25 1_555 1_555
C28A N7A 1_555 1_555
H28A C28A 1_555 1_555
H29A C28A 1_555 1_555
C29A C26A 1_555 1_555
H30A C29A 1_555 1_555
H31A C29A 1_555 1_555
H32A C29A 1_555 1_555
C30A C27A 1_555 1_555
H33A C30A 1_555 1_555
H34A C30A 1_555 1_555
H35A C30A 1_555 1_555
C31A H36A 1_555 1_555
C32A N7A 1_555 1_555
H37A C32A 1_555 1_555
O8A Zn2 1_555 1_555
H24A O8A 1_555 1_555
H25A O8A 1_555 1_555
O9A Zn2 1_555 1_555
H26A O9A 1_555 1_555
H27A O9A 1_555 1_555
Zn2_2 N9A 1_555 1_555
N9A_2 Zn2 1_555 1_555
N3 C8 1_555 1_555
N6 C16 1_555 1_555
C1 C4 1_555 1_555
C9 C12 1_555 1_555
C20 C21 1_555 1_555
C21 C22 1_555 1_555
N9 C32 1_555 1_555
C25 C28 1_555 1_555
N3A C8A 1_555 1_555
C1A C4A 1_555 1_555
C2A C3A 1_555 1_555
N6A C16A 1_555 1_555
C9A C12A 1_555 1_555
C10A C11A 1_555 1_555
C17A C23A 1_555 1_555
C20A C21A 1_555 1_555
C21A C22A 1_555 1_555
N9A C32A 1_555 1_555
C25A C28A 1_555 1_555
C26A C27A 1_555 1_555

#END
