
#######################################################################
#
#                 Cambridge Crystallographic Data Centre
#                                CCDC 
#
#######################################################################
#
# If this CIF has been generated from an entry in the Cambridge 
# Structural Database, then it will include bibliographic, chemical, 
# crystal, experimental, refinement or atomic coordinate data resulting 
# from the CCDC's data processing and validation procedures.
#
#######################################################################

data_EVADIQ
_chemical_formula_moiety         '(C54 H66 Dy2 N12 O21)n'
_symmetry_cell_setting           triclinic
_symmetry_space_group_name_H-M   'P -1'
_symmetry_Int_Tables_number      2
_space_group_name_Hall           '-P 1'
loop_
_symmetry_equiv_pos_site_id
_symmetry_equiv_pos_as_xyz
1 x,y,z
2 -x,-y,-z
_cell_length_a                   13.6605(10)
_cell_length_b                   15.0103(11)
_cell_length_c                   18.5345(14)
_cell_angle_alpha                69.051(2)
_cell_angle_beta                 71.145(2)
_cell_angle_gamma                65.014(2)
_cell_volume                     3149.85
loop_
_atom_site_label
_atom_site_type_symbol
_atom_site_fract_x
_atom_site_fract_y
_atom_site_fract_z
Dy1 Dy 0.84786(3) 0.49709(3) 0.13764(2)
Dy2 Dy 0.62999(3) 0.50384(2) 0.36986(2)
O1 O 0.4412(5) 0.5216(5) 0.3830(4)
H1 H 0.4352 0.5124 0.3422
H2 H 0.3991 0.5811 0.3873
O2 O 1.4066(5) -0.3864(4) 0.5144(3)
O3 O 1.5173(4) -0.3404(4) 0.4018(3)
O4 O 0.6474(5) 0.3658(4) 0.3247(3)
O5 O 0.0114(5) 1.3724(4) 0.1031(3)
O6 O 0.9228(5) 0.4295(4) 0.2492(3)
O7 O 0.7710(5) 0.3792(4) 0.2126(3)
O8 O 0.0911(5) 1.3972(4) -0.0235(3)
O9 O 0.6940(5) 0.5215(4) 0.4721(3)
H3 H 0.7626 0.5121 0.4573
H4 H 0.6588 0.5809 0.4789
O10 O 0.8228(6) -0.3621(4) 0.1770(3)
O11 O 0.6701(5) 0.6056(4) 0.1205(4)
O12 O 0.5875(5) 0.5828(4) 0.2460(3)
O13 O 0.7332(5) -0.3912(4) 0.3012(4)
O14 O 0.8143(4) 0.3913(4) 0.3661(4)
O15 O 0.8159(6) 0.4459(5) 0.0433(4)
N1 N 0.4294(6) 0.8845(5) 0.0576(4)
N2 N 0.1873(6) 1.0642(5) 0.1463(4)
N3 N 0.8121(8) 0.0955(6) 0.1984(5)
N4 N 0.7047(7) -0.1128(6) 0.3188(5)
N5 N 1.3236(6) -0.0392(5) 0.3682(4)
N6 N 1.0646(6) 0.1296(5) 0.4478(4)
N7 N 0.8349(8) 0.4614(7) -0.0864(5)
C1 C 0.0757(7) 1.3423(6) 0.0442(5)
C2 C 0.5941(6) 0.6327(6) 0.1761(5)
C3 C 0.3515(7) 0.9245(6) 0.1152(5)
C4 C 0.5031(7) 0.7908(6) 0.0777(5)
H5 H 0.5552 0.7623 0.0378
C5 C 0.5048(7) 0.7345(6) 0.1557(5)
C6 C 0.4225(8) 0.7754(6) 0.2160(5)
H6 H 0.4198 0.7386 0.2685
C7 C 0.3459(8) 0.8712(7) 0.1954(5)
H7 H 0.2912 0.9003 0.2340
C8 C 0.2756(7) 1.0304(6) 0.0910(5)
C9 C 0.1240(7) 1.1628(6) 0.1280(5)
H8 H 0.0623 1.1866 0.1655
C10 C 0.1445(7) 1.2299(6) 0.0578(5)
C11 C 0.2325(7) 1.1936(6) 0.0004(5)
H9 H 0.2469 1.2371 -0.0489
C12 C 0.2996(7) 1.0916(6) 0.0169(5)
H10 H 0.3589 1.0655 -0.0210
C13 C 0.7140(7) 0.3340(6) 0.2675(5)
C14 C 0.7550(7) 0.0397(6) 0.2601(5)
C15 C 0.7976(8) 0.1917(7) 0.2012(6)
H11 H 0.8342 0.2309 0.1596
C16 C 0.7296(7) 0.2301(6) 0.2647(5)
C17 C 0.6772(8) 0.1691(6) 0.3276(5)
H12 H 0.6338 0.1932 0.3716
C18 C 0.6885(7) 0.0744(6) 0.3259(5)
H13 H 0.6526 0.0348 0.3676
C19 C 0.7628(7) -0.0583(6) 0.2562(5)
C20 C 0.7102(7) -0.2038(6) 0.3129(5)
H14 H 0.6726 -0.2421 0.3544
C21 C 0.7705(7) -0.2398(6) 0.2464(5)
C22 C 0.8284(8) -0.1817(6) 0.1844(6)
H15 H 0.8691 -0.2046 0.1395
C23 C 0.8253(7) -0.0912(6) 0.1896(5)
H16 H 0.8644 -0.0533 0.1491
C24 C 0.7758(6) -0.3394(6) 0.2412(5)
C25 C 0.9039(6) 0.3751(6) 0.3182(5)
C26 C 1.1521(7) 0.0934(6) 0.3928(5)
C27 C 0.9906(7) 0.2220(7) 0.4228(5)
H17 H 0.9306 0.2490 0.4600
C28 C 0.9988(7) 0.2792(6) 0.3444(5)
C29 C 1.0902(7) 0.2430(6) 0.2893(5)
H18 H 1.1001 0.2807 0.2370
C30 C 1.1668(7) 0.1482(6) 0.3147(5)
H19 H 1.2290 0.1212 0.2788
C31 C 1.2282(7) -0.0118(6) 0.4185(5)
C32 C 1.3881(7) -0.1364(6) 0.3840(5)
H20 H 1.4557 -0.1554 0.3497
C33 C 1.3618(6) -0.2105(6) 0.4475(5)
C34 C 1.2652(7) -0.1800(6) 0.5018(5)
H21 H 1.2465 -0.2263 0.5480
C35 C 1.1977(7) -0.0792(6) 0.4859(5)
H22 H 1.1317 -0.0572 0.5208
C36 C 1.4353(6) -0.3217(6) 0.4560(5)
C37 C 0.8005(9) 0.4959(8) -0.0224(7)
H23 H 0.7609 0.5652 -0.0287
C38 C 0.9026(12) 0.3526(11) -0.0790(8)
H24 H 0.9217 0.3378 -0.1291
H25 H 0.9687 0.3377 -0.0623
H26 H 0.8615 0.3115 -0.0407
C39 C 0.8211(11) 0.5290(11) -0.1668(7)
H27 H 0.8516 0.4885 -0.2041
H28 H 0.7441 0.5658 -0.1668
H29 H 0.8589 0.5761 -0.1811
Dy1_2 Dy -0.15214(3) 1.49709(3) 0.13764(2)
Dy1_3 Dy 0.84786(3) -0.50291(3) 0.13764(2)
Dy1A Dy 0.15214(3) 1.50291(3) -0.13764(2)
Dy2_2 Dy 0.62999(3) -0.49616(2) 0.36986(2)
Dy2_3 Dy 1.62999(3) -0.49616(2) 0.36986(2)
Dy2A Dy 1.37001(3) -0.50384(2) 0.63014(2)
O2A O 0.5934(5) 0.3864(4) 0.4856(3)
O3_2 O 0.5173(4) 0.6596(4) 0.4018(3)
O5_2 O 1.0114(5) 0.3724(4) 0.1031(3)
O8A O 0.9089(5) 0.6028(4) 0.0235(3)
O10_2 O 0.8228(6) 0.6379(4) 0.1770(3)
O13_2 O 0.7332(5) 0.6088(4) 0.3012(4)
O16 O 1.0000 0.0000 0.0000
O17 O 0.3866(10) 0.2861(9) 0.0984(6)
N8 N 0.4970(8) 0.1244(8) 0.1420(6)
C40 C 0.5043(12) 0.0241(11) 0.1791(9)
H30 H 0.5797 -0.0175 0.1819
H31 H 0.4599 0.0198 0.2315
H32 H 0.4782 0.0005 0.1496
C41 C 0.5943(12) 0.1490(12) 0.1113(9)
H33 H 0.6567 0.0891 0.1239
H34 H 0.6032 0.1751 0.0550
H35 H 0.5889 0.1997 0.1340
C42 C 0.4029(13) 0.1957(12) 0.1311(7)
H36 H 0.3413 0.1760 0.1503
O18 O 0.1226(9) 0.7795(9) 0.2071(7)
N9 N 0.0848(9) 0.8570(9) 0.3043(6)
C43 C 0.0321(12) 0.9471(11) 0.3313(8)
H37 H 0.0470 0.9332 0.3822
H38 H 0.0598 0.9992 0.2947
H39 H -0.0461 0.9696 0.3353
C44 C 0.0779(12) 0.8544(12) 0.2346(9)
H40 H 0.0357 0.9142 0.2043
C45 C 0.1600(11) 0.7700(10) 0.3503(7)
H41 H 0.1550 0.7841 0.3982
H42 H 0.1405 0.7110 0.3627
H43 H 0.2342 0.7576 0.3201
O19 O 0.3446(7) 0.5201(7) 0.2763(5)
N10 N 0.4229(8) 0.5456(7) 0.1445(6)
C46 C 0.4117(12) 0.6089(10) 0.0667(7)
H44 H 0.4727 0.5786 0.0289
H45 H 0.3440 0.6156 0.0565
H46 H 0.4108 0.6748 0.0625
C47 C 0.3463(10) 0.5716(10) 0.2094(7)
H47 H 0.2905 0.6349 0.2011
C48 C 0.5074(11) 0.4473(10) 0.1539(9)
H48 H 0.5545 0.4403 0.1035
H49 H 0.5502 0.4400 0.1892
H50 H 0.4743 0.3958 0.1752
O20 O 0.8986(6) 0.4270(6) 0.5003(5)
N11 N 0.9868(8) 0.3968(7) 0.5960(6)
C49 C 0.9862(14) 0.4277(13) 0.6621(8)
H51 H 1.0525 0.3850 0.6820
H52 H 0.9826 0.4972 0.6448
H53 H 0.9233 0.4212 0.7031
C50 C 0.9016(9) 0.4466(9) 0.5596(7)
H54 H 0.8420 0.4980 0.5791
C51 C 1.0789(10) 0.3120(10) 0.5720(9)
H55 H 1.1316 0.2862 0.6050
H56 H 1.0530 0.2592 0.5771
H57 H 1.1131 0.3342 0.5181
O21 O 0.3600(7) 0.2971(6) 0.4943(5)
N12 N 0.3801(9) 0.2265(8) 0.4005(6)
C52 C 0.3912(14) 0.2383(13) 0.3116(9)
H58 H 0.3944 0.1764 0.3050
H59 H 0.3285 0.2934 0.2932
H60 H 0.4574 0.2523 0.2818
C53 C 0.352(2) 0.1419(13) 0.4498(10)
H61 H 0.3631 0.0978 0.4189
H62 H 0.3984 0.1059 0.4882
H63 H 0.2765 0.1637 0.4762
C54 C 0.3740(9) 0.3006(9) 0.4257(7)
loop_
_geom_bond_atom_site_label_1
_geom_bond_atom_site_label_2
_geom_bond_site_symmetry_1
_geom_bond_site_symmetry_2
Dy1 O6 1_555 1_555
Dy2 O1 1_555 1_555
O1 H1 1_555 1_555
H2 O1 1_555 1_555
O2 C36 1_555 1_555
O3 C36 1_555 1_555
O4 Dy2 1_555 1_555
O5 C1 1_555 1_555
O6 C25 1_555 1_555
O7 Dy1 1_555 1_555
O8 C1 1_555 1_555
O9 Dy2 1_555 1_555
H3 O9 1_555 1_555
H4 O9 1_555 1_555
O10 C24 1_555 1_555
O11 Dy1 1_555 1_555
O12 Dy2 1_555 1_555
O13 C24 1_555 1_555
O14 Dy2 1_555 1_555
O15 Dy1 1_555 1_555
N1 C3 1_555 1_555
N2 C8 1_555 1_555
N3 C14 1_555 1_555
N4 C19 1_555 1_555
N5 C31 1_555 1_555
N6 C26 1_555 1_555
N7 C37 1_555 1_555
C1 C10 1_555 1_555
C2 O11 1_555 1_555
C3 C7 1_555 1_555
C4 N1 1_555 1_555
H5 C4 1_555 1_555
C5 C2 1_555 1_555
C6 C5 1_555 1_555
H6 C6 1_555 1_555
C7 C6 1_555 1_555
H7 C7 1_555 1_555
C8 C3 1_555 1_555
C9 N2 1_555 1_555
H8 C9 1_555 1_555
C10 C9 1_555 1_555
C11 C10 1_555 1_555
H9 C11 1_555 1_555
C12 C8 1_555 1_555
H10 C12 1_555 1_555
C13 O4 1_555 1_555
C14 C18 1_555 1_555
C15 N3 1_555 1_555
H11 C15 1_555 1_555
C16 C13 1_555 1_555
C17 C16 1_555 1_555
H12 C17 1_555 1_555
C18 C17 1_555 1_555
H13 C18 1_555 1_555
C19 C14 1_555 1_555
C20 N4 1_555 1_555
H14 C20 1_555 1_555
C21 C20 1_555 1_555
C22 C21 1_555 1_555
H15 C22 1_555 1_555
C23 C19 1_555 1_555
H16 C23 1_555 1_555
C24 C21 1_555 1_555
C25 O14 1_555 1_555
C26 C30 1_555 1_555
C27 N6 1_555 1_555
H17 C27 1_555 1_555
C28 C25 1_555 1_555
C29 C28 1_555 1_555
H18 C29 1_555 1_555
C30 C29 1_555 1_555
H19 C30 1_555 1_555
C31 C26 1_555 1_555
C32 N5 1_555 1_555
H20 C32 1_555 1_555
C33 C32 1_555 1_555
C34 C33 1_555 1_555
H21 C34 1_555 1_555
C35 C31 1_555 1_555
H22 C35 1_555 1_555
C36 C33 1_555 1_555
C37 O15 1_555 1_555
H23 C37 1_555 1_555
C38 N7 1_555 1_555
H24 C38 1_555 1_555
H25 C38 1_555 1_555
H26 C38 1_555 1_555
C39 N7 1_555 1_555
H27 C39 1_555 1_555
H28 C39 1_555 1_555
H29 C39 1_555 1_555
O17 C42 1_555 1_555
N8 C40 1_555 1_555
C40 H30 1_555 1_555
H31 C40 1_555 1_555
H32 C40 1_555 1_555
C41 N8 1_555 1_555
H33 C41 1_555 1_555
H34 C41 1_555 1_555
H35 C41 1_555 1_555
C42 N8 1_555 1_555
H36 C42 1_555 1_555
O18 C44 1_555 1_555
N9 C43 1_555 1_555
C43 H37 1_555 1_555
H38 C43 1_555 1_555
H39 C43 1_555 1_555
C44 N9 1_555 1_555
H40 C44 1_555 1_555
C45 N9 1_555 1_555
H41 C45 1_555 1_555
H42 C45 1_555 1_555
H43 C45 1_555 1_555
O19 C47 1_555 1_555
N10 C46 1_555 1_555
C46 H44 1_555 1_555
H45 C46 1_555 1_555
H46 C46 1_555 1_555
C47 N10 1_555 1_555
H47 C47 1_555 1_555
C48 N10 1_555 1_555
H48 C48 1_555 1_555
H49 C48 1_555 1_555
H50 C48 1_555 1_555
O20 C50 1_555 1_555
N11 C49 1_555 1_555
C49 H51 1_555 1_555
H52 C49 1_555 1_555
H53 C49 1_555 1_555
C50 N11 1_555 1_555
H54 C50 1_555 1_555
C51 N11 1_555 1_555
H55 C51 1_555 1_555
H56 C51 1_555 1_555
H57 C51 1_555 1_555
O21 C54 1_555 1_555
N12 C52 1_555 1_555
C52 H58 1_555 1_555
H59 C52 1_555 1_555
H60 C52 1_555 1_555
C53 N12 1_555 1_555
H61 C53 1_555 1_555
H62 C53 1_555 1_555
H63 C53 1_555 1_555
C54 N12 1_555 1_555
Dy1_2 O5 1_555 1_555
Dy1_3 O10 1_555 1_555
Dy1A O8 1_555 1_555
Dy2_2 O13 1_555 1_555
Dy2_3 O3 1_555 1_555
Dy2A O2 1_555 1_555
O2A Dy2 1_555 1_555
O3_2 Dy2 1_555 1_555
O5_2 Dy1 1_555 1_555
O8A Dy1 1_555 1_555
O10_2 Dy1 1_555 1_555
O13_2 Dy2 1_555 1_555
O7 C13 1_555 1_555
O12 C2 1_555 1_555
C4 C5 1_555 1_555
C11 C12 1_555 1_555
C15 C16 1_555 1_555
C22 C23 1_555 1_555
C27 C28 1_555 1_555
C34 C35 1_555 1_555

#END
