
#######################################################################
#
#                 Cambridge Crystallographic Data Centre
#                                CCDC 
#
#######################################################################
#
# If this CIF has been generated from an entry in the Cambridge 
# Structural Database, then it will include bibliographic, chemical, 
# crystal, experimental, refinement or atomic coordinate data resulting 
# from the CCDC's data processing and validation procedures.
#
#######################################################################

data_TUBLIN
_chemical_formula_moiety         '(C69 H61 Cd2 N5 O14)n'
_symmetry_cell_setting           triclinic
_symmetry_space_group_name_H-M   'P -1'
_symmetry_Int_Tables_number      2
_space_group_name_Hall           '-P 1'
loop_
_symmetry_equiv_pos_site_id
_symmetry_equiv_pos_as_xyz
1 x,y,z
2 -x,-y,-z
_cell_length_a                   10.128(6)
_cell_length_b                   12.648(7)
_cell_length_c                   15.467(9)
_cell_angle_alpha                106.916(8)
_cell_angle_beta                 104.122(9)
_cell_angle_gamma                104.247(8)
_cell_volume                     1727.6
loop_
_atom_site_label
_atom_site_type_symbol
_atom_site_fract_x
_atom_site_fract_y
_atom_site_fract_z
O1 O 0.2676(5) -0.0208(5) -0.1183(4)
Cd1 Cd 0.53107(6) 0.03352(5) 0.14654(4)
O2 O 0.6001(6) 0.0046(4) 0.2886(3)
O3 O 0.4063(6) 0.0588(4) 0.2755(4)
O4 O 0.3900(5) 0.0827(4) 0.0372(4)
O5 O -0.3994(5) -0.3343(5) 0.1415(4)
O6 O -0.5871(5) -0.4086(4) 0.2465(4)
N1 N 0.3539(6) -0.1505(5) 0.0731(4)
N2 N -1.3538(6) -0.7639(5) 0.2167(4)
C1 C -0.0192(8) -0.2148(6) 0.1614(5)
H1 H 0.0689 -0.1605 0.2059
C2 C 0.1314(7) 0.0166(6) -0.0164(5)
C3 C 0.2741(8) 0.0290(7) -0.0330(6)
C4 C -1.1451(8) -0.5911(7) 0.2629(6)
C5 C 0.6205(8) 0.0041(7) 0.4728(6)
H2 H 0.7021 0.0065 0.4549
C6 C 0.0028(8) -0.0591(7) -0.0884(5)
H3 H 0.0042 -0.1003 -0.1485
C7 C -0.2722(8) -0.3098(7) 0.1227(6)
C8 C 0.5016(9) 0.0140(6) 0.4139(5)
C9 C 0.5003(9) 0.0261(6) 0.3195(5)
C10 C 0.3713(8) -0.2428(7) 0.0157(5)
H4 H 0.4595 -0.2341 0.0055
C11 C -0.9947(8) -0.5391(6) 0.2645(6)
C12 C 0.1115(8) -0.2693(6) 0.0473(5)
C13 C -1.2172(7) -0.7124(6) 0.2243(5)
H5 H -1.1667 -0.7607 0.2025
C14 C -0.0234(8) -0.2787(7) 0.0714(6)
C15 C -0.1410(8) -0.2282(6) 0.1883(6)
H6 H -0.1349 -0.1831 0.2495
C16 C -0.8980(8) -0.5997(7) 0.2666(6)
H7 H -0.9248 -0.6730 0.2714
C17 C 0.3803(9) 0.0093(7) 0.4412(6)
H8 H 0.2991 0.0152 0.4018
C18 C 0.2271(8) -0.1639(6) 0.0889(5)
H9 H 0.2162 -0.0990 0.1300
C19 C 0.1272(8) 0.0744(7) 0.0725(5)
H10 H 0.2128 0.1243 0.1223
C20 C 0.2622(9) -0.3525(7) -0.0298(5)
H11 H 0.2758 -0.4159 -0.0707
C21 C -1.4261(8) -0.6945(7) 0.2466(6)
H12 H -1.5218 -0.7287 0.2409
C22 C -0.2812(8) -0.3720(7) 0.0297(6)
H13 H -0.3701 -0.4231 -0.0159
C23 C -1.2219(9) -0.5215(8) 0.2951(7)
H14 H -1.1778 -0.4401 0.3227
C24 C -0.1570(9) -0.3574(7) 0.0056(6)
H15 H -0.1629 -0.4012 -0.0559
C25 C -0.9514(8) -0.4309(7) 0.2568(6)
H16 H -1.0148 -0.3888 0.2543
C26 C 0.1326(8) -0.3643(7) -0.0122(6)
H17 H 0.0588 -0.4371 -0.0408
C27 C -0.5414(8) -0.2949(6) 0.2416(6)
H18 H -0.5423 -0.2363 0.2980
H19 H -0.6079 -0.2935 0.1853
C28 C -1.3636(9) -0.5722(8) 0.2863(8)
H20 H -1.4169 -0.5257 0.3065
C29 C -0.7212(8) -0.4452(6) 0.2539(5)
C30 C -0.3929(8) -0.2667(7) 0.2364(6)
H21 H -0.3522 -0.1834 0.2498
H22 H -0.3312 -0.2854 0.2841
C31 C -0.7637(8) -0.5542(6) 0.2616(6)
H23 H -0.7007 -0.5966 0.2633
C32 C -0.8158(9) -0.3840(7) 0.2526(6)
H24 H -0.7884 -0.3101 0.2488
O1A O -0.2676(5) 0.0208(5) 0.1183(4)
O4A O -0.3900(5) -0.0827(4) -0.0372(4)
C2A C -0.1314(7) -0.0166(6) 0.0164(5)
C3A C -0.2741(8) -0.0290(7) 0.0330(6)
C6A C -0.0028(8) 0.0591(7) 0.0884(5)
H3A H -0.0042 0.1003 0.1485
C19A C -0.1272(8) -0.0744(7) -0.0725(5)
H10A H -0.2128 -0.1243 -0.1223
O2A O 0.3999(6) -0.0046(4) 0.7114(3)
O3A O 0.5937(6) -0.0588(4) 0.7245(4)
C5A C 0.3795(8) -0.0041(7) 0.5272(6)
H2A H 0.2979 -0.0065 0.5451
C8A C 0.4984(9) -0.0140(6) 0.5861(5)
C9A C 0.4997(9) -0.0261(6) 0.6805(5)
C17A C 0.6197(9) -0.0093(7) 0.5588(6)
H8A H 0.7009 -0.0152 0.5982
Cd1A Cd -0.53107(6) -0.03352(5) -0.14654(4)
O5A O 0.3994(5) 0.3343(5) -0.1415(4)
O6A O 0.5871(5) 0.4086(4) -0.2465(4)
N1A N -0.3539(6) 0.1505(5) -0.0731(4)
N2A N 1.3538(6) 0.7639(5) -0.2167(4)
C1A C 0.0192(8) 0.2148(6) -0.1614(5)
H1A H -0.0689 0.1605 -0.2059
C4A C 1.1451(8) 0.5911(7) -0.2629(6)
C7A C 0.2722(8) 0.3098(7) -0.1227(6)
C10A C -0.3713(8) 0.2428(7) -0.0157(5)
H4A H -0.4595 0.2341 -0.0055
C11A C 0.9947(8) 0.5391(6) -0.2645(6)
C12A C -0.1115(8) 0.2693(6) -0.0473(5)
C13A C 1.2172(7) 0.7124(6) -0.2243(5)
H5A H 1.1667 0.7607 -0.2025
C14A C 0.0234(8) 0.2787(7) -0.0714(6)
C15A C 0.1410(8) 0.2282(6) -0.1883(6)
H6A H 0.1349 0.1831 -0.2495
C16A C 0.8980(8) 0.5997(7) -0.2666(6)
H7A H 0.9248 0.6730 -0.2714
C18A C -0.2271(8) 0.1639(6) -0.0889(5)
H9A H -0.2162 0.0990 -0.1300
C20A C -0.2622(9) 0.3525(7) 0.0298(5)
H11A H -0.2758 0.4159 0.0707
C21A C 1.4261(8) 0.6945(7) -0.2466(6)
H12A H 1.5218 0.7287 -0.2409
C22A C 0.2812(8) 0.3720(7) -0.0297(6)
H13A H 0.3701 0.4231 0.0159
C23A C 1.2219(9) 0.5215(8) -0.2951(7)
H14A H 1.1778 0.4401 -0.3227
C24A C 0.1570(9) 0.3574(7) -0.0056(6)
H15A H 0.1629 0.4012 0.0559
C25A C 0.9514(8) 0.4309(7) -0.2568(6)
H16A H 1.0148 0.3888 -0.2543
C26A C -0.1326(8) 0.3643(7) 0.0122(6)
H17A H -0.0588 0.4371 0.0408
C27A C 0.5414(8) 0.2949(6) -0.2416(6)
H18A H 0.5423 0.2363 -0.2980
H19A H 0.6079 0.2935 -0.1853
C28A C 1.3636(9) 0.5722(8) -0.2863(8)
H20A H 1.4169 0.5257 -0.3065
C29A C 0.7212(8) 0.4452(6) -0.2539(5)
C30A C 0.3929(8) 0.2667(7) -0.2364(6)
H21A H 0.3522 0.1834 -0.2498
H22A H 0.3312 0.2854 -0.2841
C31A C 0.7637(8) 0.5542(6) -0.2616(6)
H23A H 0.7007 0.5966 -0.2633
C32A C 0.8158(9) 0.3840(7) -0.2526(6)
H24A H 0.7884 0.3101 -0.2488
O1_2 O -0.7324(5) -0.0208(5) -0.1183(4)
O1A_2 O 0.7324(5) 0.0208(5) 0.1183(4)
Cd1_2 Cd -1.46893(6) -0.96648(5) 0.14654(4)
Cd1_3 Cd -0.46893(6) 0.03352(5) 0.14654(4)
Cd1A_2 Cd 0.46893(6) -0.03352(5) -0.14654(4)
Cd1A_3 Cd 0.46893(6) -0.03352(5) 0.85346(4)
Cd1A_4 Cd 1.46893(6) 0.96648(5) -0.14654(4)
O2A_2 O -0.6001(6) -0.0046(4) -0.2886(3)
O3A_2 O -0.4063(6) -0.0588(4) -0.2755(4)
N2_2 N 0.6462(6) 0.2361(5) 0.2167(4)
N2A_2 N -0.6462(6) -0.2361(5) -0.2167(4)
O7 O 1.0546(16) 0.2053(14) 0.5918(10)
N3 N 0.9623(11) 0.1740(11) 0.4476(10)
C33 C 0.9589(16) 0.1008(14) 0.3523(10)
H25 H 1.0266 0.1466 0.3319
H26 H 0.8631 0.0745 0.3065
H27 H 0.9847 0.0340 0.3568
C34 C 0.8979(16) 0.2680(13) 0.4589(9)
H28 H 0.8790 0.2860 0.5184
H29 H 0.8088 0.2420 0.4064
H30 H 0.9641 0.3371 0.4591
C35 C 1.0494(18) 0.1411(14) 0.5157(11)
H31 H 1.0920 0.0835 0.5039
O8 O 0.2903(9) 0.2305(7) 0.3408(5)
H32 H 0.3194 0.1746 0.3310
C36 C 0.3465(18) 0.3002(13) 0.4401(8)
H33 H 0.3021 0.2555 0.4733
H34 H 0.3171 0.3690 0.4495
C37 C 0.4988(18) 0.3388(15) 0.4844(13)
H35 H 0.5342 0.2774 0.4583
H36 H 0.5224 0.3582 0.5524
H37 H 0.5430 0.4071 0.4726
loop_
_geom_bond_atom_site_label_1
_geom_bond_atom_site_label_2
_geom_bond_site_symmetry_1
_geom_bond_site_symmetry_2
O1 C3 1_555 1_555
Cd1 O2 1_555 1_555
O2 C9 1_555 1_555
O3 Cd1 1_555 1_555
O4 Cd1 1_555 1_555
O5 C7 1_555 1_555
O6 C27 1_555 1_555
N1 Cd1 1_555 1_555
N2 C13 1_555 1_555
C1 H1 1_555 1_555
C2 C3 1_555 1_555
C3 O4 1_555 1_555
C4 C11 1_555 1_555
C5 H2 1_555 1_555
C6 C2 1_555 1_555
H3 C6 1_555 1_555
C7 C15 1_555 1_555
C8 C5 1_555 1_555
C9 O3 1_555 1_555
C10 N1 1_555 1_555
H4 C10 1_555 1_555
C11 C16 1_555 1_555
C12 C14 1_555 1_555
C13 C4 1_555 1_555
H5 C13 1_555 1_555
C14 C1 1_555 1_555
C15 C1 1_555 1_555
H6 C15 1_555 1_555
C16 H7 1_555 1_555
C17 C8 1_555 1_555
H8 C17 1_555 1_555
C18 N1 1_555 1_555
H9 C18 1_555 1_555
C19 C2 1_555 1_555
H10 C19 1_555 1_555
C20 C10 1_555 1_555
H11 C20 1_555 1_555
C21 N2 1_555 1_555
H12 C21 1_555 1_555
C22 C7 1_555 1_555
H13 C22 1_555 1_555
C23 C4 1_555 1_555
H14 C23 1_555 1_555
C24 C14 1_555 1_555
H15 C24 1_555 1_555
C25 C11 1_555 1_555
H16 C25 1_555 1_555
C26 C12 1_555 1_555
H17 C26 1_555 1_555
C27 H18 1_555 1_555
H19 C27 1_555 1_555
C28 C21 1_555 1_555
H20 C28 1_555 1_555
C29 O6 1_555 1_555
C30 O5 1_555 1_555
H21 C30 1_555 1_555
H22 C30 1_555 1_555
C31 C16 1_555 1_555
H23 C31 1_555 1_555
C32 C25 1_555 1_555
H24 C32 1_555 1_555
O7 C35 1_555 1_555
N3 C33 1_555 1_555
C33 H25 1_555 1_555
H26 C33 1_555 1_555
H27 C33 1_555 1_555
C34 N3 1_555 1_555
H28 C34 1_555 1_555
H29 C34 1_555 1_555
H30 C34 1_555 1_555
C35 N3 1_555 1_555
H31 C35 1_555 1_555
O8 H32 1_555 1_555
C36 O8 1_555 1_555
H33 C36 1_555 1_555
H34 C36 1_555 1_555
C37 C36 1_555 1_555
H35 C37 1_555 1_555
H36 C37 1_555 1_555
H37 C37 1_555 1_555
O1A C3A 1_555 1_555
O4A C3A 1_555 1_555
C2A C3A 1_555 1_555
C6A C19 1_555 1_555
H3A C6A 1_555 1_555
C19A C6 1_555 1_555
H10A C19A 1_555 1_555
O2A C9A 1_555 1_555
O3A C9A 1_555 1_555
C5A C17 1_555 1_555
H2A C5A 1_555 1_555
C8A C5A 1_555 1_555
C9A C8A 1_555 1_555
C17A C5 1_555 1_555
H8A C17A 1_555 1_555
Cd1A O4A 1_555 1_555
O5A C7A 1_555 1_555
O6A C27A 1_555 1_555
N1A Cd1A 1_555 1_555
N2A C13A 1_555 1_555
C1A H1A 1_555 1_555
C4A C11A 1_555 1_555
C7A C15A 1_555 1_555
C10A N1A 1_555 1_555
H4A C10A 1_555 1_555
C11A C16A 1_555 1_555
C12A C14A 1_555 1_555
C13A C4A 1_555 1_555
H5A C13A 1_555 1_555
C14A C1A 1_555 1_555
C15A C1A 1_555 1_555
H6A C15A 1_555 1_555
C16A H7A 1_555 1_555
C18A N1A 1_555 1_555
H9A C18A 1_555 1_555
C20A C10A 1_555 1_555
H11A C20A 1_555 1_555
C21A N2A 1_555 1_555
H12A C21A 1_555 1_555
C22A C7A 1_555 1_555
H13A C22A 1_555 1_555
C23A C4A 1_555 1_555
H14A C23A 1_555 1_555
C24A C14A 1_555 1_555
H15A C24A 1_555 1_555
C25A C11A 1_555 1_555
H16A C25A 1_555 1_555
C26A C12A 1_555 1_555
H17A C26A 1_555 1_555
C27A H18A 1_555 1_555
H19A C27A 1_555 1_555
C28A C21A 1_555 1_555
H20A C28A 1_555 1_555
C29A O6A 1_555 1_555
C30A O5A 1_555 1_555
H21A C30A 1_555 1_555
H22A C30A 1_555 1_555
C31A C16A 1_555 1_555
H23A C31A 1_555 1_555
C32A C25A 1_555 1_555
H24A C32A 1_555 1_555
O1_2 Cd1A 1_555 1_555
O1A_2 Cd1 1_555 1_555
Cd1_2 N2 1_555 1_555
Cd1_3 O1A 1_555 1_555
Cd1A_2 O1 1_555 1_555
Cd1A_3 O2A 1_555 1_555
Cd1A_4 N2A 1_555 1_555
O2A_2 Cd1A 1_555 1_555
O3A_2 Cd1A 1_555 1_555
N2_2 Cd1 1_555 1_555
N2A_2 Cd1A 1_555 1_555
C8 C9 1_555 1_555
C12 C18 1_555 1_555
C20 C26 1_555 1_555
C22 C24 1_555 1_555
C23 C28 1_555 1_555
C27 C30 1_555 1_555
C29 C31 1_555 1_555
C29 C32 1_555 1_555
C2A C6A 1_555 1_555
C2A C19A 1_555 1_555
O3A Cd1A_3 1_555 1_555
C8A C17A 1_555 1_555
C12A C18A 1_555 1_555
C20A C26A 1_555 1_555
C22A C24A 1_555 1_555
C23A C28A 1_555 1_555
C27A C30A 1_555 1_555
C29A C31A 1_555 1_555
C29A C32A 1_555 1_555

#END
