
#######################################################################
#
#                 Cambridge Crystallographic Data Centre
#                                CCDC 
#
#######################################################################
#
# If this CIF has been generated from an entry in the Cambridge 
# Structural Database, then it will include bibliographic, chemical, 
# crystal, experimental, refinement or atomic coordinate data resulting 
# from the CCDC's data processing and validation procedures.
#
#######################################################################

data_GAXKUN
_chemical_formula_moiety         'C48 Cd5 N6 O10'
_symmetry_cell_setting           orthorhombic
_symmetry_space_group_name_H-M   'P n n a'
_symmetry_Int_Tables_number      52
_space_group_name_Hall           '-P 2a 2bc'
loop_
_symmetry_equiv_pos_site_id
_symmetry_equiv_pos_as_xyz
1 x,y,z
2 1/2-x,-y,z
3 1/2-x,1/2+y,1/2-z
4 x,1/2-y,1/2-z
5 -x,-y,-z
6 1/2+x,y,-z
7 1/2+x,1/2-y,1/2+z
8 -x,1/2+y,1/2+z
_cell_length_a                   14.498(3)
_cell_length_b                   14.899(3)
_cell_length_c                   17.473(4)
_cell_angle_alpha                90
_cell_angle_beta                 90
_cell_angle_gamma                90
_cell_volume                     3774.27
loop_
_atom_site_label
_atom_site_type_symbol
_atom_site_fract_x
_atom_site_fract_y
_atom_site_fract_z
Cd1 Cd 0.7500 0.5000 0.846332(14)
O1 O 0.89023(18) 0.4583(2) 0.90329(16)
O2 O 0.7718(2) 0.3725(2) 0.92277(19)
N1 N 0.66749(17) 0.42067(16) 0.75636(13)
C1 C 0.8539(2) 0.3925(2) 0.93480(16)
C2 C 0.5763(2) 0.4202(2) 0.7562(2)
C3 C 0.7082(3) 0.3666(3) 0.7055(2)
C4 C 0.9087(2) 0.3377(2) 0.99032(17)
C5 C 0.5237(2) 0.3710(3) 0.7063(2)
C6 C 0.6606(3) 0.3150(3) 0.65399(19)
C7 C 0.9970(2) 0.3621(3) 1.00904(19)
C8 C 0.8712(3) 0.2637(3) 1.0254(2)
C9 C 0.5656(2) 0.3150(2) 0.65217(15)
C10 C 1.0482(2) 0.3123(2) 1.0617(2)
C11 C 0.9212(3) 0.2140(3) 1.0782(2)
C12 C 0.5114(2) 0.2626(2) 0.59649(16)
O1A O 0.60977(18) 0.5417(2) 0.90329(16)
O2A O 0.7282(2) 0.6275(2) 0.92277(19)
N1A N 0.83251(17) 0.57933(16) 0.75636(13)
C1A C 0.6461(2) 0.6075(2) 0.93480(16)
C4A C 0.5913(2) 0.6623(2) 0.99032(17)
C7A C 0.5030(2) 0.6379(3) 1.00904(19)
C8A C 0.6288(3) 0.7363(3) 1.0254(2)
C10A C 0.4518(2) 0.6877(2) 1.0617(2)
C11A C 0.5788(3) 0.7860(3) 1.0782(2)
C12F C 1.0114(2) 0.2374(2) 1.09649(16)
C12G C 0.4886(2) 0.7626(2) 1.09649(16)
C11F C 0.4212(3) 0.2860(3) 0.5782(2)
C10F C 0.5482(2) 0.1877(2) 0.5617(2)
C9F C 1.0656(2) 0.1850(2) 1.15217(15)
C9G C 0.4344(2) 0.8150(2) 1.15217(15)
C8F C 0.3712(3) 0.2363(3) 0.5254(2)
C7F C 0.4970(2) 0.1379(3) 0.50904(19)
C6F C 1.1606(3) 0.1850(3) 1.15399(19)
C5F C 1.0237(2) 0.1290(3) 1.2063(2)
C6G C 0.3394(3) 0.8150(3) 1.15399(19)
C5G C 0.4763(2) 0.8710(3) 1.2063(2)
C4F C 0.4087(2) 0.1623(2) 0.49032(17)
C3F C 1.2082(3) 0.1334(3) 1.2055(2)
C2F C 1.0763(2) 0.0798(2) 1.2562(2)
C3G C 0.2918(3) 0.8666(3) 1.2055(2)
C2G C 0.4237(2) 0.9202(2) 1.2562(2)
C1F C 0.3539(2) 0.1075(2) 0.43480(16)
N1F N 1.16749(17) 0.07933(16) 1.25636(13)
N1G N 0.33251(17) 0.92067(16) 1.25636(13)
O1F O 0.39023(18) 0.0417(2) 0.40329(16)
O2F O 0.2718(2) 0.1275(2) 0.42277(19)
Cd1F Cd 1.2500 0.0000 1.346332(14)
Cd1F_2 Cd 0.2500 1.0000 1.346332(14)
Cd1F_3 Cd 0.2500 0.0000 0.346332(14)
O2F_2 O 1.2718(2) 0.1275(2) 1.42277(19)
N1G_2 N 1.33251(17) -0.07933(16) 1.25636(13)
O1F_2 O 1.39023(18) 0.0417(2) 1.40329(16)
O1G O 1.10977(18) -0.0417(2) 1.40329(16)
O2G O 1.2282(2) -0.1275(2) 1.42277(19)
C1F_2 C 1.3539(2) 0.1075(2) 1.43480(16)
C4F_2 C 1.4087(2) 0.1623(2) 1.49032(17)
C7F_2 C 1.4970(2) 0.1379(3) 1.50904(19)
C8F_2 C 1.3712(3) 0.2363(3) 1.5254(2)
C10F_2 C 1.5482(2) 0.1877(2) 1.5617(2)
C11F_2 C 1.4212(3) 0.2860(3) 1.5782(2)
C12_2 C 1.5114(2) 0.2626(2) 1.59649(16)
C9_2 C 1.5656(2) 0.3150(2) 1.65217(15)
C5_2 C 1.5237(2) 0.3710(3) 1.7063(2)
C6_2 C 1.6606(3) 0.3150(3) 1.65399(19)
C2_2 C 1.5763(2) 0.4202(2) 1.7562(2)
C3_2 C 1.7082(3) 0.3666(3) 1.7055(2)
N1_2 N 1.66749(17) 0.42067(16) 1.75636(13)
Cd1_2 Cd 1.7500 0.5000 1.846332(14)
loop_
_geom_bond_atom_site_label_1
_geom_bond_atom_site_label_2
_geom_bond_site_symmetry_1
_geom_bond_site_symmetry_2
Cd1 O1 1_555 1_555
O1 C1 1_555 1_555
O2 Cd1 1_555 1_555
N1 Cd1 1_555 1_555
C1 O2 1_555 1_555
C2 N1 1_555 1_555
C3 N1 1_555 1_555
C4 C1 1_555 1_555
C5 C2 1_555 1_555
C6 C3 1_555 1_555
C7 C4 1_555 1_555
C8 C4 1_555 1_555
C9 C5 1_555 1_555
C10 C7 1_555 1_555
C11 C8 1_555 1_555
C12 C9 1_555 1_555
O1A Cd1 1_555 1_555
O2A Cd1 1_555 1_555
N1A Cd1 1_555 1_555
C1A O1A 1_555 1_555
C4A C1A 1_555 1_555
C7A C4A 1_555 1_555
C8A C4A 1_555 1_555
C10A C7A 1_555 1_555
C11A C8A 1_555 1_555
C12F C10 1_555 1_555
C12G C10A 1_555 1_555
C11F C12 1_555 1_555
C10F C12 1_555 1_555
C9F C12F 1_555 1_555
C9G C12G 1_555 1_555
C8F C11F 1_555 1_555
C7F C10F 1_555 1_555
C6F C9F 1_555 1_555
C5F C9F 1_555 1_555
C6G C9G 1_555 1_555
C5G C9G 1_555 1_555
C4F C8F 1_555 1_555
C3F C6F 1_555 1_555
C2F C5F 1_555 1_555
C3G C6G 1_555 1_555
C2G C5G 1_555 1_555
C1F C4F 1_555 1_555
N1F C3F 1_555 1_555
N1G C3G 1_555 1_555
O1F C1F 1_555 1_555
O2F C1F 1_555 1_555
Cd1F N1F 1_555 1_555
Cd1F_2 N1G 1_555 1_555
Cd1F_3 O1F 1_555 1_555
O2F_2 Cd1F 1_555 1_555
N1G_2 Cd1F 1_555 1_555
O1F_2 Cd1F 1_555 1_555
O1G Cd1F 1_555 1_555
O2G Cd1F 1_555 1_555
C1F_2 O2F_2 1_555 1_555
C4F_2 C1F_2 1_555 1_555
C7F_2 C4F_2 1_555 1_555
C8F_2 C4F_2 1_555 1_555
C10F_2 C7F_2 1_555 1_555
C11F_2 C8F_2 1_555 1_555
C12_2 C10F_2 1_555 1_555
C9_2 C12_2 1_555 1_555
C5_2 C9_2 1_555 1_555
C6_2 C9_2 1_555 1_555
C2_2 C5_2 1_555 1_555
C3_2 C6_2 1_555 1_555
N1_2 C2_2 1_555 1_555
Cd1_2 N1_2 1_555 1_555
C6 C9 1_555 1_555
C11 C12F 1_555 1_555
O2A C1A 1_555 1_555
C11A C12G 1_555 1_555
C7F C4F 1_555 1_555
C2F N1F 1_555 1_555
C2G N1G 1_555 1_555
O2F Cd1F_3 1_555 1_555
O1F_2 C1F_2 1_555 1_555
C11F_2 C12_2 1_555 1_555
C3_2 N1_2 1_555 1_555

#END
