
#######################################################################
#
#                 Cambridge Crystallographic Data Centre
#                                CCDC 
#
#######################################################################
#
# If this CIF has been generated from an entry in the Cambridge 
# Structural Database, then it will include bibliographic, chemical, 
# crystal, experimental, refinement or atomic coordinate data resulting 
# from the CCDC's data processing and validation procedures.
#
#######################################################################

data_GAXKOH
_chemical_formula_moiety         '(C72 H54 Cd3 K1 N6 O15)n'
_symmetry_cell_setting           trigonal
_symmetry_space_group_name_H-M   'P -3 1 c'
_symmetry_Int_Tables_number      163
_space_group_name_Hall           '-P 3 2c'
loop_
_symmetry_equiv_pos_site_id
_symmetry_equiv_pos_as_xyz
1 x,y,z
2 -y,x-y,z
3 -x+y,-x,z
4 -y,-x,1/2-z
5 -x+y,y,1/2-z
6 x,x-y,1/2-z
7 -x,-y,-z
8 y,-x+y,-z
9 x-y,x,-z
10 y,x,1/2+z
11 x-y,-y,1/2+z
12 -x,-x+y,1/2+z
_cell_length_a                   18.007(3)
_cell_length_b                   18.007(3)
_cell_length_c                   19.288(4)
_cell_angle_alpha                90
_cell_angle_beta                 90
_cell_angle_gamma                120
_cell_volume                     5416.27
loop_
_atom_site_label
_atom_site_type_symbol
_atom_site_fract_x
_atom_site_fract_y
_atom_site_fract_z
Cd1 Cd 0.207233(19) 0.792767(19) 0.7500
K1 K 0.3333 0.6667 0.7500
O1 O 0.1332(2) 0.7172(3) 0.65283(17)
O2 O 0.2271(2) 0.6798(3) 0.68219(17)
O3 O 0.1285(3) 0.8715(3) 0.7500
N1 N -0.1016(3) 0.5921(3) 0.32220(19)
C1 C 0.1594(3) 0.6342(3) 0.5720(2)
C2 C 0.1014(3) 0.6353(3) 0.5254(2)
H1 H 0.0711 0.6627 0.5377
C3 C 0.0876(3) 0.5965(3) 0.4608(2)
C4 C 0.1339(5) 0.5567(5) 0.4442(3)
H2 H 0.1261 0.5305 0.4012
C5 C 0.1914(5) 0.5553(5) 0.4906(3)
H3 H 0.2226 0.5288 0.4784
C6 C 0.2029(4) 0.5926(4) 0.5548(3)
H4 H 0.2403 0.5897 0.5865
C7 C 0.1744(3) 0.6798(3) 0.6408(2)
C8 C -0.0527(4) 0.5606(5) 0.3061(3)
H5 H -0.0598 0.5365 0.2622
C9 C 0.0081(4) 0.5598(5) 0.3480(3)
H6 H 0.0393 0.5345 0.3326
C10 C 0.0232(3) 0.5961(3) 0.4125(2)
C11 C -0.0293(5) 0.6270(6) 0.4299(3)
H7 H -0.0241 0.6508 0.4737
C12 C -0.0898(5) 0.6243(6) 0.3851(3)
H8 H -0.1241 0.6462 0.3999
Cd1A Cd 0.207233(19) 0.414466(27) 0.7500
Cd1B Cd 0.585534(27) 0.792767(19) 0.7500
Cd1G Cd -0.207233(19) 0.585534(27) 0.2500
Cd1H Cd 0.414466(27) 0.207233(19) 0.2500
Cd1F Cd 0.792767(19) 1.207233(19) 0.2500
Cd1H_2 Cd 0.414466(27) 1.207233(19) 1.2500
Cd1G_2 Cd 0.792767(19) 0.585534(27) 1.2500
Cd1F_2 Cd -0.207233(19) 0.207233(19) 1.2500
O1A O 0.2828(3) 0.4160(4) 0.65283(17)
O1B O 0.5840(4) 0.8668(2) 0.65283(17)
O1C O 0.2828(3) 0.8668(2) 0.84717(17)
O1D O 0.5840(4) 0.7172(3) 0.84717(17)
O1E O 0.1332(2) 0.4160(4) 0.84717(17)
O2A O 0.3202(3) 0.5473(4) 0.68219(17)
O2B O 0.4527(4) 0.7729(2) 0.68219(17)
O2C O 0.3202(3) 0.7729(2) 0.81781(17)
O2D O 0.4527(4) 0.6798(3) 0.81781(17)
O2E O 0.2271(2) 0.5473(4) 0.81781(17)
O3A O 0.1285(3) 0.2570(4) 0.7500
O3B O 0.7430(4) 0.8715(3) 0.7500
N1A N 0.4079(3) 0.3063(4) 0.32220(19)
N1B N 0.6937(4) 1.1016(3) 0.32220(19)
N1C N 0.4079(3) 1.1016(3) 1.17780(19)
N1D N 0.6937(4) 0.5921(3) 1.17780(19)
N1E N -0.1016(3) 0.3063(4) 1.17780(19)
N1H N 0.3063(4) 0.8984(3) 0.67780(19)
N1K N 0.1016(3) 0.6937(4) 0.82220(19)
N1F N 0.1016(3) 0.4079(3) 0.67780(19)
N1J N 0.3063(4) 0.4079(3) 0.82220(19)
N1G N 0.5921(3) 0.6937(4) 0.67780(19)
N1I N 0.5921(3) 0.8984(3) 0.82220(19)
C1A C 0.3658(3) 0.5252(4) 0.5720(2)
C1B C 0.4748(4) 0.8406(3) 0.5720(2)
C1C C 0.3658(3) 0.8406(3) 0.9280(2)
C1D C 0.4748(4) 0.6342(3) 0.9280(2)
C1E C 0.1594(3) 0.5252(4) 0.9280(2)
C2A C 0.3647(3) 0.4661(4) 0.5254(2)
C2B C 0.5339(4) 0.8986(3) 0.5254(2)
C2C C 0.3647(3) 0.8986(3) 0.9746(2)
C2D C 0.5339(4) 0.6353(3) 0.9746(2)
C2E C 0.1014(3) 0.4661(4) 0.9746(2)
H1A H 0.3373 0.4084 0.5377
H1B H 0.5916 0.9289 0.5377
H1C H 0.3373 0.9289 0.9623
H1D H 0.5916 0.6627 0.9623
H1E H 0.0711 0.4084 0.9623
C3A C 0.4035(3) 0.4911(4) 0.4608(2)
C3B C 0.5089(4) 0.9124(3) 0.4608(2)
C3C C 0.4035(3) 0.9124(3) 1.0392(2)
C3D C 0.5089(4) 0.5965(3) 1.0392(2)
C3E C 0.0876(3) 0.4911(4) 1.0392(2)
C4A C 0.4433(5) 0.5772(7) 0.4442(3)
C4B C 0.4228(7) 0.8661(5) 0.4442(3)
C4C C 0.4433(5) 0.8661(5) 1.0558(3)
C4D C 0.4228(7) 0.5567(5) 1.0558(3)
C4E C 0.1339(5) 0.5772(7) 1.0558(3)
H2A H 0.4695 0.5956 0.4012
H2B H 0.4044 0.8739 0.4012
H2C H 0.4695 0.8739 1.0988
H2D H 0.4044 0.5305 1.0988
H2E H 0.1261 0.5956 1.0988
C5A C 0.4447(5) 0.6361(7) 0.4906(3)
C5B C 0.3639(7) 0.8086(5) 0.4906(3)
C5C C 0.4447(5) 0.8086(5) 1.0094(3)
C5D C 0.3639(7) 0.5553(5) 1.0094(3)
C5E C 0.1914(5) 0.6361(7) 1.0094(3)
H3A H 0.4712 0.6938 0.4784
H3B H 0.3062 0.7774 0.4784
H3C H 0.4712 0.7774 1.0216
H3D H 0.3062 0.5288 1.0216
H3E H 0.2226 0.6938 1.0216
C6A C 0.4074(4) 0.6103(6) 0.5548(3)
C6B C 0.3897(6) 0.7971(4) 0.5548(3)
C6C C 0.4074(4) 0.7971(4) 0.9452(3)
C6D C 0.3897(6) 0.5926(4) 0.9452(3)
C6E C 0.2029(4) 0.6103(6) 0.9452(3)
H4A H 0.4103 0.6506 0.5865
H4B H 0.3494 0.7597 0.5865
H4C H 0.4103 0.7597 0.9135
H4D H 0.3494 0.5897 0.9135
H4E H 0.2403 0.6506 0.9135
C7A C 0.3202(3) 0.4946(4) 0.6408(2)
C7B C 0.5054(4) 0.8256(3) 0.6408(2)
C7C C 0.3202(3) 0.8256(3) 0.8592(2)
C7D C 0.5054(4) 0.6798(3) 0.8592(2)
C7E C 0.1744(3) 0.4946(4) 0.8592(2)
C8A C 0.4394(5) 0.3867(6) 0.3061(3)
C8B C 0.6133(6) 1.0527(4) 0.3061(3)
C8C C 0.4394(5) 1.0527(4) 1.1939(3)
C8D C 0.6133(6) 0.5606(5) 1.1939(3)
C8E C -0.0527(4) 0.3867(6) 1.1939(3)
H5A H 0.4635 0.4037 0.2622
H5B H 0.5963 1.0598 0.2622
H5C H 0.4635 1.0598 1.2378
H5D H 0.5963 0.5365 1.2378
H5E H -0.0598 0.4037 1.2378
C9A C 0.4402(5) 0.4483(6) 0.3480(3)
C9B C 0.5517(6) 0.9919(4) 0.3480(3)
C9C C 0.4402(5) 0.9919(4) 1.1520(3)
C9D C 0.5517(6) 0.5598(5) 1.1520(3)
C9E C 0.0081(4) 0.4483(6) 1.1520(3)
H6A H 0.4655 0.5048 0.3326
H6B H 0.4952 0.9607 0.3326
H6C H 0.4655 0.9607 1.1674
H6D H 0.4952 0.5345 1.1674
H6E H 0.0393 0.5048 1.1674
C10A C 0.4039(3) 0.4271(4) 0.4125(2)
C10B C 0.5729(4) 0.9768(3) 0.4125(2)
C10C C 0.4039(3) 0.9768(3) 1.0875(2)
C10D C 0.5729(4) 0.5961(3) 1.0875(2)
C10E C 0.0232(3) 0.4271(4) 1.0875(2)
C11A C 0.3730(6) 0.3437(8) 0.4299(3)
C11B C 0.6563(8) 1.0293(5) 0.4299(3)
C11C C 0.3730(6) 1.0293(5) 1.0701(3)
C11D C 0.6563(8) 0.6270(6) 1.0701(3)
C11E C -0.0293(5) 0.3437(8) 1.0701(3)
H7A H 0.3492 0.3251 0.4737
H7B H 0.6749 1.0241 0.4737
H7C H 0.3492 1.0241 1.0263
H7D H 0.6749 0.6508 1.0263
H7E H -0.0241 0.3251 1.0263
C12A C 0.3757(6) 0.2859(8) 0.3851(3)
C12B C 0.7141(8) 1.0898(5) 0.3851(3)
C12C C 0.3757(6) 1.0898(5) 1.1149(3)
C12D C 0.7141(8) 0.6243(6) 1.1149(3)
C12E C -0.0898(5) 0.2859(8) 1.1149(3)
H8A H 0.3538 0.2297 0.3999
H8B H 0.7703 1.1241 0.3999
H8C H 0.3538 1.1241 1.1001
H8D H 0.7703 0.6462 1.1001
H8E H -0.1241 0.2297 1.1001
loop_
_geom_bond_atom_site_label_1
_geom_bond_atom_site_label_2
_geom_bond_site_symmetry_1
_geom_bond_site_symmetry_2
Cd1 O1 1_555 1_555
K1 O2 1_555 1_555
O1 C7 1_555 1_555
O2 C7 1_555 1_555
O3 Cd1 1_555 1_555
N1 C8 1_555 1_555
C1 C2 1_555 1_555
C2 H1 1_555 1_555
C3 C2 1_555 1_555
C4 C3 1_555 1_555
H2 C4 1_555 1_555
C5 C4 1_555 1_555
H3 C5 1_555 1_555
C6 C1 1_555 1_555
H4 C6 1_555 1_555
C7 C1 1_555 1_555
C8 H5 1_555 1_555
C9 C8 1_555 1_555
H6 C9 1_555 1_555
C10 C3 1_555 1_555
C11 C10 1_555 1_555
H7 C11 1_555 1_555
C12 N1 1_555 1_555
H8 C12 1_555 1_555
Cd1A O1A 1_555 1_555
Cd1B O1B 1_555 1_555
Cd1G N1 1_555 1_555
Cd1H N1A 1_555 1_555
Cd1F N1B 1_555 1_555
Cd1H_2 N1C 1_555 1_555
Cd1G_2 N1D 1_555 1_555
Cd1F_2 N1E 1_555 1_555
O1A C7A 1_555 1_555
O1B C7B 1_555 1_555
O1C Cd1 1_555 1_555
O1D Cd1B 1_555 1_555
O1E Cd1A 1_555 1_555
O2A K1 1_555 1_555
O2B K1 1_555 1_555
O2C K1 1_555 1_555
O2D K1 1_555 1_555
O2E K1 1_555 1_555
O3A Cd1A 1_555 1_555
O3B Cd1B 1_555 1_555
N1A C8A 1_555 1_555
N1B C8B 1_555 1_555
N1C C8C 1_555 1_555
N1D C8D 1_555 1_555
N1E C8E 1_555 1_555
N1H Cd1 1_555 1_555
N1K Cd1 1_555 1_555
N1F Cd1A 1_555 1_555
N1J Cd1A 1_555 1_555
N1G Cd1B 1_555 1_555
N1I Cd1B 1_555 1_555
C1A C2A 1_555 1_555
C1B C2B 1_555 1_555
C1C C2C 1_555 1_555
C1D C2D 1_555 1_555
C1E C2E 1_555 1_555
C2A H1A 1_555 1_555
C2B H1B 1_555 1_555
C2C H1C 1_555 1_555
C2D H1D 1_555 1_555
C2E H1E 1_555 1_555
C3A C2A 1_555 1_555
C3B C2B 1_555 1_555
C3C C2C 1_555 1_555
C3D C2D 1_555 1_555
C3E C2E 1_555 1_555
C4A C3A 1_555 1_555
C4B C3B 1_555 1_555
C4C C3C 1_555 1_555
C4D C3D 1_555 1_555
C4E C3E 1_555 1_555
H2A C4A 1_555 1_555
H2B C4B 1_555 1_555
H2C C4C 1_555 1_555
H2D C4D 1_555 1_555
H2E C4E 1_555 1_555
C5A C4A 1_555 1_555
C5B C4B 1_555 1_555
C5C C4C 1_555 1_555
C5D C4D 1_555 1_555
C5E C4E 1_555 1_555
H3A C5A 1_555 1_555
H3B C5B 1_555 1_555
H3C C5C 1_555 1_555
H3D C5D 1_555 1_555
H3E C5E 1_555 1_555
C6A C1A 1_555 1_555
C6B C1B 1_555 1_555
C6C C1C 1_555 1_555
C6D C1D 1_555 1_555
C6E C1E 1_555 1_555
H4A C6A 1_555 1_555
H4B C6B 1_555 1_555
H4C C6C 1_555 1_555
H4D C6D 1_555 1_555
H4E C6E 1_555 1_555
C7A O2A 1_555 1_555
C7B O2B 1_555 1_555
C7C O1C 1_555 1_555
C7D O1D 1_555 1_555
C7E O1E 1_555 1_555
C8A H5A 1_555 1_555
C8B H5B 1_555 1_555
C8C H5C 1_555 1_555
C8D H5D 1_555 1_555
C8E H5E 1_555 1_555
C9A C8A 1_555 1_555
C9B C8B 1_555 1_555
C9C C8C 1_555 1_555
C9D C8D 1_555 1_555
C9E C8E 1_555 1_555
H6A C9A 1_555 1_555
H6B C9B 1_555 1_555
H6C C9C 1_555 1_555
H6D C9D 1_555 1_555
H6E C9E 1_555 1_555
C10A C3A 1_555 1_555
C10B C3B 1_555 1_555
C10C C3C 1_555 1_555
C10D C3D 1_555 1_555
C10E C3E 1_555 1_555
C11A C10A 1_555 1_555
C11B C10B 1_555 1_555
C11C C10C 1_555 1_555
C11D C10D 1_555 1_555
C11E C10E 1_555 1_555
H7A C11A 1_555 1_555
H7B C11B 1_555 1_555
H7C C11C 1_555 1_555
H7D C11D 1_555 1_555
H7E C11E 1_555 1_555
C12A N1A 1_555 1_555
C12B N1B 1_555 1_555
C12C N1C 1_555 1_555
C12D N1D 1_555 1_555
C12E N1E 1_555 1_555
H8A C12A 1_555 1_555
H8B C12B 1_555 1_555
H8C C12C 1_555 1_555
H8D C12D 1_555 1_555
H8E C12E 1_555 1_555
C5 C6 1_555 1_555
C9 C10 1_555 1_555
C11 C12 1_555 1_555
O2C C7C 1_555 1_555
O2D C7D 1_555 1_555
O2E C7E 1_555 1_555
C1A C7A 1_555 1_555
C1B C7B 1_555 1_555
C1C C7C 1_555 1_555
C1D C7D 1_555 1_555
C1E C7E 1_555 1_555
C5A C6A 1_555 1_555
C5B C6B 1_555 1_555
C5C C6C 1_555 1_555
C5D C6D 1_555 1_555
C5E C6E 1_555 1_555
C9A C10A 1_555 1_555
C9B C10B 1_555 1_555
C9C C10C 1_555 1_555
C9D C10D 1_555 1_555
C9E C10E 1_555 1_555
C11A C12A 1_555 1_555
C11B C12B 1_555 1_555
C11C C12C 1_555 1_555
C11D C12D 1_555 1_555
C11E C12E 1_555 1_555

#END
