
#######################################################################
#
#                 Cambridge Crystallographic Data Centre
#                                CCDC 
#
#######################################################################
#
# If this CIF has been generated from an entry in the Cambridge 
# Structural Database, then it will include bibliographic, chemical, 
# crystal, experimental, refinement or atomic coordinate data resulting 
# from the CCDC's data processing and validation procedures.
#
#######################################################################

data_FOFTIF
_chemical_formula_moiety         '(C77 H53 Cd3 Cl9 N4 O14)n'
_symmetry_cell_setting           triclinic
_symmetry_space_group_name_H-M   'P -1'
_symmetry_Int_Tables_number      2
_space_group_name_Hall           '-P 1'
loop_
_symmetry_equiv_pos_site_id
_symmetry_equiv_pos_as_xyz
1 x,y,z
2 -x,-y,-z
_cell_length_a                   16.4918(16)
_cell_length_b                   16.8382(17)
_cell_length_c                   18.4883(18)
_cell_angle_alpha                69.539(2)
_cell_angle_beta                 66.786(2)
_cell_angle_gamma                63.792(2)
_cell_volume                     4136.34
loop_
_atom_site_label
_atom_site_type_symbol
_atom_site_fract_x
_atom_site_fract_y
_atom_site_fract_z
Cd1 Cd 0.52168(4) 0.22466(4) 0.54501(4)
Cd2 Cd 0.44475(4) 0.29490(4) 0.74787(3)
Cd3 Cd 0.37417(4) 0.37397(4) 0.93916(4)
O1 O 0.4393(5) 0.4381(4) 0.7313(4)
H1 H 0.397(6) 0.485(4) 0.714(6)
H2 H 0.460(7) 0.454(6) 0.757(6)
O2 O 0.5791(4) 0.3438(4) 0.5040(4)
O3 O 0.4640(6) 0.1458(5) 0.7641(8)
O4 O 0.5617(4) 0.2699(4) 0.6297(3)
O5 O 1.3359(4) 0.3503(4) 0.6852(4)
O6 O 1.3673(4) 0.2728(4) 0.5953(4)
O7 O 0.6534(4) 1.0938(4) 0.5637(4)
O8 O 0.5348(4) 1.0780(4) 0.5496(4)
O9 O 0.5520(4) 0.2307(4) 0.8152(4)
O10 O 0.5283(4) 0.3343(5) 0.8773(4)
O11 O 1.3242(4) 0.3262(4) 0.8666(3)
O12 O 1.3052(5) 0.2599(5) 0.9944(4)
O13 O 1.2395(4) -0.4983(4) 0.9598(4)
O14 O 1.3708(4) -0.4764(4) 0.8813(4)
N1 N 0.5289(5) 0.2570(5) 0.4093(5)
N2 N 0.4088(6) 0.3465(6) 0.0548(5)
C1 C 0.5058(6) 0.3409(6) 0.3656(6)
H3 H 0.5040 0.3879 0.3840
C2 C 0.4841(6) 0.3630(6) 0.2937(5)
H4 H 0.4672 0.4240 0.2647
C3 C 0.4871(6) 0.2965(7) 0.2647(5)
C4 C 0.5180(7) 0.2077(7) 0.3076(6)
H5 H 0.5261 0.1589 0.2877
C5 C 0.5369(6) 0.1908(6) 0.3794(6)
H6 H 0.5563 0.1300 0.4086
C6 C 0.4592(6) 0.3166(6) 0.1922(5)
C7 C 0.4803(7) 0.3809(7) 0.1239(6)
H7 H 0.5124 0.4164 0.1230
C8 C 0.4548(8) 0.3930(8) 0.0575(6)
H8 H 0.4707 0.4369 0.0111
C9 C 0.3889(7) 0.2841(7) 0.1195(6)
H9 H 0.3578 0.2493 0.1174
C10 C 0.4105(7) 0.2668(8) 0.1889(6)
H10 H 0.3933 0.2224 0.2341
C11 C 0.5885(5) 0.3300(5) 0.5706(5)
C12 C 0.6391(5) 0.3774(5) 0.5817(5)
C13 C 0.6832(6) 0.3395(6) 0.6436(5)
H11 H 0.6795 0.2839 0.6792
C14 C 0.7317(6) 0.3827(6) 0.6531(5)
H12 H 0.7618 0.3565 0.6947
C15 C 0.7363(5) 0.4649(5) 0.6013(5)
C16 C 0.6910(5) 0.5027(5) 0.5403(5)
H13 H 0.6933 0.5591 0.5054
C17 C 0.6434(6) 0.4593(5) 0.5305(6)
H14 H 0.6137 0.4853 0.4887
C18 C 0.7903(5) 0.5135(5) 0.6055(5)
C19 C 0.8808(6) 0.4674(5) 0.6168(5)
H15 H 0.9067 0.4032 0.6263
C20 C 0.9329(5) 0.5159(5) 0.6140(5)
C21 C 0.8922(5) 0.6092(5) 0.6017(5)
H16 H 0.9278 0.6423 0.5989
C22 C 0.8020(5) 0.6569(5) 0.5932(5)
C23 C 0.7529(5) 0.6063(5) 0.5950(5)
H17 H 0.6913 0.6373 0.5886
C24 C 1.0288(5) 0.4661(5) 0.6227(5)
C25 C 1.0841(5) 0.3822(5) 0.6022(6)
H18 H 1.0592 0.3554 0.5826
C26 C 1.1742(6) 0.3369(6) 0.6098(5)
H19 H 1.2098 0.2796 0.5955
C27 C 1.2138(5) 0.3730(5) 0.6377(5)
C28 C 1.1593(6) 0.4559(6) 0.6612(5)
H20 H 1.1842 0.4806 0.6830
C29 C 1.0686(5) 0.5024(6) 0.6528(5)
H21 H 1.0329 0.5595 0.6676
C30 C 1.3137(5) 0.3285(5) 0.6407(5)
C31 C 0.7574(5) 0.7577(5) 0.5823(5)
C32 C 0.7847(6) 0.8060(6) 0.6093(6)
H22 H 0.8337 0.7751 0.6347
C33 C 0.7412(6) 0.8992(7) 0.5997(6)
H23 H 0.7619 0.9321 0.6170
C34 C 0.6669(6) 0.9450(5) 0.5649(5)
C35 C 0.6399(6) 0.8964(6) 0.5378(5)
H24 H 0.5892 0.9265 0.5144
C36 C 0.6864(6) 0.8044(6) 0.5447(6)
H25 H 0.6693 0.7723 0.5233
C37 C 0.6153(6) 1.0455(5) 0.5588(5)
C38 C 0.5782(5) 0.2645(6) 0.8494(5)
C39 C 0.6769(6) 0.2159(6) 0.8572(5)
C40 C 0.7062(6) 0.2450(7) 0.9014(7)
H26 H 0.6645 0.2950 0.9263
C41 C 0.7962(7) 0.2005(7) 0.9085(7)
H27 H 0.8157 0.2195 0.9396
C42 C 0.8598(5) 0.1279(6) 0.8713(5)
C43 C 0.8293(6) 0.1014(6) 0.8265(6)
H28 H 0.8713 0.0527 0.8000
C44 C 0.7389(6) 0.1449(6) 0.8199(6)
H29 H 0.7190 0.1256 0.7892
C45 C 0.9569(6) 0.0803(6) 0.8796(5)
C46 C 1.0064(5) 0.1261(6) 0.8854(6)
H30 H 0.9774 0.1896 0.8823
C47 C 1.0956(5) 0.0829(5) 0.8955(5)
C48 C 1.1385(5) -0.0127(6) 0.8996(5)
H31 H 1.1997 -0.0442 0.9069
C49 C 1.0914(6) -0.0603(6) 0.8930(5)
C50 C 1.0003(5) -0.0136(6) 0.8837(5)
H32 H 0.9676 -0.0459 0.8801
C51 C 1.1464(5) 0.1319(5) 0.9021(5)
C52 C 1.1489(6) 0.2135(5) 0.8515(5)
H33 H 1.1170 0.2392 0.8111
C53 C 1.1976(5) 0.2592(5) 0.8584(5)
H34 H 1.2008 0.3143 0.8215
C54 C 1.2416(5) 0.2240(6) 0.9193(5)
C55 C 1.2387(5) 0.1414(6) 0.9713(5)
H35 H 1.2688 0.1168 1.0127
C56 C 1.1925(6) 0.0952(6) 0.9633(6)
H36 H 1.1917 0.0387 0.9986
C57 C 1.2923(6) 0.2721(6) 0.9278(5)
C58 C 1.1389(5) -0.1585(5) 0.8956(5)
C59 C 1.2335(6) -0.1941(6) 0.8561(6)
H37 H 1.2671 -0.1541 0.8240
C60 C 1.2810(6) -0.2874(6) 0.8621(6)
H38 H 1.3464 -0.3106 0.8353
C61 C 1.2314(6) -0.3463(5) 0.9080(5)
C62 C 1.1358(6) -0.3108(5) 0.9443(5)
H39 H 1.1012 -0.3504 0.9739
C63 C 1.0895(6) -0.2178(6) 0.9380(6)
H40 H 1.0236 -0.1945 0.9629
C64 C 1.2832(6) -0.4454(6) 0.9160(5)
Cd1_2 Cd 0.52168(4) 1.22466(4) 0.54501(4)
Cd1_3 Cd 1.52168(4) 0.22466(4) 0.54501(4)
Cd2_2 Cd 1.44475(4) 0.29490(4) 0.74787(3)
Cd3_2 Cd 0.37417(4) 0.37397(4) -0.06084(4)
Cd3_3 Cd 1.37417(4) -0.62603(4) 0.93916(4)
Cd3_4 Cd 1.37417(4) 0.37397(4) 0.93916(4)
O5_2 O 0.3359(4) 0.3503(4) 0.6852(4)
O6_2 O 0.3673(4) 0.2728(4) 0.5953(4)
O7_2 O 0.6534(4) 0.0938(4) 0.5637(4)
O8_2 O 0.5348(4) 0.0780(4) 0.5496(4)
O11_2 O 0.3242(4) 0.3262(4) 0.8666(3)
O12_2 O 0.3052(5) 0.2599(5) 0.9944(4)
O13_2 O 0.2395(4) 0.5017(4) 0.9598(4)
O14_2 O 0.3708(4) 0.5236(4) 0.8813(4)
N2_2 N 0.4088(6) 0.3465(6) 1.0548(5)
Cl1 Cl 0.1818(2) 0.8497(2) 0.4672(3)
Cl2 Cl 0.0966(3) 0.7144(3) 0.5240(3)
Cl3 Cl -0.0119(3) 0.9029(4) 0.4784(4)
C65 C 0.0967(11) 0.8191(12) 0.4572(12)
H41 H 0.1146 0.8124 0.4007
Cl4 Cl 0.7340(4) 0.9396(4) 0.3220(3)
Cl5 Cl 0.8137(5) 1.0382(4) 0.3545(5)
Cl6 Cl 0.9236(6) 0.8533(4) 0.3356(5)
C66 C 0.8236(16) 0.9445(15) 0.338(2)
H42 H 0.7987 0.9222 0.3974
Cl7 Cl 0.8533(4) 0.5957(4) 0.8116(3)
Cl8 Cl 0.9539(4) 0.4030(4) 0.8412(3)
Cl9 Cl 0.7704(6) 0.4733(6) 0.8320(5)
C67 C 0.8445(12) 0.4863(11) 0.8647(10)
H43 H 0.8197 0.4830 0.9241
C68 C 0.1911(6) 0.5530(5) 0.7859(6)
H44 H 0.1975 0.4943 0.8193
C69 C 0.1026(5) 0.6208(7) 0.7933(6)
H45 H 0.0486 0.6085 0.8317
C70 C 0.0932(5) 0.7068(6) 0.7444(6)
C71 C 0.1722(7) 0.7248(5) 0.6881(6)
H46 H 0.1657 0.7835 0.6547
C72 C 0.2606(5) 0.6570(6) 0.6808(5)
H47 H 0.3146 0.6693 0.6424
N3 N 0.2701(5) 0.5711(5) 0.7297(6)
C73 C -0.0056(5) 0.7822(6) 0.7521(6)
C74 C -0.0806(7) 0.7683(5) 0.8177(6)
H48 H -0.0702 0.7149 0.8587
C75 C -0.1709(5) 0.8326(6) 0.8234(5)
H49 H -0.2222 0.8232 0.8683
N4 N -0.1861(5) 0.9108(5) 0.7635(6)
C76 C -0.1110(6) 0.9247(5) 0.6978(5)
H50 H -0.1214 0.9781 0.6568
C77 C -0.0208(5) 0.8604(7) 0.6921(5)
H51 H 0.0305 0.8699 0.6473
loop_
_geom_bond_atom_site_label_1
_geom_bond_atom_site_label_2
_geom_bond_site_symmetry_1
_geom_bond_site_symmetry_2
Cd1 O2 1_555 1_555
Cd2 O1 1_555 1_555
Cd3 O10 1_555 1_555
O1 H1 1_555 1_555
H2 O1 1_555 1_555
O2 C11 1_555 1_555
O3 Cd2 1_555 1_555
O4 Cd1 1_555 1_555
O5 C30 1_555 1_555
O6 C30 1_555 1_555
O7 C37 1_555 1_555
O8 C37 1_555 1_555
O9 Cd2 1_555 1_555
O10 C38 1_555 1_555
O11 C57 1_555 1_555
O12 C57 1_555 1_555
O13 C64 1_555 1_555
O14 C64 1_555 1_555
N1 Cd1 1_555 1_555
N2 C8 1_555 1_555
C1 N1 1_555 1_555
H3 C1 1_555 1_555
C2 C1 1_555 1_555
H4 C2 1_555 1_555
C3 C2 1_555 1_555
C4 C3 1_555 1_555
H5 C4 1_555 1_555
C5 N1 1_555 1_555
H6 C5 1_555 1_555
C6 C3 1_555 1_555
C7 C6 1_555 1_555
H7 C7 1_555 1_555
C8 C7 1_555 1_555
H8 C8 1_555 1_555
C9 N2 1_555 1_555
H9 C9 1_555 1_555
C10 C6 1_555 1_555
H10 C10 1_555 1_555
C11 O4 1_555 1_555
C12 C11 1_555 1_555
C13 C12 1_555 1_555
H11 C13 1_555 1_555
C14 C13 1_555 1_555
H12 C14 1_555 1_555
C15 C14 1_555 1_555
C16 C15 1_555 1_555
H13 C16 1_555 1_555
C17 C12 1_555 1_555
H14 C17 1_555 1_555
C18 C15 1_555 1_555
C19 C18 1_555 1_555
H15 C19 1_555 1_555
C20 C19 1_555 1_555
C21 C20 1_555 1_555
H16 C21 1_555 1_555
C22 C21 1_555 1_555
C23 C18 1_555 1_555
H17 C23 1_555 1_555
C24 C20 1_555 1_555
C25 C24 1_555 1_555
H18 C25 1_555 1_555
C26 C25 1_555 1_555
H19 C26 1_555 1_555
C27 C26 1_555 1_555
C28 C27 1_555 1_555
H20 C28 1_555 1_555
C29 C24 1_555 1_555
H21 C29 1_555 1_555
C30 C27 1_555 1_555
C31 C22 1_555 1_555
C32 C31 1_555 1_555
H22 C32 1_555 1_555
C33 C32 1_555 1_555
H23 C33 1_555 1_555
C34 C33 1_555 1_555
C35 C34 1_555 1_555
H24 C35 1_555 1_555
C36 C31 1_555 1_555
H25 C36 1_555 1_555
C37 C34 1_555 1_555
C38 O9 1_555 1_555
C39 C38 1_555 1_555
C40 C39 1_555 1_555
H26 C40 1_555 1_555
C41 C40 1_555 1_555
H27 C41 1_555 1_555
C42 C41 1_555 1_555
C43 C42 1_555 1_555
H28 C43 1_555 1_555
C44 C39 1_555 1_555
H29 C44 1_555 1_555
C45 C42 1_555 1_555
C46 C45 1_555 1_555
H30 C46 1_555 1_555
C47 C46 1_555 1_555
C48 C47 1_555 1_555
H31 C48 1_555 1_555
C49 C48 1_555 1_555
C50 C45 1_555 1_555
H32 C50 1_555 1_555
C51 C47 1_555 1_555
C52 C51 1_555 1_555
H33 C52 1_555 1_555
C53 C52 1_555 1_555
H34 C53 1_555 1_555
C54 C53 1_555 1_555
C55 C54 1_555 1_555
H35 C55 1_555 1_555
C56 C51 1_555 1_555
H36 C56 1_555 1_555
C57 C54 1_555 1_555
C58 C49 1_555 1_555
C59 C58 1_555 1_555
H37 C59 1_555 1_555
C60 C59 1_555 1_555
H38 C60 1_555 1_555
C61 C60 1_555 1_555
C62 C61 1_555 1_555
H39 C62 1_555 1_555
C63 C58 1_555 1_555
H40 C63 1_555 1_555
C64 C61 1_555 1_555
Cl1 C65 1_555 1_555
Cl2 C65 1_555 1_555
Cl3 C65 1_555 1_555
C65 H41 1_555 1_555
Cl4 C66 1_555 1_555
Cl5 C66 1_555 1_555
Cl6 C66 1_555 1_555
C66 H42 1_555 1_555
Cl7 C67 1_555 1_555
Cl8 C67 1_555 1_555
Cl9 C67 1_555 1_555
C67 H43 1_555 1_555
C68 H44 1_555 1_555
C69 C68 1_555 1_555
H45 C69 1_555 1_555
C70 C69 1_555 1_555
C71 C70 1_555 1_555
H46 C71 1_555 1_555
C72 C71 1_555 1_555
H47 C72 1_555 1_555
N3 C68 1_555 1_555
C73 C70 1_555 1_555
C74 C73 1_555 1_555
H48 C74 1_555 1_555
C75 C74 1_555 1_555
H49 C75 1_555 1_555
N4 C75 1_555 1_555
C76 N4 1_555 1_555
H50 C76 1_555 1_555
C77 C73 1_555 1_555
H51 C77 1_555 1_555
Cd1_2 O7 1_555 1_555
Cd1_3 O6 1_555 1_555
Cd2_2 O5 1_555 1_555
Cd3_2 N2 1_555 1_555
Cd3_3 O13 1_555 1_555
Cd3_4 O11 1_555 1_555
O5_2 Cd2 1_555 1_555
O6_2 Cd1 1_555 1_555
O7_2 Cd1 1_555 1_555
O8_2 Cd1 1_555 1_555
O11_2 Cd2 1_555 1_555
O12_2 Cd3 1_555 1_555
O13_2 Cd3 1_555 1_555
O14_2 Cd3 1_555 1_555
N2_2 Cd3 1_555 1_555
Cd2 O4 1_555 1_555
Cd3 O11_2 1_555 1_555
O8 Cd1_2 1_555 1_555
O11 Cd2_2 1_555 1_555
O12 Cd3_4 1_555 1_555
O14 Cd3_3 1_555 1_555
C4 C5 1_555 1_555
C9 C10 1_555 1_555
C16 C17 1_555 1_555
C22 C23 1_555 1_555
C28 C29 1_555 1_555
C35 C36 1_555 1_555
C43 C44 1_555 1_555
C49 C50 1_555 1_555
C55 C56 1_555 1_555
C62 C63 1_555 1_555
C72 N3 1_555 1_555
C76 C77 1_555 1_555

#END
