
#######################################################################
#
#                 Cambridge Crystallographic Data Centre
#                                CCDC 
#
#######################################################################
#
# If this CIF has been generated from an entry in the Cambridge 
# Structural Database, then it will include bibliographic, chemical, 
# crystal, experimental, refinement or atomic coordinate data resulting 
# from the CCDC's data processing and validation procedures.
#
#######################################################################

data_IBOTOI
_chemical_formula_moiety         '(C49 H76 B36 Co2 La1 N8 O10 1+)n'
_symmetry_cell_setting           orthorhombic
_symmetry_space_group_name_H-M   'P 21 21 2'
_symmetry_Int_Tables_number      18
_space_group_name_Hall           'P 2 2ab'
loop_
_symmetry_equiv_pos_site_id
_symmetry_equiv_pos_as_xyz
1 x,y,z
2 -x,-y,z
3 1/2-x,1/2+y,-z
4 1/2+x,1/2-y,-z
_cell_length_a                   17.5705(14)
_cell_length_b                   18.571(2)
_cell_length_c                   13.3355(11)
_cell_angle_alpha                90
_cell_angle_beta                 90
_cell_angle_gamma                90
_cell_volume                     4351.4
loop_
_atom_site_label
_atom_site_type_symbol
_atom_site_fract_x
_atom_site_fract_y
_atom_site_fract_z
Co2 Co 0.73896(3) 0.73541(3) 0.42504(4)
C3 C 0.7606(3) 0.8248(2) 0.3426(3)
H12 H 0.8182 0.8443 0.3660
C4 C 0.6885(2) 0.8346(2) 0.4142(4)
H13 H 0.6943 0.8612 0.4892
C5 C 0.7272(2) 0.7170(2) 0.5749(3)
H14 H 0.6779 0.7501 0.6014
C6 C 0.8095(2) 0.7534(2) 0.5453(4)
H15 H 0.8194 0.8129 0.5499
B10 B 0.6361(3) 0.8497(3) 0.2211(4)
H16 H 0.6064 0.8815 0.1614
B11 B 0.6079(3) 0.8520(3) 0.3478(4)
H17 H 0.5598 0.8866 0.3743
B12 B 0.5937(3) 0.7729(3) 0.2773(4)
H18 H 0.5351 0.7547 0.2561
B13 B 0.6735(3) 0.7628(3) 0.1961(4)
H19 H 0.6688 0.7383 0.1196
B14 B 0.7357(3) 0.8360(3) 0.2208(4)
H20 H 0.7736 0.8604 0.1625
B15 B 0.6945(3) 0.8914(3) 0.3129(5)
H21 H 0.7042 0.9510 0.3162
B16 B 0.6256(3) 0.7658(3) 0.4004(4)
H22 H 0.5873 0.7447 0.4607
B17 B 0.6653(3) 0.7081(3) 0.3049(4)
H23 H 0.6535 0.6490 0.2990
B18 B 0.7551(3) 0.7477(3) 0.2698(4)
H24 H 0.8039 0.7151 0.2407
B19 B 0.8399(3) 0.6235(3) 0.6331(4)
H25 H 0.8686 0.5909 0.6928
B20 B 0.8831(3) 0.7005(3) 0.5803(4)
H26 H 0.9403 0.7203 0.6053
B21 B 0.8021(3) 0.7097(3) 0.6585(4)
H27 H 0.8050 0.7359 0.7340
B22 B 0.7391(3) 0.6373(3) 0.6316(4)
H28 H 0.7006 0.6149 0.6908
B23 B 0.7826(3) 0.5826(3) 0.5376(4)
H29 H 0.7736 0.5230 0.5350
B24 B 0.8714(3) 0.6223(3) 0.5069(4)
H30 H 0.9217 0.5892 0.4836
B25 B 0.8531(3) 0.7075(3) 0.4528(5)
H31 H 0.8923 0.7313 0.3954
B26 B 0.7905(3) 0.6326(3) 0.4240(4)
H32 H 0.7883 0.6052 0.3492
B27 B 0.7091(3) 0.6438(3) 0.5044(4)
H33 H 0.6512 0.6242 0.4823
O1 O -0.0178(6) 0.5446(6) 0.8589(8)
C7 C -0.0000 0.5000 0.7855(11)
O1A O 0.0178(6) 0.4554(6) 0.8589(8)
La1 La 0.0000 0.0000 0.04648(2)
O2 O 0.13134(13) -0.00772(19) 0.10883(18)
O3 O 0.01238(16) -0.12539(13) -0.00734(19)
O4 O -0.09151(14) -0.01660(16) -0.0987(2)
O5 O 0.01595(15) 0.08692(14) 0.1938(2)
N1 N 0.18454(18) -0.05774(18) 0.0922(2)
N2 N -0.03919(17) -0.17708(18) -0.0181(2)
N3 N -0.0893(2) -0.03691(19) -0.1935(3)
N4 N 0.03602(19) 0.08558(19) 0.2893(3)
C8 C 0.2568(2) -0.0364(2) 0.0762(3)
H34 H 0.2688 0.0134 0.0745
C9 C 0.3128(2) -0.0866(2) 0.0626(4)
H35 H 0.3639 -0.0711 0.0535
C10 C 0.2966(2) -0.1590(2) 0.0619(3)
C11 C 0.2207(2) -0.1790(2) 0.0786(3)
H36 H 0.2067 -0.2285 0.0786
C12 C 0.1670(2) -0.1273(2) 0.0947(3)
H37 H 0.1160 -0.1413 0.1080
C13 C -0.0194(2) -0.2383(2) -0.0645(3)
H38 H 0.0313 -0.2442 -0.0877
C14 C -0.0710(2) -0.2923(2) -0.0792(3)
H39 H -0.0556 -0.3356 -0.1114
C15 C 0.3542(2) -0.2156(2) 0.0473(3)
C16 C 0.3363(2) -0.2786(2) -0.0016(3)
H40 H 0.2861 -0.2852 -0.0265
C17 C -0.1109(2) -0.1680(2) 0.0154(3)
H41 H -0.1248 -0.1246 0.0485
C18 C -0.0333(2) -0.0803(2) -0.2286(3)
H42 H 0.0026 -0.1003 -0.1832
C19 C -0.0279(2) -0.0958(2) -0.3287(3)
H43 H 0.0116 -0.1265 -0.3517
C20 C -0.0795(2) -0.0673(2) -0.3974(3)
C21 C -0.1396(2) -0.0266(2) -0.3581(3)
H44 H -0.1782 -0.0088 -0.4016
C22 C -0.1435(2) -0.0120(3) -0.2569(3)
H45 H -0.1845 0.0158 -0.2313
C23 C 0.0056(3) 0.13343(19) 0.3527(3)
H46 H -0.0271 0.1701 0.3278
C24 C 0.0212(2) 0.1299(2) 0.4537(3)
H47 H -0.0006 0.1645 0.4976
C25 C -0.0689(2) -0.0762(2) -0.5070(3)
C26 C -0.1022(2) -0.0302(2) -0.5759(3)
H48 H -0.1370 0.0055 -0.5533
C27 C 0.0859(2) 0.0352(2) 0.3231(3)
H49 H 0.1095 0.0032 0.2770
O2A O -0.13134(13) 0.00772(19) 0.10883(18)
O3A O -0.01238(16) 0.12539(13) -0.00734(19)
O4A O 0.09151(14) 0.01660(16) -0.0987(2)
O5A O -0.01595(15) -0.08692(14) 0.1938(2)
C15C C -0.1458(2) -0.2844(2) -0.0473(3)
C14C C 0.4290(2) -0.2077(2) 0.0792(3)
C17C C 0.3891(2) -0.3320(2) -0.0154(3)
C16C C -0.1637(2) -0.2214(2) 0.0016(3)
C25A C 0.0689(2) 0.0762(2) 0.4930(3)
C24A C -0.0212(2) -0.1299(2) -0.5463(3)
C27A C -0.0859(2) -0.0352(2) -0.6769(3)
C26A C 0.1022(2) 0.0302(2) 0.4241(3)
N2C N 0.46081(17) -0.32292(18) 0.0181(2)
H41C H 0.3752 -0.3754 -0.0485
C13C C 0.4806(2) -0.2617(2) 0.0645(3)
H39C H 0.4444 -0.1644 0.1114
H48A H 0.1370 -0.0055 0.4467
C20A C 0.0795(2) 0.0673(2) 0.6026(3)
C10C C -0.2034(2) -0.3410(2) -0.0619(3)
C23A C -0.0056(3) -0.13343(19) -0.6473(3)
H47A H 0.0006 -0.1645 -0.5024
N4A N -0.03602(19) -0.08558(19) -0.7107(3)
H49A H -0.1095 -0.0032 -0.7230
O3C O 0.51238(16) -0.37461(13) 0.00734(19)
H38C H 0.5313 -0.2558 0.0877
C19A C 0.0279(2) 0.0958(2) 0.6713(3)
C21A C 0.1396(2) 0.0266(2) 0.6419(3)
C9C C -0.1872(2) -0.4134(2) -0.0626(4)
C11C C -0.2793(2) -0.3210(2) -0.0786(3)
O5A_2 O -0.01595(15) -0.08692(14) -0.8062(2)
La1B La 0.5000 -0.5000 -0.04648(2)
H44A H 0.1782 0.0088 0.5984
C22A C 0.1435(2) 0.0120(3) 0.7431(3)
C18A C 0.0333(2) 0.0803(2) 0.7714(3)
H43A H -0.0116 0.1265 0.6483
H36C H -0.2933 -0.2715 -0.0786
C12C C -0.3330(2) -0.3727(2) -0.0947(3)
C8C C -0.2432(2) -0.4636(2) -0.0762(3)
H35C H -0.1361 -0.4289 -0.0535
La1_2 La 0.0000 -0.0000 -0.95352(2)
N3A N 0.0893(2) 0.03691(19) 0.8065(3)
H45A H 0.1845 -0.0158 0.7687
H42A H -0.0026 0.1003 0.8168
O4A_2 O 0.09151(14) 0.01660(16) 0.9013(2)
La1_3 La 0.0000 0.0000 1.04648(2)
N1C N -0.31546(18) -0.44226(18) -0.0922(2)
H34C H -0.2312 -0.5134 -0.0745
H37C H -0.3840 -0.3587 -0.1080
O2C O -0.36866(13) -0.49228(19) -0.10883(18)
La1B_2 La -0.5000 -0.5000 -0.04648(2)
H40C H -0.2139 -0.2148 0.0265
H46A H 0.0271 -0.1701 -0.6722
Co1 Co 0.0000 0.5000 0.21160(5)
C1 C -0.0090(3) 0.6007(2) 0.2696(3)
H1 H -0.0646 0.6031 0.3104
C2 C 0.0629(3) 0.5556(3) 0.3127(4)
H2 H 0.0594 0.5251 0.3851
B1 B 0.1194(3) 0.6756(3) 0.2203(4)
H3 H 0.1535 0.7265 0.2227
B2 B 0.0644(3) 0.6480(3) 0.3237(5)
H4 H 0.0612 0.6788 0.3958
B3 B 0.0194(3) 0.6775(3) 0.2135(4)
H5 H -0.0138 0.7290 0.2124
B4 B 0.0751(3) 0.6464(3) 0.1095(4)
H6 H 0.0796 0.6780 0.0383
B5 B 0.1523(3) 0.5986(3) 0.1566(5)
H7 H 0.2087 0.5983 0.1176
B6 B 0.1461(3) 0.5986(4) 0.2881(5)
H8 H 0.1977 0.5975 0.3374
B7 B 0.1175(3) 0.5206(3) 0.2192(4)
H9 H 0.1515 0.4697 0.2229
B8 B 0.0730(3) 0.5514(3) 0.1049(4)
H10 H 0.0774 0.5220 0.0318
B9 B -0.0104(4) 0.6005(3) 0.1433(4)
H11 H -0.0627 0.6034 0.0955
C1A C 0.0090(3) 0.3993(2) 0.2696(3)
C2A C -0.0629(3) 0.4444(3) 0.3127(4)
B7A B -0.1175(3) 0.4794(3) 0.2192(4)
B8A B -0.0730(3) 0.4486(3) 0.1049(4)
B9A B 0.0104(4) 0.3995(3) 0.1433(4)
H1A H 0.0646 0.3969 0.3104
B2A B -0.0644(3) 0.3520(3) 0.3237(5)
B3A B -0.0194(3) 0.3225(3) 0.2135(4)
H2A H -0.0594 0.4749 0.3851
B6A B -0.1461(3) 0.4014(4) 0.2881(5)
B5A B -0.1523(3) 0.4014(3) 0.1566(5)
H9A H -0.1515 0.5303 0.2229
B4A B -0.0751(3) 0.3536(3) 0.1095(4)
H10A H -0.0774 0.4780 0.0318
H11A H 0.0627 0.3966 0.0955
B1A B -0.1194(3) 0.3244(3) 0.2203(4)
H4A H -0.0612 0.3212 0.3958
H5A H 0.0138 0.2710 0.2124
H8A H -0.1977 0.4025 0.3374
H7A H -0.2087 0.4017 0.1176
H6A H -0.0796 0.3220 0.0383
H3A H -0.1535 0.2735 0.2227
loop_
_geom_bond_atom_site_label_1
_geom_bond_atom_site_label_2
_geom_bond_site_symmetry_1
_geom_bond_site_symmetry_2
Co1 C1 1_555 1_555
C1 H1 1_555 1_555
C2 Co1 1_555 1_555
H2 C2 1_555 1_555
B1 H3 1_555 1_555
B2 C1 1_555 1_555
H4 B2 1_555 1_555
B3 C1 1_555 1_555
H5 B3 1_555 1_555
B4 B1 1_555 1_555
H6 B4 1_555 1_555
B5 B1 1_555 1_555
H7 B5 1_555 1_555
B6 C2 1_555 1_555
H8 B6 1_555 1_555
B7 Co1 1_555 1_555
H9 B7 1_555 1_555
B8 Co1 1_555 1_555
H10 B8 1_555 1_555
B9 Co1 1_555 1_555
H11 B9 1_555 1_555
Co2 C3 1_555 1_555
C3 H12 1_555 1_555
C4 Co2 1_555 1_555
H13 C4 1_555 1_555
C5 Co2 1_555 1_555
H14 C5 1_555 1_555
C6 Co2 1_555 1_555
H15 C6 1_555 1_555
B10 H16 1_555 1_555
B11 C4 1_555 1_555
H17 B11 1_555 1_555
B12 B10 1_555 1_555
H18 B12 1_555 1_555
B13 B10 1_555 1_555
H19 B13 1_555 1_555
B14 C3 1_555 1_555
H20 B14 1_555 1_555
B15 C3 1_555 1_555
H21 B15 1_555 1_555
B16 Co2 1_555 1_555
H22 B16 1_555 1_555
B17 Co2 1_555 1_555
H23 B17 1_555 1_555
B18 Co2 1_555 1_555
H24 B18 1_555 1_555
B19 H25 1_555 1_555
B20 C6 1_555 1_555
H26 B20 1_555 1_555
B21 C5 1_555 1_555
H27 B21 1_555 1_555
B22 C5 1_555 1_555
H28 B22 1_555 1_555
B23 B19 1_555 1_555
H29 B23 1_555 1_555
B24 B19 1_555 1_555
H30 B24 1_555 1_555
B25 Co2 1_555 1_555
H31 B25 1_555 1_555
B26 Co2 1_555 1_555
H32 B26 1_555 1_555
B27 Co2 1_555 1_555
H33 B27 1_555 1_555
O1 C7 1_555 1_555
C7 O1A 1_555 1_555
La1 O2 1_555 1_555
O2 N1 1_555 1_555
O3 La1 1_555 1_555
O4 La1 1_555 1_555
O5 La1 1_555 1_555
N1 C8 1_555 1_555
N2 O3 1_555 1_555
N3 O4 1_555 1_555
N4 O5 1_555 1_555
C8 H34 1_555 1_555
C9 C8 1_555 1_555
H35 C9 1_555 1_555
C10 C9 1_555 1_555
C11 C10 1_555 1_555
H36 C11 1_555 1_555
C12 N1 1_555 1_555
H37 C12 1_555 1_555
C13 N2 1_555 1_555
H38 C13 1_555 1_555
C14 C13 1_555 1_555
H39 C14 1_555 1_555
C15 C10 1_555 1_555
C16 C15 1_555 1_555
H40 C16 1_555 1_555
C17 N2 1_555 1_555
H41 C17 1_555 1_555
C18 N3 1_555 1_555
H42 C18 1_555 1_555
C19 C18 1_555 1_555
H43 C19 1_555 1_555
C20 C19 1_555 1_555
C21 C20 1_555 1_555
H44 C21 1_555 1_555
C22 N3 1_555 1_555
H45 C22 1_555 1_555
C23 N4 1_555 1_555
H46 C23 1_555 1_555
C24 C23 1_555 1_555
H47 C24 1_555 1_555
C25 C20 1_555 1_555
C26 C25 1_555 1_555
H48 C26 1_555 1_555
C27 N4 1_555 1_555
H49 C27 1_555 1_555
C1A Co1 1_555 1_555
C2A Co1 1_555 1_555
B7A Co1 1_555 1_555
B8A Co1 1_555 1_555
B9A Co1 1_555 1_555
H1A C1A 1_555 1_555
B2A C1A 1_555 1_555
B3A C1A 1_555 1_555
H2A C2A 1_555 1_555
B6A C2A 1_555 1_555
B5A B7A 1_555 1_555
H9A B7A 1_555 1_555
B4A B8A 1_555 1_555
H10A B8A 1_555 1_555
H11A B9A 1_555 1_555
B1A B2A 1_555 1_555
H4A B2A 1_555 1_555
H5A B3A 1_555 1_555
H8A B6A 1_555 1_555
H7A B5A 1_555 1_555
H6A B4A 1_555 1_555
H3A B1A 1_555 1_555
O2A La1 1_555 1_555
O3A La1 1_555 1_555
O4A La1 1_555 1_555
O5A La1 1_555 1_555
C15C C14 1_555 1_555
C14C C15 1_555 1_555
C17C C16 1_555 1_555
C16C C17 1_555 1_555
C25A C24 1_555 1_555
C24A C25 1_555 1_555
C27A C26 1_555 1_555
C26A C27 1_555 1_555
N2C C17C 1_555 1_555
H41C C17C 1_555 1_555
C13C C14C 1_555 1_555
H39C C14C 1_555 1_555
H48A C26A 1_555 1_555
C20A C25A 1_555 1_555
C10C C15C 1_555 1_555
C23A C24A 1_555 1_555
H47A C24A 1_555 1_555
N4A C27A 1_555 1_555
H49A C27A 1_555 1_555
O3C N2C 1_555 1_555
H38C C13C 1_555 1_555
C19A C20A 1_555 1_555
C21A C20A 1_555 1_555
C9C C10C 1_555 1_555
C11C C10C 1_555 1_555
O5A_2 N4A 1_555 1_555
La1B O3C 1_555 1_555
H44A C21A 1_555 1_555
C22A C21A 1_555 1_555
C18A C19A 1_555 1_555
H43A C19A 1_555 1_555
H36C C11C 1_555 1_555
C12C C11C 1_555 1_555
C8C C9C 1_555 1_555
H35C C9C 1_555 1_555
La1_2 O5A_2 1_555 1_555
N3A C22A 1_555 1_555
H45A C22A 1_555 1_555
H42A C18A 1_555 1_555
O4A_2 N3A 1_555 1_555
La1_3 O4A_2 1_555 1_555
N1C C12C 1_555 1_555
H34C C8C 1_555 1_555
H37C C12C 1_555 1_555
O2C N1C 1_555 1_555
La1B_2 O2C 1_555 1_555
H40C C16C 1_555 1_555
H46A C23A 1_555 1_555
C1 C2 1_555 1_555
C1 B9 1_555 1_555
C2 B2 1_555 1_555
C2 B7 1_555 1_555
B1 B2 1_555 1_555
B1 B3 1_555 1_555
B1 B6 1_555 1_555
B2 B3 1_555 1_555
B2 B6 1_555 1_555
B3 B4 1_555 1_555
B3 B9 1_555 1_555
B4 B5 1_555 1_555
B4 B8 1_555 1_555
B4 B9 1_555 1_555
B5 B6 1_555 1_555
B5 B7 1_555 1_555
B5 B8 1_555 1_555
B6 B7 1_555 1_555
B7 B8 1_555 1_555
B8 B9 1_555 1_555
C3 C4 1_555 1_555
C3 B18 1_555 1_555
C4 B15 1_555 1_555
C4 B16 1_555 1_555
C5 C6 1_555 1_555
C5 B27 1_555 1_555
C6 B21 1_555 1_555
C6 B25 1_555 1_555
B10 B11 1_555 1_555
B10 B14 1_555 1_555
B10 B15 1_555 1_555
B11 B12 1_555 1_555
B11 B15 1_555 1_555
B11 B16 1_555 1_555
B12 B13 1_555 1_555
B12 B16 1_555 1_555
B12 B17 1_555 1_555
B13 B14 1_555 1_555
B13 B17 1_555 1_555
B13 B18 1_555 1_555
B14 B15 1_555 1_555
B14 B18 1_555 1_555
B16 B17 1_555 1_555
B17 B18 1_555 1_555
B19 B20 1_555 1_555
B19 B21 1_555 1_555
B19 B22 1_555 1_555
B20 B21 1_555 1_555
B20 B24 1_555 1_555
B20 B25 1_555 1_555
B21 B22 1_555 1_555
B22 B23 1_555 1_555
B22 B27 1_555 1_555
B23 B24 1_555 1_555
B23 B26 1_555 1_555
B23 B27 1_555 1_555
B24 B25 1_555 1_555
B24 B26 1_555 1_555
B25 B26 1_555 1_555
B26 B27 1_555 1_555
C11 C12 1_555 1_555
C21 C22 1_555 1_555
C1A C2A 1_555 1_555
C1A B9A 1_555 1_555
C2A B7A 1_555 1_555
C2A B2A 1_555 1_555
B7A B8A 1_555 1_555
B7A B6A 1_555 1_555
B8A B9A 1_555 1_555
B8A B5A 1_555 1_555
B9A B3A 1_555 1_555
B9A B4A 1_555 1_555
B2A B3A 1_555 1_555
B2A B6A 1_555 1_555
B3A B4A 1_555 1_555
B3A B1A 1_555 1_555
B6A B5A 1_555 1_555
B6A B1A 1_555 1_555
B5A B4A 1_555 1_555
B5A B1A 1_555 1_555
B4A B1A 1_555 1_555
C15C C16C 1_555 1_555
C25A C26A 1_555 1_555
N2C C13C 1_555 1_555
C23A N4A 1_555 1_555
C18A N3A 1_555 1_555
C8C N1C 1_555 1_555

#END
