
#######################################################################
#
#                 Cambridge Crystallographic Data Centre
#                                CCDC 
#
#######################################################################
#
# If this CIF has been generated from an entry in the Cambridge 
# Structural Database, then it will include bibliographic, chemical, 
# crystal, experimental, refinement or atomic coordinate data resulting 
# from the CCDC's data processing and validation procedures.
#
#######################################################################

data_ESURER03
_chemical_formula_moiety         '(C17 H15 Co3 N7 O7)n'
_symmetry_cell_setting           monoclinic
_symmetry_space_group_name_H-M   'C 2/c'
_symmetry_Int_Tables_number      15
_space_group_name_Hall           '-C 2yc'
loop_
_symmetry_equiv_pos_site_id
_symmetry_equiv_pos_as_xyz
1 x,y,z
2 -x,y,1/2-z
3 1/2+x,1/2+y,z
4 1/2-x,1/2+y,1/2-z
5 -x,-y,-z
6 x,-y,1/2+z
7 1/2-x,1/2-y,-z
8 1/2+x,1/2-y,1/2+z
_cell_length_a                   17.85237(19)
_cell_length_b                   12.61772(15)
_cell_length_c                   11.18808(13)
_cell_angle_alpha                90
_cell_angle_beta                 94.8199(11)
_cell_angle_gamma                90
_cell_volume                     2511.27
loop_
_atom_site_label
_atom_site_type_symbol
_atom_site_fract_x
_atom_site_fract_y
_atom_site_fract_z
Co1 Co 0.5000 0.59577(5) 0.2500
Co2 Co 0.42134(3) 0.55927(4) 0.50055(4)
N1 N 0.87396(17) 0.9347(3) 0.1624(3)
N2 N 0.91092(16) 0.9831(3) 0.2560(3)
N3 N 0.87723(17) 0.9703(2) 0.3563(3)
C1 C 0.8118(2) 0.8876(3) 0.2053(3)
C2 C 0.8148(2) 0.9109(3) 0.3281(3)
C3 C 0.7598(2) 0.8735(3) 0.4007(3)
H1 H 0.7622 0.8883 0.4833
C4 C 0.7027(2) 0.8148(3) 0.3452(4)
H2 H 0.6651 0.7885 0.3911
C5 C 0.6984(2) 0.7920(3) 0.2203(3)
C6 C 0.7530(2) 0.8274(3) 0.1491(3)
H3 H 0.7508 0.8118 0.0667
C7 C 0.6330(2) 0.7266(3) 0.1683(3)
O1 O 0.52029(13) 0.5806(2) 0.4319(2)
H4 H 0.545(2) 0.640(2) 0.467(4)
O2 O 0.63584(15) 0.6903(2) 0.0629(2)
O3 O 0.58098(15) 0.7124(2) 0.2350(2)
Co2A Co 0.57866(3) 0.55927(4) -0.00055(4)
N1A N 0.12604(17) 0.9347(3) 0.3376(3)
N2A N 0.08908(16) 0.9831(3) 0.2440(3)
N3A N 0.12277(17) 0.9703(2) 0.1437(3)
C1A C 0.1882(2) 0.8876(3) 0.2947(3)
C2A C 0.1852(2) 0.9109(3) 0.1719(3)
C3A C 0.2402(2) 0.8735(3) 0.0993(3)
H1A H 0.2378 0.8883 0.0167
C4A C 0.2973(2) 0.8148(3) 0.1548(4)
H2A H 0.3349 0.7885 0.1089
C5A C 0.3016(2) 0.7920(3) 0.2797(3)
C6A C 0.2470(2) 0.8274(3) 0.3509(3)
H3A H 0.2492 0.8118 0.4333
C7A C 0.3670(2) 0.7266(3) 0.3317(3)
O1A O 0.47971(13) 0.5806(2) 0.0681(2)
H4A H 0.455(2) 0.640(2) 0.033(4)
O2A O 0.36416(15) 0.6903(2) 0.4371(2)
O3A O 0.41902(15) 0.7124(2) 0.2650(2)
Co1B Co 0.0000 1.09577(5) 0.2500
Co1B_2 Co 1.0000 1.09577(5) 0.2500
Co2B Co 0.92134(3) 1.05927(4) 0.50055(4)
Co2C Co 0.07866(3) 1.05927(4) -0.00055(4)
Co2D Co 0.57866(3) 0.44073(4) 0.49945(4)
Co2E Co 0.42134(3) 0.44073(4) 0.00055(4)
Co2F Co 0.07866(3) 0.94073(4) 0.49945(4)
Co2G Co 0.92134(3) 0.94073(4) 0.00055(4)
N1F N 0.62604(17) 0.5653(3) -0.1624(3)
N1G N 0.37396(17) 0.5653(3) 0.6624(3)
N2B N 0.41092(16) 0.4831(3) 0.2560(3)
N2C N 0.58908(16) 0.4831(3) 0.2440(3)
N3B N 0.37723(17) 0.4703(2) 0.3563(3)
N3C N 0.62277(17) 0.4703(2) 0.1437(3)
O1D O 0.47971(13) 0.4194(2) 0.5681(2)
O1E O 0.52029(13) 0.4194(2) -0.0681(2)
O5 O 0.5456(6) 0.7659(8) 0.5679(7)
N5 N 0.6012(4) 0.8662(5) 0.7223(5)
C11 C 0.5591(6) 0.7842(7) 0.6742(6)
H12 H 0.5385 0.7375 0.7283
C12 C 0.6393(7) 0.9376(8) 0.6453(7)
H13 H 0.6665 0.9909 0.6941
H14 H 0.6743 0.8976 0.6012
H15 H 0.6025 0.9719 0.5894
C13 C 0.6143(6) 0.8809(8) 0.8509(5)
H16 H 0.6453 0.9431 0.8673
H17 H 0.5665 0.8904 0.8850
H18 H 0.6396 0.8191 0.8864
loop_
_geom_bond_atom_site_label_1
_geom_bond_atom_site_label_2
_geom_bond_site_symmetry_1
_geom_bond_site_symmetry_2
Co1 O1 1_555 1_555
Co2 O1 1_555 1_555
N1 N2 1_555 1_555
N2 N3 1_555 1_555
N3 C2 1_555 1_555
C1 N1 1_555 1_555
C2 C1 1_555 1_555
C3 C2 1_555 1_555
H1 C3 1_555 1_555
C4 C3 1_555 1_555
H2 C4 1_555 1_555
C5 C4 1_555 1_555
C6 C1 1_555 1_555
H3 C6 1_555 1_555
C7 C5 1_555 1_555
O1 H4 1_555 1_555
O2 C7 1_555 1_555
O3 Co1 1_555 1_555
O5 C11 1_555 1_555
N5 C11 1_555 1_555
C11 H12 1_555 1_555
C12 N5 1_555 1_555
H13 C12 1_555 1_555
H14 C12 1_555 1_555
H15 C12 1_555 1_555
C13 N5 1_555 1_555
H16 C13 1_555 1_555
H17 C13 1_555 1_555
H18 C13 1_555 1_555
Co2A O2 1_555 1_555
N1A N2A 1_555 1_555
N2A N3A 1_555 1_555
N3A C2A 1_555 1_555
C1A N1A 1_555 1_555
C2A C1A 1_555 1_555
C3A C2A 1_555 1_555
H1A C3A 1_555 1_555
C4A C3A 1_555 1_555
H2A C4A 1_555 1_555
C5A C4A 1_555 1_555
C6A C1A 1_555 1_555
H3A C6A 1_555 1_555
C7A C5A 1_555 1_555
O1A Co1 1_555 1_555
H4A O1A 1_555 1_555
O2A Co2 1_555 1_555
O3A Co1 1_555 1_555
Co1B N2A 1_555 1_555
Co1B_2 N2 1_555 1_555
Co2B N3 1_555 1_555
Co2C N3A 1_555 1_555
Co2D O1 1_555 1_555
Co2E O1A 1_555 1_555
Co2F N1A 1_555 1_555
Co2G N1 1_555 1_555
N1F Co2A 1_555 1_555
N1G Co2 1_555 1_555
N2B Co1 1_555 1_555
N2C Co1 1_555 1_555
N3B Co2 1_555 1_555
N3C Co2A 1_555 1_555
O1D Co2 1_555 1_555
O1E Co2A 1_555 1_555
C5 C6 1_555 1_555
C7 O3 1_555 1_555
Co2A O1A 1_555 1_555
C5A C6A 1_555 1_555
C7A O2A 1_555 1_555
C7A O3A 1_555 1_555
Co2D O1D 1_555 1_555
Co2E O1E 1_555 1_555
N2B N3B 1_555 1_555
N2C N3C 1_555 1_555

#END
