
#######################################################################
#
#                 Cambridge Crystallographic Data Centre
#                                CCDC 
#
#######################################################################
#
# If this CIF has been generated from an entry in the Cambridge 
# Structural Database, then it will include bibliographic, chemical, 
# crystal, experimental, refinement or atomic coordinate data resulting 
# from the CCDC's data processing and validation procedures.
#
#######################################################################

data_ESURER02
_chemical_formula_moiety         '(C17 H15 Co3 N7 O7)n'
_symmetry_cell_setting           monoclinic
_symmetry_space_group_name_H-M   'C 2/c'
_symmetry_Int_Tables_number      15
_space_group_name_Hall           '-C 2yc'
loop_
_symmetry_equiv_pos_site_id
_symmetry_equiv_pos_as_xyz
1 x,y,z
2 -x,y,1/2-z
3 1/2+x,1/2+y,z
4 1/2-x,1/2+y,1/2-z
5 -x,-y,-z
6 x,-y,1/2+z
7 1/2-x,1/2-y,-z
8 1/2+x,1/2-y,1/2+z
_cell_length_a                   17.8531(2)
_cell_length_b                   12.62254(15)
_cell_length_c                   11.19092(11)
_cell_angle_alpha                90
_cell_angle_beta                 94.8394(10)
_cell_angle_gamma                90
_cell_volume                     2512.9
loop_
_atom_site_label
_atom_site_type_symbol
_atom_site_fract_x
_atom_site_fract_y
_atom_site_fract_z
Co1 Co 0.5000 0.59580(5) 0.2500
Co2 Co 0.42133(3) 0.55929(4) 0.50051(4)
N1 N 0.87397(16) 0.9348(2) 0.1623(2)
N2 N 0.91086(16) 0.9829(2) 0.2561(2)
N3 N 0.87731(16) 0.9705(2) 0.3562(2)
C1 C 0.81189(19) 0.8874(3) 0.2054(3)
C2 C 0.81485(19) 0.9109(3) 0.3281(3)
C3 C 0.7598(2) 0.8736(3) 0.4006(3)
H1 H 0.7622 0.8885 0.4831
C4 C 0.7028(2) 0.8147(3) 0.3452(3)
H2 H 0.6652 0.7884 0.3911
C5 C 0.69862(19) 0.7919(3) 0.2204(3)
C6 C 0.7528(2) 0.8274(3) 0.1491(3)
H3 H 0.7503 0.8121 0.0666
C7 C 0.6332(2) 0.7264(3) 0.1685(3)
O1 O 0.52018(13) 0.58038(19) 0.4321(2)
H4 H 0.543(2) 0.641(2) 0.467(3)
O2 O 0.63586(14) 0.6902(2) 0.0632(2)
O3 O 0.58102(14) 0.7124(2) 0.2350(2)
Co2A Co 0.57867(3) 0.55929(4) -0.00051(4)
N1A N 0.12603(16) 0.9348(2) 0.3377(2)
N2A N 0.08914(16) 0.9829(2) 0.2439(2)
N3A N 0.12269(16) 0.9705(2) 0.1438(2)
C1A C 0.18811(19) 0.8874(3) 0.2946(3)
C2A C 0.18515(19) 0.9109(3) 0.1719(3)
C3A C 0.2402(2) 0.8736(3) 0.0994(3)
H1A H 0.2378 0.8885 0.0169
C4A C 0.2972(2) 0.8147(3) 0.1548(3)
H2A H 0.3348 0.7884 0.1089
C5A C 0.30138(19) 0.7919(3) 0.2796(3)
C6A C 0.2472(2) 0.8274(3) 0.3509(3)
H3A H 0.2497 0.8121 0.4334
C7A C 0.3668(2) 0.7264(3) 0.3315(3)
O1A O 0.47982(13) 0.58038(19) 0.0679(2)
H4A H 0.457(2) 0.641(2) 0.033(3)
O2A O 0.36414(14) 0.6902(2) 0.4368(2)
O3A O 0.41898(14) 0.7124(2) 0.2650(2)
Co1B Co 0.0000 1.09580(5) 0.2500
Co1B_2 Co 1.0000 1.09580(5) 0.2500
Co2B Co 0.92133(3) 1.05929(4) 0.50051(4)
Co2C Co 0.07867(3) 1.05929(4) -0.00051(4)
Co2D Co 0.57867(3) 0.44071(4) 0.49949(4)
Co2E Co 0.42133(3) 0.44071(4) 0.00051(4)
Co2F Co 0.07867(3) 0.94071(4) 0.49949(4)
Co2G Co 0.92133(3) 0.94071(4) 0.00051(4)
N1F N 0.62603(16) 0.5652(2) -0.1623(2)
N1G N 0.37397(16) 0.5652(2) 0.6623(2)
N2B N 0.41086(16) 0.4829(2) 0.2561(2)
N2C N 0.58914(16) 0.4829(2) 0.2439(2)
N3B N 0.37731(16) 0.4705(2) 0.3562(2)
N3C N 0.62269(16) 0.4705(2) 0.1438(2)
O1D O 0.47982(13) 0.41962(19) 0.5679(2)
O1E O 0.52018(13) 0.41962(19) -0.0679(2)
O5 O 0.5454(6) 0.7661(7) 0.5677(6)
N5 N 0.6012(4) 0.8658(5) 0.7223(5)
C11 C 0.5590(5) 0.7840(6) 0.6741(6)
H12 H 0.5385 0.7372 0.7280
C12 C 0.6396(7) 0.9370(8) 0.6457(7)
H13 H 0.6668 0.9902 0.6946
H14 H 0.6746 0.8970 0.6017
H15 H 0.6029 0.9715 0.5896
C13 C 0.6143(6) 0.8802(8) 0.8510(5)
H16 H 0.6454 0.9423 0.8676
H17 H 0.5666 0.8897 0.8852
H18 H 0.6396 0.8183 0.8863
loop_
_geom_bond_atom_site_label_1
_geom_bond_atom_site_label_2
_geom_bond_site_symmetry_1
_geom_bond_site_symmetry_2
Co1 O1 1_555 1_555
Co2 O1 1_555 1_555
N1 N2 1_555 1_555
N2 N3 1_555 1_555
N3 C2 1_555 1_555
C1 N1 1_555 1_555
C2 C1 1_555 1_555
C3 C2 1_555 1_555
H1 C3 1_555 1_555
C4 C3 1_555 1_555
H2 C4 1_555 1_555
C5 C4 1_555 1_555
C6 C1 1_555 1_555
H3 C6 1_555 1_555
C7 C5 1_555 1_555
O1 H4 1_555 1_555
O2 C7 1_555 1_555
O3 Co1 1_555 1_555
O5 C11 1_555 1_555
N5 C11 1_555 1_555
C11 H12 1_555 1_555
C12 N5 1_555 1_555
H13 C12 1_555 1_555
H14 C12 1_555 1_555
H15 C12 1_555 1_555
C13 N5 1_555 1_555
H16 C13 1_555 1_555
H17 C13 1_555 1_555
H18 C13 1_555 1_555
Co2A O2 1_555 1_555
N1A N2A 1_555 1_555
N2A N3A 1_555 1_555
N3A C2A 1_555 1_555
C1A N1A 1_555 1_555
C2A C1A 1_555 1_555
C3A C2A 1_555 1_555
H1A C3A 1_555 1_555
C4A C3A 1_555 1_555
H2A C4A 1_555 1_555
C5A C4A 1_555 1_555
C6A C1A 1_555 1_555
H3A C6A 1_555 1_555
C7A C5A 1_555 1_555
O1A Co1 1_555 1_555
H4A O1A 1_555 1_555
O2A Co2 1_555 1_555
O3A Co1 1_555 1_555
Co1B N2A 1_555 1_555
Co1B_2 N2 1_555 1_555
Co2B N3 1_555 1_555
Co2C N3A 1_555 1_555
Co2D O1 1_555 1_555
Co2E O1A 1_555 1_555
Co2F N1A 1_555 1_555
Co2G N1 1_555 1_555
N1F Co2A 1_555 1_555
N1G Co2 1_555 1_555
N2B Co1 1_555 1_555
N2C Co1 1_555 1_555
N3B Co2 1_555 1_555
N3C Co2A 1_555 1_555
O1D Co2 1_555 1_555
O1E Co2A 1_555 1_555
C5 C6 1_555 1_555
C7 O3 1_555 1_555
Co2A O1A 1_555 1_555
C5A C6A 1_555 1_555
C7A O2A 1_555 1_555
C7A O3A 1_555 1_555
Co2D O1D 1_555 1_555
Co2E O1E 1_555 1_555
N2B N3B 1_555 1_555
N2C N3C 1_555 1_555

#END
