
#######################################################################
#
#                 Cambridge Crystallographic Data Centre
#                                CCDC 
#
#######################################################################
#
# If this CIF has been generated from an entry in the Cambridge 
# Structural Database, then it will include bibliographic, chemical, 
# crystal, experimental, refinement or atomic coordinate data resulting 
# from the CCDC's data processing and validation procedures.
#
#######################################################################

data_ESUSOC01
_chemical_formula_moiety         '(C15 H12 Co3 N6 O7)n'
_symmetry_cell_setting           triclinic
_symmetry_space_group_name_H-M   'P -1'
_symmetry_Int_Tables_number      2
_space_group_name_Hall           '-P 1'
loop_
_symmetry_equiv_pos_site_id
_symmetry_equiv_pos_as_xyz
1 x,y,z
2 -x,-y,-z
_cell_length_a                   10.9919(13)
_cell_length_b                   10.9843(4)
_cell_length_c                   10.9893(5)
_cell_angle_alpha                83.024(3)
_cell_angle_beta                 85.221(7)
_cell_angle_gamma                81.104(7)
_cell_volume                     1298.34
loop_
_atom_site_label
_atom_site_type_symbol
_atom_site_fract_x
_atom_site_fract_y
_atom_site_fract_z
Co1 Co 0.0836(5) 0.90702(12) 0.25115(13)
Co2 Co 0.9704(3) 0.85751(11) 0.00286(13)
Co3 Co 0.8548(4) 0.99607(12) 0.49096(14)
N1 N 0.8375(18) 0.8942(6) 0.1417(8)
N2 N 0.885(2) 0.9129(6) 0.2467(10)
N3 N 0.7995(18) 0.9265(7) 0.3379(9)
N4 N 0.0718(16) 0.1896(6) 0.1604(7)
N5 N 0.0938(13) 0.1003(6) 0.2513(7)
N6 N 0.1134(17) 0.1407(6) 0.3559(7)
C1 C 0.6909(17) 0.9170(9) 0.2934(10)
C2 C 0.7146(18) 0.8989(9) 0.1690(10)
C3 C 0.6209(19) 0.8872(9) 0.0980(13)
H1 H 0.6373 0.8765 0.0153
C4 C 0.503(2) 0.8913(9) 0.1502(11)
H2 H 0.4391 0.8812 0.1034
C5 C 0.478(2) 0.9107(11) 0.2743(12)
C6 C 0.5721(19) 0.9257(9) 0.3455(12)
H3 H 0.5551 0.9414 0.4269
C7 C 0.360(3) 0.9118(10) 0.3246(12)
C8 C 0.079(2) 0.2972(6) 0.2110(8)
C9 C 0.109(2) 0.2666(7) 0.3301(8)
C10 C 0.110(2) 0.3556(7) 0.4090(10)
H4 H 0.1167 0.3341 0.4929
C11 C 0.099(2) 0.4762(7) 0.3584(9)
H5 H 0.1075 0.5376 0.4073
C12 C 0.076(2) 0.5091(7) 0.2361(8)
C13 C 0.062(2) 0.4222(7) 0.1600(9)
H6 H 0.0432 0.4449 0.0787
C14 C 0.059(2) 0.6451(8) 0.1849(10)
O1 O 0.0858(15) 0.9468(7) 0.0657(7)
H7 H 0.174(3) 0.939(9) 0.049(7)
O2 O 0.0439(17) 0.9044(6) 0.4321(6)
H8 H 0.093(10) 0.826(6) 0.460(7)
O3 O 0.3247(19) 0.9500(6) 0.4343(7)
O4 O 0.282(3) 0.8734(8) 0.2655(9)
O5 O 0.0249(16) 0.6761(5) 0.0806(7)
O6 O 0.0937(16) 0.7153(5) 0.2560(6)
O7 O 0.823(2) 1.1725(7) 0.3620(8)
H9 H 0.748(5) 1.169(6) 0.323(10)
C15 C 0.809(5) 1.2902(16) 0.413(2)
H10 H 0.7962 1.3567 0.3476
H11 H 0.7396 1.2959 0.4716
H12 H 0.8824 1.2960 0.4519
Co1_2 Co 0.0836(5) -0.09298(12) 0.25115(13)
Co1_3 Co 1.0836(5) 0.90702(12) 0.25115(13)
Co2_2 Co -0.0296(3) 0.85751(11) 0.00286(13)
Co2A Co 0.0296(3) 0.14249(11) -0.00286(13)
Co2A_2 Co 0.0296(3) 1.14249(11) -0.00286(13)
Co3_2 Co -0.1452(4) 0.99607(12) 0.49096(14)
Co3A Co 0.1452(4) 0.00393(12) 0.50904(14)
Co3A_2 Co 0.1452(4) 1.00393(12) 0.50904(14)
N2_2 N -0.115(2) 0.9129(6) 0.2467(10)
N4A N 0.9282(16) 0.8104(6) -0.1604(7)
N5_2 N 0.0938(13) 1.1003(6) 0.2513(7)
N6A N 0.8866(17) 0.8593(6) 0.6441(7)
O1_2 O 1.0858(15) 0.9468(7) 0.0657(7)
O1A O 0.9142(15) 1.0532(7) -0.0657(7)
O2_2 O 1.0439(17) 0.9044(6) 0.4321(6)
O2A O 0.9561(17) 1.0956(6) 0.5679(6)
O3A O 0.6753(19) 1.0500(6) 0.5657(7)
O5_2 O 1.0249(16) 0.6761(5) 0.0806(7)
loop_
_geom_bond_atom_site_label_1
_geom_bond_atom_site_label_2
_geom_bond_site_symmetry_1
_geom_bond_site_symmetry_2
Co1 O1 1_555 1_555
Co2 N1 1_555 1_555
Co3 N3 1_555 1_555
N1 N2 1_555 1_555
N2 N3 1_555 1_555
N3 C1 1_555 1_555
N4 N5 1_555 1_555
N5 N6 1_555 1_555
N6 C9 1_555 1_555
C1 C2 1_555 1_555
C2 N1 1_555 1_555
C3 C2 1_555 1_555
H1 C3 1_555 1_555
C4 C3 1_555 1_555
H2 C4 1_555 1_555
C5 C4 1_555 1_555
C6 C1 1_555 1_555
H3 C6 1_555 1_555
C7 C5 1_555 1_555
C8 N4 1_555 1_555
C9 C8 1_555 1_555
C10 C9 1_555 1_555
H4 C10 1_555 1_555
C11 C10 1_555 1_555
H5 C11 1_555 1_555
C12 C11 1_555 1_555
C13 C8 1_555 1_555
H6 C13 1_555 1_555
C14 C12 1_555 1_555
O1 H7 1_555 1_555
O2 Co1 1_555 1_555
H8 O2 1_555 1_555
O3 C7 1_555 1_555
O4 Co1 1_555 1_555
O5 C14 1_555 1_555
O6 Co1 1_555 1_555
O7 Co3 1_555 1_555
H9 O7 1_555 1_555
C15 O7 1_555 1_555
H10 C15 1_555 1_555
H11 C15 1_555 1_555
H12 C15 1_555 1_555
Co1_2 N5 1_555 1_555
Co1_3 N2 1_555 1_555
Co2_2 O1 1_555 1_555
Co2A N4 1_555 1_555
Co2A_2 O1 1_555 1_555
Co3_2 O2 1_555 1_555
Co3A N6 1_555 1_555
Co3A_2 O2 1_555 1_555
N2_2 Co1 1_555 1_555
N4A Co2 1_555 1_555
N5_2 Co1 1_555 1_555
N6A Co3 1_555 1_555
O1_2 Co2 1_555 1_555
O1A Co2 1_555 1_555
O2_2 Co3 1_555 1_555
O2A Co3 1_555 1_555
O3A Co3 1_555 1_555
O5_2 Co2 1_555 1_555
C5 C6 1_555 1_555
C7 O4 1_555 1_555
C12 C13 1_555 1_555
C14 O6 1_555 1_555
O3 Co3A_2 1_555 1_555
O5 Co2_2 1_555 1_555
Co1_3 O1_2 1_555 1_555
Co1_3 O2_2 1_555 1_555

#END
