
#######################################################################
#
#                 Cambridge Crystallographic Data Centre
#                                CCDC 
#
#######################################################################
#
# If this CIF has been generated from an entry in the Cambridge 
# Structural Database, then it will include bibliographic, chemical, 
# crystal, experimental, refinement or atomic coordinate data resulting 
# from the CCDC's data processing and validation procedures.
#
#######################################################################

data_ESUSIW
_chemical_formula_moiety         '(C15 H12 Co3 N6 O7)n'
_symmetry_cell_setting           monoclinic
_symmetry_space_group_name_H-M   'C 2/c'
_symmetry_Int_Tables_number      15
_space_group_name_Hall           '-C 2yc'
loop_
_symmetry_equiv_pos_site_id
_symmetry_equiv_pos_as_xyz
1 x,y,z
2 -x,y,1/2-z
3 1/2+x,1/2+y,z
4 1/2-x,1/2+y,1/2-z
5 -x,-y,-z
6 x,-y,1/2+z
7 1/2-x,1/2-y,-z
8 1/2+x,1/2-y,1/2+z
_cell_length_a                   17.6286(10)
_cell_length_b                   13.0929(12)
_cell_length_c                   11.0727(6)
_cell_angle_alpha                90
_cell_angle_beta                 95.599(5)
_cell_angle_gamma                90
_cell_volume                     2543.49
loop_
_atom_site_label
_atom_site_type_symbol
_atom_site_fract_x
_atom_site_fract_y
_atom_site_fract_z
Co1 Co 0.57870(6) 0.56424(11) -0.00268(11)
Co2 Co 0.5000 0.59353(14) 0.2500
N1 N 0.8695(4) 0.9398(6) 0.1633(7)
N2 N 0.9068(4) 0.9864(6) 0.2560(6)
N3 N 0.8732(4) 0.9768(7) 0.3571(6)
C1 C 0.8086(5) 0.8923(8) 0.2085(8)
C2 C 0.8119(5) 0.9159(8) 0.3304(8)
C3 C 0.7581(5) 0.8780(9) 0.4024(9)
H1 H 0.7617 0.8907 0.4854
C4 C 0.6999(5) 0.8217(9) 0.3469(9)
H2 H 0.6615 0.7989 0.3923
C5 C 0.6961(5) 0.7966(8) 0.2214(8)
C6 C 0.7492(5) 0.8322(8) 0.1497(8)
H3 H 0.7464 0.8179 0.0671
C7 C 0.6331(5) 0.7267(8) 0.1711(9)
O1 O 0.4790(3) 0.5772(5) 0.0674(5)
H4 H 0.465(4) 0.635(4) 0.016(7)
O2 O 0.6363(3) 0.6924(5) 0.0647(6)
O3 O 0.5815(3) 0.7085(5) 0.2389(5)
Co1A Co 0.42130(6) 0.56424(11) 0.50268(11)
N1A N 0.1305(4) 0.9398(6) 0.3367(7)
N2A N 0.0932(4) 0.9864(6) 0.2440(6)
N3A N 0.1268(4) 0.9768(7) 0.1429(6)
C1A C 0.1914(5) 0.8923(8) 0.2915(8)
C2A C 0.1881(5) 0.9159(8) 0.1696(8)
C3A C 0.2419(5) 0.8780(9) 0.0976(9)
H1A H 0.2383 0.8907 0.0146
C4A C 0.3001(5) 0.8217(9) 0.1531(9)
H2A H 0.3385 0.7989 0.1077
C5A C 0.3039(5) 0.7966(8) 0.2786(8)
C6A C 0.2508(5) 0.8322(8) 0.3503(8)
H3A H 0.2536 0.8179 0.4329
C7A C 0.3669(5) 0.7267(8) 0.3289(9)
O1A O 0.5210(3) 0.5772(5) 0.4326(5)
H4A H 0.535(4) 0.635(4) 0.484(7)
O2A O 0.3637(3) 0.6924(5) 0.4353(6)
O3A O 0.4185(3) 0.7085(5) 0.2611(5)
Co1B Co 0.07870(6) 1.06424(11) -0.00268(11)
Co1C Co 0.92130(6) 1.06424(11) 0.50268(11)
Co1D Co 0.42130(6) 0.43576(11) 0.00268(11)
Co1E Co 0.57870(6) 0.43576(11) 0.49732(11)
Co1F Co 0.92130(6) 0.93576(11) 0.00268(11)
Co1G Co 0.07870(6) 0.93576(11) 0.49732(11)
Co2B Co -0.0000 1.09353(14) 0.2500
Co2B_2 Co 1.0000 1.09353(14) 0.2500
N1F N 0.6305(4) 0.5602(6) -0.1633(7)
N1G N 0.3695(4) 0.5602(6) 0.6633(7)
N2B N 0.4068(4) 0.4864(6) 0.2560(6)
N2C N 0.5932(4) 0.4864(6) 0.2440(6)
N3B N 0.3732(4) 0.4768(7) 0.3571(6)
N3C N 0.6268(4) 0.4768(7) 0.1429(6)
O1D O 0.5210(3) 0.4228(5) -0.0674(5)
O1E O 0.4790(3) 0.4228(5) 0.5674(5)
C8 C 0.4556(11) 0.7740(17) -0.0827(19)
H5 H 0.4378 0.7449 -0.0110
H6 H 0.4130 0.7861 -0.1419
H7 H 0.4810 0.8375 -0.0624
O4 O 0.5080(8) 0.7045(12) -0.1317(13)
H8 H 0.491(6) 0.693(10) -0.217(4)
loop_
_geom_bond_atom_site_label_1
_geom_bond_atom_site_label_2
_geom_bond_site_symmetry_1
_geom_bond_site_symmetry_2
Co1 O1 1_555 1_555
Co2 O1 1_555 1_555
N1 N2 1_555 1_555
N2 N3 1_555 1_555
N3 C2 1_555 1_555
C1 N1 1_555 1_555
C2 C1 1_555 1_555
C3 C2 1_555 1_555
H1 C3 1_555 1_555
C4 C3 1_555 1_555
H2 C4 1_555 1_555
C5 C4 1_555 1_555
C6 C1 1_555 1_555
H3 C6 1_555 1_555
C7 C5 1_555 1_555
O1 H4 1_555 1_555
O2 Co1 1_555 1_555
O3 Co2 1_555 1_555
C8 H5 1_555 1_555
H6 C8 1_555 1_555
H7 C8 1_555 1_555
O4 C8 1_555 1_555
H8 O4 1_555 1_555
Co1A O1A 1_555 1_555
N1A N2A 1_555 1_555
N2A N3A 1_555 1_555
N3A C2A 1_555 1_555
C1A N1A 1_555 1_555
C2A C1A 1_555 1_555
C3A C2A 1_555 1_555
H1A C3A 1_555 1_555
C4A C3A 1_555 1_555
H2A C4A 1_555 1_555
C5A C4A 1_555 1_555
C6A C1A 1_555 1_555
H3A C6A 1_555 1_555
C7A C5A 1_555 1_555
O1A Co2 1_555 1_555
H4A O1A 1_555 1_555
O2A Co1A 1_555 1_555
O3A Co2 1_555 1_555
Co1B N3A 1_555 1_555
Co1C N3 1_555 1_555
Co1D O1 1_555 1_555
Co1E O1A 1_555 1_555
Co1F N1 1_555 1_555
Co1G N1A 1_555 1_555
Co2B N2A 1_555 1_555
Co2B_2 N2 1_555 1_555
N1F Co1 1_555 1_555
N1G Co1A 1_555 1_555
N2B Co2 1_555 1_555
N2C Co2 1_555 1_555
N3B Co1A 1_555 1_555
N3C Co1 1_555 1_555
O1D Co1 1_555 1_555
O1E Co1A 1_555 1_555
C5 C6 1_555 1_555
C7 O2 1_555 1_555
C7 O3 1_555 1_555
C5A C6A 1_555 1_555
C7A O2A 1_555 1_555
C7A O3A 1_555 1_555
Co1D O1D 1_555 1_555
Co1E O1E 1_555 1_555
N2B N3B 1_555 1_555
N2C N3C 1_555 1_555

#END
