
#######################################################################
#
#                 Cambridge Crystallographic Data Centre
#                                CCDC 
#
#######################################################################
#
# If this CIF has been generated from an entry in the Cambridge 
# Structural Database, then it will include bibliographic, chemical, 
# crystal, experimental, refinement or atomic coordinate data resulting 
# from the CCDC's data processing and validation procedures.
#
#######################################################################

data_ESUTET
_chemical_formula_moiety         '(C14 H8 Co3 N6 O6)n'
_symmetry_cell_setting           monoclinic
_symmetry_space_group_name_H-M   'C 2/c'
_symmetry_Int_Tables_number      15
_space_group_name_Hall           '-C 2yc'
loop_
_symmetry_equiv_pos_site_id
_symmetry_equiv_pos_as_xyz
1 x,y,z
2 -x,y,1/2-z
3 1/2+x,1/2+y,z
4 1/2-x,1/2+y,1/2-z
5 -x,-y,-z
6 x,-y,1/2+z
7 1/2-x,1/2-y,-z
8 1/2+x,1/2-y,1/2+z
_cell_length_a                   18.418(3)
_cell_length_b                   11.576(4)
_cell_length_c                   11.0520(15)
_cell_angle_alpha                90
_cell_angle_beta                 94.124(13)
_cell_angle_gamma                90
_cell_volume                     2350.26
loop_
_atom_site_label
_atom_site_type_symbol
_atom_site_fract_x
_atom_site_fract_y
_atom_site_fract_z
N1 N 0.8713(5) 0.9426(11) 0.1662(9)
N2 N 0.9121(5) 0.9874(12) 0.2596(9)
N3 N 0.8768(5) 0.9761(11) 0.3613(9)
C1 C 0.8092(7) 0.8998(13) 0.2094(11)
C2 C 0.8110(7) 0.9217(14) 0.3337(12)
C3 C 0.7574(7) 0.8877(14) 0.4026(13)
H1 H 0.7605 0.9002 0.4859
C4 C 0.6976(7) 0.8335(16) 0.3443(13)
H2 H 0.6587 0.8126 0.3889
C5 C 0.6943(6) 0.8095(14) 0.2206(11)
C6 C 0.7506(6) 0.8368(14) 0.1495(11)
H3 H 0.7502 0.8156 0.0682
C7 C 0.6301(7) 0.7448(14) 0.1669(12)
O1 O 0.4800(4) 0.5878(9) 0.0673(7)
H4 H 0.461(5) 0.657(6) 0.027(9)
O2 O 0.6296(4) 0.7116(10) 0.0571(8)
O3 O 0.5762(5) 0.7320(10) 0.2321(8)
Co1 Co 0.5000 0.6024(3) 0.2500
Co2 Co 0.57536(9) 0.5706(2) -0.00737(15)
N1A N 0.1287(5) 0.9426(11) 0.3338(9)
N2A N 0.0879(5) 0.9874(12) 0.2404(9)
N3A N 0.1232(5) 0.9761(11) 0.1387(9)
C1A C 0.1908(7) 0.8998(13) 0.2906(11)
C2A C 0.1890(7) 0.9217(14) 0.1663(12)
C3A C 0.2426(7) 0.8877(14) 0.0974(13)
H1A H 0.2395 0.9002 0.0141
C4A C 0.3024(7) 0.8335(16) 0.1557(13)
H2A H 0.3413 0.8126 0.1111
C5A C 0.3057(6) 0.8095(14) 0.2794(11)
C6A C 0.2494(6) 0.8368(14) 0.3505(11)
H3A H 0.2498 0.8156 0.4318
C7A C 0.3699(7) 0.7448(14) 0.3331(12)
O1A O 0.5200(4) 0.5878(9) 0.4327(7)
H4A H 0.539(5) 0.657(6) 0.473(9)
O2A O 0.3704(4) 0.7116(10) 0.4429(8)
O3A O 0.4238(5) 0.7320(10) 0.2679(8)
Co2A Co 0.42464(9) 0.5706(2) 0.50737(15)
N1F N 0.6287(5) 0.5574(11) -0.1662(9)
N1G N 0.3713(5) 0.5574(11) 0.6662(9)
N2B N 0.4121(5) 0.4874(12) 0.2596(9)
N2C N 0.5879(5) 0.4874(12) 0.2404(9)
N3B N 0.3768(5) 0.4761(11) 0.3613(9)
N3C N 0.6232(5) 0.4761(11) 0.1387(9)
O1D O 0.5200(4) 0.4122(9) -0.0673(7)
O1E O 0.4800(4) 0.4122(9) 0.5673(7)
Co1B Co 0.0000 1.1024(3) 0.2500
Co1B_2 Co 1.0000 1.1024(3) 0.2500
Co2B Co 0.07536(9) 1.0706(2) -0.00737(15)
Co2C Co 0.92464(9) 1.0706(2) 0.50737(15)
Co2D Co 0.42464(9) 0.4294(2) 0.00737(15)
Co2E Co 0.57536(9) 0.4294(2) 0.49263(15)
Co2F Co 0.92464(9) 0.9294(2) 0.00737(15)
Co2G Co 0.07536(9) 0.9294(2) 0.49263(15)
loop_
_geom_bond_atom_site_label_1
_geom_bond_atom_site_label_2
_geom_bond_site_symmetry_1
_geom_bond_site_symmetry_2
N1 N2 1_555 1_555
N2 N3 1_555 1_555
N3 C2 1_555 1_555
C1 N1 1_555 1_555
C2 C1 1_555 1_555
C3 C2 1_555 1_555
H1 C3 1_555 1_555
C4 C3 1_555 1_555
H2 C4 1_555 1_555
C5 C4 1_555 1_555
C6 C1 1_555 1_555
H3 C6 1_555 1_555
C7 C5 1_555 1_555
O1 H4 1_555 1_555
O2 C7 1_555 1_555
O3 C7 1_555 1_555
Co1 O1 1_555 1_555
Co2 O1 1_555 1_555
N1A N2A 1_555 1_555
N2A N3A 1_555 1_555
N3A C2A 1_555 1_555
C1A N1A 1_555 1_555
C2A C1A 1_555 1_555
C3A C2A 1_555 1_555
H1A C3A 1_555 1_555
C4A C3A 1_555 1_555
H2A C4A 1_555 1_555
C5A C4A 1_555 1_555
C6A C1A 1_555 1_555
H3A C6A 1_555 1_555
C7A C5A 1_555 1_555
O1A Co1 1_555 1_555
H4A O1A 1_555 1_555
O2A C7A 1_555 1_555
O3A Co1 1_555 1_555
Co2A O1A 1_555 1_555
N1F Co2 1_555 1_555
N1G Co2A 1_555 1_555
N2B Co1 1_555 1_555
N2C Co1 1_555 1_555
N3B Co2A 1_555 1_555
N3C Co2 1_555 1_555
O1D Co2 1_555 1_555
O1E Co2A 1_555 1_555
Co1B N2A 1_555 1_555
Co1B_2 N2 1_555 1_555
Co2B N3A 1_555 1_555
Co2C N3 1_555 1_555
Co2D O1 1_555 1_555
Co2E O1A 1_555 1_555
Co2F N1 1_555 1_555
Co2G N1A 1_555 1_555
C5 C6 1_555 1_555
O2 Co2 1_555 1_555
O3 Co1 1_555 1_555
C5A C6A 1_555 1_555
C7A O3A 1_555 1_555
O2A Co2A 1_555 1_555
N2B N3B 1_555 1_555
N2C N3C 1_555 1_555
O1D Co2D 1_555 1_555
O1E Co2E 1_555 1_555

#END
