
#######################################################################
#
#                 Cambridge Crystallographic Data Centre
#                                CCDC 
#
#######################################################################
#
# If this CIF has been generated from an entry in the Cambridge 
# Structural Database, then it will include bibliographic, chemical, 
# crystal, experimental, refinement or atomic coordinate data resulting 
# from the CCDC's data processing and validation procedures.
#
#######################################################################

data_ESUTAP
_chemical_formula_moiety         '(C16 H16 Co3 N6 O8)n'
_symmetry_cell_setting           monoclinic
_symmetry_space_group_name_H-M   'C 2/c'
_symmetry_Int_Tables_number      15
_space_group_name_Hall           '-C 2yc'
loop_
_symmetry_equiv_pos_site_id
_symmetry_equiv_pos_as_xyz
1 x,y,z
2 -x,y,1/2-z
3 1/2+x,1/2+y,z
4 1/2-x,1/2+y,1/2-z
5 -x,-y,-z
6 x,-y,1/2+z
7 1/2-x,1/2-y,-z
8 1/2+x,1/2-y,1/2+z
_cell_length_a                   16.894(3)
_cell_length_b                   14.014(3)
_cell_length_c                   11.0033(14)
_cell_angle_alpha                90
_cell_angle_beta                 98.287(12)
_cell_angle_gamma                90
_cell_volume                     2577.86
loop_
_atom_site_label
_atom_site_type_symbol
_atom_site_fract_x
_atom_site_fract_y
_atom_site_fract_z
Co1 Co 0.92339(15) 0.9322(2) 0.0059(2)
Co2 Co 1.0000 1.0914(3) 0.2500
N1 N 0.8658(8) 0.9410(11) 0.1618(13)
N2 N 0.9051(8) 0.9962(10) 0.2526(11)
N3 N 0.8734(8) 0.9809(10) 0.3580(13)
C1 C 0.8079(10) 0.8903(12) 0.2106(13)
C2 C 0.8139(10) 0.9154(12) 0.3330(12)
C3 C 0.7642(10) 0.8751(14) 0.4085(16)
H1 H 0.7685 0.8905 0.4914
C4 C 0.7081(10) 0.8114(13) 0.3544(15)
H2 H 0.6714 0.7859 0.4010
C5 C 0.7044(10) 0.7839(13) 0.2330(14)
C6 C 0.7556(9) 0.8213(12) 0.1600(15)
H3 H 0.7550 0.8008 0.0795
C7 C 0.6379(10) 0.7139(14) 0.1799(18)
O1 O 0.9756(7) 1.0703(9) 0.0663(11)
H4 H 0.947(9) 1.129(6) 0.048(13)
O2 O 0.6418(7) 0.6826(10) 0.0747(12)
O3 O 0.5857(9) 0.6960(12) 0.2465(14)
O4 O 0.9879(9) 0.8090(12) 0.1275(15)
H5 H 0.942(2) 0.772(3) 0.145(7)
C8 C 1.0419(18) 0.740(2) 0.080(3)
H6 H 1.0617 0.6962 0.1444
H7 H 1.0132 0.7061 0.0124
H8 H 1.0859 0.7739 0.0540
Co1A Co 1.07661(15) 0.9322(2) 0.4941(2)
N1A N 1.1342(8) 0.9410(11) 0.3382(13)
N2A N 1.0949(8) 0.9962(10) 0.2474(11)
N3A N 1.1266(8) 0.9809(10) 0.1420(13)
C1A C 1.1921(10) 0.8903(12) 0.2894(13)
C2A C 1.1861(10) 0.9154(12) 0.1670(12)
C3A C 1.2358(10) 0.8751(14) 0.0915(16)
H1A H 1.2315 0.8905 0.0086
C4A C 1.2919(10) 0.8114(13) 0.1456(15)
H2A H 1.3286 0.7859 0.0990
C5A C 1.2956(10) 0.7839(13) 0.2670(14)
C6A C 1.2444(9) 0.8213(12) 0.3400(15)
H3A H 1.2450 0.8008 0.4205
C7A C 1.3621(10) 0.7139(14) 0.3201(18)
O1A O 1.0244(7) 1.0703(9) 0.4337(11)
H4A H 1.053(9) 1.129(6) 0.452(13)
O2A O 1.3582(7) 0.6826(10) 0.4253(12)
O3A O 1.4143(9) 0.6960(12) 0.2535(14)
O4A O 1.0121(9) 0.8090(12) 0.3725(15)
H5A H 1.058(2) 0.772(3) 0.355(7)
C8A C 0.9581(18) 0.740(2) 0.420(3)
H6A H 0.9383 0.6962 0.3556
H7A H 0.9868 0.7061 0.4876
H8A H 0.9141 0.7739 0.4460
Co1D Co 1.07661(15) 1.0678(2) -0.0059(2)
Co1E Co 0.92339(15) 1.0678(2) 0.5059(2)
Co1F Co 0.57661(15) 0.5678(2) -0.0059(2)
Co1G Co 1.42339(15) 0.5678(2) 0.5059(2)
Co2B Co 0.5000 0.5914(3) 0.2500
Co2B_2 Co 1.5000 0.5914(3) 0.2500
N3D N 1.1266(8) 1.0191(10) 0.6420(13)
N3E N 0.8734(8) 1.0191(10) -0.1420(13)
O1D O 1.0244(7) 0.9297(9) -0.0663(11)
O1E O 0.9756(7) 0.9297(9) 0.5663(11)
O2F O 0.8582(7) 0.8174(10) -0.0747(12)
O2G O 1.1418(7) 0.8174(10) 0.5747(12)
O3B O 1.0857(9) 1.1960(12) 0.2465(14)
O3C O 0.9143(9) 1.1960(12) 0.2535(14)
loop_
_geom_bond_atom_site_label_1
_geom_bond_atom_site_label_2
_geom_bond_site_symmetry_1
_geom_bond_site_symmetry_2
Co1 N1 1_555 1_555
Co2 N2 1_555 1_555
N1 N2 1_555 1_555
N2 N3 1_555 1_555
N3 C2 1_555 1_555
C1 N1 1_555 1_555
C2 C1 1_555 1_555
C3 C2 1_555 1_555
H1 C3 1_555 1_555
C4 C3 1_555 1_555
H2 C4 1_555 1_555
C5 C4 1_555 1_555
C6 C1 1_555 1_555
H3 C6 1_555 1_555
C7 C5 1_555 1_555
O1 Co1 1_555 1_555
H4 O1 1_555 1_555
O2 C7 1_555 1_555
O3 C7 1_555 1_555
O4 Co1 1_555 1_555
H5 O4 1_555 1_555
C8 O4 1_555 1_555
H6 C8 1_555 1_555
H7 C8 1_555 1_555
H8 C8 1_555 1_555
Co1A N1A 1_555 1_555
N1A N2A 1_555 1_555
N2A Co2 1_555 1_555
N3A N2A 1_555 1_555
C1A N1A 1_555 1_555
C2A N3A 1_555 1_555
C3A C2A 1_555 1_555
H1A C3A 1_555 1_555
C4A C3A 1_555 1_555
H2A C4A 1_555 1_555
C5A C4A 1_555 1_555
C6A C1A 1_555 1_555
H3A C6A 1_555 1_555
C7A C5A 1_555 1_555
O1A Co2 1_555 1_555
H4A O1A 1_555 1_555
O2A C7A 1_555 1_555
O3A C7A 1_555 1_555
O4A Co1A 1_555 1_555
H5A O4A 1_555 1_555
C8A O4A 1_555 1_555
H6A C8A 1_555 1_555
H7A C8A 1_555 1_555
H8A C8A 1_555 1_555
Co1D O1 1_555 1_555
Co1E N3 1_555 1_555
Co1F O2 1_555 1_555
Co1G O2A 1_555 1_555
Co2B O3 1_555 1_555
Co2B_2 O3A 1_555 1_555
N3D Co1A 1_555 1_555
N3E Co1 1_555 1_555
O1D Co1 1_555 1_555
O1E Co1A 1_555 1_555
O2F Co1 1_555 1_555
O2G Co1A 1_555 1_555
O3B Co2 1_555 1_555
O3C Co2 1_555 1_555
Co2 O1 1_555 1_555
C5 C6 1_555 1_555
Co1A O1A 1_555 1_555
N3A Co1D 1_555 1_555
C1A C2A 1_555 1_555
C5A C6A 1_555 1_555
O1A Co1E 1_555 1_555
Co1D O1D 1_555 1_555
Co1E O1E 1_555 1_555

#END
