
#######################################################################
#
#                 Cambridge Crystallographic Data Centre
#                                CCDC 
#
#######################################################################
#
# If this CIF has been generated from an entry in the Cambridge 
# Structural Database, then it will include bibliographic, chemical, 
# crystal, experimental, refinement or atomic coordinate data resulting 
# from the CCDC's data processing and validation procedures.
#
#######################################################################

data_ESUTET01
_chemical_formula_moiety         '(C14 H8 Co3 N6 O6)n'
_symmetry_cell_setting           monoclinic
_symmetry_space_group_name_H-M   'C 2/c'
_symmetry_Int_Tables_number      15
_space_group_name_Hall           '-C 2yc'
loop_
_symmetry_equiv_pos_site_id
_symmetry_equiv_pos_as_xyz
1 x,y,z
2 -x,y,1/2-z
3 1/2+x,1/2+y,z
4 1/2-x,1/2+y,1/2-z
5 -x,-y,-z
6 x,-y,1/2+z
7 1/2-x,1/2-y,-z
8 1/2+x,1/2-y,1/2+z
_cell_length_a                   18.721(4)
_cell_length_b                   10.977(4)
_cell_length_c                   11.081(3)
_cell_angle_alpha                90
_cell_angle_beta                 93.08(2)
_cell_angle_gamma                90
_cell_volume                     2273.86
loop_
_atom_site_label
_atom_site_type_symbol
_atom_site_fract_x
_atom_site_fract_y
_atom_site_fract_z
C1 C 0.3115(5) 0.1039(9) 0.2108(9)
C2 C 0.3140(5) 0.0794(8) 0.3342(10)
C3 C 0.2564(5) 0.1069(10) 0.4050(10)
H1 H 0.2578 0.0918 0.4877
C4 C 0.1982(5) 0.1574(11) 0.3449(10)
H2 H 0.1587 0.1757 0.3891
C5 C 0.1942(5) 0.1829(9) 0.2241(9)
C6 C 0.2507(5) 0.1562(10) 0.1502(9)
H3 H 0.2483 0.1717 0.0675
C7 C 0.1275(5) 0.2446(9) 0.1664(10)
N1 N 0.3752(4) 0.0656(8) 0.1684(8)
N2 N 0.4138(4) 0.0203(8) 0.2602(8)
N3 N 0.3794(4) 0.0273(7) 0.3632(8)
O1 O 0.4804(3) -0.0911(6) 0.0665(6)
O2 O 0.1290(3) 0.2765(7) 0.0555(7)
O3 O 0.0770(3) 0.2588(6) 0.2366(7)
Co1 Co 0.5000 -0.10669(18) 0.2500
Co2 Co 0.42475(7) 0.07297(14) 0.00680(13)
H4 H 0.484(5) -0.140(4) -0.006(3)
C1A C 0.6885(5) 0.1039(9) 0.2892(9)
C2A C 0.6860(5) 0.0794(8) 0.1658(10)
C3A C 0.7436(5) 0.1069(10) 0.0950(10)
H1A H 0.7422 0.0918 0.0123
C4A C 0.8018(5) 0.1574(11) 0.1551(10)
H2A H 0.8413 0.1757 0.1109
C5A C 0.8058(5) 0.1829(9) 0.2759(9)
C6A C 0.7493(5) 0.1562(10) 0.3498(9)
H3A H 0.7517 0.1717 0.4325
C7A C 0.8725(5) 0.2446(9) 0.3336(10)
N1A N 0.6248(4) 0.0656(8) 0.3316(8)
N2A N 0.5862(4) 0.0203(8) 0.2398(8)
N3A N 0.6206(4) 0.0273(7) 0.1368(8)
O1A O 0.5196(3) -0.0911(6) 0.4335(6)
O2A O 0.8710(3) 0.2765(7) 0.4445(7)
O3A O 0.9230(3) 0.2588(6) 0.2634(7)
Co2A Co 0.57525(7) 0.07297(14) 0.49320(13)
H4A H 0.516(5) -0.140(4) 0.506(3)
N3D N 0.6206(4) -0.0273(7) 0.6368(8)
N3E N 0.3794(4) -0.0273(7) -0.1368(8)
O1D O 0.5196(3) 0.0911(6) -0.0665(6)
O1E O 0.4804(3) 0.0911(6) 0.5665(6)
O2F O 0.3710(3) 0.2235(7) -0.0555(7)
O2G O 0.6290(3) 0.2235(7) 0.5555(7)
O3B O 0.5770(3) -0.2412(6) 0.2366(7)
O3C O 0.4230(3) -0.2412(6) 0.2634(7)
Co1B Co 0.0000 0.39331(18) 0.2500
Co1B_2 Co 1.0000 0.39331(18) 0.2500
Co2D Co 0.57525(7) -0.07297(14) -0.00680(13)
Co2E Co 0.42475(7) -0.07297(14) 0.50680(13)
Co2F Co 0.07525(7) 0.42703(14) -0.00680(13)
Co2G Co 0.92475(7) 0.42703(14) 0.50680(13)
loop_
_geom_bond_atom_site_label_1
_geom_bond_atom_site_label_2
_geom_bond_site_symmetry_1
_geom_bond_site_symmetry_2
C1 C2 1_555 1_555
C2 C3 1_555 1_555
C3 H1 1_555 1_555
C4 C3 1_555 1_555
H2 C4 1_555 1_555
C5 C4 1_555 1_555
C6 C1 1_555 1_555
H3 C6 1_555 1_555
C7 C5 1_555 1_555
N1 C1 1_555 1_555
N2 N1 1_555 1_555
N3 C2 1_555 1_555
O1 Co1 1_555 1_555
O2 C7 1_555 1_555
O3 C7 1_555 1_555
Co1 N2 1_555 1_555
Co2 N1 1_555 1_555
H4 O1 1_555 1_555
C1A C2A 1_555 1_555
C2A C3A 1_555 1_555
C3A H1A 1_555 1_555
C4A C3A 1_555 1_555
H2A C4A 1_555 1_555
C5A C4A 1_555 1_555
C6A C1A 1_555 1_555
H3A C6A 1_555 1_555
C7A C5A 1_555 1_555
N1A C1A 1_555 1_555
N2A Co1 1_555 1_555
N3A C2A 1_555 1_555
O1A Co1 1_555 1_555
O2A C7A 1_555 1_555
O3A C7A 1_555 1_555
Co2A N1A 1_555 1_555
H4A O1A 1_555 1_555
N3D Co2A 1_555 1_555
N3E Co2 1_555 1_555
O1D Co2 1_555 1_555
O1E Co2A 1_555 1_555
O2F Co2 1_555 1_555
O2G Co2A 1_555 1_555
O3B Co1 1_555 1_555
O3C Co1 1_555 1_555
Co1B O3 1_555 1_555
Co1B_2 O3A 1_555 1_555
Co2D O1 1_555 1_555
Co2E N3 1_555 1_555
Co2F O2 1_555 1_555
Co2G O2A 1_555 1_555
C5 C6 1_555 1_555
N2 N3 1_555 1_555
O1 Co2 1_555 1_555
C5A C6A 1_555 1_555
N1A N2A 1_555 1_555
N2A N3A 1_555 1_555
N3A Co2D 1_555 1_555
O1A Co2A 1_555 1_555
O1A Co2E 1_555 1_555
O1D Co2D 1_555 1_555
O1E Co2E 1_555 1_555

#END
