
#######################################################################
#
#                 Cambridge Crystallographic Data Centre
#                                CCDC 
#
#######################################################################
#
# If this CIF has been generated from an entry in the Cambridge 
# Structural Database, then it will include bibliographic, chemical, 
# crystal, experimental, refinement or atomic coordinate data resulting 
# from the CCDC's data processing and validation procedures.
#
#######################################################################

data_ESUVAR
_chemical_formula_moiety         '(C20 H24 Co3 N8 O9)n'
_symmetry_cell_setting           triclinic
_symmetry_space_group_name_H-M   'P -1'
_symmetry_Int_Tables_number      2
_space_group_name_Hall           '-P 1'
loop_
_symmetry_equiv_pos_site_id
_symmetry_equiv_pos_as_xyz
1 x,y,z
2 -x,-y,-z
_cell_length_a                   10.852(3)
_cell_length_b                   10.9126(6)
_cell_length_c                   11.1478(6)
_cell_angle_alpha                84.499(5)
_cell_angle_beta                 88.211(9)
_cell_angle_gamma                66.360(12)
_cell_volume                     1203.77
loop_
_atom_site_label
_atom_site_type_symbol
_atom_site_fract_x
_atom_site_fract_y
_atom_site_fract_z
Co1 Co 0.0951(7) 0.8933(3) 0.2522(2)
Co2 Co 0.9677(6) 0.8677(3) 0.0012(2)
Co3 Co 0.8498(8) 1.0141(4) 0.4849(2)
N1 N 0.799(2) 0.9432(15) 0.3319(12)
N2 N 0.879(3) 0.9414(13) 0.2382(10)
N3 N 0.831(2) 0.9144(14) 0.1398(11)
N4 N 0.0761(18) 0.1766(13) 0.1635(11)
N5 N 0.0898(14) 0.0871(12) 0.2581(8)
N6 N 0.1070(18) 0.1289(12) 0.3618(10)
C1 C 0.695(2) 0.9165(18) 0.2936(13)
C2 C 0.715(2) 0.8983(19) 0.1708(13)
C3 C 0.624(3) 0.872(2) 0.1046(16)
H1 H 0.6354 0.8629 0.0225
C4 C 0.515(3) 0.860(2) 0.1646(14)
H2 H 0.4541 0.8397 0.1229
C5 C 0.497(3) 0.878(2) 0.2863(13)
C6 C 0.585(3) 0.9082(18) 0.3543(14)
H3 H 0.5708 0.9217 0.4356
C7 C 0.381(5) 0.867(2) 0.3436(16)
C8 C 0.0850(15) 0.2844(12) 0.2093(11)
C9 C 0.1045(16) 0.2545(12) 0.3330(10)
C10 C 0.118(2) 0.3433(14) 0.4078(12)
H4 H 0.1307 0.3220 0.4905
C11 C 0.111(2) 0.4658(15) 0.3526(11)
H5 H 0.1191 0.5280 0.3997
C12 C 0.092(2) 0.4974(15) 0.2297(11)
C13 C 0.078(2) 0.4081(14) 0.1553(13)
H6 H 0.0656 0.4299 0.0727
C14 C 0.085(3) 0.6313(18) 0.1764(14)
O1 O 0.0969(18) 0.9271(12) 0.0671(9)
H7 H 0.1930 0.8732 0.0728
O2 O 0.057(3) 0.8960(15) 0.4288(9)
H8 H 0.0558 0.8222 0.4802
O3 O 0.350(3) 0.9045(17) 0.4504(11)
O4 O 0.305(4) 0.823(2) 0.2845(13)
O5 O 0.043(3) 0.6728(15) 0.0683(10)
O6 O 0.114(3) 0.6985(15) 0.2484(10)
O7 O 0.787(4) 1.228(2) 0.3731(15)
C15 C 0.775(5) 1.288(2) 0.273(2)
H9 H 0.7852 1.2410 0.2057
N7 N 0.746(4) 1.421(2) 0.2578(16)
C16 C 0.730(7) 1.506(3) 0.354(2)
H10 H 0.7103 1.5959 0.3203
H11 H 0.6575 1.5042 0.4047
H12 H 0.8117 1.4728 0.4004
C17 C 0.732(7) 1.495(4) 0.139(2)
H13 H 0.7122 1.5876 0.1486
H14 H 0.8150 1.4573 0.0960
H15 H 0.6609 1.4886 0.0952
Co1_2 Co 0.0951(7) -0.1067(3) 0.2522(2)
Co1_3 Co 1.0951(7) 0.8933(3) 0.2522(2)
Co2_2 Co -0.0323(6) 0.8677(3) 0.0012(2)
Co2A Co 0.0323(6) 0.1323(3) -0.0012(2)
Co2A_2 Co 0.0323(6) 1.1323(3) -0.0012(2)
Co3_2 Co -0.1502(8) 1.0141(4) 0.4849(2)
Co3A Co 0.1502(8) -0.0141(4) 0.5151(2)
Co3A_2 Co 0.1502(8) 0.9859(4) 0.5151(2)
N2_2 N -0.121(3) 0.9414(13) 0.2382(10)
N4A N 0.9239(18) 0.8234(13) -0.1635(11)
N5_2 N 0.0898(14) 1.0871(12) 0.2581(8)
N6A N 0.8930(18) 0.8711(12) 0.6382(10)
O1_2 O 1.0969(18) 0.9271(12) 0.0671(9)
O1A O 0.9031(18) 1.0729(12) -0.0671(9)
O2_2 O 1.057(3) 0.8960(15) 0.4288(9)
O2A O 0.943(3) 1.1040(15) 0.5712(9)
O3A O 0.650(3) 1.0955(17) 0.5496(11)
O5_2 O 1.043(3) 0.6728(15) 0.0683(10)
O8 O 0.397(8) 0.474(4) 0.111(3)
C18 C 0.415(8) 0.480(4) 0.216(3)
H16 H 0.4082 0.5622 0.2395
N8 N 0.446(7) 0.375(4) 0.303(3)
C19 C 0.460(12) 0.243(4) 0.270(4)
H17 H 0.4811 0.1805 0.3399
H18 H 0.3770 0.2512 0.2347
H19 H 0.5307 0.2126 0.2119
C20 C 0.470(10) 0.389(6) 0.427(3)
H20 H 0.4900 0.3050 0.4747
H21 H 0.5455 0.4139 0.4307
H22 H 0.3921 0.4572 0.4585
O10 O 0.651(3) 0.268(2) 0.0120(16)
H30 H 0.573(4) 0.317(9) -0.038(3)
H31 H 0.615(5) 0.248(7) 0.088(2)
loop_
_geom_bond_atom_site_label_1
_geom_bond_atom_site_label_2
_geom_bond_site_symmetry_1
_geom_bond_site_symmetry_2
Co1 O1 1_555 1_555
Co2 N3 1_555 1_555
Co3 N1 1_555 1_555
N1 N2 1_555 1_555
N2 N3 1_555 1_555
N3 C2 1_555 1_555
N4 N5 1_555 1_555
N5 N6 1_555 1_555
N6 C9 1_555 1_555
C1 N1 1_555 1_555
C2 C1 1_555 1_555
C3 C2 1_555 1_555
H1 C3 1_555 1_555
C4 C3 1_555 1_555
H2 C4 1_555 1_555
C5 C4 1_555 1_555
C6 C1 1_555 1_555
H3 C6 1_555 1_555
C7 C5 1_555 1_555
C8 N4 1_555 1_555
C9 C8 1_555 1_555
C10 C9 1_555 1_555
H4 C10 1_555 1_555
C11 C10 1_555 1_555
H5 C11 1_555 1_555
C12 C11 1_555 1_555
C13 C8 1_555 1_555
H6 C13 1_555 1_555
C14 C12 1_555 1_555
O1 H7 1_555 1_555
O2 Co1 1_555 1_555
H8 O2 1_555 1_555
O3 C7 1_555 1_555
O4 Co1 1_555 1_555
O5 C14 1_555 1_555
O6 Co1 1_555 1_555
O7 Co3 1_555 1_555
C15 O7 1_555 1_555
H9 C15 1_555 1_555
N7 C15 1_555 1_555
C16 N7 1_555 1_555
H10 C16 1_555 1_555
H11 C16 1_555 1_555
H12 C16 1_555 1_555
C17 N7 1_555 1_555
H13 C17 1_555 1_555
H14 C17 1_555 1_555
H15 C17 1_555 1_555
O8 C18 1_555 1_555
C18 H16 1_555 1_555
N8 C18 1_555 1_555
C19 N8 1_555 1_555
H17 C19 1_555 1_555
H18 C19 1_555 1_555
H19 C19 1_555 1_555
C20 N8 1_555 1_555
H20 C20 1_555 1_555
H21 C20 1_555 1_555
H22 C20 1_555 1_555
O10 H30 1_555 1_555
H31 O10 1_555 1_555
Co1_2 N5 1_555 1_555
Co1_3 N2 1_555 1_555
Co2_2 O1 1_555 1_555
Co2A N4 1_555 1_555
Co2A_2 O1 1_555 1_555
Co3_2 O2 1_555 1_555
Co3A N6 1_555 1_555
Co3A_2 O2 1_555 1_555
N2_2 Co1 1_555 1_555
N4A Co2 1_555 1_555
N5_2 Co1 1_555 1_555
N6A Co3 1_555 1_555
O1_2 Co2 1_555 1_555
O1A Co2 1_555 1_555
O2_2 Co3 1_555 1_555
O2A Co3 1_555 1_555
O3A Co3 1_555 1_555
O5_2 Co2 1_555 1_555
C5 C6 1_555 1_555
C7 O4 1_555 1_555
C12 C13 1_555 1_555
C14 O6 1_555 1_555
O3 Co3A_2 1_555 1_555
O5 Co2_2 1_555 1_555
Co1_3 O1_2 1_555 1_555
Co1_3 O2_2 1_555 1_555

#END
