
#######################################################################
#
#                 Cambridge Crystallographic Data Centre
#                                CCDC 
#
#######################################################################
#
# If this CIF has been generated from an entry in the Cambridge 
# Structural Database, then it will include bibliographic, chemical, 
# crystal, experimental, refinement or atomic coordinate data resulting 
# from the CCDC's data processing and validation procedures.
#
#######################################################################

data_ESUVOF
_chemical_formula_moiety         '(C17 H15 Co3 N7 O7)n'
_symmetry_cell_setting           monoclinic
_symmetry_space_group_name_H-M   'C 2/c'
_symmetry_Int_Tables_number      15
_space_group_name_Hall           '-C 2yc'
loop_
_symmetry_equiv_pos_site_id
_symmetry_equiv_pos_as_xyz
1 x,y,z
2 -x,y,1/2-z
3 1/2+x,1/2+y,z
4 1/2-x,1/2+y,1/2-z
5 -x,-y,-z
6 x,-y,1/2+z
7 1/2-x,1/2-y,-z
8 1/2+x,1/2-y,1/2+z
_cell_length_a                   17.762(3)
_cell_length_b                   12.868(2)
_cell_length_c                   11.2322(8)
_cell_angle_alpha                90
_cell_angle_beta                 95.198(10)
_cell_angle_gamma                90
_cell_volume                     2556.69
loop_
_atom_site_label
_atom_site_type_symbol
_atom_site_fract_x
_atom_site_fract_y
_atom_site_fract_z
O4 O 0.558(4) 0.752(3) 0.566(5)
N4 N 0.5864(18) 0.926(3) 0.566(3)
C8 C 0.558(2) 0.836(3) 0.515(3)
H5 H 0.5370 0.8383 0.4359
C9 C 0.620(4) 0.927(5) 0.688(4)
H6 H 0.6369 0.9956 0.7090
H7 H 0.6623 0.8798 0.6956
C10 C 0.581(4) 1.022(4) 0.500(6)
H8 H 0.6035 1.0773 0.5483
H9 H 0.6069 1.0154 0.4287
H10 H 0.5287 1.0382 0.4777
H11 H 0.5832 0.9049 0.7403
Co1 Co 0.5000 0.5941(2) 0.2500
Co2 Co 0.57936(10) 0.55808(16) 0.00037(13)
N1 N 0.8733(6) 0.9352(8) 0.1622(8)
N2 N 0.9095(5) 0.9836(7) 0.2536(7)
N3 N 0.8763(6) 0.9722(9) 0.3556(8)
C1 C 0.8113(7) 0.8889(11) 0.2042(10)
C2 C 0.8153(7) 0.9103(11) 0.3281(10)
C3 C 0.7609(7) 0.8745(12) 0.3999(11)
H1 H 0.7620 0.8921 0.4803
C4 C 0.7038(8) 0.8102(12) 0.3440(11)
H2 H 0.6694 0.7789 0.3902
C5 C 0.6978(7) 0.7921(12) 0.2183(10)
C6 C 0.7520(7) 0.8272(12) 0.1486(11)
H3 H 0.7500 0.8110 0.0677
C7 C 0.6354(7) 0.7228(12) 0.1693(10)
O1 O 0.6375(5) 0.6866(8) 0.0647(7)
O2 O 0.5823(5) 0.7097(8) 0.2353(7)
O3 O 0.4811(4) 0.5773(7) 0.0683(6)
H4 H 0.4469 0.6181 0.0368
Co2A Co 0.42064(10) 0.55808(16) 0.49963(13)
N1A N 0.1267(6) 0.9352(8) 0.3378(8)
N2A N 0.0905(5) 0.9836(7) 0.2464(7)
N3A N 0.1237(6) 0.9722(9) 0.1444(8)
C1A C 0.1887(7) 0.8889(11) 0.2958(10)
C2A C 0.1847(7) 0.9103(11) 0.1719(10)
C3A C 0.2391(7) 0.8745(12) 0.1001(11)
H1A H 0.2380 0.8921 0.0197
C4A C 0.2962(8) 0.8102(12) 0.1560(11)
H2A H 0.3306 0.7789 0.1098
C5A C 0.3022(7) 0.7921(12) 0.2817(10)
C6A C 0.2480(7) 0.8272(12) 0.3514(11)
H3A H 0.2500 0.8110 0.4323
C7A C 0.3646(7) 0.7228(12) 0.3307(10)
O1A O 0.3625(5) 0.6866(8) 0.4353(7)
O2A O 0.4177(5) 0.7097(8) 0.2647(7)
O3A O 0.5189(4) 0.5773(7) 0.4317(6)
H4A H 0.5531 0.6181 0.4632
Co1B Co 0.0000 1.0941(2) 0.2500
Co1B_2 Co 1.0000 1.0941(2) 0.2500
Co2B Co 0.07936(10) 1.05808(16) 0.00037(13)
Co2C Co 0.92064(10) 1.05808(16) 0.49963(13)
Co2D Co 0.42064(10) 0.44192(16) -0.00037(13)
Co2E Co 0.57936(10) 0.44192(16) 0.50037(13)
Co2F Co 0.92064(10) 0.94192(16) -0.00037(13)
Co2G Co 0.07936(10) 0.94192(16) 0.50037(13)
N1F N 0.6267(6) 0.5648(8) -0.1622(8)
N1G N 0.3733(6) 0.5648(8) 0.6622(8)
N2B N 0.4095(5) 0.4836(7) 0.2536(7)
N2C N 0.5905(5) 0.4836(7) 0.2464(7)
N3B N 0.3763(6) 0.4722(9) 0.3556(8)
N3C N 0.6237(6) 0.4722(9) 0.1444(8)
O3D O 0.5189(4) 0.4227(7) -0.0683(6)
O3E O 0.4811(4) 0.4227(7) 0.5683(6)
loop_
_geom_bond_atom_site_label_1
_geom_bond_atom_site_label_2
_geom_bond_site_symmetry_1
_geom_bond_site_symmetry_2
Co1 O2 1_555 1_555
Co2 O1 1_555 1_555
N1 N2 1_555 1_555
N2 N3 1_555 1_555
N3 C2 1_555 1_555
C1 N1 1_555 1_555
C2 C1 1_555 1_555
C3 C2 1_555 1_555
H1 C3 1_555 1_555
C4 C3 1_555 1_555
H2 C4 1_555 1_555
C5 C4 1_555 1_555
C6 C1 1_555 1_555
H3 C6 1_555 1_555
C7 C5 1_555 1_555
O1 C7 1_555 1_555
O2 C7 1_555 1_555
O3 Co1 1_555 1_555
H4 O3 1_555 1_555
O4 C8 1_555 1_555
N4 C8 1_555 1_555
C8 H5 1_555 1_555
C9 N4 1_555 1_555
H6 C9 1_555 1_555
H7 C9 1_555 1_555
C10 N4 1_555 1_555
H8 C10 1_555 1_555
H9 C10 1_555 1_555
H10 C10 1_555 1_555
H11 C9 1_555 1_555
Co2A O1A 1_555 1_555
N1A N2A 1_555 1_555
N2A N3A 1_555 1_555
N3A C2A 1_555 1_555
C1A N1A 1_555 1_555
C2A C1A 1_555 1_555
C3A C2A 1_555 1_555
H1A C3A 1_555 1_555
C4A C3A 1_555 1_555
H2A C4A 1_555 1_555
C5A C4A 1_555 1_555
C6A C1A 1_555 1_555
H3A C6A 1_555 1_555
C7A C5A 1_555 1_555
O1A C7A 1_555 1_555
O2A Co1 1_555 1_555
O3A Co1 1_555 1_555
H4A O3A 1_555 1_555
Co1B N2A 1_555 1_555
Co1B_2 N2 1_555 1_555
Co2B N3A 1_555 1_555
Co2C N3 1_555 1_555
Co2D O3 1_555 1_555
Co2E O3A 1_555 1_555
Co2F N1 1_555 1_555
Co2G N1A 1_555 1_555
N1F Co2 1_555 1_555
N1G Co2A 1_555 1_555
N2B Co1 1_555 1_555
N2C Co1 1_555 1_555
N3B Co2A 1_555 1_555
N3C Co2 1_555 1_555
O3D Co2 1_555 1_555
O3E Co2A 1_555 1_555
Co2 O3 1_555 1_555
C5 C6 1_555 1_555
Co2A O3A 1_555 1_555
C5A C6A 1_555 1_555
C7A O2A 1_555 1_555
Co2D O3D 1_555 1_555
Co2E O3E 1_555 1_555
N2B N3B 1_555 1_555
N2C N3C 1_555 1_555

#END
