
#######################################################################
#
#                 Cambridge Crystallographic Data Centre
#                                CCDC 
#
#######################################################################
#
# If this CIF has been generated from an entry in the Cambridge 
# Structural Database, then it will include bibliographic, chemical, 
# crystal, experimental, refinement or atomic coordinate data resulting 
# from the CCDC's data processing and validation procedures.
#
#######################################################################

data_JEDJUY
_chemical_formula_moiety         '(C20 H24 Gd2 K2 O26)n'
_symmetry_cell_setting           triclinic
_symmetry_space_group_name_H-M   'P -1'
_symmetry_Int_Tables_number      2
_space_group_name_Hall           '-P 1'
loop_
_symmetry_equiv_pos_site_id
_symmetry_equiv_pos_as_xyz
1 x,y,z
2 -x,-y,-z
_cell_length_a                   7.1190(10)
_cell_length_b                   8.783(2)
_cell_length_c                   15.067(3)
_cell_angle_alpha                79.61(3)
_cell_angle_beta                 87.52(3)
_cell_angle_gamma                83.21(3)
_cell_volume                     919.903
loop_
_atom_site_label
_atom_site_type_symbol
_atom_site_fract_x
_atom_site_fract_y
_atom_site_fract_z
Gd1 Gd 0.47604(2) 0.60982(2) 0.774906(10)
K1 K 0.98627(12) 0.44818(12) 0.87249(6)
C1 C 0.8064(5) 0.5055(5) 0.5081(2)
H1 H 0.6754 0.5088 0.5139
C2 C 0.9079(5) 0.5337(5) 0.5785(2)
C3 C 0.8956(5) 0.4724(5) 0.4291(2)
C4 C 0.7922(5) 0.5708(5) 0.6600(2)
C5 C 0.7780(5) 0.4414(5) 0.3554(2)
C6 C 0.5120(5) 0.8507(4) 1.0532(2)
C7 C 0.7014(5) 0.7379(4) 0.9297(2)
C8 C 0.5897(5) 0.8727(4) 0.9649(2)
C9 C 0.4238(5) 0.9791(4) 1.0873(2)
H2 H 0.3734 0.9654 1.1458
C10 C 0.5123(5) 0.6920(4) 1.1090(2)
O1 O 0.7123(4) 0.7064(3) 0.65772(17)
O2 O 0.7609(4) 0.4622(3) 0.72380(17)
O3 O 0.8541(4) 0.4082(3) 0.28369(16)
O4 O 0.6020(4) 0.4472(4) 0.36921(19)
O5 O 0.6800(4) 0.7299(3) 0.84773(16)
O6 O 0.8068(4) 0.6456(4) 0.98224(18)
O7 O 0.4156(4) 0.5956(3) 1.08583(17)
O8 O 0.6062(4) 0.6574(3) 1.18104(18)
O9 O 0.3296(5) 0.8650(4) 0.7225(2)
O10 O 0.2692(4) 0.6562(3) 0.90260(17)
O11 O 0.9911(17) 0.1796(9) 0.7697(6)
Gd1A Gd 1.52396(2) 0.39018(2) 0.225094(10)
Gd1A_2 Gd 0.52396(2) 0.39018(2) 0.225094(10)
Gd1A_3 Gd 0.52396(2) 0.39018(2) 1.225094(10)
Gd1_2 Gd 1.47604(2) 0.60982(2) 0.774906(10)
Gd1A_4 Gd 0.52396(2) 1.39018(2) 1.225094(10)
Gd1_3 Gd 0.47604(2) 1.60982(2) 0.774906(10)
K1A K 1.01373(12) 0.55182(12) 0.12751(6)
K1A_2 K 1.01373(12) 0.55182(12) 1.12751(6)
K1A_3 K 0.01373(12) 0.55182(12) 1.12751(6)
K1_2 K -0.01373(12) 0.44818(12) 0.87249(6)
K1A_4 K 0.01373(12) 1.55182(12) 1.12751(6)
K1_3 K -0.01373(12) 1.44818(12) 0.87249(6)
K1_4 K 0.98627(12) 1.44818(12) 0.87249(6)
C1A C 1.1936(5) 0.4945(5) 0.4919(2)
H1A H 1.3246 0.4912 0.4861
C2A C 1.0921(5) 0.4663(5) 0.4215(2)
C3A C 1.1044(5) 0.5276(5) 0.5709(2)
C4A C 1.2078(5) 0.4292(5) 0.3400(2)
C5A C 1.2220(5) 0.5586(5) 0.6446(2)
C6A C 0.4880(5) 1.1493(4) 0.9468(2)
C7A C 0.2986(5) 1.2621(4) 1.0703(2)
C8A C 0.4103(5) 1.1273(4) 1.0351(2)
C9A C 0.5762(5) 1.0209(4) 0.9127(2)
H2A H 0.6266 1.0346 0.8542
C10A C 0.4877(5) 1.3080(4) 0.8910(2)
O1A O 1.2877(4) 0.2936(3) 0.34228(17)
O2A O 1.2391(4) 0.5378(3) 0.27620(17)
O3A O 1.1459(4) 0.5918(3) 0.71631(16)
O3A_2 O 0.1459(4) 0.5918(3) 0.71631(16)
O3_2 O 1.8541(4) 0.4082(3) 0.28369(16)
O4A O 1.3980(4) 0.5528(4) 0.63079(19)
O4A_2 O 0.3980(4) 0.5528(4) 0.63079(19)
O4_2 O 1.6020(4) 0.4472(4) 0.36921(19)
O5A O 0.3200(4) 1.2701(3) 1.15227(16)
O5A_2 O 1.3200(4) 0.2701(3) 0.15227(16)
O6A O 0.1932(4) 1.3544(4) 1.01776(18)
O6A_2 O 1.1932(4) 0.3544(4) 1.01776(18)
O6_2 O 0.8068(4) 0.6456(4) -0.01776(18)
O6A_3 O 1.1932(4) 0.3544(4) 0.01776(18)
O7A O 0.5844(4) 1.4044(3) 0.91417(17)
O7A_2 O 0.5844(4) 0.4044(3) 0.91417(17)
O7_2 O 1.4156(4) 0.5956(3) 0.08583(17)
O8A O 0.3938(4) 1.3426(3) 0.81896(18)
O8A_2 O 0.3938(4) 0.3426(3) 0.81896(18)
O8A_3 O 1.3938(4) 0.3426(3) 0.81896(18)
O8_2 O 1.6062(4) 0.6574(3) 0.18104(18)
O8_3 O 0.6062(4) 0.6574(3) 0.18104(18)
O9A O 1.6704(5) 0.1350(4) 0.2775(2)
O10_2 O 1.2692(4) 0.6562(3) 0.90260(17)
O10A O 1.7308(4) 0.3438(3) 0.09740(17)
O10A_2 O 0.7308(4) 0.3438(3) 0.09740(17)
O11A O 1.0089(17) 0.8204(9) 0.2303(6)
O12 O 0.0870(7) 0.9457(7) 0.9183(4)
O13 O -0.0506(10) 0.9334(8) 0.6882(9)
O14 O 0.481(2) 0.8498(10) 0.4919(4)
O15 O 0.435(2) 1.1496(7) 0.6829(4)
loop_
_geom_bond_atom_site_label_1
_geom_bond_atom_site_label_2
_geom_bond_site_symmetry_1
_geom_bond_site_symmetry_2
Gd1 O1 1_555 1_555
K1 O2 1_555 1_555
C1 H1 1_555 1_555
C2 C1 1_555 1_555
C3 C1 1_555 1_555
C4 C2 1_555 1_555
C5 C3 1_555 1_555
C6 C8 1_555 1_555
C7 C8 1_555 1_555
C8 C9A 1_555 1_555
C9 C6 1_555 1_555
H2 C9 1_555 1_555
C10 C6 1_555 1_555
O1 C4 1_555 1_555
O2 Gd1 1_555 1_555
O3 C5 1_555 1_555
O4 C5 1_555 1_555
O5 Gd1 1_555 1_555
O6 K1 1_555 1_555
O7 C10 1_555 1_555
O8 C10 1_555 1_555
O9 Gd1 1_555 1_555
O10 Gd1 1_555 1_555
O11 K1 1_555 1_555
Gd1A O1A 1_555 1_555
Gd1A_2 O3 1_555 1_555
Gd1A_3 O7 1_555 1_555
Gd1_2 O3A 1_555 1_555
Gd1A_4 O5A 1_555 1_555
Gd1_3 O7A 1_555 1_555
K1A O3 1_555 1_555
K1A_2 O6 1_555 1_555
K1A_3 O7 1_555 1_555
K1_2 O10 1_555 1_555
K1A_4 O5A 1_555 1_555
K1_3 O6A 1_555 1_555
K1_4 O7A 1_555 1_555
C1A H1A 1_555 1_555
C2A C3 1_555 1_555
C3A C2 1_555 1_555
C4A C2A 1_555 1_555
C5A C3A 1_555 1_555
C6A C8A 1_555 1_555
C7A C8A 1_555 1_555
C8A C9 1_555 1_555
C9A C6A 1_555 1_555
H2A C9A 1_555 1_555
C10A C6A 1_555 1_555
O1A C4A 1_555 1_555
O2A Gd1A 1_555 1_555
O3A K1 1_555 1_555
O3A_2 Gd1 1_555 1_555
O3_2 Gd1A 1_555 1_555
O4A Gd1_2 1_555 1_555
O4A_2 Gd1 1_555 1_555
O4_2 Gd1A 1_555 1_555
O5A C7A 1_555 1_555
O5A_2 Gd1A 1_555 1_555
O6A K1A_4 1_555 1_555
O6A_2 K1 1_555 1_555
O6_2 K1A 1_555 1_555
O6A_3 K1A 1_555 1_555
O7A C10A 1_555 1_555
O7A_2 Gd1 1_555 1_555
O7_2 Gd1A 1_555 1_555
O8A Gd1_3 1_555 1_555
O8A_2 Gd1 1_555 1_555
O8A_3 K1 1_555 1_555
O8_2 Gd1A 1_555 1_555
O8_3 Gd1A_2 1_555 1_555
O9A Gd1A 1_555 1_555
O10_2 K1 1_555 1_555
O10A Gd1A 1_555 1_555
O10A_2 Gd1A_2 1_555 1_555
O11A K1A 1_555 1_555
K1 O5 1_555 1_555
K1 O7A_2 1_555 1_555
C4 O2 1_555 1_555
C7 O5 1_555 1_555
C7 O6 1_555 1_555
O4 Gd1A_2 1_555 1_555
O8 Gd1A_3 1_555 1_555
O8 K1A_2 1_555 1_555
Gd1_2 O8A_3 1_555 1_555
Gd1_2 O10_2 1_555 1_555
K1A O2A 1_555 1_555
K1A O5A_2 1_555 1_555
K1A O7_2 1_555 1_555
K1A O8_3 1_555 1_555
K1A O10A_2 1_555 1_555
K1A_2 O6A_2 1_555 1_555
K1_2 O3A_2 1_555 1_555
K1_2 O8A_2 1_555 1_555
K1_3 O8A 1_555 1_555
C1A C2A 1_555 1_555
C1A C3A 1_555 1_555
C4A O2A 1_555 1_555
C5A O3A 1_555 1_555
C5A O4A 1_555 1_555
C7A O6A 1_555 1_555
C10A O8A 1_555 1_555

#END
