
#######################################################################
#
#                 Cambridge Crystallographic Data Centre
#                                CCDC 
#
#######################################################################
#
# If this CIF has been generated from an entry in the Cambridge 
# Structural Database, then it will include bibliographic, chemical, 
# crystal, experimental, refinement or atomic coordinate data resulting 
# from the CCDC's data processing and validation procedures.
#
#######################################################################

data_IVOLIQ
_chemical_formula_moiety         '(C28 H16 Cd2 O12 S2)n'
_symmetry_cell_setting           monoclinic
_symmetry_space_group_name_H-M   'C 2/c'
_symmetry_Int_Tables_number      15
_space_group_name_Hall           '-C 2yc'
loop_
_symmetry_equiv_pos_site_id
_symmetry_equiv_pos_as_xyz
1 x,y,z
2 -x,y,1/2-z
3 1/2+x,1/2+y,z
4 1/2-x,1/2+y,1/2-z
5 -x,-y,-z
6 x,-y,1/2+z
7 1/2-x,1/2-y,-z
8 1/2+x,1/2-y,1/2+z
_cell_length_a                   13.386(4)
_cell_length_b                   21.482(5)
_cell_length_c                   10.176(2)
_cell_angle_alpha                90
_cell_angle_beta                 94.752(8)
_cell_angle_gamma                90
_cell_volume                     2916.13
loop_
_atom_site_label
_atom_site_type_symbol
_atom_site_fract_x
_atom_site_fract_y
_atom_site_fract_z
Cd1 Cd 0.51522(2) 0.57310(2) 0.41900(2)
S1 S 1.0000 0.83155(2) 0.2500
O1 O 1.00440(8) 0.86616(5) 0.37214(11)
C1 C 0.89673(11) 0.78043(7) 0.24654(15)
C2 C 0.8572(3) 0.7571(2) 0.1272(4)
H1 H 0.8826 0.7700 0.0471
C3 C 0.7795(3) 0.7143(2) 0.1269(4)
H2 H 0.7528 0.6967 0.0459
C4 C 0.74016(12) 0.69696(7) 0.24479(16)
C5 C 0.7848(2) 0.72007(17) 0.3625(3)
H3 H 0.7613 0.7065 0.4433
C6 C 0.8630(3) 0.76264(17) 0.3653(3)
H4 H 0.8923 0.7789 0.4463
C7 C 0.65243(12) 0.65289(7) 0.24625(16)
O2 O 0.62065(9) 0.62974(6) 0.13743(11)
O3 O 0.61986(9) 0.64348(5) 0.35720(12)
S2 S 0.0000 0.31575(3) 0.2500
O4 O 0.00492(9) 0.28242(6) 0.12808(14)
C8 C 0.10519(12) 0.36581(8) 0.26844(17)
C9 C 0.13875(13) 0.38825(8) 0.39254(17)
H5 H 0.1040 0.3781 0.4674
C10 C 0.22332(13) 0.42561(8) 0.40586(17)
H6 H 0.2474 0.4408 0.4903
C11 C 0.27308(12) 0.44084(7) 0.29507(16)
C12 C 0.23793(13) 0.41879(8) 0.17107(17)
H7 H 0.2718 0.4295 0.0958
C13 C 0.15385(13) 0.38131(8) 0.15740(17)
H8 H 0.1295 0.3663 0.0730
C14 C 0.36325(12) 0.48288(7) 0.30633(15)
O5 O 0.40942(8) 0.49072(5) 0.42103(11)
O6 O 0.38609(9) 0.50926(6) 0.20491(11)
O1A O 0.99560(8) 0.86616(5) 0.12786(11)
C1A C 1.10327(11) 0.78043(7) 0.25346(15)
C2A C 1.1428(3) 0.7571(2) 0.3728(4)
H1A H 1.1174 0.7700 0.4529
C3A C 1.2205(3) 0.7143(2) 0.3731(4)
H2A H 1.2472 0.6967 0.4541
C4A C 1.25984(12) 0.69696(7) 0.25521(16)
C5A C 1.2152(2) 0.72007(17) 0.1375(3)
H3A H 1.2387 0.7065 0.0567
C6A C 1.1370(3) 0.76264(17) 0.1347(3)
H4A H 1.1077 0.7789 0.0537
C7A C 1.34757(12) 0.65289(7) 0.25375(16)
O2A O 1.37935(9) 0.62974(6) 0.36257(11)
O3A O 1.38014(9) 0.64348(5) 0.14280(12)
O4A O -0.00492(9) 0.28242(6) 0.37192(14)
C8A C -0.10519(12) 0.36581(8) 0.23156(17)
C9A C -0.13875(13) 0.38825(8) 0.10746(17)
H5A H -0.1040 0.3781 0.0326
C10A C -0.22332(13) 0.42561(8) 0.09414(17)
H6A H -0.2474 0.4408 0.0097
C11A C -0.27308(12) 0.44084(7) 0.20493(16)
C12A C -0.23793(13) 0.41879(8) 0.32893(17)
H7A H -0.2718 0.4295 0.4042
C13A C -0.15385(13) 0.38131(8) 0.34260(17)
H8A H -0.1295 0.3663 0.4270
C14A C -0.36325(12) 0.48288(7) 0.19367(15)
O5A O -0.40942(8) 0.49072(5) 0.07897(11)
O6A O -0.38609(9) 0.50926(6) 0.29509(11)
Cd1A Cd -0.51522(2) 0.57310(2) 0.08100(2)
Cd1_2 Cd -0.48478(2) 0.57310(2) 0.41900(2)
Cd1_3 Cd 1.51522(2) 0.57310(2) 0.41900(2)
Cd1A_2 Cd 0.48478(2) 0.57310(2) 0.08100(2)
Cd1A_3 Cd 1.48478(2) 0.57310(2) 0.08100(2)
Cd1D Cd 0.48478(2) 0.42690(2) 0.58100(2)
Cd1E Cd -0.48478(2) 0.42690(2) -0.08100(2)
Cd1F Cd 0.98478(2) 0.92690(2) 0.58100(2)
Cd1G Cd 1.01522(2) 0.92690(2) -0.08100(2)
O1F O 0.49560(8) 0.63384(5) 0.62786(11)
O1G O -0.49560(8) 0.63384(5) -0.12786(11)
O2_2 O -0.37935(9) 0.62974(6) 0.13743(11)
O2A_2 O 0.37935(9) 0.62974(6) 0.36257(11)
O3A_2 O -0.61986(9) 0.64348(5) 0.14280(12)
O5D O 0.59058(8) 0.50928(5) 0.57897(11)
O5E O -0.59058(8) 0.50928(5) -0.07897(11)
O6_2 O -0.61391(9) 0.50926(6) 0.20491(11)
O6A_2 O 0.61391(9) 0.50926(6) 0.29509(11)
loop_
_geom_bond_atom_site_label_1
_geom_bond_atom_site_label_2
_geom_bond_site_symmetry_1
_geom_bond_site_symmetry_2
Cd1 O3 1_555 1_555
S1 O1 1_555 1_555
O1 Cd1F 1_555 1_555
C1 S1 1_555 1_555
C2 C1 1_555 1_555
H1 C2 1_555 1_555
C3 C2 1_555 1_555
H2 C3 1_555 1_555
C4 C3 1_555 1_555
C5 C4 1_555 1_555
H3 C5 1_555 1_555
C6 C1 1_555 1_555
H4 C6 1_555 1_555
C7 C4 1_555 1_555
O2 C7 1_555 1_555
O3 C7 1_555 1_555
S2 O4 1_555 1_555
C8 S2 1_555 1_555
C9 C8 1_555 1_555
H5 C9 1_555 1_555
C10 C9 1_555 1_555
H6 C10 1_555 1_555
C11 C10 1_555 1_555
C12 C11 1_555 1_555
H7 C12 1_555 1_555
C13 C8 1_555 1_555
H8 C13 1_555 1_555
C14 C11 1_555 1_555
O5 Cd1 1_555 1_555
O6 C14 1_555 1_555
O1A S1 1_555 1_555
C1A S1 1_555 1_555
C2A C1A 1_555 1_555
H1A C2A 1_555 1_555
C3A C2A 1_555 1_555
H2A C3A 1_555 1_555
C4A C3A 1_555 1_555
C5A C4A 1_555 1_555
H3A C5A 1_555 1_555
C6A C1A 1_555 1_555
H4A C6A 1_555 1_555
C7A C4A 1_555 1_555
O2A C7A 1_555 1_555
O3A C7A 1_555 1_555
O4A S2 1_555 1_555
C8A S2 1_555 1_555
C9A C8A 1_555 1_555
H5A C9A 1_555 1_555
C10A C9A 1_555 1_555
H6A C10A 1_555 1_555
C11A C10A 1_555 1_555
C12A C11A 1_555 1_555
H7A C12A 1_555 1_555
C13A C8A 1_555 1_555
H8A C13A 1_555 1_555
C14A C11A 1_555 1_555
O5A C14A 1_555 1_555
O6A C14A 1_555 1_555
Cd1A O5A 1_555 1_555
Cd1_2 O6A 1_555 1_555
Cd1_3 O2A 1_555 1_555
Cd1A_2 O2 1_555 1_555
Cd1A_3 O3A 1_555 1_555
Cd1D O5 1_555 1_555
Cd1E O5A 1_555 1_555
Cd1G O1A 1_555 1_555
O1F Cd1 1_555 1_555
O1G Cd1A 1_555 1_555
O2_2 Cd1A 1_555 1_555
O2A_2 Cd1 1_555 1_555
O3A_2 Cd1A 1_555 1_555
O5D Cd1 1_555 1_555
O5E Cd1A 1_555 1_555
O6_2 Cd1A 1_555 1_555
O6A_2 Cd1 1_555 1_555
C5 C6 1_555 1_555
C12 C13 1_555 1_555
C14 O5 1_555 1_555
O6 Cd1A_2 1_555 1_555
C5A C6A 1_555 1_555
C12A C13A 1_555 1_555
Cd1D O5D 1_555 1_555
Cd1E O5E 1_555 1_555

#END
