
#######################################################################
#
#                 Cambridge Crystallographic Data Centre
#                                CCDC 
#
#######################################################################
#
# If this CIF has been generated from an entry in the Cambridge 
# Structural Database, then it will include bibliographic, chemical, 
# crystal, experimental, refinement or atomic coordinate data resulting 
# from the CCDC's data processing and validation procedures.
#
#######################################################################

data_YOVCAP
_chemical_formula_moiety         '(C72 H32 O25 Zn3 6-)n'
_symmetry_cell_setting           rhombohedral
_symmetry_space_group_name_H-M   'R -3'
_symmetry_Int_Tables_number      148
_space_group_name_Hall           '-R 3'
loop_
_symmetry_equiv_pos_site_id
_symmetry_equiv_pos_as_xyz
1 x,y,z
2 -y,x-y,z
3 -x+y,-x,z
4 2/3+x,1/3+y,1/3+z
5 2/3-y,1/3+x-y,1/3+z
6 2/3-x+y,1/3-x,1/3+z
7 1/3+x,2/3+y,2/3+z
8 1/3-y,2/3+x-y,2/3+z
9 1/3-x+y,2/3-x,2/3+z
10 -x,-y,-z
11 y,-x+y,-z
12 x-y,x,-z
13 1/3-x,2/3-y,2/3-z
14 1/3+y,2/3-x+y,2/3-z
15 1/3+x-y,2/3+x,2/3-z
16 2/3-x,1/3-y,1/3-z
17 2/3+y,1/3-x+y,1/3-z
18 2/3+x-y,1/3+x,1/3-z
_cell_length_a                   28.707(7)
_cell_length_b                   28.707(7)
_cell_length_c                   24.682(11)
_cell_angle_alpha                90
_cell_angle_beta                 90
_cell_angle_gamma                120
_cell_volume                     17615.2
loop_
_atom_site_label
_atom_site_type_symbol
_atom_site_fract_x
_atom_site_fract_y
_atom_site_fract_z
_atom_site_U_iso_or_equiv
_atom_site_thermal_displace_type
O9 O 0.0080(4) 0.8265(5) 0.1437(4) 0.3451 Uani
C1 C 0.2993(2) 0.27678(17) 0.0105(2) 0.0786 Uani
C2 C 0.29605(17) 0.22316(16) 0.00486(18) 0.0688 Uani
C3 C 0.33994(18) 0.22075(18) -0.0141(2) 0.0899 Uani
H1 H 0.3700 0.2520 -0.0262 0.1070 Uiso
C4 C 0.33983(17) 0.17285(16) -0.0154(2) 0.0866 Uani
C5 C 0.29397(16) 0.12706(16) 0.0022(2) 0.0814 Uani
H2 H 0.2933 0.0944 0.0006 0.0980 Uiso
C6 C 0.24942(15) 0.12752(15) 0.02193(18) 0.0639 Uani
C7 C 0.25127(15) 0.17667(15) 0.02274(17) 0.0648 Uani
H3 H 0.2217 0.1784 0.0356 0.0780 Uiso
C8 C 0.3892(2) 0.1710(2) -0.0307(3) 0.1147 Uani
C9 C 0.20390(15) 0.07852(15) 0.04599(17) 0.0603 Uani
C10 C 0.21409(15) 0.04205(15) 0.07147(17) 0.0641 Uani
H4 H 0.2491 0.0482 0.0716 0.0770 Uiso
C11 C 0.17501(14) -0.00294(15) 0.09665(16) 0.0563 Uani
C12 C 0.12291(14) -0.01257(14) 0.09580(16) 0.0558 Uani
H5 H 0.0959 -0.0430 0.1129 0.0670 Uiso
C13 C 0.10999(13) 0.02274(13) 0.06968(15) 0.0475 Uani
C14 C 0.15057(14) 0.06750(14) 0.04493(16) 0.0536 Uani
H6 H 0.1424 0.0911 0.0270 0.0640 Uiso
C15 C 0.05372(13) 0.01107(13) 0.06997(15) 0.0473 Uani
C16 C 0.04174(13) 0.05246(13) 0.07002(15) 0.0518 Uani
H7 H 0.0699 0.0879 0.0701 0.0620 Uiso
C17 C 0.18935(15) -0.03915(15) 0.12540(17) 0.0623 Uani
C18 C 0.23893(16) -0.01963(17) 0.14875(19) 0.0746 Uani
H8 H 0.2632 0.0171 0.1466 0.0890 Uiso
C19 C 0.25451(16) -0.05152(18) 0.1751(2) 0.0777 Uani
C20 C 0.22006(19) -0.1053(2) 0.1766(2) 0.0858 Uani
H9 H 0.2303 -0.1275 0.1939 0.1030 Uiso
C21 C 0.16977(18) -0.12772(17) 0.1526(2) 0.0806 Uani
C22 C 0.15498(16) -0.09487(16) 0.12705(18) 0.0713 Uani
H10 H 0.1215 -0.1098 0.1104 0.0850 Uiso
C23 C 0.1341(2) -0.1873(2) 0.1512(3) 0.1137 Uani
C24 C 0.3106(2) -0.0264(2) 0.1976(2) 0.0924 Uani
O1 O 0.26284(13) 0.27662(11) 0.03790(15) 0.0887 Uani
O2 O 0.33815(18) 0.31693(15) -0.0079(2) 0.1499 Uani
O3 O 0.38581(12) 0.12674(13) -0.04253(17) 0.1143 Uani
O4 O 0.43266(15) 0.21418(15) -0.0306(3) 0.1908 Uani
O5 O 0.09035(13) -0.20530(12) 0.12595(16) 0.1020 Uani
O6 O 0.1480(2) -0.21569(16) 0.1742(3) 0.2078 Uani
O7 O 0.34270(15) 0.02086(18) 0.19091(19) 0.1358 Uani
O8 O 0.32186(13) -0.05480(14) 0.22643(15) 0.1006 Uani
Zn1 Zn 0.395903(19) -0.00092(2) 0.24989(3) 0.0847 Uani
C1A C -0.27678(17) 0.02252(26) 0.0105(2) 0.0786 Uani
C2A C -0.22316(16) 0.07289(23) 0.00486(18) 0.0688 Uani
C3A C -0.22075(18) 0.11919(25) -0.0141(2) 0.0899 Uani
H1A H -0.2520 0.1180 -0.0262 0.1070 Uiso
C4A C -0.17285(16) 0.16698(23) -0.0154(2) 0.0866 Uani
C5A C -0.12706(16) 0.16691(23) 0.0022(2) 0.0814 Uani
H2A H -0.0944 0.1989 0.0006 0.0980 Uiso
C6A C -0.12752(15) 0.12190(21) 0.02193(18) 0.0639 Uani
C7A C -0.17667(15) 0.07460(21) 0.02274(17) 0.0648 Uani
H3A H -0.1784 0.0433 0.0356 0.0780 Uiso
C8A C -0.1710(2) 0.2182(3) -0.0307(3) 0.1147 Uani
C9A C -0.07852(15) 0.12538(21) 0.04599(17) 0.0603 Uani
C10A C -0.04205(15) 0.17204(21) 0.07147(17) 0.0641 Uani
H4A H -0.0482 0.2009 0.0716 0.0770 Uiso
C11A C 0.00294(15) 0.17795(21) 0.09665(16) 0.0563 Uani
C12A C 0.01257(14) 0.13548(20) 0.09580(16) 0.0558 Uani
H5A H 0.0430 0.1389 0.1129 0.0670 Uiso
C13A C -0.02274(13) 0.08725(18) 0.06968(15) 0.0475 Uani
C14A C -0.06750(14) 0.08307(20) 0.04493(16) 0.0536 Uani
H6A H -0.0911 0.0513 0.0270 0.0640 Uiso
C15A C -0.01107(13) 0.04265(18) 0.06997(15) 0.0473 Uani
C16A C -0.05246(13) -0.01072(18) 0.07002(15) 0.0518 Uani
H7A H -0.0879 -0.0180 0.0701 0.0620 Uiso
C17A C 0.03915(15) 0.22850(21) 0.12540(17) 0.0623 Uani
C18A C 0.01963(17) 0.25856(23) 0.14875(19) 0.0746 Uani
H8A H -0.0171 0.2461 0.1466 0.0890 Uiso
C19A C 0.05152(18) 0.30603(24) 0.1751(2) 0.0777 Uani
C20A C 0.1053(2) 0.32536(28) 0.1766(2) 0.0858 Uani
H9A H 0.1275 0.3578 0.1939 0.1030 Uiso
C21A C 0.12772(17) 0.29749(25) 0.1526(2) 0.0806 Uani
C22A C 0.09487(16) 0.24985(23) 0.12705(18) 0.0713 Uani
H10A H 0.1098 0.2313 0.1104 0.0850 Uiso
C23A C 0.1873(2) 0.3214(3) 0.1512(3) 0.1137 Uani
C24A C 0.0264(2) 0.3370(3) 0.1976(2) 0.0924 Uani
O1A O -0.27662(11) -0.01378(17) 0.03790(15) 0.0887 Uani
O2A O -0.31693(15) 0.02122(23) -0.0079(2) 0.1499 Uani
O3A O -0.12674(13) 0.25907(18) -0.04253(17) 0.1143 Uani
O4A O -0.21418(15) 0.21848(21) -0.0306(3) 0.1908 Uani
O5A O 0.20530(12) 0.29565(18) 0.12595(16) 0.1020 Uani
O6A O 0.21569(16) 0.36369(26) 0.1742(3) 0.2078 Uani
O7A O -0.02086(18) 0.32184(23) 0.19091(19) 0.1358 Uani
O8A O 0.05480(14) 0.37666(19) 0.22643(15) 0.1006 Uani
C1B C -0.02252(26) -0.2993(2) 0.0105(2) 0.0786 Uani
C2B C -0.07289(23) -0.29605(17) 0.00486(18) 0.0688 Uani
C3B C -0.11919(25) -0.33994(18) -0.0141(2) 0.0899 Uani
H1B H -0.1180 -0.3700 -0.0262 0.1070 Uiso
C4B C -0.16698(23) -0.33983(17) -0.0154(2) 0.0866 Uani
C5B C -0.16691(23) -0.29397(16) 0.0022(2) 0.0814 Uani
H2B H -0.1989 -0.2933 0.0006 0.0980 Uiso
C6B C -0.12190(21) -0.24942(15) 0.02193(18) 0.0639 Uani
C7B C -0.07460(21) -0.25127(15) 0.02274(17) 0.0648 Uani
H3B H -0.0433 -0.2217 0.0356 0.0780 Uiso
C8B C -0.2182(3) -0.3892(2) -0.0307(3) 0.1147 Uani
C9B C -0.12538(21) -0.20390(15) 0.04599(17) 0.0603 Uani
C10B C -0.17204(21) -0.21409(15) 0.07147(17) 0.0641 Uani
H4B H -0.2009 -0.2491 0.0716 0.0770 Uiso
C11B C -0.17795(21) -0.17501(14) 0.09665(16) 0.0563 Uani
C12B C -0.13548(20) -0.12291(14) 0.09580(16) 0.0558 Uani
H5B H -0.1389 -0.0959 0.1129 0.0670 Uiso
C13B C -0.08725(18) -0.10999(13) 0.06968(15) 0.0475 Uani
C14B C -0.08307(20) -0.15057(14) 0.04493(16) 0.0536 Uani
H6B H -0.0513 -0.1424 0.0270 0.0640 Uiso
C15B C -0.04265(18) -0.05372(13) 0.06997(15) 0.0473 Uani
C16B C 0.01072(18) -0.04174(13) 0.07002(15) 0.0518 Uani
H7B H 0.0180 -0.0699 0.0701 0.0620 Uiso
C17B C -0.22850(21) -0.18935(15) 0.12540(17) 0.0623 Uani
C18B C -0.25856(23) -0.23893(16) 0.14875(19) 0.0746 Uani
H8B H -0.2461 -0.2632 0.1466 0.0890 Uiso
C19B C -0.30603(24) -0.25451(16) 0.1751(2) 0.0777 Uani
C20B C -0.32536(28) -0.22006(19) 0.1766(2) 0.0858 Uani
H9B H -0.3578 -0.2303 0.1939 0.1030 Uiso
C21B C -0.29749(25) -0.16977(18) 0.1526(2) 0.0806 Uani
C22B C -0.24985(23) -0.15498(16) 0.12705(18) 0.0713 Uani
H10B H -0.2313 -0.1215 0.1104 0.0850 Uiso
C23B C -0.3214(3) -0.1341(2) 0.1512(3) 0.1137 Uani
C24B C -0.3370(3) -0.3106(2) 0.1976(2) 0.0924 Uani
O1B O 0.01378(17) -0.26284(13) 0.03790(15) 0.0887 Uani
O2B O -0.02122(23) -0.33815(18) -0.0079(2) 0.1499 Uani
O3B O -0.25907(18) -0.38581(12) -0.04253(17) 0.1143 Uani
O4B O -0.21848(21) -0.43266(15) -0.0306(3) 0.1908 Uani
O5B O -0.29565(18) -0.09035(13) 0.12595(16) 0.1020 Uani
O6B O -0.36369(26) -0.1480(2) 0.1742(3) 0.2078 Uani
O7B O -0.32184(23) -0.34270(15) 0.19091(19) 0.1358 Uani
O8B O -0.37666(19) -0.32186(13) 0.22643(15) 0.1006 Uani
Zn1A Zn 0.00092(2) 0.396823(28) 0.24989(3) 0.0847 Uani
Zn1B Zn -0.396823(28) -0.395903(19) 0.24989(3) 0.0847 Uani
O1O O 0.40383(13) 0.05671(11) 0.29543(15) 0.0887 Uani
O1P O -0.05671(11) 0.34711(17) 0.29543(15) 0.0887 Uani
O1Q O -0.34711(17) -0.40383(13) 0.29543(15) 0.0887 Uani
O3C O 0.05248(12) 0.46007(13) 0.29080(17) 0.1143 Uani
O3D O -0.46007(13) -0.40760(18) 0.29080(17) 0.1143 Uani
O3E O 0.40760(18) -0.05248(12) 0.29080(17) 0.1143 Uani
O5O O -0.42368(13) -0.46137(12) 0.20738(16) 0.1020 Uani
O5P O 0.46137(12) 0.03768(18) 0.20738(16) 0.1020 Uani
O5Q O -0.03768(18) 0.42368(13) 0.20738(16) 0.1020 Uani
Zn1F Zn -0.270764(19) -0.33425(2) -0.08344(3) 0.0847 Uani
Zn1G Zn 0.33425(2) 0.063490(28) -0.08344(3) 0.0847 Uani
Zn1H Zn -0.063490(28) 0.270764(19) -0.08344(3) 0.0847 Uani
Zn1O Zn 0.270764(19) 0.33425(2) 0.08344(3) 0.0847 Uani
Zn1P Zn -0.33425(2) -0.063490(28) 0.08344(3) 0.0847 Uani
Zn1Q Zn 0.063490(28) -0.270764(19) 0.08344(3) 0.0847 Uani
loop_
_atom_site_aniso_label
_atom_site_aniso_U_11
_atom_site_aniso_U_22
_atom_site_aniso_U_33
_atom_site_aniso_U_23
_atom_site_aniso_U_13
_atom_site_aniso_U_12
O9 0.300(11) 0.388(13) 0.410(12) -0.046(10) -0.041(9) 0.219(11)
C1 0.059(3) 0.040(3) 0.129(4) -0.002(3) -0.004(3) 0.019(2)
C2 0.055(3) 0.042(2) 0.113(4) 0.000(2) 0.009(2) 0.027(2)
C3 0.065(3) 0.044(3) 0.147(5) -0.005(3) 0.035(3) 0.017(2)
C4 0.051(3) 0.039(3) 0.161(5) -0.008(3) 0.031(3) 0.016(2)
C5 0.053(3) 0.039(2) 0.151(4) 0.002(3) 0.025(3) 0.022(2)
C6 0.044(2) 0.042(2) 0.106(4) -0.004(2) 0.010(2) 0.0218(19)
C7 0.042(2) 0.045(2) 0.109(4) 0.001(2) 0.008(2) 0.023(2)
C8 0.060(3) 0.060(3) 0.208(6) -0.018(4) 0.042(4) 0.018(3)
C9 0.042(2) 0.039(2) 0.098(3) 0.003(2) 0.016(2) 0.0189(19)
C10 0.032(2) 0.041(2) 0.119(4) -0.001(2) 0.000(2) 0.018(2)
C11 0.034(2) 0.045(2) 0.093(3) -0.003(2) -0.008(2) 0.022(2)
C12 0.037(2) 0.036(2) 0.090(3) 0.0026(19) 0.0068(19) 0.0150(18)
C13 0.034(2) 0.034(2) 0.074(3) -0.0044(18) 0.0005(18) 0.0166(18)
C14 0.037(2) 0.038(2) 0.089(3) 0.002(2) 0.007(2) 0.0212(18)
C15 0.0324(19) 0.035(2) 0.074(3) 0.0006(18) -0.0031(18) 0.0164(17)
C16 0.031(2) 0.0297(19) 0.089(3) 0.0024(18) 0.0022(18) 0.0110(16)
C17 0.039(2) 0.046(2) 0.103(3) 0.001(2) -0.009(2) 0.022(2)
C18 0.043(3) 0.049(3) 0.133(4) 0.000(2) -0.009(2) 0.024(2)
C19 0.047(3) 0.053(3) 0.129(4) -0.005(3) -0.016(3) 0.022(2)
C20 0.070(3) 0.079(4) 0.128(4) 0.006(3) -0.028(3) 0.052(3)
C21 0.061(3) 0.049(3) 0.127(4) 0.002(3) -0.024(3) 0.024(2)
C22 0.045(2) 0.050(3) 0.118(4) 0.005(2) -0.018(2) 0.023(2)
C23 0.096(4) 0.068(4) 0.177(6) 0.011(4) -0.053(4) 0.041(3)
C24 0.061(3) 0.071(4) 0.144(5) -0.003(3) -0.031(3) 0.032(3)
O1 0.0522(19) 0.0525(19) 0.166(3) -0.0231(18) -0.010(2) 0.0296(16)
O2 0.141(4) 0.053(2) 0.247(5) 0.026(3) 0.081(4) 0.042(3)
O3 0.054(2) 0.056(2) 0.226(4) -0.031(2) 0.033(2) 0.0223(17)
O4 0.067(3) 0.066(3) 0.407(8) -0.034(3) 0.089(4) 0.009(2)
O5 0.072(2) 0.0493(19) 0.173(3) 0.0030(19) -0.039(2) 0.0215(17)
O6 0.174(5) 0.065(3) 0.366(8) 0.014(4) -0.146(5) 0.046(3)
O7 0.060(2) 0.108(3) 0.206(4) 0.012(3) -0.039(2) 0.017(2)
O8 0.064(2) 0.078(2) 0.161(3) -0.010(2) -0.038(2) 0.0364(19)
Zn1 0.0440(3) 0.0527(3) 0.1586(6) -0.0257(3) -0.0209(3) 0.0250(3)
C1A 0.04 0.061 0.129 -0.002 0.002 0.021
C2A 0.042 0.043 0.113 0.009 0 0.015
C3A 0.044 0.075 0.147 0.04 0.005 0.027
C4A 0.039 0.058 0.161 0.039 0.008 0.023
C5A 0.039 0.048 0.151 0.023 -0.002 0.017
C6A 0.042 0.0424 0.106 0.014 0.004 0.0202
C7A 0.045 0.041 0.109 0.007 -0.001 0.022
C8A 0.06 0.084 0.208 0.06 0.018 0.042
C9A 0.039 0.0432 0.098 0.013 -0.003 0.0201
C10A 0.041 0.037 0.119 0.001 0.001 0.023
C11A 0.045 0.035 0.093 -0.005 0.003 0.023
C12A 0.036 0.043 0.09 0.0042 -0.0026 0.021
C13A 0.034 0.0348 0.074 0.0049 0.0044 0.0174
C14A 0.038 0.0326 0.089 0.005 -0.002 0.0168
C15A 0.035 0.0346 0.074 -0.0037 -0.0006 0.0186
C16A 0.0297 0.0387 0.089 -0.0002 -0.0024 0.0187
C17A 0.046 0.041 0.103 -0.01 -0.001 0.024
C18A 0.049 0.044 0.133 -0.009 0 0.025
C19A 0.053 0.056 0.129 -0.011 0.005 0.031
C20A 0.079 0.045 0.128 -0.034 -0.006 0.027
C21A 0.049 0.062 0.127 -0.026 -0.002 0.025
C22A 0.05 0.049 0.118 -0.023 -0.005 0.027
C23A 0.068 0.082 0.177 -0.064 -0.011 0.027
C24A 0.071 0.068 0.144 -0.028 0.003 0.039
O1A 0.0525 0.0455 0.166 0.0131 0.0231 0.0229
O2A 0.053 0.11 0.247 0.055 -0.026 0.011
O3A 0.056 0.0654 0.226 0.064 0.031 0.0337
O4A 0.066 0.115 0.407 0.123 0.034 0.057
O5A 0.0493 0.0783 0.173 -0.042 -0.003 0.0278
O6A 0.065 0.147 0.366 -0.16 -0.014 0.019
O7A 0.108 0.134 0.206 -0.051 -0.012 0.091
O8A 0.078 0.0692 0.161 -0.028 0.01 0.0416
C1B 0.061 0.059 0.129 0.004 0.002 0.04
C2B 0.043 0.055 0.113 -0.009 -0.009 0.028
C3B 0.075 0.065 0.147 -0.035 -0.04 0.048
C4B 0.058 0.051 0.161 -0.031 -0.039 0.035
C5B 0.048 0.053 0.151 -0.025 -0.023 0.031
C6B 0.0424 0.044 0.106 -0.01 -0.014 0.0222
C7B 0.041 0.042 0.109 -0.008 -0.007 0.019
C8B 0.084 0.06 0.208 -0.042 -0.06 0.042
C9B 0.0432 0.042 0.098 -0.016 -0.013 0.0231
C10B 0.037 0.032 0.119 0 -0.001 0.014
C11B 0.035 0.034 0.093 0.008 0.005 0.012
C12B 0.043 0.037 0.09 -0.0068 -0.0042 0.022
C13B 0.0348 0.034 0.074 -0.0005 -0.0049 0.0174
C14B 0.0326 0.037 0.089 -0.007 -0.005 0.0158
C15B 0.0346 0.0324 0.074 0.0031 0.0037 0.016
C16B 0.0387 0.031 0.089 -0.0022 0.0002 0.02
C17B 0.041 0.039 0.103 0.009 0.01 0.017
C18B 0.044 0.043 0.133 0.009 0.009 0.019
C19B 0.056 0.047 0.129 0.016 0.011 0.025
C20B 0.045 0.07 0.128 0.028 0.034 0.018
C21B 0.062 0.061 0.127 0.024 0.026 0.037
C22B 0.049 0.045 0.118 0.018 0.023 0.022
C23B 0.082 0.096 0.177 0.053 0.064 0.055
C24B 0.068 0.061 0.144 0.031 0.028 0.029
O1B 0.0455 0.0522 0.166 0.01 -0.0131 0.0226
O2B 0.11 0.141 0.247 -0.081 -0.055 0.099
O3B 0.0654 0.054 0.226 -0.033 -0.064 0.0317
O4B 0.115 0.067 0.407 -0.089 -0.123 0.058
O5B 0.0783 0.072 0.173 0.039 0.042 0.0505
O6B 0.147 0.174 0.366 0.146 0.16 0.128
O7B 0.134 0.06 0.206 0.039 0.051 0.043
O8B 0.0692 0.064 0.161 0.038 0.028 0.0276
Zn1A 0.0527 0.0467 0.1586 0.0048 0.0257 0.0277
Zn1B 0.0467 0.044 0.1586 0.0209 -0.0048 0.019
O1O 0.0522 0.0525 0.166 -0.0231 -0.01 0.0296
O1P 0.0525 0.0455 0.166 0.0131 0.0231 0.0229
O1Q 0.0455 0.0522 0.166 0.01 -0.0131 0.0226
O3C 0.054 0.056 0.226 -0.031 0.033 0.0223
O3D 0.056 0.0654 0.226 0.064 0.031 0.0337
O3E 0.0654 0.054 0.226 -0.033 -0.064 0.0317
O5O 0.072 0.0493 0.173 0.003 -0.039 0.0215
O5P 0.0493 0.0783 0.173 -0.042 -0.003 0.0278
O5Q 0.0783 0.072 0.173 0.039 0.042 0.0505
Zn1F 0.044 0.0527 0.1586 -0.0257 -0.0209 0.025
Zn1G 0.0527 0.0467 0.1586 0.0048 0.0257 0.0277
Zn1H 0.0467 0.044 0.1586 0.0209 -0.0048 0.019
Zn1O 0.044 0.0527 0.1586 -0.0257 -0.0209 0.025
Zn1P 0.0527 0.0467 0.1586 0.0048 0.0257 0.0277
Zn1Q 0.0467 0.044 0.1586 0.0209 -0.0048 0.019
loop_
_geom_bond_atom_site_label_1
_geom_bond_atom_site_label_2
_geom_bond_site_symmetry_1
_geom_bond_site_symmetry_2
C1 C2 1_555 1_555
C2 C3 1_555 1_555
C3 H1 1_555 1_555
C4 C3 1_555 1_555
C5 C4 1_555 1_555
H2 C5 1_555 1_555
C6 C5 1_555 1_555
C7 C2 1_555 1_555
H3 C7 1_555 1_555
C8 C4 1_555 1_555
C9 C6 1_555 1_555
C10 C9 1_555 1_555
H4 C10 1_555 1_555
C11 C10 1_555 1_555
C12 C11 1_555 1_555
H5 C12 1_555 1_555
C13 C12 1_555 1_555
C14 C9 1_555 1_555
H6 C14 1_555 1_555
C15 C13 1_555 1_555
C16 C15 1_555 1_555
H7 C16 1_555 1_555
C17 C11 1_555 1_555
C18 C17 1_555 1_555
H8 C18 1_555 1_555
C19 C18 1_555 1_555
C20 C19 1_555 1_555
H9 C20 1_555 1_555
C21 C20 1_555 1_555
C22 C17 1_555 1_555
H10 C22 1_555 1_555
C23 C21 1_555 1_555
C24 C19 1_555 1_555
O1 C1 1_555 1_555
O2 C1 1_555 1_555
O3 C8 1_555 1_555
O4 C8 1_555 1_555
O5 C23 1_555 1_555
O6 C23 1_555 1_555
O7 C24 1_555 1_555
O8 C24 1_555 1_555
Zn1 O7 1_555 1_555
C1A C2A 1_555 1_555
C2A C3A 1_555 1_555
C3A H1A 1_555 1_555
C4A C3A 1_555 1_555
C5A C4A 1_555 1_555
H2A C5A 1_555 1_555
C6A C5A 1_555 1_555
C7A C2A 1_555 1_555
H3A C7A 1_555 1_555
C8A C4A 1_555 1_555
C9A C6A 1_555 1_555
C10A C9A 1_555 1_555
H4A C10A 1_555 1_555
C11A C10A 1_555 1_555
C12A C11A 1_555 1_555
H5A C12A 1_555 1_555
C13A C12A 1_555 1_555
C14A C9A 1_555 1_555
H6A C14A 1_555 1_555
C15A C16 1_555 1_555
C16A C15A 1_555 1_555
H7A C16A 1_555 1_555
C17A C11A 1_555 1_555
C18A C17A 1_555 1_555
H8A C18A 1_555 1_555
C19A C18A 1_555 1_555
C20A C19A 1_555 1_555
H9A C20A 1_555 1_555
C21A C20A 1_555 1_555
C22A C17A 1_555 1_555
H10A C22A 1_555 1_555
C23A C21A 1_555 1_555
C24A C19A 1_555 1_555
O1A C1A 1_555 1_555
O2A C1A 1_555 1_555
O3A C8A 1_555 1_555
O4A C8A 1_555 1_555
O5A C23A 1_555 1_555
O6A C23A 1_555 1_555
O7A C24A 1_555 1_555
O8A C24A 1_555 1_555
C1B C2B 1_555 1_555
C2B C3B 1_555 1_555
C3B H1B 1_555 1_555
C4B C3B 1_555 1_555
C5B C4B 1_555 1_555
H2B C5B 1_555 1_555
C6B C5B 1_555 1_555
C7B C2B 1_555 1_555
H3B C7B 1_555 1_555
C8B C4B 1_555 1_555
C9B C6B 1_555 1_555
C10B C9B 1_555 1_555
H4B C10B 1_555 1_555
C11B C10B 1_555 1_555
C12B C11B 1_555 1_555
H5B C12B 1_555 1_555
C13B C12B 1_555 1_555
C14B C9B 1_555 1_555
H6B C14B 1_555 1_555
C15B C16A 1_555 1_555
C16B C15 1_555 1_555
H7B C16B 1_555 1_555
C17B C11B 1_555 1_555
C18B C17B 1_555 1_555
H8B C18B 1_555 1_555
C19B C18B 1_555 1_555
C20B C19B 1_555 1_555
H9B C20B 1_555 1_555
C21B C20B 1_555 1_555
C22B C17B 1_555 1_555
H10B C22B 1_555 1_555
C23B C21B 1_555 1_555
C24B C19B 1_555 1_555
O1B C1B 1_555 1_555
O2B C1B 1_555 1_555
O3B C8B 1_555 1_555
O4B C8B 1_555 1_555
O5B C23B 1_555 1_555
O6B C23B 1_555 1_555
O7B C24B 1_555 1_555
O8B C24B 1_555 1_555
Zn1A O7A 1_555 1_555
Zn1B O7B 1_555 1_555
O1O Zn1 1_555 1_555
O1P Zn1A 1_555 1_555
O1Q Zn1B 1_555 1_555
O3C Zn1A 1_555 1_555
O3D Zn1B 1_555 1_555
O3E Zn1 1_555 1_555
O5O Zn1B 1_555 1_555
O5P Zn1 1_555 1_555
O5Q Zn1A 1_555 1_555
Zn1F O3B 1_555 1_555
Zn1G O3 1_555 1_555
Zn1H O3A 1_555 1_555
Zn1O O1 1_555 1_555
Zn1P O1A 1_555 1_555
Zn1Q O5 1_555 1_555
C6 C7 1_555 1_555
C13 C14 1_555 1_555
C21 C22 1_555 1_555
O8 Zn1 1_555 1_555
C6A C7A 1_555 1_555
C13A C14A 1_555 1_555
C13A C15A 1_555 1_555
C21A C22A 1_555 1_555
O5A Zn1O 1_555 1_555
O8A Zn1A 1_555 1_555
C6B C7B 1_555 1_555
C13B C14B 1_555 1_555
C13B C15B 1_555 1_555
C15B C16B 1_555 1_555
C21B C22B 1_555 1_555
O1B Zn1Q 1_555 1_555
O5B Zn1P 1_555 1_555
O8B Zn1B 1_555 1_555

#END
