
#######################################################################
#
#                 Cambridge Crystallographic Data Centre
#                                CCDC 
#
#######################################################################
#
# If this CIF has been generated from an entry in the Cambridge 
# Structural Database, then it will include bibliographic, chemical, 
# crystal, experimental, refinement or atomic coordinate data resulting 
# from the CCDC's data processing and validation procedures.
#
#######################################################################

data_BIQFOW
_chemical_formula_moiety         '(C10 H16 F2 Ga6 N2 O26 P6)n'
_symmetry_cell_setting           triclinic
_symmetry_space_group_name_H-M   'P -1'
_symmetry_Int_Tables_number      2
_space_group_name_Hall           '-P 1'
loop_
_symmetry_equiv_pos_site_id
_symmetry_equiv_pos_as_xyz
1 x,y,z
2 -x,-y,-z
_cell_length_a                   11.391(4)
_cell_length_b                   12.414(3)
_cell_length_c                   12.846(4)
_cell_angle_alpha                71.04(3)
_cell_angle_beta                 68.39(2)
_cell_angle_gamma                66.88(2)
_cell_volume                     1518.28
loop_
_atom_site_label
_atom_site_type_symbol
_atom_site_fract_x
_atom_site_fract_y
_atom_site_fract_z
Ga1 Ga 0.39573(4) -0.29205(4) 0.24627(3)
Ga2 Ga 0.19857(4) -0.27875(4) -0.06357(3)
Ga3 Ga 0.10635(4) -0.17410(4) 0.25664(3)
Ga4 Ga 0.31605(4) -0.22253(4) 0.58054(3)
Ga5 Ga -0.26798(4) -0.07077(4) 0.16611(3)
Ga6 Ga 0.78485(4) -0.44555(4) 0.33519(3)
P1 P 0.18746(9) -0.31961(8) 0.48269(8)
P2 P 0.55422(9) -0.21062(8) 0.34998(8)
P3 P 0.31354(9) -0.14898(9) 0.02035(8)
P4 P 0.63685(9) -0.54305(8) 0.23003(8)
P5 P -0.13467(9) 0.06137(8) 0.24828(8)
P6 P -0.03521(9) -0.29354(8) 0.17018(8)
F1 F 0.2490(2) -0.3256(2) 0.2311(2)
F2 F 0.2527(2) -0.1403(2) 0.2736(2)
O1 O 0.4201(3) -0.2132(3) 0.0850(2)
O2 O 0.3308(3) -0.3523(3) 0.4093(2)
O3 O 0.5225(3) -0.2348(3) 0.2569(2)
O4 O 0.5117(3) -0.4415(3) 0.2143(3)
O5 O -0.1071(3) 0.1779(3) 0.1683(2)
O6 O 0.3263(3) -0.2300(3) -0.0561(2)
O7 O 0.0885(3) -0.3277(3) 0.0721(2)
O8 O 0.7074(3) -0.5837(3) 0.1156(3)
O9 O -0.0142(3) -0.0230(2) 0.2888(2)
O10 O 0.1705(3) -0.1129(3) 0.0945(2)
O11 O -0.0182(3) -0.2361(3) 0.2488(2)
O12 O 0.0808(3) -0.2481(3) 0.4193(2)
O13 O 0.1757(3) -0.2476(3) 0.5668(2)
O14 O 0.4338(3) -0.1746(3) 0.4503(2)
O15 O 0.6005(3) -0.6469(3) 0.3260(3)
O16 O -0.2531(3) 0.0940(3) 0.3521(3)
O17 O -0.1712(3) 0.0056(3) 0.1803(3)
O18 O 0.3510(3) -0.0356(2) -0.0598(2)
O19 O -0.1535(3) -0.2093(2) 0.1210(3)
O20 O 0.6085(3) -0.1033(3) 0.3001(3)
O21 O -0.0641(3) -0.4121(2) 0.2384(2)
O22 O 0.6597(3) -0.3213(3) 0.3965(3)
O23 O 0.1505(3) -0.4346(3) 0.5545(2)
O24 O 0.7345(3) -0.5040(3) 0.2530(3)
O8A O 0.2926(3) -0.4163(3) -0.1156(3)
O15A O 0.3995(3) -0.3531(3) 0.6740(3)
O16A O 0.2531(3) -0.0940(3) 0.6479(3)
Ga2A Ga 0.80143(4) -0.72125(4) 0.06357(3)
Ga4A Ga 0.68395(4) -0.77747(4) 0.41946(3)
Ga5A Ga 0.26798(4) 0.07077(4) -0.16611(3)
Ga5_2 Ga 0.73202(4) -0.07077(4) 0.16611(3)
Ga6_2 Ga -0.21515(4) -0.44555(4) 0.33519(3)
Ga6A Ga 0.21515(4) -0.55445(4) 0.66481(3)
O5A O 0.1071(3) -0.1779(3) -0.1683(2)
O18A O -0.3510(3) 0.0356(2) 0.0598(2)
O20_2 O -0.3915(3) -0.1033(3) 0.3001(3)
O21_2 O 0.9359(3) -0.4121(2) 0.2384(2)
O23A O 0.8495(3) -0.5654(3) 0.4455(2)
Ga2A_2 Ga -0.19857(4) 0.27875(4) 0.06357(3)
Ga4A_2 Ga -0.31605(4) 0.22253(4) 0.41946(3)
C1 C 0.0889(6) 0.2741(8) 0.2046(6)
H1 H 0.0051 0.3033 0.2563
N1 N 0.1584(9) 0.1569(8) 0.2239(7)
H2 H 0.1264 0.1067 0.2839
C2 C 0.2829(10) 0.1156(6) 0.1468(9)
H3 H 0.3325 0.0329 0.1578
C3 C 0.1393(6) 0.3521(5) 0.1097(6)
H4 H 0.0914 0.435 0.0942
C4 C 0.3298(6) 0.1928(7) 0.0596(5)
H5 H 0.4163 0.1656 0.0105
C5 C 0.2617(7) 0.3048(7) 0.0388(5)
H6 H 0.2975 0.3563 -0.0281
C6 C -0.6294(7) 0.1620(6) 0.3807(7)
H7 H -0.5691 0.0829 0.3847
C7 C -0.8338(7) 0.2911(10) 0.4537(6)
H8 H -0.9194 0.3012 0.5069
C8 C -0.5991(7) 0.2585(11) 0.2932(6)
H9 H -0.5169 0.2458 0.2353
C9 C -0.7507(8) 0.1885(9) 0.4599(6)
H10 H -0.7727 0.1262 0.5221
N2 N -0.6873(12) 0.3684(9) 0.2926(9)
H11 H -0.6703 0.4304 0.2396
C10 C -0.8098(10) 0.3814(9) 0.3807(11)
H12 H -0.8734 0.4585 0.3842
O25 O 0.0894(10) 0.0300(7) 0.4524(7)
O26 O -0.4336(13) 0.5253(11) -0.0594(10)
loop_
_geom_bond_atom_site_label_1
_geom_bond_atom_site_label_2
_geom_bond_site_symmetry_1
_geom_bond_site_symmetry_2
Ga1 F1 1_555 1_555
Ga2 O6 1_555 1_555
Ga3 F1 1_555 1_555
Ga4 O13 1_555 1_555
Ga5 O17 1_555 1_555
Ga6 O22 1_555 1_555
P1 O2 1_555 1_555
P2 O3 1_555 1_555
P3 O1 1_555 1_555
P4 O4 1_555 1_555
P5 O5 1_555 1_555
P6 O7 1_555 1_555
F2 Ga1 1_555 1_555
O1 Ga1 1_555 1_555
O2 Ga1 1_555 1_555
O3 Ga1 1_555 1_555
O4 Ga1 1_555 1_555
O5 Ga2A_2 1_555 1_555
O6 P3 1_555 1_555
O7 Ga2 1_555 1_555
O8 P4 1_555 1_555
O9 Ga3 1_555 1_555
O10 Ga3 1_555 1_555
O11 Ga3 1_555 1_555
O12 Ga3 1_555 1_555
O13 P1 1_555 1_555
O14 Ga4 1_555 1_555
O15 P4 1_555 1_555
O16 P5 1_555 1_555
O17 P5 1_555 1_555
O18 P3 1_555 1_555
O19 Ga5 1_555 1_555
O20 P2 1_555 1_555
O21 P6 1_555 1_555
O22 P2 1_555 1_555
O23 P1 1_555 1_555
O24 Ga6 1_555 1_555
C1 H1 1_555 1_555
N1 C1 1_555 1_555
H2 N1 1_555 1_555
C2 N1 1_555 1_555
H3 C2 1_555 1_555
C3 C1 1_555 1_555
H4 C3 1_555 1_555
C4 C2 1_555 1_555
H5 C4 1_555 1_555
C5 C3 1_555 1_555
H6 C5 1_555 1_555
C6 H7 1_555 1_555
C7 H8 1_555 1_555
C8 C6 1_555 1_555
H9 C8 1_555 1_555
C9 C6 1_555 1_555
H10 C9 1_555 1_555
N2 C8 1_555 1_555
H11 N2 1_555 1_555
C10 C7 1_555 1_555
H12 C10 1_555 1_555
O8A Ga2 1_555 1_555
O15A Ga4 1_555 1_555
O16A Ga4 1_555 1_555
Ga2A O8 1_555 1_555
Ga4A O15 1_555 1_555
Ga5A O18 1_555 1_555
Ga5_2 O20 1_555 1_555
Ga6_2 O21 1_555 1_555
Ga6A O23 1_555 1_555
O5A Ga2 1_555 1_555
O18A Ga5 1_555 1_555
O20_2 Ga5 1_555 1_555
O21_2 Ga6 1_555 1_555
O23A Ga6 1_555 1_555
Ga4A_2 O16 1_555 1_555
Ga3 F2 1_555 1_555
P1 O12 1_555 1_555
P2 O14 1_555 1_555
P3 O10 1_555 1_555
P4 O24 1_555 1_555
P5 O9 1_555 1_555
P6 O19 1_555 1_555
P6 O11 1_555 1_555
C4 C5 1_555 1_555
C7 C9 1_555 1_555
N2 C10 1_555 1_555

#END
