
#######################################################################
#
#                 Cambridge Crystallographic Data Centre
#                                CCDC 
#
#######################################################################
#
# If this CIF has been generated from an entry in the Cambridge 
# Structural Database, then it will include bibliographic, chemical, 
# crystal, experimental, refinement or atomic coordinate data resulting 
# from the CCDC's data processing and validation procedures.
#
#######################################################################

data_QOKCID
_chemical_formula_moiety         '(C24 H18 O12 Zn2)n'
_symmetry_cell_setting           monoclinic
_symmetry_space_group_name_H-M   'C 2/c'
_symmetry_Int_Tables_number      15
_space_group_name_Hall           '-C 2yc'
loop_
_symmetry_equiv_pos_site_id
_symmetry_equiv_pos_as_xyz
1 x,y,z
2 1/2+x,1/2+y,z
3 -x,y,1/2-z
4 1/2-x,1/2+y,1/2-z
5 -x,-y,-z
6 1/2-x,1/2-y,-z
7 x,-y,1/2+z
8 1/2+x,1/2-y,1/2+z
_cell_length_a                   18.392(4)
_cell_length_b                   16.462(4)
_cell_length_c                   7.6238(17)
_cell_angle_alpha                90
_cell_angle_beta                 95.587(5)
_cell_angle_gamma                90
_cell_volume                     2297.29
loop_
_atom_site_label
_atom_site_type_symbol
_atom_site_fract_x
_atom_site_fract_y
_atom_site_fract_z
_atom_site_U_iso_or_equiv
_atom_site_thermal_displace_type
C1 C 0.1740(2) 0.1583(3) 1.1292(6) 0.0431 Uani
C2 C 0.1823(2) 0.2404(3) 1.1768(6) 0.0416 Uani
H1 H 0.2021 0.2550 1.2892 0.0500 Uiso
C3 C 0.1605(2) 0.2985(3) 1.0539(6) 0.0439 Uani
C4 C 0.1296(2) 0.2787(3) 0.8855(6) 0.0408 Uani
H2 H 0.1157 0.3192 0.8039 0.0490 Uiso
C5 C 0.1201(2) 0.1974(3) 0.8419(6) 0.0446 Uani
C6 C 0.1420(2) 0.1360(3) 0.9632(6) 0.0458 Uani
H3 H 0.1353 0.0815 0.9335 0.0550 Uiso
C7 C 0.2003(3) 0.0934(3) 1.2565(7) 0.0472 Uani
C8 C 0.0689(2) 0.2242(2) 0.5490(6) 0.0420 Uani
H4 H 0.1119 0.2523 0.5160 0.0500 Uiso
H5 H 0.0348 0.2642 0.5862 0.0500 Uiso
C9 C 0.0337(2) 0.1751(3) 0.3945(6) 0.0387 Uani
C10 C 0.0345(2) 0.0908(3) 0.3926(6) 0.0402 Uani
H6 H 0.0582 0.0627 0.4873 0.0490 Uiso
C11 C 0.0000 0.0477(4) 0.2500 0.0406 Uani
H7 H 0.0000 -0.0088 0.2500 0.0490 Uiso
C12 C 0.0000 0.2168(4) 0.2500 0.0401 Uani
H8 H 0.0000 0.2733 0.2500 0.0480 Uiso
C13 C 0.1719(2) 0.3869(3) 1.1037(7) 0.0451 Uani
O1 O 0.22514(17) 0.1162(2) 1.4097(4) 0.0519 Uani
O2 O 0.19818(16) 0.01994(19) 1.2128(4) 0.0422 Uani
O3 O 0.17640(17) 0.4026(2) 1.2637(5) 0.0511 Uani
O4 O 0.17551(16) 0.43679(18) 0.9802(4) 0.0399 Uani
O5 O 0.08836(16) 0.16808(17) 0.6868(4) 0.0444 Uani
Zn1 Zn 0.26600(3) 0.03122(3) 1.56318(7) 0.0450 Uani
C1B C -0.1740(2) 0.1583(3) -0.6292(6) 0.0431 Uani
C2B C -0.1823(2) 0.2404(3) -0.6768(6) 0.0416 Uani
H1B H -0.2021 0.2550 -0.7892 0.0500 Uiso
C3B C -0.1605(2) 0.2985(3) -0.5539(6) 0.0439 Uani
C4B C -0.1296(2) 0.2787(3) -0.3855(6) 0.0408 Uani
H2B H -0.1157 0.3192 -0.3039 0.0490 Uiso
C5B C -0.1201(2) 0.1974(3) -0.3419(6) 0.0446 Uani
C6B C -0.1420(2) 0.1360(3) -0.4632(6) 0.0458 Uani
H3B H -0.1353 0.0815 -0.4335 0.0550 Uiso
C7B C -0.2003(3) 0.0934(3) -0.7565(7) 0.0472 Uani
C8B C -0.0689(2) 0.2242(2) -0.0490(6) 0.0420 Uani
H4B H -0.1119 0.2523 -0.0160 0.0500 Uiso
H5B H -0.0348 0.2642 -0.0862 0.0500 Uiso
C9B C -0.0337(2) 0.1751(3) 0.1055(6) 0.0387 Uani
C10B C -0.0345(2) 0.0908(3) 0.1074(6) 0.0402 Uani
H6B H -0.0582 0.0627 0.0127 0.0490 Uiso
C13B C -0.1719(2) 0.3869(3) -0.6037(7) 0.0451 Uani
O1B O -0.22514(17) 0.1162(2) -0.9097(4) 0.0519 Uani
O2B O -0.19818(16) 0.01994(19) -0.7128(4) 0.0422 Uani
O2F O 0.19818(16) -0.01994(19) 1.7128(4) 0.0422 Uani
O2D O -0.19818(16) -0.01994(19) -1.2128(4) 0.0422 Uani
O3B O -0.17640(17) 0.4026(2) -0.7637(5) 0.0511 Uani
O3E O 0.32360(17) 0.0974(2) 1.7363(5) 0.0511 Uani
O3G O -0.32360(17) 0.0974(2) -1.2363(5) 0.0511 Uani
O4B O -0.17551(16) 0.43679(18) -0.4802(4) 0.0399 Uani
O4C O 0.32449(16) -0.06321(18) 1.5198(4) 0.0399 Uani
O4A O -0.32449(16) -0.06321(18) -1.0198(4) 0.0399 Uani
O5B O -0.08836(16) 0.16808(17) -0.1868(4) 0.0444 Uani
Zn1B Zn -0.26600(3) 0.03122(3) -1.06318(7) 0.0450 Uani
Zn1F Zn 0.26600(3) -0.03122(3) 1.06318(7) 0.0450 Uani
Zn1E Zn 0.23400(3) 0.46878(3) 1.43682(7) 0.0450 Uani
Zn1C Zn 0.23400(3) 0.53122(3) 0.93682(7) 0.0450 Uani
Zn1D Zn -0.26600(3) -0.03122(3) -0.56318(7) 0.0450 Uani
Zn1G Zn -0.23400(3) 0.46878(3) -0.93682(7) 0.0450 Uani
Zn1A Zn -0.23400(3) 0.53122(3) -0.43682(7) 0.0450 Uani
O6 O 0.0000 0.5069(5) 0.2500 0.0598 Uani
H10 H 0.0255 0.5023 0.1633 0.0720 Uiso
H10B H -0.0255 0.5023 0.3367 0.0720 Uiso
O7 O 0.0797(10) 0.5768(11) 1.029(2) 0.0632 Uani
H11 H 0.0529 0.6067 0.9582 0.0760 Uiso
H12 H 0.0999 0.5405 0.9708 0.0760 Uiso
loop_
_atom_site_aniso_label
_atom_site_aniso_U_11
_atom_site_aniso_U_22
_atom_site_aniso_U_33
_atom_site_aniso_U_23
_atom_site_aniso_U_13
_atom_site_aniso_U_12
C1 0.040(2) 0.038(3) 0.050(3) 0.000(2) -0.002(2) 0.0000(19)
C2 0.036(2) 0.039(2) 0.049(3) 0.000(2) 0.0007(19) 0.0012(19)
C3 0.036(2) 0.044(3) 0.050(3) 0.006(2) -0.004(2) 0.0032(19)
C4 0.038(2) 0.041(3) 0.042(3) 0.0004(19) -0.0029(19) -0.0053(19)
C5 0.045(2) 0.032(2) 0.054(3) 0.000(2) -0.010(2) -0.0047(19)
C6 0.042(2) 0.041(3) 0.052(3) 0.001(2) -0.007(2) 0.002(2)
C7 0.043(2) 0.043(3) 0.055(3) 0.005(2) 0.001(2) 0.006(2)
C8 0.042(2) 0.030(2) 0.049(3) -0.0002(19) -0.021(2) -0.0007(18)
C9 0.040(2) 0.030(2) 0.045(3) -0.0014(19) -0.001(2) -0.0033(18)
C10 0.045(2) 0.027(2) 0.047(3) 0.0013(19) -0.004(2) -0.0035(18)
C11 0.044(3) 0.030(3) 0.047(4) 0.000 0.001(3) 0.000
C12 0.029(3) 0.034(3) 0.056(4) 0.000 -0.002(3) 0.000
C13 0.041(2) 0.034(2) 0.058(3) -0.002(2) -0.007(2) -0.0020(19)
O1 0.0525(19) 0.0471(19) 0.051(2) 0.0048(16) -0.0210(16) 0.0031(15)
O2 0.0504(17) 0.0428(19) 0.0332(16) 0.0049(14) 0.0025(13) -0.0009(14)
O3 0.0509(19) 0.0445(19) 0.056(2) -0.0079(16) -0.0044(16) -0.0099(15)
O4 0.0507(17) 0.0383(16) 0.0285(15) 0.0075(13) -0.0075(13) -0.0097(13)
O5 0.0489(17) 0.0264(16) 0.054(2) -0.0009(14) -0.0144(15) -0.0036(13)
Zn1 0.0401(3) 0.0404(3) 0.0513(3) -0.0006(3) -0.0118(2) 0.0061(2)
C1B 0.04 0.038 0.05 0 -0.002 0
C2B 0.036 0.039 0.049 0 0.0007 -0.0012
C3B 0.036 0.044 0.05 -0.006 -0.004 -0.0032
C4B 0.038 0.041 0.042 -0.0004 -0.0029 0.0053
C5B 0.045 0.032 0.054 0 -0.01 0.0047
C6B 0.042 0.041 0.052 -0.001 -0.007 -0.002
C7B 0.043 0.043 0.055 -0.005 0.001 -0.006
C8B 0.042 0.03 0.049 0.0002 -0.021 0.0007
C9B 0.04 0.03 0.045 0.0014 -0.001 0.0033
C10B 0.045 0.027 0.047 -0.0013 -0.004 0.0035
C13B 0.041 0.034 0.058 0.002 -0.007 0.002
O1B 0.0525 0.0471 0.051 -0.0048 -0.021 -0.0031
O2B 0.0504 0.0428 0.0332 -0.0049 0.0025 0.0009
O2F 0.0504 0.0428 0.0332 -0.0049 0.0025 0.0009
O2D 0.0504 0.0428 0.0332 0.0049 0.0025 -0.0009
O3B 0.0509 0.0445 0.056 0.0079 -0.0044 0.0099
O3E 0.0509 0.0445 0.056 -0.0079 -0.0044 -0.0099
O3G 0.0509 0.0445 0.056 0.0079 -0.0044 0.0099
O4B 0.0507 0.0383 0.0285 -0.0075 -0.0075 0.0097
O4C 0.0507 0.0383 0.0285 -0.0075 -0.0075 0.0097
O4A 0.0507 0.0383 0.0285 0.0075 -0.0075 -0.0097
O5B 0.0489 0.0264 0.054 0.0009 -0.0144 0.0036
Zn1B 0.0401 0.0404 0.0513 0.0006 -0.0118 -0.0061
Zn1F 0.0401 0.0404 0.0513 0.0006 -0.0118 -0.0061
Zn1E 0.0401 0.0404 0.0513 -0.0006 -0.0118 0.0061
Zn1C 0.0401 0.0404 0.0513 0.0006 -0.0118 -0.0061
Zn1D 0.0401 0.0404 0.0513 -0.0006 -0.0118 0.0061
Zn1G 0.0401 0.0404 0.0513 0.0006 -0.0118 -0.0061
Zn1A 0.0401 0.0404 0.0513 -0.0006 -0.0118 0.0061
O6 0.063(5) 0.054(5) 0.057(5) 0.000 -0.021(4) 0.000
O7 0.063(11) 0.057(12) 0.070(12) -0.017(9) 0.009(9) 0.017(9)
loop_
_geom_bond_atom_site_label_1
_geom_bond_atom_site_label_2
_geom_bond_site_symmetry_1
_geom_bond_site_symmetry_2
C1 C2 1_555 1_555
C2 H1 1_555 1_555
C3 C2 1_555 1_555
C4 C3 1_555 1_555
H2 C4 1_555 1_555
C5 C4 1_555 1_555
C6 C1 1_555 1_555
H3 C6 1_555 1_555
C7 C1 1_555 1_555
C8 H4 1_555 1_555
H5 C8 1_555 1_555
C9 C8 1_555 1_555
C10 C9 1_555 1_555
H6 C10 1_555 1_555
C11 C10 1_555 1_555
H7 C11 1_555 1_555
C12 C9 1_555 1_555
H8 C12 1_555 1_555
C13 C3 1_555 1_555
O1 C7 1_555 1_555
O2 C7 1_555 1_555
O3 C13 1_555 1_555
O4 C13 1_555 1_555
O5 C5 1_555 1_555
O6 H10 1_555 1_555
O7 H11 1_555 1_555
H12 O7 1_555 1_555
Zn1 O1 1_555 1_555
C1B C2B 1_555 1_555
C2B H1B 1_555 1_555
C3B C2B 1_555 1_555
C4B C3B 1_555 1_555
H2B C4B 1_555 1_555
C5B C4B 1_555 1_555
C6B C1B 1_555 1_555
H3B C6B 1_555 1_555
C7B C1B 1_555 1_555
C8B H4B 1_555 1_555
H5B C8B 1_555 1_555
C9B C12 1_555 1_555
C10B C11 1_555 1_555
H6B C10B 1_555 1_555
C13B C3B 1_555 1_555
O1B C7B 1_555 1_555
O2B C7B 1_555 1_555
O2F Zn1 1_555 1_555
O2D Zn1B 1_555 1_555
O3B C13B 1_555 1_555
O3E Zn1 1_555 1_555
O3G Zn1B 1_555 1_555
O4B C13B 1_555 1_555
O4C Zn1 1_555 1_555
O4A Zn1B 1_555 1_555
O5B C5B 1_555 1_555
H10B O6 1_555 1_555
Zn1B O1B 1_555 1_555
Zn1F O2 1_555 1_555
Zn1E O3 1_555 1_555
Zn1C O4 1_555 1_555
Zn1D O2B 1_555 1_555
Zn1G O3B 1_555 1_555
Zn1A O4B 1_555 1_555
C5 C6 1_555 1_555
C8 O5 1_555 1_555
C5B C6B 1_555 1_555
C8B C9B 1_555 1_555
C8B O5B 1_555 1_555
C9B C10B 1_555 1_555

#END
