
#######################################################################
#
#                 Cambridge Crystallographic Data Centre
#                                CCDC 
#
#######################################################################
#
# If this CIF has been generated from an entry in the Cambridge 
# Structural Database, then it will include bibliographic, chemical, 
# crystal, experimental, refinement or atomic coordinate data resulting 
# from the CCDC's data processing and validation procedures.
#
#######################################################################

data_QOPPES
_chemical_formula_moiety         '(C31 H29 Co3 N3 O18)n'
_symmetry_cell_setting           monoclinic
_symmetry_space_group_name_H-M   'P 21/c'
_symmetry_Int_Tables_number      14
_space_group_name_Hall           '-P 2ybc'
loop_
_symmetry_equiv_pos_site_id
_symmetry_equiv_pos_as_xyz
1 x,y,z
2 -x,1/2+y,1/2-z
3 -x,-y,-z
4 x,1/2-y,1/2+z
_cell_length_a                   18.148(4)
_cell_length_b                   9.6650(19)
_cell_length_c                   30.969(6)
_cell_angle_alpha                90
_cell_angle_beta                 90.39(3)
_cell_angle_gamma                90
_cell_volume                     5431.85
loop_
_atom_site_label
_atom_site_type_symbol
_atom_site_fract_x
_atom_site_fract_y
_atom_site_fract_z
C1 C 0.2607(4) 0.2184(6) 0.2242(2)
C2 C 0.3488(4) 0.9674(7) 0.3218(2)
C3 C 0.5531(4) 1.1918(8) 0.3152(2)
C4 C 0.4196(4) 1.0475(8) 0.3206(2)
C5 C -0.1554(3) 1.1950(7) 0.3185(2)
C6 C 0.3003(4) 0.4457(7) 0.2474(2)
H1 H 0.3315 0.5213 0.2443
C7 C 0.0549(4) 0.9873(8) 0.3156(2)
C8 C -0.0816(4) 1.1194(8) 0.3172(2)
C9 C 0.2465(4) 0.4474(6) 0.2789(2)
C10 C 0.2376(4) 0.5661(7) 0.3087(2)
C11 C 0.1271(4) 0.9134(7) 0.3139(2)
C12 C 0.6249(4) 1.2650(7) 0.3127(2)
C13 C 0.1981(5) 0.3316(7) 0.2824(2)
H2 H 0.1605 0.3321 0.3026
C14 C 0.4445(4) 1.0975(9) 0.2813(2)
H3 H 0.4167 1.0830 0.2563
C15 C -0.0581(4) 1.0600(10) 0.2801(2)
H4 H -0.0877 1.0635 0.2555
C16 C 0.3223(5) 0.5949(13) 0.5547(3)
H5 H 0.3620 0.5600 0.5705
C17 C 0.2074(4) 0.2202(7) 0.2559(2)
H6 H 0.1770 0.1435 0.2593
C18 C 0.0112(4) 0.9926(10) 0.2784(2)
H7 H 0.0273 0.9525 0.2529
C19 C 0.3081(4) 0.3328(7) 0.2204(2)
H8 H 0.3449 0.3325 0.1996
C20 C 0.5106(4) 1.1691(9) 0.2790(2)
H9 H 0.5265 1.2022 0.2524
C21 C 0.4613(5) 1.0726(11) 0.3568(2)
H10 H 0.4451 1.0385 0.3832
C22 C -0.0378(4) 1.1137(10) 0.3543(2)
H11 H -0.0537 1.1544 0.3797
C23 C 0.2155(6) 0.7027(13) 0.5078(3)
H12 H 0.1764 0.7411 0.4924
C24 C 0.2096(6) 0.6850(13) 0.5521(3)
H13 H 0.1674 0.7155 0.5661
C25 C 0.0299(4) 1.0469(11) 0.3530(2)
H14 H 0.0588 1.0424 0.3779
C26 C 0.5249(5) 1.1451(10) 0.3557(2)
H15 H 0.5504 1.1644 0.3812
C27 C 0.2669(4) 0.0989(7) 0.1949(2)
C28 C 0.2769(5) 0.6654(9) 0.4867(2)
C29 C 0.2839(7) 0.6897(11) 0.4391(3)
C30 C 0.3299(7) 0.6116(13) 0.5112(3)
H16 H 0.3737 0.5843 0.4983
C31 C 0.9025(8) 1.5255(15) 0.3645(5)
H17 H 0.9118 1.4341 0.3570
Co1 Co 0.24838(4) 0.77783(8) 0.35853(2)
Co2 Co 0.75078(4) 1.40284(8) 0.35836(2)
Co3 Co 0.25145(4) 0.83180(7) 0.25126(2)
N1 N 0.2630(3) 0.6252(7) 0.57475(17)
O1 O 0.3092(2) 0.9690(5) 0.28938(15)
O2 O 0.6560(3) 1.2976(5) 0.34786(15)
O3 O 0.1506(2) 0.8830(5) 0.27787(16)
O4 O 0.3355(3) 0.9023(6) 0.35632(15)
O5 O -0.1925(3) 1.1922(5) 0.28470(16)
O6 O 0.6487(2) 1.2825(5) 0.27541(15)
O7 O 0.1576(3) 0.8866(6) 0.34995(16)
O8 O -0.1722(3) 1.2531(6) 0.35283(15)
O9 O 0.2720(3) 0.6775(5) 0.30146(15)
O10 O 0.2338(3) -0.0133(4) 0.20392(13)
O11 O 0.3019(4) 0.1085(5) 0.16067(18)
O12 O 0.1986(4) 0.5581(6) 0.3409(2)
O13 O 0.2332(4) 0.7526(8) 0.42096(19)
O14 O 0.3353(6) 0.6439(11) 0.4191(3)
O15 O 0.9574(8) 1.5975(19) 0.3588(7)
O16 O 0.8414(4) 1.5382(7) 0.3768(2)
Co2_2 Co -0.24922(4) 1.40284(8) 0.35836(2)
Co2A Co 0.24922(4) -0.09716(8) 0.14164(2)
Co2B Co 0.24922(4) 0.59716(8) 0.64164(2)
Co3_2 Co 0.25145(4) -0.16820(7) 0.25126(2)
Co3A Co -0.25145(4) 1.33180(7) 0.24874(2)
Co3A_2 Co 0.74855(4) 1.33180(7) 0.24874(2)
N1B N 0.7370(3) 1.3748(7) 0.42525(17)
O5A O 0.1925(3) 0.6922(5) 0.21530(16)
O6A O 0.3513(2) 0.7825(5) 0.22459(15)
O8_2 O 0.8278(3) 1.2531(6) 0.35283(15)
O10_2 O 0.2338(3) 0.9867(4) 0.20392(13)
O10A O 0.7662(3) 1.4867(4) 0.29608(13)
O11A O 0.6981(4) 1.6085(5) 0.33933(18)
N2 N 0.2689(19) 0.399(2) 0.0840(8)
N3 N 0.491(2) 0.511(5) 0.410(5)
O17 O 0.507(3) 0.712(6) 0.3518(19)
O18 O 0.231(3) 0.241(6) 0.4045(18)
loop_
_geom_bond_atom_site_label_1
_geom_bond_atom_site_label_2
_geom_bond_site_symmetry_1
_geom_bond_site_symmetry_2
C1 C17 1_555 1_555
C2 C4 1_555 1_555
C3 C12 1_555 1_555
C4 C14 1_555 1_555
C5 C8 1_555 1_555
C6 H1 1_555 1_555
C7 C11 1_555 1_555
C8 C15 1_555 1_555
C9 C6 1_555 1_555
C10 C9 1_555 1_555
C11 O3 1_555 1_555
C12 O2 1_555 1_555
C13 C9 1_555 1_555
H2 C13 1_555 1_555
C14 H3 1_555 1_555
C15 H4 1_555 1_555
C16 H5 1_555 1_555
C17 C13 1_555 1_555
H6 C17 1_555 1_555
C18 C7 1_555 1_555
H7 C18 1_555 1_555
C19 C1 1_555 1_555
H8 C19 1_555 1_555
C20 C3 1_555 1_555
H9 C20 1_555 1_555
C21 C4 1_555 1_555
H10 C21 1_555 1_555
C22 C8 1_555 1_555
H11 C22 1_555 1_555
C23 H12 1_555 1_555
C24 C23 1_555 1_555
H13 C24 1_555 1_555
C25 C7 1_555 1_555
H14 C25 1_555 1_555
C26 C3 1_555 1_555
H15 C26 1_555 1_555
C27 C1 1_555 1_555
C28 C23 1_555 1_555
C29 C28 1_555 1_555
C30 C16 1_555 1_555
H16 C30 1_555 1_555
C31 H17 1_555 1_555
Co1 O4 1_555 1_555
Co2 O2 1_555 1_555
Co3 O1 1_555 1_555
N1 C16 1_555 1_555
O1 C2 1_555 1_555
O3 Co3 1_555 1_555
O4 C2 1_555 1_555
O5 C5 1_555 1_555
O6 C12 1_555 1_555
O7 C11 1_555 1_555
O8 C5 1_555 1_555
O9 C10 1_555 1_555
O10 C27 1_555 1_555
O11 C27 1_555 1_555
O12 C10 1_555 1_555
O13 C29 1_555 1_555
O14 C29 1_555 1_555
O15 C31 1_555 1_555
O16 C31 1_555 1_555
Co2_2 O8 1_555 1_555
Co2A O10 1_555 1_555
Co2B N1 1_555 1_555
Co3_2 O10 1_555 1_555
Co3A O5 1_555 1_555
Co3A_2 O6 1_555 1_555
N1B Co2 1_555 1_555
O5A Co3 1_555 1_555
O6A Co3 1_555 1_555
O8_2 Co2 1_555 1_555
O10_2 Co3 1_555 1_555
O10A Co2 1_555 1_555
O11A Co2 1_555 1_555
C6 C19 1_555 1_555
C14 C20 1_555 1_555
C15 C18 1_555 1_555
C21 C26 1_555 1_555
C22 C25 1_555 1_555
C24 N1 1_555 1_555
C28 C30 1_555 1_555
Co1 O7 1_555 1_555
Co1 O9 1_555 1_555
Co1 O12 1_555 1_555
Co1 O13 1_555 1_555
Co2 O16 1_555 1_555
Co3 O9 1_555 1_555
O11 Co2A 1_555 1_555
Co3A_2 O10A 1_555 1_555

#END
