
#######################################################################
#
#                 Cambridge Crystallographic Data Centre
#                                CCDC 
#
#######################################################################
#
# If this CIF has been generated from an entry in the Cambridge 
# Structural Database, then it will include bibliographic, chemical, 
# crystal, experimental, refinement or atomic coordinate data resulting 
# from the CCDC's data processing and validation procedures.
#
#######################################################################

data_UNEBIZ
_chemical_formula_moiety         '(C198 H258 Mn9 N18 O48)n'
_symmetry_cell_setting           triclinic
_symmetry_space_group_name_H-M   'P 1'
_symmetry_Int_Tables_number      1
_space_group_name_Hall           'P 1'
loop_
_symmetry_equiv_pos_site_id
_symmetry_equiv_pos_as_xyz
1 x,y,z
_cell_length_a                   13.663(2)
_cell_length_b                   18.329(3)
_cell_length_c                   22.173(4)
_cell_angle_alpha                67.204(3)
_cell_angle_beta                 88.260(4)
_cell_angle_gamma                86.712(3)
_cell_volume                     5110.41
loop_
_atom_site_label
_atom_site_type_symbol
_atom_site_fract_x
_atom_site_fract_y
_atom_site_fract_z
Mn1 Mn -0.42318(11) -0.21357(9) -0.13960(7)
Mn2 Mn -0.21701(15) -0.29277(12) -0.19467(9)
Mn3 Mn -0.00892(11) -0.37010(9) -0.25223(7)
Mn4 Mn -0.58231(11) -0.74021(9) -0.07275(7)
Mn5 Mn -0.58174(12) 0.00172(10) -0.59211(7)
Mn6 Mn 0.12849(14) -0.24629(13) 0.14976(9)
Mn7 Mn 0.14743(11) 0.15778(8) -0.31961(7)
Mn8 Mn 0.14558(11) -0.58392(10) 0.19966(7)
Mn9 Mn 0.43953(13) -0.33783(11) 0.46427(8)
C1 C -0.4318(8) -0.3661(7) -0.1206(5)
C2 C -0.4433(8) -0.4469(7) -0.1060(5)
C3 C -0.3654(9) -0.5017(7) -0.0894(5)
H1 H -0.3036 -0.4831 -0.0889
C4 C -0.3713(8) -0.5827(7) -0.0734(5)
C5 C -0.4662(8) -0.6088(6) -0.0813(5)
C6 C -0.5484(8) -0.5518(6) -0.0992(5)
C7 C -0.5331(9) -0.4751(7) -0.1090(5)
H2 H -0.5872 -0.4395 -0.1184
C8 C -0.2853(9) -0.6426(7) -0.0500(6)
C9 C -0.2609(9) -0.6738(9) -0.1035(8)
H3 H -0.3176 -0.6966 -0.1122
H4 H -0.2083 -0.7135 -0.0894
H5 H -0.2415 -0.6310 -0.1426
C10 C -0.3050(10) -0.7121(8) 0.0144(7)
H6 H -0.3629 -0.7370 0.0103
H7 H -0.3142 -0.6930 0.0489
H8 H -0.2501 -0.7498 0.0243
C11 C -0.1913(9) -0.6076(8) -0.0379(7)
H9 H -0.1740 -0.5636 -0.0768
H10 H -0.1387 -0.6475 -0.0266
H11 H -0.2026 -0.5900 -0.0026
C12 C -0.6431(9) -0.5729(7) -0.1088(5)
H12 H -0.6909 -0.5319 -0.1237
C13 C -0.7714(6) -0.6546(6) -0.1181(5)
H13 H -0.7686 -0.6443 -0.1649
C14 C -0.8516(9) -0.6014(7) -0.1087(7)
H14 H -0.8388 -0.5470 -0.1364
H15 H -0.8518 -0.6060 -0.0637
C15 C -0.9527(9) -0.6206(7) -0.1250(7)
H16 H -1.0028 -0.5918 -0.1098
H17 H -0.9585 -0.6025 -0.1721
C16 C -0.9707(7) -0.7077(6) -0.0944(6)
H18 H -1.0295 -0.7173 -0.1130
H19 H -0.9825 -0.7225 -0.0479
C17 C -0.8861(8) -0.7606(8) -0.1039(7)
H20 H -0.8987 -0.8158 -0.0784
H21 H -0.8814 -0.7533 -0.1496
C18 C -0.7906(6) -0.7408(5) -0.0827(5)
H22 H -0.7990 -0.7495 -0.0363
C19 C -0.7039(8) -0.8553(7) -0.0917(5)
H23 H -0.7652 -0.8717 -0.0969
C20 C -0.5885(10) -1.1094(8) -0.0980(6)
C21 C -0.6215(4) -0.9076(4) -0.0895(4)
C22 C -0.5251(5) -0.8916(3) -0.0828(4)
C23 C -0.4497(4) -0.9472(4) -0.0796(4)
C24 C -0.4706(5) -1.0187(4) -0.0831(4)
H24 H -0.4202 -1.0559 -0.0810
C25 C -0.5670(6) -1.0348(3) -0.0898(4)
C26 C -0.6424(4) -0.9792(4) -0.0930(4)
H25 H -0.7069 -0.9899 -0.0975
C27 C -0.3390(9) -0.9289(8) -0.0759(6)
C28 C -0.3080(10) -0.8574(8) -0.1334(7)
H26 H -0.3523 -0.8130 -0.1379
H27 H -0.3091 -0.8681 -0.1724
H28 H -0.2428 -0.8453 -0.1266
C29 C -0.3239(10) -0.9136(9) -0.0125(7)
H29 H -0.3667 -0.8700 -0.0130
H30 H -0.2570 -0.9012 -0.0105
H31 H -0.3387 -0.9602 0.0251
C30 C -0.2674(12) -1.0005(9) -0.0711(10)
H32 H -0.2012 -0.9869 -0.0691
H33 H -0.2748 -1.0130 -0.1089
H34 H -0.2824 -1.0456 -0.0324
C31 C -0.3865(10) -0.1670(6) -0.2768(6)
C32 C -0.4084(9) -0.1378(6) -0.3469(5)
C33 C -0.3325(9) -0.1318(7) -0.3946(6)
H35 H -0.2695 -0.1513 -0.3801
C34 C -0.3493(9) -0.0982(7) -0.4613(6)
C35 C -0.4496(8) -0.0707(7) -0.4822(5)
C36 C -0.5209(8) -0.0800(6) -0.4351(5)
C37 C -0.5005(9) -0.1129(7) -0.3694(5)
H36 H -0.5514 -0.1183 -0.3394
C38 C -0.2634(10) -0.0928(8) -0.5094(6)
C39 C -0.2871(11) -0.1283(11) -0.5556(8)
H37 H -0.2959 -0.1839 -0.5323
H38 H -0.2346 -0.1211 -0.5868
H39 H -0.3465 -0.1032 -0.5780
C40 C -0.1698(11) -0.1282(11) -0.4732(8)
H40 H -0.1764 -0.1838 -0.4483
H41 H -0.1565 -0.1024 -0.4443
H42 H -0.1167 -0.1212 -0.5041
C41 C -0.2528(10) -0.0025(9) -0.5489(7)
H43 H -0.2002 0.0051 -0.5801
H44 H -0.2388 0.0225 -0.5195
H45 H -0.3128 0.0205 -0.5714
C42 C -0.6175(9) -0.0468(8) -0.4535(6)
H46 H -0.6607 -0.0535 -0.4188
C43 C -0.7514(6) 0.0380(7) -0.5234(4)
H47 H -0.7384 0.0934 -0.5329
C44 C -0.8253(7) 0.0110(7) -0.4663(5)
H48 H -0.8350 -0.0452 -0.4530
H49 H -0.7999 0.0192 -0.4292
C45 C -0.9214(7) 0.0571(8) -0.4868(5)
H50 H -0.9131 0.1117 -0.4928
H51 H -0.9693 0.0356 -0.4520
C46 C -0.9601(8) 0.0551(9) -0.5494(6)
H52 H -0.9739 0.0012 -0.5427
H53 H -1.0205 0.0875 -0.5616
C47 C -0.8844(8) 0.0861(8) -0.6032(6)
H54 H -0.8707 0.1401 -0.6098
H55 H -0.9096 0.0865 -0.6438
C48 C -0.7905(7) 0.0337(7) -0.5847(4)
H56 H -0.8072 -0.0210 -0.5747
C49 C -0.7220(9) 0.0918(7) -0.6935(5)
H57 H -0.7853 0.1122 -0.7063
C50 C -0.6492(10) 0.1074(8) -0.7442(6)
C51 C -0.5512(10) 0.0720(7) -0.7329(5)
C52 C -0.4853(10) 0.0861(7) -0.7868(5)
C53 C -0.5220(10) 0.1338(8) -0.8485(6)
H58 H -0.4799 0.1439 -0.8843
C54 C -0.6156(10) 0.1666(7) -0.8598(5)
C55 C -0.6792(9) 0.1550(7) -0.8088(5)
H59 H -0.7423 0.1783 -0.8164
C56 C -0.6474(11) 0.2170(8) -0.9290(6)
C57 C -0.3799(10) 0.0488(9) -0.7760(6)
C58 C -0.3200(13) 0.0708(11) -0.8386(7)
H60 H -0.3491 0.0505 -0.8674
H61 H -0.2543 0.0484 -0.8285
H62 H -0.3185 0.1274 -0.8595
C59 C -0.3286(10) 0.0847(12) -0.7297(8)
H63 H -0.2625 0.0628 -0.7207
H64 H -0.3648 0.0713 -0.6893
H65 H -0.3278 0.1413 -0.7514
C60 C -0.3843(14) -0.0410(9) -0.7446(8)
H66 H -0.4164 -0.0594 -0.7736
H67 H -0.4202 -0.0557 -0.7041
H68 H -0.3189 -0.0645 -0.7364
C61 C -0.2214(12) -0.2291(8) -0.0826(6)
C62 C -0.1611(10) -0.2341(7) -0.0247(6)
C63 C -0.0638(10) -0.2529(7) -0.0218(6)
H69 H -0.0330 -0.2673 -0.0538
C64 C -0.0083(9) -0.2503(7) 0.0317(6)
C65 C -0.0544(10) -0.2313(7) 0.0805(5)
C66 C -0.1562(10) -0.2158(8) 0.0789(6)
C67 C -0.2077(10) -0.2171(7) 0.0268(6)
H70 H -0.2751 -0.2064 0.0253
C68 C -0.2147(11) -0.2000(10) 0.1342(7)
C69 C -0.3253(9) -0.1930(12) 0.1255(8)
H71 H -0.3474 -0.2418 0.1256
H72 H -0.3418 -0.1506 0.0847
H73 H -0.3563 -0.1823 0.1608
C70 C -0.1811(11) -0.1188(10) 0.1321(9)
H74 H -0.1966 -0.0780 0.0903
H75 H -0.1116 -0.1223 0.1388
H76 H -0.2145 -0.1064 0.1659
C71 C -0.1893(12) -0.2657(10) 0.2029(6)
H77 H -0.2083 -0.3160 0.2046
H78 H -0.2239 -0.2532 0.2363
H79 H -0.1200 -0.2681 0.2100
C72 C 0.0959(11) -0.2701(9) 0.0291(7)
H80 H 0.1192 -0.2833 -0.0054
C73 C 0.2662(8) -0.2761(7) 0.0569(5)
H81 H 0.2861 -0.2226 0.0298
C74 C 0.2980(11) -0.3290(9) 0.0228(7)
H82 H 0.2675 -0.3102 -0.0198
H83 H 0.2773 -0.3822 0.0479
C75 C 0.4078(10) -0.3306(8) 0.0147(6)
H84 H 0.4272 -0.3699 -0.0032
H85 H 0.4261 -0.2795 -0.0169
C76 C 0.4631(9) -0.3486(9) 0.0753(7)
H86 H 0.5321 -0.3415 0.0643
H87 H 0.4561 -0.4038 0.1034
C77 C 0.4314(9) -0.2987(9) 0.1127(7)
H88 H 0.4488 -0.2443 0.0886
H89 H 0.4638 -0.3183 0.1548
C78 C 0.3186(8) -0.3024(7) 0.1227(5)
H90 H 0.3052 -0.3583 0.1468
C79 C 0.3205(9) -0.2396(7) 0.2022(6)
H91 H 0.3876 -0.2521 0.2045
C80 C 0.2817(7) -0.2029(7) 0.2440(5)
C81 C 0.1795(7) -0.1840(6) 0.2454(4)
C82 C 0.1455(8) -0.1432(6) 0.2891(5)
C83 C 0.2181(8) -0.1316(7) 0.3251(5)
H92 H 0.2006 -0.1005 0.3488
C84 C 0.3173(7) -0.1614(6) 0.3305(5)
C85 C 0.3473(7) -0.1935(7) 0.2869(5)
H93 H 0.4129 -0.2096 0.2857
C86 C 0.3868(7) -0.1569(8) 0.3803(5)
C87 C 0.0396(10) -0.1160(11) 0.2907(7)
C88 C -0.0247(13) -0.1844(11) 0.3097(8)
H94 H -0.0064 -0.2226 0.3521
H95 H -0.0175 -0.2086 0.2782
H96 H -0.0918 -0.1662 0.3109
C89 C 0.0091(10) -0.0589(11) 0.2254(8)
H97 H 0.0204 -0.0827 0.1939
H98 H 0.0463 -0.0124 0.2132
H99 H -0.0594 -0.0445 0.2265
C90 C 0.0202(13) -0.0759(15) 0.3400(11)
H100 H 0.0382 -0.1125 0.3830
H101 H -0.0482 -0.0604 0.3397
H102 H 0.0584 -0.0299 0.3278
C91 C -0.0070(11) -0.2225(7) -0.2692(5)
C92 C 0.0062(8) -0.1331(6) -0.2849(5)
C93 C 0.1001(8) -0.1095(7) -0.2819(6)
H103 H 0.1538 -0.1456 -0.2711
C94 C 0.1104(8) -0.0278(7) -0.2961(5)
C95 C 0.0288(8) 0.0256(6) -0.3115(5)
C96 C -0.0646(8) 0.0013(6) -0.3176(5)
C97 C -0.0736(8) -0.0783(7) -0.3035(5)
H104 H -0.1349 -0.0960 -0.3066
C98 C -0.1543(9) 0.0607(7) -0.3396(6)
C99 C -0.2424(9) 0.0188(8) -0.3465(8)
H105 H -0.2976 0.0561 -0.3603
H106 H -0.2571 -0.0224 -0.3051
H107 H -0.2286 -0.0039 -0.3784
C100 C -0.1331(10) 0.1257(7) -0.4056(6)
H108 H -0.1885 0.1628 -0.4187
H109 H -0.1207 0.1028 -0.4375
H110 H -0.0765 0.1527 -0.4022
C101 C -0.1811(11) 0.0988(9) -0.2898(7)
H111 H -0.2362 0.1358 -0.3056
H112 H -0.1262 0.1260 -0.2845
H113 H -0.1977 0.0583 -0.2485
C102 C 0.2084(8) -0.0071(6) -0.2919(5)
H114 H 0.2569 -0.0477 -0.2799
C103 C 0.3383(6) 0.0828(5) -0.3064(5)
H115 H 0.3544 0.1129 -0.3525
C104 C 0.4129(8) 0.0136(7) -0.2809(6)
H116 H 0.4014 -0.0167 -0.2347
H117 H 0.4078 -0.0210 -0.3043
C105 C 0.5123(9) 0.0465(8) -0.2911(8)
H118 H 0.5607 0.0029 -0.2745
H119 H 0.5239 0.0732 -0.3378
C106 C 0.5274(7) 0.1028(7) -0.2595(6)
H120 H 0.5914 0.1247 -0.2716
H121 H 0.5251 0.0752 -0.2124
C107 C 0.4469(9) 0.1710(7) -0.2811(6)
H122 H 0.4524 0.2036 -0.2559
H123 H 0.4561 0.2042 -0.3269
C108 C 0.3466(6) 0.1375(5) -0.2707(4)
H124 H 0.3378 0.1065 -0.2238
C109 C 0.2662(9) 0.2645(7) -0.2899(5)
H125 H 0.3262 0.2774 -0.2792
C110 C 0.1870(8) 0.3229(6) -0.3013(5)
C111 C 0.0879(7) 0.3069(5) -0.3083(4)
C112 C 0.0089(8) 0.3663(6) -0.3107(5)
C113 C 0.0399(7) 0.4347(5) -0.3092(5)
H126 H -0.0084 0.4743 -0.3137
C114 C 0.1359(8) 0.4527(6) -0.3017(5)
C115 C 0.2081(8) 0.3972(6) -0.2973(6)
H127 H 0.2725 0.4071 -0.2917
C116 C 0.1606(13) 0.5270(7) -0.2920(8)
C117 C -0.0948(10) 0.3489(7) -0.3168(7)
C118 C -0.1633(9) 0.4194(9) -0.3194(8)
H128 H -0.1555 0.4295 -0.2805
H129 H -0.2300 0.4073 -0.3224
H130 H -0.1471 0.4654 -0.3570
C119 C -0.1113(11) 0.3348(9) -0.3795(8)
H131 H -0.0691 0.2911 -0.3797
H132 H -0.0967 0.3816 -0.4169
H133 H -0.1784 0.3228 -0.3812
C120 C -0.1204(10) 0.2794(9) -0.2552(7)
H134 H -0.1101 0.2920 -0.2178
H135 H -0.0795 0.2338 -0.2522
H136 H -0.1879 0.2682 -0.2565
C121 C -0.0488(11) -0.4184(7) -0.1170(6)
C122 C -0.0261(9) -0.4483(6) -0.0442(5)
C123 C -0.1003(8) -0.4545(6) 0.0012(6)
H137 H -0.1636 -0.4379 -0.0142
C124 C -0.0862(8) -0.4839(6) 0.0679(5)
C125 C 0.0097(8) -0.5086(6) 0.0906(5)
C126 C 0.0899(9) -0.5024(7) 0.0444(5)
C127 C 0.0684(9) -0.4718(7) -0.0235(5)
H138 H 0.1184 -0.4676 -0.0539
C128 C -0.1684(8) -0.4934(7) 0.1167(6)
C129 C -0.1896(10) -0.5790(7) 0.1591(7)
H139 H -0.2006 -0.6072 0.1316
H140 H -0.2469 -0.5800 0.1855
H141 H -0.1346 -0.6037 0.1869
C130 C -0.1501(10) -0.4439(8) 0.1602(6)
H142 H -0.0900 -0.4630 0.1837
H143 H -0.2035 -0.4499 0.1906
H144 H -0.1458 -0.3889 0.1324
C131 C -0.2690(10) -0.4572(10) 0.0817(8)
H145 H -0.2849 -0.4838 0.0537
H146 H -0.2635 -0.4018 0.0560
H147 H -0.3198 -0.4642 0.1140
C132 C 0.1903(7) -0.5252(6) 0.0605(5)
H148 H 0.2344 -0.5198 0.0264
C133 C 0.3319(6) -0.5692(6) 0.1315(4)
H149 H 0.3543 -0.5307 0.1482
C134 C 0.3951(8) -0.5646(7) 0.0737(5)
H150 H 0.3888 -0.5119 0.0397
H151 H 0.3746 -0.6021 0.0560
C135 C 0.5031(6) -0.5844(6) 0.0964(5)
H152 H 0.5448 -0.5826 0.0598
H153 H 0.5240 -0.5451 0.1120
C136 C 0.5134(8) -0.6637(7) 0.1492(5)
H154 H 0.5811 -0.6737 0.1634
H155 H 0.4983 -0.7030 0.1320
C137 C 0.4453(9) -0.6738(8) 0.2099(6)
H156 H 0.4496 -0.7284 0.2409
H157 H 0.4656 -0.6402 0.2315
C138 C 0.3409(7) -0.6505(6) 0.1858(4)
H158 H 0.3200 -0.6891 0.1688
C139 C 0.2803(9) -0.6879(7) 0.2986(6)
H159 H 0.3396 -0.7171 0.3108
C140 C 0.2122(9) -0.6920(7) 0.3501(5)
C141 C 0.1149(9) -0.6626(8) 0.3394(5)
C142 C 0.0500(9) -0.6705(8) 0.3940(6)
C143 C 0.0855(11) -0.7089(8) 0.4547(6)
H160 H 0.0445 -0.7136 0.4901
C144 C 0.1840(9) -0.7433(8) 0.4677(6)
C145 C 0.2435(9) -0.7317(8) 0.4149(6)
H161 H 0.3084 -0.7511 0.4221
C146 C 0.2205(11) -0.7877(8) 0.5353(6)
C147 C -0.0589(12) -0.6404(12) 0.3820(7)
C148 C -0.0608(14) -0.5471(13) 0.3463(8)
H162 H -0.0266 -0.5330 0.3052
H163 H -0.0295 -0.5252 0.3731
H164 H -0.1275 -0.5266 0.3387
C149 C -0.1130(13) -0.6733(15) 0.3446(9)
H165 H -0.1137 -0.7298 0.3672
H166 H -0.0824 -0.6610 0.3024
H167 H -0.1791 -0.6511 0.3390
C150 C -0.1113(11) -0.6629(14) 0.4500(7)
H168 H -0.1117 -0.7196 0.4715
H169 H -0.1775 -0.6410 0.4439
H170 H -0.0768 -0.6421 0.4765
C151 C -0.2138(10) -0.3598(7) -0.3046(6)
C152 C -0.2684(9) -0.3543(7) -0.3625(6)
C153 C -0.2237(9) -0.3681(7) -0.4141(6)
H171 H -0.1565 -0.3801 -0.4117
C154 C -0.2716(9) -0.3653(7) -0.4694(5)
C155 C -0.3773(8) -0.3484(7) -0.4711(6)
C156 C -0.4237(9) -0.3273(7) -0.4216(5)
C157 C -0.3680(9) -0.3302(7) -0.3687(5)
H172 H -0.3980 -0.3155 -0.3366
C158 C -0.2226(9) -0.3858(8) -0.5238(6)
C159 C -0.1079(12) -0.3977(12) -0.5143(8)
H173 H -0.0783 -0.4098 -0.5493
H174 H -0.0933 -0.4405 -0.4733
H175 H -0.0823 -0.3499 -0.5144
C160 C -0.2560(11) -0.4609(9) -0.5254(7)
H176 H -0.3257 -0.4564 -0.5316
H177 H -0.2401 -0.5039 -0.4847
H178 H -0.2238 -0.4707 -0.5607
C161 C -0.2379(12) -0.3190(10) -0.5884(7)
H179 H -0.3068 -0.3095 -0.5974
H180 H -0.2055 -0.3324 -0.6221
H181 H -0.2112 -0.2721 -0.5875
C162 C -0.5251(9) -0.3048(7) -0.4218(5)
H182 H -0.5477 -0.2894 -0.3883
C163 C -0.6895(8) -0.2690(6) -0.4659(5)
H183 H -0.6911 -0.2180 -0.5032
C164 C -0.7289(10) -0.2524(8) -0.4075(6)
H184 H -0.6864 -0.2171 -0.3988
H185 H -0.7292 -0.3016 -0.3692
C165 C -0.8330(11) -0.2147(9) -0.4204(7)
H186 H -0.8321 -0.1638 -0.4569
H187 H -0.8578 -0.2060 -0.3822
C166 C -0.9003(11) -0.2689(10) -0.4361(6)
H188 H -0.9655 -0.2436 -0.4460
H189 H -0.9054 -0.3182 -0.3983
C167 C -0.8589(10) -0.2868(10) -0.4961(7)
H190 H -0.8996 -0.3240 -0.5037
H191 H -0.8605 -0.2382 -0.5351
C168 C -0.7541(7) -0.3212(7) -0.4832(5)
H192 H -0.7552 -0.3723 -0.4459
C169 C -0.7540(9) -0.3513(7) -0.5795(5)
H193 H -0.8219 -0.3454 -0.5772
C170 C -0.8201(11) -0.4297(10) -0.7635(7)
C171 C -0.7154(5) -0.3787(5) -0.6297(3)
C172 C -0.6176(5) -0.4033(5) -0.6317(3)
C173 C -0.5876(4) -0.4391(5) -0.6746(4)
C174 C -0.6553(6) -0.4503(5) -0.7154(4)
H194 H -0.6351 -0.4742 -0.7441
C175 C -0.7530(5) -0.4257(5) -0.7133(4)
C176 C -0.7831(4) -0.3899(5) -0.6705(4)
H195 H -0.8484 -0.3734 -0.6691
C177 C -0.4760(11) -0.4675(9) -0.6771(7)
C178 C -0.4100(10) -0.3950(12) -0.7014(9)
H196 H -0.3427 -0.4129 -0.7021
H197 H -0.4175 -0.3673 -0.6725
H198 H -0.4291 -0.3599 -0.7448
C179 C -0.4485(14) -0.5296(9) -0.6098(8)
H199 H -0.3811 -0.5474 -0.6103
H200 H -0.4895 -0.5738 -0.5991
H201 H -0.4576 -0.5068 -0.5776
C180 C -0.4627(10) -0.5086(10) -0.7255(8)
H202 H -0.3953 -0.5262 -0.7261
H203 H -0.4811 -0.4719 -0.7685
H204 H -0.5033 -0.5533 -0.7122
C181 C -0.5193(12) 0.1367(9) -0.5496(8)
H205 H -0.5488 0.1098 -0.5093
C182 C -0.373(3) 0.2020(17) -0.5171(14)
H206 H -0.3924 0.1730 -0.4727
H207 H -0.3774 0.2577 -0.5262
H208 H -0.3061 0.1864 -0.5235
C183 C -0.387(2) 0.2280(18) -0.6275(10)
H209 H -0.4139 0.2108 -0.6590
H210 H -0.3179 0.2158 -0.6242
H211 H -0.3996 0.2842 -0.6411
C184 C 0.0413(12) -0.7389(11) 0.2029(11)
H212 H 0.0146 -0.7472 0.2440
C185 C 0.020(2) -0.752(2) 0.0980(8)
H213 H 0.0849 -0.7321 0.0898
H214 H -0.0257 -0.7123 0.0704
H215 H 0.0190 -0.7988 0.0887
C186 C -0.0894(16) -0.8152(16) 0.1906(14)
H216 H -0.0904 -0.8310 0.2372
H217 H -0.0864 -0.8614 0.1801
H218 H -0.1478 -0.7835 0.1725
N1 N -0.6708(6) -0.6442(5) -0.0989(4)
N2 N -0.7015(6) -0.7870(5) -0.0872(4)
N3 N -0.6553(6) -0.0082(5) -0.5116(4)
N4 N -0.7085(7) 0.0527(6) -0.6328(4)
N5 N 0.1583(7) -0.2705(7) 0.0723(5)
N6 N 0.2695(8) -0.2579(7) 0.1597(5)
N7 N 0.2348(6) 0.0633(5) -0.3033(4)
N8 N 0.2629(7) 0.1969(5) -0.2930(4)
N9 N 0.2225(6) -0.5518(5) 0.1172(4)
N10 N 0.2675(6) -0.6481(6) 0.2378(4)
N11 N -0.5871(7) -0.3037(6) -0.4628(4)
N12 N -0.7069(7) -0.3349(6) -0.5393(5)
N13 N -0.4358(8) 0.1855(7) -0.5608(7)
N14 N -0.0054 -0.7699 0.1637
O1 O -0.3477(6) -0.3375(4) -0.1296(4)
O2 O -0.5053(7) -0.3191(5) -0.1230(5)
O3 O -0.4726(5) -0.6824(4) -0.0746(4)
O4 O -0.5031(5) -0.8220(4) -0.0796(4)
O5 O -0.2996(7) -0.1880(6) -0.2568(5)
O6 O -0.4550(7) -0.1693(5) -0.2371(4)
O7 O -0.4653(6) -0.0366(5) -0.5452(4)
O8 O -0.5210(6) 0.0303(5) -0.6751(4)
O9 O -0.5922(7) 0.2142(6) -0.9739(4)
O10 O -0.7231(9) 0.2561(7) -0.9366(5)
O11 O -0.1768(7) -0.2438(6) -0.1267(4)
O12 O -0.3085(7) -0.2074(6) -0.0828(4)
O13 O -0.0050(6) -0.2245(6) 0.1278(4)
O14 O 0.1158(6) -0.2012(5) 0.2135(4)
O15 O 0.4504(6) -0.2112(5) 0.3993(4)
O16 O 0.3696(7) -0.1062(5) 0.4059(4)
O17 O -0.0896(6) -0.2479(5) -0.2575(4)
O18 O 0.0677(6) -0.2641(5) -0.2698(4)
O19 O 0.0395(5) 0.1013(4) -0.3225(4)
O20 O 0.0667(5) 0.2416(4) -0.3104(4)
O21 O 0.0890(8) 0.5685(6) -0.2879(5)
O22 O 0.2435(10) 0.5396(8) -0.2854(9)
O23 O 0.0243(7) -0.4173(6) -0.1534(4)
O24 O -0.1350(6) -0.3989(5) -0.1343(4)
O25 O 0.0285(5) -0.5383(5) 0.1537(3)
O26 O 0.0785(6) -0.6244(6) 0.2782(3)
O27 O 0.1645(7) -0.7840(5) 0.5804(4)
O28 O 0.2998(8) -0.8268(8) 0.5443(4)
O29 O -0.1216(7) -0.3801(6) -0.3045(4)
O30 O -0.2588(6) -0.3442(5) -0.2606(4)
O31 O -0.4292(7) -0.3518(5) -0.5193(4)
O32 O -0.5496(6) -0.3873(5) -0.5957(4)
O33 O -0.8870(7) -0.3721(6) -0.7890(5)
O34 O -0.8028(6) -0.4855(6) -0.7825(5)
O35 O -0.5453(8) 0.1367(6) -0.6033(5)
O36 O 0.1141(9) -0.7019(7) 0.1865(7)
O37 O -0.5185(8) -1.1527(6) -0.1035(5)
O38 O -0.6737(9) -1.1266(6) -0.0967(6)
C187 C 0.3516(18) -0.496(2) 0.5611(18)
H219 H 0.3099 -0.4759 0.5855
O39 O 0.4341(13) -0.4746(10) 0.5477(8)
N15 N 0.3187(18) -0.5577(15) 0.5363(12)
C188 C 0.387(2) -0.6293(19) 0.537(2)
H220 H 0.4525 -0.6220 0.5461
H221 H 0.3849 -0.6325 0.4944
H222 H 0.3640 -0.6774 0.5694
C189 C 0.2096(19) -0.556(2) 0.5145(17)
H223 H 0.1745 -0.5095 0.5151
H224 H 0.1786 -0.6024 0.5440
H225 H 0.2093 -0.5555 0.4710
Mn1_2 Mn -0.42318(11) -1.21357(9) -0.13960(7)
Mn3_2 Mn -0.00892(11) 0.62990(9) -0.25223(7)
Mn4_2 Mn -0.58231(11) 0.25979(9) -1.07275(7)
Mn5_2 Mn 0.41826(12) 0.00172(10) 0.40789(7)
Mn6_2 Mn -0.87151(14) -0.24629(13) -0.85024(9)
Mn7_2 Mn 0.14743(11) -0.84222(8) 0.68039(7)
Mn8_2 Mn -0.85442(11) -0.58392(10) -0.80034(7)
Mn9_2 Mn -0.56047(13) -0.33783(11) -0.53573(8)
N11_2 N 0.4129(7) -0.3037(6) 0.5372(4)
N12_2 N 0.2931(7) -0.3349(6) 0.4607(5)
O9_2 O -0.5922(7) -0.7858(6) 0.0261(4)
O16_2 O -0.6304(7) -0.1062(5) -0.5941(4)
O21_2 O 0.0890(8) -0.4315(6) -0.2879(5)
O27_2 O 0.1645(7) 0.2160(5) -0.4196(4)
O31_2 O 0.5708(7) -0.3518(5) 0.4807(4)
O32_2 O 0.4504(6) -0.3873(5) 0.4043(4)
O33_2 O 0.1130(7) -0.3721(6) 0.2110(5)
O34_2 O 0.1972(6) -0.4855(6) 0.2175(5)
O37_2 O -0.5185(8) -0.1527(6) -0.1035(5)
O40 O -0.5746(12) -0.6703(9) -0.2140(8)
C193 C -0.5016(12) -0.6345(9) -0.2321(9)
H233 H -0.4481 -0.6688 -0.2309
N17 N -0.4730(10) -0.5556(8) -0.2548(7)
C194 C -0.3746(11) -0.5289(10) -0.2541(9)
H234 H -0.3288 -0.5739 -0.2395
H235 H -0.3734 -0.5016 -0.2249
H236 H -0.3568 -0.4937 -0.2974
C195 C -0.5525(11) -0.4877(9) -0.2817(9)
H237 H -0.6156 -0.5097 -0.2776
H238 H -0.5389 -0.4569 -0.3269
H239 H -0.5522 -0.4545 -0.2572
O41 O -0.8181(10) -0.0985(7) -0.9302(6)
C190 C -0.7285(12) -0.0829(10) -0.9346(8)
H226 H -0.6848 -0.1103 -0.9522
N16 N -0.6895(11) -0.0229(8) -0.9131(7)
C191 C -0.5821(11) -0.0161(10) -0.9139(8)
H227 H -0.5670 0.0229 -0.8971
H228 H -0.5579 -0.0005 -0.9580
H229 H -0.5516 -0.0664 -0.8872
C192 C -0.7510(15) 0.0155(13) -0.8783(10)
H230 H -0.8184 0.0055 -0.8817
H231 H -0.7425 0.0716 -0.8972
H232 H -0.7327 -0.0052 -0.8331
O42 O -0.8778(9) 0.0812(6) -0.1806(5)
C196 C -0.9539(14) 0.0416(12) -0.1660(13)
N18 N -0.9258(19) -0.0442(11) -0.1302(10)
C197 C -0.819(2) -0.0527(14) -0.1220(19)
C198 C -0.989(3) -0.1002(17) -0.113(2)
O43 O -0.7381(8) -0.3651(6) -0.2227(5)
O44 O -0.6978(10) -0.1961(8) -0.1879(7)
O45 O -0.5741(11) -0.2935(9) -0.2726(7)
O46 O -0.8760(10) -0.2775(9) -0.1190(7)
O47 O -0.399(2) -0.6617(18) -0.4216(14)
O48 O 0.009(2) -0.9907(16) -0.9924(13)
loop_
_geom_bond_atom_site_label_1
_geom_bond_atom_site_label_2
_geom_bond_site_symmetry_1
_geom_bond_site_symmetry_2
Mn1 O1 1_555 1_555
Mn2 O1 1_555 1_555
Mn3 O17 1_555 1_555
Mn4 N1 1_555 1_555
Mn5 N3 1_555 1_555
Mn6 N5 1_555 1_555
Mn7 N7 1_555 1_555
Mn8 N9 1_555 1_555
Mn9 O15 1_555 1_555
C1 C2 1_555 1_555
C2 C3 1_555 1_555
C3 H1 1_555 1_555
C4 C3 1_555 1_555
C5 C4 1_555 1_555
C6 C5 1_555 1_555
C7 C2 1_555 1_555
H2 C7 1_555 1_555
C8 C4 1_555 1_555
C9 C8 1_555 1_555
H3 C9 1_555 1_555
H4 C9 1_555 1_555
H5 C9 1_555 1_555
C10 C8 1_555 1_555
H6 C10 1_555 1_555
H7 C10 1_555 1_555
H8 C10 1_555 1_555
C11 C8 1_555 1_555
H9 C11 1_555 1_555
H10 C11 1_555 1_555
H11 C11 1_555 1_555
C12 C6 1_555 1_555
H12 C12 1_555 1_555
C13 H13 1_555 1_555
C14 C13 1_555 1_555
H14 C14 1_555 1_555
H15 C14 1_555 1_555
C15 C14 1_555 1_555
H16 C15 1_555 1_555
H17 C15 1_555 1_555
C16 C15 1_555 1_555
H18 C16 1_555 1_555
H19 C16 1_555 1_555
C17 C16 1_555 1_555
H20 C17 1_555 1_555
H21 C17 1_555 1_555
C18 C13 1_555 1_555
H22 C18 1_555 1_555
C19 H23 1_555 1_555
C20 C25 1_555 1_555
C21 C19 1_555 1_555
C22 C21 1_555 1_555
C23 C22 1_555 1_555
C24 C23 1_555 1_555
H24 C24 1_555 1_555
C25 C24 1_555 1_555
C26 C21 1_555 1_555
H25 C26 1_555 1_555
C27 C23 1_555 1_555
C28 C27 1_555 1_555
H26 C28 1_555 1_555
H27 C28 1_555 1_555
H28 C28 1_555 1_555
C29 C27 1_555 1_555
H29 C29 1_555 1_555
H30 C29 1_555 1_555
H31 C29 1_555 1_555
C30 C27 1_555 1_555
H32 C30 1_555 1_555
H33 C30 1_555 1_555
H34 C30 1_555 1_555
C31 C32 1_555 1_555
C32 C33 1_555 1_555
C33 H35 1_555 1_555
C34 C33 1_555 1_555
C35 C34 1_555 1_555
C36 C35 1_555 1_555
C37 C32 1_555 1_555
H36 C37 1_555 1_555
C38 C34 1_555 1_555
C39 C38 1_555 1_555
H37 C39 1_555 1_555
H38 C39 1_555 1_555
H39 C39 1_555 1_555
C40 C38 1_555 1_555
H40 C40 1_555 1_555
H41 C40 1_555 1_555
H42 C40 1_555 1_555
C41 C38 1_555 1_555
H43 C41 1_555 1_555
H44 C41 1_555 1_555
H45 C41 1_555 1_555
C42 C36 1_555 1_555
H46 C42 1_555 1_555
C43 H47 1_555 1_555
C44 C43 1_555 1_555
H48 C44 1_555 1_555
H49 C44 1_555 1_555
C45 C44 1_555 1_555
H50 C45 1_555 1_555
H51 C45 1_555 1_555
C46 C45 1_555 1_555
H52 C46 1_555 1_555
H53 C46 1_555 1_555
C47 C46 1_555 1_555
H54 C47 1_555 1_555
H55 C47 1_555 1_555
C48 C43 1_555 1_555
H56 C48 1_555 1_555
C49 H57 1_555 1_555
C50 C49 1_555 1_555
C51 C50 1_555 1_555
C52 C51 1_555 1_555
C53 C52 1_555 1_555
H58 C53 1_555 1_555
C54 C53 1_555 1_555
C55 C50 1_555 1_555
H59 C55 1_555 1_555
C56 C54 1_555 1_555
C57 C52 1_555 1_555
C58 C57 1_555 1_555
H60 C58 1_555 1_555
H61 C58 1_555 1_555
H62 C58 1_555 1_555
C59 C57 1_555 1_555
H63 C59 1_555 1_555
H64 C59 1_555 1_555
H65 C59 1_555 1_555
C60 C57 1_555 1_555
H66 C60 1_555 1_555
H67 C60 1_555 1_555
H68 C60 1_555 1_555
C61 C62 1_555 1_555
C62 C63 1_555 1_555
C63 H69 1_555 1_555
C64 C63 1_555 1_555
C65 C64 1_555 1_555
C66 C65 1_555 1_555
C67 C62 1_555 1_555
H70 C67 1_555 1_555
C68 C66 1_555 1_555
C69 C68 1_555 1_555
H71 C69 1_555 1_555
H72 C69 1_555 1_555
H73 C69 1_555 1_555
C70 C68 1_555 1_555
H74 C70 1_555 1_555
H75 C70 1_555 1_555
H76 C70 1_555 1_555
C71 C68 1_555 1_555
H77 C71 1_555 1_555
H78 C71 1_555 1_555
H79 C71 1_555 1_555
C72 C64 1_555 1_555
H80 C72 1_555 1_555
C73 H81 1_555 1_555
C74 C73 1_555 1_555
H82 C74 1_555 1_555
H83 C74 1_555 1_555
C75 C74 1_555 1_555
H84 C75 1_555 1_555
H85 C75 1_555 1_555
C76 C75 1_555 1_555
H86 C76 1_555 1_555
H87 C76 1_555 1_555
C77 C76 1_555 1_555
H88 C77 1_555 1_555
H89 C77 1_555 1_555
C78 C73 1_555 1_555
H90 C78 1_555 1_555
C79 H91 1_555 1_555
C80 C79 1_555 1_555
C81 C80 1_555 1_555
C82 C81 1_555 1_555
C83 C82 1_555 1_555
H92 C83 1_555 1_555
C84 C83 1_555 1_555
C85 C80 1_555 1_555
H93 C85 1_555 1_555
C86 C84 1_555 1_555
C87 C82 1_555 1_555
C88 C87 1_555 1_555
H94 C88 1_555 1_555
H95 C88 1_555 1_555
H96 C88 1_555 1_555
C89 C87 1_555 1_555
H97 C89 1_555 1_555
H98 C89 1_555 1_555
H99 C89 1_555 1_555
C90 C87 1_555 1_555
H100 C90 1_555 1_555
H101 C90 1_555 1_555
H102 C90 1_555 1_555
C91 C92 1_555 1_555
C92 C93 1_555 1_555
C93 H103 1_555 1_555
C94 C93 1_555 1_555
C95 C94 1_555 1_555
C96 C95 1_555 1_555
C97 C92 1_555 1_555
H104 C97 1_555 1_555
C98 C96 1_555 1_555
C99 C98 1_555 1_555
H105 C99 1_555 1_555
H106 C99 1_555 1_555
H107 C99 1_555 1_555
C100 C98 1_555 1_555
H108 C100 1_555 1_555
H109 C100 1_555 1_555
H110 C100 1_555 1_555
C101 C98 1_555 1_555
H111 C101 1_555 1_555
H112 C101 1_555 1_555
H113 C101 1_555 1_555
C102 C94 1_555 1_555
H114 C102 1_555 1_555
C103 H115 1_555 1_555
C104 C103 1_555 1_555
H116 C104 1_555 1_555
H117 C104 1_555 1_555
C105 C104 1_555 1_555
H118 C105 1_555 1_555
H119 C105 1_555 1_555
C106 C105 1_555 1_555
H120 C106 1_555 1_555
H121 C106 1_555 1_555
C107 C106 1_555 1_555
H122 C107 1_555 1_555
H123 C107 1_555 1_555
C108 C103 1_555 1_555
H124 C108 1_555 1_555
C109 H125 1_555 1_555
C110 C109 1_555 1_555
C111 C110 1_555 1_555
C112 C111 1_555 1_555
C113 C112 1_555 1_555
H126 C113 1_555 1_555
C114 C113 1_555 1_555
C115 C110 1_555 1_555
H127 C115 1_555 1_555
C116 C114 1_555 1_555
C117 C112 1_555 1_555
C118 C117 1_555 1_555
H128 C118 1_555 1_555
H129 C118 1_555 1_555
H130 C118 1_555 1_555
C119 C117 1_555 1_555
H131 C119 1_555 1_555
H132 C119 1_555 1_555
H133 C119 1_555 1_555
C120 C117 1_555 1_555
H134 C120 1_555 1_555
H135 C120 1_555 1_555
H136 C120 1_555 1_555
C121 C122 1_555 1_555
C122 C123 1_555 1_555
C123 H137 1_555 1_555
C124 C123 1_555 1_555
C125 C124 1_555 1_555
C126 C125 1_555 1_555
C127 C122 1_555 1_555
H138 C127 1_555 1_555
C128 C124 1_555 1_555
C129 C128 1_555 1_555
H139 C129 1_555 1_555
H140 C129 1_555 1_555
H141 C129 1_555 1_555
C130 C128 1_555 1_555
H142 C130 1_555 1_555
H143 C130 1_555 1_555
H144 C130 1_555 1_555
C131 C128 1_555 1_555
H145 C131 1_555 1_555
H146 C131 1_555 1_555
H147 C131 1_555 1_555
C132 C126 1_555 1_555
H148 C132 1_555 1_555
C133 H149 1_555 1_555
C134 C133 1_555 1_555
H150 C134 1_555 1_555
H151 C134 1_555 1_555
C135 C134 1_555 1_555
H152 C135 1_555 1_555
H153 C135 1_555 1_555
C136 C135 1_555 1_555
H154 C136 1_555 1_555
H155 C136 1_555 1_555
C137 C136 1_555 1_555
H156 C137 1_555 1_555
H157 C137 1_555 1_555
C138 C133 1_555 1_555
H158 C138 1_555 1_555
C139 H159 1_555 1_555
C140 C139 1_555 1_555
C141 C140 1_555 1_555
C142 C141 1_555 1_555
C143 C142 1_555 1_555
H160 C143 1_555 1_555
C144 C143 1_555 1_555
C145 C140 1_555 1_555
H161 C145 1_555 1_555
C146 C144 1_555 1_555
C147 C142 1_555 1_555
C148 C147 1_555 1_555
H162 C148 1_555 1_555
H163 C148 1_555 1_555
H164 C148 1_555 1_555
C149 C147 1_555 1_555
H165 C149 1_555 1_555
H166 C149 1_555 1_555
H167 C149 1_555 1_555
C150 C147 1_555 1_555
H168 C150 1_555 1_555
H169 C150 1_555 1_555
H170 C150 1_555 1_555
C151 C152 1_555 1_555
C152 C153 1_555 1_555
C153 H171 1_555 1_555
C154 C153 1_555 1_555
C155 C154 1_555 1_555
C156 C155 1_555 1_555
C157 C152 1_555 1_555
H172 C157 1_555 1_555
C158 C154 1_555 1_555
C159 C158 1_555 1_555
H173 C159 1_555 1_555
H174 C159 1_555 1_555
H175 C159 1_555 1_555
C160 C158 1_555 1_555
H176 C160 1_555 1_555
H177 C160 1_555 1_555
H178 C160 1_555 1_555
C161 C158 1_555 1_555
H179 C161 1_555 1_555
H180 C161 1_555 1_555
H181 C161 1_555 1_555
C162 C156 1_555 1_555
H182 C162 1_555 1_555
C163 H183 1_555 1_555
C164 C163 1_555 1_555
H184 C164 1_555 1_555
H185 C164 1_555 1_555
C165 C164 1_555 1_555
H186 C165 1_555 1_555
H187 C165 1_555 1_555
C166 C165 1_555 1_555
H188 C166 1_555 1_555
H189 C166 1_555 1_555
C167 C166 1_555 1_555
H190 C167 1_555 1_555
H191 C167 1_555 1_555
C168 C163 1_555 1_555
H192 C168 1_555 1_555
C169 H193 1_555 1_555
C170 C175 1_555 1_555
C171 C169 1_555 1_555
C172 C171 1_555 1_555
C173 C172 1_555 1_555
C174 C173 1_555 1_555
H194 C174 1_555 1_555
C175 C174 1_555 1_555
C176 C171 1_555 1_555
H195 C176 1_555 1_555
C177 C173 1_555 1_555
C178 C177 1_555 1_555
H196 C178 1_555 1_555
H197 C178 1_555 1_555
H198 C178 1_555 1_555
C179 C177 1_555 1_555
H199 C179 1_555 1_555
H200 C179 1_555 1_555
H201 C179 1_555 1_555
C180 C177 1_555 1_555
H202 C180 1_555 1_555
H203 C180 1_555 1_555
H204 C180 1_555 1_555
C181 H205 1_555 1_555
C182 H206 1_555 1_555
H207 C182 1_555 1_555
H208 C182 1_555 1_555
C183 H209 1_555 1_555
H210 C183 1_555 1_555
H211 C183 1_555 1_555
C184 H212 1_555 1_555
C185 H213 1_555 1_555
H214 C185 1_555 1_555
H215 C185 1_555 1_555
C186 H216 1_555 1_555
H217 C186 1_555 1_555
H218 C186 1_555 1_555
N1 C12 1_555 1_555
N2 Mn4 1_555 1_555
N3 C42 1_555 1_555
N4 Mn5 1_555 1_555
N5 C72 1_555 1_555
N6 Mn6 1_555 1_555
N7 C102 1_555 1_555
N8 Mn7 1_555 1_555
N9 C132 1_555 1_555
N10 Mn8 1_555 1_555
N11 C162 1_555 1_555
N12 C168 1_555 1_555
N13 C181 1_555 1_555
N14 C184 1_555 1_555
O1 C1 1_555 1_555
O2 Mn1 1_555 1_555
O3 Mn4 1_555 1_555
O4 Mn4 1_555 1_555
O5 Mn2 1_555 1_555
O6 Mn1 1_555 1_555
O7 Mn5 1_555 1_555
O8 Mn5 1_555 1_555
O9 C56 1_555 1_555
O10 C56 1_555 1_555
O11 Mn2 1_555 1_555
O12 Mn1 1_555 1_555
O13 Mn6 1_555 1_555
O14 Mn6 1_555 1_555
O15 C86 1_555 1_555
O16 C86 1_555 1_555
O17 Mn2 1_555 1_555
O18 Mn3 1_555 1_555
O19 Mn7 1_555 1_555
O20 Mn7 1_555 1_555
O21 C116 1_555 1_555
O22 C116 1_555 1_555
O23 Mn3 1_555 1_555
O24 Mn2 1_555 1_555
O25 Mn8 1_555 1_555
O26 Mn8 1_555 1_555
O27 C146 1_555 1_555
O28 C146 1_555 1_555
O29 Mn3 1_555 1_555
O30 Mn2 1_555 1_555
O31 C155 1_555 1_555
O32 C172 1_555 1_555
O33 C170 1_555 1_555
O34 C170 1_555 1_555
O35 Mn5 1_555 1_555
O36 Mn8 1_555 1_555
O37 C20 1_555 1_555
O38 C20 1_555 1_555
C187 H219 1_555 1_555
O39 Mn9 1_555 1_555
N15 C187 1_555 1_555
C188 N15 1_555 1_555
H220 C188 1_555 1_555
H221 C188 1_555 1_555
H222 C188 1_555 1_555
C189 N15 1_555 1_555
H223 C189 1_555 1_555
H224 C189 1_555 1_555
H225 C189 1_555 1_555
O40 C193 1_555 1_555
O41 C190 1_555 1_555
C190 H226 1_555 1_555
N16 C190 1_555 1_555
C191 N16 1_555 1_555
H227 C191 1_555 1_555
H228 C191 1_555 1_555
H229 C191 1_555 1_555
C192 N16 1_555 1_555
H230 C192 1_555 1_555
H231 C192 1_555 1_555
H232 C192 1_555 1_555
C193 H233 1_555 1_555
N17 C193 1_555 1_555
C194 N17 1_555 1_555
H234 C194 1_555 1_555
H235 C194 1_555 1_555
H236 C194 1_555 1_555
C195 N17 1_555 1_555
H237 C195 1_555 1_555
H238 C195 1_555 1_555
H239 C195 1_555 1_555
O42 C196 1_555 1_555
C196 N18 1_555 1_555
N18 C197 1_555 1_555
C198 N18 1_555 1_555
Mn1_2 O37 1_555 1_555
Mn3_2 O21 1_555 1_555
Mn4_2 O9 1_555 1_555
Mn5_2 O16 1_555 1_555
Mn6_2 O33 1_555 1_555
Mn7_2 O27 1_555 1_555
Mn8_2 O34 1_555 1_555
Mn9_2 N11 1_555 1_555
N11_2 Mn9 1_555 1_555
N12_2 Mn9 1_555 1_555
O9_2 Mn4 1_555 1_555
O16_2 Mn5 1_555 1_555
O21_2 Mn3 1_555 1_555
O27_2 Mn7 1_555 1_555
O31_2 Mn9 1_555 1_555
O32_2 Mn9 1_555 1_555
O33_2 Mn6 1_555 1_555
O34_2 Mn8 1_555 1_555
O37_2 Mn1 1_555 1_555
C1 O2 1_555 1_555
C5 O3 1_555 1_555
C6 C7 1_555 1_555
C13 N1 1_555 1_555
C17 C18 1_555 1_555
C18 N2 1_555 1_555
C19 N2 1_555 1_555
C22 O4 1_555 1_555
C25 C26 1_555 1_555
C31 O5 1_555 1_555
C31 O6 1_555 1_555
C35 O7 1_555 1_555
C36 C37 1_555 1_555
C43 N3 1_555 1_555
C47 C48 1_555 1_555
C48 N4 1_555 1_555
C49 N4 1_555 1_555
C51 O8 1_555 1_555
C54 C55 1_555 1_555
C61 O11 1_555 1_555
C61 O12 1_555 1_555
C65 O13 1_555 1_555
C66 C67 1_555 1_555
C73 N5 1_555 1_555
C77 C78 1_555 1_555
C78 N6 1_555 1_555
C79 N6 1_555 1_555
C81 O14 1_555 1_555
C84 C85 1_555 1_555
C91 O17 1_555 1_555
C91 O18 1_555 1_555
C95 O19 1_555 1_555
C96 C97 1_555 1_555
C103 N7 1_555 1_555
C107 C108 1_555 1_555
C108 N8 1_555 1_555
C109 N8 1_555 1_555
C111 O20 1_555 1_555
C114 C115 1_555 1_555
C121 O23 1_555 1_555
C121 O24 1_555 1_555
C125 O25 1_555 1_555
C126 C127 1_555 1_555
C133 N9 1_555 1_555
C137 C138 1_555 1_555
C138 N10 1_555 1_555
C139 N10 1_555 1_555
C141 O26 1_555 1_555
C144 C145 1_555 1_555
C151 O29 1_555 1_555
C151 O30 1_555 1_555
C156 C157 1_555 1_555
C163 N11 1_555 1_555
C167 C168 1_555 1_555
C169 N12 1_555 1_555
C175 C176 1_555 1_555
C181 O35 1_555 1_555
C182 N13 1_555 1_555
C183 N13 1_555 1_555
C184 O36 1_555 1_555
C185 N14 1_555 1_555
C186 N14 1_555 1_555
N12 Mn9_2 1_555 1_555
O31 Mn9_2 1_555 1_555
O32 Mn9_2 1_555 1_555
C187 O39 1_555 1_555

#END
