
#######################################################################
#
#                 Cambridge Crystallographic Data Centre
#                                CCDC 
#
#######################################################################
#
# If this CIF has been generated from an entry in the Cambridge 
# Structural Database, then it will include bibliographic, chemical, 
# crystal, experimental, refinement or atomic coordinate data resulting 
# from the CCDC's data processing and validation procedures.
#
#######################################################################

data_ATEJOA
_chemical_formula_moiety         '(C21 H22 Gd1 N1 O11)n'
_symmetry_cell_setting           triclinic
_symmetry_space_group_name_H-M   'P -1'
_symmetry_Int_Tables_number      2
_space_group_name_Hall           '-P 1'
loop_
_symmetry_equiv_pos_site_id
_symmetry_equiv_pos_as_xyz
1 x,y,z
2 -x,-y,-z
_cell_length_a                   9.5412(18)
_cell_length_b                   12.842(2)
_cell_length_c                   14.455(3)
_cell_angle_alpha                116.316(2)
_cell_angle_beta                 109.199(2)
_cell_angle_gamma                90.150(3)
_cell_volume                     1476.07
loop_
_atom_site_label
_atom_site_type_symbol
_atom_site_fract_x
_atom_site_fract_y
_atom_site_fract_z
Gd1 Gd 0.76872(3) 0.51858(2) 0.53731(2)
O1 O 0.4046(6) -0.3637(4) -0.3520(4)
O2 O 0.2420(6) -0.4872(4) -0.3505(4)
O3 O 0.3287(7) -0.3949(6) 0.4077(5)
O4 O 0.5723(7) -0.3912(5) 0.4865(5)
O5 O 0.9150(7) 0.3776(5) 0.4860(5)
O6 O 1.0798(8) 0.3010(6) 0.4082(5)
C1 C 0.3481(7) -0.4008(5) -0.3030(4)
C2 C 0.4118(8) -0.3387(6) -0.1765(5)
C3 C 0.4595(11) -0.2171(6) -0.1184(5)
H1 H 0.4579 -0.1752 -0.1572
C4 C 0.5096(13) -0.1570(7) -0.0030(6)
H2 H 0.5308 -0.0750 0.0346
C5 C 0.5280(11) -0.2219(6) 0.0562(5)
C6 C 0.4832(14) -0.3455(7) -0.0031(6)
H3 H 0.4935 -0.3893 0.0348
C7 C 0.4232(12) -0.4016(6) -0.1187(6)
H4 H 0.3904 -0.4828 -0.1575
C8 C 0.6773(13) -0.2194(7) 0.3213(7)
H5 H 0.7782 -0.1836 0.3407
C9 C 0.6435(13) 0.0398(7) 0.3197(7)
H6 H 0.5646 0.0243 0.3417
N1 N 0.5853(12) -0.1639(6) 0.1721(5)
C10 C 0.4619(9) -0.3715(6) 0.4198(6)
C11 C 0.4936(11) -0.3149(7) 0.3572(6)
C12 C 0.3727(13) -0.3122(8) 0.2708(8)
H7 H 0.2742 -0.3413 0.2562
C13 C 0.4020(14) -0.2667(8) 0.2092(7)
H8 H 0.3227 -0.2690 0.1496
C14 C 0.5498(15) -0.2158(9) 0.2327(8)
C15 C 0.6441(13) -0.2696(8) 0.3804(7)
H9 H 0.7224 -0.2738 0.4368
C16 C 0.9620(8) 0.2937(6) 0.4230(6)
C17 C 0.8637(10) 0.1719(6) 0.3564(6)
C18 C 0.7375(14) 0.1500(8) 0.3795(7)
H10 H 0.7162 0.2107 0.4362
C19 C 0.6717(14) -0.0493(8) 0.2316(8)
C20 C 0.8016(14) -0.0267(8) 0.2069(8)
H11 H 0.8207 -0.0857 0.1479
C21 C 0.8993(13) 0.0845(8) 0.2722(8)
H12 H 0.9846 0.0983 0.2588
O7 O 0.7160(7) 0.6522(7) 0.7012(5)
O8 O 0.9838(8) 0.5471(7) 0.7017(5)
Gd1_2 Gd 0.76872(3) -0.48142(2) 0.53731(2)
Gd1A Gd 0.23128(3) -0.51858(2) -0.53731(2)
Gd1A_2 Gd 0.23128(3) -0.51858(2) 0.46269(2)
Gd1A_3 Gd 1.23128(3) 0.48142(2) 0.46269(2)
O1A O 0.5954(6) 0.3637(4) 0.3520(4)
O2A O 0.7580(6) 0.4872(4) 0.3505(4)
O3A O 0.6713(7) 0.3949(6) 0.5923(5)
O4_2 O 0.5723(7) 0.6088(5) 0.4865(5)
O6A O 0.9202(8) 0.6990(6) 0.5918(5)
O9 O 0.933(5) 0.574(3) 0.988(3)
O10 O 1.074(6) -0.182(4) 0.129(4)
O11 O 0.071(4) -0.077(3) -0.013(3)
loop_
_geom_bond_atom_site_label_1
_geom_bond_atom_site_label_2
_geom_bond_site_symmetry_1
_geom_bond_site_symmetry_2
Gd1 O5 1_555 1_555
O1 C1 1_555 1_555
O2 C1 1_555 1_555
O3 C10 1_555 1_555
O4 C10 1_555 1_555
O5 C16 1_555 1_555
O6 C16 1_555 1_555
C1 C2 1_555 1_555
C2 C3 1_555 1_555
C3 H1 1_555 1_555
C4 C3 1_555 1_555
H2 C4 1_555 1_555
C5 C4 1_555 1_555
C6 C5 1_555 1_555
H3 C6 1_555 1_555
C7 C2 1_555 1_555
H4 C7 1_555 1_555
C8 H5 1_555 1_555
C9 H6 1_555 1_555
N1 C5 1_555 1_555
C10 C11 1_555 1_555
C11 C12 1_555 1_555
C12 H7 1_555 1_555
C13 C12 1_555 1_555
H8 C13 1_555 1_555
C14 C8 1_555 1_555
C15 C8 1_555 1_555
H9 C15 1_555 1_555
C16 C17 1_555 1_555
C17 C18 1_555 1_555
C18 C9 1_555 1_555
H10 C18 1_555 1_555
C19 C9 1_555 1_555
C20 C19 1_555 1_555
H11 C20 1_555 1_555
C21 C17 1_555 1_555
H12 C21 1_555 1_555
O7 Gd1 1_555 1_555
O8 Gd1 1_555 1_555
Gd1_2 O4 1_555 1_555
Gd1A O1 1_555 1_555
Gd1A_2 O3 1_555 1_555
Gd1A_3 O6 1_555 1_555
O1A Gd1 1_555 1_555
O2A Gd1 1_555 1_555
O3A Gd1 1_555 1_555
O4_2 Gd1 1_555 1_555
O6A Gd1 1_555 1_555
O2 Gd1A 1_555 1_555
C6 C7 1_555 1_555
N1 C14 1_555 1_555
N1 C19 1_555 1_555
C11 C15 1_555 1_555
C13 C14 1_555 1_555
C20 C21 1_555 1_555

#END
