
#######################################################################
#
#                 Cambridge Crystallographic Data Centre
#                                CCDC 
#
#######################################################################
#
# If this CIF has been generated from an entry in the Cambridge 
# Structural Database, then it will include bibliographic, chemical, 
# crystal, experimental, refinement or atomic coordinate data resulting 
# from the CCDC's data processing and validation procedures.
#
#######################################################################

data_KACGED
_chemical_formula_moiety         '(C118 H104 Br4 I12 N32 O6 Zn6)n'
_symmetry_cell_setting           monoclinic
_symmetry_space_group_name_H-M   'C 2'
_symmetry_Int_Tables_number      5
_space_group_name_Hall           'C 2y'
loop_
_symmetry_equiv_pos_site_id
_symmetry_equiv_pos_as_xyz
1 x,y,z
2 -x,y,-z
3 1/2+x,1/2+y,z
4 1/2-x,1/2+y,-z
_cell_length_a                   34.3028(5)
_cell_length_b                   15.1781(2)
_cell_length_c                   29.4820(5)
_cell_angle_alpha                90
_cell_angle_beta                 100.9110(10)
_cell_angle_gamma                90
_cell_volume                     15072.4
loop_
_atom_site_label
_atom_site_type_symbol
_atom_site_fract_x
_atom_site_fract_y
_atom_site_fract_z
_atom_site_U_iso_or_equiv
_atom_site_thermal_displace_type
Br1 Br 0.29571(11) 0.0100(2) 0.68286(18) 0.1491 Uani
Br2 Br 0.20128(7) 0.49645(18) 0.81923(9) 0.1006 Uani
C73 C 0.2661(5) 0.2394(10) 0.7428(7) 0.0911 Uani
H49 H 0.2788 0.2951 0.7347 0.1090 Uiso
C74 C 0.2619(7) 0.1770(12) 0.7023(9) 0.0958 Uani
H50 H 0.2344 0.1759 0.6844 0.1150 Uiso
H51 H 0.2802 0.1937 0.6815 0.1150 Uiso
C75 C 0.2306(6) 0.261(2) 0.7572(9) 0.1413 Uani
H52 H 0.2154 0.2076 0.7635 0.1710 Uiso
O1 O 0.2065(6) 0.3197(13) 0.7179(7) 0.1392 Uani
C76 C 0.1905(6) 0.3892(14) 0.7359(10) 0.1104 Uani
H53 H 0.1656 0.3696 0.7459 0.1340 Uiso
C77 C 0.2196(6) 0.4130(14) 0.7768(7) 0.0879 Uani
H54 H 0.2421 0.4424 0.7655 0.1060 Uiso
C78 C 0.2356(6) 0.3315(17) 0.7993(8) 0.0968 Uani
H55 H 0.2203 0.3129 0.8229 0.1160 Uiso
H56 H 0.2638 0.3385 0.8140 0.1160 Uiso
C79 C 0.1800(7) 0.455(2) 0.6991(9) 0.1342 Uani
H57 H 0.1774 0.5125 0.7140 0.1620 Uiso
H58 H 0.1534 0.4394 0.6813 0.1620 Uiso
C80 C 0.2075(11) 0.467(3) 0.6651(13) 0.1702 Uani
H59 H 0.2237 0.4144 0.6647 0.2550 Uiso
H60 H 0.2247 0.5182 0.6744 0.2550 Uiso
H61 H 0.1917 0.4776 0.6342 0.2550 Uiso
O2 O 0.2944(5) 0.2014(12) 0.7776(9) 0.0794 Uani
C81 C 0.3081(11) 0.118(2) 0.7558(13) 0.0992 Uani
H62 H 0.3295 0.1331 0.7384 0.1190 Uiso
C82 C 0.2743(8) 0.0903(19) 0.7246(16) 0.0863 Uani
H63 H 0.2537 0.0626 0.7398 0.1020 Uiso
C83 C 0.3249(10) 0.0557(19) 0.7959(11) 0.0855 Uani
H64 H 0.3246 -0.0052 0.7838 0.1020 Uiso
H65 H 0.3530 0.0718 0.8076 0.1020 Uiso
C84 C 0.3063(14) 0.056(3) 0.8302(15) 0.1017 Uani
H66 H 0.2782 0.0577 0.8213 0.1210 Uiso
C85 C 0.3190(11) 0.056(2) 0.8748(15) 0.1061 Uani
H67 H 0.2987 0.0554 0.8927 0.1270 Uiso
C86 C 0.3641(10) 0.055(2) 0.9047(11) 0.0777 Uani
C87 C 0.385(2) 0.073(4) 0.9482(15) 0.1096 Uani
H68 H 0.3746 0.0886 0.9746 0.1320 Uiso
N25 N 0.4186(11) 0.066(2) 0.9464(10) 0.1091 Uani
N26 N 0.4271(9) 0.035(3) 0.9075(12) 0.1201 Uani
N27 N 0.3925(8) 0.030(2) 0.8799(10) 0.0975 Uani
C88 C 0.4532(13) 0.072(3) 0.9841(13) 0.1252 Uani
H69 H 0.4505 0.1252 1.0027 0.1500 Uiso
H70 H 0.4774 0.0789 0.9708 0.1500 Uiso
C89 C 0.4577(13) -0.009(3) 1.0157(15) 0.1404 Uani
O3 O 0.4314(12) -0.062(2) 1.0089(13) 0.1551 Uani
N28 N 0.4933(10) -0.013(2) 1.0448(10) 0.1212 Uani
H71 H 0.5110 0.0259 1.0397 0.1460 Uiso
C90 C 0.5060(8) -0.0725(15) 1.0833(8) 0.1070 Uani
C91 C 0.4853(8) -0.1491(19) 1.0892(11) 0.1284 Uani
H72 H 0.4606 -0.1609 1.0695 0.1540 Uiso
C92 C 0.5008(10) -0.2083(18) 1.1239(13) 0.1642 Uani
H73 H 0.4867 -0.2606 1.1280 0.1960 Uiso
C93 C 0.5370(10) -0.191(2) 1.1527(10) 0.1347 Uani
H74 H 0.5476 -0.2314 1.1765 0.1620 Uiso
C94 C 0.5577(8) -0.114(2) 1.1468(8) 0.1350 Uani
H75 H 0.5824 -0.1025 1.1665 0.1610 Uiso
C95 C 0.5422(8) -0.0551(16) 1.1121(8) 0.1223 Uani
H76 H 0.5563 -0.0028 1.1080 0.1460 Uiso
Br1A Br 0.70429(11) 0.0100(2) 1.31714(18) 0.1491 Uani
Br2A Br 0.79872(7) 0.49645(18) 1.18077(9) 0.1006 Uani
C73A C 0.7339(5) 0.2394(10) 1.2572(7) 0.0911 Uani
H49A H 0.7212 0.2951 1.2653 0.1090 Uiso
C74A C 0.7381(7) 0.1770(12) 1.2977(9) 0.0958 Uani
H50A H 0.7656 0.1759 1.3156 0.1150 Uiso
H51A H 0.7198 0.1937 1.3185 0.1150 Uiso
C75A C 0.7694(6) 0.261(2) 1.2428(9) 0.1413 Uani
H52A H 0.7846 0.2076 1.2365 0.1710 Uiso
O1A O 0.7935(6) 0.3197(13) 1.2821(7) 0.1392 Uani
C76A C 0.8095(6) 0.3892(14) 1.2641(10) 0.1104 Uani
H53A H 0.8344 0.3696 1.2541 0.1340 Uiso
C77A C 0.7804(6) 0.4130(14) 1.2232(7) 0.0879 Uani
H54A H 0.7579 0.4424 1.2345 0.1060 Uiso
C78A C 0.7644(6) 0.3315(17) 1.2007(8) 0.0968 Uani
H55A H 0.7797 0.3129 1.1771 0.1160 Uiso
H56A H 0.7362 0.3385 1.1860 0.1160 Uiso
C79A C 0.8200(7) 0.455(2) 1.3009(9) 0.1342 Uani
H57A H 0.8226 0.5125 1.2860 0.1620 Uiso
H58A H 0.8466 0.4394 1.3187 0.1620 Uiso
C80A C 0.7925(11) 0.467(3) 1.3349(13) 0.1702 Uani
H59A H 0.7763 0.4144 1.3353 0.2550 Uiso
H60A H 0.7753 0.5182 1.3256 0.2550 Uiso
H61A H 0.8083 0.4776 1.3658 0.2550 Uiso
O2A O 0.7056(5) 0.2014(12) 1.2224(9) 0.0794 Uani
C81A C 0.6919(11) 0.118(2) 1.2442(13) 0.0992 Uani
H62A H 0.6705 0.1331 1.2616 0.1190 Uiso
C82A C 0.7257(8) 0.0903(19) 1.2754(16) 0.0863 Uani
H63A H 0.7463 0.0626 1.2602 0.1020 Uiso
C83A C 0.6751(10) 0.0557(19) 1.2041(11) 0.0855 Uani
H64A H 0.6754 -0.0052 1.2162 0.1020 Uiso
H65A H 0.6470 0.0718 1.1924 0.1020 Uiso
C84A C 0.6937(14) 0.056(3) 1.1698(15) 0.1017 Uani
H66A H 0.7218 0.0577 1.1787 0.1210 Uiso
C85A C 0.6810(11) 0.056(2) 1.1252(15) 0.1061 Uani
H67A H 0.7013 0.0554 1.1073 0.1270 Uiso
C86A C 0.6359(10) 0.055(2) 1.0953(11) 0.0777 Uani
C87A C 0.615(2) 0.073(4) 1.0518(15) 0.1096 Uani
H68A H 0.6254 0.0886 1.0254 0.1320 Uiso
N25A N 0.5814(11) 0.066(2) 1.0536(10) 0.1091 Uani
N26A N 0.5729(9) 0.035(3) 1.0925(12) 0.1201 Uani
N27A N 0.6075(8) 0.030(2) 1.1201(10) 0.0975 Uani
C88A C 0.5468(13) 0.072(3) 1.0159(13) 0.1252 Uani
H69A H 0.5495 0.1252 0.9973 0.1500 Uiso
H70A H 0.5226 0.0789 1.0292 0.1500 Uiso
C89A C 0.5423(13) -0.009(3) 0.9843(15) 0.1404 Uani
O3A O 0.5686(12) -0.062(2) 0.9911(13) 0.1551 Uani
N28A N 0.5067(10) -0.013(2) 0.9552(10) 0.1212 Uani
H71A H 0.4890 0.0259 0.9603 0.1460 Uiso
C90A C 0.4940(8) -0.0725(15) 0.9167(8) 0.1070 Uani
C91A C 0.5147(8) -0.1491(19) 0.9108(11) 0.1284 Uani
H72A H 0.5394 -0.1609 0.9305 0.1540 Uiso
C92A C 0.4992(10) -0.2083(18) 0.8761(13) 0.1642 Uani
H73A H 0.5133 -0.2606 0.8720 0.1960 Uiso
C93A C 0.4630(10) -0.191(2) 0.8473(10) 0.1347 Uani
H74A H 0.4524 -0.2314 0.8235 0.1620 Uiso
C94A C 0.4423(8) -0.114(2) 0.8532(8) 0.1350 Uani
H75A H 0.4176 -0.1025 0.8335 0.1610 Uiso
C95A C 0.4578(8) -0.0551(16) 0.8879(8) 0.1223 Uani
H76A H 0.4437 -0.0028 0.8920 0.1460 Uiso
Zn1 Zn 0.82104(7) -0.13647(11) 0.97234(8) 0.0693 Uani
Zn2 Zn 0.63375(5) 0.58903(11) 0.78763(7) 0.0602 Uani
Zn3 Zn 0.41739(4) -0.12332(8) 0.65786(5) 0.0426 Uani
Zn4 Zn 0.32453(6) 0.63970(10) 0.47529(7) 0.0618 Uani
Zn5 Zn 0.13502(4) -0.08223(10) 0.28595(6) 0.0510 Uani
Zn6 Zn 0.41625(4) 1.12749(9) 0.15844(5) 0.0448 Uani
N1 N 0.8109(4) -0.0024(6) 0.9682(4) 0.0569 Uani
C1 C 0.8311(5) 0.0508(8) 1.0014(5) 0.0689 Uani
H1 H 0.8492 0.0248 1.0261 0.0830 Uiso
C2 C 0.8264(5) 0.1413(8) 1.0008(5) 0.0643 Uani
H2 H 0.8409 0.1766 1.0248 0.0770 Uiso
C3 C 0.8005(4) 0.1794(7) 0.9650(4) 0.0473 Uani
C4 C 0.7794(4) 0.1260(8) 0.9304(5) 0.0566 Uani
H3 H 0.7610 0.1505 0.9054 0.0680 Uiso
C5 C 0.7860(4) 0.0357(8) 0.9338(5) 0.0591 Uani
H4 H 0.7720 -0.0009 0.9101 0.0710 Uiso
N2 N 0.6743(3) 0.5280(7) 0.8383(4) 0.0558 Uani
C6 C 0.6958(4) 0.5727(8) 0.8750(5) 0.0653 Uani
H5 H 0.6906 0.6335 0.8788 0.0780 Uiso
C7 C 0.7248(4) 0.5313(8) 0.9063(5) 0.0600 Uani
H6 H 0.7405 0.5646 0.9303 0.0720 Uiso
C8 C 0.7315(3) 0.4428(7) 0.9035(4) 0.0468 Uani
C9 C 0.7085(4) 0.3976(7) 0.8672(4) 0.0565 Uani
H7 H 0.7117 0.3360 0.8637 0.0680 Uiso
C10 C 0.6809(4) 0.4436(8) 0.8363(4) 0.0605 Uani
H8 H 0.6654 0.4116 0.8116 0.0730 Uiso
N3 N 0.8761(2) 0.5514(5) 1.1131(3) 0.0408 Uani
C11 C 0.8469(3) 0.5887(7) 1.0841(4) 0.0495 Uani
H9 H 0.8413 0.6490 1.0887 0.0590 Uiso
C12 C 0.8240(3) 0.5446(7) 1.0474(4) 0.0481 Uani
H10 H 0.8034 0.5744 1.0271 0.0580 Uiso
C13 C 0.8317(3) 0.4562(6) 1.0406(3) 0.0378 Uani
C14 C 0.8601(4) 0.4168(7) 1.0733(5) 0.0723 Uani
H11 H 0.8644 0.3551 1.0724 0.0870 Uiso
C15 C 0.8825(4) 0.4677(8) 1.1077(5) 0.0792 Uani
H12 H 0.9036 0.4402 1.1284 0.0950 Uiso
C16 C 0.7944(3) 0.2768(6) 0.9650(3) 0.0402 Uani
N4 N 0.7670(3) 0.3108(6) 0.9330(3) 0.0415 Uani
C17 C 0.7612(3) 0.3978(7) 0.9380(4) 0.0459 Uani
N5 N 0.7802(2) 0.4487(5) 0.9722(3) 0.0402 Uani
C18 C 0.8091(3) 0.4054(6) 1.0015(3) 0.0392 Uani
N6 N 0.8180(3) 0.3198(5) 0.9993(3) 0.0401 Uani
N7 N 0.5836(3) 0.5150(6) 0.7893(4) 0.0485 Uani
C19 C 0.5681(5) 0.5117(11) 0.8275(5) 0.0742 Uani
H13 H 0.5795 0.5480 0.8528 0.0890 Uiso
C20 C 0.5368(5) 0.4594(12) 0.8323(6) 0.0797 Uani
H14 H 0.5259 0.4619 0.8596 0.0950 Uiso
C21 C 0.5212(3) 0.4023(6) 0.7966(4) 0.0425 Uani
C22 C 0.5363(3) 0.4057(7) 0.7576(4) 0.0481 Uani
H15 H 0.5254 0.3700 0.7319 0.0580 Uiso
C23 C 0.5674(3) 0.4609(8) 0.7554(5) 0.0539 Uani
H16 H 0.5781 0.4606 0.7279 0.0650 Uiso
N8 N 0.4389(2) -0.0245(6) 0.7044(3) 0.0396 Uani
C24 C 0.4196(3) -0.0098(7) 0.7392(4) 0.0492 Uani
H17 H 0.4007 -0.0520 0.7452 0.0590 Uiso
C25 C 0.4261(4) 0.0647(7) 0.7665(4) 0.0498 Uani
H18 H 0.4126 0.0730 0.7914 0.0600 Uiso
C26 C 0.4531(3) 0.1274(6) 0.7566(3) 0.0371 Uani
C27 C 0.4745(3) 0.1107(7) 0.7225(4) 0.0429 Uani
H19 H 0.4941 0.1509 0.7164 0.0510 Uiso
C28 C 0.4665(3) 0.0329(7) 0.6972(3) 0.0405 Uani
H20 H 0.4813 0.0204 0.6738 0.0490 Uiso
N9 N 0.3574(4) 0.3476(8) 0.9251(4) 0.0646 Uani
C29 C 0.3487(4) 0.2886(8) 0.8909(5) 0.0617 Uani
H21 H 0.3241 0.2579 0.8867 0.0740 Uiso
C30 C 0.3758(4) 0.2711(9) 0.8607(5) 0.0628 Uani
H22 H 0.3698 0.2286 0.8367 0.0750 Uiso
C31 C 0.4109(4) 0.3177(8) 0.8672(4) 0.0498 Uani
C32 C 0.4188(5) 0.3826(11) 0.9009(5) 0.0721 Uani
H23 H 0.4420 0.4178 0.9037 0.0860 Uiso
C33 C 0.3926(6) 0.3951(13) 0.9296(6) 0.0853 Uani
H24 H 0.3986 0.4377 0.9535 0.1020 Uiso
C34 C 0.4887(3) 0.3395(6) 0.8012(3) 0.0371 Uani
N10 N 0.4854(2) 0.2689(6) 0.7744(3) 0.0397 Uani
C35 C 0.4579(3) 0.2110(6) 0.7827(3) 0.0373 Uani
N11 N 0.4334(2) 0.2248(6) 0.8127(3) 0.0392 Uani
C36 C 0.4379(3) 0.3000(7) 0.8359(4) 0.0450 Uani
N12 N 0.4668(2) 0.3607(6) 0.8319(3) 0.0422 Uani
N13 N 0.3754(3) -0.0486(5) 0.6136(3) 0.0440 Uani
C37 C 0.3487(4) -0.0886(7) 0.5822(4) 0.0538 Uani
H25 H 0.3456 -0.1506 0.5844 0.0640 Uiso
C38 C 0.3250(4) -0.0436(7) 0.5460(4) 0.0518 Uani
H26 H 0.3058 -0.0740 0.5241 0.0620 Uiso
C39 C 0.3300(3) 0.0458(6) 0.5428(4) 0.0408 Uani
C40 C 0.3555(4) 0.0884(7) 0.5772(5) 0.0582 Uani
H27 H 0.3580 0.1507 0.5768 0.0700 Uiso
C41 C 0.3773(4) 0.0403(7) 0.6122(4) 0.0600 Uani
H28 H 0.3943 0.0704 0.6364 0.0720 Uiso
N14 N 0.3121(3) 0.5051(6) 0.4703(4) 0.0500 Uani
C42 C 0.3324(5) 0.4531(8) 0.5024(5) 0.0724 Uani
H29 H 0.3508 0.4789 0.5269 0.0870 Uiso
C43 C 0.3277(5) 0.3622(7) 0.5016(5) 0.0668 Uani
H30 H 0.3428 0.3265 0.5250 0.0800 Uiso
C44 C 0.3005(3) 0.3246(6) 0.4661(4) 0.0394 Uani
C45 C 0.2799(4) 0.3785(7) 0.4328(5) 0.0526 Uani
H31 H 0.2614 0.3542 0.4079 0.0630 Uiso
C46 C 0.2860(4) 0.4695(7) 0.4357(5) 0.0602 Uani
H32 H 0.2713 0.5067 0.4128 0.0720 Uiso
N15 N 0.1746(3) -0.0241(6) 0.3387(3) 0.0460 Uani
C47 C 0.1957(3) -0.0682(7) 0.3733(4) 0.0494 Uani
H33 H 0.1915 -0.1299 0.3751 0.0590 Uiso
C48 C 0.2235(3) -0.0292(7) 0.4071(4) 0.0490 Uani
H34 H 0.2381 -0.0628 0.4318 0.0590 Uiso
C49 C 0.2295(3) 0.0613(6) 0.4039(3) 0.0377 Uani
C50 C 0.2077(4) 0.1089(7) 0.3675(4) 0.0486 Uani
H35 H 0.2114 0.1706 0.3649 0.0580 Uiso
C51 C 0.1806(4) 0.0638(7) 0.3353(4) 0.0536 Uani
H36 H 0.1656 0.0951 0.3100 0.0640 Uiso
C52 C 0.3074(3) 0.0981(6) 0.5036(3) 0.0378 Uani
N16 N 0.3169(2) 0.1821(6) 0.5004(3) 0.0402 Uani
C53 C 0.2944(3) 0.2278(6) 0.4666(3) 0.0394 Uani
N17 N 0.2656(3) 0.1924(5) 0.4341(3) 0.0403 Uani
C54 C 0.2604(3) 0.1059(6) 0.4390(3) 0.0348 Uani
N18 N 0.2794(2) 0.0572(5) 0.4744(3) 0.0390 Uani
N19 N 0.3612(3) 0.6539(6) 0.4280(4) 0.0544 Uani
C55 C 0.3928(5) 0.6097(10) 0.4305(6) 0.0680 Uani
H37 H 0.3977 0.5639 0.4528 0.0820 Uiso
C56 C 0.4207(4) 0.6237(10) 0.4030(5) 0.0644 Uani
H38 H 0.4446 0.5906 0.4076 0.0770 Uiso
C57 C 0.4130(3) 0.6867(7) 0.3687(4) 0.0431 Uani
C58 C 0.3768(4) 0.7309(9) 0.3640(4) 0.0539 Uani
H39 H 0.3695 0.7733 0.3402 0.0650 Uiso
C59 C 0.3525(4) 0.7133(8) 0.3930(5) 0.0595 Uani
H40 H 0.3279 0.7436 0.3891 0.0710 Uiso
N20 N 0.4376(2) 1.0298(5) 0.2055(3) 0.0400 Uani
C60 C 0.4189(3) 1.0123(8) 0.2396(4) 0.0472 Uani
H41 H 0.3999 1.0536 0.2462 0.0570 Uiso
C61 C 0.4254(3) 0.9380(8) 0.2659(4) 0.0505 Uani
H42 H 0.4110 0.9282 0.2899 0.0610 Uiso
C62 C 0.4530(3) 0.8772(6) 0.2573(3) 0.0365 Uani
C63 C 0.4745(3) 0.8968(6) 0.2228(3) 0.0373 Uani
H43 H 0.4946 0.8582 0.2165 0.0450 Uiso
C64 C 0.4658(3) 0.9736(7) 0.1982(3) 0.0398 Uani
H44 H 0.4805 0.9874 0.1748 0.0480 Uiso
N21 N 0.5845(3) 0.4945(6) 0.2877(3) 0.0494 Uani
C65 C 0.5707(5) 0.4953(12) 0.3257(6) 0.0778 Uani
H45 H 0.5821 0.4568 0.3501 0.0930 Uiso
C66 C 0.5393(4) 0.5516(11) 0.3322(4) 0.0628 Uani
H46 H 0.5307 0.5546 0.3610 0.0750 Uiso
C67 C 0.5216(3) 0.6018(6) 0.2951(3) 0.0390 Uani
C68 C 0.5371(3) 0.6006(7) 0.2549(4) 0.0466 Uani
H47 H 0.5266 0.6381 0.2298 0.0560 Uiso
C69 C 0.5684(3) 0.5428(8) 0.2522(4) 0.0469 Uani
H48 H 0.5782 0.5386 0.2242 0.0560 Uiso
C70 C 0.4404(3) 0.7034(6) 0.3360(3) 0.0378 Uani
N22 N 0.4338(2) 0.7795(5) 0.3125(3) 0.0389 Uani
C71 C 0.4574(3) 0.7916(6) 0.2831(3) 0.0376 Uani
N23 N 0.4858(2) 0.7372(5) 0.2746(3) 0.0364 Uani
C72 C 0.4898(3) 0.6631(6) 0.3011(3) 0.0407 Uani
N24 N 0.4677(2) 0.6446(6) 0.3324(3) 0.0413 Uani
I1 I 0.3714(2) 0.6569(3) 0.5580(2) 0.0591 Uani
I2 I 0.2683(2) 0.7366(5) 0.4490(2) 0.0564 Uani
I3 I 0.4716(4) 1.1563(12) 0.1091(4) 0.0568 Uani
I4 I 0.3846(3) 1.2412(6) 0.1950(4) 0.0516 Uani
I5 I 0.4702(2) -0.1587(6) 0.6171(5) 0.0768 Uani
I6 I 0.3772(5) -0.2279(6) 0.6998(3) 0.0827 Uani
I7 I 0.1507(4) -0.0941(15) 0.2212(7) 0.1025 Uani
I8 I 0.1109(8) -0.2372(10) 0.3360(12) 0.1215 Uani
I9 I 0.65800(10) 0.5421(2) 0.71541(15) 0.0497 Uani
I10 I 0.62227(8) 0.7423(2) 0.81736(8) 0.0497 Uani
I11 I 0.8561(5) -0.1633(6) 1.0509(3) 0.0849 Uani
I12 I 0.7634(4) -0.2244(5) 0.9454(5) 0.0787 Uani
Zn1B Zn 0.32104(7) 0.36353(11) 0.97234(8) 0.0693 Uani
Zn5B Zn 0.63502(4) 0.41777(10) 0.28595(6) 0.0510 Uani
Zn6B Zn 0.91625(4) 0.62749(9) 1.15844(5) 0.0448 Uani
N3B N 0.3761(2) 1.0514(5) 0.1131(3) 0.0408 Uani
N9B N 0.8574(4) -0.1524(8) 0.9251(4) 0.0646 Uani
N21B N 0.0845(3) -0.0055(6) 0.2877(3) 0.0494 Uani
loop_
_atom_site_aniso_label
_atom_site_aniso_U_11
_atom_site_aniso_U_22
_atom_site_aniso_U_33
_atom_site_aniso_U_23
_atom_site_aniso_U_13
_atom_site_aniso_U_12
Br1 0.120(2) 0.0983(18) 0.241(4) -0.040(2) 0.065(2) 0.0023(15)
Br2 0.0955(12) 0.0908(14) 0.1196(15) -0.0272(12) 0.0306(11) -0.0081(10)
C73 0.087(10) 0.049(6) 0.126(13) -0.020(7) -0.009(8) 0.010(6)
C74 0.098(11) 0.058(8) 0.131(15) -0.011(9) 0.021(11) -0.016(8)
C75 0.076(11) 0.21(3) 0.130(16) 0.039(16) -0.001(10) -0.090(14)
O1 0.142(14) 0.112(12) 0.136(13) -0.030(10) -0.044(11) 0.054(11)
C76 0.075(10) 0.078(11) 0.16(2) -0.008(12) -0.024(11) -0.011(9)
C77 0.089(10) 0.087(11) 0.089(9) -0.030(8) 0.020(8) 0.018(8)
C78 0.067(9) 0.110(15) 0.113(13) -0.015(12) 0.016(9) -0.011(9)
C79 0.094(13) 0.20(3) 0.104(14) 0.017(17) 0.007(11) -0.052(17)
C80 0.19(3) 0.17(3) 0.18(3) 0.00(2) 0.11(3) -0.06(2)
O2 0.043(7) 0.048(8) 0.129(15) -0.013(9) -0.030(9) -0.011(6)
C81 0.066(15) 0.073(17) 0.16(2) 0.005(17) 0.025(16) 0.014(14)
C82 0.030(10) 0.061(14) 0.17(2) -0.008(15) 0.024(12) -0.026(10)
C83 0.093(19) 0.062(14) 0.095(19) -0.018(13) 0.001(15) 0.039(14)
C84 0.11(3) 0.068(16) 0.13(2) -0.001(17) 0.03(2) -0.025(17)
C85 0.10(2) 0.085(19) 0.14(3) -0.016(19) 0.04(2) -0.038(17)
C86 0.087(13) 0.051(13) 0.098(17) 0.011(14) 0.025(11) -0.004(11)
C87 0.15(2) 0.11(4) 0.077(14) 0.00(2) 0.042(18) -0.05(3)
N25 0.130(17) 0.10(2) 0.090(13) 0.003(13) 0.002(13) -0.054(18)
N26 0.081(12) 0.16(3) 0.12(2) -0.01(2) 0.021(12) -0.026(18)
N27 0.092(13) 0.105(19) 0.098(14) -0.024(14) 0.024(10) -0.035(14)
C88 0.15(3) 0.11(2) 0.11(2) 0.02(2) 0.01(2) -0.06(2)
C89 0.19(4) 0.11(3) 0.11(2) 0.03(2) 0.00(3) -0.08(3)
O3 0.21(4) 0.11(2) 0.14(3) -0.008(19) 0.02(3) -0.09(3)
N28 0.17(4) 0.11(2) 0.086(17) -0.004(16) 0.03(2) -0.05(2)
C90 0.14(2) 0.089(17) 0.10(2) -0.014(16) 0.043(15) 0.009(17)
C91 0.15(4) 0.10(2) 0.14(4) 0.01(2) 0.04(2) 0.01(2)
C92 0.14(4) 0.17(5) 0.19(6) 0.07(4) 0.05(3) 0.01(3)
C93 0.15(3) 0.16(3) 0.11(3) 0.04(3) 0.065(19) 0.04(3)
C94 0.17(3) 0.17(4) 0.074(18) 0.004(19) 0.046(17) 0.01(2)
C95 0.17(3) 0.12(2) 0.077(17) -0.021(14) 0.024(18) 0.00(2)
Br1A 0.12 0.0983 0.241 0.04 0.065 -0.0023
Br2A 0.0955 0.0908 0.1196 0.0272 0.0306 0.0081
C73A 0.087 0.049 0.126 0.02 -0.009 -0.01
C74A 0.098 0.058 0.131 0.011 0.021 0.016
C75A 0.076 0.21 0.13 -0.039 -0.001 0.09
O1A 0.142 0.112 0.136 0.03 -0.044 -0.054
C76A 0.075 0.078 0.16 0.008 -0.024 0.011
C77A 0.089 0.087 0.089 0.03 0.02 -0.018
C78A 0.067 0.11 0.113 0.015 0.016 0.011
C79A 0.094 0.2 0.104 -0.017 0.007 0.052
C80A 0.19 0.17 0.18 0 0.11 0.06
O2A 0.043 0.048 0.129 0.013 -0.03 0.011
C81A 0.066 0.073 0.16 -0.005 0.025 -0.014
C82A 0.03 0.061 0.17 0.008 0.024 0.026
C83A 0.093 0.062 0.095 0.018 0.001 -0.039
C84A 0.11 0.068 0.13 0.001 0.03 0.025
C85A 0.1 0.085 0.14 0.016 0.04 0.038
C86A 0.087 0.051 0.098 -0.011 0.025 0.004
C87A 0.15 0.11 0.077 0 0.042 0.05
N25A 0.13 0.1 0.09 -0.003 0.002 0.054
N26A 0.081 0.16 0.12 0.01 0.021 0.026
N27A 0.092 0.105 0.098 0.024 0.024 0.035
C88A 0.15 0.11 0.11 -0.02 0.01 0.06
C89A 0.19 0.11 0.11 -0.03 0 0.08
O3A 0.21 0.11 0.14 0.008 0.02 0.09
N28A 0.17 0.11 0.086 0.004 0.03 0.05
C90A 0.14 0.089 0.1 0.014 0.043 -0.009
C91A 0.15 0.1 0.14 -0.01 0.04 -0.01
C92A 0.14 0.17 0.19 -0.07 0.05 -0.01
C93A 0.15 0.16 0.11 -0.04 0.065 -0.04
C94A 0.17 0.17 0.074 -0.004 0.046 -0.01
C95A 0.17 0.12 0.077 0.021 0.024 0
Zn1 0.1080(14) 0.0282(7) 0.0857(12) -0.0040(7) 0.0542(11) -0.0005(8)
Zn2 0.0434(7) 0.0461(8) 0.0777(10) 0.0205(8) -0.0228(7) -0.0177(6)
Zn3 0.0497(7) 0.0246(6) 0.0446(6) -0.0023(5) -0.0141(5) 0.0022(5)
Zn4 0.0889(11) 0.0238(6) 0.0824(11) -0.0014(6) 0.0406(9) -0.0058(6)
Zn5 0.0411(7) 0.0381(7) 0.0635(8) -0.0148(6) -0.0165(6) 0.0144(6)
Zn6 0.0543(7) 0.0238(5) 0.0455(6) 0.0003(5) -0.0179(5) -0.0004(5)
N1 0.087(7) 0.029(4) 0.058(5) -0.008(4) 0.022(5) -0.001(4)
C1 0.103(10) 0.034(5) 0.061(7) 0.001(5) -0.007(7) 0.003(6)
C2 0.095(9) 0.033(6) 0.055(6) -0.001(5) -0.011(6) -0.007(6)
C3 0.059(6) 0.031(5) 0.048(5) -0.004(4) 0.000(4) 0.004(4)
C4 0.059(6) 0.036(5) 0.068(7) -0.011(5) -0.005(5) -0.004(5)
C5 0.071(7) 0.036(5) 0.069(7) -0.014(5) 0.010(6) -0.015(5)
N2 0.048(5) 0.037(5) 0.068(6) 0.013(4) -0.026(4) -0.017(4)
C6 0.056(6) 0.035(5) 0.086(8) -0.009(5) -0.035(6) -0.002(5)
C7 0.050(6) 0.040(6) 0.075(7) -0.003(5) -0.026(5) -0.002(5)
C8 0.046(5) 0.031(5) 0.056(5) 0.000(4) -0.009(4) -0.011(4)
C9 0.065(7) 0.029(5) 0.061(6) 0.008(4) -0.025(5) -0.012(4)
C10 0.076(8) 0.035(5) 0.055(6) 0.008(4) -0.027(5) -0.013(5)
N3 0.045(4) 0.029(4) 0.041(4) -0.003(3) -0.011(3) -0.001(3)
C11 0.054(5) 0.027(4) 0.059(6) -0.010(4) -0.011(4) 0.004(4)
C12 0.042(5) 0.032(5) 0.061(6) -0.001(4) -0.014(4) 0.008(4)
C13 0.044(4) 0.020(4) 0.043(4) 0.002(3) -0.008(3) -0.003(3)
C14 0.091(8) 0.022(4) 0.078(7) -0.007(5) -0.050(7) 0.010(5)
C15 0.087(8) 0.029(5) 0.091(9) -0.005(5) -0.061(8) 0.009(5)
C16 0.047(5) 0.027(4) 0.044(4) -0.003(4) 0.002(4) 0.001(4)
N4 0.048(4) 0.028(4) 0.044(4) -0.004(3) -0.003(3) -0.008(3)
C17 0.046(5) 0.034(5) 0.054(5) -0.007(4) 0.000(4) -0.009(4)
N5 0.041(4) 0.028(4) 0.044(4) 0.003(3) -0.011(3) -0.007(3)
C18 0.041(4) 0.026(4) 0.044(4) 0.003(3) -0.009(3) -0.003(3)
N6 0.043(4) 0.020(3) 0.053(4) 0.001(3) -0.002(3) 0.002(3)
N7 0.036(4) 0.038(4) 0.063(5) 0.007(4) -0.012(4) -0.015(3)
C19 0.080(8) 0.069(9) 0.065(7) -0.020(6) -0.008(6) -0.047(7)
C20 0.092(10) 0.073(9) 0.076(8) -0.029(7) 0.021(7) -0.052(8)
C21 0.037(4) 0.027(4) 0.055(5) -0.002(4) -0.013(4) -0.006(3)
C22 0.053(6) 0.035(5) 0.052(5) -0.002(4) -0.001(4) -0.022(4)
C23 0.042(5) 0.044(6) 0.073(7) 0.010(5) 0.004(5) -0.017(4)
N8 0.041(4) 0.033(4) 0.038(4) -0.005(3) -0.010(3) -0.003(3)
C24 0.052(6) 0.032(5) 0.063(6) -0.007(4) 0.009(5) -0.011(4)
C25 0.062(6) 0.036(5) 0.055(6) -0.009(4) 0.020(5) -0.013(5)
C26 0.035(4) 0.032(4) 0.037(4) 0.005(3) -0.012(3) -0.005(3)
C27 0.033(4) 0.038(5) 0.050(5) -0.001(4) -0.012(4) -0.006(4)
C28 0.039(4) 0.035(5) 0.043(4) 0.000(4) -0.004(4) -0.001(4)
N9 0.090(7) 0.041(5) 0.068(6) -0.016(5) 0.028(5) -0.017(5)
C29 0.077(8) 0.036(5) 0.077(7) -0.014(5) 0.027(6) -0.017(5)
C30 0.068(7) 0.040(5) 0.085(8) -0.021(6) 0.026(6) -0.013(5)
C31 0.056(6) 0.040(5) 0.052(5) -0.004(4) 0.007(4) 0.000(4)
C32 0.077(9) 0.071(9) 0.068(7) -0.014(7) 0.013(6) -0.034(7)
C33 0.108(12) 0.086(11) 0.068(8) -0.042(8) 0.032(8) -0.034(10)
C34 0.032(4) 0.037(5) 0.037(4) -0.002(3) -0.007(3) -0.014(3)
N10 0.038(4) 0.034(4) 0.043(4) 0.000(3) -0.003(3) -0.009(3)
C35 0.041(4) 0.029(4) 0.036(4) -0.002(3) -0.008(3) -0.007(3)
N11 0.037(4) 0.036(4) 0.041(4) -0.002(3) -0.002(3) -0.004(3)
C36 0.041(5) 0.037(5) 0.050(5) 0.000(4) -0.009(4) -0.014(4)
N12 0.041(4) 0.033(4) 0.049(4) -0.003(3) -0.001(3) -0.002(3)
N13 0.046(4) 0.024(4) 0.054(5) -0.003(3) -0.011(4) 0.001(3)
C37 0.063(6) 0.024(4) 0.060(6) -0.003(4) -0.025(5) -0.007(4)
C38 0.061(6) 0.026(4) 0.057(6) 0.005(4) -0.018(5) -0.002(4)
C39 0.039(4) 0.028(4) 0.050(5) -0.001(4) -0.005(4) 0.004(3)
C40 0.071(7) 0.023(4) 0.069(6) -0.001(4) -0.016(5) 0.001(4)
C41 0.080(7) 0.025(4) 0.060(6) -0.003(4) -0.025(5) -0.004(4)
N14 0.064(5) 0.021(3) 0.066(5) -0.001(4) 0.015(4) -0.003(3)
C42 0.119(12) 0.024(5) 0.063(7) 0.002(5) -0.011(7) -0.024(6)
C43 0.104(10) 0.024(5) 0.058(6) 0.006(4) -0.021(6) -0.015(5)
C44 0.045(5) 0.020(4) 0.053(5) 0.000(3) 0.009(4) 0.003(3)
C45 0.061(6) 0.026(5) 0.066(6) 0.003(4) 0.000(5) -0.002(4)
C46 0.069(7) 0.024(5) 0.082(8) 0.008(5) 0.000(6) -0.001(4)
N15 0.045(4) 0.028(4) 0.056(5) -0.009(3) -0.013(3) 0.010(3)
C47 0.049(5) 0.033(5) 0.059(6) -0.009(4) -0.008(4) 0.001(4)
C48 0.053(5) 0.024(4) 0.060(6) 0.009(4) -0.015(4) 0.001(4)
C49 0.036(4) 0.029(4) 0.042(4) -0.004(3) -0.008(3) 0.002(3)
C50 0.062(6) 0.028(4) 0.049(5) 0.000(4) -0.007(4) 0.016(4)
C51 0.059(6) 0.033(5) 0.057(6) -0.003(4) -0.019(5) 0.019(4)
C52 0.039(4) 0.022(4) 0.048(5) -0.003(3) -0.003(3) 0.007(3)
N16 0.039(4) 0.031(4) 0.045(4) 0.000(3) -0.006(3) 0.003(3)
C53 0.044(5) 0.024(4) 0.046(4) -0.001(4) -0.002(4) 0.006(4)
N17 0.043(4) 0.023(3) 0.049(4) -0.001(3) -0.006(3) 0.002(3)
C54 0.040(4) 0.020(4) 0.039(4) -0.004(3) -0.006(3) 0.005(3)
N18 0.040(4) 0.025(3) 0.046(4) 0.000(3) -0.007(3) 0.003(3)
N19 0.070(6) 0.032(4) 0.068(5) 0.002(4) 0.030(4) -0.002(4)
C55 0.076(8) 0.053(7) 0.079(8) 0.020(6) 0.025(7) 0.020(6)
C56 0.065(7) 0.063(7) 0.068(7) 0.035(6) 0.020(6) 0.014(6)
C57 0.046(5) 0.031(4) 0.051(5) 0.005(4) 0.006(4) 0.005(4)
C58 0.058(6) 0.049(6) 0.056(5) 0.014(5) 0.014(5) 0.017(5)
C59 0.066(7) 0.044(6) 0.075(7) 0.012(5) 0.030(6) 0.012(5)
N20 0.041(4) 0.029(4) 0.043(4) 0.003(3) -0.010(3) 0.003(3)
C60 0.046(5) 0.040(5) 0.052(5) 0.005(4) 0.000(4) 0.016(4)
C61 0.041(5) 0.047(6) 0.062(6) 0.008(5) 0.006(4) 0.019(4)
C62 0.035(4) 0.030(4) 0.041(4) 0.005(3) -0.002(3) 0.007(3)
C63 0.036(4) 0.029(4) 0.044(4) 0.002(3) 0.000(3) 0.003(3)
C64 0.037(4) 0.039(5) 0.038(4) 0.006(4) -0.007(3) -0.001(4)
N21 0.045(4) 0.037(4) 0.058(5) -0.003(4) -0.011(4) 0.015(3)
C65 0.074(8) 0.076(10) 0.080(9) 0.024(8) 0.006(7) 0.044(8)
C66 0.058(6) 0.077(8) 0.049(5) 0.014(6) -0.001(5) 0.030(6)
C67 0.033(4) 0.029(4) 0.050(5) -0.001(4) -0.005(3) 0.002(3)
C68 0.043(5) 0.038(5) 0.052(5) 0.002(4) -0.008(4) 0.003(4)
C69 0.046(5) 0.042(5) 0.046(5) -0.004(4) -0.008(4) 0.013(4)
C70 0.038(4) 0.032(4) 0.041(4) 0.006(3) 0.001(3) -0.003(3)
N22 0.042(4) 0.029(4) 0.041(4) 0.001(3) -0.004(3) 0.008(3)
C71 0.030(4) 0.034(4) 0.044(4) -0.002(3) -0.005(3) 0.003(3)
N23 0.036(3) 0.030(3) 0.038(3) 0.004(3) -0.006(3) 0.007(3)
C72 0.043(5) 0.028(4) 0.044(4) 0.002(4) -0.010(4) -0.004(3)
N24 0.038(4) 0.030(4) 0.051(4) 0.004(3) -0.004(3) 0.007(3)
I1 0.099(3) 0.0199(15) 0.0529(16) -0.0038(10) 0.000(2) -0.0051(13)
I2 0.064(2) 0.0292(14) 0.085(3) 0.0129(11) 0.0369(18) 0.0057(13)
I3 0.065(3) 0.065(5) 0.039(2) 0.002(2) 0.006(2) -0.017(2)
I4 0.049(3) 0.0213(16) 0.081(4) -0.0055(16) 0.0031(17) -0.0013(17)
I5 0.090(3) 0.083(3) 0.046(4) -0.013(2) -0.0159(19) 0.050(3)
I6 0.105(5) 0.029(2) 0.098(4) 0.0021(17) -0.022(3) -0.032(3)
I7 0.077(6) 0.085(11) 0.128(9) -0.041(8) -0.025(5) 0.000(6)
I8 0.122(13) 0.022(4) 0.182(17) 0.005(8) -0.069(11) -0.018(6)
I9 0.0436(14) 0.0442(18) 0.0561(13) 0.0146(10) -0.0037(8) -0.0171(8)
I10 0.0481(15) 0.0343(14) 0.0617(19) 0.0028(9) -0.0020(13) -0.0057(9)
I11 0.136(5) 0.0595(16) 0.075(3) 0.0359(16) 0.060(3) 0.061(3)
I12 0.086(4) 0.0398(15) 0.124(4) -0.0331(16) 0.055(3) -0.0213(19)
Zn1B 0.108 0.0282 0.0857 -0.004 0.0542 -0.0005
Zn5B 0.0411 0.0381 0.0635 -0.0148 -0.0165 0.0144
Zn6B 0.0543 0.0238 0.0455 0.0003 -0.0179 -0.0004
N3B 0.045 0.029 0.041 -0.003 -0.011 -0.001
N9B 0.09 0.041 0.068 -0.016 0.028 -0.017
N21B 0.045 0.037 0.058 -0.003 -0.011 0.015
loop_
_geom_bond_atom_site_label_1
_geom_bond_atom_site_label_2
_geom_bond_site_symmetry_1
_geom_bond_site_symmetry_2
Zn1 N1 1_555 1_555
Zn2 N2 1_555 1_555
Zn3 N8 1_555 1_555
Zn4 N14 1_555 1_555
Zn5 N15 1_555 1_555
Zn6 N20 1_555 1_555
N1 C1 1_555 1_555
C1 H1 1_555 1_555
C2 C1 1_555 1_555
H2 C2 1_555 1_555
C3 C2 1_555 1_555
C4 C3 1_555 1_555
H3 C4 1_555 1_555
C5 N1 1_555 1_555
H4 C5 1_555 1_555
N2 C6 1_555 1_555
C6 H5 1_555 1_555
C7 C6 1_555 1_555
H6 C7 1_555 1_555
C8 C7 1_555 1_555
C9 C8 1_555 1_555
H7 C9 1_555 1_555
C10 N2 1_555 1_555
H8 C10 1_555 1_555
N3 C11 1_555 1_555
C11 H9 1_555 1_555
C12 C11 1_555 1_555
H10 C12 1_555 1_555
C13 C12 1_555 1_555
C14 C13 1_555 1_555
H11 C14 1_555 1_555
C15 N3 1_555 1_555
H12 C15 1_555 1_555
C16 C3 1_555 1_555
N4 C16 1_555 1_555
C17 C8 1_555 1_555
N5 C17 1_555 1_555
C18 C13 1_555 1_555
N6 C16 1_555 1_555
N7 Zn2 1_555 1_555
C19 N7 1_555 1_555
H13 C19 1_555 1_555
C20 C19 1_555 1_555
H14 C20 1_555 1_555
C21 C20 1_555 1_555
C22 C21 1_555 1_555
H15 C22 1_555 1_555
C23 N7 1_555 1_555
H16 C23 1_555 1_555
N8 C24 1_555 1_555
C24 H17 1_555 1_555
C25 C24 1_555 1_555
H18 C25 1_555 1_555
C26 C25 1_555 1_555
C27 C26 1_555 1_555
H19 C27 1_555 1_555
C28 N8 1_555 1_555
H20 C28 1_555 1_555
N9 C29 1_555 1_555
C29 H21 1_555 1_555
C30 C29 1_555 1_555
H22 C30 1_555 1_555
C31 C30 1_555 1_555
C32 C31 1_555 1_555
H23 C32 1_555 1_555
C33 N9 1_555 1_555
H24 C33 1_555 1_555
C34 C21 1_555 1_555
N10 C34 1_555 1_555
C35 C26 1_555 1_555
N11 C35 1_555 1_555
C36 C31 1_555 1_555
N12 C34 1_555 1_555
N13 Zn3 1_555 1_555
C37 N13 1_555 1_555
H25 C37 1_555 1_555
C38 C37 1_555 1_555
H26 C38 1_555 1_555
C39 C38 1_555 1_555
C40 C39 1_555 1_555
H27 C40 1_555 1_555
C41 N13 1_555 1_555
H28 C41 1_555 1_555
N14 C42 1_555 1_555
C42 H29 1_555 1_555
C43 C42 1_555 1_555
H30 C43 1_555 1_555
C44 C43 1_555 1_555
C45 C44 1_555 1_555
H31 C45 1_555 1_555
C46 N14 1_555 1_555
H32 C46 1_555 1_555
N15 C47 1_555 1_555
C47 H33 1_555 1_555
C48 C47 1_555 1_555
H34 C48 1_555 1_555
C49 C48 1_555 1_555
C50 C49 1_555 1_555
H35 C50 1_555 1_555
C51 N15 1_555 1_555
H36 C51 1_555 1_555
C52 C39 1_555 1_555
N16 C52 1_555 1_555
C53 C44 1_555 1_555
N17 C53 1_555 1_555
C54 C49 1_555 1_555
N18 C52 1_555 1_555
N19 Zn4 1_555 1_555
C55 N19 1_555 1_555
H37 C55 1_555 1_555
C56 C55 1_555 1_555
H38 C56 1_555 1_555
C57 C56 1_555 1_555
C58 C57 1_555 1_555
H39 C58 1_555 1_555
C59 N19 1_555 1_555
H40 C59 1_555 1_555
N20 C60 1_555 1_555
C60 H41 1_555 1_555
C61 C60 1_555 1_555
H42 C61 1_555 1_555
C62 C61 1_555 1_555
C63 C62 1_555 1_555
H43 C63 1_555 1_555
C64 N20 1_555 1_555
H44 C64 1_555 1_555
N21 C65 1_555 1_555
C65 H45 1_555 1_555
C66 C65 1_555 1_555
H46 C66 1_555 1_555
C67 C66 1_555 1_555
C68 C67 1_555 1_555
H47 C68 1_555 1_555
C69 N21 1_555 1_555
H48 C69 1_555 1_555
C70 C57 1_555 1_555
N22 C70 1_555 1_555
C71 C62 1_555 1_555
N23 C71 1_555 1_555
C72 C67 1_555 1_555
N24 C70 1_555 1_555
I1 Zn4 1_555 1_555
I2 Zn4 1_555 1_555
I3 Zn6 1_555 1_555
I4 Zn6 1_555 1_555
I5 Zn3 1_555 1_555
I6 Zn3 1_555 1_555
I7 Zn5 1_555 1_555
I8 Zn5 1_555 1_555
I9 Zn2 1_555 1_555
I10 Zn2 1_555 1_555
I11 Zn1 1_555 1_555
I12 Zn1 1_555 1_555
Br1 C82 1_555 1_555
Br2 C77 1_555 1_555
C73 H49 1_555 1_555
C74 C73 1_555 1_555
H50 C74 1_555 1_555
H51 C74 1_555 1_555
C75 C73 1_555 1_555
H52 C75 1_555 1_555
O1 C75 1_555 1_555
C76 O1 1_555 1_555
H53 C76 1_555 1_555
C77 C76 1_555 1_555
H54 C77 1_555 1_555
C78 C75 1_555 1_555
H55 C78 1_555 1_555
H56 C78 1_555 1_555
C79 C76 1_555 1_555
H57 C79 1_555 1_555
H58 C79 1_555 1_555
C80 C79 1_555 1_555
H59 C80 1_555 1_555
H60 C80 1_555 1_555
H61 C80 1_555 1_555
O2 C73 1_555 1_555
C81 O2 1_555 1_555
H62 C81 1_555 1_555
C82 C74 1_555 1_555
H63 C82 1_555 1_555
C83 C81 1_555 1_555
H64 C83 1_555 1_555
H65 C83 1_555 1_555
C84 C83 1_555 1_555
H66 C84 1_555 1_555
C85 C84 1_555 1_555
H67 C85 1_555 1_555
C86 C85 1_555 1_555
C87 C86 1_555 1_555
H68 C87 1_555 1_555
N25 C87 1_555 1_555
N26 N25 1_555 1_555
N27 C86 1_555 1_555
C88 N25 1_555 1_555
H69 C88 1_555 1_555
H70 C88 1_555 1_555
C89 C88 1_555 1_555
O3 C89 1_555 1_555
N28 C89 1_555 1_555
H71 N28 1_555 1_555
C90 N28 1_555 1_555
C91 C90 1_555 1_555
H72 C91 1_555 1_555
C92 C91 1_555 1_555
H73 C92 1_555 1_555
C93 C92 1_555 1_555
H74 C93 1_555 1_555
C94 C93 1_555 1_555
H75 C94 1_555 1_555
C95 C90 1_555 1_555
H76 C95 1_555 1_555
Zn1B N9 1_555 1_555
Zn5B N21 1_555 1_555
Zn6B N3 1_555 1_555
N3B Zn6 1_555 1_555
N9B Zn1 1_555 1_555
N21B Zn5 1_555 1_555
Br1A C82A 1_555 1_555
Br2A C77A 1_555 1_555
C73A H49A 1_555 1_555
C74A C73A 1_555 1_555
H50A C74A 1_555 1_555
H51A C74A 1_555 1_555
C75A C73A 1_555 1_555
H52A C75A 1_555 1_555
O1A C75A 1_555 1_555
C76A O1A 1_555 1_555
H53A C76A 1_555 1_555
C77A C76A 1_555 1_555
H54A C77A 1_555 1_555
C78A C75A 1_555 1_555
H55A C78A 1_555 1_555
H56A C78A 1_555 1_555
C79A C76A 1_555 1_555
H57A C79A 1_555 1_555
H58A C79A 1_555 1_555
C80A C79A 1_555 1_555
H59A C80A 1_555 1_555
H60A C80A 1_555 1_555
H61A C80A 1_555 1_555
O2A C73A 1_555 1_555
C81A O2A 1_555 1_555
H62A C81A 1_555 1_555
C82A C74A 1_555 1_555
H63A C82A 1_555 1_555
C83A C81A 1_555 1_555
H64A C83A 1_555 1_555
H65A C83A 1_555 1_555
C84A C83A 1_555 1_555
H66A C84A 1_555 1_555
C85A C84A 1_555 1_555
H67A C85A 1_555 1_555
C86A C85A 1_555 1_555
C87A C86A 1_555 1_555
H68A C87A 1_555 1_555
N25A C87A 1_555 1_555
N26A H76 1_555 1_555
N27A C86A 1_555 1_555
C88A N25A 1_555 1_555
H69A C88A 1_555 1_555
H70A C88A 1_555 1_555
C89A C88A 1_555 1_555
O3A C89A 1_555 1_555
N28A C89A 1_555 1_555
H71A N28A 1_555 1_555
C90A N28A 1_555 1_555
C91A C90A 1_555 1_555
H72A C91A 1_555 1_555
C92A C91A 1_555 1_555
H73A C92A 1_555 1_555
C93A C92A 1_555 1_555
H74A C93A 1_555 1_555
C94A C93A 1_555 1_555
H75A C94A 1_555 1_555
C95A C90A 1_555 1_555
H76A N26 1_555 1_555
C4 C5 1_555 1_555
C9 C10 1_555 1_555
C14 C15 1_555 1_555
N4 C17 1_555 1_555
N5 C18 1_555 1_555
C18 N6 1_555 1_555
C22 C23 1_555 1_555
C27 C28 1_555 1_555
C32 C33 1_555 1_555
N10 C35 1_555 1_555
N11 C36 1_555 1_555
C36 N12 1_555 1_555
C40 C41 1_555 1_555
C45 C46 1_555 1_555
C50 C51 1_555 1_555
N16 C53 1_555 1_555
N17 C54 1_555 1_555
C54 N18 1_555 1_555
C58 C59 1_555 1_555
C63 C64 1_555 1_555
C68 C69 1_555 1_555
N22 C71 1_555 1_555
N23 C72 1_555 1_555
C72 N24 1_555 1_555
C77 C78 1_555 1_555
C81 C82 1_555 1_555
N26 N27 1_555 1_555
C94 C95 1_555 1_555
C77A C78A 1_555 1_555
C81A C82A 1_555 1_555
N25A N26A 1_555 1_555
N26A N27A 1_555 1_555
C94A C95A 1_555 1_555
C95A H76A 1_555 1_555

#END
