
#######################################################################
#
#                 Cambridge Crystallographic Data Centre
#                                CCDC 
#
#######################################################################
#
# If this CIF has been generated from an entry in the Cambridge 
# Structural Database, then it will include bibliographic, chemical, 
# crystal, experimental, refinement or atomic coordinate data resulting 
# from the CCDC's data processing and validation procedures.
#
#######################################################################

data_KACGAZ
_chemical_formula_moiety         '(C117 H128 Br2 I12 N24 O2 Zn6)n'
_symmetry_cell_setting           monoclinic
_symmetry_space_group_name_H-M   'C 2'
_symmetry_Int_Tables_number      5
_space_group_name_Hall           'C 2y'
loop_
_symmetry_equiv_pos_site_id
_symmetry_equiv_pos_as_xyz
1 x,y,z
2 -x,y,-z
3 1/2+x,1/2+y,z
4 1/2-x,1/2+y,-z
_cell_length_a                   34.6788(6)
_cell_length_b                   15.0282(2)
_cell_length_c                   31.1707(9)
_cell_angle_alpha                90
_cell_angle_beta                 101.973(2)
_cell_angle_gamma                90
_cell_volume                     15891.5
loop_
_atom_site_label
_atom_site_type_symbol
_atom_site_fract_x
_atom_site_fract_y
_atom_site_fract_z
_atom_site_U_iso_or_equiv
_atom_site_thermal_displace_type
Zn1 Zn 0.37357(5) -0.09359(14) 0.69371(8) 0.0680 Uani
Zn2 Zn 0.58301(7) 0.61187(13) 0.84442(7) 0.0737 Uani
Zn3 Zn 0.08206(6) -0.12497(13) 0.34502(7) 0.0719 Uani
Zn4 Zn 0.17702(10) 0.34923(15) 0.02532(12) 0.0937 Uani
Zn5 Zn 0.37367(6) 1.07842(16) 0.19489(9) 0.0796 Uani
N1 N 0.6410(4) 0.1544(8) 0.5703(5) 0.0715 Uani
C1 C 0.6064(6) 0.1228(14) 0.5651(8) 0.0948 Uani
H1 H 0.5963 0.0905 0.5390 0.1140 Uiso
C2 C 0.5829(6) 0.1327(17) 0.5948(8) 0.1005 Uani
H2 H 0.5581 0.1031 0.5904 0.1210 Uiso
C3 C 0.5946(4) 0.1838(9) 0.6302(5) 0.0600 Uani
C4 C 0.6310(5) 0.2231(12) 0.6346(6) 0.0748 Uani
H3 H 0.6409 0.2603 0.6591 0.0900 Uiso
C5 C 0.6520(5) 0.2084(14) 0.6046(6) 0.0782 Uani
H4 H 0.6765 0.2384 0.6076 0.0940 Uiso
N2 N 0.4215(3) -0.0113(8) 0.6950(4) 0.0612 Uani
C6 C 0.4378(4) 0.0376(9) 0.7302(6) 0.0627 Uani
H5 H 0.4267 0.0340 0.7555 0.0750 Uiso
C7 C 0.4693(4) 0.0921(10) 0.7314(5) 0.0618 Uani
H6 H 0.4805 0.1247 0.7571 0.0740 Uiso
C8 C 0.4846(3) 0.0983(7) 0.6936(4) 0.0492 Uani
C9 C 0.4670(5) 0.0511(15) 0.6576(6) 0.0873 Uani
H7 H 0.4760 0.0581 0.6310 0.1050 Uiso
C10 C 0.4371(6) -0.005(2) 0.6591(7) 0.1143 Uani
H8 H 0.4269 -0.0414 0.6344 0.1380 Uiso
N3 N 0.5702(3) 0.5115(8) 0.7990(4) 0.0619 Uani
C11 C 0.5965(5) 0.4869(12) 0.7755(6) 0.0763 Uani
H9 H 0.6194 0.5226 0.7774 0.0920 Uiso
C12 C 0.5927(4) 0.4135(10) 0.7486(6) 0.0707 Uani
H10 H 0.6124 0.3988 0.7328 0.0850 Uiso
C13 C 0.5598(3) 0.3625(9) 0.7455(4) 0.0527 Uani
C14 C 0.5320(3) 0.3853(9) 0.7698(4) 0.0538 Uani
H11 H 0.5090 0.3501 0.7684 0.0640 Uiso
C15 C 0.5383(3) 0.4590(9) 0.7958(5) 0.0573 Uani
H12 H 0.5192 0.4741 0.8125 0.0680 Uiso
C16 C 0.5696(4) 0.1991(9) 0.6619(5) 0.0562 Uani
N4 N 0.5393(3) 0.1430(7) 0.6621(4) 0.0527 Uani
C17 C 0.5184(3) 0.1591(8) 0.6919(5) 0.0550 Uani
N5 N 0.5244(2) 0.2256(7) 0.7211(3) 0.0473 Uani
C18 C 0.5545(3) 0.2800(8) 0.7169(4) 0.0485 Uani
N6 N 0.5779(2) 0.2714(7) 0.6894(4) 0.0495 Uani
N7 N 0.3301(3) -0.0312(7) 0.6485(4) 0.0580 Uani
C19 C 0.3218(4) 0.0530(9) 0.6547(5) 0.0688 Uani
H13 H 0.3358 0.0826 0.6801 0.0820 Uiso
C20 C 0.2932(4) 0.1002(8) 0.6254(5) 0.0648 Uani
H14 H 0.2883 0.1613 0.6301 0.0780 Uiso
C21 C 0.2718(3) 0.0545(8) 0.5884(4) 0.0507 Uani
C22 C 0.2807(4) -0.0344(8) 0.5831(5) 0.0642 Uani
H15 H 0.2663 -0.0677 0.5591 0.0770 Uiso
C23 C 0.3104(4) -0.0735(9) 0.6130(6) 0.0699 Uani
H16 H 0.3173 -0.1334 0.6083 0.0830 Uiso
N8 N 0.1218(4) -0.0550(7) 0.3929(5) 0.0687 Uani
C24 C 0.1174(6) 0.0308(10) 0.3968(7) 0.0953 Uani
H17 H 0.0983 0.0602 0.3753 0.1140 Uiso
C25 C 0.1391(5) 0.0809(11) 0.4303(7) 0.0938 Uani
H18 H 0.1345 0.1430 0.4321 0.1120 Uiso
C26 C 0.1676(3) 0.0384(7) 0.4613(4) 0.0515 Uani
C27 C 0.1727(4) -0.0514(9) 0.4552(5) 0.0661 Uani
H19 H 0.1925 -0.0835 0.4747 0.0790 Uiso
C28 C 0.1493(5) -0.0933(9) 0.4213(5) 0.0675 Uani
H20 H 0.1533 -0.1552 0.4180 0.0810 Uiso
N9 N 0.1860(4) 0.5038(8) 0.5267(5) 0.0648 Uani
C29 C 0.2156(5) 0.4695(10) 0.5545(6) 0.0770 Uani
H21 H 0.2325 0.5082 0.5740 0.0920 Uiso
C30 C 0.2237(5) 0.3761(9) 0.5571(6) 0.0703 Uani
H22 H 0.2466 0.3541 0.5763 0.0840 Uiso
C31 C 0.1986(4) 0.3202(7) 0.5319(5) 0.0554 Uani
C32 C 0.1676(5) 0.3557(10) 0.5020(6) 0.0779 Uani
H23 H 0.1495 0.3182 0.4832 0.0940 Uiso
C33 C 0.1634(7) 0.4484(10) 0.5000(7) 0.0887 Uani
H24 H 0.1430 0.4727 0.4781 0.1060 Uiso
C34 C 0.2407(3) 0.1000(7) 0.5566(4) 0.0471 Uani
N10 N 0.2197(3) 0.0512(6) 0.5242(4) 0.0505 Uani
C35 C 0.1914(3) 0.0901(8) 0.4968(5) 0.0516 Uani
N11 N 0.1826(3) 0.1759(6) 0.4998(4) 0.0516 Uani
C36 C 0.2057(3) 0.2211(7) 0.5317(5) 0.0503 Uani
N12 N 0.2338(3) 0.1863(6) 0.5618(4) 0.0509 Uani
N13 N 0.0699(4) -0.0209(8) 0.2993(4) 0.0656 Uani
C37 C 0.0959(5) -0.0020(11) 0.2758(7) 0.0818 Uani
H25 H 0.1184 -0.0392 0.2785 0.0980 Uiso
C38 C 0.0921(5) 0.0711(12) 0.2467(7) 0.0794 Uani
H26 H 0.1110 0.0826 0.2292 0.0950 Uiso
C39 C 0.0587(3) 0.1259(8) 0.2450(4) 0.0538 Uani
C40 C 0.0309(3) 0.1043(9) 0.2697(5) 0.0610 Uani
H27 H 0.0080 0.1397 0.2685 0.0730 Uiso
C41 C 0.0378(5) 0.0291(10) 0.2962(5) 0.0709 Uani
H28 H 0.0189 0.0128 0.3129 0.0850 Uiso
N14 N 0.1441(5) 0.3299(10) 0.0716(6) 0.0805 Uani
C42 C 0.1124(9) 0.3824(16) 0.0697(10) 0.1139 Uani
H29 H 0.1077 0.4303 0.0494 0.1390 Uiso
C43 C 0.0855(7) 0.3662(17) 0.0985(9) 0.1048 Uani
H30 H 0.0619 0.3998 0.0955 0.1260 Uiso
C44 C 0.0946(4) 0.3003(10) 0.1310(6) 0.0677 Uani
C45 C 0.1305(5) 0.2575(16) 0.1363(7) 0.0858 Uani
H31 H 0.1389 0.2179 0.1602 0.1030 Uiso
C46 C 0.1558(6) 0.2742(16) 0.1046(8) 0.0904 Uani
H32 H 0.1805 0.2448 0.1078 0.1080 Uiso
N15 N -0.0788(3) 0.4974(8) 0.1952(5) 0.0673 Uani
C47 C -0.0655(7) 0.4871(16) 0.1594(8) 0.1057 Uani
H33 H -0.0801 0.5127 0.1331 0.1260 Uiso
C48 C -0.0293(8) 0.439(2) 0.1571(9) 0.1321 Uani
H34 H -0.0173 0.4417 0.1324 0.1600 Uiso
C49 C -0.0137(3) 0.3877(9) 0.1939(6) 0.0632 Uani
C50 C -0.0296(4) 0.3947(10) 0.2305(6) 0.0726 Uani
H35 H -0.0189 0.3604 0.2558 0.0870 Uiso
C51 C -0.0624(4) 0.4533(11) 0.2311(7) 0.0732 Uani
H36 H -0.0722 0.4602 0.2572 0.0880 Uiso
C52 C 0.0532(3) 0.2056(8) 0.2163(5) 0.0535 Uani
N16 N 0.0761(3) 0.2152(7) 0.1881(4) 0.0589 Uani
C53 C 0.0691(4) 0.2849(9) 0.1629(5) 0.0599 Uani
N17 N 0.0406(3) 0.3441(8) 0.1618(5) 0.0687 Uani
C54 C 0.0191(3) 0.3294(9) 0.1930(5) 0.0552 Uani
N18 N 0.0252(3) 0.2630(8) 0.2220(4) 0.0582 Uani
N19 N 0.1883(5) 0.4862(8) 0.0309(6) 0.0811 Uani
C55 C 0.1648(7) 0.5394(13) 0.0028(8) 0.0955 Uani
H37 H 0.1437 0.5145 -0.0181 0.1140 Uiso
C56 C 0.1707(7) 0.6289(12) 0.0035(8) 0.0959 Uani
H38 H 0.1541 0.6646 -0.0178 0.1150 Uiso
C57 C 0.1993(4) 0.6692(9) 0.0334(5) 0.0635 Uani
C58 C 0.2228(6) 0.6133(11) 0.0648(7) 0.0822 Uani
H39 H 0.2417 0.6367 0.0887 0.0990 Uiso
C59 C 0.2168(6) 0.5220(12) 0.0590(10) 0.0995 Uani
H40 H 0.2350 0.4833 0.0769 0.1200 Uiso
N20 N 0.3307(3) 1.0183(8) 0.1491(5) 0.0728 Uani
C60 C 0.3098(4) 1.0627(9) 0.1145(6) 0.0722 Uani
H41 H 0.3154 1.1237 0.1106 0.0860 Uiso
C61 C 0.2800(4) 1.0206(10) 0.0841(6) 0.0705 Uani
H42 H 0.2659 1.0530 0.0596 0.0840 Uiso
C62 C 0.2708(4) 0.9331(8) 0.0894(5) 0.0619 Uani
C63 C 0.2923(5) 0.8886(10) 0.1251(6) 0.0819 Uani
H43 H 0.2872 0.8276 0.1298 0.0980 Uiso
C64 C 0.3214(5) 0.9341(11) 0.1543(6) 0.0867 Uani
H44 H 0.3353 0.9031 0.1792 0.1040 Uiso
N21 N 0.1224(4) 1.0429(7) -0.1087(4) 0.0663 Uani
C65 C 0.1161(8) 0.9550(12) -0.1028(8) 0.1295 Uani
H45 H 0.0947 0.9261 -0.1217 0.1550 Uiso
C66 C 0.1399(7) 0.9063(9) -0.0700(8) 0.1130 Uani
H46 H 0.1368 0.8436 -0.0685 0.1360 Uiso
C67 C 0.1676(4) 0.9483(8) -0.0402(5) 0.0628 Uani
C68 C 0.1749(4) 1.0373(9) -0.0443(5) 0.0650 Uani
H47 H 0.1948 1.0671 -0.0237 0.0780 Uiso
C69 C 0.1516(5) 1.0833(9) -0.0807(6) 0.0715 Uani
H48 H 0.1570 1.1442 -0.0852 0.0860 Uiso
C70 C 0.2053(4) 0.7659(9) 0.0330(5) 0.0597 Uani
N22 N 0.2348(4) 0.8010(8) 0.0629(5) 0.0662 Uani
C71 C 0.2401(4) 0.8894(9) 0.0574(5) 0.0610 Uani
N23 N 0.2207(3) 0.9404(7) 0.0249(4) 0.0572 Uani
C72 C 0.1909(3) 0.8956(8) -0.0007(5) 0.0562 Uani
N24 N 0.1813(3) 0.8111(8) 0.0016(5) 0.0624 Uani
Zn6 Zn 0.67032(15) 0.1374(4) 0.51918(19) 0.0525 Uani
I1 I 0.62347(9) 0.1538(2) 0.44507(12) 0.0749 Uani
I2 I 0.72977(7) 0.2397(2) 0.53865(9) 0.0658 Uani
I3 I 0.3867(4) -0.2445(13) 0.6496(10) 0.0804 Uani
I4 I 0.3573(5) -0.0920(15) 0.7591(8) 0.0937 Uani
I5 I 0.5219(2) 0.6326(6) 0.87977(19) 0.0886 Uani
I6 I 0.61604(13) 0.7329(2) 0.8128(2) 0.0900 Uani
I7 I 0.02304(16) -0.1534(5) 0.3838(4) 0.0762 Uani
I8 I 0.11464(18) -0.2466(5) 0.3095(3) 0.0830 Uani
I9 I 0.1285(2) 0.3265(4) -0.0526(2) 0.1012 Uani
I10 I 0.2364(2) 0.2622(5) 0.0476(4) 0.1009 Uani
I11 I 0.3913(5) 1.2282(5) 0.1609(4) 0.1322 Uani
I12 I 0.3543(2) 1.0685(13) 0.2678(3) 0.1217 Uani
Zn2B Zn 0.08301(7) 1.11187(13) -0.15558(7) 0.0737 Uani
Zn5B Zn -0.12633(6) 0.57842(16) 0.19489(9) 0.0796 Uani
N9B N 0.6860(4) 0.0038(8) 0.5267(5) 0.0648 Uani
N15B N 0.4212(3) 0.9974(8) 0.1952(5) 0.0673 Uani
N21B N 0.6224(4) 0.5429(7) 0.8913(4) 0.0663 Uani
Zn6B Zn 0.17032(15) 0.6374(4) 0.51918(19) 0.0525 Uani
Br1 Br 0.21264(19) 0.0634(4) 0.1803(3) 0.2081 Uani
Br2 Br 0.28932(13) 0.5636(5) 0.1806(2) 0.1870 Uani
C73 C 0.2908(11) 0.262(3) 0.2327(17) 0.1653 Uani
H49 H 0.3175 0.2369 0.2447 0.2000 Uiso
O1 O 0.2673(5) 0.2522(15) 0.2646(9) 0.1406 Uani
C74 C 0.2424(8) 0.1689(19) 0.2545(12) 0.1273 Uani
H50 H 0.2579 0.1136 0.2642 0.1540 Uiso
C75 C 0.2306(11) 0.173(2) 0.2109(14) 0.1664 Uani
H51 H 0.2097 0.2195 0.2031 0.1980 Uiso
C76 C 0.2686(9) 0.200(2) 0.1904(14) 0.1456 Uani
H52 H 0.2612 0.2349 0.1629 0.1740 Uiso
H53 H 0.2846 0.1478 0.1856 0.1740 Uiso
C77 C 0.2950(8) 0.354(2) 0.2205(14) 0.1371 Uani
H54 H 0.3123 0.3574 0.1986 0.1640 Uiso
O2 O 0.3130(5) 0.4024(14) 0.2605(10) 0.1447 Uani
C78 C 0.2889(9) 0.478(3) 0.2673(14) 0.1655 Uani
H55 H 0.3051 0.5329 0.2758 0.1980 Uiso
C79 C 0.2601(7) 0.489(3) 0.2224(14) 0.1531 Uani
H56 H 0.2346 0.5170 0.2254 0.1820 Uiso
C80 C 0.2537(8) 0.3941(19) 0.2008(12) 0.1283 Uani
H57 H 0.2322 0.3611 0.2101 0.1520 Uiso
H58 H 0.2487 0.3972 0.1684 0.1520 Uiso
C81 C 0.2085(8) 0.178(4) 0.2752(12) 0.1582 Uani
H59 H 0.1904 0.1273 0.2667 0.1910 Uiso
H60 H 0.1941 0.2334 0.2645 0.1910 Uiso
C82 C 0.2214(8) 0.182(2) 0.3256(12) 0.1230 Uani
H61 H 0.2319 0.2331 0.3417 0.1490 Uiso
C83 C 0.2156(10) 0.100(3) 0.3447(15) 0.1788 Uani
H62 H 0.2177 0.1012 0.3756 0.2130 Uiso
C84 C 0.2062(6) 0.0070(18) 0.3232(14) 0.1640 Uani
C85 C 0.2053(5) -0.060(2) 0.3253(10) 0.1292 Uani
H63 H 0.2045 -0.1229 0.3273 0.1580 Uiso
C86 C 0.2649(9) 0.461(3) 0.2956(12) 0.1559 Uani
H64 H 0.2424 0.4234 0.2812 0.1880 Uiso
H65 H 0.2547 0.5165 0.3056 0.1880 Uiso
C87 C 0.2882(5) 0.4146(15) 0.3314(10) 0.1207 Uani
H66 H 0.2721 0.4003 0.3528 0.1840 Uiso
H67 H 0.2982 0.3595 0.3209 0.1840 Uiso
H68 H 0.3104 0.4522 0.3452 0.1840 Uiso
C88 C 0.3194(18) 0.816(6) 0.340(2) 0.2033 Uani
H69 H 0.3212 0.8134 0.3091 0.2460 Uiso
H70 H 0.2918 0.8037 0.3427 0.2460 Uiso
C89 C 0.3338(12) 0.907(5) 0.3613(16) 0.1833 Uani
H71 H 0.3397 0.9479 0.3386 0.2180 Uiso
H72 H 0.3131 0.9346 0.3745 0.2180 Uiso
C90 C 0.3705(8) 0.891(3) 0.3961(10) 0.0938 Uani
H73 H 0.3653 0.8459 0.4175 0.1110 Uiso
H74 H 0.3794 0.9464 0.4121 0.1110 Uiso
C91 C 0.4028(15) 0.856(5) 0.372(2) 0.1873 Uani
H75 H 0.4049 0.8954 0.3469 0.2260 Uiso
H76 H 0.4288 0.8527 0.3919 0.2260 Uiso
C92 C 0.389(2) 0.762(5) 0.355(3) 0.2212 Uani
H77 H 0.3855 0.7581 0.3228 0.2640 Uiso
H78 H 0.4077 0.7160 0.3687 0.2640 Uiso
C93 C 0.348(3) 0.747(5) 0.368(3) 0.2120 Uani
H79 H 0.3506 0.7585 0.3999 0.2550 Uiso
H80 H 0.3389 0.6857 0.3616 0.2550 Uiso
C94 C 0.0622(13) 0.578(4) -0.0522(16) 0.1259 Uani
H81 H 0.0562 0.5554 -0.0827 0.1530 Uiso
H82 H 0.0905 0.5672 -0.0400 0.1530 Uiso
C95 C 0.055(2) 0.677(4) -0.053(2) 0.1903 Uani
H83 H 0.0267 0.6901 -0.0660 0.2270 Uiso
H84 H 0.0714 0.7080 -0.0706 0.2270 Uiso
C96 C 0.065(3) 0.708(4) -0.005(3) 0.2272 Uani
H85 H 0.0408 0.7261 0.0047 0.2720 Uiso
H86 H 0.0829 0.7603 -0.0024 0.2720 Uiso
C97 C 0.085(2) 0.630(6) 0.023(2) 0.2311 Uani
H87 H 0.1090 0.6119 0.0119 0.2740 Uiso
H88 H 0.0943 0.6507 0.0536 0.2740 Uiso
C98 C 0.058(2) 0.551(5) 0.022(2) 0.2015 Uani
H89 H 0.0382 0.5641 0.0394 0.2410 Uiso
H90 H 0.0739 0.4989 0.0358 0.2410 Uiso
C99 C 0.0381(19) 0.528(4) -0.026(2) 0.1784 Uani
H91 H 0.0390 0.4627 -0.0312 0.2140 Uiso
H92 H 0.0103 0.5475 -0.0323 0.2140 Uiso
C100 C 0.0813(6) 0.2417(19) 0.5156(8) 0.1129 Uani
H93 H 0.1105 0.2460 0.5226 0.1360 Uiso
H94 H 0.0731 0.2102 0.5401 0.1360 Uiso
C101 C 0.0635(18) 0.339(3) 0.5123(15) 0.2516 Uani
H95 H 0.0394 0.3354 0.5246 0.3050 Uiso
H96 H 0.0826 0.3757 0.5329 0.3050 Uiso
C102 C 0.0521(11) 0.394(3) 0.4692(17) 0.2012 Uani
H97 H 0.0235 0.4067 0.4622 0.2410 Uiso
H98 H 0.0666 0.4514 0.4719 0.2410 Uiso
C103 C 0.0637(17) 0.336(4) 0.4339(15) 0.2740 Uani
H99 H 0.0927 0.3288 0.4393 0.3270 Uiso
H100 H 0.0545 0.3629 0.4045 0.3270 Uiso
C104 C 0.0426(16) 0.244(4) 0.4377(16) 0.2948 Uani
H101 H 0.0165 0.2545 0.4450 0.3540 Uiso
H102 H 0.0386 0.2123 0.4093 0.3540 Uiso
C105 C 0.0690(18) 0.187(3) 0.4743(15) 0.2510 Uani
H103 H 0.0540 0.1341 0.4806 0.3030 Uiso
H104 H 0.0926 0.1663 0.4641 0.3030 Uiso
C106 C 0.0760(18) 0.016(6) 0.073(2) 0.3549 Uani
H105 H 0.0670 0.0774 0.0761 0.4240 Uiso
H106 H 0.0653 -0.0235 0.0933 0.4240 Uiso
C107 C 0.064(2) -0.018(4) 0.024(2) 0.3717 Uani
H107 H 0.0812 -0.0666 0.0186 0.4440 Uiso
H108 H 0.0361 -0.0398 0.0180 0.4440 Uiso
C108 C 0.0678(19) 0.065(4) -0.0052(18) 0.3380 Uani
H109 H 0.0763 0.0457 -0.0321 0.4050 Uiso
H110 H 0.0420 0.0955 -0.0139 0.4050 Uiso
C109 C 0.0977(9) 0.128(2) 0.0205(11) 0.1779 Uani
H111 H 0.0844 0.1663 0.0388 0.2170 Uiso
H112 H 0.1081 0.1663 -0.0002 0.2170 Uiso
C110 C 0.1323(12) 0.080(3) 0.0504(14) 0.2302 Uani
H113 H 0.1483 0.0504 0.0315 0.2770 Uiso
H114 H 0.1492 0.1251 0.0681 0.2770 Uiso
C111 C 0.1219(17) 0.010(4) 0.0815(19) 0.3114 Uani
H115 H 0.1339 0.0246 0.1124 0.3730 Uiso
H116 H 0.1306 -0.0499 0.0745 0.3730 Uiso
C112 C 0.166(4) 0.726(7) 0.170(3) 0.2594 Uani
H117 H 0.1429 0.7670 0.1675 0.3120 Uiso
H118 H 0.1864 0.7461 0.1949 0.3120 Uiso
C113 C 0.181(3) 0.729(7) 0.128(4) 0.2628 Uani
H119 H 0.2036 0.6868 0.1300 0.3160 Uiso
H120 H 0.1910 0.7894 0.1235 0.3160 Uiso
C114 C 0.148(4) 0.703(8) 0.089(3) 0.2662 Uani
H121 H 0.1587 0.6985 0.0617 0.3240 Uiso
H122 H 0.1273 0.7493 0.0842 0.3240 Uiso
C115 C 0.131(3) 0.612(9) 0.099(3) 0.2377 Uani
H123 H 0.1040 0.6210 0.1049 0.2840 Uiso
H124 H 0.1288 0.5717 0.0738 0.2840 Uiso
C116 C 0.158(3) 0.573(5) 0.140(4) 0.2210 Uani
H125 H 0.1861 0.5747 0.1366 0.2660 Uiso
H126 H 0.1512 0.5099 0.1442 0.2660 Uiso
C117 C 0.152(4) 0.631(8) 0.179(3) 0.2497 Uani
H127 H 0.1245 0.6307 0.1817 0.3000 Uiso
H128 H 0.1687 0.6079 0.2070 0.3000 Uiso
loop_
_atom_site_aniso_label
_atom_site_aniso_U_11
_atom_site_aniso_U_22
_atom_site_aniso_U_33
_atom_site_aniso_U_23
_atom_site_aniso_U_13
_atom_site_aniso_U_12
Zn1 0.0507(7) 0.0494(9) 0.0884(13) 0.0200(9) -0.0212(8) -0.0163(7)
Zn2 0.0900(12) 0.0363(8) 0.0740(12) -0.0088(8) -0.0311(10) 0.0106(8)
Zn3 0.0855(11) 0.0377(8) 0.0732(12) 0.0069(8) -0.0281(10) -0.0102(8)
Zn4 0.138(2) 0.0347(9) 0.124(2) 0.0014(11) 0.0630(18) -0.0021(11)
Zn5 0.0596(9) 0.0588(11) 0.0996(16) -0.0239(11) -0.0315(10) 0.0186(8)
N1 0.086(7) 0.031(5) 0.103(10) -0.001(5) 0.032(7) 0.001(5)
C1 0.096(10) 0.082(11) 0.116(15) -0.048(11) 0.044(10) -0.027(9)
C2 0.093(11) 0.102(15) 0.114(15) -0.052(13) 0.039(11) -0.040(11)
C3 0.054(6) 0.044(6) 0.080(9) -0.006(6) 0.009(6) 0.001(5)
C4 0.070(7) 0.075(10) 0.082(10) -0.012(8) 0.022(7) -0.018(7)
C5 0.075(8) 0.083(11) 0.081(10) -0.001(8) 0.026(7) -0.019(7)
N2 0.045(4) 0.050(6) 0.078(8) 0.003(5) -0.012(5) -0.012(4)
C6 0.061(6) 0.046(6) 0.078(9) 0.000(6) 0.007(6) -0.013(5)
C7 0.051(5) 0.059(8) 0.073(8) -0.015(6) 0.007(5) -0.015(5)
C8 0.042(4) 0.037(5) 0.063(7) -0.002(4) -0.002(4) -0.008(4)
C9 0.084(9) 0.103(13) 0.074(10) -0.028(9) 0.014(8) -0.047(9)
C10 0.091(11) 0.16(2) 0.085(12) -0.045(14) 0.002(10) -0.083(15)
N3 0.066(6) 0.042(5) 0.064(7) -0.005(4) -0.018(5) 0.000(4)
C11 0.087(9) 0.066(9) 0.075(9) -0.019(7) 0.015(8) -0.038(8)
C12 0.072(7) 0.048(7) 0.086(10) -0.009(7) 0.002(7) -0.020(6)
C13 0.055(5) 0.049(6) 0.047(6) -0.005(5) -0.006(4) -0.007(5)
C14 0.054(5) 0.046(6) 0.054(6) -0.006(5) -0.006(5) -0.003(4)
C15 0.052(5) 0.051(7) 0.063(7) -0.007(5) -0.002(5) 0.005(5)
C16 0.054(5) 0.042(6) 0.068(8) -0.004(5) 0.002(5) -0.005(4)
N4 0.045(4) 0.045(5) 0.064(6) -0.014(4) 0.002(4) -0.006(4)
C17 0.047(5) 0.042(6) 0.069(7) -0.003(5) -0.004(5) -0.008(4)
N5 0.040(3) 0.042(5) 0.054(5) -0.004(4) -0.004(3) -0.007(3)
C18 0.043(4) 0.039(5) 0.054(6) 0.000(4) -0.012(4) -0.005(4)
N6 0.043(4) 0.043(5) 0.057(5) -0.008(4) -0.002(4) -0.007(3)
N7 0.051(4) 0.034(5) 0.076(7) 0.012(4) -0.017(5) -0.015(4)
C19 0.076(8) 0.041(6) 0.074(8) 0.004(6) -0.020(7) -0.016(6)
C20 0.065(6) 0.030(5) 0.084(9) -0.003(5) -0.020(6) -0.005(5)
C21 0.046(5) 0.040(5) 0.060(6) 0.006(5) -0.003(4) -0.008(4)
C22 0.068(7) 0.028(5) 0.082(9) -0.003(5) -0.018(6) -0.001(5)
C23 0.063(6) 0.040(6) 0.091(10) -0.003(6) -0.020(7) 0.000(5)
N8 0.078(6) 0.029(5) 0.081(8) 0.004(5) -0.025(6) -0.002(4)
C24 0.104(11) 0.032(6) 0.115(14) 0.004(7) -0.058(11) 0.010(6)
C25 0.092(10) 0.044(7) 0.112(14) -0.011(8) -0.056(10) 0.011(7)
C26 0.056(5) 0.028(5) 0.060(6) 0.010(4) -0.012(5) 0.004(4)
C27 0.071(7) 0.034(6) 0.077(9) 0.003(5) -0.022(7) -0.002(5)
C28 0.088(8) 0.036(6) 0.063(7) 0.004(5) -0.020(7) 0.001(6)
N9 0.069(6) 0.041(5) 0.086(8) 0.002(5) 0.020(6) -0.001(4)
C29 0.095(10) 0.037(7) 0.092(10) -0.024(6) 0.003(8) -0.006(6)
C30 0.077(8) 0.038(6) 0.085(9) -0.001(6) -0.008(7) -0.001(5)
C31 0.063(6) 0.025(5) 0.076(8) -0.004(5) 0.009(6) -0.005(4)
C32 0.093(10) 0.040(7) 0.082(10) -0.001(6) -0.025(8) 0.004(6)
C33 0.124(14) 0.032(7) 0.098(12) -0.007(7) -0.005(11) 0.017(7)
C34 0.044(4) 0.030(5) 0.058(6) 0.001(4) -0.011(4) -0.007(4)
N10 0.054(4) 0.024(4) 0.065(6) 0.000(4) -0.007(4) -0.003(3)
C35 0.045(5) 0.032(5) 0.072(7) 0.010(5) -0.001(5) 0.003(4)
N11 0.057(5) 0.023(4) 0.067(6) -0.002(4) -0.005(4) -0.002(3)
C36 0.047(5) 0.032(5) 0.068(7) 0.002(5) 0.003(5) -0.006(4)
N12 0.053(4) 0.030(4) 0.064(6) -0.004(4) -0.001(4) -0.011(3)
N13 0.078(7) 0.041(5) 0.066(7) 0.009(5) -0.012(6) 0.002(5)
C37 0.083(9) 0.044(7) 0.109(14) 0.011(8) -0.002(9) 0.020(7)
C38 0.076(8) 0.061(9) 0.101(13) 0.012(8) 0.018(8) 0.023(7)
C39 0.052(5) 0.033(5) 0.065(7) -0.003(5) -0.014(5) 0.007(4)
C40 0.049(5) 0.041(6) 0.081(9) 0.009(6) -0.014(5) 0.001(4)
C41 0.080(8) 0.046(7) 0.070(9) 0.010(6) -0.023(7) -0.003(6)
N14 0.100(9) 0.059(8) 0.090(10) 0.006(7) 0.037(8) -0.004(7)
C42 0.15(2) 0.073(12) 0.13(2) 0.042(12) 0.055(17) 0.034(13)
C43 0.108(13) 0.094(14) 0.122(17) 0.052(13) 0.046(12) 0.043(11)
C44 0.074(8) 0.043(6) 0.081(9) 0.002(6) 0.004(7) 0.003(5)
C45 0.077(8) 0.098(14) 0.081(10) 0.028(10) 0.013(8) 0.012(9)
C46 0.080(9) 0.083(12) 0.108(15) 0.008(11) 0.019(10) 0.008(8)
N15 0.053(5) 0.049(6) 0.087(9) 0.001(6) -0.015(6) 0.012(4)
C47 0.107(13) 0.102(15) 0.107(15) 0.039(12) 0.020(12) 0.067(13)
C48 0.126(17) 0.17(3) 0.103(16) 0.066(17) 0.030(13) 0.104(19)
C49 0.047(5) 0.042(6) 0.090(10) 0.009(6) -0.010(6) -0.002(4)
C50 0.071(7) 0.046(7) 0.086(10) 0.011(6) -0.018(7) 0.011(6)
C51 0.057(6) 0.061(8) 0.091(11) 0.005(8) -0.009(7) 0.012(6)
C52 0.046(5) 0.036(5) 0.069(7) -0.003(5) -0.010(5) 0.003(4)
N16 0.052(5) 0.042(5) 0.074(7) 0.003(5) -0.007(5) 0.001(4)
C53 0.051(5) 0.041(6) 0.078(9) 0.007(5) -0.009(5) 0.001(4)
N17 0.062(6) 0.044(6) 0.092(9) 0.010(6) -0.003(6) 0.002(5)
C54 0.046(5) 0.046(6) 0.064(7) 0.011(5) -0.011(5) -0.005(4)
N18 0.055(5) 0.043(5) 0.065(6) 0.001(5) -0.014(4) 0.006(4)
N19 0.123(11) 0.024(5) 0.101(10) 0.002(5) 0.034(9) -0.003(6)
C55 0.118(14) 0.053(9) 0.102(14) -0.005(9) -0.008(12) -0.020(9)
C56 0.113(13) 0.039(8) 0.116(15) 0.010(8) -0.022(12) -0.014(8)
C57 0.069(7) 0.044(7) 0.074(9) -0.002(6) 0.007(6) -0.001(5)
C58 0.089(10) 0.041(7) 0.104(12) 0.007(7) -0.009(9) 0.003(6)
C59 0.086(10) 0.042(8) 0.16(2) 0.005(10) 0.001(12) 0.019(7)
N20 0.057(5) 0.048(6) 0.096(9) -0.017(6) -0.024(6) 0.016(5)
C60 0.068(7) 0.044(7) 0.085(10) -0.006(6) -0.029(7) 0.010(6)
C61 0.058(6) 0.051(7) 0.084(10) -0.005(6) -0.028(7) 0.012(5)
C62 0.059(6) 0.033(5) 0.080(9) -0.005(5) -0.017(6) 0.017(5)
C63 0.096(10) 0.043(7) 0.083(10) -0.005(6) -0.036(9) 0.018(7)
C64 0.093(10) 0.053(8) 0.086(11) -0.010(7) -0.046(9) 0.029(7)
N21 0.076(6) 0.034(5) 0.071(7) -0.011(5) -0.026(6) 0.014(4)
C65 0.160(19) 0.046(8) 0.125(17) 0.010(9) -0.103(16) -0.008(10)
C66 0.149(16) 0.019(5) 0.126(16) 0.000(7) -0.075(14) 0.005(7)
C67 0.063(6) 0.033(5) 0.077(8) -0.010(5) -0.021(6) 0.016(5)
C68 0.066(6) 0.036(6) 0.080(9) -0.005(6) -0.015(6) -0.007(5)
C69 0.083(8) 0.030(5) 0.081(9) -0.001(5) -0.030(7) 0.005(5)
C70 0.068(6) 0.038(6) 0.068(8) -0.003(5) 0.002(6) 0.005(5)
N22 0.075(6) 0.038(5) 0.075(8) -0.004(5) -0.009(6) 0.002(5)
C71 0.065(6) 0.037(6) 0.074(8) -0.009(5) -0.002(6) 0.012(5)
N23 0.053(4) 0.036(4) 0.069(7) -0.002(4) -0.019(5) 0.007(4)
C72 0.055(5) 0.034(5) 0.068(7) -0.007(5) -0.014(5) 0.011(4)
N24 0.061(5) 0.040(5) 0.077(7) -0.008(5) -0.007(5) 0.009(4)
Zn6 0.0563(16) 0.0338(19) 0.0634(18) -0.0004(11) 0.0031(16) 0.0041(10)
I1 0.0939(15) 0.0453(10) 0.0737(12) 0.0084(8) -0.0098(12) 0.0012(9)
I2 0.0673(10) 0.0442(10) 0.0873(14) -0.0055(8) 0.0191(10) -0.0060(7)
I3 0.058(5) 0.050(4) 0.110(10) -0.001(5) -0.036(4) 0.003(3)
I4 0.086(7) 0.127(8) 0.067(6) 0.055(6) 0.013(4) 0.017(7)
I5 0.098(2) 0.086(3) 0.0739(13) -0.0002(16) -0.0004(15) 0.044(2)
I6 0.0935(19) 0.0328(9) 0.128(2) 0.0026(10) -0.0135(14) -0.0018(11)
I7 0.087(2) 0.081(2) 0.051(3) 0.0064(17) -0.0079(15) -0.0333(17)
I8 0.076(3) 0.0394(19) 0.122(4) -0.0039(16) -0.006(2) -0.0037(14)
I9 0.144(4) 0.0556(19) 0.097(2) -0.0200(15) 0.009(3) -0.023(3)
I10 0.115(3) 0.0512(15) 0.151(5) 0.031(2) 0.061(3) 0.0273(18)
I11 0.122(5) 0.0440(17) 0.179(6) 0.004(2) -0.088(4) -0.012(3)
I12 0.068(2) 0.160(7) 0.120(5) -0.080(4) -0.020(2) 0.023(3)
Zn2B 0.09 0.0363 0.074 -0.0088 -0.0311 0.0106
Zn5B 0.0596 0.0588 0.0996 -0.0239 -0.0315 0.0186
N9B 0.069 0.041 0.086 0.002 0.02 -0.001
N15B 0.053 0.049 0.087 0.001 -0.015 0.012
N21B 0.076 0.034 0.071 -0.011 -0.026 0.014
Zn6B 0.0563 0.0338 0.0634 -0.0004 0.0031 0.0041
Br1 0.210(5) 0.146(4) 0.236(7) -0.029(4) -0.028(5) 0.005(4)
Br2 0.125(2) 0.175(4) 0.254(6) 0.054(4) 0.023(3) 0.010(3)
C73 0.129(19) 0.14(2) 0.22(3) -0.04(2) 0.02(2) 0.036(18)
O1 0.108(10) 0.117(13) 0.20(2) 0.003(13) 0.039(12) 0.028(10)
C74 0.109(14) 0.103(15) 0.16(2) 0.023(15) 0.005(15) 0.027(12)
C75 0.17(2) 0.097(16) 0.19(3) -0.053(17) -0.06(2) 0.020(16)
C76 0.126(17) 0.13(2) 0.19(3) -0.04(2) 0.054(18) -0.004(15)
C77 0.097(14) 0.13(2) 0.18(3) 0.00(2) 0.019(17) 0.016(15)
O2 0.097(9) 0.112(13) 0.23(2) -0.003(14) 0.045(12) 0.027(9)
C78 0.101(14) 0.15(2) 0.26(3) 0.00(2) 0.071(18) 0.029(15)
C79 0.071(10) 0.17(3) 0.21(3) -0.04(2) 0.010(15) 0.024(13)
C80 0.108(14) 0.101(16) 0.18(3) 0.019(17) 0.039(16) 0.032(13)
C81 0.090(13) 0.25(5) 0.14(2) -0.05(3) 0.036(15) 0.00(2)
C82 0.119(16) 0.101(16) 0.15(2) 0.004(15) 0.030(15) 0.025(13)
C83 0.133(19) 0.21(3) 0.20(3) 0.06(3) 0.05(2) 0.06(2)
C84 0.072(10) 0.105(16) 0.30(4) 0.11(2) 0.004(15) 0.010(10)
C85 0.050(7) 0.14(2) 0.17(2) 0.072(18) -0.041(10) -0.021(10)
C86 0.114(16) 0.14(2) 0.22(3) 0.03(2) 0.049(19) 0.052(17)
C87 0.060(7) 0.076(11) 0.22(3) -0.002(15) 0.015(12) 0.032(8)
C88 0.24(5) 0.25(5) 0.15(4) -0.01(4) 0.11(4) 0.02(4)
C89 0.20(4) 0.23(5) 0.16(3) 0.02(3) 0.13(3) 0.00(4)
C90 0.065(13) 0.16(3) 0.076(17) -0.013(18) 0.060(13) 0.022(16)
C91 0.21(4) 0.19(5) 0.15(4) -0.02(4) 0.01(4) 0.02(4)
C92 0.24(5) 0.25(5) 0.16(4) -0.02(4) 0.01(4) 0.01(5)
C93 0.23(5) 0.25(5) 0.16(4) -0.03(4) 0.05(4) 0.02(5)
C94 0.08(2) 0.16(4) 0.12(3) -0.05(3) -0.02(2) 0.01(2)
C95 0.13(3) 0.26(5) 0.18(4) -0.04(4) 0.03(3) 0.02(4)
C96 0.14(4) 0.30(6) 0.25(5) 0.02(5) 0.06(4) 0.03(4)
C97 0.15(4) 0.27(6) 0.28(5) 0.05(5) 0.06(4) 0.04(4)
C98 0.13(4) 0.21(5) 0.26(5) 0.02(5) 0.03(4) 0.05(4)
C99 0.16(4) 0.18(5) 0.18(4) -0.04(4) 0.00(3) 0.06(3)
C100 0.081(9) 0.146(19) 0.112(14) 0.045(14) 0.021(9) 0.042(11)
C101 0.22(3) 0.26(4) 0.27(4) 0.04(4) 0.04(3) 0.01(3)
C102 0.115(19) 0.25(4) 0.24(4) 0.04(3) 0.04(2) -0.01(2)
C103 0.25(4) 0.27(5) 0.27(4) 0.10(4) -0.02(4) -0.06(4)
C104 0.28(4) 0.30(5) 0.30(4) 0.09(4) 0.05(4) -0.02(4)
C105 0.25(4) 0.24(4) 0.27(4) 0.02(4) 0.07(3) -0.03(4)
C106 0.34(5) 0.34(5) 0.37(5) -0.04(5) 0.04(5) -0.05(5)
C107 0.36(5) 0.38(5) 0.36(5) 0.02(5) 0.04(5) -0.04(5)
C108 0.32(4) 0.38(5) 0.32(5) -0.04(5) 0.08(4) -0.06(4)
C109 0.16(2) 0.22(3) 0.19(3) -0.13(2) 0.12(2) -0.13(2)
C110 0.30(4) 0.20(3) 0.24(4) -0.15(3) 0.17(3) -0.12(3)
C111 0.34(5) 0.26(4) 0.33(5) -0.12(4) 0.06(4) -0.09(4)
C112 0.24(5) 0.24(6) 0.30(6) -0.03(6) 0.06(5) 0.08(5)
C113 0.25(6) 0.25(6) 0.29(6) -0.02(6) 0.06(5) 0.05(5)
C114 0.26(6) 0.25(6) 0.29(6) -0.03(6) 0.06(5) 0.02(5)
C115 0.23(6) 0.24(6) 0.26(6) -0.01(6) 0.09(5) 0.00(5)
C116 0.22(5) 0.23(6) 0.24(6) 0.01(5) 0.11(5) 0.01(5)
C117 0.24(5) 0.23(6) 0.29(6) -0.01(6) 0.08(5) 0.04(5)
loop_
_geom_bond_atom_site_label_1
_geom_bond_atom_site_label_2
_geom_bond_site_symmetry_1
_geom_bond_site_symmetry_2
Zn1 N2 1_555 1_555
Zn2 N3 1_555 1_555
Zn3 N8 1_555 1_555
Zn4 N14 1_555 1_555
Zn5 N20 1_555 1_555
N1 C1 1_555 1_555
C1 H1 1_555 1_555
C2 C1 1_555 1_555
H2 C2 1_555 1_555
C3 C2 1_555 1_555
C4 C3 1_555 1_555
H3 C4 1_555 1_555
C5 N1 1_555 1_555
H4 C5 1_555 1_555
N2 C6 1_555 1_555
C6 H5 1_555 1_555
C7 C6 1_555 1_555
H6 C7 1_555 1_555
C8 C7 1_555 1_555
C9 C8 1_555 1_555
H7 C9 1_555 1_555
C10 N2 1_555 1_555
H8 C10 1_555 1_555
N3 C11 1_555 1_555
C11 H9 1_555 1_555
C12 C11 1_555 1_555
H10 C12 1_555 1_555
C13 C12 1_555 1_555
C14 C13 1_555 1_555
H11 C14 1_555 1_555
C15 N3 1_555 1_555
H12 C15 1_555 1_555
C16 C3 1_555 1_555
N4 C16 1_555 1_555
C17 C8 1_555 1_555
N5 C17 1_555 1_555
C18 C13 1_555 1_555
N6 C16 1_555 1_555
N7 Zn1 1_555 1_555
C19 N7 1_555 1_555
H13 C19 1_555 1_555
C20 C19 1_555 1_555
H14 C20 1_555 1_555
C21 C20 1_555 1_555
C22 C21 1_555 1_555
H15 C22 1_555 1_555
C23 N7 1_555 1_555
H16 C23 1_555 1_555
N8 C24 1_555 1_555
C24 H17 1_555 1_555
C25 C24 1_555 1_555
H18 C25 1_555 1_555
C26 C25 1_555 1_555
C27 C26 1_555 1_555
H19 C27 1_555 1_555
C28 N8 1_555 1_555
H20 C28 1_555 1_555
N9 C29 1_555 1_555
C29 H21 1_555 1_555
C30 C29 1_555 1_555
H22 C30 1_555 1_555
C31 C30 1_555 1_555
C32 C31 1_555 1_555
H23 C32 1_555 1_555
C33 N9 1_555 1_555
H24 C33 1_555 1_555
C34 C21 1_555 1_555
N10 C34 1_555 1_555
C35 C26 1_555 1_555
N11 C35 1_555 1_555
C36 C31 1_555 1_555
N12 C34 1_555 1_555
N13 Zn3 1_555 1_555
C37 N13 1_555 1_555
H25 C37 1_555 1_555
C38 C37 1_555 1_555
H26 C38 1_555 1_555
C39 C38 1_555 1_555
C40 C39 1_555 1_555
H27 C40 1_555 1_555
C41 N13 1_555 1_555
H28 C41 1_555 1_555
N14 C42 1_555 1_555
C42 H29 1_555 1_555
C43 C42 1_555 1_555
H30 C43 1_555 1_555
C44 C43 1_555 1_555
C45 C44 1_555 1_555
H31 C45 1_555 1_555
C46 N14 1_555 1_555
H32 C46 1_555 1_555
N15 C47 1_555 1_555
C47 H33 1_555 1_555
C48 C47 1_555 1_555
H34 C48 1_555 1_555
C49 C48 1_555 1_555
C50 C49 1_555 1_555
H35 C50 1_555 1_555
C51 N15 1_555 1_555
H36 C51 1_555 1_555
C52 C39 1_555 1_555
N16 C52 1_555 1_555
C53 C44 1_555 1_555
N17 C53 1_555 1_555
C54 C49 1_555 1_555
N18 C52 1_555 1_555
N19 Zn4 1_555 1_555
C55 N19 1_555 1_555
H37 C55 1_555 1_555
C56 C55 1_555 1_555
H38 C56 1_555 1_555
C57 C56 1_555 1_555
C58 C57 1_555 1_555
H39 C58 1_555 1_555
C59 N19 1_555 1_555
H40 C59 1_555 1_555
N20 C60 1_555 1_555
C60 H41 1_555 1_555
C61 C60 1_555 1_555
H42 C61 1_555 1_555
C62 C61 1_555 1_555
C63 C62 1_555 1_555
H43 C63 1_555 1_555
C64 N20 1_555 1_555
H44 C64 1_555 1_555
N21 C65 1_555 1_555
C65 H45 1_555 1_555
C66 C65 1_555 1_555
H46 C66 1_555 1_555
C67 C66 1_555 1_555
C68 C67 1_555 1_555
H47 C68 1_555 1_555
C69 N21 1_555 1_555
H48 C69 1_555 1_555
C70 C57 1_555 1_555
N22 C70 1_555 1_555
C71 C62 1_555 1_555
N23 C71 1_555 1_555
C72 C67 1_555 1_555
N24 C70 1_555 1_555
Zn6 N1 1_555 1_555
I1 Zn6 1_555 1_555
I2 Zn6 1_555 1_555
I3 Zn1 1_555 1_555
I4 Zn1 1_555 1_555
I5 Zn2 1_555 1_555
I6 Zn2 1_555 1_555
I7 Zn3 1_555 1_555
I8 Zn3 1_555 1_555
I9 Zn4 1_555 1_555
I10 Zn4 1_555 1_555
I11 Zn5 1_555 1_555
I12 Zn5 1_555 1_555
Br1 C75 1_555 1_555
Br2 C79 1_555 1_555
C73 H49 1_555 1_555
O1 C73 1_555 1_555
C74 O1 1_555 1_555
H50 C74 1_555 1_555
C75 C74 1_555 1_555
H51 C75 1_555 1_555
C76 C73 1_555 1_555
H52 C76 1_555 1_555
H53 C76 1_555 1_555
C77 C73 1_555 1_555
H54 C77 1_555 1_555
O2 C77 1_555 1_555
C78 O2 1_555 1_555
H55 C78 1_555 1_555
C79 C78 1_555 1_555
H56 C79 1_555 1_555
C80 C77 1_555 1_555
H57 C80 1_555 1_555
H58 C80 1_555 1_555
C81 C74 1_555 1_555
H59 C81 1_555 1_555
H60 C81 1_555 1_555
C82 C81 1_555 1_555
H61 C82 1_555 1_555
C83 C82 1_555 1_555
H62 C83 1_555 1_555
C84 C83 1_555 1_555
C85 C84 1_555 1_555
H63 C85 1_555 1_555
C86 C78 1_555 1_555
H64 C86 1_555 1_555
H65 C86 1_555 1_555
C87 C86 1_555 1_555
H66 C87 1_555 1_555
H67 C87 1_555 1_555
H68 C87 1_555 1_555
C88 H69 1_555 1_555
H70 C88 1_555 1_555
C89 C88 1_555 1_555
H71 C89 1_555 1_555
H72 C89 1_555 1_555
C90 C89 1_555 1_555
H73 C90 1_555 1_555
H74 C90 1_555 1_555
C91 C90 1_555 1_555
H75 C91 1_555 1_555
H76 C91 1_555 1_555
C92 C91 1_555 1_555
H77 C92 1_555 1_555
H78 C92 1_555 1_555
C93 C88 1_555 1_555
H79 C93 1_555 1_555
H80 C93 1_555 1_555
C94 H81 1_555 1_555
H82 C94 1_555 1_555
C95 C94 1_555 1_555
H83 C95 1_555 1_555
H84 C95 1_555 1_555
C96 C95 1_555 1_555
H85 C96 1_555 1_555
H86 C96 1_555 1_555
C97 C96 1_555 1_555
H87 C97 1_555 1_555
H88 C97 1_555 1_555
C98 C97 1_555 1_555
H89 C98 1_555 1_555
H90 C98 1_555 1_555
C99 C94 1_555 1_555
H91 C99 1_555 1_555
H92 C99 1_555 1_555
C100 H93 1_555 1_555
H94 C100 1_555 1_555
C101 C100 1_555 1_555
H95 C101 1_555 1_555
H96 C101 1_555 1_555
C102 C101 1_555 1_555
H97 C102 1_555 1_555
H98 C102 1_555 1_555
C103 C102 1_555 1_555
H99 C103 1_555 1_555
H100 C103 1_555 1_555
C104 C103 1_555 1_555
H101 C104 1_555 1_555
H102 C104 1_555 1_555
C105 C100 1_555 1_555
H103 C105 1_555 1_555
H104 C105 1_555 1_555
C106 H105 1_555 1_555
H106 C106 1_555 1_555
C107 C106 1_555 1_555
H107 C107 1_555 1_555
H108 C107 1_555 1_555
C108 C107 1_555 1_555
H109 C108 1_555 1_555
H110 C108 1_555 1_555
C109 C108 1_555 1_555
H111 C109 1_555 1_555
H112 C109 1_555 1_555
C110 C109 1_555 1_555
H113 C110 1_555 1_555
H114 C110 1_555 1_555
C111 C106 1_555 1_555
H115 C111 1_555 1_555
H116 C111 1_555 1_555
C112 H117 1_555 1_555
H118 C112 1_555 1_555
C113 C112 1_555 1_555
H119 C113 1_555 1_555
H120 C113 1_555 1_555
C114 C113 1_555 1_555
H121 C114 1_555 1_555
H122 C114 1_555 1_555
C115 C114 1_555 1_555
H123 C115 1_555 1_555
H124 C115 1_555 1_555
C116 C115 1_555 1_555
H125 C116 1_555 1_555
H126 C116 1_555 1_555
C117 C112 1_555 1_555
H127 C117 1_555 1_555
H128 C117 1_555 1_555
Zn2B N21 1_555 1_555
Zn5B N15 1_555 1_555
N9B Zn6 1_555 1_555
N15B Zn5 1_555 1_555
N21B Zn2 1_555 1_555
Zn6B N9 1_555 1_555
C4 C5 1_555 1_555
C9 C10 1_555 1_555
C14 C15 1_555 1_555
N4 C17 1_555 1_555
N5 C18 1_555 1_555
C18 N6 1_555 1_555
C22 C23 1_555 1_555
C27 C28 1_555 1_555
C32 C33 1_555 1_555
N10 C35 1_555 1_555
N11 C36 1_555 1_555
C36 N12 1_555 1_555
C40 C41 1_555 1_555
C45 C46 1_555 1_555
C50 C51 1_555 1_555
N16 C53 1_555 1_555
N17 C54 1_555 1_555
C54 N18 1_555 1_555
C58 C59 1_555 1_555
C63 C64 1_555 1_555
C68 C69 1_555 1_555
N22 C71 1_555 1_555
N23 C72 1_555 1_555
C72 N24 1_555 1_555
C75 C76 1_555 1_555
C79 C80 1_555 1_555
C92 C93 1_555 1_555
C98 C99 1_555 1_555
C104 C105 1_555 1_555
C110 C111 1_555 1_555
C116 C117 1_555 1_555

#END
