
#######################################################################
#
#                 Cambridge Crystallographic Data Centre
#                                CCDC 
#
#######################################################################
#
# If this CIF has been generated from an entry in the Cambridge 
# Structural Database, then it will include bibliographic, chemical, 
# crystal, experimental, refinement or atomic coordinate data resulting 
# from the CCDC's data processing and validation procedures.
#
#######################################################################

data_HABRUZ
_chemical_formula_moiety         '(C72 H80 B2 Cd4 N26 O15)n'
_symmetry_cell_setting           triclinic
_symmetry_space_group_name_H-M   'P -1'
_symmetry_Int_Tables_number      2
_space_group_name_Hall           '-P 1'
loop_
_symmetry_equiv_pos_site_id
_symmetry_equiv_pos_as_xyz
1 x,y,z
2 -x,-y,-z
_cell_length_a                   9.3195(2)
_cell_length_b                   14.2603(2)
_cell_length_c                   18.4982(4)
_cell_angle_alpha                105.307(1)
_cell_angle_beta                 99.077(1)
_cell_angle_gamma                95.406(1)
_cell_volume                     2317.54
loop_
_atom_site_label
_atom_site_type_symbol
_atom_site_fract_x
_atom_site_fract_y
_atom_site_fract_z
Cd1 Cd 0.95105(3) 0.70657(2) 0.316525(16)
Cd2 Cd 0.82297(3) 0.82311(2) -0.260940(16)
B1 B 1.3085(5) 0.9382(3) 0.6055(3)
O1 O 0.9217(17) 0.8996(11) -0.1222(8)
O2 O 0.7029(19) 0.8045(13) -0.1589(12)
O3 O 1.0073(3) 0.8116(2) 0.23809(17)
O4 O 0.8077(3) 0.7016(2) 0.19646(17)
O5 O 0.6918(4) 0.6808(2) -0.32505(18)
O6 O 0.7750(4) 0.7221(3) -0.4176(2)
O7 O 0.7907(4) 0.5984(2) 0.3483(2)
N1 N 1.2269(3) 0.9103(2) 0.66503(18)
N2 N 1.0440(4) 0.8695(2) 0.71924(19)
N3 N 1.6844(4) 0.9268(3) 0.69889(19)
N4 N 1.4746(3) 0.9546(2) 0.63906(18)
N5 N 1.2744(3) 0.8573(2) 0.52853(19)
N6 N 1.1476(4) 0.7633(3) 0.4164(2)
N7 N 0.9988(6) 0.4306(3) 0.1581(3)
N8 N 1.0331(4) 0.5694(3) 0.2483(2)
N9 N 1.1739(4) 1.1766(2) 0.61875(19)
N10 N 1.2600(3) 1.0338(2) 0.59344(18)
N11 N 0.6313(5) 0.4861(4) 0.2543(3)
N12 N 0.8032(6) 0.4387(4) 0.3358(3)
C1 C 1.0884(4) 0.8652(3) 0.6543(2)
C2 C 1.2705(5) 0.9467(4) 0.7436(3)
C3 C 1.1591(5) 0.9212(4) 0.7758(3)
C4 C 1.5447(5) 0.8949(4) 0.6729(3)
C5 C 1.7079(5) 1.0136(4) 0.6817(3)
C6 C 1.5802(5) 1.0320(3) 0.6453(3)
C7 C 1.1535(5) 0.8407(3) 0.4741(2)
C8 C 1.2766(6) 0.7286(4) 0.4344(3)
H1 H 1.3062 0.6734 0.4042
C9 C 1.3545(6) 0.7851(4) 0.5018(3)
C10 C 0.9500(6) 0.5153(4) 0.1839(3)
C11 C 1.1181(8) 0.4284(4) 0.2070(4)
C12 C 1.1393(7) 0.5137(5) 0.2623(4)
C13 C 1.1916(5) 1.0965(3) 0.6403(2)
C14 C 1.2324(5) 1.1657(3) 0.5543(3)
C15 C 1.2839(5) 1.0795(3) 0.5377(3)
C16 C 0.8318(6) 0.8324(4) -0.1110(3)
C17 C 0.8438(5) 0.8202(3) -0.0324(2)
C18 C 0.9529(6) 0.8750(4) 0.0263(3)
C19 C 0.9694(6) 0.8597(4) 0.0975(3)
C20 C 0.8776(5) 0.7882(3) 0.1111(2)
C21 C 0.7676(6) 0.7339(4) 0.0524(3)
C22 C 0.7494(7) 0.7499(4) -0.0189(3)
C23 C 0.8987(5) 0.7663(3) 0.1867(2)
C24 C 0.6961(5) 0.6677(3) -0.3941(3)
C25 C 0.5957(4) 0.5799(3) -0.4490(2)
C26 C 0.5158(6) 0.5137(3) -0.4230(3)
C27 C 0.5786(6) 0.5659(3) -0.5270(3)
C28 C 0.7448(6) 0.5106(4) 0.3139(3)
C29 C 0.5736(11) 0.3857(8) 0.2104(5)
H2 H 0.4747 0.3702 0.2183
H3 H 0.5685 0.3797 0.1566
C30 C 0.6602(19) 0.3184(8) 0.2310(9)
H4 H 0.5962 0.2566 0.2196
H5 H 0.7300 0.3080 0.1969
C31 C 0.7383(15) 0.3358(6) 0.3035(7)
H6 H 0.8156 0.2947 0.3026
H7 H 0.6739 0.3183 0.3357
C32 C 0.5583(7) 0.5633(7) 0.2354(6)
H8 H 0.6072 0.6257 0.2685
H9 H 0.4581 0.5545 0.2418
H10 H 0.5608 0.5612 0.1834
C33 C 0.9175(9) 0.4634(8) 0.4031(6)
H11 H 0.9516 0.5327 0.4181
H12 H 0.9976 0.4278 0.3921
H13 H 0.8793 0.4462 0.4438
H26 H 1.363(5) 0.981(3) 0.768(2)
H27 H 1.163(4) 1.087(2) 0.683(2)
H28 H 1.505(4) 0.836(3) 0.675(2)
H29 H 0.528(5) 0.517(4) -0.374(3)
H30 H 1.555(4) 1.085(3) 0.626(2)
H31 H 1.029(4) 0.834(3) 0.608(2)
H32 H 1.224(4) 1.209(3) 0.530(2)
H33 H 0.709(5) 0.687(4) 0.062(3)
H34 H 1.086(5) 0.880(3) 0.477(3)
H35 H 1.153(5) 0.931(3) 0.822(3)
H36 H 0.951(5) 0.387(4) 0.114(3)
H37 H 1.324(5) 1.048(3) 0.498(3)
H38 H 1.175(5) 0.383(3) 0.203(3)
H39 H 1.795(5) 1.048(3) 0.694(3)
H40 H 1.040(5) 0.900(3) 0.139(3)
H41 H 0.667(6) 0.709(4) -0.058(3)
H42 H 1.014(6) 0.925(4) 0.017(3)
H43 H 1.448(7) 0.785(4) 0.535(3)
H44 H 0.841(5) 0.535(3) 0.158(3)
H45 H 1.185(6) 0.533(4) 0.310(3)
H46 H 0.634(6) 0.611(4) -0.545(3)
Cd1A Cd 1.04895(3) 1.29343(2) 0.683475(16)
Cd2_2 Cd 0.82297(3) 0.82311(2) 0.739060(16)
Cd2_3 Cd 1.82297(3) 0.82311(2) 0.739060(16)
Cd2A Cd 0.17703(3) 0.17689(2) -0.739060(16)
Cd2A_2 Cd 1.17703(3) 1.17689(2) 0.260940(16)
Cd2A_3 Cd 0.17703(3) 1.17689(2) 0.260940(16)
Cd2A_4 Cd 1.17703(3) 1.17689(2) 1.260940(16)
B1A B 0.6915(5) 1.0618(3) 0.3945(3)
O1A O 1.0783(17) 1.1004(11) 1.1222(8)
O1_2 O 0.9217(17) 0.8996(11) 0.8778(8)
O2A O 1.2971(19) 1.1955(13) 1.1589(12)
O2_2 O 0.7029(19) 0.8045(13) 0.8411(12)
O3A O 0.9927(3) 1.1884(2) 0.76191(17)
O4A O 1.1923(3) 1.2984(2) 0.80354(17)
O5A O 0.3082(4) 0.3192(2) -0.67495(18)
O5_2 O 0.6918(4) 0.6808(2) 0.67495(18)
O6A O 0.2250(4) 0.2779(3) -0.5824(2)
O7A O 1.2093(4) 1.4016(2) 0.6517(2)
N1A N 0.7731(3) 1.0897(2) 0.33497(18)
N2A N 0.9560(4) 1.1305(2) 0.28076(19)
N2_2 N 1.0440(4) 0.8695(2) -0.28076(19)
N3A N 0.3156(4) 1.0732(3) 0.30111(19)
N3_2 N 0.6844(4) 0.9268(3) -0.30111(19)
N3_3 N 0.6844(4) 0.9268(3) 0.69889(19)
N4A N 0.5254(3) 1.0454(2) 0.36094(18)
N5A N 0.7256(3) 1.1427(2) 0.47147(19)
N6A N 0.8524(4) 1.2367(3) 0.5836(2)
N7A N 1.0012(6) 1.5694(3) 0.8419(3)
N8A N 0.9669(4) 1.4306(3) 0.7517(2)
N9A N 0.8261(4) 0.8234(2) 0.38125(19)
N10A N 0.7400(3) 0.9662(2) 0.40656(18)
N11A N 1.3687(5) 1.5139(4) 0.7457(3)
N12A N 1.1968(6) 1.5613(4) 0.6642(3)
C1A C 0.9116(4) 1.1348(3) 0.3457(2)
C2A C 0.7295(5) 1.0533(4) 0.2564(3)
C3A C 0.8409(5) 1.0788(4) 0.2242(3)
C4A C 0.4553(5) 1.1051(4) 0.3271(3)
C5A C 0.2921(5) 0.9864(4) 0.3183(3)
C6A C 0.4198(5) 0.9680(3) 0.3547(3)
C7A C 0.8465(5) 1.1593(3) 0.5259(2)
C8A C 0.7234(6) 1.2714(4) 0.5656(3)
H1A H 0.6938 1.3266 0.5958
C9A C 0.6455(6) 1.2149(4) 0.4982(3)
C10A C 1.0500(6) 1.4847(4) 0.8161(3)
C11A C 0.8819(8) 1.5716(4) 0.7930(4)
C12A C 0.8607(7) 1.4863(5) 0.7377(4)
C13A C 0.8084(5) 0.9035(3) 0.3597(2)
C14A C 0.7676(5) 0.8343(3) 0.4457(3)
C15A C 0.7161(5) 0.9205(3) 0.4623(3)
C16A C 1.1682(6) 1.1676(4) 1.1110(3)
C17A C 1.1562(5) 1.1798(3) 1.0324(2)
C18A C 1.0471(6) 1.1250(4) 0.9737(3)
C19A C 1.0306(6) 1.1403(4) 0.9025(3)
C20A C 1.1224(5) 1.2118(3) 0.8889(2)
C21A C 1.2324(6) 1.2661(4) 0.9476(3)
C22A C 1.2506(7) 1.2501(4) 1.0189(3)
C23A C 1.1013(5) 1.2337(3) 0.8133(2)
C24A C 0.3039(5) 0.3323(3) -0.6059(3)
C25A C 0.4043(4) 0.4201(3) -0.5510(2)
C26A C 0.4842(6) 0.4863(3) -0.5770(3)
C27A C 0.4214(6) 0.4341(3) -0.4730(3)
C28A C 1.2552(6) 1.4894(4) 0.6861(3)
C29A C 1.4264(11) 1.6143(8) 0.7896(5)
H2A H 1.5253 1.6298 0.7817
H3A H 1.4315 1.6203 0.8434
C30A C 1.3398(19) 1.6816(8) 0.7690(9)
H4A H 1.4038 1.7434 0.7804
H5A H 1.2700 1.6920 0.8031
C31A C 1.2617(15) 1.6642(6) 0.6965(7)
H6A H 1.1844 1.7053 0.6974
H7A H 1.3261 1.6817 0.6643
C32A C 1.4417(7) 1.4367(7) 0.7646(6)
H8A H 1.3928 1.3743 0.7315
H9A H 1.5419 1.4455 0.7582
H10A H 1.4392 1.4388 0.8166
C33A C 1.0825(9) 1.5366(8) 0.5969(6)
H11A H 1.0484 1.4673 0.5819
H12A H 1.0024 1.5722 0.6079
H13A H 1.1207 1.5538 0.5562
H26A H 0.637(5) 1.019(3) 0.232(2)
H27A H 0.837(4) 0.913(2) 0.317(2)
H28A H 0.495(4) 1.164(3) 0.325(2)
H29A H 0.472(5) 0.483(4) -0.626(3)
H30A H 0.445(4) 0.915(3) 0.374(2)
H31A H 0.971(4) 1.166(3) 0.392(2)
H32A H 0.776(4) 0.791(3) 0.470(2)
H33A H 1.291(5) 1.313(4) 0.938(3)
H34A H 0.914(5) 1.120(3) 0.523(3)
H35A H 0.847(5) 1.069(3) 0.178(3)
H36A H 1.049(5) 1.613(4) 0.886(3)
H37A H 0.676(5) 0.952(3) 0.502(3)
H38A H 0.825(5) 1.617(3) 0.797(3)
H39A H 0.205(5) 0.952(3) 0.306(3)
H40A H 0.960(5) 1.100(3) 0.861(3)
H41A H 1.333(6) 1.291(4) 1.058(3)
H42A H 0.986(6) 1.075(4) 0.983(3)
H43A H 0.552(7) 1.215(4) 0.465(3)
H44A H 1.159(5) 1.465(3) 0.842(3)
H45A H 0.815(6) 1.467(4) 0.690(3)
H46A H 0.366(6) 0.389(4) -0.455(3)
O8 O 0.2105(6) 0.6916(4) 0.9531(3)
N13 N 0.3491(7) 0.8207(4) 1.0372(3)
N14 N 0.2643(7) 0.6878(5) 1.0754(3)
C34 C 0.2707(8) 0.7306(5) 1.0203(4)
C35 C 0.4276(11) 0.8728(7) 1.1130(5)
H14 H 0.3725 0.9234 1.1360
H15 H 0.5218 0.9048 1.1097
C36 C 0.4517(10) 0.8080(8) 1.1624(5)
H16 H 0.5305 0.7711 1.1488
H17 H 0.4824 0.8479 1.2150
C37 C 0.3211(9) 0.7394(7) 1.1564(4)
H18 H 0.2470 0.7748 1.1783
H19 H 0.3456 0.6925 1.1844
C38 C 0.3501(12) 0.8713(7) 0.9795(6)
H20 H 0.2941 0.8298 0.9318
H21 H 0.4493 0.8874 0.9739
H22 H 0.3074 0.9305 0.9942
C39 C 0.1682(11) 0.5963(7) 1.0585(6)
H23 H 0.1391 0.5693 1.0042
H24 H 0.0827 0.6078 1.0806
H25 H 0.2187 0.5510 1.0794
loop_
_geom_bond_atom_site_label_1
_geom_bond_atom_site_label_2
_geom_bond_site_symmetry_1
_geom_bond_site_symmetry_2
Cd1 O3 1_555 1_555
Cd2 O1 1_555 1_555
B1 N1 1_555 1_555
O1 C16 1_555 1_555
O2 Cd2 1_555 1_555
O3 C23 1_555 1_555
O4 Cd1 1_555 1_555
O5 Cd2 1_555 1_555
O6 C24 1_555 1_555
O7 Cd1 1_555 1_555
O8 C34 1_555 1_555
N1 C1 1_555 1_555
N2 C1 1_555 1_555
N3 C4 1_555 1_555
N4 B1 1_555 1_555
N5 B1 1_555 1_555
N6 Cd1 1_555 1_555
N7 C10 1_555 1_555
N8 Cd1 1_555 1_555
N9 C13 1_555 1_555
N10 B1 1_555 1_555
N11 C28 1_555 1_555
N12 C28 1_555 1_555
N13 C34 1_555 1_555
N14 C34 1_555 1_555
C1 H31 1_555 1_555
C2 N1 1_555 1_555
C3 N2 1_555 1_555
C4 N4 1_555 1_555
C5 N3 1_555 1_555
C6 N4 1_555 1_555
C7 N5 1_555 1_555
C8 N6 1_555 1_555
H1 C8 1_555 1_555
C9 N5 1_555 1_555
C10 N8 1_555 1_555
C11 N7 1_555 1_555
C12 N8 1_555 1_555
C13 N10 1_555 1_555
C14 N9 1_555 1_555
C15 N10 1_555 1_555
C16 O2 1_555 1_555
C17 C16 1_555 1_555
C18 C17 1_555 1_555
C19 C18 1_555 1_555
C20 C19 1_555 1_555
C21 C20 1_555 1_555
C22 C17 1_555 1_555
C23 O4 1_555 1_555
C24 O5 1_555 1_555
C25 C24 1_555 1_555
C26 C25 1_555 1_555
C27 C25 1_555 1_555
C28 O7 1_555 1_555
C29 N11 1_555 1_555
H2 C29 1_555 1_555
H3 C29 1_555 1_555
C30 C29 1_555 1_555
H4 C30 1_555 1_555
H5 C30 1_555 1_555
C31 N12 1_555 1_555
H6 C31 1_555 1_555
H7 C31 1_555 1_555
C32 N11 1_555 1_555
H8 C32 1_555 1_555
H9 C32 1_555 1_555
H10 C32 1_555 1_555
C33 N12 1_555 1_555
H11 C33 1_555 1_555
H12 C33 1_555 1_555
H13 C33 1_555 1_555
C35 N13 1_555 1_555
H14 C35 1_555 1_555
H15 C35 1_555 1_555
C36 C35 1_555 1_555
H16 C36 1_555 1_555
H17 C36 1_555 1_555
C37 N14 1_555 1_555
H18 C37 1_555 1_555
H19 C37 1_555 1_555
C38 N13 1_555 1_555
H20 C38 1_555 1_555
H21 C38 1_555 1_555
H22 C38 1_555 1_555
C39 N14 1_555 1_555
H23 C39 1_555 1_555
H24 C39 1_555 1_555
H25 C39 1_555 1_555
H26 C2 1_555 1_555
H27 C13 1_555 1_555
H28 C4 1_555 1_555
H29 C26 1_555 1_555
H30 C6 1_555 1_555
H32 C14 1_555 1_555
H33 C21 1_555 1_555
H34 C7 1_555 1_555
H35 C3 1_555 1_555
H36 N7 1_555 1_555
H37 C15 1_555 1_555
H38 C11 1_555 1_555
H39 C5 1_555 1_555
H40 C19 1_555 1_555
H41 C22 1_555 1_555
H42 C18 1_555 1_555
H43 C9 1_555 1_555
H44 C10 1_555 1_555
H45 C12 1_555 1_555
H46 C27 1_555 1_555
Cd1A N9 1_555 1_555
Cd2_2 N2 1_555 1_555
Cd2_3 N3 1_555 1_555
Cd2A O5A 1_555 1_555
Cd2A_2 N2A 1_555 1_555
Cd2A_3 N3A 1_555 1_555
Cd2A_4 O1A 1_555 1_555
B1A N1A 1_555 1_555
O1A C16A 1_555 1_555
O1_2 Cd2_2 1_555 1_555
O2A Cd2A_4 1_555 1_555
O2_2 Cd2_2 1_555 1_555
O3A Cd1A 1_555 1_555
O4A Cd1A 1_555 1_555
O5A C24A 1_555 1_555
O5_2 Cd2_2 1_555 1_555
O6A C24A 1_555 1_555
O7A Cd1A 1_555 1_555
N1A C1A 1_555 1_555
N2A C1A 1_555 1_555
N2_2 Cd2 1_555 1_555
N3A C4A 1_555 1_555
N3_2 Cd2 1_555 1_555
N3_3 Cd2_2 1_555 1_555
N4A B1A 1_555 1_555
N5A B1A 1_555 1_555
N6A Cd1A 1_555 1_555
N7A C10A 1_555 1_555
N8A Cd1A 1_555 1_555
N9A Cd1 1_555 1_555
N10A B1A 1_555 1_555
N11A C28A 1_555 1_555
N12A C28A 1_555 1_555
C1A H31A 1_555 1_555
C2A N1A 1_555 1_555
C3A N2A 1_555 1_555
C4A N4A 1_555 1_555
C5A N3A 1_555 1_555
C6A N4A 1_555 1_555
C7A N5A 1_555 1_555
C8A N6A 1_555 1_555
H1A C8A 1_555 1_555
C9A N5A 1_555 1_555
C10A N8A 1_555 1_555
C11A N7A 1_555 1_555
C12A N8A 1_555 1_555
C13A N9A 1_555 1_555
C14A N9A 1_555 1_555
C15A N10A 1_555 1_555
C16A O2A 1_555 1_555
C17A C16A 1_555 1_555
C18A C17A 1_555 1_555
C19A C18A 1_555 1_555
C20A C19A 1_555 1_555
C21A C20A 1_555 1_555
C22A C17A 1_555 1_555
C23A O3A 1_555 1_555
C24A C25A 1_555 1_555
C25A C26A 1_555 1_555
C26A C27 1_555 1_555
C27A C26 1_555 1_555
C28A O7A 1_555 1_555
C29A N11A 1_555 1_555
H2A C29A 1_555 1_555
H3A C29A 1_555 1_555
C30A C29A 1_555 1_555
H4A C30A 1_555 1_555
H5A C30A 1_555 1_555
C31A N12A 1_555 1_555
H6A C31A 1_555 1_555
H7A C31A 1_555 1_555
C32A N11A 1_555 1_555
H8A C32A 1_555 1_555
H9A C32A 1_555 1_555
H10A C32A 1_555 1_555
C33A N12A 1_555 1_555
H11A C33A 1_555 1_555
H12A C33A 1_555 1_555
H13A C33A 1_555 1_555
H26A C2A 1_555 1_555
H27A C13A 1_555 1_555
H28A C4A 1_555 1_555
H29A C26A 1_555 1_555
H30A C6A 1_555 1_555
H32A C14A 1_555 1_555
H33A C21A 1_555 1_555
H34A C7A 1_555 1_555
H35A C3A 1_555 1_555
H36A N7A 1_555 1_555
H37A C15A 1_555 1_555
H38A C11A 1_555 1_555
H39A C5A 1_555 1_555
H40A C19A 1_555 1_555
H41A C22A 1_555 1_555
H42A C18A 1_555 1_555
H43A C9A 1_555 1_555
H44A C10A 1_555 1_555
H45A C12A 1_555 1_555
H46A C27A 1_555 1_555
N6 C7 1_555 1_555
C2 C3 1_555 1_555
C5 C6 1_555 1_555
C8 C9 1_555 1_555
C11 C12 1_555 1_555
C14 C15 1_555 1_555
C20 C23 1_555 1_555
C21 C22 1_555 1_555
C30 C31 1_555 1_555
C36 C37 1_555 1_555
O4A C23A 1_555 1_555
N6A C7A 1_555 1_555
N10A C13A 1_555 1_555
C2A C3A 1_555 1_555
C5A C6A 1_555 1_555
C8A C9A 1_555 1_555
C11A C12A 1_555 1_555
C14A C15A 1_555 1_555
C20A C23A 1_555 1_555
C21A C22A 1_555 1_555
C25A C27A 1_555 1_555
C30A C31A 1_555 1_555

#END
