
#######################################################################
#
#                 Cambridge Crystallographic Data Centre
#                                CCDC 
#
#######################################################################
#
# If this CIF has been generated from an entry in the Cambridge 
# Structural Database, then it will include bibliographic, chemical, 
# crystal, experimental, refinement or atomic coordinate data resulting 
# from the CCDC's data processing and validation procedures.
#
#######################################################################

data_VAGTAA02
_chemical_formula_moiety         '(C14 H18 Mg1 N2 O8)n'
_symmetry_cell_setting           monoclinic
_symmetry_space_group_name_H-M   'C 2/c'
_symmetry_Int_Tables_number      15
_space_group_name_Hall           '-C 2yc'
loop_
_symmetry_equiv_pos_site_id
_symmetry_equiv_pos_as_xyz
1 x,y,z
2 -x,y,1/2-z
3 1/2+x,1/2+y,z
4 1/2-x,1/2+y,1/2-z
5 -x,-y,-z
6 x,-y,1/2+z
7 1/2-x,1/2-y,-z
8 1/2+x,1/2-y,1/2+z
_cell_length_a                   16.703(11)
_cell_length_b                   11.725(8)
_cell_length_c                   9.533(6)
_cell_angle_alpha                90
_cell_angle_beta                 114.850(13)
_cell_angle_gamma                90
_cell_volume                     1694.11
loop_
_atom_site_label
_atom_site_type_symbol
_atom_site_fract_x
_atom_site_fract_y
_atom_site_fract_z
_atom_site_U_iso_or_equiv
_atom_site_thermal_displace_type
C1 C -0.0798(2) 0.2096(3) -0.1998(4) 0.0527 Uani
H1 H -0.1003 0.1631 -0.2869 0.0630 Uiso
C2 C -0.1663(5) 0.3612(5) -0.3668(6) 0.1055 Uani
H2 H -0.1692 0.3096 -0.4470 0.1580 Uiso
H3 H -0.1455 0.4341 -0.3831 0.1580 Uiso
H4 H -0.2239 0.3695 -0.3687 0.1580 Uiso
C3 C -0.0820(5) 0.3896(4) -0.0858(7) 0.1059 Uani
H5 H -0.1241 0.3814 -0.0423 0.1590 Uiso
H6 H -0.0814 0.4673 -0.1171 0.1590 Uiso
H7 H -0.0244 0.3692 -0.0099 0.1590 Uiso
C4 C 0.11996(17) 0.0759(2) 0.3445(3) 0.0360 Uani
C5 C 0.23819(19) 0.1601(2) 0.5827(3) 0.0387 Uani
H8 H 0.2296 0.0998 0.6382 0.0460 Uiso
C6 C 0.18706(18) 0.1667(2) 0.4232(3) 0.0356 Uani
C7 C 0.19914(19) 0.2589(3) 0.3413(3) 0.0412 Uani
Mg1 Mg 0.0000 0.0000 0.0000 0.0344 Uani
N1 N -0.1059(2) 0.3161(2) -0.2176(4) 0.0582 Uani
O1 O 0.08939(15) 0.0738(2) 0.1982(2) 0.0514 Uani
O2 O 0.09976(14) 0.00756(17) 0.4238(3) 0.0434 Uani
O3 O -0.03049(16) 0.16724(18) -0.0771(3) 0.0535 Uani
O4 O 0.1510(2) 0.2766(3) 0.1877(3) 0.0826 Uani
H9 H 0.1237 0.2184 0.1479 0.1240 Uiso
C4F C 0.38004(17) 0.4241(2) 0.6555(3) 0.0360 Uani
C5F C 0.26181(19) 0.3399(2) 0.4173(3) 0.0387 Uani
H8F H 0.2704 0.4002 0.3618 0.0460 Uiso
C6F C 0.31294(18) 0.3333(2) 0.5768(3) 0.0356 Uani
C7F C 0.30086(19) 0.2411(3) 0.6587(3) 0.0412 Uani
O1F O 0.41061(15) 0.4262(2) 0.8018(2) 0.0514 Uani
O4F O 0.3490(2) 0.2234(3) 0.8123(3) 0.0826 Uani
H9F H 0.3763 0.2816 0.8521 0.1240 Uiso
O2F O 0.40024(14) 0.49244(17) 0.5762(3) 0.0434 Uani
C1D C 0.0798(2) -0.2096(3) 0.1998(4) 0.0527 Uani
H1D H 0.1003 -0.1631 0.2869 0.0630 Uiso
C2D C 0.1663(5) -0.3612(5) 0.3668(6) 0.1055 Uani
H2D H 0.1692 -0.3096 0.4470 0.1580 Uiso
H3D H 0.1455 -0.4341 0.3831 0.1580 Uiso
H4D H 0.2239 -0.3695 0.3687 0.1580 Uiso
C3D C 0.0820(5) -0.3896(4) 0.0858(7) 0.1059 Uani
H5D H 0.1241 -0.3814 0.0423 0.1590 Uiso
H6D H 0.0814 -0.4673 0.1171 0.1590 Uiso
H7D H 0.0244 -0.3692 0.0099 0.1590 Uiso
N1D N 0.1059(2) -0.3161(2) 0.2176(4) 0.0582 Uani
O3D O 0.03049(16) -0.16724(18) 0.0771(3) 0.0535 Uani
Mg1A Mg 0.0000 0.0000 0.5000 0.0344 Uani
Mg1B Mg 0.5000 0.5000 1.0000 0.0344 Uani
Mg1C Mg 0.5000 0.5000 0.5000 0.0344 Uani
O1D O -0.08939(15) -0.0738(2) -0.1982(2) 0.0514 Uani
O2A O -0.09976(14) 0.00756(17) 0.0762(3) 0.0434 Uani
O2E O 0.09976(14) -0.00756(17) -0.0762(3) 0.0434 Uani
loop_
_atom_site_aniso_label
_atom_site_aniso_U_11
_atom_site_aniso_U_22
_atom_site_aniso_U_33
_atom_site_aniso_U_23
_atom_site_aniso_U_13
_atom_site_aniso_U_12
C1 0.064(2) 0.0403(16) 0.058(2) -0.0030(15) 0.0298(18) 0.0020(15)
C2 0.131(5) 0.082(3) 0.089(4) 0.031(3) 0.032(3) 0.030(3)
C3 0.133(5) 0.051(2) 0.111(4) -0.022(3) 0.029(4) -0.002(3)
C4 0.0339(13) 0.0371(14) 0.0347(14) -0.0062(11) 0.0122(11) -0.0031(11)
C5 0.0436(15) 0.0387(15) 0.0294(13) 0.0031(11) 0.0110(11) -0.0068(12)
C6 0.0341(13) 0.0385(15) 0.0294(13) -0.0059(11) 0.0087(11) -0.0066(11)
C7 0.0416(14) 0.0499(17) 0.0241(12) -0.0010(11) 0.0059(11) -0.0084(12)
Mg1 0.0369(7) 0.0314(7) 0.0292(7) -0.0037(5) 0.0082(5) -0.0021(5)
N1 0.0685(18) 0.0399(15) 0.0659(19) 0.0064(13) 0.0278(16) 0.0062(13)
O1 0.0531(12) 0.0592(14) 0.0325(11) -0.0129(10) 0.0087(9) -0.0205(11)
O2 0.0423 0.0409 0.0453 -0.002 0.0167 -0.0081
O3 0.0603(14) 0.0375(12) 0.0581(15) 0.0060(10) 0.0205(12) 0.0051(10)
O4 0.096(2) 0.085(2) 0.0377(14) 0.0087(13) -0.0003(14) -0.0371(17)
C4F 0.0339 0.0371 0.0347 -0.0062 0.0122 -0.0031
C5F 0.0436 0.0387 0.0294 0.0031 0.011 -0.0068
C6F 0.0341 0.0385 0.0294 -0.0059 0.0087 -0.0066
C7F 0.0416 0.0499 0.0241 -0.001 0.0059 -0.0084
O1F 0.0531 0.0592 0.0325 -0.0129 0.0087 -0.0205
O4F 0.096 0.085 0.0377 0.0087 -0.0003 -0.0371
O2F 0.0423 0.0409 0.0453 -0.002 0.0167 -0.0081
C1D 0.064 0.0403 0.058 -0.003 0.0298 0.002
C2D 0.131 0.082 0.089 0.031 0.032 0.03
C3D 0.133 0.051 0.111 -0.022 0.029 -0.002
N1D 0.0685 0.0399 0.0659 0.0064 0.0278 0.0062
O3D 0.0603 0.0375 0.0581 0.006 0.0205 0.0051
Mg1A 0.0369 0.0314 0.0292 0.0037 0.0082 0.0021
Mg1B 0.0369 0.0314 0.0292 -0.0037 0.0082 -0.0021
Mg1C 0.0369 0.0314 0.0292 0.0037 0.0082 0.0021
O1D 0.0531 0.0592 0.0325 -0.0129 0.0087 -0.0205
O2A 0.0423 0.0409 0.0453 0.002 0.0167 0.0081
O2E 0.0423 0.0409 0.0453 0.002 0.0167 0.0081
loop_
_geom_bond_atom_site_label_1
_geom_bond_atom_site_label_2
_geom_bond_site_symmetry_1
_geom_bond_site_symmetry_2
C1 H1 1_555 1_555
C2 H2 1_555 1_555
H3 C2 1_555 1_555
H4 C2 1_555 1_555
C3 H5 1_555 1_555
H6 C3 1_555 1_555
H7 C3 1_555 1_555
C4 C6 1_555 1_555
C5 H8 1_555 1_555
C6 C5 1_555 1_555
C7 C6 1_555 1_555
Mg1 O1 1_555 1_555
N1 C1 1_555 1_555
O1 C4 1_555 1_555
O2 C4 1_555 1_555
O3 C1 1_555 1_555
O4 C7 1_555 1_555
H9 O4 1_555 1_555
C4F C6F 1_555 1_555
C5F C7 1_555 1_555
H8F C5F 1_555 1_555
C6F C5F 1_555 1_555
C7F C5 1_555 1_555
O1F C4F 1_555 1_555
O4F C7F 1_555 1_555
H9F O4F 1_555 1_555
O2F C4F 1_555 1_555
C1D H1D 1_555 1_555
C2D H2D 1_555 1_555
H3D C2D 1_555 1_555
H4D C2D 1_555 1_555
C3D H5D 1_555 1_555
H6D C3D 1_555 1_555
H7D C3D 1_555 1_555
N1D C1D 1_555 1_555
O3D Mg1 1_555 1_555
Mg1A O2 1_555 1_555
Mg1B O1F 1_555 1_555
Mg1C O2F 1_555 1_555
O1D Mg1 1_555 1_555
O2A Mg1 1_555 1_555
O2E Mg1 1_555 1_555
C2 N1 1_555 1_555
C3 N1 1_555 1_555
Mg1 O3 1_555 1_555
C6F C7F 1_555 1_555
C1D O3D 1_555 1_555
C2D N1D 1_555 1_555
C3D N1D 1_555 1_555

#END
