
#######################################################################
#
#                 Cambridge Crystallographic Data Centre
#                                CCDC 
#
#######################################################################
#
# If this CIF has been generated from an entry in the Cambridge 
# Structural Database, then it will include bibliographic, chemical, 
# crystal, experimental, refinement or atomic coordinate data resulting 
# from the CCDC's data processing and validation procedures.
#
#######################################################################

data_BEPLUF
_chemical_formula_moiety         '(C10 H12 N2 O4 Zn1)n'
_symmetry_cell_setting           hexagonal
_symmetry_space_group_name_H-M   'P 61'
_symmetry_Int_Tables_number      169
_space_group_name_Hall           'P 61'
loop_
_symmetry_equiv_pos_site_id
_symmetry_equiv_pos_as_xyz
1 x,y,z
2 x-y,x,1/6+z
3 -y,x-y,1/3+z
4 -x,-y,1/2+z
5 -x+y,-x,2/3+z
6 y,-x+y,5/6+z
_cell_length_a                   17.686(2)
_cell_length_b                   17.686(2)
_cell_length_c                   10.1964(13)
_cell_angle_alpha                90
_cell_angle_beta                 90
_cell_angle_gamma                120
_cell_volume                     2762.08
loop_
_atom_site_label
_atom_site_type_symbol
_atom_site_fract_x
_atom_site_fract_y
_atom_site_fract_z
C1 C 0.7050(7) 0.1534(7) 0.8533(12)
H1 H 0.6720 0.1080 0.7954
C2 C 0.7912(8) 0.2130(8) 0.8194(12)
H2 H 0.8147 0.2066 0.7414
C3 C 0.8413(7) 0.2817(7) 0.9031(10)
C4 C 0.8046(8) 0.2846(7) 1.0177(11)
H3 H 0.8373 0.3282 1.0783
C5 C 0.7178(9) 0.2226(8) 1.0463(10)
H4 H 0.6936 0.2260 1.1255
C6 C 0.9351(7) 0.3508(7) 0.8667(12)
H5 H 0.9757 0.3483 0.9283
H6 H 0.9489 0.3390 0.7796
C7 C 0.8901(7) 0.4478(10) 0.7676(10)
H7 H 0.8407 0.3903 0.7458
C8 C 0.9451(6) 0.4887(8) 0.6434(10)
C9 C 0.8554(10) 0.5062(13) 0.8173(11)
H8 H 0.8103 0.4750 0.8809
H9 H 0.8320 0.5229 0.7451
H10 H 0.9021 0.5576 0.8571
C10 C 0.4153(17) 0.1077(14) 1.083(2)
H11 H 0.3839 0.1370 1.0834
N1 N 0.9440(5) 0.4378(8) 0.8700(8)
H12 H 0.9256 0.4452 0.9498
N2 N 0.6685(6) 0.1578(6) 0.9607(8)
O1 O 1.0263(4) 0.5234(6) 0.6499(7)
O2 O 0.9017(5) 0.4816(8) 0.5440(7)
O3 O 0.4778(9) 0.1394(7) 1.0100(11)
O4 O 0.3853(10) 0.0431(12) 1.157(2)
Zn1 Zn 0.54117(8) 0.07448(6) 1.01379(12)
N1A N 0.5062(9) -0.0560(5) 1.0367(8)
O1A O 0.5029(7) 0.0263(4) 0.8166(7)
O2D O 0.5799(9) 0.0983(5) 1.2107(7)
Zn1B Zn 0.92552(6) 0.46669(10) 0.34712(12)
Zn1E Zn 1.07448(6) 0.53331(10) 0.84712(12)
loop_
_geom_bond_atom_site_label_1
_geom_bond_atom_site_label_2
_geom_bond_site_symmetry_1
_geom_bond_site_symmetry_2
C1 H1 1_555 1_555
C2 C1 1_555 1_555
H2 C2 1_555 1_555
C3 C2 1_555 1_555
C4 C3 1_555 1_555
H3 C4 1_555 1_555
C5 C4 1_555 1_555
H4 C5 1_555 1_555
C6 C3 1_555 1_555
H5 C6 1_555 1_555
H6 C6 1_555 1_555
C7 H7 1_555 1_555
C8 C7 1_555 1_555
C9 C7 1_555 1_555
H8 C9 1_555 1_555
H9 C9 1_555 1_555
H10 C9 1_555 1_555
C10 H11 1_555 1_555
N1 C6 1_555 1_555
H12 N1 1_555 1_555
N2 C1 1_555 1_555
O1 C8 1_555 1_555
O2 C8 1_555 1_555
O3 C10 1_555 1_555
O4 C10 1_555 1_555
Zn1 N2 1_555 1_555
N1A Zn1 1_555 1_555
O1A Zn1 1_555 1_555
O2D Zn1 1_555 1_555
Zn1B O2 1_555 1_555
Zn1E N1 1_555 1_555
C5 N2 1_555 1_555
C7 N1 1_555 1_555
O1 Zn1E 1_555 1_555
O3 Zn1 1_555 1_555

#END
