
#######################################################################
#
#                 Cambridge Crystallographic Data Centre
#                                CCDC 
#
#######################################################################
#
# If this CIF has been generated from an entry in the Cambridge 
# Structural Database, then it will include bibliographic, chemical, 
# crystal, experimental, refinement or atomic coordinate data resulting 
# from the CCDC's data processing and validation procedures.
#
#######################################################################

data_BEPMEQ
_chemical_formula_moiety         '(C9 H11 Cl1 N2 O2 Zn1)n'
_symmetry_cell_setting           hexagonal
_symmetry_space_group_name_H-M   'P 61'
_symmetry_Int_Tables_number      169
_space_group_name_Hall           'P 61'
loop_
_symmetry_equiv_pos_site_id
_symmetry_equiv_pos_as_xyz
1 x,y,z
2 x-y,x,1/6+z
3 -y,x-y,1/3+z
4 -x,-y,1/2+z
5 -x+y,-x,2/3+z
6 y,-x+y,5/6+z
_cell_length_a                   17.6015(3)
_cell_length_b                   17.6015(3)
_cell_length_c                   10.26898(17)
_cell_angle_alpha                90
_cell_angle_beta                 90
_cell_angle_gamma                120
_cell_volume                     2755.23
loop_
_atom_site_label
_atom_site_type_symbol
_atom_site_fract_x
_atom_site_fract_y
_atom_site_fract_z
C1 C 1.2933(6) 0.8446(4) 0.1079(6)
H1 H 1.3235 0.8928 0.0535
C2 C 1.2075(6) 0.7843(4) 0.0777(7)
H2 H 1.1798 0.7936 0.0074
C3 C 1.1630(4) 0.7093(4) 0.1542(6)
C4 C 1.2048(7) 0.7014(4) 0.2609(7)
H3 H 1.1760 0.6533 0.3160
C5 C 1.2902(8) 0.7654(4) 0.2865(7)
H4 H 1.3180 0.7588 0.3590
C6 C 1.0696(4) 0.6399(4) 0.1239(6)
H5 H 1.0312 0.6418 0.1899
H6 H 1.0529 0.6534 0.0408
C7 C 1.1074(3) 0.5395(4) 0.0178(5)
H7 H 1.1631 0.5944 0.0069
C8 C 1.0573(3) 0.5170(4) -0.1121(5)
C9 C 1.1267(6) 0.4686(7) 0.0556(7)
H8 H 1.1531 0.4809 0.1405
H9 H 1.1663 0.4664 -0.0065
H10 H 1.0731 0.4132 0.0572
Cl1 Cl 0.86713(15) 0.31746(13) 0.0880(3)
N1 N 1.0567(3) 0.5524(3) 0.1186(4)
H11 H 1.0730 0.5409 0.1969
N2 N 1.3352(5) 0.8373(3) 0.2109(5)
O1 O 1.1015(3) 0.5274(4) -0.2121(4)
O2 O 0.9760(2) 0.4882(3) -0.1064(3)
Zn1 Zn 0.92429(3) 0.46247(4) 0.09169(7)
N2E N 0.8373(3) 0.5021(6) 0.0442(5)
O1C O 0.8985(3) 0.4726(4) 0.2879(4)
Zn1A Zn 1.46182(5) 0.92429(3) 0.25836(7)
Zn1C Zn 1.07571(3) 0.53753(4) -0.40831(7)
loop_
_geom_bond_atom_site_label_1
_geom_bond_atom_site_label_2
_geom_bond_site_symmetry_1
_geom_bond_site_symmetry_2
C1 H1 1_555 1_555
C2 C1 1_555 1_555
H2 C2 1_555 1_555
C3 C2 1_555 1_555
C4 C3 1_555 1_555
H3 C4 1_555 1_555
C5 C4 1_555 1_555
H4 C5 1_555 1_555
C6 C3 1_555 1_555
H5 C6 1_555 1_555
H6 C6 1_555 1_555
C7 H7 1_555 1_555
C8 C7 1_555 1_555
C9 C7 1_555 1_555
H8 C9 1_555 1_555
H9 C9 1_555 1_555
H10 C9 1_555 1_555
Cl1 Zn1 1_555 1_555
N1 C6 1_555 1_555
H11 N1 1_555 1_555
N2 C1 1_555 1_555
O1 C8 1_555 1_555
O2 C8 1_555 1_555
Zn1 N1 1_555 1_555
N2E Zn1 1_555 1_555
O1C Zn1 1_555 1_555
Zn1A N2 1_555 1_555
Zn1C O1 1_555 1_555
C5 N2 1_555 1_555
C7 N1 1_555 1_555
O2 Zn1 1_555 1_555

#END
