
#######################################################################
#
#                 Cambridge Crystallographic Data Centre
#                                CCDC 
#
#######################################################################
#
# If this CIF has been generated from an entry in the Cambridge 
# Structural Database, then it will include bibliographic, chemical, 
# crystal, experimental, refinement or atomic coordinate data resulting 
# from the CCDC's data processing and validation procedures.
#
#######################################################################

data_BEPNIV
_chemical_formula_moiety         '(C11 H17 N2 O6 Zn1)n'
_symmetry_cell_setting           hexagonal
_symmetry_space_group_name_H-M   'P 61'
_symmetry_Int_Tables_number      169
_space_group_name_Hall           'P 61'
loop_
_symmetry_equiv_pos_site_id
_symmetry_equiv_pos_as_xyz
1 x,y,z
2 x-y,x,1/6+z
3 -y,x-y,1/3+z
4 -x,-y,1/2+z
5 -x+y,-x,2/3+z
6 y,-x+y,5/6+z
_cell_length_a                   17.5806(7)
_cell_length_b                   17.5806(7)
_cell_length_c                   10.1486(2)
_cell_angle_alpha                90
_cell_angle_beta                 90
_cell_angle_gamma                120
_cell_volume                     2716.47
loop_
_atom_site_label
_atom_site_type_symbol
_atom_site_fract_x
_atom_site_fract_y
_atom_site_fract_z
Zn1 Zn 0.53315(6) 0.45948(6) 0.03982(10)
O1 O 0.5201(4) 0.4968(4) -0.1546(5)
O2 O 0.4682(4) 0.5725(4) -0.2636(5)
N1 N 0.4332(5) 0.4890(5) 0.0650(6)
C1 C 0.1519(8) 0.4447(6) 0.0437(9)
H1 H 0.1081 0.4346 -0.0167
O3 O 0.6638(5) 0.5251(7) 0.0262(8)
N2 N 0.1552(9) 0.4871(7) 0.1600(7)
C2 C 0.2175(13) 0.4987(9) 0.2460(14)
H2 H 0.2200 0.5245 0.3270
C3 C 0.7074(14) 0.6000(14) 0.098(2)
C4 C 0.2087(9) 0.4174(7) 0.0135(9)
H3 H 0.2034 0.3896 -0.0667
C5 C 0.2751(7) 0.4299(9) 0.0997(9)
C6 C 0.2796(14) 0.4730(12) 0.2172(10)
H4 H 0.3242 0.4849 0.2772
C7 C 0.4984(13) 0.6466(8) 0.0123(11)
H5 H 0.4626 0.6687 0.0480
H6 H 0.5318 0.6826 -0.0606
H7 H 0.5377 0.6479 0.0791
C8 C 0.4791(5) 0.5377(5) -0.1598(8)
C9 C 0.8031(18) 0.6604(18) 0.068(2)
H8 H 0.8101 0.7105 0.0199
H9 H 0.8250 0.6297 0.0166
H10 H 0.8354 0.6795 0.1494
O4 O 0.6632(13) 0.6257(13) 0.167(2)
C10 C 0.3450(7) 0.4068(8) 0.0651(10)
H11 H 0.3445 0.3655 0.1291
H12 H 0.3331 0.3794 -0.0211
C11 C 0.4391(6) 0.5513(6) -0.0353(10)
H13 H 0.3803 0.5414 -0.0547
Zn1A Zn 0.07367(8) 0.53315(6) 0.20649(10)
Zn1C Zn 0.46685(6) 0.54052(6) -0.46018(10)
O2C O 0.5318(4) 0.4275(4) 0.2364(5)
N2E N 0.4871(7) 0.3319(11) -0.0067(7)
O5 O 0.784(3) 0.787(3) 0.291(4)
O6 O 0.782(3) 0.809(3) 0.583(4)
loop_
_geom_bond_atom_site_label_1
_geom_bond_atom_site_label_2
_geom_bond_site_symmetry_1
_geom_bond_site_symmetry_2
Zn1 O1 1_555 1_555
O1 C8 1_555 1_555
O2 C8 1_555 1_555
N1 Zn1 1_555 1_555
C1 H1 1_555 1_555
O3 Zn1 1_555 1_555
N2 C1 1_555 1_555
C2 N2 1_555 1_555
H2 C2 1_555 1_555
C3 O3 1_555 1_555
C4 C1 1_555 1_555
H3 C4 1_555 1_555
C5 C4 1_555 1_555
C6 C2 1_555 1_555
H4 C6 1_555 1_555
C7 H5 1_555 1_555
H6 C7 1_555 1_555
H7 C7 1_555 1_555
C8 C11 1_555 1_555
C9 C3 1_555 1_555
H8 C9 1_555 1_555
H9 C9 1_555 1_555
H10 C9 1_555 1_555
O4 C3 1_555 1_555
C10 N1 1_555 1_555
H11 C10 1_555 1_555
H12 C10 1_555 1_555
C11 N1 1_555 1_555
H13 C11 1_555 1_555
Zn1A N2 1_555 1_555
Zn1C O2 1_555 1_555
O2C Zn1 1_555 1_555
N2E Zn1 1_555 1_555
C5 C6 1_555 1_555
C5 C10 1_555 1_555
C7 C11 1_555 1_555

#END
