
#######################################################################
#
#                 Cambridge Crystallographic Data Centre
#                                CCDC 
#
#######################################################################
#
# If this CIF has been generated from an entry in the Cambridge 
# Structural Database, then it will include bibliographic, chemical, 
# crystal, experimental, refinement or atomic coordinate data resulting 
# from the CCDC's data processing and validation procedures.
#
#######################################################################

data_BEPNOB
_chemical_formula_moiety         '(C10 H15 N2 O6 Zn1)n'
_symmetry_cell_setting           hexagonal
_symmetry_space_group_name_H-M   'P 61'
_symmetry_Int_Tables_number      169
_space_group_name_Hall           'P 61'
loop_
_symmetry_equiv_pos_site_id
_symmetry_equiv_pos_as_xyz
1 x,y,z
2 x-y,x,1/6+z
3 -y,x-y,1/3+z
4 -x,-y,1/2+z
5 -x+y,-x,2/3+z
6 y,-x+y,5/6+z
_cell_length_a                   17.5911(7)
_cell_length_b                   17.5911(7)
_cell_length_c                   10.1716(3)
_cell_angle_alpha                90
_cell_angle_beta                 90
_cell_angle_gamma                120
_cell_volume                     2725.87
loop_
_atom_site_label
_atom_site_type_symbol
_atom_site_fract_x
_atom_site_fract_y
_atom_site_fract_z
Zn1 Zn 0.54337(5) 0.07531(4) 0.13354(9)
O1 O 0.5031(3) 0.0255(3) -0.0608(4)
O2 O 0.4235(3) -0.1019(3) -0.1702(4)
N1 N 0.5098(4) -0.0546(3) 0.1560(5)
O3 O 0.4807(4) 0.1416(3) 0.1292(5)
N2 N 0.5150(6) -0.3289(4) 0.2519(5)
C1 C 0.5030(8) -0.2782(6) 0.3374(7)
H1 H 0.4747 -0.3018 0.4168
C2 C 0.5540(6) -0.2927(5) 0.1345(7)
H2 H 0.5618 -0.3275 0.0733
C3 C 0.5910(5) -0.0615(4) 0.1513(7)
H3 H 0.6343 -0.0194 0.2117
H4 H 0.6156 -0.0479 0.0634
C4 C 0.4433(4) -0.1114(4) 0.0579(6)
H5 H 0.4515 -0.1613 0.0375
O4 O 0.3805(5) 0.0419(5) 0.2684(8)
C5 C 0.5821(7) -0.2067(5) 0.1036(7)
H6 H 0.6103 -0.1841 0.0238
C6 C 0.4599(4) -0.0561(4) -0.0670(6)
C7 C 0.5330(7) -0.1884(5) 0.3084(7)
H7 H 0.5277 -0.1531 0.3716
C8 C 0.5694(7) -0.1533(5) 0.1886(7)
C9 C 0.3521(6) -0.1450(6) 0.1084(7)
H8 H 0.3496 -0.1598 0.1997
H9 H 0.3119 -0.1963 0.0596
H10 H 0.3361 -0.1006 0.0982
C10 C 0.4106(7) 0.1116(6) 0.2020(8)
H11 H 0.3812 0.1432 0.2053
Zn1A Zn 0.46806(6) -0.45663(5) 0.30021(9)
Zn1C Zn 0.45663(5) -0.07531(4) -0.36646(9)
O2C O 0.5765(3) 0.1019(3) 0.3298(4)
N2E N 0.6711(4) 0.1561(7) 0.0852(5)
O5 O 0.2180(12) 0.0041(11) 0.3776(19)
O6 O 0.1841(18) 0.9423(18) 0.647(3)
loop_
_geom_bond_atom_site_label_1
_geom_bond_atom_site_label_2
_geom_bond_site_symmetry_1
_geom_bond_site_symmetry_2
Zn1 O1 1_555 1_555
O1 C6 1_555 1_555
O2 C6 1_555 1_555
N1 Zn1 1_555 1_555
O3 Zn1 1_555 1_555
N2 C1 1_555 1_555
C1 H1 1_555 1_555
C2 N2 1_555 1_555
H2 C2 1_555 1_555
C3 N1 1_555 1_555
H3 C3 1_555 1_555
H4 C3 1_555 1_555
C4 N1 1_555 1_555
H5 C4 1_555 1_555
O4 C10 1_555 1_555
C5 C2 1_555 1_555
H6 C5 1_555 1_555
C6 C4 1_555 1_555
C7 C1 1_555 1_555
H7 C7 1_555 1_555
C8 C3 1_555 1_555
C9 C4 1_555 1_555
H8 C9 1_555 1_555
H9 C9 1_555 1_555
H10 C9 1_555 1_555
C10 O3 1_555 1_555
H11 C10 1_555 1_555
Zn1A N2 1_555 1_555
Zn1C O2 1_555 1_555
O2C Zn1 1_555 1_555
N2E Zn1 1_555 1_555
C5 C8 1_555 1_555
C7 C8 1_555 1_555

#END
