
#######################################################################
#
#                 Cambridge Crystallographic Data Centre
#                                CCDC 
#
#######################################################################
#
# If this CIF has been generated from an entry in the Cambridge 
# Structural Database, then it will include bibliographic, chemical, 
# crystal, experimental, refinement or atomic coordinate data resulting 
# from the CCDC's data processing and validation procedures.
#
#######################################################################

data_BEPPOD
_chemical_formula_moiety         '(C12 H19 N2 O6 Zn1)n'
_symmetry_cell_setting           hexagonal
_symmetry_space_group_name_H-M   'P 61'
_symmetry_Int_Tables_number      169
_space_group_name_Hall           'P 61'
loop_
_symmetry_equiv_pos_site_id
_symmetry_equiv_pos_as_xyz
1 x,y,z
2 x-y,x,1/6+z
3 -y,x-y,1/3+z
4 -x,-y,1/2+z
5 -x+y,-x,2/3+z
6 y,-x+y,5/6+z
_cell_length_a                   17.7336(11)
_cell_length_b                   17.7336(11)
_cell_length_c                   10.3433(8)
_cell_angle_alpha                90
_cell_angle_beta                 90
_cell_angle_gamma                120
_cell_volume                     2816.98
loop_
_atom_site_label
_atom_site_type_symbol
_atom_site_fract_x
_atom_site_fract_y
_atom_site_fract_z
Zn1 Zn 0.54447(5) 0.47321(4) 1.15580(9)
O1 O 0.5712(3) 0.4738(3) 0.9619(4)
O2 O 0.4853(3) 0.5106(3) 0.8521(4)
N1 N 0.4770(4) 0.1516(6) 0.5293(5)
O3 O 0.4770(5) 0.3483(4) 1.1748(5)
C1 C 0.5327(4) 0.4774(4) 0.8611(6)
C2 C 0.4383(5) 0.1488(6) 0.6377(6)
H1 H 0.4286 0.1052 0.6965
C3 C 0.4942(6) 0.2167(8) 0.4441(6)
H2 H 0.5240 0.2206 0.3682
N2 N 0.4914(3) 0.4334(3) 0.6341(5)
C4 C 0.4107(4) 0.2072(6) 0.6706(6)
H3 H 0.3820 0.2013 0.7484
C5 C 0.5463(4) 0.4332(4) 0.7429(5)
H4 H 0.5267 0.3725 0.7657
C6 C 0.6427(5) 0.4773(5) 0.7095(6)
H5 H 0.6737 0.4798 0.7892
C7 C 0.4085(5) 0.3476(4) 0.6205(7)
H6 H 0.3726 0.3525 0.5538
H7 H 0.3764 0.3335 0.7012
C8 C 0.4265(5) 0.2748(6) 0.5855(6)
C9 C 0.4685(7) 0.2775(9) 0.4679(7)
H8 H 0.4788 0.3199 0.4066
C10 C 0.6776(5) 0.5698(5) 0.6650(8)
H9 H 0.6401 0.5713 0.5992
H10 H 0.7351 0.5920 0.6305
H11 H 0.6797 0.6051 0.7368
C11 C 0.6632(6) 0.4260(6) 0.6112(7)
H12 H 0.6491 0.3706 0.6473
H13 H 0.7240 0.4580 0.5900
H14 H 0.6293 0.4172 0.5344
O4 O 0.3898(5) 0.3119(5) 1.0000(9)
C12 C 0.4134(10) 0.2948(7) 1.1024(11)
H15 H 0.3821 0.2373 1.1305
Zn1B Zn 0.52679(4) 0.07126(6) 0.48913(9)
Zn1C Zn 0.45553(5) 0.52679(4) 0.65580(9)
O2C O 0.5147(3) 0.4894(3) 1.3521(4)
N1D N 0.6746(7) 0.5230(4) 1.1960(5)
N2C N 0.5086(3) 0.5666(3) 1.1341(5)
O5 O 0.784(3) 0.968(3) 0.950(4)
O6 O 0.0232(15) 0.2273(15) 0.089(2)
loop_
_geom_bond_atom_site_label_1
_geom_bond_atom_site_label_2
_geom_bond_site_symmetry_1
_geom_bond_site_symmetry_2
Zn1 O1 1_555 1_555
O1 C1 1_555 1_555
O2 C1 1_555 1_555
N1 C2 1_555 1_555
O3 Zn1 1_555 1_555
C1 C5 1_555 1_555
C2 H1 1_555 1_555
C3 N1 1_555 1_555
H2 C3 1_555 1_555
N2 C5 1_555 1_555
C4 C2 1_555 1_555
H3 C4 1_555 1_555
C5 H4 1_555 1_555
C6 C5 1_555 1_555
H5 C6 1_555 1_555
C7 N2 1_555 1_555
H6 C7 1_555 1_555
H7 C7 1_555 1_555
C8 C4 1_555 1_555
C9 C3 1_555 1_555
H8 C9 1_555 1_555
C10 C6 1_555 1_555
H9 C10 1_555 1_555
H10 C10 1_555 1_555
H11 C10 1_555 1_555
C11 C6 1_555 1_555
H12 C11 1_555 1_555
H13 C11 1_555 1_555
H14 C11 1_555 1_555
O4 C12 1_555 1_555
C12 O3 1_555 1_555
H15 C12 1_555 1_555
Zn1B N1 1_555 1_555
Zn1C O2 1_555 1_555
O2C Zn1 1_555 1_555
N1D Zn1 1_555 1_555
N2C Zn1 1_555 1_555
N2 Zn1C 1_555 1_555
C7 C8 1_555 1_555
C8 C9 1_555 1_555

#END
