
#######################################################################
#
#                 Cambridge Crystallographic Data Centre
#                                CCDC 
#
#######################################################################
#
# If this CIF has been generated from an entry in the Cambridge 
# Structural Database, then it will include bibliographic, chemical, 
# crystal, experimental, refinement or atomic coordinate data resulting 
# from the CCDC's data processing and validation procedures.
#
#######################################################################

data_IGUCET
_chemical_formula_moiety         '(C6 H39 N6 O41 P10 Zn10 3-)n'
_symmetry_cell_setting           orthorhombic
_symmetry_space_group_name_H-M   'P n n 2'
_symmetry_Int_Tables_number      34
_space_group_name_Hall           'P 2 -2n'
loop_
_symmetry_equiv_pos_site_id
_symmetry_equiv_pos_as_xyz
1 x,y,z
2 -x,-y,z
3 1/2-x,1/2+y,1/2+z
4 1/2+x,1/2-y,1/2+z
_cell_length_a                   13.293(3)
_cell_length_b                   13.782(3)
_cell_length_c                   14.011(3)
_cell_angle_alpha                90
_cell_angle_beta                 90
_cell_angle_gamma                90
_cell_volume                     2566.87
loop_
_atom_site_label
_atom_site_type_symbol
_atom_site_fract_x
_atom_site_fract_y
_atom_site_fract_z
C1 C 1.1359(5) 0.2067(6) 0.6280(7)
H1 H 1.1109 0.2183 0.6912
H2 H 1.0871 0.2279 0.5820
H3 H 1.1975 0.2419 0.6189
N1 N 1.1549(8) 0.1017(8) 0.6153(10)
H4 H 1.1839 0.0781 0.6676
H5 H 1.1953 0.0927 0.5655
H6 H 1.0968 0.0712 0.6053
C2 C 1.1331(5) 0.3097(6) 0.1161(7)
H7 H 1.1874 0.2830 0.0793
H8 H 1.0701 0.2892 0.0893
H9 H 1.1380 0.2873 0.1808
N2 N 1.1388(7) 0.4125(9) 0.1144(9)
H10 H 1.0876 0.4373 0.1472
H11 H 1.1359 0.4332 0.0543
H12 H 1.1965 0.4316 0.1406
C3 C 1.0000 0.0000 -0.2501(7)
H13 H 1.0518 0.0427 -0.2729
N3 N 1.0000 -0.0000 -0.1389(9)
H14 H 0.9376 0.0091 -0.1177
H13A H 0.9482 -0.0427 -0.2729
H14A H 1.0624 -0.0091 -0.1177
C4 C 1.0000 0.5000 0.4978(7)
H15 H 1.0375 0.5548 0.5206
N4 N 1.0000 0.5000 0.3885(8)
H16 H 1.0330 0.4481 0.3673
H15A H 0.9625 0.4452 0.5206
H16A H 0.9670 0.5519 0.3673
C5 C 0.8778(5) -0.0346(6) 0.1073(5)
H17 H 0.9103 0.0262 0.1205
H18 H 0.8955 -0.0558 0.0442
H19 H 0.8993 -0.0821 0.1530
N5 N 0.7668(5) -0.0221(5) 0.1136(6)
H20 H 0.7503 -0.0037 0.1725
H21 H 0.7367 -0.0780 0.1000
H22 H 0.7471 0.0230 0.0722
C6 C 1.0000 0.5000 -0.2607(7)
H23 H 1.0680 0.4966 -0.2836
N6 N 1.0000 0.5000 -0.1564(7)
H24 H 1.0631 0.5019 -0.1352
H23A H 0.9320 0.5034 -0.2836
H24A H 0.9369 0.4981 -0.1352
O1 O 1.0000 0.0000 0.3720(17)
H25 H 0.954(10) 0.045(10) 0.405(11)
H25A H 1.046(10) -0.045(10) 0.405(11)
Zn1 Zn 1.37192(5) 0.27703(6) 0.24437(5)
Zn2 Zn 1.22490(5) 0.63123(5) 0.38723(5)
Zn3 Zn 1.37334(6) 0.23963(5) 0.49452(6)
Zn4 Zn 1.25807(5) 0.37417(5) -0.15017(6)
Zn5 Zn 1.06587(4) 0.24041(6) 0.36732(8)
P1 P 1.24084(11) 0.39212(12) 0.39104(13)
P2 P 1.38717(13) 0.28159(12) 0.01427(12)
P3 P 1.25748(12) 0.11091(11) 0.34327(13)
P4 P 1.10791(14) 0.73793(13) 0.22598(13)
P5 P 1.56931(9) 0.25839(12) 0.37084(18)
O2 O 1.3597(3) 0.3649(3) -0.0529(3)
O3 O 1.1198(3) 0.6511(4) 0.2946(3)
O4 O 1.2244(4) 0.4968(3) 0.4250(4)
O5 O 1.6413(3) 0.3415(3) 0.3456(4)
O6 O 1.2615(3) 0.0053(3) 0.3083(4)
O7 O 1.1543(3) 0.1298(3) 0.3884(4)
O8 O 1.2638(3) 0.3315(3) 0.4814(4)
O9 O 1.5030(3) 0.2914(4) 0.4547(4)
O10 O 1.3076(3) 0.1999(3) 0.0070(4)
O11 O 1.3290(4) 0.3886(3) 0.3206(4)
O12 O 1.4928(4) 0.2438(3) -0.0130(4)
O13 O 1.2726(3) 0.1761(3) 0.2549(4)
O14 O 1.3423(3) 0.1266(3) 0.4160(4)
O15 O 1.1442(3) 0.3563(3) 0.3433(4)
O16 O 1.6281(3) 0.1670(3) 0.3998(4)
O17 O 1.1977(3) 0.8072(3) 0.2345(4)
O18 O 1.5068(4) 0.2360(4) 0.2824(4)
O19 O 1.0095(4) 0.7889(5) 0.2517(4)
O20 O 1.1010(4) 0.6999(3) 0.1247(4)
O21 O 1.3886(3) 0.3207(3) 0.1159(4)
Zn1A Zn 1.62808(5) 0.72297(6) 0.24437(5)
Zn1B Zn 1.12808(5) 0.77703(6) 0.74437(5)
Zn1B_2 Zn 1.12808(5) 0.77703(6) -0.25563(5)
Zn2A Zn 1.77510(5) 0.36877(5) 0.38723(5)
Zn2B Zn 1.27510(5) 0.13123(5) -0.11277(5)
Zn2B_2 Zn 1.27510(5) 0.13123(5) 0.88723(5)
Zn3A Zn 1.62666(6) 0.76037(5) 0.49452(6)
Zn3B Zn 1.12666(6) 0.73963(5) -0.00548(6)
Zn4B Zn 1.24193(5) -0.12583(5) 0.34983(6)
Zn4C Zn 1.75807(5) 0.12583(5) 0.34983(6)
Zn4B_2 Zn 1.24193(5) 0.87417(5) 0.34983(6)
Zn4_2 Zn 1.25807(5) 0.37417(5) 0.84983(6)
Zn5C Zn 1.56587(4) 0.25959(6) -0.13268(8)
Zn5A Zn 0.93413(4) 0.75959(6) 0.36732(8)
Zn5C_2 Zn 1.56587(4) 0.25959(6) 0.86732(8)
Zn5B Zn 1.43413(4) 0.74041(6) -0.13268(8)
Zn5A_2 Zn 1.93413(4) 0.75959(6) 0.36732(8)
P1A P 1.75916(11) 0.60788(12) 0.39104(13)
P2B P 1.11283(13) 0.78159(12) 0.51427(12)
P3B P 1.24252(12) 0.61091(11) -0.15673(13)
P4B P 1.39209(14) 0.23793(13) 0.72598(13)
P5A P 1.43069(9) 0.74161(12) 0.37084(18)
O2B O 1.1403(3) 0.8649(3) 0.4471(3)
O2B_2 O 1.1403(3) -0.1351(3) 0.4471(3)
O3B O 1.3802(3) 0.1511(4) 0.7946(3)
O3A O 1.8802(3) 0.3489(4) 0.2946(3)
O4A O 1.7756(4) 0.5032(3) 0.4250(4)
O5A O 1.3587(3) 0.6585(3) 0.3456(4)
O6B O 1.2385(3) 0.5053(3) -0.1917(4)
O7B O 1.3457(3) 0.6298(3) -0.1116(4)
O7C O 1.6543(3) 0.3702(3) -0.1116(4)
O8A O 1.7362(3) 0.6685(3) 0.4814(4)
O9A O 1.4970(3) 0.7086(4) 0.4547(4)
O10B O 1.1924(3) 0.6999(3) 0.5070(4)
O10C O 1.8076(3) 0.3001(3) 0.5070(4)
O11A O 1.6710(4) 0.6114(3) 0.3206(4)
O12B O 1.0072(4) 0.7438(3) 0.4870(4)
O12C O 0.9928(4) 0.2562(3) 0.4870(4)
O13B O 1.2274(3) 0.6761(3) -0.2451(4)
O13A O 1.7274(3) 0.8239(3) 0.2549(4)
O14B O 1.1577(3) 0.6266(3) -0.0840(4)
O14A O 1.6577(3) 0.8734(3) 0.4160(4)
O15A O 1.8558(3) 0.6437(3) 0.3433(4)
O15C O 1.6442(3) 0.1437(3) -0.1567(4)
O16A O 1.3719(3) 0.8330(3) 0.3998(4)
O16C O 1.1281(3) 0.3330(3) -0.1002(4)
O16A_2 O 1.3719(3) -0.1670(3) 0.3998(4)
O17B O 1.3023(3) 0.3072(3) 0.7345(4)
O17B_2 O 1.3023(3) 0.3072(3) -0.2655(4)
O17_2 O 1.1977(3) -0.1928(3) 0.2345(4)
O18A O 1.4932(4) 0.7640(4) 0.2824(4)
O19B O 1.4905(4) 0.2889(5) 0.7517(4)
O19A O 0.9905(4) 0.2111(5) 0.2517(4)
O19B_2 O 1.4905(4) 0.2889(5) -0.2483(4)
O20B O 1.3990(4) 0.1999(3) 0.6247(4)
O20C O 1.6010(4) 0.8001(3) 0.6247(4)
O21B O 1.1114(3) 0.8207(3) 0.6159(4)
O21A O 1.6114(3) 0.6793(3) 0.1159(4)
loop_
_geom_bond_atom_site_label_1
_geom_bond_atom_site_label_2
_geom_bond_site_symmetry_1
_geom_bond_site_symmetry_2
C1 H1 1_555 1_555
H2 C1 1_555 1_555
H3 C1 1_555 1_555
N1 C1 1_555 1_555
H4 N1 1_555 1_555
H5 N1 1_555 1_555
H6 N1 1_555 1_555
C2 H7 1_555 1_555
H8 C2 1_555 1_555
H9 C2 1_555 1_555
N2 C2 1_555 1_555
H10 N2 1_555 1_555
H11 N2 1_555 1_555
H12 N2 1_555 1_555
C3 H13 1_555 1_555
N3 C3 1_555 1_555
H14 N3 1_555 1_555
C4 H15 1_555 1_555
N4 C4 1_555 1_555
H16 N4 1_555 1_555
C5 H17 1_555 1_555
H18 C5 1_555 1_555
H19 C5 1_555 1_555
N5 C5 1_555 1_555
H20 N5 1_555 1_555
H21 N5 1_555 1_555
H22 N5 1_555 1_555
C6 H23 1_555 1_555
N6 C6 1_555 1_555
H24 N6 1_555 1_555
O1 H25 1_555 1_555
Zn1 O11 1_555 1_555
Zn2 O3 1_555 1_555
Zn3 O8 1_555 1_555
Zn4 O2 1_555 1_555
Zn5 O7 1_555 1_555
P1 O4 1_555 1_555
P2 O2 1_555 1_555
P3 O6 1_555 1_555
P4 O3 1_555 1_555
P5 O5 1_555 1_555
O4 Zn2 1_555 1_555
O5 Zn2A 1_555 1_555
O6 Zn4B 1_555 1_555
O7 P3 1_555 1_555
O8 P1 1_555 1_555
O9 Zn3 1_555 1_555
O10 P2 1_555 1_555
O11 P1 1_555 1_555
O12 P2 1_555 1_555
O13 Zn1 1_555 1_555
O14 Zn3 1_555 1_555
O15 Zn5 1_555 1_555
O16 P5 1_555 1_555
O17 P4 1_555 1_555
O18 Zn1 1_555 1_555
O19 P4 1_555 1_555
O20 P4 1_555 1_555
O21 Zn1 1_555 1_555
H13A C3 1_555 1_555
H14A N3 1_555 1_555
H15A C4 1_555 1_555
H16A N4 1_555 1_555
H23A C6 1_555 1_555
H24A N6 1_555 1_555
H25A O1 1_555 1_555
Zn1A O11A 1_555 1_555
Zn1B O21B 1_555 1_555
Zn1B_2 O13B 1_555 1_555
Zn2A O3A 1_555 1_555
Zn2B O10 1_555 1_555
Zn2B_2 O3B 1_555 1_555
Zn3A O8A 1_555 1_555
Zn3B O20 1_555 1_555
Zn4B O2B_2 1_555 1_555
Zn4C O16 1_555 1_555
Zn4B_2 O17 1_555 1_555
Zn4_2 O17B 1_555 1_555
Zn5C O12 1_555 1_555
Zn5A O19 1_555 1_555
Zn5C_2 O19B 1_555 1_555
Zn5B O7B 1_555 1_555
Zn5A_2 O15A 1_555 1_555
P1A O4A 1_555 1_555
P2B O2B 1_555 1_555
P3B O6B 1_555 1_555
P4B O3B 1_555 1_555
P5A O5A 1_555 1_555
O2B Zn4B_2 1_555 1_555
O4A Zn2A 1_555 1_555
O5A Zn2 1_555 1_555
O6B Zn4 1_555 1_555
O7B P3B 1_555 1_555
O7C Zn5C 1_555 1_555
O8A P1A 1_555 1_555
O9A Zn3A 1_555 1_555
O10B Zn2 1_555 1_555
O10C Zn2A 1_555 1_555
O11A P1A 1_555 1_555
O12B Zn5A 1_555 1_555
O12C Zn5 1_555 1_555
O13B P3B 1_555 1_555
O13A Zn1A 1_555 1_555
O14B Zn3B 1_555 1_555
O14A Zn3A 1_555 1_555
O15A P1A 1_555 1_555
O15C Zn5C 1_555 1_555
O16A Zn4B_2 1_555 1_555
O16C Zn4 1_555 1_555
O16A_2 Zn4B 1_555 1_555
O17B P4B 1_555 1_555
O17B_2 Zn4 1_555 1_555
O17_2 Zn4B 1_555 1_555
O18A Zn1A 1_555 1_555
O19B P4B 1_555 1_555
O19A Zn5 1_555 1_555
O19B_2 Zn5C 1_555 1_555
O20B Zn3 1_555 1_555
O20C Zn3A 1_555 1_555
O21B P2B 1_555 1_555
O21A Zn1A 1_555 1_555
P1 O15 1_555 1_555
P2 O21 1_555 1_555
P3 O13 1_555 1_555
P3 O14 1_555 1_555
P5 O9 1_555 1_555
P5 O18 1_555 1_555
P2B O10B 1_555 1_555
P2B O12B 1_555 1_555
P3B O14B 1_555 1_555
P4B O20B 1_555 1_555
P5A O9A 1_555 1_555
P5A O16A 1_555 1_555
P5A O18A 1_555 1_555

#END
