
#######################################################################
#
#                 Cambridge Crystallographic Data Centre
#                                CCDC 
#
#######################################################################
#
# If this CIF has been generated from an entry in the Cambridge 
# Structural Database, then it will include bibliographic, chemical, 
# crystal, experimental, refinement or atomic coordinate data resulting 
# from the CCDC's data processing and validation procedures.
#
#######################################################################

data_NOSTUM
_chemical_formula_moiety         '(C13 H8 Mg1 N2 O9)n'
_symmetry_cell_setting           monoclinic
_symmetry_space_group_name_H-M   'C 2/c'
_symmetry_Int_Tables_number      15
_space_group_name_Hall           '-C 2yc'
loop_
_symmetry_equiv_pos_site_id
_symmetry_equiv_pos_as_xyz
1 x,y,z
2 -x,y,1/2-z
3 1/2+x,1/2+y,z
4 1/2-x,1/2+y,1/2-z
5 -x,-y,-z
6 x,-y,1/2+z
7 1/2-x,1/2-y,-z
8 1/2+x,1/2-y,1/2+z
_cell_length_a                   13.5104(4)
_cell_length_b                   14.1107(4)
_cell_length_c                   8.8000(3)
_cell_angle_alpha                90
_cell_angle_beta                 114.617(2)
_cell_angle_gamma                90
_cell_volume                     1525.17
loop_
_atom_site_label
_atom_site_type_symbol
_atom_site_fract_x
_atom_site_fract_y
_atom_site_fract_z
_atom_site_U_iso_or_equiv
_atom_site_thermal_displace_type
N1 N 0.4719(3) 0.4976(2) 0.1859(5) 0.0260 Uani
C5 C 0.3690(2) 0.46383(19) 0.0502(4) 0.0386 Uani
C6 C 0.5000 0.6003(3) 0.2500 0.0881 Uani
C7 C 0.4676(3) 0.4315(2) 0.2051(5) 0.0181 Uani
O5 O 0.5000 0.34634(14) 0.2500 0.0346 Uani
N1A N 0.5281(3) 0.4976(2) 0.3141(5) 0.0260 Uani
C5A C 0.6310(2) 0.46383(19) 0.4498(4) 0.0386 Uani
C7A C 0.5324(3) 0.4315(2) 0.2949(5) 0.0181 Uani
Mg1 Mg 0.0000 0.57867(5) 0.2500 0.0053 Uani
O1 O 0.09186(10) 0.57597(8) 0.11542(14) 0.0112 Uani
O2 O 0.10515(10) 0.52447(8) -0.11460(14) 0.0102 Uani
O3 O 0.19328(10) 0.62481(8) -0.26505(13) 0.0117 Uani
H1 H 0.1510 0.5845 -0.2602 0.0170 Uiso
O4 O 0.09882(11) 0.68374(8) 0.40520(15) 0.0126 Uani
C1 C 0.12247(11) 0.58460(9) 0.00145(17) 0.0063 Uani
C2 C 0.18796(11) 0.66990(9) -0.00134(16) 0.0062 Uani
C3 C 0.21846(12) 0.73508(10) 0.12985(17) 0.0077 Uani
H2 H 0.1971 0.7253 0.2164 0.0090 Uiso
C4 C 0.21985(12) 0.68569(9) -0.13280(17) 0.0071 Uani
H3 H 0.066(2) 0.7375(12) 0.373(3) 0.0420 Uiso
H4 H 0.136(2) 0.6657(18) 0.352(4) 0.0420 Uiso
O1F O 0.40814(10) 0.92403(8) -0.11542(14) 0.0112 Uani
O2F O 0.39485(10) 0.97553(8) 0.11460(14) 0.0102 Uani
O3F O 0.30672(10) 0.87519(8) 0.26505(13) 0.0117 Uani
H1F H 0.3490 0.9155 0.2602 0.0170 Uiso
C1F C 0.37753(11) 0.91540(9) -0.00145(17) 0.0063 Uani
C2F C 0.31204(11) 0.83010(9) 0.00134(16) 0.0062 Uani
C3F C 0.28154(12) 0.76492(10) -0.12985(17) 0.0077 Uani
H2F H 0.3029 0.7747 -0.2164 0.0090 Uiso
C4F C 0.28015(12) 0.81431(9) 0.13280(17) 0.0071 Uani
O4A O -0.09882(11) 0.68374(8) 0.09480(15) 0.0126 Uani
H3A H -0.066(2) 0.7375(12) 0.127(3) 0.0420 Uiso
H4A H -0.136(2) 0.6657(18) 0.148(4) 0.0420 Uiso
Mg1B Mg 0.5000 1.07867(5) 0.2500 0.0053 Uani
Mg1D Mg 0.0000 0.42133(5) -0.2500 0.0053 Uani
Mg1F Mg 0.5000 0.92133(5) -0.2500 0.0053 Uani
O1A O -0.09186(10) 0.57597(8) 0.38458(14) 0.0112 Uani
O2D O -0.10515(10) 0.47553(8) 0.11460(14) 0.0102 Uani
O2E O 0.10515(10) 0.47553(8) 0.38540(14) 0.0102 Uani
loop_
_atom_site_aniso_label
_atom_site_aniso_U_11
_atom_site_aniso_U_22
_atom_site_aniso_U_33
_atom_site_aniso_U_23
_atom_site_aniso_U_13
_atom_site_aniso_U_12
N1 0.0176(15) 0.0099(12) 0.048(2) 0.0070(12) 0.0112(14) 0.0030(10)
C5 0.0235 0.0281 0.0481 0.0121 -0.001 0.0076
C6 0.045(3) 0.0095(13) 0.214(7) 0.000 0.058(4) 0.000
C7 0.0125(13) 0.0108(13) 0.0296(17) 0.0036(12) 0.0075(12) 0.0017(10)
O5 0.0333 0.0051 0.0635 0 0.0183 0
N1A 0.0176 0.0099 0.048 -0.007 0.0112 -0.003
C5A 0.0235 0.0281 0.0481 -0.0121 -0.001 -0.0076
C7A 0.0125 0.0108 0.0296 -0.0036 0.0075 -0.0017
Mg1 0.0086(4) 0.0032(3) 0.0053(3) 0.000 0.0041(3) 0.000
O1 0.0165(6) 0.0117(5) 0.0103(5) -0.0018(3) 0.0104(4) -0.0058(4)
O2 0.0145 0.008 0.0113 -0.0051 0.0085 -0.0059
O3 0.0202(6) 0.0103(5) 0.0086(5) -0.0060(3) 0.0100(4) -0.0094(4)
O4 0.0191(6) 0.0078(5) 0.0095(5) -0.0026(3) 0.0046(4) -0.0016(4)
C1 0.0078(6) 0.0059(6) 0.0060(5) -0.0004(4) 0.0037(5) -0.0015(4)
C2 0.0085(6) 0.0056(5) 0.0057(5) -0.0006(4) 0.0042(4) -0.0023(4)
C3 0.0115(6) 0.0075(6) 0.0063(5) -0.0015(4) 0.0058(5) -0.0036(4)
C4 0.0102(6) 0.0070(5) 0.0050(5) -0.0025(4) 0.0042(5) -0.0033(4)
O1F 0.0165 0.0117 0.0103 -0.0018 0.0104 -0.0058
O2F 0.0145 0.008 0.0113 -0.0051 0.0085 -0.0059
O3F 0.0202 0.0103 0.0086 -0.006 0.01 -0.0094
C1F 0.0078 0.0059 0.006 -0.0004 0.0037 -0.0015
C2F 0.0085 0.0056 0.0057 -0.0006 0.0042 -0.0023
C3F 0.0115 0.0075 0.0063 -0.0015 0.0058 -0.0036
C4F 0.0102 0.007 0.005 -0.0025 0.0042 -0.0033
O4A 0.0191 0.0078 0.0095 0.0026 0.0046 0.0016
Mg1B 0.0086 0.0032 0.0053 0 0.0041 0
Mg1D 0.0086 0.0032 0.0053 0 0.0041 0
Mg1F 0.0086 0.0032 0.0053 0 0.0041 0
O1A 0.0165 0.0117 0.0103 0.0018 0.0104 0.0058
O2D 0.0145 0.008 0.0113 -0.0051 0.0085 -0.0059
O2E 0.0145 0.008 0.0113 0.0051 0.0085 0.0059
loop_
_geom_bond_atom_site_label_1
_geom_bond_atom_site_label_2
_geom_bond_site_symmetry_1
_geom_bond_site_symmetry_2
Mg1 O1 1_555 1_555
O1 C1 1_555 1_555
O2 C1 1_555 1_555
O3 H1 1_555 1_555
O4 Mg1 1_555 1_555
C1 C2 1_555 1_555
C2 C3 1_555 1_555
C3 H2 1_555 1_555
C4 O3 1_555 1_555
H3 O4 1_555 1_555
H4 O4 1_555 1_555
N1 C5 1_555 1_555
C5 C7 1_555 1_555
C6 N1 1_555 1_555
C7 N1 1_555 1_555
O5 C7 1_555 1_555
O1F C1F 1_555 1_555
O2F C1F 1_555 1_555
O3F H1F 1_555 1_555
C1F C2F 1_555 1_555
C2F C3F 1_555 1_555
C3F C4 1_555 1_555
H2F C3F 1_555 1_555
C4F C3 1_555 1_555
O4A Mg1 1_555 1_555
H3A O4A 1_555 1_555
H4A O4A 1_555 1_555
Mg1B O2F 1_555 1_555
Mg1D O2 1_555 1_555
Mg1F O1F 1_555 1_555
O1A Mg1 1_555 1_555
O2D Mg1 1_555 1_555
O2E Mg1 1_555 1_555
N1A N1 1_555 1_555
C5A N1A 1_555 1_555
C7A N1 1_555 1_555
C2 C4 1_555 1_555
C6 N1A 1_555 1_555
C7 N1A 1_555 1_555
C7 C7A 1_555 1_555
O5 C7A 1_555 1_555
O3F C4F 1_555 1_555
C2F C4F 1_555 1_555
N1A C7A 1_555 1_555
C5A C7A 1_555 1_555

#END
