
#######################################################################
#
#                 Cambridge Crystallographic Data Centre
#                                CCDC 
#
#######################################################################
#
# If this CIF has been generated from an entry in the Cambridge 
# Structural Database, then it will include bibliographic, chemical, 
# crystal, experimental, refinement or atomic coordinate data resulting 
# from the CCDC's data processing and validation procedures.
#
#######################################################################

data_NAZBAT
_chemical_formula_moiety         '(C24 H13 In1 O8)n'
_symmetry_cell_setting           tetragonal
_symmetry_space_group_name_H-M   'I 41/a'
_symmetry_Int_Tables_number      88
_space_group_name_Hall           '-I 4ad'
loop_
_symmetry_equiv_pos_site_id
_symmetry_equiv_pos_as_xyz
1 x,y,z
2 3/4-y,1/4+x,1/4+z
3 1/2-x,-y,1/2+z
4 3/4+y,3/4-x,3/4+z
5 1/2+x,1/2+y,1/2+z
6 1/4-y,3/4+x,3/4+z
7 -x,1/2-y,z
8 1/4+y,1/4-x,1/4+z
9 -x,-y,-z
10 1/4+y,3/4-x,3/4-z
11 1/2+x,y,1/2-z
12 1/4-y,1/4+x,1/4-z
13 1/2-x,1/2-y,1/2-z
14 3/4+y,1/4-x,1/4-z
15 x,1/2+y,-z
16 3/4-y,3/4+x,3/4-z
_cell_length_a                   14.659(2)
_cell_length_b                   14.659(2)
_cell_length_c                   32.512(6)
_cell_angle_alpha                90
_cell_angle_beta                 90
_cell_angle_gamma                90
_cell_volume                     6986.38
loop_
_atom_site_label
_atom_site_type_symbol
_atom_site_fract_x
_atom_site_fract_y
_atom_site_fract_z
_atom_site_U_iso_or_equiv
_atom_site_thermal_displace_type
O1 O 0.4337(2) 0.1623(2) 0.08686(9) 0.0674 Uani
C1 C 0.1870(3) 0.2013(3) -0.02023(11) 0.0481 Uani
C2 C 0.1846(3) 0.1300(2) 0.00992(11) 0.0455 Uani
C3 C 0.2467(3) 0.1354(3) 0.04389(11) 0.0465 Uani
C4 C 0.3069(3) 0.2104(3) 0.04650(12) 0.0533 Uani
C5 C 0.3066(4) 0.2777(3) 0.01727(14) 0.0733 Uani
H1 H 0.3458 0.3272 0.0197 0.0880 Uiso
C6 C 0.2474(3) 0.2718(3) -0.01621(13) 0.0687 Uani
H2 H 0.2491 0.3169 -0.0363 0.0820 Uiso
C7 C 0.1242(3) 0.0546(3) 0.00864(14) 0.0590 Uani
H3 H 0.0839 0.0488 -0.0133 0.0710 Uiso
C8 C 0.1239(4) -0.0092(3) 0.03885(17) 0.0747 Uani
H4 H 0.0836 -0.0581 0.0372 0.0900 Uiso
C9 C 0.1833(3) -0.0028(3) 0.07243(16) 0.0723 Uani
H5 H 0.1817 -0.0464 0.0932 0.0870 Uiso
C10 C 0.2437(3) 0.0680(3) 0.07459(13) 0.0617 Uani
H6 H 0.2835 0.0717 0.0968 0.0740 Uiso
C11 C 0.1209(3) 0.2081(3) -0.05606(11) 0.0477 Uani
C12 C 0.3732(3) 0.2211(3) 0.08152(11) 0.0520 Uani
In1 In 0.5000 0.2500 0.137109(8) 0.0305 Uani
O2 O 0.0583(3) 0.1543(3) -0.06113(11) 0.0880 Uani
O3 O 0.1282(2) 0.2744(2) -0.07944(9) 0.0637 Uani
O4 O 0.3705(2) 0.2907(2) 0.10330(10) 0.0674 Uani
O1A O 0.5877(2) 0.6837(2) 0.33686(9) 0.0674 Uani
O1F O 0.5663(2) 0.3377(2) 0.08686(9) 0.0674 Uani
C1A C 0.5487(3) 0.4370(3) 0.22977(11) 0.0481 Uani
C2A C 0.6200(2) 0.4346(3) 0.25992(11) 0.0455 Uani
C3A C 0.6146(3) 0.4967(3) 0.29389(11) 0.0465 Uani
C4A C 0.5396(3) 0.5569(3) 0.29650(12) 0.0533 Uani
C5A C 0.4723(3) 0.5566(4) 0.26727(14) 0.0733 Uani
H1A H 0.4228 0.5958 0.2697 0.0880 Uiso
C6A C 0.4782(3) 0.4974(3) 0.23379(13) 0.0687 Uani
H2A H 0.4331 0.4991 0.2137 0.0820 Uiso
C7A C 0.6954(3) 0.3742(3) 0.25864(14) 0.0590 Uani
H3A H 0.7012 0.3339 0.2367 0.0710 Uiso
C8A C 0.7592(3) 0.3739(4) 0.28885(17) 0.0747 Uani
H4A H 0.8081 0.3336 0.2872 0.0900 Uiso
C9A C 0.7528(3) 0.4333(3) 0.32243(16) 0.0723 Uani
H5A H 0.7964 0.4317 0.3432 0.0870 Uiso
C10A C 0.6820(3) 0.4937(3) 0.32459(13) 0.0617 Uani
H6A H 0.6783 0.5335 0.3468 0.0740 Uiso
C11A C 0.5419(3) 0.3709(3) 0.19394(11) 0.0477 Uani
C12A C 0.5289(3) 0.6232(3) 0.33152(11) 0.0520 Uani
In1C In 0.0000 0.2500 -0.112891(8) 0.0305 Uani
In1A In 0.5000 0.7500 0.387109(8) 0.0305 Uani
O2A O 0.5957(3) 0.3083(3) 0.18887(11) 0.0880 Uani
O2G O 0.4043(3) 0.1917(3) 0.18887(11) 0.0880 Uani
O3A O 0.4756(2) 0.3782(2) 0.17056(9) 0.0637 Uani
O3G O 0.5244(2) 0.1218(2) 0.17056(9) 0.0637 Uani
O4A O 0.4593(2) 0.6205(2) 0.35330(10) 0.0674 Uani
O4F O 0.6295(2) 0.2093(2) 0.10330(10) 0.0674 Uani
loop_
_atom_site_aniso_label
_atom_site_aniso_U_11
_atom_site_aniso_U_22
_atom_site_aniso_U_33
_atom_site_aniso_U_23
_atom_site_aniso_U_13
_atom_site_aniso_U_12
O1 0.0723(13) 0.0754(14) 0.0545(12) -0.0054(10) -0.0382(10) -0.0030(11)
C1 0.059(2) 0.051(2) 0.0342(18) 0.0073(15) -0.0177(16) -0.0081(17)
C2 0.054(2) 0.0426(19) 0.0400(19) 0.0065(15) -0.0139(16) -0.0070(16)
C3 0.050(2) 0.048(2) 0.0415(19) 0.0083(15) -0.0161(16) -0.0103(16)
C4 0.059(2) 0.059(2) 0.042(2) 0.0129(17) -0.0216(17) -0.0197(19)
C5 0.086(3) 0.079(3) 0.055(3) 0.024(2) -0.036(2) -0.042(3)
C6 0.083(3) 0.071(3) 0.052(2) 0.029(2) -0.030(2) -0.035(2)
C7 0.066(3) 0.052(2) 0.059(3) 0.0106(19) -0.026(2) -0.0154(19)
C8 0.083(3) 0.053(2) 0.088(4) 0.024(2) -0.030(3) -0.027(2)
C9 0.081(3) 0.061(3) 0.075(3) 0.033(2) -0.027(3) -0.023(2)
C10 0.073(3) 0.062(3) 0.050(2) 0.0189(19) -0.023(2) -0.011(2)
C11 0.056(2) 0.056(2) 0.0310(17) -0.0006(15) -0.0107(15) -0.0024(18)
C12 0.051(2) 0.068(2) 0.0371(18) 0.0173(17) -0.0172(16) -0.0242(19)
In1 0.03318(18) 0.03917(19) 0.01900(16) 0.000 0.000 -0.00153(12)
O2 0.100(3) 0.090(2) 0.074(2) 0.0365(19) -0.056(2) -0.048(2)
O3 0.084(2) 0.0557(16) 0.0515(16) 0.0121(13) -0.0368(15) -0.0097(15)
O4 0.0723(13) 0.0754(14) 0.0545(12) -0.0054(10) -0.0382(10) -0.0030(11)
O1A 0.0754 0.0723 0.0545 -0.0382 0.0054 0.003
O1F 0.0723 0.0754 0.0545 0.0054 0.0382 -0.003
C1A 0.051 0.059 0.0342 -0.0177 -0.0073 0.0081
C2A 0.0426 0.054 0.04 -0.0139 -0.0065 0.007
C3A 0.048 0.05 0.0415 -0.0161 -0.0083 0.0103
C4A 0.059 0.059 0.042 -0.0216 -0.0129 0.0197
C5A 0.079 0.086 0.055 -0.036 -0.024 0.042
C6A 0.071 0.083 0.052 -0.03 -0.029 0.035
C7A 0.052 0.066 0.059 -0.026 -0.0106 0.0154
C8A 0.053 0.083 0.088 -0.03 -0.024 0.027
C9A 0.061 0.081 0.075 -0.027 -0.033 0.023
C10A 0.062 0.073 0.05 -0.023 -0.0189 0.011
C11A 0.056 0.056 0.031 -0.0107 0.0006 0.0024
C12A 0.068 0.051 0.0371 -0.0172 -0.0173 0.0242
In1C 0.03917 0.03318 0.019 0 0 0.00153
In1A 0.03917 0.03318 0.019 0 0 0.00153
O2A 0.09 0.1 0.074 -0.056 -0.0365 0.048
O2G 0.09 0.1 0.074 0.056 0.0365 0.048
O3A 0.0557 0.084 0.0515 -0.0368 -0.0121 0.0097
O3G 0.0557 0.084 0.0515 0.0368 0.0121 0.0097
O4A 0.0754 0.0723 0.0545 -0.0382 0.0054 0.003
O4F 0.0723 0.0754 0.0545 0.0054 0.0382 -0.003
loop_
_geom_bond_atom_site_label_1
_geom_bond_atom_site_label_2
_geom_bond_site_symmetry_1
_geom_bond_site_symmetry_2
O1 C12 1_555 1_555
C1 C2 1_555 1_555
C2 C3 1_555 1_555
C3 C4 1_555 1_555
C4 C5 1_555 1_555
C5 H1 1_555 1_555
C6 C1 1_555 1_555
H2 C6 1_555 1_555
C7 C2 1_555 1_555
H3 C7 1_555 1_555
C8 C7 1_555 1_555
H4 C8 1_555 1_555
C9 C8 1_555 1_555
H5 C9 1_555 1_555
C10 C3 1_555 1_555
H6 C10 1_555 1_555
C11 C1 1_555 1_555
C12 C4 1_555 1_555
In1 O1 1_555 1_555
O2 C11 1_555 1_555
O3 C11 1_555 1_555
O4 C12 1_555 1_555
O1A C12A 1_555 1_555
O1F In1 1_555 1_555
C1A C2A 1_555 1_555
C2A C3A 1_555 1_555
C3A C4A 1_555 1_555
C4A C5A 1_555 1_555
C5A H1A 1_555 1_555
C6A C1A 1_555 1_555
H2A C6A 1_555 1_555
C7A C2A 1_555 1_555
H3A C7A 1_555 1_555
C8A C7A 1_555 1_555
H4A C8A 1_555 1_555
C9A C8A 1_555 1_555
H5A C9A 1_555 1_555
C10A C3A 1_555 1_555
H6A C10A 1_555 1_555
C11A C1A 1_555 1_555
C12A C4A 1_555 1_555
In1C O2 1_555 1_555
In1A O1A 1_555 1_555
O2A In1 1_555 1_555
O2G In1 1_555 1_555
O3A In1 1_555 1_555
O3G In1 1_555 1_555
O4A C12A 1_555 1_555
O4F In1 1_555 1_555
C5 C6 1_555 1_555
C9 C10 1_555 1_555
In1 O4 1_555 1_555
O3 In1C 1_555 1_555
C5A C6A 1_555 1_555
C9A C10A 1_555 1_555
C11A O2A 1_555 1_555
C11A O3A 1_555 1_555
In1A O4A 1_555 1_555

#END
