
#######################################################################
#
#                 Cambridge Crystallographic Data Centre
#                                CCDC 
#
#######################################################################
#
# If this CIF has been generated from an entry in the Cambridge 
# Structural Database, then it will include bibliographic, chemical, 
# crystal, experimental, refinement or atomic coordinate data resulting 
# from the CCDC's data processing and validation procedures.
#
#######################################################################

data_EDUSUR
_chemical_formula_moiety         'C48 N24 O35 Zn16'
_symmetry_cell_setting           cubic
_symmetry_space_group_name_H-M   'F m -3 m'
_symmetry_Int_Tables_number      225
_space_group_name_Hall           '-F 4 2 3'
loop_
_symmetry_equiv_pos_site_id
_symmetry_equiv_pos_as_xyz
1 x,y,z
2 z,x,y
3 y,z,x
4 y,x,-z
5 y,-x,z
6 -y,x,z
7 x,z,-y
8 -x,z,y
9 x,-z,y
10 z,y,-x
11 z,-y,x
12 -z,y,x
13 x,1/2+y,1/2+z
14 z,1/2+x,1/2+y
15 y,1/2+z,1/2+x
16 y,1/2+x,1/2-z
17 y,1/2-x,1/2+z
18 -y,1/2+x,1/2+z
19 x,1/2+z,1/2-y
20 -x,1/2+z,1/2+y
21 x,1/2-z,1/2+y
22 z,1/2+y,1/2-x
23 z,1/2-y,1/2+x
24 -z,1/2+y,1/2+x
25 1/2+x,y,1/2+z
26 1/2+z,x,1/2+y
27 1/2+y,z,1/2+x
28 1/2+y,x,1/2-z
29 1/2+y,-x,1/2+z
30 1/2-y,x,1/2+z
31 1/2+x,z,1/2-y
32 1/2-x,z,1/2+y
33 1/2+x,-z,1/2+y
34 1/2+z,y,1/2-x
35 1/2+z,-y,1/2+x
36 1/2-z,y,1/2+x
37 1/2+x,1/2+y,z
38 1/2+z,1/2+x,y
39 1/2+y,1/2+z,x
40 1/2+y,1/2+x,-z
41 1/2+y,1/2-x,z
42 1/2-y,1/2+x,z
43 1/2+x,1/2+z,-y
44 1/2-x,1/2+z,y
45 1/2+x,1/2-z,y
46 1/2+z,1/2+y,-x
47 1/2+z,1/2-y,x
48 1/2-z,1/2+y,x
49 -x,-y,z
50 -x,y,-z
51 x,-y,-z
52 z,-x,-y
53 -z,-x,y
54 -z,x,-y
55 -y,z,-x
56 y,-z,-x
57 -y,-z,x
58 -y,-x,-z
59 -x,-z,-y
60 -z,-y,-x
61 -x,1/2-y,1/2+z
62 -x,1/2+y,1/2-z
63 x,1/2-y,1/2-z
64 z,1/2-x,1/2-y
65 -z,1/2-x,1/2+y
66 -z,1/2+x,1/2-y
67 -y,1/2+z,1/2-x
68 y,1/2-z,1/2-x
69 -y,1/2-z,1/2+x
70 -y,1/2-x,1/2-z
71 -x,1/2-z,1/2-y
72 -z,1/2-y,1/2-x
73 1/2-x,-y,1/2+z
74 1/2-x,y,1/2-z
75 1/2+x,-y,1/2-z
76 1/2+z,-x,1/2-y
77 1/2-z,-x,1/2+y
78 1/2-z,x,1/2-y
79 1/2-y,z,1/2-x
80 1/2+y,-z,1/2-x
81 1/2-y,-z,1/2+x
82 1/2-y,-x,1/2-z
83 1/2-x,-z,1/2-y
84 1/2-z,-y,1/2-x
85 1/2-x,1/2-y,z
86 1/2-x,1/2+y,-z
87 1/2+x,1/2-y,-z
88 1/2+z,1/2-x,-y
89 1/2-z,1/2-x,y
90 1/2-z,1/2+x,-y
91 1/2-y,1/2+z,-x
92 1/2+y,1/2-z,-x
93 1/2-y,1/2-z,x
94 1/2-y,1/2-x,-z
95 1/2-x,1/2-z,-y
96 1/2-z,1/2-y,-x
97 -x,-y,-z
98 -z,-x,-y
99 -y,-z,-x
100 -y,-x,z
101 -y,x,-z
102 y,-x,-z
103 -x,-z,y
104 x,-z,-y
105 -x,z,-y
106 -z,-y,x
107 -z,y,-x
108 z,-y,-x
109 -x,1/2-y,1/2-z
110 -z,1/2-x,1/2-y
111 -y,1/2-z,1/2-x
112 -y,1/2-x,1/2+z
113 -y,1/2+x,1/2-z
114 y,1/2-x,1/2-z
115 -x,1/2-z,1/2+y
116 x,1/2-z,1/2-y
117 -x,1/2+z,1/2-y
118 -z,1/2-y,1/2+x
119 -z,1/2+y,1/2-x
120 z,1/2-y,1/2-x
121 1/2-x,-y,1/2-z
122 1/2-z,-x,1/2-y
123 1/2-y,-z,1/2-x
124 1/2-y,-x,1/2+z
125 1/2-y,x,1/2-z
126 1/2+y,-x,1/2-z
127 1/2-x,-z,1/2+y
128 1/2+x,-z,1/2-y
129 1/2-x,z,1/2-y
130 1/2-z,-y,1/2+x
131 1/2-z,y,1/2-x
132 1/2+z,-y,1/2-x
133 1/2-x,1/2-y,-z
134 1/2-z,1/2-x,-y
135 1/2-y,1/2-z,-x
136 1/2-y,1/2-x,z
137 1/2-y,1/2+x,-z
138 1/2+y,1/2-x,-z
139 1/2-x,1/2-z,y
140 1/2+x,1/2-z,-y
141 1/2-x,1/2+z,-y
142 1/2-z,1/2-y,x
143 1/2-z,1/2+y,-x
144 1/2+z,1/2-y,-x
145 x,y,-z
146 x,-y,z
147 -x,y,z
148 -z,x,y
149 z,x,-y
150 z,-x,y
151 y,-z,x
152 -y,z,x
153 y,z,-x
154 y,x,z
155 x,z,y
156 z,y,x
157 x,1/2+y,1/2-z
158 x,1/2-y,1/2+z
159 -x,1/2+y,1/2+z
160 -z,1/2+x,1/2+y
161 z,1/2+x,1/2-y
162 z,1/2-x,1/2+y
163 y,1/2-z,1/2+x
164 -y,1/2+z,1/2+x
165 y,1/2+z,1/2-x
166 y,1/2+x,1/2+z
167 x,1/2+z,1/2+y
168 z,1/2+y,1/2+x
169 1/2+x,y,1/2-z
170 1/2+x,-y,1/2+z
171 1/2-x,y,1/2+z
172 1/2-z,x,1/2+y
173 1/2+z,x,1/2-y
174 1/2+z,-x,1/2+y
175 1/2+y,-z,1/2+x
176 1/2-y,z,1/2+x
177 1/2+y,z,1/2-x
178 1/2+y,x,1/2+z
179 1/2+x,z,1/2+y
180 1/2+z,y,1/2+x
181 1/2+x,1/2+y,-z
182 1/2+x,1/2-y,z
183 1/2-x,1/2+y,z
184 1/2-z,1/2+x,y
185 1/2+z,1/2+x,-y
186 1/2+z,1/2-x,y
187 1/2+y,1/2-z,x
188 1/2-y,1/2+z,x
189 1/2+y,1/2+z,-x
190 1/2+y,1/2+x,z
191 1/2+x,1/2+z,y
192 1/2+z,1/2+y,x
_cell_length_a                   25.7465(14)
_cell_length_b                   25.7465(14)
_cell_length_c                   25.7465(14)
_cell_angle_alpha                90
_cell_angle_beta                 90
_cell_angle_gamma                90
_cell_volume                     17066.9
loop_
_atom_site_label
_atom_site_type_symbol
_atom_site_fract_x
_atom_site_fract_y
_atom_site_fract_z
_atom_site_U_iso_or_equiv
_atom_site_thermal_displace_type
Zn1 Zn 0.29342(5) 0.20658(5) 0.20658(5) 0.0505 Uani
O1 O 0.2807(3) 0.2193(3) 0.1340(3) 0.0800 Uani
O2 O 0.2500 0.2500 0.2500 0.0430 Uani
C1 C 0.2500 0.2500 0.1105(6) 0.0637 Uani
C2 C 0.2500 0.2500 0.0557(6) 0.0673 Uani
C3 C 0.2810(5) 0.2190(5) 0.0266(6) 0.1400 Uani
N1 N 0.3177(7) 0.1823(7) 0.0474(19) 0.1400 Uani
O1WE O 0.2193(3) 0.2807(3) 0.1340(3) 0.0800 Uani
C3NE C 0.2810(5) 0.2190(5) -0.0266(6) 0.1400 Uani
C2NE C 0.2500 0.2500 -0.0557(6) 0.0673 Uani
C1NE C 0.2500 0.2500 -0.1105(6) 0.0637 Uani
O1NE O 0.2807(3) 0.2193(3) -0.1340(3) 0.0800 Uani
O1C O 0.2193(3) 0.2807(3) -0.1340(3) 0.0800 Uani
C3C C 0.2190(5) 0.2810(5) -0.0266(6) 0.1400 Uani
C3WE C 0.2190(5) 0.2810(5) 0.0266(6) 0.1400 Uani
N1WE N 0.1823(7) 0.3177(7) 0.0474(19) 0.1400 Uani
N1C N 0.1823(7) 0.3177(7) -0.0474(19) 0.1400 Uani
N1NE N 0.3177(7) 0.1823(7) -0.0474(19) 0.1400 Uani
O1XE O 0.2807(3) 0.1340(3) 0.2193(3) 0.0800 Uani
C1XE C 0.2500 0.1105(6) 0.2500 0.0637 Uani
C2XE C 0.2500 0.0557(6) 0.2500 0.0673 Uani
C3XE C 0.2810(5) 0.0266(6) 0.2190(5) 0.1400 Uani
N1XE N 0.3177(7) 0.0474(19) 0.1823(7) 0.1400 Uani
O1B O 0.2193(3) 0.1340(3) 0.2807(3) 0.0800 Uani
C3H C 0.2810(5) -0.0266(6) 0.2190(5) 0.1400 Uani
C2H C 0.2500 -0.0557(6) 0.2500 0.0673 Uani
C1H C 0.2500 -0.1105(6) 0.2500 0.0637 Uani
O1H O 0.2807(3) -0.1340(3) 0.2193(3) 0.0800 Uani
O1TE O 0.2193(3) -0.1340(3) 0.2807(3) 0.0800 Uani
C3TE C 0.2190(5) -0.0266(6) 0.2810(5) 0.1400 Uani
C3B C 0.2190(5) 0.0266(6) 0.2810(5) 0.1400 Uani
N1B N 0.1823(7) 0.0474(19) 0.3177(7) 0.1400 Uani
N1TE N 0.1823(7) -0.0474(19) 0.3177(7) 0.1400 Uani
N1H N 0.3177(7) -0.0474(19) 0.1823(7) 0.1400 Uani
O1ZD O 0.3660(3) 0.2193(3) 0.2193(3) 0.0800 Uani
C1ZD C 0.3895(6) 0.2500 0.2500 0.0637 Uani
C2ZD C 0.4443(6) 0.2500 0.2500 0.0673 Uani
C3ZD C 0.4734(6) 0.2190(5) 0.2190(5) 0.1400 Uani
N1ZD N 0.4526(19) 0.1823(7) 0.1823(7) 0.1400 Uani
O1YB O 0.3660(3) 0.2807(3) 0.2807(3) 0.0800 Uani
C3GA C 0.5266(6) 0.2190(5) 0.2190(5) 0.1400 Uani
C2GA C 0.5557(6) 0.2500 0.2500 0.0673 Uani
C1GA C 0.6105(6) 0.2500 0.2500 0.0637 Uani
O1GA O 0.6340(3) 0.2193(3) 0.2193(3) 0.0800 Uani
O1PF O 0.6340(3) 0.2807(3) 0.2807(3) 0.0800 Uani
C3PF C 0.5266(6) 0.2810(5) 0.2810(5) 0.1400 Uani
C3YB C 0.4734(6) 0.2810(5) 0.2810(5) 0.1400 Uani
N1YB N 0.4526(19) 0.3177(7) 0.3177(7) 0.1400 Uani
N1PF N 0.5474(19) 0.3177(7) 0.3177(7) 0.1400 Uani
N1GA N 0.5474(19) 0.1823(7) 0.1823(7) 0.1400 Uani
Zn1WE Zn 0.20658(5) 0.29342(5) 0.20658(5) 0.0505 Uani
Zn1NE Zn 0.29342(5) 0.20658(5) -0.20658(5) 0.0505 Uani
Zn1C Zn 0.20658(5) 0.29342(5) -0.20658(5) 0.0505 Uani
Zn1B Zn 0.20658(5) 0.20658(5) 0.29342(5) 0.0505 Uani
Zn1H Zn 0.29342(5) -0.20658(5) 0.20658(5) 0.0505 Uani
Zn1TE Zn 0.20658(5) -0.20658(5) 0.29342(5) 0.0505 Uani
Zn1YB Zn 0.29342(5) 0.29342(5) 0.29342(5) 0.0505 Uani
O1A O 0.1340(3) 0.2807(3) 0.2193(3) 0.0800 Uani
C1A C 0.1105(6) 0.2500 0.2500 0.0637 Uani
C2A C 0.0557(6) 0.2500 0.2500 0.0673 Uani
C3A C 0.0266(6) 0.2810(5) 0.2190(5) 0.1400 Uani
N1A N 0.0474(19) 0.3177(7) 0.1823(7) 0.1400 Uani
O1YE O 0.1340(3) 0.2193(3) 0.2807(3) 0.0800 Uani
C3QE C -0.0266(6) 0.2810(5) 0.2190(5) 0.1400 Uani
C2QE C -0.0557(6) 0.2500 0.2500 0.0673 Uani
C1QE C -0.1105(6) 0.2500 0.2500 0.0637 Uani
O1QE O -0.1340(3) 0.2807(3) 0.2193(3) 0.0800 Uani
O1K O -0.1340(3) 0.2193(3) 0.2807(3) 0.0800 Uani
C3K C -0.0266(6) 0.2190(5) 0.2810(5) 0.1400 Uani
C3YE C 0.0266(6) 0.2190(5) 0.2810(5) 0.1400 Uani
N1YE N 0.0474(19) 0.1823(7) 0.3177(7) 0.1400 Uani
N1K N -0.0474(19) 0.1823(7) 0.3177(7) 0.1400 Uani
N1QE N -0.0474(19) 0.3177(7) 0.1823(7) 0.1400 Uani
O1OB O 0.2193(3) 0.3660(3) 0.2193(3) 0.0800 Uani
C1OB C 0.2500 0.3895(6) 0.2500 0.0637 Uani
C2OB C 0.2500 0.4443(6) 0.2500 0.0673 Uani
C3OB C 0.2190(5) 0.4734(6) 0.2190(5) 0.1400 Uani
N1OB N 0.1823(7) 0.4526(19) 0.1823(7) 0.1400 Uani
O1KD O 0.2807(3) 0.3660(3) 0.2807(3) 0.0800 Uani
C3HF C 0.2190(5) 0.5266(6) 0.2190(5) 0.1400 Uani
C2HF C 0.2500 0.5557(6) 0.2500 0.0673 Uani
C1HF C 0.2500 0.6105(6) 0.2500 0.0637 Uani
O1HF O 0.2193(3) 0.6340(3) 0.2193(3) 0.0800 Uani
O1R O 0.2807(3) 0.6340(3) 0.2807(3) 0.0800 Uani
C3R C 0.2810(5) 0.5266(6) 0.2810(5) 0.1400 Uani
C3KD C 0.2810(5) 0.4734(6) 0.2810(5) 0.1400 Uani
N1KD N 0.3177(7) 0.4526(19) 0.3177(7) 0.1400 Uani
N1R N 0.3177(7) 0.5474(19) 0.3177(7) 0.1400 Uani
N1HF N 0.1823(7) 0.5474(19) 0.1823(7) 0.1400 Uani
O1ID O 0.2193(3) 0.2193(3) 0.3660(3) 0.0800 Uani
C1ID C 0.2500 0.2500 0.3895(6) 0.0637 Uani
C2ID C 0.2500 0.2500 0.4443(6) 0.0673 Uani
C3ID C 0.2190(5) 0.2190(5) 0.4734(6) 0.1400 Uani
N1ID N 0.1823(7) 0.1823(7) 0.4526(19) 0.1400 Uani
O1JB O 0.2807(3) 0.2807(3) 0.3660(3) 0.0800 Uani
C3P C 0.2190(5) 0.2190(5) 0.5266(6) 0.1400 Uani
C2P C 0.2500 0.2500 0.5557(6) 0.0673 Uani
C1P C 0.2500 0.2500 0.6105(6) 0.0637 Uani
O1P O 0.2193(3) 0.2193(3) 0.6340(3) 0.0800 Uani
O1AF O 0.2807(3) 0.2807(3) 0.6340(3) 0.0800 Uani
C3AF C 0.2810(5) 0.2810(5) 0.5266(6) 0.1400 Uani
C3JB C 0.2810(5) 0.2810(5) 0.4734(6) 0.1400 Uani
N1JB N 0.3177(7) 0.3177(7) 0.4526(19) 0.1400 Uani
N1AF N 0.3177(7) 0.3177(7) 0.5474(19) 0.1400 Uani
N1P N 0.1823(7) 0.1823(7) 0.5474(19) 0.1400 Uani
Zn1G Zn 0.70658(5) 0.20658(5) 0.20658(5) 0.0505 Uani
Zn1AA Zn 0.70658(5) 0.29342(5) 0.29342(5) 0.0505 Uani
O1F O 0.2807(3) 0.1340(3) -0.2193(3) 0.0800 Uani
O1IA O 0.3660(3) 0.2193(3) -0.2193(3) 0.0800 Uani
O2C O 0.2500 0.2500 -0.2500 0.0430 Uani
O1V O 0.1340(3) 0.2807(3) -0.2193(3) 0.0800 Uani
O1FF O 0.2193(3) 0.3660(3) -0.2193(3) 0.0800 Uani
O1OA O 0.2807(3) -0.2193(3) 0.1340(3) 0.0800 Uani
O1AG O 0.3660(3) -0.2193(3) 0.2193(3) 0.0800 Uani
O2D O 0.2500 -0.2500 0.2500 0.0430 Uani
O1J O 0.1340(3) -0.2193(3) 0.2807(3) 0.0800 Uani
O1O O 0.2193(3) -0.2193(3) 0.3660(3) 0.0800 Uani
Zn1E Zn -0.20658(5) 0.29342(5) 0.20658(5) 0.0505 Uani
Zn1K Zn -0.20658(5) 0.20658(5) 0.29342(5) 0.0505 Uani
Zn1D Zn 0.20658(5) 0.70658(5) 0.20658(5) 0.0505 Uani
Zn1R Zn 0.29342(5) 0.70658(5) 0.29342(5) 0.0505 Uani
Zn1I Zn 0.20658(5) 0.20658(5) 0.70658(5) 0.0505 Uani
Zn1T Zn 0.29342(5) 0.29342(5) 0.70658(5) 0.0505 Uani
loop_
_atom_site_aniso_label
_atom_site_aniso_U_11
_atom_site_aniso_U_22
_atom_site_aniso_U_33
_atom_site_aniso_U_23
_atom_site_aniso_U_13
_atom_site_aniso_U_12
Zn1 0.0505(12) 0.0505(12) 0.0505(12) -0.0012(5) 0.0012(5) 0.0012(5)
O1 0.096(4) 0.096(4) 0.048(5) -0.006(3) 0.006(3) 0.028(5)
O2 0.043(5) 0.043(5) 0.043(5) 0.000 0.000 0.000
C1 0.076(7) 0.076(7) 0.039(9) 0.000 0.000 -0.003(10)
C2 0.073(7) 0.073(7) 0.056(9) 0.000 0.000 0.006(9)
C3 0.185(14) 0.185(14) 0.050(8) 0.009(6) -0.009(6) 0.090(17)
N1 0.185(14) 0.185(14) 0.050(8) 0.009(6) -0.009(6) 0.090(17)
O1WE 0.096 0.096 0.048 0.006 -0.006 0.028
C3NE 0.185 0.185 0.05 -0.009 0.009 0.09
C2NE 0.073 0.073 0.056 0 0 0.006
C1NE 0.076 0.076 0.039 0 0 -0.003
O1NE 0.096 0.096 0.048 0.006 -0.006 0.028
O1C 0.096 0.096 0.048 -0.006 0.006 0.028
C3C 0.185 0.185 0.05 0.009 -0.009 0.09
C3WE 0.185 0.185 0.05 -0.009 0.009 0.09
N1WE 0.185 0.185 0.05 -0.009 0.009 0.09
N1C 0.185 0.185 0.05 0.009 -0.009 0.09
N1NE 0.185 0.185 0.05 -0.009 0.009 0.09
O1XE 0.096 0.048 0.096 -0.006 0.028 0.006
C1XE 0.076 0.039 0.076 0 -0.003 0
C2XE 0.073 0.056 0.073 0 0.006 0
C3XE 0.185 0.05 0.185 0.009 0.09 -0.009
N1XE 0.185 0.05 0.185 0.009 0.09 -0.009
O1B 0.096 0.048 0.096 0.006 0.028 -0.006
C3H 0.185 0.05 0.185 -0.009 0.09 0.009
C2H 0.073 0.056 0.073 0 0.006 0
C1H 0.076 0.039 0.076 0 -0.003 0
O1H 0.096 0.048 0.096 0.006 0.028 -0.006
O1TE 0.096 0.048 0.096 -0.006 0.028 0.006
C3TE 0.185 0.05 0.185 0.009 0.09 -0.009
C3B 0.185 0.05 0.185 -0.009 0.09 0.009
N1B 0.185 0.05 0.185 -0.009 0.09 0.009
N1TE 0.185 0.05 0.185 0.009 0.09 -0.009
N1H 0.185 0.05 0.185 -0.009 0.09 0.009
O1ZD 0.048 0.096 0.096 -0.028 0.006 0.006
C1ZD 0.039 0.076 0.076 0.003 0 0
C2ZD 0.056 0.073 0.073 -0.006 0 0
C3ZD 0.05 0.185 0.185 -0.09 -0.009 -0.009
N1ZD 0.05 0.185 0.185 -0.09 -0.009 -0.009
O1YB 0.048 0.096 0.096 -0.028 -0.006 -0.006
C3GA 0.05 0.185 0.185 -0.09 0.009 0.009
C2GA 0.056 0.073 0.073 -0.006 0 0
C1GA 0.039 0.076 0.076 0.003 0 0
O1GA 0.048 0.096 0.096 -0.028 -0.006 -0.006
O1PF 0.048 0.096 0.096 -0.028 0.006 0.006
C3PF 0.05 0.185 0.185 -0.09 -0.009 -0.009
C3YB 0.05 0.185 0.185 -0.09 0.009 0.009
N1YB 0.05 0.185 0.185 -0.09 0.009 0.009
N1PF 0.05 0.185 0.185 -0.09 -0.009 -0.009
N1GA 0.05 0.185 0.185 -0.09 0.009 0.009
Zn1WE 0.0505 0.0505 0.0505 0.0012 -0.0012 0.0012
Zn1NE 0.0505 0.0505 0.0505 0.0012 -0.0012 0.0012
Zn1C 0.0505 0.0505 0.0505 -0.0012 0.0012 0.0012
Zn1B 0.0505 0.0505 0.0505 0.0012 0.0012 -0.0012
Zn1H 0.0505 0.0505 0.0505 0.0012 0.0012 -0.0012
Zn1TE 0.0505 0.0505 0.0505 -0.0012 0.0012 0.0012
Zn1YB 0.0505 0.0505 0.0505 -0.0012 -0.0012 -0.0012
O1A 0.048 0.096 0.096 0.028 -0.006 0.006
C1A 0.039 0.076 0.076 -0.003 0 0
C2A 0.056 0.073 0.073 0.006 0 0
C3A 0.05 0.185 0.185 0.09 0.009 -0.009
N1A 0.05 0.185 0.185 0.09 0.009 -0.009
O1YE 0.048 0.096 0.096 0.028 0.006 -0.006
C3QE 0.05 0.185 0.185 0.09 -0.009 0.009
C2QE 0.056 0.073 0.073 0.006 0 0
C1QE 0.039 0.076 0.076 -0.003 0 0
O1QE 0.048 0.096 0.096 0.028 0.006 -0.006
O1K 0.048 0.096 0.096 0.028 -0.006 0.006
C3K 0.05 0.185 0.185 0.09 0.009 -0.009
C3YE 0.05 0.185 0.185 0.09 -0.009 0.009
N1YE 0.05 0.185 0.185 0.09 -0.009 0.009
N1K 0.05 0.185 0.185 0.09 0.009 -0.009
N1QE 0.05 0.185 0.185 0.09 -0.009 0.009
O1OB 0.096 0.048 0.096 0.006 -0.028 0.006
C1OB 0.076 0.039 0.076 0 0.003 0
C2OB 0.073 0.056 0.073 0 -0.006 0
C3OB 0.185 0.05 0.185 -0.009 -0.09 -0.009
N1OB 0.185 0.05 0.185 -0.009 -0.09 -0.009
O1KD 0.096 0.048 0.096 -0.006 -0.028 -0.006
C3HF 0.185 0.05 0.185 0.009 -0.09 0.009
C2HF 0.073 0.056 0.073 0 -0.006 0
C1HF 0.076 0.039 0.076 0 0.003 0
O1HF 0.096 0.048 0.096 -0.006 -0.028 -0.006
O1R 0.096 0.048 0.096 0.006 -0.028 0.006
C3R 0.185 0.05 0.185 -0.009 -0.09 -0.009
C3KD 0.185 0.05 0.185 0.009 -0.09 0.009
N1KD 0.185 0.05 0.185 0.009 -0.09 0.009
N1R 0.185 0.05 0.185 -0.009 -0.09 -0.009
N1HF 0.185 0.05 0.185 0.009 -0.09 0.009
O1ID 0.096 0.096 0.048 0.006 0.006 -0.028
C1ID 0.076 0.076 0.039 0 0 0.003
C2ID 0.073 0.073 0.056 0 0 -0.006
C3ID 0.185 0.185 0.05 -0.009 -0.009 -0.09
N1ID 0.185 0.185 0.05 -0.009 -0.009 -0.09
O1JB 0.096 0.096 0.048 -0.006 -0.006 -0.028
C3P 0.185 0.185 0.05 0.009 0.009 -0.09
C2P 0.073 0.073 0.056 0 0 -0.006
C1P 0.076 0.076 0.039 0 0 0.003
O1P 0.096 0.096 0.048 -0.006 -0.006 -0.028
O1AF 0.096 0.096 0.048 0.006 0.006 -0.028
C3AF 0.185 0.185 0.05 -0.009 -0.009 -0.09
C3JB 0.185 0.185 0.05 0.009 0.009 -0.09
N1JB 0.185 0.185 0.05 0.009 0.009 -0.09
N1AF 0.185 0.185 0.05 -0.009 -0.009 -0.09
N1P 0.185 0.185 0.05 0.009 0.009 -0.09
Zn1G 0.0505 0.0505 0.0505 -0.0012 -0.0012 -0.0012
Zn1AA 0.0505 0.0505 0.0505 -0.0012 0.0012 0.0012
O1F 0.096 0.048 0.096 0.006 -0.028 0.006
O1IA 0.048 0.096 0.096 0.028 -0.006 0.006
O2C 0.043 0.043 0.043 0 0 0
O1V 0.048 0.096 0.096 -0.028 0.006 0.006
O1FF 0.096 0.048 0.096 -0.006 0.028 0.006
O1OA 0.096 0.096 0.048 0.006 0.006 -0.028
O1AG 0.048 0.096 0.096 0.028 0.006 -0.006
O2D 0.043 0.043 0.043 0 0 0
O1J 0.048 0.096 0.096 -0.028 0.006 0.006
O1O 0.096 0.096 0.048 -0.006 0.006 0.028
Zn1E 0.0505 0.0505 0.0505 0.0012 0.0012 -0.0012
Zn1K 0.0505 0.0505 0.0505 0.0012 -0.0012 0.0012
Zn1D 0.0505 0.0505 0.0505 -0.0012 -0.0012 -0.0012
Zn1R 0.0505 0.0505 0.0505 0.0012 -0.0012 0.0012
Zn1I 0.0505 0.0505 0.0505 -0.0012 -0.0012 -0.0012
Zn1T 0.0505 0.0505 0.0505 0.0012 0.0012 -0.0012
loop_
_geom_bond_atom_site_label_1
_geom_bond_atom_site_label_2
_geom_bond_site_symmetry_1
_geom_bond_site_symmetry_2
Zn1 O1 1_555 1_555
O1 C1 1_555 1_555
O2 Zn1 1_555 1_555
C1 C2 1_555 1_555
C2 C3 1_555 1_555
C3 N1 1_555 1_555
O1WE C1 1_555 1_555
C3NE C3 1_555 1_555
C2NE C3NE 1_555 1_555
C1NE C2NE 1_555 1_555
O1NE C1NE 1_555 1_555
O1C C1NE 1_555 1_555
C3C C2NE 1_555 1_555
C3WE C2 1_555 1_555
N1WE C3WE 1_555 1_555
N1C C3C 1_555 1_555
N1NE C3NE 1_555 1_555
O1XE Zn1 1_555 1_555
C1XE O1XE 1_555 1_555
C2XE C1XE 1_555 1_555
C3XE C2XE 1_555 1_555
N1XE C3XE 1_555 1_555
O1B C1XE 1_555 1_555
C3H C3XE 1_555 1_555
C2H C3H 1_555 1_555
C1H C2H 1_555 1_555
O1H C1H 1_555 1_555
O1TE C1H 1_555 1_555
C3TE C2H 1_555 1_555
C3B C2XE 1_555 1_555
N1B C3B 1_555 1_555
N1TE C3TE 1_555 1_555
N1H C3H 1_555 1_555
O1ZD Zn1 1_555 1_555
C1ZD O1ZD 1_555 1_555
C2ZD C1ZD 1_555 1_555
C3ZD C2ZD 1_555 1_555
N1ZD C3ZD 1_555 1_555
O1YB C1ZD 1_555 1_555
C3GA C3ZD 1_555 1_555
C2GA C3GA 1_555 1_555
C1GA C2GA 1_555 1_555
O1GA C1GA 1_555 1_555
O1PF C1GA 1_555 1_555
C3PF C2GA 1_555 1_555
C3YB C2ZD 1_555 1_555
N1YB C3YB 1_555 1_555
N1PF C3PF 1_555 1_555
N1GA C3GA 1_555 1_555
Zn1WE O2 1_555 1_555
Zn1NE O1NE 1_555 1_555
Zn1C O1C 1_555 1_555
Zn1B O2 1_555 1_555
Zn1H O1H 1_555 1_555
Zn1TE O1TE 1_555 1_555
Zn1YB O2 1_555 1_555
O1A Zn1WE 1_555 1_555
C1A O1A 1_555 1_555
C2A C1A 1_555 1_555
C3A C2A 1_555 1_555
N1A C3A 1_555 1_555
O1YE Zn1B 1_555 1_555
C3QE C3A 1_555 1_555
C2QE C3QE 1_555 1_555
C1QE C2QE 1_555 1_555
O1QE C1QE 1_555 1_555
O1K C1QE 1_555 1_555
C3K C2QE 1_555 1_555
C3YE C2A 1_555 1_555
N1YE C3YE 1_555 1_555
N1K C3K 1_555 1_555
N1QE C3QE 1_555 1_555
O1OB Zn1WE 1_555 1_555
C1OB O1OB 1_555 1_555
C2OB C1OB 1_555 1_555
C3OB C2OB 1_555 1_555
N1OB C3OB 1_555 1_555
O1KD Zn1YB 1_555 1_555
C3HF C3OB 1_555 1_555
C2HF C3HF 1_555 1_555
C1HF C2HF 1_555 1_555
O1HF C1HF 1_555 1_555
O1R C1HF 1_555 1_555
C3R C2HF 1_555 1_555
C3KD C2OB 1_555 1_555
N1KD C3KD 1_555 1_555
N1R C3R 1_555 1_555
N1HF C3HF 1_555 1_555
O1ID Zn1B 1_555 1_555
C1ID O1ID 1_555 1_555
C2ID C1ID 1_555 1_555
C3ID C2ID 1_555 1_555
N1ID C3ID 1_555 1_555
O1JB Zn1YB 1_555 1_555
C3P C3ID 1_555 1_555
C2P C3P 1_555 1_555
C1P C2P 1_555 1_555
O1P C1P 1_555 1_555
O1AF C1P 1_555 1_555
C3AF C2P 1_555 1_555
C3JB C2ID 1_555 1_555
N1JB C3JB 1_555 1_555
N1AF C3AF 1_555 1_555
N1P C3P 1_555 1_555
Zn1G O1GA 1_555 1_555
Zn1AA O1PF 1_555 1_555
O1F Zn1NE 1_555 1_555
O1IA Zn1NE 1_555 1_555
O2C Zn1NE 1_555 1_555
O1V Zn1C 1_555 1_555
O1FF Zn1C 1_555 1_555
O1OA Zn1H 1_555 1_555
O1AG Zn1H 1_555 1_555
O2D Zn1H 1_555 1_555
O1J Zn1TE 1_555 1_555
O1O Zn1TE 1_555 1_555
Zn1E O1QE 1_555 1_555
Zn1K O1K 1_555 1_555
Zn1D O1HF 1_555 1_555
Zn1R O1R 1_555 1_555
Zn1I O1P 1_555 1_555
Zn1T O1AF 1_555 1_555
O1WE Zn1WE 1_555 1_555
C3C C3WE 1_555 1_555
O1B Zn1B 1_555 1_555
C3TE C3B 1_555 1_555
O1YB Zn1YB 1_555 1_555
C3PF C3YB 1_555 1_555
Zn1C O2C 1_555 1_555
Zn1TE O2D 1_555 1_555
C1A O1YE 1_555 1_555
C3K C3YE 1_555 1_555
C1OB O1KD 1_555 1_555
C3R C3KD 1_555 1_555
C1ID O1JB 1_555 1_555
C3AF C3JB 1_555 1_555

#END
