
#######################################################################
#
#                 Cambridge Crystallographic Data Centre
#                                CCDC 
#
#######################################################################
#
# If this CIF has been generated from an entry in the Cambridge 
# Structural Database, then it will include bibliographic, chemical, 
# crystal, experimental, refinement or atomic coordinate data resulting 
# from the CCDC's data processing and validation procedures.
#
#######################################################################

data_EDUSOL
_chemical_formula_moiety         'C72 Br48 O37 Zn16'
_symmetry_cell_setting           cubic
_symmetry_space_group_name_H-M   'F m -3 m'
_symmetry_Int_Tables_number      225
_space_group_name_Hall           '-F 4 2 3'
loop_
_symmetry_equiv_pos_site_id
_symmetry_equiv_pos_as_xyz
1 x,y,z
2 z,x,y
3 y,z,x
4 y,x,-z
5 y,-x,z
6 -y,x,z
7 x,z,-y
8 -x,z,y
9 x,-z,y
10 z,y,-x
11 z,-y,x
12 -z,y,x
13 x,1/2+y,1/2+z
14 z,1/2+x,1/2+y
15 y,1/2+z,1/2+x
16 y,1/2+x,1/2-z
17 y,1/2-x,1/2+z
18 -y,1/2+x,1/2+z
19 x,1/2+z,1/2-y
20 -x,1/2+z,1/2+y
21 x,1/2-z,1/2+y
22 z,1/2+y,1/2-x
23 z,1/2-y,1/2+x
24 -z,1/2+y,1/2+x
25 1/2+x,y,1/2+z
26 1/2+z,x,1/2+y
27 1/2+y,z,1/2+x
28 1/2+y,x,1/2-z
29 1/2+y,-x,1/2+z
30 1/2-y,x,1/2+z
31 1/2+x,z,1/2-y
32 1/2-x,z,1/2+y
33 1/2+x,-z,1/2+y
34 1/2+z,y,1/2-x
35 1/2+z,-y,1/2+x
36 1/2-z,y,1/2+x
37 1/2+x,1/2+y,z
38 1/2+z,1/2+x,y
39 1/2+y,1/2+z,x
40 1/2+y,1/2+x,-z
41 1/2+y,1/2-x,z
42 1/2-y,1/2+x,z
43 1/2+x,1/2+z,-y
44 1/2-x,1/2+z,y
45 1/2+x,1/2-z,y
46 1/2+z,1/2+y,-x
47 1/2+z,1/2-y,x
48 1/2-z,1/2+y,x
49 x,y,-z
50 x,-y,z
51 -x,y,z
52 -z,x,y
53 z,x,-y
54 z,-x,y
55 y,-z,x
56 -y,z,x
57 y,z,-x
58 y,x,z
59 x,z,y
60 z,y,x
61 x,1/2+y,1/2-z
62 x,1/2-y,1/2+z
63 -x,1/2+y,1/2+z
64 -z,1/2+x,1/2+y
65 z,1/2+x,1/2-y
66 z,1/2-x,1/2+y
67 y,1/2-z,1/2+x
68 -y,1/2+z,1/2+x
69 y,1/2+z,1/2-x
70 y,1/2+x,1/2+z
71 x,1/2+z,1/2+y
72 z,1/2+y,1/2+x
73 1/2+x,y,1/2-z
74 1/2+x,-y,1/2+z
75 1/2-x,y,1/2+z
76 1/2-z,x,1/2+y
77 1/2+z,x,1/2-y
78 1/2+z,-x,1/2+y
79 1/2+y,-z,1/2+x
80 1/2-y,z,1/2+x
81 1/2+y,z,1/2-x
82 1/2+y,x,1/2+z
83 1/2+x,z,1/2+y
84 1/2+z,y,1/2+x
85 1/2+x,1/2+y,-z
86 1/2+x,1/2-y,z
87 1/2-x,1/2+y,z
88 1/2-z,1/2+x,y
89 1/2+z,1/2+x,-y
90 1/2+z,1/2-x,y
91 1/2+y,1/2-z,x
92 1/2-y,1/2+z,x
93 1/2+y,1/2+z,-x
94 1/2+y,1/2+x,z
95 1/2+x,1/2+z,y
96 1/2+z,1/2+y,x
97 -x,-y,-z
98 -z,-x,-y
99 -y,-z,-x
100 -y,-x,z
101 -y,x,-z
102 y,-x,-z
103 -x,-z,y
104 x,-z,-y
105 -x,z,-y
106 -z,-y,x
107 -z,y,-x
108 z,-y,-x
109 -x,1/2-y,1/2-z
110 -z,1/2-x,1/2-y
111 -y,1/2-z,1/2-x
112 -y,1/2-x,1/2+z
113 -y,1/2+x,1/2-z
114 y,1/2-x,1/2-z
115 -x,1/2-z,1/2+y
116 x,1/2-z,1/2-y
117 -x,1/2+z,1/2-y
118 -z,1/2-y,1/2+x
119 -z,1/2+y,1/2-x
120 z,1/2-y,1/2-x
121 1/2-x,-y,1/2-z
122 1/2-z,-x,1/2-y
123 1/2-y,-z,1/2-x
124 1/2-y,-x,1/2+z
125 1/2-y,x,1/2-z
126 1/2+y,-x,1/2-z
127 1/2-x,-z,1/2+y
128 1/2+x,-z,1/2-y
129 1/2-x,z,1/2-y
130 1/2-z,-y,1/2+x
131 1/2-z,y,1/2-x
132 1/2+z,-y,1/2-x
133 1/2-x,1/2-y,-z
134 1/2-z,1/2-x,-y
135 1/2-y,1/2-z,-x
136 1/2-y,1/2-x,z
137 1/2-y,1/2+x,-z
138 1/2+y,1/2-x,-z
139 1/2-x,1/2-z,y
140 1/2+x,1/2-z,-y
141 1/2-x,1/2+z,-y
142 1/2-z,1/2-y,x
143 1/2-z,1/2+y,-x
144 1/2+z,1/2-y,-x
145 -x,-y,z
146 -x,y,-z
147 x,-y,-z
148 z,-x,-y
149 -z,-x,y
150 -z,x,-y
151 -y,z,-x
152 y,-z,-x
153 -y,-z,x
154 -y,-x,-z
155 -x,-z,-y
156 -z,-y,-x
157 -x,1/2-y,1/2+z
158 -x,1/2+y,1/2-z
159 x,1/2-y,1/2-z
160 z,1/2-x,1/2-y
161 -z,1/2-x,1/2+y
162 -z,1/2+x,1/2-y
163 -y,1/2+z,1/2-x
164 y,1/2-z,1/2-x
165 -y,1/2-z,1/2+x
166 -y,1/2-x,1/2-z
167 -x,1/2-z,1/2-y
168 -z,1/2-y,1/2-x
169 1/2-x,-y,1/2+z
170 1/2-x,y,1/2-z
171 1/2+x,-y,1/2-z
172 1/2+z,-x,1/2-y
173 1/2-z,-x,1/2+y
174 1/2-z,x,1/2-y
175 1/2-y,z,1/2-x
176 1/2+y,-z,1/2-x
177 1/2-y,-z,1/2+x
178 1/2-y,-x,1/2-z
179 1/2-x,-z,1/2-y
180 1/2-z,-y,1/2-x
181 1/2-x,1/2-y,z
182 1/2-x,1/2+y,-z
183 1/2+x,1/2-y,-z
184 1/2+z,1/2-x,-y
185 1/2-z,1/2-x,y
186 1/2-z,1/2+x,-y
187 1/2-y,1/2+z,-x
188 1/2+y,1/2-z,-x
189 1/2-y,1/2-z,x
190 1/2-y,1/2-x,-z
191 1/2-x,1/2-z,-y
192 1/2-z,1/2-y,-x
_cell_length_a                   25.7718(10)
_cell_length_b                   25.7718(10)
_cell_length_c                   25.7718(10)
_cell_angle_alpha                90
_cell_angle_beta                 90
_cell_angle_gamma                90
_cell_volume                     17117.3
loop_
_atom_site_label
_atom_site_type_symbol
_atom_site_fract_x
_atom_site_fract_y
_atom_site_fract_z
_atom_site_U_iso_or_equiv
_atom_site_thermal_displace_type
Zn1 Zn 0.20659(5) 0.20659(5) 0.20659(5) 0.0680 Uani
O1 O 0.2500 0.2500 0.2500 0.0490 Uani
O2 O 0.2200(3) 0.2200(3) 0.1338(4) 0.1243 Uani
C1 C 0.2500 0.2500 0.1106(7) 0.0983 Uani
C2 C 0.2500 0.2500 0.0550(8) 0.1050 Uani
C3 C 0.2099(10) 0.2355(8) 0.0263(8) 0.1367 Uani
Br1 Br 0.1364(10) 0.2142(12) 0.0516(7) 0.4940 Uani
O2EE O 0.2800(3) 0.2800(3) 0.1338(4) 0.1243 Uani
C3C C 0.2355(8) 0.2099(10) -0.0263(8) 0.1367 Uani
C2C C 0.2500 0.2500 -0.0550(8) 0.1050 Uani
C1C C 0.2500 0.2500 -0.1106(7) 0.0983 Uani
O2C O 0.2200(3) 0.2200(3) -0.1338(4) 0.1243 Uani
O2BE O 0.2800(3) 0.2800(3) -0.1338(4) 0.1243 Uani
C3VA C 0.2099(10) 0.2355(8) -0.0263(8) 0.1367 Uani
C3EB C 0.2355(8) 0.2099(10) 0.0263(8) 0.1367 Uani
C3EE C 0.2645(8) 0.2901(10) 0.0263(8) 0.1367 Uani
C3BE C 0.2901(10) 0.2645(8) -0.0263(8) 0.1367 Uani
C3GG C 0.2645(8) 0.2901(10) -0.0263(8) 0.1367 Uani
C3XF C 0.2901(10) 0.2645(8) 0.0263(8) 0.1367 Uani
Br1BE Br 0.3636(10) 0.2858(12) -0.0516(7) 0.4940 Uani
Br1XF Br 0.3636(10) 0.2858(12) 0.0516(7) 0.4940 Uani
Br1EE Br 0.2858(12) 0.3636(10) 0.0516(7) 0.4940 Uani
Br1GG Br 0.2858(12) 0.3636(10) -0.0516(7) 0.4940 Uani
Br1EB Br 0.2142(12) 0.1364(10) 0.0516(7) 0.4940 Uani
Br1C Br 0.2142(12) 0.1364(10) -0.0516(7) 0.4940 Uani
Br1VA Br 0.1364(10) 0.2142(12) -0.0516(7) 0.4940 Uani
O2A O 0.1338(4) 0.2200(3) 0.2200(3) 0.1243 Uani
C1A C 0.1106(7) 0.2500 0.2500 0.0983 Uani
C2A C 0.0550(8) 0.2500 0.2500 0.1050 Uani
C3A C 0.0263(8) 0.2099(10) 0.2355(8) 0.1367 Uani
Br1A Br 0.0516(7) 0.1364(10) 0.2142(12) 0.4940 Uani
O2OD O 0.1338(4) 0.2800(3) 0.2800(3) 0.1243 Uani
C3K C -0.0263(8) 0.2355(8) 0.2099(10) 0.1367 Uani
C2K C -0.0550(8) 0.2500 0.2500 0.1050 Uani
C1K C -0.1106(7) 0.2500 0.2500 0.0983 Uani
O2K O -0.1338(4) 0.2200(3) 0.2200(3) 0.1243 Uani
O2ED O -0.1338(4) 0.2800(3) 0.2800(3) 0.1243 Uani
C3YA C -0.0263(8) 0.2099(10) 0.2355(8) 0.1367 Uani
C3GB C 0.0263(8) 0.2355(8) 0.2099(10) 0.1367 Uani
C3OD C 0.0263(8) 0.2645(8) 0.2901(10) 0.1367 Uani
C3ED C -0.0263(8) 0.2901(10) 0.2645(8) 0.1367 Uani
C3KF C -0.0263(8) 0.2645(8) 0.2901(10) 0.1367 Uani
C3CF C 0.0263(8) 0.2901(10) 0.2645(8) 0.1367 Uani
Br1ED Br -0.0516(7) 0.3636(10) 0.2858(12) 0.4940 Uani
Br1CF Br 0.0516(7) 0.3636(10) 0.2858(12) 0.4940 Uani
Br1OD Br 0.0516(7) 0.2858(12) 0.3636(10) 0.4940 Uani
Br1KF Br -0.0516(7) 0.2858(12) 0.3636(10) 0.4940 Uani
Br1GB Br 0.0516(7) 0.2142(12) 0.1364(10) 0.4940 Uani
Br1K Br -0.0516(7) 0.2142(12) 0.1364(10) 0.4940 Uani
Br1YA Br -0.0516(7) 0.1364(10) 0.2142(12) 0.4940 Uani
O2B O 0.2200(3) 0.1338(4) 0.2200(3) 0.1243 Uani
C1B C 0.2500 0.1106(7) 0.2500 0.0983 Uani
C2B C 0.2500 0.0550(8) 0.2500 0.1050 Uani
C3B C 0.2355(8) 0.0263(8) 0.2099(10) 0.1367 Uani
Br1B Br 0.2142(12) 0.0516(7) 0.1364(10) 0.4940 Uani
O2XD O 0.2800(3) 0.1338(4) 0.2800(3) 0.1243 Uani
C3H C 0.2099(10) -0.0263(8) 0.2355(8) 0.1367 Uani
C2H C 0.2500 -0.0550(8) 0.2500 0.1050 Uani
C1H C 0.2500 -0.1106(7) 0.2500 0.0983 Uani
O2H O 0.2200(3) -0.1338(4) 0.2200(3) 0.1243 Uani
O2RD O 0.2800(3) -0.1338(4) 0.2800(3) 0.1243 Uani
C3BB C 0.2355(8) -0.0263(8) 0.2099(10) 0.1367 Uani
C3FB C 0.2099(10) 0.0263(8) 0.2355(8) 0.1367 Uani
C3XD C 0.2901(10) 0.0263(8) 0.2645(8) 0.1367 Uani
C3RD C 0.2645(8) -0.0263(8) 0.2901(10) 0.1367 Uani
C3VF C 0.2901(10) -0.0263(8) 0.2645(8) 0.1367 Uani
C3RF C 0.2645(8) 0.0263(8) 0.2901(10) 0.1367 Uani
Br1RD Br 0.2858(12) -0.0516(7) 0.3636(10) 0.4940 Uani
Br1RF Br 0.2858(12) 0.0516(7) 0.3636(10) 0.4940 Uani
Br1XD Br 0.3636(10) 0.0516(7) 0.2858(12) 0.4940 Uani
Br1VF Br 0.3636(10) -0.0516(7) 0.2858(12) 0.4940 Uani
Br1FB Br 0.1364(10) 0.0516(7) 0.2142(12) 0.4940 Uani
Br1H Br 0.1364(10) -0.0516(7) 0.2142(12) 0.4940 Uani
Br1BB Br 0.2142(12) -0.0516(7) 0.1364(10) 0.4940 Uani
Zn1TD Zn 0.29341(5) 0.20659(5) 0.29341(5) 0.0680 Uani
Zn1KD Zn 0.20659(5) 0.29341(5) 0.29341(5) 0.0680 Uani
Zn1KE Zn 0.29341(5) 0.29341(5) 0.20659(5) 0.0680 Uani
Zn1C Zn 0.20659(5) 0.20659(5) -0.20659(5) 0.0680 Uani
Zn1BE Zn 0.29341(5) 0.29341(5) -0.20659(5) 0.0680 Uani
Zn1K Zn -0.20659(5) 0.20659(5) 0.20659(5) 0.0680 Uani
Zn1ED Zn -0.20659(5) 0.29341(5) 0.29341(5) 0.0680 Uani
O2TD O 0.2800(3) 0.2200(3) 0.3662(4) 0.1243 Uani
C1TD C 0.2500 0.2500 0.3894(7) 0.0983 Uani
C2TD C 0.2500 0.2500 0.4450(8) 0.1050 Uani
C3TD C 0.2645(8) 0.2099(10) 0.4737(8) 0.1367 Uani
Br1TD Br 0.2858(12) 0.1364(10) 0.4484(7) 0.4940 Uani
O2BF O 0.2200(3) 0.2800(3) 0.3662(4) 0.1243 Uani
C3VB C 0.2901(10) 0.2355(8) 0.5263(8) 0.1367 Uani
C2VB C 0.2500 0.2500 0.5550(8) 0.1050 Uani
C1VB C 0.2500 0.2500 0.6106(7) 0.0983 Uani
O2VB O 0.2800(3) 0.2200(3) 0.6338(4) 0.1243 Uani
O2P O 0.2200(3) 0.2800(3) 0.6338(4) 0.1243 Uani
C3CA C 0.2645(8) 0.2099(10) 0.5263(8) 0.1367 Uani
C3MF C 0.2901(10) 0.2355(8) 0.4737(8) 0.1367 Uani
C3BF C 0.2099(10) 0.2645(8) 0.4737(8) 0.1367 Uani
C3P C 0.2355(8) 0.2901(10) 0.5263(8) 0.1367 Uani
C3IB C 0.2099(10) 0.2645(8) 0.5263(8) 0.1367 Uani
C3ID C 0.2355(8) 0.2901(10) 0.4737(8) 0.1367 Uani
Br1P Br 0.2142(12) 0.3636(10) 0.5516(7) 0.4940 Uani
Br1ID Br 0.2142(12) 0.3636(10) 0.4484(7) 0.4940 Uani
Br1BF Br 0.1364(10) 0.2858(12) 0.4484(7) 0.4940 Uani
Br1IB Br 0.1364(10) 0.2858(12) 0.5516(7) 0.4940 Uani
Br1MF Br 0.3636(10) 0.2142(12) 0.4484(7) 0.4940 Uani
Br1VB Br 0.3636(10) 0.2142(12) 0.5516(7) 0.4940 Uani
Br1CA Br 0.2858(12) 0.1364(10) 0.5516(7) 0.4940 Uani
O2ZD O 0.3662(4) 0.2200(3) 0.2800(3) 0.1243 Uani
C1ZD C 0.3894(7) 0.2500 0.2500 0.0983 Uani
C2ZD C 0.4450(8) 0.2500 0.2500 0.1050 Uani
C3ZD C 0.4737(8) 0.2355(8) 0.2901(10) 0.1367 Uani
Br1ZD Br 0.4484(7) 0.2142(12) 0.3636(10) 0.4940 Uani
O2BG O 0.3662(4) 0.2800(3) 0.2200(3) 0.1243 Uani
C3XB C 0.5263(8) 0.2099(10) 0.2645(8) 0.1367 Uani
C2XB C 0.5550(8) 0.2500 0.2500 0.1050 Uani
C1XB C 0.6106(7) 0.2500 0.2500 0.0983 Uani
O2XB O 0.6338(4) 0.2200(3) 0.2800(3) 0.1243 Uani
O2TA O 0.6338(4) 0.2800(3) 0.2200(3) 0.1243 Uani
C3GA C 0.5263(8) 0.2355(8) 0.2901(10) 0.1367 Uani
C3QF C 0.4737(8) 0.2099(10) 0.2645(8) 0.1367 Uani
C3BG C 0.4737(8) 0.2901(10) 0.2355(8) 0.1367 Uani
C3TA C 0.5263(8) 0.2645(8) 0.2099(10) 0.1367 Uani
C3KC C 0.5263(8) 0.2901(10) 0.2355(8) 0.1367 Uani
C3KE C 0.4737(8) 0.2645(8) 0.2099(10) 0.1367 Uani
Br1TA Br 0.5516(7) 0.2858(12) 0.1364(10) 0.4940 Uani
Br1KE Br 0.4484(7) 0.2858(12) 0.1364(10) 0.4940 Uani
Br1BG Br 0.4484(7) 0.3636(10) 0.2142(12) 0.4940 Uani
Br1KC Br 0.5516(7) 0.3636(10) 0.2142(12) 0.4940 Uani
Br1QF Br 0.4484(7) 0.1364(10) 0.2858(12) 0.4940 Uani
Br1XB Br 0.5516(7) 0.1364(10) 0.2858(12) 0.4940 Uani
Br1GA Br 0.5516(7) 0.2142(12) 0.3636(10) 0.4940 Uani
O2KD O 0.2200(3) 0.3662(4) 0.2800(3) 0.1243 Uani
C1KD C 0.2500 0.3894(7) 0.2500 0.0983 Uani
C2KD C 0.2500 0.4450(8) 0.2500 0.1050 Uani
C3KD C 0.2099(10) 0.4737(8) 0.2645(8) 0.1367 Uani
Br1KD Br 0.1364(10) 0.4484(7) 0.2858(12) 0.4940 Uani
O2FG O 0.2800(3) 0.3662(4) 0.2200(3) 0.1243 Uani
C3PB C 0.2355(8) 0.5263(8) 0.2901(10) 0.1367 Uani
C2PB C 0.2500 0.5550(8) 0.2500 0.1050 Uani
C1PB C 0.2500 0.6106(7) 0.2500 0.0983 Uani
O2PB O 0.2200(3) 0.6338(4) 0.2800(3) 0.1243 Uani
O2QA O 0.2800(3) 0.6338(4) 0.2200(3) 0.1243 Uani
C3R C 0.2099(10) 0.5263(8) 0.2645(8) 0.1367 Uani
C3GF C 0.2355(8) 0.4737(8) 0.2901(10) 0.1367 Uani
C3FG C 0.2645(8) 0.4737(8) 0.2099(10) 0.1367 Uani
C3QA C 0.2901(10) 0.5263(8) 0.2355(8) 0.1367 Uani
C3MC C 0.2645(8) 0.5263(8) 0.2099(10) 0.1367 Uani
C3HE C 0.2901(10) 0.4737(8) 0.2355(8) 0.1367 Uani
Br1QA Br 0.3636(10) 0.5516(7) 0.2142(12) 0.4940 Uani
Br1HE Br 0.3636(10) 0.4484(7) 0.2142(12) 0.4940 Uani
Br1FG Br 0.2858(12) 0.4484(7) 0.1364(10) 0.4940 Uani
Br1MC Br 0.2858(12) 0.5516(7) 0.1364(10) 0.4940 Uani
Br1GF Br 0.2142(12) 0.4484(7) 0.3636(10) 0.4940 Uani
Br1PB Br 0.2142(12) 0.5516(7) 0.3636(10) 0.4940 Uani
Br1R Br 0.1364(10) 0.5516(7) 0.2858(12) 0.4940 Uani
Zn1D Zn 0.20659(5) -0.20659(5) 0.20659(5) 0.0680 Uani
Zn1PD Zn 0.29341(5) -0.20659(5) 0.29341(5) 0.0680 Uani
O1C O 0.2500 0.2500 -0.2500 0.0490 Uani
O2F O 0.2200(3) 0.1338(4) -0.2200(3) 0.1243 Uani
O2I O 0.1338(4) 0.2200(3) -0.2200(3) 0.1243 Uani
O2CE O 0.3662(4) 0.2800(3) -0.2200(3) 0.1243 Uani
O2DE O 0.2800(3) 0.3662(4) -0.2200(3) 0.1243 Uani
O1E O -0.2500 0.2500 0.2500 0.0490 Uani
O2E O -0.2200(3) 0.2200(3) 0.1338(4) 0.1243 Uani
O2G O -0.2200(3) 0.1338(4) 0.2200(3) 0.1243 Uani
O2DD O -0.2200(3) 0.2800(3) 0.3662(4) 0.1243 Uani
O2FD O -0.2200(3) 0.3662(4) 0.2800(3) 0.1243 Uani
Zn1CA Zn 0.29341(5) 0.20659(5) 0.70659(5) 0.0680 Uani
Zn1P Zn 0.20659(5) 0.29341(5) 0.70659(5) 0.0680 Uani
Zn1AA Zn 0.70659(5) 0.20659(5) 0.29341(5) 0.0680 Uani
Zn1NA Zn 0.70659(5) 0.29341(5) 0.20659(5) 0.0680 Uani
Zn1O Zn 0.20659(5) 0.70659(5) 0.29341(5) 0.0680 Uani
Zn1OA Zn 0.29341(5) 0.70659(5) 0.20659(5) 0.0680 Uani
O3 O 0.371(2) 0.129(2) 0.129(2) 0.5900 Uani
O4 O 0.5000 0.0000 0.0000 0.4900 Uani
loop_
_atom_site_aniso_label
_atom_site_aniso_U_11
_atom_site_aniso_U_22
_atom_site_aniso_U_33
_atom_site_aniso_U_23
_atom_site_aniso_U_13
_atom_site_aniso_U_12
Zn1 0.0680(11) 0.0680(11) 0.0680(11) -0.0050(7) -0.0050(7) -0.0050(7)
O1 0.049(6) 0.049(6) 0.049(6) 0.000 0.000 0.000
O2 0.160(6) 0.160(6) 0.053(6) 0.002(5) 0.002(5) -0.030(8)
C1 0.131(11) 0.131(11) 0.033(10) 0.000 0.000 -0.020(16)
C2 0.124(11) 0.124(11) 0.067(13) 0.000 0.000 -0.018(16)
C3 0.12(2) 0.22(5) 0.070(10) -0.008(14) 0.014(12) -0.03(3)
Br1 0.33(3) 1.04(9) 0.112(10) 0.00(2) -0.001(15) -0.43(5)
O2EE 0.16 0.16 0.053 -0.002 -0.002 -0.03
C3C 0.22 0.12 0.07 -0.014 0.008 -0.03
C2C 0.124 0.124 0.067 0 0 -0.018
C1C 0.131 0.131 0.033 0 0 -0.02
O2C 0.16 0.16 0.053 -0.002 -0.002 -0.03
O2BE 0.16 0.16 0.053 0.002 0.002 -0.03
C3VA 0.12 0.22 0.07 0.008 -0.014 -0.03
C3EB 0.22 0.12 0.07 0.014 -0.008 -0.03
C3EE 0.22 0.12 0.07 -0.014 0.008 -0.03
C3BE 0.12 0.22 0.07 -0.008 0.014 -0.03
C3GG 0.22 0.12 0.07 0.014 -0.008 -0.03
C3XF 0.12 0.22 0.07 0.008 -0.014 -0.03
Br1BE 0.33 1.04 0.112 0 -0.001 -0.43
Br1XF 0.33 1.04 0.112 0 0.001 -0.43
Br1EE 1.04 0.33 0.112 0.001 0 -0.43
Br1GG 1.04 0.33 0.112 -0.001 0 -0.43
Br1EB 1.04 0.33 0.112 -0.001 0 -0.43
Br1C 1.04 0.33 0.112 0.001 0 -0.43
Br1VA 0.33 1.04 0.112 0 0.001 -0.43
O2A 0.053 0.16 0.16 -0.03 0.002 0.002
C1A 0.033 0.131 0.131 -0.02 0 0
C2A 0.067 0.124 0.124 -0.018 0 0
C3A 0.07 0.12 0.22 -0.03 -0.008 0.014
Br1A 0.112 0.33 1.04 -0.43 0 -0.001
O2OD 0.053 0.16 0.16 -0.03 -0.002 -0.002
C3K 0.07 0.22 0.12 -0.03 -0.014 0.008
C2K 0.067 0.124 0.124 -0.018 0 0
C1K 0.033 0.131 0.131 -0.02 0 0
O2K 0.053 0.16 0.16 -0.03 -0.002 -0.002
O2ED 0.053 0.16 0.16 -0.03 0.002 0.002
C3YA 0.07 0.12 0.22 -0.03 0.008 -0.014
C3GB 0.07 0.22 0.12 -0.03 0.014 -0.008
C3OD 0.07 0.22 0.12 -0.03 -0.014 0.008
C3ED 0.07 0.12 0.22 -0.03 -0.008 0.014
C3KF 0.07 0.22 0.12 -0.03 0.014 -0.008
C3CF 0.07 0.12 0.22 -0.03 0.008 -0.014
Br1ED 0.112 0.33 1.04 -0.43 0 -0.001
Br1CF 0.112 0.33 1.04 -0.43 0 0.001
Br1OD 0.112 1.04 0.33 -0.43 0.001 0
Br1KF 0.112 1.04 0.33 -0.43 -0.001 0
Br1GB 0.112 1.04 0.33 -0.43 -0.001 0
Br1K 0.112 1.04 0.33 -0.43 0.001 0
Br1YA 0.112 0.33 1.04 -0.43 0 0.001
O2B 0.16 0.053 0.16 0.002 -0.03 0.002
C1B 0.131 0.033 0.131 0 -0.02 0
C2B 0.124 0.067 0.124 0 -0.018 0
C3B 0.22 0.07 0.12 0.014 -0.03 -0.008
Br1B 1.04 0.112 0.33 -0.001 -0.43 0
O2XD 0.16 0.053 0.16 -0.002 -0.03 -0.002
C3H 0.12 0.07 0.22 0.008 -0.03 -0.014
C2H 0.124 0.067 0.124 0 -0.018 0
C1H 0.131 0.033 0.131 0 -0.02 0
O2H 0.16 0.053 0.16 -0.002 -0.03 -0.002
O2RD 0.16 0.053 0.16 0.002 -0.03 0.002
C3BB 0.22 0.07 0.12 -0.014 -0.03 0.008
C3FB 0.12 0.07 0.22 -0.008 -0.03 0.014
C3XD 0.12 0.07 0.22 0.008 -0.03 -0.014
C3RD 0.22 0.07 0.12 0.014 -0.03 -0.008
C3VF 0.12 0.07 0.22 -0.008 -0.03 0.014
C3RF 0.22 0.07 0.12 -0.014 -0.03 0.008
Br1RD 1.04 0.112 0.33 -0.001 -0.43 0
Br1RF 1.04 0.112 0.33 0.001 -0.43 0
Br1XD 0.33 0.112 1.04 0 -0.43 0.001
Br1VF 0.33 0.112 1.04 0 -0.43 -0.001
Br1FB 0.33 0.112 1.04 0 -0.43 -0.001
Br1H 0.33 0.112 1.04 0 -0.43 0.001
Br1BB 1.04 0.112 0.33 0.001 -0.43 0
Zn1TD 0.068 0.068 0.068 0.005 -0.005 0.005
Zn1KD 0.068 0.068 0.068 -0.005 0.005 0.005
Zn1KE 0.068 0.068 0.068 0.005 0.005 -0.005
Zn1C 0.068 0.068 0.068 0.005 0.005 -0.005
Zn1BE 0.068 0.068 0.068 -0.005 -0.005 -0.005
Zn1K 0.068 0.068 0.068 -0.005 0.005 0.005
Zn1ED 0.068 0.068 0.068 -0.005 -0.005 -0.005
O2TD 0.16 0.16 0.053 -0.002 0.002 0.03
C1TD 0.131 0.131 0.033 0 0 0.02
C2TD 0.124 0.124 0.067 0 0 0.018
C3TD 0.22 0.12 0.07 -0.014 -0.008 0.03
Br1TD 1.04 0.33 0.112 0.001 0 0.43
O2BF 0.16 0.16 0.053 0.002 -0.002 0.03
C3VB 0.12 0.22 0.07 -0.008 -0.014 0.03
C2VB 0.124 0.124 0.067 0 0 0.018
C1VB 0.131 0.131 0.033 0 0 0.02
O2VB 0.16 0.16 0.053 0.002 -0.002 0.03
O2P 0.16 0.16 0.053 -0.002 0.002 0.03
C3CA 0.22 0.12 0.07 0.014 0.008 0.03
C3MF 0.12 0.22 0.07 0.008 0.014 0.03
C3BF 0.12 0.22 0.07 -0.008 -0.014 0.03
C3P 0.22 0.12 0.07 -0.014 -0.008 0.03
C3IB 0.12 0.22 0.07 0.008 0.014 0.03
C3ID 0.22 0.12 0.07 0.014 0.008 0.03
Br1P 1.04 0.33 0.112 0.001 0 0.43
Br1ID 1.04 0.33 0.112 -0.001 0 0.43
Br1BF 0.33 1.04 0.112 0 0.001 0.43
Br1IB 0.33 1.04 0.112 0 -0.001 0.43
Br1MF 0.33 1.04 0.112 0 -0.001 0.43
Br1VB 0.33 1.04 0.112 0 0.001 0.43
Br1CA 1.04 0.33 0.112 -0.001 0 0.43
O2ZD 0.053 0.16 0.16 0.03 0.002 -0.002
C1ZD 0.033 0.131 0.131 0.02 0 0
C2ZD 0.067 0.124 0.124 0.018 0 0
C3ZD 0.07 0.22 0.12 0.03 0.014 0.008
Br1ZD 0.112 1.04 0.33 0.43 -0.001 0
O2BG 0.053 0.16 0.16 0.03 -0.002 0.002
C3XB 0.07 0.12 0.22 0.03 0.008 0.014
C2XB 0.067 0.124 0.124 0.018 0 0
C1XB 0.033 0.131 0.131 0.02 0 0
O2XB 0.053 0.16 0.16 0.03 -0.002 0.002
O2TA 0.053 0.16 0.16 0.03 0.002 -0.002
C3GA 0.07 0.22 0.12 0.03 -0.014 -0.008
C3QF 0.07 0.12 0.22 0.03 -0.008 -0.014
C3BG 0.07 0.12 0.22 0.03 0.008 0.014
C3TA 0.07 0.22 0.12 0.03 0.014 0.008
C3KC 0.07 0.12 0.22 0.03 -0.008 -0.014
C3KE 0.07 0.22 0.12 0.03 -0.014 -0.008
Br1TA 0.112 1.04 0.33 0.43 -0.001 0
Br1KE 0.112 1.04 0.33 0.43 0.001 0
Br1BG 0.112 0.33 1.04 0.43 0 -0.001
Br1KC 0.112 0.33 1.04 0.43 0 0.001
Br1QF 0.112 0.33 1.04 0.43 0 0.001
Br1XB 0.112 0.33 1.04 0.43 0 -0.001
Br1GA 0.112 1.04 0.33 0.43 0.001 0
O2KD 0.16 0.053 0.16 0.002 0.03 -0.002
C1KD 0.131 0.033 0.131 0 0.02 0
C2KD 0.124 0.067 0.124 0 0.018 0
C3KD 0.12 0.07 0.22 -0.008 0.03 -0.014
Br1KD 0.33 0.112 1.04 0 0.43 0.001
O2FG 0.16 0.053 0.16 -0.002 0.03 0.002
C3PB 0.22 0.07 0.12 -0.014 0.03 -0.008
C2PB 0.124 0.067 0.124 0 0.018 0
C1PB 0.131 0.033 0.131 0 0.02 0
O2PB 0.16 0.053 0.16 -0.002 0.03 0.002
O2QA 0.16 0.053 0.16 0.002 0.03 -0.002
C3R 0.12 0.07 0.22 0.008 0.03 0.014
C3GF 0.22 0.07 0.12 0.014 0.03 0.008
C3FG 0.22 0.07 0.12 -0.014 0.03 -0.008
C3QA 0.12 0.07 0.22 -0.008 0.03 -0.014
C3MC 0.22 0.07 0.12 0.014 0.03 0.008
C3HE 0.12 0.07 0.22 0.008 0.03 0.014
Br1QA 0.33 0.112 1.04 0 0.43 0.001
Br1HE 0.33 0.112 1.04 0 0.43 -0.001
Br1FG 1.04 0.112 0.33 0.001 0.43 0
Br1MC 1.04 0.112 0.33 -0.001 0.43 0
Br1GF 1.04 0.112 0.33 -0.001 0.43 0
Br1PB 1.04 0.112 0.33 0.001 0.43 0
Br1R 0.33 0.112 1.04 0 0.43 -0.001
Zn1D 0.068 0.068 0.068 0.005 -0.005 0.005
Zn1PD 0.068 0.068 0.068 -0.005 -0.005 -0.005
O1C 0.049 0.049 0.049 0 0 0
O2F 0.16 0.053 0.16 -0.002 0.03 0.002
O2I 0.053 0.16 0.16 0.03 -0.002 0.002
O2CE 0.053 0.16 0.16 -0.03 0.002 0.002
O2DE 0.16 0.053 0.16 0.002 -0.03 0.002
O1E 0.049 0.049 0.049 0 0 0
O2E 0.16 0.16 0.053 0.002 -0.002 0.03
O2G 0.16 0.053 0.16 0.002 0.03 -0.002
O2DD 0.16 0.16 0.053 0.002 0.002 -0.03
O2FD 0.16 0.053 0.16 0.002 -0.03 0.002
Zn1CA 0.068 0.068 0.068 -0.005 0.005 0.005
Zn1P 0.068 0.068 0.068 0.005 -0.005 0.005
Zn1AA 0.068 0.068 0.068 0.005 0.005 -0.005
Zn1NA 0.068 0.068 0.068 0.005 -0.005 0.005
Zn1O 0.068 0.068 0.068 0.005 0.005 -0.005
Zn1OA 0.068 0.068 0.068 -0.005 0.005 0.005
O3 0.59(5) 0.59(5) 0.59(5) 0.02(7) -0.02(7) -0.02(7)
O4 0.49(13) 0.49(13) 0.49(13) 0.000 0.000 0.000
loop_
_geom_bond_atom_site_label_1
_geom_bond_atom_site_label_2
_geom_bond_site_symmetry_1
_geom_bond_site_symmetry_2
Zn1 O1 1_555 1_555
O1 Zn1TD 1_555 1_555
O2 Zn1 1_555 1_555
C1 O2 1_555 1_555
C2 C1 1_555 1_555
C3 C2 1_555 1_555
Br1 C3 1_555 1_555
O2EE C1 1_555 1_555
C3C C3 1_555 1_555
C2C C3C 1_555 1_555
C1C C2C 1_555 1_555
O2C C1C 1_555 1_555
O2BE C1C 1_555 1_555
C3VA C3 1_555 1_555
C3EB C2 1_555 1_555
C3EE C2 1_555 1_555
C3BE C2C 1_555 1_555
C3GG C2C 1_555 1_555
C3XF C2 1_555 1_555
Br1BE C3BE 1_555 1_555
Br1XF C3XF 1_555 1_555
Br1EE C3EE 1_555 1_555
Br1GG C3GG 1_555 1_555
Br1EB C3EB 1_555 1_555
Br1C C3C 1_555 1_555
Br1VA Br1 1_555 1_555
O2A Zn1 1_555 1_555
C1A O2A 1_555 1_555
C2A C1A 1_555 1_555
C3A C2A 1_555 1_555
Br1A C3A 1_555 1_555
O2OD C1A 1_555 1_555
C3K C3A 1_555 1_555
C2K C3K 1_555 1_555
C1K C2K 1_555 1_555
O2K C1K 1_555 1_555
O2ED C1K 1_555 1_555
C3YA C3A 1_555 1_555
C3GB C2A 1_555 1_555
C3OD C2A 1_555 1_555
C3ED C2K 1_555 1_555
C3KF C2K 1_555 1_555
C3CF C2A 1_555 1_555
Br1ED C3ED 1_555 1_555
Br1CF C3CF 1_555 1_555
Br1OD C3OD 1_555 1_555
Br1KF C3KF 1_555 1_555
Br1GB C3GB 1_555 1_555
Br1K C3K 1_555 1_555
Br1YA Br1A 1_555 1_555
O2B Zn1 1_555 1_555
C1B O2B 1_555 1_555
C2B C1B 1_555 1_555
C3B C2B 1_555 1_555
Br1B C3B 1_555 1_555
O2XD C1B 1_555 1_555
C3H C3B 1_555 1_555
C2H C3H 1_555 1_555
C1H C2H 1_555 1_555
O2H C1H 1_555 1_555
O2RD C1H 1_555 1_555
C3BB C3B 1_555 1_555
C3FB C2B 1_555 1_555
C3XD C2B 1_555 1_555
C3RD C2H 1_555 1_555
C3VF C2H 1_555 1_555
C3RF C2B 1_555 1_555
Br1RD C3RD 1_555 1_555
Br1RF C3RF 1_555 1_555
Br1XD C3XD 1_555 1_555
Br1VF C3VF 1_555 1_555
Br1FB C3FB 1_555 1_555
Br1H C3H 1_555 1_555
Br1BB Br1B 1_555 1_555
Zn1TD O2XD 1_555 1_555
Zn1KD O1 1_555 1_555
Zn1KE O1 1_555 1_555
Zn1C O2C 1_555 1_555
Zn1BE O2BE 1_555 1_555
Zn1K O2K 1_555 1_555
Zn1ED O2ED 1_555 1_555
O2TD Zn1TD 1_555 1_555
C1TD O2TD 1_555 1_555
C2TD C1TD 1_555 1_555
C3TD C2TD 1_555 1_555
Br1TD C3TD 1_555 1_555
O2BF Zn1KD 1_555 1_555
C3VB C3TD 1_555 1_555
C2VB C3VB 1_555 1_555
C1VB C2VB 1_555 1_555
O2VB C1VB 1_555 1_555
O2P C1VB 1_555 1_555
C3CA C3TD 1_555 1_555
C3MF C2TD 1_555 1_555
C3BF C2TD 1_555 1_555
C3P C2VB 1_555 1_555
C3IB C2VB 1_555 1_555
C3ID C2TD 1_555 1_555
Br1P C3P 1_555 1_555
Br1ID C3ID 1_555 1_555
Br1BF C3BF 1_555 1_555
Br1IB C3IB 1_555 1_555
Br1MF C3MF 1_555 1_555
Br1VB C3VB 1_555 1_555
Br1CA Br1TD 1_555 1_555
O2ZD Zn1TD 1_555 1_555
C1ZD O2ZD 1_555 1_555
C2ZD C1ZD 1_555 1_555
C3ZD C2ZD 1_555 1_555
Br1ZD C3ZD 1_555 1_555
O2BG Zn1KE 1_555 1_555
C3XB C3ZD 1_555 1_555
C2XB C3XB 1_555 1_555
C1XB C2XB 1_555 1_555
O2XB C1XB 1_555 1_555
O2TA C1XB 1_555 1_555
C3GA C3ZD 1_555 1_555
C3QF C2ZD 1_555 1_555
C3BG C2ZD 1_555 1_555
C3TA C2XB 1_555 1_555
C3KC C2XB 1_555 1_555
C3KE C2ZD 1_555 1_555
Br1TA C3TA 1_555 1_555
Br1KE C3KE 1_555 1_555
Br1BG C3BG 1_555 1_555
Br1KC C3KC 1_555 1_555
Br1QF C3QF 1_555 1_555
Br1XB C3XB 1_555 1_555
Br1GA Br1ZD 1_555 1_555
O2KD Zn1KD 1_555 1_555
C1KD O2KD 1_555 1_555
C2KD C1KD 1_555 1_555
C3KD C2KD 1_555 1_555
Br1KD C3KD 1_555 1_555
O2FG Zn1KE 1_555 1_555
C3PB C3KD 1_555 1_555
C2PB C3PB 1_555 1_555
C1PB C2PB 1_555 1_555
O2PB C1PB 1_555 1_555
O2QA C1PB 1_555 1_555
C3R C3KD 1_555 1_555
C3GF C2KD 1_555 1_555
C3FG C2KD 1_555 1_555
C3QA C2PB 1_555 1_555
C3MC C2PB 1_555 1_555
C3HE C2KD 1_555 1_555
Br1QA C3QA 1_555 1_555
Br1HE C3HE 1_555 1_555
Br1FG C3FG 1_555 1_555
Br1MC C3MC 1_555 1_555
Br1GF C3GF 1_555 1_555
Br1PB C3PB 1_555 1_555
Br1R Br1KD 1_555 1_555
Zn1D O2H 1_555 1_555
Zn1PD O2RD 1_555 1_555
O1C Zn1C 1_555 1_555
O2F Zn1C 1_555 1_555
O2I Zn1C 1_555 1_555
O2CE Zn1BE 1_555 1_555
O2DE Zn1BE 1_555 1_555
O1E Zn1K 1_555 1_555
O2E Zn1K 1_555 1_555
O2G Zn1K 1_555 1_555
O2DD Zn1ED 1_555 1_555
O2FD Zn1ED 1_555 1_555
Zn1CA O2VB 1_555 1_555
Zn1P O2P 1_555 1_555
Zn1AA O2XB 1_555 1_555
Zn1NA O2TA 1_555 1_555
Zn1O O2PB 1_555 1_555
Zn1OA O2QA 1_555 1_555
C3 C3EB 1_555 1_555
O2EE Zn1KE 1_555 1_555
C3C C3EB 1_555 1_555
C3C C3VA 1_555 1_555
C2C C3VA 1_555 1_555
C3VA C3EB 1_555 1_555
C3VA Br1VA 1_555 1_555
C3EE C3BE 1_555 1_555
C3EE C3GG 1_555 1_555
C3EE C3XF 1_555 1_555
C3BE C3XF 1_555 1_555
C3BE C3GG 1_555 1_555
C3GG C3XF 1_555 1_555
Br1BE Br1XF 1_555 1_555
Br1EE Br1GG 1_555 1_555
Br1EB Br1C 1_555 1_555
C3A C3GB 1_555 1_555
O2OD Zn1KD 1_555 1_555
C3K C3YA 1_555 1_555
C3K C3GB 1_555 1_555
C2K C3YA 1_555 1_555
C3YA Br1YA 1_555 1_555
C3YA C3GB 1_555 1_555
C3OD C3ED 1_555 1_555
C3OD C3CF 1_555 1_555
C3OD C3KF 1_555 1_555
C3ED C3KF 1_555 1_555
C3ED C3CF 1_555 1_555
C3KF C3CF 1_555 1_555
Br1ED Br1CF 1_555 1_555
Br1OD Br1KF 1_555 1_555
Br1GB Br1K 1_555 1_555
C3B C3FB 1_555 1_555
C3H C3BB 1_555 1_555
C3H C3FB 1_555 1_555
C2H C3BB 1_555 1_555
C3BB Br1BB 1_555 1_555
C3BB C3FB 1_555 1_555
C3XD C3RD 1_555 1_555
C3XD C3RF 1_555 1_555
C3XD C3VF 1_555 1_555
C3RD C3VF 1_555 1_555
C3RD C3RF 1_555 1_555
C3VF C3RF 1_555 1_555
Br1RD Br1RF 1_555 1_555
Br1XD Br1VF 1_555 1_555
Br1FB Br1H 1_555 1_555
Zn1BE O1C 1_555 1_555
Zn1ED O1E 1_555 1_555
C1TD O2BF 1_555 1_555
C3TD C3MF 1_555 1_555
C3VB C3CA 1_555 1_555
C3VB C3MF 1_555 1_555
C2VB C3CA 1_555 1_555
C3CA Br1CA 1_555 1_555
C3CA C3MF 1_555 1_555
C3BF C3P 1_555 1_555
C3BF C3ID 1_555 1_555
C3BF C3IB 1_555 1_555
C3P C3IB 1_555 1_555
C3P C3ID 1_555 1_555
C3IB C3ID 1_555 1_555
Br1P Br1ID 1_555 1_555
Br1BF Br1IB 1_555 1_555
Br1MF Br1VB 1_555 1_555
C1ZD O2BG 1_555 1_555
C3ZD C3QF 1_555 1_555
C3XB C3GA 1_555 1_555
C3XB C3QF 1_555 1_555
C2XB C3GA 1_555 1_555
C3GA Br1GA 1_555 1_555
C3GA C3QF 1_555 1_555
C3BG C3TA 1_555 1_555
C3BG C3KE 1_555 1_555
C3BG C3KC 1_555 1_555
C3TA C3KC 1_555 1_555
C3TA C3KE 1_555 1_555
C3KC C3KE 1_555 1_555
Br1TA Br1KE 1_555 1_555
Br1BG Br1KC 1_555 1_555
Br1QF Br1XB 1_555 1_555
C1KD O2FG 1_555 1_555
C3KD C3GF 1_555 1_555
C3PB C3R 1_555 1_555
C3PB C3GF 1_555 1_555
C2PB C3R 1_555 1_555
C3R Br1R 1_555 1_555
C3R C3GF 1_555 1_555
C3FG C3QA 1_555 1_555
C3FG C3HE 1_555 1_555
C3FG C3MC 1_555 1_555
C3QA C3MC 1_555 1_555
C3QA C3HE 1_555 1_555
C3MC C3HE 1_555 1_555
Br1QA Br1HE 1_555 1_555
Br1FG Br1MC 1_555 1_555
Br1GF Br1PB 1_555 1_555

#END
