
#######################################################################
#
#                 Cambridge Crystallographic Data Centre
#                                CCDC 
#
#######################################################################
#
# If this CIF has been generated from an entry in the Cambridge 
# Structural Database, then it will include bibliographic, chemical, 
# crystal, experimental, refinement or atomic coordinate data resulting 
# from the CCDC's data processing and validation procedures.
#
#######################################################################

data_EDUTIG
_chemical_formula_moiety         'C36 H24 O19 Zn10'
_symmetry_cell_setting           cubic
_symmetry_space_group_name_H-M   'F m -3 m'
_symmetry_Int_Tables_number      225
_space_group_name_Hall           '-F 4 2 3'
loop_
_symmetry_equiv_pos_site_id
_symmetry_equiv_pos_as_xyz
1 x,y,z
2 z,x,y
3 y,z,x
4 y,x,-z
5 y,-x,z
6 -y,x,z
7 x,z,-y
8 -x,z,y
9 x,-z,y
10 z,y,-x
11 z,-y,x
12 -z,y,x
13 x,1/2+y,1/2+z
14 z,1/2+x,1/2+y
15 y,1/2+z,1/2+x
16 y,1/2+x,1/2-z
17 y,1/2-x,1/2+z
18 -y,1/2+x,1/2+z
19 x,1/2+z,1/2-y
20 -x,1/2+z,1/2+y
21 x,1/2-z,1/2+y
22 z,1/2+y,1/2-x
23 z,1/2-y,1/2+x
24 -z,1/2+y,1/2+x
25 1/2+x,y,1/2+z
26 1/2+z,x,1/2+y
27 1/2+y,z,1/2+x
28 1/2+y,x,1/2-z
29 1/2+y,-x,1/2+z
30 1/2-y,x,1/2+z
31 1/2+x,z,1/2-y
32 1/2-x,z,1/2+y
33 1/2+x,-z,1/2+y
34 1/2+z,y,1/2-x
35 1/2+z,-y,1/2+x
36 1/2-z,y,1/2+x
37 1/2+x,1/2+y,z
38 1/2+z,1/2+x,y
39 1/2+y,1/2+z,x
40 1/2+y,1/2+x,-z
41 1/2+y,1/2-x,z
42 1/2-y,1/2+x,z
43 1/2+x,1/2+z,-y
44 1/2-x,1/2+z,y
45 1/2+x,1/2-z,y
46 1/2+z,1/2+y,-x
47 1/2+z,1/2-y,x
48 1/2-z,1/2+y,x
49 x,y,-z
50 x,-y,z
51 -x,y,z
52 -z,x,y
53 z,x,-y
54 z,-x,y
55 y,-z,x
56 -y,z,x
57 y,z,-x
58 y,x,z
59 x,z,y
60 z,y,x
61 x,1/2+y,1/2-z
62 x,1/2-y,1/2+z
63 -x,1/2+y,1/2+z
64 -z,1/2+x,1/2+y
65 z,1/2+x,1/2-y
66 z,1/2-x,1/2+y
67 y,1/2-z,1/2+x
68 -y,1/2+z,1/2+x
69 y,1/2+z,1/2-x
70 y,1/2+x,1/2+z
71 x,1/2+z,1/2+y
72 z,1/2+y,1/2+x
73 1/2+x,y,1/2-z
74 1/2+x,-y,1/2+z
75 1/2-x,y,1/2+z
76 1/2-z,x,1/2+y
77 1/2+z,x,1/2-y
78 1/2+z,-x,1/2+y
79 1/2+y,-z,1/2+x
80 1/2-y,z,1/2+x
81 1/2+y,z,1/2-x
82 1/2+y,x,1/2+z
83 1/2+x,z,1/2+y
84 1/2+z,y,1/2+x
85 1/2+x,1/2+y,-z
86 1/2+x,1/2-y,z
87 1/2-x,1/2+y,z
88 1/2-z,1/2+x,y
89 1/2+z,1/2+x,-y
90 1/2+z,1/2-x,y
91 1/2+y,1/2-z,x
92 1/2-y,1/2+z,x
93 1/2+y,1/2+z,-x
94 1/2+y,1/2+x,z
95 1/2+x,1/2+z,y
96 1/2+z,1/2+y,x
97 -x,-y,-z
98 -z,-x,-y
99 -y,-z,-x
100 -y,-x,z
101 -y,x,-z
102 y,-x,-z
103 -x,-z,y
104 x,-z,-y
105 -x,z,-y
106 -z,-y,x
107 -z,y,-x
108 z,-y,-x
109 -x,1/2-y,1/2-z
110 -z,1/2-x,1/2-y
111 -y,1/2-z,1/2-x
112 -y,1/2-x,1/2+z
113 -y,1/2+x,1/2-z
114 y,1/2-x,1/2-z
115 -x,1/2-z,1/2+y
116 x,1/2-z,1/2-y
117 -x,1/2+z,1/2-y
118 -z,1/2-y,1/2+x
119 -z,1/2+y,1/2-x
120 z,1/2-y,1/2-x
121 1/2-x,-y,1/2-z
122 1/2-z,-x,1/2-y
123 1/2-y,-z,1/2-x
124 1/2-y,-x,1/2+z
125 1/2-y,x,1/2-z
126 1/2+y,-x,1/2-z
127 1/2-x,-z,1/2+y
128 1/2+x,-z,1/2-y
129 1/2-x,z,1/2-y
130 1/2-z,-y,1/2+x
131 1/2-z,y,1/2-x
132 1/2+z,-y,1/2-x
133 1/2-x,1/2-y,-z
134 1/2-z,1/2-x,-y
135 1/2-y,1/2-z,-x
136 1/2-y,1/2-x,z
137 1/2-y,1/2+x,-z
138 1/2+y,1/2-x,-z
139 1/2-x,1/2-z,y
140 1/2+x,1/2-z,-y
141 1/2-x,1/2+z,-y
142 1/2-z,1/2-y,x
143 1/2-z,1/2+y,-x
144 1/2+z,1/2-y,-x
145 -x,-y,z
146 -x,y,-z
147 x,-y,-z
148 z,-x,-y
149 -z,-x,y
150 -z,x,-y
151 -y,z,-x
152 y,-z,-x
153 -y,-z,x
154 -y,-x,-z
155 -x,-z,-y
156 -z,-y,-x
157 -x,1/2-y,1/2+z
158 -x,1/2+y,1/2-z
159 x,1/2-y,1/2-z
160 z,1/2-x,1/2-y
161 -z,1/2-x,1/2+y
162 -z,1/2+x,1/2-y
163 -y,1/2+z,1/2-x
164 y,1/2-z,1/2-x
165 -y,1/2-z,1/2+x
166 -y,1/2-x,1/2-z
167 -x,1/2-z,1/2-y
168 -z,1/2-y,1/2-x
169 1/2-x,-y,1/2+z
170 1/2-x,y,1/2-z
171 1/2+x,-y,1/2-z
172 1/2+z,-x,1/2-y
173 1/2-z,-x,1/2+y
174 1/2-z,x,1/2-y
175 1/2-y,z,1/2-x
176 1/2+y,-z,1/2-x
177 1/2-y,-z,1/2+x
178 1/2-y,-x,1/2-z
179 1/2-x,-z,1/2-y
180 1/2-z,-y,1/2-x
181 1/2-x,1/2-y,z
182 1/2-x,1/2+y,-z
183 1/2+x,1/2-y,-z
184 1/2+z,1/2-x,-y
185 1/2-z,1/2-x,y
186 1/2-z,1/2+x,-y
187 1/2-y,1/2+z,-x
188 1/2+y,1/2-z,-x
189 1/2-y,1/2-z,x
190 1/2-y,1/2-x,-z
191 1/2-x,1/2-z,-y
192 1/2-z,1/2-y,-x
_cell_length_a                   25.8421(15)
_cell_length_b                   25.8421(15)
_cell_length_c                   25.8421(15)
_cell_angle_alpha                90
_cell_angle_beta                 90
_cell_angle_gamma                90
_cell_volume                     17257.7
loop_
_atom_site_label
_atom_site_type_symbol
_atom_site_fract_x
_atom_site_fract_y
_atom_site_fract_z
_atom_site_U_iso_or_equiv
_atom_site_thermal_displace_type
Zn1 Zn 0.20645(8) 0.29355(8) 0.20645(8) 0.0900 Uani
O1 O 0.2500 0.2500 0.2500 0.0860 Uani
O2 O 0.2186(4) 0.2814(4) 0.1334(6) 0.1390 Uani
C1 C 0.2500 0.2500 0.1120(10) 0.1120 Uani
C2 C 0.2500 0.2500 0.0565(9) 0.1080 Uani
C3 C 0.2789(6) 0.2211(6) 0.0282(9) 0.1367 Uani
C4 C 0.320(3) 0.180(3) 0.027(2) 0.3433 Uani
H1 H 0.3118 0.1449 0.0413 0.4140 Uiso
O2EB O 0.2814(4) 0.2186(4) 0.1334(6) 0.1390 Uani
C3VA C 0.2789(6) 0.2211(6) -0.0282(9) 0.1367 Uani
C2VA C 0.2500 0.2500 -0.0565(9) 0.1080 Uani
C1VA C 0.2500 0.2500 -0.1120(10) 0.1120 Uani
O2VA O 0.2186(4) 0.2814(4) -0.1334(6) 0.1390 Uani
O2C O 0.2814(4) 0.2186(4) -0.1334(6) 0.1390 Uani
C3C C 0.2211(6) 0.2789(6) -0.0282(9) 0.1367 Uani
C3EB C 0.2211(6) 0.2789(6) 0.0282(9) 0.1367 Uani
C4EB C 0.180(3) 0.320(3) 0.027(2) 0.3433 Uani
C4C C 0.180(3) 0.320(3) -0.027(2) 0.3433 Uani
H1C H 0.1449 0.3118 -0.0413 0.4140 Uiso
H1BE H 0.1882 0.3551 -0.0413 0.4140 Uiso
H1EB H 0.1449 0.3118 0.0413 0.4140 Uiso
H1XF H 0.1882 0.3551 0.0413 0.4140 Uiso
C4VA C 0.320(3) 0.180(3) -0.027(2) 0.3433 Uani
H1EE H 0.3551 0.1882 0.0413 0.4140 Uiso
H1VA H 0.3118 0.1449 -0.0413 0.4140 Uiso
H1GG H 0.3551 0.1882 -0.0413 0.4140 Uiso
O2GB O 0.1334(6) 0.2814(4) 0.2186(4) 0.1390 Uani
C1GB C 0.1120(10) 0.2500 0.2500 0.1120 Uani
C2GB C 0.0565(9) 0.2500 0.2500 0.1080 Uani
C3GB C 0.0282(9) 0.2211(6) 0.2789(6) 0.1367 Uani
C4GB C 0.027(2) 0.180(3) 0.320(3) 0.3433 Uani
H1GB H 0.0413 0.1449 0.3118 0.4140 Uiso
O2A O 0.1334(6) 0.2186(4) 0.2814(4) 0.1390 Uani
C3K C -0.0282(9) 0.2211(6) 0.2789(6) 0.1367 Uani
C2K C -0.0565(9) 0.2500 0.2500 0.1080 Uani
C1K C -0.1120(10) 0.2500 0.2500 0.1120 Uani
O2K O -0.1334(6) 0.2814(4) 0.2186(4) 0.1390 Uani
O2YA O -0.1334(6) 0.2186(4) 0.2814(4) 0.1390 Uani
C3YA C -0.0282(9) 0.2789(6) 0.2211(6) 0.1367 Uani
C3A C 0.0282(9) 0.2789(6) 0.2211(6) 0.1367 Uani
C4A C 0.027(2) 0.320(3) 0.180(3) 0.3433 Uani
C4YA C -0.027(2) 0.320(3) 0.180(3) 0.3433 Uani
H1YA H -0.0413 0.3118 0.1449 0.4140 Uiso
H1KF H -0.0413 0.3551 0.1882 0.4140 Uiso
H1A H 0.0413 0.3118 0.1449 0.4140 Uiso
H1OD H 0.0413 0.3551 0.1882 0.4140 Uiso
C4K C -0.027(2) 0.180(3) 0.320(3) 0.3433 Uani
H1CF H 0.0413 0.1882 0.3551 0.4140 Uiso
H1K H -0.0413 0.1449 0.3118 0.4140 Uiso
H1ED H -0.0413 0.1882 0.3551 0.4140 Uiso
O2KD O 0.2186(4) 0.3666(6) 0.2186(4) 0.1390 Uani
C1KD C 0.2500 0.3880(10) 0.2500 0.1120 Uani
C2KD C 0.2500 0.4435(9) 0.2500 0.1080 Uani
C3KD C 0.2789(6) 0.4718(9) 0.2789(6) 0.1367 Uani
C4KD C 0.320(3) 0.473(2) 0.320(3) 0.3433 Uani
H1KD H 0.3118 0.4587 0.3551 0.4140 Uiso
O2GF O 0.2814(4) 0.3666(6) 0.2814(4) 0.1390 Uani
C3R C 0.2789(6) 0.5282(9) 0.2789(6) 0.1367 Uani
C2R C 0.2500 0.5565(9) 0.2500 0.1080 Uani
C1R C 0.2500 0.6120(10) 0.2500 0.1120 Uani
O2R O 0.2186(4) 0.6334(6) 0.2186(4) 0.1390 Uani
O2PB O 0.2814(4) 0.6334(6) 0.2814(4) 0.1390 Uani
C3PB C 0.2211(6) 0.5282(9) 0.2211(6) 0.1367 Uani
C3GF C 0.2211(6) 0.4718(9) 0.2211(6) 0.1367 Uani
C4GF C 0.180(3) 0.473(2) 0.180(3) 0.3433 Uani
C4PB C 0.180(3) 0.527(2) 0.180(3) 0.3433 Uani
H1PB H 0.1449 0.5413 0.1882 0.4140 Uiso
H1QA H 0.1882 0.5413 0.1449 0.4140 Uiso
H1GF H 0.1449 0.4587 0.1882 0.4140 Uiso
H1HE H 0.1882 0.4587 0.1449 0.4140 Uiso
C4R C 0.320(3) 0.527(2) 0.320(3) 0.3433 Uani
H1FG H 0.3551 0.4587 0.3118 0.4140 Uiso
H1R H 0.3118 0.5413 0.3551 0.4140 Uiso
H1MC H 0.3551 0.5413 0.3118 0.4140 Uiso
Zn1B Zn 0.29355(8) 0.20645(8) 0.20645(8) 0.0900 Uani
Zn1A Zn 0.20645(8) 0.20645(8) 0.29355(8) 0.0900 Uani
Zn1ID Zn 0.29355(8) 0.29355(8) 0.29355(8) 0.0900 Uani
Zn1I Zn 0.20645(8) 0.29355(8) -0.20645(8) 0.0900 Uani
Zn1C Zn 0.29355(8) 0.20645(8) -0.20645(8) 0.0900 Uani
Zn1K Zn -0.20645(8) 0.29355(8) 0.20645(8) 0.0900 Uani
Zn1G Zn -0.20645(8) 0.20645(8) 0.29355(8) 0.0900 Uani
Zn1J Zn 0.20645(8) 0.70645(8) 0.20645(8) 0.0900 Uani
Zn1O Zn 0.29355(8) 0.70645(8) 0.29355(8) 0.0900 Uani
O2B O 0.2814(4) 0.1334(6) 0.2186(4) 0.1390 Uani
O2KE O 0.3666(6) 0.2186(4) 0.2186(4) 0.1390 Uani
O2FB O 0.2186(4) 0.1334(6) 0.2814(4) 0.1390 Uani
O2TD O 0.2186(4) 0.2186(4) 0.3666(6) 0.1390 Uani
O2ID O 0.2814(4) 0.2814(4) 0.3666(6) 0.1390 Uani
O2ZD O 0.3666(6) 0.2814(4) 0.2814(4) 0.1390 Uani
loop_
_atom_site_aniso_label
_atom_site_aniso_U_11
_atom_site_aniso_U_22
_atom_site_aniso_U_33
_atom_site_aniso_U_23
_atom_site_aniso_U_13
_atom_site_aniso_U_12
Zn1 0.090(2) 0.090(2) 0.090(2) 0.0013(8) -0.0013(8) 0.0013(8)
O1 0.086(9) 0.086(9) 0.086(9) 0.000 0.000 0.000
O2 0.162(9) 0.162(9) 0.093(10) 0.000(6) 0.000(6) 0.034(9)
C1 0.125(13) 0.125(13) 0.086(18) 0.000 0.000 -0.039(19)
C2 0.128(13) 0.128(13) 0.068(14) 0.000 0.000 -0.001(17)
C3 0.160(12) 0.160(12) 0.090(12) 0.027(9) -0.027(9) 0.060(17)
C4 0.49(9) 0.49(9) 0.05(3) -0.06(4) 0.06(4) 0.14(13)
O2EB 0.162 0.162 0.093 0 0 0.034
C3VA 0.16 0.16 0.09 -0.027 0.027 0.06
C2VA 0.128 0.128 0.068 0 0 -0.001
C1VA 0.125 0.125 0.086 0 0 -0.039
O2VA 0.162 0.162 0.093 0 0 0.034
O2C 0.162 0.162 0.093 0 0 0.034
C3C 0.16 0.16 0.09 0.027 -0.027 0.06
C3EB 0.16 0.16 0.09 -0.027 0.027 0.06
C4EB 0.49 0.49 0.05 0.06 -0.06 0.14
C4C 0.49 0.49 0.05 -0.06 0.06 0.14
C4VA 0.49 0.49 0.05 0.06 -0.06 0.14
O2GB 0.093 0.162 0.162 0.034 0 0
C1GB 0.086 0.125 0.125 -0.039 0 0
C2GB 0.068 0.128 0.128 -0.001 0 0
C3GB 0.09 0.16 0.16 0.06 -0.027 0.027
C4GB 0.05 0.49 0.49 0.14 0.06 -0.06
O2A 0.093 0.162 0.162 0.034 0 0
C3K 0.09 0.16 0.16 0.06 0.027 -0.027
C2K 0.068 0.128 0.128 -0.001 0 0
C1K 0.086 0.125 0.125 -0.039 0 0
O2K 0.093 0.162 0.162 0.034 0 0
O2YA 0.093 0.162 0.162 0.034 0 0
C3YA 0.09 0.16 0.16 0.06 -0.027 0.027
C3A 0.09 0.16 0.16 0.06 0.027 -0.027
C4A 0.05 0.49 0.49 0.14 -0.06 0.06
C4YA 0.05 0.49 0.49 0.14 0.06 -0.06
C4K 0.05 0.49 0.49 0.14 -0.06 0.06
O2KD 0.162 0.093 0.162 0 -0.034 0
C1KD 0.125 0.086 0.125 0 0.039 0
C2KD 0.128 0.068 0.128 0 0.001 0
C3KD 0.16 0.09 0.16 0.027 -0.06 0.027
C4KD 0.49 0.05 0.49 -0.06 -0.14 -0.06
O2GF 0.162 0.093 0.162 0 -0.034 0
C3R 0.16 0.09 0.16 -0.027 -0.06 -0.027
C2R 0.128 0.068 0.128 0 0.001 0
C1R 0.125 0.086 0.125 0 0.039 0
O2R 0.162 0.093 0.162 0 -0.034 0
O2PB 0.162 0.093 0.162 0 -0.034 0
C3PB 0.16 0.09 0.16 0.027 -0.06 0.027
C3GF 0.16 0.09 0.16 -0.027 -0.06 -0.027
C4GF 0.49 0.05 0.49 0.06 -0.14 0.06
C4PB 0.49 0.05 0.49 -0.06 -0.14 -0.06
C4R 0.49 0.05 0.49 0.06 -0.14 0.06
Zn1B 0.09 0.09 0.09 -0.0013 0.0013 0.0013
Zn1A 0.09 0.09 0.09 0.0013 0.0013 -0.0013
Zn1ID 0.09 0.09 0.09 -0.0013 -0.0013 -0.0013
Zn1I 0.09 0.09 0.09 -0.0013 0.0013 0.0013
Zn1C 0.09 0.09 0.09 0.0013 -0.0013 0.0013
Zn1K 0.09 0.09 0.09 0.0013 0.0013 -0.0013
Zn1G 0.09 0.09 0.09 0.0013 -0.0013 0.0013
Zn1J 0.09 0.09 0.09 -0.0013 -0.0013 -0.0013
Zn1O 0.09 0.09 0.09 0.0013 -0.0013 0.0013
O2B 0.162 0.093 0.162 0 0.034 0
O2KE 0.093 0.162 0.162 -0.034 0 0
O2FB 0.162 0.093 0.162 0 0.034 0
O2TD 0.162 0.162 0.093 0 0 -0.034
O2ID 0.162 0.162 0.093 0 0 -0.034
O2ZD 0.093 0.162 0.162 -0.034 0 0
loop_
_geom_bond_atom_site_label_1
_geom_bond_atom_site_label_2
_geom_bond_site_symmetry_1
_geom_bond_site_symmetry_2
Zn1 O1 1_555 1_555
O1 Zn1B 1_555 1_555
O2 Zn1 1_555 1_555
C1 O2 1_555 1_555
C2 C1 1_555 1_555
C3 C2 1_555 1_555
C4 C3 1_555 1_555
H1 C4 1_555 1_555
O2EB C1 1_555 1_555
C3VA C3 1_555 1_555
C2VA C3VA 1_555 1_555
C1VA C2VA 1_555 1_555
O2VA C1VA 1_555 1_555
O2C C1VA 1_555 1_555
C3C C2VA 1_555 1_555
C3EB C2 1_555 1_555
C4EB C3EB 1_555 1_555
C4C C3C 1_555 1_555
H1C C4C 1_555 1_555
H1BE C4C 1_555 1_555
H1EB C4EB 1_555 1_555
H1XF C4EB 1_555 1_555
C4VA C4 1_555 1_555
H1EE C4 1_555 1_555
H1VA C4VA 1_555 1_555
H1GG C4VA 1_555 1_555
O2GB Zn1 1_555 1_555
C1GB O2GB 1_555 1_555
C2GB C1GB 1_555 1_555
C3GB C2GB 1_555 1_555
C4GB C3GB 1_555 1_555
H1GB C4GB 1_555 1_555
O2A C1GB 1_555 1_555
C3K C3GB 1_555 1_555
C2K C3K 1_555 1_555
C1K C2K 1_555 1_555
O2K C1K 1_555 1_555
O2YA C1K 1_555 1_555
C3YA C2K 1_555 1_555
C3A C2GB 1_555 1_555
C4A C3A 1_555 1_555
C4YA C3YA 1_555 1_555
H1YA C4YA 1_555 1_555
H1KF C4YA 1_555 1_555
H1A C4A 1_555 1_555
H1OD C4A 1_555 1_555
C4K C4GB 1_555 1_555
H1CF C4GB 1_555 1_555
H1K C4K 1_555 1_555
H1ED C4K 1_555 1_555
O2KD Zn1 1_555 1_555
C1KD O2KD 1_555 1_555
C2KD C1KD 1_555 1_555
C3KD C2KD 1_555 1_555
C4KD C3KD 1_555 1_555
H1KD C4KD 1_555 1_555
O2GF C1KD 1_555 1_555
C3R C3KD 1_555 1_555
C2R C3R 1_555 1_555
C1R C2R 1_555 1_555
O2R C1R 1_555 1_555
O2PB C1R 1_555 1_555
C3PB C2R 1_555 1_555
C3GF C2KD 1_555 1_555
C4GF C3GF 1_555 1_555
C4PB C3PB 1_555 1_555
H1PB C4PB 1_555 1_555
H1QA C4PB 1_555 1_555
H1GF C4GF 1_555 1_555
H1HE C4GF 1_555 1_555
C4R C4KD 1_555 1_555
H1FG C4KD 1_555 1_555
H1R C4R 1_555 1_555
H1MC C4R 1_555 1_555
Zn1B O2EB 1_555 1_555
Zn1A O1 1_555 1_555
Zn1ID O1 1_555 1_555
Zn1I O2VA 1_555 1_555
Zn1C O2C 1_555 1_555
Zn1K O2K 1_555 1_555
Zn1G O2YA 1_555 1_555
Zn1J O2R 1_555 1_555
Zn1O O2PB 1_555 1_555
O2B Zn1B 1_555 1_555
O2KE Zn1B 1_555 1_555
O2FB Zn1A 1_555 1_555
O2TD Zn1A 1_555 1_555
O2ID Zn1ID 1_555 1_555
O2ZD Zn1ID 1_555 1_555
C3VA C4VA 1_555 1_555
C3C C3EB 1_555 1_555
C4EB C4C 1_555 1_555
O2A Zn1A 1_555 1_555
C3K C4K 1_555 1_555
C3YA C3A 1_555 1_555
C4A C4YA 1_555 1_555
O2GF Zn1ID 1_555 1_555
C3R C4R 1_555 1_555
C3PB C3GF 1_555 1_555
C4GF C4PB 1_555 1_555

#END
