
#######################################################################
#
#                 Cambridge Crystallographic Data Centre
#                                CCDC 
#
#######################################################################
#
# If this CIF has been generated from an entry in the Cambridge 
# Structural Database, then it will include bibliographic, chemical, 
# crystal, experimental, refinement or atomic coordinate data resulting 
# from the CCDC's data processing and validation procedures.
#
#######################################################################

data_EDUVUU
_chemical_formula_moiety         'C17 H2 O8 Zn8'
_symmetry_cell_setting           cubic
_symmetry_space_group_name_H-M   'I m -3 m'
_symmetry_Int_Tables_number      229
_space_group_name_Hall           '-I 4 2 3'
loop_
_symmetry_equiv_pos_site_id
_symmetry_equiv_pos_as_xyz
1 x,y,z
2 z,x,y
3 y,z,x
4 y,x,-z
5 y,-x,z
6 -y,x,z
7 x,z,-y
8 -x,z,y
9 x,-z,y
10 z,y,-x
11 z,-y,x
12 -z,y,x
13 1/2+x,1/2+y,1/2+z
14 1/2+z,1/2+x,1/2+y
15 1/2+y,1/2+z,1/2+x
16 1/2+y,1/2+x,1/2-z
17 1/2+y,1/2-x,1/2+z
18 1/2-y,1/2+x,1/2+z
19 1/2+x,1/2+z,1/2-y
20 1/2-x,1/2+z,1/2+y
21 1/2+x,1/2-z,1/2+y
22 1/2+z,1/2+y,1/2-x
23 1/2+z,1/2-y,1/2+x
24 1/2-z,1/2+y,1/2+x
25 -x,-y,z
26 -x,y,-z
27 x,-y,-z
28 z,-x,-y
29 -z,-x,y
30 -z,x,-y
31 -y,z,-x
32 y,-z,-x
33 -y,-z,x
34 -y,-x,-z
35 -x,-z,-y
36 -z,-y,-x
37 1/2-x,1/2-y,1/2+z
38 1/2-x,1/2+y,1/2-z
39 1/2+x,1/2-y,1/2-z
40 1/2+z,1/2-x,1/2-y
41 1/2-z,1/2-x,1/2+y
42 1/2-z,1/2+x,1/2-y
43 1/2-y,1/2+z,1/2-x
44 1/2+y,1/2-z,1/2-x
45 1/2-y,1/2-z,1/2+x
46 1/2-y,1/2-x,1/2-z
47 1/2-x,1/2-z,1/2-y
48 1/2-z,1/2-y,1/2-x
49 -x,-y,-z
50 -z,-x,-y
51 -y,-z,-x
52 -y,-x,z
53 -y,x,-z
54 y,-x,-z
55 -x,-z,y
56 x,-z,-y
57 -x,z,-y
58 -z,-y,x
59 -z,y,-x
60 z,-y,-x
61 1/2-x,1/2-y,1/2-z
62 1/2-z,1/2-x,1/2-y
63 1/2-y,1/2-z,1/2-x
64 1/2-y,1/2-x,1/2+z
65 1/2-y,1/2+x,1/2-z
66 1/2+y,1/2-x,1/2-z
67 1/2-x,1/2-z,1/2+y
68 1/2+x,1/2-z,1/2-y
69 1/2-x,1/2+z,1/2-y
70 1/2-z,1/2-y,1/2+x
71 1/2-z,1/2+y,1/2-x
72 1/2+z,1/2-y,1/2-x
73 x,y,-z
74 x,-y,z
75 -x,y,z
76 -z,x,y
77 z,x,-y
78 z,-x,y
79 y,-z,x
80 -y,z,x
81 y,z,-x
82 y,x,z
83 x,z,y
84 z,y,x
85 1/2+x,1/2+y,1/2-z
86 1/2+x,1/2-y,1/2+z
87 1/2-x,1/2+y,1/2+z
88 1/2-z,1/2+x,1/2+y
89 1/2+z,1/2+x,1/2-y
90 1/2+z,1/2-x,1/2+y
91 1/2+y,1/2-z,1/2+x
92 1/2-y,1/2+z,1/2+x
93 1/2+y,1/2+z,1/2-x
94 1/2+y,1/2+x,1/2+z
95 1/2+x,1/2+z,1/2+y
96 1/2+z,1/2+y,1/2+x
_cell_length_a                   21.4594(14)
_cell_length_b                   21.4594(14)
_cell_length_c                   21.4594(14)
_cell_angle_alpha                90
_cell_angle_beta                 90
_cell_angle_gamma                90
_cell_volume                     9882.18
loop_
_atom_site_label
_atom_site_type_symbol
_atom_site_fract_x
_atom_site_fract_y
_atom_site_fract_z
_atom_site_U_iso_or_equiv
_atom_site_thermal_displace_type
Zn1 Zn 0.05207(6) 0.05207(6) 0.05207(6) 0.0669 Uani
O2 O 0.0000 0.0000 0.0000 0.0440 Uani
O3 O 0.0390(4) 0.0390(4) 0.1398(4) 0.1097 Uani
C1 C 0.0000 0.0000 0.2339(7) 0.1183 Uani
C2 C 0.0000 0.0000 0.1662(7) 0.1140 Uani
C3 C 0.0000 0.0000 0.3647(8) 0.1370 Uani
C4 C -0.0000 0.0000 0.4343(9) 0.1763 Uani
C5 C -0.0389(7) 0.0389(7) 0.2674(7) 0.1903 Uani
C6 C -0.0370(7) 0.0370(7) 0.3322(9) 0.1907 Uani
C7 C 0.0000 -0.0619(12) 0.4671(9) 0.2027 Uani
O3A O 0.1398(4) 0.0390(4) 0.0390(4) 0.1097 Uani
O3B O 0.0390(4) 0.1398(4) 0.0390(4) 0.1097 Uani
Zn1C Zn 0.05207(6) 0.05207(6) -0.05207(6) 0.0669 Uani
Zn1E Zn -0.05207(6) 0.05207(6) 0.05207(6) 0.0669 Uani
Zn1D Zn 0.05207(6) -0.05207(6) 0.05207(6) 0.0669 Uani
Zn1VA Zn -0.05207(6) -0.05207(6) -0.05207(6) 0.0669 Uani
Zn1YA Zn -0.05207(6) -0.05207(6) 0.05207(6) 0.0669 Uani
Zn1AB Zn 0.05207(6) -0.05207(6) -0.05207(6) 0.0669 Uani
Zn1ZA Zn -0.05207(6) 0.05207(6) -0.05207(6) 0.0669 Uani
O3D O 0.0390(4) -0.0390(4) 0.1398(4) 0.1097 Uani
O3E O -0.0390(4) 0.0390(4) 0.1398(4) 0.1097 Uani
C5D C 0.0389(7) 0.0389(7) 0.2674(7) 0.1903 Uani
C5E C -0.0389(7) -0.0389(7) 0.2674(7) 0.1903 Uani
C5CC C 0.0389(7) -0.0389(7) 0.2674(7) 0.1903 Uani
O3YA O -0.0390(4) -0.0390(4) 0.1398(4) 0.1097 Uani
C6D C 0.0370(7) 0.0370(7) 0.3322(9) 0.1907 Uani
C6E C -0.0370(7) -0.0370(7) 0.3322(9) 0.1907 Uani
C6CC C 0.0370(7) -0.0370(7) 0.3322(9) 0.1907 Uani
C7D C -0.0619(12) 0.0000 0.4671(9) 0.2027 Uani
C7E C 0.0619(12) 0.0000 0.4671(9) 0.2027 Uani
C7UB C 0.0000 0.0619(12) 0.4671(9) 0.2027 Uani
C7TB C 0.0000 -0.0619(12) 0.5329(9) 0.2027 Uani
O1 O 0.132(2) 0.132(2) 0.132(2) 0.4300 Uiso
loop_
_atom_site_aniso_label
_atom_site_aniso_U_11
_atom_site_aniso_U_22
_atom_site_aniso_U_33
_atom_site_aniso_U_23
_atom_site_aniso_U_13
_atom_site_aniso_U_12
Zn1 0.0669(12) 0.0669(12) 0.0669(12) -0.0030(6) -0.0030(6) -0.0030(6)
O2 0.044(4) 0.044(4) 0.044(4) 0.000 0.000 0.000
O3 0.140(6) 0.140(6) 0.049(5) 0.002(4) 0.002(4) -0.026(6)
C1 0.148(9) 0.148(9) 0.059(9) 0.000 0.000 0.000
C2 0.140(9) 0.140(9) 0.062(9) 0.000 0.000 0.000
C3 0.176(12) 0.176(12) 0.059(10) 0.000 0.000 0.000
C4 0.232(18) 0.232(18) 0.065(11) 0.000 0.000 0.000
C5 0.26(2) 0.26(2) 0.051(9) 0.001(6) -0.001(6) 0.14(2)
C6 0.25(2) 0.25(2) 0.072(12) 0.000(7) 0.000(7) 0.12(2)
C7 0.33(4) 0.22(3) 0.058(9) 0.024(10) 0.000 0.000
O3A 0.049 0.14 0.14 -0.026 0.002 0.002
O3B 0.14 0.049 0.14 0.002 -0.026 0.002
Zn1C 0.0669 0.0669 0.0669 0.003 0.003 -0.003
Zn1E 0.0669 0.0669 0.0669 -0.003 0.003 0.003
Zn1D 0.0669 0.0669 0.0669 0.003 -0.003 0.003
Zn1VA 0.0669 0.0669 0.0669 -0.003 -0.003 -0.003
Zn1YA 0.0669 0.0669 0.0669 0.003 0.003 -0.003
Zn1AB 0.0669 0.0669 0.0669 -0.003 0.003 0.003
Zn1ZA 0.0669 0.0669 0.0669 0.003 -0.003 0.003
O3D 0.14 0.14 0.049 -0.002 0.002 0.026
O3E 0.14 0.14 0.049 0.002 -0.002 0.026
C5D 0.26 0.26 0.051 0.001 0.001 -0.14
C5E 0.26 0.26 0.051 -0.001 -0.001 -0.14
C5CC 0.26 0.26 0.051 -0.001 0.001 0.14
O3YA 0.14 0.14 0.049 -0.002 -0.002 -0.026
C6D 0.25 0.25 0.072 0 0 -0.12
C6E 0.25 0.25 0.072 0 0 -0.12
C6CC 0.25 0.25 0.072 0 0 0.12
C7D 0.22 0.33 0.058 0 0.024 0
C7E 0.22 0.33 0.058 0 -0.024 0
C7UB 0.33 0.22 0.058 -0.024 0 0
C7TB 0.33 0.22 0.058 -0.024 0 0
loop_
_geom_bond_atom_site_label_1
_geom_bond_atom_site_label_2
_geom_bond_site_symmetry_1
_geom_bond_site_symmetry_2
Zn1 O2 1_555 1_555
O2 Zn1C 1_555 1_555
O3 Zn1 1_555 1_555
C1 C2 1_555 1_555
C2 O3 1_555 1_555
C3 C4 1_555 1_555
C4 C7 1_555 1_555
C5 C1 1_555 1_555
C6 C3 1_555 1_555
C7 C7TB 1_555 1_555
O3A Zn1 1_555 1_555
O3B Zn1 1_555 1_555
Zn1E O2 1_555 1_555
Zn1D O2 1_555 1_555
Zn1VA O2 1_555 1_555
Zn1YA O2 1_555 1_555
Zn1AB O2 1_555 1_555
Zn1ZA O2 1_555 1_555
O3D O3 1_555 1_555
O3E O3 1_555 1_555
C5D C1 1_555 1_555
C5E C1 1_555 1_555
C5CC C1 1_555 1_555
O3YA C2 1_555 1_555
C6D C3 1_555 1_555
C6E C3 1_555 1_555
C6CC C3 1_555 1_555
C7D C4 1_555 1_555
C7E C4 1_555 1_555
C7UB C4 1_555 1_555
C2 O3D 1_555 1_555
C2 O3E 1_555 1_555
C5 C6 1_555 1_555
C5 C5D 1_555 1_555
C5 C5E 1_555 1_555
C6 C6D 1_555 1_555
C6 C6E 1_555 1_555
Zn1E O3E 1_555 1_555
Zn1D O3D 1_555 1_555
Zn1YA O3YA 1_555 1_555
O3D O3YA 1_555 1_555
O3E O3YA 1_555 1_555
C5D C5CC 1_555 1_555
C5D C6D 1_555 1_555
C5E C5CC 1_555 1_555
C5E C6E 1_555 1_555
C5CC C6CC 1_555 1_555
C6D C6CC 1_555 1_555
C6E C6CC 1_555 1_555

#END
