
#######################################################################
#
#                 Cambridge Crystallographic Data Centre
#                                CCDC 
#
#######################################################################
#
# If this CIF has been generated from an entry in the Cambridge 
# Structural Database, then it will include bibliographic, chemical, 
# crystal, experimental, refinement or atomic coordinate data resulting 
# from the CCDC's data processing and validation procedures.
#
#######################################################################

data_EDUVOO
_chemical_formula_moiety         '(C59 H24 O13 Zn4)n'
_symmetry_cell_setting           cubic
_symmetry_space_group_name_H-M   'F m -3 m'
_symmetry_Int_Tables_number      225
_space_group_name_Hall           '-F 4 2 3'
loop_
_symmetry_equiv_pos_site_id
_symmetry_equiv_pos_as_xyz
1 x,y,z
2 z,x,y
3 y,z,x
4 y,x,-z
5 y,-x,z
6 -y,x,z
7 x,z,-y
8 -x,z,y
9 x,-z,y
10 z,y,-x
11 z,-y,x
12 -z,y,x
13 x,1/2+y,1/2+z
14 z,1/2+x,1/2+y
15 y,1/2+z,1/2+x
16 y,1/2+x,1/2-z
17 y,1/2-x,1/2+z
18 -y,1/2+x,1/2+z
19 x,1/2+z,1/2-y
20 -x,1/2+z,1/2+y
21 x,1/2-z,1/2+y
22 z,1/2+y,1/2-x
23 z,1/2-y,1/2+x
24 -z,1/2+y,1/2+x
25 1/2+x,y,1/2+z
26 1/2+z,x,1/2+y
27 1/2+y,z,1/2+x
28 1/2+y,x,1/2-z
29 1/2+y,-x,1/2+z
30 1/2-y,x,1/2+z
31 1/2+x,z,1/2-y
32 1/2-x,z,1/2+y
33 1/2+x,-z,1/2+y
34 1/2+z,y,1/2-x
35 1/2+z,-y,1/2+x
36 1/2-z,y,1/2+x
37 1/2+x,1/2+y,z
38 1/2+z,1/2+x,y
39 1/2+y,1/2+z,x
40 1/2+y,1/2+x,-z
41 1/2+y,1/2-x,z
42 1/2-y,1/2+x,z
43 1/2+x,1/2+z,-y
44 1/2-x,1/2+z,y
45 1/2+x,1/2-z,y
46 1/2+z,1/2+y,-x
47 1/2+z,1/2-y,x
48 1/2-z,1/2+y,x
49 x,y,-z
50 x,-y,z
51 -x,y,z
52 -z,x,y
53 z,x,-y
54 z,-x,y
55 y,-z,x
56 -y,z,x
57 y,z,-x
58 y,x,z
59 x,z,y
60 z,y,x
61 x,1/2+y,1/2-z
62 x,1/2-y,1/2+z
63 -x,1/2+y,1/2+z
64 -z,1/2+x,1/2+y
65 z,1/2+x,1/2-y
66 z,1/2-x,1/2+y
67 y,1/2-z,1/2+x
68 -y,1/2+z,1/2+x
69 y,1/2+z,1/2-x
70 y,1/2+x,1/2+z
71 x,1/2+z,1/2+y
72 z,1/2+y,1/2+x
73 1/2+x,y,1/2-z
74 1/2+x,-y,1/2+z
75 1/2-x,y,1/2+z
76 1/2-z,x,1/2+y
77 1/2+z,x,1/2-y
78 1/2+z,-x,1/2+y
79 1/2+y,-z,1/2+x
80 1/2-y,z,1/2+x
81 1/2+y,z,1/2-x
82 1/2+y,x,1/2+z
83 1/2+x,z,1/2+y
84 1/2+z,y,1/2+x
85 1/2+x,1/2+y,-z
86 1/2+x,1/2-y,z
87 1/2-x,1/2+y,z
88 1/2-z,1/2+x,y
89 1/2+z,1/2+x,-y
90 1/2+z,1/2-x,y
91 1/2+y,1/2-z,x
92 1/2-y,1/2+z,x
93 1/2+y,1/2+z,-x
94 1/2+y,1/2+x,z
95 1/2+x,1/2+z,y
96 1/2+z,1/2+y,x
97 -x,-y,-z
98 -z,-x,-y
99 -y,-z,-x
100 -y,-x,z
101 -y,x,-z
102 y,-x,-z
103 -x,-z,y
104 x,-z,-y
105 -x,z,-y
106 -z,-y,x
107 -z,y,-x
108 z,-y,-x
109 -x,1/2-y,1/2-z
110 -z,1/2-x,1/2-y
111 -y,1/2-z,1/2-x
112 -y,1/2-x,1/2+z
113 -y,1/2+x,1/2-z
114 y,1/2-x,1/2-z
115 -x,1/2-z,1/2+y
116 x,1/2-z,1/2-y
117 -x,1/2+z,1/2-y
118 -z,1/2-y,1/2+x
119 -z,1/2+y,1/2-x
120 z,1/2-y,1/2-x
121 1/2-x,-y,1/2-z
122 1/2-z,-x,1/2-y
123 1/2-y,-z,1/2-x
124 1/2-y,-x,1/2+z
125 1/2-y,x,1/2-z
126 1/2+y,-x,1/2-z
127 1/2-x,-z,1/2+y
128 1/2+x,-z,1/2-y
129 1/2-x,z,1/2-y
130 1/2-z,-y,1/2+x
131 1/2-z,y,1/2-x
132 1/2+z,-y,1/2-x
133 1/2-x,1/2-y,-z
134 1/2-z,1/2-x,-y
135 1/2-y,1/2-z,-x
136 1/2-y,1/2-x,z
137 1/2-y,1/2+x,-z
138 1/2+y,1/2-x,-z
139 1/2-x,1/2-z,y
140 1/2+x,1/2-z,-y
141 1/2-x,1/2+z,-y
142 1/2-z,1/2-y,x
143 1/2-z,1/2+y,-x
144 1/2+z,1/2-y,-x
145 -x,-y,z
146 -x,y,-z
147 x,-y,-z
148 z,-x,-y
149 -z,-x,y
150 -z,x,-y
151 -y,z,-x
152 y,-z,-x
153 -y,-z,x
154 -y,-x,-z
155 -x,-z,-y
156 -z,-y,-x
157 -x,1/2-y,1/2+z
158 -x,1/2+y,1/2-z
159 x,1/2-y,1/2-z
160 z,1/2-x,1/2-y
161 -z,1/2-x,1/2+y
162 -z,1/2+x,1/2-y
163 -y,1/2+z,1/2-x
164 y,1/2-z,1/2-x
165 -y,1/2-z,1/2+x
166 -y,1/2-x,1/2-z
167 -x,1/2-z,1/2-y
168 -z,1/2-y,1/2-x
169 1/2-x,-y,1/2+z
170 1/2-x,y,1/2-z
171 1/2+x,-y,1/2-z
172 1/2+z,-x,1/2-y
173 1/2-z,-x,1/2+y
174 1/2-z,x,1/2-y
175 1/2-y,z,1/2-x
176 1/2+y,-z,1/2-x
177 1/2-y,-z,1/2+x
178 1/2-y,-x,1/2-z
179 1/2-x,-z,1/2-y
180 1/2-z,-y,1/2-x
181 1/2-x,1/2-y,z
182 1/2-x,1/2+y,-z
183 1/2+x,1/2-y,-z
184 1/2+z,1/2-x,-y
185 1/2-z,1/2-x,y
186 1/2-z,1/2+x,-y
187 1/2-y,1/2+z,-x
188 1/2+y,1/2-z,-x
189 1/2-y,1/2-z,x
190 1/2-y,1/2-x,-z
191 1/2-x,1/2-z,-y
192 1/2-z,1/2-y,-x
_cell_length_a                   34.381(13)
_cell_length_b                   34.381(13)
_cell_length_c                   34.381(13)
_cell_angle_alpha                90
_cell_angle_beta                 90
_cell_angle_gamma                90
_cell_volume                     40640.2
loop_
_atom_site_label
_atom_site_type_symbol
_atom_site_fract_x
_atom_site_fract_y
_atom_site_fract_z
_atom_site_U_iso_or_equiv
_atom_site_thermal_displace_type
C7 C 0.373(3) 0.0517(15) 0.0517(15) 0.5133 Uani
C8 C 0.050(3) 0.050(3) 0.050(3) 0.4000 Uani
C9 C 0.0000 0.0000 0.0000 0.4000 Uani
C10 C 0.1135(9) 0.1135(9) 0.0518(11) 0.1467 Uani
C11 C 0.3833(9) 0.1167(9) 0.1167(9) 0.1600 Uani
Zn1 Zn 0.28275(7) 0.28275(7) 0.21725(7) 0.0520 Uani
O1 O 0.2500 0.2500 0.2500 0.0350 Uani
O2 O 0.2725(4) 0.2725(4) 0.1613(6) 0.0960 Uani
C1 C 0.2500 0.2500 0.1048(10) 0.0933 Uani
C2 C 0.2500 0.2500 0.1437(18) 0.1567 Uani
C3 C 0.2255(5) 0.2255(5) 0.0835(6) 0.1187 Uani
H1 H 0.2086 0.2086 0.0962 0.1430 Uiso
C4 C 0.2267(5) 0.2267(5) 0.0428(6) 0.1400 Uani
C5 C 0.2500 0.2500 0.0192(8) 0.0920 Uani
C6 C 0.2028(6) 0.2028(6) 0.0203(10) 0.3433 Uani
H2 H 0.1859 0.1859 0.0331 0.4120 Uiso
O2EE O 0.2275(4) 0.2275(4) 0.1613(6) 0.0960 Uani
C4EE C 0.2733(5) 0.2733(5) 0.0428(6) 0.1400 Uani
C3EE C 0.2745(5) 0.2745(5) 0.0835(6) 0.1187 Uani
H1EE H 0.2914 0.2914 0.0962 0.1430 Uiso
C6EE C 0.2972(6) 0.2972(6) 0.0203(10) 0.3433 Uani
C6BE C 0.2972(6) 0.2972(6) -0.0203(10) 0.3433 Uani
C4BE C 0.2733(5) 0.2733(5) -0.0428(6) 0.1400 Uani
C3BE C 0.2745(5) 0.2745(5) -0.0835(6) 0.1187 Uani
C1BE C 0.2500 0.2500 -0.1048(10) 0.0933 Uani
C2BE C 0.2500 0.2500 -0.1437(18) 0.1567 Uani
O2BE O 0.2275(4) 0.2275(4) -0.1613(6) 0.0960 Uani
O2C O 0.2725(4) 0.2725(4) -0.1613(6) 0.0960 Uani
C3C C 0.2255(5) 0.2255(5) -0.0835(6) 0.1187 Uani
H1C H 0.2086 0.2086 -0.0962 0.1430 Uiso
C4C C 0.2267(5) 0.2267(5) -0.0428(6) 0.1400 Uani
C5C C 0.2500 0.2500 -0.0192(8) 0.0920 Uani
C6C C 0.2028(6) 0.2028(6) -0.0203(10) 0.3433 Uani
H2C H 0.1859 0.1859 -0.0331 0.4120 Uiso
H1BE H 0.2914 0.2914 -0.0962 0.1430 Uiso
H2BE H 0.3141 0.3141 -0.0331 0.4120 Uiso
H2EE H 0.3141 0.3141 0.0331 0.4120 Uiso
O2KD O 0.2725(4) 0.3387(6) 0.2275(4) 0.0960 Uani
O2FG O 0.2275(4) 0.3387(6) 0.2725(4) 0.0960 Uani
O2ZD O 0.3387(6) 0.2725(4) 0.2275(4) 0.0960 Uani
O2BG O 0.3387(6) 0.2275(4) 0.2725(4) 0.0960 Uani
Zn1B Zn 0.28275(7) 0.21725(7) 0.28275(7) 0.0520 Uani
Zn1A Zn 0.21725(7) 0.28275(7) 0.28275(7) 0.0520 Uani
Zn1EE Zn 0.21725(7) 0.21725(7) 0.21725(7) 0.0520 Uani
Zn1BE Zn 0.21725(7) 0.21725(7) -0.21725(7) 0.0520 Uani
Zn1C Zn 0.28275(7) 0.28275(7) -0.21725(7) 0.0520 Uani
O2B O 0.2725(4) 0.1613(6) 0.2725(4) 0.0960 Uani
C1B C 0.2500 0.1048(10) 0.2500 0.0933 Uani
C2B C 0.2500 0.1437(18) 0.2500 0.1567 Uani
C3B C 0.2255(5) 0.0835(6) 0.2255(5) 0.1187 Uani
H1B H 0.2086 0.0962 0.2086 0.1430 Uiso
C4B C 0.2267(5) 0.0428(6) 0.2267(5) 0.1400 Uani
C5B C 0.2500 0.0192(8) 0.2500 0.0920 Uani
C6B C 0.2028(6) 0.0203(10) 0.2028(6) 0.3433 Uani
H2B H 0.1859 0.0331 0.1859 0.4120 Uiso
O2XD O 0.2275(4) 0.1613(6) 0.2275(4) 0.0960 Uani
C4XD C 0.2733(5) 0.0428(6) 0.2733(5) 0.1400 Uani
C3XD C 0.2745(5) 0.0835(6) 0.2745(5) 0.1187 Uani
H1XD H 0.2914 0.0962 0.2914 0.1430 Uiso
C6XD C 0.2972(6) 0.0203(10) 0.2972(6) 0.3433 Uani
C6RD C 0.2972(6) -0.0203(10) 0.2972(6) 0.3433 Uani
C4RD C 0.2733(5) -0.0428(6) 0.2733(5) 0.1400 Uani
C3RD C 0.2745(5) -0.0835(6) 0.2745(5) 0.1187 Uani
C1RD C 0.2500 -0.1048(10) 0.2500 0.0933 Uani
C2RD C 0.2500 -0.1437(18) 0.2500 0.1567 Uani
O2RD O 0.2275(4) -0.1613(6) 0.2275(4) 0.0960 Uani
O2H O 0.2725(4) -0.1613(6) 0.2725(4) 0.0960 Uani
C3H C 0.2255(5) -0.0835(6) 0.2255(5) 0.1187 Uani
H1H H 0.2086 -0.0962 0.2086 0.1430 Uiso
C4H C 0.2267(5) -0.0428(6) 0.2267(5) 0.1400 Uani
C5H C 0.2500 -0.0192(8) 0.2500 0.0920 Uani
C6H C 0.2028(6) -0.0203(10) 0.2028(6) 0.3433 Uani
H2H H 0.1859 -0.0331 0.1859 0.4120 Uiso
H1RD H 0.2914 -0.0962 0.2914 0.1430 Uiso
H2RD H 0.3141 -0.0331 0.3141 0.4120 Uiso
H2XD H 0.3141 0.0331 0.3141 0.4120 Uiso
O2ID O 0.2725(4) 0.2275(4) 0.3387(6) 0.0960 Uani
O2MF O 0.2275(4) 0.2725(4) 0.3387(6) 0.0960 Uani
O2A O 0.1613(6) 0.2725(4) 0.2725(4) 0.0960 Uani
C1A C 0.1048(10) 0.2500 0.2500 0.0933 Uani
C2A C 0.1437(18) 0.2500 0.2500 0.1567 Uani
C3A C 0.0835(6) 0.2255(5) 0.2255(5) 0.1187 Uani
H1A H 0.0962 0.2086 0.2086 0.1430 Uiso
C4A C 0.0428(6) 0.2267(5) 0.2267(5) 0.1400 Uani
C5A C 0.0192(8) 0.2500 0.2500 0.0920 Uani
C6A C 0.0203(10) 0.2028(6) 0.2028(6) 0.3433 Uani
H2A H 0.0331 0.1859 0.1859 0.4120 Uiso
O2OD O 0.1613(6) 0.2275(4) 0.2275(4) 0.0960 Uani
C4OD C 0.0428(6) 0.2733(5) 0.2733(5) 0.1400 Uani
C3OD C 0.0835(6) 0.2745(5) 0.2745(5) 0.1187 Uani
H1OD H 0.0962 0.2914 0.2914 0.1430 Uiso
C6OD C 0.0203(10) 0.2972(6) 0.2972(6) 0.3433 Uani
C6ED C -0.0203(10) 0.2972(6) 0.2972(6) 0.3433 Uani
C4ED C -0.0428(6) 0.2733(5) 0.2733(5) 0.1400 Uani
C3ED C -0.0835(6) 0.2745(5) 0.2745(5) 0.1187 Uani
C1ED C -0.1048(10) 0.2500 0.2500 0.0933 Uani
C2ED C -0.1437(18) 0.2500 0.2500 0.1567 Uani
O2ED O -0.1613(6) 0.2275(4) 0.2275(4) 0.0960 Uani
O2K O -0.1613(6) 0.2725(4) 0.2725(4) 0.0960 Uani
C3K C -0.0835(6) 0.2255(5) 0.2255(5) 0.1187 Uani
H1K H -0.0962 0.2086 0.2086 0.1430 Uiso
C4K C -0.0428(6) 0.2267(5) 0.2267(5) 0.1400 Uani
C5K C -0.0192(8) 0.2500 0.2500 0.0920 Uani
C6K C -0.0203(10) 0.2028(6) 0.2028(6) 0.3433 Uani
H2K H -0.0331 0.1859 0.1859 0.4120 Uiso
H1ED H -0.0962 0.2914 0.2914 0.1430 Uiso
H2ED H -0.0331 0.3141 0.3141 0.4120 Uiso
H2OD H 0.0331 0.3141 0.3141 0.4120 Uiso
Zn1U Zn 0.21725(7) -0.21725(7) 0.21725(7) 0.0520 Uani
Zn1H Zn 0.28275(7) -0.21725(7) 0.28275(7) 0.0520 Uani
Zn1DA Zn -0.21725(7) 0.21725(7) 0.21725(7) 0.0520 Uani
Zn1K Zn -0.21725(7) 0.28275(7) 0.28275(7) 0.0520 Uani
loop_
_atom_site_aniso_label
_atom_site_aniso_U_11
_atom_site_aniso_U_22
_atom_site_aniso_U_33
_atom_site_aniso_U_23
_atom_site_aniso_U_13
_atom_site_aniso_U_12
C7 1.0(2) 0.27(5) 0.27(5) 0.09(6) -0.32(8) -0.32(8)
C8 0.40(10) 0.40(10) 0.40(10) 0.30(11) 0.30(11) 0.30(11)
C9 0.4(2) 0.4(2) 0.4(2) 0.000 0.000 0.000
C10 0.16(2) 0.16(2) 0.12(3) 0.03(2) 0.03(2) 0.05(3)
C11 0.16(3) 0.16(3) 0.16(3) -0.05(2) 0.05(2) 0.05(2)
Zn1 0.052(3) 0.052(3) 0.052(3) 0.0045(16) 0.0045(16) -0.0045(16)
O1 0.035(13) 0.035(13) 0.035(13) 0.000 0.000 0.000
O2 0.106(11) 0.106(11) 0.076(15) 0.021(10) 0.021(10) -0.015(13)
C1 0.13(3) 0.13(3) 0.02(2) 0.000 0.000 -0.04(3)
C2 0.18(5) 0.18(5) 0.11(6) 0.000 0.000 -0.14(6)
C3 0.16(2) 0.16(2) 0.036(19) -0.006(12) -0.006(12) -0.08(3)
C4 0.19(3) 0.19(3) 0.04(2) -0.011(12) -0.011(12) -0.12(3)
C5 0.13(2) 0.13(2) 0.016(18) 0.000 0.000 -0.07(3)
C6 0.48(7) 0.48(7) 0.07(3) 0.013(18) 0.013(18) -0.36(8)
O2EE 0.106 0.106 0.076 -0.021 -0.021 -0.015
C4EE 0.19 0.19 0.04 0.011 0.011 -0.12
C3EE 0.16 0.16 0.036 0.006 0.006 -0.08
C6EE 0.48 0.48 0.07 -0.013 -0.013 -0.36
C6BE 0.48 0.48 0.07 0.013 0.013 -0.36
C4BE 0.19 0.19 0.04 -0.011 -0.011 -0.12
C3BE 0.16 0.16 0.036 -0.006 -0.006 -0.08
C1BE 0.13 0.13 0.02 0 0 -0.04
C2BE 0.18 0.18 0.11 0 0 -0.14
O2BE 0.106 0.106 0.076 0.021 0.021 -0.015
O2C 0.106 0.106 0.076 -0.021 -0.021 -0.015
C3C 0.16 0.16 0.036 0.006 0.006 -0.08
C4C 0.19 0.19 0.04 0.011 0.011 -0.12
C5C 0.13 0.13 0.016 0 0 -0.07
C6C 0.48 0.48 0.07 -0.013 -0.013 -0.36
O2KD 0.106 0.076 0.106 0.021 0.015 -0.021
O2FG 0.106 0.076 0.106 -0.021 0.015 0.021
O2ZD 0.076 0.106 0.106 0.015 0.021 -0.021
O2BG 0.076 0.106 0.106 0.015 -0.021 0.021
Zn1B 0.052 0.052 0.052 0.0045 -0.0045 0.0045
Zn1A 0.052 0.052 0.052 -0.0045 0.0045 0.0045
Zn1EE 0.052 0.052 0.052 -0.0045 -0.0045 -0.0045
Zn1BE 0.052 0.052 0.052 0.0045 0.0045 -0.0045
Zn1C 0.052 0.052 0.052 -0.0045 -0.0045 -0.0045
O2B 0.106 0.076 0.106 0.021 -0.015 0.021
C1B 0.13 0.02 0.13 0 -0.04 0
C2B 0.18 0.11 0.18 0 -0.14 0
C3B 0.16 0.036 0.16 -0.006 -0.08 -0.006
C4B 0.19 0.04 0.19 -0.011 -0.12 -0.011
C5B 0.13 0.016 0.13 0 -0.07 0
C6B 0.48 0.07 0.48 0.013 -0.36 0.013
O2XD 0.106 0.076 0.106 -0.021 -0.015 -0.021
C4XD 0.19 0.04 0.19 0.011 -0.12 0.011
C3XD 0.16 0.036 0.16 0.006 -0.08 0.006
C6XD 0.48 0.07 0.48 -0.013 -0.36 -0.013
C6RD 0.48 0.07 0.48 0.013 -0.36 0.013
C4RD 0.19 0.04 0.19 -0.011 -0.12 -0.011
C3RD 0.16 0.036 0.16 -0.006 -0.08 -0.006
C1RD 0.13 0.02 0.13 0 -0.04 0
C2RD 0.18 0.11 0.18 0 -0.14 0
O2RD 0.106 0.076 0.106 0.021 -0.015 0.021
O2H 0.106 0.076 0.106 -0.021 -0.015 -0.021
C3H 0.16 0.036 0.16 0.006 -0.08 0.006
C4H 0.19 0.04 0.19 0.011 -0.12 0.011
C5H 0.13 0.016 0.13 0 -0.07 0
C6H 0.48 0.07 0.48 -0.013 -0.36 -0.013
O2ID 0.106 0.106 0.076 0.021 -0.021 0.015
O2MF 0.106 0.106 0.076 -0.021 0.021 0.015
O2A 0.076 0.106 0.106 -0.015 0.021 0.021
C1A 0.02 0.13 0.13 -0.04 0 0
C2A 0.11 0.18 0.18 -0.14 0 0
C3A 0.036 0.16 0.16 -0.08 -0.006 -0.006
C4A 0.04 0.19 0.19 -0.12 -0.011 -0.011
C5A 0.016 0.13 0.13 -0.07 0 0
C6A 0.07 0.48 0.48 -0.36 0.013 0.013
O2OD 0.076 0.106 0.106 -0.015 -0.021 -0.021
C4OD 0.04 0.19 0.19 -0.12 0.011 0.011
C3OD 0.036 0.16 0.16 -0.08 0.006 0.006
C6OD 0.07 0.48 0.48 -0.36 -0.013 -0.013
C6ED 0.07 0.48 0.48 -0.36 0.013 0.013
C4ED 0.04 0.19 0.19 -0.12 -0.011 -0.011
C3ED 0.036 0.16 0.16 -0.08 -0.006 -0.006
C1ED 0.02 0.13 0.13 -0.04 0 0
C2ED 0.11 0.18 0.18 -0.14 0 0
O2ED 0.076 0.106 0.106 -0.015 0.021 0.021
O2K 0.076 0.106 0.106 -0.015 -0.021 -0.021
C3K 0.036 0.16 0.16 -0.08 0.006 0.006
C4K 0.04 0.19 0.19 -0.12 0.011 0.011
C5K 0.016 0.13 0.13 -0.07 0 0
C6K 0.07 0.48 0.48 -0.36 -0.013 -0.013
Zn1U 0.052 0.052 0.052 0.0045 -0.0045 0.0045
Zn1H 0.052 0.052 0.052 -0.0045 -0.0045 -0.0045
Zn1DA 0.052 0.052 0.052 -0.0045 0.0045 0.0045
Zn1K 0.052 0.052 0.052 -0.0045 -0.0045 -0.0045
loop_
_geom_bond_atom_site_label_1
_geom_bond_atom_site_label_2
_geom_bond_site_symmetry_1
_geom_bond_site_symmetry_2
Zn1 O1 1_555 1_555
O1 Zn1B 1_555 1_555
O2 Zn1 1_555 1_555
C1 C2 1_555 1_555
C2 O2 1_555 1_555
C3 C1 1_555 1_555
H1 C3 1_555 1_555
C4 C3 1_555 1_555
C5 C4 1_555 1_555
C6 C4 1_555 1_555
H2 C6 1_555 1_555
O2EE C2 1_555 1_555
C4EE C5 1_555 1_555
C3EE C1 1_555 1_555
H1EE C3EE 1_555 1_555
C6EE C4EE 1_555 1_555
C6BE C6EE 1_555 1_555
C4BE C6BE 1_555 1_555
C3BE C4BE 1_555 1_555
C1BE C3BE 1_555 1_555
C2BE C1BE 1_555 1_555
O2BE C2BE 1_555 1_555
O2C C2BE 1_555 1_555
C3C C1BE 1_555 1_555
H1C C3C 1_555 1_555
C4C C3C 1_555 1_555
C5C C5 1_555 1_555
C6C C6 1_555 1_555
H2C C6C 1_555 1_555
H1BE C3BE 1_555 1_555
H2BE C6BE 1_555 1_555
H2EE C6EE 1_555 1_555
O2KD Zn1 1_555 1_555
O2FG Zn1A 1_555 1_555
O2ZD Zn1 1_555 1_555
O2BG Zn1B 1_555 1_555
Zn1B O2B 1_555 1_555
Zn1A O1 1_555 1_555
Zn1EE O1 1_555 1_555
Zn1BE O2BE 1_555 1_555
Zn1C O2C 1_555 1_555
O2B C2B 1_555 1_555
C1B C2B 1_555 1_555
C2B O2XD 1_555 1_555
C3B C1B 1_555 1_555
H1B C3B 1_555 1_555
C4B C3B 1_555 1_555
C5B C4B 1_555 1_555
C6B C4B 1_555 1_555
H2B C6B 1_555 1_555
O2XD Zn1EE 1_555 1_555
C4XD C5B 1_555 1_555
C3XD C1B 1_555 1_555
H1XD C3XD 1_555 1_555
C6XD C4XD 1_555 1_555
C6RD C6XD 1_555 1_555
C4RD C6RD 1_555 1_555
C3RD C4RD 1_555 1_555
C1RD C3RD 1_555 1_555
C2RD C1RD 1_555 1_555
O2RD C2RD 1_555 1_555
O2H C2RD 1_555 1_555
C3H C1RD 1_555 1_555
H1H C3H 1_555 1_555
C4H C3H 1_555 1_555
C5H C5B 1_555 1_555
C6H C6B 1_555 1_555
H2H C6H 1_555 1_555
H1RD C3RD 1_555 1_555
H2RD C6RD 1_555 1_555
H2XD C6XD 1_555 1_555
O2ID Zn1B 1_555 1_555
O2MF Zn1A 1_555 1_555
O2A Zn1A 1_555 1_555
C1A C2A 1_555 1_555
C2A O2A 1_555 1_555
C3A C1A 1_555 1_555
H1A C3A 1_555 1_555
C4A C3A 1_555 1_555
C5A C4A 1_555 1_555
C6A C4A 1_555 1_555
H2A C6A 1_555 1_555
O2OD Zn1EE 1_555 1_555
C4OD C5A 1_555 1_555
C3OD C1A 1_555 1_555
H1OD C3OD 1_555 1_555
C6OD C4OD 1_555 1_555
C6ED C6OD 1_555 1_555
C4ED C6ED 1_555 1_555
C3ED C4ED 1_555 1_555
C1ED C3ED 1_555 1_555
C2ED C1ED 1_555 1_555
O2ED C2ED 1_555 1_555
O2K C2ED 1_555 1_555
C3K C1ED 1_555 1_555
H1K C3K 1_555 1_555
C4K C3K 1_555 1_555
C5K C5A 1_555 1_555
C6K C6A 1_555 1_555
H2K C6K 1_555 1_555
H1ED C3ED 1_555 1_555
H2ED C6ED 1_555 1_555
H2OD C6OD 1_555 1_555
Zn1U O2RD 1_555 1_555
Zn1H O2H 1_555 1_555
Zn1DA O2ED 1_555 1_555
Zn1K O2K 1_555 1_555
O2EE Zn1EE 1_555 1_555
C4EE C3EE 1_555 1_555
C4BE C5C 1_555 1_555
C4C C5C 1_555 1_555
C4C C6C 1_555 1_555
C4XD C3XD 1_555 1_555
C4RD C5H 1_555 1_555
C4H C6H 1_555 1_555
C4H C5H 1_555 1_555
C2A O2OD 1_555 1_555
C4OD C3OD 1_555 1_555
C4ED C5K 1_555 1_555
C4K C6K 1_555 1_555
C4K C5K 1_555 1_555

#END
