
#######################################################################
#
#                 Cambridge Crystallographic Data Centre
#                                CCDC 
#
#######################################################################
#
# If this CIF has been generated from an entry in the Cambridge 
# Structural Database, then it will include bibliographic, chemical, 
# crystal, experimental, refinement or atomic coordinate data resulting 
# from the CCDC's data processing and validation procedures.
#
#######################################################################

data_EDUVAA
_chemical_formula_moiety         '(C45 H26 O14 Zn4)n'
_symmetry_cell_setting           orthorhombic
_symmetry_space_group_name_H-M   'P n n m'
_symmetry_Int_Tables_number      58
_space_group_name_Hall           '-P 2 2n'
loop_
_symmetry_equiv_pos_site_id
_symmetry_equiv_pos_as_xyz
1 x,y,z
2 x,y,-z
3 1/2+x,1/2-y,1/2+z
4 1/2-x,1/2+y,1/2+z
5 -x,-y,-z
6 -x,-y,z
7 1/2-x,1/2+y,1/2-z
8 1/2+x,1/2-y,1/2-z
_cell_length_a                   17.1469(8)
_cell_length_b                   23.3222(10)
_cell_length_c                   25.2552(12)
_cell_angle_alpha                90
_cell_angle_beta                 90
_cell_angle_gamma                90
_cell_volume                     10099.6
loop_
_atom_site_label
_atom_site_type_symbol
_atom_site_fract_x
_atom_site_fract_y
_atom_site_fract_z
C31 C -0.518(3) -0.5797(18) 0.3185(17)
C32 C -0.495(2) -0.6392(15) 0.3054(17)
C33 C 0.596(3) -0.1514(16) -0.149(2)
O10 O -0.071(2) -0.1384(12) -0.1384(16)
Zn1 Zn -0.29192(6) -0.08190(4) 0.0000
Zn2 Zn -0.29802(6) -0.21798(4) 0.0000
Zn3 Zn -0.16429(4) -0.15179(3) -0.06278(3)
O1 O -0.2305(3) -0.1512(2) 0.0000
O2 O -0.3129(4) 0.2823(3) 0.3939(2)
O3 O -0.2162(4) 0.2365(3) 0.4372(2)
O4 O -0.2742(3) -0.03293(18) 0.06071(17)
O5 O -0.1921(4) -0.0867(3) 0.1069(2)
O6 O -1.0563(4) -0.1542(3) -0.0451(3)
O7 O -0.4045(4) -0.0944(3) 0.0000
O8 O -0.4041(4) -0.1921(4) 0.0000
C1 C -0.2596(6) 0.2009(4) 0.3558(4)
C2 C -0.2034(7) 0.1601(5) 0.3548(4)
H1 H -0.1672 0.1577 0.3831
C3 C -0.1981(8) 0.1212(6) 0.3121(5)
H2 H -0.1558 0.0949 0.3113
C4 C -0.2509(8) 0.1200(5) 0.2724(4)
C5 C -0.3084(9) 0.1617(6) 0.2738(5)
H3 H -0.3486 0.1615 0.2479
C6 C -0.3077(7) 0.2030(5) 0.3119(5)
H4 H -0.3420 0.2348 0.3082
C7 C -0.2441(7) 0.0789(4) 0.2282(4)
C8 C -0.2864(9) 0.0848(5) 0.1858(4)
H5 H -0.3223 0.1157 0.1842
C9 C -0.2814(8) 0.0470(4) 0.1416(4)
H6 H -0.3092 0.0554 0.1100
C10 C -0.2361(5) -0.0018(3) 0.1450(3)
C11 C -0.2013(8) -0.0121(5) 0.1921(4)
H7 H -0.1749 -0.0473 0.1979
C12 C -0.2042(9) 0.0291(6) 0.2322(4)
H8 H -0.1766 0.0217 0.2641
C13 C -0.2625(6) 0.2420(4) 0.3985(4)
C14 C -0.2336(5) -0.0431(3) 0.1009(3)
C15 C -1.0264(8) -0.1566(5) 0.0000
C16 C -0.9345(7) -0.1534(7) 0.0000
C17 C -0.8936(13) -0.1769(10) -0.0389(10)
H9 H -0.9210 -0.1954 -0.0668
C18 C -0.8172(13) -0.1756(9) -0.0408(12)
H10 H -0.7904 -0.1933 -0.0695
C21 C -0.7748(6) -0.1478(6) 0.0000
C22 C -0.6882(6) -0.1429(5) 0.0000
C23 C -0.6471(9) -0.1913(7) 0.0000
H13 H -0.6739 -0.2270 0.0000
C24 C -0.5631(9) -0.1911(6) 0.0000
H14 H -0.5355 -0.2265 0.0000
C25 C -0.5238(6) -0.1420(5) 0.0000
C26 C -0.5677(7) -0.0936(5) 0.0000
H15 H -0.5418 -0.0576 0.0000
C27 C -0.6483(6) -0.0940(5) 0.0000
H16 H -0.6758 -0.0586 0.0000
C28 C -0.4385(7) -0.1435(5) 0.0000
O6A O -1.0563(4) -0.1542(3) 0.0451(3)
C18A C -0.8172(13) -0.1756(9) 0.0408(12)
C17A C -0.8936(13) -0.1769(10) 0.0389(10)
H9A H -0.9210 -0.1954 0.0668
H10A H -0.7904 -0.1933 0.0695
O2A O -0.3129(4) 0.2823(3) -0.3939(2)
O3A O -0.2162(4) 0.2365(3) -0.4372(2)
O4A O -0.2742(3) -0.03293(18) -0.06071(17)
O5A O -0.1921(4) -0.0867(3) -0.1069(2)
C1A C -0.2596(6) 0.2009(4) -0.3558(4)
C2A C -0.2034(7) 0.1601(5) -0.3548(4)
H1A H -0.1672 0.1577 -0.3831
C3A C -0.1981(8) 0.1212(6) -0.3121(5)
H2A H -0.1558 0.0949 -0.3113
C4A C -0.2509(8) 0.1200(5) -0.2724(4)
C5A C -0.3084(9) 0.1617(6) -0.2738(5)
H3A H -0.3486 0.1615 -0.2479
C6A C -0.3077(7) 0.2030(5) -0.3119(5)
H4A H -0.3420 0.2348 -0.3082
C7A C -0.2441(7) 0.0789(4) -0.2282(4)
C8A C -0.2864(9) 0.0848(5) -0.1858(4)
H5A H -0.3223 0.1157 -0.1842
C9A C -0.2814(8) 0.0470(4) -0.1416(4)
H6A H -0.3092 0.0554 -0.1100
C10A C -0.2361(5) -0.0018(3) -0.1450(3)
C11A C -0.2013(8) -0.0121(5) -0.1921(4)
H7A H -0.1749 -0.0473 -0.1979
C12A C -0.2042(9) 0.0291(6) -0.2322(4)
H8A H -0.1766 0.0217 -0.2641
C13A C -0.2625(6) 0.2420(4) -0.3985(4)
C14A C -0.2336(5) -0.0431(3) -0.1009(3)
Zn3A Zn -0.16429(4) -0.15179(3) 0.06278(3)
O3C O -0.2838(4) -0.2635(3) -0.0628(2)
O3F O -0.2838(4) -0.2635(3) 0.0628(2)
O2C O -0.1871(4) -0.2177(3) -0.1061(2)
O6_2 O -0.0563(4) -0.1542(3) -0.0451(3)
Zn3C Zn -0.33571(4) 0.34821(3) 0.43722(3)
Zn2C Zn -0.20198(6) 0.28202(4) 0.5000
Zn3_2 Zn -1.16429(4) -0.15179(3) -0.06278(3)
Zn3A_2 Zn -1.16429(4) -0.15179(3) 0.06278(3)
Zn3F Zn -0.33571(4) 0.34821(3) -0.43722(3)
Zn2C_2 Zn -0.20198(6) 0.28202(4) -0.5000
O2F O -0.1871(4) -0.2177(3) 0.1061(2)
O6A_2 O -0.0563(4) -0.1542(3) 0.0451(3)
loop_
_geom_bond_atom_site_label_1
_geom_bond_atom_site_label_2
_geom_bond_site_symmetry_1
_geom_bond_site_symmetry_2
Zn1 O1 1_555 1_555
Zn2 O1 1_555 1_555
Zn3 O1 1_555 1_555
O1 Zn3A 1_555 1_555
O2 C13 1_555 1_555
O3 C13 1_555 1_555
O4 Zn1 1_555 1_555
O5 C14 1_555 1_555
O6 C15 1_555 1_555
O7 Zn1 1_555 1_555
O8 Zn2 1_555 1_555
C1 C2 1_555 1_555
C2 H1 1_555 1_555
C3 C2 1_555 1_555
H2 C3 1_555 1_555
C4 C3 1_555 1_555
C5 C4 1_555 1_555
H3 C5 1_555 1_555
C6 C1 1_555 1_555
H4 C6 1_555 1_555
C7 C4 1_555 1_555
C8 C7 1_555 1_555
H5 C8 1_555 1_555
C9 C8 1_555 1_555
H6 C9 1_555 1_555
C10 C9 1_555 1_555
C11 C10 1_555 1_555
H7 C11 1_555 1_555
C12 C7 1_555 1_555
H8 C12 1_555 1_555
C13 C1 1_555 1_555
C14 O4 1_555 1_555
C15 C16 1_555 1_555
C16 C17 1_555 1_555
C17 H9 1_555 1_555
C18 C17 1_555 1_555
H10 C18 1_555 1_555
C21 C18 1_555 1_555
C22 C21 1_555 1_555
C23 C22 1_555 1_555
H13 C23 1_555 1_555
C24 C23 1_555 1_555
H14 C24 1_555 1_555
C25 C24 1_555 1_555
C26 C25 1_555 1_555
H15 C26 1_555 1_555
C27 C22 1_555 1_555
H16 C27 1_555 1_555
C28 O7 1_555 1_555
C31 C32 1_555 1_555
O6A C15 1_555 1_555
C18A C21 1_555 1_555
C17A C16 1_555 1_555
H9A C17A 1_555 1_555
H10A C18A 1_555 1_555
O2A C13A 1_555 1_555
O3A C13A 1_555 1_555
O4A Zn1 1_555 1_555
O5A Zn3 1_555 1_555
C1A C2A 1_555 1_555
C2A H1A 1_555 1_555
C3A C2A 1_555 1_555
H2A C3A 1_555 1_555
C4A C3A 1_555 1_555
C5A C4A 1_555 1_555
H3A C5A 1_555 1_555
C6A C1A 1_555 1_555
H4A C6A 1_555 1_555
C7A C4A 1_555 1_555
C8A C7A 1_555 1_555
H5A C8A 1_555 1_555
C9A C8A 1_555 1_555
H6A C9A 1_555 1_555
C10A C9A 1_555 1_555
C11A C10A 1_555 1_555
H7A C11A 1_555 1_555
C12A C7A 1_555 1_555
H8A C12A 1_555 1_555
C13A C1A 1_555 1_555
C14A O4A 1_555 1_555
Zn3A O5 1_555 1_555
O3C Zn2 1_555 1_555
O3F Zn2 1_555 1_555
O2C Zn3 1_555 1_555
O6_2 Zn3 1_555 1_555
Zn3C O2 1_555 1_555
Zn2C O3 1_555 1_555
Zn3_2 O6 1_555 1_555
Zn3A_2 O6A 1_555 1_555
Zn3F O2A 1_555 1_555
Zn2C_2 O3A 1_555 1_555
O2F Zn3A 1_555 1_555
O6A_2 Zn3A 1_555 1_555
O8 C28 1_555 1_555
C5 C6 1_555 1_555
C10 C14 1_555 1_555
C11 C12 1_555 1_555
C25 C28 1_555 1_555
C26 C27 1_555 1_555
C18A C17A 1_555 1_555
O5A C14A 1_555 1_555
C5A C6A 1_555 1_555
C10A C14A 1_555 1_555
C11A C12A 1_555 1_555

#END
