
#######################################################################
#
#                 Cambridge Crystallographic Data Centre
#                                CCDC 
#
#######################################################################
#
# If this CIF has been generated from an entry in the Cambridge 
# Structural Database, then it will include bibliographic, chemical, 
# crystal, experimental, refinement or atomic coordinate data resulting 
# from the CCDC's data processing and validation procedures.
#
#######################################################################

data_TECVEE
_chemical_formula_moiety         '(C23 H25 Ca3 O17 S3)n'
_symmetry_cell_setting           monoclinic
_symmetry_space_group_name_H-M   'C 2/c'
_symmetry_Int_Tables_number      15
_space_group_name_Hall           '-C 2yc'
loop_
_symmetry_equiv_pos_site_id
_symmetry_equiv_pos_as_xyz
1 x,y,z
2 -x,y,1/2-z
3 1/2+x,1/2+y,z
4 1/2-x,1/2+y,1/2-z
5 -x,-y,-z
6 x,-y,1/2+z
7 1/2-x,1/2-y,-z
8 1/2+x,1/2-y,1/2+z
_cell_length_a                   15.547(3)
_cell_length_b                   13.6128(19)
_cell_length_c                   18.981(4)
_cell_angle_alpha                90
_cell_angle_beta                 101.88(2)
_cell_angle_gamma                90
_cell_volume                     3931.06
loop_
_atom_site_label
_atom_site_type_symbol
_atom_site_fract_x
_atom_site_fract_y
_atom_site_fract_z
S2 S 0.4668(3) 0.9192(5) 0.6097(4)
C12 C 0.3663(7) 0.8605(9) 0.6024(6)
H12 H 0.3198 0.9080 0.5912
H13 H 0.3640 0.8289 0.6472
H14 H 0.3595 0.8123 0.5648
O9 O 0.5321(6) 0.8460(8) 0.6111(6)
Ca1 Ca 0.5000 0.69807(8) 0.2500
S1 S 0.32437(8) 0.71107(12) 0.08782(7)
O1 O 0.5718(2) 0.5788(2) 0.19698(16)
O2 O 0.5660(2) 0.4811(3) 0.45426(17)
O3 O 0.4152(2) 0.6802(3) 0.12915(17)
O4 O 0.9089(2) 0.2677(3) 0.3921(2)
O5 O 0.6569(3) 0.3653(3) 0.5050(2)
O6 O 0.6363(2) 0.4763(3) 0.13441(17)
O7 O 0.9049(3) 0.3125(3) 0.2782(2)
C1 C 0.6223(3) 0.5067(3) 0.1935(2)
C2 C 0.7468(3) 0.4108(4) 0.2687(3)
H1 H 0.7726 0.4085 0.2286
C3 C 0.8747(3) 0.3111(4) 0.3354(3)
C4 C 0.6707(3) 0.4192(4) 0.3887(3)
C5 C 0.7895(3) 0.3665(4) 0.3319(3)
C6 C 0.6669(3) 0.4586(3) 0.2632(2)
C7 C 0.7509(4) 0.3691(4) 0.3924(3)
H2 H 0.7781 0.3380 0.4348
C8 C 0.2521(4) 0.6933(6) 0.1482(4)
H3 H 0.2441 0.6243 0.1548
H4 H 0.1963 0.7232 0.1287
H5 H 0.2769 0.7230 0.1938
C9 C 0.6294(3) 0.4634(4) 0.3244(3)
H6 H 0.5764 0.4963 0.3220
C10 C 0.6289(3) 0.4222(4) 0.4539(3)
C11 C 0.3289(7) 0.8404(8) 0.0877(6)
H7 H 0.3571 0.8633 0.1347
H8 H 0.2704 0.8665 0.0755
H9 H 0.3618 0.8620 0.0530
Ca2 Ca 0.53544(5) 0.61221(6) 0.06595(4)
O8 O 0.4368(3) 0.6858(3) -0.0366(2)
H10 H 0.4601 0.7409 -0.0524
H11 H 0.4246 0.6439 -0.0746
Ca1B Ca 1.0000 0.19807(8) 0.2500
Ca1B_2 Ca -0.0000 1.19807(8) 0.2500
S1A S 0.67563(8) 0.71107(12) 0.41218(7)
O1B O 0.0718(2) 1.0788(2) 0.19698(16)
O1A O 0.4282(2) 0.5788(2) 0.30302(16)
O2B O 0.0660(2) 0.9811(3) 0.45426(17)
O2A O 0.4340(2) 0.4811(3) 0.04574(17)
O2E O 0.5660(2) 0.5189(3) -0.04574(17)
O2C O -0.0660(2) 0.9811(3) 0.04574(17)
O2G O 0.0660(2) 1.0189(3) -0.04574(17)
O3A O 0.5848(2) 0.6802(3) 0.37085(17)
O3B O -0.0848(2) 1.1802(3) 0.12915(17)
O4B O 0.4089(2) 0.7677(3) 0.3921(2)
O4C O 0.5911(2) 0.7677(3) 0.1079(2)
O4A O 0.0911(2) 1.2677(3) 0.1079(2)
O5B O 0.1569(3) 0.8653(3) 0.5050(2)
O5E O 0.6569(3) 0.6347(3) 0.0050(2)
O5G O 0.1569(3) 1.1347(3) 0.0050(2)
O6B O 0.1363(2) 0.9763(3) 0.13441(17)
O7B O 0.4049(3) 0.8125(3) 0.2782(2)
O7C O 0.5951(3) 0.8125(3) 0.2218(2)
C1B C 0.1223(3) 1.0067(3) 0.1935(2)
C2B C 0.2468(3) 0.9108(4) 0.2687(3)
H1B H 0.2726 0.9085 0.2286
C3B C 0.3747(3) 0.8111(4) 0.3354(3)
C4B C 0.1707(3) 0.9192(4) 0.3887(3)
C5B C 0.2895(3) 0.8665(4) 0.3319(3)
C6B C 0.1669(3) 0.9586(3) 0.2632(2)
C7B C 0.2509(4) 0.8691(4) 0.3924(3)
H2B H 0.2781 0.8380 0.4348
C8A C 0.7479(4) 0.6933(6) 0.3518(4)
H3A H 0.7559 0.6243 0.3452
H4A H 0.8037 0.7232 0.3713
H5A H 0.7231 0.7230 0.3062
C9B C 0.1294(3) 0.9634(4) 0.3244(3)
H6B H 0.0764 0.9963 0.3220
C10B C 0.1289(3) 0.9222(4) 0.4539(3)
C11A C 0.6711(7) 0.8404(8) 0.4123(6)
H7A H 0.6429 0.8633 0.3653
H8A H 0.7296 0.8665 0.4245
H9A H 0.6382 0.8620 0.4470
Ca2B Ca 0.03544(5) 1.11221(6) 0.06595(4)
Ca2A Ca 0.46456(5) 0.61221(6) 0.43405(4)
Ca2E Ca 0.53544(5) 0.38779(6) 0.56595(4)
Ca2C Ca 0.96456(5) 0.11221(6) 0.43405(4)
Ca2C_2 Ca -0.03544(5) 1.11221(6) 0.43405(4)
Ca2G Ca 0.03544(5) 0.88779(6) 0.56595(4)
O8B O -0.0632(3) 1.1858(3) -0.0366(2)
H10B H -0.0399 1.2409 -0.0524
H11B H -0.0754 1.1439 -0.0746
loop_
_geom_bond_atom_site_label_1
_geom_bond_atom_site_label_2
_geom_bond_site_symmetry_1
_geom_bond_site_symmetry_2
Ca1 O1 1_555 1_555
S1 O3 1_555 1_555
O1 C1 1_555 1_555
O2 C10 1_555 1_555
O3 Ca1 1_555 1_555
O4 C3 1_555 1_555
O5 C10 1_555 1_555
O6 C1 1_555 1_555
O7 C3 1_555 1_555
C1 C6 1_555 1_555
C2 H1 1_555 1_555
C3 C5 1_555 1_555
C4 C7 1_555 1_555
C5 C2 1_555 1_555
C6 C2 1_555 1_555
C7 C5 1_555 1_555
H2 C7 1_555 1_555
C8 S1 1_555 1_555
H3 C8 1_555 1_555
H4 C8 1_555 1_555
H5 C8 1_555 1_555
C9 C4 1_555 1_555
H6 C9 1_555 1_555
C10 C4 1_555 1_555
C11 S1 1_555 1_555
H7 C11 1_555 1_555
H8 C11 1_555 1_555
H9 C11 1_555 1_555
Ca2 O1 1_555 1_555
O8 Ca2 1_555 1_555
H10 O8 1_555 1_555
H11 O8 1_555 1_555
S2 C12 1_555 1_555
C12 H12 1_555 1_555
H13 C12 1_555 1_555
H14 C12 1_555 1_555
O9 S2 1_555 1_555
Ca1B O7 1_555 1_555
Ca1B_2 O1B 1_555 1_555
S1A O3A 1_555 1_555
O1B C1B 1_555 1_555
O1A Ca1 1_555 1_555
O2B C10B 1_555 1_555
O2A Ca2 1_555 1_555
O2E Ca2 1_555 1_555
O2C Ca2B 1_555 1_555
O2G Ca2B 1_555 1_555
O3A Ca1 1_555 1_555
O3B Ca1B_2 1_555 1_555
O4B C3B 1_555 1_555
O4C Ca2 1_555 1_555
O4A Ca2B 1_555 1_555
O5B C10B 1_555 1_555
O5E Ca2 1_555 1_555
O5G Ca2B 1_555 1_555
O6B C1B 1_555 1_555
O7B Ca1 1_555 1_555
O7C Ca1 1_555 1_555
C1B C6B 1_555 1_555
C2B H1B 1_555 1_555
C3B O7B 1_555 1_555
C4B C7B 1_555 1_555
C5B C2B 1_555 1_555
C6B C2B 1_555 1_555
C7B C5B 1_555 1_555
H2B C7B 1_555 1_555
C8A S1A 1_555 1_555
H3A C8A 1_555 1_555
H4A C8A 1_555 1_555
H5A C8A 1_555 1_555
C9B C4B 1_555 1_555
H6B C9B 1_555 1_555
C10B C4B 1_555 1_555
C11A S1A 1_555 1_555
H7A C11A 1_555 1_555
H8A C11A 1_555 1_555
H9A C11A 1_555 1_555
Ca2B O1B 1_555 1_555
Ca2A O2 1_555 1_555
Ca2E O2 1_555 1_555
Ca2C O4 1_555 1_555
Ca2C_2 O2B 1_555 1_555
Ca2G O2B 1_555 1_555
O8B Ca2B 1_555 1_555
H10B O8B 1_555 1_555
H11B O8B 1_555 1_555
O3 Ca2 1_555 1_555
O5 Ca2E 1_555 1_555
O6 Ca2 1_555 1_555
C6 C9 1_555 1_555
O1A Ca2A 1_555 1_555
O3A Ca2A 1_555 1_555
O3B Ca2B 1_555 1_555
O4B Ca2A 1_555 1_555
O5B Ca2G 1_555 1_555
O6B Ca2B 1_555 1_555
C3B C5B 1_555 1_555
C6B C9B 1_555 1_555

#END
