
#######################################################################
#
#                 Cambridge Crystallographic Data Centre
#                                CCDC 
#
#######################################################################
#
# If this CIF has been generated from an entry in the Cambridge 
# Structural Database, then it will include bibliographic, chemical, 
# crystal, experimental, refinement or atomic coordinate data resulting 
# from the CCDC's data processing and validation procedures.
#
#######################################################################

data_HOMZEP
_chemical_formula_moiety         '(C54 H64 Ga12 O70)n'
_symmetry_cell_setting           hexagonal
_symmetry_space_group_name_H-M   'P 63/m m c'
_symmetry_Int_Tables_number      194
_space_group_name_Hall           '-P 6c 2c'
loop_
_symmetry_equiv_pos_site_id
_symmetry_equiv_pos_as_xyz
1 x,y,z
2 -y,x-y,z
3 -x+y,-x,z
4 -x,-y,1/2+z
5 y,-x+y,1/2+z
6 x-y,x,1/2+z
7 y,x,-z
8 x-y,-y,-z
9 -x,-x+y,-z
10 -y,-x,1/2-z
11 -x+y,y,1/2-z
12 x,x-y,1/2-z
13 -x,-y,-z
14 y,-x+y,-z
15 x-y,x,-z
16 x,y,1/2-z
17 -y,x-y,1/2-z
18 -x+y,-x,1/2-z
19 -y,-x,z
20 -x+y,y,z
21 x,x-y,z
22 y,x,1/2+z
23 x-y,-y,1/2+z
24 -x,-x+y,1/2+z
_cell_length_a                   14.5665(2)
_cell_length_b                   14.5665(2)
_cell_length_c                   31.6835(2)
_cell_angle_alpha                90
_cell_angle_beta                 90
_cell_angle_gamma                120
_cell_volume                     5822.03
loop_
_atom_site_label
_atom_site_type_symbol
_atom_site_fract_x
_atom_site_fract_y
_atom_site_fract_z
Ga1 Ga 0.07432(6) 0.14864(13) 0.7500
O1 O 0.1543(4) 0.3085(8) 0.7500
O2 O 0.0000 0.0000 0.7500
O3 O 0.1753(5) 0.1648(4) 0.70488(18)
C1 C 0.2005(8) 0.1002(4) 0.6905(3)
C2 C 0.2656(9) 0.1328(5) 0.6507(4)
C3 C 0.2956(7) 0.2307(6) 0.6322(3)
H1 H 0.2766 0.2766 0.6448
C4 C 0.3540(7) 0.2597(6) 0.5949(3)
C5 C 0.3895(6) 0.3647(6) 0.5750(3)
C6 C 0.3844(10) 0.1922(5) 0.5767(4)
O4 O 0.3767(4) 0.4317(5) 0.59545(18)
O5 O 0.4292(6) 0.3781(5) 0.5389(2)
H2 H 0.4251 0.2125 0.5523
Ga2 Ga 0.41674(4) 0.58325(9) 0.58491(4)
Ga3 Ga 0.5000 0.5000 0.5000
O6 O 0.4640(3) 0.7320(3) 0.5814(3)
O7 O 0.4314(3) 0.5686(6) 0.5255(2)
O8 O 0.4121(4) 0.5878(8) 0.6484(3)
O3T O 0.1753(5) 0.0105(6) 0.70488(18)
C3T C 0.2956(7) 0.0649(9) 0.6322(3)
H1T H 0.2766 0.0000 0.6448
C4T C 0.3540(7) 0.0943(9) 0.5949(3)
C5T C 0.3895(6) 0.0248(8) 0.5750(3)
O4T O 0.3767(4) -0.0550(6) 0.59545(18)
O5T O 0.4292(6) 0.0511(8) 0.5389(2)
Ga1A Ga -0.14864(13) -0.07432(14) 0.7500
O1A O -0.3085(8) -0.1542(9) 0.7500
O3A O -0.1648(4) 0.0105(6) 0.70488(18)
C1A C -0.1002(4) 0.1003(9) 0.6905(3)
C2A C -0.1328(5) 0.1328(10) 0.6507(4)
C3A C -0.2307(6) 0.0649(9) 0.6322(3)
H1A H -0.2766 0.0000 0.6448
C4A C -0.2597(6) 0.0943(9) 0.5949(3)
C5A C -0.3647(6) 0.0248(8) 0.5750(3)
C6A C -0.1922(5) 0.1922(11) 0.5767(4)
O4A O -0.4317(5) -0.0550(6) 0.59545(18)
O5A O -0.3781(5) 0.0511(8) 0.5389(2)
H2A H -0.2125 0.2126 0.5523
Ga3A Ga -0.5000 -0.0000 0.5000
O3S O -0.0105(6) 0.1648(4) 0.70488(18)
C3S C -0.0649(9) 0.2307(6) 0.6322(3)
H1S H -0.0000 0.2766 0.6448
C4S C -0.0943(9) 0.2597(6) 0.5949(3)
C5S C -0.0248(8) 0.3647(6) 0.5750(3)
O4S O 0.0550(6) 0.4317(5) 0.59545(18)
O5S O -0.0511(8) 0.3781(5) 0.5389(2)
Ga1B Ga 0.07432(14) -0.07432(6) 0.7500
O1B O 0.1542(9) -0.1543(4) 0.7500
O3B O -0.0105(6) -0.1753(5) 0.70488(18)
C1B C -0.1003(9) -0.2005(8) 0.6905(3)
C2B C -0.1328(10) -0.2656(9) 0.6507(4)
C3B C -0.0649(9) -0.2956(7) 0.6322(3)
H1B H -0.0000 -0.2766 0.6448
C4B C -0.0943(9) -0.3540(7) 0.5949(3)
C5B C -0.0248(8) -0.3895(6) 0.5750(3)
C6B C -0.1922(11) -0.3844(10) 0.5767(4)
O4B O 0.0550(6) -0.3767(4) 0.59545(18)
O5B O -0.0511(8) -0.4292(6) 0.5389(2)
H2B H -0.2126 -0.4251 0.5523
Ga3B Ga 0.0000 -0.5000 0.5000
O3R O -0.1648(4) -0.1753(5) 0.70488(18)
C3R C -0.2307(6) -0.2956(7) 0.6322(3)
H1R H -0.2766 -0.2766 0.6448
C4R C -0.2597(6) -0.3540(7) 0.5949(3)
C5R C -0.3647(6) -0.3895(6) 0.5750(3)
O4R O -0.4317(5) -0.3767(4) 0.59545(18)
O5R O -0.3781(5) -0.4292(6) 0.5389(2)
O3F O 0.1648(4) 0.1753(5) 0.29512(18)
C1F C 0.1002(4) 0.2005(8) 0.3095(3)
C2F C 0.1328(5) 0.2656(9) 0.3493(4)
C3F C 0.2307(6) 0.2956(7) 0.3678(3)
H1F H 0.2766 0.2766 0.3552
C4F C 0.2597(6) 0.3540(7) 0.4051(3)
C5F C 0.3647(6) 0.3895(6) 0.4250(3)
C6F C 0.1922(5) 0.3844(10) 0.4233(4)
O4F O 0.4317(5) 0.3767(4) 0.40455(18)
O5F O 0.3781(5) 0.4292(6) 0.4611(2)
H2F H 0.2125 0.4251 0.4477
Ga2F Ga 0.58325(9) 0.41674(4) 0.41509(4)
O6F O 0.7320(3) 0.4640(3) 0.4186(3)
O7F O 0.5686(6) 0.4314(3) 0.4745(2)
O8F O 0.5878(8) 0.4121(4) 0.3516(3)
O3N O 0.0105(6) 0.1753(5) 0.29512(18)
C3N C 0.0649(9) 0.2956(7) 0.3678(3)
H1N H 0.0000 0.2766 0.3552
C4N C 0.0943(9) 0.3540(7) 0.4051(3)
C5N C 0.0248(8) 0.3895(6) 0.4250(3)
O4N O -0.0550(6) 0.3767(4) 0.40455(18)
O5N O 0.0511(8) 0.4292(6) 0.4611(2)
O3G O 0.0105(6) -0.1648(4) 0.29512(18)
C1G C 0.1003(9) -0.1002(4) 0.3095(3)
C2G C 0.1328(10) -0.1328(5) 0.3493(4)
C3G C 0.0649(9) -0.2307(6) 0.3678(3)
H1G H 0.0000 -0.2766 0.3552
C4G C 0.0943(9) -0.2597(6) 0.4051(3)
C5G C 0.0248(8) -0.3647(6) 0.4250(3)
C6G C 0.1922(11) -0.1922(5) 0.4233(4)
O4G O -0.0550(6) -0.4317(5) 0.40455(18)
O5G O 0.0511(8) -0.3781(5) 0.4611(2)
H2G H 0.2126 -0.2125 0.4477
Ga2G Ga -0.16651(10) -0.58325(9) 0.41509(4)
O6G O -0.2680(4) -0.7320(3) 0.4186(3)
O7G O -0.1372(7) -0.5686(6) 0.4745(2)
O8G O -0.1757(9) -0.5878(8) 0.3516(3)
O3M O 0.1648(4) -0.0105(6) 0.29512(18)
C3M C 0.2307(6) -0.0649(9) 0.3678(3)
H1M H 0.2766 0.0000 0.3552
C4M C 0.2597(6) -0.0943(9) 0.4051(3)
C5M C 0.3647(6) -0.0248(8) 0.4250(3)
O4M O 0.4317(5) 0.0550(6) 0.40455(18)
O5M O 0.3781(5) -0.0511(8) 0.4611(2)
Ga2B Ga 0.16651(10) 0.58326(4) 0.58491(4)
O6A O 0.2680(3) 0.7320(4) 0.5814(3)
O7B O 0.1372(7) 0.5686(3) 0.5255(2)
O8B O 0.1757(9) 0.5879(4) 0.6484(3)
Ga2A Ga 0.41675(9) -0.16651(10) 0.58491(4)
O7A O 0.4314(6) -0.1372(7) 0.5255(2)
O8A O 0.4122(8) -0.1757(9) 0.6484(3)
O3H O -0.1753(5) -0.0105(6) 0.29512(18)
C1H C -0.2005(8) -0.1003(9) 0.3095(3)
C2H C -0.2656(9) -0.1328(10) 0.3493(4)
C3H C -0.2956(7) -0.0649(9) 0.3678(3)
H1H H -0.2766 0.0000 0.3552
C4H C -0.3540(7) -0.0943(9) 0.4051(3)
C5H C -0.3895(6) -0.0248(8) 0.4250(3)
C6H C -0.3844(10) -0.1922(11) 0.4233(4)
O4H O -0.3767(4) 0.0550(6) 0.40455(18)
O5H O -0.4292(6) -0.0511(8) 0.4611(2)
H2H H -0.4251 -0.2126 0.4477
Ga2H Ga -0.41674(4) 0.16651(10) 0.41509(4)
O6H O -0.4640(3) 0.2680(4) 0.4186(3)
O7H O -0.4314(3) 0.1372(7) 0.4745(2)
O8H O -0.4121(4) 0.1757(9) 0.3516(3)
O3L O -0.1753(5) -0.1648(4) 0.29512(18)
C3L C -0.2956(7) -0.2307(6) 0.3678(3)
H1L H -0.2766 -0.2766 0.3552
C4L C -0.3540(7) -0.2597(6) 0.4051(3)
C5L C -0.3895(6) -0.3647(6) 0.4250(3)
O4L O -0.3767(4) -0.4317(5) 0.40455(18)
O5L O -0.4292(6) -0.3781(5) 0.4611(2)
O6B O 0.2680(4) 0.5360(3) 0.5814(3)
Ga1C Ga -0.07432(6) -0.14864(13) 0.2500
Ga1D Ga 0.14864(13) 0.07432(14) 0.2500
Ga1E Ga -0.07432(14) 0.07432(6) 0.2500
O3I O -0.1648(4) -0.1753(5) 0.79512(18)
O3J O -0.0105(6) 0.1648(4) 0.79512(18)
O3K O 0.1753(5) 0.0105(6) 0.79512(18)
O3O O 0.1753(5) 0.1648(4) 0.79512(18)
O3P O -0.1648(4) 0.0105(6) 0.79512(18)
O3Q O -0.0105(6) -0.1753(5) 0.79512(18)
O4A_2 O 0.5683(5) -0.0550(6) 0.59545(18)
O4B_2 O 0.0550(6) 0.6233(4) 0.59545(18)
O4L_2 O 0.6233(4) 0.5683(5) 0.40455(18)
O4M_2 O -0.5683(5) 0.0550(6) 0.40455(18)
O4N_2 O -0.0550(6) -0.6233(4) 0.40455(18)
O4R_2 O 0.5683(5) 0.6233(4) 0.59545(18)
O5L_2 O 0.5708(6) 0.6219(5) 0.4611(2)
O5M_2 O -0.6219(5) -0.0511(8) 0.4611(2)
O5N_2 O 0.0511(8) -0.5708(6) 0.4611(2)
O5R_2 O 0.6219(5) 0.5708(6) 0.5389(2)
O5S_2 O -0.0511(8) -0.6219(5) 0.5389(2)
O5T_2 O -0.5708(6) 0.0511(8) 0.5389(2)
Ga2_2 Ga -0.58326(4) -0.41675(9) 0.58491(4)
Ga2A_2 Ga -0.58325(9) -0.16651(10) 0.58491(4)
Ga2A_3 Ga 0.41675(9) 0.83349(10) 0.58491(4)
Ga2B_2 Ga 0.16651(10) -0.41674(4) 0.58491(4)
Ga2F_2 Ga -0.41675(9) -0.58326(4) 0.41509(4)
Ga2F_3 Ga -0.41675(9) 0.41674(4) 0.41509(4)
Ga2G_2 Ga -0.16651(10) 0.41675(9) 0.41509(4)
Ga2G_3 Ga 0.83349(10) 0.41675(9) 0.41509(4)
Ga2H_2 Ga -0.41674(4) -0.83349(10) 0.41509(4)
Ga2H_3 Ga 0.58326(4) 0.16651(10) 0.41509(4)
Ga3_2 Ga -0.5000 -0.5000 0.5000
Ga3A_2 Ga 0.5000 -0.0000 0.5000
Ga3B_2 Ga 0.0000 0.5000 0.5000
O6_2 O 0.4640(3) -0.2680(3) 0.5814(3)
O6A_2 O 0.2680(3) -0.2680(4) 0.5814(3)
O6F_2 O -0.2680(3) -0.5360(3) 0.4186(3)
O6G_2 O -0.2680(4) 0.2680(3) 0.4186(3)
O6H_2 O 0.5360(3) 0.2680(4) 0.4186(3)
O7A_2 O -0.5686(6) -0.1372(7) 0.5255(2)
O7B_2 O 0.1372(7) -0.4314(3) 0.5255(2)
O9 O -0.6667 -0.3333 0.4759(6)
O10 O -0.432(2) -0.2161(11) 0.6757(6)
O11 O -0.4938(13) 0.012(3) 0.6913(10)
O12 O -0.8227(11) -0.1773(11) 0.5286(8)
O13 O 0.381(2) 0.360(2) 0.7500
O14 O 0.439(5) 0.219(2) 0.7500
loop_
_geom_bond_atom_site_label_1
_geom_bond_atom_site_label_2
_geom_bond_site_symmetry_1
_geom_bond_site_symmetry_2
Ga1 O1 1_555 1_555
O2 Ga1 1_555 1_555
O3 Ga1 1_555 1_555
C1 O3 1_555 1_555
C2 C1 1_555 1_555
C3 C2 1_555 1_555
H1 C3 1_555 1_555
C4 C3 1_555 1_555
C5 C4 1_555 1_555
C6 C4 1_555 1_555
O4 C5 1_555 1_555
O5 C5 1_555 1_555
H2 C6 1_555 1_555
Ga2 O4 1_555 1_555
Ga3 O5 1_555 1_555
O6 Ga2 1_555 1_555
O7 Ga2 1_555 1_555
O8 Ga2 1_555 1_555
O3T C1 1_555 1_555
C3T C2 1_555 1_555
H1T C3T 1_555 1_555
C4T C6 1_555 1_555
C5T C4T 1_555 1_555
O4T C5T 1_555 1_555
O5T C5T 1_555 1_555
Ga1A O2 1_555 1_555
O1A Ga1A 1_555 1_555
O3A Ga1A 1_555 1_555
C1A O3A 1_555 1_555
C2A C1A 1_555 1_555
C3A C2A 1_555 1_555
H1A C3A 1_555 1_555
C4A C3A 1_555 1_555
C5A C4A 1_555 1_555
C6A C4A 1_555 1_555
O4A C5A 1_555 1_555
O5A C5A 1_555 1_555
H2A C6A 1_555 1_555
Ga3A O5A 1_555 1_555
O3S Ga1 1_555 1_555
C3S C2A 1_555 1_555
H1S C3S 1_555 1_555
C4S C6A 1_555 1_555
C5S C4S 1_555 1_555
O4S C5S 1_555 1_555
O5S C5S 1_555 1_555
Ga1B O2 1_555 1_555
O1B Ga1B 1_555 1_555
O3B Ga1B 1_555 1_555
C1B O3B 1_555 1_555
C2B C1B 1_555 1_555
C3B C2B 1_555 1_555
H1B C3B 1_555 1_555
C4B C3B 1_555 1_555
C5B C4B 1_555 1_555
C6B C4B 1_555 1_555
O4B C5B 1_555 1_555
O5B C5B 1_555 1_555
H2B C6B 1_555 1_555
Ga3B O5B 1_555 1_555
O3R Ga1A 1_555 1_555
C3R C2B 1_555 1_555
H1R C3R 1_555 1_555
C4R C6B 1_555 1_555
C5R C4R 1_555 1_555
O4R C5R 1_555 1_555
O5R C5R 1_555 1_555
O3F C1F 1_555 1_555
C1F C2F 1_555 1_555
C2F C3F 1_555 1_555
C3F H1F 1_555 1_555
C4F C3F 1_555 1_555
C5F C4F 1_555 1_555
C6F C4F 1_555 1_555
O4F C5F 1_555 1_555
O5F Ga3 1_555 1_555
H2F C6F 1_555 1_555
Ga2F O4F 1_555 1_555
O6F Ga2F 1_555 1_555
O7F Ga3 1_555 1_555
O8F Ga2F 1_555 1_555
O3N C1F 1_555 1_555
C3N C2F 1_555 1_555
H1N C3N 1_555 1_555
C4N C6F 1_555 1_555
C5N C4N 1_555 1_555
O4N C5N 1_555 1_555
O5N C5N 1_555 1_555
O3G C1G 1_555 1_555
C1G C2G 1_555 1_555
C2G C3G 1_555 1_555
C3G H1G 1_555 1_555
C4G C3G 1_555 1_555
C5G C4G 1_555 1_555
C6G C4G 1_555 1_555
O4G C5G 1_555 1_555
O5G Ga3B 1_555 1_555
H2G C6G 1_555 1_555
Ga2G O4G 1_555 1_555
O6G Ga2G 1_555 1_555
O7G Ga3B 1_555 1_555
O8G Ga2G 1_555 1_555
O3M C1G 1_555 1_555
C3M C2G 1_555 1_555
H1M C3M 1_555 1_555
C4M C6G 1_555 1_555
C5M C4M 1_555 1_555
O4M C5M 1_555 1_555
O5M C5M 1_555 1_555
Ga2B O4S 1_555 1_555
O6A Ga2B 1_555 1_555
O7B Ga2B 1_555 1_555
O8B Ga2B 1_555 1_555
Ga2A O4T 1_555 1_555
O7A Ga2A 1_555 1_555
O8A Ga2A 1_555 1_555
O3H C1H 1_555 1_555
C1H C2H 1_555 1_555
C2H C3H 1_555 1_555
C3H H1H 1_555 1_555
C4H C3H 1_555 1_555
C5H C4H 1_555 1_555
C6H C4H 1_555 1_555
O4H C5H 1_555 1_555
O5H Ga3A 1_555 1_555
H2H C6H 1_555 1_555
Ga2H O4H 1_555 1_555
O6H Ga2H 1_555 1_555
O7H Ga3A 1_555 1_555
O8H Ga2H 1_555 1_555
O3L C1H 1_555 1_555
C3L C2H 1_555 1_555
H1L C3L 1_555 1_555
C4L C6H 1_555 1_555
C5L C4L 1_555 1_555
O4L C5L 1_555 1_555
O5L C5L 1_555 1_555
O6B Ga2 1_555 1_555
Ga1C O3G 1_555 1_555
Ga1D O3F 1_555 1_555
Ga1E O3N 1_555 1_555
O3I Ga1A 1_555 1_555
O3J Ga1 1_555 1_555
O3K Ga1B 1_555 1_555
O3O Ga1 1_555 1_555
O3P Ga1A 1_555 1_555
O3Q Ga1B 1_555 1_555
O4A_2 Ga2A 1_555 1_555
O4B_2 Ga2B 1_555 1_555
O4L_2 Ga2F 1_555 1_555
O4M_2 Ga2H 1_555 1_555
O4N_2 Ga2G 1_555 1_555
O4R_2 Ga2 1_555 1_555
O5L_2 Ga3 1_555 1_555
O5M_2 Ga3A 1_555 1_555
O5N_2 Ga3B 1_555 1_555
O5R_2 Ga3 1_555 1_555
O5S_2 Ga3B 1_555 1_555
O5T_2 Ga3A 1_555 1_555
Ga2_2 O4R 1_555 1_555
Ga2A_2 O4A 1_555 1_555
Ga2A_3 O6 1_555 1_555
Ga2B_2 O4B 1_555 1_555
Ga2F_2 O4L 1_555 1_555
Ga2F_3 O6H 1_555 1_555
Ga2G_2 O4N 1_555 1_555
Ga2G_3 O6F 1_555 1_555
Ga2H_2 O6G 1_555 1_555
Ga2H_3 O4M 1_555 1_555
Ga3_2 O5R 1_555 1_555
Ga3A_2 O5T 1_555 1_555
Ga3B_2 O5S 1_555 1_555
O6_2 Ga2A 1_555 1_555
O6A_2 Ga2A 1_555 1_555
O6F_2 Ga2G 1_555 1_555
O6G_2 Ga2H 1_555 1_555
O6H_2 Ga2F 1_555 1_555
O7A_2 Ga3A 1_555 1_555
O7B_2 Ga3B 1_555 1_555
Ga3 O7 1_555 1_555
O3T Ga1B 1_555 1_555
C3T C4T 1_555 1_555
C1A O3S 1_555 1_555
C3S C4S 1_555 1_555
C1B O3R 1_555 1_555
C3R C4R 1_555 1_555
C5F O5F 1_555 1_555
Ga2F O7F 1_555 1_555
C3N C4N 1_555 1_555
O5N Ga3B_2 1_555 1_555
C5G O5G 1_555 1_555
Ga2G O7G 1_555 1_555
O3M Ga1D 1_555 1_555
C3M C4M 1_555 1_555
O5M Ga3A_2 1_555 1_555
Ga2B O6B 1_555 1_555
O6A Ga2A_3 1_555 1_555
O7B Ga3B_2 1_555 1_555
O7A Ga3A_2 1_555 1_555
O3H Ga1E 1_555 1_555
C5H O5H 1_555 1_555
Ga2H O7H 1_555 1_555
O3L Ga1C 1_555 1_555
C3L C4L 1_555 1_555
O5L Ga3_2 1_555 1_555
Ga2A_2 O7A_2 1_555 1_555
Ga2B_2 O6A_2 1_555 1_555
Ga2B_2 O7B_2 1_555 1_555
Ga2F_2 O6F_2 1_555 1_555
Ga2G_2 O6G_2 1_555 1_555
Ga2H_3 O6H_2 1_555 1_555

#END
