
#######################################################################
#
#                 Cambridge Crystallographic Data Centre
#                                CCDC 
#
#######################################################################
#
# If this CIF has been generated from an entry in the Cambridge 
# Structural Database, then it will include bibliographic, chemical, 
# crystal, experimental, refinement or atomic coordinate data resulting 
# from the CCDC's data processing and validation procedures.
#
#######################################################################

data_LUCDAO
_chemical_formula_moiety         '(C48 H50 Eu2 N4 O18)n'
_symmetry_cell_setting           triclinic
_symmetry_space_group_name_H-M   'P -1'
_symmetry_Int_Tables_number      2
_space_group_name_Hall           '-P 1'
loop_
_symmetry_equiv_pos_site_id
_symmetry_equiv_pos_as_xyz
1 x,y,z
2 -x,-y,-z
_cell_length_a                   12.117(4)
_cell_length_b                   12.335(4)
_cell_length_c                   13.412(4)
_cell_angle_alpha                101.569(6)
_cell_angle_beta                 99.036(5)
_cell_angle_gamma                106.286(6)
_cell_volume                     1835.94
loop_
_atom_site_label
_atom_site_type_symbol
_atom_site_fract_x
_atom_site_fract_y
_atom_site_fract_z
Eu1 Eu 0.67360(3) 0.51882(3) 0.54578(2)
O1 O 0.8307(4) 0.5914(4) 0.7086(3)
O2 O 0.7371(4) 0.4030(4) 0.6612(3)
O3 O 0.6948(3) 0.7245(3) 0.5810(3)
O4 O 0.5073(3) 0.6314(3) 0.5128(3)
O5 O 0.5764(3) 0.5373(4) 0.6853(3)
O6 O 0.3789(3) 0.4755(4) 0.6332(3)
O7 O 0.8574(4) 0.6161(4) 0.5000(3)
O8 O 0.7282(4) 0.3652(4) 0.4408(3)
C1 C 0.8092(5) 0.4906(6) 0.7243(5)
C2 C 1.0103(5) 0.5568(5) 0.9934(5)
C3 C 0.9464(5) 0.5700(6) 0.8988(5)
H1 H 0.9567 0.6445 0.8892
C4 C 0.8736(5) 0.4785(6) 0.8257(5)
C5 C 0.8543(6) 0.3663(6) 0.8427(5)
H2 H 0.8017 0.3014 0.7924
C6 C 1.0877(7) 0.6482(7) 1.0674(5)
H3 H 1.1023 0.7228 1.0573
C7 C 0.5915(5) 0.7227(5) 0.5440(4)
C8 C 0.4547(5) 0.9487(5) 0.4782(5)
C9 C 0.4691(5) 0.8404(5) 0.4867(5)
H4 H 0.4071 0.7709 0.4570
C10 C 0.5745(5) 0.8390(5) 0.5388(5)
C11 C 0.6684(6) 0.9444(5) 0.5843(5)
H5 H 0.7395 0.9428 0.6211
C12 C 0.3442(5) 0.9523(5) 0.4253(5)
H6 H 0.2809 0.8836 0.3974
C13 C 0.4749(5) 0.5041(5) 0.6993(4)
C14 C 0.5561(5) 0.5132(6) 0.9875(4)
C15 C 0.5634(5) 0.5183(6) 0.8843(4)
H7 H 0.6363 0.5343 0.8664
C16 C 0.4629(5) 0.4996(6) 0.8104(4)
C17 C 0.3540(5) 0.4799(6) 0.8376(5)
H8 H 0.2870 0.4716 0.7883
C18 C 0.6543(5) 0.5271(6) 1.0651(4)
H9 H 0.7280 0.5417 1.0487
C19 C 1.0468(7) 0.6884(8) 0.4069(6)
N1 N 1.0164(6) 0.7495(6) 0.5023(6)
C20 C 0.9258(7) 0.7101(8) 0.5467(8)
C21 C 1.0985(15) 0.8669(10) 0.5667(15)
N3 N 0.7562(3) 0.3015(6) 0.2806(4)
C24 C 0.6903(7) 0.3221(15) 0.3495(5)
C25 C 0.7136(18) 0.2635(19) 0.1633(5)
C26 C 0.8779(8) 0.3877(14) 0.2979(19)
C2A C 0.9897(5) 0.4432(5) 1.0066(5)
C3A C 1.0536(5) 0.4300(6) 1.1012(5)
H1A H 1.0433 0.3555 1.1108
C4A C 1.1264(5) 0.5215(6) 1.1743(5)
C1A C 1.1908(5) 0.5094(6) 1.2757(5)
O1A O 1.1693(4) 0.4086(4) 1.2914(3)
O2A O 1.2629(4) 0.5970(4) 1.3388(3)
C5A C 1.1457(6) 0.6337(6) 1.1573(5)
H2A H 1.1983 0.6986 1.2076
C6A C 0.9123(7) 0.3518(7) 0.9326(5)
H3A H 0.8977 0.2772 0.9427
C8A C 0.5453(5) 1.0513(5) 0.5218(5)
C9A C 0.5309(5) 1.1596(5) 0.5133(5)
H4A H 0.5929 1.2291 0.5430
C10A C 0.4255(5) 1.1610(5) 0.4612(5)
C7A C 0.4085(5) 1.2773(5) 0.4560(4)
O3A O 0.3052(3) 1.2755(3) 0.4190(3)
O4A O 0.4927(3) 1.3686(3) 0.4872(3)
C11A C 0.3316(6) 1.0556(5) 0.4157(5)
H5A H 0.2605 1.0572 0.3789
C12A C 0.6558(5) 1.0477(5) 0.5747(5)
H6A H 0.7191 1.1164 0.6026
C14A C 0.4439(5) 0.4868(6) 1.0125(4)
C15A C 0.4366(5) 0.4817(6) 1.1157(4)
H7A H 0.3637 0.4657 1.1336
C16A C 0.5371(5) 0.5004(6) 1.1896(4)
C13A C 0.5251(5) 0.4959(5) 1.3007(4)
O5A O 0.4236(3) 0.4627(4) 1.3147(3)
O6A O 0.6211(3) 0.5245(4) 1.3668(3)
C17A C 0.6460(5) 0.5201(6) 1.1624(5)
H8A H 0.7130 0.5284 1.2117
C18A C 0.3457(5) 0.4729(6) 0.9349(4)
H9A H 0.2720 0.4583 0.9513
Eu1A Eu 1.32640(3) 0.48118(3) 1.45422(2)
O7A O 1.1426(4) 0.3839(4) 1.5000(3)
C19A C 0.9532(7) 0.3116(8) 1.5931(6)
N1A N 0.9836(6) 0.2505(6) 1.4977(6)
C20A C 1.0742(7) 0.2899(8) 1.4533(8)
C21A C 0.9015(15) 0.1331(10) 1.4333(15)
O8A O 1.2718(4) 0.6348(4) 1.5592(3)
N3A N 1.2438(3) 0.6985(6) 1.7194(4)
C24A C 1.3097(7) 0.6779(15) 1.6505(5)
C25A C 1.2864(18) 0.7365(19) 1.8367(5)
C26A C 1.1221(8) 0.6123(14) 1.7021(19)
O4A_2 O 0.4927(3) 0.3686(3) 0.4872(3)
O6A_2 O 0.6211(3) 0.5245(4) 0.3668(3)
Eu1A_2 Eu 0.32640(3) 0.48118(3) 0.45422(2)
Eu1A_3 Eu 0.32640(3) 1.48118(3) 0.45422(2)
Eu1_2 Eu 0.67360(3) 1.51882(3) 0.54578(2)
Eu1A_4 Eu 0.32640(3) 0.48118(3) 1.45422(2)
Eu1_3 Eu 0.67360(3) 0.51882(3) 1.54578(2)
O3A_2 O 1.3052(3) 0.2755(3) 1.4190(3)
O4_2 O 1.5073(3) 0.6314(3) 1.5128(3)
O4A_3 O 1.4927(3) 0.3686(3) 1.4872(3)
O5A_2 O 1.4236(3) 0.4627(4) 1.3147(3)
O6_2 O 1.3789(3) 0.4755(4) 1.6332(3)
O9 O 0.5545(18) 0.8441(19) 0.2134(17)
O11 O 0.196(3) 0.073(3) 0.132(2)
loop_
_geom_bond_atom_site_label_1
_geom_bond_atom_site_label_2
_geom_bond_site_symmetry_1
_geom_bond_site_symmetry_2
Eu1 O1 1_555 1_555
O1 C1 1_555 1_555
O2 Eu1 1_555 1_555
O3 Eu1 1_555 1_555
O4 Eu1 1_555 1_555
O5 Eu1 1_555 1_555
O6 C13 1_555 1_555
O7 Eu1 1_555 1_555
O8 Eu1 1_555 1_555
C1 O2 1_555 1_555
C2 C3 1_555 1_555
C3 H1 1_555 1_555
C4 C1 1_555 1_555
C5 C4 1_555 1_555
H2 C5 1_555 1_555
C6 C2 1_555 1_555
H3 C6 1_555 1_555
C7 O3 1_555 1_555
C8 C9 1_555 1_555
C9 H4 1_555 1_555
C10 C7 1_555 1_555
C11 C10 1_555 1_555
H5 C11 1_555 1_555
C12 C8 1_555 1_555
H6 C12 1_555 1_555
C13 O5 1_555 1_555
C14 C15 1_555 1_555
C15 H7 1_555 1_555
C16 C13 1_555 1_555
C17 C16 1_555 1_555
H8 C17 1_555 1_555
C18 C14 1_555 1_555
H9 C18 1_555 1_555
C19 N1 1_555 1_555
N1 C20 1_555 1_555
C20 O7 1_555 1_555
C21 N1 1_555 1_555
N3 C24 1_555 1_555
C24 O8 1_555 1_555
C25 N3 1_555 1_555
C26 N3 1_555 1_555
C2A C2 1_555 1_555
C3A C2A 1_555 1_555
H1A C3A 1_555 1_555
C4A C3A 1_555 1_555
C1A C4A 1_555 1_555
O1A C1A 1_555 1_555
O2A C1A 1_555 1_555
C5A C6 1_555 1_555
H2A C5A 1_555 1_555
C6A C5 1_555 1_555
H3A C6A 1_555 1_555
C8A C8 1_555 1_555
C9A C8A 1_555 1_555
H4A C9A 1_555 1_555
C10A C9A 1_555 1_555
C7A C10A 1_555 1_555
O3A C7A 1_555 1_555
O4A C7A 1_555 1_555
C11A C12 1_555 1_555
H5A C11A 1_555 1_555
C12A C11 1_555 1_555
H6A C12A 1_555 1_555
C14A C14 1_555 1_555
C15A C14A 1_555 1_555
H7A C15A 1_555 1_555
C16A C15A 1_555 1_555
C13A C16A 1_555 1_555
O5A C13A 1_555 1_555
O6A C13A 1_555 1_555
C17A C18 1_555 1_555
H8A C17A 1_555 1_555
C18A C17 1_555 1_555
H9A C18A 1_555 1_555
Eu1A O1A 1_555 1_555
O7A Eu1A 1_555 1_555
C19A N1A 1_555 1_555
N1A C20A 1_555 1_555
C20A O7A 1_555 1_555
C21A N1A 1_555 1_555
O8A Eu1A 1_555 1_555
N3A C24A 1_555 1_555
C24A O8A 1_555 1_555
C25A N3A 1_555 1_555
C26A N3A 1_555 1_555
O4A_2 Eu1 1_555 1_555
O6A_2 Eu1 1_555 1_555
Eu1A_2 O4 1_555 1_555
Eu1A_3 O3A 1_555 1_555
Eu1_2 O4A 1_555 1_555
Eu1A_4 O5A 1_555 1_555
Eu1_3 O6A 1_555 1_555
O3A_2 Eu1A 1_555 1_555
O4_2 Eu1A 1_555 1_555
O4A_3 Eu1A 1_555 1_555
O5A_2 Eu1A 1_555 1_555
O6_2 Eu1A 1_555 1_555
O4 C7 1_555 1_555
O6 Eu1A_2 1_555 1_555
C3 C4 1_555 1_555
C9 C10 1_555 1_555
C15 C16 1_555 1_555
C2A C6A 1_555 1_555
C4A C5A 1_555 1_555
O2A Eu1A 1_555 1_555
C8A C12A 1_555 1_555
C10A C11A 1_555 1_555
O4A Eu1A_3 1_555 1_555
C14A C18A 1_555 1_555
C16A C17A 1_555 1_555
O4A_2 Eu1A_2 1_555 1_555

#END
