
#######################################################################
#
#                 Cambridge Crystallographic Data Centre
#                                CCDC 
#
#######################################################################
#
# If this CIF has been generated from an entry in the Cambridge 
# Structural Database, then it will include bibliographic, chemical, 
# crystal, experimental, refinement or atomic coordinate data resulting 
# from the CCDC's data processing and validation procedures.
#
#######################################################################

data_LUCDES
_chemical_formula_moiety         '(C48 H50 N4 O18 Tb2)n'
_symmetry_cell_setting           triclinic
_symmetry_space_group_name_H-M   'P -1'
_symmetry_Int_Tables_number      2
_space_group_name_Hall           '-P 1'
loop_
_symmetry_equiv_pos_site_id
_symmetry_equiv_pos_as_xyz
1 x,y,z
2 -x,-y,-z
_cell_length_a                   12.1323(15)
_cell_length_b                   12.3676(15)
_cell_length_c                   13.3757(16)
_cell_angle_alpha                101.748(2)
_cell_angle_beta                 99.025(2)
_cell_angle_gamma                105.984(2)
_cell_volume                     1840
loop_
_atom_site_label
_atom_site_type_symbol
_atom_site_fract_x
_atom_site_fract_y
_atom_site_fract_z
Tb1 Tb 0.673544(16) 0.518787(16) 0.545675(13)
O1 O 0.8283(3) 0.5913(4) 0.7086(3)
O2 O 0.7373(4) 0.4045(3) 0.6587(3)
O3 O 0.6916(3) 0.7214(3) 0.5786(3)
O4 O 0.5029(3) 0.6307(3) 0.5109(3)
O5 O 0.5768(3) 0.5369(3) 0.6827(2)
O6 O 0.3802(3) 0.4748(3) 0.6314(2)
O7 O 0.8553(3) 0.6150(3) 0.4996(3)
O8 O 0.7285(4) 0.3664(4) 0.4410(3)
C1 C 0.8085(5) 0.4920(5) 0.7221(4)
C2 C 1.0105(5) 0.5567(5) 0.9930(5)
C3 C 0.9462(5) 0.5694(5) 0.9003(4)
H1 H 0.9555 0.6436 0.8909
C4 C 0.8713(5) 0.4752(5) 0.8247(4)
C5 C 0.8536(6) 0.3649(5) 0.8400(5)
H2 H 0.8027 0.3010 0.7877
C6 C 1.0913(7) 0.6529(6) 1.0706(6)
H3 H 1.1069 0.7276 1.0609
C7 C 0.5907(4) 0.7217(4) 0.5438(4)
C8 C 0.4510(5) 0.9481(4) 0.4789(4)
C9 C 0.4670(5) 0.8404(4) 0.4879(4)
H4 H 0.4045 0.7715 0.4603
C10 C 0.5739(5) 0.8374(4) 0.5371(4)
C11 C 0.6696(5) 0.9415(4) 0.5819(5)
H5 H 0.7416 0.9389 0.6155
C12 C 0.3448(5) 0.9548(5) 0.4245(6)
H6 H 0.2830 0.8865 0.3922
C13 C 0.4749(4) 0.5041(4) 0.6986(3)
C14 C 0.5557(4) 0.5134(5) 0.9870(4)
C15 C 0.5620(5) 0.5164(5) 0.8834(4)
H7 H 0.6348 0.5299 0.8657
C16 C 0.4652(4) 0.5003(5) 0.8085(3)
C17 C 0.3533(5) 0.4753(5) 0.8347(4)
H8 H 0.2859 0.4629 0.7841
C18 C 0.6549(5) 0.5304(6) 1.0664(4)
H9 H 0.7286 0.5461 1.0504
C19 C 1.0420(6) 0.6881(7) 0.4083(5)
N1 N 1.0165(5) 0.7530(4) 0.5038(5)
C20 C 0.9275(6) 0.7090(6) 0.5474(6)
C21 C 1.0834(17) 0.8791(6) 0.548(2)
N3 N 0.7553(3) 0.2999(5) 0.2740(3)
C24 C 0.6942(6) 0.3219(13) 0.3468(4)
C25 C 0.7398(19) 0.260(2) 0.1584(4)
C26 C 0.8757(6) 0.3860(11) 0.297(2)
C2A C 0.9895(5) 0.4433(5) 1.0070(5)
C3A C 1.0538(5) 0.4306(5) 1.0997(4)
H1A H 1.0445 0.3564 1.1091
C4A C 1.1287(5) 0.5248(5) 1.1753(4)
C1A C 1.1915(5) 0.5080(5) 1.2779(4)
O1A O 1.1717(3) 0.4087(4) 1.2914(3)
O2A O 1.2627(4) 0.5955(3) 1.3413(3)
C5A C 1.1464(6) 0.6351(5) 1.1600(5)
H2A H 1.1973 0.6990 1.2123
C6A C 0.9087(7) 0.3471(6) 0.9294(6)
H3A H 0.8931 0.2724 0.9391
C8A C 0.5490(5) 1.0519(4) 0.5211(4)
C9A C 0.5330(5) 1.1596(4) 0.5121(4)
H4A H 0.5955 1.2285 0.5397
C10A C 0.4261(5) 1.1626(4) 0.4629(4)
C7A C 0.4093(4) 1.2783(4) 0.4562(4)
O3A O 0.3084(3) 1.2786(3) 0.4214(3)
O4A O 0.4971(3) 1.3693(3) 0.4891(3)
C11A C 0.3304(5) 1.0585(4) 0.4181(5)
H5A H 0.2584 1.0611 0.3845
C12A C 0.6552(5) 1.0452(5) 0.5755(6)
H6A H 0.7170 1.1135 0.6078
C14A C 0.4443(4) 0.4866(5) 1.0130(4)
C15A C 0.4380(5) 0.4836(5) 1.1166(4)
H7A H 0.3652 0.4701 1.1343
C16A C 0.5348(4) 0.4997(5) 1.1915(3)
C13A C 0.5251(4) 0.4959(4) 1.3014(3)
O5A O 0.4232(3) 0.4631(3) 1.3173(2)
O6A O 0.6198(3) 0.5252(3) 1.3686(2)
C17A C 0.6467(5) 0.5247(5) 1.1653(4)
H8A H 0.7141 0.5371 1.2159
C18A C 0.3451(5) 0.4696(6) 0.9336(4)
H9A H 0.2714 0.4539 0.9496
Tb1A Tb 1.326456(16) 0.481213(16) 1.454325(13)
O7A O 1.1447(3) 0.3850(3) 1.5004(3)
C19A C 0.9580(6) 0.3119(7) 1.5917(5)
N1A N 0.9835(5) 0.2470(4) 1.4962(5)
C20A C 1.0725(6) 0.2910(6) 1.4526(6)
C21A C 0.9166(17) 0.1209(6) 1.452(2)
O8A O 1.2715(4) 0.6336(4) 1.5590(3)
N3A N 1.2447(3) 0.7001(5) 1.7260(3)
C24A C 1.3058(6) 0.6781(13) 1.6532(4)
C25A C 1.2602(19) 0.740(2) 1.8416(4)
C26A C 1.1243(6) 0.6140(11) 1.703(2)
O4A_2 O 0.4971(3) 0.3693(3) 0.4891(3)
O6A_2 O 0.6198(3) 0.5252(3) 0.3686(2)
Tb1A_2 Tb 0.326456(16) 0.481213(16) 0.454325(13)
Tb1A_3 Tb 0.326456(16) 1.481213(16) 0.454325(13)
Tb1_2 Tb 0.673544(16) 1.518787(16) 0.545675(13)
Tb1A_4 Tb 0.326456(16) 0.481213(16) 1.454325(13)
Tb1_3 Tb 0.673544(16) 0.518787(16) 1.545675(13)
O3A_2 O 1.3084(3) 0.2786(3) 1.4214(3)
O4_2 O 1.5029(3) 0.6307(3) 1.5109(3)
O4A_3 O 1.4971(3) 0.3693(3) 1.4891(3)
O5A_2 O 1.4232(3) 0.4631(3) 1.3173(2)
O6_2 O 1.3802(3) 0.4748(3) 1.6314(2)
O9 O 0.819(4) 0.915(4) 0.848(4)
O10 O 0.525(2) 0.838(2) 0.197(2)
loop_
_geom_bond_atom_site_label_1
_geom_bond_atom_site_label_2
_geom_bond_site_symmetry_1
_geom_bond_site_symmetry_2
Tb1 O1 1_555 1_555
O1 C1 1_555 1_555
O2 Tb1 1_555 1_555
O3 Tb1 1_555 1_555
O4 Tb1 1_555 1_555
O5 Tb1 1_555 1_555
O6 C13 1_555 1_555
O7 Tb1 1_555 1_555
O8 Tb1 1_555 1_555
C1 O2 1_555 1_555
C2 C3 1_555 1_555
C3 H1 1_555 1_555
C4 C1 1_555 1_555
C5 C4 1_555 1_555
H2 C5 1_555 1_555
C6 C2 1_555 1_555
H3 C6 1_555 1_555
C7 O3 1_555 1_555
C8 C9 1_555 1_555
C9 H4 1_555 1_555
C10 C7 1_555 1_555
C11 C10 1_555 1_555
H5 C11 1_555 1_555
C12 C8 1_555 1_555
H6 C12 1_555 1_555
C13 O5 1_555 1_555
C14 C15 1_555 1_555
C15 H7 1_555 1_555
C16 C13 1_555 1_555
C17 C16 1_555 1_555
H8 C17 1_555 1_555
C18 C14 1_555 1_555
H9 C18 1_555 1_555
C19 N1 1_555 1_555
N1 C20 1_555 1_555
C20 O7 1_555 1_555
C21 N1 1_555 1_555
N3 C24 1_555 1_555
C24 O8 1_555 1_555
C25 N3 1_555 1_555
C26 N3 1_555 1_555
C2A C2 1_555 1_555
C3A C2A 1_555 1_555
H1A C3A 1_555 1_555
C4A C3A 1_555 1_555
C1A C4A 1_555 1_555
O1A C1A 1_555 1_555
O2A C1A 1_555 1_555
C5A C6 1_555 1_555
H2A C5A 1_555 1_555
C6A C5 1_555 1_555
H3A C6A 1_555 1_555
C8A C8 1_555 1_555
C9A C8A 1_555 1_555
H4A C9A 1_555 1_555
C10A C9A 1_555 1_555
C7A C10A 1_555 1_555
O3A C7A 1_555 1_555
O4A C7A 1_555 1_555
C11A C12 1_555 1_555
H5A C11A 1_555 1_555
C12A C11 1_555 1_555
H6A C12A 1_555 1_555
C14A C14 1_555 1_555
C15A C14A 1_555 1_555
H7A C15A 1_555 1_555
C16A C15A 1_555 1_555
C13A C16A 1_555 1_555
O5A C13A 1_555 1_555
O6A C13A 1_555 1_555
C17A C18 1_555 1_555
H8A C17A 1_555 1_555
C18A C17 1_555 1_555
H9A C18A 1_555 1_555
Tb1A O1A 1_555 1_555
O7A Tb1A 1_555 1_555
C19A N1A 1_555 1_555
N1A C20A 1_555 1_555
C20A O7A 1_555 1_555
C21A N1A 1_555 1_555
O8A Tb1A 1_555 1_555
N3A C24A 1_555 1_555
C24A O8A 1_555 1_555
C25A N3A 1_555 1_555
C26A N3A 1_555 1_555
O4A_2 Tb1 1_555 1_555
O6A_2 Tb1 1_555 1_555
Tb1A_2 O4 1_555 1_555
Tb1A_3 O3A 1_555 1_555
Tb1_2 O4A 1_555 1_555
Tb1A_4 O5A 1_555 1_555
Tb1_3 O6A 1_555 1_555
O3A_2 Tb1A 1_555 1_555
O4_2 Tb1A 1_555 1_555
O4A_3 Tb1A 1_555 1_555
O5A_2 Tb1A 1_555 1_555
O6_2 Tb1A 1_555 1_555
O4 C7 1_555 1_555
O6 Tb1A_2 1_555 1_555
C3 C4 1_555 1_555
C9 C10 1_555 1_555
C15 C16 1_555 1_555
C2A C6A 1_555 1_555
C4A C5A 1_555 1_555
O2A Tb1A 1_555 1_555
C8A C12A 1_555 1_555
C10A C11A 1_555 1_555
O4A Tb1A_3 1_555 1_555
C14A C18A 1_555 1_555
C16A C17A 1_555 1_555
O4A_2 Tb1A_2 1_555 1_555

#END
