
#######################################################################
#
#                 Cambridge Crystallographic Data Centre
#                                CCDC 
#
#######################################################################
#
# If this CIF has been generated from an entry in the Cambridge 
# Structural Database, then it will include bibliographic, chemical, 
# crystal, experimental, refinement or atomic coordinate data resulting 
# from the CCDC's data processing and validation procedures.
#
#######################################################################

data_RIFQUT
_chemical_formula_moiety         '(C6 H28 Co6 N2 O23 P4)n'
_symmetry_cell_setting           monoclinic
_symmetry_space_group_name_H-M   'C 2/c'
_symmetry_Int_Tables_number      15
_space_group_name_Hall           '-C 2yc'
loop_
_symmetry_equiv_pos_site_id
_symmetry_equiv_pos_as_xyz
1 x,y,z
2 1/2+x,1/2+y,z
3 -x,y,1/2-z
4 1/2-x,1/2+y,1/2-z
5 -x,-y,-z
6 1/2-x,1/2-y,-z
7 x,-y,1/2+z
8 1/2+x,1/2-y,1/2+z
_cell_length_a                   28.653(10)
_cell_length_b                   12.874(4)
_cell_length_c                   8.266(3)
_cell_angle_alpha                90
_cell_angle_beta                 97.257(7)
_cell_angle_gamma                90
_cell_volume                     3024.73
loop_
_atom_site_label
_atom_site_type_symbol
_atom_site_fract_x
_atom_site_fract_y
_atom_site_fract_z
Co1 Co 0.25258(4) 0.63537(8) 0.06661(12)
Co2 Co 0.25407(4) 0.63491(8) 0.45639(12)
Co3 Co 0.36391(5) 0.61777(9) 0.14381(15)
P1 P 0.31485(8) 0.80438(15) 0.2762(2)
P2 P 0.31374(8) 0.53996(15) -0.2052(3)
O1 O 0.28965(19) 0.7756(4) 0.4217(6)
O2 O 0.28340(19) 0.7798(4) 0.1176(6)
O3 O 0.3592(2) 0.7395(4) 0.2795(7)
O4 O 0.3274(2) 0.9186(4) 0.2813(7)
H1 H 0.3098 0.9499 0.3353
O5 O 0.31199(19) 0.5886(4) -0.0365(7)
O6 O 0.2836(2) 0.4412(4) -0.2217(6)
O7 O 0.2969(2) 0.6187(4) -0.3330(7)
O8 O 0.3644(2) 0.5102(4) -0.2236(8)
O9 O 0.20485(19) 0.6813(4) 0.2375(6)
O10 O 0.2133(2) 0.5021(4) -0.0084(6)
N1 N 0.4185(3) 0.6432(7) 0.0172(10)
H2 H 0.4137 0.6538 -0.0863
C1 C 0.4667(4) 0.6437(8) 0.1036(13)
H3 H 0.4887 0.6428 0.0221
C2 C 0.4754(4) 0.7421(8) 0.2050(14)
H4 H 0.4528 0.7464 0.2826
H5 H 0.4712 0.8024 0.1342
C3 C 0.4751(4) 0.5460(8) 0.2088(16)
H6 H 0.4695 0.4846 0.1411
H7 H 0.4534 0.5448 0.2901
Co1E Co 0.24742(4) 0.86463(8) -0.06661(12)
Co1F Co 0.25258(4) 0.36463(8) -0.43339(12)
Co1F_2 Co 0.25258(4) 0.36463(8) 0.56661(12)
Co2E Co 0.24593(4) 0.86509(8) -0.45639(12)
Co2E_2 Co 0.24593(4) 0.86509(8) 0.54361(12)
Co2F Co 0.25407(4) 0.36509(8) -0.04361(12)
Co2_2 Co 0.25407(4) 0.63491(8) -0.54361(12)
Co3E Co 0.13609(5) 0.88223(9) -0.14381(15)
Co3F Co 0.36391(5) 0.38223(9) -0.35619(15)
Co3B Co 0.63609(5) 0.61777(9) 0.35619(15)
Co3F_2 Co 0.36391(5) 0.38223(9) 0.64381(15)
P1E P 0.18515(8) 0.69562(15) -0.2762(2)
P2F P 0.31374(8) 0.46004(15) 0.2948(3)
O1E O 0.21035(19) 0.7244(4) -0.4217(6)
O1E_2 O 0.21035(19) 0.7244(4) 0.5783(6)
O1_2 O 0.28965(19) 0.7756(4) -0.5783(6)
O2E O 0.21660(19) 0.7202(4) -0.1176(6)
O3E O 0.1408(2) 0.7605(4) -0.2795(7)
O4E O 0.1726(2) 0.5814(4) -0.2813(7)
H1E H 0.1902 0.5501 -0.3353
O5F O 0.31199(19) 0.4114(4) 0.4635(7)
O5E O 0.18801(19) 0.9114(4) 0.0365(7)
O6F O 0.2836(2) 0.5588(4) 0.2783(6)
O6C O 0.2164(2) 0.9412(4) -0.2783(6)
O7F O 0.2969(2) 0.3813(4) 0.1670(7)
O7_2 O 0.2969(2) 0.6187(4) 0.6670(7)
O7E O 0.2031(2) 0.8813(4) -0.6670(7)
O8F O 0.3644(2) 0.4898(4) 0.2764(8)
O8C O 0.1356(2) 1.0102(4) -0.2764(8)
O9E O 0.29515(19) 0.8187(4) -0.2375(6)
O10F O 0.2133(2) 0.4979(4) 0.4916(6)
O10E O 0.2867(2) 0.9979(4) 0.0084(6)
O10C O 0.2867(2) 1.0021(4) -0.4916(6)
N1B N 0.5815(3) 0.6432(7) 0.4828(10)
N1E N 0.0815(3) 0.8568(7) -0.0172(10)
H2B H 0.5863 0.6538 0.5863
H2E H 0.0863 0.8462 0.0863
C1B C 0.5333(4) 0.6437(8) 0.3964(13)
H3B H 0.5113 0.6428 0.4779
C2B C 0.5246(4) 0.7421(8) 0.2950(14)
H4B H 0.5472 0.7464 0.2174
H5B H 0.5288 0.8024 0.3658
C3B C 0.5249(4) 0.5460(8) 0.2912(16)
H6B H 0.5305 0.4846 0.3589
H7B H 0.5466 0.5448 0.2099
O11 O 0.4041(3) 0.3239(7) 1.0808(9)
O12 O 0.1125(4) 0.6556(12) 0.1946(15)
O13 O 0.0814(8) 0.4730(14) 0.172(4)
loop_
_geom_bond_atom_site_label_1
_geom_bond_atom_site_label_2
_geom_bond_site_symmetry_1
_geom_bond_site_symmetry_2
Co1 O2 1_555 1_555
Co2 O1 1_555 1_555
Co3 O3 1_555 1_555
P1 O1 1_555 1_555
P2 O5 1_555 1_555
O1 Co2E_2 1_555 1_555
O2 P1 1_555 1_555
O3 P1 1_555 1_555
O4 P1 1_555 1_555
H1 O4 1_555 1_555
O5 Co1 1_555 1_555
O6 P2 1_555 1_555
O7 P2 1_555 1_555
O8 P2 1_555 1_555
O9 Co1 1_555 1_555
O10 Co1 1_555 1_555
N1 Co3 1_555 1_555
H2 N1 1_555 1_555
C1 N1 1_555 1_555
H3 C1 1_555 1_555
C2 C1 1_555 1_555
H4 C2 1_555 1_555
H5 C2 1_555 1_555
C3 C1 1_555 1_555
H6 C3 1_555 1_555
H7 C3 1_555 1_555
Co1E O2 1_555 1_555
Co1F O6 1_555 1_555
Co1F_2 O5F 1_555 1_555
Co2E O1E 1_555 1_555
Co2E_2 O1E_2 1_555 1_555
Co2F O6 1_555 1_555
Co2_2 O7 1_555 1_555
Co3E O3E 1_555 1_555
Co3F O8 1_555 1_555
Co3B N1B 1_555 1_555
Co3F_2 O5F 1_555 1_555
P1E O1E 1_555 1_555
P2F O5F 1_555 1_555
O1E Co2_2 1_555 1_555
O1E_2 Co2 1_555 1_555
O1_2 Co2E 1_555 1_555
O2E Co1 1_555 1_555
O3E P1E 1_555 1_555
O4E P1E 1_555 1_555
H1E O4E 1_555 1_555
O5E Co1E 1_555 1_555
O6F Co1 1_555 1_555
O6C Co1E 1_555 1_555
O7F Co2F 1_555 1_555
O7_2 Co2 1_555 1_555
O7E Co2E 1_555 1_555
O8F Co3 1_555 1_555
O8C Co3E 1_555 1_555
O9E Co1E 1_555 1_555
O10F Co2 1_555 1_555
O10E Co1E 1_555 1_555
O10C Co2E 1_555 1_555
N1B H2B 1_555 1_555
N1E Co3E 1_555 1_555
H2E N1E 1_555 1_555
C1B N1B 1_555 1_555
H3B C1B 1_555 1_555
C2B C2 1_555 1_555
H4B C2B 1_555 1_555
H5B C2B 1_555 1_555
C3B C3 1_555 1_555
H6B C3B 1_555 1_555
H7B C3B 1_555 1_555
Co2 O9 1_555 1_555
Co2 O6F 1_555 1_555
Co3 O5 1_555 1_555
O10 Co2F 1_555 1_555
Co1E O2E 1_555 1_555
Co1F_2 O10F 1_555 1_555
Co2E O6C 1_555 1_555
Co2E O9E 1_555 1_555
Co2_2 O1_2 1_555 1_555
Co3E O5E 1_555 1_555
P1E O2E 1_555 1_555
P2F O6F 1_555 1_555
P2F O7F 1_555 1_555
P2F O8F 1_555 1_555
C1B C2B 1_555 1_555
C1B C3B 1_555 1_555

#END
