
#######################################################################
#
#                 Cambridge Crystallographic Data Centre
#                                CCDC 
#
#######################################################################
#
# If this CIF has been generated from an entry in the Cambridge 
# Structural Database, then it will include bibliographic, chemical, 
# crystal, experimental, refinement or atomic coordinate data resulting 
# from the CCDC's data processing and validation procedures.
#
#######################################################################

data_ARAHIM02
_chemical_formula_moiety         'C8 H10 F4 N6 Nb2 Ni3 O4'
_symmetry_cell_setting           tetragonal
_symmetry_space_group_name_H-M   'I 4/m c m'
_symmetry_Int_Tables_number      140
_space_group_name_Hall           '-I 4 2c'
loop_
_symmetry_equiv_pos_site_id
_symmetry_equiv_pos_as_xyz
1 x,y,z
2 -y,x,z
3 -x,-y,z
4 y,-x,z
5 x,-y,1/2-z
6 -x,y,1/2-z
7 y,x,1/2-z
8 -y,-x,1/2-z
9 1/2+x,1/2+y,1/2+z
10 1/2-y,1/2+x,1/2+z
11 1/2-x,1/2-y,1/2+z
12 1/2+y,1/2-x,1/2+z
13 1/2+x,1/2-y,-z
14 1/2-x,1/2+y,-z
15 1/2+y,1/2+x,-z
16 1/2-y,1/2-x,-z
17 -x,-y,-z
18 y,-x,-z
19 x,y,-z
20 -y,x,-z
21 -x,y,1/2+z
22 x,-y,1/2+z
23 -y,-x,1/2+z
24 y,x,1/2+z
25 1/2-x,1/2-y,1/2-z
26 1/2+y,1/2-x,1/2-z
27 1/2+x,1/2+y,1/2-z
28 1/2-y,1/2+x,1/2-z
29 1/2-x,1/2+y,z
30 1/2+x,1/2-y,z
31 1/2-y,1/2-x,z
32 1/2+y,1/2+x,z
_cell_length_a                   9.943(4)
_cell_length_b                   9.943(4)
_cell_length_c                   15.764(6)
_cell_angle_alpha                90
_cell_angle_beta                 90
_cell_angle_gamma                90
_cell_volume                     1558.48
loop_
_atom_site_label
_atom_site_type_symbol
_atom_site_fract_x
_atom_site_fract_y
_atom_site_fract_z
O2 O 0.4171(17) -0.0829(17) 0.4233(14)
Nb1 Nb 0.0000 0.0000 0.0000
Ni1 Ni 0.0000 0.0000 0.2500
O1 O 0.0000 0.0000 0.1231(4)
F1 F 0.0080(7) 0.1908(4) 0.0000
N1 N 0.1514(3) 0.1514(3) 0.2500
C1 C 0.2421(4) 0.1601(5) 0.3120(3)
H1 H 0.2392 0.0985 0.3564
C1F C 0.1601(5) 0.2421(4) 0.1880(3)
H1F H 0.0985 0.2392 0.1436
N1X N 0.3486(3) 0.3486(3) 0.2500
C1X C 0.2579(4) 0.3399(5) 0.1880(3)
H1X H 0.2608 0.4015 0.1436
C1DA C 0.3399(5) 0.2579(4) 0.3120(3)
H1DA H 0.4015 0.2608 0.3564
F1A F -0.1908(4) 0.0080(7) 0.0000
N1A N -0.1514(3) 0.1514(3) 0.2500
C1A C -0.1601(5) 0.2421(4) 0.3120(3)
H1A H -0.0985 0.2392 0.3564
C1E C -0.2421(4) 0.1601(5) 0.1880(3)
H1E H -0.2392 0.0985 0.1436
N1Y N -0.3486(3) 0.3486(3) 0.2500
C1Y C -0.3399(5) 0.2579(4) 0.1880(3)
H1Y H -0.4015 0.2608 0.1436
C1CA C -0.2579(4) 0.3399(5) 0.3120(3)
H1CA H -0.2608 0.4015 0.3564
F1B F -0.0080(7) -0.1908(4) 0.0000
F1C F 0.1908(4) -0.0080(7) 0.0000
O1D O 0.0000 0.0000 0.3769(4)
Nb1D Nb 0.0000 0.0000 0.5000
Ni1X Ni -0.5000 0.5000 0.2500
Ni1X_2 Ni 0.5000 0.5000 0.2500
O1P O -0.0000 -0.0000 -0.1231(4)
N1B N -0.1514(3) -0.1514(3) 0.2500
N1C N 0.1514(3) -0.1514(3) 0.2500
loop_
_geom_bond_atom_site_label_1
_geom_bond_atom_site_label_2
_geom_bond_site_symmetry_1
_geom_bond_site_symmetry_2
Nb1 O1 1_555 1_555
Ni1 O1 1_555 1_555
F1 Nb1 1_555 1_555
N1 Ni1 1_555 1_555
C1 N1 1_555 1_555
H1 C1 1_555 1_555
C1F N1 1_555 1_555
H1F C1F 1_555 1_555
N1X C1X 1_555 1_555
C1X C1F 1_555 1_555
H1X C1X 1_555 1_555
C1DA C1 1_555 1_555
H1DA C1DA 1_555 1_555
F1A Nb1 1_555 1_555
N1A Ni1 1_555 1_555
C1A N1A 1_555 1_555
H1A C1A 1_555 1_555
C1E N1A 1_555 1_555
H1E C1E 1_555 1_555
N1Y C1Y 1_555 1_555
C1Y C1E 1_555 1_555
H1Y C1Y 1_555 1_555
C1CA C1A 1_555 1_555
H1CA C1CA 1_555 1_555
F1B Nb1 1_555 1_555
F1C Nb1 1_555 1_555
O1D Ni1 1_555 1_555
Nb1D O1D 1_555 1_555
Ni1X N1Y 1_555 1_555
Ni1X_2 N1X 1_555 1_555
O1P Nb1 1_555 1_555
N1B Ni1 1_555 1_555
N1C Ni1 1_555 1_555
N1X C1DA 1_555 1_555
N1Y C1CA 1_555 1_555

#END
