
#######################################################################
#
#                 Cambridge Crystallographic Data Centre
#                                CCDC 
#
#######################################################################
#
# If this CIF has been generated from an entry in the Cambridge 
# Structural Database, then it will include bibliographic, chemical, 
# crystal, experimental, refinement or atomic coordinate data resulting 
# from the CCDC's data processing and validation procedures.
#
#######################################################################

data_AVIMOI
_chemical_formula_moiety         '(C30 H34 O18 Zn2)n'
_symmetry_cell_setting           monoclinic
_symmetry_space_group_name_H-M   'P 21/c'
_symmetry_Int_Tables_number      14
_space_group_name_Hall           '-P 2ybc'
loop_
_symmetry_equiv_pos_site_id
_symmetry_equiv_pos_as_xyz
1 x,y,z
2 -x,1/2+y,1/2-z
3 -x,-y,-z
4 x,1/2-y,1/2+z
_cell_length_a                   9.3243(9)
_cell_length_b                   26.939(3)
_cell_length_c                   14.4535(14)
_cell_angle_alpha                90
_cell_angle_beta                 93.0680(10)
_cell_angle_gamma                90
_cell_volume                     3625.33
loop_
_atom_site_label
_atom_site_type_symbol
_atom_site_fract_x
_atom_site_fract_y
_atom_site_fract_z
O1 O 0.6179(5) 0.7743(2) 0.7853(4)
H1 H 0.6702 0.7978 0.8071
H2 H 0.5585 0.7856 0.7438
C1 C 1.0556(4) 0.68450(12) 0.6451(2)
C2 C 0.9283(4) 0.66181(13) 0.6189(2)
H3 H 0.8959 0.6351 0.6528
C3 C 0.8480(4) 0.67861(13) 0.5417(2)
C4 C 0.8937(4) 0.71928(12) 0.4906(2)
H4 H 0.8392 0.7308 0.4393
C5 C 1.0230(4) 0.74198(12) 0.5188(2)
C6 C 1.1050(4) 0.72471(12) 0.5947(2)
H5 H 1.1922 0.7397 0.6120
C7 C 1.1331(4) 0.66849(13) 0.7319(2)
C8 C 1.0764(4) 0.78636(12) 0.4674(2)
C9 C 0.6719(4) 0.61753(14) 0.5643(3)
H6 H 0.6633 0.6282 0.6279
H7 H 0.7402 0.5904 0.5637
C10 C 0.5265(4) 0.60093(13) 0.5224(2)
C11 C 0.3984(5) 0.61693(15) 0.5559(3)
H8 H 0.3969 0.6388 0.6056
C12 C 0.2718(4) 0.59929(15) 0.5127(2)
H9 H 0.1861 0.6106 0.5350
C13 C 0.2623(4) 0.56611(13) 0.4389(2)
C14 C 0.3889(5) 0.55005(15) 0.4027(3)
H10 H 0.3929 0.5324 0.3476
C15 C 0.5074(5) 0.56319(16) 0.4574(3)
H11 H 0.5882 0.5437 0.4498
C16 C 0.1254(4) 0.54543(13) 0.3941(3)
C17 C -0.0012(4) 0.56371(15) 0.4267(3)
H12 H -0.0047 0.5841 0.4784
C18 C -0.1210(5) 0.54857(15) 0.3749(3)
H13 H -0.2040 0.5669 0.3828
C19 C -0.1346(4) 0.50899(13) 0.3113(2)
C20 C -0.0037(4) 0.49197(15) 0.2829(3)
H14 H -0.0011 0.4687 0.2356
C21 C 0.1238(4) 0.50962(13) 0.3251(2)
H15 H 0.2106 0.4970 0.3065
C22 C -0.2719(4) 0.48898(13) 0.2695(2)
H16 H -0.2562 0.4573 0.2400
H17 H -0.3413 0.4845 0.3165
C23 C -0.4528(4) 0.51671(12) 0.1572(2)
C24 C -0.5003(4) 0.55366(13) 0.0947(2)
H18 H -0.4434 0.5813 0.0850
C25 C -0.6328(4) 0.54869(12) 0.0474(2)
C26 C -0.7193(4) 0.50855(12) 0.0630(2)
H19 H -0.8091 0.5062 0.0320
C27 C -0.6734(4) 0.47123(12) 0.1250(2)
C28 C -0.5400(4) 0.47774(13) 0.1736(2)
H20 H -0.5107 0.4546 0.2185
C29 C -0.6866(4) 0.58810(13) -0.0178(2)
C30 C -0.7666(4) 0.42891(12) 0.1416(2)
O2 O 1.2286(3) 0.69671(9) 0.76713(16)
O3 O 1.0999(3) 0.62816(8) 0.76319(16)
O4 O 0.7181(3) 0.65724(9) 0.51001(16)
O5 O -0.3230(3) 0.52597(9) 0.20094(16)
O6 O -0.7331(3) 0.39478(9) 0.19870(16)
O7 O -0.8885(3) 0.42869(8) 0.09659(16)
O8 O -0.8158(2) 0.58584(9) -0.04050(16)
O9 O 1.2068(3) 0.79468(9) 0.47055(16)
O10 O 0.9783(3) 0.81395(9) 0.42796(16)
O11 O -0.6002(3) 0.62005(9) -0.04558(16)
O12 O 1.4906(3) 0.65580(9) 0.77956(16)
H21 H 1.4891 0.6246 0.7707
H22 H 1.5761 0.6665 0.7878
O13 O 1.4816(3) 0.73540(9) 0.91648(17)
H23 H 1.5260 0.7432 0.8687
H24 H 1.5446 0.7344 0.9612
Zn1 Zn 1.35235(4) 0.679037(15) 0.87819(3)
Zn2 Zn 1.03233(5) 0.620401(14) 0.88807(3)
O7B O 0.8885(3) 0.57131(8) 0.90341(16)
O8_2 O 1.1842(2) 0.58584(9) 0.95950(16)
O9C O 1.2068(3) 0.70532(9) 0.97055(16)
O10C O 0.9783(3) 0.68605(9) 0.92796(16)
O11_2 O 1.3998(3) 0.62005(9) 0.95442(16)
Zn1C Zn 1.35235(4) 0.820963(15) 0.37819(3)
Zn1_2 Zn -0.64765(4) 0.679037(15) -0.12181(3)
Zn2B Zn -1.03233(5) 0.379599(14) 0.11193(3)
Zn2_2 Zn -0.96767(5) 0.620401(14) -0.11193(3)
Zn2C Zn 1.03233(5) 0.879599(14) 0.38807(3)
O14 O 0.8621(7) 0.6906(2) 0.2245(4)
H25 H 0.8031 0.7144 0.2148
H26 H 0.9347 0.6950 0.1923
O15 O 0.9414(10) 0.6144(3) 0.1398(5)
H27 H 0.9132 0.6163 0.0830
H28 H 0.9061 0.5886 0.1636
O16 O 0.2868(9) 0.8266(3) 0.7562(5)
H29 H 0.3010 0.8536 0.7278
H30 H 0.2206 0.8307 0.7937
O17 O 0.7246(6) 0.71012(18) 0.7578(3)
H31 H 0.8021 0.7041 0.7315
H32 H 0.7400 0.7321 0.7993
O18 O 0.6808(6) 0.80058(18) 0.5726(4)
H33 H 0.6650 0.7939 0.6286
H34 H 0.7643 0.8130 0.5698
loop_
_geom_bond_atom_site_label_1
_geom_bond_atom_site_label_2
_geom_bond_site_symmetry_1
_geom_bond_site_symmetry_2
O1 H1 1_555 1_555
H2 O1 1_555 1_555
C1 C2 1_555 1_555
C2 H3 1_555 1_555
C3 C2 1_555 1_555
C4 C3 1_555 1_555
H4 C4 1_555 1_555
C5 C4 1_555 1_555
C6 C1 1_555 1_555
H5 C6 1_555 1_555
C7 C1 1_555 1_555
C8 C5 1_555 1_555
C9 H6 1_555 1_555
H7 C9 1_555 1_555
C10 C9 1_555 1_555
C11 C10 1_555 1_555
H8 C11 1_555 1_555
C12 C11 1_555 1_555
H9 C12 1_555 1_555
C13 C12 1_555 1_555
C14 C13 1_555 1_555
H10 C14 1_555 1_555
C15 C10 1_555 1_555
H11 C15 1_555 1_555
C16 C13 1_555 1_555
C17 C16 1_555 1_555
H12 C17 1_555 1_555
C18 C17 1_555 1_555
H13 C18 1_555 1_555
C19 C18 1_555 1_555
C20 C19 1_555 1_555
H14 C20 1_555 1_555
C21 C16 1_555 1_555
H15 C21 1_555 1_555
C22 C19 1_555 1_555
H16 C22 1_555 1_555
H17 C22 1_555 1_555
C23 C24 1_555 1_555
C24 H18 1_555 1_555
C25 C24 1_555 1_555
C26 C25 1_555 1_555
H19 C26 1_555 1_555
C27 C26 1_555 1_555
C28 C23 1_555 1_555
H20 C28 1_555 1_555
C29 C25 1_555 1_555
C30 C27 1_555 1_555
O2 C7 1_555 1_555
O3 C7 1_555 1_555
O4 C3 1_555 1_555
O5 C22 1_555 1_555
O6 C30 1_555 1_555
O7 C30 1_555 1_555
O8 C29 1_555 1_555
O9 C8 1_555 1_555
O10 C8 1_555 1_555
O11 C29 1_555 1_555
O12 H21 1_555 1_555
H22 O12 1_555 1_555
O13 H23 1_555 1_555
H24 O13 1_555 1_555
O14 H25 1_555 1_555
H26 O14 1_555 1_555
O15 H27 1_555 1_555
H28 O15 1_555 1_555
O16 H29 1_555 1_555
H30 O16 1_555 1_555
O17 H31 1_555 1_555
H32 O17 1_555 1_555
O18 H33 1_555 1_555
H34 O18 1_555 1_555
Zn1 O2 1_555 1_555
Zn2 O3 1_555 1_555
O7B Zn2 1_555 1_555
O8_2 Zn2 1_555 1_555
O9C Zn1 1_555 1_555
O10C Zn2 1_555 1_555
O11_2 Zn1 1_555 1_555
Zn1C O9 1_555 1_555
Zn1_2 O11 1_555 1_555
Zn2B O7 1_555 1_555
Zn2_2 O8 1_555 1_555
Zn2C O10 1_555 1_555
C5 C6 1_555 1_555
C9 O4 1_555 1_555
C14 C15 1_555 1_555
C20 C21 1_555 1_555
C23 O5 1_555 1_555
C27 C28 1_555 1_555
O12 Zn1 1_555 1_555
O13 Zn1 1_555 1_555

#END
