
#######################################################################
#
#                 Cambridge Crystallographic Data Centre
#                                CCDC 
#
#######################################################################
#
# If this CIF has been generated from an entry in the Cambridge 
# Structural Database, then it will include bibliographic, chemical, 
# crystal, experimental, refinement or atomic coordinate data resulting 
# from the CCDC's data processing and validation procedures.
#
#######################################################################

data_AVIMUO
_chemical_formula_moiety         '(C30 H32 Mn2 O17)n'
_symmetry_cell_setting           monoclinic
_symmetry_space_group_name_H-M   'P 21/c'
_symmetry_Int_Tables_number      14
_space_group_name_Hall           '-P 2ybc'
loop_
_symmetry_equiv_pos_site_id
_symmetry_equiv_pos_as_xyz
1 x,y,z
2 -x,1/2+y,1/2-z
3 -x,-y,-z
4 x,1/2-y,1/2+z
_cell_length_a                   8.6801(11)
_cell_length_b                   28.708(4)
_cell_length_c                   13.9279(18)
_cell_angle_alpha                90
_cell_angle_beta                 90.910(2)
_cell_angle_gamma                90
_cell_volume                     3470.23
loop_
_atom_site_label
_atom_site_type_symbol
_atom_site_fract_x
_atom_site_fract_y
_atom_site_fract_z
C1 C -0.1280(3) 0.81706(10) 0.3075(2)
C2 C 0.0061(4) 0.84146(11) 0.3310(2)
H1 H 0.0348 0.8676 0.2962
C3 C 0.0965(4) 0.82540(12) 0.4086(2)
C4 C 0.0521(3) 0.78719(9) 0.4609(2)
H2 H 0.1132 0.7771 0.5122
C5 C -0.0839(4) 0.76345(11) 0.4378(2)
C6 C -0.1735(4) 0.77881(11) 0.3611(2)
H3 H -0.2647 0.7634 0.3454
C7 C -0.2194(3) 0.83270(10) 0.22194(19)
C8 C -0.1171(4) 0.71990(13) 0.4916(3)
C9 C 0.2037(4) 0.89459(12) 0.4756(3)
H4 H 0.1181 0.8932 0.5195
H5 H 0.1756 0.9160 0.4244
C10 C 0.3395(4) 0.91317(12) 0.5276(2)
C11 C 0.3359(4) 0.94293(11) 0.6051(3)
H6 H 0.2405 0.9545 0.6228
C12 C 0.4618(4) 0.95671(12) 0.6579(3)
H7 H 0.4521 0.9743 0.7136
C13 C 0.6041(3) 0.94326(10) 0.6247(2)
C14 C 0.6152(4) 0.91544(12) 0.5440(3)
H8 H 0.7116 0.9069 0.5217
C15 C 0.4830(4) 0.90035(13) 0.4965(3)
H9 H 0.4913 0.8813 0.4429
C16 C 0.8659(4) 1.01498(12) 0.7762(3)
H10 H 0.8625 1.0429 0.8100
C17 C 0.7344(4) 0.99872(12) 0.7293(2)
H11 H 0.6429 1.0155 0.7324
C18 C 0.7394(4) 0.95709(11) 0.6773(3)
C19 C 0.8745(4) 0.93166(12) 0.6736(3)
H12 H 0.8800 0.9048 0.6366
C20 C 1.0024(4) 0.94715(12) 0.7266(3)
H13 H 1.0894 0.9283 0.7308
C21 C 1.0035(4) 0.98977(12) 0.7730(3)
C22 C 1.4229(4) 0.99567(12) 0.8375(2)
C23 C 1.4851(3) 1.04038(11) 0.8365(2)
H14 H 1.4311 1.0646 0.8070
C24 C 1.6288(4) 1.04891(11) 0.8797(2)
C25 C 1.7085(4) 1.01288(11) 0.9230(2)
H15 H 1.8046 1.0185 0.9510
C26 C 1.6465(4) 0.96819(12) 0.9251(2)
C27 C 1.5046(4) 0.95903(12) 0.8807(2)
H16 H 1.4648 0.9290 0.8799
C28 C 1.6907(3) 1.09584(10) 0.8786(2)
C29 C 1.7259(3) 0.92782(10) 0.9732(2)
C30 C 1.1377(4) 1.00663(13) 0.8219(3)
H17 H 1.1267 1.0004 0.8899
H18 H 1.1415 1.0402 0.8141
Mn1 Mn -0.02907(6) 0.873291(17) 0.05149(4)
Mn2 Mn -0.42118(6) 0.835099(17) 0.06226(4)
O1 O -0.1705(3) 0.86669(8) 0.17190(16)
O2 O -0.3424(2) 0.81166(8) 0.20103(16)
O3 O -0.2620(3) 0.71181(8) 0.48846(17)
O4 O -0.0241(3) 0.69984(8) 0.54448(17)
O5 O 0.2264(2) 0.84891(8) 0.43475(17)
O6 O 1.2854(3) 0.98723(8) 0.79144(16)
O7 O 1.6048(2) 1.13150(8) 0.87116(16)
O8 O 1.8376(2) 1.09880(8) 0.88140(17)
O9 O 1.8580(3) 0.93621(8) 1.00564(16)
O10 O 1.6512(2) 0.88983(8) 0.97742(16)
O11 O 0.0592(3) 0.89160(8) -0.09544(17)
H19 H -0.0168 0.8912 -0.1347
H20 H 0.1211 0.8703 -0.1125
O12 O -0.6009(2) 0.80072(8) -0.03218(17)
H21 H -0.5608 0.7772 -0.0593
H22 H -0.6282 0.8198 -0.0760
Mn1C Mn -0.02907(6) 0.626709(17) 0.55149(4)
Mn1B Mn 2.02907(6) 1.126709(17) 0.94851(4)
Mn1_2 Mn 1.97093(6) 0.873291(17) 1.05149(4)
Mn2C Mn -0.42118(6) 0.664901(17) 0.56226(4)
Mn2B Mn 1.42118(6) 1.164901(17) 0.93774(4)
Mn2_2 Mn 1.57882(6) 0.835099(17) 1.06226(4)
O3C O -0.2620(3) 0.78819(8) -0.01154(17)
O4C O -0.0241(3) 0.80016(8) 0.04448(17)
O7B O -0.6048(2) 0.86850(8) 0.12884(16)
O8B O 0.1624(2) 0.90120(8) 0.11860(17)
O9_2 O -0.1420(3) 0.93621(8) 0.00564(16)
O10_2 O -0.3488(2) 0.88983(8) -0.02258(16)
H23 H 0.8901 0.9819 0.3842
H24 H 0.8644 0.9693 0.4789
O13 O 0.9288(7) 0.9692(3) 0.4338(5)
O14 O 0.5963(9) 0.6731(2) 0.2349(6)
H25 H 0.6896 0.6746 0.2173
H26 H 0.5374 0.6819 0.1890
H27 H 0.0981 0.8486 0.7039
H28 H 0.0440 0.8082 0.7449
O15 O 0.0323(6) 0.83749(16) 0.7427(4)
H29 H 0.3333 0.7855 0.7178
H30 H 0.4807 0.7908 0.7564
O16 O 0.3896(5) 0.78158(16) 0.7676(4)
O17 O 0.4474(9) 0.7288(2) 0.8387(6)
H31 H 0.3681 0.7149 0.8595
H32 H 0.4968 0.7105 0.8024
loop_
_geom_bond_atom_site_label_1
_geom_bond_atom_site_label_2
_geom_bond_site_symmetry_1
_geom_bond_site_symmetry_2
C1 C2 1_555 1_555
C2 H1 1_555 1_555
C3 C2 1_555 1_555
C4 C3 1_555 1_555
H2 C4 1_555 1_555
C5 C4 1_555 1_555
C6 C1 1_555 1_555
H3 C6 1_555 1_555
C7 C1 1_555 1_555
C8 C5 1_555 1_555
C9 H4 1_555 1_555
H5 C9 1_555 1_555
C10 C9 1_555 1_555
C11 C10 1_555 1_555
H6 C11 1_555 1_555
C12 C11 1_555 1_555
H7 C12 1_555 1_555
C13 C12 1_555 1_555
C14 C13 1_555 1_555
H8 C14 1_555 1_555
C15 C10 1_555 1_555
H9 C15 1_555 1_555
C16 H10 1_555 1_555
C17 C16 1_555 1_555
H11 C17 1_555 1_555
C18 C13 1_555 1_555
C19 C18 1_555 1_555
H12 C19 1_555 1_555
C20 C19 1_555 1_555
H13 C20 1_555 1_555
C21 C16 1_555 1_555
C22 C23 1_555 1_555
C23 H14 1_555 1_555
C24 C23 1_555 1_555
C25 C24 1_555 1_555
H15 C25 1_555 1_555
C26 C25 1_555 1_555
C27 C22 1_555 1_555
H16 C27 1_555 1_555
C28 C24 1_555 1_555
C29 C26 1_555 1_555
C30 C21 1_555 1_555
H17 C30 1_555 1_555
H18 C30 1_555 1_555
Mn1 O1 1_555 1_555
Mn2 O2 1_555 1_555
O1 C7 1_555 1_555
O2 C7 1_555 1_555
O3 C8 1_555 1_555
O4 C8 1_555 1_555
O5 C3 1_555 1_555
O6 C22 1_555 1_555
O7 C28 1_555 1_555
O8 C28 1_555 1_555
O9 C29 1_555 1_555
O10 C29 1_555 1_555
O11 Mn1 1_555 1_555
H19 O11 1_555 1_555
H20 O11 1_555 1_555
O12 Mn2 1_555 1_555
H21 O12 1_555 1_555
H22 O12 1_555 1_555
H23 O13 1_555 1_555
H24 O13 1_555 1_555
O14 H25 1_555 1_555
H26 O14 1_555 1_555
H27 O15 1_555 1_555
H28 O15 1_555 1_555
H29 O16 1_555 1_555
H30 O16 1_555 1_555
O17 H31 1_555 1_555
H32 O17 1_555 1_555
Mn1C O4 1_555 1_555
Mn1B O8 1_555 1_555
Mn1_2 O9 1_555 1_555
Mn2C O3 1_555 1_555
Mn2B O7 1_555 1_555
Mn2_2 O10 1_555 1_555
O3C Mn2 1_555 1_555
O4C Mn1 1_555 1_555
O7B Mn2 1_555 1_555
O8B Mn1 1_555 1_555
O9_2 Mn1 1_555 1_555
O10_2 Mn2 1_555 1_555
C5 C6 1_555 1_555
C9 O5 1_555 1_555
C14 C15 1_555 1_555
C17 C18 1_555 1_555
C20 C21 1_555 1_555
C26 C27 1_555 1_555
C30 O6 1_555 1_555

#END
