
#######################################################################
#
#                 Cambridge Crystallographic Data Centre
#                                CCDC 
#
#######################################################################
#
# If this CIF has been generated from an entry in the Cambridge 
# Structural Database, then it will include bibliographic, chemical, 
# crystal, experimental, refinement or atomic coordinate data resulting 
# from the CCDC's data processing and validation procedures.
#
#######################################################################

data_DIVSUY
_chemical_formula_moiety         '(C18 H16 Eu1 N1 O8)n'
_symmetry_cell_setting           monoclinic
_symmetry_space_group_name_H-M   'C 2/c'
_symmetry_Int_Tables_number      15
_space_group_name_Hall           '-C 2yc'
loop_
_symmetry_equiv_pos_site_id
_symmetry_equiv_pos_as_xyz
1 x,y,z
2 -x,y,1/2-z
3 1/2+x,1/2+y,z
4 1/2-x,1/2+y,1/2-z
5 -x,-y,-z
6 x,-y,1/2+z
7 1/2-x,1/2-y,-z
8 1/2+x,1/2-y,1/2+z
_cell_length_a                   24.633(5)
_cell_length_b                   13.038(3)
_cell_length_c                   14.725(3)
_cell_angle_alpha                90
_cell_angle_beta                 96.69(3)
_cell_angle_gamma                90
_cell_volume                     4696.95
loop_
_atom_site_label
_atom_site_type_symbol
_atom_site_fract_x
_atom_site_fract_y
_atom_site_fract_z
_atom_site_U_iso_or_equiv
_atom_site_thermal_displace_type
Eu1 Eu 0.328008(6) 0.705911(12) 0.031013(10) 0.0140 Uani
O1 O 0.22539(10) 0.64523(19) -0.03779(17) 0.0203 Uani
O2 O 0.29806(10) 0.5532(2) -0.05661(19) 0.0242 Uani
O3 O 0.27378(10) 0.3459(2) -0.35114(17) 0.0259 Uani
O4 O 0.19544(10) 0.2570(2) -0.37718(17) 0.0222 Uani
O5 O -0.08798(11) 0.1763(2) -0.0421(2) 0.0349 Uani
O6 O -0.10331(11) 0.3363(2) -0.0063(2) 0.0299 Uani
O7 O 0.3743(2) 0.7704(5) 0.1732(3) 0.0880 Uani
O8 O 0.37675(14) 0.5589(3) 0.1081(3) 0.0462 Uani
H1 H 0.366(2) 0.5043(16) 0.063(2) 0.0800 Uiso
H2 H 0.3555(17) 0.543(3) 0.158(2) 0.0800 Uiso
N1 N 0.3909(3) 0.8462(6) 0.3133(4) 0.0880 Uani
C1 C 0.21311(13) 0.4939(3) -0.1302(2) 0.0182 Uani
C2 C 0.23569(13) 0.4431(3) -0.2000(2) 0.0190 Uani
H3 H 0.2717 0.4557 -0.2099 0.0800 Uiso
C3 C 0.20437(13) 0.3736(3) -0.2548(2) 0.0187 Uani
C4 C 0.15162(14) 0.3506(3) -0.2361(2) 0.0199 Uani
H4 H 0.1311 0.3025 -0.2720 0.0800 Uiso
C5 C 0.12892(14) 0.3985(3) -0.1643(2) 0.0200 Uani
C6 C 0.15957(14) 0.4734(3) -0.1137(2) 0.0191 Uani
H5 H 0.1442 0.5099 -0.0688 0.0800 Uiso
C7 C 0.24778(13) 0.5686(3) -0.0717(2) 0.0175 Uani
C8 C 0.22656(14) 0.3215(3) -0.3344(2) 0.0188 Uani
C9 C 0.07427(13) 0.3671(3) -0.1412(2) 0.0194 Uani
C10 C 0.03893(15) 0.4376(3) -0.1081(3) 0.0254 Uani
H6 H 0.0483 0.5067 -0.1050 0.0800 Uiso
C11 C -0.01010(15) 0.4059(3) -0.0799(3) 0.0259 Uani
H7 H -0.0335 0.4542 -0.0591 0.0800 Uiso
C12 C -0.02474(14) 0.3037(3) -0.0820(3) 0.0209 Uani
C13 C 0.00929(16) 0.2330(3) -0.1175(3) 0.0301 Uani
H8 H -0.0007 0.1642 -0.1216 0.0800 Uiso
C14 C 0.05808(16) 0.2646(3) -0.1471(3) 0.0284 Uani
H9 H 0.0804 0.2166 -0.1712 0.0800 Uiso
C15 C -0.07507(14) 0.2705(3) -0.0413(3) 0.0219 Uani
C16 C 0.3574(5) 0.8031(10) 0.2407(7) 0.0880 Uani
C17 C 0.4448(4) 0.8430(8) 0.3129(5) 0.0880 Uani
C18 C 0.3635(3) 0.9012(8) 0.3839(5) 0.0880 Uani
Eu1B Eu -0.171992(6) 0.205911(12) 0.031013(10) 0.0140 Uani
Eu1C Eu 0.171992(6) 0.205911(12) -0.531013(10) 0.0140 Uani
Eu1E Eu 0.328008(6) 0.294089(12) -0.468987(10) 0.0140 Uani
Eu1F Eu 0.171992(6) 0.794089(12) -0.031013(10) 0.0140 Uani
O1F O 0.27461(10) 0.85477(19) 0.03779(17) 0.0203 Uani
O3E O 0.27378(10) 0.6541(2) 0.14886(17) 0.0259 Uani
O4C O 0.30456(10) 0.7570(2) -0.12282(17) 0.0222 Uani
O5B O 0.41202(11) 0.6763(2) -0.0421(2) 0.0349 Uani
O6B O 0.39669(11) 0.8363(2) -0.0063(2) 0.0299 Uani
loop_
_atom_site_aniso_label
_atom_site_aniso_U_11
_atom_site_aniso_U_22
_atom_site_aniso_U_33
_atom_site_aniso_U_23
_atom_site_aniso_U_13
_atom_site_aniso_U_12
Eu1 0.00980(9) 0.01820(10) 0.01441(10) 0.00074(5) 0.00378(6) -0.00128(5)
O1 0.0193(11) 0.0197(11) 0.0236(12) -0.0051(9) 0.0100(9) -0.0030(9)
O2 0.0162(11) 0.0214(12) 0.0348(14) -0.0060(10) 0.0023(10) -0.0019(9)
O3 0.0171(12) 0.0405(15) 0.0219(12) -0.0104(11) 0.0096(10) -0.0038(11)
O4 0.0188(12) 0.0297(13) 0.0196(12) -0.0067(10) 0.0084(9) -0.0040(10)
O5 0.0196(13) 0.0242(13) 0.065(2) 0.0038(14) 0.0220(13) -0.0003(11)
O6 0.0219(13) 0.0307(14) 0.0407(16) -0.0114(12) 0.0189(12) -0.0101(11)
O7 0.086(2) 0.125(3) 0.0497(15) -0.0130(17) -0.0066(15) -0.022(2)
O8 0.0388(18) 0.049(2) 0.050(2) 0.0184(16) 0.0021(15) 0.0153(15)
N1 0.086(2) 0.125(3) 0.0497(15) -0.0130(17) -0.0066(15) -0.022(2)
C1 0.0156(15) 0.0200(15) 0.0202(15) -0.0029(12) 0.0067(12) -0.0028(12)
C2 0.0152(14) 0.0231(16) 0.0197(15) -0.0027(12) 0.0067(12) -0.0007(12)
C3 0.0169(15) 0.0237(16) 0.0165(15) -0.0031(12) 0.0067(12) 0.0001(13)
C4 0.0176(15) 0.0256(17) 0.0176(15) -0.0052(13) 0.0062(12) -0.0026(13)
C5 0.0156(15) 0.0246(17) 0.0214(16) -0.0041(13) 0.0088(12) -0.0027(13)
C6 0.0173(15) 0.0206(15) 0.0208(15) -0.0044(12) 0.0086(12) -0.0017(12)
C7 0.0182(15) 0.0172(15) 0.0180(15) -0.0012(12) 0.0053(12) -0.0030(12)
C8 0.0168(15) 0.0268(16) 0.0135(15) -0.0041(12) 0.0050(12) 0.0005(13)
C9 0.0156(15) 0.0252(17) 0.0187(15) -0.0065(12) 0.0075(12) -0.0057(13)
C10 0.0201(16) 0.0238(17) 0.035(2) -0.0043(14) 0.0145(15) -0.0034(14)
C11 0.0185(16) 0.0258(18) 0.036(2) -0.0057(15) 0.0140(15) -0.0023(14)
C12 0.0137(15) 0.0253(17) 0.0247(17) -0.0030(13) 0.0069(13) -0.0035(12)
C13 0.0234(18) 0.0221(17) 0.048(2) -0.0099(16) 0.0175(17) -0.0077(15)
C14 0.0212(17) 0.0241(17) 0.043(2) -0.0114(16) 0.0165(16) -0.0054(14)
C15 0.0127(15) 0.0284(17) 0.0251(17) -0.0010(14) 0.0046(13) -0.0036(13)
C16 0.086(2) 0.125(3) 0.0497(15) -0.0130(17) -0.0066(15) -0.022(2)
C17 0.086(2) 0.125(3) 0.0497(15) -0.0130(17) -0.0066(15) -0.022(2)
C18 0.086(2) 0.125(3) 0.0497(15) -0.0130(17) -0.0066(15) -0.022(2)
Eu1B 0.0098 0.0182 0.01441 0.00074 0.00378 -0.00128
Eu1C 0.0098 0.0182 0.01441 -0.00074 0.00378 0.00128
Eu1E 0.0098 0.0182 0.01441 -0.00074 0.00378 0.00128
Eu1F 0.0098 0.0182 0.01441 0.00074 0.00378 -0.00128
O1F 0.0193 0.0197 0.0236 -0.0051 0.01 -0.003
O3E 0.0171 0.0405 0.0219 0.0104 0.0096 0.0038
O4C 0.0188 0.0297 0.0196 0.0067 0.0084 0.004
O5B 0.0196 0.0242 0.065 0.0038 0.022 -0.0003
O6B 0.0219 0.0307 0.0407 -0.0114 0.0189 -0.0101
loop_
_geom_bond_atom_site_label_1
_geom_bond_atom_site_label_2
_geom_bond_site_symmetry_1
_geom_bond_site_symmetry_2
Eu1 O1 1_555 1_555
O1 C7 1_555 1_555
O2 Eu1 1_555 1_555
O3 C8 1_555 1_555
O4 C8 1_555 1_555
O5 C15 1_555 1_555
O6 C15 1_555 1_555
O7 Eu1 1_555 1_555
O8 Eu1 1_555 1_555
H1 O8 1_555 1_555
H2 O8 1_555 1_555
N1 C16 1_555 1_555
C1 C2 1_555 1_555
C2 H3 1_555 1_555
C3 C2 1_555 1_555
C4 C3 1_555 1_555
H4 C4 1_555 1_555
C5 C4 1_555 1_555
C6 C1 1_555 1_555
H5 C6 1_555 1_555
C7 O2 1_555 1_555
C8 C3 1_555 1_555
C9 C5 1_555 1_555
C10 C9 1_555 1_555
H6 C10 1_555 1_555
C11 C10 1_555 1_555
H7 C11 1_555 1_555
C12 C11 1_555 1_555
C13 C12 1_555 1_555
H8 C13 1_555 1_555
C14 C9 1_555 1_555
H9 C14 1_555 1_555
C15 C12 1_555 1_555
C16 O7 1_555 1_555
C17 N1 1_555 1_555
C18 N1 1_555 1_555
Eu1B O5 1_555 1_555
Eu1C O4 1_555 1_555
Eu1E O3 1_555 1_555
Eu1F O1 1_555 1_555
O1F Eu1 1_555 1_555
O3E Eu1 1_555 1_555
O4C Eu1 1_555 1_555
O5B Eu1 1_555 1_555
O6B Eu1 1_555 1_555
O6 Eu1B 1_555 1_555
C1 C7 1_555 1_555
C5 C6 1_555 1_555
C13 C14 1_555 1_555
Eu1F O1F 1_555 1_555

#END
