
#######################################################################
#
#                 Cambridge Crystallographic Data Centre
#                                CCDC 
#
#######################################################################
#
# If this CIF has been generated from an entry in the Cambridge 
# Structural Database, then it will include bibliographic, chemical, 
# crystal, experimental, refinement or atomic coordinate data resulting 
# from the CCDC's data processing and validation procedures.
#
#######################################################################

data_LAVTIN
_chemical_formula_moiety         '(C9 H5 Er1 O7)n'
_symmetry_cell_setting           tetragonal
_symmetry_space_group_name_H-M   'P 41 2 2'
_symmetry_Int_Tables_number      91
_space_group_name_Hall           'P 4w 2c'
loop_
_symmetry_equiv_pos_site_id
_symmetry_equiv_pos_as_xyz
1 x,y,z
2 -x,-y,1/2+z
3 -y,x,1/4+z
4 y,-x,3/4+z
5 -x,y,-z
6 x,-y,1/2-z
7 y,x,3/4-z
8 -y,-x,1/4-z
_cell_length_a                   10.2700(15)
_cell_length_b                   10.2700(15)
_cell_length_c                   14.460(3)
_cell_angle_alpha                90
_cell_angle_beta                 90
_cell_angle_gamma                90
_cell_volume                     1525.14
loop_
_atom_site_label
_atom_site_type_symbol
_atom_site_fract_x
_atom_site_fract_y
_atom_site_fract_z
Er1 Er 0.648672(19) 0.351328(19) 0.1250
O1 O 0.5723(5) 0.1639(4) 0.0580(3)
O2 O 0.8123(4) 0.1877(4) 0.1250
O3 O 0.6114(5) -0.4331(4) 0.1501(3)
O4 O 0.5959(4) -0.2583(4) 0.2367(2)
C1 C 0.5878(5) -0.3166(5) 0.1607(4)
C2 C 0.5446(6) -0.1046(5) 0.0772(3)
H1 H 0.5751 -0.0592 0.1284
C3 C 0.5432(6) -0.2400(5) 0.0773(3)
C4 C 0.5000 0.1103(7) 0.0000
C5 C 0.5000 -0.0374(7) 0.0000
C6 C 0.5000 -0.3087(8) 0.0000
H2 H 0.5000 -0.3992 0.0000
Er1_2 Er 0.648672(19) -0.648672(19) 0.1250
Er1A Er 0.351328(19) -0.351328(19) -0.3750
Er1B Er 0.648672(19) -0.351328(19) 0.3750
Er1C Er 0.351328(19) -0.648672(19) -0.1250
Er1C_2 Er 0.351328(19) 0.351328(19) -0.1250
O1D O 0.4277(5) 0.1639(4) -0.0580(3)
O1G O 0.8361(4) 0.4277(5) 0.1920(3)
O3D O 0.3886(5) -0.4331(4) -0.1501(3)
O3_2 O 0.6114(5) 0.5669(4) 0.1501(3)
O3G O 0.4331(4) 0.3886(5) 0.0999(3)
O4D O 0.4041(4) -0.2583(4) -0.2367(2)
O4C O 0.7417(4) 0.4041(4) -0.0133(2)
O4E O 0.5959(4) 0.2583(4) 0.2633(2)
C1D C 0.4122(5) -0.3166(5) -0.1607(4)
C2D C 0.4554(6) -0.1046(5) -0.0772(3)
H1D H 0.4249 -0.0592 -0.1284
C3D C 0.4568(6) -0.2400(5) -0.0773(3)
loop_
_geom_bond_atom_site_label_1
_geom_bond_atom_site_label_2
_geom_bond_site_symmetry_1
_geom_bond_site_symmetry_2
Er1 O1 1_555 1_555
O1 C4 1_555 1_555
O2 Er1 1_555 1_555
O3 C1 1_555 1_555
O4 C1 1_555 1_555
C1 C3 1_555 1_555
C2 H1 1_555 1_555
C3 C2 1_555 1_555
C4 C5 1_555 1_555
C5 C2 1_555 1_555
C6 C3 1_555 1_555
H2 C6 1_555 1_555
Er1_2 O3 1_555 1_555
Er1A O4D 1_555 1_555
Er1B O4 1_555 1_555
Er1C O3D 1_555 1_555
Er1C_2 O1D 1_555 1_555
O1D C4 1_555 1_555
O1G Er1 1_555 1_555
O3D C1D 1_555 1_555
O3_2 Er1 1_555 1_555
O3G Er1 1_555 1_555
O4D C1D 1_555 1_555
O4C Er1 1_555 1_555
O4E Er1 1_555 1_555
C1D C3D 1_555 1_555
C2D C5 1_555 1_555
H1D C2D 1_555 1_555
C3D C6 1_555 1_555
C2D C3D 1_555 1_555

#END
