
#######################################################################
#
#                 Cambridge Crystallographic Data Centre
#                                CCDC 
#
#######################################################################
#
# If this CIF has been generated from an entry in the Cambridge 
# Structural Database, then it will include bibliographic, chemical, 
# crystal, experimental, refinement or atomic coordinate data resulting 
# from the CCDC's data processing and validation procedures.
#
#######################################################################

data_LAVTEJ
_chemical_formula_moiety         '(C9 H5 Dy1 O7)n'
_symmetry_cell_setting           tetragonal
_symmetry_space_group_name_H-M   'P 43 2 2'
_symmetry_Int_Tables_number      95
_space_group_name_Hall           'P 4cw 2c'
loop_
_symmetry_equiv_pos_site_id
_symmetry_equiv_pos_as_xyz
1 x,y,z
2 -x,-y,1/2+z
3 -y,x,3/4+z
4 y,-x,1/4+z
5 -x,y,-z
6 x,-y,1/2-z
7 y,x,1/4-z
8 -y,-x,3/4-z
_cell_length_a                   10.3200(15)
_cell_length_b                   10.3200(15)
_cell_length_c                   14.500(3)
_cell_angle_alpha                90
_cell_angle_beta                 90
_cell_angle_gamma                90
_cell_volume                     1544.28
loop_
_atom_site_label
_atom_site_type_symbol
_atom_site_fract_x
_atom_site_fract_y
_atom_site_fract_z
Dy1 Dy 0.14787(2) 0.14787(2) 0.1250
C1 C 0.0431(6) 0.6042(5) 0.0773(4)
H1 H 0.0715 0.5589 0.1289
C2 C 0.0000 0.5373(7) 0.0000
C3 C 0.0000 0.3896(8) 0.0000
O1 O 0.0952(5) 0.7564(5) 0.2357(3)
C4 C 0.0436(6) 0.7391(5) 0.0771(3)
C5 C 0.0870(6) 0.8146(6) 0.1611(4)
O2 O 0.0709(5) 0.3364(4) 0.0584(3)
O3 O 0.1096(5) 0.9307(4) 0.1514(3)
C6 C 0.0000 0.8070(8) 0.0000
H2 H 0.0000 0.8971 0.0000
O4 O 0.3125(5) 0.3125(5) 0.1250
Dy1_2 Dy 0.14787(2) 1.14787(2) 0.1250
Dy1A Dy -0.14787(2) 0.85213(2) -0.3750
Dy1B Dy -0.14787(2) 0.14787(2) -0.1250
Dy1B_2 Dy -0.14787(2) 1.14787(2) -0.1250
Dy1C Dy 0.14787(2) 0.85213(2) 0.3750
C1D C -0.0431(6) 0.6042(5) -0.0773(4)
H1D H -0.0715 0.5589 -0.1289
O1D O -0.0952(5) 0.7564(5) -0.2357(3)
O1B O 0.2436(5) 0.0952(5) -0.0143(3)
O1E O 0.0952(5) 0.2436(5) 0.2643(3)
C4D C -0.0436(6) 0.7391(5) -0.0771(3)
C5D C -0.0870(6) 0.8146(6) -0.1611(4)
O2D O -0.0709(5) 0.3364(4) -0.0584(3)
O2F O 0.3364(4) 0.0709(5) 0.1916(3)
O3D O -0.1096(5) 0.9307(4) -0.1514(3)
O3_2 O 0.1096(5) -0.0693(4) 0.1514(3)
O3F O -0.0693(4) 0.1096(5) 0.0986(3)
loop_
_geom_bond_atom_site_label_1
_geom_bond_atom_site_label_2
_geom_bond_site_symmetry_1
_geom_bond_site_symmetry_2
Dy1 O2 1_555 1_555
C1 H1 1_555 1_555
C2 C1 1_555 1_555
C3 C2 1_555 1_555
O1 C5 1_555 1_555
C4 C1 1_555 1_555
C5 C4 1_555 1_555
O2 C3 1_555 1_555
O3 C5 1_555 1_555
C6 C4 1_555 1_555
H2 C6 1_555 1_555
O4 Dy1 1_555 1_555
Dy1_2 O3 1_555 1_555
Dy1A O1D 1_555 1_555
Dy1B O2D 1_555 1_555
Dy1B_2 O3D 1_555 1_555
Dy1C O1 1_555 1_555
C1D C2 1_555 1_555
H1D C1D 1_555 1_555
O1D C5D 1_555 1_555
O1B Dy1 1_555 1_555
O1E Dy1 1_555 1_555
C4D C6 1_555 1_555
C5D C4D 1_555 1_555
O2D C3 1_555 1_555
O2F Dy1 1_555 1_555
O3D C5D 1_555 1_555
O3_2 Dy1 1_555 1_555
O3F Dy1 1_555 1_555
C1D C4D 1_555 1_555

#END
