
#######################################################################
#
#                 Cambridge Crystallographic Data Centre
#                                CCDC 
#
#######################################################################
#
# If this CIF has been generated from an entry in the Cambridge 
# Structural Database, then it will include bibliographic, chemical, 
# crystal, experimental, refinement or atomic coordinate data resulting 
# from the CCDC's data processing and validation procedures.
#
#######################################################################

data_LAXMOP
_chemical_formula_moiety         '(C6 H4 Mn2 N14 O1)n'
_symmetry_cell_setting           orthorhombic
_symmetry_space_group_name_H-M   'P b c m'
_symmetry_Int_Tables_number      57
_space_group_name_Hall           '-P 2c 2b'
loop_
_symmetry_equiv_pos_site_id
_symmetry_equiv_pos_as_xyz
1 x,y,z
2 -x,-y,1/2+z
3 -x,1/2+y,1/2-z
4 x,1/2-y,-z
5 -x,-y,-z
6 x,y,1/2-z
7 x,1/2-y,1/2+z
8 -x,1/2+y,z
_cell_length_a                   9.9436(11)
_cell_length_b                   7.4358(9)
_cell_length_c                   19.781(2)
_cell_angle_alpha                90
_cell_angle_beta                 90
_cell_angle_gamma                90
_cell_volume                     1462.58
loop_
_atom_site_label
_atom_site_type_symbol
_atom_site_fract_x
_atom_site_fract_y
_atom_site_fract_z
Mn1 Mn 0.88989(5) 0.2500 0.5000
Mn2 Mn 0.48899(5) 0.52650(6) 0.7500
O1 O 0.6320(2) 0.7614(3) 0.7500
N1 N 0.87674(19) -0.0011(2) 0.56077(10)
N2 N 0.6222(2) 0.1930(3) 0.67235(10)
N3 N 0.9409(2) -0.1600(3) 0.56622(10)
N4 N 0.5897(2) 0.3723(3) 0.66564(10)
N5 N 0.7287(2) 0.3057(3) 0.58246(10)
N6 N 0.7850(2) -0.1552(3) 0.64433(11)
N7 N 0.8857(2) -0.2519(3) 0.61582(12)
C1 C 0.6533(2) 0.4332(3) 0.61186(12)
H1 H 0.6467 0.5508 0.5961
C2 C 0.7065(2) 0.1608(3) 0.62176(11)
C3 C 0.7840(2) -0.0023(3) 0.60938(11)
H2 H 0.685(3) 0.773(5) 0.7185(14)
H2E H 0.685(3) 0.773(5) 0.7815(14)
N1C N 0.87674(19) 0.5011(2) 0.43923(10)
N2C N 0.6222(2) 0.3070(3) 0.32765(10)
N3C N 0.9409(2) 0.6600(3) 0.43378(10)
N4C N 0.5897(2) 0.1277(3) 0.33436(10)
N5C N 0.7287(2) 0.1943(3) 0.41754(10)
N6C N 0.7850(2) 0.6552(3) 0.35567(11)
N7C N 0.8857(2) 0.7519(3) 0.38418(12)
C1C C 0.6533(2) 0.0668(3) 0.38814(12)
H1C H 0.6467 -0.0508 0.4039
C2C C 0.7065(2) 0.3392(3) 0.37824(11)
C3C C 0.7840(2) 0.5023(3) 0.39062(11)
Mn1D Mn 1.11011(5) -0.2500 0.5000
Mn1D_2 Mn 1.11011(5) 0.7500 0.5000
Mn2A Mn 0.51101(5) 0.47350(6) 0.2500
Mn2B Mn 0.51101(5) 0.02650(6) 0.7500
Mn2B_2 Mn 0.51101(5) 1.02650(6) 0.7500
Mn2C Mn 0.48899(5) -0.02650(6) 0.2500
O1B O 0.3680(2) 0.2614(3) 0.7500
N2B N 0.3778(2) 0.6930(3) 0.82765(10)
N2G N 0.3778(2) 0.6930(3) 0.67235(10)
N3D N 1.0591(2) 0.1600(3) 0.43378(10)
N3G N 1.0591(2) 0.3400(3) 0.56622(10)
N4E N 0.5897(2) 0.3723(3) 0.83436(10)
loop_
_geom_bond_atom_site_label_1
_geom_bond_atom_site_label_2
_geom_bond_site_symmetry_1
_geom_bond_site_symmetry_2
Mn1 N1 1_555 1_555
Mn2 O1 1_555 1_555
O1 H2 1_555 1_555
N1 N3 1_555 1_555
N2 N4 1_555 1_555
N3 N7 1_555 1_555
N4 Mn2 1_555 1_555
N5 Mn1 1_555 1_555
N6 N7 1_555 1_555
C1 N4 1_555 1_555
H1 C1 1_555 1_555
C2 N2 1_555 1_555
C3 N1 1_555 1_555
H2E O1 1_555 1_555
N1C Mn1 1_555 1_555
N2C N4C 1_555 1_555
N3C N1C 1_555 1_555
N4C C1C 1_555 1_555
N5C Mn1 1_555 1_555
N6C N7C 1_555 1_555
N7C N3C 1_555 1_555
C1C N5C 1_555 1_555
H1C C1C 1_555 1_555
C2C N2C 1_555 1_555
C3C N1C 1_555 1_555
Mn1D N3 1_555 1_555
Mn1D_2 N3C 1_555 1_555
Mn2A N2C 1_555 1_555
Mn2B N2 1_555 1_555
Mn2B_2 O1 1_555 1_555
Mn2C N4C 1_555 1_555
O1B Mn2 1_555 1_555
N2B Mn2 1_555 1_555
N2G Mn2 1_555 1_555
N3D Mn1 1_555 1_555
N3G Mn1 1_555 1_555
N4E Mn2 1_555 1_555
N5 C1 1_555 1_555
N5 C2 1_555 1_555
N6 C3 1_555 1_555
C2 C3 1_555 1_555
N5C C2C 1_555 1_555
N6C C3C 1_555 1_555
C2C C3C 1_555 1_555
Mn2B O1B 1_555 1_555

#END
