
#######################################################################
#
#                 Cambridge Crystallographic Data Centre
#                                CCDC 
#
#######################################################################
#
# If this CIF has been generated from an entry in the Cambridge 
# Structural Database, then it will include bibliographic, chemical, 
# crystal, experimental, refinement or atomic coordinate data resulting 
# from the CCDC's data processing and validation procedures.
#
#######################################################################

data_DUKDOD01
_chemical_formula_moiety         '(C14 H13 Ag1 Cl1 Ho1 N2 O11)n'
_symmetry_cell_setting           monoclinic
_symmetry_space_group_name_H-M   'P 21/c'
_symmetry_Int_Tables_number      14
_space_group_name_Hall           '-P 2ybc'
loop_
_symmetry_equiv_pos_site_id
_symmetry_equiv_pos_as_xyz
1 x,y,z
2 -x,1/2+y,1/2-z
3 -x,-y,-z
4 x,1/2-y,1/2+z
_cell_length_a                   16.2107(4)
_cell_length_b                   14.9781(4)
_cell_length_c                   7.9573(2)
_cell_angle_alpha                90
_cell_angle_beta                 92.0690(10)
_cell_angle_gamma                90
_cell_volume                     1930.82
loop_
_atom_site_label
_atom_site_type_symbol
_atom_site_fract_x
_atom_site_fract_y
_atom_site_fract_z
Ag1 Ag 0.02698(2) 0.25929(3) 0.39979(6)
Ho1 Ho -0.454780(9) 0.383740(9) 0.94987(2)
C1 C -0.1330(3) 0.3281(3) 0.5406(6)
H1 H -0.1061 0.3821 0.5245
C2 C -0.2113(2) 0.3290(2) 0.6053(5)
H2 H -0.2360 0.3828 0.6335
C3 C -0.2527(2) 0.2486(2) 0.6278(4)
C4 C -0.2129(2) 0.1702(2) 0.5855(5)
H3 H -0.2388 0.1154 0.5991
C5 C -0.1344(2) 0.1742(3) 0.5228(6)
H4 H -0.1082 0.1212 0.4952
C6 C -0.3376(2) 0.2491(2) 0.6977(4)
C7 C 0.2119(3) 0.2528(3) 0.2940(6)
H5 H 0.2093 0.1929 0.3238
C8 C 0.2858(2) 0.2869(2) 0.2430(6)
H6 H 0.3323 0.2506 0.2387
C9 C 0.2900(2) 0.3765(2) 0.1980(5)
C10 C 0.2196(2) 0.4274(2) 0.2061(6)
H7 H 0.2207 0.4875 0.1772
C11 C 0.1476(3) 0.3887(3) 0.2572(7)
H8 H 0.1002 0.4236 0.2605
C12 C 0.3683(2) 0.4187(2) 0.1396(5)
C13 C -0.5691(2) 0.4583(2) 0.7136(5)
C14 C -0.6353(3) 0.4932(3) 0.5961(6)
H9 H -0.6727 0.4457 0.5653
H10 H -0.6649 0.5399 0.6505
H11 H -0.6109 0.5164 0.4971
N1 N -0.09479(19) 0.2517(2) 0.5003(5)
N2 N 0.1433(2) 0.3029(2) 0.3023(5)
O1 O -0.35891(15) 0.31544(15) 0.7811(3)
O2 O -0.38288(14) 0.18110(15) 0.6685(3)
O3 O 0.42521(16) 0.36697(15) 0.0958(4)
O4 O 0.37096(16) 0.50296(15) 0.1413(4)
O5 O -0.54864(16) 0.50266(15) 0.8430(3)
O6 O -0.53407(17) 0.38475(16) 0.6875(3)
O7 O -0.49859(19) 0.23155(15) 0.9237(4)
H12 H -0.515(3) 0.199(2) 0.997(4)
H13 H -0.480(3) 0.199(2) 0.853(4)
Ho1C Ho -0.454780(9) 0.116260(9) 0.44987(2)
Ho1_2 Ho 0.545220(9) 0.383740(9) -0.05013(2)
Ho1B Ho 0.454780(9) 0.616260(9) 0.05013(2)
Ho1B_2 Ho -0.545220(9) 0.616260(9) 1.05013(2)
O2C O -0.38288(14) 0.31890(15) 1.1685(3)
O3_2 O -0.57479(16) 0.36697(15) 1.0958(4)
O4B O -0.37096(16) 0.49704(15) 0.8587(4)
O5B O -0.45136(16) 0.49734(15) 1.1570(3)
Cl1 Cl 0.91867(8) 0.95980(8) 0.75618(17)
O8 O 0.9608(6) 1.0431(4) 0.7683(15)
O9 O 0.9658(8) 0.8876(5) 0.8138(16)
O10 O 0.8896(10) 0.9440(7) 0.5902(10)
O11 O 0.8461(6) 0.9667(7) 0.863(2)
loop_
_geom_bond_atom_site_label_1
_geom_bond_atom_site_label_2
_geom_bond_site_symmetry_1
_geom_bond_site_symmetry_2
Ag1 N1 1_555 1_555
Ho1 O1 1_555 1_555
C1 H1 1_555 1_555
C2 C1 1_555 1_555
H2 C2 1_555 1_555
C3 C2 1_555 1_555
C4 C3 1_555 1_555
H3 C4 1_555 1_555
C5 C4 1_555 1_555
H4 C5 1_555 1_555
C6 C3 1_555 1_555
C7 H5 1_555 1_555
C8 C7 1_555 1_555
H6 C8 1_555 1_555
C9 C8 1_555 1_555
C10 C9 1_555 1_555
H7 C10 1_555 1_555
C11 C10 1_555 1_555
H8 C11 1_555 1_555
C12 C9 1_555 1_555
C13 C14 1_555 1_555
C14 H9 1_555 1_555
H10 C14 1_555 1_555
H11 C14 1_555 1_555
N1 C1 1_555 1_555
N2 Ag1 1_555 1_555
O1 C6 1_555 1_555
O2 C6 1_555 1_555
O3 C12 1_555 1_555
O4 C12 1_555 1_555
O5 Ho1 1_555 1_555
O6 Ho1 1_555 1_555
O7 Ho1 1_555 1_555
H12 O7 1_555 1_555
H13 O7 1_555 1_555
Cl1 O8 1_555 1_555
O9 Cl1 1_555 1_555
O10 Cl1 1_555 1_555
O11 Cl1 1_555 1_555
Ho1C O2 1_555 1_555
Ho1_2 O3 1_555 1_555
Ho1B O4 1_555 1_555
Ho1B_2 O5 1_555 1_555
O2C Ho1 1_555 1_555
O3_2 Ho1 1_555 1_555
O4B Ho1 1_555 1_555
O5B Ho1 1_555 1_555
C5 N1 1_555 1_555
C7 N2 1_555 1_555
C11 N2 1_555 1_555
C13 O5 1_555 1_555
C13 O6 1_555 1_555
Ho1B_2 O5B 1_555 1_555

#END
