
#######################################################################
#
#                 Cambridge Crystallographic Data Centre
#                                CCDC 
#
#######################################################################
#
# If this CIF has been generated from an entry in the Cambridge 
# Structural Database, then it will include bibliographic, chemical, 
# crystal, experimental, refinement or atomic coordinate data resulting 
# from the CCDC's data processing and validation procedures.
#
#######################################################################

data_DUMXEQ
_chemical_formula_moiety         '(C15 H15 Dy1 N4 O10)n'
_symmetry_cell_setting           monoclinic
_symmetry_space_group_name_H-M   'P 21/c'
_symmetry_Int_Tables_number      14
_space_group_name_Hall           '-P 2ybc'
loop_
_symmetry_equiv_pos_site_id
_symmetry_equiv_pos_as_xyz
1 x,y,z
2 -x,1/2+y,1/2-z
3 -x,-y,-z
4 x,1/2-y,1/2+z
_cell_length_a                   10.1353(2)
_cell_length_b                   17.3501(2)
_cell_length_c                   11.3594(2)
_cell_angle_alpha                90
_cell_angle_beta                 109.798(2)
_cell_angle_gamma                90
_cell_volume                     1879.46
loop_
_atom_site_label
_atom_site_type_symbol
_atom_site_fract_x
_atom_site_fract_y
_atom_site_fract_z
Dy1 Dy 1.008012(18) 0.493125(10) 0.680176(16)
O1 O 0.2276(3) 0.51499(16) 0.6552(3)
O2 O 0.8559(3) 0.58307(14) 0.7246(2)
O3 O 0.2092(3) 0.54737(15) 0.4585(2)
O4 O 0.9110(3) 0.43243(14) 0.8168(2)
N1 N 1.2308(3) 0.5304(2) 0.9083(3)
O5 O 1.0599(3) 0.13947(14) 1.1583(2)
O6 O 1.1450(3) 0.58142(15) 0.8435(2)
O7 O 1.0270(3) 0.08401(15) 0.9763(2)
N2 N 0.7170(3) 0.57514(17) 0.6900(3)
O8 O 1.3346(3) 0.54783(18) 0.9955(3)
N3 N 0.9459(3) 0.36340(18) 0.8694(3)
C1 C 0.6349(4) 0.6016(2) 0.5760(4)
H1 H 0.6748 0.6266 0.5239
C2 C 1.0374(4) 0.1435(2) 1.0424(4)
C3 C 0.5183(4) 0.5319(2) 0.7347(4)
H2 H 0.4801 0.5097 0.7904
C4 C 0.4925(4) 0.5909(2) 0.5386(4)
H3 H 0.4364 0.6079 0.4599
C5 C 0.9368(4) 0.2282(2) 0.8528(4)
H4 H 0.9098 0.1842 0.8036
C6 C 0.4303(4) 0.5551(2) 0.6164(4)
C7 C 0.2764(4) 0.5379(2) 0.5741(4)
O9 O 1.2011(3) 0.46079(16) 0.8769(3)
C8 C 0.6607(4) 0.5418(2) 0.7690(4)
H5 H 0.7187 0.5253 0.8473
C9 C 1.0102(4) 0.2212(2) 0.9801(4)
C10 C 1.0193(4) 0.3588(2) 0.9928(4)
H6 H 1.0488 0.4036 1.0391
C11 C 1.0509(4) 0.2882(2) 1.0505(4)
H7 H 1.0991 0.2852 1.1361
C12 C 0.9042(4) 0.2991(2) 0.7998(4)
H8 H 0.8528 0.3034 0.7150
Dy1_2 Dy 0.008012(18) 0.493125(10) 0.680176(16)
Dy1A Dy 0.991988(18) -0.006875(10) 0.819824(16)
Dy1B Dy -0.008012(18) 0.506875(10) 0.319824(16)
Dy1C Dy 1.008012(18) 0.006875(10) 1.180176(16)
O1_2 O 1.2276(3) 0.51499(16) 0.6552(3)
O3B O 0.7908(3) 0.45263(15) 0.5415(2)
O5C O 1.0599(3) 0.36053(14) 0.6583(2)
O7A O 0.9730(3) 0.58401(15) 0.5237(2)
O7C O 1.0270(3) 0.41599(15) 0.4763(2)
N4 N 0.5161(4) 0.8061(2) 0.6099(4)
O10 O 0.5844(6) 0.8292(2) 0.8176(4)
C13 C 0.5465(6) 0.8138(3) 0.4948(4)
H9 H 0.4803 0.8485 0.4394
H10 H 0.5397 0.7642 0.4555
H11 H 0.6396 0.8338 0.5129
C14 C 0.6042(7) 0.8303(3) 0.7173(5)
H12 H 0.6894 0.8501 0.7170
C15 C 0.3794(5) 0.7781(3) 0.6017(6)
H13 H 0.3086 0.8097 0.5447
H14 H 0.3699 0.7800 0.6829
H15 H 0.3688 0.7258 0.5721
loop_
_geom_bond_atom_site_label_1
_geom_bond_atom_site_label_2
_geom_bond_site_symmetry_1
_geom_bond_site_symmetry_2
Dy1 O2 1_555 1_555
O1 C7 1_555 1_555
O2 N2 1_555 1_555
O3 C7 1_555 1_555
O4 Dy1 1_555 1_555
N1 O6 1_555 1_555
O5 C2 1_555 1_555
O6 Dy1 1_555 1_555
O7 C2 1_555 1_555
N2 C1 1_555 1_555
O8 N1 1_555 1_555
N3 O4 1_555 1_555
C1 H1 1_555 1_555
C2 C9 1_555 1_555
C3 H2 1_555 1_555
C4 C1 1_555 1_555
H3 C4 1_555 1_555
C5 H4 1_555 1_555
C6 C3 1_555 1_555
C7 C6 1_555 1_555
O9 Dy1 1_555 1_555
C8 N2 1_555 1_555
H5 C8 1_555 1_555
C9 C5 1_555 1_555
C10 N3 1_555 1_555
H6 C10 1_555 1_555
C11 C9 1_555 1_555
H7 C11 1_555 1_555
C12 N3 1_555 1_555
H8 C12 1_555 1_555
N4 C13 1_555 1_555
O10 C14 1_555 1_555
C13 H9 1_555 1_555
H10 C13 1_555 1_555
H11 C13 1_555 1_555
C14 N4 1_555 1_555
H12 C14 1_555 1_555
C15 N4 1_555 1_555
H13 C15 1_555 1_555
H14 C15 1_555 1_555
H15 C15 1_555 1_555
Dy1_2 O1 1_555 1_555
Dy1A O7 1_555 1_555
Dy1B O3 1_555 1_555
Dy1C O5 1_555 1_555
O1_2 Dy1 1_555 1_555
O3B Dy1 1_555 1_555
O5C Dy1 1_555 1_555
O7A Dy1 1_555 1_555
O7C Dy1 1_555 1_555
N1 O9 1_555 1_555
O7 Dy1C 1_555 1_555
C3 C8 1_555 1_555
C4 C6 1_555 1_555
C5 C12 1_555 1_555
C10 C11 1_555 1_555

#END
