
#######################################################################
#
#                 Cambridge Crystallographic Data Centre
#                                CCDC 
#
#######################################################################
#
# If this CIF has been generated from an entry in the Cambridge 
# Structural Database, then it will include bibliographic, chemical, 
# crystal, experimental, refinement or atomic coordinate data resulting 
# from the CCDC's data processing and validation procedures.
#
#######################################################################

data_DUMXUG
_chemical_formula_moiety         '(C12 H8 Dy1 N3 O9)n'
_symmetry_cell_setting           monoclinic
_symmetry_space_group_name_H-M   'P 21/c'
_symmetry_Int_Tables_number      14
_space_group_name_Hall           '-P 2ybc'
loop_
_symmetry_equiv_pos_site_id
_symmetry_equiv_pos_as_xyz
1 x,y,z
2 -x,1/2+y,1/2-z
3 -x,-y,-z
4 x,1/2-y,1/2+z
_cell_length_a                   10.1104(6)
_cell_length_b                   17.3557(7)
_cell_length_c                   11.3156(7)
_cell_angle_alpha                90
_cell_angle_beta                 108.961(7)
_cell_angle_gamma                90
_cell_volume                     1877.85
loop_
_atom_site_label
_atom_site_type_symbol
_atom_site_fract_x
_atom_site_fract_y
_atom_site_fract_z
Dy1 Dy 0.50778(2) 0.506605(13) 0.68145(2)
O1 O 0.4101(4) 0.5664(2) 0.8195(3)
O2 O 0.5215(3) 0.9147(2) 0.9738(3)
O3 O 0.5586(4) 0.8609(2) 1.1574(3)
O4 O -0.3527(3) 0.5839(2) 0.2759(3)
O5 O 0.2880(3) 0.5464(2) 0.5430(3)
O6 O 0.2738(4) 0.5117(2) 0.3478(4)
O7 O 0.7037(4) 0.5330(3) 0.8823(4)
O8 O 0.6420(4) 0.4154(2) 0.8375(4)
O9 O 0.8291(5) 0.4419(3) 0.9935(5)
N1 N 0.4416(4) 0.6355(2) 0.8706(4)
N2 N -0.2150(4) 0.5761(2) 0.3094(4)
N3 N 0.7271(5) 0.4629(4) 0.9069(4)
C1 C 0.3927(6) 0.6992(3) 0.8028(5)
H1 H 0.3368 0.6946 0.7198
C2 C 0.4248(6) 0.7711(3) 0.8553(5)
H2 H 0.3942 0.8149 0.8068
C3 C 0.5032(5) 0.7781(3) 0.9812(5)
C4 C 0.5313(5) 0.8559(3) 1.0421(5)
C5 C 0.5479(6) 0.7114(3) 1.0496(5)
H3 H 0.5984 0.7146 1.1343
C6 C 0.5182(5) 0.6407(3) 0.9935(5)
H4 H 0.5505 0.5962 1.0396
C7 C -0.1347(5) 0.6031(3) 0.4212(5)
H5 H -0.1759 0.6290 0.4723
C8 C 0.0078(5) 0.5928(3) 0.4604(5)
H6 H 0.0624 0.6107 0.5385
C9 C 0.0704(5) 0.5557(3) 0.3837(5)
C10 C 0.2239(5) 0.5373(3) 0.4284(5)
C11 C -0.0151(5) 0.5319(4) 0.2662(5)
H7 H 0.0241 0.5091 0.2110
C12 C -0.1567(5) 0.5420(4) 0.2318(5)
H8 H -0.2133 0.5251 0.1538
Dy1A Dy 0.49222(2) 1.006605(13) 0.81855(2)
Dy1B Dy -0.50778(2) 0.493395(13) 0.31855(2)
Dy1B_2 Dy 0.49222(2) 0.493395(13) 0.31855(2)
Dy1C Dy 0.50778(2) 0.993395(13) 1.18145(2)
O2A O 0.4785(3) 0.4147(2) 0.5262(3)
O2C O 0.5215(3) 0.5853(2) 0.4738(3)
O3C O 0.5586(4) 0.6391(2) 0.6574(3)
O4B O 0.3527(3) 0.4161(2) 0.7241(3)
O6B O 0.7262(4) 0.4883(2) 0.6522(4)
loop_
_geom_bond_atom_site_label_1
_geom_bond_atom_site_label_2
_geom_bond_site_symmetry_1
_geom_bond_site_symmetry_2
Dy1 O1 1_555 1_555
O1 N1 1_555 1_555
O2 C4 1_555 1_555
O3 C4 1_555 1_555
O4 N2 1_555 1_555
O5 Dy1 1_555 1_555
O6 C10 1_555 1_555
O7 Dy1 1_555 1_555
O8 Dy1 1_555 1_555
O9 N3 1_555 1_555
N1 C1 1_555 1_555
N2 C7 1_555 1_555
N3 O7 1_555 1_555
C1 H1 1_555 1_555
C2 C1 1_555 1_555
H2 C2 1_555 1_555
C3 C2 1_555 1_555
C4 C3 1_555 1_555
C5 C3 1_555 1_555
H3 C5 1_555 1_555
C6 N1 1_555 1_555
H4 C6 1_555 1_555
C7 H5 1_555 1_555
C8 C7 1_555 1_555
H6 C8 1_555 1_555
C9 C8 1_555 1_555
C10 O5 1_555 1_555
C11 C9 1_555 1_555
H7 C11 1_555 1_555
C12 N2 1_555 1_555
H8 C12 1_555 1_555
Dy1A O2 1_555 1_555
Dy1B O4 1_555 1_555
Dy1B_2 O6 1_555 1_555
Dy1C O2 1_555 1_555
O2A Dy1 1_555 1_555
O2C Dy1 1_555 1_555
O3C Dy1 1_555 1_555
O4B Dy1 1_555 1_555
O6B Dy1 1_555 1_555
O3 Dy1C 1_555 1_555
O8 N3 1_555 1_555
C5 C6 1_555 1_555
C9 C10 1_555 1_555
C11 C12 1_555 1_555
Dy1B_2 O2A 1_555 1_555
Dy1B_2 O2C 1_555 1_555

#END
