
#######################################################################
#
#                 Cambridge Crystallographic Data Centre
#                                CCDC 
#
#######################################################################
#
# If this CIF has been generated from an entry in the Cambridge 
# Structural Database, then it will include bibliographic, chemical, 
# crystal, experimental, refinement or atomic coordinate data resulting 
# from the CCDC's data processing and validation procedures.
#
#######################################################################

data_BONNIC
_chemical_formula_moiety         '(C20 H25 Cd1 N3 O8)n'
_symmetry_cell_setting           monoclinic
_symmetry_space_group_name_H-M   'C c'
_symmetry_Int_Tables_number      9
_space_group_name_Hall           'C -2yc'
loop_
_symmetry_equiv_pos_site_id
_symmetry_equiv_pos_as_xyz
1 x,y,z
2 x,-y,1/2+z
3 1/2+x,1/2+y,z
4 1/2+x,1/2-y,1/2+z
_cell_length_a                   14.6453(12)
_cell_length_b                   16.9993(13)
_cell_length_c                   10.4297(8)
_cell_angle_alpha                90
_cell_angle_beta                 120.913(1)
_cell_angle_gamma                90
_cell_volume                     2227.73
loop_
_atom_site_label
_atom_site_type_symbol
_atom_site_fract_x
_atom_site_fract_y
_atom_site_fract_z
_atom_site_U_iso_or_equiv
_atom_site_thermal_displace_type
Cd1 Cd 0.979209(14) 0.954043(7) 0.749061(16) 0.0191 Uani
N1 N 0.91772(15) 1.08306(11) 0.7188(2) 0.0187 Uani
N2 N 1.01632(16) 0.83498(11) 0.6781(2) 0.0222 Uani
N3 N 0.6588(2) 0.47187(15) -0.0696(3) 0.0243 Uani
O1 O 0.99556(14) 1.01376(10) 0.56117(19) 0.0240 Uani
O2 O 0.94470(14) 1.11540(9) 0.40513(18) 0.0232 Uani
O3 O 0.80262(14) 1.26586(10) 0.34479(18) 0.0286 Uani
O4 O 0.97424(15) 1.29092(10) 0.5061(2) 0.0297 Uani
C1 C 0.87625(19) 1.11510(14) 0.7950(3) 0.0216 Uani
H1 H 0.8751 1.0848 0.8707 0.0260 Uiso
C2 C 0.8353(2) 1.19014(13) 0.7679(3) 0.0226 Uani
H2 H 0.8048 1.2109 0.8220 0.0270 Uiso
C3 C 0.83964(19) 1.23463(14) 0.6600(3) 0.0216 Uani
H3 H 0.8124 1.2868 0.6402 0.0260 Uiso
C4 C 0.88386(18) 1.20328(13) 0.5801(2) 0.0196 Uani
C5 C 0.8884(2) 1.25653(17) 0.4658(3) 0.0222 Uani
C6 C 0.91992(18) 1.12569(13) 0.6109(2) 0.0173 Uani
C7 C 0.95757(19) 1.08103(14) 0.5202(3) 0.0194 Uani
C8 C 1.0668(2) 0.82881(14) 0.6028(3) 0.0229 Uani
H4 H 1.0920 0.8755 0.5811 0.0270 Uiso
C9 C 1.0843(2) 0.75724(17) 0.5544(3) 0.0219 Uani
H5 H 1.1178 0.7557 0.4970 0.0260 Uiso
C10 C 1.05216(19) 0.68755(14) 0.5909(3) 0.0215 Uani
C11 C 1.0025(2) 0.69489(15) 0.6720(3) 0.0299 Uani
H6 H 0.9803 0.6491 0.7008 0.0360 Uiso
C12 C 0.9846(2) 0.76800(14) 0.7119(3) 0.0281 Uani
H7 H 0.9483 0.7712 0.7655 0.0340 Uiso
C13 C 1.0652(2) 0.60893(14) 0.5359(3) 0.0245 Uani
H8 H 1.0800 0.5680 0.6117 0.0290 Uiso
H9 H 1.1261 0.6108 0.5196 0.0290 Uiso
C14 C 0.9636(2) 0.58835(15) 0.3897(3) 0.0265 Uani
H10 H 0.9465 0.6321 0.3182 0.0320 Uiso
H11 H 0.9044 0.5839 0.4092 0.0320 Uiso
C15 C 0.9699(2) 0.51194(14) 0.3169(3) 0.0262 Uani
H12 H 1.0256 0.5168 0.2904 0.0310 Uiso
H13 H 0.9895 0.4679 0.3884 0.0310 Uiso
C16 C 0.8642(2) 0.49504(14) 0.1783(3) 0.0223 Uani
C17 C 0.8216(2) 0.54472(13) 0.0535(3) 0.0257 Uani
H14 H 0.8626 0.5873 0.0508 0.0310 Uiso
C18 C 0.7202(2) 0.53165(14) -0.0653(3) 0.0254 Uani
H15 H 0.6925 0.5666 -0.1480 0.0300 Uiso
C19 C 0.7016(2) 0.42186(15) 0.0470(3) 0.0256 Uani
H16 H 0.6609 0.3775 0.0436 0.0310 Uiso
C20 C 0.8017(2) 0.43171(14) 0.1715(3) 0.0237 Uani
H17 H 0.8278 0.3954 0.2521 0.0280 Uiso
O5 O 0.78978(19) 0.93909(13) 0.5793(3) 0.0337 Uani
H18 H 0.768(2) 0.8939(8) 0.567(3) 0.0400 Uiso
H19 H 0.772(3) 0.9583(16) 0.497(2) 0.0400 Uiso
Cd1B Cd 0.479209(14) 0.454043(7) -0.250939(16) 0.0191 Uani
Cd1A Cd 0.979209(14) 1.045957(7) 0.249061(16) 0.0191 Uani
N3B N 1.1588(2) 0.97187(15) 0.9304(3) 0.0243 Uani
O2A O 0.94470(14) 0.88460(9) 0.90513(18) 0.0232 Uani
O6 O 0.70025(18) 0.79123(13) 0.5427(2) 0.0424 Uani
H20 H 0.6360(8) 0.787(2) 0.510(3) 0.0510 Uiso
H21 H 0.732(2) 0.7729(19) 0.6282(18) 0.0510 Uiso
O7 O 0.71761(17) 1.03030(12) 0.3188(2) 0.0359 Uani
H22 H 0.740(3) 1.0319(15) 0.261(3) 0.0430 Uiso
H23 H 0.686(2) 1.0710(12) 0.313(3) 0.0430 Uiso
O8 O 0.63127(16) 1.17677(12) 0.2976(2) 0.0351 Uani
H24 H 0.6800(15) 1.2065(15) 0.313(3) 0.0420 Uiso
H25 H 0.5807(15) 1.1841(17) 0.2130(18) 0.0420 Uiso
loop_
_atom_site_aniso_label
_atom_site_aniso_U_11
_atom_site_aniso_U_22
_atom_site_aniso_U_33
_atom_site_aniso_U_23
_atom_site_aniso_U_13
_atom_site_aniso_U_12
Cd1 0.02368(8) 0.01591(7) 0.01880(8) 0.00057(9) 0.01161(6) 0.00049(9)
N1 0.0213(11) 0.0176(10) 0.0179(9) -0.0013(8) 0.0106(8) -0.0035(8)
N2 0.0260(11) 0.0185(10) 0.0224(10) -0.0018(8) 0.0127(9) -0.0004(8)
N3 0.0272(13) 0.0222(11) 0.0231(13) -0.0007(11) 0.0127(11) -0.0020(11)
O1 0.0355(10) 0.0158(8) 0.0274(9) 0.0012(7) 0.0210(8) 0.0036(7)
O2 0.0343(10) 0.0203(9) 0.0206(8) 0.0028(7) 0.0181(8) 0.0039(7)
O3 0.0287(10) 0.0281(10) 0.0224(9) 0.0066(7) 0.0084(8) 0.0024(7)
O4 0.0327(11) 0.0259(10) 0.0299(10) -0.0003(8) 0.0156(9) -0.0096(8)
C1 0.0235(13) 0.0251(12) 0.0163(11) -0.0012(9) 0.0104(10) -0.0034(10)
C2 0.0228(12) 0.0244(12) 0.0215(12) -0.0031(9) 0.0121(10) 0.0008(10)
C3 0.0212(12) 0.0167(11) 0.0223(12) -0.0037(9) 0.0078(10) 0.0008(9)
C4 0.0203(12) 0.0188(11) 0.0156(11) -0.0029(9) 0.0063(10) -0.0051(9)
C5 0.0262(15) 0.0171(13) 0.0229(14) -0.0012(11) 0.0123(12) 0.0035(11)
C6 0.0159(11) 0.0195(11) 0.0139(10) -0.0022(8) 0.0058(9) -0.0018(9)
C7 0.0200(12) 0.0188(12) 0.0180(11) -0.0034(9) 0.0088(10) -0.0049(9)
C8 0.0238(12) 0.0200(12) 0.0245(12) 0.0008(10) 0.0122(10) -0.0018(10)
C9 0.0219(14) 0.0212(14) 0.0254(15) 0.0002(11) 0.0141(13) -0.0001(11)
C10 0.0197(13) 0.0205(12) 0.0183(12) -0.0015(9) 0.0054(10) 0.0017(10)
C11 0.0407(16) 0.0185(13) 0.0347(14) -0.0012(10) 0.0224(13) -0.0051(11)
C12 0.0376(15) 0.0245(12) 0.0310(16) -0.0043(10) 0.0240(14) -0.0041(11)
C13 0.0244(13) 0.0195(12) 0.0252(13) -0.0026(10) 0.0096(11) 0.0020(10)
C14 0.0263(14) 0.0208(13) 0.0275(13) -0.0069(10) 0.0103(11) 0.0015(10)
C15 0.0257(14) 0.0206(13) 0.0286(13) -0.0064(10) 0.0113(12) -0.0003(10)
C16 0.0253(13) 0.0199(12) 0.0237(12) -0.0054(9) 0.0140(11) 0.0012(10)
C17 0.0307(15) 0.0200(13) 0.0291(14) -0.0017(9) 0.0173(12) -0.0071(9)
C18 0.0302(14) 0.0251(13) 0.0217(13) 0.0028(10) 0.0139(11) 0.0001(10)
C19 0.0262(14) 0.0185(12) 0.0339(15) 0.0030(10) 0.0168(12) -0.0002(10)
C20 0.0251(13) 0.0225(12) 0.0259(13) 0.0020(10) 0.0149(11) 0.0025(10)
O5 0.0280(12) 0.0285(11) 0.0335(13) 0.0018(10) 0.0079(10) -0.0043(10)
Cd1B 0.02368 0.01591 0.0188 0.00057 0.01161 0.00049
Cd1A 0.02368 0.01591 0.0188 -0.00057 0.01161 -0.00049
N3B 0.0272 0.0222 0.0231 -0.0007 0.0127 -0.002
O2A 0.0343 0.0203 0.0206 -0.0028 0.0181 -0.0039
O6 0.0492(13) 0.0394(12) 0.0339(11) 0.0010(9) 0.0179(11) -0.0096(10)
O7 0.0355(12) 0.0338(11) 0.0368(12) 0.0035(9) 0.0175(10) 0.0020(9)
O8 0.0320(11) 0.0419(11) 0.0318(11) 0.0069(9) 0.0166(9) 0.0001(9)
loop_
_geom_bond_atom_site_label_1
_geom_bond_atom_site_label_2
_geom_bond_site_symmetry_1
_geom_bond_site_symmetry_2
Cd1 N1 1_555 1_555
N1 C1 1_555 1_555
N2 Cd1 1_555 1_555
N3 C18 1_555 1_555
O1 Cd1 1_555 1_555
O2 C7 1_555 1_555
O3 C5 1_555 1_555
O4 C5 1_555 1_555
C1 H1 1_555 1_555
C2 C1 1_555 1_555
H2 C2 1_555 1_555
C3 C2 1_555 1_555
H3 C3 1_555 1_555
C4 C3 1_555 1_555
C5 C4 1_555 1_555
C6 N1 1_555 1_555
C7 O1 1_555 1_555
C8 N2 1_555 1_555
H4 C8 1_555 1_555
C9 C8 1_555 1_555
H5 C9 1_555 1_555
C10 C9 1_555 1_555
C11 C10 1_555 1_555
H6 C11 1_555 1_555
C12 N2 1_555 1_555
H7 C12 1_555 1_555
C13 C10 1_555 1_555
H8 C13 1_555 1_555
H9 C13 1_555 1_555
C14 C13 1_555 1_555
H10 C14 1_555 1_555
H11 C14 1_555 1_555
C15 C14 1_555 1_555
H12 C15 1_555 1_555
H13 C15 1_555 1_555
C16 C15 1_555 1_555
C17 C16 1_555 1_555
H14 C17 1_555 1_555
C18 C17 1_555 1_555
H15 C18 1_555 1_555
C19 N3 1_555 1_555
H16 C19 1_555 1_555
C20 C16 1_555 1_555
H17 C20 1_555 1_555
O5 Cd1 1_555 1_555
H18 O5 1_555 1_555
H19 O5 1_555 1_555
O6 H20 1_555 1_555
H21 O6 1_555 1_555
O7 H22 1_555 1_555
H23 O7 1_555 1_555
O8 H24 1_555 1_555
H25 O8 1_555 1_555
Cd1B N3 1_555 1_555
Cd1A O2 1_555 1_555
N3B Cd1 1_555 1_555
O2A Cd1 1_555 1_555
C4 C6 1_555 1_555
C6 C7 1_555 1_555
C11 C12 1_555 1_555
C19 C20 1_555 1_555

#END
