
#######################################################################
#
#                 Cambridge Crystallographic Data Centre
#                                CCDC 
#
#######################################################################
#
# If this CIF has been generated from an entry in the Cambridge 
# Structural Database, then it will include bibliographic, chemical, 
# crystal, experimental, refinement or atomic coordinate data resulting 
# from the CCDC's data processing and validation procedures.
#
#######################################################################

data_OVUCOY
_chemical_formula_moiety         '(C16 H26 F1 N1 O20 P4 U3)n'
_symmetry_cell_setting           monoclinic
_symmetry_space_group_name_H-M   'P 21/n'
_symmetry_Int_Tables_number      14
_space_group_name_Hall           '-P 2yn'
loop_
_symmetry_equiv_pos_site_id
_symmetry_equiv_pos_as_xyz
1 x,y,z
2 1/2-x,1/2+y,1/2-z
3 -x,-y,-z
4 1/2+x,1/2-y,1/2+z
_cell_length_a                   11.2370(5)
_cell_length_b                   20.8524(9)
_cell_length_c                   14.6189(7)
_cell_angle_alpha                90
_cell_angle_beta                 104.997(1)
_cell_angle_gamma                90
_cell_volume                     3308.8
loop_
_atom_site_label
_atom_site_type_symbol
_atom_site_fract_x
_atom_site_fract_y
_atom_site_fract_z
U1 U 0.776420(18) 0.224929(9) 0.560399(14)
U2 U 0.923260(18) 0.418850(9) 0.537370(14)
U3 U 0.373190(17) 0.485730(9) 0.873370(14)
P1 P 0.20307(12) 0.44779(7) 0.62910(10)
P2 P 0.60175(12) 0.11600(7) 0.38697(10)
P3 P 0.61692(12) 0.36436(7) 0.42618(10)
P4 P 0.12499(12) -0.05358(7) 0.37525(10)
F1 F 0.8643(3) 0.32712(14) 0.5954(2)
O1 O 0.6832(3) 0.23640(18) 0.6399(3)
O2 O 0.8693(3) 0.21384(18) 0.4811(3)
O3 O 0.8840(3) 0.46174(18) 0.6294(3)
O4 O 0.9665(3) 0.37548(18) 0.4467(3)
O5 O 0.3040(3) 0.56014(18) 0.8885(3)
O6 O 0.4453(3) 0.41226(17) 0.8580(3)
O7 O 0.9588(4) 0.23168(18) 0.7000(3)
O8 O 0.1077(3) 0.48825(17) 0.5575(3)
O9 O 0.1262(3) 0.38971(17) 0.6448(3)
O10 O 0.2638(3) 0.48397(18) 0.7178(3)
O11 O 0.7197(3) 0.41252(17) 0.4543(3)
O12 O 0.6546(3) 0.29614(17) 0.4509(3)
O13 O 0.5593(3) 0.36619(17) 0.3157(2)
O14 O 0.7045(3) 0.06901(18) 0.3907(3)
O15 O 0.6190(3) 0.16091(17) 0.4701(3)
O16 O 0.5825(3) 0.15806(17) 0.2944(3)
O17 O 0.0135(3) -0.03885(18) 0.2908(3)
O18 O 0.0770(3) -0.03075(17) 0.4604(3)
O19 O 0.1650(3) -0.12251(17) 0.3786(3)
C1 C 0.3189(5) 0.4235(3) 0.5720(4)
C2 C 0.4419(5) 0.4361(3) 0.6135(4)
H1 H 0.4653 0.4572 0.6731
C3 C 0.5308(5) 0.4181(3) 0.5686(4)
H2 H 0.6151 0.4263 0.5983
C4 C 0.4987(5) 0.3882(3) 0.4807(4)
C5 C 0.3735(5) 0.3763(3) 0.4388(4)
H3 H 0.3494 0.3560 0.3786
C6 C 0.2853(5) 0.3938(3) 0.4839(4)
H4 H 0.2009 0.3855 0.4547
C7 C 0.4645(5) 0.0699(3) 0.3772(4)
C8 C 0.3530(6) 0.0985(3) 0.3782(6)
H5 H 0.3483 0.1439 0.3814
C9 C 0.2486(6) 0.0620(3) 0.3746(5)
H6 H 0.1729 0.0824 0.3743
C10 C 0.2551(5) -0.0046(2) 0.3714(4)
C11 C 0.3657(5) -0.0332(3) 0.3712(5)
H7 H 0.3709 -0.0786 0.3692
C12 C 0.4697(5) 0.0037(3) 0.3741(5)
H8 H 0.5451 -0.0169 0.3739
U1B U 0.223580(18) -0.224929(9) 0.439601(14)
U2_2 U -0.076740(18) 0.418850(9) 0.537370(14)
U2B U 0.076740(18) 0.581150(9) 0.462630(14)
U3C U 0.873190(17) 0.014270(9) 0.373370(14)
U3C_2 U -0.126810(17) 0.014270(9) 0.373370(14)
U3A U 0.126810(17) -0.014270(9) 0.626630(14)
O8_2 O 1.1077(3) 0.48825(17) 0.5575(3)
O8B O 0.8923(3) 0.51175(17) 0.4425(3)
O9_2 O 1.1262(3) 0.38971(17) 0.6448(3)
O14C O 0.2045(3) 0.43099(18) 0.8907(3)
O17C O 0.5135(3) 0.53885(18) 0.7908(3)
O18C O 0.5770(3) 0.53075(17) 0.9604(3)
O18A O 0.4230(3) 0.46925(17) 1.0396(3)
O19B O 0.8350(3) 0.12251(17) 0.6214(3)
O20 O 0.8605(10) -0.1848(5) 0.4860(8)
N1 N 0.3957(5) 0.2207(3) 0.7220(4)
C13 C 0.3659(11) 0.2587(5) 0.6381(8)
H9 H 0.3031 0.2367 0.5891
H10 H 0.4401 0.2651 0.6157
H11 H 0.3341 0.3003 0.6518
C14 C 0.4486(6) 0.1587(3) 0.7071(6)
H12 H 0.3887 0.1344 0.6589
H13 H 0.4693 0.1345 0.7666
H14 H 0.5234 0.1656 0.6858
C15 C 0.4913(5) 0.2558(3) 0.7946(4)
H15 H 0.5643 0.2626 0.7708
H16 H 0.5141 0.2306 0.8531
H17 H 0.4584 0.2974 0.8076
C16 C 0.2854(5) 0.2099(3) 0.7585(4)
H18 H 0.2220 0.1874 0.7105
H19 H 0.2530 0.2513 0.7729
H20 H 0.3084 0.1839 0.8162
loop_
_geom_bond_atom_site_label_1
_geom_bond_atom_site_label_2
_geom_bond_site_symmetry_1
_geom_bond_site_symmetry_2
U1 F1 1_555 1_555
U2 F1 1_555 1_555
U3 O5 1_555 1_555
P1 O8 1_555 1_555
P2 O14 1_555 1_555
P3 O11 1_555 1_555
P4 O17 1_555 1_555
O1 U1 1_555 1_555
O2 U1 1_555 1_555
O3 U2 1_555 1_555
O4 U2 1_555 1_555
O6 U3 1_555 1_555
O7 U1 1_555 1_555
O8 U2_2 1_555 1_555
O9 P1 1_555 1_555
O10 U3 1_555 1_555
O11 U2 1_555 1_555
O12 U1 1_555 1_555
O13 P3 1_555 1_555
O14 U3C 1_555 1_555
O15 U1 1_555 1_555
O16 P2 1_555 1_555
O17 U3C_2 1_555 1_555
O18 P4 1_555 1_555
O19 P4 1_555 1_555
N1 C13 1_555 1_555
C1 P1 1_555 1_555
C2 C1 1_555 1_555
H1 C2 1_555 1_555
C3 C2 1_555 1_555
H2 C3 1_555 1_555
C4 P3 1_555 1_555
C5 C4 1_555 1_555
H3 C5 1_555 1_555
C6 C1 1_555 1_555
H4 C6 1_555 1_555
C7 P2 1_555 1_555
C8 C7 1_555 1_555
H5 C8 1_555 1_555
C9 C8 1_555 1_555
H6 C9 1_555 1_555
C10 P4 1_555 1_555
C11 C10 1_555 1_555
H7 C11 1_555 1_555
C12 C7 1_555 1_555
H8 C12 1_555 1_555
C13 H9 1_555 1_555
H10 C13 1_555 1_555
H11 C13 1_555 1_555
C14 N1 1_555 1_555
H12 C14 1_555 1_555
H13 C14 1_555 1_555
H14 C14 1_555 1_555
C15 N1 1_555 1_555
H15 C15 1_555 1_555
H16 C15 1_555 1_555
H17 C15 1_555 1_555
C16 N1 1_555 1_555
H18 C16 1_555 1_555
H19 C16 1_555 1_555
H20 C16 1_555 1_555
U1B O19 1_555 1_555
U2_2 O9 1_555 1_555
U2B O8 1_555 1_555
U3C_2 O18 1_555 1_555
U3A O18 1_555 1_555
O8_2 U2 1_555 1_555
O8B U2 1_555 1_555
O9_2 U2 1_555 1_555
O14C U3 1_555 1_555
O17C U3 1_555 1_555
O18C U3 1_555 1_555
O18A U3 1_555 1_555
O19B U1 1_555 1_555
P1 O10 1_555 1_555
P2 O15 1_555 1_555
P3 O12 1_555 1_555
C3 C4 1_555 1_555
C5 C6 1_555 1_555
C9 C10 1_555 1_555
C11 C12 1_555 1_555

#END
