
#######################################################################
#
#                 Cambridge Crystallographic Data Centre
#                                CCDC 
#
#######################################################################
#
# If this CIF has been generated from an entry in the Cambridge 
# Structural Database, then it will include bibliographic, chemical, 
# crystal, experimental, refinement or atomic coordinate data resulting 
# from the CCDC's data processing and validation procedures.
#
#######################################################################

data_OVUDAL
_chemical_formula_moiety         '(C18 H28 F1 N1 O19 P4 U3)n'
_symmetry_cell_setting           monoclinic
_symmetry_space_group_name_H-M   'P 21/m'
_symmetry_Int_Tables_number      11
_space_group_name_Hall           '-P 2yb'
loop_
_symmetry_equiv_pos_site_id
_symmetry_equiv_pos_as_xyz
1 x,y,z
2 -x,1/2+y,-z
3 -x,-y,-z
4 x,1/2-y,z
_cell_length_a                   8.5409(6)
_cell_length_b                   19.1605(13)
_cell_length_c                   11.3037(8)
_cell_angle_alpha                90
_cell_angle_beta                 110.327(1)
_cell_angle_gamma                90
_cell_volume                     1734.63
loop_
_atom_site_label
_atom_site_type_symbol
_atom_site_fract_x
_atom_site_fract_y
_atom_site_fract_z
U1 U 0.07705(2) 0.7500 0.280245(17)
U2 U -0.227729(16) 0.507911(7) 0.016160(12)
P1 P -0.23403(11) 0.61555(5) 0.29046(9)
P2 P -0.19895(11) 0.43609(5) 0.77488(9)
F1 F -0.5000 0.5000 0.0000
O1 O 0.1977(4) 0.7500 0.4443(3)
O2 O -0.0419(5) 0.7500 0.1169(3)
O3 O -0.1938(3) 0.42652(14) 0.0964(2)
O4 O -0.2653(3) 0.58796(14) -0.0678(2)
O5 O 0.3525(5) 0.7500 0.2430(4)
H1 H 0.3894 0.7910 0.2477
O6 O -0.1154(3) 0.67596(13) 0.3243(2)
O7 O -0.2105(3) 0.56419(13) 0.1965(2)
O8 O -0.4184(3) 0.64463(13) 0.2369(3)
O9 O -0.1741(3) 0.36145(13) 0.7454(2)
O10 O -0.0592(3) 0.46688(13) 0.8910(2)
O11 O -0.3543(3) 0.44823(13) 0.8125(2)
C1 C -0.2202(4) 0.56603(19) 0.4285(3)
C2 C -0.1931(5) 0.5987(2) 0.5442(4)
H2 H -0.1784 0.6479 0.5509
C3 C -0.1873(5) 0.5604(2) 0.6490(4)
H3 H -0.1684 0.5832 0.7274
C4 C -0.2092(5) 0.48784(19) 0.6402(4)
C5 C -0.2329(5) 0.4550(2) 0.5258(4)
H4 H -0.2452 0.4058 0.5196
C6 C -0.2389(6) 0.4938(2) 0.4200(4)
H5 H -0.2557 0.4709 0.3420
U1A U -0.07705(2) 0.2500 0.719755(17)
U1A_2 U -0.07705(2) 1.2500 0.719755(17)
U2C U -0.227729(16) 0.992089(7) 0.016160(12)
U2B U -0.772271(16) 0.492089(7) -0.016160(12)
U2_2 U -0.227729(16) 0.507911(7) 1.016160(12)
U2B_2 U 0.227729(16) 0.492089(7) 0.983840(12)
U2C_2 U -0.227729(16) 0.992089(7) 1.016160(12)
U2A U 0.227729(16) 1.007911(7) 0.983840(12)
P1C P -0.23403(11) 0.88445(5) 0.29046(9)
P2C P -0.19895(11) 1.06391(5) 0.77488(9)
F1A F -0.5000 1.0000 0.0000
O3C O -0.1938(3) 1.07348(14) 0.0964(2)
O4C O -0.2653(3) 0.91204(14) -0.0678(2)
H1C H 0.3894 0.7090 0.2477
O6C O -0.1154(3) 0.82404(13) 0.3243(2)
O7C O -0.2105(3) 0.93581(13) 0.1965(2)
O8C O -0.4184(3) 0.85537(13) 0.2369(3)
O9C O -0.1741(3) 1.13855(13) 0.7454(2)
O9A O 0.1741(3) 0.86145(13) 0.2546(2)
O9B O 0.1741(3) 0.63855(13) 0.2546(2)
O10C O -0.0592(3) 1.03312(13) 0.8910(2)
O10_2 O -0.0592(3) 0.46688(13) -0.1090(2)
O10B O 0.0592(3) 0.53312(13) 0.1090(2)
O10C_2 O -0.0592(3) 1.03312(13) -0.1090(2)
O10A O 0.0592(3) 0.96688(13) 0.1090(2)
O11C O -0.3543(3) 1.05177(13) 0.8125(2)
O11_2 O -0.3543(3) 0.44823(13) -0.1875(2)
O11C_2 O -0.3543(3) 1.05177(13) -0.1875(2)
C1C C -0.2202(4) 0.93397(19) 0.4285(3)
C2C C -0.1931(5) 0.9013(2) 0.5442(4)
H2C H -0.1784 0.8521 0.5509
C3C C -0.1873(5) 0.9396(2) 0.6490(4)
H3C H -0.1684 0.9168 0.7274
C4C C -0.2092(5) 1.01216(19) 0.6402(4)
C5C C -0.2329(5) 1.0450(2) 0.5258(4)
H4C H -0.2452 1.0942 0.5196
C6C C -0.2389(6) 1.0062(2) 0.4200(4)
H5C H -0.2557 1.0291 0.3420
N1 N -0.5902(7) 0.7500 -0.1522(5)
C7 C -0.4241(10) 0.7500 -0.0463(7)
C8 C -0.6089(6) 0.8154(3) -0.2305(5)
C9 C -0.4781 0.8123 -0.2998
C10 C -0.7209(10) 0.7500 -0.0884(8)
C8C C -0.6089(6) 0.6846(3) -0.2305(5)
C9C C -0.4781 0.6877 -0.2998
loop_
_geom_bond_atom_site_label_1
_geom_bond_atom_site_label_2
_geom_bond_site_symmetry_1
_geom_bond_site_symmetry_2
U1 O1 1_555 1_555
U2 F1 1_555 1_555
P1 O6 1_555 1_555
P2 O9 1_555 1_555
F1 U2B 1_555 1_555
O2 U1 1_555 1_555
O3 U2 1_555 1_555
O4 U2 1_555 1_555
O5 U1 1_555 1_555
H1 O5 1_555 1_555
O6 U1 1_555 1_555
O7 U2 1_555 1_555
O8 P1 1_555 1_555
O9 U1A 1_555 1_555
O10 P2 1_555 1_555
O11 P2 1_555 1_555
N1 C7 1_555 1_555
C1 P1 1_555 1_555
C2 C1 1_555 1_555
H2 C2 1_555 1_555
C3 C2 1_555 1_555
H3 C3 1_555 1_555
C4 P2 1_555 1_555
C5 C4 1_555 1_555
H4 C5 1_555 1_555
C6 C1 1_555 1_555
H5 C6 1_555 1_555
C8 N1 1_555 1_555
C9 C8 1_555 1_555
C10 N1 1_555 1_555
U1A_2 O9C 1_555 1_555
U2C F1A 1_555 1_555
U2_2 O10 1_555 1_555
U2B_2 O10 1_555 1_555
U2C_2 O10C 1_555 1_555
U2A O10C 1_555 1_555
P1C O6C 1_555 1_555
P2C O9C 1_555 1_555
O3C U2C 1_555 1_555
O4C U2C 1_555 1_555
H1C O5 1_555 1_555
O6C U1 1_555 1_555
O7C U2C 1_555 1_555
O8C P1C 1_555 1_555
O9A U1 1_555 1_555
O9B U1 1_555 1_555
O10C P2C 1_555 1_555
O10_2 U2 1_555 1_555
O10B U2 1_555 1_555
O10C_2 U2C 1_555 1_555
O10A U2C 1_555 1_555
O11C U2C_2 1_555 1_555
O11_2 U2 1_555 1_555
O11C_2 U2C 1_555 1_555
C1C P1C 1_555 1_555
C2C C1C 1_555 1_555
H2C C2C 1_555 1_555
C3C C2C 1_555 1_555
H3C C3C 1_555 1_555
C4C P2C 1_555 1_555
C5C C4C 1_555 1_555
H4C C5C 1_555 1_555
C6C C1C 1_555 1_555
H5C C6C 1_555 1_555
C8C N1 1_555 1_555
C9C C8C 1_555 1_555
P1 O7 1_555 1_555
O11 U2_2 1_555 1_555
C3 C4 1_555 1_555
C5 C6 1_555 1_555
P1C O7C 1_555 1_555
P2C O11C 1_555 1_555
C3C C4C 1_555 1_555
C5C C6C 1_555 1_555

#END
