
#######################################################################
#
#                 Cambridge Crystallographic Data Centre
#                                CCDC 
#
#######################################################################
#
# If this CIF has been generated from an entry in the Cambridge 
# Structural Database, then it will include bibliographic, chemical, 
# crystal, experimental, refinement or atomic coordinate data resulting 
# from the CCDC's data processing and validation procedures.
#
#######################################################################

data_NOFMIG01
_chemical_formula_moiety         '(C23 H16 Cd1 O8)n'
_symmetry_cell_setting           orthorhombic
_symmetry_space_group_name_H-M   'P n a 21'
_symmetry_Int_Tables_number      33
_space_group_name_Hall           'P 2c -2n'
loop_
_symmetry_equiv_pos_site_id
_symmetry_equiv_pos_as_xyz
1 x,y,z
2 -x,-y,1/2+z
3 1/2-x,1/2+y,1/2+z
4 1/2+x,1/2-y,z
_cell_length_a                   18.9360(3)
_cell_length_b                   24.5848(4)
_cell_length_c                   4.70537(8)
_cell_angle_alpha                90
_cell_angle_beta                 90
_cell_angle_gamma                90
_cell_volume                     2190.53
loop_
_atom_site_label
_atom_site_type_symbol
_atom_site_fract_x
_atom_site_fract_y
_atom_site_fract_z
Cd1 Cd 0.94712(2) 0.45458(2) 0.90812(18)
O1 O 0.5621(2) 0.2855(2) -0.0524(15)
C1 C 0.4639(3) 0.1351(2) -0.581(2)
O2 O 0.8272(3) 0.34428(19) 0.8915(19)
O3 O 0.0564(2) 0.4777(2) -0.9508(12)
C2 C 0.6571(4) 0.3110(3) 0.371(2)
H1 H 0.6366 0.2766 0.3691
C3 C 0.1109(3) 0.4692(2) -1.104(2)
C4 C 0.4151(3) 0.2292(2) -0.6339(18)
H2 H 0.3831 0.2158 -0.7665
C5 C 0.4144(3) 0.2837(3) -0.5605(19)
C6 C 0.2758(3) 0.3841(3) -1.095(3)
H3 H 0.3189 0.3824 -1.1898
O4 O 0.3670(3) 0.3211(2) -0.6608(12)
C7 C 0.7182(4) 0.4127(3) 0.381(3)
H4 H 0.7392 0.4469 0.3826
O5 O 0.1215(3) 0.4926(2) -1.3383(11)
C8 C 0.4642(3) 0.1946(3) -0.5075(14)
O6 O 0.8373(3) 0.4278(2) 0.7202(12)
C9 C 0.2290(4) 0.4250(3) -1.1611(17)
H5 H 0.2402 0.4503 -1.3007
C10 C 0.4634(4) 0.3046(3) -0.3631(18)
H6 H 0.4635 0.3414 -0.3172
C11 C 0.5119(3) 0.2139(3) -0.3108(15)
H7 H 0.5443 0.1905 -0.2260
C12 C 0.5110(3) 0.2695(3) -0.2398(16)
C13 C 0.6297(4) 0.3512(3) 0.1971(17)
C14 C 0.1639(3) 0.4284(3) -1.0167(14)
C15 C 0.2601(4) 0.3457(3) -0.8931(18)
C16 C 0.7139(4) 0.3208(3) 0.5463(18)
H8 H 0.7318 0.2933 0.6611
C17 C 0.8069(3) 0.3846(3) 0.7301(15)
C18 C 0.7446(3) 0.3730(3) 0.5498(16)
C19 C 0.5660(4) 0.3418(3) 0.0071(18)
H9 H 0.5233 0.3538 0.1023
H10 H 0.5710 0.3623 -0.1681
C20 C 0.1961(4) 0.3492(3) -0.7479(18)
H11 H 0.1851 0.3235 -0.6099
C21 C 0.1488(4) 0.3908(3) -0.8073(18)
H12 H 0.1068 0.3933 -0.7059
C22 C 0.6604(4) 0.4034(3) 0.205(2)
H13 H 0.6422 0.4313 0.0942
C23 C 0.3103(4) 0.2999(3) -0.832(2)
H14 H 0.2860 0.2709 -0.7315
H15 H 0.3287 0.2852 -1.0086
H16 H 0.868(4) 0.357(4) 1.03(2)
O7 O 0.4331(3) 0.1216(2) -0.8094(12)
O8 O 0.4948(3) 0.10337(19) -0.4200(11)
Cd1_2 Cd -0.05288(2) 0.45458(2) -1.09188(18)
Cd1A Cd 0.05288(2) 0.54542(2) -1.59188(18)
Cd1A_2 Cd 0.05288(2) 0.54542(2) -0.59188(18)
Cd1C Cd 0.44712(2) 0.04542(2) -1.09188(18)
Cd1C_2 Cd 0.44712(2) 0.04542(2) -0.09188(18)
O3_2 O 1.0564(2) 0.4777(2) 1.0492(12)
O3A O 0.9436(2) 0.5223(2) 0.5492(12)
O5A O 0.8785(3) 0.5074(2) 1.1617(11)
O7C O 0.9331(3) 0.3784(2) 1.1906(12)
O8C O 0.9948(3) 0.39663(19) 0.5800(11)
loop_
_geom_bond_atom_site_label_1
_geom_bond_atom_site_label_2
_geom_bond_site_symmetry_1
_geom_bond_site_symmetry_2
Cd1 O6 1_555 1_555
O1 C12 1_555 1_555
C1 C8 1_555 1_555
O2 C17 1_555 1_555
O3 C3 1_555 1_555
C2 H1 1_555 1_555
C3 O5 1_555 1_555
C4 H2 1_555 1_555
C5 C4 1_555 1_555
C6 H3 1_555 1_555
O4 C5 1_555 1_555
C7 H4 1_555 1_555
O5 Cd1A 1_555 1_555
C8 C4 1_555 1_555
O6 C17 1_555 1_555
C9 C6 1_555 1_555
H5 C9 1_555 1_555
C10 C5 1_555 1_555
H6 C10 1_555 1_555
C11 C8 1_555 1_555
H7 C11 1_555 1_555
C12 C10 1_555 1_555
C13 C2 1_555 1_555
C14 C3 1_555 1_555
C15 C6 1_555 1_555
C16 C2 1_555 1_555
H8 C16 1_555 1_555
C17 C18 1_555 1_555
C18 C7 1_555 1_555
C19 O1 1_555 1_555
H9 C19 1_555 1_555
H10 C19 1_555 1_555
C20 C15 1_555 1_555
H11 C20 1_555 1_555
C21 C14 1_555 1_555
H12 C21 1_555 1_555
C22 C7 1_555 1_555
H13 C22 1_555 1_555
C23 O4 1_555 1_555
H14 C23 1_555 1_555
H15 C23 1_555 1_555
H16 O2 1_555 1_555
O7 C1 1_555 1_555
O8 C1 1_555 1_555
Cd1_2 O3 1_555 1_555
Cd1A_2 O3 1_555 1_555
Cd1C O7 1_555 1_555
Cd1C_2 O8 1_555 1_555
O3_2 Cd1 1_555 1_555
O3A Cd1 1_555 1_555
O5A Cd1 1_555 1_555
O7C Cd1 1_555 1_555
O8C Cd1 1_555 1_555
C9 C14 1_555 1_555
C11 C12 1_555 1_555
C13 C19 1_555 1_555
C13 C22 1_555 1_555
C15 C23 1_555 1_555
C16 C18 1_555 1_555
C20 C21 1_555 1_555

#END
