
#######################################################################
#
#                 Cambridge Crystallographic Data Centre
#                                CCDC 
#
#######################################################################
#
# If this CIF has been generated from an entry in the Cambridge 
# Structural Database, then it will include bibliographic, chemical, 
# crystal, experimental, refinement or atomic coordinate data resulting 
# from the CCDC's data processing and validation procedures.
#
#######################################################################

data_QODTOU
_chemical_formula_moiety         '(C35 H36 N4 O12 Zn2)n'
_symmetry_cell_setting           orthorhombic
_symmetry_space_group_name_H-M   'P 21 21 2'
_symmetry_Int_Tables_number      18
_space_group_name_Hall           'P 2 2ab'
loop_
_symmetry_equiv_pos_site_id
_symmetry_equiv_pos_as_xyz
1 x,y,z
2 -x,-y,z
3 1/2-x,1/2+y,-z
4 1/2+x,1/2-y,-z
_cell_length_a                   16.397(3)
_cell_length_b                   18.642(3)
_cell_length_c                   7.9656(13)
_cell_angle_alpha                90
_cell_angle_beta                 90
_cell_angle_gamma                90
_cell_volume                     2434.87
loop_
_atom_site_label
_atom_site_type_symbol
_atom_site_fract_x
_atom_site_fract_y
_atom_site_fract_z
C1 C 0.1602(3) 1.1997(3) -0.5914(6)
H1 H 0.1454 1.2374 -0.6617
C2 C 0.0989(3) 1.1629(3) -0.5061(6)
H2 H 0.0446 1.1764 -0.5180
C3 C 0.1195(3) 1.1066(2) -0.4048(5)
C4 C 0.2010(2) 1.0889(2) -0.3891(6)
H3 H 0.2171 1.0510 -0.3211
C5 C 0.2568(3) 1.1279(2) -0.4745(6)
H4 H 0.3114 1.1155 -0.4617
C6 C 0.1764(3) 0.8818(2) 0.4801(5)
H5 H 0.2103 0.8987 0.5650
C7 C 0.1546(3) 0.9278(2) 0.3552(5)
H6 H 0.1730 0.9750 0.3566
C8 C 0.1047(2) 0.9039(2) 0.2252(5)
C9 C 0.0826(2) 0.8322(2) 0.2257(5)
H7 H 0.0518 0.8132 0.1384
C10 C 0.1067(2) 0.7899(2) 0.3562(5)
H8 H 0.0913 0.7419 0.3540
C11 C 0.0182(3) 0.9335(2) -0.0034(5)
H9 H -0.0299 0.9190 0.0588
H10 H 0.0348 0.8942 -0.0754
C12 C -0.0000 1.0000 -0.1078(6)
C13 C 0.0763(2) 1.0152(2) -0.2165(5)
H11 H 0.1224 1.0268 -0.1453
H12 H 0.0900 0.9733 -0.2828
C14 C 0.2496(3) 0.7648(3) 0.9740(6)
C15 C 0.2985(3) 0.7949(3) 1.1129(7)
H13 H 0.2781 0.7766 1.2188
H14 H 0.2927 0.8467 1.1140
C16 C 0.3879(3) 0.7758(3) 1.0958(6)
H15 H 0.4065 0.7885 0.9841
H16 H 0.3946 0.7245 1.1095
C17 C 0.4399(3) 0.8145(3) 1.2249(6)
H17 H 0.4428 0.8648 1.1949
H18 H 0.4132 0.8112 1.3333
C18 C 0.5253(3) 0.7860(3) 1.2418(6)
Zn1 Zn 0.17237(2) 0.74542(2) 0.68840(5)
N1 N 0.2393(2) 1.18329(18) -0.5766(5)
N2 N 0.15094(19) 0.81232(17) 0.4871(4)
O1 O 0.2216(2) 0.7027(2) 0.9736(5)
O2 O 0.2356(2) 0.8057(2) 0.8487(5)
O3 O 0.5472(2) 0.72889(18) 1.1793(5)
O4 O 0.57548(18) 0.82205(17) 1.3281(4)
O5 O 0.08261(18) 0.95217(15) 0.1093(4)
O6 O 0.05763(16) 1.07472(16) -0.3246(4)
C6A C -0.1764(3) 1.1182(2) 0.4801(5)
H5A H -0.2103 1.1013 0.5650
C7A C -0.1546(3) 1.0722(2) 0.3552(5)
H6A H -0.1730 1.0250 0.3566
C8A C -0.1047(2) 1.0961(2) 0.2252(5)
C9A C -0.0826(2) 1.1678(2) 0.2257(5)
H7A H -0.0518 1.1868 0.1384
C10A C -0.1067(2) 1.2101(2) 0.3562(5)
H8A H -0.0913 1.2581 0.3540
C11A C -0.0182(3) 1.0665(2) -0.0034(5)
H9A H 0.0299 1.0810 0.0588
H10A H -0.0348 1.1058 -0.0754
N2A N -0.15094(19) 1.18768(17) 0.4871(4)
O5A O -0.08261(18) 1.04783(15) 0.1093(4)
C1A C -0.1602(3) 0.8003(3) -0.5914(6)
H1A H -0.1454 0.7626 -0.6617
C2A C -0.0989(3) 0.8371(3) -0.5061(6)
H2A H -0.0446 0.8236 -0.5180
C3A C -0.1195(3) 0.8934(2) -0.4048(5)
C4A C -0.2010(2) 0.9111(2) -0.3891(6)
H3A H -0.2171 0.9490 -0.3211
C5A C -0.2568(3) 0.8721(2) -0.4745(6)
H4A H -0.3114 0.8845 -0.4617
C13A C -0.0763(2) 0.9848(2) -0.2165(5)
H11A H -0.1224 0.9732 -0.1453
H12A H -0.0900 1.0267 -0.2828
N1A N -0.2393(2) 0.81671(18) -0.5766(5)
O6A O -0.05763(16) 0.92528(16) -0.3246(4)
C14A C -0.2496(3) 1.2352(3) 0.9740(6)
C15A C -0.2985(3) 1.2051(3) 1.1129(7)
H13A H -0.2781 1.2234 1.2188
H14A H -0.2927 1.1533 1.1140
C16A C -0.3879(3) 1.2242(3) 1.0958(6)
H15A H -0.4065 1.2115 0.9841
H16A H -0.3946 1.2755 1.1095
C17A C -0.4399(3) 1.1855(3) 1.2249(6)
H17A H -0.4428 1.1352 1.1949
H18A H -0.4132 1.1888 1.3333
C18A C -0.5253(3) 1.2140(3) 1.2418(6)
Zn1A Zn -0.17237(2) 1.25458(2) 0.68840(5)
O1A O -0.2216(2) 1.2973(2) 0.9736(5)
O2A O -0.2356(2) 1.1943(2) 0.8487(5)
O3A O -0.5472(2) 1.27111(18) 1.1793(5)
O4A O -0.57548(18) 1.17795(17) 1.3281(4)
Zn1B Zn -0.67237(2) 1.24542(2) 1.31160(5)
Zn1B_2 Zn 0.32763(2) 1.24542(2) -0.68840(5)
Zn1C Zn -0.32763(2) 0.75458(2) -0.68840(5)
Zn1C_2 Zn 0.67237(2) 0.75458(2) 1.31160(5)
N1B N 0.2607(2) 0.68329(18) 0.5766(5)
N1C N -0.2607(2) 1.31671(18) 0.5766(5)
O3B O -0.0472(2) 1.22889(18) 0.8207(5)
O3C O 0.0472(2) 0.77111(18) 0.8207(5)
O4B O -0.07548(18) 1.32205(17) 0.6719(4)
O4C O 0.07548(18) 0.67795(17) 0.6719(4)
loop_
_geom_bond_atom_site_label_1
_geom_bond_atom_site_label_2
_geom_bond_site_symmetry_1
_geom_bond_site_symmetry_2
C1 H1 1_555 1_555
C2 C1 1_555 1_555
H2 C2 1_555 1_555
C3 C2 1_555 1_555
C4 C3 1_555 1_555
H3 C4 1_555 1_555
C5 C4 1_555 1_555
H4 C5 1_555 1_555
C6 H5 1_555 1_555
C7 C6 1_555 1_555
H6 C7 1_555 1_555
C8 C7 1_555 1_555
C9 C8 1_555 1_555
H7 C9 1_555 1_555
C10 C9 1_555 1_555
H8 C10 1_555 1_555
C11 H9 1_555 1_555
H10 C11 1_555 1_555
C12 C11 1_555 1_555
C13 C12 1_555 1_555
H11 C13 1_555 1_555
H12 C13 1_555 1_555
C14 C15 1_555 1_555
C15 H13 1_555 1_555
H14 C15 1_555 1_555
C16 C15 1_555 1_555
H15 C16 1_555 1_555
H16 C16 1_555 1_555
C17 C16 1_555 1_555
H17 C17 1_555 1_555
H18 C17 1_555 1_555
C18 C17 1_555 1_555
Zn1 N2 1_555 1_555
N1 C1 1_555 1_555
N2 C6 1_555 1_555
O1 C14 1_555 1_555
O2 C14 1_555 1_555
O3 C18 1_555 1_555
O4 C18 1_555 1_555
O5 C8 1_555 1_555
O6 C3 1_555 1_555
C6A H5A 1_555 1_555
C7A C6A 1_555 1_555
H6A C7A 1_555 1_555
C8A C7A 1_555 1_555
C9A C8A 1_555 1_555
H7A C9A 1_555 1_555
C10A C9A 1_555 1_555
H8A C10A 1_555 1_555
C11A C12 1_555 1_555
H9A C11A 1_555 1_555
H10A C11A 1_555 1_555
N2A C6A 1_555 1_555
O5A C8A 1_555 1_555
C1A H1A 1_555 1_555
C2A C1A 1_555 1_555
H2A C2A 1_555 1_555
C3A C2A 1_555 1_555
C4A C3A 1_555 1_555
H3A C4A 1_555 1_555
C5A C4A 1_555 1_555
H4A C5A 1_555 1_555
C13A C12 1_555 1_555
H11A C13A 1_555 1_555
H12A C13A 1_555 1_555
N1A C1A 1_555 1_555
O6A C3A 1_555 1_555
C14A C15A 1_555 1_555
C15A H13A 1_555 1_555
H14A C15A 1_555 1_555
C16A C15A 1_555 1_555
H15A C16A 1_555 1_555
H16A C16A 1_555 1_555
C17A C16A 1_555 1_555
H17A C17A 1_555 1_555
H18A C17A 1_555 1_555
C18A C17A 1_555 1_555
Zn1A N2A 1_555 1_555
O1A C14A 1_555 1_555
O2A C14A 1_555 1_555
O3A C18A 1_555 1_555
O4A C18A 1_555 1_555
Zn1B O3A 1_555 1_555
Zn1B_2 N1 1_555 1_555
Zn1C N1A 1_555 1_555
Zn1C_2 O3 1_555 1_555
N1B Zn1 1_555 1_555
N1C Zn1A 1_555 1_555
O3B Zn1A 1_555 1_555
O3C Zn1 1_555 1_555
O4B Zn1A 1_555 1_555
O4C Zn1 1_555 1_555
C5 N1 1_555 1_555
C10 N2 1_555 1_555
C11 O5 1_555 1_555
C13 O6 1_555 1_555
Zn1 O1 1_555 1_555
Zn1 O2 1_555 1_555
O4 Zn1C_2 1_555 1_555
C10A N2A 1_555 1_555
C11A O5A 1_555 1_555
C5A N1A 1_555 1_555
C13A O6A 1_555 1_555
Zn1A O1A 1_555 1_555
Zn1A O2A 1_555 1_555
O4A Zn1B 1_555 1_555

#END
