
#######################################################################
#
#                 Cambridge Crystallographic Data Centre
#                                CCDC 
#
#######################################################################
#
# If this CIF has been generated from an entry in the Cambridge 
# Structural Database, then it will include bibliographic, chemical, 
# crystal, experimental, refinement or atomic coordinate data resulting 
# from the CCDC's data processing and validation procedures.
#
#######################################################################

data_OWAVOY
_chemical_formula_moiety         '(C48 H36 N9 O27 Zn6)n'
_symmetry_cell_setting           monoclinic
_symmetry_space_group_name_H-M   'P 21'
_symmetry_Int_Tables_number      4
_space_group_name_Hall           'P 2yb'
loop_
_symmetry_equiv_pos_site_id
_symmetry_equiv_pos_as_xyz
1 x,y,z
2 -x,1/2+y,-z
_cell_length_a                   19.379(8)
_cell_length_b                   14.639(6)
_cell_length_c                   19.484(7)
_cell_angle_alpha                90
_cell_angle_beta                 116.046(6)
_cell_angle_gamma                90
_cell_volume                     4966.05
loop_
_atom_site_label
_atom_site_type_symbol
_atom_site_fract_x
_atom_site_fract_y
_atom_site_fract_z
O1 O 0.0329(7) 0.4036(10) 0.1358(7)
C1 C 0.1010(11) 0.4168(15) 0.1802(11)
C2 C 0.1583(10) 0.3994(14) 0.1440(9)
C3 C 0.1286(10) 0.3826(13) 0.0674(9)
H1 H 0.0761 0.3846 0.0359
C4 C 0.1807(11) 0.3629(13) 0.0401(9)
C5 C 0.2578(9) 0.3594(12) 0.0843(9)
H2 H 0.2909 0.3452 0.0628
C6 C 0.2857(10) 0.3766(12) 0.1596(10)
C7 C 0.3685(11) 0.3769(13) 0.2081(11)
O2 O 0.3919(7) 0.3962(9) 0.2812(6)
Zn1 Zn 0.58594(12) 0.76808(13) 0.24857(11)
Zn2 Zn 0.48916(12) 0.42923(13) 0.36575(11)
N1 N 0.0287(8) 1.0455(9) -0.2259(8)
C8 C 0.0158(11) 1.0756(11) -0.2921(10)
C9 C 0.0668(15) 1.1101(13) -0.1786(12)
N2 N 0.0732(8) 1.1862(10) -0.2164(8)
N3 N 0.0426(9) 1.1607(10) -0.2906(7)
Zn3 Zn 0.52562(11) 0.36271(13) 0.21898(11)
Zn4 Zn 0.03217(11) 0.91305(13) -0.18855(11)
Zn5 Zn 0.86544(11) 0.79830(13) 0.17992(10)
Zn6 Zn 0.93101(12) 0.73580(13) 0.35888(10)
C10 C 0.5863(16) 0.5657(14) 0.1701(12)
H3 H 0.5569 0.6126 0.1350
H4 H 0.5735 0.5074 0.1451
H5 H 0.6401 0.5774 0.1872
C11 C 0.5693(12) 0.5653(13) 0.2335(10)
C12 C 0.5543(11) 0.6046(12) 0.3321(10)
C13 C 0.548(2) 0.6644(17) 0.3890(14)
H6 H 0.5335 0.7247 0.3681
H7 H 0.5960 0.6668 0.4337
H8 H 0.5090 0.6409 0.4025
C14 C 0.0956(14) 1.1115(14) -0.0914(10)
H9 H 0.0560 1.0888 -0.0789
H10 H 0.1083 1.1730 -0.0730
H11 H 0.1403 1.0735 -0.0678
C15 C -0.0253(14) 1.0227(14) -0.3643(11)
H12 H 0.0032 0.9683 -0.3624
H13 H -0.0300 1.0595 -0.4070
H14 H -0.0755 1.0062 -0.3701
C16 C 0.6616(11) 0.8103(19) 0.1185(10)
H15 H 0.6293 0.8603 0.1177
H16 H 0.6305 0.7576 0.0955
H17 H 0.6900 0.8266 0.0904
C17 C 0.7171(11) 0.7886(13) 0.2002(10)
C18 C 0.7583(11) 0.7451(13) 0.3121(9)
C19 C 0.7594(12) 0.7177(18) 0.3857(10)
H18 H 0.7705 0.6536 0.3940
H19 H 0.7101 0.7299 0.3845
H20 H 0.7982 0.7518 0.4265
C20 C 0.5571(11) 1.2509(13) 0.3555(11)
C21 C 0.5700(9) 1.1579(12) 0.3859(10)
C22 C 0.5782(11) 1.0904(12) 0.3412(10)
H21 H 0.5798 1.1060 0.2957
C23 C 0.5840(12) 1.0006(12) 0.3625(11)
C24 C 0.5878(11) 0.9257(12) 0.3087(11)
C25 C 0.5767(11) 0.9759(13) 0.4292(11)
H22 H 0.5753 0.9149 0.4420
C26 C 0.5716(11) 1.0469(12) 0.4756(10)
C27 C 0.5648(13) 1.0208(14) 0.5482(13)
C28 C 0.5674(11) 1.1341(13) 0.4552(10)
H23 H 0.5628 1.1795 0.4864
C29 C 0.3920(12) 0.8401(12) -0.1471(12)
C30 C 0.3655(10) 0.8323(12) -0.0855(9)
C31 C 0.4153(12) 0.8137(14) -0.0124(11)
H24 H 0.4656 0.7983 -0.0016
C32 C 0.3936(10) 0.8165(13) 0.0499(10)
C33 C 0.4476(10) 0.7976(14) 0.1277(9)
C34 C 0.3142(11) 0.8329(12) 0.0267(9)
H25 H 0.2962 0.8331 0.0638
C35 C 0.2638(10) 0.8480(14) -0.0461(11)
C36 C 0.2894(11) 0.8458(13) -0.1053(10)
H26 H 0.2545 0.8535 -0.1562
C37 C 0.1807(11) 0.8677(14) -0.0707(12)
C38 C 0.1474(13) 0.3412(14) -0.0467(10)
C39 C 0.2353(9) 0.3964(12) 0.1900(9)
H27 H 0.2539 0.4077 0.2420
C40 C 0.0264(12) 0.7462(13) -0.2504(10)
C41 C 0.0162(10) 0.6754(13) -0.3035(9)
C42 C 0.0335(11) 0.5865(11) -0.2807(10)
H28 H 0.0509 0.5722 -0.2293
C43 C 0.0258(11) 0.5165(12) -0.3324(10)
C44 C 0.0498(10) 0.4210(12) -0.3048(10)
C45 C 0.0008(12) 0.5391(12) -0.4071(9)
H29 H -0.0044 0.4935 -0.4422
C46 C -0.0170(11) 0.6265(13) -0.4317(9)
C47 C -0.0427(14) 0.6454(14) -0.5141(11)
C48 C -0.0081(11) 0.6932(13) -0.3799(10)
H30 H -0.0188 0.7533 -0.3968
N4 N 0.5374(9) 0.5159(9) 0.3212(7)
N5 N 0.5445(9) 0.4905(9) 0.2581(9)
N6 N 0.5717(10) 0.6361(10) 0.2775(8)
N7 N 0.7908(9) 0.7798(10) 0.2264(7)
N8 N 0.8173(8) 0.7535(10) 0.2985(7)
N9 N 0.6925(8) 0.7683(10) 0.2522(7)
O3 O 0.5603(8) 1.2673(9) 0.2953(7)
O4 O 0.5448(8) 1.3123(8) 0.3968(7)
O5 O 0.5914(10) 0.9499(9) 0.2514(7)
O6 O 0.5882(8) 0.8452(8) 0.3326(7)
O7 O 0.5964(12) 1.0697(13) 0.6041(9)
O8 O 0.5253(9) 0.9528(11) 0.5441(7)
O9 O 0.3480(8) 0.8514(10) -0.2127(7)
O10 O 0.4653(8) 0.8325(9) -0.1246(7)
O11 O 0.5134(7) 0.7777(9) 0.1406(6)
O12 O 0.4255(8) 0.8057(15) 0.1770(7)
O13 O 0.1444(7) 0.9075(10) -0.1315(7)
O14 O 0.1571(8) 0.8509(14) -0.0206(9)
O15 O 0.1277(8) 0.4372(14) 0.2465(8)
O16 O 0.4128(7) 0.3606(11) 0.1799(7)
O17 O 0.1962(8) 0.3233(9) -0.0719(6)
O18 O 0.0781(8) 0.3398(11) -0.0843(7)
O19 O 0.0142(8) 0.8272(8) -0.2726(7)
O20 O 0.0463(11) 0.7280(10) -0.1811(8)
O21 O -0.0319(9) 0.7248(10) -0.5323(7)
O22 O -0.0788(11) 0.5917(11) -0.5640(8)
O23 O 0.0339(8) 0.3615(9) -0.3565(7)
O24 O 0.0803(8) 0.4086(8) -0.2367(7)
O1A O -0.0329(7) 0.9036(10) -0.1358(7)
Zn2_2 Zn 0.48916(12) 1.42923(13) 0.36575(11)
Zn2A Zn 0.51084(12) 0.92923(13) 0.63425(11)
N2A N 0.9268(8) 0.6862(10) 0.2164(8)
N3A N 0.9574(9) 0.6607(10) 0.2906(7)
Zn3_2 Zn 0.52562(11) 1.36271(13) 0.21898(11)
Zn3A Zn 0.47438(11) 0.86271(13) -0.21898(11)
Zn4A Zn -0.03217(11) 0.41305(13) 0.18855(11)
Zn5A Zn 0.13456(11) 1.29830(13) -0.17992(10)
Zn5A_2 Zn 0.13456(11) 0.29830(13) -0.17992(10)
Zn6A Zn 0.06899(12) 1.23580(13) -0.35888(10)
Zn6_2 Zn -0.06899(12) 0.73580(13) -0.64112(10)
Zn6A_2 Zn 0.06899(12) 0.23580(13) -0.35888(10)
O3_2 O 0.5603(8) 0.2673(9) 0.2953(7)
O4_2 O 0.5448(8) 0.3123(8) 0.3968(7)
O8A O 0.4747(9) 0.4528(11) 0.4559(7)
O9A O 0.6520(8) 0.3514(10) 0.2127(7)
O10A O 0.5347(8) 0.3325(9) 0.1246(7)
O17A O 0.8038(8) 0.8233(9) 0.0719(6)
O21_2 O 0.9681(9) 0.7248(10) 0.4677(7)
O23A O 0.9661(8) 0.8615(9) 0.3565(7)
O24A O 0.9197(8) 0.9086(8) 0.2367(7)
O25 O 0.308(3) 0.108(3) 0.084(3)
O26 O 0.2248(17) 0.055(2) 0.8349(18)
O27 O 0.188(3) 0.866(3) 0.611(3)
loop_
_geom_bond_atom_site_label_1
_geom_bond_atom_site_label_2
_geom_bond_site_symmetry_1
_geom_bond_site_symmetry_2
O1 C1 1_555 1_555
C1 C2 1_555 1_555
C2 C3 1_555 1_555
C3 H1 1_555 1_555
C4 C3 1_555 1_555
C5 C4 1_555 1_555
H2 C5 1_555 1_555
C6 C5 1_555 1_555
C7 C6 1_555 1_555
O2 C7 1_555 1_555
Zn1 N6 1_555 1_555
Zn2 O2 1_555 1_555
N1 C8 1_555 1_555
C8 N3 1_555 1_555
C9 N1 1_555 1_555
N2 C9 1_555 1_555
N3 N2 1_555 1_555
Zn3 N5 1_555 1_555
Zn4 N1 1_555 1_555
Zn5 N7 1_555 1_555
Zn6 N8 1_555 1_555
C10 H3 1_555 1_555
H4 C10 1_555 1_555
H5 C10 1_555 1_555
C11 C10 1_555 1_555
C12 C13 1_555 1_555
C13 H6 1_555 1_555
H7 C13 1_555 1_555
H8 C13 1_555 1_555
C14 C9 1_555 1_555
H9 C14 1_555 1_555
H10 C14 1_555 1_555
H11 C14 1_555 1_555
C15 C8 1_555 1_555
H12 C15 1_555 1_555
H13 C15 1_555 1_555
H14 C15 1_555 1_555
C16 H15 1_555 1_555
H16 C16 1_555 1_555
H17 C16 1_555 1_555
C17 C16 1_555 1_555
C18 C19 1_555 1_555
C19 H18 1_555 1_555
H19 C19 1_555 1_555
H20 C19 1_555 1_555
C20 C21 1_555 1_555
C21 C22 1_555 1_555
C22 H21 1_555 1_555
C23 C22 1_555 1_555
C24 C23 1_555 1_555
C25 C23 1_555 1_555
H22 C25 1_555 1_555
C26 C25 1_555 1_555
C27 C26 1_555 1_555
C28 C21 1_555 1_555
H23 C28 1_555 1_555
C29 C30 1_555 1_555
C30 C31 1_555 1_555
C31 H24 1_555 1_555
C32 C31 1_555 1_555
C33 C32 1_555 1_555
C34 C32 1_555 1_555
H25 C34 1_555 1_555
C35 C34 1_555 1_555
C36 C30 1_555 1_555
H26 C36 1_555 1_555
C37 C35 1_555 1_555
C38 C4 1_555 1_555
C39 C2 1_555 1_555
H27 C39 1_555 1_555
C40 C41 1_555 1_555
C41 C42 1_555 1_555
C42 H28 1_555 1_555
C43 C42 1_555 1_555
C44 C43 1_555 1_555
C45 C43 1_555 1_555
H29 C45 1_555 1_555
C46 C45 1_555 1_555
C47 C46 1_555 1_555
C48 C41 1_555 1_555
H30 C48 1_555 1_555
N4 Zn2 1_555 1_555
N5 C11 1_555 1_555
N6 C11 1_555 1_555
N7 C17 1_555 1_555
N8 C18 1_555 1_555
N9 Zn1 1_555 1_555
O3 C20 1_555 1_555
O4 C20 1_555 1_555
O5 C24 1_555 1_555
O6 Zn1 1_555 1_555
O7 C27 1_555 1_555
O8 C27 1_555 1_555
O9 C29 1_555 1_555
O10 C29 1_555 1_555
O11 Zn1 1_555 1_555
O12 C33 1_555 1_555
O13 Zn4 1_555 1_555
O14 C37 1_555 1_555
O15 C1 1_555 1_555
O16 C7 1_555 1_555
O17 C38 1_555 1_555
O18 C38 1_555 1_555
O19 Zn4 1_555 1_555
O20 C40 1_555 1_555
O21 C47 1_555 1_555
O22 C47 1_555 1_555
O23 C44 1_555 1_555
O24 C44 1_555 1_555
O1A Zn4 1_555 1_555
Zn2_2 O4 1_555 1_555
Zn2A O8 1_555 1_555
N2A Zn5 1_555 1_555
N3A Zn6 1_555 1_555
Zn3_2 O3 1_555 1_555
Zn3A O9 1_555 1_555
Zn4A O1 1_555 1_555
Zn5A N2 1_555 1_555
Zn5A_2 O17 1_555 1_555
Zn6A N3 1_555 1_555
Zn6_2 O21 1_555 1_555
Zn6A_2 O23 1_555 1_555
O3_2 Zn3 1_555 1_555
O4_2 Zn2 1_555 1_555
O8A Zn2 1_555 1_555
O9A Zn3 1_555 1_555
O10A Zn3 1_555 1_555
O17A Zn5 1_555 1_555
O21_2 Zn6 1_555 1_555
O23A Zn6 1_555 1_555
O24A Zn5 1_555 1_555
C6 C39 1_555 1_555
Zn3 O16 1_555 1_555
C12 N4 1_555 1_555
C12 N6 1_555 1_555
C17 N9 1_555 1_555
C18 N9 1_555 1_555
C24 O6 1_555 1_555
C26 C28 1_555 1_555
C33 O11 1_555 1_555
C35 C36 1_555 1_555
C37 O13 1_555 1_555
C40 O19 1_555 1_555
C46 C48 1_555 1_555
N4 N5 1_555 1_555
N7 N8 1_555 1_555
O10 Zn3A 1_555 1_555
O24 Zn5A_2 1_555 1_555
N2A N3A 1_555 1_555

#END
