
#######################################################################
#
#                 Cambridge Crystallographic Data Centre
#                                CCDC 
#
#######################################################################
#
# If this CIF has been generated from an entry in the Cambridge 
# Structural Database, then it will include bibliographic, chemical, 
# crystal, experimental, refinement or atomic coordinate data resulting 
# from the CCDC's data processing and validation procedures.
#
#######################################################################

data_KOHKOI
_chemical_formula_moiety         '(C86 H53 K1 O34 Zn6)n'
_symmetry_cell_setting           tetragonal
_symmetry_space_group_name_H-M   'I 41 2 2'
_symmetry_Int_Tables_number      98
_space_group_name_Hall           'I 4bw 2bw'
loop_
_symmetry_equiv_pos_site_id
_symmetry_equiv_pos_as_xyz
1 x,y,z
2 x,1/2-y,1/4-z
3 1/2-x,1/2-y,1/2+z
4 1/2-x,y,3/4-z
5 1/2+y,1/2+x,1/2-z
6 1/2+y,-x,3/4+z
7 -y,1/2+x,1/4+z
8 -y,-x,-z
9 1/2+x,1/2+y,1/2+z
10 1/2+x,-y,3/4-z
11 -x,-y,z
12 -x,1/2+y,1/4-z
13 y,x,-z
14 y,1/2-x,1/4+z
15 1/2-y,x,3/4+z
16 1/2-y,1/2-x,1/2-z
_cell_length_a                   32.441(2)
_cell_length_b                   32.441(2)
_cell_length_c                   47.814(3)
_cell_angle_alpha                90
_cell_angle_beta                 90
_cell_angle_gamma                90
_cell_volume                     50320.3
loop_
_atom_site_label
_atom_site_type_symbol
_atom_site_fract_x
_atom_site_fract_y
_atom_site_fract_z
_atom_site_U_iso_or_equiv
_atom_site_thermal_displace_type
Zn1 Zn 0.51558(3) 0.11723(3) 0.147540(17) 0.0798 Uani
Zn2 Zn 0.43349(3) 0.14925(3) 0.18485(2) 0.0938 Uani
Zn3 Zn 0.52905(2) 0.17001(3) 0.20557(2) 0.0808 Uani
Zn4 Zn 0.5000 0.0000 -0.184543(19) 0.0443 Uani
Zn5 Zn 0.58942(2) 0.01709(2) -0.205071(16) 0.0545 Uani
Zn6 Zn 0.5000 0.0000 -0.2500 0.0482 Uani
K1 K 0.49138(7) 0.2500 0.1250 0.0684 Uani
O1 O 0.49242(17) 0.16883(16) 0.11267(10) 0.0807 Uani
O2 O 0.52973(16) 0.11349(17) 0.10713(11) 0.0923 Uani
O3 O 0.53685(15) 0.02669(14) -0.15407(9) 0.0703 Uani
O4 O 0.59172(15) 0.05690(14) -0.17272(10) 0.0743 Uani
O5 O 0.57109(18) 0.10550(15) 0.16107(11) 0.0973 Uani
O6 O 0.56548(17) 0.12251(16) 0.20611(12) 0.0930 Uani
O7 O 0.43772(17) 0.22562(14) 0.16612(10) 0.0780 Uani
O8 O 0.38681(15) 0.18628(15) 0.17922(11) 0.0827 Uani
O9 O 0.60168(14) -0.03880(14) -0.19141(10) 0.0697 Uani
O10 O 0.53624(12) -0.05352(15) -0.18231(10) 0.0710 Uani
O11 O 0.49618(18) 0.18413(18) 0.23726(11) 0.1103 Uani
O12 O 0.43618(18) 0.15547(17) 0.22568(12) 0.1003 Uani
O13 O 0.54778(15) 0.27773(14) 0.08777(12) 0.0850 Uani
O14 O 0.56970(13) 0.21493(15) 0.20557(12) 0.0810 Uani
O15 O 0.63697(13) 0.03423(16) -0.22704(12) 0.0833 Uani
O16 O 0.61016(17) 0.0051(2) -0.26451(12) 0.1167 Uani
H1 H 0.5910 -0.0001 -0.2529 0.1750 Uiso
O17 O 0.41667(16) 0.10622(19) 0.15965(16) 0.1337 Uani
O18 O 0.47452(17) 0.07255(16) 0.14857(12) 0.0957 Uani
O19 O 0.49232(13) 0.15695(12) 0.17440(8) 0.0687 Uani
H2 H 0.4919 0.1793 0.1651 0.0820 Uiso
O20 O 0.53303(10) 0.02708(10) -0.21769(7) 0.0423 Uani
H3 H 0.5285 0.0529 -0.2177 0.0510 Uiso
O21 O 0.45284(11) 0.04716(11) -0.2500 0.0600 Uani
C1 C 0.5118(3) 0.1454(3) 0.09809(16) 0.0760 Uani
C2 C 0.5164(2) 0.1551(2) 0.06801(15) 0.0670 Uani
C3 C 0.5411(3) 0.1289(2) 0.05123(16) 0.0863 Uani
H4 H 0.5517 0.1045 0.0585 0.1030 Uiso
C4 C 0.5492(3) 0.1405(2) 0.02348(16) 0.0863 Uani
H5 H 0.5665 0.1239 0.0128 0.1030 Uiso
C5 C 0.5327(2) 0.1753(2) 0.01145(14) 0.0653 Uani
C6 C 0.5077(2) 0.19970(19) 0.02897(14) 0.0653 Uani
H6 H 0.4959 0.2236 0.0218 0.0780 Uiso
C7 C 0.5003(2) 0.1892(2) 0.05580(13) 0.0620 Uani
H7 H 0.4835 0.2063 0.0665 0.0740 Uiso
C8 C 0.5448(2) 0.1899(2) -0.01707(14) 0.0683 Uani
C9 C 0.5440(2) 0.1621(2) -0.03954(16) 0.0747 Uani
H8 H 0.5356 0.1350 -0.0368 0.0890 Uiso
C10 C 0.5559(2) 0.1758(3) -0.06625(15) 0.0803 Uani
C11 C 0.5675(2) 0.2165(2) -0.07034(15) 0.0743 Uani
H9 H 0.5758 0.2256 -0.0879 0.0890 Uiso
C12 C 0.5664(2) 0.2432(2) -0.04824(15) 0.0660 Uani
C13 C 0.5548(2) 0.22989(19) -0.02228(14) 0.0673 Uani
H10 H 0.5537 0.2488 -0.0077 0.0810 Uiso
C14 C 0.5595(3) 0.1439(2) -0.08963(15) 0.0780 Uani
C15 C 0.5286(3) 0.1130(3) -0.09224(16) 0.0917 Uani
H11 H 0.5072 0.1122 -0.0793 0.1100 Uiso
C16 C 0.5294(3) 0.0848(2) -0.11281(17) 0.0897 Uani
H12 H 0.5090 0.0647 -0.1139 0.1070 Uiso
C17 C 0.5610(2) 0.0860(2) -0.13238(15) 0.0667 Uani
C18 C 0.5907(3) 0.1171(3) -0.12978(18) 0.1133 Uani
H13 H 0.6112 0.1188 -0.1433 0.1360 Uiso
C19 C 0.5912(3) 0.1443(2) -0.10900(17) 0.0997 Uani
H14 H 0.6126 0.1633 -0.1075 0.1200 Uiso
C20 C 0.5633(2) 0.0536(2) -0.15485(13) 0.0613 Uani
C21 C 0.5775(2) 0.2870(2) -0.05278(15) 0.0750 Uani
C22 C 0.5697(3) 0.3062(2) -0.07771(16) 0.0893 Uani
H15 H 0.5574 0.2915 -0.0922 0.1070 Uiso
C23 C 0.5804(3) 0.3486(2) -0.08163(16) 0.0913 Uani
H16 H 0.5754 0.3613 -0.0987 0.1090 Uiso
C24 C 0.5982(2) 0.3705(2) -0.06009(15) 0.0717 Uani
C25 C 0.6060(3) 0.3507(2) -0.03545(16) 0.0963 Uani
H17 H 0.6186 0.3648 -0.0208 0.1160 Uiso
C26 C 0.5954(3) 0.3097(2) -0.03210(16) 0.0930 Uani
H18 H 0.6006 0.2971 -0.0150 0.1120 Uiso
C27 C 0.5854(2) 0.1095(3) 0.1852(2) 0.0810 Uani
C28 C 0.4000(2) 0.2192(2) 0.16974(15) 0.0643 Uani
C29 C 0.3705(2) 0.2542(2) 0.16369(13) 0.0613 Uani
C30 C 0.3293(2) 0.2476(2) 0.16680(15) 0.0753 Uani
H19 H 0.3195 0.2227 0.1738 0.0910 Uiso
C31 C 0.3030(2) 0.2781(3) 0.15952(17) 0.0853 Uani
H20 H 0.2749 0.2738 0.1622 0.1020 Uiso
C32 C 0.3156(2) 0.3151(2) 0.14844(14) 0.0663 Uani
C33 C 0.3570(2) 0.3205(2) 0.14551(15) 0.0720 Uani
H21 H 0.3666 0.3448 0.1375 0.0860 Uiso
C34 C 0.3847(2) 0.2918(2) 0.15374(14) 0.0697 Uani
H22 H 0.4128 0.2972 0.1527 0.0830 Uiso
C35 C 0.28528(19) 0.3461(2) 0.13616(15) 0.0663 Uani
C36 C 0.2488(2) 0.3556(2) 0.14771(15) 0.0723 Uani
H23 H 0.2415 0.3433 0.1645 0.0870 Uiso
C37 C 0.2217(2) 0.3832(2) 0.13553(15) 0.0663 Uani
C38 C 0.2334(2) 0.4016(2) 0.11017(17) 0.0733 Uani
H24 H 0.2162 0.4210 0.1018 0.0880 Uiso
C39 C 0.27113(19) 0.39085(19) 0.09729(16) 0.0620 Uani
C40 C 0.2959(2) 0.3637(2) 0.11109(16) 0.0673 Uani
H25 H 0.3212 0.3569 0.1032 0.0810 Uiso
C41 C 0.1807(2) 0.3939(2) 0.14842(16) 0.0750 Uani
C42 C 0.1559(3) 0.3657(2) 0.16026(18) 0.1007 Uani
H26 H 0.1642 0.3383 0.1607 0.1210 Uiso
C43 C 0.1185(2) 0.3766(2) 0.17177(16) 0.0863 Uani
H27 H 0.1030 0.3564 0.1807 0.1040 Uiso
C44 C 0.10357(19) 0.4152(2) 0.17070(14) 0.0597 Uani
C45 C 0.1273(2) 0.4449(2) 0.15781(15) 0.0677 Uani
H28 H 0.1174 0.4718 0.1568 0.0810 Uiso
C46 C 0.1644(2) 0.4361(2) 0.14661(17) 0.0827 Uani
H29 H 0.1796 0.4566 0.1378 0.0990 Uiso
C47 C 0.5735(2) -0.0619(2) -0.18275(14) 0.0567 Uani
C48 C 0.28273(19) 0.4092(2) 0.07008(14) 0.0610 Uani
C49 C 0.2732(2) 0.4486(2) 0.06170(17) 0.0793 Uani
H30 H 0.2566 0.4646 0.0732 0.0950 Uiso
C50 C 0.2871(2) 0.4650(2) 0.03757(17) 0.0823 Uani
H31 H 0.2811 0.4923 0.0332 0.0990 Uiso
C51 C 0.3098(2) 0.4420(2) 0.01959(15) 0.0637 Uani
C52 C 0.3209(2) 0.4023(2) 0.02627(17) 0.0860 Uani
H32 H 0.3374 0.3867 0.0144 0.1030 Uiso
C53 C 0.3062(2) 0.3859(2) 0.05196(17) 0.0873 Uani
H33 H 0.3125 0.3588 0.0567 0.1050 Uiso
C54 C 0.4600(2) 0.1759(3) 0.24181(16) 0.0747 Uani
C55 C 0.5698(2) 0.2670(2) 0.06743(18) 0.0643 Uani
C56 C 0.59813(18) 0.23146(19) 0.07116(16) 0.0593 Uani
C57 C 0.6218(2) 0.2181(2) 0.04837(16) 0.0750 Uani
H34 H 0.6217 0.2328 0.0317 0.0900 Uiso
C58 C 0.6453(2) 0.1829(2) 0.05106(17) 0.0830 Uani
H35 H 0.6617 0.1745 0.0362 0.0990 Uiso
C59 C 0.6449(2) 0.1591(2) 0.07586(16) 0.0687 Uani
C60 C 0.62246(19) 0.1746(2) 0.09799(14) 0.0637 Uani
H36 H 0.6227 0.1604 0.1149 0.0760 Uiso
C61 C 0.59923(19) 0.2113(2) 0.09603(15) 0.0627 Uani
H37 H 0.5850 0.2214 0.1115 0.0750 Uiso
C62 C 0.6643(2) 0.1175(2) 0.07762(14) 0.0660 Uani
C63 C 0.7011(2) 0.1091(2) 0.06474(16) 0.0793 Uani
H38 H 0.7151 0.1299 0.0552 0.0950 Uiso
C64 C 0.7174(2) 0.0697(2) 0.06590(17) 0.0810 Uani
C65 C 0.6980(2) 0.0395(2) 0.08037(16) 0.0867 Uani
H39 H 0.7096 0.0134 0.0818 0.1040 Uiso
C66 C 0.6601(2) 0.0485(2) 0.09317(14) 0.0703 Uani
C67 C 0.6449(2) 0.0873(2) 0.09164(14) 0.0657 Uani
H40 H 0.6202 0.0932 0.1006 0.0790 Uiso
C68 C 0.75606(14) 0.05918(18) 0.04935(11) 0.0943 Uani
C69 C 0.75911(13) 0.06947(18) 0.02120(11) 0.1100 Uani
H41 H 0.7377 0.0834 0.0124 0.1320 Uiso
C70 C 0.79424(16) 0.05894(17) 0.00617(8) 0.1007 Uani
H42 H 0.7963 0.0658 -0.0127 0.1210 Uiso
C71 C 0.82632(13) 0.03812(17) 0.01929(10) 0.0830 Uani
C72 C 0.82326(14) 0.02783(18) 0.04743(11) 0.1173 Uani
H43 H 0.8447 0.0139 0.0562 0.1410 Uiso
C73 C 0.78813(17) 0.03836(19) 0.06246(9) 0.1140 Uani
H44 H 0.7861 0.0315 0.0813 0.1370 Uiso
C74 C 0.6368(2) 0.0251(2) -0.2530(2) 0.0833 Uani
C75 C 0.6355(2) 0.0152(2) 0.10786(15) 0.0657 Uani
C76 C 0.6555(2) -0.0172(2) 0.12179(17) 0.0887 Uani
H45 H 0.6841 -0.0186 0.1223 0.1070 Uiso
C77 C 0.6307(2) -0.0481(2) 0.13521(17) 0.0833 Uani
H46 H 0.6435 -0.0703 0.1440 0.1000 Uiso
C78 C 0.5889(2) -0.0455(2) 0.13521(17) 0.0730 Uani
C79 C 0.5691(2) -0.0142(3) 0.12232(17) 0.0877 Uani
H47 H 0.5405 -0.0132 0.1221 0.1050 Uiso
C80 C 0.5927(2) 0.0171(2) 0.10913(15) 0.0817 Uani
H48 H 0.5793 0.0395 0.1011 0.0980 Uiso
C81 C 0.4367(3) 0.0775(2) 0.14824(18) 0.0817 Uani
Zn1J Zn 0.48442(3) -0.11723(3) 0.147540(17) 0.0798 Uani
Zn1E Zn 0.61723(3) 0.48442(3) -0.102460(17) 0.0798 Uani
Zn2N Zn 0.35075(3) 0.43349(3) -0.06515(2) 0.0938 Uani
Zn2J Zn 0.56651(3) -0.14925(3) 0.18485(2) 0.0938 Uani
Zn3N Zn 0.32999(3) 0.52905(2) -0.04443(2) 0.0808 Uani
Zn3E Zn 0.67001(3) 0.47095(2) -0.04443(2) 0.0808 Uani
Zn3A Zn 0.52905(2) 0.32999(3) 0.04443(2) 0.0808 Uani
Zn4G Zn 0.0000 0.5000 0.184543(19) 0.0443 Uani
Zn5G Zn -0.01709(2) 0.41058(2) 0.205071(16) 0.0545 Uani
Zn5C Zn 0.91058(2) 0.01709(2) -0.044929(16) 0.0545 Uani
O1A O 0.49242(17) 0.33117(16) 0.13733(10) 0.0807 Uani
O3J O 0.46315(15) -0.02669(14) -0.15407(9) 0.0703 Uani
O5E O 0.60550(15) 0.42891(18) -0.08893(11) 0.0973 Uani
O6E O 0.62251(16) 0.43452(17) -0.04389(12) 0.0930 Uani
O7A O 0.43772(17) 0.27438(14) 0.08388(10) 0.0780 Uani
O9G O 0.03880(14) 0.39832(14) 0.19141(10) 0.0697 Uani
O10J O 0.46376(12) 0.05352(15) -0.18231(10) 0.0710 Uani
O10G O 0.05352(15) 0.46376(12) 0.18231(10) 0.0710 Uani
O11N O 0.31587(18) 0.49618(18) -0.01274(11) 0.1103 Uani
O12N O 0.34453(17) 0.43618(18) -0.02432(12) 0.1003 Uani
O13A O 0.54778(15) 0.22227(14) 0.16223(12) 0.0850 Uani
O14A O 0.56970(13) 0.28507(15) 0.04443(12) 0.0810 Uani
O15C O 0.86303(13) 0.03423(16) -0.02296(12) 0.0833 Uani
O16C O 0.88984(17) 0.0051(2) 0.01451(12) 0.1167 Uani
H1C H 0.9090 -0.0001 0.0029 0.1750 Uiso
O17J O 0.58333(16) -0.10622(19) 0.15965(16) 0.1337 Uani
O18J O 0.52548(17) -0.07255(16) 0.14857(12) 0.0957 Uani
O20J O 0.46697(10) -0.02708(10) -0.21769(7) 0.0423 Uani
O20D O 0.52708(10) 0.03303(10) -0.28231(7) 0.0423 Uani
O20O O 0.47292(10) -0.03303(10) -0.28231(7) 0.0423 Uani
O21D O 0.54716(11) -0.04716(11) -0.2500 0.0600 Uani
C24F C 0.6295(2) 0.0982(2) 0.18991(15) 0.0717 Uani
C27E C 0.6095(3) 0.4146(2) -0.0648(2) 0.0810 Uani
C44G C 0.5848(2) -0.10357(19) -0.17070(14) 0.0597 Uani
C47G C 0.0619(2) 0.4265(2) 0.18275(14) 0.0567 Uani
C51M C 0.4420(2) 0.1902(2) 0.26959(15) 0.0637 Uani
C54N C 0.3241(3) 0.4600(2) -0.00819(16) 0.0747 Uani
C55A C 0.5698(2) 0.2330(2) 0.18257(18) 0.0643 Uani
C71C C 0.67368(13) 0.03812(17) -0.26929(10) 0.0830 Uani
C74C C 0.8632(2) 0.0251(2) 0.0030(2) 0.0833 Uani
C78J C 0.4111(2) 0.0455(2) 0.13521(17) 0.0730 Uani
C81J C 0.5633(3) -0.0775(2) 0.14824(18) 0.0817 Uani
loop_
_atom_site_aniso_label
_atom_site_aniso_U_11
_atom_site_aniso_U_22
_atom_site_aniso_U_33
_atom_site_aniso_U_23
_atom_site_aniso_U_13
_atom_site_aniso_U_12
Zn1 0.0704(6) 0.1163(7) 0.0526(5) -0.0180(5) 0.0097(4) -0.0183(5)
Zn2 0.0691(6) 0.1288(8) 0.0836(7) -0.0501(6) -0.0269(5) 0.0485(6)
Zn3 0.0586(5) 0.0916(6) 0.0923(7) -0.0369(5) 0.0105(5) -0.0144(4)
Zn4 0.0451(6) 0.0459(6) 0.0420(6) 0.000 0.000 -0.0011(5)
Zn5 0.0472(4) 0.0642(5) 0.0522(4) 0.0001(4) 0.0055(4) -0.0029(3)
Zn6 0.0528(5) 0.0528(5) 0.0390(8) 0.000 0.000 -0.0047(7)
K1 0.0778(16) 0.0627(13) 0.0648(14) 0.0062(11) 0.000 0.000
O1 0.114(4) 0.082(4) 0.046(3) -0.004(3) 0.008(3) -0.004(3)
O2 0.113(4) 0.096(4) 0.068(4) 0.012(3) 0.002(3) 0.013(3)
O3 0.077(3) 0.071(3) 0.063(3) -0.009(2) -0.008(3) -0.016(3)
O4 0.074(3) 0.085(3) 0.064(3) -0.025(3) 0.005(3) -0.011(3)
O5 0.07 0.165 0.057 -0.004 -0.014 0.022
O6 0.092 0.118 0.069 0.009 0.012 0.015
O7 0.083(4) 0.073(3) 0.078(4) 0.009(3) -0.001(3) 0.032(3)
O8 0.082(4) 0.063(3) 0.103(4) 0.014(3) 0.000(3) 0.010(3)
O9 0.064 0.069 0.076 0.011 0.005 0.01
O10 0.076 0.049 0.088 0.008 -0.017 0.011
O11 0.07 0.153 0.108 -0.043 0.03 -0.034
O12 0.105 0.115 0.081 -0.013 0.018 -0.016
O13 0.088 0.07 0.097 0.016 0.021 0.032
O14 0.068 0.083 0.092 0.016 -0.015 -0.014
O15 0.061 0.108 0.081 -0.004 0.024 -0.019
O16 0.081 0.159 0.11 -0.02 0.028 -0.059
O17 0.072(4) 0.109(5) 0.220(8) -0.082(5) -0.012(4) 0.012(3)
O18 0.064(4) 0.105(4) 0.118(5) -0.018(3) 0.008(3) 0.007(3)
O19 0.089(3) 0.058(3) 0.059(3) 0.011(2) -0.009(2) -0.001(2)
O20 0.042(2) 0.046(2) 0.039(2) -0.0030(18) -0.0020(18) 0.0011(17)
O21 0.058(2) 0.058(2) 0.064(4) -0.006(2) -0.006(2) 0.013(3)
C1 0.084(6) 0.089(6) 0.055(6) 0.023(5) -0.012(4) -0.028(5)
C2 0.080(5) 0.065(5) 0.056(5) 0.000(4) 0.000(4) -0.022(4)
C3 0.129(7) 0.072(5) 0.058(5) 0.010(4) -0.004(5) 0.019(5)
C4 0.131(7) 0.056(5) 0.072(6) -0.010(4) 0.005(5) 0.006(5)
C5 0.099(5) 0.041(4) 0.056(5) 0.005(3) 0.001(4) -0.002(4)
C6 0.077(5) 0.056(4) 0.063(5) -0.009(4) 0.021(4) 0.007(4)
C7 0.076(5) 0.065(5) 0.045(4) -0.006(4) 0.009(4) -0.001(4)
C8 0.095(5) 0.064(5) 0.046(4) -0.012(4) 0.000(4) 0.010(4)
C9 0.102(6) 0.052(4) 0.070(6) 0.003(4) 0.007(4) 0.000(4)
C10 0.096(6) 0.104(7) 0.041(4) -0.012(5) -0.002(4) -0.002(5)
C11 0.116(6) 0.053(5) 0.054(5) 0.009(4) -0.001(4) -0.015(4)
C12 0.077(5) 0.067(5) 0.054(5) 0.002(4) 0.011(4) 0.001(4)
C13 0.120(6) 0.038(4) 0.044(4) -0.010(3) 0.002(4) -0.004(4)
C14 0.110(6) 0.076(5) 0.048(5) -0.010(4) -0.009(5) -0.002(5)
C15 0.101(6) 0.107(6) 0.067(5) -0.025(5) 0.004(5) -0.022(5)
C16 0.110(7) 0.087(6) 0.072(5) -0.030(5) 0.011(5) -0.022(5)
C17 0.069(5) 0.073(5) 0.058(5) -0.012(4) 0.003(4) -0.023(4)
C18 0.116(7) 0.144(8) 0.080(6) -0.043(6) 0.055(5) -0.052(6)
C19 0.125(7) 0.101(6) 0.073(6) -0.049(5) 0.041(5) -0.058(5)
C20 0.067(5) 0.081(6) 0.036(4) 0.002(4) -0.011(4) -0.005(4)
C21 0.111(5) 0.069(4) 0.045(4) 0.001(3) 0.000(4) -0.003(4)
C22 0.129(5) 0.088(4) 0.051(4) 0.003(4) 0.007(4) -0.028(4)
C23 0.128(5) 0.089(4) 0.057(4) 0.008(4) -0.005(4) -0.016(4)
C24 0.099(5) 0.069(4) 0.047(4) -0.001(3) -0.005(4) -0.006(4)
C25 0.152(6) 0.087(4) 0.050(4) -0.003(4) -0.015(4) -0.019(4)
C26 0.146(6) 0.083(4) 0.050(4) 0.010(4) -0.010(4) -0.013(4)
C27 0.083 0.075 0.085 0.002 0.009 0.003
C28 0.056(5) 0.074(6) 0.063(5) 0.005(4) -0.002(4) 0.020(4)
C29 0.058(5) 0.069(5) 0.057(4) 0.006(4) 0.014(3) 0.015(4)
C30 0.076(6) 0.062(5) 0.088(6) 0.034(4) 0.009(4) 0.017(4)
C31 0.048(4) 0.102(7) 0.106(7) 0.019(5) 0.017(4) -0.002(4)
C32 0.072(5) 0.057(5) 0.070(5) 0.013(4) 0.012(4) 0.002(4)
C33 0.048(4) 0.070(5) 0.098(6) 0.024(4) 0.018(4) 0.021(4)
C34 0.073(5) 0.063(5) 0.073(5) 0.024(4) 0.010(4) 0.010(4)
C35 0.048(4) 0.076(5) 0.075(5) 0.020(4) 0.007(4) 0.021(4)
C36 0.062(5) 0.077(5) 0.078(5) 0.024(4) 0.010(4) 0.036(4)
C37 0.064(5) 0.072(5) 0.063(5) 0.004(4) 0.016(4) 0.011(4)
C38 0.051(4) 0.064(5) 0.105(7) -0.004(4) 0.013(4) 0.012(3)
C39 0.047(4) 0.051(4) 0.088(6) -0.005(4) 0.016(4) 0.001(3)
C40 0.051(4) 0.064(5) 0.087(6) 0.014(4) 0.001(4) 0.016(4)
C41 0.067(5) 0.076(5) 0.082(6) 0.016(4) 0.014(4) 0.011(4)
C42 0.093(6) 0.081(6) 0.128(8) 0.033(5) 0.048(6) 0.045(5)
C43 0.077(6) 0.087(6) 0.095(6) 0.025(5) 0.028(5) 0.015(5)
C44 0.049(4) 0.062(5) 0.068(5) -0.002(4) 0.002(3) 0.024(4)
C45 0.055(5) 0.065(5) 0.083(6) -0.008(4) 0.007(4) 0.000(4)
C46 0.073(5) 0.063(5) 0.112(7) 0.017(4) 0.025(5) 0.014(4)
C47 0.06 0.045 0.065 -0.007 -0.014 0.022
C48 0.051(4) 0.073(5) 0.059(5) 0.004(4) 0.000(4) 0.000(4)
C49 0.079(5) 0.072(5) 0.087(6) 0.022(4) 0.027(4) 0.044(4)
C50 0.102(6) 0.050(4) 0.095(7) 0.009(4) 0.029(5) 0.027(4)
C51 0.063(5) 0.061(5) 0.067(5) 0.009(4) -0.004(4) -0.003(4)
C52 0.108(6) 0.066(5) 0.084(6) 0.022(4) 0.036(5) 0.016(4)
C53 0.107(6) 0.067(5) 0.088(6) 0.019(5) 0.014(5) 0.037(4)
C54 0.08 0.069 0.075 -0.009 -0.002 -0.006
C55 0.062 0.059 0.072 0.008 0.006 0
C56 0.047 0.052 0.079 -0.007 0.016 0.005
C57 0.087 0.065 0.073 0.008 0.02 0.015
C58 0.083 0.076 0.09 0.01 0.04 0.014
C59 0.056 0.07 0.08 0.013 0.017 0.007
C60 0.07 0.066 0.055 0.005 0.02 0.017
C61 0.061 0.069 0.058 -0.003 0.014 0.008
C62 0.066 0.066 0.066 0.017 0.019 0.034
C63 0.066 0.068 0.104 0.003 0.034 0.024
C64 0.067 0.081 0.095 0.008 0.029 0.016
C65 0.087 0.082 0.091 0.025 0.048 0.041
C66 0.071 0.076 0.064 0.007 0.029 0.009
C67 0.065 0.059 0.073 0.012 0.03 0.019
C68 0.078 0.113 0.092 0.024 0.044 0.038
C69 0.072 0.159 0.099 0.034 0.042 0.038
C70 0.076 0.142 0.084 0.017 0.021 0.033
C71 0.071 0.101 0.077 0.024 0.025 0.024
C72 0.095 0.158 0.099 0.037 0.017 0.058
C73 0.088 0.163 0.091 0.04 0.043 0.054
C74 0.064 0.09 0.096 -0.023 0.026 -0.022
C75 0.059 0.07 0.068 -0.008 0.013 0.01
C76 0.076 0.076 0.114 0.006 0.004 0.02
C77 0.072 0.056 0.122 0.036 0.006 0.012
C78 0.052 0.051 0.116 0.021 -0.013 -0.004
C79 0.059 0.111 0.093 0.024 -0.004 -0.005
C80 0.079 0.08 0.086 0.031 -0.007 0.023
C81 0.085(6) 0.053(5) 0.107(7) -0.018(4) 0.007(5) 0.006(5)
Zn1J 0.0704 0.1163 0.0526 0.018 -0.0097 -0.0183
Zn1E 0.1163 0.0704 0.0526 -0.0097 -0.018 0.0183
Zn2N 0.1288 0.0691 0.0836 -0.0269 0.0501 -0.0485
Zn2J 0.0691 0.1288 0.0836 0.0501 0.0269 0.0485
Zn3N 0.0916 0.0586 0.0923 0.0105 0.0369 0.0144
Zn3E 0.0916 0.0586 0.0923 -0.0105 -0.0369 0.0144
Zn3A 0.0586 0.0916 0.0923 -0.0369 -0.0105 0.0144
Zn4G 0.0459 0.0451 0.042 0 0 -0.0011
Zn5G 0.0642 0.0472 0.0522 0.0055 0.0001 -0.0029
Zn5C 0.0472 0.0642 0.0522 -0.0001 0.0055 0.0029
O1A 0.114 0.082 0.046 -0.004 -0.008 0.004
O3J 0.077 0.071 0.063 0.009 0.008 -0.016
O5E 0.165(6) 0.070(3) 0.057(4) 0.014(3) -0.004(3) -0.022(3)
O6E 0.118(4) 0.092(4) 0.069(4) -0.012(3) 0.009(3) -0.015(3)
O7A 0.083 0.073 0.078 0.009 0.001 -0.032
O9G 0.069(3) 0.064(3) 0.076(3) 0.005(2) 0.011(3) 0.010(3)
O10J 0.076 0.049 0.088 -0.008 0.017 0.011
O10G 0.049(3) 0.076(3) 0.088(4) -0.017(3) 0.008(2) 0.011(2)
O11N 0.153(5) 0.070(4) 0.108(5) 0.030(3) 0.043(4) 0.034(4)
O12N 0.115(4) 0.105(4) 0.081(4) 0.018(3) 0.013(3) 0.016(4)
O13A 0.088 0.07 0.097 0.016 -0.021 -0.032
O14A 0.068 0.083 0.092 0.016 0.015 0.014
O15C 0.061 0.108 0.081 0.004 0.024 0.019
O16C 0.081 0.159 0.11 0.02 0.028 0.059
O17J 0.072 0.109 0.22 0.082 0.012 0.012
O18J 0.064 0.105 0.118 0.018 -0.008 0.007
O20J 0.042 0.046 0.039 0.003 0.002 0.0011
O20D 0.046 0.042 0.039 0.002 0.003 0.0011
O20O 0.046 0.042 0.039 -0.002 -0.003 0.0011
O21D 0.058 0.058 0.064 0.006 0.006 0.013
C24F 0.069 0.099 0.047 -0.005 0.001 0.006
C27E 0.075(5) 0.083(6) 0.085(7) -0.009(6) 0.002(5) -0.003(4)
C44G 0.062 0.049 0.068 0.002 -0.002 0.024
C47G 0.045(4) 0.060(5) 0.065(5) -0.014(4) -0.007(4) 0.022(4)
C51M 0.061 0.063 0.067 0.004 0.009 0.003
C54N 0.069(5) 0.080(6) 0.075(6) -0.002(5) 0.009(4) 0.006(4)
C55A 0.062 0.059 0.072 0.008 -0.006 0
C71C 0.071 0.101 0.077 -0.024 0.025 -0.024
C74C 0.064 0.09 0.096 0.023 0.026 0.022
C78J 0.052(5) 0.051(4) 0.116(7) -0.021(4) 0.013(4) -0.004(4)
C81J 0.085 0.053 0.107 0.018 -0.007 0.006
loop_
_geom_bond_atom_site_label_1
_geom_bond_atom_site_label_2
_geom_bond_site_symmetry_1
_geom_bond_site_symmetry_2
Zn1 O1 1_555 1_555
Zn2 O8 1_555 1_555
Zn3 O6 1_555 1_555
Zn4 O3 1_555 1_555
Zn5 O4 1_555 1_555
Zn6 O20 1_555 1_555
K1 O1 1_555 1_555
O1 C1 1_555 1_555
O2 Zn1 1_555 1_555
O3 C20 1_555 1_555
O4 C20 1_555 1_555
O5 Zn1 1_555 1_555
O6 C27 1_555 1_555
O7 K1 1_555 1_555
O8 C28 1_555 1_555
O9 Zn5 1_555 1_555
O10 Zn4 1_555 1_555
O11 Zn3 1_555 1_555
O12 Zn2 1_555 1_555
O13 K1 1_555 1_555
O14 Zn3 1_555 1_555
O15 Zn5 1_555 1_555
O16 H1 1_555 1_555
O17 Zn2 1_555 1_555
O18 Zn1 1_555 1_555
O19 Zn1 1_555 1_555
H2 O19 1_555 1_555
O20 Zn4 1_555 1_555
H3 O20 1_555 1_555
O21 Zn6 1_555 1_555
C1 O2 1_555 1_555
C2 C1 1_555 1_555
C3 C2 1_555 1_555
H4 C3 1_555 1_555
C4 C3 1_555 1_555
H5 C4 1_555 1_555
C5 C4 1_555 1_555
C6 C5 1_555 1_555
H6 C6 1_555 1_555
C7 C2 1_555 1_555
H7 C7 1_555 1_555
C8 C5 1_555 1_555
C9 C8 1_555 1_555
H8 C9 1_555 1_555
C10 C9 1_555 1_555
C11 C10 1_555 1_555
H9 C11 1_555 1_555
C12 C11 1_555 1_555
C13 C8 1_555 1_555
H10 C13 1_555 1_555
C14 C10 1_555 1_555
C15 C14 1_555 1_555
H11 C15 1_555 1_555
C16 C15 1_555 1_555
H12 C16 1_555 1_555
C17 C16 1_555 1_555
C18 C17 1_555 1_555
H13 C18 1_555 1_555
C19 C14 1_555 1_555
H14 C19 1_555 1_555
C20 C17 1_555 1_555
C21 C12 1_555 1_555
C22 C21 1_555 1_555
H15 C22 1_555 1_555
C23 C22 1_555 1_555
H16 C23 1_555 1_555
C24 C23 1_555 1_555
C25 C24 1_555 1_555
H17 C25 1_555 1_555
C26 C21 1_555 1_555
H18 C26 1_555 1_555
C27 O5 1_555 1_555
C28 O7 1_555 1_555
C29 C28 1_555 1_555
C30 C29 1_555 1_555
H19 C30 1_555 1_555
C31 C30 1_555 1_555
H20 C31 1_555 1_555
C32 C31 1_555 1_555
C33 C32 1_555 1_555
H21 C33 1_555 1_555
C34 C29 1_555 1_555
H22 C34 1_555 1_555
C35 C32 1_555 1_555
C36 C35 1_555 1_555
H23 C36 1_555 1_555
C37 C36 1_555 1_555
C38 C37 1_555 1_555
H24 C38 1_555 1_555
C39 C38 1_555 1_555
C40 C35 1_555 1_555
H25 C40 1_555 1_555
C41 C37 1_555 1_555
C42 C41 1_555 1_555
H26 C42 1_555 1_555
C43 C42 1_555 1_555
H27 C43 1_555 1_555
C44 C43 1_555 1_555
C45 C44 1_555 1_555
H28 C45 1_555 1_555
C46 C41 1_555 1_555
H29 C46 1_555 1_555
C47 O9 1_555 1_555
C48 C39 1_555 1_555
C49 C48 1_555 1_555
H30 C49 1_555 1_555
C50 C49 1_555 1_555
H31 C50 1_555 1_555
C51 C50 1_555 1_555
C52 C51 1_555 1_555
H32 C52 1_555 1_555
C53 C48 1_555 1_555
H33 C53 1_555 1_555
C54 O11 1_555 1_555
C55 O13 1_555 1_555
C56 C55 1_555 1_555
C57 C56 1_555 1_555
H34 C57 1_555 1_555
C58 C57 1_555 1_555
H35 C58 1_555 1_555
C59 C58 1_555 1_555
C60 C59 1_555 1_555
H36 C60 1_555 1_555
C61 C56 1_555 1_555
H37 C61 1_555 1_555
C62 C59 1_555 1_555
C63 C62 1_555 1_555
H38 C63 1_555 1_555
C64 C63 1_555 1_555
C65 C64 1_555 1_555
H39 C65 1_555 1_555
C66 C65 1_555 1_555
C67 C62 1_555 1_555
H40 C67 1_555 1_555
C68 C64 1_555 1_555
C69 C68 1_555 1_555
H41 C69 1_555 1_555
C70 C69 1_555 1_555
H42 C70 1_555 1_555
C71 C70 1_555 1_555
C72 C71 1_555 1_555
H43 C72 1_555 1_555
C73 C68 1_555 1_555
H44 C73 1_555 1_555
C74 O15 1_555 1_555
C75 C66 1_555 1_555
C76 C75 1_555 1_555
H45 C76 1_555 1_555
C77 C76 1_555 1_555
H46 C77 1_555 1_555
C78 C77 1_555 1_555
C79 C78 1_555 1_555
H47 C79 1_555 1_555
C80 C75 1_555 1_555
H48 C80 1_555 1_555
C81 O17 1_555 1_555
Zn1J O18J 1_555 1_555
Zn1E O5E 1_555 1_555
Zn2N O12N 1_555 1_555
Zn2J O17J 1_555 1_555
Zn3N O11N 1_555 1_555
Zn3E O6E 1_555 1_555
Zn3A O14A 1_555 1_555
Zn4G O10G 1_555 1_555
Zn5G O9G 1_555 1_555
Zn5C O15C 1_555 1_555
O1A K1 1_555 1_555
O3J Zn4 1_555 1_555
O5E C27E 1_555 1_555
O6E C27E 1_555 1_555
O7A K1 1_555 1_555
O9G C47G 1_555 1_555
O10J Zn4 1_555 1_555
O10G C47G 1_555 1_555
O11N C54N 1_555 1_555
O12N C54N 1_555 1_555
O13A K1 1_555 1_555
O14A C55 1_555 1_555
O15C C74C 1_555 1_555
O16C H1C 1_555 1_555
O17J C81J 1_555 1_555
O18J C81J 1_555 1_555
O20J Zn4 1_555 1_555
O20D Zn6 1_555 1_555
O20O Zn6 1_555 1_555
O21D Zn6 1_555 1_555
C24F C27 1_555 1_555
C27E C24 1_555 1_555
C44G C47 1_555 1_555
C47G C44 1_555 1_555
C51M C54 1_555 1_555
C54N C51 1_555 1_555
C55A O14 1_555 1_555
C71C C74 1_555 1_555
C74C C71 1_555 1_555
C78J C81 1_555 1_555
C81J C78 1_555 1_555
Zn2 O19 1_555 1_555
Zn3 O19 1_555 1_555
Zn5 O20 1_555 1_555
Zn6 O20J 1_555 1_555
O10 C47 1_555 1_555
O12 C54 1_555 1_555
O16 C74 1_555 1_555
O18 C81 1_555 1_555
C6 C7 1_555 1_555
C12 C13 1_555 1_555
C18 C19 1_555 1_555
C25 C26 1_555 1_555
C33 C34 1_555 1_555
C39 C40 1_555 1_555
C45 C46 1_555 1_555
C52 C53 1_555 1_555
C60 C61 1_555 1_555
C66 C67 1_555 1_555
C72 C73 1_555 1_555
C79 C80 1_555 1_555
O13A C55A 1_555 1_555
O16C C74C 1_555 1_555

#END
