
#######################################################################
#
#                 Cambridge Crystallographic Data Centre
#                                CCDC 
#
#######################################################################
#
# If this CIF has been generated from an entry in the Cambridge 
# Structural Database, then it will include bibliographic, chemical, 
# crystal, experimental, refinement or atomic coordinate data resulting 
# from the CCDC's data processing and validation procedures.
#
#######################################################################

data_BIYSUZ
_chemical_formula_moiety         '(C27 H23 La2 N5 O14)n'
_symmetry_cell_setting           orthorhombic
_symmetry_space_group_name_H-M   'P n m a'
_symmetry_Int_Tables_number      62
_space_group_name_Hall           '-P 2ac 2n'
loop_
_symmetry_equiv_pos_site_id
_symmetry_equiv_pos_as_xyz
1 x,y,z
2 1/2-x,-y,1/2+z
3 -x,1/2+y,-z
4 1/2+x,1/2-y,1/2-z
5 -x,-y,-z
6 1/2+x,y,1/2-z
7 x,1/2-y,z
8 1/2-x,1/2+y,1/2+z
_cell_length_a                   8.1241(3)
_cell_length_b                   30.3843(10)
_cell_length_c                   15.6616(5)
_cell_angle_alpha                90
_cell_angle_beta                 90
_cell_angle_gamma                90
_cell_volume                     3865.99
loop_
_atom_site_label
_atom_site_type_symbol
_atom_site_fract_x
_atom_site_fract_y
_atom_site_fract_z
La1 La 0.93440(4) 0.59121(2) 0.70363(2)
O1 O 0.8897(5) 0.46119(13) 0.3895(3)
O2 O 0.7418(5) 0.40625(12) 0.3387(2)
O3 O 0.4941(6) 0.52466(13) 0.7102(2)
O4 O 0.7389(5) 0.53863(13) 0.6513(3)
O5 O 1.1554(5) 0.63204(11) 0.8160(2)
O6 O 0.9888(5) 0.67043(12) 0.7339(3)
C1 C 0.6608(7) 0.43974(17) 0.4719(3)
C2 C 0.5288(8) 0.41202(18) 0.4866(4)
H1 H 0.5069 0.3894 0.4463
N1 N 0.4306(7) 0.41547(16) 0.5547(3)
C3 C 0.4595(7) 0.44872(19) 0.6088(4)
H2 H 0.3875 0.4523 0.6561
C4 C 0.5892(7) 0.47823(17) 0.5995(3)
C5 C 0.6921(7) 0.47300(17) 0.5305(3)
H3 H 0.7839 0.4920 0.5230
C6 C 0.7676(8) 0.43579(17) 0.3938(4)
C7 C 0.6089(7) 0.51632(17) 0.6586(3)
C8 C 1.1480(7) 0.71064(16) 0.8315(4)
C9 C 1.2456(8) 0.71234(18) 0.9044(4)
H4 H 1.2804 0.6854 0.9293
N2 N 1.2929(10) 0.7500 0.9413(5)
C10 C 1.0977(10) 0.7500 0.7953(5)
H5 H 1.0294 0.7500 0.7461
C11 C 1.0964(7) 0.66846(18) 0.7920(3)
O7 O 0.9390(6) 0.61618(13) 0.5501(2)
C12 C 0.9385(8) 0.5929(2) 0.4848(4)
H6 H 0.8952 0.5640 0.4905
N3 N 0.9903(10) 0.6039(2) 0.4108(4)
C13 C 0.9845(12) 0.5736(4) 0.3377(5)
H7 H 1.0969 0.5671 0.3187
H8 H 0.9231 0.5873 0.2908
H9 H 0.9298 0.5463 0.3548
C14 C 1.098(2) 0.6422(5) 0.3974(8)
H10 H 1.1075 0.6587 0.4509
H11 H 1.0501 0.6612 0.3532
H12 H 1.2067 0.6322 0.3792
O5F O 1.1554(5) 0.86796(11) 0.8160(2)
O6F O 0.9888(5) 0.82957(12) 0.7339(3)
C8F C 1.1480(7) 0.78936(16) 0.8315(4)
C9F C 1.2456(8) 0.78766(18) 0.9044(4)
H4F H 1.2804 0.8146 0.9293
C11F C 1.0964(7) 0.83154(18) 0.7920(3)
La1D La 1.06560(4) 0.40879(2) 0.29637(2)
O1D O 1.1103(5) 0.53881(13) 0.6105(3)
O2D O 1.2582(5) 0.59375(12) 0.6613(2)
O3D O 1.5059(6) 0.47534(13) 0.2898(2)
O4D O 1.2611(5) 0.46137(13) 0.3487(3)
C1D C 1.3392(7) 0.56026(17) 0.5281(3)
C2D C 1.4712(8) 0.58798(18) 0.5134(4)
H1D H 1.4931 0.6106 0.5537
N1D N 1.5694(7) 0.58453(16) 0.4453(3)
C3D C 1.5405(7) 0.55128(19) 0.3912(4)
H2D H 1.6125 0.5477 0.3439
C4D C 1.4108(7) 0.52177(17) 0.4005(3)
C5D C 1.3079(7) 0.52700(17) 0.4695(3)
H3D H 1.2161 0.5080 0.4770
C6D C 1.2324(8) 0.56421(17) 0.6062(4)
C7D C 1.3911(7) 0.48368(17) 0.3414(3)
O7D O 1.0610(6) 0.38382(13) 0.4499(2)
C12D C 1.0615(8) 0.4071(2) 0.5152(4)
H6D H 1.1048 0.4360 0.5095
N3D N 1.0097(10) 0.3961(2) 0.5892(4)
C13D C 1.0155(12) 0.4264(4) 0.6623(5)
H7D H 0.9031 0.4329 0.6813
H8D H 1.0769 0.4127 0.7092
H9D H 1.0702 0.4537 0.6452
C14D C 0.902(2) 0.3578(5) 0.6026(8)
H10D H 0.8925 0.3413 0.5491
H11D H 0.9499 0.3388 0.6468
H12D H 0.7933 0.3678 0.6208
La1A La 0.56560(4) 0.40879(2) 0.20363(2)
La1A_2 La 1.56560(4) 0.40879(2) 0.20363(2)
La1C La 1.43440(4) 0.90879(2) 0.79637(2)
La1E La 0.43440(4) 0.59121(2) 0.79637(2)
La1E_2 La 1.43440(4) 0.59121(2) 0.79637(2)
La1F La 0.93440(4) 0.90879(2) 0.70363(2)
O2A O 0.7582(5) 0.59375(12) 0.8387(2)
O2E O 1.2418(5) 0.40625(12) 0.1613(2)
O3A O 1.0059(6) 0.47534(13) 0.2102(2)
O3E O 0.9941(6) 0.52466(13) 0.7898(2)
O5A O 1.3446(5) 0.36796(11) 0.3160(2)
O5D O 0.8446(5) 0.36796(11) 0.1840(2)
O5E O 0.6554(5) 0.63204(11) 0.6840(2)
O6D O 1.0112(5) 0.32957(12) 0.2661(3)
loop_
_geom_bond_atom_site_label_1
_geom_bond_atom_site_label_2
_geom_bond_site_symmetry_1
_geom_bond_site_symmetry_2
La1 O4 1_555 1_555
O1 C6 1_555 1_555
O2 C6 1_555 1_555
O3 C7 1_555 1_555
O4 C7 1_555 1_555
O5 La1 1_555 1_555
O6 La1 1_555 1_555
C1 C2 1_555 1_555
C2 H1 1_555 1_555
N1 C2 1_555 1_555
C3 N1 1_555 1_555
H2 C3 1_555 1_555
C4 C3 1_555 1_555
C5 C1 1_555 1_555
H3 C5 1_555 1_555
C6 C1 1_555 1_555
C7 C4 1_555 1_555
C8 C9 1_555 1_555
C9 H4 1_555 1_555
N2 C9 1_555 1_555
C10 C8 1_555 1_555
H5 C10 1_555 1_555
C11 O5 1_555 1_555
O7 La1 1_555 1_555
C12 O7 1_555 1_555
H6 C12 1_555 1_555
N3 C12 1_555 1_555
C13 N3 1_555 1_555
H7 C13 1_555 1_555
H8 C13 1_555 1_555
H9 C13 1_555 1_555
C14 N3 1_555 1_555
H10 C14 1_555 1_555
H11 C14 1_555 1_555
H12 C14 1_555 1_555
O5F C11F 1_555 1_555
O6F C11F 1_555 1_555
C8F C10 1_555 1_555
C9F N2 1_555 1_555
H4F C9F 1_555 1_555
C11F C8F 1_555 1_555
La1D O1 1_555 1_555
O1D La1 1_555 1_555
O2D La1 1_555 1_555
O3D C7D 1_555 1_555
O4D La1D 1_555 1_555
C1D C2D 1_555 1_555
C2D H1D 1_555 1_555
N1D C2D 1_555 1_555
C3D N1D 1_555 1_555
H2D C3D 1_555 1_555
C4D C3D 1_555 1_555
C5D C1D 1_555 1_555
H3D C5D 1_555 1_555
C6D O1D 1_555 1_555
C7D O4D 1_555 1_555
O7D La1D 1_555 1_555
C12D O7D 1_555 1_555
H6D C12D 1_555 1_555
N3D C12D 1_555 1_555
C13D N3D 1_555 1_555
H7D C13D 1_555 1_555
H8D C13D 1_555 1_555
H9D C13D 1_555 1_555
C14D N3D 1_555 1_555
H10D C14D 1_555 1_555
H11D C14D 1_555 1_555
H12D C14D 1_555 1_555
La1A O2 1_555 1_555
La1A_2 O3D 1_555 1_555
La1C O5F 1_555 1_555
La1E O3 1_555 1_555
La1E_2 O5 1_555 1_555
La1F O5F 1_555 1_555
O2A La1 1_555 1_555
O2E La1D 1_555 1_555
O3A La1D 1_555 1_555
O3E La1 1_555 1_555
O5A La1D 1_555 1_555
O5D La1D 1_555 1_555
O5E La1 1_555 1_555
O6D La1D 1_555 1_555
O2 La1D 1_555 1_555
O6 C11 1_555 1_555
C4 C5 1_555 1_555
C8 C11 1_555 1_555
O6F La1F 1_555 1_555
C8F C9F 1_555 1_555
O2D C6D 1_555 1_555
O2D La1E_2 1_555 1_555
C1D C6D 1_555 1_555
C4D C5D 1_555 1_555
C4D C7D 1_555 1_555
La1A O5D 1_555 1_555
La1A_2 O2E 1_555 1_555
La1A_2 O5A 1_555 1_555
La1E O2A 1_555 1_555
La1E O5E 1_555 1_555

#END
