
#######################################################################
#
#                 Cambridge Crystallographic Data Centre
#                                CCDC 
#
#######################################################################
#
# If this CIF has been generated from an entry in the Cambridge 
# Structural Database, then it will include bibliographic, chemical, 
# crystal, experimental, refinement or atomic coordinate data resulting 
# from the CCDC's data processing and validation procedures.
#
#######################################################################

data_DUYJIS
_chemical_formula_moiety         '(C111 H76 Cl8 Cu4 N18 O8 S16 2+)n'
_symmetry_cell_setting           monoclinic
_symmetry_space_group_name_H-M   'P 21/n'
_symmetry_Int_Tables_number      14
_space_group_name_Hall           '-P 2yn'
loop_
_symmetry_equiv_pos_site_id
_symmetry_equiv_pos_as_xyz
1 x,y,z
2 1/2-x,1/2+y,1/2-z
3 -x,-y,-z
4 1/2+x,1/2-y,1/2+z
_cell_length_a                   15.8574(5)
_cell_length_b                   19.3325(11)
_cell_length_c                   25.2962(10)
_cell_angle_alpha                90
_cell_angle_beta                 102.694(4)
_cell_angle_gamma                90
_cell_volume                     7565.34
loop_
_atom_site_label
_atom_site_type_symbol
_atom_site_fract_x
_atom_site_fract_y
_atom_site_fract_z
C1 C 0.4220(3) 0.1172(3) 0.07453(19)
H1 H 0.4787 0.1223 0.0709
C2 C 0.3614(3) 0.1662(3) 0.0504(2)
H2 H 0.3768 0.2019 0.0298
C3 C 0.2770(3) 0.1608(3) 0.05781(19)
C4 C 0.2582(3) 0.1060(3) 0.0891(2)
H3 H 0.2031 0.1017 0.0959
C5 C 0.3214(3) 0.0579(3) 0.1102(2)
H4 H 0.3071 0.0209 0.1301
C6 C 0.2160(3) 0.2780(3) 0.0255(2)
C7 C 0.2910(3) 0.3218(3) 0.0501(2)
C8 C 0.3198(3) 0.3730(3) 0.0197(2)
H5 H 0.2933 0.3793 -0.0166
C9 C 0.3878(3) 0.4139(3) 0.0440(2)
H6 H 0.4071 0.4471 0.0228
C10 C 0.4025(3) 0.3593(3) 0.1252(2)
H7 H 0.4311 0.3539 0.1612
C11 C 0.3344(3) 0.3144(3) 0.1044(2)
H8 H 0.3183 0.2802 0.1261
C12 C 0.0587(4) 0.2491(3) -0.0235(2)
C13 C -0.0263(4) 0.2531(3) -0.0457(2)
C14 C -0.1845(3) 0.2954(3) -0.0759(2)
C15 C -0.2571(3) 0.3441(3) -0.0867(2)
C16 C -0.2531(3) 0.4055(3) -0.1137(2)
H9 H -0.2036 0.4172 -0.1257
C17 C -0.3226(3) 0.4490(3) -0.1225(2)
H10 H -0.3184 0.4900 -0.1410
C18 C -0.4003(3) 0.3781(3) -0.0793(2)
H11 H -0.4506 0.3678 -0.0676
C19 C -0.3321(4) 0.3313(3) -0.0675(2)
H12 H -0.3363 0.2919 -0.0470
C20 C -0.1893(3) 0.2261(3) -0.0720(2)
C21 C -0.2696(3) 0.1834(3) -0.0830(2)
C22 C -0.3249(3) 0.1842(3) -0.1343(2)
H13 H -0.3138 0.2133 -0.1612
C23 C -0.3960(3) 0.1414(3) -0.1444(2)
H14 H -0.4322 0.1422 -0.1788
C24 C -0.3645(3) 0.1003(3) -0.0569(2)
H15 H -0.3793 0.0733 -0.0299
C25 C -0.2906(3) 0.1412(3) -0.0438(2)
H16 H -0.2557 0.1400 -0.0091
C26 C 0.4727(3) 0.0319(3) 0.2399(2)
H17 H 0.4300 0.0600 0.2196
C27 C 0.4845(3) 0.0329(3) 0.2949(2)
H18 H 0.4488 0.0600 0.3111
C28 C 0.5493(3) -0.0064(3) 0.32688(19)
C29 C 0.5996(3) -0.0476(3) 0.30003(19)
H19 H 0.6435 -0.0755 0.3195
C30 C 0.5826(3) -0.0457(3) 0.24438(19)
H20 H 0.6171 -0.0727 0.2271
C31 C 0.5623(3) -0.0073(3) 0.3863(2)
C32 C 0.5211(3) -0.0047(3) 0.47994(19)
C33 C 0.6376(3) -0.0066(3) 0.42318(19)
C34 C 0.7251(3) -0.0038(3) 0.41175(19)
C35 C 0.7484(3) 0.0478(3) 0.3794(2)
H21 H 0.7090 0.0818 0.3644
C36 C 0.8300(3) 0.0478(3) 0.3698(2)
H22 H 0.8443 0.0822 0.3475
C37 C 0.8682(3) -0.0489(3) 0.42227(19)
H23 H 0.9089 -0.0825 0.4365
C38 C 0.7883(3) -0.0527(3) 0.43443(19)
H24 H 0.7761 -0.0871 0.4573
C39 C 0.9257(3) -0.0465(3) 0.2553(2)
H25 H 0.8963 -0.0780 0.2724
C40 C 0.9076(3) -0.0462(3) 0.1996(2)
H26 H 0.8669 -0.0765 0.1801
C41 C 0.9511(3) 0.0006(3) 0.1728(2)
C42 C 1.0108(3) 0.0437(3) 0.2046(2)
H27 H 1.0420 0.0749 0.1884
C43 C 1.0246(3) 0.0404(4) 0.2604(2)
H28 H 1.0644 0.0706 0.2809
C44 C 0.9360(3) 0.0031(3) 0.1133(2)
C45 C 0.8609(3) 0.0024(3) 0.0766(2)
C46 C 0.7724(3) 0.0013(3) 0.0871(2)
C47 C 0.7501(3) 0.0407(3) 0.1273(2)
H29 H 0.7907 0.0697 0.1486
C48 C 0.6667(3) 0.0368(3) 0.1359(2)
H30 H 0.6527 0.0644 0.1628
C49 C 0.6275(3) -0.0421(3) 0.06891(19)
H31 H 0.5860 -0.0712 0.0487
C50 C 0.7082(3) -0.0406(3) 0.0569(2)
H32 H 0.7196 -0.0675 0.0289
C51 C 0.9784(3) 0.0040(3) 0.0199(2)
C52 C 0.2092(3) 0.2088(3) 0.0311(2)
Cu1 Cu 0.49222(3) -0.01362(4) 0.13011(2)
Cu2 Cu 1.00385(4) -0.00432(4) 0.36878(2)
N1 N 0.4029(2) 0.0628(2) 0.10285(15)
N2 N 0.4289(3) 0.4092(3) 0.09678(17)
N3 N -0.3975(2) 0.4366(3) -0.10630(17)
N4 N -0.4155(2) 0.0983(2) -0.10687(16)
N5 N 0.5201(3) -0.0079(2) 0.21316(17)
N6 N 0.8912(3) 0.0006(2) 0.39087(17)
N7 N 0.6057(3) -0.0043(2) 0.10763(17)
N8 N 0.9829(3) -0.0046(3) 0.28656(18)
S1 S 0.12705(8) 0.32220(8) -0.01454(6)
S2 S 0.11178(8) 0.17056(8) -0.00341(6)
S3 S -0.09225(8) 0.17902(8) -0.05622(7)
S4 S -0.07915(8) 0.33063(8) -0.06770(6)
S5 S 0.46762(8) -0.01287(8) 0.41170(5)
S6 S 0.63429(7) -0.01129(7) 0.49204(5)
S7 S 0.86506(7) 0.00771(8) 0.00760(5)
S8 S 1.03073(8) 0.01073(8) 0.08830(5)
C26B C 0.5273(3) -0.0319(3) 0.7601(2)
H17B H 0.5700 -0.0600 0.7804
C27B C 0.5155(3) -0.0329(3) 0.7051(2)
H18B H 0.5512 -0.0600 0.6889
C28B C 0.4507(3) 0.0064(3) 0.67312(19)
C29B C 0.4004(3) 0.0476(3) 0.69997(19)
H19B H 0.3565 0.0755 0.6805
C30B C 0.4174(3) 0.0457(3) 0.75562(19)
H20B H 0.3829 0.0727 0.7729
C31B C 0.4377(3) 0.0073(3) 0.6137(2)
C32B C 0.4789(3) 0.0047(3) 0.52006(19)
C33B C 0.3624(3) 0.0066(3) 0.57682(19)
C34B C 0.2749(3) 0.0038(3) 0.58825(19)
C35B C 0.2516(3) -0.0478(3) 0.6206(2)
H21B H 0.2910 -0.0818 0.6356
C36B C 0.1700(3) -0.0478(3) 0.6302(2)
H22B H 0.1557 -0.0822 0.6525
C37B C 0.1318(3) 0.0489(3) 0.57773(19)
H23B H 0.0911 0.0825 0.5635
C38B C 0.2117(3) 0.0527(3) 0.56557(19)
H24B H 0.2239 0.0871 0.5427
N5B N 0.4799(3) 0.0079(2) 0.78684(17)
N6B N 0.1088(3) -0.0006(2) 0.60913(17)
S5B S 0.53238(8) 0.01287(8) 0.58830(5)
S6B S 0.36571(7) 0.01129(7) 0.50796(5)
C39B C 1.0743(3) 0.0465(3) -0.2553(2)
H25B H 1.1037 0.0780 -0.2724
C40B C 1.0924(3) 0.0462(3) -0.1996(2)
H26B H 1.1331 0.0765 -0.1801
C41B C 1.0489(3) -0.0006(3) -0.1728(2)
C42B C 0.9892(3) -0.0437(3) -0.2046(2)
H27B H 0.9580 -0.0749 -0.1884
C43B C 0.9754(3) -0.0404(4) -0.2604(2)
H28B H 0.9356 -0.0706 -0.2809
C44B C 1.0640(3) -0.0031(3) -0.1133(2)
C45B C 1.1391(3) -0.0024(3) -0.0766(2)
C46B C 1.2276(3) -0.0013(3) -0.0871(2)
C47B C 1.2499(3) -0.0407(3) -0.1273(2)
H29B H 1.2093 -0.0697 -0.1486
C48B C 1.3333(3) -0.0368(3) -0.1359(2)
H30B H 1.3473 -0.0644 -0.1628
C49B C 1.3725(3) 0.0421(3) -0.06891(19)
H31B H 1.4140 0.0712 -0.0487
C50B C 1.2918(3) 0.0406(3) -0.0569(2)
H32B H 1.2804 0.0675 -0.0289
C51B C 1.0216(3) -0.0040(3) -0.0199(2)
N7B N 1.3943(3) 0.0043(2) -0.10763(17)
N8B N 1.0171(3) 0.0046(3) -0.28656(18)
S7B S 1.13494(7) -0.00771(8) -0.00760(5)
S8B S 0.96927(8) -0.01073(8) -0.08830(5)
C1B C -0.4220(3) -0.1172(3) -0.07453(19)
H1B H -0.4787 -0.1223 -0.0709
C2B C -0.3614(3) -0.1662(3) -0.0504(2)
H2B H -0.3768 -0.2019 -0.0298
C3B C -0.2770(3) -0.1608(3) -0.05781(19)
C4B C -0.2582(3) -0.1060(3) -0.0891(2)
H3B H -0.2031 -0.1017 -0.0959
C5B C -0.3214(3) -0.0579(3) -0.1102(2)
H4B H -0.3071 -0.0209 -0.1301
C6B C -0.2160(3) -0.2780(3) -0.0255(2)
C7B C -0.2910(3) -0.3218(3) -0.0501(2)
C8B C -0.3198(3) -0.3730(3) -0.0197(2)
H5B H -0.2933 -0.3793 0.0166
C9B C -0.3878(3) -0.4139(3) -0.0440(2)
H6B H -0.4071 -0.4471 -0.0228
C10B C -0.4025(3) -0.3593(3) -0.1252(2)
H7B H -0.4311 -0.3539 -0.1612
C11B C -0.3344(3) -0.3144(3) -0.1044(2)
H8B H -0.3183 -0.2802 -0.1261
C12B C -0.0587(4) -0.2491(3) 0.0235(2)
C13B C 0.0263(4) -0.2531(3) 0.0457(2)
C14B C 0.1845(3) -0.2954(3) 0.0759(2)
C15B C 0.2571(3) -0.3441(3) 0.0867(2)
C16B C 0.2531(3) -0.4055(3) 0.1137(2)
H9B H 0.2036 -0.4172 0.1257
C17B C 0.3226(3) -0.4490(3) 0.1225(2)
H10B H 0.3184 -0.4900 0.1410
C18B C 0.4003(3) -0.3781(3) 0.0793(2)
H11B H 0.4506 -0.3678 0.0676
C19B C 0.3321(4) -0.3313(3) 0.0675(2)
H12B H 0.3363 -0.2919 0.0470
C20B C 0.1893(3) -0.2261(3) 0.0720(2)
C21B C 0.2696(3) -0.1834(3) 0.0830(2)
C22B C 0.3249(3) -0.1842(3) 0.1343(2)
H13B H 0.3138 -0.2133 0.1612
C23B C 0.3960(3) -0.1414(3) 0.1444(2)
H14B H 0.4322 -0.1422 0.1788
C24B C 0.3645(3) -0.1003(3) 0.0569(2)
H15B H 0.3793 -0.0733 0.0299
C25B C 0.2906(3) -0.1412(3) 0.0438(2)
H16B H 0.2557 -0.1400 0.0091
C52B C -0.2092(3) -0.2088(3) -0.0311(2)
Cu1B Cu -0.49222(3) 0.01362(4) -0.13011(2)
N1B N -0.4029(2) -0.0628(2) -0.10285(15)
N2B N -0.4289(3) -0.4092(3) -0.09678(17)
N3B N 0.3975(2) -0.4366(3) 0.10630(17)
N4B N 0.4155(2) -0.0983(2) 0.10687(16)
S1B S -0.12705(8) -0.32220(8) 0.01454(6)
S2B S -0.11178(8) -0.17056(8) 0.00341(6)
S3B S 0.09225(8) -0.17902(8) 0.05622(7)
S4B S 0.07915(8) -0.33063(8) 0.06770(6)
Cu2A Cu 0.49615(4) 0.49568(4) 0.13122(2)
Cu1B_2 Cu 0.50778(3) 0.01362(4) 0.86989(2)
Cu1B_3 Cu 1.50778(3) 0.01362(4) -0.13011(2)
Cu2A_2 Cu 0.49615(4) -0.50432(4) 0.13122(2)
Cu2B Cu -0.00385(4) 0.00432(4) 0.63122(2)
Cu2B_2 Cu 0.99615(4) 0.00432(4) -0.36878(2)
Cu2C Cu -0.49615(4) -0.49568(4) -0.13122(2)
Cu2C_2 Cu -0.49615(4) 0.50432(4) -0.13122(2)
N2A N 1.0711(3) -0.0908(3) 0.40322(17)
N3B_2 N 0.3975(2) 0.5634(3) 0.10630(17)
N3C N 1.1025(2) 0.0634(3) 0.39370(17)
N5B_2 N -0.5201(3) 0.0079(2) -0.21316(17)
N6A N 0.6088(3) 0.5006(2) 0.10913(17)
N7B_2 N -0.6057(3) 0.0043(2) -0.10763(17)
N8A N 0.5171(3) 0.4954(3) 0.21344(18)
C53 C 0.8593(13) 0.7307(9) 0.3029(6)
H33 H 0.8528 0.7008 0.3320
H34 H 0.9190 0.7434 0.3074
H35 H 0.8405 0.7070 0.2690
C54 C 0.8082(9) 0.7914(8) 0.3033(6)
N9 N 0.7683(8) 0.8374(8) 0.3005(6)
C55 C 0.0378(9) 0.7517(10) 0.2119(4)
H36 H 0.0461 0.8012 0.2091
H37 H 0.0866 0.7275 0.2031
Cl1 Cl 0.0220(5) 0.7275(5) 0.2792(3)
Cl2 Cl -0.0627(5) 0.7240(6) 0.1696(2)
C56 C 0.0749(5) 0.3095(4) 0.1775(3)
C57 C 0.1062(4) 0.2801(5) 0.1329(3)
H38 H 0.1653 0.2660 0.1454
H39 H 0.1025 0.3141 0.1048
H40 H 0.0715 0.2407 0.1189
N10 N 0.0498(4) 0.3316(5) 0.2136(3)
C58 C 0.2327(5) 0.4418(5) 0.2580(3)
H41 H 0.1789 0.4210 0.2622
H42 H 0.2230 0.4911 0.2525
Cl3 Cl 0.26184(19) 0.40670(14) 0.20115(9)
Cl4 Cl 0.31196(12) 0.42863(14) 0.31751(9)
C59 C 0.8528(6) 0.2569(4) 0.1114(4)
H43 H 0.7904 0.2526 0.1037
H44 H 0.8718 0.2732 0.1484
Cl5 Cl 0.88207(11) 0.31628(10) 0.06752(8)
Cl6 Cl 0.89915(15) 0.17523(12) 0.10499(11)
Cl7 Cl 0.25239(12) 0.66071(10) 0.26049(7)
O1 O 0.1935(4) 0.6142(4) 0.2305(3)
O2 O 0.2065(6) 0.7001(5) 0.2950(3)
O3 O 0.3097(5) 0.6242(6) 0.2989(3)
O4 O 0.3213(8) 0.6754(8) 0.2323(6)
Cl8 Cl 0.08642(12) 0.25819(10) 0.54976(10)
O6 O 0.0392(5) 0.2712(5) 0.4923(3)
O7 O 0.0327(5) 0.2353(4) 0.5809(5)
O8 O 0.1222(5) 0.3240(3) 0.5685(3)
O9 O 0.1583(4) 0.2150(4) 0.5493(3)
loop_
_geom_bond_atom_site_label_1
_geom_bond_atom_site_label_2
_geom_bond_site_symmetry_1
_geom_bond_site_symmetry_2
C1 H1 1_555 1_555
C2 C1 1_555 1_555
H2 C2 1_555 1_555
C3 C2 1_555 1_555
C4 C3 1_555 1_555
H3 C4 1_555 1_555
C5 C4 1_555 1_555
H4 C5 1_555 1_555
C6 C7 1_555 1_555
C7 C8 1_555 1_555
C8 H5 1_555 1_555
C9 C8 1_555 1_555
H6 C9 1_555 1_555
C10 H7 1_555 1_555
C11 C7 1_555 1_555
H8 C11 1_555 1_555
C12 C13 1_555 1_555
C13 S3 1_555 1_555
C14 C15 1_555 1_555
C15 C16 1_555 1_555
C16 H9 1_555 1_555
C17 C16 1_555 1_555
H10 C17 1_555 1_555
C18 H11 1_555 1_555
C19 C15 1_555 1_555
H12 C19 1_555 1_555
C20 C14 1_555 1_555
C21 C20 1_555 1_555
C22 C21 1_555 1_555
H13 C22 1_555 1_555
C23 C22 1_555 1_555
H14 C23 1_555 1_555
C24 H15 1_555 1_555
C25 C21 1_555 1_555
H16 C25 1_555 1_555
C26 H17 1_555 1_555
C27 C26 1_555 1_555
H18 C27 1_555 1_555
C28 C27 1_555 1_555
C29 C28 1_555 1_555
H19 C29 1_555 1_555
C30 C29 1_555 1_555
H20 C30 1_555 1_555
C31 C28 1_555 1_555
C32 S5 1_555 1_555
C33 C31 1_555 1_555
C34 C33 1_555 1_555
C35 C34 1_555 1_555
H21 C35 1_555 1_555
C36 C35 1_555 1_555
H22 C36 1_555 1_555
C37 H23 1_555 1_555
C38 C34 1_555 1_555
H24 C38 1_555 1_555
C39 H25 1_555 1_555
C40 C39 1_555 1_555
H26 C40 1_555 1_555
C41 C40 1_555 1_555
C42 C41 1_555 1_555
H27 C42 1_555 1_555
C43 C42 1_555 1_555
H28 C43 1_555 1_555
C44 C41 1_555 1_555
C45 C44 1_555 1_555
C46 C45 1_555 1_555
C47 C46 1_555 1_555
H29 C47 1_555 1_555
C48 C47 1_555 1_555
H30 C48 1_555 1_555
C49 H31 1_555 1_555
C50 C46 1_555 1_555
H32 C50 1_555 1_555
C51 S7 1_555 1_555
C52 C3 1_555 1_555
Cu1 N1 1_555 1_555
Cu2 N6 1_555 1_555
N1 C1 1_555 1_555
N2 C9 1_555 1_555
N3 C17 1_555 1_555
N4 C23 1_555 1_555
N5 C26 1_555 1_555
N6 C36 1_555 1_555
N7 C48 1_555 1_555
N8 C39 1_555 1_555
S1 C6 1_555 1_555
S2 C12 1_555 1_555
S3 C20 1_555 1_555
S4 C13 1_555 1_555
S5 C31 1_555 1_555
S6 C32 1_555 1_555
S7 C45 1_555 1_555
S8 C44 1_555 1_555
C53 H33 1_555 1_555
H34 C53 1_555 1_555
H35 C53 1_555 1_555
C54 C53 1_555 1_555
N9 C54 1_555 1_555
C55 H36 1_555 1_555
H37 C55 1_555 1_555
Cl1 C55 1_555 1_555
Cl2 C55 1_555 1_555
C56 C57 1_555 1_555
C57 H38 1_555 1_555
H39 C57 1_555 1_555
H40 C57 1_555 1_555
N10 C56 1_555 1_555
C58 H41 1_555 1_555
H42 C58 1_555 1_555
Cl3 C58 1_555 1_555
Cl4 C58 1_555 1_555
C59 H43 1_555 1_555
H44 C59 1_555 1_555
Cl5 C59 1_555 1_555
Cl6 C59 1_555 1_555
Cl7 O1 1_555 1_555
O2 Cl7 1_555 1_555
O3 Cl7 1_555 1_555
O4 Cl7 1_555 1_555
Cl8 O6 1_555 1_555
O7 Cl8 1_555 1_555
O8 Cl8 1_555 1_555
O9 Cl8 1_555 1_555
C26B H17B 1_555 1_555
C27B C26B 1_555 1_555
H18B C27B 1_555 1_555
C28B C27B 1_555 1_555
C29B C28B 1_555 1_555
H19B C29B 1_555 1_555
C30B C29B 1_555 1_555
H20B C30B 1_555 1_555
C31B C28B 1_555 1_555
C32B C32 1_555 1_555
C33B C31B 1_555 1_555
C34B C33B 1_555 1_555
C35B C34B 1_555 1_555
H21B C35B 1_555 1_555
C36B C35B 1_555 1_555
H22B C36B 1_555 1_555
C37B H23B 1_555 1_555
C38B C34B 1_555 1_555
H24B C38B 1_555 1_555
N5B C26B 1_555 1_555
N6B C36B 1_555 1_555
S5B C31B 1_555 1_555
S6B C32B 1_555 1_555
C39B H25B 1_555 1_555
C40B C39B 1_555 1_555
H26B C40B 1_555 1_555
C41B C40B 1_555 1_555
C42B C41B 1_555 1_555
H27B C42B 1_555 1_555
C43B C42B 1_555 1_555
H28B C43B 1_555 1_555
C44B C41B 1_555 1_555
C45B C44B 1_555 1_555
C46B C45B 1_555 1_555
C47B C46B 1_555 1_555
H29B C47B 1_555 1_555
C48B C47B 1_555 1_555
H30B C48B 1_555 1_555
C49B H31B 1_555 1_555
C50B C46B 1_555 1_555
H32B C50B 1_555 1_555
C51B C51 1_555 1_555
N7B C48B 1_555 1_555
N8B C39B 1_555 1_555
S7B C45B 1_555 1_555
S8B C44B 1_555 1_555
C1B H1B 1_555 1_555
C2B C1B 1_555 1_555
H2B C2B 1_555 1_555
C3B C2B 1_555 1_555
C4B C3B 1_555 1_555
H3B C4B 1_555 1_555
C5B C4B 1_555 1_555
H4B C5B 1_555 1_555
C6B C7B 1_555 1_555
C7B C8B 1_555 1_555
C8B H5B 1_555 1_555
C9B C8B 1_555 1_555
H6B C9B 1_555 1_555
C10B H7B 1_555 1_555
C11B C7B 1_555 1_555
H8B C11B 1_555 1_555
C12B C13B 1_555 1_555
C13B S3B 1_555 1_555
C14B C15B 1_555 1_555
C15B C16B 1_555 1_555
C16B H9B 1_555 1_555
C17B C16B 1_555 1_555
H10B C17B 1_555 1_555
C18B H11B 1_555 1_555
C19B C15B 1_555 1_555
H12B C19B 1_555 1_555
C20B C14B 1_555 1_555
C21B C20B 1_555 1_555
C22B C21B 1_555 1_555
H13B C22B 1_555 1_555
C23B C22B 1_555 1_555
H14B C23B 1_555 1_555
C24B H15B 1_555 1_555
C25B C21B 1_555 1_555
H16B C25B 1_555 1_555
C52B C3B 1_555 1_555
Cu1B N4 1_555 1_555
N1B C1B 1_555 1_555
N2B C9B 1_555 1_555
N3B C17B 1_555 1_555
N4B Cu1 1_555 1_555
S1B C6B 1_555 1_555
S2B C12B 1_555 1_555
S3B C20B 1_555 1_555
S4B C13B 1_555 1_555
Cu2A N2 1_555 1_555
Cu1B_2 N5B 1_555 1_555
Cu1B_3 N7B 1_555 1_555
Cu2A_2 N3B 1_555 1_555
Cu2B N6B 1_555 1_555
Cu2B_2 N8B 1_555 1_555
Cu2C N2B 1_555 1_555
Cu2C_2 N3 1_555 1_555
N2A Cu2 1_555 1_555
N3B_2 Cu2A 1_555 1_555
N3C Cu2 1_555 1_555
N5B_2 Cu1B 1_555 1_555
N6A Cu2A 1_555 1_555
N7B_2 Cu1B 1_555 1_555
N8A Cu2A 1_555 1_555
C5 N1 1_555 1_555
C6 C52 1_555 1_555
C10 C11 1_555 1_555
C10 N2 1_555 1_555
C12 S1 1_555 1_555
C14 S4 1_555 1_555
C18 C19 1_555 1_555
C18 N3 1_555 1_555
C24 C25 1_555 1_555
C24 N4 1_555 1_555
C30 N5 1_555 1_555
C33 S6 1_555 1_555
C37 C38 1_555 1_555
C37 N6 1_555 1_555
C43 N8 1_555 1_555
C49 C50 1_555 1_555
C49 N7 1_555 1_555
C51 S8 1_555 1_555
C52 S2 1_555 1_555
Cu1 N5 1_555 1_555
Cu1 N7 1_555 1_555
Cu2 N8 1_555 1_555
C30B N5B 1_555 1_555
C32B S5B 1_555 1_555
C33B S6B 1_555 1_555
C37B C38B 1_555 1_555
C37B N6B 1_555 1_555
C43B N8B 1_555 1_555
C49B C50B 1_555 1_555
C49B N7B 1_555 1_555
C51B S7B 1_555 1_555
C51B S8B 1_555 1_555
C5B N1B 1_555 1_555
C6B C52B 1_555 1_555
C10B C11B 1_555 1_555
C10B N2B 1_555 1_555
C12B S1B 1_555 1_555
C14B S4B 1_555 1_555
C18B C19B 1_555 1_555
C18B N3B 1_555 1_555
C23B N4B 1_555 1_555
C24B C25B 1_555 1_555
C24B N4B 1_555 1_555
C52B S2B 1_555 1_555
Cu1B N1B 1_555 1_555

#END
