
#######################################################################
#
#                 Cambridge Crystallographic Data Centre
#                                CCDC 
#
#######################################################################
#
# If this CIF has been generated from an entry in the Cambridge 
# Structural Database, then it will include bibliographic, chemical, 
# crystal, experimental, refinement or atomic coordinate data resulting 
# from the CCDC's data processing and validation procedures.
#
#######################################################################

data_COJMIZ
_chemical_formula_moiety         '(C49 H47 N5 O16 Zn2)n'
_symmetry_cell_setting           monoclinic
_symmetry_space_group_name_H-M   'P 21/c'
_symmetry_Int_Tables_number      14
_space_group_name_Hall           '-P 2ybc'
loop_
_symmetry_equiv_pos_site_id
_symmetry_equiv_pos_as_xyz
1 x,y,z
2 -x,1/2+y,1/2-z
3 -x,-y,-z
4 x,1/2-y,1/2+z
_cell_length_a                   13.8166(7)
_cell_length_b                   21.7847(12)
_cell_length_c                   20.1414(11)
_cell_angle_alpha                90
_cell_angle_beta                 103.312(1)
_cell_angle_gamma                90
_cell_volume                     5899.48
loop_
_atom_site_label
_atom_site_type_symbol
_atom_site_fract_x
_atom_site_fract_y
_atom_site_fract_z
Zn1 Zn 0.8419 0.5156 0.1587
Zn2 Zn 0.6294 0.4856 0.1280
O1 O 0.8392 0.4652 0.2432
O2 O 0.6821 0.4316 0.2102
O3 O 0.8181 0.0679 0.6072
O4 O 0.6552 0.0839 0.5670
O5 O 0.5656 0.2645 0.3741
O6 O 0.7892 0.5587 0.0678
O7 O 0.6245 0.5457 0.0508
O8 O 0.6672 0.9397 -0.3081
O9 O 0.8236 0.9060 -0.2916
O10 O 0.9042 0.7077 -0.1187
C1 C 0.7674 0.4316 0.2488
C2 C 0.7850 0.3857 0.3062
C3 C 0.8812 0.3751 0.3444
H1 H 0.9344 0.3992 0.3358
C4 C 0.9012(4) 0.3305(3) 0.3944(3)
H2 H 0.9671 0.3230 0.4197
C5 C 0.8208(4) 0.2969(3) 0.4064(3)
C6 C 0.8188(4) 0.2450(2) 0.4536(3)
C7 C 0.8941(4) 0.2146(3) 0.4984(3)
H3 H 0.9616 0.2264 0.5034
C8 C 0.8686(4) 0.1663(2) 0.5359(3)
H4 H 0.9196 0.1442 0.5662
C9 C 0.7697(3) 0.1493(2) 0.5301(2)
C10 C 0.7455(3) 0.0964(2) 0.5714(2)
C11 C 0.6937(4) 0.1802(2) 0.4849(3)
H5 H 0.6262 0.1688 0.4804
C12 C 0.7188(4) 0.2277(2) 0.4470(3)
C13 C 0.6544(4) 0.2665(3) 0.3934(3)
C14 C 0.7251(4) 0.3085(3) 0.3694(3)
C15 C 0.7060(4) 0.3523(2) 0.3189(3)
H6 H 0.6401 0.3594 0.2932
C16 C 0.7007(3) 0.5699(2) 0.0377(2)
C17 C 0.6843(3) 0.6163(2) -0.0184(2)
C18 C 0.5878(3) 0.6379(2) -0.0456(3)
H7 H 0.5339 0.6215 -0.0294
C19 C 0.5695(3) 0.6830(2) -0.0957(3)
H8 H 0.5038 0.6973 -0.1140
C20 C 0.6496(3) 0.7067(2) -0.1185(3)
C21 C 0.6549(4) 0.7559(2) -0.1668(3)
C22 C 0.5807(4) 0.7928(3) -0.2053(3)
H9 H 0.5127 0.7865 -0.2051
C23 C 0.6094(4) 0.8391(3) -0.2440(3)
H10 H 0.5600 0.8651 -0.2703
C24 C 0.7093(4) 0.8487(2) -0.2454(3)
C25 C 0.7354(4) 0.9019(2) -0.2847(2)
C26 C 0.7827(4) 0.8099(2) -0.2091(3)
H11 H 0.8503 0.8149 -0.2111
C27 C 0.7551(3) 0.7641(2) -0.1704(3)
C28 C 0.8168(4) 0.7177(2) -0.1252(3)
C29 C 0.7465(3) 0.6835(2) -0.0916(3)
C30 C 0.7648(3) 0.6395(2) -0.0422(2)
H12 H 0.8304 0.6249 -0.0243
N1 N 0.4856(3) 0.48723(18) 0.13210(19)
C31 C 0.4216(3) 0.5253(2) 0.0907(2)
H13 H 0.4441 0.5489 0.0575
C32 C 0.3237(3) 0.5307(2) 0.0957(2)
H14 H 0.2796 0.5571 0.0656
C33 C 0.2898(3) 0.4975(2) 0.1450(2)
C34 C 0.3562(3) 0.4586(2) 0.1870(3)
H15 H 0.3353 0.4345 0.2205
C35 C 0.4526(3) 0.4550(2) 0.1796(3)
H16 H 0.4978 0.4287 0.2092
N2 N -0.0122(2) 0.51377(19) 0.1607(2)
C36 C 0.0403(3) 0.45978(15) 0.1803(2)
H17 H 0.0087 0.4261 0.1965
C37 C 0.1390(3) 0.45507(15) 0.1760(2)
H18 H 0.1749 0.4182 0.1893
C38 C 0.1852(2) 0.50435(19) 0.1521(2)
C39 C 0.1328(3) 0.55833(16) 0.1326(2)
H19 H 0.1644 0.5920 0.1163
C40 C 0.0341(3) 0.56304(15) 0.1369(2)
H20 H -0.0018 0.5999 0.1235
Zn1_2 Zn -0.1581 0.5156 0.1587
Zn1C Zn 0.8419 -0.0156 0.6587
Zn1C_2 Zn 0.8419 0.9844 -0.3413
Zn2C Zn 0.6294 0.0144 0.6280
Zn2C_2 Zn 0.6294 1.0144 -0.3720
O3C O 0.8181 0.4321 0.1072
O4C O 0.6552 0.4161 0.0670
O8C O 0.6672 0.5603 0.1919
O9C O 0.8236 0.5940 0.2084
N2_2 N 0.9878(2) 0.51377(19) 0.1607(2)
C41 C 0.2782(9) 0.7611(6) 0.3218(6)
H21 H 0.2849 0.7916 0.3562
N3 N 0.1825(7) 0.7454(4) 0.2828(5)
C42 C 0.1714(13) 0.6964(8) 0.2324(8)
H22 H 0.1008 0.6914 0.2102
H23 H 0.1971 0.6580 0.2550
H24 H 0.2087 0.7068 0.1980
C43 C 0.0956(8) 0.7759(5) 0.2929(6)
H25 H 0.0367 0.7588 0.2617
H26 H 0.1003 0.8199 0.2838
H27 H 0.0900 0.7700 0.3401
O11 O 0.3503(15) 0.7363(9) 0.3119(10)
O12 O 0.7272(6) 0.8555(4) 0.2216(4)
C44 C 0.6830(8) 0.8143(5) 0.1782(5)
H28 H 0.6132 0.8081 0.1704
N4 N 0.7385(7) 0.7805(4) 0.1445(5)
C45 C 0.8446(13) 0.7851(9) 0.1561(9)
H29 H 0.8685 0.7568 0.1256
H30 H 0.8749 0.7744 0.2036
H31 H 0.8630 0.8272 0.1471
C46 C 0.6835(8) 0.7389(5) 0.0972(5)
H32 H 0.7284 0.7167 0.0744
H33 H 0.6341 0.7613 0.0632
H34 H 0.6497 0.7096 0.1211
O13 O 0.8736(10) 0.6799(6) 0.4900(6)
C47 C 0.8320(11) 0.6297(7) 0.4667(9)
H35 H 0.7696 0.6196 0.4761
N5 N 0.8711(16) 0.5919(7) 0.4308(9)
C48 C 0.9652(19) 0.6032(12) 0.4140(16)
H36 H 0.9808 0.5692 0.3863
H37 H 1.0174 0.6065 0.4560
H38 H 0.9617 0.6415 0.3881
C49 C 0.819(2) 0.5361(10) 0.4063(17)
H39 H 0.8580 0.5130 0.3795
H40 H 0.7540 0.5460 0.3776
H41 H 0.8113 0.5111 0.4451
O14 O 0.4510 0.6636 0.4685
H42 H 0.4887 0.6338 0.4847
H43 H 0.3907 0.6539 0.4661
O15 O 0.3920 0.5538 0.3349
H44 H 0.3508 0.5274 0.3429
H45 H 0.4498 0.5381 0.3425
O16 O 0.5865 0.5084 0.3537
H46 H 0.5307 0.5262 0.3493
H47 H 0.6254 0.5193 0.3909
loop_
_geom_bond_atom_site_label_1
_geom_bond_atom_site_label_2
_geom_bond_site_symmetry_1
_geom_bond_site_symmetry_2
Zn1 O1 1_555 1_555
Zn2 O2 1_555 1_555
O1 C1 1_555 1_555
O2 C1 1_555 1_555
O3 C10 1_555 1_555
O4 C10 1_555 1_555
O5 C13 1_555 1_555
O6 Zn1 1_555 1_555
O7 Zn2 1_555 1_555
O8 C25 1_555 1_555
O9 C25 1_555 1_555
O10 C28 1_555 1_555
C1 C2 1_555 1_555
C2 C3 1_555 1_555
C3 H1 1_555 1_555
C4 C3 1_555 1_555
H2 C4 1_555 1_555
C5 C4 1_555 1_555
C6 C5 1_555 1_555
C7 C6 1_555 1_555
H3 C7 1_555 1_555
C8 C7 1_555 1_555
H4 C8 1_555 1_555
C9 C8 1_555 1_555
C10 C9 1_555 1_555
C11 C9 1_555 1_555
H5 C11 1_555 1_555
C12 C6 1_555 1_555
C13 C12 1_555 1_555
C14 C5 1_555 1_555
C15 C2 1_555 1_555
H6 C15 1_555 1_555
C16 O6 1_555 1_555
C17 C16 1_555 1_555
C18 C17 1_555 1_555
H7 C18 1_555 1_555
C19 C18 1_555 1_555
H8 C19 1_555 1_555
C20 C19 1_555 1_555
C21 C20 1_555 1_555
C22 C21 1_555 1_555
H9 C22 1_555 1_555
C23 C22 1_555 1_555
H10 C23 1_555 1_555
C24 C23 1_555 1_555
C25 C24 1_555 1_555
C26 C24 1_555 1_555
H11 C26 1_555 1_555
C27 C21 1_555 1_555
C28 C27 1_555 1_555
C29 C20 1_555 1_555
C30 C17 1_555 1_555
H12 C30 1_555 1_555
N1 Zn2 1_555 1_555
C31 N1 1_555 1_555
H13 C31 1_555 1_555
C32 C31 1_555 1_555
H14 C32 1_555 1_555
C33 C32 1_555 1_555
C34 C33 1_555 1_555
H15 C34 1_555 1_555
C35 N1 1_555 1_555
H16 C35 1_555 1_555
N2 C36 1_555 1_555
C36 H17 1_555 1_555
C37 C36 1_555 1_555
H18 C37 1_555 1_555
C38 C33 1_555 1_555
C39 C38 1_555 1_555
H19 C39 1_555 1_555
C40 N2 1_555 1_555
H20 C40 1_555 1_555
C41 H21 1_555 1_555
N3 C41 1_555 1_555
C42 N3 1_555 1_555
H22 C42 1_555 1_555
H23 C42 1_555 1_555
H24 C42 1_555 1_555
C43 N3 1_555 1_555
H25 C43 1_555 1_555
H26 C43 1_555 1_555
H27 C43 1_555 1_555
O11 C41 1_555 1_555
O12 C44 1_555 1_555
C44 H28 1_555 1_555
N4 C44 1_555 1_555
C45 N4 1_555 1_555
H29 C45 1_555 1_555
H30 C45 1_555 1_555
H31 C45 1_555 1_555
C46 N4 1_555 1_555
H32 C46 1_555 1_555
H33 C46 1_555 1_555
H34 C46 1_555 1_555
O13 C47 1_555 1_555
C47 H35 1_555 1_555
N5 C47 1_555 1_555
C48 N5 1_555 1_555
H36 C48 1_555 1_555
H37 C48 1_555 1_555
H38 C48 1_555 1_555
C49 N5 1_555 1_555
H39 C49 1_555 1_555
H40 C49 1_555 1_555
H41 C49 1_555 1_555
O14 H42 1_555 1_555
H43 O14 1_555 1_555
O15 H44 1_555 1_555
H45 O15 1_555 1_555
O16 H46 1_555 1_555
H47 O16 1_555 1_555
Zn1_2 N2 1_555 1_555
Zn1C O3 1_555 1_555
Zn1C_2 O9 1_555 1_555
Zn2C O4 1_555 1_555
Zn2C_2 O8 1_555 1_555
O3C Zn1 1_555 1_555
O4C Zn2 1_555 1_555
O8C Zn2 1_555 1_555
O9C Zn1 1_555 1_555
N2_2 Zn1 1_555 1_555
O7 C16 1_555 1_555
C11 C12 1_555 1_555
C13 C14 1_555 1_555
C14 C15 1_555 1_555
C26 C27 1_555 1_555
C28 C29 1_555 1_555
C29 C30 1_555 1_555
C34 C35 1_555 1_555
C37 C38 1_555 1_555
C39 C40 1_555 1_555

#END
