
#######################################################################
#
#                 Cambridge Crystallographic Data Centre
#                                CCDC 
#
#######################################################################
#
# If this CIF has been generated from an entry in the Cambridge 
# Structural Database, then it will include bibliographic, chemical, 
# crystal, experimental, refinement or atomic coordinate data resulting 
# from the CCDC's data processing and validation procedures.
#
#######################################################################

data_ADINCU
_chemical_formula_moiety         '(C12 H16 Cu1 N4 1+)n'
_symmetry_cell_setting           orthorhombic
_symmetry_space_group_name_H-M   'P n n n'
_symmetry_Int_Tables_number      48
_space_group_name_Hall           'P 2 2 -1n'
loop_
_symmetry_equiv_pos_site_id
_symmetry_equiv_pos_as_xyz
1 x,y,z
2 -x,-y,z
3 1/2-x,1/2-y,1/2-z
4 1/2+x,1/2+y,1/2-z
5 x,-y,-z
6 -x,y,-z
7 1/2-x,1/2+y,1/2+z
8 1/2+x,1/2-y,1/2+z
_cell_length_a                   9.41(2)
_cell_length_b                   13.73(2)
_cell_length_c                   5.85(1)
_cell_angle_alpha                90
_cell_angle_beta                 90
_cell_angle_gamma                90
_cell_volume                     755.816
loop_
_atom_site_label
_atom_site_type_symbol
_atom_site_fract_x
_atom_site_fract_y
_atom_site_fract_z
Cu1 Cu -0.00000 -0.00000 1.00000
N1 N 0.12900 0.07600 1.20000
C1 C 0.19400 0.11000 1.34100
C2 C 0.29200 0.16400 1.50900
C3 C 0.20100 0.22300 1.66700
N1B N 0.37100 0.42400 2.30000
C1B C 0.30600 0.39000 2.15900
C2B C 0.20800 0.33600 1.99100
C3B C 0.29900 0.27700 1.83300
N1A N -0.12900 -0.07600 1.20000
C1A C -0.19400 -0.11000 1.34100
C2A C -0.29200 -0.16400 1.50900
C3A C -0.20100 -0.22300 1.66700
N1C N -0.37100 -0.42400 2.30000
C1C C -0.30600 -0.39000 2.15900
C2C C -0.20800 -0.33600 1.99100
C3C C -0.29900 -0.27700 1.83300
Cu1B Cu -0.50000 -0.50000 2.50000
Cu1B_2 Cu 0.50000 0.50000 2.50000
N1D N 0.12900 -0.07600 0.80000
N1E N -0.12900 0.07600 0.80000
loop_
_geom_bond_atom_site_label_1
_geom_bond_atom_site_label_2
_geom_bond_site_symmetry_1
_geom_bond_site_symmetry_2
Cu1 N1 1_555 1_555
N1 C1 1_555 1_555
C1 C2 1_555 1_555
C2 C3 1_555 1_555
C3 C3B 1_555 1_555
N1B C1B 1_555 1_555
C1B C2B 1_555 1_555
C2B C3B 1_555 1_555
N1A Cu1 1_555 1_555
C1A N1A 1_555 1_555
C2A C1A 1_555 1_555
C3A C2A 1_555 1_555
N1C C1C 1_555 1_555
C1C C2C 1_555 1_555
C2C C3C 1_555 1_555
C3C C3A 1_555 1_555
Cu1B N1C 1_555 1_555
Cu1B_2 N1B 1_555 1_555
N1D Cu1 1_555 1_555
N1E Cu1 1_555 1_555

#END
