
#######################################################################
#
#                 Cambridge Crystallographic Data Centre
#                                CCDC 
#
#######################################################################
#
# If this CIF has been generated from an entry in the Cambridge 
# Structural Database, then it will include bibliographic, chemical, 
# crystal, experimental, refinement or atomic coordinate data resulting 
# from the CCDC's data processing and validation procedures.
#
#######################################################################

data_CEZNAY
_chemical_formula_moiety         '(C18 H18 Na2 O25 U2)n'
_symmetry_cell_setting           orthorhombic
_symmetry_space_group_name_H-M   'C 2 2 21'
_symmetry_Int_Tables_number      20
_space_group_name_Hall           'C 2c 2'
loop_
_symmetry_equiv_pos_site_id
_symmetry_equiv_pos_as_xyz
1 x,y,z
2 -x,-y,1/2+z
3 -x,y,1/2-z
4 x,-y,-z
5 1/2+x,1/2+y,z
6 1/2-x,1/2-y,1/2+z
7 1/2-x,1/2+y,1/2-z
8 1/2+x,1/2-y,-z
_cell_length_a                   7.9714(16)
_cell_length_b                   17.775(4)
_cell_length_c                   21.312(4)
_cell_angle_alpha                90
_cell_angle_beta                 90
_cell_angle_gamma                90
_cell_volume                     3019.73
loop_
_atom_site_label
_atom_site_type_symbol
_atom_site_fract_x
_atom_site_fract_y
_atom_site_fract_z
_atom_site_U_iso_or_equiv
_atom_site_thermal_displace_type
O1 O 0.3291(12) 0.1930(4) 0.3891(6) 0.0427 Uani
O2 O 0.1890(11) 0.1001(5) 0.4300(4) 0.0327 Uani
C1 C 0.2013(17) 0.1705(7) 0.4137(7) 0.0330 Uani
U1 U -0.03065(6) 0.57160(2) 0.38192(2) 0.0253 Uani
O3 O 0.0767(10) 0.4431(4) 0.3833(5) 0.0390 Uani
O4 O 0.2465(11) 0.5606(6) 0.3283(4) 0.0407 Uani
O5 O -0.1718(12) 0.4556(5) 0.4255(5) 0.0347 Uani
O6 O 0.1271(13) 0.6722(5) 0.3310(5) 0.0440 Uani
C2 C 0.0581(17) 0.2220(6) 0.4254(6) 0.0277 Uani
C3 C 0.3831(19) 0.6635(8) 0.2777(6) 0.0373 Uani
O7 O 0.0907(11) 0.2951(4) 0.4102(4) 0.0297 Uani
O8 O 0.5000 0.6161(7) 0.2500 0.0293 Uani
O9 O -0.1323(12) 0.5544(5) 0.3107(4) 0.0390 Uani
O10 O 0.0719(11) 0.5896(5) 0.4540(4) 0.0380 Uani
C4 C -0.0570(16) 0.3329(7) 0.4222(5) 0.0270 Uani
C5 C -0.0490(19) 0.4135(7) 0.4110(6) 0.0320 Uani
C6 C -0.1009(17) 0.2127(7) 0.4447(6) 0.0297 Uani
H1 H -0.1527 0.1682 0.4570 0.0360 Uiso
C7 C -0.1740(17) 0.2874(7) 0.4423(6) 0.0293 Uani
H2 H -0.2833 0.3004 0.4531 0.0350 Uiso
C8 C 0.2472(19) 0.6298(9) 0.3129(6) 0.0383 Uani
Na1 Na 0.1101(11) -0.0000 0.5000 0.0450 Uani
O11 O -0.0836(17) 0.0592(8) 0.5614(8) 0.1043 Uani
C9 C 0.426(2) 0.7351(8) 0.2669(7) 0.0500 Uani
H3 H 0.3674 0.7775 0.2800 0.0600 Uiso
O4B O 0.7535(11) 0.5606(6) 0.1717(4) 0.0407 Uani
O6B O 0.8729(13) 0.6722(5) 0.1690(5) 0.0440 Uani
C3B C 0.6169(19) 0.6635(8) 0.2223(6) 0.0373 Uani
C8B C 0.7528(19) 0.6298(9) 0.1871(6) 0.0383 Uani
C9B C 0.574(2) 0.7351(8) 0.2331(7) 0.0500 Uani
H3B H 0.6326 0.7775 0.2200 0.0600 Uiso
O1B O 0.6709(12) 0.1930(4) 0.1109(6) 0.0427 Uani
O2B O 0.8110(11) 0.1001(5) 0.0700(4) 0.0327 Uani
C1B C 0.7987(17) 0.1705(7) 0.0863(7) 0.0330 Uani
U1B U 1.03065(6) 0.57160(2) 0.11808(2) 0.0253 Uani
O3B O 0.9233(10) 0.4431(4) 0.1167(5) 0.0390 Uani
O5B O 1.1718(12) 0.4556(5) 0.0745(5) 0.0347 Uani
C2B C 0.9419(17) 0.2220(6) 0.0746(6) 0.0277 Uani
O7B O 0.9093(11) 0.2951(4) 0.0898(4) 0.0297 Uani
O9B O 1.1323(12) 0.5544(5) 0.1893(4) 0.0390 Uani
O10B O 0.9281(11) 0.5896(5) 0.0460(4) 0.0380 Uani
C4B C 1.0570(16) 0.3329(7) 0.0778(5) 0.0270 Uani
C5B C 1.0490(19) 0.4135(7) 0.0890(6) 0.0320 Uani
C6B C 1.1009(17) 0.2127(7) 0.0553(6) 0.0297 Uani
H1B H 1.1527 0.1682 0.0430 0.0360 Uiso
C7B C 1.1740(17) 0.2874(7) 0.0577(6) 0.0293 Uani
H2B H 1.2833 0.3004 0.0469 0.0350 Uiso
O11C O -0.0836(17) -0.0592(8) 0.4386(8) 0.1043 Uani
O1D O -0.1709(12) 0.6930(4) 0.3891(6) 0.0427 Uani
O1F O 1.1709(12) 0.6930(4) 0.1109(6) 0.0427 Uani
O2C O 0.1890(11) -0.1001(5) 0.5700(4) 0.0327 Uani
O2D O -0.3110(11) 0.6001(5) 0.4300(4) 0.0327 Uani
O2F O 1.3110(11) 0.6001(5) 0.0700(4) 0.0327 Uani
U1D U 0.46935(6) 0.07160(2) 0.38192(2) 0.0253 Uani
U1F U 0.53065(6) 0.07160(2) 0.11808(2) 0.0253 Uani
O5D O 0.3282(12) -0.0444(5) 0.4255(5) 0.0347 Uani
O5G O 0.3282(12) 0.0444(5) 0.5745(5) 0.0347 Uani
Na1A Na 0.8899(11) 0.0000 0.0000 0.0450 Uani
Na1D Na -0.3899(11) 0.5000 0.5000 0.0450 Uani
Na1E Na 1.3899(11) 0.5000 0.0000 0.0450 Uani
Na2 Na 0.5000 0.3859(5) 0.2500 0.0990 Uani
O12 O 0.557(3) 0.3233(9) 0.1678(7) 0.1517 Uani
O13 O 0.737(3) 0.4281(14) 0.271(2) 0.5633 Uani
O12B O 0.443(3) 0.3233(9) 0.3322(7) 0.1517 Uani
O13B O 0.263(3) 0.4281(14) 0.229(2) 0.5633 Uani
loop_
_atom_site_aniso_label
_atom_site_aniso_U_11
_atom_site_aniso_U_22
_atom_site_aniso_U_33
_atom_site_aniso_U_23
_atom_site_aniso_U_13
_atom_site_aniso_U_12
O1 0.036(6) 0.019(5) 0.073(7) 0.019(5) 0.037(6) 0.008(4)
O2 0.029(5) 0.017(5) 0.052(6) 0.003(4) 0.011(4) 0.001(4)
C1 0.028(9) 0.031(8) 0.040(8) -0.007(7) 0.008(6) -0.001(6)
U1 0.0235(2) 0.0196(2) 0.0329(2) 0.0011(2) 0.0055(2) 0.0039(2)
O3 0.027(5) 0.025(5) 0.065(6) 0.007(6) 0.003(5) 0.005(4)
O4 0.031(5) 0.046(7) 0.045(6) 0.011(5) 0.011(4) 0.012(5)
O5 0.033(6) 0.017(5) 0.054(6) -0.002(4) 0.013(5) 0.014(4)
O6 0.035(6) 0.037(6) 0.060(7) 0.000(5) 0.016(5) -0.003(5)
C2 0.035(9) 0.016(6) 0.032(7) -0.004(5) -0.001(6) 0.010(6)
C3 0.040(9) 0.053(10) 0.019(7) -0.007(7) 0.007(6) 0.013(8)
O7 0.034(5) 0.018(4) 0.037(5) 0.005(4) 0.011(4) 0.008(4)
O8 0.020(8) 0.043(7) 0.025(6) 0.000 0.002(5) 0.000
O9 0.038(6) 0.037(6) 0.042(6) 0.007(5) -0.001(5) 0.001(5)
O10 0.029(6) 0.047(6) 0.038(5) -0.006(4) 0.007(4) 0.001(4)
C4 0.027(8) 0.028(7) 0.026(7) 0.002(6) -0.002(6) 0.018(6)
C5 0.046(9) 0.020(7) 0.030(7) -0.007(5) 0.003(7) 0.002(7)
C6 0.031(8) 0.016(6) 0.042(8) -0.003(6) 0.004(6) 0.003(6)
C7 0.029(8) 0.027(7) 0.032(8) 0.011(7) 0.007(6) -0.004(6)
C8 0.039(9) 0.051(10) 0.025(8) -0.009(7) 0.001(7) 0.005(7)
Na1 0.038(5) 0.042(5) 0.055(5) 0.011(4) 0.000 0.000
O11 0.064(9) 0.101(11) 0.148(13) 0.005(10) 0.056(9) -0.001(9)
C9 0.063(13) 0.040(8) 0.047(10) -0.010(7) 0.015(8) 0.004(8)
O4B 0.031 0.046 0.045 -0.011 0.011 -0.012
O6B 0.035 0.037 0.06 0 0.016 0.003
C3B 0.04 0.053 0.019 0.007 0.007 -0.013
C8B 0.039 0.051 0.025 0.009 0.001 -0.005
C9B 0.063 0.04 0.047 0.01 0.015 -0.004
O1B 0.036 0.019 0.073 -0.019 0.037 -0.008
O2B 0.029 0.017 0.052 -0.003 0.011 -0.001
C1B 0.028 0.031 0.04 0.007 0.008 0.001
U1B 0.0235 0.0196 0.0329 -0.0011 0.0055 -0.0039
O3B 0.027 0.025 0.065 -0.007 0.003 -0.005
O5B 0.033 0.017 0.054 0.002 0.013 -0.014
C2B 0.035 0.016 0.032 0.004 -0.001 -0.01
O7B 0.034 0.018 0.037 -0.005 0.011 -0.008
O9B 0.038 0.037 0.042 -0.007 -0.001 -0.001
O10B 0.029 0.047 0.038 0.006 0.007 -0.001
C4B 0.027 0.028 0.026 -0.002 -0.002 -0.018
C5B 0.046 0.02 0.03 0.007 0.003 -0.002
C6B 0.031 0.016 0.042 0.003 0.004 -0.003
C7B 0.029 0.027 0.032 -0.011 0.007 0.004
O11C 0.064 0.101 0.148 0.005 -0.056 0.001
O1D 0.036 0.019 0.073 0.019 0.037 0.008
O1F 0.036 0.019 0.073 -0.019 0.037 -0.008
O2C 0.029 0.017 0.052 0.003 -0.011 -0.001
O2D 0.029 0.017 0.052 0.003 0.011 0.001
O2F 0.029 0.017 0.052 -0.003 0.011 -0.001
U1D 0.0235 0.0196 0.0329 0.0011 0.0055 0.0039
U1F 0.0235 0.0196 0.0329 -0.0011 0.0055 -0.0039
O5D 0.033 0.017 0.054 -0.002 0.013 0.014
O5G 0.033 0.017 0.054 -0.002 -0.013 -0.014
Na1A 0.038 0.042 0.055 -0.011 0 0
Na1D 0.038 0.042 0.055 0.011 0 0
Na1E 0.038 0.042 0.055 -0.011 0 0
Na2 0.130(12) 0.056(6) 0.111(9) 0.000 -0.020(9) 0.000
O12 0.141(18) 0.104(12) 0.21(2) -0.083(13) 0.046(16) 0.009(13)
O13 1.02(12) 0.21(3) 0.46(7) 0.24(4) -0.38(8) -0.36(5)
O12B 0.141 0.104 0.21 0.083 0.046 -0.009
O13B 1.02 0.21 0.46 -0.24 -0.38 0.36
loop_
_geom_bond_atom_site_label_1
_geom_bond_atom_site_label_2
_geom_bond_site_symmetry_1
_geom_bond_site_symmetry_2
O1 C1 1_555 1_555
O2 C1 1_555 1_555
C1 C2 1_555 1_555
U1 O3 1_555 1_555
O3 C5 1_555 1_555
O4 U1 1_555 1_555
O5 U1 1_555 1_555
O6 U1 1_555 1_555
C2 O7 1_555 1_555
C3 O8 1_555 1_555
O7 C4 1_555 1_555
O8 C3B 1_555 1_555
O9 U1 1_555 1_555
O10 U1 1_555 1_555
C4 C5 1_555 1_555
C5 O5 1_555 1_555
C6 C2 1_555 1_555
H1 C6 1_555 1_555
C7 C4 1_555 1_555
H2 C7 1_555 1_555
C8 O4 1_555 1_555
Na1 O2 1_555 1_555
O11 Na1 1_555 1_555
C9 C3 1_555 1_555
H3 C9 1_555 1_555
Na2 O12 1_555 1_555
O13 Na2 1_555 1_555
O4B C8B 1_555 1_555
O6B C8B 1_555 1_555
C3B C8B 1_555 1_555
C9B C9 1_555 1_555
H3B C9B 1_555 1_555
O1B C1B 1_555 1_555
O2B C1B 1_555 1_555
C1B C2B 1_555 1_555
U1B O4B 1_555 1_555
O3B U1B 1_555 1_555
O5B U1B 1_555 1_555
C2B O7B 1_555 1_555
O7B C4B 1_555 1_555
O9B U1B 1_555 1_555
O10B U1B 1_555 1_555
C4B C5B 1_555 1_555
C5B O3B 1_555 1_555
C6B C2B 1_555 1_555
H1B C6B 1_555 1_555
C7B C4B 1_555 1_555
H2B C7B 1_555 1_555
O11C Na1 1_555 1_555
O1D U1 1_555 1_555
O1F U1B 1_555 1_555
O2C Na1 1_555 1_555
O2D U1 1_555 1_555
O2F U1B 1_555 1_555
U1D O1 1_555 1_555
U1F O1B 1_555 1_555
O5D Na1 1_555 1_555
O5G Na1 1_555 1_555
Na1A O2B 1_555 1_555
Na1D O5 1_555 1_555
Na1E O5B 1_555 1_555
O12B Na2 1_555 1_555
O13B Na2 1_555 1_555
O2 U1D 1_555 1_555
O6 C8 1_555 1_555
C3 C8 1_555 1_555
C6 C7 1_555 1_555
O6B U1B 1_555 1_555
C3B C9B 1_555 1_555
O2B U1F 1_555 1_555
O5B C5B 1_555 1_555
C6B C7B 1_555 1_555
O2D Na1D 1_555 1_555
O2F Na1E 1_555 1_555
U1D O5D 1_555 1_555

#END
