
#######################################################################
#
#                 Cambridge Crystallographic Data Centre
#                                CCDC 
#
#######################################################################
#
# If this CIF has been generated from an entry in the Cambridge 
# Structural Database, then it will include bibliographic, chemical, 
# crystal, experimental, refinement or atomic coordinate data resulting 
# from the CCDC's data processing and validation procedures.
#
#######################################################################

data_RIGPEE01
_chemical_formula_moiety         '(C21 H18 Cu1 N5 O4)n'
_symmetry_cell_setting           monoclinic
_symmetry_space_group_name_H-M   'P 21/c'
_symmetry_Int_Tables_number      14
_space_group_name_Hall           '-P 2ybc'
loop_
_symmetry_equiv_pos_site_id
_symmetry_equiv_pos_as_xyz
1 x,y,z
2 -x,1/2+y,1/2-z
3 -x,-y,-z
4 x,1/2-y,1/2+z
_cell_length_a                   9.876(2)
_cell_length_b                   9.2950(19)
_cell_length_c                   22.594(6)
_cell_angle_alpha                90
_cell_angle_beta                 106.80(3)
_cell_angle_gamma                90
_cell_volume                     1985.55
loop_
_atom_site_label
_atom_site_type_symbol
_atom_site_fract_x
_atom_site_fract_y
_atom_site_fract_z
N1 N 0.9730(9) 0.1378(11) 0.8758(5)
O1 O 1.0551(7) 0.0828(8) 0.9215(3)
O2 O 1.0191(7) 0.1959(8) 0.8359(3)
O3 O 0.8478(6) 0.1371(8) 0.8684(3)
Cu1 Cu 0.69374(10) -0.12444(12) 0.84682(4)
N2 N 0.6119(8) -0.0884(8) 0.7567(3)
C1 C 0.4888(10) -0.1435(10) 0.7237(4)
H1 H 0.4477 -0.2136 0.7422
C2 C 0.6036(8) 0.0570(9) 0.6680(4)
H2 H 0.6489 0.1255 0.6504
C3 C 0.4183(8) -0.1041(9) 0.6642(4)
H3 H 0.3330 -0.1480 0.6436
C4 C 0.4751(7) 0.0023(8) 0.6345(3)
C5 C 0.4028(7) 0.0465(7) 0.5694(3)
C6 C 0.3915(6) 0.1935(7) 0.4828(3)
N3 N 0.2826(6) -0.0264(7) 0.5387(3)
C7 C 0.2686(7) 0.1190(8) 0.4507(3)
H4 H 0.2223 0.1441 0.4100
C8 C 0.2154(7) 0.0092(7) 0.4783(3)
C9 C 0.0878(7) -0.0771(7) 0.4454(3)
C10 C 0.0037(8) -0.0427(9) 0.3866(3)
H5 H 0.0248 0.0362 0.3656
C11 C -0.0677(8) -0.2741(8) 0.4433(4)
H6 H -0.0921 -0.3521 0.4639
C12 C -0.1127(8) -0.1288(9) 0.3599(3)
H7 H -0.1702 -0.1026 0.3210
N4 N -0.1480(6) -0.2468(7) 0.3861(3)
N5 N 0.5843(6) 0.5108(7) 0.3950(3)
C13 C 0.6650(9) 0.0110(10) 0.7270(4)
H8 H 0.7510 0.0524 0.7483
C14 C 0.4555(6) 0.1542(6) 0.5423(3)
H9 H 0.5368 0.2022 0.5647
C15 C 0.0489(7) -0.1946(8) 0.4740(3)
H10 H 0.1013 -0.2200 0.5138
C16 C 0.4542(7) 0.3075(8) 0.4528(3)
C17 C 0.3815(8) 0.3718(9) 0.3971(4)
H11 H 0.2876 0.3478 0.3781
C18 C 0.4487(8) 0.4709(9) 0.3704(4)
H12 H 0.3977 0.5127 0.3332
C19 C 0.6507(8) 0.4510(9) 0.4491(4)
H13 H 0.7433 0.4796 0.4682
C20 C 0.5927(8) 0.3510(8) 0.4786(3)
H14 H 0.6461 0.3121 0.5160
Cu1C Cu -0.30626(10) -0.37556(12) 0.34682(4)
Cu1C_2 Cu 0.69374(10) 0.62444(12) 0.34682(4)
N4C N 0.8520(6) -0.2532(7) 0.8861(3)
N5C N 0.5843(6) -0.0108(7) 0.8950(3)
C21 C 0.0908(14) 0.8663(17) 0.7921(7)
H15 H 0.1373 0.8444 0.8347
H16 H 0.0123 0.8021 0.7767
H17 H 0.0572 0.9637 0.7888
O4 O 0.1796(8) 0.8511(10) 0.7599(4)
H18 H 0.1269 0.8047 0.7295
loop_
_geom_bond_atom_site_label_1
_geom_bond_atom_site_label_2
_geom_bond_site_symmetry_1
_geom_bond_site_symmetry_2
N1 O1 1_555 1_555
O2 N1 1_555 1_555
O3 N1 1_555 1_555
Cu1 N2 1_555 1_555
N2 C1 1_555 1_555
C1 H1 1_555 1_555
C2 H2 1_555 1_555
C3 C1 1_555 1_555
H3 C3 1_555 1_555
C4 C2 1_555 1_555
C5 C4 1_555 1_555
C6 C7 1_555 1_555
N3 C5 1_555 1_555
C7 H4 1_555 1_555
C8 N3 1_555 1_555
C9 C8 1_555 1_555
C10 C9 1_555 1_555
H5 C10 1_555 1_555
C11 H6 1_555 1_555
C12 C10 1_555 1_555
H7 C12 1_555 1_555
N4 C11 1_555 1_555
N5 C18 1_555 1_555
C13 N2 1_555 1_555
H8 C13 1_555 1_555
C14 C5 1_555 1_555
H9 C14 1_555 1_555
C15 C9 1_555 1_555
H10 C15 1_555 1_555
C16 C6 1_555 1_555
C17 C16 1_555 1_555
H11 C17 1_555 1_555
C18 C17 1_555 1_555
H12 C18 1_555 1_555
C19 N5 1_555 1_555
H13 C19 1_555 1_555
C20 C16 1_555 1_555
H14 C20 1_555 1_555
C21 H15 1_555 1_555
H16 C21 1_555 1_555
H17 C21 1_555 1_555
O4 C21 1_555 1_555
H18 O4 1_555 1_555
Cu1C N4 1_555 1_555
Cu1C_2 N5 1_555 1_555
N4C Cu1 1_555 1_555
N5C Cu1 1_555 1_555
C2 C13 1_555 1_555
C3 C4 1_555 1_555
C6 C14 1_555 1_555
C7 C8 1_555 1_555
C11 C15 1_555 1_555
C12 N4 1_555 1_555
C19 C20 1_555 1_555

#END
