
#######################################################################
#
#                 Cambridge Crystallographic Data Centre
#                                CCDC 
#
#######################################################################
#
# If this CIF has been generated from an entry in the Cambridge 
# Structural Database, then it will include bibliographic, chemical, 
# crystal, experimental, refinement or atomic coordinate data resulting 
# from the CCDC's data processing and validation procedures.
#
#######################################################################

data_DUXKEN
_chemical_formula_moiety         'C150 H144 N41 Ni24 O100 V31'
_symmetry_cell_setting           triclinic
_symmetry_space_group_name_H-M   'P 1'
_symmetry_Int_Tables_number      1
_space_group_name_Hall           'P 1'
loop_
_symmetry_equiv_pos_site_id
_symmetry_equiv_pos_as_xyz
1 x,y,z
_cell_length_a                   11.2784(13)
_cell_length_b                   22.600(3)
_cell_length_c                   22.521(5)
_cell_angle_alpha                104.626(14)
_cell_angle_beta                 100.215(14)
_cell_angle_gamma                96.241(9)
_cell_volume                     5394.88
loop_
_atom_site_label
_atom_site_type_symbol
_atom_site_fract_x
_atom_site_fract_y
_atom_site_fract_z
O84 O 0.9162(7) 0.8661(4) 0.3308(3)
O85 O 0.8229(14) 0.9111(8) 0.2397(7)
O87 O 0.8664(13) 0.2622(7) -0.2872(7)
O89 O -0.0321(12) -0.2628(6) -0.6638(6)
O91 O -0.5389(13) 0.2203(7) -0.2410(6)
O92 O -0.0506(12) 0.6261(6) 0.2308(6)
O94 O -0.1222(12) 0.3986(6) 0.2555(6)
O95 O -0.0259(13) 0.1805(7) -0.2513(7)
O96 O -0.4452(11) 0.6050(6) 0.0563(5)
O97 O 1.2227(17) 0.2400(9) -0.2133(9)
O98 O -0.9362(15) 0.3096(8) -0.1518(8)
O99 O -0.1529(15) 0.2778(8) 0.2905(8)
N1 N 0.222(4) 0.3016(9) 1.2087(8)
C1 C 0.2612(15) 0.3618(10) 1.2295(9)
H1 H 0.2981 0.3816 1.2032
C2 C 0.2515(15) 0.3978(9) 1.2879(8)
H2 H 0.2818 0.4410 1.3018
C3 C 0.195(2) 0.3678(9) 1.3253(9)
C4 C 0.1452(15) 0.3050(8) 1.3021(7)
H3 H 0.1008 0.2846 1.3254
C5 C 0.1632(15) 0.2733(8) 1.2430(7)
H4 H 0.1326 0.2302 1.2268
N3 N 0.1800(6) 0.4567(3) 1.5183(3)
C11 C 0.0826(17) 0.4169(9) 1.4778(9)
H9 H 0.0117 0.4081 1.4934
C12 C 0.0808(14) 0.3886(8) 1.4155(8)
H10 H 0.0128 0.3591 1.3899
C13 C 0.181(2) 0.4042(9) 1.3911(12)
C14 C 0.278(4) 0.4486(17) 1.4289(16)
H11 H 0.3478 0.4604 1.4137
C15 C 0.268(3) 0.475(2) 1.4900(16)
H12 H 0.3293 0.5084 1.5145
N6 N 0.0625(6) -0.2466(3) 1.1135(3)
C31 C 0.0019(13) -0.2776(8) 1.1451(8)
H25 H 0.0433 -0.3031 1.1666
C32 C -0.1181(13) -0.2741(8) 1.1478(8)
H26 H -0.1607 -0.3002 1.1668
C33 C -0.1754(19) -0.2332(8) 1.1231(10)
C34 C -0.1145(13) -0.1983(8) 1.0947(9)
H27 H -0.1528 -0.1693 1.0773
C35 C 0.0035(14) -0.2048(9) 1.0910(8)
H28 H 0.0462 -0.1789 1.0718
N7 N -0.5561(13) -0.2310(6) 1.1271(6)
C41 C -0.5091(11) -0.2158(7) 1.0804(6)
H33 H -0.5621 -0.2063 1.0475
C42 C -0.3887(11) -0.2138(7) 1.0792(6)
H34 H -0.3588 -0.2029 1.0458
C43 C -0.3080(15) -0.2277(8) 1.1273(6)
C44 C -0.3567(12) -0.2425(7) 1.1763(7)
H35 H -0.3053 -0.2517 1.2099
C45 C -0.4785(11) -0.2433(7) 1.1748(6)
H36 H -0.5105 -0.2529 1.2082
N9 N 0.3902(14) 0.2424(6) 1.1221(7)
C51 C 0.4762(12) 0.2925(8) 1.1534(7)
H41 H 0.4507 0.3284 1.1765
C52 C 0.6016(12) 0.2942(7) 1.1537(7)
H42 H 0.6590 0.3299 1.1775
C53 C 0.6403(15) 0.2422(6) 1.1180(8)
C54 C 0.5521(12) 0.1902(7) 1.0869(7)
H43 H 0.5758 0.1536 1.0641
C55 C 0.4301(12) 0.1914(7) 1.0888(7)
H44 H 0.3719 0.1556 1.0663
N11 N 1.0134(6) 0.2479(3) 1.1074(3)
C61 C 0.9605(19) 0.2972(12) 1.1079(9)
H49 H 1.0079 0.3333 1.1050
C62 C 0.8370(16) 0.2997(10) 1.1125(9)
H50 H 0.8007 0.3357 1.1124
C63 C 0.772(2) 0.2440(7) 1.1172(11)
C64 C 0.8251(14) 0.1892(9) 1.1116(9)
H51 H 0.7798 0.1508 1.1104
C65 C 0.9499(15) 0.1953(10) 1.1079(9)
H52 H 0.9897 0.1601 1.1058
N12 N 0.1948(5) -0.4691(3) 0.7112(3)
C71 C 0.2892(7) -0.4681(4) 0.7575(4)
H57 H 0.3494 -0.4929 0.7471
C72 C 0.3044(7) -0.4335(4) 0.8188(4)
H58 H 0.3751 -0.4328 0.8492
C73 C 0.2133(6) -0.3993(4) 0.8355(4)
C74 C 0.1144(7) -0.4017(4) 0.7883(4)
H59 H 0.0500 -0.3796 0.7979
C75 C 0.1086(7) -0.4357(4) 0.7279(4)
H60 H 0.0405 -0.4356 0.6963
N13 N 0.2300(6) -0.2938(3) 1.0252(3)
C76 C 0.3082(14) -0.3349(8) 1.0101(7)
H61 H 0.3663 -0.3406 1.0434
C77 C 0.3083(14) -0.3686(8) 0.9498(7)
H62 H 0.3669 -0.3954 0.9430
C78 C 0.222(3) -0.3636(18) 0.8982(12)
C79 C 0.1461(14) -0.3190(8) 0.9138(7)
H63 H 0.0874 -0.3121 0.8814
C80 C 0.1554(14) -0.2858(8) 0.9745(6)
H64 H 0.1057 -0.2545 0.9818
N14 N 0.1781(5) 0.2026(3) 1.0188(3)
C86 C 0.1026(14) 0.1515(7) 0.9908(6)
H69 H 0.0485 0.1370 1.0138
C87 C 0.0955(14) 0.1167(7) 0.9294(6)
H70 H 0.0423 0.0782 0.9111
C88 C 0.170(3) 0.1414(10) 0.8969(13)
C89 C 0.2353(15) 0.2003(7) 0.9208(6)
H71 H 0.2776 0.2205 0.8966
C90 C 0.2341(14) 0.2281(7) 0.9833(6)
H72 H 0.2778 0.2689 1.0016
N15 N 0.1778(5) 0.0338(3) 0.7079(3)
C96 C 0.2761(7) 0.0742(4) 0.7444(3)
H77 H 0.3480 0.0796 0.7285
C97 C 0.2739(7) 0.1079(4) 0.8048(3)
H78 H 0.3450 0.1352 0.8301
C98 C 0.1695(7) 0.1024(4) 0.8289(4)
C99 C 0.0684(7) 0.0620(4) 0.7889(3)
H79 H -0.0057 0.0570 0.8029
C100 C 0.0743(6) 0.0293(4) 0.7294(3)
H80 H 0.0034 0.0028 0.7028
N16 N 0.1982(6) -0.0511(3) 1.5214(3)
C101 C 0.2569(7) -0.0209(4) 1.4892(3)
H81 H 0.2939 0.0210 1.5089
C102 C 0.2668(7) -0.0477(4) 1.4282(3)
H82 H 0.3065 -0.0235 1.4063
C103 C 0.2190(7) -0.1099(3) 1.3985(4)
C104 C 0.1591(9) -0.1407(4) 1.4332(4)
H83 H 0.1263 -0.1834 1.4163
C105 C 0.1468(2) -0.10928(12) 1.49280(12)
H84 H 0.0991 -0.1306 1.5141
C106 C 0.2380(2) -0.14162(12) 1.33577(12)
C107 C 0.2645(2) -0.20163(12) 1.32210(12)
H85 H 0.2707 -0.2232 1.3534
C108 C 0.2817(2) -0.23012(12) 1.26260(12)
H86 H 0.2998 -0.2711 1.2533
N17 N 0.2726(2) -0.19862(12) 1.21677(12)
C109 C 0.2461(2) -0.13861(12) 1.23045(12)
H87 H 0.2399 -0.1171 1.1991
C110 C 0.2289(2) -0.11012(12) 1.28995(12)
H88 H 0.2108 -0.0691 1.2993
N19 N 0.5167(2) 0.43955(12) 0.88983(12)
C116 C 0.4286(2) 0.40291(12) 0.84305(12)
H93 H 0.4509 0.3726 0.8112
C117 C 0.3066(2) 0.40769(12) 0.83909(12)
H94 H 0.2476 0.3835 0.8032
C118 C 0.2702(7) 0.4477(3) 0.8875(3)
C119 C 0.3618(6) 0.4838(4) 0.9391(3)
H95 H 0.3416 0.5114 0.9739
C120 C 0.4833(3) 0.47765(16) 0.93721(14)
H96 H 0.5454 0.5020 0.9716
N20 N -0.1078(3) 0.45720(16) 0.88546(14)
C121 C -0.0243(3) 0.47019(16) 0.94225(14)
H97 H -0.0518 0.4784 0.9806
C122 C 0.0994(3) 0.47123(16) 0.94295(14)
H98 H 0.1564 0.4801 0.9818
C123 C 0.1396(3) 0.45927(16) 0.88685(14)
C124 C 0.0561(3) 0.44627(16) 0.83006(14)
H99 H 0.0836 0.4381 0.7917
C125 C -0.0676(3) 0.44524(16) 0.82935(14)
H100 H -0.1247 0.4364 0.7905
N22 N 0.7073(6) 0.3494(3) 0.8853(3)
C131 C 0.6544(10) 0.3231(5) 0.9233(5)
H105 H 0.6086 0.3461 0.9498
C132 C 0.6656(11) 0.2630(5) 0.9244(6)
H106 H 0.6268 0.2453 0.9515
C133 C 0.7334(7) 0.2275(5) 0.8863(4)
C134 C 0.7858(8) 0.2569(4) 0.8484(5)
H107 H 0.8337 0.2358 0.8218
C135 C 0.7694(9) 0.3166(4) 0.8486(4)
H108 H 0.8047 0.3349 0.8209
N23 N 0.7678(6) 0.0404(3) 0.8842(3)
C136 C 0.7618(9) 0.0815(4) 0.9371(4)
H109 H 0.7635 0.0686 0.9742
C137 C 0.7529(10) 0.1433(4) 0.9395(4)
H110 H 0.7504 0.1716 0.9783
C138 C 0.7476(7) 0.1640(4) 0.8864(3)
C139 C 0.7573(8) 0.1209(4) 0.8328(4)
H111 H 0.7573 0.1327 0.7952
C140 C 0.7669(7) 0.0602(4) 0.8331(4)
H112 H 0.7732 0.0316 0.7952
N24 N 0.5727(6) -0.0582(3) 0.8763(3)
C141 C 0.5212(7) -0.0777(4) 0.9190(4)
H113 H 0.5706 -0.0921 0.9494
C142 C 0.3983(7) -0.0774(4) 0.9204(3)
H114 H 0.3656 -0.0905 0.9519
C143 C 0.3243(7) -0.0579(4) 0.8758(3)
C144 C 0.3768(7) -0.0400(4) 0.8306(4)
H115 H 0.3281 -0.0280 0.7981
C145 C 0.4996(7) -0.0395(4) 0.8331(4)
H116 H 0.5343 -0.0254 0.8027
N25 N -0.0542(6) -0.0527(3) 0.8777(3)
C146 C -0.0184(6) -0.0805(4) 0.8258(3)
H117 H -0.0791 -0.0998 0.7888
C147 C 0.1040(7) -0.0826(4) 0.8229(4)
H118 H 0.1256 -0.1016 0.7845
C148 C 0.1932(7) -0.0565(4) 0.8772(3)
C149 C 0.1572(7) -0.0302(5) 0.9318(4)
H119 H 0.2158 -0.0132 0.9700
C150 C 0.0333(7) -0.0290(4) 0.9301(4)
H120 H 0.0096 -0.0105 0.9680
N26 N 0.1899(5) 0.0821(3) 0.6030(3)
C151 C 0.0854(7) 0.1067(4) 0.6036(4)
H121 H 0.0117 0.0804 0.6006
C152 C 0.0824(7) 0.1693(4) 0.6084(4)
H122 H 0.0078 0.1851 0.6085
C153 C 0.1906(6) 0.2086(3) 0.6132(4)
C154 C 0.2978(7) 0.1830(3) 0.6113(3)
H123 H 0.3722 0.2079 0.6126
C155 C 0.2932(6) 0.1204(3) 0.6074(3)
H124 H 0.3670 0.1037 0.6078
N27 N 0.1983(5) 0.4017(3) 0.6226(3)
C156 C 0.2748(6) 0.3673(4) 0.5931(4)
H125 H 0.3310 0.3871 0.5745
C157 C 0.2742(6) 0.3059(4) 0.5891(4)
H126 H 0.3283 0.2840 0.5675
C158 C 0.1943(6) 0.2751(4) 0.6166(3)
C159 C 0.1176(6) 0.3116(3) 0.6486(3)
H127 H 0.0622 0.2932 0.6685
C160 C 0.1229(7) 0.3731(4) 0.6509(4)
H128 H 0.0716 0.3965 0.6733
N28 N 0.1885(5) -0.0972(3) 0.6322(3)
C161 C 0.2855(7) -0.1260(4) 0.6231(4)
H129 H 0.3578 -0.1024 0.6197
C162 C 0.2838(7) -0.1887(3) 0.6184(4)
H130 H 0.3528 -0.2073 0.6100
C163 C 0.1809(6) -0.2246(4) 0.6260(4)
C164 C 0.0818(7) -0.1940(3) 0.6364(4)
H131 H 0.0096 -0.2158 0.6420
C165 C 0.0894(7) -0.1316(4) 0.6387(3)
H132 H 0.0204 -0.1122 0.6452
N29 N 0.1839(5) -0.4170(3) 0.6072(3)
C166 C 0.0788(7) -0.3955(4) 0.5919(4)
H133 H 0.0055 -0.4247 0.5759
C167 C 0.0712(6) -0.3336(3) 0.5980(3)
H134 H -0.0053 -0.3207 0.5874
C168 C 0.1789(6) -0.2903(4) 0.6203(4)
C169 C 0.2888(6) -0.3124(4) 0.6342(4)
H135 H 0.3639 -0.2846 0.6470
C170 C 0.2880(6) -0.3751(3) 0.6295(4)
H136 H 0.3625 -0.3889 0.6423
N30 N 0.7493(5) -0.1489(3) 0.8776(3)
C171 C 0.8257(8) -0.1675(4) 0.9206(4)
H137 H 0.8861 -0.1369 0.9510
C172 C 0.8206(8) -0.2280(4) 0.9227(4)
H138 H 0.8776 -0.2385 0.9533
C173 C 0.7315(7) -0.2737(4) 0.8799(3)
C174 C 0.6541(8) -0.2554(4) 0.8357(4)
H139 H 0.5926 -0.2854 0.8052
C175 C 0.6649(7) -0.1946(4) 0.8351(4)
H140 H 0.6109 -0.1838 0.8035
N31 N 0.7091(6) -0.4633(3) 0.8863(3)
C176 C 0.6794(7) -0.4481(4) 0.8315(3)
H141 H 0.6529 -0.4808 0.7937
C177 C 0.6855(8) -0.3881(4) 0.8277(4)
H142 H 0.6635 -0.3802 0.7880
C178 C 0.7244(7) -0.3382(4) 0.8825(3)
C179 C 0.7527(9) -0.3553(4) 0.9387(4)
H143 H 0.7773 -0.3239 0.9775
C180 C 0.7453(8) -0.4167(4) 0.9384(4)
H144 H 0.7670 -0.4261 0.9773
N32 N 0.5895(6) 0.5162(3) 0.3924(3)
C181 C 0.6289(8) 0.4987(4) 0.4447(4)
H145 H 0.6545 0.5300 0.4835
C182 C 0.6345(8) 0.4382(4) 0.4451(4)
H146 H 0.6612 0.4284 0.4834
C183 C 0.6000(7) 0.3912(5) 0.3882(3)
C184 C 0.5584(8) 0.4093(4) 0.3334(4)
H147 H 0.5340 0.3792 0.2937
C185 C 0.5536(7) 0.4712(4) 0.3381(4)
H148 H 0.5235 0.4825 0.3010
N33 N 0.6054(5) 0.2004(3) 0.3795(3)
C186 C 0.5135(8) 0.2179(4) 0.3446(4)
H149 H 0.4493 0.1869 0.3177
C187 C 0.5084(8) 0.2791(4) 0.3462(4)
H150 H 0.4411 0.2894 0.3211
C188 C 0.6020(7) 0.3257(4) 0.3845(3)
C189 C 0.6982(7) 0.3059(4) 0.4199(4)
H151 H 0.7651 0.3353 0.4468
C190 C 0.6944(7) 0.2443(4) 0.4155(3)
H152 H 0.7603 0.2323 0.4399
N34 N 0.7840(5) 0.1080(3) 0.3817(3)
C191 C 0.8536(7) 0.0865(4) 0.4241(4)
H153 H 0.8169 0.0732 0.4544
C192 C 0.9758(6) 0.0829(4) 0.4260(4)
H154 H 1.0226 0.0693 0.4579
C193 C 1.0282(7) 0.0996(4) 0.3801(3)
C194 C 0.9580(7) 0.1206(4) 0.3355(4)
H155 H 0.9919 0.1325 0.3037
C195 C 0.8351(7) 0.1242(4) 0.3380(4)
H156 H 0.7868 0.1389 0.3074
N35 N 1.4104(6) 0.1009(3) 0.3811(3)
C196 C 1.3233(7) 0.0750(4) 0.3289(3)
H157 H 1.3483 0.0571 0.2911
C197 C 1.2004(7) 0.0728(4) 0.3267(3)
H158 H 1.1433 0.0539 0.2882
C198 C 1.1596(7) 0.0981(3) 0.3807(3)
C199 C 1.2491(6) 0.1240(4) 0.4352(3)
H159 H 1.2264 0.1415 0.4737
C200 C 1.3710(7) 0.1242(4) 0.4332(3)
H160 H 1.4300 0.1419 0.4712
N36 N 0.7805(6) 0.6129(3) 0.3921(3)
C201 C 0.8147(7) 0.5707(4) 0.3472(4)
H161 H 0.7531 0.5421 0.3155
C202 C 0.9345(7) 0.5670(5) 0.3453(4)
H162 H 0.9551 0.5367 0.3127
C203 C 1.0244(7) 0.6076(4) 0.3908(3)
C204 C 0.9905(7) 0.6521(4) 0.4373(4)
H163 H 1.0509 0.6812 0.4692
C205 C 0.8691(7) 0.6533(4) 0.4365(3)
H164 H 0.8465 0.6837 0.4682
N37 N 1.4047(6) 0.6010(3) 0.3905(3)
C206 C 1.3622(7) 0.6091(5) 0.4438(4)
H165 H 1.4183 0.6122 0.4817
C207 C 1.2414(6) 0.6130(4) 0.4466(4)
H166 H 1.2170 0.6211 0.4858
C208 C 1.1566(6) 0.6049(4) 0.3910(3)
C209 C 1.1989(7) 0.5943(4) 0.3352(4)
H167 H 1.1443 0.5884 0.2961
C210 C 1.3212(6) 0.5926(4) 0.3380(4)
H168 H 1.3483 0.5849 0.2995
Ni1 Ni 0.75947(11) -0.05503(6) 0.87888(6)
Ni2 Ni 0.25298(11) -0.24624(6) 1.11954(6)
Ni3 Ni 0.70348(11) 0.44300(6) 0.88665(6)
Ni4 Ni 0.59768(11) 0.10659(7) 0.37998(6)
Ni5 Ni 0.59348(11) 0.61002(7) 0.39293(6)
Ni6 Ni 0.18788(11) -0.00952(6) 0.61416(5)
Ni7 Ni 0.18867(11) 0.49134(6) 1.61492(6)
Ni8 Ni 0.20471(11) 0.25022(6) 1.11342(6)
O1 O -0.2565(5) -0.5355(3) 0.9837(2)
O2 O 0.6638(4) 0.4141(2) 0.7898(2)
O3 O 0.3727(4) 0.0041(2) 0.6367(2)
O4 O 0.3728(4) 0.5087(2) 0.6347(2)
O5 O 1.0048(5) 0.4712(2) 0.5966(2)
O6 O 0.6339(5) 0.6382(3) 0.4887(3)
O7 O 0.7718(5) 0.1407(3) 0.5997(3)
O8 O 0.6453(5) 0.1386(3) 0.4768(2)
O9 O 0.7918(5) -0.0351(3) 0.9743(2)
O10 O 0.5283(5) 0.6905(3) 0.5796(3)
O11 O 0.7542(5) 0.6531(3) 0.6148(3)
O12 O 0.7045(5) 0.3453(3) 0.6707(3)
O13 O 0.7475(5) 0.2577(2) 0.5626(2)
O14 O 0.5923(5) 0.0371(3) 0.5990(3)
O15 O -0.3493(18) -0.5673(8) 1.0834(8)
O17 O 0.6778(8) -0.0537(4) 1.0755(4)
O18 O 0.7625(5) -0.1263(3) 0.6617(3)
O19 O 0.5670(5) -0.1584(3) 0.5628(3)
O20 O 0.7366(5) -0.2395(3) 0.5617(3)
O21 O 1.0043(5) -0.0306(2) 0.5858(2)
O22 O 0.7961(5) 0.0146(3) 0.5425(3)
O23 O 0.2012(6) 0.1710(3) 1.1374(3)
O24 O 0.1677(11) -0.5571(7) 1.0903(6)
O26 O 0.5538(5) 0.3211(3) 0.5548(3)
O27 O 0.5573(5) 0.0809(3) 1.2827(3)
O28 O 0.7781(5) 0.3897(3) 0.5708(2)
O29 O 0.5775(5) -0.0420(3) 0.6873(3)
O30 O 0.5468(5) 0.1803(3) 0.5752(3)
O31 O 0.9102(5) -0.0633(3) 0.4623(3)
O32 O 0.5699(7) 0.0406(4) 1.1516(3)
O33 O 0.3906(6) 0.1189(3) 1.1974(3)
O35 O 0.2728(12) -0.4334(7) 1.0707(6)
O37 O 0.5591(5) -0.4125(3) 1.2967(3)
O38 O 0.3806(11) -0.3973(6) 1.1996(6)
O40 O 0.7871(5) -0.1199(3) 0.5365(3)
O41 O 0.5840(8) -0.0737(5) 1.1742(4)
O42 O 0.4804(5) 0.3346(3) 0.7081(3)
O43 O 0.4208(6) -0.0693(3) 1.0705(3)
O44 O 0.5472(6) -0.1604(3) 0.7041(3)
O45 O 0.8066(5) 0.5307(3) 0.6120(3)
O46 O 0.7237(4) -0.0768(3) 0.7834(2)
O47 O 1.1338(7) 0.0608(4) 1.1739(4)
O48 O 0.8534(5) 0.6252(3) 0.7216(3)
O49 O 0.6157(5) 0.5738(3) 0.6721(3)
O50 O 0.8246(5) 0.0591(3) 0.6704(3)
O51 O 0.5548(6) 0.4468(3) 0.6845(3)
O52 O 0.5335(5) 0.4687(3) 0.5670(3)
O53 O 0.2358(6) -0.3277(3) 1.1401(3)
O54 O 0.1095(11) -0.4419(6) 1.1538(6)
O56 O 1.0371(8) -0.0417(4) 1.2008(4)
O57 O 0.8976(5) 0.4610(3) 0.6903(3)
O58 O 0.5986(11) -0.4557(6) 1.1797(6)
O60 O 0.5493(5) 0.0820(4) 0.7206(3)
O61 O 0.2234(7) -0.6682(3) 1.0925(3)
O62 O 0.8180(8) 0.0582(4) 1.0789(4)
O63 O 0.9464(7) -0.0401(4) 1.0864(4)
O64 O 0.6374(9) 0.1663(5) 1.2279(4)
O66 O 0.1951(8) -0.1299(4) 1.0012(4)
O67 O -0.2267(12) -0.4511(7) 1.0910(6)
O69 O 0.0664(14) -0.5493(7) 1.1928(8)
O71 O 0.2570(8) 0.0616(4) 1.0767(4)
O72 O 1.1945(9) -0.0569(4) 1.1238(6)
O73 O -0.3495(11) -0.5579(6) 1.2121(5)
O75 O -0.0837(10) -0.5443(6) 1.0882(5)
O77 O 0.6210(11) -0.3285(6) 1.2318(5)
O79 O 0.4329(10) -0.5707(6) 1.1325(5)
O81 O 0.3008(11) -0.6223(5) 1.0080(5)
O83 O 0.2774(7) -0.1646(3) 1.1007(3)
V1 V 0.87214(11) 0.46234(6) 0.61814(6)
V2 V 0.65870(12) 0.68511(6) 0.56053(6)
V3 V 0.51737(11) 0.49834(6) 0.63731(6)
V4 V 0.71093(12) -0.16120(6) 0.57927(6)
V5 V 0.52322(11) 0.02101(7) 0.66224(6)
V6 V 0.67473(11) 0.17867(6) 0.55172(6)
V7 V 0.74651(11) 0.06317(7) 0.60410(6)
V8 V 0.64801(12) -0.10295(7) 0.70842(6)
V9 V 0.5444(3) 0.10433(18) 1.21665(16)
V10 V 0.87660(11) -0.05097(6) 0.53034(6)
V11 V 0.75841(11) 0.59676(6) 0.65557(6)
V12 V -0.2320(3) -0.52488(14) 1.05998(17)
V14 V 0.69314(11) 0.32823(6) 0.58836(6)
V15 V 0.80753(16) -0.01622(12) 1.05282(9)
V16 V 0.5634(2) -0.04030(17) 1.11814(11)
V17 V 1.07588(16) -0.01756(9) 1.14430(11)
V18 V 0.0657(4) -0.52297(15) 1.1331(2)
V20 V 0.24598(19) 0.10371(9) 1.14464(9)
V21 V 0.5386(3) -0.39405(18) 1.22846(18)
V23 V 0.59722(11) 0.38444(6) 0.71394(6)
V24 V 0.2485(6) -0.4007(5) 1.1396(5)
V26 V 0.27083(19) -0.10523(11) 1.07122(15)
V27 V 0.2869(3) -0.60493(13) 1.08047(13)
V29 V -0.4122(2) -0.53544(13) 1.15383(13)
N7_2 N 0.4439(13) -0.2310(6) 1.1271(6)
N11_2 N 0.0134(6) 0.2479(3) 1.1074(3)
N12_2 N 0.1948(5) 0.5309(3) 1.7112(3)
N16_2 N 0.1982(6) -0.0511(3) 0.5214(3)
N20_2 N 0.8922(3) 0.45720(16) 0.88546(14)
N25_2 N 0.9458(6) -0.0527(3) 0.8777(3)
N27_2 N 0.1983(5) 0.4017(3) 1.6226(3)
N29_2 N 0.1839(5) 0.5830(3) 1.6072(3)
N31_2 N 0.7091(6) 0.5367(3) 0.8863(3)
N35_2 N 0.4104(6) 0.1009(3) 0.3811(3)
N37_2 N 0.4047(6) 0.6010(3) 0.3905(3)
Ni1_2 Ni -0.24053(11) -0.05503(6) 0.87888(6)
Ni2_2 Ni -0.74702(11) -0.24624(6) 1.11954(6)
Ni3_2 Ni -0.29652(11) 0.44300(6) 0.88665(6)
Ni3_3 Ni 0.70348(11) -0.55700(6) 0.88665(6)
Ni3_4 Ni -0.29652(11) -0.55700(6) 0.88665(6)
Ni4_2 Ni 1.59768(11) 0.10659(7) 0.37998(6)
Ni4_3 Ni 0.59768(11) 0.10659(7) 1.37998(6)
Ni5_2 Ni 1.59348(11) 0.61002(7) 0.39293(6)
Ni5_3 Ni 0.59348(11) -0.38998(7) 1.39293(6)
Ni6_2 Ni 0.18788(11) -0.00952(6) 1.61416(5)
Ni6_3 Ni 1.18788(11) -0.00952(6) 0.61416(5)
Ni7_2 Ni 0.18867(11) -0.50866(6) 0.61492(6)
Ni7_3 Ni 0.18867(11) 0.49134(6) 0.61492(6)
Ni7_4 Ni 1.18867(11) 0.49134(6) 0.61492(6)
Ni8_2 Ni 1.20471(11) 0.25022(6) 1.11342(6)
Ni8_3 Ni 0.20471(11) -0.74978(6) 1.11342(6)
O1_2 O 0.7435(5) 0.4645(3) 0.9837(2)
O4_2 O 0.3728(4) 0.5087(2) 1.6347(2)
O5_2 O 0.0048(5) 0.4712(2) 1.5966(2)
O15_2 O 0.6507(18) -0.5673(8) 1.0834(8)
O20_2 O 0.7366(5) 0.7605(3) 0.5617(3)
O21_2 O 0.0043(5) -0.0306(2) 0.5858(2)
O23_2 O 1.2012(6) 0.1710(3) 1.1374(3)
O27_2 O 0.5573(5) 0.0809(3) 0.2827(3)
O33_2 O 1.3906(6) 0.1189(3) 1.1974(3)
O37_2 O 0.5591(5) 0.5875(3) 0.2967(3)
O43_2 O 1.4208(6) -0.0693(3) 1.0705(3)
O47_2 O 0.1338(7) 0.0608(4) 1.1739(4)
O58_2 O -0.4014(11) -0.4557(6) 1.1797(6)
O61_2 O 0.2234(7) 0.3318(3) 1.0925(3)
O66_2 O 1.1951(8) -0.1299(4) 1.0012(4)
O71_2 O 1.2570(8) 0.0616(4) 1.0767(4)
O72_2 O 0.1945(9) -0.0569(4) 1.1238(6)
O73_2 O 0.6505(11) -0.5579(6) 1.2121(5)
O79_2 O -0.5671(10) -0.5707(6) 1.1325(5)
O83_2 O 1.2774(7) -0.1646(3) 1.1007(3)
V2_2 V 0.65870(12) -0.31489(6) 0.56053(6)
V17_2 V 0.07588(16) -0.01756(9) 1.14430(11)
V20_2 V 1.24598(19) 0.10371(9) 1.14464(9)
V21_2 V -0.4614(3) -0.39405(18) 1.22846(18)
V26_2 V 1.27083(19) -0.10523(11) 1.07122(15)
V27_2 V -0.7131(3) -0.60493(13) 1.08047(13)
V29_2 V 0.5878(2) -0.53544(13) 1.15383(13)
loop_
_geom_bond_atom_site_label_1
_geom_bond_atom_site_label_2
_geom_bond_site_symmetry_1
_geom_bond_site_symmetry_2
N1 C1 1_555 1_555
C1 H1 1_555 1_555
C2 C1 1_555 1_555
H2 C2 1_555 1_555
C3 C2 1_555 1_555
C4 C3 1_555 1_555
H3 C4 1_555 1_555
C5 N1 1_555 1_555
H4 C5 1_555 1_555
N3 C11 1_555 1_555
C11 H9 1_555 1_555
C12 C11 1_555 1_555
H10 C12 1_555 1_555
C13 C3 1_555 1_555
C14 C13 1_555 1_555
H11 C14 1_555 1_555
C15 N3 1_555 1_555
H12 C15 1_555 1_555
N6 C31 1_555 1_555
C31 H25 1_555 1_555
C32 C31 1_555 1_555
H26 C32 1_555 1_555
C33 C32 1_555 1_555
C34 C33 1_555 1_555
H27 C34 1_555 1_555
C35 N6 1_555 1_555
H28 C35 1_555 1_555
N7 C41 1_555 1_555
C41 H33 1_555 1_555
C42 C41 1_555 1_555
H34 C42 1_555 1_555
C43 C33 1_555 1_555
C44 C43 1_555 1_555
H35 C44 1_555 1_555
C45 N7 1_555 1_555
H36 C45 1_555 1_555
N9 C51 1_555 1_555
C51 H41 1_555 1_555
C52 C51 1_555 1_555
H42 C52 1_555 1_555
C53 C52 1_555 1_555
C54 C53 1_555 1_555
H43 C54 1_555 1_555
C55 N9 1_555 1_555
H44 C55 1_555 1_555
N11 C61 1_555 1_555
C61 H49 1_555 1_555
C62 C61 1_555 1_555
H50 C62 1_555 1_555
C63 C53 1_555 1_555
C64 C63 1_555 1_555
H51 C64 1_555 1_555
C65 N11 1_555 1_555
H52 C65 1_555 1_555
N12 C71 1_555 1_555
C71 H57 1_555 1_555
C72 C71 1_555 1_555
H58 C72 1_555 1_555
C73 C72 1_555 1_555
C74 C73 1_555 1_555
H59 C74 1_555 1_555
C75 N12 1_555 1_555
H60 C75 1_555 1_555
N13 C76 1_555 1_555
C76 H61 1_555 1_555
C77 C76 1_555 1_555
H62 C77 1_555 1_555
C78 C73 1_555 1_555
C79 C78 1_555 1_555
H63 C79 1_555 1_555
C80 N13 1_555 1_555
H64 C80 1_555 1_555
N14 C86 1_555 1_555
C86 H69 1_555 1_555
C87 C86 1_555 1_555
H70 C87 1_555 1_555
C88 C87 1_555 1_555
C89 C88 1_555 1_555
H71 C89 1_555 1_555
C90 N14 1_555 1_555
H72 C90 1_555 1_555
N15 C96 1_555 1_555
C96 H77 1_555 1_555
C97 C96 1_555 1_555
H78 C97 1_555 1_555
C98 C88 1_555 1_555
C99 C98 1_555 1_555
H79 C99 1_555 1_555
C100 N15 1_555 1_555
H80 C100 1_555 1_555
N16 C101 1_555 1_555
C101 H81 1_555 1_555
C102 C101 1_555 1_555
H82 C102 1_555 1_555
C103 C102 1_555 1_555
C104 C103 1_555 1_555
H83 C104 1_555 1_555
C105 N16 1_555 1_555
H84 C105 1_555 1_555
C106 C103 1_555 1_555
C107 C106 1_555 1_555
H85 C107 1_555 1_555
C108 C107 1_555 1_555
H86 C108 1_555 1_555
N17 C108 1_555 1_555
C109 N17 1_555 1_555
H87 C109 1_555 1_555
C110 C106 1_555 1_555
H88 C110 1_555 1_555
N19 C116 1_555 1_555
C116 H93 1_555 1_555
C117 C116 1_555 1_555
H94 C117 1_555 1_555
C118 C117 1_555 1_555
C119 C118 1_555 1_555
H95 C119 1_555 1_555
C120 N19 1_555 1_555
H96 C120 1_555 1_555
N20 C121 1_555 1_555
C121 H97 1_555 1_555
C122 C121 1_555 1_555
H98 C122 1_555 1_555
C123 C118 1_555 1_555
C124 C123 1_555 1_555
H99 C124 1_555 1_555
C125 N20 1_555 1_555
H100 C125 1_555 1_555
N22 C131 1_555 1_555
C131 H105 1_555 1_555
C132 C131 1_555 1_555
H106 C132 1_555 1_555
C133 C132 1_555 1_555
C134 C133 1_555 1_555
H107 C134 1_555 1_555
C135 N22 1_555 1_555
H108 C135 1_555 1_555
N23 C136 1_555 1_555
C136 H109 1_555 1_555
C137 C136 1_555 1_555
H110 C137 1_555 1_555
C138 C133 1_555 1_555
C139 C138 1_555 1_555
H111 C139 1_555 1_555
C140 N23 1_555 1_555
H112 C140 1_555 1_555
N24 C141 1_555 1_555
C141 H113 1_555 1_555
C142 C141 1_555 1_555
H114 C142 1_555 1_555
C143 C142 1_555 1_555
C144 C143 1_555 1_555
H115 C144 1_555 1_555
C145 N24 1_555 1_555
H116 C145 1_555 1_555
N25 C146 1_555 1_555
C146 H117 1_555 1_555
C147 C146 1_555 1_555
H118 C147 1_555 1_555
C148 C143 1_555 1_555
C149 C148 1_555 1_555
H119 C149 1_555 1_555
C150 N25 1_555 1_555
H120 C150 1_555 1_555
N26 C151 1_555 1_555
C151 H121 1_555 1_555
C152 C151 1_555 1_555
H122 C152 1_555 1_555
C153 C152 1_555 1_555
C154 C153 1_555 1_555
H123 C154 1_555 1_555
C155 N26 1_555 1_555
H124 C155 1_555 1_555
N27 C156 1_555 1_555
C156 H125 1_555 1_555
C157 C156 1_555 1_555
H126 C157 1_555 1_555
C158 C153 1_555 1_555
C159 C158 1_555 1_555
H127 C159 1_555 1_555
C160 N27 1_555 1_555
H128 C160 1_555 1_555
N28 C161 1_555 1_555
C161 H129 1_555 1_555
C162 C161 1_555 1_555
H130 C162 1_555 1_555
C163 C162 1_555 1_555
C164 C163 1_555 1_555
H131 C164 1_555 1_555
C165 N28 1_555 1_555
H132 C165 1_555 1_555
N29 C166 1_555 1_555
C166 H133 1_555 1_555
C167 C166 1_555 1_555
H134 C167 1_555 1_555
C168 C163 1_555 1_555
C169 C168 1_555 1_555
H135 C169 1_555 1_555
C170 N29 1_555 1_555
H136 C170 1_555 1_555
N30 C171 1_555 1_555
C171 H137 1_555 1_555
C172 C171 1_555 1_555
H138 C172 1_555 1_555
C173 C172 1_555 1_555
C174 C173 1_555 1_555
H139 C174 1_555 1_555
C175 N30 1_555 1_555
H140 C175 1_555 1_555
N31 C176 1_555 1_555
C176 H141 1_555 1_555
C177 C176 1_555 1_555
H142 C177 1_555 1_555
C178 C173 1_555 1_555
C179 C178 1_555 1_555
H143 C179 1_555 1_555
C180 N31 1_555 1_555
H144 C180 1_555 1_555
N32 C181 1_555 1_555
C181 H145 1_555 1_555
C182 C181 1_555 1_555
H146 C182 1_555 1_555
C183 C182 1_555 1_555
C184 C183 1_555 1_555
H147 C184 1_555 1_555
C185 N32 1_555 1_555
H148 C185 1_555 1_555
N33 C186 1_555 1_555
C186 H149 1_555 1_555
C187 C186 1_555 1_555
H150 C187 1_555 1_555
C188 C183 1_555 1_555
C189 C188 1_555 1_555
H151 C189 1_555 1_555
C190 N33 1_555 1_555
H152 C190 1_555 1_555
N34 C191 1_555 1_555
C191 H153 1_555 1_555
C192 C191 1_555 1_555
H154 C192 1_555 1_555
C193 C192 1_555 1_555
C194 C193 1_555 1_555
H155 C194 1_555 1_555
C195 N34 1_555 1_555
H156 C195 1_555 1_555
N35 C196 1_555 1_555
C196 H157 1_555 1_555
C197 C196 1_555 1_555
H158 C197 1_555 1_555
C198 C193 1_555 1_555
C199 C198 1_555 1_555
H159 C199 1_555 1_555
C200 N35 1_555 1_555
H160 C200 1_555 1_555
N36 C201 1_555 1_555
C201 H161 1_555 1_555
C202 C201 1_555 1_555
H162 C202 1_555 1_555
C203 C202 1_555 1_555
C204 C203 1_555 1_555
H163 C204 1_555 1_555
C205 N36 1_555 1_555
H164 C205 1_555 1_555
N37 C206 1_555 1_555
C206 H165 1_555 1_555
C207 C206 1_555 1_555
H166 C207 1_555 1_555
C208 C203 1_555 1_555
C209 C208 1_555 1_555
H167 C209 1_555 1_555
C210 N37 1_555 1_555
H168 C210 1_555 1_555
Ni1 N23 1_555 1_555
Ni2 N6 1_555 1_555
Ni3 N19 1_555 1_555
Ni4 N33 1_555 1_555
Ni5 N32 1_555 1_555
Ni6 N15 1_555 1_555
Ni7 N3 1_555 1_555
Ni8 N1 1_555 1_555
O1 V12 1_555 1_555
O2 Ni3 1_555 1_555
O3 Ni6 1_555 1_555
O4 V3 1_555 1_555
O5 V1 1_555 1_555
O6 Ni5 1_555 1_555
O7 V6 1_555 1_555
O8 Ni4 1_555 1_555
O9 Ni1 1_555 1_555
O10 V2 1_555 1_555
O11 V2 1_555 1_555
O12 V14 1_555 1_555
O13 V6 1_555 1_555
O14 V5 1_555 1_555
O15 V12 1_555 1_555
O17 V15 1_555 1_555
O18 V4 1_555 1_555
O19 V4 1_555 1_555
O20 V4 1_555 1_555
O21 V10 1_555 1_555
O22 V7 1_555 1_555
O23 Ni8 1_555 1_555
O24 V18 1_555 1_555
O26 V14 1_555 1_555
O27 V9 1_555 1_555
O28 V1 1_555 1_555
O29 V5 1_555 1_555
O30 V6 1_555 1_555
O31 V10 1_555 1_555
O32 V9 1_555 1_555
O33 V9 1_555 1_555
O35 V24 1_555 1_555
O37 V21 1_555 1_555
O38 V21 1_555 1_555
O40 V4 1_555 1_555
O41 V16 1_555 1_555
O42 V23 1_555 1_555
O43 V16 1_555 1_555
O44 V8 1_555 1_555
O45 V1 1_555 1_555
O46 Ni1 1_555 1_555
O47 V17 1_555 1_555
O48 V11 1_555 1_555
O49 V3 1_555 1_555
O50 V7 1_555 1_555
O51 V3 1_555 1_555
O52 V3 1_555 1_555
O53 Ni2 1_555 1_555
O54 V18 1_555 1_555
O56 V17 1_555 1_555
O57 V1 1_555 1_555
O58 V21 1_555 1_555
O60 V5 1_555 1_555
O61 V27 1_555 1_555
O62 V15 1_555 1_555
O63 V15 1_555 1_555
O64 V9 1_555 1_555
O66 V26 1_555 1_555
O67 V12 1_555 1_555
O69 V18 1_555 1_555
O71 V20 1_555 1_555
O72 V17 1_555 1_555
O73 V29 1_555 1_555
O75 V12 1_555 1_555
O77 V21 1_555 1_555
O79 V27 1_555 1_555
O81 V27 1_555 1_555
O83 Ni2 1_555 1_555
V2 O6 1_555 1_555
V5 O3 1_555 1_555
V6 O8 1_555 1_555
V7 O7 1_555 1_555
V8 O18 1_555 1_555
V10 O22 1_555 1_555
V11 O11 1_555 1_555
V14 O13 1_555 1_555
V15 O9 1_555 1_555
V16 O17 1_555 1_555
V17 O63 1_555 1_555
V18 O75 1_555 1_555
V20 O23 1_555 1_555
V23 O2 1_555 1_555
V24 O38 1_555 1_555
V26 O43 1_555 1_555
V27 O24 1_555 1_555
V29 O15 1_555 1_555
N7_2 Ni2 1_555 1_555
N11_2 Ni8 1_555 1_555
N12_2 Ni7 1_555 1_555
N16_2 Ni6 1_555 1_555
N20_2 Ni3 1_555 1_555
N25_2 Ni1 1_555 1_555
N27_2 Ni7 1_555 1_555
N29_2 Ni7 1_555 1_555
N31_2 Ni3 1_555 1_555
N35_2 Ni4 1_555 1_555
N37_2 Ni5 1_555 1_555
Ni1_2 N25 1_555 1_555
Ni2_2 N7 1_555 1_555
Ni3_2 N20 1_555 1_555
Ni3_3 N31 1_555 1_555
Ni3_4 O1 1_555 1_555
Ni4_2 N35 1_555 1_555
Ni4_3 O27 1_555 1_555
Ni5_2 N37 1_555 1_555
Ni5_3 O37 1_555 1_555
Ni6_2 N16 1_555 1_555
Ni6_3 O21 1_555 1_555
Ni7_2 N12 1_555 1_555
Ni7_3 N27 1_555 1_555
Ni7_4 O5 1_555 1_555
Ni8_2 N11 1_555 1_555
Ni8_3 O61 1_555 1_555
O1_2 Ni3 1_555 1_555
O4_2 Ni7 1_555 1_555
O5_2 Ni7 1_555 1_555
O15_2 V29_2 1_555 1_555
O20_2 V2 1_555 1_555
O21_2 Ni6 1_555 1_555
O23_2 Ni8_2 1_555 1_555
O27_2 Ni4 1_555 1_555
O33_2 V20_2 1_555 1_555
O37_2 Ni5 1_555 1_555
O43_2 V26_2 1_555 1_555
O47_2 V20 1_555 1_555
O58_2 V29 1_555 1_555
O61_2 Ni8 1_555 1_555
O66_2 V26_2 1_555 1_555
O71_2 V20_2 1_555 1_555
O72_2 V26 1_555 1_555
O73_2 V29_2 1_555 1_555
O79_2 V29 1_555 1_555
O83_2 V26_2 1_555 1_555
V2_2 O20 1_555 1_555
V17_2 O47_2 1_555 1_555
V20_2 O47 1_555 1_555
V21_2 O58_2 1_555 1_555
V26_2 O72 1_555 1_555
V27_2 O79_2 1_555 1_555
V29_2 O58 1_555 1_555
C4 C5 1_555 1_555
C12 C13 1_555 1_555
C14 C15 1_555 1_555
C34 C35 1_555 1_555
C42 C43 1_555 1_555
C44 C45 1_555 1_555
N9 Ni8 1_555 1_555
C54 C55 1_555 1_555
C62 C63 1_555 1_555
C64 C65 1_555 1_555
C74 C75 1_555 1_555
N13 Ni2 1_555 1_555
C77 C78 1_555 1_555
C79 C80 1_555 1_555
N14 Ni8 1_555 1_555
C89 C90 1_555 1_555
C97 C98 1_555 1_555
C99 C100 1_555 1_555
C104 C105 1_555 1_555
N17 Ni2 1_555 1_555
C109 C110 1_555 1_555
C119 C120 1_555 1_555
C122 C123 1_555 1_555
C124 C125 1_555 1_555
N22 Ni3 1_555 1_555
C134 C135 1_555 1_555
C137 C138 1_555 1_555
C139 C140 1_555 1_555
N24 Ni1 1_555 1_555
C144 C145 1_555 1_555
C147 C148 1_555 1_555
C149 C150 1_555 1_555
N26 Ni6 1_555 1_555
C154 C155 1_555 1_555
C157 C158 1_555 1_555
C159 C160 1_555 1_555
N28 Ni6 1_555 1_555
C164 C165 1_555 1_555
N29 Ni7_2 1_555 1_555
C167 C168 1_555 1_555
C169 C170 1_555 1_555
N30 Ni1 1_555 1_555
C174 C175 1_555 1_555
C177 C178 1_555 1_555
C179 C180 1_555 1_555
C184 C185 1_555 1_555
C187 C188 1_555 1_555
C189 C190 1_555 1_555
N34 Ni4 1_555 1_555
C194 C195 1_555 1_555
C197 C198 1_555 1_555
C199 C200 1_555 1_555
N36 Ni5 1_555 1_555
C204 C205 1_555 1_555
C207 C208 1_555 1_555
C209 C210 1_555 1_555
O4 Ni7_3 1_555 1_555
O12 V23 1_555 1_555
O14 V7 1_555 1_555
O28 V14 1_555 1_555
O29 V8 1_555 1_555
O32 V16 1_555 1_555
O33 V20 1_555 1_555
O40 V10 1_555 1_555
O45 V11 1_555 1_555
O46 V8 1_555 1_555
O49 V11 1_555 1_555
O51 V23 1_555 1_555
O53 V24 1_555 1_555
O54 V24 1_555 1_555
O79 V29_2 1_555 1_555
O83 V26 1_555 1_555
O23_2 V20_2 1_555 1_555
O72_2 V17_2 1_555 1_555

#END
