
#######################################################################
#
#                 Cambridge Crystallographic Data Centre
#                                CCDC 
#
#######################################################################
#
# If this CIF has been generated from an entry in the Cambridge 
# Structural Database, then it will include bibliographic, chemical, 
# crystal, experimental, refinement or atomic coordinate data resulting 
# from the CCDC's data processing and validation procedures.
#
#######################################################################

data_LAFQOA
_chemical_formula_moiety         '(C160 H100 Co6 N60 S13)n'
_symmetry_cell_setting           cubic
_symmetry_space_group_name_H-M   'F d -3 c'
_symmetry_Int_Tables_number      228
_space_group_name_Hall           '-F 4ud 2vw 3'
loop_
_symmetry_equiv_pos_site_id
_symmetry_equiv_pos_as_xyz
1 x,y,z
2 1/4+y,1/4+x,1/2-z
3 1/4+x,-z,3/4+y
4 -z,1/4+y,3/4+x
5 3/4+z,1/4+y,-x
6 1/4-z,x,1/4-y
7 1/4+x,3/4+z,-y
8 y,1/4-z,1/4-x
9 1/4+y,-x,3/4+z
10 x,1/4-y,1/4-z
11 1/4-x,1/4-y,z
12 1/2-y,-x,-z
13 -z,-y,1/2-x
14 z,1/4-x,1/4-y
15 x,1/2+y,1/2+z
16 1/4+y,3/4+x,-z
17 1/4+x,1/2-z,1/4+y
18 -z,3/4+y,1/4+x
19 3/4+z,3/4+y,1/2-x
20 1/4-z,1/2+x,3/4-y
21 1/4+x,1/4+z,1/2-y
22 y,3/4-z,3/4-x
23 1/4+y,1/2-x,1/4+z
24 x,3/4-y,3/4-z
25 1/4-x,3/4-y,1/2+z
26 1/2-y,1/2-x,1/2-z
27 -z,1/2-y,-x
28 z,3/4-x,3/4-y
29 1/2+x,y,1/2+z
30 3/4+y,1/4+x,-z
31 3/4+x,-z,1/4+y
32 1/2-z,1/4+y,1/4+x
33 1/4+z,1/4+y,1/2-x
34 3/4-z,x,3/4-y
35 3/4+x,3/4+z,1/2-y
36 1/2+y,1/4-z,3/4-x
37 3/4+y,-x,1/4+z
38 1/2+x,1/4-y,3/4-z
39 3/4-x,1/4-y,1/2+z
40 -y,-x,1/2-z
41 1/2-z,-y,-x
42 1/2+z,1/4-x,3/4-y
43 1/2+x,1/2+y,z
44 3/4+y,3/4+x,1/2-z
45 3/4+x,1/2-z,3/4+y
46 1/2-z,3/4+y,3/4+x
47 1/4+z,3/4+y,-x
48 3/4-z,1/2+x,1/4-y
49 3/4+x,1/4+z,-y
50 1/2+y,3/4-z,1/4-x
51 3/4+y,1/2-x,3/4+z
52 1/2+x,3/4-y,1/4-z
53 3/4-x,3/4-y,z
54 -y,1/2-x,-z
55 1/2-z,1/2-y,1/2-x
56 1/2+z,3/4-x,1/4-y
57 -x,1/2-z,-y
58 3/4-y,z,3/4-x
59 3/4-z,3/4-x,y
60 3/4-y,3/4-z,x
61 1/2-x,3/4+z,3/4+y
62 3/4+z,1/2-y,3/4+x
63 3/4-x,y,3/4-z
64 1/2-y,3/4+x,3/4+z
65 y,z,x
66 z,x,y
67 -x,-z,1/2-y
68 3/4-y,1/2+z,1/4-x
69 3/4-z,1/4-x,1/2+y
70 3/4-y,1/4-z,1/2+x
71 1/2-x,1/4+z,1/4+y
72 3/4+z,-y,1/4+x
73 3/4-x,1/2+y,1/4-z
74 1/2-y,1/4+x,1/4+z
75 y,1/2+z,1/2+x
76 z,1/2+x,1/2+y
77 1/2-x,1/2-z,1/2-y
78 1/4-y,z,1/4-x
79 1/4-z,3/4-x,1/2+y
80 1/4-y,3/4-z,1/2+x
81 -x,3/4+z,1/4+y
82 1/4+z,1/2-y,1/4+x
83 1/4-x,y,1/4-z
84 -y,3/4+x,1/4+z
85 1/2+y,z,1/2+x
86 1/2+z,x,1/2+y
87 1/2-x,-z,-y
88 1/4-y,1/2+z,3/4-x
89 1/4-z,1/4-x,y
90 1/4-y,1/4-z,x
91 -x,1/4+z,3/4+y
92 1/4+z,-y,3/4+x
93 1/4-x,1/2+y,3/4-z
94 -y,1/4+x,3/4+z
95 1/2+y,1/2+z,x
96 1/2+z,1/2+x,y
97 -x,-y,-z
98 3/4-y,3/4-x,1/2+z
99 3/4-x,z,1/4-y
100 z,3/4-y,1/4-x
101 1/4-z,3/4-y,x
102 3/4+z,-x,3/4+y
103 3/4-x,1/4-z,y
104 -y,3/4+z,3/4+x
105 3/4-y,x,1/4-z
106 -x,3/4+y,3/4+z
107 3/4+x,3/4+y,-z
108 1/2+y,x,z
109 z,y,1/2+x
110 -z,3/4+x,3/4+y
111 -x,1/2-y,1/2-z
112 3/4-y,1/4-x,z
113 3/4-x,1/2+z,3/4-y
114 z,1/4-y,3/4-x
115 1/4-z,1/4-y,1/2+x
116 3/4+z,1/2-x,1/4+y
117 3/4-x,3/4-z,1/2+y
118 -y,1/4+z,1/4+x
119 3/4-y,1/2+x,3/4-z
120 -x,1/4+y,1/4+z
121 3/4+x,1/4+y,1/2-z
122 1/2+y,1/2+x,1/2+z
123 z,1/2+y,x
124 -z,1/4+x,1/4+y
125 1/2-x,-y,1/2-z
126 1/4-y,3/4-x,z
127 1/4-x,z,3/4-y
128 1/2+z,3/4-y,3/4-x
129 3/4-z,3/4-y,1/2+x
130 1/4+z,-x,1/4+y
131 1/4-x,1/4-z,1/2+y
132 1/2-y,3/4+z,1/4+x
133 1/4-y,x,3/4-z
134 1/2-x,3/4+y,1/4+z
135 1/4+x,3/4+y,1/2-z
136 y,x,1/2+z
137 1/2+z,y,x
138 1/2-z,3/4+x,1/4+y
139 1/2-x,1/2-y,-z
140 1/4-y,1/4-x,1/2+z
141 1/4-x,1/2+z,1/4-y
142 1/2+z,1/4-y,1/4-x
143 3/4-z,1/4-y,x
144 1/4+z,1/2-x,3/4+y
145 1/4-x,3/4-z,y
146 1/2-y,1/4+z,3/4+x
147 1/4-y,1/2+x,1/4-z
148 1/2-x,1/4+y,3/4+z
149 1/4+x,1/4+y,-z
150 y,1/2+x,z
151 1/2+z,1/2+y,1/2+x
152 1/2-z,1/4+x,3/4+y
153 x,1/2+z,y
154 1/4+y,-z,1/4+x
155 1/4+z,1/4+x,-y
156 1/4+y,1/4+z,-x
157 1/2+x,1/4-z,1/4-y
158 1/4-z,1/2+y,1/4-x
159 1/4+x,-y,1/4+z
160 1/2+y,1/4-x,1/4-z
161 -y,-z,-x
162 -z,-x,-y
163 x,z,1/2+y
164 1/4+y,1/2-z,3/4+x
165 1/4+z,3/4+x,1/2-y
166 1/4+y,3/4+z,1/2-x
167 1/2+x,3/4-z,3/4-y
168 1/4-z,y,3/4-x
169 1/4+x,1/2-y,3/4+z
170 1/2+y,3/4-x,3/4-z
171 -y,1/2-z,1/2-x
172 -z,1/2-x,1/2-y
173 1/2+x,1/2+z,1/2+y
174 3/4+y,-z,3/4+x
175 3/4+z,1/4+x,1/2-y
176 3/4+y,1/4+z,1/2-x
177 x,1/4-z,3/4-y
178 3/4-z,1/2+y,3/4-x
179 3/4+x,-y,3/4+z
180 y,1/4-x,3/4-z
181 1/2-y,-z,1/2-x
182 1/2-z,-x,1/2-y
183 1/2+x,z,y
184 3/4+y,1/2-z,1/4+x
185 3/4+z,3/4+x,-y
186 3/4+y,3/4+z,-x
187 x,3/4-z,1/4-y
188 3/4-z,y,1/4-x
189 3/4+x,1/2-y,1/4+z
190 y,3/4-x,1/4-z
191 1/2-y,1/2-z,-x
192 1/2-z,1/2-x,-y
_cell_length_a                   63.628(9)
_cell_length_b                   63.628(9)
_cell_length_c                   63.628(9)
_cell_angle_alpha                90
_cell_angle_beta                 90
_cell_angle_gamma                90
_cell_volume                     257599
loop_
_atom_site_label
_atom_site_type_symbol
_atom_site_fract_x
_atom_site_fract_y
_atom_site_fract_z
_atom_site_U_iso_or_equiv
_atom_site_thermal_displace_type
Co1 Co -0.128586(15) 0.128586(15) 0.2500 0.0251 Uani
Co2 Co -0.1250 0.002394(17) 0.3750 0.0275 Uani
S1 S -0.08700(4) 0.17232(3) 0.20568(4) 0.0610 Uani
S2 S -0.20052(4) -0.00432(4) 0.38075(9) 0.1527 Uani
N1 N -0.11305(8) 0.14308(8) 0.22523(8) 0.0303 Uani
N2 N -0.15754(10) 0.00121(8) 0.37707(8) 0.0333 Uani
N3 N -0.01452(8) 0.09051(8) 0.36638(8) 0.0317 Uani
N4 N -0.09788(8) 0.12538(8) 0.26510(8) 0.0337 Uani
N5 N -0.09411(8) 0.07946(8) 0.31024(9) 0.0350 Uani
N6 N -0.05937(8) 0.08941(8) 0.31919(8) 0.0357 Uani
N7 N -0.07578(8) 0.06060(9) 0.33673(9) 0.0383 Uani
N8 N -0.12805(8) 0.02614(8) 0.35080(8) 0.0340 Uani
N9 N -0.12477(9) -0.01976(8) 0.34908(8) 0.0340 Uani
N10 N -0.15564(9) -0.07837(9) 0.31402(9) 0.0427 Uani
C1 C -0.10209(11) 0.15500(10) 0.21682(10) 0.0337 Uani
C2 C -0.17520(14) -0.00116(10) 0.37836(14) 0.0517 Uani
C3 C -0.02962(10) 0.08952(10) 0.35173(9) 0.0320 Uani
H1 H -0.0320 0.1016 0.3434 0.0380 Uiso
C4 C -0.04181(10) 0.07217(11) 0.34803(10) 0.0383 Uani
C5 C -0.03799(12) 0.05372(14) 0.35921(12) 0.0580 Uani
H2 H -0.0462 0.0414 0.3570 0.0700 Uiso
C6 C -0.02159(12) 0.05403(15) 0.37374(14) 0.0670 Uani
H3 H -0.0178 0.0417 0.3813 0.0810 Uiso
C7 C -0.01087(11) 0.07280(12) 0.37698(12) 0.0477 Uani
H4 H -0.0002 0.0730 0.3875 0.0570 Uiso
C8 C -0.08228(11) 0.13963(12) 0.26347(12) 0.0487 Uani
H5 H -0.0838 0.1507 0.2536 0.0580 Uiso
C9 C -0.06425(12) 0.13889(14) 0.27555(13) 0.0610 Uani
H6 H -0.0536 0.1492 0.2739 0.0730 Uiso
C10 C -0.06199(12) 0.12307(12) 0.29002(13) 0.0547 Uani
H7 H -0.0498 0.1224 0.2987 0.0650 Uiso
C11 C -0.07771(10) 0.10810(10) 0.29189(10) 0.0353 Uani
C12 C -0.09523(10) 0.10972(10) 0.27900(9) 0.0290 Uani
H8 H -0.1058 0.0993 0.2801 0.0350 Uiso
C13 C -0.07680(10) 0.09138(10) 0.30796(10) 0.0327 Uani
C14 C -0.09302(10) 0.06474(10) 0.32491(10) 0.0330 Uani
C15 C -0.05978(10) 0.07397(10) 0.33364(11) 0.0343 Uani
C16 C -0.11179(10) 0.03807(10) 0.34578(10) 0.0337 Uani
H9 H -0.0994 0.0369 0.3540 0.0400 Uiso
C17 C -0.11175(10) 0.05222(10) 0.32915(10) 0.0340 Uani
C18 C -0.13022(11) 0.05495(11) 0.31784(12) 0.0467 Uani
H10 H -0.1311 0.0651 0.3069 0.0560 Uiso
C19 C -0.14717(13) 0.04271(13) 0.32288(14) 0.0583 Uani
H11 H -0.1598 0.0438 0.3150 0.0700 Uiso
C20 C -0.14588(11) 0.02852(11) 0.33967(12) 0.0450 Uani
H12 H -0.1579 0.0204 0.3433 0.0540 Uiso
C21 C -0.11115(13) -0.01749(12) 0.33304(12) 0.0490 Uani
H13 H -0.1009 -0.0066 0.3339 0.0590 Uiso
C22 C -0.11121(14) -0.02991(13) 0.31560(13) 0.0610 Uani
H14 H -0.1010 -0.0280 0.3049 0.0730 Uiso
C23 C -0.12644(12) -0.04524(12) 0.31374(12) 0.0543 Uani
H15 H -0.1272 -0.0538 0.3015 0.0650 Uiso
C24 C -0.14057(12) -0.04789(11) 0.33005(11) 0.0417 Uani
C25 C -0.13924(10) -0.03479(10) 0.34725(10) 0.0340 Uani
H16 H -0.1491 -0.0366 0.3583 0.0410 Uiso
C26 C -0.15684(11) -0.06430(11) 0.32924(10) 0.0373 Uani
Co1SD Co -0.2500 0.121414(15) 0.378586(15) 0.0251 Uani
Co1TC Co -0.121414(15) 0.2500 0.121414(15) 0.0251 Uani
Co1JD Co -0.0000 0.121414(15) 0.371414(15) 0.0251 Uani
Co1XC Co -0.121414(15) -0.0000 0.128586(15) 0.0251 Uani
Co1JA Co -0.121414(15) 0.128586(15) 0.5000 0.0251 Uani
Co1HA Co -0.378586(15) -0.0000 0.371414(15) 0.0251 Uani
Co2JD Co -0.1250 0.247606(17) 0.3750 0.0275 Uani
Co2AG Co -0.247606(17) 0.1250 0.1250 0.0275 Uani
Co2OB Co -0.252394(17) -0.1250 0.3750 0.0275 Uani
Co2E Co -0.1250 -0.1250 0.247606(17) 0.0275 Uani
Co2MA Co -0.002394(17) 0.1250 0.1250 0.0275 Uani
Co2G Co 0.002394(17) -0.1250 0.3750 0.0275 Uani
Co2ZB Co -0.1250 -0.1250 0.502394(17) 0.0275 Uani
Co2HA Co -0.3750 0.1250 0.497606(17) 0.0275 Uani
S1MA S -0.17232(3) 0.08700(4) 0.29432(4) 0.0610 Uani
S1KE S -0.29432(4) 0.07768(3) 0.33700(4) 0.0610 Uani
S1SD S -0.20568(4) 0.16300(4) 0.42232(3) 0.0610 Uani
S1AG S -0.07768(3) 0.29432(4) 0.16300(4) 0.0610 Uani
S1TC S -0.16300(4) 0.20568(4) 0.07768(3) 0.0610 Uani
S2JB S -0.04948(4) -0.00432(4) 0.36925(9) 0.1527 Uani
S2KE S -0.11925(9) 0.25432(4) 0.45052(4) 0.1527 Uani
S2JD S -0.13075(9) 0.25432(4) 0.29948(4) 0.1527 Uani
S2AG S -0.25432(4) 0.11925(9) 0.04948(4) 0.1527 Uani
S2CG S -0.25432(4) 0.13075(9) 0.20052(4) 0.1527 Uani
N1MA N -0.14308(8) 0.11305(8) 0.27477(8) 0.0303 Uani
N1KE N -0.27477(8) 0.10692(8) 0.36305(8) 0.0303 Uani
N1SD N -0.22523(8) 0.13695(8) 0.39308(8) 0.0303 Uani
N1AG N -0.10692(8) 0.27477(8) 0.13695(8) 0.0303 Uani
N1TC N -0.13695(8) 0.22523(8) 0.10692(8) 0.0303 Uani
N2JB N -0.09246(10) 0.00121(8) 0.37293(8) 0.0333 Uani
N2KE N -0.12293(8) 0.24879(8) 0.40754(10) 0.0333 Uani
N2JD N -0.12707(8) 0.24879(8) 0.34246(10) 0.0333 Uani
N2AG N -0.24879(8) 0.12293(8) 0.09246(10) 0.0333 Uani
N2CG N -0.24879(8) 0.12707(8) 0.15754(10) 0.0333 Uani
N3KE N -0.13362(8) 0.15949(8) 0.26452(8) 0.0317 Uani
N3AG N -0.15949(8) 0.13362(8) 0.23548(8) 0.0317 Uani
N3MA N -0.09051(8) 0.01452(8) 0.13362(8) 0.0317 Uani
N3JB N -0.23548(8) 0.09051(8) 0.38362(8) 0.0317 Uani
N3HA N -0.26452(8) 0.11638(8) 0.40949(8) 0.0317 Uani
N3OC N -0.09051(8) 0.23548(8) 0.11638(8) 0.0317 Uani
N3JC N -0.11638(8) 0.26452(8) 0.09051(8) 0.0317 Uani
N4KE N -0.23490(8) 0.12462(8) 0.34788(8) 0.0337 Uani
N4AG N -0.12462(8) 0.23490(8) 0.15212(8) 0.0337 Uani
N4MA N -0.12538(8) 0.09788(8) 0.23490(8) 0.0337 Uani
N4JB N -0.15212(8) 0.12538(8) 0.48490(8) 0.0337 Uani
N4HA N -0.34788(8) 0.01510(8) 0.37462(8) 0.0337 Uani
N4SD N -0.26510(8) 0.15212(8) 0.37538(8) 0.0337 Uani
N4TC N -0.15212(8) 0.26510(8) 0.12462(8) 0.0337 Uani
N5KE N -0.18976(9) 0.17054(8) 0.34411(8) 0.0350 Uani
N5AG N -0.17054(8) 0.18976(9) 0.15589(8) 0.0350 Uani
N5MA N -0.07946(8) 0.09411(8) 0.18976(9) 0.0350 Uani
N5JB N -0.15589(8) 0.07946(8) 0.43976(9) 0.0350 Uani
N5HA N -0.34411(8) 0.06024(9) 0.42054(8) 0.0350 Uani
N6KE N -0.18081(8) 0.16059(8) 0.30937(8) 0.0357 Uani
N6AG N -0.16059(8) 0.18081(8) 0.19063(8) 0.0357 Uani
N6MA N -0.08941(8) 0.05937(8) 0.18081(8) 0.0357 Uani
N6JB N -0.19063(8) 0.08941(8) 0.43081(8) 0.0357 Uani
N6HA N -0.30937(8) 0.06919(8) 0.41059(8) 0.0357 Uani
N7KE N -0.16327(9) 0.18940(9) 0.32578(8) 0.0383 Uani
N7AG N -0.18940(9) 0.16327(9) 0.17422(8) 0.0383 Uani
N7MA N -0.06060(9) 0.07578(8) 0.16327(9) 0.0383 Uani
N7JB N -0.17422(8) 0.06060(9) 0.41327(9) 0.0383 Uani
N7HA N -0.32578(8) 0.08673(9) 0.43940(9) 0.0383 Uani
N8KE N -0.14920(8) 0.22386(8) 0.37805(8) 0.0340 Uani
N8AG N -0.22386(8) 0.14920(8) 0.12195(8) 0.0340 Uani
N8MA N -0.02614(8) 0.12805(8) 0.14920(8) 0.0340 Uani
N8JB N -0.12195(8) 0.02614(8) 0.39920(8) 0.0340 Uani
N8HA N -0.37805(8) 0.10080(8) 0.47386(8) 0.0340 Uani
N8JD N -0.10080(8) 0.22386(8) 0.37195(8) 0.0340 Uani
N8CG N -0.22386(8) 0.10080(8) 0.12805(8) 0.0340 Uani
N9QB N -0.23024(8) -0.09908(8) 0.37523(9) 0.0340 Uani
N9CB N -0.15092(8) -0.12523(9) 0.26976(8) 0.0340 Uani
N9JB N -0.12523(9) -0.01976(8) 0.40092(8) 0.0340 Uani
N9G N -0.01976(8) -0.09908(8) 0.37477(9) 0.0340 Uani
N9ZB N -0.09908(8) -0.12523(9) 0.48024(8) 0.0340 Uani
N9KE N -0.15092(8) 0.26976(8) 0.37477(9) 0.0340 Uani
N9JD N -0.09908(8) 0.26976(8) 0.37523(9) 0.0340 Uani
N9AG N -0.26976(8) 0.15092(8) 0.12523(9) 0.0340 Uani
N9CG N -0.26976(8) 0.09908(8) 0.12477(9) 0.0340 Uani
N10CB N -0.18598(9) -0.09436(9) 0.32837(9) 0.0427 Uani
N10QB N -0.17163(9) -0.06402(9) 0.34436(9) 0.0427 Uani
N10JB N -0.09436(9) -0.07837(9) 0.43598(9) 0.0427 Uani
N10ZB N -0.06402(9) -0.09436(9) 0.42163(9) 0.0427 Uani
N10G N -0.07837(9) -0.06402(9) 0.40564(9) 0.0427 Uani
C1MA C -0.15500(10) 0.10209(11) 0.28318(10) 0.0337 Uani
C1KE C -0.28318(10) 0.09500(10) 0.35209(11) 0.0337 Uani
C1SD C -0.21682(10) 0.14791(11) 0.40500(10) 0.0337 Uani
C1AG C -0.09500(10) 0.28318(10) 0.14791(11) 0.0337 Uani
C1TC C -0.14791(11) 0.21682(10) 0.09500(10) 0.0337 Uani
C2JB C -0.07480(14) -0.00116(10) 0.37164(14) 0.0517 Uani
C2KE C -0.12164(14) 0.25116(10) 0.42520(14) 0.0517 Uani
C2JD C -0.12836(14) 0.25116(10) 0.32480(14) 0.0517 Uani
C2AG C -0.25116(10) 0.12164(14) 0.07480(14) 0.0517 Uani
C2CG C -0.25116(10) 0.12836(14) 0.17520(14) 0.0517 Uani
C3KE C -0.14827(9) 0.16048(10) 0.27962(10) 0.0320 Uani
C3AG C -0.16048(10) 0.14827(9) 0.22038(10) 0.0320 Uani
C3MA C -0.08952(10) 0.02962(10) 0.14827(9) 0.0320 Uani
C3JB C -0.22038(10) 0.08952(10) 0.39827(9) 0.0320 Uani
C3HA C -0.27962(10) 0.10173(9) 0.41048(10) 0.0320 Uani
H1KE H -0.1566 0.1484 0.2820 0.0380 Uiso
H1AG H -0.1484 0.1566 0.2180 0.0380 Uiso
H1MA H -0.1016 0.0320 0.1566 0.0380 Uiso
H1JB H -0.2180 0.1016 0.4066 0.0380 Uiso
H1HA H -0.2820 0.0934 0.3984 0.0380 Uiso
C4KE C -0.15197(10) 0.17783(11) 0.29181(10) 0.0383 Uani
C4AG C -0.17783(11) 0.15197(10) 0.20819(10) 0.0383 Uani
C4MA C -0.07217(11) 0.04181(10) 0.15197(10) 0.0383 Uani
C4JB C -0.20819(10) 0.07217(11) 0.40197(10) 0.0383 Uani
C4HA C -0.29181(10) 0.09803(10) 0.42783(11) 0.0383 Uani
C5KE C -0.14079(12) 0.19628(14) 0.28799(12) 0.0580 Uani
C5AG C -0.19628(14) 0.14079(12) 0.21201(12) 0.0580 Uani
C5MA C -0.05372(14) 0.03799(12) 0.14079(12) 0.0580 Uani
C5JB C -0.21201(12) 0.05372(14) 0.39079(12) 0.0580 Uani
C5HA C -0.28799(12) 0.10921(12) 0.44628(14) 0.0580 Uani
H2KE H -0.1430 0.2086 0.2962 0.0700 Uiso
H2AG H -0.2086 0.1430 0.2038 0.0700 Uiso
H2MA H -0.0414 0.0462 0.1430 0.0700 Uiso
H2JB H -0.2038 0.0414 0.3930 0.0700 Uiso
H2HA H -0.2962 0.1070 0.4586 0.0700 Uiso
C6KE C -0.12626(14) 0.19597(15) 0.27159(12) 0.0670 Uani
C6AG C -0.19597(15) 0.12626(14) 0.22841(12) 0.0670 Uani
C6MA C -0.05403(15) 0.02159(12) 0.12626(14) 0.0670 Uani
C6JB C -0.22841(12) 0.05403(15) 0.37626(14) 0.0670 Uani
C6HA C -0.27159(12) 0.12374(14) 0.44597(15) 0.0670 Uani
H3KE H -0.1187 0.2083 0.2678 0.0810 Uiso
H3AG H -0.2083 0.1187 0.2322 0.0810 Uiso
H3MA H -0.0417 0.0178 0.1187 0.0810 Uiso
H3JB H -0.2322 0.0417 0.3687 0.0810 Uiso
H3HA H -0.2678 0.1313 0.4583 0.0810 Uiso
C7KE C -0.12302(12) 0.17720(12) 0.26087(11) 0.0477 Uani
C7AG C -0.17720(12) 0.12302(12) 0.23913(11) 0.0477 Uani
C7MA C -0.07280(12) 0.01087(11) 0.12302(12) 0.0477 Uani
C7JB C -0.23913(11) 0.07280(12) 0.37302(12) 0.0477 Uani
C7HA C -0.26087(11) 0.12698(12) 0.42720(12) 0.0477 Uani
H4KE H -0.1125 0.1770 0.2502 0.0570 Uiso
H4AG H -0.1770 0.1125 0.2498 0.0570 Uiso
H4MA H -0.0730 0.0002 0.1125 0.0570 Uiso
H4JB H -0.2498 0.0730 0.3625 0.0570 Uiso
H4HA H -0.2502 0.1375 0.4270 0.0570 Uiso
C8KE C -0.23653(12) 0.11037(12) 0.33228(11) 0.0487 Uani
C8AG C -0.11037(12) 0.23653(12) 0.16772(11) 0.0487 Uani
C8MA C -0.13963(12) 0.08228(11) 0.23653(12) 0.0487 Uani
C8JB C -0.16772(11) 0.13963(12) 0.48653(12) 0.0487 Uani
C8HA C -0.33228(11) 0.01347(12) 0.36037(12) 0.0487 Uani
H5KE H -0.2464 0.0993 0.3338 0.0580 Uiso
H5AG H -0.0993 0.2464 0.1662 0.0580 Uiso
H5MA H -0.1507 0.0838 0.2464 0.0580 Uiso
H5JB H -0.1662 0.1507 0.4964 0.0580 Uiso
H5HA H -0.3338 0.0036 0.3493 0.0580 Uiso
C9KE C -0.22445(13) 0.11111(14) 0.31425(12) 0.0610 Uani
C9AG C -0.11111(14) 0.22445(13) 0.18575(12) 0.0610 Uani
C9MA C -0.13889(14) 0.06425(12) 0.22445(13) 0.0610 Uani
C9JB C -0.18575(12) 0.13889(14) 0.47445(13) 0.0610 Uani
C9HA C -0.31425(12) 0.02555(13) 0.36111(14) 0.0610 Uani
H6KE H -0.2261 0.1008 0.3036 0.0730 Uiso
H6AG H -0.1008 0.2261 0.1964 0.0730 Uiso
H6MA H -0.1492 0.0536 0.2261 0.0730 Uiso
H6JB H -0.1964 0.1492 0.4761 0.0730 Uiso
H6HA H -0.3036 0.0239 0.3508 0.0730 Uiso
C10KE C -0.20998(13) 0.12693(12) 0.31199(12) 0.0547 Uani
C10AG C -0.12693(12) 0.20998(13) 0.18801(12) 0.0547 Uani
C10MA C -0.12307(12) 0.06199(12) 0.20998(13) 0.0547 Uani
C10JB C -0.18801(12) 0.12307(12) 0.45998(13) 0.0547 Uani
C10HA C -0.31199(12) 0.04002(13) 0.37693(12) 0.0547 Uani
H7KE H -0.2013 0.1276 0.2998 0.0650 Uiso
H7AG H -0.1276 0.2013 0.2002 0.0650 Uiso
H7MA H -0.1224 0.0498 0.2013 0.0650 Uiso
H7JB H -0.2002 0.1224 0.4513 0.0650 Uiso
H7HA H -0.2998 0.0487 0.3776 0.0650 Uiso
C11KE C -0.20811(10) 0.14190(10) 0.32771(10) 0.0353 Uani
C11AG C -0.14190(10) 0.20811(10) 0.17229(10) 0.0353 Uani
C11MA C -0.10810(10) 0.07771(10) 0.20811(10) 0.0353 Uani
C11JB C -0.17229(10) 0.10810(10) 0.45811(10) 0.0353 Uani
C11HA C -0.32771(10) 0.04189(10) 0.39190(10) 0.0353 Uani
C12KE C -0.22100(9) 0.14028(10) 0.34523(10) 0.0290 Uani
C12AG C -0.14028(10) 0.22100(9) 0.15477(10) 0.0290 Uani
C12MA C -0.10972(10) 0.09523(10) 0.22100(9) 0.0290 Uani
C12JB C -0.15477(10) 0.10972(10) 0.47100(9) 0.0290 Uani
C12HA C -0.34523(10) 0.02900(9) 0.39028(10) 0.0290 Uani
H8KE H -0.2199 0.1507 0.3558 0.0350 Uiso
H8AG H -0.1507 0.2199 0.1442 0.0350 Uiso
H8MA H -0.0993 0.1058 0.2199 0.0350 Uiso
H8JB H -0.1442 0.0993 0.4699 0.0350 Uiso
H8HA H -0.3558 0.0301 0.4007 0.0350 Uiso
C13KE C -0.19204(10) 0.15862(10) 0.32680(10) 0.0327 Uani
C13AG C -0.15862(10) 0.19204(10) 0.17320(10) 0.0327 Uani
C13MA C -0.09138(10) 0.07680(10) 0.19204(10) 0.0327 Uani
C13JB C -0.17320(10) 0.09138(10) 0.44204(10) 0.0327 Uani
C13HA C -0.32680(10) 0.05796(10) 0.40862(10) 0.0327 Uani
C14KE C -0.17509(10) 0.18526(10) 0.34302(10) 0.0330 Uani
C14AG C -0.18526(10) 0.17509(10) 0.15698(10) 0.0330 Uani
C14MA C -0.06474(10) 0.09302(10) 0.17509(10) 0.0330 Uani
C14JB C -0.15698(10) 0.06474(10) 0.42509(10) 0.0330 Uani
C14HA C -0.34302(10) 0.07491(10) 0.43526(10) 0.0330 Uani
C15KE C -0.16636(11) 0.17603(10) 0.30978(10) 0.0343 Uani
C15AG C -0.17603(10) 0.16636(11) 0.19022(10) 0.0343 Uani
C15MA C -0.07397(10) 0.05978(10) 0.16636(11) 0.0343 Uani
C15JB C -0.19022(10) 0.07397(10) 0.41636(11) 0.0343 Uani
C15HA C -0.30978(10) 0.08364(11) 0.42603(10) 0.0343 Uani
C16KE C -0.15422(10) 0.21193(10) 0.36179(10) 0.0337 Uani
C16AG C -0.21193(10) 0.15422(10) 0.13821(10) 0.0337 Uani
C16MA C -0.03807(10) 0.11179(10) 0.15422(10) 0.0337 Uani
C16JB C -0.13821(10) 0.03807(10) 0.40422(10) 0.0337 Uani
C16HA C -0.36179(10) 0.09578(10) 0.46193(10) 0.0337 Uani
H9KE H -0.1460 0.2131 0.3494 0.0400 Uiso
H9AG H -0.2131 0.1460 0.1506 0.0400 Uiso
H9MA H -0.0369 0.0994 0.1460 0.0400 Uiso
H9JB H -0.1506 0.0369 0.3960 0.0400 Uiso
H9HA H -0.3494 0.1040 0.4631 0.0400 Uiso
C17KE C -0.17085(10) 0.19778(10) 0.36175(10) 0.0340 Uani
C17AG C -0.19778(10) 0.17085(10) 0.13825(10) 0.0340 Uani
C17MA C -0.05222(10) 0.11175(10) 0.17085(10) 0.0340 Uani
C17JB C -0.13825(10) 0.05222(10) 0.42085(10) 0.0340 Uani
C17HA C -0.36175(10) 0.07915(10) 0.44778(10) 0.0340 Uani
C18KE C -0.18216(12) 0.19505(11) 0.38022(11) 0.0467 Uani
C18AG C -0.19505(11) 0.18216(12) 0.11978(11) 0.0467 Uani
C18MA C -0.05495(11) 0.13022(11) 0.18216(12) 0.0467 Uani
C18JB C -0.11978(11) 0.05495(11) 0.43216(12) 0.0467 Uani
C18HA C -0.38022(11) 0.06784(12) 0.44505(11) 0.0467 Uani
H10KE H -0.1931 0.1849 0.3811 0.0560 Uiso
H10AG H -0.1849 0.1931 0.1189 0.0560 Uiso
H10MA H -0.0651 0.1311 0.1931 0.0560 Uiso
H10JB H -0.1189 0.0651 0.4431 0.0560 Uiso
H10HA H -0.3811 0.0569 0.4349 0.0560 Uiso
C19KE C -0.17712(14) 0.20729(13) 0.39717(13) 0.0583 Uani
C19AG C -0.20729(13) 0.17712(14) 0.10283(13) 0.0583 Uani
C19MA C -0.04271(13) 0.14717(13) 0.17712(14) 0.0583 Uani
C19JB C -0.10283(13) 0.04271(13) 0.42712(14) 0.0583 Uani
C19HA C -0.39717(13) 0.07288(14) 0.45729(13) 0.0583 Uani
H11KE H -0.1850 0.2062 0.4098 0.0700 Uiso
H11AG H -0.2062 0.1850 0.0902 0.0700 Uiso
H11MA H -0.0438 0.1598 0.1850 0.0700 Uiso
H11JB H -0.0902 0.0438 0.4350 0.0700 Uiso
H11HA H -0.4098 0.0650 0.4562 0.0700 Uiso
C20KE C -0.16033(12) 0.22148(11) 0.39588(11) 0.0450 Uani
C20AG C -0.22148(11) 0.16033(12) 0.10412(11) 0.0450 Uani
C20MA C -0.02852(11) 0.14588(11) 0.16033(12) 0.0450 Uani
C20JB C -0.10412(11) 0.02852(11) 0.41033(12) 0.0450 Uani
C20HA C -0.39588(11) 0.08967(12) 0.47148(11) 0.0450 Uani
H12KE H -0.1567 0.2296 0.4079 0.0540 Uiso
H12AG H -0.2296 0.1567 0.0921 0.0540 Uiso
H12MA H -0.0204 0.1579 0.1567 0.0540 Uiso
H12JB H -0.0921 0.0204 0.4067 0.0540 Uiso
H12HA H -0.4079 0.0933 0.4796 0.0540 Uiso
C21QB C -0.23251(12) -0.08304(12) 0.38885(13) 0.0490 Uani
C21CB C -0.16696(12) -0.13885(13) 0.26749(12) 0.0490 Uani
C21JB C -0.13885(13) -0.01749(12) 0.41696(12) 0.0490 Uani
C21G C -0.01749(12) -0.08304(12) 0.36115(13) 0.0490 Uani
C21ZB C -0.08304(12) -0.13885(13) 0.48251(12) 0.0490 Uani
H13QB H -0.2434 -0.0839 0.3991 0.0590 Uiso
H13CB H -0.1661 -0.1491 0.2566 0.0590 Uiso
H13JB H -0.1491 -0.0066 0.4161 0.0590 Uiso
H13G H -0.0066 -0.0839 0.3509 0.0590 Uiso
H13ZB H -0.0839 -0.1491 0.4934 0.0590 Uiso
C22QB C -0.22009(13) -0.06560(13) 0.38879(14) 0.0610 Uani
C22CB C -0.18440(13) -0.13879(14) 0.27991(13) 0.0610 Uani
C22JB C -0.13879(14) -0.02991(13) 0.43440(13) 0.0610 Uani
C22G C -0.02991(13) -0.06560(13) 0.36121(14) 0.0610 Uani
C22ZB C -0.06560(13) -0.13879(14) 0.47009(13) 0.0610 Uani
H14QB H -0.2220 -0.0549 0.3990 0.0730 Uiso
H14CB H -0.1951 -0.1490 0.2780 0.0730 Uiso
H14JB H -0.1490 -0.0280 0.4451 0.0730 Uiso
H14G H -0.0280 -0.0549 0.3510 0.0730 Uiso
H14ZB H -0.0549 -0.1490 0.4720 0.0730 Uiso
C23QB C -0.20476(12) -0.06374(12) 0.37356(12) 0.0543 Uani
C23CB C -0.18626(12) -0.12356(12) 0.29524(12) 0.0543 Uani
C23JB C -0.12356(12) -0.04524(12) 0.43626(12) 0.0543 Uani
C23G C -0.04524(12) -0.06374(12) 0.37644(12) 0.0543 Uani
C23ZB C -0.06374(12) -0.12356(12) 0.45476(12) 0.0543 Uani
H15QB H -0.1962 -0.0515 0.3728 0.0650 Uiso
H15CB H -0.1985 -0.1228 0.3038 0.0650 Uiso
H15JB H -0.1228 -0.0538 0.4485 0.0650 Uiso
H15G H -0.0538 -0.0515 0.3772 0.0650 Uiso
H15ZB H -0.0515 -0.1228 0.4462 0.0650 Uiso
C24QB C -0.20211(11) -0.08005(11) 0.35943(12) 0.0417 Uani
C24CB C -0.16995(11) -0.10943(12) 0.29789(11) 0.0417 Uani
C24JB C -0.10943(12) -0.04789(11) 0.41995(11) 0.0417 Uani
C24G C -0.04789(11) -0.08005(11) 0.39057(12) 0.0417 Uani
C24ZB C -0.08005(11) -0.10943(12) 0.45211(11) 0.0417 Uani
C25QB C -0.21521(10) -0.09725(10) 0.36076(10) 0.0340 Uani
C25CB C -0.15275(10) -0.11076(10) 0.28479(10) 0.0340 Uani
C25JB C -0.11076(10) -0.03479(10) 0.40275(10) 0.0340 Uani
C25G C -0.03479(10) -0.09725(10) 0.38924(10) 0.0340 Uani
C25ZB C -0.09725(10) -0.11076(10) 0.46521(10) 0.0340 Uani
H16QB H -0.2134 -0.1083 0.3509 0.0410 Uiso
H16CB H -0.1417 -0.1009 0.2866 0.0410 Uiso
H16JB H -0.1009 -0.0366 0.3917 0.0410 Uiso
H16G H -0.0366 -0.1083 0.3991 0.0410 Uiso
H16ZB H -0.1083 -0.1009 0.4634 0.0410 Uiso
C26CB C -0.17076(10) -0.09316(11) 0.31430(11) 0.0373 Uani
C26QB C -0.18570(11) -0.07924(10) 0.34316(11) 0.0373 Uani
C26JB C -0.09316(11) -0.06430(11) 0.42076(10) 0.0373 Uani
C26ZB C -0.07924(10) -0.09316(11) 0.43570(11) 0.0373 Uani
C26G C -0.06430(11) -0.07924(10) 0.40684(11) 0.0373 Uani
S3 S -0.09847(5) 0.08422(6) 0.38295(5) 0.1015 Uani
C27 C -0.0766(2) 0.0897(3) 0.3927(2) 0.1367 Uani
H17 H -0.0699 0.0808 0.4027 0.1650 Uiso
C28 C -0.06754(16) 0.1083(3) 0.3859(3) 0.1137 Uani
H18 H -0.0560 0.1155 0.3921 0.1370 Uiso
C29 C -0.0804(3) 0.1150(2) 0.3655(3) 0.1290 Uani
H19 H -0.0768 0.1260 0.3561 0.1550 Uiso
C30 C -0.09843(15) 0.10162(15) 0.36364(14) 0.0630 Uani
H20 H -0.1088 0.1026 0.3529 0.0760 Uiso
loop_
_atom_site_aniso_label
_atom_site_aniso_U_11
_atom_site_aniso_U_22
_atom_site_aniso_U_33
_atom_site_aniso_U_23
_atom_site_aniso_U_13
_atom_site_aniso_U_12
Co1 0.0293(5) 0.0293(5) 0.0168(6) 0.0020(3) 0.0020(3) -0.0047(5)
Co2 0.0326(7) 0.0177(6) 0.0321(7) 0.000 -0.0003(5) 0.000
S1 0.0647(14) 0.0415(11) 0.0767(16) 0.0153(10) 0.0402(12) -0.0035(10)
S2 0.0403(15) 0.0508(16) 0.367(7) -0.059(3) 0.035(2) -0.0087(12)
N1 0.032(3) 0.034(3) 0.025(3) 0.005(2) 0.005(2) -0.002(2)
N2 0.035(3) 0.025(3) 0.040(3) -0.004(2) -0.001(2) 0.000(2)
N3 0.025 0.035 0.035 0.009 -0.008 0
N4 0.033(3) 0.038(3) 0.030(3) 0.009(2) -0.003(2) -0.010(2)
N5 0.033(3) 0.032(3) 0.040(3) 0.011(2) -0.008(2) -0.008(2)
N6 0.034(3) 0.036(3) 0.037(3) 0.006(2) -0.011(2) -0.008(2)
N7 0.033(3) 0.034(3) 0.048(3) 0.012(3) -0.011(3) -0.009(2)
N8 0.034(3) 0.026(3) 0.042(3) 0.002(2) -0.009(2) -0.008(2)
N9 0.041(3) 0.026(3) 0.035(3) -0.006(2) 0.012(2) -0.012(2)
N10 0.048(4) 0.044(3) 0.036(3) -0.015(3) 0.019(3) -0.020(3)
C1 0.040(4) 0.032(4) 0.029(3) -0.001(3) 0.007(3) 0.009(3)
C2 0.055(5) 0.019(3) 0.081(6) -0.007(3) 0.012(4) 0.001(3)
C3 0.028 0.028 0.04 0.009 -0.002 -0.003
C4 0.035 0.034 0.046 0.009 -0.016 -0.001
C5 0.052 0.039 0.083 0.024 -0.036 -0.014
C6 0.064 0.043 0.094 0.03 -0.052 -0.016
C7 0.044 0.041 0.058 0.016 -0.025 -0.008
C8 0.045(4) 0.055(5) 0.046(4) 0.022(4) -0.006(3) -0.021(4)
C9 0.047(5) 0.067(5) 0.069(6) 0.037(4) -0.023(4) -0.033(4)
C10 0.047(5) 0.059(5) 0.058(5) 0.028(4) -0.026(4) -0.019(4)
C11 0.039(4) 0.032(4) 0.035(4) 0.007(3) -0.008(3) -0.013(3)
C12 0.029(3) 0.029(3) 0.029(3) 0.004(3) 0.000(3) -0.007(3)
C13 0.033(3) 0.032(3) 0.033(3) 0.004(3) -0.011(3) -0.008(3)
C14 0.037(4) 0.030(3) 0.032(3) 0.005(3) -0.013(3) -0.005(3)
C15 0.033(4) 0.027(3) 0.043(4) 0.005(3) -0.012(3) -0.004(3)
C16 0.035(4) 0.026(3) 0.040(4) 0.003(3) -0.009(3) -0.007(3)
C17 0.032(4) 0.030(3) 0.040(4) 0.007(3) -0.012(3) -0.009(3)
C18 0.043(4) 0.041(4) 0.056(5) 0.023(4) -0.017(3) -0.014(3)
C19 0.049(5) 0.056(5) 0.070(6) 0.024(4) -0.028(4) -0.020(4)
C20 0.040(4) 0.045(4) 0.050(4) 0.020(3) -0.016(3) -0.017(3)
C21 0.060(5) 0.039(4) 0.048(4) -0.006(3) 0.020(4) -0.029(4)
C22 0.073(6) 0.060(5) 0.050(5) -0.021(4) 0.031(4) -0.034(4)
C23 0.059(5) 0.056(5) 0.048(5) -0.021(4) 0.025(4) -0.033(4)
C24 0.051(4) 0.039(4) 0.035(4) -0.013(3) 0.014(3) -0.022(3)
C25 0.041(4) 0.031(3) 0.030(3) -0.005(3) 0.015(3) -0.012(3)
C26 0.041(4) 0.038(4) 0.033(4) -0.010(3) 0.015(3) -0.018(3)
Co1SD 0.0168 0.0293 0.0293 -0.0047 -0.002 -0.002
Co1TC 0.0293 0.0168 0.0293 -0.002 -0.0047 -0.002
Co1JD 0.0168 0.0293 0.0293 0.0047 -0.002 0.002
Co1XC 0.0293 0.0168 0.0293 -0.002 0.0047 0.002
Co1JA 0.0293 0.0293 0.0168 -0.002 0.002 0.0047
Co1HA 0.0293 0.0168 0.0293 -0.002 0.0047 0.002
Co2JD 0.0321 0.0177 0.0326 0 0.0003 0
Co2AG 0.0177 0.0321 0.0326 0.0003 0 0
Co2OB 0.0177 0.0321 0.0326 0.0003 0 0
Co2E 0.0321 0.0326 0.0177 0 0 0.0003
Co2MA 0.0177 0.0326 0.0321 -0.0003 0 0
Co2G 0.0177 0.0321 0.0326 -0.0003 0 0
Co2ZB 0.0321 0.0326 0.0177 0 0 -0.0003
Co2HA 0.0326 0.0321 0.0177 0 0 -0.0003
S1MA 0.0415 0.0647 0.0767 0.0402 0.0153 -0.0035
S1KE 0.0767 0.0415 0.0647 -0.0035 -0.0402 -0.0153
S1SD 0.0767 0.0647 0.0415 -0.0035 -0.0153 -0.0402
S1AG 0.0415 0.0767 0.0647 -0.0402 -0.0035 -0.0153
S1TC 0.0647 0.0767 0.0415 -0.0153 -0.0035 -0.0402
S2JB 0.0403 0.0508 0.367 0.059 0.035 0.0087
S2KE 0.367 0.0508 0.0403 -0.0087 -0.035 0.059
S2JD 0.367 0.0508 0.0403 0.0087 -0.035 -0.059
S2AG 0.0508 0.367 0.0403 -0.035 -0.0087 0.059
S2CG 0.0508 0.367 0.0403 -0.035 0.0087 -0.059
N1MA 0.034 0.032 0.025 0.005 0.005 -0.002
N1KE 0.025 0.034 0.032 -0.002 -0.005 -0.005
N1SD 0.025 0.032 0.034 -0.002 -0.005 -0.005
N1AG 0.034 0.025 0.032 -0.005 -0.002 -0.005
N1TC 0.032 0.025 0.034 -0.005 -0.002 -0.005
N2JB 0.035 0.025 0.04 0.004 -0.001 0
N2KE 0.04 0.025 0.035 0 0.001 0.004
N2JD 0.04 0.025 0.035 0 0.001 -0.004
N2AG 0.025 0.04 0.035 0.001 0 0.004
N2CG 0.025 0.04 0.035 0.001 0 -0.004
N3KE 0.035 0.035 0.025 0 0.008 -0.009
N3AG 0.035 0.035 0.025 0.008 0 -0.009
N3MA 0.035 0.025 0.035 -0.008 0.009 0
N3JB 0.025 0.035 0.035 -0.009 -0.008 0
N3HA 0.025 0.035 0.035 -0.009 0 -0.008
N3OC 0.035 0.025 0.035 -0.008 -0.009 0
N3JC 0.035 0.025 0.035 0 -0.009 -0.008
N4KE 0.03 0.038 0.033 -0.01 0.003 -0.009
N4AG 0.038 0.03 0.033 0.003 -0.01 -0.009
N4MA 0.038 0.033 0.03 -0.003 0.009 -0.01
N4JB 0.033 0.038 0.03 -0.009 -0.003 0.01
N4HA 0.033 0.03 0.038 -0.009 0.01 -0.003
N4SD 0.03 0.033 0.038 -0.01 -0.009 0.003
N4TC 0.033 0.03 0.038 -0.009 -0.01 0.003
N5KE 0.04 0.032 0.033 -0.008 0.008 -0.011
N5AG 0.032 0.04 0.033 0.008 -0.008 -0.011
N5MA 0.032 0.033 0.04 -0.008 0.011 -0.008
N5JB 0.033 0.032 0.04 -0.011 -0.008 0.008
N5HA 0.033 0.04 0.032 -0.011 0.008 -0.008
N6KE 0.037 0.036 0.034 -0.008 0.011 -0.006
N6AG 0.036 0.037 0.034 0.011 -0.008 -0.006
N6MA 0.036 0.034 0.037 -0.011 0.006 -0.008
N6JB 0.034 0.036 0.037 -0.006 -0.011 0.008
N6HA 0.034 0.037 0.036 -0.006 0.008 -0.011
N7KE 0.048 0.034 0.033 -0.009 0.011 -0.012
N7AG 0.034 0.048 0.033 0.011 -0.009 -0.012
N7MA 0.034 0.033 0.048 -0.011 0.012 -0.009
N7JB 0.033 0.034 0.048 -0.012 -0.011 0.009
N7HA 0.033 0.048 0.034 -0.012 0.009 -0.011
N8KE 0.042 0.026 0.034 -0.008 0.009 -0.002
N8AG 0.026 0.042 0.034 0.009 -0.008 -0.002
N8MA 0.026 0.034 0.042 -0.009 0.002 -0.008
N8JB 0.034 0.026 0.042 -0.002 -0.009 0.008
N8HA 0.034 0.042 0.026 -0.002 0.008 -0.009
N8JD 0.042 0.026 0.034 0.008 0.009 0.002
N8CG 0.026 0.042 0.034 0.009 0.008 0.002
N9QB 0.026 0.035 0.041 -0.012 0.012 -0.006
N9CB 0.035 0.041 0.026 -0.012 0.006 -0.012
N9JB 0.041 0.026 0.035 0.006 0.012 0.012
N9G 0.026 0.035 0.041 0.012 0.012 0.006
N9ZB 0.035 0.041 0.026 0.012 0.006 0.012
N9KE 0.035 0.026 0.041 -0.012 -0.012 0.006
N9JD 0.035 0.026 0.041 0.012 -0.012 -0.006
N9AG 0.026 0.035 0.041 -0.012 -0.012 0.006
N9CG 0.026 0.035 0.041 -0.012 0.012 -0.006
N10CB 0.036 0.048 0.044 -0.02 0.015 -0.019
N10QB 0.044 0.036 0.048 -0.019 0.02 -0.015
N10JB 0.048 0.044 0.036 0.015 0.019 0.02
N10ZB 0.036 0.048 0.044 0.02 0.015 0.019
N10G 0.044 0.036 0.048 0.019 0.02 0.015
C1MA 0.032 0.04 0.029 0.007 -0.001 0.009
C1KE 0.029 0.032 0.04 0.009 -0.007 0.001
C1SD 0.029 0.04 0.032 0.009 0.001 -0.007
C1AG 0.032 0.029 0.04 -0.007 0.009 0.001
C1TC 0.04 0.029 0.032 0.001 0.009 -0.007
C2JB 0.055 0.019 0.081 0.007 0.012 -0.001
C2KE 0.081 0.019 0.055 0.001 -0.012 0.007
C2JD 0.081 0.019 0.055 -0.001 -0.012 -0.007
C2AG 0.019 0.081 0.055 -0.012 0.001 0.007
C2CG 0.019 0.081 0.055 -0.012 -0.001 -0.007
C3KE 0.04 0.028 0.028 -0.003 0.002 -0.009
C3AG 0.028 0.04 0.028 0.002 -0.003 -0.009
C3MA 0.028 0.028 0.04 -0.002 0.009 -0.003
C3JB 0.028 0.028 0.04 -0.009 -0.002 0.003
C3HA 0.028 0.04 0.028 -0.009 0.003 -0.002
C4KE 0.046 0.034 0.035 -0.001 0.016 -0.009
C4AG 0.034 0.046 0.035 0.016 -0.001 -0.009
C4MA 0.034 0.035 0.046 -0.016 0.009 -0.001
C4JB 0.035 0.034 0.046 -0.009 -0.016 0.001
C4HA 0.035 0.046 0.034 -0.009 0.001 -0.016
C5KE 0.083 0.039 0.052 -0.014 0.036 -0.024
C5AG 0.039 0.083 0.052 0.036 -0.014 -0.024
C5MA 0.039 0.052 0.083 -0.036 0.024 -0.014
C5JB 0.052 0.039 0.083 -0.024 -0.036 0.014
C5HA 0.052 0.083 0.039 -0.024 0.014 -0.036
C6KE 0.094 0.043 0.064 -0.016 0.052 -0.03
C6AG 0.043 0.094 0.064 0.052 -0.016 -0.03
C6MA 0.043 0.064 0.094 -0.052 0.03 -0.016
C6JB 0.064 0.043 0.094 -0.03 -0.052 0.016
C6HA 0.064 0.094 0.043 -0.03 0.016 -0.052
C7KE 0.058 0.041 0.044 -0.008 0.025 -0.016
C7AG 0.041 0.058 0.044 0.025 -0.008 -0.016
C7MA 0.041 0.044 0.058 -0.025 0.016 -0.008
C7JB 0.044 0.041 0.058 -0.016 -0.025 0.008
C7HA 0.044 0.058 0.041 -0.016 0.008 -0.025
C8KE 0.046 0.055 0.045 -0.021 0.006 -0.022
C8AG 0.055 0.046 0.045 0.006 -0.021 -0.022
C8MA 0.055 0.045 0.046 -0.006 0.022 -0.021
C8JB 0.045 0.055 0.046 -0.022 -0.006 0.021
C8HA 0.045 0.046 0.055 -0.022 0.021 -0.006
C9KE 0.069 0.067 0.047 -0.033 0.023 -0.037
C9AG 0.067 0.069 0.047 0.023 -0.033 -0.037
C9MA 0.067 0.047 0.069 -0.023 0.037 -0.033
C9JB 0.047 0.067 0.069 -0.037 -0.023 0.033
C9HA 0.047 0.069 0.067 -0.037 0.033 -0.023
C10KE 0.058 0.059 0.047 -0.019 0.026 -0.028
C10AG 0.059 0.058 0.047 0.026 -0.019 -0.028
C10MA 0.059 0.047 0.058 -0.026 0.028 -0.019
C10JB 0.047 0.059 0.058 -0.028 -0.026 0.019
C10HA 0.047 0.058 0.059 -0.028 0.019 -0.026
C11KE 0.035 0.032 0.039 -0.013 0.008 -0.007
C11AG 0.032 0.035 0.039 0.008 -0.013 -0.007
C11MA 0.032 0.039 0.035 -0.008 0.007 -0.013
C11JB 0.039 0.032 0.035 -0.007 -0.008 0.013
C11HA 0.039 0.035 0.032 -0.007 0.013 -0.008
C12KE 0.029 0.029 0.029 -0.007 0 -0.004
C12AG 0.029 0.029 0.029 0 -0.007 -0.004
C12MA 0.029 0.029 0.029 0 0.004 -0.007
C12JB 0.029 0.029 0.029 -0.004 0 0.007
C12HA 0.029 0.029 0.029 -0.004 0.007 0
C13KE 0.033 0.032 0.033 -0.008 0.011 -0.004
C13AG 0.032 0.033 0.033 0.011 -0.008 -0.004
C13MA 0.032 0.033 0.033 -0.011 0.004 -0.008
C13JB 0.033 0.032 0.033 -0.004 -0.011 0.008
C13HA 0.033 0.033 0.032 -0.004 0.008 -0.011
C14KE 0.032 0.03 0.037 -0.005 0.013 -0.005
C14AG 0.03 0.032 0.037 0.013 -0.005 -0.005
C14MA 0.03 0.037 0.032 -0.013 0.005 -0.005
C14JB 0.037 0.03 0.032 -0.005 -0.013 0.005
C14HA 0.037 0.032 0.03 -0.005 0.005 -0.013
C15KE 0.043 0.027 0.033 -0.004 0.012 -0.005
C15AG 0.027 0.043 0.033 0.012 -0.004 -0.005
C15MA 0.027 0.033 0.043 -0.012 0.005 -0.004
C15JB 0.033 0.027 0.043 -0.005 -0.012 0.004
C15HA 0.033 0.043 0.027 -0.005 0.004 -0.012
C16KE 0.04 0.026 0.035 -0.007 0.009 -0.003
C16AG 0.026 0.04 0.035 0.009 -0.007 -0.003
C16MA 0.026 0.035 0.04 -0.009 0.003 -0.007
C16JB 0.035 0.026 0.04 -0.003 -0.009 0.007
C16HA 0.035 0.04 0.026 -0.003 0.007 -0.009
C17KE 0.04 0.03 0.032 -0.009 0.012 -0.007
C17AG 0.03 0.04 0.032 0.012 -0.009 -0.007
C17MA 0.03 0.032 0.04 -0.012 0.007 -0.009
C17JB 0.032 0.03 0.04 -0.007 -0.012 0.009
C17HA 0.032 0.04 0.03 -0.007 0.009 -0.012
C18KE 0.056 0.041 0.043 -0.014 0.017 -0.023
C18AG 0.041 0.056 0.043 0.017 -0.014 -0.023
C18MA 0.041 0.043 0.056 -0.017 0.023 -0.014
C18JB 0.043 0.041 0.056 -0.023 -0.017 0.014
C18HA 0.043 0.056 0.041 -0.023 0.014 -0.017
C19KE 0.07 0.056 0.049 -0.02 0.028 -0.024
C19AG 0.056 0.07 0.049 0.028 -0.02 -0.024
C19MA 0.056 0.049 0.07 -0.028 0.024 -0.02
C19JB 0.049 0.056 0.07 -0.024 -0.028 0.02
C19HA 0.049 0.07 0.056 -0.024 0.02 -0.028
C20KE 0.05 0.045 0.04 -0.017 0.016 -0.02
C20AG 0.045 0.05 0.04 0.016 -0.017 -0.02
C20MA 0.045 0.04 0.05 -0.016 0.02 -0.017
C20JB 0.04 0.045 0.05 -0.02 -0.016 0.017
C20HA 0.04 0.05 0.045 -0.02 0.017 -0.016
C21QB 0.039 0.048 0.06 -0.02 0.029 -0.006
C21CB 0.048 0.06 0.039 -0.029 0.006 -0.02
C21JB 0.06 0.039 0.048 0.006 0.02 0.029
C21G 0.039 0.048 0.06 0.02 0.029 0.006
C21ZB 0.048 0.06 0.039 0.029 0.006 0.02
C22QB 0.06 0.05 0.073 -0.031 0.034 -0.021
C22CB 0.05 0.073 0.06 -0.034 0.021 -0.031
C22JB 0.073 0.06 0.05 0.021 0.031 0.034
C22G 0.06 0.05 0.073 0.031 0.034 0.021
C22ZB 0.05 0.073 0.06 0.034 0.021 0.031
C23QB 0.056 0.048 0.059 -0.025 0.033 -0.021
C23CB 0.048 0.059 0.056 -0.033 0.021 -0.025
C23JB 0.059 0.056 0.048 0.021 0.025 0.033
C23G 0.056 0.048 0.059 0.025 0.033 0.021
C23ZB 0.048 0.059 0.056 0.033 0.021 0.025
C24QB 0.039 0.035 0.051 -0.014 0.022 -0.013
C24CB 0.035 0.051 0.039 -0.022 0.013 -0.014
C24JB 0.051 0.039 0.035 0.013 0.014 0.022
C24G 0.039 0.035 0.051 0.014 0.022 0.013
C24ZB 0.035 0.051 0.039 0.022 0.013 0.014
C25QB 0.031 0.03 0.041 -0.015 0.012 -0.005
C25CB 0.03 0.041 0.031 -0.012 0.005 -0.015
C25JB 0.041 0.031 0.03 0.005 0.015 0.012
C25G 0.031 0.03 0.041 0.015 0.012 0.005
C25ZB 0.03 0.041 0.031 0.012 0.005 0.015
C26CB 0.033 0.041 0.038 -0.018 0.01 -0.015
C26QB 0.038 0.033 0.041 -0.015 0.018 -0.01
C26JB 0.041 0.038 0.033 0.01 0.015 0.018
C26ZB 0.033 0.041 0.038 0.018 0.01 0.015
C26G 0.038 0.033 0.041 0.015 0.018 0.01
S3 0.0695(19) 0.141(3) 0.094(2) 0.022(2) -0.0009(16) 0.0152(19)
C27 0.071(8) 0.27(2) 0.069(8) -0.027(11) -0.014(7) 0.018(11)
C28 0.028(5) 0.146(13) 0.167(14) -0.064(11) 0.001(7) -0.026(6)
C29 0.138(13) 0.083(8) 0.166(14) -0.043(9) 0.130(12) -0.028(8)
C30 0.068(6) 0.069(6) 0.052(5) -0.009(4) 0.008(4) -0.004(5)
loop_
_geom_bond_atom_site_label_1
_geom_bond_atom_site_label_2
_geom_bond_site_symmetry_1
_geom_bond_site_symmetry_2
Co1 N1 1_555 1_555
Co2 N2 1_555 1_555
S1 C1 1_555 1_555
S2 C2 1_555 1_555
N1 C1 1_555 1_555
N2 C2 1_555 1_555
N3 C3 1_555 1_555
N4 Co1 1_555 1_555
N5 C13 1_555 1_555
N6 C13 1_555 1_555
N7 C14 1_555 1_555
N8 Co2 1_555 1_555
N9 Co2 1_555 1_555
N10 C26 1_555 1_555
C3 H1 1_555 1_555
C4 C3 1_555 1_555
C5 C4 1_555 1_555
H2 C5 1_555 1_555
C6 C5 1_555 1_555
H3 C6 1_555 1_555
C7 N3 1_555 1_555
H4 C7 1_555 1_555
C8 N4 1_555 1_555
H5 C8 1_555 1_555
C9 C8 1_555 1_555
H6 C9 1_555 1_555
C10 C9 1_555 1_555
H7 C10 1_555 1_555
C11 C10 1_555 1_555
C12 N4 1_555 1_555
H8 C12 1_555 1_555
C13 C11 1_555 1_555
C14 N5 1_555 1_555
C15 N6 1_555 1_555
C16 N8 1_555 1_555
H9 C16 1_555 1_555
C17 C14 1_555 1_555
C18 C17 1_555 1_555
H10 C18 1_555 1_555
C19 C18 1_555 1_555
H11 C19 1_555 1_555
C20 N8 1_555 1_555
H12 C20 1_555 1_555
C21 N9 1_555 1_555
H13 C21 1_555 1_555
C22 C21 1_555 1_555
H14 C22 1_555 1_555
C23 C22 1_555 1_555
H15 C23 1_555 1_555
C24 C23 1_555 1_555
C25 N9 1_555 1_555
H16 C25 1_555 1_555
C26 C24 1_555 1_555
S3 C27 1_555 1_555
C27 H17 1_555 1_555
C28 C27 1_555 1_555
H18 C28 1_555 1_555
C29 C28 1_555 1_555
H19 C29 1_555 1_555
C30 S3 1_555 1_555
H20 C30 1_555 1_555
Co1SD N1KE 1_555 1_555
Co1TC N1AG 1_555 1_555
Co1JD N3 1_555 1_555
Co1XC N3MA 1_555 1_555
Co1JA N4JB 1_555 1_555
Co1HA N4HA 1_555 1_555
Co2JD N2KE 1_555 1_555
Co2AG N2AG 1_555 1_555
Co2OB N9QB 1_555 1_555
Co2E N9CB 1_555 1_555
Co2MA N8MA 1_555 1_555
Co2G N9G 1_555 1_555
Co2ZB N9ZB 1_555 1_555
Co2HA N8HA 1_555 1_555
S1MA C1MA 1_555 1_555
S1KE C1KE 1_555 1_555
S1SD C1SD 1_555 1_555
S1AG C1AG 1_555 1_555
S1TC C1TC 1_555 1_555
S2JB C2JB 1_555 1_555
S2KE C2KE 1_555 1_555
S2JD C2JD 1_555 1_555
S2AG C2AG 1_555 1_555
S2CG C2CG 1_555 1_555
N1MA Co1 1_555 1_555
N1KE C1KE 1_555 1_555
N1SD Co1SD 1_555 1_555
N1AG C1AG 1_555 1_555
N1TC Co1TC 1_555 1_555
N2JB Co2 1_555 1_555
N2KE C2KE 1_555 1_555
N2JD Co2JD 1_555 1_555
N2AG C2AG 1_555 1_555
N2CG Co2AG 1_555 1_555
N3KE Co1 1_555 1_555
N3AG Co1 1_555 1_555
N3MA C3MA 1_555 1_555
N3JB Co1SD 1_555 1_555
N3HA Co1SD 1_555 1_555
N3OC Co1TC 1_555 1_555
N3JC Co1TC 1_555 1_555
N4KE Co1SD 1_555 1_555
N4AG Co1TC 1_555 1_555
N4MA Co1 1_555 1_555
N4JB C8JB 1_555 1_555
N4HA C8HA 1_555 1_555
N4SD Co1SD 1_555 1_555
N4TC Co1TC 1_555 1_555
N5KE C13KE 1_555 1_555
N5AG C13AG 1_555 1_555
N5MA C13MA 1_555 1_555
N5JB C13JB 1_555 1_555
N5HA C13HA 1_555 1_555
N6KE C13KE 1_555 1_555
N6AG C13AG 1_555 1_555
N6MA C13MA 1_555 1_555
N6JB C13JB 1_555 1_555
N6HA C13HA 1_555 1_555
N7KE C14KE 1_555 1_555
N7AG C14AG 1_555 1_555
N7MA C14MA 1_555 1_555
N7JB C14JB 1_555 1_555
N7HA C14HA 1_555 1_555
N8KE Co2JD 1_555 1_555
N8AG Co2AG 1_555 1_555
N8MA C16MA 1_555 1_555
N8JB Co2 1_555 1_555
N8HA C16HA 1_555 1_555
N8JD Co2JD 1_555 1_555
N8CG Co2AG 1_555 1_555
N9QB C21QB 1_555 1_555
N9CB C21CB 1_555 1_555
N9JB Co2 1_555 1_555
N9G C21G 1_555 1_555
N9ZB C21ZB 1_555 1_555
N9KE Co2JD 1_555 1_555
N9JD Co2JD 1_555 1_555
N9AG Co2AG 1_555 1_555
N9CG Co2AG 1_555 1_555
N10CB C26CB 1_555 1_555
N10QB C26 1_555 1_555
N10JB C26JB 1_555 1_555
N10ZB C26ZB 1_555 1_555
N10G C26JB 1_555 1_555
C1MA N1MA 1_555 1_555
C1SD N1SD 1_555 1_555
C1TC N1TC 1_555 1_555
C2JB N2JB 1_555 1_555
C2JD N2JD 1_555 1_555
C2CG N2CG 1_555 1_555
C3KE N3KE 1_555 1_555
C3AG N3AG 1_555 1_555
C3MA H1MA 1_555 1_555
C3JB N3JB 1_555 1_555
C3HA N3HA 1_555 1_555
H1KE C3KE 1_555 1_555
H1AG C3AG 1_555 1_555
H1JB C3JB 1_555 1_555
H1HA C3HA 1_555 1_555
C4KE C3KE 1_555 1_555
C4AG C3AG 1_555 1_555
C4MA C3MA 1_555 1_555
C4JB C3JB 1_555 1_555
C4HA C3HA 1_555 1_555
C5KE C4KE 1_555 1_555
C5AG C4AG 1_555 1_555
C5MA C4MA 1_555 1_555
C5JB C4JB 1_555 1_555
C5HA C4HA 1_555 1_555
H2KE C5KE 1_555 1_555
H2AG C5AG 1_555 1_555
H2MA C5MA 1_555 1_555
H2JB C5JB 1_555 1_555
H2HA C5HA 1_555 1_555
C6KE C5KE 1_555 1_555
C6AG C5AG 1_555 1_555
C6MA C5MA 1_555 1_555
C6JB C5JB 1_555 1_555
C6HA C5HA 1_555 1_555
H3KE C6KE 1_555 1_555
H3AG C6AG 1_555 1_555
H3MA C6MA 1_555 1_555
H3JB C6JB 1_555 1_555
H3HA C6HA 1_555 1_555
C7KE N3KE 1_555 1_555
C7AG N3AG 1_555 1_555
C7MA N3MA 1_555 1_555
C7JB N3JB 1_555 1_555
C7HA N3HA 1_555 1_555
H4KE C7KE 1_555 1_555
H4AG C7AG 1_555 1_555
H4MA C7MA 1_555 1_555
H4JB C7JB 1_555 1_555
H4HA C7HA 1_555 1_555
C8KE N4KE 1_555 1_555
C8AG N4AG 1_555 1_555
C8MA N4MA 1_555 1_555
C8JB H5JB 1_555 1_555
C8HA H5HA 1_555 1_555
H5KE C8KE 1_555 1_555
H5AG C8AG 1_555 1_555
H5MA C8MA 1_555 1_555
C9KE C8KE 1_555 1_555
C9AG C8AG 1_555 1_555
C9MA C8MA 1_555 1_555
C9JB C8JB 1_555 1_555
C9HA C8HA 1_555 1_555
H6KE C9KE 1_555 1_555
H6AG C9AG 1_555 1_555
H6MA C9MA 1_555 1_555
H6JB C9JB 1_555 1_555
H6HA C9HA 1_555 1_555
C10KE C9KE 1_555 1_555
C10AG C9AG 1_555 1_555
C10MA C9MA 1_555 1_555
C10JB C9JB 1_555 1_555
C10HA C9HA 1_555 1_555
H7KE C10KE 1_555 1_555
H7AG C10AG 1_555 1_555
H7MA C10MA 1_555 1_555
H7JB C10JB 1_555 1_555
H7HA C10HA 1_555 1_555
C11KE C10KE 1_555 1_555
C11AG C10AG 1_555 1_555
C11MA C10MA 1_555 1_555
C11JB C10JB 1_555 1_555
C11HA C10HA 1_555 1_555
C12KE N4KE 1_555 1_555
C12AG N4AG 1_555 1_555
C12MA N4MA 1_555 1_555
C12JB N4JB 1_555 1_555
C12HA N4HA 1_555 1_555
H8KE C12KE 1_555 1_555
H8AG C12AG 1_555 1_555
H8MA C12MA 1_555 1_555
H8JB C12JB 1_555 1_555
H8HA C12HA 1_555 1_555
C13KE C11KE 1_555 1_555
C13AG C11AG 1_555 1_555
C13MA C11MA 1_555 1_555
C13JB C11JB 1_555 1_555
C13HA C11HA 1_555 1_555
C14KE N5KE 1_555 1_555
C14AG N5AG 1_555 1_555
C14MA N5MA 1_555 1_555
C14JB N5JB 1_555 1_555
C14HA N5HA 1_555 1_555
C15KE N6KE 1_555 1_555
C15AG N6AG 1_555 1_555
C15MA N6MA 1_555 1_555
C15JB N6JB 1_555 1_555
C15HA N6HA 1_555 1_555
C16KE N8KE 1_555 1_555
C16AG N8AG 1_555 1_555
C16MA H9MA 1_555 1_555
C16JB N8JB 1_555 1_555
C16HA H9HA 1_555 1_555
H9KE C16KE 1_555 1_555
H9AG C16AG 1_555 1_555
H9JB C16JB 1_555 1_555
C17KE C14KE 1_555 1_555
C17AG C14AG 1_555 1_555
C17MA C14MA 1_555 1_555
C17JB C14JB 1_555 1_555
C17HA C14HA 1_555 1_555
C18KE C17KE 1_555 1_555
C18AG C17AG 1_555 1_555
C18MA C17MA 1_555 1_555
C18JB C17JB 1_555 1_555
C18HA C17HA 1_555 1_555
H10KE C18KE 1_555 1_555
H10AG C18AG 1_555 1_555
H10MA C18MA 1_555 1_555
H10JB C18JB 1_555 1_555
H10HA C18HA 1_555 1_555
C19KE C18KE 1_555 1_555
C19AG C18AG 1_555 1_555
C19MA C18MA 1_555 1_555
C19JB C18JB 1_555 1_555
C19HA C18HA 1_555 1_555
H11KE C19KE 1_555 1_555
H11AG C19AG 1_555 1_555
H11MA C19MA 1_555 1_555
H11JB C19JB 1_555 1_555
H11HA C19HA 1_555 1_555
C20KE N8KE 1_555 1_555
C20AG N8AG 1_555 1_555
C20MA N8MA 1_555 1_555
C20JB N8JB 1_555 1_555
C20HA N8HA 1_555 1_555
H12KE C20KE 1_555 1_555
H12AG C20AG 1_555 1_555
H12MA C20MA 1_555 1_555
H12JB C20JB 1_555 1_555
H12HA C20HA 1_555 1_555
C21QB H13QB 1_555 1_555
C21CB H13CB 1_555 1_555
C21JB N9JB 1_555 1_555
C21G H13G 1_555 1_555
C21ZB H13ZB 1_555 1_555
H13JB C21JB 1_555 1_555
C22QB C21QB 1_555 1_555
C22CB C21CB 1_555 1_555
C22JB C21JB 1_555 1_555
C22G C21G 1_555 1_555
C22ZB C21ZB 1_555 1_555
H14QB C22QB 1_555 1_555
H14CB C22CB 1_555 1_555
H14JB C22JB 1_555 1_555
H14G C22G 1_555 1_555
H14ZB C22ZB 1_555 1_555
C23QB C22QB 1_555 1_555
C23CB C22CB 1_555 1_555
C23JB C22JB 1_555 1_555
C23G C22G 1_555 1_555
C23ZB C22ZB 1_555 1_555
H15QB C23QB 1_555 1_555
H15CB C23CB 1_555 1_555
H15JB C23JB 1_555 1_555
H15G C23G 1_555 1_555
H15ZB C23ZB 1_555 1_555
C24QB C23QB 1_555 1_555
C24CB C23CB 1_555 1_555
C24JB C23JB 1_555 1_555
C24G C23G 1_555 1_555
C24ZB C23ZB 1_555 1_555
C25QB N9QB 1_555 1_555
C25CB N9CB 1_555 1_555
C25JB N9JB 1_555 1_555
C25G N9G 1_555 1_555
C25ZB N9ZB 1_555 1_555
H16QB C25QB 1_555 1_555
H16CB C25CB 1_555 1_555
H16JB C25JB 1_555 1_555
H16G C25G 1_555 1_555
H16ZB C25ZB 1_555 1_555
C26CB N10 1_555 1_555
C26QB N10CB 1_555 1_555
C26JB C24JB 1_555 1_555
C26ZB N10JB 1_555 1_555
C26G N10ZB 1_555 1_555
N7 C15 1_555 1_555
C4 C15 1_555 1_555
C6 C7 1_555 1_555
C11 C12 1_555 1_555
C16 C17 1_555 1_555
C19 C20 1_555 1_555
C24 C25 1_555 1_555
C29 C30 1_555 1_555
N7KE C15KE 1_555 1_555
N7AG C15AG 1_555 1_555
N7MA C15MA 1_555 1_555
N7JB C15JB 1_555 1_555
N7HA C15HA 1_555 1_555
N10QB C26QB 1_555 1_555
N10G C26G 1_555 1_555
C4KE C15KE 1_555 1_555
C4AG C15AG 1_555 1_555
C4MA C15MA 1_555 1_555
C4JB C15JB 1_555 1_555
C4HA C15HA 1_555 1_555
C6KE C7KE 1_555 1_555
C6AG C7AG 1_555 1_555
C6MA C7MA 1_555 1_555
C6JB C7JB 1_555 1_555
C6HA C7HA 1_555 1_555
C11KE C12KE 1_555 1_555
C11AG C12AG 1_555 1_555
C11MA C12MA 1_555 1_555
C11JB C12JB 1_555 1_555
C11HA C12HA 1_555 1_555
C16KE C17KE 1_555 1_555
C16AG C17AG 1_555 1_555
C16MA C17MA 1_555 1_555
C16JB C17JB 1_555 1_555
C16HA C17HA 1_555 1_555
C19KE C20KE 1_555 1_555
C19AG C20AG 1_555 1_555
C19MA C20MA 1_555 1_555
C19JB C20JB 1_555 1_555
C19HA C20HA 1_555 1_555
C24QB C25QB 1_555 1_555
C24QB C26QB 1_555 1_555
C24CB C25CB 1_555 1_555
C24CB C26CB 1_555 1_555
C24JB C25JB 1_555 1_555
C24G C25G 1_555 1_555
C24G C26G 1_555 1_555
C24ZB C25ZB 1_555 1_555
C24ZB C26ZB 1_555 1_555

#END
