
#######################################################################
#
#                 Cambridge Crystallographic Data Centre
#                                CCDC 
#
#######################################################################
#
# If this CIF has been generated from an entry in the Cambridge 
# Structural Database, then it will include bibliographic, chemical, 
# crystal, experimental, refinement or atomic coordinate data resulting 
# from the CCDC's data processing and validation procedures.
#
#######################################################################

data_LAFQUG
_chemical_formula_moiety         '(C160 H100 Co6 N60 O1 S12)n'
_symmetry_cell_setting           cubic
_symmetry_space_group_name_H-M   'F d -3 c'
_symmetry_Int_Tables_number      228
_space_group_name_Hall           '-F 4ud 2vw 3'
loop_
_symmetry_equiv_pos_site_id
_symmetry_equiv_pos_as_xyz
1 x,y,z
2 1/4+y,1/4+x,1/2-z
3 1/4+x,-z,3/4+y
4 -z,1/4+y,3/4+x
5 3/4+z,1/4+y,-x
6 1/4-z,x,1/4-y
7 1/4+x,3/4+z,-y
8 y,1/4-z,1/4-x
9 1/4+y,-x,3/4+z
10 x,1/4-y,1/4-z
11 1/4-x,1/4-y,z
12 1/2-y,-x,-z
13 -z,-y,1/2-x
14 z,1/4-x,1/4-y
15 x,1/2+y,1/2+z
16 1/4+y,3/4+x,-z
17 1/4+x,1/2-z,1/4+y
18 -z,3/4+y,1/4+x
19 3/4+z,3/4+y,1/2-x
20 1/4-z,1/2+x,3/4-y
21 1/4+x,1/4+z,1/2-y
22 y,3/4-z,3/4-x
23 1/4+y,1/2-x,1/4+z
24 x,3/4-y,3/4-z
25 1/4-x,3/4-y,1/2+z
26 1/2-y,1/2-x,1/2-z
27 -z,1/2-y,-x
28 z,3/4-x,3/4-y
29 1/2+x,y,1/2+z
30 3/4+y,1/4+x,-z
31 3/4+x,-z,1/4+y
32 1/2-z,1/4+y,1/4+x
33 1/4+z,1/4+y,1/2-x
34 3/4-z,x,3/4-y
35 3/4+x,3/4+z,1/2-y
36 1/2+y,1/4-z,3/4-x
37 3/4+y,-x,1/4+z
38 1/2+x,1/4-y,3/4-z
39 3/4-x,1/4-y,1/2+z
40 -y,-x,1/2-z
41 1/2-z,-y,-x
42 1/2+z,1/4-x,3/4-y
43 1/2+x,1/2+y,z
44 3/4+y,3/4+x,1/2-z
45 3/4+x,1/2-z,3/4+y
46 1/2-z,3/4+y,3/4+x
47 1/4+z,3/4+y,-x
48 3/4-z,1/2+x,1/4-y
49 3/4+x,1/4+z,-y
50 1/2+y,3/4-z,1/4-x
51 3/4+y,1/2-x,3/4+z
52 1/2+x,3/4-y,1/4-z
53 3/4-x,3/4-y,z
54 -y,1/2-x,-z
55 1/2-z,1/2-y,1/2-x
56 1/2+z,3/4-x,1/4-y
57 -x,1/2-z,-y
58 3/4-y,z,3/4-x
59 3/4-z,3/4-x,y
60 3/4-y,3/4-z,x
61 1/2-x,3/4+z,3/4+y
62 3/4+z,1/2-y,3/4+x
63 3/4-x,y,3/4-z
64 1/2-y,3/4+x,3/4+z
65 y,z,x
66 z,x,y
67 -x,-z,1/2-y
68 3/4-y,1/2+z,1/4-x
69 3/4-z,1/4-x,1/2+y
70 3/4-y,1/4-z,1/2+x
71 1/2-x,1/4+z,1/4+y
72 3/4+z,-y,1/4+x
73 3/4-x,1/2+y,1/4-z
74 1/2-y,1/4+x,1/4+z
75 y,1/2+z,1/2+x
76 z,1/2+x,1/2+y
77 1/2-x,1/2-z,1/2-y
78 1/4-y,z,1/4-x
79 1/4-z,3/4-x,1/2+y
80 1/4-y,3/4-z,1/2+x
81 -x,3/4+z,1/4+y
82 1/4+z,1/2-y,1/4+x
83 1/4-x,y,1/4-z
84 -y,3/4+x,1/4+z
85 1/2+y,z,1/2+x
86 1/2+z,x,1/2+y
87 1/2-x,-z,-y
88 1/4-y,1/2+z,3/4-x
89 1/4-z,1/4-x,y
90 1/4-y,1/4-z,x
91 -x,1/4+z,3/4+y
92 1/4+z,-y,3/4+x
93 1/4-x,1/2+y,3/4-z
94 -y,1/4+x,3/4+z
95 1/2+y,1/2+z,x
96 1/2+z,1/2+x,y
97 -x,-y,-z
98 3/4-y,3/4-x,1/2+z
99 3/4-x,z,1/4-y
100 z,3/4-y,1/4-x
101 1/4-z,3/4-y,x
102 3/4+z,-x,3/4+y
103 3/4-x,1/4-z,y
104 -y,3/4+z,3/4+x
105 3/4-y,x,1/4-z
106 -x,3/4+y,3/4+z
107 3/4+x,3/4+y,-z
108 1/2+y,x,z
109 z,y,1/2+x
110 -z,3/4+x,3/4+y
111 -x,1/2-y,1/2-z
112 3/4-y,1/4-x,z
113 3/4-x,1/2+z,3/4-y
114 z,1/4-y,3/4-x
115 1/4-z,1/4-y,1/2+x
116 3/4+z,1/2-x,1/4+y
117 3/4-x,3/4-z,1/2+y
118 -y,1/4+z,1/4+x
119 3/4-y,1/2+x,3/4-z
120 -x,1/4+y,1/4+z
121 3/4+x,1/4+y,1/2-z
122 1/2+y,1/2+x,1/2+z
123 z,1/2+y,x
124 -z,1/4+x,1/4+y
125 1/2-x,-y,1/2-z
126 1/4-y,3/4-x,z
127 1/4-x,z,3/4-y
128 1/2+z,3/4-y,3/4-x
129 3/4-z,3/4-y,1/2+x
130 1/4+z,-x,1/4+y
131 1/4-x,1/4-z,1/2+y
132 1/2-y,3/4+z,1/4+x
133 1/4-y,x,3/4-z
134 1/2-x,3/4+y,1/4+z
135 1/4+x,3/4+y,1/2-z
136 y,x,1/2+z
137 1/2+z,y,x
138 1/2-z,3/4+x,1/4+y
139 1/2-x,1/2-y,-z
140 1/4-y,1/4-x,1/2+z
141 1/4-x,1/2+z,1/4-y
142 1/2+z,1/4-y,1/4-x
143 3/4-z,1/4-y,x
144 1/4+z,1/2-x,3/4+y
145 1/4-x,3/4-z,y
146 1/2-y,1/4+z,3/4+x
147 1/4-y,1/2+x,1/4-z
148 1/2-x,1/4+y,3/4+z
149 1/4+x,1/4+y,-z
150 y,1/2+x,z
151 1/2+z,1/2+y,1/2+x
152 1/2-z,1/4+x,3/4+y
153 x,1/2+z,y
154 1/4+y,-z,1/4+x
155 1/4+z,1/4+x,-y
156 1/4+y,1/4+z,-x
157 1/2+x,1/4-z,1/4-y
158 1/4-z,1/2+y,1/4-x
159 1/4+x,-y,1/4+z
160 1/2+y,1/4-x,1/4-z
161 -y,-z,-x
162 -z,-x,-y
163 x,z,1/2+y
164 1/4+y,1/2-z,3/4+x
165 1/4+z,3/4+x,1/2-y
166 1/4+y,3/4+z,1/2-x
167 1/2+x,3/4-z,3/4-y
168 1/4-z,y,3/4-x
169 1/4+x,1/2-y,3/4+z
170 1/2+y,3/4-x,3/4-z
171 -y,1/2-z,1/2-x
172 -z,1/2-x,1/2-y
173 1/2+x,1/2+z,1/2+y
174 3/4+y,-z,3/4+x
175 3/4+z,1/4+x,1/2-y
176 3/4+y,1/4+z,1/2-x
177 x,1/4-z,3/4-y
178 3/4-z,1/2+y,3/4-x
179 3/4+x,-y,3/4+z
180 y,1/4-x,3/4-z
181 1/2-y,-z,1/2-x
182 1/2-z,-x,1/2-y
183 1/2+x,z,y
184 3/4+y,1/2-z,1/4+x
185 3/4+z,3/4+x,-y
186 3/4+y,3/4+z,-x
187 x,3/4-z,1/4-y
188 3/4-z,y,1/4-x
189 3/4+x,1/2-y,1/4+z
190 y,3/4-x,1/4-z
191 1/2-y,1/2-z,-x
192 1/2-z,1/2-x,-y
_cell_length_a                   63.724(7)
_cell_length_b                   63.724(7)
_cell_length_c                   63.724(7)
_cell_angle_alpha                90
_cell_angle_beta                 90
_cell_angle_gamma                90
_cell_volume                     258767
loop_
_atom_site_label
_atom_site_type_symbol
_atom_site_fract_x
_atom_site_fract_y
_atom_site_fract_z
_atom_site_U_iso_or_equiv
_atom_site_thermal_displace_type
Co1 Co 0.370919(12) 1.0000 0.120919(12) 0.0279 Uani
Co2 Co 0.3750 0.8750 0.247768(14) 0.0335 Uani
S1 S 0.32744(3) 0.95616(3) 0.16365(3) 0.0708 Uani
S2 S 0.29936(4) 0.86906(8) 0.25415(4) 0.1386 Uani
N1 N 0.35581(7) 0.97582(6) 0.13693(7) 0.0337 Uani
N2 N 0.34248(8) 0.87261(7) 0.24895(7) 0.0407 Uani
N3 N 0.48516(7) 0.88395(6) 0.15974(7) 0.0373 Uani
N4 N 0.40107(7) 0.98399(7) 0.12391(7) 0.0403 Uani
N5 N 0.43919(7) 0.92959(7) 0.15989(7) 0.0390 Uani
N6 N 0.40420(7) 0.93836(7) 0.16926(7) 0.0390 Uani
N7 N 0.42257(7) 0.91194(8) 0.18807(7) 0.0423 Uani
N8 N 0.37099(7) 0.89869(8) 0.22381(7) 0.0440 Uani
N9 N 0.37510(8) 0.84894(8) 0.26961(7) 0.0447 Uani
N10 N 0.42187(8) 0.84393(8) 0.31371(8) 0.0557 Uani
C1 C 0.34422(8) 0.96714(8) 0.14797(9) 0.0383 Uani
C2 C 0.32463(12) 0.87120(12) 0.25110(9) 0.0583 Uani
C3 C 0.48888(10) 0.87342(10) 0.17760(11) 0.0573 Uani
H1 H 0.4998 0.8633 0.1777 0.0690 Uiso
C4 C 0.47763(11) 0.87654(12) 0.19586(13) 0.0743 Uani
H2 H 0.4814 0.8693 0.2083 0.0890 Uiso
C5 C 0.46088(10) 0.89020(10) 0.19583(12) 0.0617 Uani
H3 H 0.4524 0.8920 0.2079 0.0740 Uiso
C6 C 0.45683(9) 0.90120(8) 0.17750(9) 0.0420 Uani
C7 C 0.46957(8) 0.89790(7) 0.16023(8) 0.0353 Uani
H4 H 0.4671 0.9061 0.1480 0.0430 Uiso
C8 C 0.41685(11) 0.98583(11) 0.11019(12) 0.0683 Uani
H5 H 0.4157 0.9961 0.0994 0.0820 Uiso
C9 C 0.43485(12) 0.97360(13) 0.11085(13) 0.0820 Uani
H6 H 0.4456 0.9755 0.1007 0.0980 Uiso
C10 C 0.43692(11) 0.95877(12) 0.12624(11) 0.0663 Uani
H7 H 0.4490 0.9500 0.1269 0.0800 Uiso
C11 C 0.42084(9) 0.95684(9) 0.14104(9) 0.0420 Uani
C12 C 0.40339(8) 0.96959(8) 0.13913(8) 0.0350 Uani
H8 H 0.3924 0.9681 0.1491 0.0420 Uiso
C13 C 0.42172(8) 0.94082(8) 0.15778(8) 0.0370 Uani
C14 C 0.43865(8) 0.91525(9) 0.17523(8) 0.0377 Uani
C15 C 0.40556(8) 0.92374(9) 0.18426(8) 0.0393 Uani
C16 C 0.38710(8) 0.90339(9) 0.21148(8) 0.0400 Uani
H9 H 0.3995 0.8951 0.2126 0.0480 Uiso
C17 C 0.38688(9) 0.91970(10) 0.19699(9) 0.0453 Uani
C18 C 0.36869(11) 0.93150(12) 0.19504(12) 0.0690 Uani
H10 H 0.3678 0.9427 0.1852 0.0830 Uiso
C19 C 0.35183(12) 0.92655(14) 0.20774(13) 0.0840 Uani
H11 H 0.3391 0.9342 0.2066 0.1010 Uiso
C20 C 0.35372(10) 0.91040(12) 0.22207(11) 0.0667 Uani
H12 H 0.3422 0.9075 0.2311 0.0800 Uiso
C21 C 0.36170(12) 0.83277(11) 0.26698(11) 0.0670 Uani
H13 H 0.3513 0.8339 0.2564 0.0810 Uiso
C22 C 0.36236(15) 0.81485(12) 0.27886(14) 0.0850 Uani
H14 H 0.3527 0.8038 0.2763 0.1020 Uiso
C23 C 0.37719(13) 0.81310(12) 0.29455(13) 0.0807 Uani
H15 H 0.3780 0.8009 0.3030 0.0970 Uiso
C24 C 0.39103(11) 0.82984(10) 0.29766(10) 0.0567 Uani
C25 C 0.38959(9) 0.84717(9) 0.28474(8) 0.0447 Uani
H16 H 0.3993 0.8583 0.2866 0.0530 Uiso
C26 C 0.40736(10) 0.82889(10) 0.31395(10) 0.0530 Uani
Co1PE Co 0.2500 0.870919(12) 0.129081(12) 0.0279 Uani
Co1XC Co 0.379081(12) 1.129081(12) 0.0000 0.0279 Uani
Co1CF Co 0.5000 0.879081(12) 0.129081(12) 0.0279 Uani
Co1TC Co 0.379081(12) 1.120919(12) 0.2500 0.0279 Uani
Co1SA Co 0.379081(12) 0.7500 0.120919(12) 0.0279 Uani
Co1M Co 0.120919(12) 0.879081(12) 0.2500 0.0279 Uani
Co2PE Co 0.3750 0.8750 0.002232(14) 0.0335 Uani
Co2GE Co 0.252232(14) 1.1250 0.1250 0.0335 Uani
Co2IC Co 0.3750 0.747768(14) 0.3750 0.0335 Uani
Co2UA Co 0.502232(14) 0.8750 0.3750 0.0335 Uani
Co2FA Co 0.497768(14) 1.1250 0.1250 0.0335 Uani
Co2IA Co 0.3750 1.002232(14) 0.3750 0.0335 Uani
Co2M Co 0.247768(14) 0.8750 0.3750 0.0335 Uani
Co2DA Co 0.1250 0.752232(14) 0.1250 0.0335 Uani
S1MC S 0.41365(3) 1.04384(3) 0.07744(3) 0.0708 Uani
S1PE S 0.29384(3) 0.82744(3) 0.08635(3) 0.0708 Uani
S1IF S 0.20616(3) 0.91365(3) 0.17256(3) 0.0708 Uani
S1IG S 0.33635(3) 1.17256(3) 0.04384(3) 0.0708 Uani
S1XC S 0.42256(3) 1.08635(3) -0.04384(3) 0.0708 Uani
S2ZA S 0.45064(4) 0.88094(8) 0.25415(4) 0.1386 Uani
S2PE S 0.38094(8) 0.79936(4) -0.00415(4) 0.1386 Uani
S2CF S 0.36906(8) 0.95064(4) -0.00415(4) 0.1386 Uani
S2IG S 0.24585(4) 1.20064(4) 0.13094(8) 0.1386 Uani
S2GE S 0.24585(4) 1.04936(4) 0.11906(8) 0.1386 Uani
N1MC N 0.38693(7) 1.02418(6) 0.10581(7) 0.0337 Uani
N1PE N 0.27418(6) 0.85581(7) 0.11307(7) 0.0337 Uani
N1IF N 0.22582(6) 0.88693(7) 0.14419(7) 0.0337 Uani
N1IG N 0.36307(7) 1.14419(7) 0.02418(6) 0.0337 Uani
N1XC N 0.39419(7) 1.11307(7) -0.02418(6) 0.0337 Uani
N2ZA N 0.40752(8) 0.87739(7) 0.24895(7) 0.0407 Uani
N2PE N 0.37739(7) 0.84248(8) 0.00105(7) 0.0407 Uani
N2CF N 0.37261(7) 0.90752(8) 0.00105(7) 0.0407 Uani
N2IG N 0.25105(7) 1.15752(8) 0.12739(7) 0.0407 Uani
N2GE N 0.25105(7) 1.09248(8) 0.12261(7) 0.0407 Uani
N3PE N 0.36605(6) 0.98516(7) 0.09026(7) 0.0373 Uani
N3IG N 0.34026(7) 1.01484(7) 0.11605(6) 0.0373 Uani
N3MC N 0.40974(7) 1.11605(6) 0.23516(7) 0.0373 Uani
N3ZA N 0.26484(7) 0.86605(6) 0.15974(7) 0.0373 Uani
N3DA N 0.23516(7) 0.84026(7) 0.13395(6) 0.0373 Uani
N3FA N 0.40974(7) 1.13395(6) 0.01484(7) 0.0373 Uani
N3FC N 0.38395(6) 1.15974(7) -0.01484(7) 0.0373 Uani
N4PE N 0.26601(7) 0.90107(7) 0.12609(7) 0.0403 Uani
N4IG N 0.37609(7) 1.09893(7) 0.01601(7) 0.0403 Uani
N4MC N 0.37391(7) 1.01601(7) 0.15107(7) 0.0403 Uani
N4ZA N 0.34893(7) 0.76601(7) 0.12391(7) 0.0403 Uani
N4DA N 0.15107(7) 0.87609(7) 0.23399(7) 0.0403 Uani
N4IF N 0.23399(7) 0.87391(7) 0.09893(7) 0.0403 Uani
N4XC N 0.34893(7) 1.12609(7) -0.01601(7) 0.0403 Uani
N5PE N 0.32041(7) 0.93919(7) 0.09011(7) 0.0390 Uani
N5IG N 0.34011(7) 1.06081(7) 0.07041(7) 0.0390 Uani
N5MC N 0.40989(7) 1.07041(7) 0.18919(7) 0.0390 Uani
N5ZA N 0.31081(7) 0.82041(7) 0.15989(7) 0.0390 Uani
N5DA N 0.18919(7) 0.84011(7) 0.17959(7) 0.0390 Uani
N6PE N 0.31164(7) 0.90420(7) 0.08074(7) 0.0390 Uani
N6IG N 0.33074(7) 1.09580(7) 0.06164(7) 0.0390 Uani
N6MC N 0.41926(7) 1.06164(7) 0.15420(7) 0.0390 Uani
N6ZA N 0.34580(7) 0.81164(7) 0.16926(7) 0.0390 Uani
N6DA N 0.15420(7) 0.83074(7) 0.18836(7) 0.0390 Uani
N7PE N 0.33806(8) 0.92257(7) 0.06193(7) 0.0423 Uani
N7IG N 0.31193(7) 1.07743(7) 0.08806(8) 0.0423 Uani
N7MC N 0.43807(7) 1.08806(8) 0.17257(7) 0.0423 Uani
N7ZA N 0.32743(7) 0.83806(8) 0.18807(7) 0.0423 Uani
N7DA N 0.17257(7) 0.81193(7) 0.16194(8) 0.0423 Uani
N8PE N 0.35131(8) 0.87099(7) 0.02619(7) 0.0440 Uani
N8IG N 0.27619(7) 1.12901(7) 0.10131(8) 0.0440 Uani
N8MC N 0.47381(7) 1.10131(8) 0.12099(7) 0.0440 Uani
N8ZA N 0.37901(7) 0.85131(8) 0.22381(7) 0.0440 Uani
N8DA N 0.12099(7) 0.77619(7) 0.14869(8) 0.0440 Uani
N8CF N 0.39869(8) 0.87901(7) 0.02619(7) 0.0440 Uani
N8GE N 0.27619(7) 1.12099(7) 0.14869(8) 0.0440 Uani
N9IC N 0.40106(8) 0.76961(7) 0.37490(8) 0.0447 Uani
N9PB N 0.48039(7) 0.87490(8) 0.34894(8) 0.0447 Uani
N9ZA N 0.37490(8) 0.90106(8) 0.26961(7) 0.0447 Uani
N9IA N 0.34894(8) 0.98039(7) 0.37490(8) 0.0447 Uani
N9WB N 0.26961(7) 0.87510(8) 0.34894(8) 0.0447 Uani
N9PE N 0.40106(8) 0.87510(8) -0.01961(7) 0.0447 Uani
N9CF N 0.34894(8) 0.87490(8) -0.01961(7) 0.0447 Uani
N9IG N 0.23039(7) 1.12490(8) 0.15106(8) 0.0447 Uani
N9GE N 0.23039(7) 1.12510(8) 0.09894(8) 0.0447 Uani
N10PB N 0.43629(8) 0.82813(8) 0.34393(8) 0.0557 Uani
N10IC N 0.40607(8) 0.81371(8) 0.32813(8) 0.0557 Uani
N10ZA N 0.32813(8) 0.90607(8) 0.31371(8) 0.0557 Uani
N10WB N 0.31371(8) 0.92187(8) 0.34393(8) 0.0557 Uani
N10IA N 0.34393(8) 0.93629(8) 0.32813(8) 0.0557 Uani
C1MC C 0.39797(9) 1.03286(8) 0.09422(8) 0.0383 Uani
C1PE C 0.28286(8) 0.84422(8) 0.10203(9) 0.0383 Uani
C1IF C 0.21714(8) 0.89797(9) 0.15578(8) 0.0383 Uani
C1IG C 0.35203(9) 1.15578(8) 0.03286(8) 0.0383 Uani
C1XC C 0.40578(8) 1.10203(9) -0.03286(8) 0.0383 Uani
C2ZA C 0.42537(12) 0.87880(12) 0.25110(9) 0.0583 Uani
C2PE C 0.37880(12) 0.82463(12) -0.00110(9) 0.0583 Uani
C2CF C 0.37120(12) 0.92537(12) -0.00110(9) 0.0583 Uani
C2IG C 0.24890(9) 1.17537(12) 0.12880(12) 0.0583 Uani
C2GE C 0.24890(9) 1.07463(12) 0.12120(12) 0.0583 Uani
C3PE C 0.37658(10) 0.98888(10) 0.07240(11) 0.0573 Uani
C3IG C 0.32240(11) 1.01112(10) 0.12658(10) 0.0573 Uani
C3MC C 0.42760(11) 1.12658(10) 0.23888(10) 0.0573 Uani
C3ZA C 0.26112(10) 0.87658(10) 0.17760(11) 0.0573 Uani
C3DA C 0.23888(10) 0.82240(11) 0.12342(10) 0.0573 Uani
H1PE H 0.3867 0.9998 0.0723 0.0690 Uiso
H1IG H 0.3223 1.0002 0.1367 0.0690 Uiso
H1MC H 0.4277 1.1367 0.2498 0.0690 Uiso
H1ZA H 0.2502 0.8867 0.1777 0.0690 Uiso
H1DA H 0.2498 0.8223 0.1133 0.0690 Uiso
C4PE C 0.37346(12) 0.97763(11) 0.05414(13) 0.0743 Uani
C4IG C 0.30414(13) 1.02237(11) 0.12346(12) 0.0743 Uani
C4MC C 0.44586(13) 1.12346(12) 0.22763(11) 0.0743 Uani
C4ZA C 0.27237(11) 0.87346(12) 0.19586(13) 0.0743 Uani
C4DA C 0.22763(11) 0.80414(13) 0.12654(12) 0.0743 Uani
H2PE H 0.3807 0.9814 0.0417 0.0890 Uiso
H2IG H 0.2917 1.0186 0.1307 0.0890 Uiso
H2MC H 0.4583 1.1307 0.2314 0.0890 Uiso
H2ZA H 0.2686 0.8807 0.2083 0.0890 Uiso
H2DA H 0.2314 0.7917 0.1193 0.0890 Uiso
C5PE C 0.35980(10) 0.96088(10) 0.05417(12) 0.0617 Uani
C5IG C 0.30417(12) 1.03912(10) 0.10980(10) 0.0617 Uani
C5MC C 0.44583(12) 1.10980(10) 0.21088(10) 0.0617 Uani
C5ZA C 0.28912(10) 0.85980(10) 0.19583(12) 0.0617 Uani
C5DA C 0.21088(10) 0.80417(12) 0.14020(10) 0.0617 Uani
H3PE H 0.3580 0.9524 0.0421 0.0740 Uiso
H3IG H 0.2921 1.0476 0.1080 0.0740 Uiso
H3MC H 0.4579 1.1080 0.2024 0.0740 Uiso
H3ZA H 0.2976 0.8580 0.2079 0.0740 Uiso
H3DA H 0.2024 0.7921 0.1420 0.0740 Uiso
C6PE C 0.34880(8) 0.95683(9) 0.07250(9) 0.0420 Uani
C6IG C 0.32250(9) 1.04317(9) 0.09880(8) 0.0420 Uani
C6MC C 0.42750(9) 1.09880(8) 0.20683(9) 0.0420 Uani
C6ZA C 0.29317(9) 0.84880(8) 0.17750(9) 0.0420 Uani
C6DA C 0.20683(9) 0.82250(9) 0.15120(8) 0.0420 Uani
C7PE C 0.35210(7) 0.96957(8) 0.08977(8) 0.0353 Uani
C7IG C 0.33977(8) 1.03043(8) 0.10210(7) 0.0353 Uani
C7MC C 0.41023(8) 1.10210(7) 0.21957(8) 0.0353 Uani
C7ZA C 0.28043(8) 0.85210(7) 0.16023(8) 0.0353 Uani
C7DA C 0.21957(8) 0.83977(8) 0.14790(7) 0.0353 Uani
H4PE H 0.3439 0.9671 0.1020 0.0430 Uiso
H4IG H 0.3520 1.0329 0.0939 0.0430 Uiso
H4MC H 0.3980 1.0939 0.2171 0.0430 Uiso
H4ZA H 0.2829 0.8439 0.1480 0.0430 Uiso
H4DA H 0.2171 0.8520 0.1561 0.0430 Uiso
C8PE C 0.26417(11) 0.91685(11) 0.13981(12) 0.0683 Uani
C8IG C 0.38981(12) 1.08315(11) 0.01417(11) 0.0683 Uani
C8MC C 0.36019(12) 1.01417(11) 0.16685(11) 0.0683 Uani
C8ZA C 0.33315(11) 0.76417(11) 0.11019(12) 0.0683 Uani
C8DA C 0.16685(11) 0.88981(12) 0.23583(11) 0.0683 Uani
H5PE H 0.2539 0.9157 0.1506 0.0820 Uiso
H5IG H 0.4006 1.0843 0.0039 0.0820 Uiso
H5MC H 0.3494 1.0039 0.1657 0.0820 Uiso
H5ZA H 0.3343 0.7539 0.0994 0.0820 Uiso
H5DA H 0.1657 0.9006 0.2461 0.0820 Uiso
C9PE C 0.27640(13) 0.93485(12) 0.13915(13) 0.0820 Uani
C9IG C 0.38915(13) 1.06515(12) 0.02640(13) 0.0820 Uani
C9MC C 0.36085(13) 1.02640(13) 0.18485(12) 0.0820 Uani
C9ZA C 0.31515(12) 0.77640(13) 0.11085(13) 0.0820 Uani
C9DA C 0.18485(12) 0.88915(13) 0.22360(13) 0.0820 Uani
H6PE H 0.2745 0.9456 0.1493 0.0980 Uiso
H6IG H 0.3993 1.0544 0.0245 0.0980 Uiso
H6MC H 0.3507 1.0245 0.1956 0.0980 Uiso
H6ZA H 0.3044 0.7745 0.1007 0.0980 Uiso
H6DA H 0.1956 0.8993 0.2255 0.0980 Uiso
C10PE C 0.29123(12) 0.93692(11) 0.12376(11) 0.0663 Uani
C10IG C 0.37376(11) 1.06308(11) 0.04123(12) 0.0663 Uani
C10MC C 0.37624(11) 1.04123(12) 0.18692(11) 0.0663 Uani
C10ZA C 0.31308(11) 0.79123(12) 0.12624(11) 0.0663 Uani
C10DA C 0.18692(11) 0.87376(11) 0.20877(12) 0.0663 Uani
H7PE H 0.3000 0.9490 0.1231 0.0800 Uiso
H7IG H 0.3731 1.0510 0.0500 0.0800 Uiso
H7MC H 0.3769 1.0500 0.1990 0.0800 Uiso
H7ZA H 0.3010 0.8000 0.1269 0.0800 Uiso
H7DA H 0.1990 0.8731 0.2000 0.0800 Uiso
C11PE C 0.29316(9) 0.92084(9) 0.10896(9) 0.0420 Uani
C11IG C 0.35896(9) 1.07916(9) 0.04316(9) 0.0420 Uani
C11MC C 0.39104(9) 1.04316(9) 0.17084(9) 0.0420 Uani
C11ZA C 0.32916(9) 0.79316(9) 0.14104(9) 0.0420 Uani
C11DA C 0.17084(9) 0.85896(9) 0.20684(9) 0.0420 Uani
C12PE C 0.28041(8) 0.90339(8) 0.11087(8) 0.0350 Uani
C12IG C 0.36087(8) 1.09661(8) 0.03041(8) 0.0350 Uani
C12MC C 0.38913(8) 1.03041(8) 0.15339(8) 0.0350 Uani
C12ZA C 0.34661(8) 0.78041(8) 0.13913(8) 0.0350 Uani
C12DA C 0.15339(8) 0.86087(8) 0.21959(8) 0.0350 Uani
H8PE H 0.2819 0.8924 0.1009 0.0420 Uiso
H8IG H 0.3509 1.1076 0.0319 0.0420 Uiso
H8MC H 0.3991 1.0319 0.1424 0.0420 Uiso
H8ZA H 0.3576 0.7819 0.1491 0.0420 Uiso
H8DA H 0.1424 0.8509 0.2181 0.0420 Uiso
C13PE C 0.30918(8) 0.92172(8) 0.09222(8) 0.0370 Uani
C13IG C 0.34222(8) 1.07828(8) 0.05918(8) 0.0370 Uani
C13MC C 0.40778(8) 1.05918(8) 0.17172(8) 0.0370 Uani
C13ZA C 0.32828(8) 0.80918(8) 0.15778(8) 0.0370 Uani
C13DA C 0.17172(8) 0.84222(8) 0.19082(8) 0.0370 Uani
C14PE C 0.33475(9) 0.93865(8) 0.07477(8) 0.0377 Uani
C14IG C 0.32477(8) 1.06135(8) 0.08475(9) 0.0377 Uani
C14MC C 0.42523(8) 1.08475(9) 0.18865(8) 0.0377 Uani
C14ZA C 0.31135(8) 0.83475(9) 0.17523(8) 0.0377 Uani
C14DA C 0.18865(8) 0.82477(8) 0.16525(9) 0.0377 Uani
C15PE C 0.32626(9) 0.90556(8) 0.06574(8) 0.0393 Uani
C15IG C 0.31574(8) 1.09444(8) 0.07626(9) 0.0393 Uani
C15MC C 0.43426(8) 1.07626(9) 0.15556(8) 0.0393 Uani
C15ZA C 0.34444(8) 0.82626(9) 0.18426(8) 0.0393 Uani
C15DA C 0.15556(8) 0.81574(8) 0.17374(9) 0.0393 Uani
C16PE C 0.34661(9) 0.88710(8) 0.03852(8) 0.0400 Uani
C16IG C 0.28852(8) 1.11290(8) 0.09661(9) 0.0400 Uani
C16MC C 0.46148(8) 1.09661(9) 0.13710(8) 0.0400 Uani
C16ZA C 0.36290(8) 0.84661(9) 0.21148(8) 0.0400 Uani
C16DA C 0.13710(8) 0.78852(8) 0.15339(9) 0.0400 Uani
H9PE H 0.3549 0.8995 0.0374 0.0480 Uiso
H9IG H 0.2874 1.1005 0.1049 0.0480 Uiso
H9MC H 0.4626 1.1049 0.1495 0.0480 Uiso
H9ZA H 0.3505 0.8549 0.2126 0.0480 Uiso
H9DA H 0.1495 0.7874 0.1451 0.0480 Uiso
C17PE C 0.33030(10) 0.88688(9) 0.05301(9) 0.0453 Uani
C17IG C 0.30301(9) 1.11312(9) 0.08030(10) 0.0453 Uani
C17MC C 0.44699(9) 1.08030(10) 0.13688(9) 0.0453 Uani
C17ZA C 0.36312(9) 0.83030(10) 0.19699(9) 0.0453 Uani
C17DA C 0.13688(9) 0.80301(9) 0.16970(10) 0.0453 Uani
C18PE C 0.31850(12) 0.86869(11) 0.05496(12) 0.0690 Uani
C18IG C 0.30496(12) 1.13131(11) 0.06850(12) 0.0690 Uani
C18MC C 0.44504(12) 1.06850(12) 0.11869(11) 0.0690 Uani
C18ZA C 0.38131(11) 0.81850(12) 0.19504(12) 0.0690 Uani
C18DA C 0.11869(11) 0.80496(12) 0.18150(12) 0.0690 Uani
H10PE H 0.3073 0.8678 0.0648 0.0830 Uiso
H10IG H 0.3148 1.1322 0.0573 0.0830 Uiso
H10MC H 0.4352 1.0573 0.1178 0.0830 Uiso
H10ZA H 0.3822 0.8073 0.1852 0.0830 Uiso
H10DA H 0.1178 0.8148 0.1927 0.0830 Uiso
C19PE C 0.32345(14) 0.85183(12) 0.04226(13) 0.0840 Uani
C19IG C 0.29226(13) 1.14817(12) 0.07345(14) 0.0840 Uani
C19MC C 0.45774(13) 1.07345(14) 0.10183(12) 0.0840 Uani
C19ZA C 0.39817(12) 0.82345(14) 0.20774(13) 0.0840 Uani
C19DA C 0.10183(12) 0.79226(13) 0.17655(14) 0.0840 Uani
H11PE H 0.3158 0.8391 0.0434 0.1010 Uiso
H11IG H 0.2934 1.1609 0.0658 0.1010 Uiso
H11MC H 0.4566 1.0658 0.0891 0.1010 Uiso
H11ZA H 0.4109 0.8158 0.2066 0.1010 Uiso
H11DA H 0.0891 0.7934 0.1842 0.1010 Uiso
C20PE C 0.33960(12) 0.85372(10) 0.02793(11) 0.0667 Uani
C20IG C 0.27793(11) 1.14628(10) 0.08960(12) 0.0667 Uani
C20MC C 0.47207(11) 1.08960(12) 0.10372(10) 0.0667 Uani
C20ZA C 0.39628(10) 0.83960(12) 0.22207(11) 0.0667 Uani
C20DA C 0.10372(10) 0.77793(11) 0.16040(12) 0.0667 Uani
H12PE H 0.3425 0.8422 0.0189 0.0800 Uiso
H12IG H 0.2689 1.1578 0.0925 0.0800 Uiso
H12MC H 0.4811 1.0925 0.0922 0.0800 Uiso
H12ZA H 0.4078 0.8425 0.2311 0.0800 Uiso
H12DA H 0.0922 0.7689 0.1575 0.0800 Uiso
C21IC C 0.41723(11) 0.76698(11) 0.38830(12) 0.0670 Uani
C21PB C 0.48302(11) 0.88830(12) 0.33277(11) 0.0670 Uani
C21ZA C 0.38830(12) 0.91723(11) 0.26698(11) 0.0670 Uani
C21IA C 0.33277(11) 0.98302(11) 0.38830(12) 0.0670 Uani
C21WB C 0.26698(11) 0.86170(12) 0.33277(11) 0.0670 Uani
H13IC H 0.4161 0.7564 0.3987 0.0810 Uiso
H13PB H 0.4936 0.8987 0.3339 0.0810 Uiso
H13ZA H 0.3987 0.9161 0.2564 0.0810 Uiso
H13IA H 0.3339 0.9936 0.3987 0.0810 Uiso
H13WB H 0.2564 0.8513 0.3339 0.0810 Uiso
C22IC C 0.43515(12) 0.77886(14) 0.38764(15) 0.0850 Uani
C22PB C 0.47114(14) 0.88764(15) 0.31485(12) 0.0850 Uani
C22ZA C 0.38764(15) 0.93515(12) 0.27886(14) 0.0850 Uani
C22IA C 0.31485(12) 0.97114(14) 0.38764(15) 0.0850 Uani
C22WB C 0.27886(14) 0.86236(15) 0.31485(12) 0.0850 Uani
H14IC H 0.4462 0.7763 0.3973 0.1020 Uiso
H14PB H 0.4737 0.8973 0.3038 0.1020 Uiso
H14ZA H 0.3973 0.9462 0.2763 0.1020 Uiso
H14IA H 0.3038 0.9737 0.3973 0.1020 Uiso
H14WB H 0.2763 0.8527 0.3038 0.1020 Uiso
C23IC C 0.43690(12) 0.79455(13) 0.37281(13) 0.0807 Uani
C23PB C 0.45545(13) 0.87281(13) 0.31310(12) 0.0807 Uani
C23ZA C 0.37281(13) 0.93690(12) 0.29455(13) 0.0807 Uani
C23IA C 0.31310(12) 0.95545(13) 0.37281(13) 0.0807 Uani
C23WB C 0.29455(13) 0.87719(13) 0.31310(12) 0.0807 Uani
H15IC H 0.4491 0.8030 0.3720 0.0970 Uiso
H15PB H 0.4470 0.8720 0.3009 0.0970 Uiso
H15ZA H 0.3720 0.9491 0.3030 0.0970 Uiso
H15IA H 0.3009 0.9470 0.3720 0.0970 Uiso
H15WB H 0.3030 0.8780 0.3009 0.0970 Uiso
C24IC C 0.42016(10) 0.79766(10) 0.35897(11) 0.0567 Uani
C24PB C 0.45234(10) 0.85897(11) 0.32984(10) 0.0567 Uani
C24ZA C 0.35897(11) 0.92016(10) 0.29766(10) 0.0567 Uani
C24IA C 0.32984(10) 0.95234(10) 0.35897(11) 0.0567 Uani
C24WB C 0.29766(10) 0.89103(11) 0.32984(10) 0.0567 Uani
C25IC C 0.40283(9) 0.78474(8) 0.36041(9) 0.0447 Uani
C25PB C 0.46526(8) 0.86041(9) 0.34717(9) 0.0447 Uani
C25ZA C 0.36041(9) 0.90283(9) 0.28474(8) 0.0447 Uani
C25IA C 0.34717(9) 0.96526(8) 0.36041(9) 0.0447 Uani
C25WB C 0.28474(8) 0.88959(9) 0.34717(9) 0.0447 Uani
H16IC H 0.3917 0.7866 0.3507 0.0530 Uiso
H16PB H 0.4634 0.8507 0.3583 0.0530 Uiso
H16ZA H 0.3507 0.8917 0.2866 0.0530 Uiso
H16IA H 0.3583 0.9634 0.3507 0.0530 Uiso
H16WB H 0.2866 0.8993 0.3583 0.0530 Uiso
C26PB C 0.43605(10) 0.84264(10) 0.32889(10) 0.0530 Uani
C26IC C 0.42111(10) 0.81395(10) 0.34264(10) 0.0530 Uani
C26ZA C 0.34264(10) 0.92111(10) 0.31395(10) 0.0530 Uani
C26WB C 0.31395(10) 0.90736(10) 0.32889(10) 0.0530 Uani
C26IA C 0.32889(10) 0.93605(10) 0.34264(10) 0.0530 Uani
O1 O 0.40140(17) 0.87042(16) 0.16035(15) 0.1500 Uani
C27 C 0.4204(2) 0.8580(2) 0.1567(2) 0.1410 Uani
H17 H 0.4239 0.8463 0.1651 0.1690 Uiso
C28 C 0.43239(18) 0.86438(18) 0.1407(2) 0.1193 Uani
H18 H 0.4448 0.8580 0.1354 0.1430 Uiso
C29 C 0.42253(15) 0.88229(17) 0.13393(18) 0.1007 Uani
H19 H 0.4278 0.8912 0.1232 0.1210 Uiso
C30 C 0.40444(14) 0.88565(13) 0.14448(14) 0.0767 Uani
H20 H 0.3950 0.8968 0.1416 0.0920 Uiso
loop_
_atom_site_aniso_label
_atom_site_aniso_U_11
_atom_site_aniso_U_22
_atom_site_aniso_U_33
_atom_site_aniso_U_23
_atom_site_aniso_U_13
_atom_site_aniso_U_12
Co1 0.0327(4) 0.0183(5) 0.0327(4) 0.0024(2) 0.0064(4) -0.0024(2)
Co2 0.0423(6) 0.0390(6) 0.0191(5) 0.000 0.000 -0.0001(4)
S1 0.0494(10) 0.0903(14) 0.0727(12) 0.0434(10) 0.0081(8) -0.0185(9)
S2 0.0525(13) 0.311(5) 0.0523(12) -0.0510(19) 0.0111(10) -0.0371(19)
N1 0.038(2) 0.026(2) 0.037(2) 0.0049(17) 0.0042(19) -0.0025(17)
N2 0.044(3) 0.050(3) 0.028(2) -0.0056(19) 0.0025(19) -0.003(2)
N3 0.029 0.045 0.038 0.012 0.0028 0.0093
N4 0.039(2) 0.036(2) 0.046(3) 0.0136(19) 0.0132(19) 0.0058(19)
N5 0.036(2) 0.042(2) 0.039(2) 0.0083(19) 0.0074(18) 0.0087(19)
N6 0.039(2) 0.043(2) 0.035(2) 0.0121(19) 0.0117(19) 0.0125(19)
N7 0.039(2) 0.054(3) 0.034(2) 0.013(2) 0.0105(19) 0.016(2)
N8 0.041(2) 0.060(3) 0.031(2) 0.012(2) 0.0144(19) 0.015(2)
N9 0.053(3) 0.049(3) 0.032(2) 0.007(2) -0.021(2) -0.017(2)
N10 0.058(3) 0.059(3) 0.050(3) 0.026(2) -0.025(2) -0.028(3)
C1 0.034(3) 0.036(3) 0.045(3) 0.009(2) 0.001(2) -0.002(2)
C2 0.061(5) 0.091(5) 0.023(3) -0.015(3) 0.003(3) -0.014(4)
C3 0.047 0.076 0.049 0.024 0.012 0.029
C4 0.063 0.11 0.05 0.041 0.018 0.046
C5 0.056 0.084 0.045 0.026 0.02 0.034
C6 0.033 0.052 0.041 0.011 0.005 0.011
C7 0.028 0.041 0.037 0.012 0.005 0.006
C8 0.060(4) 0.064(4) 0.081(5) 0.043(4) 0.032(4) 0.020(3)
C9 0.064(4) 0.092(6) 0.090(5) 0.057(5) 0.049(4) 0.033(4)
C10 0.055(4) 0.066(4) 0.078(5) 0.038(4) 0.035(3) 0.030(3)
C11 0.041(3) 0.042(3) 0.043(3) 0.010(2) 0.010(2) 0.010(2)
C12 0.030(2) 0.034(3) 0.041(3) 0.005(2) 0.008(2) 0.003(2)
C13 0.039(3) 0.037(3) 0.035(3) 0.005(2) 0.007(2) 0.012(2)
C14 0.033(3) 0.048(3) 0.032(3) 0.008(2) 0.005(2) 0.008(2)
C15 0.039(3) 0.048(3) 0.031(3) 0.010(2) 0.009(2) 0.018(2)
C16 0.036(3) 0.055(3) 0.029(3) 0.006(2) 0.008(2) 0.015(2)
C17 0.041(3) 0.057(3) 0.038(3) 0.016(2) 0.013(2) 0.018(3)
C18 0.053(4) 0.086(5) 0.068(4) 0.046(4) 0.029(3) 0.036(4)
C19 0.056(4) 0.108(6) 0.088(5) 0.057(5) 0.037(4) 0.043(4)
C20 0.050(4) 0.088(5) 0.062(4) 0.039(4) 0.032(3) 0.030(3)
C21 0.087(5) 0.056(4) 0.058(4) 0.017(3) -0.045(4) -0.035(4)
C22 0.107(6) 0.060(4) 0.088(6) 0.025(4) -0.059(5) -0.049(4)
C23 0.094(6) 0.064(4) 0.084(5) 0.038(4) -0.055(4) -0.043(4)
C24 0.064(4) 0.055(4) 0.051(4) 0.018(3) -0.032(3) -0.027(3)
C25 0.055(3) 0.042(3) 0.037(3) 0.007(2) -0.012(2) -0.021(3)
C26 0.059(4) 0.048(3) 0.052(3) 0.019(3) -0.030(3) -0.024(3)
Co1PE 0.0183 0.0327 0.0327 -0.0064 0.0024 0.0024
Co1XC 0.0327 0.0327 0.0183 -0.0024 0.0024 0.0064
Co1CF 0.0183 0.0327 0.0327 0.0064 -0.0024 0.0024
Co1TC 0.0327 0.0327 0.0183 -0.0024 -0.0024 -0.0064
Co1SA 0.0327 0.0183 0.0327 -0.0024 -0.0064 -0.0024
Co1M 0.0327 0.0327 0.0183 -0.0024 -0.0024 -0.0064
Co2PE 0.039 0.0423 0.0191 0 0 0.0001
Co2GE 0.0191 0.0423 0.039 -0.0001 0 0
Co2IC 0.039 0.0191 0.0423 0 -0.0001 0
Co2UA 0.0191 0.0423 0.039 0.0001 0 0
Co2FA 0.0191 0.039 0.0423 0.0001 0 0
Co2IA 0.039 0.0191 0.0423 0 0.0001 0
Co2M 0.0191 0.0423 0.039 -0.0001 0 0
Co2DA 0.0423 0.0191 0.039 0 -0.0001 0
S1MC 0.0727 0.0903 0.0494 0.0185 0.0081 -0.0434
S1PE 0.0903 0.0494 0.0727 -0.0081 0.0434 0.0185
S1IF 0.0903 0.0727 0.0494 -0.0081 0.0185 0.0434
S1IG 0.0727 0.0494 0.0903 -0.0185 0.0434 0.0081
S1XC 0.0494 0.0727 0.0903 -0.0434 0.0185 0.0081
S2ZA 0.0525 0.311 0.0523 0.051 -0.0111 -0.0371
S2PE 0.311 0.0525 0.0523 -0.0111 -0.051 0.0371
S2CF 0.311 0.0525 0.0523 0.0111 0.051 0.0371
S2IG 0.0523 0.0525 0.311 -0.0371 -0.051 0.0111
S2GE 0.0523 0.0525 0.311 -0.0371 0.051 -0.0111
N1MC 0.037 0.026 0.038 0.0025 0.0042 -0.0049
N1PE 0.026 0.038 0.037 -0.0042 0.0049 0.0025
N1IF 0.026 0.037 0.038 -0.0042 0.0025 0.0049
N1IG 0.037 0.038 0.026 -0.0025 0.0049 0.0042
N1XC 0.038 0.037 0.026 -0.0049 0.0025 0.0042
N2ZA 0.044 0.05 0.028 0.0056 -0.0025 -0.003
N2PE 0.05 0.044 0.028 -0.0025 -0.0056 0.003
N2CF 0.05 0.044 0.028 0.0025 0.0056 0.003
N2IG 0.028 0.044 0.05 -0.003 -0.0056 0.0025
N2GE 0.028 0.044 0.05 -0.003 0.0056 -0.0025
N3PE 0.045 0.029 0.038 -0.0028 0.012 -0.0093
N3IG 0.038 0.029 0.045 0.0093 0.012 0.0028
N3MC 0.038 0.045 0.029 -0.0093 0.0028 -0.012
N3ZA 0.029 0.045 0.038 -0.012 -0.0028 0.0093
N3DA 0.029 0.038 0.045 -0.012 0.0093 -0.0028
N3FA 0.038 0.045 0.029 -0.0093 -0.0028 0.012
N3FC 0.045 0.038 0.029 0.0028 0.0093 0.012
N4PE 0.036 0.039 0.046 -0.0132 0.0136 -0.0058
N4IG 0.046 0.039 0.036 0.0058 0.0136 0.0132
N4MC 0.046 0.036 0.039 -0.0058 0.0132 -0.0136
N4ZA 0.039 0.036 0.046 -0.0136 -0.0132 0.0058
N4DA 0.039 0.046 0.036 -0.0136 0.0058 -0.0132
N4IF 0.036 0.046 0.039 -0.0132 -0.0058 0.0136
N4XC 0.039 0.046 0.036 -0.0136 -0.0058 0.0132
N5PE 0.042 0.036 0.039 -0.0074 0.0083 -0.0087
N5IG 0.039 0.036 0.042 0.0087 0.0083 0.0074
N5MC 0.039 0.042 0.036 -0.0087 0.0074 -0.0083
N5ZA 0.036 0.042 0.039 -0.0083 -0.0074 0.0087
N5DA 0.036 0.039 0.042 -0.0083 0.0087 -0.0074
N6PE 0.043 0.039 0.035 -0.0117 0.0121 -0.0125
N6IG 0.035 0.039 0.043 0.0125 0.0121 0.0117
N6MC 0.035 0.043 0.039 -0.0125 0.0117 -0.0121
N6ZA 0.039 0.043 0.035 -0.0121 -0.0117 0.0125
N6DA 0.039 0.035 0.043 -0.0121 0.0125 -0.0117
N7PE 0.054 0.039 0.034 -0.0105 0.013 -0.016
N7IG 0.034 0.039 0.054 0.016 0.013 0.0105
N7MC 0.034 0.054 0.039 -0.016 0.0105 -0.013
N7ZA 0.039 0.054 0.034 -0.013 -0.0105 0.016
N7DA 0.039 0.034 0.054 -0.013 0.016 -0.0105
N8PE 0.06 0.041 0.031 -0.0144 0.012 -0.015
N8IG 0.031 0.041 0.06 0.015 0.012 0.0144
N8MC 0.031 0.06 0.041 -0.015 0.0144 -0.012
N8ZA 0.041 0.06 0.031 -0.012 -0.0144 0.015
N8DA 0.041 0.031 0.06 -0.012 0.015 -0.0144
N8CF 0.06 0.041 0.031 0.0144 -0.012 -0.015
N8GE 0.031 0.041 0.06 0.015 -0.012 -0.0144
N9IC 0.049 0.032 0.053 0.021 -0.017 -0.007
N9PB 0.032 0.053 0.049 0.017 -0.007 -0.021
N9ZA 0.053 0.049 0.032 -0.007 0.021 -0.017
N9IA 0.049 0.032 0.053 -0.021 0.017 -0.007
N9WB 0.032 0.053 0.049 -0.017 0.007 -0.021
N9PE 0.049 0.053 0.032 0.021 0.007 0.017
N9CF 0.049 0.053 0.032 -0.021 -0.007 0.017
N9IG 0.032 0.053 0.049 -0.017 0.007 -0.021
N9GE 0.032 0.053 0.049 -0.017 -0.007 0.021
N10PB 0.05 0.058 0.059 0.028 -0.026 -0.025
N10IC 0.059 0.05 0.058 0.025 -0.028 -0.026
N10ZA 0.058 0.059 0.05 -0.026 0.025 -0.028
N10WB 0.05 0.058 0.059 -0.028 0.026 -0.025
N10IA 0.059 0.05 0.058 -0.025 0.028 -0.026
C1MC 0.045 0.036 0.034 0.002 0.001 -0.009
C1PE 0.036 0.034 0.045 -0.001 0.009 0.002
C1IF 0.036 0.045 0.034 -0.001 0.002 0.009
C1IG 0.045 0.034 0.036 -0.002 0.009 0.001
C1XC 0.034 0.045 0.036 -0.009 0.002 0.001
C2ZA 0.061 0.091 0.023 0.015 -0.003 -0.014
C2PE 0.091 0.061 0.023 -0.003 -0.015 0.014
C2CF 0.091 0.061 0.023 0.003 0.015 0.014
C2IG 0.023 0.061 0.091 -0.014 -0.015 0.003
C2GE 0.023 0.061 0.091 -0.014 0.015 -0.003
C3PE 0.076 0.047 0.049 -0.012 0.024 -0.029
C3IG 0.049 0.047 0.076 0.029 0.024 0.012
C3MC 0.049 0.076 0.047 -0.029 0.012 -0.024
C3ZA 0.047 0.076 0.049 -0.024 -0.012 0.029
C3DA 0.047 0.049 0.076 -0.024 0.029 -0.012
C4PE 0.11 0.063 0.05 -0.018 0.041 -0.046
C4IG 0.05 0.063 0.11 0.046 0.041 0.018
C4MC 0.05 0.11 0.063 -0.046 0.018 -0.041
C4ZA 0.063 0.11 0.05 -0.041 -0.018 0.046
C4DA 0.063 0.05 0.11 -0.041 0.046 -0.018
C5PE 0.084 0.056 0.045 -0.02 0.026 -0.034
C5IG 0.045 0.056 0.084 0.034 0.026 0.02
C5MC 0.045 0.084 0.056 -0.034 0.02 -0.026
C5ZA 0.056 0.084 0.045 -0.026 -0.02 0.034
C5DA 0.056 0.045 0.084 -0.026 0.034 -0.02
C6PE 0.052 0.033 0.041 -0.005 0.011 -0.011
C6IG 0.041 0.033 0.052 0.011 0.011 0.005
C6MC 0.041 0.052 0.033 -0.011 0.005 -0.011
C6ZA 0.033 0.052 0.041 -0.011 -0.005 0.011
C6DA 0.033 0.041 0.052 -0.011 0.011 -0.005
C7PE 0.041 0.028 0.037 -0.005 0.012 -0.006
C7IG 0.037 0.028 0.041 0.006 0.012 0.005
C7MC 0.037 0.041 0.028 -0.006 0.005 -0.012
C7ZA 0.028 0.041 0.037 -0.012 -0.005 0.006
C7DA 0.028 0.037 0.041 -0.012 0.006 -0.005
C8PE 0.064 0.06 0.081 -0.032 0.043 -0.02
C8IG 0.081 0.06 0.064 0.02 0.043 0.032
C8MC 0.081 0.064 0.06 -0.02 0.032 -0.043
C8ZA 0.06 0.064 0.081 -0.043 -0.032 0.02
C8DA 0.06 0.081 0.064 -0.043 0.02 -0.032
C9PE 0.092 0.064 0.09 -0.049 0.057 -0.033
C9IG 0.09 0.064 0.092 0.033 0.057 0.049
C9MC 0.09 0.092 0.064 -0.033 0.049 -0.057
C9ZA 0.064 0.092 0.09 -0.057 -0.049 0.033
C9DA 0.064 0.09 0.092 -0.057 0.033 -0.049
C10PE 0.066 0.055 0.078 -0.035 0.038 -0.03
C10IG 0.078 0.055 0.066 0.03 0.038 0.035
C10MC 0.078 0.066 0.055 -0.03 0.035 -0.038
C10ZA 0.055 0.066 0.078 -0.038 -0.035 0.03
C10DA 0.055 0.078 0.066 -0.038 0.03 -0.035
C11PE 0.042 0.041 0.043 -0.01 0.01 -0.01
C11IG 0.043 0.041 0.042 0.01 0.01 0.01
C11MC 0.043 0.042 0.041 -0.01 0.01 -0.01
C11ZA 0.041 0.042 0.043 -0.01 -0.01 0.01
C11DA 0.041 0.043 0.042 -0.01 0.01 -0.01
C12PE 0.034 0.03 0.041 -0.008 0.005 -0.003
C12IG 0.041 0.03 0.034 0.003 0.005 0.008
C12MC 0.041 0.034 0.03 -0.003 0.008 -0.005
C12ZA 0.03 0.034 0.041 -0.005 -0.008 0.003
C12DA 0.03 0.041 0.034 -0.005 0.003 -0.008
C13PE 0.037 0.039 0.035 -0.007 0.005 -0.012
C13IG 0.035 0.039 0.037 0.012 0.005 0.007
C13MC 0.035 0.037 0.039 -0.012 0.007 -0.005
C13ZA 0.039 0.037 0.035 -0.005 -0.007 0.012
C13DA 0.039 0.035 0.037 -0.005 0.012 -0.007
C14PE 0.048 0.033 0.032 -0.005 0.008 -0.008
C14IG 0.032 0.033 0.048 0.008 0.008 0.005
C14MC 0.032 0.048 0.033 -0.008 0.005 -0.008
C14ZA 0.033 0.048 0.032 -0.008 -0.005 0.008
C14DA 0.033 0.032 0.048 -0.008 0.008 -0.005
C15PE 0.048 0.039 0.031 -0.009 0.01 -0.018
C15IG 0.031 0.039 0.048 0.018 0.01 0.009
C15MC 0.031 0.048 0.039 -0.018 0.009 -0.01
C15ZA 0.039 0.048 0.031 -0.01 -0.009 0.018
C15DA 0.039 0.031 0.048 -0.01 0.018 -0.009
C16PE 0.055 0.036 0.029 -0.008 0.006 -0.015
C16IG 0.029 0.036 0.055 0.015 0.006 0.008
C16MC 0.029 0.055 0.036 -0.015 0.008 -0.006
C16ZA 0.036 0.055 0.029 -0.006 -0.008 0.015
C16DA 0.036 0.029 0.055 -0.006 0.015 -0.008
C17PE 0.057 0.041 0.038 -0.013 0.016 -0.018
C17IG 0.038 0.041 0.057 0.018 0.016 0.013
C17MC 0.038 0.057 0.041 -0.018 0.013 -0.016
C17ZA 0.041 0.057 0.038 -0.016 -0.013 0.018
C17DA 0.041 0.038 0.057 -0.016 0.018 -0.013
C18PE 0.086 0.053 0.068 -0.029 0.046 -0.036
C18IG 0.068 0.053 0.086 0.036 0.046 0.029
C18MC 0.068 0.086 0.053 -0.036 0.029 -0.046
C18ZA 0.053 0.086 0.068 -0.046 -0.029 0.036
C18DA 0.053 0.068 0.086 -0.046 0.036 -0.029
C19PE 0.108 0.056 0.088 -0.037 0.057 -0.043
C19IG 0.088 0.056 0.108 0.043 0.057 0.037
C19MC 0.088 0.108 0.056 -0.043 0.037 -0.057
C19ZA 0.056 0.108 0.088 -0.057 -0.037 0.043
C19DA 0.056 0.088 0.108 -0.057 0.043 -0.037
C20PE 0.088 0.05 0.062 -0.032 0.039 -0.03
C20IG 0.062 0.05 0.088 0.03 0.039 0.032
C20MC 0.062 0.088 0.05 -0.03 0.032 -0.039
C20ZA 0.05 0.088 0.062 -0.039 -0.032 0.03
C20DA 0.05 0.062 0.088 -0.039 0.03 -0.032
C21IC 0.056 0.058 0.087 0.045 -0.035 -0.017
C21PB 0.058 0.087 0.056 0.035 -0.017 -0.045
C21ZA 0.087 0.056 0.058 -0.017 0.045 -0.035
C21IA 0.056 0.058 0.087 -0.045 0.035 -0.017
C21WB 0.058 0.087 0.056 -0.035 0.017 -0.045
C22IC 0.06 0.088 0.107 0.059 -0.049 -0.025
C22PB 0.088 0.107 0.06 0.049 -0.025 -0.059
C22ZA 0.107 0.06 0.088 -0.025 0.059 -0.049
C22IA 0.06 0.088 0.107 -0.059 0.049 -0.025
C22WB 0.088 0.107 0.06 -0.049 0.025 -0.059
C23IC 0.064 0.084 0.094 0.055 -0.043 -0.038
C23PB 0.084 0.094 0.064 0.043 -0.038 -0.055
C23ZA 0.094 0.064 0.084 -0.038 0.055 -0.043
C23IA 0.064 0.084 0.094 -0.055 0.043 -0.038
C23WB 0.084 0.094 0.064 -0.043 0.038 -0.055
C24IC 0.055 0.051 0.064 0.032 -0.027 -0.018
C24PB 0.051 0.064 0.055 0.027 -0.018 -0.032
C24ZA 0.064 0.055 0.051 -0.018 0.032 -0.027
C24IA 0.055 0.051 0.064 -0.032 0.027 -0.018
C24WB 0.051 0.064 0.055 -0.027 0.018 -0.032
C25IC 0.042 0.037 0.055 0.012 -0.021 -0.007
C25PB 0.037 0.055 0.042 0.021 -0.007 -0.012
C25ZA 0.055 0.042 0.037 -0.007 0.012 -0.021
C25IA 0.042 0.037 0.055 -0.012 0.021 -0.007
C25WB 0.037 0.055 0.042 -0.021 0.007 -0.012
C26PB 0.052 0.059 0.048 0.024 -0.019 -0.03
C26IC 0.048 0.052 0.059 0.03 -0.024 -0.019
C26ZA 0.059 0.048 0.052 -0.019 0.03 -0.024
C26WB 0.052 0.059 0.048 -0.024 0.019 -0.03
C26IA 0.048 0.052 0.059 -0.03 0.024 -0.019
O1 0.164(7) 0.154(6) 0.132(6) -0.008(5) -0.002(5) -0.063(6)
C27 0.155(8) 0.109(7) 0.159(8) 0.008(7) -0.045(7) 0.007(7)
C28 0.088(6) 0.104(6) 0.166(8) -0.026(6) -0.023(6) 0.023(5)
C29 0.080(5) 0.104(6) 0.118(6) -0.016(5) -0.003(5) -0.035(5)
C30 0.079(5) 0.059(4) 0.092(5) -0.006(4) -0.020(4) 0.002(4)
loop_
_geom_bond_atom_site_label_1
_geom_bond_atom_site_label_2
_geom_bond_site_symmetry_1
_geom_bond_site_symmetry_2
Co1 N1 1_555 1_555
Co2 N2 1_555 1_555
S1 C1 1_555 1_555
S2 C2 1_555 1_555
N1 C1 1_555 1_555
N2 C2 1_555 1_555
N3 C3 1_555 1_555
N4 Co1 1_555 1_555
N5 C13 1_555 1_555
N6 C13 1_555 1_555
N7 C14 1_555 1_555
N8 Co2 1_555 1_555
N9 Co2 1_555 1_555
N10 C26 1_555 1_555
C3 H1 1_555 1_555
C4 C3 1_555 1_555
H2 C4 1_555 1_555
C5 C4 1_555 1_555
H3 C5 1_555 1_555
C6 C5 1_555 1_555
C7 N3 1_555 1_555
H4 C7 1_555 1_555
C8 N4 1_555 1_555
H5 C8 1_555 1_555
C9 C8 1_555 1_555
H6 C9 1_555 1_555
C10 C9 1_555 1_555
H7 C10 1_555 1_555
C11 C10 1_555 1_555
C12 N4 1_555 1_555
H8 C12 1_555 1_555
C13 C11 1_555 1_555
C14 N5 1_555 1_555
C15 N6 1_555 1_555
C16 N8 1_555 1_555
H9 C16 1_555 1_555
C17 C15 1_555 1_555
C18 C17 1_555 1_555
H10 C18 1_555 1_555
C19 C18 1_555 1_555
H11 C19 1_555 1_555
C20 N8 1_555 1_555
H12 C20 1_555 1_555
C21 N9 1_555 1_555
H13 C21 1_555 1_555
C22 C21 1_555 1_555
H14 C22 1_555 1_555
C23 C22 1_555 1_555
H15 C23 1_555 1_555
C24 C23 1_555 1_555
C25 N9 1_555 1_555
H16 C25 1_555 1_555
C26 C24 1_555 1_555
O1 C27 1_555 1_555
C27 H17 1_555 1_555
C28 C27 1_555 1_555
H18 C28 1_555 1_555
C29 C28 1_555 1_555
H19 C29 1_555 1_555
C30 O1 1_555 1_555
H20 C30 1_555 1_555
Co1PE N1PE 1_555 1_555
Co1XC N1IG 1_555 1_555
Co1CF N3 1_555 1_555
Co1TC N3MC 1_555 1_555
Co1SA N4ZA 1_555 1_555
Co1M N4DA 1_555 1_555
Co2PE N2PE 1_555 1_555
Co2GE N2IG 1_555 1_555
Co2IC N9IC 1_555 1_555
Co2UA N9PB 1_555 1_555
Co2FA N8MC 1_555 1_555
Co2IA N9IA 1_555 1_555
Co2M N9WB 1_555 1_555
Co2DA N8DA 1_555 1_555
S1MC C1MC 1_555 1_555
S1PE C1PE 1_555 1_555
S1IF C1IF 1_555 1_555
S1IG C1IG 1_555 1_555
S1XC C1XC 1_555 1_555
S2ZA C2ZA 1_555 1_555
S2PE C2PE 1_555 1_555
S2CF C2CF 1_555 1_555
S2IG C2IG 1_555 1_555
S2GE C2GE 1_555 1_555
N1MC Co1 1_555 1_555
N1PE C1PE 1_555 1_555
N1IF Co1PE 1_555 1_555
N1IG C1IG 1_555 1_555
N1XC Co1XC 1_555 1_555
N2ZA Co2 1_555 1_555
N2PE C2PE 1_555 1_555
N2CF Co2PE 1_555 1_555
N2IG C2IG 1_555 1_555
N2GE Co2GE 1_555 1_555
N3PE Co1 1_555 1_555
N3IG Co1 1_555 1_555
N3MC C3MC 1_555 1_555
N3ZA Co1PE 1_555 1_555
N3DA Co1PE 1_555 1_555
N3FA Co1XC 1_555 1_555
N3FC Co1XC 1_555 1_555
N4PE Co1PE 1_555 1_555
N4IG Co1XC 1_555 1_555
N4MC Co1 1_555 1_555
N4ZA C8ZA 1_555 1_555
N4DA C8DA 1_555 1_555
N4IF Co1PE 1_555 1_555
N4XC Co1XC 1_555 1_555
N5PE C13PE 1_555 1_555
N5IG C13IG 1_555 1_555
N5MC C13MC 1_555 1_555
N5ZA C13ZA 1_555 1_555
N5DA C13DA 1_555 1_555
N6PE C13PE 1_555 1_555
N6IG C13IG 1_555 1_555
N6MC C13MC 1_555 1_555
N6ZA C13ZA 1_555 1_555
N6DA C13DA 1_555 1_555
N7PE C14PE 1_555 1_555
N7IG C14IG 1_555 1_555
N7MC C14MC 1_555 1_555
N7ZA C14ZA 1_555 1_555
N7DA C14DA 1_555 1_555
N8PE Co2PE 1_555 1_555
N8IG Co2GE 1_555 1_555
N8MC C16MC 1_555 1_555
N8ZA Co2 1_555 1_555
N8DA C16DA 1_555 1_555
N8CF Co2PE 1_555 1_555
N8GE Co2GE 1_555 1_555
N9IC C21IC 1_555 1_555
N9PB C21PB 1_555 1_555
N9ZA Co2 1_555 1_555
N9IA C21IA 1_555 1_555
N9WB C21WB 1_555 1_555
N9PE Co2PE 1_555 1_555
N9CF Co2PE 1_555 1_555
N9IG Co2GE 1_555 1_555
N9GE Co2GE 1_555 1_555
N10PB C26PB 1_555 1_555
N10IC C26 1_555 1_555
N10ZA C26ZA 1_555 1_555
N10WB C26WB 1_555 1_555
N10IA C26ZA 1_555 1_555
C1MC N1MC 1_555 1_555
C1IF N1IF 1_555 1_555
C1XC N1XC 1_555 1_555
C2ZA N2ZA 1_555 1_555
C2CF N2CF 1_555 1_555
C2GE N2GE 1_555 1_555
C3PE N3PE 1_555 1_555
C3IG N3IG 1_555 1_555
C3MC H1MC 1_555 1_555
C3ZA N3ZA 1_555 1_555
C3DA N3DA 1_555 1_555
H1PE C3PE 1_555 1_555
H1IG C3IG 1_555 1_555
H1ZA C3ZA 1_555 1_555
H1DA C3DA 1_555 1_555
C4PE C3PE 1_555 1_555
C4IG C3IG 1_555 1_555
C4MC C3MC 1_555 1_555
C4ZA C3ZA 1_555 1_555
C4DA C3DA 1_555 1_555
H2PE C4PE 1_555 1_555
H2IG C4IG 1_555 1_555
H2MC C4MC 1_555 1_555
H2ZA C4ZA 1_555 1_555
H2DA C4DA 1_555 1_555
C5PE C4PE 1_555 1_555
C5IG C4IG 1_555 1_555
C5MC C4MC 1_555 1_555
C5ZA C4ZA 1_555 1_555
C5DA C4DA 1_555 1_555
H3PE C5PE 1_555 1_555
H3IG C5IG 1_555 1_555
H3MC C5MC 1_555 1_555
H3ZA C5ZA 1_555 1_555
H3DA C5DA 1_555 1_555
C6PE C5PE 1_555 1_555
C6IG C5IG 1_555 1_555
C6MC C5MC 1_555 1_555
C6ZA C5ZA 1_555 1_555
C6DA C5DA 1_555 1_555
C7PE N3PE 1_555 1_555
C7IG N3IG 1_555 1_555
C7MC N3MC 1_555 1_555
C7ZA N3ZA 1_555 1_555
C7DA N3DA 1_555 1_555
H4PE C7PE 1_555 1_555
H4IG C7IG 1_555 1_555
H4MC C7MC 1_555 1_555
H4ZA C7ZA 1_555 1_555
H4DA C7DA 1_555 1_555
C8PE N4PE 1_555 1_555
C8IG N4IG 1_555 1_555
C8MC N4MC 1_555 1_555
C8ZA H5ZA 1_555 1_555
C8DA H5DA 1_555 1_555
H5PE C8PE 1_555 1_555
H5IG C8IG 1_555 1_555
H5MC C8MC 1_555 1_555
C9PE C8PE 1_555 1_555
C9IG C8IG 1_555 1_555
C9MC C8MC 1_555 1_555
C9ZA C8ZA 1_555 1_555
C9DA C8DA 1_555 1_555
H6PE C9PE 1_555 1_555
H6IG C9IG 1_555 1_555
H6MC C9MC 1_555 1_555
H6ZA C9ZA 1_555 1_555
H6DA C9DA 1_555 1_555
C10PE C9PE 1_555 1_555
C10IG C9IG 1_555 1_555
C10MC C9MC 1_555 1_555
C10ZA C9ZA 1_555 1_555
C10DA C9DA 1_555 1_555
H7PE C10PE 1_555 1_555
H7IG C10IG 1_555 1_555
H7MC C10MC 1_555 1_555
H7ZA C10ZA 1_555 1_555
H7DA C10DA 1_555 1_555
C11PE C10PE 1_555 1_555
C11IG C10IG 1_555 1_555
C11MC C10MC 1_555 1_555
C11ZA C10ZA 1_555 1_555
C11DA C10DA 1_555 1_555
C12PE N4PE 1_555 1_555
C12IG N4IG 1_555 1_555
C12MC N4MC 1_555 1_555
C12ZA N4ZA 1_555 1_555
C12DA N4DA 1_555 1_555
H8PE C12PE 1_555 1_555
H8IG C12IG 1_555 1_555
H8MC C12MC 1_555 1_555
H8ZA C12ZA 1_555 1_555
H8DA C12DA 1_555 1_555
C13PE C11PE 1_555 1_555
C13IG C11IG 1_555 1_555
C13MC C11MC 1_555 1_555
C13ZA C11ZA 1_555 1_555
C13DA C11DA 1_555 1_555
C14PE N5PE 1_555 1_555
C14IG N5IG 1_555 1_555
C14MC N5MC 1_555 1_555
C14ZA N5ZA 1_555 1_555
C14DA N5DA 1_555 1_555
C15PE N6PE 1_555 1_555
C15IG N6IG 1_555 1_555
C15MC N6MC 1_555 1_555
C15ZA N6ZA 1_555 1_555
C15DA N6DA 1_555 1_555
C16PE N8PE 1_555 1_555
C16IG N8IG 1_555 1_555
C16MC H9MC 1_555 1_555
C16ZA N8ZA 1_555 1_555
C16DA H9DA 1_555 1_555
H9PE C16PE 1_555 1_555
H9IG C16IG 1_555 1_555
H9ZA C16ZA 1_555 1_555
C17PE C15PE 1_555 1_555
C17IG C15IG 1_555 1_555
C17MC C15MC 1_555 1_555
C17ZA C15ZA 1_555 1_555
C17DA C15DA 1_555 1_555
C18PE C17PE 1_555 1_555
C18IG C17IG 1_555 1_555
C18MC C17MC 1_555 1_555
C18ZA C17ZA 1_555 1_555
C18DA C17DA 1_555 1_555
H10PE C18PE 1_555 1_555
H10IG C18IG 1_555 1_555
H10MC C18MC 1_555 1_555
H10ZA C18ZA 1_555 1_555
H10DA C18DA 1_555 1_555
C19PE C18PE 1_555 1_555
C19IG C18IG 1_555 1_555
C19MC C18MC 1_555 1_555
C19ZA C18ZA 1_555 1_555
C19DA C18DA 1_555 1_555
H11PE C19PE 1_555 1_555
H11IG C19IG 1_555 1_555
H11MC C19MC 1_555 1_555
H11ZA C19ZA 1_555 1_555
H11DA C19DA 1_555 1_555
C20PE N8PE 1_555 1_555
C20IG N8IG 1_555 1_555
C20MC N8MC 1_555 1_555
C20ZA N8ZA 1_555 1_555
C20DA N8DA 1_555 1_555
H12PE C20PE 1_555 1_555
H12IG C20IG 1_555 1_555
H12MC C20MC 1_555 1_555
H12ZA C20ZA 1_555 1_555
H12DA C20DA 1_555 1_555
C21IC H13IC 1_555 1_555
C21PB H13PB 1_555 1_555
C21ZA N9ZA 1_555 1_555
C21IA H13IA 1_555 1_555
C21WB H13WB 1_555 1_555
H13ZA C21ZA 1_555 1_555
C22IC C21IC 1_555 1_555
C22PB C21PB 1_555 1_555
C22ZA C21ZA 1_555 1_555
C22IA C21IA 1_555 1_555
C22WB C21WB 1_555 1_555
H14IC C22IC 1_555 1_555
H14PB C22PB 1_555 1_555
H14ZA C22ZA 1_555 1_555
H14IA C22IA 1_555 1_555
H14WB C22WB 1_555 1_555
C23IC C22IC 1_555 1_555
C23PB C22PB 1_555 1_555
C23ZA C22ZA 1_555 1_555
C23IA C22IA 1_555 1_555
C23WB C22WB 1_555 1_555
H15IC C23IC 1_555 1_555
H15PB C23PB 1_555 1_555
H15ZA C23ZA 1_555 1_555
H15IA C23IA 1_555 1_555
H15WB C23WB 1_555 1_555
C24IC C23IC 1_555 1_555
C24PB C23PB 1_555 1_555
C24ZA C23ZA 1_555 1_555
C24IA C23IA 1_555 1_555
C24WB C23WB 1_555 1_555
C25IC N9IC 1_555 1_555
C25PB N9PB 1_555 1_555
C25ZA N9ZA 1_555 1_555
C25IA N9IA 1_555 1_555
C25WB N9WB 1_555 1_555
H16IC C25IC 1_555 1_555
H16PB C25PB 1_555 1_555
H16ZA C25ZA 1_555 1_555
H16IA C25IA 1_555 1_555
H16WB C25WB 1_555 1_555
C26PB N10 1_555 1_555
C26IC N10PB 1_555 1_555
C26ZA C24ZA 1_555 1_555
C26WB N10ZA 1_555 1_555
C26IA N10WB 1_555 1_555
N7 C15 1_555 1_555
C6 C7 1_555 1_555
C6 C14 1_555 1_555
C11 C12 1_555 1_555
C16 C17 1_555 1_555
C19 C20 1_555 1_555
C24 C25 1_555 1_555
C29 C30 1_555 1_555
N7PE C15PE 1_555 1_555
N7IG C15IG 1_555 1_555
N7MC C15MC 1_555 1_555
N7ZA C15ZA 1_555 1_555
N7DA C15DA 1_555 1_555
N10IC C26IC 1_555 1_555
N10IA C26IA 1_555 1_555
C6PE C7PE 1_555 1_555
C6PE C14PE 1_555 1_555
C6IG C7IG 1_555 1_555
C6IG C14IG 1_555 1_555
C6MC C7MC 1_555 1_555
C6MC C14MC 1_555 1_555
C6ZA C7ZA 1_555 1_555
C6ZA C14ZA 1_555 1_555
C6DA C7DA 1_555 1_555
C6DA C14DA 1_555 1_555
C11PE C12PE 1_555 1_555
C11IG C12IG 1_555 1_555
C11MC C12MC 1_555 1_555
C11ZA C12ZA 1_555 1_555
C11DA C12DA 1_555 1_555
C16PE C17PE 1_555 1_555
C16IG C17IG 1_555 1_555
C16MC C17MC 1_555 1_555
C16ZA C17ZA 1_555 1_555
C16DA C17DA 1_555 1_555
C19PE C20PE 1_555 1_555
C19IG C20IG 1_555 1_555
C19MC C20MC 1_555 1_555
C19ZA C20ZA 1_555 1_555
C19DA C20DA 1_555 1_555
C24IC C25IC 1_555 1_555
C24IC C26IC 1_555 1_555
C24PB C25PB 1_555 1_555
C24PB C26PB 1_555 1_555
C24ZA C25ZA 1_555 1_555
C24IA C25IA 1_555 1_555
C24IA C26IA 1_555 1_555
C24WB C25WB 1_555 1_555
C24WB C26WB 1_555 1_555

#END
