
#######################################################################
#
#                 Cambridge Crystallographic Data Centre
#                                CCDC 
#
#######################################################################
#
# If this CIF has been generated from an entry in the Cambridge 
# Structural Database, then it will include bibliographic, chemical, 
# crystal, experimental, refinement or atomic coordinate data resulting 
# from the CCDC's data processing and validation procedures.
#
#######################################################################

data_HEYFUM
_chemical_formula_moiety         '(C2 H10 N1 O13 P3 Zn4)n'
_symmetry_cell_setting           monoclinic
_symmetry_space_group_name_H-M   'P 21/n'
_symmetry_Int_Tables_number      14
_space_group_name_Hall           '-P 2yn'
loop_
_symmetry_equiv_pos_site_id
_symmetry_equiv_pos_as_xyz
1 x,y,z
2 1/2-x,1/2+y,1/2-z
3 -x,-y,-z
4 1/2+x,1/2-y,1/2+z
_cell_length_a                   5.2515(9)
_cell_length_b                   15.1973(9)
_cell_length_c                   17.5701(8)
_cell_angle_alpha                90
_cell_angle_beta                 91.459(14)
_cell_angle_gamma                90
_cell_volume                     1401.79
loop_
_atom_site_label
_atom_site_type_symbol
_atom_site_fract_x
_atom_site_fract_y
_atom_site_fract_z
Zn1 Zn 0.1977(1) 0.4035(1) 0.4590(1)
Zn2 Zn 0.1065(1) 0.2558(1) 0.1864(1)
Zn3 Zn 0.2935(1) 0.1007(1) 0.4882(1)
Zn4 Zn -0.2099(1) 0.2318(1) 0.4488(1)
P1 P 0.2782(2) 0.2407(1) 0.3585(1)
P2 P 0.2820(2) 0.6138(1) 0.4418(1)
P3 P 0.2774(2) 0.4090(1) 0.0843(1)
O1 O 0.2340(7) 0.3383(2) 0.3649(2)
O2 O 0.1779(7) 0.5230(2) 0.4246(2)
O3 O 0.5659(6) 0.6183(3) 0.4577(2)
O4 O 0.1398(6) 0.6493(2) 0.5122(2)
O5 O 0.1689(6) 0.2041(2) 0.2839(2)
O6 O 0.2146(6) 0.3744(2) 0.1633(2)
O7 O 0.2115(6) 0.6721(2) 0.3737(2)
O8 O 0.1802(7) 0.5024(2) 0.0781(2)
O9 O 0.1346(6) 0.3534(2) 0.0221(2)
O10 O 0.5642(6) 0.4004(2) 0.0726(2)
O11 O 0.1355(6) 0.1947(2) 0.4254(2)
O12 O 0.5575(6) 0.2137(2) 0.3662(2)
O13 O -0.2631(8) 0.2616(3) 0.1635(3)
H1 H -0.391(11) 0.2257(44) 0.1389(41)
H2 H -0.309(17) 0.2655(62) 0.2160(16)
O3B O 0.4341(6) 0.3817(3) 0.5423(2)
O4B O -0.1398(6) 0.3507(2) 0.4878(2)
O7A O 0.2885(6) 0.1721(2) 0.1263(2)
O8A O 0.3198(7) 0.0024(2) 0.4219(2)
O9C O 0.6346(6) 0.1466(2) 0.5221(2)
O10C O 0.0642(6) 0.0996(2) 0.5726(2)
Zn1B Zn 0.8023(1) 0.5965(1) 0.5410(1)
Zn1B_2 Zn -0.1977(1) 0.5965(1) 0.5410(1)
Zn2A Zn 0.3935(1) 0.7558(1) 0.3136(1)
Zn3A Zn 0.2065(1) 0.6007(1) 0.0118(1)
Zn3C Zn -0.2065(1) 0.3993(1) -0.0118(1)
Zn4C Zn 0.2901(1) 0.2682(1) -0.0512(1)
Zn3C_2 Zn 0.7935(1) 0.3993(1) -0.0118(1)
Zn4B Zn 0.2099(1) 0.7682(1) 0.5512(1)
Zn4_2 Zn 0.7901(1) 0.2318(1) 0.4488(1)
O9C_2 O -0.3654(6) 0.1466(2) 0.5221(2)
O12_2 O -0.4425(6) 0.2137(2) 0.3662(2)
N1 N 0.4273(11) 0.0340(4) 0.2483(3)
C1 C 0.7110(13) 0.0270(5) 0.2559(5)
C2 C 0.7992(12) -0.0468(5) 0.2079(4)
H3 H 0.418(13) 0.0234(47) 0.1942(10)
H4 H 0.372(20) 0.0868(41) 0.2726(59)
H5 H 0.374(19) -0.0189(38) 0.2736(56)
H6 H 0.7889(13) 0.0815(5) 0.2398(5)
H7 H 0.7606(13) 0.0165(5) 0.3087(5)
H8 H 0.9616(46) -0.0672(22) 0.2270(17)
H9 H 0.8151(90) -0.0268(10) 0.1564(7)
H10 H 0.6779(49) -0.0940(14) 0.2093(23)
loop_
_geom_bond_atom_site_label_1
_geom_bond_atom_site_label_2
_geom_bond_site_symmetry_1
_geom_bond_site_symmetry_2
Zn1 O1 1_555 1_555
Zn2 O5 1_555 1_555
Zn3 O11 1_555 1_555
Zn4 O11 1_555 1_555
P1 O1 1_555 1_555
P2 O2 1_555 1_555
P3 O6 1_555 1_555
O2 Zn1 1_555 1_555
O3 P2 1_555 1_555
O4 P2 1_555 1_555
O5 P1 1_555 1_555
O6 Zn2 1_555 1_555
O7 P2 1_555 1_555
O8 P3 1_555 1_555
O9 P3 1_555 1_555
O10 P3 1_555 1_555
O11 P1 1_555 1_555
O12 P1 1_555 1_555
O13 Zn2 1_555 1_555
H1 O13 1_555 1_555
H2 O13 1_555 1_555
N1 C1 1_555 1_555
C1 C2 1_555 1_555
C2 H8 1_555 1_555
H3 N1 1_555 1_555
H4 N1 1_555 1_555
H5 N1 1_555 1_555
H6 C1 1_555 1_555
H7 C1 1_555 1_555
H9 C2 1_555 1_555
H10 C2 1_555 1_555
O3B Zn1 1_555 1_555
O4B Zn1 1_555 1_555
O7A Zn2 1_555 1_555
O8A Zn3 1_555 1_555
O9C Zn3 1_555 1_555
O10C Zn3 1_555 1_555
Zn1B O3 1_555 1_555
Zn1B_2 O4 1_555 1_555
Zn2A O7 1_555 1_555
Zn3A O8 1_555 1_555
Zn3C O9 1_555 1_555
Zn4C O9 1_555 1_555
Zn3C_2 O10 1_555 1_555
Zn4B O4 1_555 1_555
Zn4_2 O12 1_555 1_555
O9C_2 Zn4 1_555 1_555
O12_2 Zn4 1_555 1_555
Zn4 O4B 1_555 1_555
O9C Zn4_2 1_555 1_555

#END
