
#######################################################################
#
#                 Cambridge Crystallographic Data Centre
#                                CCDC 
#
#######################################################################
#
# If this CIF has been generated from an entry in the Cambridge 
# Structural Database, then it will include bibliographic, chemical, 
# crystal, experimental, refinement or atomic coordinate data resulting 
# from the CCDC's data processing and validation procedures.
#
#######################################################################

data_CUTBIE
_chemical_formula_moiety         '(C26 H29 La1 N6 O9)n'
_symmetry_cell_setting           monoclinic
_symmetry_space_group_name_H-M   'C 2/c'
_symmetry_Int_Tables_number      15
_space_group_name_Hall           '-C 2yc'
loop_
_symmetry_equiv_pos_site_id
_symmetry_equiv_pos_as_xyz
1 x,y,z
2 -x,y,1/2-z
3 1/2+x,1/2+y,z
4 1/2-x,1/2+y,1/2-z
5 -x,-y,-z
6 x,-y,1/2+z
7 1/2-x,1/2-y,-z
8 1/2+x,1/2-y,1/2+z
_cell_length_a                   32.118(3)
_cell_length_b                   15.2133(17)
_cell_length_c                   13.1789(14)
_cell_angle_alpha                90
_cell_angle_beta                 95.256(2)
_cell_angle_gamma                90
_cell_volume                     6412.41
loop_
_atom_site_label
_atom_site_type_symbol
_atom_site_fract_x
_atom_site_fract_y
_atom_site_fract_z
_atom_site_U_iso_or_equiv
_atom_site_thermal_displace_type
La1 La 0.811878(10) 0.79352(2) 0.52861(3) 0.0236 Uani
O1 O 0.86373(15) 0.6732(3) 0.4972(4) 0.0460 Uani
O2 O 0.88440(17) 0.8072(3) 0.4583(5) 0.0578 Uani
O3 O 1.23031(14) 0.3401(3) 0.4466(3) 0.0318 Uani
O4 O 1.28446(14) 0.4208(3) 0.4172(4) 0.0415 Uani
O5 O 1.20612(15) 0.7299(3) 0.1445(3) 0.0343 Uani
O6 O 1.26574(14) 0.6548(4) 0.1585(4) 0.0432 Uani
O7 O 0.8476(2) 0.9284(5) 0.6053(6) 0.0738 Uani
O8 O 0.8449(3) 0.7454(6) 0.7008(5) 0.0844 Uani
C1 C 0.92969(8) 0.6861(2) 0.4320(3) 0.0341 Uani
C2 C 0.93408(7) 0.5952(2) 0.4310(3) 0.0345 Uani
C3 C 0.97103(7) 0.55774(17) 0.4044(3) 0.0356 Uani
C4 C 1.00360(6) 0.61115(14) 0.37893(16) 0.0317 Uani
C5 C 0.99922(8) 0.70204(15) 0.3800(3) 0.0395 Uani
C6 C 0.96227(9) 0.73951(18) 0.4065(3) 0.0436 Uani
C7 C 1.04197(6) 0.57402(14) 0.35333(16) 0.0320 Uani
C8 C 1.08243(7) 0.60948(18) 0.3453(3) 0.0333 Uani
N1 N 1.10951(7) 0.5392(2) 0.3247(3) 0.0342 Uani
N2 N 1.08578(8) 0.46033(18) 0.3199(3) 0.0386 Uani
N3 N 1.04403(8) 0.48184(15) 0.3376(3) 0.0424 Uani
C9 C 1.15005(8) 0.5387(3) 0.3144(3) 0.0296 Uani
C10 C 1.17532(11) 0.4750(2) 0.3642(3) 0.0308 Uani
C11 C 1.21804(11) 0.4742(2) 0.3543(3) 0.0286 Uani
C12 C 1.23549(8) 0.5372(3) 0.2946(3) 0.0292 Uani
C13 C 1.21022(11) 0.6009(2) 0.2448(3) 0.0275 Uani
C14 C 1.16750(10) 0.6017(2) 0.2547(3) 0.0299 Uani
C15 C 0.8905(2) 0.7254(5) 0.4645(5) 0.0337 Uani
C16 C 1.2460(2) 0.4072(4) 0.4082(5) 0.0311 Uani
C17 C 1.2291(2) 0.6672(4) 0.1772(5) 0.0305 Uani
N4 N 0.8961(10) 0.9922(16) 0.7245(19) 0.1586 Uani
C18 C 0.8802(12) 0.963(3) 0.627(3) 0.1487 Uani
C19 C 0.8690(12) 0.999(3) 0.802(3) 0.1796 Uani
C20 C 0.9331(11) 1.045(3) 0.735(3) 0.1871 Uani
N5 N 0.8688(13) 0.672(2) 0.842(3) 0.1609 Uani
C21 C 0.8644(13) 0.721(2) 0.7560(18) 0.1500 Uani
C22 C 0.8489(19) 0.5984(18) 0.890(3) 0.1882 Uani
C23 C 0.9118(14) 0.677(3) 0.893(2) 0.1801 Uani
La1A La 1.188122(10) 0.79352(2) -0.02861(3) 0.0236 Uani
La1B La 1.311878(10) 0.29352(2) 0.52861(3) 0.0236 Uani
La1D La 1.188122(10) 0.20648(2) 0.47139(3) 0.0236 Uani
La1G La 1.311878(10) 0.70648(2) 0.02861(3) 0.0236 Uani
O3B O 0.73031(14) 0.8401(3) 0.4466(3) 0.0318 Uani
O3D O 0.76969(14) 0.6599(3) 0.5534(3) 0.0318 Uani
O4B O 0.78446(14) 0.9208(3) 0.4172(4) 0.0415 Uani
O5A O 0.79388(15) 0.7299(3) 0.3555(3) 0.0343 Uani
O6G O 0.76574(14) 0.8452(4) 0.6585(4) 0.0432 Uani
O9 O 0.1280(6) 0.2166(9) 0.8912(12) 0.0945 Uani
N8 N 0.1895(6) 0.1498(9) 0.9285(14) 0.0795 Uani
C30 C 0.1600(9) 0.1899(12) 0.8672(16) 0.0760 Uani
C31 C 0.1816(8) 0.1346(14) 1.0320(16) 0.0819 Uani
C32 C 0.2304(9) 0.1179(17) 0.891(2) 0.1112 Uani
loop_
_atom_site_aniso_label
_atom_site_aniso_U_11
_atom_site_aniso_U_22
_atom_site_aniso_U_33
_atom_site_aniso_U_23
_atom_site_aniso_U_13
_atom_site_aniso_U_12
La1 0.01800(18) 0.02264(18) 0.0305(2) -0.00158(14) 0.00423(12) 0.00226(13)
O1 0.033(3) 0.041(3) 0.068(4) 0.019(3) 0.026(3) 0.014(2)
O2 0.037(3) 0.037(3) 0.104(5) -0.003(3) 0.031(3) 0.002(2)
O3 0.032(2) 0.023(2) 0.041(3) 0.0099(18) 0.007(2) 0.0057(18)
O4 0.022(2) 0.032(3) 0.070(4) 0.014(2) 0.002(2) 0.0006(19)
O5 0.032(2) 0.036(3) 0.035(2) 0.0133(19) 0.003(2) -0.002(2)
O6 0.026(2) 0.054(3) 0.052(3) 0.026(3) 0.016(2) 0.006(2)
O7 0.058(4) 0.065(4) 0.099(5) -0.036(4) 0.011(4) -0.029(3)
O8 0.097(6) 0.110(6) 0.043(4) 0.003(4) -0.011(4) 0.046(5)
C1 0.025(3) 0.039(4) 0.039(4) -0.001(3) 0.007(3) 0.006(3)
C2 0.028(3) 0.043(4) 0.033(3) 0.003(3) 0.005(3) 0.007(3)
C3 0.023(3) 0.044(4) 0.041(4) 0.005(3) 0.010(3) 0.009(3)
C4 0.020(3) 0.045(4) 0.031(3) 0.005(3) 0.007(2) 0.007(3)
C5 0.025(3) 0.039(4) 0.056(5) 0.000(3) 0.012(3) 0.002(3)
C6 0.031(4) 0.042(4) 0.060(5) -0.003(4) 0.016(3) 0.003(3)
C7 0.031(3) 0.036(4) 0.030(3) 0.000(3) 0.008(3) 0.000(3)
C8 0.016(3) 0.047(4) 0.038(4) 0.003(3) 0.009(3) 0.008(3)
N1 0.030(3) 0.030(3) 0.044(3) 0.005(2) 0.011(3) 0.005(2)
N2 0.024(3) 0.035(3) 0.058(4) 0.005(3) 0.010(3) 0.000(2)
N3 0.032(3) 0.042(4) 0.055(4) 0.006(3) 0.013(3) 0.004(3)
C9 0.020(3) 0.030(3) 0.040(4) 0.004(3) 0.009(3) 0.002(2)
C10 0.026(3) 0.033(3) 0.034(3) 0.006(3) 0.006(3) 0.001(3)
C11 0.022(3) 0.027(3) 0.037(3) 0.009(3) 0.003(3) 0.004(2)
C12 0.026(3) 0.029(3) 0.033(3) 0.007(3) 0.005(3) 0.003(2)
C13 0.023(3) 0.028(3) 0.032(3) 0.006(2) 0.006(2) 0.001(2)
C14 0.025(3) 0.030(3) 0.036(3) 0.008(3) 0.010(3) 0.006(2)
C15 0.020(3) 0.040(4) 0.042(4) 0.002(3) 0.007(3) 0.007(3)
C16 0.026(3) 0.029(3) 0.039(4) 0.004(3) 0.007(3) 0.007(3)
C17 0.026(3) 0.032(3) 0.033(3) 0.008(3) 0.000(3) -0.003(3)
N4 0.134(15) 0.136(13) 0.202(18) -0.085(13) -0.005(12) -0.028(12)
C18 0.119(16) 0.129(14) 0.192(18) -0.076(14) -0.019(13) -0.034(14)
C19 0.17(2) 0.17(2) 0.20(2) -0.10(2) 0.023(17) 0.003(19)
C20 0.141(19) 0.17(2) 0.24(2) -0.074(19) -0.038(17) -0.051(17)
N5 0.29(2) 0.135(14) 0.053(9) -0.023(8) -0.010(13) 0.123(16)
C21 0.28(3) 0.119(13) 0.045(8) -0.026(8) -0.018(13) 0.140(16)
C22 0.31(3) 0.18(2) 0.074(19) 0.001(15) 0.015(19) 0.10(2)
C23 0.28(3) 0.20(2) 0.054(15) 0.011(16) -0.019(17) 0.12(2)
La1A 0.018 0.02264 0.0305 0.00158 0.00423 -0.00226
La1B 0.018 0.02264 0.0305 -0.00158 0.00423 0.00226
La1D 0.018 0.02264 0.0305 -0.00158 0.00423 0.00226
La1G 0.018 0.02264 0.0305 0.00158 0.00423 -0.00226
O3B 0.032 0.023 0.041 0.0099 0.007 0.0057
O3D 0.032 0.023 0.041 0.0099 0.007 0.0057
O4B 0.022 0.032 0.07 0.014 0.002 0.0006
O5A 0.032 0.036 0.035 -0.0133 0.003 0.002
O6G 0.026 0.054 0.052 -0.026 0.016 -0.006
O9 0.138(14) 0.066(9) 0.083(10) 0.026(7) 0.029(10) 0.065(9)
N8 0.123(13) 0.031(7) 0.088(10) 0.014(7) 0.029(10) 0.026(8)
C30 0.130(15) 0.038(9) 0.066(11) 0.019(8) 0.042(11) 0.017(9)
C31 0.124(18) 0.058(12) 0.063(12) 0.012(9) 0.004(12) 0.034(12)
C32 0.12(2) 0.074(15) 0.15(2) 0.011(15) 0.069(18) 0.031(15)
loop_
_geom_bond_atom_site_label_1
_geom_bond_atom_site_label_2
_geom_bond_site_symmetry_1
_geom_bond_site_symmetry_2
La1 O1 1_555 1_555
O1 C15 1_555 1_555
O2 La1 1_555 1_555
O3 C16 1_555 1_555
O4 C16 1_555 1_555
O5 C17 1_555 1_555
O6 C17 1_555 1_555
O7 La1 1_555 1_555
O8 La1 1_555 1_555
C1 C2 1_555 1_555
C2 C3 1_555 1_555
C3 C4 1_555 1_555
C4 C5 1_555 1_555
C5 C6 1_555 1_555
C6 C1 1_555 1_555
C7 C4 1_555 1_555
C8 C7 1_555 1_555
N1 C8 1_555 1_555
N2 N1 1_555 1_555
N3 C7 1_555 1_555
C9 N1 1_555 1_555
C10 C9 1_555 1_555
C11 C10 1_555 1_555
C12 C11 1_555 1_555
C13 C12 1_555 1_555
C14 C9 1_555 1_555
C15 O2 1_555 1_555
C16 C11 1_555 1_555
C17 C13 1_555 1_555
N4 C18 1_555 1_555
C18 O7 1_555 1_555
C19 N4 1_555 1_555
C20 N4 1_555 1_555
N5 C21 1_555 1_555
C21 O8 1_555 1_555
C22 N5 1_555 1_555
C23 N5 1_555 1_555
O9 C30 1_555 1_555
N8 C30 1_555 1_555
C31 N8 1_555 1_555
C32 N8 1_555 1_555
La1A O5 1_555 1_555
La1B O3 1_555 1_555
La1D O3 1_555 1_555
La1G O6 1_555 1_555
O3B La1 1_555 1_555
O3D La1 1_555 1_555
O4B La1 1_555 1_555
O5A La1 1_555 1_555
O6G La1 1_555 1_555
O4 La1B 1_555 1_555
C1 C15 1_555 1_555
N2 N3 1_555 1_555
C13 C14 1_555 1_555

#END
