
#######################################################################
#
#                 Cambridge Crystallographic Data Centre
#                                CCDC 
#
#######################################################################
#
# If this CIF has been generated from an entry in the Cambridge 
# Structural Database, then it will include bibliographic, chemical, 
# crystal, experimental, refinement or atomic coordinate data resulting 
# from the CCDC's data processing and validation procedures.
#
#######################################################################

data_KOHDIW
_chemical_formula_moiety         '(C32 H34 Co1 N2 O9 Si1)n'
_symmetry_cell_setting           orthorhombic
_symmetry_space_group_name_H-M   'P b c a'
_symmetry_Int_Tables_number      61
_space_group_name_Hall           '-P 2ac 2ab'
loop_
_symmetry_equiv_pos_site_id
_symmetry_equiv_pos_as_xyz
1 x,y,z
2 1/2-x,-y,1/2+z
3 -x,1/2+y,1/2-z
4 1/2+x,1/2-y,-z
5 -x,-y,-z
6 1/2+x,y,1/2-z
7 x,1/2-y,1/2+z
8 1/2-x,1/2+y,z
_cell_length_a                   22.7022(15)
_cell_length_b                   14.5656(9)
_cell_length_c                   28.2647(18)
_cell_angle_alpha                90
_cell_angle_beta                 90
_cell_angle_gamma                90
_cell_volume                     9346.32
loop_
_atom_site_label
_atom_site_type_symbol
_atom_site_fract_x
_atom_site_fract_y
_atom_site_fract_z
C1 C 0.7579(2) 0.9899(4) 0.05967(19)
C2 C 0.7103(2) 0.9822(3) 0.02201(17)
C3 C 0.6739(2) 0.9124(4) 0.02025(19)
H1 H 0.6774 0.8642 0.0417
C4 C 0.6294(2) 0.9111(4) -0.0145(2)
H2 H 0.6020 0.8638 -0.0126
C5 C 0.62290(19) 0.9691(3) -0.04867(15)
C6 C 0.6658(3) 1.0308(4) -0.0508(2)
H3 H 0.6672 1.0699 -0.0768
C7 C 0.7086(2) 1.0395(4) -0.0161(2)
H4 H 0.7367 1.0855 -0.0189
C8 C 0.4099(2) 0.6197(3) -0.06588(19)
C9 C 0.44749(18) 0.7021(3) -0.07324(15)
C10 C 0.4766(2) 0.7138(3) -0.11443(18)
H5 H 0.4731 0.6703 -0.1384
C11 C 0.5120(2) 0.7916(3) -0.12104(17)
H6 H 0.5312 0.7987 -0.1499
C12 C 0.51995(17) 0.8583(3) -0.08692(14)
C13 C 0.4876(2) 0.8423(3) -0.04596(17)
H7 H 0.4898 0.8856 -0.0218
C14 C 0.4526(2) 0.7662(3) -0.03904(17)
H8 H 0.4325 0.7589 -0.0106
C15 C 0.6832(2) 0.9248(4) -0.29237(18)
C16 C 0.6562(2) 0.9365(3) -0.24375(16)
C17 C 0.6762(2) 0.8910(5) -0.20513(18)
H9 H 0.7083 0.8521 -0.2085
C18 C 0.6513(2) 0.8997(4) -0.16171(18)
H10 H 0.6670 0.8666 -0.1366
C19 C 0.60397(18) 0.9553(3) -0.15367(14)
C20 C 0.5858(2) 1.0058(4) -0.19284(16)
H11 H 0.5545 1.0465 -0.1895
C21 C 0.6124(2) 0.9973(4) -0.23606(16)
H12 H 0.5999 1.0345 -0.2608
C22 C 0.3983(2) 1.2962(4) -0.10455(17)
C23 C 0.43943(18) 1.2172(3) -0.10120(15)
C24 C 0.4211(2) 1.1308(4) -0.1118(2)
H13 H 0.3823 1.1221 -0.1215
C25 C 0.4580(2) 1.0551(4) -0.1086(2)
H14 H 0.4429 0.9972 -0.1153
C26 C 0.51578(18) 1.0633(3) -0.09590(13)
C27 C 0.5331(2) 1.1498(3) -0.0862(2)
H15 H 0.5720 1.1590 -0.0769
C28 C 0.4955(2) 1.2276(4) -0.0893(2)
H16 H 0.5103 1.2859 -0.0829
Co1 Co 0.85120(2) 1.03902(4) 0.10788(2)
O1 O 0.75740(18) 0.9346(4) 0.09335(13)
O2 O 0.79484(15) 1.0513(2) 0.05454(14)
O3 O 0.3953(2) 0.5983(3) -0.02550(14)
O4 O 0.39452(16) 0.5781(2) -0.10242(13)
O5 O 0.72387(18) 0.8703(4) -0.29729(14)
O6 O 0.65913(17) 0.9693(2) -0.32464(11)
O7 O 0.34642(16) 1.2852(3) -0.11359(16)
O8 O 0.41892(16) 1.3731(2) -0.09545(13)
Si1 Si 0.56583(5) 0.96228(9) -0.09562(4)
Co1A Co 0.64880(2) 0.96098(4) -0.39212(2)
Co1C Co 0.35120(2) 0.46098(4) -0.10788(2)
Co1C_2 Co 0.35120(2) 1.46098(4) -0.10788(2)
O4C O 0.89452(16) 0.9219(2) 0.10242(13)
O6A O 0.84087(17) 1.0307(2) 0.17536(11)
O8C O 0.91892(16) 1.1269(2) 0.09545(13)
N1 N 0.2286(2) 1.2422(4) -0.13849(19)
H17 H 0.2494 1.1944 -0.1273
H18 H 0.2544 1.2807 -0.1524
C29 C 0.1875(4) 1.2063(6) -0.1765(3)
H19 H 0.2097 1.1725 -0.1996
H20 H 0.1680 1.2569 -0.1917
H21 H 0.1586 1.1667 -0.1624
C30 C 0.2049(4) 1.2856(6) -0.1019(3)
H22 H 0.2355 1.3041 -0.0804
H23 H 0.1781 1.2453 -0.0859
H24 H 0.1841 1.3389 -0.1128
N2 N 0.3868(4) 0.4533(5) 0.0341(3)
H25 H 0.3542 0.4515 0.0522
H26 H 0.3798 0.4888 0.0086
C31 C 0.4035(4) 0.3675(6) 0.0209(3)
H27 H 0.3721 0.3389 0.0035
H28 H 0.4121 0.3317 0.0486
H29 H 0.4379 0.3712 0.0013
C32 C 0.4405(5) 0.4892(7) 0.0626(4)
H30 H 0.4324 0.5500 0.0741
H31 H 0.4746 0.4907 0.0426
H32 H 0.4478 0.4491 0.0890
O9 O 0.7221(6) 1.2146(10) -0.1283(5)
loop_
_geom_bond_atom_site_label_1
_geom_bond_atom_site_label_2
_geom_bond_site_symmetry_1
_geom_bond_site_symmetry_2
C1 C2 1_555 1_555
C2 C3 1_555 1_555
C3 H1 1_555 1_555
C4 C3 1_555 1_555
H2 C4 1_555 1_555
C5 C4 1_555 1_555
C6 C5 1_555 1_555
H3 C6 1_555 1_555
C7 C2 1_555 1_555
H4 C7 1_555 1_555
C8 C9 1_555 1_555
C9 C10 1_555 1_555
C10 H5 1_555 1_555
C11 C10 1_555 1_555
H6 C11 1_555 1_555
C12 C11 1_555 1_555
C13 C12 1_555 1_555
H7 C13 1_555 1_555
C14 C9 1_555 1_555
H8 C14 1_555 1_555
C15 C16 1_555 1_555
C16 C17 1_555 1_555
C17 H9 1_555 1_555
C18 C17 1_555 1_555
H10 C18 1_555 1_555
C19 C18 1_555 1_555
C20 C19 1_555 1_555
H11 C20 1_555 1_555
C21 C16 1_555 1_555
H12 C21 1_555 1_555
C22 C23 1_555 1_555
C23 C24 1_555 1_555
C24 H13 1_555 1_555
C25 C24 1_555 1_555
H14 C25 1_555 1_555
C26 C25 1_555 1_555
C27 C26 1_555 1_555
H15 C27 1_555 1_555
C28 C23 1_555 1_555
H16 C28 1_555 1_555
Co1 O2 1_555 1_555
O1 C1 1_555 1_555
O2 C1 1_555 1_555
O3 C8 1_555 1_555
O4 C8 1_555 1_555
O5 C15 1_555 1_555
O6 C15 1_555 1_555
O7 C22 1_555 1_555
O8 C22 1_555 1_555
Si1 C5 1_555 1_555
N1 H17 1_555 1_555
H18 N1 1_555 1_555
C29 N1 1_555 1_555
H19 C29 1_555 1_555
H20 C29 1_555 1_555
H21 C29 1_555 1_555
C30 N1 1_555 1_555
H22 C30 1_555 1_555
H23 C30 1_555 1_555
H24 C30 1_555 1_555
N2 H25 1_555 1_555
H26 N2 1_555 1_555
C31 N2 1_555 1_555
H27 C31 1_555 1_555
H28 C31 1_555 1_555
H29 C31 1_555 1_555
C32 N2 1_555 1_555
H30 C32 1_555 1_555
H31 C32 1_555 1_555
H32 C32 1_555 1_555
Co1A O6 1_555 1_555
Co1C O4 1_555 1_555
Co1C_2 O8 1_555 1_555
O4C Co1 1_555 1_555
O6A Co1 1_555 1_555
O8C Co1 1_555 1_555
C6 C7 1_555 1_555
C12 Si1 1_555 1_555
C13 C14 1_555 1_555
C19 Si1 1_555 1_555
C20 C21 1_555 1_555
C26 Si1 1_555 1_555
C27 C28 1_555 1_555

#END
