
#######################################################################
#
#                 Cambridge Crystallographic Data Centre
#                                CCDC 
#
#######################################################################
#
# If this CIF has been generated from an entry in the Cambridge 
# Structural Database, then it will include bibliographic, chemical, 
# crystal, experimental, refinement or atomic coordinate data resulting 
# from the CCDC's data processing and validation procedures.
#
#######################################################################

data_KOHLIE
_chemical_formula_moiety         '(C56 H40 Co3 O20 Si2)n'
_symmetry_cell_setting           orthorhombic
_symmetry_space_group_name_H-M   'P n n a'
_symmetry_Int_Tables_number      52
_space_group_name_Hall           '-P 2a 2bc'
loop_
_symmetry_equiv_pos_site_id
_symmetry_equiv_pos_as_xyz
1 x,y,z
2 1/2-x,-y,z
3 1/2-x,1/2+y,1/2-z
4 x,1/2-y,1/2-z
5 -x,-y,-z
6 1/2+x,y,-z
7 1/2+x,1/2-y,1/2+z
8 -x,1/2+y,1/2+z
_cell_length_a                   26.982(3)
_cell_length_b                   21.882(2)
_cell_length_c                   13.8219(14)
_cell_angle_alpha                90
_cell_angle_beta                 90
_cell_angle_gamma                90
_cell_volume                     8160.73
loop_
_atom_site_label
_atom_site_type_symbol
_atom_site_fract_x
_atom_site_fract_y
_atom_site_fract_z
Co1 Co 0.12840(3) 0.7500 0.7500
Co2 Co 0.11772(3) 0.68528(4) 0.96662(5)
Si1 Si 0.13160(6) 0.44566(7) 0.46551(11)
O1 O 0.1071(3) 0.6493(4) 0.0982(5)
C1 C 0.1419(4) 0.6068(5) 0.0982(7)
O2 O 0.31703(13) 0.27698(17) 0.6593(3)
C2 C 0.3074(2) 0.2776(3) 0.5710(4)
C3 C 0.2660(2) 0.3181(2) 0.5404(4)
C4 C 0.2366(2) 0.3453(3) 0.6093(5)
H1 H 0.2430 0.3377 0.6743
C5 C 0.2548(4) 0.3316(4) 0.4498(5)
H2 H 0.2726 0.3133 0.4001
O3 O -0.05654(16) 0.2358(2) 0.4673(3)
C6 C -0.0475(2) 0.2752(3) 0.4054(4)
C7 C -0.0035(2) 0.3162(3) 0.4205(4)
C8 C 0.0268(4) 0.3103(4) 0.4956(7)
H3 H 0.0216 0.2791 0.5402
C9 C 0.0120(3) 0.3543(3) 0.3496(5)
H4 H -0.0039 0.3534 0.2899
C10 C 0.1386(2) 0.4940(3) 0.3561(4)
O4 O 0.13043(11) 0.66064(15) 0.8263(2)
C11 C 0.07813(19) 0.3927(2) 0.4480(3)
C12 C 0.1194(2) 0.4966(2) 0.5713(4)
C13 C 0.18728(19) 0.3975(2) 0.4938(4)
C14 C 0.1072(2) 0.5754(2) 0.7335(4)
O5 O 0.07163(19) 0.6015(2) 0.8831(3)
C15 C 0.1465(2) 0.5817(3) 0.6750(4)
H5 H 0.1702 0.6115 0.6875
C16 C 0.1515(3) 0.5425(3) 0.5941(4)
H6 H 0.1786 0.5485 0.5536
C17 C 0.1020(2) 0.6145(3) 0.8198(4)
C18 C 0.1985(2) 0.3832(3) 0.5850(4)
H7 H 0.1794 0.3999 0.6343
C19 C 0.0515(3) 0.3950(4) 0.3640(6)
H8 H 0.0595 0.4235 0.3165
C20 C 0.0663(3) 0.3506(4) 0.5079(6)
H9 H 0.0854 0.3466 0.5636
C21 C 0.0794(2) 0.4915(3) 0.6332(5)
H10 H 0.0557 0.4617 0.6209
C22 C 0.0734(2) 0.5290(3) 0.7125(5)
H11 H 0.0463 0.5232 0.7529
C23 C 0.2172(3) 0.3723(4) 0.4266(4)
H12 H 0.2123 0.3826 0.3619
O6 O 0.32968(16) 0.2462(2) 0.5053(3)
O7 O -0.07341(14) 0.28518(19) 0.3326(3)
C24 C 0.1425(3) 0.5672(4) 0.1905(5)
O8 O 0.1718(4) 0.5983(4) 0.0349(5)
C25 C 0.1045(5) 0.5717(7) 0.2497(9)
H13 H 0.0784 0.5978 0.2353
C26 C 0.1039(5) 0.5364(6) 0.3353(10)
H14 H 0.0784 0.5427 0.3794
C27 C 0.1766(4) 0.5280(6) 0.2089(8)
H15 H 0.2038 0.5239 0.1681
C28 C 0.1720(3) 0.4926(5) 0.2896(7)
H16 H 0.1966 0.4632 0.2979
Co2A Co 0.38228(3) 0.31472(4) 0.96662(5)
Si1A Si 0.36840(6) 0.55434(7) 0.46551(11)
O1A O 0.3929(3) 0.3507(4) 0.0982(5)
C1A C 0.3581(4) 0.3932(5) 0.0982(7)
O2A O 0.18297(13) 0.72302(17) 0.6593(3)
C2A C 0.1926(2) 0.7224(3) 0.5710(4)
C3A C 0.2340(2) 0.6819(2) 0.5404(4)
C4A C 0.2634(2) 0.6547(3) 0.6093(5)
H1A H 0.2570 0.6623 0.6743
C5A C 0.2452(4) 0.6684(4) 0.4498(5)
H2A H 0.2274 0.6867 0.4001
O3A O 0.55654(16) 0.7642(2) 0.4673(3)
C6A C 0.5475(2) 0.7248(3) 0.4054(4)
C7A C 0.5035(2) 0.6838(3) 0.4205(4)
C8A C 0.4732(4) 0.6897(4) 0.4956(7)
H3A H 0.4784 0.7209 0.5402
C9A C 0.4880(3) 0.6457(3) 0.3496(5)
H4A H 0.5039 0.6466 0.2899
C10A C 0.3614(2) 0.5060(3) 0.3561(4)
O4A O 0.36957(11) 0.33936(15) 0.8263(2)
C11A C 0.42187(19) 0.6073(2) 0.4480(3)
C12A C 0.3806(2) 0.5034(2) 0.5713(4)
C13A C 0.31272(19) 0.6025(2) 0.4938(4)
C14A C 0.3928(2) 0.4246(2) 0.7335(4)
O5A O 0.42837(19) 0.3985(2) 0.8831(3)
C15A C 0.3535(2) 0.4183(3) 0.6750(4)
H5A H 0.3298 0.3885 0.6875
C16A C 0.3485(3) 0.4575(3) 0.5941(4)
H6A H 0.3214 0.4515 0.5536
C17A C 0.3980(2) 0.3855(3) 0.8198(4)
C18A C 0.3015(2) 0.6168(3) 0.5850(4)
H7A H 0.3206 0.6001 0.6343
C19A C 0.4485(3) 0.6050(4) 0.3640(6)
H8A H 0.4405 0.5765 0.3165
C20A C 0.4337(3) 0.6494(4) 0.5079(6)
H9A H 0.4146 0.6534 0.5636
C21A C 0.4206(2) 0.5085(3) 0.6332(5)
H10A H 0.4443 0.5383 0.6209
C22A C 0.4266(2) 0.4710(3) 0.7125(5)
H11A H 0.4537 0.4768 0.7529
C23A C 0.2828(3) 0.6277(4) 0.4266(4)
H12A H 0.2877 0.6174 0.3619
O6A O 0.17032(16) 0.7538(2) 0.5053(3)
O7A O 0.57341(14) 0.71482(19) 0.3326(3)
C24A C 0.3575(3) 0.4328(4) 0.1905(5)
O8A O 0.3282(4) 0.4017(4) 0.0349(5)
C25A C 0.3955(5) 0.4283(7) 0.2497(9)
H13A H 0.4216 0.4022 0.2353
C26A C 0.3961(5) 0.4636(6) 0.3353(10)
H14A H 0.4216 0.4573 0.3794
C27A C 0.3234(4) 0.4720(6) 0.2089(8)
H15A H 0.2962 0.4761 0.1681
C28A C 0.3280(3) 0.5074(5) 0.2896(7)
H16A H 0.3034 0.5368 0.2979
Co1A Co 0.37160(3) 0.2500 0.7500
Co1D Co -0.12840(3) 0.2500 0.2500
Co1E Co 0.62840(3) 0.7500 0.2500
Co2_2 Co 0.11772(3) 0.68528(4) -0.03338(5)
Co2A_2 Co 0.38228(3) 0.31472(4) -0.03338(5)
Co2B Co 0.38228(3) 0.18528(4) 0.53338(5)
Co2C Co 0.11772(3) 0.81472(4) 0.53338(5)
Co2F Co 0.61772(3) 0.81472(4) 0.46662(5)
Co2G Co -0.11772(3) 0.18528(4) 0.46662(5)
O1_2 O 0.1071(3) 0.6493(4) 1.0982(5)
O1A_2 O 0.3929(3) 0.3507(4) 1.0982(5)
O2B O 0.18297(13) 0.77698(17) 0.8407(3)
O3F O 0.44346(16) 0.2642(2) 0.9673(3)
O3G O 0.05654(16) 0.7358(2) 0.9673(3)
O4C O 0.13043(11) 0.83936(15) 0.6737(2)
O6B O 0.17032(16) 0.7462(2) 0.9947(3)
O6C O 0.32968(16) 0.2538(2) 0.9947(3)
O7D O 0.07341(14) 0.71482(19) 0.6674(3)
O7G O 0.07341(14) 0.78518(19) 0.8326(3)
O9 O 0.2117(8) 0.2500 0.2500
O10 O 0.1301(8) 0.2500 0.2500
O11 O 0.2453(10) 0.3627(13) -0.1199(18)
O12 O 0.0347(11) 0.1969(15) 0.714(2)
loop_
_geom_bond_atom_site_label_1
_geom_bond_atom_site_label_2
_geom_bond_site_symmetry_1
_geom_bond_site_symmetry_2
Co1 O4 1_555 1_555
Co2 O4 1_555 1_555
Si1 C10 1_555 1_555
O1 C1 1_555 1_555
C1 C24 1_555 1_555
O2 C2 1_555 1_555
C2 C3 1_555 1_555
C3 C4 1_555 1_555
C4 H1 1_555 1_555
C5 C3 1_555 1_555
H2 C5 1_555 1_555
O3 C6 1_555 1_555
C6 C7 1_555 1_555
C7 C8 1_555 1_555
C8 H3 1_555 1_555
C9 C7 1_555 1_555
H4 C9 1_555 1_555
C10 C26 1_555 1_555
O4 C17 1_555 1_555
C11 Si1 1_555 1_555
C12 Si1 1_555 1_555
C13 Si1 1_555 1_555
C14 C15 1_555 1_555
O5 C17 1_555 1_555
C15 H5 1_555 1_555
C16 C12 1_555 1_555
H6 C16 1_555 1_555
C17 C14 1_555 1_555
C18 C4 1_555 1_555
H7 C18 1_555 1_555
C19 C9 1_555 1_555
H8 C19 1_555 1_555
C20 C8 1_555 1_555
H9 C20 1_555 1_555
C21 C12 1_555 1_555
H10 C21 1_555 1_555
C22 C14 1_555 1_555
H11 C22 1_555 1_555
C23 C5 1_555 1_555
H12 C23 1_555 1_555
O6 C2 1_555 1_555
O7 C6 1_555 1_555
C24 C25 1_555 1_555
O8 C1 1_555 1_555
C25 H13 1_555 1_555
C26 C25 1_555 1_555
H14 C26 1_555 1_555
C27 C24 1_555 1_555
H15 C27 1_555 1_555
C28 C10 1_555 1_555
H16 C28 1_555 1_555
Co2A O4A 1_555 1_555
Si1A C10A 1_555 1_555
O1A C1A 1_555 1_555
C1A C24A 1_555 1_555
O2A Co1 1_555 1_555
C2A O2A 1_555 1_555
C3A C2A 1_555 1_555
C4A C3A 1_555 1_555
H1A C4A 1_555 1_555
C5A C3A 1_555 1_555
H2A C5A 1_555 1_555
O3A C6A 1_555 1_555
C6A C7A 1_555 1_555
C7A C8A 1_555 1_555
C8A H3A 1_555 1_555
C9A C7A 1_555 1_555
H4A C9A 1_555 1_555
C10A C26A 1_555 1_555
O4A C17A 1_555 1_555
C11A Si1A 1_555 1_555
C12A Si1A 1_555 1_555
C13A Si1A 1_555 1_555
C14A C15A 1_555 1_555
O5A C17A 1_555 1_555
C15A H5A 1_555 1_555
C16A C12A 1_555 1_555
H6A C16A 1_555 1_555
C17A C14A 1_555 1_555
C18A C4A 1_555 1_555
H7A C18A 1_555 1_555
C19A C9A 1_555 1_555
H8A C19A 1_555 1_555
C20A C8A 1_555 1_555
H9A C20A 1_555 1_555
C21A C12A 1_555 1_555
H10A C21A 1_555 1_555
C22A C14A 1_555 1_555
H11A C22A 1_555 1_555
C23A C5A 1_555 1_555
H12A C23A 1_555 1_555
O6A C2A 1_555 1_555
O7A C6A 1_555 1_555
C24A C25A 1_555 1_555
O8A C1A 1_555 1_555
C25A H13A 1_555 1_555
C26A C25A 1_555 1_555
H14A C26A 1_555 1_555
C27A C24A 1_555 1_555
H15A C27A 1_555 1_555
C28A C10A 1_555 1_555
H16A C28A 1_555 1_555
Co1A O2 1_555 1_555
Co1D O7 1_555 1_555
Co1E O7A 1_555 1_555
Co2_2 O1 1_555 1_555
Co2A_2 O1A 1_555 1_555
Co2B O6 1_555 1_555
Co2C O6A 1_555 1_555
Co2F O3A 1_555 1_555
Co2G O3 1_555 1_555
O1_2 Co2 1_555 1_555
O1A_2 Co2A 1_555 1_555
O2B Co1 1_555 1_555
O3F Co2A 1_555 1_555
O3G Co2 1_555 1_555
O4C Co1 1_555 1_555
O6B Co2 1_555 1_555
O6C Co2A 1_555 1_555
O7D Co1 1_555 1_555
O7G Co1 1_555 1_555
C11 C19 1_555 1_555
C11 C20 1_555 1_555
C13 C18 1_555 1_555
C13 C23 1_555 1_555
C15 C16 1_555 1_555
C21 C22 1_555 1_555
C27 C28 1_555 1_555
O4A Co1A 1_555 1_555
C11A C19A 1_555 1_555
C11A C20A 1_555 1_555
C13A C18A 1_555 1_555
C13A C23A 1_555 1_555
C15A C16A 1_555 1_555
C21A C22A 1_555 1_555
C27A C28A 1_555 1_555
Co2C O4C 1_555 1_555

#END
