
#######################################################################
#
#                 Cambridge Crystallographic Data Centre
#                                CCDC 
#
#######################################################################
#
# If this CIF has been generated from an entry in the Cambridge 
# Structural Database, then it will include bibliographic, chemical, 
# crystal, experimental, refinement or atomic coordinate data resulting 
# from the CCDC's data processing and validation procedures.
#
#######################################################################

data_PUQHEP
_chemical_formula_moiety         '(C22 H20 Co2 N2 O10)n'
_symmetry_cell_setting           triclinic
_symmetry_space_group_name_H-M   'P -1'
_symmetry_Int_Tables_number      2
_space_group_name_Hall           '-P 1'
loop_
_symmetry_equiv_pos_site_id
_symmetry_equiv_pos_as_xyz
1 x,y,z
2 -x,-y,-z
_cell_length_a                   9.8385(11)
_cell_length_b                   11.0629(13)
_cell_length_c                   13.5398(16)
_cell_angle_alpha                66.610(2)
_cell_angle_beta                 85.898(2)
_cell_angle_gamma                69.717(2)
_cell_volume                     1264.98
loop_
_atom_site_label
_atom_site_type_symbol
_atom_site_fract_x
_atom_site_fract_y
_atom_site_fract_z
Co1 Co 1.10743(10) -0.02323(10) 0.20252(7)
Co2 Co 1.17053(10) -0.05518(9) -0.01434(7)
O1 O 1.1358(5) 0.1596(5) 0.1467(4)
O2 O 1.2099(5) 0.1086(5) 0.0035(4)
O3 O 1.4459(6) 0.4656(5) -0.2112(4)
O4 O 1.7050(5) 0.1800(5) -0.2593(4)
O5 O 1.6547(5) 0.2057(5) -0.1023(4)
O6 O 1.1590(5) 0.7797(5) -0.0429(4)
O7 O 1.1097(6) 0.6453(5) 0.1182(4)
O8 O 1.0225(5) -0.0794(5) 0.1096(3)
H1 H 1.0421 -0.1720 0.1293
N1 N 0.3113(6) -0.0296(6) 0.8585(5)
N2 N 0.9866(6) -0.0244(7) 0.3306(5)
C1 C 1.1887(7) 0.1847(7) 0.0558(6)
C2 C 1.2285(7) 0.3133(7) 0.0054(6)
C3 C 1.3181(8) 0.3236(7) -0.0790(6)
H2 H 1.3526 0.2501 -0.1040
C4 C 1.3571(8) 0.4426(7) -0.1269(6)
C5 C 1.3038(8) 0.5517(7) -0.0917(6)
H3 H 1.3299 0.6331 -0.1253
C6 C 1.2125(7) 0.5422(7) -0.0077(6)
C7 C 1.1783(7) 0.4192(7) 0.0440(6)
H4 H 1.1215 0.4087 0.1046
C8 C 1.4976(8) 0.3662(8) -0.2603(6)
H5 H 1.5216 0.4146 -0.3345
H6 H 1.4182 0.3329 -0.2657
C9 C 1.6308(7) 0.2390(7) -0.1998(6)
C10 C 1.1546(7) 0.6643(7) 0.0262(6)
C11 C 0.2895(9) 0.0913(8) 0.7725(6)
H7 H 0.2077 0.1707 0.7688
C12 C 0.3790(9) 0.1064(9) 0.6896(6)
H8 H 0.3581 0.1949 0.6305
C13 C 0.4989(9) -0.0053(11) 0.6910(7)
C14 C 0.5231(8) -0.1314(10) 0.7792(6)
H9 H 0.6044 -0.2118 0.7840
C15 C 0.4280(8) -0.1397(9) 0.8607(6)
H10 H 0.4463 -0.2270 0.9206
C16 C 0.5914(10) 0.0200(13) 0.5996(9)
H11 H 0.5581 0.1084 0.5401
C17 C 0.7152(11) -0.0707(12) 0.5953(9)
H12 H 0.7508 -0.1579 0.6556
C18 C 0.8058(13) -0.0447(14) 0.4993(8)
C19 C 0.7824(10) 0.0867(14) 0.4108(11)
H13 H 0.7053 0.1688 0.4083
C20 C 0.8778(9) 0.0921(11) 0.3257(8)
H14 H 0.8641 0.1784 0.2655
C21 C 1.0024(11) -0.1424(11) 0.4171(7)
H15 H 1.0809 -0.2241 0.4206
C22 C 0.9163(12) -0.1561(15) 0.5003(9)
H16 H 0.9348 -0.2446 0.5590
Co1A Co 1.89257(10) 0.02323(10) -0.20252(7)
Co2A Co 1.82947(10) 0.05518(9) 0.01434(7)
Co2_2 Co 1.17053(10) 0.94482(9) -0.01434(7)
Co2A_2 Co 0.82947(10) 0.05518(9) 0.01434(7)
Co2_3 Co 0.17053(10) -0.05518(9) 0.98566(7)
O4A O 1.2950(5) -0.1800(5) 0.2593(4)
O5A O 1.3453(5) -0.2057(5) 0.1023(4)
O6_2 O 1.1590(5) -0.2203(5) -0.0429(4)
O8A O 0.9775(5) 0.0794(5) -0.1096(3)
H1A H 0.9579 0.1720 -0.1293
N1_2 N 1.3113(6) -0.0296(6) -0.1415(5)
O9 O 0.9590(16) 0.4750(16) 0.2644(12)
O10 O 1.3246(14) 0.4216(13) 0.2732(10)
loop_
_geom_bond_atom_site_label_1
_geom_bond_atom_site_label_2
_geom_bond_site_symmetry_1
_geom_bond_site_symmetry_2
Co1 O1 1_555 1_555
Co2 O2 1_555 1_555
O1 C1 1_555 1_555
O2 C1 1_555 1_555
O3 C4 1_555 1_555
O4 C9 1_555 1_555
O5 C9 1_555 1_555
O6 C10 1_555 1_555
O7 C10 1_555 1_555
O8 Co1 1_555 1_555
H1 O8 1_555 1_555
N1 C11 1_555 1_555
N2 Co1 1_555 1_555
C1 C2 1_555 1_555
C2 C3 1_555 1_555
C3 H2 1_555 1_555
C4 C3 1_555 1_555
C5 C4 1_555 1_555
H3 C5 1_555 1_555
C6 C5 1_555 1_555
C7 C2 1_555 1_555
H4 C7 1_555 1_555
C8 O3 1_555 1_555
H5 C8 1_555 1_555
H6 C8 1_555 1_555
C9 C8 1_555 1_555
C10 C6 1_555 1_555
C11 H7 1_555 1_555
C12 C11 1_555 1_555
H8 C12 1_555 1_555
C13 C12 1_555 1_555
C14 C13 1_555 1_555
H9 C14 1_555 1_555
C15 N1 1_555 1_555
H10 C15 1_555 1_555
C16 C13 1_555 1_555
H11 C16 1_555 1_555
C17 C16 1_555 1_555
H12 C17 1_555 1_555
C18 C17 1_555 1_555
C19 C18 1_555 1_555
H13 C19 1_555 1_555
C20 N2 1_555 1_555
H14 C20 1_555 1_555
C21 N2 1_555 1_555
H15 C21 1_555 1_555
C22 C18 1_555 1_555
H16 C22 1_555 1_555
Co1A O4 1_555 1_555
Co2A O5 1_555 1_555
Co2_2 O6 1_555 1_555
Co2A_2 O8 1_555 1_555
Co2_3 N1 1_555 1_555
O4A Co1 1_555 1_555
O5A Co2 1_555 1_555
O6_2 Co2 1_555 1_555
O8A Co2 1_555 1_555
H1A O8A 1_555 1_555
N1_2 Co2 1_555 1_555
Co2 O8 1_555 1_555
C6 C7 1_555 1_555
C14 C15 1_555 1_555
C19 C20 1_555 1_555
C21 C22 1_555 1_555
Co2A_2 O8A 1_555 1_555

#END
