
#######################################################################
#
#                 Cambridge Crystallographic Data Centre
#                                CCDC 
#
#######################################################################
#
# If this CIF has been generated from an entry in the Cambridge 
# Structural Database, then it will include bibliographic, chemical, 
# crystal, experimental, refinement or atomic coordinate data resulting 
# from the CCDC's data processing and validation procedures.
#
#######################################################################

data_IYOWID01
_chemical_formula_moiety         'C162 H108 N8 O37 Zn20'
_symmetry_cell_setting           cubic
_symmetry_space_group_name_H-M   'P m -3 n'
_symmetry_Int_Tables_number      223
_space_group_name_Hall           '-P 4n 2 3'
loop_
_symmetry_equiv_pos_site_id
_symmetry_equiv_pos_as_xyz
1 x,y,z
2 -x,-y,z
3 -x,y,-z
4 x,-y,-z
5 z,x,y
6 z,-x,-y
7 -z,-x,y
8 -z,x,-y
9 y,z,x
10 -y,z,-x
11 y,-z,-x
12 -y,-z,x
13 1/2+y,1/2+x,1/2-z
14 1/2-y,1/2-x,1/2-z
15 1/2+y,1/2-x,1/2+z
16 1/2-y,1/2+x,1/2+z
17 1/2+x,1/2+z,1/2-y
18 1/2-x,1/2+z,1/2+y
19 1/2-x,1/2-z,1/2-y
20 1/2+x,1/2-z,1/2+y
21 1/2+z,1/2+y,1/2-x
22 1/2+z,1/2-y,1/2+x
23 1/2-z,1/2+y,1/2+x
24 1/2-z,1/2-y,1/2-x
25 -x,-y,-z
26 x,y,-z
27 x,-y,z
28 -x,y,z
29 -z,-x,-y
30 -z,x,y
31 z,x,-y
32 z,-x,y
33 -y,-z,-x
34 y,-z,x
35 -y,z,x
36 y,z,-x
37 1/2-y,1/2-x,1/2+z
38 1/2+y,1/2+x,1/2+z
39 1/2-y,1/2+x,1/2-z
40 1/2+y,1/2-x,1/2-z
41 1/2-x,1/2-z,1/2+y
42 1/2+x,1/2-z,1/2-y
43 1/2+x,1/2+z,1/2+y
44 1/2-x,1/2+z,1/2-y
45 1/2-z,1/2-y,1/2+x
46 1/2-z,1/2+y,1/2-x
47 1/2+z,1/2-y,1/2-x
48 1/2+z,1/2+y,1/2+x
_cell_length_a                   27.6567(7)
_cell_length_b                   27.6567(7)
_cell_length_c                   27.6567(7)
_cell_angle_alpha                90
_cell_angle_beta                 90
_cell_angle_gamma                90
_cell_volume                     21154.4
loop_
_atom_site_label
_atom_site_type_symbol
_atom_site_fract_x
_atom_site_fract_y
_atom_site_fract_z
Zn1 Zn 0.0000 0.5000 0.30164(4)
O1 O 0.05121(17) 0.44805(18) 0.28943(18)
N1 N -0.0000(4) 0.5000 0.3717
C1 C 0.0659(3) 0.4341(3) 0.2500
C2 C 0.1045(2) 0.3955(2) 0.2500
C3 C 0.1211(3) 0.3773(3) 0.2073(3)
H1 H 0.1089 0.3886 0.1781
C4 C 0.1567(3) 0.3414(4) 0.2079(3)
H2 H 0.1676 0.3289 0.1786
C5 C 0.1762(2) 0.3238(2) 0.2500
C6 C 0.2140(3) 0.2860(3) 0.2500
C7 C 0.2500(3) 0.2851 0.2149(3)
H3 H 0.2500 0.3088 0.1912
C8 C -0.0264(4) 0.4650(5) 0.3972(6)
H4 H -0.0440 0.4418 0.3803
C9 C -0.0267(3) 0.4647(5) 0.4493(6)
H5 H -0.0443 0.4414 0.4659
C10 C 0.0000(4) 0.5000 0.4753
Zn1B Zn -0.0000 0.5000 0.69836(4)
Zn1L Zn -0.0000 0.5000 0.19836(4)
Zn1H Zn 0.5000 0.30164(4) 0.0000
Zn1R Zn 0.5000 0.19836(4) 0.0000
Zn1D Zn 0.30164(4) 0.0000 0.5000
Zn1V Zn 0.19836(4) 0.0000 0.5000
Zn1J Zn -0.5000 0.69836(4) 0.0000
Zn1P Zn -0.5000 0.80164(4) 0.0000
Zn1F Zn -0.30164(4) 1.0000 0.5000
Zn1T Zn -0.19836(4) 1.0000 0.5000
Zn1H_2 Zn -0.5000 0.30164(4) 0.0000
Zn1R_2 Zn -0.5000 0.19836(4) 0.0000
Zn1F_2 Zn -0.30164(4) 0.0000 0.5000
Zn1T_2 Zn -0.19836(4) 0.0000 0.5000
Zn1J_2 Zn 0.5000 0.69836(4) 0.0000
Zn1P_2 Zn 0.5000 0.80164(4) 0.0000
Zn1D_2 Zn 0.30164(4) 1.0000 0.5000
Zn1V_2 Zn 0.19836(4) 1.0000 0.5000
Zn1N Zn 0.0000 0.5000 -0.19836(4)
O1M O 0.05195(18) 0.44879(17) 0.21057(18)
O1H O 0.44805(18) 0.28943(18) 0.05121(17)
O1R O 0.44879(17) 0.21057(18) 0.05195(18)
O1D O 0.28943(18) 0.05121(17) 0.44805(18)
O1W O 0.21057(18) 0.05195(18) 0.44879(17)
O1A O -0.05121(17) 0.55195(18) 0.28943(18)
O1L O -0.05195(18) 0.55121(17) 0.21057(18)
O1K O -0.44805(18) 0.71057(18) 0.05121(17)
O1P O -0.44879(17) 0.78943(18) 0.05195(18)
O1F O -0.28943(18) 0.94879(17) 0.44805(18)
O1T O -0.21057(18) 0.94805(18) 0.44879(17)
O1AA O -0.05121(17) 0.44805(18) 0.28943(18)
O1MA O -0.05195(18) 0.44879(17) 0.21057(18)
O1HA O -0.44805(18) 0.28943(18) 0.05121(17)
O1OA O -0.44879(17) 0.21057(18) 0.05195(18)
O1CA O -0.28943(18) 0.05121(17) 0.44805(18)
O1TA O -0.21057(18) 0.05195(18) 0.44879(17)
O1Z O 0.05121(17) 0.55195(18) 0.28943(18)
O1LA O 0.05195(18) 0.55121(17) 0.21057(18)
O1GA O 0.44805(18) 0.71057(18) 0.05121(17)
O1QA O 0.44879(17) 0.78943(18) 0.05195(18)
O1EA O 0.28943(18) 0.94879(17) 0.44805(18)
O1SA O 0.21057(18) 0.94805(18) 0.44879(17)
O1B O -0.05121(17) 0.44805(18) 0.71057(18)
O1C O 0.05121(17) 0.55195(18) 0.71057(18)
O1Y O 0.05121(17) 0.44805(18) 0.71057(18)
O1X O -0.05121(17) 0.55195(18) 0.71057(18)
O1I O 0.55195(18) 0.28943(18) -0.05121(17)
O1IA O 0.44805(18) 0.28943(18) -0.05121(17)
O1HA_2 O 0.55195(18) 0.28943(18) 0.05121(17)
O1S O 0.55121(17) 0.21057(18) -0.05195(18)
O1OA_2 O 0.55121(17) 0.21057(18) 0.05195(18)
O1NA O 0.44879(17) 0.21057(18) -0.05195(18)
O1E O 0.28943(18) -0.05121(17) 0.55195(18)
O1EA_2 O 0.28943(18) -0.05121(17) 0.44805(18)
O1DA O 0.28943(18) 0.05121(17) 0.55195(18)
N1B N -0.0000(4) 0.5000 0.6283
N1L N -0.0000 0.5000(4) 0.1283
N1N N 0.0000 0.5000(4) -0.1283
N1H N 0.5000 0.3717 0.0000(4)
N1J N 0.5000 0.6283 0.0000(4)
N1R N 0.5000(4) 0.1283 0.0000
N1D N 0.3717 0.0000(4) 0.5000
C1H C 0.4341(3) 0.2500 0.0659(3)
C1D C 0.2500 0.0659(3) 0.4341(3)
C1A C -0.0659(3) 0.5659(3) 0.2500
C1K C -0.4341(3) 0.7500 0.0659(3)
C1F C -0.2500 0.9341(3) 0.4341(3)
C1AA C -0.0659(3) 0.4341(3) 0.2500
C1HA C -0.4341(3) 0.2500 0.0659(3)
C1CA C -0.2500 0.0659(3) 0.4341(3)
C1Z C 0.0659(3) 0.5659(3) 0.2500
C1GA C 0.4341(3) 0.7500 0.0659(3)
C1EA C 0.2500 0.9341(3) 0.4341(3)
C2H C 0.3955(2) 0.2500 0.1045(2)
C2D C 0.2500 0.1045(2) 0.3955(2)
C2A C -0.1045(2) 0.6045(2) 0.2500
C2K C -0.3955(2) 0.7500 0.1045(2)
C2F C -0.2500 0.8955(2) 0.3955(2)
C2AA C -0.1045(2) 0.3955(2) 0.2500
C2HA C -0.3955(2) 0.2500 0.1045(2)
C2CA C -0.2500 0.1045(2) 0.3955(2)
C2Z C 0.1045(2) 0.6045(2) 0.2500
C2GA C 0.3955(2) 0.7500 0.1045(2)
C2EA C 0.2500 0.8955(2) 0.3955(2)
C3M C 0.1227(3) 0.3789(3) 0.2927(3)
C3H C 0.3773(3) 0.2073(3) 0.1211(3)
C3R C 0.3789(3) 0.2927(3) 0.1227(3)
C3D C 0.2073(3) 0.1211(3) 0.3773(3)
C3W C 0.2927(3) 0.1227(3) 0.3789(3)
C3A C -0.1211(3) 0.6227(3) 0.2073(3)
C3L C -0.1227(3) 0.6211(3) 0.2927(3)
C3K C -0.3773(3) 0.7927(3) 0.1211(3)
C3P C -0.3789(3) 0.7073(3) 0.1227(3)
C3F C -0.2073(3) 0.8789(3) 0.3773(3)
C3T C -0.2927(3) 0.8773(3) 0.3789(3)
C3AA C -0.1211(3) 0.3773(3) 0.2073(3)
C3MA C -0.1227(3) 0.3789(3) 0.2927(3)
C3HA C -0.3773(3) 0.2073(3) 0.1211(3)
C3OA C -0.3789(3) 0.2927(3) 0.1227(3)
C3CA C -0.2073(3) 0.1211(3) 0.3773(3)
C3TA C -0.2927(3) 0.1227(3) 0.3789(3)
C3Z C 0.1211(3) 0.6227(3) 0.2073(3)
C3LA C 0.1227(3) 0.6211(3) 0.2927(3)
C3GA C 0.3773(3) 0.7927(3) 0.1211(3)
C3QA C 0.3789(3) 0.7073(3) 0.1227(3)
C3EA C 0.2073(3) 0.8789(3) 0.3773(3)
C3SA C 0.2927(3) 0.8773(3) 0.3789(3)
H1M H 0.1114 0.3911 0.3219
H1R H 0.3911 0.3219 0.1114
H1H H 0.3886 0.1781 0.1089
H1W H 0.3219 0.1114 0.3911
H1D H 0.1781 0.1089 0.3886
H1A H -0.1089 0.6114 0.1781
H1L H -0.1114 0.6089 0.3219
H1P H -0.3911 0.6781 0.1114
H1K H -0.3886 0.8219 0.1089
H1T H -0.3219 0.8886 0.3911
H1F H -0.1781 0.8911 0.3886
H1AA H -0.1089 0.3886 0.1781
H1MA H -0.1114 0.3911 0.3219
H1OA H -0.3911 0.3219 0.1114
H1HA H -0.3886 0.1781 0.1089
H1TA H -0.3219 0.1114 0.3911
H1CA H -0.1781 0.1089 0.3886
H1Z H 0.1089 0.6114 0.1781
H1LA H 0.1114 0.6089 0.3219
H1QA H 0.3911 0.6781 0.1114
H1GA H 0.3886 0.8219 0.1089
H1SA H 0.3219 0.8886 0.3911
H1EA H 0.1781 0.8911 0.3886
C4M C 0.1586(4) 0.3433(3) 0.2921(3)
C4H C 0.3414(4) 0.2079(3) 0.1567(3)
C4R C 0.3433(3) 0.2921(3) 0.1586(4)
C4D C 0.2079(3) 0.1567(3) 0.3414(4)
C4W C 0.2921(3) 0.1586(4) 0.3433(3)
C4A C -0.1567(3) 0.6586(4) 0.2079(3)
C4L C -0.1586(4) 0.6567(3) 0.2921(3)
C4K C -0.3414(4) 0.7921(3) 0.1567(3)
C4P C -0.3433(3) 0.7079(3) 0.1586(4)
C4F C -0.2079(3) 0.8433(3) 0.3414(4)
C4T C -0.2921(3) 0.8414(4) 0.3433(3)
C4AA C -0.1567(3) 0.3414(4) 0.2079(3)
C4MA C -0.1586(4) 0.3433(3) 0.2921(3)
C4HA C -0.3414(4) 0.2079(3) 0.1567(3)
C4OA C -0.3433(3) 0.2921(3) 0.1586(4)
C4CA C -0.2079(3) 0.1567(3) 0.3414(4)
C4TA C -0.2921(3) 0.1586(4) 0.3433(3)
C4Z C 0.1567(3) 0.6586(4) 0.2079(3)
C4LA C 0.1586(4) 0.6567(3) 0.2921(3)
C4GA C 0.3414(4) 0.7921(3) 0.1567(3)
C4QA C 0.3433(3) 0.7079(3) 0.1586(4)
C4EA C 0.2079(3) 0.8433(3) 0.3414(4)
C4SA C 0.2921(3) 0.8414(4) 0.3433(3)
H2M H 0.1711 0.3324 0.3214
H2R H 0.3324 0.3214 0.1711
H2H H 0.3289 0.1786 0.1676
H2W H 0.3214 0.1711 0.3324
H2D H 0.1786 0.1676 0.3289
H2A H -0.1676 0.6711 0.1786
H2L H -0.1711 0.6676 0.3214
H2P H -0.3324 0.6786 0.1711
H2K H -0.3289 0.8214 0.1676
H2T H -0.3214 0.8289 0.3324
H2F H -0.1786 0.8324 0.3289
H2AA H -0.1676 0.3289 0.1786
H2MA H -0.1711 0.3324 0.3214
H2OA H -0.3324 0.3214 0.1711
H2HA H -0.3289 0.1786 0.1676
H2TA H -0.3214 0.1711 0.3324
H2CA H -0.1786 0.1676 0.3289
H2Z H 0.1676 0.6711 0.1786
H2LA H 0.1711 0.6676 0.3214
H2QA H 0.3324 0.6786 0.1711
H2GA H 0.3289 0.8214 0.1676
H2SA H 0.3214 0.8289 0.3324
H2EA H 0.1786 0.8324 0.3289
C5H C 0.3238(2) 0.2500 0.1762(2)
C5D C 0.2500 0.1762(2) 0.3238(2)
C5A C -0.1762(2) 0.6762(2) 0.2500
C5K C -0.3238(2) 0.7500 0.1762(2)
C5F C -0.2500 0.8238(2) 0.3238(2)
C5AA C -0.1762(2) 0.3238(2) 0.2500
C5HA C -0.3238(2) 0.2500 0.1762(2)
C5CA C -0.2500 0.1762(2) 0.3238(2)
C5Z C 0.1762(2) 0.6762(2) 0.2500
C5GA C 0.3238(2) 0.7500 0.1762(2)
C5EA C 0.2500 0.8238(2) 0.3238(2)
C6H C 0.2860(3) 0.2500 0.2140(3)
C6D C 0.2500 0.2140(3) 0.2860(3)
C6A C -0.2140(3) 0.7140(3) 0.2500
C6K C -0.2860(3) 0.7500 0.2140(3)
C6F C -0.2500 0.7860(3) 0.2860(3)
C6AA C -0.2140(3) 0.2860(3) 0.2500
C6HA C -0.2860(3) 0.2500 0.2140(3)
C6CA C -0.2500 0.2140(3) 0.2860(3)
C6Z C 0.2140(3) 0.7140(3) 0.2500
C6GA C 0.2860(3) 0.7500 0.2140(3)
C6EA C 0.2500 0.7860(3) 0.2860(3)
C7H C 0.2851 0.2149(3) 0.2500(3)
C7D C 0.2149(3) 0.2500(3) 0.2851
C7A C -0.2500(3) 0.7149 0.2149(3)
C7K C -0.2851 0.7851(3) 0.2500(3)
C7F C -0.2149(3) 0.7500(3) 0.2851
C7AA C -0.2500(3) 0.2851 0.2149(3)
C7HA C -0.2851 0.2149(3) 0.2500(3)
C7CA C -0.2149(3) 0.2500(3) 0.2851
C7Z C 0.2500(3) 0.7149 0.2149(3)
C7GA C 0.2851 0.7851(3) 0.2500(3)
C7EA C 0.2149(3) 0.7500(3) 0.2851
H3D H 0.1912 0.2500 0.3088
H3H H 0.3088 0.1912 0.2500
H3A H -0.2500 0.6912 0.1912
H3F H -0.1912 0.7500 0.3088
H3K H -0.3088 0.8088 0.2500
H3AA H -0.2500 0.3088 0.1912
H3CA H -0.1912 0.2500 0.3088
H3HA H -0.3088 0.1912 0.2500
H3Z H 0.2500 0.6912 0.1912
H3EA H 0.1912 0.7500 0.3088
H3GA H 0.3088 0.8088 0.2500
C8A C 0.0264(4) 0.5350(5) 0.3972(6)
C8Z C -0.0264(4) 0.5350(5) 0.3972(6)
C8AA C 0.0264(4) 0.4650(5) 0.3972(6)
C8B C 0.0264(4) 0.4650(5) 0.6028(6)
C8C C -0.0264(4) 0.5350(5) 0.6028(6)
C8X C 0.0264(4) 0.5350(5) 0.6028(6)
C8Y C -0.0264(4) 0.4650(5) 0.6028(6)
C8M C 0.0350(5) 0.5264(4) 0.1028(6)
C8L C -0.0350(5) 0.4736(4) 0.1028(6)
C8MA C -0.0350(5) 0.5264(4) 0.1028(6)
C8LA C 0.0350(5) 0.4736(4) 0.1028(6)
C8O C 0.0350(5) 0.4736(4) -0.1028(6)
C8N C -0.0350(5) 0.5264(4) -0.1028(6)
C8KA C -0.0350(5) 0.4736(4) -0.1028(6)
C8JA C 0.0350(5) 0.5264(4) -0.1028(6)
C8H C 0.4650(5) 0.3972(6) -0.0264(4)
C8I C 0.5350(5) 0.3972(6) 0.0264(4)
C8HA C 0.5350(5) 0.3972(6) -0.0264(4)
C8IA C 0.4650(5) 0.3972(6) 0.0264(4)
C8J C 0.4650(5) 0.6028(6) 0.0264(4)
C8K C 0.5350(5) 0.6028(6) -0.0264(4)
C8FA C 0.5350(5) 0.6028(6) 0.0264(4)
C8GA C 0.4650(5) 0.6028(6) -0.0264(4)
H4Z H -0.0440 0.5582 0.3803
H4AA H 0.0440 0.4418 0.3803
H4C H -0.0440 0.5582 0.6197
H4Y H -0.0440 0.4418 0.6197
H4B H 0.0440 0.4418 0.6197
H4X H 0.0440 0.5582 0.6197
H4A H 0.0440 0.5582 0.3803
H4M H 0.0582 0.5440 0.1197
H4MA H -0.0582 0.5440 0.1197
H4LA H 0.0582 0.4560 0.1197
H4N H -0.0582 0.5440 -0.1197
H4JA H 0.0582 0.5440 -0.1197
H4O H 0.0582 0.4560 -0.1197
H4KA H -0.0582 0.4560 -0.1197
H4L H -0.0582 0.4560 0.1197
H4H H 0.4418 0.3803 -0.0440
H4HA H 0.5582 0.3803 -0.0440
H4IA H 0.4418 0.3803 0.0440
H4K H 0.5582 0.6197 -0.0440
H4GA H 0.4418 0.6197 -0.0440
H4J H 0.4418 0.6197 0.0440
H4FA H 0.5582 0.6197 0.0440
H4I H 0.5582 0.3803 0.0440
C9A C 0.0267(3) 0.5353(5) 0.4493(6)
C9Z C -0.0267(3) 0.5353(5) 0.4493(6)
C9AA C 0.0267(3) 0.4647(5) 0.4493(6)
C9B C 0.0267(3) 0.4647(5) 0.5507(6)
C9C C -0.0267(3) 0.5353(5) 0.5507(6)
C9X C 0.0267(3) 0.5353(5) 0.5507(6)
C9Y C -0.0267(3) 0.4647(5) 0.5507(6)
C9M C 0.0353(5) 0.5267(3) 0.0507(6)
C9L C -0.0353(5) 0.4733(3) 0.0507(6)
C9MA C -0.0353(5) 0.5267(3) 0.0507(6)
C9LA C 0.0353(5) 0.4733(3) 0.0507(6)
C9O C 0.0353(5) 0.4733(3) -0.0507(6)
C9N C -0.0353(5) 0.5267(3) -0.0507(6)
C9KA C -0.0353(5) 0.4733(3) -0.0507(6)
C9JA C 0.0353(5) 0.5267(3) -0.0507(6)
C9H C 0.4647(5) 0.4493(6) -0.0267(3)
C9I C 0.5353(5) 0.4493(6) 0.0267(3)
C9HA C 0.5353(5) 0.4493(6) -0.0267(3)
C9IA C 0.4647(5) 0.4493(6) 0.0267(3)
C9J C 0.4647(5) 0.5507(6) 0.0267(3)
C9K C 0.5353(5) 0.5507(6) -0.0267(3)
C9FA C 0.5353(5) 0.5507(6) 0.0267(3)
C9GA C 0.4647(5) 0.5507(6) -0.0267(3)
H5Z H -0.0443 0.5586 0.4659
H5AA H 0.0443 0.4414 0.4659
H5C H -0.0443 0.5586 0.5341
H5Y H -0.0443 0.4414 0.5341
H5B H 0.0443 0.4414 0.5341
H5X H 0.0443 0.5586 0.5341
H5A H 0.0443 0.5586 0.4659
H5M H 0.0586 0.5443 0.0341
H5MA H -0.0586 0.5443 0.0341
H5LA H 0.0586 0.4557 0.0341
H5N H -0.0586 0.5443 -0.0341
H5JA H 0.0586 0.5443 -0.0341
H5O H 0.0586 0.4557 -0.0341
H5KA H -0.0586 0.4557 -0.0341
H5L H -0.0586 0.4557 0.0341
H5H H 0.4414 0.4659 -0.0443
H5HA H 0.5586 0.4659 -0.0443
H5IA H 0.4414 0.4659 0.0443
H5K H 0.5586 0.5341 -0.0443
H5GA H 0.4414 0.5341 -0.0443
H5J H 0.4414 0.5341 0.0443
H5FA H 0.5586 0.5341 0.0443
H5I H 0.5586 0.4659 0.0443
C10B C -0.0000(4) 0.5000 0.5247
C10L C -0.0000 0.5000(4) 0.0247
C10N C -0.0000 0.5000(4) -0.0247
C10H C 0.5000 0.4753 0.0000(4)
C10J C 0.5000 0.5247 0.0000(4)
loop_
_geom_bond_atom_site_label_1
_geom_bond_atom_site_label_2
_geom_bond_site_symmetry_1
_geom_bond_site_symmetry_2
Zn1 O1 1_555 1_555
O1 C1 1_555 1_555
N1 Zn1 1_555 1_555
C1 C2 1_555 1_555
C2 C3 1_555 1_555
C3 H1 1_555 1_555
C4 C3 1_555 1_555
H2 C4 1_555 1_555
C5 C4 1_555 1_555
C6 C5 1_555 1_555
C7 C6 1_555 1_555
H3 C7 1_555 1_555
C8 N1 1_555 1_555
H4 C8 1_555 1_555
C9 C8 1_555 1_555
H5 C9 1_555 1_555
C10 C9 1_555 1_555
Zn1B O1B 1_555 1_555
Zn1L O1M 1_555 1_555
Zn1H O1H 1_555 1_555
Zn1R O1R 1_555 1_555
Zn1D O1D 1_555 1_555
Zn1V O1W 1_555 1_555
Zn1J O1K 1_555 1_555
Zn1P O1P 1_555 1_555
Zn1F O1F 1_555 1_555
Zn1T O1T 1_555 1_555
Zn1H_2 O1HA 1_555 1_555
Zn1R_2 O1OA 1_555 1_555
Zn1F_2 O1CA 1_555 1_555
Zn1T_2 O1TA 1_555 1_555
Zn1J_2 O1GA 1_555 1_555
Zn1P_2 O1QA 1_555 1_555
Zn1D_2 O1EA 1_555 1_555
Zn1V_2 O1SA 1_555 1_555
Zn1N N1N 1_555 1_555
O1M C1 1_555 1_555
O1H C1H 1_555 1_555
O1R C1H 1_555 1_555
O1D C1D 1_555 1_555
O1W C1D 1_555 1_555
O1A Zn1 1_555 1_555
O1L Zn1L 1_555 1_555
O1K C1K 1_555 1_555
O1P C1K 1_555 1_555
O1F C1F 1_555 1_555
O1T C1F 1_555 1_555
O1AA Zn1 1_555 1_555
O1MA Zn1L 1_555 1_555
O1HA C1HA 1_555 1_555
O1OA C1HA 1_555 1_555
O1CA C1CA 1_555 1_555
O1TA C1CA 1_555 1_555
O1Z Zn1 1_555 1_555
O1LA Zn1L 1_555 1_555
O1GA C1GA 1_555 1_555
O1QA C1GA 1_555 1_555
O1EA C1EA 1_555 1_555
O1SA C1EA 1_555 1_555
O1C Zn1B 1_555 1_555
O1Y Zn1B 1_555 1_555
O1X Zn1B 1_555 1_555
O1I Zn1H 1_555 1_555
O1IA Zn1H 1_555 1_555
O1HA_2 Zn1H 1_555 1_555
O1S Zn1R 1_555 1_555
O1OA_2 Zn1R 1_555 1_555
O1NA Zn1R 1_555 1_555
O1E Zn1D 1_555 1_555
O1EA_2 Zn1D 1_555 1_555
O1DA Zn1D 1_555 1_555
N1B Zn1B 1_555 1_555
N1L Zn1L 1_555 1_555
N1N C8O 1_555 1_555
N1H Zn1H 1_555 1_555
N1J Zn1J_2 1_555 1_555
N1R Zn1R 1_555 1_555
N1D Zn1D 1_555 1_555
C1H C2H 1_555 1_555
C1D C2D 1_555 1_555
C1A O1A 1_555 1_555
C1K C2K 1_555 1_555
C1F C2F 1_555 1_555
C1AA O1AA 1_555 1_555
C1HA C2HA 1_555 1_555
C1CA C2CA 1_555 1_555
C1Z O1Z 1_555 1_555
C1GA C2GA 1_555 1_555
C1EA C2EA 1_555 1_555
C2H C3H 1_555 1_555
C2D C3D 1_555 1_555
C2A C1A 1_555 1_555
C2K C3K 1_555 1_555
C2F C3F 1_555 1_555
C2AA C1AA 1_555 1_555
C2HA C3HA 1_555 1_555
C2CA C3CA 1_555 1_555
C2Z C1Z 1_555 1_555
C2GA C3GA 1_555 1_555
C2EA C3EA 1_555 1_555
C3M C2 1_555 1_555
C3H H1H 1_555 1_555
C3R C2H 1_555 1_555
C3D H1D 1_555 1_555
C3W C2D 1_555 1_555
C3A C2A 1_555 1_555
C3L C2A 1_555 1_555
C3K H1K 1_555 1_555
C3P C2K 1_555 1_555
C3F H1F 1_555 1_555
C3T C2F 1_555 1_555
C3AA C2AA 1_555 1_555
C3MA C2AA 1_555 1_555
C3HA H1HA 1_555 1_555
C3OA C2HA 1_555 1_555
C3CA H1CA 1_555 1_555
C3TA C2CA 1_555 1_555
C3Z C2Z 1_555 1_555
C3LA C2Z 1_555 1_555
C3GA H1GA 1_555 1_555
C3QA C2GA 1_555 1_555
C3EA H1EA 1_555 1_555
C3SA C2EA 1_555 1_555
H1M C3M 1_555 1_555
H1R C3R 1_555 1_555
H1W C3W 1_555 1_555
H1A C3A 1_555 1_555
H1L C3L 1_555 1_555
H1P C3P 1_555 1_555
H1T C3T 1_555 1_555
H1AA C3AA 1_555 1_555
H1MA C3MA 1_555 1_555
H1OA C3OA 1_555 1_555
H1TA C3TA 1_555 1_555
H1Z C3Z 1_555 1_555
H1LA C3LA 1_555 1_555
H1QA C3QA 1_555 1_555
H1SA C3SA 1_555 1_555
C4M C5 1_555 1_555
C4H C3H 1_555 1_555
C4R C3R 1_555 1_555
C4D C3D 1_555 1_555
C4W C3W 1_555 1_555
C4A C3A 1_555 1_555
C4L C3L 1_555 1_555
C4K C3K 1_555 1_555
C4P C3P 1_555 1_555
C4F C3F 1_555 1_555
C4T C3T 1_555 1_555
C4AA C3AA 1_555 1_555
C4MA C3MA 1_555 1_555
C4HA C3HA 1_555 1_555
C4OA C3OA 1_555 1_555
C4CA C3CA 1_555 1_555
C4TA C3TA 1_555 1_555
C4Z C3Z 1_555 1_555
C4LA C3LA 1_555 1_555
C4GA C3GA 1_555 1_555
C4QA C3QA 1_555 1_555
C4EA C3EA 1_555 1_555
C4SA C3SA 1_555 1_555
H2M C4M 1_555 1_555
H2R C4R 1_555 1_555
H2H C4H 1_555 1_555
H2W C4W 1_555 1_555
H2D C4D 1_555 1_555
H2A C4A 1_555 1_555
H2L C4L 1_555 1_555
H2P C4P 1_555 1_555
H2K C4K 1_555 1_555
H2T C4T 1_555 1_555
H2F C4F 1_555 1_555
H2AA C4AA 1_555 1_555
H2MA C4MA 1_555 1_555
H2OA C4OA 1_555 1_555
H2HA C4HA 1_555 1_555
H2TA C4TA 1_555 1_555
H2CA C4CA 1_555 1_555
H2Z C4Z 1_555 1_555
H2LA C4LA 1_555 1_555
H2QA C4QA 1_555 1_555
H2GA C4GA 1_555 1_555
H2SA C4SA 1_555 1_555
H2EA C4EA 1_555 1_555
C5H C4H 1_555 1_555
C5D C4D 1_555 1_555
C5A C4A 1_555 1_555
C5K C4K 1_555 1_555
C5F C4F 1_555 1_555
C5AA C4AA 1_555 1_555
C5HA C4HA 1_555 1_555
C5CA C4CA 1_555 1_555
C5Z C4Z 1_555 1_555
C5GA C4GA 1_555 1_555
C5EA C4EA 1_555 1_555
C6H C7 1_555 1_555
C6D C5D 1_555 1_555
C6A C5A 1_555 1_555
C6K C5K 1_555 1_555
C6F C5F 1_555 1_555
C6AA C5AA 1_555 1_555
C6HA C5HA 1_555 1_555
C6CA C5CA 1_555 1_555
C6Z C5Z 1_555 1_555
C6GA C5GA 1_555 1_555
C6EA C5EA 1_555 1_555
C7H C6H 1_555 1_555
C7D C6 1_555 1_555
C7A C6A 1_555 1_555
C7K C6K 1_555 1_555
C7F C6A 1_555 1_555
C7AA C6AA 1_555 1_555
C7HA C6HA 1_555 1_555
C7CA C6AA 1_555 1_555
C7Z C6Z 1_555 1_555
C7GA C6GA 1_555 1_555
C7EA C6Z 1_555 1_555
H3D C7D 1_555 1_555
H3H C7H 1_555 1_555
H3A C7A 1_555 1_555
H3F C7F 1_555 1_555
H3K C7K 1_555 1_555
H3AA C7AA 1_555 1_555
H3CA C7CA 1_555 1_555
H3HA C7HA 1_555 1_555
H3Z C7Z 1_555 1_555
H3EA C7EA 1_555 1_555
H3GA C7GA 1_555 1_555
C8A N1 1_555 1_555
C8Z N1 1_555 1_555
C8AA N1 1_555 1_555
C8B N1B 1_555 1_555
C8C N1B 1_555 1_555
C8X N1B 1_555 1_555
C8Y N1B 1_555 1_555
C8M N1L 1_555 1_555
C8L N1L 1_555 1_555
C8MA N1L 1_555 1_555
C8LA N1L 1_555 1_555
C8O C8JA 1_555 1_555
C8N N1N 1_555 1_555
C8KA N1N 1_555 1_555
C8JA N1N 1_555 1_555
C8H N1H 1_555 1_555
C8I N1H 1_555 1_555
C8HA N1H 1_555 1_555
C8IA N1H 1_555 1_555
C8J N1J 1_555 1_555
C8K N1J 1_555 1_555
C8FA N1J 1_555 1_555
C8GA N1J 1_555 1_555
H4Z C8Z 1_555 1_555
H4AA C8AA 1_555 1_555
H4C C8C 1_555 1_555
H4Y C8Y 1_555 1_555
H4B C8B 1_555 1_555
H4X C8X 1_555 1_555
H4A C8A 1_555 1_555
H4M C8M 1_555 1_555
H4MA C8MA 1_555 1_555
H4LA C8LA 1_555 1_555
H4N C8N 1_555 1_555
H4JA C8JA 1_555 1_555
H4O C8O 1_555 1_555
H4KA C8KA 1_555 1_555
H4L C8L 1_555 1_555
H4H C8H 1_555 1_555
H4HA C8HA 1_555 1_555
H4IA C8IA 1_555 1_555
H4K C8K 1_555 1_555
H4GA C8GA 1_555 1_555
H4J C8J 1_555 1_555
H4FA C8FA 1_555 1_555
H4I C8I 1_555 1_555
C9A C10 1_555 1_555
C9Z C10 1_555 1_555
C9AA C9 1_555 1_555
C9B C8B 1_555 1_555
C9C C8C 1_555 1_555
C9X C8X 1_555 1_555
C9Y C8Y 1_555 1_555
C9M C8M 1_555 1_555
C9L C8L 1_555 1_555
C9MA C8MA 1_555 1_555
C9LA C8LA 1_555 1_555
C9O C8O 1_555 1_555
C9N C8N 1_555 1_555
C9KA C8KA 1_555 1_555
C9JA C8JA 1_555 1_555
C9H C8H 1_555 1_555
C9I C8I 1_555 1_555
C9HA C8HA 1_555 1_555
C9IA C8IA 1_555 1_555
C9J C8J 1_555 1_555
C9K C8K 1_555 1_555
C9FA C8FA 1_555 1_555
C9GA C8GA 1_555 1_555
H5Z C9Z 1_555 1_555
H5AA C9AA 1_555 1_555
H5C C9C 1_555 1_555
H5Y C9Y 1_555 1_555
H5B C9B 1_555 1_555
H5X C9X 1_555 1_555
H5A C9A 1_555 1_555
H5M C9M 1_555 1_555
H5MA C9MA 1_555 1_555
H5LA C9LA 1_555 1_555
H5N C9N 1_555 1_555
H5JA C9JA 1_555 1_555
H5O C9O 1_555 1_555
H5KA C9KA 1_555 1_555
H5L C9L 1_555 1_555
H5H C9H 1_555 1_555
H5HA C9HA 1_555 1_555
H5IA C9IA 1_555 1_555
H5K C9K 1_555 1_555
H5GA C9GA 1_555 1_555
H5J C9J 1_555 1_555
H5FA C9FA 1_555 1_555
H5I C9I 1_555 1_555
C10B C10 1_555 1_555
C10L C9M 1_555 1_555
C10N C9O 1_555 1_555
C10H C9H 1_555 1_555
C10J C9J 1_555 1_555
C8 C8AA 1_555 1_555
C10 C9AA 1_555 1_555
O1L C1A 1_555 1_555
O1MA C1AA 1_555 1_555
O1LA C1Z 1_555 1_555
C3M C4M 1_555 1_555
C4R C5H 1_555 1_555
C4W C5D 1_555 1_555
C4L C5A 1_555 1_555
C4P C5K 1_555 1_555
C4T C5F 1_555 1_555
C4MA C5AA 1_555 1_555
C4OA C5HA 1_555 1_555
C4TA C5CA 1_555 1_555
C4LA C5Z 1_555 1_555
C4QA C5GA 1_555 1_555
C4SA C5EA 1_555 1_555
C5H C6H 1_555 1_555
C6D C7H 1_555 1_555
C6D C7D 1_555 1_555
C6K C7A 1_555 1_555
C6F C7K 1_555 1_555
C6F C7F 1_555 1_555
C6HA C7AA 1_555 1_555
C6CA C7HA 1_555 1_555
C6CA C7CA 1_555 1_555
C6GA C7Z 1_555 1_555
C6EA C7GA 1_555 1_555
C6EA C7EA 1_555 1_555
C8A C8Z 1_555 1_555
C8A C9A 1_555 1_555
C8Z C9Z 1_555 1_555
C8AA C9AA 1_555 1_555
C8B C8Y 1_555 1_555
C8C C8X 1_555 1_555
C8M C8LA 1_555 1_555
C8L C8MA 1_555 1_555
C8N C8KA 1_555 1_555
C8H C8IA 1_555 1_555
C8I C8HA 1_555 1_555
C8J C8GA 1_555 1_555
C8K C8FA 1_555 1_555
C9A C9Z 1_555 1_555
C9B C9Y 1_555 1_555
C9B C10B 1_555 1_555
C9C C9X 1_555 1_555
C9C C10B 1_555 1_555
C9X C10B 1_555 1_555
C9Y C10B 1_555 1_555
C9M C9LA 1_555 1_555
C9L C9MA 1_555 1_555
C9L C10L 1_555 1_555
C9MA C10L 1_555 1_555
C9LA C10L 1_555 1_555
C9O C9JA 1_555 1_555
C9N C9KA 1_555 1_555
C9N C10N 1_555 1_555
C9KA C10N 1_555 1_555
C9JA C10N 1_555 1_555
C9H C9IA 1_555 1_555
C9I C9HA 1_555 1_555
C9I C10H 1_555 1_555
C9HA C10H 1_555 1_555
C9IA C10H 1_555 1_555
C9J C9GA 1_555 1_555
C9K C9FA 1_555 1_555
C9K C10J 1_555 1_555
C9FA C10J 1_555 1_555
C9GA C10J 1_555 1_555
C10L C10N 1_555 1_555
C10H C10J 1_555 1_555

#END
