
#######################################################################
#
#                 Cambridge Crystallographic Data Centre
#                                CCDC 
#
#######################################################################
#
# If this CIF has been generated from an entry in the Cambridge 
# Structural Database, then it will include bibliographic, chemical, 
# crystal, experimental, refinement or atomic coordinate data resulting 
# from the CCDC's data processing and validation procedures.
#
#######################################################################

data_NAQQIH
_chemical_formula_moiety         '(C28 H38 N4 O69 Si1 W12 Y4)n'
_symmetry_cell_setting           tetragonal
_symmetry_space_group_name_H-M   'I 41/a'
_symmetry_Int_Tables_number      88
_space_group_name_Hall           '-I 4ad'
loop_
_symmetry_equiv_pos_site_id
_symmetry_equiv_pos_as_xyz
1 x,y,z
2 1/2-x,-y,1/2+z
3 3/4-y,1/4+x,1/4+z
4 3/4+y,3/4-x,3/4+z
5 1/2+x,1/2+y,1/2+z
6 -x,1/2-y,z
7 1/4-y,3/4+x,3/4+z
8 1/4+y,1/4-x,1/4+z
9 -x,-y,-z
10 1/2+x,y,1/2-z
11 1/4+y,3/4-x,3/4-z
12 1/4-y,1/4+x,1/4-z
13 1/2-x,1/2-y,1/2-z
14 x,1/2+y,-z
15 3/4+y,1/4-x,1/4-z
16 3/4-y,3/4+x,3/4-z
_cell_length_a                   21.8154(9)
_cell_length_b                   21.8154(9)
_cell_length_c                   16.1967(12)
_cell_angle_alpha                90
_cell_angle_beta                 90
_cell_angle_gamma                90
_cell_volume                     7708.2
loop_
_atom_site_label
_atom_site_type_symbol
_atom_site_fract_x
_atom_site_fract_y
_atom_site_fract_z
Y1 Y 1.33502(7) 0.36759(6) -0.12623(8)
O1 O 1.2547(5) 0.3894(5) -0.2255(6)
O2 O 1.2238(5) 0.4275(5) -0.3462(6)
O3 O 1.5241(6) 0.4199(5) -0.1959(7)
O4 O 1.4419(6) 0.3857(5) -0.1328(7)
O5 O 1.3500(8) 0.2880(6) -0.2223(8)
O6 O 1.3705(5) 0.3831(5) 0.0106(7)
O7 O 1.2388(6) 0.3627(6) -0.0625(7)
N1 N 1.3686(5) 0.4202(5) -0.2526(7)
C1 C 1.4272(7) 0.4350(8) -0.2612(9)
C2 C 1.4492(7) 0.4692(7) -0.3288(9)
H1 H 1.4904 0.4794 -0.3341
C3 C 1.4064(7) 0.4868(7) -0.3867(9)
H2 H 1.4187 0.5106 -0.4313
C4 C 1.3450(8) 0.4697(8) -0.3798(10)
H3 H 1.3163 0.4800 -0.4200
C5 C 1.3292(7) 0.4370(7) -0.3111(9)
C6 C 1.2646(7) 0.4162(7) -0.2955(9)
C7 C 1.4675(7) 0.4123(7) -0.1923(9)
Y1B Y 1.38241(6) 0.58502(7) 0.12377(8)
Y1O Y 1.38241(6) 0.08502(7) -0.12377(8)
Y1C Y 1.11759(6) 0.41498(7) -0.37623(8)
Y1J Y 1.61759(6) 0.41498(7) -0.12377(8)
Y1M Y 1.33502(7) 0.86759(6) 0.12623(8)
Y1M_2 Y 1.33502(7) -0.13241(6) 0.12623(8)
Y1A Y 1.16498(7) 0.63241(6) 0.37377(8)
Y1K Y 0.88241(6) 0.58502(7) 0.37623(8)
O1B O 1.3606(5) 0.5047(5) 0.0245(6)
O1O O 1.3606(5) 0.0047(5) -0.0245(6)
O1A O 1.2453(5) 0.6106(5) 0.2745(6)
O1C O 1.1394(5) 0.4953(5) -0.4755(6)
O2B O 1.3225(5) 0.4738(5) -0.0962(6)
O2O O 1.3225(5) -0.0262(5) 0.0962(6)
O2A O 1.2762(5) 0.5725(5) 0.1538(6)
O2L O 1.2762(5) 0.0725(5) -0.1538(6)
O3B O 1.3301(5) 0.7741(6) 0.0541(7)
O3O O 1.3301(5) 0.2741(6) -0.0541(7)
O3A O 0.9759(6) 0.5801(5) 0.3041(7)
O3H O 1.4759(6) 0.5801(5) 0.1959(7)
O3E O 1.4759(6) 0.0801(5) -0.1959(7)
O3I O 1.0241(6) 0.4199(5) -0.3041(7)
O4B O 1.3643(5) 0.6919(6) 0.1172(7)
O4O O 1.3643(5) 0.1919(6) -0.1172(7)
O4A O 1.0581(6) 0.6143(5) 0.3672(7)
O4C O 1.1357(5) 0.3081(6) -0.3828(7)
O5B O 1.4620(6) 0.6000(8) 0.0277(8)
O5O O 1.4620(6) 0.1000(8) -0.0277(8)
O5C O 1.0380(6) 0.4000(8) -0.4723(8)
O6B O 1.3669(5) 0.6205(5) 0.2606(7)
O6O O 1.3669(5) 0.1205(5) -0.2606(7)
O6C O 1.1331(5) 0.3795(5) -0.2394(7)
O7B O 1.3873(6) 0.4888(6) 0.1875(7)
O7O O 1.3873(6) -0.0112(6) -0.1875(7)
O7C O 1.1127(6) 0.5112(6) -0.3125(7)
N1B N 1.3298(5) 0.6186(5) -0.0026(7)
N1O N 1.3298(5) 0.1186(5) 0.0026(7)
N1A N 1.1314(5) 0.5798(5) 0.2474(7)
N1C N 1.1702(5) 0.3814(5) -0.5026(7)
C1B C 1.3150(8) 0.6772(7) -0.0112(9)
C1O C 1.3150(8) 0.1772(7) 0.0112(9)
C1A C 1.0728(7) 0.5650(8) 0.2388(9)
C2B C 1.2808(7) 0.6992(7) -0.0788(9)
C2O C 1.2808(7) 0.1992(7) 0.0788(9)
C2A C 1.0508(7) 0.5308(7) 0.1712(9)
H1B H 1.2706 0.7404 -0.0841
H1O H 1.2706 0.2404 0.0841
H1A H 1.0096 0.5206 0.1659
C3B C 1.2632(7) 0.6564(7) -0.1367(9)
C3O C 1.2632(7) 0.1564(7) 0.1367(9)
C3A C 1.0936(7) 0.5132(7) 0.1133(9)
H2B H 1.2394 0.6687 -0.1813
H2O H 1.2394 0.1687 0.1813
H2A H 1.0813 0.4894 0.0687
C4B C 1.2803(8) 0.5950(8) -0.1298(10)
C4O C 1.2803(8) 0.0950(8) 0.1298(10)
C4A C 1.1550(8) 0.5303(8) 0.1202(10)
H3B H 1.2700 0.5663 -0.1700
H3O H 1.2700 0.0663 0.1700
H3A H 1.1837 0.5200 0.0800
C5B C 1.3130(7) 0.5792(7) -0.0611(9)
C5O C 1.3130(7) 0.0792(7) 0.0611(9)
C5A C 1.1708(7) 0.5630(7) 0.1889(9)
C6B C 1.3338(7) 0.5146(7) -0.0455(9)
C6O C 1.3338(7) 0.0146(7) 0.0455(9)
C6A C 1.2354(7) 0.5838(7) 0.2045(9)
C7B C 1.3377(7) 0.7175(7) 0.0577(9)
C7O C 1.3377(7) 0.2175(7) -0.0577(9)
C7A C 1.0325(7) 0.5877(7) 0.3077(9)
Si1 Si 1.0000 0.7500 -0.1250
W1 W 0.96737(3) 0.64206(3) 0.02915(3)
W2 W 1.10686(3) 0.70571(3) 0.02962(3)
W3 W 1.06872(3) 0.60509(3) -0.11694(3)
O8 O 0.9336(5) 0.5959(5) 0.1002(6)
O9 O 1.1626(5) 0.7028(5) 0.1039(6)
O10 O 1.1002(5) 0.5348(5) -0.1405(6)
O11 O 1.0426(4) 0.6629(5) 0.0831(6)
O12 O 1.1234(5) 0.6327(4) -0.0311(6)
O13 O 1.0122(5) 0.5816(5) -0.0323(6)
O14 O 0.9348(4) 0.7198(4) 0.0570(6)
O15 O 1.1439(4) 0.7526(5) -0.0561(6)
O16 O 0.9076(4) 0.6398(4) -0.0576(6)
O17 O 1.0261(4) 0.6956(4) -0.0676(6)
W1E W 1.03263(3) 0.85794(3) 0.02915(3)
W1J W 0.89206(3) 0.78263(3) -0.27915(3)
W1O W 1.10794(3) 0.71737(3) -0.27915(3)
W2E W 0.89314(3) 0.79429(3) 0.02962(3)
W2J W 0.95571(3) 0.64314(3) -0.27962(3)
W2O W 1.04429(3) 0.85686(3) -0.27962(3)
W3J W 0.85509(3) 0.68128(3) -0.13306(3)
W3E W 0.93128(3) 0.89491(3) -0.11694(3)
W3O W 1.14491(3) 0.81872(3) -0.13306(3)
O8E O 1.0664(5) 0.9041(5) 0.1002(6)
O8J O 0.8459(5) 0.8164(5) -0.3502(6)
O8O O 1.1541(5) 0.6836(5) -0.3502(6)
O9E O 0.8374(5) 0.7972(5) 0.1039(6)
O9J O 0.9528(5) 0.5874(5) -0.3539(6)
O9O O 1.0472(5) 0.9126(5) -0.3539(6)
O10J O 0.7848(5) 0.6498(5) -0.1095(6)
O10E O 0.8998(5) 0.9652(5) -0.1405(6)
O10O O 1.2152(5) 0.8502(5) -0.1095(6)
O11E O 0.9574(4) 0.8371(5) 0.0831(6)
O11J O 0.9129(5) 0.7074(4) -0.3331(6)
O11O O 1.0871(5) 0.7926(4) -0.3331(6)
O12E O 0.8766(5) 0.8673(4) -0.0311(6)
O12J O 0.8827(4) 0.6266(5) -0.2189(6)
O12O O 1.1173(4) 0.8734(5) -0.2189(6)
O13E O 0.9878(5) 0.9184(5) -0.0323(6)
O13J O 0.8316(5) 0.7378(5) -0.2177(6)
O13O O 1.1684(5) 0.7622(5) -0.2177(6)
O14E O 1.0652(4) 0.7802(4) 0.0570(6)
O14J O 0.9698(4) 0.8152(4) -0.3070(6)
O14O O 1.0302(4) 0.6848(4) -0.3070(6)
O15J O 1.0026(5) 0.6061(4) -0.1939(6)
O15E O 0.8561(4) 0.7474(5) -0.0561(6)
O15O O 0.9974(5) 0.8939(4) -0.1939(6)
O16O O 1.1102(4) 0.6576(4) -0.1924(6)
O16E O 1.0924(4) 0.8602(4) -0.0576(6)
O16J O 0.8898(4) 0.8424(4) -0.1924(6)
O17E O 0.9739(4) 0.8044(4) -0.0676(6)
O17J O 0.9456(4) 0.7239(4) -0.1824(6)
O17O O 1.0544(4) 0.7761(4) -0.1824(6)
O18 O 1.1857(7) 0.4672(7) -0.0617(10)
loop_
_geom_bond_atom_site_label_1
_geom_bond_atom_site_label_2
_geom_bond_site_symmetry_1
_geom_bond_site_symmetry_2
Y1 O1 1_555 1_555
O1 C6 1_555 1_555
O2 C6 1_555 1_555
O3 C7 1_555 1_555
O4 Y1 1_555 1_555
O5 Y1 1_555 1_555
O6 Y1 1_555 1_555
O7 Y1 1_555 1_555
N1 Y1 1_555 1_555
C1 N1 1_555 1_555
C2 C1 1_555 1_555
H1 C2 1_555 1_555
C3 C2 1_555 1_555
H2 C3 1_555 1_555
C4 C3 1_555 1_555
H3 C4 1_555 1_555
C5 N1 1_555 1_555
C6 C5 1_555 1_555
C7 O4 1_555 1_555
Si1 O17 1_555 1_555
W1 O8 1_555 1_555
W2 O9 1_555 1_555
W3 O10 1_555 1_555
O11 W1 1_555 1_555
O12 W2 1_555 1_555
O13 W1 1_555 1_555
O14 W1 1_555 1_555
O15 W2 1_555 1_555
O16 W1 1_555 1_555
O17 W1 1_555 1_555
Y1B O1B 1_555 1_555
Y1O O1O 1_555 1_555
Y1C O2 1_555 1_555
Y1J O3 1_555 1_555
Y1M O3B 1_555 1_555
Y1M_2 O2O 1_555 1_555
Y1A O1A 1_555 1_555
Y1K O3A 1_555 1_555
O1B C6B 1_555 1_555
O1O C6O 1_555 1_555
O1A C6A 1_555 1_555
O1C Y1C 1_555 1_555
O2B Y1 1_555 1_555
O2O C6O 1_555 1_555
O2A Y1B 1_555 1_555
O2L Y1O 1_555 1_555
O3B C7B 1_555 1_555
O3O Y1 1_555 1_555
O3A C7A 1_555 1_555
O3H Y1B 1_555 1_555
O3E Y1O 1_555 1_555
O3I Y1C 1_555 1_555
O4B Y1B 1_555 1_555
O4O Y1O 1_555 1_555
O4A Y1A 1_555 1_555
O4C Y1C 1_555 1_555
O5B Y1B 1_555 1_555
O5O Y1O 1_555 1_555
O5C Y1C 1_555 1_555
O6B Y1B 1_555 1_555
O6O Y1O 1_555 1_555
O6C Y1C 1_555 1_555
O7B Y1B 1_555 1_555
O7O Y1O 1_555 1_555
O7C Y1C 1_555 1_555
N1B Y1B 1_555 1_555
N1O Y1O 1_555 1_555
N1A Y1A 1_555 1_555
N1C Y1C 1_555 1_555
C1B N1B 1_555 1_555
C1O N1O 1_555 1_555
C1A N1A 1_555 1_555
C2B C1B 1_555 1_555
C2O C1O 1_555 1_555
C2A C1A 1_555 1_555
H1B C2B 1_555 1_555
H1O C2O 1_555 1_555
H1A C2A 1_555 1_555
C3B C2B 1_555 1_555
C3O C2O 1_555 1_555
C3A C2A 1_555 1_555
H2B C3B 1_555 1_555
H2O C3O 1_555 1_555
H2A C3A 1_555 1_555
C4B C3B 1_555 1_555
C4O C3O 1_555 1_555
C4A C3A 1_555 1_555
H3B C4B 1_555 1_555
H3O C4O 1_555 1_555
H3A C4A 1_555 1_555
C5B N1B 1_555 1_555
C5O N1O 1_555 1_555
C5A N1A 1_555 1_555
C6B O2B 1_555 1_555
C6O C5O 1_555 1_555
C6A O2A 1_555 1_555
C7B O4B 1_555 1_555
C7O O3O 1_555 1_555
C7A O4A 1_555 1_555
W1E O8E 1_555 1_555
W1J O8J 1_555 1_555
W1O O8O 1_555 1_555
W2E O14 1_555 1_555
W2J O9J 1_555 1_555
W2O O9O 1_555 1_555
W3J O16 1_555 1_555
W3E O10E 1_555 1_555
W3O O15 1_555 1_555
O9E W2E 1_555 1_555
O10J W3J 1_555 1_555
O10O W3O 1_555 1_555
O11E W1E 1_555 1_555
O11J W1J 1_555 1_555
O11O W1O 1_555 1_555
O12E W2E 1_555 1_555
O12J W2J 1_555 1_555
O12O W2O 1_555 1_555
O13E W1E 1_555 1_555
O13J W1J 1_555 1_555
O13O W1O 1_555 1_555
O14E W2 1_555 1_555
O14J W1J 1_555 1_555
O14O W1O 1_555 1_555
O15J W3 1_555 1_555
O15E W2E 1_555 1_555
O15O W2O 1_555 1_555
O16O W3 1_555 1_555
O16E W1E 1_555 1_555
O16J W1J 1_555 1_555
O17E Si1 1_555 1_555
O17J Si1 1_555 1_555
O17O Si1 1_555 1_555
C1 C7 1_555 1_555
C4 C5 1_555 1_555
W2 O11 1_555 1_555
W2 O17 1_555 1_555
W3 O12 1_555 1_555
W3 O13 1_555 1_555
W3 O17 1_555 1_555
O4O C7O 1_555 1_555
C1B C7B 1_555 1_555
C1O C7O 1_555 1_555
C1A C7A 1_555 1_555
C4B C5B 1_555 1_555
C4O C5O 1_555 1_555
C4A C5A 1_555 1_555
C5B C6B 1_555 1_555
C5A C6A 1_555 1_555
W1E O14E 1_555 1_555
W1E O17E 1_555 1_555
W1J O17J 1_555 1_555
W1O O16O 1_555 1_555
W1O O17O 1_555 1_555
W2E O11E 1_555 1_555
W2E O17E 1_555 1_555
W2J O11J 1_555 1_555
W2J O14O 1_555 1_555
W2J O15J 1_555 1_555
W2J O17J 1_555 1_555
W2O O11O 1_555 1_555
W2O O14J 1_555 1_555
W2O O17O 1_555 1_555
W3J O12J 1_555 1_555
W3J O13J 1_555 1_555
W3J O15E 1_555 1_555
W3J O17J 1_555 1_555
W3E O12E 1_555 1_555
W3E O13E 1_555 1_555
W3E O15O 1_555 1_555
W3E O16J 1_555 1_555
W3E O17E 1_555 1_555
W3O O12O 1_555 1_555
W3O O13O 1_555 1_555
W3O O16E 1_555 1_555
W3O O17O 1_555 1_555

#END
