
#######################################################################
#
#                 Cambridge Crystallographic Data Centre
#                                CCDC 
#
#######################################################################
#
# If this CIF has been generated from an entry in the Cambridge 
# Structural Database, then it will include bibliographic, chemical, 
# crystal, experimental, refinement or atomic coordinate data resulting 
# from the CCDC's data processing and validation procedures.
#
#######################################################################

data_FITJEY
_chemical_formula_moiety         '(C22 H54 Er6 N2 O56 P2)n'
_symmetry_cell_setting           monoclinic
_symmetry_space_group_name_H-M   'P 21/n'
_symmetry_Int_Tables_number      14
_space_group_name_Hall           '-P 2yn'
loop_
_symmetry_equiv_pos_site_id
_symmetry_equiv_pos_as_xyz
1 x,y,z
2 1/2-x,1/2+y,1/2-z
3 -x,-y,-z
4 1/2+x,1/2-y,1/2+z
_cell_length_a                   10.04760(10)
_cell_length_b                   22.2426(2)
_cell_length_c                   14.9869(2)
_cell_angle_alpha                90
_cell_angle_beta                 107.5860(10)
_cell_angle_gamma                90
_cell_volume                     3192.81
loop_
_atom_site_label
_atom_site_type_symbol
_atom_site_fract_x
_atom_site_fract_y
_atom_site_fract_z
Er1 Er -0.02620(4) 0.858605(17) 0.50261(3)
Er2 Er -0.41716(4) 0.843790(17) 0.75316(3)
Er3 Er -0.24157(4) 0.986160(18) 1.09258(3)
P1 P -0.4506(2) 0.99139(10) 0.84556(14)
N1 N -0.3789(9) 1.0298(3) 0.6895(6)
H1 H -0.3701 0.9895 0.6827
C1 C -0.2184(8) 0.8188(3) 0.6293(5)
C2 C -0.2399(8) 0.8875(4) 0.6181(6)
C3 C 0.0257(9) 0.7809(4) 0.3360(6)
C4 C 0.0474(9) 0.7364(4) 0.4193(6)
C5 C 0.2519(9) 0.8381(4) 0.6696(6)
C6 C 0.3019(8) 0.8498(4) 0.5839(6)
C7 C 0.0443(8) 1.0011(4) 0.5520(5)
C8 C 0.0096(9) 0.9649(4) 1.0009(6)
C9 C -0.3532(11) 1.0416(5) 0.7902(7)
H2 H -0.2542 1.0372 0.8221
H3 H -0.3787 1.0829 0.7982
C10 C -0.5218(15) 1.0466(7) 0.6334(9)
H4 H -0.5881 1.0268 0.6579
H5 H -0.5332 1.0894 0.6363
H6 H -0.5372 1.0347 0.5695
C11 C -0.2719(17) 1.0602(6) 0.6526(10)
H7 H -0.1799 1.0486 0.6899
H8 H -0.2861 1.0482 0.5888
H9 H -0.2816 1.1030 0.6555
O1 O -0.2787(6) 0.7916(2) 0.6795(4)
O2 O -0.1419(6) 0.7961(2) 0.5856(4)
O3 O -0.1860(7) 0.9134(3) 0.5647(4)
O4 O -0.3134(7) 0.9097(2) 0.6649(4)
O5 O 0.0482(7) 0.7615(3) 0.2634(4)
O6 O -0.0108(6) 0.8329(2) 0.3493(4)
O7 O 0.0800(7) 0.6830(3) 0.4041(4)
O8 O 0.0299(6) 0.7556(3) 0.4924(4)
O9 O 0.4327(6) 0.8476(3) 0.5992(4)
O10 O 0.2131(6) 0.8604(3) 0.5089(4)
O11 O 0.3432(6) 0.8327(3) 0.7472(4)
O12 O 0.1221(6) 0.8341(3) 0.6550(4)
O13 O 0.0821(7) 0.9520(2) 0.5909(4)
O14 O 0.0705(6) 1.0528(2) 0.5881(4)
O15 O -0.0669(7) 0.9356(3) 1.0370(5)
O16 O 0.0956(7) 0.9451(3) 0.9644(5)
O17 O -0.3566(8) 0.9840(4) 0.9438(5)
O18 O -0.5887(7) 1.0201(3) 0.8391(5)
O19 O -0.4684(7) 0.9343(3) 0.7896(5)
O20 O -0.3481(8) 1.0840(3) 1.0709(6)
O21 O -0.1011(9) 1.0468(3) 1.2185(5)
O22 O -0.1884(7) 0.8569(4) 0.8567(5)
O23 O -0.3146(8) 0.8829(3) 1.0684(5)
O24 O -0.1184(8) 0.9268(3) 1.2237(5)
O25 O -0.2512(7) 0.8301(3) 0.3994(4)
Er1B Er 0.02620(4) 1.141395(17) 0.49739(3)
Er1C Er -0.52620(4) 0.641395(17) 1.00261(3)
Er1_2 Er -1.02620(4) 0.858605(17) 0.50261(3)
Er2C Er 0.08284(4) 0.656210(17) 0.25316(3)
Er2_2 Er 0.58284(4) 0.843790(17) 0.75316(3)
Er2B Er 0.41716(4) 1.156210(17) 0.24684(3)
Er3C Er 0.25843(4) 0.513840(18) 0.59258(3)
Er3B Er 0.24157(4) 1.013840(18) 0.90742(3)
Er3B_2 Er -0.75843(4) 1.013840(18) 0.90742(3)
Er3A Er -0.25843(4) 0.486160(18) 0.40742(3)
P1C P 0.0494(2) 0.50861(10) 0.34556(14)
N1C N 0.1211(9) 0.4702(3) 0.1895(6)
H1C H 0.1299 0.5105 0.1827
C1B C 0.2184(8) 1.1812(3) 0.3707(5)
C2B C 0.2399(8) 1.1125(4) 0.3819(6)
C3C C -0.4743(9) 0.7191(4) 0.8360(6)
C4C C -0.4526(9) 0.7636(4) 0.9193(6)
C5_2 C -0.7481(9) 0.8381(4) 0.6696(6)
C6_2 C -0.6981(8) 0.8498(4) 0.5839(6)
C7B C -0.0443(8) 0.9989(4) 0.4480(5)
C8B C -0.0096(9) 1.0351(4) 0.9991(6)
C9C C 0.1468(11) 0.4584(5) 0.2902(7)
H2C H 0.2458 0.4628 0.3221
H3C H 0.1213 0.4171 0.2982
C10C C -0.0218(15) 0.4534(7) 0.1334(9)
H4C H -0.0881 0.4732 0.1579
H5C H -0.0332 0.4106 0.1363
H6C H -0.0372 0.4653 0.0695
C11C C 0.2281(17) 0.4398(6) 0.1526(10)
H7C H 0.3201 0.4514 0.1899
H8C H 0.2139 0.4518 0.0888
H9C H 0.2184 0.3970 0.1555
O1B O 0.2787(6) 1.2084(2) 0.3205(4)
O1C O 0.2213(6) 0.7084(2) 0.1795(4)
O2B O 0.1419(6) 1.2039(2) 0.4144(4)
O3B O 0.1860(7) 1.0866(3) 0.4353(4)
O4B O 0.3134(7) 1.0903(2) 0.3351(4)
O4C O 0.1866(7) 0.5903(2) 0.1649(4)
O5C O -0.4518(7) 0.7385(3) 0.7634(4)
O6C O -0.5108(6) 0.6671(2) 0.8493(4)
O6B O 0.0108(6) 1.1671(2) 0.6507(4)
O7C O -0.4200(7) 0.8170(3) 0.9041(4)
O8C O -0.4701(6) 0.7444(3) 0.9924(4)
O8B O -0.0299(6) 1.2444(3) 0.5076(4)
O9_2 O -0.5673(6) 0.8476(3) 0.5992(4)
O9C O -0.0673(6) 0.6524(3) 0.0992(4)
O10_2 O -0.7869(6) 0.8604(3) 0.5089(4)
O10B O -0.2131(6) 1.1396(3) 0.4911(4)
O11_2 O -0.6568(6) 0.8327(3) 0.7472(4)
O11C O -0.1568(6) 0.6673(3) 0.2472(4)
O12_2 O -0.8779(6) 0.8341(3) 0.6550(4)
O12B O -0.1221(6) 1.1659(3) 0.3450(4)
O13B O -0.0821(7) 1.0480(2) 0.4091(4)
O14B O -0.0705(6) 0.9472(2) 0.4119(4)
O15B O 0.0669(7) 1.0644(3) 0.9630(5)
O15C O 0.4331(7) 0.5644(3) 0.5370(5)
O16B O -0.0956(7) 1.0549(3) 1.0356(5)
O16A O 0.4044(7) 0.4451(3) 0.5356(5)
O17C O 0.1434(8) 0.5160(4) 0.4438(5)
O18C O -0.0887(7) 0.4799(3) 0.3391(5)
O18B O -0.4113(7) 0.9799(3) 1.1609(5)
O18A O 0.0887(7) 0.5201(3) 0.6609(5)
O19C O 0.0316(7) 0.5657(3) 0.2896(5)
O20C O 0.1519(8) 0.4160(3) 0.5709(6)
O21C O 0.3989(9) 0.4532(3) 0.7185(5)
O22C O 0.3116(7) 0.6431(4) 0.3567(5)
O23C O 0.1854(8) 0.6171(3) 0.5684(5)
O24C O 0.3816(8) 0.5732(3) 0.7237(5)
O25B O 0.2512(7) 1.1699(3) 0.6006(4)
O26 O -0.4608(9) 0.6822(4) 0.5823(6)
O27 O -0.1164(9) 0.3071(4) 0.2986(6)
O28 O -0.2379(9) 0.6802(4) 0.5083(6)
O29 O -0.1157(8) 0.6909(3) 0.7651(5)
O30 O 0.5578(8) 0.6693(3) 0.3258(5)
O31 O 0.5183(7) 0.7910(3) 0.4589(5)
loop_
_geom_bond_atom_site_label_1
_geom_bond_atom_site_label_2
_geom_bond_site_symmetry_1
_geom_bond_site_symmetry_2
Er1 O2 1_555 1_555
Er2 O1 1_555 1_555
Er3 O15 1_555 1_555
P1 C9 1_555 1_555
N1 H1 1_555 1_555
C1 C2 1_555 1_555
C2 O3 1_555 1_555
C3 C4 1_555 1_555
C4 O7 1_555 1_555
C5 C6 1_555 1_555
C6 O9 1_555 1_555
C7 O13 1_555 1_555
C8 O15 1_555 1_555
C9 N1 1_555 1_555
H2 C9 1_555 1_555
H3 C9 1_555 1_555
C10 N1 1_555 1_555
H4 C10 1_555 1_555
H5 C10 1_555 1_555
H6 C10 1_555 1_555
C11 N1 1_555 1_555
H7 C11 1_555 1_555
H8 C11 1_555 1_555
H9 C11 1_555 1_555
O1 C1 1_555 1_555
O2 C1 1_555 1_555
O3 Er1 1_555 1_555
O4 Er2 1_555 1_555
O5 C3 1_555 1_555
O6 Er1 1_555 1_555
O7 Er2C 1_555 1_555
O8 Er1 1_555 1_555
O9 Er2_2 1_555 1_555
O10 Er1 1_555 1_555
O11 C5 1_555 1_555
O12 Er1 1_555 1_555
O13 Er1 1_555 1_555
O14 C7 1_555 1_555
O16 C8 1_555 1_555
O17 Er3 1_555 1_555
O18 P1 1_555 1_555
O19 Er2 1_555 1_555
O20 Er3 1_555 1_555
O21 Er3 1_555 1_555
O22 Er2 1_555 1_555
O23 Er3 1_555 1_555
O24 Er3 1_555 1_555
O25 Er1 1_555 1_555
Er1B O14 1_555 1_555
Er1C O6C 1_555 1_555
Er1_2 O10_2 1_555 1_555
Er2C O5 1_555 1_555
Er2_2 O11 1_555 1_555
Er2B O1B 1_555 1_555
Er3C O15C 1_555 1_555
Er3B O16 1_555 1_555
Er3B_2 O18 1_555 1_555
Er3A O18C 1_555 1_555
P1C C9C 1_555 1_555
N1C H1C 1_555 1_555
C1B C2B 1_555 1_555
C2B O3B 1_555 1_555
C3C C4C 1_555 1_555
C4C O7C 1_555 1_555
C5_2 C6_2 1_555 1_555
C6_2 O9_2 1_555 1_555
C7B C7 1_555 1_555
C8B C8 1_555 1_555
C9C N1C 1_555 1_555
H2C C9C 1_555 1_555
H3C C9C 1_555 1_555
C10C N1C 1_555 1_555
H4C C10C 1_555 1_555
H5C C10C 1_555 1_555
H6C C10C 1_555 1_555
C11C N1C 1_555 1_555
H7C C11C 1_555 1_555
H8C C11C 1_555 1_555
H9C C11C 1_555 1_555
O1B C1B 1_555 1_555
O1C Er2C 1_555 1_555
O2B Er1B 1_555 1_555
O3B Er1B 1_555 1_555
O4B Er2B 1_555 1_555
O4C Er2C 1_555 1_555
O5C Er2 1_555 1_555
O6C C3C 1_555 1_555
O6B Er1B 1_555 1_555
O7C Er2 1_555 1_555
O8C Er1C 1_555 1_555
O8B Er1B 1_555 1_555
O9_2 Er2 1_555 1_555
O9C Er2C 1_555 1_555
O10_2 C6_2 1_555 1_555
O10B Er1B 1_555 1_555
O11_2 Er2 1_555 1_555
O11C Er2C 1_555 1_555
O12_2 Er1_2 1_555 1_555
O12B Er1B 1_555 1_555
O13B Er1B 1_555 1_555
O14B Er1 1_555 1_555
O15B Er3B 1_555 1_555
O16B Er3 1_555 1_555
O16A Er3C 1_555 1_555
O17C Er3C 1_555 1_555
O18C P1C 1_555 1_555
O18B Er3 1_555 1_555
O18A Er3C 1_555 1_555
O19C Er2C 1_555 1_555
O20C Er3C 1_555 1_555
O21C Er3C 1_555 1_555
O22C Er2C 1_555 1_555
O23C Er3C 1_555 1_555
O24C Er3C 1_555 1_555
O25B Er1B 1_555 1_555
P1 O17 1_555 1_555
P1 O19 1_555 1_555
C2 O4 1_555 1_555
C3 O6 1_555 1_555
C4 O8 1_555 1_555
C5 O12 1_555 1_555
C6 O10 1_555 1_555
P1C O17C 1_555 1_555
P1C O19C 1_555 1_555
C1B O2B 1_555 1_555
C2B O4B 1_555 1_555
C3C O5C 1_555 1_555
C4C O8C 1_555 1_555
C5_2 O11_2 1_555 1_555
C5_2 O12_2 1_555 1_555
C7B O13B 1_555 1_555
C7B O14B 1_555 1_555
C8B O15B 1_555 1_555
C8B O16B 1_555 1_555

#END
