
#######################################################################
#
#                 Cambridge Crystallographic Data Centre
#                                CCDC 
#
#######################################################################
#
# If this CIF has been generated from an entry in the Cambridge 
# Structural Database, then it will include bibliographic, chemical, 
# crystal, experimental, refinement or atomic coordinate data resulting 
# from the CCDC's data processing and validation procedures.
#
#######################################################################

data_SOBZEQ
_chemical_formula_moiety         '(C28 H35 Ca1 Cd1 N3 O12)n'
_symmetry_cell_setting           monoclinic
_symmetry_space_group_name_H-M   'P 21/n'
_symmetry_Int_Tables_number      14
_space_group_name_Hall           '-P 2yn'
loop_
_symmetry_equiv_pos_site_id
_symmetry_equiv_pos_as_xyz
1 x,y,z
2 1/2-x,1/2+y,1/2-z
3 -x,-y,-z
4 1/2+x,1/2-y,1/2+z
_cell_length_a                   14.2767(4)
_cell_length_b                   13.9129(3)
_cell_length_c                   18.6230(5)
_cell_angle_alpha                90
_cell_angle_beta                 94.191(2)
_cell_angle_gamma                90
_cell_volume                     3689.2
loop_
_atom_site_label
_atom_site_type_symbol
_atom_site_fract_x
_atom_site_fract_y
_atom_site_fract_z
_atom_site_U_iso_or_equiv
_atom_site_thermal_displace_type
Cd1 Cd 0.502580(14) 0.543005(14) 0.226420(11) 0.0184 Uani
Ca1 Ca 0.08458(4) 0.79805(4) 0.87205(3) 0.0214 Uani
C1 C 0.3017(2) 0.7040(2) 0.33047(16) 0.0236 Uani
C2 C 0.2376(2) 0.7683(2) 0.29802(16) 0.0252 Uani
H1 H 0.2365 0.7803 0.2488 0.0300 Uiso
C3 C 0.1751(2) 0.8143(2) 0.34000(16) 0.0252 Uani
C4 C 0.1732(2) 0.7908(2) 0.41222(17) 0.0294 Uani
H2 H 0.1290 0.8200 0.4393 0.0350 Uiso
C5 C 0.2354(2) 0.7248(2) 0.44532(16) 0.0262 Uani
C6 C 0.3014(2) 0.6836(2) 0.40320(16) 0.0253 Uani
H3 H 0.3459 0.6415 0.4243 0.0300 Uiso
C7 C 0.2329(2) 0.7010(2) 0.52343(16) 0.0262 Uani
C8 C 0.2828(2) 0.6226(2) 0.55409(16) 0.0280 Uani
H4 H 0.3151 0.5820 0.5248 0.0340 Uiso
C9 C 0.2849(2) 0.6046(2) 0.62735(16) 0.0245 Uani
C10 C 0.2349(2) 0.6627(2) 0.67125(16) 0.0264 Uani
H5 H 0.2362 0.6508 0.7204 0.0320 Uiso
C11 C 0.1829(2) 0.7388(2) 0.64152(16) 0.0249 Uani
C12 C 0.1833(2) 0.7569(2) 0.56848(16) 0.0264 Uani
H6 H 0.1488 0.8086 0.5491 0.0320 Uiso
C13 C 0.3728(2) 0.6562(2) 0.28704(16) 0.0219 Uani
C14 C 0.1115(2) 0.8927(2) 0.30919(17) 0.0283 Uani
C15 C 0.3463(2) 0.5244(2) 0.65947(17) 0.0263 Uani
C16 C 0.1271(2) 0.8025(2) 0.68741(16) 0.0241 Uani
C17 C 0.2933(5) 0.6916(4) 0.9382(5) 0.1226 Uani
C18 C 0.3640(4) 0.6703(7) 0.8769(4) 0.1435 Uani
H7 H 0.4186 0.6377 0.8978 0.2150 Uiso
H8 H 0.3823 0.7298 0.8560 0.2150 Uiso
H9 H 0.3332 0.6305 0.8402 0.2150 Uiso
C19 C 0.4123(5) 0.6107(7) 1.0138(5) 0.1856 Uani
H10 H 0.4526 0.6006 0.9754 0.2780 Uiso
H11 H 0.3957 0.5498 1.0335 0.2780 Uiso
H12 H 0.4445 0.6489 1.0508 0.2780 Uiso
C20 C 0.2544(6) 0.6832(8) 1.0531(3) 0.1749 Uani
H13 H 0.2020 0.7199 1.0328 0.2620 Uiso
H14 H 0.2870 0.7192 1.0912 0.2620 Uiso
H15 H 0.2322 0.6239 1.0720 0.2620 Uiso
C21 C -0.0523(3) 0.5947(3) 0.8357(4) 0.0751 Uani
C22 C -0.0989(4) 0.5462(3) 0.9027(4) 0.0881 Uani
H16 H -0.0725 0.5742 0.9467 0.1320 Uiso
H17 H -0.0867 0.4783 0.9030 0.1320 Uiso
H18 H -0.1655 0.5570 0.8984 0.1320 Uiso
C23 C -0.0436(5) 0.6113(4) 0.7143(3) 0.0925 Uani
H19 H 0.0025 0.6577 0.7316 0.1390 Uiso
H20 H -0.0931 0.6432 0.6859 0.1390 Uiso
H21 H -0.0146 0.5645 0.6852 0.1390 Uiso
C24 C -0.1555(4) 0.4879(4) 0.7640(4) 0.1135 Uani
H22 H -0.1727 0.4630 0.8093 0.1710 Uiso
H23 H -0.1313 0.4368 0.7362 0.1710 Uiso
H24 H -0.2098 0.5153 0.7383 0.1710 Uiso
O1 O 0.44785(14) 0.62474(14) 0.32118(11) 0.0240 Uani
O2 O 0.02729(19) 0.8077(2) 0.98743(13) 0.0523 Uani
H25 H -0.0163 0.8520 0.9965 0.0630 Uiso
H26 H 0.0491 0.7672 1.0225 0.0630 Uiso
O3 O 0.35836(17) 0.64669(17) 0.22084(12) 0.0377 Uani
O4 O 0.11098(17) 0.91236(17) 0.24362(12) 0.0387 Uani
O5 O 0.06242(17) 0.93607(16) 0.35190(13) 0.0365 Uani
O6 O 0.07936(17) 0.86689(16) 0.65469(12) 0.0359 Uani
O7 O 0.13009(17) 0.78934(16) 0.75380(12) 0.0352 Uani
O8 O 0.37391(17) 0.53466(16) 0.72435(12) 0.0355 Uani
O9 O 0.36592(19) 0.45658(15) 0.62011(13) 0.0403 Uani
O10 O 0.2191(2) 0.7321(2) 0.92178(16) 0.0613 Uani
O11 O 0.0061(2) 0.65677(18) 0.84864(17) 0.0570 Uani
N1 N 0.3302(4) 0.6589(4) 0.9869(4) 0.1184 Uani
N2 N -0.0832(3) 0.5623(3) 0.7769(4) 0.1014 Uani
Cd1A Cd -0.002580(14) 1.043005(14) 0.273580(11) 0.0184 Uani
Cd1B Cd 0.497420(14) 0.456995(14) 0.773580(11) 0.0184 Uani
Cd1C Cd 0.002580(14) 0.956995(14) 0.726420(11) 0.0184 Uani
Ca1A Ca 0.41542(4) 0.29805(4) 0.62795(3) 0.0214 Uani
Ca1C Ca 0.58458(4) 0.70195(4) 0.37205(3) 0.0214 Uani
O1C O -0.05215(14) 0.87526(14) 0.82118(11) 0.0240 Uani
O4A O 0.38902(17) 0.41236(17) 0.25638(12) 0.0387 Uani
O5A O 0.43758(17) 0.43607(16) 0.14810(13) 0.0365 Uani
O6C O 0.57936(17) 0.63311(16) 0.15469(12) 0.0359 Uani
O8B O 0.62609(17) 0.46534(16) 0.27565(12) 0.0355 Uani
O9A O 0.13408(19) 0.95658(15) 0.87989(13) 0.0403 Uani
C25 C 0.4317(4) 0.8409(4) 0.6322(4) 0.0865 Uani
C26 C 0.4813(4) 0.7721(4) 0.6869(4) 0.0961 Uani
H27 H 0.4619 0.7858 0.7340 0.1440 Uiso
H28 H 0.5481 0.7804 0.6867 0.1440 Uiso
H29 H 0.4652 0.7070 0.6741 0.1440 Uiso
C27 C 0.3559(5) 0.9135(5) 0.7316(4) 0.1174 Uani
H30 H 0.3929 0.8689 0.7610 0.1760 Uiso
H31 H 0.2905 0.9011 0.7360 0.1760 Uiso
H32 H 0.3705 0.9779 0.7472 0.1760 Uiso
C28 C 0.3255(5) 0.9680(4) 0.6010(4) 0.1097 Uani
H33 H 0.3462 0.9558 0.5540 0.1650 Uiso
H34 H 0.3382 1.0338 0.6140 0.1650 Uiso
H35 H 0.2592 0.9561 0.6007 0.1650 Uiso
O12 O 0.4466(3) 0.8343(3) 0.5664(2) 0.0919 Uani
N3 N 0.3775(4) 0.9022(4) 0.6554(3) 0.1016 Uani
loop_
_atom_site_aniso_label
_atom_site_aniso_U_11
_atom_site_aniso_U_22
_atom_site_aniso_U_33
_atom_site_aniso_U_23
_atom_site_aniso_U_13
_atom_site_aniso_U_12
Cd1 0.02039(13) 0.01859(13) 0.01656(13) -0.00190(8) 0.00387(8) -0.00271(9)
Ca1 0.0249(3) 0.0214(3) 0.0177(3) 0.0026(2) 0.0007(2) -0.0006(3)
C1 0.0242(16) 0.0233(15) 0.0237(16) -0.0003(12) 0.0047(12) 0.0004(13)
C2 0.0274(17) 0.0314(17) 0.0170(15) 0.0018(12) 0.0023(12) 0.0059(14)
C3 0.0262(17) 0.0275(16) 0.0220(16) 0.0025(13) 0.0024(13) 0.0084(14)
C4 0.0324(18) 0.0321(17) 0.0244(17) 0.0027(14) 0.0067(14) 0.0118(15)
C5 0.0297(17) 0.0297(17) 0.0196(16) 0.0023(13) 0.0050(13) 0.0076(14)
C6 0.0267(17) 0.0265(16) 0.0232(17) 0.0032(13) 0.0049(13) 0.0103(14)
C7 0.0317(18) 0.0300(17) 0.0173(16) 0.0013(13) 0.0049(13) 0.0107(14)
C8 0.0299(17) 0.0305(17) 0.0240(17) -0.0011(13) 0.0050(13) 0.0130(15)
C9 0.0287(17) 0.0238(16) 0.0211(16) 0.0000(12) 0.0015(13) 0.0075(14)
C10 0.0297(17) 0.0315(17) 0.0178(15) -0.0003(13) 0.0012(13) 0.0053(14)
C11 0.0255(17) 0.0264(16) 0.0232(16) -0.0020(13) 0.0055(13) 0.0073(14)
C12 0.0275(17) 0.0275(16) 0.0244(17) 0.0007(13) 0.0037(13) 0.0123(14)
C13 0.0251(16) 0.0179(14) 0.0236(17) 0.0001(12) 0.0071(13) 0.0009(13)
C14 0.0284(17) 0.0253(16) 0.0306(19) 0.0051(14) -0.0011(14) 0.0039(14)
C15 0.0257(17) 0.0293(17) 0.0244(17) 0.0037(14) 0.0054(13) 0.0057(14)
C16 0.0255(17) 0.0252(16) 0.0222(17) -0.0039(13) 0.0060(13) 0.0011(14)
C17 0.097(5) 0.065(4) 0.191(8) 0.017(4) -0.091(6) -0.008(3)
C18 0.080(5) 0.244(10) 0.111(6) -0.057(6) 0.037(4) 0.037(6)
C19 0.099(6) 0.249(10) 0.200(10) 0.109(9) -0.049(6) 0.061(7)
C20 0.156(8) 0.317(14) 0.052(4) 0.034(6) 0.009(5) -0.065(8)
C21 0.054(3) 0.036(3) 0.132(5) -0.027(3) -0.016(3) 0.011(2)
C22 0.080(4) 0.061(3) 0.126(6) 0.017(3) 0.025(4) -0.009(3)
C23 0.113(5) 0.077(4) 0.088(4) -0.004(3) 0.011(4) -0.008(4)
C24 0.066(4) 0.071(4) 0.200(8) -0.051(4) -0.015(4) -0.023(3)
O1 0.0211(11) 0.0266(11) 0.0245(11) -0.0051(9) 0.0027(9) 0.0039(9)
O2 0.0598(18) 0.0681(18) 0.0304(14) -0.0003(13) 0.0119(13) -0.0012(14)
O3 0.0417(14) 0.0520(15) 0.0197(12) -0.0010(10) 0.0052(10) 0.0150(12)
O4 0.0503(16) 0.0412(14) 0.0242(13) 0.0097(10) 0.0010(11) 0.0181(12)
O5 0.0400(14) 0.0385(13) 0.0320(13) 0.0096(10) 0.0096(11) 0.0227(11)
O6 0.0436(14) 0.0373(13) 0.0272(12) -0.0044(10) 0.0052(10) 0.0242(11)
O7 0.0449(15) 0.0398(13) 0.0224(13) -0.0037(10) 0.0122(10) 0.0081(11)
O8 0.0395(14) 0.0406(14) 0.0257(13) 0.0019(10) -0.0030(10) 0.0155(11)
O9 0.0561(17) 0.0321(13) 0.0324(14) 0.0010(10) 0.0021(12) 0.0239(12)
O10 0.0440(17) 0.080(2) 0.0574(18) 0.0120(16) -0.0141(14) 0.0238(16)
O11 0.0608(19) 0.0303(14) 0.079(2) -0.0063(14) -0.0001(16) -0.0146(14)
N1 0.083(4) 0.109(4) 0.152(5) 0.043(4) -0.067(4) 0.005(3)
N2 0.065(3) 0.061(3) 0.175(6) -0.043(3) -0.014(4) 0.003(2)
Cd1A 0.02039 0.01859 0.01656 0.0019 0.00387 0.00271
Cd1B 0.02039 0.01859 0.01656 -0.0019 0.00387 -0.00271
Cd1C 0.02039 0.01859 0.01656 0.0019 0.00387 0.00271
Ca1A 0.0249 0.0214 0.0177 -0.0026 0.0007 0.0006
Ca1C 0.0249 0.0214 0.0177 -0.0026 0.0007 0.0006
O1C 0.0211 0.0266 0.0245 0.0051 0.0027 -0.0039
O4A 0.0503 0.0412 0.0242 -0.0097 0.001 -0.0181
O5A 0.04 0.0385 0.032 -0.0096 0.0096 -0.0227
O6C 0.0436 0.0373 0.0272 0.0044 0.0052 -0.0242
O8B 0.0395 0.0406 0.0257 0.0019 -0.003 0.0155
O9A 0.0561 0.0321 0.0324 -0.001 0.0021 -0.0239
C25 0.072(4) 0.064(4) 0.125(6) -0.017(4) 0.017(4) -0.018(3)
C26 0.094(4) 0.080(4) 0.111(5) 0.025(4) -0.015(4) 0.002(3)
C27 0.105(5) 0.139(6) 0.113(6) -0.066(5) 0.041(4) -0.026(5)
C28 0.097(5) 0.058(3) 0.171(8) 0.016(4) -0.011(5) 0.023(3)
O12 0.122(4) 0.076(2) 0.082(3) -0.002(2) 0.037(3) 0.020(2)
N3 0.086(4) 0.081(3) 0.141(5) -0.034(3) 0.030(4) -0.025(3)
loop_
_geom_bond_atom_site_label_1
_geom_bond_atom_site_label_2
_geom_bond_site_symmetry_1
_geom_bond_site_symmetry_2
Cd1 O1 1_555 1_555
Ca1 O2 1_555 1_555
C1 C2 1_555 1_555
C2 H1 1_555 1_555
C3 C2 1_555 1_555
C4 C3 1_555 1_555
H2 C4 1_555 1_555
C5 C4 1_555 1_555
C6 C1 1_555 1_555
H3 C6 1_555 1_555
C7 C5 1_555 1_555
C8 C7 1_555 1_555
H4 C8 1_555 1_555
C9 C8 1_555 1_555
C10 C9 1_555 1_555
H5 C10 1_555 1_555
C11 C10 1_555 1_555
C12 C7 1_555 1_555
H6 C12 1_555 1_555
C13 C1 1_555 1_555
C14 C3 1_555 1_555
C15 C9 1_555 1_555
C16 C11 1_555 1_555
C17 C18 1_555 1_555
C18 H7 1_555 1_555
H8 C18 1_555 1_555
H9 C18 1_555 1_555
C19 H10 1_555 1_555
H11 C19 1_555 1_555
H12 C19 1_555 1_555
C20 H13 1_555 1_555
H14 C20 1_555 1_555
H15 C20 1_555 1_555
C21 C22 1_555 1_555
C22 H16 1_555 1_555
H17 C22 1_555 1_555
H18 C22 1_555 1_555
C23 H19 1_555 1_555
H20 C23 1_555 1_555
H21 C23 1_555 1_555
C24 H22 1_555 1_555
H23 C24 1_555 1_555
H24 C24 1_555 1_555
O1 C13 1_555 1_555
O2 H25 1_555 1_555
H26 O2 1_555 1_555
O3 Cd1 1_555 1_555
O4 C14 1_555 1_555
O5 C14 1_555 1_555
O6 C16 1_555 1_555
O7 Ca1 1_555 1_555
O8 C15 1_555 1_555
O9 C15 1_555 1_555
O10 Ca1 1_555 1_555
O11 Ca1 1_555 1_555
N1 C17 1_555 1_555
N2 C21 1_555 1_555
C25 C26 1_555 1_555
C26 H27 1_555 1_555
H28 C26 1_555 1_555
H29 C26 1_555 1_555
C27 H30 1_555 1_555
H31 C27 1_555 1_555
H32 C27 1_555 1_555
C28 H33 1_555 1_555
H34 C28 1_555 1_555
H35 C28 1_555 1_555
O12 C25 1_555 1_555
N3 C25 1_555 1_555
Cd1A O4 1_555 1_555
Cd1B O8 1_555 1_555
Cd1C O6 1_555 1_555
Ca1A O9 1_555 1_555
Ca1C O1 1_555 1_555
O1C Ca1 1_555 1_555
O4A Cd1 1_555 1_555
O5A Cd1 1_555 1_555
O6C Cd1 1_555 1_555
O8B Cd1 1_555 1_555
O9A Ca1 1_555 1_555
C5 C6 1_555 1_555
C11 C12 1_555 1_555
C13 O3 1_555 1_555
C16 O7 1_555 1_555
C17 O10 1_555 1_555
C19 N1 1_555 1_555
C20 N1 1_555 1_555
C21 O11 1_555 1_555
C23 N2 1_555 1_555
C24 N2 1_555 1_555
O5 Cd1A 1_555 1_555
C27 N3 1_555 1_555
C28 N3 1_555 1_555
Cd1C O1C 1_555 1_555

#END
