
#######################################################################
#
#                 Cambridge Crystallographic Data Centre
#                                CCDC 
#
#######################################################################
#
# If this CIF has been generated from an entry in the Cambridge 
# Structural Database, then it will include bibliographic, chemical, 
# crystal, experimental, refinement or atomic coordinate data resulting 
# from the CCDC's data processing and validation procedures.
#
#######################################################################

data_LICKAL
_chemical_formula_moiety         '(C14 H21 N2 O17 P4 Zn3 1-)n'
_symmetry_cell_setting           monoclinic
_symmetry_space_group_name_H-M   'P 21/c'
_symmetry_Int_Tables_number      14
_space_group_name_Hall           '-P 2ybc'
loop_
_symmetry_equiv_pos_site_id
_symmetry_equiv_pos_as_xyz
1 x,y,z
2 -x,1/2+y,1/2-z
3 -x,-y,-z
4 x,1/2-y,1/2+z
_cell_length_a                   9.655(3)
_cell_length_b                   9.344(3)
_cell_length_c                   30.965(9)
_cell_angle_alpha                90
_cell_angle_beta                 93.859(5)
_cell_angle_gamma                90
_cell_volume                     2787.21
loop_
_atom_site_label
_atom_site_type_symbol
_atom_site_fract_x
_atom_site_fract_y
_atom_site_fract_z
O15 O 0.1319(10) 0.3553(10) 0.4068(3)
O16 O 0.8867(10) 0.4768(10) 0.3389(4)
O17 O 0.052(2) 0.359(2) 0.4887(6)
Zn1 Zn 0.53047(6) 0.28510(6) 0.140955(18)
Zn2 Zn 0.70144(6) 0.54825(6) 0.038172(18)
Zn3 Zn 0.44079(6) 0.31141(6) 0.307644(17)
P1 P 0.46114(12) 0.12142(12) 0.22151(4)
P2 P 0.74526(12) 0.07250(12) 0.18290(4)
P3 P 0.41330(12) 0.37673(12) 0.05168(4)
P4 P 0.51896(12) 0.61306(12) 0.11199(4)
O1 O 0.4084(4) 0.2157(4) 0.18378(11)
O2 O 0.4015(3) 0.1691(4) 0.26313(11)
O3 O 0.4317(3) -0.0384(3) 0.21295(11)
O4 O 0.6757(4) 0.1436(4) 0.14249(11)
O5 O 0.7282(4) -0.0899(4) 0.18154(12)
O6 O 0.8957(3) 0.1149(4) 0.19106(12)
O7 O 0.6904(4) 0.2878(4) 0.22954(12)
H1 H 0.6485 0.3304 0.2478
O8 O 0.4133(4) 0.2623(4) 0.08650(11)
O9 O 0.5565(4) 0.3957(4) 0.03404(11)
O10 O 0.3021(4) 0.3473(4) 0.01562(11)
O11 O 0.4672(4) 0.7357(4) 0.13919(10)
O12 O 0.5719(4) 0.4878(4) 0.13949(12)
O13 O 0.6258(4) 0.6688(4) 0.08224(11)
O14 O 0.3258(4) 0.6540(4) 0.04550(11)
H2 H 0.3618 0.6361 0.0229
N1 N 1.0367(4) -0.1118(5) 0.29854(15)
H3 H 1.0695 -0.1973 0.2996
N2 N -0.1194(4) 0.4527(5) 0.05946(14)
C1 C 0.6518(5) 0.1395(5) 0.22925(14)
C2 C 0.6936(5) 0.0618(6) 0.27236(15)
H4 H 0.6537 0.1142 0.2955
H5 H 0.6509 -0.0322 0.2712
C3 C 0.8455(5) 0.0428(5) 0.28431(15)
C4 C 0.9325(6) 0.1565(6) 0.29615(18)
H6 H 0.8973 0.2492 0.2956
C5 C 1.0704(6) 0.1339(6) 0.3088(2)
H7 H 1.1281 0.2104 0.3169
C6 C 1.1207(6) -0.0026(7) 0.3093(2)
H8 H 1.2140 -0.0195 0.3171
C7 C 0.9031(5) -0.0921(5) 0.28619(16)
H9 H 0.8478 -0.1710 0.2787
C8 C 0.3676(5) 0.5474(5) 0.07770(15)
C9 C 0.2450(5) 0.5319(6) 0.10713(15)
H10 H 0.2808 0.4859 0.1337
H11 H 0.2168 0.6276 0.1148
C10 C 0.1149(5) 0.4516(5) 0.09123(15)
C11 C 0.0962(6) 0.3095(6) 0.10302(19)
H12 H 0.1677 0.2609 0.1184
C12 C -0.0273(6) 0.2399(6) 0.0922(2)
H13 H -0.0390 0.1442 0.0993
C13 C -0.1331(6) 0.3157(6) 0.0705(2)
H14 H -0.2170 0.2697 0.0634
C14 C 0.0035(5) 0.5184(6) 0.06961(17)
H15 H 0.0132 0.6136 0.0616
Zn2_2 Zn -0.29856(6) 0.54825(6) 0.038172(18)
Zn2B Zn 0.29856(6) 0.45175(6) -0.038172(18)
Zn3A Zn 0.55921(6) -0.18859(6) 0.192356(17)
Zn3A_2 Zn 0.55921(6) 0.81141(6) 0.192356(17)
O3A O 0.5683(3) 0.4616(3) 0.28705(11)
O5A O 0.2718(4) 0.4101(4) 0.31846(12)
O10B O 0.6979(4) 0.6527(4) -0.01562(11)
O11A O 0.5328(4) 0.2357(4) 0.36081(10)
N2_2 N 0.8806(4) 0.4527(5) 0.05946(14)
loop_
_geom_bond_atom_site_label_1
_geom_bond_atom_site_label_2
_geom_bond_site_symmetry_1
_geom_bond_site_symmetry_2
Zn1 O1 1_555 1_555
Zn2 O9 1_555 1_555
Zn3 O2 1_555 1_555
P1 O1 1_555 1_555
P2 O4 1_555 1_555
P3 O8 1_555 1_555
P4 O11 1_555 1_555
O2 P1 1_555 1_555
O3 P1 1_555 1_555
O4 Zn1 1_555 1_555
O5 P2 1_555 1_555
O6 P2 1_555 1_555
O7 H1 1_555 1_555
O8 Zn1 1_555 1_555
O9 P3 1_555 1_555
O10 P3 1_555 1_555
O11 Zn3A_2 1_555 1_555
O12 Zn1 1_555 1_555
O13 Zn2 1_555 1_555
O14 H2 1_555 1_555
N1 H3 1_555 1_555
N2 C13 1_555 1_555
C1 P1 1_555 1_555
C2 C1 1_555 1_555
H4 C2 1_555 1_555
H5 C2 1_555 1_555
C3 C2 1_555 1_555
C4 C3 1_555 1_555
H6 C4 1_555 1_555
C5 C4 1_555 1_555
H7 C5 1_555 1_555
C6 N1 1_555 1_555
H8 C6 1_555 1_555
C7 N1 1_555 1_555
H9 C7 1_555 1_555
C8 P3 1_555 1_555
C9 C8 1_555 1_555
H10 C9 1_555 1_555
H11 C9 1_555 1_555
C10 C9 1_555 1_555
C11 C10 1_555 1_555
H12 C11 1_555 1_555
C12 C11 1_555 1_555
H13 C12 1_555 1_555
C13 C12 1_555 1_555
H14 C13 1_555 1_555
C14 N2 1_555 1_555
H15 C14 1_555 1_555
Zn2_2 N2 1_555 1_555
Zn2B O10 1_555 1_555
Zn3A O3 1_555 1_555
O3A Zn3 1_555 1_555
O5A Zn3 1_555 1_555
O10B Zn2 1_555 1_555
O11A Zn3 1_555 1_555
N2_2 Zn2 1_555 1_555
P2 C1 1_555 1_555
P4 O12 1_555 1_555
P4 O13 1_555 1_555
P4 C8 1_555 1_555
O5 Zn3A 1_555 1_555
O7 C1 1_555 1_555
O14 C8 1_555 1_555
C3 C7 1_555 1_555
C5 C6 1_555 1_555
C10 C14 1_555 1_555

#END
