
#######################################################################
#
#                 Cambridge Crystallographic Data Centre
#                                CCDC 
#
#######################################################################
#
# If this CIF has been generated from an entry in the Cambridge 
# Structural Database, then it will include bibliographic, chemical, 
# crystal, experimental, refinement or atomic coordinate data resulting 
# from the CCDC's data processing and validation procedures.
#
#######################################################################

data_TENLIJ
_chemical_formula_moiety         '(C53 H46 N8 O25 Zn4)n'
_symmetry_cell_setting           tetragonal
_symmetry_space_group_name_H-M   'I 41/a'
_symmetry_Int_Tables_number      88
_space_group_name_Hall           '-I 4ad'
loop_
_symmetry_equiv_pos_site_id
_symmetry_equiv_pos_as_xyz
1 x,y,z
2 1/2-x,-y,1/2+z
3 3/4-y,1/4+x,1/4+z
4 3/4+y,3/4-x,3/4+z
5 1/2+x,1/2+y,1/2+z
6 -x,1/2-y,z
7 1/4-y,3/4+x,3/4+z
8 1/4+y,1/4-x,1/4+z
9 -x,-y,-z
10 1/2+x,y,1/2-z
11 1/4+y,3/4-x,3/4-z
12 1/4-y,1/4+x,1/4-z
13 1/2-x,1/2-y,1/2-z
14 x,1/2+y,-z
15 3/4+y,1/4-x,1/4-z
16 3/4-y,3/4+x,3/4-z
_cell_length_a                   18.3697(16)
_cell_length_b                   18.3697(16)
_cell_length_c                   23.507(5)
_cell_angle_alpha                90
_cell_angle_beta                 90
_cell_angle_gamma                90
_cell_volume                     7932.34
loop_
_atom_site_label
_atom_site_type_symbol
_atom_site_fract_x
_atom_site_fract_y
_atom_site_fract_z
_atom_site_U_iso_or_equiv
_atom_site_thermal_displace_type
C1 C 0.3681(3) 0.7811(3) 0.1794(3) 0.0703 Uani
C2 C 0.3494(3) 0.7186(3) 0.2187(2) 0.0733 Uani
C3 C 0.3493(5) 0.7201(5) 0.2770(3) 0.1110 Uani
H1 H 0.3648 0.7618 0.2959 0.1330 Uiso
C4 C 0.3267(7) 0.6613(5) 0.3076(4) 0.1337 Uani
H2 H 0.3227 0.6631 0.3470 0.1600 Uiso
C5 C 0.3094(5) 0.5966(5) 0.2763(3) 0.1107 Uani
H3 H 0.2963 0.5542 0.2953 0.1330 Uiso
C6 C 0.3125(3) 0.5983(3) 0.2187(3) 0.0740 Uani
C7 C 0.2939(3) 0.5371(3) 0.1799(3) 0.0803 Uani
C8 C 0.2111(4) 0.6395(3) 0.0293(3) 0.0967 Uani
H4 H 0.2213 0.5904 0.0350 0.1160 Uiso
C9 C 0.1557(4) 0.6572(3) -0.0087(3) 0.0897 Uani
H5 H 0.1288 0.6212 -0.0269 0.1080 Uiso
C10 C 0.1421(3) 0.7294(3) -0.0184(2) 0.0663 Uani
C11 C 0.1820(4) 0.7805(3) 0.0109(3) 0.0907 Uani
H6 H 0.1730 0.8301 0.0067 0.1090 Uiso
C12 C 0.2351(4) 0.7556(4) 0.0462(3) 0.0890 Uani
H7 H 0.2639 0.7904 0.0640 0.1070 Uiso
C13 C 0.0524(3) 0.7060(3) -0.0880(2) 0.0680 Uani
H8 H 0.0256 0.6721 -0.0643 0.0820 Uiso
H9 H 0.0858 0.6785 -0.1117 0.0820 Uiso
C14 C 0.0000 0.7500 -0.1250 0.0543 Uani
N1 N 0.2495(3) 0.6867(2) 0.0574(2) 0.0677 Uani
N2 N 0.3317(2) 0.6596(2) 0.1918(2) 0.0617 Uani
O1 O 0.3661(2) 0.7695(2) 0.12787(17) 0.0767 Uani
O2 O 0.3853(3) 0.8409(2) 0.20207(18) 0.0877 Uani
O3 O 0.2995(3) 0.5489(2) 0.1274(2) 0.0873 Uani
O4 O 0.2782(3) 0.4770(3) 0.2028(3) 0.1220 Uani
O5 O 0.0910(2) 0.7557(2) -0.05394(19) 0.0807 Uani
Zn1 Zn 0.33361(4) 0.65507(4) 0.10599(3) 0.0693 Uani
C1E C -0.3681(3) 0.7189(3) 0.1794(3) 0.0703 Uani
C1J C 0.0311(3) 0.3819(3) -0.4294(3) 0.0703 Uani
C1O C -0.0311(3) 1.1181(3) -0.4294(3) 0.0703 Uani
C2E C -0.3494(3) 0.7814(3) 0.2187(2) 0.0733 Uani
C2J C -0.0314(3) 0.4006(3) -0.4687(2) 0.0733 Uani
C2O C 0.0314(3) 1.0994(3) -0.4687(2) 0.0733 Uani
C3E C -0.3493(5) 0.7799(5) 0.2770(3) 0.1110 Uani
C3J C -0.0299(5) 0.4007(5) -0.5270(3) 0.1110 Uani
C3O C 0.0299(5) 1.0993(5) -0.5270(3) 0.1110 Uani
H1E H -0.3648 0.7382 0.2959 0.1330 Uiso
H1J H 0.0118 0.3852 -0.5459 0.1330 Uiso
H1O H -0.0118 1.1148 -0.5459 0.1330 Uiso
C4E C -0.3267(7) 0.8387(5) 0.3076(4) 0.1337 Uani
C4J C -0.0887(5) 0.4233(7) -0.5576(4) 0.1337 Uani
C4O C 0.0887(5) 1.0767(7) -0.5576(4) 0.1337 Uani
H2E H -0.3227 0.8369 0.3470 0.1600 Uiso
H2J H -0.0869 0.4273 -0.5970 0.1600 Uiso
H2O H 0.0869 1.0727 -0.5970 0.1600 Uiso
C5E C -0.3094(5) 0.9034(5) 0.2763(3) 0.1107 Uani
C5J C -0.1534(5) 0.4406(5) -0.5263(3) 0.1107 Uani
C5O C 0.1534(5) 1.0594(5) -0.5263(3) 0.1107 Uani
H3E H -0.2963 0.9458 0.2953 0.1330 Uiso
H3J H -0.1958 0.4537 -0.5453 0.1330 Uiso
H3O H 0.1958 1.0463 -0.5453 0.1330 Uiso
C6E C -0.3125(3) 0.9017(3) 0.2187(3) 0.0740 Uani
C6J C -0.1517(3) 0.4375(3) -0.4687(3) 0.0740 Uani
C6O C 0.1517(3) 1.0625(3) -0.4687(3) 0.0740 Uani
C7E C -0.2939(3) 0.9629(3) 0.1799(3) 0.0803 Uani
C7J C -0.2129(3) 0.4561(3) -0.4299(3) 0.0803 Uani
C7O C 0.2129(3) 1.0439(3) -0.4299(3) 0.0803 Uani
C8E C -0.2111(4) 0.8605(3) 0.0293(3) 0.0967 Uani
C8J C -0.1105(3) 0.5389(4) -0.2793(3) 0.0967 Uani
C8O C 0.1105(3) 0.9611(4) -0.2793(3) 0.0967 Uani
H4E H -0.2213 0.9096 0.0350 0.1160 Uiso
H4J H -0.1596 0.5287 -0.2850 0.1160 Uiso
H4O H 0.1596 0.9713 -0.2850 0.1160 Uiso
C9E C -0.1557(4) 0.8428(3) -0.0087(3) 0.0897 Uani
C9J C -0.0928(3) 0.5943(4) -0.2413(3) 0.0897 Uani
C9O C 0.0928(3) 0.9057(4) -0.2413(3) 0.0897 Uani
H5E H -0.1288 0.8788 -0.0269 0.1080 Uiso
H5J H -0.1288 0.6212 -0.2231 0.1080 Uiso
H5O H 0.1288 0.8788 -0.2231 0.1080 Uiso
C10E C -0.1421(3) 0.7706(3) -0.0184(2) 0.0663 Uani
C10J C -0.0206(3) 0.6079(3) -0.2316(2) 0.0663 Uani
C10O C 0.0206(3) 0.8921(3) -0.2316(2) 0.0663 Uani
C11E C -0.1820(4) 0.7195(3) 0.0109(3) 0.0907 Uani
C11J C 0.0305(3) 0.5680(4) -0.2609(3) 0.0907 Uani
C11O C -0.0305(3) 0.9320(4) -0.2609(3) 0.0907 Uani
H6E H -0.1730 0.6699 0.0067 0.1090 Uiso
H6J H 0.0801 0.5770 -0.2567 0.1090 Uiso
H6O H -0.0801 0.9230 -0.2567 0.1090 Uiso
C12E C -0.2351(4) 0.7444(4) 0.0462(3) 0.0890 Uani
C12J C 0.0056(4) 0.5149(4) -0.2962(3) 0.0890 Uani
C12O C -0.0056(4) 0.9851(4) -0.2962(3) 0.0890 Uani
H7E H -0.2639 0.7096 0.0640 0.1070 Uiso
H7J H 0.0404 0.4861 -0.3140 0.1070 Uiso
H7O H -0.0404 1.0139 -0.3140 0.1070 Uiso
C13E C -0.0524(3) 0.7940(3) -0.0880(2) 0.0680 Uani
C13J C -0.0440(3) 0.6976(3) -0.1620(2) 0.0680 Uani
C13O C 0.0440(3) 0.8024(3) -0.1620(2) 0.0680 Uani
H8E H -0.0256 0.8279 -0.0643 0.0820 Uiso
H8J H -0.0779 0.7244 -0.1857 0.0820 Uiso
H8O H 0.0779 0.7756 -0.1857 0.0820 Uiso
H9E H -0.0858 0.8215 -0.1117 0.0820 Uiso
H9J H -0.0715 0.6642 -0.1383 0.0820 Uiso
H9O H 0.0715 0.8358 -0.1383 0.0820 Uiso
N1E N -0.2495(3) 0.8133(2) 0.0574(2) 0.0677 Uani
N1J N -0.0633(2) 0.5005(3) -0.3074(2) 0.0677 Uani
N1O N 0.0633(2) 0.9995(3) -0.3074(2) 0.0677 Uani
N2E N -0.3317(2) 0.8404(2) 0.1918(2) 0.0617 Uani
N2J N -0.0904(2) 0.4183(2) -0.4418(2) 0.0617 Uani
N2O N 0.0904(2) 1.0817(2) -0.4418(2) 0.0617 Uani
O1E O -0.3661(2) 0.7305(2) 0.12787(17) 0.0767 Uani
O1J O 0.0195(2) 0.3839(2) -0.37787(17) 0.0767 Uani
O1O O -0.0195(2) 1.1161(2) -0.37787(17) 0.0767 Uani
O2E O -0.3853(3) 0.6591(2) 0.20207(18) 0.0877 Uani
O2J O 0.0909(2) 0.3647(3) -0.45207(18) 0.0877 Uani
O2O O -0.0909(2) 1.1353(3) -0.45207(18) 0.0877 Uani
O2A O 0.1147(3) 1.1591(2) -0.29793(18) 0.0877 Uani
O2D O -0.1147(3) 0.3409(2) -0.29793(18) 0.0877 Uani
O2K O 0.4091(2) 0.6353(3) 0.04793(18) 0.0877 Uani
O2N O -0.4091(2) 0.8647(3) 0.04793(18) 0.0877 Uani
O3E O -0.2995(3) 0.9511(2) 0.1274(2) 0.0873 Uani
O3J O -0.2011(2) 0.4505(3) -0.3774(2) 0.0873 Uani
O3O O 0.2011(2) 1.0495(3) -0.3774(2) 0.0873 Uani
O4E O -0.2782(3) 1.0230(3) 0.2028(3) 0.1220 Uani
O4J O -0.2730(3) 0.4718(3) -0.4528(3) 0.1220 Uani
O4O O 0.2730(3) 1.0282(3) -0.4528(3) 0.1220 Uani
O5E O -0.0910(2) 0.7443(2) -0.05394(19) 0.0807 Uani
O5J O 0.0057(2) 0.6590(2) -0.19606(19) 0.0807 Uani
O5O O -0.0057(2) 0.8410(2) -0.19606(19) 0.0807 Uani
Zn1E Zn -0.33361(4) 0.84493(4) 0.10599(3) 0.0693 Uani
Zn1J Zn -0.09493(4) 0.41639(4) -0.35599(3) 0.0693 Uani
Zn1O Zn 0.09493(4) 1.08361(4) -0.35599(3) 0.0693 Uani
Zn1A Zn 0.16639(4) 0.34493(4) -0.39401(3) 0.0693 Uani
Zn1D Zn -0.16639(4) 1.15507(4) -0.39401(3) 0.0693 Uani
Zn1K Zn -0.40507(4) 0.58361(4) 0.14401(3) 0.0693 Uani
Zn1N Zn 0.40507(4) 0.91639(4) 0.14401(3) 0.0693 Uani
O6 O 0.2157(7) 0.3775(7) 0.1285(5) 0.0613 Uani
H10 H 0.2337 0.4199 0.1252 0.0920 Uiso
H11 H 0.2361 0.3556 0.1560 0.0920 Uiso
O7 O 0.2969(8) 0.3891(8) 0.2982(8) 0.0873 Uani
H12 H 0.3039 0.4286 0.2802 0.1310 Uiso
H13 H 0.2933 0.3551 0.2731 0.1310 Uiso
O8 O 0.269(5) 0.238(2) 0.1487(18) 0.4467 Uani
H14 H 0.2571 0.2782 0.1326 0.6730 Uiso
H15 H 0.2970 0.2472 0.1765 0.6730 Uiso
O9 O 0.433(4) 0.239(2) 0.1473(13) 0.3300 Uani
H16 H 0.4633 0.2547 0.1715 0.4940 Uiso
H17 H 0.4553 0.2167 0.1209 0.4940 Uiso
O10 O 0.344(2) 0.173(3) 0.1019(18) 0.2367 Uani
H18 H 0.3435 0.2188 0.1023 0.2860 Uiso
H19 H 0.3100 0.1569 0.0809 0.3580 Uiso
loop_
_atom_site_aniso_label
_atom_site_aniso_U_11
_atom_site_aniso_U_22
_atom_site_aniso_U_33
_atom_site_aniso_U_23
_atom_site_aniso_U_13
_atom_site_aniso_U_12
C1 0.071(4) 0.071(4) 0.069(4) 0.001(3) -0.017(3) -0.008(3)
C2 0.080(4) 0.079(4) 0.061(3) 0.011(3) -0.006(3) -0.004(3)
C3 0.145(7) 0.114(6) 0.074(5) -0.007(4) -0.010(4) -0.010(5)
C4 0.213(11) 0.120(7) 0.068(5) 0.023(5) 0.020(6) 0.001(7)
C5 0.125(6) 0.125(6) 0.082(5) 0.034(5) 0.020(5) -0.009(5)
C6 0.064(3) 0.082(4) 0.076(4) 0.021(3) 0.007(3) 0.003(3)
C7 0.075(4) 0.066(4) 0.100(5) 0.011(4) 0.001(4) -0.007(3)
C8 0.103(5) 0.057(3) 0.130(6) -0.001(4) -0.044(5) 0.004(3)
C9 0.101(5) 0.066(4) 0.102(5) -0.008(3) -0.041(4) 0.000(3)
C10 0.076(3) 0.061(3) 0.062(3) 0.000(3) -0.009(3) 0.012(3)
C11 0.112(5) 0.062(4) 0.098(5) 0.002(3) -0.037(4) 0.005(3)
C12 0.100(5) 0.070(4) 0.097(5) 0.008(3) -0.035(4) -0.008(3)
C13 0.069(3) 0.055(3) 0.080(4) -0.005(3) -0.002(3) 0.000(3)
C14 0.053(3) 0.053(3) 0.057(5) 0.000 0.000 0.000
N1 0.072(3) 0.060(3) 0.071(3) -0.005(2) -0.017(2) 0.005(2)
N2 0.059(3) 0.066(3) 0.060(3) 0.010(2) 0.001(2) -0.001(2)
O1 0.092(3) 0.069(2) 0.069(2) 0.016(2) -0.017(2) -0.020(2)
O2 0.111(3) 0.080(3) 0.072(3) -0.003(2) -0.015(2) -0.016(3)
O3 0.107(3) 0.066(3) 0.089(3) 0.007(2) -0.001(3) -0.005(2)
O4 0.142(5) 0.088(3) 0.136(5) 0.035(3) 0.016(4) -0.020(3)
O5 0.093(3) 0.056(2) 0.093(3) -0.006(2) -0.028(2) 0.003(2)
Zn1 0.0728(5) 0.0726(5) 0.0624(5) 0.0077(3) -0.0095(3) 0.0032(3)
C1E 0.071 0.071 0.069 -0.001 0.017 -0.008
C1J 0.071 0.071 0.069 -0.017 -0.001 0.008
C1O 0.071 0.071 0.069 0.017 0.001 0.008
C2E 0.08 0.079 0.061 -0.011 0.006 -0.004
C2J 0.079 0.08 0.061 -0.006 -0.011 0.004
C2O 0.079 0.08 0.061 0.006 0.011 0.004
C3E 0.145 0.114 0.074 0.007 0.01 -0.01
C3J 0.114 0.145 0.074 -0.01 0.007 0.01
C3O 0.114 0.145 0.074 0.01 -0.007 0.01
C4E 0.213 0.12 0.068 -0.023 -0.02 0.001
C4J 0.12 0.213 0.068 0.02 -0.023 -0.001
C4O 0.12 0.213 0.068 -0.02 0.023 -0.001
C5E 0.125 0.125 0.082 -0.034 -0.02 -0.009
C5J 0.125 0.125 0.082 0.02 -0.034 0.009
C5O 0.125 0.125 0.082 -0.02 0.034 0.009
C6E 0.064 0.082 0.076 -0.021 -0.007 0.003
C6J 0.082 0.064 0.076 0.007 -0.021 -0.003
C6O 0.082 0.064 0.076 -0.007 0.021 -0.003
C7E 0.075 0.066 0.1 -0.011 -0.001 -0.007
C7J 0.066 0.075 0.1 0.001 -0.011 0.007
C7O 0.066 0.075 0.1 -0.001 0.011 0.007
C8E 0.103 0.057 0.13 0.001 0.044 0.004
C8J 0.057 0.103 0.13 -0.044 0.001 -0.004
C8O 0.057 0.103 0.13 0.044 -0.001 -0.004
C9E 0.101 0.066 0.102 0.008 0.041 0
C9J 0.066 0.101 0.102 -0.041 0.008 0
C9O 0.066 0.101 0.102 0.041 -0.008 0
C10E 0.076 0.061 0.062 0 0.009 0.012
C10J 0.061 0.076 0.062 -0.009 0 -0.012
C10O 0.061 0.076 0.062 0.009 0 -0.012
C11E 0.112 0.062 0.098 -0.002 0.037 0.005
C11J 0.062 0.112 0.098 -0.037 -0.002 -0.005
C11O 0.062 0.112 0.098 0.037 0.002 -0.005
C12E 0.1 0.07 0.097 -0.008 0.035 -0.008
C12J 0.07 0.1 0.097 -0.035 -0.008 0.008
C12O 0.07 0.1 0.097 0.035 0.008 0.008
C13E 0.069 0.055 0.08 0.005 0.002 0
C13J 0.055 0.069 0.08 -0.002 0.005 0
C13O 0.055 0.069 0.08 0.002 -0.005 0
N1E 0.072 0.06 0.071 0.005 0.017 0.005
N1J 0.06 0.072 0.071 -0.017 0.005 -0.005
N1O 0.06 0.072 0.071 0.017 -0.005 -0.005
N2E 0.059 0.066 0.06 -0.01 -0.001 -0.001
N2J 0.066 0.059 0.06 0.001 -0.01 0.001
N2O 0.066 0.059 0.06 -0.001 0.01 0.001
O1E 0.092 0.069 0.069 -0.016 0.017 -0.02
O1J 0.069 0.092 0.069 -0.017 -0.016 0.02
O1O 0.069 0.092 0.069 0.017 0.016 0.02
O2E 0.111 0.08 0.072 0.003 0.015 -0.016
O2J 0.08 0.111 0.072 -0.015 0.003 0.016
O2O 0.08 0.111 0.072 0.015 -0.003 0.016
O2A 0.111 0.08 0.072 0.003 0.015 -0.016
O2D 0.111 0.08 0.072 -0.003 -0.015 -0.016
O2K 0.08 0.111 0.072 0.015 -0.003 0.016
O2N 0.08 0.111 0.072 -0.015 0.003 0.016
O3E 0.107 0.066 0.089 -0.007 0.001 -0.005
O3J 0.066 0.107 0.089 -0.001 -0.007 0.005
O3O 0.066 0.107 0.089 0.001 0.007 0.005
O4E 0.142 0.088 0.136 -0.035 -0.016 -0.02
O4J 0.088 0.142 0.136 0.016 -0.035 0.02
O4O 0.088 0.142 0.136 -0.016 0.035 0.02
O5E 0.093 0.056 0.093 0.006 0.028 0.003
O5J 0.056 0.093 0.093 -0.028 0.006 -0.003
O5O 0.056 0.093 0.093 0.028 -0.006 -0.003
Zn1E 0.0728 0.0726 0.0624 -0.0077 0.0095 0.0032
Zn1J 0.0726 0.0728 0.0624 -0.0095 -0.0077 -0.0032
Zn1O 0.0726 0.0728 0.0624 0.0095 0.0077 -0.0032
Zn1A 0.0728 0.0726 0.0624 -0.0077 0.0095 0.0032
Zn1D 0.0728 0.0726 0.0624 0.0077 -0.0095 0.0032
Zn1K 0.0726 0.0728 0.0624 0.0095 0.0077 -0.0032
Zn1N 0.0726 0.0728 0.0624 -0.0095 -0.0077 -0.0032
O6 0.079(9) 0.052(7) 0.053(7) -0.026(6) 0.040(7) -0.039(7)
O7 0.065(9) 0.063(9) 0.134(15) 0.062(10) 0.040(9) 0.023(7)
O8 1.0(2) 0.13(3) 0.21(5) -0.01(3) -0.33(8) 0.07(6)
O9 0.72(15) 0.15(3) 0.12(2) 0.05(2) -0.09(4) -0.10(5)
O10 0.19(4) 0.35(6) 0.17(4) -0.01(4) -0.04(3) 0.13(4)
loop_
_geom_bond_atom_site_label_1
_geom_bond_atom_site_label_2
_geom_bond_site_symmetry_1
_geom_bond_site_symmetry_2
C1 C2 1_555 1_555
C2 C3 1_555 1_555
C3 H1 1_555 1_555
C4 C3 1_555 1_555
H2 C4 1_555 1_555
C5 C4 1_555 1_555
H3 C5 1_555 1_555
C6 C5 1_555 1_555
C7 C6 1_555 1_555
C8 H4 1_555 1_555
C9 C8 1_555 1_555
H5 C9 1_555 1_555
C10 C9 1_555 1_555
C11 C10 1_555 1_555
H6 C11 1_555 1_555
C12 C11 1_555 1_555
H7 C12 1_555 1_555
C13 H8 1_555 1_555
H9 C13 1_555 1_555
C14 C13 1_555 1_555
N1 C8 1_555 1_555
N2 C2 1_555 1_555
O1 C1 1_555 1_555
O2 C1 1_555 1_555
O3 C7 1_555 1_555
O4 C7 1_555 1_555
O5 C10 1_555 1_555
O6 H10 1_555 1_555
H11 O6 1_555 1_555
O7 H12 1_555 1_555
H13 O7 1_555 1_555
O8 H14 1_555 1_555
H15 O8 1_555 1_555
O9 H16 1_555 1_555
H17 O9 1_555 1_555
O10 H18 1_555 1_555
H19 O10 1_555 1_555
Zn1 N1 1_555 1_555
C1E C2E 1_555 1_555
C1J C2J 1_555 1_555
C1O C2O 1_555 1_555
C2E C3E 1_555 1_555
C2J C3J 1_555 1_555
C2O C3O 1_555 1_555
C3E H1E 1_555 1_555
C3J H1J 1_555 1_555
C3O H1O 1_555 1_555
C4E C3E 1_555 1_555
C4J C3J 1_555 1_555
C4O C3O 1_555 1_555
H2E C4E 1_555 1_555
H2J C4J 1_555 1_555
H2O C4O 1_555 1_555
C5E C4E 1_555 1_555
C5J C4J 1_555 1_555
C5O C4O 1_555 1_555
H3E C5E 1_555 1_555
H3J C5J 1_555 1_555
H3O C5O 1_555 1_555
C6E C5E 1_555 1_555
C6J C5J 1_555 1_555
C6O C5O 1_555 1_555
C7E C6E 1_555 1_555
C7J C6J 1_555 1_555
C7O C6O 1_555 1_555
C8E H4E 1_555 1_555
C8J H4J 1_555 1_555
C8O H4O 1_555 1_555
C9E C8E 1_555 1_555
C9J C8J 1_555 1_555
C9O C8O 1_555 1_555
H5E C9E 1_555 1_555
H5J C9J 1_555 1_555
H5O C9O 1_555 1_555
C10E C9E 1_555 1_555
C10J C9J 1_555 1_555
C10O C9O 1_555 1_555
C11E C10E 1_555 1_555
C11J C10J 1_555 1_555
C11O C10O 1_555 1_555
H6E C11E 1_555 1_555
H6J C11J 1_555 1_555
H6O C11O 1_555 1_555
C12E C11E 1_555 1_555
C12J C11J 1_555 1_555
C12O C11O 1_555 1_555
H7E C12E 1_555 1_555
H7J C12J 1_555 1_555
H7O C12O 1_555 1_555
C13E C14 1_555 1_555
C13J C14 1_555 1_555
C13O C14 1_555 1_555
H8E C13E 1_555 1_555
H8J C13J 1_555 1_555
H8O C13O 1_555 1_555
H9E C13E 1_555 1_555
H9J C13J 1_555 1_555
H9O C13O 1_555 1_555
N1E C8E 1_555 1_555
N1J C8J 1_555 1_555
N1O C8O 1_555 1_555
N2E C2E 1_555 1_555
N2J C2J 1_555 1_555
N2O C2O 1_555 1_555
O1E C1E 1_555 1_555
O1J C1J 1_555 1_555
O1O C1O 1_555 1_555
O2E C1E 1_555 1_555
O2J C1J 1_555 1_555
O2O C1O 1_555 1_555
O2A Zn1O 1_555 1_555
O2D Zn1J 1_555 1_555
O2K Zn1 1_555 1_555
O2N Zn1E 1_555 1_555
O3E C7E 1_555 1_555
O3J C7J 1_555 1_555
O3O C7O 1_555 1_555
O4E C7E 1_555 1_555
O4J C7J 1_555 1_555
O4O C7O 1_555 1_555
O5E C10E 1_555 1_555
O5J C10J 1_555 1_555
O5O C10O 1_555 1_555
Zn1E N1E 1_555 1_555
Zn1J N1J 1_555 1_555
Zn1O N1O 1_555 1_555
Zn1A O2J 1_555 1_555
Zn1D O2O 1_555 1_555
Zn1K O2E 1_555 1_555
Zn1N O2 1_555 1_555
C6 N2 1_555 1_555
C12 N1 1_555 1_555
C13 O5 1_555 1_555
N2 Zn1 1_555 1_555
O1 Zn1 1_555 1_555
O3 Zn1 1_555 1_555
C6E N2E 1_555 1_555
C6J N2J 1_555 1_555
C6O N2O 1_555 1_555
C12E N1E 1_555 1_555
C12J N1J 1_555 1_555
C12O N1O 1_555 1_555
C13E O5E 1_555 1_555
C13J O5J 1_555 1_555
C13O O5O 1_555 1_555
N2E Zn1E 1_555 1_555
N2J Zn1J 1_555 1_555
N2O Zn1O 1_555 1_555
O1E Zn1E 1_555 1_555
O1J Zn1J 1_555 1_555
O1O Zn1O 1_555 1_555
O3E Zn1E 1_555 1_555
O3J Zn1J 1_555 1_555
O3O Zn1O 1_555 1_555

#END
