
#######################################################################
#
#                 Cambridge Crystallographic Data Centre
#                                CCDC 
#
#######################################################################
#
# If this CIF has been generated from an entry in the Cambridge 
# Structural Database, then it will include bibliographic, chemical, 
# crystal, experimental, refinement or atomic coordinate data resulting 
# from the CCDC's data processing and validation procedures.
#
#######################################################################

data_POLBUN
_chemical_formula_moiety         '(C3 H14 F2 Ga3 N2 O13 P3)n'
_symmetry_cell_setting           orthorhombic
_symmetry_space_group_name_H-M   'P b c a'
_symmetry_Int_Tables_number      61
_space_group_name_Hall           '-P 2ac 2ab'
loop_
_symmetry_equiv_pos_site_id
_symmetry_equiv_pos_as_xyz
1 x,y,z
2 1/2-x,-y,1/2+z
3 1/2+x,1/2-y,-z
4 -x,1/2+y,1/2-z
5 -x,-y,-z
6 1/2+x,y,1/2-z
7 1/2-x,1/2+y,z
8 x,1/2-y,1/2+z
_cell_length_a                   10.154(1)
_cell_length_b                   18.393(2)
_cell_length_c                   15.773(2)
_cell_angle_alpha                90
_cell_angle_beta                 90
_cell_angle_gamma                90
_cell_volume                     2945.81
loop_
_atom_site_label
_atom_site_type_symbol
_atom_site_fract_x
_atom_site_fract_y
_atom_site_fract_z
Ga1 Ga 0.1801(1) -0.2821(1) -0.4619(1)
Ga2 Ga 0.3366(1) -0.3260(1) -0.6488(1)
Ga3 Ga 0.1490(1) -0.0943(1) -0.4964(1)
P1 P 0.3595(1) -0.4241(1) -0.4836(1)
P2 P 0.1505(1) -0.1683(1) -0.3155(1)
P3 P 0.3796(1) -0.1830(1) -0.5628(1)
F1 F 0.1733(2) -0.3142(1) -0.5807(1)
F2 F 0.0844(2) -0.1961(1) -0.4986(1)
O1 O 0.4989(2) -0.4334(1) -0.4445(1)
O2 O 0.2860(2) -0.4963(1) -0.4802(1)
O3 O 0.3792(2) -0.4010(1) -0.5768(1)
O4 O 0.2846(2) -0.3668(1) -0.4314(1)
O5 O 0.2352(2) -0.1462(1) -0.2394(1)
O6 O 0.1836(2) -0.2454(1) -0.3454(1)
O7 O 0.1861(2) -0.1100(1) -0.3820(1)
O8 O 0.0050(2) -0.1618(1) -0.2895(1)
O9 O 0.2914(2) -0.1145(1) -0.5686(1)
O10 O 0.3597(2) -0.2258(1) -0.6462(1)
O11 O 0.3431(2) -0.2292(1) -0.4858(1)
O12 O 0.5230(2) -0.1582(1) -0.5558(1)
O12B O 0.0230(2) -0.3418(1) -0.4442(1)
Ga2B Ga -0.1634(1) -0.1740(1) -0.3512(1)
O1B O -0.0011(2) -0.0666(1) -0.5555(1)
O2F O 0.2140(2) 0.0037(1) -0.4802(1)
O5G O 0.2352(2) -0.3538(1) -0.7394(1)
O8B O 0.5050(2) -0.3382(1) -0.7105(1)
Ga1B Ga 0.6801(1) -0.2179(1) -0.5381(1)
Ga3B Ga 0.6490(1) -0.4057(1) -0.5036(1)
Ga3F Ga 0.3510(1) -0.5943(1) -0.4964(1)
Ga2G Ga 0.3366(1) -0.1740(1) -0.1488(1)
O13 O 0.0160(4) -0.6988(2) -0.8184(2)
N1 N 0.5333(3) -0.5887(2) -0.1287(2)
N2 N 0.6738(4) -0.3880(2) -0.2434(3)
C1 C 0.4858(4) -0.5124(2) -0.1332(3)
C2 C 0.6394(5) -0.4661(2) -0.2513(3)
C3 C 0.5006(4) -0.4810(3) -0.2209(3)
H1 H 0.540(5) -0.485(3) -0.094(3)
H2 H 0.393(3) -0.517(3) -0.120(4)
H3 H 0.703(4) -0.493(3) -0.218(3)
H4 H 0.637(6) -0.472(3) -0.313(2)
H5 H 0.459(5) -0.434(2) -0.225(3)
H6 H 0.471(5) -0.511(3) -0.267(3)
H7 H 0.626(2) -0.589(3) -0.126(4)
H8 H 0.479(5) -0.610(3) -0.086(3)
H9 H 0.507(5) -0.608(3) -0.182(2)
H10 H 0.742(4) -0.377(3) -0.283(3)
H11 H 0.666(5) -0.379(3) -0.185(2)
H12 H 0.604(4) -0.368(3) -0.276(3)
loop_
_geom_bond_atom_site_label_1
_geom_bond_atom_site_label_2
_geom_bond_site_symmetry_1
_geom_bond_site_symmetry_2
Ga1 F1 1_555 1_555
Ga2 F1 1_555 1_555
Ga3 F2 1_555 1_555
P1 O1 1_555 1_555
P2 O5 1_555 1_555
P3 O9 1_555 1_555
F2 Ga1 1_555 1_555
O1 Ga3B 1_555 1_555
O2 P1 1_555 1_555
O3 Ga2 1_555 1_555
O4 Ga1 1_555 1_555
O5 Ga2G 1_555 1_555
O6 Ga1 1_555 1_555
O7 Ga3 1_555 1_555
O8 P2 1_555 1_555
O9 Ga3 1_555 1_555
O10 Ga2 1_555 1_555
O11 Ga1 1_555 1_555
O12 P3 1_555 1_555
N1 C1 1_555 1_555
N2 C2 1_555 1_555
C1 C3 1_555 1_555
C2 C3 1_555 1_555
C3 H5 1_555 1_555
H1 C1 1_555 1_555
H2 C1 1_555 1_555
H3 C2 1_555 1_555
H4 C2 1_555 1_555
H6 C3 1_555 1_555
H7 N1 1_555 1_555
H8 N1 1_555 1_555
H9 N1 1_555 1_555
H10 N2 1_555 1_555
H11 N2 1_555 1_555
H12 N2 1_555 1_555
O12B Ga1 1_555 1_555
Ga2B O8 1_555 1_555
O1B Ga3 1_555 1_555
O2F Ga3 1_555 1_555
O5G Ga2 1_555 1_555
O8B Ga2 1_555 1_555
Ga1B O12 1_555 1_555
Ga3F O2 1_555 1_555
P1 O3 1_555 1_555
P1 O4 1_555 1_555
P2 O6 1_555 1_555
P2 O7 1_555 1_555
P3 O10 1_555 1_555
P3 O11 1_555 1_555

#END
