
#######################################################################
#
#                 Cambridge Crystallographic Data Centre
#                                CCDC 
#
#######################################################################
#
# If this CIF has been generated from an entry in the Cambridge 
# Structural Database, then it will include bibliographic, chemical, 
# crystal, experimental, refinement or atomic coordinate data resulting 
# from the CCDC's data processing and validation procedures.
#
#######################################################################

data_ARAJIO
_chemical_formula_moiety         '(C20 H12 Co1 N2 O4)n'
_symmetry_cell_setting           tetragonal
_symmetry_space_group_name_H-M   'P 43 21 2'
_symmetry_Int_Tables_number      96
_space_group_name_Hall           'P 4nw 2abw'
loop_
_symmetry_equiv_pos_site_id
_symmetry_equiv_pos_as_xyz
1 x,y,z
2 -x,-y,1/2+z
3 1/2-y,1/2+x,3/4+z
4 1/2+y,1/2-x,1/4+z
5 1/2-x,1/2+y,3/4-z
6 1/2+x,1/2-y,1/4-z
7 y,x,-z
8 -y,-x,1/2-z
_cell_length_a                   17.2059(6)
_cell_length_b                   17.2059(6)
_cell_length_c                   15.5195(7)
_cell_angle_alpha                90
_cell_angle_beta                 90
_cell_angle_gamma                90
_cell_volume                     4594.44
loop_
_atom_site_label
_atom_site_type_symbol
_atom_site_fract_x
_atom_site_fract_y
_atom_site_fract_z
_atom_site_U_iso_or_equiv
_atom_site_thermal_displace_type
Co1 Co 0.74568(4) 0.25497(4) 0.01682(4) 0.0340 Uani
N1 N 0.7366(3) 0.6341(2) 0.2413(3) 0.0407 Uani
O1 O 0.7493(2) 0.34627(19) 0.1079(2) 0.0440 Uani
O2 O 0.7534(3) 0.3764(2) -0.0284(2) 0.0537 Uani
C1 C 0.7423(3) 0.5140(3) 0.1529(3) 0.0387 Uani
C2 C 0.7530(4) 0.3972(3) 0.0490(3) 0.0407 Uani
O3 O 0.6095(2) 0.2646(2) 0.0112(2) 0.0490 Uani
N2 N 0.3401(2) 0.2292(3) -0.1513(3) 0.0377 Uani
C3 C 0.7750(4) 0.6435(3) 0.0930(4) 0.0517 Uani
H1 H 0.7826 0.6966 0.1004 0.0620 Uiso
C4 C 0.4160(3) 0.2439(3) -0.1684(3) 0.0387 Uani
C5 C 0.7178(4) 0.4717(3) 0.2253(4) 0.0503 Uani
H2 H 0.7107 0.4182 0.2210 0.0610 Uiso
O4 O 0.68628(19) 0.2262(2) -0.0935(2) 0.0459 Uani
C6 C 0.4761(3) 0.2329(3) -0.1063(3) 0.0397 Uani
C7 C 0.5123(4) 0.2839(4) -0.2725(3) 0.0553 Uani
H3 H 0.5251 0.3004 -0.3278 0.0670 Uiso
C8 C 0.6201(3) 0.2458(4) -0.0654(3) 0.0430 Uani
C9 C 0.4360(3) 0.2703(4) -0.2528(3) 0.0483 Uani
H4 H 0.3975 0.2781 -0.2939 0.0580 Uiso
C10 C 0.4531(3) 0.2004(4) -0.0253(3) 0.0460 Uani
H5 H 0.4904 0.1916 0.0170 0.0550 Uiso
C11 C 0.5546(3) 0.2489(3) -0.1302(3) 0.0397 Uani
C12 C 0.3787(3) 0.1827(3) -0.0096(3) 0.0457 Uani
H6 H 0.3643 0.1597 0.0422 0.0550 Uiso
C13 C 0.7591(3) 0.4814(3) 0.0708(3) 0.0407 Uani
C14 C 0.5711(3) 0.2739(4) -0.2123(3) 0.0513 Uani
H7 H 0.6223 0.2842 -0.2277 0.0620 Uiso
C15 C 0.7807(4) 0.5312(3) 0.0037(4) 0.0517 Uani
H8 H 0.7909 0.5102 -0.0503 0.0620 Uiso
C16 C 0.7508(3) 0.5977(3) 0.1638(3) 0.0377 Uani
C17 C 0.7041(4) 0.5092(4) 0.3037(3) 0.0553 Uani
H9 H 0.6892 0.4810 0.3520 0.0660 Uiso
C18 C 0.7874(5) 0.6113(3) 0.0151(4) 0.0637 Uani
H10 H 0.8004 0.6427 -0.0315 0.0760 Uiso
C19 C 0.3213(3) 0.2000(3) -0.0747(3) 0.0453 Uani
H11 H 0.2692 0.1905 -0.0626 0.0550 Uiso
C20 C 0.7131(4) 0.5903(4) 0.3082(4) 0.0510 Uani
H12 H 0.7022 0.6149 0.3602 0.0610 Uiso
Co1B Co 0.24503(4) 0.24568(4) -0.23318(4) 0.0340 Uani
Co1C Co 0.75497(4) 0.75432(4) 0.26682(4) 0.0340 Uani
N1B N 0.8659(2) 0.2366(3) -0.0087(3) 0.0407 Uani
N2C N 0.7292(3) 0.1599(2) 0.0987(3) 0.0377 Uani
loop_
_atom_site_aniso_label
_atom_site_aniso_U_11
_atom_site_aniso_U_22
_atom_site_aniso_U_33
_atom_site_aniso_U_23
_atom_site_aniso_U_13
_atom_site_aniso_U_12
Co1 0.0332(4) 0.0309(4) 0.0379(4) -0.0025(3) 0.0002(2) -0.0006(3)
N1 0.047(3) 0.037(2) 0.038(2) 0.0018(18) 0.003(2) 0.000(2)
O1 0.054(2) 0.0277(17) 0.0504(19) -0.0008(15) -0.007(2) 0.0031(18)
O2 0.081(3) 0.037(2) 0.043(2) -0.0079(16) -0.008(2) -0.004(2)
C1 0.048(3) 0.035(3) 0.033(2) 0.004(2) -0.003(2) -0.002(3)
C2 0.045(3) 0.032(3) 0.045(3) 0.003(2) -0.014(3) 0.004(3)
O3 0.037(2) 0.067(3) 0.043(2) -0.008(2) -0.0027(16) 0.0024(18)
N2 0.033(2) 0.036(3) 0.044(2) 0.0090(19) -0.0004(18) -0.0023(19)
C3 0.074(4) 0.035(3) 0.046(3) 0.003(2) 0.005(3) -0.002(3)
C4 0.028(2) 0.045(3) 0.043(3) -0.001(3) -0.006(2) -0.002(2)
C5 0.064(4) 0.027(3) 0.060(3) 0.004(3) -0.003(3) -0.003(3)
O4 0.0312(19) 0.060(3) 0.0465(19) -0.0135(18) -0.0002(16) -0.0008(17)
C6 0.036(3) 0.041(3) 0.042(3) 0.004(2) 0.004(2) 0.002(2)
C7 0.051(4) 0.076(4) 0.039(3) 0.015(3) 0.005(3) -0.006(3)
C8 0.035(3) 0.050(3) 0.044(3) -0.002(3) -0.001(2) -0.005(3)
C9 0.038(3) 0.070(4) 0.037(3) 0.011(3) 0.003(2) -0.009(3)
C10 0.043(3) 0.060(4) 0.035(2) 0.004(3) -0.004(2) 0.004(3)
C11 0.032(2) 0.043(3) 0.044(3) 0.000(3) -0.002(2) -0.004(3)
C12 0.043(3) 0.058(4) 0.036(2) 0.016(3) 0.007(2) -0.005(3)
C13 0.051(3) 0.032(3) 0.039(2) -0.001(2) -0.003(3) 0.004(3)
C14 0.039(3) 0.072(4) 0.043(3) 0.005(3) 0.001(2) -0.012(3)
C15 0.083(4) 0.035(3) 0.037(3) 0.000(2) 0.003(3) -0.003(3)
C16 0.046(3) 0.026(2) 0.041(2) -0.0013(19) 0.001(3) -0.008(2)
C17 0.082(5) 0.046(4) 0.038(3) 0.005(3) 0.011(3) -0.008(3)
C18 0.110(6) 0.039(3) 0.042(3) 0.005(3) 0.019(3) -0.014(3)
C19 0.032(3) 0.058(4) 0.046(3) 0.009(3) 0.003(2) -0.002(2)
C20 0.071(4) 0.045(3) 0.037(3) 0.003(3) 0.000(3) 0.002(3)
Co1B 0.0309 0.0332 0.0379 0.0002 0.0025 0.0006
Co1C 0.0309 0.0332 0.0379 -0.0002 -0.0025 0.0006
N1B 0.037 0.047 0.038 0.003 -0.0018 0
N2C 0.036 0.033 0.044 0.0004 0.009 0.0023
loop_
_geom_bond_atom_site_label_1
_geom_bond_atom_site_label_2
_geom_bond_site_symmetry_1
_geom_bond_site_symmetry_2
Co1 O1 1_555 1_555
N1 C16 1_555 1_555
O1 C2 1_555 1_555
O2 Co1 1_555 1_555
C1 C5 1_555 1_555
C2 O2 1_555 1_555
O3 Co1 1_555 1_555
N2 C4 1_555 1_555
C3 H1 1_555 1_555
C4 C6 1_555 1_555
C5 H2 1_555 1_555
O4 Co1 1_555 1_555
C6 C10 1_555 1_555
C7 H3 1_555 1_555
C8 O3 1_555 1_555
C9 C4 1_555 1_555
H4 C9 1_555 1_555
C10 H5 1_555 1_555
C11 C6 1_555 1_555
C12 C10 1_555 1_555
H6 C12 1_555 1_555
C13 C1 1_555 1_555
C14 C7 1_555 1_555
H7 C14 1_555 1_555
C15 C13 1_555 1_555
H8 C15 1_555 1_555
C16 C1 1_555 1_555
C17 C5 1_555 1_555
H9 C17 1_555 1_555
C18 C3 1_555 1_555
H10 C18 1_555 1_555
C19 N2 1_555 1_555
H11 C19 1_555 1_555
C20 N1 1_555 1_555
H12 C20 1_555 1_555
Co1B N2 1_555 1_555
Co1C N1 1_555 1_555
N1B Co1 1_555 1_555
N2C Co1 1_555 1_555
C2 C13 1_555 1_555
C3 C16 1_555 1_555
O4 C8 1_555 1_555
C7 C9 1_555 1_555
C8 C11 1_555 1_555
C11 C14 1_555 1_555
C12 C19 1_555 1_555
C15 C18 1_555 1_555
C17 C20 1_555 1_555

#END
