
#######################################################################
#
#                 Cambridge Crystallographic Data Centre
#                                CCDC 
#
#######################################################################
#
# If this CIF has been generated from an entry in the Cambridge 
# Structural Database, then it will include bibliographic, chemical, 
# crystal, experimental, refinement or atomic coordinate data resulting 
# from the CCDC's data processing and validation procedures.
#
#######################################################################

data_REGJIW
_chemical_formula_moiety         '(C8 H6 Co3 O12)n'
_symmetry_cell_setting           monoclinic
_symmetry_space_group_name_H-M   'C 2/m'
_symmetry_Int_Tables_number      12
_space_group_name_Hall           '-C 2y'
loop_
_symmetry_equiv_pos_site_id
_symmetry_equiv_pos_as_xyz
1 x,y,z
2 1/2+x,1/2+y,z
3 -x,y,-z
4 1/2-x,1/2+y,-z
5 -x,-y,-z
6 1/2-x,1/2-y,-z
7 x,-y,z
8 1/2+x,1/2-y,z
_cell_length_a                   9.3299(10)
_cell_length_b                   12.8650(10)
_cell_length_c                   5.5060(10)
_cell_angle_alpha                90
_cell_angle_beta                 90.38(2)
_cell_angle_gamma                90
_cell_volume                     660.866
loop_
_atom_site_label
_atom_site_type_symbol
_atom_site_fract_x
_atom_site_fract_y
_atom_site_fract_z
Co1 Co 0.5000 0.5000 0.5000
Co2 Co 0.5000 0.62055(4) 1.0000
O1 O 0.6196(2) 0.7372(2) 0.8491(3)
O2 O 0.6309(2) 0.61235(15) 0.3286(4)
O3 O 0.6014(3) 0.5000 0.8247(5)
H1 H 0.6787(58) 0.5000 0.8358(87)
C1 C 0.6906(3) 0.7423(2) 0.6583(5)
C2 C 0.6960(3) 0.6883(2) 0.4250(5)
C1E C 0.8094(3) 0.7577(2) 0.3417(5)
O1E O 0.8804(2) 0.7628(2) 0.1509(3)
C2E C 0.8040(3) 0.8117(2) 0.5750(5)
O2E O 0.8691(2) 0.88765(15) 0.6714(4)
O1F O 0.6196(2) 0.2628(2) 0.8491(3)
O2F O 0.6309(2) 0.38765(15) 0.3286(4)
C1F C 0.6906(3) 0.2577(2) 0.6583(5)
C2F C 0.6960(3) 0.3117(2) 0.4250(5)
C1C C 0.8094(3) 0.2423(2) 0.3417(5)
O1C O 0.8804(2) 0.2372(2) 0.1509(3)
C2C C 0.8040(3) 0.1883(2) 0.5750(5)
O2C O 0.8691(2) 0.11235(15) 0.6714(4)
O3D O 0.3986(3) 0.5000 0.1753(5)
H1D H 0.3213(58) 0.5000 0.1642(87)
Co2G Co 1.0000 0.87945(4) 0.0000
O2D O 0.3691(2) 0.38765(15) 0.6714(4)
O2B O 0.3691(2) 0.61235(15) 0.6714(4)
O1B O 0.3804(2) 0.7372(2) 1.1509(3)
O2_2 O 0.6309(2) 0.61235(15) 1.3286(4)
O3D_2 O 0.3986(3) 0.5000 1.1753(5)
Co2_2 Co 0.5000 0.62055(4) 0.0000
Co2F Co 0.5000 0.37945(4) 1.0000
Co1A Co 1.0000 1.0000 0.5000
Co2G_2 Co 1.0000 0.87945(4) 1.0000
Co2F_2 Co 0.5000 0.37945(4) 0.0000
Co2A Co 1.0000 0.12055(4) 0.0000
Co1A_2 Co 1.0000 0.0000 0.5000
Co2A_2 Co 1.0000 0.12055(4) 1.0000
O1G O 1.1196(2) 0.7628(2) -0.1509(3)
O2G O 1.1309(2) 0.88765(15) 0.3286(4)
O2E_2 O 0.8691(2) 0.88765(15) -0.3286(4)
O3A O 1.1014(3) 1.0000 -0.1753(5)
O3E O 0.8986(3) 1.0000 0.1753(5)
H1D_2 H 0.3213(58) 0.5000 1.1642(87)
H1A H 1.1787(58) 1.0000 -0.1642(87)
H1E H 0.8213(58) 1.0000 0.1642(87)
O4 O 0.6083(7) 0.9381(5) 1.1048(14)
O5 O 0.4276(18) 1.0000 1.4228(29)
loop_
_geom_bond_atom_site_label_1
_geom_bond_atom_site_label_2
_geom_bond_site_symmetry_1
_geom_bond_site_symmetry_2
Co1 O2 1_555 1_555
Co2 O1 1_555 1_555
O1 C1 1_555 1_555
O2 C2 1_555 1_555
O3 Co1 1_555 1_555
H1 O3 1_555 1_555
C1 C2 1_555 1_555
C2 C1E 1_555 1_555
C1E O1E 1_555 1_555
O1E Co2G 1_555 1_555
C2E C1 1_555 1_555
O2E C2E 1_555 1_555
O1F C1F 1_555 1_555
O2F Co1 1_555 1_555
C1F C2F 1_555 1_555
C2F O2F 1_555 1_555
C1C C2F 1_555 1_555
O1C C1C 1_555 1_555
C2C C1F 1_555 1_555
O2C C2C 1_555 1_555
O3D Co1 1_555 1_555
H1D O3D 1_555 1_555
Co2G O1G 1_555 1_555
O2D Co1 1_555 1_555
O2B Co1 1_555 1_555
O1B Co2 1_555 1_555
O2_2 Co2 1_555 1_555
O3D_2 Co2 1_555 1_555
Co2_2 O2 1_555 1_555
Co2F O3 1_555 1_555
Co1A O2E 1_555 1_555
Co2G_2 O2E 1_555 1_555
Co2F_2 O2F 1_555 1_555
Co2A O1C 1_555 1_555
Co1A_2 O2C 1_555 1_555
Co2A_2 O2C 1_555 1_555
O2G Co2G 1_555 1_555
O2E_2 Co2G 1_555 1_555
O3A Co2G 1_555 1_555
O3E Co2G 1_555 1_555
H1D_2 O3D_2 1_555 1_555
H1A O3A 1_555 1_555
H1E O3E 1_555 1_555
Co2 O3 1_555 1_555
Co2 O2B 1_555 1_555
C1E C2E 1_555 1_555
O1F Co2F 1_555 1_555
C1C C2C 1_555 1_555
O3D Co2_2 1_555 1_555
O3D Co2F_2 1_555 1_555
O2D Co2F 1_555 1_555
O3D_2 Co2F 1_555 1_555
Co1A O2G 1_555 1_555
Co1A O3E 1_555 1_555

#END
