
#######################################################################
#
#                 Cambridge Crystallographic Data Centre
#                                CCDC 
#
#######################################################################
#
# If this CIF has been generated from an entry in the Cambridge 
# Structural Database, then it will include bibliographic, chemical, 
# crystal, experimental, refinement or atomic coordinate data resulting 
# from the CCDC's data processing and validation procedures.
#
#######################################################################

data_QOSJEP
_chemical_formula_moiety         '(C16 H29 Cu1 Er1 N2 O20)n'
_symmetry_cell_setting           monoclinic
_symmetry_space_group_name_H-M   'P 21/c'
_symmetry_Int_Tables_number      14
_space_group_name_Hall           '-P 2ybc'
loop_
_symmetry_equiv_pos_site_id
_symmetry_equiv_pos_as_xyz
1 x,y,z
2 -x,1/2+y,1/2-z
3 -x,-y,-z
4 x,1/2-y,1/2+z
_cell_length_a                   10.632(2)
_cell_length_b                   13.862(3)
_cell_length_c                   19.498(4)
_cell_angle_alpha                90
_cell_angle_beta                 99.98(3)
_cell_angle_gamma                90
_cell_volume                     2830.15
loop_
_atom_site_label
_atom_site_type_symbol
_atom_site_fract_x
_atom_site_fract_y
_atom_site_fract_z
O1 O 0.7840(3) 0.4236(2) 0.87866(19)
Er1 Er 0.155016(19) 0.067076(15) 0.555911(12)
Cu1 Cu 0.75657(5) 0.06790(4) 0.78942(3)
N1 N 0.8710(4) 0.1798(3) 0.7796(2)
C1 C 0.8489(4) 0.2607(3) 0.8124(3)
H1 H 0.7839 0.2605 0.8388
O2 O 0.9425(3) 0.5083(2) 0.84891(19)
C2 C 0.9171(4) 0.3447(3) 0.8093(3)
N2 N 0.3583(4) 0.4553(3) 0.7060(2)
O3 O 1.1959(3) 0.4391(2) 0.82397(19)
C3 C 1.0181(4) 0.3446(3) 0.7721(3)
O4 O 1.1007(3) 0.4761(2) 0.71587(19)
C4 C 1.0396(5) 0.2611(4) 0.7375(3)
H2 H 1.1049 0.2592 0.7113
O5 O 0.2867(3) 0.1329(2) 0.65912(19)
C5 C 0.9648(5) 0.1803(3) 0.7413(3)
H3 H 0.9796 0.1251 0.7167
C6 C 0.8796(5) 0.4313(3) 0.8475(3)
O6 O 0.2699(3) 0.2228(3) 0.5641(2)
C7 C 1.1109(5) 0.4277(3) 0.7724(3)
O7 O 0.6116(3) 0.1584(2) 0.78135(19)
C8 C 0.3150(5) 0.3790(4) 0.6669(3)
H4 H 0.2394 0.3857 0.6351
O8 O 0.5862(3) 0.1526(3) 0.6650(2)
O9 O -0.0797(3) 0.0610(2) 0.51863(19)
C9 C 0.3759(5) 0.2915(3) 0.6710(3)
O10 O 0.0029(3) 0.1913(2) 0.57095(19)
C10 C 0.4908(4) 0.2813(3) 0.7166(2)
C11 C 0.5388(4) 0.3606(3) 0.7559(3)
H5 H 0.6165 0.3564 0.7861
O11 O 0.7952(5) 0.0843(3) 0.9058(2)
H6 H 0.762(7) 0.064(5) 0.940(3)
H7 H 0.864(4) 0.107(5) 0.929(3)
C12 C 0.4705(5) 0.4456(3) 0.7500(3)
H8 H 0.5028 0.4981 0.7773
O12 O 0.3529(3) 0.0280(3) 0.5298(2)
H9 H 0.413(6) -0.006(5) 0.552(4)
H10 H 0.378(6) 0.053(4) 0.495(2)
O13 O 0.1335(4) 0.1339(3) 0.4455(2)
H11 H 0.165(7) 0.112(5) 0.412(3)
H12 H 0.139(6) 0.1945(10) 0.442(3)
C13 C 0.5679(4) 0.1888(3) 0.7191(3)
C14 C 0.3086(4) 0.2099(4) 0.6280(3)
C15 C -0.2261(5) 0.1862(4) 0.5380(3)
H13 H -0.2602 0.2017 0.4904
H14 H -0.2221 0.2436 0.5658
H15 H -0.2803 0.1397 0.5549
C16 C -0.0949(5) 0.1451(4) 0.5424(3)
O1A O 0.2160(3) -0.0764(2) 0.62134(19)
Er1A Er 0.844984(19) 0.567076(15) 0.944089(12)
Er1B Er -0.155016(19) -0.067076(15) 0.444089(12)
Cu1A Cu 0.24343(5) 0.56790(4) 0.71058(3)
Cu1A_2 Cu 1.24343(5) 0.56790(4) 0.71058(3)
O2A O 0.0575(3) 0.0083(2) 0.65109(19)
N2A N 0.6417(4) -0.0447(3) 0.7940(2)
O4A O 0.8993(3) -0.0239(2) 0.78413(19)
O9B O 0.0797(3) -0.0610(2) 0.48137(19)
O14 O 0.5576(3) 0.5846(3) 0.0886(2)
H16 H 0.6011 0.6440 0.1025
O15 O 0.4808(5) 0.2799(3) 0.3890(3)
H17 H 0.4213 0.2804 0.3459
O16 O 0.2891(5) 0.3945(4) 0.3022(3)
H18 H 0.3349 0.4544 0.3093
O17 O 0.9684(8) 0.3883(6) 0.5878(5)
H19 H 0.8907 0.4166 0.5638
H20 H 0.9884 0.3321 0.5630
O18 O 0.7015(16) 0.5492(8) 0.4872(6)
O22 O 0.0494(7) 0.3347(6) 0.4560(6)
H23 H 0.1361 0.3571 0.4658
O25 O 0.5158(14) 0.3299(8) 0.5399(7)
H28 H 0.5107 0.3968 0.5520
H29 H 0.5879 0.3008 0.5690
loop_
_geom_bond_atom_site_label_1
_geom_bond_atom_site_label_2
_geom_bond_site_symmetry_1
_geom_bond_site_symmetry_2
O1 C6 1_555 1_555
Er1 O5 1_555 1_555
Cu1 N1 1_555 1_555
N1 C1 1_555 1_555
C1 H1 1_555 1_555
O2 C6 1_555 1_555
C2 C1 1_555 1_555
N2 C8 1_555 1_555
O3 C7 1_555 1_555
C3 C2 1_555 1_555
O4 C7 1_555 1_555
C4 C3 1_555 1_555
H2 C4 1_555 1_555
O5 C14 1_555 1_555
C5 N1 1_555 1_555
H3 C5 1_555 1_555
C6 C2 1_555 1_555
O6 Er1 1_555 1_555
C7 C3 1_555 1_555
O7 Cu1 1_555 1_555
C8 H4 1_555 1_555
O8 C13 1_555 1_555
O9 Er1 1_555 1_555
C9 C8 1_555 1_555
O10 Er1 1_555 1_555
C10 C9 1_555 1_555
C11 C10 1_555 1_555
H5 C11 1_555 1_555
O11 Cu1 1_555 1_555
H6 O11 1_555 1_555
H7 O11 1_555 1_555
C12 N2 1_555 1_555
H8 C12 1_555 1_555
O12 Er1 1_555 1_555
H9 O12 1_555 1_555
H10 O12 1_555 1_555
O13 Er1 1_555 1_555
H11 O13 1_555 1_555
H12 O13 1_555 1_555
C13 O7 1_555 1_555
C14 O6 1_555 1_555
C15 H13 1_555 1_555
H14 C15 1_555 1_555
H15 C15 1_555 1_555
C16 O9 1_555 1_555
O14 H16 1_555 1_555
O15 H17 1_555 1_555
O16 H18 1_555 1_555
O17 H19 1_555 1_555
H20 O17 1_555 1_555
O22 H23 1_555 1_555
O25 H28 1_555 1_555
H29 O25 1_555 1_555
O1A Er1 1_555 1_555
Er1A O1 1_555 1_555
Er1B O9 1_555 1_555
Cu1A N2 1_555 1_555
Cu1A_2 O4 1_555 1_555
O2A Er1 1_555 1_555
N2A Cu1 1_555 1_555
O4A Cu1 1_555 1_555
O9B Er1 1_555 1_555
O2 Er1A 1_555 1_555
C4 C5 1_555 1_555
C9 C14 1_555 1_555
O10 C16 1_555 1_555
C10 C13 1_555 1_555
C11 C12 1_555 1_555
C15 C16 1_555 1_555
Er1B O9B 1_555 1_555

#END
