
#######################################################################
#
#                 Cambridge Crystallographic Data Centre
#                                CCDC 
#
#######################################################################
#
# If this CIF has been generated from an entry in the Cambridge 
# Structural Database, then it will include bibliographic, chemical, 
# crystal, experimental, refinement or atomic coordinate data resulting 
# from the CCDC's data processing and validation procedures.
#
#######################################################################

data_YILJAG
_chemical_formula_moiety         'C28 H28 N11 O9 Zn10'
_symmetry_cell_setting           tetragonal
_symmetry_space_group_name_H-M   'P 42/m c m'
_symmetry_Int_Tables_number      132
_space_group_name_Hall           '-P 4c 2c'
loop_
_symmetry_equiv_pos_site_id
_symmetry_equiv_pos_as_xyz
1 x,y,z
2 -y,x,1/2+z
3 -x,-y,z
4 y,-x,1/2+z
5 x,-y,1/2-z
6 -x,y,1/2-z
7 y,x,-z
8 -y,-x,-z
9 -x,-y,-z
10 y,-x,1/2-z
11 x,y,-z
12 -y,x,1/2-z
13 -x,y,1/2+z
14 x,-y,1/2+z
15 -y,-x,z
16 y,x,z
_cell_length_a                   11.5585(12)
_cell_length_b                   11.5585(12)
_cell_length_c                   25.819(3)
_cell_angle_alpha                90
_cell_angle_beta                 90
_cell_angle_gamma                90
_cell_volume                     3449.39
loop_
_atom_site_label
_atom_site_type_symbol
_atom_site_fract_x
_atom_site_fract_y
_atom_site_fract_z
Zn1 Zn 0.09878(4) 0.90122(4) 0.20814(2)
O1 O 0.0000 1.0000 0.2500
O2 O 0.0692(3) 0.9308(3) 0.13474(15)
N1 N 0.2524(3) 0.9605(3) 0.23000(12)
C1 C 0.0000 1.0000 0.1118(3)
C2 C 0.3632(4) 0.9367(4) 0.21781(18)
C3 C 0.0000 1.0000 0.0545(4)
C4 C 0.4362(5) 1.0000 0.2500
C5 C 0.3922(4) 0.8543(5) 0.1755(2)
C6 C 0.0718(5) 0.9282(5) 0.0261(3)
H1 H 0.3207 0.8239 0.1603
H2 H 0.4380 0.7903 0.1896
H3 H 0.4371 0.8945 0.1488
H4 H 0.1237 0.8763 0.0444
N1N N 0.0395(3) 0.7476(3) 0.23000(12)
Zn1B Zn -0.09878(4) 1.09878(4) 0.20814(2)
Zn1D Zn 0.09878(4) 1.09878(4) 0.29186(2)
Zn1E Zn -0.09878(4) 0.90122(4) 0.29186(2)
N1D N 0.2524(3) 1.0395(3) 0.27000(12)
N1I N -0.0395(3) 0.7476(3) 0.27000(12)
C2N C 0.0633(4) 0.6368(4) 0.21781(18)
O2B O -0.0692(3) 1.0692(3) 0.13474(15)
N1E N -0.2524(3) 0.9605(3) 0.27000(12)
O2E O -0.0692(3) 0.9308(3) 0.36526(15)
C2D C 0.3632(4) 1.0633(4) 0.28219(18)
C2I C -0.0633(4) 0.6368(4) 0.28219(18)
C4I C -0.0000 0.5638(5) 0.2500
C5N C 0.1457(5) 0.6078(4) 0.1755(2)
C6B C -0.0718(5) 1.0718(5) 0.0261(3)
C4B C 0.5638(5) 1.0000 0.2500
C5D C 0.3922(4) 1.1457(5) 0.3245(2)
C5I C -0.1457(5) 0.6078(4) 0.3245(2)
C4K C 0.0000 0.4362(5) 0.2500
H2N H 0.2097 0.5620 0.1896
H1N H 0.1761 0.6793 0.1603
H3N H 0.1055 0.5629 0.1488
C6G C 0.0718(5) 0.9282(5) -0.0261(3)
H4B H -0.1237 1.1237 0.0444
C6F C -0.0718(5) 1.0718(5) -0.0261(3)
C2B C 0.6368(4) 1.0633(4) 0.21781(18)
C2E C 0.6368(4) 0.9367(4) 0.28219(18)
H1D H 0.3207 1.1761 0.3397
H2D H 0.4380 1.2097 0.3104
H3D H 0.4371 1.1055 0.3512
H2I H -0.2097 0.5620 0.3104
H3I H -0.1055 0.5629 0.3512
H1I H -0.1761 0.6793 0.3397
C2O C -0.0633(4) 0.3632(4) 0.21781(18)
C2K C 0.0633(4) 0.3632(4) 0.28219(18)
C3F C 0.0000 1.0000 -0.0545(4)
H4G H 0.1237 0.8763 -0.0444
H4F H -0.1237 1.1237 -0.0444
N1B N 0.7476(3) 1.0395(3) 0.23000(12)
C5B C 0.6078(4) 1.1457(5) 0.1755(2)
N1E_2 N 0.7476(3) 0.9605(3) 0.27000(12)
C5E C 0.6078(4) 0.8543(5) 0.3245(2)
N1O N -0.0395(3) 0.2524(3) 0.23000(12)
C5O C -0.1457(5) 0.3922(4) 0.1755(2)
N1K N 0.0395(3) 0.2524(3) 0.27000(12)
C5K C 0.1457(5) 0.3922(4) 0.3245(2)
C1F C 0.0000 1.0000 -0.1118(3)
Zn1B_2 Zn 0.90122(4) 1.09878(4) 0.20814(2)
H1B H 0.6793 1.1761 0.1603
H2B H 0.5620 1.2097 0.1896
H3B H 0.5629 1.1055 0.1488
Zn1E_2 Zn 0.90122(4) 0.90122(4) 0.29186(2)
H1E H 0.6793 0.8239 0.3397
H2E H 0.5620 0.7903 0.3104
H3E H 0.5629 0.8945 0.3512
Zn1B_3 Zn -0.09878(4) 0.09878(4) 0.20814(2)
H1O H -0.1761 0.3207 0.1603
H3O H -0.1055 0.4371 0.1488
H2O H -0.2097 0.4380 0.1896
Zn1D_2 Zn 0.09878(4) 0.09878(4) 0.29186(2)
H2K H 0.2097 0.4380 0.3104
H1K H 0.1761 0.3207 0.3397
H3K H 0.1055 0.4371 0.3512
O2F O -0.0692(3) 1.0692(3) -0.13474(15)
O2G O 0.0692(3) 0.9308(3) -0.13474(15)
O1_2 O 0.0000 0.0000 0.2500
N1B_2 N -0.2524(3) 0.0395(3) 0.23000(12)
O2B_2 O -0.0692(3) 0.0692(3) 0.13474(15)
N1D_2 N 0.2524(3) 0.0395(3) 0.27000(12)
O2D O 0.0692(3) 0.0692(3) 0.36526(15)
Zn1F Zn -0.09878(4) 1.09878(4) -0.20814(2)
Zn1G Zn 0.09878(4) 0.90122(4) -0.20814(2)
loop_
_geom_bond_atom_site_label_1
_geom_bond_atom_site_label_2
_geom_bond_site_symmetry_1
_geom_bond_site_symmetry_2
Zn1 O1 1_555 1_555
O1 Zn1B 1_555 1_555
O2 Zn1 1_555 1_555
N1 Zn1 1_555 1_555
C1 O2 1_555 1_555
C2 N1 1_555 1_555
C3 C1 1_555 1_555
C4 C2 1_555 1_555
C5 C2 1_555 1_555
C6 C3 1_555 1_555
H1 C5 1_555 1_555
H2 C5 1_555 1_555
H3 C5 1_555 1_555
H4 C6 1_555 1_555
N1N Zn1 1_555 1_555
Zn1B O2B 1_555 1_555
Zn1D O1 1_555 1_555
Zn1E O1 1_555 1_555
N1D N1 1_555 1_555
N1I N1N 1_555 1_555
C2N N1N 1_555 1_555
O2B C1 1_555 1_555
N1E Zn1E 1_555 1_555
O2E Zn1E 1_555 1_555
C2D C4 1_555 1_555
C2I N1I 1_555 1_555
C4I C2N 1_555 1_555
C5N C2N 1_555 1_555
C6B C3 1_555 1_555
C4B C4 1_555 1_555
C5D C2D 1_555 1_555
C5I C2I 1_555 1_555
C4K C4I 1_555 1_555
H2N C5N 1_555 1_555
H1N C5N 1_555 1_555
H3N C5N 1_555 1_555
C6G C6 1_555 1_555
H4B C6B 1_555 1_555
C6F C6B 1_555 1_555
C2B C4B 1_555 1_555
C2E C4B 1_555 1_555
H1D C5D 1_555 1_555
H2D C5D 1_555 1_555
H3D C5D 1_555 1_555
H2I C5I 1_555 1_555
H3I C5I 1_555 1_555
H1I C5I 1_555 1_555
C2O C4K 1_555 1_555
C2K C4K 1_555 1_555
C3F C6G 1_555 1_555
H4G C6G 1_555 1_555
H4F C6F 1_555 1_555
N1B C2B 1_555 1_555
C5B C2B 1_555 1_555
N1E_2 C2E 1_555 1_555
C5E C2E 1_555 1_555
N1O C2O 1_555 1_555
C5O C2O 1_555 1_555
N1K C2K 1_555 1_555
C5K C2K 1_555 1_555
C1F C3F 1_555 1_555
Zn1B_2 N1B 1_555 1_555
H1B C5B 1_555 1_555
H2B C5B 1_555 1_555
H3B C5B 1_555 1_555
Zn1E_2 N1E_2 1_555 1_555
H1E C5E 1_555 1_555
H2E C5E 1_555 1_555
H3E C5E 1_555 1_555
Zn1B_3 N1O 1_555 1_555
H1O C5O 1_555 1_555
H3O C5O 1_555 1_555
H2O C5O 1_555 1_555
Zn1D_2 N1K 1_555 1_555
H2K C5K 1_555 1_555
H1K C5K 1_555 1_555
H3K C5K 1_555 1_555
O2F C1F 1_555 1_555
O2G C1F 1_555 1_555
O1_2 Zn1B_3 1_555 1_555
N1B_2 Zn1B_3 1_555 1_555
O2B_2 Zn1B_3 1_555 1_555
N1D_2 Zn1D_2 1_555 1_555
O2D Zn1D_2 1_555 1_555
Zn1F O2F 1_555 1_555
Zn1G O2G 1_555 1_555
Zn1D N1D 1_555 1_555
Zn1E N1I 1_555 1_555
N1D C2D 1_555 1_555
C2I C4I 1_555 1_555
C6F C3F 1_555 1_555
N1B N1E_2 1_555 1_555
N1O N1K 1_555 1_555
Zn1D_2 O1_2 1_555 1_555

#END
