
#######################################################################
#
#                 Cambridge Crystallographic Data Centre
#                                CCDC 
#
#######################################################################
#
# If this CIF has been generated from an entry in the Cambridge 
# Structural Database, then it will include bibliographic, chemical, 
# crystal, experimental, refinement or atomic coordinate data resulting 
# from the CCDC's data processing and validation procedures.
#
#######################################################################

data_OKECIQ
_chemical_formula_moiety         '(C6 H27 Al9 N4 O51 P12 9-)n'
_symmetry_cell_setting           cubic
_symmetry_space_group_name_H-M   'P -4 3 n'
_symmetry_Int_Tables_number      218
_space_group_name_Hall           'P -4n 2 3'
loop_
_symmetry_equiv_pos_site_id
_symmetry_equiv_pos_as_xyz
1 x,y,z
2 -x,-y,z
3 -x,y,-z
4 x,-y,-z
5 z,x,y
6 z,-x,-y
7 -z,-x,y
8 -z,x,-y
9 y,z,x
10 -y,z,-x
11 y,-z,-x
12 -y,-z,x
13 1/2+y,1/2+x,1/2+z
14 1/2-y,1/2-x,1/2+z
15 1/2+y,1/2-x,1/2-z
16 1/2-y,1/2+x,1/2-z
17 1/2+x,1/2+z,1/2+y
18 1/2-x,1/2+z,1/2-y
19 1/2-x,1/2-z,1/2+y
20 1/2+x,1/2-z,1/2-y
21 1/2+z,1/2+y,1/2+x
22 1/2+z,1/2-y,1/2-x
23 1/2-z,1/2+y,1/2-x
24 1/2-z,1/2-y,1/2+x
_cell_length_a                   16.79420(10)
_cell_length_b                   16.79420(10)
_cell_length_c                   16.79420(10)
_cell_angle_alpha                90
_cell_angle_beta                 90
_cell_angle_gamma                90
_cell_volume                     4736.72
loop_
_atom_site_label
_atom_site_type_symbol
_atom_site_fract_x
_atom_site_fract_y
_atom_site_fract_z
Al1 Al 0.0000 0.5000 0.0000
Al2 Al 0.2500 0.5000 0.0000
Al3 Al 0.0000 0.5000 0.2500
P1 P 0.12289(4) 0.43554(4) 0.12217(4)
O1 O 0.14597(14) 0.35132(13) 0.14297(15)
O2 O 0.19471(11) 0.48395(13) 0.09007(13)
O3 O 0.09342(13) 0.48318(13) 0.19447(11)
O4 O 0.05757(12) 0.43542(13) 0.05792(12)
P1A P -0.12289(4) 0.56446(4) 0.12217(4)
O1A O -0.14597(14) 0.64868(13) 0.14297(15)
O2A O -0.19471(11) 0.51605(13) 0.09007(13)
O3A O -0.09342(13) 0.51682(13) 0.19447(11)
O4A O -0.05757(12) 0.56458(13) 0.05792(12)
P1B P -0.12289(4) 0.43554(4) -0.12217(4)
O1B O -0.14597(14) 0.35132(13) -0.14297(15)
O2B O -0.19471(11) 0.48395(13) -0.09007(13)
O3B O -0.09342(13) 0.48318(13) -0.19447(11)
O4B O -0.05757(12) 0.43542(13) -0.05792(12)
P1C P 0.12289(4) 0.56446(4) -0.12217(4)
O1C O 0.14597(14) 0.64868(13) -0.14297(15)
O2C O 0.19471(11) 0.51605(13) -0.09007(13)
O3C O 0.09342(13) 0.51682(13) -0.19447(11)
O4C O 0.05757(12) 0.56458(13) -0.05792(12)
Al2A Al -0.2500 0.5000 0.0000
Al3B Al 0.0000 0.5000 -0.2500
P1Q P 0.37711(4) 0.62217(4) 0.06446(4)
O1Q O 0.35403(14) 0.64297(15) 0.14868(13)
O2Q O 0.30529(11) 0.59007(13) 0.01605(13)
O3Q O 0.40658(13) 0.69447(11) 0.01682(13)
O4Q O 0.44243(12) 0.55792(12) 0.06458(13)
P1R P 0.37711(4) 0.37783(4) -0.06446(4)
O1R O 0.35403(14) 0.35703(15) -0.14868(13)
O2R O 0.30529(11) 0.40993(13) -0.01605(13)
O3R O 0.40658(13) 0.30553(11) -0.01682(13)
O4R O 0.44243(12) 0.44208(12) -0.06458(13)
P1N P -0.06446(4) 0.37711(4) 0.37783(4)
O1N O -0.14868(13) 0.35403(14) 0.35703(15)
O2N O -0.01605(13) 0.30529(11) 0.40993(13)
O3N O -0.01682(13) 0.40658(13) 0.30553(11)
O4N O -0.06458(13) 0.44243(12) 0.44208(12)
P1O P 0.06446(4) 0.62289(4) 0.37783(4)
O1O O 0.14868(13) 0.64597(14) 0.35703(15)
O2O O 0.01605(13) 0.69471(11) 0.40993(13)
O3O O 0.01682(13) 0.59342(13) 0.30553(11)
O4O O 0.06458(13) 0.55757(12) 0.44208(12)
P1S P -0.37711(4) 0.37783(4) 0.06446(4)
O1S O -0.35403(14) 0.35703(15) 0.14868(13)
O2S O -0.30529(11) 0.40993(13) 0.01605(13)
O3S O -0.40658(13) 0.30553(11) 0.01682(13)
O4S O -0.44243(12) 0.44208(12) 0.06458(13)
P1P P -0.37711(4) 0.62217(4) -0.06446(4)
O1P O -0.35403(14) 0.64297(15) -0.14868(13)
O2P O -0.30529(11) 0.59007(13) -0.01605(13)
O3P O -0.40658(13) 0.69447(11) -0.01682(13)
O4P O -0.44243(12) 0.55792(12) -0.06458(13)
P1M P 0.06446(4) 0.37711(4) -0.37783(4)
O1M O 0.14868(13) 0.35403(14) -0.35703(15)
O2M O 0.01605(13) 0.30529(11) -0.40993(13)
O3M O 0.01682(13) 0.40658(13) -0.30553(11)
O4M O 0.06458(13) 0.44243(12) -0.44208(12)
P1L P -0.06446(4) 0.62289(4) -0.37783(4)
O1L O -0.14868(13) 0.64597(14) -0.35703(15)
O2L O -0.01605(13) 0.69471(11) -0.40993(13)
O3L O -0.01682(13) 0.59342(13) -0.30553(11)
O4L O -0.06458(13) 0.55757(12) -0.44208(12)
Al1Q Al 0.5000 0.5000 0.0000
Al1N Al 0.0000 0.5000 0.5000
Al2N Al 0.0000 0.2500 0.5000
Al3Q Al 0.5000 0.7500 0.0000
Al3H Al 0.5000 0.2500 0.0000
Al2E Al 0.0000 0.7500 0.5000
Al3H_2 Al -0.5000 0.2500 0.0000
Al1P Al -0.5000 0.5000 0.0000
Al3J Al -0.5000 0.7500 0.0000
Al2D Al 0.0000 0.2500 -0.5000
Al1L Al 0.0000 0.5000 -0.5000
Al2E_2 Al 0.0000 0.7500 -0.5000
O4P_2 O 0.55757(12) 0.55792(12) -0.06458(13)
O4S_2 O 0.55757(12) 0.44208(12) 0.06458(13)
O4L_2 O -0.06458(13) 0.55757(12) 0.55792(12)
O4M_2 O 0.06458(13) 0.44243(12) 0.55792(12)
O2D O 0.09007(13) 0.19471(11) 0.48395(13)
O2G O -0.09007(13) 0.19471(11) 0.51605(13)
O2M_2 O 0.01605(13) 0.30529(11) 0.59007(13)
O3J O 0.48318(13) 0.80553(11) -0.09342(13)
O3K O 0.51682(13) 0.80553(11) 0.09342(13)
O3P_2 O 0.59342(13) 0.69447(11) -0.01682(13)
N1 N 0.30224(15) 0.30224(15) 0.30224(15)
C1 C 0.3237(6) 0.2583(5) 0.3749(5)
C3 C 0.3578(2) 0.1752(2) 0.3592(2)
N2 N 0.30453(16) 0.12761(16) 0.30645(16)
C1D C 0.3749(5) 0.3237(6) 0.2583(5)
C3D C 0.3592(2) 0.3578(2) 0.1752(2)
N2D N 0.30645(16) 0.30453(16) 0.12761(16)
C1H C 0.2583(5) 0.3749(5) 0.3237(6)
C3H C 0.1752(2) 0.3592(2) 0.3578(2)
N2H N 0.12761(16) 0.30645(16) 0.30453(16)
O5 O 0.5000 0.5000 0.5000
O6 O 0.5936(4) 0.5936(4) 0.5936(4)
O7 O 0.5484(5) 0.5578(5) 0.7415(4)
loop_
_geom_bond_atom_site_label_1
_geom_bond_atom_site_label_2
_geom_bond_site_symmetry_1
_geom_bond_site_symmetry_2
Al1 O4 1_555 1_555
Al2 O2 1_555 1_555
Al3 O3 1_555 1_555
P1 O1 1_555 1_555
O2 P1 1_555 1_555
O3 P1 1_555 1_555
O4 P1 1_555 1_555
N1 C1 1_555 1_555
C1 C3 1_555 1_555
C3 N2 1_555 1_555
C1D N1 1_555 1_555
C3D C1D 1_555 1_555
N2D C3D 1_555 1_555
C1H N1 1_555 1_555
C3H C1H 1_555 1_555
N2H C3H 1_555 1_555
P1A O1A 1_555 1_555
O2A P1A 1_555 1_555
O3A Al3 1_555 1_555
O4A Al1 1_555 1_555
P1B O1B 1_555 1_555
O2B P1B 1_555 1_555
O3B P1B 1_555 1_555
O4B Al1 1_555 1_555
P1C O1C 1_555 1_555
O2C Al2 1_555 1_555
O3C P1C 1_555 1_555
O4C Al1 1_555 1_555
Al2A O2A 1_555 1_555
Al3B O3B 1_555 1_555
P1Q O1Q 1_555 1_555
O2Q Al2 1_555 1_555
O3Q P1Q 1_555 1_555
O4Q P1Q 1_555 1_555
P1R O1R 1_555 1_555
O2R Al2 1_555 1_555
O3R P1R 1_555 1_555
O4R P1R 1_555 1_555
P1N O1N 1_555 1_555
O2N P1N 1_555 1_555
O3N Al3 1_555 1_555
O4N P1N 1_555 1_555
P1O O1O 1_555 1_555
O2O P1O 1_555 1_555
O3O Al3 1_555 1_555
O4O P1O 1_555 1_555
P1S O1S 1_555 1_555
O2S Al2A 1_555 1_555
O3S P1S 1_555 1_555
O4S P1S 1_555 1_555
P1P O1P 1_555 1_555
O2P Al2A 1_555 1_555
O3P P1P 1_555 1_555
O4P P1P 1_555 1_555
P1M O1M 1_555 1_555
O2M P1M 1_555 1_555
O3M Al3B 1_555 1_555
O4M P1M 1_555 1_555
P1L O1L 1_555 1_555
O2L P1L 1_555 1_555
O3L Al3B 1_555 1_555
O4L P1L 1_555 1_555
Al1Q O4Q 1_555 1_555
Al1N O4N 1_555 1_555
Al2N O2N 1_555 1_555
Al3Q O3Q 1_555 1_555
Al3H O3R 1_555 1_555
Al2E O2O 1_555 1_555
Al3H_2 O3S 1_555 1_555
Al1P O4S 1_555 1_555
Al3J O3P 1_555 1_555
Al2D O2M 1_555 1_555
Al1L O4M 1_555 1_555
Al2E_2 O2L 1_555 1_555
O4P_2 Al1Q 1_555 1_555
O4S_2 Al1Q 1_555 1_555
O4L_2 Al1N 1_555 1_555
O4M_2 Al1N 1_555 1_555
O2D Al2N 1_555 1_555
O2G Al2N 1_555 1_555
O2M_2 Al2N 1_555 1_555
O3J Al3Q 1_555 1_555
O3K Al3Q 1_555 1_555
O3P_2 Al3Q 1_555 1_555
P1A O3A 1_555 1_555
P1A O4A 1_555 1_555
P1B O4B 1_555 1_555
O2B Al2A 1_555 1_555
P1C O2C 1_555 1_555
P1C O4C 1_555 1_555
O3C Al3B 1_555 1_555
P1Q O2Q 1_555 1_555
P1R O2R 1_555 1_555
O4R Al1Q 1_555 1_555
P1N O3N 1_555 1_555
P1O O3O 1_555 1_555
O4O Al1N 1_555 1_555
P1S O2S 1_555 1_555
P1P O2P 1_555 1_555
O4P Al1P 1_555 1_555
P1M O3M 1_555 1_555
P1L O3L 1_555 1_555
O4L Al1L 1_555 1_555

#END
