
#######################################################################
#
#                 Cambridge Crystallographic Data Centre
#                                CCDC 
#
#######################################################################
#
# If this CIF has been generated from an entry in the Cambridge 
# Structural Database, then it will include bibliographic, chemical, 
# crystal, experimental, refinement or atomic coordinate data resulting 
# from the CCDC's data processing and validation procedures.
#
#######################################################################

data_JABMEF
_chemical_formula_moiety         '(C2 H12 N1 O12 P3 Zn2 1-)n'
_symmetry_cell_setting           monoclinic
_symmetry_space_group_name_H-M   'C 2/c'
_symmetry_Int_Tables_number      15
_space_group_name_Hall           '-C 2yc'
loop_
_symmetry_equiv_pos_site_id
_symmetry_equiv_pos_as_xyz
1 x,y,z
2 1/2+x,1/2+y,z
3 -x,y,1/2-z
4 1/2-x,1/2+y,1/2-z
5 -x,-y,-z
6 1/2-x,1/2-y,-z
7 x,-y,1/2+z
8 1/2+x,1/2-y,1/2+z
_cell_length_a                   17.3514(6)
_cell_length_b                   9.5075(3)
_cell_length_c                   9.8065(3)
_cell_angle_alpha                90
_cell_angle_beta                 102.682(2)
_cell_angle_gamma                90
_cell_volume                     1578.3
loop_
_atom_site_label
_atom_site_type_symbol
_atom_site_fract_x
_atom_site_fract_y
_atom_site_fract_z
_atom_site_U_iso_or_equiv
_atom_site_thermal_displace_type
Zn1 Zn 0.17892(2) 0.07950(4) 0.37523(4) 0.0165 Uani
P1 P 0.31043(6) 0.32213(10) 0.31876(10) 0.0171 Uani
P2 P 0.0000 0.04456(15) 0.2500 0.0176 Uani
O1 O 0.2506(2) 0.2087(3) 0.3193(3) 0.0322 Uani
O2 O 0.3131(2) 0.4381(3) 0.4265(3) 0.0251 Uani
O3 O 0.2970(2) 0.3858(3) 0.1718(3) 0.0236 Uani
O4 O 0.07412(15) 0.1351(3) 0.2653(3) 0.0224 Uani
O5 O 0.3936(2) 0.2451(3) 0.3499(3) 0.0305 Uani
H1 H 0.4287(2) 0.3031(3) 0.3508(3) 0.0460 Uiso
O6 O -0.0089(2) -0.0543(3) 0.1204(3) 0.0226 Uani
H2 H 0.0307(2) -0.1032(3) 0.1283(3) 0.0340 Uiso
O4B O -0.07412(15) 0.1351(3) 0.2347(3) 0.0224 Uani
O6B O 0.0089(2) -0.0543(3) 0.3796(3) 0.0226 Uani
H2B H -0.0307(2) -0.1032(3) 0.3717(3) 0.0340 Uiso
P1E P 0.18957(6) 0.17787(10) 0.68124(10) 0.0171 Uani
O1E O 0.2494(2) 0.2913(3) 0.6807(3) 0.0322 Uani
O2E O 0.1869(2) 0.0619(3) 0.5735(3) 0.0251 Uani
O3E O 0.2030(2) 0.1142(3) 0.8282(3) 0.0236 Uani
O5E O 0.1064(2) 0.2549(3) 0.6501(3) 0.0305 Uani
H1E H 0.0713(2) 0.1969(3) 0.6492(3) 0.0460 Uiso
Zn1E Zn 0.32108(2) 0.42050(4) 0.62477(4) 0.0165 Uani
O3C O 0.2030(2) -0.1142(3) 0.3282(3) 0.0236 Uani
Zn1C Zn 0.32108(2) 0.57950(4) 0.12477(4) 0.0165 Uani
Zn1B Zn -0.17892(2) 0.07950(4) 0.12477(4) 0.0165 Uani
Zn1F Zn 0.17892(2) -0.07950(4) 0.87523(4) 0.0165 Uani
O3F O 0.2970(2) 0.6142(3) 0.6718(3) 0.0236 Uani
O4E O 0.42588(15) 0.3649(3) 0.7347(3) 0.0224 Uani
N1 N 0.1363(2) 0.2669(4) 1.0383(4) 0.0328 Uani
H3 H 0.1196(2) 0.2160(4) 1.1022(4) 0.0490 Uiso
H4 H 0.1868(2) 0.2898(4) 1.0702(4) 0.0490 Uiso
H5 H 0.1315(2) 0.2169(4) 0.9601(4) 0.0490 Uiso
C1 C 0.0887(3) 0.3953(5) 1.0089(7) 0.0588 Uani
H6 H 0.0338(3) 0.3685(5) 0.9771(7) 0.0710 Uiso
H7 H 0.0933(3) 0.4470(5) 1.0956(7) 0.0710 Uiso
C2 C 0.1097(3) 0.4885(5) 0.9059(5) 0.0481 Uani
H8 H 0.0756(3) 0.5692(5) 0.8936(5) 0.0720 Uiso
H9 H 0.1039(3) 0.4397(5) 0.8185(5) 0.0720 Uiso
H10 H 0.1636(3) 0.5184(5) 0.9373(5) 0.0720 Uiso
loop_
_atom_site_aniso_label
_atom_site_aniso_U_11
_atom_site_aniso_U_22
_atom_site_aniso_U_33
_atom_site_aniso_U_23
_atom_site_aniso_U_13
_atom_site_aniso_U_12
Zn1 0.0141(3) 0.0193(3) 0.0162(3) -0.0003(2) 0.0036(2) -0.0028(2)
P1 0.016 0.0208 0.0152 0.0006 0.0047 -0.0046
P2 0.0090(7) 0.0210(7) 0.0224(9) 0.000 0.0024(6) 0.000
O1 0.03 0.035 0.032 0.0027 0.0074 -0.0165
O2 0.031 0.0276 0.018 -0.0016 0.008 -0.0024
O3 0.034 0.0222 0.015 0.0003 0.0063 -0.0053
O4 0.0122(15) 0.0269(14) 0.027(2) 0.0041(13) 0.0022(12) -0.0022(12)
O5 0.021 0.025 0.043 0.0003 0.0014 0.0002
O6 0.018(2) 0.0289(15) 0.020(2) -0.0039(12) 0.0025(12) 0.0049(12)
O4B 0.0122 0.0269 0.027 -0.0041 0.0022 0.0022
O6B 0.018 0.0289 0.02 0.0039 0.0025 -0.0049
P1E 0.0160(6) 0.0208(6) 0.0152(6) 0.0006(4) 0.0047(4) -0.0046(4)
O1E 0.03 0.035 0.032 0.0027 0.0074 -0.0165
O2E 0.031(2) 0.0276(15) 0.018(2) -0.0016(12) 0.0080(13) -0.0024(12)
O3E 0.034 0.0222 0.015 0.0003 0.0063 -0.0053
O5E 0.021(2) 0.025(2) 0.043(2) 0.0003(13) 0.0014(14) 0.0002(13)
Zn1E 0.0141 0.0193 0.0162 -0.0003 0.0036 -0.0028
O3C 0.034 0.0222 0.015 -0.0003 0.0063 0.0053
Zn1C 0.0141 0.0193 0.0162 0.0003 0.0036 0.0028
Zn1B 0.0141 0.0193 0.0162 0.0003 0.0036 0.0028
Zn1F 0.0141 0.0193 0.0162 0.0003 0.0036 0.0028
O3F 0.034 0.0222 0.015 -0.0003 0.0063 0.0053
O4E 0.0122 0.0269 0.027 0.0041 0.0022 -0.0022
N1 0.029(2) 0.042(2) 0.025(2) 0.001(2) 0.001(2) -0.001(2)
C1 0.046(4) 0.047(3) 0.093(5) 0.010(3) 0.036(3) 0.009(3)
C2 0.062(4) 0.040(3) 0.042(3) -0.002(2) 0.011(3) 0.009(3)
loop_
_geom_bond_atom_site_label_1
_geom_bond_atom_site_label_2
_geom_bond_site_symmetry_1
_geom_bond_site_symmetry_2
Zn1 O1 1_555 1_555
P1 O1 1_555 1_555
P2 O4 1_555 1_555
O2 P1 1_555 1_555
O3 P1 1_555 1_555
O4 Zn1 1_555 1_555
O5 P1 1_555 1_555
H1 O5 1_555 1_555
O6 P2 1_555 1_555
H2 O6 1_555 1_555
N1 H3 1_555 1_555
H4 N1 1_555 1_555
H5 N1 1_555 1_555
C1 N1 1_555 1_555
H6 C1 1_555 1_555
H7 C1 1_555 1_555
C2 C1 1_555 1_555
H8 C2 1_555 1_555
H9 C2 1_555 1_555
H10 C2 1_555 1_555
O4B P2 1_555 1_555
O6B P2 1_555 1_555
H2B O6B 1_555 1_555
P1E O1E 1_555 1_555
O1E Zn1E 1_555 1_555
O2E Zn1 1_555 1_555
O3E P1E 1_555 1_555
O5E P1E 1_555 1_555
H1E O5E 1_555 1_555
Zn1E O2 1_555 1_555
O3C Zn1 1_555 1_555
Zn1C O3 1_555 1_555
Zn1B O4B 1_555 1_555
Zn1F O3E 1_555 1_555
O3F Zn1E 1_555 1_555
O4E Zn1E 1_555 1_555
P1E O2E 1_555 1_555

#END
