
#######################################################################
#
#                 Cambridge Crystallographic Data Centre
#                                CCDC 
#
#######################################################################
#
# If this CIF has been generated from an entry in the Cambridge 
# Structural Database, then it will include bibliographic, chemical, 
# crystal, experimental, refinement or atomic coordinate data resulting 
# from the CCDC's data processing and validation procedures.
#
#######################################################################

data_RAXBOJ
_chemical_formula_moiety         '(C10 H52 Mn2 Mo12 N2 O78 P8 Sr4)n'
_symmetry_cell_setting           monoclinic
_symmetry_space_group_name_H-M   'P 21/c'
_symmetry_Int_Tables_number      14
_space_group_name_Hall           '-P 2ybc'
loop_
_symmetry_equiv_pos_site_id
_symmetry_equiv_pos_as_xyz
1 x,y,z
2 -x,1/2+y,1/2-z
3 -x,-y,-z
4 x,1/2-y,1/2+z
_cell_length_a                   14.1675(4)
_cell_length_b                   21.2583(6)
_cell_length_c                   13.6566(4)
_cell_angle_alpha                90
_cell_angle_beta                 113.85
_cell_angle_gamma                90
_cell_volume                     3761.83
loop_
_atom_site_label
_atom_site_type_symbol
_atom_site_fract_x
_atom_site_fract_y
_atom_site_fract_z
Mo1 Mo 0.645852(18) 0.586801(11) 0.35571(2)
Mo2 Mo 0.614336(18) 0.423586(11) 0.318139(19)
Mo3 Mo 0.714073(18) 0.416246(11) 0.73752(2)
Mo4 Mo 0.644956(19) 0.351268(11) 0.48145(2)
Mo5 Mo 0.734473(18) 0.537341(11) 0.76482(2)
Mo6 Mo 0.692727(18) 0.635356(11) 0.54373(2)
Sr1 Sr 0.86874(2) 0.358626(13) 0.32050(2)
Sr2 Sr 1.01470(2) 0.482060(14) 0.78651(2)
Mn1 Mn 1.0000 0.5000 0.5000
Mn2 Mn 0.5000 0.5000 0.5000
P1 P 0.77776(5) 0.50387(4) 0.24847(6)
P2 P 0.78827(5) 0.48573(3) 0.55486(6)
P3 P 0.91027(6) 0.63781(4) 0.75881(6)
P4 P 0.81058(6) 0.28189(4) 0.69853(7)
O1 O 0.68025(18) 0.39668(11) 0.83750(19)
O2 O 0.52498(17) 0.38247(11) 0.21968(18)
O3 O 0.63464(18) 0.70531(11) 0.50970(19)
O4 O 0.57724(17) 0.64598(11) 0.27769(18)
O5 O 0.70817(18) 0.54552(11) 0.87346(18)
O6 O 0.58033(15) 0.57714(10) 0.45854(16)
O7 O 0.54945(15) 0.51280(10) 0.26931(16)
O8 O 0.74899(15) 0.42568(9) 0.59037(16)
O9 O 0.61008(16) 0.35906(10) 0.61755(17)
O10 O 0.55517(15) 0.42571(10) 0.42642(16)
O11 O 0.61802(15) 0.48613(9) 0.66820(16)
O12 O 0.83612(15) 0.46958(10) 0.80159(17)
O13 O 0.90202(15) 0.47995(10) 0.58071(17)
O14 O 0.72246(15) 0.49550(9) 0.43457(16)
O15 O 0.70683(16) 0.44646(10) 0.24071(17)
O16 O 0.73096(16) 0.56433(10) 0.27182(18)
O17 O 0.78872(16) 0.51145(11) 0.14273(17)
O18 O 0.76840(15) 0.54211(9) 0.61627(16)
O19 O 0.72424(16) 0.36453(10) 0.39602(17)
O20 O 0.77114(15) 0.62554(10) 0.45719(17)
O21 O 0.98704(16) 0.60172(11) 0.73046(18)
O22 O 0.81693(17) 0.34318(10) 0.76013(18)
O23 O 0.76612(17) 0.29524(10) 0.57726(18)
O24 O 0.56231(18) 0.29263(11) 0.42173(19)
O25 O 0.85981(16) 0.59724(10) 0.81721(17)
O26 O 0.82689(16) 0.66995(10) 0.66057(18)
O27 O 0.88438(16) 0.48806(10) 0.33566(17)
O28 O 0.73986(19) 0.23329(11) 0.7233(2)
H1 H 0.6858 0.2504 0.7168
O29 O 0.65290(15) 0.61476(10) 0.67489(16)
O30 O 0.96589(17) 0.69211(11) 0.84011(18)
H2 H 1.0042 0.7114 0.8190
O31 O 0.91420(18) 0.25036(11) 0.73555(19)
O36 O 1.0134(4) 0.3878(2) 0.9164(4)
O37 O 1.0760(2) 0.54406(14) 0.9650(2)
O38 O 0.8042(2) 0.36888(14) 0.1067(2)
O39 O 0.9050(2) 0.27477(14) 0.4669(2)
H16 H 0.8610 0.2739 0.4946
H17 H 0.9476 0.2450 0.4945
O40 O 1.0387(2) 0.36801(13) 0.7095(2)
H18 H 1.0683 0.3653 0.6665
H19 H 1.0167 0.3350 0.7286
O41 O 0.97261(17) 0.60324(11) 0.49692(18)
H20 H 0.9229 0.6262 0.4951
H21 H 1.0154 0.6267 0.4850
Mo1B Mo 1.354148(18) 0.413199(11) 0.64429(2)
Mo2B Mo 1.385664(18) 0.576414(11) 0.681861(19)
Mo3B Mo 1.285927(18) 0.583754(11) 0.26248(2)
Mo3C Mo 0.714073(18) 0.083754(11) 0.23752(2)
Mo4B Mo 1.355044(19) 0.648732(11) 0.51855(2)
Mo4C Mo 0.644956(19) 0.148732(11) -0.01855(2)
Mo5B Mo 1.265527(18) 0.462659(11) 0.23518(2)
Mo6B Mo 1.307273(18) 0.364644(11) 0.45627(2)
Sr1B Sr 1.13126(2) 0.641374(13) 0.67950(2)
Sr1C Sr 0.86874(2) 0.141374(13) 0.82050(2)
Sr2B Sr 0.98530(2) 0.517940(14) 0.21349(2)
Mn2_2 Mn 1.5000 0.5000 0.5000
P1B P 1.22224(5) 0.49613(4) 0.75153(6)
P2B P 1.21173(5) 0.51427(3) 0.44514(6)
P3B P 1.08973(6) 0.36219(4) 0.24119(6)
P4C P 0.81058(6) 0.21811(4) 0.19853(7)
O1B O 1.31975(18) 0.60332(11) 0.16250(19)
O2B O 1.47502(17) 0.61753(11) 0.78032(18)
O3B O 1.36536(18) 0.29469(11) 0.49030(19)
O4B O 1.42276(17) 0.35402(11) 0.72231(18)
O5B O 1.29183(18) 0.45448(11) 0.12654(18)
O6B O 1.41967(15) 0.42286(10) 0.54146(16)
O6B_2 O 0.41967(15) 0.42286(10) 0.54146(16)
O7B O 1.45055(15) 0.48720(10) 0.73069(16)
O8B O 1.25101(15) 0.57432(9) 0.40963(16)
O9B O 1.38992(16) 0.64094(10) 0.38245(17)
O10B O 1.44483(15) 0.57429(10) 0.57358(16)
O10B_2 O 0.44483(15) 0.57429(10) 0.57358(16)
O11B O 1.38198(15) 0.51387(9) 0.33180(16)
O11B_2 O 0.38198(15) 0.51387(9) 0.33180(16)
O12B O 1.16388(15) 0.53042(10) 0.19841(17)
O13B O 1.09798(15) 0.52005(10) 0.41929(17)
O14B O 1.27754(15) 0.50450(9) 0.56543(16)
O15B O 1.29317(16) 0.55354(10) 0.75929(17)
O16B O 1.26904(16) 0.43567(10) 0.72818(18)
O17B O 1.21128(16) 0.48855(11) 0.85727(17)
O18B O 1.23160(15) 0.45789(9) 0.38373(16)
O19B O 1.27576(16) 0.63547(10) 0.60398(17)
O20B O 1.22886(15) 0.37446(10) 0.54281(17)
O21B O 1.01296(16) 0.39828(11) 0.26954(18)
O22C O 0.81693(17) 0.15682(10) 0.26013(18)
O22B O 1.18307(17) 0.65682(10) 0.23987(18)
O23C O 0.76612(17) 0.20476(10) 0.07726(18)
O23B O 1.23388(17) 0.70476(10) 0.42274(18)
O24B O 1.43769(18) 0.70737(11) 0.57827(19)
O25B O 1.14019(16) 0.40276(10) 0.18279(17)
O26B O 1.17311(16) 0.33005(10) 0.33943(18)
O27B O 1.11562(16) 0.51194(10) 0.66434(17)
O28C O 0.73986(19) 0.26671(11) 0.2233(2)
O28A O 1.26014(19) 0.73329(11) 0.7767(2)
H1C H 0.6858 0.2496 0.2168
H1A H 1.3142 0.7504 0.7832
O29B O 1.34710(15) 0.38524(10) 0.32511(16)
O30B O 1.03411(17) 0.30789(11) 0.15989(18)
H2B H 0.9958 0.2886 0.1810
O31C O 0.91420(18) 0.24964(11) 0.23555(19)
O31A O 1.08580(18) 0.75036(11) 0.76445(19)
O36B O 0.9866(4) 0.6122(2) 0.0836(4)
O37B O 0.9240(2) 0.45594(14) 0.0350(2)
O38B O 1.1958(2) 0.63112(14) 0.8933(2)
O39B O 1.0950(2) 0.72523(14) 0.5331(2)
H16B H 1.1390 0.7261 0.5054
H17B H 1.0524 0.7550 0.5055
O40B O 0.9613(2) 0.63199(13) 0.2905(2)
H18B H 0.9317 0.6347 0.3335
H19B H 0.9833 0.6650 0.2714
O41B O 1.02739(17) 0.39676(11) 0.50308(18)
H20B H 1.0771 0.3738 0.5049
H21B H 0.9846 0.3733 0.5150
N1 N 0.4622(3) 0.33730(18) 0.9717(3)
H3 H 0.4513 0.2974 0.9657
C1 C 0.5569(3) 0.36102(19) 0.9870(3)
H4 H 0.6100 0.3342 0.9903
C2 C 0.5732(3) 0.42579(18) 0.9976(3)
H5 H 0.6373 0.4423 1.0074
C3 C 0.3847(3) 0.37801(18) 0.9661(4)
H6 H 0.3198 0.3625 0.9549
C4 C 0.4027(2) 0.43971(14) 0.9768(3)
H7 H 0.3490 0.4662 0.9724
C5 C 0.4947(2) 0.46561(16) 0.9936(3)
N1B N 0.5378(3) 0.66270(18) 1.0283(3)
H3B H 0.5487 0.7026 1.0343
C1B C 0.4431(3) 0.63898(19) 1.0130(3)
H4B H 0.3900 0.6658 1.0097
C2B C 0.4268(3) 0.57421(18) 1.0024(3)
H5B H 0.3627 0.5577 0.9926
C3B C 0.6153(3) 0.62199(18) 1.0339(4)
H6B H 0.6802 0.6375 1.0451
C4B C 0.5973(2) 0.56029(14) 1.0232(3)
H7B H 0.6510 0.5338 1.0276
C5B C 0.5053(2) 0.53439(16) 1.0064(3)
O32 O 0.5589(2) 0.25326(14) 0.7187(3)
H8 H 0.5418 0.2812 0.7530
H9 H 0.5452 0.2148 0.7241
O33 O 0.7857(3) 0.69941(19) 0.2214(4)
H10 H 0.7844 0.7015 0.1587
H11 H 0.7548 0.7271 0.2424
O34 O 0.6892(4) 0.7182(2) 0.8325(4)
H12 H 0.6886 0.6893 0.7893
H13 H 0.6299 0.7353 0.8080
O35 O 0.8765(4) 0.7260(2) 0.0211(4)
H14 H 0.8733 0.6868 0.0082
H15 H 0.9337 0.7332 0.0735
loop_
_geom_bond_atom_site_label_1
_geom_bond_atom_site_label_2
_geom_bond_site_symmetry_1
_geom_bond_site_symmetry_2
Mo1 Mo6 1_555 1_555
Mo2 Mo4 1_555 1_555
Mo3 Mo5 1_555 1_555
Mo4 O8 1_555 1_555
Mo5 O5 1_555 1_555
Mo6 O3 1_555 1_555
Sr1 O19 1_555 1_555
Sr2 O12 1_555 1_555
Mn1 O13 1_555 1_555
Mn2 O6 1_555 1_555
P1 O15 1_555 1_555
P2 O8 1_555 1_555
P3 O21 1_555 1_555
P4 O22 1_555 1_555
O1 Mo3 1_555 1_555
O2 Mo2 1_555 1_555
O4 Mo1 1_555 1_555
O6 Mo1 1_555 1_555
O7 Mo1 1_555 1_555
O8 Mo3 1_555 1_555
O9 Mo3 1_555 1_555
O10 Mo2 1_555 1_555
O11 Mo3 1_555 1_555
O12 Mo3 1_555 1_555
O13 Sr2 1_555 1_555
O14 Mo1 1_555 1_555
O15 Mo2 1_555 1_555
O16 Mo1 1_555 1_555
O17 P1 1_555 1_555
O18 Mo5 1_555 1_555
O19 Mo2 1_555 1_555
O20 Mo1 1_555 1_555
O21 Sr2 1_555 1_555
O22 Mo3 1_555 1_555
O23 Mo4 1_555 1_555
O24 Mo4 1_555 1_555
O25 Mo5 1_555 1_555
O26 Mo6 1_555 1_555
O27 Sr1 1_555 1_555
O28 P4 1_555 1_555
H1 O28 1_555 1_555
O29 Mo5 1_555 1_555
O30 P3 1_555 1_555
H2 O30 1_555 1_555
O31 P4 1_555 1_555
N1 H3 1_555 1_555
C1 N1 1_555 1_555
H4 C1 1_555 1_555
C2 C1 1_555 1_555
H5 C2 1_555 1_555
C3 N1 1_555 1_555
H6 C3 1_555 1_555
C4 C3 1_555 1_555
H7 C4 1_555 1_555
C5 C2 1_555 1_555
O32 H8 1_555 1_555
H9 O32 1_555 1_555
O33 H10 1_555 1_555
H11 O33 1_555 1_555
O34 H12 1_555 1_555
H13 O34 1_555 1_555
O35 H14 1_555 1_555
H15 O35 1_555 1_555
O36 Sr2 1_555 1_555
O37 Sr2 1_555 1_555
O38 Sr1 1_555 1_555
O39 Sr1 1_555 1_555
H16 O39 1_555 1_555
H17 O39 1_555 1_555
O40 Sr2 1_555 1_555
H18 O40 1_555 1_555
H19 O40 1_555 1_555
O41 Mn1 1_555 1_555
H20 O41 1_555 1_555
H21 O41 1_555 1_555
Mo1B Mo6B 1_555 1_555
Mo2B Mo4B 1_555 1_555
Mo3B Mo5B 1_555 1_555
Mo3C O22C 1_555 1_555
Mo4B O8B 1_555 1_555
Mo4C O23C 1_555 1_555
Mo5B O5B 1_555 1_555
Mo6B O3B 1_555 1_555
Sr1B O21 1_555 1_555
Sr1C O28 1_555 1_555
Sr2B O17 1_555 1_555
Mn2_2 O6B 1_555 1_555
P1B O15B 1_555 1_555
P2B O8B 1_555 1_555
P3B O21B 1_555 1_555
P4C O22C 1_555 1_555
O1B Mo3B 1_555 1_555
O2B Mo2B 1_555 1_555
O4B Mo1B 1_555 1_555
O6B Mo1B 1_555 1_555
O6B_2 Mn2 1_555 1_555
O7B Mo1B 1_555 1_555
O8B Mo3B 1_555 1_555
O9B Mo3B 1_555 1_555
O10B Mo2B 1_555 1_555
O10B_2 Mn2 1_555 1_555
O11B Mo3B 1_555 1_555
O11B_2 Mn2 1_555 1_555
O12B Mo3B 1_555 1_555
O13B Mn1 1_555 1_555
O14B Mo1B 1_555 1_555
O15B Mo2B 1_555 1_555
O16B Mo1B 1_555 1_555
O17B Sr2 1_555 1_555
O18B Mo5B 1_555 1_555
O19B Mo2B 1_555 1_555
O20B Mo1B 1_555 1_555
O21B Sr1 1_555 1_555
O22B Mo3B 1_555 1_555
O23C P4C 1_555 1_555
O23B Mo4B 1_555 1_555
O24B Mo4B 1_555 1_555
O25B Mo5B 1_555 1_555
O26B Mo6B 1_555 1_555
O27B Sr2 1_555 1_555
O28C Sr1 1_555 1_555
O28A Sr1B 1_555 1_555
H1C O28C 1_555 1_555
H1A O28A 1_555 1_555
O29B Mo5B 1_555 1_555
O30B P3B 1_555 1_555
H2B O30B 1_555 1_555
O31C Sr1 1_555 1_555
O31A Sr1B 1_555 1_555
N1B H3B 1_555 1_555
C1B N1B 1_555 1_555
H4B C1B 1_555 1_555
C2B C1B 1_555 1_555
H5B C2B 1_555 1_555
C3B N1B 1_555 1_555
H6B C3B 1_555 1_555
C4B C3B 1_555 1_555
H7B C4B 1_555 1_555
C5B C5 1_555 1_555
O36B Sr2B 1_555 1_555
O37B Sr2B 1_555 1_555
O38B Sr1B 1_555 1_555
O39B Sr1B 1_555 1_555
H16B O39B 1_555 1_555
H17B O39B 1_555 1_555
O40B Sr2B 1_555 1_555
H18B O40B 1_555 1_555
H19B O40B 1_555 1_555
O41B Sr1 1_555 1_555
H20B O41B 1_555 1_555
H21B O41B 1_555 1_555
Mo2 O7 1_555 1_555
Mo2 O14 1_555 1_555
Mo4 O9 1_555 1_555
Mo4 O10 1_555 1_555
Mo4 O19 1_555 1_555
Mo5 O11 1_555 1_555
Mo5 O12 1_555 1_555
Mo6 O6 1_555 1_555
Mo6 O18 1_555 1_555
Mo6 O20 1_555 1_555
Mo6 O29 1_555 1_555
Mn1 O27 1_555 1_555
Mn1 O27B 1_555 1_555
Mn1 O41B 1_555 1_555
Mn2 O10 1_555 1_555
Mn2 O11 1_555 1_555
P1 O16 1_555 1_555
P1 O27 1_555 1_555
P2 O13 1_555 1_555
P2 O14 1_555 1_555
P2 O18 1_555 1_555
P3 O25 1_555 1_555
P3 O26 1_555 1_555
P4 O23 1_555 1_555
O27 Sr2B 1_555 1_555
O31 Sr1C 1_555 1_555
C4 C5 1_555 1_555
O41 Sr1B 1_555 1_555
Mo2B O7B 1_555 1_555
Mo2B O14B 1_555 1_555
Mo4B O9B 1_555 1_555
Mo4B O10B 1_555 1_555
Mo4B O19B 1_555 1_555
Mo5B O11B 1_555 1_555
Mo5B O12B 1_555 1_555
Mo6B O6B 1_555 1_555
Mo6B O18B 1_555 1_555
Mo6B O20B 1_555 1_555
Mo6B O29B 1_555 1_555
Sr1B O19B 1_555 1_555
Sr1B O27B 1_555 1_555
Sr2B O12B 1_555 1_555
Sr2B O13B 1_555 1_555
Sr2B O21B 1_555 1_555
Mn2_2 O10B 1_555 1_555
Mn2_2 O11B 1_555 1_555
P1B O16B 1_555 1_555
P1B O17B 1_555 1_555
P1B O27B 1_555 1_555
P2B O13B 1_555 1_555
P2B O14B 1_555 1_555
P2B O18B 1_555 1_555
P3B O25B 1_555 1_555
P3B O26B 1_555 1_555
P4C O28C 1_555 1_555
P4C O31C 1_555 1_555
C2B C5B 1_555 1_555
C4B C5B 1_555 1_555

#END
