
#######################################################################
#
#                 Cambridge Crystallographic Data Centre
#                                CCDC 
#
#######################################################################
#
# If this CIF has been generated from an entry in the Cambridge 
# Structural Database, then it will include bibliographic, chemical, 
# crystal, experimental, refinement or atomic coordinate data resulting 
# from the CCDC's data processing and validation procedures.
#
#######################################################################

data_BEFKUU
_chemical_formula_moiety         'C9 H2 Al82 N1 O243 P48'
_symmetry_cell_setting           rhombohedral
_symmetry_space_group_name_H-M   'R -3'
_symmetry_Int_Tables_number      148
_space_group_name_Hall           '-R 3'
loop_
_symmetry_equiv_pos_site_id
_symmetry_equiv_pos_as_xyz
1 x,y,z
2 -y,x-y,z
3 -x+y,-x,z
4 1/3+x,2/3+y,2/3+z
5 1/3-y,2/3+x-y,2/3+z
6 1/3-x+y,2/3-x,2/3+z
7 2/3+x,1/3+y,1/3+z
8 2/3-y,1/3+x-y,1/3+z
9 2/3-x+y,1/3-x,1/3+z
10 -x,-y,-z
11 y,-x+y,-z
12 x-y,x,-z
13 2/3-x,1/3-y,1/3-z
14 2/3+y,1/3-x+y,1/3-z
15 2/3+x-y,1/3+x,1/3-z
16 1/3-x,2/3-y,2/3-z
17 1/3+y,2/3-x+y,2/3-z
18 1/3+x-y,2/3+x,2/3-z
_cell_length_a                   13.8665(10)
_cell_length_b                   13.8665(10)
_cell_length_c                   15.056(2)
_cell_angle_alpha                90
_cell_angle_beta                 90
_cell_angle_gamma                120
_cell_volume                     2507.11
loop_
_atom_site_label
_atom_site_type_symbol
_atom_site_fract_x
_atom_site_fract_y
_atom_site_fract_z
O1 O 0.6667 0.3333 0.3333
Al1 Al 0.6592(1) 0.1019(1) 0.4286(1)
P1 P 0.8913(1) 0.3241(1) 0.4456(1)
O2 O 0.7923(5) 0.2124(4) 0.4688(4)
O3 O 0.8620(4) 0.4141(5) 0.4560(4)
O4 O 0.9822(6) 0.3416(5) 0.5090(4)
O5 O 0.9303(4) 0.3231(5) 0.3529(3)
Al1B Al 0.4427(1) 0.3408(1) 0.4286(1)
Al1K Al 0.5573(1) -0.3408(1) 0.5714(1)
Al1P Al 0.4352(1) 0.1094(1) 0.2381(1)
Al1A Al 0.8981(1) 0.5573(1) 0.4286(1)
Al1I Al 0.3408(1) -0.1019(1) 0.5714(1)
Al1Q Al 0.8906(1) 0.3259(1) 0.2381(1)
Al1J Al 1.1019(1) 0.4427(1) 0.5714(1)
Al1E Al 0.7760(1) 0.0075(1) 0.0953(1)
Al1G Al 0.5648(1) -0.1094(1) 0.7619(1)
Al1J_2 Al 0.1019(1) 0.4427(1) 0.5714(1)
Al1O Al 0.6741(1) 0.5648(1) 0.2381(1)
Al1J_3 Al 0.1019(1) -0.5573(1) 0.5714(1)
Al1A_2 Al 0.8981(1) -0.4427(1) 0.4286(1)
Al1F Al 0.3259(1) -0.5648(1) 0.7619(1)
Al1C Al -0.0075(1) -0.2314(1) 0.0953(1)
Al1I_2 Al 1.3408(1) 0.8981(1) 0.5714(1)
Al1D Al 1.2314(1) 0.2240(1) 0.0953(1)
Al1H Al 1.1094(1) 0.6741(1) 0.7619(1)
Al1L Al 1.0075(1) 0.2314(1) -0.0953(1)
Al1L_2 Al 1.0075(1) 0.2314(1) 0.9047(1)
Al1K_2 Al 0.5573(1) 0.6592(1) 0.5714(1)
Al1B_2 Al 0.4427(1) -0.6592(1) 0.4286(1)
Al1D_2 Al 0.2314(1) 0.2240(1) 0.0953(1)
Al1H_2 Al 0.1094(1) -0.3259(1) 0.7619(1)
Al1K_3 Al 1.5573(1) 0.6592(1) 0.5714(1)
Al1F_2 Al 1.3259(1) 0.4352(1) 0.7619(1)
Al1C_2 Al 0.9925(1) -0.2314(1) 0.0953(1)
Al1M Al 0.7686(1) -0.2240(1) -0.0953(1)
Al1M_2 Al 0.7686(1) -0.2240(1) 0.9047(1)
Al1C_3 Al 0.9925(1) 0.7686(1) 0.0953(1)
Al1A_3 Al -0.1019(1) -0.4427(1) 0.4286(1)
Al1N Al 0.2240(1) -0.0075(1) 0.9047(1)
Al1B_3 Al 1.4427(1) 0.3408(1) 0.4286(1)
Al1O_2 Al 0.6741(1) -0.4352(1) 0.2381(1)
Al1G_2 Al 0.5648(1) -0.1094(1) -0.2381(1)
Al1F_3 Al 0.3259(1) 0.4352(1) 0.7619(1)
Al1N_2 Al 0.2240(1) -0.0075(1) -0.0953(1)
Al1E_2 Al 0.7760(1) 0.0075(1) 1.0953(1)
Al1I_3 Al 0.3408(1) 0.8981(1) 0.5714(1)
Al1_2 Al -0.3408(1) 0.1019(1) 0.4286(1)
Al1H_3 Al 0.1094(1) 0.6741(1) 0.7619(1)
Al1E_3 Al 0.7760(1) 1.0075(1) 0.0953(1)
Al1_3 Al -0.3408(1) -0.8981(1) 0.4286(1)
Al1_4 Al 0.6592(1) -0.8981(1) 0.4286(1)
Al1I_4 Al 1.3408(1) -0.1019(1) 0.5714(1)
Al1Q_2 Al 0.8906(1) -0.6741(1) 0.2381(1)
Al1N_3 Al 0.2240(1) -1.0075(1) 0.9047(1)
Al1A_4 Al -0.1019(1) 0.5573(1) 0.4286(1)
Al1Q_3 Al -0.1094(1) 0.3259(1) 0.2381(1)
Al1L_3 Al 0.0075(1) 0.2314(1) 0.9047(1)
Al1M_3 Al 0.7686(1) 0.7760(1) -0.0953(1)
Al1Q_4 Al -0.1094(1) -0.6741(1) 0.2381(1)
Al1L_4 Al 0.0075(1) -0.7686(1) 0.9047(1)
Al1J_4 Al 1.1019(1) -0.5573(1) 0.5714(1)
Al1H_4 Al 1.1094(1) -0.3259(1) 0.7619(1)
Al1D_3 Al 0.2314(1) -0.7760(1) 1.0953(1)
Al1E_4 Al -0.2240(1) 0.0075(1) 0.0953(1)
Al1O_3 Al -0.3259(1) -0.4352(1) 0.2381(1)
Al1M_4 Al -0.2314(1) -0.2240(1) -0.0953(1)
Al1H_5 Al 0.1094(1) -0.3259(1) -0.2381(1)
Al1_5 Al 1.6592(1) 1.1019(1) 0.4286(1)
Al1G_3 Al 1.5648(1) 0.8906(1) 0.7619(1)
Al1B_4 Al 1.4427(1) 1.3408(1) 0.4286(1)
Al1P_2 Al 1.4352(1) 1.1094(1) 0.2381(1)
Al1N_4 Al 1.2240(1) 0.9925(1) 0.9047(1)
Al1P_3 Al 1.4352(1) 0.1094(1) 0.2381(1)
Al1N_5 Al 1.2240(1) -0.0075(1) -0.0953(1)
Al1O_4 Al 1.6741(1) 0.5648(1) 0.2381(1)
Al1F_4 Al 1.3259(1) 0.4352(1) -0.2381(1)
Al1M_5 Al 0.7686(1) 0.7760(1) 0.9047(1)
Al1C_4 Al 0.9925(1) 0.7686(1) 1.0953(1)
Al1H_6 Al 1.1094(1) 0.6741(1) -0.2381(1)
Al1J_5 Al 1.1019(1) 0.4427(1) -0.4286(1)
Al1N_6 Al 1.2240(1) -0.0075(1) 0.9047(1)
Al1D_4 Al 1.2314(1) 0.2240(1) 1.0953(1)
Al1Q_5 Al 0.8906(1) 0.3259(1) 1.2381(1)
Al1_6 Al 0.6592(1) 1.1019(1) 0.4286(1)
Al1G_4 Al 0.5648(1) 0.8906(1) 0.7619(1)
Al1I_5 Al 0.3408(1) -1.1019(1) 0.5714(1)
Al1P_4 Al 0.4352(1) -0.8906(1) 0.2381(1)
Al1D_5 Al 0.2314(1) -0.7760(1) 0.0953(1)
P1B P 0.4328(1) 0.1087(1) 0.4456(1)
P1K P 0.5672(1) -0.1087(1) 0.5544(1)
P1P P 0.6574(1) 0.0995(1) 0.2211(1)
P1A P 0.6759(1) 0.5672(1) 0.4456(1)
P1J P 0.3241(1) 0.4328(1) 0.5544(1)
P1O P 0.4420(1) 0.3426(1) 0.2211(1)
P1J_2 P 0.3241(1) -0.5672(1) 0.5544(1)
P1A_2 P 0.6759(1) -0.4328(1) 0.4456(1)
P1F P 0.5580(1) -0.3426(1) 0.7789(1)
P1C P 0.2246(1) -0.0092(1) 0.1123(1)
P1I P 1.1087(1) 0.6759(1) 0.5544(1)
P1Q P 0.9005(1) 0.5580(1) 0.2211(1)
P1I_2 P 0.1087(1) -0.3241(1) 0.5544(1)
P1G P 0.3426(1) -0.0995(1) 0.7789(1)
P1D P 1.0092(1) 0.2339(1) 0.1123(1)
P1J_3 P 1.3241(1) 0.4328(1) 0.5544(1)
P1H P 1.0995(1) 0.4420(1) 0.7789(1)
P1E P 0.7661(1) -0.2246(1) 0.1123(1)
P1L P 0.7754(1) 0.0092(1) -0.1123(1)
P1L_2 P 0.7754(1) 0.0092(1) 0.8877(1)
P1I_3 P 0.1087(1) 0.6759(1) 0.5544(1)
P1_2 P -0.1087(1) 0.3241(1) 0.4456(1)
P1H_2 P 0.0995(1) 0.4420(1) 0.7789(1)
P1E_2 P 0.7661(1) 0.7754(1) 0.1123(1)
P1_3 P -0.1087(1) -0.6759(1) 0.4456(1)
P1H_3 P 0.0995(1) -0.5580(1) 0.7789(1)
P1_4 P 0.8913(1) -0.6759(1) 0.4456(1)
P1I_4 P 1.1087(1) -0.3241(1) 0.5544(1)
P1Q_2 P 0.9005(1) -0.4420(1) 0.2211(1)
P1N P 0.2339(1) -0.7754(1) 0.8877(1)
P1E_3 P -0.2339(1) -0.2246(1) 0.1123(1)
P1Q_3 P -0.0995(1) -0.4420(1) 0.2211(1)
P1M P -0.0092(1) -0.2339(1) -0.1123(1)
P1K_2 P 1.5672(1) 0.8913(1) 0.5544(1)
P1B_2 P 1.4328(1) 1.1087(1) 0.4456(1)
P1G_2 P 1.3426(1) 0.9005(1) 0.7789(1)
P1C_2 P 1.2246(1) -0.0092(1) 0.1123(1)
P1O_2 P 1.4420(1) 0.3426(1) 0.2211(1)
P1N_2 P 1.2339(1) 0.2246(1) -0.1123(1)
P1M_2 P 0.9908(1) 0.7661(1) 0.8877(1)
P1H_4 P 1.0995(1) 0.4420(1) -0.2211(1)
P1N_3 P 1.2339(1) 0.2246(1) 0.8877(1)
P1D_2 P 1.0092(1) 0.2339(1) 1.1123(1)
P1K_3 P 0.5672(1) 0.8913(1) 0.5544(1)
P1F_2 P 0.5580(1) 0.6574(1) 0.7789(1)
P1B_3 P 0.4328(1) -0.8913(1) 0.4456(1)
P1O_3 P 0.4420(1) -0.6574(1) 0.2211(1)
O2B O 0.4201(6) 0.2077(5) 0.4688(4)
O2K O 0.5799(6) -0.2077(5) 0.5312(4)
O2P O 0.5457(4) 0.0868(6) 0.1979(4)
O2A O 0.7876(4) 0.5799(6) 0.4688(4)
O2J O 0.2124(4) 0.4201(6) 0.5312(4)
O2O O 0.5410(5) 0.4543(4) 0.1979(4)
O2J_2 O 0.2124(4) -0.5799(6) 0.5312(4)
O2A_2 O 0.7876(4) -0.4201(6) 0.4688(4)
O2F O 0.4590(5) -0.4543(4) 0.8021(4)
O2C O 0.1256(5) -0.1209(4) 0.1355(4)
O2I O 1.2077(5) 0.7876(4) 0.5312(4)
O2Q O 0.9132(6) 0.4590(5) 0.1979(4)
O2I_2 O 0.2077(5) -0.2124(4) 0.5312(4)
O2G O 0.4543(4) -0.0868(6) 0.8021(4)
O2D O 1.1209(4) 0.2466(6) 0.1355(4)
O2J_3 O 1.2124(4) 0.4201(6) 0.5312(4)
O2H O 1.0868(6) 0.5410(5) 0.8021(4)
O2E O 0.7534(6) -0.1256(5) 0.1355(4)
O2L O 0.8744(5) 0.1209(4) -0.1355(4)
O2L_2 O 0.8744(5) 0.1209(4) 0.8645(4)
O2I_3 O 0.2077(5) 0.7876(4) 0.5312(4)
O2_2 O -0.2077(5) 0.2124(4) 0.4688(4)
O2H_2 O 0.0868(6) 0.5410(5) 0.8021(4)
O2E_2 O 0.7534(6) 0.8744(5) 0.1355(4)
O2_3 O -0.2077(5) -0.7876(4) 0.4688(4)
O2H_3 O 0.0868(6) -0.4590(5) 0.8021(4)
O2_4 O 0.7923(5) -0.7876(4) 0.4688(4)
O2I_4 O 1.2077(5) -0.2124(4) 0.5312(4)
O2Q_2 O 0.9132(6) -0.5410(5) 0.1979(4)
O2N O 0.2466(6) -0.8744(5) 0.8645(4)
O2E_3 O -0.2466(6) -0.1256(5) 0.1355(4)
O2Q_3 O -0.0868(6) -0.5410(5) 0.1979(4)
O2M O -0.1209(4) -0.2466(6) -0.1355(4)
O2K_2 O 1.5799(6) 0.7923(5) 0.5312(4)
O2B_2 O 1.4201(6) 1.2077(5) 0.4688(4)
O2G_2 O 1.4543(4) 0.9132(6) 0.8021(4)
O2C_2 O 1.1256(5) -0.1209(4) 0.1355(4)
O2O_2 O 1.5410(5) 0.4543(4) 0.1979(4)
O2N_2 O 1.2466(6) 0.1256(5) -0.1355(4)
O2M_2 O 0.8791(4) 0.7534(6) 0.8645(4)
O2H_4 O 1.0868(6) 0.5410(5) -0.1979(4)
O2N_3 O 1.2466(6) 0.1256(5) 0.8645(4)
O2D_2 O 1.1209(4) 0.2466(6) 1.1355(4)
O2K_3 O 0.5799(6) 0.7923(5) 0.5312(4)
O2F_2 O 0.4590(5) 0.5457(4) 0.8021(4)
O2B_3 O 0.4201(6) -0.7923(5) 0.4688(4)
O2O_3 O 0.5410(5) -0.5457(4) 0.1979(4)
O2D_3 O 0.1209(4) 0.2466(6) 0.1355(4)
O2F_3 O 1.4590(5) 0.5457(4) 0.8021(4)
O2M_3 O 0.8791(4) -0.2466(6) -0.1355(4)
O2M_4 O 0.8791(4) -0.2466(6) 0.8645(4)
O2C_3 O 1.1256(5) 0.8791(4) 0.1355(4)
O2A_3 O -0.2124(4) -0.4201(6) 0.4688(4)
O2N_4 O 0.2466(6) 0.1256(5) 0.8645(4)
O2B_4 O 1.4201(6) 0.2077(5) 0.4688(4)
O2G_3 O 0.4543(4) -0.0868(6) -0.1979(4)
O2N_5 O 0.2466(6) 0.1256(5) -0.1355(4)
O2E_4 O 0.7534(6) -0.1256(5) 1.1355(4)
O3B O 0.5521(6) 0.1380(4) 0.4560(4)
O3K O 0.4479(6) -0.1380(4) 0.5440(4)
O3P O 0.7474(5) 0.2188(6) 0.2107(4)
O3A O 0.5859(5) 0.4479(6) 0.4560(4)
O3J O 0.4141(5) 0.5521(6) 0.5440(4)
O3O O 0.4713(4) 0.2526(5) 0.2107(4)
O3J_2 O 0.4141(5) -0.4479(6) 0.5440(4)
O3A_2 O 0.5859(5) -0.5521(6) 0.4560(4)
O3F O 0.5287(4) -0.2526(5) 0.7893(4)
O3C O 0.1953(4) 0.0808(5) 0.1227(4)
O3I O 1.1380(4) 0.5859(5) 0.5440(4)
O3Q O 0.7812(6) 0.5287(4) 0.2107(4)
O3I_2 O 0.1380(4) -0.4141(5) 0.5440(4)
O3G O 0.2526(5) -0.2188(6) 0.7893(4)
O3D O 0.9192(5) 0.1146(6) 0.1227(4)
O3J_3 O 1.4141(5) 0.5521(6) 0.5440(4)
O3H O 1.2188(6) 0.4713(4) 0.7893(4)
O3E O 0.8854(6) -0.1953(4) 0.1227(4)
O3L O 0.8047(4) -0.0808(5) -0.1227(4)
O3L_2 O 0.8047(4) -0.0808(5) 0.8773(4)
O3I_3 O 0.1380(4) 0.5859(5) 0.5440(4)
O3_2 O -0.1380(4) 0.4141(5) 0.4560(4)
O3H_2 O 0.2188(6) 0.4713(4) 0.7893(4)
O3E_2 O 0.8854(6) 0.8047(4) 0.1227(4)
O3_3 O -0.1380(4) -0.5859(5) 0.4560(4)
O3H_3 O 0.2188(6) -0.5287(4) 0.7893(4)
O3_4 O 0.8620(4) -0.5859(5) 0.4560(4)
O3I_4 O 1.1380(4) -0.4141(5) 0.5440(4)
O3Q_2 O 0.7812(6) -0.4713(4) 0.2107(4)
O3N O 0.1146(6) -0.8047(4) 0.8773(4)
O3E_3 O -0.1146(6) -0.1953(4) 0.1227(4)
O3Q_3 O -0.2188(6) -0.4713(4) 0.2107(4)
O3M O 0.0808(5) -0.1146(6) -0.1227(4)
O3K_2 O 1.4479(6) 0.8620(4) 0.5440(4)
O3B_2 O 1.5521(6) 1.1380(4) 0.4560(4)
O3G_2 O 1.2526(5) 0.7812(6) 0.7893(4)
O3C_2 O 1.1953(4) 0.0808(5) 0.1227(4)
O3O_2 O 1.4713(4) 0.2526(5) 0.2107(4)
O3N_2 O 1.1146(6) 0.1953(4) -0.1227(4)
O3M_2 O 1.0808(5) 0.8854(6) 0.8773(4)
O3H_4 O 1.2188(6) 0.4713(4) -0.2107(4)
O3N_3 O 1.1146(6) 0.1953(4) 0.8773(4)
O3D_2 O 0.9192(5) 0.1146(6) 1.1227(4)
O3K_3 O 0.4479(6) 0.8620(4) 0.5440(4)
O3F_2 O 0.5287(4) 0.7474(5) 0.7893(4)
O3B_3 O 0.5521(6) -0.8620(4) 0.4560(4)
O3O_3 O 0.4713(4) -0.7474(5) 0.2107(4)
O3M_3 O 0.0808(5) -0.1146(6) 0.8773(4)
O3A_3 O 1.5859(5) 0.4479(6) 0.4560(4)
O3F_3 O 0.5287(4) -0.2526(5) -0.2107(4)
O3B_4 O -0.4479(6) 0.1380(4) 0.4560(4)
O3G_3 O 0.2526(5) 0.7812(6) 0.7893(4)
O3D_3 O 0.9192(5) 1.1146(6) 0.1227(4)
O3B_5 O -0.4479(6) -0.8620(4) 0.4560(4)
O3K_4 O 1.4479(6) -0.1380(4) 0.5440(4)
O3P_2 O 0.7474(5) -0.7812(6) 0.2107(4)
O3M_4 O 0.0808(5) -1.1146(6) 0.8773(4)
O4B O 0.3594(8) 0.0178(6) 0.5090(4)
O4K O 0.6406(8) -0.0178(6) 0.4910(4)
O4P O 0.6749(5) 0.0261(8) 0.1577(4)
O4A O 0.6584(5) 0.6406(8) 0.5090(4)
O4J O 0.3416(5) 0.3594(8) 0.4910(4)
O4O O 0.3511(6) 0.3251(5) 0.1577(4)
O4J_2 O 0.3416(5) -0.6406(8) 0.4910(4)
O4A_2 O 0.6584(5) -0.3594(8) 0.5090(4)
O4F O 0.6489(6) -0.3251(5) 0.8423(4)
O4C O 0.3155(6) 0.0083(5) 0.1757(4)
O4I O 1.0178(6) 0.6584(5) 0.4910(4)
O4Q O 0.9739(8) 0.6489(6) 0.1577(4)
O4I_2 O 0.0178(6) -0.3416(5) 0.4910(4)
O4G O 0.3251(5) -0.0261(8) 0.8423(4)
O4D O 0.9917(5) 0.3073(8) 0.1757(4)
O4J_3 O 1.3416(5) 0.3594(8) 0.4910(4)
O4H O 1.0261(8) 0.3511(6) 0.8423(4)
O4E O 0.6927(8) -0.3155(6) 0.1757(4)
O4L O 0.6845(6) -0.0083(5) -0.1757(4)
O4L_2 O 0.6845(6) -0.0083(5) 0.8243(4)
O4I_3 O 0.0178(6) 0.6584(5) 0.4910(4)
O4_2 O -0.0178(6) 0.3416(5) 0.5090(4)
O4H_2 O 0.0261(8) 0.3511(6) 0.8423(4)
O4E_2 O 0.6927(8) 0.6845(6) 0.1757(4)
O4_3 O -0.0178(6) -0.6584(5) 0.5090(4)
O4H_3 O 0.0261(8) -0.6489(6) 0.8423(4)
O4_4 O 0.9822(6) -0.6584(5) 0.5090(4)
O4I_4 O 1.0178(6) -0.3416(5) 0.4910(4)
O4Q_2 O 0.9739(8) -0.3511(6) 0.1577(4)
O4N O 0.3073(8) -0.6845(6) 0.8243(4)
O4E_3 O -0.3073(8) -0.3155(6) 0.1757(4)
O4Q_3 O -0.0261(8) -0.3511(6) 0.1577(4)
O4M O 0.0083(5) -0.3073(8) -0.1757(4)
O4K_2 O 1.6406(8) 0.9822(6) 0.4910(4)
O4B_2 O 1.3594(8) 1.0178(6) 0.5090(4)
O4G_2 O 1.3251(5) 0.9739(8) 0.8423(4)
O4C_2 O 1.3155(6) 0.0083(5) 0.1757(4)
O4O_2 O 1.3511(6) 0.3251(5) 0.1577(4)
O4N_2 O 1.3073(8) 0.3155(6) -0.1757(4)
O4M_2 O 1.0083(5) 0.6927(8) 0.8243(4)
O4H_4 O 1.0261(8) 0.3511(6) -0.1577(4)
O4N_3 O 1.3073(8) 0.3155(6) 0.8243(4)
O4D_2 O 0.9917(5) 0.3073(8) 1.1757(4)
O4K_3 O 0.6406(8) 0.9822(6) 0.4910(4)
O4F_2 O 0.6489(6) 0.6749(5) 0.8423(4)
O4B_3 O 0.3594(8) -0.9822(6) 0.5090(4)
O4O_3 O 0.3511(6) -0.6749(5) 0.1577(4)
O4M_3 O 0.0083(5) -0.3073(8) 0.8243(4)
O4A_3 O 1.6584(5) 0.6406(8) 0.5090(4)
O4F_3 O 0.6489(6) -0.3251(5) -0.1577(4)
O4N_4 O 0.3073(8) 0.3155(6) 0.8243(4)
O4G_3 O 0.3251(5) -0.0261(8) -0.1577(4)
O4P_2 O 0.6749(5) 0.0261(8) 1.1577(4)
O4B_4 O 0.3594(8) 1.0178(6) 0.5090(4)
O4K_4 O -0.3594(8) -0.0178(6) 0.4910(4)
O4M_4 O 0.0083(5) 0.6927(8) 0.8243(4)
O4P_3 O 0.6749(5) 1.0261(8) 0.1577(4)
O4K_5 O -0.3594(8) -1.0178(6) 0.4910(4)
O4K_6 O 0.6406(8) -1.0178(6) 0.4910(4)
O4B_5 O 1.3594(8) 0.0178(6) 0.5090(4)
O4D_3 O 0.9917(5) -0.6927(8) 0.1757(4)
O4G_4 O 0.3251(5) -1.0261(8) 0.8423(4)
O5B O 0.3928(6) 0.0697(4) 0.3529(3)
O5K O 0.6072(6) -0.0697(4) 0.6471(3)
O5P O 0.6564(5) 0.0595(6) 0.3138(3)
O5A O 0.6769(5) 0.6072(6) 0.3529(3)
O5J O 0.3231(5) 0.3928(6) 0.6471(3)
O5O O 0.4030(4) 0.3436(5) 0.3138(3)
O5J_2 O 0.3231(5) -0.6072(6) 0.6471(3)
O5A_2 O 0.6769(5) -0.3928(6) 0.3529(3)
O5F O 0.5970(4) -0.3436(5) 0.6862(3)
O5C O 0.2636(4) -0.0102(5) 0.0196(3)
O5I O 1.0697(4) 0.6769(5) 0.6471(3)
O5Q O 0.9405(6) 0.5970(4) 0.3138(3)
O5I_2 O 0.0697(4) -0.3231(5) 0.6471(3)
O5G O 0.3436(5) -0.0595(6) 0.6862(3)
O5D O 1.0102(5) 0.2739(6) 0.0196(3)
O5J_3 O 1.3231(5) 0.3928(6) 0.6471(3)
O5H O 1.0595(6) 0.4030(4) 0.6862(3)
O5E O 0.7261(6) -0.2636(4) 0.0196(3)
O5L O 0.7364(4) 0.0102(5) -0.0196(3)
O5L_2 O 0.7364(4) 0.0102(5) 0.9804(3)
O5I_3 O 0.0697(4) 0.6769(5) 0.6471(3)
O5_2 O -0.0697(4) 0.3231(5) 0.3529(3)
O5H_2 O 0.0595(6) 0.4030(4) 0.6862(3)
O5E_2 O 0.7261(6) 0.7364(4) 0.0196(3)
O5_3 O -0.0697(4) -0.6769(5) 0.3529(3)
O5H_3 O 0.0595(6) -0.5970(4) 0.6862(3)
O5_4 O 0.9303(4) -0.6769(5) 0.3529(3)
O5I_4 O 1.0697(4) -0.3231(5) 0.6471(3)
O5Q_2 O 0.9405(6) -0.4030(4) 0.3138(3)
O5N O 0.2739(6) -0.7364(4) 0.9804(3)
O5E_3 O -0.2739(6) -0.2636(4) 0.0196(3)
O5Q_3 O -0.0595(6) -0.4030(4) 0.3138(3)
O5M O -0.0102(5) -0.2739(6) -0.0196(3)
O5K_2 O 1.6072(6) 0.9303(4) 0.6471(3)
O5B_2 O 1.3928(6) 1.0697(4) 0.3529(3)
O5G_2 O 1.3436(5) 0.9405(6) 0.6862(3)
O5C_2 O 1.2636(4) -0.0102(5) 0.0196(3)
O5O_2 O 1.4030(4) 0.3436(5) 0.3138(3)
O5N_2 O 1.2739(6) 0.2636(4) -0.0196(3)
O5M_2 O 0.9898(5) 0.7261(6) 0.9804(3)
O5H_4 O 1.0595(6) 0.4030(4) -0.3138(3)
O5N_3 O 1.2739(6) 0.2636(4) 0.9804(3)
O5D_2 O 1.0102(5) 0.2739(6) 1.0196(3)
O5K_3 O 0.6072(6) 0.9303(4) 0.6471(3)
O5F_2 O 0.5970(4) 0.6564(5) 0.6862(3)
O5B_3 O 0.3928(6) -0.9303(4) 0.3529(3)
O5O_3 O 0.4030(4) -0.6564(5) 0.3138(3)
O5N_4 O 0.2739(6) 0.2636(4) -0.0196(3)
O5F_3 O 1.5970(4) 0.6564(5) 0.6862(3)
O5M_3 O 0.9898(5) -0.2739(6) -0.0196(3)
O5E_4 O 0.7261(6) -0.2636(4) 1.0196(3)
O5M_4 O 0.9898(5) 0.7261(6) -0.0196(3)
O5C_3 O 0.2636(4) -0.0102(5) 1.0196(3)
O5K_4 O 0.6072(6) -0.0697(4) -0.3529(3)
O5G_3 O 0.3436(5) 0.9405(6) 0.6862(3)
O5P_2 O -0.3436(5) 0.0595(6) 0.3138(3)
O5L_3 O 0.7364(4) 1.0102(5) -0.0196(3)
O5P_3 O -0.3436(5) -0.9405(6) 0.3138(3)
O5P_4 O 0.6564(5) -0.9405(6) 0.3138(3)
O5G_4 O 1.3436(5) -0.0595(6) 0.6862(3)
O5C_4 O 0.2636(4) -1.0102(5) 1.0196(3)
N1 N 0.8333 0.1667 0.6667
C1 C 0.6667 0.3333 0.6934(20)
C2 C 0.7024(44) 0.2549(24) 0.6695(29)
C3 C 0.7588(39) 0.2319(33) 0.7008(24)
C2A C 0.7451(24) 0.4475(50) 0.6695(29)
C2B C 0.5525(50) 0.2976(44) 0.6695(29)
C2L C 0.9643(44) 0.0784(24) 0.6638(29)
C3L C 0.9079(39) 0.1014(33) 0.6325(24)
C3A C 0.7681(33) 0.5269(51) 0.7008(24)
C3B C 0.4731(51) 0.2412(39) 0.7008(24)
loop_
_geom_bond_atom_site_label_1
_geom_bond_atom_site_label_2
_geom_bond_site_symmetry_1
_geom_bond_site_symmetry_2
N1 C3 1_555 1_555
C1 C2 1_555 1_555
C2 C3 1_555 1_555
Al1 O2 1_555 1_555
P1 O2 1_555 1_555
O3 P1 1_555 1_555
O4 P1 1_555 1_555
O5 P1 1_555 1_555
C2A C1 1_555 1_555
C2B C1 1_555 1_555
C2L C3L 1_555 1_555
C3L N1 1_555 1_555
C3A C2A 1_555 1_555
C3B C2B 1_555 1_555
Al1B O2B 1_555 1_555
Al1K O2K 1_555 1_555
Al1P O2P 1_555 1_555
Al1A O3 1_555 1_555
Al1I O2I_2 1_555 1_555
Al1Q O5 1_555 1_555
Al1J O4 1_555 1_555
Al1E O2E 1_555 1_555
Al1G O2G 1_555 1_555
Al1J_2 O2J 1_555 1_555
Al1O O2O 1_555 1_555
Al1J_3 O2J_2 1_555 1_555
Al1A_2 O2A_2 1_555 1_555
Al1F O2F 1_555 1_555
Al1C O2C 1_555 1_555
Al1I_2 O2I 1_555 1_555
Al1D O2D 1_555 1_555
Al1H O2H 1_555 1_555
Al1L O2L 1_555 1_555
Al1L_2 O2L_2 1_555 1_555
Al1K_2 O2K_3 1_555 1_555
Al1B_2 O2B_3 1_555 1_555
Al1D_2 O2D_3 1_555 1_555
Al1H_2 O2H_3 1_555 1_555
Al1K_3 O2K_2 1_555 1_555
Al1F_2 O2F_3 1_555 1_555
Al1C_2 O2C_2 1_555 1_555
Al1M O2M_3 1_555 1_555
Al1M_2 O2M_4 1_555 1_555
Al1C_3 O2C_3 1_555 1_555
Al1A_3 O2A_3 1_555 1_555
Al1N O2N_4 1_555 1_555
Al1B_3 O2B_4 1_555 1_555
Al1O_2 O2O_3 1_555 1_555
Al1G_2 O2G_3 1_555 1_555
Al1F_3 O2F_2 1_555 1_555
Al1N_2 O2N_5 1_555 1_555
Al1E_2 O2E_4 1_555 1_555
Al1I_3 O2I_3 1_555 1_555
Al1_2 O2_2 1_555 1_555
Al1H_3 O2H_2 1_555 1_555
Al1E_3 O2E_2 1_555 1_555
Al1_3 O2_3 1_555 1_555
Al1_4 O2_4 1_555 1_555
Al1I_4 O2I_4 1_555 1_555
Al1Q_2 O2Q_2 1_555 1_555
Al1N_3 O2N 1_555 1_555
Al1A_4 O3_2 1_555 1_555
Al1Q_3 O5_2 1_555 1_555
Al1L_3 O4H_2 1_555 1_555
Al1M_3 O5E_2 1_555 1_555
Al1Q_4 O2Q_3 1_555 1_555
Al1L_4 O3N 1_555 1_555
Al1J_4 O3I_4 1_555 1_555
Al1H_4 O5I_4 1_555 1_555
Al1D_3 O5N 1_555 1_555
Al1E_4 O2E_3 1_555 1_555
Al1O_3 O3Q_3 1_555 1_555
Al1M_4 O2M 1_555 1_555
Al1H_5 O4M 1_555 1_555
Al1_5 O3B_2 1_555 1_555
Al1G_3 O2G_2 1_555 1_555
Al1B_4 O2B_2 1_555 1_555
Al1P_2 O5B_2 1_555 1_555
Al1N_4 O3M_2 1_555 1_555
Al1P_3 O3O_2 1_555 1_555
Al1N_5 O2N_2 1_555 1_555
Al1O_4 O2O_2 1_555 1_555
Al1F_4 O3H_4 1_555 1_555
Al1M_5 O2M_2 1_555 1_555
Al1C_4 O5M_2 1_555 1_555
Al1H_6 O2H_4 1_555 1_555
Al1J_5 O5H_4 1_555 1_555
Al1N_6 O2N_3 1_555 1_555
Al1D_4 O2D_2 1_555 1_555
Al1Q_5 O4D_2 1_555 1_555
Al1_6 O4K_3 1_555 1_555
Al1G_4 O3F_2 1_555 1_555
Al1I_5 O4B_3 1_555 1_555
Al1P_4 O3O_3 1_555 1_555
Al1D_5 O4O_3 1_555 1_555
P1B O2B 1_555 1_555
P1K O2K 1_555 1_555
P1P O2P 1_555 1_555
P1A O2A 1_555 1_555
P1J O2J 1_555 1_555
P1O O2O 1_555 1_555
P1J_2 O2J_2 1_555 1_555
P1A_2 O2A_2 1_555 1_555
P1F O2F 1_555 1_555
P1C O2C 1_555 1_555
P1I O2I 1_555 1_555
P1Q O2Q 1_555 1_555
P1I_2 O2I_2 1_555 1_555
P1G O2G 1_555 1_555
P1D O2D 1_555 1_555
P1J_3 O2J_3 1_555 1_555
P1H O2H 1_555 1_555
P1E O2E 1_555 1_555
P1L O2L 1_555 1_555
P1L_2 O2L_2 1_555 1_555
P1I_3 O2I_3 1_555 1_555
P1_2 O2_2 1_555 1_555
P1H_2 O2H_2 1_555 1_555
P1E_2 O2E_2 1_555 1_555
P1_3 O2_3 1_555 1_555
P1H_3 O2H_3 1_555 1_555
P1_4 O2_4 1_555 1_555
P1I_4 O2I_4 1_555 1_555
P1Q_2 O2Q_2 1_555 1_555
P1N O2N 1_555 1_555
P1E_3 O2E_3 1_555 1_555
P1Q_3 O2Q_3 1_555 1_555
P1M O2M 1_555 1_555
P1K_2 O2K_2 1_555 1_555
P1B_2 O2B_2 1_555 1_555
P1G_2 O2G_2 1_555 1_555
P1C_2 O2C_2 1_555 1_555
P1O_2 O2O_2 1_555 1_555
P1N_2 O2N_2 1_555 1_555
P1M_2 O2M_2 1_555 1_555
P1H_4 O2H_4 1_555 1_555
P1N_3 O2N_3 1_555 1_555
P1D_2 O2D_2 1_555 1_555
P1K_3 O2K_3 1_555 1_555
P1F_2 O2F_2 1_555 1_555
P1B_3 O2B_3 1_555 1_555
P1O_3 O2O_3 1_555 1_555
O2A Al1A 1_555 1_555
O2Q Al1Q 1_555 1_555
O2J_3 Al1J 1_555 1_555
O3B Al1 1_555 1_555
O3K Al1I 1_555 1_555
O3P Al1Q 1_555 1_555
O3A Al1B 1_555 1_555
O3J Al1K_2 1_555 1_555
O3O Al1P 1_555 1_555
O3J_2 Al1K 1_555 1_555
O3A_2 Al1B_2 1_555 1_555
O3F Al1G 1_555 1_555
O3C Al1D_2 1_555 1_555
O3I Al1J 1_555 1_555
O3Q Al1O 1_555 1_555
O3I_2 Al1J_3 1_555 1_555
O3G Al1H_2 1_555 1_555
O3D Al1E 1_555 1_555
O3J_3 Al1K_3 1_555 1_555
O3H Al1F_2 1_555 1_555
O3E Al1C_2 1_555 1_555
O3L Al1M 1_555 1_555
O3L_2 Al1M_2 1_555 1_555
O3I_3 Al1J_2 1_555 1_555
O3_2 P1_2 1_555 1_555
O3H_2 Al1F_3 1_555 1_555
O3E_2 Al1C_3 1_555 1_555
O3_3 Al1A_3 1_555 1_555
O3H_3 Al1F 1_555 1_555
O3_4 Al1A_2 1_555 1_555
O3I_4 P1I_4 1_555 1_555
O3Q_2 Al1O_2 1_555 1_555
O3N P1N 1_555 1_555
O3E_3 Al1C 1_555 1_555
O3Q_3 P1Q_3 1_555 1_555
O3M Al1N_2 1_555 1_555
O3K_2 Al1I_2 1_555 1_555
O3B_2 P1B_2 1_555 1_555
O3G_2 Al1H 1_555 1_555
O3C_2 Al1D 1_555 1_555
O3O_2 P1O_2 1_555 1_555
O3N_2 Al1L 1_555 1_555
O3M_2 P1M_2 1_555 1_555
O3H_4 P1H_4 1_555 1_555
O3N_3 Al1L_2 1_555 1_555
O3D_2 Al1E_2 1_555 1_555
O3K_3 Al1I_3 1_555 1_555
O3F_2 P1F_2 1_555 1_555
O3B_3 Al1_4 1_555 1_555
O3O_3 P1O_3 1_555 1_555
O3M_3 Al1N 1_555 1_555
O3A_3 Al1B_3 1_555 1_555
O3F_3 Al1G_2 1_555 1_555
O3B_4 Al1_2 1_555 1_555
O3G_3 Al1H_3 1_555 1_555
O3D_3 Al1E_3 1_555 1_555
O3B_5 Al1_3 1_555 1_555
O3K_4 Al1I_4 1_555 1_555
O3P_2 Al1Q_2 1_555 1_555
O3M_4 Al1N_3 1_555 1_555
O4B Al1I 1_555 1_555
O4K Al1 1_555 1_555
O4P Al1E 1_555 1_555
O4A Al1K_2 1_555 1_555
O4J Al1B 1_555 1_555
O4O Al1D_2 1_555 1_555
O4J_2 Al1B_2 1_555 1_555
O4A_2 Al1K 1_555 1_555
O4F Al1M_2 1_555 1_555
O4C Al1P 1_555 1_555
O4I Al1A 1_555 1_555
O4Q Al1C_3 1_555 1_555
O4I_2 Al1A_3 1_555 1_555
O4G Al1N 1_555 1_555
O4D Al1Q 1_555 1_555
O4J_3 Al1B_3 1_555 1_555
O4H Al1L_2 1_555 1_555
O4E Al1O_2 1_555 1_555
O4L Al1G_2 1_555 1_555
O4L_2 Al1G 1_555 1_555
O4I_3 Al1A_4 1_555 1_555
O4_2 Al1J_2 1_555 1_555
O4H_2 P1H_2 1_555 1_555
O4E_2 Al1O 1_555 1_555
O4_3 Al1J_3 1_555 1_555
O4H_3 Al1L_4 1_555 1_555
O4_4 Al1J_4 1_555 1_555
O4I_4 Al1A_2 1_555 1_555
O4Q_2 Al1C_2 1_555 1_555
O4N Al1F 1_555 1_555
O4E_3 Al1O_3 1_555 1_555
O4Q_3 Al1C 1_555 1_555
O4M P1M 1_555 1_555
O4K_2 Al1_5 1_555 1_555
O4B_2 Al1I_2 1_555 1_555
O4G_2 Al1N_4 1_555 1_555
O4C_2 Al1P_3 1_555 1_555
O4O_2 Al1D 1_555 1_555
O4N_2 Al1F_4 1_555 1_555
O4M_2 Al1H 1_555 1_555
O4H_4 Al1L 1_555 1_555
O4N_3 Al1F_2 1_555 1_555
O4D_2 P1D_2 1_555 1_555
O4K_3 P1K_3 1_555 1_555
O4F_2 Al1M_5 1_555 1_555
O4B_3 P1B_3 1_555 1_555
O4O_3 P1O_3 1_555 1_555
O4M_3 Al1H_2 1_555 1_555
O4A_3 Al1K_3 1_555 1_555
O4F_3 Al1M 1_555 1_555
O4N_4 Al1F_3 1_555 1_555
O4G_3 Al1N_2 1_555 1_555
O4P_2 Al1E_2 1_555 1_555
O4B_4 Al1I_3 1_555 1_555
O4K_4 Al1_2 1_555 1_555
O4M_4 Al1H_3 1_555 1_555
O4P_3 Al1E_3 1_555 1_555
O4K_5 Al1_3 1_555 1_555
O4K_6 Al1_4 1_555 1_555
O4B_5 Al1I_4 1_555 1_555
O4D_3 Al1Q_2 1_555 1_555
O4G_4 Al1N_3 1_555 1_555
O5B Al1P 1_555 1_555
O5K Al1G 1_555 1_555
O5P Al1 1_555 1_555
O5A Al1O 1_555 1_555
O5J Al1F_3 1_555 1_555
O5O Al1B 1_555 1_555
O5J_2 Al1F 1_555 1_555
O5A_2 Al1O_2 1_555 1_555
O5F Al1K 1_555 1_555
O5C Al1N_2 1_555 1_555
O5I Al1H 1_555 1_555
O5Q Al1A 1_555 1_555
O5I_2 Al1H_2 1_555 1_555
O5G Al1I 1_555 1_555
O5D Al1L 1_555 1_555
O5J_3 Al1F_2 1_555 1_555
O5H Al1J 1_555 1_555
O5E Al1M 1_555 1_555
O5L Al1E 1_555 1_555
O5L_2 Al1E_2 1_555 1_555
O5I_3 Al1H_3 1_555 1_555
O5_2 P1_2 1_555 1_555
O5H_2 Al1J_2 1_555 1_555
O5E_2 P1E_2 1_555 1_555
O5_3 Al1Q_4 1_555 1_555
O5H_3 Al1J_3 1_555 1_555
O5_4 Al1Q_2 1_555 1_555
O5I_4 P1I_4 1_555 1_555
O5Q_2 Al1A_2 1_555 1_555
O5N P1N 1_555 1_555
O5E_3 Al1M_4 1_555 1_555
O5Q_3 Al1A_3 1_555 1_555
O5M Al1C 1_555 1_555
O5K_2 Al1G_3 1_555 1_555
O5B_2 P1B_2 1_555 1_555
O5G_2 Al1I_2 1_555 1_555
O5C_2 Al1N_5 1_555 1_555
O5O_2 Al1B_3 1_555 1_555
O5N_2 Al1D 1_555 1_555
O5M_2 P1M_2 1_555 1_555
O5H_4 P1H_4 1_555 1_555
O5N_3 Al1D_4 1_555 1_555
O5D_2 Al1L_2 1_555 1_555
O5K_3 Al1G_4 1_555 1_555
O5F_2 Al1K_2 1_555 1_555
O5B_3 Al1P_4 1_555 1_555
O5O_3 Al1B_2 1_555 1_555
O5N_4 Al1D_2 1_555 1_555
O5F_3 Al1K_3 1_555 1_555
O5M_3 Al1C_2 1_555 1_555
O5E_4 Al1M_2 1_555 1_555
O5M_4 Al1C_3 1_555 1_555
O5C_3 Al1N 1_555 1_555
O5K_4 Al1G_2 1_555 1_555
O5G_3 Al1I_3 1_555 1_555
O5P_2 Al1_2 1_555 1_555
O5L_3 Al1E_3 1_555 1_555
O5P_3 Al1_3 1_555 1_555
O5P_4 Al1_4 1_555 1_555
O5G_4 Al1I_4 1_555 1_555
O5C_4 Al1N_3 1_555 1_555
P1B O3B 1_555 1_555
P1B O4B 1_555 1_555
P1B O5B 1_555 1_555
P1K O3K 1_555 1_555
P1K O4K 1_555 1_555
P1K O5K 1_555 1_555
P1P O3P 1_555 1_555
P1P O4P 1_555 1_555
P1P O5P 1_555 1_555
P1A O3A 1_555 1_555
P1A O4A 1_555 1_555
P1A O5A 1_555 1_555
P1J O3J 1_555 1_555
P1J O4J 1_555 1_555
P1J O5J 1_555 1_555
P1O O3O 1_555 1_555
P1O O4O 1_555 1_555
P1O O5O 1_555 1_555
P1J_2 O3J_2 1_555 1_555
P1J_2 O4J_2 1_555 1_555
P1J_2 O5J_2 1_555 1_555
P1A_2 O3A_2 1_555 1_555
P1A_2 O4A_2 1_555 1_555
P1A_2 O5A_2 1_555 1_555
P1F O3F 1_555 1_555
P1F O4F 1_555 1_555
P1F O5F 1_555 1_555
P1C O3C 1_555 1_555
P1C O4C 1_555 1_555
P1C O5C 1_555 1_555
P1I O3I 1_555 1_555
P1I O4I 1_555 1_555
P1I O5I 1_555 1_555
P1Q O3Q 1_555 1_555
P1Q O4Q 1_555 1_555
P1Q O5Q 1_555 1_555
P1I_2 O3I_2 1_555 1_555
P1I_2 O4I_2 1_555 1_555
P1I_2 O5I_2 1_555 1_555
P1G O3G 1_555 1_555
P1G O4G 1_555 1_555
P1G O5G 1_555 1_555
P1D O3D 1_555 1_555
P1D O4D 1_555 1_555
P1D O5D 1_555 1_555
P1J_3 O3J_3 1_555 1_555
P1J_3 O4J_3 1_555 1_555
P1J_3 O5J_3 1_555 1_555
P1H O3H 1_555 1_555
P1H O4H 1_555 1_555
P1H O5H 1_555 1_555
P1E O3E 1_555 1_555
P1E O4E 1_555 1_555
P1E O5E 1_555 1_555
P1L O3L 1_555 1_555
P1L O4L 1_555 1_555
P1L O5L 1_555 1_555
P1L_2 O3L_2 1_555 1_555
P1L_2 O4L_2 1_555 1_555
P1L_2 O5L_2 1_555 1_555
P1I_3 O3I_3 1_555 1_555
P1I_3 O4I_3 1_555 1_555
P1I_3 O5I_3 1_555 1_555
P1_2 O4_2 1_555 1_555
P1H_2 O3H_2 1_555 1_555
P1H_2 O5H_2 1_555 1_555
P1E_2 O3E_2 1_555 1_555
P1E_2 O4E_2 1_555 1_555
P1_3 O3_3 1_555 1_555
P1_3 O4_3 1_555 1_555
P1_3 O5_3 1_555 1_555
P1H_3 O3H_3 1_555 1_555
P1H_3 O4H_3 1_555 1_555
P1H_3 O5H_3 1_555 1_555
P1_4 O3_4 1_555 1_555
P1_4 O4_4 1_555 1_555
P1_4 O5_4 1_555 1_555
P1I_4 O4I_4 1_555 1_555
P1Q_2 O3Q_2 1_555 1_555
P1Q_2 O4Q_2 1_555 1_555
P1Q_2 O5Q_2 1_555 1_555
P1N O4N 1_555 1_555
P1E_3 O3E_3 1_555 1_555
P1E_3 O4E_3 1_555 1_555
P1E_3 O5E_3 1_555 1_555
P1Q_3 O4Q_3 1_555 1_555
P1Q_3 O5Q_3 1_555 1_555
P1M O3M 1_555 1_555
P1M O5M 1_555 1_555
P1K_2 O3K_2 1_555 1_555
P1K_2 O4K_2 1_555 1_555
P1K_2 O5K_2 1_555 1_555
P1B_2 O4B_2 1_555 1_555
P1G_2 O3G_2 1_555 1_555
P1G_2 O4G_2 1_555 1_555
P1G_2 O5G_2 1_555 1_555
P1C_2 O3C_2 1_555 1_555
P1C_2 O4C_2 1_555 1_555
P1C_2 O5C_2 1_555 1_555
P1O_2 O4O_2 1_555 1_555
P1O_2 O5O_2 1_555 1_555
P1N_2 O3N_2 1_555 1_555
P1N_2 O4N_2 1_555 1_555
P1N_2 O5N_2 1_555 1_555
P1M_2 O4M_2 1_555 1_555
P1H_4 O4H_4 1_555 1_555
P1N_3 O3N_3 1_555 1_555
P1N_3 O4N_3 1_555 1_555
P1N_3 O5N_3 1_555 1_555
P1D_2 O3D_2 1_555 1_555
P1D_2 O5D_2 1_555 1_555
P1K_3 O3K_3 1_555 1_555
P1K_3 O5K_3 1_555 1_555
P1F_2 O4F_2 1_555 1_555
P1F_2 O5F_2 1_555 1_555
P1B_3 O3B_3 1_555 1_555
P1B_3 O5B_3 1_555 1_555
P1O_3 O5O_3 1_555 1_555

#END
