
#######################################################################
#
#                 Cambridge Crystallographic Data Centre
#                                CCDC 
#
#######################################################################
#
# If this CIF has been generated from an entry in the Cambridge 
# Structural Database, then it will include bibliographic, chemical, 
# crystal, experimental, refinement or atomic coordinate data resulting 
# from the CCDC's data processing and validation procedures.
#
#######################################################################

data_BEFLEF
_chemical_formula_moiety         '(C4 H16 Al4 N2 O16 P4)n'
_symmetry_cell_setting           orthorhombic
_symmetry_space_group_name_H-M   'C 2 2 21'
_symmetry_Int_Tables_number      20
_space_group_name_Hall           'C 2c 2'
loop_
_symmetry_equiv_pos_site_id
_symmetry_equiv_pos_as_xyz
1 x,y,z
2 -x,-y,1/2+z
3 x,-y,-z
4 -x,y,1/2-z
5 1/2+x,1/2+y,z
6 1/2-x,1/2-y,1/2+z
7 1/2+x,1/2-y,-z
8 1/2-x,1/2+y,1/2-z
_cell_length_a                   13.8257(2)
_cell_length_b                   14.4788(2)
_cell_length_c                   10.1658(2)
_cell_angle_alpha                90
_cell_angle_beta                 90
_cell_angle_gamma                90
_cell_volume                     2034.99
loop_
_atom_site_label
_atom_site_type_symbol
_atom_site_fract_x
_atom_site_fract_y
_atom_site_fract_z
_atom_site_U_iso_or_equiv
_atom_site_thermal_displace_type
N2 N 0.0000 0.2054(99) 0.2500 0.5600 Uiso
C2 C -0.0314(35) 0.2746(31) 0.1291(57) 0.2330 Uiso
C2C C 0.0314(35) 0.2746(31) 0.3709(57) 0.2330 Uiso
Al1 Al 0.2636(1) 0.1472(1) 0.5327(2) 0.0290 Uiso
Al2 Al 0.5000 0.1157(2) 0.2500 0.0340 Uiso
Al3 Al 0.5000 0.4103(2) 0.2500 0.0670 Uiso
P1 P 0.0950(3) 0.0000 0.5000 0.0660 Uiso
P2 P 0.3327(2) 0.2630(2) 0.2842(2) 0.0300 Uiso
P3 P 0.4316(3) 0.0000 0.5000 0.0310 Uiso
O1 O 0.3912(6) 0.1851(6) 0.2249(11) 0.0580 Uiso
O2 O 0.1569(8) 0.0845(8) 0.4796(13) 0.0790 Uiso
O3 O 0.3692(7) 0.0702(6) 0.5698(10) 0.0570 Uiso
O4 O 0.3990(7) 0.3448(7) 0.3064(11) 0.0670 Uiso
O5 O 0.2538(6) 0.2868(7) 0.1904(9) 0.0610 Uiso
O6 O 0.4968(9) 0.0465(7) 0.3954(10) 0.0780 Uiso
O7 O 0.2879(8) 0.2399(8) 0.4106(10) 0.0820 Uiso
O8 O 0.0312(14) 0.0155(14) 0.6155(23) 0.1540 Uiso
Al1B Al 0.2636(1) -0.1472(1) 0.4673(2) 0.0290 Uiso
Al1E Al 0.2364(1) 0.3528(1) 0.0327(2) 0.0290 Uiso
Al1F Al 0.7636(1) 0.3528(1) 0.4673(2) 0.0290 Uiso
Al1C Al 0.7364(1) 0.1472(1) -0.0327(2) 0.0290 Uiso
Al2A Al 0.5000 -0.1157(2) 0.7500 0.0340 Uiso
Al3E Al -0.0000 0.0897(2) 0.7500 0.0670 Uiso
Al3D Al 0.0000 -0.0897(2) 0.2500 0.0670 Uiso
P2C P 0.6673(2) 0.2630(2) 0.2158(2) 0.0300 Uiso
O1C O 0.6088(6) 0.1851(6) 0.2751(11) 0.0580 Uiso
O2B O 0.1569(8) -0.0845(8) 0.5204(13) 0.0790 Uiso
O3B O 0.3692(7) -0.0702(6) 0.4302(10) 0.0570 Uiso
O4C O 0.6010(7) 0.3448(7) 0.1936(11) 0.0670 Uiso
O5C O 0.7462(6) 0.2868(7) 0.3096(9) 0.0610 Uiso
O5E O 0.2462(6) 0.2132(7) 0.6904(9) 0.0610 Uiso
O5G O 0.2462(6) -0.2132(7) 0.3096(9) 0.0610 Uiso
O6B O 0.4968(9) -0.0465(7) 0.6046(10) 0.0780 Uiso
O6C O 0.5032(9) 0.0465(7) 0.1046(10) 0.0780 Uiso
O7C O 0.7121(8) 0.2399(8) 0.0894(10) 0.0820 Uiso
O7B O 0.2879(8) -0.2399(8) 0.5894(10) 0.0820 Uiso
O8B O 0.0312(14) -0.0155(14) 0.3845(23) 0.1540 Uiso
O8E O 0.4688(14) 0.4845(14) 0.1155(23) 0.1540 Uiso
O8F O 0.5312(14) 0.4845(14) 0.3845(23) 0.1540 Uiso
N1 N 0.156(10) 0.0000 0.0000 0.4760 Uiso
C1 C 0.2454(24) 0.0308(20) 0.1084(35) 0.1530 Uiso
C1B C 0.2454(24) -0.0308(20) -0.1084(35) 0.1530 Uiso
loop_
_geom_bond_atom_site_label_1
_geom_bond_atom_site_label_2
_geom_bond_site_symmetry_1
_geom_bond_site_symmetry_2
N1 C1 1_555 1_555
N2 C2 1_555 1_555
Al1 O2 1_555 1_555
Al2 O1 1_555 1_555
Al3 O4 1_555 1_555
P1 O2 1_555 1_555
P2 O1 1_555 1_555
P3 O3 1_555 1_555
O3 Al1 1_555 1_555
O4 P2 1_555 1_555
O5 P2 1_555 1_555
O6 Al2 1_555 1_555
O7 Al1 1_555 1_555
O8 P1 1_555 1_555
C1B N1 1_555 1_555
C2C N2 1_555 1_555
Al1B O2B 1_555 1_555
Al1E O5 1_555 1_555
Al1F O5C 1_555 1_555
Al1C O7C 1_555 1_555
Al2A O6B 1_555 1_555
Al3E O8 1_555 1_555
Al3D O8B 1_555 1_555
P2C O1C 1_555 1_555
O1C Al2 1_555 1_555
O2B P1 1_555 1_555
O3B P3 1_555 1_555
O4C Al3 1_555 1_555
O5C P2C 1_555 1_555
O5E Al1 1_555 1_555
O5G Al1B 1_555 1_555
O6B P3 1_555 1_555
O6C Al2 1_555 1_555
O7C P2C 1_555 1_555
O7B Al1B 1_555 1_555
O8B P1 1_555 1_555
O8E Al3 1_555 1_555
O8F Al3 1_555 1_555
P2 O7 1_555 1_555
P3 O6 1_555 1_555
Al1B O3B 1_555 1_555
P2C O4C 1_555 1_555

#END
