
#######################################################################
#
#                 Cambridge Crystallographic Data Centre
#                                CCDC 
#
#######################################################################
#
# If this CIF has been generated from an entry in the Cambridge 
# Structural Database, then it will include bibliographic, chemical, 
# crystal, experimental, refinement or atomic coordinate data resulting 
# from the CCDC's data processing and validation procedures.
#
#######################################################################

data_BEFNUX
_chemical_formula_moiety         'H6 Co9 Ga1 N1 O25 P4 1+'
_symmetry_cell_setting           orthorhombic
_symmetry_space_group_name_H-M   'P b c m'
_symmetry_Int_Tables_number      57
_space_group_name_Hall           '-P 2c 2b'
loop_
_symmetry_equiv_pos_site_id
_symmetry_equiv_pos_as_xyz
1 x,y,z
2 -x,-y,1/2+z
3 x,1/2-y,-z
4 -x,1/2+y,1/2-z
5 -x,-y,-z
6 x,y,1/2-z
7 -x,1/2+y,z
8 x,1/2-y,1/2+z
_cell_length_a                   8.9091(2)
_cell_length_b                   14.9748(5)
_cell_length_c                   14.7891(6)
_cell_angle_alpha                90
_cell_angle_beta                 90
_cell_angle_gamma                90
_cell_volume                     1973.04
loop_
_atom_site_label
_atom_site_type_symbol
_atom_site_fract_x
_atom_site_fract_y
_atom_site_fract_z
_atom_site_U_iso_or_equiv
_atom_site_thermal_displace_type
O1 O 0.4756(30) -0.2744(18) 0.2500 0.0390 Uiso
Ga1 Ga 1.0775(5) 0.1302(3) 0.2500 0.0460 Uiso
Co1 Co 1.3305(5) 0.5067(3) 0.2500 0.0270 Uiso
Co2 Co 0.8444(4) 0.3447(2) 0.1179(2) 0.0310 Uiso
P1 P 1.3113(10) -0.0241(5) 0.2500 0.0090 Uiso
P2 P 1.1363(11) 0.3306(6) 0.2500 0.0210 Uiso
P3 P 0.8268(8) 0.1340(5) 0.1021(4) 0.0290 Uiso
O2 O 0.7565(22) 0.2264(13) 0.1207(13) 0.0500 Uiso
O3 O 1.1852(25) 0.2326(14) 0.2500 0.0190 Uiso
O4 O 1.0455(20) 0.3509(12) 0.1631(12) 0.0370 Uiso
O5 O 1.2851(29) 0.3798(16) 0.2500 0.0320 Uiso
O6 O 0.7303(26) 0.0638(15) 0.1353(15) 0.0670 Uiso
O7 O 0.8514(30) 0.1152(19) 0.0047(18) 0.0860 Uiso
O8 O 1.4543(24) 0.0300(15) 0.2500 0.0170 Uiso
O9 O 0.9767(36) 0.1392(21) 0.1288(19) 0.1060 Uiso
O10 O 1.3175(50) -0.0949(31) 0.3146(30) 0.1800 Uiso
O11 O 1.1930(35) 0.0296(21) 0.2020(21) 0.0220 Uiso
Co1C Co 0.6695(5) 0.0067(3) 0.2500 0.0270 Uiso
Co1C_2 Co 1.6695(5) 0.0067(3) 0.2500 0.0270 Uiso
Co2E Co 0.8444(4) 0.3447(2) 0.3821(2) 0.0310 Uiso
Co2B Co 0.8444(4) 0.1553(2) -0.1179(2) 0.0310 Uiso
Co2C Co 1.1556(4) -0.1553(2) 0.3821(2) 0.0310 Uiso
Co2F Co 1.1556(4) -0.1553(2) 0.1179(2) 0.0310 Uiso
Co2G Co 0.8444(4) 0.1553(2) 0.6179(2) 0.0310 Uiso
P3E P 0.8268(8) 0.1340(5) 0.3979(4) 0.0290 Uiso
O2E O 0.7565(22) 0.2264(13) 0.3793(13) 0.0500 Uiso
O4E O 1.0455(20) 0.3509(12) 0.3369(12) 0.0370 Uiso
O6E O 0.7303(26) 0.0638(15) 0.3647(15) 0.0670 Uiso
O6C O 1.2697(26) 0.5638(15) 0.3647(15) 0.0670 Uiso
O6F O 1.2697(26) 0.5638(15) 0.1353(15) 0.0670 Uiso
O7E O 0.8514(30) 0.1152(19) 0.4953(18) 0.0860 Uiso
O7B O 0.8514(30) 0.3848(19) -0.0047(18) 0.0860 Uiso
O7G O 0.8514(30) 0.3848(19) 0.5047(18) 0.0860 Uiso
O8C O 1.5457(24) 0.5300(15) 0.2500 0.0170 Uiso
O9E O 0.9767(36) 0.1392(21) 0.3712(19) 0.1060 Uiso
O10E O 1.3175(50) -0.0949(31) 0.1854(30) 0.1800 Uiso
O10C O 0.6825(50) 0.4051(31) 0.1854(30) 0.1800 Uiso
O10F O 0.6825(50) 0.4051(31) 0.3146(30) 0.1800 Uiso
O11E O 1.1930(35) 0.0296(21) 0.2980(21) 0.0220 Uiso
N1 N 1.2153(23) -0.5761(14) 0.5007(13) 0.0260 Uiso
loop_
_geom_bond_atom_site_label_1
_geom_bond_atom_site_label_2
_geom_bond_site_symmetry_1
_geom_bond_site_symmetry_2
Ga1 O3 1_555 1_555
Co1 O5 1_555 1_555
Co2 O2 1_555 1_555
P1 O8 1_555 1_555
P2 O3 1_555 1_555
P3 O2 1_555 1_555
O4 Co2 1_555 1_555
O5 P2 1_555 1_555
O6 P3 1_555 1_555
O7 P3 1_555 1_555
O8 Co1C_2 1_555 1_555
O9 Ga1 1_555 1_555
O10 P1 1_555 1_555
O11 Ga1 1_555 1_555
Co1C O6 1_555 1_555
Co2E O2E 1_555 1_555
Co2B O7 1_555 1_555
Co2C O10 1_555 1_555
Co2F O10E 1_555 1_555
Co2G O7E 1_555 1_555
P3E O2E 1_555 1_555
O4E P2 1_555 1_555
O6E Co1C 1_555 1_555
O6C Co1 1_555 1_555
O6F Co1 1_555 1_555
O7E P3E 1_555 1_555
O7B Co2 1_555 1_555
O7G Co2E 1_555 1_555
O8C Co1 1_555 1_555
O9E Ga1 1_555 1_555
O10E P1 1_555 1_555
O10C Co2 1_555 1_555
O10F Co2E 1_555 1_555
O11E Ga1 1_555 1_555
P1 O11 1_555 1_555
P1 O11E 1_555 1_555
P2 O4 1_555 1_555
P3 O9 1_555 1_555
O11 O11E 1_555 1_555
Co2E O4E 1_555 1_555
P3E O6E 1_555 1_555
P3E O9E 1_555 1_555

#END
