
#######################################################################
#
#                 Cambridge Crystallographic Data Centre
#                                CCDC 
#
#######################################################################
#
# If this CIF has been generated from an entry in the Cambridge 
# Structural Database, then it will include bibliographic, chemical, 
# crystal, experimental, refinement or atomic coordinate data resulting 
# from the CCDC's data processing and validation procedures.
#
#######################################################################

data_BEFPAF
_chemical_formula_moiety         '(H4 Al6 O26 P6 2-)n'
_symmetry_cell_setting           monoclinic
_symmetry_space_group_name_H-M   'C 2/c'
_symmetry_Int_Tables_number      15
_space_group_name_Hall           '-C 2yc'
loop_
_symmetry_equiv_pos_site_id
_symmetry_equiv_pos_as_xyz
1 x,y,z
2 -x,y,1/2-z
3 1/2+x,1/2+y,z
4 1/2-x,1/2+y,1/2-z
5 -x,-y,-z
6 x,-y,1/2+z
7 1/2-x,1/2-y,-z
8 1/2+x,1/2-y,1/2+z
_cell_length_a                   13.911(2)
_cell_length_b                   12.7722(14)
_cell_length_c                   18.634(2)
_cell_angle_alpha                90
_cell_angle_beta                 90.359(2)
_cell_angle_gamma                90
_cell_volume                     3310.71
loop_
_atom_site_label
_atom_site_type_symbol
_atom_site_fract_x
_atom_site_fract_y
_atom_site_fract_z
_atom_site_U_iso_or_equiv
_atom_site_thermal_displace_type
O2 O 0.5000 -0.2135(39) 0.2500 0.2900 Uiso
Al1 Al 0.1069(2) 0.0388(2) 0.1634(1) 0.0290 Uiso
Al2 Al -0.2305(2) -0.0933(2) 0.0474(1) 0.0260 Uiso
Al3 Al -0.1166(2) 0.2225(2) 0.0606(2) 0.0250 Uiso
P1 P 0.2310(3) -0.0996(3) 0.0589(2) 0.0270 Uiso
P2 P 0.1092(2) 0.2336(3) 0.0611(2) 0.0290 Uiso
P3 P -0.1189(3) 0.0299(3) 0.1655(2) 0.0340 Uiso
O3 O -0.1868(7) -0.0502(7) 0.1308(6) 0.0570 Uiso
O4 O 0.1429(7) 0.1757(8) -0.0048(5) 0.0530 Uiso
O5 O 0.0056(6) 0.2597(8) 0.0513(6) 0.0530 Uiso
O6 O 0.1572(7) -0.1666(8) 0.0217(5) 0.0510 Uiso
O7 O 0.1901(8) -0.0559(8) 0.1265(5) 0.0540 Uiso
O8 O -0.0184(7) -0.0051(9) 0.1552(6) 0.0650 Uiso
O9 O -0.1356(7) 0.1368(7) 0.1318(6) 0.0570 Uiso
O10 O 0.1645(8) 0.3358(8) 0.0691(6) 0.0680 Uiso
O11 O -0.1433(8) 0.0370(9) 0.2431(5) 0.0690 Uiso
O12 O 0.3177(8) -0.1641(7) 0.0802(6) 0.0650 Uiso
O13 O 0.1263(7) 0.1706(8) 0.1276(5) 0.0520 Uiso
O14 O 0.2653(7) -0.0131(7) 0.0099(5) 0.0500 Uiso
Al1A Al -0.1069(2) 0.0388(2) 0.3366(1) 0.0290 Uiso
Al1D Al -0.1069(2) -0.0388(2) -0.1634(1) 0.0290 Uiso
Al2A Al 0.2305(2) -0.0933(2) 0.4526(1) 0.0260 Uiso
Al2D Al 0.2305(2) 0.0933(2) -0.0474(1) 0.0260 Uiso
Al2B Al 0.2695(2) 0.4067(2) 0.0474(1) 0.0260 Uiso
Al2F Al -0.2695(2) -0.4067(2) -0.0474(1) 0.0260 Uiso
Al3D Al 0.1166(2) -0.2225(2) -0.0606(2) 0.0250 Uiso
Al3B Al 0.3834(2) -0.2775(2) 0.0606(2) 0.0250 Uiso
Al3A Al 0.1166(2) 0.2225(2) 0.4394(2) 0.0250 Uiso
Al3F Al -0.3834(2) 0.2775(2) -0.0606(2) 0.0250 Uiso
P1D P -0.2310(3) 0.0996(3) -0.0589(2) 0.0270 Uiso
P2D P -0.1092(2) -0.2336(3) -0.0611(2) 0.0290 Uiso
P3A P 0.1189(3) 0.0299(3) 0.3345(2) 0.0340 Uiso
O3A O 0.1868(7) -0.0502(7) 0.3692(6) 0.0570 Uiso
O4D O -0.1429(7) -0.1757(8) 0.0048(5) 0.0530 Uiso
O4E O 0.1429(7) -0.1757(8) 0.4952(5) 0.0530 Uiso
O5D O -0.0056(6) -0.2597(8) -0.0513(6) 0.0530 Uiso
O6D O -0.1572(7) 0.1666(8) -0.0217(5) 0.0510 Uiso
O7D O -0.1901(8) 0.0559(8) -0.1265(5) 0.0540 Uiso
O7A O -0.1901(8) -0.0559(8) 0.3735(5) 0.0540 Uiso
O8A O 0.0184(7) -0.0051(9) 0.3448(6) 0.0650 Uiso
O9A O 0.1356(7) 0.1368(7) 0.3682(6) 0.0570 Uiso
O9D O 0.1356(7) -0.1368(7) -0.1318(6) 0.0570 Uiso
O10D O -0.1645(8) -0.3358(8) -0.0691(6) 0.0680 Uiso
O10B O -0.3355(8) -0.1642(8) 0.0691(6) 0.0680 Uiso
O10C O 0.3355(8) -0.1642(8) 0.4309(6) 0.0680 Uiso
O11A O 0.1433(8) 0.0370(9) 0.2569(5) 0.0690 Uiso
O12D O -0.3177(8) 0.1641(7) -0.0802(6) 0.0650 Uiso
O12B O -0.1823(8) 0.3359(7) 0.0802(6) 0.0650 Uiso
O12F O 0.1823(8) -0.3359(7) -0.0802(6) 0.0650 Uiso
O13D O -0.1263(7) -0.1706(8) -0.1276(5) 0.0520 Uiso
O13A O -0.1263(7) 0.1706(8) 0.3724(5) 0.0520 Uiso
O14D O -0.2653(7) 0.0131(7) -0.0099(5) 0.0500 Uiso
O14E O 0.2653(7) 0.0131(7) 0.5099(5) 0.0500 Uiso
O1 O 0.6500(18) -0.0833(19) 0.2494(13) 0.2000 Uiso
loop_
_geom_bond_atom_site_label_1
_geom_bond_atom_site_label_2
_geom_bond_site_symmetry_1
_geom_bond_site_symmetry_2
Al1 O7 1_555 1_555
Al2 O3 1_555 1_555
Al3 O5 1_555 1_555
P1 O6 1_555 1_555
P2 O4 1_555 1_555
P3 O3 1_555 1_555
O4 Al2D 1_555 1_555
O5 P2 1_555 1_555
O6 Al3D 1_555 1_555
O7 P1 1_555 1_555
O8 Al1 1_555 1_555
O9 Al3 1_555 1_555
O10 P2 1_555 1_555
O11 P3 1_555 1_555
O12 P1 1_555 1_555
O13 Al1 1_555 1_555
O14 P1 1_555 1_555
Al1A O11 1_555 1_555
Al1D O7D 1_555 1_555
Al2A O3A 1_555 1_555
Al2D O14 1_555 1_555
Al2B O10 1_555 1_555
Al2F O10D 1_555 1_555
Al3D O5D 1_555 1_555
Al3B O12 1_555 1_555
Al3A O9A 1_555 1_555
Al3F O12D 1_555 1_555
P1D O6D 1_555 1_555
P2D O4D 1_555 1_555
P3A O3A 1_555 1_555
O4D Al2 1_555 1_555
O4E Al2A 1_555 1_555
O5D P2D 1_555 1_555
O6D Al3 1_555 1_555
O7D P1D 1_555 1_555
O7A Al1A 1_555 1_555
O8A Al1A 1_555 1_555
O9A P3A 1_555 1_555
O9D Al3D 1_555 1_555
O10D P2D 1_555 1_555
O10B Al2 1_555 1_555
O10C Al2A 1_555 1_555
O11A Al1 1_555 1_555
O12D P1D 1_555 1_555
O12B Al3 1_555 1_555
O12F Al3D 1_555 1_555
O13D Al1D 1_555 1_555
O13A Al1A 1_555 1_555
O14D Al2 1_555 1_555
O14E Al2A 1_555 1_555
P2 O13 1_555 1_555
P3 O8 1_555 1_555
P3 O9 1_555 1_555
P1D O14D 1_555 1_555
P2D O13D 1_555 1_555
P3A O8A 1_555 1_555
P3A O11A 1_555 1_555

#END
