
#######################################################################
#
#                 Cambridge Crystallographic Data Centre
#                                CCDC 
#
#######################################################################
#
# If this CIF has been generated from an entry in the Cambridge 
# Structural Database, then it will include bibliographic, chemical, 
# crystal, experimental, refinement or atomic coordinate data resulting 
# from the CCDC's data processing and validation procedures.
#
#######################################################################

data_EROCIZ
_chemical_formula_moiety         '(C224 H244 N104 O76 U4)n'
_symmetry_cell_setting           triclinic
_symmetry_space_group_name_H-M   'P -1'
_symmetry_Int_Tables_number      2
_space_group_name_Hall           '-P 1'
loop_
_symmetry_equiv_pos_site_id
_symmetry_equiv_pos_as_xyz
1 x,y,z
2 -x,-y,-z
_cell_length_a                   17.5238(6)
_cell_length_b                   21.4858(5)
_cell_length_c                   22.2555(7)
_cell_angle_alpha                106.510(2)
_cell_angle_beta                 105.257(3)
_cell_angle_gamma                105.879(2)
_cell_volume                     7180.05
loop_
_atom_site_label
_atom_site_type_symbol
_atom_site_fract_x
_atom_site_fract_y
_atom_site_fract_z
U1 U 0.97026(2) 0.41888(2) 1.01540(2)
U2 U 0.88931(2) 0.39834(2) 0.82440(2)
O1 O 0.8789(3) 0.29179(18) 0.98268(18)
O2 O 0.8834(2) 0.32603(18) 0.89988(17)
O3 O 0.8693(3) 0.5063(2) 0.8252(2)
O4 O 0.9908(3) 0.5977(2) 0.8814(2)
N1 N 0.5900(4) 0.0904(3) 0.6554(2)
H1 H 0.5654 0.0572 0.6684
H2 H 0.6415 0.0902 0.6580
C1 C 0.9132(4) 0.5694(3) 0.8431(3)
C2 C 0.5991(5) 0.1597(3) 0.7012(3)
H3 H 0.5431 0.1625 0.6924
H4 H 0.6341 0.1962 0.6915
O5 O 0.9433(7) 0.2191(5) 0.7813(4)
C3 C 0.9173(4) 0.6847(3) 0.8360(3)
H5 H 0.9740 0.7045 0.8653
C4 C 0.7069(4) 0.2009(3) 0.9114(3)
H6 H 0.7292 0.2112 0.9574
N2 N 0.9866(3) 0.3851(3) 0.5632(3)
H7 H 1.0294 0.3753 0.5538
H8 H 1.0068 0.4139 0.6063
C5 C 0.6382(4) 0.1726(3) 0.7739(3)
N3 N 0.9331(3) 0.8442(2) 0.8986(2)
H9 H 0.9583 0.8299 0.9295
H10 H 0.8796 0.8354 0.8964
C6 C 0.7581(4) 0.2307(3) 0.8798(3)
C7 C 0.7484(4) 0.6264(3) 0.7525(3)
H11 H 0.6913 0.6067 0.7238
C8 C 0.8453(4) 0.2849(3) 0.9223(3)
C9 C 0.9266(4) 0.2871(3) 0.6514(3)
H12 H 0.8930 0.3124 0.6613
C10 C 0.9488(4) 0.2833(3) 0.5958(3)
C11 C 0.7230(4) 0.2154(3) 0.8116(3)
H13 H 0.7570 0.2342 0.7904
C12 C 0.9315(5) 0.8030(3) 0.8335(3)
H14 H 0.9894 0.8093 0.8361
H15 H 0.9065 0.8194 0.7997
C13 C 0.8717(4) 0.6141(3) 0.8166(2)
C14 C 0.6239(4) 0.1567(3) 0.8736(3)
H16 H 0.5905 0.1358 0.8941
C15 C 0.7870(4) 0.5853(3) 0.7745(3)
H17 H 0.7559 0.5378 0.7610
C16 C 0.8802(4) 0.7263(3) 0.8127(3)
C17 C 0.7938(5) 0.6964(3) 0.7725(3)
H18 H 0.7665 0.7244 0.7591
C18 C 0.9182(5) 0.3195(3) 0.5518(3)
H19 H 0.8972 0.2882 0.5049
H20 H 0.8711 0.3304 0.5607
C19 C 0.9537(4) 0.2536(3) 0.6928(3)
C20 C 0.9256(6) 0.2542(4) 0.7504(3)
C21 C 0.5376(5) 0.0744(3) 0.5842(3)
H21 H 0.4814 0.0739 0.5819
H22 H 0.5637 0.1118 0.5711
C22 C 0.9524(5) 0.4198(3) 0.5194(3)
H23 H 0.9089 0.4334 0.5323
H24 H 0.9255 0.3863 0.4730
C23 C 1.0026(5) 0.2477(4) 0.5835(4)
H25 H 1.0202 0.2464 0.5474
C24 C 0.5278(5) 0.0070(3) 0.5353(3)
H26 H 0.5026 -0.0307 0.5485
H27 H 0.5836 0.0076 0.5361
C25 C 0.9778(4) 0.9208(3) 0.9214(3)
H28 H 0.9503 0.9368 0.8882
H29 H 1.0363 0.9307 0.9240
C26 C 0.5892(4) 0.1426(3) 0.8057(3)
H30 H 0.5324 0.1128 0.7810
C27 C 0.9780(5) 0.9608(3) 0.9890(3)
H31 H 1.0068 0.9457 1.0224
H32 H 0.9196 0.9501 0.9866
C28 C 1.0298(5) 0.2140(4) 0.6252(4)
H33 H 1.0640 0.1891 0.6159
C29 C 1.0066(4) 0.2177(3) 0.6795(3)
H34 H 1.0260 0.1962 0.7078
C30 C 1.0188(5) 0.4832(4) 0.5230(4)
H35 H 1.0626 0.4700 0.5102
H36 H 1.0455 0.5171 0.5692
O6 O 0.8797(2) 0.43081(19) 1.02943(18)
O7 O 0.7813(2) 0.37226(19) 0.81796(18)
O8 O 0.9497(3) 0.46498(17) 0.93398(17)
O9 O 0.8790(3) 0.2893(2) 0.76232(19)
O10 O 0.9933(3) 0.4262(2) 0.8232(2)
O11 O 0.8302(3) 0.3919(3) 0.7088(2)
O12 O 1.0591(2) 0.4001(2) 1.0035(2)
H37 H 0.783(2) 0.394(3) 0.690(3)
H38 H 0.853(5) 0.421(3) 0.694(4)
O1A O 0.1211(3) -0.29179(18) 0.01732(18)
O2A O 0.1166(2) -0.32603(18) 0.10012(17)
N1A N 0.4100(4) -0.0904(3) 0.3446(2)
H1A H 0.4346 -0.0572 0.3316
H2A H 0.3585 -0.0902 0.3420
C2A C 0.4009(5) -0.1597(3) 0.2988(3)
H3A H 0.4569 -0.1625 0.3076
H4A H 0.3659 -0.1962 0.3085
C4A C 0.2931(4) -0.2009(3) 0.0886(3)
H6A H 0.2708 -0.2112 0.0426
C5A C 0.3618(4) -0.1726(3) 0.2261(3)
C6A C 0.2419(4) -0.2307(3) 0.1202(3)
C8A C 0.1547(4) -0.2849(3) 0.0777(3)
C11A C 0.2770(4) -0.2154(3) 0.1884(3)
H13A H 0.2430 -0.2342 0.2096
C14A C 0.3761(4) -0.1567(3) 0.1264(3)
H16A H 0.4095 -0.1358 0.1059
C21A C 0.4624(5) -0.0744(3) 0.4158(3)
H21A H 0.5186 -0.0739 0.4181
H22A H 0.4363 -0.1118 0.4289
C24A C 0.4722(5) -0.0070(3) 0.4647(3)
H26A H 0.4974 0.0307 0.4515
H27A H 0.4164 -0.0076 0.4639
C26A C 0.4108(4) -0.1426(3) 0.1943(3)
H30A H 0.4676 -0.1128 0.2190
O3A O 1.1307(3) 1.4937(2) 1.1748(2)
O4A O 1.0092(3) 1.4023(2) 1.1186(2)
C1A C 1.0868(4) 1.4306(3) 1.1569(3)
C3A C 1.0827(4) 1.3153(3) 1.1640(3)
H5A H 1.0260 1.2955 1.1347
N3A N 1.0669(3) 1.1558(2) 1.1014(2)
H9A H 1.0417 1.1701 1.0705
H10A H 1.1204 1.1646 1.1036
C7A C 1.2516(4) 1.3736(3) 1.2475(3)
H11A H 1.3087 1.3933 1.2762
C12A C 1.0685(5) 1.1970(3) 1.1665(3)
H14A H 1.0106 1.1907 1.1639
H15A H 1.0935 1.1806 1.2003
C13A C 1.1283(4) 1.3859(3) 1.1834(2)
C15A C 1.2130(4) 1.4147(3) 1.2255(3)
H17A H 1.2441 1.4622 1.2390
C16A C 1.1198(4) 1.2737(3) 1.1873(3)
C17A C 1.2062(5) 1.3036(3) 1.2275(3)
H18A H 1.2335 1.2756 1.2409
C25A C 1.0222(4) 1.0792(3) 1.0786(3)
H28A H 1.0497 1.0632 1.1118
H29A H 0.9637 1.0693 1.0760
C27A C 1.0220(5) 1.0392(3) 1.0110(3)
H31A H 0.9932 1.0543 0.9776
H32A H 1.0804 1.0499 1.0134
O5A O 1.0567(7) 0.7809(5) 0.2187(4)
N2A N 1.0134(3) 0.6149(3) 0.4368(3)
H7A H 0.9706 0.6247 0.4462
H8A H 0.9932 0.5861 0.3937
C9A C 1.0734(4) 0.7129(3) 0.3486(3)
H12A H 1.1070 0.6876 0.3387
C10A C 1.0512(4) 0.7167(3) 0.4042(3)
C18A C 1.0818(5) 0.6805(3) 0.4482(3)
H19A H 1.1028 0.7118 0.4951
H20A H 1.1289 0.6696 0.4393
C19A C 1.0463(4) 0.7464(3) 0.3072(3)
C20A C 1.0744(6) 0.7458(4) 0.2496(3)
C22A C 1.0476(5) 0.5802(3) 0.4806(3)
H23A H 1.0911 0.5666 0.4677
H24A H 1.0745 0.6137 0.5270
C23A C 0.9974(5) 0.7523(4) 0.4165(4)
H25A H 0.9798 0.7536 0.4526
C28A C 0.9702(5) 0.7860(4) 0.3748(4)
H33A H 0.9360 0.8109 0.3841
C29A C 0.9934(4) 0.7823(3) 0.3205(3)
H34A H 0.9740 0.8038 0.2922
C30A C 0.9812(5) 0.5168(4) 0.4770(4)
H35A H 0.9374 0.5300 0.4898
H36A H 0.9545 0.4829 0.4308
O9A O 1.1210(3) 0.7107(2) 0.23768(19)
U1A U 0.02974(2) -0.41888(2) -0.01540(2)
U2A U 0.11069(2) -0.39834(2) 0.17560(2)
O6A O 0.1203(2) -0.43081(19) -0.02943(18)
O7A O 0.2187(2) -0.37226(19) 0.18204(18)
O8A O 0.0503(3) -0.46498(17) 0.06602(17)
O10A O 0.0067(3) -0.4262(2) 0.1768(2)
O11A O 0.1698(3) -0.3919(3) 0.2912(2)
O12A O -0.0591(2) -0.4001(2) -0.0035(2)
H37A H 0.217(2) -0.394(3) 0.310(3)
H38A H 0.147(5) -0.421(3) 0.306(4)
U1_2 U -0.02974(2) -0.58112(2) 0.01540(2)
U1_3 U 0.97026(2) 1.41888(2) 1.01540(2)
U1A_2 U 1.02974(2) 0.58112(2) 0.98460(2)
U2A_2 U 1.11069(2) 0.60166(2) 0.17560(2)
U2A_3 U 1.11069(2) 1.60166(2) 1.17560(2)
O3A_2 O 0.1307(3) -0.5063(2) 0.1748(2)
O4_2 O -0.0092(3) -0.4023(2) -0.1186(2)
O4A_2 O 1.0092(3) 0.4023(2) 1.1186(2)
O8_2 O -0.0503(3) -0.53502(17) -0.06602(17)
O8A_2 O 1.0503(3) 0.53502(17) 1.06602(17)
O9A_2 O 0.1210(3) -0.2893(2) 0.23768(19)
O13 O 0.2698(3) -0.0397(3) 0.3247(2)
O14 O 0.6017(4) -0.0337(3) 0.3358(2)
O15 O 0.5924(3) 0.2437(2) 0.5893(2)
O16 O 0.7388(4) 0.1654(3) 0.6168(3)
O17 O 0.4403(4) 0.0292(3) 0.3020(2)
O18 O 0.4094(4) 0.1732(3) 0.6129(2)
N4 N 0.2892(4) 0.0813(3) 0.5316(3)
N5 N 0.4299(4) 0.1291(3) 0.3683(3)
N6 N 0.3606(4) 0.1627(3) 0.5034(3)
N7 N 0.6200(4) 0.2138(3) 0.4900(3)
N8 N 0.7281(4) 0.0142(3) 0.4309(3)
N9 N 0.5607(4) 0.1278(3) 0.3767(3)
N10 N 0.2282(4) -0.0020(3) 0.4152(3)
N11 N 0.4905(4) 0.2115(3) 0.4855(3)
C31 C 0.2854(4) 0.1189(4) 0.4417(3)
H39 H 0.2527 0.1461 0.4276
C32 C 0.4263(5) 0.2251(4) 0.5090(4)
H40 H 0.3992 0.2483 0.4836
H41 H 0.4533 0.2571 0.5559
N12 N 0.7308(4) 0.1697(3) 0.5113(3)
N13 N 0.7833(4) 0.0963(3) 0.5458(3)
C33 C 0.7845(5) 0.0825(4) 0.4795(4)
H42 H 0.8428 0.0922 0.4803
C34 C 0.4868(5) 0.1982(3) 0.4169(3)
H43 H 0.4756 0.2346 0.4020
N14 N 0.3023(4) 0.0773(3) 0.3859(3)
C35 C 0.7471(5) 0.1328(4) 0.4556(4)
H44 H 0.7880 0.1647 0.4447
N15 N 0.6733(4) 0.0859(3) 0.3967(3)
C36 C 0.5763(5) 0.1983(4) 0.4211(4)
H45 H 0.6054 0.2337 0.4064
C37 C 0.3593(5) 0.1428(4) 0.5564(4)
C38 C 0.5695(5) 0.2247(3) 0.5279(4)
C39 C 0.7090(5) 0.2296(3) 0.5207(4)
H46 H 0.7399 0.2592 0.5023
H47 H 0.7275 0.2561 0.5687
C40 C 0.2671(5) 0.0080(4) 0.3711(4)
C41 C 0.4726(5) 0.0885(4) 0.3443(4)
C42 C 0.6208(6) 0.1099(4) 0.3534(4)
H48 H 0.6270 0.1129 0.3140
C43 C 0.7376(6) -0.0504(4) 0.4247(4)
H49 H 0.7972 -0.0432 0.4335
H50 H 0.7051 -0.0832 0.3784
C44 C 0.2337(5) 0.0627(3) 0.4624(4)
H51 H 0.1774 0.0641 0.4592
C45 C 0.6606(5) 0.0170(4) 0.3824(4)
C46 C 0.3394(5) 0.1044(4) 0.3440(4)
H52 H 0.3169 0.0678 0.2994
H53 H 0.3219 0.1425 0.3396
C47 C 0.8246(5) 0.0696(4) 0.5921(4)
H54 H 0.8761 0.0669 0.5851
H55 H 0.8413 0.1023 0.6379
C48 C 0.7496(5) 0.1447(4) 0.5644(5)
O13A O 0.7302(3) 0.0397(3) 0.6753(2)
O14A O 0.3983(4) 0.0337(3) 0.6642(2)
O15A O 0.4076(3) -0.2437(2) 0.4107(2)
O16A O 0.2612(4) -0.1654(3) 0.3832(3)
O17A O 0.5597(4) -0.0292(3) 0.6980(2)
O18A O 0.5906(4) -0.1732(3) 0.3871(2)
N4A N 0.7108(4) -0.0813(3) 0.4684(3)
N5A N 0.5701(4) -0.1291(3) 0.6317(3)
N6A N 0.6394(4) -0.1627(3) 0.4966(3)
N7A N 0.3800(4) -0.2138(3) 0.5100(3)
N8A N 0.2719(4) -0.0142(3) 0.5691(3)
N9A N 0.4393(4) -0.1278(3) 0.6233(3)
N10A N 0.7718(4) 0.0020(3) 0.5848(3)
N11A N 0.5095(4) -0.2115(3) 0.5145(3)
C31A C 0.7146(4) -0.1189(4) 0.5583(3)
H39A H 0.7473 -0.1461 0.5724
C32A C 0.5737(5) -0.2251(4) 0.4910(4)
H40A H 0.6008 -0.2483 0.5164
H41A H 0.5467 -0.2571 0.4441
N12A N 0.2692(4) -0.1697(3) 0.4887(3)
N13A N 0.2167(4) -0.0963(3) 0.4542(3)
C33A C 0.2155(5) -0.0825(4) 0.5205(4)
H42A H 0.1572 -0.0922 0.5197
C34A C 0.5132(5) -0.1982(3) 0.5831(3)
H43A H 0.5244 -0.2346 0.5980
N14A N 0.6977(4) -0.0773(3) 0.6141(3)
C35A C 0.2529(5) -0.1328(4) 0.5444(4)
H44A H 0.2120 -0.1647 0.5553
N15A N 0.3267(4) -0.0859(3) 0.6033(3)
C36A C 0.4237(5) -0.1983(4) 0.5789(4)
H45A H 0.3946 -0.2337 0.5936
C37A C 0.6407(5) -0.1428(4) 0.4436(4)
C38A C 0.4305(5) -0.2247(3) 0.4721(4)
C39A C 0.2910(5) -0.2296(3) 0.4793(4)
H46A H 0.2601 -0.2592 0.4977
H47A H 0.2725 -0.2561 0.4313
C40A C 0.7329(5) -0.0080(4) 0.6289(4)
C41A C 0.5274(5) -0.0885(4) 0.6557(4)
C42A C 0.3792(6) -0.1099(4) 0.6466(4)
H48A H 0.3730 -0.1129 0.6860
C43A C 0.2624(6) 0.0504(4) 0.5753(4)
H49A H 0.2028 0.0432 0.5665
H50A H 0.2949 0.0832 0.6216
C44A C 0.7663(5) -0.0627(3) 0.5376(4)
H51A H 0.8226 -0.0641 0.5408
C45A C 0.3394(5) -0.0170(4) 0.6176(4)
C46A C 0.6606(5) -0.1044(4) 0.6560(4)
H52A H 0.6831 -0.0678 0.7006
H53A H 0.6781 -0.1425 0.6604
C47A C 0.1754(5) -0.0696(4) 0.4079(4)
H54A H 0.1239 -0.0669 0.4149
H55A H 0.1587 -0.1023 0.3621
C48A C 0.2504(5) -0.1447(4) 0.4356(5)
O19 O 0.4970(3) 0.7238(2) 0.0964(2)
O20 O 0.4691(3) 0.4880(2) 0.1896(2)
N16 N 0.3966(3) 0.5593(3) 0.1705(3)
O21 O 0.6526(3) 0.4955(2) 0.1954(2)
O22 O 0.3029(3) 0.3739(2) 0.0459(2)
N17 N 0.7715(3) 0.5980(2) 0.0383(3)
N18 N 0.7642(3) 0.5042(2) 0.0793(2)
N19 N 0.2958(3) 0.5717(2) 0.0263(2)
O23 O 0.6839(3) 0.7302(2) 0.0988(3)
N20 N 0.6797(3) 0.6141(3) 0.2380(3)
N21 N 0.2800(3) 0.4777(2) 0.0669(2)
C49 C 0.2369(4) 0.5114(3) 0.0289(3)
H56 H 0.1931 0.5224 0.0446
N22 N 0.4092(3) 0.6561(3) 0.1321(3)
C50 C 0.8013(4) 0.5429(3) 0.0438(3)
H57 H 0.8638 0.5598 0.0621
N23 N 0.5460(4) 0.7078(3) 0.1954(3)
N24 N 0.7513(3) 0.5764(3) 0.1787(2)
N25 N 0.6829(3) 0.7045(3) 0.1924(3)
C51 C 0.7916(4) 0.5303(3) 0.1516(3)
H58 H 0.8530 0.5555 0.1709
H59 H 0.7792 0.4909 0.1653
C52 C 0.3301(4) 0.6408(3) 0.0796(3)
H60 H 0.3389 0.6756 0.0597
H61 H 0.2880 0.6451 0.0997
N26 N 0.7673(3) 0.6738(3) 0.1410(3)
C53 C 0.4146(4) 0.6335(3) 0.1883(3)
H62 H 0.3815 0.6497 0.2141
N27 N 0.5360(3) 0.6084(3) 0.2290(3)
C54 C 0.8061(5) 0.6662(3) 0.0912(3)
H63 H 0.8007 0.7000 0.0709
H64 H 0.8666 0.6780 0.1139
C55 C 0.2733(4) 0.4135(3) 0.0271(3)
C56 C 0.7311(4) 0.6763(3) 0.2343(3)
H65 H 0.7668 0.7122 0.2794
C57 C 0.4672(4) 0.5461(3) 0.1953(3)
C58 C 0.6910(4) 0.5562(3) 0.2028(3)
C59 C 0.3125(4) 0.5037(3) 0.1395(3)
H66 H 0.3152 0.4653 0.1535
H67 H 0.2731 0.5211 0.1556
C60 C 0.7853(4) 0.6521(3) 0.1971(3)
H68 H 0.8461 0.6736 0.2256
C61 C 0.4847(4) 0.6979(3) 0.1371(3)
C62 C 0.5123(4) 0.6673(3) 0.2303(3)
H69 H 0.5241 0.6974 0.2767
C63 C 0.6346(4) 0.7457(3) 0.2136(4)
H70 H 0.6602 0.7695 0.2623
H71 H 0.6405 0.7814 0.1946
C64 C 0.7087(4) 0.7054(3) 0.1393(3)
C65 C 0.6172(4) 0.6109(4) 0.2701(3)
H72 H 0.6071 0.5697 0.2813
H73 H 0.6408 0.6517 0.3120
O24 O 0.6777(3) 0.3919(2) 0.0571(2)
C66 C 0.7111(4) 0.4371(3) 0.0382(3)
O19A O 0.5030(3) 0.2762(2) -0.0964(2)
O20A O 0.5309(3) 0.5120(2) -0.1896(2)
N16A N 0.6034(3) 0.4407(3) -0.1705(3)
O21A O 0.3474(3) 0.5045(2) -0.1954(2)
O22A O 0.6971(3) 0.6261(2) -0.0459(2)
N17A N 0.2285(3) 0.4020(2) -0.0383(3)
N18A N 0.2358(3) 0.4958(2) -0.0793(2)
N19A N 0.7042(3) 0.4283(2) -0.0263(2)
O23A O 0.3161(3) 0.2698(2) -0.0988(3)
N20A N 0.3203(3) 0.3859(3) -0.2380(3)
N21A N 0.7200(3) 0.5223(2) -0.0669(2)
C49A C 0.7631(4) 0.4886(3) -0.0289(3)
H56A H 0.8069 0.4776 -0.0446
N22A N 0.5908(3) 0.3439(3) -0.1321(3)
C50A C 0.1987(4) 0.4571(3) -0.0438(3)
H57A H 0.1362 0.4402 -0.0621
N23A N 0.4540(4) 0.2922(3) -0.1954(3)
N24A N 0.2487(3) 0.4236(3) -0.1787(2)
N25A N 0.3171(3) 0.2955(3) -0.1924(3)
C51A C 0.2084(4) 0.4697(3) -0.1516(3)
H58A H 0.1470 0.4445 -0.1709
H59A H 0.2208 0.5091 -0.1653
C52A C 0.6699(4) 0.3592(3) -0.0796(3)
H60A H 0.6611 0.3244 -0.0597
H61A H 0.7120 0.3549 -0.0997
N26A N 0.2327(3) 0.3262(3) -0.1410(3)
C53A C 0.5854(4) 0.3665(3) -0.1883(3)
H62A H 0.6185 0.3503 -0.2141
N27A N 0.4640(3) 0.3916(3) -0.2290(3)
C54A C 0.1939(5) 0.3338(3) -0.0912(3)
H63A H 0.1993 0.3000 -0.0709
H64A H 0.1334 0.3220 -0.1139
C55A C 0.7267(4) 0.5865(3) -0.0271(3)
C56A C 0.2689(4) 0.3237(3) -0.2343(3)
H65A H 0.2332 0.2878 -0.2794
C57A C 0.5328(4) 0.4539(3) -0.1953(3)
C58A C 0.3090(4) 0.4438(3) -0.2028(3)
C59A C 0.6875(4) 0.4963(3) -0.1395(3)
H66A H 0.6848 0.5347 -0.1535
H67A H 0.7269 0.4789 -0.1556
C60A C 0.2147(4) 0.3479(3) -0.1971(3)
H68A H 0.1539 0.3264 -0.2256
C61A C 0.5153(4) 0.3021(3) -0.1371(3)
C62A C 0.4877(4) 0.3327(3) -0.2303(3)
H69A H 0.4759 0.3026 -0.2767
C63A C 0.3654(4) 0.2543(3) -0.2136(4)
H70A H 0.3398 0.2305 -0.2623
H71A H 0.3595 0.2186 -0.1946
C64A C 0.2913(4) 0.2946(3) -0.1393(3)
C65A C 0.3828(4) 0.3891(4) -0.2701(3)
H72A H 0.3929 0.4303 -0.2813
H73A H 0.3592 0.3483 -0.3120
O24A O 0.3223(3) 0.6081(2) -0.0571(2)
C66A C 0.2889(4) 0.5629(3) -0.0382(3)
O25 O 0.9757(3) 0.0391(2) 1.2080(2)
O26 O 0.8240(3) -0.0860(2) 0.7826(2)
O27 O 1.1186(3) 0.2301(2) 1.0282(2)
O28 O 0.9129(3) 0.1693(2) 1.0160(2)
O29 O 0.7599(3) -0.1783(2) 0.8743(2)
N28 N 1.0443(3) 0.1748(3) 0.9134(2)
N29 N 0.7904(3) 0.0845(3) 0.9300(2)
O30 O 0.8351(3) 0.0863(2) 1.1016(2)
N30 N 0.8597(3) 0.0320(3) 0.8071(2)
N31 N 0.7663(3) -0.0326(3) 1.0641(2)
N32 N 0.7420(4) 0.0179(3) 0.9930(3)
N33 N 0.7590(3) -0.0223(3) 0.8363(2)
N34 N 0.8639(3) -0.0661(3) 1.1362(2)
N35 N 0.8966(3) 0.1386(3) 0.9040(2)
N36 N 1.0064(3) 0.0665(3) 0.8178(3)
N37 N 0.7320(3) -0.1421(3) 0.9704(3)
N38 N 0.8259(3) -0.1769(3) 1.0442(2)
N39 N 0.7103(4) -0.0892(3) 0.9011(3)
C67 C 0.9729(4) 0.1945(3) 0.9123(3)
H74 H 0.9592 0.2105 0.8756
H75 H 0.9888 0.2337 0.9540
C68 C 0.8156(4) -0.0309(3) 0.8063(3)
C69 C 0.6860(4) -0.0525(3) 0.9538(3)
H76 H 0.6263 -0.0572 0.9369
C70 C 0.8714(4) 0.1349(3) 0.9560(3)
C71 C 0.7382(4) 0.0737(3) 0.9692(3)
H77 H 0.6794 0.0627 0.9419
H78 H 0.7564 0.1170 1.0077
C72 C 0.9483(4) -0.0245(3) 1.1793(3)
C73 C 0.8500(4) -0.1395(3) 1.1162(3)
H79 H 0.8101 -0.1632 1.1336
C74 C 0.7976(4) -0.0395(3) 1.1284(3)
H80 H 0.8183 0.0062 1.1643
H81 H 0.7501 -0.0701 1.1339
C75 C 0.8340(4) 0.0878(3) 0.8396(3)
H82 H 0.8142 0.1101 0.8092
C76 C 0.7622(4) 0.0485(3) 0.8575(3)
H83 H 0.7078 0.0507 0.8340
C77 C 0.7415(4) -0.1972(3) 0.9946(3)
H84 H 0.6992 -0.2092 1.0144
H85 H 0.7304 -0.2388 0.9565
C78 C 0.7025(4) -0.0890(3) 1.0035(3)
H86 H 0.6505 -0.1104 1.0108
C79 C 1.1127(4) 0.1969(3) 0.9718(3)
C80 C 0.6935(4) -0.0805(3) 0.8359(3)
H87 H 0.6873 -0.1232 0.8017
H88 H 0.6397 -0.0741 0.8234
C81 C 1.0610(4) 0.1401(3) 0.8540(3)
H89 H 1.0596 0.1656 0.8239
C82 C 0.7868(4) 0.0298(4) 1.0569(3)
C83 C 0.7353(4) -0.1397(3) 0.9119(3)
C84 C 0.9198(4) 0.0419(3) 0.7739(3)
H90 H 0.9064 -0.0022 0.7381
H91 H 0.9131 0.0753 0.7534
O25A O 1.0243(3) -0.0391(2) 0.7920(2)
O26A O 1.1760(3) 0.0860(2) 1.2174(2)
O27A O 0.8814(3) -0.2301(2) 0.9718(2)
O28A O 1.0871(3) -0.1693(2) 0.9840(2)
O29A O 1.2401(3) 0.1783(2) 1.1257(2)
N28A N 0.9557(3) -0.1748(3) 1.0866(2)
N29A N 1.2096(3) -0.0845(3) 1.0700(2)
O30A O 1.1649(3) -0.0863(2) 0.8984(2)
N30A N 1.1403(3) -0.0320(3) 1.1929(2)
N31A N 1.2337(3) 0.0326(3) 0.9359(2)
N32A N 1.2580(4) -0.0179(3) 1.0070(3)
N33A N 1.2410(3) 0.0223(3) 1.1637(2)
N34A N 1.1361(3) 0.0661(3) 0.8638(2)
N35A N 1.1034(3) -0.1386(3) 1.0960(2)
N36A N 0.9936(3) -0.0665(3) 1.1822(3)
N37A N 1.2680(3) 0.1421(3) 1.0296(3)
N38A N 1.1741(3) 0.1769(3) 0.9558(2)
N39A N 1.2897(4) 0.0892(3) 1.0989(3)
C67A C 1.0271(4) -0.1945(3) 1.0877(3)
H74A H 1.0408 -0.2105 1.1244
H75A H 1.0112 -0.2337 1.0460
C68A C 1.1844(4) 0.0309(3) 1.1937(3)
C69A C 1.3140(4) 0.0525(3) 1.0462(3)
H76A H 1.3737 0.0572 1.0631
C70A C 1.1286(4) -0.1349(3) 1.0440(3)
C71A C 1.2618(4) -0.0737(3) 1.0308(3)
H77A H 1.3206 -0.0627 1.0581
H78A H 1.2436 -0.1170 0.9923
C72A C 1.0517(4) 0.0245(3) 0.8207(3)
C73A C 1.1500(4) 0.1395(3) 0.8838(3)
H79A H 1.1899 0.1632 0.8664
C74A C 1.2024(4) 0.0395(3) 0.8716(3)
H80A H 1.1817 -0.0062 0.8357
H81A H 1.2499 0.0701 0.8661
C75A C 1.1660(4) -0.0878(3) 1.1604(3)
H82A H 1.1858 -0.1101 1.1908
C76A C 1.2378(4) -0.0485(3) 1.1425(3)
H83A H 1.2922 -0.0507 1.1660
C77A C 1.2585(4) 0.1972(3) 1.0054(3)
H84A H 1.3008 0.2092 0.9856
H85A H 1.2696 0.2388 1.0435
C78A C 1.2975(4) 0.0890(3) 0.9965(3)
H86A H 1.3495 0.1104 0.9892
C79A C 0.8873(4) -0.1969(3) 1.0282(3)
C80A C 1.3065(4) 0.0805(3) 1.1641(3)
H87A H 1.3127 0.1232 1.1983
H88A H 1.3603 0.0741 1.1766
C81A C 0.9390(4) -0.1401(3) 1.1460(3)
H89A H 0.9404 -0.1656 1.1761
C82A C 1.2132(4) -0.0298(4) 0.9431(3)
C83A C 1.2647(4) 0.1397(3) 1.0881(3)
C84A C 1.0802(4) -0.0419(3) 1.2261(3)
H90A H 1.0936 0.0022 1.2619
H91A H 1.0869 -0.0753 1.2466
O31 O 1.2532(4) 0.6118(3) 0.4809(3)
O32 O 0.8674(3) 0.6385(2) 0.4481(2)
O33 O 1.1243(3) 0.4647(2) 0.6904(2)
O34 O 1.0440(4) 0.7218(3) 0.5937(3)
O35 O 1.2484(3) 0.7121(2) 0.6145(2)
N40 N 1.1709(4) 0.5849(3) 0.7353(3)
N41 N 1.2123(4) 0.6805(3) 0.6969(3)
N42 N 1.3003(4) 0.5623(3) 0.5553(3)
N43 N 1.3003(4) 0.6398(3) 0.6584(3)
C85 C 1.3020(5) 0.4940(4) 0.5517(4)
H92 H 1.3604 0.4955 0.5679
N44 N 0.9410(5) 0.6679(3) 0.6272(3)
C86 C 1.1077(6) 0.5863(4) 0.7644(3)
H93 H 1.1336 0.6247 0.8082
H94 H 1.0884 0.5431 0.7716
N45 N 1.0747(4) 0.6872(3) 0.6819(3)
N46 N 1.2423(4) 0.5374(3) 0.6812(3)
N47 N 1.0331(4) 0.5944(3) 0.7233(3)
N48 N 1.2504(4) 0.4612(3) 0.5832(3)
C87 C 1.2583(5) 0.5611(4) 0.4941(4)
C88 C 1.1742(5) 0.5230(4) 0.7013(3)
C89 C 1.2708(5) 0.4829(3) 0.6544(3)
H95 H 1.3322 0.4994 0.6769
H96 H 1.2449 0.4428 0.6642
C90 C 1.3455(5) 0.6242(4) 0.6146(4)
H97 H 1.3628 0.6635 0.6013
H98 H 1.3971 0.6206 0.6401
C91 C 1.0286(6) 0.6598(4) 0.7211(3)
H99 H 1.0462 0.6950 0.7664
C92 C 1.2375(5) 0.6441(4) 0.7398(3)
H100 H 1.2706 0.6767 0.7867
N49 N 0.8154(4) 0.6081(3) 0.5248(3)
C93 C 0.9350(6) 0.6407(4) 0.6796(3)
H101 H 0.9064 0.6623 0.7067
C94 C 1.1644(6) 0.7250(4) 0.7094(4)
H102 H 1.1823 0.7496 0.7576
H103 H 1.1777 0.7599 0.6900
C95 C 0.8697(6) 0.6731(4) 0.5820(4)
H104 H 0.8910 0.7089 0.5655
H105 H 0.8357 0.6880 0.6068
C96 C 0.7460(5) 0.5523(4) 0.5234(4)
H106 H 0.7092 0.5701 0.5439
C97 C 0.8160(5) 0.6003(3) 0.4623(3)
C98 C 1.2927(5) 0.6103(4) 0.7077(3)
H107 H 1.3487 0.6218 0.7414
C99 C 1.0219(6) 0.6961(4) 0.6317(3)
C100 C 1.2522(5) 0.6803(3) 0.6523(3)
O36 O 0.9434(3) 0.4780(3) 0.6748(2)
N50 N 0.8991(4) 0.5643(3) 0.6556(3)
N51 N 0.7755(4) 0.5074(3) 0.5527(3)
C101 C 0.9574(6) 0.5396(4) 0.6835(3)
C102 C 0.8093(5) 0.5242(4) 0.6246(4)
H108 H 0.7799 0.5503 0.6460
H109 H 0.7977 0.4810 0.6324
O31A O 0.7468(4) 0.3882(3) 0.5191(3)
O32A O 1.1326(3) 0.3615(2) 0.5519(2)
O33A O 0.8757(3) 0.5353(2) 0.3096(2)
O34A O 0.9560(4) 0.2782(3) 0.4063(3)
O35A O 0.7516(3) 0.2879(2) 0.3855(2)
N40A N 0.8291(4) 0.4151(3) 0.2647(3)
N41A N 0.7877(4) 0.3195(3) 0.3031(3)
N42A N 0.6997(4) 0.4377(3) 0.4447(3)
N43A N 0.6997(4) 0.3602(3) 0.3416(3)
C85A C 0.6980(5) 0.5060(4) 0.4483(4)
H92A H 0.6396 0.5045 0.4321
N44A N 1.0590(5) 0.3321(3) 0.3728(3)
C86A C 0.8923(6) 0.4137(4) 0.2356(3)
H93A H 0.8664 0.3753 0.1918
H94A H 0.9116 0.4569 0.2284
N45A N 0.9253(4) 0.3128(3) 0.3181(3)
N46A N 0.7577(4) 0.4626(3) 0.3188(3)
N47A N 0.9669(4) 0.4056(3) 0.2767(3)
N48A N 0.7496(4) 0.5388(3) 0.4168(3)
C87A C 0.7417(5) 0.4389(4) 0.5059(4)
C88A C 0.8258(5) 0.4770(4) 0.2987(3)
C89A C 0.7292(5) 0.5171(3) 0.3456(3)
H95A H 0.6678 0.5006 0.3231
H96A H 0.7551 0.5572 0.3358
C90A C 0.6545(5) 0.3758(4) 0.3854(4)
H97A H 0.6372 0.3365 0.3987
H98A H 0.6029 0.3794 0.3599
C91A C 0.9714(6) 0.3402(4) 0.2789(3)
H99A H 0.9538 0.3050 0.2336
C92A C 0.7625(5) 0.3559(4) 0.2602(3)
H100A H 0.7294 0.3233 0.2133
N49A N 1.1846(4) 0.3919(3) 0.4752(3)
C93A C 1.0650(6) 0.3593(4) 0.3204(3)
H101A H 1.0936 0.3377 0.2933
C94A C 0.8356(6) 0.2750(4) 0.2906(4)
H102A H 0.8177 0.2504 0.2424
H103A H 0.8223 0.2401 0.3100
C95A C 1.1303(6) 0.3269(4) 0.4180(4)
H104A H 1.1090 0.2911 0.4345
H105A H 1.1643 0.3120 0.3932
C96A C 1.2540(5) 0.4477(4) 0.4766(4)
H106A H 1.2908 0.4299 0.4561
C97A C 1.1840(5) 0.3997(3) 0.5377(3)
C98A C 0.7073(5) 0.3897(4) 0.2923(3)
H107A H 0.6513 0.3782 0.2586
C99A C 0.9781(6) 0.3039(4) 0.3683(3)
C100A C 0.7478(5) 0.3197(3) 0.3477(3)
O36A O 1.0566(3) 0.5220(3) 0.3252(2)
N50A N 1.1009(4) 0.4357(3) 0.3444(3)
N51A N 1.2245(4) 0.4926(3) 0.4473(3)
C101A C 1.0426(6) 0.4604(4) 0.3165(3)
C102A C 1.1907(5) 0.4758(4) 0.3754(4)
H108A H 1.2201 0.4497 0.3540
H109A H 1.2023 0.5190 0.3676
N52 N 1.5023(4) 0.6006(3) 0.9205(3)
H110 H 1.5377 0.5878 0.9020
H111 H 1.4494 0.5757 0.8905
C103 C 1.4852(5) 0.7403(4) 0.8612(4)
H112 H 1.4552 0.7553 0.8873
C104 C 1.5222(4) 0.6953(3) 0.8743(3)
C105 C 1.4903(5) 0.7651(4) 0.8102(4)
C106 C 1.5106(4) 0.5826(3) 0.9795(3)
H113 H 1.4714 0.5962 0.9991
H114 H 1.5679 0.6108 1.0124
C107 C 1.5343(5) 0.7408(4) 0.7719(4)
H115 H 1.5387 0.7559 0.7373
C108 C 1.5198(6) 0.6732(3) 0.9332(4)
H116 H 1.5744 0.7005 0.9702
H117 H 1.4767 0.6854 0.9482
C109 C 1.5664(5) 0.6741(4) 0.8356(4)
H118 H 1.5940 0.6445 0.8441
C110 C 1.5699(6) 0.6970(4) 0.7834(5)
H119 H 1.5982 0.6809 0.7562
C111 C 1.4944(5) 0.5071(3) 0.9690(3)
H120 H 1.4365 0.4786 0.9372
H121 H 1.5328 0.4928 0.9489
O37 O 1.4521(6) 0.8325(5) 0.7501(5)
C112 C 1.4537(8) 0.8125(7) 0.7934(8)
O38 O 1.4191(10) 0.8362(7) 0.8377(8)
N52A N 1.4977(4) 0.3994(3) 1.0795(3)
H110A H 1.4623 0.4122 1.0980
H111A H 1.5506 0.4243 1.1095
C103A C 1.5148(5) 0.2597(4) 1.1388(4)
H112A H 1.5448 0.2447 1.1127
C104A C 1.4778(4) 0.3047(3) 1.1257(3)
C105A C 1.5097(5) 0.2349(4) 1.1898(4)
C106A C 1.4894(4) 0.4174(3) 1.0205(3)
H113A H 1.5286 0.4038 1.0009
H114A H 1.4321 0.3892 0.9876
C107A C 1.4657(5) 0.2592(4) 1.2281(4)
H115A H 1.4613 0.2441 1.2627
C108A C 1.4802(6) 0.3268(3) 1.0668(4)
H116A H 1.4256 0.2995 1.0298
H117A H 1.5233 0.3146 1.0518
C109A C 1.4336(5) 0.3259(4) 1.1644(4)
H118A H 1.4060 0.3555 1.1559
C110A C 1.4301(6) 0.3030(4) 1.2166(5)
H119A H 1.4018 0.3191 1.2438
C111A C 1.5056(5) 0.4929(3) 1.0310(3)
H120A H 1.5635 0.5214 1.0628
H121A H 1.4672 0.5072 1.0511
O37A O 1.5479(6) 0.1675(5) 1.2499(5)
C112A C 1.5463(8) 0.1875(7) 1.2066(8)
O38A O 1.5809(10) 0.1638(7) 1.1623(8)
loop_
_geom_bond_atom_site_label_1
_geom_bond_atom_site_label_2
_geom_bond_site_symmetry_1
_geom_bond_site_symmetry_2
U1 O1 1_555 1_555
U2 O2 1_555 1_555
O1 C8 1_555 1_555
O2 U1 1_555 1_555
O3 U2 1_555 1_555
O4 C1 1_555 1_555
N1 H1 1_555 1_555
H2 N1 1_555 1_555
C1 O3 1_555 1_555
C2 N1 1_555 1_555
H3 C2 1_555 1_555
H4 C2 1_555 1_555
O5 C20 1_555 1_555
C3 H5 1_555 1_555
C4 H6 1_555 1_555
N2 H7 1_555 1_555
H8 N2 1_555 1_555
C5 C2 1_555 1_555
N3 H9 1_555 1_555
H10 N3 1_555 1_555
C6 C4 1_555 1_555
C7 H11 1_555 1_555
C8 O2 1_555 1_555
C9 H12 1_555 1_555
C10 C9 1_555 1_555
C11 C5 1_555 1_555
H13 C11 1_555 1_555
C12 N3 1_555 1_555
H14 C12 1_555 1_555
H15 C12 1_555 1_555
C13 C1 1_555 1_555
C14 C4 1_555 1_555
H16 C14 1_555 1_555
C15 C7 1_555 1_555
H17 C15 1_555 1_555
C16 C3 1_555 1_555
C17 C7 1_555 1_555
H18 C17 1_555 1_555
C18 N2 1_555 1_555
H19 C18 1_555 1_555
H20 C18 1_555 1_555
C19 C9 1_555 1_555
C20 C19 1_555 1_555
C21 N1 1_555 1_555
H21 C21 1_555 1_555
H22 C21 1_555 1_555
C22 N2 1_555 1_555
H23 C22 1_555 1_555
H24 C22 1_555 1_555
C23 C10 1_555 1_555
H25 C23 1_555 1_555
C24 C21 1_555 1_555
H26 C24 1_555 1_555
H27 C24 1_555 1_555
C25 N3 1_555 1_555
H28 C25 1_555 1_555
H29 C25 1_555 1_555
C26 C5 1_555 1_555
H30 C26 1_555 1_555
C27 C25 1_555 1_555
H31 C27 1_555 1_555
H32 C27 1_555 1_555
C28 C23 1_555 1_555
H33 C28 1_555 1_555
C29 C19 1_555 1_555
H34 C29 1_555 1_555
C30 C22 1_555 1_555
H35 C30 1_555 1_555
H36 C30 1_555 1_555
O6 U1 1_555 1_555
O7 U2 1_555 1_555
O8 U1 1_555 1_555
O9 U2 1_555 1_555
O10 U2 1_555 1_555
O11 U2 1_555 1_555
O12 U1 1_555 1_555
H37 O11 1_555 1_555
H38 O11 1_555 1_555
O13 C40 1_555 1_555
O14 C45 1_555 1_555
O15 C38 1_555 1_555
O16 C48 1_555 1_555
O17 C41 1_555 1_555
O18 C37 1_555 1_555
N4 C37 1_555 1_555
N5 C34 1_555 1_555
N6 C31 1_555 1_555
N7 C36 1_555 1_555
N8 C33 1_555 1_555
N9 C36 1_555 1_555
N10 C40 1_555 1_555
N11 C32 1_555 1_555
C31 H39 1_555 1_555
C32 N6 1_555 1_555
H40 C32 1_555 1_555
H41 C32 1_555 1_555
N12 C35 1_555 1_555
N13 C33 1_555 1_555
C33 H42 1_555 1_555
C34 N11 1_555 1_555
H43 C34 1_555 1_555
N14 C31 1_555 1_555
C35 C33 1_555 1_555
H44 C35 1_555 1_555
N15 C35 1_555 1_555
C36 C34 1_555 1_555
H45 C36 1_555 1_555
C37 N6 1_555 1_555
C38 N7 1_555 1_555
C39 N7 1_555 1_555
H46 C39 1_555 1_555
H47 C39 1_555 1_555
C40 N14 1_555 1_555
C41 N5 1_555 1_555
C42 N9 1_555 1_555
H48 C42 1_555 1_555
C43 N8 1_555 1_555
H49 C43 1_555 1_555
H50 C43 1_555 1_555
C44 N4 1_555 1_555
H51 C44 1_555 1_555
C45 N8 1_555 1_555
C46 N5 1_555 1_555
H52 C46 1_555 1_555
H53 C46 1_555 1_555
C47 N13 1_555 1_555
H54 C47 1_555 1_555
H55 C47 1_555 1_555
C48 N12 1_555 1_555
O19 C61 1_555 1_555
O20 C57 1_555 1_555
N16 C53 1_555 1_555
O21 C58 1_555 1_555
O22 C55 1_555 1_555
N17 C50 1_555 1_555
N18 C50 1_555 1_555
N19 C49 1_555 1_555
O23 C64 1_555 1_555
N20 C56 1_555 1_555
N21 C49 1_555 1_555
C49 H56 1_555 1_555
N22 C52 1_555 1_555
C50 H57 1_555 1_555
N23 C61 1_555 1_555
N24 C51 1_555 1_555
N25 C56 1_555 1_555
C51 N18 1_555 1_555
H58 C51 1_555 1_555
H59 C51 1_555 1_555
C52 N19 1_555 1_555
H60 C52 1_555 1_555
H61 C52 1_555 1_555
N26 C54 1_555 1_555
C53 N22 1_555 1_555
H62 C53 1_555 1_555
N27 C57 1_555 1_555
C54 N17 1_555 1_555
H63 C54 1_555 1_555
H64 C54 1_555 1_555
C55 N21 1_555 1_555
C56 H65 1_555 1_555
C57 N16 1_555 1_555
C58 N20 1_555 1_555
C59 N16 1_555 1_555
H66 C59 1_555 1_555
H67 C59 1_555 1_555
C60 N24 1_555 1_555
H68 C60 1_555 1_555
C61 N22 1_555 1_555
C62 N23 1_555 1_555
H69 C62 1_555 1_555
C63 N23 1_555 1_555
H70 C63 1_555 1_555
H71 C63 1_555 1_555
C64 N25 1_555 1_555
C65 N20 1_555 1_555
H72 C65 1_555 1_555
H73 C65 1_555 1_555
O24 C66 1_555 1_555
C66 N18 1_555 1_555
O25 C72 1_555 1_555
O26 C68 1_555 1_555
O27 C79 1_555 1_555
O28 C70 1_555 1_555
O29 C83 1_555 1_555
N28 C67 1_555 1_555
N29 C70 1_555 1_555
O30 C82 1_555 1_555
N30 C68 1_555 1_555
N31 C74 1_555 1_555
N32 C69 1_555 1_555
N33 C68 1_555 1_555
N34 C72 1_555 1_555
N35 C67 1_555 1_555
N36 C81 1_555 1_555
N37 C77 1_555 1_555
N38 C73 1_555 1_555
N39 C69 1_555 1_555
C67 H74 1_555 1_555
H75 C67 1_555 1_555
C69 H76 1_555 1_555
C70 N35 1_555 1_555
C71 N29 1_555 1_555
H77 C71 1_555 1_555
H78 C71 1_555 1_555
C72 N36A 1_555 1_555
C73 N34 1_555 1_555
H79 C73 1_555 1_555
C74 N34 1_555 1_555
H80 C74 1_555 1_555
H81 C74 1_555 1_555
C75 N30 1_555 1_555
H82 C75 1_555 1_555
C76 N29 1_555 1_555
H83 C76 1_555 1_555
C77 N38 1_555 1_555
H84 C77 1_555 1_555
H85 C77 1_555 1_555
C78 N31 1_555 1_555
H86 C78 1_555 1_555
C79 N28 1_555 1_555
C80 N33 1_555 1_555
H87 C80 1_555 1_555
H88 C80 1_555 1_555
C81 N28 1_555 1_555
H89 C81 1_555 1_555
C82 N31 1_555 1_555
C83 N37 1_555 1_555
C84 N30 1_555 1_555
H90 C84 1_555 1_555
H91 C84 1_555 1_555
O31 C87 1_555 1_555
O32 C97 1_555 1_555
O33 C88 1_555 1_555
O34 C99 1_555 1_555
O35 C100 1_555 1_555
N40 C86 1_555 1_555
N41 C92 1_555 1_555
N42 C85 1_555 1_555
N43 C90 1_555 1_555
C85 H92 1_555 1_555
N44 C93 1_555 1_555
C86 H93 1_555 1_555
H94 C86 1_555 1_555
N45 C91 1_555 1_555
N46 C88 1_555 1_555
N47 C86 1_555 1_555
N48 C85 1_555 1_555
C87 N42 1_555 1_555
C88 N40 1_555 1_555
C89 N46 1_555 1_555
H95 C89 1_555 1_555
H96 C89 1_555 1_555
C90 N42 1_555 1_555
H97 C90 1_555 1_555
H98 C90 1_555 1_555
C91 N47 1_555 1_555
H99 C91 1_555 1_555
C92 N40 1_555 1_555
H100 C92 1_555 1_555
N49 C95 1_555 1_555
C93 C91 1_555 1_555
H101 C93 1_555 1_555
C94 N41 1_555 1_555
H102 C94 1_555 1_555
H103 C94 1_555 1_555
C95 N44 1_555 1_555
H104 C95 1_555 1_555
H105 C95 1_555 1_555
C96 N49 1_555 1_555
H106 C96 1_555 1_555
C97 N49 1_555 1_555
C98 N43 1_555 1_555
H107 C98 1_555 1_555
C99 N44 1_555 1_555
C100 N41 1_555 1_555
O36 C101 1_555 1_555
N50 C93 1_555 1_555
N51 C96 1_555 1_555
C101 N47 1_555 1_555
C102 N50 1_555 1_555
H108 C102 1_555 1_555
H109 C102 1_555 1_555
N52 H110 1_555 1_555
H111 N52 1_555 1_555
C103 H112 1_555 1_555
C104 C103 1_555 1_555
C105 C103 1_555 1_555
C106 N52 1_555 1_555
H113 C106 1_555 1_555
H114 C106 1_555 1_555
C107 C105 1_555 1_555
H115 C107 1_555 1_555
C108 N52 1_555 1_555
H116 C108 1_555 1_555
H117 C108 1_555 1_555
C109 C104 1_555 1_555
H118 C109 1_555 1_555
C110 C107 1_555 1_555
H119 C110 1_555 1_555
C111 C106 1_555 1_555
H120 C111 1_555 1_555
H121 C111 1_555 1_555
O37 C112 1_555 1_555
C112 C105 1_555 1_555
O38 C112 1_555 1_555
O1A C8A 1_555 1_555
O2A C8A 1_555 1_555
N1A H1A 1_555 1_555
H2A N1A 1_555 1_555
C2A N1A 1_555 1_555
H3A C2A 1_555 1_555
H4A C2A 1_555 1_555
C4A H6A 1_555 1_555
C5A C2A 1_555 1_555
C6A C4A 1_555 1_555
C8A C6A 1_555 1_555
C11A C5A 1_555 1_555
H13A C11A 1_555 1_555
C14A C4A 1_555 1_555
H16A C14A 1_555 1_555
C21A N1A 1_555 1_555
H21A C21A 1_555 1_555
H22A C21A 1_555 1_555
C24A C24 1_555 1_555
H26A C24A 1_555 1_555
H27A C24A 1_555 1_555
C26A C5A 1_555 1_555
H30A C26A 1_555 1_555
O3A C1A 1_555 1_555
O4A C1A 1_555 1_555
C1A C13A 1_555 1_555
C3A H5A 1_555 1_555
N3A H9A 1_555 1_555
H10A N3A 1_555 1_555
C7A H11A 1_555 1_555
C12A N3A 1_555 1_555
H14A C12A 1_555 1_555
H15A C12A 1_555 1_555
C13A C3A 1_555 1_555
C15A C7A 1_555 1_555
H17A C15A 1_555 1_555
C16A C3A 1_555 1_555
C17A C7A 1_555 1_555
H18A C17A 1_555 1_555
C25A N3A 1_555 1_555
H28A C25A 1_555 1_555
H29A C25A 1_555 1_555
C27A C27 1_555 1_555
H31A C27A 1_555 1_555
H32A C27A 1_555 1_555
O5A C20A 1_555 1_555
N2A H7A 1_555 1_555
H8A N2A 1_555 1_555
C9A H12A 1_555 1_555
C10A C9A 1_555 1_555
C18A N2A 1_555 1_555
H19A C18A 1_555 1_555
H20A C18A 1_555 1_555
C19A C9A 1_555 1_555
C20A C19A 1_555 1_555
C22A N2A 1_555 1_555
H23A C22A 1_555 1_555
H24A C22A 1_555 1_555
C23A C10A 1_555 1_555
H25A C23A 1_555 1_555
C28A C23A 1_555 1_555
H33A C28A 1_555 1_555
C29A C19A 1_555 1_555
H34A C29A 1_555 1_555
C30A C30 1_555 1_555
H35A C30A 1_555 1_555
H36A C30A 1_555 1_555
O9A C20A 1_555 1_555
U1A O1A 1_555 1_555
U2A O2A 1_555 1_555
O6A U1A 1_555 1_555
O7A U2A 1_555 1_555
O8A U1A 1_555 1_555
O10A U2A 1_555 1_555
O11A U2A 1_555 1_555
O12A U1A 1_555 1_555
H37A O11A 1_555 1_555
H38A O11A 1_555 1_555
U1_2 O8A 1_555 1_555
U1_3 O4A 1_555 1_555
U1A_2 O4 1_555 1_555
U2A_2 O9A 1_555 1_555
U2A_3 O3A 1_555 1_555
O3A_2 U2A 1_555 1_555
O4_2 U1A 1_555 1_555
O4A_2 U1 1_555 1_555
O8_2 U1A 1_555 1_555
O8A_2 U1 1_555 1_555
O9A_2 U2A 1_555 1_555
O13A C40A 1_555 1_555
O14A C45A 1_555 1_555
O15A C38A 1_555 1_555
O16A C48A 1_555 1_555
O17A C41A 1_555 1_555
O18A C37A 1_555 1_555
N4A C43 1_555 1_555
N5A C34A 1_555 1_555
N6A C31A 1_555 1_555
N7A C36A 1_555 1_555
N8A C33A 1_555 1_555
N9A C36A 1_555 1_555
N10A C47 1_555 1_555
N11A C32A 1_555 1_555
C31A H39A 1_555 1_555
C32A N6A 1_555 1_555
H40A C32A 1_555 1_555
H41A C32A 1_555 1_555
N12A C35A 1_555 1_555
N13A C33A 1_555 1_555
C33A H42A 1_555 1_555
C34A N11A 1_555 1_555
H43A C34A 1_555 1_555
N14A C31A 1_555 1_555
C35A C33A 1_555 1_555
H44A C35A 1_555 1_555
N15A C35A 1_555 1_555
C36A C34A 1_555 1_555
H45A C36A 1_555 1_555
C37A N4A 1_555 1_555
C38A N7A 1_555 1_555
C39A N7A 1_555 1_555
H46A C39A 1_555 1_555
H47A C39A 1_555 1_555
C40A N10A 1_555 1_555
C41A N5A 1_555 1_555
C42A N9A 1_555 1_555
H48A C42A 1_555 1_555
C43A N4 1_555 1_555
H49A C43A 1_555 1_555
H50A C43A 1_555 1_555
C44A N4A 1_555 1_555
H51A C44A 1_555 1_555
C45A N8A 1_555 1_555
C46A N5A 1_555 1_555
H52A C46A 1_555 1_555
H53A C46A 1_555 1_555
C47A N10 1_555 1_555
H54A C47A 1_555 1_555
H55A C47A 1_555 1_555
C48A N12A 1_555 1_555
O19A C61A 1_555 1_555
O20A C57A 1_555 1_555
N16A C53A 1_555 1_555
O21A C58A 1_555 1_555
O22A C55A 1_555 1_555
N17A C55 1_555 1_555
N18A C50A 1_555 1_555
N19A C66 1_555 1_555
O23A C64A 1_555 1_555
N20A C56A 1_555 1_555
N21A C49A 1_555 1_555
C49A C50 1_555 1_555
H56A C49A 1_555 1_555
N22A C52A 1_555 1_555
C50A C49 1_555 1_555
H57A C50A 1_555 1_555
N23A C61A 1_555 1_555
N24A C51A 1_555 1_555
N25A C56A 1_555 1_555
C51A N18A 1_555 1_555
H58A C51A 1_555 1_555
H59A C51A 1_555 1_555
C52A N19A 1_555 1_555
H60A C52A 1_555 1_555
H61A C52A 1_555 1_555
N26A C54A 1_555 1_555
C53A N22A 1_555 1_555
H62A C53A 1_555 1_555
N27A C57A 1_555 1_555
C54A N17A 1_555 1_555
H63A C54A 1_555 1_555
H64A C54A 1_555 1_555
C55A N17 1_555 1_555
C56A H65A 1_555 1_555
C57A N16A 1_555 1_555
C58A N20A 1_555 1_555
C59A N16A 1_555 1_555
H66A C59A 1_555 1_555
H67A C59A 1_555 1_555
C60A N24A 1_555 1_555
H68A C60A 1_555 1_555
C61A N22A 1_555 1_555
C62A N23A 1_555 1_555
H69A C62A 1_555 1_555
C63A N23A 1_555 1_555
H70A C63A 1_555 1_555
H71A C63A 1_555 1_555
C64A N25A 1_555 1_555
C65A N20A 1_555 1_555
H72A C65A 1_555 1_555
H73A C65A 1_555 1_555
O24A C66A 1_555 1_555
C66A N19 1_555 1_555
O25A C72A 1_555 1_555
O26A C68A 1_555 1_555
O27A C79A 1_555 1_555
O28A C70A 1_555 1_555
O29A C83A 1_555 1_555
N28A C67A 1_555 1_555
N29A C70A 1_555 1_555
O30A C82A 1_555 1_555
N30A C68A 1_555 1_555
N31A C74A 1_555 1_555
N32A C69A 1_555 1_555
N33A C68A 1_555 1_555
N34A C72A 1_555 1_555
N35A C67A 1_555 1_555
N36A C81A 1_555 1_555
N37A C77A 1_555 1_555
N38A C79 1_555 1_555
N39A C69A 1_555 1_555
C67A H74A 1_555 1_555
H75A C67A 1_555 1_555
C69A H76A 1_555 1_555
C70A N35A 1_555 1_555
C71A N29A 1_555 1_555
H77A C71A 1_555 1_555
H78A C71A 1_555 1_555
C72A N36 1_555 1_555
C73A C81 1_555 1_555
H79A C73A 1_555 1_555
C74A N34A 1_555 1_555
H80A C74A 1_555 1_555
H81A C74A 1_555 1_555
C75A N30A 1_555 1_555
H82A C75A 1_555 1_555
C76A N29A 1_555 1_555
H83A C76A 1_555 1_555
C77A N38A 1_555 1_555
H84A C77A 1_555 1_555
H85A C77A 1_555 1_555
C78A N31A 1_555 1_555
H86A C78A 1_555 1_555
C79A N38 1_555 1_555
C80A N33A 1_555 1_555
H87A C80A 1_555 1_555
H88A C80A 1_555 1_555
C81A C73 1_555 1_555
H89A C81A 1_555 1_555
C82A N31A 1_555 1_555
C83A N37A 1_555 1_555
C84A N30A 1_555 1_555
H90A C84A 1_555 1_555
H91A C84A 1_555 1_555
O31A C87A 1_555 1_555
O32A C97A 1_555 1_555
O33A C88A 1_555 1_555
O34A C99A 1_555 1_555
O35A C100A 1_555 1_555
N40A C86A 1_555 1_555
N41A C92A 1_555 1_555
N42A C85A 1_555 1_555
N43A C90A 1_555 1_555
C85A C96 1_555 1_555
H92A C85A 1_555 1_555
N44A C93A 1_555 1_555
C86A H93A 1_555 1_555
H94A C86A 1_555 1_555
N45A C91A 1_555 1_555
N46A C88A 1_555 1_555
N47A C86A 1_555 1_555
N48A C97 1_555 1_555
C87A N51 1_555 1_555
C88A N40A 1_555 1_555
C89A N46A 1_555 1_555
H95A C89A 1_555 1_555
H96A C89A 1_555 1_555
C90A N42A 1_555 1_555
H97A C90A 1_555 1_555
H98A C90A 1_555 1_555
C91A N47A 1_555 1_555
H99A C91A 1_555 1_555
C92A N40A 1_555 1_555
H100A C92A 1_555 1_555
N49A C95A 1_555 1_555
C93A C91A 1_555 1_555
H101A C93A 1_555 1_555
C94A N41A 1_555 1_555
H102A C94A 1_555 1_555
H103A C94A 1_555 1_555
C95A N44A 1_555 1_555
H104A C95A 1_555 1_555
H105A C95A 1_555 1_555
C96A C85 1_555 1_555
H106A C96A 1_555 1_555
C97A N48 1_555 1_555
C98A N43A 1_555 1_555
H107A C98A 1_555 1_555
C99A N44A 1_555 1_555
C100A N41A 1_555 1_555
O36A C101A 1_555 1_555
N50A C93A 1_555 1_555
N51A C87 1_555 1_555
C101A N47A 1_555 1_555
C102A N50A 1_555 1_555
H108A C102A 1_555 1_555
H109A C102A 1_555 1_555
N52A H110A 1_555 1_555
H111A N52A 1_555 1_555
C103A H112A 1_555 1_555
C104A C103A 1_555 1_555
C105A C103A 1_555 1_555
C106A N52A 1_555 1_555
H113A C106A 1_555 1_555
H114A C106A 1_555 1_555
C107A C105A 1_555 1_555
H115A C107A 1_555 1_555
C108A N52A 1_555 1_555
H116A C108A 1_555 1_555
H117A C108A 1_555 1_555
C109A C104A 1_555 1_555
H118A C109A 1_555 1_555
C110A C107A 1_555 1_555
H119A C110A 1_555 1_555
C111A C111 1_555 1_555
H120A C111A 1_555 1_555
H121A C111A 1_555 1_555
O37A C112A 1_555 1_555
C112A C105A 1_555 1_555
O38A C112A 1_555 1_555
U2 O8 1_555 1_555
C3 C13 1_555 1_555
C6 C8 1_555 1_555
C6 C11 1_555 1_555
C10 C18 1_555 1_555
C12 C16 1_555 1_555
C13 C15 1_555 1_555
C14 C26 1_555 1_555
C16 C17 1_555 1_555
C20 O9 1_555 1_555
C28 C29 1_555 1_555
O8 U1A_2 1_555 1_555
N9 C41 1_555 1_555
N10 C44 1_555 1_555
N11 C38 1_555 1_555
C31 C44 1_555 1_555
N12 C39 1_555 1_555
N13 C48 1_555 1_555
N14 C46 1_555 1_555
N15 C42 1_555 1_555
N15 C45 1_555 1_555
N21 C59 1_555 1_555
N24 C58 1_555 1_555
N25 C63 1_555 1_555
N26 C60 1_555 1_555
N26 C64 1_555 1_555
C53 C62 1_555 1_555
N27 C62 1_555 1_555
N27 C65 1_555 1_555
C56 C60 1_555 1_555
N32 C71 1_555 1_555
N32 C82 1_555 1_555
N33 C76 1_555 1_555
N35 C75 1_555 1_555
N36 C84 1_555 1_555
N37 C78 1_555 1_555
N39 C80 1_555 1_555
N39 C83 1_555 1_555
C69 C78 1_555 1_555
C75 C76 1_555 1_555
N43 C100 1_555 1_555
N45 C94 1_555 1_555
N45 C99 1_555 1_555
N46 C98 1_555 1_555
N48 C89 1_555 1_555
C92 C98 1_555 1_555
N50 C101 1_555 1_555
N51 C102 1_555 1_555
C104 C108 1_555 1_555
C109 C110 1_555 1_555
O2A U1A 1_555 1_555
C6A C11A 1_555 1_555
C14A C26A 1_555 1_555
C21A C24A 1_555 1_555
C12A C16A 1_555 1_555
C13A C15A 1_555 1_555
C16A C17A 1_555 1_555
C25A C27A 1_555 1_555
C10A C18A 1_555 1_555
C22A C30A 1_555 1_555
C28A C29A 1_555 1_555
U2A O8A 1_555 1_555
U1_2 O8_2 1_555 1_555
U1A_2 O8A_2 1_555 1_555
N6A C37A 1_555 1_555
N8A C43A 1_555 1_555
N9A C41A 1_555 1_555
N10A C44A 1_555 1_555
N11A C38A 1_555 1_555
C31A C44A 1_555 1_555
N12A C39A 1_555 1_555
N13A C47A 1_555 1_555
N13A C48A 1_555 1_555
N14A C40A 1_555 1_555
N14A C46A 1_555 1_555
N15A C42A 1_555 1_555
N15A C45A 1_555 1_555
N17A C50A 1_555 1_555
N18A C66A 1_555 1_555
N19A C49A 1_555 1_555
N21A C55A 1_555 1_555
N21A C59A 1_555 1_555
N24A C58A 1_555 1_555
N25A C63A 1_555 1_555
N26A C60A 1_555 1_555
N26A C64A 1_555 1_555
C53A C62A 1_555 1_555
N27A C62A 1_555 1_555
N27A C65A 1_555 1_555
C56A C60A 1_555 1_555
N28A C79A 1_555 1_555
N28A C81A 1_555 1_555
N32A C71A 1_555 1_555
N32A C82A 1_555 1_555
N33A C76A 1_555 1_555
N34A C73A 1_555 1_555
N35A C75A 1_555 1_555
N36A C84A 1_555 1_555
N37A C78A 1_555 1_555
N38A C73A 1_555 1_555
N39A C80A 1_555 1_555
N39A C83A 1_555 1_555
C69A C78A 1_555 1_555
C75A C76A 1_555 1_555
N42A C87A 1_555 1_555
N43A C100A 1_555 1_555
C85A N48A 1_555 1_555
N45A C94A 1_555 1_555
N45A C99A 1_555 1_555
N46A C98A 1_555 1_555
N48A C89A 1_555 1_555
C92A C98A 1_555 1_555
N49A C96A 1_555 1_555
N49A C97A 1_555 1_555
C96A N51A 1_555 1_555
N50A C101A 1_555 1_555
N51A C102A 1_555 1_555
C104A C108A 1_555 1_555
C106A C111A 1_555 1_555
C109A C110A 1_555 1_555

#END
