
#######################################################################
#
#                 Cambridge Crystallographic Data Centre
#                                CCDC 
#
#######################################################################
#
# If this CIF has been generated from an entry in the Cambridge 
# Structural Database, then it will include bibliographic, chemical, 
# crystal, experimental, refinement or atomic coordinate data resulting 
# from the CCDC's data processing and validation procedures.
#
#######################################################################

data_NAVJAW
_chemical_formula_moiety         '(C8 H16 Co2 O13)n'
_symmetry_cell_setting           rhombohedral
_symmetry_space_group_name_H-M   'R -3'
_symmetry_Int_Tables_number      148
_space_group_name_Hall           '-R 3'
loop_
_symmetry_equiv_pos_site_id
_symmetry_equiv_pos_as_xyz
1 x,y,z
2 -y,x-y,z
3 -x+y,-x,z
4 2/3+x,1/3+y,1/3+z
5 2/3-y,1/3+x-y,1/3+z
6 2/3-x+y,1/3-x,1/3+z
7 1/3+x,2/3+y,2/3+z
8 1/3-y,2/3+x-y,2/3+z
9 1/3-x+y,2/3-x,2/3+z
10 -x,-y,-z
11 y,-x+y,-z
12 x-y,x,-z
13 1/3-x,2/3-y,2/3-z
14 1/3+y,2/3-x+y,2/3-z
15 1/3+x-y,2/3+x,2/3-z
16 2/3-x,1/3-y,1/3-z
17 2/3+y,1/3-x+y,1/3-z
18 2/3+x-y,1/3+x,1/3-z
_cell_length_a                   26.1102(19)
_cell_length_b                   26.1102(19)
_cell_length_c                   6.7192(10)
_cell_angle_alpha                90
_cell_angle_beta                 90
_cell_angle_gamma                120
_cell_volume                     3967.06
loop_
_atom_site_label
_atom_site_type_symbol
_atom_site_fract_x
_atom_site_fract_y
_atom_site_fract_z
H1 H 0.453(5) 0.123(5) 0.751(7)
H2 H 0.453(5) 0.147(4) 0.968(13)
Co1 Co 0.36892(5) 0.05204(5) 1.01489(16)
C1 C 0.2460(3) -0.0706(3) 1.0767(11)
C2 C 0.2072(3) -0.1199(3) 1.2136(11)
C3 C 0.2218(3) -0.1226(3) 1.4156(12)
C4 C 0.1535(3) -0.1639(3) 1.1384(12)
H3 H 0.1452 -0.1618 1.0049
O1 O 0.2956(2) -0.0293(2) 1.1384(8)
O2 O 0.2277(3) -0.0700(2) 0.9019(8)
O3 O 0.2731(2) -0.0839(2) 1.5041(8)
O4 O 0.4464(3) 0.1231(3) 0.8755(10)
H1L H -0.120(5) -0.456(5) 1.916(7)
H2L H -0.120(5) -0.480(4) 1.699(13)
Co1L Co -0.03559(5) -0.38537(5) 1.65178(16)
Co1E Co 0.34979(7) -0.03559(5) 1.34822(16)
Co1G Co 0.28129(5) -0.01645(7) 0.68156(16)
Co1G_2 Co 0.28129(5) -0.01645(7) 1.68156(16)
Co1Q Co -0.01645(7) -0.29775(5) 1.31844(16)
Co1J Co 0.05204(5) -0.31688(7) 1.98511(16)
Co1J_2 Co 0.05204(5) -0.31688(7) 0.98511(16)
C1L C 0.0873(3) -0.2627(3) 1.5900(11)
C2L C 0.1261(3) -0.2134(3) 1.4531(11)
C3L C 0.1115(3) -0.2107(3) 1.2511(12)
C4L C 0.1798(3) -0.1694(3) 1.5283(12)
H3L H 0.1881 -0.1715 1.6618
O1L O 0.0377(2) -0.3040(2) 1.5283(8)
O1G O 0.3626(2) -0.0084(3) 0.8051(8)
O1J O -0.0293(2) -0.3249(3) 1.8616(8)
O2L O 0.1056(3) -0.2633(2) 1.7648(8)
O2E O 0.3690(4) 0.1056(3) 1.2352(8)
O2Q O -0.0356(4) -0.4390(3) 1.4314(8)
O3L O 0.0602(2) -0.2494(2) 1.1626(8)
O3E O 0.3097(3) 0.0602(2) 0.8374(8)
O3G O 0.4172(2) 0.0237(3) 1.1708(8)
O3Q O 0.0237(3) -0.3936(2) 1.8292(8)
O3J O -0.0839(2) -0.3570(3) 1.4959(8)
O4L O -0.1131(3) -0.4564(3) 1.7912(10)
O5 O 0.4816(4) 0.1190(4) 0.4739(14)
O6 O 0.4900(9) 0.2206(7) 0.238(4)
O7 O 0.5688(8) 0.1523(9) 0.922(5)
O8 O 0.591(3) 0.277(4) 0.935(12)
O9 O 0.622(8) 0.259(5) 0.208(17)
loop_
_geom_bond_atom_site_label_1
_geom_bond_atom_site_label_2
_geom_bond_site_symmetry_1
_geom_bond_site_symmetry_2
H1 O4 1_555 1_555
H2 O4 1_555 1_555
Co1 O1 1_555 1_555
C1 C2 1_555 1_555
C2 C3 1_555 1_555
C3 O3 1_555 1_555
C4 C2 1_555 1_555
H3 C4 1_555 1_555
O1 C1 1_555 1_555
O2 C1 1_555 1_555
O3 Co1E 1_555 1_555
O4 Co1 1_555 1_555
H1L O4L 1_555 1_555
H2L O4L 1_555 1_555
Co1L O1L 1_555 1_555
Co1E O1 1_555 1_555
Co1G O2 1_555 1_555
Co1G_2 O3 1_555 1_555
Co1Q O1L 1_555 1_555
Co1J O1J 1_555 1_555
Co1J_2 O3L 1_555 1_555
C1L C2L 1_555 1_555
C2L C3L 1_555 1_555
C3L C4 1_555 1_555
C4L C3 1_555 1_555
H3L C4L 1_555 1_555
O1L C1L 1_555 1_555
O1G Co1 1_555 1_555
O1J Co1L 1_555 1_555
O2L Co1J 1_555 1_555
O2E Co1 1_555 1_555
O2Q Co1L 1_555 1_555
O3L Co1Q 1_555 1_555
O3E Co1 1_555 1_555
O3G Co1 1_555 1_555
O3Q Co1L 1_555 1_555
O3J Co1L 1_555 1_555
O4L Co1L 1_555 1_555
Co1E O3G 1_555 1_555
Co1G O1G 1_555 1_555
Co1G O3E 1_555 1_555
Co1Q O3J 1_555 1_555
Co1J O3Q 1_555 1_555
C1L O2L 1_555 1_555
C2L C4L 1_555 1_555
C3L O3L 1_555 1_555

#END
