
#######################################################################
#
#                 Cambridge Crystallographic Data Centre
#                                CCDC 
#
#######################################################################
#
# If this CIF has been generated from an entry in the Cambridge 
# Structural Database, then it will include bibliographic, chemical, 
# crystal, experimental, refinement or atomic coordinate data resulting 
# from the CCDC's data processing and validation procedures.
#
#######################################################################

data_SATNOR
_chemical_formula_moiety         '(C8 H2 Co2 O6)n'
_symmetry_cell_setting           rhombohedral
_symmetry_space_group_name_H-M   'R -3'
_symmetry_Int_Tables_number      148
_space_group_name_Hall           '-R 3'
loop_
_symmetry_equiv_pos_site_id
_symmetry_equiv_pos_as_xyz
1 x,y,z
2 -y,x-y,z
3 -x+y,-x,z
4 2/3+x,1/3+y,1/3+z
5 2/3-y,1/3+x-y,1/3+z
6 2/3-x+y,1/3-x,1/3+z
7 1/3+x,2/3+y,2/3+z
8 1/3-y,2/3+x-y,2/3+z
9 1/3-x+y,2/3-x,2/3+z
10 -x,-y,-z
11 y,-x+y,-z
12 x-y,x,-z
13 1/3-x,2/3-y,2/3-z
14 1/3+y,2/3-x+y,2/3-z
15 1/3+x-y,2/3+x,2/3-z
16 2/3-x,1/3-y,1/3-z
17 2/3+y,1/3-x+y,1/3-z
18 2/3+x-y,1/3+x,1/3-z
_cell_length_a                   25.885(3)
_cell_length_b                   25.885(3)
_cell_length_c                   6.8058(17)
_cell_angle_alpha                90
_cell_angle_beta                 90
_cell_angle_gamma                120
_cell_volume                     3949.17
loop_
_atom_site_label
_atom_site_type_symbol
_atom_site_fract_x
_atom_site_fract_y
_atom_site_fract_z
C1 C -0.0869(3) -0.3474(3) 0.4053(11)
C2 C -0.1264(4) -0.3394(4) 0.5463(11)
C3 C -0.1109(3) -0.3222(3) 0.7430(11)
C4 C -0.1818(4) -0.3502(3) 0.4749(11)
H1 H -0.1914 -0.3617 0.3445
O1 O -0.1042(2) -0.3653(3) 0.2334(7)
O2 O -0.0368(3) -0.3375(2) 0.4676(8)
O3 O -0.0590(2) -0.3112(2) 0.8280(7)
Co1 Co 0.02878(4) -0.35306(5) 0.35791(15)
C1O C -0.2464(3) -0.3193(3) 0.9280(11)
C2O C -0.2069(4) -0.3273(4) 0.7870(11)
C3O C -0.2224(3) -0.3445(3) 0.5903(11)
C4O C -0.1515(4) -0.3165(3) 0.8584(11)
H1O H -0.1419 -0.3050 0.9888
O1O O -0.2291(2) -0.3014(3) 1.0999(7)
O1J O -0.3653(3) -0.2611(4) 0.7666(7)
O1D O 0.0320(3) -0.4056(4) 0.5667(7)
O2O O -0.2965(3) -0.3292(2) 0.8657(8)
O2H O 0.0326(4) -0.2965(3) 0.1343(8)
O2N O -0.3660(4) -0.3701(3) 1.1991(8)
O3O O -0.2743(2) -0.3555(2) 0.5053(7)
O3D O -0.0221(2) -0.4145(3) 0.1613(7)
O3J O -0.3112(2) -0.2522(3) 1.1720(7)
O3N O -0.4145(3) -0.3923(2) 0.8387(7)
O3H O 0.0811(3) -0.2743(2) 0.4947(7)
Co1N Co -0.28483(6) -0.30455(4) 1.30876(15)
Co1H Co -0.04851(6) -0.36211(4) 0.02458(15)
Co1D Co 0.01973(5) -0.28483(6) 0.69124(15)
Co1H_2 Co -0.04851(6) -0.36211(4) 1.02458(15)
Co1O Co -0.36211(4) -0.31361(5) 0.97542(15)
Co1J Co -0.35306(5) -0.38184(6) 0.64209(15)
Co1N_2 Co -0.28483(6) -0.30455(4) 0.30876(15)
loop_
_geom_bond_atom_site_label_1
_geom_bond_atom_site_label_2
_geom_bond_site_symmetry_1
_geom_bond_site_symmetry_2
C1 C2 1_555 1_555
C2 C3 1_555 1_555
C3 O3 1_555 1_555
C4 C2 1_555 1_555
H1 C4 1_555 1_555
O1 C1 1_555 1_555
O2 C1 1_555 1_555
O3 Co1D 1_555 1_555
Co1 O2 1_555 1_555
C1O C2O 1_555 1_555
C2O C3O 1_555 1_555
C3O C4 1_555 1_555
C4O C3 1_555 1_555
H1O C4O 1_555 1_555
O1O C1O 1_555 1_555
O1J Co1O 1_555 1_555
O1D Co1 1_555 1_555
O2O C1O 1_555 1_555
O2H Co1 1_555 1_555
O2N Co1N 1_555 1_555
O3O C3O 1_555 1_555
O3D Co1 1_555 1_555
O3J Co1N 1_555 1_555
O3N Co1O 1_555 1_555
O3H Co1 1_555 1_555
Co1N O1O 1_555 1_555
Co1H O1 1_555 1_555
Co1D O2 1_555 1_555
Co1H_2 O3 1_555 1_555
Co1O O2O 1_555 1_555
Co1J O2O 1_555 1_555
Co1N_2 O3O 1_555 1_555
C2O C4O 1_555 1_555
O2H Co1H 1_555 1_555
O2N Co1O 1_555 1_555
O3O Co1J 1_555 1_555
O3D Co1H 1_555 1_555
O3J Co1O 1_555 1_555
O3N Co1J 1_555 1_555
O3H Co1D 1_555 1_555

#END
