
#######################################################################
#
#                 Cambridge Crystallographic Data Centre
#                                CCDC 
#
#######################################################################
#
# If this CIF has been generated from an entry in the Cambridge 
# Structural Database, then it will include bibliographic, chemical, 
# crystal, experimental, refinement or atomic coordinate data resulting 
# from the CCDC's data processing and validation procedures.
#
#######################################################################

data_IZEPEJ
_chemical_formula_moiety         'C48 H24 Cr16 O42'
_symmetry_cell_setting           cubic
_symmetry_space_group_name_H-M   'F m -3 m'
_symmetry_Int_Tables_number      225
_space_group_name_Hall           '-F 4 2 3'
loop_
_symmetry_equiv_pos_site_id
_symmetry_equiv_pos_as_xyz
1 x,y,z
2 -y,x,z
3 x,-y,-z
4 z,x,y
5 -x,-y,z
6 y,x,-z
7 -x,z,y
8 y,-x,z
9 -x,y,-z
10 -z,-x,y
11 -y,-x,-z
12 x,-z,y
13 z,-x,-y
14 -x,-z,-y
15 -z,x,-y
16 x,z,-y
17 y,z,x
18 z,-y,x
19 -z,y,x
20 z,y,-x
21 y,-z,-x
22 -z,-y,-x
23 -y,z,-x
24 -y,-z,x
25 x,1/2+y,1/2+z
26 -y,1/2+x,1/2+z
27 x,1/2-y,1/2-z
28 z,1/2+x,1/2+y
29 -x,1/2-y,1/2+z
30 y,1/2+x,1/2-z
31 -x,1/2+z,1/2+y
32 y,1/2-x,1/2+z
33 -x,1/2+y,1/2-z
34 -z,1/2-x,1/2+y
35 -y,1/2-x,1/2-z
36 x,1/2-z,1/2+y
37 z,1/2-x,1/2-y
38 -x,1/2-z,1/2-y
39 -z,1/2+x,1/2-y
40 x,1/2+z,1/2-y
41 y,1/2+z,1/2+x
42 z,1/2-y,1/2+x
43 -z,1/2+y,1/2+x
44 z,1/2+y,1/2-x
45 y,1/2-z,1/2-x
46 -z,1/2-y,1/2-x
47 -y,1/2+z,1/2-x
48 -y,1/2-z,1/2+x
49 1/2+x,y,1/2+z
50 1/2-y,x,1/2+z
51 1/2+x,-y,1/2-z
52 1/2+z,x,1/2+y
53 1/2-x,-y,1/2+z
54 1/2+y,x,1/2-z
55 1/2-x,z,1/2+y
56 1/2+y,-x,1/2+z
57 1/2-x,y,1/2-z
58 1/2-z,-x,1/2+y
59 1/2-y,-x,1/2-z
60 1/2+x,-z,1/2+y
61 1/2+z,-x,1/2-y
62 1/2-x,-z,1/2-y
63 1/2-z,x,1/2-y
64 1/2+x,z,1/2-y
65 1/2+y,z,1/2+x
66 1/2+z,-y,1/2+x
67 1/2-z,y,1/2+x
68 1/2+z,y,1/2-x
69 1/2+y,-z,1/2-x
70 1/2-z,-y,1/2-x
71 1/2-y,z,1/2-x
72 1/2-y,-z,1/2+x
73 1/2+x,1/2+y,z
74 1/2-y,1/2+x,z
75 1/2+x,1/2-y,-z
76 1/2+z,1/2+x,y
77 1/2-x,1/2-y,z
78 1/2+y,1/2+x,-z
79 1/2-x,1/2+z,y
80 1/2+y,1/2-x,z
81 1/2-x,1/2+y,-z
82 1/2-z,1/2-x,y
83 1/2-y,1/2-x,-z
84 1/2+x,1/2-z,y
85 1/2+z,1/2-x,-y
86 1/2-x,1/2-z,-y
87 1/2-z,1/2+x,-y
88 1/2+x,1/2+z,-y
89 1/2+y,1/2+z,x
90 1/2+z,1/2-y,x
91 1/2-z,1/2+y,x
92 1/2+z,1/2+y,-x
93 1/2+y,1/2-z,-x
94 1/2-z,1/2-y,-x
95 1/2-y,1/2+z,-x
96 1/2-y,1/2-z,x
97 -x,-y,-z
98 y,-x,-z
99 -x,y,z
100 -z,-x,-y
101 x,y,-z
102 -y,-x,z
103 x,-z,-y
104 -y,x,-z
105 x,-y,z
106 z,x,-y
107 y,x,z
108 -x,z,-y
109 -z,x,y
110 x,z,y
111 z,-x,y
112 -x,-z,y
113 -y,-z,-x
114 -z,y,-x
115 z,-y,-x
116 -z,-y,x
117 -y,z,x
118 z,y,x
119 y,-z,x
120 y,z,-x
121 -x,1/2-y,1/2-z
122 y,1/2-x,1/2-z
123 -x,1/2+y,1/2+z
124 -z,1/2-x,1/2-y
125 x,1/2+y,1/2-z
126 -y,1/2-x,1/2+z
127 x,1/2-z,1/2-y
128 -y,1/2+x,1/2-z
129 x,1/2-y,1/2+z
130 z,1/2+x,1/2-y
131 y,1/2+x,1/2+z
132 -x,1/2+z,1/2-y
133 -z,1/2+x,1/2+y
134 x,1/2+z,1/2+y
135 z,1/2-x,1/2+y
136 -x,1/2-z,1/2+y
137 -y,1/2-z,1/2-x
138 -z,1/2+y,1/2-x
139 z,1/2-y,1/2-x
140 -z,1/2-y,1/2+x
141 -y,1/2+z,1/2+x
142 z,1/2+y,1/2+x
143 y,1/2-z,1/2+x
144 y,1/2+z,1/2-x
145 1/2-x,-y,1/2-z
146 1/2+y,-x,1/2-z
147 1/2-x,y,1/2+z
148 1/2-z,-x,1/2-y
149 1/2+x,y,1/2-z
150 1/2-y,-x,1/2+z
151 1/2+x,-z,1/2-y
152 1/2-y,x,1/2-z
153 1/2+x,-y,1/2+z
154 1/2+z,x,1/2-y
155 1/2+y,x,1/2+z
156 1/2-x,z,1/2-y
157 1/2-z,x,1/2+y
158 1/2+x,z,1/2+y
159 1/2+z,-x,1/2+y
160 1/2-x,-z,1/2+y
161 1/2-y,-z,1/2-x
162 1/2-z,y,1/2-x
163 1/2+z,-y,1/2-x
164 1/2-z,-y,1/2+x
165 1/2-y,z,1/2+x
166 1/2+z,y,1/2+x
167 1/2+y,-z,1/2+x
168 1/2+y,z,1/2-x
169 1/2-x,1/2-y,-z
170 1/2+y,1/2-x,-z
171 1/2-x,1/2+y,z
172 1/2-z,1/2-x,-y
173 1/2+x,1/2+y,-z
174 1/2-y,1/2-x,z
175 1/2+x,1/2-z,-y
176 1/2-y,1/2+x,-z
177 1/2+x,1/2-y,z
178 1/2+z,1/2+x,-y
179 1/2+y,1/2+x,z
180 1/2-x,1/2+z,-y
181 1/2-z,1/2+x,y
182 1/2+x,1/2+z,y
183 1/2+z,1/2-x,y
184 1/2-x,1/2-z,y
185 1/2-y,1/2-z,-x
186 1/2-z,1/2+y,-x
187 1/2+z,1/2-y,-x
188 1/2-z,1/2-y,x
189 1/2-y,1/2+z,x
190 1/2+z,1/2+y,x
191 1/2+y,1/2-z,x
192 1/2+y,1/2+z,-x
_cell_length_a                   40.15
_cell_length_b                   40.15
_cell_length_c                   40.15
_cell_angle_alpha                90
_cell_angle_beta                 90
_cell_angle_gamma                90
_cell_volume                     64722.7
loop_
_atom_site_label
_atom_site_type_symbol
_atom_site_fract_x
_atom_site_fract_y
_atom_site_fract_z
Cr1 Cr 0.62974 0.31128 0.12974
O1 O 0.64898 0.35102 0.14898
O2 O 0.66896 0.29154 0.12584
O3 O 0.61121 0.27323 0.11121
O4 O 0.58634 0.32835 0.13229
C1 C 0.57161 0.34998 0.15002
C2 C 0.53513 0.35338 0.14662
C3 C 0.69917 0.30083 0.12485
C4 C 0.72515 0.27485 0.12305
C5 C 0.51742 0.33240 0.12498
C6 C 0.71637 0.24100 0.12291
H1 H 0.53144 0.31518 0.10723
H2 H 0.68897 0.23343 0.12279
O2WC O 0.70846 0.33104 0.12584
C6WC C 0.75900 0.28363 0.12291
H2WC H 0.76657 0.31103 0.12279
O2VF O 0.79154 0.16896 0.12584
C3XB C 0.80083 0.19917 0.12485
C4XB C 0.77485 0.22515 0.12305
C6VF C 0.74100 0.21637 0.12291
H2VF H 0.73343 0.18897 0.12279
O2XB O 0.83104 0.20846 0.12584
C6XB C 0.78363 0.25900 0.12291
H2XB H 0.81103 0.26657 0.12279
O4TC O 0.41366 0.32835 0.13229
C1KA C 0.42839 0.34998 0.15002
C2KA C 0.46487 0.35338 0.14662
C5TC C 0.48258 0.33240 0.12498
H1TC H 0.46856 0.31518 0.10723
O4VD O 0.58634 0.36771 0.17165
C5VD C 0.51742 0.37502 0.16760
H1VD H 0.53144 0.39277 0.18482
O4KA O 0.41366 0.36771 0.17165
C5KA C 0.48258 0.37502 0.16760
H1KA H 0.46856 0.39277 0.18482
Cr1KA Cr 0.37026 0.37026 0.18872
O1G O 0.35102 0.35102 0.14898
O3KA O 0.38879 0.38879 0.22677
Cr1UA Cr 0.68872 0.37026 0.12974
O2UA O 0.70846 0.37416 0.16896
O3UA O 0.72677 0.38879 0.11121
O4UA O 0.67165 0.36771 0.08634
C1UA C 0.65002 0.34998 0.07161
C2UA C 0.64662 0.35338 0.03513
C3UA C 0.69917 0.37515 0.19917
C4UA C 0.72515 0.37695 0.22515
C5UA C 0.66760 0.37502 0.01742
C6UA C 0.75900 0.37709 0.21637
H1UA H 0.68482 0.39277 0.03144
H2UA H 0.76657 0.37721 0.18897
O2VD O 0.66896 0.37416 0.20846
C6VD C 0.71637 0.37709 0.25900
H2VD H 0.68897 0.37721 0.26657
O2AG O 0.83104 0.37416 0.29154
C3NC C 0.80083 0.37515 0.30083
C4NC C 0.77485 0.37695 0.27485
C6AG C 0.78363 0.37709 0.24100
H2AG H 0.81103 0.37721 0.23343
O2NC O 0.79154 0.37416 0.33104
C6NC C 0.74100 0.37709 0.28363
H2NC H 0.73343 0.37721 0.31103
O4FE O 0.67165 0.36771 -0.08634
C1OB C 0.65002 0.34998 -0.07161
C2OB C 0.64662 0.35338 -0.03513
C5FE C 0.66760 0.37502 -0.01742
H1FE H 0.68482 0.39277 -0.03144
O4IF O 0.63229 0.32835 0.08634
C5IF C 0.62498 0.33240 0.01742
H1IF H 0.60723 0.31518 0.03144
O4OB O 0.63229 0.32835 -0.08634
C5OB C 0.62498 0.33240 -0.01742
H1OB H 0.60723 0.31518 -0.03144
Cr1HB Cr 0.62974 0.37026 0.18872
O2HB O 0.62584 0.33104 0.20846
O3HB O 0.61121 0.38879 0.22677
O4HB O 0.63229 0.41366 0.17165
C1HB C 0.65002 0.42839 0.15002
C2HB C 0.64662 0.46487 0.14662
C3HB C 0.62485 0.30083 0.19917
C4HB C 0.62305 0.27485 0.22515
C5HB C 0.62498 0.48258 0.16760
C6HB C 0.62291 0.28363 0.25900
H1HB H 0.60723 0.46856 0.18482
H2HB H 0.62279 0.31103 0.26657
O2IF O 0.62584 0.29154 0.16896
C6IF C 0.62291 0.24100 0.21637
H2IF H 0.62279 0.23343 0.18897
O2DG O 0.62584 0.20846 0.33104
C3WB C 0.62485 0.19917 0.30083
C4WB C 0.62305 0.22515 0.27485
C6DG C 0.62291 0.25900 0.28363
H2DG H 0.62279 0.26657 0.31103
O2WB O 0.62584 0.16896 0.29154
C6WB C 0.62291 0.21637 0.24100
H2WB H 0.62279 0.18897 0.23343
O4WE O 0.63229 0.58634 0.17165
C1A C 0.65002 0.57161 0.15002
C2A C 0.64662 0.53513 0.14662
C5WE C 0.62498 0.51742 0.16760
H1WE H 0.60723 0.53144 0.18482
O4WC O 0.67165 0.41366 0.13229
C5WC C 0.66760 0.48258 0.12498
H1WC H 0.68482 0.46856 0.10723
O4A O 0.67165 0.58634 0.13229
C5A C 0.66760 0.51742 0.12498
H1A H 0.68482 0.53144 0.10723
Cr1NB Cr 0.37026 0.31128 0.12974
O3NB O 0.38879 0.27323 0.11121
Cr1LB Cr 0.81128 0.12974 0.12974
O3LB O 0.77323 0.11121 0.11121
Cr1A Cr 0.68872 0.62974 0.12974
Cr1G Cr 0.31128 0.37026 0.12974
Cr1I Cr 0.87026 0.37026 0.31128
Cr1J Cr 0.68872 0.37026 -0.12974
Cr1Z Cr 0.62974 0.18872 0.37026
Cr1MA Cr 0.62974 0.62974 0.18872
Cr1OB Cr 0.62974 0.31128 -0.12974
Cr1WB Cr 0.62974 0.12974 0.31128
Cr1XB Cr 0.87026 0.18872 0.12974
Cr1NC Cr 0.81128 0.37026 0.37026
O1LA O 0.85102 0.14898 0.14898
O2KA O 0.33104 0.37416 0.20846
O2LB O 0.79154 0.12584 0.16896
O2NB O 0.37416 0.29154 0.16896
O2TC O 0.33104 0.29154 0.12584
O2QE O 0.37416 0.33104 0.20846
O4LB O 0.82835 0.13229 0.08634
O4NB O 0.36771 0.32835 0.08634
O4QE O 0.36771 0.41366 0.17165
O4VF O 0.82835 0.08634 0.13229
loop_
_geom_bond_atom_site_label_1
_geom_bond_atom_site_label_2
_geom_bond_site_symmetry_1
_geom_bond_site_symmetry_2
Cr1 O1 1_555 1_555
O1 Cr1UA 1_555 1_555
O2 Cr1 1_555 1_555
O3 Cr1 1_555 1_555
O4 Cr1 1_555 1_555
C1 O4 1_555 1_555
C2 C1 1_555 1_555
C3 O2 1_555 1_555
C4 C3 1_555 1_555
C5 C2 1_555 1_555
C6 C4 1_555 1_555
H1 C5 1_555 1_555
H2 C6 1_555 1_555
O2WC C3 1_555 1_555
C6WC C4 1_555 1_555
H2WC C6WC 1_555 1_555
O2VF C3XB 1_555 1_555
C3XB C4XB 1_555 1_555
C4XB C6VF 1_555 1_555
C6VF C6 1_555 1_555
H2VF C6VF 1_555 1_555
O2XB C3XB 1_555 1_555
C6XB C6WC 1_555 1_555
H2XB C6XB 1_555 1_555
O4TC C1KA 1_555 1_555
C1KA C2KA 1_555 1_555
C2KA C5TC 1_555 1_555
C5TC C5 1_555 1_555
H1TC C5TC 1_555 1_555
O4VD C1 1_555 1_555
C5VD C2 1_555 1_555
H1VD C5VD 1_555 1_555
O4KA C1KA 1_555 1_555
C5KA C2KA 1_555 1_555
H1KA C5KA 1_555 1_555
Cr1KA O4KA 1_555 1_555
O1G Cr1KA 1_555 1_555
O3KA Cr1KA 1_555 1_555
Cr1UA O2WC 1_555 1_555
O2UA Cr1UA 1_555 1_555
O3UA Cr1UA 1_555 1_555
O4UA Cr1UA 1_555 1_555
C1UA O4UA 1_555 1_555
C2UA C1UA 1_555 1_555
C3UA O2UA 1_555 1_555
C4UA C3UA 1_555 1_555
C5UA C2UA 1_555 1_555
C6UA C4UA 1_555 1_555
H1UA C5UA 1_555 1_555
H2UA C6UA 1_555 1_555
O2VD C3UA 1_555 1_555
C6VD C4UA 1_555 1_555
H2VD C6VD 1_555 1_555
O2AG C3NC 1_555 1_555
C3NC C4NC 1_555 1_555
C4NC C6AG 1_555 1_555
C6AG C6UA 1_555 1_555
H2AG C6AG 1_555 1_555
O2NC C3NC 1_555 1_555
C6NC C6VD 1_555 1_555
H2NC C6NC 1_555 1_555
O4FE C1OB 1_555 1_555
C1OB C2OB 1_555 1_555
C2OB C5FE 1_555 1_555
C5FE C5UA 1_555 1_555
H1FE C5FE 1_555 1_555
O4IF Cr1 1_555 1_555
C5IF C2UA 1_555 1_555
H1IF C5IF 1_555 1_555
O4OB C1OB 1_555 1_555
C5OB C2OB 1_555 1_555
H1OB C5OB 1_555 1_555
Cr1HB O1 1_555 1_555
O2HB Cr1HB 1_555 1_555
O3HB Cr1HB 1_555 1_555
O4HB Cr1HB 1_555 1_555
C1HB O4HB 1_555 1_555
C2HB C1HB 1_555 1_555
C3HB O2HB 1_555 1_555
C4HB C3HB 1_555 1_555
C5HB C2HB 1_555 1_555
C6HB C4HB 1_555 1_555
H1HB C5HB 1_555 1_555
H2HB C6HB 1_555 1_555
O2IF Cr1 1_555 1_555
C6IF C4HB 1_555 1_555
H2IF C6IF 1_555 1_555
O2DG C3WB 1_555 1_555
C3WB C4WB 1_555 1_555
C4WB C6DG 1_555 1_555
C6DG C6HB 1_555 1_555
H2DG C6DG 1_555 1_555
O2WB C3WB 1_555 1_555
C6WB C6IF 1_555 1_555
H2WB C6WB 1_555 1_555
O4WE C1A 1_555 1_555
C1A C2A 1_555 1_555
C2A C5WE 1_555 1_555
C5WE C5HB 1_555 1_555
H1WE C5WE 1_555 1_555
O4WC Cr1UA 1_555 1_555
C5WC C2HB 1_555 1_555
H1WC C5WC 1_555 1_555
O4A C1A 1_555 1_555
C5A C2A 1_555 1_555
H1A C5A 1_555 1_555
Cr1NB O4TC 1_555 1_555
O3NB Cr1NB 1_555 1_555
Cr1LB O2VF 1_555 1_555
O3LB Cr1LB 1_555 1_555
Cr1A O4A 1_555 1_555
Cr1G O1G 1_555 1_555
Cr1I O2AG 1_555 1_555
Cr1J O4FE 1_555 1_555
Cr1Z O2DG 1_555 1_555
Cr1MA O4WE 1_555 1_555
Cr1OB O4OB 1_555 1_555
Cr1WB O2WB 1_555 1_555
Cr1XB O2XB 1_555 1_555
Cr1NC O2NC 1_555 1_555
O1LA Cr1LB 1_555 1_555
O2KA Cr1KA 1_555 1_555
O2LB Cr1LB 1_555 1_555
O2NB Cr1NB 1_555 1_555
O2TC Cr1NB 1_555 1_555
O2QE Cr1KA 1_555 1_555
O4LB Cr1LB 1_555 1_555
O4NB Cr1NB 1_555 1_555
O4QE Cr1KA 1_555 1_555
O4VF Cr1LB 1_555 1_555
C4XB C6XB 1_555 1_555
O4VD Cr1HB 1_555 1_555
C5VD C5KA 1_555 1_555
O1G Cr1NB 1_555 1_555
C1UA O4IF 1_555 1_555
O2VD Cr1HB 1_555 1_555
C4NC C6NC 1_555 1_555
C5IF C5OB 1_555 1_555
C1HB O4WC 1_555 1_555
C3HB O2IF 1_555 1_555
C4WB C6WB 1_555 1_555
C5WC C5A 1_555 1_555
Cr1XB O1LA 1_555 1_555

#END
