
#######################################################################
#
#                 Cambridge Crystallographic Data Centre
#                                CCDC 
#
#######################################################################
#
# If this CIF has been generated from an entry in the Cambridge 
# Structural Database, then it will include bibliographic, chemical, 
# crystal, experimental, refinement or atomic coordinate data resulting 
# from the CCDC's data processing and validation procedures.
#
#######################################################################

data_IZEPAF
_chemical_formula_moiety         'C24 H12 Cr9 O24'
_symmetry_cell_setting           cubic
_symmetry_space_group_name_H-M   'P m -3 m'
_symmetry_Int_Tables_number      221
_space_group_name_Hall           '-P 4 2 3'
loop_
_symmetry_equiv_pos_site_id
_symmetry_equiv_pos_as_xyz
1 x,y,z
2 -y,x,z
3 x,-y,-z
4 z,x,y
5 -x,-y,z
6 y,x,-z
7 -x,z,y
8 y,-x,z
9 -x,y,-z
10 -z,-x,y
11 -y,-x,-z
12 x,-z,y
13 z,-x,-y
14 -x,-z,-y
15 -z,x,-y
16 x,z,-y
17 y,z,x
18 z,-y,x
19 -z,y,x
20 z,y,-x
21 y,-z,-x
22 -z,-y,-x
23 -y,z,-x
24 -y,-z,x
25 -x,-y,-z
26 y,-x,-z
27 -x,y,z
28 -z,-x,-y
29 x,y,-z
30 -y,-x,z
31 x,-z,-y
32 -y,x,-z
33 x,-y,z
34 z,x,-y
35 y,x,z
36 -x,z,-y
37 -z,x,y
38 x,z,y
39 z,-x,y
40 -x,-z,y
41 -y,-z,-x
42 -z,y,-x
43 z,-y,-x
44 -z,-y,x
45 -y,z,x
46 z,y,x
47 y,-z,x
48 y,z,-x
_cell_length_a                   28.52
_cell_length_b                   28.52
_cell_length_c                   28.52
_cell_angle_alpha                90
_cell_angle_beta                 90
_cell_angle_gamma                90
_cell_volume                     23197.9
loop_
_atom_site_label
_atom_site_type_symbol
_atom_site_fract_x
_atom_site_fract_y
_atom_site_fract_z
Cr1 Cr 0.75507 0.00000 0.75507
Cr2 Cr 0.68475 0.06038 0.68475
O1 O 0.70784 0.00000 0.70784
O2 O 0.80077 0.00000 0.80077
O3 O 0.66224 0.11663 0.66224
O4 O 0.67863 0.08494 0.74146
O5 O 0.72439 0.04493 0.79015
O6 O 0.68895 0.04108 0.62257
C1 C 0.68906 0.00000 0.60045
C2 C 0.68976 0.00000 0.54909
C3 C 0.66694 0.15484 0.81057
C4 C 0.69622 0.07770 0.78146
C5 C 0.68652 0.11087 0.81961
C6 C 0.70414 0.10146 0.86421
C7 C 0.68982 -0.04217 0.52437
H1 H 0.65095 0.16255 0.77499
H2 H 0.71865 0.06542 0.87265
H3 H 0.68987 -0.07674 0.54402
O4DA O 0.67863 0.25854 0.91506
O5DA O 0.72439 0.20985 0.95507
C3DA C 0.66694 0.18943 0.84516
C4DA C 0.69622 0.21854 0.92230
C5DA C 0.68652 0.18039 0.88913
C6DA C 0.70414 0.13579 0.89854
H1DA H 0.65095 0.22501 0.83745
H2DA H 0.71865 0.12735 0.93458
O6BA O 0.68895 0.04108 0.37743
C1B C 0.68906 0.00000 0.39955
C2B C 0.68976 0.00000 0.45091
C7BA C 0.68982 -0.04217 0.47563
H3BA H 0.68987 -0.07674 0.45598
O6FA O 0.68895 -0.04108 0.62257
C7FA C 0.68982 0.04217 0.52437
H3FA H 0.68987 0.07674 0.54402
O6B O 0.68895 -0.04108 0.37743
C7B C 0.68982 0.04217 0.47563
H3B H 0.68987 0.07674 0.45598
Cr2B Cr 0.68475 -0.06038 0.31525
O3B O 0.66224 -0.11663 0.33776
O4Q O 0.74146 -0.08494 0.67863
O5Q O 0.79015 -0.04493 0.72439
C3Q C 0.81057 -0.15484 0.66694
C4Q C 0.78146 -0.07770 0.69622
C5Q C 0.81961 -0.11087 0.68652
C6Q C 0.86421 -0.10146 0.70414
H1Q H 0.77499 -0.16255 0.65095
H2Q H 0.87265 -0.06542 0.71865
O4RA O 0.91506 -0.25854 0.67863
O5RA O 0.95507 -0.20985 0.72439
C3RA C 0.84516 -0.18943 0.66694
C4RA C 0.92230 -0.21854 0.69622
C5RA C 0.88913 -0.18039 0.68652
C6RA C 0.89854 -0.13579 0.70414
H1RA H 0.83745 -0.22501 0.65095
H2RA H 0.93458 -0.12735 0.71865
Cr1A Cr 1.00000 -0.24493 0.75507
Cr1K Cr 0.75507 0.24493 1.00000
Cr2A Cr 0.93962 -0.31525 0.68475
Cr2L Cr 0.68475 0.31525 0.93962
Cr2Q Cr 0.68475 -0.06038 0.68475
Cr2S Cr 0.68475 0.06038 0.31525
O1B O 0.70784 0.00000 0.29216
O4B O 0.67863 -0.08494 0.25854
O4PA O 0.74146 -0.08494 0.32137
O4SA O 0.74146 0.08494 0.67863
O5FA O 0.72439 -0.04493 0.79015
O5SA O 0.79015 0.04493 0.72439
O6PA O 0.62257 -0.04108 0.31105
O6SA O 0.62257 0.04108 0.68895
loop_
_geom_bond_atom_site_label_1
_geom_bond_atom_site_label_2
_geom_bond_site_symmetry_1
_geom_bond_site_symmetry_2
Cr1 O1 1_555 1_555
Cr2 O1 1_555 1_555
O1 Cr2Q 1_555 1_555
O2 Cr1 1_555 1_555
O3 Cr2 1_555 1_555
O4 Cr2 1_555 1_555
O5 Cr1 1_555 1_555
O6 Cr2 1_555 1_555
C1 O6 1_555 1_555
C2 C1 1_555 1_555
C3 C5 1_555 1_555
C4 O4 1_555 1_555
C5 C4 1_555 1_555
C6 C5 1_555 1_555
C7 C2 1_555 1_555
H1 C3 1_555 1_555
H2 C6 1_555 1_555
H3 C7 1_555 1_555
O4DA C4DA 1_555 1_555
O5DA C4DA 1_555 1_555
C3DA C3 1_555 1_555
C4DA C5DA 1_555 1_555
C5DA C3DA 1_555 1_555
C6DA C6 1_555 1_555
H1DA C3DA 1_555 1_555
H2DA C6DA 1_555 1_555
O6BA C1B 1_555 1_555
C1B C2B 1_555 1_555
C2B C7BA 1_555 1_555
C7BA C7 1_555 1_555
H3BA C7BA 1_555 1_555
O6FA C1 1_555 1_555
C7FA C2 1_555 1_555
H3FA C7FA 1_555 1_555
O6B C1B 1_555 1_555
C7B C2B 1_555 1_555
H3B C7B 1_555 1_555
Cr2B O6B 1_555 1_555
O3B Cr2B 1_555 1_555
O4Q C4Q 1_555 1_555
O5Q Cr1 1_555 1_555
C3Q C5Q 1_555 1_555
C4Q O5Q 1_555 1_555
C5Q C4Q 1_555 1_555
C6Q C5Q 1_555 1_555
H1Q C3Q 1_555 1_555
H2Q C6Q 1_555 1_555
O4RA C4RA 1_555 1_555
O5RA C4RA 1_555 1_555
C3RA C3Q 1_555 1_555
C4RA C5RA 1_555 1_555
C5RA C3RA 1_555 1_555
C6RA C6Q 1_555 1_555
H1RA C3RA 1_555 1_555
H2RA C6RA 1_555 1_555
Cr1A O5RA 1_555 1_555
Cr1K O5DA 1_555 1_555
Cr2A O4RA 1_555 1_555
Cr2L O4DA 1_555 1_555
Cr2Q O6FA 1_555 1_555
Cr2S O6BA 1_555 1_555
O1B Cr2B 1_555 1_555
O4B Cr2B 1_555 1_555
O4PA Cr2B 1_555 1_555
O4SA Cr2 1_555 1_555
O5FA Cr1 1_555 1_555
O5SA Cr1 1_555 1_555
O6PA Cr2B 1_555 1_555
O6SA Cr2 1_555 1_555
O5 C4 1_555 1_555
C5DA C6DA 1_555 1_555
C7FA C7B 1_555 1_555
O4Q Cr2Q 1_555 1_555
C5RA C6RA 1_555 1_555
Cr2S O1B 1_555 1_555

#END
