
#######################################################################
#
#                 Cambridge Crystallographic Data Centre
#                                CCDC 
#
#######################################################################
#
# If this CIF has been generated from an entry in the Cambridge 
# Structural Database, then it will include bibliographic, chemical, 
# crystal, experimental, refinement or atomic coordinate data resulting 
# from the CCDC's data processing and validation procedures.
#
#######################################################################

data_OTUXUX
_chemical_formula_moiety         '(C30 H22 Cd1 N6 O6)n'
_symmetry_cell_setting           monoclinic
_symmetry_space_group_name_H-M   'C 2/c'
_symmetry_Int_Tables_number      15
_space_group_name_Hall           '-C 2yc'
loop_
_symmetry_equiv_pos_site_id
_symmetry_equiv_pos_as_xyz
1 x,y,z
2 -x,y,1/2-z
3 1/2+x,1/2+y,z
4 1/2-x,1/2+y,1/2-z
5 -x,-y,-z
6 x,-y,1/2+z
7 1/2-x,1/2-y,-z
8 1/2+x,1/2-y,1/2+z
_cell_length_a                   20.3856(5)
_cell_length_b                   13.8293(3)
_cell_length_c                   13.1563(4)
_cell_angle_alpha                90
_cell_angle_beta                 103.632(3)
_cell_angle_gamma                90
_cell_volume                     3604.52
loop_
_atom_site_label
_atom_site_type_symbol
_atom_site_fract_x
_atom_site_fract_y
_atom_site_fract_z
Cd1 Cd 0.2500 0.2500 -0.5000
O1 O 0.2328(2) -0.1587(3) -0.1504(3)
O2 O 0.1489(2) -0.1983(3) -0.2858(3)
C1 C 0.1972(3) -0.1468(5) -0.2415(4)
N1 N 0.2448(3) 0.1016(4) -0.4091(4)
C2 C 0.2153(3) -0.0612(4) -0.3014(4)
C3 C 0.2795(4) 0.0814(5) -0.3115(5)
H1 H 0.3137 0.1233 -0.2792
C4 C 0.1800(4) -0.0403(5) -0.4015(5)
H2 H 0.1450 -0.0804 -0.4351
N2 N 0.1340(3) 0.2613(4) -0.5035(4)
C5 C 0.2667(4) 0.0018(5) -0.2572(5)
H3 H 0.2928 -0.0099 -0.1902
C6 C -0.2163(3) 0.2047(7) -0.4093(5)
H4 H -0.1938 0.1747 -0.3477
C7 C 0.0857(3) 0.2504(5) -0.5918(5)
H5 H 0.0989 0.2446 -0.6546
C8 C -0.2148(3) 0.3030(6) -0.5574(5)
H6 H -0.1911 0.3397 -0.5961
N3 N -0.0723(3) 0.2533(4) -0.5096(4)
H7 H -0.0975 0.2450 -0.5713
O3 O -0.0770(3) 0.2683(6) -0.3395(4)
C9 C 0.1126(3) 0.2705(5) -0.4151(5)
H8 H 0.1450 0.2794 -0.3529
C10 C -0.0031(3) 0.2570(4) -0.5025(5)
C11 C 0.0454(3) 0.2674(6) -0.4105(5)
H9 H 0.0333 0.2723 -0.3468
C12 C -0.1803(3) 0.2572(5) -0.4676(6)
C13 C 0.0186(3) 0.2475(5) -0.5945(5)
H10 H -0.0128 0.2392 -0.6579
C14 C -0.1051(3) 0.2612(6) -0.4305(6)
C15 C 0.1967(4) 0.0407(5) -0.4522(5)
H11 H 0.1725 0.0526 -0.5203
Cd1_2 Cd -0.7500 0.2500 -0.5000
Cd1C Cd 0.2500 -0.2500 0.0000
Cd1C_2 Cd 0.2500 0.7500 -1.0000
O1E O 0.2328(2) 0.1587(3) -0.6504(3)
O1C O 0.2672(2) 0.3413(3) -0.3496(3)
O1F O 0.2672(2) 0.6587(3) -0.8496(3)
O2F O 0.3511(2) 0.6983(3) -0.7142(3)
C1F C 0.3028(3) 0.6468(5) -0.7585(4)
N1F N 0.2552(3) 0.3984(4) -0.5909(4)
C2F C 0.2847(3) 0.5612(4) -0.6986(4)
C3F C 0.2205(4) 0.4186(5) -0.6885(5)
H1F H 0.1863 0.3767 -0.7208
C4F C 0.3200(4) 0.5403(5) -0.5985(5)
H2F H 0.3550 0.5804 -0.5649
N2F N -0.6340(3) 0.2387(4) -0.4965(4)
N2F_2 N 0.3660(3) 0.2387(4) -0.4965(4)
C5F C 0.2333(4) 0.4982(5) -0.7428(5)
H3F H 0.2072 0.5099 -0.8098
C6F C -0.2837(3) 0.2953(7) -0.5907(5)
H4F H -0.3062 0.3253 -0.6523
C7F C -0.5857(3) 0.2496(5) -0.4082(5)
H5F H -0.5989 0.2554 -0.3454
C8F C -0.2852(3) 0.1970(6) -0.4426(5)
H6F H -0.3089 0.1603 -0.4039
N3F N -0.4277(3) 0.2467(4) -0.4904(4)
H7F H -0.4025 0.2550 -0.4287
O3F O -0.4230(3) 0.2317(6) -0.6605(4)
C9F C -0.6126(3) 0.2295(5) -0.5849(5)
H8F H -0.6450 0.2206 -0.6471
C10F C -0.4969(3) 0.2430(4) -0.4975(5)
C11F C -0.5454(3) 0.2326(6) -0.5895(5)
H9F H -0.5333 0.2277 -0.6532
C12F C -0.3197(3) 0.2428(5) -0.5324(6)
C13F C -0.5186(3) 0.2525(5) -0.4055(5)
H10F H -0.4872 0.2608 -0.3421
C14F C -0.3949(3) 0.2388(6) -0.5695(6)
C15F C 0.3033(4) 0.4593(5) -0.5478(5)
H11F H 0.3275 0.4474 -0.4797
loop_
_geom_bond_atom_site_label_1
_geom_bond_atom_site_label_2
_geom_bond_site_symmetry_1
_geom_bond_site_symmetry_2
Cd1 N1 1_555 1_555
O1 C1 1_555 1_555
O2 C1 1_555 1_555
C1 C2 1_555 1_555
N1 C3 1_555 1_555
C2 C4 1_555 1_555
C3 H1 1_555 1_555
C4 H2 1_555 1_555
N2 Cd1 1_555 1_555
C5 C2 1_555 1_555
H3 C5 1_555 1_555
C6 H4 1_555 1_555
C7 N2 1_555 1_555
H5 C7 1_555 1_555
C8 H6 1_555 1_555
N3 H7 1_555 1_555
O3 C14 1_555 1_555
C9 N2 1_555 1_555
H8 C9 1_555 1_555
C10 N3 1_555 1_555
C11 C9 1_555 1_555
H9 C11 1_555 1_555
C12 C6 1_555 1_555
C13 C7 1_555 1_555
H10 C13 1_555 1_555
C14 N3 1_555 1_555
C15 N1 1_555 1_555
H11 C15 1_555 1_555
Cd1_2 N2F 1_555 1_555
Cd1C O1 1_555 1_555
Cd1C_2 O1F 1_555 1_555
O1E Cd1 1_555 1_555
O1C Cd1 1_555 1_555
O1F C1F 1_555 1_555
O2F C1F 1_555 1_555
C1F C2F 1_555 1_555
N1F Cd1 1_555 1_555
C2F C4F 1_555 1_555
C3F N1F 1_555 1_555
H1F C3F 1_555 1_555
C4F H2F 1_555 1_555
N2F C7F 1_555 1_555
N2F_2 Cd1 1_555 1_555
C5F C2F 1_555 1_555
H3F C5F 1_555 1_555
C6F C8 1_555 1_555
H4F C6F 1_555 1_555
C7F H5F 1_555 1_555
C8F C6 1_555 1_555
H6F C8F 1_555 1_555
N3F H7F 1_555 1_555
O3F C14F 1_555 1_555
C9F N2F 1_555 1_555
H8F C9F 1_555 1_555
C10F N3F 1_555 1_555
C11F C9F 1_555 1_555
H9F C11F 1_555 1_555
C12F C6F 1_555 1_555
C13F C7F 1_555 1_555
H10F C13F 1_555 1_555
C14F N3F 1_555 1_555
C15F N1F 1_555 1_555
H11F C15F 1_555 1_555
C3 C5 1_555 1_555
C4 C15 1_555 1_555
C8 C12 1_555 1_555
C10 C11 1_555 1_555
C10 C13 1_555 1_555
C12 C14 1_555 1_555
C3F C5F 1_555 1_555
C4F C15F 1_555 1_555
C8F C12F 1_555 1_555
C10F C11F 1_555 1_555
C10F C13F 1_555 1_555
C12F C14F 1_555 1_555

#END
