
#######################################################################
#
#                 Cambridge Crystallographic Data Centre
#                                CCDC 
#
#######################################################################
#
# If this CIF has been generated from an entry in the Cambridge 
# Structural Database, then it will include bibliographic, chemical, 
# crystal, experimental, refinement or atomic coordinate data resulting 
# from the CCDC's data processing and validation procedures.
#
#######################################################################

data_HOGPUQ
_chemical_formula_moiety         '(C24 H22 Er2 N2 O16)n'
_symmetry_cell_setting           orthorhombic
_symmetry_space_group_name_H-M   'P n a 21'
_symmetry_Int_Tables_number      33
_space_group_name_Hall           'P 2c -2n'
loop_
_symmetry_equiv_pos_site_id
_symmetry_equiv_pos_as_xyz
1 x,y,z
2 -x,-y,1/2+z
3 1/2+x,1/2-y,z
4 1/2-x,1/2+y,1/2+z
_cell_length_a                   18.8991(14)
_cell_length_b                   15.5229(11)
_cell_length_c                   9.0702(7)
_cell_angle_alpha                90
_cell_angle_beta                 90
_cell_angle_gamma                90
_cell_volume                     2660.91
loop_
_atom_site_label
_atom_site_type_symbol
_atom_site_fract_x
_atom_site_fract_y
_atom_site_fract_z
C1 C 0.0138(3) 0.1556(4) 0.3566(7)
C2 C 0.0000(3) 0.1537(3) 0.1871(8)
C3 C -0.1567(3) 0.0131(4) 0.5777(8)
C4 C -0.1547(3) -0.0414(4) 0.4336(8)
C5 C -0.1541(3) 0.3480(4) 0.1450(8)
C6 C -0.1159(3) 0.4204(4) 0.0673(6)
C7 C -0.1550(3) 0.4857(4) 0.0006(8)
H1 H -0.2042 0.4833 0.0031
C8 C -0.1220(3) 0.5542(4) -0.0696(7)
C9 C -0.0483(3) 0.5574(4) -0.0682(7)
H2 H -0.0256 0.6035 -0.1135
C10 C -0.0070(3) 0.4933(4) -0.0003(7)
C11 C -0.0428(3) 0.4253(4) 0.0669(6)
H3 H -0.0168 0.3820 0.1127
C12 C -0.1634(3) 0.6265(5) -0.1365(7)
C13 C 0.0712(3) 0.4999(4) 0.0035(7)
C14 C 0.1049(3) 0.5796(4) -0.0115(7)
H4 H 0.0779 0.6291 -0.0241
C15 C 0.1789(3) 0.5858(4) -0.0079(8)
C16 C 0.2193(3) 0.5117(4) 0.0101(7)
H5 H 0.2684 0.5153 0.0094
C17 C 0.1874(3) 0.4339(4) 0.0287(7)
C18 C 0.1136(3) 0.4276(4) 0.0222(7)
H6 H 0.0925 0.3738 0.0305
C19 C 0.2307(3) 0.3540(4) 0.0570(6)
C20 C 0.2141(3) 0.6694(4) -0.0380(7)
Er1 Er 0.165500(12) 0.177743(15) 0.20479(3)
Er2 Er -0.153071(12) 0.152561(15) 0.31714(3)
O1 O 0.0770(2) 0.1497(3) 0.3953(5)
O2 O 0.0500(2) 0.1778(3) 0.1069(5)
O3 O -0.0595(2) 0.1272(3) 0.1502(4)
O4 O -0.0404(2) 0.1624(3) 0.4346(5)
O5 O -0.1593(2) 0.0926(3) 0.5628(5)
O6 O -0.15642(19) -0.0278(3) 0.6987(7)
O7 O -0.1450(2) 0.0007(2) 0.3177(7)
O8 O -0.1612(2) -0.1201(3) 0.4472(5)
O9 O -0.1183(2) 0.2859(2) 0.1949(5)
O10 O -0.2199(2) 0.3564(3) 0.1574(5)
O11 O -0.2288(2) 0.6205(3) -0.1404(4)
O12 O -0.1283(2) 0.6908(2) -0.1839(6)
O13 O 0.1768(2) 0.7365(3) -0.0279(5)
O14 O 0.2790(2) 0.6697(2) -0.0689(5)
O15 O 0.2943(2) 0.3642(3) 0.0882(5)
O16 O 0.1982(2) 0.2840(3) 0.0518(4)
Er1A Er -0.165500(12) -0.177743(15) 0.70479(3)
Er1A_2 Er -0.165500(12) 0.822257(15) -0.29521(3)
Er1B Er -0.334500(12) 0.322257(15) 0.20479(3)
Er1C Er 0.334500(12) 0.677743(15) -0.29521(3)
Er2A Er 0.153071(12) 0.847439(15) -0.18286(3)
Er2B Er 0.346929(12) 0.347439(15) 0.31714(3)
Er2C Er -0.346929(12) 0.652561(15) -0.18286(3)
O6A O 0.15642(19) 0.0278(3) 0.1987(7)
O8A O 0.1612(2) 0.1201(3) -0.0528(5)
O10B O 0.2801(2) 0.1436(3) 0.1574(5)
O11C O -0.2712(2) 0.1205(3) 0.3596(4)
O12A O 0.1283(2) 0.3092(2) 0.3161(6)
O13A O -0.1768(2) 0.2635(3) 0.4721(5)
O14C O 0.2210(2) 0.1697(2) 0.4311(5)
O15B O -0.2057(2) 0.1358(3) 0.0882(5)
N1 N 0.9046(3) 0.1226(4) 0.8550(6)
H7 H 0.8984 0.1149 0.9525
H8 H 0.8694 0.0946 0.8082
C21 C 0.9728(4) 0.0843(5) 0.8112(11)
H9 H 0.9801 0.0927 0.7074
H10 H 0.9724 0.0237 0.8325
H11 H 1.0105 0.1114 0.8650
C22 C 0.8990(4) 0.2164(6) 0.8213(12)
H12 H 0.8983 0.2246 0.7164
H13 H 0.9389 0.2461 0.8626
H14 H 0.8562 0.2389 0.8633
N2 N 0.1421(3) 0.2238(4) 0.6877(7)
H15 H 0.1464 0.1963 0.6008
H16 H 0.1435 0.1839 0.7597
C23 C 0.2020(4) 0.2835(6) 0.7061(11)
H17 H 0.2426 0.2523 0.7411
H18 H 0.1896 0.3273 0.7762
H19 H 0.2130 0.3098 0.6131
C24 C 0.0747(4) 0.2678(6) 0.6924(11)
H20 H 0.0745 0.3135 0.6211
H21 H 0.0674 0.2914 0.7890
H22 H 0.0375 0.2278 0.6701
loop_
_geom_bond_atom_site_label_1
_geom_bond_atom_site_label_2
_geom_bond_site_symmetry_1
_geom_bond_site_symmetry_2
C1 C2 1_555 1_555
C2 O2 1_555 1_555
C3 C4 1_555 1_555
C4 O7 1_555 1_555
C5 C6 1_555 1_555
C6 C7 1_555 1_555
C7 H1 1_555 1_555
C8 C7 1_555 1_555
C9 C8 1_555 1_555
H2 C9 1_555 1_555
C10 C9 1_555 1_555
C11 C6 1_555 1_555
H3 C11 1_555 1_555
C12 C8 1_555 1_555
C13 C10 1_555 1_555
C14 C13 1_555 1_555
H4 C14 1_555 1_555
C15 C14 1_555 1_555
C16 C15 1_555 1_555
H5 C16 1_555 1_555
C17 C16 1_555 1_555
C18 C13 1_555 1_555
H6 C18 1_555 1_555
C19 C17 1_555 1_555
C20 C15 1_555 1_555
Er1 O1 1_555 1_555
Er2 O3 1_555 1_555
O1 C1 1_555 1_555
O2 Er1 1_555 1_555
O3 C2 1_555 1_555
O4 C1 1_555 1_555
O5 C3 1_555 1_555
O6 C3 1_555 1_555
O7 Er2 1_555 1_555
O8 C4 1_555 1_555
O9 C5 1_555 1_555
O10 C5 1_555 1_555
O11 C12 1_555 1_555
O12 C12 1_555 1_555
O13 C20 1_555 1_555
O14 C20 1_555 1_555
O15 C19 1_555 1_555
O16 C19 1_555 1_555
N1 H7 1_555 1_555
H8 N1 1_555 1_555
C21 N1 1_555 1_555
H9 C21 1_555 1_555
H10 C21 1_555 1_555
H11 C21 1_555 1_555
C22 N1 1_555 1_555
H12 C22 1_555 1_555
H13 C22 1_555 1_555
H14 C22 1_555 1_555
N2 H15 1_555 1_555
H16 N2 1_555 1_555
C23 N2 1_555 1_555
H17 C23 1_555 1_555
H18 C23 1_555 1_555
H19 C23 1_555 1_555
C24 N2 1_555 1_555
H20 C24 1_555 1_555
H21 C24 1_555 1_555
H22 C24 1_555 1_555
Er1A O6 1_555 1_555
Er1A_2 O12 1_555 1_555
Er1B O10 1_555 1_555
Er1C O14 1_555 1_555
Er2A O13 1_555 1_555
Er2B O15 1_555 1_555
Er2C O11 1_555 1_555
O6A Er1 1_555 1_555
O8A Er1 1_555 1_555
O10B Er1 1_555 1_555
O11C Er2 1_555 1_555
O12A Er1 1_555 1_555
O13A Er2 1_555 1_555
O14C Er1 1_555 1_555
O15B Er2 1_555 1_555
C10 C11 1_555 1_555
C17 C18 1_555 1_555
Er1 O16 1_555 1_555
Er2 O4 1_555 1_555
Er2 O5 1_555 1_555
Er2 O9 1_555 1_555
O8 Er1A 1_555 1_555

#END
