
#######################################################################
#
#                 Cambridge Crystallographic Data Centre
#                                CCDC 
#
#######################################################################
#
# If this CIF has been generated from an entry in the Cambridge 
# Structural Database, then it will include bibliographic, chemical, 
# crystal, experimental, refinement or atomic coordinate data resulting 
# from the CCDC's data processing and validation procedures.
#
#######################################################################

data_HOGQAX
_chemical_formula_moiety         '(C24 H22 N2 O16 Yb2)n'
_symmetry_cell_setting           orthorhombic
_symmetry_space_group_name_H-M   'P n a 21'
_symmetry_Int_Tables_number      33
_space_group_name_Hall           'P 2c -2n'
loop_
_symmetry_equiv_pos_site_id
_symmetry_equiv_pos_as_xyz
1 x,y,z
2 -x,-y,1/2+z
3 1/2+x,1/2-y,z
4 1/2-x,1/2+y,1/2+z
_cell_length_a                   18.825(14)
_cell_length_b                   15.373(11)
_cell_length_c                   9.047(7)
_cell_angle_alpha                90
_cell_angle_beta                 90
_cell_angle_gamma                90
_cell_volume                     2618.17
loop_
_atom_site_label
_atom_site_type_symbol
_atom_site_fract_x
_atom_site_fract_y
_atom_site_fract_z
C1 C 0.9864(6) 0.8443(6) 0.6461(13)
C2 C 1.0006(6) 0.8449(5) 0.8121(15)
C3 C 1.1566(6) 0.9875(7) 0.4221(14)
C4 C 1.1538(6) 1.0414(7) 0.5656(15)
C5 C 1.1550(6) 0.6525(7) 0.8543(13)
C6 C 1.1172(6) 0.5789(6) 0.9336(13)
C7 C 1.1549(6) 0.5150(8) 1.0002(17)
H1 H 1.2043 0.5171 0.9976
C8 C 1.1223(6) 0.4469(6) 1.0716(13)
C9 C 1.0486(5) 0.4432(6) 1.0709(13)
H2 H 1.0261 0.3971 1.1181
C10 C 1.0076(5) 0.5063(7) 1.0016(13)
C11 C 1.0430(5) 0.5756(6) 0.9348(12)
H3 H 1.0170 0.6201 0.8908
C12 C 1.1643(6) 0.3727(7) 1.1386(13)
C13 C 0.9286(5) 0.4996(6) 0.9989(14)
C14 C 0.8948(6) 0.4207(7) 1.0112(13)
H4 H 0.9221 0.3707 1.0230
C15 C 0.8203(6) 0.4129(6) 1.0064(13)
C16 C 0.7803(5) 0.4873(6) 0.9912(15)
H5 H 0.7310 0.4835 0.9929
C17 C 0.8120(5) 0.5665(7) 0.9737(13)
C18 C 0.8854(6) 0.5732(7) 0.9799(13)
H6 H 0.9065 0.6276 0.9713
C19 C 0.7692(6) 0.6467(7) 0.9402(13)
C20 C 0.7865(6) 0.3296(7) 1.0367(13)
Yb1 Yb 0.83464(2) 0.82224(3) 0.79565(6)
Yb2 Yb 1.15271(2) 0.84772(3) 0.68251(5)
O1 O 0.9225(4) 0.8508(4) 0.6036(9)
O2 O 0.9496(4) 0.8215(5) 0.8945(10)
O3 O 1.0605(4) 0.8715(5) 0.8505(8)
O4 O 1.0408(4) 0.8372(5) 0.5642(10)
O5 O 1.1586(4) 0.9070(4) 0.4373(9)
O6 O 1.1560(3) 1.0287(4) 0.3022(12)
O7 O 1.1452(4) 0.9991(4) 0.6846(13)
O8 O 1.1613(4) 1.1212(4) 0.5543(9)
O9 O 1.1194(4) 0.7144(4) 0.8055(11)
O10 O 1.2215(4) 0.6442(5) 0.8441(9)
O11 O 1.2300(4) 0.3798(4) 1.1417(8)
O12 O 1.1291(4) 0.3089(4) 1.1852(11)
O13 O 0.8219(4) 0.2624(4) 1.0297(8)
O14 O 0.7206(4) 0.3299(4) 1.0711(9)
O15 O 0.7055(4) 0.6363(4) 0.9086(9)
O16 O 0.8012(4) 0.7168(4) 0.9463(9)
Yb1A Yb 1.16536(2) 0.17776(3) 1.29565(6)
Yb1A_2 Yb 1.16536(2) 1.17776(3) 0.29565(6)
Yb1B Yb 1.33464(2) 0.67776(3) 0.79565(6)
Yb1C Yb 0.66536(2) 0.32224(3) 1.29565(6)
Yb2A Yb 0.84729(2) 0.15228(3) 1.18251(5)
Yb2B Yb 0.65271(2) 0.65228(3) 0.68251(5)
Yb2C Yb 1.34729(2) 0.34772(3) 1.18251(5)
O6A O 0.8440(3) 0.9713(4) 0.8022(12)
O8A O 0.8387(4) 0.8788(4) 1.0543(9)
O10B O 0.7215(4) 0.8558(5) 0.8441(9)
O11C O 1.2700(4) 0.8798(4) 0.6417(8)
O12A O 0.8709(4) 0.6911(4) 0.6852(11)
O13A O 1.1781(4) 0.7376(4) 0.5297(8)
O14C O 0.7794(4) 0.8299(4) 0.5711(9)
O15B O 1.2055(4) 0.8637(4) 0.9086(9)
N1 N 0.0951(5) 0.8760(6) 0.1465(10)
H7 H 0.1013 0.8845 0.0490
H8 H 0.1304 0.9039 0.1938
C21 C 0.0264(6) 0.9163(7) 0.1908(19)
H9 H -0.0120 0.8859 0.1437
H10 H 0.0258 0.9762 0.1611
H11 H 0.0211 0.9126 0.2961
C22 C 0.1012(6) 0.7827(7) 0.1773(19)
H12 H 0.0639 0.7520 0.1273
H13 H 0.0974 0.7730 0.2819
H14 H 0.1464 0.7620 0.1430
N2 N 0.8581(5) 0.7758(6) 0.3119(15)
H15 H 0.8535 0.8036 0.3990
H16 H 0.8578 0.8164 0.2401
C23 C 0.7976(7) 0.7191(9) 0.2916(19)
H17 H 0.8042 0.6848 0.2040
H18 H 0.7553 0.7535 0.2816
H19 H 0.7931 0.6814 0.3756
C24 C 0.9266(7) 0.7312(8) 0.309(2)
H20 H 0.9376 0.7142 0.2100
H21 H 0.9243 0.6805 0.3711
H22 H 0.9628 0.7696 0.3456
loop_
_geom_bond_atom_site_label_1
_geom_bond_atom_site_label_2
_geom_bond_site_symmetry_1
_geom_bond_site_symmetry_2
C1 C2 1_555 1_555
C2 O2 1_555 1_555
C3 C4 1_555 1_555
C4 O7 1_555 1_555
C5 C6 1_555 1_555
C6 C7 1_555 1_555
C7 H1 1_555 1_555
C8 C7 1_555 1_555
C9 C8 1_555 1_555
H2 C9 1_555 1_555
C10 C9 1_555 1_555
C11 C6 1_555 1_555
H3 C11 1_555 1_555
C12 C8 1_555 1_555
C13 C10 1_555 1_555
C14 C13 1_555 1_555
H4 C14 1_555 1_555
C15 C14 1_555 1_555
C16 C15 1_555 1_555
H5 C16 1_555 1_555
C17 C16 1_555 1_555
C18 C13 1_555 1_555
H6 C18 1_555 1_555
C19 C17 1_555 1_555
C20 C15 1_555 1_555
Yb1 O1 1_555 1_555
Yb2 O3 1_555 1_555
O1 C1 1_555 1_555
O2 Yb1 1_555 1_555
O3 C2 1_555 1_555
O4 C1 1_555 1_555
O5 C3 1_555 1_555
O6 C3 1_555 1_555
O7 Yb2 1_555 1_555
O8 C4 1_555 1_555
O9 C5 1_555 1_555
O10 C5 1_555 1_555
O11 C12 1_555 1_555
O12 C12 1_555 1_555
O13 C20 1_555 1_555
O14 C20 1_555 1_555
O15 C19 1_555 1_555
O16 C19 1_555 1_555
N1 H7 1_555 1_555
H8 N1 1_555 1_555
C21 N1 1_555 1_555
H9 C21 1_555 1_555
H10 C21 1_555 1_555
H11 C21 1_555 1_555
C22 N1 1_555 1_555
H12 C22 1_555 1_555
H13 C22 1_555 1_555
H14 C22 1_555 1_555
N2 H15 1_555 1_555
H16 N2 1_555 1_555
C23 N2 1_555 1_555
H17 C23 1_555 1_555
H18 C23 1_555 1_555
H19 C23 1_555 1_555
C24 N2 1_555 1_555
H20 C24 1_555 1_555
H21 C24 1_555 1_555
H22 C24 1_555 1_555
Yb1A O12 1_555 1_555
Yb1A_2 O6 1_555 1_555
Yb1B O10 1_555 1_555
Yb1C O14 1_555 1_555
Yb2A O13 1_555 1_555
Yb2B O15 1_555 1_555
Yb2C O11 1_555 1_555
O6A Yb1 1_555 1_555
O8A Yb1 1_555 1_555
O10B Yb1 1_555 1_555
O11C Yb2 1_555 1_555
O12A Yb1 1_555 1_555
O13A Yb2 1_555 1_555
O14C Yb1 1_555 1_555
O15B Yb2 1_555 1_555
C10 C11 1_555 1_555
C17 C18 1_555 1_555
Yb1 O16 1_555 1_555
Yb2 O4 1_555 1_555
Yb2 O5 1_555 1_555
Yb2 O9 1_555 1_555
O8 Yb1A_2 1_555 1_555

#END
