
#######################################################################
#
#                 Cambridge Crystallographic Data Centre
#                                CCDC 
#
#######################################################################
#
# If this CIF has been generated from an entry in the Cambridge 
# Structural Database, then it will include bibliographic, chemical, 
# crystal, experimental, refinement or atomic coordinate data resulting 
# from the CCDC's data processing and validation procedures.
#
#######################################################################

data_HOGQEB
_chemical_formula_moiety         '(C24 H22 N2 O16 Sm2)n'
_symmetry_cell_setting           orthorhombic
_symmetry_space_group_name_H-M   'P n a 21'
_symmetry_Int_Tables_number      33
_space_group_name_Hall           'P 2c -2n'
loop_
_symmetry_equiv_pos_site_id
_symmetry_equiv_pos_as_xyz
1 x,y,z
2 -x,-y,1/2+z
3 1/2+x,1/2-y,z
4 1/2-x,1/2+y,1/2+z
_cell_length_a                   19.116(7)
_cell_length_b                   15.714(6)
_cell_length_c                   9.069(4)
_cell_angle_alpha                90
_cell_angle_beta                 90
_cell_angle_gamma                90
_cell_volume                     2724.23
loop_
_atom_site_label
_atom_site_type_symbol
_atom_site_fract_x
_atom_site_fract_y
_atom_site_fract_z
C1 C 0.0141(4) 0.1542(4) 0.3562(7)
C2 C 0.0000(4) 0.1522(4) 0.1859(8)
C3 C -0.1581(3) 0.0119(4) 0.5774(8)
C4 C -0.1560(3) -0.0414(4) 0.4341(8)
C5 C -0.1505(4) 0.3474(5) 0.1447(8)
C6 C -0.1133(3) 0.4211(4) 0.0690(7)
C7 C -0.1526(3) 0.4839(4) 0.0026(9)
H1 H -0.2011 0.4803 0.0037
C8 C -0.1204(3) 0.5524(4) -0.0659(7)
C9 C -0.0475(3) 0.5562(4) -0.0654(7)
H2 H -0.0256 0.6019 -0.1113
C10 C -0.0062(3) 0.4938(4) 0.0018(7)
C11 C -0.0418(3) 0.4259(4) 0.0673(7)
H3 H -0.0160 0.3825 0.1110
C12 C -0.1617(3) 0.6240(5) -0.1351(7)
C13 C 0.0707(3) 0.5002(4) 0.0048(7)
C14 C 0.1041(3) 0.5787(4) -0.0088(7)
H4 H 0.0771 0.6276 -0.0185
C15 C 0.1766(3) 0.5856(4) -0.0082(7)
C16 C 0.2175(3) 0.5135(4) 0.0101(8)
H5 H 0.2660 0.5176 0.0118
C17 C 0.1849(3) 0.4349(4) 0.0259(7)
C18 C 0.1129(3) 0.4291(4) 0.0212(7)
H6 H 0.0920 0.3758 0.0294
C19 C 0.2285(4) 0.3576(4) 0.0526(7)
C20 C 0.2119(4) 0.6689(4) -0.0323(7)
Sm1 Sm 0.167056(15) 0.179398(18) 0.20644(4)
Sm2 Sm -0.153796(15) 0.152858(19) 0.31565(3)
O1 O 0.0768(2) 0.1499(3) 0.3951(5)
O2 O 0.0491(3) 0.1767(3) 0.1056(5)
O3 O -0.0584(2) 0.1254(3) 0.1489(5)
O4 O -0.0389(3) 0.1600(3) 0.4361(6)
O5 O -0.1593(2) 0.0906(3) 0.5636(5)
O6 O -0.1583(2) -0.0272(3) 0.6982(7)
O7 O -0.1462(2) -0.0016(3) 0.3190(7)
O8 O -0.1638(2) -0.1191(3) 0.4484(5)
O9 O -0.1144(2) 0.2865(3) 0.1903(5)
O10 O -0.2156(3) 0.3527(3) 0.1573(6)
O11 O -0.2265(2) 0.6175(3) -0.1395(5)
O12 O -0.1273(2) 0.6880(2) -0.1797(6)
O13 O 0.1752(2) 0.7345(3) -0.0220(5)
O14 O 0.2764(2) 0.6691(3) -0.0617(5)
O15 O 0.2927(2) 0.3664(3) 0.0798(5)
O16 O 0.1977(2) 0.2875(3) 0.0468(5)
Sm1A Sm -0.167056(15) -0.179398(18) 0.70644(4)
Sm1A_2 Sm -0.167056(15) 0.820602(18) -0.29356(4)
Sm1B Sm -0.332944(15) 0.320602(18) 0.20644(4)
Sm1C Sm 0.332944(15) 0.679398(18) -0.29356(4)
Sm2A Sm 0.153796(15) 0.847142(19) -0.18435(3)
Sm2B Sm 0.346204(15) 0.347142(19) 0.31565(3)
Sm2C Sm -0.346204(15) 0.652858(19) -0.18435(3)
O6A O 0.1583(2) 0.0272(3) 0.1982(7)
O8A O 0.1638(2) 0.1191(3) -0.0516(5)
O10B O 0.2844(3) 0.1473(3) 0.1573(6)
O11C O -0.2735(2) 0.1175(3) 0.3605(5)
O12A O 0.1273(2) 0.3120(2) 0.3203(6)
O13A O -0.1752(2) 0.2655(3) 0.4780(5)
O14C O 0.2236(2) 0.1691(3) 0.4383(5)
O15B O -0.2073(2) 0.1336(3) 0.0798(5)
N1 N 0.9052(3) 0.1190(4) 0.8539(6)
H7 H 0.8993 0.1106 0.9513
H8 H 0.8703 0.0921 0.8065
C21 C 0.9731(4) 0.0812(5) 0.8080(10)
H9 H 0.9813 0.0934 0.7058
H10 H 0.9716 0.0207 0.8223
H11 H 1.0101 0.1050 0.8664
C22 C 0.9008(5) 0.2127(6) 0.8220(11)
H12 H 0.9064 0.2221 0.7180
H13 H 0.9371 0.2420 0.8746
H14 H 0.8560 0.2339 0.8529
N2 N 0.1456(4) 0.2244(5) 0.6923(8)
H15 H 0.1505 0.1961 0.6067
H16 H 0.1483 0.1862 0.7661
C23 C 0.2037(5) 0.2866(7) 0.7075(12)
H17 H 0.2159 0.3085 0.6120
H18 H 0.2436 0.2590 0.7503
H19 H 0.1891 0.3327 0.7700
C24 C 0.0767(4) 0.2646(6) 0.6956(13)
H20 H 0.0775 0.3153 0.6366
H21 H 0.0649 0.2790 0.7954
H22 H 0.0425 0.2259 0.6569
loop_
_geom_bond_atom_site_label_1
_geom_bond_atom_site_label_2
_geom_bond_site_symmetry_1
_geom_bond_site_symmetry_2
C1 C2 1_555 1_555
C2 O2 1_555 1_555
C3 C4 1_555 1_555
C4 O7 1_555 1_555
C5 C6 1_555 1_555
C6 C7 1_555 1_555
C7 H1 1_555 1_555
C8 C7 1_555 1_555
C9 C8 1_555 1_555
H2 C9 1_555 1_555
C10 C9 1_555 1_555
C11 C6 1_555 1_555
H3 C11 1_555 1_555
C12 C8 1_555 1_555
C13 C10 1_555 1_555
C14 C13 1_555 1_555
H4 C14 1_555 1_555
C15 C14 1_555 1_555
C16 C15 1_555 1_555
H5 C16 1_555 1_555
C17 C16 1_555 1_555
C18 C13 1_555 1_555
H6 C18 1_555 1_555
C19 C17 1_555 1_555
C20 C15 1_555 1_555
Sm1 O1 1_555 1_555
Sm2 O3 1_555 1_555
O1 C1 1_555 1_555
O2 Sm1 1_555 1_555
O3 C2 1_555 1_555
O4 C1 1_555 1_555
O5 C3 1_555 1_555
O6 C3 1_555 1_555
O7 Sm2 1_555 1_555
O8 C4 1_555 1_555
O9 C5 1_555 1_555
O10 C5 1_555 1_555
O11 C12 1_555 1_555
O12 C12 1_555 1_555
O13 C20 1_555 1_555
O14 C20 1_555 1_555
O15 C19 1_555 1_555
O16 C19 1_555 1_555
N1 H7 1_555 1_555
H8 N1 1_555 1_555
C21 N1 1_555 1_555
H9 C21 1_555 1_555
H10 C21 1_555 1_555
H11 C21 1_555 1_555
C22 N1 1_555 1_555
H12 C22 1_555 1_555
H13 C22 1_555 1_555
H14 C22 1_555 1_555
N2 H15 1_555 1_555
H16 N2 1_555 1_555
C23 N2 1_555 1_555
H17 C23 1_555 1_555
H18 C23 1_555 1_555
H19 C23 1_555 1_555
C24 N2 1_555 1_555
H20 C24 1_555 1_555
H21 C24 1_555 1_555
H22 C24 1_555 1_555
Sm1A O6 1_555 1_555
Sm1A_2 O12 1_555 1_555
Sm1B O10 1_555 1_555
Sm1C O14 1_555 1_555
Sm2A O13 1_555 1_555
Sm2B O15 1_555 1_555
Sm2C O11 1_555 1_555
O6A Sm1 1_555 1_555
O8A Sm1 1_555 1_555
O10B Sm1 1_555 1_555
O11C Sm2 1_555 1_555
O12A Sm1 1_555 1_555
O13A Sm2 1_555 1_555
O14C Sm1 1_555 1_555
O15B Sm2 1_555 1_555
C10 C11 1_555 1_555
C17 C18 1_555 1_555
Sm1 O16 1_555 1_555
Sm2 O4 1_555 1_555
Sm2 O5 1_555 1_555
Sm2 O9 1_555 1_555
O8 Sm1A 1_555 1_555

#END
