
#######################################################################
#
#                 Cambridge Crystallographic Data Centre
#                                CCDC 
#
#######################################################################
#
# If this CIF has been generated from an entry in the Cambridge 
# Structural Database, then it will include bibliographic, chemical, 
# crystal, experimental, refinement or atomic coordinate data resulting 
# from the CCDC's data processing and validation procedures.
#
#######################################################################

data_DONKIC
_chemical_formula_moiety         '(C54 H76 Co4 N2 O37)n'
_symmetry_cell_setting           trigonal
_symmetry_space_group_name_H-M   'P 31 2 1'
_symmetry_Int_Tables_number      152
_space_group_name_Hall           'P 31 2"'
loop_
_symmetry_equiv_pos_site_id
_symmetry_equiv_pos_as_xyz
1 x,y,z
2 -y,x-y,1/3+z
3 -x+y,-x,2/3+z
4 x-y,-y,2/3-z
5 -x,-x+y,1/3-z
6 y,x,-z
_cell_length_a                   16.7190(4)
_cell_length_b                   16.7190(4)
_cell_length_c                   24.5980(7)
_cell_angle_alpha                90
_cell_angle_beta                 90
_cell_angle_gamma                120
_cell_volume                     5954.58
loop_
_atom_site_label
_atom_site_type_symbol
_atom_site_fract_x
_atom_site_fract_y
_atom_site_fract_z
Co1 Co 0.40788(5) 0.68402(5) 0.74945(3)
Co2 Co 0.49182(6) 1.25482(5) 0.46862(3)
C1 C 1.0456(5) 0.8284(6) 0.5595(3)
H1 H 1.0998 0.8317 0.5440
H2 H 1.0513 0.8323 0.5984
H3 H 1.0388 0.8786 0.5461
C2 C 0.9606(4) 0.7366(4) 0.5436(2)
H4 H 0.9687 0.6873 0.5594
C3 C 0.8721(4) 0.7254(4) 0.5662(2)
C4 C 0.8642(4) 0.7915(4) 0.59514(19)
H5 H 0.9177 0.8477 0.6012
C5 C 0.7821(4) 0.7801(4) 0.6160(2)
C6 C 0.7027(4) 0.6953(3) 0.60845(19)
C7 C 0.7055(4) 0.6255(4) 0.5783(2)
H6 H 0.6519 0.5692 0.5725
C8 C 0.7881(4) 0.6416(4) 0.5575(2)
C9 C 0.7300(5) 0.5298(4) 0.4871(2)
H7 H 0.7620 0.5334 0.4536
H8 H 0.6958 0.5620 0.4815
C10 C 0.6628(5) 0.4298(4) 0.4997(2)
C11 C 0.5435(4) 0.5958(4) 0.6317(2)
H9 H 0.5599 0.5504 0.6435
H10 H 0.5200 0.5804 0.5948
C12 C 0.4689(4) 0.5908(3) 0.66817(19)
C13 C 0.7778(4) 0.8584(4) 0.6457(2)
H11 H 0.7327 0.8301 0.6751
C14 C 0.8678(5) 0.9285(5) 0.6713(3)
H12 H 0.8599 0.9751 0.6892
H13 H 0.9142 0.9567 0.6436
H14 H 0.8867 0.8984 0.6973
C15 C 0.7420(3) 0.9067(3) 0.6078(2)
C16 C 0.6981(4) 0.9505(4) 0.6293(2)
C17 C 0.6681(4) 0.9986(4) 0.5977(2)
H15 H 0.6400 1.0287 0.6136
C18 C 0.6804(4) 1.0016(4) 0.5422(2)
C19 C 0.7241(4) 0.9567(4) 0.5182(2)
C20 C 0.7537(4) 0.9111(3) 0.5519(2)
H16 H 0.7830 0.8818 0.5364
C21 C 0.5981(4) 0.8817(4) 0.7018(2)
H17 H 0.5827 0.8237 0.6843
H18 H 0.5528 0.8986 0.6908
C22 C 0.5965(5) 0.8708(4) 0.7636(2)
C23 C 0.6095(5) 1.0920(5) 0.5312(3)
H19 H 0.6496 1.1336 0.5592
H20 H 0.5519 1.0473 0.5482
C24 C 0.5911(5) 1.1459(5) 0.4892(2)
C25 C 0.3226(5) 0.7580(5) 0.6712(3)
H21 H 0.2805 0.7428 0.6995
C26 C 0.3676(9) 0.8120(10) 0.5803(4)
H22 H 0.3477 0.8372 0.5517
H23 H 0.3640 0.7558 0.5681
H24 H 0.4302 0.8557 0.5900
C27 C 0.2329(8) 0.8098(8) 0.6222(4)
H25 H 0.2343 0.8357 0.5872
H26 H 0.2376 0.8522 0.6501
H27 H 0.1759 0.7526 0.6264
N1 N 0.3091(5) 0.7932(5) 0.6268(2)
O1 O 0.7962(3) 0.5751(3) 0.52905(17)
O2 O 0.6035(3) 0.3872(3) 0.46352(16)
O3 O 0.6726(3) 0.3988(3) 0.54392(17)
O4 O 0.6238(2) 0.6847(2) 0.63200(16)
O5 O 0.4907(3) 0.6524(3) 0.70354(16)
O6 O 0.3906(3) 0.5227(3) 0.66184(16)
O7 O 0.6870(3) 0.9509(3) 0.68565(14)
O8 O 0.6558(4) 0.9307(4) 0.79056(18)
O9 O 0.5264(3) 0.8008(3) 0.78277(14)
O10 O 0.6517(4) 1.0459(3) 0.50711(16)
O11 O 0.5690(3) 1.2031(3) 0.50852(15)
O12 O 0.5963(6) 1.1340(5) 0.4407(2)
O13 O 0.3878(4) 0.7437(4) 0.67772(18)
O14 O 0.4189(4) 1.3072(4) 0.42871(19)
O15 O 0.5349(4) 1.2323(4) 0.39036(17)
O16 O 0.2819(4) 0.5618(3) 0.7320(2)
O17 O 0.3826(4) 1.1208(4) 0.4659(2)
C1E C 0.8284(6) 1.0456(5) 0.4405(3)
H1E H 0.8317 1.0998 0.4560
H2E H 0.8323 1.0513 0.4016
H3E H 0.8786 1.0388 0.4539
C2E C 0.7366(4) 0.9606(4) 0.4564(2)
H4E H 0.6873 0.9687 0.4406
C3E C 0.7254(4) 0.8721(4) 0.4338(2)
C4E C 0.7915(4) 0.8642(4) 0.40486(19)
H5E H 0.8477 0.9177 0.3988
C5E C 0.7801(4) 0.7821(4) 0.3840(2)
C6E C 0.6953(3) 0.7027(4) 0.39155(19)
C7E C 0.6255(4) 0.7055(4) 0.4217(2)
H6E H 0.5692 0.6519 0.4275
C8E C 0.6416(4) 0.7881(4) 0.4425(2)
C9E C 0.5298(4) 0.7300(5) 0.5129(2)
H7E H 0.5334 0.7620 0.5464
H8E H 0.5620 0.6958 0.5185
C10E C 0.4298(4) 0.6628(5) 0.5003(2)
C11E C 0.5958(4) 0.5435(4) 0.3683(2)
H9E H 0.5504 0.5599 0.3565
H10E H 0.5804 0.5200 0.4052
C12E C 0.5908(3) 0.4689(4) 0.33183(19)
C13E C 0.8584(4) 0.7778(4) 0.3543(2)
H11E H 0.8301 0.7327 0.3249
C14E C 0.9285(5) 0.8678(5) 0.3287(3)
H12E H 0.9751 0.8599 0.3108
H13E H 0.9567 0.9142 0.3564
H14E H 0.8984 0.8867 0.3027
C15E C 0.9067(3) 0.7420(3) 0.3922(2)
C16E C 0.9505(4) 0.6981(4) 0.3707(2)
C17E C 0.9986(4) 0.6681(4) 0.4023(2)
H15E H 1.0287 0.6400 0.3864
C18E C 1.0016(4) 0.6804(4) 0.4578(2)
C19E C 0.9567(4) 0.7241(4) 0.4818(2)
C20E C 0.9111(3) 0.7537(4) 0.4481(2)
H16E H 0.8818 0.7830 0.4636
C21E C 0.8817(4) 0.5981(4) 0.2982(2)
H17E H 0.8237 0.5827 0.3157
H18E H 0.8986 0.5528 0.3092
C22E C 0.8708(4) 0.5965(5) 0.2364(2)
C23E C 1.0920(5) 0.6095(5) 0.4688(3)
H19E H 1.1336 0.6496 0.4408
H20E H 1.0473 0.5519 0.4518
C24E C 1.1459(5) 0.5911(5) 0.5108(2)
O1E O 0.5751(3) 0.7962(3) 0.47095(17)
O2E O 0.3872(3) 0.6035(3) 0.53648(16)
O3E O 0.3988(3) 0.6726(3) 0.45608(17)
O4E O 0.6847(2) 0.6238(2) 0.36800(16)
O5E O 0.6524(3) 0.4907(3) 0.29646(16)
O6E O 0.5227(3) 0.3906(3) 0.33816(16)
O7E O 0.9509(3) 0.6870(3) 0.31435(14)
O8E O 0.9307(4) 0.6558(4) 0.20944(18)
O9E O 0.8008(3) 0.5264(3) 0.21723(14)
O10E O 1.0459(3) 0.6517(4) 0.49289(16)
O11E O 1.2031(3) 0.5690(3) 0.49148(15)
O12E O 1.1340(5) 0.5963(6) 0.5593(2)
Co1E Co 0.68402(5) 0.40788(5) 0.25055(3)
Co2E Co 1.25482(5) 0.49182(6) 0.53138(3)
C25E C 0.7580(5) 0.3226(5) 0.3288(3)
H21E H 0.7428 0.2805 0.3005
C26E C 0.8120(10) 0.3676(9) 0.4197(4)
H22E H 0.8372 0.3477 0.4483
H23E H 0.7558 0.3640 0.4319
H24E H 0.8557 0.4302 0.4100
C27E C 0.8098(8) 0.2329(8) 0.3778(4)
H25E H 0.8357 0.2343 0.4128
H26E H 0.8522 0.2376 0.3499
H27E H 0.7526 0.1759 0.3736
N1E N 0.7932(5) 0.3091(5) 0.3732(2)
O13E O 0.7437(4) 0.3878(4) 0.32228(18)
O14E O 1.3072(4) 0.4189(4) 0.57129(19)
O15E O 1.2323(4) 0.5349(4) 0.60964(17)
O16E O 0.5618(3) 0.2819(4) 0.2680(2)
O17E O 1.1208(4) 0.3826(4) 0.5341(2)
Co1B Co 0.27614(7) 0.59212(5) 0.41612(3)
Co1B_2 Co 1.27614(7) 0.59212(5) 0.41612(3)
Co1D Co 0.59212(5) 0.27614(7) 0.58388(3)
Co1D_2 Co 0.59212(5) 1.27614(7) 0.58388(3)
Co2_2 Co 0.49182(6) 0.25482(5) 0.46862(3)
Co2B Co 0.76300(8) 0.50818(6) 0.13529(3)
Co2D Co 0.50818(6) 0.76300(8) 0.86471(3)
Co2E_2 Co 0.25482(5) 0.49182(6) 0.53138(3)
O2_2 O 0.6035(3) 1.3872(3) 0.46352(16)
O2E_2 O 1.3872(3) 0.6035(3) 0.53648(16)
O3B O 0.7262(4) 0.3274(3) 0.21059(17)
O3D O 0.3274(3) 0.7262(4) 0.78941(17)
O9B O 1.2744(4) 0.4736(3) 0.44944(14)
O9D O 0.4736(3) 1.2744(4) 0.55056(14)
O11B O 0.6341(4) 0.4310(3) 0.17519(15)
O11D O 0.4310(3) 0.6341(4) 0.82481(15)
O18 O 0.3442(7) 1.0350(6) 0.5713(4)
O19 O 0.4932(5) 0.4932(5) 0.5000
O20 O 0.1165(12) 0.5850(8) 0.7517(6)
loop_
_geom_bond_atom_site_label_1
_geom_bond_atom_site_label_2
_geom_bond_site_symmetry_1
_geom_bond_site_symmetry_2
Co1 O5 1_555 1_555
Co2 O11 1_555 1_555
C1 H1 1_555 1_555
H2 C1 1_555 1_555
H3 C1 1_555 1_555
C2 C1 1_555 1_555
H4 C2 1_555 1_555
C3 C2 1_555 1_555
C4 C3 1_555 1_555
H5 C4 1_555 1_555
C5 C4 1_555 1_555
C6 C5 1_555 1_555
C7 C6 1_555 1_555
H6 C7 1_555 1_555
C8 C3 1_555 1_555
C9 H7 1_555 1_555
H8 C9 1_555 1_555
C10 C9 1_555 1_555
C11 H9 1_555 1_555
H10 C11 1_555 1_555
C12 C11 1_555 1_555
C13 C5 1_555 1_555
H11 C13 1_555 1_555
C14 C13 1_555 1_555
H12 C14 1_555 1_555
H13 C14 1_555 1_555
H14 C14 1_555 1_555
C15 C13 1_555 1_555
C16 C15 1_555 1_555
C17 C16 1_555 1_555
H15 C17 1_555 1_555
C18 C17 1_555 1_555
C19 C18 1_555 1_555
C20 C15 1_555 1_555
H16 C20 1_555 1_555
C21 H17 1_555 1_555
H18 C21 1_555 1_555
C22 C21 1_555 1_555
C23 H19 1_555 1_555
H20 C23 1_555 1_555
C24 C23 1_555 1_555
C25 H21 1_555 1_555
C26 H22 1_555 1_555
H23 C26 1_555 1_555
H24 C26 1_555 1_555
C27 H25 1_555 1_555
H26 C27 1_555 1_555
H27 C27 1_555 1_555
N1 C25 1_555 1_555
O1 C8 1_555 1_555
O2 C10 1_555 1_555
O3 C10 1_555 1_555
O4 C6 1_555 1_555
O5 C12 1_555 1_555
O6 C12 1_555 1_555
O7 C16 1_555 1_555
O8 C22 1_555 1_555
O9 Co1 1_555 1_555
O10 C18 1_555 1_555
O11 C24 1_555 1_555
O12 C24 1_555 1_555
O13 Co1 1_555 1_555
O14 Co2 1_555 1_555
O15 Co2 1_555 1_555
O16 Co1 1_555 1_555
O17 Co2 1_555 1_555
C1E H1E 1_555 1_555
H2E C1E 1_555 1_555
H3E C1E 1_555 1_555
C2E C19 1_555 1_555
H4E C2E 1_555 1_555
C3E C2E 1_555 1_555
C4E C3E 1_555 1_555
H5E C4E 1_555 1_555
C5E C4E 1_555 1_555
C6E C5E 1_555 1_555
C7E C6E 1_555 1_555
H6E C7E 1_555 1_555
C8E C3E 1_555 1_555
C9E H7E 1_555 1_555
H8E C9E 1_555 1_555
C10E C9E 1_555 1_555
C11E H9E 1_555 1_555
H10E C11E 1_555 1_555
C12E C11E 1_555 1_555
C13E C5E 1_555 1_555
H11E C13E 1_555 1_555
C14E C13E 1_555 1_555
H12E C14E 1_555 1_555
H13E C14E 1_555 1_555
H14E C14E 1_555 1_555
C15E C13E 1_555 1_555
C16E C15E 1_555 1_555
C17E C16E 1_555 1_555
H15E C17E 1_555 1_555
C18E C17E 1_555 1_555
C19E C2 1_555 1_555
C20E C15E 1_555 1_555
H16E C20E 1_555 1_555
C21E H17E 1_555 1_555
H18E C21E 1_555 1_555
C22E C21E 1_555 1_555
C23E H19E 1_555 1_555
H20E C23E 1_555 1_555
C24E C23E 1_555 1_555
O1E C8E 1_555 1_555
O2E C10E 1_555 1_555
O3E C10E 1_555 1_555
O4E C6E 1_555 1_555
O5E C12E 1_555 1_555
O6E C12E 1_555 1_555
O7E C16E 1_555 1_555
O8E C22E 1_555 1_555
O9E C22E 1_555 1_555
O10E C18E 1_555 1_555
O11E C24E 1_555 1_555
O12E C24E 1_555 1_555
Co1E O5E 1_555 1_555
Co2E O11E 1_555 1_555
C25E H21E 1_555 1_555
C26E H22E 1_555 1_555
H23E C26E 1_555 1_555
H24E C26E 1_555 1_555
C27E H25E 1_555 1_555
H26E C27E 1_555 1_555
H27E C27E 1_555 1_555
N1E C25E 1_555 1_555
O13E Co1E 1_555 1_555
O14E Co2E 1_555 1_555
O15E Co2E 1_555 1_555
O16E Co1E 1_555 1_555
O17E Co2E 1_555 1_555
Co1B O3E 1_555 1_555
Co1B_2 O11E 1_555 1_555
Co1D O3 1_555 1_555
Co1D_2 O11 1_555 1_555
Co2_2 O2 1_555 1_555
Co2B O9E 1_555 1_555
Co2D O9 1_555 1_555
Co2E_2 O2E 1_555 1_555
O2_2 Co2 1_555 1_555
O2E_2 Co2E 1_555 1_555
O3B Co1E 1_555 1_555
O3D Co1 1_555 1_555
O9B Co2E 1_555 1_555
O9D Co2 1_555 1_555
O11B Co1E 1_555 1_555
O11D Co1 1_555 1_555
C7 C8 1_555 1_555
C9 O1 1_555 1_555
C11 O4 1_555 1_555
C19 C20 1_555 1_555
C21 O7 1_555 1_555
C22 O9 1_555 1_555
C23 O10 1_555 1_555
C25 O13 1_555 1_555
C26 N1 1_555 1_555
C27 N1 1_555 1_555
C1E C2E 1_555 1_555
C7E C8E 1_555 1_555
C9E O1E 1_555 1_555
C11E O4E 1_555 1_555
C18E C19E 1_555 1_555
C19E C20E 1_555 1_555
C21E O7E 1_555 1_555
C23E O10E 1_555 1_555
O9E Co1E 1_555 1_555
C25E O13E 1_555 1_555
C26E N1E 1_555 1_555
C27E N1E 1_555 1_555
Co1B_2 O9B 1_555 1_555
Co1D_2 O9D 1_555 1_555
Co2B O11B 1_555 1_555
Co2D O11D 1_555 1_555

#END
