
#######################################################################
#
#                 Cambridge Crystallographic Data Centre
#                                CCDC 
#
#######################################################################
#
# If this CIF has been generated from an entry in the Cambridge 
# Structural Database, then it will include bibliographic, chemical, 
# crystal, experimental, refinement or atomic coordinate data resulting 
# from the CCDC's data processing and validation procedures.
#
#######################################################################

data_MAXHOJ
_chemical_formula_moiety         'C8 H19 Ag11 Cl2 N23 O2 1-'
_symmetry_cell_setting           orthorhombic
_symmetry_space_group_name_H-M   'F d d d'
_symmetry_Int_Tables_number      70
_space_group_name_Hall           '-F 2uv 2vw'
loop_
_symmetry_equiv_pos_site_id
_symmetry_equiv_pos_as_xyz
1 x,y,z
2 x,1/2+y,1/2+z
3 x,1/4-y,1/4-z
4 1/2+x,y,1/2+z
5 1/4-x,y,1/4-z
6 1/2+x,1/2+y,z
7 1/4-x,1/4-y,z
8 3/4-x,3/4-y,z
9 3/4-x,y,3/4-z
10 x,3/4-y,3/4-z
11 3/4-x,1/4-y,1/2+z
12 3/4-x,1/2+y,1/4-z
13 1/4-x,3/4-y,1/2+z
14 1/2+x,3/4-y,1/4-z
15 1/4-x,1/2+y,3/4-z
16 1/2+x,1/4-y,3/4-z
17 -x,-y,-z
18 -x,1/2-y,1/2-z
19 -x,3/4+y,3/4+z
20 1/2-x,-y,1/2-z
21 3/4+x,-y,3/4+z
22 1/2-x,1/2-y,-z
23 3/4+x,3/4+y,-z
24 1/4+x,1/4+y,-z
25 1/4+x,-y,1/4+z
26 -x,1/4+y,1/4+z
27 1/4+x,3/4+y,1/2-z
28 1/4+x,1/2-y,3/4+z
29 3/4+x,1/4+y,1/2-z
30 1/2-x,1/4+y,3/4+z
31 3/4+x,1/2-y,1/4+z
32 1/2-x,3/4+y,1/4+z
_cell_length_a                   3.4099(2)
_cell_length_b                   39.805(3)
_cell_length_c                   43.607(3)
_cell_angle_alpha                90
_cell_angle_beta                 90
_cell_angle_gamma                90
_cell_volume                     5918.82
loop_
_atom_site_label
_atom_site_type_symbol
_atom_site_fract_x
_atom_site_fract_y
_atom_site_fract_z
O2 O -0.62(3) 0.637(3) -0.101(2)
H2 H -0.5346 0.6260 -0.0814
Ag1 Ag -0.8750 0.55574(3) 0.1250
Ag2 Ag -0.8750 0.6250 0.07225(2)
Ag3 Ag -1.5000 0.5000 0.0000
Cl1 Cl -1.3750 0.6250 0.1250
C1 C -1.203(3) 0.5640(3) 0.0333(2)
C2 C -1.206(3) 0.5232(2) 0.0641(2)
N1 N -1.072(2) 0.54935(19) 0.07961(16)
N2 N -1.066(2) 0.57599(18) 0.05935(15)
N3 N -1.288(2) 0.5311(2) 0.0348(2)
N4 N -1.235(8) 0.4904(5) 0.0768(5)
H3 H -1.3068 0.4730 0.0649
H4 H -1.1775 0.4871 0.0968
N5 N -1.221(7) 0.5849(5) 0.0059(4)
H5 H -1.2960 0.5758 -0.0121
H6 H -1.1585 0.6069 0.0069
Ag1B Ag -0.8750 0.69426(3) 0.1250
Ag1P Ag -2.1250 0.44426(3) -0.1250
Ag2B Ag -0.8750 0.6250 0.17775(2)
Ag2_2 Ag -1.8750 0.6250 0.07225(2)
Ag2B_2 Ag -1.8750 0.6250 0.17775(2)
Ag2P Ag -2.1250 0.3750 -0.07225(2)
Ag3D Ag -0.2500 0.5000 0.2500
Ag3F Ag -0.2500 0.7500 0.0000
Cl1_2 Cl -0.3750 0.6250 0.1250
C1D C -0.547(3) 0.5640(3) 0.2167(2)
C1F C -0.547(3) 0.6860(3) 0.0333(2)
C1P C -1.797(3) 0.4360(3) -0.0333(2)
C2D C -0.544(3) 0.5232(2) 0.1859(2)
C2F C -0.544(3) 0.7268(2) 0.0641(2)
C2P C -1.794(3) 0.4768(2) -0.0641(2)
N1D N -0.678(2) 0.54935(19) 0.17039(16)
N1F N -0.678(2) 0.70065(19) 0.07961(16)
N1P N -1.928(2) 0.45065(19) -0.07961(16)
N1B N -1.072(2) 0.70065(19) 0.17039(16)
N2D N -0.684(2) 0.57599(18) 0.19065(15)
N2F N -0.684(2) 0.67401(18) 0.05935(15)
N2P N -1.934(2) 0.42401(18) -0.05935(15)
N2B N -1.066(2) 0.67401(18) 0.19065(15)
N3D N -0.462(2) 0.5311(2) 0.2152(2)
N3F N -0.462(2) 0.7189(2) 0.0348(2)
N3P N -1.712(2) 0.4689(2) -0.0348(2)
N3X N -0.038(2) 0.4689(2) 0.2848(2)
N4D N -0.515(8) 0.4904(5) 0.1732(5)
N4F N -0.515(8) 0.7596(5) 0.0768(5)
N4P N -1.765(8) 0.5096(5) -0.0768(5)
H3D H -0.4432 0.4730 0.1851
H3F H -0.4432 0.7770 0.0649
H3P H -1.6932 0.5270 -0.0649
H4D H -0.5725 0.4871 0.1532
H4F H -0.5725 0.7629 0.0968
H4P H -1.8225 0.5129 -0.0968
N5D N -0.529(7) 0.5849(5) 0.2441(4)
N5F N -0.529(7) 0.6651(5) 0.0059(4)
N5P N -1.779(7) 0.4151(5) -0.0059(4)
H5D H -0.4540 0.5758 0.2621
H5F H -0.4540 0.6742 -0.0121
H5P H -1.7040 0.4242 0.0121
H6D H -0.5915 0.6069 0.2431
H6F H -0.5915 0.6431 0.0069
H6P H -1.8415 0.3931 -0.0069
O1 O -0.293(18) 0.5562(11) -0.0505(10)
H1 H -0.4892 0.5602 -0.0611
loop_
_geom_bond_atom_site_label_1
_geom_bond_atom_site_label_2
_geom_bond_site_symmetry_1
_geom_bond_site_symmetry_2
O1 H1 1_555 1_555
O2 H2 1_555 1_555
Ag1 N1 1_555 1_555
Ag2 Cl1 1_555 1_555
Ag3 N3 1_555 1_555
Cl1 Ag2B 1_555 1_555
C1 N2 1_555 1_555
C2 N1 1_555 1_555
N1 N2 1_555 1_555
N2 Ag2 1_555 1_555
N3 C1 1_555 1_555
N4 C2 1_555 1_555
H3 N4 1_555 1_555
H4 N4 1_555 1_555
N5 C1 1_555 1_555
H5 N5 1_555 1_555
H6 N5 1_555 1_555
Ag1B N1F 1_555 1_555
Ag1P N1P 1_555 1_555
Ag2B Cl1_2 1_555 1_555
Ag2_2 Cl1 1_555 1_555
Ag2B_2 Cl1 1_555 1_555
Ag2P N2P 1_555 1_555
Ag3D N3D 1_555 1_555
Ag3F N3F 1_555 1_555
Cl1_2 Ag2 1_555 1_555
C1D N2D 1_555 1_555
C1F N2F 1_555 1_555
C1P N2P 1_555 1_555
C2D N1D 1_555 1_555
C2F N1F 1_555 1_555
C2P N1P 1_555 1_555
N1D Ag1 1_555 1_555
N1F N2F 1_555 1_555
N1P N2P 1_555 1_555
N1B Ag1B 1_555 1_555
N2D Ag2B 1_555 1_555
N2F Ag2 1_555 1_555
N2B Ag2B 1_555 1_555
N3D C1D 1_555 1_555
N3F C1F 1_555 1_555
N3P Ag3 1_555 1_555
N3X Ag3D 1_555 1_555
N4D C2D 1_555 1_555
N4F C2F 1_555 1_555
N4P C2P 1_555 1_555
H3D N4D 1_555 1_555
H3F N4F 1_555 1_555
H3P N4P 1_555 1_555
H4D N4D 1_555 1_555
H4F N4F 1_555 1_555
H4P N4P 1_555 1_555
N5D C1D 1_555 1_555
N5F C1F 1_555 1_555
N5P C1P 1_555 1_555
H5D N5D 1_555 1_555
H5F N5F 1_555 1_555
H5P N5P 1_555 1_555
H6D N5D 1_555 1_555
H6F N5F 1_555 1_555
H6P N5P 1_555 1_555
C2 N3 1_555 1_555
C1P N3P 1_555 1_555
C2D N3D 1_555 1_555
C2F N3F 1_555 1_555
C2P N3P 1_555 1_555
N1D N2D 1_555 1_555
N1B N2B 1_555 1_555

#END
