
#######################################################################
#
#                 Cambridge Crystallographic Data Centre
#                                CCDC 
#
#######################################################################
#
# If this CIF has been generated from an entry in the Cambridge 
# Structural Database, then it will include bibliographic, chemical, 
# crystal, experimental, refinement or atomic coordinate data resulting 
# from the CCDC's data processing and validation procedures.
#
#######################################################################

data_MAXHUP
_chemical_formula_moiety         'C8 H20 Ag14 Cl4 N23 O2'
_symmetry_cell_setting           tetragonal
_symmetry_space_group_name_H-M   'P -4 n 2'
_symmetry_Int_Tables_number      118
_space_group_name_Hall           'P -4 -2n'
loop_
_symmetry_equiv_pos_site_id
_symmetry_equiv_pos_as_xyz
1 x,y,z
2 -x,-y,z
3 y,-x,-z
4 -y,x,-z
5 1/2+x,1/2-y,1/2+z
6 1/2-x,1/2+y,1/2+z
7 1/2+y,1/2+x,1/2-z
8 1/2-y,1/2-x,1/2-z
_cell_length_a                   19.598(2)
_cell_length_b                   19.598(2)
_cell_length_c                   3.5015(4)
_cell_angle_alpha                90
_cell_angle_beta                 90
_cell_angle_gamma                90
_cell_volume                     1344.86
loop_
_atom_site_label
_atom_site_type_symbol
_atom_site_fract_x
_atom_site_fract_y
_atom_site_fract_z
O2 O -0.029(6) 0.596(5) -1.33(4)
H2 H -0.0754 0.5823 -1.3720
H3 H 0.0020 0.5872 -1.5342
Ag1 Ag 0.46241(9) 0.62253(8) 0.0042(7)
Ag2 Ag 0.17726(13) 0.67726(13) -0.7500
Cl1 Cl 0.5000 0.5000 0.5000
C1 C 0.2696(7) 0.5610(7) -0.381(5)
C2 C 0.3192(7) 0.6560(7) -0.376(6)
N1 N 0.3623(8) 0.6117(7) -0.223(6)
N2 N 0.2600(7) 0.6264(7) -0.462(5)
N3 N 0.3303(6) 0.5508(7) -0.216(5)
N4 N 0.3373(11) 0.7263(9) -0.389(7)
H4 H 0.3758 0.7397 -0.2981
H5 H 0.3096 0.7555 -0.4883
N5 N 0.2174(11) 0.5100(9) -0.386(7)
H6 H 0.1761 0.5224 -0.4299
H7 H 0.2265 0.4678 -0.3412
Ag1F Ag 0.12253(8) 0.96241(9) -1.5042(7)
Ag1C Ag 0.37747(8) 0.46241(9) -0.0042(7)
Ag1D Ag -0.03759(9) 0.87747(8) -1.4958(7)
Ag1_2 Ag 0.46241(9) 0.62253(8) 1.0042(7)
Ag1A Ag 0.53759(9) 0.37747(8) 0.0042(7)
Ag1A_2 Ag 0.53759(9) 0.37747(8) 1.0042(7)
Ag1B Ag 0.62253(8) 0.53759(9) -0.0042(7)
Ag1B_2 Ag 0.62253(8) 0.53759(9) 0.9958(7)
Ag1C_2 Ag 0.37747(8) 0.46241(9) 0.9958(7)
Ag1E Ag 0.03759(9) 1.12253(8) -1.4958(7)
Ag2B Ag 0.67726(13) 0.82274(13) 0.7500
Ag2C Ag 0.32274(13) 1.17726(13) -2.2500
Cl1_2 Cl 0.5000 0.5000 -0.5000
Cl1D Cl -0.0000 1.0000 -2.0000
Cl1D_2 Cl -0.0000 1.0000 -1.0000
C1F C 0.0610(7) 0.7696(7) -1.119(5)
C1B C 0.5610(7) 0.7304(7) 0.381(5)
C1E C 0.2304(7) 1.0610(7) -1.881(5)
C2F C 0.1560(7) 0.8192(7) -1.124(6)
C2B C 0.6560(7) 0.6808(7) 0.376(6)
C2E C 0.1808(7) 1.1560(7) -1.876(6)
N1F N 0.1117(7) 0.8623(8) -1.277(6)
N1B N 0.6117(7) 0.6377(8) 0.223(6)
N1E N 0.1377(8) 1.1117(7) -1.723(6)
N1C N 0.3883(7) 0.3623(8) 0.223(6)
N1D N -0.1377(8) 0.8883(7) -1.723(6)
N2F N 0.1264(7) 0.7600(7) -1.038(5)
N2B N 0.6264(7) 0.7400(7) 0.462(5)
N2E N 0.2400(7) 1.1264(7) -1.962(5)
N2D N 0.7600(7) 0.8736(7) 1.038(5)
N3F N 0.0508(7) 0.8303(6) -1.284(5)
N3B N 0.5508(7) 0.6697(6) 0.216(5)
N3E N 0.1697(6) 1.0508(7) -1.716(5)
N4F N 0.2263(9) 0.8373(11) -1.111(7)
N4B N 0.7263(9) 0.6627(11) 0.389(7)
N4E N 0.1627(11) 1.2263(9) -1.889(7)
H4F H 0.2397 0.8758 -1.2019
H4B H 0.7397 0.6242 0.2981
H4E H 0.1242 1.2397 -1.7981
H5F H 0.2555 0.8096 -1.0117
H5B H 0.7555 0.6904 0.4883
H5E H 0.1904 1.2555 -1.9883
N5F N 0.0100(9) 0.7174(11) -1.114(7)
N5B N 0.5100(9) 0.7826(11) 0.386(7)
N5E N 0.2826(11) 1.0100(9) -1.886(7)
H6F H 0.0224 0.6761 -1.0701
H6B H 0.5224 0.8239 0.4299
H6E H 0.3239 1.0224 -1.9299
H7F H -0.0322 0.7265 -1.1588
H7B H 0.4678 0.7735 0.3412
H7E H 0.2735 0.9678 -1.8412
O1 O 0.0754(17) 0.5754(17) -0.7500
H1 H 0.0612 0.5529 -0.9978
H1F H 0.0529 0.5612 -0.5022
loop_
_geom_bond_atom_site_label_1
_geom_bond_atom_site_label_2
_geom_bond_site_symmetry_1
_geom_bond_site_symmetry_2
O1 H1 1_555 1_555
O2 H2 1_555 1_555
H3 O2 1_555 1_555
Ag1 Cl1 1_555 1_555
Ag2 N2 1_555 1_555
Cl1 Ag1C 1_555 1_555
C1 N2 1_555 1_555
C2 N1 1_555 1_555
N1 Ag1 1_555 1_555
N2 C2 1_555 1_555
N3 C1 1_555 1_555
N4 C2 1_555 1_555
H4 N4 1_555 1_555
H5 N4 1_555 1_555
N5 C1 1_555 1_555
H6 N5 1_555 1_555
H7 N5 1_555 1_555
H1F O1 1_555 1_555
Ag1F Cl1D 1_555 1_555
Ag1C N3 1_555 1_555
Ag1D Cl1D 1_555 1_555
Ag1_2 Cl1 1_555 1_555
Ag1A Cl1 1_555 1_555
Ag1A_2 Cl1 1_555 1_555
Ag1B Cl1 1_555 1_555
Ag1B_2 Cl1 1_555 1_555
Ag1C_2 Cl1 1_555 1_555
Ag1E Cl1D 1_555 1_555
Ag2B N2B 1_555 1_555
Ag2C N2E 1_555 1_555
Cl1_2 Ag1 1_555 1_555
Cl1D_2 Ag1F 1_555 1_555
C1F N2F 1_555 1_555
C1B N2B 1_555 1_555
C1E N2E 1_555 1_555
C2F N1F 1_555 1_555
C2B N1B 1_555 1_555
C2E N1E 1_555 1_555
N1F Ag1F 1_555 1_555
N1B Ag1B 1_555 1_555
N1E Ag1E 1_555 1_555
N1C Ag1C 1_555 1_555
N1D Ag1D 1_555 1_555
N2F Ag2 1_555 1_555
N2B C2B 1_555 1_555
N2E C2E 1_555 1_555
N2D Ag2B 1_555 1_555
N3F Ag1D 1_555 1_555
N3B Ag1 1_555 1_555
N3E Ag1F 1_555 1_555
N4F C2F 1_555 1_555
N4B C2B 1_555 1_555
N4E C2E 1_555 1_555
H4F N4F 1_555 1_555
H4B N4B 1_555 1_555
H4E N4E 1_555 1_555
H5F N4F 1_555 1_555
H5B N4B 1_555 1_555
H5E N4E 1_555 1_555
N5F C1F 1_555 1_555
N5B C1B 1_555 1_555
N5E C1E 1_555 1_555
H6F N5F 1_555 1_555
H6B N5B 1_555 1_555
H6E N5E 1_555 1_555
H7F N5F 1_555 1_555
H7B N5B 1_555 1_555
H7E N5E 1_555 1_555
N1 N3 1_555 1_555
Ag1C Cl1_2 1_555 1_555
Ag1D Cl1D_2 1_555 1_555
Ag1A Cl1_2 1_555 1_555
Ag1B Cl1_2 1_555 1_555
Ag1E Cl1D_2 1_555 1_555
C1F N3F 1_555 1_555
C1B N3B 1_555 1_555
C1E N3E 1_555 1_555
C2F N2F 1_555 1_555
N1F N3F 1_555 1_555
N1B N3B 1_555 1_555
N1E N3E 1_555 1_555

#END
