
#######################################################################
#
#                 Cambridge Crystallographic Data Centre
#                                CCDC 
#
#######################################################################
#
# If this CIF has been generated from an entry in the Cambridge 
# Structural Database, then it will include bibliographic, chemical, 
# crystal, experimental, refinement or atomic coordinate data resulting 
# from the CCDC's data processing and validation procedures.
#
#######################################################################

data_OWETIU
_chemical_formula_moiety         '(C50 H72 Ag7 N20 O63 P2 W18)n'
_symmetry_cell_setting           triclinic
_symmetry_space_group_name_H-M   'P -1'
_symmetry_Int_Tables_number      2
_space_group_name_Hall           '-P 1'
loop_
_symmetry_equiv_pos_site_id
_symmetry_equiv_pos_as_xyz
1 x,y,z
2 -x,-y,-z
_cell_length_a                   15.6160(12)
_cell_length_b                   17.3650(13)
_cell_length_c                   19.9620(15)
_cell_angle_alpha                75.8130(10)
_cell_angle_beta                 89.4680(9)
_cell_angle_gamma                76.0360(9)
_cell_volume                     5085.79
loop_
_atom_site_label
_atom_site_type_symbol
_atom_site_fract_x
_atom_site_fract_y
_atom_site_fract_z
_atom_site_U_iso_or_equiv
_atom_site_thermal_displace_type
W1 W -0.61713(5) 0.50290(4) 0.68695(3) 0.0214 Uani
W2 W -0.90180(5) 0.07014(4) 0.63805(4) 0.0225 Uani
W3 W -0.61863(4) 0.34339(4) 0.59424(3) 0.0167 Uani
W4 W -0.81739(4) 0.10465(4) 0.92643(3) 0.0160 Uani
W5 W -0.75627(4) -0.06831(4) 0.75925(4) 0.0209 Uani
W6 W -0.82741(4) 0.45522(4) 0.64874(3) 0.0183 Uani
W7 W -0.70966(4) 0.26991(4) 0.94690(3) 0.0166 Uani
W8 W -0.62668(4) 0.00290(4) 0.87536(3) 0.0166 Uani
W9 W -0.72954(4) 0.18060(4) 0.57453(3) 0.0157 Uani
W10 W -0.58412(4) 0.03940(4) 0.69066(3) 0.0151 Uani
W11 W -0.65483(5) 0.46401(4) 0.85765(4) 0.0223 Uani
W12 W -0.93679(4) 0.29015(4) 0.63144(3) 0.0183 Uani
W13 W -0.51892(4) 0.16958(4) 0.89490(3) 0.0173 Uani
W14 W -0.86771(4) 0.42361(4) 0.81769(3) 0.0179 Uani
W15 W -0.94709(4) 0.03943(4) 0.80661(4) 0.0213 Uani
W16 W -0.47567(4) 0.20286(4) 0.71137(3) 0.0164 Uani
W17 W -0.46634(4) 0.36359(4) 0.80309(4) 0.0213 Uani
W18 W -0.97924(4) 0.25964(4) 0.80029(3) 0.0178 Uani
Ag1 Ag -0.27200(14) 0.05105(12) 0.91318(11) 0.0642 Uani
Ag2 Ag -0.96592(12) 0.42813(13) 0.46368(10) 0.0606 Uani
Ag3 Ag -0.09580(11) 0.58564(10) 0.76254(8) 0.0421 Uani
Ag4 Ag -0.0000 -0.5000 1.0000 0.0682 Uani
Ag5 Ag -0.5000 0.5000 0.0000 0.0597 Uani
Ag6 Ag 0.5000 1.5000 0.5000 0.0356 Uani
Ag7 Ag 0.58495(10) 0.93844(11) 0.55089(9) 0.0450 Uani
Ag8 Ag 0.0000 0.0000 1.0000 0.0308 Uani
Ag9 Ag -0.40365(13) -0.06047(13) 0.96744(10) 0.0642 Uani
P1 P -0.7821(2) 0.1414(2) 0.74913(19) 0.0097 Uani
P2 P -0.6667(2) 0.3153(2) 0.76931(19) 0.0111 Uani
O1 O -0.4968(7) 0.4579(7) 0.7284(6) 0.0211 Uani
O3 O -0.5284(7) 0.4291(6) 0.8621(5) 0.0185 Uani
O4 O -0.8613(7) -0.0636(6) 0.8077(6) 0.0195 Uani
O5 O -0.4935(7) 0.1560(6) 0.8053(5) 0.0221 Uani
O6 O -0.5886(7) 0.4276(7) 0.6316(5) 0.0186 Uani
O7 O -0.5464(7) -0.0803(7) 0.9178(6) 0.0256 Uani
O8 O -0.9470(8) 0.4809(7) 0.8557(6) 0.0310 Uani
O9 O -0.6675(7) -0.0265(6) 0.7060(5) 0.0164 Uani
O10 O -0.8280(7) 0.2620(6) 0.5895(5) 0.0203 Uani
O11 O -0.6283(7) 0.0878(6) 0.5982(5) 0.0170 Uani
O12 O -0.6961(6) -0.0541(6) 0.8363(5) 0.0140 Uani
O13 O -0.8896(7) 0.4883(6) 0.7249(6) 0.0230 Uani
O14 O -0.7158(7) 0.0157(6) 0.9438(5) 0.0177 Uani
O15 O -0.7383(6) 0.3949(6) 0.6039(5) 0.0156 Uani
O16 O -0.4823(7) 0.2680(6) 0.8722(6) 0.0235 Uani
O17 O -0.6469(7) 0.5384(6) 0.7696(6) 0.0229 Uani
O18 O -1.0157(6) 0.3008(7) 0.7042(5) 0.0182 Uani
O19 O -0.8974(6) 0.3825(6) 0.6462(5) 0.0174 Uani
O20 O -0.5020(6) 0.2738(6) 0.6217(5) 0.0150 Uani
O21 O -0.6689(9) 0.5280(7) 0.9105(6) 0.0292 Uani
O22 O -0.9356(7) 0.3538(6) 0.7980(5) 0.0185 Uani
O23 O -0.5802(7) 0.0834(6) 0.9012(6) 0.0209 Uani
O24 O -0.6038(9) 0.5905(7) 0.6327(6) 0.0346 Uani
O25 O -0.8103(7) 0.3347(7) 0.8940(5) 0.0199 Uani
O26 O -0.3594(7) 0.3612(7) 0.8208(6) 0.0278 Uani
O27 O -0.8055(7) 0.1077(6) 0.5939(5) 0.0174 Uani
O28 O -0.7749(7) 0.4719(6) 0.8288(5) 0.0216 Uani
O29 O -1.0760(7) 0.2881(6) 0.8363(6) 0.0242 Uani
O30 O -0.5287(7) 0.1276(7) 0.6849(5) 0.0211 Uani
O31 O -0.7477(7) 0.1757(6) 0.9452(5) 0.0193 Uani
O32 O -0.8746(7) 0.0456(6) 0.8824(5) 0.0188 Uani
O33 O -0.4263(7) 0.1063(7) 0.9403(6) 0.0248 Uani
O34 O -0.9766(6) 0.0461(6) 0.7139(5) 0.0172 Uani
O35 O -0.6616(7) 0.3655(6) 0.9201(5) 0.0212 Uani
O36 O -0.8268(7) -0.0369(6) 0.6745(5) 0.0209 Uani
O37 O -0.4529(7) 0.2932(6) 0.7425(5) 0.0208 Uani
O38 O -1.0088(7) 0.3444(7) 0.5615(5) 0.0211 Uani
O39 O -0.8808(8) 0.5359(7) 0.5820(5) 0.0288 Uani
O40 O -0.6183(6) 0.3843(6) 0.7763(5) 0.0128 Uani
O41 O -0.9583(8) 0.0568(8) 0.5717(6) 0.0326 Uani
O42 O -0.6550(7) 0.2522(6) 0.5843(5) 0.0230 Uani
O43 O -0.5764(7) 0.0260(6) 0.7887(5) 0.0168 Uani
O44 O -1.0296(8) 0.0011(7) 0.8489(6) 0.0278 Uani
O45 O -0.8519(6) 0.2226(6) 0.7341(5) 0.0139 Uani
O46 O -0.6232(6) 0.2774(6) 0.7130(5) 0.0096 Uani
O47 O -0.4951(7) -0.0324(7) 0.6775(6) 0.0247 Uani
O48 O -0.7117(7) 0.1433(6) 0.6961(5) 0.0148 Uani
O49 O -0.6066(7) 0.3828(7) 0.5091(5) 0.0223 Uani
O50 O -0.8622(7) 0.0838(7) 1.0052(5) 0.0250 Uani
O51 O -0.6544(7) 0.2518(6) 0.8394(5) 0.0153 Uani
O52 O -0.7319(7) 0.1967(7) 0.4872(6) 0.0251 Uani
O53 O -0.7432(7) 0.1180(6) 0.8229(5) 0.0187 Uani
O54 O -0.7380(7) 0.2771(6) 1.0276(6) 0.0231 Uani
O55 O -0.8994(7) 0.2007(6) 0.8782(5) 0.0182 Uani
O56 O -0.3705(6) 0.1567(7) 0.7060(6) 0.0208 Uani
O57 O -0.7619(6) 0.3572(5) 0.7508(5) 0.0113 Uani
O58 O -0.7207(8) -0.1719(7) 0.7674(6) 0.0305 Uani
O59 O -0.7363(7) 0.5064(6) 0.6691(6) 0.0231 Uani
O60 O -0.9498(7) 0.1856(7) 0.6337(6) 0.0206 Uani
O61 O -0.8266(6) 0.0729(6) 0.7421(5) 0.0130 Uiso
O62 O -0.9899(6) 0.1538(6) 0.7935(5) 0.0163 Uani
O63 O -0.5904(7) 0.2017(6) 0.9655(5) 0.0176 Uani
C1 C -0.1656(11) 0.1287(10) 1.0205(10) 0.0281 Uani
H1 H -0.1497 0.1180 1.0672 0.0340 Uiso
C2 C -0.2759(12) 0.2810(11) 1.0559(10) 0.0338 Uani
H2 H -0.3250 0.3153 1.0735 0.0410 Uiso
H3 H -0.2407 0.2446 1.0963 0.0410 Uiso
C3 C 0.7063(12) 1.4216(13) 0.5173(10) 0.0477 Uani
H4 H 0.7162 1.4477 0.4724 0.0570 Uiso
C4 C 0.1336(13) 0.8214(13) 0.5895(12) 0.0471 Uani
H5 H 0.0820 0.8635 0.5677 0.0560 Uiso
H6 H 0.1379 0.8218 0.6379 0.0560 Uiso
C5 C -0.3172(12) 0.2255(11) 1.0226(10) 0.0352 Uani
H7 H -0.3411 0.1881 1.0576 0.0420 Uiso
H8 H -0.3643 0.2584 0.9888 0.0420 Uiso
C6 C 0.4188(14) 0.7852(14) 0.5180(11) 0.0473 Uani
H9 H 0.4057 0.7447 0.4998 0.0570 Uiso
C7 C 0.4893(13) 0.8258(12) 0.4999(11) 0.0370 Uani
H10 H 0.5310 0.8179 0.4671 0.0440 Uiso
C8 C -0.1828(14) -0.2098(14) 0.8033(12) 0.0519 Uani
H11 H -0.2135 -0.2408 0.7821 0.0620 Uiso
H12 H -0.1518 -0.2463 0.8454 0.0620 Uiso
C9 C -0.3621(16) -0.0370(15) 0.8141(12) 0.0544 Uani
H13 H -0.4126 0.0048 0.7980 0.0650 Uiso
C10 C -0.1649(13) 0.1280(12) 0.9111(11) 0.0406 Uani
H14 H -0.1332 0.1421 0.8690 0.0490 Uiso
C11 C -0.5092(13) 0.3737(14) 0.1426(13) 0.0509 Uani
H15 H -0.4991 0.4111 0.1659 0.0610 Uiso
C12 C -0.2456(18) -0.1168(17) 0.8738(14) 0.0681 Uani
H16 H -0.2010 -0.1391 0.9086 0.0820 Uiso
C13 C -0.5243(15) 0.3253(15) 0.0610(15) 0.0605 Uani
H17 H -0.5285 0.3140 0.0182 0.0720 Uiso
C14 C -0.6209(16) 0.3606(19) 0.2946(15) 0.0758 Uani
H18 H -0.6598 0.3237 0.3016 0.0910 Uiso
H19 H -0.6380 0.3994 0.2501 0.0910 Uiso
C15 C 0.2101(14) 0.8378(16) 0.5570(11) 0.0572 Uani
H20 H 0.2028 0.8967 0.5432 0.0690 Uiso
H21 H 0.2154 0.8183 0.5152 0.0690 Uiso
C16 C -0.7802(16) 0.4169(16) 0.4102(10) 0.0519 Uani
H22 H -0.7610 0.3716 0.4474 0.0620 Uiso
C17 C -0.0311(15) -0.3118(17) 0.9872(12) 0.0553 Uani
H23 H -0.0557 -0.3148 1.0301 0.0660 Uiso
C18 C -0.2844(18) 0.3906(18) 0.9578(15) 0.0805 Uani
H24 H -0.3424 0.4143 0.9719 0.0970 Uiso
H25 H -0.2898 0.3602 0.9239 0.0970 Uiso
C19 C -0.1781(15) 0.4639(13) 0.8702(12) 0.0525 Uani
H26 H -0.1609 0.4218 0.8481 0.0630 Uiso
C20 C 0.0315(17) -0.2025(15) 0.8218(14) 0.0668 Uani
H27 H 0.0663 -0.2325 0.7917 0.0800 Uiso
H28 H 0.0658 -0.1686 0.8353 0.0800 Uiso
C21 C -0.3240(15) -0.0926(15) 0.7805(11) 0.0554 Uani
H29 H -0.3433 -0.0976 0.7382 0.0660 Uiso
C22 C -0.0593(16) -0.1444(15) 0.7799(12) 0.0555 Uani
H30 H -0.0922 -0.1141 0.8108 0.0670 Uiso
H31 H -0.0432 -0.1046 0.7419 0.0670 Uiso
C23 C -0.1148(19) -0.1806(16) 0.7537(12) 0.0673 Uani
H32 H -0.0796 -0.2274 0.7393 0.0810 Uiso
H33 H -0.1464 -0.1420 0.7127 0.0810 Uiso
C24 C -0.6348(15) 0.4056(15) 0.3483(12) 0.0508 Uani
H34 H -0.5998 0.4458 0.3390 0.0610 Uiso
H35 H -0.6128 0.3675 0.3924 0.0610 Uiso
C25 C -0.5232(17) 0.2720(15) 0.1233(16) 0.0695 Uani
H36 H -0.5280 0.2182 0.1302 0.0830 Uiso
C26 C -0.219(2) 0.3381(18) 1.0208(17) 0.0970 Uiso
H37 H -0.1644 0.3083 1.0060 0.1160 Uiso
H38 H -0.2062 0.3713 1.0502 0.1160 Uiso
C27 C -0.5274(18) 0.311(2) 0.2919(18) 0.0875 Uani
H39 H -0.5122 0.2727 0.3369 0.1050 Uiso
H40 H -0.4897 0.3488 0.2876 0.1050 Uiso
C28 C -0.5026(17) 0.2669(18) 0.2433(15) 0.0707 Uani
H41 H -0.4405 0.2393 0.2527 0.0860 Uiso
H42 H -0.5350 0.2246 0.2504 0.0860 Uiso
C29 C -0.791(2) 0.5055(17) 0.3096(16) 0.0782 Uani
H43 H -0.7839 0.5334 0.2647 0.0940 Uiso
C30 C 0.0201(12) -0.3443(12) 0.8954(11) 0.0371 Uani
H44 H 0.0381 -0.3739 0.8625 0.0450 Uiso
C31 C -0.0189(17) -0.2423(15) 0.9438(12) 0.0625 Uani
H45 H -0.0300 -0.1906 0.9524 0.0750 Uiso
C32 C 0.0324(12) 0.6653(12) 0.6687(11) 0.0347 Uani
H46 H 0.0788 0.6373 0.7011 0.0410 Uiso
C33 C -0.2440(14) 0.5358(13) 0.9409(11) 0.0423 Uani
H47 H -0.2792 0.5536 0.9746 0.0510 Uiso
C34 C 0.4131(14) 0.8769(13) 0.5797(11) 0.0445 Uani
H48 H 0.3942 0.9101 0.6097 0.0530 Uiso
C35 C 0.7019(12) 1.0227(11) 0.6150(10) 0.0326 Uani
H49 H 0.6533 1.0478 0.6359 0.0390 Uiso
C36 C 0.7806(13) 0.9527(13) 0.5537(11) 0.0428 Uani
H50 H 0.7974 0.9196 0.5232 0.0510 Uiso
C37 C 0.6414(11) 1.3765(10) 0.6084(9) 0.0249 Uani
H51 H 0.5977 1.3696 0.6396 0.0300 Uiso
C38 C 0.2978(13) 0.7981(14) 0.6027(11) 0.0467 Uani
H52 H 0.2922 0.8160 0.6453 0.0560 Uiso
H53 H 0.3069 0.7390 0.6149 0.0560 Uiso
C39 C 0.8390(11) 0.9861(11) 0.5862(11) 0.0357 Uani
H54 H 0.8996 0.9788 0.5820 0.0430 Uiso
C40 C -0.8645(17) 0.5152(13) 0.3398(12) 0.0529 Uani
H55 H -0.9158 0.5549 0.3214 0.0640 Uiso
C41 C 0.8022(11) 1.1645(10) 0.6321(9) 0.0270 Uani
H56 H 0.7406 1.1879 0.6166 0.0320 Uiso
H57 H 0.8377 1.1697 0.5918 0.0320 Uiso
C42 C 0.7636(13) 1.2844(12) 0.6873(9) 0.0396 Uani
H58 H 0.7165 1.2683 0.7150 0.0470 Uiso
H59 H 0.7927 1.3130 0.7124 0.0470 Uiso
C43 C 0.7721(12) 1.3741(12) 0.5675(10) 0.0384 Uani
H60 H 0.8330 1.3663 0.5649 0.0460 Uiso
C44 C 0.8285(14) 1.2090(13) 0.6800(13) 0.0510 Uani
H61 H 0.8829 1.2238 0.6647 0.0610 Uiso
H62 H 0.8417 1.1714 0.7255 0.0610 Uiso
C45 C 0.8155(11) 1.0772(11) 0.6685(11) 0.0340 Uani
H63 H 0.8777 1.0537 0.6819 0.0410 Uiso
H64 H 0.7829 1.0728 0.7103 0.0410 Uiso
C46 C 0.1245(17) 0.7380(16) 0.5837(14) 0.0659 Uani
H65 H 0.1295 0.7358 0.5356 0.0790 Uiso
H66 H 0.1732 0.6961 0.6103 0.0790 Uiso
C47 C -0.0458(16) 0.7450(16) 0.5772(13) 0.0594 Uani
H67 H -0.0632 0.7799 0.5336 0.0710 Uiso
C48 C -0.2049(17) 0.5778(16) 0.8948(13) 0.0659 Uani
H68 H -0.2048 0.6321 0.8920 0.0790 Uiso
C49 C -0.0957(14) 0.7119(13) 0.6214(11) 0.0423 Uani
H69 H -0.1569 0.7239 0.6156 0.0510 Uiso
C50 C -0.2412(12) 0.1800(11) 0.9209(10) 0.0320 Uani
H70 H -0.2660 0.2308 0.8856 0.0380 Uiso
N1 N -0.1184(9) 0.0990(9) 0.9755(8) 0.0283 Uani
N2 N -0.2484(11) -0.1426(11) 0.8216(9) 0.0437 Uani
N3 N -0.7232(14) 0.4461(11) 0.3542(10) 0.0571 Uani
N4 N -0.5143(11) 0.3089(11) 0.1730(11) 0.0487 Uani
N5 N -0.2238(14) 0.4617(12) 0.9302(9) 0.0585 Uani
N6 N 0.0125(12) -0.2625(10) 0.8856(9) 0.0433 Uani
N7 N -0.5185(11) 0.3943(12) 0.0712(10) 0.0504 Uani
N8 N 0.4814(11) 0.8778(11) 0.5411(9) 0.0410 Uani
N9 N 0.3754(11) 0.8193(9) 0.5679(8) 0.0347 Uani
N10 N -0.2435(9) 0.1787(8) 0.9882(8) 0.0263 Uani
N11 N 0.7249(9) 1.3406(9) 0.6229(7) 0.0291 Uani
N12 N 0.7858(9) 1.0311(8) 0.6248(8) 0.0283 Uani
N13 N 0.6969(10) 0.9761(11) 0.5736(8) 0.0389 Uani
N14 N 0.6252(9) 1.4242(9) 0.5442(8) 0.0295 Uani
N15 N -0.0021(12) -0.3756(13) 0.9589(9) 0.0512 Uani
N16 N -0.1644(10) 0.5362(10) 0.8512(9) 0.0412 Uani
N17 N -0.8575(11) 0.4615(10) 0.4005(10) 0.0455 Uani
N18 N 0.0392(10) 0.7176(9) 0.6082(8) 0.0324 Uani
N19 N -0.0501(10) 0.6595(10) 0.6754(8) 0.0347 Uani
N20 N -0.3171(12) -0.0499(12) 0.8748(10) 0.0535 Uani
Ag2A Ag -1.03408(12) 0.57187(13) 0.53632(10) 0.0606 Uani
O39A O -1.1192(8) 0.4641(7) 0.4180(5) 0.0288 Uani
N1A N 0.1184(9) -0.0990(9) 1.0245(8) 0.0283 Uani
N7A N -0.4815(11) 0.6057(12) -0.0712(10) 0.0504 Uani
N14A N 0.3748(9) 1.5758(9) 0.4558(8) 0.0295 Uani
N15A N 0.0021(12) -0.6244(13) 1.0411(9) 0.0512 Uani
O2 O -0.7927(10) -0.3166(10) 0.7642(11) 0.0779 Uani
loop_
_atom_site_aniso_label
_atom_site_aniso_U_11
_atom_site_aniso_U_22
_atom_site_aniso_U_33
_atom_site_aniso_U_23
_atom_site_aniso_U_13
_atom_site_aniso_U_12
W1 0.0269(4) 0.0191(3) 0.0219(4) -0.0059(3) 0.0007(3) -0.0120(3)
W2 0.0251(4) 0.0274(4) 0.0223(4) -0.0118(3) 0.0012(3) -0.0146(3)
W3 0.0203(3) 0.0194(3) 0.0131(3) -0.0055(3) 0.0023(3) -0.0086(3)
W4 0.0194(3) 0.0181(3) 0.0136(3) -0.0065(3) 0.0036(3) -0.0082(3)
W5 0.0242(4) 0.0178(3) 0.0258(4) -0.0108(3) 0.0055(3) -0.0098(3)
W6 0.0185(3) 0.0169(3) 0.0185(3) -0.0032(3) -0.0017(3) -0.0035(3)
W7 0.0203(3) 0.0184(3) 0.0143(3) -0.0079(3) 0.0019(3) -0.0071(3)
W8 0.0199(3) 0.0158(3) 0.0142(3) -0.0045(2) 0.0007(3) -0.0038(3)
W9 0.0177(3) 0.0202(3) 0.0129(3) -0.0078(3) 0.0012(2) -0.0080(3)
W10 0.0153(3) 0.0171(3) 0.0159(3) -0.0086(3) 0.0030(2) -0.0051(3)
W11 0.0286(4) 0.0225(3) 0.0231(4) -0.0127(3) 0.0039(3) -0.0128(3)
W12 0.0140(3) 0.0229(3) 0.0194(3) -0.0075(3) -0.0018(3) -0.0046(3)
W13 0.0184(3) 0.0191(3) 0.0144(3) -0.0049(3) -0.0017(3) -0.0039(3)
W14 0.0178(3) 0.0169(3) 0.0206(3) -0.0088(3) 0.0027(3) -0.0033(3)
W15 0.0229(4) 0.0228(4) 0.0243(4) -0.0109(3) 0.0061(3) -0.0125(3)
W16 0.0152(3) 0.0193(3) 0.0172(3) -0.0077(3) 0.0032(3) -0.0059(3)
W17 0.0205(4) 0.0236(4) 0.0244(4) -0.0102(3) -0.0012(3) -0.0098(3)
W18 0.0148(3) 0.0196(3) 0.0221(4) -0.0103(3) 0.0031(3) -0.0049(3)
Ag1 0.0651(13) 0.0606(12) 0.0727(14) -0.0271(10) -0.0055(10) -0.0153(10)
Ag2 0.0476 0.0777 0.0596 -0.0175 0.0073 -0.0211
Ag3 0.0462(9) 0.0450(9) 0.0388(9) -0.0094(7) 0.0147(7) -0.0200(8)
Ag4 0.076(2) 0.0598(17) 0.0718(19) -0.0006(15) 0.0068(15) -0.0384(15)
Ag5 0.0465 0.0661 0.0595 -0.004 0.0008 -0.0124
Ag6 0.0220(10) 0.0346(11) 0.0414(12) 0.0077(9) -0.0051(9) -0.0074(9)
Ag7 0.0408(9) 0.0583(10) 0.0572(11) -0.0351(9) 0.0114(8) -0.0320(8)
Ag8 0.0224(10) 0.0256(10) 0.0385(11) -0.0026(9) 0.0044(8) -0.0003(8)
Ag9 0.0705(13) 0.0673(13) 0.0504(11) -0.0048(10) 0.0019(10) -0.0185(11)
P1 0.0080(18) 0.0137(19) 0.0102(18) -0.0061(15) 0.0012(14) -0.0051(15)
P2 0.015(2) 0.0088(18) 0.0113(19) -0.0045(15) 0.0009(15) -0.0041(15)
O1 0.019(5) 0.028(5) 0.024(5) -0.006(4) 0.004(4) -0.021(4)
O3 0.019(6) 0.018(6) 0.021(6) -0.013(5) 0.003(5) -0.001(5)
O4 0.019(6) 0.018(6) 0.027(6) -0.012(5) 0.015(5) -0.009(5)
O5 0.032(7) 0.020(6) 0.013(6) -0.011(5) 0.001(5) 0.003(5)
O6 0.015(6) 0.027(6) 0.019(6) -0.009(5) 0.006(4) -0.012(5)
O7 0.029(7) 0.019(6) 0.024(6) -0.002(5) 0.000(5) 0.000(5)
O8 0.040(7) 0.020(6) 0.029(7) -0.009(5) 0.009(6) 0.003(5)
O9 0.019(6) 0.019(5) 0.015(5) -0.010(4) 0.000(4) -0.006(5)
O10 0.020(6) 0.019(6) 0.021(6) -0.005(5) 0.000(5) -0.003(5)
O11 0.024(6) 0.019(6) 0.008(5) -0.002(4) 0.005(4) -0.007(5)
O12 0.016(5) 0.014(5) 0.018(5) -0.006(4) 0.005(4) -0.013(4)
O13 0.028(6) 0.012(5) 0.023(6) -0.002(5) 0.000(5) 0.004(5)
O14 0.022(5) 0.020(5) 0.007(5) -0.001(4) 0.004(4) 0.000(4)
O15 0.016(5) 0.022(6) 0.014(5) -0.007(4) 0.004(4) -0.012(5)
O16 0.031(7) 0.017(6) 0.022(6) -0.002(5) 0.003(5) -0.008(5)
O17 0.029(6) 0.017(6) 0.024(6) -0.004(5) 0.000(5) -0.009(5)
O18 0.008(5) 0.029(6) 0.024(6) -0.013(5) 0.001(4) -0.010(5)
O19 0.014(5) 0.017(5) 0.025(6) -0.010(5) -0.007(5) -0.006(4)
O20 0.014(5) 0.025(5) 0.008(4) -0.008(4) 0.006(4) -0.005(4)
O21 0.058(8) 0.018(6) 0.017(6) -0.012(5) 0.007(6) -0.012(6)
O22 0.018(6) 0.021(6) 0.014(5) -0.007(5) -0.008(4) 0.003(5)
O23 0.023(6) 0.019(6) 0.023(6) -0.008(5) 0.005(5) -0.007(5)
O24 0.053(8) 0.026(7) 0.020(6) 0.003(5) 0.012(6) -0.010(6)
O25 0.018(6) 0.031(6) 0.011(5) -0.006(5) 0.008(4) -0.006(5)
O26 0.022(6) 0.028(6) 0.032(7) -0.012(5) -0.003(5) 0.001(5)
O27 0.020(6) 0.023(6) 0.016(6) -0.005(5) 0.002(4) -0.018(5)
O28 0.033(7) 0.007(5) 0.020(6) -0.004(4) 0.000(5) 0.005(5)
O29 0.014(6) 0.018(6) 0.046(8) -0.015(5) 0.005(5) -0.007(5)
O30 0.027(6) 0.024(6) 0.017(6) -0.011(5) 0.003(5) -0.009(5)
O31 0.022(6) 0.017(6) 0.013(5) -0.002(4) 0.008(4) 0.004(5)
O32 0.022(6) 0.013(5) 0.021(6) -0.009(4) 0.009(5) 0.001(5)
O33 0.019(6) 0.039(7) 0.016(6) -0.006(5) -0.002(5) -0.007(5)
O34 0.008(5) 0.024(5) 0.025(5) -0.010(4) 0.000(4) -0.010(4)
O35 0.021(6) 0.021(6) 0.018(6) -0.002(5) -0.007(5) -0.001(5)
O36 0.029(6) 0.020(6) 0.022(6) -0.011(5) 0.010(5) -0.016(5)
O37 0.033(7) 0.023(6) 0.013(5) -0.015(5) 0.009(5) -0.009(5)
O38 0.017(6) 0.023(6) 0.021(6) -0.002(5) -0.009(5) -0.004(5)
O39 0.043(8) 0.020(6) 0.011(6) 0.005(5) -0.006(5) 0.007(5)
O40 0.012(5) 0.017(5) 0.013(5) -0.006(4) 0.000(4) -0.008(4)
O41 0.039(7) 0.038(7) 0.027(7) -0.011(6) -0.002(6) -0.018(6)
O42 0.037(7) 0.017(6) 0.015(6) -0.007(5) 0.007(5) -0.004(5)
O43 0.015(5) 0.025(6) 0.009(5) -0.004(4) 0.007(4) -0.003(5)
O44 0.037(7) 0.019(6) 0.031(7) -0.010(5) 0.012(6) -0.010(5)
O45 0.006(5) 0.017(5) 0.012(5) 0.003(4) -0.002(4) 0.003(4)
O46 0.015(5) 0.009(5) 0.010(5) -0.007(4) 0.005(4) -0.008(4)
O47 0.030(7) 0.018(6) 0.026(6) -0.012(5) 0.003(5) 0.001(5)
O48 0.021(6) 0.011(5) 0.012(5) -0.005(4) -0.003(4) -0.001(4)
O49 0.028(6) 0.035(7) 0.010(5) -0.009(5) 0.012(5) -0.016(5)
O50 0.028(6) 0.036(7) 0.013(6) -0.006(5) 0.004(5) -0.012(5)
O51 0.019(6) 0.017(5) 0.013(5) -0.005(4) -0.003(4) -0.009(4)
O52 0.028(6) 0.033(7) 0.018(6) -0.006(5) -0.002(5) -0.015(5)
O53 0.023(6) 0.017(5) 0.008(5) 0.001(4) 0.006(4) 0.006(5)
O54 0.034(7) 0.017(6) 0.021(6) -0.008(5) 0.003(5) -0.008(5)
O55 0.015(6) 0.021(6) 0.017(6) -0.008(5) 0.003(4) 0.002(5)
O56 0.006(5) 0.024(6) 0.033(7) -0.012(5) 0.006(5) 0.000(4)
O57 0.015(5) 0.005(5) 0.016(5) -0.003(4) -0.003(4) -0.006(4)
O58 0.040(7) 0.021(6) 0.033(7) -0.011(5) 0.011(6) -0.008(6)
O59 0.036(7) 0.013(5) 0.022(6) -0.008(5) 0.009(5) -0.006(5)
O60 0.015(6) 0.023(6) 0.028(6) -0.004(5) -0.002(5) -0.015(5)
O62 0.011(5) 0.020(6) 0.022(6) -0.010(5) 0.001(4) -0.007(4)
O63 0.026(6) 0.018(6) 0.009(5) -0.009(4) -0.002(4) 0.000(5)
C1 0.027(10) 0.023(9) 0.030(10) 0.004(8) 0.004(8) -0.009(8)
C2 0.036(8) 0.032(8) 0.040(8) -0.017(6) 0.005(7) -0.013(6)
C3 0.022(10) 0.064(14) 0.035(12) 0.014(10) 0.016(9) 0.004(10)
C4 0.036(8) 0.057(9) 0.062(9) -0.017(7) 0.004(7) -0.035(7)
C5 0.034(11) 0.028(10) 0.038(11) -0.008(8) 0.016(9) 0.002(8)
C6 0.060(15) 0.052(13) 0.039(12) -0.027(10) 0.022(11) -0.016(11)
C7 0.036(8) 0.039(8) 0.051(9) -0.027(7) 0.009(7) -0.022(7)
C8 0.049(14) 0.052(14) 0.046(13) -0.017(11) -0.003(11) 0.009(11)
C9 0.053(15) 0.050(14) 0.045(14) 0.008(12) -0.006(12) -0.004(12)
C10 0.044(12) 0.042(12) 0.040(12) -0.018(10) 0.017(10) -0.011(10)
C11 0.037 0.048 0.077 -0.04 -0.003 -0.003
C12 0.074(11) 0.070(11) 0.061(10) -0.025(8) -0.005(8) -0.010(8)
C13 0.05 0.055 0.09 -0.054 0.008 -0.002
C14 0.048 0.09 0.09 -0.024 -0.01 -0.016
C15 0.043(13) 0.090(19) 0.037(13) -0.006(12) 0.010(10) -0.024(13)
C16 0.074 0.082 0.014 -0.009 -0.002 -0.049
C17 0.043(13) 0.083(18) 0.048(14) -0.027(14) 0.003(11) -0.020(13)
C18 0.08(2) 0.11(2) 0.10(2) -0.08(2) 0.027(17) -0.061(19)
C19 0.068(16) 0.033(12) 0.063(16) -0.021(11) 0.018(13) -0.016(11)
C20 0.073(10) 0.057(10) 0.068(10) -0.019(8) 0.021(8) -0.009(8)
C21 0.047(14) 0.074(17) 0.030(12) 0.007(12) -0.015(10) -0.006(12)
C22 0.070(15) 0.054(14) 0.048(14) -0.010(11) 0.023(11) -0.029(12)
C23 0.10(2) 0.060(16) 0.042(14) -0.031(12) 0.017(14) -0.002(15)
C24 0.049 0.064 0.05 -0.016 -0.004 -0.032
C25 0.07 0.032 0.1 -0.016 0.006 -0.001
C27 0.055 0.1 0.1 0 -0.003 -0.03
C28 0.041 0.08 0.08 -0.006 -0.027 -0.007
C29 0.095 0.063 0.073 -0.016 0.01 -0.014
C30 0.037(8) 0.039(8) 0.049(9) -0.023(7) 0.005(7) -0.023(7)
C31 0.083(19) 0.047(14) 0.051(15) -0.025(12) 0.031(13) 0.008(13)
C32 0.021(10) 0.042(11) 0.050(12) -0.019(10) 0.000(9) -0.017(8)
C33 0.051(13) 0.052(13) 0.041(12) -0.022(10) 0.018(10) -0.035(11)
C34 0.055(14) 0.048(13) 0.045(13) -0.031(10) 0.022(11) -0.021(11)
C35 0.022(9) 0.038(11) 0.051(12) -0.021(9) -0.001(8) -0.022(8)
C36 0.035(12) 0.053(13) 0.048(13) -0.026(11) 0.006(10) -0.012(10)
C37 0.016(7) 0.024(7) 0.037(8) -0.008(6) 0.009(6) -0.009(6)
C38 0.044(13) 0.053(14) 0.046(13) -0.020(11) 0.011(10) -0.010(11)
C39 0.011(9) 0.032(10) 0.069(14) -0.025(10) 0.004(9) -0.002(8)
C40 0.063 0.035 0.058 -0.005 -0.013 -0.013
C41 0.027(7) 0.028(7) 0.031(7) -0.005(6) -0.013(6) -0.018(6)
C42 0.040(12) 0.045(12) 0.021(10) -0.007(9) -0.011(8) 0.013(9)
C43 0.025(10) 0.045(12) 0.039(11) 0.001(9) 0.009(9) -0.009(9)
C44 0.045(13) 0.047(13) 0.071(16) -0.021(12) -0.021(11) -0.023(11)
C45 0.014(9) 0.038(11) 0.053(13) -0.016(9) -0.009(8) -0.007(8)
C46 0.069(9) 0.066(9) 0.061(9) -0.018(6) 0.018(6) -0.012(6)
C47 0.067(10) 0.064(10) 0.045(9) -0.018(8) 0.012(8) -0.008(8)
C48 0.075(18) 0.060(16) 0.069(18) -0.021(14) 0.040(15) -0.025(14)
C49 0.038(12) 0.050(13) 0.048(13) -0.020(11) -0.005(10) -0.020(10)
C50 0.029(10) 0.031(10) 0.035(11) -0.001(8) 0.002(8) -0.013(8)
N1 0.017(7) 0.027(8) 0.041(9) 0.001(7) -0.005(7) -0.015(6)
N2 0.047(11) 0.057(11) 0.041(10) -0.023(9) -0.005(8) -0.028(9)
N3 0.086 0.041 0.048 -0.032 -0.014 -0.001
N4 0.034 0.032 0.082 -0.013 -0.002 -0.013
N5 0.097(16) 0.055(12) 0.041(11) -0.021(9) 0.041(11) -0.044(12)
N6 0.053(11) 0.034(9) 0.051(11) -0.022(8) 0.011(9) -0.015(8)
N7 0.031 0.071 0.064 -0.023 -0.002 -0.034
N8 0.038(10) 0.061(11) 0.052(11) -0.041(9) 0.015(8) -0.038(9)
N9 0.060(11) 0.022(8) 0.029(8) -0.012(7) 0.019(8) -0.018(8)
N10 0.020(7) 0.013(7) 0.037(9) 0.007(6) 0.008(6) -0.001(6)
N11 0.027(8) 0.030(8) 0.023(8) 0.002(6) 0.003(6) -0.002(7)
N12 0.028(8) 0.022(8) 0.041(9) -0.016(7) -0.002(7) -0.009(6)
N13 0.034(9) 0.058(11) 0.043(10) -0.031(9) 0.021(8) -0.028(8)
N14 0.025(8) 0.025(8) 0.036(9) 0.001(7) -0.007(7) -0.010(7)
N15 0.047(11) 0.081(14) 0.045(11) -0.024(10) 0.003(9) -0.044(11)
N16 0.029(9) 0.046(11) 0.043(10) -0.014(8) 0.013(8) 0.004(8)
N17 0.029 0.036 0.077 -0.018 -0.013 -0.014
N18 0.039(9) 0.025(8) 0.042(10) -0.014(7) 0.012(8) -0.019(7)
N19 0.024(8) 0.043(9) 0.035(9) -0.001(8) -0.003(7) -0.013(7)
N20 0.042(11) 0.058(12) 0.051(12) -0.009(10) -0.004(9) 0.001(9)
Ag2A 0.0476(11) 0.0777(14) 0.0596(12) -0.0175(10) 0.0073(9) -0.0211(10)
O39A 0.043 0.02 0.011 0.005 -0.006 0.007
N1A 0.017 0.027 0.041 0.001 -0.005 -0.015
N7A 0.031 0.071 0.064 -0.023 -0.002 -0.034
N14A 0.025 0.025 0.036 0.001 -0.007 -0.01
N15A 0.047 0.081 0.045 -0.024 0.003 -0.044
O2 0.031(9) 0.052(10) 0.157(19) -0.052(11) -0.023(10) 0.005(7)
loop_
_geom_bond_atom_site_label_1
_geom_bond_atom_site_label_2
_geom_bond_site_symmetry_1
_geom_bond_site_symmetry_2
W1 O1 1_555 1_555
W2 O27 1_555 1_555
W3 O6 1_555 1_555
W4 O14 1_555 1_555
W5 O4 1_555 1_555
W6 O13 1_555 1_555
W7 O25 1_555 1_555
W8 O7 1_555 1_555
W9 O10 1_555 1_555
W10 O9 1_555 1_555
W11 O3 1_555 1_555
W12 O10 1_555 1_555
W13 O5 1_555 1_555
W14 O8 1_555 1_555
W15 O4 1_555 1_555
W16 O5 1_555 1_555
W17 O1 1_555 1_555
W18 O18 1_555 1_555
Ag1 Ag9 1_555 1_555
Ag2 O38 1_555 1_555
Ag3 N16 1_555 1_555
Ag4 N15 1_555 1_555
Ag5 N7 1_555 1_555
Ag6 N14 1_555 1_555
Ag7 N8 1_555 1_555
Ag8 N1 1_555 1_555
Ag9 N20 1_555 1_555
P1 O45 1_555 1_555
P2 O40 1_555 1_555
O3 W17 1_555 1_555
O6 W1 1_555 1_555
O9 W5 1_555 1_555
O11 W9 1_555 1_555
O12 W5 1_555 1_555
O13 W14 1_555 1_555
O14 W8 1_555 1_555
O15 W3 1_555 1_555
O16 W13 1_555 1_555
O17 W1 1_555 1_555
O18 W12 1_555 1_555
O19 W6 1_555 1_555
O20 W3 1_555 1_555
O21 W11 1_555 1_555
O22 W14 1_555 1_555
O23 W8 1_555 1_555
O24 W1 1_555 1_555
O25 W14 1_555 1_555
O26 W17 1_555 1_555
O27 W9 1_555 1_555
O28 W11 1_555 1_555
O29 W18 1_555 1_555
O30 W10 1_555 1_555
O31 W4 1_555 1_555
O32 W4 1_555 1_555
O33 W13 1_555 1_555
O34 W2 1_555 1_555
O35 W7 1_555 1_555
O36 W2 1_555 1_555
O37 W16 1_555 1_555
O38 W12 1_555 1_555
O39 W6 1_555 1_555
O40 W1 1_555 1_555
O41 W2 1_555 1_555
O42 W3 1_555 1_555
O43 W8 1_555 1_555
O44 W15 1_555 1_555
O45 W12 1_555 1_555
O46 W3 1_555 1_555
O47 W10 1_555 1_555
O48 W9 1_555 1_555
O49 W3 1_555 1_555
O50 W4 1_555 1_555
O51 W7 1_555 1_555
O52 W9 1_555 1_555
O53 W4 1_555 1_555
O54 W7 1_555 1_555
O55 W4 1_555 1_555
O56 W16 1_555 1_555
O57 W6 1_555 1_555
O58 W5 1_555 1_555
O59 W1 1_555 1_555
O60 W2 1_555 1_555
O61 W2 1_555 1_555
O62 W15 1_555 1_555
O63 W7 1_555 1_555
C1 H1 1_555 1_555
C2 H2 1_555 1_555
H3 C2 1_555 1_555
C3 H4 1_555 1_555
C4 H5 1_555 1_555
H6 C4 1_555 1_555
C5 C2 1_555 1_555
H7 C5 1_555 1_555
H8 C5 1_555 1_555
C6 H9 1_555 1_555
C7 C6 1_555 1_555
H10 C7 1_555 1_555
C8 H11 1_555 1_555
H12 C8 1_555 1_555
C9 H13 1_555 1_555
C10 Ag1 1_555 1_555
H14 C10 1_555 1_555
C11 H15 1_555 1_555
C12 H16 1_555 1_555
C13 H17 1_555 1_555
C14 H18 1_555 1_555
H19 C14 1_555 1_555
C15 C4 1_555 1_555
H20 C15 1_555 1_555
H21 C15 1_555 1_555
C16 H22 1_555 1_555
C17 H23 1_555 1_555
C18 H24 1_555 1_555
H25 C18 1_555 1_555
C19 H26 1_555 1_555
C20 H27 1_555 1_555
H28 C20 1_555 1_555
C21 C9 1_555 1_555
H29 C21 1_555 1_555
C22 C20 1_555 1_555
H30 C22 1_555 1_555
H31 C22 1_555 1_555
C23 C8 1_555 1_555
H32 C23 1_555 1_555
H33 C23 1_555 1_555
C24 C14 1_555 1_555
H34 C24 1_555 1_555
H35 C24 1_555 1_555
C25 C13 1_555 1_555
H36 C25 1_555 1_555
C26 C2 1_555 1_555
H37 C26 1_555 1_555
H38 C26 1_555 1_555
C27 C14 1_555 1_555
H39 C27 1_555 1_555
H40 C27 1_555 1_555
C28 C27 1_555 1_555
H41 C28 1_555 1_555
H42 C28 1_555 1_555
C29 H43 1_555 1_555
C30 H44 1_555 1_555
C31 C17 1_555 1_555
H45 C31 1_555 1_555
C32 H46 1_555 1_555
C33 H47 1_555 1_555
C34 H48 1_555 1_555
C35 H49 1_555 1_555
C36 H50 1_555 1_555
C37 H51 1_555 1_555
C38 C15 1_555 1_555
H52 C38 1_555 1_555
H53 C38 1_555 1_555
C39 C36 1_555 1_555
H54 C39 1_555 1_555
C40 C29 1_555 1_555
H55 C40 1_555 1_555
C41 H56 1_555 1_555
H57 C41 1_555 1_555
C42 H58 1_555 1_555
H59 C42 1_555 1_555
C43 C3 1_555 1_555
H60 C43 1_555 1_555
C44 C41 1_555 1_555
H61 C44 1_555 1_555
H62 C44 1_555 1_555
C45 C41 1_555 1_555
H63 C45 1_555 1_555
H64 C45 1_555 1_555
C46 C4 1_555 1_555
H65 C46 1_555 1_555
H66 C46 1_555 1_555
C47 H67 1_555 1_555
C48 C33 1_555 1_555
H68 C48 1_555 1_555
C49 C47 1_555 1_555
H69 C49 1_555 1_555
C50 Ag1 1_555 1_555
H70 C50 1_555 1_555
N1 C1 1_555 1_555
N2 C8 1_555 1_555
N3 C16 1_555 1_555
N4 C11 1_555 1_555
N5 C18 1_555 1_555
N6 C20 1_555 1_555
N7 C11 1_555 1_555
N8 C7 1_555 1_555
N9 C6 1_555 1_555
N10 C1 1_555 1_555
N11 C37 1_555 1_555
N12 C35 1_555 1_555
N13 Ag7 1_555 1_555
N14 C3 1_555 1_555
N15 C17 1_555 1_555
N16 C19 1_555 1_555
N17 Ag2 1_555 1_555
N18 C32 1_555 1_555
N19 Ag3 1_555 1_555
N20 Ag1 1_555 1_555
Ag2A Ag2 1_555 1_555
O39A Ag2 1_555 1_555
N1A Ag8 1_555 1_555
N7A Ag5 1_555 1_555
N14A Ag6 1_555 1_555
N15A Ag4 1_555 1_555
W5 O36 1_555 1_555
W5 O61 1_555 1_555
W6 O15 1_555 1_555
W6 O59 1_555 1_555
W7 O31 1_555 1_555
W8 O12 1_555 1_555
W8 O53 1_555 1_555
W9 O42 1_555 1_555
W10 O11 1_555 1_555
W10 O43 1_555 1_555
W10 O48 1_555 1_555
W11 O17 1_555 1_555
W11 O35 1_555 1_555
W11 O40 1_555 1_555
W12 O19 1_555 1_555
W12 O60 1_555 1_555
W13 O23 1_555 1_555
W13 O51 1_555 1_555
W13 O63 1_555 1_555
W14 O28 1_555 1_555
W14 O57 1_555 1_555
W15 O32 1_555 1_555
W15 O34 1_555 1_555
W15 O61 1_555 1_555
W16 O20 1_555 1_555
W16 O30 1_555 1_555
W16 O46 1_555 1_555
W17 O16 1_555 1_555
W17 O37 1_555 1_555
W17 O40 1_555 1_555
W18 O22 1_555 1_555
W18 O45 1_555 1_555
W18 O55 1_555 1_555
W18 O62 1_555 1_555
Ag1 O33 1_555 1_555
P1 O48 1_555 1_555
P1 O53 1_555 1_555
P1 O61 1_555 1_555
P2 O46 1_555 1_555
P2 O51 1_555 1_555
P2 O57 1_555 1_555
O39 Ag2A 1_555 1_555
C5 N10 1_555 1_555
C9 N20 1_555 1_555
C10 C50 1_555 1_555
C10 N1 1_555 1_555
C12 N2 1_555 1_555
C12 N20 1_555 1_555
C13 N7 1_555 1_555
C16 N17 1_555 1_555
C18 C26 1_555 1_555
C19 N5 1_555 1_555
C21 N2 1_555 1_555
C22 C23 1_555 1_555
C24 N3 1_555 1_555
C25 N4 1_555 1_555
C28 N4 1_555 1_555
C29 N3 1_555 1_555
C30 N6 1_555 1_555
C30 N15 1_555 1_555
C31 N6 1_555 1_555
C32 N19 1_555 1_555
C33 N5 1_555 1_555
C34 N8 1_555 1_555
C34 N9 1_555 1_555
C35 N13 1_555 1_555
C36 N13 1_555 1_555
C37 N14 1_555 1_555
C38 N9 1_555 1_555
C39 N12 1_555 1_555
C40 N17 1_555 1_555
C42 C44 1_555 1_555
C42 N11 1_555 1_555
C43 N11 1_555 1_555
C45 N12 1_555 1_555
C46 N18 1_555 1_555
C47 N18 1_555 1_555
C48 N16 1_555 1_555
C49 N19 1_555 1_555
C50 N10 1_555 1_555

#END
