
#######################################################################
#
#                 Cambridge Crystallographic Data Centre
#                                CCDC 
#
#######################################################################
#
# If this CIF has been generated from an entry in the Cambridge 
# Structural Database, then it will include bibliographic, chemical, 
# crystal, experimental, refinement or atomic coordinate data resulting 
# from the CCDC's data processing and validation procedures.
#
#######################################################################

data_RUMROI
_chemical_formula_moiety         '(C7 H22 F6 Fe1 N17 Zn2)n'
_symmetry_cell_setting           monoclinic
_symmetry_space_group_name_H-M   'P 21'
_symmetry_Int_Tables_number      4
_space_group_name_Hall           'P 2yb'
loop_
_symmetry_equiv_pos_site_id
_symmetry_equiv_pos_as_xyz
1 x,y,z
2 -x,1/2+y,-z
_cell_length_a                   13.2928(6)
_cell_length_b                   6.5700(3)
_cell_length_c                   13.6461(9)
_cell_angle_alpha                90
_cell_angle_beta                 119.069(3)
_cell_angle_gamma                90
_cell_volume                     1041.64
loop_
_atom_site_label
_atom_site_type_symbol
_atom_site_fract_x
_atom_site_fract_y
_atom_site_fract_z
N16 N 0.9594(5) 0.5920(11) 0.3599(4)
H7 H 1.0359 0.5711 0.3944
H8 H 0.9391 0.6114 0.4133
C4 C 0.9318(6) 0.7793(13) 0.2899(7)
H9 H 0.9511 0.7583 0.2313
H10 H 0.9755 0.8916 0.3359
H11 H 0.8511 0.8085 0.2573
C5 C 0.9000(6) 0.4072(16) 0.2941(6)
H12 H 0.8185 0.4308 0.2539
H13 H 0.9163 0.2940 0.3441
H14 H 0.9270 0.3776 0.2419
N17 N 1.4641(5) 0.3798(10) 0.3588(4)
H15 H 1.5411 0.3924 0.3916
H16 H 1.4448 0.3741 0.4135
C6 C 1.4095(7) 0.5642(13) 0.2880(7)
H17 H 1.3273 0.5544 0.2548
H18 H 1.4303 0.5722 0.2298
H19 H 1.4358 0.6840 0.3338
C7 C 1.4295(7) 0.1874(13) 0.2945(8)
H20 H 1.3501 0.1598 0.2711
H21 H 1.4763 0.0781 0.3409
H22 H 1.4396 0.1995 0.2297
Fe1 Fe 1.24739(9) 0.24548(14) 0.49570(6)
Zn1 Zn 0.49483(7) 0.59155(6) -0.00549(6)
Zn2 Zn 0.95027(5) 0.40171(8) -0.00328(7)
F1 F 1.1076(4) 0.1489(6) 0.4862(3)
F2 F 1.1868(4) 0.5178(6) 0.4646(3)
F3 F 1.3077(4) -0.0230(6) 0.5233(3)
F4 F 1.3867(3) 0.3447(6) 0.5033(3)
F5 F 0.9701(5) 0.1560(6) -0.0771(3)
F6 F 0.4758(3) 0.3436(5) 0.0714(3)
N1 N 1.1755(5) 0.1872(9) 0.3188(4)
N2 N 1.1246(5) 0.3420(8) 0.2431(4)
N3 N 1.0771(5) 0.2639(8) 0.1439(4)
N4 N 1.0919(4) 0.0554(8) 0.1493(4)
N5 N 1.1892(5) -0.1731(9) 0.3013(4)
H1 H 1.1740 -0.2757 0.2572
H2 H 1.2280 -0.1900 0.3728
C1 C 1.1525(5) 0.0138(9) 0.2586(5)
N6 N 0.8031(4) 0.3564(6) 0.0013(5)
N7 N 0.7378(4) 0.5155(7) -0.0004(6)
N8 N 0.6490(4) 0.4449(6) 0.0050(5)
N9 N 0.6519(4) 0.2397(7) 0.0091(4)
N10 N 0.7843(6) -0.0088(9) 0.0124(7)
H3 H 0.7452 -0.1074 0.0187
H4 H 0.8466 -0.0337 0.0101
C2 C 0.7470(5) 0.1893(9) 0.0061(7)
N11 N 1.3152(4) 0.3043(7) 0.6682(4)
N12 N 1.3547(5) 0.1525(8) 0.7447(4)
N13 N 1.4033(4) 0.2330(8) 0.8441(4)
N14 N 1.3991(4) 0.4374(8) 0.8388(4)
N15 N 1.3183(5) 0.6698(9) 0.6835(5)
H5 H 1.3381 0.7745 0.7267
H6 H 1.2825 0.6853 0.6119
C3 C 1.3435(5) 0.4802(9) 0.7283(5)
Zn1_2 Zn 1.49483(7) 0.59155(6) 0.99451(6)
Zn1A Zn 0.50517(7) 0.09155(6) 0.00549(6)
Zn1A_2 Zn 1.50517(7) 0.09155(6) 1.00549(6)
Zn2A Zn 1.04973(5) -0.09829(8) 0.00328(7)
F5A F 1.0299(5) 0.6560(6) 0.0771(3)
F6A F 0.5242(3) 0.8436(5) -0.0714(3)
N4A N 0.9081(4) 0.5554(8) -0.1493(4)
N9A N 0.3481(4) 0.7397(7) -0.0091(4)
N13A N 0.5967(4) 0.7330(8) 0.1559(4)
N14_2 N 0.3991(4) 0.4374(8) -0.1612(4)
loop_
_geom_bond_atom_site_label_1
_geom_bond_atom_site_label_2
_geom_bond_site_symmetry_1
_geom_bond_site_symmetry_2
Fe1 F1 1_555 1_555
Zn1 F6 1_555 1_555
Zn2 F5 1_555 1_555
F2 Fe1 1_555 1_555
F3 Fe1 1_555 1_555
F4 Fe1 1_555 1_555
F5 Zn2A 1_555 1_555
F6 Zn1A 1_555 1_555
N1 Fe1 1_555 1_555
N2 N1 1_555 1_555
N3 Zn2 1_555 1_555
N4 N3 1_555 1_555
N5 H1 1_555 1_555
H2 N5 1_555 1_555
C1 N1 1_555 1_555
N6 Zn2 1_555 1_555
N7 N6 1_555 1_555
N8 Zn1 1_555 1_555
N9 N8 1_555 1_555
N10 H3 1_555 1_555
H4 N10 1_555 1_555
C2 N6 1_555 1_555
N11 Fe1 1_555 1_555
N12 N11 1_555 1_555
N13 N12 1_555 1_555
N14 N13 1_555 1_555
N15 H5 1_555 1_555
H6 N15 1_555 1_555
C3 N11 1_555 1_555
N16 H7 1_555 1_555
H8 N16 1_555 1_555
C4 N16 1_555 1_555
H9 C4 1_555 1_555
H10 C4 1_555 1_555
H11 C4 1_555 1_555
C5 N16 1_555 1_555
H12 C5 1_555 1_555
H13 C5 1_555 1_555
H14 C5 1_555 1_555
N17 H15 1_555 1_555
H16 N17 1_555 1_555
C6 N17 1_555 1_555
H17 C6 1_555 1_555
H18 C6 1_555 1_555
H19 C6 1_555 1_555
C7 N17 1_555 1_555
H20 C7 1_555 1_555
H21 C7 1_555 1_555
H22 C7 1_555 1_555
Zn1_2 N14 1_555 1_555
Zn1A N9 1_555 1_555
Zn1A_2 N13 1_555 1_555
Zn2A N4 1_555 1_555
F5A Zn2 1_555 1_555
F6A Zn1 1_555 1_555
N4A Zn2 1_555 1_555
N9A Zn1 1_555 1_555
N13A Zn1 1_555 1_555
N14_2 Zn1 1_555 1_555
N2 N3 1_555 1_555
N4 C1 1_555 1_555
N5 C1 1_555 1_555
N7 N8 1_555 1_555
N9 C2 1_555 1_555
N10 C2 1_555 1_555
N14 C3 1_555 1_555
N15 C3 1_555 1_555

#END
