
#######################################################################
#
#                 Cambridge Crystallographic Data Centre
#                                CCDC 
#
#######################################################################
#
# If this CIF has been generated from an entry in the Cambridge 
# Structural Database, then it will include bibliographic, chemical, 
# crystal, experimental, refinement or atomic coordinate data resulting 
# from the CCDC's data processing and validation procedures.
#
#######################################################################

data_COTVIS
_chemical_formula_moiety         '(C62 H62 Nd4 O38)n'
_symmetry_cell_setting           monoclinic
_symmetry_space_group_name_H-M   'P 21/n'
_symmetry_Int_Tables_number      14
_space_group_name_Hall           '-P 2yn'
loop_
_symmetry_equiv_pos_site_id
_symmetry_equiv_pos_as_xyz
1 x,y,z
2 1/2-x,1/2+y,1/2-z
3 -x,-y,-z
4 1/2+x,1/2-y,1/2+z
_cell_length_a                   14.5952(12)
_cell_length_b                   16.7329(11)
_cell_length_c                   19.5713(14)
_cell_angle_alpha                90
_cell_angle_beta                 107.344(3)
_cell_angle_gamma                90
_cell_volume                     4562.38
loop_
_atom_site_label
_atom_site_type_symbol
_atom_site_fract_x
_atom_site_fract_y
_atom_site_fract_z
C1 C 0.8656(4) 0.3253(3) 0.8871(4)
C2 C 0.9466(4) 0.2978(3) 0.9422(3)
H1 H 1.0075 0.3046 0.9371
C3 C 0.9376(5) 0.2603(4) 1.0048(4)
C4 C 0.8457(5) 0.2483(4) 1.0093(3)
H2 H 0.8377 0.2214 1.0487
C5 C 0.7647(4) 0.2756(4) 0.9561(4)
C6 C 0.7723(4) 0.3136(4) 0.8939(4)
H3 H 0.7179 0.3305 0.8583
C7 C 0.8728(4) 0.3715(3) 0.8236(4)
C8 C 1.0204(5) 0.2247(4) 1.0599(4)
C9 C 0.6687(5) 0.2619(4) 0.9634(3)
C10 C 0.5914(4) 0.2521(4) 0.9704(4)
C11 C 0.4963(5) 0.2506(4) 0.9778(4)
C12 C 0.4842(4) 0.2175(4) 1.0418(3)
H4 H 0.5363 0.1948 1.0760
C13 C 0.3938(4) 0.2190(4) 1.0532(4)
C14 C 0.3144(4) 0.2534(4) 1.0053(4)
H5 H 0.2555 0.2546 1.0145
C15 C 0.3254(4) 0.2871(4) 0.9408(3)
C16 C 0.4150(4) 0.2850(4) 0.9298(4)
H6 H 0.4214 0.3077 0.8881
C17 C 0.3834(5) 0.1866(4) 1.1209(4)
C18 C 0.2436(4) 0.3228(4) 0.8858(4)
C19 C 0.5436(5) 0.4921(4) 0.7896(3)
C20 C 0.5363(5) 0.4729(4) 0.8587(3)
H7 H 0.5561 0.4226 0.8777
C21 C 0.5006(5) 0.5267(3) 0.8985(3)
C22 C 0.4684(5) 0.6002(4) 0.8681(3)
H8 H 0.4424 0.6360 0.8936
C23 C 0.4739(5) 0.6229(4) 0.7992(4)
C24 C 0.5106(5) 0.5696(4) 0.7606(4)
H9 H 0.5141 0.5838 0.7155
C25 C 0.5823(4) 0.4373(4) 0.7433(4)
C26 C 0.4467(5) 0.7027(4) 0.7666(4)
C27 C 0.4999(5) 0.5080(3) 0.9709(3)
C28 C 0.7017(6) 0.4428(4) 0.5073(3)
H10 H 0.7676 0.4583 0.5170
H11 H 0.6609 0.4845 0.4812
H12 H 0.6902 0.3946 0.4794
C29 C 0.7433(4) 0.1444(3) 0.7384(4)
H13 H 0.7428 0.1201 0.6939
H14 H 0.7188 0.1072 0.7660
H15 H 0.8078 0.1590 0.7646
C30 C 1.1281(4) 0.5541(3) 0.8817(3)
H16 H 1.0867 0.5391 0.9095
H17 H 1.1103 0.6062 0.8614
H18 H 1.1934 0.5553 0.9119
C31 C 1.1352(7) 0.4990(5) 0.6315(4)
H19 H 1.0688 0.5097 0.6073
H20 H 1.1668 0.4828 0.5972
H21 H 1.1652 0.5464 0.6556
Nd1 Nd 0.67618(2) 0.34308(2) 0.668850(18)
Nd2 Nd 1.07771(2) 0.36419(2) 0.770860(18)
O1 O 0.7993(3) 0.3846(3) 0.7733(2)
O2 O 0.9571(3) 0.3885(3) 0.8213(2)
O3 O 1.1056(3) 0.2429(3) 1.0614(2)
O4 O 1.0062(3) 0.1814(3) 1.1061(2)
O5 O 0.4500(4) 0.1389(3) 1.1624(2)
O6 O 0.3077(3) 0.2058(3) 1.1403(3)
O7 O 0.1661(3) 0.3254(3) 0.8974(2)
O8 O 0.2459(3) 0.3475(3) 0.8276(3)
O9 O 0.5906(3) 0.3643(3) 0.7611(2)
O10 O 0.6147(3) 0.4660(2) 0.6962(2)
O11 O 0.4769(4) 0.7297(3) 0.7208(3)
O12 O 0.3849(4) 0.7448(3) 0.7902(3)
O13 O 0.6811(4) 0.4291(3) 0.5737(3)
O14 O 0.6819(3) 0.2170(2) 0.7240(3)
H22 H 0.6639 0.2277 0.7604
O15 O 1.1185(3) 0.4926(2) 0.8207(2)
H23 H 1.1353 0.5039 0.7832
O16 O 1.1429(4) 0.4308(3) 0.6872(3)
H24 H 1.0940 0.4007 0.6735
C19B C 0.4564(5) 0.5079(4) 1.2104(3)
C20B C 0.4637(5) 0.5271(4) 1.1413(3)
H7B H 0.4439 0.5774 1.1223
C21B C 0.4994(5) 0.4733(3) 1.1015(3)
C22B C 0.5316(5) 0.3998(4) 1.1319(3)
H8B H 0.5576 0.3640 1.1064
C23B C 0.5261(5) 0.3771(4) 1.2008(4)
C24B C 0.4894(5) 0.4304(4) 1.2394(4)
H9B H 0.4859 0.4162 1.2845
C25B C 0.4177(4) 0.5627(4) 1.2567(4)
C26B C 0.5533(5) 0.2973(4) 1.2334(4)
C27B C 0.5001(5) 0.4920(3) 1.0291(3)
O9B O 0.4094(3) 0.6357(3) 1.2389(2)
O10B O 0.3853(3) 0.5340(2) 1.3038(2)
O11B O 0.5231(4) 0.2703(3) 1.2792(3)
O12B O 0.6151(4) 0.2552(3) 1.2098(3)
C1B C 0.1344(4) 0.6747(3) 1.1129(4)
C2B C 0.0534(4) 0.7022(3) 1.0578(3)
H1B H -0.0075 0.6954 1.0629
C3B C 0.0624(5) 0.7397(4) 0.9952(4)
C4B C 0.1543(5) 0.7517(4) 0.9907(3)
H2B H 0.1623 0.7786 0.9513
C5B C 0.2353(4) 0.7244(4) 1.0439(4)
C6B C 0.2277(4) 0.6864(4) 1.1061(4)
H3B H 0.2821 0.6695 1.1417
C7B C 0.1272(4) 0.6285(3) 1.1764(4)
C8B C -0.0204(5) 0.7753(4) 0.9401(4)
C9B C 0.3313(5) 0.7381(4) 1.0366(3)
C10B C 0.4086(4) 0.7479(4) 1.0296(4)
C11B C 0.5037(5) 0.7494(4) 1.0222(4)
C12B C 0.5158(4) 0.7825(4) 0.9582(3)
H4B H 0.4637 0.8052 0.9240
C13B C 0.6062(4) 0.7810(4) 0.9468(4)
C14B C 0.6856(4) 0.7466(4) 0.9947(4)
H5B H 0.7445 0.7454 0.9855
C15B C 0.6746(4) 0.7129(4) 1.0592(3)
C16B C 0.5850(4) 0.7150(4) 1.0702(4)
H6B H 0.5786 0.6923 1.1119
C17B C 0.6166(5) 0.8134(4) 0.8791(4)
C18B C 0.7564(4) 0.6772(4) 1.1142(4)
C28B C 0.2983(6) 0.5572(4) 1.4927(3)
H10B H 0.2324 0.5417 1.4830
H11B H 0.3391 0.5155 1.5188
H12B H 0.3098 0.6054 1.5206
C29B C 0.2567(4) 0.8556(3) 1.2616(4)
H13B H 0.2572 0.8799 1.3061
H14B H 0.2812 0.8928 1.2340
H15B H 0.1922 0.8410 1.2354
C30B C -0.1281(4) 0.4459(3) 1.1183(3)
H16B H -0.0867 0.4609 1.0905
H17B H -0.1103 0.3938 1.1386
H18B H -0.1934 0.4447 1.0881
C31B C -0.1352(7) 0.5010(5) 1.3685(4)
H19B H -0.0688 0.4903 1.3927
H20B H -0.1668 0.5172 1.4028
H21B H -0.1652 0.4536 1.3444
Nd1B Nd 0.32382(2) 0.65692(2) 1.331150(18)
Nd2B Nd -0.07771(2) 0.63581(2) 1.229140(18)
O1B O 0.2007(3) 0.6154(3) 1.2267(2)
O2B O 0.0429(3) 0.6115(3) 1.1787(2)
O3B O -0.1056(3) 0.7571(3) 0.9386(2)
O4B O -0.0062(3) 0.8186(3) 0.8939(2)
O5B O 0.5500(4) 0.8611(3) 0.8376(2)
O6B O 0.6923(3) 0.7942(3) 0.8597(3)
O7B O 0.8339(3) 0.6746(3) 1.1026(2)
O8B O 0.7541(3) 0.6525(3) 1.1724(3)
O13B O 0.3189(4) 0.5709(3) 1.4263(3)
O14B O 0.3181(3) 0.7830(2) 1.2760(3)
H22B H 0.3361 0.7723 1.2396
O15B O -0.1185(3) 0.5074(2) 1.1793(2)
H23B H -0.1353 0.4961 1.2168
O16B O -0.1429(4) 0.5692(3) 1.3128(3)
H24B H -0.0940 0.5993 1.3265
Nd1A Nd -0.17618(2) 0.84308(2) 0.831150(18)
Nd1A_2 Nd 0.82382(2) 0.84308(2) 0.831150(18)
Nd1C Nd 0.17618(2) 0.15692(2) 1.168850(18)
Nd1C_2 Nd 1.17618(2) 0.15692(2) 1.168850(18)
Nd2_2 Nd 0.07771(2) 0.36419(2) 0.770860(18)
Nd2A Nd 0.42229(2) 0.86419(2) 0.729140(18)
Nd2B_2 Nd 0.92229(2) 0.63581(2) 1.229140(18)
Nd2C Nd 0.57771(2) 0.13581(2) 1.270860(18)
O3A O 0.3944(3) 0.7429(3) 1.4386(2)
O3C O 0.6056(3) 0.2571(3) 0.5614(2)
O4A O 0.4938(3) 0.6814(3) 1.3939(2)
O4C O 0.5062(3) 0.3186(3) 0.6061(2)
O5A O 0.0500(4) 0.6389(3) 1.3376(2)
O5C O 0.9500(4) 0.3611(3) 0.6624(2)
O6A O 0.1923(3) 0.7058(3) 1.3597(3)
O6C O 0.8077(3) 0.2942(3) 0.6403(3)
O7_2 O 1.1661(3) 0.3254(3) 0.8974(2)
O7B_2 O -0.1661(3) 0.6746(3) 1.1026(2)
O8_2 O 1.2459(3) 0.3475(3) 0.8276(3)
O8B_2 O -0.2459(3) 0.6525(3) 1.1724(3)
O11A O 1.0231(4) 0.2297(3) 0.7792(3)
O11C O -0.0231(4) 0.7703(3) 1.2208(3)
O12A O 1.1151(4) 0.2448(3) 0.7098(3)
O12C O -0.1151(4) 0.7552(3) 1.2902(3)
O17 O 0.5222(14) 0.5082(13) 0.5171(9)
H25 H 0.5588 0.4890 0.5572
H26 H 0.5306 0.5585 0.5163
O18 O 0.7120(13) 0.0711(11) 0.8911(9)
H27 H 0.6713 0.0331 0.8785
H28 H 0.7117 0.0896 0.9323
O19 O 0.3370(10) 0.4281(9) 0.7305(9)
H29 H 0.3761 0.3899 0.7478
H30 H 0.3685 0.4717 0.7345
O20 O 0.3816(12) 0.1605(10) 0.7840(11)
H31 H 0.3733 0.2099 0.7735
H32 H 0.4163 0.1395 0.7604
O21 O 0.0761(12) 0.4202(10) 0.1271(9)
H33 H 0.0656 0.3811 0.0974
H34 H 0.1188 0.4508 0.1193
O22 O 0.2459(9) 0.4512(8) 0.0600(7)
H35 H 0.2849 0.4858 0.0855
H36 H 0.2763 0.4079 0.0592
loop_
_geom_bond_atom_site_label_1
_geom_bond_atom_site_label_2
_geom_bond_site_symmetry_1
_geom_bond_site_symmetry_2
C1 C2 1_555 1_555
C2 H1 1_555 1_555
C3 C2 1_555 1_555
C4 C3 1_555 1_555
H2 C4 1_555 1_555
C5 C4 1_555 1_555
C6 C1 1_555 1_555
H3 C6 1_555 1_555
C7 C1 1_555 1_555
C8 C3 1_555 1_555
C9 C5 1_555 1_555
C10 C9 1_555 1_555
C11 C10 1_555 1_555
C12 C11 1_555 1_555
H4 C12 1_555 1_555
C13 C12 1_555 1_555
C14 C13 1_555 1_555
H5 C14 1_555 1_555
C15 C14 1_555 1_555
C16 C11 1_555 1_555
H6 C16 1_555 1_555
C17 C13 1_555 1_555
C18 C15 1_555 1_555
C19 C20 1_555 1_555
C20 H7 1_555 1_555
C21 C20 1_555 1_555
C22 C21 1_555 1_555
H8 C22 1_555 1_555
C23 C22 1_555 1_555
C24 C19 1_555 1_555
H9 C24 1_555 1_555
C25 C19 1_555 1_555
C26 C23 1_555 1_555
C27 C21 1_555 1_555
C28 H10 1_555 1_555
H11 C28 1_555 1_555
H12 C28 1_555 1_555
C29 H13 1_555 1_555
H14 C29 1_555 1_555
H15 C29 1_555 1_555
C30 H16 1_555 1_555
H17 C30 1_555 1_555
H18 C30 1_555 1_555
C31 H19 1_555 1_555
H20 C31 1_555 1_555
H21 C31 1_555 1_555
Nd1 O1 1_555 1_555
Nd2 O2 1_555 1_555
O1 C7 1_555 1_555
O2 C7 1_555 1_555
O3 C8 1_555 1_555
O4 C8 1_555 1_555
O5 C17 1_555 1_555
O6 C17 1_555 1_555
O7 C18 1_555 1_555
O8 C18 1_555 1_555
O9 C25 1_555 1_555
O10 C25 1_555 1_555
O11 C26 1_555 1_555
O12 C26 1_555 1_555
O13 C28 1_555 1_555
O14 C29 1_555 1_555
H22 O14 1_555 1_555
O15 C30 1_555 1_555
H23 O15 1_555 1_555
O16 C31 1_555 1_555
H24 O16 1_555 1_555
O17 H25 1_555 1_555
H26 O17 1_555 1_555
O18 H27 1_555 1_555
H28 O18 1_555 1_555
O19 H29 1_555 1_555
H30 O19 1_555 1_555
O20 H31 1_555 1_555
H32 O20 1_555 1_555
O21 H33 1_555 1_555
H34 O21 1_555 1_555
O22 H35 1_555 1_555
H36 O22 1_555 1_555
C19B C20B 1_555 1_555
C20B H7B 1_555 1_555
C21B C20B 1_555 1_555
C22B C21B 1_555 1_555
H8B C22B 1_555 1_555
C23B C22B 1_555 1_555
C24B C19B 1_555 1_555
H9B C24B 1_555 1_555
C25B C19B 1_555 1_555
C26B C23B 1_555 1_555
C27B C27 1_555 1_555
O9B C25B 1_555 1_555
O10B C25B 1_555 1_555
O11B C26B 1_555 1_555
O12B C26B 1_555 1_555
C1B C2B 1_555 1_555
C2B H1B 1_555 1_555
C3B C2B 1_555 1_555
C4B C3B 1_555 1_555
H2B C4B 1_555 1_555
C5B C4B 1_555 1_555
C6B C1B 1_555 1_555
H3B C6B 1_555 1_555
C7B C1B 1_555 1_555
C8B C3B 1_555 1_555
C9B C5B 1_555 1_555
C10B C9B 1_555 1_555
C11B C10B 1_555 1_555
C12B C11B 1_555 1_555
H4B C12B 1_555 1_555
C13B C12B 1_555 1_555
C14B C13B 1_555 1_555
H5B C14B 1_555 1_555
C15B C14B 1_555 1_555
C16B C11B 1_555 1_555
H6B C16B 1_555 1_555
C17B C13B 1_555 1_555
C18B C15B 1_555 1_555
C28B H10B 1_555 1_555
H11B C28B 1_555 1_555
H12B C28B 1_555 1_555
C29B H13B 1_555 1_555
H14B C29B 1_555 1_555
H15B C29B 1_555 1_555
C30B H16B 1_555 1_555
H17B C30B 1_555 1_555
H18B C30B 1_555 1_555
C31B H19B 1_555 1_555
H20B C31B 1_555 1_555
H21B C31B 1_555 1_555
Nd1B O9B 1_555 1_555
Nd2B O2B 1_555 1_555
O1B C7B 1_555 1_555
O2B C7B 1_555 1_555
O3B C8B 1_555 1_555
O4B C8B 1_555 1_555
O5B C17B 1_555 1_555
O6B C17B 1_555 1_555
O7B C18B 1_555 1_555
O8B C18B 1_555 1_555
O13B C28B 1_555 1_555
O14B C29B 1_555 1_555
H22B O14B 1_555 1_555
O15B C30B 1_555 1_555
H23B O15B 1_555 1_555
O16B C31B 1_555 1_555
H24B O16B 1_555 1_555
Nd1A O3B 1_555 1_555
Nd1A_2 O6B 1_555 1_555
Nd1C O6 1_555 1_555
Nd1C_2 O3 1_555 1_555
Nd2_2 O7 1_555 1_555
Nd2A O11 1_555 1_555
Nd2B_2 O7B 1_555 1_555
Nd2C O5 1_555 1_555
O3A Nd1B 1_555 1_555
O3C Nd1 1_555 1_555
O4A Nd1B 1_555 1_555
O4C Nd1 1_555 1_555
O5A Nd2B 1_555 1_555
O5C Nd2 1_555 1_555
O6A Nd1B 1_555 1_555
O6C Nd1 1_555 1_555
O7_2 Nd2 1_555 1_555
O7B_2 Nd2B 1_555 1_555
O8_2 Nd2 1_555 1_555
O8B_2 Nd2B 1_555 1_555
O11A Nd2 1_555 1_555
O11C Nd2B 1_555 1_555
O12A Nd2 1_555 1_555
O12C Nd2B 1_555 1_555
C5 C6 1_555 1_555
C15 C16 1_555 1_555
C23 C24 1_555 1_555
Nd1 O9 1_555 1_555
Nd1 O10 1_555 1_555
Nd1 O13 1_555 1_555
Nd1 O14 1_555 1_555
Nd2 O15 1_555 1_555
Nd2 O16 1_555 1_555
O4 Nd1C_2 1_555 1_555
O8 Nd2_2 1_555 1_555
O12 Nd2A 1_555 1_555
C21B C27B 1_555 1_555
C23B C24B 1_555 1_555
O10B Nd1B 1_555 1_555
O11B Nd2C 1_555 1_555
O12B Nd2C 1_555 1_555
C5B C6B 1_555 1_555
C15B C16B 1_555 1_555
Nd1B O1B 1_555 1_555
Nd1B O13B 1_555 1_555
Nd1B O14B 1_555 1_555
Nd2B O15B 1_555 1_555
Nd2B O16B 1_555 1_555
O4B Nd1A 1_555 1_555
O5B Nd2A 1_555 1_555
O8B Nd2B_2 1_555 1_555

#END
