
#######################################################################
#
#                 Cambridge Crystallographic Data Centre
#                                CCDC 
#
#######################################################################
#
# If this CIF has been generated from an entry in the Cambridge 
# Structural Database, then it will include bibliographic, chemical, 
# crystal, experimental, refinement or atomic coordinate data resulting 
# from the CCDC's data processing and validation procedures.
#
#######################################################################

data_QERZUI
_chemical_formula_moiety         '(C14 H14 Cu1 N2 O5)n'
_symmetry_cell_setting           monoclinic
_symmetry_space_group_name_H-M   'C c'
_symmetry_Int_Tables_number      9
_space_group_name_Hall           'C -2yc'
loop_
_symmetry_equiv_pos_site_id
_symmetry_equiv_pos_as_xyz
1 x,y,z
2 x,-y,1/2+z
3 1/2+x,1/2+y,z
4 1/2+x,1/2-y,1/2+z
_cell_length_a                   5.0328(10)
_cell_length_b                   24.855(5)
_cell_length_c                   11.176(2)
_cell_angle_alpha                90.00
_cell_angle_beta                 99.35(3)
_cell_angle_gamma                90.00
_cell_volume                     1379.44
loop_
_atom_site_label
_atom_site_type_symbol
_atom_site_fract_x
_atom_site_fract_y
_atom_site_fract_z
Cu1 Cu 0.21406(7) -0.386500(14) -0.80225(5)
O1 O 0.4014(7) -0.32957(15) -0.6970(3)
O2 O 0.5815(6) -0.60144(14) -0.4025(3)
C1 C 0.3856(8) -0.26773(17) -0.5384(4)
C2 C 0.2819(8) -0.31753(16) -0.6085(4)
C3 C 0.2772(8) -0.25190(16) -0.4364(4)
H1 H 0.1428 -0.2723 -0.4101
O3 O 0.0918(9) -0.34232(14) -0.5799(5)
N1 N 0.3794(6) -0.44502(15) -0.6871(3)
C4 C 0.3601(8) -0.53160(15) -0.5949(4)
H2 H 0.2660 -0.5635 -0.5894
C5 C 0.2560(8) -0.49215(16) -0.6768(4)
H3 H 0.0929 -0.4987 -0.7270
C6 C 0.7343(8) -0.47397(16) -0.5332(4)
H4 H 0.8996 -0.4666 -0.4856
C7 C 0.6062(7) -0.52311(14) -0.5211(3)
C8 C 0.7267(7) -0.56550(13) -0.4324(3)
C9 C 0.6148(8) -0.43631(15) -0.6161(4)
H5 H 0.7022 -0.4037 -0.6225
O4 O 0.9789(6) -0.56074(11) -0.3958(3)
N2 N 0.5656(7) -0.17518(16) -0.4095(3)
C10 C 0.5832(11) -0.23554(17) -0.5748(5)
H6 H 0.6589 -0.2445 -0.6427
C11 C 0.6666(9) -0.18937(18) -0.5077(4)
H7 H 0.7980 -0.1677 -0.5327
C12 C 0.3716(7) -0.20578(15) -0.3750(3)
H8 H 0.2982 -0.1955 -0.3073
N2C N 0.0656(7) -0.32482(16) -0.9095(3)
Cu1C Cu 0.71406(7) -0.113500(14) -0.30225(5)
O2A O 0.5815(6) -0.39856(14) -0.9025(3)
O4A O -0.0211(6) -0.43926(11) -0.8958(3)
Cu1A Cu 1.21406(7) -0.613500(14) -0.30225(5)
Cu1A_2 Cu 0.21406(7) -0.613500(14) -0.30225(5)
O5 O 0.070(5) -0.3729(8) -0.326(2)
C13 C -0.351(10) -0.3589(16) -0.217(5)
H9 H -0.5402 -0.3563 -0.2477
H10 H -0.2952 -0.3284 -0.1668
H11 H -0.3159 -0.3913 -0.1705
C14 C -0.179(6) -0.3602(13) -0.334(3)
H12 H -0.2769 -0.3844 -0.3935
H13 H -0.1966 -0.3246 -0.3696
loop_
_geom_bond_atom_site_label_1
_geom_bond_atom_site_label_2
_geom_bond_site_symmetry_1
_geom_bond_site_symmetry_2
Cu1 O1 1_555 1_555
O1 C2 1_555 1_555
O2 C8 1_555 1_555
C1 C2 1_555 1_555
C2 O3 1_555 1_555
C3 C1 1_555 1_555
H1 C3 1_555 1_555
N1 Cu1 1_555 1_555
C4 H2 1_555 1_555
C5 N1 1_555 1_555
H3 C5 1_555 1_555
C6 H4 1_555 1_555
C7 C4 1_555 1_555
C8 C7 1_555 1_555
C9 N1 1_555 1_555
H5 C9 1_555 1_555
O4 C8 1_555 1_555
N2 C11 1_555 1_555
C10 C1 1_555 1_555
H6 C10 1_555 1_555
C11 C10 1_555 1_555
H7 C11 1_555 1_555
C12 C3 1_555 1_555
H8 C12 1_555 1_555
O5 C14 1_555 1_555
C13 H9 1_555 1_555
H10 C13 1_555 1_555
H11 C13 1_555 1_555
C14 C13 1_555 1_555
H12 C14 1_555 1_555
H13 C14 1_555 1_555
N2C Cu1 1_555 1_555
Cu1C N2 1_555 1_555
O2A Cu1 1_555 1_555
O4A Cu1 1_555 1_555
Cu1A O4 1_555 1_555
Cu1A_2 O2 1_555 1_555
C4 C5 1_555 1_555
C6 C7 1_555 1_555
C6 C9 1_555 1_555
N2 C12 1_555 1_555

#END
