
#######################################################################
#
#                 Cambridge Crystallographic Data Centre
#                                CCDC 
#
#######################################################################
#
# If this CIF has been generated from an entry in the Cambridge 
# Structural Database, then it will include bibliographic, chemical, 
# crystal, experimental, refinement or atomic coordinate data resulting 
# from the CCDC's data processing and validation procedures.
#
#######################################################################

data_GASROK
_chemical_formula_moiety         '(C12 H17 N5 O2 Zn1)n'
_symmetry_cell_setting           hexagonal
_symmetry_space_group_name_H-M   'P 61'
_symmetry_Int_Tables_number      169
_space_group_name_Hall           'P 61'
loop_
_symmetry_equiv_pos_site_id
_symmetry_equiv_pos_as_xyz
1 x,y,z
2 x-y,x,1/6+z
3 -y,x-y,1/3+z
4 -x,-y,1/2+z
5 -x+y,-x,2/3+z
6 y,-x+y,5/6+z
_cell_length_a                   17.764(3)
_cell_length_b                   17.764(3)
_cell_length_c                   10.4098(12)
_cell_angle_alpha                90
_cell_angle_beta                 90
_cell_angle_gamma                120
_cell_volume                     2844.82
loop_
_atom_site_label
_atom_site_type_symbol
_atom_site_fract_x
_atom_site_fract_y
_atom_site_fract_z
C1 C 0.4699(8) -0.0558(7) -0.0593(10)
C2 C 0.4538(8) -0.1100(8) 0.0590(11)
H1 H 0.4724 -0.1520 0.0383
C3 C 0.3580(9) -0.1634(9) 0.0973(11)
H2 H 0.3275 -0.1914 0.0175
C4 C 0.3184(11) -0.1096(11) 0.1395(17)
H3 H 0.3580 -0.0663 0.1999
H4 H 0.2652 -0.1474 0.1857
C5 C 0.2972(13) -0.0633(14) 0.0364(19)
H5 H 0.2697 -0.1020 -0.0347
H6 H 0.3498 -0.0133 0.0076
H7 H 0.2586 -0.0452 0.0706
C6 C 0.3385(10) -0.2391(10) 0.1886(13)
H8 H 0.3701 -0.2670 0.1611
H9 H 0.2773 -0.2803 0.1875
H10 H 0.3559 -0.2172 0.2742
C7 C 0.5894(8) -0.0620(7) 0.1846(12)
H11 H 0.6245 -0.0217 0.2515
H12 H 0.6227 -0.0439 0.1055
C8 C 0.5110(12) -0.2743(9) 0.3591(11)
H13 H 0.4841 -0.2989 0.4367
C9 C 0.5375(13) -0.1880(9) 0.3373(13)
H14 H 0.5320 -0.1549 0.4019
C10 C 0.5723(12) -0.1504(9) 0.2188(12)
C11 C 0.5863(11) -0.2030(8) 0.1357(14)
H15 H 0.6117 -0.1811 0.0562
C12 C 0.5641(12) -0.2847(9) 0.1670(12)
H16 H 0.5789 -0.3157 0.1102
N1 N 0.5096(6) -0.0569(5) 0.1677(9)
H17 H 0.4779 -0.0758 0.2413
N2 N 0.5224(8) -0.3242(6) 0.2739(8)
N3 N 0.4717(10) 0.1255(9) 0.1384(14)
N4 N 0.4239(11) 0.1106(9) 0.2374(15)
N5 N 0.3755(14) 0.0926(13) 0.3215(19)
O1 O 0.5173(5) 0.0275(5) -0.0515(8)
O2 O 0.4321(6) -0.0953(6) -0.1597(9)
Zn1 Zn 0.54720(9) 0.07359(7) 0.14199(16)
N2E N 0.6758(6) 0.1534(10) 0.1072(8)
O2C O 0.5679(6) 0.0953(6) 0.3403(9)
Zn1A Zn 0.47361(11) -0.45280(9) 0.30866(16)
Zn1C Zn 0.45280(9) -0.07359(7) -0.35801(16)
loop_
_geom_bond_atom_site_label_1
_geom_bond_atom_site_label_2
_geom_bond_site_symmetry_1
_geom_bond_site_symmetry_2
C1 C2 1_555 1_555
C2 H1 1_555 1_555
C3 C2 1_555 1_555
H2 C3 1_555 1_555
C4 C3 1_555 1_555
H3 C4 1_555 1_555
H4 C4 1_555 1_555
C5 C4 1_555 1_555
H5 C5 1_555 1_555
H6 C5 1_555 1_555
H7 C5 1_555 1_555
C6 C3 1_555 1_555
H8 C6 1_555 1_555
H9 C6 1_555 1_555
H10 C6 1_555 1_555
C7 H11 1_555 1_555
H12 C7 1_555 1_555
C8 H13 1_555 1_555
C9 C8 1_555 1_555
H14 C9 1_555 1_555
C10 C7 1_555 1_555
C11 C10 1_555 1_555
H15 C11 1_555 1_555
C12 C11 1_555 1_555
H16 C12 1_555 1_555
N1 C2 1_555 1_555
H17 N1 1_555 1_555
N2 C8 1_555 1_555
N3 N4 1_555 1_555
N4 N5 1_555 1_555
O1 C1 1_555 1_555
O2 C1 1_555 1_555
Zn1 N1 1_555 1_555
N2E Zn1 1_555 1_555
O2C Zn1 1_555 1_555
Zn1A N2 1_555 1_555
Zn1C O2 1_555 1_555
C7 N1 1_555 1_555
C9 C10 1_555 1_555
C12 N2 1_555 1_555
N3 Zn1 1_555 1_555
O1 Zn1 1_555 1_555

#END
