
#######################################################################
#
#                 Cambridge Crystallographic Data Centre
#                                CCDC 
#
#######################################################################
#
# If this CIF has been generated from an entry in the Cambridge 
# Structural Database, then it will include bibliographic, chemical, 
# crystal, experimental, refinement or atomic coordinate data resulting 
# from the CCDC's data processing and validation procedures.
#
#######################################################################

data_RAFNUH
_chemical_formula_moiety         'C8 H4 Ag1 As6 F21 N4'
_symmetry_cell_setting           orthorhombic
_symmetry_space_group_name_H-M   'F d d d'
_symmetry_Int_Tables_number      70
_space_group_name_Hall           '-F 2uv 2vw'
loop_
_symmetry_equiv_pos_site_id
_symmetry_equiv_pos_as_xyz
1 x,y,z
2 1/4-x,1/4-y,z
3 x,1/4-y,1/4-z
4 1/4-x,y,1/4-z
5 x,1/2+y,1/2+z
6 1/4-x,3/4-y,1/2+z
7 x,3/4-y,3/4-z
8 1/4-x,1/2+y,3/4-z
9 1/2+x,y,1/2+z
10 3/4-x,1/4-y,1/2+z
11 1/2+x,1/4-y,3/4-z
12 3/4-x,y,3/4-z
13 1/2+x,1/2+y,z
14 3/4-x,3/4-y,z
15 1/2+x,3/4-y,1/4-z
16 3/4-x,1/2+y,1/4-z
17 -x,-y,-z
18 3/4+x,3/4+y,-z
19 -x,3/4+y,3/4+z
20 3/4+x,-y,3/4+z
21 -x,1/2-y,1/2-z
22 3/4+x,1/4+y,1/2-z
23 -x,1/4+y,1/4+z
24 3/4+x,1/2-y,1/4+z
25 1/2-x,-y,1/2-z
26 1/4+x,3/4+y,1/2-z
27 1/2-x,3/4+y,1/4+z
28 1/4+x,-y,1/4+z
29 1/2-x,1/2-y,-z
30 1/4+x,1/4+y,-z
31 1/2-x,1/4+y,3/4+z
32 1/4+x,1/2-y,3/4+z
_cell_length_a                   5.7716(2)
_cell_length_b                   29.4517(5)
_cell_length_c                   30.5119(13)
_cell_angle_alpha                90
_cell_angle_beta                 90
_cell_angle_gamma                90
_cell_volume                     5186.52
loop_
_atom_site_label
_atom_site_type_symbol
_atom_site_fract_x
_atom_site_fract_y
_atom_site_fract_z
Ag1 Ag 0.1250 0.1250 0.1250
N1 N 0.3971(10) 0.1657(2) 0.0862(2)
C1 C 0.7638(11) 0.2000(2) 0.0513(2)
C2 C 0.8641(15) 0.2383(3) 0.0693(3)
H1 H 0.8036(15) 0.2513(3) 0.0954(3)
C3 C 1.0559(15) 0.2577(3) 0.0486(3)
H2 H 1.1238(15) 0.2842(3) 0.0608(3)
C4 C 1.1487(11) 0.2396(2) 0.0112(2)
C5 C 1.0497(15) 0.2001(3) -0.0054(3)
H3 H 1.1142(15) 0.1862(3) -0.0307(3)
C6 C 0.8601(15) 0.1810(3) 0.0145(3)
H4 H 0.7942(15) 0.1542(3) 0.0026(3)
C7 C 0.5608(11) 0.1807(2) 0.0710(2)
N1A N -0.1471(10) 0.0843(2) 0.0862(2)
N1B N 0.3971(10) 0.0843(2) 0.1638(2)
N1C N -0.1471(10) 0.1657(2) 0.1638(2)
C4BA C 1.3513(11) 0.2604(2) -0.0112(2)
As1 As 0.1569(20) 0.3778(2) 0.1263(4)
F1 F 0.2605(28) 0.3833(6) 0.1789(4)
F2 F 0.0531(28) 0.3716(5) 0.0740(4)
F3 F 0.3310(28) 0.3310(4) 0.1192(5)
F4 F -0.0175(27) 0.4245(4) 0.1340(5)
F5 F 0.3744(26) 0.4123(5) 0.1075(5)
F6 F -0.0624(27) 0.3435(4) 0.1455(5)
As1C As 0.0931(20) 0.3778(2) 0.1237(4)
As1M As 0.5931(20) 0.3722(2) 0.1263(4)
F1C F -0.0105(28) 0.3833(6) 0.0711(4)
F2C F 0.1969(28) 0.3716(5) 0.1760(4)
F3C F -0.0810(28) 0.3310(4) 0.1308(5)
F3M F 0.4190(28) 0.4190(4) 0.1192(5)
F3N F -0.1690(28) 0.4190(4) 0.1308(5)
F4C F 0.2675(27) 0.4245(4) 0.1160(5)
F5C F -0.1244(26) 0.4123(5) 0.1425(5)
F5M F 0.3756(26) 0.3377(5) 0.1075(5)
F5N F -0.1256(26) 0.3377(5) 0.1425(5)
F6C F 0.3124(27) 0.3435(4) 0.1045(5)
F6M F -0.1876(27) 0.4065(4) 0.1455(5)
F6N F 0.4376(27) 0.4065(4) 0.1045(5)
F1M F 0.4895(28) 0.3667(6) 0.1789(4)
As1N As 0.6569(20) 0.3722(2) 0.1237(4)
F4N F 0.4825(27) 0.3255(4) 0.1160(5)
As1M_2 As -0.4069(20) 0.3722(2) 0.1263(4)
As1N_2 As -0.3431(20) 0.3722(2) 0.1237(4)
F4M F -0.2325(27) 0.3255(4) 0.1340(5)
loop_
_geom_bond_atom_site_label_1
_geom_bond_atom_site_label_2
_geom_bond_site_symmetry_1
_geom_bond_site_symmetry_2
Ag1 N1 1_555 1_555
N1 C7 1_555 1_555
C1 C2 1_555 1_555
C2 H1 1_555 1_555
C3 C2 1_555 1_555
H2 C3 1_555 1_555
C4 C3 1_555 1_555
C5 C4 1_555 1_555
H3 C5 1_555 1_555
C6 C1 1_555 1_555
H4 C6 1_555 1_555
C7 C1 1_555 1_555
As1 F1 1_555 1_555
F1 As1C 1_555 1_555
F2 As1 1_555 1_555
F3 As1 1_555 1_555
F4 As1 1_555 1_555
F5 As1 1_555 1_555
F6 As1 1_555 1_555
N1A Ag1 1_555 1_555
N1B Ag1 1_555 1_555
N1C Ag1 1_555 1_555
C4BA C4 1_555 1_555
As1C As1 1_555 1_555
As1M As1 1_555 1_555
F1C As1 1_555 1_555
F2C As1 1_555 1_555
F3C As1 1_555 1_555
F3M As1 1_555 1_555
F3N As1 1_555 1_555
F4C As1 1_555 1_555
F5C As1 1_555 1_555
F5M As1 1_555 1_555
F5N As1 1_555 1_555
F6C As1 1_555 1_555
F6M As1 1_555 1_555
F6N As1 1_555 1_555
F1M F1 1_555 1_555
As1N F3 1_555 1_555
F4N F3 1_555 1_555
As1M_2 F6 1_555 1_555
As1N_2 F6 1_555 1_555
F4M F6 1_555 1_555
C5 C6 1_555 1_555
F1 F2C 1_555 1_555
F2 As1C 1_555 1_555
F2 F1C 1_555 1_555
F3 As1C 1_555 1_555
F3 As1M 1_555 1_555
F3 F5M 1_555 1_555
F3 F6C 1_555 1_555
F4 As1C 1_555 1_555
F4 F3N 1_555 1_555
F4 F5C 1_555 1_555
F4 F6M 1_555 1_555
F5 As1C 1_555 1_555
F5 As1M 1_555 1_555
F5 F3M 1_555 1_555
F5 F4C 1_555 1_555
F5 F6N 1_555 1_555
F5 As1N 1_555 1_555
F6 As1C 1_555 1_555
F6 F3C 1_555 1_555
F6 F5N 1_555 1_555
As1C F1C 1_555 1_555
As1C F2C 1_555 1_555
As1C F3C 1_555 1_555
As1C F3M 1_555 1_555
As1C F3N 1_555 1_555
As1C F4C 1_555 1_555
As1C F5C 1_555 1_555
As1C F5M 1_555 1_555
As1C F5N 1_555 1_555
As1C F6C 1_555 1_555
As1C F6M 1_555 1_555
As1C F6N 1_555 1_555
As1C As1N_2 1_555 1_555
As1M F3M 1_555 1_555
As1M F5M 1_555 1_555
As1M F6C 1_555 1_555
As1M F6N 1_555 1_555
As1M F1M 1_555 1_555
As1M As1N 1_555 1_555
As1M F4N 1_555 1_555
F3C F5N 1_555 1_555
F3C As1M_2 1_555 1_555
F3C As1N_2 1_555 1_555
F3C F4M 1_555 1_555
F3M F4C 1_555 1_555
F3M F6N 1_555 1_555
F3M As1N 1_555 1_555
F3N F5C 1_555 1_555
F3N F6M 1_555 1_555
F3N As1M_2 1_555 1_555
F3N As1N_2 1_555 1_555
F4C F6N 1_555 1_555
F5C F6M 1_555 1_555
F5C As1M_2 1_555 1_555
F5C As1N_2 1_555 1_555
F5M F6C 1_555 1_555
F5M As1N 1_555 1_555
F5M F4N 1_555 1_555
F5N As1M_2 1_555 1_555
F5N As1N_2 1_555 1_555
F5N F4M 1_555 1_555
F6C As1N 1_555 1_555
F6C F4N 1_555 1_555
F6M As1M_2 1_555 1_555
F6M As1N_2 1_555 1_555
F6N As1N 1_555 1_555
F1M As1N 1_555 1_555
As1N F4N 1_555 1_555
As1M_2 As1N_2 1_555 1_555
As1M_2 F4M 1_555 1_555
As1N_2 F4M 1_555 1_555

#END
