
#######################################################################
#
#                 Cambridge Crystallographic Data Centre
#                                CCDC 
#
#######################################################################
#
# If this CIF has been generated from an entry in the Cambridge 
# Structural Database, then it will include bibliographic, chemical, 
# crystal, experimental, refinement or atomic coordinate data resulting 
# from the CCDC's data processing and validation procedures.
#
#######################################################################

data_RAFNUH01
_chemical_formula_moiety         'C8 H4 Ag1 As2 F12 N4'
_symmetry_cell_setting           tetragonal
_symmetry_space_group_name_H-M   'I -4 2 d'
_symmetry_Int_Tables_number      122
_space_group_name_Hall           'I -4 2bw'
loop_
_symmetry_equiv_pos_site_id
_symmetry_equiv_pos_as_xyz
1 x,y,z
2 y,-x,-z
3 x,1/2-y,1/4-z
4 -x,-y,z
5 1/2-y,-x,3/4+z
6 -y,x,-z
7 -x,1/2+y,1/4-z
8 1/2+y,x,3/4+z
9 1/2+x,1/2+y,1/2+z
10 1/2+y,1/2-x,1/2-z
11 1/2+x,-y,3/4-z
12 1/2-x,1/2-y,1/2+z
13 -y,1/2-x,1/4+z
14 1/2-y,1/2+x,1/2-z
15 1/2-x,y,3/4-z
16 y,1/2+x,1/4+z
_cell_length_a                   24.8606(5)
_cell_length_b                   24.8606(5)
_cell_length_c                   4.8016(2)
_cell_angle_alpha                90
_cell_angle_beta                 90
_cell_angle_gamma                90
_cell_volume                     2967.63
loop_
_atom_site_label
_atom_site_type_symbol
_atom_site_fract_x
_atom_site_fract_y
_atom_site_fract_z
_atom_site_U_iso_or_equiv
_atom_site_thermal_displace_type
Ag1 Ag 1.0000 0.0000 -0.5000 0.0407 Uani
N1 N 1.0318(3) -0.0682(3) -0.2312(16) 0.0463 Uani
C1 C 1.0368(3) -0.1440(3) 0.1335(17) 0.0380 Uani
C2 C 1.0853(4) -0.1646(4) 0.2320(22) 0.0593 Uani
H1 H 1.1184(4) -0.1498(4) 0.1698(22) 0.0720 Uiso
C3 C 1.0851(4) -0.2061(4) 0.4188(21) 0.0607 Uani
H2 H 1.1185(4) -0.2206(4) 0.4780(21) 0.0720 Uiso
C4 C 1.0387(3) -0.2276(3) 0.5237(17) 0.0327 Uani
C5 C 0.9913(4) -0.2056(4) 0.4235(21) 0.0617 Uani
H3 H 0.9581(4) -0.2192(4) 0.4928(21) 0.0740 Uiso
C6 C 0.9898(4) -0.1656(3) 0.2310(21) 0.0570 Uani
H4 H 0.9563(4) -0.1527(3) 0.1642(21) 0.0690 Uiso
C7 C 1.0350(3) -0.1019(3) -0.0677(16) 0.0387 Uani
N1A N 0.9318(3) -0.0318(3) -0.7688(16) 0.0463 Uani
N1C N 0.9682(3) 0.0682(3) -0.2312(16) 0.0463 Uani
N1E N 1.0682(3) 0.0318(3) -0.7688(16) 0.0463 Uani
C4B C 1.0387(3) -0.2724(3) 0.7263(17) 0.0327 Uani
As1 As 0.83459(13) -0.2522(3) 0.0378(10) 0.0660 Uani
F1 F 0.8820(10) -0.2065(9) -0.0590(60) 0.0913 Uani
F2 F 0.7871(8) -0.2970(8) 0.1299(53) 0.0963 Uani
F3 F 0.8152(9) -0.2097(7) 0.2926(38) 0.0953 Uani
F4 F 0.8566(8) -0.2944(8) -0.2154(45) 0.1223 Uani
F5 F 0.7918(11) -0.2224(12) -0.1879(53) 0.1117 Uani
F6 F 0.8781(11) -0.2815(10) 0.2655(50) 0.0917 Uani
As1B As 0.83459(13) -0.2478(3) 0.2122(10) 0.0660 Uani
F1B F 0.8820(10) -0.2935(9) 0.3090(60) 0.0913 Uani
F2B F 0.7871(8) -0.2030(8) 0.1201(53) 0.0963 Uani
F3B F 0.8152(9) -0.2903(7) -0.0426(38) 0.0953 Uani
F6B F 0.8781(11) -0.2185(10) -0.0155(50) 0.0917 Uani
F5B F 0.7918(11) -0.2776(12) 0.4379(53) 0.1117 Uani
F4B F 0.8566(8) -0.2056(8) 0.4654(45) 0.1223 Uani
loop_
_atom_site_aniso_label
_atom_site_aniso_U_11
_atom_site_aniso_U_22
_atom_site_aniso_U_33
_atom_site_aniso_U_23
_atom_site_aniso_U_13
_atom_site_aniso_U_12
Ag1 0.0421(5) 0.0421(5) 0.0378(6) 0.000 0.000 0.000
N1 0.053(4) 0.041(4) 0.045(4) -0.005(4) 0.000(4) 0.001(3)
C1 0.050(5) 0.028(4) 0.036(4) 0.008(4) -0.001(4) 0.003(4)
C2 0.040(5) 0.074(6) 0.064(6) 0.026(6) 0.009(5) -0.008(4)
C3 0.045(6) 0.070(6) 0.067(7) 0.035(5) 0.007(5) 0.012(5)
C4 0.030(4) 0.035(4) 0.033(4) -0.001(3) 0.006(4) -0.010(3)
C5 0.035(6) 0.064(6) 0.086(7) 0.038(5) 0.002(5) -0.009(4)
C6 0.043(6) 0.053(5) 0.075(6) 0.035(5) -0.007(6) -0.007(4)
C7 0.043(5) 0.039(5) 0.034(5) -0.005(4) 0.001(4) 0.005(4)
N1A 0.041 0.053 0.045 0 0.005 -0.001
N1C 0.053 0.041 0.045 0.005 0 0.001
N1E 0.041 0.053 0.045 0 -0.005 -0.001
C4B 0.03 0.035 0.033 -0.001 -0.006 0.01
As1 0.035(2) 0.052(2) 0.111(5) -0.011(5) 0.000(2) 0.000(2)
F1 0.063(14) 0.013(10) 0.198(31) 0.029(13) 0.004(15) 0.007(8)
F2 0.053(12) 0.023(10) 0.213(32) 0.001(13) 0.003(14) -0.002(8)
F3 0.102(21) 0.028(11) 0.156(20) -0.024(14) -0.009(17) 0.019(10)
F4 0.053(15) 0.094(17) 0.220(25) -0.083(19) 0.007(16) -0.012(11)
F5 0.086(16) 0.091(22) 0.158(26) 0.021(16) -0.026(18) 0.009(13)
F6 0.056(14) 0.032(16) 0.187(23) 0.033(15) -0.002(14) 0.015(11)
As1B 0.035 0.052 0.111 -0.011 0 0
F1B 0.063 0.013 0.198 0.029 -0.004 -0.007
F2B 0.053 0.023 0.213 0.001 -0.003 0.002
F3B 0.102 0.028 0.156 -0.024 0.009 -0.019
F6B 0.056 0.032 0.187 0.033 0.002 -0.015
F5B 0.086 0.091 0.158 0.021 0.026 -0.009
F4B 0.053 0.094 0.22 -0.083 -0.007 0.012
loop_
_geom_bond_atom_site_label_1
_geom_bond_atom_site_label_2
_geom_bond_site_symmetry_1
_geom_bond_site_symmetry_2
Ag1 N1 1_555 1_555
N1 C7 1_555 1_555
C1 C2 1_555 1_555
C2 H1 1_555 1_555
C3 C2 1_555 1_555
H2 C3 1_555 1_555
C4 C3 1_555 1_555
C5 C4 1_555 1_555
H3 C5 1_555 1_555
C6 C1 1_555 1_555
H4 C6 1_555 1_555
C7 C1 1_555 1_555
As1 F1 1_555 1_555
F1 As1B 1_555 1_555
F2 As1 1_555 1_555
F3 As1 1_555 1_555
F4 As1 1_555 1_555
F5 As1 1_555 1_555
F6 As1 1_555 1_555
N1A Ag1 1_555 1_555
N1C Ag1 1_555 1_555
N1E Ag1 1_555 1_555
C4B C4 1_555 1_555
As1B As1 1_555 1_555
F1B As1 1_555 1_555
F2B As1 1_555 1_555
F3B As1 1_555 1_555
F6B As1 1_555 1_555
F5B F2 1_555 1_555
F4B F3 1_555 1_555
C5 C6 1_555 1_555
F1 F6B 1_555 1_555
F2 As1B 1_555 1_555
F2 F3B 1_555 1_555
F3 As1B 1_555 1_555
F3 F2B 1_555 1_555
F4 F3B 1_555 1_555
F5 F2B 1_555 1_555
F6 As1B 1_555 1_555
F6 F1B 1_555 1_555
As1B F1B 1_555 1_555
As1B F2B 1_555 1_555
As1B F3B 1_555 1_555
As1B F6B 1_555 1_555
As1B F5B 1_555 1_555
As1B F4B 1_555 1_555

#END
