
#######################################################################
#
#                 Cambridge Crystallographic Data Centre
#                                CCDC 
#
#######################################################################
#
# If this CIF has been generated from an entry in the Cambridge 
# Structural Database, then it will include bibliographic, chemical, 
# crystal, experimental, refinement or atomic coordinate data resulting 
# from the CCDC's data processing and validation procedures.
#
#######################################################################

data_ONUQOE
_chemical_formula_moiety         '(C65 H52 Cd3 N1 O19 S8 1-)n'
_symmetry_cell_setting           monoclinic
_symmetry_space_group_name_H-M   'P 21/n'
_symmetry_Int_Tables_number      14
_space_group_name_Hall           '-P 2yn'
loop_
_symmetry_equiv_pos_site_id
_symmetry_equiv_pos_as_xyz
1 x,y,z
2 1/2-x,1/2+y,1/2-z
3 -x,-y,-z
4 1/2+x,1/2-y,1/2+z
_cell_length_a                   12.236(4)
_cell_length_b                   27.179(8)
_cell_length_c                   12.467(4)
_cell_angle_alpha                90
_cell_angle_beta                 109.754(4)
_cell_angle_gamma                90
_cell_volume                     3902.07
loop_
_atom_site_label
_atom_site_type_symbol
_atom_site_fract_x
_atom_site_fract_y
_atom_site_fract_z
Cd1 Cd 0.90407(6) 0.10873(3) 1.09917(6)
Cd2 Cd 0.5000 0.5000 0.5000
C1 C 0.9175(9) 0.2064(4) 1.1038(10)
C2 C 0.9456(9) 0.2605(4) 1.1139(9)
C3 C 1.0164(9) 0.2796(4) 1.2161(9)
H1 H 1.0420 0.2588 1.2789
C4 C 1.0518(11) 0.3292(4) 1.2295(11)
H2 H 1.0987 0.3413 1.2998
C5 C 1.0149(10) 0.3588(4) 1.1362(11)
H3 H 1.0385 0.3915 1.1417
C6 C 0.9430(9) 0.3406(4) 1.0337(10)
H4 H 0.9172 0.3617 0.9714
C7 C 0.9074(8) 0.2915(4) 1.0202(9)
C8 C 0.6624(9) 0.4096(4) 0.6112(9)
C9 C 0.7806(8) 0.3879(3) 0.6417(8)
C10 C 0.8217(8) 0.3514(4) 0.7253(8)
C11 C 0.9359(10) 0.3330(4) 0.7485(10)
H5 H 0.9627 0.3083 0.8025
C12 C 1.0078(9) 0.3507(4) 0.6938(10)
H6 H 1.0825 0.3382 0.7107
C13 C 0.9677(9) 0.3874(4) 0.6131(10)
H7 H 1.0152 0.4000 0.5751
C14 C 0.8563(9) 0.4051(4) 0.5897(9)
H8 H 0.8309 0.4300 0.5358
C15 C 0.7452(9) 0.5632(4) 0.5924(9)
C16 C 0.8135(8) 0.5331(3) 0.6943(8)
C17 C 0.7564(9) 0.5138(4) 0.7622(8)
H9 H 0.6779 0.5210 0.7447
C18 C 0.8089(11) 0.4848(4) 0.8538(9)
H10 H 0.7681 0.4728 0.8991
C19 C 0.9247(10) 0.4736(4) 0.8775(9)
H11 H 0.9625 0.4538 0.9399
C20 C 0.9842(9) 0.4911(4) 0.8113(8)
H12 H 1.0622 0.4830 0.8287
C21 C 0.9291(9) 0.5211(3) 0.7169(8)
C22 C 1.2579(8) 0.5309(4) 0.7825(9)
C23 C 1.2341(10) 0.5651(4) 0.8553(9)
H13 H 1.1572 0.5731 0.8448
C24 C 1.3211(11) 0.5872(4) 0.9418(10)
H14 H 1.3032 0.6098 0.9894
C25 C 1.4342(10) 0.5757(4) 0.9576(11)
H15 H 1.4934 0.5905 1.0164
C26 C 1.4612(10) 0.5430(4) 0.8884(10)
H16 H 1.5386 0.5357 0.8999
C27 C 1.3741(8) 0.5202(3) 0.8003(8)
C28 C 1.4065(9) 0.4838(4) 0.7249(8)
O1 O 0.9105(7) 0.1844(2) 1.1895(7)
O3 O 0.9111(7) 0.1856(3) 1.0143(7)
O4 O 0.7968(6) 0.5896(3) 0.5440(6)
O5 O 0.6347(6) 0.5609(2) 0.5592(6)
O6 O 1.4747(7) 0.4971(3) 0.6765(6)
O7 O 1.3632(6) 0.4416(3) 0.7176(6)
O8 O 0.5977(6) 0.3922(3) 0.6610(7)
O9 O 0.6361(6) 0.4431(2) 0.5362(6)
S1 S 1.1514(2) 0.50155(11) 0.6670(2)
S2 S 1.0067(2) 0.54436(11) 0.6299(2)
S3 S 0.7284(2) 0.32799(10) 0.7970(3)
S4 S 0.8150(3) 0.26829(10) 0.8865(2)
Cd1B Cd 0.09593(6) 0.89127(3) -0.09917(6)
Cd1A Cd 0.59593(6) 0.60873(3) 0.40083(6)
Cd1C Cd 1.40407(6) 0.39127(3) 0.59917(6)
Cd1C_2 Cd 0.40407(6) 0.39127(3) 0.59917(6)
Cd1A_2 Cd -0.40407(6) 0.60873(3) 0.40083(6)
Cd2_2 Cd 1.5000 0.5000 0.5000
Cd2_3 Cd -0.5000 0.5000 0.5000
C1B C 0.0825(9) 0.7936(4) -0.1038(10)
C2B C 0.0544(9) 0.7395(4) -0.1139(9)
C3B C -0.0164(9) 0.7204(4) -0.2161(9)
H1B H -0.0420 0.7412 -0.2789
C4B C -0.0518(11) 0.6708(4) -0.2295(11)
H2B H -0.0987 0.6587 -0.2998
C5B C -0.0149(10) 0.6412(4) -0.1362(11)
H3B H -0.0385 0.6085 -0.1417
C6B C 0.0570(9) 0.6594(4) -0.0337(10)
H4B H 0.0828 0.6383 0.0286
C7B C 0.0926(8) 0.7085(4) -0.0202(9)
C8B C 0.3376(9) 0.5904(4) 0.3888(9)
C9B C 0.2194(8) 0.6121(3) 0.3583(8)
C10B C 0.1783(8) 0.6486(4) 0.2747(8)
C11B C 0.0641(10) 0.6670(4) 0.2515(10)
H5B H 0.0373 0.6917 0.1975
C12B C -0.0078(9) 0.6493(4) 0.3062(10)
H6B H -0.0825 0.6618 0.2893
C13B C 0.0323(9) 0.6126(4) 0.3869(10)
H7B H -0.0152 0.6000 0.4249
C14B C 0.1437(9) 0.5949(4) 0.4103(9)
H8B H 0.1691 0.5700 0.4642
C15B C 0.2548(9) 0.4368(4) 0.4076(9)
C16B C 0.1865(8) 0.4669(3) 0.3057(8)
C17B C 0.2436(9) 0.4862(4) 0.2378(8)
H9B H 0.3221 0.4790 0.2553
C18B C 0.1911(11) 0.5152(4) 0.1462(9)
H10B H 0.2319 0.5272 0.1009
C19B C 0.0753(10) 0.5264(4) 0.1225(9)
H11B H 0.0375 0.5462 0.0601
C20B C 0.0158(9) 0.5089(4) 0.1887(8)
H12B H -0.0622 0.5170 0.1713
C21B C 0.0709(9) 0.4789(3) 0.2831(8)
C22B C -0.2579(8) 0.4691(4) 0.2175(9)
C23B C -0.2341(10) 0.4349(4) 0.1447(9)
H13B H -0.1572 0.4269 0.1552
C24B C -0.3211(11) 0.4128(4) 0.0582(10)
H14B H -0.3032 0.3902 0.0106
C25B C -0.4342(10) 0.4243(4) 0.0424(11)
H15B H -0.4934 0.4095 -0.0164
C26B C -0.4612(10) 0.4570(4) 0.1116(10)
H16B H -0.5386 0.4643 0.1001
C27B C -0.3741(8) 0.4798(3) 0.1997(8)
C28B C -0.4065(9) 0.5162(4) 0.2751(8)
O1B O 0.0895(7) 0.8156(2) -0.1895(7)
O3B O 0.0889(7) 0.8144(3) -0.0143(7)
O4B O 0.2032(6) 0.4104(3) 0.4560(6)
O4A O 0.7032(6) 0.0896(3) 0.9560(6)
O4C O 0.2968(6) 0.9104(3) 0.0440(6)
O5B O 0.3653(6) 0.4391(2) 0.4408(6)
O5A O 0.8653(6) 0.0609(2) 0.9408(6)
O5C O 0.1347(6) 0.9391(2) 0.0592(6)
O6B O -0.4747(7) 0.5029(3) 0.3235(6)
O6_2 O 0.4747(7) 0.4971(3) 0.6765(6)
O6B_2 O 0.5253(7) 0.5029(3) 0.3235(6)
O7B O -0.3632(6) 0.5584(3) 0.2824(6)
O7C O 0.8632(6) 0.0584(3) 1.2176(6)
O7A O 0.1368(6) 0.9416(3) -0.2176(6)
O8B O 0.4023(6) 0.6078(3) 0.3390(7)
O8C O 1.0977(6) 0.1078(3) 1.1610(7)
O8A O -0.0977(6) 0.8922(3) -0.1610(7)
O9B O 0.3639(6) 0.5569(2) 0.4638(6)
S1B S -0.1514(2) 0.49845(11) 0.3330(2)
S2B S -0.0067(2) 0.45564(11) 0.3701(2)
S3B S 0.2716(2) 0.67201(10) 0.2030(3)
S4B S 0.1850(3) 0.73171(10) 0.1135(2)
C29 C 0.9023(17) 0.7533(6) 0.4359(15)
H17 H 0.8268 0.7448 0.4376
H18 H 0.9474 0.7679 0.5073
H19 H 0.9406 0.7241 0.4233
C30 C 0.8903(10) 0.7890(3) 0.3420(9)
C31 C 0.7852(8) 0.8079(5) 0.2707(12)
H20 H 0.7159 0.7974 0.2785
C32 C 0.7838(11) 0.8423(5) 0.1878(10)
H21 H 0.7135 0.8549 0.1401
C33 C 0.8874(15) 0.8579(3) 0.1762(7)
H22 H 0.8864 0.8809 0.1207
C34 C 0.9924(11) 0.8390(3) 0.2474(9)
N1 N 0.9939(8) 0.8046(3) 0.3303(7)
H23 H 1.0589 0.7929 0.3744
C35 C 1.1168(18) 0.8519(6) 0.2514(14)
H24 H 1.1719 0.8329 0.3100
H25 H 1.1310 0.8863 0.2677
H26 H 1.1247 0.8445 0.1791
C36 C 0.2981(16) 0.7562(8) 0.4730(18)
H27 H 0.3180 0.7828 0.4322
H28 H 0.2992 0.7258 0.4344
H29 H 0.3534 0.7548 0.5488
O10 O 0.1856(11) 0.7642(6) 0.4782(14)
H35 H 0.1798 0.7929 0.4962
C37 C 0.776(3) 0.5881(10) 0.054(2)
H30 H 0.7667 0.6113 -0.0065
H31 H 0.7437 0.5570 0.0226
H32 H 0.8571 0.5841 0.0965
O11 O 0.7187(17) 0.6054(9) 0.1262(17)
H36 H 0.6806 0.6299 0.0979
O2 O 0.6990(17) 0.6888(8) 0.1610(14)
H33 H 0.6422 0.7083 0.1330
H34 H 0.6957 0.6577 0.1654
loop_
_geom_bond_atom_site_label_1
_geom_bond_atom_site_label_2
_geom_bond_site_symmetry_1
_geom_bond_site_symmetry_2
Cd1 O1 1_555 1_555
Cd2 O5 1_555 1_555
C1 C2 1_555 1_555
C2 C3 1_555 1_555
C3 H1 1_555 1_555
C4 C3 1_555 1_555
H2 C4 1_555 1_555
C5 C4 1_555 1_555
H3 C5 1_555 1_555
C6 C5 1_555 1_555
H4 C6 1_555 1_555
C7 C2 1_555 1_555
C8 C9 1_555 1_555
C9 C10 1_555 1_555
C10 C11 1_555 1_555
C11 H5 1_555 1_555
C12 C11 1_555 1_555
H6 C12 1_555 1_555
C13 C12 1_555 1_555
H7 C13 1_555 1_555
C14 C9 1_555 1_555
H8 C14 1_555 1_555
C15 C16 1_555 1_555
C16 C17 1_555 1_555
C17 H9 1_555 1_555
C18 C17 1_555 1_555
H10 C18 1_555 1_555
C19 C18 1_555 1_555
H11 C19 1_555 1_555
C20 C19 1_555 1_555
H12 C20 1_555 1_555
C21 C16 1_555 1_555
C22 C23 1_555 1_555
C23 H13 1_555 1_555
C24 C23 1_555 1_555
H14 C24 1_555 1_555
C25 C24 1_555 1_555
H15 C25 1_555 1_555
C26 C25 1_555 1_555
H16 C26 1_555 1_555
C27 C22 1_555 1_555
C28 C27 1_555 1_555
C29 H17 1_555 1_555
H18 C29 1_555 1_555
H19 C29 1_555 1_555
C30 C29 1_555 1_555
C31 C30 1_555 1_555
H20 C31 1_555 1_555
C32 C31 1_555 1_555
H21 C32 1_555 1_555
C33 C32 1_555 1_555
H22 C33 1_555 1_555
C34 C33 1_555 1_555
N1 C30 1_555 1_555
H23 N1 1_555 1_555
C35 C34 1_555 1_555
H24 C35 1_555 1_555
H25 C35 1_555 1_555
H26 C35 1_555 1_555
C36 H27 1_555 1_555
H28 C36 1_555 1_555
H29 C36 1_555 1_555
C37 H30 1_555 1_555
H31 C37 1_555 1_555
H32 C37 1_555 1_555
O1 C1 1_555 1_555
O2 H33 1_555 1_555
H34 O2 1_555 1_555
O3 Cd1 1_555 1_555
O4 C15 1_555 1_555
O5 C15 1_555 1_555
O6 C28 1_555 1_555
O7 C28 1_555 1_555
O8 C8 1_555 1_555
O9 Cd2 1_555 1_555
O10 C36 1_555 1_555
H35 O10 1_555 1_555
O11 C37 1_555 1_555
H36 O11 1_555 1_555
S1 C22 1_555 1_555
S2 C21 1_555 1_555
S3 C10 1_555 1_555
S4 C7 1_555 1_555
Cd1B O1B 1_555 1_555
Cd1A O4 1_555 1_555
Cd1C O7 1_555 1_555
Cd1C_2 O8 1_555 1_555
Cd1A_2 O7B 1_555 1_555
Cd2_2 O6 1_555 1_555
Cd2_3 O6B 1_555 1_555
C1B C2B 1_555 1_555
C2B C3B 1_555 1_555
C3B H1B 1_555 1_555
C4B C3B 1_555 1_555
H2B C4B 1_555 1_555
C5B C4B 1_555 1_555
H3B C5B 1_555 1_555
C6B C5B 1_555 1_555
H4B C6B 1_555 1_555
C7B C2B 1_555 1_555
C8B C9B 1_555 1_555
C9B C10B 1_555 1_555
C10B C11B 1_555 1_555
C11B H5B 1_555 1_555
C12B C11B 1_555 1_555
H6B C12B 1_555 1_555
C13B C12B 1_555 1_555
H7B C13B 1_555 1_555
C14B C9B 1_555 1_555
H8B C14B 1_555 1_555
C15B C16B 1_555 1_555
C16B C17B 1_555 1_555
C17B H9B 1_555 1_555
C18B C17B 1_555 1_555
H10B C18B 1_555 1_555
C19B C18B 1_555 1_555
H11B C19B 1_555 1_555
C20B C19B 1_555 1_555
H12B C20B 1_555 1_555
C21B C16B 1_555 1_555
C22B C23B 1_555 1_555
C23B H13B 1_555 1_555
C24B C23B 1_555 1_555
H14B C24B 1_555 1_555
C25B C24B 1_555 1_555
H15B C25B 1_555 1_555
C26B C25B 1_555 1_555
H16B C26B 1_555 1_555
C27B C22B 1_555 1_555
C28B C27B 1_555 1_555
O1B C1B 1_555 1_555
O3B Cd1B 1_555 1_555
O4B Cd1C_2 1_555 1_555
O4A Cd1 1_555 1_555
O4C Cd1B 1_555 1_555
O5B Cd2 1_555 1_555
O5A Cd1 1_555 1_555
O5C Cd1B 1_555 1_555
O6B C28B 1_555 1_555
O6_2 Cd2 1_555 1_555
O6B_2 Cd2 1_555 1_555
O7B C28B 1_555 1_555
O7C Cd1 1_555 1_555
O7A Cd1B 1_555 1_555
O8B Cd1A 1_555 1_555
O8C Cd1 1_555 1_555
O8A Cd1B 1_555 1_555
O9B Cd2 1_555 1_555
S1B C22B 1_555 1_555
S2B C21B 1_555 1_555
S3B C10B 1_555 1_555
S4B C7B 1_555 1_555
C1 O3 1_555 1_555
C6 C7 1_555 1_555
C8 O9 1_555 1_555
C13 C14 1_555 1_555
C20 C21 1_555 1_555
C26 C27 1_555 1_555
C34 N1 1_555 1_555
O5 Cd1A 1_555 1_555
S1 S2 1_555 1_555
S3 S4 1_555 1_555
Cd1C_2 O5B 1_555 1_555
C1B O3B 1_555 1_555
C6B C7B 1_555 1_555
C8B O8B 1_555 1_555
C8B O9B 1_555 1_555
C13B C14B 1_555 1_555
C15B O4B 1_555 1_555
C15B O5B 1_555 1_555
C20B C21B 1_555 1_555
C26B C27B 1_555 1_555
S1B S2B 1_555 1_555
S3B S4B 1_555 1_555

#END
