
#######################################################################
#
#                 Cambridge Crystallographic Data Centre
#                                CCDC 
#
#######################################################################
#
# If this CIF has been generated from an entry in the Cambridge 
# Structural Database, then it will include bibliographic, chemical, 
# crystal, experimental, refinement or atomic coordinate data resulting 
# from the CCDC's data processing and validation procedures.
#
#######################################################################

data_BERQIA
_chemical_formula_moiety         '(C41 H51 Cd2 N8 O17 1-)n'
_symmetry_cell_setting           orthorhombic
_symmetry_space_group_name_H-M   'F d d 2'
_symmetry_Int_Tables_number      43
_space_group_name_Hall           'F 2 -2d'
loop_
_symmetry_equiv_pos_site_id
_symmetry_equiv_pos_as_xyz
1 x,y,z
2 -x,-y,z
3 1/4-x,1/4+y,1/4+z
4 3/4+x,3/4-y,1/4+z
5 x,1/2+y,1/2+z
6 -x,1/2-y,1/2+z
7 1/4-x,3/4+y,3/4+z
8 3/4+x,1/4-y,3/4+z
9 1/2+x,y,1/2+z
10 1/2-x,-y,1/2+z
11 3/4-x,1/4+y,3/4+z
12 1/4+x,3/4-y,3/4+z
13 1/2+x,1/2+y,z
14 1/2-x,1/2-y,z
15 3/4-x,3/4+y,1/4+z
16 1/4+x,1/4-y,1/4+z
_cell_length_a                   21.501(4)
_cell_length_b                   26.510(8)
_cell_length_c                   30.067(6)
_cell_angle_alpha                90
_cell_angle_beta                 90
_cell_angle_gamma                90
_cell_volume                     17137.9
loop_
_atom_site_label
_atom_site_type_symbol
_atom_site_fract_x
_atom_site_fract_y
_atom_site_fract_z
_atom_site_U_iso_or_equiv
_atom_site_thermal_displace_type
Cd1 Cd 0.0000 0.0000 0.00222(3) 0.0315 Uani
O1 O -0.0806(5) -0.0315(6) 0.0433(5) 0.0980 Uani
O2 O 0.0020(5) -0.0708(5) 0.0624(5) 0.0737 Uani
O3 O -0.1753(5) -0.2321(5) 0.1957(4) 0.0743 Uani
O4 O -0.2387(6) -0.1706(5) 0.2081(4) 0.0780 Uani
C1 C -0.0948(8) -0.0943(6) 0.0955(6) 0.0550 Uani
C2 C -0.1548(7) -0.0835(6) 0.1051(5) 0.0537 Uani
C3 C -0.1876(7) -0.1138(6) 0.1368(5) 0.0530 Uani
C4 C -0.1610(7) -0.1549(6) 0.1543(4) 0.0500 Uani
C5 C -0.1000(8) -0.1674(6) 0.1437(6) 0.0683 Uani
H1 H -0.0809 -0.1963 0.1563 0.0820 Uiso
C6 C -0.0673(8) -0.1367(6) 0.1139(6) 0.0653 Uani
H2 H -0.0257 -0.1450 0.1062 0.0780 Uiso
C7 C -0.0510(11) -0.0647(6) 0.0649(5) 0.0713 Uani
C8 C -0.1917(7) -0.1891(6) 0.1867(6) 0.0530 Uani
N1 N -0.1883(10) -0.0417(8) 0.0916(8) 0.0570 Uiso
H3 H -0.2327 -0.0296 0.1021 0.0680 Uiso
H4 H -0.1771 -0.0137 0.0720 0.0680 Uiso
H5 H -0.2348 -0.1000 0.1453 0.0680 Uiso
O1A O 0.0806(5) 0.0315(6) 0.0433(5) 0.0980 Uani
O2A O -0.0020(5) 0.0708(5) 0.0624(5) 0.0737 Uani
O3A O 0.1753(5) 0.2321(5) 0.1957(4) 0.0743 Uani
O4A O 0.2387(6) 0.1706(5) 0.2081(4) 0.0780 Uani
C1A C 0.0948(8) 0.0943(6) 0.0955(6) 0.0550 Uani
C2A C 0.1548(7) 0.0835(6) 0.1051(5) 0.0537 Uani
C3A C 0.1876(7) 0.1138(6) 0.1368(5) 0.0530 Uani
C4A C 0.1610(7) 0.1549(6) 0.1543(4) 0.0500 Uani
C5A C 0.1000(8) 0.1674(6) 0.1437(6) 0.0683 Uani
H1A H 0.0809 0.1963 0.1563 0.0820 Uiso
C6A C 0.0673(8) 0.1367(6) 0.1139(6) 0.0653 Uani
H2A H 0.0257 0.1450 0.1062 0.0780 Uiso
C7A C 0.0510(11) 0.0647(6) 0.0649(5) 0.0713 Uani
C8A C 0.1917(7) 0.1891(6) 0.1867(6) 0.0530 Uani
N1A N 0.1883(10) 0.0417(8) 0.0916(8) 0.0570 Uiso
H3A H 0.2327 0.0296 0.1021 0.0680 Uiso
H4A H 0.1771 0.0137 0.0720 0.0680 Uiso
H5A H 0.2348 0.1000 0.1453 0.0680 Uiso
Cd1B Cd 0.2500 0.2500 0.25222(3) 0.0315 Uani
Cd1C Cd -0.2500 -0.2500 0.25222(3) 0.0315 Uani
O3J O -0.0747(5) 0.0179(5) -0.0543(4) 0.0743 Uani
O3K O 0.0747(5) -0.0179(5) -0.0543(4) 0.0743 Uani
O4J O -0.0113(6) 0.0794(5) -0.0419(4) 0.0780 Uani
O4K O 0.0113(6) -0.0794(5) -0.0419(4) 0.0780 Uani
Cd2 Cd -0.58546(3) -0.25061(3) 0.14260(3) 0.0395 Uani
O5 O -0.4978(5) -0.2193(4) 0.1063(4) 0.0720 Uani
O6 O -0.5832(5) -0.1990(5) 0.0712(5) 0.0837 Uani
O7 O -0.3253(7) -0.0917(6) -0.0572(7) 0.1147 Uani
O8 O -0.4057(5) -0.0427(5) -0.0686(5) 0.0947 Uani
O9 O -0.5860(4) -0.3272(4) 0.0882(4) 0.0573 Uani
O10 O -0.6707(4) -0.2888(4) 0.1118(4) 0.0647 Uani
O11 O -0.7657(5) -0.4769(5) -0.0534(4) 0.0637 Uani
O12 O -0.8356(7) -0.4223(6) -0.0498(6) 0.1067 Uani
C9 C -0.4892(6) -0.1660(5) 0.0427(5) 0.0457 Uani
C10 C -0.5181(8) -0.1341(7) 0.0149(8) 0.0943 Uani
H6 H -0.5620 -0.1305 0.0167 0.1130 Uiso
C11 C -0.4839(9) -0.1052(7) -0.0176(7) 0.0907 Uani
C12 C -0.4228(7) -0.1100(6) -0.0190(6) 0.0640 Uani
C13 C -0.3916(8) -0.1422(7) 0.0118(7) 0.0850 Uani
H7 H -0.3475 -0.1436 0.0127 0.1020 Uiso
C14 C -0.4268(9) -0.1709(6) 0.0401(6) 0.0793 Uani
H8 H -0.4067 -0.1951 0.0585 0.0950 Uiso
C15 C -0.5254(6) -0.1960(4) 0.0772(5) 0.0447 Uani
C16 C -0.3821(10) -0.0771(6) -0.0505(5) 0.0743 Uani
C17 C -0.6827(6) -0.3528(6) 0.0569(5) 0.0583 Uani
C18 C -0.7457(7) -0.3418(8) 0.0485(8) 0.1190 Uani
C19 C -0.7785(8) -0.3722(8) 0.0195(8) 0.1060 Uani
H9 H -0.8210 -0.3647 0.0141 0.1270 Uiso
C20 C -0.7528(7) -0.4120(7) -0.0016(7) 0.0703 Uani
C21 C -0.6888(6) -0.4250(5) 0.0079(4) 0.0437 Uani
H10 H -0.6699 -0.4538 -0.0052 0.0530 Uiso
C22 C -0.6569(5) -0.3952(5) 0.0357(4) 0.0443 Uani
C23 C -0.6442(6) -0.3208(5) 0.0868(5) 0.0520 Uani
C24 C -0.7886(7) -0.4380(6) -0.0379(5) 0.0590 Uani
N2 N -0.5176(11) -0.0757(8) -0.0475(8) 0.1360 Uiso
H11 H -0.4974 -0.0614 -0.0687 0.1630 Uiso
H12 H -0.5573 -0.0724 -0.0458 0.1630 Uiso
N3 N -0.776(2) -0.3011(15) 0.0651(14) 0.1460 Uiso
H13 H -0.8229 -0.2888 0.0588 0.1750 Uiso
H14 H -0.7641 -0.2755 0.0868 0.1750 Uiso
H15 H -0.6220 -0.3968 0.0432 0.0680 Uiso
Cd2G Cd -0.83546(3) -0.49939(3) -0.10740(3) 0.0395 Uani
Cd2K Cd -0.33546(3) 0.00061(3) -0.10740(3) 0.0395 Uani
O8C O -0.6557(5) -0.2073(5) 0.1814(5) 0.0947 Uani
O11O O -0.5157(5) -0.2731(5) 0.1966(4) 0.0637 Uani
O12O O -0.5856(7) -0.3277(6) 0.2002(6) 0.1067 Uani
N4 N -0.3711(17) 0.0267(15) 0.1122(15) 0.4080 Uiso
O13 O -0.3121(17) -0.0336(18) 0.1445(17) 0.4080 Uiso
C25 C -0.3338(17) 0.0112(17) 0.1450(15) 0.4080 Uiso
C26 C -0.391(3) -0.005(2) 0.0751(17) 0.4080 Uiso
C27 C -0.395(3) 0.0791(16) 0.112(2) 0.4080 Uiso
N5 N -0.2262(5) -0.0784(5) 0.2544(5) 0.0670 Uiso
C28 C -0.1820(8) -0.0447(7) 0.2323(7) 0.0870 Uiso
C29 C -0.2909(8) -0.0564(7) 0.2587(7) 0.0920 Uiso
N6 N -0.1724(11) -0.1723(8) 0.3931(10) 0.1470 Uiso
C30 C -0.209(2) -0.2056(15) 0.4203(16) 0.2500 Uiso
C31 C -0.1030(14) -0.1795(13) 0.3972(14) 0.1860 Uiso
N7 N -0.0712(12) -0.3135(9) 0.1886(11) 0.1750 Uiso
C32 C -0.0574(14) -0.3312(12) 0.2329(11) 0.1570 Uiso
C33 C -0.100(3) -0.3471(19) 0.1572(15) 0.3100 Uiso
loop_
_atom_site_aniso_label
_atom_site_aniso_U_11
_atom_site_aniso_U_22
_atom_site_aniso_U_33
_atom_site_aniso_U_23
_atom_site_aniso_U_13
_atom_site_aniso_U_12
Cd1 0.0378(5) 0.0318(5) 0.0249(5) 0.000 0.000 0.0003(6)
O1 0.075(8) 0.125(11) 0.094(11) 0.014(10) 0.021(8) -0.051(8)
O2 0.072(8) 0.074(7) 0.075(9) 0.019(7) 0.043(6) -0.011(6)
O3 0.084(8) 0.061(7) 0.078(9) 0.034(6) -0.014(6) -0.040(6)
O4 0.102(9) 0.092(9) 0.040(6) 0.000(7) 0.019(6) -0.042(7)
C1 0.072(9) 0.050(8) 0.043(8) 0.002(7) 0.011(8) -0.009(7)
C2 0.062(9) 0.052(8) 0.047(8) 0.010(7) 0.016(7) -0.004(7)
C3 0.074(9) 0.058(8) 0.027(7) -0.006(7) 0.007(7) -0.021(7)
C4 0.070(9) 0.061(8) 0.019(6) 0.008(6) 0.004(6) -0.040(7)
C5 0.088(12) 0.062(9) 0.055(9) 0.005(8) 0.002(9) -0.020(8)
C6 0.059(9) 0.068(10) 0.069(11) 0.031(9) 0.013(8) -0.006(7)
C7 0.133(17) 0.044(8) 0.037(8) 0.021(7) 0.031(10) 0.027(10)
C8 0.055(5) 0.057(5) 0.047(5) -0.009(4) -0.006(4) -0.012(4)
O1A 0.075 0.125 0.094 -0.014 -0.021 -0.051
O2A 0.072 0.074 0.075 -0.019 -0.043 -0.011
O3A 0.084 0.061 0.078 -0.034 0.014 -0.04
O4A 0.102 0.092 0.04 0 -0.019 -0.042
C1A 0.072 0.05 0.043 -0.002 -0.011 -0.009
C2A 0.062 0.052 0.047 -0.01 -0.016 -0.004
C3A 0.074 0.058 0.027 0.006 -0.007 -0.021
C4A 0.07 0.061 0.019 -0.008 -0.004 -0.04
C5A 0.088 0.062 0.055 -0.005 -0.002 -0.02
C6A 0.059 0.068 0.069 -0.031 -0.013 -0.006
C7A 0.133 0.044 0.037 -0.021 -0.031 0.027
C8A 0.055 0.057 0.047 0.009 0.006 -0.012
Cd1B 0.0378 0.0318 0.0249 0 0 -0.0003
Cd1C 0.0378 0.0318 0.0249 0 0 -0.0003
O3J 0.084 0.061 0.078 0.034 0.014 0.04
O3K 0.084 0.061 0.078 -0.034 -0.014 0.04
O4J 0.102 0.092 0.04 0 -0.019 0.042
O4K 0.102 0.092 0.04 0 0.019 0.042
Cd2 0.0378(4) 0.0417(4) 0.0389(5) 0.0024(4) -0.0021(3) -0.0011(5)
O5 0.095(8) 0.065(6) 0.056(7) 0.036(6) 0.000(6) 0.000(6)
O6 0.072(8) 0.083(8) 0.096(10) 0.028(8) 0.027(7) 0.003(6)
O7 0.087(10) 0.123(11) 0.134(14) 0.058(11) 0.028(9) -0.004(9)
O8 0.093(8) 0.089(9) 0.102(10) 0.054(9) 0.007(8) -0.024(7)
O9 0.052(7) 0.064(7) 0.056(7) -0.004(5) -0.006(5) -0.002(4)
O10 0.069(6) 0.070(6) 0.055(6) -0.040(5) 0.011(5) -0.002(5)
O11 0.056(6) 0.086(8) 0.049(7) -0.021(6) -0.001(5) -0.006(6)
O12 0.070(8) 0.130(11) 0.120(12) -0.068(11) -0.037(7) 0.025(9)
C9 0.051(8) 0.047(7) 0.039(7) 0.014(6) 0.008(6) 0.002(6)
C10 0.053(8) 0.101(13) 0.129(18) 0.071(14) 0.039(10) 0.022(8)
C11 0.084(12) 0.099(13) 0.089(14) 0.061(12) -0.003(11) 0.015(10)
C12 0.067(10) 0.057(9) 0.068(11) 0.015(8) -0.006(9) -0.015(7)
C13 0.052(9) 0.110(14) 0.093(14) 0.044(12) 0.015(9) -0.003(9)
C14 0.099(13) 0.070(10) 0.069(12) 0.041(9) 0.012(10) 0.016(9)
C15 0.051(7) 0.027(6) 0.056(8) 0.001(6) 0.014(6) 0.005(5)
C16 0.129(17) 0.046(8) 0.048(9) 0.019(7) 0.031(10) 0.004(10)
C17 0.039(7) 0.075(9) 0.061(10) -0.036(8) 0.002(7) 0.007(6)
C18 0.057(10) 0.15(2) 0.15(2) -0.118(19) -0.021(12) 0.017(11)
C19 0.041(8) 0.154(19) 0.123(18) -0.094(16) 0.002(10) 0.015(10)
C20 0.054(9) 0.085(12) 0.072(12) -0.027(9) 0.016(8) -0.003(8)
C21 0.057(8) 0.047(7) 0.027(6) -0.018(6) 0.011(6) 0.002(6)
C22 0.038(6) 0.064(8) 0.031(6) -0.007(6) -0.001(5) -0.002(6)
C23 0.047(7) 0.067(9) 0.042(8) -0.015(7) 0.014(6) -0.026(7)
C24 0.041(8) 0.085(10) 0.051(9) -0.037(8) 0.014(7) -0.020(7)
Cd2G 0.0378 0.0417 0.0389 -0.0024 -0.0021 0.0011
Cd2K 0.0378 0.0417 0.0389 -0.0024 -0.0021 0.0011
O8C 0.093 0.089 0.102 -0.054 0.007 0.024
O11O 0.056 0.086 0.049 0.021 -0.001 0.006
O12O 0.07 0.13 0.12 0.068 -0.037 -0.025
loop_
_geom_bond_atom_site_label_1
_geom_bond_atom_site_label_2
_geom_bond_site_symmetry_1
_geom_bond_site_symmetry_2
Cd1 O1 1_555 1_555
O1 C7 1_555 1_555
O2 Cd1 1_555 1_555
O3 C8 1_555 1_555
O4 C8 1_555 1_555
C1 C2 1_555 1_555
C2 C3 1_555 1_555
C3 C4 1_555 1_555
C4 C5 1_555 1_555
C5 H1 1_555 1_555
C6 C1 1_555 1_555
H2 C6 1_555 1_555
C7 O2 1_555 1_555
C8 C4 1_555 1_555
N1 C2 1_555 1_555
H3 N1 1_555 1_555
H4 N1 1_555 1_555
H5 C3 1_555 1_555
Cd2 O5 1_555 1_555
O5 C15 1_555 1_555
O6 Cd2 1_555 1_555
O7 C16 1_555 1_555
O8 C16 1_555 1_555
O9 Cd2 1_555 1_555
O10 Cd2 1_555 1_555
O11 C24 1_555 1_555
O12 C24 1_555 1_555
C9 C10 1_555 1_555
C10 H6 1_555 1_555
C11 C10 1_555 1_555
C12 C11 1_555 1_555
C13 C12 1_555 1_555
H7 C13 1_555 1_555
C14 C9 1_555 1_555
H8 C14 1_555 1_555
C15 O6 1_555 1_555
C16 C12 1_555 1_555
C17 C18 1_555 1_555
C18 C19 1_555 1_555
C19 H9 1_555 1_555
C20 C19 1_555 1_555
C21 C20 1_555 1_555
H10 C21 1_555 1_555
C22 C17 1_555 1_555
C23 O9 1_555 1_555
C24 C20 1_555 1_555
N2 C11 1_555 1_555
H11 N2 1_555 1_555
H12 N2 1_555 1_555
N3 C18 1_555 1_555
H13 N3 1_555 1_555
H14 N3 1_555 1_555
H15 C22 1_555 1_555
N4 C25 1_555 1_555
O13 C25 1_555 1_555
C26 N4 1_555 1_555
C27 N4 1_555 1_555
N5 C28 1_555 1_555
C29 N5 1_555 1_555
N6 C30 1_555 1_555
C31 N6 1_555 1_555
N7 C32 1_555 1_555
C33 N7 1_555 1_555
O1A Cd1 1_555 1_555
O2A Cd1 1_555 1_555
O3A C8A 1_555 1_555
O4A C8A 1_555 1_555
C1A C2A 1_555 1_555
C2A C3A 1_555 1_555
C3A C4A 1_555 1_555
C4A C5A 1_555 1_555
C5A H1A 1_555 1_555
C6A C1A 1_555 1_555
H2A C6A 1_555 1_555
C7A O1A 1_555 1_555
C8A C4A 1_555 1_555
N1A C2A 1_555 1_555
H3A N1A 1_555 1_555
H4A N1A 1_555 1_555
H5A C3A 1_555 1_555
Cd1B O3A 1_555 1_555
Cd1C O3 1_555 1_555
O3J Cd1 1_555 1_555
O3K Cd1 1_555 1_555
O4J Cd1 1_555 1_555
O4K Cd1 1_555 1_555
Cd2G O11 1_555 1_555
Cd2K O8 1_555 1_555
O8C Cd2 1_555 1_555
O11O Cd2 1_555 1_555
O12O Cd2 1_555 1_555
O4 Cd1C 1_555 1_555
C1 C7 1_555 1_555
C5 C6 1_555 1_555
O10 C23 1_555 1_555
O12 Cd2G 1_555 1_555
C9 C15 1_555 1_555
C13 C14 1_555 1_555
C17 C23 1_555 1_555
C21 C22 1_555 1_555
O2A C7A 1_555 1_555
O4A Cd1B 1_555 1_555
C1A C7A 1_555 1_555
C5A C6A 1_555 1_555

#END
