
#######################################################################
#
#                 Cambridge Crystallographic Data Centre
#                                CCDC 
#
#######################################################################
#
# If this CIF has been generated from an entry in the Cambridge 
# Structural Database, then it will include bibliographic, chemical, 
# crystal, experimental, refinement or atomic coordinate data resulting 
# from the CCDC's data processing and validation procedures.
#
#######################################################################

data_RANNUS
_chemical_formula_moiety         '(C24 H56 Nd2 O37 P6)n'
_symmetry_cell_setting           triclinic
_symmetry_space_group_name_H-M   'P -1'
_symmetry_Int_Tables_number      2
_space_group_name_Hall           '-P 1'
loop_
_symmetry_equiv_pos_site_id
_symmetry_equiv_pos_as_xyz
1 x,y,z
2 -x,-y,-z
_cell_length_a                   10.3912(10)
_cell_length_b                   11.8723(4)
_cell_length_c                   11.8790(8)
_cell_angle_alpha                82.379(10)
_cell_angle_beta                 87.725(12)
_cell_angle_gamma                81.666(8)
_cell_volume                     1436.89
loop_
_atom_site_label
_atom_site_type_symbol
_atom_site_fract_x
_atom_site_fract_y
_atom_site_fract_z
Nd1 Nd -0.018957(16) 0.077379(16) 0.239290(14)
P1 P -0.29801(11) 0.31665(10) 0.27806(10)
P2 P 0.11861(8) 0.11678(8) 0.50462(7)
P3 P -0.15370(8) 0.10744(8) -0.03464(7)
O1 O -0.2001(3) 0.2157(3) 0.2591(3)
O2 O -0.4356(3) 0.3012(4) 0.2447(3)
H1 H -0.4487 0.3303 0.1788
O3 O -0.2609(5) 0.4295(4) 0.2201(4)
O4 O -0.1791(3) 0.3306(3) 0.4683(3)
H2 H -0.1804 0.3289 0.5375
O5 O 0.0817(3) 0.0731(2) 0.6240(2)
O6 O 0.0109(2) 0.1536(2) 0.4208(2)
O7 O 0.1981(3) 0.2194(3) 0.5115(2)
H3 H 0.2025 0.2564 0.4484
O8 O 0.2044(2) 0.0098(3) 0.3300(2)
H4 H 0.2451 -0.0534 0.3131
O9 O -0.1060(3) 0.0703(2) -0.1466(2)
O10 O -0.0559(3) 0.1411(2) 0.0397(2)
O11 O -0.2666(3) 0.2094(3) -0.0600(3)
H5 H -0.2441 0.2684 -0.0432
O12 O -0.2017(2) -0.0100(3) 0.1638(2)
H6 H -0.2431 -0.0515 0.2113
O13 O 0.1131(3) 0.2316(3) 0.1747(3)
H7 H 0.1365 0.2721 0.2224
H8 H 0.1199 0.2745 0.1124
C1 C -0.3056(4) 0.3199(4) 0.4314(4)
H9 H -0.3288 0.2463 0.4679
C2 C -0.4048(4) 0.4142(4) 0.4679(3)
C3 C -0.5257(4) 0.3888(4) 0.5031(4)
H10 H -0.5438 0.3141 0.5052
C4 C -0.3782(4) 0.5267(4) 0.4642(4)
H11 H -0.2966 0.5450 0.4400
C5 C 0.2277(3) -0.0001(3) 0.4488(3)
H12 H 0.2026 -0.0732 0.4846
C6 C 0.3695(3) 0.0004(3) 0.4739(3)
C7 C 0.4146(4) -0.0417(4) 0.5822(3)
H13 H 0.3578 -0.0698 0.6380
C8 C 0.4557(4) 0.0421(4) 0.3926(3)
H14 H 0.4266 0.0709 0.3200
C9 C -0.2257(3) -0.0126(3) 0.0459(3)
H15 H -0.1799 -0.0846 0.0235
C10 C -0.3689(3) -0.0071(3) 0.0238(3)
C11 C -0.4610(4) 0.0632(4) 0.0792(3)
H16 H -0.4351 0.1057 0.1325
C12 C -0.4078(4) -0.0707(4) -0.0554(3)
H17 H -0.3462 -0.1184 -0.0926
P1A P -0.70199(11) 0.68335(10) 0.72194(10)
O1A O -0.7999(3) 0.7843(3) 0.7409(3)
O2A O -0.5644(3) 0.6988(4) 0.7553(3)
H1A H -0.5513 0.6697 0.8212
O3A O -0.7391(5) 0.5705(4) 0.7799(4)
O4A O -0.8209(3) 0.6694(3) 0.5317(3)
H2A H -0.8196 0.6711 0.4625
C1A C -0.6944(4) 0.6801(4) 0.5686(4)
H9A H -0.6712 0.7537 0.5321
C2A C -0.5952(4) 0.5858(4) 0.5321(3)
C3A C -0.4743(4) 0.6112(4) 0.4969(4)
H10A H -0.4562 0.6859 0.4948
C4A C -0.6218(4) 0.4733(4) 0.5358(4)
H11A H -0.7034 0.4550 0.5600
P2A P 0.88139(8) -0.11678(8) 0.49538(7)
O5A O 0.9183(3) -0.0731(2) 0.3760(2)
O6A O 0.9891(2) -0.1536(2) 0.5792(2)
O7A O 0.8019(3) -0.2194(3) 0.4885(2)
H3A H 0.7975 -0.2564 0.5516
O8A O 0.7956(2) -0.0098(3) 0.6700(2)
H4A H 0.7549 0.0534 0.6869
C5A C 0.7723(3) 0.0001(3) 0.5512(3)
H12A H 0.7974 0.0732 0.5154
C6A C 0.6305(3) -0.0004(3) 0.5261(3)
C7A C 0.5854(4) 0.0417(4) 0.4178(3)
H13A H 0.6422 0.0698 0.3620
C8A C 0.5443(4) -0.0421(4) 0.6074(3)
H14A H 0.5734 -0.0709 0.6800
P3A P -0.84630(8) -0.10744(8) 0.03464(7)
O9A O -0.8940(3) -0.0703(2) 0.1466(2)
O10A O -0.9441(3) -0.1411(2) -0.0397(2)
O11A O -0.7334(3) -0.2094(3) 0.0600(3)
H5A H -0.7559 -0.2684 0.0432
O12A O -0.7983(2) 0.0100(3) -0.1638(2)
H6A H -0.7569 0.0515 -0.2113
C9A C -0.7743(3) 0.0126(3) -0.0459(3)
H15A H -0.8201 0.0846 -0.0235
C10A C -0.6311(3) 0.0071(3) -0.0238(3)
C11A C -0.5390(4) -0.0632(4) -0.0792(3)
H16A H -0.5649 -0.1057 -0.1325
C12A C -0.5922(4) 0.0707(4) 0.0554(3)
H17A H -0.6538 0.1184 0.0926
Nd1A Nd -0.981043(16) -0.077379(16) -0.239290(14)
O13A O -1.1131(3) -0.2316(3) -0.1747(3)
H7A H -1.1365 -0.2721 -0.2224
H8A H -1.1199 -0.2745 -0.1124
Nd1_2 Nd -1.018957(16) 0.077379(16) 0.239290(14)
Nd1_3 Nd 0.981043(16) 0.077379(16) 0.239290(14)
Nd1A_2 Nd -0.981043(16) 0.922621(16) 0.760710(14)
Nd1A_3 Nd 0.018957(16) -0.077379(16) -0.239290(14)
Nd1A_4 Nd 0.018957(16) -0.077379(16) 0.760710(14)
Nd1A_5 Nd 1.018957(16) -0.077379(16) 0.760710(14)
O1A_2 O -0.7999(3) -0.2157(3) -0.2591(3)
O5_2 O -0.9183(3) 0.0731(2) -0.3760(2)
O5A_2 O -0.0817(3) -0.0731(2) 0.3760(2)
O6A_2 O -1.0109(2) -0.1536(2) -0.4208(2)
O8A_2 O -1.2044(2) -0.0098(3) -0.3300(2)
O9_2 O -1.1060(3) 0.0703(2) -0.1466(2)
O9A_2 O 0.1060(3) -0.0703(2) 0.1466(2)
O14 O 0.3811(6) -0.1723(5) 0.2661(5)
O15 O 0.2371(14) 0.3429(9) 0.3172(5)
O16 O -0.2191(12) 0.4177(7) -0.0123(7)
O17 O 0.0571(17) 0.3732(10) -0.0201(9)
O18 O -0.033(2) -0.3072(18) 0.2329(14)
O19 O 0.3538(15) 0.5114(15) 0.2234(11)
O20 O -0.385(2) 0.6418(9) 0.1582(12)
O21 O -0.0188(15) 0.5097(11) 0.372(2)
O22 O 0.200(2) 0.6955(19) 0.3025(10)
O23 O -0.3182(6) -0.1921(5) 0.2724(4)
O24 O 0.486(2) 0.3785(13) 0.0295(11)
loop_
_geom_bond_atom_site_label_1
_geom_bond_atom_site_label_2
_geom_bond_site_symmetry_1
_geom_bond_site_symmetry_2
Nd1 O1 1_555 1_555
P1 O1 1_555 1_555
P2 O5 1_555 1_555
P3 O9 1_555 1_555
O2 P1 1_555 1_555
H1 O2 1_555 1_555
O3 P1 1_555 1_555
O4 H2 1_555 1_555
O5 Nd1A_4 1_555 1_555
O6 Nd1 1_555 1_555
O7 P2 1_555 1_555
H3 O7 1_555 1_555
O8 Nd1 1_555 1_555
H4 O8 1_555 1_555
O9 Nd1A_3 1_555 1_555
O10 Nd1 1_555 1_555
O11 P3 1_555 1_555
H5 O11 1_555 1_555
O12 Nd1 1_555 1_555
H6 O12 1_555 1_555
O13 Nd1 1_555 1_555
H7 O13 1_555 1_555
H8 O13 1_555 1_555
C1 P1 1_555 1_555
H9 C1 1_555 1_555
C2 C1 1_555 1_555
C3 C2 1_555 1_555
H10 C3 1_555 1_555
C4 C2 1_555 1_555
H11 C4 1_555 1_555
C5 P2 1_555 1_555
H12 C5 1_555 1_555
C6 C5 1_555 1_555
C7 C6 1_555 1_555
H13 C7 1_555 1_555
C8 C6 1_555 1_555
H14 C8 1_555 1_555
C9 P3 1_555 1_555
H15 C9 1_555 1_555
C10 C9 1_555 1_555
C11 C10 1_555 1_555
H16 C11 1_555 1_555
C12 C10 1_555 1_555
H17 C12 1_555 1_555
P1A O1A 1_555 1_555
O1A Nd1A_2 1_555 1_555
O2A P1A 1_555 1_555
H1A O2A 1_555 1_555
O3A P1A 1_555 1_555
O4A H2A 1_555 1_555
C1A P1A 1_555 1_555
H9A C1A 1_555 1_555
C2A C1A 1_555 1_555
C3A C4 1_555 1_555
H10A C3A 1_555 1_555
C4A C3 1_555 1_555
H11A C4A 1_555 1_555
P2A O5A 1_555 1_555
O5A Nd1_3 1_555 1_555
O6A P2A 1_555 1_555
O7A P2A 1_555 1_555
H3A O7A 1_555 1_555
O8A H4A 1_555 1_555
C5A P2A 1_555 1_555
H12A C5A 1_555 1_555
C6A C5A 1_555 1_555
C7A C8 1_555 1_555
H13A C7A 1_555 1_555
C8A C7 1_555 1_555
H14A C8A 1_555 1_555
P3A O9A 1_555 1_555
O9A Nd1_2 1_555 1_555
O10A P3A 1_555 1_555
O11A P3A 1_555 1_555
H5A O11A 1_555 1_555
O12A H6A 1_555 1_555
C9A P3A 1_555 1_555
H15A C9A 1_555 1_555
C10A C9A 1_555 1_555
C11A C12 1_555 1_555
H16A C11A 1_555 1_555
C12A C11 1_555 1_555
H17A C12A 1_555 1_555
Nd1A O10A 1_555 1_555
O13A Nd1A 1_555 1_555
H7A O13A 1_555 1_555
H8A O13A 1_555 1_555
Nd1A_5 O6A 1_555 1_555
O1A_2 Nd1A 1_555 1_555
O5_2 Nd1A 1_555 1_555
O5A_2 Nd1 1_555 1_555
O6A_2 Nd1A 1_555 1_555
O8A_2 Nd1A 1_555 1_555
O9_2 Nd1A 1_555 1_555
O9A_2 Nd1 1_555 1_555
P2 O6 1_555 1_555
P3 O10 1_555 1_555
O4 C1 1_555 1_555
O8 C5 1_555 1_555
O12 C9 1_555 1_555
O4A C1A 1_555 1_555
C2A C3A 1_555 1_555
C2A C4A 1_555 1_555
O8A C5A 1_555 1_555
O8A Nd1A_5 1_555 1_555
C6A C7A 1_555 1_555
C6A C8A 1_555 1_555
O12A C9A 1_555 1_555
O12A Nd1A 1_555 1_555
C10A C11A 1_555 1_555
C10A C12A 1_555 1_555

#END
