
#######################################################################
#
#                 Cambridge Crystallographic Data Centre
#                                CCDC 
#
#######################################################################
#
# If this CIF has been generated from an entry in the Cambridge 
# Structural Database, then it will include bibliographic, chemical, 
# crystal, experimental, refinement or atomic coordinate data resulting 
# from the CCDC's data processing and validation procedures.
#
#######################################################################

data_RANNOM
_chemical_formula_moiety         '(C24 H56 Eu2 O37 P6)n'
_symmetry_cell_setting           triclinic
_symmetry_space_group_name_H-M   'P -1'
_symmetry_Int_Tables_number      2
_space_group_name_Hall           '-P 1'
loop_
_symmetry_equiv_pos_site_id
_symmetry_equiv_pos_as_xyz
1 x,y,z
2 -x,-y,-z
_cell_length_a                   10.390(5)
_cell_length_b                   11.803(6)
_cell_length_c                   11.934(6)
_cell_angle_alpha                82.967(10)
_cell_angle_beta                 81.366(11)
_cell_angle_gamma                87.884(9)
_cell_volume                     1435.78
loop_
_atom_site_label
_atom_site_type_symbol
_atom_site_fract_x
_atom_site_fract_y
_atom_site_fract_z
Eu1 Eu -0.01954(3) 0.23992(2) 0.07532(2)
P1 P -0.29459(18) 0.27650(15) 0.31429(15)
P2 P 0.11627(13) 0.50548(11) 0.11598(12)
P3 P -0.15264(13) -0.03387(11) 0.10555(13)
O1 O -0.1996(4) 0.2587(4) 0.2111(4)
O2 O -0.4334(5) 0.2422(5) 0.2996(5)
H1 H -0.4466 0.1763 0.3287
O3 O -0.2559(7) 0.2190(5) 0.4250(5)
O4 O -0.1801(5) 0.4697(5) 0.3281(5)
H2 H -0.1827 0.5394 0.3263
O5 O 0.0783(4) 0.6248(3) 0.0725(3)
O6 O 0.0095(4) 0.4201(3) 0.1514(3)
O7 O 0.1942(4) 0.5137(4) 0.2187(4)
H3 H 0.1985 0.4505 0.2553
O8 O 0.2027(4) 0.3298(3) 0.0091(4)
H4 H 0.2434 0.3129 -0.0541
O9 O -0.1044(4) -0.1477(3) 0.0701(3)
O10 O -0.0547(4) 0.0421(3) 0.1383(4)
O11 O -0.2661(4) -0.0580(4) 0.2082(4)
H5 H -0.2430 -0.0410 0.2667
O12 O -0.1993(4) 0.1643(3) -0.0114(4)
H6 H -0.2408 0.2117 -0.0529
O13 O 0.1091(5) 0.1774(4) 0.2252(4)
H7 H 0.1325 0.2251 0.2657
H8 H 0.1160 0.1151 0.2681
C1 C -0.3047(6) 0.4306(5) 0.3185(6)
H9 H -0.3285 0.4663 0.2457
C2 C -0.4057(6) 0.4670(5) 0.4134(5)
C3 C -0.5272(7) 0.5030(6) 0.3902(6)
H10 H -0.5461 0.5052 0.3162
C4 C -0.3781(7) 0.4640(6) 0.5248(6)
H11 H -0.2962 0.4399 0.5418
C5 C 0.2270(5) 0.4483(5) 0.0003(5)
H12 H 0.2026 0.4839 -0.0723
C6 C 0.3691(5) 0.4735(5) 0.0002(5)
C7 C 0.4148(6) 0.5825(5) -0.0414(6)
H13 H 0.3584 0.6387 -0.0686
C8 C 0.4540(6) 0.3927(5) 0.0420(6)
H14 H 0.4239 0.3203 0.0713
C9 C -0.2251(5) 0.0458(4) -0.0128(5)
H15 H -0.1795 0.0222 -0.0845
C10 C -0.3684(5) 0.0237(5) -0.0072(5)
C11 C -0.4607(6) 0.0792(5) 0.0641(6)
H16 H -0.4348 0.1325 0.1072
C12 C -0.4088(5) -0.0556(5) -0.0714(5)
H17 H -0.3474 -0.0930 -0.1197
P1A P -0.70541(18) 0.72350(15) 0.68571(15)
O1A O -0.8004(4) 0.7413(4) 0.7889(4)
O2A O -0.5666(5) 0.7578(5) 0.7004(5)
H1A H -0.5534 0.8237 0.6713
O3A O -0.7441(7) 0.7810(5) 0.5750(5)
O4A O -0.8199(5) 0.5303(5) 0.6719(5)
H2A H -0.8173 0.4606 0.6737
C1A C -0.6953(6) 0.5694(5) 0.6815(6)
H9A H -0.6715 0.5337 0.7543
C2A C -0.5943(6) 0.5330(5) 0.5866(5)
C3A C -0.4728(7) 0.4970(6) 0.6098(6)
H10A H -0.4539 0.4948 0.6838
C4A C -0.6219(7) 0.5360(6) 0.4752(6)
H11A H -0.7038 0.5601 0.4582
P2A P 0.88373(13) 0.49452(11) -0.11598(12)
O5A O 0.9217(4) 0.3752(3) -0.0725(3)
O6A O 0.9905(4) 0.5799(3) -0.1514(3)
O7A O 0.8058(4) 0.4863(4) -0.2187(4)
H3A H 0.8015 0.5495 -0.2553
O8A O 0.7973(4) 0.6702(3) -0.0091(4)
H4A H 0.7566 0.6871 0.0541
C5A C 0.7730(5) 0.5517(5) -0.0003(5)
H12A H 0.7974 0.5161 0.0723
C6A C 0.6309(5) 0.5265(5) -0.0002(5)
C7A C 0.5852(6) 0.4175(5) 0.0414(6)
H13A H 0.6416 0.3613 0.0686
C8A C 0.5460(6) 0.6073(5) -0.0420(6)
H14A H 0.5761 0.6797 -0.0713
P3A P -0.84736(13) 0.03387(11) -0.10555(13)
O9A O -0.8956(4) 0.1477(3) -0.0701(3)
O10A O -0.9453(4) -0.0421(3) -0.1383(4)
O11A O -0.7339(4) 0.0580(4) -0.2082(4)
H5A H -0.7570 0.0410 -0.2667
O12A O -0.8007(4) -0.1643(3) 0.0114(4)
H6A H -0.7592 -0.2117 0.0529
C9A C -0.7749(5) -0.0458(4) 0.0128(5)
H15A H -0.8205 -0.0222 0.0845
C10A C -0.6316(5) -0.0237(5) 0.0072(5)
C11A C -0.5393(6) -0.0792(5) -0.0641(6)
H16A H -0.5652 -0.1325 -0.1072
C12A C -0.5912(5) 0.0556(5) 0.0714(5)
H17A H -0.6526 0.0930 0.1197
Eu1A Eu -0.98046(3) -0.23992(2) -0.07532(2)
O13A O -1.1091(5) -0.1774(4) -0.2252(4)
H7A H -1.1325 -0.2251 -0.2657
H8A H -1.1160 -0.1151 -0.2681
Eu1_2 Eu -1.01954(3) 0.23992(2) 0.07532(2)
Eu1_3 Eu 0.98046(3) 0.23992(2) 0.07532(2)
Eu1A_2 Eu -0.98046(3) 0.76008(2) 0.92468(2)
Eu1A_3 Eu 0.01954(3) -0.23992(2) -0.07532(2)
Eu1A_4 Eu 0.01954(3) 0.76008(2) -0.07532(2)
Eu1A_5 Eu 1.01954(3) 0.76008(2) -0.07532(2)
O1A_2 O -0.8004(4) -0.2587(4) -0.2111(4)
O5_2 O -0.9217(4) -0.3752(3) 0.0725(3)
O5A_2 O -0.0783(4) 0.3752(3) -0.0725(3)
O6A_2 O -1.0095(4) -0.4201(3) -0.1514(3)
O8A_2 O -1.2027(4) -0.3298(3) -0.0091(4)
O9_2 O -1.1044(4) -0.1477(3) 0.0701(3)
O9A_2 O 0.1044(4) 0.1477(3) -0.0701(3)
O14 O 0.3854(8) 0.2629(7) -0.1714(7)
O15 O 0.2201(16) 0.3195(7) 0.3500(10)
O16 O -0.2126(17) -0.0101(10) 0.4142(9)
O17 O 0.0613(19) -0.0225(11) 0.3674(13)
O18 O -0.008(2) 0.2357(16) -0.2878(13)
O19 O 0.3596(18) 0.2177(14) 0.5001(17)
O20 O -0.362(2) 0.1529(13) 0.6393(10)
O21 O -0.0262(17) 0.366(2) 0.5081(13)
O22 O 0.230(2) 0.3011(13) 0.674(2)
O23 O -0.3194(8) 0.2730(6) -0.1922(6)
O24 O 0.486(3) 0.0306(15) 0.3806(16)
loop_
_geom_bond_atom_site_label_1
_geom_bond_atom_site_label_2
_geom_bond_site_symmetry_1
_geom_bond_site_symmetry_2
Eu1 O1 1_555 1_555
P1 O1 1_555 1_555
P2 O5 1_555 1_555
P3 O9 1_555 1_555
O2 P1 1_555 1_555
H1 O2 1_555 1_555
O3 P1 1_555 1_555
O4 H2 1_555 1_555
O5 Eu1A_4 1_555 1_555
O6 Eu1 1_555 1_555
O7 P2 1_555 1_555
H3 O7 1_555 1_555
O8 Eu1 1_555 1_555
H4 O8 1_555 1_555
O9 Eu1A_3 1_555 1_555
O10 Eu1 1_555 1_555
O11 P3 1_555 1_555
H5 O11 1_555 1_555
O12 Eu1 1_555 1_555
H6 O12 1_555 1_555
O13 Eu1 1_555 1_555
H7 O13 1_555 1_555
H8 O13 1_555 1_555
C1 P1 1_555 1_555
H9 C1 1_555 1_555
C2 C1 1_555 1_555
C3 C2 1_555 1_555
H10 C3 1_555 1_555
C4 C2 1_555 1_555
H11 C4 1_555 1_555
C5 P2 1_555 1_555
H12 C5 1_555 1_555
C6 C5 1_555 1_555
C7 C6 1_555 1_555
H13 C7 1_555 1_555
C8 C6 1_555 1_555
H14 C8 1_555 1_555
C9 P3 1_555 1_555
H15 C9 1_555 1_555
C10 C9 1_555 1_555
C11 C10 1_555 1_555
H16 C11 1_555 1_555
C12 C10 1_555 1_555
H17 C12 1_555 1_555
P1A O1A 1_555 1_555
O1A Eu1A_2 1_555 1_555
O2A P1A 1_555 1_555
H1A O2A 1_555 1_555
O3A P1A 1_555 1_555
O4A H2A 1_555 1_555
C1A P1A 1_555 1_555
H9A C1A 1_555 1_555
C2A C1A 1_555 1_555
C3A C4 1_555 1_555
H10A C3A 1_555 1_555
C4A C3 1_555 1_555
H11A C4A 1_555 1_555
P2A O5A 1_555 1_555
O5A Eu1_3 1_555 1_555
O6A P2A 1_555 1_555
O7A P2A 1_555 1_555
H3A O7A 1_555 1_555
O8A H4A 1_555 1_555
C5A P2A 1_555 1_555
H12A C5A 1_555 1_555
C6A C5A 1_555 1_555
C7A C8 1_555 1_555
H13A C7A 1_555 1_555
C8A C7 1_555 1_555
H14A C8A 1_555 1_555
P3A O9A 1_555 1_555
O9A Eu1_2 1_555 1_555
O10A P3A 1_555 1_555
O11A P3A 1_555 1_555
H5A O11A 1_555 1_555
O12A H6A 1_555 1_555
C9A P3A 1_555 1_555
H15A C9A 1_555 1_555
C10A C9A 1_555 1_555
C11A C12 1_555 1_555
H16A C11A 1_555 1_555
C12A C11 1_555 1_555
H17A C12A 1_555 1_555
Eu1A O10A 1_555 1_555
O13A Eu1A 1_555 1_555
H7A O13A 1_555 1_555
H8A O13A 1_555 1_555
Eu1A_5 O6A 1_555 1_555
O1A_2 Eu1A 1_555 1_555
O5_2 Eu1A 1_555 1_555
O5A_2 Eu1 1_555 1_555
O6A_2 Eu1A 1_555 1_555
O8A_2 Eu1A 1_555 1_555
O9_2 Eu1A 1_555 1_555
O9A_2 Eu1 1_555 1_555
P2 O6 1_555 1_555
P3 O10 1_555 1_555
O4 C1 1_555 1_555
O8 C5 1_555 1_555
O12 C9 1_555 1_555
O4A C1A 1_555 1_555
C2A C3A 1_555 1_555
C2A C4A 1_555 1_555
O8A C5A 1_555 1_555
O8A Eu1A_5 1_555 1_555
C6A C7A 1_555 1_555
C6A C8A 1_555 1_555
O12A C9A 1_555 1_555
O12A Eu1A 1_555 1_555
C10A C11A 1_555 1_555
C10A C12A 1_555 1_555

#END
