
#######################################################################
#
#                 Cambridge Crystallographic Data Centre
#                                CCDC 
#
#######################################################################
#
# If this CIF has been generated from an entry in the Cambridge 
# Structural Database, then it will include bibliographic, chemical, 
# crystal, experimental, refinement or atomic coordinate data resulting 
# from the CCDC's data processing and validation procedures.
#
#######################################################################

data_RANPAA
_chemical_formula_moiety         '(C24 H56 La2 O37 P6)n'
_symmetry_cell_setting           triclinic
_symmetry_space_group_name_H-M   'P -1'
_symmetry_Int_Tables_number      2
_space_group_name_Hall           '-P 1'
loop_
_symmetry_equiv_pos_site_id
_symmetry_equiv_pos_as_xyz
1 x,y,z
2 -x,-y,-z
_cell_length_a                   10.35(2)
_cell_length_b                   11.94(3)
_cell_length_c                   12.75(3)
_cell_angle_alpha                104.97(4)
_cell_angle_beta                 90.47(2)
_cell_angle_gamma                93.06(3)
_cell_volume                     1519.59
loop_
_atom_site_label
_atom_site_type_symbol
_atom_site_fract_x
_atom_site_fract_y
_atom_site_fract_z
La1 La -0.00066(5) 0.72733(5) 0.92058(5)
P1 P 0.1996(4) 0.6411(3) 0.6688(3)
P2 P 0.1348(2) 0.4516(2) 0.8989(2)
P3 P -0.1425(2) 0.9908(2) 0.8945(2)
O1 O 0.1493(8) 0.7176(8) 0.7737(7)
O2 O 0.1513(12) 0.6843(11) 0.5723(8)
H1 H 0.1137 0.7442 0.5951
O3 O 0.1719(11) 0.5121(9) 0.6469(8)
O4 O 0.4097(13) 0.7828(11) 0.6717(11)
H2 H 0.4888 0.7924 0.6733
O5 O 0.2271(8) 0.4144(7) 0.8006(7)
O6 O 0.0286(7) 0.5154(7) 0.8688(7)
O7 O 0.0920(7) 0.3322(7) 0.9346(6)
H3 H 0.0393 0.2988 0.8832
O8 O 0.2102(8) 0.6662(7) 0.9979(8)
H4 H 0.2217 0.7108 1.0614
O9 O -0.2429(8) 0.9851(8) 0.7998(7)
O10 O -0.0450(7) 0.9026(7) 0.8540(6)
O11 O -0.0961(8) 1.1213(7) 0.9349(7)
H5 H -0.0553 1.1321 0.9923
O12 O -0.2120(7) 0.8273(7) 0.9898(7)
H6 H -0.2263 0.8141 1.0511
O13 O -0.1712(9) 0.6412(9) 0.7765(8)
H7 H -0.1470 0.5807 0.7314
H8 H -0.1939 0.6902 0.7429
C1 C 0.3741(15) 0.6663(15) 0.6748(12)
H9 H 0.4058 0.6556 0.7440
C2 C 0.4389(14) 0.5764(14) 0.5807(13)
C3 C 0.4997(19) 0.4876(16) 0.6038(14)
H10 H 0.5017 0.4796 0.6744
C4 C 0.442(2) 0.5899(18) 0.4768(14)
H11 H 0.4041 0.6529 0.4615
C5 C 0.2296(10) 0.5526(10) 1.0074(10)
H12 H 0.1947 0.5459 1.0769
C6 C 0.3713(10) 0.5277(9) 1.0066(9)
C7 C 0.4159(12) 0.4461(11) 1.0570(11)
H13 H 0.3593 0.4095 1.0955
C8 C 0.4582(11) 0.5797(11) 0.9504(11)
H14 H 0.4297 0.6342 0.9163
C9 C -0.2296(10) 0.9485(9) 1.0027(10)
H15 H -0.1897 0.9920 1.0723
C10 C -0.3715(9) 0.9748(9) 1.0031(9)
C11 C -0.4609(10) 0.8942(12) 0.9406(12)
H16 H -0.4348 0.8227 0.9004
C12 C -0.4090(10) 1.0791(10) 1.0620(11)
H17 H -0.3485 1.1329 1.1040
P1A P 0.8004(4) 0.3589(3) 0.3312(3)
O1A O 0.8507(8) 0.2824(8) 0.2263(7)
O2A O 0.8487(12) 0.3157(11) 0.4277(8)
H1A H 0.8863 0.2558 0.4049
O3A O 0.8281(11) 0.4879(9) 0.3531(8)
O4A O 0.5903(13) 0.2172(11) 0.3283(11)
H2A H 0.5112 0.2076 0.3267
C1A C 0.6259(15) 0.3337(15) 0.3252(12)
H9A H 0.5942 0.3444 0.2560
C2A C 0.5611(14) 0.4236(14) 0.4193(13)
C3A C 0.5003(19) 0.5124(16) 0.3962(14)
H10A H 0.4983 0.5204 0.3256
C4A C 0.558(2) 0.4101(18) 0.5232(14)
H11A H 0.5959 0.3471 0.5385
P2A P 0.8652(2) 0.5484(2) 1.1011(2)
O5A O 0.7729(8) 0.5856(7) 1.1994(7)
O6A O 0.9714(7) 0.4846(7) 1.1312(7)
O7A O 0.9080(7) 0.6678(7) 1.0654(6)
H3A H 0.9607 0.7012 1.1168
O8A O 0.7898(8) 0.3338(7) 1.0021(8)
H4A H 0.7783 0.2892 0.9386
C5A C 0.7704(10) 0.4474(10) 0.9926(10)
H12A H 0.8053 0.4541 0.9231
C6A C 0.6287(10) 0.4723(9) 0.9934(9)
C7A C 0.5841(12) 0.5539(11) 0.9430(11)
H13A H 0.6407 0.5905 0.9045
C8A C 0.5418(11) 0.4203(11) 1.0496(11)
H14A H 0.5703 0.3658 1.0837
P3A P -0.8575(2) 1.0092(2) 1.1055(2)
O9A O -0.7571(8) 1.0149(8) 1.2002(7)
O10A O -0.9550(7) 1.0974(7) 1.1460(6)
O11A O -0.9039(8) 0.8787(7) 1.0651(7)
H5A H -0.9447 0.8679 1.0077
O12A O -0.7880(7) 1.1727(7) 1.0102(7)
H6A H -0.7737 1.1859 0.9489
C9A C -0.7704(10) 1.0515(9) 0.9973(10)
H15A H -0.8103 1.0080 0.9277
C10A C -0.6285(9) 1.0252(9) 0.9969(9)
C11A C -0.5391(10) 1.1058(12) 1.0594(12)
H16A H -0.5652 1.1773 1.0996
C12A C -0.5910(10) 0.9209(10) 0.9380(11)
H17A H -0.6515 0.8671 0.8960
La1A La -0.99934(5) 1.27267(5) 1.07942(5)
O13A O -0.8288(9) 1.3588(9) 1.2235(8)
H7A H -0.8530 1.4193 1.2686
H8A H -0.8061 1.3098 1.2571
La1_2 La -1.00066(5) 0.72733(5) 0.92058(5)
La1_3 La 0.99934(5) 0.72733(5) 0.92058(5)
La1A_2 La 0.00066(5) 0.27267(5) 1.07942(5)
La1A_3 La 0.00066(5) 1.27267(5) 1.07942(5)
La1A_4 La 1.00066(5) 0.27267(5) 0.07942(5)
La1A_5 La 1.00066(5) 0.27267(5) 1.07942(5)
O1A_2 O -1.1493(8) 1.2824(8) 1.2263(7)
O6A_2 O -1.0286(7) 1.4846(7) 1.1312(7)
O7_2 O -0.9080(7) 1.3322(7) 0.9346(6)
O7A_2 O -0.0920(7) 0.6678(7) 1.0654(6)
O8A_2 O -1.2102(8) 1.3338(7) 1.0021(8)
O11_2 O -1.0961(8) 1.1213(7) 0.9349(7)
O11A_2 O 0.0961(8) 0.8787(7) 1.0651(7)
O14 O -0.3631(11) 0.1961(9) -0.1690(9)
O15 O -0.3227(12) 0.7824(12) 0.6795(11)
O16 O 0.3565(12) 0.2132(11) -0.1656(11)
O17 O -0.0930(14) 0.4409(11) 0.6361(10)
O18 O 0.618(6) 0.887(5) 0.404(5)
O19 O -0.186(3) 0.245(2) 0.678(2)
O20 O 0.031(2) 0.875(2) 0.6396(15)
O21 O 0.252(6) 0.980(6) 0.706(5)
O22 O -0.210(3) 0.716(2) 0.482(2)
O23 O 0.379(5) 0.893(3) 0.499(3)
O24 O 0.030(4) 0.166(4) 0.723(3)
loop_
_geom_bond_atom_site_label_1
_geom_bond_atom_site_label_2
_geom_bond_site_symmetry_1
_geom_bond_site_symmetry_2
La1 O1 1_555 1_555
P1 O1 1_555 1_555
P2 O5 1_555 1_555
P3 O9 1_555 1_555
O2 P1 1_555 1_555
H1 O2 1_555 1_555
O3 P1 1_555 1_555
O4 H2 1_555 1_555
O6 La1 1_555 1_555
O7 P2 1_555 1_555
H3 O7 1_555 1_555
O8 La1 1_555 1_555
H4 O8 1_555 1_555
O10 La1 1_555 1_555
O11 P3 1_555 1_555
H5 O11 1_555 1_555
O12 La1 1_555 1_555
H6 O12 1_555 1_555
O13 La1 1_555 1_555
H7 O13 1_555 1_555
H8 O13 1_555 1_555
C1 P1 1_555 1_555
H9 C1 1_555 1_555
C2 C1 1_555 1_555
C3 C2 1_555 1_555
H10 C3 1_555 1_555
C4 C2 1_555 1_555
H11 C4 1_555 1_555
C5 P2 1_555 1_555
H12 C5 1_555 1_555
C6 C5 1_555 1_555
C7 C6 1_555 1_555
H13 C7 1_555 1_555
C8 C6 1_555 1_555
H14 C8 1_555 1_555
C9 P3 1_555 1_555
H15 C9 1_555 1_555
C10 C9 1_555 1_555
C11 C10 1_555 1_555
H16 C11 1_555 1_555
C12 C10 1_555 1_555
H17 C12 1_555 1_555
P1A O1A 1_555 1_555
O1A La1A_4 1_555 1_555
O2A P1A 1_555 1_555
H1A O2A 1_555 1_555
O3A P1A 1_555 1_555
O4A H2A 1_555 1_555
C1A P1A 1_555 1_555
H9A C1A 1_555 1_555
C2A C1A 1_555 1_555
C3A C4 1_555 1_555
H10A C3A 1_555 1_555
C4A C3 1_555 1_555
H11A C4A 1_555 1_555
P2A O5A 1_555 1_555
O6A P2A 1_555 1_555
O7A P2A 1_555 1_555
H3A O7A 1_555 1_555
O8A H4A 1_555 1_555
C5A P2A 1_555 1_555
H12A C5A 1_555 1_555
C6A C5A 1_555 1_555
C7A C8 1_555 1_555
H13A C7A 1_555 1_555
C8A C7 1_555 1_555
H14A C8A 1_555 1_555
P3A O9A 1_555 1_555
O10A P3A 1_555 1_555
O11A P3A 1_555 1_555
H5A O11A 1_555 1_555
O12A H6A 1_555 1_555
C9A P3A 1_555 1_555
H15A C9A 1_555 1_555
C10A C9A 1_555 1_555
C11A C12 1_555 1_555
H16A C11A 1_555 1_555
C12A C11 1_555 1_555
H17A C12A 1_555 1_555
La1A O10A 1_555 1_555
O13A La1A 1_555 1_555
H7A O13A 1_555 1_555
H8A O13A 1_555 1_555
La1_2 O11A 1_555 1_555
La1_3 O7A 1_555 1_555
La1A_2 O7 1_555 1_555
La1A_3 O11 1_555 1_555
La1A_5 O6A 1_555 1_555
O1A_2 La1A 1_555 1_555
O6A_2 La1A 1_555 1_555
O7_2 La1A 1_555 1_555
O7A_2 La1 1_555 1_555
O8A_2 La1A 1_555 1_555
O11_2 La1A 1_555 1_555
O11A_2 La1 1_555 1_555
P2 O6 1_555 1_555
P3 O10 1_555 1_555
O4 C1 1_555 1_555
O8 C5 1_555 1_555
O12 C9 1_555 1_555
O4A C1A 1_555 1_555
C2A C3A 1_555 1_555
C2A C4A 1_555 1_555
O8A C5A 1_555 1_555
O8A La1A_5 1_555 1_555
C6A C7A 1_555 1_555
C6A C8A 1_555 1_555
O12A C9A 1_555 1_555
O12A La1A 1_555 1_555
C10A C11A 1_555 1_555
C10A C12A 1_555 1_555

#END
