
#######################################################################
#
#                 Cambridge Crystallographic Data Centre
#                                CCDC 
#
#######################################################################
#
# If this CIF has been generated from an entry in the Cambridge 
# Structural Database, then it will include bibliographic, chemical, 
# crystal, experimental, refinement or atomic coordinate data resulting 
# from the CCDC's data processing and validation procedures.
#
#######################################################################

data_SIZPUN
_chemical_formula_moiety         'C144 H36 N12 O108 Zn36'
_symmetry_cell_setting           cubic
_symmetry_space_group_name_H-M   'F m -3 m'
_symmetry_Int_Tables_number      225
_space_group_name_Hall           '-F 4 2 3'
loop_
_symmetry_equiv_pos_site_id
_symmetry_equiv_pos_as_xyz
1 x,y,z
2 z,x,y
3 y,z,x
4 y,x,-z
5 y,-x,z
6 -y,x,z
7 x,z,-y
8 -x,z,y
9 x,-z,y
10 z,y,-x
11 z,-y,x
12 -z,y,x
13 x,1/2+y,1/2+z
14 z,1/2+x,1/2+y
15 y,1/2+z,1/2+x
16 y,1/2+x,1/2-z
17 y,1/2-x,1/2+z
18 -y,1/2+x,1/2+z
19 x,1/2+z,1/2-y
20 -x,1/2+z,1/2+y
21 x,1/2-z,1/2+y
22 z,1/2+y,1/2-x
23 z,1/2-y,1/2+x
24 -z,1/2+y,1/2+x
25 1/2+x,y,1/2+z
26 1/2+z,x,1/2+y
27 1/2+y,z,1/2+x
28 1/2+y,x,1/2-z
29 1/2+y,-x,1/2+z
30 1/2-y,x,1/2+z
31 1/2+x,z,1/2-y
32 1/2-x,z,1/2+y
33 1/2+x,-z,1/2+y
34 1/2+z,y,1/2-x
35 1/2+z,-y,1/2+x
36 1/2-z,y,1/2+x
37 1/2+x,1/2+y,z
38 1/2+z,1/2+x,y
39 1/2+y,1/2+z,x
40 1/2+y,1/2+x,-z
41 1/2+y,1/2-x,z
42 1/2-y,1/2+x,z
43 1/2+x,1/2+z,-y
44 1/2-x,1/2+z,y
45 1/2+x,1/2-z,y
46 1/2+z,1/2+y,-x
47 1/2+z,1/2-y,x
48 1/2-z,1/2+y,x
49 -x,-y,z
50 -x,y,-z
51 x,-y,-z
52 z,-x,-y
53 -z,-x,y
54 -z,x,-y
55 -y,z,-x
56 y,-z,-x
57 -y,-z,x
58 -y,-x,-z
59 -x,-z,-y
60 -z,-y,-x
61 -x,1/2-y,1/2+z
62 -x,1/2+y,1/2-z
63 x,1/2-y,1/2-z
64 z,1/2-x,1/2-y
65 -z,1/2-x,1/2+y
66 -z,1/2+x,1/2-y
67 -y,1/2+z,1/2-x
68 y,1/2-z,1/2-x
69 -y,1/2-z,1/2+x
70 -y,1/2-x,1/2-z
71 -x,1/2-z,1/2-y
72 -z,1/2-y,1/2-x
73 1/2-x,-y,1/2+z
74 1/2-x,y,1/2-z
75 1/2+x,-y,1/2-z
76 1/2+z,-x,1/2-y
77 1/2-z,-x,1/2+y
78 1/2-z,x,1/2-y
79 1/2-y,z,1/2-x
80 1/2+y,-z,1/2-x
81 1/2-y,-z,1/2+x
82 1/2-y,-x,1/2-z
83 1/2-x,-z,1/2-y
84 1/2-z,-y,1/2-x
85 1/2-x,1/2-y,z
86 1/2-x,1/2+y,-z
87 1/2+x,1/2-y,-z
88 1/2+z,1/2-x,-y
89 1/2-z,1/2-x,y
90 1/2-z,1/2+x,-y
91 1/2-y,1/2+z,-x
92 1/2+y,1/2-z,-x
93 1/2-y,1/2-z,x
94 1/2-y,1/2-x,-z
95 1/2-x,1/2-z,-y
96 1/2-z,1/2-y,-x
97 -x,-y,-z
98 -z,-x,-y
99 -y,-z,-x
100 -y,-x,z
101 -y,x,-z
102 y,-x,-z
103 -x,-z,y
104 x,-z,-y
105 -x,z,-y
106 -z,-y,x
107 -z,y,-x
108 z,-y,-x
109 -x,1/2-y,1/2-z
110 -z,1/2-x,1/2-y
111 -y,1/2-z,1/2-x
112 -y,1/2-x,1/2+z
113 -y,1/2+x,1/2-z
114 y,1/2-x,1/2-z
115 -x,1/2-z,1/2+y
116 x,1/2-z,1/2-y
117 -x,1/2+z,1/2-y
118 -z,1/2-y,1/2+x
119 -z,1/2+y,1/2-x
120 z,1/2-y,1/2-x
121 1/2-x,-y,1/2-z
122 1/2-z,-x,1/2-y
123 1/2-y,-z,1/2-x
124 1/2-y,-x,1/2+z
125 1/2-y,x,1/2-z
126 1/2+y,-x,1/2-z
127 1/2-x,-z,1/2+y
128 1/2+x,-z,1/2-y
129 1/2-x,z,1/2-y
130 1/2-z,-y,1/2+x
131 1/2-z,y,1/2-x
132 1/2+z,-y,1/2-x
133 1/2-x,1/2-y,-z
134 1/2-z,1/2-x,-y
135 1/2-y,1/2-z,-x
136 1/2-y,1/2-x,z
137 1/2-y,1/2+x,-z
138 1/2+y,1/2-x,-z
139 1/2-x,1/2-z,y
140 1/2+x,1/2-z,-y
141 1/2-x,1/2+z,-y
142 1/2-z,1/2-y,x
143 1/2-z,1/2+y,-x
144 1/2+z,1/2-y,-x
145 x,y,-z
146 x,-y,z
147 -x,y,z
148 -z,x,y
149 z,x,-y
150 z,-x,y
151 y,-z,x
152 -y,z,x
153 y,z,-x
154 y,x,z
155 x,z,y
156 z,y,x
157 x,1/2+y,1/2-z
158 x,1/2-y,1/2+z
159 -x,1/2+y,1/2+z
160 -z,1/2+x,1/2+y
161 z,1/2+x,1/2-y
162 z,1/2-x,1/2+y
163 y,1/2-z,1/2+x
164 -y,1/2+z,1/2+x
165 y,1/2+z,1/2-x
166 y,1/2+x,1/2+z
167 x,1/2+z,1/2+y
168 z,1/2+y,1/2+x
169 1/2+x,y,1/2-z
170 1/2+x,-y,1/2+z
171 1/2-x,y,1/2+z
172 1/2-z,x,1/2+y
173 1/2+z,x,1/2-y
174 1/2+z,-x,1/2+y
175 1/2+y,-z,1/2+x
176 1/2-y,z,1/2+x
177 1/2+y,z,1/2-x
178 1/2+y,x,1/2+z
179 1/2+x,z,1/2+y
180 1/2+z,y,1/2+x
181 1/2+x,1/2+y,-z
182 1/2+x,1/2-y,z
183 1/2-x,1/2+y,z
184 1/2-z,1/2+x,y
185 1/2+z,1/2+x,-y
186 1/2+z,1/2-x,y
187 1/2+y,1/2-z,x
188 1/2-y,1/2+z,x
189 1/2+y,1/2+z,-x
190 1/2+y,1/2+x,z
191 1/2+x,1/2+z,y
192 1/2+z,1/2+y,x
_cell_length_a                   42.005(5)
_cell_length_b                   42.005(5)
_cell_length_c                   42.005(5)
_cell_angle_alpha                90
_cell_angle_beta                 90
_cell_angle_gamma                90
_cell_volume                     74114.5
loop_
_atom_site_label
_atom_site_type_symbol
_atom_site_fract_x
_atom_site_fract_y
_atom_site_fract_z
_atom_site_U_iso_or_equiv
_atom_site_thermal_displace_type
Zn1 Zn 0.817684(19) 0.5000 0.817684(19) 0.1570 Uani
Zn2 Zn 0.868491(18) 0.5000 0.868491(18) 0.1428 Uani
O1 O 0.80136(19) 0.53176(15) 0.8468(2) 0.1990 Uani
O2 O 0.8400(2) 0.53224(18) 0.8842(2) 0.2103 Uani
O3 O 0.7137(11) 0.6548(8) 0.9142(7) 0.4220 Uiso
N1 N 0.7243(3) 0.6198(2) 0.8802(2) 0.1797 Uani
C1 C 0.8147(3) 0.5455(2) 0.8695(4) 0.2867 Uani
C2 C 0.7969(3) 0.5688(3) 0.8871(3) 0.1753 Uani
C3 C 0.7693(2) 0.5831(3) 0.8777(3) 0.1787 Uani
H1 H 0.7602 0.5754 0.8585 0.2150 Uiso
C4 C 0.7533(4) 0.6071(4) 0.8929(4) 0.1927 Uani
C5 C 0.8110(6) 0.5848(3) 0.9152(3) 0.2387 Uani
H2 H 0.8302 0.5764 0.9236 0.2840 Uiso
C6 C 0.7053(4) 0.6447(5) 0.8872(6) 0.2650 Uiso
C7 C 0.6776(3) 0.6548(2) 0.8691(3) 0.2423 Uani
O4 O 0.7828(5) 0.5000 0.7828(5) 0.3220 Uiso
O5 O 0.9014(3) 0.5000 0.9014(3) 0.2120 Uiso
Zn1B Zn 0.5000 0.817684(19) 0.817684(19) 0.1570 Uani
Zn1EA Zn 0.682316(19) 0.817684(19) 1.0000 0.1570 Uani
Zn1PD Zn 0.682316(19) 0.5000 0.682316(19) 0.1570 Uani
Zn1FD Zn 0.5000 0.682316(19) 0.682316(19) 0.1570 Uani
Zn1T Zn 0.817684(19) 0.682316(19) 1.0000 0.1570 Uani
Zn1H Zn 0.817684(19) 0.182316(19) 0.5000 0.1570 Uani
Zn1RD Zn 1.0000 0.182316(19) 0.682316(19) 0.1570 Uani
Zn1QA Zn 0.682316(19) 0.317684(19) 0.5000 0.1570 Uani
Zn1LA Zn 1.0000 0.317684(19) 0.817684(19) 0.1570 Uani
Zn1D Zn 0.5000 0.182316(19) 0.817684(19) 0.1570 Uani
Zn1QD Zn 0.682316(19) 0.182316(19) 1.0000 0.1570 Uani
Zn1O Zn 0.5000 0.317684(19) 0.682316(19) 0.1570 Uani
Zn1M Zn 0.817684(19) 0.317684(19) 1.0000 0.1570 Uani
Zn1A Zn 0.817684(19) 0.817684(19) 0.5000 0.1570 Uani
Zn1AA Zn 1.0000 0.817684(19) 0.682316(19) 0.1570 Uani
Zn1CE Zn 0.682316(19) 0.682316(19) 0.5000 0.1570 Uani
Zn1NA Zn 1.0000 0.682316(19) 0.817684(19) 0.1570 Uani
Zn2B Zn 0.5000 0.868491(18) 0.868491(18) 0.1428 Uani
Zn2EA Zn 0.631509(18) 0.868491(18) 1.0000 0.1428 Uani
Zn2PD Zn 0.631509(18) 0.5000 0.631509(18) 0.1428 Uani
Zn2FD Zn 0.5000 0.631509(18) 0.631509(18) 0.1428 Uani
Zn2T Zn 0.868491(18) 0.631509(18) 1.0000 0.1428 Uani
Zn2H Zn 0.868491(18) 0.131509(18) 0.5000 0.1428 Uani
Zn2RD Zn 1.0000 0.131509(18) 0.631509(18) 0.1428 Uani
Zn2QA Zn 0.631509(18) 0.368491(18) 0.5000 0.1428 Uani
Zn2LA Zn 1.0000 0.368491(18) 0.868491(18) 0.1428 Uani
Zn2D Zn 0.5000 0.131509(18) 0.868491(18) 0.1428 Uani
Zn2QD Zn 0.631509(18) 0.131509(18) 1.0000 0.1428 Uani
Zn2O Zn 0.5000 0.368491(18) 0.631509(18) 0.1428 Uani
Zn2M Zn 0.868491(18) 0.368491(18) 1.0000 0.1428 Uani
Zn2A Zn 0.868491(18) 0.868491(18) 0.5000 0.1428 Uani
Zn2AA Zn 1.0000 0.868491(18) 0.631509(18) 0.1428 Uani
Zn2CE Zn 0.631509(18) 0.631509(18) 0.5000 0.1428 Uani
Zn2NA Zn 1.0000 0.631509(18) 0.868491(18) 0.1428 Uani
O1WE O 0.53176(15) 0.80136(19) 0.8468(2) 0.1990 Uani
O1YB O 0.6532(2) 0.80136(19) 0.96824(15) 0.1990 Uani
O1ZD O 0.6532(2) 0.53176(15) 0.69864(19) 0.1990 Uani
O1OB O 0.53176(15) 0.6532(2) 0.69864(19) 0.1990 Uani
O1KD O 0.80136(19) 0.6532(2) 0.96824(15) 0.1990 Uani
O1J O 0.8468(2) 0.46824(15) 0.80136(19) 0.1990 Uani
O1SE O 0.8468(2) 0.19864(19) 0.53176(15) 0.1990 Uani
O1CC O 0.96824(15) 0.19864(19) 0.6532(2) 0.1990 Uani
O1PD O 0.69864(19) 0.46824(15) 0.6532(2) 0.1990 Uani
O1QA O 0.69864(19) 0.3468(2) 0.53176(15) 0.1990 Uani
O1EG O 0.96824(15) 0.3468(2) 0.80136(19) 0.1990 Uani
O1OE O 0.80136(19) 0.46824(15) 0.8468(2) 0.1990 Uani
O1D O 0.53176(15) 0.19864(19) 0.8468(2) 0.1990 Uani
O1QD O 0.6532(2) 0.19864(19) 0.96824(15) 0.1990 Uani
O1EC O 0.6532(2) 0.46824(15) 0.69864(19) 0.1990 Uani
O1HF O 0.53176(15) 0.3468(2) 0.69864(19) 0.1990 Uani
O1R O 0.80136(19) 0.3468(2) 0.96824(15) 0.1990 Uani
O1YE O 0.8468(2) 0.53176(15) 0.80136(19) 0.1990 Uani
O1A O 0.8468(2) 0.80136(19) 0.53176(15) 0.1990 Uani
O1TD O 0.96824(15) 0.80136(19) 0.6532(2) 0.1990 Uani
O1UB O 0.69864(19) 0.53176(15) 0.6532(2) 0.1990 Uani
O1HE O 0.69864(19) 0.6532(2) 0.53176(15) 0.1990 Uani
O1NC O 0.96824(15) 0.6532(2) 0.80136(19) 0.1990 Uani
O1B O 0.53176(15) 0.8468(2) 0.80136(19) 0.1990 Uani
O1E O 0.46824(15) 0.80136(19) 0.8468(2) 0.1990 Uani
O1UE O 0.46824(15) 0.8468(2) 0.80136(19) 0.1990 Uani
O1EA O 0.69864(19) 0.8468(2) 1.03176(15) 0.1990 Uani
O1OF O 0.6532(2) 0.80136(19) 1.03176(15) 0.1990 Uani
O1XD O 0.69864(19) 0.8468(2) 0.96824(15) 0.1990 Uani
O1FD O 0.46824(15) 0.6532(2) 0.69864(19) 0.1990 Uani
O1ID O 0.53176(15) 0.69864(19) 0.6532(2) 0.1990 Uani
O1QB O 0.46824(15) 0.69864(19) 0.6532(2) 0.1990 Uani
O1T O 0.80136(19) 0.6532(2) 1.03176(15) 0.1990 Uani
O1EF O 0.8468(2) 0.69864(19) 1.03176(15) 0.1990 Uani
O1KB O 0.8468(2) 0.69864(19) 0.96824(15) 0.1990 Uani
O2WE O 0.53224(18) 0.8400(2) 0.8842(2) 0.2103 Uani
O2YB O 0.6158(2) 0.8400(2) 0.96776(18) 0.2103 Uani
O2ZD O 0.6158(2) 0.53224(18) 0.6600(2) 0.2103 Uani
O2OB O 0.53224(18) 0.6158(2) 0.6600(2) 0.2103 Uani
O2KD O 0.8400(2) 0.6158(2) 0.96776(18) 0.2103 Uani
O2J O 0.8842(2) 0.46776(18) 0.8400(2) 0.2103 Uani
O2SE O 0.8842(2) 0.1600(2) 0.53224(18) 0.2103 Uani
O2CC O 0.96776(18) 0.1600(2) 0.6158(2) 0.2103 Uani
O2PD O 0.6600(2) 0.46776(18) 0.6158(2) 0.2103 Uani
O2QA O 0.6600(2) 0.3842(2) 0.53224(18) 0.2103 Uani
O2EG O 0.96776(18) 0.3842(2) 0.8400(2) 0.2103 Uani
O2OE O 0.8400(2) 0.46776(18) 0.8842(2) 0.2103 Uani
O2D O 0.53224(18) 0.1600(2) 0.8842(2) 0.2103 Uani
O2QD O 0.6158(2) 0.1600(2) 0.96776(18) 0.2103 Uani
O2EC O 0.6158(2) 0.46776(18) 0.6600(2) 0.2103 Uani
O2HF O 0.53224(18) 0.3842(2) 0.6600(2) 0.2103 Uani
O2R O 0.8400(2) 0.3842(2) 0.96776(18) 0.2103 Uani
O2YE O 0.8842(2) 0.53224(18) 0.8400(2) 0.2103 Uani
O2A O 0.8842(2) 0.8400(2) 0.53224(18) 0.2103 Uani
O2TD O 0.96776(18) 0.8400(2) 0.6158(2) 0.2103 Uani
O2UB O 0.6600(2) 0.53224(18) 0.6158(2) 0.2103 Uani
O2HE O 0.6600(2) 0.6158(2) 0.53224(18) 0.2103 Uani
O2NC O 0.96776(18) 0.6158(2) 0.8400(2) 0.2103 Uani
O2B O 0.53224(18) 0.8842(2) 0.8400(2) 0.2103 Uani
O2E O 0.46776(18) 0.8400(2) 0.8842(2) 0.2103 Uani
O2UE O 0.46776(18) 0.8842(2) 0.8400(2) 0.2103 Uani
O2EA O 0.6600(2) 0.8842(2) 1.03224(18) 0.2103 Uani
O2OF O 0.6158(2) 0.8400(2) 1.03224(18) 0.2103 Uani
O2XD O 0.6600(2) 0.8842(2) 0.96776(18) 0.2103 Uani
O2FD O 0.46776(18) 0.6158(2) 0.6600(2) 0.2103 Uani
O2ID O 0.53224(18) 0.6600(2) 0.6158(2) 0.2103 Uani
O2QB O 0.46776(18) 0.6600(2) 0.6158(2) 0.2103 Uani
O2T O 0.8400(2) 0.6158(2) 1.03224(18) 0.2103 Uani
O2EF O 0.8842(2) 0.6600(2) 1.03224(18) 0.2103 Uani
O2KB O 0.8842(2) 0.6600(2) 0.96776(18) 0.2103 Uani
O3WE O 0.6548(8) 0.7137(11) 0.9142(7) 0.4220 Uiso
O3YB O 0.5858(7) 0.7137(11) 0.8452(8) 0.4220 Uiso
O3ZD O 0.5858(7) 0.6548(8) 0.7863(11) 0.4220 Uiso
O3OB O 0.6548(8) 0.5858(7) 0.7863(11) 0.4220 Uiso
O3KD O 0.7137(11) 0.5858(7) 0.8452(8) 0.4220 Uiso
O3J O 0.9142(7) 0.3452(8) 0.7137(11) 0.4220 Uiso
O3SE O 0.9142(7) 0.2863(11) 0.6548(8) 0.4220 Uiso
O3CC O 0.8452(8) 0.2863(11) 0.5858(7) 0.4220 Uiso
O3PD O 0.7863(11) 0.3452(8) 0.5858(7) 0.4220 Uiso
O3QA O 0.7863(11) 0.4142(7) 0.6548(8) 0.4220 Uiso
O3EG O 0.8452(8) 0.4142(7) 0.7137(11) 0.4220 Uiso
O3OE O 0.7137(11) 0.3452(8) 0.9142(7) 0.4220 Uiso
O3D O 0.6548(8) 0.2863(11) 0.9142(7) 0.4220 Uiso
O3QD O 0.5858(7) 0.2863(11) 0.8452(8) 0.4220 Uiso
O3EC O 0.5858(7) 0.3452(8) 0.7863(11) 0.4220 Uiso
O3HF O 0.6548(8) 0.4142(7) 0.7863(11) 0.4220 Uiso
O3R O 0.7137(11) 0.4142(7) 0.8452(8) 0.4220 Uiso
O3YE O 0.9142(7) 0.6548(8) 0.7137(11) 0.4220 Uiso
O3A O 0.9142(7) 0.7137(11) 0.6548(8) 0.4220 Uiso
O3TD O 0.8452(8) 0.7137(11) 0.5858(7) 0.4220 Uiso
O3UB O 0.7863(11) 0.6548(8) 0.5858(7) 0.4220 Uiso
O3HE O 0.7863(11) 0.5858(7) 0.6548(8) 0.4220 Uiso
O3NC O 0.8452(8) 0.5858(7) 0.7137(11) 0.4220 Uiso
N1WE N 0.6198(2) 0.7243(3) 0.8802(2) 0.1797 Uani
N1ZD N 0.6198(2) 0.6198(2) 0.7757(3) 0.1797 Uani
N1J N 0.8802(2) 0.3802(2) 0.7243(3) 0.1797 Uani
N1SE N 0.8802(2) 0.2757(3) 0.6198(2) 0.1797 Uani
N1QA N 0.7757(3) 0.3802(2) 0.6198(2) 0.1797 Uani
N1R N 0.7243(3) 0.3802(2) 0.8802(2) 0.1797 Uani
N1D N 0.6198(2) 0.2757(3) 0.8802(2) 0.1797 Uani
N1HF N 0.6198(2) 0.3802(2) 0.7757(3) 0.1797 Uani
N1YE N 0.8802(2) 0.6198(2) 0.7243(3) 0.1797 Uani
N1A N 0.8802(2) 0.7243(3) 0.6198(2) 0.1797 Uani
N1HE N 0.7757(3) 0.6198(2) 0.6198(2) 0.1797 Uani
C1WE C 0.5455(2) 0.8147(3) 0.8695(4) 0.2867 Uani
C1YB C 0.6305(4) 0.8147(3) 0.9545(2) 0.2867 Uani
C1ZD C 0.6305(4) 0.5455(2) 0.6853(3) 0.2867 Uani
C1OB C 0.5455(2) 0.6305(4) 0.6853(3) 0.2867 Uani
C1KD C 0.8147(3) 0.6305(4) 0.9545(2) 0.2867 Uani
C1J C 0.8695(4) 0.4545(2) 0.8147(3) 0.2867 Uani
C1SE C 0.8695(4) 0.1853(3) 0.5455(2) 0.2867 Uani
C1CC C 0.9545(2) 0.1853(3) 0.6305(4) 0.2867 Uani
C1PD C 0.6853(3) 0.4545(2) 0.6305(4) 0.2867 Uani
C1QA C 0.6853(3) 0.3695(4) 0.5455(2) 0.2867 Uani
C1EG C 0.9545(2) 0.3695(4) 0.8147(3) 0.2867 Uani
C1OE C 0.8147(3) 0.4545(2) 0.8695(4) 0.2867 Uani
C1D C 0.5455(2) 0.1853(3) 0.8695(4) 0.2867 Uani
C1QD C 0.6305(4) 0.1853(3) 0.9545(2) 0.2867 Uani
C1EC C 0.6305(4) 0.4545(2) 0.6853(3) 0.2867 Uani
C1HF C 0.5455(2) 0.3695(4) 0.6853(3) 0.2867 Uani
C1R C 0.8147(3) 0.3695(4) 0.9545(2) 0.2867 Uani
C1YE C 0.8695(4) 0.5455(2) 0.8147(3) 0.2867 Uani
C1A C 0.8695(4) 0.8147(3) 0.5455(2) 0.2867 Uani
C1TD C 0.9545(2) 0.8147(3) 0.6305(4) 0.2867 Uani
C1UB C 0.6853(3) 0.5455(2) 0.6305(4) 0.2867 Uani
C1HE C 0.6853(3) 0.6305(4) 0.5455(2) 0.2867 Uani
C1NC C 0.9545(2) 0.6305(4) 0.8147(3) 0.2867 Uani
C2WE C 0.5688(3) 0.7969(3) 0.8871(3) 0.1753 Uani
C2YB C 0.6129(3) 0.7969(3) 0.9312(3) 0.1753 Uani
C2ZD C 0.6129(3) 0.5688(3) 0.7031(3) 0.1753 Uani
C2OB C 0.5688(3) 0.6129(3) 0.7031(3) 0.1753 Uani
C2KD C 0.7969(3) 0.6129(3) 0.9312(3) 0.1753 Uani
C2J C 0.8871(3) 0.4312(3) 0.7969(3) 0.1753 Uani
C2SE C 0.8871(3) 0.2031(3) 0.5688(3) 0.1753 Uani
C2CC C 0.9312(3) 0.2031(3) 0.6129(3) 0.1753 Uani
C2PD C 0.7031(3) 0.4312(3) 0.6129(3) 0.1753 Uani
C2QA C 0.7031(3) 0.3871(3) 0.5688(3) 0.1753 Uani
C2EG C 0.9312(3) 0.3871(3) 0.7969(3) 0.1753 Uani
C2OE C 0.7969(3) 0.4312(3) 0.8871(3) 0.1753 Uani
C2D C 0.5688(3) 0.2031(3) 0.8871(3) 0.1753 Uani
C2QD C 0.6129(3) 0.2031(3) 0.9312(3) 0.1753 Uani
C2EC C 0.6129(3) 0.4312(3) 0.7031(3) 0.1753 Uani
C2HF C 0.5688(3) 0.3871(3) 0.7031(3) 0.1753 Uani
C2R C 0.7969(3) 0.3871(3) 0.9312(3) 0.1753 Uani
C2YE C 0.8871(3) 0.5688(3) 0.7969(3) 0.1753 Uani
C2A C 0.8871(3) 0.7969(3) 0.5688(3) 0.1753 Uani
C2TD C 0.9312(3) 0.7969(3) 0.6129(3) 0.1753 Uani
C2UB C 0.7031(3) 0.5688(3) 0.6129(3) 0.1753 Uani
C2HE C 0.7031(3) 0.6129(3) 0.5688(3) 0.1753 Uani
C2NC C 0.9312(3) 0.6129(3) 0.7969(3) 0.1753 Uani
C3WE C 0.5831(3) 0.7693(2) 0.8777(3) 0.1787 Uani
C3YB C 0.6223(3) 0.7693(2) 0.9169(3) 0.1787 Uani
C3ZD C 0.6223(3) 0.5831(3) 0.7307(2) 0.1787 Uani
C3OB C 0.5831(3) 0.6223(3) 0.7307(2) 0.1787 Uani
C3KD C 0.7693(2) 0.6223(3) 0.9169(3) 0.1787 Uani
C3J C 0.8777(3) 0.4169(3) 0.7693(2) 0.1787 Uani
C3SE C 0.8777(3) 0.2307(2) 0.5831(3) 0.1787 Uani
C3CC C 0.9169(3) 0.2307(2) 0.6223(3) 0.1787 Uani
C3PD C 0.7307(2) 0.4169(3) 0.6223(3) 0.1787 Uani
C3QA C 0.7307(2) 0.3777(3) 0.5831(3) 0.1787 Uani
C3EG C 0.9169(3) 0.3777(3) 0.7693(2) 0.1787 Uani
C3OE C 0.7693(2) 0.4169(3) 0.8777(3) 0.1787 Uani
C3D C 0.5831(3) 0.2307(2) 0.8777(3) 0.1787 Uani
C3QD C 0.6223(3) 0.2307(2) 0.9169(3) 0.1787 Uani
C3EC C 0.6223(3) 0.4169(3) 0.7307(2) 0.1787 Uani
C3HF C 0.5831(3) 0.3777(3) 0.7307(2) 0.1787 Uani
C3R C 0.7693(2) 0.3777(3) 0.9169(3) 0.1787 Uani
C3YE C 0.8777(3) 0.5831(3) 0.7693(2) 0.1787 Uani
C3A C 0.8777(3) 0.7693(2) 0.5831(3) 0.1787 Uani
C3TD C 0.9169(3) 0.7693(2) 0.6223(3) 0.1787 Uani
C3UB C 0.7307(2) 0.5831(3) 0.6223(3) 0.1787 Uani
C3HE C 0.7307(2) 0.6223(3) 0.5831(3) 0.1787 Uani
C3NC C 0.9169(3) 0.6223(3) 0.7693(2) 0.1787 Uani
H1YB H 0.6415 0.7602 0.9246 0.2150 Uiso
H1WE H 0.5754 0.7602 0.8585 0.2150 Uiso
H1OB H 0.5754 0.6415 0.7398 0.2150 Uiso
H1ZD H 0.6415 0.5754 0.7398 0.2150 Uiso
H1KD H 0.7602 0.6415 0.9246 0.2150 Uiso
H1J H 0.8585 0.4246 0.7602 0.2150 Uiso
H1CC H 0.9246 0.2398 0.6415 0.2150 Uiso
H1SE H 0.8585 0.2398 0.5754 0.2150 Uiso
H1QA H 0.7398 0.3585 0.5754 0.2150 Uiso
H1PD H 0.7398 0.4246 0.6415 0.2150 Uiso
H1EG H 0.9246 0.3585 0.7602 0.2150 Uiso
H1OE H 0.7602 0.4246 0.8585 0.2150 Uiso
H1QD H 0.6415 0.2398 0.9246 0.2150 Uiso
H1D H 0.5754 0.2398 0.8585 0.2150 Uiso
H1HF H 0.5754 0.3585 0.7398 0.2150 Uiso
H1EC H 0.6415 0.4246 0.7398 0.2150 Uiso
H1R H 0.7602 0.3585 0.9246 0.2150 Uiso
H1YE H 0.8585 0.5754 0.7602 0.2150 Uiso
H1TD H 0.9246 0.7602 0.6415 0.2150 Uiso
H1A H 0.8585 0.7602 0.5754 0.2150 Uiso
H1HE H 0.7398 0.6415 0.5754 0.2150 Uiso
H1UB H 0.7398 0.5754 0.6415 0.2150 Uiso
H1NC H 0.9246 0.6415 0.7602 0.2150 Uiso
C4WE C 0.6071(4) 0.7533(4) 0.8929(4) 0.1927 Uani
C4ZD C 0.6071(4) 0.6071(4) 0.7467(4) 0.1927 Uani
C4J C 0.8929(4) 0.3929(4) 0.7533(4) 0.1927 Uani
C4SE C 0.8929(4) 0.2467(4) 0.6071(4) 0.1927 Uani
C4QA C 0.7467(4) 0.3929(4) 0.6071(4) 0.1927 Uani
C4R C 0.7533(4) 0.3929(4) 0.8929(4) 0.1927 Uani
C4D C 0.6071(4) 0.2467(4) 0.8929(4) 0.1927 Uani
C4HF C 0.6071(4) 0.3929(4) 0.7467(4) 0.1927 Uani
C4YE C 0.8929(4) 0.6071(4) 0.7533(4) 0.1927 Uani
C4A C 0.8929(4) 0.7533(4) 0.6071(4) 0.1927 Uani
C4HE C 0.7467(4) 0.6071(4) 0.6071(4) 0.1927 Uani
C5WE C 0.5848(3) 0.8110(6) 0.9152(3) 0.2387 Uani
C5ZD C 0.5848(3) 0.5848(3) 0.6890(6) 0.2387 Uani
C5J C 0.9152(3) 0.4152(3) 0.8110(6) 0.2387 Uani
C5SE C 0.9152(3) 0.1890(6) 0.5848(3) 0.2387 Uani
C5QA C 0.6890(6) 0.4152(3) 0.5848(3) 0.2387 Uani
C5R C 0.8110(6) 0.4152(3) 0.9152(3) 0.2387 Uani
C5D C 0.5848(3) 0.1890(6) 0.9152(3) 0.2387 Uani
C5HF C 0.5848(3) 0.4152(3) 0.6890(6) 0.2387 Uani
C5YE C 0.9152(3) 0.5848(3) 0.8110(6) 0.2387 Uani
C5A C 0.9152(3) 0.8110(6) 0.5848(3) 0.2387 Uani
C5HE C 0.6890(6) 0.5848(3) 0.5848(3) 0.2387 Uani
H2WE H 0.5764 0.8302 0.9236 0.2840 Uiso
H2ZD H 0.5764 0.5764 0.6698 0.2840 Uiso
H2J H 0.9236 0.4236 0.8302 0.2840 Uiso
H2SE H 0.9236 0.1698 0.5764 0.2840 Uiso
H2QA H 0.6698 0.4236 0.5764 0.2840 Uiso
H2R H 0.8302 0.4236 0.9236 0.2840 Uiso
H2D H 0.5764 0.1698 0.9236 0.2840 Uiso
H2HF H 0.5764 0.4236 0.6698 0.2840 Uiso
H2YE H 0.9236 0.5764 0.8302 0.2840 Uiso
H2A H 0.9236 0.8302 0.5764 0.2840 Uiso
H2HE H 0.6698 0.5764 0.5764 0.2840 Uiso
C6WE C 0.6447(5) 0.7053(4) 0.8872(6) 0.2650 Uiso
C6YB C 0.6128(6) 0.7053(4) 0.8553(5) 0.2650 Uiso
C6ZD C 0.6128(6) 0.6447(5) 0.7947(4) 0.2650 Uiso
C6OB C 0.6447(5) 0.6128(6) 0.7947(4) 0.2650 Uiso
C6KD C 0.7053(4) 0.6128(6) 0.8553(5) 0.2650 Uiso
C6J C 0.8872(6) 0.3553(5) 0.7053(4) 0.2650 Uiso
C6SE C 0.8872(6) 0.2947(4) 0.6447(5) 0.2650 Uiso
C6CC C 0.8553(5) 0.2947(4) 0.6128(6) 0.2650 Uiso
C6PD C 0.7947(4) 0.3553(5) 0.6128(6) 0.2650 Uiso
C6QA C 0.7947(4) 0.3872(6) 0.6447(5) 0.2650 Uiso
C6EG C 0.8553(5) 0.3872(6) 0.7053(4) 0.2650 Uiso
C6OE C 0.7053(4) 0.3553(5) 0.8872(6) 0.2650 Uiso
C6D C 0.6447(5) 0.2947(4) 0.8872(6) 0.2650 Uiso
C6QD C 0.6128(6) 0.2947(4) 0.8553(5) 0.2650 Uiso
C6EC C 0.6128(6) 0.3553(5) 0.7947(4) 0.2650 Uiso
C6HF C 0.6447(5) 0.3872(6) 0.7947(4) 0.2650 Uiso
C6R C 0.7053(4) 0.3872(6) 0.8553(5) 0.2650 Uiso
C6YE C 0.8872(6) 0.6447(5) 0.7053(4) 0.2650 Uiso
C6A C 0.8872(6) 0.7053(4) 0.6447(5) 0.2650 Uiso
C6TD C 0.8553(5) 0.7053(4) 0.6128(6) 0.2650 Uiso
C6UB C 0.7947(4) 0.6447(5) 0.6128(6) 0.2650 Uiso
C6HE C 0.7947(4) 0.6128(6) 0.6447(5) 0.2650 Uiso
C6NC C 0.8553(5) 0.6128(6) 0.7053(4) 0.2650 Uiso
C7WE C 0.6548(2) 0.6776(3) 0.8691(3) 0.2423 Uani
C7YB C 0.6309(3) 0.6776(3) 0.8452(2) 0.2423 Uani
C7ZD C 0.6309(3) 0.6548(2) 0.8224(3) 0.2423 Uani
C7OB C 0.6548(2) 0.6309(3) 0.8224(3) 0.2423 Uani
C7KD C 0.6776(3) 0.6309(3) 0.8452(2) 0.2423 Uani
C7J C 0.8691(3) 0.3452(2) 0.6776(3) 0.2423 Uani
C7SE C 0.8691(3) 0.3224(3) 0.6548(2) 0.2423 Uani
C7CC C 0.8452(2) 0.3224(3) 0.6309(3) 0.2423 Uani
C7PD C 0.8224(3) 0.3452(2) 0.6309(3) 0.2423 Uani
C7QA C 0.8224(3) 0.3691(3) 0.6548(2) 0.2423 Uani
C7EG C 0.8452(2) 0.3691(3) 0.6776(3) 0.2423 Uani
C7OE C 0.6776(3) 0.3452(2) 0.8691(3) 0.2423 Uani
C7D C 0.6548(2) 0.3224(3) 0.8691(3) 0.2423 Uani
C7QD C 0.6309(3) 0.3224(3) 0.8452(2) 0.2423 Uani
C7EC C 0.6309(3) 0.3452(2) 0.8224(3) 0.2423 Uani
C7HF C 0.6548(2) 0.3691(3) 0.8224(3) 0.2423 Uani
C7R C 0.6776(3) 0.3691(3) 0.8452(2) 0.2423 Uani
C7YE C 0.8691(3) 0.6548(2) 0.6776(3) 0.2423 Uani
C7A C 0.8691(3) 0.6776(3) 0.6548(2) 0.2423 Uani
C7TD C 0.8452(2) 0.6776(3) 0.6309(3) 0.2423 Uani
C7UB C 0.8224(3) 0.6548(2) 0.6309(3) 0.2423 Uani
C7HE C 0.8224(3) 0.6309(3) 0.6548(2) 0.2423 Uani
C7NC C 0.8452(2) 0.6309(3) 0.6776(3) 0.2423 Uani
O4B O 0.5000 0.7828(5) 0.7828(5) 0.3220 Uiso
O4EA O 0.7172(5) 0.7828(5) 1.0000 0.3220 Uiso
O4PD O 0.7172(5) 0.5000 0.7172(5) 0.3220 Uiso
O4FD O 0.5000 0.7172(5) 0.7172(5) 0.3220 Uiso
O4T O 0.7828(5) 0.7172(5) 1.0000 0.3220 Uiso
O5B O 0.5000 0.9014(3) 0.9014(3) 0.2120 Uiso
O5EA O 0.5986(3) 0.9014(3) 1.0000 0.2120 Uiso
O5PD O 0.5986(3) 0.5000 0.5986(3) 0.2120 Uiso
O5FD O 0.5000 0.5986(3) 0.5986(3) 0.2120 Uiso
O5T O 0.9014(3) 0.5986(3) 1.0000 0.2120 Uiso
loop_
_atom_site_aniso_label
_atom_site_aniso_U_11
_atom_site_aniso_U_22
_atom_site_aniso_U_33
_atom_site_aniso_U_23
_atom_site_aniso_U_13
_atom_site_aniso_U_12
Zn1 0.1513(14) 0.1683(17) 0.1513(14) 0.000 -0.1136(14) 0.000
Zn2 0.1455(13) 0.1375(14) 0.1455(13) 0.000 -0.1120(13) 0.000
O1 0.176(6) 0.095(4) 0.326(11) -0.003(5) -0.015(6) 0.031(4)
O2 0.251(8) 0.135(5) 0.245(8) 0.004(5) -0.069(6) 0.075(5)
N1 0.173(11) 0.183(7) 0.183(7) -0.010(8) -0.030(6) 0.030(6)
C1 0.38(3) 0.050(5) 0.43(3) -0.020(9) 0.22(3) 0.009(8)
C2 0.178(9) 0.180(10) 0.168(9) 0.046(8) -0.035(7) 0.020(8)
C3 0.150(8) 0.192(10) 0.194(11) 0.034(8) 0.011(7) 0.008(8)
C4 0.194(16) 0.192(10) 0.192(10) -0.054(13) -0.014(10) 0.014(10)
C5 0.31(3) 0.203(12) 0.203(12) 0.073(16) 0.009(10) -0.009(10)
C7 0.234(12) 0.274(15) 0.219(12) 0.003(10) -0.065(10) 0.053(11)
Zn1B 0.1683 0.1513 0.1513 -0.1136 0 0
Zn1EA 0.1513 0.1513 0.1683 0 0 0.1136
Zn1PD 0.1513 0.1683 0.1513 0 -0.1136 0
Zn1FD 0.1683 0.1513 0.1513 -0.1136 0 0
Zn1T 0.1513 0.1513 0.1683 0 0 0.1136
Zn1H 0.1513 0.1513 0.1683 0 0 0.1136
Zn1RD 0.1683 0.1513 0.1513 -0.1136 0 0
Zn1QA 0.1513 0.1513 0.1683 0 0 0.1136
Zn1LA 0.1683 0.1513 0.1513 -0.1136 0 0
Zn1D 0.1683 0.1513 0.1513 0.1136 0 0
Zn1QD 0.1513 0.1513 0.1683 0 0 -0.1136
Zn1O 0.1683 0.1513 0.1513 0.1136 0 0
Zn1M 0.1513 0.1513 0.1683 0 0 -0.1136
Zn1A 0.1513 0.1513 0.1683 0 0 -0.1136
Zn1AA 0.1683 0.1513 0.1513 0.1136 0 0
Zn1CE 0.1513 0.1513 0.1683 0 0 -0.1136
Zn1NA 0.1683 0.1513 0.1513 0.1136 0 0
Zn2B 0.1375 0.1455 0.1455 -0.112 0 0
Zn2EA 0.1455 0.1455 0.1375 0 0 0.112
Zn2PD 0.1455 0.1375 0.1455 0 -0.112 0
Zn2FD 0.1375 0.1455 0.1455 -0.112 0 0
Zn2T 0.1455 0.1455 0.1375 0 0 0.112
Zn2H 0.1455 0.1455 0.1375 0 0 0.112
Zn2RD 0.1375 0.1455 0.1455 -0.112 0 0
Zn2QA 0.1455 0.1455 0.1375 0 0 0.112
Zn2LA 0.1375 0.1455 0.1455 -0.112 0 0
Zn2D 0.1375 0.1455 0.1455 0.112 0 0
Zn2QD 0.1455 0.1455 0.1375 0 0 -0.112
Zn2O 0.1375 0.1455 0.1455 0.112 0 0
Zn2M 0.1455 0.1455 0.1375 0 0 -0.112
Zn2A 0.1455 0.1455 0.1375 0 0 -0.112
Zn2AA 0.1375 0.1455 0.1455 0.112 0 0
Zn2CE 0.1455 0.1455 0.1375 0 0 -0.112
Zn2NA 0.1375 0.1455 0.1455 0.112 0 0
O1WE 0.095 0.176 0.326 -0.015 -0.003 0.031
O1YB 0.326 0.176 0.095 -0.031 -0.003 0.015
O1ZD 0.326 0.095 0.176 -0.031 -0.015 0.003
O1OB 0.095 0.326 0.176 -0.015 -0.031 0.003
O1KD 0.176 0.326 0.095 -0.003 -0.031 0.015
O1J 0.326 0.095 0.176 -0.031 -0.015 0.003
O1SE 0.326 0.176 0.095 -0.031 -0.003 0.015
O1CC 0.095 0.176 0.326 -0.015 -0.003 0.031
O1PD 0.176 0.095 0.326 -0.003 -0.015 0.031
O1QA 0.176 0.326 0.095 -0.003 -0.031 0.015
O1EG 0.095 0.326 0.176 -0.015 -0.031 0.003
O1OE 0.176 0.095 0.326 0.003 -0.015 -0.031
O1D 0.095 0.176 0.326 0.015 -0.003 -0.031
O1QD 0.326 0.176 0.095 0.031 -0.003 -0.015
O1EC 0.326 0.095 0.176 0.031 -0.015 -0.003
O1HF 0.095 0.326 0.176 0.015 -0.031 -0.003
O1R 0.176 0.326 0.095 0.003 -0.031 -0.015
O1YE 0.326 0.095 0.176 0.031 -0.015 -0.003
O1A 0.326 0.176 0.095 0.031 -0.003 -0.015
O1TD 0.095 0.176 0.326 0.015 -0.003 -0.031
O1UB 0.176 0.095 0.326 0.003 -0.015 -0.031
O1HE 0.176 0.326 0.095 0.003 -0.031 -0.015
O1NC 0.095 0.326 0.176 0.015 -0.031 -0.003
O1B 0.095 0.326 0.176 -0.015 0.031 -0.003
O1E 0.095 0.176 0.326 -0.015 0.003 -0.031
O1UE 0.095 0.326 0.176 -0.015 -0.031 0.003
O1EA 0.176 0.326 0.095 -0.003 -0.031 0.015
O1OF 0.326 0.176 0.095 0.031 0.003 0.015
O1XD 0.176 0.326 0.095 0.003 0.031 0.015
O1FD 0.095 0.326 0.176 -0.015 0.031 -0.003
O1ID 0.095 0.176 0.326 -0.015 0.003 -0.031
O1QB 0.095 0.176 0.326 -0.015 -0.003 0.031
O1T 0.176 0.326 0.095 0.003 0.031 0.015
O1EF 0.326 0.176 0.095 -0.031 -0.003 0.015
O1KB 0.326 0.176 0.095 0.031 0.003 0.015
O2WE 0.135 0.251 0.245 -0.069 0.004 0.075
O2YB 0.245 0.251 0.135 -0.075 0.004 0.069
O2ZD 0.245 0.135 0.251 -0.075 -0.069 -0.004
O2OB 0.135 0.245 0.251 -0.069 -0.075 -0.004
O2KD 0.251 0.245 0.135 0.004 -0.075 0.069
O2J 0.245 0.135 0.251 -0.075 -0.069 -0.004
O2SE 0.245 0.251 0.135 -0.075 0.004 0.069
O2CC 0.135 0.251 0.245 -0.069 0.004 0.075
O2PD 0.251 0.135 0.245 0.004 -0.069 0.075
O2QA 0.251 0.245 0.135 0.004 -0.075 0.069
O2EG 0.135 0.245 0.251 -0.069 -0.075 -0.004
O2OE 0.251 0.135 0.245 -0.004 -0.069 -0.075
O2D 0.135 0.251 0.245 0.069 0.004 -0.075
O2QD 0.245 0.251 0.135 0.075 0.004 -0.069
O2EC 0.245 0.135 0.251 0.075 -0.069 0.004
O2HF 0.135 0.245 0.251 0.069 -0.075 0.004
O2R 0.251 0.245 0.135 -0.004 -0.075 -0.069
O2YE 0.245 0.135 0.251 0.075 -0.069 0.004
O2A 0.245 0.251 0.135 0.075 0.004 -0.069
O2TD 0.135 0.251 0.245 0.069 0.004 -0.075
O2UB 0.251 0.135 0.245 -0.004 -0.069 -0.075
O2HE 0.251 0.245 0.135 -0.004 -0.075 -0.069
O2NC 0.135 0.245 0.251 0.069 -0.075 0.004
O2B 0.135 0.245 0.251 -0.069 0.075 0.004
O2E 0.135 0.251 0.245 -0.069 -0.004 -0.075
O2UE 0.135 0.245 0.251 -0.069 -0.075 -0.004
O2EA 0.251 0.245 0.135 0.004 -0.075 0.069
O2OF 0.245 0.251 0.135 0.075 -0.004 0.069
O2XD 0.251 0.245 0.135 -0.004 0.075 0.069
O2FD 0.135 0.245 0.251 -0.069 0.075 0.004
O2ID 0.135 0.251 0.245 -0.069 -0.004 -0.075
O2QB 0.135 0.251 0.245 -0.069 0.004 0.075
O2T 0.251 0.245 0.135 -0.004 0.075 0.069
O2EF 0.245 0.251 0.135 -0.075 0.004 0.069
O2KB 0.245 0.251 0.135 0.075 -0.004 0.069
N1WE 0.183 0.173 0.183 -0.03 -0.01 0.03
N1ZD 0.183 0.183 0.173 -0.03 -0.03 0.01
N1J 0.183 0.183 0.173 -0.03 -0.03 0.01
N1SE 0.183 0.173 0.183 -0.03 -0.01 0.03
N1QA 0.173 0.183 0.183 -0.01 -0.03 0.03
N1R 0.173 0.183 0.183 0.01 -0.03 -0.03
N1D 0.183 0.173 0.183 0.03 -0.01 -0.03
N1HF 0.183 0.183 0.173 0.03 -0.03 -0.01
N1YE 0.183 0.183 0.173 0.03 -0.03 -0.01
N1A 0.183 0.173 0.183 0.03 -0.01 -0.03
N1HE 0.173 0.183 0.183 0.01 -0.03 -0.03
C1WE 0.05 0.38 0.43 0.22 -0.02 0.009
C1YB 0.43 0.38 0.05 -0.009 -0.02 -0.22
C1ZD 0.43 0.05 0.38 -0.009 0.22 0.02
C1OB 0.05 0.43 0.38 0.22 -0.009 0.02
C1KD 0.38 0.43 0.05 -0.02 -0.009 -0.22
C1J 0.43 0.05 0.38 -0.009 0.22 0.02
C1SE 0.43 0.38 0.05 -0.009 -0.02 -0.22
C1CC 0.05 0.38 0.43 0.22 -0.02 0.009
C1PD 0.38 0.05 0.43 -0.02 0.22 0.009
C1QA 0.38 0.43 0.05 -0.02 -0.009 -0.22
C1EG 0.05 0.43 0.38 0.22 -0.009 0.02
C1OE 0.38 0.05 0.43 0.02 0.22 -0.009
C1D 0.05 0.38 0.43 -0.22 -0.02 -0.009
C1QD 0.43 0.38 0.05 0.009 -0.02 0.22
C1EC 0.43 0.05 0.38 0.009 0.22 -0.02
C1HF 0.05 0.43 0.38 -0.22 -0.009 -0.02
C1R 0.38 0.43 0.05 0.02 -0.009 0.22
C1YE 0.43 0.05 0.38 0.009 0.22 -0.02
C1A 0.43 0.38 0.05 0.009 -0.02 0.22
C1TD 0.05 0.38 0.43 -0.22 -0.02 -0.009
C1UB 0.38 0.05 0.43 0.02 0.22 -0.009
C1HE 0.38 0.43 0.05 0.02 -0.009 0.22
C1NC 0.05 0.43 0.38 -0.22 -0.009 -0.02
C2WE 0.18 0.178 0.168 -0.035 0.046 0.02
C2YB 0.168 0.178 0.18 -0.02 0.046 0.035
C2ZD 0.168 0.18 0.178 -0.02 -0.035 -0.046
C2OB 0.18 0.168 0.178 -0.035 -0.02 -0.046
C2KD 0.178 0.168 0.18 0.046 -0.02 0.035
C2J 0.168 0.18 0.178 -0.02 -0.035 -0.046
C2SE 0.168 0.178 0.18 -0.02 0.046 0.035
C2CC 0.18 0.178 0.168 -0.035 0.046 0.02
C2PD 0.178 0.18 0.168 0.046 -0.035 0.02
C2QA 0.178 0.168 0.18 0.046 -0.02 0.035
C2EG 0.18 0.168 0.178 -0.035 -0.02 -0.046
C2OE 0.178 0.18 0.168 -0.046 -0.035 -0.02
C2D 0.18 0.178 0.168 0.035 0.046 -0.02
C2QD 0.168 0.178 0.18 0.02 0.046 -0.035
C2EC 0.168 0.18 0.178 0.02 -0.035 0.046
C2HF 0.18 0.168 0.178 0.035 -0.02 0.046
C2R 0.178 0.168 0.18 -0.046 -0.02 -0.035
C2YE 0.168 0.18 0.178 0.02 -0.035 0.046
C2A 0.168 0.178 0.18 0.02 0.046 -0.035
C2TD 0.18 0.178 0.168 0.035 0.046 -0.02
C2UB 0.178 0.18 0.168 -0.046 -0.035 -0.02
C2HE 0.178 0.168 0.18 -0.046 -0.02 -0.035
C2NC 0.18 0.168 0.178 0.035 -0.02 0.046
C3WE 0.192 0.15 0.194 0.011 0.034 0.008
C3YB 0.194 0.15 0.192 -0.008 0.034 -0.011
C3ZD 0.194 0.192 0.15 -0.008 0.011 -0.034
C3OB 0.192 0.194 0.15 0.011 -0.008 -0.034
C3KD 0.15 0.194 0.192 0.034 -0.008 -0.011
C3J 0.194 0.192 0.15 -0.008 0.011 -0.034
C3SE 0.194 0.15 0.192 -0.008 0.034 -0.011
C3CC 0.192 0.15 0.194 0.011 0.034 0.008
C3PD 0.15 0.192 0.194 0.034 0.011 0.008
C3QA 0.15 0.194 0.192 0.034 -0.008 -0.011
C3EG 0.192 0.194 0.15 0.011 -0.008 -0.034
C3OE 0.15 0.192 0.194 -0.034 0.011 -0.008
C3D 0.192 0.15 0.194 -0.011 0.034 -0.008
C3QD 0.194 0.15 0.192 0.008 0.034 0.011
C3EC 0.194 0.192 0.15 0.008 0.011 0.034
C3HF 0.192 0.194 0.15 -0.011 -0.008 0.034
C3R 0.15 0.194 0.192 -0.034 -0.008 0.011
C3YE 0.194 0.192 0.15 0.008 0.011 0.034
C3A 0.194 0.15 0.192 0.008 0.034 0.011
C3TD 0.192 0.15 0.194 -0.011 0.034 -0.008
C3UB 0.15 0.192 0.194 -0.034 0.011 -0.008
C3HE 0.15 0.194 0.192 -0.034 -0.008 0.011
C3NC 0.192 0.194 0.15 -0.011 -0.008 0.034
C4WE 0.192 0.194 0.192 -0.014 -0.054 0.014
C4ZD 0.192 0.192 0.194 -0.014 -0.014 0.054
C4J 0.192 0.192 0.194 -0.014 -0.014 0.054
C4SE 0.192 0.194 0.192 -0.014 -0.054 0.014
C4QA 0.194 0.192 0.192 -0.054 -0.014 0.014
C4R 0.194 0.192 0.192 0.054 -0.014 -0.014
C4D 0.192 0.194 0.192 0.014 -0.054 -0.014
C4HF 0.192 0.192 0.194 0.014 -0.014 -0.054
C4YE 0.192 0.192 0.194 0.014 -0.014 -0.054
C4A 0.192 0.194 0.192 0.014 -0.054 -0.014
C4HE 0.194 0.192 0.192 0.054 -0.014 -0.014
C5WE 0.203 0.31 0.203 0.009 0.073 -0.009
C5ZD 0.203 0.203 0.31 0.009 0.009 -0.073
C5J 0.203 0.203 0.31 0.009 0.009 -0.073
C5SE 0.203 0.31 0.203 0.009 0.073 -0.009
C5QA 0.31 0.203 0.203 0.073 0.009 -0.009
C5R 0.31 0.203 0.203 -0.073 0.009 0.009
C5D 0.203 0.31 0.203 -0.009 0.073 0.009
C5HF 0.203 0.203 0.31 -0.009 0.009 0.073
C5YE 0.203 0.203 0.31 -0.009 0.009 0.073
C5A 0.203 0.31 0.203 -0.009 0.073 0.009
C5HE 0.31 0.203 0.203 -0.073 0.009 0.009
C7WE 0.274 0.234 0.219 -0.065 0.003 0.053
C7YB 0.219 0.234 0.274 -0.053 0.003 0.065
C7ZD 0.219 0.274 0.234 -0.053 -0.065 -0.003
C7OB 0.274 0.219 0.234 -0.065 -0.053 -0.003
C7KD 0.234 0.219 0.274 0.003 -0.053 0.065
C7J 0.219 0.274 0.234 -0.053 -0.065 -0.003
C7SE 0.219 0.234 0.274 -0.053 0.003 0.065
C7CC 0.274 0.234 0.219 -0.065 0.003 0.053
C7PD 0.234 0.274 0.219 0.003 -0.065 0.053
C7QA 0.234 0.219 0.274 0.003 -0.053 0.065
C7EG 0.274 0.219 0.234 -0.065 -0.053 -0.003
C7OE 0.234 0.274 0.219 -0.003 -0.065 -0.053
C7D 0.274 0.234 0.219 0.065 0.003 -0.053
C7QD 0.219 0.234 0.274 0.053 0.003 -0.065
C7EC 0.219 0.274 0.234 0.053 -0.065 0.003
C7HF 0.274 0.219 0.234 0.065 -0.053 0.003
C7R 0.234 0.219 0.274 -0.003 -0.053 -0.065
C7YE 0.219 0.274 0.234 0.053 -0.065 0.003
C7A 0.219 0.234 0.274 0.053 0.003 -0.065
C7TD 0.274 0.234 0.219 0.065 0.003 -0.053
C7UB 0.234 0.274 0.219 -0.003 -0.065 -0.053
C7HE 0.234 0.219 0.274 -0.003 -0.053 -0.065
C7NC 0.274 0.219 0.234 0.065 -0.053 0.003
loop_
_geom_bond_atom_site_label_1
_geom_bond_atom_site_label_2
_geom_bond_site_symmetry_1
_geom_bond_site_symmetry_2
Zn1 O1 1_555 1_555
Zn2 O2 1_555 1_555
O1 C1 1_555 1_555
O2 C1 1_555 1_555
O3 C6 1_555 1_555
N1 C4 1_555 1_555
C1 C2 1_555 1_555
C2 C3 1_555 1_555
C3 H1 1_555 1_555
C4 C3 1_555 1_555
C5 C2 1_555 1_555
H2 C5 1_555 1_555
C6 N1 1_555 1_555
C7 C6 1_555 1_555
O4 Zn1 1_555 1_555
O5 Zn2 1_555 1_555
Zn1B O1WE 1_555 1_555
Zn1EA O1YB 1_555 1_555
Zn1PD O1ZD 1_555 1_555
Zn1FD O1OB 1_555 1_555
Zn1T O1KD 1_555 1_555
Zn1H O1SE 1_555 1_555
Zn1RD O1CC 1_555 1_555
Zn1QA O1QA 1_555 1_555
Zn1LA O1EG 1_555 1_555
Zn1D O1D 1_555 1_555
Zn1QD O1QD 1_555 1_555
Zn1O O1HF 1_555 1_555
Zn1M O1R 1_555 1_555
Zn1A O1A 1_555 1_555
Zn1AA O1TD 1_555 1_555
Zn1CE O1HE 1_555 1_555
Zn1NA O1NC 1_555 1_555
Zn2B O2WE 1_555 1_555
Zn2EA O2YB 1_555 1_555
Zn2PD O2ZD 1_555 1_555
Zn2FD O2OB 1_555 1_555
Zn2T O2KD 1_555 1_555
Zn2H O2SE 1_555 1_555
Zn2RD O2CC 1_555 1_555
Zn2QA O2QA 1_555 1_555
Zn2LA O2EG 1_555 1_555
Zn2D O2D 1_555 1_555
Zn2QD O2QD 1_555 1_555
Zn2O O2HF 1_555 1_555
Zn2M O2R 1_555 1_555
Zn2A O2A 1_555 1_555
Zn2AA O2TD 1_555 1_555
Zn2CE O2HE 1_555 1_555
Zn2NA O2NC 1_555 1_555
O1WE C1WE 1_555 1_555
O1YB C1YB 1_555 1_555
O1ZD C1ZD 1_555 1_555
O1OB C1OB 1_555 1_555
O1KD C1KD 1_555 1_555
O1J Zn1 1_555 1_555
O1SE C1SE 1_555 1_555
O1CC C1CC 1_555 1_555
O1PD Zn1PD 1_555 1_555
O1QA C1QA 1_555 1_555
O1EG C1EG 1_555 1_555
O1OE Zn1 1_555 1_555
O1D C1D 1_555 1_555
O1QD C1QD 1_555 1_555
O1EC Zn1PD 1_555 1_555
O1HF C1HF 1_555 1_555
O1R C1R 1_555 1_555
O1YE Zn1 1_555 1_555
O1A C1A 1_555 1_555
O1TD C1TD 1_555 1_555
O1UB Zn1PD 1_555 1_555
O1HE C1HE 1_555 1_555
O1NC C1NC 1_555 1_555
O1B Zn1B 1_555 1_555
O1E Zn1B 1_555 1_555
O1UE Zn1B 1_555 1_555
O1EA Zn1EA 1_555 1_555
O1OF Zn1EA 1_555 1_555
O1XD Zn1EA 1_555 1_555
O1FD Zn1FD 1_555 1_555
O1ID Zn1FD 1_555 1_555
O1QB Zn1FD 1_555 1_555
O1T Zn1T 1_555 1_555
O1EF Zn1T 1_555 1_555
O1KB Zn1T 1_555 1_555
O2WE C1WE 1_555 1_555
O2YB C1YB 1_555 1_555
O2ZD C1ZD 1_555 1_555
O2OB C1OB 1_555 1_555
O2KD C1KD 1_555 1_555
O2J Zn2 1_555 1_555
O2SE C1SE 1_555 1_555
O2CC C1CC 1_555 1_555
O2PD Zn2PD 1_555 1_555
O2QA C1QA 1_555 1_555
O2EG C1EG 1_555 1_555
O2OE Zn2 1_555 1_555
O2D C1D 1_555 1_555
O2QD C1QD 1_555 1_555
O2EC Zn2PD 1_555 1_555
O2HF C1HF 1_555 1_555
O2R C1R 1_555 1_555
O2YE Zn2 1_555 1_555
O2A C1A 1_555 1_555
O2TD C1TD 1_555 1_555
O2UB Zn2PD 1_555 1_555
O2HE C1HE 1_555 1_555
O2NC C1NC 1_555 1_555
O2B Zn2B 1_555 1_555
O2E Zn2B 1_555 1_555
O2UE Zn2B 1_555 1_555
O2EA Zn2EA 1_555 1_555
O2OF Zn2EA 1_555 1_555
O2XD Zn2EA 1_555 1_555
O2FD Zn2FD 1_555 1_555
O2ID Zn2FD 1_555 1_555
O2QB Zn2FD 1_555 1_555
O2T Zn2T 1_555 1_555
O2EF Zn2T 1_555 1_555
O2KB Zn2T 1_555 1_555
O3WE C6WE 1_555 1_555
O3YB C6YB 1_555 1_555
O3ZD C6ZD 1_555 1_555
O3OB C6OB 1_555 1_555
O3KD C6KD 1_555 1_555
O3J C6J 1_555 1_555
O3SE C6SE 1_555 1_555
O3CC C6CC 1_555 1_555
O3PD C6PD 1_555 1_555
O3QA C6QA 1_555 1_555
O3EG C6EG 1_555 1_555
O3OE C6OE 1_555 1_555
O3D C6D 1_555 1_555
O3QD C6QD 1_555 1_555
O3EC C6EC 1_555 1_555
O3HF C6HF 1_555 1_555
O3R C6R 1_555 1_555
O3YE C6YE 1_555 1_555
O3A C6A 1_555 1_555
O3TD C6TD 1_555 1_555
O3UB C6UB 1_555 1_555
O3HE C6HE 1_555 1_555
O3NC C6NC 1_555 1_555
N1WE C4WE 1_555 1_555
N1ZD C4ZD 1_555 1_555
N1J C4J 1_555 1_555
N1SE C4SE 1_555 1_555
N1QA C4QA 1_555 1_555
N1R C4R 1_555 1_555
N1D C4D 1_555 1_555
N1HF C4HF 1_555 1_555
N1YE C4YE 1_555 1_555
N1A C4A 1_555 1_555
N1HE C4HE 1_555 1_555
C1WE C2WE 1_555 1_555
C1YB C2YB 1_555 1_555
C1ZD C2ZD 1_555 1_555
C1OB C2OB 1_555 1_555
C1KD C2KD 1_555 1_555
C1J O1J 1_555 1_555
C1SE C2SE 1_555 1_555
C1CC C2CC 1_555 1_555
C1PD O1PD 1_555 1_555
C1QA C2QA 1_555 1_555
C1EG C2EG 1_555 1_555
C1OE O1OE 1_555 1_555
C1D C2D 1_555 1_555
C1QD C2QD 1_555 1_555
C1EC O1EC 1_555 1_555
C1HF C2HF 1_555 1_555
C1R C2R 1_555 1_555
C1YE O1YE 1_555 1_555
C1A C2A 1_555 1_555
C1TD C2TD 1_555 1_555
C1UB O1UB 1_555 1_555
C1HE C2HE 1_555 1_555
C1NC C2NC 1_555 1_555
C2WE C3WE 1_555 1_555
C2YB C3YB 1_555 1_555
C2ZD C3ZD 1_555 1_555
C2OB C3OB 1_555 1_555
C2KD C5 1_555 1_555
C2J C1J 1_555 1_555
C2SE C3SE 1_555 1_555
C2CC C3CC 1_555 1_555
C2PD C1PD 1_555 1_555
C2QA C3QA 1_555 1_555
C2EG C3EG 1_555 1_555
C2OE C1OE 1_555 1_555
C2D C3D 1_555 1_555
C2QD C3QD 1_555 1_555
C2EC C1EC 1_555 1_555
C2HF C3HF 1_555 1_555
C2R C3R 1_555 1_555
C2YE C1YE 1_555 1_555
C2A C3A 1_555 1_555
C2TD C3TD 1_555 1_555
C2UB C1UB 1_555 1_555
C2HE C3HE 1_555 1_555
C2NC C3NC 1_555 1_555
C3WE H1WE 1_555 1_555
C3YB H1YB 1_555 1_555
C3ZD H1ZD 1_555 1_555
C3OB H1OB 1_555 1_555
C3KD C4 1_555 1_555
C3J C2J 1_555 1_555
C3SE H1SE 1_555 1_555
C3CC H1CC 1_555 1_555
C3PD C2PD 1_555 1_555
C3QA H1QA 1_555 1_555
C3EG H1EG 1_555 1_555
C3OE C2OE 1_555 1_555
C3D H1D 1_555 1_555
C3QD H1QD 1_555 1_555
C3EC C2EC 1_555 1_555
C3HF H1HF 1_555 1_555
C3R H1R 1_555 1_555
C3YE C2YE 1_555 1_555
C3A H1A 1_555 1_555
C3TD H1TD 1_555 1_555
C3UB C2UB 1_555 1_555
C3HE H1HE 1_555 1_555
C3NC H1NC 1_555 1_555
H1KD C3KD 1_555 1_555
H1J C3J 1_555 1_555
H1PD C3PD 1_555 1_555
H1OE C3OE 1_555 1_555
H1EC C3EC 1_555 1_555
H1YE C3YE 1_555 1_555
H1UB C3UB 1_555 1_555
C4WE C3WE 1_555 1_555
C4ZD C3ZD 1_555 1_555
C4J C3J 1_555 1_555
C4SE C3SE 1_555 1_555
C4QA C3PD 1_555 1_555
C4R C3OE 1_555 1_555
C4D C3D 1_555 1_555
C4HF C3EC 1_555 1_555
C4YE C3YE 1_555 1_555
C4A C3A 1_555 1_555
C4HE C3UB 1_555 1_555
C5WE C2WE 1_555 1_555
C5ZD C2ZD 1_555 1_555
C5J C2J 1_555 1_555
C5SE C2SE 1_555 1_555
C5QA C2PD 1_555 1_555
C5R C2OE 1_555 1_555
C5D C2D 1_555 1_555
C5HF C2EC 1_555 1_555
C5YE C2YE 1_555 1_555
C5A C2A 1_555 1_555
C5HE C2UB 1_555 1_555
H2WE C5WE 1_555 1_555
H2ZD C5ZD 1_555 1_555
H2J C5J 1_555 1_555
H2SE C5SE 1_555 1_555
H2QA C5QA 1_555 1_555
H2R C5R 1_555 1_555
H2D C5D 1_555 1_555
H2HF C5HF 1_555 1_555
H2YE C5YE 1_555 1_555
H2A C5A 1_555 1_555
H2HE C5HE 1_555 1_555
C6WE N1WE 1_555 1_555
C6YB N1WE 1_555 1_555
C6ZD N1ZD 1_555 1_555
C6OB N1ZD 1_555 1_555
C6KD N1 1_555 1_555
C6J N1J 1_555 1_555
C6SE N1SE 1_555 1_555
C6CC N1SE 1_555 1_555
C6PD N1QA 1_555 1_555
C6QA N1QA 1_555 1_555
C6EG N1J 1_555 1_555
C6OE N1R 1_555 1_555
C6D N1D 1_555 1_555
C6QD N1D 1_555 1_555
C6EC N1HF 1_555 1_555
C6HF N1HF 1_555 1_555
C6R N1R 1_555 1_555
C6YE N1YE 1_555 1_555
C6A N1A 1_555 1_555
C6TD N1A 1_555 1_555
C6UB N1HE 1_555 1_555
C6HE N1HE 1_555 1_555
C6NC N1YE 1_555 1_555
C7WE C7 1_555 1_555
C7YB C6YB 1_555 1_555
C7ZD C6ZD 1_555 1_555
C7OB C6OB 1_555 1_555
C7KD C7 1_555 1_555
C7J C6J 1_555 1_555
C7SE C6SE 1_555 1_555
C7CC C6CC 1_555 1_555
C7PD C6PD 1_555 1_555
C7QA C6QA 1_555 1_555
C7EG C6EG 1_555 1_555
C7OE C6OE 1_555 1_555
C7D C6D 1_555 1_555
C7QD C6QD 1_555 1_555
C7EC C6EC 1_555 1_555
C7HF C6HF 1_555 1_555
C7R C6R 1_555 1_555
C7YE C6YE 1_555 1_555
C7A C6A 1_555 1_555
C7TD C6TD 1_555 1_555
C7UB C6UB 1_555 1_555
C7HE C6HE 1_555 1_555
C7NC C6NC 1_555 1_555
O4B Zn1B 1_555 1_555
O4EA Zn1EA 1_555 1_555
O4PD Zn1PD 1_555 1_555
O4FD Zn1FD 1_555 1_555
O4T Zn1T 1_555 1_555
O5B Zn2B 1_555 1_555
O5EA Zn2EA 1_555 1_555
O5PD Zn2PD 1_555 1_555
O5FD Zn2FD 1_555 1_555
O5T Zn2T 1_555 1_555
O2J C1J 1_555 1_555
O2PD C1PD 1_555 1_555
O2OE C1OE 1_555 1_555
O2EC C1EC 1_555 1_555
O2YE C1YE 1_555 1_555
O2UB C1UB 1_555 1_555
C2YB C5WE 1_555 1_555
C2OB C5ZD 1_555 1_555
C2KD C3KD 1_555 1_555
C2CC C5SE 1_555 1_555
C2QA C5QA 1_555 1_555
C2EG C5J 1_555 1_555
C2QD C5D 1_555 1_555
C2HF C5HF 1_555 1_555
C2R C5R 1_555 1_555
C2TD C5A 1_555 1_555
C2HE C5HE 1_555 1_555
C2NC C5YE 1_555 1_555
C3YB C4WE 1_555 1_555
C3OB C4ZD 1_555 1_555
C3CC C4SE 1_555 1_555
C3QA C4QA 1_555 1_555
C3EG C4J 1_555 1_555
C3QD C4D 1_555 1_555
C3HF C4HF 1_555 1_555
C3R C4R 1_555 1_555
C3TD C4A 1_555 1_555
C3HE C4HE 1_555 1_555
C3NC C4YE 1_555 1_555
C6WE C7WE 1_555 1_555
C6KD C7KD 1_555 1_555
C7WE C7YB 1_555 1_555
C7YB C7ZD 1_555 1_555
C7ZD C7OB 1_555 1_555
C7OB C7KD 1_555 1_555
C7J C7SE 1_555 1_555
C7J C7EG 1_555 1_555
C7SE C7CC 1_555 1_555
C7CC C7PD 1_555 1_555
C7PD C7QA 1_555 1_555
C7QA C7EG 1_555 1_555
C7OE C7D 1_555 1_555
C7OE C7R 1_555 1_555
C7D C7QD 1_555 1_555
C7QD C7EC 1_555 1_555
C7EC C7HF 1_555 1_555
C7HF C7R 1_555 1_555
C7YE C7A 1_555 1_555
C7YE C7NC 1_555 1_555
C7A C7TD 1_555 1_555
C7TD C7UB 1_555 1_555
C7UB C7HE 1_555 1_555
C7HE C7NC 1_555 1_555

#END
