
#######################################################################
#
#                 Cambridge Crystallographic Data Centre
#                                CCDC 
#
#######################################################################
#
# If this CIF has been generated from an entry in the Cambridge 
# Structural Database, then it will include bibliographic, chemical, 
# crystal, experimental, refinement or atomic coordinate data resulting 
# from the CCDC's data processing and validation procedures.
#
#######################################################################

data_NAHDIM
_chemical_formula_moiety         '(C182 H178 N1 O40 Zn4 1-)n'
_symmetry_cell_setting           monoclinic
_symmetry_space_group_name_H-M   'I 2'
_symmetry_Int_Tables_number      5
_space_group_name_Hall           'I 2y'
loop_
_symmetry_equiv_pos_site_id
_symmetry_equiv_pos_as_xyz
1 x,y,z
2 -x,y,-z
3 1/2+x,1/2+y,1/2+z
4 1/2-x,1/2+y,1/2-z
_cell_length_a                   18.9677(16)
_cell_length_b                   19.9186(17)
_cell_length_c                   31.739(3)
_cell_angle_alpha                90
_cell_angle_beta                 95.287(4)
_cell_angle_gamma                90
_cell_volume                     11940.3
loop_
_atom_site_label
_atom_site_type_symbol
_atom_site_fract_x
_atom_site_fract_y
_atom_site_fract_z
Zn1 Zn 0.35819(5) -0.14103(8) 0.40850(3)
Zn2 Zn 1.1439(3) 0.0889(3) 0.17478(12)
O1 O 0.4258(4) -0.1776(6) 0.3323(3)
O2 O 0.4625(4) -0.1587(4) 0.3957(3)
O3 O 0.5607(3) -0.1852(4) 0.3137(3)
O4 O 0.2384(4) 0.2713(5) 0.0372(2)
O5 O 0.1672(4) 0.2600(5) 0.0896(2)
O6 O 0.2922(3) 0.1491(4) 0.05081(18)
O7 O 0.8828(5) 0.3992(5) -0.0351(3)
O8 O 0.7780(6) 0.4452(4) -0.0315(3)
O9 O 0.8192(5) 0.4784(5) 0.0544(2)
O10 O 1.1484(5) 0.0944(7) 0.2354(4)
O11 O 1.1130(5) 0.1996(8) 0.2426(3)
O12 O 1.0760(4) 0.1830(5) 0.3242(2)
O13 O 0.3098(4) -0.0812(5) 0.3692(2)
O14 O 0.2087(5) -0.1368(6) 0.3788(3)
O15 O 0.1252(4) -0.0422(4) 0.3330(2)
O16 O 0.2280(5) 0.4739(7) 0.3138(3)
O17 O 0.2845(6) 0.5540(6) 0.3461(3)
O18 O 0.0952(6) 0.5254(6) 0.3186(3)
O19 O 1.1419(5) 0.1824(4) 0.1629(3)
O20 O 1.0719(10) 0.0798(17) 0.1632(10)
C1 C 0.4696(8) -0.1737(8) 0.3602(4)
C2 C 0.5440(5) -0.2013(6) 0.3554(4)
H1 H 0.5786 -0.1808 0.3764
C3 C 0.5484(7) -0.2794(7) 0.3584(4)
H2 H 0.5961 -0.2936 0.3557
H3 H 0.5173 -0.2990 0.3362
H4 H 0.5344 -0.2937 0.3853
C4 C 0.5904(4) -0.1260(6) 0.3067(4)
C5 C 0.5823(5) -0.0679(5) 0.3310(3)
H5 H 0.5568 -0.0694 0.3546
C6 C 0.6123(5) -0.0095(5) 0.3195(3)
C7 C 0.6485(4) -0.0070(5) 0.2830(3)
C8 C 0.6551(5) -0.0637(5) 0.2573(3)
C9 C 0.6231(5) -0.1196(6) 0.2685(3)
H6 H 0.6222 -0.1563 0.2504
C10 C 0.6116(7) 0.0537(7) 0.3467(3)
H7 H 0.6588 0.0634 0.3586
H8 H 0.5816 0.0466 0.3691
H9 H 0.5939 0.0908 0.3295
C11 C 0.6935(6) -0.0636(5) 0.2182(2)
H10 H 0.6901 -0.1073 0.2054
H11 H 0.7424 -0.0527 0.2255
H12 H 0.6726 -0.0309 0.1986
C12 C 1.1310(9) 0.1493(11) 0.2599(6)
C13 C 1.1278(7) 0.1404(10) 0.3053(5)
H13 H 1.1190 0.0931 0.3115
C14 C 1.2001(7) 0.1610(9) 0.3256(5)
H14 H 1.2335 0.1256 0.3222
H15 H 1.1973 0.1693 0.3552
H16 H 1.2152 0.2011 0.3123
C15 C 1.0064(5) 0.1626(8) 0.3109(3)
C16 C 0.9900(7) 0.1103(8) 0.2848(4)
H17 H 1.0265 0.0850 0.2752
C17 C 0.9195(5) 0.0926(5) 0.2718(3)
C18 C 0.8678(4) 0.1376(6) 0.2874(3)
C19 C 0.8844(5) 0.1921(5) 0.3135(2)
C20 C 0.9547(4) 0.2025(6) 0.3248(2)
H18 H 0.9680 0.2381 0.3428
C21 C 0.9012(7) 0.0356(7) 0.2401(3)
H19 H 0.8509 0.0290 0.2369
H20 H 0.9241 -0.0050 0.2504
H21 H 0.9174 0.0472 0.2133
C22 C 0.8280(4) 0.2335(5) 0.3273(3)
H22 H 0.8459 0.2600 0.3512
H23 H 0.7903 0.2053 0.3351
H24 H 0.8104 0.2626 0.3046
C23 C 0.8377(10) 0.4334(11) -0.0173(4)
C24 C 0.8710(7) 0.4653(9) 0.0242(4)
H25 H 0.9098 0.4375 0.0371
C25 C 0.7835(6) 0.4240(7) 0.0731(3)
C26 C 0.7923(4) 0.3630(7) 0.0592(3)
H26 H 0.8223 0.3542 0.0383
C27 C 0.7524(4) 0.3088(5) 0.0780(3)
C28 C 0.7090(4) 0.3250(5) 0.1099(2)
C29 C 0.7039(4) 0.3909(6) 0.1219(3)
C30 C 0.7431(5) 0.4361(6) 0.1033(3)
H27 H 0.7413 0.4802 0.1128
C31 C 0.7589(6) 0.2339(7) 0.0638(4)
H28 H 0.7513 0.2048 0.0871
H29 H 0.8054 0.2263 0.0551
H30 H 0.7241 0.2248 0.0407
C32 C 0.6621(6) 0.4105(5) 0.1590(3)
H31 H 0.6688 0.4575 0.1650
H32 H 0.6786 0.3847 0.1835
H33 H 0.6127 0.4018 0.1518
C33 C 0.2096(6) 0.2396(6) 0.0633(3)
C34 C 0.2299(4) 0.1677(7) 0.0690(3)
H34 H 0.2345 0.1565 0.0992
C35 C 0.1750(6) 0.1217(10) 0.0454(5)
H35 H 0.1288 0.1321 0.0537
H36 H 0.1863 0.0757 0.0522
H37 H 0.1755 0.1283 0.0155
C36 C 0.3583(5) 0.1643(5) 0.0714(3)
C37 C 0.4135(5) 0.1383(5) 0.0571(3)
H38 H 0.4084 0.1114 0.0330
C38 C 0.4797(4) 0.1497(5) 0.0768(3)
C39 C 0.4863(4) 0.1946(4) 0.1108(2)
C40 C 0.4267(5) 0.2219(5) 0.1259(2)
C41 C 0.3608(5) 0.2056(6) 0.1063(3)
H39 H 0.3196 0.2221 0.1162
C42 C 0.5439(5) 0.1175(6) 0.0592(3)
H40 H 0.5760 0.1015 0.0822
H41 H 0.5674 0.1502 0.0433
H42 H 0.5287 0.0806 0.0412
C43 C 0.4343(5) 0.2714(5) 0.1659(3)
H43 H 0.4013 0.3078 0.1613
H44 H 0.4817 0.2890 0.1695
H45 H 0.4246 0.2472 0.1909
C44 C 0.6862(5) 0.0596(4) 0.2693(2)
C45 C 0.7536(4) 0.0731(4) 0.2855(2)
H46 H 0.7744 0.0478 0.3079
C46 C 0.7905(4) 0.1239(4) 0.2688(2)
C47 C 0.7627(4) 0.1651(5) 0.2354(2)
C48 C 0.8009(4) 0.2134(5) 0.2152(2)
H47 H 0.8481 0.2205 0.2249
C49 C 0.7727(4) 0.2495(4) 0.1830(2)
H48 H 0.7994 0.2829 0.1716
C50 C 0.7001(3) 0.2374(4) 0.1653(2)
C51 C 0.6693(4) 0.2737(4) 0.1287(2)
C52 C 0.6007(4) 0.2587(5) 0.1145(2)
H49 H 0.5796 0.2835 0.0919
C53 C 0.5589(4) 0.2073(4) 0.1320(2)
C54 C 0.5880(4) 0.1737(4) 0.1666(2)
C55 C 0.5518(4) 0.1222(4) 0.1856(2)
H50 H 0.5055 0.1128 0.1751
C56 C 0.5809(4) 0.0856(4) 0.2184(3)
H51 H 0.5544 0.0524 0.2302
C57 C 0.6536(4) 0.0979(4) 0.2355(2)
C58 C 0.6911(4) 0.1467(4) 0.2196(2)
C59 C 0.6596(4) 0.1888(4) 0.1836(2)
C60 C 0.2436(10) -0.0931(9) 0.3601(5)
C61 C 0.2044(8) -0.0399(7) 0.3295(3)
H52 H 0.2235 0.0053 0.3345
C62 C 0.2148(9) -0.0650(12) 0.2839(4)
H53 H 0.2633 -0.0590 0.2785
H54 H 0.1847 -0.0397 0.2637
H55 H 0.2026 -0.1117 0.2815
C63 C 0.1075(6) -0.0057(5) 0.3676(3)
C64 C 0.1551(6) 0.0176(5) 0.3993(3)
H56 H 0.2034 0.0095 0.3991
C65 C 0.1275(6) 0.0549(5) 0.4328(3)
C66 C 0.0553(4) 0.0673(4) 0.4319(2)
C67 C 0.0082(5) 0.0409(4) 0.3981(3)
C68 C 0.0346(6) 0.0032(5) 0.3684(3)
H57 H 0.0038 -0.0176 0.3480
C69 C 0.0000 0.0721(6) 0.5000
H58 H 0.0000 0.0254 0.5000
C70 C 0.0261(4) 0.1068(5) 0.4667(3)
C71 C -0.0693(5) 0.0561(5) 0.3973(2)
H59 H -0.0918 0.0480 0.3694
H60 H -0.0756 0.1023 0.4047
H61 H -0.0902 0.0277 0.4172
C72 C 0.1823(6) 0.0846(6) 0.4682(3)
H62 H 0.1573 0.1075 0.4889
H63 H 0.2131 0.1156 0.4557
H64 H 0.2099 0.0488 0.4816
C73 C 0.0270(4) 0.1800(4) 0.4663(2)
C74 C 0.0000 0.2116(6) 0.5000
C75 C 0.0000 0.2835(6) 0.5000
C76 C 0.0240(4) 0.3214(4) 0.4650(2)
C77 C 0.0479(4) 0.2800(5) 0.4318(3)
H65 H 0.0637 0.3021 0.4087
C78 C 0.0494(4) 0.2147(5) 0.4312(3)
H66 H 0.0649 0.1917 0.4083
C79 C 0.0000 0.4208(8) 0.5000
H67 H 0.0000 0.4674 0.5000
C80 C 0.0229(4) 0.3914(5) 0.4657(3)
C81 C 0.0432(5) 0.4262(5) 0.4282(3)
C82 C -0.0031(5) 0.4349(5) 0.3923(3)
C83 C 0.0149(6) 0.4637(5) 0.3546(3)
H68 H -0.0152 0.4603 0.3299
C84 C 0.0757(7) 0.4957(5) 0.3552(3)
C85 C 0.1241(7) 0.4940(6) 0.3914(4)
H69 H 0.1677 0.5150 0.3906
C86 C 0.1093(5) 0.4626(5) 0.4278(3)
C87 C 0.1614(6) 0.4565(7) 0.4696(4)
H70 H 0.2045 0.4801 0.4659
H71 H 0.1717 0.4100 0.4753
H72 H 0.1394 0.4756 0.4929
C88 C -0.0759(6) 0.4022(7) 0.3933(4)
H73 H -0.1105 0.4282 0.3764
H74 H -0.0883 0.4006 0.4219
H75 H -0.0746 0.3575 0.3821
C89 C 0.8977(9) 0.5389(10) 0.0158(4)
H76 H 0.9025 0.5444 -0.0139
H77 H 0.9427 0.5461 0.0315
H78 H 0.8641 0.5708 0.0245
C90 C 0.1508(8) 0.6052(9) 0.2774(4)
H79 H 0.1338 0.5756 0.2549
H80 H 0.1979 0.6197 0.2732
H81 H 0.1202 0.6436 0.2777
C91 C 0.2170(11) 0.5400(12) 0.3215(5)
C92 C 0.1517(9) 0.5693(10) 0.3186(4)
H82 H 0.1494 0.6020 0.3415
O13A O -0.3098(4) -0.0812(5) 0.6308(2)
O14A O -0.2087(5) -0.1368(6) 0.6212(3)
O15A O -0.1252(4) -0.0422(4) 0.6670(2)
O16A O -0.2280(5) 0.4739(7) 0.6862(3)
O17A O -0.2845(6) 0.5540(6) 0.6539(3)
O18A O -0.0952(6) 0.5254(6) 0.6814(3)
C60A C -0.2436(10) -0.0931(9) 0.6399(5)
C61A C -0.2044(8) -0.0399(7) 0.6705(3)
H52A H -0.2235 0.0053 0.6655
C62A C -0.2148(9) -0.0650(12) 0.7161(4)
H53A H -0.2633 -0.0590 0.7215
H54A H -0.1847 -0.0397 0.7363
H55A H -0.2026 -0.1117 0.7185
C63A C -0.1075(6) -0.0057(5) 0.6324(3)
C64A C -0.1551(6) 0.0176(5) 0.6007(3)
H56A H -0.2034 0.0095 0.6009
C65A C -0.1275(6) 0.0549(5) 0.5672(3)
C66A C -0.0553(4) 0.0673(4) 0.5681(2)
C67A C -0.0082(5) 0.0409(4) 0.6019(3)
C68A C -0.0346(6) 0.0032(5) 0.6316(3)
H57A H -0.0038 -0.0176 0.6520
C70A C -0.0261(4) 0.1068(5) 0.5333(3)
C71A C 0.0693(5) 0.0561(5) 0.6027(2)
H59A H 0.0918 0.0480 0.6306
H60A H 0.0756 0.1023 0.5953
H61A H 0.0902 0.0277 0.5828
C72A C -0.1823(6) 0.0846(6) 0.5318(3)
H62A H -0.1573 0.1075 0.5111
H63A H -0.2131 0.1156 0.5443
H64A H -0.2099 0.0488 0.5184
C73A C -0.0270(4) 0.1800(4) 0.5337(2)
C76A C -0.0240(4) 0.3214(4) 0.5350(2)
C77A C -0.0479(4) 0.2800(5) 0.5682(3)
H65A H -0.0637 0.3021 0.5913
C78A C -0.0494(4) 0.2147(5) 0.5688(3)
H66A H -0.0649 0.1917 0.5917
C80A C -0.0229(4) 0.3914(5) 0.5343(3)
C81A C -0.0432(5) 0.4262(5) 0.5718(3)
C82A C 0.0031(5) 0.4349(5) 0.6077(3)
C83A C -0.0149(6) 0.4637(5) 0.6454(3)
H68A H 0.0152 0.4603 0.6701
C84A C -0.0757(7) 0.4957(5) 0.6448(3)
C85A C -0.1241(7) 0.4940(6) 0.6086(4)
H69A H -0.1677 0.5150 0.6094
C86A C -0.1093(5) 0.4626(5) 0.5722(3)
C87A C -0.1614(6) 0.4565(7) 0.5304(4)
H70A H -0.2045 0.4801 0.5341
H71A H -0.1717 0.4100 0.5247
H72A H -0.1394 0.4756 0.5071
C88A C 0.0759(6) 0.4022(7) 0.6067(4)
H73A H 0.1105 0.4282 0.6236
H74A H 0.0883 0.4006 0.5781
H75A H 0.0746 0.3575 0.6179
C90A C -0.1508(8) 0.6052(9) 0.7226(4)
H79A H -0.1338 0.5756 0.7451
H80A H -0.1979 0.6197 0.7268
H81A H -0.1202 0.6436 0.7223
C91A C -0.2170(11) 0.5400(12) 0.6785(5)
C92A C -0.1517(9) 0.5693(10) 0.6814(4)
H82A H -0.1494 0.6020 0.6585
Zn1A Zn -0.35819(5) -0.14103(8) 0.59150(3)
Zn2A Zn -1.1439(3) 0.0889(3) 0.82522(12)
O1A O -0.4258(4) -0.1776(6) 0.6677(3)
O2A O -0.4625(4) -0.1587(4) 0.6043(3)
O3A O -0.5607(3) -0.1852(4) 0.6863(3)
O4A O -0.2384(4) 0.2713(5) 0.9628(2)
O5A O -0.1672(4) 0.2600(5) 0.9104(2)
O6A O -0.2922(3) 0.1491(4) 0.94919(18)
O7A O -0.8828(5) 0.3992(5) 1.0351(3)
O8A O -0.7780(6) 0.4452(4) 1.0315(3)
O9A O -0.8192(5) 0.4784(5) 0.9456(2)
O10A O -1.1484(5) 0.0944(7) 0.7646(4)
O11A O -1.1130(5) 0.1996(8) 0.7574(3)
O12A O -1.0760(4) 0.1830(5) 0.6758(2)
O19A O -1.1419(5) 0.1824(4) 0.8371(3)
O20A O -1.0719(10) 0.0798(17) 0.8368(10)
C1A C -0.4696(8) -0.1737(8) 0.6398(4)
C2A C -0.5440(5) -0.2013(6) 0.6446(4)
H1A H -0.5786 -0.1808 0.6236
C3A C -0.5484(7) -0.2794(7) 0.6416(4)
H2A H -0.5961 -0.2936 0.6443
H3A H -0.5173 -0.2990 0.6638
H4A H -0.5344 -0.2937 0.6147
C4A C -0.5904(4) -0.1260(6) 0.6933(4)
C5A C -0.5823(5) -0.0679(5) 0.6690(3)
H5A H -0.5568 -0.0694 0.6454
C6A C -0.6123(5) -0.0095(5) 0.6805(3)
C7A C -0.6485(4) -0.0070(5) 0.7170(3)
C8A C -0.6551(5) -0.0637(5) 0.7427(3)
C9A C -0.6231(5) -0.1196(6) 0.7315(3)
H6A H -0.6222 -0.1563 0.7496
C10A C -0.6116(7) 0.0537(7) 0.6533(3)
H7A H -0.6588 0.0634 0.6414
H8A H -0.5816 0.0466 0.6309
H9A H -0.5939 0.0908 0.6705
C11A C -0.6935(6) -0.0636(5) 0.7818(2)
H10A H -0.6901 -0.1073 0.7946
H11A H -0.7424 -0.0527 0.7745
H12A H -0.6726 -0.0309 0.8014
C12A C -1.1310(9) 0.1493(11) 0.7401(6)
C13A C -1.1278(7) 0.1404(10) 0.6947(5)
H13A H -1.1190 0.0931 0.6885
C14A C -1.2001(7) 0.1610(9) 0.6744(5)
H14A H -1.2335 0.1256 0.6778
H15A H -1.1973 0.1693 0.6448
H16A H -1.2152 0.2011 0.6877
C15A C -1.0064(5) 0.1626(8) 0.6891(3)
C16A C -0.9900(7) 0.1103(8) 0.7152(4)
H17A H -1.0265 0.0850 0.7248
C17A C -0.9195(5) 0.0926(5) 0.7282(3)
C18A C -0.8678(4) 0.1376(6) 0.7126(3)
C19A C -0.8844(5) 0.1921(5) 0.6865(2)
C20A C -0.9547(4) 0.2025(6) 0.6752(2)
H18A H -0.9680 0.2381 0.6572
C21A C -0.9012(7) 0.0356(7) 0.7599(3)
H19A H -0.8509 0.0290 0.7631
H20A H -0.9241 -0.0050 0.7496
H21A H -0.9174 0.0472 0.7867
C22A C -0.8280(4) 0.2335(5) 0.6727(3)
H22A H -0.8459 0.2600 0.6488
H23A H -0.7903 0.2053 0.6649
H24A H -0.8104 0.2626 0.6954
C23A C -0.8377(10) 0.4334(11) 1.0173(4)
C24A C -0.8710(7) 0.4653(9) 0.9758(4)
H25A H -0.9098 0.4375 0.9629
C25A C -0.7835(6) 0.4240(7) 0.9269(3)
C26A C -0.7923(4) 0.3630(7) 0.9408(3)
H26A H -0.8223 0.3542 0.9617
C27A C -0.7524(4) 0.3088(5) 0.9220(3)
C28A C -0.7090(4) 0.3250(5) 0.8901(2)
C29A C -0.7039(4) 0.3909(6) 0.8781(3)
C30A C -0.7431(5) 0.4361(6) 0.8967(3)
H27A H -0.7413 0.4802 0.8872
C31A C -0.7589(6) 0.2339(7) 0.9362(4)
H28A H -0.7513 0.2048 0.9129
H29A H -0.8054 0.2263 0.9449
H30A H -0.7241 0.2248 0.9593
C32A C -0.6621(6) 0.4105(5) 0.8410(3)
H31A H -0.6688 0.4575 0.8350
H32A H -0.6786 0.3847 0.8165
H33A H -0.6127 0.4018 0.8482
C33A C -0.2096(6) 0.2396(6) 0.9367(3)
C34A C -0.2299(4) 0.1677(7) 0.9310(3)
H34A H -0.2345 0.1565 0.9008
C35A C -0.1750(6) 0.1217(10) 0.9546(5)
H35A H -0.1288 0.1321 0.9463
H36A H -0.1863 0.0757 0.9478
H37A H -0.1755 0.1283 0.9845
C36A C -0.3583(5) 0.1643(5) 0.9286(3)
C37A C -0.4135(5) 0.1383(5) 0.9429(3)
H38A H -0.4084 0.1114 0.9670
C38A C -0.4797(4) 0.1497(5) 0.9232(3)
C39A C -0.4863(4) 0.1946(4) 0.8892(2)
C40A C -0.4267(5) 0.2219(5) 0.8741(2)
C41A C -0.3608(5) 0.2056(6) 0.8937(3)
H39A H -0.3196 0.2221 0.8838
C42A C -0.5439(5) 0.1175(6) 0.9408(3)
H40A H -0.5760 0.1015 0.9178
H41A H -0.5674 0.1502 0.9567
H42A H -0.5287 0.0806 0.9588
C43A C -0.4343(5) 0.2714(5) 0.8341(3)
H43A H -0.4013 0.3078 0.8387
H44A H -0.4817 0.2890 0.8305
H45A H -0.4246 0.2472 0.8091
C44A C -0.6862(5) 0.0596(4) 0.7307(2)
C45A C -0.7536(4) 0.0731(4) 0.7145(2)
H46A H -0.7744 0.0478 0.6921
C46A C -0.7905(4) 0.1239(4) 0.7312(2)
C47A C -0.7627(4) 0.1651(5) 0.7646(2)
C48A C -0.8009(4) 0.2134(5) 0.7848(2)
H47A H -0.8481 0.2205 0.7751
C49A C -0.7727(4) 0.2495(4) 0.8170(2)
H48A H -0.7994 0.2829 0.8284
C50A C -0.7001(3) 0.2374(4) 0.8347(2)
C51A C -0.6693(4) 0.2737(4) 0.8713(2)
C52A C -0.6007(4) 0.2587(5) 0.8855(2)
H49A H -0.5796 0.2835 0.9081
C53A C -0.5589(4) 0.2073(4) 0.8680(2)
C54A C -0.5880(4) 0.1737(4) 0.8334(2)
C55A C -0.5518(4) 0.1222(4) 0.8144(2)
H50A H -0.5055 0.1128 0.8249
C56A C -0.5809(4) 0.0856(4) 0.7816(3)
H51A H -0.5544 0.0524 0.7698
C57A C -0.6536(4) 0.0979(4) 0.7645(2)
C58A C -0.6911(4) 0.1467(4) 0.7804(2)
C59A C -0.6596(4) 0.1888(4) 0.8164(2)
C89A C -0.8977(9) 0.5389(10) 0.9842(4)
H76A H -0.9025 0.5444 1.0139
H77A H -0.9427 0.5461 0.9685
H78A H -0.8641 0.5708 0.9755
Zn1B Zn -0.14181(5) 0.35897(8) 0.90850(3)
Zn1B_2 Zn 0.85819(5) 0.35897(8) -0.09150(3)
Zn1C Zn -0.85819(5) 0.35897(8) 1.09150(3)
Zn1C_2 Zn 0.14181(5) 0.35897(8) 0.09150(3)
Zn2B Zn -0.3561(3) 0.5889(3) 0.67478(12)
Zn2C Zn 0.3561(3) 0.5889(3) 0.32522(12)
O5B O -0.3328(4) -0.2400(5) 0.5896(2)
O5C O 0.3328(4) -0.2400(5) 0.4104(2)
O7B O 0.3828(5) -0.1008(5) 0.4649(3)
O7C O -0.3828(5) -0.1008(5) 0.5351(3)
O17B O -1.2155(6) 0.0540(6) 0.8461(3)
O17C O 1.2155(6) 0.0540(6) 0.1539(3)
N1 N 0.1557(5) 0.8670(8) 0.4630(3)
H83 H 0.1723 0.8258 0.4684
H84 H 0.1881 0.8909 0.4510
C93 C 0.1346(7) 0.8989(11) 0.5013(4)
H85 H 0.1464 0.8701 0.5251
H86 H 0.0845 0.9068 0.4983
H87 H 0.1591 0.9409 0.5057
C94 C 0.0860(8) 0.8646(12) 0.4348(4)
H88 H 0.0955 0.8548 0.4062
H89 H 0.0626 0.9073 0.4356
H90 H 0.0561 0.8303 0.4447
loop_
_geom_bond_atom_site_label_1
_geom_bond_atom_site_label_2
_geom_bond_site_symmetry_1
_geom_bond_site_symmetry_2
Zn1 O2 1_555 1_555
Zn2 O10 1_555 1_555
O1 C1 1_555 1_555
O2 C1 1_555 1_555
O3 C2 1_555 1_555
O4 C33 1_555 1_555
O5 C33 1_555 1_555
O6 C34 1_555 1_555
O7 C23 1_555 1_555
O8 C23 1_555 1_555
O9 C24 1_555 1_555
O10 C12 1_555 1_555
O11 C12 1_555 1_555
O12 C13 1_555 1_555
O13 Zn1 1_555 1_555
O14 C60 1_555 1_555
O15 C61 1_555 1_555
O16 C91 1_555 1_555
O17 C91 1_555 1_555
O18 C84 1_555 1_555
O19 Zn2 1_555 1_555
O20 Zn2 1_555 1_555
C1 C2 1_555 1_555
C2 H1 1_555 1_555
C3 C2 1_555 1_555
H2 C3 1_555 1_555
H3 C3 1_555 1_555
H4 C3 1_555 1_555
C4 O3 1_555 1_555
C5 C4 1_555 1_555
H5 C5 1_555 1_555
C6 C5 1_555 1_555
C7 C6 1_555 1_555
C8 C7 1_555 1_555
C9 C4 1_555 1_555
H6 C9 1_555 1_555
C10 C6 1_555 1_555
H7 C10 1_555 1_555
H8 C10 1_555 1_555
H9 C10 1_555 1_555
C11 C8 1_555 1_555
H10 C11 1_555 1_555
H11 C11 1_555 1_555
H12 C11 1_555 1_555
C12 C13 1_555 1_555
C13 H13 1_555 1_555
C14 C13 1_555 1_555
H14 C14 1_555 1_555
H15 C14 1_555 1_555
H16 C14 1_555 1_555
C15 O12 1_555 1_555
C16 C15 1_555 1_555
H17 C16 1_555 1_555
C17 C16 1_555 1_555
C18 C17 1_555 1_555
C19 C18 1_555 1_555
C20 C15 1_555 1_555
H18 C20 1_555 1_555
C21 C17 1_555 1_555
H19 C21 1_555 1_555
H20 C21 1_555 1_555
H21 C21 1_555 1_555
C22 C19 1_555 1_555
H22 C22 1_555 1_555
H23 C22 1_555 1_555
H24 C22 1_555 1_555
C23 C24 1_555 1_555
C24 H25 1_555 1_555
C25 O9 1_555 1_555
C26 C25 1_555 1_555
H26 C26 1_555 1_555
C27 C26 1_555 1_555
C28 C27 1_555 1_555
C29 C28 1_555 1_555
C30 C25 1_555 1_555
H27 C30 1_555 1_555
C31 C27 1_555 1_555
H28 C31 1_555 1_555
H29 C31 1_555 1_555
H30 C31 1_555 1_555
C32 C29 1_555 1_555
H31 C32 1_555 1_555
H32 C32 1_555 1_555
H33 C32 1_555 1_555
C33 C34 1_555 1_555
C34 H34 1_555 1_555
C35 C34 1_555 1_555
H35 C35 1_555 1_555
H36 C35 1_555 1_555
H37 C35 1_555 1_555
C36 O6 1_555 1_555
C37 C36 1_555 1_555
H38 C37 1_555 1_555
C38 C37 1_555 1_555
C39 C38 1_555 1_555
C40 C39 1_555 1_555
C41 C36 1_555 1_555
H39 C41 1_555 1_555
C42 C38 1_555 1_555
H40 C42 1_555 1_555
H41 C42 1_555 1_555
H42 C42 1_555 1_555
C43 C40 1_555 1_555
H43 C43 1_555 1_555
H44 C43 1_555 1_555
H45 C43 1_555 1_555
C44 C7 1_555 1_555
C45 C44 1_555 1_555
H46 C45 1_555 1_555
C46 C18 1_555 1_555
C47 C46 1_555 1_555
C48 C47 1_555 1_555
H47 C48 1_555 1_555
C49 C48 1_555 1_555
H48 C49 1_555 1_555
C50 C49 1_555 1_555
C51 C28 1_555 1_555
C52 C51 1_555 1_555
H49 C52 1_555 1_555
C53 C39 1_555 1_555
C54 C53 1_555 1_555
C55 C54 1_555 1_555
H50 C55 1_555 1_555
C56 C55 1_555 1_555
H51 C56 1_555 1_555
C57 C44 1_555 1_555
C58 C47 1_555 1_555
C59 C50 1_555 1_555
C60 O13 1_555 1_555
C61 C60 1_555 1_555
H52 C61 1_555 1_555
C62 C61 1_555 1_555
H53 C62 1_555 1_555
H54 C62 1_555 1_555
H55 C62 1_555 1_555
C63 O15 1_555 1_555
C64 C63 1_555 1_555
H56 C64 1_555 1_555
C65 C64 1_555 1_555
C66 C65 1_555 1_555
C67 C66 1_555 1_555
C68 C63 1_555 1_555
H57 C68 1_555 1_555
C69 H58 1_555 1_555
C70 C66 1_555 1_555
C71 C67 1_555 1_555
H59 C71 1_555 1_555
H60 C71 1_555 1_555
H61 C71 1_555 1_555
C72 C65 1_555 1_555
H62 C72 1_555 1_555
H63 C72 1_555 1_555
H64 C72 1_555 1_555
C73 C70 1_555 1_555
C74 C73 1_555 1_555
C75 C74 1_555 1_555
C76 C75 1_555 1_555
C77 C76 1_555 1_555
H65 C77 1_555 1_555
C78 C73 1_555 1_555
H66 C78 1_555 1_555
C79 H67 1_555 1_555
C80 C76 1_555 1_555
C81 C80 1_555 1_555
C82 C81 1_555 1_555
C83 C82 1_555 1_555
H68 C83 1_555 1_555
C84 C83 1_555 1_555
C85 C84 1_555 1_555
H69 C85 1_555 1_555
C86 C81 1_555 1_555
C87 C86 1_555 1_555
H70 C87 1_555 1_555
H71 C87 1_555 1_555
H72 C87 1_555 1_555
C88 C82 1_555 1_555
H73 C88 1_555 1_555
H74 C88 1_555 1_555
H75 C88 1_555 1_555
C89 C24 1_555 1_555
H76 C89 1_555 1_555
H77 C89 1_555 1_555
H78 C89 1_555 1_555
C90 H79 1_555 1_555
H80 C90 1_555 1_555
H81 C90 1_555 1_555
C91 C92 1_555 1_555
C92 O18 1_555 1_555
H82 C92 1_555 1_555
N1 H83 1_555 1_555
H84 N1 1_555 1_555
C93 N1 1_555 1_555
H85 C93 1_555 1_555
H86 C93 1_555 1_555
H87 C93 1_555 1_555
C94 N1 1_555 1_555
H88 C94 1_555 1_555
H89 C94 1_555 1_555
H90 C94 1_555 1_555
O13A C60A 1_555 1_555
O14A C60A 1_555 1_555
O15A C61A 1_555 1_555
O16A C91A 1_555 1_555
O17A C91A 1_555 1_555
O18A C84A 1_555 1_555
C60A C61A 1_555 1_555
C61A H52A 1_555 1_555
C62A C61A 1_555 1_555
H53A C62A 1_555 1_555
H54A C62A 1_555 1_555
H55A C62A 1_555 1_555
C63A O15A 1_555 1_555
C64A C63A 1_555 1_555
H56A C64A 1_555 1_555
C65A C64A 1_555 1_555
C66A C65A 1_555 1_555
C67A C66A 1_555 1_555
C68A C63A 1_555 1_555
H57A C68A 1_555 1_555
C70A C69 1_555 1_555
C71A C67A 1_555 1_555
H59A C71A 1_555 1_555
H60A C71A 1_555 1_555
H61A C71A 1_555 1_555
C72A C65A 1_555 1_555
H62A C72A 1_555 1_555
H63A C72A 1_555 1_555
H64A C72A 1_555 1_555
C73A C74 1_555 1_555
C76A C75 1_555 1_555
C77A C76A 1_555 1_555
H65A C77A 1_555 1_555
C78A C73A 1_555 1_555
H66A C78A 1_555 1_555
C80A C79 1_555 1_555
C81A C80A 1_555 1_555
C82A C81A 1_555 1_555
C83A C82A 1_555 1_555
H68A C83A 1_555 1_555
C84A C83A 1_555 1_555
C85A C84A 1_555 1_555
H69A C85A 1_555 1_555
C86A C81A 1_555 1_555
C87A C86A 1_555 1_555
H70A C87A 1_555 1_555
H71A C87A 1_555 1_555
H72A C87A 1_555 1_555
C88A C82A 1_555 1_555
H73A C88A 1_555 1_555
H74A C88A 1_555 1_555
H75A C88A 1_555 1_555
C90A H79A 1_555 1_555
H80A C90A 1_555 1_555
H81A C90A 1_555 1_555
C91A C92A 1_555 1_555
C92A O18A 1_555 1_555
H82A C92A 1_555 1_555
Zn1A O13A 1_555 1_555
Zn2A O10A 1_555 1_555
O1A C1A 1_555 1_555
O2A Zn1A 1_555 1_555
O3A C2A 1_555 1_555
O4A C33A 1_555 1_555
O5A C33A 1_555 1_555
O6A C34A 1_555 1_555
O7A C23A 1_555 1_555
O8A C23A 1_555 1_555
O9A C24A 1_555 1_555
O10A C12A 1_555 1_555
O11A C12A 1_555 1_555
O12A C13A 1_555 1_555
O19A Zn2A 1_555 1_555
O20A Zn2A 1_555 1_555
C1A O2A 1_555 1_555
C2A C1A 1_555 1_555
H1A C2A 1_555 1_555
C3A C2A 1_555 1_555
H2A C3A 1_555 1_555
H3A C3A 1_555 1_555
H4A C3A 1_555 1_555
C4A O3A 1_555 1_555
C5A C4A 1_555 1_555
H5A C5A 1_555 1_555
C6A C5A 1_555 1_555
C7A C6A 1_555 1_555
C8A C7A 1_555 1_555
C9A C4A 1_555 1_555
H6A C9A 1_555 1_555
C10A C6A 1_555 1_555
H7A C10A 1_555 1_555
H8A C10A 1_555 1_555
H9A C10A 1_555 1_555
C11A C8A 1_555 1_555
H10A C11A 1_555 1_555
H11A C11A 1_555 1_555
H12A C11A 1_555 1_555
C12A C13A 1_555 1_555
C13A H13A 1_555 1_555
C14A C13A 1_555 1_555
H14A C14A 1_555 1_555
H15A C14A 1_555 1_555
H16A C14A 1_555 1_555
C15A O12A 1_555 1_555
C16A C15A 1_555 1_555
H17A C16A 1_555 1_555
C17A C16A 1_555 1_555
C18A C17A 1_555 1_555
C19A C18A 1_555 1_555
C20A C15A 1_555 1_555
H18A C20A 1_555 1_555
C21A C17A 1_555 1_555
H19A C21A 1_555 1_555
H20A C21A 1_555 1_555
H21A C21A 1_555 1_555
C22A C19A 1_555 1_555
H22A C22A 1_555 1_555
H23A C22A 1_555 1_555
H24A C22A 1_555 1_555
C23A C24A 1_555 1_555
C24A H25A 1_555 1_555
C25A O9A 1_555 1_555
C26A C25A 1_555 1_555
H26A C26A 1_555 1_555
C27A C26A 1_555 1_555
C28A C27A 1_555 1_555
C29A C28A 1_555 1_555
C30A C25A 1_555 1_555
H27A C30A 1_555 1_555
C31A C27A 1_555 1_555
H28A C31A 1_555 1_555
H29A C31A 1_555 1_555
H30A C31A 1_555 1_555
C32A C29A 1_555 1_555
H31A C32A 1_555 1_555
H32A C32A 1_555 1_555
H33A C32A 1_555 1_555
C33A C34A 1_555 1_555
C34A H34A 1_555 1_555
C35A C34A 1_555 1_555
H35A C35A 1_555 1_555
H36A C35A 1_555 1_555
H37A C35A 1_555 1_555
C36A O6A 1_555 1_555
C37A C36A 1_555 1_555
H38A C37A 1_555 1_555
C38A C37A 1_555 1_555
C39A C38A 1_555 1_555
C40A C39A 1_555 1_555
C41A C36A 1_555 1_555
H39A C41A 1_555 1_555
C42A C38A 1_555 1_555
H40A C42A 1_555 1_555
H41A C42A 1_555 1_555
H42A C42A 1_555 1_555
C43A C40A 1_555 1_555
H43A C43A 1_555 1_555
H44A C43A 1_555 1_555
H45A C43A 1_555 1_555
C44A C7A 1_555 1_555
C45A C44A 1_555 1_555
H46A C45A 1_555 1_555
C46A C18A 1_555 1_555
C47A C46A 1_555 1_555
C48A C47A 1_555 1_555
H47A C48A 1_555 1_555
C49A C48A 1_555 1_555
H48A C49A 1_555 1_555
C50A C49A 1_555 1_555
C51A C28A 1_555 1_555
C52A C51A 1_555 1_555
H49A C52A 1_555 1_555
C53A C39A 1_555 1_555
C54A C53A 1_555 1_555
C55A C54A 1_555 1_555
H50A C55A 1_555 1_555
C56A C55A 1_555 1_555
H51A C56A 1_555 1_555
C57A C44A 1_555 1_555
C58A C47A 1_555 1_555
C59A C50A 1_555 1_555
C89A C24A 1_555 1_555
H76A C89A 1_555 1_555
H77A C89A 1_555 1_555
H78A C89A 1_555 1_555
Zn1B O5A 1_555 1_555
Zn1B_2 O7 1_555 1_555
Zn1C O7A 1_555 1_555
Zn1C_2 O5 1_555 1_555
Zn2B O17A 1_555 1_555
Zn2C O17 1_555 1_555
O5B Zn1A 1_555 1_555
O5C Zn1 1_555 1_555
O7B Zn1 1_555 1_555
O7C Zn1A 1_555 1_555
O17B Zn2A 1_555 1_555
O17C Zn2 1_555 1_555
C8 C9 1_555 1_555
C19 C20 1_555 1_555
C29 C30 1_555 1_555
C40 C41 1_555 1_555
C45 C46 1_555 1_555
C50 C51 1_555 1_555
C52 C53 1_555 1_555
C54 C59 1_555 1_555
C56 C57 1_555 1_555
C57 C58 1_555 1_555
C58 C59 1_555 1_555
C67 C68 1_555 1_555
C69 C70 1_555 1_555
C77 C78 1_555 1_555
C79 C80 1_555 1_555
C85 C86 1_555 1_555
C90 C92 1_555 1_555
C66A C70A 1_555 1_555
C67A C68A 1_555 1_555
C70A C73A 1_555 1_555
C76A C80A 1_555 1_555
C77A C78A 1_555 1_555
C85A C86A 1_555 1_555
C90A C92A 1_555 1_555
C8A C9A 1_555 1_555
C19A C20A 1_555 1_555
C29A C30A 1_555 1_555
C40A C41A 1_555 1_555
C45A C46A 1_555 1_555
C50A C51A 1_555 1_555
C52A C53A 1_555 1_555
C54A C59A 1_555 1_555
C56A C57A 1_555 1_555
C57A C58A 1_555 1_555
C58A C59A 1_555 1_555

#END
