
#######################################################################
#
#                 Cambridge Crystallographic Data Centre
#                                CCDC 
#
#######################################################################
#
# If this CIF has been generated from an entry in the Cambridge 
# Structural Database, then it will include bibliographic, chemical, 
# crystal, experimental, refinement or atomic coordinate data resulting 
# from the CCDC's data processing and validation procedures.
#
#######################################################################

data_RIDDUE
_chemical_formula_moiety         '(C14 H8 Co3 N6 O6)n'
_symmetry_cell_setting           monoclinic
_symmetry_space_group_name_H-M   'C 2/c'
_symmetry_Int_Tables_number      15
_space_group_name_Hall           '-C 2yc'
loop_
_symmetry_equiv_pos_site_id
_symmetry_equiv_pos_as_xyz
1 x,y,z
2 1/2+x,1/2+y,z
3 -x,y,1/2-z
4 1/2-x,1/2+y,1/2-z
5 -x,-y,-z
6 1/2-x,1/2-y,-z
7 x,-y,1/2+z
8 1/2+x,1/2-y,1/2+z
_cell_length_a                   18.157(11)
_cell_length_b                   12.116(7)
_cell_length_c                   11.046(7)
_cell_angle_alpha                90
_cell_angle_beta                 94.983(10)
_cell_angle_gamma                90
_cell_volume                     2420.83
loop_
_atom_site_label
_atom_site_type_symbol
_atom_site_fract_x
_atom_site_fract_y
_atom_site_fract_z
Co1 Co 0.5000 0.10142(8) 0.2500
Co2 Co 0.57530(4) 0.06919(6) -0.00762(6)
O1 O 0.47895(16) 0.0831(3) 0.0678(3)
H1 H 0.4544 0.1394 0.0375
N1 N 0.8713(2) 0.4417(4) 0.1652(4)
O2 O 0.6310(2) 0.2062(3) 0.0593(3)
O3 O 0.57840(19) 0.2257(3) 0.2337(3)
N2 N 0.9094(2) 0.4897(4) 0.2587(3)
C1 C 0.8094(3) 0.3965(5) 0.2078(4)
N3 N 0.8761(2) 0.4802(4) 0.3606(3)
C2 C 0.7498(3) 0.3381(5) 0.1505(5)
H2 H 0.7472 0.3226 0.0678
C3 C 0.6302(3) 0.2416(5) 0.1685(5)
C4 C 0.8127(3) 0.4216(5) 0.3323(4)
C5 C 0.6952(3) 0.3044(5) 0.2209(5)
C6 C 0.7580(3) 0.3864(5) 0.4044(5)
H3 H 0.7604 0.4020 0.4870
C7 C 0.7010(3) 0.3283(5) 0.3481(5)
H4 H 0.6641 0.3029 0.3944
Co1A Co 1.0000 0.60142(8) 0.2500
Co1A_2 Co 0.0000 0.60142(8) 0.2500
Co2B Co 0.42470(4) 0.06919(6) 0.50762(6)
Co2D Co 0.42470(4) -0.06919(6) 0.00762(6)
Co2E Co 0.92470(4) 0.43081(6) 0.00762(6)
Co2C Co 0.92470(4) 0.56919(6) 0.50762(6)
Co2F Co 0.57530(4) -0.06919(6) 0.49238(6)
Co2G Co 0.07530(4) 0.43081(6) 0.49238(6)
Co2A Co 0.07530(4) 0.56919(6) -0.00762(6)
O1B O 0.52105(16) 0.0831(3) 0.4322(3)
O1D O 0.52105(16) -0.0831(3) -0.0678(3)
O1F O 0.47895(16) -0.0831(3) 0.5678(3)
H1B H 0.5456 0.1394 0.4625
H1D H 0.5456 -0.1394 -0.0375
H1F H 0.4544 -0.1394 0.5375
N1B N 0.1287(2) 0.4417(4) 0.3348(4)
N1E N 0.6287(2) 0.0583(4) -0.1652(4)
N1G N 0.3713(2) 0.0583(4) 0.6652(4)
O2B O 0.3690(2) 0.2062(3) 0.4407(3)
O3B O 0.42160(19) 0.2257(3) 0.2663(3)
N2B N 0.0906(2) 0.4897(4) 0.2413(3)
N2A N 0.4094(2) -0.0103(4) 0.2587(3)
N2C N 0.5906(2) -0.0103(4) 0.2413(3)
C1B C 0.1906(3) 0.3965(5) 0.2922(4)
N3B N 0.1239(2) 0.4802(4) 0.1394(3)
N3C N 0.6239(2) -0.0198(4) 0.1394(3)
N3A N 0.3761(2) -0.0198(4) 0.3606(3)
C2B C 0.2502(3) 0.3381(5) 0.3495(5)
H2B H 0.2528 0.3226 0.4322
C3B C 0.3698(3) 0.2416(5) 0.3315(5)
C4B C 0.1873(3) 0.4216(5) 0.1677(4)
C5B C 0.3048(3) 0.3044(5) 0.2791(5)
C6B C 0.2420(3) 0.3864(5) 0.0956(5)
H3B H 0.2396 0.4020 0.0130
C7B C 0.2990(3) 0.3283(5) 0.1519(5)
H4B H 0.3359 0.3029 0.1056
loop_
_geom_bond_atom_site_label_1
_geom_bond_atom_site_label_2
_geom_bond_site_symmetry_1
_geom_bond_site_symmetry_2
Co1 O1 1_555 1_555
Co2 O1 1_555 1_555
O1 H1 1_555 1_555
N1 N2 1_555 1_555
O2 Co2 1_555 1_555
O3 Co1 1_555 1_555
N2 N3 1_555 1_555
C1 N1 1_555 1_555
N3 C4 1_555 1_555
C2 C1 1_555 1_555
H2 C2 1_555 1_555
C3 O2 1_555 1_555
C4 C1 1_555 1_555
C5 C2 1_555 1_555
C6 C4 1_555 1_555
H3 C6 1_555 1_555
C7 C5 1_555 1_555
H4 C7 1_555 1_555
Co1A N2 1_555 1_555
Co1A_2 N2B 1_555 1_555
Co2B O1B 1_555 1_555
Co2D O1 1_555 1_555
Co2E N1 1_555 1_555
Co2C N3 1_555 1_555
Co2F O1B 1_555 1_555
Co2G N1B 1_555 1_555
Co2A N3B 1_555 1_555
O1B Co1 1_555 1_555
O1D Co2 1_555 1_555
O1F Co2B 1_555 1_555
H1B O1B 1_555 1_555
H1D O1D 1_555 1_555
H1F O1F 1_555 1_555
N1B N2B 1_555 1_555
N1E Co2 1_555 1_555
N1G Co2B 1_555 1_555
O2B Co2B 1_555 1_555
O3B Co1 1_555 1_555
N2B N3B 1_555 1_555
N2A Co1 1_555 1_555
N2C Co1 1_555 1_555
C1B N1B 1_555 1_555
N3B C4B 1_555 1_555
N3C Co2 1_555 1_555
N3A Co2B 1_555 1_555
C2B C1B 1_555 1_555
H2B C2B 1_555 1_555
C3B O2B 1_555 1_555
C4B C1B 1_555 1_555
C5B C2B 1_555 1_555
C6B C4B 1_555 1_555
H3B C6B 1_555 1_555
C7B C5B 1_555 1_555
H4B C7B 1_555 1_555
O3 C3 1_555 1_555
C3 C5 1_555 1_555
C6 C7 1_555 1_555
Co2D O1D 1_555 1_555
Co2F O1F 1_555 1_555
O3B C3B 1_555 1_555
N2A N3A 1_555 1_555
N2C N3C 1_555 1_555
C3B C5B 1_555 1_555
C6B C7B 1_555 1_555

#END
