
#######################################################################
#
#                 Cambridge Crystallographic Data Centre
#                                CCDC 
#
#######################################################################
#
# If this CIF has been generated from an entry in the Cambridge 
# Structural Database, then it will include bibliographic, chemical, 
# crystal, experimental, refinement or atomic coordinate data resulting 
# from the CCDC's data processing and validation procedures.
#
#######################################################################

data_EQUCOI
_chemical_formula_moiety         '(C4 H28 N4 O37 P8 Sc6 4-)n'
_symmetry_cell_setting           monoclinic
_symmetry_space_group_name_H-M   'P 21/n'
_symmetry_Int_Tables_number      14
_space_group_name_Hall           '-P 2yn'
loop_
_symmetry_equiv_pos_site_id
_symmetry_equiv_pos_as_xyz
1 x,y,z
2 1/2+x,1/2-y,1/2+z
3 -x,-y,-z
4 1/2-x,1/2+y,1/2-z
_cell_length_a                   8.603(2)
_cell_length_b                   15.476(3)
_cell_length_c                   16.504(4)
_cell_angle_alpha                90
_cell_angle_beta                 96.877(5)
_cell_angle_gamma                90
_cell_volume                     2181.53
loop_
_atom_site_label
_atom_site_type_symbol
_atom_site_fract_x
_atom_site_fract_y
_atom_site_fract_z
Sc1 Sc 0.63355(8) 0.79805(4) 0.16364(4)
Sc2 Sc 0.49585(8) 0.89323(4) 0.52210(4)
Sc3 Sc 1.02152(8) 0.76914(4) 0.29943(4)
P1 P 0.22760(11) 0.76200(6) 0.13355(6)
P2 P 0.76411(10) 0.78366(6) -0.02400(5)
P3 P 0.81649(11) 0.60698(6) 0.19758(5)
P4 P 0.66826(11) 0.79002(6) 0.37165(5)
O1 O 0.3708(2) 0.99391(13) 0.45826(12)
O2 O 0.6035(3) 0.86154(17) 0.42101(16)
O3 O 0.8147(3) 0.68918(17) -0.01040(16)
O4 O 0.5880(3) 0.79072(19) 0.28426(16)
O5 O 0.6605(3) 0.81028(17) 0.04101(16)
O6 O 0.9075(3) 0.57373(18) 0.13045(16)
O7 O 0.1546(3) 0.68584(18) 0.08558(17)
O8 O 0.8462(3) 0.79337(19) 0.37542(16)
O9 O 1.1036(3) 0.88146(15) 0.33821(15)
O10 O 0.8665(3) 0.81877(15) 0.20413(13)
O11 O 0.5942(3) 0.92567(15) 0.17168(14)
O12 O 0.9246(3) 0.64688(17) 0.26745(16)
O13 O 0.6684(3) 0.79455(17) -0.10823(16)
O14 O 0.4025(3) 0.7650(2) 0.12961(17)
O15 O 0.9091(3) 0.84227(18) -0.01837(17)
O16 O 0.6354(3) 0.69990(18) 0.40934(18)
H1 H 0.5453 0.6987 0.4209
O17 O 0.6832(3) 0.66644(17) 0.16491(16)
O18 O 0.1930(3) 0.7606(2) 0.22181(17)
O19 O 0.1600(4) 0.84756(19) 0.0925(2)
H2 H 0.0755 0.8375 0.0656
O20 O 0.7298(3) 0.52811(19) 0.23276(18)
H3 H 0.7945 0.4956 0.2573
Sc2A Sc 0.99585(8) 0.60677(4) 0.02210(4)
Sc3A Sc 0.52152(8) 0.73086(4) -0.20057(4)
O1B O 0.6292(2) 1.00609(13) 0.54174(12)
P2A P 0.26411(10) 0.71634(6) 0.47600(5)
O3A O 0.3147(3) 0.81082(17) 0.48960(16)
O5A O 0.1605(3) 0.68972(17) 0.54101(16)
O13A O 0.1684(3) 0.70545(17) 0.39177(16)
O15A O 0.4091(3) 0.65773(18) 0.48163(17)
P3A P 0.31649(11) 0.89302(6) 0.69758(5)
O6A O 0.4075(3) 0.92627(18) 0.63045(16)
O12A O 0.4246(3) 0.85312(17) 0.76745(16)
O17A O 0.1832(3) 0.83356(17) 0.66491(16)
O20A O 0.2298(3) 0.97189(19) 0.73276(18)
H3A H 0.2945 1.0044 0.7573
P1A P 0.72760(11) 0.73800(6) 0.63355(6)
O7A O 0.6546(3) 0.81416(18) 0.58558(17)
O14A O 0.9025(3) 0.7350(2) 0.62961(17)
O18A O 0.6930(3) 0.7394(2) 0.72181(17)
O19A O 0.6600(4) 0.65244(19) 0.5925(2)
H2A H 0.5755 0.6625 0.5656
P4A P 1.16826(11) 0.70998(6) -0.12835(5)
O2A O 1.1035(3) 0.63846(17) -0.07899(16)
O4A O 1.0880(3) 0.70928(19) -0.21574(16)
O8A O 1.3462(3) 0.70663(19) -0.12458(16)
O16A O 1.1354(3) 0.80010(18) -0.09066(18)
H1A H 1.0453 0.8013 -0.0791
O9A O 0.6036(3) 0.61854(15) -0.16179(15)
O10A O 0.3665(3) 0.68123(15) -0.29587(13)
Sc1A Sc 1.13355(8) 0.70195(4) -0.33636(4)
O11A O 1.0942(3) 0.57433(15) -0.32832(14)
O13A_2 O 1.1684(3) 0.70545(17) 0.39177(16)
O18_2 O 1.1930(3) 0.7606(2) 0.22181(17)
Sc2B Sc 0.50415(8) 1.10677(4) 0.47790(4)
Sc2A_2 Sc -0.00415(8) 0.60677(4) 0.02210(4)
Sc3_2 Sc 0.02152(8) 0.76914(4) 0.29943(4)
O1A O 0.8708(2) 0.50609(13) -0.04174(12)
O1C O 1.1292(2) 0.49391(13) 0.04174(12)
O7_2 O 1.1546(3) 0.68584(18) 0.08558(17)
O8A_2 O 0.3462(3) 0.70663(19) -0.12458(16)
O12A_2 O 0.4246(3) 0.85312(17) -0.23255(16)
O18A_2 O 0.6930(3) 0.7394(2) -0.27819(17)
Sc1A_2 Sc 0.13355(8) 0.70195(4) 0.66364(4)
Sc3A_2 Sc 0.52152(8) 0.73086(4) 0.79943(4)
Sc1A_3 Sc 1.13355(8) 0.70195(4) 0.66364(4)
Sc3A_3 Sc 1.52152(8) 0.73086(4) -0.20057(4)
Sc1A_4 Sc 0.13355(8) 0.70195(4) -0.33636(4)
O5A_2 O 1.1605(3) 0.68972(17) -0.45899(16)
O10A_2 O 1.3665(3) 0.68123(15) -0.29587(13)
O14A_2 O 0.9025(3) 0.7350(2) -0.37039(17)
O17A_2 O 1.1832(3) 0.83356(17) -0.33509(16)
N1 N 1.3647(4) 0.9423(2) 0.2903(2)
H4 H 1.4241 0.9735 0.3273
H5 H 1.4247 0.9053 0.2668
H6 H 1.294 0.9131 0.3146
N2 N 1.0927(5) 1.1187(3) 0.2078(3)
H7 H 1.1659 1.1492 0.1868
H8 H 1.0326 1.154 0.2331
H9 H 1.034 1.091 0.1679
C2 C 1.2841(5) 1.0002(3) 0.2278(3)
H15 H 1.2297 0.9664 0.1837
H16 H 1.3598 1.0368 0.2054
C3 C 1.1683(6) 1.0552(3) 0.2670(3)
H17 H 1.089 1.0184 0.2861
H18 H 1.2221 1.0854 0.3136
N3 N 0.9038(5) 0.5948(3) 0.4442(3)
H10 H 0.8074 0.6162 0.4424
H11 H 0.9211 0.5785 0.3943
H12 H 0.973 0.6352 0.4624
C1 C 0.9204(5) 0.5197(3) 0.4994(3)
H13 H 0.9046 0.5377 0.5541
H14 H 0.8411 0.477 0.4814
C1B C 1.0796(5) 0.4803(3) 0.5006(3)
N3B N 1.0962(5) 0.4052(3) 0.5558(3)
H10B H 1.1926 0.3838 0.5576
H11B H 1.0789 0.4215 0.6057
H12B H 1.027 0.3648 0.5376
H13B H 1.0954 0.4623 0.4459
H14B H 1.1589 0.523 0.5186
O21 O 0.5782(6) 0.4906(3) 0.3939(4)
loop_
_geom_bond_atom_site_label_1
_geom_bond_atom_site_label_2
_geom_bond_site_symmetry_1
_geom_bond_site_symmetry_2
Sc1 O4 1_555 1_555
Sc2 O1 1_555 1_555
Sc3 O8 1_555 1_555
P1 O7 1_555 1_555
P2 O3 1_555 1_555
P3 O6 1_555 1_555
P4 O2 1_555 1_555
O1 Sc2B 1_555 1_555
O2 Sc2 1_555 1_555
O3 Sc2A 1_555 1_555
O4 P4 1_555 1_555
O5 Sc1 1_555 1_555
O6 Sc2A 1_555 1_555
O7 Sc2A_2 1_555 1_555
O8 P4 1_555 1_555
O9 Sc3 1_555 1_555
O10 Sc1 1_555 1_555
O11 Sc1 1_555 1_555
O12 Sc3 1_555 1_555
O13 P2 1_555 1_555
O14 Sc1 1_555 1_555
O15 P2 1_555 1_555
O16 P4 1_555 1_555
H1 O16 1_555 1_555
O17 Sc1 1_555 1_555
O18 P1 1_555 1_555
O19 P1 1_555 1_555
H2 O19 1_555 1_555
O20 P3 1_555 1_555
H3 O20 1_555 1_555
N1 H4 1_555 1_555
H5 N1 1_555 1_555
H6 N1 1_555 1_555
N2 H7 1_555 1_555
H8 N2 1_555 1_555
H9 N2 1_555 1_555
N3 H10 1_555 1_555
H11 N3 1_555 1_555
H12 N3 1_555 1_555
C1 N3 1_555 1_555
H13 C1 1_555 1_555
H14 C1 1_555 1_555
C2 N1 1_555 1_555
H15 C2 1_555 1_555
H16 C2 1_555 1_555
C3 N2 1_555 1_555
H17 C3 1_555 1_555
H18 C3 1_555 1_555
C1B C1 1_555 1_555
N3B C1B 1_555 1_555
H10B N3B 1_555 1_555
H11B N3B 1_555 1_555
H12B N3B 1_555 1_555
H13B C1B 1_555 1_555
H14B C1B 1_555 1_555
Sc2A O2A 1_555 1_555
Sc3A O13 1_555 1_555
O1B Sc2 1_555 1_555
P2A O3A 1_555 1_555
O3A Sc2 1_555 1_555
O5A P2A 1_555 1_555
O13A P2A 1_555 1_555
O15A P2A 1_555 1_555
P3A O6A 1_555 1_555
O6A Sc2 1_555 1_555
O12A P3A 1_555 1_555
O17A P3A 1_555 1_555
O20A P3A 1_555 1_555
H3A O20A 1_555 1_555
P1A O7A 1_555 1_555
O7A Sc2 1_555 1_555
O14A P1A 1_555 1_555
O18A P1A 1_555 1_555
O19A P1A 1_555 1_555
H2A O19A 1_555 1_555
P4A O2A 1_555 1_555
O4A P4A 1_555 1_555
O8A P4A 1_555 1_555
O16A P4A 1_555 1_555
H1A O16A 1_555 1_555
O9A Sc3A 1_555 1_555
O10A Sc3A 1_555 1_555
Sc1A O4A 1_555 1_555
O11A Sc1A 1_555 1_555
O13A_2 Sc3 1_555 1_555
O18_2 Sc3 1_555 1_555
Sc2B O1B 1_555 1_555
Sc3_2 O18 1_555 1_555
O1A Sc2A 1_555 1_555
O1C Sc2A 1_555 1_555
O7_2 Sc2A 1_555 1_555
O8A_2 Sc3A 1_555 1_555
O12A_2 Sc3A 1_555 1_555
O18A_2 Sc3A 1_555 1_555
Sc1A_2 O5A 1_555 1_555
Sc3A_2 O12A 1_555 1_555
Sc1A_3 O14A 1_555 1_555
Sc3A_3 O8A 1_555 1_555
Sc1A_4 O10A 1_555 1_555
O5A_2 Sc1A 1_555 1_555
O10A_2 Sc1A 1_555 1_555
O14A_2 Sc1A 1_555 1_555
O17A_2 Sc1A 1_555 1_555
Sc3 O10 1_555 1_555
P1 O14 1_555 1_555
P2 O5 1_555 1_555
P3 O12 1_555 1_555
P3 O17 1_555 1_555
C2 C3 1_555 1_555
O13A Sc3_2 1_555 1_555
O17A Sc1A_2 1_555 1_555
O18A Sc3A_2 1_555 1_555
Sc3A_3 O10A_2 1_555 1_555

#END
