
#######################################################################
#
#                 Cambridge Crystallographic Data Centre
#                                CCDC 
#
#######################################################################
#
# If this CIF has been generated from an entry in the Cambridge 
# Structural Database, then it will include bibliographic, chemical, 
# crystal, experimental, refinement or atomic coordinate data resulting 
# from the CCDC's data processing and validation procedures.
#
#######################################################################

data_HEMVIF
_chemical_formula_moiety         'C4 H6 Co4 F1 N1 O10 P3'
_symmetry_cell_setting           tetragonal
_symmetry_space_group_name_H-M   'I -4 2 m'
_symmetry_Int_Tables_number      121
_space_group_name_Hall           'I -4 2'
loop_
_symmetry_equiv_pos_site_id
_symmetry_equiv_pos_as_xyz
1 x,y,z
2 -x,-y,z
3 y,-x,-z
4 -y,x,-z
5 -x,y,-z
6 x,-y,-z
7 -y,-x,z
8 y,x,z
9 1/2+x,1/2+y,1/2+z
10 1/2-x,1/2-y,1/2+z
11 1/2+y,1/2-x,1/2-z
12 1/2-y,1/2+x,1/2-z
13 1/2-x,1/2+y,1/2-z
14 1/2+x,1/2-y,1/2-z
15 1/2-y,1/2-x,1/2+z
16 1/2+y,1/2+x,1/2+z
_cell_length_a                   10.2033(4)
_cell_length_b                   10.2033(4)
_cell_length_c                   9.5545(9)
_cell_angle_alpha                90
_cell_angle_beta                 90
_cell_angle_gamma                90
_cell_volume                     994.693
loop_
_atom_site_label
_atom_site_type_symbol
_atom_site_fract_x
_atom_site_fract_y
_atom_site_fract_z
_atom_site_U_iso_or_equiv
_atom_site_thermal_displace_type
N1 N 0.3159(8) 1.0000 0.5000 0.0690 Uani
C1 C 0.4567(9) 1.0060(10) 0.4362(8) 0.0400 Uani
H2 H 0.2913 0.9971 0.4356 0.0500 Uiso
C1E C 0.4567(9) 0.9940(10) 0.5638(8) 0.0400 Uani
C1A C 0.5433(9) 0.9940(10) 0.4362(8) 0.0400 Uani
C1D C 0.5433(9) 1.0060(10) 0.5638(8) 0.0400 Uani
H2E H 0.2913 1.0029 0.5644 0.0500 Uiso
O4 O 0.0000 1.0000 0.5000 0.0880 Uani
H3 H 0.0000 1.0000 0.5860 0.0500 Uiso
H3B H 0.0000 1.0000 0.4140 0.0500 Uiso
Co1 Co 0.13302(8) 0.86698(8) 0.13280(12) 0.0566 Uani
P1 P 0.16368(15) 0.83632(15) -0.1924(2) 0.0570 Uani
O1 O 0.2031(6) 0.7969(6) -0.0425(10) 0.0890 Uani
O2 O 0.1972(6) 1.0244(6) 0.2202(6) 0.0857 Uani
O3 O 0.2879(15) 0.7644(14) 0.2010(14) 0.1067 Uani
F1 F 0.0000 1.0000 0.0000 0.0503 Uani
H1 H 0.2660 0.7340 -0.2012 0.0500 Uiso
Co1A Co -0.13302(8) 1.13302(8) 0.13280(12) 0.0566 Uani
Co1C Co 0.13302(8) 1.13302(8) -0.13280(12) 0.0566 Uani
Co1B Co -0.13302(8) 0.86698(8) -0.13280(12) 0.0566 Uani
P1C P 0.16368(15) 1.16368(15) 0.1924(2) 0.0570 Uani
P1I P 0.33632(15) 0.66368(15) 0.3076(2) 0.0570 Uani
O2F O -0.0244(6) 0.8028(6) 0.2202(6) 0.0857 Uani
O2B O 0.0244(6) 0.8028(6) -0.2202(6) 0.0857 Uani
O2E O 0.1972(6) 0.9756(6) -0.2202(6) 0.0857 Uani
O3F O 0.2356(14) 0.7121(15) 0.2010(14) 0.1067 Uani
O3I O 0.2121(15) 0.7356(14) -0.2990(14) 0.1067 Uani
O3O O 0.2644(14) 0.7879(15) -0.2990(14) 0.1067 Uani
H1I H 0.2340 0.7660 0.2988 0.0500 Uiso
loop_
_atom_site_aniso_label
_atom_site_aniso_U_11
_atom_site_aniso_U_22
_atom_site_aniso_U_33
_atom_site_aniso_U_23
_atom_site_aniso_U_13
_atom_site_aniso_U_12
N1 0.042(4) 0.075(5) 0.090(7) -0.005(5) 0.000 0.000
C1 0.041(4) 0.045(5) 0.034(3) 0.001(3) -0.010(3) 0.001(4)
C1E 0.041 0.045 0.034 0.001 0.01 -0.001
C1A 0.041 0.045 0.034 -0.001 0.01 0.001
C1D 0.041 0.045 0.034 -0.001 -0.01 -0.001
O4 0.115(9) 0.115(9) 0.034(6) 0.000 0.000 0.000
Co1 0.0514(5) 0.0514(5) 0.0670(7) 0.0058(3) -0.0058(3) 0.0042(4)
P1 0.0546(8) 0.0546(8) 0.0619(11) -0.0110(6) 0.0110(6) 0.0122(9)
O1 0.085(3) 0.085(3) 0.097(6) 0.008(3) -0.008(3) 0.018(5)
O2 0.084 0.075 0.098 0 -0.041 -0.002
O3 0.096 0.089 0.135 0.023 -0.021 0.008
F1 0.047(5) 0.047(5) 0.057(7) 0.000 0.000 0.000
Co1A 0.0514 0.0514 0.067 -0.0058 0.0058 0.0042
Co1C 0.0514 0.0514 0.067 0.0058 0.0058 -0.0042
Co1B 0.0514 0.0514 0.067 -0.0058 -0.0058 -0.0042
P1C 0.0546 0.0546 0.0619 -0.011 -0.011 -0.0122
P1I 0.0546 0.0546 0.0619 0.011 -0.011 0.0122
O2F 0.075 0.084 0.098 0.041 0 -0.002
O2B 0.075 0.084 0.098 -0.041 0 0.002
O2E 0.084 0.075 0.098 0 0.041 0.002
O3F 0.089 0.096 0.135 0.021 -0.023 0.008
O3I 0.096(11) 0.089(10) 0.135(11) -0.023(8) 0.021(8) 0.008(8)
O3O 0.089 0.096 0.135 -0.021 0.023 0.008
loop_
_geom_bond_atom_site_label_1
_geom_bond_atom_site_label_2
_geom_bond_site_symmetry_1
_geom_bond_site_symmetry_2
Co1 O1 1_555 1_555
P1 O1 1_555 1_555
O2 Co1 1_555 1_555
O3 Co1 1_555 1_555
F1 Co1 1_555 1_555
N1 C1 1_555 1_555
C1 C1E 1_555 1_555
O4 H3 1_555 1_555
H1 P1 1_555 1_555
H2 N1 1_555 1_555
Co1A F1 1_555 1_555
Co1C F1 1_555 1_555
Co1B F1 1_555 1_555
P1C O2 1_555 1_555
P1I O3 1_555 1_555
O2F Co1 1_555 1_555
O2B P1 1_555 1_555
O2E P1 1_555 1_555
O3F Co1 1_555 1_555
O3I P1 1_555 1_555
O3O P1 1_555 1_555
C1E N1 1_555 1_555
C1A C1 1_555 1_555
C1D C1 1_555 1_555
H1I O3 1_555 1_555
H2E N1 1_555 1_555
H3B O4 1_555 1_555
O3 O3F 1_555 1_555
H1 O3I 1_555 1_555
H1 O3O 1_555 1_555
Co1C O2E 1_555 1_555
Co1B O2B 1_555 1_555
P1I O3F 1_555 1_555
P1I H1I 1_555 1_555
O3F H1I 1_555 1_555
O3I O3O 1_555 1_555
C1E C1A 1_555 1_555
C1E C1D 1_555 1_555
C1A C1D 1_555 1_555

#END
