
#######################################################################
#
#                 Cambridge Crystallographic Data Centre
#                                CCDC 
#
#######################################################################
#
# If this CIF has been generated from an entry in the Cambridge 
# Structural Database, then it will include bibliographic, chemical, 
# crystal, experimental, refinement or atomic coordinate data resulting 
# from the CCDC's data processing and validation procedures.
#
#######################################################################

data_HEMVEB
_chemical_formula_moiety         '(C2 H13 Co4 F1 N2 O17 P4 2-)n'
_symmetry_cell_setting           orthorhombic
_symmetry_space_group_name_H-M   'C m c m'
_symmetry_Int_Tables_number      63
_space_group_name_Hall           '-C 2c 2'
loop_
_symmetry_equiv_pos_site_id
_symmetry_equiv_pos_as_xyz
1 x,y,z
2 1/2+x,1/2+y,z
3 -x,-y,1/2+z
4 -x,y,1/2-z
5 x,-y,-z
6 1/2-x,1/2-y,1/2+z
7 1/2-x,1/2+y,1/2-z
8 1/2+x,1/2-y,-z
9 -x,-y,-z
10 1/2-x,1/2-y,-z
11 x,y,1/2-z
12 x,-y,1/2+z
13 -x,y,z
14 1/2+x,1/2+y,1/2-z
15 1/2+x,1/2-y,1/2+z
16 1/2-x,1/2+y,z
_cell_length_a                   14.8952(14)
_cell_length_b                   9.7133(9)
_cell_length_c                   13.6878(12)
_cell_angle_alpha                90
_cell_angle_beta                 90
_cell_angle_gamma                90
_cell_volume                     1980.37
loop_
_atom_site_label
_atom_site_type_symbol
_atom_site_fract_x
_atom_site_fract_y
_atom_site_fract_z
_atom_site_U_iso_or_equiv
_atom_site_thermal_displace_type
Co1 Co 0.0000 0.04940(4) 0.61247(3) 0.0137 Uani
Co2 Co 0.12905(3) 0.21451(4) 0.2500 0.0130 Uani
P1 P -0.0000 0.27469(8) 0.42756(6) 0.0120 Uani
P2 P 0.16276(5) 0.11257(8) 0.7500 0.0121 Uani
O1 O -0.0000 0.1257(2) 0.46554(16) 0.0193 Uani
O2 O 0.0000 0.3713(2) 0.51825(16) 0.0169 Uani
O3 O 0.08541(11) 0.30404(17) 0.36939(13) 0.0211 Uani
O4 O 0.19329(15) -0.0391(2) 0.7500 0.0194 Uani
O5 O 0.10816(11) 0.14201(17) 0.65694(12) 0.0213 Uani
O6 O 0.24514(17) 0.2039(3) 0.7500 0.0272 Uani
F1 F 0.0000 -0.0840(3) 0.7500 0.0157 Uani
Co1H Co 0.0000 -0.04940(4) 0.38753(3) 0.0137 Uani
Co1J Co 0.0000 0.04940(4) 0.88753(3) 0.0137 Uani
Co2L Co -0.12905(3) 0.21451(4) 0.2500 0.0130 Uani
Co2K Co 0.12905(3) -0.21451(4) 0.7500 0.0130 Uani
Co2I Co 0.37095(3) 0.28549(4) 0.7500 0.0130 Uani
Co2H Co -0.12905(3) -0.21451(4) 0.7500 0.0130 Uani
Co2N Co -0.37095(3) 0.28549(4) 0.7500 0.0130 Uani
P1H P 0.0000 -0.27469(8) 0.57244(6) 0.0120 Uani
P2L P -0.16276(5) 0.11257(8) 0.7500 0.0121 Uani
O1H O 0.0000 -0.1257(2) 0.53446(16) 0.0193 Uani
O2H O 0.0000 -0.3713(2) 0.48175(16) 0.0169 Uani
O3L O -0.08541(11) 0.30404(17) 0.36939(13) 0.0211 Uani
O3H O -0.08541(11) -0.30404(17) 0.63061(13) 0.0211 Uani
O3D O 0.08541(11) -0.30404(17) 0.63061(13) 0.0211 Uani
O3J O 0.08541(11) 0.30404(17) 0.13061(13) 0.0211 Uani
O3C O -0.08541(11) 0.30404(17) 0.13061(13) 0.0211 Uani
O4L O -0.19329(15) -0.0391(2) 0.7500 0.0194 Uani
O4K O 0.19329(15) 0.0391(2) 0.2500 0.0194 Uani
O4H O -0.19329(15) 0.0391(2) 0.2500 0.0194 Uani
O5J O 0.10816(11) 0.14201(17) 0.84306(12) 0.0213 Uani
O5L O -0.10816(11) 0.14201(17) 0.65694(12) 0.0213 Uani
O5C O -0.10816(11) 0.14201(17) 0.84306(12) 0.0213 Uani
O5H O -0.10816(11) -0.14201(17) 0.34306(12) 0.0213 Uani
O5D O 0.10816(11) -0.14201(17) 0.34306(12) 0.0213 Uani
O6L O -0.24514(17) 0.2039(3) 0.7500 0.0272 Uani
O6I O 0.25486(17) 0.2961(3) 0.2500 0.0272 Uani
O6N O -0.25486(17) 0.2961(3) 0.2500 0.0272 Uani
F1K F 0.0000 0.0840(3) 0.2500 0.0157 Uani
N1 N 0.32655(16) -0.0809(3) 0.8939(2) 0.0346 Uani
C1 C 0.2625(2) -0.0695(3) 0.9767(2) 0.0314 Uani
H1 H 0.2087 -0.0956 0.9524 0.0500 Uiso
H2 H 0.2751 -0.1301 1.0237 0.0500 Uiso
H3 H 0.3577 -0.0028 0.8820 0.0500 Uiso
H4 H 0.3793 -0.0989 0.9271 0.0500 Uiso
H5 H 0.3391 -0.1767 0.8717 0.0500 Uiso
N1D N 0.32655(16) 0.0809(3) 1.1061(2) 0.0346 Uani
C1D C 0.2625(2) 0.0695(3) 1.0233(2) 0.0314 Uani
H1D H 0.2087 0.0956 1.0476 0.0500 Uiso
H2D H 0.2751 0.1301 0.9763 0.0500 Uiso
H3D H 0.3577 0.0028 1.1180 0.0500 Uiso
H4D H 0.3793 0.0989 1.0729 0.0500 Uiso
H5D H 0.3391 0.1767 1.1283 0.0500 Uiso
O7 O 0.0000 0.4140(6) 0.7500 0.0657 Uani
H6 H 0.0000 0.4621 0.6910 0.0500 Uiso
H6J H -0.0000 0.4621 0.8090 0.0500 Uiso
loop_
_atom_site_aniso_label
_atom_site_aniso_U_11
_atom_site_aniso_U_22
_atom_site_aniso_U_33
_atom_site_aniso_U_23
_atom_site_aniso_U_13
_atom_site_aniso_U_12
Co1 0.0138(2) 0.0136(2) 0.0137(2) -0.00182(15) 0.000 0.000
Co2 0.0118 0.0132 0.0139 0 0 -0.00023
P1 0.0129(4) 0.0110(4) 0.0122(4) -0.0001(3) 0.000 0.000
P2 0.0096(3) 0.0115(4) 0.0153(4) 0.000 0.000 -0.0021(3)
O1 0.0318(13) 0.0119(10) 0.0142(10) 0.0015(8) 0.000 0.000
O2 0.0213(11) 0.0157(10) 0.0137(10) -0.0048(8) 0.000 0.000
O3 0.0196 0.0231 0.0206 -0.0059 0.0065 -0.007
O4 0.0152(10) 0.0134(11) 0.0297(12) 0.000 0.000 0.0014(8)
O5 0.0208(8) 0.0231(8) 0.0200(8) 0.0066(6) -0.0056(7) -0.0057(7)
O6 0.0136 0.0232 0.0447 0 0 -0.0087
F1 0.0149(12) 0.0160(12) 0.0162(12) 0.000 0.000 0.000
Co1H 0.0138 0.0136 0.0137 -0.00182 0 0
Co1J 0.0138 0.0136 0.0137 0.00182 0 0
Co2L 0.0118 0.0132 0.0139 0 0 0.00023
Co2K 0.0118(2) 0.0132(2) 0.0139(2) 0.000 0.000 0.00023(14)
Co2I 0.0118 0.0132 0.0139 0 0 -0.00023
Co2H 0.0118 0.0132 0.0139 0 0 -0.00023
Co2N 0.0118 0.0132 0.0139 0 0 0.00023
P1H 0.0129 0.011 0.0122 -0.0001 0 0
P2L 0.0096 0.0115 0.0153 0 0 0.0021
O1H 0.0318 0.0119 0.0142 0.0015 0 0
O2H 0.0213 0.0157 0.0137 -0.0048 0 0
O3L 0.0196 0.0231 0.0206 -0.0059 -0.0065 0.007
O3H 0.0196 0.0231 0.0206 -0.0059 0.0065 -0.007
O3D 0.0196 0.0231 0.0206 -0.0059 -0.0065 0.007
O3J 0.0196 0.0231 0.0206 0.0059 -0.0065 -0.007
O3C 0.0196 0.0231 0.0206 0.0059 0.0065 0.007
O4L 0.0152 0.0134 0.0297 0 0 -0.0014
O4K 0.0152 0.0134 0.0297 0 0 -0.0014
O4H 0.0152 0.0134 0.0297 0 0 0.0014
O5J 0.0208 0.0231 0.02 -0.0066 0.0056 -0.0057
O5L 0.0208 0.0231 0.02 0.0066 0.0056 0.0057
O5C 0.0208 0.0231 0.02 -0.0066 -0.0056 0.0057
O5H 0.0208 0.0231 0.02 0.0066 -0.0056 -0.0057
O5D 0.0208 0.0231 0.02 0.0066 0.0056 0.0057
O6L 0.0136 0.0232 0.0447 0 0 0.0087
O6I 0.0136 0.0232 0.0447 0 0 -0.0087
O6N 0.0136 0.0232 0.0447 0 0 0.0087
F1K 0.0149 0.016 0.0162 0 0 0
N1 0.0242(11) 0.0325(12) 0.0472(15) -0.0194(11) -0.0084(10) 0.0066(10)
C1 0.0361(14) 0.0305(14) 0.0276(13) 0.0035(11) -0.0095(11) -0.0115(11)
N1D 0.0242 0.0325 0.0472 -0.0194 0.0084 -0.0066
C1D 0.0361 0.0305 0.0276 0.0035 0.0095 0.0115
O7 0.104(5) 0.055(3) 0.038(3) 0.000 0.000 0.000
loop_
_geom_bond_atom_site_label_1
_geom_bond_atom_site_label_2
_geom_bond_site_symmetry_1
_geom_bond_site_symmetry_2
Co1 O1 1_555 1_555
Co2 O3 1_555 1_555
P1 O1 1_555 1_555
P2 O4 1_555 1_555
O1 Co1H 1_555 1_555
O2 P1 1_555 1_555
O3 P1 1_555 1_555
O4 Co2K 1_555 1_555
O5 Co1 1_555 1_555
O6 P2 1_555 1_555
F1 Co1 1_555 1_555
N1 C1 1_555 1_555
C1 H1 1_555 1_555
O7 H6 1_555 1_555
H2 C1 1_555 1_555
H3 N1 1_555 1_555
H4 N1 1_555 1_555
H5 N1 1_555 1_555
Co1H O1H 1_555 1_555
Co1J F1 1_555 1_555
Co2L O3L 1_555 1_555
Co2K F1 1_555 1_555
Co2I O6 1_555 1_555
Co2H F1 1_555 1_555
Co2N O6L 1_555 1_555
P1H O1H 1_555 1_555
P2L O4L 1_555 1_555
O1H Co1 1_555 1_555
O2H P1H 1_555 1_555
O3L P1 1_555 1_555
O3H Co2H 1_555 1_555
O3D Co2K 1_555 1_555
O3J Co2 1_555 1_555
O3C Co2L 1_555 1_555
O4L Co2H 1_555 1_555
O4K Co2 1_555 1_555
O4H Co2L 1_555 1_555
O5J P2 1_555 1_555
O5L Co1 1_555 1_555
O5C Co1J 1_555 1_555
O5H Co1H 1_555 1_555
O5D Co1H 1_555 1_555
O6L P2L 1_555 1_555
O6I Co2 1_555 1_555
O6N Co2L 1_555 1_555
F1K Co2 1_555 1_555
N1D C1D 1_555 1_555
C1D C1 1_555 1_555
H1D C1D 1_555 1_555
H2D C1D 1_555 1_555
H3D N1D 1_555 1_555
H4D N1D 1_555 1_555
H5D N1D 1_555 1_555
H6J O7 1_555 1_555
P2 O5 1_555 1_555
Co1H F1K 1_555 1_555
Co1J O5J 1_555 1_555
Co2L F1K 1_555 1_555
P1H O3H 1_555 1_555
P1H O3D 1_555 1_555
P2L O5L 1_555 1_555
P2L O5C 1_555 1_555

#END
