
#######################################################################
#
#                 Cambridge Crystallographic Data Centre
#                                CCDC 
#
#######################################################################
#
# If this CIF has been generated from an entry in the Cambridge 
# Structural Database, then it will include bibliographic, chemical, 
# crystal, experimental, refinement or atomic coordinate data resulting 
# from the CCDC's data processing and validation procedures.
#
#######################################################################

data_HUHVUD
_chemical_formula_moiety         'C180 H170 N12 O82 Y8'
_symmetry_cell_setting           hexagonal
_symmetry_space_group_name_H-M   'P 6/m m m'
_symmetry_Int_Tables_number      191
_space_group_name_Hall           '-P 6 2'
loop_
_symmetry_equiv_pos_site_id
_symmetry_equiv_pos_as_xyz
1 x,y,z
2 x-y,x,z
3 -y,x-y,z
4 -x,-y,z
5 -x+y,-x,z
6 y,-x+y,z
7 x-y,-y,-z
8 -x,-x+y,-z
9 y,x,-z
10 -y,-x,-z
11 -x+y,y,-z
12 x,x-y,-z
13 -x,-y,-z
14 -x+y,-x,-z
15 y,-x+y,-z
16 x,y,-z
17 x-y,x,-z
18 -y,x-y,-z
19 -x+y,y,z
20 x,x-y,z
21 -y,-x,z
22 y,x,z
23 x-y,-y,z
24 -x,-x+y,z
_cell_length_a                   29.3518(16)
_cell_length_b                   29.3518(16)
_cell_length_c                   21.1634(16)
_cell_angle_alpha                90
_cell_angle_beta                 90
_cell_angle_gamma                120
_cell_volume                     15790.1
loop_
_atom_site_label
_atom_site_type_symbol
_atom_site_fract_x
_atom_site_fract_y
_atom_site_fract_z
Y2 Y 0.91287(9) 0.95643(4) 0.40875(10)
Y3 Y 0.74542(15) 0.4908(3) 0.5000
Y4 Y 0.62326(12) 0.37674(12) 0.4087(4)
O1 O 0.7478(11) 0.8739(6) 0.5000
O2 O 0.6609(16) 0.4234(16) 0.5000
O3 O 0.7132(13) 0.426(3) 0.395(3)
O4 O 0.6980(2) 0.4893(4) 0.1170(3)
O5 O 0.6246(2) 0.4790(4) 0.0703(3)
C1 C 0.6664(6) 0.5460(6) 0.1482(8)
C2 C 0.6320(6) 0.5642(6) 0.1353(8)
H1 H 0.6063 0.5482 0.1030
C3 C 0.6354(7) 0.6062(7) 0.1704(9)
C4 C 0.7075(7) 0.5722(7) 0.1907(9)
H2 H 0.7304 0.5589 0.1995
C5 C 0.7157(8) 0.6184(7) 0.2208(10)
H3 H 0.7456 0.6385 0.2467
C6 C 0.6780(7) 0.6334(7) 0.2110(9)
N1 N 0.6755(8) 0.6755(8) 0.2400(11)
C7 C 0.6616(5) 0.4998(6) 0.1118(7)
C8 C 0.7134(12) 0.7103(18) 0.2807(13)
C9 C 0.7664(12) 0.7337(15) 0.2675(19)
H4 H 0.7777 0.7240 0.2305
C10 C 0.8034(14) 0.7714(15) 0.3076(16)
H5 H 0.8400 0.7868 0.2994
C11 C 0.7852(11) 0.7856(17) 0.3599(12)
C12 C 0.7325(10) 0.7632(11) 0.3746(14)
H6 H 0.7210 0.7745 0.4103
C13 C 0.6969(12) 0.7235(12) 0.3350(14)
O6 O 0.8740(8) 0.8404(11) 0.3916(14)
C14 C 0.8272(8) 0.8242(10) 0.4018(13)
O7 O 0.8095(9) 0.8500(9) 0.4375(12)
O4U O 0.4893(4) 0.6980(2) 0.1170(3)
O5U O 0.4790(4) 0.6246(2) 0.0703(3)
C1U C 0.5460(6) 0.6664(6) 0.1482(8)
C2U C 0.5642(6) 0.6320(6) 0.1353(8)
H1U H 0.5482 0.6063 0.1030
C3U C 0.6062(7) 0.6354(7) 0.1704(9)
C4U C 0.5722(7) 0.7075(7) 0.1907(9)
H2U H 0.5589 0.7304 0.1995
C5U C 0.6184(7) 0.7157(8) 0.2208(10)
H3U H 0.6385 0.7456 0.2467
C6U C 0.6334(7) 0.6780(7) 0.2110(9)
C7U C 0.4998(6) 0.6616(5) 0.1118(7)
C8U C 0.7103(18) 0.7134(12) 0.2807(13)
C9U C 0.7337(15) 0.7664(12) 0.2675(19)
H4U H 0.7240 0.7777 0.2305
C10U C 0.7714(15) 0.8034(14) 0.3076(16)
H5U H 0.7868 0.8400 0.2994
C12U C 0.7632(11) 0.7325(10) 0.3746(14)
H6U H 0.7745 0.7210 0.4103
C13U C 0.7235(12) 0.6969(12) 0.3350(14)
O6U O 0.8404(11) 0.8740(8) 0.3916(14)
C14U C 0.8242(10) 0.8272(8) 0.4018(13)
O7U O 0.8500(9) 0.8095(9) 0.4375(12)
O8 O 0.8416(5) 0.6832(10) 0.2971(12)
N2 N 0.8827(5) 0.7655(10) 0.2557(14)
C15 C 0.9109(5) 0.8218(11) 0.267(2)
H7 H 0.8886 0.8321 0.2905
H8 H 0.9201 0.8408 0.2259
C16 C 0.8657(6) 0.7314(12) 0.3024(14)
H9 H 0.8727 0.7453 0.3441
C17 C 0.8741(8) 0.7482(16) 0.1901(14)
H10 H 0.8535 0.7619 0.1687
H11 H 0.8548 0.7100 0.1887
H7R H 0.9435 0.8321 0.2905
H10R H 0.9084 0.7619 0.1687
O4R O 0.7913(4) 0.4893(4) 0.1170(3)
O5R O 0.8544(4) 0.4790(4) 0.0703(3)
C1R C 0.8796(8) 0.5460(6) 0.1482(8)
C2R C 0.9322(8) 0.5642(6) 0.1353(8)
H1R H 0.9419 0.5482 0.1030
C3R C 0.9708(10) 0.6062(7) 0.1704(9)
C4R C 0.8647(10) 0.5722(7) 0.1907(9)
H2R H 0.8285 0.5589 0.1995
C5R C 0.9027(11) 0.6184(7) 0.2208(10)
H3R H 0.8929 0.6385 0.2467
C6R C 0.9554(10) 0.6334(7) 0.2110(9)
N1A N 1.0000(11) 0.6755(8) 0.2400(11)
C7R C 0.8382(8) 0.4998(6) 0.1118(7)
C8R C 0.9969(22) 0.7103(18) 0.2807(13)
C9R C 0.9673(19) 0.7337(15) 0.2675(19)
H4R H 0.9463 0.7240 0.2305
C10R C 0.9680(21) 0.7714(15) 0.3076(16)
H5R H 0.9468 0.7868 0.2994
C11A C 0.9996(20) 0.7852(11) 0.3599(12)
C12R C 1.0307(15) 0.7632(11) 0.3746(14)
H6R H 1.0535 0.7745 0.4103
C13R C 1.0266(17) 0.7235(12) 0.3350(14)
O6R O 0.9664(14) 0.8404(11) 0.3916(14)
C14R C 0.9970(13) 0.8242(10) 0.4018(13)
O7R O 1.0405(13) 0.8500(9) 0.4375(12)
O4A O 1.2087(4) 0.6980(2) 0.1170(3)
O5A O 1.1456(4) 0.6246(2) 0.0703(3)
C1A C 1.1204(8) 0.6664(6) 0.1482(8)
C2A C 1.0678(8) 0.6320(6) 0.1353(8)
H1A H 1.0581 0.6063 0.1030
C3A C 1.0292(10) 0.6354(7) 0.1704(9)
C4A C 1.1353(10) 0.7075(7) 0.1907(9)
H2A H 1.1715 0.7304 0.1995
C5A C 1.0973(11) 0.7157(8) 0.2208(10)
H3A H 1.1071 0.7456 0.2467
C6A C 1.0446(10) 0.6780(7) 0.2110(9)
C7A C 1.1618(8) 0.6616(5) 0.1118(7)
C8A C 1.0031(22) 0.7134(12) 0.2807(13)
C9A C 1.0327(19) 0.7664(12) 0.2675(19)
H4A H 1.0537 0.7777 0.2305
C10A C 1.0320(21) 0.8034(14) 0.3076(16)
H5A H 1.0532 0.8400 0.2994
C12A C 0.9693(15) 0.7325(10) 0.3746(14)
H6A H 0.9465 0.7210 0.4103
C13A C 0.9734(17) 0.6969(12) 0.3350(14)
O6A O 1.0336(14) 0.8740(8) 0.3916(14)
C14A C 1.0030(13) 0.8272(8) 0.4018(13)
O7A O 0.9595(13) 0.8095(9) 0.4375(12)
O8E O 0.6832(10) 0.8416(11) 0.2971(12)
N2E N 0.7655(10) 0.8828(11) 0.2557(14)
C15E C 0.8218(11) 0.9109(12) 0.267(2)
H7U H 0.8321 0.8886 0.2905
H8E H 0.8408 0.9207 0.2259
C16E C 0.7314(12) 0.8657(13) 0.3024(14)
H9E H 0.7453 0.8726 0.3441
C17E C 0.7482(16) 0.8741(18) 0.1901(14)
H10U H 0.7619 0.8535 0.1687
H11E H 0.7100 0.8552 0.1887
H7E H 0.8321 0.9435 0.2905
H10E H 0.7619 0.9084 0.1687
O8A O 1.1584(11) 0.8416(5) 0.2971(12)
N2A N 1.1172(11) 0.8827(5) 0.2557(14)
C15A C 1.0891(12) 0.9109(5) 0.267(2)
H7A H 1.0565 0.8886 0.2905
H8A H 1.0793 0.9201 0.2259
C16A C 1.1343(13) 0.8657(6) 0.3024(14)
H9A H 1.1274 0.8727 0.3441
C17A C 1.1259(18) 0.8741(8) 0.1901(14)
H10A H 1.0916 0.8535 0.1687
H11A H 1.1448 0.8548 0.1887
H7W H 1.1114 0.9435 0.2905
H10W H 1.1465 0.9084 0.1687
O4E O 0.4893(4) 0.7913(4) 0.1170(3)
O5E O 0.4790(4) 0.8544(4) 0.0703(3)
C1E C 0.5460(6) 0.8796(8) 0.1482(8)
C2E C 0.5642(6) 0.9322(8) 0.1353(8)
H1E H 0.5482 0.9419 0.1030
C3E C 0.6062(7) 0.9708(10) 0.1704(9)
C4E C 0.5722(7) 0.8647(10) 0.1907(9)
H2E H 0.5589 0.8285 0.1995
C5E C 0.6184(7) 0.9027(11) 0.2208(10)
H3E H 0.6385 0.8929 0.2467
C6E C 0.6334(7) 0.9554(10) 0.2110(9)
N1E N 0.6755(8) 1.0000(11) 0.2400(11)
C7E C 0.4998(6) 0.8382(8) 0.1118(7)
C8E C 0.7103(18) 0.9969(22) 0.2807(13)
C9E C 0.7337(15) 0.9673(19) 0.2675(19)
H4E H 0.7240 0.9463 0.2305
C10E C 0.7714(15) 0.9680(21) 0.3076(16)
H5E H 0.7868 0.9468 0.2994
C11E C 0.7856(17) 1.0004(20) 0.3599(12)
C12E C 0.7632(11) 1.0307(15) 0.3746(14)
H6E H 0.7745 1.0535 0.4103
C13E C 0.7235(12) 1.0266(17) 0.3350(14)
O6E O 0.8404(11) 0.9664(14) 0.3916(14)
C14E C 0.8242(10) 0.9970(13) 0.4018(13)
O7E O 0.8500(9) 1.0405(13) 0.4375(12)
O4S O 0.6980(2) 1.2087(4) 0.1170(3)
O5S O 0.6246(2) 1.1456(4) 0.0703(3)
C1S C 0.6664(6) 1.1204(8) 0.1482(8)
C2S C 0.6320(6) 1.0678(8) 0.1353(8)
H1S H 0.6063 1.0581 0.1030
C3S C 0.6354(7) 1.0292(10) 0.1704(9)
C4S C 0.7075(7) 1.1353(10) 0.1907(9)
H2S H 0.7304 1.1715 0.1995
C5S C 0.7157(8) 1.0973(11) 0.2208(10)
H3S H 0.7456 1.1071 0.2467
C6S C 0.6780(7) 1.0446(10) 0.2110(9)
C7S C 0.6616(5) 1.1618(8) 0.1118(7)
C8S C 0.7134(12) 1.0031(22) 0.2807(13)
C9S C 0.7664(12) 1.0327(19) 0.2675(19)
H4S H 0.7777 1.0537 0.2305
C10S C 0.8034(14) 1.0320(21) 0.3076(16)
H5S H 0.8400 1.0532 0.2994
C12S C 0.7325(10) 0.9693(15) 0.3746(14)
H6S H 0.7210 0.9465 0.4103
C13S C 0.6969(12) 0.9734(17) 0.3350(14)
O6S O 0.8740(8) 1.0336(14) 0.3916(14)
C14S C 0.8272(8) 1.0030(13) 0.4018(13)
O7S O 0.8095(9) 0.9595(13) 0.4375(12)
O8D O 0.8416(11) 1.1584(5) 0.2971(12)
N2D N 0.8828(11) 1.1173(5) 0.2557(14)
C15D C 0.9109(12) 1.0891(5) 0.267(2)
H7S H 0.8886 1.0565 0.2905
H8D H 0.9207 1.0799 0.2259
C16D C 0.8657(13) 1.1343(6) 0.3024(14)
H9D H 0.8726 1.1273 0.3441
C17D C 0.8741(18) 1.1259(8) 0.1901(14)
H10S H 0.8535 1.0916 0.1687
H11D H 0.8552 1.1452 0.1887
H7D H 0.9435 1.1114 0.2905
H10D H 0.9084 1.1465 0.1687
O4W O 1.3020(2) 0.7913(4) 0.1170(3)
O5W O 1.3754(2) 0.8544(4) 0.0703(3)
C1W C 1.3336(6) 0.8796(8) 0.1482(8)
C2W C 1.3680(6) 0.9322(8) 0.1353(8)
H1W H 1.3937 0.9419 0.1030
C3W C 1.3646(7) 0.9708(10) 0.1704(9)
C4W C 1.2925(7) 0.8647(10) 0.1907(9)
H2W H 1.2696 0.8285 0.1995
C5W C 1.2843(8) 0.9027(11) 0.2208(10)
H3W H 1.2544 0.8929 0.2467
C6W C 1.3220(7) 0.9554(10) 0.2110(9)
N1B N 1.3245(8) 1.0000(11) 0.2400(11)
C7W C 1.3384(5) 0.8382(8) 0.1118(7)
C8W C 1.2866(12) 0.9969(22) 0.2807(13)
C9W C 1.2336(12) 0.9673(19) 0.2675(19)
H4W H 1.2223 0.9463 0.2305
C10W C 1.1966(14) 0.9680(21) 0.3076(16)
H5W H 1.1600 0.9468 0.2994
C11B C 1.2144(17) 0.9996(20) 0.3599(12)
C12W C 1.2675(10) 1.0307(15) 0.3746(14)
H6W H 1.2790 1.0535 0.4103
C13W C 1.3031(12) 1.0266(17) 0.3350(14)
O6W O 1.1260(8) 0.9664(14) 0.3916(14)
C14W C 1.1728(8) 0.9970(13) 0.4018(13)
O7W O 1.1905(9) 1.0405(13) 0.4375(12)
O4B O 1.5107(4) 1.2087(4) 0.1170(3)
O5B O 1.5210(4) 1.1456(4) 0.0703(3)
C1B C 1.4540(6) 1.1204(8) 0.1482(8)
C2B C 1.4358(6) 1.0678(8) 0.1353(8)
H1B H 1.4518 1.0581 0.1030
C3B C 1.3938(7) 1.0292(10) 0.1704(9)
C4B C 1.4278(7) 1.1353(10) 0.1907(9)
H2B H 1.4411 1.1715 0.1995
C5B C 1.3816(7) 1.0973(11) 0.2208(10)
H3B H 1.3615 1.1071 0.2467
C6B C 1.3666(7) 1.0446(10) 0.2110(9)
C7B C 1.5002(6) 1.1618(8) 0.1118(7)
C8B C 1.2897(18) 1.0031(22) 0.2807(13)
C9B C 1.2663(15) 1.0327(19) 0.2675(19)
H4B H 1.2760 1.0537 0.2305
C10B C 1.2286(15) 1.0320(21) 0.3076(16)
H5B H 1.2132 1.0532 0.2994
C12B C 1.2368(11) 0.9693(15) 0.3746(14)
H6B H 1.2255 0.9465 0.4103
C13B C 1.2765(12) 0.9734(17) 0.3350(14)
O6B O 1.1596(11) 1.0336(14) 0.3916(14)
C14B C 1.1758(10) 1.0030(13) 0.4018(13)
O7B O 1.1500(9) 0.9595(13) 0.4375(12)
O8B O 1.3168(10) 1.1584(11) 0.2971(12)
N2B N 1.2345(10) 1.1172(11) 0.2557(14)
C15B C 1.1782(11) 1.0891(12) 0.267(2)
H7B H 1.1679 1.0565 0.2905
H8B H 1.1592 1.0793 0.2259
C16B C 1.2686(12) 1.1343(13) 0.3024(14)
H9B H 1.2547 1.1274 0.3441
C17B C 1.2518(16) 1.1259(18) 0.1901(14)
H10B H 1.2381 1.0916 0.1687
H11B H 1.2900 1.1448 0.1887
H7T H 1.1679 1.1114 0.2905
H10T H 1.2381 1.1465 0.1687
O4D O 0.7913(4) 1.3020(2) 0.1170(3)
O5D O 0.8544(4) 1.3754(2) 0.0703(3)
C1D C 0.8796(8) 1.3336(6) 0.1482(8)
C2D C 0.9322(8) 1.3680(6) 0.1353(8)
H1D H 0.9419 1.3937 0.1030
C3D C 0.9708(10) 1.3646(7) 0.1704(9)
C4D C 0.8647(10) 1.2925(7) 0.1907(9)
H2D H 0.8285 1.2696 0.1995
C5D C 0.9027(11) 1.2843(8) 0.2208(10)
H3D H 0.8929 1.2544 0.2467
C6D C 0.9554(10) 1.3220(7) 0.2110(9)
N1D N 1.0000(11) 1.3245(8) 0.2400(11)
C7D C 0.8382(8) 1.3384(5) 0.1118(7)
C8D C 0.9969(22) 1.2866(12) 0.2807(13)
C9D C 0.9673(19) 1.2336(12) 0.2675(19)
H4D H 0.9463 1.2223 0.2305
C10D C 0.9680(21) 1.1966(14) 0.3076(16)
H5D H 0.9468 1.1600 0.2994
C11D C 1.0004(20) 1.2148(11) 0.3599(12)
C12D C 1.0307(15) 1.2675(10) 0.3746(14)
H6D H 1.0535 1.2790 0.4103
C13D C 1.0266(17) 1.3031(12) 0.3350(14)
O6D O 0.9664(14) 1.1260(8) 0.3916(14)
C14D C 0.9970(13) 1.1728(8) 0.4018(13)
O7D O 1.0405(13) 1.1905(9) 0.4375(12)
O4V O 1.2087(4) 1.5107(4) 0.1170(3)
O5V O 1.1456(4) 1.5210(4) 0.0703(3)
C1V C 1.1204(8) 1.4540(6) 0.1482(8)
C2V C 1.0678(8) 1.4358(6) 0.1353(8)
H1V H 1.0581 1.4518 0.1030
C3V C 1.0292(10) 1.3938(7) 0.1704(9)
C4V C 1.1353(10) 1.4278(7) 0.1907(9)
H2V H 1.1715 1.4411 0.1995
C5V C 1.0973(11) 1.3816(7) 0.2208(10)
H3V H 1.1071 1.3615 0.2467
C6V C 1.0446(10) 1.3666(7) 0.2110(9)
C7V C 1.1618(8) 1.5002(6) 0.1118(7)
C8V C 1.0031(22) 1.2897(18) 0.2807(13)
C9V C 1.0327(19) 1.2663(15) 0.2675(19)
H4V H 1.0537 1.2760 0.2305
C10V C 1.0320(21) 1.2286(15) 0.3076(16)
H5V H 1.0532 1.2132 0.2994
C12V C 0.9693(15) 1.2368(11) 0.3746(14)
H6V H 0.9465 1.2255 0.4103
C13V C 0.9734(17) 1.2765(12) 0.3350(14)
O6V O 1.0336(14) 1.1596(11) 0.3916(14)
C14V C 1.0030(13) 1.1758(10) 0.4018(13)
O7V O 0.9595(13) 1.1500(9) 0.4375(12)
O4T O 1.5107(4) 1.3020(2) 0.1170(3)
O5T O 1.5210(4) 1.3754(2) 0.0703(3)
C1T C 1.4540(6) 1.3336(6) 0.1482(8)
C2T C 1.4358(6) 1.3680(6) 0.1353(8)
H1T H 1.4518 1.3937 0.1030
C3T C 1.3938(7) 1.3646(7) 0.1704(9)
C4T C 1.4278(7) 1.2925(7) 0.1907(9)
H2T H 1.4411 1.2696 0.1995
C5T C 1.3816(7) 1.2843(8) 0.2208(10)
H3T H 1.3615 1.2544 0.2467
C6T C 1.3666(7) 1.3220(7) 0.2110(9)
N1C N 1.3245(8) 1.3245(8) 0.2400(11)
C7T C 1.5002(6) 1.3384(5) 0.1118(7)
C8T C 1.2897(18) 1.2866(12) 0.2807(13)
C9T C 1.2663(15) 1.2336(12) 0.2675(19)
H4T H 1.2760 1.2223 0.2305
C10T C 1.2286(15) 1.1966(14) 0.3076(16)
H5T H 1.2132 1.1600 0.2994
C11C C 1.2148(11) 1.2144(17) 0.3599(12)
C12T C 1.2368(11) 1.2675(10) 0.3746(14)
H6T H 1.2255 1.2790 0.4103
C13T C 1.2765(12) 1.3031(12) 0.3350(14)
O6T O 1.1596(11) 1.1260(8) 0.3916(14)
C14T C 1.1758(10) 1.1728(8) 0.4018(13)
O7T O 1.1500(9) 1.1905(9) 0.4375(12)
O4C O 1.3020(2) 1.5107(4) 0.1170(3)
O5C O 1.3754(2) 1.5210(4) 0.0703(3)
C1C C 1.3336(6) 1.4540(6) 0.1482(8)
C2C C 1.3680(6) 1.4358(6) 0.1353(8)
H1C H 1.3937 1.4518 0.1030
C3C C 1.3646(7) 1.3938(7) 0.1704(9)
C4C C 1.2925(7) 1.4278(7) 0.1907(9)
H2C H 1.2696 1.4411 0.1995
C5C C 1.2843(8) 1.3816(7) 0.2208(10)
H3C H 1.2544 1.3615 0.2467
C6C C 1.3220(7) 1.3666(7) 0.2110(9)
C7C C 1.3384(5) 1.5002(6) 0.1118(7)
C8C C 1.2866(12) 1.2897(18) 0.2807(13)
C9C C 1.2336(12) 1.2663(15) 0.2675(19)
H4C H 1.2223 1.2760 0.2305
C10C C 1.1966(14) 1.2286(15) 0.3076(16)
H5C H 1.1600 1.2132 0.2994
C12C C 1.2675(10) 1.2368(11) 0.3746(14)
H6C H 1.2790 1.2255 0.4103
C13C C 1.3031(12) 1.2765(12) 0.3350(14)
O6C O 1.1260(8) 1.1596(11) 0.3916(14)
C14C C 1.1728(8) 1.1758(10) 0.4018(13)
O7C O 1.1905(9) 1.1500(9) 0.4375(12)
O8C O 1.1584(5) 1.3168(10) 0.2971(12)
N2C N 1.1173(5) 1.2345(10) 0.2557(14)
C15C C 1.0891(5) 1.1782(11) 0.267(2)
H7V H 1.0565 1.1679 0.2905
H8C H 1.0799 1.1592 0.2259
C16C C 1.1343(6) 1.2686(12) 0.3024(14)
H9C H 1.1273 1.2547 0.3441
C17C C 1.1259(8) 1.2518(16) 0.1901(14)
H10V H 1.0916 1.2381 0.1687
H11C H 1.1452 1.2900 0.1887
H7C H 1.1114 1.1679 0.2905
H10C H 1.1465 1.2381 0.1687
O9 O 0.6667 0.3333 0.439(4)
O10 O 0.798(3) 0.597(7) 0.5000
Y5 Y 0.71022(4) 0.28977(2) 0.09122(5)
Y6 Y 0.82408(4) 0.41204(3) 0.0000
O11 O 0.6666 0.3333 0.0651(5)
O12 O 0.7562(4) 0.3267(3) 0.0000
O13 O 0.76118(23) 0.38059(16) 0.0975(5)
O14 O 0.7001(7) 0.2998(3) 0.1942(6)
Y7 Y 0.6666 0.3333 0.2579(12)
O15 O 0.9240(4) 0.4620(3) 0.0000
O16 O 0.635(4) 0.365(2) 0.299(5)
O17 O 1.0000 1.0000 0.4364(6)
O18 O 0.9335(15) 0.9668(7) 0.3030(17)
Y8 Y 1.0000 1.0000 0.240(3)
O19 O 0.9112(5) 0.9047(5) 0.5000
O20 O 0.5000 0.5000 0.0964(18)
O21 O 0.5672(16) 0.5672(16) 0.0000
O22 O 0.647(3) 0.647(3) 0.0000
O23 O 0.717(7) 0.677(7) 0.0000
O24 O 0.710(10) 0.710(10) 0.0000
O25 O 0.745(9) 0.745(9) 0.0000
O26 O 0.5850(17) 0.4150(17) 0.242(4)
O27 O 0.769(3) 0.669(3) 0.5000
O28 O 0.5489(19) 0.4511(19) 0.234(4)
O29 O 0.5105(14) 0.4895(14) 0.204(4)
O30 O 0.809(13) 0.809(13) 0.0000
O31 O 0.966(5) 0.983(2) 0.0000
O32 O 0.895(5) 0.870(6) 0.099(6)
O33 O 1.0000 1.049(10) 0.118(14)
Y1 Y 0.84232(10) 0.92116(5) 0.5000
loop_
_geom_bond_atom_site_label_1
_geom_bond_atom_site_label_2
_geom_bond_site_symmetry_1
_geom_bond_site_symmetry_2
O4 C7 1_555 1_555
O5 C7 1_555 1_555
C1 C2 1_555 1_555
C2 H1 1_555 1_555
C3 C2 1_555 1_555
C4 C1 1_555 1_555
H2 C4 1_555 1_555
C5 C4 1_555 1_555
H3 C5 1_555 1_555
C6 C3 1_555 1_555
N1 C6 1_555 1_555
C7 C1 1_555 1_555
C8 N1 1_555 1_555
C9 C8 1_555 1_555
H4 C9 1_555 1_555
C10 C9 1_555 1_555
H5 C10 1_555 1_555
C11 C10 1_555 1_555
C12 C11 1_555 1_555
H6 C12 1_555 1_555
C13 C8 1_555 1_555
O6 C14 1_555 1_555
C14 C11 1_555 1_555
O7 C14 1_555 1_555
O8 C16 1_555 1_555
N2 C15 1_555 1_555
C15 H7 1_555 1_555
H8 C15 1_555 1_555
C16 N2 1_555 1_555
H9 C16 1_555 1_555
C17 N2 1_555 1_555
H10 C17 1_555 1_555
H11 C17 1_555 1_555
O4U C7U 1_555 1_555
O5U C7U 1_555 1_555
C1U C2U 1_555 1_555
C2U H1U 1_555 1_555
C3U C3 1_555 1_555
C4U C1U 1_555 1_555
H2U C4U 1_555 1_555
C5U C4U 1_555 1_555
H3U C5U 1_555 1_555
C6U N1 1_555 1_555
C7U C1U 1_555 1_555
C8U N1 1_555 1_555
C9U C8 1_555 1_555
H4U C9U 1_555 1_555
C10U C10 1_555 1_555
H5U C10U 1_555 1_555
C12U C11 1_555 1_555
H6U C12U 1_555 1_555
C13U C8 1_555 1_555
O6U C14 1_555 1_555
C14U C11 1_555 1_555
O7U C14 1_555 1_555
H7R C15 1_555 1_555
H10R C17 1_555 1_555
O4R C7R 1_555 1_555
O5R C7R 1_555 1_555
C1R C2R 1_555 1_555
C2R H1R 1_555 1_555
C3R C2R 1_555 1_555
C4R C1R 1_555 1_555
H2R C4R 1_555 1_555
C5R C4R 1_555 1_555
H3R C5R 1_555 1_555
C6R C3R 1_555 1_555
N1A C6R 1_555 1_555
C7R C1R 1_555 1_555
C8R N1A 1_555 1_555
C9R C8R 1_555 1_555
H4R C9R 1_555 1_555
C10R C9R 1_555 1_555
H5R C10R 1_555 1_555
C11A C10R 1_555 1_555
C12R C11A 1_555 1_555
H6R C12R 1_555 1_555
C13R C8R 1_555 1_555
O6R C14R 1_555 1_555
C14R C11A 1_555 1_555
O7R C14R 1_555 1_555
O4A C7A 1_555 1_555
O5A C7A 1_555 1_555
C1A C2A 1_555 1_555
C2A H1A 1_555 1_555
C3A C3R 1_555 1_555
C4A C1A 1_555 1_555
H2A C4A 1_555 1_555
C5A C4A 1_555 1_555
H3A C5A 1_555 1_555
C6A N1A 1_555 1_555
C7A C1A 1_555 1_555
C8A N1A 1_555 1_555
C9A C8R 1_555 1_555
H4A C9A 1_555 1_555
C10A C10R 1_555 1_555
H5A C10A 1_555 1_555
C12A C11A 1_555 1_555
H6A C12A 1_555 1_555
C13A C8R 1_555 1_555
O6A C14R 1_555 1_555
C14A C11A 1_555 1_555
O7A C14R 1_555 1_555
O8E C16E 1_555 1_555
N2E C15E 1_555 1_555
C15E H7U 1_555 1_555
H8E C15E 1_555 1_555
C16E N2E 1_555 1_555
H9E C16E 1_555 1_555
C17E N2E 1_555 1_555
H10U C17E 1_555 1_555
H11E C17E 1_555 1_555
H7E C15E 1_555 1_555
H10E C17E 1_555 1_555
O8A C16A 1_555 1_555
N2A C15A 1_555 1_555
C15A H7A 1_555 1_555
H8A C15A 1_555 1_555
C16A N2A 1_555 1_555
H9A C16A 1_555 1_555
C17A N2A 1_555 1_555
H10A C17A 1_555 1_555
H11A C17A 1_555 1_555
H7W C15A 1_555 1_555
H10W C17A 1_555 1_555
O4E C7E 1_555 1_555
O5E C7E 1_555 1_555
C1E C2E 1_555 1_555
C2E H1E 1_555 1_555
C3E C2E 1_555 1_555
C4E C1E 1_555 1_555
H2E C4E 1_555 1_555
C5E C4E 1_555 1_555
H3E C5E 1_555 1_555
C6E C3E 1_555 1_555
N1E C6E 1_555 1_555
C7E C1E 1_555 1_555
C8E N1E 1_555 1_555
C9E C8E 1_555 1_555
H4E C9E 1_555 1_555
C10E C9E 1_555 1_555
H5E C10E 1_555 1_555
C11E C10E 1_555 1_555
C12E C11E 1_555 1_555
H6E C12E 1_555 1_555
C13E C8E 1_555 1_555
O6E C14E 1_555 1_555
C14E C11E 1_555 1_555
O7E C14E 1_555 1_555
O4S C7S 1_555 1_555
O5S C7S 1_555 1_555
C1S C2S 1_555 1_555
C2S H1S 1_555 1_555
C3S C3E 1_555 1_555
C4S C1S 1_555 1_555
H2S C4S 1_555 1_555
C5S C4S 1_555 1_555
H3S C5S 1_555 1_555
C6S N1E 1_555 1_555
C7S C1S 1_555 1_555
C8S N1E 1_555 1_555
C9S C8E 1_555 1_555
H4S C9S 1_555 1_555
C10S C10E 1_555 1_555
H5S C10S 1_555 1_555
C12S C11E 1_555 1_555
H6S C12S 1_555 1_555
C13S C8E 1_555 1_555
O6S C14E 1_555 1_555
C14S C11E 1_555 1_555
O7S C14E 1_555 1_555
O8D C16D 1_555 1_555
N2D C15D 1_555 1_555
C15D H7S 1_555 1_555
H8D C15D 1_555 1_555
C16D N2D 1_555 1_555
H9D C16D 1_555 1_555
C17D N2D 1_555 1_555
H10S C17D 1_555 1_555
H11D C17D 1_555 1_555
H7D C15D 1_555 1_555
H10D C17D 1_555 1_555
O4W C7W 1_555 1_555
O5W C7W 1_555 1_555
C1W C2W 1_555 1_555
C2W H1W 1_555 1_555
C3W C2W 1_555 1_555
C4W C1W 1_555 1_555
H2W C4W 1_555 1_555
C5W C4W 1_555 1_555
H3W C5W 1_555 1_555
C6W C3W 1_555 1_555
N1B C6W 1_555 1_555
C7W C1W 1_555 1_555
C8W N1B 1_555 1_555
C9W C8W 1_555 1_555
H4W C9W 1_555 1_555
C10W C9W 1_555 1_555
H5W C10W 1_555 1_555
C11B C10W 1_555 1_555
C12W C11B 1_555 1_555
H6W C12W 1_555 1_555
C13W C8W 1_555 1_555
O6W C14W 1_555 1_555
C14W C11B 1_555 1_555
O7W C14W 1_555 1_555
O4B C7B 1_555 1_555
O5B C7B 1_555 1_555
C1B C2B 1_555 1_555
C2B H1B 1_555 1_555
C3B C3W 1_555 1_555
C4B C1B 1_555 1_555
H2B C4B 1_555 1_555
C5B C4B 1_555 1_555
H3B C5B 1_555 1_555
C6B N1B 1_555 1_555
C7B C1B 1_555 1_555
C8B N1B 1_555 1_555
C9B C8W 1_555 1_555
H4B C9B 1_555 1_555
C10B C10W 1_555 1_555
H5B C10B 1_555 1_555
C12B C11B 1_555 1_555
H6B C12B 1_555 1_555
C13B C8W 1_555 1_555
O6B C14W 1_555 1_555
C14B C11B 1_555 1_555
O7B C14W 1_555 1_555
O8B C16B 1_555 1_555
N2B C15B 1_555 1_555
C15B H7B 1_555 1_555
H8B C15B 1_555 1_555
C16B N2B 1_555 1_555
H9B C16B 1_555 1_555
C17B N2B 1_555 1_555
H10B C17B 1_555 1_555
H11B C17B 1_555 1_555
H7T C15B 1_555 1_555
H10T C17B 1_555 1_555
O4D C7D 1_555 1_555
O5D C7D 1_555 1_555
C1D C2D 1_555 1_555
C2D H1D 1_555 1_555
C3D C2D 1_555 1_555
C4D C1D 1_555 1_555
H2D C4D 1_555 1_555
C5D C4D 1_555 1_555
H3D C5D 1_555 1_555
C6D C3D 1_555 1_555
N1D C6D 1_555 1_555
C7D C1D 1_555 1_555
C8D N1D 1_555 1_555
C9D C8D 1_555 1_555
H4D C9D 1_555 1_555
C10D C9D 1_555 1_555
H5D C10D 1_555 1_555
C11D C10D 1_555 1_555
C12D C11D 1_555 1_555
H6D C12D 1_555 1_555
C13D C8D 1_555 1_555
O6D C14D 1_555 1_555
C14D C11D 1_555 1_555
O7D C14D 1_555 1_555
O4V C7V 1_555 1_555
O5V C7V 1_555 1_555
C1V C2V 1_555 1_555
C2V H1V 1_555 1_555
C3V C3D 1_555 1_555
C4V C1V 1_555 1_555
H2V C4V 1_555 1_555
C5V C4V 1_555 1_555
H3V C5V 1_555 1_555
C6V N1D 1_555 1_555
C7V C1V 1_555 1_555
C8V N1D 1_555 1_555
C9V C8D 1_555 1_555
H4V C9V 1_555 1_555
C10V C10D 1_555 1_555
H5V C10V 1_555 1_555
C12V C11D 1_555 1_555
H6V C12V 1_555 1_555
C13V C8D 1_555 1_555
O6V C14D 1_555 1_555
C14V C11D 1_555 1_555
O7V C14D 1_555 1_555
O4T C7T 1_555 1_555
O5T C7T 1_555 1_555
C1T C2T 1_555 1_555
C2T H1T 1_555 1_555
C3T C2T 1_555 1_555
C4T C1T 1_555 1_555
H2T C4T 1_555 1_555
C5T C4T 1_555 1_555
H3T C5T 1_555 1_555
C6T C3T 1_555 1_555
N1C C6T 1_555 1_555
C7T C1T 1_555 1_555
C8T N1C 1_555 1_555
C9T C8T 1_555 1_555
H4T C9T 1_555 1_555
C10T C9T 1_555 1_555
H5T C10T 1_555 1_555
C11C C10T 1_555 1_555
C12T C11C 1_555 1_555
H6T C12T 1_555 1_555
C13T C8T 1_555 1_555
O6T C14T 1_555 1_555
C14T C11C 1_555 1_555
O7T C14T 1_555 1_555
O4C C7C 1_555 1_555
O5C C7C 1_555 1_555
C1C C2C 1_555 1_555
C2C H1C 1_555 1_555
C3C C3T 1_555 1_555
C4C C1C 1_555 1_555
H2C C4C 1_555 1_555
C5C C4C 1_555 1_555
H3C C5C 1_555 1_555
C6C N1C 1_555 1_555
C7C C1C 1_555 1_555
C8C N1C 1_555 1_555
C9C C8T 1_555 1_555
H4C C9C 1_555 1_555
C10C C10T 1_555 1_555
H5C C10C 1_555 1_555
C12C C11C 1_555 1_555
H6C C12C 1_555 1_555
C13C C8T 1_555 1_555
O6C C14T 1_555 1_555
C14C C11C 1_555 1_555
O7C C14T 1_555 1_555
O8C C16C 1_555 1_555
N2C C15C 1_555 1_555
C15C H7V 1_555 1_555
H8C C15C 1_555 1_555
C16C N2C 1_555 1_555
H9C C16C 1_555 1_555
C17C N2C 1_555 1_555
H10V C17C 1_555 1_555
H11C C17C 1_555 1_555
H7C C15C 1_555 1_555
H10C C17C 1_555 1_555
C5 C6 1_555 1_555
C9 C8U 1_555 1_555
C9 C9U 1_555 1_555
C11 C10U 1_555 1_555
C12 C13 1_555 1_555
C12 C12U 1_555 1_555
C13 C8U 1_555 1_555
C13 C13U 1_555 1_555
O6 C14U 1_555 1_555
O7 C14U 1_555 1_555
C2U C3U 1_555 1_555
C3U C6U 1_555 1_555
C5U C6U 1_555 1_555
C8U C9U 1_555 1_555
C8U C13U 1_555 1_555
C9U C10U 1_555 1_555
C12U C13U 1_555 1_555
O6U C14U 1_555 1_555
C14U O7U 1_555 1_555
C5R C6R 1_555 1_555
C9R C8A 1_555 1_555
C9R C9A 1_555 1_555
C11A C10A 1_555 1_555
C12R C13R 1_555 1_555
C12R C12A 1_555 1_555
C13R C8A 1_555 1_555
C13R C13A 1_555 1_555
O6R C14A 1_555 1_555
O7R C14A 1_555 1_555
C2A C3A 1_555 1_555
C3A C6A 1_555 1_555
C5A C6A 1_555 1_555
C8A C9A 1_555 1_555
C8A C13A 1_555 1_555
C9A C10A 1_555 1_555
C12A C13A 1_555 1_555
O6A C14A 1_555 1_555
C14A O7A 1_555 1_555
C5E C6E 1_555 1_555
C9E C8S 1_555 1_555
C9E C9S 1_555 1_555
C11E C10S 1_555 1_555
C12E C13E 1_555 1_555
C12E C12S 1_555 1_555
C13E C8S 1_555 1_555
C13E C13S 1_555 1_555
O6E C14S 1_555 1_555
O7E C14S 1_555 1_555
C2S C3S 1_555 1_555
C3S C6S 1_555 1_555
C5S C6S 1_555 1_555
C8S C9S 1_555 1_555
C8S C13S 1_555 1_555
C9S C10S 1_555 1_555
C12S C13S 1_555 1_555
O6S C14S 1_555 1_555
C14S O7S 1_555 1_555
C5W C6W 1_555 1_555
C9W C8B 1_555 1_555
C9W C9B 1_555 1_555
C11B C10B 1_555 1_555
C12W C13W 1_555 1_555
C12W C12B 1_555 1_555
C13W C8B 1_555 1_555
C13W C13B 1_555 1_555
O6W C14B 1_555 1_555
O7W C14B 1_555 1_555
C2B C3B 1_555 1_555
C3B C6B 1_555 1_555
C5B C6B 1_555 1_555
C8B C9B 1_555 1_555
C8B C13B 1_555 1_555
C9B C10B 1_555 1_555
C12B C13B 1_555 1_555
O6B C14B 1_555 1_555
C14B O7B 1_555 1_555
C5D C6D 1_555 1_555
C9D C8V 1_555 1_555
C9D C9V 1_555 1_555
C11D C10V 1_555 1_555
C12D C13D 1_555 1_555
C12D C12V 1_555 1_555
C13D C8V 1_555 1_555
C13D C13V 1_555 1_555
O6D C14V 1_555 1_555
O7D C14V 1_555 1_555
C2V C3V 1_555 1_555
C3V C6V 1_555 1_555
C5V C6V 1_555 1_555
C8V C9V 1_555 1_555
C8V C13V 1_555 1_555
C9V C10V 1_555 1_555
C12V C13V 1_555 1_555
O6V C14V 1_555 1_555
C14V O7V 1_555 1_555
C5T C6T 1_555 1_555
C9T C8C 1_555 1_555
C9T C9C 1_555 1_555
C11C C10C 1_555 1_555
C12T C13T 1_555 1_555
C12T C12C 1_555 1_555
C13T C8C 1_555 1_555
C13T C13C 1_555 1_555
O6T C14C 1_555 1_555
O7T C14C 1_555 1_555
C2C C3C 1_555 1_555
C3C C6C 1_555 1_555
C5C C6C 1_555 1_555
C8C C9C 1_555 1_555
C8C C13C 1_555 1_555
C9C C10C 1_555 1_555
C12C C13C 1_555 1_555
O6C C14C 1_555 1_555
C14C O7C 1_555 1_555

#END
