
#######################################################################
#
#                 Cambridge Crystallographic Data Centre
#                                CCDC 
#
#######################################################################
#
# If this CIF has been generated from an entry in the Cambridge 
# Structural Database, then it will include bibliographic, chemical, 
# crystal, experimental, refinement or atomic coordinate data resulting 
# from the CCDC's data processing and validation procedures.
#
#######################################################################

data_KEYFIF01
_chemical_formula_moiety         '(C9 H7 Cu1 N1 O3)n'
_symmetry_cell_setting           rhombohedral
_symmetry_space_group_name_H-M   'R -3'
_symmetry_Int_Tables_number      148
_space_group_name_Hall           '-R 3'
loop_
_symmetry_equiv_pos_site_id
_symmetry_equiv_pos_as_xyz
1 x,y,z
2 -y,x-y,z
3 -x+y,-x,z
4 2/3+x,1/3+y,1/3+z
5 2/3-y,1/3+x-y,1/3+z
6 2/3-x+y,1/3-x,1/3+z
7 1/3+x,2/3+y,2/3+z
8 1/3-y,2/3+x-y,2/3+z
9 1/3-x+y,2/3-x,2/3+z
10 -x,-y,-z
11 y,-x+y,-z
12 x-y,x,-z
13 1/3-x,2/3-y,2/3-z
14 1/3+y,2/3-x+y,2/3-z
15 1/3+x-y,2/3+x,2/3-z
16 2/3-x,1/3-y,1/3-z
17 2/3+y,1/3-x+y,1/3-z
18 2/3+x-y,1/3+x,1/3-z
_cell_length_a                   26.9848(10)
_cell_length_b                   26.9848(10)
_cell_length_c                   6.9461(2)
_cell_angle_alpha                90
_cell_angle_beta                 90
_cell_angle_gamma                120
_cell_volume                     4380.36
loop_
_atom_site_label
_atom_site_type_symbol
_atom_site_fract_x
_atom_site_fract_y
_atom_site_fract_z
_atom_site_U_iso_or_equiv
_atom_site_thermal_displace_type
Cu1 Cu 0.345939(17) 0.123933(16) 0.26206(5) 0.0303 Uani
N1 N 0.33152(10) 0.09334(10) 0.5199(3) 0.0311 Uani
O1 O 0.29470(8) 0.15488(8) 0.2917(3) 0.0321 Uani
O2 O 0.40009(10) 0.09679(11) 0.2535(3) 0.0444 Uani
O3 O 0.43789(11) 0.05440(11) 0.4215(3) 0.0504 Uani
C1 C 0.25541(12) 0.11191(11) 0.5991(4) 0.0339 Uani
C2 C 0.25457(12) 0.13949(11) 0.4269(4) 0.0323 Uani
C3 C 0.20936(15) 0.15095(15) 0.4028(6) 0.0490 Uani
H1 H 0.2063 0.1670 0.2881 0.0590 Uiso
C4 C 0.16954(16) 0.13871(17) 0.5465(7) 0.0609 Uani
H2 H 0.1404 0.1470 0.5273 0.0730 Uiso
C5 C 0.17223(17) 0.11428(18) 0.7186(6) 0.0617 Uani
H3 H 0.1457 0.1071 0.8156 0.0740 Uiso
C6 C 0.21431(15) 0.10076(14) 0.7444(5) 0.0468 Uani
H4 H 0.2160 0.0840 0.8593 0.0560 Uiso
C7 C 0.29512(12) 0.09229(12) 0.6392(4) 0.0333 Uani
H5 H 0.2941 0.0777 0.7614 0.0400 Uiso
C8 C 0.36848(14) 0.07068(14) 0.5762(4) 0.0381 Uani
H6 H 0.3453 0.0313 0.6183 0.0460 Uiso
H7 H 0.3928 0.0928 0.6825 0.0460 Uiso
C9 C 0.40514(13) 0.07360(13) 0.4064(4) 0.0352 Uani
Cu1E Cu 0.444661(23) -0.012606(17) 0.59539(5) 0.0303 Uani
Cu1O Cu 0.320728(17) 0.209400(16) 0.07127(5) 0.0303 Uani
O1O O 0.37197(8) 0.17845(8) 0.0416(3) 0.0321 Uani
O3G O 0.27893(11) 0.05016(16) 0.0882(3) 0.0504 Uani
loop_
_atom_site_aniso_label
_atom_site_aniso_U_11
_atom_site_aniso_U_22
_atom_site_aniso_U_33
_atom_site_aniso_U_23
_atom_site_aniso_U_13
_atom_site_aniso_U_12
Cu1 0.0422(3) 0.0325(3) 0.0258(3) 0.00146(14) -0.00055(15) 0.02597(19)
N1 0.0400(12) 0.0323(11) 0.0263(11) 0.0007(8) -0.0029(9) 0.0220(10)
O1 0.0394(10) 0.0314(9) 0.0335(10) 0.0057(7) 0.0042(8) 0.0236(8)
O2 0.0624(14) 0.0611(14) 0.0336(10) 0.0120(10) 0.0086(10) 0.0487(12)
O3 0.0633(15) 0.0724(16) 0.0415(12) 0.0163(11) 0.0097(11) 0.0535(14)
C1 0.0345(14) 0.0276(12) 0.0382(15) 0.0005(10) 0.0032(11) 0.0144(11)
C2 0.0330(13) 0.0253(12) 0.0388(14) 0.0007(10) 0.0018(11) 0.0147(10)
C3 0.0435(17) 0.0480(18) 0.064(2) 0.0175(15) 0.0088(15) 0.0293(15)
C4 0.0464(19) 0.063(2) 0.087(3) 0.023(2) 0.0200(18) 0.0377(18)
C5 0.056(2) 0.066(2) 0.074(3) 0.024(2) 0.0309(19) 0.0386(19)
C6 0.0506(18) 0.0459(17) 0.0472(18) 0.0116(14) 0.0156(15) 0.0266(15)
C7 0.0396(14) 0.0309(13) 0.0290(13) 0.0032(10) 0.0008(11) 0.0173(11)
C8 0.0502(17) 0.0513(17) 0.0269(13) 0.0028(12) -0.0030(12) 0.0360(15)
C9 0.0436(15) 0.0385(14) 0.0323(14) 0.0017(11) -0.0013(11) 0.0272(13)
Cu1E 0.02276 0.0422 0.0258 0.00055 0.00201 0.01623
Cu1O 0.0422 0.0325 0.0258 0.00146 -0.00055 0.02597
O1O 0.0394 0.0314 0.0335 0.0057 0.0042 0.0236
O3G 0.0724 0.0287 0.0415 -0.0066 -0.0163 0.0189
loop_
_geom_bond_atom_site_label_1
_geom_bond_atom_site_label_2
_geom_bond_site_symmetry_1
_geom_bond_site_symmetry_2
Cu1 N1 1_555 1_555
N1 C7 1_555 1_555
O1 Cu1 1_555 1_555
O2 Cu1 1_555 1_555
O3 C9 1_555 1_555
C1 C2 1_555 1_555
C2 O1 1_555 1_555
C3 C2 1_555 1_555
H1 C3 1_555 1_555
C4 C3 1_555 1_555
H2 C4 1_555 1_555
C5 C4 1_555 1_555
H3 C5 1_555 1_555
C6 C1 1_555 1_555
H4 C6 1_555 1_555
C7 C1 1_555 1_555
H5 C7 1_555 1_555
C8 N1 1_555 1_555
H6 C8 1_555 1_555
H7 C8 1_555 1_555
C9 O2 1_555 1_555
Cu1E O3 1_555 1_555
Cu1O O1 1_555 1_555
O1O Cu1 1_555 1_555
O3G Cu1 1_555 1_555
C5 C6 1_555 1_555
C8 C9 1_555 1_555
Cu1O O1O 1_555 1_555

#END
