
#######################################################################
#
#                 Cambridge Crystallographic Data Centre
#                                CCDC 
#
#######################################################################
#
# If this CIF has been generated from an entry in the Cambridge 
# Structural Database, then it will include bibliographic, chemical, 
# crystal, experimental, refinement or atomic coordinate data resulting 
# from the CCDC's data processing and validation procedures.
#
#######################################################################

data_KEYFIF
_chemical_formula_moiety         '(C9 H7 Cu1 N1 O3)n'
_symmetry_cell_setting           rhombohedral
_symmetry_space_group_name_H-M   'R -3'
_symmetry_Int_Tables_number      148
_space_group_name_Hall           '-R 3'
loop_
_symmetry_equiv_pos_site_id
_symmetry_equiv_pos_as_xyz
1 x,y,z
2 -y,x-y,z
3 -x+y,-x,z
4 2/3+x,1/3+y,1/3+z
5 2/3-y,1/3+x-y,1/3+z
6 2/3-x+y,1/3-x,1/3+z
7 1/3+x,2/3+y,2/3+z
8 1/3-y,2/3+x-y,2/3+z
9 1/3-x+y,2/3-x,2/3+z
10 -x,-y,-z
11 y,-x+y,-z
12 x-y,x,-z
13 1/3-x,2/3-y,2/3-z
14 1/3+y,2/3-x+y,2/3-z
15 1/3+x-y,2/3+x,2/3-z
16 2/3-x,1/3-y,1/3-z
17 2/3+y,1/3-x+y,1/3-z
18 2/3+x-y,1/3+x,1/3-z
_cell_length_a                   27.0212(12)
_cell_length_b                   27.0212(12)
_cell_length_c                   6.9705(6)
_cell_angle_alpha                90
_cell_angle_beta                 90
_cell_angle_gamma                120
_cell_volume                     4407.62
loop_
_atom_site_label
_atom_site_type_symbol
_atom_site_fract_x
_atom_site_fract_y
_atom_site_fract_z
_atom_site_U_iso_or_equiv
_atom_site_thermal_displace_type
Cu1 Cu 0.320807(12) 0.209472(12) 1.07174(4) 0.0283 Uani
N1 N 0.33525(8) 0.24020(8) 0.8145(3) 0.0290 Uani
O1 O 0.37203(7) 0.17849(7) 1.0420(2) 0.0306 Uani
O2 O 0.26646(9) 0.23669(9) 1.0800(2) 0.0436 Uani
O3 O 0.22904(9) 0.27919(10) 0.9131(3) 0.0488 Uani
C1 C 0.41110(10) 0.22118(10) 0.7342(4) 0.0317 Uani
C2 C 0.41206(10) 0.19353(10) 0.9065(3) 0.0311 Uani
C3 C 0.45673(12) 0.18167(13) 0.9290(4) 0.0465 Uani
H1 H 0.4597 0.1654 1.0429 0.0560 Uiso
C4 C 0.49632(14) 0.19370(15) 0.7855(5) 0.0593 Uani
H2 H 0.5254 0.1854 0.8044 0.0720 Uiso
C5 C 0.49348(15) 0.21808(15) 0.6132(5) 0.0603 Uani
H3 H 0.5196 0.2248 0.5156 0.0730 Uiso
C6 C 0.45171(13) 0.23190(12) 0.5896(4) 0.0452 Uani
H4 H 0.4500 0.2488 0.4755 0.0540 Uiso
C7 C 0.37135(11) 0.24098(10) 0.6959(3) 0.0312 Uani
H5 H 0.3722 0.2555 0.5742 0.0370 Uiso
C8 C 0.29851(12) 0.26304(12) 0.7599(3) 0.0368 Uani
H6 H 0.2745 0.2414 0.6528 0.0440 Uiso
H7 H 0.3218 0.3025 0.7196 0.0440 Uiso
C9 C 0.26138(11) 0.25966(11) 0.9279(3) 0.0339 Uani
Cu1H Cu 0.221998(17) 0.345860(12) 0.73841(4) 0.0283 Uani
Cu1O Cu 0.345860(12) 0.123861(12) 1.26159(4) 0.0283 Uani
O1O O 0.29464(7) 0.15484(7) 1.2913(2) 0.0306 Uani
O3D O 0.38748(10) 0.28318(13) 1.2464(3) 0.0488 Uani
loop_
_atom_site_aniso_label
_atom_site_aniso_U_11
_atom_site_aniso_U_22
_atom_site_aniso_U_33
_atom_site_aniso_U_23
_atom_site_aniso_U_13
_atom_site_aniso_U_12
Cu1 0.0412(2) 0.03091(19) 0.02219(19) 0.00170(10) -0.00042(10) 0.02511(14)
N1 0.0376(11) 0.0292(10) 0.0238(9) 0.0004(7) -0.0019(8) 0.0194(9)
O1 0.0387(9) 0.0298(8) 0.0304(8) 0.0058(6) 0.0042(7) 0.0224(7)
O2 0.0645(12) 0.0614(12) 0.0290(9) 0.0112(8) 0.0080(8) 0.0496(11)
O3 0.0616(13) 0.0723(14) 0.0384(10) 0.0159(9) 0.0090(9) 0.0530(12)
C1 0.0339(12) 0.0247(11) 0.0335(12) 0.0014(9) 0.0033(10) 0.0124(10)
C2 0.0326(12) 0.0231(11) 0.0367(12) 0.0010(9) 0.0013(10) 0.0132(10)
C3 0.0418(15) 0.0479(16) 0.0567(17) 0.0175(13) 0.0093(12) 0.0275(13)
C4 0.0478(17) 0.064(2) 0.080(2) 0.0243(17) 0.0207(16) 0.0384(16)
C5 0.0530(18) 0.066(2) 0.072(2) 0.0229(17) 0.0308(16) 0.0373(17)
C6 0.0491(16) 0.0427(15) 0.0464(15) 0.0114(12) 0.0137(13) 0.0249(13)
C7 0.0391(13) 0.0291(12) 0.0243(11) 0.0018(9) -0.0019(10) 0.0163(10)
C8 0.0486(15) 0.0490(15) 0.0253(11) 0.0038(10) -0.0021(10) 0.0338(13)
C9 0.0448(14) 0.0373(13) 0.0288(12) 0.0023(10) -0.0006(10) 0.0274(12)
Cu1H 0.02189 0.0412 0.02219 0.00042 0.00212 0.01609
Cu1O 0.0412 0.03091 0.02219 0.0017 -0.00042 0.02511
O1O 0.0387 0.0298 0.0304 0.0058 0.0042 0.0224
O3D 0.0723 0.0279 0.0384 -0.0069 -0.0159 0.0193
loop_
_geom_bond_atom_site_label_1
_geom_bond_atom_site_label_2
_geom_bond_site_symmetry_1
_geom_bond_site_symmetry_2
Cu1 N1 1_555 1_555
N1 C7 1_555 1_555
O1 Cu1 1_555 1_555
O2 Cu1 1_555 1_555
O3 C9 1_555 1_555
C1 C2 1_555 1_555
C2 O1 1_555 1_555
C3 C2 1_555 1_555
H1 C3 1_555 1_555
C4 C3 1_555 1_555
H2 C4 1_555 1_555
C5 C4 1_555 1_555
H3 C5 1_555 1_555
C6 C1 1_555 1_555
H4 C6 1_555 1_555
C7 C1 1_555 1_555
H5 C7 1_555 1_555
C8 N1 1_555 1_555
H6 C8 1_555 1_555
H7 C8 1_555 1_555
C9 O2 1_555 1_555
Cu1H O3 1_555 1_555
Cu1O O1 1_555 1_555
O1O Cu1 1_555 1_555
O3D Cu1 1_555 1_555
C5 C6 1_555 1_555
C8 C9 1_555 1_555
Cu1O O1O 1_555 1_555

#END
