
#######################################################################
#
#                 Cambridge Crystallographic Data Centre
#                                CCDC 
#
#######################################################################
#
# If this CIF has been generated from an entry in the Cambridge 
# Structural Database, then it will include bibliographic, chemical, 
# crystal, experimental, refinement or atomic coordinate data resulting 
# from the CCDC's data processing and validation procedures.
#
#######################################################################

data_LATYOX
_chemical_formula_moiety         '(C28 H24 I1 N4 O8 Zn1 1+)n'
_symmetry_cell_setting           monoclinic
_symmetry_space_group_name_H-M   'P 2/n'
_symmetry_Int_Tables_number      13
_space_group_name_Hall           '-P 2yac'
loop_
_symmetry_equiv_pos_site_id
_symmetry_equiv_pos_as_xyz
1 x,y,z
2 1/2-x,y,1/2-z
3 -x,-y,-z
4 1/2+x,-y,1/2+z
_cell_length_a                   18.7223(11)
_cell_length_b                   5.7758(4)
_cell_length_c                   20.8283(14)
_cell_angle_alpha                90
_cell_angle_beta                 91.165(6)
_cell_angle_gamma                90
_cell_volume                     2251.83
loop_
_atom_site_label
_atom_site_type_symbol
_atom_site_fract_x
_atom_site_fract_y
_atom_site_fract_z
Zn1 Zn 0.7500 0.7326(2) 0.2500
O1 O 0.7581(3) 0.9523(11) 0.3213(3)
O2 O 0.6413(3) 0.9780(12) 0.3376(3)
O3 O 0.6687(3) 0.5197(11) 0.2589(3)
O4 O 0.6575(4) 0.5117(12) 0.1527(3)
N1 N 0.6566(5) 1.2823(15) 0.4340(4)
N2 N 0.5539(5) 0.1896(17) 0.1523(5)
C1 C 0.7035(5) 1.0277(15) 0.3501(4)
C2 C 0.7217(6) 1.1897(19) 0.4053(5)
H1 H 0.7499 1.1052 0.4385
H2 H 0.7512 1.3193 0.3896
C3 C 0.6246(6) 1.4631(19) 0.4075(5)
H3 H 0.6441 1.5316 0.3703
C4 C 0.5628(7) 1.5552(19) 0.4333(5)
H4 H 0.5403 1.6864 0.4142
C5 C 0.5345(5) 1.4531(17) 0.4871(4)
C6 C 0.5695(8) 1.263(2) 0.5129(5)
H5 H 0.5506 1.1882 0.5494
C7 C 0.6299(7) 1.1838(19) 0.4872(5)
H6 H 0.6541 1.0567 0.5067
C8 C 0.6402(5) 0.4478(15) 0.2070(4)
C9 C 0.5799(6) 0.272(2) 0.2161(5)
H7 H 0.5976 0.1399 0.2420
H8 H 0.5402 0.3461 0.2393
C10 C 0.5013(8) 0.302(3) 0.1219(8)
H9 H 0.4798 0.4322 0.1415
C11 C 0.4782(9) 0.231(3) 0.0631(8)
H10 H 0.4403 0.3115 0.0417
C12 C 0.5100(6) 0.0415(19) 0.0338(5)
C13 C 0.5657(5) -0.0690(19) 0.0669(5)
H11 H 0.5907 -0.1931 0.0476
C14 C 0.5841(5) 0.0044(18) 0.1280(5)
H12 H 0.6187 -0.0791 0.1527
O1B O 0.2419(3) 2.0477(11) 0.6787(3)
O2B O 0.3587(3) 2.0220(12) 0.6624(3)
N1B N 0.3434(5) 1.7177(15) 0.5660(4)
C1B C 0.2965(5) 1.9723(15) 0.6499(4)
C2B C 0.2783(6) 1.8103(19) 0.5947(5)
H1B H 0.2501 1.8948 0.5615
H2B H 0.2488 1.6807 0.6104
C3B C 0.3754(6) 1.5369(19) 0.5925(5)
H3B H 0.3559 1.4684 0.6297
C4B C 0.4372(7) 1.4448(19) 0.5667(5)
H4B H 0.4597 1.3136 0.5858
C5B C 0.4655(5) 1.5469(17) 0.5129(4)
C6B C 0.4305(8) 1.737(2) 0.4871(5)
H5B H 0.4494 1.8118 0.4506
C7B C 0.3701(7) 1.8162(19) 0.5128(5)
H6B H 0.3459 1.9433 0.4933
O3B O 0.3313(3) -0.5197(11) -0.2589(3)
O4B O 0.3425(4) -0.5117(12) -0.1527(3)
N2B N 0.4461(5) -0.1896(17) -0.1523(5)
C8B C 0.3598(5) -0.4478(15) -0.2070(4)
C9B C 0.4201(6) -0.272(2) -0.2161(5)
H7B H 0.4024 -0.1399 -0.2420
H8B H 0.4598 -0.3461 -0.2393
C10B C 0.4987(8) -0.302(3) -0.1219(8)
H9B H 0.5202 -0.4322 -0.1415
C11B C 0.5218(9) -0.231(3) -0.0631(8)
H10B H 0.5597 -0.3115 -0.0417
C12B C 0.4900(6) -0.0415(19) -0.0338(5)
C13B C 0.4343(5) 0.0690(19) -0.0669(5)
H11B H 0.4093 0.1931 -0.0476
C14B C 0.4159(5) -0.0044(18) -0.1280(5)
H12B H 0.3813 0.0791 -0.1527
Zn1B Zn 0.2500 -0.7326(2) -0.2500
Zn1B_2 Zn 0.2500 2.2674(2) 0.7500
O1A O 0.7419(3) 0.9523(11) 0.1787(3)
O3A O 0.8313(3) 0.5197(11) 0.2411(3)
I1 I 0.26207(8) 0.3088(3) 0.03968(8)
loop_
_geom_bond_atom_site_label_1
_geom_bond_atom_site_label_2
_geom_bond_site_symmetry_1
_geom_bond_site_symmetry_2
Zn1 O1 1_555 1_555
O1 C1 1_555 1_555
O2 C1 1_555 1_555
O3 Zn1 1_555 1_555
O4 C8 1_555 1_555
N1 C2 1_555 1_555
N2 C9 1_555 1_555
C1 C2 1_555 1_555
C2 H1 1_555 1_555
H2 C2 1_555 1_555
C3 N1 1_555 1_555
H3 C3 1_555 1_555
C4 C3 1_555 1_555
H4 C4 1_555 1_555
C5 C4 1_555 1_555
C6 C5 1_555 1_555
H5 C6 1_555 1_555
C7 N1 1_555 1_555
H6 C7 1_555 1_555
C8 O3 1_555 1_555
C9 C8 1_555 1_555
H7 C9 1_555 1_555
H8 C9 1_555 1_555
C10 N2 1_555 1_555
H9 C10 1_555 1_555
C11 C10 1_555 1_555
H10 C11 1_555 1_555
C12 C11 1_555 1_555
C13 C12 1_555 1_555
H11 C13 1_555 1_555
C14 N2 1_555 1_555
H12 C14 1_555 1_555
O1B C1B 1_555 1_555
O2B C1B 1_555 1_555
N1B C2B 1_555 1_555
C1B C2B 1_555 1_555
C2B H1B 1_555 1_555
H2B C2B 1_555 1_555
C3B N1B 1_555 1_555
H3B C3B 1_555 1_555
C4B C3B 1_555 1_555
H4B C4B 1_555 1_555
C5B C5 1_555 1_555
C6B C5B 1_555 1_555
H5B C6B 1_555 1_555
C7B N1B 1_555 1_555
H6B C7B 1_555 1_555
O3B C8B 1_555 1_555
O4B C8B 1_555 1_555
N2B C9B 1_555 1_555
C8B C9B 1_555 1_555
C9B H7B 1_555 1_555
H8B C9B 1_555 1_555
C10B N2B 1_555 1_555
H9B C10B 1_555 1_555
C11B C10B 1_555 1_555
H10B C11B 1_555 1_555
C12B C12 1_555 1_555
C13B C12B 1_555 1_555
H11B C13B 1_555 1_555
C14B N2B 1_555 1_555
H12B C14B 1_555 1_555
Zn1B O3B 1_555 1_555
Zn1B_2 O1B 1_555 1_555
O1A Zn1 1_555 1_555
O3A Zn1 1_555 1_555
C6 C7 1_555 1_555
C13 C14 1_555 1_555
C4B C5B 1_555 1_555
C6B C7B 1_555 1_555
C11B C12B 1_555 1_555
C13B C14B 1_555 1_555

#END
