
#######################################################################
#
#                 Cambridge Crystallographic Data Centre
#                                CCDC 
#
#######################################################################
#
# If this CIF has been generated from an entry in the Cambridge 
# Structural Database, then it will include bibliographic, chemical, 
# crystal, experimental, refinement or atomic coordinate data resulting 
# from the CCDC's data processing and validation procedures.
#
#######################################################################

data_ELUJEC
_chemical_formula_moiety         '(C32 H22 N4 O21 Tb2 Zn1)n'
_symmetry_cell_setting           orthorhombic
_symmetry_space_group_name_H-M   'I b a 2'
_symmetry_Int_Tables_number      45
_space_group_name_Hall           'I 2 -2c'
loop_
_symmetry_equiv_pos_site_id
_symmetry_equiv_pos_as_xyz
1 x,y,z
2 -x,-y,z
3 -x,y,1/2+z
4 x,-y,1/2+z
5 1/2+x,1/2+y,1/2+z
6 1/2-x,1/2-y,1/2+z
7 1/2-x,1/2+y,z
8 1/2+x,1/2-y,z
_cell_length_a                   13.368(3)
_cell_length_b                   23.922(5)
_cell_length_c                   13.092(3)
_cell_angle_alpha                90
_cell_angle_beta                 90
_cell_angle_gamma                90
_cell_volume                     4186.68
loop_
_atom_site_label
_atom_site_type_symbol
_atom_site_fract_x
_atom_site_fract_y
_atom_site_fract_z
O1 O 1.0706(6) 0.4247(4) 0.9972(7)
O2 O 1.1964(7) 0.3643(4) 0.9933(7)
C1 C 1.1578(9) 0.4108(5) 0.9650(9)
O3 O 0.8693(5) 0.5334(3) 0.5841(6)
O4 O 0.6450(5) 0.7595(2) 0.6092(12)
O5 O 0.4839(5) 0.7399(3) 0.6182(10)
C2 C 0.5732(6) 0.7250(4) 0.6111(16)
C3 C 0.6015(7) 0.6635(3) 0.6011(12)
Tb1 Tb 1.05756(2) 0.656500(14) 0.61083(8)
Zn1 Zn 1.0000 0.5000 0.6094(3)
O6 O 1.0657(6) 0.5617(4) 0.7063(7)
C4 C 0.6628(7) 0.5523(4) 0.5820(7)
H1 H 0.6837 0.5156 0.5720
C5 C 0.7320(7) 0.5945(4) 0.5939(14)
C6 C 0.7003(7) 0.6503(4) 0.6003(12)
H2 H 0.7476 0.6787 0.6040
O7 O 1.0079(7) 0.6901(4) 0.4448(7)
H3 H 0.9727 0.6627 0.4027
H4 H 0.9624 0.7220 0.4460
O8 O 1.0230(9) 0.6799(4) 0.7810(8)
H5 H 0.9594 0.6706 0.7998
H6 H 1.0646 0.6625 0.8263
C7 C 0.8436(7) 0.5830(4) 0.5956(11)
C8 C 0.5606(6) 0.5652(5) 0.5851(7)
O9 O 1.1959(7) 0.6160(4) 0.7047(8)
C9 C 1.3198(7) 0.5273(5) 0.7825(8)
H7 H 1.3549 0.5555 0.7491
C10 C 1.1634(6) 0.4892(4) 0.8451(8)
H8 H 1.0940 0.4912 0.8485
O10 O 0.8991(4) 0.6239(2) 0.6049(9)
C11 C 0.5295(7) 0.6208(4) 0.5992(10)
H9 H 0.4620 0.6291 0.6071
N1 N 1.4767(7) 0.4778(4) 0.8306(7)
N2 N 0.4831(7) 0.5240(3) 0.5811(6)
C12 C 1.2162(8) 0.5276(5) 0.7843(9)
C13 C 1.2131(8) 0.4485(5) 0.8999(10)
C14 C 1.3710(8) 0.4835(4) 0.8321(8)
C15 C 1.3177(8) 0.4438(5) 0.8865(9)
H10 H 1.3513 0.4135 0.9148
C16 C 1.1559(8) 0.5717(5) 0.7261(9)
O1A O 1.9294(6) 0.5753(4) 0.9972(7)
O2A O 1.8036(7) 0.6357(4) 0.9933(7)
C1A C 1.8422(9) 0.5892(5) 0.9650(9)
O6A O 1.9343(6) 0.4383(4) 0.7063(7)
O9A O 1.8041(7) 0.3840(4) 0.7047(8)
C9A C 1.6802(7) 0.4727(5) 0.7825(8)
H7A H 1.6451 0.4445 0.7491
C10A C 1.8366(6) 0.5108(4) 0.8451(8)
H8A H 1.9060 0.5088 0.8485
N1A N 1.5233(7) 0.5222(4) 0.8306(7)
C12A C 1.7838(8) 0.4724(5) 0.7843(9)
C13A C 1.7869(8) 0.5515(5) 0.8999(10)
C14A C 1.6290(8) 0.5165(4) 0.8321(8)
C15A C 1.6823(8) 0.5562(5) 0.8865(9)
H10A H 1.6487 0.5865 0.9148
C16A C 1.8441(8) 0.4283(5) 0.7261(9)
O3A O 0.1307(5) 0.4666(3) 0.5841(6)
O4A O 0.3550(5) 0.2405(2) 0.6092(12)
O5A O 0.5161(5) 0.2601(3) 0.6182(10)
C2A C 0.4268(6) 0.2750(4) 0.6111(16)
C3A C 0.3985(7) 0.3365(3) 0.6011(12)
C4A C 0.3372(7) 0.4477(4) 0.5820(7)
H1A H 0.3163 0.4844 0.5720
C5A C 0.2680(7) 0.4055(4) 0.5939(14)
C6A C 0.2997(7) 0.3497(4) 0.6003(12)
H2A H 0.2524 0.3213 0.6040
C7A C 0.1564(7) 0.4170(4) 0.5956(11)
C8A C 0.4394(6) 0.4348(5) 0.5851(7)
O10A O 0.1009(4) 0.3761(2) 0.6049(9)
C11A C 0.4705(7) 0.3792(4) 0.5992(10)
H9A H 0.5380 0.3709 0.6071
N2A N 0.5169(7) 0.4760(3) 0.5811(6)
Tb1A Tb -0.05756(2) 0.343500(14) 0.61083(8)
O7A O -0.0079(7) 0.3099(4) 0.4448(7)
H3A H 0.0273 0.3373 0.4027
H4A H 0.0376 0.2780 0.4460
O8A O -0.0230(9) 0.3201(4) 0.7810(8)
H5A H 0.0406 0.3294 0.7998
H6A H -0.0646 0.3375 0.8263
O1B O -0.0706(6) 0.4247(4) 0.4972(7)
O1B_2 O 0.9294(6) 0.4247(4) 0.4972(7)
O1C O 1.0706(6) 0.5753(4) 0.4972(7)
O2B O -0.1964(7) 0.3643(4) 0.4933(7)
O2C O 1.1964(7) 0.6357(4) 0.4933(7)
O3A_2 O 1.1307(5) 0.4666(3) 0.5841(6)
O4F O -0.1450(5) 0.2595(2) 0.6092(12)
O4G O 1.1450(5) 0.7405(2) 0.6092(12)
O5F O 0.0161(5) 0.2399(3) 0.6182(10)
O5G O 0.9839(5) 0.7601(3) 0.6182(10)
Tb1A_2 Tb 1.94244(2) 0.343500(14) 0.61083(8)
Tb1B Tb 1.94244(2) 0.656500(14) 1.11083(8)
Tb1C Tb 1.05756(2) 0.343500(14) 1.11083(8)
Tb1F Tb 0.44244(2) 0.156500(14) 0.61083(8)
Tb1G Tb 0.55756(2) 0.843500(14) 0.61083(8)
Zn1_2 Zn 0.0000 0.5000 0.6094(3)
Zn1_3 Zn 2.0000 0.5000 0.6094(3)
Zn1B Zn 1.0000 0.5000 1.1094(3)
Zn1B_2 Zn 2.0000 0.5000 1.1094(3)
O6A_2 O -0.0657(6) 0.4383(4) 0.7063(7)
O6A_3 O 0.9343(6) 0.4383(4) 0.7063(7)
O9A_2 O -0.1959(7) 0.3840(4) 0.7047(8)
O11 O 1.387(2) 0.7032(13) 0.792(3)
H11 H 1.4393 0.7194 0.7708
H12 H 1.3358 0.7170 0.7625
loop_
_geom_bond_atom_site_label_1
_geom_bond_atom_site_label_2
_geom_bond_site_symmetry_1
_geom_bond_site_symmetry_2
O1 C1 1_555 1_555
O2 C1 1_555 1_555
C1 C13 1_555 1_555
O3 Zn1 1_555 1_555
O4 C2 1_555 1_555
O5 C2 1_555 1_555
C2 C3 1_555 1_555
C3 C6 1_555 1_555
Tb1 O6 1_555 1_555
Zn1 O6 1_555 1_555
O6 C16 1_555 1_555
C4 H1 1_555 1_555
C5 C4 1_555 1_555
C6 C5 1_555 1_555
H2 C6 1_555 1_555
O7 Tb1 1_555 1_555
H3 O7 1_555 1_555
H4 O7 1_555 1_555
O8 Tb1 1_555 1_555
H5 O8 1_555 1_555
H6 O8 1_555 1_555
C7 O3 1_555 1_555
C8 C4 1_555 1_555
O9 Tb1 1_555 1_555
C9 H7 1_555 1_555
C10 H8 1_555 1_555
O10 Tb1 1_555 1_555
C11 C3 1_555 1_555
H9 C11 1_555 1_555
N1 C14 1_555 1_555
N2 C8 1_555 1_555
C12 C9 1_555 1_555
C13 C10 1_555 1_555
C14 C9 1_555 1_555
C15 C13 1_555 1_555
H10 C15 1_555 1_555
C16 O9 1_555 1_555
O11 H11 1_555 1_555
H12 O11 1_555 1_555
O1A C1A 1_555 1_555
O2A C1A 1_555 1_555
C1A C13A 1_555 1_555
O6A C16A 1_555 1_555
O9A C16A 1_555 1_555
C9A H7A 1_555 1_555
C10A H8A 1_555 1_555
N1A N1 1_555 1_555
C12A C9A 1_555 1_555
C13A C10A 1_555 1_555
C14A C9A 1_555 1_555
C15A C13A 1_555 1_555
H10A C15A 1_555 1_555
C16A C12A 1_555 1_555
O3A C7A 1_555 1_555
O4A C2A 1_555 1_555
O5A C2A 1_555 1_555
C2A C3A 1_555 1_555
C3A C6A 1_555 1_555
C4A H1A 1_555 1_555
C5A C4A 1_555 1_555
C6A C5A 1_555 1_555
H2A C6A 1_555 1_555
C7A C5A 1_555 1_555
C8A C4A 1_555 1_555
O10A C7A 1_555 1_555
C11A C3A 1_555 1_555
H9A C11A 1_555 1_555
N2A N2 1_555 1_555
Tb1A O10A 1_555 1_555
O7A Tb1A 1_555 1_555
H3A O7A 1_555 1_555
H4A O7A 1_555 1_555
O8A Tb1A 1_555 1_555
H5A O8A 1_555 1_555
H6A O8A 1_555 1_555
O1B Tb1A 1_555 1_555
O1B_2 Zn1 1_555 1_555
O1C Tb1 1_555 1_555
O2B Tb1A 1_555 1_555
O2C Tb1 1_555 1_555
O3A_2 Zn1 1_555 1_555
O4F Tb1A 1_555 1_555
O4G Tb1 1_555 1_555
O5F Tb1A 1_555 1_555
O5G Tb1 1_555 1_555
Tb1A_2 O6A 1_555 1_555
Tb1B O1A 1_555 1_555
Tb1C O1 1_555 1_555
Tb1F O4A 1_555 1_555
Tb1G O4 1_555 1_555
Zn1_2 O3A 1_555 1_555
Zn1_3 O6A 1_555 1_555
Zn1B O1 1_555 1_555
Zn1B_2 O1A 1_555 1_555
O6A_2 Tb1A 1_555 1_555
O6A_3 Zn1 1_555 1_555
O9A_2 Tb1A 1_555 1_555
O2 Tb1C 1_555 1_555
O5 Tb1G 1_555 1_555
Zn1 O1C 1_555 1_555
C5 C7 1_555 1_555
C7 O10 1_555 1_555
C8 C11 1_555 1_555
C10 C12 1_555 1_555
C12 C16 1_555 1_555
C14 C15 1_555 1_555
O2A Tb1B 1_555 1_555
O9A Tb1A_2 1_555 1_555
C10A C12A 1_555 1_555
N1A C14A 1_555 1_555
C14A C15A 1_555 1_555
O5A Tb1F 1_555 1_555
C8A C11A 1_555 1_555
C8A N2A 1_555 1_555
O1B Zn1_2 1_555 1_555
Zn1_2 O6A_2 1_555 1_555

#END
