
#######################################################################
#
#                 Cambridge Crystallographic Data Centre
#                                CCDC 
#
#######################################################################
#
# If this CIF has been generated from an entry in the Cambridge 
# Structural Database, then it will include bibliographic, chemical, 
# crystal, experimental, refinement or atomic coordinate data resulting 
# from the CCDC's data processing and validation procedures.
#
#######################################################################

data_FEZQEI
_chemical_formula_moiety         '(C46 H55 Ce1 F6 N7 O14 P1)n'
_symmetry_cell_setting           hexagonal
_symmetry_space_group_name_H-M   'P 64 2 2'
_symmetry_Int_Tables_number      181
_space_group_name_Hall           'P 64 2 (0 0 2)'
loop_
_symmetry_equiv_pos_site_id
_symmetry_equiv_pos_as_xyz
1 x,y,z
2 x-y,x,2/3+z
3 -y,x-y,1/3+z
4 -x,-y,z
5 -x+y,-x,2/3+z
6 y,-x+y,1/3+z
7 -y,-x,1/3-z
8 x-y,-y,-z
9 x,x-y,2/3-z
10 y,x,1/3-z
11 -x+y,y,-z
12 -x,-x+y,2/3-z
_cell_length_a                   15.9742(3)
_cell_length_b                   15.9742(3)
_cell_length_c                   19.4383(6)
_cell_angle_alpha                90
_cell_angle_beta                 90
_cell_angle_gamma                120
_cell_volume                     4295.63
loop_
_atom_site_label
_atom_site_type_symbol
_atom_site_fract_x
_atom_site_fract_y
_atom_site_fract_z
C1 C 0.1726(4) 0.4274(4) 0.3214(3)
C2 C 0.1238(5) 0.3574(5) 0.2705(3)
C3 C 0.1633(6) 0.3063(5) 0.2422(4)
H1 H 0.1312 0.2621 0.2071
C4 C 0.2523(7) 0.3214(6) 0.2666(5)
H2 H 0.2787 0.2865 0.2472
C5 C 0.2999(6) 0.3836(6) 0.3164(4)
H3 H 0.3581 0.3908 0.3321
C6 C 0.2625(4) 0.4398(4) 0.3463(3)
C7 C 0.3172(4) 0.5112(4) 0.3968(2)
H4 H 0.3751 0.5162 0.4113
C8 C 0.3539(4) 0.6509(4) 0.4674(2)
H5 H 0.4097 0.6455 0.4820
C9 C 0.3898(5) 0.7436(4) 0.4270(3)
H6 H 0.4302 0.7438 0.3897
H7 H 0.3346 0.7442 0.4068
C10 C 0.4465(6) 0.8343(5) 0.4685(4)
H8 H 0.4623 0.8901 0.4399
H9 H 0.5065 0.8390 0.4837
C11 C -0.0216(6) 0.2752(6) 0.2038(5)
H10 H 0.0194 0.2687 0.1707
H11 H -0.0636 0.2930 0.1807
H12 H -0.0598 0.2148 0.2272
Ce1 Ce 0.0000 0.5000 0.3333
N1 N 0.2927(4) 0.5685(4) 0.4236(2)
N2 N -0.0000 0.5000 0.4927(3)
O1 O 0.1410(2) 0.4823(3) 0.34262(19)
O2 O 0.0370(3) 0.3489(3) 0.2531(2)
O3 O -0.0765(3) 0.4700(4) 0.4600(2)
O4 O -0.0000 0.5000 0.5559(3)
H13 H 0.245(4) 0.556(4) 0.415(3)
C1J C 0.2548(6) 0.4274(4) 0.6786(3)
C2J C 0.2336(7) 0.3574(5) 0.7295(3)
C3J C 0.1430(8) 0.3063(5) 0.7578(4)
H1J H 0.1309 0.2621 0.7929
C4J C 0.0691(9) 0.3214(6) 0.7334(5)
H2J H 0.0078 0.2865 0.7528
C5J C 0.0837(8) 0.3836(6) 0.6836(4)
H3J H 0.0327 0.3908 0.6679
C6J C 0.1773(6) 0.4398(4) 0.6537(3)
C7J C 0.1940(6) 0.5112(4) 0.6032(2)
H4J H 0.1411 0.5162 0.5887
C8J C 0.2970(6) 0.6509(4) 0.5326(2)
H5J H 0.2358 0.6455 0.5180
C9J C 0.3538(6) 0.7436(4) 0.5730(3)
H6J H 0.3136 0.7438 0.6103
H7J H 0.4096 0.7442 0.5932
C10J C 0.3878(8) 0.8343(5) 0.5315(4)
H8J H 0.4278 0.8901 0.5601
H9J H 0.3325 0.8390 0.5163
C11J C 0.2968(8) 0.2752(6) 0.7962(5)
H10J H 0.2493 0.2687 0.8293
H11J H 0.3566 0.2930 0.8193
H12J H 0.2746 0.2148 0.7728
N1J N 0.2758(6) 0.5685(4) 0.5764(2)
O1J O 0.3413(4) 0.4823(3) 0.65738(19)
O2J O 0.3119(4) 0.3489(3) 0.7469(2)
H13J H 0.311(6) 0.556(4) 0.585(3)
O3C O 0.0765(3) 0.5300(4) 0.4600(2)
C1C C -0.1726(4) 0.5726(4) 0.3214(3)
C2C C -0.1238(5) 0.6426(5) 0.2705(3)
C3C C -0.1633(6) 0.6937(5) 0.2422(4)
H1C H -0.1312 0.7379 0.2071
C4C C -0.2523(7) 0.6786(6) 0.2666(5)
H2C H -0.2787 0.7135 0.2472
C5C C -0.2999(6) 0.6164(6) 0.3164(4)
H3C H -0.3581 0.6092 0.3321
C6C C -0.2625(4) 0.5602(4) 0.3463(3)
C7C C -0.3172(4) 0.4888(4) 0.3968(2)
H4C H -0.3751 0.4838 0.4113
C8C C -0.3539(4) 0.3491(4) 0.4674(2)
H5C H -0.4097 0.3545 0.4820
C9C C -0.3898(5) 0.2564(4) 0.4270(3)
H6C H -0.4302 0.2562 0.3897
H7C H -0.3346 0.2558 0.4068
C10C C -0.4465(6) 0.1657(5) 0.4685(4)
H8C H -0.4623 0.1099 0.4399
H9C H -0.5065 0.1610 0.4837
C11C C 0.0216(6) 0.7248(6) 0.2038(5)
H10C H -0.0194 0.7313 0.1707
H11C H 0.0636 0.7070 0.1807
H12C H 0.0598 0.7852 0.2272
N1C N -0.2927(4) 0.4315(4) 0.4236(2)
O1C O -0.1410(2) 0.5177(3) 0.34262(19)
O2C O -0.0370(3) 0.6511(3) 0.2531(2)
H13C H -0.245(4) 0.444(4) 0.415(3)
C1G C -0.2548(6) 0.5726(4) 0.6786(3)
C2G C -0.2336(7) 0.6426(5) 0.7295(3)
C3G C -0.1430(8) 0.6937(5) 0.7578(4)
H1G H -0.1309 0.7379 0.7929
C4G C -0.0691(9) 0.6786(6) 0.7334(5)
H2G H -0.0078 0.7135 0.7528
C5G C -0.0837(8) 0.6164(6) 0.6836(4)
H3G H -0.0327 0.6092 0.6679
C6G C -0.1773(6) 0.5602(4) 0.6537(3)
C7G C -0.1940(6) 0.4888(4) 0.6032(2)
H4G H -0.1411 0.4838 0.5887
C8G C -0.2970(6) 0.3491(4) 0.5326(2)
H5G H -0.2358 0.3545 0.5180
C9G C -0.3538(6) 0.2564(4) 0.5730(3)
H6G H -0.3136 0.2562 0.6103
H7G H -0.4096 0.2558 0.5932
C10G C -0.3878(8) 0.1657(5) 0.5315(4)
H8G H -0.4278 0.1099 0.5601
H9G H -0.3325 0.1610 0.5163
C11G C -0.2968(8) 0.7248(6) 0.7962(5)
H10G H -0.2493 0.7313 0.8293
H11G H -0.3566 0.7070 0.8193
H12G H -0.2746 0.7852 0.7728
N1G N -0.2758(6) 0.4315(4) 0.5764(2)
O1G O -0.3413(4) 0.5177(3) 0.65738(19)
O2G O -0.3119(4) 0.6511(3) 0.7469(2)
H13G H -0.311(6) 0.444(4) 0.585(3)
N2H N -0.0000 0.5000 0.1740(3)
O3H O -0.0765(3) 0.4535(5) 0.2067(2)
O4H O -0.0000 0.5000 0.1108(3)
O3K O 0.0765(3) 0.5465(5) 0.2067(2)
Ce1B Ce -0.5000 0.5000 0.6666
Ce1B_2 Ce 0.5000 0.5000 0.6666
O1H O 0.1410(2) 0.6587(4) 0.32405(19)
O1K O -0.1410(2) 0.3413(4) 0.32405(19)
C12 C 0.0990(8) 0.1979(17) 0.0000
C13 C 0.1496(11) 0.299(2) 0.0000
N3 N 0.1901(9) 0.3802(19) 0.0000
F1 F 0.0974(6) 0.0974(6) 0.1667
F2 F 0.051(2) -0.028(3) 0.107(3)
P1 P -0.0000 -0.0000 0.1667
F1C F -0.0974(6) -0.0974(6) 0.1667
F2C F -0.051(2) 0.028(3) 0.107(3)
F2F F 0.028(3) -0.051(2) 0.226(3)
F2I F -0.028(3) 0.051(2) 0.226(3)
loop_
_geom_bond_atom_site_label_1
_geom_bond_atom_site_label_2
_geom_bond_site_symmetry_1
_geom_bond_site_symmetry_2
C1 C2 1_555 1_555
C2 C3 1_555 1_555
C3 H1 1_555 1_555
C4 C3 1_555 1_555
H2 C4 1_555 1_555
C5 C4 1_555 1_555
H3 C5 1_555 1_555
C6 C1 1_555 1_555
C7 C6 1_555 1_555
H4 C7 1_555 1_555
C8 H5 1_555 1_555
C9 C8 1_555 1_555
H6 C9 1_555 1_555
H7 C9 1_555 1_555
C10 C9 1_555 1_555
H8 C10 1_555 1_555
H9 C10 1_555 1_555
C11 H10 1_555 1_555
H11 C11 1_555 1_555
H12 C11 1_555 1_555
Ce1 O1 1_555 1_555
N1 C7 1_555 1_555
N2 O3 1_555 1_555
O1 C1 1_555 1_555
O2 C2 1_555 1_555
O3 Ce1 1_555 1_555
O4 N2 1_555 1_555
H13 N1 1_555 1_555
C12 C13 1_555 1_555
C13 N3 1_555 1_555
F1 P1 1_555 1_555
F2 P1 1_555 1_555
P1 F1C 1_555 1_555
C1J C2J 1_555 1_555
C2J C3J 1_555 1_555
C3J H1J 1_555 1_555
C4J C3J 1_555 1_555
H2J C4J 1_555 1_555
C5J C4J 1_555 1_555
H3J C5J 1_555 1_555
C6J C1J 1_555 1_555
C7J C6J 1_555 1_555
H4J C7J 1_555 1_555
C8J C8 1_555 1_555
H5J C8J 1_555 1_555
C9J C8J 1_555 1_555
H6J C9J 1_555 1_555
H7J C9J 1_555 1_555
C10J C10 1_555 1_555
H8J C10J 1_555 1_555
H9J C10J 1_555 1_555
C11J H10J 1_555 1_555
H11J C11J 1_555 1_555
H12J C11J 1_555 1_555
N1J C7J 1_555 1_555
O1J C1J 1_555 1_555
O2J C2J 1_555 1_555
H13J N1J 1_555 1_555
O3C Ce1 1_555 1_555
C1C C2C 1_555 1_555
C2C C3C 1_555 1_555
C3C H1C 1_555 1_555
C4C C3C 1_555 1_555
H2C C4C 1_555 1_555
C5C C4C 1_555 1_555
H3C C5C 1_555 1_555
C6C C1C 1_555 1_555
C7C C6C 1_555 1_555
H4C C7C 1_555 1_555
C8C H5C 1_555 1_555
C9C C8C 1_555 1_555
H6C C9C 1_555 1_555
H7C C9C 1_555 1_555
C10C C9C 1_555 1_555
H8C C10C 1_555 1_555
H9C C10C 1_555 1_555
C11C H10C 1_555 1_555
H11C C11C 1_555 1_555
H12C C11C 1_555 1_555
N1C C7C 1_555 1_555
O1C Ce1 1_555 1_555
O2C C2C 1_555 1_555
H13C N1C 1_555 1_555
C1G C2G 1_555 1_555
C2G C3G 1_555 1_555
C3G H1G 1_555 1_555
C4G C3G 1_555 1_555
H2G C4G 1_555 1_555
C5G C4G 1_555 1_555
H3G C5G 1_555 1_555
C6G C1G 1_555 1_555
C7G C6G 1_555 1_555
H4G C7G 1_555 1_555
C8G C8C 1_555 1_555
H5G C8G 1_555 1_555
C9G C8G 1_555 1_555
H6G C9G 1_555 1_555
H7G C9G 1_555 1_555
C10G C10C 1_555 1_555
H8G C10G 1_555 1_555
H9G C10G 1_555 1_555
C11G H10G 1_555 1_555
H11G C11G 1_555 1_555
H12G C11G 1_555 1_555
N1G C7G 1_555 1_555
O1G C1G 1_555 1_555
O2G C2G 1_555 1_555
H13G N1G 1_555 1_555
N2H O3H 1_555 1_555
O3H Ce1 1_555 1_555
O4H N2H 1_555 1_555
O3K Ce1 1_555 1_555
Ce1B O1G 1_555 1_555
Ce1B_2 O1J 1_555 1_555
O1H Ce1 1_555 1_555
O1K Ce1 1_555 1_555
F2C P1 1_555 1_555
F2F P1 1_555 1_555
F2I P1 1_555 1_555
C5 C6 1_555 1_555
C8 N1 1_555 1_555
C11 O2 1_555 1_555
N2 O3C 1_555 1_555
C5J C6J 1_555 1_555
C8J N1J 1_555 1_555
C9J C10J 1_555 1_555
C11J O2J 1_555 1_555
C1C O1C 1_555 1_555
C5C C6C 1_555 1_555
C8C N1C 1_555 1_555
C11C O2C 1_555 1_555
C5G C6G 1_555 1_555
C8G N1G 1_555 1_555
C9G C10G 1_555 1_555
C11G O2G 1_555 1_555
N2H O3K 1_555 1_555

#END
