
#######################################################################
#
#                 Cambridge Crystallographic Data Centre
#                                CCDC 
#
#######################################################################
#
# If this CIF has been generated from an entry in the Cambridge 
# Structural Database, then it will include bibliographic, chemical, 
# crystal, experimental, refinement or atomic coordinate data resulting 
# from the CCDC's data processing and validation procedures.
#
#######################################################################

data_DOGBAE
_chemical_formula_moiety         '(C144 H116 N12 O64 Zr15)n'
_symmetry_cell_setting           cubic
_symmetry_space_group_name_H-M   'I m -3 m'
_symmetry_Int_Tables_number      229
_space_group_name_Hall           '-I 4 2 3'
loop_
_symmetry_equiv_pos_site_id
_symmetry_equiv_pos_as_xyz
1 x,y,z
2 -y,x,z
3 -x,-y,z
4 y,-x,z
5 x,-z,y
6 x,-y,-z
7 x,z,-y
8 z,y,-x
9 -x,y,-z
10 -z,y,x
11 z,x,y
12 y,z,x
13 -y,-z,x
14 z,-x,-y
15 -y,z,-x
16 -z,-x,y
17 -z,x,-y
18 y,-z,-x
19 y,x,-z
20 -y,-x,-z
21 -x,z,y
22 -x,-z,-y
23 z,-y,x
24 -z,-y,-x
25 1/2+x,1/2+y,1/2+z
26 1/2-y,1/2+x,1/2+z
27 1/2-x,1/2-y,1/2+z
28 1/2+y,1/2-x,1/2+z
29 1/2+x,1/2-z,1/2+y
30 1/2+x,1/2-y,1/2-z
31 1/2+x,1/2+z,1/2-y
32 1/2+z,1/2+y,1/2-x
33 1/2-x,1/2+y,1/2-z
34 1/2-z,1/2+y,1/2+x
35 1/2+z,1/2+x,1/2+y
36 1/2+y,1/2+z,1/2+x
37 1/2-y,1/2-z,1/2+x
38 1/2+z,1/2-x,1/2-y
39 1/2-y,1/2+z,1/2-x
40 1/2-z,1/2-x,1/2+y
41 1/2-z,1/2+x,1/2-y
42 1/2+y,1/2-z,1/2-x
43 1/2+y,1/2+x,1/2-z
44 1/2-y,1/2-x,1/2-z
45 1/2-x,1/2+z,1/2+y
46 1/2-x,1/2-z,1/2-y
47 1/2+z,1/2-y,1/2+x
48 1/2-z,1/2-y,1/2-x
49 -x,-y,-z
50 y,-x,-z
51 x,y,-z
52 -y,x,-z
53 -x,z,-y
54 -x,y,z
55 -x,-z,y
56 -z,-y,x
57 x,-y,z
58 z,-y,-x
59 -z,-x,-y
60 -y,-z,-x
61 y,z,-x
62 -z,x,y
63 y,-z,x
64 z,x,-y
65 z,-x,y
66 -y,z,x
67 -y,-x,z
68 y,x,z
69 x,-z,-y
70 x,z,y
71 -z,y,-x
72 z,y,x
73 1/2-x,1/2-y,1/2-z
74 1/2+y,1/2-x,1/2-z
75 1/2+x,1/2+y,1/2-z
76 1/2-y,1/2+x,1/2-z
77 1/2-x,1/2+z,1/2-y
78 1/2-x,1/2+y,1/2+z
79 1/2-x,1/2-z,1/2+y
80 1/2-z,1/2-y,1/2+x
81 1/2+x,1/2-y,1/2+z
82 1/2+z,1/2-y,1/2-x
83 1/2-z,1/2-x,1/2-y
84 1/2-y,1/2-z,1/2-x
85 1/2+y,1/2+z,1/2-x
86 1/2-z,1/2+x,1/2+y
87 1/2+y,1/2-z,1/2+x
88 1/2+z,1/2+x,1/2-y
89 1/2+z,1/2-x,1/2+y
90 1/2-y,1/2+z,1/2+x
91 1/2-y,1/2-x,1/2+z
92 1/2+y,1/2+x,1/2+z
93 1/2+x,1/2-z,1/2-y
94 1/2+x,1/2+z,1/2+y
95 1/2-z,1/2+y,1/2-x
96 1/2+z,1/2+y,1/2+x
_cell_length_a                   38.465(18)
_cell_length_b                   38.465(18)
_cell_length_c                   38.465(18)
_cell_angle_alpha                90
_cell_angle_beta                 90
_cell_angle_gamma                90
_cell_volume                     56911.1
loop_
_atom_site_label
_atom_site_type_symbol
_atom_site_fract_x
_atom_site_fract_y
_atom_site_fract_z
_atom_site_U_iso_or_equiv
_atom_site_thermal_displace_type
Zr1 Zr 0.27174(5) 0.20715(5) 0.20715(5) 0.1136 Uani
O1 O 0.2989(8) 0.2379(3) 0.2379(3) 0.2900 Uani
Zr2 Zr 0.5000 -0.0000 0.2500 0.1289 Uani
O2 O 0.3152(2) 0.1715(2) 0.2206(3) 0.1230 Uani
C1 C 0.3329(4) 0.1671(4) 0.2500 0.1350 Uani
C2 C 0.35964(16) 0.14036(16) 0.2500 0.1263 Uani
C3 C 0.3667(3) 0.1216(3) 0.21978(14) 0.1317 Uani
H1 H 0.3541 0.1265 0.1991 0.1580 Uiso
C4 C 0.3920(3) 0.0959(3) 0.21992(15) 0.1430 Uani
H2 H 0.3964 0.0829 0.1994 0.1710 Uiso
C5 C 0.41090(15) 0.08910(15) 0.2500 0.1427 Uani
C6 C 0.43610(17) 0.06390(17) 0.2500 0.0680 Uani
N1 N 0.5000 0.0499(6) 0.2426(7) 0.1289 Uani
C7 C 0.4721(4) 0.0726(3) 0.2384(4) 0.0610 Uani
C8 C 0.48132(13) 0.1062(3) 0.2323(5) 0.0607 Uani
H3 H 0.4663 0.1255 0.2287 0.0730 Uiso
O3 O 0.21653(15) 0.21653(15) 0.21653(15) 0.0220 Uani
O4 O 0.2473(3) 0.2019(4) 0.1514(2) 0.1690 Uani
O2QA O 0.3285(2) 0.1848(2) 0.2794(3) 0.1230 Uani
C3QA C 0.3784(3) 0.1333(3) 0.28022(14) 0.1317 Uani
H1QA H 0.3735 0.1459 0.3009 0.1580 Uiso
C4QA C 0.4041(3) 0.1080(3) 0.28008(15) 0.1430 Uani
H2QA H 0.4171 0.1036 0.3006 0.1710 Uiso
N1QA N 0.4501(6) -0.0000 0.2574(7) 0.1289 Uani
C7QA C 0.4274(3) 0.0279(4) 0.2616(4) 0.0610 Uani
C8QA C 0.3938(3) 0.01868(13) 0.2677(5) 0.0607 Uani
H3QA H 0.3745 0.0337 0.2713 0.0730 Uiso
O2AB O 0.6848(2) 0.1715(2) 0.2206(3) 0.1230 Uani
C1AB C 0.6671(4) 0.1671(4) 0.2500 0.1350 Uani
C2AB C 0.64036(16) 0.14036(16) 0.2500 0.1263 Uani
C3AB C 0.6333(3) 0.1216(3) 0.21978(14) 0.1317 Uani
H1AB H 0.6459 0.1265 0.1991 0.1580 Uiso
C4AB C 0.6080(3) 0.0959(3) 0.21992(15) 0.1430 Uani
H2AB H 0.6036 0.0829 0.1994 0.1710 Uiso
C5AB C 0.58910(15) 0.08910(15) 0.2500 0.1427 Uani
C6AB C 0.56390(17) 0.06390(17) 0.2500 0.0680 Uani
C7AB C 0.5279(4) 0.0726(3) 0.2384(4) 0.0610 Uani
C8AB C 0.51868(13) 0.1062(3) 0.2323(5) 0.0607 Uani
H3AB H 0.5337 0.1255 0.2287 0.0730 Uiso
O2UB O 0.6715(2) 0.1848(2) 0.2794(3) 0.1230 Uani
C3UB C 0.6216(3) 0.1333(3) 0.28022(14) 0.1317 Uani
H1UB H 0.6265 0.1459 0.3009 0.1580 Uiso
C4UB C 0.5959(3) 0.1080(3) 0.28008(15) 0.1430 Uani
H2UB H 0.5829 0.1036 0.3006 0.1710 Uiso
N1PA N 0.5499(6) -0.0000 0.2574(7) 0.1289 Uani
C7UB C 0.5726(3) 0.0279(4) 0.2616(4) 0.0610 Uani
C8UB C 0.6062(3) 0.01868(13) 0.2677(5) 0.0607 Uani
H3UB H 0.6255 0.0337 0.2713 0.0730 Uiso
O2WB O 0.3285(2) -0.1848(2) 0.2794(3) 0.1230 Uani
C1DB C 0.3329(4) -0.1671(4) 0.2500 0.1350 Uani
C2DB C 0.35964(16) -0.14036(16) 0.2500 0.1263 Uani
C3WB C 0.3784(3) -0.1333(3) 0.28022(14) 0.1317 Uani
H1WB H 0.3735 -0.1459 0.3009 0.1580 Uiso
C4WB C 0.4041(3) -0.1080(3) 0.28008(15) 0.1430 Uani
H2WB H 0.4171 -0.1036 0.3006 0.1710 Uiso
C5DB C 0.41090(15) -0.08910(15) 0.2500 0.1427 Uani
C6DB C 0.43610(17) -0.06390(17) 0.2500 0.0680 Uani
C7WB C 0.4274(3) -0.0279(4) 0.2616(4) 0.0610 Uani
C8WB C 0.3938(3) -0.01868(13) 0.2677(5) 0.0607 Uani
H3WB H 0.3745 -0.0337 0.2713 0.0730 Uiso
O2PA O 0.6715(2) -0.1848(2) 0.2794(3) 0.1230 Uani
C1B C 0.6671(4) -0.1671(4) 0.2500 0.1350 Uani
C2B C 0.64036(16) -0.14036(16) 0.2500 0.1263 Uani
C3PA C 0.6216(3) -0.1333(3) 0.28022(14) 0.1317 Uani
H1PA H 0.6265 -0.1459 0.3009 0.1580 Uiso
C4PA C 0.5959(3) -0.1080(3) 0.28008(15) 0.1430 Uani
H2PA H 0.5829 -0.1036 0.3006 0.1710 Uiso
C5B C 0.58910(15) -0.08910(15) 0.2500 0.1427 Uani
C6B C 0.56390(17) -0.06390(17) 0.2500 0.0680 Uani
C7PA C 0.5726(3) -0.0279(4) 0.2616(4) 0.0610 Uani
C8PA C 0.6062(3) -0.01868(13) 0.2677(5) 0.0607 Uani
H3PA H 0.6255 -0.0337 0.2713 0.0730 Uiso
O2DB O 0.3152(2) -0.1715(2) 0.2206(3) 0.1230 Uani
C3DB C 0.3667(3) -0.1216(3) 0.21978(14) 0.1317 Uani
H1DB H 0.3541 -0.1265 0.1991 0.1580 Uiso
C4DB C 0.3920(3) -0.0959(3) 0.21992(15) 0.1430 Uani
H2DB H 0.3964 -0.0829 0.1994 0.1710 Uiso
N1B N 0.5000 -0.0499(6) 0.2426(7) 0.1289 Uani
C7DB C 0.4721(4) -0.0726(3) 0.2384(4) 0.0610 Uani
C8DB C 0.48132(13) -0.1062(3) 0.2323(5) 0.0607 Uani
H3DB H 0.4663 -0.1255 0.2287 0.0730 Uiso
O2B O 0.6848(2) -0.1715(2) 0.2206(3) 0.1230 Uani
C3B C 0.6333(3) -0.1216(3) 0.21978(14) 0.1317 Uani
H1B H 0.6459 -0.1265 0.1991 0.1580 Uiso
C4B C 0.6080(3) -0.0959(3) 0.21992(15) 0.1430 Uani
H2B H 0.6036 -0.0829 0.1994 0.1710 Uiso
C7B C 0.5279(4) -0.0726(3) 0.2384(4) 0.0610 Uani
C8B C 0.51868(13) -0.1062(3) 0.2323(5) 0.0607 Uani
H3B H 0.5337 -0.1255 0.2287 0.0730 Uiso
Zr1B Zr 0.72826(5) -0.20715(5) 0.20715(5) 0.1136 Uani
O1B O 0.7011(8) -0.2379(3) 0.2379(3) 0.2900 Uani
O4B O 0.7527(3) -0.2019(4) 0.1514(2) 0.1690 Uani
Zr1D Zr 0.27174(5) -0.20715(5) 0.20715(5) 0.1136 Uani
O1D O 0.2989(8) -0.2379(3) 0.2379(3) 0.2900 Uani
Zr2D Zr 0.5000 -0.2500 0.0000 0.1289 Uani
O2D O 0.3152(2) -0.2206(3) 0.1715(2) 0.1230 Uani
C1D C 0.3329(4) -0.2500 0.1671(4) 0.1350 Uani
C2D C 0.35964(16) -0.2500 0.14036(16) 0.1263 Uani
C3D C 0.3667(3) -0.21978(14) 0.1216(3) 0.1317 Uani
H1D H 0.3541 -0.1991 0.1265 0.1580 Uiso
C4D C 0.3920(3) -0.21992(15) 0.0959(3) 0.1430 Uani
H2D H 0.3964 -0.1994 0.0829 0.1710 Uiso
C5D C 0.41090(15) -0.2500 0.08910(15) 0.1427 Uani
C6D C 0.43610(17) -0.2500 0.06390(17) 0.0680 Uani
N1D N 0.5000 -0.2426(7) 0.0499(6) 0.1289 Uani
C7D C 0.4721(4) -0.2384(4) 0.0726(3) 0.0610 Uani
C8D C 0.48132(13) -0.2323(5) 0.1062(3) 0.0607 Uani
H3D H 0.4663 -0.2287 0.1255 0.0730 Uiso
O3C O 0.21653(15) -0.21653(15) 0.21653(15) 0.0220 Uani
O4D O 0.2473(3) -0.1514(2) 0.2019(4) 0.1690 Uani
O2LA O 0.3285(2) -0.2794(3) 0.1848(2) 0.1230 Uani
C3LA C 0.3784(3) -0.28022(14) 0.1333(3) 0.1317 Uani
H1LA H 0.3735 -0.3009 0.1459 0.1580 Uiso
C4LA C 0.4041(3) -0.28008(15) 0.1080(3) 0.1430 Uani
H2LA H 0.4171 -0.3006 0.1036 0.1710 Uiso
N1LA N 0.4501(6) -0.2574(7) 0.0000 0.1289 Uani
C7LA C 0.4274(3) -0.2616(4) 0.0279(4) 0.0610 Uani
C8LA C 0.3938(3) -0.2677(5) 0.01868(13) 0.0607 Uani
H3LA H 0.3745 -0.2713 0.0337 0.0730 Uiso
O2BB O 0.6848(2) -0.2206(3) 0.1715(2) 0.1230 Uani
C1BB C 0.6671(4) -0.2500 0.1671(4) 0.1350 Uani
C2BB C 0.64036(16) -0.2500 0.14036(16) 0.1263 Uani
C3BB C 0.6333(3) -0.21978(14) 0.1216(3) 0.1317 Uani
H1BB H 0.6459 -0.1991 0.1265 0.1580 Uiso
C4BB C 0.6080(3) -0.21992(15) 0.0959(3) 0.1430 Uani
H2BB H 0.6036 -0.1994 0.0829 0.1710 Uiso
C5BB C 0.58910(15) -0.2500 0.08910(15) 0.1427 Uani
C6BB C 0.56390(17) -0.2500 0.06390(17) 0.0680 Uani
C7BB C 0.5279(4) -0.2384(4) 0.0726(3) 0.0610 Uani
C8BB C 0.51868(13) -0.2323(5) 0.1062(3) 0.0607 Uani
H3BB H 0.5337 -0.2287 0.1255 0.0730 Uiso
O2FC O 0.6715(2) -0.2794(3) 0.1848(2) 0.1230 Uani
C3FC C 0.6216(3) -0.28022(14) 0.1333(3) 0.1317 Uani
H1FC H 0.6265 -0.3009 0.1459 0.1580 Uiso
C4FC C 0.5959(3) -0.28008(15) 0.1080(3) 0.1430 Uani
H2FC H 0.5829 -0.3006 0.1036 0.1710 Uiso
N1IA N 0.5499(6) -0.2574(7) 0.0000 0.1289 Uani
C7FC C 0.5726(3) -0.2616(4) 0.0279(4) 0.0610 Uani
C8FC C 0.6062(3) -0.2677(5) 0.01868(13) 0.0607 Uani
H3FC H 0.6255 -0.2713 0.0337 0.0730 Uiso
O2KC O 0.3285(2) -0.2794(3) -0.1848(2) 0.1230 Uani
C1PB C 0.3329(4) -0.2500 -0.1671(4) 0.1350 Uani
C2PB C 0.35964(16) -0.2500 -0.14036(16) 0.1263 Uani
C3KC C 0.3784(3) -0.28022(14) -0.1333(3) 0.1317 Uani
H1KC H 0.3735 -0.3009 -0.1459 0.1580 Uiso
C4KC C 0.4041(3) -0.28008(15) -0.1080(3) 0.1430 Uani
H2KC H 0.4171 -0.3006 -0.1036 0.1710 Uiso
C5PB C 0.41090(15) -0.2500 -0.08910(15) 0.1427 Uani
C6PB C 0.43610(17) -0.2500 -0.06390(17) 0.0680 Uani
C7KC C 0.4274(3) -0.2616(4) -0.0279(4) 0.0610 Uani
C8KC C 0.3938(3) -0.2677(5) -0.01868(13) 0.0607 Uani
H3KC H 0.3745 -0.2713 -0.0337 0.0730 Uiso
O2IA O 0.6715(2) -0.2794(3) -0.1848(2) 0.1230 Uani
C1U C 0.6671(4) -0.2500 -0.1671(4) 0.1350 Uani
C2U C 0.64036(16) -0.2500 -0.14036(16) 0.1263 Uani
C3IA C 0.6216(3) -0.28022(14) -0.1333(3) 0.1317 Uani
H1IA H 0.6265 -0.3009 -0.1459 0.1580 Uiso
C4IA C 0.5959(3) -0.28008(15) -0.1080(3) 0.1430 Uani
H2IA H 0.5829 -0.3006 -0.1036 0.1710 Uiso
C5U C 0.58910(15) -0.2500 -0.08910(15) 0.1427 Uani
C6U C 0.56390(17) -0.2500 -0.06390(17) 0.0680 Uani
C7IA C 0.5726(3) -0.2616(4) -0.0279(4) 0.0610 Uani
C8IA C 0.6062(3) -0.2677(5) -0.01868(13) 0.0607 Uani
H3IA H 0.6255 -0.2713 -0.0337 0.0730 Uiso
O2PB O 0.3152(2) -0.2206(3) -0.1715(2) 0.1230 Uani
C3PB C 0.3667(3) -0.21978(14) -0.1216(3) 0.1317 Uani
H1PB H 0.3541 -0.1991 -0.1265 0.1580 Uiso
C4PB C 0.3920(3) -0.21992(15) -0.0959(3) 0.1430 Uani
H2PB H 0.3964 -0.1994 -0.0829 0.1710 Uiso
N1U N 0.5000 -0.2426(7) -0.0499(6) 0.1289 Uani
C7PB C 0.4721(4) -0.2384(4) -0.0726(3) 0.0610 Uani
C8PB C 0.48132(13) -0.2323(5) -0.1062(3) 0.0607 Uani
H3PB H 0.4663 -0.2287 -0.1255 0.0730 Uiso
O2U O 0.6848(2) -0.2206(3) -0.1715(2) 0.1230 Uani
C3U C 0.6333(3) -0.21978(14) -0.1216(3) 0.1317 Uani
H1U H 0.6459 -0.1991 -0.1265 0.1580 Uiso
C4U C 0.6080(3) -0.21992(15) -0.0959(3) 0.1430 Uani
H2U H 0.6036 -0.1994 -0.0829 0.1710 Uiso
C7U C 0.5279(4) -0.2384(4) -0.0726(3) 0.0610 Uani
C8U C 0.51868(13) -0.2323(5) -0.1062(3) 0.0607 Uani
H3U H 0.5337 -0.2287 -0.1255 0.0730 Uiso
Zr1F Zr 0.27174(5) 0.20715(5) -0.20715(5) 0.1136 Uani
O1F O 0.2989(8) 0.2379(3) -0.2379(3) 0.2900 Uani
Zr2F Zr 0.5000 0.2500 0.0000 0.1289 Uani
O2F O 0.3152(2) 0.2206(3) -0.1715(2) 0.1230 Uani
C1F C 0.3329(4) 0.2500 -0.1671(4) 0.1350 Uani
C2F C 0.35964(16) 0.2500 -0.14036(16) 0.1263 Uani
C3F C 0.3667(3) 0.21978(14) -0.1216(3) 0.1317 Uani
H1F H 0.3541 0.1991 -0.1265 0.1580 Uiso
C4F C 0.3920(3) 0.21992(15) -0.0959(3) 0.1430 Uani
H2F H 0.3964 0.1994 -0.0829 0.1710 Uiso
C5F C 0.41090(15) 0.2500 -0.08910(15) 0.1427 Uani
C6F C 0.43610(17) 0.2500 -0.06390(17) 0.0680 Uani
N1F N 0.5000 0.2426(7) -0.0499(6) 0.1289 Uani
C7F C 0.4721(4) 0.2384(4) -0.0726(3) 0.0610 Uani
C8F C 0.48132(13) 0.2323(5) -0.1062(3) 0.0607 Uani
H3F H 0.4663 0.2287 -0.1255 0.0730 Uiso
O3F O 0.21653(15) 0.21653(15) -0.21653(15) 0.0220 Uani
O4F O 0.2473(3) 0.1514(2) -0.2019(4) 0.1690 Uani
O2JA O 0.3285(2) 0.2794(3) -0.1848(2) 0.1230 Uani
C3JA C 0.3784(3) 0.28022(14) -0.1333(3) 0.1317 Uani
H1JA H 0.3735 0.3009 -0.1459 0.1580 Uiso
C4JA C 0.4041(3) 0.28008(15) -0.1080(3) 0.1430 Uani
H2JA H 0.4171 0.3006 -0.1036 0.1710 Uiso
N1JA N 0.4501(6) 0.2574(7) 0.0000 0.1289 Uani
C7JA C 0.4274(3) 0.2616(4) -0.0279(4) 0.0610 Uani
C8JA C 0.3938(3) 0.2677(5) -0.01868(13) 0.0607 Uani
H3JA H 0.3745 0.2713 -0.0337 0.0730 Uiso
O2ZA O 0.6848(2) 0.2206(3) -0.1715(2) 0.1230 Uani
C1ZA C 0.6671(4) 0.2500 -0.1671(4) 0.1350 Uani
C2ZA C 0.64036(16) 0.2500 -0.14036(16) 0.1263 Uani
C3ZA C 0.6333(3) 0.21978(14) -0.1216(3) 0.1317 Uani
H1ZA H 0.6459 0.1991 -0.1265 0.1580 Uiso
C4ZA C 0.6080(3) 0.21992(15) -0.0959(3) 0.1430 Uani
H2ZA H 0.6036 0.1994 -0.0829 0.1710 Uiso
C5ZA C 0.58910(15) 0.2500 -0.08910(15) 0.1427 Uani
C6ZA C 0.56390(17) 0.2500 -0.06390(17) 0.0680 Uani
C7ZA C 0.5279(4) 0.2384(4) -0.0726(3) 0.0610 Uani
C8ZA C 0.51868(13) 0.2323(5) -0.1062(3) 0.0607 Uani
H3ZA H 0.5337 0.2287 -0.1255 0.0730 Uiso
O2HC O 0.6715(2) 0.2794(3) -0.1848(2) 0.1230 Uani
C3HC C 0.6216(3) 0.28022(14) -0.1333(3) 0.1317 Uani
H1HC H 0.6265 0.3009 -0.1459 0.1580 Uiso
C4HC C 0.5959(3) 0.28008(15) -0.1080(3) 0.1430 Uani
H2HC H 0.5829 0.3006 -0.1036 0.1710 Uiso
N1OA N 0.5499(6) 0.2574(7) 0.0000 0.1289 Uani
C7HC C 0.5726(3) 0.2616(4) -0.0279(4) 0.0610 Uani
C8HC C 0.6062(3) 0.2677(5) -0.01868(13) 0.0607 Uani
H3HC H 0.6255 0.2713 -0.0337 0.0730 Uiso
O2EC O 0.3285(2) 0.2794(3) 0.1848(2) 0.1230 Uani
C1QB C 0.3329(4) 0.2500 0.1671(4) 0.1350 Uani
C2QB C 0.35964(16) 0.2500 0.14036(16) 0.1263 Uani
C3EC C 0.3784(3) 0.28022(14) 0.1333(3) 0.1317 Uani
H1EC H 0.3735 0.3009 0.1459 0.1580 Uiso
C4EC C 0.4041(3) 0.28008(15) 0.1080(3) 0.1430 Uani
H2EC H 0.4171 0.3006 0.1036 0.1710 Uiso
C5QB C 0.41090(15) 0.2500 0.08910(15) 0.1427 Uani
C6QB C 0.43610(17) 0.2500 0.06390(17) 0.0680 Uani
C7EC C 0.4274(3) 0.2616(4) 0.0279(4) 0.0610 Uani
C8EC C 0.3938(3) 0.2677(5) 0.01868(13) 0.0607 Uani
H3EC H 0.3745 0.2713 0.0337 0.0730 Uiso
O2OA O 0.6715(2) 0.2794(3) 0.1848(2) 0.1230 Uani
C1T C 0.6671(4) 0.2500 0.1671(4) 0.1350 Uani
C2T C 0.64036(16) 0.2500 0.14036(16) 0.1263 Uani
C3OA C 0.6216(3) 0.28022(14) 0.1333(3) 0.1317 Uani
H1OA H 0.6265 0.3009 0.1459 0.1580 Uiso
C4OA C 0.5959(3) 0.28008(15) 0.1080(3) 0.1430 Uani
H2OA H 0.5829 0.3006 0.1036 0.1710 Uiso
C5T C 0.58910(15) 0.2500 0.08910(15) 0.1427 Uani
C6T C 0.56390(17) 0.2500 0.06390(17) 0.0680 Uani
C7OA C 0.5726(3) 0.2616(4) 0.0279(4) 0.0610 Uani
C8OA C 0.6062(3) 0.2677(5) 0.01868(13) 0.0607 Uani
H3OA H 0.6255 0.2713 0.0337 0.0730 Uiso
O2QB O 0.3152(2) 0.2206(3) 0.1715(2) 0.1230 Uani
C3QB C 0.3667(3) 0.21978(14) 0.1216(3) 0.1317 Uani
H1QB H 0.3541 0.1991 0.1265 0.1580 Uiso
C4QB C 0.3920(3) 0.21992(15) 0.0959(3) 0.1430 Uani
H2QB H 0.3964 0.1994 0.0829 0.1710 Uiso
N1T N 0.5000 0.2426(7) 0.0499(6) 0.1289 Uani
C7QB C 0.4721(4) 0.2384(4) 0.0726(3) 0.0610 Uani
C8QB C 0.48132(13) 0.2323(5) 0.1062(3) 0.0607 Uani
H3QB H 0.4663 0.2287 0.1255 0.0730 Uiso
O2T O 0.6848(2) 0.2206(3) 0.1715(2) 0.1230 Uani
C3T C 0.6333(3) 0.21978(14) 0.1216(3) 0.1317 Uani
H1T H 0.6459 0.1991 0.1265 0.1580 Uiso
C4T C 0.6080(3) 0.21992(15) 0.0959(3) 0.1430 Uani
H2T H 0.6036 0.1994 0.0829 0.1710 Uiso
C7T C 0.5279(4) 0.2384(4) 0.0726(3) 0.0610 Uani
C8T C 0.51868(13) 0.2323(5) 0.1062(3) 0.0607 Uani
H3T H 0.5337 0.2287 0.1255 0.0730 Uiso
Zr1J Zr 0.20715(5) 0.27174(5) 0.20715(5) 0.1136 Uani
O1J O 0.2379(3) 0.2989(8) 0.2379(3) 0.2900 Uani
O4J O 0.1514(2) 0.2473(3) 0.2019(4) 0.1690 Uani
Zr1K Zr 0.20715(5) 0.20715(5) 0.27174(5) 0.1136 Uani
O1K O 0.2379(3) 0.2379(3) 0.2989(8) 0.2900 Uani
O4K O 0.2019(4) 0.1514(2) 0.2473(3) 0.1690 Uani
Zr1T Zr 0.72826(5) 0.20715(5) 0.20715(5) 0.1136 Uani
O1T O 0.7011(8) 0.2379(3) 0.2379(3) 0.2900 Uani
O3A O 0.78347(15) 0.21653(15) 0.21653(15) 0.0220 Uani
O4T O 0.7527(3) 0.1514(2) 0.2019(4) 0.1690 Uani
Zr1U Zr 0.72826(5) -0.20715(5) -0.20715(5) 0.1136 Uani
O1U O 0.7011(8) -0.2379(3) -0.2379(3) 0.2900 Uani
O4U O 0.7527(3) -0.1514(2) -0.2019(4) 0.1690 Uani
Zr1V Zr 0.20715(5) -0.20715(5) 0.27174(5) 0.1136 Uani
O1V O 0.2379(3) -0.2379(3) 0.2989(8) 0.2900 Uani
O4V O 0.1514(2) -0.2019(4) 0.2473(3) 0.1690 Uani
Zr1PA Zr 0.70715(5) -0.22826(5) 0.29285(5) 0.1136 Uani
O1PA O 0.7379(3) -0.2011(8) 0.2621(3) 0.2900 Uani
O4PA O 0.7019(4) -0.2527(3) 0.3486(2) 0.1690 Uani
Zr1QA Zr 0.29285(5) 0.22826(5) 0.29285(5) 0.1136 Uani
O1QA O 0.2621(3) 0.2011(8) 0.2621(3) 0.2900 Uani
O4QA O 0.2981(4) 0.2527(3) 0.3486(2) 0.1690 Uani
Zr1SA Zr 0.22826(5) 0.29285(5) 0.29285(5) 0.1136 Uani
O1SA O 0.2011(8) 0.2621(3) 0.2621(3) 0.2900 Uani
O4SA O 0.2527(3) 0.3486(2) 0.2981(4) 0.1690 Uani
O4AB O 0.7527(3) 0.2019(4) 0.1514(2) 0.1690 Uani
O4BB O 0.7527(3) -0.1514(2) 0.2019(4) 0.1690 Uani
O4DB O 0.2473(3) -0.2019(4) 0.1514(2) 0.1690 Uani
O4JB O 0.2019(4) -0.1514(2) 0.2473(3) 0.1690 Uani
O4QB O 0.2473(3) 0.1514(2) 0.2019(4) 0.1690 Uani
O4XA O 0.2473(3) 0.2019(4) -0.1514(2) 0.1690 Uani
O4OB O 0.2019(4) 0.2473(3) 0.1514(2) 0.1690 Uani
O4SB O 0.1514(2) 0.2019(4) 0.2473(3) 0.1690 Uani
O4VA O 0.7527(3) -0.2019(4) -0.1514(2) 0.1690 Uani
O4IC O 0.6514(2) -0.2527(3) 0.2981(4) 0.1690 Uani
O4DC O 0.3486(2) 0.2527(3) 0.2981(4) 0.1690 Uani
O4TB O 0.2527(3) 0.2981(4) 0.3486(2) 0.1690 Uani
Zr1A Zr 0.79285(5) 0.27174(5) 0.20715(5) 0.1136 Uani
Zr1C Zr 0.20715(5) -0.27174(5) 0.20715(5) 0.1136 Uani
Zr1E Zr 0.27174(5) -0.20715(5) -0.20715(5) 0.1136 Uani
Zr1G Zr 0.20715(5) 0.20715(5) -0.27174(5) 0.1136 Uani
Zr1H Zr 0.72826(5) 0.20715(5) -0.20715(5) 0.1136 Uani
Zr1I Zr 0.79285(5) 0.20715(5) 0.27174(5) 0.1136 Uani
Zr1L Zr 0.79285(5) -0.20715(5) 0.27174(5) 0.1136 Uani
Zr1R Zr 0.20715(5) 0.27174(5) -0.20715(5) 0.1136 Uani
Zr1EA Zr 0.70715(5) -0.29285(5) 0.22826(5) 0.1136 Uani
Zr1FA Zr 0.22826(5) -0.29285(5) 0.29285(5) 0.1136 Uani
Zr1GA Zr 0.29285(5) -0.29285(5) -0.22826(5) 0.1136 Uani
Zr1HA Zr 0.70715(5) -0.22826(5) -0.29285(5) 0.1136 Uani
Zr1IA Zr 0.70715(5) -0.29285(5) -0.22826(5) 0.1136 Uani
Zr1JA Zr 0.29285(5) 0.29285(5) -0.22826(5) 0.1136 Uani
Zr1KA Zr 0.70715(5) 0.22826(5) 0.29285(5) 0.1136 Uani
Zr1LA Zr 0.29285(5) -0.29285(5) 0.22826(5) 0.1136 Uani
Zr1MA Zr 0.29285(5) 0.22826(5) -0.29285(5) 0.1136 Uani
Zr1NA Zr 0.29285(5) -0.22826(5) 0.29285(5) 0.1136 Uani
Zr1OA Zr 0.70715(5) 0.29285(5) 0.22826(5) 0.1136 Uani
Zr1TA Zr 0.70715(5) 0.29285(5) -0.22826(5) 0.1136 Uani
Zr1UA Zr 0.29285(5) 0.29285(5) 0.22826(5) 0.1136 Uani
O1L O 0.7621(3) -0.2379(3) 0.2989(8) 0.2900 Uani
O1EA O 0.7379(3) -0.2621(3) 0.2011(8) 0.2900 Uani
O1FA O 0.2011(8) -0.2621(3) 0.2621(3) 0.2900 Uani
O1HA O 0.7379(3) -0.2011(8) -0.2621(3) 0.2900 Uani
O1IA O 0.7379(3) -0.2621(3) -0.2011(8) 0.2900 Uani
O1JA O 0.2621(3) 0.2621(3) -0.2011(8) 0.2900 Uani
O1KA O 0.7379(3) 0.2011(8) 0.2621(3) 0.2900 Uani
O1LA O 0.2621(3) -0.2621(3) 0.2011(8) 0.2900 Uani
O1MA O 0.2621(3) 0.2011(8) -0.2621(3) 0.2900 Uani
O1NA O 0.2621(3) -0.2011(8) 0.2621(3) 0.2900 Uani
O1OA O 0.7379(3) 0.2621(3) 0.2011(8) 0.2900 Uani
O1UA O 0.2621(3) 0.2621(3) 0.2011(8) 0.2900 Uani
O2J O 0.2206(3) 0.3152(2) 0.1715(2) 0.1230 Uani
O2K O 0.1715(2) 0.2206(3) 0.3152(2) 0.1230 Uani
O2V O 0.2206(3) -0.1715(2) 0.3152(2) 0.1230 Uani
O2SA O 0.1848(2) 0.2794(3) 0.3285(2) 0.1230 Uani
O2VA O 0.6848(2) -0.1715(2) -0.2206(3) 0.1230 Uani
O2XA O 0.3152(2) 0.1715(2) -0.2206(3) 0.1230 Uani
O2JB O 0.1715(2) -0.2206(3) 0.3152(2) 0.1230 Uani
O2OB O 0.1715(2) 0.3152(2) 0.2206(3) 0.1230 Uani
O2SB O 0.2206(3) 0.1715(2) 0.3152(2) 0.1230 Uani
O2TB O 0.1848(2) 0.3285(2) 0.2794(3) 0.1230 Uani
O2DC O 0.2794(3) 0.1848(2) 0.3285(2) 0.1230 Uani
O2IC O 0.7206(3) -0.1848(2) 0.3285(2) 0.1230 Uani
O3B O 0.78347(15) -0.21653(15) 0.21653(15) 0.0220 Uani
O3S O 0.78347(15) -0.21653(15) -0.21653(15) 0.0220 Uani
O3DA O 0.71653(15) -0.28347(15) 0.28347(15) 0.0220 Uani
O3QA O 0.28347(15) 0.28347(15) 0.28347(15) 0.0220 Uani
loop_
_atom_site_aniso_label
_atom_site_aniso_U_11
_atom_site_aniso_U_22
_atom_site_aniso_U_33
_atom_site_aniso_U_23
_atom_site_aniso_U_13
_atom_site_aniso_U_12
Zr1 0.1119(15) 0.1145(13) 0.1145(13) 0.0743(12) 0.0872(11) 0.0872(11)
O1 0.39 0.24 0.24 0.17 0.18 0.18
Zr2 0.0529(12) 0.0529(12) 0.281(5) 0.000 0.000 0.000
O2 0.096(6) 0.087(6) 0.186(10) 0.028(6) 0.068(6) 0.070(5)
C1 0.085(8) 0.085(8) 0.235(17) 0.037(10) 0.037(10) 0.035(9)
C2 0.074(7) 0.074(7) 0.231(18) 0.013(9) 0.013(9) 0.027(8)
C3 0.073(8) 0.095(9) 0.227(15) 0.013(9) 0.016(9) 0.045(6)
C4 0.078(8) 0.094(9) 0.257(17) -0.007(10) 0.009(9) 0.049(7)
C5 0.074(7) 0.074(7) 0.28(2) -0.011(11) -0.011(11) 0.027(9)
C6 0.055(4) 0.055(4) 0.094(8) -0.001(4) -0.001(4) 0.017(5)
N1 0.0529(12) 0.0529(12) 0.281(5) 0.000 0.000 0.000
C7 0.054(7) 0.026(5) 0.103(9) 0.000(6) -0.003(7) 0.022(5)
C8 0.055(7) 0.030(5) 0.097(9) -0.003(6) -0.002(6) 0.006(5)
O3 0.022(2) 0.022(2) 0.022(2) 0.010(2) 0.010(2) 0.010(2)
O4 0.167(10) 0.276(14) 0.064(6) 0.019(7) 0.082(6) -0.002(8)
O2QA 0.087 0.096 0.186 0.068 0.028 0.07
C3QA 0.095 0.073 0.227 0.016 0.013 0.045
C4QA 0.094 0.078 0.257 0.009 -0.007 0.049
N1QA 0.0529 0.0529 0.281 0 0 0
C7QA 0.026 0.054 0.103 -0.003 0 0.022
C8QA 0.03 0.055 0.097 -0.002 -0.003 0.006
O2AB 0.096 0.087 0.186 0.028 -0.068 -0.07
C1AB 0.085 0.085 0.235 0.037 -0.037 -0.035
C2AB 0.074 0.074 0.231 0.013 -0.013 -0.027
C3AB 0.073 0.095 0.227 0.013 -0.016 -0.045
C4AB 0.078 0.094 0.257 -0.007 -0.009 -0.049
C5AB 0.074 0.074 0.28 -0.011 0.011 -0.027
C6AB 0.055 0.055 0.094 -0.001 0.001 -0.017
C7AB 0.054 0.026 0.103 0 0.003 -0.022
C8AB 0.055 0.03 0.097 -0.003 0.002 -0.006
O2UB 0.087 0.096 0.186 0.068 -0.028 -0.07
C3UB 0.095 0.073 0.227 0.016 -0.013 -0.045
C4UB 0.094 0.078 0.257 0.009 0.007 -0.049
N1PA 0.0529 0.0529 0.281 0 0 0
C7UB 0.026 0.054 0.103 -0.003 0 -0.022
C8UB 0.03 0.055 0.097 -0.002 0.003 -0.006
O2WB 0.087 0.096 0.186 -0.068 0.028 -0.07
C1DB 0.085 0.085 0.235 -0.037 0.037 -0.035
C2DB 0.074 0.074 0.231 -0.013 0.013 -0.027
C3WB 0.095 0.073 0.227 -0.016 0.013 -0.045
C4WB 0.094 0.078 0.257 -0.009 -0.007 -0.049
C5DB 0.074 0.074 0.28 0.011 -0.011 -0.027
C6DB 0.055 0.055 0.094 0.001 -0.001 -0.017
C7WB 0.026 0.054 0.103 0.003 0 -0.022
C8WB 0.03 0.055 0.097 0.002 -0.003 -0.006
O2PA 0.087 0.096 0.186 -0.068 -0.028 0.07
C1B 0.085 0.085 0.235 -0.037 -0.037 0.035
C2B 0.074 0.074 0.231 -0.013 -0.013 0.027
C3PA 0.095 0.073 0.227 -0.016 -0.013 0.045
C4PA 0.094 0.078 0.257 -0.009 0.007 0.049
C5B 0.074 0.074 0.28 0.011 0.011 0.027
C6B 0.055 0.055 0.094 0.001 0.001 0.017
C7PA 0.026 0.054 0.103 0.003 0 0.022
C8PA 0.03 0.055 0.097 0.002 0.003 0.006
O2DB 0.096 0.087 0.186 -0.028 0.068 -0.07
C3DB 0.073 0.095 0.227 -0.013 0.016 -0.045
C4DB 0.078 0.094 0.257 0.007 0.009 -0.049
N1B 0.0529 0.0529 0.281 0 0 0
C7DB 0.054 0.026 0.103 0 -0.003 -0.022
C8DB 0.055 0.03 0.097 0.003 -0.002 -0.006
O2B 0.096 0.087 0.186 -0.028 -0.068 0.07
C3B 0.073 0.095 0.227 -0.013 -0.016 0.045
C4B 0.078 0.094 0.257 0.007 -0.009 0.049
C7B 0.054 0.026 0.103 0 0.003 0.022
C8B 0.055 0.03 0.097 0.003 0.002 0.006
Zr1B 0.1119 0.1145 0.1145 -0.0743 -0.0872 0.0872
O1B 0.39 0.24 0.24 -0.17 -0.18 0.18
O4B 0.167 0.276 0.064 -0.019 -0.082 -0.002
Zr1D 0.1119 0.1145 0.1145 -0.0743 0.0872 -0.0872
O1D 0.39 0.24 0.24 -0.17 0.18 -0.18
Zr2D 0.0529 0.281 0.0529 0 0 0
O2D 0.096 0.186 0.087 -0.028 0.07 -0.068
C1D 0.085 0.235 0.085 -0.037 0.035 -0.037
C2D 0.074 0.231 0.074 -0.013 0.027 -0.013
C3D 0.073 0.227 0.095 -0.013 0.045 -0.016
C4D 0.078 0.257 0.094 0.007 0.049 -0.009
C5D 0.074 0.28 0.074 0.011 0.027 0.011
C6D 0.055 0.094 0.055 0.001 0.017 0.001
N1D 0.0529 0.281 0.0529 0 0 0
C7D 0.054 0.103 0.026 0 0.022 0.003
C8D 0.055 0.097 0.03 0.003 0.006 0.002
O3C 0.022 0.022 0.022 -0.01 0.01 -0.01
O4D 0.167 0.064 0.276 -0.019 -0.002 -0.082
O2LA 0.087 0.186 0.096 -0.068 0.07 -0.028
C3LA 0.095 0.227 0.073 -0.016 0.045 -0.013
C4LA 0.094 0.257 0.078 -0.009 0.049 0.007
N1LA 0.0529 0.281 0.0529 0 0 0
C7LA 0.026 0.103 0.054 0.003 0.022 0
C8LA 0.03 0.097 0.055 0.002 0.006 0.003
O2BB 0.096 0.186 0.087 -0.028 -0.07 0.068
C1BB 0.085 0.235 0.085 -0.037 -0.035 0.037
C2BB 0.074 0.231 0.074 -0.013 -0.027 0.013
C3BB 0.073 0.227 0.095 -0.013 -0.045 0.016
C4BB 0.078 0.257 0.094 0.007 -0.049 0.009
C5BB 0.074 0.28 0.074 0.011 -0.027 -0.011
C6BB 0.055 0.094 0.055 0.001 -0.017 -0.001
C7BB 0.054 0.103 0.026 0 -0.022 -0.003
C8BB 0.055 0.097 0.03 0.003 -0.006 -0.002
O2FC 0.087 0.186 0.096 -0.068 -0.07 0.028
C3FC 0.095 0.227 0.073 -0.016 -0.045 0.013
C4FC 0.094 0.257 0.078 -0.009 -0.049 -0.007
N1IA 0.0529 0.281 0.0529 0 0 0
C7FC 0.026 0.103 0.054 0.003 -0.022 0
C8FC 0.03 0.097 0.055 0.002 -0.006 -0.003
O2KC 0.087 0.186 0.096 0.068 -0.07 -0.028
C1PB 0.085 0.235 0.085 0.037 -0.035 -0.037
C2PB 0.074 0.231 0.074 0.013 -0.027 -0.013
C3KC 0.095 0.227 0.073 0.016 -0.045 -0.013
C4KC 0.094 0.257 0.078 0.009 -0.049 0.007
C5PB 0.074 0.28 0.074 -0.011 -0.027 0.011
C6PB 0.055 0.094 0.055 -0.001 -0.017 0.001
C7KC 0.026 0.103 0.054 -0.003 -0.022 0
C8KC 0.03 0.097 0.055 -0.002 -0.006 0.003
O2IA 0.087 0.186 0.096 0.068 0.07 0.028
C1U 0.085 0.235 0.085 0.037 0.035 0.037
C2U 0.074 0.231 0.074 0.013 0.027 0.013
C3IA 0.095 0.227 0.073 0.016 0.045 0.013
C4IA 0.094 0.257 0.078 0.009 0.049 -0.007
C5U 0.074 0.28 0.074 -0.011 0.027 -0.011
C6U 0.055 0.094 0.055 -0.001 0.017 -0.001
C7IA 0.026 0.103 0.054 -0.003 0.022 0
C8IA 0.03 0.097 0.055 -0.002 0.006 -0.003
O2PB 0.096 0.186 0.087 0.028 -0.07 -0.068
C3PB 0.073 0.227 0.095 0.013 -0.045 -0.016
C4PB 0.078 0.257 0.094 -0.007 -0.049 -0.009
N1U 0.0529 0.281 0.0529 0 0 0
C7PB 0.054 0.103 0.026 0 -0.022 0.003
C8PB 0.055 0.097 0.03 -0.003 -0.006 0.002
O2U 0.096 0.186 0.087 0.028 0.07 0.068
C3U 0.073 0.227 0.095 0.013 0.045 0.016
C4U 0.078 0.257 0.094 -0.007 0.049 0.009
C7U 0.054 0.103 0.026 0 0.022 -0.003
C8U 0.055 0.097 0.03 -0.003 0.006 -0.002
Zr1F 0.1119 0.1145 0.1145 -0.0743 -0.0872 0.0872
O1F 0.39 0.24 0.24 -0.17 -0.18 0.18
Zr2F 0.0529 0.281 0.0529 0 0 0
O2F 0.096 0.186 0.087 -0.028 -0.07 0.068
C1F 0.085 0.235 0.085 -0.037 -0.035 0.037
C2F 0.074 0.231 0.074 -0.013 -0.027 0.013
C3F 0.073 0.227 0.095 -0.013 -0.045 0.016
C4F 0.078 0.257 0.094 0.007 -0.049 0.009
C5F 0.074 0.28 0.074 0.011 -0.027 -0.011
C6F 0.055 0.094 0.055 0.001 -0.017 -0.001
N1F 0.0529 0.281 0.0529 0 0 0
C7F 0.054 0.103 0.026 0 -0.022 -0.003
C8F 0.055 0.097 0.03 0.003 -0.006 -0.002
O3F 0.022 0.022 0.022 -0.01 -0.01 0.01
O4F 0.167 0.064 0.276 -0.019 0.002 0.082
O2JA 0.087 0.186 0.096 -0.068 -0.07 0.028
C3JA 0.095 0.227 0.073 -0.016 -0.045 0.013
C4JA 0.094 0.257 0.078 -0.009 -0.049 -0.007
N1JA 0.0529 0.281 0.0529 0 0 0
C7JA 0.026 0.103 0.054 0.003 -0.022 0
C8JA 0.03 0.097 0.055 0.002 -0.006 -0.003
O2ZA 0.096 0.186 0.087 -0.028 0.07 -0.068
C1ZA 0.085 0.235 0.085 -0.037 0.035 -0.037
C2ZA 0.074 0.231 0.074 -0.013 0.027 -0.013
C3ZA 0.073 0.227 0.095 -0.013 0.045 -0.016
C4ZA 0.078 0.257 0.094 0.007 0.049 -0.009
C5ZA 0.074 0.28 0.074 0.011 0.027 0.011
C6ZA 0.055 0.094 0.055 0.001 0.017 0.001
C7ZA 0.054 0.103 0.026 0 0.022 0.003
C8ZA 0.055 0.097 0.03 0.003 0.006 0.002
O2HC 0.087 0.186 0.096 -0.068 0.07 -0.028
C3HC 0.095 0.227 0.073 -0.016 0.045 -0.013
C4HC 0.094 0.257 0.078 -0.009 0.049 0.007
N1OA 0.0529 0.281 0.0529 0 0 0
C7HC 0.026 0.103 0.054 0.003 0.022 0
C8HC 0.03 0.097 0.055 0.002 0.006 0.003
O2EC 0.087 0.186 0.096 0.068 0.07 0.028
C1QB 0.085 0.235 0.085 0.037 0.035 0.037
C2QB 0.074 0.231 0.074 0.013 0.027 0.013
C3EC 0.095 0.227 0.073 0.016 0.045 0.013
C4EC 0.094 0.257 0.078 0.009 0.049 -0.007
C5QB 0.074 0.28 0.074 -0.011 0.027 -0.011
C6QB 0.055 0.094 0.055 -0.001 0.017 -0.001
C7EC 0.026 0.103 0.054 -0.003 0.022 0
C8EC 0.03 0.097 0.055 -0.002 0.006 -0.003
O2OA 0.087 0.186 0.096 0.068 -0.07 -0.028
C1T 0.085 0.235 0.085 0.037 -0.035 -0.037
C2T 0.074 0.231 0.074 0.013 -0.027 -0.013
C3OA 0.095 0.227 0.073 0.016 -0.045 -0.013
C4OA 0.094 0.257 0.078 0.009 -0.049 0.007
C5T 0.074 0.28 0.074 -0.011 -0.027 0.011
C6T 0.055 0.094 0.055 -0.001 -0.017 0.001
C7OA 0.026 0.103 0.054 -0.003 -0.022 0
C8OA 0.03 0.097 0.055 -0.002 -0.006 0.003
O2QB 0.096 0.186 0.087 0.028 0.07 0.068
C3QB 0.073 0.227 0.095 0.013 0.045 0.016
C4QB 0.078 0.257 0.094 -0.007 0.049 0.009
N1T 0.0529 0.281 0.0529 0 0 0
C7QB 0.054 0.103 0.026 0 0.022 -0.003
C8QB 0.055 0.097 0.03 -0.003 0.006 -0.002
O2T 0.096 0.186 0.087 0.028 -0.07 -0.068
C3T 0.073 0.227 0.095 0.013 -0.045 -0.016
C4T 0.078 0.257 0.094 -0.007 -0.049 -0.009
C7T 0.054 0.103 0.026 0 -0.022 0.003
C8T 0.055 0.097 0.03 -0.003 -0.006 0.002
Zr1J 0.1145 0.1119 0.1145 0.0872 0.0743 0.0872
O1J 0.24 0.39 0.24 0.18 0.17 0.18
O4J 0.064 0.167 0.276 -0.002 0.019 0.082
Zr1K 0.1145 0.1145 0.1119 0.0872 0.0872 0.0743
O1K 0.24 0.24 0.39 0.18 0.18 0.17
O4K 0.276 0.064 0.167 0.082 -0.002 0.019
Zr1T 0.1119 0.1145 0.1145 0.0743 -0.0872 -0.0872
O1T 0.39 0.24 0.24 0.17 -0.18 -0.18
O3A 0.022 0.022 0.022 0.01 -0.01 -0.01
O4T 0.167 0.064 0.276 0.019 0.002 -0.082
Zr1U 0.1119 0.1145 0.1145 0.0743 0.0872 0.0872
O1U 0.39 0.24 0.24 0.17 0.18 0.18
O4U 0.167 0.064 0.276 0.019 -0.002 0.082
Zr1V 0.1145 0.1145 0.1119 -0.0872 0.0872 -0.0743
O1V 0.24 0.24 0.39 -0.18 0.18 -0.17
O4V 0.064 0.276 0.167 0.002 0.082 -0.019
Zr1PA 0.1145 0.1119 0.1145 -0.0872 -0.0743 0.0872
O1PA 0.24 0.39 0.24 -0.18 -0.17 0.18
O4PA 0.276 0.167 0.064 -0.082 -0.019 -0.002
Zr1QA 0.1145 0.1119 0.1145 0.0872 0.0743 0.0872
O1QA 0.24 0.39 0.24 0.18 0.17 0.18
O4QA 0.276 0.167 0.064 0.082 0.019 -0.002
Zr1SA 0.1119 0.1145 0.1145 0.0743 0.0872 0.0872
O1SA 0.39 0.24 0.24 0.17 0.18 0.18
O4SA 0.167 0.064 0.276 0.019 -0.002 0.082
O4AB 0.167 0.276 0.064 0.019 -0.082 0.002
O4BB 0.167 0.064 0.276 -0.019 0.002 0.082
O4DB 0.167 0.276 0.064 -0.019 0.082 0.002
O4JB 0.276 0.064 0.167 -0.082 -0.002 -0.019
O4QB 0.167 0.064 0.276 0.019 -0.002 0.082
O4XA 0.167 0.276 0.064 -0.019 -0.082 -0.002
O4OB 0.276 0.167 0.064 0.082 0.019 -0.002
O4SB 0.064 0.276 0.167 -0.002 0.082 0.019
O4VA 0.167 0.276 0.064 0.019 0.082 -0.002
O4IC 0.064 0.167 0.276 0.002 -0.019 0.082
O4DC 0.064 0.167 0.276 -0.002 0.019 0.082
O4TB 0.167 0.276 0.064 0.019 0.082 -0.002
Zr1A 0.1145 0.1119 0.1145 0.0872 -0.0743 -0.0872
Zr1C 0.1145 0.1119 0.1145 -0.0872 0.0743 -0.0872
Zr1E 0.1119 0.1145 0.1145 0.0743 -0.0872 -0.0872
Zr1G 0.1145 0.1145 0.1119 -0.0872 -0.0872 0.0743
Zr1H 0.1119 0.1145 0.1145 -0.0743 0.0872 -0.0872
Zr1I 0.1145 0.1145 0.1119 0.0872 -0.0872 -0.0743
Zr1L 0.1145 0.1145 0.1119 -0.0872 -0.0872 0.0743
Zr1R 0.1145 0.1119 0.1145 -0.0872 -0.0743 0.0872
Zr1EA 0.1145 0.1145 0.1119 -0.0872 -0.0872 0.0743
Zr1FA 0.1119 0.1145 0.1145 -0.0743 0.0872 -0.0872
Zr1GA 0.1145 0.1145 0.1119 0.0872 -0.0872 -0.0743
Zr1HA 0.1145 0.1119 0.1145 0.0872 0.0743 0.0872
Zr1IA 0.1145 0.1145 0.1119 0.0872 0.0872 0.0743
Zr1JA 0.1145 0.1145 0.1119 -0.0872 -0.0872 0.0743
Zr1KA 0.1145 0.1119 0.1145 0.0872 -0.0743 -0.0872
Zr1LA 0.1145 0.1145 0.1119 -0.0872 0.0872 -0.0743
Zr1MA 0.1145 0.1119 0.1145 -0.0872 -0.0743 0.0872
Zr1NA 0.1145 0.1119 0.1145 -0.0872 0.0743 -0.0872
Zr1OA 0.1145 0.1145 0.1119 0.0872 -0.0872 -0.0743
Zr1TA 0.1145 0.1145 0.1119 -0.0872 0.0872 -0.0743
Zr1UA 0.1145 0.1145 0.1119 0.0872 0.0872 0.0743
O1L 0.24 0.24 0.39 -0.18 -0.18 0.17
O1EA 0.24 0.24 0.39 -0.18 -0.18 0.17
O1FA 0.39 0.24 0.24 -0.17 0.18 -0.18
O1HA 0.24 0.39 0.24 0.18 0.17 0.18
O1IA 0.24 0.24 0.39 0.18 0.18 0.17
O1JA 0.24 0.24 0.39 -0.18 -0.18 0.17
O1KA 0.24 0.39 0.24 0.18 -0.17 -0.18
O1LA 0.24 0.24 0.39 -0.18 0.18 -0.17
O1MA 0.24 0.39 0.24 -0.18 -0.17 0.18
O1NA 0.24 0.39 0.24 -0.18 0.17 -0.18
O1OA 0.24 0.24 0.39 0.18 -0.18 -0.17
O1UA 0.24 0.24 0.39 0.18 0.18 0.17
O2J 0.186 0.096 0.087 0.07 0.028 0.068
O2K 0.087 0.186 0.096 0.068 0.07 0.028
O2V 0.186 0.087 0.096 -0.07 0.068 -0.028
O2SA 0.096 0.186 0.087 0.028 0.07 0.068
O2VA 0.096 0.087 0.186 0.028 0.068 0.07
O2XA 0.096 0.087 0.186 -0.028 -0.068 0.07
O2JB 0.087 0.186 0.096 -0.068 0.07 -0.028
O2OB 0.087 0.096 0.186 0.068 0.028 0.07
O2SB 0.186 0.087 0.096 0.07 0.068 0.028
O2TB 0.096 0.087 0.186 0.028 0.068 0.07
O2DC 0.186 0.096 0.087 0.07 0.028 0.068
O2IC 0.186 0.096 0.087 -0.07 -0.028 0.068
O3B 0.022 0.022 0.022 -0.01 -0.01 0.01
O3S 0.022 0.022 0.022 0.01 0.01 0.01
O3DA 0.022 0.022 0.022 -0.01 -0.01 0.01
O3QA 0.022 0.022 0.022 0.01 0.01 0.01
loop_
_geom_bond_atom_site_label_1
_geom_bond_atom_site_label_2
_geom_bond_site_symmetry_1
_geom_bond_site_symmetry_2
Zr1 O1 1_555 1_555
O1 Zr1QA 1_555 1_555
Zr2 N1 1_555 1_555
O2 Zr1 1_555 1_555
C1 O2 1_555 1_555
C2 C1 1_555 1_555
C3 C2 1_555 1_555
H1 C3 1_555 1_555
C4 C3 1_555 1_555
H2 C4 1_555 1_555
C5 C4 1_555 1_555
C6 C5 1_555 1_555
N1 C7 1_555 1_555
C7 C6 1_555 1_555
C8 C7 1_555 1_555
H3 C8 1_555 1_555
O3 Zr1 1_555 1_555
O4 Zr1 1_555 1_555
O2QA C1 1_555 1_555
C3QA C2 1_555 1_555
H1QA C3QA 1_555 1_555
C4QA C5 1_555 1_555
H2QA C4QA 1_555 1_555
N1QA Zr2 1_555 1_555
C7QA C6 1_555 1_555
C8QA C7QA 1_555 1_555
H3QA C8QA 1_555 1_555
O2AB C1AB 1_555 1_555
C1AB C2AB 1_555 1_555
C2AB C3AB 1_555 1_555
C3AB H1AB 1_555 1_555
C4AB C3AB 1_555 1_555
H2AB C4AB 1_555 1_555
C5AB C4AB 1_555 1_555
C6AB C5AB 1_555 1_555
C7AB N1 1_555 1_555
C8AB C8 1_555 1_555
H3AB C8AB 1_555 1_555
O2UB C1AB 1_555 1_555
C3UB C2AB 1_555 1_555
H1UB C3UB 1_555 1_555
C4UB C5AB 1_555 1_555
H2UB C4UB 1_555 1_555
N1PA Zr2 1_555 1_555
C7UB C6AB 1_555 1_555
C8UB C7UB 1_555 1_555
H3UB C8UB 1_555 1_555
O2WB C1DB 1_555 1_555
C1DB C2DB 1_555 1_555
C2DB C3WB 1_555 1_555
C3WB H1WB 1_555 1_555
C4WB C3WB 1_555 1_555
H2WB C4WB 1_555 1_555
C5DB C4WB 1_555 1_555
C6DB C5DB 1_555 1_555
C7WB N1QA 1_555 1_555
C8WB C8QA 1_555 1_555
H3WB C8WB 1_555 1_555
O2PA C1B 1_555 1_555
C1B C2B 1_555 1_555
C2B C3PA 1_555 1_555
C3PA H1PA 1_555 1_555
C4PA C3PA 1_555 1_555
H2PA C4PA 1_555 1_555
C5B C4PA 1_555 1_555
C6B C5B 1_555 1_555
C7PA N1PA 1_555 1_555
C8PA C8UB 1_555 1_555
H3PA C8PA 1_555 1_555
O2DB C1DB 1_555 1_555
C3DB C2DB 1_555 1_555
H1DB C3DB 1_555 1_555
C4DB C5DB 1_555 1_555
H2DB C4DB 1_555 1_555
N1B Zr2 1_555 1_555
C7DB C6DB 1_555 1_555
C8DB C7DB 1_555 1_555
H3DB C8DB 1_555 1_555
O2B C1B 1_555 1_555
C3B C2B 1_555 1_555
H1B C3B 1_555 1_555
C4B C5B 1_555 1_555
H2B C4B 1_555 1_555
C7B C6B 1_555 1_555
C8B C8DB 1_555 1_555
H3B C8B 1_555 1_555
Zr1B O2B 1_555 1_555
O1B Zr1B 1_555 1_555
O4B Zr1B 1_555 1_555
Zr1D O2DB 1_555 1_555
O1D Zr1D 1_555 1_555
Zr2D N1D 1_555 1_555
O2D Zr1D 1_555 1_555
C1D O2D 1_555 1_555
C2D C1D 1_555 1_555
C3D C2D 1_555 1_555
H1D C3D 1_555 1_555
C4D C3D 1_555 1_555
H2D C4D 1_555 1_555
C5D C4D 1_555 1_555
C6D C5D 1_555 1_555
N1D C7D 1_555 1_555
C7D C6D 1_555 1_555
C8D C7D 1_555 1_555
H3D C8D 1_555 1_555
O3C Zr1D 1_555 1_555
O4D Zr1D 1_555 1_555
O2LA C1D 1_555 1_555
C3LA C2D 1_555 1_555
H1LA C3LA 1_555 1_555
C4LA C5D 1_555 1_555
H2LA C4LA 1_555 1_555
N1LA Zr2D 1_555 1_555
C7LA C6D 1_555 1_555
C8LA C7LA 1_555 1_555
H3LA C8LA 1_555 1_555
O2BB Zr1B 1_555 1_555
C1BB O2BB 1_555 1_555
C2BB C1BB 1_555 1_555
C3BB C2BB 1_555 1_555
H1BB C3BB 1_555 1_555
C4BB C3BB 1_555 1_555
H2BB C4BB 1_555 1_555
C5BB C4BB 1_555 1_555
C6BB C5BB 1_555 1_555
C7BB N1D 1_555 1_555
C8BB C8D 1_555 1_555
H3BB C8BB 1_555 1_555
O2FC C1BB 1_555 1_555
C3FC C2BB 1_555 1_555
H1FC C3FC 1_555 1_555
C4FC C5BB 1_555 1_555
H2FC C4FC 1_555 1_555
N1IA Zr2D 1_555 1_555
C7FC C6BB 1_555 1_555
C8FC C7FC 1_555 1_555
H3FC C8FC 1_555 1_555
O2KC C1PB 1_555 1_555
C1PB C2PB 1_555 1_555
C2PB C3KC 1_555 1_555
C3KC H1KC 1_555 1_555
C4KC C3KC 1_555 1_555
H2KC C4KC 1_555 1_555
C5PB C4KC 1_555 1_555
C6PB C5PB 1_555 1_555
C7KC N1LA 1_555 1_555
C8KC C8LA 1_555 1_555
H3KC C8KC 1_555 1_555
O2IA C1U 1_555 1_555
C1U C2U 1_555 1_555
C2U C3IA 1_555 1_555
C3IA H1IA 1_555 1_555
C4IA C3IA 1_555 1_555
H2IA C4IA 1_555 1_555
C5U C4IA 1_555 1_555
C6U C5U 1_555 1_555
C7IA N1IA 1_555 1_555
C8IA C8FC 1_555 1_555
H3IA C8IA 1_555 1_555
O2PB C1PB 1_555 1_555
C3PB C2PB 1_555 1_555
H1PB C3PB 1_555 1_555
C4PB C5PB 1_555 1_555
H2PB C4PB 1_555 1_555
N1U Zr2D 1_555 1_555
C7PB C6PB 1_555 1_555
C8PB C7PB 1_555 1_555
H3PB C8PB 1_555 1_555
O2U C1U 1_555 1_555
C3U C2U 1_555 1_555
H1U C3U 1_555 1_555
C4U C5U 1_555 1_555
H2U C4U 1_555 1_555
C7U C6U 1_555 1_555
C8U C8PB 1_555 1_555
H3U C8U 1_555 1_555
Zr1F O1F 1_555 1_555
O1F Zr1JA 1_555 1_555
Zr2F N1F 1_555 1_555
O2F Zr1F 1_555 1_555
C1F O2F 1_555 1_555
C2F C1F 1_555 1_555
C3F C2F 1_555 1_555
H1F C3F 1_555 1_555
C4F C3F 1_555 1_555
H2F C4F 1_555 1_555
C5F C4F 1_555 1_555
C6F C5F 1_555 1_555
N1F C7F 1_555 1_555
C7F C6F 1_555 1_555
C8F C7F 1_555 1_555
H3F C8F 1_555 1_555
O3F Zr1F 1_555 1_555
O4F Zr1F 1_555 1_555
O2JA C1F 1_555 1_555
C3JA C2F 1_555 1_555
H1JA C3JA 1_555 1_555
C4JA C5F 1_555 1_555
H2JA C4JA 1_555 1_555
N1JA Zr2F 1_555 1_555
C7JA C6F 1_555 1_555
C8JA C7JA 1_555 1_555
H3JA C8JA 1_555 1_555
O2ZA C1ZA 1_555 1_555
C1ZA C2ZA 1_555 1_555
C2ZA C3ZA 1_555 1_555
C3ZA H1ZA 1_555 1_555
C4ZA C3ZA 1_555 1_555
H2ZA C4ZA 1_555 1_555
C5ZA C4ZA 1_555 1_555
C6ZA C5ZA 1_555 1_555
C7ZA N1F 1_555 1_555
C8ZA C8F 1_555 1_555
H3ZA C8ZA 1_555 1_555
O2HC C1ZA 1_555 1_555
C3HC C2ZA 1_555 1_555
H1HC C3HC 1_555 1_555
C4HC C5ZA 1_555 1_555
H2HC C4HC 1_555 1_555
N1OA Zr2F 1_555 1_555
C7HC C6ZA 1_555 1_555
C8HC C7HC 1_555 1_555
H3HC C8HC 1_555 1_555
O2EC C1QB 1_555 1_555
C1QB C2QB 1_555 1_555
C2QB C3EC 1_555 1_555
C3EC H1EC 1_555 1_555
C4EC C3EC 1_555 1_555
H2EC C4EC 1_555 1_555
C5QB C4EC 1_555 1_555
C6QB C5QB 1_555 1_555
C7EC N1JA 1_555 1_555
C8EC C8JA 1_555 1_555
H3EC C8EC 1_555 1_555
O2OA C1T 1_555 1_555
C1T C2T 1_555 1_555
C2T C3OA 1_555 1_555
C3OA H1OA 1_555 1_555
C4OA C3OA 1_555 1_555
H2OA C4OA 1_555 1_555
C5T C4OA 1_555 1_555
C6T C5T 1_555 1_555
C7OA N1OA 1_555 1_555
C8OA C8HC 1_555 1_555
H3OA C8OA 1_555 1_555
O2QB Zr1 1_555 1_555
C3QB C2QB 1_555 1_555
H1QB C3QB 1_555 1_555
C4QB C5QB 1_555 1_555
H2QB C4QB 1_555 1_555
N1T Zr2F 1_555 1_555
C7QB C6QB 1_555 1_555
C8QB C7QB 1_555 1_555
H3QB C8QB 1_555 1_555
O2T C1T 1_555 1_555
C3T C2T 1_555 1_555
H1T C3T 1_555 1_555
C4T C5T 1_555 1_555
H2T C4T 1_555 1_555
C7T C6T 1_555 1_555
C8T C8QB 1_555 1_555
H3T C8T 1_555 1_555
Zr1J O3 1_555 1_555
O1J Zr1J 1_555 1_555
O4J Zr1J 1_555 1_555
Zr1K O3 1_555 1_555
O1K Zr1K 1_555 1_555
O4K Zr1K 1_555 1_555
Zr1T O2AB 1_555 1_555
O1T Zr1T 1_555 1_555
O3A Zr1T 1_555 1_555
O4T Zr1T 1_555 1_555
Zr1U O2U 1_555 1_555
O1U Zr1U 1_555 1_555
O4U Zr1U 1_555 1_555
Zr1V O3C 1_555 1_555
O1V Zr1V 1_555 1_555
O4V Zr1V 1_555 1_555
Zr1PA O2PA 1_555 1_555
O1PA Zr1B 1_555 1_555
O4PA Zr1PA 1_555 1_555
Zr1QA O2QA 1_555 1_555
O1QA Zr1 1_555 1_555
O4QA Zr1QA 1_555 1_555
Zr1SA O1J 1_555 1_555
O1SA Zr1J 1_555 1_555
O4SA Zr1SA 1_555 1_555
O4AB Zr1T 1_555 1_555
O4BB Zr1B 1_555 1_555
O4DB Zr1D 1_555 1_555
O4JB Zr1V 1_555 1_555
O4QB Zr1 1_555 1_555
O4XA Zr1F 1_555 1_555
O4OB Zr1J 1_555 1_555
O4SB Zr1K 1_555 1_555
O4VA Zr1U 1_555 1_555
O4IC Zr1PA 1_555 1_555
O4DC Zr1QA 1_555 1_555
O4TB Zr1SA 1_555 1_555
Zr1A O3A 1_555 1_555
Zr1C O3C 1_555 1_555
Zr1E O2PB 1_555 1_555
Zr1G O3F 1_555 1_555
Zr1H O2ZA 1_555 1_555
Zr1I O3A 1_555 1_555
Zr1L O1PA 1_555 1_555
Zr1R O3F 1_555 1_555
Zr1EA O1B 1_555 1_555
Zr1FA O1V 1_555 1_555
Zr1GA O2KC 1_555 1_555
Zr1HA O1U 1_555 1_555
Zr1IA O2IA 1_555 1_555
Zr1JA O2JA 1_555 1_555
Zr1KA O2UB 1_555 1_555
Zr1LA O1D 1_555 1_555
Zr1MA O1F 1_555 1_555
Zr1NA O2WB 1_555 1_555
Zr1OA O2OA 1_555 1_555
Zr1TA O2HC 1_555 1_555
Zr1UA O1 1_555 1_555
O1L Zr1PA 1_555 1_555
O1EA Zr1B 1_555 1_555
O1FA Zr1V 1_555 1_555
O1HA Zr1U 1_555 1_555
O1IA Zr1U 1_555 1_555
O1JA Zr1F 1_555 1_555
O1KA Zr1T 1_555 1_555
O1LA Zr1D 1_555 1_555
O1MA Zr1F 1_555 1_555
O1NA Zr1D 1_555 1_555
O1OA Zr1T 1_555 1_555
O1UA Zr1 1_555 1_555
O2J Zr1J 1_555 1_555
O2K Zr1K 1_555 1_555
O2V Zr1V 1_555 1_555
O2SA Zr1SA 1_555 1_555
O2VA Zr1U 1_555 1_555
O2XA Zr1F 1_555 1_555
O2JB Zr1V 1_555 1_555
O2OB Zr1J 1_555 1_555
O2SB Zr1K 1_555 1_555
O2TB Zr1SA 1_555 1_555
O2DC Zr1QA 1_555 1_555
O2IC Zr1PA 1_555 1_555
O3B Zr1B 1_555 1_555
O3S Zr1U 1_555 1_555
O3DA Zr1PA 1_555 1_555
O3QA Zr1QA 1_555 1_555
C3QA C4QA 1_555 1_555
N1QA C7QA 1_555 1_555
C6AB C7AB 1_555 1_555
C7AB C8AB 1_555 1_555
C3UB C4UB 1_555 1_555
N1PA C7UB 1_555 1_555
C6DB C7WB 1_555 1_555
C7WB C8WB 1_555 1_555
C6B C7PA 1_555 1_555
C7PA C8PA 1_555 1_555
C3DB C4DB 1_555 1_555
N1B C7DB 1_555 1_555
N1B C7B 1_555 1_555
C3B C4B 1_555 1_555
C7B C8B 1_555 1_555
O1B Zr1PA 1_555 1_555
O1D Zr1NA 1_555 1_555
O2LA Zr1LA 1_555 1_555
C3LA C4LA 1_555 1_555
N1LA C7LA 1_555 1_555
C6BB C7BB 1_555 1_555
C7BB C8BB 1_555 1_555
O2FC Zr1EA 1_555 1_555
C3FC C4FC 1_555 1_555
N1IA C7FC 1_555 1_555
C6PB C7KC 1_555 1_555
C7KC C8KC 1_555 1_555
C6U C7IA 1_555 1_555
C7IA C8IA 1_555 1_555
C3PB C4PB 1_555 1_555
N1U C7PB 1_555 1_555
N1U C7U 1_555 1_555
C3U C4U 1_555 1_555
C7U C8U 1_555 1_555
C3JA C4JA 1_555 1_555
N1JA C7JA 1_555 1_555
C6ZA C7ZA 1_555 1_555
C7ZA C8ZA 1_555 1_555
C3HC C4HC 1_555 1_555
N1OA C7HC 1_555 1_555
O2EC Zr1UA 1_555 1_555
C1QB O2QB 1_555 1_555
C6QB C7EC 1_555 1_555
C7EC C8EC 1_555 1_555
C6T C7OA 1_555 1_555
C7OA C8OA 1_555 1_555
C3QB C4QB 1_555 1_555
N1T C7QB 1_555 1_555
N1T C7T 1_555 1_555
O2T Zr1T 1_555 1_555
C3T C4T 1_555 1_555
C7T C8T 1_555 1_555
Zr1J O1UA 1_555 1_555
O1J Zr1UA 1_555 1_555
Zr1K O1QA 1_555 1_555
Zr1K O1SA 1_555 1_555
O1K Zr1QA 1_555 1_555
O1K Zr1SA 1_555 1_555
O1T Zr1KA 1_555 1_555
O1T Zr1OA 1_555 1_555
O1U Zr1IA 1_555 1_555
Zr1V O1NA 1_555 1_555
O1V Zr1NA 1_555 1_555
Zr1PA O1PA 1_555 1_555
Zr1QA O1QA 1_555 1_555
Zr1SA O1SA 1_555 1_555
Zr1SA O3QA 1_555 1_555
Zr1A O1OA 1_555 1_555
Zr1C O1FA 1_555 1_555
Zr1C O1LA 1_555 1_555
Zr1G O1MA 1_555 1_555
Zr1I O1KA 1_555 1_555
Zr1L O1L 1_555 1_555
Zr1L O3B 1_555 1_555
Zr1R O1JA 1_555 1_555
Zr1EA O1EA 1_555 1_555
Zr1EA O3DA 1_555 1_555
Zr1FA O1FA 1_555 1_555
Zr1HA O1HA 1_555 1_555
Zr1IA O1IA 1_555 1_555
Zr1JA O1JA 1_555 1_555
Zr1KA O1KA 1_555 1_555
Zr1LA O1LA 1_555 1_555
Zr1MA O1MA 1_555 1_555
Zr1NA O1NA 1_555 1_555
Zr1OA O1OA 1_555 1_555
Zr1UA O1UA 1_555 1_555
Zr1UA O3QA 1_555 1_555

#END
