
#######################################################################
#
#                 Cambridge Crystallographic Data Centre
#                                CCDC 
#
#######################################################################
#
# If this CIF has been generated from an entry in the Cambridge 
# Structural Database, then it will include bibliographic, chemical, 
# crystal, experimental, refinement or atomic coordinate data resulting 
# from the CCDC's data processing and validation procedures.
#
#######################################################################

data_KIYQEQ
_chemical_formula_moiety         '(C23 H27 N5 O11 Zn2)n'
_symmetry_cell_setting           monoclinic
_symmetry_space_group_name_H-M   'P 21/n'
_symmetry_Int_Tables_number      14
_space_group_name_Hall           '-P 2yn'
loop_
_symmetry_equiv_pos_site_id
_symmetry_equiv_pos_as_xyz
1 x,y,z
2 1/2-x,1/2+y,1/2-z
3 -x,-y,-z
4 1/2+x,1/2-y,1/2+z
_cell_length_a                   14.6235(12)
_cell_length_b                   12.2856(11)
_cell_length_c                   14.1355(14)
_cell_angle_alpha                90
_cell_angle_beta                 106.068(13)
_cell_angle_gamma                90
_cell_volume                     2440.35
loop_
_atom_site_label
_atom_site_type_symbol
_atom_site_fract_x
_atom_site_fract_y
_atom_site_fract_z
_atom_site_U_iso_or_equiv
_atom_site_thermal_displace_type
Zn1 Zn 0.34110(13) 0.97750(18) 0.64670(15) 0.0369 Uiso
O1 O 0.2465(6) 1.0981(7) 0.6647(6) 0.0400 Uiso
O2 O 0.1728(6) 1.2496(7) 0.6111(8) 0.0440 Uiso
O3 O 0.4728(6) 1.2469(7) 0.2909(7) 0.0410 Uiso
O4 O 0.5387(6) 1.1097(7) 0.3857(6) 0.0470 Uiso
N1 N 0.3470(7) 1.0967(10) 0.5398(8) 0.0470 Uiso
C1 C 0.2954(9) 1.1875(13) 0.5422(10) 0.0460 Uiso
C2 C 0.2964(9) 1.2755(12) 0.4832(11) 0.0450 Uiso
H1 H 0.2576 1.3354 0.4835 0.0540 Uiso
C3 C 0.3561(10) 1.2733(12) 0.4236(11) 0.0450 Uiso
H2 H 0.3604 1.3341 0.3859 0.0540 Uiso
C4 C 0.4089(9) 1.1837(13) 0.4189(10) 0.0410 Uiso
C5 C 0.3985(9) 1.0936(12) 0.4750(10) 0.0470 Uiso
H3 H 0.4285 1.0289 0.4671 0.0560 Uiso
C6 C 0.4771(9) 1.1820(13) 0.3580(11) 0.0480 Uiso
C7 C 0.2335(9) 1.1821(12) 0.6103(10) 0.0420 Uiso
Zn2 Zn 0.42280(13) 0.75590(14) 0.79970(14) 0.0320 Uiso
O5 O 0.4079(6) 0.9253(8) 0.7862(6) 0.0360 Uiso
O6 O 0.4773(5) 1.0865(7) 0.8235(6) 0.0360 Uiso
O7 O 0.8294(6) 0.7905(9) 1.1757(7) 0.0420 Uiso
O8 O 0.7491(6) 0.6389(6) 1.1097(6) 0.0390 Uiso
N2 N 0.5429(7) 0.8143(10) 0.9110(8) 0.0440 Uiso
C8 C 0.5514(9) 0.9234(12) 0.9121(10) 0.0430 Uiso
C9 C 0.6208(10) 0.9740(11) 0.9806(11) 0.0400 Uiso
H4 H 0.6214 1.0497 0.9821 0.0480 Uiso
C10 C 0.6888(9) 0.9204(14) 1.0465(11) 0.0480 Uiso
H5 H 0.7372 0.9575 1.0916 0.0570 Uiso
C11 C 0.6853(8) 0.8068(15) 1.0458(10) 0.0410 Uiso
C12 C 0.6117(9) 0.7561(10) 0.9775(10) 0.0430 Uiso
H6 H 0.6086 0.6805 0.9765 0.0510 Uiso
C13 C 0.7619(10) 0.7438(10) 1.1152(12) 0.0400 Uiso
C14 C 0.4736(10) 0.9860(12) 0.8359(11) 0.0480 Uiso
O9 O 0.4791(6) 0.5914(8) 0.8400(7) 0.0620 Uiso
N3 N 0.4634(7) 0.4139(10) 0.8147(8) 0.0620 Uiso
C15 C 0.4147(10) 0.3192(14) 0.7591(11) 0.0620 Uiso
H7 H 0.4476 0.2538 0.7862 0.0930 Uiso
H8 H 0.4144 0.3259 0.6913 0.0930 Uiso
H9 H 0.3504 0.3162 0.7635 0.0930 Uiso
C16 C 0.4341(10) 0.5135(13) 0.7939(11) 0.0620 Uiso
H10 H 0.3787 0.5263 0.7438 0.0750 Uiso
C17 C 0.5522(8) 0.3934(10) 0.8894(9) 0.0620 Uiso
H11 H 0.6037 0.4262 0.8699 0.0930 Uiso
H12 H 0.5625 0.3163 0.8968 0.0930 Uiso
H13 H 0.5491 0.4240 0.9509 0.0930 Uiso
Zn1B Zn 0.65890(13) 1.02250(18) 0.35330(15) 0.0369 Uiso
Zn1C Zn 0.84110(13) 0.52250(18) 1.14670(15) 0.0369 Uiso
O2A O 0.3272(6) 0.7496(7) 0.8889(8) 0.0440 Uiso
O3B O 0.5272(6) 0.7531(7) 0.7091(7) 0.0410 Uiso
O4B O 0.4613(6) 0.8903(7) 0.6143(6) 0.0470 Uiso
Zn2A Zn 0.07720(13) 1.25590(14) 0.70030(14) 0.0320 Uiso
Zn2B Zn 0.57720(13) 1.24410(14) 0.20030(14) 0.0320 Uiso
Zn2C Zn 0.92280(13) 0.74410(14) 1.29970(14) 0.0320 Uiso
O7C O 0.3294(6) 0.7095(9) 0.6757(7) 0.0420 Uiso
O8C O 0.2491(6) 0.8611(6) 0.6097(6) 0.0390 Uiso
O11 O 0.8566(10) 0.7254(11) 0.8322(11) 0.0710 Uiso
N5 N 0.7818(11) 0.5731(16) 0.7770(13) 0.0710 Uiso
C21 C 0.7725(16) 0.4691(18) 0.7238(17) 0.0710 Uiso
H21 H 0.7147 0.4336 0.7263 0.1070 Uiso
H22 H 0.8259 0.4234 0.7539 0.1070 Uiso
H23 H 0.7709 0.4824 0.6564 0.1070 Uiso
C22 C 0.8539(15) 0.6389(17) 0.7856(16) 0.0710 Uiso
H24 H 0.9024 0.6214 0.7573 0.0850 Uiso
C23 C 0.7051(15) 0.6043(17) 0.8175(15) 0.0710 Uiso
H25 H 0.6580 0.5477 0.8052 0.1070 Uiso
H26 H 0.6767 0.6706 0.7869 0.1070 Uiso
H27 H 0.7296 0.6154 0.8871 0.1070 Uiso
O11B O 0.1434(10) 0.2746(11) 0.1678(11) 0.0710 Uiso
N5B N 0.2182(11) 0.4269(16) 0.2230(13) 0.0710 Uiso
C21B C 0.2275(16) 0.5309(18) 0.2762(17) 0.0710 Uiso
H21B H 0.2853 0.5664 0.2737 0.1070 Uiso
H22B H 0.1741 0.5766 0.2461 0.1070 Uiso
H23B H 0.2291 0.5176 0.3436 0.1070 Uiso
C22B C 0.1461(15) 0.3611(17) 0.2144(16) 0.0710 Uiso
H24B H 0.0976 0.3786 0.2427 0.0850 Uiso
C23B C 0.2949(15) 0.3957(17) 0.1825(15) 0.0710 Uiso
H25B H 0.3420 0.4523 0.1948 0.1070 Uiso
H26B H 0.3233 0.3294 0.2131 0.1070 Uiso
H27B H 0.2704 0.3846 0.1129 0.1070 Uiso
loop_
_geom_bond_atom_site_label_1
_geom_bond_atom_site_label_2
_geom_bond_site_symmetry_1
_geom_bond_site_symmetry_2
Zn1 O1 1_555 1_555
O1 C7 1_555 1_555
O2 C7 1_555 1_555
O3 C6 1_555 1_555
O4 C6 1_555 1_555
N1 Zn1 1_555 1_555
C1 N1 1_555 1_555
C2 C1 1_555 1_555
H1 C2 1_555 1_555
C3 C2 1_555 1_555
H2 C3 1_555 1_555
C4 C3 1_555 1_555
C5 N1 1_555 1_555
H3 C5 1_555 1_555
C6 C4 1_555 1_555
C7 C1 1_555 1_555
Zn2 O5 1_555 1_555
O5 Zn1 1_555 1_555
O6 C14 1_555 1_555
O7 C13 1_555 1_555
O8 C13 1_555 1_555
N2 Zn2 1_555 1_555
C8 N2 1_555 1_555
C9 C8 1_555 1_555
H4 C9 1_555 1_555
C10 C9 1_555 1_555
H5 C10 1_555 1_555
C11 C10 1_555 1_555
C12 N2 1_555 1_555
H6 C12 1_555 1_555
C13 C11 1_555 1_555
C14 O5 1_555 1_555
O9 Zn2 1_555 1_555
N3 C15 1_555 1_555
C15 H7 1_555 1_555
H8 C15 1_555 1_555
H9 C15 1_555 1_555
C16 O9 1_555 1_555
H10 C16 1_555 1_555
C17 N3 1_555 1_555
H11 C17 1_555 1_555
H12 C17 1_555 1_555
H13 C17 1_555 1_555
O11 C22 1_555 1_555
N5 C21 1_555 1_555
C21 H21 1_555 1_555
H22 C21 1_555 1_555
H23 C21 1_555 1_555
C22 N5 1_555 1_555
H24 C22 1_555 1_555
C23 N5 1_555 1_555
H25 C23 1_555 1_555
H26 C23 1_555 1_555
H27 C23 1_555 1_555
Zn1B O4 1_555 1_555
Zn1C O8 1_555 1_555
O2A Zn2 1_555 1_555
O3B Zn2 1_555 1_555
O4B Zn1 1_555 1_555
Zn2A O2 1_555 1_555
Zn2B O3 1_555 1_555
Zn2C O7 1_555 1_555
O7C Zn2 1_555 1_555
O8C Zn1 1_555 1_555
O11B C22B 1_555 1_555
N5B C21B 1_555 1_555
C21B H21B 1_555 1_555
H22B C21B 1_555 1_555
H23B C21B 1_555 1_555
C22B N5B 1_555 1_555
H24B C22B 1_555 1_555
C23B N5B 1_555 1_555
H25B C23B 1_555 1_555
H26B C23B 1_555 1_555
H27B C23B 1_555 1_555
C4 C5 1_555 1_555
C8 C14 1_555 1_555
C11 C12 1_555 1_555
N3 C16 1_555 1_555

#END
