
#######################################################################
#
#                 Cambridge Crystallographic Data Centre
#                                CCDC 
#
#######################################################################
#
# If this CIF has been generated from an entry in the Cambridge 
# Structural Database, then it will include bibliographic, chemical, 
# crystal, experimental, refinement or atomic coordinate data resulting 
# from the CCDC's data processing and validation procedures.
#
#######################################################################

data_KIYQOA
_chemical_formula_moiety         '(C17 H17 N3 O11 Zn2)n'
_symmetry_cell_setting           monoclinic
_symmetry_space_group_name_H-M   'P 21/n'
_symmetry_Int_Tables_number      14
_space_group_name_Hall           '-P 2yn'
loop_
_symmetry_equiv_pos_site_id
_symmetry_equiv_pos_as_xyz
1 x,y,z
2 1/2-x,1/2+y,1/2-z
3 -x,-y,-z
4 1/2+x,1/2-y,1/2+z
_cell_length_a                   16.4202(12)
_cell_length_b                   12.0913(17)
_cell_length_c                   11.5641(16)
_cell_angle_alpha                90
_cell_angle_beta                 106.261(17)
_cell_angle_gamma                90
_cell_volume                     2204.11
loop_
_atom_site_label
_atom_site_type_symbol
_atom_site_fract_x
_atom_site_fract_y
_atom_site_fract_z
_atom_site_U_iso_or_equiv
_atom_site_thermal_displace_type
Zn1 Zn 0.80630(19) 0.4985(2) 0.5883(3) 0.0430 Uiso
O1 O 0.7208(8) 0.6061(11) 0.6353(11) 0.0500 Uiso
O2 O 0.6827(8) 0.7817(11) 0.6427(12) 0.0530 Uiso
O3 O 1.0155(8) 0.8997(11) 0.3885(12) 0.0510 Uiso
O4 O 1.0363(8) 0.7178(12) 0.3973(11) 0.0490 Uiso
N1 N 0.8452(10) 0.6568(15) 0.5450(14) 0.0530 Uiso
C1 C 0.7999(12) 0.7415(17) 0.5692(19) 0.0540 Uiso
C2 C 0.8143(12) 0.8492(18) 0.5427(18) 0.0540 Uiso
H1 H 0.7807 0.9062 0.5581 0.0640 Uiso
C3 C 0.8797(12) 0.8711(17) 0.4929(19) 0.0580 Uiso
H2 H 0.8916 0.9436 0.4761 0.0700 Uiso
C4 C 0.9271(11) 0.7857(17) 0.4683(17) 0.0510 Uiso
C5 C 0.9067(12) 0.6788(18) 0.494(2) 0.0610 Uiso
H3 H 0.9372 0.6203 0.4744 0.0730 Uiso
C6 C 0.9997(12) 0.8040(19) 0.4152(19) 0.0570 Uiso
C7 C 0.7295(11) 0.7089(17) 0.6214(17) 0.0520 Uiso
Zn2 Zn 0.90031(17) 0.2643(2) 0.7523(3) 0.0389 Uiso
O5 O 0.8949(8) 0.4374(12) 0.7468(12) 0.0530 Uiso
O6 O 0.9668(7) 0.5917(11) 0.8102(11) 0.0480 Uiso
O7 O 1.2983(8) 0.2376(11) 1.1151(12) 0.0520 Uiso
O8 O 1.2087(8) 0.1016(11) 1.0347(13) 0.0510 Uiso
N2 N 1.0193(9) 0.3113(15) 0.8682(14) 0.0540 Uiso
C8 C 1.0331(12) 0.4204(18) 0.8770(18) 0.0540 Uiso
C9 C 1.1075(12) 0.4648(18) 0.945(2) 0.0620 Uiso
H4 H 1.1145 0.5411 0.9504 0.0750 Uiso
C10 C 1.1611(11) 0.2823(18) 0.9910(18) 0.0610 Uiso
C11 C 1.1724(12) 0.3952(18) 1.0044(19) 0.0570 Uiso
H5 H 1.2229 0.4240 1.0531 0.0690 Uiso
C12 C 1.0827(12) 0.2436(17) 0.9249(18) 0.0530 Uiso
H6 H 1.0736 0.1677 0.9193 0.0640 Uiso
C13 C 1.2292(12) 0.2016(17) 1.0526(19) 0.0610 Uiso
C14 C 0.9599(12) 0.4903(17) 0.8056(19) 0.0570 Uiso
O9 O 0.8886(8) 0.4412(13) 0.4491(13) 0.0580 Uiso
H7 H 0.8646 0.4064 0.3845 0.0870 Uiso
H8 H 0.9363 0.4089 0.4755 0.0870 Uiso
O10 O 0.9260 0.0815 0.7763 0.0610 Uiso
H9 H 0.9498 0.0410 0.7353 0.0910 Uiso
H10 H 0.8980 0.0356 0.8060 0.0910 Uiso
Zn1C Zn 1.30630(19) 0.0015(2) 1.0883(3) 0.0430 Uiso
O2A O 0.8173(8) 0.2817(11) 0.8573(12) 0.0530 Uiso
O4B O 0.9637(8) 0.2822(12) 0.6027(11) 0.0490 Uiso
Zn2A Zn 0.59969(17) 0.7643(2) 0.7477(3) 0.0389 Uiso
Zn2B Zn 1.09969(17) 0.7357(2) 0.2477(3) 0.0389 Uiso
Zn2C Zn 1.40031(17) 0.2357(2) 1.2523(3) 0.0389 Uiso
O7C O 0.7983(8) 0.2624(11) 0.6151(12) 0.0520 Uiso
O8C O 0.7087(8) 0.3984(11) 0.5347(13) 0.0510 Uiso
O11 O 0.7989(8) 0.2873(11) 0.2879(11) 0.0480 Uiso
N3 N 0.8648(9) 0.1536(13) 0.2199(14) 0.0480 Uiso
C15 C 0.9260(12) 0.1144(16) 0.1571(19) 0.0480 Uiso
H11 H 0.9269 0.0350 0.1571 0.0720 Uiso
H12 H 0.9815 0.1418 0.1976 0.0720 Uiso
H13 H 0.9095 0.1408 0.0755 0.0720 Uiso
C16 C 0.8504(12) 0.2580(16) 0.2336(19) 0.0480 Uiso
H14 H 0.8792 0.3112 0.2022 0.0580 Uiso
C17 C 0.8215(11) 0.0699(18) 0.2706(19) 0.0480 Uiso
H15 H 0.8391 -0.0022 0.2526 0.0720 Uiso
H16 H 0.7613 0.0773 0.2365 0.0720 Uiso
H17 H 0.8354 0.0794 0.3564 0.0720 Uiso
loop_
_geom_bond_atom_site_label_1
_geom_bond_atom_site_label_2
_geom_bond_site_symmetry_1
_geom_bond_site_symmetry_2
Zn1 O1 1_555 1_555
O1 C7 1_555 1_555
O2 C7 1_555 1_555
O3 C6 1_555 1_555
O4 C6 1_555 1_555
N1 Zn1 1_555 1_555
C1 N1 1_555 1_555
C2 C1 1_555 1_555
H1 C2 1_555 1_555
C3 C2 1_555 1_555
H2 C3 1_555 1_555
C4 C3 1_555 1_555
C5 N1 1_555 1_555
H3 C5 1_555 1_555
C6 C4 1_555 1_555
C7 C1 1_555 1_555
Zn2 O5 1_555 1_555
O5 Zn1 1_555 1_555
O6 C14 1_555 1_555
O7 C13 1_555 1_555
O8 C13 1_555 1_555
N2 Zn2 1_555 1_555
C8 N2 1_555 1_555
C9 C8 1_555 1_555
H4 C9 1_555 1_555
C10 C11 1_555 1_555
C11 C9 1_555 1_555
H5 C11 1_555 1_555
C12 N2 1_555 1_555
H6 C12 1_555 1_555
C13 C10 1_555 1_555
C14 O5 1_555 1_555
O9 Zn1 1_555 1_555
H7 O9 1_555 1_555
H8 O9 1_555 1_555
O10 Zn2 1_555 1_555
H9 O10 1_555 1_555
H10 O10 1_555 1_555
O11 C16 1_555 1_555
N3 C15 1_555 1_555
C15 H11 1_555 1_555
H12 C15 1_555 1_555
H13 C15 1_555 1_555
C16 N3 1_555 1_555
H14 C16 1_555 1_555
C17 N3 1_555 1_555
H15 C17 1_555 1_555
H16 C17 1_555 1_555
H17 C17 1_555 1_555
Zn1C O8 1_555 1_555
O2A Zn2 1_555 1_555
O4B Zn2 1_555 1_555
Zn2A O2 1_555 1_555
Zn2B O4 1_555 1_555
Zn2C O7 1_555 1_555
O7C Zn2 1_555 1_555
O8C Zn1 1_555 1_555
C4 C5 1_555 1_555
C8 C14 1_555 1_555
C10 C12 1_555 1_555

#END
