
#######################################################################
#
#                 Cambridge Crystallographic Data Centre
#                                CCDC 
#
#######################################################################
#
# If this CIF has been generated from an entry in the Cambridge 
# Structural Database, then it will include bibliographic, chemical, 
# crystal, experimental, refinement or atomic coordinate data resulting 
# from the CCDC's data processing and validation procedures.
#
#######################################################################

data_HUFMUS
_chemical_formula_moiety         '(C13 H8 F4 N2 O8 Sr1)n'
_symmetry_cell_setting           orthorhombic
_symmetry_space_group_name_H-M   'P n a 21'
_symmetry_Int_Tables_number      33
_space_group_name_Hall           'P 2c -2n'
loop_
_symmetry_equiv_pos_site_id
_symmetry_equiv_pos_as_xyz
1 x,y,z
2 -x,-y,1/2+z
3 1/2-x,1/2+y,1/2+z
4 1/2+x,1/2-y,z
_cell_length_a                   14.2686(10)
_cell_length_b                   16.7326(11)
_cell_length_c                   7.0181(5)
_cell_angle_alpha                90
_cell_angle_beta                 90
_cell_angle_gamma                90
_cell_volume                     1675.58
loop_
_atom_site_label
_atom_site_type_symbol
_atom_site_fract_x
_atom_site_fract_y
_atom_site_fract_z
Sr1 Sr 0.42725(2) 0.53210(2) -0.03314(10)
F1 F 0.48053(18) 0.74490(15) 0.6169(4)
F2 F 0.37575(19) 0.87751(14) 0.6121(4)
F3 F 0.12703(18) 0.73259(16) 0.3323(4)
F4 F 0.23331(19) 0.60104(15) 0.3284(4)
O1 O 0.4400(2) 0.5653(2) 0.3119(5)
O2 O 0.56871(18) 0.6271(2) -0.0289(8)
H1 H 0.6040 0.6284 -0.1263
H2 H 0.6018 0.6209 0.0706
O3 O 0.4483(3) 0.5682(2) 0.6257(5)
O4 O 0.1719(3) 0.9165(2) 0.6315(5)
O5 O 0.1605(2) 0.90913(19) 0.3164(5)
O6 O 0.2118(2) 0.7140(2) -0.0914(6)
O7 O 0.2499(2) 0.58832(19) -0.1235(5)
O8 O 0.3521(2) 0.67343(16) -0.0252(6)
N1 N 0.2686(3) 0.6591(2) -0.0816(5)
C1 C 0.4200(2) 0.5943(2) 0.4690(12)
C2 C 0.3598(3) 0.6691(2) 0.4722(7)
C3 C 0.3925(3) 0.7404(2) 0.5460(6)
C4 C 0.3383(3) 0.8089(2) 0.5458(6)
C5 C 0.2474(3) 0.8089(2) 0.4757(8)
C6 C 0.1877(3) 0.8842(2) 0.4756(8)
C7 C 0.2144(3) 0.7370(2) 0.4013(6)
C8 C 0.2696(3) 0.6687(2) 0.4006(6)
Sr1_2 Sr 0.42725(2) 0.53210(2) 0.96686(10)
Sr1A Sr 0.57275(2) 0.46790(2) 0.46686(10)
Sr1B Sr 0.07275(2) 1.03210(2) 0.46686(10)
O1A O 0.5600(2) 0.4347(2) -0.1881(5)
O3_2 O 0.4483(3) 0.5682(2) -0.3743(5)
O3A O 0.5517(3) 0.4318(2) 0.1257(5)
O4B O 0.3281(3) 0.4165(2) 0.1315(5)
O5B O 0.3395(2) 0.40913(19) -0.1836(5)
N2 N 0.0912(4) 0.3251(3) 0.5237(7)
H3 H 0.1084 0.2754 0.5026
C9 C 0.1566(4) 0.3786(3) 0.5602(7)
H4 H 0.2204 0.3627 0.5642
C10 C 0.1334(5) 0.4562(3) 0.5922(10)
H5 H 0.1806 0.4944 0.6207
C11 C 0.0401(5) 0.4789(4) 0.5829(10)
H6 H 0.0226 0.5330 0.6035
C12 C -0.0271(4) 0.4217(5) 0.5432(9)
H7 H -0.0914 0.4361 0.5337
C13 C 0.0007(4) 0.3428(4) 0.5173(8)
H8 H -0.0445 0.3022 0.4954
loop_
_geom_bond_atom_site_label_1
_geom_bond_atom_site_label_2
_geom_bond_site_symmetry_1
_geom_bond_site_symmetry_2
Sr1 O1 1_555 1_555
F1 C3 1_555 1_555
F2 C4 1_555 1_555
F3 C7 1_555 1_555
F4 C8 1_555 1_555
O1 C1 1_555 1_555
O2 Sr1 1_555 1_555
H1 O2 1_555 1_555
H2 O2 1_555 1_555
O3 C1 1_555 1_555
O4 C6 1_555 1_555
O5 C6 1_555 1_555
O6 N1 1_555 1_555
O7 Sr1 1_555 1_555
O8 Sr1 1_555 1_555
N1 O7 1_555 1_555
C1 C2 1_555 1_555
C2 C3 1_555 1_555
C3 C4 1_555 1_555
C4 C5 1_555 1_555
C5 C6 1_555 1_555
C7 C5 1_555 1_555
C8 C2 1_555 1_555
N2 H3 1_555 1_555
C9 N2 1_555 1_555
H4 C9 1_555 1_555
C10 C9 1_555 1_555
H5 C10 1_555 1_555
C11 C10 1_555 1_555
H6 C11 1_555 1_555
C12 C11 1_555 1_555
H7 C12 1_555 1_555
C13 N2 1_555 1_555
H8 C13 1_555 1_555
Sr1_2 O3 1_555 1_555
Sr1A O1 1_555 1_555
Sr1B O4 1_555 1_555
O1A Sr1 1_555 1_555
O3_2 Sr1 1_555 1_555
O3A Sr1 1_555 1_555
O4B Sr1 1_555 1_555
O5B Sr1 1_555 1_555
O3 Sr1A 1_555 1_555
O5 Sr1B 1_555 1_555
O8 N1 1_555 1_555
C7 C8 1_555 1_555
C12 C13 1_555 1_555
Sr1A O3A 1_555 1_555

#END
