
#######################################################################
#
#                 Cambridge Crystallographic Data Centre
#                                CCDC 
#
#######################################################################
#
# If this CIF has been generated from an entry in the Cambridge 
# Structural Database, then it will include bibliographic, chemical, 
# crystal, experimental, refinement or atomic coordinate data resulting 
# from the CCDC's data processing and validation procedures.
#
#######################################################################

data_DOLPIF
_chemical_formula_moiety         '(C56 H44 Eu2 N4 O16 2+)n'
_symmetry_cell_setting           triclinic
_symmetry_space_group_name_H-M   'P -1'
_symmetry_Int_Tables_number      2
_space_group_name_Hall           '-P 1'
loop_
_symmetry_equiv_pos_site_id
_symmetry_equiv_pos_as_xyz
1 x,y,z
2 -x,-y,-z
_cell_length_a                   11.046(2)
_cell_length_b                   11.633(2)
_cell_length_c                   16.246(3)
_cell_angle_alpha                78.69(3)
_cell_angle_beta                 73.81(3)
_cell_angle_gamma                88.58(3)
_cell_volume                     1964.87
loop_
_atom_site_label
_atom_site_type_symbol
_atom_site_fract_x
_atom_site_fract_y
_atom_site_fract_z
Eu1 Eu -0.06566(3) 0.93808(2) 0.194169(15)
Eu2 Eu 0.54926(3) 0.55298(2) 0.309580(16)
O1 O 0.1422(4) 0.8771(4) 0.2179(3)
O2 O -0.0965(4) 0.7393(4) 0.2652(3)
O3 O 0.7269(4) 0.8933(4) 0.1965(3)
O4 O 0.5791(4) 0.7537(4) 0.2378(3)
O5 O 0.0240(5) 0.8636(4) 0.0667(3)
O6 O 0.0777(5) 0.9038(4) -0.0774(2)
O7 O 0.3420(4) 0.6142(4) 0.2862(3)
O8 O -0.0968(5) 0.9562(4) 0.3461(2)
O9 O -0.1783(5) 1.0944(4) 0.2659(3)
O10 O 0.3400(5) 0.6049(4) -0.2350(3)
O11 O 0.1117(4) 1.0655(4) 0.1855(3)
O12 O -0.2420(4) 0.5970(4) 0.3033(3)
O13 O -0.4355(5) 1.3968(4) 0.4239(3)
O14 O 0.3706(4) 0.4255(4) 0.3177(3)
O15 O 0.4158(5) 0.4624(4) -0.1553(3)
O16 O -0.4648(6) 1.3677(5) 0.5658(3)
C1 C -0.1313(6) 0.6326(5) 0.2814(4)
C2 C 0.1779(6) 0.9807(6) 0.2057(4)
C3 C 0.3940(6) 0.9211(5) 0.2198(4)
H1 H 0.3705 0.8431 0.2257
C4 C 0.3042(6) 0.5104(6) 0.2974(4)
C5 C 0.3063(6) 1.0080(5) 0.2136(4)
C6 C 0.2284(7) 0.7058(6) -0.0847(4)
H2 H 0.2070 0.7389 -0.1355
C7 C -0.1531(6) 1.0522(6) 0.3361(4)
C8 C 0.3587(6) 0.5586(6) -0.1637(4)
C9 C 0.1790(6) 0.7494(5) -0.0091(3)
C10 C 0.6155(6) 0.8585(6) 0.2181(4)
C11 C 0.0879(6) 0.8475(5) -0.0067(4)
C12 C -0.0306(6) 0.5417(6) 0.2788(4)
C13 C 0.5158(6) 0.9502(6) 0.2172(4)
C14 C 0.4622(8) 1.1554(7) 0.2071(6)
H3 H 0.4842 1.2333 0.2031
C15 C 0.3101(6) 0.6126(6) -0.0849(4)
C16 C 0.3463(7) 0.5680(7) -0.0108(4)
H4 H 0.4023 0.5070 -0.0114
C17 C 0.2142(7) 0.7014(7) 0.0656(4)
H5 H 0.1796 0.7290 0.1169
C18 C -0.3092(7) 1.2596(6) 0.4852(4)
C19 C 0.5507(7) 1.0674(7) 0.2108(6)
H6 H 0.6327 1.0868 0.2091
C20 C 0.0880(6) 0.5703(6) 0.2850(4)
H7 H 0.1077 0.6465 0.2877
C21 C 0.1764(6) 0.4837(6) 0.2869(4)
C22 C -0.2712(7) 1.2083(6) 0.4118(4)
H8 H -0.3032 1.2341 0.3644
C23 C -0.4093(6) 1.3501(5) 0.4915(4)
C24 C -0.1853(7) 1.1183(6) 0.4093(4)
C25 C -0.1336(9) 1.0847(8) 0.4786(5)
H9 H -0.0750 1.0257 0.4768
C26 C 0.3006(8) 0.6125(7) 0.0648(4)
H10 H 0.3274 0.5834 0.1142
C27 C 0.1473(8) 0.3728(7) 0.2795(6)
H11 H 0.2071 0.3152 0.2804
C28 C -0.1682(10) 1.1379(10) 0.5503(5)
H12 H -0.1330 1.1145 0.5964
C29 C -0.2544(9) 1.2254(8) 0.5539(5)
H13 H -0.2764 1.2618 0.6019
C30 C -0.0583(7) 0.4303(7) 0.2720(6)
H14 H -0.1377 0.4116 0.2682
C31 C 0.0331(9) 0.3451(8) 0.2709(8)
H15 H 0.0161 0.2700 0.2643
C32 C 0.3397(7) 1.1231(7) 0.2094(5)
H16 H 0.2797 1.1804 0.2082
Eu1_2 Eu 0.93434(3) 0.93808(2) 0.194169(15)
Eu1A Eu 0.06566(3) 1.06192(2) -0.194169(15)
Eu2_2 Eu -0.45074(3) 0.55298(2) 0.309580(16)
Eu2_3 Eu -0.45074(3) 1.55298(2) 0.309580(16)
Eu2A Eu -0.54926(3) 1.44702(2) 0.690420(16)
Eu2A_2 Eu 0.45074(3) 0.44702(2) -0.309580(16)
O3_2 O -0.2731(4) 0.8933(4) 0.1965(3)
O6A O -0.0777(5) 1.0962(4) 0.0774(2)
O10A O 0.6600(5) 0.3951(4) 0.2350(3)
O12_2 O 0.7580(4) 0.5970(4) 0.3033(3)
O13_2 O 0.5645(5) 0.3968(4) 0.4239(3)
O15A O 0.5842(5) 0.5376(4) 0.1553(3)
O16A O 0.4648(6) 0.6323(5) 0.4342(3)
N1 N 0.7244(8) 0.7897(8) 0.0114(5)
C33 C 0.5468(8) 0.9544(8) 0.0030(5)
C34 C 0.7579(9) 0.8966(9) 0.0026(5)
H17 H 0.8404 0.9161 -0.0006
C35 C 0.8166(10) 0.7046(10) 0.0182(9)
H18 H 0.7893 0.6322 0.0080
H19 H 0.8281 0.6922 0.0756
H20 H 0.8950 0.7315 -0.0245
C36 C 0.6703(9) 0.9841(9) -0.0023(6)
H21 H 0.6944 1.0622 -0.0091
C37 C 0.6077(11) 0.7587(10) 0.0240(8)
H22 H 0.5859 0.6791 0.0373
C38 C 0.5156(12) 0.8373(10) 0.0186(8)
H23 H 0.4334 0.8123 0.0254
N1A N 0.2756(8) 1.2103(8) -0.0114(5)
C33A C 0.4532(8) 1.0456(8) -0.0030(5)
C34A C 0.2421(9) 1.1034(9) -0.0026(5)
H17A H 0.1596 1.0839 0.0006
C35A C 0.1834(10) 1.2954(10) -0.0182(9)
H18A H 0.2107 1.3678 -0.0080
H19A H 0.1719 1.3078 -0.0756
H20A H 0.1050 1.2685 0.0245
C36A C 0.3297(9) 1.0159(9) 0.0023(6)
H21A H 0.3056 0.9378 0.0091
C37A C 0.3923(11) 1.2413(10) -0.0240(8)
H22A H 0.4141 1.3209 -0.0373
C38A C 0.4844(12) 1.1627(10) -0.0186(8)
H23A H 0.5666 1.1877 -0.0254
N2 N 0.2892(10) 0.2230(8) 0.5047(5)
C39 C 0.1972(16) 0.3174(13) 0.5115(7)
H24 H 0.1487 0.3110 0.5714
H25 H 0.1418 0.3105 0.4764
H26 H 0.2412 0.3923 0.4912
C40 C 0.3273(10) 0.1873(10) 0.5722(7)
H27 H 0.2964 0.2200 0.6216
C41 C 0.4530(11) 0.0507(8) 0.5001(5)
C42 C 0.4166(10) 0.0981(10) 0.5721(7)
H28 H 0.4487 0.0732 0.6196
C43 C 0.3267(19) 0.1797(13) 0.4380(8)
H29 H 0.2974 0.2099 0.3900
C44 C 0.4109(19) 0.0876(12) 0.4319(7)
H30 H 0.4355 0.0546 0.3823
N2A N 0.7108(10) -0.2230(8) 0.4953(5)
C39A C 0.8028(16) -0.3174(13) 0.4885(7)
H24A H 0.8513 -0.3110 0.4286
H25A H 0.8582 -0.3105 0.5236
H26A H 0.7588 -0.3923 0.5088
C40A C 0.6727(10) -0.1873(10) 0.4278(7)
H27A H 0.7036 -0.2200 0.3784
C41A C 0.5470(11) -0.0507(8) 0.4999(5)
C42A C 0.5834(10) -0.0981(10) 0.4279(7)
H28A H 0.5513 -0.0732 0.3804
C43A C 0.6733(19) -0.1797(13) 0.5620(8)
H29A H 0.7026 -0.2099 0.6100
C44A C 0.5891(19) -0.0876(12) 0.5681(7)
H30A H 0.5645 -0.0546 0.6177
loop_
_geom_bond_atom_site_label_1
_geom_bond_atom_site_label_2
_geom_bond_site_symmetry_1
_geom_bond_site_symmetry_2
Eu1 O1 1_555 1_555
Eu2 O4 1_555 1_555
O1 C2 1_555 1_555
O2 Eu1 1_555 1_555
O3 C10 1_555 1_555
O4 C10 1_555 1_555
O5 Eu1 1_555 1_555
O6 C11 1_555 1_555
O7 Eu2 1_555 1_555
O8 Eu1 1_555 1_555
O9 Eu1 1_555 1_555
O10 C8 1_555 1_555
O11 Eu1 1_555 1_555
O12 C1 1_555 1_555
O13 C23 1_555 1_555
O14 Eu2 1_555 1_555
O15 C8 1_555 1_555
O16 C23 1_555 1_555
C1 O2 1_555 1_555
C2 O11 1_555 1_555
C3 H1 1_555 1_555
C4 O7 1_555 1_555
C5 C2 1_555 1_555
C6 H2 1_555 1_555
C7 O8 1_555 1_555
C8 C15 1_555 1_555
C9 C6 1_555 1_555
C10 C13 1_555 1_555
C11 O5 1_555 1_555
C12 C1 1_555 1_555
C13 C3 1_555 1_555
C14 H3 1_555 1_555
C15 C6 1_555 1_555
C16 C15 1_555 1_555
H4 C16 1_555 1_555
C17 C9 1_555 1_555
H5 C17 1_555 1_555
C18 C22 1_555 1_555
C19 C13 1_555 1_555
H6 C19 1_555 1_555
C20 C12 1_555 1_555
H7 C20 1_555 1_555
C21 C4 1_555 1_555
C22 H8 1_555 1_555
C23 C18 1_555 1_555
C24 C7 1_555 1_555
C25 C24 1_555 1_555
H9 C25 1_555 1_555
C26 C16 1_555 1_555
H10 C26 1_555 1_555
C27 C21 1_555 1_555
H11 C27 1_555 1_555
C28 C25 1_555 1_555
H12 C28 1_555 1_555
C29 C18 1_555 1_555
H13 C29 1_555 1_555
C30 C12 1_555 1_555
H14 C30 1_555 1_555
C31 C27 1_555 1_555
H15 C31 1_555 1_555
C32 C5 1_555 1_555
H16 C32 1_555 1_555
N1 C34 1_555 1_555
C33 C36 1_555 1_555
C34 H17 1_555 1_555
C35 N1 1_555 1_555
H18 C35 1_555 1_555
H19 C35 1_555 1_555
H20 C35 1_555 1_555
C36 C34 1_555 1_555
H21 C36 1_555 1_555
C37 N1 1_555 1_555
H22 C37 1_555 1_555
C38 C33 1_555 1_555
H23 C38 1_555 1_555
N2 C39 1_555 1_555
C39 H24 1_555 1_555
H25 C39 1_555 1_555
H26 C39 1_555 1_555
C40 N2 1_555 1_555
H27 C40 1_555 1_555
C41 C42 1_555 1_555
C42 C40 1_555 1_555
H28 C42 1_555 1_555
C43 N2 1_555 1_555
H29 C43 1_555 1_555
C44 C41 1_555 1_555
H30 C44 1_555 1_555
Eu1_2 O3 1_555 1_555
Eu1A O6 1_555 1_555
Eu2_2 O12 1_555 1_555
Eu2_3 O13 1_555 1_555
Eu2A O16 1_555 1_555
Eu2A_2 O10 1_555 1_555
O3_2 Eu1 1_555 1_555
O6A Eu1 1_555 1_555
O10A Eu2 1_555 1_555
O12_2 Eu2 1_555 1_555
O13_2 Eu2 1_555 1_555
O15A Eu2 1_555 1_555
O16A Eu2 1_555 1_555
N1A C34A 1_555 1_555
C33A C33 1_555 1_555
C34A H17A 1_555 1_555
C35A N1A 1_555 1_555
H18A C35A 1_555 1_555
H19A C35A 1_555 1_555
H20A C35A 1_555 1_555
C36A C33A 1_555 1_555
H21A C36A 1_555 1_555
C37A N1A 1_555 1_555
H22A C37A 1_555 1_555
C38A C33A 1_555 1_555
H23A C38A 1_555 1_555
N2A C39A 1_555 1_555
C39A H24A 1_555 1_555
H25A C39A 1_555 1_555
H26A C39A 1_555 1_555
C40A N2A 1_555 1_555
H27A C40A 1_555 1_555
C41A C41 1_555 1_555
C42A C40A 1_555 1_555
H28A C42A 1_555 1_555
C43A N2A 1_555 1_555
H29A C43A 1_555 1_555
C44A C41A 1_555 1_555
H30A C44A 1_555 1_555
O9 C7 1_555 1_555
O14 C4 1_555 1_555
O15 Eu2A_2 1_555 1_555
C3 C5 1_555 1_555
C9 C11 1_555 1_555
C14 C19 1_555 1_555
C14 C32 1_555 1_555
C17 C26 1_555 1_555
C20 C21 1_555 1_555
C22 C24 1_555 1_555
C28 C29 1_555 1_555
C30 C31 1_555 1_555
C37 C38 1_555 1_555
C43 C44 1_555 1_555
C34A C36A 1_555 1_555
C37A C38A 1_555 1_555
C41A C42A 1_555 1_555
C43A C44A 1_555 1_555

#END
