
#######################################################################
#
#                 Cambridge Crystallographic Data Centre
#                                CCDC 
#
#######################################################################
#
# If this CIF has been generated from an entry in the Cambridge 
# Structural Database, then it will include bibliographic, chemical, 
# crystal, experimental, refinement or atomic coordinate data resulting 
# from the CCDC's data processing and validation procedures.
#
#######################################################################

data_MONQIR
_chemical_formula_moiety         'C18 H12 F6 Li7 N12 O7'
_symmetry_cell_setting           monoclinic
_symmetry_space_group_name_H-M   'C 2/c'
_symmetry_Int_Tables_number      15
_space_group_name_Hall           '-C 2yc'
loop_
_symmetry_equiv_pos_site_id
_symmetry_equiv_pos_as_xyz
1 x,y,z
2 -x,y,1/2-z
3 1/2+x,1/2+y,z
4 1/2-x,1/2+y,1/2-z
5 -x,-y,-z
6 x,-y,1/2+z
7 1/2-x,1/2-y,-z
8 1/2+x,1/2-y,1/2+z
_cell_length_a                   15.114(5)
_cell_length_b                   8.782(3)
_cell_length_c                   15.345(5)
_cell_angle_alpha                90
_cell_angle_beta                 95.378(15)
_cell_angle_gamma                90
_cell_volume                     2027.79
loop_
_atom_site_label
_atom_site_type_symbol
_atom_site_fract_x
_atom_site_fract_y
_atom_site_fract_z
Li1 Li 0.86658(12) 0.2563(3) 0.36166(12)
N1 N 0.72918(5) 0.58506(8) 0.16785(4)
N2 N 0.83455(5) 0.64274(10) -0.02543(5)
N3 N 1.00457(5) 0.33595(9) 0.14359(5)
N4 N 0.81513(5) 0.41815(8) 0.25384(4)
C1 C 0.80183(5) 0.54635(9) 0.12634(5)
C2 C 0.85430(5) 0.44599(9) 0.17881(5)
C3 C 0.93714(6) 0.38311(10) 0.15975(5)
C4 C 0.74178(5) 0.50451(9) 0.24224(5)
C5 C 0.81873(5) 0.60131(9) 0.04229(5)
C6 C 0.67603(6) 0.51474(10) 0.30908(6)
F1 F 0.59947(4) 0.57505(7) 0.27393(4)
F2 F 0.70463(5) 0.60294(8) 0.37747(4)
F3 F 0.65768(5) 0.37895(8) 0.34179(5)
C7 C 0.9210(2) -0.2410(3) 0.3869(3)
H1 H 0.9260 -0.3515 0.3797
H2 H 0.9319 -0.1902 0.3321
H3 H 0.8612 -0.2158 0.4020
O1 O 0.98471(15) -0.1912(2) 0.45484(15)
C8 C 0.98801(16) -0.0441(3) 0.47176(16)
O2 O 0.94155(14) 0.0513(3) 0.43254(18)
O3 O 1.0486(2) -0.0157(3) 0.53394(17)
C9 C 1.0593(2) 0.1384(4) 0.5607(2)
H4 H 1.1144 0.1491 0.5993
H5 H 1.0088 0.1693 0.5922
H6 H 1.0622 0.2034 0.5091
C7D C 1.0790(2) 0.2410(3) 0.6131(3)
H1D H 1.0740 0.3515 0.6203
H2D H 1.0681 0.1902 0.6679
H3D H 1.1388 0.2158 0.5980
O1D O 1.01529(15) 0.1912(2) 0.54516(15)
C8D C 1.01199(16) 0.0441(3) 0.52824(16)
O2D O 1.05845(14) -0.0513(3) 0.56746(18)
O3D O 0.9514(2) 0.0157(3) 0.46606(17)
C9D C 0.9407(2) -0.1384(4) 0.4393(2)
H4D H 0.8856 -0.1491 0.4007
H5D H 0.9912 -0.1693 0.4078
H6D H 0.9378 -0.2034 0.4909
Li1A Li 1.13342(12) 0.2563(3) 0.13834(12)
N1A N 1.27082(5) 0.58506(8) 0.33215(4)
N2A N 1.16545(5) 0.64274(10) 0.52543(5)
N3A N 0.99543(5) 0.33595(9) 0.35641(5)
N4A N 1.18487(5) 0.41815(8) 0.24616(4)
C1A C 1.19817(5) 0.54635(9) 0.37366(5)
C2A C 1.14570(5) 0.44599(9) 0.32119(5)
C3A C 1.06286(6) 0.38311(10) 0.34025(5)
C4A C 1.25822(5) 0.50451(9) 0.25776(5)
C5A C 1.18127(5) 0.60131(9) 0.45771(5)
C6A C 1.32397(6) 0.51474(10) 0.19092(6)
F1A F 1.40053(4) 0.57505(7) 0.22607(4)
F2A F 1.29537(5) 0.60294(8) 0.12253(4)
F3A F 1.34232(5) 0.37895(8) 0.15821(5)
Li1B Li 1.36658(12) 0.7563(3) 0.36166(12)
Li1C Li 0.63342(12) 0.7563(3) 0.13834(12)
Li1D Li 1.13342(12) -0.2563(3) 0.63834(12)
Li1D_2 Li 1.13342(12) 0.7437(3) 0.63834(12)
Li1E Li 0.86658(12) 0.7437(3) -0.13834(12)
N1B N 1.22918(5) 0.08506(8) 0.16785(4)
N1C N 0.77082(5) 0.08506(8) 0.33215(4)
N2D N 1.16545(5) 0.35726(10) 0.02543(5)
N2E N 0.83455(5) 0.35726(10) 0.47457(5)
O2A O 1.05845(14) 0.0513(3) 0.06746(18)
loop_
_geom_bond_atom_site_label_1
_geom_bond_atom_site_label_2
_geom_bond_site_symmetry_1
_geom_bond_site_symmetry_2
Li1 N4 1_555 1_555
N1 C1 1_555 1_555
N2 C5 1_555 1_555
N3 C3 1_555 1_555
N4 C2 1_555 1_555
C1 C2 1_555 1_555
C2 C3 1_555 1_555
C4 N1 1_555 1_555
C5 C1 1_555 1_555
C6 C4 1_555 1_555
F1 C6 1_555 1_555
F2 C6 1_555 1_555
F3 C6 1_555 1_555
C7 H1 1_555 1_555
H2 C7 1_555 1_555
H3 C7 1_555 1_555
O1 C7 1_555 1_555
C8 O1 1_555 1_555
O2 Li1 1_555 1_555
O3 C8 1_555 1_555
C9 O3 1_555 1_555
H4 C9 1_555 1_555
H5 C9 1_555 1_555
H6 C9 1_555 1_555
C7D C9 1_555 1_555
H1D C7D 1_555 1_555
H2D C7D 1_555 1_555
H3D C7D 1_555 1_555
O1D C9 1_555 1_555
C8D C8 1_555 1_555
O2D C8 1_555 1_555
O3D C8 1_555 1_555
C9D C7 1_555 1_555
H4D C7 1_555 1_555
H5D C7 1_555 1_555
H6D O1 1_555 1_555
Li1A N3 1_555 1_555
N1A C1A 1_555 1_555
N2A C5A 1_555 1_555
N3A Li1 1_555 1_555
N4A Li1A 1_555 1_555
C1A C2A 1_555 1_555
C2A N4A 1_555 1_555
C3A N3A 1_555 1_555
C4A N1A 1_555 1_555
C5A C1A 1_555 1_555
C6A C4A 1_555 1_555
F1A C6A 1_555 1_555
F2A C6A 1_555 1_555
F3A C6A 1_555 1_555
Li1B N1A 1_555 1_555
Li1C N1 1_555 1_555
Li1D O2D 1_555 1_555
Li1D_2 N2A 1_555 1_555
Li1E N2 1_555 1_555
N1B Li1A 1_555 1_555
N1C Li1 1_555 1_555
N2D Li1A 1_555 1_555
N2E Li1 1_555 1_555
O2A Li1A 1_555 1_555
N4 C4 1_555 1_555
O1 C9D 1_555 1_555
O1 H5D 1_555 1_555
C8 O2 1_555 1_555
C8 C9D 1_555 1_555
O2 C8D 1_555 1_555
O2 O3D 1_555 1_555
O2 C9D 1_555 1_555
O3 C8D 1_555 1_555
O3 O2D 1_555 1_555
C9 C8D 1_555 1_555
C9 O2D 1_555 1_555
H4 C7D 1_555 1_555
H5 C7D 1_555 1_555
H5 O1D 1_555 1_555
H6 O1D 1_555 1_555
C7D O1D 1_555 1_555
O1D C8D 1_555 1_555
C8D O2D 1_555 1_555
C8D O3D 1_555 1_555
O3D C9D 1_555 1_555
C9D H4D 1_555 1_555
C9D H5D 1_555 1_555
C9D H6D 1_555 1_555
N4A C4A 1_555 1_555
C2A C3A 1_555 1_555

#END
