
#######################################################################
#
#                 Cambridge Crystallographic Data Centre
#                                CCDC 
#
#######################################################################
#
# If this CIF has been generated from an entry in the Cambridge 
# Structural Database, then it will include bibliographic, chemical, 
# crystal, experimental, refinement or atomic coordinate data resulting 
# from the CCDC's data processing and validation procedures.
#
#######################################################################

data_UTOTUT01
_chemical_formula_moiety         '(C9 H12 Cu2 N6 O10)n'
_symmetry_cell_setting           orthorhombic
_symmetry_space_group_name_H-M   'P 21 21 21'
_symmetry_Int_Tables_number      19
_space_group_name_Hall           'P 2ac 2ab'
loop_
_symmetry_equiv_pos_site_id
_symmetry_equiv_pos_as_xyz
1 x,y,z
2 1/2-x,-y,1/2+z
3 1/2+x,1/2-y,-z
4 -x,1/2+y,1/2-z
_cell_length_a                   6.4021(3)
_cell_length_b                   14.9295(6)
_cell_length_c                   15.8901(6)
_cell_angle_alpha                90
_cell_angle_beta                 90
_cell_angle_gamma                90
_cell_volume                     1518.78
loop_
_atom_site_label
_atom_site_type_symbol
_atom_site_fract_x
_atom_site_fract_y
_atom_site_fract_z
Cu1 Cu 0.73662(6) 0.59122(2) 0.13476(2)
Cu2 Cu 0.48552(6) 0.75625(3) 0.00532(2)
O1 O 0.7303(4) 0.51612(13) 0.02999(12)
O2 O 0.7183(4) 0.43064(14) 0.14261(13)
O3 O 0.7593(4) 0.38054(13) -0.24842(12)
O4 O 0.7205(4) 0.23279(15) -0.26952(13)
O5 O 0.7285(5) 0.04329(13) -0.01274(14)
O6 O 0.7136(4) 0.10436(15) 0.11086(14)
O7 O 0.7392(4) 0.72320(13) 0.06122(12)
H1 H 0.7537 0.7522 0.1069
O8 O 0.4525(5) 0.87712(17) 0.09435(15)
H2 H 0.3971 0.9194 0.0663
H3 H 0.3559 0.8578 0.1263
N1 N 0.4120(4) 0.60458(18) 0.13083(17)
N2 N 0.3385(4) 0.66478(18) 0.07557(18)
N3 N 0.1373(4) 0.66360(17) 0.07478(18)
N4 N 0.0660(4) 0.60319(18) 0.12961(18)
N5 N 0.2391(5) 0.49900(16) 0.22060(16)
H4 H 0.3495 0.4826 0.2521
H5 H 0.1179 0.4976 0.2493
N6 N 0.7211(4) 0.10925(17) 0.03389(16)
C1 C 0.2385(6) 0.56703(19) 0.16400(18)
C2 C 0.7238(5) 0.35729(19) 0.00957(19)
C3 C 0.7276(5) 0.36510(19) -0.07768(18)
H6 H 0.7296 0.4228 -0.1028
C4 C 0.7286(5) 0.28884(19) -0.12883(19)
C5 C 0.7251(5) 0.20452(19) -0.09276(19)
H7 H 0.7251 0.1522 -0.1267
C6 C 0.7214(5) 0.19840(19) -0.00557(19)
C7 C 0.7209(5) 0.2730(2) 0.04663(19)
H8 H 0.7186 0.2666 0.1061
C8 C 0.7249(5) 0.43905(19) 0.06494(18)
C9 C 0.7361(5) 0.29964(19) -0.22407(18)
Cu1A Cu 0.76338(6) 0.40878(2) -0.36524(2)
Cu1_2 Cu -0.26338(6) 0.59122(2) 0.13476(2)
Cu2B Cu 0.98552(6) 0.74375(3) -0.00532(2)
Cu2B_2 Cu -0.01448(6) 0.74375(3) -0.00532(2)
O3A O 0.7407(4) 0.61946(13) 0.25158(12)
O7B O 0.2392(4) 0.77680(13) -0.06122(12)
H1B H 0.2537 0.7478 -0.1069
N3B N 0.6373(4) 0.83640(17) -0.07478(18)
N4_2 N 1.0660(4) 0.60319(18) 0.12961(18)
O9 O 0.0637(5) 0.4074(2) 0.3924(2)
H9 H 0.1953 0.4133 0.3881
H10 H 0.0262 0.4476 0.4272
O10 O 0.7690(5) 0.31106(19) 0.27596(17)
H11 H 0.8497 0.3554 0.2842
H12 H 0.7027 0.3236 0.2311
loop_
_geom_bond_atom_site_label_1
_geom_bond_atom_site_label_2
_geom_bond_site_symmetry_1
_geom_bond_site_symmetry_2
Cu1 O1 1_555 1_555
Cu2 O7 1_555 1_555
O1 C8 1_555 1_555
O2 Cu1 1_555 1_555
O3 C9 1_555 1_555
O4 C9 1_555 1_555
O5 N6 1_555 1_555
O6 N6 1_555 1_555
O7 Cu1 1_555 1_555
H1 O7 1_555 1_555
O8 Cu2 1_555 1_555
H2 O8 1_555 1_555
H3 O8 1_555 1_555
N1 Cu1 1_555 1_555
N2 Cu2 1_555 1_555
N3 N2 1_555 1_555
N4 N3 1_555 1_555
N5 H4 1_555 1_555
H5 N5 1_555 1_555
N6 C6 1_555 1_555
C1 N1 1_555 1_555
C2 C3 1_555 1_555
C3 H6 1_555 1_555
C4 C3 1_555 1_555
C5 C4 1_555 1_555
H7 C5 1_555 1_555
C6 C5 1_555 1_555
C7 C2 1_555 1_555
H8 C7 1_555 1_555
C8 O2 1_555 1_555
C9 C4 1_555 1_555
O9 H9 1_555 1_555
H10 O9 1_555 1_555
O10 H11 1_555 1_555
H12 O10 1_555 1_555
Cu1A O3 1_555 1_555
Cu1_2 N4 1_555 1_555
Cu2B O7 1_555 1_555
Cu2B_2 N3 1_555 1_555
O3A Cu1 1_555 1_555
O7B Cu2 1_555 1_555
H1B O7B 1_555 1_555
N3B Cu2 1_555 1_555
N4_2 Cu1 1_555 1_555
N1 N2 1_555 1_555
N4 C1 1_555 1_555
N5 C1 1_555 1_555
C2 C8 1_555 1_555
C6 C7 1_555 1_555
Cu2B_2 O7B 1_555 1_555

#END
