
#######################################################################
#
#                 Cambridge Crystallographic Data Centre
#                                CCDC 
#
#######################################################################
#
# If this CIF has been generated from an entry in the Cambridge 
# Structural Database, then it will include bibliographic, chemical, 
# crystal, experimental, refinement or atomic coordinate data resulting 
# from the CCDC's data processing and validation procedures.
#
#######################################################################

data_IBURAZ
_chemical_formula_moiety         '(C6 H19 N2 O12 P3 Zn2)n'
_symmetry_cell_setting           monoclinic
_symmetry_space_group_name_H-M   'P 21/n'
_symmetry_Int_Tables_number      14
_space_group_name_Hall           '-P 2yn'
loop_
_symmetry_equiv_pos_site_id
_symmetry_equiv_pos_as_xyz
1 x,y,z
2 1/2-x,1/2+y,1/2-z
3 -x,-y,-z
4 1/2+x,1/2-y,1/2+z
_cell_length_a                   8.6931(3)
_cell_length_b                   14.4394(5)
_cell_length_c                   12.6492(3)
_cell_angle_alpha                90
_cell_angle_beta                 96.418(2)
_cell_angle_gamma                90
_cell_volume                     1577.82
loop_
_atom_site_label
_atom_site_type_symbol
_atom_site_fract_x
_atom_site_fract_y
_atom_site_fract_z
Zn1 Zn 1.14035(5) -0.62695(3) -0.04559(3)
Zn2 Zn 0.61942(4) -0.51010(3) -0.35648(3)
P1 P 0.88563(10) -0.48734(7) -0.15335(7)
P2 P 1.10577(10) -0.84909(6) -0.04661(7)
P3 P 1.37419(11) -0.53874(7) -0.19341(7)
O1 O 0.8085(3) -0.48666(19) -0.26648(19)
O2 O 1.1906(3) -0.91570(18) 0.03184(18)
O3 O 1.4626(3) -0.56830(19) -0.2833(2)
O4 O 0.9438(3) -0.88699(17) -0.08508(19)
O5 O 0.9484(3) -0.58237(18) -0.12323(19)
O6 O 0.7775(3) -0.45019(18) -0.07568(19)
O7 O 1.0946(3) -0.75245(17) -0.0028(2)
O8 O 1.2927(4) -0.6193(2) -0.1497(2)
O9 O 1.0236(3) -0.41618(18) -0.14499(19)
H1 H 1.0863 -0.4318 -0.1855
O10 O 1.2008(3) -0.83919(18) -0.14468(19)
H2 H 1.2109 -0.8903 -0.1714
O11 O 1.2326(7) -0.4811(5) -0.2537(4)
O12 O 1.4623(6) -0.4655(4) -0.1178(4)
O6B O 1.2225(3) -0.54981(18) 0.07568(19)
O2C O 0.6906(3) -0.58430(18) -0.46816(18)
O3_2 O 0.4626(3) -0.56830(19) -0.2833(2)
O4A O 0.5562(3) -0.38699(17) -0.41492(19)
Zn2C Zn 1.11942(4) -0.98990(3) 0.14352(3)
Zn2_2 Zn 1.61942(4) -0.51010(3) -0.35648(3)
Zn2A Zn 0.88058(4) -1.01010(3) -0.14352(3)
Zn1B Zn 0.85965(5) -0.37305(3) 0.04559(3)
N1 N 0.8162(3) -0.2849(2) -0.4262(2)
H3 H 0.7253 -0.3164 -0.4281
N2 N 0.8809(4) -0.3176(3) -0.6432(2)
H4 H 0.8438 -0.3461 -0.7050
C1 C 0.7962(5) -0.2107(3) -0.5080(3)
H5 H 0.8905 -0.1745 -0.5057
H6 H 0.7130 -0.1696 -0.4929
C2 C 0.7588(5) -0.2525(3) -0.6176(3)
H7 H 0.6608 -0.2851 -0.6209
H8 H 0.7481 -0.2034 -0.6702
C3 C 0.9021(5) -0.3914(3) -0.5609(4)
H9 H 0.9861 -0.4318 -0.5759
H10 H 0.8086 -0.4284 -0.5636
C4 C 0.9377(4) -0.3513(3) -0.4511(3)
H11 H 0.9455 -0.4010 -0.3992
H12 H 1.0368 -0.3198 -0.4461
C5 C 0.8525(6) -0.2458(3) -0.3171(3)
H13 H 0.8628 -0.2954 -0.2662
H14 H 0.7704 -0.2053 -0.3017
H15 H 0.9478 -0.2117 -0.3133
C6 C 1.0291(5) -0.2728(3) -0.6631(3)
H16 H 1.1015 -0.3194 -0.6795
H17 H 1.0708 -0.2395 -0.6007
H18 H 1.0106 -0.2307 -0.7218
loop_
_geom_bond_atom_site_label_1
_geom_bond_atom_site_label_2
_geom_bond_site_symmetry_1
_geom_bond_site_symmetry_2
Zn1 O5 1_555 1_555
Zn2 O1 1_555 1_555
P1 O1 1_555 1_555
P2 O2 1_555 1_555
P3 O3 1_555 1_555
O2 Zn2C 1_555 1_555
O3 Zn2_2 1_555 1_555
O4 P2 1_555 1_555
O5 P1 1_555 1_555
O6 P1 1_555 1_555
O7 Zn1 1_555 1_555
O8 Zn1 1_555 1_555
O9 P1 1_555 1_555
H1 O9 1_555 1_555
O10 P2 1_555 1_555
H2 O10 1_555 1_555
O11 P3 1_555 1_555
O12 P3 1_555 1_555
N1 H3 1_555 1_555
N2 H4 1_555 1_555
C1 N1 1_555 1_555
H5 C1 1_555 1_555
H6 C1 1_555 1_555
C2 N2 1_555 1_555
H7 C2 1_555 1_555
H8 C2 1_555 1_555
C3 N2 1_555 1_555
H9 C3 1_555 1_555
H10 C3 1_555 1_555
C4 N1 1_555 1_555
H11 C4 1_555 1_555
H12 C4 1_555 1_555
C5 N1 1_555 1_555
H13 C5 1_555 1_555
H14 C5 1_555 1_555
H15 C5 1_555 1_555
C6 N2 1_555 1_555
H16 C6 1_555 1_555
H17 C6 1_555 1_555
H18 C6 1_555 1_555
O6B Zn1 1_555 1_555
O2C Zn2 1_555 1_555
O3_2 Zn2 1_555 1_555
O4A Zn2 1_555 1_555
Zn2A O4 1_555 1_555
Zn1B O6 1_555 1_555
P2 O7 1_555 1_555
P3 O8 1_555 1_555
C1 C2 1_555 1_555
C3 C4 1_555 1_555

#END
