
#######################################################################
#
#                 Cambridge Crystallographic Data Centre
#                                CCDC 
#
#######################################################################
#
# If this CIF has been generated from an entry in the Cambridge 
# Structural Database, then it will include bibliographic, chemical, 
# crystal, experimental, refinement or atomic coordinate data resulting 
# from the CCDC's data processing and validation procedures.
#
#######################################################################

data_ICAVEP
_chemical_formula_moiety         '(C36 H26 Eu2 O18 Zn2)n'
_symmetry_cell_setting           orthorhombic
_symmetry_space_group_name_H-M   'P n m a'
_symmetry_Int_Tables_number      62
_space_group_name_Hall           '-P 2ac 2n'
loop_
_symmetry_equiv_pos_site_id
_symmetry_equiv_pos_as_xyz
1 x,y,z
2 1/2-x,-y,1/2+z
3 1/2+x,1/2-y,1/2-z
4 -x,1/2+y,-z
5 -x,-y,-z
6 1/2+x,y,1/2-z
7 1/2-x,1/2+y,1/2+z
8 x,1/2-y,z
_cell_length_a                   7.2231(5)
_cell_length_b                   24.777(2)
_cell_length_c                   20.3178(19)
_cell_angle_alpha                90
_cell_angle_beta                 90
_cell_angle_gamma                90
_cell_volume                     3636.21
loop_
_atom_site_label
_atom_site_type_symbol
_atom_site_fract_x
_atom_site_fract_y
_atom_site_fract_z
Eu1 Eu 0.764996(12) 0.962217(3) 0.014262(4)
Zn1 Zn 1.21980(3) 0.900970(9) 0.075970(11)
O1 O 1.10860(17) 0.94915(5) 0.01075(6)
H1 H 1.1111 0.9331 -0.0262
O2 O 0.3427(2) 0.94242(6) 0.14422(6)
O3 O 1.0511(2) 0.85071(6) 0.11659(8)
O4 O 0.7863(2) 0.88822(6) 0.08602(7)
C1 C 0.7822(3) 0.79826(8) 0.12664(9)
C2 C 0.8734(4) 0.7500 0.11546(13)
H2 H 0.9951 0.7500 0.1005
C3 C 0.8786(3) 0.84996(8) 0.10881(10)
C4 C 0.6030(3) 0.79806(8) 0.15147(9)
H3 H 0.5422 0.8306 0.1586
C5 C 0.5136(4) 0.7500 0.16575(13)
C6 C 0.3240(4) 0.7500 0.19609(17)
O5 O 0.3482(2) 0.84628(6) 0.02540(8)
C7 C 0.4952(3) 0.85012(8) -0.00700(10)
C8 C 0.5825(3) 0.79851(8) -0.02796(9)
O6 O 0.5705(2) 0.89390(6) -0.02256(7)
C9 C 0.4383(3) 0.98263(8) 0.12872(9)
O7 O 0.48481(17) 0.99284(5) 0.06901(6)
C10 C 0.4952(2) 1.02012(8) 0.18216(9)
C11 C 0.4745(2) 1.00559(8) 0.24749(9)
H7 H 0.4259 0.9721 0.2587
C12 C 0.5573(3) 1.07163(8) 0.16601(9)
H8 H 0.5677 1.0813 0.1219
C13 C 0.4996(4) 0.7500 -0.01114(14)
H9 H 0.3878 0.7500 0.0116
C14 C 0.7492(3) 0.79797(9) -0.06107(12)
H10 H 0.8039 0.8305 -0.0731
C15 C 0.8362(5) 0.7500 -0.0767(2)
C16 C 0.5279(3) 1.04207(8) 0.29626(9)
C17 C 0.6039(3) 1.10871(8) 0.21420(10)
C18 C 0.5935(3) 1.09263(8) 0.27897(10)
H11 H 0.6313 1.1163 0.3119
C19 C 0.6617(4) 1.16504(9) 0.19615(12)
H12 H 0.5562 1.1885 0.1980
H13 H 0.7542 1.1774 0.2265
H14 H 0.7116 1.1652 0.1524
C20 C 0.5137(3) 1.02780(8) 0.36752(9)
O8 O 0.62766(18) 1.05036(6) 0.40586(6)
O9 O 0.39090(18) 0.99549(6) 0.38555(6)
C21 C 1.0227(10) 0.7500 -0.1096(4)
Eu1D Eu 1.235004(12) 1.037783(3) -0.014262(4)
Eu1D_2 Eu 0.235004(12) 1.037783(3) -0.014262(4)
Eu1A Eu 0.735004(12) 1.037783(3) 0.514262(4)
Eu1E Eu 0.264996(12) 0.962217(3) 0.485738(4)
Eu1G Eu 0.764996(12) 0.537783(3) 0.014262(4)
Eu1E_2 Eu 0.264996(12) 0.962217(3) -0.514262(4)
Eu1A_2 Eu 0.735004(12) 1.037783(3) -0.485738(4)
Zn1D Zn 0.78020(3) 1.099030(9) -0.075970(11)
Zn1_2 Zn 0.21980(3) 0.900970(9) 0.075970(11)
Zn1G Zn 1.21980(3) 0.599030(9) 0.075970(11)
Zn1G_2 Zn 0.21980(3) 0.599030(9) 0.075970(11)
O1D O 0.89140(17) 1.05085(5) -0.01075(6)
H1D H 0.8889 1.0669 0.0262
O2D O 0.6573(2) 1.05758(6) -0.14422(6)
O2_2 O 1.3427(2) 0.94242(6) 0.14422(6)
O3G O 1.0511(2) 0.64929(6) 0.11659(8)
O3D O 0.9489(2) 1.14929(6) -0.11659(8)
O4G O 0.7863(2) 0.61178(6) 0.08602(7)
O4D O 1.2137(2) 1.11178(6) -0.08602(7)
C1G C 0.7822(3) 0.70174(8) 0.12664(9)
C3G C 0.8786(3) 0.65004(8) 0.10881(10)
C4G C 0.6030(3) 0.70194(8) 0.15147(9)
H3G H 0.5422 0.6694 0.1586
O5G O 0.3482(2) 0.65372(6) 0.02540(8)
O5_2 O 1.3482(2) 0.84628(6) 0.02540(8)
O5D O 0.6518(2) 1.15372(6) -0.02540(8)
C7G C 0.4952(3) 0.64988(8) -0.00700(10)
C8G C 0.5825(3) 0.70149(8) -0.02796(9)
O6G O 0.5705(2) 0.60610(6) -0.02256(7)
O6D O 1.4295(2) 1.10610(6) 0.02256(7)
C9D C 0.5617(3) 1.01737(8) -0.12872(9)
O7D O 0.51519(17) 1.00716(5) -0.06901(6)
O7D_2 O 1.51519(17) 1.00716(5) -0.06901(6)
O7_2 O 1.48481(17) 0.99284(5) 0.06901(6)
C10D C 0.5048(2) 0.97988(8) -0.18216(9)
C11D C 0.5255(2) 0.99441(8) -0.24749(9)
H7D H 0.5741 1.0279 -0.2587
C12D C 0.4427(3) 0.92837(8) -0.16601(9)
H8D H 0.4323 0.9187 -0.1219
C14G C 0.7492(3) 0.70203(9) -0.06107(12)
H10G H 0.8039 0.6695 -0.0731
C16D C 0.4721(3) 0.95793(8) -0.29626(9)
C17D C 0.3961(3) 0.89129(8) -0.21420(10)
C18D C 0.4065(3) 0.90737(8) -0.27897(10)
H11D H 0.3687 0.8837 -0.3119
C19D C 0.3383(4) 0.83496(9) -0.19615(12)
H12D H 0.4438 0.8115 -0.1980
H13D H 0.2458 0.8226 -0.2265
H14D H 0.2884 0.8348 -0.1524
C20D C 0.4863(3) 0.97220(8) -0.36752(9)
O8D O 0.37234(18) 0.94964(6) -0.40586(6)
O8A O 0.87234(18) 0.94964(6) -0.09414(6)
O8E O 1.12766(18) 1.05036(6) 0.09414(6)
O9D O 0.60910(18) 1.00451(6) -0.38555(6)
O9E O 0.89090(18) 0.99549(6) 0.11445(6)
O9A O 1.10910(18) 1.00451(6) -0.11445(6)
loop_
_geom_bond_atom_site_label_1
_geom_bond_atom_site_label_2
_geom_bond_site_symmetry_1
_geom_bond_site_symmetry_2
Eu1 O1 1_555 1_555
Zn1 O1 1_555 1_555
O1 H1 1_555 1_555
O2 C9 1_555 1_555
O3 Zn1 1_555 1_555
O4 Eu1 1_555 1_555
C1 C2 1_555 1_555
C2 H2 1_555 1_555
C3 O3 1_555 1_555
C4 C1 1_555 1_555
H3 C4 1_555 1_555
C5 C4 1_555 1_555
C6 C5 1_555 1_555
O5 C7 1_555 1_555
C7 C8 1_555 1_555
C8 C13 1_555 1_555
O6 Eu1 1_555 1_555
C9 O7 1_555 1_555
O7 Eu1 1_555 1_555
C10 C9 1_555 1_555
C11 C10 1_555 1_555
H7 C11 1_555 1_555
C12 C10 1_555 1_555
H8 C12 1_555 1_555
C13 H9 1_555 1_555
C14 C8 1_555 1_555
H10 C14 1_555 1_555
C15 C14 1_555 1_555
C16 C11 1_555 1_555
C17 C12 1_555 1_555
C18 C16 1_555 1_555
H11 C18 1_555 1_555
C19 C17 1_555 1_555
H12 C19 1_555 1_555
H13 C19 1_555 1_555
H14 C19 1_555 1_555
C20 C16 1_555 1_555
O8 C20 1_555 1_555
O9 C20 1_555 1_555
C21 C15 1_555 1_555
Eu1D O1 1_555 1_555
Eu1D_2 O7 1_555 1_555
Eu1A O8 1_555 1_555
Eu1E O9 1_555 1_555
Eu1G O4G 1_555 1_555
Eu1E_2 O8D 1_555 1_555
Eu1A_2 O9D 1_555 1_555
Zn1D O1D 1_555 1_555
Zn1_2 O2 1_555 1_555
Zn1G O3G 1_555 1_555
Zn1G_2 O5G 1_555 1_555
O1D Eu1 1_555 1_555
H1D O1D 1_555 1_555
O2D Zn1D 1_555 1_555
O2_2 Zn1 1_555 1_555
O3G C3G 1_555 1_555
O3D Zn1D 1_555 1_555
O4G C3G 1_555 1_555
O4D Eu1D 1_555 1_555
C1G C2 1_555 1_555
C3G C1G 1_555 1_555
C4G C5 1_555 1_555
H3G C4G 1_555 1_555
O5G C7G 1_555 1_555
O5_2 Zn1 1_555 1_555
O5D Zn1D 1_555 1_555
C7G C8G 1_555 1_555
C8G C13 1_555 1_555
O6G Eu1G 1_555 1_555
O6D Eu1D 1_555 1_555
C9D O2D 1_555 1_555
O7D Eu1 1_555 1_555
O7D_2 Eu1D 1_555 1_555
O7_2 Eu1D 1_555 1_555
C10D C9D 1_555 1_555
C11D C10D 1_555 1_555
H7D C11D 1_555 1_555
C12D C10D 1_555 1_555
H8D C12D 1_555 1_555
C14G C15 1_555 1_555
H10G C14G 1_555 1_555
C16D C11D 1_555 1_555
C17D C12D 1_555 1_555
C18D C16D 1_555 1_555
H11D C18D 1_555 1_555
C19D C17D 1_555 1_555
H12D C19D 1_555 1_555
H13D C19D 1_555 1_555
H14D C19D 1_555 1_555
C20D C16D 1_555 1_555
O8D C20D 1_555 1_555
O8A Eu1 1_555 1_555
O8E Eu1D 1_555 1_555
O9D C20D 1_555 1_555
O9E Eu1 1_555 1_555
O9A Eu1D 1_555 1_555
O4 C3 1_555 1_555
C1 C3 1_555 1_555
O5 Zn1_2 1_555 1_555
C7 O6 1_555 1_555
C17 C18 1_555 1_555
Eu1D O1D 1_555 1_555
Eu1D_2 O7D 1_555 1_555
C1G C4G 1_555 1_555
C7G O6G 1_555 1_555
C8G C14G 1_555 1_555
C9D O7D 1_555 1_555
C17D C18D 1_555 1_555

#END
