
#######################################################################
#
#                 Cambridge Crystallographic Data Centre
#                                CCDC 
#
#######################################################################
#
# If this CIF has been generated from an entry in the Cambridge 
# Structural Database, then it will include bibliographic, chemical, 
# crystal, experimental, refinement or atomic coordinate data resulting 
# from the CCDC's data processing and validation procedures.
#
#######################################################################

data_ESAROH
_chemical_formula_moiety         '(C35 H39 N7 O11 Zn2)n'
_symmetry_cell_setting           orthorhombic
_symmetry_space_group_name_H-M   'P 21 21 21'
_symmetry_Int_Tables_number      19
_space_group_name_Hall           'P 2ac 2ab'
loop_
_symmetry_equiv_pos_site_id
_symmetry_equiv_pos_as_xyz
1 x,y,z
2 1/2-x,-y,1/2+z
3 1/2+x,1/2-y,-z
4 -x,1/2+y,1/2-z
_cell_length_a                   10.373(5)
_cell_length_b                   15.088(5)
_cell_length_c                   24.126(5)
_cell_angle_alpha                90
_cell_angle_beta                 90
_cell_angle_gamma                90
_cell_volume                     3775.91
loop_
_atom_site_label
_atom_site_type_symbol
_atom_site_fract_x
_atom_site_fract_y
_atom_site_fract_z
_atom_site_U_iso_or_equiv
_atom_site_thermal_displace_type
Zn1 Zn -0.40702(5) 0.50024(5) -0.04028(2) 0.0101 Uani
Zn2 Zn -0.18487(5) 0.50009(5) 0.04574(2) 0.0105 Uani
O1 O -0.6407(6) 0.0954(4) 0.0112(2) 0.0364 Uani
C1 C -0.4523(7) 0.2966(4) 0.1509(3) 0.0170 Uani
H1 H -0.3954 0.3313 0.1713 0.0200 Uiso
C2 C -0.4633(7) 0.3051(4) 0.0935(3) 0.0147 Uani
O2 O -0.7923(6) 0.0923(4) 0.0773(2) 0.0364 Uani
C3 C -0.5272(7) 0.1908(4) 0.4088(3) 0.0143 Uani
C4 C -0.6105(7) 0.1849(4) 0.0893(3) 0.0153 Uani
C5 C -0.5307(7) 0.2334(5) 0.1761(3) 0.0200 Uani
C6 C -0.3729(7) 0.3134(4) 0.4079(3) 0.0143 Uani
O3 O -0.2864(6) 0.4042(4) 0.0869(2) 0.0364 Uani
C7 C -0.4541(7) 0.2524(4) 0.3219(3) 0.0170 Uani
O4 O -0.4385(6) 0.4069(4) 0.0206(2) 0.0364 Uani
C8 C -0.5385(6) 0.2481(4) 0.0624(3) 0.0137 Uani
H2 H -0.5402 0.2524 0.0240 0.0160 Uiso
N1 N 0.1717(6) 0.5272(5) 0.1242(3) 0.0373 Uani
C9 C -0.6861(7) 0.1182(4) 0.0558(3) 0.0137 Uani
C10 C -0.6115(7) 0.1788(5) 0.1461(3) 0.0193 Uani
H3 H -0.6655 0.1387 0.1639 0.0230 Uiso
C11 C -0.4491(6) 0.2520(4) 0.4372(3) 0.0147 Uani
H4 H -0.4478 0.2519 0.4757 0.0180 Uiso
N2 N -0.5375(7) 0.2252(5) 0.2382(2) 0.0282 Uani
N3 N -0.4511(7) 0.2580(4) 0.2651(3) 0.0282 Uani
C12 C -0.3722(8) 0.3113(4) 0.3501(3) 0.0183 Uani
H5 H -0.3178 0.3487 0.3303 0.0220 Uiso
C13 C -0.3892(7) 0.3784(4) 0.0650(3) 0.0153 Uani
C14 C -0.5331(7) 0.1926(4) 0.3513(3) 0.0163 Uani
H6 H -0.5885 0.1547 0.3324 0.0200 Uiso
C15 C 0.1108(11) 0.6053(7) 0.1390(4) 0.0583 Uani
H7 H 0.1466 0.6513 0.1596 0.0700 Uiso
N4 N -0.0249(6) 0.5222(4) 0.0909(2) 0.0277 Uani
C16 C 0.3048(7) 0.5077(11) 0.1373(3) 0.0620 Uani
H8 H 0.3525 0.5630 0.1364 0.0740 Uiso
H9 H 0.3390 0.4705 0.1080 0.0740 Uiso
C17 C 0.0839(7) 0.4783(5) 0.0955(3) 0.0297 Uani
C18 C 0.3170(7) 0.5085(8) 0.2445(3) 0.0463 Uani
H10 H 0.2267 0.5221 0.2504 0.0560 Uiso
H11 H 0.3641 0.5640 0.2441 0.0560 Uiso
C19 C 0.3318(12) 0.4644(11) 0.1900(4) 0.0803 Uani
H12 H 0.4204 0.4440 0.1881 0.0960 Uiso
H13 H 0.2782 0.4117 0.1912 0.0960 Uiso
O5 O -0.3203(6) 0.2625(4) 0.2447(2) 0.0364 Uani
C20 C 0.1837(10) 0.3924(10) 0.0161(4) 0.0697 Uani
H14 H 0.1386 0.4309 -0.0089 0.1050 Uiso
H15 H 0.1890 0.3341 0.0003 0.1050 Uiso
H16 H 0.2690 0.4149 0.0223 0.1050 Uiso
C21 C -0.2970(7) 0.3810(4) 0.4396(3) 0.0177 Uani
O6 O -0.1973(6) 0.4095(4) 0.4169(2) 0.0364 Uani
O7 O -0.3456(6) 0.4059(4) 0.4852(2) 0.0364 Uani
C22 C 0.3648(10) 0.4528(9) 0.2920(4) 0.0587 Uani
H17 H 0.3093 0.4012 0.2941 0.0700 Uiso
H18 H 0.4499 0.4316 0.2819 0.0700 Uiso
C23 C 0.1110(9) 0.3880(9) 0.0714(4) 0.0560 Uani
H19 H 0.0299 0.3572 0.0658 0.0680 Uiso
H20 H 0.1615 0.3540 0.0977 0.0680 Uiso
C24 C -0.0067(9) 0.6027(6) 0.1189(4) 0.0483 Uani
H21 H -0.0681 0.6472 0.1226 0.0580 Uiso
C25 C 0.3747(7) 0.4902(8) 0.3493(3) 0.0400 Uani
H22 H 0.4092 0.4448 0.3736 0.0480 Uiso
H23 H 0.4359 0.5388 0.3488 0.0480 Uiso
N5 N 0.2533(5) 0.5225(4) 0.3729(2) 0.0283 Uani
C26 C 0.2096(7) 0.6086(5) 0.3714(3) 0.0310 Uani
H24 H 0.2510 0.6567 0.3551 0.0370 Uiso
C27 C 0.1641(6) 0.4738(5) 0.4020(3) 0.0250 Uani
C28 C 0.1828(9) 0.3782(5) 0.4172(4) 0.0433 Uani
H25 H 0.2265 0.3482 0.3870 0.0520 Uiso
H26 H 0.0990 0.3506 0.4219 0.0520 Uiso
N6 N 0.0684(5) 0.5251(3) 0.4172(2) 0.0170 Uani
C29 C 0.0969(7) 0.6098(4) 0.3976(3) 0.0260 Uani
H27 H 0.0451 0.6596 0.4023 0.0310 Uiso
C30 C 0.2605(10) 0.3659(8) 0.4700(5) 0.0670 Uani
H28 H 0.3351 0.4035 0.4690 0.1000 Uiso
H29 H 0.2872 0.3052 0.4730 0.1000 Uiso
H30 H 0.2082 0.3812 0.5014 0.1000 Uiso
O8 O -0.6319 0.1678 0.2513 0.0364 Uani
C31 C -0.5978(8) 0.1211(4) 0.4407(3) 0.0160 Uani
O9 O -0.5502(6) 0.0983(4) 0.4851(2) 0.0364 Uani
O10 O -0.6972(6) 0.0903(4) 0.4173(2) 0.0364 Uani
Zn1A Zn -0.09298(5) 0.49976(5) 0.45972(2) 0.0101 Uani
Zn1B Zn -0.90702(5) -0.00024(5) 0.04028(2) 0.0101 Uani
Zn1C Zn -0.59298(5) 0.00024(5) 0.54028(2) 0.0101 Uani
Zn2A Zn -0.31513(5) 0.49991(5) 0.54574(2) 0.0105 Uani
Zn2B Zn -0.68487(5) -0.00009(5) -0.04574(2) 0.0105 Uani
Zn2C Zn -0.81513(5) 0.00009(5) 0.45426(2) 0.0105 Uani
O1B O -0.1407(6) 0.4046(4) -0.0112(2) 0.0364 Uani
O2B O -0.2923(6) 0.4077(4) -0.0773(2) 0.0364 Uani
O6A O -0.3027(6) 0.5905(4) -0.0831(2) 0.0364 Uani
O7A O -0.1544(6) 0.5941(4) -0.0148(2) 0.0364 Uani
N6A N -0.5684(5) 0.4749(3) -0.0828(2) 0.0170 Uani
O9C O -0.4498(6) 0.5983(4) 0.0149(2) 0.0364 Uani
O10C O -0.3028(6) 0.5903(4) 0.0827(2) 0.0364 Uani
O11 O 0.0539(6) 0.3731(4) 0.2707(2) 0.0364 Uani
C32 C -0.2238(10) 0.4793(7) 0.2167(4) 0.0530 Uani
H31 H -0.2371 0.5422 0.2157 0.0800 Uiso
H32 H -0.2958 0.4513 0.2346 0.0800 Uiso
H33 H -0.2158 0.4571 0.1796 0.0800 Uiso
C33 C -0.0745(12) 0.5263(8) 0.2874(4) 0.0687 Uani
H34 H -0.0775 0.5842 0.2709 0.1030 Uiso
H35 H 0.0113 0.5146 0.3005 0.1030 Uiso
H36 H -0.1337 0.5239 0.3180 0.1030 Uiso
N7 N -0.1102(8) 0.4604(5) 0.2465(3) 0.0440 Uani
C34 C -0.0385(10) 0.3885(7) 0.2410(4) 0.0540 Uani
C35 C -0.089(2) 0.3167(9) 0.2012(8) 0.1227 Uani
H37 H -0.0750 0.3352 0.1636 0.1830 Uiso
H38 H -0.1795 0.3079 0.2073 0.1830 Uiso
H39 H -0.0438 0.2622 0.2078 0.1830 Uiso
loop_
_atom_site_aniso_label
_atom_site_aniso_U_11
_atom_site_aniso_U_22
_atom_site_aniso_U_33
_atom_site_aniso_U_23
_atom_site_aniso_U_13
_atom_site_aniso_U_12
Zn1 0.0104(3) 0.0098(2) 0.0101(2) 0.0000(3) -0.00045(17) 0.0004(3)
Zn2 0.0103(3) 0.0097(2) 0.0116(3) 0.0000(3) -0.00036(17) 0.0000(3)
O1 0.0365(8) 0.0402(8) 0.0325(8) 0.0014(6) -0.0023(6) -0.0171(7)
C1 0.024(3) 0.016(3) 0.011(3) -0.006(2) -0.002(2) -0.008(3)
C2 0.018(3) 0.006(2) 0.020(3) 0.001(2) 0.001(3) -0.002(2)
O2 0.0365(8) 0.0402(8) 0.0325(8) 0.0014(6) -0.0023(6) -0.0171(7)
C3 0.017(3) 0.020(3) 0.006(3) -0.001(2) 0.002(2) -0.004(2)
C4 0.015(3) 0.018(3) 0.013(3) -0.002(2) -0.001(2) -0.004(2)
C5 0.022(3) 0.027(3) 0.011(3) -0.001(2) 0.002(2) -0.003(3)
C6 0.016(3) 0.012(3) 0.015(3) 0.005(2) -0.002(3) -0.004(2)
O3 0.0365(8) 0.0402(8) 0.0325(8) 0.0014(6) -0.0023(6) -0.0171(7)
C7 0.026(4) 0.015(3) 0.010(3) 0.002(2) 0.002(2) -0.011(3)
O4 0.0365(8) 0.0402(8) 0.0325(8) 0.0014(6) -0.0023(6) -0.0171(7)
C8 0.012(3) 0.013(3) 0.016(3) 0.004(2) 0.000(2) 0.000(2)
N1 0.023(3) 0.057(4) 0.032(3) -0.002(3) -0.009(2) -0.013(3)
C9 0.018(3) 0.010(2) 0.013(3) 0.001(2) -0.001(2) -0.007(2)
C10 0.015(3) 0.028(3) 0.015(3) 0.002(2) 0.001(2) -0.012(3)
C11 0.026(4) 0.016(3) 0.002(2) -0.0015(19) 0.000(2) -0.005(3)
N2 0.039(2) 0.037(2) 0.0085(14) 0.0074(14) -0.0029(13) -0.0201(19)
N3 0.039(2) 0.037(2) 0.0085(14) 0.0074(14) -0.0029(13) -0.0201(19)
C12 0.029(3) 0.015(3) 0.011(3) 0.000(2) 0.004(3) -0.007(3)
C13 0.017(3) 0.015(3) 0.014(3) 0.000(2) 0.005(2) -0.009(2)
C14 0.019(3) 0.017(3) 0.013(3) 0.004(2) -0.002(2) -0.004(2)
C15 0.061(6) 0.059(6) 0.055(6) -0.008(5) -0.027(5) -0.019(5)
N4 0.024(3) 0.030(3) 0.029(3) 0.001(2) -0.002(2) -0.005(2)
C16 0.018(3) 0.134(10) 0.034(4) 0.029(7) 0.000(3) -0.005(6)
C17 0.019(3) 0.049(5) 0.021(3) -0.002(3) -0.005(2) 0.000(3)
C18 0.028(3) 0.075(6) 0.036(4) -0.005(5) 0.010(3) 0.002(5)
C19 0.055(6) 0.153(13) 0.033(5) -0.019(6) -0.009(4) 0.057(7)
O5 0.0365(8) 0.0402(8) 0.0325(8) 0.0014(6) -0.0023(6) -0.0171(7)
C20 0.042(5) 0.128(12) 0.039(5) -0.021(6) 0.003(4) 0.010(6)
C21 0.020(3) 0.013(3) 0.020(3) -0.001(2) -0.005(3) -0.003(2)
O6 0.0365(8) 0.0402(8) 0.0325(8) 0.0014(6) -0.0023(6) -0.0171(7)
O7 0.0365(8) 0.0402(8) 0.0325(8) 0.0014(6) -0.0023(6) -0.0171(7)
C22 0.044(5) 0.099(8) 0.033(4) -0.017(5) 0.003(4) 0.031(5)
C23 0.034(5) 0.102(9) 0.032(4) -0.008(5) -0.010(4) 0.029(5)
C24 0.047(5) 0.031(4) 0.067(6) 0.000(4) -0.026(5) -0.004(4)
C25 0.020(3) 0.072(6) 0.028(3) 0.003(4) 0.008(2) 0.000(4)
N5 0.019(3) 0.041(4) 0.025(3) 0.004(2) 0.009(2) 0.001(2)
C26 0.030(4) 0.034(4) 0.029(3) 0.007(3) 0.009(3) -0.009(3)
C27 0.018(3) 0.032(3) 0.025(3) 0.003(2) 0.006(2) 0.003(2)
C28 0.042(5) 0.031(4) 0.057(5) 0.014(4) 0.028(4) 0.019(3)
N6 0.013(2) 0.021(2) 0.017(2) 0.0006(17) 0.0046(18) -0.0020(17)
C29 0.032(4) 0.020(3) 0.026(3) 0.002(2) 0.007(3) -0.003(3)
C30 0.045(5) 0.091(8) 0.065(7) 0.053(6) 0.025(5) 0.039(6)
O8 0.0365(8) 0.0402(8) 0.0325(8) 0.0014(6) -0.0023(6) -0.0171(7)
C31 0.029(3) 0.007(2) 0.012(3) 0.001(2) 0.004(3) -0.001(2)
O9 0.0365(8) 0.0402(8) 0.0325(8) 0.0014(6) -0.0023(6) -0.0171(7)
O10 0.0365(8) 0.0402(8) 0.0325(8) 0.0014(6) -0.0023(6) -0.0171(7)
Zn1A 0.0104 0.0098 0.0101 0 0.00045 0.0004
Zn1B 0.0104 0.0098 0.0101 0 0.00045 -0.0004
Zn1C 0.0104 0.0098 0.0101 0 -0.00045 -0.0004
Zn2A 0.0103 0.0097 0.0116 0 0.00036 0
Zn2B 0.0103 0.0097 0.0116 0 0.00036 0
Zn2C 0.0103 0.0097 0.0116 0 -0.00036 0
O1B 0.0365 0.0402 0.0325 0.0014 0.0023 0.0171
O2B 0.0365 0.0402 0.0325 0.0014 0.0023 0.0171
O6A 0.0365 0.0402 0.0325 -0.0014 0.0023 -0.0171
O7A 0.0365 0.0402 0.0325 -0.0014 0.0023 -0.0171
N6A 0.013 0.021 0.017 -0.0006 -0.0046 -0.002
O9C 0.0365 0.0402 0.0325 -0.0014 -0.0023 0.0171
O10C 0.0365 0.0402 0.0325 -0.0014 -0.0023 0.0171
O11 0.0365(8) 0.0402(8) 0.0325(8) 0.0014(6) -0.0023(6) -0.0171(7)
C32 0.060(6) 0.059(7) 0.040(4) 0.009(4) -0.022(4) -0.020(5)
C33 0.069(7) 0.085(8) 0.052(6) -0.042(6) -0.022(5) 0.004(6)
N7 0.048(4) 0.051(4) 0.033(4) -0.006(3) -0.006(3) -0.008(4)
C34 0.047(5) 0.062(6) 0.053(6) -0.005(5) -0.004(5) 0.002(5)
C35 0.19(2) 0.061(8) 0.117(13) -0.036(8) -0.070(14) 0.059(11)
loop_
_geom_bond_atom_site_label_1
_geom_bond_atom_site_label_2
_geom_bond_site_symmetry_1
_geom_bond_site_symmetry_2
Zn1 O4 1_555 1_555
Zn2 O3 1_555 1_555
O1 C9 1_555 1_555
C1 H1 1_555 1_555
C2 C1 1_555 1_555
O2 C9 1_555 1_555
C3 C11 1_555 1_555
C4 C8 1_555 1_555
C5 C1 1_555 1_555
C6 C11 1_555 1_555
O3 C13 1_555 1_555
C7 N3 1_555 1_555
O4 C13 1_555 1_555
C8 C2 1_555 1_555
H2 C8 1_555 1_555
N1 C15 1_555 1_555
C9 C4 1_555 1_555
C10 C4 1_555 1_555
H3 C10 1_555 1_555
C11 H4 1_555 1_555
N2 C5 1_555 1_555
N3 N2 1_555 1_555
C12 C6 1_555 1_555
H5 C12 1_555 1_555
C13 C2 1_555 1_555
C14 C3 1_555 1_555
H6 C14 1_555 1_555
C15 H7 1_555 1_555
N4 Zn2 1_555 1_555
C16 N1 1_555 1_555
H8 C16 1_555 1_555
H9 C16 1_555 1_555
C17 N1 1_555 1_555
C18 H10 1_555 1_555
H11 C18 1_555 1_555
C19 C16 1_555 1_555
H12 C19 1_555 1_555
H13 C19 1_555 1_555
O5 N3 1_555 1_555
C20 H14 1_555 1_555
H15 C20 1_555 1_555
H16 C20 1_555 1_555
C21 C6 1_555 1_555
O6 C21 1_555 1_555
O7 C21 1_555 1_555
C22 C18 1_555 1_555
H17 C22 1_555 1_555
H18 C22 1_555 1_555
C23 C17 1_555 1_555
H19 C23 1_555 1_555
H20 C23 1_555 1_555
C24 C15 1_555 1_555
H21 C24 1_555 1_555
C25 C22 1_555 1_555
H22 C25 1_555 1_555
H23 C25 1_555 1_555
N5 C25 1_555 1_555
C26 N5 1_555 1_555
H24 C26 1_555 1_555
C27 N5 1_555 1_555
C28 C27 1_555 1_555
H25 C28 1_555 1_555
H26 C28 1_555 1_555
N6 C27 1_555 1_555
C29 C26 1_555 1_555
H27 C29 1_555 1_555
C30 C28 1_555 1_555
H28 C30 1_555 1_555
H29 C30 1_555 1_555
H30 C30 1_555 1_555
O8 N2 1_555 1_555
C31 C3 1_555 1_555
O9 C31 1_555 1_555
O10 C31 1_555 1_555
O11 C34 1_555 1_555
C32 H31 1_555 1_555
H32 C32 1_555 1_555
H33 C32 1_555 1_555
C33 H34 1_555 1_555
H35 C33 1_555 1_555
H36 C33 1_555 1_555
N7 C32 1_555 1_555
C34 N7 1_555 1_555
C35 C34 1_555 1_555
H37 C35 1_555 1_555
H38 C35 1_555 1_555
H39 C35 1_555 1_555
Zn1A O6 1_555 1_555
Zn1B O2 1_555 1_555
Zn1C O9 1_555 1_555
Zn2A O7 1_555 1_555
Zn2B O1 1_555 1_555
Zn2C O10 1_555 1_555
O1B Zn2 1_555 1_555
O2B Zn1 1_555 1_555
O6A Zn1 1_555 1_555
O7A Zn2 1_555 1_555
N6A Zn1 1_555 1_555
O9C Zn1 1_555 1_555
O10C Zn2 1_555 1_555
C5 C10 1_555 1_555
C7 C12 1_555 1_555
C7 C14 1_555 1_555
N4 C17 1_555 1_555
N4 C24 1_555 1_555
C18 C19 1_555 1_555
C20 C23 1_555 1_555
N6 C29 1_555 1_555
N6 Zn1A 1_555 1_555
C33 N7 1_555 1_555

#END
