
#######################################################################
#
#                 Cambridge Crystallographic Data Centre
#                                CCDC 
#
#######################################################################
#
# If this CIF has been generated from an entry in the Cambridge 
# Structural Database, then it will include bibliographic, chemical, 
# crystal, experimental, refinement or atomic coordinate data resulting 
# from the CCDC's data processing and validation procedures.
#
#######################################################################

data_ESARUN
_chemical_formula_moiety         '(C84 H102 N20 O24 Zn4)n'
_symmetry_cell_setting           triclinic
_symmetry_space_group_name_H-M   'P -1'
_symmetry_Int_Tables_number      2
_space_group_name_Hall           '-P 1'
loop_
_symmetry_equiv_pos_site_id
_symmetry_equiv_pos_as_xyz
1 x,y,z
2 -x,-y,-z
_cell_length_a                   10.4819(3)
_cell_length_b                   12.4239(3)
_cell_length_c                   19.8043(5)
_cell_angle_alpha                75.2285(13)
_cell_angle_beta                 81.2767(13)
_cell_angle_gamma                82.9364(12)
_cell_volume                     2455.35
loop_
_atom_site_label
_atom_site_type_symbol
_atom_site_fract_x
_atom_site_fract_y
_atom_site_fract_z
Zn1 Zn 0.31217(4) 0.86935(3) 0.15284(2)
Zn2 Zn 0.35968(5) 0.88580(4) -0.33067(2)
O1 O 0.2690(3) 0.7705(2) 0.09905(14)
O2 O 0.1765(3) 0.8566(2) 0.23329(14)
O3 O 0.3822(3) 0.8724(2) 0.00537(14)
O4 O 0.2707(3) 0.6870(3) 0.27704(16)
C1 C 0.1814(4) 0.7605(3) 0.27753(19)
C2 C 0.5903(4) 0.9099(3) 0.1401(2)
H1 H 0.5842 0.9642 0.0983
N1 N 0.2680(3) 1.0336(2) 0.11163(16)
N2 N 0.3168(4) 0.8214(3) -0.40561(18)
N3 N 0.4944(3) 0.8519(3) 0.17547(17)
N4 N 0.2803(3) 1.2059(3) 0.04870(18)
C3 C 0.3074(3) 0.7994(3) 0.03311(19)
N5 N 0.6978(3) 0.8809(3) 0.17178(18)
C4 C 0.2526(3) 0.7397(3) -0.01185(19)
O5 O 0.3482(4) 0.8112(3) -0.23095(16)
N6 N -0.0521(3) 0.5241(3) 0.48960(18)
C5 C 0.0647(4) 0.6435(3) 0.3851(2)
H2 H 0.1347 0.5895 0.3858
C6 C 0.3341(4) 1.1013(3) 0.0590(2)
H3 H 0.4088 1.0785 0.0325
N7 N 0.0433(3) 0.5111(3) 0.0150(2)
O6 O 0.5509(4) 0.8955(4) -0.3636(3)
C7 C 0.8236(4) 0.9275(4) 0.1461(2)
H4 H 0.8898 0.8811 0.1724
H5 H 0.8189 1.0018 0.1540
C8 C 0.1736(3) 0.6534(3) 0.0196(2)
H6 H 0.1579 0.6302 0.0683
C9 C 0.2788(4) 0.7713(3) -0.08469(19)
H7 H 0.3347 0.8265 -0.1056
C10 C 0.8609(4) 0.9333(4) 0.0685(2)
H8 H 0.7909 0.9737 0.0429
H9 H 0.8734 0.8582 0.0613
C11 C 0.1411(4) 0.6362(3) -0.0951(2)
H10 H 0.1027 0.6027 -0.1230
C12 C 0.2458(6) 0.7621(4) -0.2065(2)
C13 C -0.0424(4) 0.6260(3) 0.4358(2)
C14 C 0.1184(4) 0.6022(3) -0.0223(2)
C15 C 0.4673(4) 1.4659(3) -0.0181(2)
H11 H 0.5321 1.4336 -0.0495
H12 H 0.4057 1.5150 -0.0464
C16 C 0.9848(4) 0.9914(4) 0.0397(2)
H13 H 0.9755 1.0634 0.0514
H14 H 1.0566 0.9468 0.0619
N8 N 0.3259(4) 0.7745(4) -0.5054(2)
C17 C 0.3338(4) 1.3032(3) -0.0023(2)
H15 H 0.2649 1.3491 -0.0265
H16 H 0.3975 1.2778 -0.0371
C18 C 0.3967(4) 1.3724(3) 0.0341(2)
H17 H 0.4579 1.3241 0.0630
H18 H 0.3307 1.4048 0.0649
C19 C 0.0659(4) 0.7430(3) 0.33306(19)
C20 C 0.2227(4) 0.7218(3) -0.1264(2)
N9 N 0.7549(4) 0.9386(4) -0.3802(3)
C21 C -0.1468(4) 0.8048(3) 0.3830(2)
C22 C -0.1487(4) 0.7058(3) 0.4349(2)
H19 H -0.2204 0.6927 0.4690
C23 C 0.1725(4) 1.2074(4) 0.0973(2)
H20 H 0.1155 1.2691 0.1026
C24 C 0.3876(4) 0.8201(4) -0.4668(2)
H21 H 0.4688 0.8470 -0.4808
O7 O 0.1649(5) 0.7475(4) -0.2413(2)
C25 C 0.5413(5) 0.7859(4) 0.2341(2)
H22 H 0.4945 0.7362 0.2696
C26 C 0.6368(6) 0.9288(5) -0.3440(3)
C27 C 0.6663(5) 0.8037(5) 0.2327(3)
H23 H 0.7203 0.7698 0.2668
C28 C 0.2037(6) 0.7761(5) -0.4064(3)
H24 H 0.1354 0.7663 -0.3701
O8 O 0.0748(9) 0.4609(7) 0.0794(6)
C29 C 0.3849(6) 0.7453(5) -0.5724(3)
H25 H 0.4663 0.7788 -0.5885
H26 H 0.3275 0.7754 -0.6081
C30 C 0.4894(6) 0.5619(5) -0.5051(3)
H27 H 0.5730 0.5923 -0.5157
H28 H 0.4477 0.5783 -0.4612
C31 C 0.2080(6) 0.7486(6) -0.4673(3)
H29 H 0.1433 0.7176 -0.4816
C32 C 0.4085(7) 0.6200(6) -0.5624(3)
H30 H 0.3254 0.5886 -0.5522
H31 H 0.4509 0.6043 -0.6064
C33 C 0.7815(7) 0.9135(6) -0.4505(4)
H32 H 0.8457 0.8511 -0.4492
H33 H 0.8129 0.9776 -0.4847
H34 H 0.7032 0.8957 -0.4631
C34 C 0.8633(7) 0.9771(9) -0.3598(5)
H35 H 0.8872 1.0446 -0.3933
H36 H 0.9350 0.9210 -0.3586
H37 H 0.8401 0.9917 -0.3140
C35 C 0.6117(7) 0.9561(6) -0.2775(4)
H38 H 0.5519 1.0217 -0.2806
H39 H 0.6912 0.9700 -0.2641
H40 H 0.5749 0.8949 -0.2429
O9 O -0.1667(10) 0.4940(9) 0.5019(6)
C36 C -0.0390(4) 0.8229(3) 0.3324(2)
H41 H -0.0373 0.8894 0.2977
C37 C 0.1654(4) 1.1002(3) 0.1364(2)
H42 H 0.1019 1.0758 0.1736
O10 O -0.3525(4) 0.8772(3) 0.4271(2)
C38 C -0.2601(5) 0.8916(4) 0.3816(3)
O11 O -0.2496(3) 0.9773(3) 0.33001(17)
O1A O -0.2690(3) 0.2295(2) -0.09905(14)
O3A O -0.3822(3) 0.1276(2) -0.00537(14)
C3A C -0.3074(3) 0.2006(3) -0.03311(19)
C4A C -0.2526(3) 0.2603(3) 0.01185(19)
O5A O -0.3482(4) 0.1888(3) 0.23095(16)
N7A N -0.0433(3) 0.4889(3) -0.0150(2)
C8A C -0.1736(3) 0.3466(3) -0.0196(2)
H6A H -0.1579 0.3698 -0.0683
C9A C -0.2788(4) 0.2287(3) 0.08469(19)
H7A H -0.3347 0.1735 0.1056
C11A C -0.1411(4) 0.3638(3) 0.0951(2)
H10A H -0.1027 0.3973 0.1230
C12A C -0.2458(6) 0.2379(4) 0.2065(2)
C14A C -0.1184(4) 0.3978(3) 0.0223(2)
C20A C -0.2227(4) 0.2782(3) 0.1264(2)
O7A O -0.1649(5) 0.2525(4) 0.2413(2)
O8A O -0.0748(9) 0.5391(7) -0.0794(6)
O2A O -0.1765(3) 0.1434(2) 0.76671(14)
O4A O -0.2707(3) 0.3130(3) 0.72296(16)
C1A C -0.1814(4) 0.2395(3) 0.72247(19)
N6A N 0.0521(3) 0.4759(3) 0.51040(18)
C5A C -0.0647(4) 0.3565(3) 0.6149(2)
H2A H -0.1347 0.4105 0.6142
C13A C 0.0424(4) 0.3740(3) 0.5642(2)
C19A C -0.0659(4) 0.2570(3) 0.66694(19)
C21A C 0.1468(4) 0.1952(3) 0.6170(2)
C22A C 0.1487(4) 0.2942(3) 0.5651(2)
H19A H 0.2204 0.3073 0.5310
O9A O 0.1667(10) 0.5060(9) 0.4981(6)
C36A C 0.0390(4) 0.1771(3) 0.6676(2)
H41A H 0.0373 0.1106 0.7023
O10A O 0.3525(4) 0.1228(3) 0.5729(2)
C38A C 0.2601(5) 0.1084(4) 0.6184(3)
O11A O 0.2496(3) 0.0227(3) 0.66999(17)
C2A C 1.4097(4) 1.0901(3) -0.1401(2)
H1A H 1.4158 1.0358 -0.0983
N3A N 1.5056(3) 1.1481(3) -0.17547(17)
N5A N 1.3022(3) 1.1191(3) -0.17178(18)
C7A C 1.1764(4) 1.0725(4) -0.1461(2)
H4A H 1.1102 1.1189 -0.1724
H5A H 1.1811 0.9982 -0.1540
C10A C 1.1391(4) 1.0667(4) -0.0685(2)
H8A H 1.2091 1.0263 -0.0429
H9A H 1.1266 1.1418 -0.0613
C16A C 1.0152(4) 1.0086(4) -0.0397(2)
H13A H 1.0245 0.9366 -0.0514
H14A H 0.9434 1.0532 -0.0619
C25A C 1.4587(5) 1.2141(4) -0.2341(2)
H22A H 1.5055 1.2638 -0.2696
C27A C 1.3337(5) 1.1963(5) -0.2327(3)
H23A H 1.2797 1.2302 -0.2668
N1A N 0.7320(3) 1.9664(2) -0.11163(16)
N4A N 0.7197(3) 1.7941(3) -0.04870(18)
C6A C 0.6659(4) 1.8987(3) -0.0590(2)
H3A H 0.5912 1.9215 -0.0325
C15A C 0.5327(4) 1.5341(3) 0.0181(2)
H11A H 0.4679 1.5664 0.0495
H12A H 0.5943 1.4850 0.0464
C17A C 0.6662(4) 1.6968(3) 0.0023(2)
H15A H 0.7351 1.6509 0.0265
H16A H 0.6025 1.7222 0.0371
C18A C 0.6033(4) 1.6276(3) -0.0341(2)
H17A H 0.5421 1.6759 -0.0630
H18A H 0.6693 1.5952 -0.0649
C23A C 0.8275(4) 1.7926(4) -0.0973(2)
H20A H 0.8845 1.7309 -0.1026
C37A C 0.8346(4) 1.8998(3) -0.1364(2)
H42A H 0.8981 1.9242 -0.1736
N2A N 0.6832(4) 0.1786(3) -0.59439(18)
N8A N 0.6741(4) 0.2255(4) -0.4946(2)
C24A C 0.6124(4) 0.1799(4) -0.5332(2)
H21A H 0.5312 0.1530 -0.5192
C28A C 0.7963(6) 0.2239(5) -0.5936(3)
H24A H 0.8646 0.2337 -0.6299
C29A C 0.6151(6) 0.2547(5) -0.4276(3)
H25A H 0.5337 0.2212 -0.4115
H26A H 0.6725 0.2246 -0.3919
C30A C 0.5106(6) 0.4381(5) -0.4949(3)
H27A H 0.4270 0.4077 -0.4843
H28A H 0.5523 0.4217 -0.5388
C31A C 0.7920(6) 0.2514(6) -0.5327(3)
H29A H 0.8567 0.2824 -0.5184
C32A C 0.5915(7) 0.3800(6) -0.4376(3)
H30A H 0.6746 0.4114 -0.4478
H31A H 0.5491 0.3957 -0.3936
Zn1A Zn -0.31217(4) 0.13065(3) -0.15284(2)
Zn2A Zn -0.35968(5) 0.11420(4) 0.33067(2)
O6A O -0.5509(4) 0.1045(4) 0.3636(3)
N9A N -0.7549(4) 0.0614(4) 0.3802(3)
C26A C -0.6368(6) 0.0712(5) 0.3440(3)
C33A C -0.7815(7) 0.0865(6) 0.4505(4)
H32A H -0.8457 0.1489 0.4492
H33A H -0.8129 0.0224 0.4847
H34A H -0.7032 0.1043 0.4631
C34A C -0.8633(7) 0.0229(9) 0.3598(5)
H35A H -0.8872 -0.0446 0.3933
H36A H -0.9350 0.0790 0.3586
H37A H -0.8401 0.0083 0.3140
C35A C -0.6117(7) 0.0439(6) 0.2775(4)
H38A H -0.5519 -0.0217 0.2806
H39A H -0.6912 0.0300 0.2641
H40A H -0.5749 0.1051 0.2429
Zn1A_2 Zn -0.31217(4) 0.13065(3) 0.84716(2)
Zn1A_3 Zn 0.68783(4) 2.13065(3) -0.15284(2)
Zn1A_4 Zn 1.68783(4) 1.13065(3) -0.15284(2)
Zn2_2 Zn 0.35968(5) -0.11420(4) 0.66933(2)
Zn2A_2 Zn -0.35968(5) 1.11420(4) 0.33067(2)
Zn2A_3 Zn 0.64032(5) 0.11420(4) -0.66933(2)
O2A_2 O -0.1765(3) 0.1434(2) -0.23329(14)
N1A_2 N -0.2680(3) -0.0336(2) -0.11163(16)
N2A_2 N -0.3168(4) 0.1786(3) 0.40561(18)
N3A_2 N -0.4944(3) 0.1481(3) -0.17547(17)
O11_2 O -0.2496(3) -0.0227(3) 0.33001(17)
O11A_2 O 0.2496(3) 1.0227(3) -0.33001(17)
O12 O 0.1521(6) 0.3703(5) -0.1228(3)
C39 C 0.1383(11) 0.4010(7) -0.1856(4)
N10 N 0.2174(10) 0.4558(6) -0.2338(5)
C40 C 0.0165(9) 0.3781(10) -0.2119(6)
H43 H -0.0303 0.3253 -0.1755
H44 H 0.0412 0.3480 -0.2526
H45 H -0.0376 0.4465 -0.2242
C41 C 0.2000(13) 0.4915(9) -0.3099(5)
H46 H 0.2297 0.4308 -0.3318
H47 H 0.2493 0.5541 -0.3323
H48 H 0.1100 0.5126 -0.3146
C42 C 0.3435(9) 0.4786(9) -0.2098(7)
H49 H 0.3377 0.4554 -0.1594
H50 H 0.3546 0.5571 -0.2249
H51 H 0.4162 0.4375 -0.2302
N11 N -0.2590(13) 0.6256(8) -0.3046(7)
C43 C -0.1043(14) 0.6704(15) -0.2462(8)
H52 H -0.1323 0.7455 -0.2426
H53 H -0.0117 0.6627 -0.2571
H54 H -0.1296 0.6192 -0.2022
O13 O -0.0928(7) 0.6545(7) -0.3752(4)
C44 C -0.3282(9) 0.6036(6) -0.3538(5)
H55 H -0.2764 0.6160 -0.3990
H56 H -0.4067 0.6524 -0.3569
H57 H -0.3490 0.5273 -0.3394
C45 C -0.1649(16) 0.6452(13) -0.3028(8)
C46 C -0.3389(15) 0.6009(16) -0.2239(6)
H58 H -0.4237 0.5802 -0.2250
H59 H -0.3468 0.6670 -0.2064
H60 H -0.2925 0.5411 -0.1935
loop_
_geom_bond_atom_site_label_1
_geom_bond_atom_site_label_2
_geom_bond_site_symmetry_1
_geom_bond_site_symmetry_2
Zn1 O1 1_555 1_555
Zn2 N2 1_555 1_555
O1 C3 1_555 1_555
O2 Zn1 1_555 1_555
O3 C3 1_555 1_555
O4 C1 1_555 1_555
C1 O2 1_555 1_555
C2 H1 1_555 1_555
N1 Zn1 1_555 1_555
N2 C24 1_555 1_555
N3 Zn1 1_555 1_555
N4 C6 1_555 1_555
C3 C4 1_555 1_555
N5 C2 1_555 1_555
C4 C8 1_555 1_555
O5 Zn2 1_555 1_555
N6 C13 1_555 1_555
C5 H2 1_555 1_555
C6 N1 1_555 1_555
H3 C6 1_555 1_555
N7 C14 1_555 1_555
O6 Zn2 1_555 1_555
C7 N5 1_555 1_555
H4 C7 1_555 1_555
H5 C7 1_555 1_555
C8 H6 1_555 1_555
C9 C4 1_555 1_555
H7 C9 1_555 1_555
C10 C7 1_555 1_555
H8 C10 1_555 1_555
H9 C10 1_555 1_555
C11 H10 1_555 1_555
C12 O5 1_555 1_555
C13 C5 1_555 1_555
C14 C8 1_555 1_555
C15 H11 1_555 1_555
H12 C15 1_555 1_555
C16 C10 1_555 1_555
H13 C16 1_555 1_555
H14 C16 1_555 1_555
N8 C24 1_555 1_555
C17 N4 1_555 1_555
H15 C17 1_555 1_555
H16 C17 1_555 1_555
C18 C15 1_555 1_555
H17 C18 1_555 1_555
H18 C18 1_555 1_555
C19 C1 1_555 1_555
C20 C9 1_555 1_555
N9 C26 1_555 1_555
C21 C22 1_555 1_555
C22 C13 1_555 1_555
H19 C22 1_555 1_555
C23 N4 1_555 1_555
H20 C23 1_555 1_555
C24 H21 1_555 1_555
O7 C12 1_555 1_555
C25 N3 1_555 1_555
H22 C25 1_555 1_555
C26 O6 1_555 1_555
C27 N5 1_555 1_555
H23 C27 1_555 1_555
C28 N2 1_555 1_555
H24 C28 1_555 1_555
O8 N7 1_555 1_555
C29 N8 1_555 1_555
H25 C29 1_555 1_555
H26 C29 1_555 1_555
C30 H27 1_555 1_555
H28 C30 1_555 1_555
C31 N8 1_555 1_555
H29 C31 1_555 1_555
C32 C29 1_555 1_555
H30 C32 1_555 1_555
H31 C32 1_555 1_555
C33 N9 1_555 1_555
H32 C33 1_555 1_555
H33 C33 1_555 1_555
H34 C33 1_555 1_555
C34 N9 1_555 1_555
H35 C34 1_555 1_555
H36 C34 1_555 1_555
H37 C34 1_555 1_555
C35 C26 1_555 1_555
H38 C35 1_555 1_555
H39 C35 1_555 1_555
H40 C35 1_555 1_555
O9 N6 1_555 1_555
C36 C19 1_555 1_555
H41 C36 1_555 1_555
C37 N1 1_555 1_555
H42 C37 1_555 1_555
O10 C38 1_555 1_555
C38 C21 1_555 1_555
O11 C38 1_555 1_555
O12 C39 1_555 1_555
C39 N10 1_555 1_555
N10 C41 1_555 1_555
C40 C39 1_555 1_555
H43 C40 1_555 1_555
H44 C40 1_555 1_555
H45 C40 1_555 1_555
C41 H46 1_555 1_555
H47 C41 1_555 1_555
H48 C41 1_555 1_555
C42 N10 1_555 1_555
H49 C42 1_555 1_555
H50 C42 1_555 1_555
H51 C42 1_555 1_555
N11 C44 1_555 1_555
C43 H52 1_555 1_555
H53 C43 1_555 1_555
H54 C43 1_555 1_555
O13 C45 1_555 1_555
C44 H55 1_555 1_555
H56 C44 1_555 1_555
H57 C44 1_555 1_555
C45 N11 1_555 1_555
C46 N11 1_555 1_555
H58 C46 1_555 1_555
H59 C46 1_555 1_555
H60 C46 1_555 1_555
O1A C3A 1_555 1_555
O3A C3A 1_555 1_555
C3A C4A 1_555 1_555
C4A C8A 1_555 1_555
O5A C12A 1_555 1_555
N7A N7 1_555 1_555
C8A H6A 1_555 1_555
C9A C4A 1_555 1_555
H7A C9A 1_555 1_555
C11A H10A 1_555 1_555
C12A C20A 1_555 1_555
C14A N7A 1_555 1_555
C20A C9A 1_555 1_555
O7A C12A 1_555 1_555
O8A N7A 1_555 1_555
O2A C1A 1_555 1_555
O4A C1A 1_555 1_555
C1A C19A 1_555 1_555
N6A N6 1_555 1_555
C5A H2A 1_555 1_555
C13A N6A 1_555 1_555
C19A C5A 1_555 1_555
C21A C22A 1_555 1_555
C22A C13A 1_555 1_555
H19A C22A 1_555 1_555
O9A N6A 1_555 1_555
C36A C19A 1_555 1_555
H41A C36A 1_555 1_555
O10A C38A 1_555 1_555
C38A C21A 1_555 1_555
O11A C38A 1_555 1_555
C2A H1A 1_555 1_555
N3A C2A 1_555 1_555
N5A C2A 1_555 1_555
C7A N5A 1_555 1_555
H4A C7A 1_555 1_555
H5A C7A 1_555 1_555
C10A C7A 1_555 1_555
H8A C10A 1_555 1_555
H9A C10A 1_555 1_555
C16A C16 1_555 1_555
H13A C16A 1_555 1_555
H14A C16A 1_555 1_555
C25A N3A 1_555 1_555
H22A C25A 1_555 1_555
C27A N5A 1_555 1_555
H23A C27A 1_555 1_555
N1A C6A 1_555 1_555
N4A C6A 1_555 1_555
C6A H3A 1_555 1_555
C15A C15 1_555 1_555
H11A C15A 1_555 1_555
H12A C15A 1_555 1_555
C17A N4A 1_555 1_555
H15A C17A 1_555 1_555
H16A C17A 1_555 1_555
C18A C15A 1_555 1_555
H17A C18A 1_555 1_555
H18A C18A 1_555 1_555
C23A N4A 1_555 1_555
H20A C23A 1_555 1_555
C37A N1A 1_555 1_555
H42A C37A 1_555 1_555
N2A C24A 1_555 1_555
N8A C24A 1_555 1_555
C24A H21A 1_555 1_555
C28A N2A 1_555 1_555
H24A C28A 1_555 1_555
C29A N8A 1_555 1_555
H25A C29A 1_555 1_555
H26A C29A 1_555 1_555
C30A C30 1_555 1_555
H27A C30A 1_555 1_555
H28A C30A 1_555 1_555
C31A N8A 1_555 1_555
H29A C31A 1_555 1_555
C32A C29A 1_555 1_555
H30A C32A 1_555 1_555
H31A C32A 1_555 1_555
Zn1A O1A 1_555 1_555
Zn2A O5A 1_555 1_555
O6A Zn2A 1_555 1_555
N9A C26A 1_555 1_555
C26A O6A 1_555 1_555
C33A N9A 1_555 1_555
H32A C33A 1_555 1_555
H33A C33A 1_555 1_555
H34A C33A 1_555 1_555
C34A N9A 1_555 1_555
H35A C34A 1_555 1_555
H36A C34A 1_555 1_555
H37A C34A 1_555 1_555
C35A C26A 1_555 1_555
H38A C35A 1_555 1_555
H39A C35A 1_555 1_555
H40A C35A 1_555 1_555
Zn1A_2 O2A 1_555 1_555
Zn1A_3 N1A 1_555 1_555
Zn1A_4 N3A 1_555 1_555
Zn2_2 O11A 1_555 1_555
Zn2A_2 O11 1_555 1_555
Zn2A_3 N2A 1_555 1_555
O2A_2 Zn1A 1_555 1_555
N1A_2 Zn1A 1_555 1_555
N2A_2 Zn2A 1_555 1_555
N3A_2 Zn1A 1_555 1_555
O11_2 Zn2A 1_555 1_555
O11A_2 Zn2 1_555 1_555
C2 N3 1_555 1_555
C5 C19 1_555 1_555
C11 C14 1_555 1_555
C11 C20 1_555 1_555
C12 C20 1_555 1_555
C17 C18 1_555 1_555
C21 C36 1_555 1_555
C23 C37 1_555 1_555
C25 C27 1_555 1_555
C28 C31 1_555 1_555
C30 C32 1_555 1_555
C43 C45 1_555 1_555
C8A C14A 1_555 1_555
C11A C14A 1_555 1_555
C11A C20A 1_555 1_555
C5A C13A 1_555 1_555
C21A C36A 1_555 1_555
C10A C16A 1_555 1_555
C25A C27A 1_555 1_555
C17A C18A 1_555 1_555
C23A C37A 1_555 1_555
C28A C31A 1_555 1_555
C30A C32A 1_555 1_555

#END
