
#######################################################################
#
#                 Cambridge Crystallographic Data Centre
#                                CCDC 
#
#######################################################################
#
# If this CIF has been generated from an entry in the Cambridge 
# Structural Database, then it will include bibliographic, chemical, 
# crystal, experimental, refinement or atomic coordinate data resulting 
# from the CCDC's data processing and validation procedures.
#
#######################################################################

data_ESASEY
_chemical_formula_moiety         '(C30 H28 N6 O8 Zn2)n'
_symmetry_cell_setting           monoclinic
_symmetry_space_group_name_H-M   'C 2/c'
_symmetry_Int_Tables_number      15
_space_group_name_Hall           '-C 2yc'
loop_
_symmetry_equiv_pos_site_id
_symmetry_equiv_pos_as_xyz
1 x,y,z
2 -x,y,1/2-z
3 1/2+x,1/2+y,z
4 1/2-x,1/2+y,1/2-z
5 -x,-y,-z
6 x,-y,1/2+z
7 1/2-x,1/2-y,-z
8 1/2+x,1/2-y,1/2+z
_cell_length_a                   27.5185(9)
_cell_length_b                   10.4247(4)
_cell_length_c                   14.8656(5)
_cell_angle_alpha                90
_cell_angle_beta                 117.541(2)
_cell_angle_gamma                90
_cell_volume                     3781.27
loop_
_atom_site_label
_atom_site_type_symbol
_atom_site_fract_x
_atom_site_fract_y
_atom_site_fract_z
Zn1 Zn 0.291302(12) 0.36024(3) 0.03377(2)
O1 O 0.16737(11) 0.2502(3) 0.0213(2)
C1 C 0.15585(11) 0.4341(3) 0.1048(2)
O2 O 0.23291(12) 0.3999(3) 0.0794(3)
C2 C 0.3768(5) 0.8486(9) 0.1475(9)
H1 H 0.3718 0.8438 0.2078
H2 H 0.3563 0.9223 0.1086
N1 N 0.3526(4) 0.7325(7) 0.0864(7)
N2 N 0.01258(11) 0.5350(4) 0.0375(2)
C3 C 0.09873(12) 0.4365(4) 0.0531(2)
H3 H 0.0798 0.3829 -0.0023
N3 N 0.3222(4) 0.5359(7) 0.0442(7)
C4 C 0.07029(12) 0.5203(4) 0.0853(2)
C5 C 0.18804(13) 0.3530(3) 0.0651(2)
C6 C 0.3272(3) 0.5910(7) -0.0372(5)
H4 H 0.3186 0.5531 -0.0994
C7 C 0.3474(4) 0.7117(6) -0.0061(6)
H5 H 0.3562 0.7702 -0.0436
C8 C 0.3350(5) 0.6040(9) 0.2135(9)
H6 H 0.2981 0.5852 0.2000
H7 H 0.3473 0.6806 0.2538
H8 H 0.3585 0.5338 0.2498
C9 C 0.3370(2) 0.6238(4) 0.1139(4)
C10 C 0.4355(5) 0.8720(8) 0.1798(9)
H9 H 0.4457 0.9539 0.2147
H10 H 0.4409 0.8783 0.1199
C11 C 0.18416(11) 0.5082(3) 0.1906(2)
H11 H 0.2222 0.5035 0.2259
C12 C 0.15598(11) 0.5901(3) 0.2245(2)
C13 C 0.09917(12) 0.5978(4) 0.1705(2)
H12 H 0.0803 0.6547 0.1912
C14 C 0.18718(13) 0.6646(3) 0.3215(2)
O3 O 0.16589(11) 0.7653(3) 0.3319(2)
O4 O 0.23153(12) 0.6161(3) 0.3845(2)
C15 C 0.4745(4) 0.7663(8) 0.2510(8)
H13 H 0.4806 0.7811 0.3198
H14 H 0.4573 0.6829 0.2296
O1D O -0.16737(11) 0.7498(3) -0.0213(2)
C1D C -0.15585(11) 0.5659(3) -0.1048(2)
O2D O -0.23291(12) 0.6001(3) -0.0794(3)
N2D N -0.01258(11) 0.4650(4) -0.0375(2)
C3D C -0.09873(12) 0.5635(4) -0.0531(2)
H3D H -0.0798 0.6171 0.0023
C4D C -0.07029(12) 0.4797(4) -0.0853(2)
C5D C -0.18804(13) 0.6470(3) -0.0651(2)
C11D C -0.18416(11) 0.4918(3) -0.1906(2)
H11D H -0.2222 0.4965 -0.2259
C12D C -0.15598(11) 0.4099(3) -0.2245(2)
C13D C -0.09917(12) 0.4022(4) -0.1705(2)
H12D H -0.0803 0.3453 -0.1912
C14D C -0.18718(13) 0.3354(3) -0.3215(2)
O3D O -0.16589(11) 0.2347(3) -0.3319(2)
O4D O -0.23153(12) 0.3839(3) -0.3845(2)
C2A C 0.6232(5) 0.8486(9) 0.3525(9)
H1A H 0.6282 0.8438 0.2922
H2A H 0.6437 0.9223 0.3914
N1A N 0.6474(4) 0.7325(7) 0.4136(7)
N3A N 0.6778(4) 0.5359(7) 0.4558(7)
C6A C 0.6728(3) 0.5910(7) 0.5372(5)
H4A H 0.6814 0.5531 0.5994
C7A C 0.6526(4) 0.7117(6) 0.5061(6)
H5A H 0.6438 0.7702 0.5436
C8A C 0.6650(5) 0.6040(9) 0.2865(9)
H6A H 0.7019 0.5852 0.3000
H7A H 0.6527 0.6806 0.2462
H8A H 0.6415 0.5338 0.2502
C9A C 0.6630(2) 0.6238(4) 0.3861(4)
C10A C 0.5645(5) 0.8720(8) 0.3202(9)
H9A H 0.5543 0.9539 0.2853
H10A H 0.5591 0.8783 0.3801
C15A C 0.5255(4) 0.7663(8) 0.2490(8)
H13A H 0.5194 0.7811 0.1802
H14A H 0.5427 0.6829 0.2704
Zn1A Zn -0.291302(12) 0.36024(3) -0.53377(2)
Zn1A_2 Zn 0.708698(12) 0.36024(3) 0.46623(2)
Zn1B Zn -0.208698(12) 0.86024(3) 0.03377(2)
Zn1C Zn 0.208698(12) 0.86024(3) 0.46623(2)
Zn1D Zn -0.291302(12) 0.63976(3) -0.03377(2)
Zn1E Zn 0.291302(12) 0.63976(3) 0.53377(2)
Zn1F Zn 0.208698(12) 0.13976(3) -0.03377(2)
Zn1G Zn -0.208698(12) 0.13976(3) -0.46623(2)
O1F O 0.33263(11) 0.2498(3) -0.0213(2)
O1G O -0.33263(11) 0.2498(3) -0.4787(2)
O2A O -0.23291(12) 0.3999(3) -0.5794(3)
N3A_2 N -0.3222(4) 0.5359(7) -0.5442(7)
O3B O -0.33411(11) 0.2653(3) -0.6681(2)
O3C O 0.33411(11) 0.2653(3) 0.1681(2)
O4E O 0.23153(12) 0.3839(3) -0.1155(2)
loop_
_geom_bond_atom_site_label_1
_geom_bond_atom_site_label_2
_geom_bond_site_symmetry_1
_geom_bond_site_symmetry_2
Zn1 O2 1_555 1_555
O1 C5 1_555 1_555
C1 C3 1_555 1_555
O2 C5 1_555 1_555
C2 H1 1_555 1_555
H2 C2 1_555 1_555
N1 C2 1_555 1_555
N2 C4 1_555 1_555
C3 H3 1_555 1_555
N3 Zn1 1_555 1_555
C4 C3 1_555 1_555
C5 C1 1_555 1_555
C6 N3 1_555 1_555
H4 C6 1_555 1_555
C7 N1 1_555 1_555
H5 C7 1_555 1_555
C8 H6 1_555 1_555
H7 C8 1_555 1_555
H8 C8 1_555 1_555
C9 N1 1_555 1_555
C10 C2 1_555 1_555
H9 C10 1_555 1_555
H10 C10 1_555 1_555
C11 C1 1_555 1_555
H11 C11 1_555 1_555
C12 C11 1_555 1_555
C13 C4 1_555 1_555
H12 C13 1_555 1_555
C14 C12 1_555 1_555
O3 C14 1_555 1_555
O4 C14 1_555 1_555
C15 C10 1_555 1_555
H13 C15 1_555 1_555
H14 C15 1_555 1_555
O1D C5D 1_555 1_555
C1D C3D 1_555 1_555
O2D C5D 1_555 1_555
N2D N2 1_555 1_555
C3D H3D 1_555 1_555
C4D N2D 1_555 1_555
C5D C1D 1_555 1_555
C11D C1D 1_555 1_555
H11D C11D 1_555 1_555
C12D C11D 1_555 1_555
C13D C4D 1_555 1_555
H12D C13D 1_555 1_555
C14D C12D 1_555 1_555
O3D C14D 1_555 1_555
O4D C14D 1_555 1_555
C2A H1A 1_555 1_555
H2A C2A 1_555 1_555
N1A C2A 1_555 1_555
N3A C6A 1_555 1_555
C6A H4A 1_555 1_555
C7A N1A 1_555 1_555
H5A C7A 1_555 1_555
C8A H6A 1_555 1_555
H7A C8A 1_555 1_555
H8A C8A 1_555 1_555
C9A N1A 1_555 1_555
C10A C2A 1_555 1_555
H9A C10A 1_555 1_555
H10A C10A 1_555 1_555
C15A C15 1_555 1_555
H13A C15A 1_555 1_555
H14A C15A 1_555 1_555
Zn1A O4D 1_555 1_555
Zn1A_2 N3A 1_555 1_555
Zn1B O1D 1_555 1_555
Zn1C O3 1_555 1_555
Zn1D O2D 1_555 1_555
Zn1E O4 1_555 1_555
Zn1F O1 1_555 1_555
Zn1G O3D 1_555 1_555
O1F Zn1 1_555 1_555
O1G Zn1A 1_555 1_555
O2A Zn1A 1_555 1_555
N3A_2 Zn1A 1_555 1_555
O3B Zn1A 1_555 1_555
O3C Zn1 1_555 1_555
O4E Zn1 1_555 1_555
N3 C9 1_555 1_555
C6 C7 1_555 1_555
C8 C9 1_555 1_555
C12 C13 1_555 1_555
C3D C4D 1_555 1_555
C12D C13D 1_555 1_555
N3A C9A 1_555 1_555
C6A C7A 1_555 1_555
C8A C9A 1_555 1_555
C10A C15A 1_555 1_555

#END
