
#######################################################################
#
#                 Cambridge Crystallographic Data Centre
#                                CCDC 
#
#######################################################################
#
# If this CIF has been generated from an entry in the Cambridge 
# Structural Database, then it will include bibliographic, chemical, 
# crystal, experimental, refinement or atomic coordinate data resulting 
# from the CCDC's data processing and validation procedures.
#
#######################################################################

data_GELVEZ01
_chemical_formula_moiety         '(C14 H12 Mn2 O12)n'
_symmetry_cell_setting           trigonal
_symmetry_space_group_name_H-M   'P 31 2 1'
_symmetry_Int_Tables_number      152
_space_group_name_Hall           'P 31 2"'
loop_
_symmetry_equiv_pos_site_id
_symmetry_equiv_pos_as_xyz
1 x,y,z
2 -y,x-y,1/3+z
3 -x+y,-x,2/3+z
4 y,x,-z
5 x-y,-y,2/3-z
6 -x,-x+y,1/3-z
_cell_length_a                   9.0659(2)
_cell_length_b                   9.0659(2)
_cell_length_c                   21.7273(5)
_cell_angle_alpha                90
_cell_angle_beta                 90
_cell_angle_gamma                120
_cell_volume                     1546.53
loop_
_atom_site_label
_atom_site_type_symbol
_atom_site_fract_x
_atom_site_fract_y
_atom_site_fract_z
Mn1 Mn -0.02195(5) 0.01724(4) 0.082940(18)
O1 O -0.1090(3) -0.1090(3) 0.0000
O2 O -0.3016(3) -0.1920(3) 0.09976(9)
H1 H -0.364(4) -0.232(4) 0.1324(8)
O3 O -0.7710(3) -0.8118(3) 0.04952(9)
O4 O -0.0000 0.1351(3) 0.1667
O5 O -0.0832(3) 0.2314(3) 0.06368(10)
H2 H -0.101(5) 0.273(4) 0.0305(8)
O6 O 0.0519(3) 0.8438(3) 0.11859(9)
C1 C -0.2557(4) -0.2557(4) 0.0000
C2 C -0.3622(4) -0.3072(4) 0.05151(13)
C3 C -0.7257(5) -0.7257(5) 0.0000
C4 C -0.5630(5) -0.5630(5) 0.0000
C5 C -0.5126(4) -0.4605(4) 0.05266(13)
H3 H -0.5812 -0.4961 0.0887
C6 C -0.0000 0.2827(5) 0.1667
C7 C -0.0416(4) 0.3397(4) 0.11332(13)
C8 C -0.0000 0.7527(5) 0.1667
C9 C 0.0000 0.5891(5) 0.1667
C10 C -0.0380(4) 0.4939(4) 0.11260(15)
H4 H -0.0612 0.5346 0.0757
Mn1C Mn 0.01724(4) -0.02195(5) -0.082940(18)
Mn1E Mn 0.02195(5) 0.03919(6) 0.250393(18)
Mn1_2 Mn -1.02195(5) -0.98276(4) 0.082940(18)
Mn1C_2 Mn -0.98276(4) -1.02195(5) -0.082940(18)
Mn1_3 Mn -0.02195(5) 1.01724(4) 0.082940(18)
Mn1E_2 Mn 0.02195(5) 1.03919(6) 0.250393(18)
O1_2 O -1.1090(3) -1.1090(3) 0.0000
O2C O -0.1920(3) -0.3016(3) -0.09976(9)
O2_2 O -1.3016(3) -1.1920(3) 0.09976(9)
H1C H -0.232(4) -0.364(4) -0.1324(8)
H1_2 H -1.364(4) -1.232(4) 0.1324(8)
O3_2 O 0.2290(3) 0.1882(3) 0.04952(9)
O3C O -0.8118(3) -0.7710(3) -0.04952(9)
O4_2 O -1.0000 -0.8649(3) 0.1667
O5E O 0.0832(3) 0.3146(4) 0.26965(10)
O5_2 O -1.0832(3) -0.7686(3) 0.06368(10)
H2E H 0.101(5) 0.374(6) 0.3028(8)
H2_2 H -1.101(5) -0.727(4) 0.0305(8)
O6_2 O 0.0519(3) -0.1562(3) 0.11859(9)
O6E O -0.0519(3) 0.7919(4) 0.21474(9)
O6_3 O -0.9481(3) -1.1562(3) 0.11859(9)
C2C C -0.3072(4) -0.3622(4) -0.05151(13)
C5C C -0.4605(4) -0.5126(4) -0.05266(13)
H3C H -0.4961 -0.5812 -0.0887
C7E C 0.0416(4) 0.3813(6) 0.22001(13)
C10E C 0.0380(4) 0.5319(6) 0.22073(15)
H4E H 0.0612 0.5958 0.2576
O7 O -0.5287(3) 0.1927(4) 0.12755(12)
H5 H -0.522(5) 0.101(3) 0.134(2)
H6 H -0.431(3) 0.276(3) 0.1153(18)
O8 O 0.3220(4) -0.1311(4) 0.04558(12)
H7 H 0.238(4) -0.224(3) 0.0306(18)
H8 H 0.356(5) -0.149(5) 0.0812(11)
loop_
_geom_bond_atom_site_label_1
_geom_bond_atom_site_label_2
_geom_bond_site_symmetry_1
_geom_bond_site_symmetry_2
Mn1 O1 1_555 1_555
O1 C1 1_555 1_555
O2 Mn1 1_555 1_555
H1 O2 1_555 1_555
O3 C3 1_555 1_555
O4 Mn1 1_555 1_555
O5 Mn1 1_555 1_555
H2 O5 1_555 1_555
O6 C8 1_555 1_555
C1 C2 1_555 1_555
C2 O2 1_555 1_555
C3 C4 1_555 1_555
C4 C5 1_555 1_555
C5 C2 1_555 1_555
H3 C5 1_555 1_555
C6 O4 1_555 1_555
C7 O5 1_555 1_555
C8 C9 1_555 1_555
C9 C10 1_555 1_555
C10 C7 1_555 1_555
H4 C10 1_555 1_555
O7 H5 1_555 1_555
H6 O7 1_555 1_555
O8 H7 1_555 1_555
H8 O8 1_555 1_555
Mn1C O1 1_555 1_555
Mn1E O4 1_555 1_555
Mn1_2 O3 1_555 1_555
Mn1C_2 O1_2 1_555 1_555
Mn1_3 O6 1_555 1_555
Mn1E_2 O6E 1_555 1_555
O1_2 Mn1_2 1_555 1_555
O2C Mn1C 1_555 1_555
O2_2 Mn1_2 1_555 1_555
H1C O2C 1_555 1_555
H1_2 O2_2 1_555 1_555
O3_2 Mn1 1_555 1_555
O3C C3 1_555 1_555
O4_2 Mn1_2 1_555 1_555
O5E Mn1E 1_555 1_555
O5_2 Mn1_2 1_555 1_555
H2E O5E 1_555 1_555
H2_2 O5_2 1_555 1_555
O6_2 Mn1 1_555 1_555
O6E C8 1_555 1_555
O6_3 Mn1_2 1_555 1_555
C2C C1 1_555 1_555
C5C C4 1_555 1_555
H3C C5C 1_555 1_555
C7E C6 1_555 1_555
C10E C9 1_555 1_555
H4E C10E 1_555 1_555
C6 C7 1_555 1_555
Mn1C_2 O3C 1_555 1_555
O2C C2C 1_555 1_555
O5E C7E 1_555 1_555
C2C C5C 1_555 1_555
C7E C10E 1_555 1_555

#END
