
#######################################################################
#
#                 Cambridge Crystallographic Data Centre
#                                CCDC 
#
#######################################################################
#
# If this CIF has been generated from an entry in the Cambridge 
# Structural Database, then it will include bibliographic, chemical, 
# crystal, experimental, refinement or atomic coordinate data resulting 
# from the CCDC's data processing and validation procedures.
#
#######################################################################

data_ITETEH
_chemical_formula_moiety         '(C7 H5 Fe1 O6)n'
_symmetry_cell_setting           trigonal
_symmetry_space_group_name_H-M   'P 31 2 1'
_symmetry_Int_Tables_number      152
_space_group_name_Hall           'P 31 2"'
loop_
_symmetry_equiv_pos_site_id
_symmetry_equiv_pos_as_xyz
1 x,y,z
2 -y,x-y,1/3+z
3 -x+y,-x,2/3+z
4 y,x,-z
5 x-y,-y,2/3-z
6 -x,-x+y,1/3-z
_cell_length_a                   8.6716(4)
_cell_length_b                   8.6716(4)
_cell_length_c                   10.8650(5)
_cell_angle_alpha                90
_cell_angle_beta                 90
_cell_angle_gamma                120
_cell_volume                     707.553
loop_
_atom_site_label
_atom_site_type_symbol
_atom_site_fract_x
_atom_site_fract_y
_atom_site_fract_z
Fe1 Fe 0.05818(8) 0.05818(8) 0.5000
O1 O 0.1126(4) -0.00000 0.3333
O2 O 0.3129(4) 0.1204(3) 0.5297(2)
O3 O 0.8109(4) -0.0227(4) 0.4353(2)
C1 C 0.2694(6) -0.00000 0.3333
C2 C 0.3754(5) 0.0606(6) 0.4375(3)
C3 C 0.5349(5) 0.0592(6) 0.4391(3)
H1 H 0.6092 0.0974 0.5098
C4 C 0.5836(7) -0.00000 0.3333
C5 C 0.7547(6) -0.00000 0.3333
Fe1_2 Fe 1.05818(8) 0.05818(8) 0.5000
Fe1B Fe -0.00000(11) -0.05818(8) 0.1667
Fe1B_2 Fe 1.00000(11) -0.05818(8) 0.1667
O1A O 0.00000 0.11260(40) 0.6666
O2D O 0.1925(5) -0.1204(3) 0.1370(2)
O2C O 0.1204(3) 0.3129(4) 0.4703(2)
O3D O 0.8336(6) 0.0227(4) 0.2314(2)
O3_2 O -0.1891(4) -0.0227(4) 0.4353(2)
O3C O -0.0227(4) -0.1891(4) 0.5647(2)
C2D C 0.3148(8) -0.0606(6) 0.2292(3)
C3D C 0.4757(8) -0.0592(6) 0.2276(3)
H1D H 0.5118 -0.0974 0.1569
O4 O 0.1616(12) 0.4529(11) 0.2593(7)
loop_
_geom_bond_atom_site_label_1
_geom_bond_atom_site_label_2
_geom_bond_site_symmetry_1
_geom_bond_site_symmetry_2
Fe1 O1 1_555 1_555
O1 C1 1_555 1_555
O2 Fe1 1_555 1_555
O3 C5 1_555 1_555
C1 C2 1_555 1_555
C2 O2 1_555 1_555
C3 C2 1_555 1_555
H1 C3 1_555 1_555
C4 C3 1_555 1_555
C5 C4 1_555 1_555
Fe1_2 O3 1_555 1_555
Fe1B O1 1_555 1_555
Fe1B_2 O3D 1_555 1_555
O1A Fe1 1_555 1_555
O2D Fe1B 1_555 1_555
O2C Fe1 1_555 1_555
O3D C5 1_555 1_555
O3_2 Fe1 1_555 1_555
O3C Fe1 1_555 1_555
C2D C1 1_555 1_555
C3D C4 1_555 1_555
H1D C3D 1_555 1_555
O2D C2D 1_555 1_555
C2D C3D 1_555 1_555

#END
