
#######################################################################
#
#                 Cambridge Crystallographic Data Centre
#                                CCDC 
#
#######################################################################
#
# If this CIF has been generated from an entry in the Cambridge 
# Structural Database, then it will include bibliographic, chemical, 
# crystal, experimental, refinement or atomic coordinate data resulting 
# from the CCDC's data processing and validation procedures.
#
#######################################################################

data_JELPAS
_chemical_formula_moiety         '(C10 H20 As8 Fe6 N2 O44 6-)n'
_symmetry_cell_setting           trigonal
_symmetry_space_group_name_H-M   'P -3 c 1'
_symmetry_Int_Tables_number      165
_space_group_name_Hall           '-P 3 2"c'
loop_
_symmetry_equiv_pos_site_id
_symmetry_equiv_pos_as_xyz
1 x,y,z
2 -y,x-y,z
3 -x+y,-x,z
4 y,x,1/2-z
5 x-y,-y,1/2-z
6 -x,-x+y,1/2-z
7 -x,-y,-z
8 y,-x+y,-z
9 x-y,x,-z
10 -y,-x,1/2+z
11 -x+y,y,1/2+z
12 x,x-y,1/2+z
_cell_length_a                   13.9899(12)
_cell_length_b                   13.9899(12)
_cell_length_c                   14.936(3)
_cell_angle_alpha                90
_cell_angle_beta                 90
_cell_angle_gamma                120
_cell_volume                     2531.59
loop_
_atom_site_label
_atom_site_type_symbol
_atom_site_fract_x
_atom_site_fract_y
_atom_site_fract_z
As1 As 0.32532(3) 0.86313(3) 0.48033(2)
As2 As 0.3333 0.6667 0.70826(4)
Fe1 Fe 0.53674(4) 0.87024(4) 0.59595(3)
O1 O 0.4095(2) 0.8210(2) 0.51955(18)
O2 O 0.3767(2) 0.9994(2) 0.48302(18)
O3 O 0.2028(2) 0.8072(2) 0.53243(19)
O4 O 0.2987(3) 0.8232(2) 0.37021(18)
H8 H 0.3124 0.7736 0.3609
O5 O 0.4657(2) 0.7465(2) 0.67909(17)
O6 O 0.3333 0.6667 0.8231(3)
O7 O 0.4868(2) 0.9574(2) 0.68377(17)
O8 O 0.6713(2) 0.9455(2) 0.68899(19)
C3 C 0.5494(4) 1.0000 0.7500
C4 C 0.6592(4) 1.0000 0.7500
As1F As 0.67468(3) 1.13687(3) 0.51967(2)
As1B As 0.53781(4) 0.67468(3) 0.48033(2)
As1H As 0.46219(4) 1.32532(3) 0.51967(2)
As1H_2 As 0.46219(4) 0.32532(3) 0.51967(2)
As1A As 0.13687(3) 0.46219(4) 0.48033(2)
As2F As 0.6667 1.3333 0.29174(4)
Fe1F Fe 0.46326(4) 1.12976(4) 0.40405(3)
Fe1B Fe 0.33350(6) 0.46326(4) 0.59595(3)
Fe1H Fe 0.66650(6) 0.53674(4) 0.40405(3)
Fe1A Fe 0.12976(4) 0.66650(6) 0.59595(3)
Fe1G Fe 0.87024(4) 1.33350(6) 0.40405(3)
Fe1D Fe 0.66650(6) 1.12976(4) 0.90405(3)
Fe1H_2 Fe 0.66650(6) 1.53674(4) 0.40405(3)
Fe1B_2 Fe 0.33350(6) 1.46326(4) 0.59595(3)
Fe1J Fe 0.33350(6) 0.87024(4) 0.09595(3)
Fe1F_2 Fe 0.46326(4) 0.12976(4) 0.40405(3)
Fe1G_2 Fe -0.12976(4) 0.33350(6) 0.40405(3)
Fe1E Fe 0.46326(4) 0.33350(6) 0.90405(3)
O1F O 0.5905(2) 1.1790(2) 0.48045(18)
O1B O 0.4115(3) 0.5905(2) 0.51955(18)
O1H O 0.5885(3) 1.4095(2) 0.48045(18)
O1H_2 O 0.5885(3) 0.4095(2) 0.48045(18)
O1A O 0.1790(2) 0.5885(3) 0.51955(18)
O1G O 0.8210(2) 1.4115(3) 0.48045(18)
O2F O 0.6233(2) 1.0006(2) 0.51698(18)
O2B O 0.6227(3) 0.6233(2) 0.48302(18)
O2H O 0.3773(3) 1.3767(2) 0.51698(18)
O2H_2 O 0.3773(3) 0.3767(2) 0.51698(18)
O2A O 0.0006(2) 0.3773(3) 0.48302(18)
O2G O -0.0006(2) 0.6227(3) 0.51698(18)
O2A_2 O 1.0006(2) 1.3773(3) 0.48302(18)
O3F O 0.7972(2) 1.1928(2) 0.46757(19)
O3B O 0.6044(3) 0.7972(2) 0.53243(19)
O3H O 0.3956(3) 1.2028(2) 0.46757(19)
O3H_2 O 0.3956(3) 0.2028(2) 0.46757(19)
O3A O 0.1928(2) 0.3956(3) 0.53243(19)
O3G O 0.8072(2) 0.6044(3) 0.46757(19)
O4F O 0.7013(3) 1.1768(2) 0.62979(18)
O4B O 0.5245(4) 0.7013(3) 0.37021(18)
O4H O 0.4755(4) 1.2987(3) 0.62979(18)
O4H_2 O 0.4755(4) 0.2987(3) 0.62979(18)
O4A O 0.1768(2) 0.4755(4) 0.37021(18)
H8F H 0.6876 1.2264 0.6391
H8B H 0.4612 0.6876 0.3609
H8H H 0.5388 1.3124 0.6391
H8H_2 H 0.5388 0.3124 0.6391
H8A H 0.2264 0.5388 0.3609
O5A O 0.2535(2) 0.7192(3) 0.67909(17)
O5B O 0.2808(3) 0.5343(2) 0.67909(17)
O5F O 0.5343(2) 1.2535(2) 0.32091(17)
O5G O 0.7465(2) 1.2808(3) 0.32091(17)
O5H O 0.7192(3) 1.4657(2) 0.32091(17)
O5H_2 O 0.7192(3) 0.4657(2) 0.32091(17)
O6F O 0.6667 1.3333 0.1769(3)
O7D O 0.5294(3) 1.0426(2) 0.81623(17)
O7F O 0.5132(2) 1.0426(2) 0.31623(17)
O7J O 0.4706(3) 0.9574(2) 0.18377(17)
O7B O 0.4706(3) 0.5132(2) 0.68377(17)
O7E O 0.5132(2) 0.4706(3) 0.81623(17)
O7H O 0.5294(3) 0.4868(2) 0.31623(17)
O7A O 0.0426(2) 0.5294(3) 0.68377(17)
O7G O 0.9574(2) 1.4706(3) 0.31623(17)
O8D O 0.7258(3) 1.0545(2) 0.81101(19)
O8F O 0.3287(2) 1.0545(2) 0.31101(19)
O8J O 0.2742(3) 0.9455(2) 0.18899(19)
O8B O 0.2742(3) 0.3287(2) 0.68899(19)
O8E O 0.3287(2) 0.2742(3) 0.81101(19)
O8H O 0.7258(3) 0.6713(2) 0.31101(19)
O8A O 0.0545(2) 0.7258(3) 0.68899(19)
O8G O 0.9455(2) 1.2742(3) 0.31101(19)
C3F C 0.4506(4) 1.0000 0.2500
C3B C 0.4506(4) 0.4506(4) 0.7500
C4F C 0.3408(4) 1.0000 0.2500
C4B C 0.3408(4) 0.3408(4) 0.7500
N1 N 0.3618(5) 1.0664(5) 0.6613(4)
H1 H 0.3569 1.0617 0.6019
H2 H 0.4065 1.0425 0.6803
H3 H 0.3887 1.1364 0.6778
C1 C 0.2534(7) 0.9992(6) 0.7000(5)
H4 H 0.2281 0.9228 0.6820
C2 C 0.1898(18) 1.0389(16) 0.6434(17)
H5 H 0.1994 1.0287 0.5812
H6 H 0.2170 1.1158 0.6549
H7 H 0.1128 0.9973 0.6584
N1D N 0.2954(7) 0.9336(5) 0.8387(4)
H1D H 0.2952 0.9383 0.8981
H2D H 0.3640 0.9575 0.8197
H3D H 0.2523 0.8636 0.8222
C1D C 0.2542(9) 1.0008(6) 0.8000(5)
H4D H 0.3053 1.0772 0.8180
C2D C 0.1509(24) 0.9611(16) 0.8566(17)
H5D H 0.1707 0.9713 0.9188
H6D H 0.1012 0.8842 0.8451
H7D H 0.1155 1.0027 0.8416
loop_
_geom_bond_atom_site_label_1
_geom_bond_atom_site_label_2
_geom_bond_site_symmetry_1
_geom_bond_site_symmetry_2
N1 H1 1_555 1_555
H2 N1 1_555 1_555
H3 N1 1_555 1_555
C1 N1 1_555 1_555
H4 C1 1_555 1_555
C2 C1 1_555 1_555
H5 C2 1_555 1_555
H6 C2 1_555 1_555
H7 C2 1_555 1_555
As1 O1 1_555 1_555
As2 O5 1_555 1_555
Fe1 O1 1_555 1_555
O2 As1 1_555 1_555
O3 As1 1_555 1_555
O4 As1 1_555 1_555
H8 O4 1_555 1_555
O5 Fe1 1_555 1_555
O6 As2 1_555 1_555
O7 Fe1 1_555 1_555
O8 Fe1 1_555 1_555
C3 O7 1_555 1_555
C4 O8 1_555 1_555
N1D H1D 1_555 1_555
H2D N1D 1_555 1_555
H3D N1D 1_555 1_555
C1D C1 1_555 1_555
H4D C1D 1_555 1_555
C2D C1D 1_555 1_555
H5D C2D 1_555 1_555
H6D C2D 1_555 1_555
H7D C2D 1_555 1_555
As1F O1F 1_555 1_555
As1B O1B 1_555 1_555
As1H O1H 1_555 1_555
As1H_2 O1H_2 1_555 1_555
As1A O1A 1_555 1_555
As2F O5F 1_555 1_555
Fe1F O2 1_555 1_555
Fe1B O1B 1_555 1_555
Fe1H O1H_2 1_555 1_555
Fe1A O3 1_555 1_555
Fe1G O1G 1_555 1_555
Fe1D O7D 1_555 1_555
Fe1H_2 O1H 1_555 1_555
Fe1B_2 O2H 1_555 1_555
Fe1J O7J 1_555 1_555
Fe1F_2 O3H_2 1_555 1_555
Fe1G_2 O2A 1_555 1_555
Fe1E O7E 1_555 1_555
O1F Fe1F 1_555 1_555
O1A Fe1A 1_555 1_555
O2F Fe1 1_555 1_555
O2B As1B 1_555 1_555
O2H As1H 1_555 1_555
O2H_2 As1H_2 1_555 1_555
O2A As1A 1_555 1_555
O2G Fe1A 1_555 1_555
O2A_2 Fe1G 1_555 1_555
O3F As1F 1_555 1_555
O3B Fe1 1_555 1_555
O3H As1H 1_555 1_555
O3H_2 As1H_2 1_555 1_555
O3A As1A 1_555 1_555
O3G Fe1H 1_555 1_555
O4F As1F 1_555 1_555
O4B As1B 1_555 1_555
O4H As1H 1_555 1_555
O4H_2 As1H_2 1_555 1_555
O4A As1A 1_555 1_555
H8F O4F 1_555 1_555
H8B O4B 1_555 1_555
H8H O4H 1_555 1_555
H8H_2 O4H_2 1_555 1_555
H8A O4A 1_555 1_555
O5A As2 1_555 1_555
O5B As2 1_555 1_555
O5F Fe1F 1_555 1_555
O5G As2F 1_555 1_555
O5H As2F 1_555 1_555
O5H_2 Fe1H 1_555 1_555
O6F As2F 1_555 1_555
O7D C3 1_555 1_555
O7F Fe1F 1_555 1_555
O7J C3F 1_555 1_555
O7B Fe1B 1_555 1_555
O7E C3B 1_555 1_555
O7H Fe1H 1_555 1_555
O7A Fe1A 1_555 1_555
O7G Fe1G 1_555 1_555
O8D C4 1_555 1_555
O8F Fe1F 1_555 1_555
O8J Fe1J 1_555 1_555
O8B Fe1B 1_555 1_555
O8E Fe1E 1_555 1_555
O8H Fe1H 1_555 1_555
O8A Fe1A 1_555 1_555
O8G Fe1G 1_555 1_555
C3F O7F 1_555 1_555
C3B O7B 1_555 1_555
C4F O8F 1_555 1_555
C4B O8B 1_555 1_555
C3 C4 1_555 1_555
N1D C1D 1_555 1_555
As1F O2F 1_555 1_555
As1B O3B 1_555 1_555
Fe1F O3H 1_555 1_555
Fe1B O2H_2 1_555 1_555
Fe1B O3A 1_555 1_555
Fe1B O5B 1_555 1_555
Fe1H O2B 1_555 1_555
Fe1A O5A 1_555 1_555
Fe1G O3F 1_555 1_555
Fe1G O5G 1_555 1_555
Fe1D O8D 1_555 1_555
Fe1H_2 O5H 1_555 1_555
O8J C4F 1_555 1_555
O8E C4B 1_555 1_555
C3F C4F 1_555 1_555
C3B C4B 1_555 1_555

#END
