
#######################################################################
#
#                 Cambridge Crystallographic Data Centre
#                                CCDC 
#
#######################################################################
#
# If this CIF has been generated from an entry in the Cambridge 
# Structural Database, then it will include bibliographic, chemical, 
# crystal, experimental, refinement or atomic coordinate data resulting 
# from the CCDC's data processing and validation procedures.
#
#######################################################################

data_ALULEZ
_chemical_formula_moiety         '(C94 H103 Ce3 N12 O40 S5)n'
_symmetry_cell_setting           cubic
_symmetry_space_group_name_H-M   'I a 3'
_symmetry_Int_Tables_number      206
_space_group_name_Hall           '-I 2b 2c 3'
loop_
_symmetry_equiv_pos_site_id
_symmetry_equiv_pos_as_xyz
1 x,y,z
2 1/2-x,-y,1/2+z
3 -x,1/2+y,1/2-z
4 1/2+x,1/2-y,-z
5 z,x,y
6 1/2+z,1/2-x,-y
7 1/2-z,-x,1/2+y
8 -z,1/2+x,1/2-y
9 y,z,x
10 -y,1/2+z,1/2-x
11 1/2+y,1/2-z,-x
12 1/2-y,-z,1/2+x
13 1/2+x,1/2+y,1/2+z
14 -x,1/2-y,z
15 1/2-x,y,-z
16 x,-y,1/2-z
17 1/2+z,1/2+x,1/2+y
18 z,-x,1/2-y
19 -z,1/2-x,y
20 1/2-z,x,-y
21 1/2+y,1/2+z,1/2+x
22 1/2-y,z,-x
23 y,-z,1/2-x
24 -y,1/2-z,x
25 -x,-y,-z
26 1/2+x,y,1/2-z
27 x,1/2-y,1/2+z
28 1/2-x,1/2+y,z
29 -z,-x,-y
30 1/2-z,1/2+x,y
31 1/2+z,x,1/2-y
32 z,1/2-x,1/2+y
33 -y,-z,-x
34 y,1/2-z,1/2+x
35 1/2-y,1/2+z,x
36 1/2+y,z,1/2-x
37 1/2-x,1/2-y,1/2-z
38 x,1/2+y,-z
39 1/2+x,-y,z
40 -x,y,1/2+z
41 1/2-z,1/2-x,1/2-y
42 -z,x,1/2+y
43 z,1/2+x,-y
44 1/2+z,-x,y
45 1/2-y,1/2-z,1/2-x
46 1/2+y,-z,x
47 -y,z,1/2+x
48 y,1/2+z,-x
_cell_length_a                   39.854(2)
_cell_length_b                   39.854(2)
_cell_length_c                   39.854(2)
_cell_angle_alpha                90
_cell_angle_beta                 90
_cell_angle_gamma                90
_cell_volume                     63301.8
loop_
_atom_site_label
_atom_site_type_symbol
_atom_site_fract_x
_atom_site_fract_y
_atom_site_fract_z
_atom_site_U_iso_or_equiv
_atom_site_thermal_displace_type
C1 C 0.54480(8) 0.55854(7) 0.63019(8) 0.0426 Uani
C2 C 0.53766(7) 0.55494(8) 0.66621(8) 0.0425 Uani
C3 C 0.56400(8) 0.55295(7) 0.68934(8) 0.0417 Uani
H1 H 0.5861 0.5538 0.6819 0.0500 Uiso
C4 C 0.55779(7) 0.54984(7) 0.72136(7) 0.0340 Uani
H2 H 0.5758 0.5488 0.7362 0.0410 Uiso
C5 C 0.52440(8) 0.54802(8) 0.73455(8) 0.0443 Uani
C6 C 0.49802(8) 0.55028(8) 0.71131(8) 0.0439 Uani
H3 H 0.4759 0.5496 0.7188 0.0530 Uiso
C7 C 0.50464(7) 0.55352(7) 0.67726(8) 0.0396 Uani
H4 H 0.4871 0.5547 0.6619 0.0480 Uiso
C8 C 0.50988(8) 0.51159(7) 0.92352(7) 0.0390 Uani
C9 C 0.51512(7) 0.52228(7) 0.88854(7) 0.0360 Uani
C10 C 0.48778(8) 0.52845(7) 0.86796(7) 0.0365 Uani
H5 H 0.4664 0.5276 0.8772 0.0440 Uiso
C11 C 0.49106(8) 0.53572(8) 0.83435(8) 0.0419 Uani
H6 H 0.4726 0.5396 0.8205 0.0500 Uiso
C12 C 0.52347(8) 0.53692(8) 0.82262(8) 0.0451 Uani
C13 C 0.55172(7) 0.53107(7) 0.84128(8) 0.0387 Uani
H7 H 0.5731 0.5326 0.8321 0.0460 Uiso
C14 C 0.54646(7) 0.52253(7) 0.87532(7) 0.0365 Uani
H8 H 0.5647 0.5170 0.8888 0.0440 Uiso
Ce1 Ce 0.5000 0.5000 1.0000 0.0424 Uani
Ce2 Ce 0.558565(4) 0.441435(4) 0.941435(4) 0.0417 Uani
N1 N 0.51104(7) 0.54456(6) 0.76578(7) 0.0451 Uani
N2 N 0.53226(7) 0.54251(6) 0.78967(7) 0.0469 Uani
O1 O 0.48128(5) 0.51494(5) 0.93713(5) 0.0387 Uani
O2 O 0.53433(5) 0.49950(5) 0.93971(5) 0.0406 Uani
O3 O 0.51975(5) 0.56021(5) 0.60937(5) 0.0356 Uani
O4 O 0.57403(5) 0.55676(4) 0.62043(5) 0.0319 Uani
C1F C 0.86981(8) 0.45520(8) 1.05854(7) 0.0426 Uani
C1I C 0.44146(7) 0.13019(8) 0.95520(8) 0.0426 Uani
C1X C 0.45520(8) 0.44146(7) 1.36981(8) 0.0426 Uani
C1DA C 0.13019(8) 0.54480(8) 0.94146(7) 0.0426 Uani
C1GA C 0.55854(7) 0.86981(8) 1.04480(8) 0.0426 Uani
C2F C 0.83379(8) 0.46234(7) 1.05494(8) 0.0425 Uani
C2I C 0.44506(8) 0.16621(8) 0.96234(7) 0.0425 Uani
C2X C 0.46234(7) 0.44506(8) 1.33379(8) 0.0425 Uani
C2DA C 0.16621(8) 0.53766(7) 0.94506(8) 0.0425 Uani
C2GA C 0.55494(8) 0.83379(8) 1.03766(7) 0.0425 Uani
C3F C 0.81066(8) 0.43600(8) 1.05295(7) 0.0417 Uani
C3I C 0.44705(7) 0.18934(8) 0.93600(8) 0.0417 Uani
C3X C 0.43600(8) 0.44705(7) 1.31066(8) 0.0417 Uani
C3DA C 0.18934(8) 0.56400(8) 0.94705(7) 0.0417 Uani
C3GA C 0.55295(7) 0.81066(8) 1.06400(8) 0.0417 Uani
H1F H 0.8181 0.4139 1.0538 0.0500 Uiso
H1I H 0.4462 0.1819 0.9139 0.0500 Uiso
H1X H 0.4139 0.4462 1.3181 0.0500 Uiso
H1DA H 0.1819 0.5861 0.9462 0.0500 Uiso
H1GA H 0.5538 0.8181 1.0861 0.0500 Uiso
C4F C 0.77864(7) 0.44221(7) 1.04984(7) 0.0340 Uani
C4I C 0.45016(7) 0.22136(7) 0.94221(7) 0.0340 Uani
C4X C 0.44221(7) 0.45016(7) 1.27864(7) 0.0340 Uani
C4DA C 0.22136(7) 0.55779(7) 0.95016(7) 0.0340 Uani
C4GA C 0.54984(7) 0.77864(7) 1.05779(7) 0.0340 Uani
H2F H 0.7638 0.4242 1.0488 0.0410 Uiso
H2I H 0.4512 0.2362 0.9242 0.0410 Uiso
H2X H 0.4242 0.4512 1.2638 0.0410 Uiso
H2DA H 0.2362 0.5758 0.9512 0.0410 Uiso
H2GA H 0.5488 0.7638 1.0758 0.0410 Uiso
C5F C 0.76545(8) 0.47560(8) 1.04802(8) 0.0443 Uani
C5I C 0.45198(8) 0.23455(8) 0.97560(8) 0.0443 Uani
C5X C 0.47560(8) 0.45198(8) 1.26545(8) 0.0443 Uani
C5DA C 0.23455(8) 0.52440(8) 0.95198(8) 0.0443 Uani
C5GA C 0.54802(8) 0.76545(8) 1.02440(8) 0.0443 Uani
C6F C 0.78869(8) 0.50198(8) 1.05028(8) 0.0439 Uani
C6I C 0.44972(8) 0.21131(8) 1.00198(8) 0.0439 Uani
C6X C 0.50198(8) 0.44972(8) 1.28869(8) 0.0439 Uani
C6DA C 0.21131(8) 0.49802(8) 0.94972(8) 0.0439 Uani
C6GA C 0.55028(8) 0.78869(8) 0.99802(8) 0.0439 Uani
H3F H 0.7812 0.5241 1.0496 0.0530 Uiso
H3I H 0.4504 0.2188 1.0241 0.0530 Uiso
H3X H 0.5241 0.4504 1.2812 0.0530 Uiso
H3DA H 0.2188 0.4759 0.9504 0.0530 Uiso
H3GA H 0.5496 0.7812 0.9759 0.0530 Uiso
C7F C 0.82274(8) 0.49536(7) 1.05352(7) 0.0396 Uani
C7I C 0.44648(7) 0.17726(8) 0.99536(7) 0.0396 Uani
C7X C 0.49536(7) 0.44648(7) 1.32274(8) 0.0396 Uani
C7DA C 0.17726(8) 0.50464(7) 0.94648(7) 0.0396 Uani
C7GA C 0.55352(7) 0.82274(8) 1.00464(7) 0.0396 Uani
H4F H 0.8381 0.5129 1.0547 0.0480 Uiso
H4I H 0.4453 0.1619 1.0129 0.0480 Uiso
H4X H 0.5129 0.4453 1.3381 0.0480 Uiso
H4DA H 0.1619 0.4871 0.9453 0.0480 Uiso
H4GA H 0.5547 0.8381 0.9871 0.0480 Uiso
C8F C 0.57648(7) 0.49012(8) 1.01159(7) 0.0390 Uani
C8I C 0.48841(7) 0.42352(7) 0.99012(8) 0.0390 Uani
C8X C 0.49012(8) 0.48841(7) 1.07648(7) 0.0390 Uani
C8DA C 0.42352(7) 0.50988(8) 0.98841(7) 0.0390 Uani
C8GA C 0.51159(7) 0.57648(7) 1.00988(8) 0.0390 Uani
C9F C 0.61146(7) 0.48488(7) 1.02228(7) 0.0360 Uani
C9I C 0.47772(7) 0.38854(7) 0.98488(7) 0.0360 Uani
C9X C 0.48488(7) 0.47772(7) 1.11146(7) 0.0360 Uani
C9DA C 0.38854(7) 0.51512(7) 0.97772(7) 0.0360 Uani
C9GA C 0.52228(7) 0.61146(7) 1.01512(7) 0.0360 Uani
C10F C 0.63204(7) 0.51222(8) 1.02845(7) 0.0365 Uani
C10I C 0.47155(7) 0.36796(7) 1.01222(8) 0.0365 Uani
C10X C 0.51222(8) 0.47155(7) 1.13204(7) 0.0365 Uani
C10DA C 0.36796(7) 0.48778(8) 0.97155(7) 0.0365 Uani
C10GA C 0.52845(7) 0.63204(7) 0.98778(8) 0.0365 Uani
H5F H 0.6228 0.5336 1.0276 0.0440 Uiso
H5I H 0.4724 0.3772 1.0336 0.0440 Uiso
H5X H 0.5336 0.4724 1.1228 0.0440 Uiso
H5DA H 0.3772 0.4664 0.9724 0.0440 Uiso
H5GA H 0.5276 0.6228 0.9664 0.0440 Uiso
C11F C 0.66565(8) 0.50894(8) 1.03572(8) 0.0419 Uani
C11I C 0.46428(8) 0.33435(8) 1.00894(8) 0.0419 Uani
C11X C 0.50894(8) 0.46428(8) 1.16565(8) 0.0419 Uani
C11DA C 0.33435(8) 0.49106(8) 0.96428(8) 0.0419 Uani
C11GA C 0.53572(8) 0.66565(8) 0.99106(8) 0.0419 Uani
H6F H 0.6795 0.5274 1.0396 0.0500 Uiso
H6I H 0.4604 0.3205 1.0274 0.0500 Uiso
H6X H 0.5274 0.4604 1.1795 0.0500 Uiso
H6DA H 0.3205 0.4726 0.9604 0.0500 Uiso
H6GA H 0.5396 0.6795 0.9726 0.0500 Uiso
C12F C 0.67738(8) 0.47653(8) 1.03692(8) 0.0451 Uani
C12I C 0.46308(8) 0.32262(8) 0.97653(8) 0.0451 Uani
C12X C 0.47653(8) 0.46308(8) 1.17738(8) 0.0451 Uani
C12DA C 0.32262(8) 0.52347(8) 0.96308(8) 0.0451 Uani
C12GA C 0.53692(8) 0.67738(8) 1.02347(8) 0.0451 Uani
C13F C 0.65872(8) 0.44828(7) 1.03107(7) 0.0387 Uani
C13I C 0.46893(7) 0.34128(8) 0.94828(7) 0.0387 Uani
C13X C 0.44828(7) 0.46893(7) 1.15872(8) 0.0387 Uani
C13DA C 0.34128(8) 0.55172(7) 0.96893(7) 0.0387 Uani
C13GA C 0.53107(7) 0.65872(8) 1.05172(7) 0.0387 Uani
H7F H 0.6679 0.4269 1.0326 0.0460 Uiso
H7I H 0.4674 0.3321 0.9269 0.0460 Uiso
H7X H 0.4269 0.4674 1.1679 0.0460 Uiso
H7DA H 0.3321 0.5731 0.9674 0.0460 Uiso
H7GA H 0.5326 0.6679 1.0731 0.0460 Uiso
C14F C 0.62468(7) 0.45354(7) 1.02253(7) 0.0365 Uani
C14I C 0.47747(7) 0.37532(7) 0.95354(7) 0.0365 Uani
C14X C 0.45354(7) 0.47747(7) 1.12468(7) 0.0365 Uani
C14DA C 0.37532(7) 0.54646(7) 0.97747(7) 0.0365 Uani
C14GA C 0.52253(7) 0.62468(7) 1.04646(7) 0.0365 Uani
H8F H 0.6112 0.4353 1.0170 0.0440 Uiso
H8I H 0.4830 0.3888 0.9353 0.0440 Uiso
H8X H 0.4353 0.4830 1.1112 0.0440 Uiso
H8DA H 0.3888 0.5647 0.9830 0.0440 Uiso
H8GA H 0.5170 0.6112 1.0647 0.0440 Uiso
Ce2X Ce 0.441435(4) 0.558565(4) 1.058565(4) 0.0417 Uani
Ce2O Ce 0.558565(4) 0.558565(4) 0.558565(4) 0.0417 Uani
Ce2N Ce 0.941435(4) 0.441435(4) 1.058565(4) 0.0417 Uani
Ce2M Ce 0.441435(4) 0.058565(4) 0.941435(4) 0.0417 Uani
Ce2MA Ce 0.441435(4) 0.441435(4) 1.441435(4) 0.0417 Uani
Ce2LA Ce 0.058565(4) 0.558565(4) 0.941435(4) 0.0417 Uani
Ce2KA Ce 0.558565(4) 0.941435(4) 1.058565(4) 0.0417 Uani
N1F N 0.73422(7) 0.48896(7) 1.04456(6) 0.0451 Uani
N1I N 0.45544(6) 0.26578(7) 0.98896(7) 0.0451 Uani
N1X N 0.48896(7) 0.45544(6) 1.23422(7) 0.0451 Uani
N1DA N 0.26578(7) 0.51104(7) 0.95544(6) 0.0451 Uani
N1GA N 0.54456(6) 0.73422(7) 1.01104(7) 0.0451 Uani
N2F N 0.71033(7) 0.46774(7) 1.04251(6) 0.0469 Uani
N2I N 0.45749(6) 0.28967(7) 0.96774(7) 0.0469 Uani
N2X N 0.46774(7) 0.45749(6) 1.21033(7) 0.0469 Uani
N2DA N 0.28967(7) 0.53226(7) 0.95749(6) 0.0469 Uani
N2GA N 0.54251(6) 0.71033(7) 1.03226(7) 0.0469 Uani
O1F O 0.56287(5) 0.51872(5) 1.01494(5) 0.0387 Uani
O1I O 0.48506(5) 0.43713(5) 1.01872(5) 0.0387 Uani
O1X O 0.51872(5) 0.48506(5) 1.06287(5) 0.0387 Uani
O1DA O 0.43713(5) 0.48128(5) 0.98506(5) 0.0387 Uani
O1GA O 0.51494(5) 0.56287(5) 0.98128(5) 0.0387 Uani
O2F O 0.56029(5) 0.46567(5) 0.99950(5) 0.0406 Uani
O2I O 0.50050(5) 0.43971(5) 0.96567(5) 0.0406 Uani
O2X O 0.46567(5) 0.50050(5) 1.06029(5) 0.0406 Uani
O2DA O 0.43971(5) 0.53433(5) 1.00050(5) 0.0406 Uani
O2GA O 0.49950(5) 0.56029(5) 1.03433(5) 0.0406 Uani
O3F O 0.89063(5) 0.48025(5) 1.06021(5) 0.0356 Uani
O3I O 0.43979(5) 0.10937(5) 0.98025(5) 0.0356 Uani
O3X O 0.48025(5) 0.43979(5) 1.39063(5) 0.0356 Uani
O3DA O 0.10937(5) 0.51975(5) 0.93979(5) 0.0356 Uani
O3GA O 0.56021(5) 0.89063(5) 1.01975(5) 0.0356 Uani
O3O O 0.51975(5) 0.43979(5) 0.89063(5) 0.0356 Uani
O3Q O 0.60937(5) 0.48025(5) 0.93979(5) 0.0356 Uani
O3V O 0.56021(5) 0.39063(5) 0.98025(5) 0.0356 Uani
O3MA O 0.48025(5) 0.56021(5) 1.10937(5) 0.0356 Uani
O3OA O 0.39063(5) 0.51975(5) 1.06021(5) 0.0356 Uani
O3TA O 0.43979(5) 0.60937(5) 1.01975(5) 0.0356 Uani
O4F O 0.87957(5) 0.42597(5) 1.05676(4) 0.0319 Uani
O4I O 0.44324(4) 0.12043(5) 0.92597(5) 0.0319 Uani
O4X O 0.42597(5) 0.44324(4) 1.37957(5) 0.0319 Uani
O4DA O 0.12043(5) 0.57403(5) 0.94324(4) 0.0319 Uani
O4GA O 0.55676(4) 0.87957(5) 1.07403(5) 0.0319 Uani
O4O O 0.57403(5) 0.44324(4) 0.87957(5) 0.0319 Uani
O4Q O 0.62043(5) 0.42597(5) 0.94324(4) 0.0319 Uani
O4V O 0.55676(4) 0.37957(5) 0.92597(5) 0.0319 Uani
O4MA O 0.42597(5) 0.55676(4) 1.12043(5) 0.0319 Uani
O4OA O 0.37957(5) 0.57403(5) 1.05676(4) 0.0319 Uani
O4TA O 0.44324(4) 0.62043(5) 1.07403(5) 0.0319 Uani
C15 C 0.21743(8) 0.39315(8) 0.93402(8) 0.0453 Uani
H9 H 0.2273 0.3842 0.9541 0.0680 Uiso
H10 H 0.1938 0.3965 0.9374 0.0680 Uiso
H11 H 0.2278 0.4142 0.9287 0.0680 Uiso
C16 C 0.22040(7) 0.38654(7) 0.86270(7) 0.0402 Uani
H12 H 0.2207 0.3709 0.8444 0.0600 Uiso
H13 H 0.2389 0.4018 0.8606 0.0600 Uiso
H14 H 0.1997 0.3989 0.8623 0.0600 Uiso
O5 O 0.26058(6) 0.35843(6) 0.90630(6) 0.0512 Uani
S1 S 0.22365(2) 0.36479(2) 0.90063(2) 0.0463 Uani
C17 C 0.36448(7) 0.41594(8) 0.92317(7) 0.0426 Uani
H15 H 0.3690 0.4044 0.9438 0.0640 Uiso
H16 H 0.3687 0.4395 0.9261 0.0640 Uiso
H17 H 0.3788 0.4073 0.9058 0.0640 Uiso
C18 C 0.30014(8) 0.44077(8) 0.89010(8) 0.0448 Uani
H18 H 0.2798 0.4459 0.9020 0.0670 Uiso
H19 H 0.2947 0.4327 0.8681 0.0670 Uiso
H20 H 0.3136 0.4607 0.8883 0.0670 Uiso
O6 O 0.30928(5) 0.40862(5) 0.94763(5) 0.0479 Uani
S2 S 0.32243(2) 0.409965(19) 0.91186(2) 0.0428 Uani
C19 C 0.16994(8) 0.27997(7) 0.81950(7) 0.0417 Uani
H21 H 0.1733 0.2579 0.8286 0.0630 Uiso
H22 H 0.1860 0.2841 0.8020 0.0630 Uiso
H23 H 0.1477 0.2816 0.8104 0.0630 Uiso
C20 C 0.14916(8) 0.34484(8) 0.84326(8) 0.0478 Uani
H24 H 0.1544 0.3538 0.8216 0.0720 Uiso
H25 H 0.1529 0.3617 0.8601 0.0720 Uiso
H26 H 0.1261 0.3380 0.8437 0.0720 Uiso
O7 O 0.16805(5) 0.29352(5) 0.88499(5) 0.0374 Uani
S3 S 0.17500(2) 0.30983(2) 0.851379(19) 0.0458 Uani
C21 C 0.28992(8) 0.56090(7) 0.78578(8) 0.0468 Uani
H27 H 0.3040 0.5777 0.7958 0.0700 Uiso
H28 H 0.2680 0.5701 0.7820 0.0700 Uiso
H29 H 0.2994 0.5539 0.7648 0.0700 Uiso
C22 C 0.25862(8) 0.49739(8) 0.79542(8) 0.0454 Uani
H30 H 0.2700 0.4839 0.7790 0.0680 Uiso
H31 H 0.2406 0.5094 0.7848 0.0680 Uiso
H32 H 0.2497 0.4832 0.8127 0.0680 Uiso
O8 O 0.26634(5) 0.53783(5) 0.84266(5) 0.0395 Uani
S4 S 0.28688(2) 0.52588(2) 0.81303(2) 0.0486 Uani
C23 C 0.19523(8) 0.60822(8) 0.86351(8) 0.0460 Uani
H33 H 0.1998 0.5980 0.8849 0.0690 Uiso
H34 H 0.1964 0.5915 0.8462 0.0690 Uiso
H35 H 0.1732 0.6179 0.8638 0.0690 Uiso
C24 C 0.25674(7) 0.63811(7) 0.88655(8) 0.0392 Uani
H36 H 0.2726 0.6559 0.8829 0.0590 Uiso
H37 H 0.2680 0.6169 0.8853 0.0590 Uiso
H38 H 0.2467 0.6406 0.9083 0.0590 Uiso
O9 O 0.23807(5) 0.64335(5) 0.81995(5) 0.0458 Uani
S5 S 0.22526(2) 0.63988(2) 0.85555(2) 0.0514 Uani
O10 O 0.21104(11) 0.47056(10) 0.85240(11) 0.0403 Uani
H41 H 0.1916 0.4765 0.8587 0.0480 Uiso
H42 H 0.2208 0.4602 0.8683 0.0480 Uiso
O11 O 0.38160(11) 0.50015(10) 0.88169(11) 0.0407 Uani
H43 H 0.3962 0.4850 0.8959 0.0490 Uiso
H44 H 0.3640 0.4909 0.8636 0.0490 Uiso
O12 O 0.17539(12) 0.43952(11) 0.82060(12) 0.0450 Uani
H45 H 0.1871 0.4297 0.8057 0.0540 Uiso
H46 H 0.1580 0.4480 0.8115 0.0540 Uiso
O13 O 0.12203(12) 0.49834(12) 0.87982(12) 0.0497 Uani
H47 H 0.1241 0.5111 0.8968 0.0590 Uiso
H48 H 0.1141 0.5095 0.8635 0.0590 Uiso
O14 O 0.2500 0.35325(7) 1.0000 0.0370 Uani
H50 H 0.2378 0.3366 0.9945 0.0440 Uiso
H50N H 0.2622 0.3366 1.0055 0.0440 Uiso
O15 O 0.12905(10) 0.41894(10) 0.95424(10) 0.0343 Uani
H51 H 0.1365 0.4132 0.9734 0.0410 Uiso
H52 H 0.1419 0.4119 0.9387 0.0410 Uiso
O16 O 0.15455(12) 0.75722(12) 0.79236(11) 0.0477 Uani
H53 H 0.1634 0.7764 0.7893 0.0580 Uiso
H54 H 0.1699 0.7425 0.7937 0.0580 Uiso
O17 O 0.29628(11) 0.53413(11) 0.89100(12) 0.0477 Uani
H55 H 0.3079 0.5253 0.9066 0.0570 Uiso
H56 H 0.2976 0.5221 0.8734 0.0570 Uiso
O18 O 0.12127(11) 0.74519(12) 0.74937(10) 0.0393 Uani
H57 H 0.1208 0.7241 0.7521 0.0470 Uiso
H58 H 0.1383 0.7474 0.7368 0.0470 Uiso
O19 O 0.23384(11) 0.65804(12) 0.97425(12) 0.0463 Uani
H59 H 0.2318 0.6738 0.9600 0.0700 Uiso
H60 H 0.2302 0.6656 0.9938 0.0700 Uiso
O20 O 0.22387(5) 0.27613(5) 0.72387(5) 0.0407 Uani
loop_
_atom_site_aniso_label
_atom_site_aniso_U_11
_atom_site_aniso_U_22
_atom_site_aniso_U_33
_atom_site_aniso_U_23
_atom_site_aniso_U_13
_atom_site_aniso_U_12
C1 0.0401 0.0402 0.0475 -0.0137 -0.0034 0.0061
C2 0.0305 0.046 0.051 -0.0108 0.0007 -0.0005
C3 0.0488 0.0391 0.0372 0.0024 0.0083 0.0132
C4 0.0324 0.0293 0.0403 -0.005 -0.0129 0.0031
C5 0.0444 0.0463 0.0421 -0.0166 -0.0019 -0.0007
C6 0.0345 0.0485 0.0488 -0.0088 0.0168 -0.0087
C7 0.0342 0.0432 0.0415 -0.0131 -0.0184 0.0125
C8 0.0406 0.0373 0.0391 -0.0106 0.0002 0.0062
C9 0.0371 0.0323 0.0386 -0.0081 -0.0048 0.0009
C10 0.0422 0.0263 0.0411 -0.0086 0.0036 -0.0021
C11 0.0391 0.0457 0.0408 0.0006 -0.0093 -0.0113
C12 0.0505 0.0492 0.0356 0.0027 0.0055 0.0033
C13 0.0388 0.032 0.0454 0.0021 -0.0036 -0.0069
C14 0.0377 0.0373 0.0344 0.0117 0.0015 -0.0041
Ce1 0.04242(11) 0.04242(11) 0.04242(11) 0.00170(11) -0.00170(11) -0.00170(11)
Ce2 0.04166 0.04166 0.04166 -0.0022 0.0022 0.0022
N1 0.0513 0.0384 0.0457 -0.0013 0.021 0.0147
N2 0.0515 0.0406 0.0485 -0.0113 -0.0124 -0.0056
O1 0.039 0.0417 0.0355 -0.0074 -0.0037 0.0159
O2 0.0327 0.0382 0.0508 -0.0023 0.0001 -0.0095
O3 0.0323 0.0338 0.0407 -0.0022 0.0101 0.0189
O4 0.0316 0.0272 0.0369 -0.0066 -0.0106 0.0028
C1F 0.0475 0.0401 0.0402 -0.0061 0.0137 -0.0034
C1I 0.0402 0.0475 0.0401 0.0034 0.0061 0.0137
C1X 0.0401 0.0402 0.0475 -0.0137 -0.0034 0.0061
C1DA 0.0475(18) 0.0401(18) 0.0402(17) -0.0061(14) 0.0137(14) -0.0034(14)
C1GA 0.0402 0.0475 0.0401 0.0034 0.0061 0.0137
C2F 0.051 0.0305 0.046 0.0005 0.0108 0.0007
C2I 0.046 0.051 0.0305 -0.0007 -0.0005 0.0108
C2X 0.0305 0.046 0.051 -0.0108 0.0007 -0.0005
C2DA 0.0510(18) 0.0305(16) 0.0460(18) 0.0005(13) 0.0108(14) 0.0007(13)
C2GA 0.046 0.051 0.0305 -0.0007 -0.0005 0.0108
C3F 0.0372 0.0488 0.0391 -0.0132 -0.0024 0.0083
C3I 0.0391 0.0372 0.0488 -0.0083 0.0132 -0.0024
C3X 0.0488 0.0391 0.0372 0.0024 0.0083 0.0132
C3DA 0.0372(17) 0.0488(19) 0.0391(17) -0.0132(14) -0.0024(13) 0.0083(13)
C3GA 0.0391 0.0372 0.0488 -0.0083 0.0132 -0.0024
C4F 0.0403 0.0324 0.0293 -0.0031 0.005 -0.0129
C4I 0.0293 0.0403 0.0324 0.0129 0.0031 0.005
C4X 0.0324 0.0293 0.0403 -0.005 -0.0129 0.0031
C4DA 0.0403(16) 0.0324(15) 0.0293(14) -0.0031(11) 0.0050(12) -0.0129(12)
C4GA 0.0293 0.0403 0.0324 0.0129 0.0031 0.005
C5F 0.0421 0.0444 0.0463 0.0007 0.0166 -0.0019
C5I 0.0463 0.0421 0.0444 0.0019 -0.0007 0.0166
C5X 0.0444 0.0463 0.0421 -0.0166 -0.0019 -0.0007
C5DA 0.0421(18) 0.0444(18) 0.0463(18) 0.0007(14) 0.0166(14) -0.0019(14)
C5GA 0.0463 0.0421 0.0444 0.0019 -0.0007 0.0166
C6F 0.0488 0.0345 0.0485 0.0087 0.0088 0.0168
C6I 0.0485 0.0488 0.0345 -0.0168 -0.0087 0.0088
C6X 0.0345 0.0485 0.0488 -0.0088 0.0168 -0.0087
C6DA 0.0488(19) 0.0345(16) 0.0485(19) 0.0087(13) 0.0088(14) 0.0168(14)
C6GA 0.0485 0.0488 0.0345 -0.0168 -0.0087 0.0088
C7F 0.0415 0.0342 0.0432 -0.0125 0.0131 -0.0184
C7I 0.0432 0.0415 0.0342 0.0184 0.0125 0.0131
C7X 0.0342 0.0432 0.0415 -0.0131 -0.0184 0.0125
C7DA 0.0415(17) 0.0342(16) 0.0432(17) -0.0125(13) 0.0131(13) -0.0184(13)
C7GA 0.0432 0.0415 0.0342 0.0184 0.0125 0.0131
C8F 0.0391 0.0406 0.0373 -0.0062 0.0106 0.0002
C8I 0.0373 0.0391 0.0406 -0.0002 0.0062 0.0106
C8X 0.0406 0.0373 0.0391 -0.0106 0.0002 0.0062
C8DA 0.0391(17) 0.0406(17) 0.0373(16) -0.0062(13) 0.0106(13) 0.0002(13)
C8GA 0.0373 0.0391 0.0406 -0.0002 0.0062 0.0106
C9F 0.0386 0.0371 0.0323 -0.0009 0.0081 -0.0048
C9I 0.0323 0.0386 0.0371 0.0048 0.0009 0.0081
C9X 0.0371 0.0323 0.0386 -0.0081 -0.0048 0.0009
C9DA 0.0386(16) 0.0371(16) 0.0323(15) -0.0009(12) 0.0081(12) -0.0048(12)
C9GA 0.0323 0.0386 0.0371 0.0048 0.0009 0.0081
C10F 0.0411 0.0422 0.0263 0.0021 0.0086 0.0036
C10I 0.0263 0.0411 0.0422 -0.0036 -0.0021 0.0086
C10X 0.0422 0.0263 0.0411 -0.0086 0.0036 -0.0021
C10DA 0.0411(17) 0.0422(17) 0.0263(15) 0.0021(12) 0.0086(12) 0.0036(13)
C10GA 0.0263 0.0411 0.0422 -0.0036 -0.0021 0.0086
C11F 0.0408 0.0391 0.0457 0.0113 -0.0006 -0.0093
C11I 0.0457 0.0408 0.0391 0.0093 -0.0113 -0.0006
C11X 0.0391 0.0457 0.0408 0.0006 -0.0093 -0.0113
C11DA 0.0408(17) 0.0391(17) 0.0457(18) 0.0113(13) -0.0006(13) -0.0093(13)
C11GA 0.0457 0.0408 0.0391 0.0093 -0.0113 -0.0006
C12F 0.0356 0.0505 0.0492 -0.0033 -0.0027 0.0055
C12I 0.0492 0.0356 0.0505 -0.0055 0.0033 -0.0027
C12X 0.0505 0.0492 0.0356 0.0027 0.0055 0.0033
C12DA 0.0356(17) 0.0505(19) 0.0492(19) -0.0033(15) -0.0027(13) 0.0055(14)
C12GA 0.0492 0.0356 0.0505 -0.0055 0.0033 -0.0027
C13F 0.0454 0.0388 0.032 0.0069 -0.0021 -0.0036
C13I 0.032 0.0454 0.0388 0.0036 -0.0069 -0.0021
C13X 0.0388 0.032 0.0454 0.0021 -0.0036 -0.0069
C13DA 0.0454(18) 0.0388(16) 0.0320(15) 0.0069(12) -0.0021(13) -0.0036(13)
C13GA 0.032 0.0454 0.0388 0.0036 -0.0069 -0.0021
C14F 0.0344 0.0377 0.0373 0.0041 -0.0117 0.0015
C14I 0.0373 0.0344 0.0377 -0.0015 -0.0041 -0.0117
C14X 0.0377 0.0373 0.0344 0.0117 0.0015 -0.0041
C14DA 0.0344(16) 0.0377(16) 0.0373(16) 0.0041(12) -0.0117(12) 0.0015(12)
C14GA 0.0373 0.0344 0.0377 -0.0015 -0.0041 -0.0117
Ce2X 0.04166 0.04166 0.04166 -0.0022 0.0022 0.0022
Ce2O 0.04166 0.04166 0.04166 -0.0022 -0.0022 -0.0022
Ce2N 0.04166 0.04166 0.04166 0.0022 0.0022 -0.0022
Ce2M 0.04166 0.04166 0.04166 0.0022 -0.0022 0.0022
Ce2MA 0.04166 0.04166 0.04166 -0.0022 -0.0022 -0.0022
Ce2LA 0.04166(9) 0.04166(9) 0.04166(9) 0.00220(7) 0.00220(7) -0.00220(7)
Ce2KA 0.04166 0.04166 0.04166 0.0022 -0.0022 0.0022
N1F 0.0457 0.0513 0.0384 -0.0147 0.0013 0.021
N1I 0.0384 0.0457 0.0513 -0.021 0.0147 0.0013
N1X 0.0513 0.0384 0.0457 -0.0013 0.021 0.0147
N1DA 0.0457(16) 0.0513(16) 0.0384(14) -0.0147(12) 0.0013(12) 0.0210(13)
N1GA 0.0384 0.0457 0.0513 -0.021 0.0147 0.0013
N2F 0.0485 0.0515 0.0406 0.0056 0.0113 -0.0124
N2I 0.0406 0.0485 0.0515 0.0124 -0.0056 0.0113
N2X 0.0515 0.0406 0.0485 -0.0113 -0.0124 -0.0056
N2DA 0.0485(16) 0.0515(17) 0.0406(15) 0.0056(12) 0.0113(12) -0.0124(13)
N2GA 0.0406 0.0485 0.0515 0.0124 -0.0056 0.0113
O1F 0.0355 0.039 0.0417 -0.0159 0.0074 -0.0037
O1I 0.0417 0.0355 0.039 0.0037 0.0159 0.0074
O1X 0.039 0.0417 0.0355 -0.0074 -0.0037 0.0159
O1DA 0.0355(11) 0.0390(12) 0.0417(12) -0.0159(9) 0.0074(9) -0.0037(9)
O1GA 0.0417 0.0355 0.039 0.0037 0.0159 0.0074
O2F 0.0508 0.0327 0.0382 0.0095 0.0023 0.0001
O2I 0.0382 0.0508 0.0327 -0.0001 -0.0095 0.0023
O2X 0.0327 0.0382 0.0508 -0.0023 0.0001 -0.0095
O2DA 0.0508(13) 0.0327(11) 0.0382(11) 0.0095(9) 0.0023(9) 0.0001(9)
O2GA 0.0382 0.0508 0.0327 -0.0001 -0.0095 0.0023
O3F 0.0407 0.0323 0.0338 -0.0189 0.0022 0.0101
O3I 0.0338 0.0407 0.0323 -0.0101 0.0189 0.0022
O3X 0.0323 0.0338 0.0407 -0.0022 0.0101 0.0189
O3DA 0.0407(11) 0.0323(11) 0.0338(11) -0.0189(8) 0.0022(8) 0.0101(8)
O3GA 0.0338 0.0407 0.0323 -0.0101 0.0189 0.0022
O3O 0.0323 0.0338 0.0407 -0.0022 -0.0101 -0.0189
O3Q 0.0407 0.0323 0.0338 0.0189 0.0022 -0.0101
O3V 0.0338 0.0407 0.0323 0.0101 -0.0189 0.0022
O3MA 0.0323 0.0338 0.0407 -0.0022 -0.0101 -0.0189
O3OA 0.0407 0.0323 0.0338 0.0189 0.0022 -0.0101
O3TA 0.0338 0.0407 0.0323 0.0101 -0.0189 0.0022
O4F 0.0369 0.0316 0.0272 -0.0028 0.0066 -0.0106
O4I 0.0272 0.0369 0.0316 0.0106 0.0028 0.0066
O4X 0.0316 0.0272 0.0369 -0.0066 -0.0106 0.0028
O4DA 0.0369(11) 0.0316(10) 0.0272(10) -0.0028(8) 0.0066(8) -0.0106(8)
O4GA 0.0272 0.0369 0.0316 0.0106 0.0028 0.0066
O4O 0.0316 0.0272 0.0369 -0.0066 0.0106 -0.0028
O4Q 0.0369 0.0316 0.0272 0.0028 0.0066 0.0106
O4V 0.0272 0.0369 0.0316 -0.0106 -0.0028 0.0066
O4MA 0.0316 0.0272 0.0369 -0.0066 0.0106 -0.0028
O4OA 0.0369 0.0316 0.0272 0.0028 0.0066 0.0106
O4TA 0.0272 0.0369 0.0316 -0.0106 -0.0028 0.0066
C15 0.0490(19) 0.0467(19) 0.0402(18) -0.0050(14) 0.0189(14) -0.0053(15)
C16 0.0390(17) 0.0422(17) 0.0395(17) 0.0036(13) 0.0193(13) -0.0034(13)
O5 0.0549(14) 0.0485(13) 0.0502(14) -0.0053(10) 0.0232(11) -0.0020(10)
S1 0.0522(5) 0.0486(5) 0.0382(4) -0.0067(3) -0.0104(3) -0.0101(4)
C17 0.0411(18) 0.0524(19) 0.0342(16) -0.0042(14) 0.0134(13) -0.0046(14)
C18 0.0442(18) 0.0439(18) 0.0463(19) -0.0005(14) 0.0132(14) 0.0012(14)
O6 0.0427(12) 0.0504(13) 0.0506(13) 0.0088(10) 0.0093(10) -0.0048(10)
S2 0.0482(5) 0.0358(4) 0.0444(4) -0.0010(3) 0.0128(3) -0.0126(3)
C19 0.0454(18) 0.0401(17) 0.0396(17) -0.0054(13) 0.0057(13) -0.0120(14)
C20 0.0472(18) 0.0437(18) 0.0524(19) -0.0241(14) 0.0310(15) -0.0202(14)
O7 0.0333(11) 0.0356(11) 0.0434(12) -0.0155(9) -0.0035(8) 0.0022(8)
S3 0.0442(5) 0.0600(5) 0.0332(4) -0.0041(3) 0.0062(3) 0.0128(4)
C21 0.0497(19) 0.0411(18) 0.0497(19) -0.0212(14) 0.0315(15) -0.0179(14)
C22 0.0502(19) 0.0410(18) 0.0449(18) 0.0076(14) -0.0025(14) -0.0049(14)
O8 0.0344(11) 0.0462(12) 0.0379(11) -0.0071(9) 0.0117(8) -0.0102(9)
S4 0.0439(5) 0.0487(5) 0.0532(5) -0.0067(4) 0.0016(4) -0.0141(4)
C23 0.0444(18) 0.0457(18) 0.0478(19) -0.0094(14) 0.0160(14) -0.0132(14)
C24 0.0361(16) 0.0301(15) 0.0513(18) 0.0154(13) 0.0038(13) 0.0024(12)
O9 0.0371(11) 0.0524(13) 0.0480(13) 0.0087(10) 0.0082(9) -0.0057(10)
S5 0.0394(4) 0.0359(4) 0.0789(6) -0.0082(4) 0.0091(4) 0.0050(3)
O10 0.047(3) 0.029(2) 0.045(3) -0.0120(19) 0.011(2) -0.0168(19)
O11 0.043(3) 0.035(2) 0.044(3) -0.005(2) 0.006(2) -0.0073(19)
O12 0.045(3) 0.042(3) 0.048(3) 0.004(2) 0.010(2) 0.003(2)
O13 0.058(3) 0.046(3) 0.045(3) 0.016(2) 0.000(2) 0.004(2)
O14 0.0410(18) 0.0342(17) 0.0359(17) 0.000 0.0100(13) 0.000
O15 0.039(2) 0.031(2) 0.033(2) -0.0008(17) 0.0125(19) -0.0117(18)
O16 0.057(3) 0.047(3) 0.039(3) 0.002(2) 0.012(2) -0.014(2)
O17 0.042(3) 0.051(3) 0.050(3) 0.028(2) -0.022(2) -0.006(2)
O18 0.036(2) 0.054(3) 0.028(2) 0.006(2) 0.0064(18) 0.006(2)
O19 0.048(3) 0.047(3) 0.044(3) -0.010(2) 0.006(2) 0.008(2)
O20 0.0407(8) 0.0407(8) 0.0407(8) -0.0074(10) 0.0074(10) -0.0074(10)
loop_
_geom_bond_atom_site_label_1
_geom_bond_atom_site_label_2
_geom_bond_site_symmetry_1
_geom_bond_site_symmetry_2
C1 C2 1_555 1_555
C2 C3 1_555 1_555
C3 H1 1_555 1_555
C4 C3 1_555 1_555
H2 C4 1_555 1_555
C5 C4 1_555 1_555
C6 C5 1_555 1_555
H3 C6 1_555 1_555
C7 C2 1_555 1_555
H4 C7 1_555 1_555
C8 C9 1_555 1_555
C9 C10 1_555 1_555
C10 H5 1_555 1_555
C11 C10 1_555 1_555
H6 C11 1_555 1_555
C12 C11 1_555 1_555
C13 C12 1_555 1_555
H7 C13 1_555 1_555
C14 C9 1_555 1_555
H8 C14 1_555 1_555
C15 H9 1_555 1_555
H10 C15 1_555 1_555
H11 C15 1_555 1_555
C16 H12 1_555 1_555
H13 C16 1_555 1_555
H14 C16 1_555 1_555
C17 H15 1_555 1_555
H16 C17 1_555 1_555
H17 C17 1_555 1_555
C18 H18 1_555 1_555
H19 C18 1_555 1_555
H20 C18 1_555 1_555
C19 H21 1_555 1_555
H22 C19 1_555 1_555
H23 C19 1_555 1_555
C20 H24 1_555 1_555
H25 C20 1_555 1_555
H26 C20 1_555 1_555
C21 H27 1_555 1_555
H28 C21 1_555 1_555
H29 C21 1_555 1_555
C22 H30 1_555 1_555
H31 C22 1_555 1_555
H32 C22 1_555 1_555
C23 H33 1_555 1_555
H34 C23 1_555 1_555
H35 C23 1_555 1_555
C24 H36 1_555 1_555
H37 C24 1_555 1_555
H38 C24 1_555 1_555
Ce1 O1 1_555 1_555
Ce2 O2 1_555 1_555
N1 C5 1_555 1_555
N2 C12 1_555 1_555
O1 C8 1_555 1_555
O2 C8 1_555 1_555
O3 C1 1_555 1_555
O4 C1 1_555 1_555
O5 S1 1_555 1_555
O6 S2 1_555 1_555
O7 S3 1_555 1_555
O8 S4 1_555 1_555
O9 S5 1_555 1_555
O10 H41 1_555 1_555
H42 O10 1_555 1_555
O11 H43 1_555 1_555
H44 O11 1_555 1_555
O12 H45 1_555 1_555
H46 O12 1_555 1_555
O13 H47 1_555 1_555
H48 O13 1_555 1_555
O14 H50 1_555 1_555
O15 H51 1_555 1_555
H52 O15 1_555 1_555
O16 H53 1_555 1_555
H54 O16 1_555 1_555
O17 H55 1_555 1_555
H56 O17 1_555 1_555
O18 H57 1_555 1_555
H58 O18 1_555 1_555
O19 H59 1_555 1_555
H60 O19 1_555 1_555
S1 C15 1_555 1_555
S2 C17 1_555 1_555
S3 C19 1_555 1_555
S4 C21 1_555 1_555
S5 C23 1_555 1_555
C1F C2F 1_555 1_555
C1I C2I 1_555 1_555
C1X C2X 1_555 1_555
C1DA C2DA 1_555 1_555
C1GA C2GA 1_555 1_555
C2F C3F 1_555 1_555
C2I C3I 1_555 1_555
C2X C3X 1_555 1_555
C2DA C3DA 1_555 1_555
C2GA C3GA 1_555 1_555
C3F H1F 1_555 1_555
C3I H1I 1_555 1_555
C3X H1X 1_555 1_555
C3DA H1DA 1_555 1_555
C3GA H1GA 1_555 1_555
C4F C3F 1_555 1_555
C4I C3I 1_555 1_555
C4X C3X 1_555 1_555
C4DA C3DA 1_555 1_555
C4GA C3GA 1_555 1_555
H2F C4F 1_555 1_555
H2I C4I 1_555 1_555
H2X C4X 1_555 1_555
H2DA C4DA 1_555 1_555
H2GA C4GA 1_555 1_555
C5F C4F 1_555 1_555
C5I C4I 1_555 1_555
C5X C4X 1_555 1_555
C5DA C4DA 1_555 1_555
C5GA C4GA 1_555 1_555
C6F C5F 1_555 1_555
C6I C5I 1_555 1_555
C6X C5X 1_555 1_555
C6DA C5DA 1_555 1_555
C6GA C5GA 1_555 1_555
H3F C6F 1_555 1_555
H3I C6I 1_555 1_555
H3X C6X 1_555 1_555
H3DA C6DA 1_555 1_555
H3GA C6GA 1_555 1_555
C7F C2F 1_555 1_555
C7I C2I 1_555 1_555
C7X C2X 1_555 1_555
C7DA C2DA 1_555 1_555
C7GA C2GA 1_555 1_555
H4F C7F 1_555 1_555
H4I C7I 1_555 1_555
H4X C7X 1_555 1_555
H4DA C7DA 1_555 1_555
H4GA C7GA 1_555 1_555
C8F C9F 1_555 1_555
C8I C9I 1_555 1_555
C8X C9X 1_555 1_555
C8DA C9DA 1_555 1_555
C8GA C9GA 1_555 1_555
C9F C10F 1_555 1_555
C9I C10I 1_555 1_555
C9X C10X 1_555 1_555
C9DA C10DA 1_555 1_555
C9GA C10GA 1_555 1_555
C10F H5F 1_555 1_555
C10I H5I 1_555 1_555
C10X H5X 1_555 1_555
C10DA H5DA 1_555 1_555
C10GA H5GA 1_555 1_555
C11F C10F 1_555 1_555
C11I C10I 1_555 1_555
C11X C10X 1_555 1_555
C11DA C10DA 1_555 1_555
C11GA C10GA 1_555 1_555
H6F C11F 1_555 1_555
H6I C11I 1_555 1_555
H6X C11X 1_555 1_555
H6DA C11DA 1_555 1_555
H6GA C11GA 1_555 1_555
C12F C11F 1_555 1_555
C12I C11I 1_555 1_555
C12X C11X 1_555 1_555
C12DA C11DA 1_555 1_555
C12GA C11GA 1_555 1_555
C13F C12F 1_555 1_555
C13I C12I 1_555 1_555
C13X C12X 1_555 1_555
C13DA C12DA 1_555 1_555
C13GA C12GA 1_555 1_555
H7F C13F 1_555 1_555
H7I C13I 1_555 1_555
H7X C13X 1_555 1_555
H7DA C13DA 1_555 1_555
H7GA C13GA 1_555 1_555
C14F C9F 1_555 1_555
C14I C9I 1_555 1_555
C14X C9X 1_555 1_555
C14DA C9DA 1_555 1_555
C14GA C9GA 1_555 1_555
H8F C14F 1_555 1_555
H8I C14I 1_555 1_555
H8X C14X 1_555 1_555
H8DA C14DA 1_555 1_555
H8GA C14GA 1_555 1_555
Ce2X O2X 1_555 1_555
Ce2O O3 1_555 1_555
Ce2N O3F 1_555 1_555
Ce2M O3I 1_555 1_555
Ce2MA O3X 1_555 1_555
Ce2LA O3DA 1_555 1_555
Ce2KA O3GA 1_555 1_555
N1F C5F 1_555 1_555
N1I C5I 1_555 1_555
N1X C5X 1_555 1_555
N1DA C5DA 1_555 1_555
N1GA C5GA 1_555 1_555
N2F C12F 1_555 1_555
N2I C12I 1_555 1_555
N2X C12X 1_555 1_555
N2DA C12DA 1_555 1_555
N2GA C12GA 1_555 1_555
O1F Ce1 1_555 1_555
O1I Ce1 1_555 1_555
O1X Ce1 1_555 1_555
O1DA Ce1 1_555 1_555
O1GA Ce1 1_555 1_555
O2F Ce1 1_555 1_555
O2I Ce1 1_555 1_555
O2X Ce1 1_555 1_555
O2DA Ce1 1_555 1_555
O2GA Ce1 1_555 1_555
O3F C1F 1_555 1_555
O3I C1I 1_555 1_555
O3X C1X 1_555 1_555
O3DA C1DA 1_555 1_555
O3GA C1GA 1_555 1_555
O3O Ce2 1_555 1_555
O3Q Ce2 1_555 1_555
O3V Ce2 1_555 1_555
O3MA Ce2X 1_555 1_555
O3OA Ce2X 1_555 1_555
O3TA Ce2X 1_555 1_555
O4F C1F 1_555 1_555
O4I C1I 1_555 1_555
O4X C1X 1_555 1_555
O4DA C1DA 1_555 1_555
O4GA C1GA 1_555 1_555
O4O Ce2 1_555 1_555
O4Q Ce2 1_555 1_555
O4V Ce2 1_555 1_555
O4MA Ce2X 1_555 1_555
O4OA Ce2X 1_555 1_555
O4TA Ce2X 1_555 1_555
H50N O14 1_555 1_555
C6 C7 1_555 1_555
C13 C14 1_555 1_555
C16 S1 1_555 1_555
C18 S2 1_555 1_555
C20 S3 1_555 1_555
C22 S4 1_555 1_555
C24 S5 1_555 1_555
Ce1 O2 1_555 1_555
Ce2 O2F 1_555 1_555
Ce2 O2I 1_555 1_555
N1 N2 1_555 1_555
O4 Ce2O 1_555 1_555
C6F C7F 1_555 1_555
C6I C7I 1_555 1_555
C6X C7X 1_555 1_555
C6DA C7DA 1_555 1_555
C6GA C7GA 1_555 1_555
C8F O1F 1_555 1_555
C8F O2F 1_555 1_555
C8I O1I 1_555 1_555
C8I O2I 1_555 1_555
C8X O1X 1_555 1_555
C8X O2X 1_555 1_555
C8DA O1DA 1_555 1_555
C8DA O2DA 1_555 1_555
C8GA O1GA 1_555 1_555
C8GA O2GA 1_555 1_555
C13F C14F 1_555 1_555
C13I C14I 1_555 1_555
C13X C14X 1_555 1_555
C13DA C14DA 1_555 1_555
C13GA C14GA 1_555 1_555
Ce2X O2DA 1_555 1_555
Ce2X O2GA 1_555 1_555
Ce2N O4F 1_555 1_555
Ce2M O4I 1_555 1_555
Ce2MA O4X 1_555 1_555
Ce2LA O4DA 1_555 1_555
Ce2KA O4GA 1_555 1_555
N1F N2F 1_555 1_555
N1I N2I 1_555 1_555
N1X N2X 1_555 1_555
N1DA N2DA 1_555 1_555
N1GA N2GA 1_555 1_555

#END
