
#######################################################################
#
#                 Cambridge Crystallographic Data Centre
#                                CCDC 
#
#######################################################################
#
# If this CIF has been generated from an entry in the Cambridge 
# Structural Database, then it will include bibliographic, chemical, 
# crystal, experimental, refinement or atomic coordinate data resulting 
# from the CCDC's data processing and validation procedures.
#
#######################################################################

data_MURCOR
_chemical_formula_moiety         '(C24 H38 Cu3 Ho2 O37)n'
_symmetry_cell_setting           hexagonal
_symmetry_space_group_name_H-M   'P 6/m c c'
_symmetry_Int_Tables_number      192
_space_group_name_Hall           '-P 6 2c'
loop_
_symmetry_equiv_pos_site_id
_symmetry_equiv_pos_as_xyz
1 x,y,z
2 -y,x-y,z
3 -x+y,-x,z
4 y,-x+y,z
5 x-y,x,z
6 y,x,1/2-z
7 -x+y,y,1/2-z
8 x,x-y,1/2-z
9 -x,-y,z
10 x-y,-y,1/2-z
11 -x,-x+y,1/2-z
12 -y,-x,1/2-z
13 -x,-y,-z
14 y,-x+y,-z
15 x-y,x,-z
16 -y,x-y,-z
17 -x+y,-x,-z
18 -y,-x,1/2+z
19 x-y,-y,1/2+z
20 -x,-x+y,1/2+z
21 x,y,-z
22 -x+y,y,1/2+z
23 x,x-y,1/2+z
24 y,x,1/2+z
_cell_length_a                   14.3683(9)
_cell_length_b                   14.3683(9)
_cell_length_c                   15.393(2)
_cell_angle_alpha                90
_cell_angle_beta                 90
_cell_angle_gamma                120
_cell_volume                     2752.1
loop_
_atom_site_label
_atom_site_type_symbol
_atom_site_fract_x
_atom_site_fract_y
_atom_site_fract_z
O1 O 0.076(3) 0.825(3) 0.0000
Ho1 Ho 0.3333 0.6667 0.2500
Cu1 Cu 0.0000 0.5000 0.0000
O2 O 0.1948(3) 0.5823(3) 0.1451(2)
O3 O 0.0521(3) 0.4401(3) 0.0880(2)
O4 O 0.2349(2) 0.4697(4) 0.2500
C1 C 0.1307(4) 0.4840(4) 0.1386(3)
C2 C 0.1491(5) 0.4090(5) 0.1943(4)
H1 H 0.0850 0.3633 0.2278
H2 H 0.1652 0.3636 0.1581
O5 O 0.1639(5) 0.6794(5) 0.0000
O2F O 0.3875(4) 0.5823(3) 0.3549(2)
O3F O 0.3880(4) 0.4401(3) 0.4120(2)
C1F C 0.3533(6) 0.4840(4) 0.3614(3)
C2F C 0.2599(7) 0.4090(5) 0.3057(4)
H1F H 0.2783 0.3633 0.2722
H2F H 0.1984 0.3636 0.3419
Cu1A Cu 0.5000 0.5000 0.0000
O2A O 0.4177(3) 0.6125(4) 0.1451(2)
O3A O 0.5599(3) 0.6120(4) 0.0880(2)
O4A O 0.5303(4) 0.7652(4) 0.2500
C1A C 0.5160(4) 0.6467(6) 0.1386(3)
C2A C 0.5910(5) 0.7401(7) 0.1943(4)
H1A H 0.6367 0.7217 0.2278
H2A H 0.6364 0.8016 0.1581
O5A O 0.3206(5) 0.4845(7) 0.0000
O2K O 0.4177(3) 0.8052(3) 0.3549(2)
O3K O 0.5599(3) 0.9479(3) 0.4120(2)
C1K C 0.5160(4) 0.8693(4) 0.3614(3)
C2K C 0.5910(5) 0.8509(5) 0.3057(4)
H1K H 0.6367 0.9150 0.2722
H2K H 0.6364 0.8348 0.3419
Cu1B Cu 0.5000 1.0000 0.0000
O2B O 0.3875(4) 0.8052(3) 0.1451(2)
O3B O 0.3880(4) 0.9479(3) 0.0880(2)
O4B O 0.2348(4) 0.7651(2) 0.2500
C1B C 0.3533(6) 0.8693(4) 0.1386(3)
C2B C 0.2599(7) 0.8509(5) 0.1943(4)
H1B H 0.2783 0.9150 0.2278
H2B H 0.1984 0.8348 0.1581
O5B O 0.5155(7) 0.8361(5) 0.0000
O2G O 0.1948(3) 0.6125(4) 0.3549(2)
O3G O 0.0521(3) 0.6120(4) 0.4120(2)
C1G C 0.1307(4) 0.6467(6) 0.3614(3)
C2G C 0.1491(5) 0.7401(7) 0.3057(4)
H1G H 0.0850 0.7217 0.2722
H2G H 0.1652 0.8016 0.3419
Ho1C Ho 0.6667 0.3334 0.2500
O2C O 0.5823(3) 0.3875(4) 0.1451(2)
O3C O 0.4401(3) 0.3880(4) 0.0880(2)
O4C O 0.4697(4) 0.2348(4) 0.2500
C1C C 0.4840(4) 0.3533(6) 0.1386(3)
C2C C 0.4090(5) 0.2599(7) 0.1943(4)
H1C H 0.3633 0.2783 0.2278
H2C H 0.3636 0.1984 0.1581
O5C O 0.6794(5) 0.5155(7) 0.0000
O2E O 0.5823(3) 0.1948(3) 0.3549(2)
O3E O 0.4401(3) 0.0521(3) 0.4120(2)
C1E C 0.4840(4) 0.1307(4) 0.3614(3)
C2E C 0.4090(5) 0.1491(5) 0.3057(4)
H1E H 0.3633 0.0850 0.2722
H2E H 0.3636 0.1652 0.3419
O2D O 0.6125(4) 0.1948(3) 0.1451(2)
O3D O 0.6120(4) 0.0521(3) 0.0880(2)
O4D O 0.7652(4) 0.2349(2) 0.2500
C1D C 0.6467(6) 0.1307(4) 0.1386(3)
C2D C 0.7401(7) 0.1491(5) 0.1943(4)
H1D H 0.7217 0.0850 0.2278
H2D H 0.8016 0.1652 0.1581
O2J O 0.8052(3) 0.3875(4) 0.3549(2)
O3J O 0.9479(3) 0.3880(4) 0.4120(2)
C1J C 0.8693(4) 0.3533(6) 0.3614(3)
C2J C 0.8509(5) 0.2599(7) 0.3057(4)
H1J H 0.9150 0.2783 0.2722
H2J H 0.8348 0.1984 0.3419
O2T O 0.1948(3) 0.5823(3) -0.1451(2)
O3T O 0.0521(3) 0.4401(3) -0.0880(2)
O4T O 0.2349(2) 0.4697(4) -0.2500
C1T C 0.1307(4) 0.4840(4) -0.1386(3)
C2T C 0.1491(5) 0.4090(5) -0.1943(4)
H1T H 0.0850 0.3633 -0.2278
H2T H 0.1652 0.3636 -0.1581
O2U O 0.3875(4) 0.5823(3) -0.3549(2)
O3U O 0.3880(4) 0.4401(3) -0.4120(2)
C1U C 0.3533(6) 0.4840(4) -0.3614(3)
C2U C 0.2599(7) 0.4090(5) -0.3057(4)
H1U H 0.2783 0.3633 -0.2722
H2U H 0.1984 0.3636 -0.3419
O5L O -0.1639(5) 0.3206(5) 0.0000
O5D O 0.4845(7) 1.1639(5) 0.0000
Ho1T Ho 0.3333 0.6667 -0.2500
Cu1B_2 Cu 0.5000 0.0000 0.0000
Cu1E Cu 0.5000 0.0000 0.5000
Cu1E_2 Cu 0.5000 1.0000 0.5000
Cu1F Cu 0.5000 0.5000 -0.5000
Cu1F_2 Cu 0.5000 0.5000 0.5000
Cu1G Cu 0.0000 0.5000 0.5000
Cu1G_2 Cu 1.0000 0.5000 0.5000
O2H O 0.8052(3) 0.4177(3) 0.1451(2)
O2I O 0.6125(4) 0.4177(3) 0.3549(2)
O3D_2 O 0.6120(4) 1.0521(3) 0.0880(2)
O3L O -0.0521(3) 0.5599(3) -0.0880(2)
O3M O 0.4401(3) 0.3880(4) -0.0880(2)
O3N O 0.6120(4) 1.0521(3) -0.0880(2)
O3O O 0.5599(3) 0.6120(4) -0.0880(2)
O3P O 0.3880(4) 0.9479(3) -0.0880(2)
O3H O -0.0521(3) 0.5599(3) 0.0880(2)
O4H O 0.7651(2) 0.5303(4) 0.2500
loop_
_geom_bond_atom_site_label_1
_geom_bond_atom_site_label_2
_geom_bond_site_symmetry_1
_geom_bond_site_symmetry_2
Ho1 O2 1_555 1_555
Cu1 O3 1_555 1_555
O2 C1 1_555 1_555
O3 C1 1_555 1_555
O4 Ho1 1_555 1_555
C1 C2 1_555 1_555
C2 O4 1_555 1_555
H1 C2 1_555 1_555
H2 C2 1_555 1_555
O5 Cu1 1_555 1_555
O2F Ho1 1_555 1_555
O3F C1F 1_555 1_555
C1F O2F 1_555 1_555
C2F O4 1_555 1_555
H1F C2F 1_555 1_555
H2F C2F 1_555 1_555
Cu1A O3A 1_555 1_555
O2A Ho1 1_555 1_555
O3A C1A 1_555 1_555
O4A Ho1 1_555 1_555
C1A O2A 1_555 1_555
C2A O4A 1_555 1_555
H1A C2A 1_555 1_555
H2A C2A 1_555 1_555
O5A Cu1A 1_555 1_555
O2K Ho1 1_555 1_555
O3K C1K 1_555 1_555
C1K O2K 1_555 1_555
C2K O4A 1_555 1_555
H1K C2K 1_555 1_555
H2K C2K 1_555 1_555
Cu1B O3B 1_555 1_555
O2B Ho1 1_555 1_555
O3B C1B 1_555 1_555
O4B Ho1 1_555 1_555
C1B O2B 1_555 1_555
C2B O4B 1_555 1_555
H1B C2B 1_555 1_555
H2B C2B 1_555 1_555
O5B Cu1B 1_555 1_555
O2G Ho1 1_555 1_555
O3G C1G 1_555 1_555
C1G O2G 1_555 1_555
C2G O4B 1_555 1_555
H1G C2G 1_555 1_555
H2G C2G 1_555 1_555
Ho1C O2C 1_555 1_555
O2C C1C 1_555 1_555
O3C Cu1A 1_555 1_555
O4C Ho1C 1_555 1_555
C1C O3C 1_555 1_555
C2C O4C 1_555 1_555
H1C C2C 1_555 1_555
H2C C2C 1_555 1_555
O5C Cu1A 1_555 1_555
O2E Ho1C 1_555 1_555
O3E C1E 1_555 1_555
C1E O2E 1_555 1_555
C2E O4C 1_555 1_555
H1E C2E 1_555 1_555
H2E C2E 1_555 1_555
O2D Ho1C 1_555 1_555
O3D C1D 1_555 1_555
O4D Ho1C 1_555 1_555
C1D O2D 1_555 1_555
C2D O4D 1_555 1_555
H1D C2D 1_555 1_555
H2D C2D 1_555 1_555
O2J Ho1C 1_555 1_555
O3J C1J 1_555 1_555
C1J O2J 1_555 1_555
C2J O4D 1_555 1_555
H1J C2J 1_555 1_555
H2J C2J 1_555 1_555
O2T C1T 1_555 1_555
O3T Cu1 1_555 1_555
O4T C2T 1_555 1_555
C1T O3T 1_555 1_555
C2T C1T 1_555 1_555
H1T C2T 1_555 1_555
H2T C2T 1_555 1_555
O2U C1U 1_555 1_555
O3U C1U 1_555 1_555
C1U C2U 1_555 1_555
C2U O4T 1_555 1_555
H1U C2U 1_555 1_555
H2U C2U 1_555 1_555
O5L Cu1 1_555 1_555
O5D Cu1B 1_555 1_555
Ho1T O2T 1_555 1_555
Cu1B_2 O3D 1_555 1_555
Cu1E O3E 1_555 1_555
Cu1E_2 O3K 1_555 1_555
Cu1F O3U 1_555 1_555
Cu1F_2 O3F 1_555 1_555
Cu1G O3G 1_555 1_555
Cu1G_2 O3J 1_555 1_555
O2H Ho1C 1_555 1_555
O2I Ho1C 1_555 1_555
O3D_2 Cu1B 1_555 1_555
O3L Cu1 1_555 1_555
O3M Cu1A 1_555 1_555
O3N Cu1B 1_555 1_555
O3O Cu1A 1_555 1_555
O3P Cu1B 1_555 1_555
O3H Cu1 1_555 1_555
O4H Ho1C 1_555 1_555
C1F C2F 1_555 1_555
C1A C2A 1_555 1_555
C1K C2K 1_555 1_555
C1B C2B 1_555 1_555
C1G C2G 1_555 1_555
C1C C2C 1_555 1_555
C1E C2E 1_555 1_555
C1D C2D 1_555 1_555
C1J C2J 1_555 1_555
O4T Ho1T 1_555 1_555
O2U Ho1T 1_555 1_555

#END
