
#######################################################################
#
#                 Cambridge Crystallographic Data Centre
#                                CCDC 
#
#######################################################################
#
# If this CIF has been generated from an entry in the Cambridge 
# Structural Database, then it will include bibliographic, chemical, 
# crystal, experimental, refinement or atomic coordinate data resulting 
# from the CCDC's data processing and validation procedures.
#
#######################################################################

data_CAJHUS
_chemical_formula_moiety         '(C3 H7 Fe1 N1 O6)n'
_symmetry_cell_setting           hexagonal
_symmetry_space_group_name_H-M   'P 63 2 2'
_symmetry_Int_Tables_number      182
_space_group_name_Hall           'P 6c 2c'
loop_
_symmetry_equiv_pos_site_id
_symmetry_equiv_pos_as_xyz
1 x,y,z
2 -y,x-y,z
3 -x+y,-x,z
4 -x,-y,1/2+z
5 y,-x+y,1/2+z
6 x-y,x,1/2+z
7 y,x,-z
8 x-y,-y,-z
9 -x,-x+y,-z
10 -y,-x,1/2-z
11 -x+y,y,1/2-z
12 x,x-y,1/2-z
_cell_length_a                   7.3236(2)
_cell_length_b                   7.3236(2)
_cell_length_c                   8.3180(4)
_cell_angle_alpha                90
_cell_angle_beta                 90
_cell_angle_gamma                120
_cell_volume                     386.366
loop_
_atom_site_label
_atom_site_type_symbol
_atom_site_fract_x
_atom_site_fract_y
_atom_site_fract_z
_atom_site_U_iso_or_equiv
_atom_site_thermal_displace_type
Fe1 Fe 0.3333 0.6667 0.2500 0.0227 Uani
O1 O 0.10827(16) 0.69447(17) 0.10444(12) 0.0346 Uani
C1 C 0.0000 0.5645(3) 0.0000 0.0408 Uani
H1 H 0.0000 0.411(4) 0.0000 0.0760 Uiso
Fe1D Fe -0.3333 0.3334 -0.2500 0.0227 Uani
Fe1E Fe 0.6666 0.3333 -0.2500 0.0227 Uani
Fe1C Fe 0.6667 1.3333 -0.2500 0.0227 Uani
O1H O -0.10827(16) 0.58620(23) -0.10444(12) 0.0346 Uani
O1A O 0.30553(17) 0.41380(23) 0.10444(12) 0.0346 Uani
O1G O 0.41380(23) 0.30553(17) -0.10444(12) 0.0346 Uani
O1B O 0.58620(23) 0.89173(16) 0.10444(12) 0.0346 Uani
O1F O 0.69447(17) 1.10827(16) -0.10444(12) 0.0346 Uani
O1I O 0.30553(17) 0.89173(16) 0.39556(12) 0.0346 Uani
O1J O 0.58620(23) 0.69447(17) 0.39556(12) 0.0346 Uani
O1K O 0.10827(16) 0.41380(23) 0.39556(12) 0.0346 Uani
C1A C 0.4355(3) 0.4355(3) 0.0000 0.0408 Uani
C1B C 0.5645(3) 1.0000 0.0000 0.0408 Uani
H1A H 0.589(4) 0.5890(40) 0.0000 0.0760 Uiso
H1B H 0.4110(40) 1.0000 0.0000 0.0760 Uiso
N1 N 0.0000 1.0000 0.2500 0.0728 Uani
loop_
_atom_site_aniso_label
_atom_site_aniso_U_11
_atom_site_aniso_U_22
_atom_site_aniso_U_33
_atom_site_aniso_U_23
_atom_site_aniso_U_13
_atom_site_aniso_U_12
Fe1 0.0249(3) 0.0249(3) 0.0182(3) 0.000 0.000 0.01244(13)
O1 0.0365(6) 0.0392(7) 0.0302(6) -0.0096(6) -0.0129(6) 0.0206(6)
C1 0.0409(13) 0.0333(9) 0.0508(16) -0.0110(7) -0.0220(13) 0.0204(6)
Fe1D 0.0249 0.0249 0.0182 0 0 0.01244
Fe1E 0.0249 0.0249 0.0182 0 0 0.01244
Fe1C 0.0249 0.0249 0.0182 0 0 0.01244
O1H 0.0365 0.0345 0.0302 -0.0033 -0.0129 0.0159
O1A 0.0392 0.0345 0.0302 -0.0033 0.0096 0.0186
O1G 0.0345 0.0392 0.0302 -0.0096 0.0033 0.0186
O1B 0.0345 0.0365 0.0302 0.0129 0.0033 0.0159
O1F 0.0392 0.0365 0.0302 0.0129 0.0096 0.0206
O1I 0.0392 0.0365 0.0302 -0.0129 -0.0096 0.0206
O1J 0.0345 0.0392 0.0302 0.0096 -0.0033 0.0186
O1K 0.0365 0.0345 0.0302 0.0033 0.0129 0.0159
C1A 0.0333 0.0334 0.0508 -0.011 0.011 0.0129
C1B 0.0334 0.0409 0.0508 0.022 0.011 0.0205
N1 0.0432(14) 0.0432(14) 0.132(5) 0.000 0.000 0.0216(7)
loop_
_geom_bond_atom_site_label_1
_geom_bond_atom_site_label_2
_geom_bond_site_symmetry_1
_geom_bond_site_symmetry_2
Fe1 O1 1_555 1_555
O1 C1 1_555 1_555
C1 H1 1_555 1_555
Fe1D O1H 1_555 1_555
Fe1E O1G 1_555 1_555
Fe1C O1F 1_555 1_555
O1H C1 1_555 1_555
O1A Fe1 1_555 1_555
O1G C1A 1_555 1_555
O1B Fe1 1_555 1_555
O1F C1B 1_555 1_555
O1I Fe1 1_555 1_555
O1J Fe1 1_555 1_555
O1K Fe1 1_555 1_555
C1A O1A 1_555 1_555
C1B O1B 1_555 1_555
H1A C1A 1_555 1_555
H1B C1B 1_555 1_555

#END
