
#######################################################################
#
#                 Cambridge Crystallographic Data Centre
#                                CCDC 
#
#######################################################################
#
# If this CIF has been generated from an entry in the Cambridge 
# Structural Database, then it will include bibliographic, chemical, 
# crystal, experimental, refinement or atomic coordinate data resulting 
# from the CCDC's data processing and validation procedures.
#
#######################################################################

data_KAZXEQ
_chemical_formula_moiety         '(C132 H116 N1 O73 Zn14 3+)n'
_symmetry_cell_setting           cubic
_symmetry_space_group_name_H-M   'F m 3 m'
_symmetry_Int_Tables_number      225
_space_group_name_Hall           '-F 4 2 3'
loop_
_symmetry_equiv_pos_site_id
_symmetry_equiv_pos_as_xyz
1 x,y,z
2 -x,-y,z
3 -x,y,-z
4 x,-y,-z
5 z,x,y
6 z,-x,-y
7 -z,-x,y
8 -z,x,-y
9 y,z,x
10 -y,z,-x
11 y,-z,-x
12 -y,-z,x
13 y,x,-z
14 -y,-x,-z
15 y,-x,z
16 -y,x,z
17 x,z,-y
18 -x,z,y
19 -x,-z,-y
20 x,-z,y
21 z,y,-x
22 z,-y,x
23 -z,y,x
24 -z,-y,-x
25 x,1/2+y,1/2+z
26 -x,1/2-y,1/2+z
27 -x,1/2+y,1/2-z
28 x,1/2-y,1/2-z
29 z,1/2+x,1/2+y
30 z,1/2-x,1/2-y
31 -z,1/2-x,1/2+y
32 -z,1/2+x,1/2-y
33 y,1/2+z,1/2+x
34 -y,1/2+z,1/2-x
35 y,1/2-z,1/2-x
36 -y,1/2-z,1/2+x
37 y,1/2+x,1/2-z
38 -y,1/2-x,1/2-z
39 y,1/2-x,1/2+z
40 -y,1/2+x,1/2+z
41 x,1/2+z,1/2-y
42 -x,1/2+z,1/2+y
43 -x,1/2-z,1/2-y
44 x,1/2-z,1/2+y
45 z,1/2+y,1/2-x
46 z,1/2-y,1/2+x
47 -z,1/2+y,1/2+x
48 -z,1/2-y,1/2-x
49 1/2+x,y,1/2+z
50 1/2-x,-y,1/2+z
51 1/2-x,y,1/2-z
52 1/2+x,-y,1/2-z
53 1/2+z,x,1/2+y
54 1/2+z,-x,1/2-y
55 1/2-z,-x,1/2+y
56 1/2-z,x,1/2-y
57 1/2+y,z,1/2+x
58 1/2-y,z,1/2-x
59 1/2+y,-z,1/2-x
60 1/2-y,-z,1/2+x
61 1/2+y,x,1/2-z
62 1/2-y,-x,1/2-z
63 1/2+y,-x,1/2+z
64 1/2-y,x,1/2+z
65 1/2+x,z,1/2-y
66 1/2-x,z,1/2+y
67 1/2-x,-z,1/2-y
68 1/2+x,-z,1/2+y
69 1/2+z,y,1/2-x
70 1/2+z,-y,1/2+x
71 1/2-z,y,1/2+x
72 1/2-z,-y,1/2-x
73 1/2+x,1/2+y,z
74 1/2-x,1/2-y,z
75 1/2-x,1/2+y,-z
76 1/2+x,1/2-y,-z
77 1/2+z,1/2+x,y
78 1/2+z,1/2-x,-y
79 1/2-z,1/2-x,y
80 1/2-z,1/2+x,-y
81 1/2+y,1/2+z,x
82 1/2-y,1/2+z,-x
83 1/2+y,1/2-z,-x
84 1/2-y,1/2-z,x
85 1/2+y,1/2+x,-z
86 1/2-y,1/2-x,-z
87 1/2+y,1/2-x,z
88 1/2-y,1/2+x,z
89 1/2+x,1/2+z,-y
90 1/2-x,1/2+z,y
91 1/2-x,1/2-z,-y
92 1/2+x,1/2-z,y
93 1/2+z,1/2+y,-x
94 1/2+z,1/2-y,x
95 1/2-z,1/2+y,x
96 1/2-z,1/2-y,-x
97 -x,-y,-z
98 x,y,-z
99 x,-y,z
100 -x,y,z
101 -z,-x,-y
102 -z,x,y
103 z,x,-y
104 z,-x,y
105 -y,-z,-x
106 y,-z,x
107 -y,z,x
108 y,z,-x
109 -y,-x,z
110 y,x,z
111 -y,x,-z
112 y,-x,-z
113 -x,-z,y
114 x,-z,-y
115 x,z,y
116 -x,z,-y
117 -z,-y,x
118 -z,y,-x
119 z,-y,-x
120 z,y,x
121 -x,1/2-y,1/2-z
122 x,1/2+y,1/2-z
123 x,1/2-y,1/2+z
124 -x,1/2+y,1/2+z
125 -z,1/2-x,1/2-y
126 -z,1/2+x,1/2+y
127 z,1/2+x,1/2-y
128 z,1/2-x,1/2+y
129 -y,1/2-z,1/2-x
130 y,1/2-z,1/2+x
131 -y,1/2+z,1/2+x
132 y,1/2+z,1/2-x
133 -y,1/2-x,1/2+z
134 y,1/2+x,1/2+z
135 -y,1/2+x,1/2-z
136 y,1/2-x,1/2-z
137 -x,1/2-z,1/2+y
138 x,1/2-z,1/2-y
139 x,1/2+z,1/2+y
140 -x,1/2+z,1/2-y
141 -z,1/2-y,1/2+x
142 -z,1/2+y,1/2-x
143 z,1/2-y,1/2-x
144 z,1/2+y,1/2+x
145 1/2-x,-y,1/2-z
146 1/2+x,y,1/2-z
147 1/2+x,-y,1/2+z
148 1/2-x,y,1/2+z
149 1/2-z,-x,1/2-y
150 1/2-z,x,1/2+y
151 1/2+z,x,1/2-y
152 1/2+z,-x,1/2+y
153 1/2-y,-z,1/2-x
154 1/2+y,-z,1/2+x
155 1/2-y,z,1/2+x
156 1/2+y,z,1/2-x
157 1/2-y,-x,1/2+z
158 1/2+y,x,1/2+z
159 1/2-y,x,1/2-z
160 1/2+y,-x,1/2-z
161 1/2-x,-z,1/2+y
162 1/2+x,-z,1/2-y
163 1/2+x,z,1/2+y
164 1/2-x,z,1/2-y
165 1/2-z,-y,1/2+x
166 1/2-z,y,1/2-x
167 1/2+z,-y,1/2-x
168 1/2+z,y,1/2+x
169 1/2-x,1/2-y,-z
170 1/2+x,1/2+y,-z
171 1/2+x,1/2-y,z
172 1/2-x,1/2+y,z
173 1/2-z,1/2-x,-y
174 1/2-z,1/2+x,y
175 1/2+z,1/2+x,-y
176 1/2+z,1/2-x,y
177 1/2-y,1/2-z,-x
178 1/2+y,1/2-z,x
179 1/2-y,1/2+z,x
180 1/2+y,1/2+z,-x
181 1/2-y,1/2-x,z
182 1/2+y,1/2+x,z
183 1/2-y,1/2+x,-z
184 1/2+y,1/2-x,-z
185 1/2-x,1/2-z,y
186 1/2+x,1/2-z,-y
187 1/2+x,1/2+z,y
188 1/2-x,1/2+z,-y
189 1/2-z,1/2-y,x
190 1/2-z,1/2+y,-x
191 1/2+z,1/2-y,-x
192 1/2+z,1/2+y,x
_cell_length_a                   38.5910(8)
_cell_length_b                   38.5910(8)
_cell_length_c                   38.5910(8)
_cell_angle_alpha                90
_cell_angle_beta                 90
_cell_angle_gamma                90
_cell_volume                     57472.2
loop_
_atom_site_label
_atom_site_type_symbol
_atom_site_fract_x
_atom_site_fract_y
_atom_site_fract_z
O9 O 0.1767(4) 0.2138(3) 0.2138(3)
N1 N 0.1964(4) 0.1964(4) 0.1964(4)
O9D O 0.2138(3) 0.1767(4) 0.2138(3)
O9H O 0.2138(3) 0.2138(3) 0.1767(4)
Zn1 Zn 0.0000 0.5000 0.30468(5)
Zn2 Zn -0.0000 0.5000 0.22745(5)
Zn3 Zn 0.18065(3) 0.31935(3) 0.18065(3)
Zn4 Zn 0.12689(3) 0.37311(3) 0.12689(3)
C1 C 0.04675(16) 0.45325(16) 0.2662(4)
C2 C 0.07395(14) 0.42605(14) 0.2659(3)
C3 C 0.08647(16) 0.41353(16) 0.2339(2)
H1 H 0.0777 0.4223 0.2133
C4 C 0.11215(15) 0.38785(15) 0.2334(2)
C5 C 0.12497(15) 0.37503(15) 0.2646(3)
H2 H 0.1420 0.3580 0.2642
C6 C 0.11290(16) 0.38710(16) 0.2964(3)
C7 C 0.08680(14) 0.41320(14) 0.2950(3)
H3 H 0.0783 0.4217 0.3159
C8 C 0.12552(19) 0.37448(19) 0.2002(3)
C9 C 0.12715(15) 0.37285(15) 0.3287(2)
C10 C 0.1123(2) 0.34265(16) 0.34265(16)
C11 C 0.0812(3) 0.3266(2) 0.3266(2)
O1 O 0.03641(10) 0.46359(10) 0.2955(2)
O2 O 0.0000 0.5000 0.3557(3)
O3 O 0.03590(11) 0.46410(11) 0.2370(2)
O4 O 0.0000 0.5000 0.1710(7)
O5 O 0.14760(15) 0.35240(15) 0.2010(2)
O6 O 0.1619(3) 0.28289(14) 0.21711(14)
O7 O 0.11330(13) 0.38670(13) 0.1724(2)
O8 O 0.0964(2) 0.4036(2) 0.0964(2)
C1EB C 0.04675(16) 0.2662(4) 0.45325(16)
C2EB C 0.07395(14) 0.2659(3) 0.42605(14)
C3EB C 0.08647(16) 0.2339(2) 0.41353(16)
H1EB H 0.0777 0.2133 0.4223
C4EB C 0.11215(15) 0.2334(2) 0.38785(15)
C5EB C 0.12497(15) 0.2646(3) 0.37503(15)
H2EB H 0.1420 0.2642 0.3580
C6EB C 0.11290(16) 0.2964(3) 0.38710(16)
C7EB C 0.08680(14) 0.2950(3) 0.41320(14)
H3EB H 0.0783 0.3159 0.4217
C8EB C 0.12552(19) 0.2002(3) 0.37448(19)
C9EB C 0.12715(15) 0.3287(2) 0.37285(15)
C10EB C 0.15735(16) 0.34265(16) 0.3877(2)
C11EB C 0.1734(2) 0.3266(2) 0.4188(3)
O1EB O 0.03641(10) 0.2955(2) 0.46359(10)
O3EB O 0.03590(11) 0.2370(2) 0.46410(11)
O5EB O 0.14760(15) 0.2010(2) 0.35240(15)
O7EB O 0.11330(13) 0.1724(2) 0.38670(13)
C1ZB C 0.2338(4) 0.45325(16) 0.45325(16)
C2ZB C 0.2341(3) 0.42605(14) 0.42605(14)
C3ZB C 0.2661(2) 0.41353(16) 0.41353(16)
H1ZB H 0.2867 0.4223 0.4223
C4ZB C 0.2666(2) 0.38785(15) 0.38785(15)
C5ZB C 0.2354(3) 0.37503(15) 0.37503(15)
H2ZB H 0.2358 0.3580 0.3580
C6ZB C 0.2036(3) 0.38710(16) 0.38710(16)
C7ZB C 0.2050(3) 0.41320(14) 0.41320(14)
H3ZB H 0.1841 0.4217 0.4217
C8ZB C 0.2998(3) 0.37448(19) 0.37448(19)
C9ZB C 0.1713(2) 0.37285(15) 0.37285(15)
C10ZB C 0.15735(16) 0.3877(2) 0.34265(16)
C11ZB C 0.1734(2) 0.4188(3) 0.3266(2)
O1ZB O 0.2045(2) 0.46359(10) 0.46359(10)
O3ZB O 0.2630(2) 0.46410(11) 0.46410(11)
O5ZB O 0.2990(2) 0.35240(15) 0.35240(15)
O7ZB O 0.3276(2) 0.38670(13) 0.38670(13)
Zn3A Zn -0.18065(3) 0.68065(3) 0.18065(3)
Zn4A Zn -0.12689(3) 0.62689(3) 0.12689(3)
C1A C -0.04675(16) 0.54675(16) 0.2662(4)
C2A C -0.07395(14) 0.57395(14) 0.2659(3)
C3A C -0.08647(16) 0.58647(16) 0.2339(2)
H1A H -0.0777 0.5777 0.2133
C4A C -0.11215(15) 0.61215(15) 0.2334(2)
C5A C -0.12497(15) 0.62497(15) 0.2646(3)
H2A H -0.1420 0.6420 0.2642
C6A C -0.11290(16) 0.61290(16) 0.2964(3)
C7A C -0.08680(14) 0.58680(14) 0.2950(3)
H3A H -0.0783 0.5783 0.3159
C8A C -0.12552(19) 0.62552(19) 0.2002(3)
C9A C -0.12715(15) 0.62715(15) 0.3287(2)
C10A C -0.1123(2) 0.65735(16) 0.34265(16)
C11A C -0.0812(3) 0.6734(2) 0.3266(2)
O1A O -0.03641(10) 0.53641(10) 0.2955(2)
O3A O -0.03590(11) 0.53590(11) 0.2370(2)
O5A O -0.14760(15) 0.64760(15) 0.2010(2)
O6A O -0.1619(3) 0.71711(14) 0.21711(14)
O7A O -0.11330(13) 0.61330(13) 0.1724(2)
O8A O -0.0964(2) 0.5964(2) 0.0964(2)
C1FB C -0.04675(16) 0.7338(4) 0.45325(16)
C2FB C -0.07395(14) 0.7341(3) 0.42605(14)
C3FB C -0.08647(16) 0.7661(2) 0.41353(16)
H1FB H -0.0777 0.7867 0.4223
C4FB C -0.11215(15) 0.7666(2) 0.38785(15)
C5FB C -0.12497(15) 0.7354(3) 0.37503(15)
H2FB H -0.1420 0.7358 0.3580
C6FB C -0.11290(16) 0.7036(3) 0.38710(16)
C7FB C -0.08680(14) 0.7050(3) 0.41320(14)
H3FB H -0.0783 0.6841 0.4217
C8FB C -0.12552(19) 0.7998(3) 0.37448(19)
C9FB C -0.12715(15) 0.6713(2) 0.37285(15)
C10FB C -0.15735(16) 0.65735(16) 0.3877(2)
C11FB C -0.1734(2) 0.6734(2) 0.4188(3)
O1FB O -0.03641(10) 0.7045(2) 0.46359(10)
O3FB O -0.03590(11) 0.7630(2) 0.46410(11)
O5FB O -0.14760(15) 0.7990(2) 0.35240(15)
O7FB O -0.11330(13) 0.8276(2) 0.38670(13)
C1XB C -0.2338(4) 0.54675(16) 0.45325(16)
C2XB C -0.2341(3) 0.57395(14) 0.42605(14)
C3XB C -0.2661(2) 0.58647(16) 0.41353(16)
H1XB H -0.2867 0.5777 0.4223
C4XB C -0.2666(2) 0.61215(15) 0.38785(15)
C5XB C -0.2354(3) 0.62497(15) 0.37503(15)
H2XB H -0.2358 0.6420 0.3580
C6XB C -0.2036(3) 0.61290(16) 0.38710(16)
C7XB C -0.2050(3) 0.58680(14) 0.41320(14)
H3XB H -0.1841 0.5783 0.4217
C8XB C -0.2998(3) 0.62552(19) 0.37448(19)
C9XB C -0.1713(2) 0.62715(15) 0.37285(15)
C10XB C -0.15735(16) 0.6123(2) 0.34265(16)
C11XB C -0.1734(2) 0.5812(3) 0.3266(2)
O1XB O -0.2045(2) 0.53641(10) 0.46359(10)
O3XB O -0.2630(2) 0.53590(11) 0.46410(11)
O5XB O -0.2990(2) 0.64760(15) 0.35240(15)
O7XB O -0.3276(2) 0.61330(13) 0.38670(13)
Zn1P Zn -0.0000 0.30468(5) 0.5000
Zn2P Zn -0.0000 0.22745(5) 0.5000
C1P C 0.04675(16) 0.2662(4) 0.54675(16)
C2P C 0.07395(14) 0.2659(3) 0.57395(14)
C3P C 0.08647(16) 0.2339(2) 0.58647(16)
H1P H 0.0777 0.2133 0.5777
C4P C 0.11215(15) 0.2334(2) 0.61215(15)
C5P C 0.12497(15) 0.2646(3) 0.62497(15)
H2P H 0.1420 0.2642 0.6420
C6P C 0.11290(16) 0.2964(3) 0.61290(16)
C7P C 0.08680(14) 0.2950(3) 0.58680(14)
H3P H 0.0783 0.3159 0.5783
C8P C 0.12552(19) 0.2002(3) 0.62552(19)
C9P C 0.12715(15) 0.3287(2) 0.62715(15)
C10P C 0.1123(2) 0.34265(16) 0.65735(16)
C11P C 0.0812(3) 0.3266(2) 0.6734(2)
O1P O 0.03641(10) 0.2955(2) 0.53641(10)
O2P O -0.0000 0.3557(3) 0.5000
O3P O 0.03590(11) 0.2370(2) 0.53590(11)
O4P O 0.0000 0.1710(7) 0.5000
O5P O 0.14760(15) 0.2010(2) 0.64760(15)
O7P O 0.11330(13) 0.1724(2) 0.61330(13)
C1GC C 0.04675(16) 0.45325(16) 0.7338(4)
C2GC C 0.07395(14) 0.42605(14) 0.7341(3)
C3GC C 0.08647(16) 0.41353(16) 0.7661(2)
H1GC H 0.0777 0.4223 0.7867
C4GC C 0.11215(15) 0.38785(15) 0.7666(2)
C5GC C 0.12497(15) 0.37503(15) 0.7354(3)
H2GC H 0.1420 0.3580 0.7358
C6GC C 0.11290(16) 0.38710(16) 0.7036(3)
C7GC C 0.08680(14) 0.41320(14) 0.7050(3)
H3GC H 0.0783 0.4217 0.6841
C8GC C 0.12552(19) 0.37448(19) 0.7998(3)
C9GC C 0.12715(15) 0.37285(15) 0.6713(2)
C10GC C 0.15735(16) 0.3877(2) 0.65735(16)
C11GC C 0.1734(2) 0.4188(3) 0.6734(2)
O1GC O 0.03641(10) 0.46359(10) 0.7045(2)
O3GC O 0.03590(11) 0.46410(11) 0.7630(2)
O5GC O 0.14760(15) 0.35240(15) 0.7990(2)
O7GC O 0.11330(13) 0.38670(13) 0.8276(2)
C1RB C 0.2338(4) 0.45325(16) 0.54675(16)
C2RB C 0.2341(3) 0.42605(14) 0.57395(14)
C3RB C 0.2661(2) 0.41353(16) 0.58647(16)
H1RB H 0.2867 0.4223 0.5777
C4RB C 0.2666(2) 0.38785(15) 0.61215(15)
C5RB C 0.2354(3) 0.37503(15) 0.62497(15)
H2RB H 0.2358 0.3580 0.6420
C6RB C 0.2036(3) 0.38710(16) 0.61290(16)
C7RB C 0.2050(3) 0.41320(14) 0.58680(14)
H3RB H 0.1841 0.4217 0.5783
C8RB C 0.2998(3) 0.37448(19) 0.62552(19)
C9RB C 0.1713(2) 0.37285(15) 0.62715(15)
C10RB C 0.15735(16) 0.34265(16) 0.6123(2)
C11RB C 0.1734(2) 0.3266(2) 0.5812(3)
O1RB O 0.2045(2) 0.46359(10) 0.53641(10)
O3RB O 0.2630(2) 0.46410(11) 0.53590(11)
O5RB O 0.2990(2) 0.35240(15) 0.64760(15)
O7RB O 0.3276(2) 0.38670(13) 0.61330(13)
C1Q C -0.04675(16) 0.2662(4) 0.45325(16)
C2Q C -0.07395(14) 0.2659(3) 0.42605(14)
C3Q C -0.08647(16) 0.2339(2) 0.41353(16)
H1Q H -0.0777 0.2133 0.4223
C4Q C -0.11215(15) 0.2334(2) 0.38785(15)
C5Q C -0.12497(15) 0.2646(3) 0.37503(15)
H2Q H -0.1420 0.2642 0.3580
C6Q C -0.11290(16) 0.2964(3) 0.38710(16)
C7Q C -0.08680(14) 0.2950(3) 0.41320(14)
H3Q H -0.0783 0.3159 0.4217
C8Q C -0.12552(19) 0.2002(3) 0.37448(19)
C9Q C -0.12715(15) 0.3287(2) 0.37285(15)
C10Q C -0.1123(2) 0.34265(16) 0.34265(16)
C11Q C -0.0812(3) 0.3266(2) 0.3266(2)
O1Q O -0.03641(10) 0.2955(2) 0.46359(10)
O3Q O -0.03590(11) 0.2370(2) 0.46410(11)
O5Q O -0.14760(15) 0.2010(2) 0.35240(15)
O7Q O -0.11330(13) 0.1724(2) 0.38670(13)
C1HC C -0.04675(16) 0.45325(16) 0.2662(4)
C2HC C -0.07395(14) 0.42605(14) 0.2659(3)
C3HC C -0.08647(16) 0.41353(16) 0.2339(2)
H1HC H -0.0777 0.4223 0.2133
C4HC C -0.11215(15) 0.38785(15) 0.2334(2)
C5HC C -0.12497(15) 0.37503(15) 0.2646(3)
H2HC H -0.1420 0.3580 0.2642
C6HC C -0.11290(16) 0.38710(16) 0.2964(3)
C7HC C -0.08680(14) 0.41320(14) 0.2950(3)
H3HC H -0.0783 0.4217 0.3159
C8HC C -0.12552(19) 0.37448(19) 0.2002(3)
C9HC C -0.12715(15) 0.37285(15) 0.3287(2)
C10HC C -0.15735(16) 0.3877(2) 0.34265(16)
C11HC C -0.1734(2) 0.4188(3) 0.3266(2)
O1HC O -0.03641(10) 0.46359(10) 0.2955(2)
O3HC O -0.03590(11) 0.46410(11) 0.2370(2)
O5HC O -0.14760(15) 0.35240(15) 0.2010(2)
O7HC O -0.11330(13) 0.38670(13) 0.1724(2)
C1PB C -0.2338(4) 0.45325(16) 0.45325(16)
C2PB C -0.2341(3) 0.42605(14) 0.42605(14)
C3PB C -0.2661(2) 0.41353(16) 0.41353(16)
H1PB H -0.2867 0.4223 0.4223
C4PB C -0.2666(2) 0.38785(15) 0.38785(15)
C5PB C -0.2354(3) 0.37503(15) 0.37503(15)
H2PB H -0.2358 0.3580 0.3580
C6PB C -0.2036(3) 0.38710(16) 0.38710(16)
C7PB C -0.2050(3) 0.41320(14) 0.41320(14)
H3PB H -0.1841 0.4217 0.4217
C8PB C -0.2998(3) 0.37448(19) 0.37448(19)
C9PB C -0.1713(2) 0.37285(15) 0.37285(15)
C10PB C -0.15735(16) 0.34265(16) 0.3877(2)
C11PB C -0.1734(2) 0.3266(2) 0.4188(3)
O1PB O -0.2045(2) 0.46359(10) 0.46359(10)
O3PB O -0.2630(2) 0.46410(11) 0.46410(11)
O5PB O -0.2990(2) 0.35240(15) 0.35240(15)
O7PB O -0.3276(2) 0.38670(13) 0.38670(13)
Zn1R Zn 0.0000 0.69532(5) 0.5000
Zn2R Zn -0.0000 0.77255(5) 0.5000
O2R O 0.0000 0.6443(3) 0.5000
O4R O 0.0000 0.8290(7) 0.5000
Zn3D Zn 0.18065(3) 0.18065(3) 0.31935(3)
Zn4D Zn 0.12689(3) 0.12689(3) 0.37311(3)
O6EB O 0.21711(14) 0.21711(14) 0.3381(3)
O8D O 0.0964(2) 0.0964(2) 0.4036(2)
Zn3HA Zn 0.31935(3) 0.31935(3) 0.31935(3)
Zn4HA Zn 0.37311(3) 0.37311(3) 0.37311(3)
O6ZB O 0.28289(14) 0.3381(3) 0.28289(14)
O8HA O 0.4036(2) 0.4036(2) 0.4036(2)
O6CA O 0.21711(14) 0.3381(3) 0.21711(14)
O6EC O 0.21711(14) 0.28289(14) 0.1619(3)
O6BC O -0.21711(14) 0.71711(14) 0.1619(3)
O6EA O -0.21711(14) 0.6619(3) 0.21711(14)
O6D O 0.21711(14) 0.1619(3) 0.28289(14)
O6AA O 0.1619(3) 0.21711(14) 0.28289(14)
O6XA O 0.3381(3) 0.28289(14) 0.28289(14)
O6HA O 0.28289(14) 0.28289(14) 0.3381(3)
Zn1B Zn 0.0000 0.5000 0.69532(5)
Zn1PB Zn -0.19532(5) 0.5000 0.5000
Zn1RB Zn 0.19532(5) 0.5000 0.5000
Zn2B Zn -0.0000 0.5000 0.77255(5)
Zn2PB Zn -0.27255(5) 0.5000 0.5000
Zn2RB Zn 0.27255(5) 0.5000 0.5000
Zn3F Zn -0.18065(3) 0.81935(3) 0.31935(3)
Zn3P Zn 0.18065(3) 0.18065(3) 0.68065(3)
Zn3Q Zn -0.18065(3) 0.18065(3) 0.31935(3)
Zn3T Zn 0.18065(3) 0.31935(3) 0.81935(3)
Zn3V Zn -0.18065(3) 0.31935(3) 0.18065(3)
Zn3GA Zn -0.31935(3) 0.68065(3) 0.31935(3)
Zn3KA Zn -0.31935(3) 0.31935(3) 0.31935(3)
Zn3LA Zn 0.31935(3) 0.31935(3) 0.68065(3)
Zn4F Zn -0.12689(3) 0.87311(3) 0.37311(3)
Zn4P Zn 0.12689(3) 0.12689(3) 0.62689(3)
Zn4Q Zn -0.12689(3) 0.12689(3) 0.37311(3)
Zn4T Zn 0.12689(3) 0.37311(3) 0.87311(3)
Zn4V Zn -0.12689(3) 0.37311(3) 0.12689(3)
Zn4GA Zn -0.37311(3) 0.62689(3) 0.37311(3)
Zn4KA Zn -0.37311(3) 0.37311(3) 0.37311(3)
Zn4LA Zn 0.37311(3) 0.37311(3) 0.62689(3)
O1R O -0.03641(10) 0.7045(2) 0.53641(10)
O1S O 0.03641(10) 0.7045(2) 0.46359(10)
O1DB O -0.03641(10) 0.2955(2) 0.53641(10)
O1GB O 0.03641(10) 0.7045(2) 0.53641(10)
O1IC O 0.03641(10) 0.53641(10) 0.2955(2)
O3R O -0.03590(11) 0.7630(2) 0.53590(11)
O3S O 0.03590(11) 0.7630(2) 0.46410(11)
O3DB O -0.03590(11) 0.2370(2) 0.53590(11)
O3GB O 0.03590(11) 0.7630(2) 0.53590(11)
O3IC O 0.03590(11) 0.53590(11) 0.2370(2)
O5D O 0.2010(2) 0.14760(15) 0.35240(15)
O5AA O 0.14760(15) 0.14760(15) 0.2990(2)
O5CA O 0.2010(2) 0.35240(15) 0.14760(15)
O5EA O -0.2010(2) 0.64760(15) 0.14760(15)
O5HA O 0.35240(15) 0.2990(2) 0.35240(15)
O5XA O 0.35240(15) 0.35240(15) 0.2990(2)
O5BC O -0.14760(15) 0.7010(2) 0.14760(15)
O5EC O 0.14760(15) 0.2990(2) 0.14760(15)
O7D O 0.1724(2) 0.11330(13) 0.38670(13)
O7AA O 0.11330(13) 0.11330(13) 0.3276(2)
O7CA O 0.1724(2) 0.38670(13) 0.11330(13)
O7EA O -0.1724(2) 0.61330(13) 0.11330(13)
O7HA O 0.38670(13) 0.3276(2) 0.38670(13)
O7XA O 0.38670(13) 0.38670(13) 0.3276(2)
O7BC O -0.11330(13) 0.6724(2) 0.11330(13)
O7EC O 0.11330(13) 0.3276(2) 0.11330(13)
loop_
_geom_bond_atom_site_label_1
_geom_bond_atom_site_label_2
_geom_bond_site_symmetry_1
_geom_bond_site_symmetry_2
Zn1 O1 1_555 1_555
Zn2 O3 1_555 1_555
Zn3 O5 1_555 1_555
Zn4 O7 1_555 1_555
C1 C2 1_555 1_555
C2 C3 1_555 1_555
C3 H1 1_555 1_555
C4 C3 1_555 1_555
C5 C4 1_555 1_555
H2 C5 1_555 1_555
C6 C5 1_555 1_555
C7 C2 1_555 1_555
H3 C7 1_555 1_555
C8 C4 1_555 1_555
C9 C6 1_555 1_555
C10 C9 1_555 1_555
C11 C10 1_555 1_555
O1 C1 1_555 1_555
O2 Zn1 1_555 1_555
O3 C1 1_555 1_555
O4 Zn2 1_555 1_555
O5 C8 1_555 1_555
O6 Zn3 1_555 1_555
O7 C8 1_555 1_555
O8 Zn4 1_555 1_555
O9 N1 1_555 1_555
N1 O9D 1_555 1_555
C1EB C2EB 1_555 1_555
C2EB C3EB 1_555 1_555
C3EB H1EB 1_555 1_555
C4EB C3EB 1_555 1_555
C5EB C4EB 1_555 1_555
H2EB C5EB 1_555 1_555
C6EB C5EB 1_555 1_555
C7EB C2EB 1_555 1_555
H3EB C7EB 1_555 1_555
C8EB C4EB 1_555 1_555
C9EB C10 1_555 1_555
C10EB C9EB 1_555 1_555
C11EB C10EB 1_555 1_555
O1EB C1EB 1_555 1_555
O3EB C1EB 1_555 1_555
O5EB C8EB 1_555 1_555
O7EB C8EB 1_555 1_555
C1ZB C2ZB 1_555 1_555
C2ZB C3ZB 1_555 1_555
C3ZB H1ZB 1_555 1_555
C4ZB C3ZB 1_555 1_555
C5ZB C4ZB 1_555 1_555
H2ZB C5ZB 1_555 1_555
C6ZB C5ZB 1_555 1_555
C7ZB C2ZB 1_555 1_555
H3ZB C7ZB 1_555 1_555
C8ZB C4ZB 1_555 1_555
C9ZB C10EB 1_555 1_555
C10ZB C9 1_555 1_555
C11ZB C10ZB 1_555 1_555
O1ZB C1ZB 1_555 1_555
O3ZB C1ZB 1_555 1_555
O5ZB C8ZB 1_555 1_555
O7ZB C8ZB 1_555 1_555
Zn3A O5A 1_555 1_555
Zn4A O7A 1_555 1_555
C1A C2A 1_555 1_555
C2A C3A 1_555 1_555
C3A H1A 1_555 1_555
C4A C3A 1_555 1_555
C5A C4A 1_555 1_555
H2A C5A 1_555 1_555
C6A C5A 1_555 1_555
C7A C2A 1_555 1_555
H3A C7A 1_555 1_555
C8A C4A 1_555 1_555
C9A C6A 1_555 1_555
C10A C9A 1_555 1_555
C11A C10A 1_555 1_555
O1A Zn1 1_555 1_555
O3A Zn2 1_555 1_555
O5A C8A 1_555 1_555
O6A Zn3A 1_555 1_555
O7A C8A 1_555 1_555
O8A Zn4A 1_555 1_555
C1FB C2FB 1_555 1_555
C2FB C3FB 1_555 1_555
C3FB H1FB 1_555 1_555
C4FB C3FB 1_555 1_555
C5FB C4FB 1_555 1_555
H2FB C5FB 1_555 1_555
C6FB C5FB 1_555 1_555
C7FB C2FB 1_555 1_555
H3FB C7FB 1_555 1_555
C8FB C4FB 1_555 1_555
C9FB C10A 1_555 1_555
C10FB C9FB 1_555 1_555
C11FB C10FB 1_555 1_555
O1FB C1FB 1_555 1_555
O3FB C1FB 1_555 1_555
O5FB C8FB 1_555 1_555
O7FB C8FB 1_555 1_555
C1XB C2XB 1_555 1_555
C2XB C3XB 1_555 1_555
C3XB H1XB 1_555 1_555
C4XB C3XB 1_555 1_555
C5XB C4XB 1_555 1_555
H2XB C5XB 1_555 1_555
C6XB C5XB 1_555 1_555
C7XB C2XB 1_555 1_555
H3XB C7XB 1_555 1_555
C8XB C4XB 1_555 1_555
C9XB C10FB 1_555 1_555
C10XB C9A 1_555 1_555
C11XB C10XB 1_555 1_555
O1XB C1XB 1_555 1_555
O3XB C1XB 1_555 1_555
O5XB C8XB 1_555 1_555
O7XB C8XB 1_555 1_555
Zn1P O1EB 1_555 1_555
Zn2P O3EB 1_555 1_555
C1P C2P 1_555 1_555
C2P C3P 1_555 1_555
C3P H1P 1_555 1_555
C4P C3P 1_555 1_555
C5P C4P 1_555 1_555
H2P C5P 1_555 1_555
C6P C5P 1_555 1_555
C7P C2P 1_555 1_555
H3P C7P 1_555 1_555
C8P C4P 1_555 1_555
C9P C6P 1_555 1_555
C10P C9P 1_555 1_555
C11P C10P 1_555 1_555
O1P Zn1P 1_555 1_555
O2P Zn1P 1_555 1_555
O3P Zn2P 1_555 1_555
O4P Zn2P 1_555 1_555
O5P C8P 1_555 1_555
O7P C8P 1_555 1_555
C1GC C2GC 1_555 1_555
C2GC C3GC 1_555 1_555
C3GC H1GC 1_555 1_555
C4GC C3GC 1_555 1_555
C5GC C4GC 1_555 1_555
H2GC C5GC 1_555 1_555
C6GC C5GC 1_555 1_555
C7GC C2GC 1_555 1_555
H3GC C7GC 1_555 1_555
C8GC C4GC 1_555 1_555
C9GC C10P 1_555 1_555
C10GC C9GC 1_555 1_555
C11GC C10GC 1_555 1_555
O1GC C1GC 1_555 1_555
O3GC C1GC 1_555 1_555
O5GC C8GC 1_555 1_555
O7GC C8GC 1_555 1_555
C1RB C2RB 1_555 1_555
C2RB C3RB 1_555 1_555
C3RB H1RB 1_555 1_555
C4RB C3RB 1_555 1_555
C5RB C4RB 1_555 1_555
H2RB C5RB 1_555 1_555
C6RB C5RB 1_555 1_555
C7RB C2RB 1_555 1_555
H3RB C7RB 1_555 1_555
C8RB C4RB 1_555 1_555
C9RB C10GC 1_555 1_555
C10RB C9P 1_555 1_555
C11RB C10RB 1_555 1_555
O1RB C1RB 1_555 1_555
O3RB C1RB 1_555 1_555
O5RB C8RB 1_555 1_555
O7RB C8RB 1_555 1_555
C1Q C2Q 1_555 1_555
C2Q C3Q 1_555 1_555
C3Q H1Q 1_555 1_555
C4Q C3Q 1_555 1_555
C5Q C4Q 1_555 1_555
H2Q C5Q 1_555 1_555
C6Q C5Q 1_555 1_555
C7Q C2Q 1_555 1_555
H3Q C7Q 1_555 1_555
C8Q C4Q 1_555 1_555
C9Q C6Q 1_555 1_555
C10Q C9Q 1_555 1_555
C11Q C10Q 1_555 1_555
O1Q Zn1P 1_555 1_555
O3Q Zn2P 1_555 1_555
O5Q C8Q 1_555 1_555
O7Q C8Q 1_555 1_555
C1HC C2HC 1_555 1_555
C2HC C3HC 1_555 1_555
C3HC H1HC 1_555 1_555
C4HC C3HC 1_555 1_555
C5HC C4HC 1_555 1_555
H2HC C5HC 1_555 1_555
C6HC C5HC 1_555 1_555
C7HC C2HC 1_555 1_555
H3HC C7HC 1_555 1_555
C8HC C4HC 1_555 1_555
C9HC C10Q 1_555 1_555
C10HC C9HC 1_555 1_555
C11HC C10HC 1_555 1_555
O1HC Zn1 1_555 1_555
O3HC Zn2 1_555 1_555
O5HC C8HC 1_555 1_555
O7HC C8HC 1_555 1_555
C1PB C2PB 1_555 1_555
C2PB C3PB 1_555 1_555
C3PB H1PB 1_555 1_555
C4PB C3PB 1_555 1_555
C5PB C4PB 1_555 1_555
H2PB C5PB 1_555 1_555
C6PB C5PB 1_555 1_555
C7PB C2PB 1_555 1_555
H3PB C7PB 1_555 1_555
C8PB C4PB 1_555 1_555
C9PB C10HC 1_555 1_555
C10PB C9Q 1_555 1_555
C11PB C10PB 1_555 1_555
O1PB C1PB 1_555 1_555
O3PB C1PB 1_555 1_555
O5PB C8PB 1_555 1_555
O7PB C8PB 1_555 1_555
Zn1R O1FB 1_555 1_555
Zn2R O3FB 1_555 1_555
O2R Zn1R 1_555 1_555
O4R Zn2R 1_555 1_555
Zn3D O5EB 1_555 1_555
Zn4D O7EB 1_555 1_555
O6EB Zn3D 1_555 1_555
O8D Zn4D 1_555 1_555
Zn3HA O5ZB 1_555 1_555
Zn4HA O7ZB 1_555 1_555
O6ZB Zn3HA 1_555 1_555
O8HA Zn4HA 1_555 1_555
O6CA Zn3 1_555 1_555
O6EC Zn3 1_555 1_555
O6BC Zn3A 1_555 1_555
O6EA Zn3A 1_555 1_555
O6D Zn3D 1_555 1_555
O6AA Zn3D 1_555 1_555
O6XA Zn3HA 1_555 1_555
O6HA Zn3HA 1_555 1_555
Zn1B O1GC 1_555 1_555
Zn1PB O1XB 1_555 1_555
Zn1RB O1ZB 1_555 1_555
Zn2B O3GC 1_555 1_555
Zn2PB O3XB 1_555 1_555
Zn2RB O3ZB 1_555 1_555
Zn3F O5FB 1_555 1_555
Zn3P O5P 1_555 1_555
Zn3Q O5Q 1_555 1_555
Zn3T O5GC 1_555 1_555
Zn3V O5HC 1_555 1_555
Zn3GA O5XB 1_555 1_555
Zn3KA O5PB 1_555 1_555
Zn3LA O5RB 1_555 1_555
Zn4F O7FB 1_555 1_555
Zn4P O7P 1_555 1_555
Zn4Q O7Q 1_555 1_555
Zn4T O7GC 1_555 1_555
Zn4V O7HC 1_555 1_555
Zn4GA O7XB 1_555 1_555
Zn4KA O7PB 1_555 1_555
Zn4LA O7RB 1_555 1_555
O1R Zn1R 1_555 1_555
O1S Zn1R 1_555 1_555
O1DB Zn1P 1_555 1_555
O1GB Zn1R 1_555 1_555
O1IC Zn1 1_555 1_555
O3R Zn2R 1_555 1_555
O3S Zn2R 1_555 1_555
O3DB Zn2P 1_555 1_555
O3GB Zn2R 1_555 1_555
O3IC Zn2 1_555 1_555
O5D Zn3D 1_555 1_555
O5AA Zn3D 1_555 1_555
O5CA Zn3 1_555 1_555
O5EA Zn3A 1_555 1_555
O5HA Zn3HA 1_555 1_555
O5XA Zn3HA 1_555 1_555
O5BC Zn3A 1_555 1_555
O5EC Zn3 1_555 1_555
O7D Zn4D 1_555 1_555
O7AA Zn4D 1_555 1_555
O7CA Zn4 1_555 1_555
O7EA Zn4A 1_555 1_555
O7HA Zn4HA 1_555 1_555
O7XA Zn4HA 1_555 1_555
O7BC Zn4A 1_555 1_555
O7EC Zn4 1_555 1_555
O9H N1 1_555 1_555
C6 C7 1_555 1_555
C6EB C7EB 1_555 1_555
C6EB C9EB 1_555 1_555
C6ZB C7ZB 1_555 1_555
C6ZB C9ZB 1_555 1_555
C9ZB C10ZB 1_555 1_555
C1A O1A 1_555 1_555
C1A O3A 1_555 1_555
C6A C7A 1_555 1_555
C6FB C7FB 1_555 1_555
C6FB C9FB 1_555 1_555
C6XB C7XB 1_555 1_555
C6XB C9XB 1_555 1_555
C9XB C10XB 1_555 1_555
C1P O1P 1_555 1_555
C1P O3P 1_555 1_555
C6P C7P 1_555 1_555
C6GC C7GC 1_555 1_555
C6GC C9GC 1_555 1_555
C6RB C7RB 1_555 1_555
C6RB C9RB 1_555 1_555
C9RB C10RB 1_555 1_555
O1RB Zn1RB 1_555 1_555
O3RB Zn2RB 1_555 1_555
C1Q O1Q 1_555 1_555
C1Q O3Q 1_555 1_555
C6Q C7Q 1_555 1_555
C1HC O1HC 1_555 1_555
C1HC O3HC 1_555 1_555
C6HC C7HC 1_555 1_555
C6HC C9HC 1_555 1_555
C6PB C7PB 1_555 1_555
C6PB C9PB 1_555 1_555
C9PB C10PB 1_555 1_555
O1PB Zn1PB 1_555 1_555
O3PB Zn2PB 1_555 1_555

#END
