
#######################################################################
#
#                 Cambridge Crystallographic Data Centre
#                                CCDC 
#
#######################################################################
#
# If this CIF has been generated from an entry in the Cambridge 
# Structural Database, then it will include bibliographic, chemical, 
# crystal, experimental, refinement or atomic coordinate data resulting 
# from the CCDC's data processing and validation procedures.
#
#######################################################################

data_EGOXII
_chemical_formula_moiety         '(C6 H31 Co1 N6 O18 P6 Zn4)n'
_symmetry_cell_setting           monoclinic
_symmetry_space_group_name_H-M   'P 21/c'
_symmetry_Int_Tables_number      14
_space_group_name_Hall           '-P 2ybc'
loop_
_symmetry_equiv_pos_site_id
_symmetry_equiv_pos_as_xyz
1 x,y,z
2 -x,1/2+y,1/2-z
3 -x,-y,-z
4 x,1/2-y,1/2+z
_cell_length_a                   18.618(4)
_cell_length_b                   8.7601(18)
_cell_length_c                   17.484(4)
_cell_angle_alpha                90
_cell_angle_beta                 93.43(3)
_cell_angle_gamma                90
_cell_volume                     2846.45
loop_
_atom_site_label
_atom_site_type_symbol
_atom_site_fract_x
_atom_site_fract_y
_atom_site_fract_z
Zn1 Zn 0.32058(3) 0.97450(7) 0.09684(3)
Zn2 Zn 0.01556(3) 0.99122(7) 0.11550(4)
Zn3 Zn 0.40725(3) 1.48156(7) 0.26241(4)
Zn4 Zn 0.15988(3) 0.48774(7) 0.08921(4)
P1 P 0.16524(8) 0.84547(16) 0.08224(8)
H1 H 0.165(4) 0.940(10) 0.025(5)
P2 P 0.31070(7) 1.33396(16) 0.13306(8)
H2 H 0.372(4) 1.339(9) 0.100(5)
P3 P -0.04636(8) 0.74020(17) -0.00232(8)
H3 H 0.004(4) 0.653(10) 0.023(5)
P4 P -0.03667(8) 1.01967(17) 0.29259(8)
H4 H -0.016(4) 1.159(9) 0.319(5)
P5 P 0.38641(8) 1.01758(16) -0.06186(8)
H5 H 0.451(4) 0.988(9) -0.032(5)
P6 P 0.45105(8) 0.80003(17) 0.17605(8)
H6 H 0.471(4) 0.780(10) 0.103(5)
O1 O 0.2391(2) 0.8480(4) 0.1239(2)
O2 O 0.2834(2) 1.1723(5) 0.1236(3)
O3 O 0.3392(2) 0.9306(5) -0.0077(2)
O4 O 0.3949(2) 0.9264(5) 0.1758(2)
O5 O 0.1082(2) 0.8961(5) 0.1358(2)
O6 O -0.0522(2) 0.8709(5) 0.0536(2)
O7 O -0.0314(3) 1.0247(6) 0.2081(2)
O8 O -0.0227(2) 0.7962(4) -0.0802(2)
O9 O 0.3230(2) 1.3733(5) 0.2171(2)
O10 O 0.3800(2) 0.9374(5) -0.1394(2)
O11 O 0.5158(2) 0.8355(5) 0.2292(3)
O12 O 0.4187(3) 0.6477(5) 0.1925(3)
O13 O -0.1142(2) 0.6454(5) -0.0098(2)
O14 O 0.1483(2) 0.6926(4) 0.0451(2)
O15 O 0.2611(2) 1.4467(5) 0.0889(2)
O16 O -0.1103(2) 0.9785(5) 0.3176(2)
O17 O 0.0223(2) 0.9123(6) 0.3296(3)
H7 H 0.0036 0.8505 0.3575
O18 O 0.3738(2) 1.1849(5) -0.0647(3)
Zn2B Zn -0.01556(3) 1.00878(7) -0.11550(4)
Zn3C Zn 0.40725(3) 1.01844(7) -0.23759(4)
Zn3A Zn 0.59275(3) 0.98156(7) 0.23759(4)
Zn3_2 Zn 0.40725(3) 0.48156(7) 0.26241(4)
Zn4B Zn -0.15988(3) 0.51226(7) -0.08921(4)
Zn4_2 Zn 0.15988(3) 1.48774(7) 0.08921(4)
Zn4A Zn -0.15988(3) 0.98774(7) 0.41079(4)
O8B O 0.0227(2) 1.2038(4) 0.0802(2)
O10C O 0.3800(2) 1.5626(5) 0.3606(2)
O11A O 0.4842(2) 1.3355(5) 0.2708(3)
O12_2 O 0.4187(3) 1.6477(5) 0.1925(3)
O13B O 0.1142(2) 0.3546(5) 0.0098(2)
O15_2 O 0.2611(2) 0.4467(5) 0.0889(2)
O16A O 0.1103(2) 0.4785(5) 0.1824(2)
Co1 Co 0.26557(4) 1.52811(8) -0.14330(4)
N1 N 0.1775(2) 1.6341(6) -0.1150(3)
H8 H 0.1388 1.5938 -0.1410
H9 H 0.1718 1.6225 -0.0646
N2 N 0.2830(2) 1.7129(5) -0.2035(3)
H10 H 0.3194 1.7668 -0.1806
H11 H 0.2956 1.6864 -0.2506
N3 N 0.2414(3) 1.3385(5) -0.0893(3)
H12 H 0.2815 1.2995 -0.0653
H13 H 0.2099 1.3594 -0.0536
N4 N 0.2140(3) 1.4347(6) -0.2329(3)
H14 H 0.1870 1.5056 -0.2585
H15 H 0.2457 1.3968 -0.2648
N5 N 0.3602(3) 1.4453(5) -0.1689(3)
H16 H 0.3636 1.3462 -0.1557
H17 H 0.3653 1.4529 -0.2197
N6 N 0.3181(2) 1.6063(5) -0.0497(2)
H18 H 0.3174 1.7091 -0.0501
H19 H 0.2960 1.5744 -0.0081
C1 C 0.1836(3) 1.8000(7) -0.1337(4)
H20 H 0.2137 1.8518 -0.0947
H21 H 0.1365 1.8477 -0.1368
C2 C 0.2168(3) 1.8084(7) -0.2098(4)
H22 H 0.1836 1.7699 -0.2501
H23 H 0.2288 1.9132 -0.2217
C3 C 0.2097(3) 1.2254(7) -0.1446(4)
H24 H 0.1787 1.1556 -0.1187
H25 H 0.2475 1.1667 -0.1666
C4 C 0.1669(3) 1.3096(7) -0.2064(4)
H26 H 0.1533 1.2414 -0.2485
H27 H 0.1235 1.3517 -0.1867
C5 C 0.4174(3) 1.5348(7) -0.1261(4)
H28 H 0.4226 1.6342 -0.1495
H29 H 0.4631 1.4817 -0.1262
C6 C 0.3941(3) 1.5517(7) -0.0450(3)
H30 H 0.3976 1.4544 -0.0186
H31 H 0.4248 1.6246 -0.0170
loop_
_geom_bond_atom_site_label_1
_geom_bond_atom_site_label_2
_geom_bond_site_symmetry_1
_geom_bond_site_symmetry_2
Zn1 O1 1_555 1_555
Zn2 O5 1_555 1_555
Zn3 O9 1_555 1_555
Zn4 O14 1_555 1_555
Co1 N1 1_555 1_555
P1 H1 1_555 1_555
P2 H2 1_555 1_555
P3 H3 1_555 1_555
P4 H4 1_555 1_555
P5 H5 1_555 1_555
P6 H6 1_555 1_555
O1 P1 1_555 1_555
O2 Zn1 1_555 1_555
O3 Zn1 1_555 1_555
O4 Zn1 1_555 1_555
O5 P1 1_555 1_555
O6 Zn2 1_555 1_555
O7 Zn2 1_555 1_555
O8 P3 1_555 1_555
O9 P2 1_555 1_555
O10 P5 1_555 1_555
O11 P6 1_555 1_555
O12 P6 1_555 1_555
O13 P3 1_555 1_555
O14 P1 1_555 1_555
O15 P2 1_555 1_555
O16 P4 1_555 1_555
O17 P4 1_555 1_555
H7 O17 1_555 1_555
O18 P5 1_555 1_555
N1 H8 1_555 1_555
H9 N1 1_555 1_555
N2 Co1 1_555 1_555
H10 N2 1_555 1_555
H11 N2 1_555 1_555
N3 Co1 1_555 1_555
H12 N3 1_555 1_555
H13 N3 1_555 1_555
N4 Co1 1_555 1_555
H14 N4 1_555 1_555
H15 N4 1_555 1_555
N5 Co1 1_555 1_555
H16 N5 1_555 1_555
H17 N5 1_555 1_555
N6 Co1 1_555 1_555
H18 N6 1_555 1_555
H19 N6 1_555 1_555
C1 N1 1_555 1_555
H20 C1 1_555 1_555
H21 C1 1_555 1_555
C2 N2 1_555 1_555
H22 C2 1_555 1_555
H23 C2 1_555 1_555
C3 N3 1_555 1_555
H24 C3 1_555 1_555
H25 C3 1_555 1_555
C4 N4 1_555 1_555
H26 C4 1_555 1_555
H27 C4 1_555 1_555
C5 N5 1_555 1_555
H28 C5 1_555 1_555
H29 C5 1_555 1_555
C6 N6 1_555 1_555
H30 C6 1_555 1_555
H31 C6 1_555 1_555
Zn2B O8 1_555 1_555
Zn3C O10 1_555 1_555
Zn3A O11 1_555 1_555
Zn3_2 O12 1_555 1_555
Zn4B O13 1_555 1_555
Zn4_2 O15 1_555 1_555
Zn4A O16 1_555 1_555
O8B Zn2 1_555 1_555
O10C Zn3 1_555 1_555
O11A Zn3 1_555 1_555
O12_2 Zn3 1_555 1_555
O13B Zn4 1_555 1_555
O15_2 Zn4 1_555 1_555
O16A Zn4 1_555 1_555
P2 O2 1_555 1_555
P3 O6 1_555 1_555
P4 O7 1_555 1_555
P5 O3 1_555 1_555
P6 O4 1_555 1_555
C1 C2 1_555 1_555
C3 C4 1_555 1_555
C5 C6 1_555 1_555

#END
