
#######################################################################
#
#                 Cambridge Crystallographic Data Centre
#                                CCDC 
#
#######################################################################
#
# If this CIF has been generated from an entry in the Cambridge 
# Structural Database, then it will include bibliographic, chemical, 
# crystal, experimental, refinement or atomic coordinate data resulting 
# from the CCDC's data processing and validation procedures.
#
#######################################################################

data_FUSWIA
_chemical_formula_moiety         '(C24 H16 Cl2 Cu3 N20)n'
_symmetry_cell_setting           orthorhombic
_symmetry_space_group_name_H-M   'P n n m'
_symmetry_Int_Tables_number      58
_space_group_name_Hall           '-P 2 2n'
loop_
_symmetry_equiv_pos_site_id
_symmetry_equiv_pos_as_xyz
1 x,y,z
2 -x,-y,z
3 1/2-x,1/2+y,1/2-z
4 1/2+x,1/2-y,1/2-z
5 -x,-y,-z
6 x,y,-z
7 1/2+x,1/2-y,1/2+z
8 1/2-x,1/2+y,1/2+z
_cell_length_a                   12.0495(11)
_cell_length_b                   14.8817(13)
_cell_length_c                   15.9221(14)
_cell_angle_alpha                90
_cell_angle_beta                 90
_cell_angle_gamma                90
_cell_volume                     2855.1
loop_
_atom_site_label
_atom_site_type_symbol
_atom_site_fract_x
_atom_site_fract_y
_atom_site_fract_z
Cu1 Cu 0.64862(8) 0.20562(12) 0.5000
Cu2 Cu 0.5000 0.0000 0.5000
Cl1 Cl 0.71738(15) 0.03831(17) 0.5000
N1 N 0.4829(4) 0.0948(3) 0.4121(3)
N2 N 0.5363(3) 0.1722(4) 0.4114(3)
N3 N 0.5063(4) 0.2212(4) 0.3461(3)
N4 N 0.4165(4) 0.0910(3) 0.3440(3)
N5 N 0.2507(4) 0.2489(5) 0.0909(3)
C1 C 0.3732(4) 0.1973(4) 0.2306(3)
C2 C 0.4329(4) 0.1684(4) 0.3068(3)
C7 C 0.3411(13) 0.2921(11) 0.1136(11)
H5 H 0.3680 0.3419 0.0822
C8 C 0.2834(14) 0.1438(12) 0.1945(11)
H6 H 0.2630 0.0873 0.2175
C9 C 0.3994(13) 0.2606(11) 0.1897(11)
H7 H 0.4629 0.2935 0.2074
C10 C 0.2309(16) 0.1783(13) 0.1275(11)
H8 H 0.1713 0.1437 0.1058
Cu1D Cu 0.35138(8) -0.20562(12) 0.5000
Cu1F Cu 0.14862(8) 0.29438(12) 0.0000
Cu1F_2 Cu 0.14862(8) 0.29438(12) 1.0000
Cu1G Cu 0.85138(8) -0.29438(12) 1.0000
Cu1G_2 Cu 0.85138(8) -0.29438(12) 0.0000
Cl1D Cl 0.28262(15) -0.03831(17) 0.5000
N1E N 0.4829(4) 0.0948(3) 0.5879(3)
N1D N 0.5171(4) -0.0948(3) 0.5879(3)
N1A N 0.5171(4) -0.0948(3) 0.4121(3)
N2E N 0.5363(3) 0.1722(4) 0.5886(3)
N2D N 0.4637(3) -0.1722(4) 0.5886(3)
N2A N 0.4637(3) -0.1722(4) 0.4114(3)
N3E N 0.5063(4) 0.2212(4) 0.6539(3)
N3D N 0.4937(4) -0.2212(4) 0.6539(3)
N3A N 0.4937(4) -0.2212(4) 0.3461(3)
N4E N 0.4165(4) 0.0910(3) 0.6560(3)
N4D N 0.5835(4) -0.0910(3) 0.6560(3)
N4A N 0.5835(4) -0.0910(3) 0.3440(3)
N5E N 0.2507(4) 0.2489(5) 0.9091(3)
N5D N 0.7493(4) -0.2489(5) 0.9091(3)
N5A N 0.7493(4) -0.2489(5) 0.0909(3)
N5F N 0.7507(4) 0.2511(5) 0.5909(3)
N5C N 0.7507(4) 0.2511(5) 0.4091(3)
N5B N 0.2493(4) -0.2511(5) 0.4091(3)
N5G N 0.2493(4) -0.2511(5) 0.5909(3)
C1E C 0.3732(4) 0.1973(4) 0.7694(3)
C1D C 0.6268(4) -0.1973(4) 0.7694(3)
C1A C 0.6268(4) -0.1973(4) 0.2306(3)
C2E C 0.4329(4) 0.1684(4) 0.6932(3)
C2D C 0.5671(4) -0.1684(4) 0.6932(3)
C2A C 0.5671(4) -0.1684(4) 0.3068(3)
C7E C 0.3411(13) 0.2921(11) 0.8864(11)
C7D C 0.6589(13) -0.2921(11) 0.8864(11)
C7A C 0.6589(13) -0.2921(11) 0.1136(11)
H5E H 0.3680 0.3419 0.9178
H5D H 0.6320 -0.3419 0.9178
H5A H 0.6320 -0.3419 0.0822
C8E C 0.2834(14) 0.1438(12) 0.8055(11)
C8D C 0.7166(14) -0.1438(12) 0.8055(11)
C8A C 0.7166(14) -0.1438(12) 0.1945(11)
H6E H 0.2630 0.0873 0.7825
H6D H 0.7370 -0.0873 0.7825
H6A H 0.7370 -0.0873 0.2175
C9E C 0.3994(13) 0.2606(11) 0.8103(11)
C9D C 0.6006(13) -0.2606(11) 0.8103(11)
C9A C 0.6006(13) -0.2606(11) 0.1897(11)
H7E H 0.4629 0.2935 0.7926
H7D H 0.5371 -0.2935 0.7926
H7A H 0.5371 -0.2935 0.2074
C10E C 0.2309(16) 0.1783(13) 0.8725(11)
C10D C 0.7691(16) -0.1783(13) 0.8725(11)
C10A C 0.7691(16) -0.1783(13) 0.1275(11)
H8E H 0.1713 0.1437 0.8942
H8D H 0.8287 -0.1437 0.8942
H8A H 0.8287 -0.1437 0.1058
loop_
_geom_bond_atom_site_label_1
_geom_bond_atom_site_label_2
_geom_bond_site_symmetry_1
_geom_bond_site_symmetry_2
Cu1 Cl1 1_555 1_555
Cu2 Cl1 1_555 1_555
N1 Cu2 1_555 1_555
N2 Cu1 1_555 1_555
N3 N2 1_555 1_555
N4 N1 1_555 1_555
N5 C7 1_555 1_555
C1 C2 1_555 1_555
C2 N3 1_555 1_555
C7 H5 1_555 1_555
C8 C1 1_555 1_555
H6 C8 1_555 1_555
C9 C1 1_555 1_555
H7 C9 1_555 1_555
C10 N5 1_555 1_555
H8 C10 1_555 1_555
Cu1D Cl1D 1_555 1_555
Cu1F N5 1_555 1_555
Cu1F_2 N5E 1_555 1_555
Cu1G N5D 1_555 1_555
Cu1G_2 N5A 1_555 1_555
Cl1D Cu2 1_555 1_555
N1E Cu2 1_555 1_555
N1D Cu2 1_555 1_555
N1A Cu2 1_555 1_555
N2E Cu1 1_555 1_555
N2D Cu1D 1_555 1_555
N2A Cu1D 1_555 1_555
N3E N2E 1_555 1_555
N3D N2D 1_555 1_555
N3A N2A 1_555 1_555
N4E N1E 1_555 1_555
N4D N1D 1_555 1_555
N4A N1A 1_555 1_555
N5E C7E 1_555 1_555
N5D C7D 1_555 1_555
N5A C7A 1_555 1_555
N5F Cu1 1_555 1_555
N5C Cu1 1_555 1_555
N5B Cu1D 1_555 1_555
N5G Cu1D 1_555 1_555
C1E C2E 1_555 1_555
C1D C2D 1_555 1_555
C1A C2A 1_555 1_555
C2E N3E 1_555 1_555
C2D N3D 1_555 1_555
C2A N3A 1_555 1_555
C7E H5E 1_555 1_555
C7D H5D 1_555 1_555
C7A H5A 1_555 1_555
C8E C1E 1_555 1_555
C8D C1D 1_555 1_555
C8A C1A 1_555 1_555
H6E C8E 1_555 1_555
H6D C8D 1_555 1_555
H6A C8A 1_555 1_555
C9E C1E 1_555 1_555
C9D C1D 1_555 1_555
C9A C1A 1_555 1_555
H7E C9E 1_555 1_555
H7D C9D 1_555 1_555
H7A C9A 1_555 1_555
C10E N5E 1_555 1_555
C10D N5D 1_555 1_555
C10A N5A 1_555 1_555
H8E C10E 1_555 1_555
H8D C10D 1_555 1_555
H8A C10A 1_555 1_555
N1 N2 1_555 1_555
N4 C2 1_555 1_555
C7 C9 1_555 1_555
C8 C10 1_555 1_555
N1E N2E 1_555 1_555
N1D N2D 1_555 1_555
N1A N2A 1_555 1_555
N4E C2E 1_555 1_555
N4D C2D 1_555 1_555
N4A C2A 1_555 1_555
C7E C9E 1_555 1_555
C7D C9D 1_555 1_555
C7A C9A 1_555 1_555
C8E C10E 1_555 1_555
C8D C10D 1_555 1_555
C8A C10A 1_555 1_555

#END
