
#######################################################################
#
#                 Cambridge Crystallographic Data Centre
#                                CCDC 
#
#######################################################################
#
# If this CIF has been generated from an entry in the Cambridge 
# Structural Database, then it will include bibliographic, chemical, 
# crystal, experimental, refinement or atomic coordinate data resulting 
# from the CCDC's data processing and validation procedures.
#
#######################################################################

data_LODTAB
_chemical_formula_moiety         'C28 H14 Cd7 N8 O15'
_symmetry_cell_setting           orthorhombic
_symmetry_space_group_name_H-M   'C m c m'
_symmetry_Int_Tables_number      63
_space_group_name_Hall           '-C 2c 2'
loop_
_symmetry_equiv_pos_site_id
_symmetry_equiv_pos_as_xyz
1 x,y,z
2 -x,-y,1/2+z
3 x,-y,-z
4 -x,y,1/2-z
5 1/2+x,1/2+y,z
6 1/2-x,1/2-y,1/2+z
7 1/2+x,1/2-y,-z
8 1/2-x,1/2+y,1/2-z
9 -x,-y,-z
10 x,y,1/2-z
11 -x,y,z
12 x,-y,1/2+z
13 1/2-x,1/2-y,-z
14 1/2+x,1/2+y,1/2-z
15 1/2-x,1/2+y,z
16 1/2+x,1/2-y,1/2+z
_cell_length_a                   15.5918(15)
_cell_length_b                   15.3726(14)
_cell_length_c                   18.2802(16)
_cell_angle_alpha                90
_cell_angle_beta                 90
_cell_angle_gamma                90
_cell_volume                     4381.52
loop_
_atom_site_label
_atom_site_type_symbol
_atom_site_fract_x
_atom_site_fract_y
_atom_site_fract_z
O3 O 0.5000 0.648(11) 0.105(7)
Cd1 Cd 0.5000 0.83372(6) 0.17023(5)
N1 N 0.5000 0.8371(6) 0.0610(5)
O1 O 0.4092(4) 0.7413(4) 0.1898(3)
O2 O 0.0905(4) 0.4251(4) 0.3111(3)
C1 C 0.5000 0.9162(15) 0.0209(13)
C2 C 0.5000 0.7630(19) 0.0193(10)
C3 C 0.3832(7) 0.7159(6) 0.2500
H1 H 0.5000 0.9674 0.0480
C4 C 0.5000 0.9243(15) -0.0505(16)
C5 C 0.5000 0.776(3) -0.0593(10)
H2 H 0.5000 0.7078 0.0401
C6 C 0.3152(7) 0.6451(7) 0.2500
C7 C 0.5000 0.847(2) -0.0924(13)
H3 H 0.5000 0.9787 -0.0727
H4 H 0.5000 0.7263 -0.0881
C8 C 0.2823(7) 0.6155(6) 0.3163(5)
C9 C 0.5000 0.854(3) -0.1669(15)
H5 H 0.3024 0.6388 0.3600
C10 C 0.2187(6) 0.5505(6) 0.3173(6)
N2 N 0.5000 0.8068(9) -0.2133(7)
C11 C 0.1868(6) 0.5191(6) 0.2500
N3 N 0.194(2) 0.528(2) 0.3794(18)
C12 C 0.1170(7) 0.4532(7) 0.2500
N1C N 0.5000 0.8371(6) -0.5610(5)
C1C C 0.5000 0.9162(15) -0.5209(13)
C2C C 0.5000 0.7630(19) -0.5193(10)
H1C H 0.5000 0.9674 -0.5480
C4C C 0.5000 0.9243(15) -0.4495(16)
C5C C 0.5000 0.776(3) -0.4407(10)
H2C H 0.5000 0.7078 -0.5401
C7C C 0.5000 0.847(2) -0.4076(13)
H3C H 0.5000 0.9787 -0.4273
H4C H 0.5000 0.7263 -0.4119
C9C C 0.5000 0.854(3) -0.3331(15)
N2C N 0.5000 0.8068(9) -0.2867(7)
O1I O 0.4092(4) 0.7413(4) 0.3102(3)
C8I C 0.2823(7) 0.6155(6) 0.1837(5)
H5I H 0.3024 0.6388 0.1400
C10I C 0.2187(6) 0.5505(6) 0.1827(6)
N3I N 0.194(2) 0.528(2) 0.1206(18)
O2I O 0.0905(4) 0.4251(4) 0.1889(3)
Cd1C Cd 0.5000 0.83372(6) -0.67023(5)
O1J O 0.5908(4) 0.7413(4) 0.1898(3)
O2J O 0.9095(4) 0.4251(4) 0.3111(3)
C3C C 0.6168(7) 0.7159(6) 0.2500
C6C C 0.6848(7) 0.6451(7) 0.2500
C8J C 0.7177(7) 0.6155(6) 0.3163(5)
H5J H 0.6976 0.6388 0.3600
C10J C 0.7813(6) 0.5505(6) 0.3173(6)
C11C C 0.8132(6) 0.5191(6) 0.2500
N3J N 0.806(2) 0.528(2) 0.3794(18)
C12C C 0.8830(7) 0.4532(7) 0.2500
O1C O 0.5908(4) 0.7413(4) 0.3102(3)
C8C C 0.7177(7) 0.6155(6) 0.1837(5)
H5C H 0.6976 0.6388 0.1400
C10C C 0.7813(6) 0.5505(6) 0.1827(6)
N3C N 0.806(2) 0.528(2) 0.1206(18)
O2C O 0.9095(4) 0.4251(4) 0.1889(3)
Cd1C_2 Cd 0.5000 0.83372(6) 0.32977(5)
Cd1D Cd 0.0000 0.33372(6) 0.17023(5)
Cd1D_2 Cd 1.0000 0.33372(6) 0.17023(5)
Cd1G Cd 0.0000 0.33372(6) 0.32977(5)
Cd1G_2 Cd 1.0000 0.33372(6) 0.32977(5)
O1C_2 O 0.5908(4) 0.7413(4) -0.6898(3)
O1I_2 O 0.4092(4) 0.7413(4) -0.6898(3)
O2D O 0.5905(4) 0.9251(4) -0.6889(3)
O2G O 0.4095(4) 0.9251(4) 0.1889(3)
O2M O 0.5905(4) 0.9251(4) 0.1889(3)
O2N O 0.4095(4) 0.9251(4) -0.6889(3)
loop_
_geom_bond_atom_site_label_1
_geom_bond_atom_site_label_2
_geom_bond_site_symmetry_1
_geom_bond_site_symmetry_2
Cd1 N1 1_555 1_555
N1 C1 1_555 1_555
O1 Cd1 1_555 1_555
O2 C12 1_555 1_555
C1 H1 1_555 1_555
C2 N1 1_555 1_555
C3 O1 1_555 1_555
C4 C1 1_555 1_555
C5 C2 1_555 1_555
H2 C2 1_555 1_555
C6 C3 1_555 1_555
C7 C4 1_555 1_555
H3 C4 1_555 1_555
H4 C5 1_555 1_555
C8 C6 1_555 1_555
C9 C7 1_555 1_555
H5 C8 1_555 1_555
C10 C8 1_555 1_555
N2 C9 1_555 1_555
C11 C10 1_555 1_555
N3 C10 1_555 1_555
C12 C11 1_555 1_555
N1C C1C 1_555 1_555
C1C H1C 1_555 1_555
C2C N1C 1_555 1_555
C4C C1C 1_555 1_555
C5C C2C 1_555 1_555
H2C C2C 1_555 1_555
C7C C4C 1_555 1_555
H3C C4C 1_555 1_555
H4C C5C 1_555 1_555
C9C C7C 1_555 1_555
N2C N2 1_555 1_555
O1I C3 1_555 1_555
C8I C6 1_555 1_555
H5I C8I 1_555 1_555
C10I C11 1_555 1_555
N3I C10I 1_555 1_555
O2I C12 1_555 1_555
Cd1C N1C 1_555 1_555
O1J Cd1 1_555 1_555
O2J C12C 1_555 1_555
C3C O1J 1_555 1_555
C6C C3C 1_555 1_555
C8J C6C 1_555 1_555
H5J C8J 1_555 1_555
C10J C8J 1_555 1_555
C11C C10J 1_555 1_555
N3J C10J 1_555 1_555
C12C C11C 1_555 1_555
O1C C3C 1_555 1_555
C8C C6C 1_555 1_555
H5C C8C 1_555 1_555
C10C C11C 1_555 1_555
N3C C10C 1_555 1_555
O2C C12C 1_555 1_555
Cd1C_2 O1I 1_555 1_555
Cd1D O2I 1_555 1_555
Cd1D_2 O2C 1_555 1_555
Cd1G O2 1_555 1_555
Cd1G_2 O2J 1_555 1_555
O1C_2 Cd1C 1_555 1_555
O1I_2 Cd1C 1_555 1_555
O2D Cd1C 1_555 1_555
O2G Cd1 1_555 1_555
O2M Cd1 1_555 1_555
O2N Cd1C 1_555 1_555
C5 C7 1_555 1_555
C5C C7C 1_555 1_555
C9C N2C 1_555 1_555
C8I C10I 1_555 1_555
O1C Cd1C_2 1_555 1_555
C8C C10C 1_555 1_555

#END
