
#######################################################################
#
#                 Cambridge Crystallographic Data Centre
#                                CCDC 
#
#######################################################################
#
# If this CIF has been generated from an entry in the Cambridge 
# Structural Database, then it will include bibliographic, chemical, 
# crystal, experimental, refinement or atomic coordinate data resulting 
# from the CCDC's data processing and validation procedures.
#
#######################################################################

data_OKUSUK
_chemical_formula_moiety         '(C96 H244 Cu1 N2 O8)n'
_symmetry_cell_setting           cubic
_symmetry_space_group_name_H-M   'F 2 3'
_symmetry_Int_Tables_number      196
_space_group_name_Hall           'F 2 2 3'
loop_
_symmetry_equiv_pos_site_id
_symmetry_equiv_pos_as_xyz
1 x,y,z
2 -x,-y,z
3 x,-y,-z
4 -x,y,-z
5 z,x,y
6 -z,-x,y
7 z,-x,-y
8 -z,x,-y
9 y,z,x
10 y,-z,-x
11 -y,z,-x
12 -y,-z,x
13 x,1/2+y,1/2+z
14 -x,1/2-y,1/2+z
15 x,1/2-y,1/2-z
16 -x,1/2+y,1/2-z
17 z,1/2+x,1/2+y
18 -z,1/2-x,1/2+y
19 z,1/2-x,1/2-y
20 -z,1/2+x,1/2-y
21 y,1/2+z,1/2+x
22 y,1/2-z,1/2-x
23 -y,1/2+z,1/2-x
24 -y,1/2-z,1/2+x
25 1/2+x,y,1/2+z
26 1/2-x,-y,1/2+z
27 1/2+x,-y,1/2-z
28 1/2-x,y,1/2-z
29 1/2+z,x,1/2+y
30 1/2-z,-x,1/2+y
31 1/2+z,-x,1/2-y
32 1/2-z,x,1/2-y
33 1/2+y,z,1/2+x
34 1/2+y,-z,1/2-x
35 1/2-y,z,1/2-x
36 1/2-y,-z,1/2+x
37 1/2+x,1/2+y,z
38 1/2-x,1/2-y,z
39 1/2+x,1/2-y,-z
40 1/2-x,1/2+y,-z
41 1/2+z,1/2+x,y
42 1/2-z,1/2-x,y
43 1/2+z,1/2-x,-y
44 1/2-z,1/2+x,-y
45 1/2+y,1/2+z,x
46 1/2+y,1/2-z,-x
47 1/2-y,1/2+z,-x
48 1/2-y,1/2-z,x
_cell_length_a                   46.37100
_cell_length_b                   46.37100
_cell_length_c                   46.37100
_cell_angle_alpha                90
_cell_angle_beta                 90
_cell_angle_gamma                90
_cell_volume                     99710.2
loop_
_atom_site_label
_atom_site_type_symbol
_atom_site_fract_x
_atom_site_fract_y
_atom_site_fract_z
_atom_site_U_iso_or_equiv
_atom_site_thermal_displace_type
O1 O 0.19678 0.49942 0.46046 0.0150 Uiso
O2 O 0.14921 0.49952 0.46023 0.0150 Uiso
O3 O 0.03896 0.50048 0.34997 0.0150 Uiso
O4 O 0.03873 0.50058 0.30241 0.0150 Uiso
N1 N 0.17258 0.50514 0.32658 0.0150 Uiso
C1 C 0.22076 0.53024 0.26599 0.0150 Uiso
C2 C 0.19916 0.52996 0.28697 0.0150 Uiso
C3 C 0.20155 0.50217 0.40069 0.0500 Uiso
C4 C 0.20254 0.50347 0.37047 0.0150 Uiso
C5 C 0.17651 0.50340 0.35545 0.0150 Uiso
C6 C 0.15044 0.50223 0.36975 0.0150 Uiso
C7 C 0.14873 0.50087 0.39972 0.0150 Uiso
C8 C 0.17480 0.50092 0.41560 0.0150 Uiso
C9 C 0.17308 0.49931 0.44675 0.0150 Uiso
C10 C 0.05244 0.50070 0.32611 0.0150 Uiso
C11 C 0.08350 0.50276 0.32439 0.0500 Uiso
C12 C 0.09938 0.50204 0.35045 0.0500 Uiso
C13 C 0.12938 0.50309 0.34874 0.0500 Uiso
C14 C 0.14366 0.50498 0.32270 0.0500 Uiso
C15 C 0.12862 0.50575 0.29669 0.0500 Uiso
C16 C 0.09839 0.50468 0.29767 0.0500 Uiso
C17 C 0.19496 0.50546 0.30412 0.0150 Uiso
C18 C 0.21240 0.48195 0.30006 0.0150 Uiso
C19 C 0.23375 0.48203 0.27881 0.0150 Uiso
C20 C 0.23817 0.50582 0.26165 0.0150 Uiso
H1 H 0.22366 0.54937 0.25290 0.0180 Uiso
H2 H 0.18579 0.54886 0.29004 0.0180 Uiso
H3 H 0.22173 0.50230 0.41245 0.0600 Uiso
H4 H 0.22300 0.50469 0.35933 0.0180 Uiso
H5 H 0.12794 0.50009 0.41033 0.0180 Uiso
H6 H 0.08880 0.50045 0.37120 0.0600 Uiso
H7 H 0.13977 0.50692 0.27623 0.0600 Uiso
H8 H 0.08663 0.50518 0.27751 0.0600 Uiso
H9 H 0.20927 0.46292 0.31322 0.0180 Uiso
H10 H 0.24705 0.46304 0.27597 0.0180 Uiso
Cu1 Cu 0.19997 0.50000 0.50000 0.0150 Uiso
O1AA O 0.30322 0.49942 0.03954 0.0150 Uiso
O2AA O 0.35079 0.49952 0.03977 0.0150 Uiso
O3AA O 0.46104 0.50048 0.15003 0.0150 Uiso
O4AA O 0.46127 0.50058 0.19759 0.0150 Uiso
N1AA N 0.32742 0.50514 0.17342 0.0150 Uiso
C1AA C 0.27924 0.53024 0.23401 0.0150 Uiso
C2AA C 0.30084 0.52996 0.21303 0.0150 Uiso
C3AA C 0.29845 0.50217 0.09931 0.0500 Uiso
C4AA C 0.29746 0.50347 0.12953 0.0150 Uiso
C5AA C 0.32349 0.50340 0.14455 0.0150 Uiso
C6AA C 0.34956 0.50223 0.13025 0.0150 Uiso
C7AA C 0.35127 0.50087 0.10028 0.0150 Uiso
C8AA C 0.32520 0.50092 0.08440 0.0150 Uiso
C9AA C 0.32692 0.49931 0.05325 0.0150 Uiso
C10AA C 0.44756 0.50070 0.17389 0.0150 Uiso
C11AA C 0.41650 0.50276 0.17561 0.0500 Uiso
C12AA C 0.40062 0.50204 0.14955 0.0500 Uiso
C13AA C 0.37062 0.50309 0.15126 0.0500 Uiso
C14AA C 0.35634 0.50498 0.17730 0.0500 Uiso
C15AA C 0.37138 0.50575 0.20331 0.0500 Uiso
C16AA C 0.40161 0.50468 0.20233 0.0500 Uiso
C17AA C 0.30504 0.50546 0.19588 0.0150 Uiso
C18AA C 0.28760 0.48195 0.19994 0.0150 Uiso
C19AA C 0.26625 0.48203 0.22119 0.0150 Uiso
C20AA C 0.26183 0.50582 0.23835 0.0150 Uiso
H1AA H 0.27634 0.54937 0.24710 0.0180 Uiso
H2AA H 0.31421 0.54886 0.20996 0.0180 Uiso
H3AA H 0.27827 0.50230 0.08755 0.0600 Uiso
H4AA H 0.27700 0.50469 0.14067 0.0180 Uiso
H5AA H 0.37206 0.50009 0.08967 0.0180 Uiso
H6AA H 0.41120 0.50045 0.12880 0.0600 Uiso
H7AA H 0.36023 0.50692 0.22377 0.0600 Uiso
H8AA H 0.41337 0.50518 0.22249 0.0600 Uiso
H9AA H 0.29073 0.46292 0.18678 0.0180 Uiso
H10AA H 0.25295 0.46304 0.22403 0.0180 Uiso
O1B O 0.19678 0.50058 0.53954 0.0150 Uiso
O4OA O 0.19759 0.46127 0.50058 0.0150 Uiso
O4QA O 0.19759 0.53873 0.49942 0.0150 Uiso
Cu1H Cu 0.50000 0.50000 0.19997 0.0150 Uiso
Cu1Y Cu 0.30003 0.50000 0.00000 0.0150 Uiso
Cu1GA Cu 0.00000 0.50000 0.30003 0.0150 Uiso
C21 C 0.05237 0.53659 0.39554 0.0150 Uiso
H11 H 0.06139 0.54683 0.41599 0.0180 Uiso
H12 H 0.02939 0.54450 0.39186 0.0180 Uiso
H13 H 0.06639 0.54289 0.37635 0.0180 Uiso
H14 H 0.05232 0.51212 0.39796 0.0180 Uiso
C22 C 0.02774 0.07167 0.52202 0.0150 Uiso
H15 H 0.01524 0.09198 0.51606 0.0180 Uiso
H16 H 0.03658 0.07390 0.54486 0.0180 Uiso
H17 H 0.01276 0.05221 0.52090 0.0180 Uiso
H18 H 0.04637 0.06860 0.50629 0.0180 Uiso
C23 C 0.18408 0.20863 0.64481 0.0150 Uiso
H19 H 0.20743 0.21047 0.65229 0.0180 Uiso
H20 H 0.18307 0.19495 0.62441 0.0180 Uiso
H21 H 0.17063 0.19804 0.66245 0.0180 Uiso
H22 H 0.17520 0.23106 0.64008 0.0180 Uiso
C24 C 0.50322 0.13883 0.14315 0.0150 Uiso
H23 H 0.52695 0.14451 0.14013 0.0180 Uiso
H24 H 0.49095 0.15870 0.15084 0.0180 Uiso
H25 H 0.49383 0.13117 0.12176 0.0180 Uiso
H26 H 0.50114 0.12094 0.15988 0.0180 Uiso
C25 C 0.13985 0.06043 0.50944 0.0150 Uiso
H27 H 0.13738 0.03614 0.51233 0.0180 Uiso
H28 H 0.13862 0.06601 0.48553 0.0180 Uiso
H29 H 0.12181 0.07199 0.52150 0.0180 Uiso
H30 H 0.16159 0.06758 0.51842 0.0180 Uiso
C26 C 0.56947 0.12428 0.10727 0.0150 Uiso
H31 H 0.56853 0.10844 0.08848 0.0180 Uiso
H32 H 0.56326 0.11271 0.12805 0.0180 Uiso
H33 H 0.59229 0.13319 0.10935 0.0180 Uiso
H34 H 0.55379 0.14277 0.10319 0.0180 Uiso
C27 C 0.56501 0.15506 0.17765 0.0150 Uiso
H35 H 0.58274 0.16147 0.19343 0.0180 Uiso
H36 H 0.54611 0.17062 0.17980 0.0180 Uiso
H37 H 0.57377 0.15592 0.15470 0.0180 Uiso
H38 H 0.55744 0.13222 0.18268 0.0180 Uiso
C28 C 0.10638 0.34148 0.15514 0.0150 Uiso
H39 H 0.10404 0.32801 0.13471 0.0180 Uiso
H40 H 0.10432 0.36533 0.14952 0.0180 Uiso
H41 H 0.08874 0.33528 0.17111 0.0180 Uiso
H42 H 0.12840 0.33732 0.16523 0.0180 Uiso
C29 C 0.11061 0.33774 0.05209 0.0150 Uiso
H43 H 0.10160 0.33464 0.07475 0.0180 Uiso
H44 H 0.10489 0.36024 0.04400 0.0180 Uiso
H45 H 0.13506 0.33518 0.05257 0.0180 Uiso
H46 H 0.10090 0.32091 0.03703 0.0180 Uiso
C30 C 0.07477 0.27051 0.21443 0.0150 Uiso
H47 H 0.06934 0.29294 0.20598 0.0180 Uiso
H48 H 0.08140 0.27203 0.23806 0.0180 Uiso
H49 H 0.05505 0.25598 0.21238 0.0180 Uiso
H50 H 0.09330 0.26107 0.20131 0.0180 Uiso
C31 C 0.11157 0.51643 0.07676 0.0150 Uiso
H51 H 0.12959 0.52259 0.09231 0.0180 Uiso
H52 H 0.10492 0.49310 0.08075 0.0180 Uiso
H53 H 0.09224 0.53118 0.08036 0.0180 Uiso
H54 H 0.11952 0.51884 0.05362 0.0180 Uiso
C32 C 0.03388 0.50170 0.44524 0.0150 Uiso
H55 H 0.01930 0.50999 0.42727 0.0180 Uiso
H56 H 0.04253 0.47949 0.43919 0.0180 Uiso
H57 H 0.05267 0.51724 0.44837 0.0180 Uiso
H58 H 0.02102 0.50007 0.46613 0.0180 Uiso
C33 C 0.29527 0.02242 0.17464 0.0150 Uiso
H59 H 0.28027 0.02480 0.15531 0.0180 Uiso
H60 H 0.31258 0.03986 0.17377 0.0180 Uiso
H61 H 0.28232 0.02477 0.19541 0.0180 Uiso
H62 H 0.30592 0.00027 0.17408 0.0180 Uiso
C34 C 0.14742 0.28607 0.15838 0.0150 Uiso
H63 H 0.16592 0.30124 0.16404 0.0180 Uiso
H64 H 0.13717 0.29318 0.13720 0.0180 Uiso
H65 H 0.15603 0.26316 0.15604 0.0180 Uiso
H66 H 0.13055 0.28669 0.17626 0.0180 Uiso
C35 C 0.41365 0.04436 0.03255 0.0150 Uiso
H67 H 0.39709 0.02669 0.02832 0.0180 Uiso
H68 H 0.41183 0.05187 0.05589 0.0180 Uiso
H69 H 0.43624 0.03555 0.02852 0.0180 Uiso
H70 H 0.40944 0.06332 0.01748 0.0180 Uiso
C36 C 0.07430 0.12381 0.14152 0.0150 Uiso
H71 H 0.05266 0.11404 0.13512 0.0180 Uiso
H72 H 0.09231 0.10786 0.13647 0.0180 Uiso
H73 H 0.07796 0.14458 0.12889 0.0180 Uiso
H74 H 0.07425 0.12876 0.16560 0.0180 Uiso
C37 C 0.27879 0.07121 0.00123 0.0150 Uiso
H75 H 0.29657 0.06380 0.01652 0.0180 Uiso
H76 H 0.27264 0.09443 0.00646 0.0180 Uiso
H77 H 0.28685 0.06989 -0.02196 0.0180 Uiso
H78 H 0.25912 0.05672 0.00391 0.0180 Uiso
C38 C 0.06450 0.37200 0.09266 0.0150 Uiso
H79 H 0.05813 0.35149 0.08071 0.0180 Uiso
H80 H 0.08169 0.38398 0.07980 0.0180 Uiso
H81 H 0.04475 0.38640 0.09534 0.0180 Uiso
H82 H 0.07344 0.36614 0.11480 0.0180 Uiso
C39 C 0.20127 0.51172 0.02822 0.0150 Uiso
H83 H 0.19980 0.48737 0.02518 0.0180 Uiso
H84 H 0.22240 0.51991 0.01869 0.0180 Uiso
H85 H 0.18239 0.52256 0.01680 0.0180 Uiso
H86 H 0.20049 0.51705 0.05221 0.0180 Uiso
C40 C 0.25129 0.20558 0.19120 0.0150 Uiso
H87 H 0.23379 0.19554 0.20524 0.0180 Uiso
H88 H 0.25575 0.22852 0.19883 0.0180 Uiso
H89 H 0.27185 0.19223 0.19293 0.0180 Uiso
H90 H 0.24376 0.20604 0.16780 0.0180 Uiso
C41 C 0.09362 0.16553 0.26981 0.0150 Uiso
H91 H 0.08591 0.18129 0.25259 0.0180 Uiso
H92 H 0.10892 0.17706 0.28522 0.0180 Uiso
H93 H 0.07428 0.15698 0.28235 0.0180 Uiso
H94 H 0.10537 0.14678 0.25909 0.0180 Uiso
C42 C 0.59080 0.22736 0.09265 0.0150 Uiso
H95 H 0.59196 0.25008 0.08332 0.0180 Uiso
H96 H 0.60688 0.21288 0.08099 0.0180 Uiso
H97 H 0.59627 0.22806 0.11661 0.0180 Uiso
H98 H 0.56809 0.21844 0.08969 0.0180 Uiso
C43 C 0.56302 0.06655 0.32548 0.0150 Uiso
H99 H 0.54886 0.06742 0.34556 0.0180 Uiso
H100 H 0.55334 0.05075 0.30931 0.0180 Uiso
H101 H 0.56426 0.08891 0.31534 0.0180 Uiso
H102 H 0.58561 0.05910 0.33169 0.0180 Uiso
C44 C 0.55829 0.23223 0.17150 0.0150 Uiso
H103 H 0.57329 0.24592 0.18535 0.0180 Uiso
H104 H 0.54193 0.24677 0.16029 0.0180 Uiso
H105 H 0.57146 0.22017 0.15461 0.0180 Uiso
H106 H 0.54646 0.21606 0.18575 0.0180 Uiso
C45 C 0.21963 0.26503 0.14130 0.0150 Uiso
H107 H 0.20730 0.28424 0.15042 0.0180 Uiso
H108 H 0.22671 0.25035 0.15970 0.0180 Uiso
H109 H 0.20509 0.25250 0.12594 0.0180 Uiso
H110 H 0.23944 0.27304 0.12912 0.0180 Uiso
C46 C 0.18636 0.12442 0.12229 0.0150 Uiso
H111 H 0.18267 0.11177 0.14304 0.0180 Uiso
H112 H 0.17031 0.14301 0.12106 0.0180 Uiso
H113 H 0.20926 0.13335 0.12210 0.0180 Uiso
H114 H 0.18319 0.10957 0.10296 0.0180 Uiso
C47 C 0.53444 0.17969 0.24007 0.0150 Uiso
H115 H 0.51225 0.17323 0.24847 0.0180 Uiso
H116 H 0.53226 0.19934 0.22546 0.0180 Uiso
H117 H 0.54910 0.18516 0.25903 0.0180 Uiso
H118 H 0.54413 0.16103 0.22733 0.0180 Uiso
C48 C 0.55744 0.10687 0.38239 0.0150 Uiso
H119 H 0.53833 0.09517 0.39250 0.0180 Uiso
H120 H 0.56061 0.12855 0.39353 0.0180 Uiso
H121 H 0.57773 0.09325 0.38504 0.0180 Uiso
H122 H 0.55309 0.11051 0.35846 0.0180 Uiso
C49 C 0.05636 0.09367 0.02116 0.0150 Uiso
H123 H 0.03365 0.09073 0.01222 0.0180 Uiso
H124 H 0.05983 0.11727 0.02712 0.0180 Uiso
H125 H 0.05916 0.07967 0.04117 0.0180 Uiso
H126 H 0.07280 0.08702 0.00414 0.0180 Uiso
C50 C 0.18339 0.06425 0.07011 0.0150 Uiso
H127 H 0.17323 0.08587 0.06429 0.0180 Uiso
H128 H 0.16671 0.05011 0.08134 0.0180 Uiso
H129 H 0.19116 0.05308 0.04963 0.0180 Uiso
H130 H 0.20247 0.06796 0.08516 0.0180 Uiso
C51 C 0.15953 0.29640 0.64658 0.0150 Uiso
H131 H 0.16412 0.27457 0.63625 0.0180 Uiso
H132 H 0.16399 0.31427 0.63031 0.0180 Uiso
H133 H 0.13598 0.29737 0.65357 0.0180 Uiso
H134 H 0.17403 0.29938 0.66621 0.0180 Uiso
C52 C 0.23195 0.59191 0.21300 0.0150 Uiso
H135 H 0.24529 0.60277 0.19544 0.0180 Uiso
H136 H 0.21384 0.57888 0.20267 0.0180 Uiso
H137 H 0.24634 0.57694 0.22616 0.0180 Uiso
H138 H 0.22231 0.60906 0.22775 0.0180 Uiso
C53 C 0.58784 0.14397 0.26208 0.0150 Uiso
H139 H 0.56520 0.13467 0.26434 0.0180 Uiso
H140 H 0.58935 0.16503 0.27466 0.0180 Uiso
H141 H 0.60421 0.12792 0.27096 0.0180 Uiso
H142 H 0.59261 0.14824 0.23834 0.0180 Uiso
C54 C 0.04717 0.31202 0.11919 0.0150 Uiso
H143 H 0.06767 0.30956 0.10584 0.0180 Uiso
H144 H 0.03016 0.32386 0.10598 0.0180 Uiso
H145 H 0.03872 0.28979 0.12541 0.0180 Uiso
H146 H 0.05215 0.32488 0.13955 0.0180 Uiso
C55 C 0.05088 0.34496 0.02500 0.0150 Uiso
H147 H 0.05967 0.36515 0.03594 0.0180 Uiso
H148 H 0.02907 0.34998 0.01484 0.0180 Uiso
H149 H 0.06656 0.33762 0.00755 0.0180 Uiso
H150 H 0.04824 0.32709 0.04168 0.0180 Uiso
C56 C 0.04948 0.23880 0.09770 0.0150 Uiso
H151 H 0.07038 0.22733 0.10372 0.0180 Uiso
H152 H 0.05439 0.26210 0.09159 0.0180 Uiso
H153 H 0.03906 0.22734 0.07861 0.0180 Uiso
H154 H 0.03410 0.23842 0.11688 0.0180 Uiso
C57 C 0.12123 0.60759 0.33595 0.0150 Uiso
H155 H 0.12442 0.58321 0.33639 0.0180 Uiso
H156 H 0.11443 0.61455 0.31337 0.0180 Uiso
H157 H 0.10375 0.61386 0.35206 0.0180 Uiso
H158 H 0.14230 0.61873 0.34197 0.0180 Uiso
C58 C 0.51123 0.11141 0.22014 0.0150 Uiso
H159 H 0.50109 0.09354 0.20663 0.0180 Uiso
H160 H 0.49603 0.11744 0.23849 0.0180 Uiso
H161 H 0.53258 0.10353 0.22944 0.0180 Uiso
H162 H 0.51522 0.13111 0.20600 0.0180 Uiso
C59 C 0.02584 0.05049 0.25109 0.0150 Uiso
H163 H 0.03720 0.06367 0.23372 0.0180 Uiso
H164 H 0.02024 0.02828 0.24217 0.0180 Uiso
H165 H 0.04070 0.04801 0.27052 0.0180 Uiso
H166 H 0.00523 0.06201 0.25794 0.0180 Uiso
C60 C 0.69898 0.20531 0.24925 0.0150 Uiso
H167 H 0.69652 0.19044 0.22983 0.0180 Uiso
H168 H 0.68365 0.22439 0.24697 0.0180 Uiso
H169 H 0.69363 0.19291 0.26979 0.0180 Uiso
H170 H 0.72213 0.21350 0.25042 0.0180 Uiso
C61 C 0.16936 0.55816 0.07539 0.0150 Uiso
H171 H 0.16968 0.57797 0.08994 0.0180 Uiso
H172 H 0.18634 0.56065 0.05779 0.0180 Uiso
H173 H 0.17427 0.53811 0.08873 0.0180 Uiso
H174 H 0.14715 0.55592 0.06509 0.0180 Uiso
C62 C 0.19184 0.14776 0.05576 0.0150 Uiso
H175 H 0.18301 0.12634 0.04754 0.0180 Uiso
H176 H 0.20307 0.14424 0.07735 0.0180 Uiso
H177 H 0.20795 0.15676 0.03952 0.0180 Uiso
H178 H 0.17333 0.16368 0.05865 0.0180 Uiso
C63 C 0.14739 0.08816 0.26202 0.0150 Uiso
H179 H 0.15784 0.10601 0.24872 0.0180 Uiso
H180 H 0.12349 0.09308 0.26499 0.0180 Uiso
H181 H 0.14995 0.06668 0.25034 0.0180 Uiso
H182 H 0.15830 0.08688 0.28401 0.0180 Uiso
C64 C 0.15009 0.17540 0.20891 0.0150 Uiso
H183 H 0.12975 0.16898 0.22114 0.0180 Uiso
H184 H 0.15527 0.19899 0.21346 0.0180 Uiso
H185 H 0.16886 0.16132 0.21625 0.0180 Uiso
H186 H 0.14646 0.17230 0.18479 0.0180 Uiso
C65 C 0.22109 0.63797 0.27515 0.0150 Uiso
H187 H 0.21867 0.61357 0.27347 0.0180 Uiso
H188 H 0.22609 0.64726 0.25294 0.0180 Uiso
H189 H 0.20015 0.64772 0.28358 0.0180 Uiso
H190 H 0.23944 0.64335 0.29060 0.0180 Uiso
C66 C 0.53089 0.19619 0.12494 0.0150 Uiso
H191 H 0.55351 0.18661 0.12405 0.0180 Uiso
H192 H 0.53182 0.21998 0.11879 0.0180 Uiso
H193 H 0.51628 0.18422 0.10920 0.0180 Uiso
H194 H 0.52194 0.19397 0.14773 0.0180 Uiso
C67 C 0.62710 0.24091 0.16602 0.0150 Uiso
H195 H 0.61393 0.26044 0.17304 0.0180 Uiso
H196 H 0.61494 0.22032 0.17175 0.0180 Uiso
H197 H 0.63073 0.24178 0.14172 0.0180 Uiso
H198 H 0.64881 0.24108 0.17756 0.0180 Uiso
C68 C 0.26676 0.17206 0.01559 0.0150 Uiso
H199 H 0.26671 0.14977 0.00522 0.0180 Uiso
H200 H 0.28143 0.17189 0.03532 0.0180 Uiso
H201 H 0.27501 0.18862 -0.00061 0.0180 Uiso
H202 H 0.24390 0.17797 0.02243 0.0180 Uiso
C69 C 0.09270 0.20595 0.19863 0.0150 Uiso
H203 H 0.10170 0.21719 0.21856 0.0180 Uiso
H204 H 0.07239 0.21760 0.19113 0.0180 Uiso
H205 H 0.10950 0.20639 0.18069 0.0180 Uiso
H206 H 0.08721 0.18263 0.20415 0.0180 Uiso
C70 C 0.10192 0.27795 0.06996 0.0150 Uiso
H207 H 0.08054 0.28877 0.06446 0.0180 Uiso
H208 H 0.11298 0.29038 0.08806 0.0180 Uiso
H209 H 0.09777 0.25484 0.07725 0.0180 Uiso
H210 H 0.11639 0.27780 0.05009 0.0180 Uiso
C71 C 0.56694 0.15709 0.32218 0.0150 Uiso
H211 H 0.55407 0.15774 0.34312 0.0180 Uiso
H212 H 0.55230 0.16307 0.30337 0.0180 Uiso
H213 H 0.58555 0.17310 0.32350 0.0180 Uiso
H214 H 0.57585 0.13443 0.31874 0.0180 Uiso
C72 C 0.28042 0.12409 0.56921 0.0150 Uiso
H215 H 0.27087 0.13573 0.58864 0.0180 Uiso
H216 H 0.29782 0.13813 0.55899 0.0180 Uiso
H217 H 0.29029 0.10278 0.57646 0.0180 Uiso
H218 H 0.26269 0.11973 0.55274 0.0180 Uiso
C73 C 0.17857 0.12827 0.62392 0.0150 Uiso
H219 H 0.19901 0.12020 0.63493 0.0180 Uiso
H220 H 0.18186 0.12834 0.59956 0.0180 Uiso
H221 H 0.15979 0.11346 0.62961 0.0180 Uiso
H222 H 0.17361 0.15110 0.63158 0.0180 Uiso
C74 C 0.05231 0.11727 0.08041 0.0150 Uiso
H223 H 0.03335 0.11092 0.06611 0.0180 Uiso
H224 H 0.06101 0.09731 0.09182 0.0180 Uiso
H225 H 0.07005 0.12718 0.06657 0.0180 Uiso
H226 H 0.04483 0.13367 0.09713 0.0180 Uiso
C75 C 0.13609 0.22144 0.05599 0.0150 Uiso
H227 H 0.14354 0.19907 0.04902 0.0180 Uiso
H228 H 0.13246 0.22167 0.08030 0.0180 Uiso
H229 H 0.15328 0.23801 0.05011 0.0180 Uiso
H230 H 0.11507 0.22702 0.04452 0.0180 Uiso
C76 C 0.25776 0.54842 0.05326 0.0150 Uiso
H231 H 0.23376 0.54605 0.05804 0.0180 Uiso
H232 H 0.27063 0.54465 0.07387 0.0180 Uiso
H233 H 0.26441 0.53191 0.03631 0.0180 Uiso
H234 H 0.26224 0.57108 0.04484 0.0180 Uiso
loop_
_geom_bond_atom_site_label_1
_geom_bond_atom_site_label_2
_geom_bond_site_symmetry_1
_geom_bond_site_symmetry_2
O1 C9 1_555 1_555
O2 C9 1_555 1_555
O3 C10 1_555 1_555
O4 C10 1_555 1_555
N1 C5 1_555 1_555
C1 C2 1_555 1_555
C2 C17 1_555 1_555
C3 C4 1_555 1_555
C4 C5 1_555 1_555
C5 C6 1_555 1_555
C6 C7 1_555 1_555
C7 C8 1_555 1_555
C8 C3 1_555 1_555
C9 C8 1_555 1_555
C10 C11 1_555 1_555
C11 C12 1_555 1_555
C12 C13 1_555 1_555
C13 C6 1_555 1_555
C14 N1 1_555 1_555
C15 C14 1_555 1_555
C16 C11 1_555 1_555
C17 N1 1_555 1_555
C18 C17 1_555 1_555
C19 C18 1_555 1_555
C20 C1 1_555 1_555
H1 C1 1_555 1_555
H2 C2 1_555 1_555
H3 C3 1_555 1_555
H4 C4 1_555 1_555
H5 C7 1_555 1_555
H6 C12 1_555 1_555
H7 C15 1_555 1_555
H8 C16 1_555 1_555
H9 C18 1_555 1_555
H10 C19 1_555 1_555
Cu1 O1 1_555 1_555
C21 H11 1_555 1_555
H12 C21 1_555 1_555
H13 C21 1_555 1_555
H14 C21 1_555 1_555
C22 H15 1_555 1_555
H16 C22 1_555 1_555
H17 C22 1_555 1_555
H18 C22 1_555 1_555
C23 H19 1_555 1_555
H20 C23 1_555 1_555
H21 C23 1_555 1_555
H22 C23 1_555 1_555
C24 H23 1_555 1_555
H24 C24 1_555 1_555
H25 C24 1_555 1_555
H26 C24 1_555 1_555
C25 H27 1_555 1_555
H28 C25 1_555 1_555
H29 C25 1_555 1_555
H30 C25 1_555 1_555
C26 H31 1_555 1_555
H32 C26 1_555 1_555
H33 C26 1_555 1_555
H34 C26 1_555 1_555
C27 H35 1_555 1_555
H36 C27 1_555 1_555
H37 C27 1_555 1_555
H38 C27 1_555 1_555
C28 H39 1_555 1_555
H40 C28 1_555 1_555
H41 C28 1_555 1_555
H42 C28 1_555 1_555
C29 H43 1_555 1_555
H44 C29 1_555 1_555
H45 C29 1_555 1_555
H46 C29 1_555 1_555
C30 H47 1_555 1_555
H48 C30 1_555 1_555
H49 C30 1_555 1_555
H50 C30 1_555 1_555
C31 H51 1_555 1_555
H52 C31 1_555 1_555
H53 C31 1_555 1_555
H54 C31 1_555 1_555
C32 H55 1_555 1_555
H56 C32 1_555 1_555
H57 C32 1_555 1_555
H58 C32 1_555 1_555
C33 H59 1_555 1_555
H60 C33 1_555 1_555
H61 C33 1_555 1_555
H62 C33 1_555 1_555
C34 H63 1_555 1_555
H64 C34 1_555 1_555
H65 C34 1_555 1_555
H66 C34 1_555 1_555
C35 H67 1_555 1_555
H68 C35 1_555 1_555
H69 C35 1_555 1_555
H70 C35 1_555 1_555
C36 H71 1_555 1_555
H72 C36 1_555 1_555
H73 C36 1_555 1_555
H74 C36 1_555 1_555
C37 H75 1_555 1_555
H76 C37 1_555 1_555
H77 C37 1_555 1_555
H78 C37 1_555 1_555
C38 H79 1_555 1_555
H80 C38 1_555 1_555
H81 C38 1_555 1_555
H82 C38 1_555 1_555
C39 H83 1_555 1_555
H84 C39 1_555 1_555
H85 C39 1_555 1_555
H86 C39 1_555 1_555
C40 H87 1_555 1_555
H88 C40 1_555 1_555
H89 C40 1_555 1_555
H90 C40 1_555 1_555
C41 H91 1_555 1_555
H92 C41 1_555 1_555
H93 C41 1_555 1_555
H94 C41 1_555 1_555
C42 H95 1_555 1_555
H96 C42 1_555 1_555
H97 C42 1_555 1_555
H98 C42 1_555 1_555
C43 H99 1_555 1_555
H100 C43 1_555 1_555
H101 C43 1_555 1_555
H102 C43 1_555 1_555
C44 H103 1_555 1_555
H104 C44 1_555 1_555
H105 C44 1_555 1_555
H106 C44 1_555 1_555
C45 H107 1_555 1_555
H108 C45 1_555 1_555
H109 C45 1_555 1_555
H110 C45 1_555 1_555
C46 H111 1_555 1_555
H112 C46 1_555 1_555
H113 C46 1_555 1_555
H114 C46 1_555 1_555
C47 H115 1_555 1_555
H116 C47 1_555 1_555
H117 C47 1_555 1_555
H118 C47 1_555 1_555
C48 H119 1_555 1_555
H120 C48 1_555 1_555
H121 C48 1_555 1_555
H122 C48 1_555 1_555
C49 H123 1_555 1_555
H124 C49 1_555 1_555
H125 C49 1_555 1_555
H126 C49 1_555 1_555
C50 H127 1_555 1_555
H128 C50 1_555 1_555
H129 C50 1_555 1_555
H130 C50 1_555 1_555
C51 H131 1_555 1_555
H132 C51 1_555 1_555
H133 C51 1_555 1_555
H134 C51 1_555 1_555
C52 H135 1_555 1_555
H136 C52 1_555 1_555
H137 C52 1_555 1_555
H138 C52 1_555 1_555
C53 H139 1_555 1_555
H140 C53 1_555 1_555
H141 C53 1_555 1_555
H142 C53 1_555 1_555
C54 H143 1_555 1_555
H144 C54 1_555 1_555
H145 C54 1_555 1_555
H146 C54 1_555 1_555
C55 H147 1_555 1_555
H148 C55 1_555 1_555
H149 C55 1_555 1_555
H150 C55 1_555 1_555
C56 H151 1_555 1_555
H152 C56 1_555 1_555
H153 C56 1_555 1_555
H154 C56 1_555 1_555
C57 H155 1_555 1_555
H156 C57 1_555 1_555
H157 C57 1_555 1_555
H158 C57 1_555 1_555
C58 H159 1_555 1_555
H160 C58 1_555 1_555
H161 C58 1_555 1_555
H162 C58 1_555 1_555
C59 H163 1_555 1_555
H164 C59 1_555 1_555
H165 C59 1_555 1_555
H166 C59 1_555 1_555
C60 H167 1_555 1_555
H168 C60 1_555 1_555
H169 C60 1_555 1_555
H170 C60 1_555 1_555
C61 H171 1_555 1_555
H172 C61 1_555 1_555
H173 C61 1_555 1_555
H174 C61 1_555 1_555
C62 H175 1_555 1_555
H176 C62 1_555 1_555
H177 C62 1_555 1_555
H178 C62 1_555 1_555
C63 H179 1_555 1_555
H180 C63 1_555 1_555
H181 C63 1_555 1_555
H182 C63 1_555 1_555
C64 H183 1_555 1_555
H184 C64 1_555 1_555
H185 C64 1_555 1_555
H186 C64 1_555 1_555
C65 H187 1_555 1_555
H188 C65 1_555 1_555
H189 C65 1_555 1_555
H190 C65 1_555 1_555
C66 H191 1_555 1_555
H192 C66 1_555 1_555
H193 C66 1_555 1_555
H194 C66 1_555 1_555
C67 H195 1_555 1_555
H196 C67 1_555 1_555
H197 C67 1_555 1_555
H198 C67 1_555 1_555
C68 H199 1_555 1_555
H200 C68 1_555 1_555
H201 C68 1_555 1_555
H202 C68 1_555 1_555
C69 H203 1_555 1_555
H204 C69 1_555 1_555
H205 C69 1_555 1_555
H206 C69 1_555 1_555
C70 H207 1_555 1_555
H208 C70 1_555 1_555
H209 C70 1_555 1_555
H210 C70 1_555 1_555
C71 H211 1_555 1_555
H212 C71 1_555 1_555
H213 C71 1_555 1_555
H214 C71 1_555 1_555
C72 H215 1_555 1_555
H216 C72 1_555 1_555
H217 C72 1_555 1_555
H218 C72 1_555 1_555
C73 H219 1_555 1_555
H220 C73 1_555 1_555
H221 C73 1_555 1_555
H222 C73 1_555 1_555
C74 H223 1_555 1_555
H224 C74 1_555 1_555
H225 C74 1_555 1_555
H226 C74 1_555 1_555
C75 H227 1_555 1_555
H228 C75 1_555 1_555
H229 C75 1_555 1_555
H230 C75 1_555 1_555
C76 H231 1_555 1_555
H232 C76 1_555 1_555
H233 C76 1_555 1_555
H234 C76 1_555 1_555
O1AA C9AA 1_555 1_555
O2AA C9AA 1_555 1_555
O3AA C10AA 1_555 1_555
O4AA C10AA 1_555 1_555
N1AA C5AA 1_555 1_555
C1AA C2AA 1_555 1_555
C2AA C17AA 1_555 1_555
C3AA C4AA 1_555 1_555
C4AA C5AA 1_555 1_555
C5AA C6AA 1_555 1_555
C6AA C7AA 1_555 1_555
C7AA C8AA 1_555 1_555
C8AA C3AA 1_555 1_555
C9AA C8AA 1_555 1_555
C10AA C11AA 1_555 1_555
C11AA C12AA 1_555 1_555
C12AA C13AA 1_555 1_555
C13AA C6AA 1_555 1_555
C14AA N1AA 1_555 1_555
C15AA C14AA 1_555 1_555
C16AA C11AA 1_555 1_555
C17AA N1AA 1_555 1_555
C18AA C17AA 1_555 1_555
C19AA C18AA 1_555 1_555
C20AA C20 1_555 1_555
H1AA C1AA 1_555 1_555
H2AA C2AA 1_555 1_555
H3AA C3AA 1_555 1_555
H4AA C4AA 1_555 1_555
H5AA C7AA 1_555 1_555
H6AA C12AA 1_555 1_555
H7AA C15AA 1_555 1_555
H8AA C16AA 1_555 1_555
H9AA C18AA 1_555 1_555
H10AA C19AA 1_555 1_555
O1B Cu1 1_555 1_555
O4OA Cu1 1_555 1_555
O4QA Cu1 1_555 1_555
Cu1H O4AA 1_555 1_555
Cu1Y O1AA 1_555 1_555
Cu1GA O4 1_555 1_555
C13 C14 1_555 1_555
C15 C16 1_555 1_555
C19 C20 1_555 1_555
C1AA C20AA 1_555 1_555
C13AA C14AA 1_555 1_555
C15AA C16AA 1_555 1_555
C19AA C20AA 1_555 1_555

#END
