
#######################################################################
#
#                 Cambridge Crystallographic Data Centre
#                                CCDC 
#
#######################################################################
#
# If this CIF has been generated from an entry in the Cambridge 
# Structural Database, then it will include bibliographic, chemical, 
# crystal, experimental, refinement or atomic coordinate data resulting 
# from the CCDC's data processing and validation procedures.
#
#######################################################################

data_KIGCEK
_chemical_formula_moiety         '(C12 H26 N2 O10 Zn1)n'
_symmetry_cell_setting           hexagonal
_symmetry_space_group_name_H-M   'P 61'
_symmetry_Int_Tables_number      169
_space_group_name_Hall           'P 61'
loop_
_symmetry_equiv_pos_site_id
_symmetry_equiv_pos_as_xyz
1 x,y,z
2 x-y,x,1/6+z
3 -y,x-y,1/3+z
4 -x,-y,1/2+z
5 -x+y,-x,2/3+z
6 y,-x+y,5/6+z
_cell_length_a                   17.4807(3)
_cell_length_b                   17.4807(3)
_cell_length_c                   10.4350(2)
_cell_angle_alpha                90
_cell_angle_beta                 90
_cell_angle_gamma                120
_cell_volume                     2761.47
loop_
_atom_site_label
_atom_site_type_symbol
_atom_site_fract_x
_atom_site_fract_y
_atom_site_fract_z
_atom_site_U_iso_or_equiv
_atom_site_thermal_displace_type
Zn1 Zn 0.46481(4) 0.53607(4) 0.08799(8) 0.0152 Uani
O1 O 0.4905(2) 0.5164(2) 0.2809(4) 0.0182 Uani
O2 O 0.5605(3) 0.4615(3) 0.3931(4) 0.0273 Uani
O3 O 0.6707(4) 0.5461(5) 0.0502(7) 0.0782 Uani
H1 H 0.6525 0.5789 0.0742 0.1170 Uiso
O4 O 0.5360(3) 0.6651(3) 0.0943(5) 0.0316 Uani
O5 O 0.6627(8) 0.6851(8) 0.1796(12) 0.1210 Uiso
N1 N 0.4912(3) 0.1577(3) -0.0410(4) 0.0176 Uani
N2 N 0.4960(3) 0.4366(3) 0.0625(4) 0.0149 Uani
H2 H 0.5300 0.4493 -0.0090 0.0180 Uiso
C1 C 0.5026(4) 0.2201(4) -0.1264(6) 0.0264 Uani
H3 H 0.5305 0.2229 -0.2037 0.0320 Uiso
C2 C 0.4748(5) 0.2801(4) -0.1043(6) 0.0292 Uani
H4 H 0.4832 0.3218 -0.1664 0.0350 Uiso
C3 C 0.4343(4) 0.2783(4) 0.0108(6) 0.0220 Uani
C4 C 0.4206(4) 0.2132(4) 0.0978(7) 0.0286 Uani
H5 H 0.3925 0.2088 0.1754 0.0340 Uiso
C5 C 0.4493(4) 0.1541(4) 0.0682(6) 0.0252 Uani
H6 H 0.4390 0.1100 0.1270 0.0300 Uiso
C6 C 0.4126(3) 0.3496(4) 0.0414(6) 0.0202 Uani
H7 H 0.3793 0.3551 -0.0287 0.0250 Uiso
H8 H 0.3763 0.3335 0.1179 0.0250 Uiso
C7 C 0.5471(3) 0.4340(4) 0.1719(5) 0.0159 Uani
H9 H 0.5264 0.3717 0.1911 0.0190 Uiso
C8 C 0.5311(3) 0.4750(4) 0.2911(5) 0.0162 Uani
C9 C 0.6478(4) 0.4790(4) 0.1397(6) 0.0243 Uani
H10 H 0.6825 0.5035 0.2181 0.0290 Uiso
C10 C 0.6732(7) 0.4173(7) 0.0769(13) 0.0720 Uiso
H11 H 0.6308 0.3574 0.0990 0.1080 Uiso
H12 H 0.7307 0.4307 0.1062 0.1080 Uiso
H13 H 0.6743 0.4243 -0.0144 0.1080 Uiso
C11 C 0.6139(7) 0.7097(7) 0.1010(12) 0.0670 Uiso
C12 C 0.6595(5) 0.8065(5) 0.0946(15) 0.0703 Uani
H14 H 0.6474 0.8243 0.0136 0.1060 Uiso
H15 H 0.7220 0.8300 0.1033 0.1060 Uiso
H16 H 0.6389 0.8286 0.1626 0.1060 Uiso
Zn1C Zn 0.53519(4) 0.46393(4) 0.58799(8) 0.0152 Uani
Zn1E Zn 0.53607(4) 0.07126(6) -0.07868(8) 0.0152 Uani
O2C O 0.4395(3) 0.5385(3) -0.1069(4) 0.0273 Uani
N1A N 0.3335(4) 0.4912(3) 0.1257(4) 0.0176 Uani
O6 O 0.1735(17) 0.2248(16) 0.065(3) 0.2822 Uani
O7 O 0.2441(11) 0.2122(11) 0.273(3) 0.2096 Uani
O8 O 0.070(3) 0.077(3) 0.638(7) 0.4700 Uiso
O9 O 0.0278(13) 0.2108(10) 0.021(2) 0.2227 Uani
O10 O 0.2314(15) 0.0471(13) 0.285(4) 0.3253 Uani
loop_
_atom_site_aniso_label
_atom_site_aniso_U_11
_atom_site_aniso_U_22
_atom_site_aniso_U_33
_atom_site_aniso_U_23
_atom_site_aniso_U_13
_atom_site_aniso_U_12
Zn1 0.0228(3) 0.0232(3) 0.0081(3) 0.0001(2) 0.0005(2) 0.0178(3)
O1 0.0252(18) 0.0303(19) 0.0068(19) -0.0028(15) -0.0003(14) 0.0197(16)
O2 0.040(2) 0.056(3) 0.006(2) -0.0043(17) -0.0044(17) 0.039(2)
O3 0.030(3) 0.118(6) 0.072(5) 0.067(4) 0.016(3) 0.026(3)
O4 0.036(2) 0.026(2) 0.031(3) -0.002(2) -0.012(2) 0.0142(18)
N1 0.029(2) 0.014(2) 0.010(2) -0.0002(16) -0.0012(17) 0.0108(18)
N2 0.021(2) 0.020(2) 0.006(2) -0.0011(16) -0.0010(16) 0.0119(17)
C1 0.050(4) 0.022(3) 0.010(3) 0.003(2) 0.008(2) 0.020(3)
C2 0.054(4) 0.022(3) 0.017(3) 0.005(2) 0.003(3) 0.023(3)
C3 0.026(3) 0.018(3) 0.018(3) 0.000(2) -0.003(2) 0.008(2)
C4 0.038(3) 0.032(3) 0.023(3) 0.009(3) 0.011(3) 0.023(3)
C5 0.040(3) 0.021(3) 0.017(3) 0.007(2) 0.008(2) 0.017(2)
C6 0.018(3) 0.023(3) 0.022(3) 0.000(2) -0.003(2) 0.012(2)
C7 0.023(3) 0.029(3) 0.005(2) 0.0004(19) -0.0016(19) 0.020(2)
C8 0.017(2) 0.027(3) 0.010(3) 0.0002(19) -0.0002(18) 0.015(2)
C9 0.017(3) 0.042(3) 0.017(3) 0.003(2) -0.001(2) 0.017(2)
C12 0.035(4) 0.040(4) 0.131(10) 0.020(6) 0.009(6) 0.015(3)
Zn1C 0.0228 0.0232 0.0081 -0.0001 -0.0005 0.0178
Zn1E 0.0232 0.0104 0.0081 -0.0004 0.0001 0.0054
O2C 0.04 0.056 0.006 0.0043 0.0044 0.039
N1A 0.0214 0.029 0.01 -0.0012 -0.001 0.0182
O6 0.26(2) 0.24(2) 0.30(3) 0.02(2) -0.03(3) 0.09(2)
O7 0.159(12) 0.194(16) 0.31(3) 0.090(18) 0.026(16) 0.114(12)
O9 0.222(18) 0.114(11) 0.32(3) -0.036(13) -0.040(18) 0.075(12)
O10 0.25(2) 0.184(17) 0.58(5) 0.12(3) -0.05(3) 0.137(17)
loop_
_geom_bond_atom_site_label_1
_geom_bond_atom_site_label_2
_geom_bond_site_symmetry_1
_geom_bond_site_symmetry_2
Zn1 O1 1_555 1_555
O1 C8 1_555 1_555
O2 C8 1_555 1_555
O3 H1 1_555 1_555
O4 Zn1 1_555 1_555
O5 C11 1_555 1_555
N1 C1 1_555 1_555
N2 Zn1 1_555 1_555
H2 N2 1_555 1_555
C1 H3 1_555 1_555
C2 C1 1_555 1_555
H4 C2 1_555 1_555
C3 C2 1_555 1_555
C4 C3 1_555 1_555
H5 C4 1_555 1_555
C5 N1 1_555 1_555
H6 C5 1_555 1_555
C6 N2 1_555 1_555
H7 C6 1_555 1_555
H8 C6 1_555 1_555
C7 N2 1_555 1_555
H9 C7 1_555 1_555
C8 C7 1_555 1_555
C9 O3 1_555 1_555
H10 C9 1_555 1_555
C10 C9 1_555 1_555
H11 C10 1_555 1_555
H12 C10 1_555 1_555
H13 C10 1_555 1_555
C11 O4 1_555 1_555
C12 C11 1_555 1_555
H14 C12 1_555 1_555
H15 C12 1_555 1_555
H16 C12 1_555 1_555
Zn1C O2 1_555 1_555
Zn1E N1 1_555 1_555
O2C Zn1 1_555 1_555
N1A Zn1 1_555 1_555
C3 C6 1_555 1_555
C4 C5 1_555 1_555
C7 C9 1_555 1_555

#END
