
#######################################################################
#
#                 Cambridge Crystallographic Data Centre
#                                CCDC 
#
#######################################################################
#
# If this CIF has been generated from an entry in the Cambridge 
# Structural Database, then it will include bibliographic, chemical, 
# crystal, experimental, refinement or atomic coordinate data resulting 
# from the CCDC's data processing and validation procedures.
#
#######################################################################

data_HUCFAO
_chemical_formula_moiety         '(C24 H54 Mn3 N6 O33)n'
_symmetry_cell_setting           triclinic
_symmetry_space_group_name_H-M   'P -1'
_symmetry_Int_Tables_number      2
_space_group_name_Hall           '-P 1'
loop_
_symmetry_equiv_pos_site_id
_symmetry_equiv_pos_as_xyz
1 x,y,z
2 -x,-y,-z
_cell_length_a                   8.9147(18)
_cell_length_b                   12.715(3)
_cell_length_c                   21.226(4)
_cell_angle_alpha                90.21(3)
_cell_angle_beta                 94.14(3)
_cell_angle_gamma                91.29(3)
_cell_volume                     2399.06
loop_
_atom_site_label
_atom_site_type_symbol
_atom_site_fract_x
_atom_site_fract_y
_atom_site_fract_z
O1 O 0.94(2) 0.713(15) 0.441(9)
O2 O 0.07(2) 0.774(18) 0.273(8)
O3 O 0.167(3) 0.428(2) 0.2767(17)
Mn1 Mn 0.6022(6) 0.2708(4) 0.2374(3)
Mn2 Mn 0.9741(6) 0.3608(5) 0.2469(3)
Mn3 Mn 0.2795(6) 0.1451(5) 0.2626(3)
O4 O 0.517(3) 1.126(2) 0.2811(13)
O5 O 0.739(3) 1.075(3) 0.3141(16)
O6 O 0.096(4) 0.664(3) 0.6560(15)
O7 O 0.338(3) 0.681(2) 0.6719(13)
O8 O 0.359(3) 0.314(2) 0.2654(13)
O9 O 0.482(5) 0.749(3) 0.2911(15)
O10 O 0.570(5) 0.849(3) 0.4886(16)
O11 O 0.317(4) 0.550(3) 0.4575(15)
O12 O 0.836(3) 0.232(2) 0.2042(13)
O13 O 1.053(3) 0.189(2) 0.2404(15)
O14 O 0.815(4) -0.163(3) 0.2073(14)
O15 O 0.760(5) 0.025(3) 0.0297(17)
O16 O 0.804(5) -0.331(3) 0.0196(17)
O17 O 0.462(4) -0.229(3) -0.1443(14)
O18 O 0.665(4) -0.134(3) -0.1645(15)
O19 O 0.625(4) -0.575(2) 0.1923(15)
O20 O 0.830(4) -0.512(2) 0.2323(17)
O21 O 0.206(4) 0.156(4) 0.3625(17)
H1 H 0.1152 0.1652 0.3613
O22 O 0.240(6) -0.025(3) 0.258(3)
H2 H 0.1922 -0.0438 0.2873
O23 O 1.071(6) 0.377(4) 0.1480(19)
H3 H 1.1120 0.4349 0.1452
C1 C 0.601(4) 1.067(3) 0.3153(18)
C2 C 0.524(5) 0.985(3) 0.356(2)
H4 H 0.5100 1.0141 0.3971
H5 H 0.4264 0.9650 0.3358
C3 C 0.622(5) 0.889(3) 0.363(2)
H6 H 0.6559 0.8691 0.3218
H7 H 0.7105 0.9047 0.3908
C4 C 0.519(5) 0.788(3) 0.4540(19)
C5 C 0.469(5) 0.734(3) 0.3470(19)
C6 C 0.380(5) 0.627(3) 0.438(2)
C7 C 0.307(5) 0.582(3) 0.332(2)
H8 H 0.2779 0.6193 0.2934
H9 H 0.2162 0.5603 0.3511
C8 C 0.393(5) 0.481(3) 0.314(2)
H10 H 0.4725 0.5019 0.2876
H11 H 0.4406 0.4522 0.3527
C9 C 0.301(4) 0.401(3) 0.2826(18)
C10 C 0.422(5) 0.680(4) 0.5439(19)
H12 H 0.4987 0.7206 0.5686
H13 H 0.4390 0.6064 0.5528
C11 C 0.264(5) 0.708(4) 0.569(2)
H14 H 0.2515 0.7833 0.5630
H15 H 0.1870 0.6732 0.5409
C12 C 0.230(5) 0.682(3) 0.6373(19)
C13 C 0.942(5) 0.166(3) 0.2112(19)
C14 C 0.936(5) 0.057(3) 0.182(2)
H16 H 1.0179 0.0127 0.1801
C15 C 0.786(5) 0.031(3) 0.157(2)
H17 H 0.7466 0.0879 0.1304
H18 H 0.7201 0.0205 0.1909
C16 C 0.778(5) -0.058(3) 0.055(2)
C17 C 0.809(5) -0.159(3) 0.151(2)
C18 C 0.801(5) -0.250(3) 0.050(2)
C19 C 0.754(5) -0.150(4) -0.045(2)
H19 H 0.8130 -0.2029 -0.0641
H20 H 0.7816 -0.0815 -0.0604
C20 C 0.592(6) -0.172(5) -0.057(2)
H21 H 0.5196 -0.1805 -0.0281
C21 C 0.571(5) -0.179(4) -0.128(2)
C22 C 0.841(5) -0.351(3) 0.145(2)
H22 H 0.9120 -0.3415 0.1818
H23 H 0.8842 -0.3994 0.1164
C23 C 0.693(5) -0.400(3) 0.167(3)
H24 H 0.6490 -0.3510 0.1950
H25 H 0.6222 -0.4100 0.1300
C24 C 0.718(5) -0.505(3) 0.200(2)
N1 N 0.391(4) 0.650(3) 0.3732(16)
N2 N 0.443(4) 0.698(3) 0.4754(15)
N3 N 0.534(4) 0.798(3) 0.3888(16)
N4 N 0.795(4) -0.066(3) 0.1196(16)
N5 N 0.816(4) -0.249(3) 0.1139(16)
N6 N 0.778(4) -0.153(3) 0.0228(16)
O3_2 O 1.167(3) 0.428(2) 0.2767(17)
Mn1_2 Mn 0.6022(6) -0.7292(4) 0.2374(3)
Mn1_3 Mn 0.6022(6) 1.2708(4) 0.2374(3)
Mn1A Mn 0.3978(6) -0.2708(4) -0.2374(3)
Mn1A_2 Mn 0.3978(6) 0.7292(4) 0.7626(3)
Mn2_2 Mn -0.0259(6) 0.3608(5) 0.2469(3)
Mn2_3 Mn 0.9741(6) -0.6392(5) 0.2469(3)
Mn2A Mn 0.0259(6) 0.6392(5) 0.7531(3)
Mn3_2 Mn 0.2795(6) 1.1451(5) 0.2626(3)
Mn3_3 Mn 1.2795(6) 0.1451(5) 0.2626(3)
Mn3A Mn 0.7205(6) -0.1451(5) -0.2626(3)
O4_2 O 0.517(3) 0.126(2) 0.2811(13)
O6A O 0.904(4) 0.336(3) 0.3440(15)
O7A O 0.662(3) 0.319(2) 0.3281(13)
O13_2 O 0.053(3) 0.189(2) 0.2404(15)
O17A O 0.538(4) 0.229(3) 0.1443(14)
O18A O 0.335(4) 0.134(3) 0.1645(15)
O19_2 O 0.625(4) 0.425(2) 0.1923(15)
O20_2 O 0.830(4) 0.488(2) 0.2323(17)
O24 O 0.955(5) 0.046(5) 0.394(3)
O25 O 0.859(6) 0.648(5) 0.572(3)
O26 O 0.355(7) 0.474(6) 0.126(3)
O27 O 0.454(9) 0.860(6) 0.173(4)
O28 O 0.224(8) 0.975(7) 0.492(3)
O29 O 0.867(9) 0.200(7) 0.957(5)
O30 O 0.811(13) 0.330(8) 0.065(4)
O31 O 0.245(15) 0.700(10) 0.153(6)
O32 O 0.146(12) 0.854(11) 0.385(7)
O33 O 0.935(18) 0.439(14) 0.041(7)
loop_
_geom_bond_atom_site_label_1
_geom_bond_atom_site_label_2
_geom_bond_site_symmetry_1
_geom_bond_site_symmetry_2
O3 C9 1_555 1_555
Mn1 O8 1_555 1_555
Mn2 O12 1_555 1_555
Mn3 O8 1_555 1_555
O4 C1 1_555 1_555
O5 C1 1_555 1_555
O6 C12 1_555 1_555
O7 C12 1_555 1_555
O8 C9 1_555 1_555
O9 C5 1_555 1_555
O10 C4 1_555 1_555
O11 C6 1_555 1_555
O12 Mn1 1_555 1_555
O13 Mn2 1_555 1_555
O14 C17 1_555 1_555
O15 C16 1_555 1_555
O16 C18 1_555 1_555
O17 C21 1_555 1_555
O18 C21 1_555 1_555
O19 C24 1_555 1_555
O20 C24 1_555 1_555
O21 Mn3 1_555 1_555
H1 O21 1_555 1_555
O22 Mn3 1_555 1_555
H2 O22 1_555 1_555
O23 Mn2 1_555 1_555
H3 O23 1_555 1_555
C1 C2 1_555 1_555
C2 H4 1_555 1_555
H5 C2 1_555 1_555
C3 C2 1_555 1_555
H6 C3 1_555 1_555
H7 C3 1_555 1_555
C4 N2 1_555 1_555
C5 N1 1_555 1_555
C6 N1 1_555 1_555
C7 H8 1_555 1_555
H9 C7 1_555 1_555
C8 C7 1_555 1_555
H10 C8 1_555 1_555
H11 C8 1_555 1_555
C9 C8 1_555 1_555
C10 H12 1_555 1_555
H13 C10 1_555 1_555
C11 C10 1_555 1_555
H14 C11 1_555 1_555
H15 C11 1_555 1_555
C12 C11 1_555 1_555
C13 O12 1_555 1_555
C14 C13 1_555 1_555
H16 C14 1_555 1_555
C15 C14 1_555 1_555
H17 C15 1_555 1_555
H18 C15 1_555 1_555
C16 N4 1_555 1_555
C17 N4 1_555 1_555
C18 N5 1_555 1_555
C19 H19 1_555 1_555
H20 C19 1_555 1_555
C20 C19 1_555 1_555
H21 C20 1_555 1_555
C21 C20 1_555 1_555
C22 H22 1_555 1_555
H23 C22 1_555 1_555
C23 C22 1_555 1_555
H24 C23 1_555 1_555
H25 C23 1_555 1_555
C24 C23 1_555 1_555
N1 C7 1_555 1_555
N2 C6 1_555 1_555
N3 C3 1_555 1_555
N4 C15 1_555 1_555
N5 C17 1_555 1_555
N6 C16 1_555 1_555
O3_2 Mn2 1_555 1_555
Mn1_2 O19 1_555 1_555
Mn1_3 O4 1_555 1_555
Mn1A O17 1_555 1_555
Mn1A_2 O7 1_555 1_555
Mn2_2 O3 1_555 1_555
Mn2_3 O20 1_555 1_555
Mn2A O6 1_555 1_555
Mn3_2 O4 1_555 1_555
Mn3_3 O13 1_555 1_555
Mn3A O18 1_555 1_555
O4_2 Mn1 1_555 1_555
O6A Mn2 1_555 1_555
O7A Mn1 1_555 1_555
O13_2 Mn3 1_555 1_555
O17A Mn1 1_555 1_555
O18A Mn3 1_555 1_555
O19_2 Mn1 1_555 1_555
O20_2 Mn2 1_555 1_555
Mn3 O4_2 1_555 1_555
O13 C13 1_555 1_555
C4 N3 1_555 1_555
C5 N3 1_555 1_555
C10 N2 1_555 1_555
C18 N6 1_555 1_555
C19 N6 1_555 1_555
C22 N5 1_555 1_555
Mn2_2 O13_2 1_555 1_555

#END
