
#######################################################################
#
#                 Cambridge Crystallographic Data Centre
#                                CCDC 
#
#######################################################################
#
# If this CIF has been generated from an entry in the Cambridge 
# Structural Database, then it will include bibliographic, chemical, 
# crystal, experimental, refinement or atomic coordinate data resulting 
# from the CCDC's data processing and validation procedures.
#
#######################################################################

data_GUDJOG
_chemical_formula_moiety         '(C36 H43 N4 O10 Sm1)n'
_symmetry_cell_setting           monoclinic
_symmetry_space_group_name_H-M   'C 2/c'
_symmetry_Int_Tables_number      15
_space_group_name_Hall           '-C 2yc'
loop_
_symmetry_equiv_pos_site_id
_symmetry_equiv_pos_as_xyz
1 x,y,z
2 -x,y,1/2-z
3 1/2+x,1/2+y,z
4 1/2-x,1/2+y,1/2-z
5 -x,-y,-z
6 x,-y,1/2+z
7 1/2-x,1/2-y,-z
8 1/2+x,1/2-y,1/2+z
_cell_length_a                   32.599(5)
_cell_length_b                   8.8449(14)
_cell_length_c                   34.246(8)
_cell_angle_alpha                90
_cell_angle_beta                 116.457(2)
_cell_angle_gamma                90
_cell_volume                     8840.17
loop_
_atom_site_label
_atom_site_type_symbol
_atom_site_fract_x
_atom_site_fract_y
_atom_site_fract_z
_atom_site_U_iso_or_equiv
_atom_site_thermal_displace_type
Sm1 Sm 0.493377(11) 0.87809(4) 0.118359(10) 0.0276 Uani
C1 C 0.88943(18) -0.3520(7) 0.47635(17) 0.0287 Uani
C2 C 0.58010(19) 0.7182(7) 0.24924(18) 0.0270 Uani
C3 C 0.8117(2) -0.1088(8) 0.33292(19) 0.0423 Uani
H1 H 0.8000 -0.1969 0.3144 0.0510 Uiso
H2 H 0.8408 -0.0813 0.3337 0.0510 Uiso
C4 C 0.5760(2) 0.7751(7) 0.28478(19) 0.0352 Uani
H3 H 0.5547 0.8497 0.2817 0.0420 Uiso
C5 C 0.61096(19) 0.6021(7) 0.25313(18) 0.0306 Uani
H4 H 0.6119 0.5625 0.2284 0.0360 Uiso
C6 C 0.6826(2) 0.3843(8) 0.26568(19) 0.0402 Uani
H5 H 0.6959 0.4676 0.2567 0.0480 Uiso
H6 H 0.6553 0.3510 0.2405 0.0480 Uiso
C7 C 0.7163(2) 0.2568(7) 0.28240(18) 0.0312 Uani
C8 C 0.7635(2) 0.2889(7) 0.3038(2) 0.0330 Uani
C9 C 0.7782(2) 0.0211(7) 0.31489(19) 0.0304 Uani
C10 C 0.7004(2) 0.1043(7) 0.27876(19) 0.0346 Uani
N1 N 0.67064(19) 0.4345(6) 0.29975(16) 0.0459 Uani
H7 H 0.6836 0.3911 0.3248 0.0550 Uiso
C11 C 0.8501(2) -0.2426(8) 0.4040(2) 0.0386 Uani
C12 C 0.8563(2) -0.2567(7) 0.4469(2) 0.0397 Uani
H8 H 0.8379 -0.2010 0.4559 0.0480 Uiso
C13 C 0.6052(2) 0.7166(8) 0.3257(2) 0.0371 Uani
N2 N 0.81766(19) -0.1427(7) 0.37626(17) 0.0623 Uani
H9 H 0.8001 -0.0982 0.3854 0.0750 Uiso
C14 C 0.6399(2) 0.5468(7) 0.2939(2) 0.0343 Uani
C15 C 0.9178(2) -0.4350(6) 0.46308(19) 0.0280 Uani
H10 H 0.9409 -0.4965 0.4828 0.0340 Uiso
C16 C 0.8777(2) -0.3296(6) 0.39113(19) 0.0325 Uani
H11 H 0.8736 -0.3239 0.3625 0.0390 Uiso
C17 C 0.7947(2) 0.1665(7) 0.3206(2) 0.0329 Uani
C18 C 0.7317(2) -0.0098(7) 0.2953(2) 0.0345 Uani
C19 C 0.8957(2) -0.3645(9) 0.52180(19) 0.0415 Uani
C20 C 0.7805(2) 0.4499(7) 0.3113(2) 0.0535 Uani
H12 H 0.7556 0.5172 0.2951 0.0800 Uiso
H13 H 0.8040 0.4618 0.3019 0.0800 Uiso
H14 H 0.7928 0.4733 0.3419 0.0800 Uiso
C21 C 0.6364(2) 0.6047(8) 0.33015(19) 0.0420 Uani
H15 H 0.6554 0.5672 0.3578 0.0500 Uiso
C22 C 0.7142(2) -0.1692(7) 0.2917(2) 0.0591 Uani
H16 H 0.6864 -0.1691 0.2949 0.0880 Uiso
H17 H 0.7368 -0.2301 0.3142 0.0880 Uiso
H18 H 0.7082 -0.2100 0.2637 0.0880 Uiso
C23 C 0.6491(2) 0.0746(7) 0.2581(2) 0.0550 Uani
H19 H 0.6386 0.0476 0.2280 0.0830 Uiso
H20 H 0.6334 0.1641 0.2600 0.0830 Uiso
H21 H 0.6428 -0.0067 0.2732 0.0830 Uiso
C24 C 0.8459(2) 0.2021(8) 0.3449(2) 0.0592 Uani
H22 H 0.8611 0.1236 0.3657 0.0890 Uiso
H23 H 0.8501 0.2970 0.3598 0.0890 Uiso
H24 H 0.8585 0.2080 0.3244 0.0890 Uiso
C25 C 0.55034(19) 0.7797(7) 0.2040(2) 0.0303 Uani
O1 O 0.53003(13) 0.9071(4) 0.19979(12) 0.0332 Uani
O2 O 0.54556(14) 0.7033(5) 0.17131(13) 0.0366 Uani
O3 O 0.86433(15) -0.2939(6) 0.52807(13) 0.0578 Uani
H25 H 0.8736 -0.2776 0.5542 0.0860 Uiso
O4 O 0.47666(14) 1.1284(6) 0.12491(14) 0.0542 Uani
C26 C 0.6012(3) 0.7695(8) 0.3658(2) 0.0461 Uani
C27 C 0.5382(3) 1.3057(10) 0.1710(3) 0.0864 Uani
H26 H 0.5560 1.2551 0.1590 0.1300 Uiso
H27 H 0.5524 1.2927 0.2020 0.1300 Uiso
H28 H 0.5364 1.4116 0.1642 0.1300 Uiso
C28 C 0.4875(5) 1.2353(11) 0.1504(3) 0.1161 Uani
C29 C 0.4727(4) 1.4327(10) 0.1927(3) 0.1206 Uani
H29 H 0.5051 1.4509 0.2077 0.1800 Uiso
H30 H 0.4614 1.4092 0.2135 0.1800 Uiso
H31 H 0.4575 1.5214 0.1766 0.1800 Uiso
C30 C 0.4133(4) 1.2262(14) 0.1477(5) 0.1687 Uani
H32 H 0.3896 1.2987 0.1324 0.2530 Uiso
H33 H 0.4107 1.1909 0.1729 0.2530 Uiso
H34 H 0.4103 1.1424 0.1288 0.2530 Uiso
O5 O 0.47378(15) 0.6382(6) 0.08318(14) 0.0529 Uani
N3 N 0.4638(5) 1.3064(9) 0.1629(3) 0.1414 Uani
C31 C 0.5379(3) 0.5129(11) 0.0749(3) 0.1063 Uani
H35 H 0.5545 0.4413 0.0976 0.1600 Uiso
H36 H 0.5523 0.6102 0.0829 0.1600 Uiso
H37 H 0.5380 0.4802 0.0482 0.1600 Uiso
C32 C 0.4808(5) 0.5255(12) 0.0676(3) 0.1161 Uani
C33 C 0.4758(4) 0.2886(9) 0.0309(3) 0.1012 Uani
H38 H 0.5037 0.2903 0.0279 0.1510 Uiso
H39 H 0.4502 0.2772 0.0027 0.1510 Uiso
H40 H 0.4766 0.2053 0.0492 0.1510 Uiso
C34 C 0.4146(3) 0.4363(10) 0.0449(4) 0.1098 Uani
H41 H 0.4125 0.5170 0.0626 0.1650 Uiso
H42 H 0.4071 0.3423 0.0541 0.1650 Uiso
H43 H 0.3936 0.4546 0.0149 0.1650 Uiso
O6 O 0.63494(16) 0.7489(7) 0.40216(14) 0.0764 Uani
N4 N 0.4714(5) 0.4271(9) 0.0502(3) 0.1414 Uani
C35 C 0.9109(2) -0.4240(6) 0.42032(19) 0.0288 Uani
O7 O 0.92816(14) -0.4301(4) 0.54989(12) 0.0336 Uani
C36 C 0.9408(2) -0.5115(7) 0.4053(2) 0.0284 Uani
O8 O 0.97213(14) -0.5921(5) 0.43189(13) 0.0416 Uani
O9 O 0.93365(14) -0.5025(5) 0.36640(13) 0.0460 Uani
O10 O 0.56481(15) 0.8252(5) 0.36111(13) 0.0465 Uani
Sm1A Sm 0.506623(11) 0.87809(4) 0.381641(10) 0.0276 Uani
Sm1C Sm 1.006623(11) -0.62191(4) 0.381641(10) 0.0276 Uani
Sm1G Sm 0.993377(11) -0.37809(4) 0.618359(10) 0.0276 Uani
O7G O 0.42816(14) 0.9301(4) 0.04989(12) 0.0336 Uani
O8C O 0.52787(14) 0.9079(5) 0.06811(13) 0.0416 Uani
O9C O 0.56635(14) 0.9975(5) 0.13360(13) 0.0460 Uani
O10A O 0.43519(15) 0.8252(5) 0.13889(13) 0.0465 Uani
loop_
_atom_site_aniso_label
_atom_site_aniso_U_11
_atom_site_aniso_U_22
_atom_site_aniso_U_33
_atom_site_aniso_U_23
_atom_site_aniso_U_13
_atom_site_aniso_U_12
Sm1 0.03184(16) 0.03211(19) 0.01988(16) 0.00157(19) 0.01252(12) -0.00766(19)
C1 0.031(3) 0.037(4) 0.020(3) 0.005(3) 0.013(3) 0.006(3)
C2 0.029(3) 0.032(4) 0.021(3) 0.001(3) 0.012(3) 0.004(3)
C3 0.063(4) 0.042(4) 0.031(4) 0.007(4) 0.029(3) 0.018(4)
C4 0.032(4) 0.051(5) 0.026(4) 0.005(3) 0.016(3) 0.017(3)
C5 0.048(4) 0.029(4) 0.021(3) 0.000(3) 0.021(3) 0.002(3)
C6 0.048(4) 0.049(4) 0.030(4) 0.002(4) 0.023(3) 0.015(4)
C7 0.032(4) 0.047(5) 0.016(3) 0.005(3) 0.012(3) 0.014(3)
C8 0.048(4) 0.024(4) 0.030(4) -0.004(3) 0.020(3) 0.004(3)
C9 0.042(4) 0.029(4) 0.024(4) 0.006(3) 0.018(3) 0.016(3)
C10 0.034(3) 0.033(4) 0.038(4) 0.001(3) 0.017(3) -0.001(3)
N1 0.069(4) 0.048(4) 0.027(3) 0.016(3) 0.027(3) 0.034(3)
C11 0.041(4) 0.051(5) 0.027(4) 0.005(3) 0.018(3) 0.017(3)
C12 0.041(4) 0.054(5) 0.029(4) 0.004(3) 0.020(3) 0.017(3)
C13 0.043(4) 0.052(5) 0.025(4) 0.003(3) 0.023(3) 0.011(3)
N2 0.078(4) 0.086(5) 0.035(3) 0.032(4) 0.036(3) 0.062(4)
C14 0.038(4) 0.041(4) 0.033(4) 0.006(3) 0.024(3) 0.014(3)
C15 0.032(3) 0.026(4) 0.026(4) 0.003(3) 0.013(3) 0.005(3)
C16 0.038(4) 0.039(4) 0.024(3) 0.000(3) 0.017(3) 0.005(3)
C17 0.034(4) 0.033(4) 0.033(4) 0.002(3) 0.016(3) 0.007(3)
C18 0.045(4) 0.024(4) 0.032(4) 0.003(3) 0.015(3) 0.009(3)
C19 0.035(4) 0.065(5) 0.026(4) -0.011(4) 0.015(3) -0.015(4)
C20 0.067(5) 0.039(4) 0.049(5) -0.006(4) 0.021(4) -0.005(4)
C21 0.048(4) 0.059(5) 0.027(4) 0.015(4) 0.024(3) 0.029(4)
C22 0.066(5) 0.044(5) 0.064(5) 0.009(4) 0.026(4) 0.006(4)
C23 0.054(5) 0.038(5) 0.071(6) -0.006(4) 0.026(4) -0.004(3)
C24 0.036(4) 0.074(6) 0.063(5) -0.008(4) 0.018(4) 0.013(4)
C25 0.025(3) 0.040(4) 0.031(4) 0.001(3) 0.017(3) -0.006(3)
O1 0.041(3) 0.036(3) 0.026(2) 0.007(2) 0.018(2) 0.009(2)
O2 0.050(3) 0.037(3) 0.020(2) -0.008(2) 0.013(2) 0.005(2)
O3 0.049(3) 0.106(4) 0.021(3) 0.005(3) 0.018(2) 0.033(3)
O4 0.050(3) 0.048(3) 0.049(3) -0.009(3) 0.008(2) 0.001(3)
C26 0.053(5) 0.061(5) 0.033(4) 0.015(4) 0.027(4) 0.021(4)
C27 0.052(5) 0.108(8) 0.079(7) -0.028(6) 0.011(5) -0.032(5)
C28 0.250(11) 0.036(5) 0.059(5) 0.015(4) 0.066(6) 0.044(6)
C29 0.179(12) 0.067(7) 0.124(9) -0.026(7) 0.075(9) 0.021(7)
C30 0.097(9) 0.151(12) 0.283(19) -0.038(12) 0.107(12) -0.036(9)
O5 0.064(3) 0.042(3) 0.043(3) -0.007(3) 0.015(2) -0.013(3)
N3 0.292(11) 0.039(4) 0.080(5) 0.000(3) 0.071(6) 0.050(5)
C31 0.066(6) 0.111(9) 0.155(10) 0.040(8) 0.061(7) 0.025(6)
C32 0.250(11) 0.036(5) 0.059(5) 0.015(4) 0.066(6) 0.044(6)
C33 0.161(10) 0.058(6) 0.067(7) -0.007(5) 0.035(7) 0.027(6)
C34 0.093(8) 0.049(6) 0.155(11) 0.000(6) 0.026(7) -0.016(5)
O6 0.054(3) 0.155(6) 0.018(3) 0.005(3) 0.014(3) 0.054(3)
N4 0.292(11) 0.039(4) 0.080(5) 0.000(3) 0.071(6) 0.050(5)
C35 0.034(4) 0.028(4) 0.028(4) -0.002(3) 0.017(3) 0.006(3)
O7 0.040(3) 0.041(3) 0.016(2) 0.0074(19) 0.009(2) 0.012(2)
C36 0.039(4) 0.025(4) 0.028(4) -0.003(3) 0.021(3) 0.006(3)
O8 0.043(3) 0.056(3) 0.030(2) 0.020(2) 0.020(2) 0.030(2)
O9 0.053(3) 0.069(4) 0.022(2) 0.007(2) 0.022(2) 0.032(3)
O10 0.048(3) 0.069(4) 0.030(3) -0.001(2) 0.024(2) 0.017(3)
Sm1A 0.03184 0.03211 0.01988 -0.00157 0.01252 0.00766
Sm1C 0.03184 0.03211 0.01988 -0.00157 0.01252 0.00766
Sm1G 0.03184 0.03211 0.01988 -0.00157 0.01252 0.00766
O7G 0.04 0.041 0.016 -0.0074 0.009 -0.012
O8C 0.043 0.056 0.03 -0.02 0.02 -0.03
O9C 0.053 0.069 0.022 -0.007 0.022 -0.032
O10A 0.048 0.069 0.03 0.001 0.024 -0.017
loop_
_geom_bond_atom_site_label_1
_geom_bond_atom_site_label_2
_geom_bond_site_symmetry_1
_geom_bond_site_symmetry_2
Sm1 O1 1_555 1_555
C1 C12 1_555 1_555
C2 C4 1_555 1_555
C3 H1 1_555 1_555
H2 C3 1_555 1_555
C4 H3 1_555 1_555
C5 C2 1_555 1_555
H4 C5 1_555 1_555
C6 H5 1_555 1_555
H6 C6 1_555 1_555
C7 C6 1_555 1_555
C8 C7 1_555 1_555
C9 C3 1_555 1_555
C10 C7 1_555 1_555
N1 C6 1_555 1_555
H7 N1 1_555 1_555
C11 C12 1_555 1_555
C12 H8 1_555 1_555
C13 C4 1_555 1_555
N2 C3 1_555 1_555
H9 N2 1_555 1_555
C14 C5 1_555 1_555
C15 C1 1_555 1_555
H10 C15 1_555 1_555
C16 C11 1_555 1_555
H11 C16 1_555 1_555
C17 C8 1_555 1_555
C18 C9 1_555 1_555
C19 C1 1_555 1_555
C20 C8 1_555 1_555
H12 C20 1_555 1_555
H13 C20 1_555 1_555
H14 C20 1_555 1_555
C21 C13 1_555 1_555
H15 C21 1_555 1_555
C22 C18 1_555 1_555
H16 C22 1_555 1_555
H17 C22 1_555 1_555
H18 C22 1_555 1_555
C23 C10 1_555 1_555
H19 C23 1_555 1_555
H20 C23 1_555 1_555
H21 C23 1_555 1_555
C24 C17 1_555 1_555
H22 C24 1_555 1_555
H23 C24 1_555 1_555
H24 C24 1_555 1_555
C25 C2 1_555 1_555
O1 C25 1_555 1_555
O2 Sm1 1_555 1_555
O3 C19 1_555 1_555
H25 O3 1_555 1_555
O4 Sm1 1_555 1_555
C26 C13 1_555 1_555
C27 H26 1_555 1_555
H27 C27 1_555 1_555
H28 C27 1_555 1_555
C28 O4 1_555 1_555
C29 H29 1_555 1_555
H30 C29 1_555 1_555
H31 C29 1_555 1_555
C30 H32 1_555 1_555
H33 C30 1_555 1_555
H34 C30 1_555 1_555
O5 Sm1 1_555 1_555
N3 C28 1_555 1_555
C31 H35 1_555 1_555
H36 C31 1_555 1_555
H37 C31 1_555 1_555
C32 O5 1_555 1_555
C33 H38 1_555 1_555
H39 C33 1_555 1_555
H40 C33 1_555 1_555
C34 H41 1_555 1_555
H42 C34 1_555 1_555
H43 C34 1_555 1_555
O6 C26 1_555 1_555
N4 C32 1_555 1_555
C35 C15 1_555 1_555
O7 C19 1_555 1_555
C36 C35 1_555 1_555
O8 C36 1_555 1_555
O9 C36 1_555 1_555
O10 C26 1_555 1_555
Sm1A O10 1_555 1_555
Sm1C O8 1_555 1_555
Sm1G O7 1_555 1_555
O7G Sm1 1_555 1_555
O8C Sm1 1_555 1_555
O9C Sm1 1_555 1_555
O10A Sm1 1_555 1_555
C9 C17 1_555 1_555
C10 C18 1_555 1_555
N1 C14 1_555 1_555
C11 N2 1_555 1_555
C14 C21 1_555 1_555
C16 C35 1_555 1_555
C25 O2 1_555 1_555
C27 C28 1_555 1_555
C29 N3 1_555 1_555
C30 N3 1_555 1_555
C31 C32 1_555 1_555
C33 N4 1_555 1_555
C34 N4 1_555 1_555
O9 Sm1C 1_555 1_555

#END
