
#######################################################################
#
#                 Cambridge Crystallographic Data Centre
#                                CCDC 
#
#######################################################################
#
# If this CIF has been generated from an entry in the Cambridge 
# Structural Database, then it will include bibliographic, chemical, 
# crystal, experimental, refinement or atomic coordinate data resulting 
# from the CCDC's data processing and validation procedures.
#
#######################################################################

data_GUHNUU
_chemical_formula_moiety         '(C36 H43 La1 N4 O10)n'
_symmetry_cell_setting           monoclinic
_symmetry_space_group_name_H-M   'C 2/c'
_symmetry_Int_Tables_number      15
_space_group_name_Hall           '-C 2yc'
loop_
_symmetry_equiv_pos_site_id
_symmetry_equiv_pos_as_xyz
1 x,y,z
2 -x,y,1/2-z
3 1/2+x,1/2+y,z
4 1/2-x,1/2+y,1/2-z
5 -x,-y,-z
6 x,-y,1/2+z
7 1/2-x,1/2-y,-z
8 1/2+x,1/2-y,1/2+z
_cell_length_a                   32.985(7)
_cell_length_b                   8.9901(19)
_cell_length_c                   34.432(7)
_cell_angle_alpha                90
_cell_angle_beta                 115.591(2)
_cell_angle_gamma                90
_cell_volume                     9208.77
loop_
_atom_site_label
_atom_site_type_symbol
_atom_site_fract_x
_atom_site_fract_y
_atom_site_fract_z
_atom_site_U_iso_or_equiv
_atom_site_thermal_displace_type
La1 La -0.003603(11) -0.35750(4) 0.119026(9) 0.0297 Uani
O1 O 0.04928(16) -0.1810(5) 0.17394(12) 0.0479 Uani
O2 O 0.03234(14) -0.3782(5) 0.20213(12) 0.0415 Uani
O3 O 0.42873(15) 1.0179(6) 0.36586(13) 0.0548 Uani
O4 O 0.46766(16) 1.0974(6) 0.43149(14) 0.0594 Uani
O5 O 0.42924(14) 0.9069(5) 0.54928(12) 0.0459 Uani
O6 O 0.36753(18) 0.7689(8) 0.52932(14) 0.0824 Uani
H1 H 0.3782 0.7444 0.5547 0.1240 Uiso
O7 O 0.06515(15) -0.2990(6) 0.36154(14) 0.0605 Uani
O8 O -0.0203(2) -0.1138(6) 0.08220(18) 0.0722 Uani
O9 O -0.02051(18) -0.6123(5) 0.12749(17) 0.0652 Uani
O10 O 0.1333(2) -0.2248(9) 0.40144(15) 0.1099 Uani
N1 N 0.1717(3) 0.0828(9) 0.3008(2) 0.0910 Uani
H2 H 0.1852 0.1223 0.3259 0.1090 Uiso
N2 N 0.3157(3) 0.6578(8) 0.3754(2) 0.0910 Uani
H3 H 0.2988 0.6126 0.3848 0.1090 Uiso
N3 N -0.0342(3) -0.7927(9) 0.1641(2) 0.0910 Uani
N4 N -0.0290(3) 0.1032(9) 0.0462(2) 0.0910 Uani
C1 C 0.3082(2) 0.6280(8) 0.33175(19) 0.0501 Uani
H4 H 0.3364 0.6031 0.3309 0.0600 Uiso
H5 H 0.2960 0.7158 0.3142 0.0600 Uiso
C2 C 0.2754(2) 0.4992(7) 0.31402(18) 0.0416 Uani
C3 C 0.2293(2) 0.5278(7) 0.29424(18) 0.0441 Uani
C4 C 0.1988(2) 0.4092(7) 0.27854(19) 0.0440 Uani
C5 C 0.2156(2) 0.2632(7) 0.28328(18) 0.0403 Uani
C6 C 0.2622(2) 0.2344(7) 0.30426(18) 0.0423 Uani
C7 C 0.2923(2) 0.3540(8) 0.3195(2) 0.0456 Uani
C8 C 0.1824(2) 0.1362(7) 0.26675(19) 0.0440 Uani
H6 H 0.1552 0.1698 0.2427 0.0530 Uiso
H7 H 0.1953 0.0561 0.2568 0.0530 Uiso
C9 C 0.1488(2) 0.4377(10) 0.2579(3) 0.0752 Uani
H8 H 0.1428 0.5308 0.2680 0.1130 Uiso
H9 H 0.1338 0.3590 0.2655 0.1130 Uiso
H10 H 0.1380 0.4412 0.2272 0.1130 Uiso
C10 C 0.2116(3) 0.6850(8) 0.2910(3) 0.0723 Uani
H11 H 0.2342 0.7542 0.2920 0.1080 Uiso
H12 H 0.2041 0.7038 0.3145 0.1080 Uiso
H13 H 0.1852 0.6966 0.2642 0.1080 Uiso
C11 C 0.3424(3) 0.3222(10) 0.3419(3) 0.0777 Uani
H14 H 0.3556 0.3401 0.3223 0.1160 Uiso
H15 H 0.3471 0.2202 0.3511 0.1160 Uiso
H16 H 0.3562 0.3861 0.3665 0.1160 Uiso
C12 C 0.2790(3) 0.0768(9) 0.3106(2) 0.0654 Uani
H17 H 0.2548 0.0111 0.2938 0.0980 Uiso
H18 H 0.2902 0.0508 0.3405 0.0980 Uiso
H19 H 0.3026 0.0676 0.3016 0.0980 Uiso
C13 C 0.1409(2) -0.0287(7) 0.29484(18) 0.0388 Uani
C14 C 0.11320(19) -0.0859(7) 0.25493(18) 0.0375 Uani
H20 H 0.1154 -0.0499 0.2306 0.0450 Uiso
C15 C 0.08213(19) -0.1958(7) 0.25046(17) 0.0336 Uani
C16 C 0.07773(19) -0.2510(7) 0.28628(17) 0.0372 Uani
H21 H 0.0565 -0.3236 0.2833 0.0450 Uiso
C17 C 0.1060(2) -0.1945(7) 0.32647(18) 0.0383 Uani
C18 C 0.1372(2) -0.0870(7) 0.33062(19) 0.0416 Uani
H22 H 0.1563 -0.0526 0.3579 0.0500 Uiso
C19 C 0.05273(19) -0.2550(7) 0.20613(17) 0.0349 Uani
C20 C 0.43592(19) 1.0211(7) 0.40461(17) 0.0361 Uani
C21 C 0.40731(19) 0.9308(7) 0.41928(17) 0.0362 Uani
C22 C 0.4161(2) 0.9301(7) 0.46256(17) 0.0402 Uani
H23 H 0.4393 0.9871 0.4825 0.0480 Uiso
C23 C 0.3890(2) 0.8411(7) 0.47565(18) 0.0405 Uani
C24 C 0.3555(2) 0.7553(8) 0.44624(18) 0.0469 Uani
H24 H 0.3377 0.6980 0.4553 0.0570 Uiso
C25 C 0.3475(2) 0.7519(7) 0.40293(18) 0.0440 Uani
C26 C 0.3738(2) 0.8420(7) 0.38974(18) 0.0418 Uani
H25 H 0.3688 0.8424 0.3610 0.0500 Uiso
C27 C 0.3971(2) 0.8413(7) 0.52199(19) 0.0428 Uani
C28 C 0.1000(2) -0.2450(8) 0.36512(19) 0.0452 Uani
C29 C -0.0047(3) -0.0124(10) 0.0690(3) 0.1111 Uani
C30 C -0.0073(3) -0.7216(10) 0.1517(3) 0.1111 Uani
C31 C -0.0794(4) -0.7243(13) 0.1467(4) 0.1353 Uani
H26 H -0.0846 -0.6835 0.1700 0.2030 Uiso
H27 H -0.1017 -0.7985 0.1320 0.2030 Uiso
H28 H -0.0812 -0.6464 0.1270 0.2030 Uiso
C32 C -0.0252(4) -0.9233(12) 0.1908(4) 0.1353 Uani
H29 H -0.0341 -1.0103 0.1729 0.2030 Uiso
H30 H -0.0419 -0.9181 0.2078 0.2030 Uiso
H31 H 0.0063 -0.9286 0.2096 0.2030 Uiso
C33 C 0.0387(3) -0.7907(12) 0.1746(4) 0.1127 Uani
H32 H 0.0609 -0.7226 0.1743 0.1680 Uiso
H33 H 0.0398 -0.8810 0.1602 0.1680 Uiso
H34 H 0.0445 -0.8124 0.2038 0.1680 Uiso
C34 C 0.0439(3) 0.0068(13) 0.0751(4) 0.1127 Uani
H35 H 0.0553 0.1009 0.0886 0.1680 Uiso
H36 H 0.0446 0.0033 0.0475 0.1680 Uiso
H37 H 0.0621 -0.0719 0.0930 0.1680 Uiso
C35 C -0.0749(4) 0.0872(14) 0.0437(4) 0.1353 Uani
H38 H -0.0942 0.0411 0.0169 0.2030 Uiso
H39 H -0.0866 0.1836 0.0454 0.2030 Uiso
H40 H -0.0737 0.0266 0.0671 0.2030 Uiso
C36 C -0.0159(4) 0.2287(12) 0.0289(4) 0.1353 Uani
H41 H -0.0272 0.3180 0.0359 0.2030 Uiso
H42 H -0.0279 0.2190 -0.0019 0.2030 Uiso
H43 H 0.0163 0.2333 0.0409 0.2030 Uiso
La1A La 0.003603(11) -0.35750(4) 0.380974(9) 0.0297 Uani
La1C La 0.503603(11) 1.14250(4) 0.380974(9) 0.0297 Uani
La1G La 0.496397(11) 0.85750(4) 0.619026(9) 0.0297 Uani
O3C O 0.07127(15) -0.4821(6) 0.13414(13) 0.0548 Uani
O4C O 0.03234(16) -0.4026(6) 0.06851(14) 0.0594 Uani
O5G O -0.07076(14) -0.4069(5) 0.04928(12) 0.0459 Uani
O7A O -0.06515(15) -0.2990(6) 0.13846(14) 0.0605 Uani
loop_
_atom_site_aniso_label
_atom_site_aniso_U_11
_atom_site_aniso_U_22
_atom_site_aniso_U_33
_atom_site_aniso_U_23
_atom_site_aniso_U_13
_atom_site_aniso_U_12
La1 0.0312(2) 0.0344(2) 0.02194(17) -0.00031(14) 0.01006(14) 0.00783(15)
O1 0.068(3) 0.044(3) 0.027(2) 0.0024(19) 0.016(2) -0.015(2)
O2 0.049(3) 0.045(3) 0.027(2) -0.0027(18) 0.0130(19) -0.015(2)
O3 0.050(3) 0.081(4) 0.036(2) -0.004(2) 0.021(2) -0.029(2)
O4 0.066(3) 0.079(4) 0.038(2) -0.017(2) 0.027(2) -0.043(3)
O5 0.041(2) 0.061(3) 0.024(2) -0.001(2) 0.0029(18) -0.015(2)
O6 0.073(4) 0.144(6) 0.029(2) -0.006(3) 0.021(2) -0.060(4)
O7 0.046(3) 0.099(4) 0.041(3) 0.006(3) 0.023(2) -0.024(3)
O8 0.090(4) 0.041(3) 0.078(4) 0.024(3) 0.029(3) 0.004(3)
O9 0.068(3) 0.044(3) 0.064(3) 0.014(2) 0.010(3) 0.001(2)
O10 0.082(4) 0.215(8) 0.026(3) -0.002(4) 0.017(3) -0.085(5)
N1 0.130(4) 0.084(3) 0.060(2) -0.018(2) 0.042(2) -0.048(2)
N2 0.130(4) 0.084(3) 0.060(2) -0.018(2) 0.042(2) -0.048(2)
N3 0.130(4) 0.084(3) 0.060(2) -0.018(2) 0.042(2) -0.048(2)
N4 0.130(4) 0.084(3) 0.060(2) -0.018(2) 0.042(2) -0.048(2)
C1 0.059(3) 0.056(3) 0.034(2) -0.007(2) 0.019(2) -0.027(3)
C2 0.048(3) 0.048(3) 0.031(2) -0.005(2) 0.019(2) -0.019(2)
C3 0.054(3) 0.042(3) 0.035(2) -0.003(2) 0.018(2) -0.013(2)
C4 0.044(3) 0.047(3) 0.039(3) -0.004(2) 0.016(2) -0.010(2)
C5 0.048(3) 0.039(3) 0.035(2) -0.007(2) 0.019(2) -0.015(2)
C6 0.050(3) 0.045(3) 0.034(2) -0.002(2) 0.020(2) -0.010(2)
C7 0.045(3) 0.055(3) 0.037(2) -0.004(2) 0.018(2) -0.013(2)
C8 0.051(3) 0.046(3) 0.037(2) -0.004(2) 0.021(2) -0.018(2)
C9 0.055(4) 0.072(5) 0.082(5) -0.001(4) 0.014(4) -0.005(4)
C10 0.081(5) 0.050(4) 0.072(5) -0.007(4) 0.020(4) -0.002(4)
C11 0.057(4) 0.094(6) 0.069(5) 0.001(4) 0.015(4) -0.008(4)
C12 0.068(4) 0.054(4) 0.065(4) 0.003(4) 0.020(4) 0.004(4)
C13 0.042(2) 0.044(3) 0.032(2) -0.006(2) 0.0176(19) -0.013(2)
C14 0.043(3) 0.044(3) 0.030(2) -0.002(2) 0.020(2) -0.009(2)
C15 0.035(2) 0.040(3) 0.030(2) -0.005(2) 0.018(2) -0.006(2)
C16 0.037(2) 0.046(3) 0.031(2) -0.002(2) 0.017(2) -0.010(2)
C17 0.037(3) 0.049(3) 0.033(2) -0.002(2) 0.019(2) -0.012(2)
C18 0.042(3) 0.050(3) 0.031(2) -0.008(2) 0.014(2) -0.015(2)
C19 0.035(3) 0.043(3) 0.029(2) -0.005(2) 0.016(2) -0.001(2)
C20 0.039(3) 0.043(3) 0.028(2) -0.005(2) 0.016(2) -0.017(2)
C21 0.039(3) 0.043(3) 0.029(2) -0.004(2) 0.017(2) -0.013(2)
C22 0.043(3) 0.047(3) 0.028(2) -0.003(2) 0.013(2) -0.014(2)
C23 0.043(3) 0.049(3) 0.029(2) -0.002(2) 0.015(2) -0.015(2)
C24 0.054(3) 0.056(3) 0.033(2) -0.002(2) 0.021(2) -0.022(2)
C25 0.049(3) 0.051(3) 0.029(2) -0.009(2) 0.014(2) -0.025(2)
C26 0.048(3) 0.050(3) 0.028(2) -0.004(2) 0.017(2) -0.016(2)
C27 0.044(3) 0.054(3) 0.032(3) -0.002(2) 0.018(2) -0.013(3)
C28 0.046(3) 0.059(3) 0.031(3) -0.002(2) 0.017(2) -0.017(3)
C29 0.144(6) 0.089(5) 0.085(4) -0.028(4) 0.035(4) -0.012(5)
C30 0.144(6) 0.089(5) 0.085(4) -0.028(4) 0.035(4) -0.012(5)
C31 0.144(4) 0.101(4) 0.143(4) 0.021(4) 0.045(4) -0.012(4)
C32 0.144(4) 0.101(4) 0.143(4) 0.021(4) 0.045(4) -0.012(4)
C33 0.098(5) 0.094(5) 0.135(5) -0.002(4) 0.040(4) 0.001(4)
C34 0.098(5) 0.094(5) 0.135(5) -0.002(4) 0.040(4) 0.001(4)
C35 0.144(4) 0.101(4) 0.143(4) 0.021(4) 0.045(4) -0.012(4)
C36 0.144(4) 0.101(4) 0.143(4) 0.021(4) 0.045(4) -0.012(4)
La1A 0.0312 0.0344 0.02194 0.00031 0.01006 -0.00783
La1C 0.0312 0.0344 0.02194 0.00031 0.01006 -0.00783
La1G 0.0312 0.0344 0.02194 0.00031 0.01006 -0.00783
O3C 0.05 0.081 0.036 0.004 0.021 0.029
O4C 0.066 0.079 0.038 0.017 0.027 0.043
O5G 0.041 0.061 0.024 0.001 0.0029 0.015
O7A 0.046 0.099 0.041 -0.006 0.023 0.024
loop_
_geom_bond_atom_site_label_1
_geom_bond_atom_site_label_2
_geom_bond_site_symmetry_1
_geom_bond_site_symmetry_2
La1 O1 1_555 1_555
O1 C19 1_555 1_555
O2 La1 1_555 1_555
O3 C20 1_555 1_555
O4 C20 1_555 1_555
O5 C27 1_555 1_555
O6 H1 1_555 1_555
O7 C28 1_555 1_555
O8 La1 1_555 1_555
O9 La1 1_555 1_555
O10 C28 1_555 1_555
N1 H2 1_555 1_555
N2 H3 1_555 1_555
N3 C30 1_555 1_555
N4 C29 1_555 1_555
C1 N2 1_555 1_555
H4 C1 1_555 1_555
H5 C1 1_555 1_555
C2 C1 1_555 1_555
C3 C2 1_555 1_555
C4 C3 1_555 1_555
C5 C4 1_555 1_555
C6 C5 1_555 1_555
C7 C2 1_555 1_555
C8 N1 1_555 1_555
H6 C8 1_555 1_555
H7 C8 1_555 1_555
C9 C4 1_555 1_555
H8 C9 1_555 1_555
H9 C9 1_555 1_555
H10 C9 1_555 1_555
C10 C3 1_555 1_555
H11 C10 1_555 1_555
H12 C10 1_555 1_555
H13 C10 1_555 1_555
C11 C7 1_555 1_555
H14 C11 1_555 1_555
H15 C11 1_555 1_555
H16 C11 1_555 1_555
C12 C6 1_555 1_555
H17 C12 1_555 1_555
H18 C12 1_555 1_555
H19 C12 1_555 1_555
C13 N1 1_555 1_555
C14 C13 1_555 1_555
H20 C14 1_555 1_555
C15 C14 1_555 1_555
C16 C15 1_555 1_555
H21 C16 1_555 1_555
C17 C16 1_555 1_555
C18 C13 1_555 1_555
H22 C18 1_555 1_555
C19 O2 1_555 1_555
C20 C21 1_555 1_555
C21 C22 1_555 1_555
C22 H23 1_555 1_555
C23 C22 1_555 1_555
C24 C23 1_555 1_555
H24 C24 1_555 1_555
C25 N2 1_555 1_555
C26 C21 1_555 1_555
H25 C26 1_555 1_555
C27 O6 1_555 1_555
C28 C17 1_555 1_555
C29 O8 1_555 1_555
C30 O9 1_555 1_555
C31 N3 1_555 1_555
H26 C31 1_555 1_555
H27 C31 1_555 1_555
H28 C31 1_555 1_555
C32 N3 1_555 1_555
H29 C32 1_555 1_555
H30 C32 1_555 1_555
H31 C32 1_555 1_555
C33 C30 1_555 1_555
H32 C33 1_555 1_555
H33 C33 1_555 1_555
H34 C33 1_555 1_555
C34 C29 1_555 1_555
H35 C34 1_555 1_555
H36 C34 1_555 1_555
H37 C34 1_555 1_555
C35 N4 1_555 1_555
H38 C35 1_555 1_555
H39 C35 1_555 1_555
H40 C35 1_555 1_555
C36 N4 1_555 1_555
H41 C36 1_555 1_555
H42 C36 1_555 1_555
H43 C36 1_555 1_555
La1A O7 1_555 1_555
La1C O3 1_555 1_555
La1G O5 1_555 1_555
O3C La1 1_555 1_555
O4C La1 1_555 1_555
O5G La1 1_555 1_555
O7A La1 1_555 1_555
O4 La1C 1_555 1_555
C5 C8 1_555 1_555
C6 C7 1_555 1_555
C15 C19 1_555 1_555
C17 C18 1_555 1_555
C23 C27 1_555 1_555
C24 C25 1_555 1_555
C25 C26 1_555 1_555

#END
