
#######################################################################
#
#                 Cambridge Crystallographic Data Centre
#                                CCDC 
#
#######################################################################
#
# If this CIF has been generated from an entry in the Cambridge 
# Structural Database, then it will include bibliographic, chemical, 
# crystal, experimental, refinement or atomic coordinate data resulting 
# from the CCDC's data processing and validation procedures.
#
#######################################################################

data_GUHPAC
_chemical_formula_moiety         '(C36 H43 N4 O10 Sm1)n'
_symmetry_cell_setting           monoclinic
_symmetry_space_group_name_H-M   'C 2/c'
_symmetry_Int_Tables_number      15
_space_group_name_Hall           '-C 2yc'
loop_
_symmetry_equiv_pos_site_id
_symmetry_equiv_pos_as_xyz
1 x,y,z
2 -x,y,1/2-z
3 1/2+x,1/2+y,z
4 1/2-x,1/2+y,1/2-z
5 -x,-y,-z
6 x,-y,1/2+z
7 1/2-x,1/2-y,-z
8 1/2+x,1/2-y,1/2+z
_cell_length_a                   32.84(3)
_cell_length_b                   8.998(8)
_cell_length_c                   34.21(3)
_cell_angle_alpha                90
_cell_angle_beta                 115.564(11)
_cell_angle_gamma                90
_cell_volume                     9119.24
loop_
_atom_site_label
_atom_site_type_symbol
_atom_site_fract_x
_atom_site_fract_y
_atom_site_fract_z
_atom_site_U_iso_or_equiv
_atom_site_thermal_displace_type
Sm1 Sm 0.003808(16) 0.85755(6) -0.118967(14) 0.0338 Uani
O1 O 0.0685(2) 0.9135(8) -0.05094(18) 0.0496 Uani
O2 O 0.1309(3) 0.7711(11) -0.0305(2) 0.0870 Uani
O3 O 0.0298(2) 1.0986(8) 0.06839(19) 0.0576 Uani
O4 O 0.0705(2) 1.0290(8) 0.13444(18) 0.0533 Uani
O5 O 0.4532(2) -0.1824(8) 0.32786(18) 0.0489 Uani
O6 O 0.4689(2) -0.3829(8) 0.30034(18) 0.0444 Uani
O7 O 0.4388(2) -0.2953(8) 0.1394(2) 0.0515 Uani
O8 O 0.0217(2) 0.6220(9) -0.0821(2) 0.0647 Uani
O9 O 0.0216(2) 1.1004(8) -0.1262(2) 0.0681 Uani
O10 O 0.3684(3) -0.2296(14) 0.0996(2) 0.1141 Uani
H1 H 0.3735 -0.2636 0.0799 0.1710 Uiso
N1 N 0.3306(3) 0.0820(12) 0.2000(3) 0.0802 Uani
H2 H 0.3176 0.1218 0.1748 0.0960 Uiso
N2 N 0.1833(3) 0.6599(11) 0.1247(2) 0.0802 Uani
H3 H 0.1999 0.6140 0.1149 0.0960 Uiso
N3 N 0.0327(5) 0.4002(15) -0.0474(4) 0.1357 Uani
N4 N 0.0352(5) 1.2847(15) -0.1641(4) 0.1357 Uani
C1 C 0.4028(4) -0.2481(13) 0.1356(3) 0.0482 Uani
C2 C 0.3973(3) -0.1920(12) 0.1755(3) 0.0456 Uani
C3 C 0.4245(3) -0.2521(12) 0.2154(3) 0.0465 Uani
H4 H 0.4450 -0.3274 0.2182 0.0560 Uiso
C4 C 0.4202(3) -0.1961(12) 0.2511(3) 0.0421 Uani
C5 C 0.3893(3) -0.0872(11) 0.2471(3) 0.0419 Uani
H5 H 0.3868 -0.0526 0.2716 0.0500 Uiso
C6 C 0.3612(3) -0.0272(12) 0.2057(3) 0.0444 Uani
C7 C 0.3648(3) -0.0878(12) 0.1702(3) 0.0462 Uani
H6 H 0.3451 -0.0577 0.1425 0.0550 Uiso
C8 C 0.4496(3) -0.2589(13) 0.2960(3) 0.0394 Uani
C9 C 0.3180(3) 0.1375(12) 0.2335(3) 0.0481 Uani
H7 H 0.3448 0.1723 0.2581 0.0580 Uiso
H8 H 0.3051 0.0570 0.2434 0.0580 Uiso
C10 C 0.2842(3) 0.2632(13) 0.2168(3) 0.0465 Uani
C11 C 0.2377(3) 0.2328(13) 0.1951(3) 0.0466 Uani
C12 C 0.2080(3) 0.3567(13) 0.1802(3) 0.0456 Uani
C13 C 0.2242(3) 0.5001(13) 0.1859(3) 0.0445 Uani
C14 C 0.2705(3) 0.5297(13) 0.2052(3) 0.0483 Uani
C15 C 0.3005(3) 0.4117(13) 0.2210(3) 0.0487 Uani
C16 C 0.2206(4) 0.0754(13) 0.1889(3) 0.0664 Uani
H9 H 0.2124 0.0451 0.1595 0.0990 Uiso
H10 H 0.1946 0.0695 0.1948 0.0990 Uiso
H11 H 0.2438 0.0110 0.2083 0.0990 Uiso
C17 C 0.1575(3) 0.3250(13) 0.1581(3) 0.0683 Uani
H12 H 0.1451 0.3352 0.1787 0.1020 Uiso
H13 H 0.1526 0.2255 0.1468 0.1020 Uiso
H14 H 0.1430 0.3941 0.1348 0.1020 Uiso
C18 C 0.3517(3) 0.4440(14) 0.2409(4) 0.0738 Uani
H15 H 0.3680 0.3522 0.2453 0.1100 Uiso
H16 H 0.3606 0.4937 0.2682 0.1100 Uiso
H17 H 0.3583 0.5063 0.2216 0.1100 Uiso
C19 C 0.1911(3) 0.6305(12) 0.1685(3) 0.0512 Uani
H18 H 0.1628 0.6059 0.1697 0.0620 Uiso
H19 H 0.2036 0.7179 0.1863 0.0620 Uiso
C20 C 0.1514(3) 0.7554(12) 0.0972(3) 0.0477 Uani
C21 C 0.1436(3) 0.7601(12) 0.0538(3) 0.0511 Uani
H20 H 0.1617 0.7046 0.0445 0.0610 Uiso
C22 C 0.1088(3) 0.8473(12) 0.0241(3) 0.0440 Uani
C23 C 0.0821(3) 0.9356(12) 0.0371(3) 0.0441 Uani
H21 H 0.0593 0.9947 0.0173 0.0530 Uiso
C24 C 0.0906(3) 0.9326(12) 0.0805(3) 0.0426 Uani
C25 C 0.1248(3) 0.8461(12) 0.1101(3) 0.0475 Uani
H22 H 0.1302 0.8481 0.1391 0.0570 Uiso
C26 C 0.1012(4) 0.8443(13) -0.0233(3) 0.0487 Uani
C27 C 0.0632(3) 1.0300(12) 0.0960(3) 0.0436 Uani
C28 C 0.2887(4) 0.6860(12) 0.2091(4) 0.0689 Uani
H23 H 0.2645 0.7524 0.1924 0.1030 Uiso
H24 H 0.3113 0.6889 0.1983 0.1030 Uiso
H25 H 0.3018 0.7158 0.2389 0.1030 Uiso
C29 C 0.0057(4) 0.5168(14) -0.0692(4) 0.1026 Uani
C30 C -0.0431(4) 0.5000(16) -0.0756(5) 0.1099 Uani
H26 H -0.0610 0.5791 -0.0937 0.1640 Uiso
H27 H -0.0441 0.5040 -0.0480 0.1640 Uiso
H28 H -0.0548 0.4062 -0.0892 0.1640 Uiso
C31 C 0.0154(5) 0.2804(17) -0.0314(5) 0.1242 Uani
H29 H -0.0165 0.2938 -0.0407 0.1860 Uiso
H30 H 0.0303 0.2793 -0.0003 0.1860 Uiso
H31 H 0.0206 0.1879 -0.0424 0.1860 Uiso
C32 C 0.0781(5) 0.4188(18) -0.0439(5) 0.1242 Uani
H32 H 0.0896 0.3242 -0.0474 0.1860 Uiso
H33 H 0.0973 0.4589 -0.0160 0.1860 Uiso
H34 H 0.0774 0.4856 -0.0661 0.1860 Uiso
C33 C 0.0083(5) 1.2117(13) -0.1492(4) 0.1026 Uani
C34 C -0.0370(4) 1.2860(16) -0.1731(5) 0.1099 Uani
H35 H -0.0549 1.2705 -0.1575 0.1640 Uiso
H36 H -0.0521 1.2441 -0.2016 0.1640 Uiso
H37 H -0.0327 1.3906 -0.1753 0.1640 Uiso
C35 C 0.0237(5) 1.4146(16) -0.1908(5) 0.1242 Uani
H38 H 0.0190 1.4964 -0.1752 0.1860 Uiso
H39 H -0.0034 1.3964 -0.2166 0.1860 Uiso
H40 H 0.0478 1.4381 -0.1985 0.1860 Uiso
C36 C 0.0804(5) 1.2208(18) -0.1450(5) 0.1242 Uani
H41 H 0.0788 1.1187 -0.1376 0.1860 Uiso
H42 H 0.0991 1.2752 -0.1194 0.1860 Uiso
H43 H 0.0931 1.2262 -0.1655 0.1860 Uiso
Sm1D Sm -0.003808(16) 1.14245(6) 0.118967(14) 0.0338 Uani
Sm1F Sm 0.496192(16) -0.35755(6) 0.118967(14) 0.0338 Uani
Sm1G Sm 0.503808(16) -0.35755(6) 0.381033(14) 0.0338 Uani
O3D O -0.0298(2) 0.9014(8) -0.06839(19) 0.0576 Uani
O4D O -0.0705(2) 0.9710(8) -0.13444(18) 0.0533 Uani
O5G O -0.0468(2) 0.6824(8) -0.17214(18) 0.0489 Uani
O6G O -0.0311(2) 0.8829(8) -0.19966(18) 0.0444 Uani
O7F O 0.0612(2) 0.7953(8) -0.1394(2) 0.0515 Uani
loop_
_atom_site_aniso_label
_atom_site_aniso_U_11
_atom_site_aniso_U_22
_atom_site_aniso_U_33
_atom_site_aniso_U_23
_atom_site_aniso_U_13
_atom_site_aniso_U_12
Sm1 0.0318(3) 0.0439(3) 0.0215(2) 0.0008(3) 0.00758(19) 0.0079(3)
O1 0.055(4) 0.057(5) 0.024(3) -0.001(3) 0.005(3) 0.005(4)
O2 0.073(6) 0.155(9) 0.034(4) 0.009(5) 0.024(4) 0.055(6)
O3 0.064(5) 0.076(6) 0.038(4) 0.009(4) 0.027(4) 0.038(4)
O4 0.047(4) 0.085(6) 0.027(3) 0.003(4) 0.015(3) 0.028(4)
O5 0.062(5) 0.054(6) 0.029(3) 0.004(3) 0.018(3) 0.011(4)
O6 0.044(4) 0.058(6) 0.031(3) 0.003(3) 0.016(3) 0.013(4)
O7 0.048(4) 0.061(6) 0.054(4) -0.002(4) 0.030(4) 0.022(4)
O8 0.071(5) 0.044(6) 0.065(5) 0.009(4) 0.016(4) -0.003(4)
O9 0.067(5) 0.041(6) 0.059(5) 0.005(4) -0.008(4) 0.002(4)
O10 0.089(6) 0.215(12) 0.038(5) 0.006(6) 0.027(5) 0.089(7)
N1 0.089(5) 0.115(7) 0.039(3) 0.033(4) 0.030(4) 0.070(5)
N2 0.089(5) 0.115(7) 0.039(3) 0.033(4) 0.030(4) 0.070(5)
N3 0.185(11) 0.112(10) 0.101(7) -0.016(6) 0.053(7) -0.004(8)
N4 0.185(11) 0.112(10) 0.101(7) -0.016(6) 0.053(7) -0.004(8)
C1 0.048(4) 0.061(4) 0.033(4) 0.006(3) 0.015(3) 0.016(4)
C2 0.045(3) 0.064(4) 0.028(3) 0.005(3) 0.016(3) 0.012(3)
C3 0.045(3) 0.061(4) 0.031(3) 0.006(3) 0.014(3) 0.015(3)
C4 0.039(3) 0.057(4) 0.032(3) 0.005(3) 0.017(3) 0.007(3)
C5 0.042(3) 0.061(4) 0.028(3) 0.003(3) 0.020(3) 0.011(3)
C6 0.044(3) 0.059(4) 0.032(3) 0.005(3) 0.018(3) 0.016(3)
C7 0.045(3) 0.063(4) 0.032(3) 0.006(3) 0.018(3) 0.015(3)
C8 0.039(4) 0.060(5) 0.023(4) 0.004(4) 0.017(3) 0.003(4)
C9 0.048(3) 0.062(4) 0.038(3) 0.002(3) 0.022(3) 0.019(3)
C10 0.047(3) 0.059(4) 0.034(3) 0.004(3) 0.018(3) 0.016(3)
C11 0.048(4) 0.057(4) 0.035(3) 0.000(3) 0.018(3) 0.008(3)
C12 0.045(3) 0.060(4) 0.033(3) 0.001(3) 0.018(3) 0.011(3)
C13 0.048(3) 0.059(4) 0.030(3) 0.005(3) 0.020(3) 0.016(3)
C14 0.051(4) 0.057(4) 0.037(3) 0.002(3) 0.019(3) 0.007(3)
C15 0.045(4) 0.061(4) 0.039(3) 0.003(3) 0.017(3) 0.010(3)
C16 0.063(6) 0.069(7) 0.062(5) -0.009(5) 0.022(5) -0.004(5)
C17 0.050(5) 0.086(7) 0.057(5) -0.001(5) 0.012(5) 0.003(5)
C18 0.055(6) 0.074(7) 0.077(6) 0.003(6) 0.014(5) 0.002(5)
C19 0.057(4) 0.064(4) 0.034(3) 0.006(3) 0.021(3) 0.015(3)
C20 0.049(3) 0.056(4) 0.033(3) 0.005(3) 0.013(3) 0.020(3)
C21 0.054(4) 0.062(4) 0.034(3) 0.006(3) 0.016(3) 0.018(3)
C22 0.046(4) 0.051(4) 0.032(3) 0.005(3) 0.014(3) 0.015(3)
C23 0.044(4) 0.057(4) 0.032(3) 0.005(3) 0.017(3) 0.015(3)
C24 0.047(4) 0.046(4) 0.030(3) 0.005(3) 0.012(3) 0.012(3)
C25 0.049(4) 0.063(4) 0.033(3) 0.007(3) 0.020(3) 0.014(3)
C26 0.051(4) 0.051(5) 0.036(4) 0.003(4) 0.011(4) 0.012(4)
C27 0.043(4) 0.056(4) 0.030(3) 0.006(3) 0.014(3) 0.012(4)
C28 0.075(6) 0.061(7) 0.066(6) 0.003(5) 0.026(5) 0.003(5)
C29 0.107(6) 0.084(7) 0.102(6) -0.049(5) 0.031(6) -0.005(6)
C30 0.101(6) 0.089(7) 0.125(6) -0.014(5) 0.035(6) -0.004(5)
C31 0.119(5) 0.096(5) 0.138(5) 0.003(4) 0.037(5) -0.002(4)
C32 0.119(5) 0.096(5) 0.138(5) 0.003(4) 0.037(5) -0.002(4)
C33 0.107(6) 0.084(7) 0.102(6) -0.049(5) 0.031(6) -0.005(6)
C34 0.101(6) 0.089(7) 0.125(6) -0.014(5) 0.035(6) -0.004(5)
C35 0.119(5) 0.096(5) 0.138(5) 0.003(4) 0.037(5) -0.002(4)
C36 0.119(5) 0.096(5) 0.138(5) 0.003(4) 0.037(5) -0.002(4)
Sm1D 0.0318 0.0439 0.0215 0.0008 0.00758 0.0079
Sm1F 0.0318 0.0439 0.0215 0.0008 0.00758 0.0079
Sm1G 0.0318 0.0439 0.0215 -0.0008 0.00758 -0.0079
O3D 0.064 0.076 0.038 0.009 0.027 0.038
O4D 0.047 0.085 0.027 0.003 0.015 0.028
O5G 0.062 0.054 0.029 -0.004 0.018 -0.011
O6G 0.044 0.058 0.031 -0.003 0.016 -0.013
O7F 0.048 0.061 0.054 -0.002 0.03 0.022
loop_
_geom_bond_atom_site_label_1
_geom_bond_atom_site_label_2
_geom_bond_site_symmetry_1
_geom_bond_site_symmetry_2
Sm1 O1 1_555 1_555
O1 C26 1_555 1_555
O2 C26 1_555 1_555
O3 C27 1_555 1_555
O4 C27 1_555 1_555
O5 C8 1_555 1_555
O6 C8 1_555 1_555
O7 C1 1_555 1_555
O8 Sm1 1_555 1_555
O9 Sm1 1_555 1_555
O10 H1 1_555 1_555
N1 H2 1_555 1_555
N2 H3 1_555 1_555
N3 C29 1_555 1_555
N4 C33 1_555 1_555
C1 O10 1_555 1_555
C2 C1 1_555 1_555
C3 C2 1_555 1_555
H4 C3 1_555 1_555
C4 C3 1_555 1_555
C5 C4 1_555 1_555
H5 C5 1_555 1_555
C6 N1 1_555 1_555
C7 C2 1_555 1_555
H6 C7 1_555 1_555
C8 C4 1_555 1_555
C9 N1 1_555 1_555
H7 C9 1_555 1_555
H8 C9 1_555 1_555
C10 C9 1_555 1_555
C11 C10 1_555 1_555
C12 C11 1_555 1_555
C13 C12 1_555 1_555
C14 C13 1_555 1_555
C15 C10 1_555 1_555
C16 C11 1_555 1_555
H9 C16 1_555 1_555
H10 C16 1_555 1_555
H11 C16 1_555 1_555
C17 C12 1_555 1_555
H12 C17 1_555 1_555
H13 C17 1_555 1_555
H14 C17 1_555 1_555
C18 C15 1_555 1_555
H15 C18 1_555 1_555
H16 C18 1_555 1_555
H17 C18 1_555 1_555
C19 N2 1_555 1_555
H18 C19 1_555 1_555
H19 C19 1_555 1_555
C20 N2 1_555 1_555
C21 C20 1_555 1_555
H20 C21 1_555 1_555
C22 C21 1_555 1_555
C23 C22 1_555 1_555
H21 C23 1_555 1_555
C24 C23 1_555 1_555
C25 C20 1_555 1_555
H22 C25 1_555 1_555
C26 C22 1_555 1_555
C27 C24 1_555 1_555
C28 C14 1_555 1_555
H23 C28 1_555 1_555
H24 C28 1_555 1_555
H25 C28 1_555 1_555
C29 O8 1_555 1_555
C30 C29 1_555 1_555
H26 C30 1_555 1_555
H27 C30 1_555 1_555
H28 C30 1_555 1_555
C31 N3 1_555 1_555
H29 C31 1_555 1_555
H30 C31 1_555 1_555
H31 C31 1_555 1_555
C32 N3 1_555 1_555
H32 C32 1_555 1_555
H33 C32 1_555 1_555
H34 C32 1_555 1_555
C33 O9 1_555 1_555
C34 C33 1_555 1_555
H35 C34 1_555 1_555
H36 C34 1_555 1_555
H37 C34 1_555 1_555
C35 N4 1_555 1_555
H38 C35 1_555 1_555
H39 C35 1_555 1_555
H40 C35 1_555 1_555
C36 N4 1_555 1_555
H41 C36 1_555 1_555
H42 C36 1_555 1_555
H43 C36 1_555 1_555
Sm1D O3 1_555 1_555
Sm1F O7 1_555 1_555
Sm1G O5 1_555 1_555
O3D Sm1 1_555 1_555
O4D Sm1 1_555 1_555
O5G Sm1 1_555 1_555
O6G Sm1 1_555 1_555
O7F Sm1 1_555 1_555
O4 Sm1D 1_555 1_555
O6 Sm1G 1_555 1_555
C5 C6 1_555 1_555
C6 C7 1_555 1_555
C13 C19 1_555 1_555
C14 C15 1_555 1_555
C24 C25 1_555 1_555

#END
