
#######################################################################
#
#                 Cambridge Crystallographic Data Centre
#                                CCDC 
#
#######################################################################
#
# If this CIF has been generated from an entry in the Cambridge 
# Structural Database, then it will include bibliographic, chemical, 
# crystal, experimental, refinement or atomic coordinate data resulting 
# from the CCDC's data processing and validation procedures.
#
#######################################################################

data_KATTOR
_chemical_formula_moiety         '(C49 H39 Li2 N2 O21 Zn2 1-)n'
_symmetry_cell_setting           monoclinic
_symmetry_space_group_name_H-M   'P 21/c'
_symmetry_Int_Tables_number      14
_space_group_name_Hall           '-P 2ybc'
loop_
_symmetry_equiv_pos_site_id
_symmetry_equiv_pos_as_xyz
1 x,y,z
2 -x,1/2+y,1/2-z
3 -x,-y,-z
4 x,1/2-y,1/2+z
_cell_length_a                   9.7373(3)
_cell_length_b                   15.1542(5)
_cell_length_c                   21.1695(6)
_cell_angle_alpha                90
_cell_angle_beta                 98.756(3)
_cell_angle_gamma                90
_cell_volume                     3087.39
loop_
_atom_site_label
_atom_site_type_symbol
_atom_site_fract_x
_atom_site_fract_y
_atom_site_fract_z
C21 C 0.1863(7) 0.7557(7) 0.2745(4)
H9 H 0.1342 0.7939 0.2419
H10 H 0.1869 0.6953 0.2581
H11 H 0.2819 0.7772 0.2849
C22 C 0.1063(14) 0.8475(7) 0.3534(6)
H12 H 0.1958 0.8684 0.3759
H13 H 0.0371 0.8489 0.3825
H14 H 0.0759 0.8859 0.3167
N1 N 0.1213(6) 0.7568(4) 0.3310(3)
H15 H 0.1741 0.7247 0.3627
H16 H 0.0351 0.7308 0.3224
C23 C -0.0856(11) 0.6166(7) 0.1315(5)
H17 H -0.1812 0.6128 0.1418
H18 H -0.0447 0.6728 0.1494
C24 C -0.0062(6) 0.5453(5) 0.1619(3)
H19 H 0.0026 0.5528 0.2088
H20 H -0.0567 0.4895 0.1506
C25 C 0.1176(9) 0.5398(6) 0.0766(4)
H21 H 0.0704 0.4853 0.0589
H22 H 0.2127 0.5397 0.0655
C26 C 0.0416(7) 0.6171(5) 0.0471(4)
H23 H 0.0921 0.6718 0.0617
H24 H 0.0343 0.6137 0.0000
O10 O -0.0922(9) 0.6185(6) 0.0647(4)
O11 O 0.1262(8) 0.5389(6) 0.1450(4)
N2 N 0.7042(7) 0.1474(4) 0.9511(3)
O12 O 0.7526(5) 0.1747(3) 1.0573(2)
C27 C 0.7744(7) 0.1866(5) 1.0022(3)
H25 H 0.8464 0.2264 0.9958
C28 C 0.5919(9) 0.0841(6) 0.9564(4)
H26 H 0.5798 0.0783 1.0014
H27 H 0.6159 0.0265 0.9401
H28 H 0.5052 0.1053 0.9314
C29 C 0.7342(10) 0.1639(7) 0.8860(3)
H29 H 0.8099 0.2069 0.8877
H30 H 0.6509 0.1872 0.8594
H31 H 0.7619 0.1085 0.8675
C1 C 0.4211(4) 0.3361(3) 0.16326(18)
C2 C 0.4546(4) 0.4176(3) 0.12806(18)
C3 C 0.4657(4) 0.4964(3) 0.16237(18)
H1 H 0.4510 0.4959 0.2057
C4 C 0.4975(4) 0.5750(3) 0.13529(18)
C5 C 0.5209(4) 0.6535(3) 0.17922(17)
C6 C 0.5106(4) 0.5784(3) 0.06966(18)
C7 C 0.5317(4) 0.6599(3) 0.03791(18)
H2 H 0.5396 0.7133 0.0617
C8 C 0.4595(4) 0.3381(3) 0.02519(19)
H3 H 0.4455 0.2831 0.0448
C9 C 0.4707(4) 0.4170(3) 0.06330(18)
C10 C 0.4953(4) 0.4989(3) 0.03368(18)
C11 C 0.1835(4) 0.3956(3) 0.33693(17)
C12 C 0.0882(4) 0.4523(3) 0.37031(18)
C13 C -0.0005(4) 0.5109(3) 0.33382(18)
H4 H -0.0002 0.5143 0.2890
C14 C -0.0900(4) 0.5647(3) 0.36198(19)
C15 C -0.1913(4) 0.6225(3) 0.31969(18)
C16 C 0.0907(4) 0.4470(3) 0.43682(18)
C17 C 0.1801(4) 0.3869(3) 0.47667(19)
H5 H 0.2402 0.3491 0.4577
C18 C -0.1805(4) 0.6170(3) 0.45954(19)
H6 H -0.2413 0.6571 0.4347
C19 C -0.0910(4) 0.5618(3) 0.42841(19)
C20 C -0.0005(4) 0.5024(3) 0.46602(18)
O1 O 0.4745(4) 0.2645(2) 0.15306(14)
O2 O 0.3380(3) 0.3500(2) 0.20304(14)
O3 O 0.4449(3) 0.66354(19) 0.22018(13)
O4 O 0.6247(3) 0.70151(19) 0.17183(13)
O5 O 0.1249(3) 0.33653(19) 0.29950(13)
O6 O 0.3094(3) 0.4095(2) 0.34633(15)
O7 O -0.3150(3) 0.6031(2) 0.31298(15)
O8 O -0.1399(3) 0.6877(2) 0.29282(14)
O9 O 0.6126(4) 0.0854(2) 0.14096(16)
H7 H 0.6542 0.1106 0.1134
H8 H 0.6347 0.0311 0.1436
Li1 Li 0.4965(7) 0.1503(4) 0.1891(3)
Zn1 Zn 0.26933(5) 0.27103(3) 0.26169(2)
C1B C 0.5789(4) 0.6639(3) -0.16326(18)
C2B C 0.5454(4) 0.5824(3) -0.12806(18)
C3B C 0.5343(4) 0.5036(3) -0.16237(18)
H1B H 0.5490 0.5041 -0.2057
C4B C 0.5025(4) 0.4250(3) -0.13529(18)
C5B C 0.4791(4) 0.3465(3) -0.17922(17)
C6B C 0.4894(4) 0.4216(3) -0.06966(18)
C7B C 0.4683(4) 0.3401(3) -0.03791(18)
H2B H 0.4604 0.2867 -0.0617
C8B C 0.5405(4) 0.6619(3) -0.02519(19)
H3B H 0.5545 0.7169 -0.0448
C9B C 0.5293(4) 0.5830(3) -0.06330(18)
C10B C 0.5047(4) 0.5011(3) -0.03368(18)
O1B O 0.5255(4) 0.7355(2) -0.15306(14)
O2B O 0.6620(3) 0.6500(2) -0.20304(14)
O3B O 0.5551(3) 0.33646(19) -0.22018(13)
O4B O 0.3753(3) 0.29849(19) -0.17183(13)
C11B C -0.1835(4) 0.6044(3) 0.66307(17)
C12B C -0.0882(4) 0.5477(3) 0.62969(18)
C13B C 0.0005(4) 0.4891(3) 0.66618(18)
H4B H 0.0002 0.4857 0.7110
C14B C 0.0900(4) 0.4353(3) 0.63802(19)
C15B C 0.1913(4) 0.3775(3) 0.68031(18)
C16B C -0.0907(4) 0.5530(3) 0.56318(18)
C17B C -0.1801(4) 0.6131(3) 0.52333(19)
H5B H -0.2402 0.6509 0.5423
C18B C 0.1805(4) 0.3830(3) 0.54046(19)
H6B H 0.2413 0.3429 0.5653
C19B C 0.0910(4) 0.4382(3) 0.57159(19)
C20B C 0.0005(4) 0.4976(3) 0.53398(18)
O5B O -0.1249(3) 0.66347(19) 0.70050(13)
O6B O -0.3094(3) 0.5905(2) 0.65367(15)
O7B O 0.3150(3) 0.3969(2) 0.68702(15)
O8B O 0.1399(3) 0.3123(2) 0.70718(14)
Zn1B Zn -0.26933(5) 0.72897(3) 0.73831(2)
O9A O 0.3874(4) 0.5854(2) 0.35904(16)
H7A H 0.3458 0.6106 0.3866
H8A H 0.3653 0.5311 0.3564
Li1A Li 0.5035(7) 0.6503(4) 0.3109(3)
O1A O 0.5255(4) 0.7645(2) 0.34694(14)
O2B_2 O -0.3380(3) 0.6500(2) 0.79696(14)
O3A O 0.5551(3) 0.16354(19) 0.27982(13)
O4A O 0.3753(3) 0.20151(19) 0.32817(13)
O4C O -0.3753(3) 0.79849(19) 0.67183(13)
O7_2 O 0.6850(3) 0.6031(2) 0.31298(15)
O7A O 0.3150(3) 0.1031(2) 0.18702(15)
O8A O 0.1399(3) 0.1877(2) 0.20718(14)
O8C O -0.1399(3) 0.8123(2) 0.79282(14)
Li1A_2 Li -0.4965(7) 0.6503(4) 0.3109(3)
Li1B Li 0.5035(7) 0.8497(4) -0.1891(3)
Li1C Li 0.4965(7) 0.3497(4) -0.3109(3)
Li1C_2 Li 0.4965(7) 0.3497(4) 0.6891(3)
Zn1A Zn -0.26933(5) 0.77103(3) 0.23831(2)
Zn1A_2 Zn 0.73067(5) 0.77103(3) 0.23831(2)
Zn1B_2 Zn 0.73067(5) 0.72897(3) -0.26169(2)
Zn1C Zn 0.26933(5) 0.22897(3) -0.23831(2)
Zn1C_2 Zn 0.26933(5) 0.22897(3) 0.76169(2)
loop_
_geom_bond_atom_site_label_1
_geom_bond_atom_site_label_2
_geom_bond_site_symmetry_1
_geom_bond_site_symmetry_2
C1 C2 1_555 1_555
C2 C3 1_555 1_555
C3 H1 1_555 1_555
C4 C3 1_555 1_555
C5 C4 1_555 1_555
C6 C4 1_555 1_555
C7 C6 1_555 1_555
H2 C7 1_555 1_555
C8 H3 1_555 1_555
C9 C2 1_555 1_555
C10 C6 1_555 1_555
C11 C12 1_555 1_555
C12 C13 1_555 1_555
C13 H4 1_555 1_555
C14 C13 1_555 1_555
C15 C14 1_555 1_555
C16 C12 1_555 1_555
C17 C16 1_555 1_555
H5 C17 1_555 1_555
C18 H6 1_555 1_555
C19 C14 1_555 1_555
C20 C16 1_555 1_555
O1 C1 1_555 1_555
O2 C1 1_555 1_555
O3 C5 1_555 1_555
O4 C5 1_555 1_555
O5 C11 1_555 1_555
O6 C11 1_555 1_555
O7 C15 1_555 1_555
O8 C15 1_555 1_555
O9 H7 1_555 1_555
H8 O9 1_555 1_555
Li1 O1 1_555 1_555
Zn1 O2 1_555 1_555
C21 H9 1_555 1_555
H10 C21 1_555 1_555
H11 C21 1_555 1_555
C22 H12 1_555 1_555
H13 C22 1_555 1_555
H14 C22 1_555 1_555
N1 C21 1_555 1_555
H15 N1 1_555 1_555
H16 N1 1_555 1_555
C23 H17 1_555 1_555
H18 C23 1_555 1_555
C24 C23 1_555 1_555
H19 C24 1_555 1_555
H20 C24 1_555 1_555
C25 H21 1_555 1_555
H22 C25 1_555 1_555
C26 C25 1_555 1_555
H23 C26 1_555 1_555
H24 C26 1_555 1_555
O10 C23 1_555 1_555
O11 C24 1_555 1_555
N2 C27 1_555 1_555
O12 C27 1_555 1_555
C27 H25 1_555 1_555
C28 N2 1_555 1_555
H26 C28 1_555 1_555
H27 C28 1_555 1_555
H28 C28 1_555 1_555
C29 N2 1_555 1_555
H29 C29 1_555 1_555
H30 C29 1_555 1_555
H31 C29 1_555 1_555
C1B C2B 1_555 1_555
C2B C3B 1_555 1_555
C3B H1B 1_555 1_555
C4B C3B 1_555 1_555
C5B C4B 1_555 1_555
C6B C4B 1_555 1_555
C7B C8 1_555 1_555
H2B C7B 1_555 1_555
C8B C7 1_555 1_555
H3B C8B 1_555 1_555
C9B C2B 1_555 1_555
C10B C10 1_555 1_555
O1B C1B 1_555 1_555
O2B C1B 1_555 1_555
O3B C5B 1_555 1_555
O4B C5B 1_555 1_555
C11B C12B 1_555 1_555
C12B C13B 1_555 1_555
C13B H4B 1_555 1_555
C14B C13B 1_555 1_555
C15B C14B 1_555 1_555
C16B C12B 1_555 1_555
C17B C18 1_555 1_555
H5B C17B 1_555 1_555
C18B C17 1_555 1_555
H6B C18B 1_555 1_555
C19B C14B 1_555 1_555
C20B C20 1_555 1_555
O5B C11B 1_555 1_555
O6B C11B 1_555 1_555
O7B C15B 1_555 1_555
O8B C15B 1_555 1_555
Zn1B O5B 1_555 1_555
O9A H7A 1_555 1_555
H8A O9A 1_555 1_555
Li1A O3 1_555 1_555
O1A Li1A 1_555 1_555
O2B_2 Zn1B 1_555 1_555
O3A Li1 1_555 1_555
O4A Zn1 1_555 1_555
O4C Zn1B 1_555 1_555
O7_2 Li1A 1_555 1_555
O7A Li1 1_555 1_555
O8A Zn1 1_555 1_555
O8C Zn1B 1_555 1_555
Li1A_2 O7 1_555 1_555
Li1B O1B 1_555 1_555
Li1C O3B 1_555 1_555
Li1C_2 O7B 1_555 1_555
Zn1A O8 1_555 1_555
Zn1A_2 O4 1_555 1_555
Zn1B_2 O2B 1_555 1_555
Zn1C O4B 1_555 1_555
Zn1C_2 O8B 1_555 1_555
C8 C9 1_555 1_555
C9 C10 1_555 1_555
C18 C19 1_555 1_555
C19 C20 1_555 1_555
O5 Zn1 1_555 1_555
O9 Li1 1_555 1_555
C22 N1 1_555 1_555
C25 O11 1_555 1_555
C26 O10 1_555 1_555
C6B C7B 1_555 1_555
C6B C10B 1_555 1_555
C8B C9B 1_555 1_555
C9B C10B 1_555 1_555
C16B C17B 1_555 1_555
C16B C20B 1_555 1_555
C18B C19B 1_555 1_555
C19B C20B 1_555 1_555
O9A Li1A 1_555 1_555

#END
