
#######################################################################
#
#                 Cambridge Crystallographic Data Centre
#                                CCDC 
#
#######################################################################
#
# If this CIF has been generated from an entry in the Cambridge 
# Structural Database, then it will include bibliographic, chemical, 
# crystal, experimental, refinement or atomic coordinate data resulting 
# from the CCDC's data processing and validation procedures.
#
#######################################################################

data_KATTUX
_chemical_formula_moiety         '(C84 H40 Li4 N2 O32 Zn4 2-)n'
_symmetry_cell_setting           monoclinic
_symmetry_space_group_name_H-M   'C 2/m'
_symmetry_Int_Tables_number      12
_space_group_name_Hall           '-C 2y'
loop_
_symmetry_equiv_pos_site_id
_symmetry_equiv_pos_as_xyz
1 x,y,z
2 -x,y,-z
3 1/2+x,1/2+y,z
4 1/2-x,1/2+y,-z
5 -x,-y,-z
6 x,-y,z
7 1/2-x,1/2-y,-z
8 1/2+x,1/2-y,z
_cell_length_a                   25.0141(5)
_cell_length_b                   21.2383(4)
_cell_length_c                   10.0324(2)
_cell_angle_alpha                90
_cell_angle_beta                 97.166(2)
_cell_angle_gamma                90
_cell_volume                     5288.15
loop_
_atom_site_label
_atom_site_type_symbol
_atom_site_fract_x
_atom_site_fract_y
_atom_site_fract_z
N1 N 0.4216(7) 0.3042(8) 0.6346(18)
H8 H 0.4043 0.2978 0.5492
H9 H 0.4056 0.3384 0.6696
C23 C 0.4747(8) 0.3198(9) 0.624(2)
H10 H 0.4812 0.3637 0.6512
H11 H 0.4818 0.3145 0.5307
H12 H 0.4988 0.2923 0.6825
C24 C 0.4122(9) 0.2507(10) 0.713(2)
H13 H 0.3793 0.2571 0.7553
H14 H 0.4428 0.2447 0.7835
H15 H 0.4081 0.2132 0.6560
N1A N 0.5784(7) 0.3042(8) 0.3654(18)
H8A H 0.5957 0.2978 0.4508
H9A H 0.5944 0.3384 0.3304
C23A C 0.5253(8) 0.3198(9) 0.376(2)
H10A H 0.5188 0.3637 0.3488
H11A H 0.5182 0.3145 0.4693
H12A H 0.5012 0.2923 0.3175
C24A C 0.5878(9) 0.2507(10) 0.287(2)
H13A H 0.6207 0.2571 0.2447
H14A H 0.5572 0.2447 0.2165
H15A H 0.5919 0.2132 0.3440
C1 C 0.28794(13) 0.17196(13) 0.0985(3)
C2 C 0.27189(12) 0.13324(13) -0.0248(3)
C3 C 0.25787(12) 0.16507(13) -0.1448(3)
H1 H 0.2600 0.2097 -0.1457
C4 C 0.24094(12) 0.13358(13) -0.2631(3)
C5 C 0.22621(13) 0.17361(12) -0.3852(3)
C6 C 0.23980(12) 0.06704(12) -0.2660(3)
C7 C 0.22318(12) 0.03164(14) -0.3860(3)
H2 H 0.2119 0.0535 -0.4673
C8 C 0.28423(15) 0.03197(15) 0.0986(3)
H3 H 0.2942 0.0538 0.1806
C9 C 0.26970(13) 0.06695(13) -0.0210(3)
C10 C 0.25436(12) 0.03400(13) -0.1437(3)
C11 C 0.40624(14) 0.17181(14) 0.3887(4)
C12 C 0.45467(14) 0.13320(15) 0.4431(4)
C13 C 0.5000 0.1648(2) 0.5000
H4 H 0.5000 0.2095 0.5000
C14 C 0.40873(15) 0.03192(17) 0.3781(5)
H5 H 0.3781 0.0537 0.3352
C15 C 0.45361(14) 0.06735(15) 0.4409(4)
C16 C 0.5000 0.03370(19) 0.5000
C17 C 0.39724(14) 0.38393(14) 0.2316(4)
C18 C 0.42021(14) 0.44293(13) 0.1784(4)
C19 C 0.4033(2) 0.5000 0.2245(5)
H6 H 0.3791 0.5000 0.2904
C20 C 0.48051(15) 0.38424(13) 0.0410(4)
H7 H 0.4667 0.3453 0.0683
C21 C 0.45976(14) 0.44164(13) 0.0873(4)
C22 C 0.47980(19) 0.5000 0.0449(5)
Li1 Li 0.2885(2) 0.1850(2) 0.3857(5)
O1 O 0.32215(10) 0.21501(10) 0.0873(2)
O2 O 0.26589(11) 0.16183(10) 0.2017(2)
O3 O 0.19811(9) 0.22322(8) -0.3689(2)
O4 O 0.24244(11) 0.16044(9) -0.4933(2)
O5 O 0.41635(10) 0.22125(10) 0.3237(3)
O6 O 0.36091(10) 0.15541(11) 0.4097(3)
O7 O 0.38020(10) 0.34184(10) 0.1462(3)
O8 O 0.39482(13) 0.37882(12) 0.3531(3)
Zn1 Zn 0.354238(16) 0.268952(15) 0.23695(4)
C1E C 0.28794(13) -0.17196(13) 0.0985(3)
C2E C 0.27189(12) -0.13324(13) -0.0248(3)
C3E C 0.25787(12) -0.16507(13) -0.1448(3)
H1E H 0.2600 -0.2097 -0.1457
C4E C 0.24094(12) -0.13358(13) -0.2631(3)
C5E C 0.22621(13) -0.17361(12) -0.3852(3)
C6E C 0.23980(12) -0.06704(12) -0.2660(3)
C7E C 0.22318(12) -0.03164(14) -0.3860(3)
H2E H 0.2119 -0.0535 -0.4673
C8E C 0.28423(15) -0.03197(15) 0.0986(3)
H3E H 0.2942 -0.0538 0.1806
C9E C 0.26970(13) -0.06695(13) -0.0210(3)
C10E C 0.25436(12) -0.03400(13) -0.1437(3)
O1E O 0.32215(10) -0.21501(10) 0.0873(2)
O2E O 0.26589(11) -0.16183(10) 0.2017(2)
O3E O 0.19811(9) -0.22322(8) -0.3689(2)
O4E O 0.24244(11) -0.16044(9) -0.4933(2)
C11A C 0.59376(14) 0.17181(14) 0.6113(4)
C12A C 0.54533(14) 0.13320(15) 0.5569(4)
C14A C 0.59127(15) 0.03192(17) 0.6219(5)
H5A H 0.6219 0.0537 0.6648
C15A C 0.54639(14) 0.06735(15) 0.5591(4)
O5A O 0.58365(10) 0.22125(10) 0.6763(3)
O6A O 0.63909(10) 0.15541(11) 0.5903(3)
C11D C 0.59376(14) -0.17181(14) 0.6113(4)
C12D C 0.54533(14) -0.13320(15) 0.5569(4)
C13D C 0.5000 -0.1648(2) 0.5000
H4D H 0.5000 -0.2095 0.5000
C14D C 0.59127(15) -0.03192(17) 0.6219(5)
H5D H 0.6219 -0.0537 0.6648
C15D C 0.54639(14) -0.06735(15) 0.5591(4)
C16D C 0.5000 -0.03370(19) 0.5000
O5D O 0.58365(10) -0.22125(10) 0.6763(3)
O6D O 0.63909(10) -0.15541(11) 0.5903(3)
C11E C 0.40624(14) -0.17181(14) 0.3887(4)
C12E C 0.45467(14) -0.13320(15) 0.4431(4)
C14E C 0.40873(15) -0.03192(17) 0.3781(5)
H5E H 0.3781 -0.0537 0.3352
C15E C 0.45361(14) -0.06735(15) 0.4409(4)
O5E O 0.41635(10) -0.22125(10) 0.3237(3)
O6E O 0.36091(10) -0.15541(11) 0.4097(3)
C17A C 0.60276(14) 0.38393(14) -0.2316(4)
C18A C 0.57979(14) 0.44293(13) -0.1784(4)
C19A C 0.5967(2) 0.5000 -0.2245(5)
H6A H 0.6209 0.5000 -0.2904
C20A C 0.51949(15) 0.38424(13) -0.0410(4)
H7A H 0.5333 0.3453 -0.0683
C21A C 0.54024(14) 0.44164(13) -0.0873(4)
C22A C 0.52020(19) 0.5000 -0.0449(5)
O7A O 0.61980(10) 0.34184(10) -0.1462(3)
O8A O 0.60518(13) 0.37882(12) -0.3531(3)
C17D C 0.60276(14) 0.61607(14) -0.2316(4)
C18D C 0.57979(14) 0.55707(13) -0.1784(4)
C20D C 0.51949(15) 0.61576(13) -0.0410(4)
H7D H 0.5333 0.6547 -0.0683
C21D C 0.54024(14) 0.55836(13) -0.0873(4)
O7D O 0.61980(10) 0.65816(10) -0.1462(3)
O8D O 0.60518(13) 0.62118(12) -0.3531(3)
C17E C 0.39724(14) 0.61607(14) 0.2316(4)
C18E C 0.42021(14) 0.55707(13) 0.1784(4)
C20E C 0.48051(15) 0.61576(13) 0.0410(4)
H7E H 0.4667 0.6547 0.0683
C21E C 0.45976(14) 0.55836(13) 0.0873(4)
O7E O 0.38020(10) 0.65816(10) 0.1462(3)
O8E O 0.39482(13) 0.62118(12) 0.3531(3)
C1A C 0.71206(13) 0.17196(13) -0.0985(3)
C2A C 0.72811(12) 0.13324(13) 0.0248(3)
C3A C 0.74213(12) 0.16507(13) 0.1448(3)
H1A H 0.7400 0.2097 0.1457
C4A C 0.75906(12) 0.13358(13) 0.2631(3)
C5A C 0.77379(13) 0.17361(12) 0.3852(3)
C6A C 0.76020(12) 0.06704(12) 0.2660(3)
C7A C 0.77682(12) 0.03164(14) 0.3860(3)
H2A H 0.7881 0.0535 0.4673
C8A C 0.71577(15) 0.03197(15) -0.0986(3)
H3A H 0.7058 0.0538 -0.1806
C9A C 0.73030(13) 0.06695(13) 0.0210(3)
C10A C 0.74564(12) 0.03400(13) 0.1437(3)
Li1A Li 0.7115(2) 0.1850(2) -0.3857(5)
O1A O 0.67785(10) 0.21501(10) -0.0873(2)
O2A O 0.73411(11) 0.16183(10) -0.2017(2)
O3A O 0.80189(9) 0.22322(8) 0.3689(2)
O4A O 0.75756(11) 0.16044(9) 0.4933(2)
Zn1A Zn 0.645762(16) 0.268952(15) -0.23695(4)
C1D C 0.71206(13) -0.17196(13) -0.0985(3)
C2D C 0.72811(12) -0.13324(13) 0.0248(3)
C3D C 0.74213(12) -0.16507(13) 0.1448(3)
H1D H 0.7400 -0.2097 0.1457
C4D C 0.75906(12) -0.13358(13) 0.2631(3)
C5D C 0.77379(13) -0.17361(12) 0.3852(3)
C6D C 0.76020(12) -0.06704(12) 0.2660(3)
C7D C 0.77682(12) -0.03164(14) 0.3860(3)
H2D H 0.7881 -0.0535 0.4673
C8D C 0.71577(15) -0.03197(15) -0.0986(3)
H3D H 0.7058 -0.0538 -0.1806
C9D C 0.73030(13) -0.06695(13) 0.0210(3)
C10D C 0.74564(12) -0.03400(13) 0.1437(3)
O1D O 0.67785(10) -0.21501(10) -0.0873(2)
O2D O 0.73411(11) -0.16183(10) -0.2017(2)
O3D O 0.80189(9) -0.22322(8) 0.3689(2)
O4D O 0.75756(11) -0.16044(9) 0.4933(2)
Li1D Li 0.7115(2) -0.1850(2) -0.3857(5)
Zn1D Zn 0.645762(16) -0.268952(15) -0.23695(4)
Li1E Li 0.2885(2) -0.1850(2) 0.3857(5)
Zn1E Zn 0.354238(16) -0.268952(15) 0.23695(4)
Li1_2 Li 0.2885(2) 0.1850(2) -0.6143(5)
Li1A_2 Li 0.7115(2) 0.1850(2) 0.6143(5)
Li1B Li 0.7885(2) -0.3150(2) 0.3857(5)
Li1C Li 0.2115(2) -0.3150(2) -0.3857(5)
Li1D_2 Li 0.7115(2) -0.1850(2) 0.6143(5)
Li1E_2 Li 0.2885(2) -0.1850(2) -0.6143(5)
Li1F Li 0.2115(2) 0.3150(2) -0.3857(5)
Li1G Li 0.7885(2) 0.3150(2) 0.3857(5)
O3B O 0.69811(9) -0.27678(8) -0.3689(2)
O3C O 0.30189(9) -0.27678(8) 0.3689(2)
O3F O 0.30189(9) 0.27678(8) 0.3689(2)
O3G O 0.69811(9) 0.27678(8) -0.3689(2)
O4_2 O 0.24244(11) 0.16044(9) 0.5067(2)
O4A_2 O 0.75756(11) 0.16044(9) -0.5067(2)
O4D_2 O 0.75756(11) -0.16044(9) -0.5067(2)
O4E_2 O 0.24244(11) -0.16044(9) 0.5067(2)
O5A_2 O 0.58365(10) 0.22125(10) -0.3237(3)
O5D_2 O 0.58365(10) -0.22125(10) -0.3237(3)
O6A_2 O 0.63909(10) 0.15541(11) -0.4097(3)
O6D_2 O 0.63909(10) -0.15541(11) -0.4097(3)
O7D_2 O 0.61980(10) -0.34184(10) -0.1462(3)
O7E_2 O 0.38020(10) -0.34184(10) 0.1462(3)
Zn1A_2 Zn 0.645762(16) 0.268952(15) 0.76305(4)
Zn1B Zn 0.854238(16) -0.231048(15) 0.23695(4)
Zn1C Zn 0.145762(16) -0.231048(15) -0.23695(4)
Zn1D_2 Zn 0.645762(16) -0.268952(15) 0.76305(4)
Zn1D_3 Zn 0.645762(16) 0.731048(15) -0.23695(4)
Zn1E_2 Zn 0.354238(16) 0.731048(15) 0.23695(4)
Zn1F Zn 0.145762(16) 0.231048(15) -0.23695(4)
Zn1G Zn 0.854238(16) 0.231048(15) 0.23695(4)
loop_
_geom_bond_atom_site_label_1
_geom_bond_atom_site_label_2
_geom_bond_site_symmetry_1
_geom_bond_site_symmetry_2
C1 C2 1_555 1_555
C2 C3 1_555 1_555
C3 H1 1_555 1_555
C4 C3 1_555 1_555
C5 C4 1_555 1_555
C6 C4 1_555 1_555
C7 C6 1_555 1_555
H2 C7 1_555 1_555
C8 H3 1_555 1_555
C9 C2 1_555 1_555
C10 C6 1_555 1_555
C11 C12 1_555 1_555
C12 C13 1_555 1_555
C13 H4 1_555 1_555
C14 H5 1_555 1_555
C15 C12 1_555 1_555
C16 C15 1_555 1_555
C17 C18 1_555 1_555
C18 C19 1_555 1_555
C19 H6 1_555 1_555
C20 H7 1_555 1_555
C21 C18 1_555 1_555
C22 C21 1_555 1_555
Li1 O2 1_555 1_555
O1 C1 1_555 1_555
O2 C1 1_555 1_555
O3 C5 1_555 1_555
O4 C5 1_555 1_555
O5 C11 1_555 1_555
O6 C11 1_555 1_555
O7 C17 1_555 1_555
O8 C17 1_555 1_555
Zn1 O1 1_555 1_555
N1 H8 1_555 1_555
H9 N1 1_555 1_555
C23 N1 1_555 1_555
H10 C23 1_555 1_555
H11 C23 1_555 1_555
H12 C23 1_555 1_555
C24 N1 1_555 1_555
H13 C24 1_555 1_555
H14 C24 1_555 1_555
H15 C24 1_555 1_555
C1E C2E 1_555 1_555
C2E C3E 1_555 1_555
C3E H1E 1_555 1_555
C4E C3E 1_555 1_555
C5E C4E 1_555 1_555
C6E C4E 1_555 1_555
C7E C7 1_555 1_555
H2E C7E 1_555 1_555
C8E C8 1_555 1_555
H3E C8E 1_555 1_555
C9E C2E 1_555 1_555
C10E C10 1_555 1_555
O1E C1E 1_555 1_555
O2E C1E 1_555 1_555
O3E C5E 1_555 1_555
O4E C5E 1_555 1_555
C11A C12A 1_555 1_555
C12A C13 1_555 1_555
C14A H5A 1_555 1_555
C15A C16 1_555 1_555
O5A C11A 1_555 1_555
O6A C11A 1_555 1_555
C11D C12D 1_555 1_555
C12D C13D 1_555 1_555
C13D H4D 1_555 1_555
C14D C14A 1_555 1_555
H5D C14D 1_555 1_555
C15D C12D 1_555 1_555
C16D C16 1_555 1_555
O5D C11D 1_555 1_555
O6D C11D 1_555 1_555
C11E C12E 1_555 1_555
C12E C13D 1_555 1_555
C14E C14 1_555 1_555
H5E C14E 1_555 1_555
C15E C16D 1_555 1_555
O5E C11E 1_555 1_555
O6E C11E 1_555 1_555
C17A C18A 1_555 1_555
C18A C19A 1_555 1_555
C19A H6A 1_555 1_555
C20A C20 1_555 1_555
H7A C20A 1_555 1_555
C21A C18A 1_555 1_555
C22A C22 1_555 1_555
O7A C17A 1_555 1_555
O8A C17A 1_555 1_555
C17D C18D 1_555 1_555
C18D C19A 1_555 1_555
C20D H7D 1_555 1_555
C21D C22A 1_555 1_555
O7D C17D 1_555 1_555
O8D C17D 1_555 1_555
C17E C18E 1_555 1_555
C18E C19 1_555 1_555
C20E C20D 1_555 1_555
H7E C20E 1_555 1_555
C21E C22 1_555 1_555
O7E C17E 1_555 1_555
O8E C17E 1_555 1_555
C1A C2A 1_555 1_555
C2A C3A 1_555 1_555
C3A H1A 1_555 1_555
C4A C3A 1_555 1_555
C5A C4A 1_555 1_555
C6A C4A 1_555 1_555
C7A C6A 1_555 1_555
H2A C7A 1_555 1_555
C8A H3A 1_555 1_555
C9A C2A 1_555 1_555
C10A C6A 1_555 1_555
Li1A O2A 1_555 1_555
O1A C1A 1_555 1_555
O2A C1A 1_555 1_555
O3A C5A 1_555 1_555
O4A C5A 1_555 1_555
Zn1A O7A 1_555 1_555
C1D C2D 1_555 1_555
C2D C3D 1_555 1_555
C3D H1D 1_555 1_555
C4D C3D 1_555 1_555
C5D C4D 1_555 1_555
C6D C4D 1_555 1_555
C7D C7A 1_555 1_555
H2D C7D 1_555 1_555
C8D C8A 1_555 1_555
H3D C8D 1_555 1_555
C9D C2D 1_555 1_555
C10D C10A 1_555 1_555
O1D C1D 1_555 1_555
O2D C1D 1_555 1_555
O3D C5D 1_555 1_555
O4D C5D 1_555 1_555
Li1D O2D 1_555 1_555
Zn1D O1D 1_555 1_555
Li1E O2E 1_555 1_555
Zn1E O1E 1_555 1_555
Li1_2 O4 1_555 1_555
Li1A_2 O6A 1_555 1_555
Li1B O3D 1_555 1_555
Li1C O3E 1_555 1_555
Li1D_2 O6D 1_555 1_555
Li1E_2 O4E 1_555 1_555
Li1F O3 1_555 1_555
Li1G O3A 1_555 1_555
O3B Li1D 1_555 1_555
O3C Li1E 1_555 1_555
O3F Li1 1_555 1_555
O3G Li1A 1_555 1_555
O4_2 Li1 1_555 1_555
O4A_2 Li1A 1_555 1_555
O4D_2 Li1D 1_555 1_555
O4E_2 Li1E 1_555 1_555
O5A_2 Zn1A 1_555 1_555
O5D_2 Zn1D 1_555 1_555
O6A_2 Li1A 1_555 1_555
O6D_2 Li1D 1_555 1_555
O7D_2 Zn1D 1_555 1_555
O7E_2 Zn1E 1_555 1_555
Zn1A_2 O5A 1_555 1_555
Zn1B O3D 1_555 1_555
Zn1C O3E 1_555 1_555
Zn1D_2 O5D 1_555 1_555
Zn1D_3 O7D 1_555 1_555
Zn1E_2 O7E 1_555 1_555
Zn1F O3 1_555 1_555
Zn1G O3A 1_555 1_555
N1A H8A 1_555 1_555
H9A N1A 1_555 1_555
C23A N1A 1_555 1_555
H10A C23A 1_555 1_555
H11A C23A 1_555 1_555
H12A C23A 1_555 1_555
C24A N1A 1_555 1_555
H13A C24A 1_555 1_555
H14A C24A 1_555 1_555
H15A C24A 1_555 1_555
C8 C9 1_555 1_555
C9 C10 1_555 1_555
C14 C15 1_555 1_555
C20 C21 1_555 1_555
Li1 O6 1_555 1_555
O5 Zn1 1_555 1_555
O7 Zn1 1_555 1_555
Zn1 O3F 1_555 1_555
C6E C7E 1_555 1_555
C6E C10E 1_555 1_555
C8E C9E 1_555 1_555
C9E C10E 1_555 1_555
C12A C15A 1_555 1_555
C14A C15A 1_555 1_555
C14D C15D 1_555 1_555
C15D C16D 1_555 1_555
C12E C15E 1_555 1_555
C14E C15E 1_555 1_555
O5E Zn1E 1_555 1_555
O6E Li1E 1_555 1_555
C20A C21A 1_555 1_555
C21A C22A 1_555 1_555
C18D C21D 1_555 1_555
C20D C21D 1_555 1_555
C18E C21E 1_555 1_555
C20E C21E 1_555 1_555
C8A C9A 1_555 1_555
C9A C10A 1_555 1_555
O1A Zn1A 1_555 1_555
O4A Li1A_2 1_555 1_555
Zn1A O3G 1_555 1_555
C6D C7D 1_555 1_555
C6D C10D 1_555 1_555
C8D C9D 1_555 1_555
C9D C10D 1_555 1_555
O4D Li1D_2 1_555 1_555
Zn1D O3B 1_555 1_555
Zn1E O3C 1_555 1_555

#END
