
#######################################################################
#
#                 Cambridge Crystallographic Data Centre
#                                CCDC 
#
#######################################################################
#
# If this CIF has been generated from an entry in the Cambridge 
# Structural Database, then it will include bibliographic, chemical, 
# crystal, experimental, refinement or atomic coordinate data resulting 
# from the CCDC's data processing and validation procedures.
#
#######################################################################

data_WIDZUG
_chemical_formula_moiety         '(C14 H16 Cd1 N4 O6)n'
_symmetry_cell_setting           monoclinic
_symmetry_space_group_name_H-M   'C 2/c'
_symmetry_Int_Tables_number      15
_space_group_name_Hall           '-C 2yc'
loop_
_symmetry_equiv_pos_site_id
_symmetry_equiv_pos_as_xyz
1 x,y,z
2 -x,y,1/2-z
3 1/2+x,1/2+y,z
4 1/2-x,1/2+y,1/2-z
5 -x,-y,-z
6 x,-y,1/2+z
7 1/2-x,1/2-y,-z
8 1/2+x,1/2-y,1/2+z
_cell_length_a                   24.709(3)
_cell_length_b                   11.5985(12)
_cell_length_c                   14.2484(15)
_cell_angle_alpha                90
_cell_angle_beta                 103.464(7)
_cell_angle_gamma                90
_cell_volume                     3971.18
loop_
_atom_site_label
_atom_site_type_symbol
_atom_site_fract_x
_atom_site_fract_y
_atom_site_fract_z
_atom_site_U_iso_or_equiv
_atom_site_thermal_displace_type
C1 C 0.33213(14) 0.4024(3) 0.2924(3) 0.0509 Uani
C2 C 0.36425(15) 0.4611(4) 0.3833(3) 0.0641 Uani
H1 H 0.3948 0.4114 0.4140 0.0770 Uiso
H2 H 0.3802 0.5317 0.3651 0.0770 Uiso
C3 C 0.33088(17) 0.4903(3) 0.4561(3) 0.0595 Uani
H3 H 0.3561 0.5147 0.5156 0.0710 Uiso
H4 H 0.3119 0.4215 0.4700 0.0710 Uiso
C4 C 0.28856(13) 0.5839(3) 0.4227(2) 0.0408 Uani
C5 C 0.40644(16) 0.2456(4) 0.1335(3) 0.0573 Uani
H5 H 0.4047 0.3255 0.1377 0.0690 Uiso
C6 C 0.45659(15) 0.1948(4) 0.1307(3) 0.0591 Uani
H6 H 0.4881 0.2395 0.1328 0.0710 Uiso
C7 C 0.45888(14) 0.0769(3) 0.1248(2) 0.0511 Uani
C8 C 0.41169(14) 0.0128(3) 0.1217(3) 0.0550 Uani
H7 H 0.4126 -0.0672 0.1179 0.0660 Uiso
C9 C 0.36277(15) 0.0697(3) 0.1243(3) 0.0529 Uani
H8 H 0.3308 0.0264 0.1218 0.0630 Uiso
C10 C 0.59928(13) 0.0032(3) 0.1304(2) 0.0480 Uani
C11 C 0.64725(15) 0.0621(3) 0.1253(3) 0.0569 Uani
H9 H 0.6474 0.1420 0.1202 0.0680 Uiso
C12 C 0.69491(14) -0.0013(3) 0.1281(3) 0.0539 Uani
H10 H 0.7274 0.0379 0.1259 0.0650 Uiso
C13 C 0.64999(16) -0.1703(3) 0.1413(4) 0.0659 Uani
H11 H 0.6511 -0.2499 0.1489 0.0790 Uiso
C14 C 0.60022(16) -0.1140(4) 0.1381(4) 0.0690 Uani
H12 H 0.5683 -0.1550 0.1411 0.0830 Uiso
N1 N 0.35985(11) 0.1834(3) 0.1302(2) 0.0467 Uani
N2 N 0.50902(12) 0.0128(3) 0.1245(2) 0.0583 Uani
N3 N 0.54969(12) 0.0704(3) 0.1276(2) 0.0580 Uani
N4 N 0.69649(11) -0.1163(2) 0.1339(2) 0.0460 Uani
O1 O 0.30159(12) 0.3191(2) 0.30228(18) 0.0565 Uani
O2 O 0.33795(11) 0.4336(2) 0.2112(2) 0.0617 Uani
O3 O 0.27121(11) 0.6041(2) 0.33597(17) 0.0520 Uani
O4 O 0.27175(11) 0.6426(3) 0.48417(18) 0.0622 Uani
Cd1 Cd 0.277023(8) 0.278120(17) 0.135749(15) 0.0372 Uani
N4B N 0.19649(11) 0.3837(2) 0.1339(2) 0.0460 Uani
O3C O 0.22879(11) 0.1041(2) 0.16403(17) 0.0520 Uani
O4C O 0.22825(11) 0.1426(3) 0.01583(18) 0.0622 Uani
O4E O 0.27175(11) 0.3574(3) -0.01583(18) 0.0622 Uani
Cd1B Cd 0.777023(8) -0.221880(17) 0.135749(15) 0.0372 Uani
Cd1C Cd 0.222977(8) 0.778120(17) 0.364251(15) 0.0372 Uani
Cd1E Cd 0.277023(8) 0.721880(17) 0.635749(15) 0.0372 Uani
O5 O 0.3776(3) 0.6549(5) 0.1816(5) 0.1418 Uani
H13 H 0.3730 0.5861 0.1988 0.2130 Uiso
H14 H 0.4120 0.6667 0.1849 0.2130 Uiso
O6 O 0.2184(3) 0.2869(6) 0.4093(5) 0.1496 Uani
H15 H 0.2141 0.2163 0.3933 0.2240 Uiso
H16 H 0.1968 0.2945 0.4473 0.2240 Uiso
loop_
_atom_site_aniso_label
_atom_site_aniso_U_11
_atom_site_aniso_U_22
_atom_site_aniso_U_33
_atom_site_aniso_U_23
_atom_site_aniso_U_13
_atom_site_aniso_U_12
C1 0.0385(16) 0.0490(17) 0.063(2) -0.0134(15) 0.0073(14) 0.0140(14)
C2 0.0433(19) 0.068(2) 0.073(2) -0.021(2) -0.0027(17) 0.0137(17)
C3 0.074(2) 0.0526(19) 0.0446(18) -0.0067(15) -0.0008(16) 0.0037(18)
C4 0.0379(15) 0.0381(14) 0.0491(17) -0.0103(12) 0.0155(12) -0.0114(12)
C5 0.042(2) 0.0569(18) 0.074(3) -0.0024(18) 0.0156(18) 0.0164(16)
C6 0.0342(17) 0.067(2) 0.077(3) -0.0064(19) 0.0145(16) 0.0147(16)
C7 0.0391(16) 0.065(2) 0.0481(17) -0.0034(15) 0.0081(13) 0.0249(15)
C8 0.0435(18) 0.0570(19) 0.062(2) -0.0083(16) 0.0074(15) 0.0190(15)
C9 0.0413(17) 0.0598(19) 0.0575(19) -0.0048(16) 0.0113(14) 0.0144(15)
C10 0.0364(15) 0.0582(18) 0.0486(17) -0.0072(14) 0.0083(13) 0.0209(14)
C11 0.0464(19) 0.0486(18) 0.073(2) -0.0130(17) 0.0087(16) 0.0136(15)
C12 0.0361(16) 0.0500(18) 0.075(2) -0.0086(16) 0.0116(15) 0.0073(14)
C13 0.046(2) 0.051(2) 0.111(3) 0.011(2) 0.039(2) 0.0168(16)
C14 0.0437(19) 0.061(2) 0.113(3) 0.009(2) 0.040(2) 0.0143(17)
N1 0.0343(13) 0.0570(15) 0.0493(15) 0.0001(13) 0.0107(11) 0.0185(12)
N2 0.0340(14) 0.0688(19) 0.071(2) -0.0098(16) 0.0097(13) 0.0222(14)
N3 0.0414(16) 0.0647(18) 0.0675(19) -0.0083(15) 0.0119(13) 0.0240(14)
N4 0.0366(13) 0.0519(15) 0.0523(15) 0.0017(12) 0.0162(11) 0.0140(11)
O1 0.0650(16) 0.0497(13) 0.0521(14) -0.0052(11) 0.0084(12) 0.0068(12)
O2 0.0625(16) 0.0631(15) 0.0643(16) -0.0122(13) 0.0248(13) 0.0030(12)
O3 0.0555(14) 0.0523(13) 0.0484(13) -0.0014(10) 0.0128(11) 0.0053(11)
O4 0.0622(16) 0.0731(16) 0.0535(14) -0.0185(13) 0.0179(12) -0.0007(13)
Cd1 0.02992(15) 0.04265(16) 0.04104(16) 0.00128(7) 0.01215(10) 0.01058(7)
N4B 0.0366 0.0519 0.0523 0.0017 0.0162 0.014
O3C 0.0555 0.0523 0.0484 0.0014 0.0128 -0.0053
O4C 0.0622 0.0731 0.0535 0.0185 0.0179 0.0007
O4E 0.0622 0.0731 0.0535 0.0185 0.0179 0.0007
Cd1B 0.02992 0.04265 0.04104 0.00128 0.01215 0.01058
Cd1C 0.02992 0.04265 0.04104 -0.00128 0.01215 -0.01058
Cd1E 0.02992 0.04265 0.04104 -0.00128 0.01215 -0.01058
O5 0.183(6) 0.114(4) 0.134(4) -0.027(3) 0.048(4) -0.035(4)
O6 0.164(6) 0.171(6) 0.131(5) -0.022(4) 0.069(4) -0.055(5)
loop_
_geom_bond_atom_site_label_1
_geom_bond_atom_site_label_2
_geom_bond_site_symmetry_1
_geom_bond_site_symmetry_2
C1 C2 1_555 1_555
C2 H1 1_555 1_555
H2 C2 1_555 1_555
C3 C2 1_555 1_555
H3 C3 1_555 1_555
H4 C3 1_555 1_555
C4 C3 1_555 1_555
C5 H5 1_555 1_555
C6 C5 1_555 1_555
H6 C6 1_555 1_555
C7 C6 1_555 1_555
C8 C7 1_555 1_555
H7 C8 1_555 1_555
C9 C8 1_555 1_555
H8 C9 1_555 1_555
C10 C11 1_555 1_555
C11 H9 1_555 1_555
C12 C11 1_555 1_555
H10 C12 1_555 1_555
C13 H11 1_555 1_555
C14 C10 1_555 1_555
H12 C14 1_555 1_555
N1 C5 1_555 1_555
N2 C7 1_555 1_555
N3 C10 1_555 1_555
N4 C12 1_555 1_555
O1 C1 1_555 1_555
O2 C1 1_555 1_555
O3 C4 1_555 1_555
O4 C4 1_555 1_555
Cd1 N1 1_555 1_555
O5 H13 1_555 1_555
H14 O5 1_555 1_555
O6 H15 1_555 1_555
H16 O6 1_555 1_555
N4B Cd1 1_555 1_555
O3C Cd1 1_555 1_555
O4C Cd1 1_555 1_555
O4E Cd1 1_555 1_555
Cd1B N4 1_555 1_555
Cd1C O3 1_555 1_555
Cd1E O4 1_555 1_555
C9 N1 1_555 1_555
C13 C14 1_555 1_555
C13 N4 1_555 1_555
N2 N3 1_555 1_555
O1 Cd1 1_555 1_555
O2 Cd1 1_555 1_555
O4 Cd1C 1_555 1_555

#END
