
#######################################################################
#
#                 Cambridge Crystallographic Data Centre
#                                CCDC 
#
#######################################################################
#
# If this CIF has been generated from an entry in the Cambridge 
# Structural Database, then it will include bibliographic, chemical, 
# crystal, experimental, refinement or atomic coordinate data resulting 
# from the CCDC's data processing and validation procedures.
#
#######################################################################

data_IXAMAW
_chemical_formula_moiety         '(C4 H4 Fe4 N2 O18 P4)n'
_symmetry_cell_setting           tetragonal
_symmetry_space_group_name_H-M   'I -4 2 m'
_symmetry_Int_Tables_number      121
_space_group_name_Hall           'I -4 2'
loop_
_symmetry_equiv_pos_site_id
_symmetry_equiv_pos_as_xyz
1 x,y,z
2 y,-x,-z
3 -x,-y,z
4 -y,x,-z
5 x,-y,-z
6 -y,-x,z
7 -x,y,-z
8 y,x,z
9 1/2+x,1/2+y,1/2+z
10 1/2+y,1/2-x,1/2-z
11 1/2-x,1/2-y,1/2+z
12 1/2-y,1/2+x,1/2-z
13 1/2+x,1/2-y,1/2-z
14 1/2-y,1/2-x,1/2+z
15 1/2-x,1/2+y,1/2-z
16 1/2+y,1/2+x,1/2+z
_cell_length_a                   10.292(2)
_cell_length_b                   10.292(2)
_cell_length_c                   9.629(3)
_cell_angle_alpha                90
_cell_angle_beta                 90
_cell_angle_gamma                90
_cell_volume                     1019.95
loop_
_atom_site_label
_atom_site_type_symbol
_atom_site_fract_x
_atom_site_fract_y
_atom_site_fract_z
_atom_site_U_iso_or_equiv
_atom_site_thermal_displace_type
N1 N 0.0000 -0.3164(14) -0.5000 0.0787 Uani
C1 C 0.005(2) -0.4560(18) -0.4379(19) 0.0677 Uani
N1B N 0.0000 -0.6836(14) -0.5000 0.0787 Uani
C1B C -0.005(2) -0.5440(18) -0.4379(19) 0.0677 Uani
C1D C 0.005(2) -0.5440(18) -0.5621(19) 0.0677 Uani
C1F C -0.005(2) -0.4560(18) -0.5621(19) 0.0677 Uani
O5 O -0.5000 -0.5000 -1.0000 0.1270 Uani
Fe1 Fe -0.36558(13) -0.36558(13) -0.6348(2) 0.0592 Uani
P1 P -0.3369(2) -0.3369(2) -0.3085(5) 0.0631 Uani
O1 O -0.5000 -0.5000 -0.5000 0.1133 Uani
O2 O -0.2974(9) -0.2974(9) -0.4541(15) 0.1030 Uani
O3 O -0.4765(7) -0.3049(7) -0.2771(8) 0.0723 Uani
O4 O -0.2618(13) -0.2618(13) -0.205(2) 0.1627 Uani
Fe1A Fe -0.36558(13) -0.63442(13) -0.3652(2) 0.0592 Uani
Fe1C Fe -0.63442(13) -0.36558(13) -0.3652(2) 0.0592 Uani
Fe1B Fe -0.63442(13) -0.63442(13) -0.6348(2) 0.0592 Uani
Fe1J Fe -0.13442(13) -0.13442(13) -0.1348(2) 0.0592 Uani
Fe1K Fe -0.13442(13) -0.86558(13) -0.8652(2) 0.0592 Uani
Fe1I Fe -0.86558(13) -0.13442(13) -0.8652(2) 0.0592 Uani
Fe1H Fe -0.86558(13) -0.86558(13) -0.1348(2) 0.0592 Uani
P1A P -0.3369(2) -0.6631(2) -0.6915(5) 0.0631 Uani
P1C P -0.6631(2) -0.3369(2) -0.6915(5) 0.0631 Uani
P1B P -0.6631(2) -0.6631(2) -0.3085(5) 0.0631 Uani
O2A O -0.2974(9) -0.7026(9) -0.5459(15) 0.1030 Uani
O2C O -0.7026(9) -0.2974(9) -0.5459(15) 0.1030 Uani
O2B O -0.7026(9) -0.7026(9) -0.4541(15) 0.1030 Uani
O3G O -0.3049(7) -0.4765(7) -0.2771(8) 0.0723 Uani
O3A O -0.3049(7) -0.5235(7) -0.7229(8) 0.0723 Uani
O3D O -0.4765(7) -0.6951(7) -0.7229(8) 0.0723 Uani
O3F O -0.5235(7) -0.3049(7) -0.7229(8) 0.0723 Uani
O3C O -0.6951(7) -0.4765(7) -0.7229(8) 0.0723 Uani
O3B O -0.5235(7) -0.6951(7) -0.2771(8) 0.0723 Uani
O3E O -0.6951(7) -0.5235(7) -0.2771(8) 0.0723 Uani
O4A O -0.2618(13) -0.7382(13) -0.795(2) 0.1627 Uani
O4C O -0.7382(13) -0.2618(13) -0.795(2) 0.1627 Uani
O4J O -0.2382(13) -0.2382(13) -0.705(2) 0.1627 Uani
O4K O -0.2382(13) -0.7618(13) -0.295(2) 0.1627 Uani
O4I O -0.7618(13) -0.2382(13) -0.295(2) 0.1627 Uani
O4H O -0.7618(13) -0.7618(13) -0.705(2) 0.1627 Uani
O4B O -0.7382(13) -0.7382(13) -0.205(2) 0.1627 Uani
loop_
_atom_site_aniso_label
_atom_site_aniso_U_11
_atom_site_aniso_U_22
_atom_site_aniso_U_33
_atom_site_aniso_U_23
_atom_site_aniso_U_13
_atom_site_aniso_U_12
N1 0.057 0.055 0.124 0 0.004 0
C1 0.049 0.079 0.075 -0.005 -0.01 0.012
N1B 0.057(7) 0.055(7) 0.124(14) 0.000 -0.004(8) 0.000
C1B 0.049 0.079 0.075 0.005 0.01 0.012
C1D 0.049(9) 0.079(14) 0.075(11) -0.005(9) 0.010(11) -0.012(13)
C1F 0.049 0.079 0.075 0.005 -0.01 -0.012
O5 0.16(2) 0.16(2) 0.061(16) 0.000 0.000 0.000
Fe1 0.0492 0.0492 0.0791 0.0065 0.0065 -0.0068
P1 0.0521 0.0521 0.085 -0.0116 -0.0116 -0.0135
O1 0.085(11) 0.085(11) 0.17(3) 0.000 0.000 0.000
O2 0.107 0.107 0.095 0.006 0.006 -0.03
O3 0.061 0.062 0.094 -0.017 -0.007 -0.006
O4 0.167 0.167 0.154 -0.029 -0.029 -0.085
Fe1A 0.0492(7) 0.0492(7) 0.0791(13) 0.0065(7) -0.0065(7) 0.0068(7)
Fe1C 0.0492 0.0492 0.0791 -0.0065 0.0065 0.0068
Fe1B 0.0492 0.0492 0.0791 -0.0065 -0.0065 -0.0068
Fe1J 0.0492 0.0492 0.0791 -0.0065 -0.0065 -0.0068
Fe1K 0.0492 0.0492 0.0791 -0.0065 0.0065 0.0068
Fe1I 0.0492 0.0492 0.0791 0.0065 -0.0065 0.0068
Fe1H 0.0492 0.0492 0.0791 0.0065 0.0065 -0.0068
P1A 0.0521(11) 0.0521(11) 0.085(2) -0.0116(10) 0.0116(10) 0.0135(13)
P1C 0.0521 0.0521 0.085 0.0116 -0.0116 0.0135
P1B 0.0521 0.0521 0.085 0.0116 0.0116 -0.0135
O2A 0.107(7) 0.107(7) 0.095(10) 0.006(5) -0.006(5) 0.030(9)
O2C 0.107 0.107 0.095 -0.006 0.006 0.03
O2B 0.107 0.107 0.095 -0.006 -0.006 -0.03
O3G 0.062 0.061 0.094 -0.007 -0.017 -0.006
O3A 0.062 0.061 0.094 -0.007 0.017 0.006
O3D 0.061(2) 0.062(2) 0.094(3) -0.017(2) 0.007(2) 0.006(2)
O3F 0.061 0.062 0.094 0.017 -0.007 0.006
O3C 0.062 0.061 0.094 0.007 -0.017 0.006
O3B 0.061 0.062 0.094 0.017 0.007 -0.006
O3E 0.062 0.061 0.094 0.007 0.017 -0.006
O4A 0.167(11) 0.167(11) 0.154(18) -0.029(9) 0.029(9) 0.085(15)
O4C 0.167 0.167 0.154 0.029 -0.029 0.085
O4J 0.167 0.167 0.154 0.029 0.029 -0.085
O4K 0.167 0.167 0.154 0.029 -0.029 0.085
O4I 0.167 0.167 0.154 -0.029 0.029 0.085
O4H 0.167 0.167 0.154 -0.029 -0.029 -0.085
O4B 0.167 0.167 0.154 0.029 0.029 -0.085
loop_
_geom_bond_atom_site_label_1
_geom_bond_atom_site_label_2
_geom_bond_site_symmetry_1
_geom_bond_site_symmetry_2
Fe1 O1 1_555 1_555
P1 O2 1_555 1_555
O1 Fe1A 1_555 1_555
O2 Fe1 1_555 1_555
O3 P1 1_555 1_555
O4 P1 1_555 1_555
N1 C1 1_555 1_555
C1 C1B 1_555 1_555
Fe1A O2A 1_555 1_555
Fe1C O1 1_555 1_555
Fe1B O1 1_555 1_555
Fe1J O4 1_555 1_555
Fe1K O4A 1_555 1_555
Fe1I O4C 1_555 1_555
Fe1H O4B 1_555 1_555
P1A O2A 1_555 1_555
P1C O2C 1_555 1_555
P1B O2B 1_555 1_555
O2C Fe1C 1_555 1_555
O2B Fe1B 1_555 1_555
O3G P1 1_555 1_555
O3A Fe1 1_555 1_555
O3D Fe1B 1_555 1_555
O3F Fe1 1_555 1_555
O3C Fe1B 1_555 1_555
O3B Fe1A 1_555 1_555
O3E Fe1C 1_555 1_555
O4A P1A 1_555 1_555
O4C P1C 1_555 1_555
O4J Fe1 1_555 1_555
O4K Fe1A 1_555 1_555
O4I Fe1C 1_555 1_555
O4H Fe1B 1_555 1_555
O4B P1B 1_555 1_555
N1B C1B 1_555 1_555
C1B C1D 1_555 1_555
C1D C1 1_555 1_555
C1F N1 1_555 1_555
O3 Fe1C 1_555 1_555
C1 C1F 1_555 1_555
Fe1A O3G 1_555 1_555
P1A O3A 1_555 1_555
P1A O3D 1_555 1_555
P1C O3F 1_555 1_555
P1C O3C 1_555 1_555
P1B O3B 1_555 1_555
P1B O3E 1_555 1_555
N1B C1D 1_555 1_555
C1B C1F 1_555 1_555
C1D C1F 1_555 1_555

#END
