
#######################################################################
#
#                 Cambridge Crystallographic Data Centre
#                                CCDC 
#
#######################################################################
#
# If this CIF has been generated from an entry in the Cambridge 
# Structural Database, then it will include bibliographic, chemical, 
# crystal, experimental, refinement or atomic coordinate data resulting 
# from the CCDC's data processing and validation procedures.
#
#######################################################################

data_IXAMEA
_chemical_formula_moiety         '(C4 H2 F1 Fe4 N2 O17 P4)n'
_symmetry_cell_setting           tetragonal
_symmetry_space_group_name_H-M   'I -4 2 m'
_symmetry_Int_Tables_number      121
_space_group_name_Hall           'I -4 2'
loop_
_symmetry_equiv_pos_site_id
_symmetry_equiv_pos_as_xyz
1 x,y,z
2 y,-x,-z
3 -x,-y,z
4 -y,x,-z
5 x,-y,-z
6 -y,-x,z
7 -x,y,-z
8 y,x,z
9 1/2+x,1/2+y,1/2+z
10 1/2+y,1/2-x,1/2-z
11 1/2-x,1/2-y,1/2+z
12 1/2-y,1/2+x,1/2-z
13 1/2+x,1/2-y,1/2-z
14 1/2-y,1/2-x,1/2+z
15 1/2-x,1/2+y,1/2-z
16 1/2+y,1/2+x,1/2+z
_cell_length_a                   10.2941(7)
_cell_length_b                   10.2941(7)
_cell_length_c                   9.6484(12)
_cell_angle_alpha                90
_cell_angle_beta                 90
_cell_angle_gamma                90
_cell_volume                     1022.43
loop_
_atom_site_label
_atom_site_type_symbol
_atom_site_fract_x
_atom_site_fract_y
_atom_site_fract_z
_atom_site_U_iso_or_equiv
_atom_site_thermal_displace_type
N1 N 0.0000 0.6838(10) 0.5000 0.0700 Uani
C1 C 0.0041(12) 0.5451(11) 0.5631(11) 0.0470 Uani
N1B N 0.0000 0.3162(10) 0.5000 0.0700 Uani
C1B C -0.0041(12) 0.4549(11) 0.5631(11) 0.0470 Uani
C1D C 0.0041(12) 0.4549(11) 0.4369(11) 0.0470 Uani
C1F C -0.0041(12) 0.5451(11) 0.4369(11) 0.0470 Uani
O5 O 0.0000 0.0000 0.5000 0.1350 Uani
Fe1 Fe 0.36687(9) 0.63313(9) 0.63222(15) 0.0497 Uani
P1 P 0.33631(16) 0.33631(16) 0.6929(3) 0.0554 Uani
F1 F 0.5000 0.5000 0.5000 0.0940 Uani
O2 O 0.3046(6) 0.4770(6) 0.7198(8) 0.0863 Uani
O3 O 0.2992(5) 0.2992(5) 0.5484(8) 0.0634 Uani
O4 O 0.2562(8) 0.2562(8) 0.7902(16) 0.1573 Uani
Fe1C Fe 0.36687(9) 0.36687(9) 0.36778(15) 0.0497 Uani
Fe1B Fe 0.63313(9) 0.36687(9) 0.63222(15) 0.0497 Uani
Fe1A Fe 0.63313(9) 0.63313(9) 0.36778(15) 0.0497 Uani
Fe1I Fe 0.13313(9) 0.13313(9) 0.86778(15) 0.0497 Uani
Fe1K Fe 0.86687(9) 0.86687(9) 0.86778(15) 0.0497 Uani
Fe1J Fe 0.13313(9) 0.86687(9) 0.13222(15) 0.0497 Uani
Fe1H Fe 0.86687(9) 0.13313(9) 0.13222(15) 0.0497 Uani
P1B P 0.66369(16) 0.66369(16) 0.6929(3) 0.0554 Uani
P1A P 0.33631(16) 0.66369(16) 0.3071(3) 0.0554 Uani
P1C P 0.66369(16) 0.33631(16) 0.3071(3) 0.0554 Uani
O2G O 0.4770(6) 0.3046(6) 0.7198(8) 0.0863 Uani
O2E O 0.5230(6) 0.6954(6) 0.7198(8) 0.0863 Uani
O2B O 0.6954(6) 0.5230(6) 0.7198(8) 0.0863 Uani
O2D O 0.3046(6) 0.5230(6) 0.2802(8) 0.0863 Uani
O2A O 0.4770(6) 0.6954(6) 0.2802(8) 0.0863 Uani
O2C O 0.5230(6) 0.3046(6) 0.2802(8) 0.0863 Uani
O2F O 0.6954(6) 0.4770(6) 0.2802(8) 0.0863 Uani
O3B O 0.7008(5) 0.7008(5) 0.5484(8) 0.0634 Uani
O3A O 0.2992(5) 0.7008(5) 0.4516(8) 0.0634 Uani
O3C O 0.7008(5) 0.2992(5) 0.4516(8) 0.0634 Uani
O4B O 0.7438(8) 0.7438(8) 0.7902(16) 0.1573 Uani
O4A O 0.2562(8) 0.7438(8) 0.2098(16) 0.1573 Uani
O4K O 0.2438(8) 0.7562(8) 0.7098(16) 0.1573 Uani
O4J O 0.2438(8) 0.2438(8) 0.2902(16) 0.1573 Uani
O4I O 0.7562(8) 0.2438(8) 0.7098(16) 0.1573 Uani
O4H O 0.7562(8) 0.7562(8) 0.2902(16) 0.1573 Uani
O4C O 0.7438(8) 0.2562(8) 0.2098(16) 0.1573 Uani
loop_
_atom_site_aniso_label
_atom_site_aniso_U_11
_atom_site_aniso_U_22
_atom_site_aniso_U_33
_atom_site_aniso_U_23
_atom_site_aniso_U_13
_atom_site_aniso_U_12
N1 0.077 0.052 0.081 0 -0.005 0
C1 0.045 0.05 0.046 -0.022 0.004 -0.004
N1B 0.077(7) 0.052(5) 0.081(7) 0.000 0.005(5) 0.000
C1B 0.045 0.05 0.046 0.022 -0.004 -0.004
C1D 0.045(6) 0.050(7) 0.046(5) -0.022(5) -0.004(5) 0.004(6)
C1F 0.045 0.05 0.046 0.022 0.004 0.004
O5 0.170(18) 0.170(18) 0.065(14) 0.000 0.000 0.000
Fe1 0.0445 0.0445 0.06 -0.0062 0.0062 0.0056
P1 0.0519 0.0519 0.0624 0.0093 0.0093 -0.0195
F1 0.090(8) 0.090(8) 0.102(13) 0.000 0.000 0.000
O2 0.08 0.07 0.109 -0.003 0.043 0.006
O3 0.0601 0.0601 0.07 0.0051 0.0051 -0.019
O4 0.157 0.157 0.158 0.037 0.037 -0.094
Fe1C 0.0445(5) 0.0445(5) 0.0600(7) -0.0062(4) -0.0062(4) -0.0056(6)
Fe1B 0.0445 0.0445 0.06 0.0062 -0.0062 0.0056
Fe1A 0.0445 0.0445 0.06 0.0062 0.0062 -0.0056
Fe1I 0.0445 0.0445 0.06 0.0062 0.0062 -0.0056
Fe1K 0.0445 0.0445 0.06 -0.0062 -0.0062 -0.0056
Fe1J 0.0445 0.0445 0.06 0.0062 -0.0062 0.0056
Fe1H 0.0445 0.0445 0.06 -0.0062 0.0062 0.0056
P1B 0.0519 0.0519 0.0624 -0.0093 -0.0093 -0.0195
P1A 0.0519(8) 0.0519(8) 0.0624(12) 0.0093(6) -0.0093(6) 0.0195(10)
P1C 0.0519 0.0519 0.0624 -0.0093 0.0093 0.0195
O2G 0.07 0.08 0.109 0.043 -0.003 0.006
O2E 0.07 0.08 0.109 -0.043 0.003 0.006
O2B 0.08 0.07 0.109 0.003 -0.043 0.006
O2D 0.080(4) 0.070(4) 0.109(5) -0.003(4) -0.043(4) -0.006(3)
O2A 0.07 0.08 0.109 0.043 0.003 -0.006
O2C 0.07 0.08 0.109 -0.043 -0.003 -0.006
O2F 0.08 0.07 0.109 0.003 0.043 -0.006
O3B 0.0601 0.0601 0.07 -0.0051 -0.0051 -0.019
O3A 0.0601(15) 0.0601(15) 0.070(2) 0.0051(13) -0.0051(13) 0.019(2)
O3C 0.0601 0.0601 0.07 -0.0051 0.0051 0.019
O4B 0.157 0.157 0.158 -0.037 -0.037 -0.094
O4A 0.157(8) 0.157(8) 0.158(13) 0.037(6) -0.037(6) 0.094(11)
O4K 0.157 0.157 0.158 -0.037 0.037 0.094
O4J 0.157 0.157 0.158 -0.037 -0.037 -0.094
O4I 0.157 0.157 0.158 0.037 -0.037 0.094
O4H 0.157 0.157 0.158 0.037 0.037 -0.094
O4C 0.157 0.157 0.158 -0.037 0.037 0.094
loop_
_geom_bond_atom_site_label_1
_geom_bond_atom_site_label_2
_geom_bond_site_symmetry_1
_geom_bond_site_symmetry_2
Fe1 F1 1_555 1_555
P1 O2 1_555 1_555
F1 Fe1C 1_555 1_555
O2 Fe1 1_555 1_555
O3 P1 1_555 1_555
O4 P1 1_555 1_555
N1 C1 1_555 1_555
C1 C1B 1_555 1_555
Fe1C O3 1_555 1_555
Fe1B F1 1_555 1_555
Fe1A F1 1_555 1_555
Fe1I O4 1_555 1_555
Fe1K O4B 1_555 1_555
Fe1J O4A 1_555 1_555
Fe1H O4C 1_555 1_555
P1B O2E 1_555 1_555
P1A O2D 1_555 1_555
P1C O2C 1_555 1_555
O2G P1 1_555 1_555
O2E Fe1 1_555 1_555
O2B Fe1B 1_555 1_555
O2D Fe1C 1_555 1_555
O2A Fe1A 1_555 1_555
O2C Fe1C 1_555 1_555
O2F Fe1A 1_555 1_555
O3B Fe1A 1_555 1_555
O3A Fe1 1_555 1_555
O3C Fe1B 1_555 1_555
O4B P1B 1_555 1_555
O4A P1A 1_555 1_555
O4K Fe1 1_555 1_555
O4J Fe1C 1_555 1_555
O4I Fe1B 1_555 1_555
O4H Fe1A 1_555 1_555
O4C P1C 1_555 1_555
N1B C1B 1_555 1_555
C1B C1D 1_555 1_555
C1D C1 1_555 1_555
C1F N1 1_555 1_555
C1 C1F 1_555 1_555
Fe1B O2G 1_555 1_555
P1B O2B 1_555 1_555
P1B O3B 1_555 1_555
P1A O2A 1_555 1_555
P1A O3A 1_555 1_555
P1C O2F 1_555 1_555
P1C O3C 1_555 1_555
N1B C1D 1_555 1_555
C1B C1F 1_555 1_555
C1D C1F 1_555 1_555

#END
