
#######################################################################
#
#                 Cambridge Crystallographic Data Centre
#                                CCDC 
#
#######################################################################
#
# If this CIF has been generated from an entry in the Cambridge 
# Structural Database, then it will include bibliographic, chemical, 
# crystal, experimental, refinement or atomic coordinate data resulting 
# from the CCDC's data processing and validation procedures.
#
#######################################################################

data_FEYDET
_chemical_formula_moiety         '(C28 H20 In2 N2 O14)n'
_symmetry_cell_setting           monoclinic
_symmetry_space_group_name_H-M   'P 21'
_symmetry_Int_Tables_number      4
_space_group_name_Hall           'P 2yb'
loop_
_symmetry_equiv_pos_site_id
_symmetry_equiv_pos_as_xyz
1 x,y,z
2 -x,1/2+y,-z
_cell_length_a                   7.3181(12)
_cell_length_b                   17.020(2)
_cell_length_c                   10.5789(17)
_cell_angle_alpha                90
_cell_angle_beta                 102.651(6)
_cell_angle_gamma                90
_cell_volume                     1285.66
loop_
_atom_site_label
_atom_site_type_symbol
_atom_site_fract_x
_atom_site_fract_y
_atom_site_fract_z
In1 In -0.30667(13) 0.39814(5) 0.18043(8)
In2 In -0.79907(14) 0.45343(5) -0.73791(10)
O1 O -0.3309(18) 0.5367(6) 0.0818(9)
O2 O -0.4140(17) 0.4252(6) -0.0196(10)
O3 O -0.5380(14) 0.7875(5) -0.1265(9)
O4 O -0.7175(16) 0.7892(6) -0.3210(10)
O5 O -0.7028(15) 0.4333(6) -0.4989(10)
O6 O -0.7459(14) 0.5496(5) -0.5904(9)
O7 O -0.1445(15) 0.0673(6) -0.1427(10)
O8 O -0.1111(16) -0.0428(7) -0.0348(11)
O9 O -0.0840(14) 0.3204(5) 0.1127(9)
O10 O 0.1932(14) 0.3285(5) 0.2591(9)
O11 O 0.3000(15) 0.0694(6) 0.5321(9)
O12 O 0.1167(16) -0.0287(6) 0.4502(10)
O13 O -0.0803(12) 0.4502(6) 0.2906(9)
O14 O -0.5044(11) 0.4510(6) 0.2672(7)
C1 C -0.4878(18) 0.5446(7) -0.1350(12)
C2 C -0.504(2) 0.6241(9) -0.1308(13)
H3 H -0.4616 0.6503 -0.0528
C3 C -0.583(2) 0.6666(7) -0.2410(14)
C4 C -0.657(2) 0.6269(7) -0.3571(11)
H4 H -0.7187 0.6550 -0.4294
C5 C -0.639(2) 0.5465(8) -0.3647(13)
C6 C -0.5538(19) 0.5057(8) -0.2526(13)
H5 H -0.5406 0.4515 -0.2563
C7 C -0.402(2) 0.5012(10) -0.0158(14)
C8 C -0.610(2) 0.7519(8) -0.2278(14)
C9 C -0.701(2) 0.5062(9) -0.4939(14)
C10 C -0.0243(18) 0.0772(7) 0.0853(12)
C11 C -0.019(2) 0.1580(8) 0.0839(14)
H6 H -0.0699 0.1844 0.0073
C12 C 0.059(2) 0.2008(8) 0.1925(14)
C13 C 0.1333(19) 0.1607(7) 0.3071(15)
H7 H 0.1933 0.1883 0.3804
C14 C 0.1175(19) 0.0792(8) 0.3115(13)
C15 C 0.047(2) 0.0373(8) 0.2034(13)
H8 H 0.0459 -0.0173 0.2063
C16 C -0.098(2) 0.0295(9) -0.0351(14)
C17 C 0.056(2) 0.2893(9) 0.1890(14)
C18 C 0.184(2) 0.0378(8) 0.4388(14)
In1A In -0.69333(13) 0.89814(5) -0.18043(8)
In2A In -0.20093(14) -0.04657(5) -0.26209(10)
In2_2 In 0.20093(14) 0.45343(5) 0.26209(10)
In2_3 In -0.79907(14) 0.45343(5) 0.26209(10)
O3A O -0.4620(14) 0.2875(5) 0.1265(9)
O4A O -0.2825(16) 0.2892(6) 0.3210(10)
O7A O -0.8555(15) 0.5673(6) -0.8573(10)
O8A O -0.8889(16) 0.4572(7) -0.9652(11)
O10_2 O -0.8068(14) 0.3285(5) -0.7409(9)
O13_2 O -1.0803(12) 0.4502(6) -0.7094(9)
O14_2 O -0.5044(11) 0.4510(6) -0.7328(7)
N1 N 0.493(2) 0.1961(8) 1.6235(16)
H1 H 0.4353 0.1584 1.5771
C19 C 0.551(2) 0.1860(13) 1.7483(18)
H9 H 0.5354 0.1375 1.7852
C20 C 0.639(3) 0.2492(12) 1.829(2)
H10 H 0.6718 0.2453 1.9187
C21 C 0.672(3) 0.3147(12) 1.765(2)
H11 H 0.7354 0.3561 1.8126
C22 C 0.615(3) 0.3231(11) 1.632(2)
H12 H 0.6430 0.3686 1.5915
C23 C 0.522(3) 0.2655(10) 1.5654(19)
H13 H 0.4745 0.2718 1.4770
N2 N 0.085(2) 0.3416(10) 0.6747(15)
H2 H 0.0746 0.3877 0.6407
C24 C 0.022(3) 0.2800(12) 0.5973(17)
H14 H -0.0342 0.2869 0.5102
C25 C 0.043(3) 0.2072(13) 0.653(2)
H15 H 0.0034 0.1629 0.6025
C26 C 0.123(3) 0.1989(11) 0.785(3)
H16 H 0.1369 0.1491 0.8217
C27 C 0.181(3) 0.2622(12) 0.858(2)
H17 H 0.2321 0.2561 0.9464
C28 C 0.166(3) 0.3353(15) 0.8043(17)
H18 H 0.2095 0.3795 0.8536
loop_
_geom_bond_atom_site_label_1
_geom_bond_atom_site_label_2
_geom_bond_site_symmetry_1
_geom_bond_site_symmetry_2
In1 O1 1_555 1_555
In2 O5 1_555 1_555
O1 C7 1_555 1_555
O2 In1 1_555 1_555
O3 C8 1_555 1_555
O4 C8 1_555 1_555
O5 C9 1_555 1_555
O6 In2 1_555 1_555
O7 C16 1_555 1_555
O8 C16 1_555 1_555
O9 In1 1_555 1_555
O10 C17 1_555 1_555
O11 C18 1_555 1_555
O12 C18 1_555 1_555
O13 In1 1_555 1_555
O14 In1 1_555 1_555
N1 H1 1_555 1_555
N2 H2 1_555 1_555
C1 C2 1_555 1_555
C2 H3 1_555 1_555
C3 C2 1_555 1_555
C4 C3 1_555 1_555
H4 C4 1_555 1_555
C5 C4 1_555 1_555
C6 C1 1_555 1_555
H5 C6 1_555 1_555
C7 O2 1_555 1_555
C8 C3 1_555 1_555
C9 O6 1_555 1_555
C10 C11 1_555 1_555
C11 H6 1_555 1_555
C12 C11 1_555 1_555
C13 C12 1_555 1_555
H7 C13 1_555 1_555
C14 C13 1_555 1_555
C15 C10 1_555 1_555
H8 C15 1_555 1_555
C16 C10 1_555 1_555
C17 O9 1_555 1_555
C18 C14 1_555 1_555
C19 N1 1_555 1_555
H9 C19 1_555 1_555
C20 C19 1_555 1_555
H10 C20 1_555 1_555
C21 C20 1_555 1_555
H11 C21 1_555 1_555
C22 C21 1_555 1_555
H12 C22 1_555 1_555
C23 N1 1_555 1_555
H13 C23 1_555 1_555
C24 N2 1_555 1_555
H14 C24 1_555 1_555
C25 C24 1_555 1_555
H15 C25 1_555 1_555
C26 C25 1_555 1_555
H16 C26 1_555 1_555
C27 C26 1_555 1_555
H17 C27 1_555 1_555
C28 N2 1_555 1_555
H18 C28 1_555 1_555
In1A O3 1_555 1_555
In2A O7 1_555 1_555
In2_2 O10 1_555 1_555
In2_3 O14 1_555 1_555
O3A In1 1_555 1_555
O4A In1 1_555 1_555
O7A In2 1_555 1_555
O8A In2 1_555 1_555
O10_2 In2 1_555 1_555
O13_2 In2 1_555 1_555
O14_2 In2 1_555 1_555
O4 In1A 1_555 1_555
O8 In2A 1_555 1_555
O13 In2_2 1_555 1_555
C1 C7 1_555 1_555
C5 C6 1_555 1_555
C5 C9 1_555 1_555
C12 C17 1_555 1_555
C14 C15 1_555 1_555
C22 C23 1_555 1_555
C27 C28 1_555 1_555

#END
