
#######################################################################
#
#                 Cambridge Crystallographic Data Centre
#                                CCDC 
#
#######################################################################
#
# If this CIF has been generated from an entry in the Cambridge 
# Structural Database, then it will include bibliographic, chemical, 
# crystal, experimental, refinement or atomic coordinate data resulting 
# from the CCDC's data processing and validation procedures.
#
#######################################################################

data_AVELUJ
_chemical_formula_moiety         '(C30 H44 N6 Ni2 O11)n'
_symmetry_cell_setting           tetragonal
_symmetry_space_group_name_H-M   'P -4 n 2'
_symmetry_Int_Tables_number      118
_space_group_name_Hall           'P -4 -2n'
loop_
_symmetry_equiv_pos_site_id
_symmetry_equiv_pos_as_xyz
1 x,y,z
2 y,-x,-z
3 -x,-y,z
4 -y,x,-z
5 1/2-x,1/2+y,1/2+z
6 1/2+y,1/2+x,1/2-z
7 1/2+x,1/2-y,1/2+z
8 1/2-y,1/2-x,1/2-z
_cell_length_a                   13.7495(19)
_cell_length_b                   13.7495(19)
_cell_length_c                   25.533(5)
_cell_angle_alpha                90
_cell_angle_beta                 90
_cell_angle_gamma                90
_cell_volume                     4826.98
loop_
_atom_site_label
_atom_site_type_symbol
_atom_site_fract_x
_atom_site_fract_y
_atom_site_fract_z
_atom_site_U_iso_or_equiv
_atom_site_thermal_displace_type
Ni1 Ni -1.09338(6) 1.75094(5) 0.97632(3) 0.0645 Uani
O1 O -0.9691(4) 1.7982(3) 1.00009(17) 0.0750 Uani
O2 O -0.8907(4) 1.8635(3) 1.06774(19) 0.0773 Uani
N1 N -1.1377(5) 1.7876(4) 1.0475(2) 0.0770 Uani
H1 H -1.2003 1.7927 1.0574 0.2600 Uiso
N2 N -1.0296(4) 1.6987(4) 0.9112(2) 0.0713 Uani
N3 N -1.2185(4) 1.6874(4) 0.9588(2) 0.0733 Uani
C1 C -0.9634(5) 1.8278(5) 1.0488(3) 0.0690 Uani
C2 C -1.0530(7) 1.8075(6) 1.0818(3) 0.0857 Uani
H2 H -1.0395 1.7461 1.0998 0.1900 Uiso
C3 C -1.0711(9) 1.8791(8) 1.1236(4) 0.1200 Uani
H3 H -1.1365 1.8721 1.1362 0.1400 Uiso
H4 H -1.0263 1.8684 1.1519 0.2100 Uiso
H5 H -1.0622 1.9436 1.1100 0.1800 Uiso
C4 C -0.9500(5) 1.6455(6) 0.9134(3) 0.0800 Uani
H6 H -0.9216 1.6345 0.9459 0.0800 Uiso
C5 C -0.9062(6) 1.6049(7) 0.8690(3) 0.0930 Uani
H7 H -0.8521 1.5648 0.8723 0.0800 Uiso
C6 C -0.9438(5) 1.6246(5) 0.8209(3) 0.0773 Uani
C7 C -1.0260(6) 1.6816(6) 0.8179(3) 0.0923 Uani
H8 H -1.0541 1.6956 0.7856 0.1400 Uiso
C8 C -1.0671(7) 1.7183(7) 0.8645(3) 0.0933 Uani
H9 H -1.1221 1.7574 0.8624 0.1100 Uiso
C9 C -0.8983(6) 1.5812(6) 0.7740(3) 0.0867 Uani
H10 H -0.8503 1.5346 0.7796 0.1100 Uiso
C10 C -1.2250(6) 1.5925(6) 0.9517(3) 0.0880 Uani
H11 H -1.1678 1.5566 0.9541 0.0530 Uiso
C11 C -1.3107(6) 1.5412(6) 0.9409(3) 0.0940 Uani
H12 H -1.3105 1.4742 0.9356 0.1100 Uiso
C12 C -1.3976(6) 1.5961(5) 0.9385(3) 0.0790 Uani
C13 C -1.3922(7) 1.6922(6) 0.9441(3) 0.0943 Uani
H13 H -1.4481 1.7299 0.9407 0.0720 Uiso
C14 C -1.3045(6) 1.7362(6) 0.9549(4) 0.0960 Uani
H14 H -1.3040 1.8032 0.9599 0.1300 Uiso
C15 C -1.4927(6) 1.5462(6) 0.9330(3) 0.0927 Uani
H15 H -1.5472 1.5857 0.9293 0.1500 Uiso
Ni1A Ni -1.24906(5) 2.09338(6) 1.02368(3) 0.0645 Uani
Ni1C Ni -0.75094(5) 1.90662(6) 1.02368(3) 0.0645 Uani
Ni1E Ni -0.74906(5) 1.40662(6) 0.52368(3) 0.0645 Uani
Ni1B Ni -1.90662(6) 1.24906(5) 0.97632(3) 0.0645 Uani
O1A O -1.2018(3) 1.9691(4) 0.99991(17) 0.0750 Uani
O2A O -1.1365(3) 1.8907(4) 0.93226(19) 0.0773 Uani
O2B O -1.1093(4) 2.1365(3) 1.06774(19) 0.0773 Uani
N1A N -1.2124(4) 2.1377(5) 0.9525(2) 0.0770 Uani
H1A H -1.2073 2.2003 0.9426 0.2600 Uiso
N2E N -0.8013(4) 1.4704(4) 0.5888(2) 0.0713 Uani
N2A N -1.3013(4) 2.0296(4) 1.0888(2) 0.0713 Uani
N3B N -1.7815(4) 1.3126(4) 0.9588(2) 0.0733 Uani
N3A N -1.3126(4) 2.2185(4) 1.0412(2) 0.0733 Uani
C1A C -1.1722(5) 1.9634(5) 0.9512(3) 0.0690 Uani
C2A C -1.1925(6) 2.0530(7) 0.9182(3) 0.0857 Uani
H2A H -1.2539 2.0395 0.9002 0.1900 Uiso
C3A C -1.1209(8) 2.0711(9) 0.8764(4) 0.1200 Uani
H3A H -1.1279 2.1365 0.8638 0.1400 Uiso
H4A H -1.1316 2.0263 0.8481 0.2100 Uiso
H5A H -1.0564 2.0622 0.8900 0.1800 Uiso
C4E C -0.8545(6) 1.5500(5) 0.5866(3) 0.0800 Uani
H6E H -0.8655 1.5784 0.5541 0.0800 Uiso
C5E C -0.8951(7) 1.5938(6) 0.6310(3) 0.0930 Uani
H7E H -0.9352 1.6479 0.6277 0.0800 Uiso
C6E C -0.8754(5) 1.5562(5) 0.6791(3) 0.0773 Uani
C7E C -0.8184(6) 1.4740(6) 0.6821(3) 0.0923 Uani
H8E H -0.8044 1.4459 0.7144 0.1400 Uiso
C8E C -0.7817(7) 1.4329(7) 0.6355(3) 0.0933 Uani
H9E H -0.7426 1.3779 0.6376 0.1100 Uiso
C9E C -0.9188(6) 1.6017(6) 0.7260(3) 0.0867 Uani
H10E H -0.9654 1.6497 0.7204 0.1100 Uiso
C10B C -1.7750(6) 1.4075(6) 0.9517(3) 0.0880 Uani
H11B H -1.8322 1.4434 0.9541 0.0530 Uiso
C11B C -1.6893(6) 1.4588(6) 0.9409(3) 0.0940 Uani
H12B H -1.6895 1.5258 0.9356 0.1100 Uiso
C12B C -1.6024(6) 1.4039(5) 0.9385(3) 0.0790 Uani
C13B C -1.6078(7) 1.3078(6) 0.9441(3) 0.0943 Uani
H13B H -1.5519 1.2701 0.9407 0.0720 Uiso
C14B C -1.6955(6) 1.2638(6) 0.9549(4) 0.0960 Uani
H14B H -1.6960 1.1968 0.9599 0.1300 Uiso
C15B C -1.5073(6) 1.4538(6) 0.9330(3) 0.0927 Uani
H15B H -1.4528 1.4143 0.9293 0.1500 Uiso
O4 O 0.1741(11) 0.2055(11) 0.3982(7) 0.1323 Uani
H18 H 0.1348 0.2290 0.4206 0.0030 Uiso
H19 H 0.1692 0.2370 0.3696 0.0000 Uiso
O8 O 0.094(7) 0.851(6) 0.278(3) 0.3400 Uani
H26 H 0.1146 0.8389 0.2469 0.5110 Uiso
H27 H 0.0429 0.8171 0.2834 0.5110 Uiso
O9 O 0.115(5) 0.975(6) 0.293(3) 0.2900 Uani
H28 H 0.1318 1.0250 0.3102 0.4360 Uiso
H29 H 0.0879 0.9343 0.3133 0.4360 Uiso
O11 O 0.230(4) 0.915(4) 0.3092(18) 0.2050 Uani
H32 H 0.2905 0.9158 0.3033 0.3070 Uiso
H33 H 0.2178 0.9449 0.3376 0.3070 Uiso
O12 O 0.5460(18) 0.0699(17) 0.5281(10) 0.1080 Uani
H34 H 0.5264 0.1270 0.5209 0.1620 Uiso
H35 H 0.5987 0.0732 0.5454 0.1620 Uiso
O14 O 0.223(5) 0.277(5) 0.2500 0.5360 Uani
H38 H 0.1681 0.2507 0.2619 0.8040 Uiso
H38G H 0.2493 0.3319 0.2381 0.8040 Uiso
O15 O -0.174(6) 1.290(7) 0.290(3) 0.3400 Uani
H39 H -0.2294 1.2635 0.2885 0.5050 Uiso
H40 H -0.1473 1.2884 0.2598 0.5050 Uiso
loop_
_atom_site_aniso_label
_atom_site_aniso_U_11
_atom_site_aniso_U_22
_atom_site_aniso_U_33
_atom_site_aniso_U_23
_atom_site_aniso_U_13
_atom_site_aniso_U_12
Ni1 0.057 0.0751 0.0614 -0.0171 0.008 -0.0111
O1 0.066 0.093 0.066 -0.022 0.006 -0.014
O2 0.06 0.086 0.086 -0.015 -0.015 -0.005
N1 0.067 0.093 0.071 -0.006 0.01 -0.007
N2 0.075 0.067 0.072 -0.014 -0.001 -0.009
N3 0.065 0.076 0.079 -0.011 0.005 -0.014
C1 0.071 0.072 0.064 -0.001 0.008 0.002
C2 0.084 0.106 0.067 -0.024 0.003 -0.005
C3 0.113 0.147 0.1 -0.039 0.023 -0.005
C4 0.073 0.1 0.067 -0.012 0.003 0.014
C5 0.085 0.105 0.089 -0.016 0.021 0.02
C6 0.072 0.078 0.082 -0.019 0.017 0.001
C7 0.094 0.118 0.065 -0.021 0.002 0.013
C8 0.104 0.103 0.073 -0.015 -0.004 0.031
C9 0.084 0.093 0.083 -0.012 0.013 -0.009
C10 0.07 0.077 0.117 -0.011 0.007 -0.012
C11 0.087 0.08 0.115 -0.001 0.009 -0.027
C12 0.069 0.077 0.091 -0.005 0.003 -0.007
C13 0.066 0.104 0.113 0.001 0.011 -0.001
C14 0.071 0.086 0.131 -0.026 0.02 -0.014
C15 0.079 0.104 0.095 0.008 -0.003 -0.021
Ni1A 0.0751 0.057 0.0614 0.008 0.0171 0.0111
Ni1C 0.0751 0.057 0.0614 -0.008 -0.0171 0.0111
Ni1E 0.0751 0.057 0.0614 -0.008 0.0171 -0.0111
Ni1B 0.057 0.0751 0.0614 0.0171 -0.008 -0.0111
O1A 0.093 0.066 0.066 0.006 0.022 0.014
O2A 0.086 0.06 0.086 -0.015 0.015 0.005
O2B 0.06 0.086 0.086 0.015 0.015 -0.005
N1A 0.093 0.067 0.071 0.01 0.006 0.007
N2E 0.067 0.075 0.072 0.001 0.014 -0.009
N2A 0.067 0.075 0.072 -0.001 0.014 0.009
N3B 0.065 0.076 0.079 0.011 -0.005 -0.014
N3A 0.076 0.065 0.079 0.005 0.011 0.014
C1A 0.072 0.071 0.064 0.008 0.001 -0.002
C2A 0.106 0.084 0.067 0.003 0.024 0.005
C3A 0.147 0.113 0.1 0.023 0.039 0.005
C4E 0.1 0.073 0.067 -0.003 0.012 0.014
C5E 0.105 0.085 0.089 -0.021 0.016 0.02
C6E 0.078 0.072 0.082 -0.017 0.019 0.001
C7E 0.118 0.094 0.065 -0.002 0.021 0.013
C8E 0.103 0.104 0.073 0.004 0.015 0.031
C9E 0.093 0.084 0.083 -0.013 0.012 -0.009
C10B 0.07 0.077 0.117 0.011 -0.007 -0.012
C11B 0.087 0.08 0.115 0.001 -0.009 -0.027
C12B 0.069 0.077 0.091 0.005 -0.003 -0.007
C13B 0.066 0.104 0.113 -0.001 -0.011 -0.001
C14B 0.071 0.086 0.131 0.026 -0.02 -0.014
C15B 0.079 0.104 0.095 -0.008 0.003 -0.021
O4 0.132(5) 0.132(5) 0.133(5) -0.001(2) -0.001(2) -0.005(2)
O8 0.34(3) 0.34(3) 0.34(3) 0.000(2) 0.000(2) 0.000(2)
O9 0.29(3) 0.29(3) 0.29(3) 0.000(2) 0.000(2) 0.000(2)
O11 0.205(17) 0.205(17) 0.205(17) 0.001(2) 0.000(2) 0.000(2)
O12 0.109 0.107 0.108 0.001 0 -0.001
O14 0.536(4) 0.536(4) 0.536(4) 0.0000(15) 0.0000(15) 0.000(2)
O15 0.34 0.34 0.34 0 0 0
loop_
_geom_bond_atom_site_label_1
_geom_bond_atom_site_label_2
_geom_bond_site_symmetry_1
_geom_bond_site_symmetry_2
Ni1 O1 1_555 1_555
O1 C1 1_555 1_555
O2 C1 1_555 1_555
N1 Ni1 1_555 1_555
H1 N1 1_555 1_555
N2 Ni1 1_555 1_555
N3 Ni1 1_555 1_555
C1 C2 1_555 1_555
C2 N1 1_555 1_555
H2 C2 1_555 1_555
C3 C2 1_555 1_555
H3 C3 1_555 1_555
H4 C3 1_555 1_555
H5 C3 1_555 1_555
C4 N2 1_555 1_555
H6 C4 1_555 1_555
C5 C4 1_555 1_555
H7 C5 1_555 1_555
C6 C5 1_555 1_555
C7 C6 1_555 1_555
H8 C7 1_555 1_555
C8 N2 1_555 1_555
H9 C8 1_555 1_555
C9 C6 1_555 1_555
H10 C9 1_555 1_555
C10 N3 1_555 1_555
H11 C10 1_555 1_555
C11 C10 1_555 1_555
H12 C11 1_555 1_555
C12 C11 1_555 1_555
C13 C12 1_555 1_555
H13 C13 1_555 1_555
C14 N3 1_555 1_555
H14 C14 1_555 1_555
C15 C12 1_555 1_555
H15 C15 1_555 1_555
O4 H18 1_555 1_555
H19 O4 1_555 1_555
O8 H26 1_555 1_555
H27 O8 1_555 1_555
O9 H28 1_555 1_555
H29 O9 1_555 1_555
O11 H32 1_555 1_555
H33 O11 1_555 1_555
O12 H34 1_555 1_555
H35 O12 1_555 1_555
O14 H38 1_555 1_555
O15 H39 1_555 1_555
H40 O15 1_555 1_555
Ni1A O1A 1_555 1_555
Ni1C O2 1_555 1_555
Ni1E N2E 1_555 1_555
Ni1B N3B 1_555 1_555
O1A C1A 1_555 1_555
O2A Ni1 1_555 1_555
O2B Ni1A 1_555 1_555
N1A Ni1A 1_555 1_555
H1A N1A 1_555 1_555
N2E C4E 1_555 1_555
N2A Ni1A 1_555 1_555
N3B C10B 1_555 1_555
N3A Ni1A 1_555 1_555
C1A O2A 1_555 1_555
C2A N1A 1_555 1_555
H2A C2A 1_555 1_555
C3A C2A 1_555 1_555
H3A C3A 1_555 1_555
H4A C3A 1_555 1_555
H5A C3A 1_555 1_555
C4E H6E 1_555 1_555
C5E C4E 1_555 1_555
H7E C5E 1_555 1_555
C6E C5E 1_555 1_555
C7E C6E 1_555 1_555
H8E C7E 1_555 1_555
C8E N2E 1_555 1_555
H9E C8E 1_555 1_555
C9E C9 1_555 1_555
H10E C9E 1_555 1_555
C10B H11B 1_555 1_555
C11B C10B 1_555 1_555
H12B C11B 1_555 1_555
C12B C11B 1_555 1_555
C13B C12B 1_555 1_555
H13B C13B 1_555 1_555
C14B N3B 1_555 1_555
H14B C14B 1_555 1_555
C15B C15 1_555 1_555
H15B C15B 1_555 1_555
H38G O14 1_555 1_555
C7 C8 1_555 1_555
C13 C14 1_555 1_555
C1A C2A 1_555 1_555
C6E C9E 1_555 1_555
C7E C8E 1_555 1_555
C12B C15B 1_555 1_555
C13B C14B 1_555 1_555

#END
