
#######################################################################
#
#                 Cambridge Crystallographic Data Centre
#                                CCDC 
#
#######################################################################
#
# If this CIF has been generated from an entry in the Cambridge 
# Structural Database, then it will include bibliographic, chemical, 
# crystal, experimental, refinement or atomic coordinate data resulting 
# from the CCDC's data processing and validation procedures.
#
#######################################################################

data_AVELOD
_chemical_formula_moiety         '(C30 H44 Cu2 N6 O11)n'
_symmetry_cell_setting           tetragonal
_symmetry_space_group_name_H-M   'P -4 n 2'
_symmetry_Int_Tables_number      118
_space_group_name_Hall           'P -4 -2n'
loop_
_symmetry_equiv_pos_site_id
_symmetry_equiv_pos_as_xyz
1 x,y,z
2 y,-x,-z
3 -x,-y,z
4 -y,x,-z
5 1/2-x,1/2+y,1/2+z
6 1/2+y,1/2+x,1/2-z
7 1/2+x,1/2-y,1/2+z
8 1/2-y,1/2-x,1/2-z
_cell_length_a                   13.7561(3)
_cell_length_b                   13.7561(3)
_cell_length_c                   25.5306(12)
_cell_angle_alpha                90
_cell_angle_beta                 90
_cell_angle_gamma                90
_cell_volume                     4831.16
loop_
_atom_site_label
_atom_site_type_symbol
_atom_site_fract_x
_atom_site_fract_y
_atom_site_fract_z
_atom_site_U_iso_or_equiv
_atom_site_thermal_displace_type
Cu1 Cu 0.09339(8) 0.24926(11) 0.47627(6) 0.0395 Uani
O1 O -0.0303(5) 0.2017(6) 0.5007(3) 0.0390 Uani
O2 O -0.1094(5) 0.1361(7) 0.5682(3) 0.0457 Uani
N1 N 0.0304(6) 0.3016(7) 0.4108(3) 0.0327 Uani
N2 N 0.2191(7) 0.3127(7) 0.4595(4) 0.0400 Uani
N3 N 0.1374(7) 0.2098(7) 0.5480(3) 0.0387 Uani
H1 H 0.1971 0.2027 0.5571 0.0470 Uiso
C1 C -0.0395(8) 0.1711(8) 0.5487(5) 0.0390 Uani
C2 C 0.0575(9) 0.1952(10) 0.5812(4) 0.0463 Uani
H2 H 0.0461 0.2566 0.5997 0.0550 Uiso
C3 C 0.0730(12) 0.1184(15) 0.6221(6) 0.0843 Uani
H3 H 0.0809 0.0563 0.6054 0.1270 Uiso
H4 H 0.0177 0.1162 0.6450 0.1270 Uiso
H5 H 0.1302 0.1334 0.6420 0.1270 Uiso
C4 C 0.0666(12) 0.2837(11) 0.3643(5) 0.0593 Uani
H6 H 0.1214 0.2443 0.3621 0.0710 Uiso
C5 C 0.0280(10) 0.3199(12) 0.3186(5) 0.0617 Uani
H7 H 0.0574 0.3068 0.2866 0.0740 Uiso
C6 C -0.0568(9) 0.3773(9) 0.3210(5) 0.0497 Uani
C7 C -0.0931(12) 0.3945(10) 0.3691(7) 0.0680 Uani
H8 H -0.1485 0.4327 0.3727 0.0810 Uiso
C8 C -0.0480(10) 0.3550(10) 0.4144(5) 0.0487 Uani
H9 H -0.0747 0.3673 0.4473 0.0580 Uiso
C9 C -0.1042(10) 0.4170(11) 0.2745(5) 0.0573 Uani
H10 H -0.1540 0.4615 0.2800 0.0690 Uiso
C10 C 0.3042(9) 0.2670(9) 0.4551(6) 0.0540 Uani
H11 H 0.3026 0.1998 0.4586 0.0650 Uiso
C11 C 0.3897(10) 0.3055(12) 0.4466(7) 0.0743 Uani
H12 H 0.4450 0.2666 0.4458 0.0890 Uiso
C12 C 0.3969(10) 0.4057(10) 0.4385(5) 0.0513 Uani
C13 C 0.3086(11) 0.4596(11) 0.4421(5) 0.0623 Uani
H13 H 0.3081 0.5268 0.4382 0.0750 Uiso
C14 C 0.2229(10) 0.4081(10) 0.4518(5) 0.0527 Uani
H14 H 0.1649 0.4428 0.4529 0.0630 Uiso
C15 C 0.4926(9) 0.4538(10) 0.4328(6) 0.0577 Uani
H15 H 0.5467 0.4139 0.4289 0.0690 Uiso
Cu1A Cu 0.24926(11) -0.09339(8) 0.52373(6) 0.0395 Uani
Cu1C Cu -0.24926(11) 0.09339(8) 0.52373(6) 0.0395 Uani
Cu1E Cu -0.25074(11) 0.59339(8) 0.02373(6) 0.0395 Uani
Cu1B Cu 0.90661(8) 0.75074(11) 0.47627(6) 0.0395 Uani
O1A O 0.2017(6) 0.0303(5) 0.4993(3) 0.0390 Uani
O2A O 0.1361(7) 0.1094(5) 0.4318(3) 0.0457 Uani
O2B O 0.1094(5) -0.1361(7) 0.5682(3) 0.0457 Uani
N1E N -0.1984(7) 0.5304(6) 0.0892(3) 0.0327 Uani
N1A N 0.3016(7) -0.0304(6) 0.5892(3) 0.0327 Uani
N2B N 0.7809(7) 0.6873(7) 0.4595(4) 0.0400 Uani
N2A N 0.3127(7) -0.2191(7) 0.5405(4) 0.0400 Uani
N3A N 0.2098(7) -0.1374(7) 0.4520(3) 0.0387 Uani
H1A H 0.2027 -0.1971 0.4429 0.0470 Uiso
C1A C 0.1711(8) 0.0395(8) 0.4513(5) 0.0390 Uani
C2A C 0.1952(10) -0.0575(9) 0.4188(4) 0.0463 Uani
H2A H 0.2566 -0.0461 0.4003 0.0550 Uiso
C3A C 0.1184(15) -0.0730(12) 0.3779(6) 0.0843 Uani
H3A H 0.0563 -0.0809 0.3946 0.1270 Uiso
H4A H 0.1162 -0.0177 0.3550 0.1270 Uiso
H5A H 0.1334 -0.1302 0.3580 0.1270 Uiso
C4E C -0.2163(11) 0.5666(12) 0.1357(5) 0.0593 Uani
H6E H -0.2557 0.6214 0.1379 0.0710 Uiso
C5E C -0.1801(12) 0.5280(10) 0.1814(5) 0.0617 Uani
H7E H -0.1932 0.5574 0.2134 0.0740 Uiso
C6E C -0.1227(9) 0.4432(9) 0.1790(5) 0.0497 Uani
C7E C -0.1055(10) 0.4069(12) 0.1309(7) 0.0680 Uani
H8E H -0.0673 0.3515 0.1273 0.0810 Uiso
C8E C -0.1450(10) 0.4520(10) 0.0856(5) 0.0487 Uani
H9E H -0.1327 0.4253 0.0527 0.0580 Uiso
C9E C -0.0830(11) 0.3958(10) 0.2255(5) 0.0573 Uani
H10E H -0.0385 0.3460 0.2200 0.0690 Uiso
C10B C 0.6958(9) 0.7330(9) 0.4551(6) 0.0540 Uani
H11B H 0.6974 0.8002 0.4586 0.0650 Uiso
C11B C 0.6103(10) 0.6945(12) 0.4466(7) 0.0743 Uani
H12B H 0.5550 0.7334 0.4458 0.0890 Uiso
C12B C 0.6031(10) 0.5943(10) 0.4385(5) 0.0513 Uani
C13B C 0.6914(11) 0.5404(11) 0.4421(5) 0.0623 Uani
H13B H 0.6919 0.4732 0.4382 0.0750 Uiso
C14B C 0.7771(10) 0.5919(10) 0.4518(5) 0.0527 Uani
H14B H 0.8351 0.5572 0.4529 0.0630 Uiso
C15B C 0.5074(9) 0.5462(10) 0.4328(6) 0.0577 Uani
H15B H 0.4533 0.5861 0.4289 0.0690 Uiso
O3 O 0.235(4) 0.265(4) 0.7500 0.4410 Uani
H17 H 0.2708 0.3194 0.7553 0.6620 Uiso
H17G H 0.1806 0.2292 0.7447 0.6620 Uiso
O4 O 0.6681(19) 0.2901(19) 0.3919(10) 0.0923 Uani
H18 H 0.7226 0.3188 0.3894 0.1380 Uiso
H19 H 0.6726 0.2440 0.4140 0.1380 Uiso
O5 O 0.731(6) 0.648(6) 0.303(3) 0.1500 Uani
H20 H 0.7527 0.6711 0.2745 0.2210 Uiso
H21 H 0.7664 0.6654 0.3283 0.2210 Uiso
O7 O 0.331(8) 0.206(9) 0.301(4) 0.2200 Uani
H24 H 0.3434 0.2128 0.2687 0.3300 Uiso
H25 H 0.3289 0.1464 0.3089 0.3300 Uiso
O9 O 0.0000 0.5000 0.5397(11) 0.0690 Uani
H28 H -0.0433 0.5381 0.5516 0.1040 Uiso
H28B H 0.0433 0.4619 0.5516 0.1040 Uiso
O12 O 0.523(19) 0.073(17) 0.204(9) 0.4600 Uani
H34 H 0.4806 0.1096 0.2182 0.6900 Uiso
H35 H 0.5612 0.1076 0.1855 0.6900 Uiso
O13 O 0.659(4) 0.376(5) 0.334(2) 0.1110 Uani
H36 H 0.6646 0.3440 0.3056 0.1660 Uiso
H37 H 0.6636 0.4365 0.3274 0.1660 Uiso
loop_
_atom_site_aniso_label
_atom_site_aniso_U_11
_atom_site_aniso_U_22
_atom_site_aniso_U_33
_atom_site_aniso_U_23
_atom_site_aniso_U_13
_atom_site_aniso_U_12
Cu1 0.0313(6) 0.0492(8) 0.0379(6) 0.0243(6) -0.0087(7) -0.0159(6)
O1 0.022(4) 0.060(5) 0.035(4) 0.017(4) 0.000(3) -0.025(3)
O2 0.018(4) 0.064(5) 0.055(5) 0.023(4) 0.007(3) -0.010(4)
N1 0.033(3) 0.033(2) 0.032(2) 0.0037(18) -0.0019(18) -0.0001(18)
N2 0.038(3) 0.041(3) 0.041(3) 0.0032(18) -0.0013(18) -0.0042(18)
N3 0.039(3) 0.040(3) 0.037(3) 0.0023(18) -0.0042(18) 0.0007(18)
C1 0.036(6) 0.035(6) 0.046(7) -0.004(5) -0.011(5) 0.009(5)
C2 0.051(8) 0.059(8) 0.029(5) 0.006(5) -0.007(5) -0.006(6)
C3 0.057(9) 0.126(16) 0.070(11) 0.013(10) -0.023(8) 0.024(10)
C4 0.073(10) 0.070(9) 0.035(6) 0.004(7) -0.013(7) 0.013(7)
C5 0.050(8) 0.091(11) 0.044(7) 0.009(7) 0.004(6) 0.016(7)
C6 0.048(7) 0.043(7) 0.058(8) 0.029(6) -0.015(6) -0.013(6)
C7 0.082(11) 0.045(8) 0.077(11) 0.029(7) -0.001(9) 0.020(8)
C8 0.058(8) 0.053(8) 0.035(6) 0.011(5) -0.012(6) 0.002(6)
C9 0.052(8) 0.070(9) 0.050(7) 0.024(7) -0.025(6) -0.007(7)
C10 0.034(6) 0.042(7) 0.086(10) 0.021(6) -0.001(6) -0.016(5)
C11 0.034(7) 0.077(11) 0.112(13) -0.027(10) -0.005(8) 0.008(7)
C12 0.048(7) 0.048(7) 0.058(8) 0.001(6) 0.012(6) 0.003(6)
C13 0.063(4) 0.061(4) 0.063(4) 0.001(2) -0.002(2) -0.002(2)
C14 0.052(4) 0.052(4) 0.054(4) 0.0005(19) -0.0006(19) -0.0018(19)
C15 0.030(6) 0.062(8) 0.081(9) -0.013(7) 0.006(6) -0.005(6)
Cu1A 0.0492 0.0313 0.0379 -0.0087 -0.0243 0.0159
Cu1C 0.0492 0.0313 0.0379 0.0087 0.0243 0.0159
Cu1E 0.0492 0.0313 0.0379 0.0087 -0.0243 -0.0159
Cu1B 0.0313 0.0492 0.0379 -0.0243 0.0087 -0.0159
O1A 0.06 0.022 0.035 0 -0.017 0.025
O2A 0.064 0.018 0.055 0.007 -0.023 0.01
O2B 0.018 0.064 0.055 -0.023 -0.007 -0.01
N1E 0.033 0.033 0.032 0.0019 -0.0037 -0.0001
N1A 0.033 0.033 0.032 -0.0019 -0.0037 0.0001
N2B 0.038 0.041 0.041 -0.0032 0.0013 -0.0042
N2A 0.041 0.038 0.041 -0.0013 -0.0032 0.0042
N3A 0.04 0.039 0.037 -0.0042 -0.0023 -0.0007
C1A 0.035 0.036 0.046 -0.011 0.004 -0.009
C2A 0.059 0.051 0.029 -0.007 -0.006 0.006
C3A 0.126 0.057 0.07 -0.023 -0.013 -0.024
C4E 0.07 0.073 0.035 0.013 -0.004 0.013
C5E 0.091 0.05 0.044 -0.004 -0.009 0.016
C6E 0.043 0.048 0.058 0.015 -0.029 -0.013
C7E 0.045 0.082 0.077 0.001 -0.029 0.02
C8E 0.053 0.058 0.035 0.012 -0.011 0.002
C9E 0.07 0.052 0.05 0.025 -0.024 -0.007
C10B 0.034 0.042 0.086 -0.021 0.001 -0.016
C11B 0.034 0.077 0.112 0.027 0.005 0.008
C12B 0.048 0.048 0.058 -0.001 -0.012 0.003
C13B 0.063 0.061 0.063 -0.001 0.002 -0.002
C14B 0.052 0.052 0.054 -0.0005 0.0006 -0.0018
C15B 0.03 0.062 0.081 0.013 -0.006 -0.005
O3 0.441(4) 0.441(4) 0.441(4) 0.0000(14) 0.0000(14) 0.000(2)
O4 0.092(8) 0.092(8) 0.093(8) 0.001(2) -0.001(2) 0.001(2)
O5 0.15(2) 0.15(2) 0.15(2) 0.000(2) 0.000(2) 0.000(2)
O7 0.22(4) 0.22(4) 0.22(4) 0.000(2) 0.000(2) 0.000(2)
O9 0.069 0.069 0.069 0 0 0
O12 0.46(6) 0.46(6) 0.46(6) 0.000(2) 0.000(2) 0.000(2)
O13 0.111(18) 0.111(18) 0.111(18) 0.000(2) 0.000(2) 0.000(2)
loop_
_geom_bond_atom_site_label_1
_geom_bond_atom_site_label_2
_geom_bond_site_symmetry_1
_geom_bond_site_symmetry_2
Cu1 O1 1_555 1_555
O1 C1 1_555 1_555
O2 C1 1_555 1_555
N1 Cu1 1_555 1_555
N2 Cu1 1_555 1_555
N3 Cu1 1_555 1_555
H1 N3 1_555 1_555
C1 C2 1_555 1_555
C2 N3 1_555 1_555
H2 C2 1_555 1_555
C3 C2 1_555 1_555
H3 C3 1_555 1_555
H4 C3 1_555 1_555
H5 C3 1_555 1_555
C4 N1 1_555 1_555
H6 C4 1_555 1_555
C5 C4 1_555 1_555
H7 C5 1_555 1_555
C6 C5 1_555 1_555
C7 C6 1_555 1_555
H8 C7 1_555 1_555
C8 N1 1_555 1_555
H9 C8 1_555 1_555
C9 C6 1_555 1_555
H10 C9 1_555 1_555
C10 N2 1_555 1_555
H11 C10 1_555 1_555
C11 C10 1_555 1_555
H12 C11 1_555 1_555
C12 C11 1_555 1_555
C13 C12 1_555 1_555
H13 C13 1_555 1_555
C14 N2 1_555 1_555
H14 C14 1_555 1_555
C15 C12 1_555 1_555
H15 C15 1_555 1_555
O3 H17 1_555 1_555
O4 H18 1_555 1_555
H19 O4 1_555 1_555
O5 H20 1_555 1_555
H21 O5 1_555 1_555
O7 H24 1_555 1_555
H25 O7 1_555 1_555
O9 H28 1_555 1_555
O12 H34 1_555 1_555
H35 O12 1_555 1_555
O13 H36 1_555 1_555
H37 O13 1_555 1_555
Cu1A O1A 1_555 1_555
Cu1C O2 1_555 1_555
Cu1E N1E 1_555 1_555
Cu1B N2B 1_555 1_555
O1A C1A 1_555 1_555
O2A Cu1 1_555 1_555
O2B Cu1A 1_555 1_555
N1E C4E 1_555 1_555
N1A Cu1A 1_555 1_555
N2B C10B 1_555 1_555
N2A Cu1A 1_555 1_555
N3A Cu1A 1_555 1_555
H1A N3A 1_555 1_555
C1A O2A 1_555 1_555
C2A N3A 1_555 1_555
H2A C2A 1_555 1_555
C3A C2A 1_555 1_555
H3A C3A 1_555 1_555
H4A C3A 1_555 1_555
H5A C3A 1_555 1_555
C4E H6E 1_555 1_555
C5E C4E 1_555 1_555
H7E C5E 1_555 1_555
C6E C5E 1_555 1_555
C7E C6E 1_555 1_555
H8E C7E 1_555 1_555
C8E N1E 1_555 1_555
H9E C8E 1_555 1_555
C9E C9 1_555 1_555
H10E C9E 1_555 1_555
C10B H11B 1_555 1_555
C11B C10B 1_555 1_555
H12B C11B 1_555 1_555
C12B C11B 1_555 1_555
C13B C12B 1_555 1_555
H13B C13B 1_555 1_555
C14B N2B 1_555 1_555
H14B C14B 1_555 1_555
C15B C15 1_555 1_555
H15B C15B 1_555 1_555
H17G O3 1_555 1_555
H28B O9 1_555 1_555
C7 C8 1_555 1_555
C13 C14 1_555 1_555
C1A C2A 1_555 1_555
C6E C9E 1_555 1_555
C7E C8E 1_555 1_555
C12B C15B 1_555 1_555
C13B C14B 1_555 1_555

#END
