
#######################################################################
#
#                 Cambridge Crystallographic Data Centre
#                                CCDC 
#
#######################################################################
#
# If this CIF has been generated from an entry in the Cambridge 
# Structural Database, then it will include bibliographic, chemical, 
# crystal, experimental, refinement or atomic coordinate data resulting 
# from the CCDC's data processing and validation procedures.
#
#######################################################################

data_AVEMAQ
_chemical_formula_moiety         '(C30 H52 N6 Ni2 O15)n'
_symmetry_cell_setting           tetragonal
_symmetry_space_group_name_H-M   'P -4 n 2'
_symmetry_Int_Tables_number      118
_space_group_name_Hall           'P -4 -2n'
loop_
_symmetry_equiv_pos_site_id
_symmetry_equiv_pos_as_xyz
1 x,y,z
2 y,-x,-z
3 -x,-y,z
4 -y,x,-z
5 1/2-x,1/2+y,1/2+z
6 1/2+y,1/2+x,1/2-z
7 1/2+x,1/2-y,1/2+z
8 1/2-y,1/2-x,1/2-z
_cell_length_a                   13.7327(15)
_cell_length_b                   13.7327(15)
_cell_length_c                   25.466(6)
_cell_angle_alpha                90
_cell_angle_beta                 90
_cell_angle_gamma                90
_cell_volume                     4802.56
loop_
_atom_site_label
_atom_site_type_symbol
_atom_site_fract_x
_atom_site_fract_y
_atom_site_fract_z
_atom_site_U_iso_or_equiv
_atom_site_thermal_displace_type
Ni1 Ni 0.74769(15) 0.59415(12) 0.47628(9) 0.0365 Uani
O1 O 0.7048(8) 0.4670(8) 0.5024(4) 0.0463 Uani
O2 O 0.6285(7) 0.3934(9) 0.5656(5) 0.0537 Uani
N1 N 0.7060(13) 0.6391(10) 0.5472(5) 0.0550 Uani
H1 H 0.7053 0.6990 0.5571 2.0000 Uiso
N2 N 0.7996(10) 0.5322(10) 0.4113(5) 0.0383 Uani
N3 N 0.8112(8) 0.7176(9) 0.4581(4) 0.0280 Uani
C1 C 0.6665(13) 0.4651(13) 0.5492(7) 0.0493 Uani
C2 C 0.683(2) 0.560(2) 0.5799(11) 0.0890 Uani
H2 H 0.7514 0.5449 0.5864 0.3000 Uiso
C3 C 0.662(4) 0.559(3) 0.6290(11) 0.1933 Uani
H3 H 0.6723 0.4950 0.6428 0.0700 Uiso
H4 H 0.5955 0.5778 0.6339 0.0000 Uiso
H5 H 0.7038 0.6044 0.6471 0.0700 Uiso
C4 C 0.8621(11) 0.4529(11) 0.4156(5) 0.0313 Uani
H6 H 0.8830 0.4317 0.4484 0.0800 Uiso
C5 C 0.8928(17) 0.4057(18) 0.3702(7) 0.0797 Uani
H7 H 0.9257 0.3468 0.3734 0.1200 Uiso
C6 C 0.8765(11) 0.4426(13) 0.3211(8) 0.0507 Uani
C7 C 0.8207(18) 0.5277(15) 0.3172(8) 0.0763 Uani
H8 H 0.8064 0.5580 0.2854 0.0500 Uiso
C8 C 0.7881(11) 0.5631(11) 0.3664(5) 0.0303 Uani
H9 H 0.7515 0.6200 0.3643 0.0200 Uiso
C9 C 0.9149(14) 0.3973(14) 0.2745(7) 0.0573 Uani
H10 H 0.9594 0.3475 0.2806 0.0100 Uiso
C10 C 0.9091(14) 0.7236(13) 0.4545(7) 0.0533 Uani
H11 H 0.9456 0.6681 0.4615 0.0400 Uiso
C11 C 0.9621(13) 0.8153(17) 0.4397(9) 0.0727 Uani
H12 H 1.0284 0.8158 0.4324 0.0100 Uiso
C12 C 0.9080(11) 0.8962(12) 0.4377(7) 0.0470 Uani
C13 C 0.8019(16) 0.8968(18) 0.4415(11) 0.0900 Uani
H13 H 0.7649 0.9530 0.4376 0.0400 Uiso
C14 C 0.7611(10) 0.8058(11) 0.4515(5) 0.0317 Uani
H14 H 0.6936 0.8033 0.4542 0.0200 Uiso
H15 H 0.9113 1.0534 0.4349 0.1000 Uiso
C15 C 0.9529(14) 0.9983(15) 0.4331(6) 0.0540 Uani
Ni1C Ni 0.40585(12) 0.74769(15) 0.52372(9) 0.0365 Uani
Ni1A Ni 0.59415(12) 0.25231(15) 0.52372(9) 0.0365 Uani
Ni1E Ni 1.09415(12) 0.24769(15) 0.02372(9) 0.0365 Uani
Ni1B Ni 1.25231(15) 1.40585(12) 0.47628(9) 0.0365 Uani
O1C O 0.5330(8) 0.7048(8) 0.4976(4) 0.0463 Uani
O2C O 0.6066(9) 0.6285(7) 0.4344(5) 0.0537 Uani
O2B O 0.3715(7) 0.6066(9) 0.5656(5) 0.0537 Uani
N1C N 0.3609(10) 0.7060(13) 0.4528(5) 0.0550 Uani
H1C H 0.3010 0.7053 0.4429 2.0000 Uiso
N2E N 1.0322(10) 0.2996(10) 0.0887(5) 0.0383 Uani
N2C N 0.4678(10) 0.7996(10) 0.5887(5) 0.0383 Uani
N3B N 1.1888(8) 1.2824(9) 0.4581(4) 0.0280 Uani
N3C N 0.2824(9) 0.8112(8) 0.5419(4) 0.0280 Uani
C1C C 0.5349(13) 0.6665(13) 0.4508(7) 0.0493 Uani
C2C C 0.440(2) 0.683(2) 0.4201(11) 0.0890 Uani
H2C H 0.4551 0.7514 0.4136 0.3000 Uiso
C3C C 0.441(3) 0.662(4) 0.3710(11) 0.1933 Uani
H3C H 0.5050 0.6723 0.3572 0.0700 Uiso
H4C H 0.4222 0.5955 0.3661 0.0000 Uiso
H5C H 0.3956 0.7038 0.3529 0.0700 Uiso
C4E C 0.9529(11) 0.3621(11) 0.0844(5) 0.0313 Uani
H6E H 0.9317 0.3830 0.0516 0.0800 Uiso
C5E C 0.9057(18) 0.3928(17) 0.1298(7) 0.0797 Uani
H7E H 0.8468 0.4257 0.1266 0.1200 Uiso
C6E C 0.9426(13) 0.3765(11) 0.1789(8) 0.0507 Uani
C7E C 1.0277(15) 0.3207(18) 0.1828(8) 0.0763 Uani
H8E H 1.0580 0.3064 0.2146 0.0500 Uiso
C8E C 1.0631(11) 0.2881(11) 0.1336(5) 0.0303 Uani
H9E H 1.1200 0.2515 0.1357 0.0200 Uiso
C9E C 0.8973(14) 0.4149(14) 0.2255(7) 0.0573 Uani
H10E H 0.8475 0.4594 0.2194 0.0100 Uiso
C10B C 1.0909(14) 1.2764(13) 0.4545(7) 0.0533 Uani
H11B H 1.0544 1.3319 0.4615 0.0400 Uiso
C11B C 1.0379(13) 1.1847(17) 0.4397(9) 0.0727 Uani
H12B H 0.9716 1.1842 0.4324 0.0100 Uiso
C12B C 1.0920(11) 1.1038(12) 0.4377(7) 0.0470 Uani
C13B C 1.1981(16) 1.1032(18) 0.4415(11) 0.0900 Uani
H13B H 1.2351 1.0470 0.4376 0.0400 Uiso
C14B C 1.2389(10) 1.1942(11) 0.4515(5) 0.0317 Uani
H14B H 1.3064 1.1967 0.4542 0.0200 Uiso
H15B H 1.0887 0.9466 0.4349 0.1000 Uiso
C15B C 1.0471(14) 1.0017(15) 0.4331(6) 0.0540 Uani
O3 O 0.652(4) 0.297(4) 0.156(2) 0.1060 Uani
H16 H 0.6434 0.3501 0.1397 0.1580 Uiso
H17 H 0.7127 0.2897 0.1624 0.1580 Uiso
O4 O 0.5000 0.5000 0.242(12) 0.4300 Uani
O5 O 0.167(8) 0.067(8) 0.213(4) 0.1700 Uani
H20 H 0.1885 0.0084 0.2142 0.2490 Uiso
H21 H 0.1190 0.0693 0.1921 0.2490 Uiso
O6 O 0.867(6) 0.367(6) 0.7500 0.4783 Uani
H22 H 0.8736 0.3855 0.7183 0.7180 Uiso
H22E H 0.8855 0.3736 0.7817 0.7180 Uiso
O10 O 0.326(10) 0.337(10) 0.216(5) 0.2000 Uani
H30 H 0.3728 0.3600 0.1981 0.2930 Uiso
H31 H 0.2759 0.3717 0.2123 0.2930 Uiso
O11 O 0.934(8) 0.495(8) 0.788(4) 0.1600 Uani
H33 H 0.8907 0.5316 0.8017 0.2340 Uiso
O12 O 0.5000 0.5000 0.0000 0.2760 Uani
O13 O 1.0000 0.5000 0.445(6) 0.2900 Uani
H37 H 0.9411 0.4974 0.4350 0.4400 Uiso
H37B H 1.0589 0.5026 0.4350 0.4400 Uiso
O14 O 0.216(8) 0.284(8) 0.2500 0.2450 Uani
O15 O 1.0000 0.5000 0.9426(10) 0.0350 Uani
H41 H 0.9489 0.5350 0.9426 0.0530 Uiso
H41B H 1.0511 0.4650 0.9426 0.0530 Uiso
O16 O 0.5000 0.5000 0.3378(10) 0.0383 Uani
H42 H 0.4554 0.4608 0.3472 0.0570 Uiso
H42B H 0.5446 0.5392 0.3472 0.0570 Uiso
loop_
_atom_site_aniso_label
_atom_site_aniso_U_11
_atom_site_aniso_U_22
_atom_site_aniso_U_33
_atom_site_aniso_U_23
_atom_site_aniso_U_13
_atom_site_aniso_U_12
Ni1 0.0458 0.0285 0.0351 -0.0026 0.0222 -0.0134
O1 0.047 0.045 0.047 0.0014 0.0034 -0.0032
O2 0.067 0.02 0.074 0.01 0.037 0.001
N1 0.1 0.039 0.026 -0.021 0.014 -0.001
N2 0.041 0.05 0.024 -0.007 0.014 0.001
N3 0.031 0.03 0.023 0.002 0.002 -0.001
C1 0.05 0.049 0.049 -0.001 0.001 0.001
C2 0.09 0.088 0.089 0 0.001 -0.001
C3 0.39 0.11 0.08 -0.01 0.09 -0.06
C4 0.037 0.037 0.02 -0.003 0.002 0.001
C5 0.095 0.111 0.033 0.019 0.034 0.076
C6 0.019 0.057 0.076 -0.026 0.012 -0.002
C7 0.112 0.059 0.058 -0.014 -0.005 0.054
C8 0.027 0.035 0.029 -0.004 0.018 0
C9 0.057 0.054 0.061 -0.022 0.012 0.005
C10 0.053 0.052 0.055 -0.002 0.001 -0.001
C11 0.028 0.097 0.093 -0.004 0.001 0.02
C12 0.025 0.049 0.067 0.01 0.008 0.019
C13 0.054 0.066 0.15 0.016 -0.02 0.006
C14 0.034 0.041 0.02 -0.003 0.015 0
C15 0.065 0.067 0.03 0.007 -0.021 -0.014
Ni1C 0.0285 0.0458 0.0351 -0.0222 -0.0026 0.0134
Ni1A 0.0285 0.0458 0.0351 0.0222 0.0026 0.0134
Ni1E 0.0285 0.0458 0.0351 -0.0222 0.0026 -0.0134
Ni1B 0.0458 0.0285 0.0351 0.0026 -0.0222 -0.0134
O1C 0.045 0.047 0.047 -0.0034 0.0014 0.0032
O2C 0.02 0.067 0.074 -0.037 0.01 -0.001
O2B 0.067 0.02 0.074 -0.01 -0.037 0.001
N1C 0.039 0.1 0.026 -0.014 -0.021 0.001
N2E 0.05 0.041 0.024 -0.014 0.007 0.001
N2C 0.05 0.041 0.024 -0.014 -0.007 -0.001
N3B 0.031 0.03 0.023 -0.002 -0.002 -0.001
N3C 0.03 0.031 0.023 -0.002 0.002 0.001
C1C 0.049 0.05 0.049 -0.001 -0.001 -0.001
C2C 0.088 0.09 0.089 -0.001 0 0.001
C3C 0.11 0.39 0.08 -0.09 -0.01 0.06
C4E 0.037 0.037 0.02 -0.002 0.003 0.001
C5E 0.111 0.095 0.033 -0.034 -0.019 0.076
C6E 0.057 0.019 0.076 -0.012 0.026 -0.002
C7E 0.059 0.112 0.058 0.005 0.014 0.054
C8E 0.035 0.027 0.029 -0.018 0.004 0
C9E 0.054 0.057 0.061 -0.012 0.022 0.005
C10B 0.053 0.052 0.055 0.002 -0.001 -0.001
C11B 0.028 0.097 0.093 0.004 -0.001 0.02
C12B 0.025 0.049 0.067 -0.01 -0.008 0.019
C13B 0.054 0.066 0.15 -0.016 0.02 0.006
C14B 0.034 0.041 0.02 0.003 -0.015 0
C15B 0.065 0.067 0.03 -0.007 0.021 -0.014
O3 0.106(14) 0.106(14) 0.106(14) 0.000(2) 0.000(2) 0.000(2)
O4 0.43(12) 0.43(12) 0.43(12) 0.000 0.000 0.000(2)
O5 0.17(4) 0.17(4) 0.17(4) 0.000(2) 0.000(2) 0.000(2)
O6 0.478(4) 0.478(4) 0.479(4) 0.0000(15) 0.0000(15) 0.000(2)
O10 0.20(5) 0.20(5) 0.20(5) 0.000(2) 0.000(2) 0.000(2)
O11 0.16(4) 0.16(4) 0.16(4) 0.000(2) 0.000(2) 0.000(2)
O12 0.276(4) 0.276(4) 0.276(4) 0.000 0.000 0.000
O13 0.29 0.29 0.29 0 0 0
O14 0.245(4) 0.245(4) 0.245(4) 0.0000(15) 0.0000(15) 0.000(2)
O15 0.045(7) 0.040(7) 0.020(7) 0.000 0.000 0.000(2)
O16 0.050(7) 0.040(7) 0.025(7) 0.000 0.000 0.001(2)
loop_
_geom_bond_atom_site_label_1
_geom_bond_atom_site_label_2
_geom_bond_site_symmetry_1
_geom_bond_site_symmetry_2
Ni1 O1 1_555 1_555
O1 C1 1_555 1_555
O2 C1 1_555 1_555
N1 Ni1 1_555 1_555
H1 N1 1_555 1_555
N2 Ni1 1_555 1_555
N3 Ni1 1_555 1_555
C1 C2 1_555 1_555
C2 N1 1_555 1_555
H2 C2 1_555 1_555
C3 C2 1_555 1_555
H3 C3 1_555 1_555
H4 C3 1_555 1_555
H5 C3 1_555 1_555
C4 N2 1_555 1_555
H6 C4 1_555 1_555
C5 C4 1_555 1_555
H7 C5 1_555 1_555
C6 C5 1_555 1_555
C7 C6 1_555 1_555
H8 C7 1_555 1_555
C8 N2 1_555 1_555
H9 C8 1_555 1_555
C9 C6 1_555 1_555
H10 C9 1_555 1_555
C10 N3 1_555 1_555
H11 C10 1_555 1_555
C11 C10 1_555 1_555
H12 C11 1_555 1_555
C12 C11 1_555 1_555
C13 C12 1_555 1_555
H13 C13 1_555 1_555
C14 N3 1_555 1_555
H14 C14 1_555 1_555
H15 C15 1_555 1_555
C15 C12 1_555 1_555
O3 H16 1_555 1_555
H17 O3 1_555 1_555
O5 H20 1_555 1_555
H21 O5 1_555 1_555
O6 H22 1_555 1_555
O10 H30 1_555 1_555
H31 O10 1_555 1_555
O11 H33 1_555 1_555
O13 H37 1_555 1_555
O15 H41 1_555 1_555
O16 H42 1_555 1_555
Ni1C O1C 1_555 1_555
Ni1A O2 1_555 1_555
Ni1E N2E 1_555 1_555
Ni1B N3B 1_555 1_555
O1C C1C 1_555 1_555
O2C Ni1 1_555 1_555
O2B Ni1C 1_555 1_555
N1C Ni1C 1_555 1_555
H1C N1C 1_555 1_555
N2E C4E 1_555 1_555
N2C Ni1C 1_555 1_555
N3B C10B 1_555 1_555
N3C Ni1C 1_555 1_555
C1C O2C 1_555 1_555
C2C N1C 1_555 1_555
H2C C2C 1_555 1_555
C3C C2C 1_555 1_555
H3C C3C 1_555 1_555
H4C C3C 1_555 1_555
H5C C3C 1_555 1_555
C4E H6E 1_555 1_555
C5E C4E 1_555 1_555
H7E C5E 1_555 1_555
C6E C5E 1_555 1_555
C7E C6E 1_555 1_555
H8E C7E 1_555 1_555
C8E N2E 1_555 1_555
H9E C8E 1_555 1_555
C9E C9 1_555 1_555
H10E C9E 1_555 1_555
C10B H11B 1_555 1_555
C11B C10B 1_555 1_555
H12B C11B 1_555 1_555
C12B C11B 1_555 1_555
C13B C12B 1_555 1_555
H13B C13B 1_555 1_555
C14B N3B 1_555 1_555
H14B C14B 1_555 1_555
H15B C15B 1_555 1_555
C15B C15 1_555 1_555
H22E O6 1_555 1_555
H37B O13 1_555 1_555
H41B O15 1_555 1_555
H42B O16 1_555 1_555
C7 C8 1_555 1_555
C13 C14 1_555 1_555
C1C C2C 1_555 1_555
C6E C9E 1_555 1_555
C7E C8E 1_555 1_555
C12B C15B 1_555 1_555
C13B C14B 1_555 1_555

#END
