
#######################################################################
#
#                 Cambridge Crystallographic Data Centre
#                                CCDC 
#
#######################################################################
#
# If this CIF has been generated from an entry in the Cambridge 
# Structural Database, then it will include bibliographic, chemical, 
# crystal, experimental, refinement or atomic coordinate data resulting 
# from the CCDC's data processing and validation procedures.
#
#######################################################################

data_LIJXEI
_chemical_formula_moiety         '(C76 H64 Cd5 N4 O23)n'
_symmetry_cell_setting           monoclinic
_symmetry_space_group_name_H-M   'P 21/n'
_symmetry_Int_Tables_number      14
_space_group_name_Hall           '-P 2yn'
loop_
_symmetry_equiv_pos_site_id
_symmetry_equiv_pos_as_xyz
1 x,y,z
2 1/2-x,1/2+y,1/2-z
3 -x,-y,-z
4 1/2+x,1/2-y,1/2+z
_cell_length_a                   9.949(12)
_cell_length_b                   16.15(2)
_cell_length_c                   24.55(3)
_cell_angle_alpha                90
_cell_angle_beta                 95.83(2)
_cell_angle_gamma                90
_cell_volume                     3924.2
loop_
_atom_site_label
_atom_site_type_symbol
_atom_site_fract_x
_atom_site_fract_y
_atom_site_fract_z
Cd1 Cd -0.160540(14) 0.413430(9) -0.536580(5)
Cd2 Cd 0.0000 0.0000 0.0000
Cd3 Cd -0.248600(14) 0.144520(10) 0.015780(5)
N1 N -0.17874(13) 0.37355(9) -0.62898(5)
N2 N -0.23398(14) 0.20851(10) -0.89850(5)
O1 O -0.17462(12) 0.41276(8) -0.44589(4)
O2 O 0.02406(14) 0.47654(9) -0.43816(5)
O3 O -0.27612(11) 0.35800(8) -0.36168(4)
H1 H -0.2733 0.3713 -0.3938
O4 O -0.08392(12) 0.02295(8) -0.08909(4)
O5 O -0.22859(12) 0.12720(9) -0.07565(4)
O6 O -0.24798(12) 0.24369(8) -0.14772(4)
H2 H -0.2624 0.2208 -0.1191
O7 O 0.16227(12) 0.18143(8) -0.03517(5)
O8 O -0.00247(12) 0.14584(8) 0.01547(4)
O9 O 0.02417(11) 0.32563(8) -0.51821(4)
O10 O 0.16985(12) 0.22306(8) -0.51940(5)
O11 O 0.18907(11) -0.01712(7) -0.04331(4)
C1 C -0.06810(19) 0.43839(12) -0.41813(7)
C2 C -0.05048(17) 0.41665(11) -0.35806(6)
C3 C 0.06968(18) 0.43391(12) -0.32693(7)
H3 H 0.1375 0.4611 -0.3433
C4 C 0.09318(19) 0.41191(12) -0.27160(7)
C5 C 0.2195(2) 0.43253(14) -0.23960(8)
H4 H 0.2868 0.4603 -0.2559
C6 C 0.2394(2) 0.41140(15) -0.18612(8)
H5 H 0.3213 0.4229 -0.1657
C7 C 0.1338(2) 0.37132(15) -0.16143(8)
H6 H 0.1469 0.3590 -0.1243
C8 C 0.0146(2) 0.35034(13) -0.18996(7)
H7 H -0.0508 0.3230 -0.1723
C9 C -0.01150(18) 0.37002(12) -0.24722(7)
C10 C -0.13505(17) 0.34782(12) -0.27834(7)
C11 C -0.15435(17) 0.37407(12) -0.33284(7)
C12 C -0.24715(17) 0.29709(11) -0.25493(7)
H8 H -0.3247 0.2952 -0.2823
H9 H -0.2747 0.3263 -0.2234
C13 C -0.21073(17) 0.20971(11) -0.23796(6)
C14 C -0.21060(18) 0.18594(13) -0.18401(6)
C15 C -0.16867(17) 0.10634(12) -0.16534(6)
C16 C -0.13392(18) 0.04814(12) -0.20258(7)
H10 H -0.1046 -0.0039 -0.1903
C17 C -0.14221(18) 0.06651(12) -0.25908(7)
C18 C -0.1094(2) 0.00461(13) -0.29825(7)
H11 H -0.0796 -0.0476 -0.2864
C19 C -0.1226(2) 0.02346(14) -0.35228(7)
H12 H -0.1032 -0.0163 -0.3777
C20 C -0.1663(2) 0.10438(14) -0.37046(7)
H13 H -0.1745 0.1167 -0.4077
C21 C -0.19519(18) 0.16161(13) -0.33506(7)
H14 H -0.2251 0.2130 -0.3485
C22 C -0.18275(17) 0.14865(12) -0.27734(7)
C23 C -0.15757(17) 0.08250(12) -0.10548(7)
C24 C -0.06983(18) 0.36086(13) -0.65614(7)
H15 H 0.0147 0.3709 -0.6375
C25 C -0.07437(18) 0.33391(13) -0.70979(7)
H16 H 0.0047 0.3270 -0.7265
C26 C -0.20055(17) 0.31716(13) -0.73839(7)
C27 C -0.31476(18) 0.33156(13) -0.70993(7)
H17 H -0.4009 0.3230 -0.7275
C28 C -0.29967(18) 0.35819(12) -0.65619(7)
H18 H -0.3766 0.3657 -0.6382
C29 C -0.21202(18) 0.28039(13) -0.79447(7)
C30 C -0.1118(2) 0.23200(15) -0.81202(7)
H19 H -0.0331 0.2229 -0.7889
C31 C -0.12590(19) 0.19650(14) -0.86363(7)
H20 H -0.0568 0.1631 -0.8741
C32 C -0.33205(19) 0.25567(13) -0.88181(7)
H21 H -0.4090 0.2642 -0.9060
C33 C -0.32667(19) 0.29250(13) -0.83118(7)
H22 H -0.3980 0.3248 -0.8216
C34 C 0.06840(19) 0.19954(12) -0.00757(7)
C35 C 0.0300(2) 0.28713(14) 0.00110(10)
H23 H 0.1096 0.3190 0.0121
H24 H -0.0304 0.2897 0.0291
H25 H -0.0140 0.3093 -0.0324
C36 C 0.05287(19) 0.25046(13) -0.53019(7)
C37 C -0.0576(2) 0.19538(13) -0.55645(9)
H26 H -0.0637 0.1464 -0.5347
H27 H -0.1421 0.2245 -0.5589
H28 H -0.0373 0.1802 -0.5925
H35 H 0.1401(6) -0.0236(9) -0.07130(17)
Cd1B Cd 0.160540(14) -0.413430(9) 0.536580(5)
Cd1B_2 Cd 0.160540(14) 0.586570(9) -0.463420(5)
Cd1C Cd 0.339460(14) 0.086570(9) -0.036580(5)
Cd1_2 Cd -0.160540(14) -0.586570(9) 0.463420(5)
Cd1A Cd -0.339460(14) -0.086570(9) 0.036580(5)
Cd1_3 Cd -0.160540(14) 0.413430(9) 0.463420(5)
Cd1C_2 Cd -0.660540(14) 0.086570(9) -0.036580(5)
Cd3B Cd 0.248600(14) -0.144520(10) -0.015780(5)
Cd3_2 Cd -0.248600(14) 0.144520(10) -0.984220(5)
Cd3C Cd 0.251400(14) 0.355480(10) -0.484220(5)
N1_2 N -0.17874(13) 0.37355(9) 0.37102(5)
N1B N 0.17874(13) -0.37355(9) 0.62898(5)
N2_2 N -0.23398(14) 0.20851(10) 0.10150(5)
N2B N 0.23398(14) -0.20851(10) -0.10150(5)
O1B O 0.17462(12) -0.41276(8) 0.44589(4)
O2B O -0.02406(14) -0.47654(9) 0.43816(5)
O2B_2 O -0.02406(14) 0.52346(9) -0.56184(5)
O2_2 O 0.02406(14) -0.52346(9) 0.56184(5)
O3B O 0.27612(11) -0.35800(8) 0.36168(4)
H1B H 0.2733 -0.3713 0.3938
O4B O 0.08392(12) -0.02295(8) 0.08909(4)
O5B O 0.22859(12) -0.12720(9) 0.07565(4)
O6B O 0.24798(12) -0.24369(8) 0.14772(4)
H2B H 0.2624 -0.2208 0.1191
O7B O -0.16227(12) -0.18143(8) 0.03517(5)
O7C O -0.33773(12) 0.31857(8) -0.53517(5)
O7A O 0.33773(12) -0.31857(8) 0.53517(5)
O8B O 0.00247(12) -0.14584(8) -0.01547(4)
O9C O -0.47583(11) 0.17437(8) -0.01821(4)
O9B O -0.02417(11) -0.32563(8) 0.51821(4)
O9A O 0.47583(11) -0.17437(8) 0.01821(4)
O10C O -0.33015(12) 0.27694(8) -0.01940(5)
O10A O 0.33015(12) -0.27694(8) 0.01940(5)
O11B O -0.18907(11) 0.01712(7) 0.04331(4)
O11C O -0.31093(11) 0.51712(7) -0.54331(4)
O11A O 0.31093(11) -0.51712(7) 0.54331(4)
C1B C 0.06810(19) -0.43839(12) 0.41813(7)
C2B C 0.05048(17) -0.41665(11) 0.35806(6)
C3B C -0.06968(18) -0.43391(12) 0.32693(7)
H3B H -0.1375 -0.4611 0.3433
C4B C -0.09318(19) -0.41191(12) 0.27160(7)
C5B C -0.2195(2) -0.43253(14) 0.23960(8)
H4B H -0.2868 -0.4603 0.2559
C6B C -0.2394(2) -0.41140(15) 0.18612(8)
H5B H -0.3213 -0.4229 0.1657
C7B C -0.1338(2) -0.37132(15) 0.16143(8)
H6B H -0.1469 -0.3590 0.1243
C8B C -0.0146(2) -0.35034(13) 0.18996(7)
H7B H 0.0508 -0.3230 0.1723
C9B C 0.01150(18) -0.37002(12) 0.24722(7)
C10B C 0.13505(17) -0.34782(12) 0.27834(7)
C11B C 0.15435(17) -0.37407(12) 0.33284(7)
C12B C 0.24715(17) -0.29709(11) 0.25493(7)
H8B H 0.3247 -0.2952 0.2823
H9B H 0.2747 -0.3263 0.2234
C13B C 0.21073(17) -0.20971(11) 0.23796(6)
C14B C 0.21060(18) -0.18594(13) 0.18401(6)
C15B C 0.16867(17) -0.10634(12) 0.16534(6)
C16B C 0.13392(18) -0.04814(12) 0.20258(7)
H10B H 0.1046 0.0039 0.1903
C17B C 0.14221(18) -0.06651(12) 0.25908(7)
C18B C 0.1094(2) -0.00461(13) 0.29825(7)
H11B H 0.0796 0.0476 0.2864
C19B C 0.1226(2) -0.02346(14) 0.35228(7)
H12B H 0.1032 0.0163 0.3777
C20B C 0.1663(2) -0.10438(14) 0.37046(7)
H13B H 0.1745 -0.1167 0.4077
C21B C 0.19519(18) -0.16161(13) 0.33506(7)
H14B H 0.2251 -0.2130 0.3485
C22B C 0.18275(17) -0.14865(12) 0.27734(7)
C23B C 0.15757(17) -0.08250(12) 0.10548(7)
C24_2 C -0.06983(18) 0.36086(13) 0.34386(7)
H15_2 H 0.0147 0.3709 0.3625
C25_2 C -0.07437(18) 0.33391(13) 0.29021(7)
H16_2 H 0.0047 0.3270 0.2735
C26_2 C -0.20055(17) 0.31716(13) 0.26161(7)
C27_2 C -0.31476(18) 0.33156(13) 0.29007(7)
H17_2 H -0.4009 0.3230 0.2725
C28_2 C -0.29967(18) 0.35819(12) 0.34381(7)
H18_2 H -0.3766 0.3657 0.3618
C29_2 C -0.21202(18) 0.28039(13) 0.20553(7)
C30_2 C -0.1118(2) 0.23200(15) 0.18798(7)
H19_2 H -0.0331 0.2229 0.2111
C31_2 C -0.12590(19) 0.19650(14) 0.13637(7)
H20_2 H -0.0568 0.1631 0.1259
C32_2 C -0.33205(19) 0.25567(13) 0.11819(7)
H21_2 H -0.4090 0.2642 0.0940
C33_2 C -0.32667(19) 0.29250(13) 0.16882(7)
H22_2 H -0.3980 0.3248 0.1784
C34B C -0.06840(19) -0.19954(12) 0.00757(7)
C35B C -0.0300(2) -0.28713(14) -0.00110(10)
H23B H -0.1096 -0.3190 -0.0121
H24B H 0.0304 -0.2897 -0.0291
H25B H 0.0140 -0.3093 0.0324
C36C C -0.44713(19) 0.24954(13) -0.03019(7)
C37C C -0.5576(2) 0.30462(13) -0.05645(9)
H26C H -0.5637 0.3536 -0.0347
H27C H -0.6421 0.2755 -0.0589
H28C H -0.5373 0.3198 -0.0925
H35B H -0.1401(6) 0.0236(9) 0.07130(17)
H35C H -0.3599(6) 0.5236(9) -0.57130(17)
H35A H 0.3599(6) -0.5236(9) 0.57130(17)
O12 O 0.6608(2) 0.4609(3) 0.00652(15)
H29 H 0.6417 0.4115 0.0071
C38 C 0.7921(3) 0.4698(4) 0.01496(12)
H30 H 0.8147 0.5271 0.0082
H31 H 0.8340 0.4358 -0.0112
C39 C 0.8492(4) 0.4468(4) 0.07101(12)
H32 H 0.9308 0.4775 0.0806
H33 H 0.8688 0.3886 0.0723
H34 H 0.7850 0.4595 0.0965
loop_
_geom_bond_atom_site_label_1
_geom_bond_atom_site_label_2
_geom_bond_site_symmetry_1
_geom_bond_site_symmetry_2
Cd1 N1 1_555 1_555
Cd2 O4 1_555 1_555
Cd3 O5 1_555 1_555
N1 C24 1_555 1_555
N2 C31 1_555 1_555
O1 Cd1 1_555 1_555
O2 C1 1_555 1_555
O3 H1 1_555 1_555
O4 C23 1_555 1_555
O5 C23 1_555 1_555
O6 H2 1_555 1_555
O7 C34 1_555 1_555
O8 Cd2 1_555 1_555
O9 Cd1 1_555 1_555
O10 C36 1_555 1_555
O11 Cd2 1_555 1_555
C1 O1 1_555 1_555
C2 C1 1_555 1_555
C3 C2 1_555 1_555
H3 C3 1_555 1_555
C4 C3 1_555 1_555
C5 C4 1_555 1_555
H4 C5 1_555 1_555
C6 C5 1_555 1_555
H5 C6 1_555 1_555
C7 C6 1_555 1_555
H6 C7 1_555 1_555
C8 C7 1_555 1_555
H7 C8 1_555 1_555
C9 C4 1_555 1_555
C10 C9 1_555 1_555
C11 O3 1_555 1_555
C12 C10 1_555 1_555
H8 C12 1_555 1_555
H9 C12 1_555 1_555
C13 C12 1_555 1_555
C14 O6 1_555 1_555
C15 C14 1_555 1_555
C16 C15 1_555 1_555
H10 C16 1_555 1_555
C17 C16 1_555 1_555
C18 C17 1_555 1_555
H11 C18 1_555 1_555
C19 C18 1_555 1_555
H12 C19 1_555 1_555
C20 C19 1_555 1_555
H13 C20 1_555 1_555
C21 C20 1_555 1_555
H14 C21 1_555 1_555
C22 C13 1_555 1_555
C23 C15 1_555 1_555
C24 H15 1_555 1_555
C25 C24 1_555 1_555
H16 C25 1_555 1_555
C26 C25 1_555 1_555
C27 C26 1_555 1_555
H17 C27 1_555 1_555
C28 N1 1_555 1_555
H18 C28 1_555 1_555
C29 C26 1_555 1_555
C30 C29 1_555 1_555
H19 C30 1_555 1_555
C31 C30 1_555 1_555
H20 C31 1_555 1_555
C32 N2 1_555 1_555
H21 C32 1_555 1_555
C33 C29 1_555 1_555
H22 C33 1_555 1_555
C34 O8 1_555 1_555
C35 C34 1_555 1_555
H23 C35 1_555 1_555
H24 C35 1_555 1_555
H25 C35 1_555 1_555
C36 O9 1_555 1_555
C37 C36 1_555 1_555
H26 C37 1_555 1_555
H27 C37 1_555 1_555
H28 C37 1_555 1_555
O12 H29 1_555 1_555
C38 O12 1_555 1_555
H30 C38 1_555 1_555
H31 C38 1_555 1_555
C39 C38 1_555 1_555
H32 C39 1_555 1_555
H33 C39 1_555 1_555
H34 C39 1_555 1_555
H35 O11 1_555 1_555
Cd1B N1B 1_555 1_555
Cd1B_2 O2 1_555 1_555
Cd1C O7 1_555 1_555
Cd1_2 O2B 1_555 1_555
Cd1A O7B 1_555 1_555
Cd1_3 N1_2 1_555 1_555
Cd1C_2 O9C 1_555 1_555
Cd3B O11 1_555 1_555
Cd3_2 N2 1_555 1_555
Cd3C O9 1_555 1_555
N1_2 C24_2 1_555 1_555
N2_2 Cd3 1_555 1_555
N2B Cd3B 1_555 1_555
O1B Cd1B 1_555 1_555
O2B C1B 1_555 1_555
O2B_2 Cd1 1_555 1_555
O2_2 Cd1B 1_555 1_555
O3B H1B 1_555 1_555
O4B Cd2 1_555 1_555
O5B Cd3B 1_555 1_555
O6B H2B 1_555 1_555
O7B C34B 1_555 1_555
O7C Cd1 1_555 1_555
O7A Cd1B 1_555 1_555
O8B Cd2 1_555 1_555
O9C Cd3 1_555 1_555
O9B Cd1B 1_555 1_555
O9A Cd3B 1_555 1_555
O10C Cd3 1_555 1_555
O10A Cd3B 1_555 1_555
O11B Cd2 1_555 1_555
O11C Cd1 1_555 1_555
O11A Cd1B 1_555 1_555
C1B O1B 1_555 1_555
C2B C1B 1_555 1_555
C3B C2B 1_555 1_555
H3B C3B 1_555 1_555
C4B C3B 1_555 1_555
C5B C4B 1_555 1_555
H4B C5B 1_555 1_555
C6B C5B 1_555 1_555
H5B C6B 1_555 1_555
C7B C6B 1_555 1_555
H6B C7B 1_555 1_555
C8B C7B 1_555 1_555
H7B C8B 1_555 1_555
C9B C4B 1_555 1_555
C10B C9B 1_555 1_555
C11B O3B 1_555 1_555
C12B C10B 1_555 1_555
H8B C12B 1_555 1_555
H9B C12B 1_555 1_555
C13B C12B 1_555 1_555
C14B O6B 1_555 1_555
C15B C14B 1_555 1_555
C16B C15B 1_555 1_555
H10B C16B 1_555 1_555
C17B C16B 1_555 1_555
C18B C17B 1_555 1_555
H11B C18B 1_555 1_555
C19B C18B 1_555 1_555
H12B C19B 1_555 1_555
C20B C19B 1_555 1_555
H13B C20B 1_555 1_555
C21B C20B 1_555 1_555
H14B C21B 1_555 1_555
C22B C13B 1_555 1_555
C23B O4B 1_555 1_555
C24_2 H15_2 1_555 1_555
C25_2 C24_2 1_555 1_555
H16_2 C25_2 1_555 1_555
C26_2 C25_2 1_555 1_555
C27_2 C26_2 1_555 1_555
H17_2 C27_2 1_555 1_555
C28_2 N1_2 1_555 1_555
H18_2 C28_2 1_555 1_555
C29_2 C26_2 1_555 1_555
C30_2 C29_2 1_555 1_555
H19_2 C30_2 1_555 1_555
C31_2 N2_2 1_555 1_555
H20_2 C31_2 1_555 1_555
C32_2 N2_2 1_555 1_555
H21_2 C32_2 1_555 1_555
C33_2 C29_2 1_555 1_555
H22_2 C33_2 1_555 1_555
C34B O8B 1_555 1_555
C35B C34B 1_555 1_555
H23B C35B 1_555 1_555
H24B C35B 1_555 1_555
H25B C35B 1_555 1_555
C36C O9C 1_555 1_555
C37C C36C 1_555 1_555
H26C C37C 1_555 1_555
H27C C37C 1_555 1_555
H28C C37C 1_555 1_555
H35B O11B 1_555 1_555
H35C O11C 1_555 1_555
H35A O11A 1_555 1_555
Cd3 O8 1_555 1_555
Cd3 O11B 1_555 1_555
O10 Cd3C 1_555 1_555
O11 Cd1C 1_555 1_555
C2 C11 1_555 1_555
C8 C9 1_555 1_555
C10 C11 1_555 1_555
C13 C14 1_555 1_555
C17 C22 1_555 1_555
C21 C22 1_555 1_555
C27 C28 1_555 1_555
C32 C33 1_555 1_555
Cd1A O11B 1_555 1_555
Cd3B O8B 1_555 1_555
O5B C23B 1_555 1_555
O10C C36C 1_555 1_555
C2B C11B 1_555 1_555
C8B C9B 1_555 1_555
C10B C11B 1_555 1_555
C13B C14B 1_555 1_555
C15B C23B 1_555 1_555
C17B C22B 1_555 1_555
C21B C22B 1_555 1_555
C27_2 C28_2 1_555 1_555
C30_2 C31_2 1_555 1_555
C32_2 C33_2 1_555 1_555

#END
