
#######################################################################
#
#                 Cambridge Crystallographic Data Centre
#                                CCDC 
#
#######################################################################
#
# If this CIF has been generated from an entry in the Cambridge 
# Structural Database, then it will include bibliographic, chemical, 
# crystal, experimental, refinement or atomic coordinate data resulting 
# from the CCDC's data processing and validation procedures.
#
#######################################################################

data_MUMZAX
_chemical_formula_moiety         '(C42 H24 Cl2 Co1 N6)n'
_symmetry_cell_setting           rhombohedral
_symmetry_space_group_name_H-M   'R -3'
_symmetry_Int_Tables_number      148
_space_group_name_Hall           '-R 3'
loop_
_symmetry_equiv_pos_site_id
_symmetry_equiv_pos_as_xyz
1 x,y,z
2 -y,x-y,z
3 -x+y,-x,z
4 2/3+x,1/3+y,1/3+z
5 2/3-y,1/3+x-y,1/3+z
6 2/3-x+y,1/3-x,1/3+z
7 1/3+x,2/3+y,2/3+z
8 1/3-y,2/3+x-y,2/3+z
9 1/3-x+y,2/3-x,2/3+z
10 -x,-y,-z
11 y,-x+y,-z
12 x-y,x,-z
13 1/3-x,2/3-y,2/3-z
14 1/3+y,2/3-x+y,2/3-z
15 1/3+x-y,2/3+x,2/3-z
16 2/3-x,1/3-y,1/3-z
17 2/3+y,1/3-x+y,1/3-z
18 2/3+x-y,1/3+x,1/3-z
_cell_length_a                   32.872(5)
_cell_length_b                   32.872(5)
_cell_length_c                   9.3160(19)
_cell_angle_alpha                90
_cell_angle_beta                 90
_cell_angle_gamma                120
_cell_volume                     8717.91
loop_
_atom_site_label
_atom_site_type_symbol
_atom_site_fract_x
_atom_site_fract_y
_atom_site_fract_z
_atom_site_U_iso_or_equiv
_atom_site_thermal_displace_type
Co1 Co 0.5000 0.0000 0.0000 0.0263 Uani
N1 N 0.53564(8) 0.00223(8) 0.1757(3) 0.0298 Uani
N2 N 0.49846(8) 0.05643(8) 0.0697(3) 0.0289 Uani
C1 C 0.55611(11) -0.02516(11) 0.2028(3) 0.0356 Uani
C2 C 0.55123(10) 0.03490(11) 0.2853(3) 0.0335 Uani
C3 C 0.51669(10) 0.08075(10) 0.1972(3) 0.0328 Uani
C4 C 0.47430(10) 0.07616(10) 0.0088(3) 0.0326 Uani
C5 C 0.58417(13) -0.00922(13) 0.3315(4) 0.0496 Uani
C6 C 0.55150(11) -0.06148(11) 0.1173(3) 0.0338 Uani
C7 C 0.58107(12) 0.02724(13) 0.3825(4) 0.0476 Uani
C8 C 0.54188(11) 0.07154(11) 0.2979(3) 0.0339 Uani
C9 C 0.50435(12) 0.11688(12) 0.2112(4) 0.0449 Uani
C10 C 0.47821(12) 0.11394(12) 0.0969(4) 0.0464 Uani
H1 H 0.6013 -0.0219 0.3716 0.0590 Uiso
C11 C 0.57651(11) -0.08717(11) 0.1610(3) 0.0369 Uani
H2 H 0.5954 0.0444 0.4650 0.0570 Uiso
C12 C 0.56005(11) 0.10305(11) 0.4272(4) 0.0386 Uani
H3 H 0.5130 0.1384 0.2859 0.0540 Uiso
H4 H 0.4651 0.1327 0.0781 0.0550 Uiso
C13 C 0.55889(13) -0.12158(13) 0.2641(4) 0.0498 Uani
C14 C 0.61815(12) -0.07750(13) 0.0960(4) 0.0483 Uani
C15 C 0.59467(14) 0.14958(13) 0.4133(5) 0.0568 Uani
C16 C 0.54237(13) 0.08663(14) 0.5625(4) 0.0515 Uani
H5 H 0.5310 -0.1292 0.3111 0.0600 Uiso
C17 C 0.58281(12) -0.14477(12) 0.2974(4) 0.0484 Uani
C18 C 0.63965(12) -0.10306(12) 0.1351(4) 0.0438 Uani
H6 H 0.6317 -0.0541 0.0266 0.0570 Uiso
H7 H 0.6071 0.1612 0.3229 0.0680 Uiso
C19 C 0.61128(16) 0.17922(15) 0.5307(6) 0.0706 Uani
C20 C 0.55838(15) 0.11593(17) 0.6812(5) 0.0651 Uani
H8 H 0.5193 0.0553 0.5742 0.0620 Uiso
H9 H 0.5703 -0.1678 0.3680 0.0580 Uiso
N3 N 0.62261(10) -0.13631(9) 0.2350(3) 0.0383 Uani
H10 H 0.6674 -0.0965 0.0891 0.0530 Uiso
H11 H 0.6349 0.2103 0.5199 0.0850 Uiso
C21 C 0.59262(17) 0.16219(17) 0.6613(5) 0.0684 Uani
H12 H 0.5463 0.1047 0.7721 0.0780 Uiso
Cl1 Cl 0.61266(6) 0.19834(6) 0.81372(18) 0.1249 Uani
N1I N 0.46436(8) -0.00223(8) -0.1757(3) 0.0298 Uani
N2I N 0.50154(8) -0.05643(8) -0.0697(3) 0.0289 Uani
C1I C 0.44389(11) 0.02516(11) -0.2028(3) 0.0356 Uani
C2I C 0.44877(10) -0.03490(11) -0.2853(3) 0.0335 Uani
C3I C 0.48331(10) -0.08075(10) -0.1972(3) 0.0328 Uani
C4I C 0.52570(10) -0.07616(10) -0.0088(3) 0.0326 Uani
C5I C 0.41583(13) 0.00922(13) -0.3315(4) 0.0496 Uani
C6I C 0.44850(11) 0.06148(11) -0.1173(3) 0.0338 Uani
C7I C 0.41893(12) -0.02724(13) -0.3825(4) 0.0476 Uani
C8I C 0.45812(11) -0.07154(11) -0.2979(3) 0.0339 Uani
C9I C 0.49565(12) -0.11688(12) -0.2112(4) 0.0449 Uani
C10I C 0.52179(12) -0.11394(12) -0.0969(4) 0.0464 Uani
H1I H 0.3987 0.0219 -0.3716 0.0590 Uiso
C11I C 0.42349(11) 0.08717(11) -0.1610(3) 0.0369 Uani
H2I H 0.4046 -0.0444 -0.4650 0.0570 Uiso
C12I C 0.43995(11) -0.10305(11) -0.4272(4) 0.0386 Uani
H3I H 0.4870 -0.1384 -0.2859 0.0540 Uiso
H4I H 0.5349 -0.1327 -0.0781 0.0550 Uiso
C13I C 0.44111(13) 0.12158(13) -0.2641(4) 0.0498 Uani
C14I C 0.38185(12) 0.07750(13) -0.0960(4) 0.0483 Uani
C15I C 0.40533(14) -0.14958(13) -0.4133(5) 0.0568 Uani
C16I C 0.45763(13) -0.08663(14) -0.5625(4) 0.0515 Uani
H5I H 0.4690 0.1292 -0.3111 0.0600 Uiso
C17I C 0.41719(12) 0.14477(12) -0.2974(4) 0.0484 Uani
C18I C 0.36035(12) 0.10306(12) -0.1351(4) 0.0438 Uani
H6I H 0.3683 0.0541 -0.0266 0.0570 Uiso
H7I H 0.3929 -0.1612 -0.3229 0.0680 Uiso
C19I C 0.38872(16) -0.17922(15) -0.5307(6) 0.0706 Uani
C20I C 0.44162(15) -0.11593(17) -0.6812(5) 0.0651 Uani
H8I H 0.4807 -0.0553 -0.5742 0.0620 Uiso
H9I H 0.4297 0.1678 -0.3680 0.0580 Uiso
N3I N 0.37739(10) 0.13631(9) -0.2350(3) 0.0383 Uani
H10I H 0.3326 0.0965 -0.0891 0.0530 Uiso
H11I H 0.3651 -0.2103 -0.5199 0.0850 Uiso
C21I C 0.40738(17) -0.16219(17) -0.6613(5) 0.0684 Uani
H12I H 0.4537 -0.1047 -0.7721 0.0780 Uiso
Cl1I Cl 0.38734(6) -0.19834(6) -0.81372(18) 0.1249 Uani
Co1D Co 0.6667 -0.1667 0.3333 0.0263 Uani
Co1G Co 0.3333 0.1667 -0.3333 0.0263 Uani
N3H N 0.57441(13) 0.04406(10) -0.0983(3) 0.0383 Uani
N3Q N 0.42559(13) -0.04406(10) 0.0983(3) 0.0383 Uani
loop_
_atom_site_aniso_label
_atom_site_aniso_U_11
_atom_site_aniso_U_22
_atom_site_aniso_U_33
_atom_site_aniso_U_23
_atom_site_aniso_U_13
_atom_site_aniso_U_12
Co1 0.0252(3) 0.0300(3) 0.0288(3) 0.0036(2) 0.0010(2) 0.0176(3)
N1 0.0273(13) 0.0346(14) 0.0326(14) 0.0043(11) 0.0010(11) 0.0192(12)
N2 0.0261(13) 0.0333(14) 0.0323(14) 0.0036(11) 0.0002(11) 0.0187(11)
C1 0.0383(18) 0.0419(19) 0.0357(19) 0.0012(15) -0.0042(15) 0.0268(16)
C2 0.0334(17) 0.0365(17) 0.0337(18) -0.0005(14) -0.0028(14) 0.0199(15)
C3 0.0307(17) 0.0335(17) 0.0376(19) -0.0012(14) -0.0013(14) 0.0186(14)
C4 0.0352(17) 0.0352(17) 0.0361(18) 0.0031(14) 0.0032(14) 0.0241(15)
C5 0.059(2) 0.059(2) 0.050(2) -0.0052(18) -0.0169(18) 0.044(2)
C6 0.0357 0.0414 0.0358 0.0035 -0.0029 0.0278
C7 0.054(2) 0.057(2) 0.044(2) -0.0094(18) -0.0184(17) 0.037(2)
C8 0.0314(17) 0.0386(18) 0.0316(18) -0.0016(14) -0.0037(14) 0.0175(15)
C9 0.057(2) 0.046(2) 0.044(2) -0.0119(17) -0.0096(18) 0.0349(19)
C10 0.056(2) 0.047(2) 0.052(2) -0.0073(17) -0.0104(18) 0.0377(18)
C11 0.043 0.0441 0.037 -0.0031 -0.008 0.0319
C12 0.0344(18) 0.0387(19) 0.048(2) -0.0054(16) -0.0077(16) 0.0222(16)
C13 0.047 0.065 0.055 0.0161 0.0061 0.0411
C14 0.051 0.06 0.049 0.0176 0.0041 0.0391
C15 0.059(2) 0.051(2) 0.057(3) -0.005(2) -0.011(2) 0.025(2)
C16 0.055(2) 0.057(2) 0.044(2) -0.0061(18) -0.0038(18) 0.0291(19)
C17 0.047 0.051 0.056 0.0161 0.0021 0.0312
C18 0.045 0.058 0.042 0.0071 0.0055 0.036
C19 0.070(3) 0.050(3) 0.085(4) -0.018(2) -0.023(3) 0.025(2)
C20 0.070(3) 0.088(3) 0.046(2) -0.017(2) -0.011(2) 0.046(3)
N3 0.0433 0.0394 0.0402 -0.0015 -0.0059 0.0267
C21 0.075(3) 0.076(3) 0.068(3) -0.034(3) -0.028(3) 0.048(3)
Cl1 0.1573(15) 0.1214(12) 0.1073(12) -0.0777(10) -0.0574(11) 0.0782(11)
N1I 0.0273 0.0346 0.0326 0.0043 0.001 0.0192
N2I 0.0261 0.0333 0.0323 0.0036 0.0002 0.0187
C1I 0.0383 0.0419 0.0357 0.0012 -0.0042 0.0268
C2I 0.0334 0.0365 0.0337 -0.0005 -0.0028 0.0199
C3I 0.0307 0.0335 0.0376 -0.0012 -0.0013 0.0186
C4I 0.0352 0.0352 0.0361 0.0031 0.0032 0.0241
C5I 0.059 0.059 0.05 -0.0052 -0.0169 0.044
C6I 0.0357 0.0414 0.0358 0.0035 -0.0029 0.0278
C7I 0.054 0.057 0.044 -0.0094 -0.0184 0.037
C8I 0.0314 0.0386 0.0316 -0.0016 -0.0037 0.0175
C9I 0.057 0.046 0.044 -0.0119 -0.0096 0.0349
C10I 0.056 0.047 0.052 -0.0073 -0.0104 0.0377
C11I 0.043 0.0441 0.037 -0.0031 -0.008 0.0319
C12I 0.0344 0.0387 0.048 -0.0054 -0.0077 0.0222
C13I 0.047 0.065 0.055 0.0161 0.0061 0.0411
C14I 0.051 0.06 0.049 0.0176 0.0041 0.0391
C15I 0.059 0.051 0.057 -0.005 -0.011 0.025
C16I 0.055 0.057 0.044 -0.0061 -0.0038 0.0291
C17I 0.047 0.051 0.056 0.0161 0.0021 0.0312
C18I 0.045 0.058 0.042 0.0071 0.0055 0.036
C19I 0.07 0.05 0.085 -0.018 -0.023 0.025
C20I 0.07 0.088 0.046 -0.017 -0.011 0.046
N3I 0.0433 0.0394 0.0402 -0.0015 -0.0059 0.0267
C21I 0.075 0.076 0.068 -0.034 -0.028 0.048
Cl1I 0.1573 0.1214 0.1073 -0.0777 -0.0574 0.0782
Co1D 0.03 0.02 0.0288 -0.0026 -0.0036 0.0124
Co1G 0.03 0.02 0.0288 -0.0026 -0.0036 0.0124
N3H 0.0293 0.0433 0.0402 0.0059 0.0044 0.0166
N3Q 0.0293 0.0433 0.0402 0.0059 0.0044 0.0166
loop_
_geom_bond_atom_site_label_1
_geom_bond_atom_site_label_2
_geom_bond_site_symmetry_1
_geom_bond_site_symmetry_2
Co1 N1 1_555 1_555
N1 C1 1_555 1_555
N2 Co1 1_555 1_555
C1 C5 1_555 1_555
C2 N1 1_555 1_555
C3 N2 1_555 1_555
C4 N2 1_555 1_555
C5 C7 1_555 1_555
C6 C1 1_555 1_555
C7 C2 1_555 1_555
C8 C2 1_555 1_555
C9 C3 1_555 1_555
C10 C4 1_555 1_555
H1 C5 1_555 1_555
C11 C6 1_555 1_555
H2 C7 1_555 1_555
C12 C8 1_555 1_555
H3 C9 1_555 1_555
H4 C10 1_555 1_555
C13 C11 1_555 1_555
C14 C11 1_555 1_555
C15 C12 1_555 1_555
C16 C12 1_555 1_555
H5 C13 1_555 1_555
C17 C13 1_555 1_555
C18 C14 1_555 1_555
H6 C14 1_555 1_555
H7 C15 1_555 1_555
C19 C15 1_555 1_555
C20 C16 1_555 1_555
H8 C16 1_555 1_555
H9 C17 1_555 1_555
N3 C17 1_555 1_555
H10 C18 1_555 1_555
H11 C19 1_555 1_555
C21 C19 1_555 1_555
H12 C20 1_555 1_555
Cl1 C21 1_555 1_555
N1I Co1 1_555 1_555
N2I Co1 1_555 1_555
C1I N1I 1_555 1_555
C2I N1I 1_555 1_555
C3I N2I 1_555 1_555
C4I C6 1_555 1_555
C5I C1I 1_555 1_555
C6I C4 1_555 1_555
C7I C2I 1_555 1_555
C8I C2I 1_555 1_555
C9I C3I 1_555 1_555
C10I C4I 1_555 1_555
H1I C5I 1_555 1_555
C11I C6I 1_555 1_555
H2I C7I 1_555 1_555
C12I C8I 1_555 1_555
H3I C9I 1_555 1_555
H4I C10I 1_555 1_555
C13I C11I 1_555 1_555
C14I C11I 1_555 1_555
C15I C12I 1_555 1_555
C16I C12I 1_555 1_555
H5I C13I 1_555 1_555
C17I C13I 1_555 1_555
C18I C14I 1_555 1_555
H6I C14I 1_555 1_555
H7I C15I 1_555 1_555
C19I C15I 1_555 1_555
C20I C16I 1_555 1_555
H8I C16I 1_555 1_555
H9I C17I 1_555 1_555
N3I C17I 1_555 1_555
H10I C18I 1_555 1_555
H11I C19I 1_555 1_555
C21I C19I 1_555 1_555
H12I C20I 1_555 1_555
Cl1I C21I 1_555 1_555
Co1D N3 1_555 1_555
Co1G N3I 1_555 1_555
N3H Co1 1_555 1_555
N3Q Co1 1_555 1_555
C3 C8 1_555 1_555
C9 C10 1_555 1_555
C18 N3 1_555 1_555
C20 C21 1_555 1_555
N2I C4I 1_555 1_555
C1I C6I 1_555 1_555
C3I C8I 1_555 1_555
C5I C7I 1_555 1_555
C9I C10I 1_555 1_555
C18I N3I 1_555 1_555
C20I C21I 1_555 1_555

#END
