
#######################################################################
#
#                 Cambridge Crystallographic Data Centre
#                                CCDC 
#
#######################################################################
#
# If this CIF has been generated from an entry in the Cambridge 
# Structural Database, then it will include bibliographic, chemical, 
# crystal, experimental, refinement or atomic coordinate data resulting 
# from the CCDC's data processing and validation procedures.
#
#######################################################################

data_FENZAB
_chemical_formula_moiety         'C22 H36 La9 O22'
_symmetry_cell_setting           monoclinic
_symmetry_space_group_name_H-M   'C 2/c'
_symmetry_Int_Tables_number      15
_space_group_name_Hall           '-C 2yc'
loop_
_symmetry_equiv_pos_site_id
_symmetry_equiv_pos_as_xyz
1 x,y,z
2 -x,y,1/2-z
3 1/2+x,1/2+y,z
4 1/2-x,1/2+y,1/2-z
5 -x,-y,-z
6 x,-y,1/2+z
7 1/2-x,1/2-y,-z
8 1/2+x,1/2-y,1/2+z
_cell_length_a                   22.7053(11)
_cell_length_b                   12.3557(5)
_cell_length_c                   8.3931(3)
_cell_angle_alpha                90
_cell_angle_beta                 93.878(4)
_cell_angle_gamma                90
_cell_volume                     2349.21
loop_
_atom_site_label
_atom_site_type_symbol
_atom_site_fract_x
_atom_site_fract_y
_atom_site_fract_z
La1 La -0.190037(9) 0.04108(2) -0.53460(2)
O1 O -0.29992(12) 0.0884(2) -0.4935(3)
O2 O -0.08380(13) 0.0841(3) -0.4614(3)
C1 C -0.33836(17) 0.1671(3) -0.1026(4)
H1 H -0.3065 0.1294 -0.0406
C2 C -0.29899(17) 0.0744(3) -0.3443(4)
C3 C -0.39079(18) 0.1733(4) 0.0042(5)
H2 H -0.4045 0.1015 0.0251
H3 H -0.4222 0.2142 -0.0491
H4 H -0.3784 0.2079 0.1032
C4 C -0.35342(17) 0.0980(3) -0.2533(4)
H5 H -0.3660 0.0276 -0.2136
C5 C -0.0256(3) 0.0974(7) -0.2218(9)
H6 H -0.0312 0.0869 -0.1080
C6 C -0.0204(3) 0.0183(7) -0.2248(9)
H7 H -0.0254 0.0297 -0.1109
C7 C -0.40611(17) 0.1399(4) -0.3605(4)
H8 H -0.4411 0.1378 -0.3026
H9 H -0.4115 0.0951 -0.4538
H10 H -0.3986 0.2131 -0.3920
C8 C 0.0000 -0.1011(5) -0.2500
H11 H -0.0029 -0.1144 -0.1381
H12 H 0.0282 -0.1500 -0.2908
H13 H -0.0379 -0.1123 -0.3056
C9 C 0.0000 0.2151(6) -0.2500
H14 H -0.0306 0.2678 -0.2404
H15 H 0.0143 0.2191 -0.3549
H16 H 0.0318 0.2294 -0.1717
O3 O -0.25275(12) 0.0370(2) -0.2694(3)
C10 C -0.31538(17) 0.2809(4) -0.1362(4)
O4 O -0.31001(13) 0.3464(3) -0.0194(3)
O5 O -0.30133(12) 0.3023(2) -0.2759(3)
O6 O -0.12730(12) 0.0147(3) -0.2582(3)
C11 C -0.0801(11) 0.0357(11) -0.318(3)
C12 C -0.0835(11) 0.0731(11) -0.321(4)
O7 O -0.18349(14) 0.2159(3) -0.3698(3)
H17 H -0.2063(17) 0.227(3) -0.295(4)
H18 H -0.182(2) 0.276(2) -0.423(5)
La1E La -0.190037(9) -0.04108(2) -1.03460(2)
La1E_2 La -0.190037(9) -0.04108(2) -0.03460(2)
La1C La -0.309963(9) 0.54108(2) 0.03460(2)
La1F La -0.309963(9) 0.45892(2) -0.46540(2)
La1A La 0.190037(9) 0.04108(2) 0.03460(2)
La1D La 0.190037(9) -0.04108(2) -0.46540(2)
La1F_2 La -0.309963(9) -0.54108(2) -0.46540(2)
La1C_2 La -0.309963(9) -0.45892(2) -0.96540(2)
O1E O -0.29992(12) -0.0884(2) -0.9935(3)
O2A O 0.08380(13) 0.0841(3) -0.0386(3)
O2E O -0.08380(13) -0.0841(3) -0.9614(3)
C1E C -0.33836(17) -0.1671(3) -0.6026(4)
H1E H -0.3065 -0.1294 -0.5406
C2E C -0.29899(17) -0.0744(3) -0.8443(4)
C3E C -0.39079(18) -0.1733(4) -0.4958(5)
H2E H -0.4045 -0.1015 -0.4749
H3E H -0.4222 -0.2142 -0.5491
H4E H -0.3784 -0.2079 -0.3968
C4E C -0.35342(17) -0.0980(3) -0.7533(4)
H5E H -0.3660 -0.0276 -0.7136
C5A C 0.0256(3) 0.0974(7) -0.2782(9)
H6A H 0.0312 0.0869 -0.3920
C6A C 0.0204(3) 0.0183(7) -0.2752(9)
H7A H 0.0254 0.0297 -0.3891
C7E C -0.40611(17) -0.1399(4) -0.8605(4)
H8E H -0.4411 -0.1378 -0.8026
H9E H -0.4115 -0.0951 -0.9538
H10E H -0.3986 -0.2131 -0.8920
H11A H 0.0029 -0.1144 -0.3619
H12A H -0.0282 -0.1500 -0.2092
H13A H 0.0379 -0.1123 -0.1944
H14A H 0.0306 0.2678 -0.2596
H15A H -0.0143 0.2191 -0.1451
H16A H -0.0318 0.2294 -0.3283
O3E O -0.25275(12) -0.0370(2) -0.7694(3)
O3_2 O -0.25275(12) 0.0370(2) -1.2694(3)
C10E C -0.31538(17) -0.2809(4) -0.6362(4)
O4E O -0.31001(13) -0.3464(3) -0.5194(3)
O4C O -0.18999(13) -0.1536(3) -0.4806(3)
O4F O -0.18999(13) 0.1536(3) -0.9806(3)
O5E O -0.30133(12) -0.3023(2) -0.7759(3)
O5F O -0.19867(12) 0.1977(2) -0.7241(3)
O5C O -0.19867(12) -0.1977(2) -1.2241(3)
O6A O 0.12730(12) 0.0147(3) -0.2418(3)
O6E O -0.12730(12) -0.0147(3) -0.7582(3)
O6_2 O -0.12730(12) 0.0147(3) -1.2582(3)
C11A C 0.0801(11) 0.0357(11) -0.182(3)
C12A C 0.0835(11) 0.0731(11) -0.179(4)
O7E O -0.18349(14) -0.2159(3) -0.8698(3)
H17E H -0.2063(17) -0.227(3) -0.795(4)
H18E H -0.182(2) -0.276(2) -0.923(5)
loop_
_geom_bond_atom_site_label_1
_geom_bond_atom_site_label_2
_geom_bond_site_symmetry_1
_geom_bond_site_symmetry_2
La1 O1 1_555 1_555
O1 C2 1_555 1_555
O2 La1 1_555 1_555
C1 H1 1_555 1_555
C2 C4 1_555 1_555
C3 C1 1_555 1_555
H2 C3 1_555 1_555
H3 C3 1_555 1_555
H4 C3 1_555 1_555
C4 C1 1_555 1_555
H5 C4 1_555 1_555
C5 H6 1_555 1_555
H6 H7 1_555 1_555
C6 C5 1_555 1_555
H7 C5 1_555 1_555
C7 C4 1_555 1_555
H8 C7 1_555 1_555
H9 C7 1_555 1_555
H10 C7 1_555 1_555
C8 C6 1_555 1_555
H11 C8 1_555 1_555
H12 C8 1_555 1_555
H13 C8 1_555 1_555
C9 C5 1_555 1_555
H14 C9 1_555 1_555
H15 C9 1_555 1_555
H16 C9 1_555 1_555
O3 La1 1_555 1_555
C10 C1 1_555 1_555
O4 C10 1_555 1_555
O5 C10 1_555 1_555
O6 La1 1_555 1_555
C11 O2 1_555 1_555
C12 O2 1_555 1_555
O7 La1 1_555 1_555
H17 O7 1_555 1_555
H18 O7 1_555 1_555
La1E O1E 1_555 1_555
La1E_2 O3 1_555 1_555
La1C O4 1_555 1_555
La1F O5 1_555 1_555
La1A O2A 1_555 1_555
La1D O6A 1_555 1_555
La1F_2 O4E 1_555 1_555
La1C_2 O5E 1_555 1_555
O1E C2E 1_555 1_555
O2A C11A 1_555 1_555
O2E La1E 1_555 1_555
C1E H1E 1_555 1_555
C2E C4E 1_555 1_555
C3E C1E 1_555 1_555
H2E C3E 1_555 1_555
H3E C3E 1_555 1_555
H4E C3E 1_555 1_555
C4E C1E 1_555 1_555
H5E C4E 1_555 1_555
C5A C5 1_555 1_555
H6A C5A 1_555 1_555
C6A C5 1_555 1_555
H7A C5A 1_555 1_555
C7E C4E 1_555 1_555
H8E C7E 1_555 1_555
H9E C7E 1_555 1_555
H10E C7E 1_555 1_555
H11A C8 1_555 1_555
H12A C8 1_555 1_555
H13A C8 1_555 1_555
H14A C9 1_555 1_555
H15A C9 1_555 1_555
H16A C9 1_555 1_555
O3E La1 1_555 1_555
O3_2 La1E 1_555 1_555
C10E C1E 1_555 1_555
O4E C10E 1_555 1_555
O4C La1 1_555 1_555
O4F La1E 1_555 1_555
O5E C10E 1_555 1_555
O5F La1 1_555 1_555
O5C La1E 1_555 1_555
O6A La1A 1_555 1_555
O6E La1 1_555 1_555
O6_2 La1E 1_555 1_555
C11A C5A 1_555 1_555
C12A O2A 1_555 1_555
O7E La1E 1_555 1_555
H17E O7E 1_555 1_555
H18E O7E 1_555 1_555
C2 O3 1_555 1_555
C5 C11 1_555 1_555
C5 C12 1_555 1_555
C6 H7 1_555 1_555
C6 C11 1_555 1_555
C6 C12 1_555 1_555
C6 C5A 1_555 1_555
C6 C6A 1_555 1_555
C8 C6A 1_555 1_555
C9 C5A 1_555 1_555
O6 C11 1_555 1_555
O6 C12 1_555 1_555
O6 La1E_2 1_555 1_555
C11 C12 1_555 1_555
La1E O3E 1_555 1_555
La1E O6E 1_555 1_555
C2E O3E 1_555 1_555
C5A C6A 1_555 1_555
C5A C12A 1_555 1_555
H6A H7A 1_555 1_555
C6A H7A 1_555 1_555
C6A C11A 1_555 1_555
C6A C12A 1_555 1_555
O6A C11A 1_555 1_555
O6A C12A 1_555 1_555
C11A C12A 1_555 1_555

#END
