
#######################################################################
#
#                 Cambridge Crystallographic Data Centre
#                                CCDC 
#
#######################################################################
#
# If this CIF has been generated from an entry in the Cambridge 
# Structural Database, then it will include bibliographic, chemical, 
# crystal, experimental, refinement or atomic coordinate data resulting 
# from the CCDC's data processing and validation procedures.
#
#######################################################################

data_FIRMUQ
_chemical_formula_moiety         '(C26 H14 F4 N6 Ni1 O5)n'
_symmetry_cell_setting           trigonal
_symmetry_space_group_name_H-M   'P 31 2 1'
_symmetry_Int_Tables_number      152
_space_group_name_Hall           'P 31 2"'
loop_
_symmetry_equiv_pos_site_id
_symmetry_equiv_pos_as_xyz
1 x,y,z
2 -y,x-y,1/3+z
3 -x+y,-x,2/3+z
4 y,x,-z
5 -x,-x+y,1/3-z
6 x-y,-y,2/3-z
_cell_length_a                   15.1738(9)
_cell_length_b                   15.1738(9)
_cell_length_c                   18.859(3)
_cell_angle_alpha                90
_cell_angle_beta                 90
_cell_angle_gamma                120
_cell_volume                     3760.43
loop_
_atom_site_label
_atom_site_type_symbol
_atom_site_fract_x
_atom_site_fract_y
_atom_site_fract_z
Ni1 Ni 0.164823(18) 0.164823(18) 0.5000
C1 C 0.21127(14) 0.02470(15) 0.41012(10)
C2 C 0.29019(19) 0.0122(2) 0.37006(12)
C3 C 0.3767(2) 0.0238(2) 0.40417(14)
C4 C 0.4478(2) 0.0099(3) 0.37067(17)
C5 C 0.08216(15) 0.14934(14) 0.35281(10)
H1 H 0.0776 0.0859 0.3547
C6 C 0.05100(18) 0.17527(14) 0.29229(10)
H2 H 0.0250 0.1300 0.2545
C7 C 0.05870(16) 0.26928(14) 0.28824(9)
C8 C 0.09668(16) 0.33529(14) 0.34593(10)
H3 H 0.1025 0.3992 0.3447
C9 C 0.12567(15) 0.30150(14) 0.40556(10)
H4 H 0.1510 0.3446 0.4446
C10 C 0.02808(17) 0.30327(14) 0.22320(10)
C11 C -0.0000 0.41719(17) 0.1667
C12 C 0.03127(21) 0.66802(15) 0.22304(10)
H5 H 0.0526 0.7098 0.2629
C13 C 0.03338(21) 0.57778(15) 0.22494(9)
H6 H 0.0570 0.5600 0.2649
C14 C -0.00000(23) 0.51528(16) 0.1667
F1 F 0.38856(14) 0.04261(18) 0.47430(9)
F2 F 0.53106(18) 0.0228(3) 0.40383(12)
N1 N 0.11894(12) 0.21005(11) 0.40959(7)
N2 N 0.0000 0.24089(13) 0.1667
N3 N 0.02710(15) 0.39064(11) 0.22646(8)
N4 N -0.00000(17) 0.69702(12) 0.1667
O1 O 0.23960(9) 0.10880(9) 0.43814(6)
O2 O 0.12330(12) -0.05133(11) 0.41145(8)
O3 O 0.02734(11) 0.02734(11) 0.5000
C1E C 0.18657(21) -0.02470(15) 0.25655(10)
C2E C 0.27799(28) -0.0122(2) 0.29661(12)
C3E C 0.3529(3) -0.0238(2) 0.26250(14)
C4E C 0.4379(4) -0.0099(3) 0.29600(17)
F1E F 0.34595(23) -0.04261(18) 0.19237(9)
F2E F 0.50826(35) -0.0228(3) 0.26284(12)
O1E O 0.13080(13) -0.10880(9) 0.22853(6)
O2E O 0.17463(16) 0.05133(11) 0.25522(8)
C5D C -0.08216(15) 0.06718(21) -0.01948(10)
H1D H -0.0776 0.0083 -0.0214
C6D C -0.05100(18) 0.12427(23) 0.04104(10)
H2D H -0.0250 0.1050 0.0788
C7D C -0.05870(16) 0.21058(21) 0.04509(9)
C8D C -0.09668(16) 0.23861(21) -0.01260(10)
H3D H -0.1025 0.2967 -0.0114
C9D C -0.12567(15) 0.17583(21) -0.07223(10)
H4D H -0.1510 0.1936 -0.1113
C10D C -0.02808(17) 0.27519(22) 0.11013(10)
N1D N -0.11894(12) 0.09111(16) -0.07626(7)
N3D N -0.02710(15) 0.36354(19) 0.10687(8)
C12D C -0.03127(21) 0.63675(26) 0.11029(10)
H5D H -0.0526 0.6572 0.0704
C13D C -0.03338(21) 0.54440(26) 0.10839(9)
H6D H -0.0570 0.5030 0.0684
Ni1A Ni -0.164823(18) 0.000000(25) -0.1667
Ni1B Ni 0.000000(25) -0.164823(18) 0.1667
Ni1B_2 Ni -0.000000(25) 0.835177(18) 0.1667
N1C N 0.21005(11) 0.11894(12) 0.59041(7)
N4A N 0.30298(12) 0.30298(21) 0.5000
O1C O 0.10880(9) 0.23960(9) 0.56186(6)
loop_
_geom_bond_atom_site_label_1
_geom_bond_atom_site_label_2
_geom_bond_site_symmetry_1
_geom_bond_site_symmetry_2
Ni1 N1 1_555 1_555
C1 C2 1_555 1_555
C2 C3 1_555 1_555
C3 C4 1_555 1_555
C4 F2 1_555 1_555
C5 H1 1_555 1_555
C6 C5 1_555 1_555
H2 C6 1_555 1_555
C7 C6 1_555 1_555
C8 C7 1_555 1_555
H3 C8 1_555 1_555
C9 C8 1_555 1_555
H4 C9 1_555 1_555
C10 C7 1_555 1_555
C11 C14 1_555 1_555
C12 H5 1_555 1_555
C13 C12 1_555 1_555
H6 C13 1_555 1_555
C14 C13 1_555 1_555
F1 C3 1_555 1_555
N1 C5 1_555 1_555
N2 C10 1_555 1_555
N3 C10 1_555 1_555
N4 C12 1_555 1_555
O1 Ni1 1_555 1_555
O2 C1 1_555 1_555
O3 Ni1 1_555 1_555
C1E C2E 1_555 1_555
C2E C2 1_555 1_555
C3E C2E 1_555 1_555
C4E C4 1_555 1_555
F1E C3E 1_555 1_555
F2E C4E 1_555 1_555
O1E C1E 1_555 1_555
O2E C1E 1_555 1_555
C5D H1D 1_555 1_555
C6D C5D 1_555 1_555
H2D C6D 1_555 1_555
C7D C6D 1_555 1_555
C8D C7D 1_555 1_555
H3D C8D 1_555 1_555
C9D C8D 1_555 1_555
H4D C9D 1_555 1_555
C10D N2 1_555 1_555
N1D C5D 1_555 1_555
N3D C11 1_555 1_555
C12D N4 1_555 1_555
H5D C12D 1_555 1_555
C13D C14 1_555 1_555
H6D C13D 1_555 1_555
Ni1A N1D 1_555 1_555
Ni1B O1E 1_555 1_555
Ni1B_2 N4 1_555 1_555
N1C Ni1 1_555 1_555
N4A Ni1 1_555 1_555
O1C Ni1 1_555 1_555
C1 O1 1_555 1_555
C9 N1 1_555 1_555
C11 N3 1_555 1_555
C3E C4E 1_555 1_555
C7D C10D 1_555 1_555
C9D N1D 1_555 1_555
C10D N3D 1_555 1_555
C12D C13D 1_555 1_555

#END
