
#######################################################################
#
#                 Cambridge Crystallographic Data Centre
#                                CCDC 
#
#######################################################################
#
# If this CIF has been generated from an entry in the Cambridge 
# Structural Database, then it will include bibliographic, chemical, 
# crystal, experimental, refinement or atomic coordinate data resulting 
# from the CCDC's data processing and validation procedures.
#
#######################################################################

data_FIRNIF
_chemical_formula_moiety         '(C26 H16 F2 N6 Ni1 O5)n'
_symmetry_cell_setting           trigonal
_symmetry_space_group_name_H-M   'P 32 2 1'
_symmetry_Int_Tables_number      154
_space_group_name_Hall           'P 32 2"'
loop_
_symmetry_equiv_pos_site_id
_symmetry_equiv_pos_as_xyz
1 x,y,z
2 -y,x-y,2/3+z
3 -x+y,-x,1/3+z
4 y,x,-z
5 -x,-x+y,2/3-z
6 x-y,-y,1/3-z
_cell_length_a                   15.688(2)
_cell_length_b                   15.688(2)
_cell_length_c                   18.678(4)
_cell_angle_alpha                90
_cell_angle_beta                 90
_cell_angle_gamma                120
_cell_volume                     3981.04
loop_
_atom_site_label
_atom_site_type_symbol
_atom_site_fract_x
_atom_site_fract_y
_atom_site_fract_z
Ni1 Ni 1.0000 0.82365(3) 0.8333
C1 C 0.8238(3) 0.6958(3) 0.73960(19)
H1 H 0.8050 0.6564 0.7803
C2 C 0.7602(3) 0.6637(3) 0.68078(18)
H2 H 0.7009 0.6045 0.6820
C3 C 0.7882(3) 0.7228(3) 0.62104(17)
C4 C 0.8771(3) 0.8094(3) 0.6218(2)
H3 H 0.8974 0.8504 0.5819
C5 C 0.9357(3) 0.8350(3) 0.68204(18)
H4 H 0.9959 0.8933 0.6818
C6 C 0.7237(3) 0.6910(3) 0.55625(17)
C7 C 0.5839(3) 0.5839(3) 0.5000
C8 C 0.3731(3) 0.3372(5) 0.5538(2)
H5 H 0.3556 0.2945 0.5926
C9 C 0.4633(3) 0.4240(5) 0.5573(2)
H6 H 0.5048 0.4379 0.5965
C10 C 0.4897(3) 0.4897(3) 0.5000
C11 C 0.8246(3) 0.7888(3) 0.9230(2)
C12 C 0.7359(3) 0.7142(3) 0.9653(3)
C13 C 0.6682(4) 0.6285(4) 0.9280(3)
H7 H 0.6818 0.6155 0.8821
C14 C 0.5803(6) 0.5641(6) 0.9625(5)
F1 F 0.5167(8) 0.4775(9) 0.9345(7)
N1 N 0.9090(2) 0.7788(2) 0.74059(14)
N2 N 0.6388(2) 0.6054(2) 0.55917(15)
N3 N 0.7537(3) 0.7537(3) 0.5000
N4 N 0.3102(2) 0.3102(2) 0.5000
O1 O 1.0000 0.9573(2) 0.8333
O2 O 0.87462(17) 0.75544(17) 0.89647(11)
O3 O 0.8412(3) 0.8740(3) 0.9183(2)
C1C C 0.6958(3) 0.8238(3) 0.26040(19)
H1C H 0.6564 0.8050 0.2197
C2C C 0.6637(3) 0.7602(3) 0.31922(18)
H2C H 0.6045 0.7009 0.3180
C3C C 0.7228(3) 0.7882(3) 0.37896(17)
C4C C 0.8094(3) 0.8771(3) 0.3782(2)
H3C H 0.8504 0.8974 0.4181
C5C C 0.8350(3) 0.9357(3) 0.31796(18)
H4C H 0.8933 0.9959 0.3182
C6C C 0.6910(3) 0.7237(3) 0.44375(17)
N1C N 0.7788(2) 0.9090(2) 0.25941(14)
N2C N 0.6054(2) 0.6388(2) 0.44083(15)
C8C C 0.3372(5) 0.3731(3) 0.4462(2)
H5C H 0.2945 0.3556 0.4074
C9C C 0.4240(5) 0.4633(3) 0.4427(2)
H6C H 0.4379 0.5048 0.4035
C11C C 0.7888(3) 0.8246(3) 1.0770(2)
C12C C 0.7142(3) 0.7359(3) 1.0347(3)
C13C C 0.6285(4) 0.6682(4) 1.0720(3)
H7C H 0.6155 0.6818 1.1179
C14C C 0.5641(6) 0.5803(6) 1.0375(5)
F1C F 0.4775(9) 0.5167(8) 1.0655(7)
O2C O 0.75544(17) 0.87462(17) 1.10353(11)
O3C O 0.8740(3) 0.8412(3) 1.0817(2)
Ni1A Ni 0.17635(3) 0.17635(3) 0.5000
Ni1B Ni 0.82365(3) 1.0000 0.1666
Ni1B_2 Ni 0.82365(3) 1.0000 1.1666
N1D N 1.0910(2) 0.8698(3) 0.92608(14)
N4B N 1.0000(3) 0.6898(2) 0.8333
O2D O 1.12538(17) 0.88082(24) 0.77020(11)
loop_
_geom_bond_atom_site_label_1
_geom_bond_atom_site_label_2
_geom_bond_site_symmetry_1
_geom_bond_site_symmetry_2
Ni1 N1 1_555 1_555
C1 H1 1_555 1_555
C2 C1 1_555 1_555
H2 C2 1_555 1_555
C3 C2 1_555 1_555
C4 C3 1_555 1_555
H3 C4 1_555 1_555
C5 C4 1_555 1_555
H4 C5 1_555 1_555
C6 C3 1_555 1_555
C7 C10 1_555 1_555
C8 H5 1_555 1_555
C9 C8 1_555 1_555
H6 C9 1_555 1_555
C10 C9 1_555 1_555
C11 C12 1_555 1_555
C12 C13 1_555 1_555
C13 H7 1_555 1_555
C14 C13 1_555 1_555
F1 C14 1_555 1_555
N1 C1 1_555 1_555
N2 C6 1_555 1_555
N3 C6 1_555 1_555
N4 C8 1_555 1_555
O1 Ni1 1_555 1_555
O2 Ni1 1_555 1_555
O3 C11 1_555 1_555
C1C H1C 1_555 1_555
C2C C1C 1_555 1_555
H2C C2C 1_555 1_555
C3C C2C 1_555 1_555
C4C C3C 1_555 1_555
H3C C4C 1_555 1_555
C5C C4C 1_555 1_555
H4C C5C 1_555 1_555
C6C N3 1_555 1_555
N1C C1C 1_555 1_555
N2C C7 1_555 1_555
C8C N4 1_555 1_555
H5C C8C 1_555 1_555
C9C C10 1_555 1_555
H6C C9C 1_555 1_555
C11C C12C 1_555 1_555
C12C C12 1_555 1_555
C13C C12C 1_555 1_555
H7C C13C 1_555 1_555
C14C C14 1_555 1_555
F1C C14C 1_555 1_555
O2C C11C 1_555 1_555
O3C C11C 1_555 1_555
Ni1A N4 1_555 1_555
Ni1B N1C 1_555 1_555
Ni1B_2 O2C 1_555 1_555
N1D Ni1 1_555 1_555
N4B Ni1 1_555 1_555
O2D Ni1 1_555 1_555
C5 N1 1_555 1_555
C7 N2 1_555 1_555
C11 O2 1_555 1_555
C3C C6C 1_555 1_555
C5C N1C 1_555 1_555
C6C N2C 1_555 1_555
C8C C9C 1_555 1_555
C13C C14C 1_555 1_555

#END
