
#######################################################################
#
#                 Cambridge Crystallographic Data Centre
#                                CCDC 
#
#######################################################################
#
# If this CIF has been generated from an entry in the Cambridge 
# Structural Database, then it will include bibliographic, chemical, 
# crystal, experimental, refinement or atomic coordinate data resulting 
# from the CCDC's data processing and validation procedures.
#
#######################################################################

data_AGONAM
_chemical_formula_moiety         '(C34 H22 Cd2 N4 O16)n'
_symmetry_cell_setting           monoclinic
_symmetry_space_group_name_H-M   'P 21/n'
_symmetry_Int_Tables_number      14
_space_group_name_Hall           '-P 2yn'
loop_
_symmetry_equiv_pos_site_id
_symmetry_equiv_pos_as_xyz
1 x,y,z
2 1/2-x,1/2+y,1/2-z
3 -x,-y,-z
4 1/2+x,1/2-y,1/2+z
_cell_length_a                   7.9105(19)
_cell_length_b                   11.128(3)
_cell_length_c                   19.441(5)
_cell_angle_alpha                90
_cell_angle_beta                 101.061(2)
_cell_angle_gamma                90
_cell_volume                     1679.56
loop_
_atom_site_label
_atom_site_type_symbol
_atom_site_fract_x
_atom_site_fract_y
_atom_site_fract_z
Cd1 Cd 0.85245(2) -0.003724(16) 0.076975(9)
O1 O 0.9434(2) 0.17124(18) 0.13962(10)
O2 O 1.0237(3) 0.00053(17) 0.19297(11)
O3 O 1.3633(3) 0.1071(2) 0.18364(10)
H1 H 1.4393 0.0705 0.1690
O4 O 1.5464(3) 0.0918(3) 0.28457(13)
O5 O 1.4557(2) 0.38465(18) 0.46630(10)
O6 O 1.1915(2) 0.41011(19) 0.48444(10)
O7 O 0.9059(3) 0.49249(16) 0.36990(11)
O8 O 0.8112(2) 0.32722(18) 0.41170(11)
C1 C 1.0985(3) 0.1818(2) 0.25680(13)
C2 C 1.2761(3) 0.1832(2) 0.28474(13)
C3 C 1.3347(3) 0.2464(2) 0.34608(13)
H2 H 1.4521 0.2471 0.3648
C4 C 1.2235(3) 0.3088(2) 0.38044(13)
C5 C 1.0469(3) 0.3084(2) 0.35220(13)
C6 C 0.9865(3) 0.2441(2) 0.29139(13)
H3 H 0.8689 0.2424 0.2733
C7 C 1.0193(3) 0.1116(2) 0.19232(13)
C8 C 1.4086(3) 0.1216(3) 0.25153(14)
C9 C 1.2955(3) 0.3732(2) 0.44754(13)
C10 C 0.9154(3) 0.3808(2) 0.38145(12)
Cd1A Cd 1.64755(2) -0.503724(16) 0.423025(9)
Cd1A_2 Cd 1.64755(2) 0.496276(16) 0.423025(9)
Cd1C Cd 1.35245(2) 0.503724(16) 0.576975(9)
Cd1A_3 Cd 0.64755(2) 0.496276(16) 0.423025(9)
Cd1B Cd 1.14755(2) 0.003724(16) -0.076975(9)
Cd1_2 Cd 1.85245(2) -0.003724(16) 0.076975(9)
O1A O 1.5566(2) -0.32876(18) 0.36038(10)
O2A O 1.4763(3) -0.49947(17) 0.30703(11)
O3A O 1.1367(3) -0.3929(2) 0.31636(10)
H1A H 1.0607 -0.4295 0.3310
O4A O 0.9536(3) -0.4082(3) 0.21543(13)
O5A O 1.0443(2) -0.11535(18) 0.03370(10)
O5_2 O 1.4557(2) -0.61535(18) 0.46630(10)
O6A O 1.3085(2) -0.08989(19) 0.01556(10)
O6C O 0.6915(2) 0.08989(19) -0.01556(10)
O6B O 1.8085(2) -0.41011(19) 0.51556(10)
O7A O 1.5941(3) -0.00751(16) 0.13010(11)
O7A_2 O 0.5941(3) -0.00751(16) 0.13010(11)
O7_2 O 1.9059(3) -0.50751(16) 0.36990(11)
O8A O 1.6888(2) -0.17278(18) 0.08830(11)
O8A_2 O 0.6888(2) -0.17278(18) 0.08830(11)
O8_2 O 1.8112(2) -0.67278(18) 0.41170(11)
C1A C 1.4015(3) -0.3182(2) 0.24320(13)
C2A C 1.2239(3) -0.3168(2) 0.21526(13)
C3A C 1.1653(3) -0.2536(2) 0.15392(13)
H2A H 1.0479 -0.2529 0.1352
C4A C 1.2765(3) -0.1912(2) 0.11956(13)
C5A C 1.4531(3) -0.1916(2) 0.14780(13)
C6A C 1.5135(3) -0.2559(2) 0.20861(13)
H3A H 1.6311 -0.2576 0.2267
C7A C 1.4807(3) -0.3884(2) 0.30768(13)
C8A C 1.0914(3) -0.3784(3) 0.24847(14)
C9A C 1.2045(3) -0.1268(2) 0.05246(13)
C10A C 1.5846(3) -0.1192(2) 0.11855(12)
N1 N 0.6113(5) 0.4073(4) 0.1619(3)
H4 H 0.6745 0.4496 0.1939
N2 N 0.3922(3) 0.3336(2) 0.08808(13)
C11 C 0.6650(3) 0.3196(3) 0.12372(17)
H5 H 0.7785 0.2944 0.1277
C12 C 0.5331(4) 0.2753(3) 0.08015(17)
H6 H 0.5376 0.2129 0.0487
C13 C 0.4389(5) 0.4161(4) 0.1403(2)
H7 H 0.3658 0.4685 0.1578
C14 C 0.2168(4) 0.2984(3) 0.05386(18)
H8 H 0.1628 0.2556 0.0874
H9 H 0.2238 0.2439 0.0155
C15 C 0.1063(4) 0.4041(3) 0.02593(16)
C16 C 0.0022(4) 0.4587(3) 0.06690(17)
H10 H 0.0040 0.4312 0.1122
C17 C 0.1041(4) 0.4464(3) -0.04098(17)
H11 H 0.1740 0.4111 -0.0687
N1B N -0.6113(5) 0.5927(4) -0.1619(3)
H4B H -0.6745 0.5504 -0.1939
N2B N -0.3922(3) 0.6664(2) -0.08808(13)
C11B C -0.6650(3) 0.6804(3) -0.12372(17)
H5B H -0.7785 0.7056 -0.1277
C12B C -0.5331(4) 0.7247(3) -0.08015(17)
H6B H -0.5376 0.7871 -0.0487
C13B C -0.4389(5) 0.5839(4) -0.1403(2)
H7B H -0.3658 0.5315 -0.1578
C14B C -0.2168(4) 0.7016(3) -0.05386(18)
H8B H -0.1628 0.7444 -0.0874
H9B H -0.2238 0.7561 -0.0155
C15B C -0.1063(4) 0.5959(3) -0.02593(16)
C16B C -0.0022(4) 0.5413(3) -0.06690(17)
H10B H -0.0040 0.5688 -0.1122
C17B C -0.1041(4) 0.5536(3) 0.04098(17)
H11B H -0.1740 0.5889 0.0687
loop_
_geom_bond_atom_site_label_1
_geom_bond_atom_site_label_2
_geom_bond_site_symmetry_1
_geom_bond_site_symmetry_2
Cd1 O1 1_555 1_555
O1 C7 1_555 1_555
O2 Cd1 1_555 1_555
O3 H1 1_555 1_555
O4 C8 1_555 1_555
O5 C9 1_555 1_555
O6 C9 1_555 1_555
O7 C10 1_555 1_555
O8 C10 1_555 1_555
C1 C2 1_555 1_555
C2 C3 1_555 1_555
C3 H2 1_555 1_555
C4 C3 1_555 1_555
C5 C4 1_555 1_555
C6 C1 1_555 1_555
H3 C6 1_555 1_555
C7 O2 1_555 1_555
C8 O3 1_555 1_555
C9 C4 1_555 1_555
C10 C5 1_555 1_555
N1 H4 1_555 1_555
N2 C12 1_555 1_555
C11 N1 1_555 1_555
H5 C11 1_555 1_555
C12 C11 1_555 1_555
H6 C12 1_555 1_555
C13 N1 1_555 1_555
H7 C13 1_555 1_555
C14 N2 1_555 1_555
H8 C14 1_555 1_555
H9 C14 1_555 1_555
C15 C14 1_555 1_555
C16 C15 1_555 1_555
H10 C16 1_555 1_555
C17 C15 1_555 1_555
H11 C17 1_555 1_555
Cd1A O1A 1_555 1_555
Cd1A_2 O5 1_555 1_555
Cd1C O6 1_555 1_555
Cd1A_3 O7 1_555 1_555
Cd1B O6A 1_555 1_555
Cd1_2 O7A 1_555 1_555
O1A C7A 1_555 1_555
O2A Cd1A 1_555 1_555
O3A H1A 1_555 1_555
O4A C8A 1_555 1_555
O5A Cd1 1_555 1_555
O5_2 Cd1A 1_555 1_555
O6A C9A 1_555 1_555
O6C Cd1 1_555 1_555
O6B Cd1A 1_555 1_555
O7A C10A 1_555 1_555
O7A_2 Cd1 1_555 1_555
O7_2 Cd1A 1_555 1_555
O8A Cd1_2 1_555 1_555
O8A_2 Cd1 1_555 1_555
O8_2 Cd1A 1_555 1_555
C1A C2A 1_555 1_555
C2A C3A 1_555 1_555
C3A H2A 1_555 1_555
C4A C3A 1_555 1_555
C5A C4A 1_555 1_555
C6A C1A 1_555 1_555
H3A C6A 1_555 1_555
C7A O2A 1_555 1_555
C8A O3A 1_555 1_555
C9A O5A 1_555 1_555
C10A O8A 1_555 1_555
N1B H4B 1_555 1_555
N2B C12B 1_555 1_555
C11B N1B 1_555 1_555
H5B C11B 1_555 1_555
C12B C11B 1_555 1_555
H6B C12B 1_555 1_555
C13B N1B 1_555 1_555
H7B C13B 1_555 1_555
C14B N2B 1_555 1_555
H8B C14B 1_555 1_555
H9B C14B 1_555 1_555
C15B C14B 1_555 1_555
C16B C17 1_555 1_555
H10B C16B 1_555 1_555
C17B C16 1_555 1_555
H11B C17B 1_555 1_555
O8 Cd1A_3 1_555 1_555
C1 C7 1_555 1_555
C2 C8 1_555 1_555
C5 C6 1_555 1_555
N2 C13 1_555 1_555
C1A C7A 1_555 1_555
C2A C8A 1_555 1_555
C4A C9A 1_555 1_555
C5A C6A 1_555 1_555
C5A C10A 1_555 1_555
N2B C13B 1_555 1_555
C15B C16B 1_555 1_555
C15B C17B 1_555 1_555

#END
