
#######################################################################
#
#                 Cambridge Crystallographic Data Centre
#                                CCDC 
#
#######################################################################
#
# If this CIF has been generated from an entry in the Cambridge 
# Structural Database, then it will include bibliographic, chemical, 
# crystal, experimental, refinement or atomic coordinate data resulting 
# from the CCDC's data processing and validation procedures.
#
#######################################################################

data_AGONEQ
_chemical_formula_moiety         '(C24 H18 Cd1 N4 O8)n'
_symmetry_cell_setting           orthorhombic
_symmetry_space_group_name_H-M   'P n a 21'
_symmetry_Int_Tables_number      33
_space_group_name_Hall           'P 2c -2n'
loop_
_symmetry_equiv_pos_site_id
_symmetry_equiv_pos_as_xyz
1 x,y,z
2 -x,-y,1/2+z
3 1/2+x,1/2-y,z
4 1/2-x,1/2+y,1/2+z
_cell_length_a                   12.9012(7)
_cell_length_b                   14.5816(10)
_cell_length_c                   11.8243(7)
_cell_angle_alpha                90
_cell_angle_beta                 90
_cell_angle_gamma                90
_cell_volume                     2224.39
loop_
_atom_site_label
_atom_site_type_symbol
_atom_site_fract_x
_atom_site_fract_y
_atom_site_fract_z
_atom_site_U_iso_or_equiv
_atom_site_thermal_displace_type
Cd1 Cd 0.502111(8) 0.254945(6) 0.02373(8) 0.0158 Uani
O1 O 0.47946(12) 0.11477(14) 0.1473(2) 0.0485 Uani
O2 O 0.34461(11) 0.19532(9) 0.09262(13) 0.0283 Uani
O3 O 0.14152(11) 0.10304(10) 0.02362(15) 0.0336 Uani
O4 O 0.08693(10) 0.18534(9) 0.16975(13) 0.0260 Uani
O5 O 0.08996(10) -0.18300(10) 0.37887(13) 0.0274 Uani
O6 O 0.11338(12) -0.08775(10) 0.52128(16) 0.0399 Uani
O7 O 0.32280(13) -0.18512(13) 0.47549(18) 0.0551 Uani
O8 O 0.46345(13) -0.13755(14) 0.39528(15) 0.0497 Uani
C1 C 0.38419(14) 0.12831(13) 0.14417(16) 0.0210 Uani
C2 C 0.31464(14) 0.06356(12) 0.20828(16) 0.0183 Uani
C3 C 0.20615(14) 0.06609(13) 0.20585(16) 0.0185 Uani
C4 C 0.14228(13) 0.12301(13) 0.12502(16) 0.0197 Uani
C5 C 0.15083(13) 0.00822(14) 0.2781(2) 0.0217 Uani
C6 C 0.19942(14) -0.05536(13) 0.34840(16) 0.0193 Uani
C7 C 0.13049(14) -0.11369(14) 0.42354(17) 0.0225 Uani
C8 C 0.30767(14) -0.06185(13) 0.34497(16) 0.0183 Uani
C9 C 0.36738(15) -0.13238(13) 0.41087(17) 0.0222 Uani
C10 C 0.36262(12) -0.00104(14) 0.2770(2) 0.0194 Uani
H1 H 0.4371(14) -0.0073(13) 0.279(2) 0.0110 Uiso
H2 H 0.0723(16) 0.0119(14) 0.281(2) 0.0200 Uiso
Cd1B Cd 0.002111(8) 0.245055(6) 0.02373(8) 0.0158 Uani
Cd1C Cd -0.002111(8) -0.245055(6) 0.52373(8) 0.0158 Uani
Cd1A Cd 0.497889(8) -0.254945(6) 0.52373(8) 0.0158 Uani
O4B O 0.58693(10) 0.31466(9) 0.16975(13) 0.0260 Uani
O5C O 0.41004(10) 0.31700(10) -0.12113(13) 0.0274 Uani
O7A O 0.67720(13) 0.18512(13) -0.02451(18) 0.0551 Uani
O8A O 0.53655(13) 0.13755(14) -0.10472(15) 0.0497 Uani
N1 N 0.77290(16) 0.16397(14) -0.77116(19) 0.0393 Uani
N2 N 0.71419(16) 0.10006(12) -0.62121(15) 0.0320 Uani
N3 N 0.70949(13) 0.37324(12) -0.28067(15) 0.0308 Uani
N4 N 0.86929(16) 0.38661(14) -0.23618(18) 0.0392 Uani
C11 C 0.8519(2) 0.11368(17) -0.7273(2) 0.0414 Uani
C12 C 0.8157(2) 0.07287(16) -0.63366(19) 0.0379 Uani
C13 C 0.6900(2) 0.15512(17) -0.7068(2) 0.0384 Uani
C14 C 0.6440(2) 0.07257(16) -0.5285(2) 0.0429 Uani
C15 C 0.58092(17) 0.15264(14) -0.48598(19) 0.0350 Uani
C16 C 0.4831(2) 0.1684(2) -0.5294(2) 0.0466 Uani
C17 C 0.4249(2) 0.24194(19) -0.4917(3) 0.0511 Uani
C18 C 0.4644(2) 0.30051(19) -0.4129(2) 0.0441 Uani
C19 C 0.56251(16) 0.28635(16) -0.36730(19) 0.0342 Uani
C20 C 0.62040(17) 0.21182(16) -0.4044(2) 0.0348 Uani
C21 C 0.59957(19) 0.3487(2) -0.2740(3) 0.0477 Uani
C22 C 0.75280(16) 0.43529(17) -0.3553(2) 0.0337 Uani
C23 C 0.85324(18) 0.44292(16) -0.3268(2) 0.0377 Uani
C24 C 0.7819(2) 0.34578(16) -0.2087(2) 0.0371 Uani
H3 H 0.776(2) 0.3085(18) -0.158(2) 0.0360 Uiso
H4 H 0.919(2) 0.3759(18) -0.209(2) 0.0460 Uiso
H5 H 0.915(2) 0.1147(18) -0.753(2) 0.0490 Uiso
H6 H 0.4265(18) 0.3549(17) -0.384(2) 0.0380 Uiso
H7 H 0.774(2) 0.192(2) -0.832(3) 0.0540 Uiso
H8 H 0.595(2) 0.019(2) -0.555(3) 0.0650 Uiso
H9 H 0.626(2) 0.1843(18) -0.715(2) 0.0500 Uiso
H10 H 0.685(2) 0.1981(17) -0.373(2) 0.0420 Uiso
H11 H 0.904(2) 0.479(2) -0.351(3) 0.0650 Uiso
H12 H 0.457(2) 0.126(2) -0.579(3) 0.0620 Uiso
H13 H 0.7108(19) 0.4656(17) -0.411(2) 0.0330 Uiso
H14 H 0.687(2) 0.0481(19) -0.465(3) 0.0500 Uiso
H15 H 0.591(3) 0.325(2) -0.203(3) 0.0720 Uiso
H16 H 0.362(2) 0.2513(18) -0.524(3) 0.0550 Uiso
H17 H 0.843(2) 0.0379(19) -0.579(2) 0.0510 Uiso
H18 H 0.566(2) 0.406(2) -0.290(3) 0.0700 Uiso
loop_
_atom_site_aniso_label
_atom_site_aniso_U_11
_atom_site_aniso_U_22
_atom_site_aniso_U_33
_atom_site_aniso_U_23
_atom_site_aniso_U_13
_atom_site_aniso_U_12
Cd1 0.01503(6) 0.01592(7) 0.01652(7) -0.00144(12) -0.00024(5) -0.00013(5)
O1 0.0202(7) 0.0496(11) 0.0757(13) 0.0336(10) 0.0057(8) -0.0017(7)
O2 0.0286(7) 0.0211(7) 0.0352(7) 0.0110(6) 0.0066(6) 0.0032(5)
O3 0.0396(8) 0.0382(7) 0.0229(7) 0.0009(8) -0.0053(7) 0.0040(6)
O4 0.0250(7) 0.0235(7) 0.0296(7) 0.0045(6) -0.0036(6) 0.0066(5)
O5 0.0243(7) 0.0247(7) 0.0331(8) 0.0042(6) 0.0011(6) -0.0069(6)
O6 0.0483(8) 0.0485(9) 0.0230(7) -0.0005(9) 0.0073(8) -0.0170(7)
O7 0.0302(8) 0.0538(11) 0.0813(14) 0.0483(10) -0.0139(8) -0.0092(7)
O8 0.0314(9) 0.0671(13) 0.0506(11) 0.0372(10) 0.0148(8) 0.0278(9)
C1 0.0205(9) 0.0206(9) 0.0219(9) 0.0024(8) 0.0013(7) -0.0038(7)
C2 0.0190(9) 0.0154(8) 0.0205(9) 0.0024(7) 0.0002(7) -0.0005(7)
C3 0.0186(9) 0.0166(8) 0.0204(9) 0.0021(7) 0.0002(7) -0.0002(7)
C4 0.0151(8) 0.0185(9) 0.0256(10) 0.0079(8) -0.0032(7) -0.0023(6)
C5 0.0142(7) 0.0250(9) 0.0260(8) 0.0073(7) -0.0010(8) 0.0003(7)
C6 0.0182(9) 0.0185(9) 0.0211(9) 0.0041(7) 0.0003(7) -0.0036(7)
C7 0.0157(9) 0.0259(10) 0.0258(10) 0.0093(8) -0.0023(7) -0.0007(7)
C8 0.0175(8) 0.0165(9) 0.0209(9) 0.0028(7) -0.0031(7) -0.0001(7)
C9 0.0243(10) 0.0175(9) 0.0249(9) 0.0021(8) -0.0055(8) 0.0025(7)
C10 0.0143(7) 0.0192(7) 0.0246(7) 0.0025(6) 0.0000(8) -0.0006(7)
Cd1B 0.01503 0.01592 0.01652 0.00144 -0.00024 0.00013
Cd1C 0.01503 0.01592 0.01652 -0.00144 0.00024 0.00013
Cd1A 0.01503 0.01592 0.01652 0.00144 0.00024 -0.00013
O4B 0.025 0.0235 0.0296 -0.0045 -0.0036 -0.0066
O5C 0.0243 0.0247 0.0331 0.0042 -0.0011 0.0069
O7A 0.0302 0.0538 0.0813 -0.0483 0.0139 -0.0092
O8A 0.0314 0.0671 0.0506 -0.0372 -0.0148 0.0278
N1 0.0432(11) 0.0422(12) 0.0324(11) 0.0145(10) 0.0087(9) 0.0057(9)
N2 0.0425(10) 0.0270(9) 0.0265(8) 0.0051(7) 0.0052(8) 0.0004(8)
N3 0.0259(9) 0.0330(9) 0.0335(9) -0.0019(8) 0.0009(7) 0.0001(7)
N4 0.0284(10) 0.0432(11) 0.0460(11) -0.0010(9) -0.0136(9) 0.0035(8)
C11 0.0379(13) 0.0446(13) 0.0418(12) 0.0042(11) 0.0042(10) 0.0036(10)
C12 0.0461(13) 0.0378(13) 0.0297(11) 0.0033(10) -0.0023(10) 0.0100(10)
C13 0.0391(13) 0.0407(12) 0.0355(12) 0.0139(11) 0.0045(10) 0.0067(10)
C14 0.0611(16) 0.0327(13) 0.0349(12) 0.0069(10) 0.0158(12) -0.0006(11)
C15 0.0425(11) 0.0333(10) 0.0293(10) 0.0038(10) 0.0091(10) -0.0060(8)
C16 0.0507(15) 0.0502(16) 0.0390(14) -0.0068(13) -0.0022(11) -0.0108(12)
C17 0.0362(13) 0.0628(17) 0.0542(17) -0.0010(14) -0.0143(14) 0.0005(10)
C18 0.0342(12) 0.0469(15) 0.0512(15) -0.0016(12) -0.0007(11) 0.0058(11)
C19 0.0271(10) 0.0402(12) 0.0352(11) -0.0032(10) 0.0065(9) -0.0060(9)
C20 0.0272(10) 0.0427(13) 0.0345(11) 0.0014(10) 0.0057(9) -0.0017(9)
C21 0.0297(12) 0.0603(17) 0.0530(16) -0.0181(14) 0.0089(11) -0.0082(11)
C22 0.0337(12) 0.0367(13) 0.0307(12) 0.0062(10) -0.0025(8) 0.0049(8)
C23 0.0342(12) 0.0373(12) 0.0416(12) 0.0015(11) 0.0039(10) -0.0040(10)
C24 0.0452(14) 0.0297(11) 0.0364(12) 0.0085(11) -0.0046(11) 0.0030(10)
loop_
_geom_bond_atom_site_label_1
_geom_bond_atom_site_label_2
_geom_bond_site_symmetry_1
_geom_bond_site_symmetry_2
Cd1 O1 1_555 1_555
O1 C1 1_555 1_555
O2 Cd1 1_555 1_555
O3 C4 1_555 1_555
O4 C4 1_555 1_555
O5 C7 1_555 1_555
O6 C7 1_555 1_555
O7 C9 1_555 1_555
O8 C9 1_555 1_555
C1 O2 1_555 1_555
C2 C1 1_555 1_555
C3 C2 1_555 1_555
C4 C3 1_555 1_555
C5 C3 1_555 1_555
C6 C5 1_555 1_555
C7 C6 1_555 1_555
C8 C6 1_555 1_555
C9 C8 1_555 1_555
C10 C2 1_555 1_555
H1 C10 1_555 1_555
H2 C5 1_555 1_555
N1 C11 1_555 1_555
N2 C12 1_555 1_555
N3 C21 1_555 1_555
N4 C23 1_555 1_555
C11 C12 1_555 1_555
C12 H17 1_555 1_555
C13 N1 1_555 1_555
C14 N2 1_555 1_555
C15 C14 1_555 1_555
C16 C15 1_555 1_555
C17 C16 1_555 1_555
C18 C17 1_555 1_555
C19 C18 1_555 1_555
C20 C15 1_555 1_555
C21 C19 1_555 1_555
C22 N3 1_555 1_555
C23 C22 1_555 1_555
C24 N3 1_555 1_555
H3 C24 1_555 1_555
H4 N4 1_555 1_555
H5 C11 1_555 1_555
H6 C18 1_555 1_555
H7 N1 1_555 1_555
H8 C14 1_555 1_555
H9 C13 1_555 1_555
H10 C20 1_555 1_555
H11 C23 1_555 1_555
H12 C16 1_555 1_555
H13 C22 1_555 1_555
H14 C14 1_555 1_555
H15 C21 1_555 1_555
H16 C17 1_555 1_555
H18 C21 1_555 1_555
Cd1B O4 1_555 1_555
Cd1C O5 1_555 1_555
Cd1A O7 1_555 1_555
O4B Cd1 1_555 1_555
O5C Cd1 1_555 1_555
O7A Cd1 1_555 1_555
O8A Cd1 1_555 1_555
O8 Cd1A 1_555 1_555
C8 C10 1_555 1_555
N2 C13 1_555 1_555
N4 C24 1_555 1_555
C19 C20 1_555 1_555

#END
