
#######################################################################
#
#                 Cambridge Crystallographic Data Centre
#                                CCDC 
#
#######################################################################
#
# If this CIF has been generated from an entry in the Cambridge 
# Structural Database, then it will include bibliographic, chemical, 
# crystal, experimental, refinement or atomic coordinate data resulting 
# from the CCDC's data processing and validation procedures.
#
#######################################################################

data_QOJVAM
_chemical_formula_moiety         '(C34 H24 Cu2 I2 N6)n'
_symmetry_cell_setting           monoclinic
_symmetry_space_group_name_H-M   'C c'
_symmetry_Int_Tables_number      9
_space_group_name_Hall           'C -2yc'
loop_
_symmetry_equiv_pos_site_id
_symmetry_equiv_pos_as_xyz
1 x,y,z
2 x,-y,1/2+z
3 1/2+x,1/2+y,z
4 1/2+x,1/2-y,1/2+z
_cell_length_a                   13.9745(13)
_cell_length_b                   14.5627(14)
_cell_length_c                   16.4373(15)
_cell_angle_alpha                90
_cell_angle_beta                 98.5760(18)
_cell_angle_gamma                90
_cell_volume                     3307.69
loop_
_atom_site_label
_atom_site_type_symbol
_atom_site_fract_x
_atom_site_fract_y
_atom_site_fract_z
_atom_site_U_iso_or_equiv
_atom_site_thermal_displace_type
I1 I 0.44966(4) 0.26023(9) 0.23580(4) 0.0268 Uani
I2 I 0.74927(4) 0.24022(9) 0.14526(4) 0.0272 Uani
Cu1 Cu 0.59779(15) 0.33770(16) 0.17212(14) 0.0227 Uani
Cu2 Cu 0.60107(16) 0.16192(16) 0.20870(15) 0.0245 Uani
N1 N 0.6613(6) 0.4375(5) 0.2533(4) 0.0195 Uani
C1 C 0.6024(4) 0.4678(5) 0.3089(5) 0.0090 Uani
H1 H 0.5403 0.4411 0.3088 0.0110 Uiso
C2 C 0.6343(6) 0.5370(6) 0.3646(5) 0.0184 Uani
C3 C 0.7251(7) 0.5760(6) 0.3647(5) 0.0304 Uani
H2 H 0.7469 0.6233 0.4028 0.0370 Uiso
C4 C 0.7840(5) 0.5457(7) 0.3092(6) 0.0394 Uani
H3 H 0.8461 0.5724 0.3093 0.0470 Uiso
C5 C 0.7522(6) 0.4765(7) 0.2534(5) 0.0420 Uani
H4 H 0.7925 0.4559 0.2154 0.0510 Uiso
N2 N 0.5349(6) 0.6164(6) 0.5591(4) 0.0182 Uani
C6 C 0.5984(4) 0.5897(6) 0.5060(5) 0.0110 Uani
H5 H 0.6660 0.5878 0.5249 0.0130 Uiso
C7 C 0.5629(6) 0.5657(6) 0.4252(4) 0.0180 Uani
C8 C 0.4640(7) 0.5684(6) 0.3976(4) 0.0282 Uani
H6 H 0.4398 0.5520 0.3425 0.0340 Uiso
C9 C 0.4005(4) 0.5951(7) 0.4507(6) 0.0239 Uani
C10 C 0.4359(5) 0.6191(7) 0.5315(5) 0.0502 Uani
H7 H 0.3925 0.6374 0.5678 0.0600 Uiso
N3 N 0.1527(5) 0.6201(6) 0.3271(4) 0.0286 Uani
C11 C 0.2528(5) 0.6187(6) 0.3483(4) 0.0091 Uani
H8 H 0.2930 0.6358 0.3090 0.0110 Uiso
C12 C 0.2941(4) 0.5923(6) 0.4270(5) 0.0213 Uani
C13 C 0.2353(7) 0.5673(7) 0.4845(4) 0.0255 Uani
H9 H 0.2635 0.5492 0.5383 0.0310 Uiso
C14 C 0.1352(6) 0.5687(7) 0.4633(5) 0.0298 Uani
C15 C 0.0939(4) 0.5951(7) 0.3846(5) 0.0389 Uani
H10 H 0.0255 0.5961 0.3701 0.0470 Uiso
N4 N 0.0491(6) 0.4317(5) 0.6230(5) 0.0260 Uani
C16 C 0.1075(4) 0.4680(7) 0.5695(6) 0.0503 Uani
H11 H 0.1717 0.4460 0.5707 0.0610 Uiso
C17 C 0.0719(6) 0.5365(7) 0.5143(6) 0.0330 Uani
C18 C -0.0220(7) 0.5687(6) 0.5125(6) 0.0354 Uani
H12 H -0.0463 0.6155 0.4747 0.0430 Uiso
C19 C -0.0804(5) 0.5323(6) 0.5660(5) 0.0315 Uani
H13 H -0.1446 0.5543 0.5648 0.0370 Uiso
C20 C -0.0448(6) 0.4638(6) 0.6212(5) 0.0168 Uani
H14 H -0.0847 0.4390 0.6578 0.0200 Uiso
N2A N 0.5349(6) 0.3836(6) 0.0591(4) 0.0182 Uani
N3B N 0.6527(5) 0.1201(6) 0.3271(4) 0.0286 Uani
N4C N 0.5491(6) 0.0683(5) 0.1230(5) 0.0260 Uani
Cu1A Cu 0.59779(15) 0.66230(16) 0.67212(14) 0.0227 Uani
Cu2B Cu 0.10107(16) 0.66192(16) 0.20870(15) 0.0245 Uani
Cu2C Cu 0.10107(16) 0.33808(16) 0.70870(15) 0.0245 Uani
N5 N 1.3058(6) 0.5319(5) -0.3045(5) 0.0712 Uani
C21 C 1.1797(8) 0.6299(8) -0.2265(6) 0.0603 Uani
C22 C 1.0821(9) 0.6394(9) -0.2575(6) 0.0773 Uani
H15 H 1.0601 0.6281 -0.3141 0.0930 Uiso
C23 C 1.0169(7) 0.6655(9) -0.2058(9) 0.0954 Uani
H16 H 0.9502 0.6720 -0.2270 0.1140 Uiso
C24 C 1.0491(8) 0.6820(8) -0.1229(8) 0.1016 Uani
H17 H 1.0045 0.6999 -0.0876 0.1220 Uiso
C25 C 1.1467(9) 0.6725(8) -0.0919(5) 0.0759 Uani
H18 H 1.1688 0.6838 -0.0353 0.0910 Uiso
C26 C 1.2120(6) 0.6464(7) -0.1436(6) 0.0625 Uani
H19 H 1.2787 0.6399 -0.1224 0.0750 Uiso
C27 C 1.2503(7) 0.5721(6) -0.2690(5) 0.0556 Uani
N6 N 0.8539(15) 0.6757(6) -0.0427(14) 0.1285 Uani
C28 C 0.6765(7) 0.6833(9) 0.0186(7) 0.0835 Uani
C29 C 0.5886(9) 0.6811(8) -0.0336(6) 0.0957 Uani
H20 H 0.5864 0.6938 -0.0905 0.1150 Uiso
C30 C 0.5040(7) 0.6604(9) -0.0024(8) 0.1302 Uani
H21 H 0.4439 0.6589 -0.0381 0.1560 Uiso
C31 C 0.5072(7) 0.6419(10) 0.0809(9) 0.1313 Uani
H22 H 0.4494 0.6277 0.1021 0.1570 Uiso
C32 C 0.5951(8) 0.6441(9) 0.1331(7) 0.0693 Uani
H23 H 0.5974 0.6314 0.1900 0.0830 Uiso
C33 C 0.6798(6) 0.6648(8) 0.1020(7) 0.0708 Uani
H24 H 0.7399 0.6663 0.1376 0.0850 Uiso
C34 C 0.7709(10) 0.6738(7) -0.0216(8) 0.0946 Uani
loop_
_atom_site_aniso_label
_atom_site_aniso_U_11
_atom_site_aniso_U_22
_atom_site_aniso_U_33
_atom_site_aniso_U_23
_atom_site_aniso_U_13
_atom_site_aniso_U_12
I1 0.0202(8) 0.0338(8) 0.0280(8) -0.0027(7) 0.0089(6) 0.0008(6)
I2 0.0202(8) 0.0350(8) 0.0276(8) -0.0010(7) 0.0077(6) -0.0010(6)
Cu1 0.0236(12) 0.0270(16) 0.0175(15) -0.0020(11) 0.0029(11) 0.0039(12)
Cu2 0.0249(13) 0.0295(16) 0.0186(15) 0.0000(11) 0.0017(11) -0.0010(12)
N1 0.030(5) 0.018(5) 0.015(4) -0.009(4) 0.018(4) -0.004(4)
C1 0.006(4) 0.016(5) 0.008(4) 0.001(3) 0.011(3) -0.008(3)
C2 0.029(6) 0.012(6) 0.016(6) -0.003(4) 0.009(5) -0.002(5)
C3 0.019(6) 0.045(7) 0.025(6) 0.006(5) -0.004(5) -0.012(5)
C4 0.034(7) 0.037(6) 0.050(8) -0.002(5) 0.015(5) -0.002(5)
C5 0.032(7) 0.038(6) 0.054(8) 0.007(5) 0.000(5) 0.000(5)
N2 0.028(5) 0.017(5) 0.013(4) -0.009(3) 0.014(4) 0.002(3)
C6 0.013(4) 0.013(5) 0.011(4) -0.007(3) 0.015(3) -0.007(3)
C7 0.028(5) 0.008(6) 0.020(5) -0.002(4) 0.010(4) -0.004(5)
C8 0.030(5) 0.013(8) 0.039(8) -0.008(6) -0.003(5) -0.013(6)
C9 0.026(4) 0.023(9) 0.020(6) 0.005(6) -0.005(4) -0.007(6)
C10 0.060(9) 0.046(10) 0.042(8) 0.000(7) -0.001(6) -0.006(7)
N3 0.024(5) 0.033(6) 0.024(5) -0.011(4) -0.012(4) 0.011(4)
C11 0.007(4) 0.012(6) 0.009(4) 0.000(4) 0.003(3) -0.010(3)
C12 0.035(4) 0.015(8) 0.014(6) -0.001(6) 0.004(4) -0.007(6)
C13 0.034(5) 0.040(10) 0.003(5) -0.003(6) 0.004(4) -0.007(7)
C14 0.034(6) 0.040(9) 0.015(5) -0.001(5) 0.002(4) 0.006(6)
C15 0.049(7) 0.040(7) 0.025(5) -0.009(5) -0.003(5) -0.006(6)
N4 0.015(4) 0.032(6) 0.030(5) -0.008(4) 0.000(4) 0.008(4)
C16 0.067(9) 0.036(9) 0.047(9) 0.014(6) 0.006(7) 0.004(6)
C17 0.019(5) 0.047(10) 0.033(8) 0.005(6) 0.004(6) 0.006(6)
C18 0.041(7) 0.034(7) 0.034(8) 0.027(5) 0.015(6) 0.010(6)
C19 0.024(6) 0.043(6) 0.029(6) 0.015(4) 0.009(4) 0.022(5)
C20 0.020(5) 0.023(4) 0.012(4) 0.005(3) 0.017(4) 0.013(4)
N2A 0.028 0.017 0.013 0.009 0.014 -0.002
N3B 0.024 0.033 0.024 -0.011 -0.012 0.011
N4C 0.015 0.032 0.03 0.008 0 -0.008
Cu1A 0.0236 0.027 0.0175 0.002 0.0029 -0.0039
Cu2B 0.0249 0.0295 0.0186 0 0.0017 -0.001
Cu2C 0.0249 0.0295 0.0186 0 0.0017 0.001
N5 0.093(8) 0.063(6) 0.063(5) -0.017(5) 0.029(5) -0.015(5)
C21 0.066(7) 0.065(7) 0.046(5) -0.012(5) -0.004(5) -0.013(6)
C22 0.065(8) 0.086(12) 0.071(8) -0.009(8) -0.022(6) -0.015(7)
C23 0.074(9) 0.081(14) 0.125(14) -0.014(12) -0.005(8) 0.022(10)
C24 0.151(12) 0.079(11) 0.082(10) 0.037(9) 0.041(10) 0.077(11)
C25 0.145(12) 0.040(8) 0.041(6) 0.007(6) 0.008(6) 0.009(8)
C26 0.102(8) 0.042(6) 0.039(5) 0.010(5) -0.004(5) -0.013(6)
C27 0.069(6) 0.048(5) 0.046(5) -0.002(4) -0.004(4) -0.035(4)
N6 0.203(13) 0.064(6) 0.117(19) 0.008(8) 0.019(10) -0.048(13)
C28 0.101(8) 0.088(11) 0.053(7) 0.016(8) -0.016(5) -0.032(8)
C29 0.139(10) 0.023(6) 0.098(10) -0.006(7) -0.071(8) 0.004(7)
C30 0.077(8) 0.141(18) 0.152(13) -0.097(13) -0.050(9) 0.066(10)
C31 0.039(6) 0.20(2) 0.150(14) -0.129(13) -0.002(8) 0.020(9)
C32 0.046(7) 0.061(9) 0.101(10) 0.016(8) 0.011(5) 0.011(6)
C33 0.052(7) 0.098(14) 0.060(6) 0.027(8) 0.000(5) 0.009(9)
C34 0.169(11) 0.032(6) 0.093(9) 0.003(6) 0.053(8) -0.010(7)
loop_
_geom_bond_atom_site_label_1
_geom_bond_atom_site_label_2
_geom_bond_site_symmetry_1
_geom_bond_site_symmetry_2
I1 Cu1 1_555 1_555
I2 Cu1 1_555 1_555
Cu1 Cu2 1_555 1_555
Cu2 I1 1_555 1_555
N1 Cu1 1_555 1_555
C1 N1 1_555 1_555
H1 C1 1_555 1_555
C2 C1 1_555 1_555
C3 C2 1_555 1_555
H2 C3 1_555 1_555
C4 C3 1_555 1_555
H3 C4 1_555 1_555
C5 N1 1_555 1_555
H4 C5 1_555 1_555
N2 C6 1_555 1_555
C6 H5 1_555 1_555
C7 C2 1_555 1_555
C8 C7 1_555 1_555
H6 C8 1_555 1_555
C9 C8 1_555 1_555
C10 N2 1_555 1_555
H7 C10 1_555 1_555
N3 C11 1_555 1_555
C11 H8 1_555 1_555
C12 C9 1_555 1_555
C13 C12 1_555 1_555
H9 C13 1_555 1_555
C14 C13 1_555 1_555
C15 N3 1_555 1_555
H10 C15 1_555 1_555
N4 C16 1_555 1_555
C16 H11 1_555 1_555
C17 C14 1_555 1_555
C18 C17 1_555 1_555
H12 C18 1_555 1_555
C19 C18 1_555 1_555
H13 C19 1_555 1_555
C20 N4 1_555 1_555
H14 C20 1_555 1_555
N5 C27 1_555 1_555
C21 C22 1_555 1_555
C22 H15 1_555 1_555
C23 C22 1_555 1_555
H16 C23 1_555 1_555
C24 C23 1_555 1_555
H17 C24 1_555 1_555
C25 C24 1_555 1_555
H18 C25 1_555 1_555
C26 C21 1_555 1_555
H19 C26 1_555 1_555
C27 C21 1_555 1_555
N6 C34 1_555 1_555
C28 C29 1_555 1_555
C29 H20 1_555 1_555
C30 C29 1_555 1_555
H21 C30 1_555 1_555
C31 C30 1_555 1_555
H22 C31 1_555 1_555
C32 C31 1_555 1_555
H23 C32 1_555 1_555
C33 C28 1_555 1_555
H24 C33 1_555 1_555
C34 C28 1_555 1_555
N2A Cu1 1_555 1_555
N3B Cu2 1_555 1_555
N4C Cu2 1_555 1_555
Cu1A N2 1_555 1_555
Cu2B N3 1_555 1_555
Cu2C N4 1_555 1_555
I2 Cu2 1_555 1_555
C4 C5 1_555 1_555
C6 C7 1_555 1_555
C9 C10 1_555 1_555
C11 C12 1_555 1_555
C14 C15 1_555 1_555
C16 C17 1_555 1_555
C19 C20 1_555 1_555
C25 C26 1_555 1_555
C32 C33 1_555 1_555

#END
