
#######################################################################
#
#                 Cambridge Crystallographic Data Centre
#                                CCDC 
#
#######################################################################
#
# If this CIF has been generated from an entry in the Cambridge 
# Structural Database, then it will include bibliographic, chemical, 
# crystal, experimental, refinement or atomic coordinate data resulting 
# from the CCDC's data processing and validation procedures.
#
#######################################################################

data_GOQWOY
_chemical_formula_moiety         '(C19 H13 Cl3 N8 Ni1 O6)n'
_symmetry_cell_setting           trigonal
_symmetry_space_group_name_H-M   'P 31 2 1'
_symmetry_Int_Tables_number      152
_space_group_name_Hall           'P 31 2"'
loop_
_symmetry_equiv_pos_site_id
_symmetry_equiv_pos_as_xyz
1 x,y,z
2 -y,x-y,1/3+z
3 -x+y,-x,2/3+z
4 y,x,-z
5 -x,-x+y,1/3-z
6 x-y,-y,2/3-z
_cell_length_a                   15.216(2)
_cell_length_b                   15.216(2)
_cell_length_c                   18.650(6)
_cell_angle_alpha                90
_cell_angle_beta                 90
_cell_angle_gamma                120
_cell_volume                     3739.47
loop_
_atom_site_label
_atom_site_type_symbol
_atom_site_fract_x
_atom_site_fract_y
_atom_site_fract_z
Ni1 Ni 0.16166(5) 0.00000(5) -0.6667
N1 N -0.0000 -0.2493(5) -0.3333
N2 N -0.0286(5) -0.3978(4) -0.2730(2)
N3 N -0.1088(4) -0.2066(4) -0.0881(2)
N4 N 0.0000 -0.7028(4) -0.3333
C1 C -0.0250(6) -0.3085(5) -0.2754(3)
C2 C -0.0000 -0.4235(5) -0.3333
C3 C -0.0777(5) -0.1505(4) -0.1480(3)
H1 H -0.0751 -0.0869 -0.1483
C4 C -0.0494(6) -0.1803(5) -0.2090(3)
H2 H -0.0287 -0.1384 -0.2504
C5 C -0.0513(5) -0.2712(4) -0.2095(3)
C6 C -0.0844(7) -0.3318(5) -0.1482(3)
H3 H -0.0891 -0.3965 -0.1471
C7 C -0.1101(7) -0.2944(5) -0.0891(3)
H4 H -0.1300 -0.3341 -0.0466
C8 C -0.0000 -0.5205(5) -0.3333
C9 C -0.0328(5) -0.5839(4) -0.2729(3)
H5 H -0.0563 -0.5660 -0.2312
C10 C -0.0299(6) -0.6743(5) -0.2759(3)
H6 H -0.0504 -0.7169 -0.2348
O1 O 0.2204(3) 0.1275(3) -0.6022(2)
N5 N 0.1372(9) 0.1311(8) -0.6039(5)
O2 O 0.0614(6) 0.0607(6) -0.6402(4)
O3 O 0.1281(7) 0.1988(7) -0.5752(5)
N2D N 0.0286(5) -0.3692(6) -0.3937(2)
C1D C 0.0250(6) -0.2835(8) -0.3913(3)
C5D C 0.0513(5) -0.2199(6) -0.4572(3)
C4D C 0.0494(6) -0.1309(8) -0.4577(3)
H2D H 0.0287 -0.1097 -0.4163
C6D C 0.0844(7) -0.2474(9) -0.5185(3)
H3D H 0.0891 -0.3074 -0.5196
C7D C 0.1101(7) -0.1843(9) -0.5776(3)
N3D N 0.1088(4) -0.0978(6) -0.5786(2)
H4D H 0.1300 -0.2041 -0.6201
C10D C 0.0299(6) -0.6444(8) -0.3908(3)
C9D C 0.0328(5) -0.5511(6) -0.3938(3)
H5D H 0.0563 -0.5097 -0.4355
H6D H 0.0504 -0.6665 -0.4319
Ni1B Ni -0.16166(7) -0.16166(5) -0.0000
Ni1A Ni 0.00000(5) -0.83834(7) -0.3334
C3D C 0.0777(5) -0.0728(6) -0.5187(3)
N3A N 0.2066(4) 0.0978(6) -0.7548(2)
N4B N 0.2972(4) -0.0000 -0.6666
O1E O 0.0929(4) -0.1275(3) -0.7311(2)
N5E N 0.0061(12) -0.1311(8) -0.7294(5)
O2E O 0.0007(8) -0.0607(6) -0.6931(4)
O3E O -0.0707(10) -0.1988(7) -0.7581(5)
H1D H 0.0751 -0.0118 -0.5184
Cl1 Cl -0.5293(6) 0.0000 -0.1667
Cl2 Cl -0.4593(4) -0.1464(4) -0.1381(4)
C11 C -0.4111(15) 0.0000 -0.1667
Cl2E Cl -0.3129(6) 0.1464(4) -0.1952(4)
loop_
_geom_bond_atom_site_label_1
_geom_bond_atom_site_label_2
_geom_bond_site_symmetry_1
_geom_bond_site_symmetry_2
Ni1 O1 1_555 1_555
N1 C1 1_555 1_555
N2 C1 1_555 1_555
N3 C3 1_555 1_555
N4 C10 1_555 1_555
C1 C5 1_555 1_555
C2 N2 1_555 1_555
C3 H1 1_555 1_555
C4 C3 1_555 1_555
H2 C4 1_555 1_555
C5 C4 1_555 1_555
C6 C5 1_555 1_555
H3 C6 1_555 1_555
C7 N3 1_555 1_555
H4 C7 1_555 1_555
C8 C2 1_555 1_555
C9 C8 1_555 1_555
H5 C9 1_555 1_555
C10 C9 1_555 1_555
H6 C10 1_555 1_555
O1 N5 1_555 1_555
N5 O2 1_555 1_555
O2 Ni1 1_555 1_555
O3 N5 1_555 1_555
Cl1 C11 1_555 1_555
Cl2 C11 1_555 1_555
C11 Cl2E 1_555 1_555
N2D C2 1_555 1_555
C1D N1 1_555 1_555
C5D C1D 1_555 1_555
C4D C5D 1_555 1_555
H2D C4D 1_555 1_555
C6D C5D 1_555 1_555
H3D C6D 1_555 1_555
C7D C6D 1_555 1_555
N3D Ni1 1_555 1_555
H4D C7D 1_555 1_555
C10D N4 1_555 1_555
C9D C8 1_555 1_555
H5D C9D 1_555 1_555
H6D C10D 1_555 1_555
Ni1B N3 1_555 1_555
Ni1A N4 1_555 1_555
C3D C4D 1_555 1_555
N3A Ni1 1_555 1_555
N4B Ni1 1_555 1_555
O1E Ni1 1_555 1_555
N5E O1E 1_555 1_555
O2E Ni1 1_555 1_555
O3E N5E 1_555 1_555
H1D C3D 1_555 1_555
C6 C7 1_555 1_555
N2D C1D 1_555 1_555
C7D N3D 1_555 1_555
N3D C3D 1_555 1_555
C10D C9D 1_555 1_555
N5E O2E 1_555 1_555

#END
