
#######################################################################
#
#                 Cambridge Crystallographic Data Centre
#                                CCDC 
#
#######################################################################
#
# If this CIF has been generated from an entry in the Cambridge 
# Structural Database, then it will include bibliographic, chemical, 
# crystal, experimental, refinement or atomic coordinate data resulting 
# from the CCDC's data processing and validation procedures.
#
#######################################################################

data_LUMDEC
_chemical_formula_moiety         '(C24 H22 Cd2 N8 O9)n'
_symmetry_cell_setting           tetragonal
_symmetry_space_group_name_H-M   'I 41/a'
_symmetry_Int_Tables_number      88
_space_group_name_Hall           '-I 4ad'
loop_
_symmetry_equiv_pos_site_id
_symmetry_equiv_pos_as_xyz
1 x,y,z
2 3/4-y,1/4+x,1/4+z
3 1/2+x,1/2+y,1/2+z
4 1/4-y,3/4+x,3/4+z
5 1/4+y,1/4-x,1/4+z
6 1/2+x,y,1/2-z
7 1/4-y,1/4+x,1/4-z
8 x,1/2+y,-z
9 -x,-y,-z
10 1/4+y,3/4-x,3/4-z
11 1/2-x,1/2-y,1/2-z
12 3/4+y,1/4-x,1/4-z
13 3/4-y,3/4+x,3/4-z
14 1/2-x,-y,1/2+z
15 3/4+y,3/4-x,3/4+z
16 -x,1/2-y,z
_cell_length_a                   18.569(3)
_cell_length_b                   18.569(3)
_cell_length_c                   23.042(2)
_cell_angle_alpha                90
_cell_angle_beta                 90
_cell_angle_gamma                90
_cell_volume                     7945.06
loop_
_atom_site_label
_atom_site_type_symbol
_atom_site_fract_x
_atom_site_fract_y
_atom_site_fract_z
C1 C 0.5224(5) 0.8448(5) 0.7696(4)
C2 C 0.5540(5) 0.8334(6) 0.8212(4)
H1 H 0.53 0.821 0.8551
C3 C 0.6376(4) 0.8561(5) 0.7639(4)
H2 H 0.6833 0.8637 0.7485
C4 C 0.4464(5) 0.8388(5) 0.7514(4)
H3 H 0.4119 0.8329 0.7803
C5 C 0.4241(5) 0.8410(5) 0.6970(4)
H4 H 0.4584 0.8473 0.6681
C6 C 0.3485(5) 0.8342(5) 0.6796(4)
C7 C 0.7198(5) 0.6076(5) 0.9492(4)
C8 C 0.7097(6) 0.6783(5) 0.9527(4)
H5 H 0.7028 0.7032 0.9873
C9 C 0.7201(5) 0.6572(5) 0.8633(4)
H6 H 0.7226 0.6628 0.8233
C10 C 0.7209(5) 0.5530(5) 0.9937(4)
H7 H 0.722 0.5696 1.0318
C11 C 0.7207(5) 0.4823(6) 0.9872(4)
H8 H 0.7227 0.4633 0.9499
C12 C 0.7172(5) 0.4320(6) 1.0376(5)
Cd1 Cd 0.71538(3) 0.82941(3) 0.87880(3)
N1 N 0.5767(4) 0.8583(4) 0.7322(3)
H9 H 0.5732 0.8667 0.6956
N2 N 0.6262(4) 0.8427(4) 0.8162(3)
N3 N 0.7260(4) 0.5939(4) 0.8905(3)
H10 H 0.7324 0.5526 0.8745
N4 N 0.7106(4) 0.7099(4) 0.8995(3)
O1 O 0.7043(4) 0.3663(4) 1.0267(3)
O2 O 0.7239(4) 0.4555(4) 1.0883(3)
O3 O 0.3367(3) 0.8311(4) 0.6259(3)
O4 O 0.2987(3) 0.8322(4) 0.7146(3)
C7G C 0.7198(5) 1.1076(5) 1.0508(4)
C8G C 0.7097(6) 1.1783(5) 1.0473(4)
H5G H 0.7028 1.2032 1.0127
C9G C 0.7201(5) 1.1572(5) 1.1367(4)
H6G H 0.7226 1.1628 1.1767
C10G C 0.7209(5) 1.0530(5) 1.0063(4)
H7G H 0.722 1.0696 0.9682
C11G C 0.7207(5) 0.9823(6) 1.0128(4)
H8G H 0.7227 0.9633 1.0501
C12G C 0.7172(5) 0.9320(6) 0.9624(5)
N3G N 0.7260(4) 1.0939(4) 1.1095(3)
H10G H 0.7324 1.0526 1.1255
N4G N 0.7106(4) 1.2099(4) 1.1005(3)
O1G O 0.7043(4) 0.8663(4) 0.9733(3)
O2G O 0.7239(4) 0.9555(4) 0.9117(3)
C1E C 1.0224(5) 0.8448(5) 0.7304(4)
C2E C 1.0540(5) 0.8334(6) 0.6788(4)
H1E H 1.03 0.821 0.6449
C3E C 1.1376(4) 0.8561(5) 0.7361(4)
H2E H 1.1833 0.8637 0.7515
C4E C 0.9464(5) 0.8388(5) 0.7486(4)
H3E H 0.9119 0.8329 0.7197
C5E C 0.9241(5) 0.8410(5) 0.8030(4)
H4E H 0.9584 0.8473 0.8319
C6E C 0.8485(5) 0.8342(5) 0.8204(4)
N1E N 1.0767(4) 0.8583(4) 0.7678(3)
H9E H 1.0732 0.8667 0.8044
N2E N 1.1262(4) 0.8427(4) 0.6838(3)
O3E O 0.8367(3) 0.8311(4) 0.8741(3)
O4E O 0.7987(3) 0.8322(4) 0.7854(3)
Cd1E Cd 1.21538(3) 0.82941(3) 0.62120(3)
Cd1G Cd 0.71538(3) 0.32941(3) 1.12120(3)
Cd1E_2 Cd 0.21538(3) 0.82941(3) 0.62120(3)
Cd1G_2 Cd 0.71538(3) 1.32941(3) 1.12120(3)
N4E N 1.2106(4) 0.7099(4) 0.6005(3)
O1B O 1.2043(4) 0.8663(4) 0.5267(3)
O2B O 1.2239(4) 0.9555(4) 0.5883(3)
O3_2 O 1.3367(3) 0.8311(4) 0.6259(3)
O4_2 O 1.2987(3) 0.8322(4) 0.7146(3)
O5 O 0.50000 0.75000 1.0106(15)
loop_
_geom_bond_atom_site_label_1
_geom_bond_atom_site_label_2
_geom_bond_site_symmetry_1
_geom_bond_site_symmetry_2
C1 C2 1_555 1_555
C2 H1 1_555 1_555
C3 H2 1_555 1_555
C4 C1 1_555 1_555
H3 C4 1_555 1_555
C5 C4 1_555 1_555
H4 C5 1_555 1_555
C6 C5 1_555 1_555
C7 C8 1_555 1_555
C8 H5 1_555 1_555
C9 H6 1_555 1_555
C10 C7 1_555 1_555
H7 C10 1_555 1_555
C11 C10 1_555 1_555
H8 C11 1_555 1_555
C12 C11 1_555 1_555
Cd1 N2 1_555 1_555
N1 C1 1_555 1_555
H9 N1 1_555 1_555
N2 C2 1_555 1_555
N3 C7 1_555 1_555
H10 N3 1_555 1_555
N4 C8 1_555 1_555
O1 C12 1_555 1_555
O2 C12 1_555 1_555
O3 C6 1_555 1_555
O4 C6 1_555 1_555
C7G C8G 1_555 1_555
C8G H5G 1_555 1_555
C9G H6G 1_555 1_555
C10G C7G 1_555 1_555
H7G C10G 1_555 1_555
C11G C10G 1_555 1_555
H8G C11G 1_555 1_555
C12G C11G 1_555 1_555
N3G C7G 1_555 1_555
H10G N3G 1_555 1_555
N4G C8G 1_555 1_555
O1G Cd1 1_555 1_555
O2G Cd1 1_555 1_555
C1E C2E 1_555 1_555
C2E H1E 1_555 1_555
C3E H2E 1_555 1_555
C4E C1E 1_555 1_555
H3E C4E 1_555 1_555
C5E C4E 1_555 1_555
H4E C5E 1_555 1_555
C6E C5E 1_555 1_555
N1E C1E 1_555 1_555
H9E N1E 1_555 1_555
N2E C2E 1_555 1_555
O3E Cd1 1_555 1_555
O4E Cd1 1_555 1_555
Cd1E N2E 1_555 1_555
Cd1G O1 1_555 1_555
Cd1E_2 O3 1_555 1_555
Cd1G_2 N4G 1_555 1_555
N4E Cd1E 1_555 1_555
O1B Cd1E 1_555 1_555
O2B Cd1E 1_555 1_555
O3_2 Cd1E 1_555 1_555
O4_2 Cd1E 1_555 1_555
C3 N2 1_555 1_555
C3 N1 1_555 1_555
C9 N4 1_555 1_555
C9 N3 1_555 1_555
Cd1 N4 1_555 1_555
O2 Cd1G 1_555 1_555
O4 Cd1E_2 1_555 1_555
C9G N4G 1_555 1_555
C9G N3G 1_555 1_555
C12G O1G 1_555 1_555
C12G O2G 1_555 1_555
C3E N2E 1_555 1_555
C3E N1E 1_555 1_555
C6E O3E 1_555 1_555
C6E O4E 1_555 1_555

#END
