
#######################################################################
#
#                 Cambridge Crystallographic Data Centre
#                                CCDC 
#
#######################################################################
#
# If this CIF has been generated from an entry in the Cambridge 
# Structural Database, then it will include bibliographic, chemical, 
# crystal, experimental, refinement or atomic coordinate data resulting 
# from the CCDC's data processing and validation procedures.
#
#######################################################################

data_ETIPII
_chemical_formula_moiety         '(C27 H16 N2 O10 Zn2)n'
_symmetry_cell_setting           monoclinic
_symmetry_space_group_name_H-M   'P 21/c'
_symmetry_Int_Tables_number      14
_space_group_name_Hall           '-P 2ybc'
loop_
_symmetry_equiv_pos_site_id
_symmetry_equiv_pos_as_xyz
1 x,y,z
2 -x,1/2+y,1/2-z
3 -x,-y,-z
4 x,1/2-y,1/2+z
_cell_length_a                   14.099(10)
_cell_length_b                   10.997(8)
_cell_length_c                   21.865(15)
_cell_angle_alpha                90
_cell_angle_beta                 93.971(9)
_cell_angle_gamma                90
_cell_volume                     3381.96
loop_
_atom_site_label
_atom_site_type_symbol
_atom_site_fract_x
_atom_site_fract_y
_atom_site_fract_z
Zn1 Zn 0.82008(5) 0.29753(7) 0.08706(4)
O1 O 0.6345(4) 0.4789(4) 0.0744(3)
N1 N -0.0338(4) 0.2966(6) 0.0892(3)
C1 C 0.7143(6) 0.5329(6) 0.0799(3)
Zn2 Zn 0.61069(5) 0.29709(8) 0.07720(4)
O2 O 0.7917(4) 0.4808(4) 0.0873(3)
N2 N 0.4665(4) 0.2967(5) 0.0814(3)
C2 C 0.7117(5) 0.6697(6) 0.0802(4)
O3 O 0.6325(4) 1.1138(5) 0.0778(3)
C3 C 0.7949(6) 0.7373(8) 0.0879(5)
H1 H 0.8525 0.6962 0.0934
O4 O 0.7898(4) 1.1147(5) 0.0837(3)
C4 C 0.6274(5) 0.7342(6) 0.0732(4)
H2 H 0.5702 0.6921 0.0680
O5 O 0.6481(4) 0.2990(5) 0.1694(3)
C5 C 0.7120(5) 0.9261(6) 0.0793(4)
O6 O 0.8080(4) 0.2888(5) 0.1789(3)
C6 C 0.6264(6) 0.8592(7) 0.0736(4)
H3 H 0.5686 0.9002 0.0701
O7 O 0.6330(4) 0.2106(5) 0.4845(3)
C7 C 0.7957(6) 0.8616(7) 0.0876(4)
H4 H 0.8532 0.9029 0.0930
O8 O 0.7942(4) 0.1969(5) 0.4923(3)
C8 C 0.7116(6) 1.0622(6) 0.0793(4)
C9 C 0.7249(6) 0.2866(7) 0.2018(4)
C10 C 0.7247(6) 0.2676(7) 0.2673(4)
C11 C 0.8052(6) 0.2351(9) 0.3034(4)
H5 H 0.8623 0.2240 0.2853
C12 C 0.8024(7) 0.2188(9) 0.3651(5)
H6 H 0.8581 0.1988 0.3881
C13 C 0.7169(6) 0.2316(7) 0.3953(4)
C14 C 0.6368(6) 0.2628(8) 0.3582(4)
H7 H 0.5797 0.2737 0.3763
C15 C 0.6381(6) 0.2783(8) 0.2959(4)
H8 H 0.5821 0.2957 0.2725
C16 C 0.7156(7) 0.2114(7) 0.4625(4)
C17 C 0.4142(6) 0.3979(8) 0.0746(4)
H9 H 0.4457 0.4720 0.0735
C18 C 0.3133(11) 0.3987(14) 0.0690(11)
H10 H 0.2793 0.4656 0.0534
C19 C 0.2690(5) 0.2972(7) 0.0875(4)
C20 C 0.3274(13) 0.1975(18) 0.1076(14)
H11 H 0.3004 0.1313 0.1263
C21 C 0.4216(12) 0.1980(16) 0.1000(12)
H12 H 0.4563 0.1271 0.1080
C22 C 0.0085(7) 0.3725(9) 0.0566(4)
H13 H -0.0269 0.4355 0.0380
C23 C 0.1109(9) 0.3656(15) 0.0468(9)
H14 H 0.1367 0.4044 0.0140
C24 C 0.1659(6) 0.2989(7) 0.0886(4)
C25 C 0.1189(11) 0.2287(15) 0.1341(11)
H15 H 0.1515 0.1912 0.1674
C26 C 0.0193(6) 0.2229(8) 0.1231(4)
H16 H -0.0115 0.1599 0.1420
Zn1_2 Zn -0.17992(5) 0.29753(7) 0.08706(4)
Zn1_3 Zn 0.82008(5) 1.29753(7) 0.08706(4)
Zn1C Zn 0.82008(5) 0.20247(7) 0.58706(4)
N1_2 N 0.9662(4) 0.2966(6) 0.0892(3)
Zn2_2 Zn 0.61069(5) 1.29709(8) 0.07720(4)
Zn2C Zn 0.61069(5) 0.20291(8) 0.57720(4)
O3_2 O 0.6325(4) 0.1138(5) 0.0778(3)
O4_2 O 0.7898(4) 0.1147(5) 0.0837(3)
O7C O 0.6330(4) 0.2894(5) -0.0155(3)
O8C O 0.7942(4) 0.3031(5) -0.0077(3)
O9 O 0.8305(8) 0.0260(10) -0.0510(5)
O10 O 0.9728(10) 0.1204(13) -0.0345(6)
C32 C 0.8992(14) 0.0689(17) -0.0402(8)
loop_
_geom_bond_atom_site_label_1
_geom_bond_atom_site_label_2
_geom_bond_site_symmetry_1
_geom_bond_site_symmetry_2
Zn1 O2 1_555 1_555
O1 C1 1_555 1_555
N1 C22 1_555 1_555
C1 O2 1_555 1_555
Zn2 O1 1_555 1_555
N2 Zn2 1_555 1_555
C2 C1 1_555 1_555
O3 C8 1_555 1_555
C3 C2 1_555 1_555
H1 C3 1_555 1_555
O4 C8 1_555 1_555
C4 C2 1_555 1_555
H2 C4 1_555 1_555
O5 Zn2 1_555 1_555
C5 C6 1_555 1_555
O6 Zn1 1_555 1_555
C6 C4 1_555 1_555
H3 C6 1_555 1_555
O7 C16 1_555 1_555
C7 C3 1_555 1_555
H4 C7 1_555 1_555
O8 C16 1_555 1_555
C8 C5 1_555 1_555
C9 O5 1_555 1_555
C10 C9 1_555 1_555
C11 C10 1_555 1_555
H5 C11 1_555 1_555
C12 C11 1_555 1_555
H6 C12 1_555 1_555
C13 C12 1_555 1_555
C14 C13 1_555 1_555
H7 C14 1_555 1_555
C15 C10 1_555 1_555
H8 C15 1_555 1_555
C16 C13 1_555 1_555
C17 N2 1_555 1_555
H9 C17 1_555 1_555
C18 C17 1_555 1_555
H10 C18 1_555 1_555
C19 C18 1_555 1_555
C20 C19 1_555 1_555
H11 C20 1_555 1_555
C21 N2 1_555 1_555
H12 C21 1_555 1_555
C22 H13 1_555 1_555
C23 C22 1_555 1_555
H14 C23 1_555 1_555
C24 C19 1_555 1_555
C25 C24 1_555 1_555
H15 C25 1_555 1_555
C26 N1 1_555 1_555
H16 C26 1_555 1_555
O9 C32 1_555 1_555
O10 C32 1_555 1_555
Zn1_2 N1 1_555 1_555
Zn1_3 O4 1_555 1_555
Zn1C O8 1_555 1_555
N1_2 Zn1 1_555 1_555
Zn2_2 O3 1_555 1_555
Zn2C O7 1_555 1_555
O3_2 Zn2 1_555 1_555
O4_2 Zn1 1_555 1_555
O7C Zn2 1_555 1_555
O8C Zn1 1_555 1_555
C5 C7 1_555 1_555
O6 C9 1_555 1_555
C14 C15 1_555 1_555
C20 C21 1_555 1_555
C23 C24 1_555 1_555
C25 C26 1_555 1_555

#END
