
#######################################################################
#
#                 Cambridge Crystallographic Data Centre
#                                CCDC 
#
#######################################################################
#
# If this CIF has been generated from an entry in the Cambridge 
# Structural Database, then it will include bibliographic, chemical, 
# crystal, experimental, refinement or atomic coordinate data resulting 
# from the CCDC's data processing and validation procedures.
#
#######################################################################

data_CAXTEC
_chemical_formula_moiety         'C24 Al8 N8 O23'
_symmetry_cell_setting           rhombohedral
_symmetry_space_group_name_H-M   'R -3 m'
_symmetry_Int_Tables_number      166
_space_group_name_Hall           '-R 3 2"'
loop_
_symmetry_equiv_pos_site_id
_symmetry_equiv_pos_as_xyz
1 x,y,z
2 -y,x-y,z
3 y,x,-z
4 -x+y,-x,z
5 -x,-x+y,-z
6 x-y,-y,-z
7 1/3+x,2/3+y,2/3+z
8 1/3-y,2/3+x-y,2/3+z
9 1/3+y,2/3+x,2/3-z
10 1/3-x+y,2/3-x,2/3+z
11 1/3-x,2/3-x+y,2/3-z
12 1/3+x-y,2/3-y,2/3-z
13 2/3+x,1/3+y,1/3+z
14 2/3-y,1/3+x-y,1/3+z
15 2/3+y,1/3+x,1/3-z
16 2/3-x+y,1/3-x,1/3+z
17 2/3-x,1/3-x+y,1/3-z
18 2/3+x-y,1/3-y,1/3-z
19 -x,-y,-z
20 y,-x+y,-z
21 -y,-x,z
22 x-y,x,-z
23 x,x-y,z
24 -x+y,y,z
25 2/3-x,1/3-y,1/3-z
26 2/3+y,1/3-x+y,1/3-z
27 2/3-y,1/3-x,1/3+z
28 2/3+x-y,1/3+x,1/3-z
29 2/3+x,1/3+x-y,1/3+z
30 2/3-x+y,1/3+y,1/3+z
31 1/3-x,2/3-y,2/3-z
32 1/3+y,2/3-x+y,2/3-z
33 1/3-y,2/3-x,2/3+z
34 1/3+x-y,2/3+x,2/3-z
35 1/3+x,2/3+x-y,2/3+z
36 1/3-x+y,2/3+y,2/3+z
_cell_length_a                   20.9357(12)
_cell_length_b                   20.9357(12)
_cell_length_c                   34.8126(24)
_cell_angle_alpha                90
_cell_angle_beta                 90
_cell_angle_gamma                120
_cell_volume                     13214.2
loop_
_atom_site_label
_atom_site_type_symbol
_atom_site_fract_x
_atom_site_fract_y
_atom_site_fract_z
_atom_site_U_iso_or_equiv
_atom_site_thermal_displace_type
Al1 Al 0.27673(78) 0.07328(81) 0.51482(45) 0.0156 Uiso
O1 O 0.3091(14) 0.1041(13) 0.56894(62) 0.0156 Uiso
C1 C 0.3158(35) 0.1579(17) 0.5868(16) 0.0156 Uiso
C2 C 0.3319(31) 0.1660(15) 0.6320(17) 0.0156 Uiso
C3 C 0.3246(24) 0.1015(18) 0.64753(99) 0.0156 Uiso
O2 O 0.35413(30) 0.05828(38) 0.51150(31) 0.0156 Uiso
C4 C 0.3644(28) 0.00000 0.50000 0.0156 Uiso
C5 C 0.4375(34) 0.00000 0.50000 0.0156 Uiso
C6 C 0.4407(19) -0.0572(18) 0.4856(11) 0.0156 Uiso
O3 O 0.3315(23) 0.1658(11) 0.5019(11) 0.0156 Uiso
C7 C 0.3864(28) 0.1932(14) 0.4773(15) 0.0156 Uiso
O4 O 0.2498(14) 0.0272(16) 0.47231(68) 0.0156 Uiso
C8 C 0.2799(21) 0.0607(16) 0.4383(10) 0.0156 Uiso
O5 O 0.1967(18) 0.09833(90) 0.52002 0.0156 Uiso
C9 C 0.1111(16) 0.05555(79) 0.5401(11) 0.0156 Uiso
N1 N 0.32927(60) 0.04213(60) 0.62283(31) 0.0156 Uiso
N2 N 0.3714(56) -0.1246(5) 0.4712(33) 0.0156 Uiso
Al1V Al 0.27673(78) 0.2035(11) 0.51482(45) 0.0156 Uiso
Al1P Al 0.38994(78) 0.1299(11) 0.81851(45) 0.0156 Uiso
Al1X Al 0.38994(78) 0.26005(81) 0.81851(45) 0.0156 Uiso
Al1E Al 0.2035(11) -0.07328(81) 0.48518(45) 0.0156 Uiso
Al1W Al 0.7965(11) 0.07328(81) 0.51482(45) 0.0156 Uiso
Al1R Al 0.72327(78) -0.07328(81) 0.48518(45) 0.0156 Uiso
Al1U Al 0.2035(11) 0.27673(78) 0.48518(45) 0.0156 Uiso
O1V O 0.3091(14) 0.2050(19) 0.56894(62) 0.0156 Uiso
O1P O 0.3576(14) 0.1283(19) 0.76439(62) 0.0156 Uiso
O1X O 0.3576(14) 0.2292(13) 0.76439(62) 0.0156 Uiso
C1P C 0.3509(35) 0.1754(39) 0.7465(16) 0.0156 Uiso
C2P C 0.3348(31) 0.1674(34) 0.7013(17) 0.0156 Uiso
C3P C 0.3421(24) 0.1102(30) 0.68580(99) 0.0156 Uiso
C3X C 0.3421(24) 0.2318(18) 0.68580(99) 0.0156 Uiso
C3V C 0.3246(24) 0.2231(30) 0.64753(99) 0.0156 Uiso
O2E O 0.29585(48) -0.05828(38) 0.48850(31) 0.0156 Uiso
O2W O 0.70415(48) 0.05828(38) 0.51150(31) 0.0156 Uiso
O2R O 0.64587(30) -0.05828(38) 0.48850(31) 0.0156 Uiso
O2V O 0.35413(30) 0.29585(48) 0.51150(31) 0.0156 Uiso
O2P O 0.31254(30) 0.03748(48) 0.82183(31) 0.0156 Uiso
O2X O 0.31254(30) 0.27505(38) 0.82183(31) 0.0156 Uiso
C4R C 0.6356(28) 0.00000 0.50000 0.0156 Uiso
C5R C 0.5625(34) 0.00000 0.50000 0.0156 Uiso
C6W C 0.5021(26) -0.0572(18) 0.4856(11) 0.0156 Uiso
C6R C 0.5593(19) 0.0572(18) 0.5144(11) 0.0156 Uiso
C6E C 0.4979(26) 0.0572(18) 0.5144(11) 0.0156 Uiso
O3P O 0.3352(23) 0.1676(25) 0.8314(11) 0.0156 Uiso
C7P C 0.2803(28) 0.1401(31) 0.8560(15) 0.0156 Uiso
O4E O 0.2226(21) -0.0272(16) 0.52769(68) 0.0156 Uiso
O4V O 0.2498(14) 0.2226(21) 0.47231(68) 0.0156 Uiso
O4U O 0.2226(21) 0.2498(14) 0.52769(68) 0.0156 Uiso
O4P O 0.4169(14) 0.1107(21) 0.86102(68) 0.0156 Uiso
O4O O 0.4441(21) 0.0835(14) 0.80564(68) 0.0156 Uiso
O4X O 0.4169(14) 0.3061(16) 0.86102(68) 0.0156 Uiso
O4CA O 0.4441(21) 0.3605(16) 0.80564(68) 0.0156 Uiso
C8E C 0.2192(26) -0.0607(16) 0.5617(10) 0.0156 Uiso
C8V C 0.2799(21) 0.2192(26) 0.4383(10) 0.0156 Uiso
C8U C 0.2192(26) 0.2799(21) 0.5617(10) 0.0156 Uiso
O5P O 0.4700(18) 0.2350(20) 0.81331 0.0156 Uiso
C9P C 0.5556(16) 0.2778(18) 0.7932(11) 0.0156 Uiso
N1V N 0.32927(60) 0.28714(85) 0.62283(31) 0.0156 Uiso
N1X N 0.33740(60) 0.29120(60) 0.71050(31) 0.0156 Uiso
N1P N 0.33740(60) 0.04619(85) 0.71050(31) 0.0156 Uiso
N2E N 0.4960(56) 0.1246(5) 0.5288(33) 0.0156 Uiso
N2R N 0.6286(56) 0.1246(5) 0.5288(33) 0.0156 Uiso
N2W N 0.5040(56) -0.1246(5) 0.4712(33) 0.0156 Uiso
loop_
_geom_bond_atom_site_label_1
_geom_bond_atom_site_label_2
_geom_bond_site_symmetry_1
_geom_bond_site_symmetry_2
Al1 O1 1_555 1_555
O1 C1 1_555 1_555
C1 C2 1_555 1_555
C2 C3 1_555 1_555
C3 N1 1_555 1_555
O2 Al1 1_555 1_555
C4 O2 1_555 1_555
C5 C4 1_555 1_555
C6 C5 1_555 1_555
O3 Al1 1_555 1_555
C7 O3 1_555 1_555
O4 Al1 1_555 1_555
C8 O4 1_555 1_555
O5 Al1 1_555 1_555
C9 O5 1_555 1_555
N2 C6 1_555 1_555
Al1V O3 1_555 1_555
Al1P O1P 1_555 1_555
Al1X O1X 1_555 1_555
Al1E O4 1_555 1_555
Al1W O2W 1_555 1_555
Al1R O2R 1_555 1_555
Al1U O4V 1_555 1_555
O1V C1 1_555 1_555
O1P C1P 1_555 1_555
O1X C1P 1_555 1_555
C1P C2P 1_555 1_555
C2P C3P 1_555 1_555
C3P C3 1_555 1_555
C3X C2P 1_555 1_555
C3V C2 1_555 1_555
O2E C4 1_555 1_555
O2W C4R 1_555 1_555
O2R C4R 1_555 1_555
O2V Al1V 1_555 1_555
O2P Al1P 1_555 1_555
O2X Al1X 1_555 1_555
C4R C5R 1_555 1_555
C5R C6W 1_555 1_555
C6W C6 1_555 1_555
C6R C5R 1_555 1_555
C6E C5 1_555 1_555
O3P Al1P 1_555 1_555
C7P O3P 1_555 1_555
O4E Al1 1_555 1_555
O4V Al1V 1_555 1_555
O4U Al1V 1_555 1_555
O4P Al1P 1_555 1_555
O4O Al1P 1_555 1_555
O4X Al1X 1_555 1_555
O4CA Al1X 1_555 1_555
C8E O4E 1_555 1_555
C8V O4V 1_555 1_555
C8U O4U 1_555 1_555
O5P Al1P 1_555 1_555
C9P O5P 1_555 1_555
N1V C3V 1_555 1_555
N1X C3X 1_555 1_555
N1P C3P 1_555 1_555
N2E C6E 1_555 1_555
N2R C6R 1_555 1_555
N2W C6W 1_555 1_555
O5 Al1V 1_555 1_555
Al1V O1V 1_555 1_555
Al1X O3P 1_555 1_555
Al1X O5P 1_555 1_555
Al1E O2E 1_555 1_555
Al1E O4E 1_555 1_555
Al1U O4U 1_555 1_555
C3X C3V 1_555 1_555
C6R C6E 1_555 1_555

#END
