
#######################################################################
#
#                 Cambridge Crystallographic Data Centre
#                                CCDC 
#
#######################################################################
#
# If this CIF has been generated from an entry in the Cambridge 
# Structural Database, then it will include bibliographic, chemical, 
# crystal, experimental, refinement or atomic coordinate data resulting 
# from the CCDC's data processing and validation procedures.
#
#######################################################################

data_LIPQIL
_chemical_formula_moiety         '(C21 H28 Cl2 Cu3 N12 O14 2+)n'
_symmetry_cell_setting           cubic
_symmetry_space_group_name_H-M   'I -4 3 m'
_symmetry_Int_Tables_number      217
_space_group_name_Hall           'I -4 2 3'
loop_
_symmetry_equiv_pos_site_id
_symmetry_equiv_pos_as_xyz
1 x,y,z
2 -x,-y,z
3 -x,y,-z
4 x,-y,-z
5 z,x,y
6 z,-x,-y
7 -z,-x,y
8 -z,x,-y
9 y,z,x
10 -y,z,-x
11 y,-z,-x
12 -y,-z,x
13 y,x,z
14 -y,-x,z
15 y,-x,-z
16 -y,x,-z
17 x,z,y
18 -x,z,-y
19 -x,-z,y
20 x,-z,-y
21 z,y,x
22 z,-y,-x
23 -z,y,-x
24 -z,-y,x
25 1/2+x,1/2+y,1/2+z
26 1/2-x,1/2-y,1/2+z
27 1/2-x,1/2+y,1/2-z
28 1/2+x,1/2-y,1/2-z
29 1/2+z,1/2+x,1/2+y
30 1/2+z,1/2-x,1/2-y
31 1/2-z,1/2-x,1/2+y
32 1/2-z,1/2+x,1/2-y
33 1/2+y,1/2+z,1/2+x
34 1/2-y,1/2+z,1/2-x
35 1/2+y,1/2-z,1/2-x
36 1/2-y,1/2-z,1/2+x
37 1/2+y,1/2+x,1/2+z
38 1/2-y,1/2-x,1/2+z
39 1/2+y,1/2-x,1/2-z
40 1/2-y,1/2+x,1/2-z
41 1/2+x,1/2+z,1/2+y
42 1/2-x,1/2+z,1/2-y
43 1/2-x,1/2-z,1/2+y
44 1/2+x,1/2-z,1/2-y
45 1/2+z,1/2+y,1/2+x
46 1/2+z,1/2-y,1/2-x
47 1/2-z,1/2+y,1/2-x
48 1/2-z,1/2-y,1/2+x
_cell_length_a                   21.146(2)
_cell_length_b                   21.146(2)
_cell_length_c                   21.146(2)
_cell_angle_alpha                90
_cell_angle_beta                 90
_cell_angle_gamma                90
_cell_volume                     9455.5
loop_
_atom_site_label
_atom_site_type_symbol
_atom_site_fract_x
_atom_site_fract_y
_atom_site_fract_z
_atom_site_U_iso_or_equiv
_atom_site_thermal_displace_type
Cl1 Cl -0.2901(3) -0.2901(3) -0.7099(3) 0.1570 Uani
O3 O -0.2521(3) -0.3283(5) -0.7479(3) 0.1123 Uani
O4 O -0.3280(4) -0.3280(4) -0.6720(4) 0.1060 Uani
O3G O -0.2521(3) -0.2521(3) -0.6717(5) 0.1123 Uani
O3J O -0.3283(5) -0.2521(3) -0.7479(3) 0.1123 Uani
Cl2 Cl -0.2500 0.0000 -0.5000 0.0597 Uani
O5 O -0.2109(3) -0.0166(3) -0.4468(3) 0.0790 Uani
O5C O -0.2109(3) 0.0166(3) -0.5532(3) 0.0790 Uani
O5OA O -0.2891(3) 0.0532(3) -0.4834(3) 0.0790 Uani
O5PA O -0.2891(3) -0.0532(3) -0.5166(3) 0.0790 Uani
O6 O -0.0880(3) -0.6826(4) -0.9120(3) 0.1120 Uani
O7 O -0.2921(14) -0.5161(11) -0.2921(14) 0.0850 Uani
Cu1 Cu -0.32583(4) -0.32583(5) -0.21262(4) 0.0521 Uani
O1 O -0.2998(3) -0.2998(3) -0.2998(3) 0.0420 Uani
O2 O -0.3937(4) -0.3937(6) -0.2697(4) 0.0740 Uani
N1 N -0.1475(3) -0.6256(3) -0.1475(3) 0.0460 Uani
N2 N -0.1891(3) -0.4626(4) -0.1891(3) 0.0497 Uani
N3 N -0.2573(3) -0.3905(3) -0.2114(3) 0.0497 Uani
C1 C -0.1745(3) -0.5752(4) -0.1745(3) 0.0480 Uani
H1 H -0.2054 -0.5810 -0.2054 0.0570 Uiso
C2 C -0.1033(4) -0.6152(5) -0.1033(4) 0.0527 Uani
H2 H -0.0842 -0.6498 -0.0842 0.0630 Uiso
C3 C -0.0854(4) -0.5574(5) -0.0854(4) 0.0613 Uani
H3 H -0.0545 -0.5523 -0.0545 0.0730 Uiso
C4 C -0.1138(3) -0.5042(5) -0.1138(3) 0.0550 Uani
H4 H -0.1024 -0.4633 -0.1024 0.0660 Uiso
C5 C -0.1575(3) -0.5151(4) -0.1575(3) 0.0470 Uani
C6 C -0.2434(4) -0.4339(3) -0.1715(3) 0.0580 Uani
H5 H -0.2670 -0.4442 -0.1359 0.0700 Uiso
Cu1GA Cu -0.17417(5) -0.71262(4) -0.17417(4) 0.0521 Uani
Cu1D Cu -0.21262(4) -0.32583(4) -0.32583(5) 0.0521 Uani
Cu1H Cu -0.32583(5) -0.21262(4) -0.32583(4) 0.0521 Uani
Cu1Y Cu -0.17417(4) -0.17417(5) -0.71262(4) 0.0521 Uani
Cu1CA Cu -0.71262(4) -0.17417(4) -0.17417(5) 0.0521 Uani
O2D O -0.2697(4) -0.3937(4) -0.3937(6) 0.0740 Uani
O2H O -0.3937(6) -0.2697(4) -0.3937(4) 0.0740 Uani
N1DA N -0.3525(3) -0.3525(3) -0.1256(3) 0.0460 Uani
N1HA N -0.1256(3) -0.3525(3) -0.3525(3) 0.0460 Uani
N1Z N -0.3525(3) -0.1256(3) -0.3525(3) 0.0460 Uani
N1D N -0.1475(3) -0.1475(3) -0.6256(3) 0.0460 Uani
N1H N -0.6256(3) -0.1475(3) -0.1475(3) 0.0460 Uani
N2D N -0.1891(3) -0.1891(3) -0.4626(4) 0.0497 Uani
N2H N -0.4626(4) -0.1891(3) -0.1891(3) 0.0497 Uani
N3L N -0.3905(3) -0.2573(3) -0.2114(3) 0.0497 Uani
N3T N -0.2114(3) -0.3905(3) -0.2573(3) 0.0497 Uani
N3D N -0.2114(3) -0.2573(3) -0.3905(3) 0.0497 Uani
N3P N -0.2573(3) -0.2114(3) -0.3905(3) 0.0497 Uani
N3H N -0.3905(3) -0.2114(3) -0.2573(3) 0.0497 Uani
C1D C -0.1745(3) -0.1745(3) -0.5752(4) 0.0480 Uani
C1H C -0.5752(4) -0.1745(3) -0.1745(3) 0.0480 Uani
H1D H -0.2054 -0.2054 -0.5810 0.0570 Uiso
H1H H -0.5810 -0.2054 -0.2054 0.0570 Uiso
C2D C -0.1033(4) -0.1033(4) -0.6152(5) 0.0527 Uani
C2H C -0.6152(5) -0.1033(4) -0.1033(4) 0.0527 Uani
H2D H -0.0842 -0.0842 -0.6498 0.0630 Uiso
H2H H -0.6498 -0.0842 -0.0842 0.0630 Uiso
C3D C -0.0854(4) -0.0854(4) -0.5574(5) 0.0613 Uani
C3H C -0.5574(5) -0.0854(4) -0.0854(4) 0.0613 Uani
H3D H -0.0545 -0.0545 -0.5523 0.0730 Uiso
H3H H -0.5523 -0.0545 -0.0545 0.0730 Uiso
C4D C -0.1138(3) -0.1138(3) -0.5042(5) 0.0550 Uani
C4H C -0.5042(5) -0.1138(3) -0.1138(3) 0.0550 Uani
H4D H -0.1024 -0.1024 -0.4633 0.0660 Uiso
H4H H -0.4633 -0.1024 -0.1024 0.0660 Uiso
C5D C -0.1575(3) -0.1575(3) -0.5151(4) 0.0470 Uani
C5H C -0.5151(4) -0.1575(3) -0.1575(3) 0.0470 Uani
C6T C -0.1715(3) -0.4339(3) -0.2434(4) 0.0580 Uani
C6D C -0.1715(3) -0.2434(4) -0.4339(3) 0.0580 Uani
C6P C -0.2434(4) -0.1715(3) -0.4339(3) 0.0580 Uani
C6H C -0.4339(3) -0.1715(3) -0.2434(4) 0.0580 Uani
C6L C -0.4339(3) -0.2434(4) -0.1715(3) 0.0580 Uani
H5D H -0.1359 -0.2670 -0.4442 0.0700 Uiso
H5T H -0.1359 -0.4442 -0.2670 0.0700 Uiso
H5P H -0.2670 -0.1359 -0.4442 0.0700 Uiso
H5H H -0.4442 -0.1359 -0.2670 0.0700 Uiso
H5L H -0.4442 -0.2670 -0.1359 0.0700 Uiso
loop_
_atom_site_aniso_label
_atom_site_aniso_U_11
_atom_site_aniso_U_22
_atom_site_aniso_U_33
_atom_site_aniso_U_23
_atom_site_aniso_U_13
_atom_site_aniso_U_12
Cl1 0.157 0.157 0.157 0.027 0.027 -0.027
O3 0.136 0.065 0.136 -0.009 0.072 0.009
O4 0.106 0.106 0.106 0.028 0.028 -0.028
O3G 0.136 0.136 0.065 -0.009 -0.009 -0.072
O3J 0.065 0.136 0.136 0.072 -0.009 0.009
Cl2 0.071 0.054 0.054 0 0 0
O5 0.092 0.097 0.048 -0.011 -0.011 0.019
O5C 0.092 0.097 0.048 -0.011 0.011 -0.019
O5OA 0.092 0.048 0.097 0.011 0.019 0.011
O5PA 0.092 0.048 0.097 0.011 -0.019 -0.011
O6 0.144 0.048 0.144 -0.013 0.03 0.013
O7 0.117 0.021 0.117 -0.001 -0.01 -0.001
Cu1 0.0577 0.0577 0.0409 0.0094 0.0094 0.0189
O1 0.042 0.042 0.042 0.003 0.003 0.003
O2 0.095 0.095 0.032 -0.009 -0.009 -0.073
N1 0.05 0.038 0.05 0.002 0.006 0.002
N2 0.055 0.039 0.055 0.008 0.007 0.008
N3 0.054 0.051 0.044 0.005 0.011 0.005
C1 0.047 0.05 0.047 -0.003 0.001 -0.003
C2 0.056 0.046 0.056 0.009 -0.004 0.009
C3 0.07 0.044 0.07 0 -0.025 0
C4 0.062 0.041 0.062 -0.002 -0.016 -0.002
C5 0.051 0.039 0.051 0.006 0.006 0.006
C6 0.068 0.055 0.051 0.014 0.015 0.023
Cu1GA 0.0577 0.0409 0.0577 -0.0094 0.0189 -0.0094
Cu1D 0.0409 0.0577 0.0577 0.0189 0.0094 0.0094
Cu1H 0.0577 0.0409 0.0577 0.0094 0.0189 0.0094
Cu1Y 0.0577 0.0577 0.0409 -0.0094 -0.0094 0.0189
Cu1CA 0.0409 0.0577 0.0577 0.0189 -0.0094 -0.0094
O2D 0.032 0.095 0.095 -0.073 -0.009 -0.009
O2H 0.095 0.032 0.095 -0.009 -0.073 -0.009
N1DA 0.05 0.05 0.038 -0.002 -0.002 0.006
N1HA 0.038 0.05 0.05 0.006 -0.002 -0.002
N1Z 0.05 0.038 0.05 -0.002 0.006 -0.002
N1D 0.05 0.05 0.038 0.002 0.002 0.006
N1H 0.038 0.05 0.05 0.006 0.002 0.002
N2D 0.055 0.055 0.039 0.008 0.008 0.007
N2H 0.039 0.055 0.055 0.007 0.008 0.008
N3L 0.051 0.054 0.044 0.011 0.005 0.005
N3T 0.044 0.051 0.054 0.005 0.011 0.005
N3D 0.044 0.054 0.051 0.005 0.005 0.011
N3P 0.054 0.044 0.051 0.005 0.005 0.011
N3H 0.051 0.044 0.054 0.011 0.005 0.005
C1D 0.047 0.047 0.05 -0.003 -0.003 0.001
C1H 0.05 0.047 0.047 0.001 -0.003 -0.003
C2D 0.056 0.056 0.046 0.009 0.009 -0.004
C2H 0.046 0.056 0.056 -0.004 0.009 0.009
C3D 0.07 0.07 0.044 0 0 -0.025
C3H 0.044 0.07 0.07 -0.025 0 0
C4D 0.062 0.062 0.041 -0.002 -0.002 -0.016
C4H 0.041 0.062 0.062 -0.016 -0.002 -0.002
C5D 0.051 0.051 0.039 0.006 0.006 0.006
C5H 0.039 0.051 0.051 0.006 0.006 0.006
C6T 0.051 0.055 0.068 0.023 0.015 0.014
C6D 0.051 0.068 0.055 0.023 0.014 0.015
C6P 0.068 0.051 0.055 0.014 0.023 0.015
C6H 0.055 0.051 0.068 0.015 0.023 0.014
C6L 0.055 0.068 0.051 0.015 0.014 0.023
loop_
_geom_bond_atom_site_label_1
_geom_bond_atom_site_label_2
_geom_bond_site_symmetry_1
_geom_bond_site_symmetry_2
Cu1 O1 1_555 1_555
O1 Cu1D 1_555 1_555
O2 Cu1 1_555 1_555
N1 C1 1_555 1_555
N2 C5 1_555 1_555
N3 Cu1 1_555 1_555
C1 H1 1_555 1_555
C2 N1 1_555 1_555
H2 C2 1_555 1_555
C3 C2 1_555 1_555
H3 C3 1_555 1_555
C4 C3 1_555 1_555
H4 C4 1_555 1_555
C5 C1 1_555 1_555
C6 N2 1_555 1_555
H5 C6 1_555 1_555
Cl1 O3 1_555 1_555
O4 Cl1 1_555 1_555
Cl2 O5 1_555 1_555
Cu1GA N1 1_555 1_555
Cu1D O2D 1_555 1_555
Cu1H O1 1_555 1_555
Cu1Y N1D 1_555 1_555
Cu1CA N1H 1_555 1_555
O2H Cu1H 1_555 1_555
N1DA Cu1 1_555 1_555
N1HA Cu1D 1_555 1_555
N1Z Cu1H 1_555 1_555
N1D C1D 1_555 1_555
N1H C1H 1_555 1_555
N2D C5D 1_555 1_555
N2H C5H 1_555 1_555
N3L Cu1 1_555 1_555
N3T N3 1_555 1_555
N3D Cu1D 1_555 1_555
N3P Cu1H 1_555 1_555
N3H Cu1H 1_555 1_555
C1D H1D 1_555 1_555
C1H H1H 1_555 1_555
C2D N1D 1_555 1_555
C2H N1H 1_555 1_555
H2D C2D 1_555 1_555
H2H C2H 1_555 1_555
C3D C2D 1_555 1_555
C3H C2H 1_555 1_555
H3D C3D 1_555 1_555
H3H C3H 1_555 1_555
C4D C3D 1_555 1_555
C4H C3H 1_555 1_555
H4D C4D 1_555 1_555
H4H C4H 1_555 1_555
C5D C1D 1_555 1_555
C5H C1H 1_555 1_555
C6T N2 1_555 1_555
C6D N2D 1_555 1_555
C6P N2D 1_555 1_555
C6H N2H 1_555 1_555
C6L N2H 1_555 1_555
H5D C6D 1_555 1_555
H5T C6T 1_555 1_555
H5P C6P 1_555 1_555
H5H C6H 1_555 1_555
H5L C6L 1_555 1_555
O3G Cl1 1_555 1_555
O3J Cl1 1_555 1_555
O5C Cl2 1_555 1_555
O5OA Cl2 1_555 1_555
O5PA Cl2 1_555 1_555
N3 C6 1_555 1_555
C4 C5 1_555 1_555
Cu1D N3T 1_555 1_555
N3L N3H 1_555 1_555
N3L C6L 1_555 1_555
N3T C6T 1_555 1_555
N3D N3P 1_555 1_555
N3D C6D 1_555 1_555
N3P C6P 1_555 1_555
N3H C6H 1_555 1_555
C4D C5D 1_555 1_555
C4H C5H 1_555 1_555

#END
