
#######################################################################
#
#                 Cambridge Crystallographic Data Centre
#                                CCDC 
#
#######################################################################
#
# If this CIF has been generated from an entry in the Cambridge 
# Structural Database, then it will include bibliographic, chemical, 
# crystal, experimental, refinement or atomic coordinate data resulting 
# from the CCDC's data processing and validation procedures.
#
#######################################################################

data_LIPRAE
_chemical_formula_moiety         '(C21 H26 Cl2 Cu3 N12 O13 2+)n'
_symmetry_cell_setting           cubic
_symmetry_space_group_name_H-M   'I -4 3 m'
_symmetry_Int_Tables_number      217
_space_group_name_Hall           'I -4 2 3'
loop_
_symmetry_equiv_pos_site_id
_symmetry_equiv_pos_as_xyz
1 x,y,z
2 -x,-y,z
3 -x,y,-z
4 x,-y,-z
5 z,x,y
6 z,-x,-y
7 -z,-x,y
8 -z,x,-y
9 y,z,x
10 -y,z,-x
11 y,-z,-x
12 -y,-z,x
13 y,x,z
14 -y,-x,z
15 y,-x,-z
16 -y,x,-z
17 x,z,y
18 -x,z,-y
19 -x,-z,y
20 x,-z,-y
21 z,y,x
22 z,-y,-x
23 -z,y,-x
24 -z,-y,x
25 1/2+x,1/2+y,1/2+z
26 1/2-x,1/2-y,1/2+z
27 1/2-x,1/2+y,1/2-z
28 1/2+x,1/2-y,1/2-z
29 1/2+z,1/2+x,1/2+y
30 1/2+z,1/2-x,1/2-y
31 1/2-z,1/2-x,1/2+y
32 1/2-z,1/2+x,1/2-y
33 1/2+y,1/2+z,1/2+x
34 1/2-y,1/2+z,1/2-x
35 1/2+y,1/2-z,1/2-x
36 1/2-y,1/2-z,1/2+x
37 1/2+y,1/2+x,1/2+z
38 1/2-y,1/2-x,1/2+z
39 1/2+y,1/2-x,1/2-z
40 1/2-y,1/2+x,1/2-z
41 1/2+x,1/2+z,1/2+y
42 1/2-x,1/2+z,1/2-y
43 1/2-x,1/2-z,1/2+y
44 1/2+x,1/2-z,1/2-y
45 1/2+z,1/2+y,1/2+x
46 1/2+z,1/2-y,1/2-x
47 1/2-z,1/2+y,1/2-x
48 1/2-z,1/2-y,1/2+x
_cell_length_a                   21.1318(13)
_cell_length_b                   21.1318(13)
_cell_length_c                   21.1318(13)
_cell_angle_alpha                90
_cell_angle_beta                 90
_cell_angle_gamma                90
_cell_volume                     9436.47
loop_
_atom_site_label
_atom_site_type_symbol
_atom_site_fract_x
_atom_site_fract_y
_atom_site_fract_z
_atom_site_U_iso_or_equiv
_atom_site_thermal_displace_type
Cu1 Cu -0.28610(5) -0.17175(5) -0.17175(5) 0.0377 Uani
O1 O -0.1993(3) -0.1993(3) -0.1993(3) 0.0330 Uani
O2 O -0.1054(4) -0.1054(4) -0.2314(6) 0.1067 Uani
C1 C -0.3982(4) 0.1151(4) -0.3982(5) 0.0417 Uani
H1 H -0.4177 0.1494 -0.4177 0.0500 Uiso
C2 C -0.4151(4) 0.0562(4) -0.4151(5) 0.0520 Uani
H2 H -0.4460 0.0506 -0.4460 0.0630 Uiso
C3 C -0.3873(4) 0.0036(4) -0.3873(5) 0.0437 Uani
H3 H -0.3987 -0.0373 -0.3987 0.0530 Uiso
C4 C -0.3430(4) 0.0148(4) -0.3430(4) 0.0373 Uani
C5 C -0.3261(4) 0.0760(4) -0.3261(4) 0.0380 Uani
H4 H -0.2954 0.0829 -0.2954 0.0450 Uiso
C6 C -0.3289(4) -0.0660(4) -0.2565(4) 0.0497 Uani
H5 H -0.3646 -0.0561 -0.2328 0.0600 Uiso
N1 N -0.3546(3) 0.1256(3) -0.3546(3) 0.0340 Uani
N2 N -0.3113(3) -0.0369(3) -0.3113(4) 0.0393 Uani
N3 N -0.2882(3) -0.1092(3) -0.2427(3) 0.0410 Uani
Cu1EA Cu -0.32825(5) 0.21390(5) -0.32825(5) 0.0377 Uani
Cu1H Cu -0.17175(5) -0.17175(5) -0.28610(5) 0.0377 Uani
Cu1AA Cu 0.21390(5) -0.32825(5) -0.32825(5) 0.0377 Uani
Cu1D Cu -0.17175(5) -0.28610(5) -0.17175(5) 0.0377 Uani
Cu1IA Cu -0.32825(5) -0.32825(5) 0.21390(5) 0.0377 Uani
O2H O -0.1054(4) -0.2314(6) -0.1054(4) 0.1067 Uani
O2D O -0.2314(6) -0.1054(4) -0.1054(4) 0.1067 Uani
C1H C 0.1151(4) -0.3982(5) -0.3982(4) 0.0417 Uani
C1D C -0.3982(5) -0.3982(4) 0.1151(4) 0.0417 Uani
H1H H 0.1494 -0.4177 -0.4177 0.0500 Uiso
H1D H -0.4177 -0.4177 0.1494 0.0500 Uiso
C2H C 0.0562(4) -0.4151(5) -0.4151(4) 0.0520 Uani
C2D C -0.4151(5) -0.4151(4) 0.0562(4) 0.0520 Uani
H2H H 0.0506 -0.4460 -0.4460 0.0630 Uiso
H2D H -0.4460 -0.4460 0.0506 0.0630 Uiso
C3H C 0.0036(4) -0.3873(5) -0.3873(4) 0.0437 Uani
C3D C -0.3873(5) -0.3873(4) 0.0036(4) 0.0437 Uani
H3H H -0.0373 -0.3987 -0.3987 0.0530 Uiso
H3D H -0.3987 -0.3987 -0.0373 0.0530 Uiso
C4H C 0.0148(4) -0.3430(4) -0.3430(4) 0.0373 Uani
C4D C -0.3430(4) -0.3430(4) 0.0148(4) 0.0373 Uani
C5H C 0.0760(4) -0.3261(4) -0.3261(4) 0.0380 Uani
C5D C -0.3261(4) -0.3261(4) 0.0760(4) 0.0380 Uani
H4H H 0.0829 -0.2954 -0.2954 0.0450 Uiso
H4D H -0.2954 -0.2954 0.0829 0.0450 Uiso
C6H C -0.0660(4) -0.2565(4) -0.3289(4) 0.0497 Uani
C6T C -0.2565(4) -0.0660(4) -0.3289(4) 0.0497 Uani
C6L C -0.0660(4) -0.3289(4) -0.2565(4) 0.0497 Uani
C6P C -0.3289(4) -0.2565(4) -0.0660(4) 0.0497 Uani
C6D C -0.2565(4) -0.3289(4) -0.0660(4) 0.0497 Uani
H5H H -0.0561 -0.2328 -0.3646 0.0600 Uiso
H5T H -0.2328 -0.0561 -0.3646 0.0600 Uiso
H5L H -0.0561 -0.3646 -0.2328 0.0600 Uiso
H5P H -0.3646 -0.2328 -0.0561 0.0600 Uiso
H5D H -0.2328 -0.3646 -0.0561 0.0600 Uiso
N1DA N -0.1454(3) -0.1454(3) -0.3744(3) 0.0340 Uani
N1H N 0.1256(3) -0.3546(3) -0.3546(3) 0.0340 Uani
N1Z N -0.1454(3) -0.3744(3) -0.1454(3) 0.0340 Uani
N1HA N -0.3744(3) -0.1454(3) -0.1454(3) 0.0340 Uani
N1D N -0.3546(3) -0.3546(3) 0.1256(3) 0.0340 Uani
N2H N -0.0369(3) -0.3113(4) -0.3113(3) 0.0393 Uani
N2D N -0.3113(4) -0.3113(3) -0.0369(3) 0.0393 Uani
N3H N -0.1092(3) -0.2427(3) -0.2882(3) 0.0410 Uani
N3T N -0.2427(3) -0.1092(3) -0.2882(3) 0.0410 Uani
N3L N -0.1092(3) -0.2882(3) -0.2427(3) 0.0410 Uani
N3D N -0.2427(3) -0.2882(3) -0.1092(3) 0.0410 Uani
N3P N -0.2882(3) -0.2427(3) -0.1092(3) 0.0410 Uani
Cl1 Cl -0.79100(17) 0.20900(17) -0.79100(17) 0.0677 Uani
O3 O -0.8298(6) 0.1702(6) -0.8298(6) 0.1000 Uani
O4 O -0.7530(4) 0.1714(5) -0.7530(4) 0.0797 Uani
O4D O -0.7530(4) 0.2470(4) -0.8286(5) 0.0797 Uani
O4H O -0.8286(5) 0.2470(4) -0.7530(4) 0.0797 Uani
Cl2 Cl -0.5000 0.2500 -1.0000 0.0503 Uani
O5 O -0.4838(4) 0.2898(4) -0.9466(3) 0.0717 Uani
O5B O -0.5162(4) 0.2898(4) -1.0534(3) 0.0717 Uani
O5SA O -0.4466(3) 0.2102(4) -1.0162(4) 0.0717 Uani
O5UA O -0.5534(3) 0.2102(4) -0.9838(4) 0.0717 Uani
O11 O -0.155(3) 0.155(3) -0.010(5) 0.2823 Uani
loop_
_atom_site_aniso_label
_atom_site_aniso_U_11
_atom_site_aniso_U_22
_atom_site_aniso_U_33
_atom_site_aniso_U_23
_atom_site_aniso_U_13
_atom_site_aniso_U_12
Cu1 0.0296 0.0417 0.0417 0.013 0.007 0.007
O1 0.033 0.033 0.033 0.005 0.005 0.005
O2 0.126 0.126 0.068 -0.011 -0.011 -0.083
C1 0.048 0.029 0.048 0.007 -0.009 0.007
C2 0.059 0.038 0.059 0.006 -0.025 0.006
C3 0.053 0.025 0.053 0 -0.007 0
C4 0.044 0.024 0.044 0.002 0 0.002
C5 0.039 0.036 0.039 -0.002 0.002 -0.002
C6 0.049 0.046 0.054 0.021 0.021 0.016
N1 0.038 0.026 0.038 -0.002 0.004 -0.002
N2 0.043 0.032 0.043 0.013 0.005 0.013
N3 0.031 0.044 0.048 0.012 0.008 0.007
Cu1EA 0.0417 0.0296 0.0417 -0.007 0.013 -0.007
Cu1H 0.0417 0.0417 0.0296 0.007 0.007 0.013
Cu1AA 0.0296 0.0417 0.0417 0.013 -0.007 -0.007
Cu1D 0.0417 0.0296 0.0417 0.007 0.013 0.007
Cu1IA 0.0417 0.0417 0.0296 -0.007 -0.007 0.013
O2H 0.126 0.068 0.126 -0.011 -0.083 -0.011
O2D 0.068 0.126 0.126 -0.083 -0.011 -0.011
C1H 0.029 0.048 0.048 -0.009 0.007 0.007
C1D 0.048 0.048 0.029 0.007 0.007 -0.009
C2H 0.038 0.059 0.059 -0.025 0.006 0.006
C2D 0.059 0.059 0.038 0.006 0.006 -0.025
C3H 0.025 0.053 0.053 -0.007 0 0
C3D 0.053 0.053 0.025 0 0 -0.007
C4H 0.024 0.044 0.044 0 0.002 0.002
C4D 0.044 0.044 0.024 0.002 0.002 0
C5H 0.036 0.039 0.039 0.002 -0.002 -0.002
C5D 0.039 0.039 0.036 -0.002 -0.002 0.002
C6H 0.046 0.054 0.049 0.021 0.016 0.021
C6T 0.054 0.046 0.049 0.016 0.021 0.021
C6L 0.046 0.049 0.054 0.021 0.021 0.016
C6P 0.049 0.054 0.046 0.021 0.016 0.021
C6D 0.054 0.049 0.046 0.016 0.021 0.021
N1DA 0.038 0.038 0.026 0.002 0.002 0.004
N1H 0.026 0.038 0.038 0.004 -0.002 -0.002
N1Z 0.038 0.026 0.038 0.002 0.004 0.002
N1HA 0.026 0.038 0.038 0.004 0.002 0.002
N1D 0.038 0.038 0.026 -0.002 -0.002 0.004
N2H 0.032 0.043 0.043 0.005 0.013 0.013
N2D 0.043 0.043 0.032 0.013 0.013 0.005
N3H 0.044 0.048 0.031 0.008 0.007 0.012
N3T 0.048 0.044 0.031 0.007 0.008 0.012
N3L 0.044 0.031 0.048 0.008 0.012 0.007
N3D 0.048 0.031 0.044 0.007 0.012 0.008
N3P 0.031 0.048 0.044 0.012 0.007 0.008
Cl1 0.0677 0.0677 0.0677 -0.0058 -0.0058 -0.0058
O3 0.1 0.1 0.1 -0.015 -0.015 -0.015
O4 0.083 0.073 0.083 0.003 -0.023 0.003
O4D 0.083 0.083 0.073 0.003 0.003 -0.023
O4H 0.073 0.083 0.083 -0.023 0.003 0.003
Cl2 0.0435 0.064 0.0435 0 0 0
O5 0.087 0.084 0.044 -0.017 0.012 -0.019
O5B 0.087 0.084 0.044 0.017 0.012 0.019
O5SA 0.044 0.084 0.087 -0.019 -0.012 0.017
O5UA 0.044 0.084 0.087 0.019 -0.012 -0.017
O11 0.283 0.283 0.281 -0.002 0.002 0
loop_
_geom_bond_atom_site_label_1
_geom_bond_atom_site_label_2
_geom_bond_site_symmetry_1
_geom_bond_site_symmetry_2
Cu1 O1 1_555 1_555
Cl1 O3 1_555 1_555
Cl2 O5 1_555 1_555
O1 Cu1H 1_555 1_555
O2 Cu1H 1_555 1_555
C1 H1 1_555 1_555
C2 C1 1_555 1_555
H2 C2 1_555 1_555
C3 C2 1_555 1_555
H3 C3 1_555 1_555
C4 C3 1_555 1_555
C5 C4 1_555 1_555
H4 C5 1_555 1_555
C6 H5 1_555 1_555
O4 Cl1 1_555 1_555
N1 C1 1_555 1_555
N2 C4 1_555 1_555
N3 Cu1 1_555 1_555
Cu1EA N1 1_555 1_555
Cu1H N1DA 1_555 1_555
Cu1AA N1H 1_555 1_555
Cu1D O1 1_555 1_555
Cu1IA N1D 1_555 1_555
O2H Cu1D 1_555 1_555
O2D Cu1 1_555 1_555
C1H H1H 1_555 1_555
C1D H1D 1_555 1_555
C2H C1H 1_555 1_555
C2D C1D 1_555 1_555
H2H C2H 1_555 1_555
H2D C2D 1_555 1_555
C3H C2H 1_555 1_555
C3D C2D 1_555 1_555
H3H C3H 1_555 1_555
H3D C3D 1_555 1_555
C4H C3H 1_555 1_555
C4D C3D 1_555 1_555
C5H C4H 1_555 1_555
C5D C4D 1_555 1_555
H4H C5H 1_555 1_555
H4D C5D 1_555 1_555
C6H H5H 1_555 1_555
C6T N2 1_555 1_555
C6L H5L 1_555 1_555
C6P H5P 1_555 1_555
C6D H5D 1_555 1_555
H5T C6T 1_555 1_555
O4D Cl1 1_555 1_555
O4H Cl1 1_555 1_555
O5B Cl2 1_555 1_555
O5SA Cl2 1_555 1_555
O5UA Cl2 1_555 1_555
N1H C1H 1_555 1_555
N1Z Cu1D 1_555 1_555
N1HA Cu1 1_555 1_555
N1D C1D 1_555 1_555
N2H C4H 1_555 1_555
N2D C4D 1_555 1_555
N3H Cu1H 1_555 1_555
N3T N3 1_555 1_555
N3L Cu1D 1_555 1_555
N3D Cu1D 1_555 1_555
N3P Cu1 1_555 1_555
C5 N1 1_555 1_555
C6 N2 1_555 1_555
C6 N3 1_555 1_555
Cu1H N3T 1_555 1_555
C5H N1H 1_555 1_555
C5D N1D 1_555 1_555
C6H N2H 1_555 1_555
C6H N3H 1_555 1_555
C6T N3T 1_555 1_555
C6L N2H 1_555 1_555
C6L N3L 1_555 1_555
C6P N2D 1_555 1_555
C6P N3P 1_555 1_555
C6D N2D 1_555 1_555
C6D N3D 1_555 1_555
N3H N3L 1_555 1_555
N3D N3P 1_555 1_555

#END
