
#######################################################################
#
#                 Cambridge Crystallographic Data Centre
#                                CCDC 
#
#######################################################################
#
# If this CIF has been generated from an entry in the Cambridge 
# Structural Database, then it will include bibliographic, chemical, 
# crystal, experimental, refinement or atomic coordinate data resulting 
# from the CCDC's data processing and validation procedures.
#
#######################################################################

data_CERMIV
_chemical_formula_moiety         '(C12 H22 O20 Pr2)n'
_symmetry_cell_setting           hexagonal
_symmetry_space_group_name_H-M   'P -6 2 c'
_symmetry_Int_Tables_number      190
_space_group_name_Hall           'P -6c -2c'
loop_
_symmetry_equiv_pos_site_id
_symmetry_equiv_pos_as_xyz
1 x,y,z
2 -y,x-y,z
3 -x+y,-x,z
4 x,y,1/2-z
5 -y,x-y,1/2-z
6 -x+y,-x,1/2-z
7 y,x,-z
8 x-y,-y,-z
9 -x,-x+y,-z
10 y,x,1/2+z
11 x-y,-y,1/2+z
12 -x,-x+y,1/2+z
_cell_length_a                   9.4003(12)
_cell_length_b                   9.4003(12)
_cell_length_c                   17.350(4)
_cell_angle_alpha                90
_cell_angle_beta                 90
_cell_angle_gamma                120
_cell_volume                     1327.74
loop_
_atom_site_label
_atom_site_type_symbol
_atom_site_fract_x
_atom_site_fract_y
_atom_site_fract_z
Pr1 Pr 0.6667 0.3333 0.2500
Pr2 Pr 0.0000 0.0000 0.0000
O1 O 0.2108(5) 0.1722(5) 0.0965(2)
O2 O 0.4473(5) 0.2704(5) 0.1572(2)
O3 O 0.2715(6) 0.0000 0.0000
C1 C 0.3484(5) 0.1825(14) 0.1061(2)
C2 C 0.4000(8) 0.0929(9) 0.0534(4)
H1 H 0.4985 0.1703 0.0259
H2 H 0.4246 0.0201 0.0828
O4 O 0.5625(9) 0.5502(9) 0.2500
O2A O 0.7296(5) 0.1769(7) 0.1572(2)
O2B O 0.8231(7) 0.5527(5) 0.1572(2)
O2C O 0.4473(5) 0.2704(5) 0.3428(2)
O2D O 0.7296(5) 0.1769(7) 0.3428(2)
O2E O 0.8231(7) 0.5527(5) 0.3428(2)
O4A O 0.4498(9) 0.0123(13) 0.2500
O4B O 0.9877(13) 0.4375(9) 0.2500
O1A O -0.1722(5) 0.0386(7) 0.0965(2)
O1B O -0.0386(7) -0.2108(5) 0.0965(2)
O1F O 0.1722(5) 0.2108(5) -0.0965(2)
O1G O 0.0386(7) -0.1722(5) -0.0965(2)
O1H O -0.2108(5) -0.0386(7) -0.0965(2)
O3A O 0.0000 0.2715(6) 0.0000
O3B O -0.2715(6) -0.2715(6) 0.0000
C2G C 0.3071(12) -0.0929(9) -0.0534(4)
C1A C -0.1825(14) 0.1659(15) 0.1061(2)
C1B C -0.1659(15) -0.3484(5) 0.1061(2)
C1F C 0.1825(14) 0.3484(5) -0.1061(2)
C1G C 0.1659(15) -0.1825(14) -0.1061(2)
C1H C -0.3484(5) -0.1659(15) -0.1061(2)
C2A C -0.0929(9) 0.3071(12) 0.0534(4)
C2F C 0.0929(9) 0.4000(8) -0.0534(4)
C2B C -0.3071(12) -0.4000(8) 0.0534(4)
C2H C -0.4000(8) -0.3071(12) -0.0534(4)
H1G H 0.3282 -0.1703 -0.0259
H2G H 0.4045 -0.0201 -0.0828
O2A_2 O -0.2704(5) 0.1769(7) 0.1572(2)
O2B_2 O -0.1769(7) -0.4473(5) 0.1572(2)
O2F O 0.2704(5) 0.4473(5) -0.1572(2)
O2G O 0.1769(7) -0.2704(5) -0.1572(2)
O2H O -0.4473(5) -0.1769(7) -0.1572(2)
H1A H -0.1703 0.3282 0.0259
H2A H -0.0201 0.4045 0.0828
H1F H 0.1703 0.4985 -0.0259
H2F H 0.0201 0.4246 -0.0828
H1B H -0.3282 -0.4985 0.0259
H2B H -0.4045 -0.4246 0.0828
H1H H -0.4985 -0.3282 -0.0259
H2H H -0.4246 -0.4045 -0.0828
Pr1_2 Pr -0.3333 0.3333 0.2500
Pr1_3 Pr -0.3333 -0.6667 0.2500
Pr1F Pr 0.3333 0.6667 -0.2500
Pr1F_2 Pr 0.3333 -0.3333 -0.2500
Pr1F_3 Pr -0.6667 -0.3333 -0.2500
O5 O 0.158(3) 0.285(2) 0.2500
O7 O 0.226(3) -0.296(3) 0.1299(11)
loop_
_geom_bond_atom_site_label_1
_geom_bond_atom_site_label_2
_geom_bond_site_symmetry_1
_geom_bond_site_symmetry_2
Pr1 O2 1_555 1_555
Pr2 O1 1_555 1_555
O1 C1 1_555 1_555
O2 C1 1_555 1_555
O3 Pr2 1_555 1_555
C1 C2 1_555 1_555
C2 O3 1_555 1_555
H1 C2 1_555 1_555
H2 C2 1_555 1_555
O4 Pr1 1_555 1_555
O2A Pr1 1_555 1_555
O2B Pr1 1_555 1_555
O2C Pr1 1_555 1_555
O2D Pr1 1_555 1_555
O2E Pr1 1_555 1_555
O4A Pr1 1_555 1_555
O4B Pr1 1_555 1_555
O1A Pr2 1_555 1_555
O1B Pr2 1_555 1_555
O1F Pr2 1_555 1_555
O1G Pr2 1_555 1_555
O1H Pr2 1_555 1_555
O3A Pr2 1_555 1_555
O3B Pr2 1_555 1_555
C2G O3 1_555 1_555
C1A O1A 1_555 1_555
C1B O1B 1_555 1_555
C1F O1F 1_555 1_555
C1G O1G 1_555 1_555
C1H O1H 1_555 1_555
C2A O3A 1_555 1_555
C2F O3A 1_555 1_555
C2B O3B 1_555 1_555
C2H O3B 1_555 1_555
H1G C2G 1_555 1_555
H2G C2G 1_555 1_555
O2A_2 C1A 1_555 1_555
O2B_2 C1B 1_555 1_555
O2F C1F 1_555 1_555
O2G C1G 1_555 1_555
O2H C1H 1_555 1_555
H1A C2A 1_555 1_555
H2A C2A 1_555 1_555
H1F C2F 1_555 1_555
H2F C2F 1_555 1_555
H1B C2B 1_555 1_555
H2B C2B 1_555 1_555
H1H C2H 1_555 1_555
H2H C2H 1_555 1_555
Pr1_2 O2A_2 1_555 1_555
Pr1_3 O2B_2 1_555 1_555
Pr1F O2F 1_555 1_555
Pr1F_2 O2G 1_555 1_555
Pr1F_3 O2H 1_555 1_555
C2G C1G 1_555 1_555
C1A C2A 1_555 1_555
C1B C2B 1_555 1_555
C1F C2F 1_555 1_555
C1H C2H 1_555 1_555

#END
