
#######################################################################
#
#                 Cambridge Crystallographic Data Centre
#                                CCDC 
#
#######################################################################
#
# If this CIF has been generated from an entry in the Cambridge 
# Structural Database, then it will include bibliographic, chemical, 
# crystal, experimental, refinement or atomic coordinate data resulting 
# from the CCDC's data processing and validation procedures.
#
#######################################################################

data_OFODAP
_chemical_formula_moiety         '(C31 H41 Cd2 N7 O13)n'
_symmetry_cell_setting           orthorhombic
_symmetry_space_group_name_H-M   'P n a 21'
_symmetry_Int_Tables_number      33
_space_group_name_Hall           'P 2c -2n'
loop_
_symmetry_equiv_pos_site_id
_symmetry_equiv_pos_as_xyz
1 x,y,z
2 -x,-y,1/2+z
3 1/2+x,1/2-y,z
4 1/2-x,1/2+y,1/2+z
_cell_length_a                   23.5160(11)
_cell_length_b                   15.1207(7)
_cell_length_c                   12.8597(6)
_cell_angle_alpha                90
_cell_angle_beta                 90
_cell_angle_gamma                90
_cell_volume                     4572.63
loop_
_atom_site_label
_atom_site_type_symbol
_atom_site_fract_x
_atom_site_fract_y
_atom_site_fract_z
_atom_site_U_iso_or_equiv
_atom_site_thermal_displace_type
Cd1 Cd -0.38505(4) -0.36013(6) -0.36730(8) 0.0352 Uani
Cd2 Cd -0.50014(4) -0.23267(5) -0.25250(9) 0.0303 Uani
O1 O -0.5016(4) -0.3574(7) -0.1379(8) 0.0467 Uani
O2 O -0.4191(4) -0.3220(6) -0.2067(7) 0.0403 Uani
O3 O -0.5230(5) -0.6150(8) 0.0839(8) 0.0687 Uani
O4 O -0.4498(4) -0.6970(6) 0.1268(10) 0.0500 Uani
O5 O -0.1168(4) -0.7160(7) 0.0915(8) 0.0590 Uani
O6 O -0.0398(4) -0.6404(6) 0.1375(11) 0.0537 Uani
O7 O -0.0786(4) -0.3291(7) -0.1913(8) 0.0557 Uani
O8 O -0.0085(4) -0.3749(6) -0.1056(8) 0.0530 Uani
O9 O -0.2935(4) -0.3505(7) -0.3285(9) 0.0633 Uani
O10 O -0.3641(5) -0.4083(9) -0.5290(9) 0.0677 Uani
O11 O -0.3814(5) -0.5044(6) -0.3237(7) 0.0540 Uani
N1 N -0.2809(4) -0.5368(8) -0.0151(9) 0.0407 Uani
N2 N -0.2503(4) -0.4819(8) -0.0535(9) 0.0390 Uani
N3 N -0.2026(5) -0.3913(9) -0.3511(14) 0.0647 Uani
N4 N -0.4031(8) -0.4438(12) -0.6892(12) 0.0817 Uani
N5 N -0.3967(5) -0.6484(9) -0.3641(15) 0.0683 Uani
C1 C -0.4499(6) -0.3712(9) -0.1469(10) 0.0293 Uani
C2 C -0.4227(5) -0.4437(9) -0.0908(10) 0.0330 Uani
C3 C -0.4583(5) -0.5062(9) -0.0340(9) 0.0320 Uani
H1 H -0.4976 -0.4998 -0.0348 0.0390 Uiso
C4 C -0.4348(5) -0.5718(9) 0.0188(10) 0.0323 Uani
C5 C -0.4719(6) -0.6337(11) 0.0786(11) 0.0397 Uani
C6 C -0.3768(5) -0.5831(10) 0.0217(11) 0.0393 Uani
H2 H -0.3615 -0.6317 0.0562 0.0470 Uiso
C7 C -0.3404(6) -0.5223(10) -0.0268(12) 0.0463 Uani
C8 C -0.3628(5) -0.4541(9) -0.0873(11) 0.0380 Uani
H3 H -0.3391 -0.4164 -0.1244 0.0460 Uiso
C9 C -0.1925(5) -0.4946(10) -0.0379(10) 0.0387 Uani
C10 C -0.1708(5) -0.5658(9) 0.0184(10) 0.0373 Uani
H4 H -0.1955 -0.6074 0.0464 0.0450 Uiso
C11 C -0.1104(6) -0.5756(10) 0.0337(10) 0.0380 Uani
C12 C -0.0866(7) -0.6492(9) 0.0935(10) 0.0400 Uani
C13 C -0.0746(5) -0.5059(12) -0.0110(11) 0.0383 Uani
H5 H -0.0356 -0.5082 0.0004 0.0460 Uiso
C14 C -0.0956(6) -0.4390(9) -0.0677(10) 0.0337 Uani
C15 C -0.0573(6) -0.3746(9) -0.1280(12) 0.0340 Uani
C16 C -0.1541(6) -0.4341(9) -0.0793(11) 0.0417 Uani
H6 H -0.1688 -0.3871 -0.1174 0.0500 Uiso
C17 C -0.2583(7) -0.4034(14) -0.3395(12) 0.0653 Uani
H7 H -0.2706 -0.4619 -0.3403 0.0790 Uiso
C18 C -0.1842(8) -0.3003(13) -0.372(2) 0.1023 Uani
H8 H -0.2113 -0.2721 -0.4174 0.1530 Uiso
H9 H -0.1477 -0.3012 -0.4055 0.1530 Uiso
H10 H -0.1818 -0.2680 -0.3083 0.1530 Uiso
C19 C -0.1615(8) -0.4631(13) -0.374(2) 0.1080 Uani
H11 H -0.1796 -0.5071 -0.4169 0.1620 Uiso
H12 H -0.1489 -0.4896 -0.3106 0.1620 Uiso
H13 H -0.1294 -0.4391 -0.4109 0.1620 Uiso
C20 C -0.3932(10) -0.3958(14) -0.6057(19) 0.0883 Uani
H14 H -0.4122 -0.3418 -0.6053 0.1060 Uiso
C21 C -0.4409(10) -0.4118(17) -0.7746(18) 0.1417 Uani
H15 H -0.4768 -0.4418 -0.7708 0.2120 Uiso
H16 H -0.4234 -0.4237 -0.8405 0.2120 Uiso
H17 H -0.4468 -0.3493 -0.7673 0.2120 Uiso
C22 C -0.3723(10) -0.5239(15) -0.7039(15) 0.1023 Uani
H18 H -0.3346 -0.5174 -0.6760 0.1520 Uiso
H19 H -0.3699 -0.5369 -0.7769 0.1520 Uiso
H20 H -0.3914 -0.5713 -0.6688 0.1520 Uiso
C23 C -0.3970(7) -0.5604(11) -0.3766(19) 0.0683 Uani
H21 H -0.4125 -0.5414 -0.4392 0.0820 Uiso
C24 C -0.4044(11) -0.7109(16) -0.4432(17) 0.1290 Uani
H22 H -0.4202 -0.6825 -0.5034 0.1930 Uiso
H23 H -0.4299 -0.7562 -0.4196 0.1930 Uiso
H24 H -0.3685 -0.7369 -0.4609 0.1930 Uiso
C25 C -0.3679(12) -0.6748(18) -0.263(2) 0.1527 Uani
H25 H -0.3296 -0.6526 -0.2619 0.2290 Uiso
H26 H -0.3673 -0.7381 -0.2570 0.2290 Uiso
H27 H -0.3886 -0.6503 -0.2052 0.2290 Uiso
Cd1A Cd -0.61495(4) -0.63987(6) 0.13270(8) 0.0352 Uani
Cd1C Cd -0.11495(4) -0.86013(6) 0.13270(8) 0.0352 Uani
Cd2A Cd -0.49986(4) -0.76733(5) 0.24750(9) 0.0303 Uani
Cd2C Cd 0.00014(4) -0.73267(5) 0.24750(9) 0.0303 Uani
Cd2B Cd -0.00014(4) -0.26733(5) -0.25250(9) 0.0303 Uani
O3A O -0.4770(5) -0.3850(8) -0.4161(8) 0.0687 Uani
O4A O -0.5502(4) -0.3030(6) -0.3732(10) 0.0500 Uani
O5C O -0.3832(4) -0.2160(7) -0.4085(8) 0.0590 Uani
O6C O -0.4602(4) -0.1404(6) -0.3625(11) 0.0537 Uani
O7B O -0.5786(4) -0.1709(7) -0.1913(8) 0.0557 Uani
O8B O -0.5085(4) -0.1251(6) -0.1056(8) 0.0530 Uani
O12 O -0.7164(12) -0.127(2) -0.632(2) 0.2100 Uani
N6 N -0.7760(11) -0.2067(17) -0.718(2) 0.1377 Uani
C26 C -0.7525(16) -0.194(3) -0.633(3) 0.1667 Uani
C27 C -0.8219(13) -0.279(2) -0.720(3) 0.1643 Uani
C28 C -0.7623(17) -0.172(3) -0.817(3) 0.2167 Uani
O13 O -0.7659(9) -0.8868(15) -0.464(2) 0.1710 Uani
N7 N -0.7242(12) -0.8565(18) -0.6036(19) 0.1363 Uani
C29 C -0.7469(11) -0.906(2) -0.546(2) 0.1177 Uani
C30 C -0.678(3) -0.853(4) -0.679(5) 0.3400 Uani
C31 C -0.713(2) -0.772(3) -0.585(4) 0.2467 Uani
loop_
_atom_site_aniso_label
_atom_site_aniso_U_11
_atom_site_aniso_U_22
_atom_site_aniso_U_33
_atom_site_aniso_U_23
_atom_site_aniso_U_13
_atom_site_aniso_U_12
Cd1 0.0307 0.0317 0.0432 -0.0011 -0.0006 0.0012
Cd2 0.0278 0.0264 0.0366 -0.0009 0.0013 0.0021
O1 0.028 0.051 0.061 0.019 0.003 0.005
O2 0.041 0.034 0.046 0.006 -0.008 0
O3 0.043 0.084 0.079 0.036 0.009 -0.004
O4 0.046 0.046 0.058 0.023 -0.008 0
O5 0.045 0.039 0.093 0.022 -0.016 0.001
O6 0.038 0.052 0.071 0.021 -0.019 0
O7 0.058 0.053 0.056 0.033 -0.004 -0.007
O8 0.042 0.035 0.082 0.01 -0.023 -0.006
O9 0.027 0.059 0.104 -0.021 -0.014 0.015
O10 0.071 0.083 0.049 -0.017 -0.006 0.018
O11 0.09 0.016 0.056 -0.011 -0.011 -0.006
N1 0.021 0.036 0.065 0.016 0.007 -0.003
N2 0.022 0.043 0.052 0.021 0.005 0.008
N3 0.034 0.067 0.093 0.004 -0.017 0.007
N4 0.105 0.092 0.048 -0.022 -0.009 -0.008
N5 0.083 0.068 0.054 -0.002 -0.016 -0.007
C1 0.031 0.026 0.031 0.002 -0.003 0
C2 0.03 0.044 0.025 0.001 -0.001 0.005
C3 0.032 0.03 0.034 -0.003 0 -0.009
C4 0.033 0.033 0.031 0.01 -0.001 -0.003
C5 0.023 0.054 0.042 -0.009 0 -0.002
C6 0.026 0.041 0.051 0.015 -0.007 -0.005
C7 0.036 0.043 0.06 0.022 -0.002 -0.002
C8 0.025 0.038 0.051 0.017 0.005 0.001
C9 0.028 0.037 0.051 0.005 -0.001 -0.007
C10 0.027 0.038 0.047 0.014 0.011 -0.003
C11 0.034 0.047 0.033 0.005 -0.007 0.007
C12 0.055 0.016 0.049 0.016 0.007 0.009
C13 0.019 0.06 0.036 0.007 -0.009 -0.006
C14 0.033 0.035 0.033 -0.001 0.004 0.001
C15 0.025 0.02 0.057 -0.01 0.012 0
C16 0.045 0.035 0.045 0.011 0 0.005
C17 0.054 0.092 0.05 0 -0.005 -0.014
C18 0.084 0.104 0.119 0.018 -0.024 -0.016
C19 0.069 0.13 0.125 -0.001 -0.031 0.015
C20 0.095 0.066 0.104 -0.014 0.034 -0.002
C21 0.155 0.154 0.116 -0.03 -0.055 0.008
C22 0.13 0.091 0.086 -0.044 -0.008 0.019
C23 0.076 0.049 0.08 0.027 0.006 0.013
C24 0.174 0.096 0.117 -0.035 -0.041 0.002
C25 0.187 0.131 0.14 0.008 -0.018 0.003
Cd1A 0.0307 0.0317 0.0432 0.0011 0.0006 0.0012
Cd1C 0.0307 0.0317 0.0432 -0.0011 0.0006 -0.0012
Cd2A 0.0278 0.0264 0.0366 0.0009 -0.0013 0.0021
Cd2C 0.0278 0.0264 0.0366 -0.0009 -0.0013 -0.0021
Cd2B 0.0278 0.0264 0.0366 0.0009 0.0013 -0.0021
O3A 0.043 0.084 0.079 -0.036 -0.009 -0.004
O4A 0.046 0.046 0.058 -0.023 0.008 0
O5C 0.045 0.039 0.093 0.022 0.016 -0.001
O6C 0.038 0.052 0.071 0.021 0.019 0
O7B 0.058 0.053 0.056 -0.033 -0.004 0.007
O8B 0.042 0.035 0.082 -0.01 -0.023 0.006
O12 0.218 0.206 0.206 -0.014 -0.03 0.015
N6 0.152 0.133 0.128 -0.009 0.009 0.033
C26 0.16 0.17 0.17 -0.024 0.008 0.006
C27 0.159 0.145 0.189 -0.005 0.02 -0.036
C28 0.23 0.21 0.21 0.007 0.008 0.005
O13 0.19 0.163 0.16 0.011 0.032 -0.009
N7 0.175 0.118 0.116 -0.002 0.047 -0.025
C29 0.117 0.134 0.102 -0.003 0.03 -0.024
C30 0.34 0.34 0.34 0.018 0.02 0.03
C31 0.27 0.21 0.26 -0.005 0.023 -0.035
loop_
_geom_bond_atom_site_label_1
_geom_bond_atom_site_label_2
_geom_bond_site_symmetry_1
_geom_bond_site_symmetry_2
Cd1 O2 1_555 1_555
Cd2 O1 1_555 1_555
O1 C1 1_555 1_555
O2 Cd2 1_555 1_555
O3 C5 1_555 1_555
O4 C5 1_555 1_555
O5 C12 1_555 1_555
O6 C12 1_555 1_555
O7 C15 1_555 1_555
O8 C15 1_555 1_555
O9 Cd1 1_555 1_555
O10 Cd1 1_555 1_555
O11 Cd1 1_555 1_555
N1 N2 1_555 1_555
N2 C9 1_555 1_555
N3 C17 1_555 1_555
N4 C20 1_555 1_555
N5 C23 1_555 1_555
C1 O2 1_555 1_555
C2 C1 1_555 1_555
C3 C2 1_555 1_555
H1 C3 1_555 1_555
C4 C3 1_555 1_555
C5 C4 1_555 1_555
C6 C4 1_555 1_555
H2 C6 1_555 1_555
C7 N1 1_555 1_555
C8 C2 1_555 1_555
H3 C8 1_555 1_555
C9 C10 1_555 1_555
C10 H4 1_555 1_555
C11 C10 1_555 1_555
C12 C11 1_555 1_555
C13 C11 1_555 1_555
H5 C13 1_555 1_555
C14 C13 1_555 1_555
C15 C14 1_555 1_555
C16 C9 1_555 1_555
H6 C16 1_555 1_555
C17 O9 1_555 1_555
H7 C17 1_555 1_555
C18 N3 1_555 1_555
H8 C18 1_555 1_555
H9 C18 1_555 1_555
H10 C18 1_555 1_555
C19 N3 1_555 1_555
H11 C19 1_555 1_555
H12 C19 1_555 1_555
H13 C19 1_555 1_555
C20 O10 1_555 1_555
H14 C20 1_555 1_555
C21 N4 1_555 1_555
H15 C21 1_555 1_555
H16 C21 1_555 1_555
H17 C21 1_555 1_555
C22 N4 1_555 1_555
H18 C22 1_555 1_555
H19 C22 1_555 1_555
H20 C22 1_555 1_555
C23 O11 1_555 1_555
H21 C23 1_555 1_555
C24 N5 1_555 1_555
H22 C24 1_555 1_555
H23 C24 1_555 1_555
H24 C24 1_555 1_555
C25 N5 1_555 1_555
H25 C25 1_555 1_555
H26 C25 1_555 1_555
H27 C25 1_555 1_555
O12 C26 1_555 1_555
N6 C26 1_555 1_555
C27 N6 1_555 1_555
C28 N6 1_555 1_555
O13 C29 1_555 1_555
N7 C29 1_555 1_555
C30 N7 1_555 1_555
C31 N7 1_555 1_555
Cd1A O3 1_555 1_555
Cd1C O5 1_555 1_555
Cd2A O4 1_555 1_555
Cd2C O6 1_555 1_555
Cd2B O7 1_555 1_555
O3A Cd1 1_555 1_555
O4A Cd2 1_555 1_555
O5C Cd1 1_555 1_555
O6C Cd2 1_555 1_555
O7B Cd2 1_555 1_555
O8B Cd2 1_555 1_555
O8 Cd2B 1_555 1_555
C6 C7 1_555 1_555
C7 C8 1_555 1_555
C14 C16 1_555 1_555

#END
