
#######################################################################
#
#                 Cambridge Crystallographic Data Centre
#                                CCDC 
#
#######################################################################
#
# If this CIF has been generated from an entry in the Cambridge 
# Structural Database, then it will include bibliographic, chemical, 
# crystal, experimental, refinement or atomic coordinate data resulting 
# from the CCDC's data processing and validation procedures.
#
#######################################################################

data_DIVPUU
_chemical_formula_moiety         '(C10 H6 Ag1 F6 N4 O6 S1 1+)n'
_symmetry_cell_setting           trigonal
_symmetry_space_group_name_H-M   'P 31 2 1'
_symmetry_Int_Tables_number      152
_space_group_name_Hall           'P 31 2"'
loop_
_symmetry_equiv_pos_site_id
_symmetry_equiv_pos_as_xyz
1 x,y,z
2 -y,x-y,1/3+z
3 -x+y,-x,2/3+z
4 y,x,-z
5 x-y,-y,2/3-z
6 -x,-x+y,1/3-z
_cell_length_a                   10.8161(1)
_cell_length_b                   10.8161(1)
_cell_length_c                   9.7482(1)
_cell_angle_alpha                90
_cell_angle_beta                 90
_cell_angle_gamma                120
_cell_volume                     987.635
loop_
_atom_site_label
_atom_site_type_symbol
_atom_site_fract_x
_atom_site_fract_y
_atom_site_fract_z
S1 S 0.3205(2) 0.3205(2) 0.5000
O1 O 0.3145(15) 0.424(2) 0.4287(17)
O2 O 0.327(2) 0.3263(19) 0.6484(13)
O3 O 0.4301(13) 0.2927(16) 0.463(3)
C5 C 0.1817(11) 0.1568(12) 0.440(2)
F1 F 0.0546(10) 0.1417(10) 0.4309(11)
F2 F 0.1586(16) 0.0372(16) 0.4967(15)
F3 F 0.192(3) 0.124(3) 0.3105(19)
O1C O 0.424(2) 0.3145(15) 0.5713(17)
O2C O 0.3263(19) 0.327(2) 0.3516(13)
O3C O 0.2927(16) 0.4301(13) 0.537(3)
C5C C 0.1568(12) 0.1817(11) 0.560(2)
F1C F 0.1417(10) 0.0546(10) 0.5691(11)
F2C F 0.0372(16) 0.1586(16) 0.5033(15)
F3C F 0.124(3) 0.192(3) 0.6895(19)
Ag1 Ag 0.51502(5) 0.51502(5) 0.0000
N1 N 0.5672(5) 0.6392(4) 0.2003(4)
N2 N 0.5425(6) 0.8121(6) 0.3263(4)
C1 C 0.6168(6) 0.6077(6) 0.3138(5)
H1 H 0.6430 0.5379 0.3086
C2 C 0.6301(5) 0.6748(5) 0.4369(5)
C3 C 0.5925(6) 0.7787(6) 0.4381(5)
H2 H 0.6021 0.8278 0.5194
C4 C 0.5332(7) 0.7399(7) 0.2128(5)
H3 H 0.4994 0.7627 0.1346
Ag1A Ag 0.48498(5) 1.00000(7) 0.3333
Ag1_2 Ag 0.51502(5) 0.51502(5) 1.0000
Ag1B Ag 1.00000(7) 0.48498(5) 0.6667
N1C N 0.6392(4) 0.5672(5) 0.7997(4)
N1C_2 N 0.6392(4) 0.5672(5) -0.2003(4)
N2C N 0.8121(6) 0.5425(6) 0.6737(4)
N2B N 0.2696(8) 0.4575(6) -0.0070(4)
N2E N 0.4575(6) 0.2696(8) 0.0070(4)
C1C C 0.6077(6) 0.6168(6) 0.6862(5)
H1C H 0.5379 0.6430 0.6914
C2C C 0.6748(5) 0.6301(5) 0.5631(5)
C3C C 0.7787(6) 0.5925(6) 0.5619(5)
H2C H 0.8278 0.6021 0.4806
C4C C 0.7399(7) 0.5332(7) 0.7872(5)
H3C H 0.7627 0.4994 0.8654
loop_
_geom_bond_atom_site_label_1
_geom_bond_atom_site_label_2
_geom_bond_site_symmetry_1
_geom_bond_site_symmetry_2
Ag1 N1 1_555 1_555
N1 C1 1_555 1_555
N2 C3 1_555 1_555
C1 H1 1_555 1_555
C2 C1 1_555 1_555
C3 C2 1_555 1_555
H2 C3 1_555 1_555
C4 N1 1_555 1_555
H3 C4 1_555 1_555
S1 O1 1_555 1_555
O1 O2C 1_555 1_555
O2 S1 1_555 1_555
O3 S1 1_555 1_555
C5 S1 1_555 1_555
F1 C5 1_555 1_555
F2 C5 1_555 1_555
F3 C5 1_555 1_555
Ag1A N2 1_555 1_555
Ag1_2 N1C 1_555 1_555
Ag1B N2C 1_555 1_555
N1C C1C 1_555 1_555
N1C_2 Ag1 1_555 1_555
N2C C3C 1_555 1_555
N2B Ag1 1_555 1_555
N2E Ag1 1_555 1_555
C1C H1C 1_555 1_555
C2C C2 1_555 1_555
C3C C2C 1_555 1_555
H2C C3C 1_555 1_555
C4C N1C 1_555 1_555
H3C C4C 1_555 1_555
O1C S1 1_555 1_555
O2C S1 1_555 1_555
O3C S1 1_555 1_555
C5C S1 1_555 1_555
F1C C5 1_555 1_555
F2C C5 1_555 1_555
F3C C5C 1_555 1_555
N2 C4 1_555 1_555
O1 O3C 1_555 1_555
O2 O1C 1_555 1_555
O2 O3C 1_555 1_555
O3 O1C 1_555 1_555
O3 O2C 1_555 1_555
C5 C5C 1_555 1_555
F1 C5C 1_555 1_555
F1 F2C 1_555 1_555
F2 C5C 1_555 1_555
F2 F1C 1_555 1_555
N2C C4C 1_555 1_555
C1C C2C 1_555 1_555
C5C F1C 1_555 1_555
C5C F2C 1_555 1_555

#END
