
#######################################################################
#
#                 Cambridge Crystallographic Data Centre
#                                CCDC 
#
#######################################################################
#
# If this CIF has been generated from an entry in the Cambridge 
# Structural Database, then it will include bibliographic, chemical, 
# crystal, experimental, refinement or atomic coordinate data resulting 
# from the CCDC's data processing and validation procedures.
#
#######################################################################

data_VIYZIO01
_chemical_formula_moiety         '(C37 H29 N3 O10 Zn2)n'
_symmetry_cell_setting           triclinic
_symmetry_space_group_name_H-M   'P -1'
_symmetry_Int_Tables_number      2
_space_group_name_Hall           '-P 1'
loop_
_symmetry_equiv_pos_site_id
_symmetry_equiv_pos_as_xyz
1 x,y,z
2 -x,-y,-z
_cell_length_a                   10.239(2)
_cell_length_b                   12.191(2)
_cell_length_c                   13.910(3)
_cell_angle_alpha                94.60(3)
_cell_angle_beta                 93.75(3)
_cell_angle_gamma                99.87(3)
_cell_volume                     1699.54
loop_
_atom_site_label
_atom_site_type_symbol
_atom_site_fract_x
_atom_site_fract_y
_atom_site_fract_z
Zn1 Zn 0.27797(5) -0.01907(5) 0.77177(4)
Zn2 Zn 0.23890(5) 0.80378(5) 0.53952(4)
O1 O 0.3246(4) 0.1214(3) 0.7161(3)
O2 O 0.1766(4) 0.1518(4) 0.8159(3)
O3 O 0.3945(5) 0.6463(4) 0.5476(3)
O4 O 0.2073(4) 0.6723(3) 0.6071(3)
O5 O 0.4087(3) 0.9020(3) 0.5839(2)
O6 O 0.4305(3) 0.9066(3) 0.7441(2)
O7 O 1.0766(3) 0.8666(3) 0.5628(2)
O8 O 1.1046(3) 0.8958(3) 0.7231(2)
N1 N 0.2349(4) 0.8087(3) 0.3960(3)
N2 N 0.2778(4) 0.9507(4) -0.0854(3)
C1 C 0.2931(5) 0.5111(4) 0.6470(4)
C2 C 0.3285(6) 0.4216(5) 0.5961(4)
H1 H 0.3617 0.4298 0.5360
C3 C 0.3149(5) 0.3176(5) 0.6340(4)
H2 H 0.3390 0.2577 0.5979
C4 C 0.2672(5) 0.3010(4) 0.7226(4)
C5 C 0.1911(6) 0.3867(5) 0.8744(4)
H3 H 0.1807 0.3183 0.9008
C6 C 0.1650(7) 0.4782(6) 0.9269(5)
H4 H 0.1366 0.4711 0.9886
C7 C 0.1797(7) 0.5826(6) 0.8904(4)
H5 H 0.1622 0.6443 0.9279
C8 C 0.2202(6) 0.5938(5) 0.7988(4)
H6 H 0.2296 0.6634 0.7745
C9 C 0.2480(5) 0.5002(4) 0.7407(4)
C10 C 0.2343(5) 0.3942(4) 0.7792(4)
C11 C 0.2556(5) 0.1869(5) 0.7554(4)
C12 C 0.3035(6) 0.6181(5) 0.5974(4)
C13 C 0.6132(4) 0.8711(4) 0.6570(3)
C14 C 0.6790(4) 0.9049(4) 0.5793(3)
H7 H 0.6336 0.9316 0.5287
C15 C 0.8146(4) 0.8999(4) 0.5749(3)
H8 H 0.8570 0.9213 0.5205
C16 C 0.8849(4) 0.8640(4) 0.6493(3)
C17 C 0.8825(5) 0.7709(5) 0.8035(4)
H9 H 0.9730 0.7697 0.8026
C18 C 0.8149(6) 0.7251(5) 0.8759(4)
H10 H 0.8597 0.6950 0.9248
C19 C 0.6781(6) 0.7235(5) 0.8766(4)
H11 H 0.6321 0.6909 0.9255
C20 C 0.6120(5) 0.7688(5) 0.8069(4)
H12 H 0.5207 0.7657 0.8083
C21 C 0.6788(4) 0.8210(4) 0.7316(3)
C22 C 0.8180(4) 0.8200(4) 0.7296(3)
C23 C 0.4733(4) 0.8940(4) 0.6621(3)
C24 C 1.0329(4) 0.8751(4) 0.6451(4)
C25 C 0.3484(5) 0.8117(4) 0.3520(3)
H13 H 0.4233 0.7976 0.3871
C26 C 0.3586(5) 0.8346(4) 0.2576(3)
H14 H 0.4387 0.8345 0.2296
C27 C 0.2496(5) 0.8579(4) 0.2039(3)
C28 C 0.1317(5) 0.8511(5) 0.2484(4)
H15 H 0.0551 0.8632 0.2143
C29 C 0.1280(5) 0.8266(5) 0.3428(3)
H16 H 0.0478 0.8223 0.3712
C30 C 0.2592(5) 0.8891(4) 0.1039(3)
C31 C 0.3497(6) 0.8527(6) 0.0447(4)
H17 H 0.4064 0.8068 0.0674
C32 C 0.3554(6) 0.8846(6) -0.0478(4)
H18 H 0.4167 0.8588 -0.0863
C33 C 0.1944(6) 0.9885(6) -0.0272(4)
H19 H 0.1424 1.0378 -0.0501
C34 C 0.1812(6) 0.9579(6) 0.0658(4)
H20 H 0.1188 0.9845 0.1028
Zn1_2 Zn 0.27797(5) 0.98093(5) -0.22823(4)
Zn1_3 Zn 0.27797(5) 0.98093(5) 0.77177(4)
Zn1_4 Zn 1.27797(5) 0.98093(5) 0.77177(4)
Zn2_2 Zn 1.23890(5) 0.80378(5) 0.53952(4)
O6_2 O 0.4305(3) -0.0934(3) 0.7441(2)
O7_2 O 0.0766(3) 0.8666(3) 0.5628(2)
O8_2 O 0.1046(3) -0.1042(3) 0.7231(2)
N2_2 N 0.2778(4) -0.0493(4) 0.9146(3)
O9 O 0.2308(6) 0.5872(5) 0.1504(4)
N3 N 0.2006(6) 0.5212(5) 0.2972(5)
C35 C 0.1615(8) 0.5598(7) 0.2156(6)
H21 H 0.0725 0.5666 0.2072
C36 C 0.3378(7) 0.5079(7) 0.3178(6)
H22 H 0.3901 0.5362 0.2674
H23 H 0.3415 0.4301 0.3209
H24 H 0.3725 0.5487 0.3786
C37 C 0.1080(8) 0.4880(8) 0.3692(6)
H25 H 0.0224 0.5049 0.3498
H26 H 0.1404 0.5282 0.4307
H27 H 0.1001 0.4092 0.3744
O10 O 0.4748(8) 0.6107(10) 0.0698(9)
H28 H 0.526(11) 0.567(11) 0.081(13)
H29 H 0.404(9) 0.599(13) 0.096(12)
loop_
_geom_bond_atom_site_label_1
_geom_bond_atom_site_label_2
_geom_bond_site_symmetry_1
_geom_bond_site_symmetry_2
Zn1 O1 1_555 1_555
Zn2 O4 1_555 1_555
O1 C11 1_555 1_555
O2 Zn1 1_555 1_555
O3 C12 1_555 1_555
O4 C12 1_555 1_555
O5 Zn2 1_555 1_555
O6 C23 1_555 1_555
O7 C24 1_555 1_555
O8 C24 1_555 1_555
N1 Zn2 1_555 1_555
N2 C32 1_555 1_555
C1 C2 1_555 1_555
C2 H1 1_555 1_555
C3 C2 1_555 1_555
H2 C3 1_555 1_555
C4 C3 1_555 1_555
C5 H3 1_555 1_555
C6 C5 1_555 1_555
H4 C6 1_555 1_555
C7 C6 1_555 1_555
H5 C7 1_555 1_555
C8 C7 1_555 1_555
H6 C8 1_555 1_555
C9 C1 1_555 1_555
C10 C4 1_555 1_555
C11 O2 1_555 1_555
C12 C1 1_555 1_555
C13 C14 1_555 1_555
C14 H7 1_555 1_555
C15 C14 1_555 1_555
H8 C15 1_555 1_555
C16 C15 1_555 1_555
C17 H9 1_555 1_555
C18 C17 1_555 1_555
H10 C18 1_555 1_555
C19 C18 1_555 1_555
H11 C19 1_555 1_555
C20 C19 1_555 1_555
H12 C20 1_555 1_555
C21 C13 1_555 1_555
C22 C16 1_555 1_555
C23 O5 1_555 1_555
C24 C16 1_555 1_555
C25 N1 1_555 1_555
H13 C25 1_555 1_555
C26 C25 1_555 1_555
H14 C26 1_555 1_555
C27 C26 1_555 1_555
C28 C27 1_555 1_555
H15 C28 1_555 1_555
C29 N1 1_555 1_555
H16 C29 1_555 1_555
C30 C27 1_555 1_555
C31 C30 1_555 1_555
H17 C31 1_555 1_555
C32 C31 1_555 1_555
H18 C32 1_555 1_555
C33 N2 1_555 1_555
H19 C33 1_555 1_555
C34 C30 1_555 1_555
H20 C34 1_555 1_555
O9 C35 1_555 1_555
N3 C35 1_555 1_555
C35 H21 1_555 1_555
C36 N3 1_555 1_555
H22 C36 1_555 1_555
H23 C36 1_555 1_555
H24 C36 1_555 1_555
C37 N3 1_555 1_555
H25 C37 1_555 1_555
H26 C37 1_555 1_555
H27 C37 1_555 1_555
O10 H28 1_555 1_555
H29 O10 1_555 1_555
Zn1_2 N2 1_555 1_555
Zn1_3 O6 1_555 1_555
Zn1_4 O8 1_555 1_555
Zn2_2 O7 1_555 1_555
O6_2 Zn1 1_555 1_555
O7_2 Zn2 1_555 1_555
O8_2 Zn1 1_555 1_555
N2_2 Zn1 1_555 1_555
C4 C11 1_555 1_555
C5 C10 1_555 1_555
C8 C9 1_555 1_555
C9 C10 1_555 1_555
C13 C23 1_555 1_555
C17 C22 1_555 1_555
C20 C21 1_555 1_555
C21 C22 1_555 1_555
C28 C29 1_555 1_555
C33 C34 1_555 1_555

#END
