
#######################################################################
#
#                 Cambridge Crystallographic Data Centre
#                                CCDC 
#
#######################################################################
#
# If this CIF has been generated from an entry in the Cambridge 
# Structural Database, then it will include bibliographic, chemical, 
# crystal, experimental, refinement or atomic coordinate data resulting 
# from the CCDC's data processing and validation procedures.
#
#######################################################################

data_HAQRID
_chemical_formula_moiety         '(C50 H26 N1 O24 Zn5 1-)n'
_symmetry_cell_setting           monoclinic
_symmetry_space_group_name_H-M   'C 2/c'
_symmetry_Int_Tables_number      15
_space_group_name_Hall           '-C 2yc'
loop_
_symmetry_equiv_pos_site_id
_symmetry_equiv_pos_as_xyz
1 x,y,z
2 -x,y,1/2-z
3 1/2+x,1/2+y,z
4 1/2-x,1/2+y,1/2-z
5 -x,-y,-z
6 x,-y,1/2+z
7 1/2-x,1/2-y,-z
8 1/2+x,1/2-y,1/2+z
_cell_length_a                   12.3215(10)
_cell_length_b                   30.711(3)
_cell_length_c                   22.7224(18)
_cell_angle_alpha                90
_cell_angle_beta                 94.229(2)
_cell_angle_gamma                90
_cell_volume                     8574.87
loop_
_atom_site_label
_atom_site_type_symbol
_atom_site_fract_x
_atom_site_fract_y
_atom_site_fract_z
N1 N 0.9493(8) 0.5524(3) 0.6139(4)
H10 H 1.0084 0.5694 0.6206
H11 H 0.8954 0.5700 0.5993
C25 C 0.9713(9) 0.5255(4) 0.5697(4)
H12 H 1.0444 0.5148 0.5763
H13 H 0.9640 0.5410 0.5329
H14 H 0.9213 0.5015 0.5683
C26 C 0.9235(14) 0.5405(6) 0.6627(7)
H15 H 0.8479 0.5326 0.6601
H16 H 0.9358 0.5637 0.6906
H17 H 0.9668 0.5157 0.6754
Zn1 Zn 0.74016(4) 0.917167(16) 0.661016(18)
Zn2 Zn 0.80535(4) 0.630815(15) 0.487920(17)
Zn3 Zn 1.0000 0.9484(2) 0.7500
O1 O 0.4477(2) 1.10650(11) 0.47561(12)
O2 O 0.4014(3) 1.09769(14) 0.38137(15)
O3 O 0.6748(3) 1.08083(13) 0.23754(13)
O4 O 0.8417(4) 1.0769(2) 0.26643(17)
O5 O 1.1742(2) 1.09824(12) 0.49172(14)
O6 O 1.2234(3) 1.06107(16) 0.57188(19)
O7 O 0.9449(3) 0.96293(14) 0.65541(17)
O8 O 0.7743(3) 0.97000(10) 0.62153(13)
O9 O 0.8208(3) 0.86344(9) 0.65315(13)
O10 O 0.7430(3) 0.82754(10) 0.57606(12)
O11 O 0.8280(3) 0.67482(10) 0.54896(13)
O12 O 0.9300(5) 0.63838(12) 0.61442(19)
C1 C 0.4707(3) 1.09827(14) 0.42388(17)
C2 C 0.5848(3) 1.08911(14) 0.41131(16)
C3 C 0.6646(3) 1.08117(14) 0.45614(17)
H1 H 0.6470 1.0829 0.4952
C4 C 0.7713(3) 1.07058(14) 0.44395(17)
C5 C 0.7957(4) 1.07015(16) 0.38570(18)
H2 H 0.8667 1.0642 0.3768
C6 C 0.7176(4) 1.07829(16) 0.34022(17)
C7 C 0.6122(4) 1.08742(16) 0.35279(17)
H3 H 0.5593 1.0925 0.3222
C8 C 0.7484(5) 1.0777(2) 0.2772(2)
C9 C 0.8536(3) 1.05767(14) 0.49202(16)
C10 C 0.8254(3) 1.02917(14) 0.53570(16)
H4 H 0.7538 1.0198 0.5365
C11 C 0.9035(3) 1.01454(14) 0.57828(16)
C12 C 0.8739(4) 0.98005(15) 0.62243(18)
C13 C 1.0093(3) 1.02876(14) 0.57787(17)
H5 H 1.0611 1.0191 0.6068
C14 C 1.0399(3) 1.05755(15) 0.53462(17)
C15 C 0.9609(4) 1.07168(14) 0.49139(18)
H6 H 0.9803 1.0906 0.4620
C16 C 1.1550(4) 1.07303(16) 0.5331(2)
C17 C 0.8027(3) 0.82992(13) 0.62321(16)
C18 C 0.8539(4) 0.78835(14) 0.64536(16)
C19 C 0.9157(4) 0.78774(14) 0.70020(17)
H7 H 0.9221 0.8130 0.7227
C20 C 0.9668(4) 0.75017(14) 0.72087(17)
C21 C 0.9550(4) 0.71275(14) 0.68722(17)
H8 H 0.9885 0.6872 0.7008
C22 C 0.8935(4) 0.71278(14) 0.63316(17)
C23 C 0.8440(4) 0.75038(14) 0.61316(16)
H9 H 0.8028 0.7503 0.5772
C24 C 0.8832(4) 0.67132(16) 0.59678(19)
O9A O 1.1792(3) 0.86344(9) 0.84685(13)
O10A O 1.2570(3) 0.82754(10) 0.92394(12)
O11A O 1.1720(3) 0.67482(10) 0.95104(13)
O12A O 1.0700(5) 0.63838(12) 0.88558(19)
C17A C 1.1973(3) 0.82992(13) 0.87679(16)
C18A C 1.1461(4) 0.78835(14) 0.85464(16)
C19A C 1.0843(4) 0.78774(14) 0.79980(17)
H7A H 1.0779 0.8130 0.7773
C20A C 1.0332(4) 0.75017(14) 0.77913(17)
C21A C 1.0450(4) 0.71275(14) 0.81278(17)
H8A H 1.0115 0.6872 0.7992
C22A C 1.1065(4) 0.71278(14) 0.86684(17)
C23A C 1.1560(4) 0.75038(14) 0.88684(16)
H9A H 1.1972 0.7503 0.9228
C24A C 1.1168(4) 0.67132(16) 0.90322(19)
Zn1A Zn 1.25984(4) 0.917167(16) 0.838984(18)
Zn2A Zn 1.19465(4) 0.630815(15) 1.012080(17)
O1A O 1.5523(2) 1.10650(11) 1.02439(12)
O2A O 1.5986(3) 1.09769(14) 1.11863(15)
O3A O 1.3252(3) 1.08083(13) 1.26246(13)
O4A O 1.1583(4) 1.0769(2) 1.23357(17)
O5A O 0.8258(2) 1.09824(12) 1.00828(14)
O6A O 0.7766(3) 1.06107(16) 0.92812(19)
O7A O 1.0551(3) 0.96293(14) 0.84459(17)
O8A O 1.2257(3) 0.97000(10) 0.87847(13)
C1A C 1.5293(3) 1.09827(14) 1.07612(17)
C2A C 1.4152(3) 1.08911(14) 1.08869(16)
C3A C 1.3354(3) 1.08117(14) 1.04386(17)
H1A H 1.3530 1.0829 1.0048
C4A C 1.2287(3) 1.07058(14) 1.05605(17)
C5A C 1.2043(4) 1.07015(16) 1.11430(18)
H2A H 1.1333 1.0642 1.1232
C6A C 1.2824(4) 1.07829(16) 1.15978(17)
C7A C 1.3878(4) 1.08742(16) 1.14721(17)
H3A H 1.4407 1.0925 1.1778
C8A C 1.2516(5) 1.0777(2) 1.2228(2)
C9A C 1.1464(3) 1.05767(14) 1.00798(16)
C10A C 1.1746(3) 1.02917(14) 0.96430(16)
H4A H 1.2462 1.0198 0.9635
C11A C 1.0965(3) 1.01454(14) 0.92172(16)
C12A C 1.1261(4) 0.98005(15) 0.87757(18)
C13A C 0.9907(3) 1.02876(14) 0.92213(17)
H5A H 0.9389 1.0191 0.8932
C14A C 0.9601(3) 1.05755(15) 0.96538(17)
C15A C 1.0391(4) 1.07168(14) 1.00861(18)
H6A H 1.0197 1.0906 1.0380
C16A C 0.8450(4) 1.07303(16) 0.9669(2)
Zn1D Zn 0.25984(4) 1.082833(16) 0.338984(18)
Zn1D_2 Zn 1.25984(4) 1.082833(16) 1.338984(18)
Zn1E Zn 0.74016(4) 1.082833(16) 0.161016(18)
Zn1E_2 Zn 1.74016(4) 1.082833(16) 1.161016(18)
Zn2B Zn 0.30535(4) 1.130815(15) 0.487920(17)
Zn2B_2 Zn 1.30535(4) 1.130815(15) 0.487920(17)
Zn2C Zn 0.69465(4) 1.130815(15) 1.012080(17)
Zn2C_2 Zn 1.69465(4) 1.130815(15) 1.012080(17)
Zn2F Zn 0.69465(4) 0.869185(15) 0.512080(17)
Zn2G Zn 1.30535(4) 0.869185(15) 0.987920(17)
Zn3D Zn 1.0000 1.0516(2) 0.2500
Zn3D_2 Zn 1.0000 1.0516(2) 1.2500
O1B O 0.9477(2) 0.60650(11) 0.47561(12)
O1C O 1.0523(2) 0.60650(11) 1.02439(12)
O2D O 0.5986(3) 0.90231(14) 0.61863(15)
O2E O 1.4014(3) 0.90231(14) 0.88137(15)
O3D O 1.3252(3) 0.91917(13) 0.76246(13)
O3E O 0.6748(3) 0.91917(13) 0.73754(13)
O4D O 1.1583(4) 0.9231(2) 0.73357(17)
O4E O 0.8417(4) 0.9231(2) 0.76643(17)
O5B O 0.6742(2) 0.59824(12) 0.49172(14)
O5C O 1.3258(2) 0.59824(12) 1.00828(14)
O10F O 0.7570(3) 0.67246(10) 0.42394(12)
O10G O 1.2430(3) 0.67246(10) 1.07606(12)
loop_
_geom_bond_atom_site_label_1
_geom_bond_atom_site_label_2
_geom_bond_site_symmetry_1
_geom_bond_site_symmetry_2
Zn1 O8 1_555 1_555
Zn2 O11 1_555 1_555
Zn3 O7 1_555 1_555
O1 C1 1_555 1_555
O2 C1 1_555 1_555
O3 C8 1_555 1_555
O4 C8 1_555 1_555
O5 C16 1_555 1_555
O6 C16 1_555 1_555
O7 C12 1_555 1_555
O8 C12 1_555 1_555
O9 Zn1 1_555 1_555
O10 C17 1_555 1_555
O11 C24 1_555 1_555
O12 C24 1_555 1_555
C1 C2 1_555 1_555
C2 C3 1_555 1_555
C3 H1 1_555 1_555
C4 C3 1_555 1_555
C5 C4 1_555 1_555
H2 C5 1_555 1_555
C6 C5 1_555 1_555
C7 C2 1_555 1_555
H3 C7 1_555 1_555
C8 C6 1_555 1_555
C9 C4 1_555 1_555
C10 C9 1_555 1_555
H4 C10 1_555 1_555
C11 C10 1_555 1_555
C12 C11 1_555 1_555
C13 C11 1_555 1_555
H5 C13 1_555 1_555
C14 C13 1_555 1_555
C15 C9 1_555 1_555
H6 C15 1_555 1_555
C16 C14 1_555 1_555
C17 O9 1_555 1_555
C18 C17 1_555 1_555
C19 C18 1_555 1_555
H7 C19 1_555 1_555
C20 C19 1_555 1_555
C21 C20 1_555 1_555
H8 C21 1_555 1_555
C22 C21 1_555 1_555
C23 C18 1_555 1_555
H9 C23 1_555 1_555
C24 C22 1_555 1_555
N1 H10 1_555 1_555
H11 N1 1_555 1_555
C25 N1 1_555 1_555
H12 C25 1_555 1_555
H13 C25 1_555 1_555
H14 C25 1_555 1_555
C26 N1 1_555 1_555
H15 C26 1_555 1_555
H16 C26 1_555 1_555
H17 C26 1_555 1_555
O9A C17A 1_555 1_555
O10A C17A 1_555 1_555
O11A C24A 1_555 1_555
O12A C24A 1_555 1_555
C17A C18A 1_555 1_555
C18A C19A 1_555 1_555
C19A H7A 1_555 1_555
C20A C20 1_555 1_555
C21A C20A 1_555 1_555
H8A C21A 1_555 1_555
C22A C21A 1_555 1_555
C23A C18A 1_555 1_555
H9A C23A 1_555 1_555
C24A C22A 1_555 1_555
Zn1A O9A 1_555 1_555
Zn2A O11A 1_555 1_555
O1A C1A 1_555 1_555
O2A C1A 1_555 1_555
O3A C8A 1_555 1_555
O4A C8A 1_555 1_555
O5A C16A 1_555 1_555
O6A C16A 1_555 1_555
O7A Zn3 1_555 1_555
O8A Zn1A 1_555 1_555
C1A C2A 1_555 1_555
C2A C3A 1_555 1_555
C3A H1A 1_555 1_555
C4A C3A 1_555 1_555
C5A C4A 1_555 1_555
H2A C5A 1_555 1_555
C6A C5A 1_555 1_555
C7A C2A 1_555 1_555
H3A C7A 1_555 1_555
C8A C6A 1_555 1_555
C9A C4A 1_555 1_555
C10A C9A 1_555 1_555
H4A C10A 1_555 1_555
C11A C10A 1_555 1_555
C12A O7A 1_555 1_555
C13A C11A 1_555 1_555
H5A C13A 1_555 1_555
C14A C13A 1_555 1_555
C15A C9A 1_555 1_555
H6A C15A 1_555 1_555
C16A C14A 1_555 1_555
Zn1D O2 1_555 1_555
Zn1D_2 O3A 1_555 1_555
Zn1E O3 1_555 1_555
Zn1E_2 O2A 1_555 1_555
Zn2B O1 1_555 1_555
Zn2B_2 O5 1_555 1_555
Zn2C O5A 1_555 1_555
Zn2C_2 O1A 1_555 1_555
Zn2F O10 1_555 1_555
Zn2G O10A 1_555 1_555
Zn3D O4 1_555 1_555
Zn3D_2 O4A 1_555 1_555
O1B Zn2 1_555 1_555
O1C Zn2A 1_555 1_555
O2D Zn1 1_555 1_555
O2E Zn1A 1_555 1_555
O3D Zn1A 1_555 1_555
O3E Zn1 1_555 1_555
O4D Zn3 1_555 1_555
O4E Zn3 1_555 1_555
O5B Zn2 1_555 1_555
O5C Zn2A 1_555 1_555
O10F Zn2 1_555 1_555
O10G Zn2A 1_555 1_555
C6 C7 1_555 1_555
C14 C15 1_555 1_555
C22 C23 1_555 1_555
C19A C20A 1_555 1_555
C22A C23A 1_555 1_555
O8A C12A 1_555 1_555
C6A C7A 1_555 1_555
C11A C12A 1_555 1_555
C14A C15A 1_555 1_555

#END
