
#######################################################################
#
#                 Cambridge Crystallographic Data Centre
#                                CCDC 
#
#######################################################################
#
# If this CIF has been generated from an entry in the Cambridge 
# Structural Database, then it will include bibliographic, chemical, 
# crystal, experimental, refinement or atomic coordinate data resulting 
# from the CCDC's data processing and validation procedures.
#
#######################################################################

data_NASRIL
_chemical_formula_moiety         'C34 H18 Cu8 N2 O16'
_symmetry_cell_setting           orthorhombic
_symmetry_space_group_name_H-M   'I m m a'
_symmetry_Int_Tables_number      74
_space_group_name_Hall           '-I 2b 2'
loop_
_symmetry_equiv_pos_site_id
_symmetry_equiv_pos_as_xyz
1 x,y,z
2 -x,1/2-y,z
3 x,-y,-z
4 -x,1/2+y,-z
5 1/2+x,1/2+y,1/2+z
6 1/2-x,-y,1/2+z
7 1/2+x,1/2-y,1/2-z
8 1/2-x,y,1/2-z
9 -x,-y,-z
10 x,1/2+y,-z
11 -x,y,z
12 x,1/2-y,z
13 1/2-x,1/2-y,1/2-z
14 1/2+x,y,1/2-z
15 1/2-x,1/2+y,1/2+z
16 1/2+x,-y,1/2+z
_cell_length_a                   14.9436(7)
_cell_length_b                   28.4461(15)
_cell_length_c                   10.7407(5)
_cell_angle_alpha                90
_cell_angle_beta                 90
_cell_angle_gamma                90
_cell_volume                     4565.73
loop_
_atom_site_label
_atom_site_type_symbol
_atom_site_fract_x
_atom_site_fract_y
_atom_site_fract_z
_atom_site_U_iso_or_equiv
_atom_site_thermal_displace_type
Cu1 Cu 1.0000 0.46710(4) 0.58893(10) 0.0564 Uani
O1 O 0.9097(3) 0.43484(15) 0.4924(5) 0.0580 Uani
O2 O 0.9073(3) 0.49051(19) 0.3480(4) 0.0543 Uani
O3 O 1.0000 0.4226(3) 0.7480(8) 0.0750 Uani
C1 C 0.8130(4) 0.4255(2) 0.3207(6) 0.0453 Uani
C2 C 0.7500 0.3518(3) 0.2500 0.0620 Uani
C3 C 0.8827(4) 0.4526(3) 0.3915(8) 0.0443 Uani
C4 C 0.6956(6) 0.2750(3) 0.3306(8) 0.0880 Uani
C5 C 0.7500 0.4487(3) 0.2500 0.0483 Uani
H1 H 0.7500 0.4821 0.2500 0.0580 Uiso
C6 C 0.8115(4) 0.3770(3) 0.3222(6) 0.0550 Uani
H2 H 0.8528 0.3604 0.3731 0.0660 Uiso
C7 C 0.7500 0.2992(4) 0.2500 0.0567 Uani
N1 N 1.0000 0.4298(3) 0.9481(14) 0.1297 Uani
C8 C 1.0000 0.4255(5) 0.8408(19) 0.1367 Uani
C9 C 1.0000 0.4311(7) 1.0808(13) 0.1993 Uani
C10 C 0.6350(8) 0.3017(4) 0.4199(13) 0.1900 Uani
H3 H 0.5779 0.3085 0.3788 0.2850 Uiso
H4 H 0.6638 0.3312 0.4441 0.2850 Uiso
H5 H 0.6243 0.2825 0.4942 0.2850 Uiso
C11 C 0.8727(10) 0.4300(5) 0.905(2) 0.2237 Uani
O1G O 0.5903(3) 0.43484(15) 0.0076(5) 0.0580 Uani
O2G O 0.5927(3) 0.49051(19) 0.1520(4) 0.0543 Uani
C1G C 0.6870(4) 0.4255(2) 0.1793(6) 0.0453 Uani
C3G C 0.6173(4) 0.4526(3) 0.1085(8) 0.0443 Uani
C4G C 0.8044(6) 0.2750(3) 0.1694(8) 0.0880 Uani
C6G C 0.6885(4) 0.3770(3) 0.1778(6) 0.0550 Uani
H2G H 0.6472 0.3604 0.1269 0.0660 Uiso
C10G C 0.8650(8) 0.3017(4) 0.0801(13) 0.1900 Uani
H3G H 0.9221 0.3085 0.1212 0.2850 Uiso
H4G H 0.8362 0.3312 0.0559 0.2850 Uiso
H5G H 0.8757 0.2825 0.0058 0.2850 Uiso
O1K O 0.9097(3) 0.06516(15) 0.4924(5) 0.0580 Uani
O2K O 0.9073(3) 0.00949(19) 0.3480(4) 0.0543 Uani
C1K C 0.8130(4) 0.0745(2) 0.3207(6) 0.0453 Uani
C2K C 0.7500 0.1482(3) 0.2500 0.0620 Uani
C3K C 0.8827(4) 0.0474(3) 0.3915(8) 0.0443 Uani
C4K C 0.6956(6) 0.2250(3) 0.3306(8) 0.0880 Uani
C5K C 0.7500 0.0513(3) 0.2500 0.0483 Uani
H1K H 0.7500 0.0179 0.2500 0.0580 Uiso
C6K C 0.8115(4) 0.1230(3) 0.3222(6) 0.0550 Uani
H2K H 0.8528 0.1396 0.3731 0.0660 Uiso
C7K C 0.7500 0.2008(4) 0.2500 0.0567 Uani
C10K C 0.6350(8) 0.1983(4) 0.4199(13) 0.1900 Uani
H3K H 0.5779 0.1915 0.3788 0.2850 Uiso
H4K H 0.6638 0.1688 0.4441 0.2850 Uiso
H5K H 0.6243 0.2175 0.4942 0.2850 Uiso
O1L O 0.5903(3) 0.06516(15) 0.0076(5) 0.0580 Uani
O2L O 0.5927(3) 0.00949(19) 0.1520(4) 0.0543 Uani
C1L C 0.6870(4) 0.0745(2) 0.1793(6) 0.0453 Uani
C3L C 0.6173(4) 0.0474(3) 0.1085(8) 0.0443 Uani
C4L C 0.8044(6) 0.2250(3) 0.1694(8) 0.0880 Uani
C6L C 0.6885(4) 0.1230(3) 0.1778(6) 0.0550 Uani
H2L H 0.6472 0.1396 0.1269 0.0660 Uiso
C10L C 0.8650(8) 0.1983(4) 0.0801(13) 0.1900 Uani
H3L H 0.9221 0.1915 0.1212 0.2850 Uiso
H4L H 0.8362 0.1688 0.0559 0.2850 Uiso
H5L H 0.8757 0.2175 0.0058 0.2850 Uiso
C11J C 1.1273(10) 0.4300(5) 0.905(2) 0.2237 Uani
Cu1A Cu 1.0000 0.03290(4) 0.58893(10) 0.0564 Uani
O3A O 1.0000 0.0774(3) 0.7480(8) 0.0750 Uani
N1A N 1.0000 0.0702(3) 0.9481(14) 0.1297 Uani
C8A C 1.0000 0.0745(5) 0.8408(19) 0.1367 Uani
C9A C 1.0000 0.0689(7) 1.0808(13) 0.1993 Uani
C11A C 1.1273(10) 0.0700(5) 0.905(2) 0.2237 Uani
C11K C 0.8727(10) 0.0700(5) 0.905(2) 0.2237 Uani
Cu1B Cu 1.0000 0.53290(4) 0.41107(10) 0.0564 Uani
Cu1C Cu 1.0000 -0.03290(4) 0.41107(10) 0.0564 Uani
Cu1D Cu 0.5000 -0.03290(4) 0.08893(10) 0.0564 Uani
Cu1E Cu 0.5000 0.53290(4) 0.08893(10) 0.0564 Uani
Cu1F Cu 0.5000 0.03290(4) -0.08893(10) 0.0564 Uani
Cu1G Cu 0.5000 0.46710(4) -0.08893(10) 0.0564 Uani
O1A O 1.0903(3) 0.06516(15) 0.4924(5) 0.0580 Uani
O1J O 1.0903(3) 0.43484(15) 0.4924(5) 0.0580 Uani
O2B O 0.9073(3) 0.50949(19) 0.6520(4) 0.0543 Uani
O2C O 1.0927(3) -0.00949(19) 0.6520(4) 0.0543 Uani
O2H O 1.0927(3) 0.50949(19) 0.6520(4) 0.0543 Uani
O2I O 0.9073(3) -0.00949(19) 0.6520(4) 0.0543 Uani
loop_
_atom_site_aniso_label
_atom_site_aniso_U_11
_atom_site_aniso_U_22
_atom_site_aniso_U_33
_atom_site_aniso_U_23
_atom_site_aniso_U_13
_atom_site_aniso_U_12
Cu1 0.0572(12) 0.0549(13) 0.0572(11) -0.0011(6) 0.000 0.000
O1 0.055(3) 0.051(4) 0.068(3) -0.002(3) -0.017(3) -0.006(2)
O2 0.051 0.047 0.065 0.003 -0.017 -0.009
O3 0.116(7) 0.066(5) 0.043(5) 0.003(5) 0.000 0.000
C1 0.047(4) 0.031(5) 0.058(4) 0.002(4) -0.011(4) 0.002(3)
C2 0.083(8) 0.028(7) 0.075(8) 0.000 -0.030(7) 0.000
C3 0.028(4) 0.043(5) 0.062(5) -0.014(5) -0.008(4) 0.001(4)
C4 0.114(7) 0.040(5) 0.110(7) -0.011(5) 0.012(6) 0.001(5)
C5 0.064(7) 0.028(5) 0.053(6) 0.000 -0.007(6) 0.000
C6 0.048(5) 0.047(5) 0.070(5) 0.002(4) -0.020(4) 0.004(4)
C7 0.059(7) 0.040(8) 0.071(7) 0.000 -0.031(6) 0.000
N1 0.245(19) 0.051(8) 0.093(10) 0.006(8) 0.000 0.000
C8 0.29(3) 0.058(10) 0.062(11) -0.010(10) 0.000 0.000
C9 0.41(4) 0.14(2) 0.048(10) 0.004(8) 0.000 0.000
C10 0.212(14) 0.072(8) 0.286(17) -0.031(9) 0.160(14) 0.002(9)
C11 0.113(12) 0.148(15) 0.41(3) 0.095(13) 0.061(14) -0.013(9)
O1G 0.055 0.051 0.068 0.002 -0.017 0.006
O2G 0.051 0.047 0.065 -0.003 -0.017 0.009
C1G 0.047 0.031 0.058 -0.002 -0.011 -0.002
C3G 0.028 0.043 0.062 0.014 -0.008 -0.001
C4G 0.114 0.04 0.11 0.011 0.012 -0.001
C6G 0.048 0.047 0.07 -0.002 -0.02 -0.004
C10G 0.212 0.072 0.286 0.031 0.16 -0.002
O1K 0.055 0.051 0.068 0.002 -0.017 0.006
O2K 0.051 0.047 0.065 -0.003 -0.017 0.009
C1K 0.047 0.031 0.058 -0.002 -0.011 -0.002
C2K 0.083 0.028 0.075 0 -0.03 0
C3K 0.028 0.043 0.062 0.014 -0.008 -0.001
C4K 0.114 0.04 0.11 0.011 0.012 -0.001
C5K 0.064 0.028 0.053 0 -0.007 0
C6K 0.048 0.047 0.07 -0.002 -0.02 -0.004
C7K 0.059 0.04 0.071 0 -0.031 0
C10K 0.212 0.072 0.286 0.031 0.16 -0.002
O1L 0.055 0.051 0.068 -0.002 -0.017 -0.006
O2L 0.051 0.047 0.065 0.003 -0.017 -0.009
C1L 0.047 0.031 0.058 0.002 -0.011 0.002
C3L 0.028 0.043 0.062 -0.014 -0.008 0.001
C4L 0.114 0.04 0.11 -0.011 0.012 0.001
C6L 0.048 0.047 0.07 0.002 -0.02 0.004
C10L 0.212 0.072 0.286 -0.031 0.16 0.002
C11J 0.113 0.148 0.41 0.095 -0.061 0.013
Cu1A 0.0572 0.0549 0.0572 0.0011 0 0
O3A 0.116 0.066 0.043 -0.003 0 0
N1A 0.245 0.051 0.093 -0.006 0 0
C8A 0.29 0.058 0.062 0.01 0 0
C9A 0.41 0.14 0.048 -0.004 0 0
C11A 0.113 0.148 0.41 -0.095 -0.061 -0.013
C11K 0.113 0.148 0.41 -0.095 0.061 0.013
Cu1B 0.0572 0.0549 0.0572 -0.0011 0 0
Cu1C 0.0572 0.0549 0.0572 0.0011 0 0
Cu1D 0.0572 0.0549 0.0572 -0.0011 0 0
Cu1E 0.0572 0.0549 0.0572 0.0011 0 0
Cu1F 0.0572 0.0549 0.0572 -0.0011 0 0
Cu1G 0.0572 0.0549 0.0572 0.0011 0 0
O1A 0.055 0.051 0.068 0.002 0.017 -0.006
O1J 0.055 0.051 0.068 -0.002 0.017 0.006
O2B 0.051 0.047 0.065 0.003 0.017 0.009
O2C 0.051 0.047 0.065 -0.003 -0.017 0.009
O2H 0.051 0.047 0.065 0.003 -0.017 -0.009
O2I 0.051 0.047 0.065 -0.003 0.017 -0.009
loop_
_geom_bond_atom_site_label_1
_geom_bond_atom_site_label_2
_geom_bond_site_symmetry_1
_geom_bond_site_symmetry_2
Cu1 O1 1_555 1_555
O1 C3 1_555 1_555
O2 C3 1_555 1_555
O3 Cu1 1_555 1_555
C1 C3 1_555 1_555
C2 C6 1_555 1_555
C4 C7 1_555 1_555
C5 C1 1_555 1_555
H1 C5 1_555 1_555
C6 C1 1_555 1_555
H2 C6 1_555 1_555
C7 C2 1_555 1_555
N1 C8 1_555 1_555
C8 O3 1_555 1_555
C9 N1 1_555 1_555
C10 C4 1_555 1_555
H3 C10 1_555 1_555
H4 C10 1_555 1_555
H5 C10 1_555 1_555
C11 N1 1_555 1_555
O1G C3G 1_555 1_555
O2G C3G 1_555 1_555
C1G C5 1_555 1_555
C3G C1G 1_555 1_555
C4G C7 1_555 1_555
C6G C2 1_555 1_555
H2G C6G 1_555 1_555
C10G C4G 1_555 1_555
H3G C10G 1_555 1_555
H4G C10G 1_555 1_555
H5G C10G 1_555 1_555
O1K C3K 1_555 1_555
O2K C3K 1_555 1_555
C1K C3K 1_555 1_555
C2K C6K 1_555 1_555
C4K C4 1_555 1_555
C5K C1K 1_555 1_555
H1K C5K 1_555 1_555
C6K C1K 1_555 1_555
H2K C6K 1_555 1_555
C7K C2K 1_555 1_555
C10K C4K 1_555 1_555
H3K C10K 1_555 1_555
H4K C10K 1_555 1_555
H5K C10K 1_555 1_555
O1L C3L 1_555 1_555
O2L C3L 1_555 1_555
C1L C5K 1_555 1_555
C3L C1L 1_555 1_555
C4L C4G 1_555 1_555
C6L C2K 1_555 1_555
H2L C6L 1_555 1_555
C10L C4L 1_555 1_555
H3L C10L 1_555 1_555
H4L C10L 1_555 1_555
H5L C10L 1_555 1_555
C11J N1 1_555 1_555
Cu1A O1K 1_555 1_555
O3A Cu1A 1_555 1_555
N1A C8A 1_555 1_555
C8A O3A 1_555 1_555
C9A N1A 1_555 1_555
C11A N1A 1_555 1_555
C11K N1A 1_555 1_555
Cu1B Cu1 1_555 1_555
Cu1C O2K 1_555 1_555
Cu1D O2L 1_555 1_555
Cu1E O2G 1_555 1_555
Cu1F O1L 1_555 1_555
Cu1G O1G 1_555 1_555
O1A Cu1A 1_555 1_555
O1J Cu1 1_555 1_555
O2B Cu1 1_555 1_555
O2C Cu1A 1_555 1_555
O2H Cu1 1_555 1_555
O2I Cu1A 1_555 1_555
O2 Cu1B 1_555 1_555
C8 C11 1_555 1_555
C8 C11J 1_555 1_555
C1G C6G 1_555 1_555
C4K C7K 1_555 1_555
C7K C4L 1_555 1_555
C1L C6L 1_555 1_555
Cu1A Cu1C 1_555 1_555
C8A C11A 1_555 1_555
C8A C11K 1_555 1_555
Cu1D Cu1F 1_555 1_555
Cu1E Cu1G 1_555 1_555

#END
