
#######################################################################
#
#                 Cambridge Crystallographic Data Centre
#                                CCDC 
#
#######################################################################
#
# If this CIF has been generated from an entry in the Cambridge 
# Structural Database, then it will include bibliographic, chemical, 
# crystal, experimental, refinement or atomic coordinate data resulting 
# from the CCDC's data processing and validation procedures.
#
#######################################################################

data_OYERIV
_chemical_formula_moiety         '(C78 H74 Cl6 Cr6 Mn3 N12 O33 2+)n'
_symmetry_cell_setting           hexagonal
_symmetry_space_group_name_H-M   'P 63/m c m'
_symmetry_Int_Tables_number      193
_space_group_name_Hall           '-P 6c 2'
loop_
_symmetry_equiv_pos_site_id
_symmetry_equiv_pos_as_xyz
1 x,y,z
2 -x,-y,1/2+z
3 -y,x-y,z
4 -x+y,-x,z
5 x-y,x,1/2+z
6 y,-x+y,1/2+z
7 x-y,-y,1/2-z
8 -x,-x+y,1/2-z
9 y,x,1/2-z
10 -y,-x,-z
11 x,x-y,-z
12 -x+y,y,-z
13 -x,-y,-z
14 x,y,1/2-z
15 y,-x+y,-z
16 x-y,x,-z
17 -x+y,-x,1/2-z
18 -y,x-y,1/2-z
19 -x+y,y,1/2+z
20 x,x-y,1/2+z
21 -y,-x,1/2+z
22 y,x,z
23 -x,-x+y,z
24 x-y,-y,z
_cell_length_a                   22.045(2)
_cell_length_b                   22.045(2)
_cell_length_c                   21.768(2)
_cell_angle_alpha                90
_cell_angle_beta                 90
_cell_angle_gamma                120
_cell_volume                     9161.56
loop_
_atom_site_label
_atom_site_type_symbol
_atom_site_fract_x
_atom_site_fract_y
_atom_site_fract_z
O5 O 0.7045(7) 0.1084(7) 0.3506(6)
Mn1 Mn 0.5000 0.0000 0.0000
Cl1 Cl 0.55939(12) -0.0000 0.09714(8)
Cr1 Cr 0.66517(6) 0.24606(6) 0.2500
O1 O 0.6667 0.3333 0.2500
O2 O 0.59406(18) 0.20389(17) 0.18512(14)
O3 O 0.53641(19) 0.2637(2) 0.1858(2)
C1 C 0.5486(3) 0.2171(3) 0.1662(2)
C2 C 0.5036(3) 0.1736(3) 0.1139(2)
C3 C 0.5172(3) 0.1260(3) 0.0857(2)
H1 H 0.5557 0.1219 0.0999
N1 N 0.4783(3) 0.0846(2) 0.03870(19)
C4 C 0.4229(4) 0.0907(4) 0.0212(3)
H2 H 0.3939 0.0611 -0.0108
C5 C 0.4058(4) 0.1371(4) 0.0467(4)
H3 H 0.3667 0.1399 0.0319
C6 C 0.4465(4) 0.1799(3) 0.0945(3)
H4 H 0.4358 0.2123 0.1134
O4 O 0.6669(3) 0.1550(3) 0.2500
C7 C 0.6084(11) 0.0866(10) 0.2500
Mn1B Mn 1.0000 0.5000 0.0000
Cr1B Cr 0.75394(6) 0.41911(8) 0.2500
O2B O 0.79611(17) 0.39017(25) 0.18512(14)
O3B O 0.7363(2) 0.27271(28) 0.1858(2)
C1B C 0.7829(3) 0.3315(4) 0.1662(2)
C2B C 0.8264(3) 0.3300(4) 0.1139(2)
C3B C 0.8740(3) 0.3912(4) 0.0857(2)
H1B H 0.8781 0.4338 0.0999
N1B N 0.9154(2) 0.3937(4) 0.03870(19)
C4B C 0.9093(4) 0.3322(6) 0.0212(3)
H2B H 0.9389 0.3328 -0.0108
C5B C 0.8629(4) 0.2687(6) 0.0467(4)
H3B H 0.8601 0.2268 0.0319
C6B C 0.8201(3) 0.2666(5) 0.0945(3)
H4B H 0.7877 0.2235 0.1134
O4B O 0.8450(3) 0.5119(4) 0.2500
C7B C 0.9134(10) 0.5218(15) 0.2500
Mn1C Mn 0.5000 0.5000 0.0000
Cr1C Cr 0.58089(8) 0.33483(6) 0.2500
O2C O 0.60983(25) 0.40594(18) 0.18512(14)
O3C O 0.72729(28) 0.46359(19) 0.1858(2)
C1C C 0.6685(4) 0.4514(3) 0.1662(2)
C2C C 0.6700(4) 0.4964(3) 0.1139(2)
C3C C 0.6088(4) 0.4828(3) 0.0857(2)
H1C H 0.5662 0.4443 0.0999
N1C N 0.6063(4) 0.5217(3) 0.03870(19)
C4C C 0.6678(6) 0.5771(4) 0.0212(3)
H2C H 0.6672 0.6061 -0.0108
C5C C 0.7313(6) 0.5942(4) 0.0467(4)
H3C H 0.7732 0.6333 0.0319
C6C C 0.7334(5) 0.5535(4) 0.0945(3)
H4C H 0.7765 0.5642 0.1134
O4C O 0.4881(4) 0.3331(3) 0.2500
C7C C 0.4782(15) 0.3916(11) 0.2500
Cl1I Cl 1.0000 0.44061(12) -0.09714(8)
Cr1I Cr 0.75394(6) 0.33483(6) -0.2500
O1I O 0.6667 0.3333 -0.2500
O2I O 0.79611(17) 0.40594(18) -0.18512(14)
O3I O 0.7363(2) 0.46359(19) -0.1858(2)
C1I C 0.7829(3) 0.4514(3) -0.1662(2)
C2I C 0.8264(3) 0.4964(3) -0.1139(2)
C3I C 0.8740(3) 0.4828(3) -0.0857(2)
H1I H 0.8781 0.4443 -0.0999
N1I N 0.9154(2) 0.5217(3) -0.03870(19)
C4I C 0.9093(4) 0.5771(4) -0.0212(3)
H2I H 0.9389 0.6061 0.0108
C5I C 0.8629(4) 0.5942(4) -0.0467(4)
H3I H 0.8601 0.6333 -0.0319
C6I C 0.8201(3) 0.5535(4) -0.0945(3)
H4I H 0.7877 0.5642 -0.1134
O4I O 0.8450(3) 0.3331(3) -0.2500
C7I C 0.9134(10) 0.3916(11) -0.2500
Cl1J Cl 0.55939(12) 0.55939(12) -0.09714(8)
Cr1J Cr 0.66517(6) 0.41911(8) -0.2500
O2J O 0.59406(18) 0.39017(25) -0.18512(14)
O3J O 0.53641(19) 0.27271(28) -0.1858(2)
C1J C 0.5486(3) 0.3315(4) -0.1662(2)
C2J C 0.5036(3) 0.3300(4) -0.1139(2)
C3J C 0.5172(3) 0.3912(4) -0.0857(2)
H1J H 0.5557 0.4338 -0.0999
N1J N 0.4783(3) 0.3937(4) -0.03870(19)
C4J C 0.4229(4) 0.3322(6) -0.0212(3)
H2J H 0.3939 0.3328 0.0108
C5J C 0.4058(4) 0.2687(6) -0.0467(4)
H3J H 0.3667 0.2268 -0.0319
C6J C 0.4465(4) 0.2666(5) -0.0945(3)
H4J H 0.4358 0.2235 -0.1134
O4J O 0.6669(3) 0.5119(4) -0.2500
C7J C 0.6084(11) 0.5218(15) -0.2500
Cl1K Cl 0.44061(12) 0.0000 -0.09714(8)
O2K O 0.60983(25) 0.20389(17) -0.18512(14)
O3K O 0.72729(28) 0.2637(2) -0.1858(2)
C1K C 0.6685(4) 0.2171(3) -0.1662(2)
C2K C 0.6700(4) 0.1736(3) -0.1139(2)
C3K C 0.6088(4) 0.1260(3) -0.0857(2)
H1K H 0.5662 0.1219 -0.0999
N1K N 0.6063(4) 0.0846(2) -0.03870(19)
C4K C 0.6678(6) 0.0907(4) -0.0212(3)
H2K H 0.6672 0.0611 0.0108
C5K C 0.7313(6) 0.1371(4) -0.0467(4)
H3K H 0.7732 0.1399 -0.0319
C6K C 0.7334(5) 0.1799(3) -0.0945(3)
H4K H 0.7765 0.2123 -0.1134
O2L O 0.40594(18) -0.20389(17) -0.18512(14)
O3L O 0.46359(19) -0.2637(2) -0.1858(2)
C1L C 0.4514(3) -0.2171(3) -0.1662(2)
C2L C 0.4964(3) -0.1736(3) -0.1139(2)
C3L C 0.4828(3) -0.1260(3) -0.0857(2)
H1L H 0.4443 -0.1219 -0.0999
N1L N 0.5217(3) -0.0846(2) -0.03870(19)
C4L C 0.5771(4) -0.0907(4) -0.0212(3)
H2L H 0.6061 -0.0611 0.0108
C5L C 0.5942(4) -0.1371(4) -0.0467(4)
H3L H 0.6333 -0.1399 -0.0319
C6L C 0.5535(4) -0.1799(3) -0.0945(3)
H4L H 0.5642 -0.2123 -0.1134
O2M O 0.59406(18) 0.20389(17) 0.31488(14)
O3M O 0.53641(19) 0.2637(2) 0.3142(2)
C1M C 0.5486(3) 0.2171(3) 0.3338(2)
C2M C 0.5036(3) 0.1736(3) 0.3861(2)
C3M C 0.5172(3) 0.1260(3) 0.4143(2)
H1M H 0.5557 0.1219 0.4001
N1M N 0.4783(3) 0.0846(2) 0.46130(19)
C4M C 0.4229(4) 0.0907(4) 0.4788(3)
H2M H 0.3939 0.0611 0.5108
C5M C 0.4058(4) 0.1371(4) 0.4533(4)
H3M H 0.3667 0.1399 0.4681
C6M C 0.4465(4) 0.1799(3) 0.4055(3)
H4M H 0.4358 0.2123 0.3866
O2O O 0.39017(25) 0.59406(18) -0.18512(14)
O3O O 0.27271(28) 0.53641(19) -0.1858(2)
C1O C 0.3315(4) 0.5486(3) -0.1662(2)
C2O C 0.3300(4) 0.5036(3) -0.1139(2)
C3O C 0.3912(4) 0.5172(3) -0.0857(2)
H1O H 0.4338 0.5557 -0.0999
N1O N 0.3937(4) 0.4783(3) -0.03870(19)
C4O C 0.3322(6) 0.4229(4) -0.0212(3)
H2O H 0.3328 0.3939 0.0108
C5O C 0.2687(6) 0.4058(4) -0.0467(4)
H3O H 0.2268 0.3667 -0.0319
C6O C 0.2666(5) 0.4465(4) -0.0945(3)
H4O H 0.2235 0.4358 -0.1134
O2P O 0.60983(25) 0.40594(18) 0.31488(14)
O3P O 0.72729(28) 0.46359(19) 0.3142(2)
C1P C 0.6685(4) 0.4514(3) 0.3338(2)
C2P C 0.6700(4) 0.4964(3) 0.3861(2)
C3P C 0.6088(4) 0.4828(3) 0.4143(2)
H1P H 0.5662 0.4443 0.4001
N1P N 0.6063(4) 0.5217(3) 0.46130(19)
C4P C 0.6678(6) 0.5771(4) 0.4788(3)
H2P H 0.6672 0.6061 0.5108
C5P C 0.7313(6) 0.5942(4) 0.4533(4)
H3P H 0.7732 0.6333 0.4681
C6P C 0.7334(5) 0.5535(4) 0.4055(3)
H4P H 0.7765 0.5642 0.3866
O2Q O 0.79611(17) 0.39017(25) 0.31488(14)
O3Q O 0.7363(2) 0.27271(28) 0.3142(2)
C1Q C 0.7829(3) 0.3315(4) 0.3338(2)
C2Q C 0.8264(3) 0.3300(4) 0.3861(2)
C3Q C 0.8740(3) 0.3912(4) 0.4143(2)
H1Q H 0.8781 0.4338 0.4001
N1Q N 0.9154(2) 0.3937(4) 0.46130(19)
C4Q C 0.9093(4) 0.3322(6) 0.4788(3)
H2Q H 0.9389 0.3328 0.5108
C5Q C 0.8629(4) 0.2687(6) 0.4533(4)
H3Q H 0.8601 0.2268 0.4681
C6Q C 0.8201(3) 0.2666(5) 0.4055(3)
H4Q H 0.7877 0.2235 0.3866
Cr1F Cr 0.41911(8) -0.24606(6) 0.2500
O2W O 0.39017(25) -0.20389(17) 0.18512(14)
O3W O 0.27271(28) -0.2637(2) 0.1858(2)
C1W C 0.3315(4) -0.2171(3) 0.1662(2)
C2W C 0.3300(4) -0.1736(3) 0.1139(2)
C3W C 0.3912(4) -0.1260(3) 0.0857(2)
H1W H 0.4338 -0.1219 0.0999
N1W N 0.3937(4) -0.0846(2) 0.03870(19)
C4W C 0.3322(6) -0.0907(4) 0.0212(3)
H2W H 0.3328 -0.0611 -0.0108
C5W C 0.2687(6) -0.1371(4) 0.0467(4)
H3W H 0.2268 -0.1399 0.0319
C6W C 0.2666(5) -0.1799(3) 0.0945(3)
H4W H 0.2235 -0.2123 0.1134
O4F O 0.5119(4) -0.1550(3) 0.2500
C7F C 0.5218(15) -0.0866(10) 0.2500
Cl1B Cl 1.0000 0.55939(12) 0.09714(8)
Cl1C Cl 0.44061(12) 0.44061(12) 0.09714(8)
Mn1A Mn 0.5000 0.0000 0.5000
Mn1D Mn 0.5000 0.5000 0.5000
Mn1E Mn 1.0000 0.5000 0.5000
Cr1A Cr 0.33483(6) -0.24606(6) -0.2500
Cr1D Cr 0.41911(8) -0.33483(6) -0.2500
Cr1D_2 Cr 0.41911(8) 0.66517(6) -0.2500
Cr1E Cr 0.24606(6) 0.58089(8) -0.2500
Cr1H Cr 0.24606(6) -0.33483(6) 0.2500
Cr1K Cr 0.58089(8) 0.24606(6) -0.2500
O1F O 0.3334 -0.3333 0.2500
O2F O 0.39017(25) -0.20389(17) 0.31488(14)
O2S O 0.59406(18) 0.39017(25) -0.31488(14)
O2T O 0.79611(17) 0.40594(18) -0.31488(14)
O3G O 0.46359(19) -0.27271(28) 0.3142(2)
O3R O 0.72729(28) 0.2637(2) -0.3142(2)
O3T O 0.7363(2) 0.46359(19) -0.3142(2)
O3V O 0.46359(19) -0.27271(28) 0.1858(2)
N1N N 1.0846(2) 0.6063(4) -0.03870(19)
N1U N 1.0846(2) 0.4783(3) 0.03870(19)
N1V N 0.5217(3) 0.6063(4) 0.03870(19)
loop_
_geom_bond_atom_site_label_1
_geom_bond_atom_site_label_2
_geom_bond_site_symmetry_1
_geom_bond_site_symmetry_2
Mn1 Cl1 1_555 1_555
Cr1 O1 1_555 1_555
O1 Cr1B 1_555 1_555
O2 Cr1 1_555 1_555
O3 C1 1_555 1_555
C1 O2 1_555 1_555
C2 C1 1_555 1_555
C3 C2 1_555 1_555
H1 C3 1_555 1_555
N1 Mn1 1_555 1_555
C4 N1 1_555 1_555
H2 C4 1_555 1_555
C5 C4 1_555 1_555
H3 C5 1_555 1_555
C6 C2 1_555 1_555
H4 C6 1_555 1_555
O4 Cr1 1_555 1_555
C7 O4 1_555 1_555
Mn1B N1B 1_555 1_555
Cr1B O2B 1_555 1_555
O2B C1B 1_555 1_555
O3B Cr1 1_555 1_555
C1B O3B 1_555 1_555
C2B C1B 1_555 1_555
C3B C2B 1_555 1_555
H1B C3B 1_555 1_555
N1B C3B 1_555 1_555
C4B N1B 1_555 1_555
H2B C4B 1_555 1_555
C5B C4B 1_555 1_555
H3B C5B 1_555 1_555
C6B C2B 1_555 1_555
H4B C6B 1_555 1_555
O4B Cr1B 1_555 1_555
C7B O4B 1_555 1_555
Mn1C N1C 1_555 1_555
Cr1C O1 1_555 1_555
O2C Cr1C 1_555 1_555
O3C Cr1B 1_555 1_555
C1C O2C 1_555 1_555
C2C C1C 1_555 1_555
C3C C2C 1_555 1_555
H1C C3C 1_555 1_555
N1C C3C 1_555 1_555
C4C N1C 1_555 1_555
H2C C4C 1_555 1_555
C5C C4C 1_555 1_555
H3C C5C 1_555 1_555
C6C C2C 1_555 1_555
H4C C6C 1_555 1_555
O4C Cr1C 1_555 1_555
C7C O4C 1_555 1_555
Cl1I Mn1B 1_555 1_555
Cr1I O1I 1_555 1_555
O1I Cr1J 1_555 1_555
O2I Cr1I 1_555 1_555
O3I C1I 1_555 1_555
C1I O2I 1_555 1_555
C2I C1I 1_555 1_555
C3I C2I 1_555 1_555
H1I C3I 1_555 1_555
N1I Mn1B 1_555 1_555
C4I N1I 1_555 1_555
H2I C4I 1_555 1_555
C5I C4I 1_555 1_555
H3I C5I 1_555 1_555
C6I C2I 1_555 1_555
H4I C6I 1_555 1_555
O4I Cr1I 1_555 1_555
C7I O4I 1_555 1_555
Cl1J Mn1C 1_555 1_555
Cr1J O3I 1_555 1_555
O2J Cr1J 1_555 1_555
O3J C1J 1_555 1_555
C1J O2J 1_555 1_555
C2J C1J 1_555 1_555
C3J C2J 1_555 1_555
H1J C3J 1_555 1_555
N1J Mn1C 1_555 1_555
C4J N1J 1_555 1_555
H2J C4J 1_555 1_555
C5J C4J 1_555 1_555
H3J C5J 1_555 1_555
C6J C2J 1_555 1_555
H4J C6J 1_555 1_555
O4J Cr1J 1_555 1_555
C7J O4J 1_555 1_555
Cl1K Mn1 1_555 1_555
O2K C1K 1_555 1_555
O3K Cr1I 1_555 1_555
C1K O3K 1_555 1_555
C2K C1K 1_555 1_555
C3K C2K 1_555 1_555
H1K C3K 1_555 1_555
N1K Mn1 1_555 1_555
C4K N1K 1_555 1_555
H2K C4K 1_555 1_555
C5K C4K 1_555 1_555
H3K C5K 1_555 1_555
C6K C2K 1_555 1_555
H4K C6K 1_555 1_555
O2L C1L 1_555 1_555
O3L C1L 1_555 1_555
C1L C2L 1_555 1_555
C2L C3L 1_555 1_555
C3L H1L 1_555 1_555
N1L Mn1 1_555 1_555
C4L N1L 1_555 1_555
H2L C4L 1_555 1_555
C5L C4L 1_555 1_555
H3L C5L 1_555 1_555
C6L C2L 1_555 1_555
H4L C6L 1_555 1_555
O2M Cr1 1_555 1_555
O3M Cr1C 1_555 1_555
C1M O2M 1_555 1_555
C2M C1M 1_555 1_555
C3M C2M 1_555 1_555
H1M C3M 1_555 1_555
N1M C3M 1_555 1_555
C4M N1M 1_555 1_555
H2M C4M 1_555 1_555
C5M C4M 1_555 1_555
H3M C5M 1_555 1_555
C6M C2M 1_555 1_555
H4M C6M 1_555 1_555
O2O C1O 1_555 1_555
O3O C1O 1_555 1_555
C1O C2O 1_555 1_555
C2O C3O 1_555 1_555
C3O H1O 1_555 1_555
N1O Mn1C 1_555 1_555
C4O N1O 1_555 1_555
H2O C4O 1_555 1_555
C5O C4O 1_555 1_555
H3O C5O 1_555 1_555
C6O C2O 1_555 1_555
H4O C6O 1_555 1_555
O2P Cr1C 1_555 1_555
O3P Cr1B 1_555 1_555
C1P O2P 1_555 1_555
C2P C1P 1_555 1_555
C3P C2P 1_555 1_555
H1P C3P 1_555 1_555
N1P C3P 1_555 1_555
C4P N1P 1_555 1_555
H2P C4P 1_555 1_555
C5P C4P 1_555 1_555
H3P C5P 1_555 1_555
C6P C2P 1_555 1_555
H4P C6P 1_555 1_555
O2Q Cr1B 1_555 1_555
O3Q Cr1 1_555 1_555
C1Q O2Q 1_555 1_555
C2Q C1Q 1_555 1_555
C3Q C2Q 1_555 1_555
H1Q C3Q 1_555 1_555
N1Q C3Q 1_555 1_555
C4Q N1Q 1_555 1_555
H2Q C4Q 1_555 1_555
C5Q C4Q 1_555 1_555
H3Q C5Q 1_555 1_555
C6Q C2Q 1_555 1_555
H4Q C6Q 1_555 1_555
Cr1F O2W 1_555 1_555
O2W C1W 1_555 1_555
O3W C1W 1_555 1_555
C1W C2W 1_555 1_555
C2W C3W 1_555 1_555
C3W H1W 1_555 1_555
N1W Mn1 1_555 1_555
C4W N1W 1_555 1_555
H2W C4W 1_555 1_555
C5W C4W 1_555 1_555
H3W C5W 1_555 1_555
C6W C2W 1_555 1_555
H4W C6W 1_555 1_555
O4F Cr1F 1_555 1_555
C7F O4F 1_555 1_555
Cl1B Mn1B 1_555 1_555
Cl1C Mn1C 1_555 1_555
Mn1A N1M 1_555 1_555
Mn1D N1P 1_555 1_555
Mn1E N1Q 1_555 1_555
Cr1A O2L 1_555 1_555
Cr1D O3L 1_555 1_555
Cr1D_2 O2O 1_555 1_555
Cr1E O3O 1_555 1_555
Cr1H O3W 1_555 1_555
Cr1K O1I 1_555 1_555
O1F Cr1F 1_555 1_555
O2F Cr1F 1_555 1_555
O2S Cr1J 1_555 1_555
O2T Cr1I 1_555 1_555
O3G Cr1F 1_555 1_555
O3R Cr1I 1_555 1_555
O3T Cr1J 1_555 1_555
O3V Cr1F 1_555 1_555
N1N Mn1B 1_555 1_555
N1U Mn1B 1_555 1_555
N1V Mn1C 1_555 1_555
O3 Cr1C 1_555 1_555
C3 N1 1_555 1_555
C5 C6 1_555 1_555
C5B C6B 1_555 1_555
O3C C1C 1_555 1_555
C5C C6C 1_555 1_555
C3I N1I 1_555 1_555
C5I C6I 1_555 1_555
O3J Cr1K 1_555 1_555
C3J N1J 1_555 1_555
C5J C6J 1_555 1_555
O2K Cr1K 1_555 1_555
C3K N1K 1_555 1_555
C5K C6K 1_555 1_555
C3L N1L 1_555 1_555
C5L C6L 1_555 1_555
O3M C1M 1_555 1_555
C5M C6M 1_555 1_555
C3O N1O 1_555 1_555
C5O C6O 1_555 1_555
O3P C1P 1_555 1_555
C5P C6P 1_555 1_555
O3Q C1Q 1_555 1_555
C5Q C6Q 1_555 1_555
C3W N1W 1_555 1_555
C5W C6W 1_555 1_555
Cr1H O1F 1_555 1_555

#END
