
#######################################################################
#
#                 Cambridge Crystallographic Data Centre
#                                CCDC 
#
#######################################################################
#
# If this CIF has been generated from an entry in the Cambridge 
# Structural Database, then it will include bibliographic, chemical, 
# crystal, experimental, refinement or atomic coordinate data resulting 
# from the CCDC's data processing and validation procedures.
#
#######################################################################

data_DOYHIK
_chemical_formula_moiety         '(C96 H38 O48 Zn7)n'
_symmetry_cell_setting           triclinic
_symmetry_space_group_name_H-M   'P -1'
_symmetry_Int_Tables_number      2
_space_group_name_Hall           '-P 1'
loop_
_symmetry_equiv_pos_site_id
_symmetry_equiv_pos_as_xyz
1 x,y,z
2 -x,-y,-z
_cell_length_a                   16.2364(7)
_cell_length_b                   16.9453(10)
_cell_length_c                   18.8524(7)
_cell_angle_alpha                114.997(5)
_cell_angle_beta                 90.916(3)
_cell_angle_gamma                113.540(5)
_cell_volume                     4201.91
loop_
_atom_site_label
_atom_site_type_symbol
_atom_site_fract_x
_atom_site_fract_y
_atom_site_fract_z
Zn1 Zn 0.5000 0.0000 0.5000
Zn2 Zn 0.40227(3) -0.17688(4) 0.31583(3)
Zn3 Zn 1.00888(3) 0.06460(4) 0.34801(3)
Zn4 Zn 0.88986(3) 0.01822(4) 0.17083(3)
O1 O 0.61814(16) 0.14316(19) 0.57374(15)
O2 O 0.48167(17) 0.1847(2) 0.66976(15)
O3 O 0.41258(17) 0.0442(2) 0.55585(17)
O4 O 0.92357(18) 0.1221(2) 0.37218(16)
O5 O 0.07337(17) 0.1024(2) 0.45270(15)
O6 O 0.8455(2) 0.0889(3) 0.25690(17)
O7 O 0.10248(18) 0.1074(2) 0.29126(17)
C1 C 0.7002(2) 0.1619(3) 0.5603(2)
C2 C 0.5231(3) 0.2725(3) 0.2010(3)
O8 O 0.76492(19) 0.1791(3) 0.60764(18)
O9 O 0.1349(2) 0.0032(3) 0.39058(18)
O10 O 0.4672(2) 0.0432(2) 0.41854(18)
O11 O 0.2886(2) 0.7116(2) 1.24357(16)
O12 O 0.38360(19) 0.7074(2) 1.16185(18)
O13 O 0.42869(19) -0.0695(2) 0.29058(17)
C3 C 0.2678(3) 0.0893(3) 0.5348(2)
H1 H 0.2772 0.0456 0.4874
C4 C 0.2360(2) 0.2101(3) 0.6746(2)
C5 C 0.2577(2) 0.1260(3) 0.2250(2)
H2 H 0.2656 0.1429 0.2804
O14 O 0.0712(2) 0.0743(2) 0.71108(16)
C6 C 0.1716(2) 0.2363(3) 0.8000(2)
C7 C 0.8577(2) 0.1154(3) 0.3309(2)
C8 C 0.1767(3) 0.1677(3) 0.6016(2)
H3 H 0.1245 0.1796 0.5994
C9 C 0.4148(2) 0.1211(3) 0.6107(2)
O15 O 0.2245(2) 0.5785(2) 0.8759(2)
C10 C 0.2768(3) 0.5390(3) 0.8672(2)
O16 O 0.3610(2) 0.5829(2) 0.8708(2)
H4 H 0.3814 0.5421 0.8483
O17 O -0.0455(2) 0.4958(2) 1.13362(19)
H5 H -0.1002 0.4691 1.1373
C11 C 0.1740(2) 0.4559(3) 0.9735(2)
C12 C 0.3131(2) 0.1953(3) 0.6773(2)
H6 H 0.3555 0.2265 0.7270
O18 O 0.1448(3) 0.0266(3) -0.05849(19)
C13 C 0.2187(2) 0.2733(3) 0.7512(2)
C14 C 0.7847(3) 0.1497(3) 0.4481(2)
H7 H 0.8301 0.1444 0.4758
O19 O -0.0921(2) 0.3598(2) 1.0162(2)
C15 C 0.2446(3) 0.5389(3) 1.0349(2)
H8 H 0.3054 0.5622 1.0263
C16 C 0.3194(3) 0.1039(3) 0.1072(2)
H9 H 0.3695 0.1053 0.0816
C17 C 0.0909(3) 0.0888(4) 0.2203(3)
C18 C 0.3063(3) 0.6745(3) 1.1745(2)
C19 C 0.1299(3) 0.0675(3) 0.4523(2)
O20 O 0.5943(2) 0.2822(3) 0.1679(2)
H10 H 0.6054 0.3254 0.1536
C20 C 0.1595(2) 0.2982(3) 0.8720(2)
H11 H 0.1285 0.2723 0.9051
C21 C 0.3294(2) 0.1348(3) 0.6073(2)
O21 O 0.4770(2) 0.3135(3) 0.2020(3)
C22 C 0.5053(2) 0.2067(3) 0.2376(2)
C23 C 0.1289(3) 0.1301(3) 0.7766(2)
C24 C 0.2275(3) 0.5884(3) 1.1088(2)
C25 C 0.5694(3) 0.1566(3) 0.3199(2)
C26 C 0.1921(2) 0.3974(3) 0.8962(2)
C27 C 0.7185(2) 0.1448(3) 0.3303(2)
H12 H 0.7179 0.1330 0.2763
C28 C 0.5814(3) 0.2120(3) 0.2802(3)
H13 H 0.6420 0.2543 0.2818
C29 C 0.1616(3) 0.0765(3) 0.1019(2)
H14 H 0.1039 0.0590 0.0721
C30 C 0.2403(2) 0.4346(3) 0.8482(2)
C31 C 0.2543(3) 0.3735(3) 0.7772(2)
H15 H 0.2886 0.4004 0.7458
C32 C 0.7884(3) 0.1423(3) 0.3721(2)
C33 C 0.6500(3) 0.1639(3) 0.3656(3)
C34 C 0.1383(3) 0.5570(3) 1.1217(2)
H16 H 0.1265 0.5914 1.1719
C35 C 0.2351(3) 0.0783(3) 0.0642(2)
C36 C 0.4165(3) 0.1431(3) 0.2342(2)
C37 C 0.1922(3) 0.1079(3) 0.5315(2)
C38 C 0.6492(3) 0.1745(3) 0.4430(3)
H17 H 0.6032 0.1886 0.4686
C39 C 0.0667(3) 0.4748(3) 1.0599(2)
C40 C 0.4806(3) 0.0906(3) 0.3136(2)
C41 C 0.0862(3) 0.4248(3) 0.9872(2)
H18 H 0.0375 0.3675 0.9458
C42 C 0.3307(3) 0.1277(3) 0.1889(2)
C43 C 0.1722(3) 0.1000(3) 0.1823(3)
C44 C 0.4061(3) 0.0856(3) 0.2710(2)
H19 H 0.3457 0.0408 0.2672
C45 C -0.0320(3) 0.4362(3) 1.0673(3)
O22 O 0.1513(3) 0.1056(2) 0.8233(2)
C46 C 0.4584(3) 0.0166(3) 0.3444(3)
C47 C 0.7133(3) 0.1649(3) 0.4836(3)
C48 C 0.2214(3) 0.0496(4) -0.0238(3)
O23 O 0.0176(2) 0.0604(4) 0.1769(2)
O24 O 0.2826(3) 0.0468(5) -0.0577(2)
Zn2A Zn 0.59773(3) 0.17688(4) -0.31583(3)
Zn3A Zn -0.00888(3) -0.06460(4) -0.34801(3)
Zn4A Zn 0.11014(3) -0.01822(4) -0.17083(3)
O1A O 0.38186(16) -0.14316(19) -0.57374(15)
O4A O 0.07643(18) -0.1221(2) -0.37218(16)
O6A O 0.1545(2) -0.0889(3) -0.25690(17)
O7A O 0.89752(18) -0.1074(2) -0.29126(17)
C1A C 0.2998(2) -0.1619(3) -0.5603(2)
C2A C 0.4769(3) -0.2725(3) -0.2010(3)
O8A O 0.23508(19) -0.1791(3) -0.60764(18)
O10A O 0.5328(2) -0.0432(2) -0.41854(18)
O13A O 0.57131(19) 0.0695(2) -0.29058(17)
C5A C 0.7423(2) -0.1260(3) -0.2250(2)
H2A H 0.7344 -0.1429 -0.2804
C7A C 0.1423(2) -0.1154(3) -0.3309(2)
O18A O 0.8552(3) -0.0266(3) 0.05849(19)
C14A C 0.2153(3) -0.1497(3) -0.4481(2)
H7A H 0.1699 -0.1444 -0.4758
C16A C 0.6806(3) -0.1039(3) -0.1072(2)
H9A H 0.6305 -0.1053 -0.0816
C17A C 0.9091(3) -0.0888(4) -0.2203(3)
O20A O 0.4057(2) -0.2822(3) -0.1679(2)
H10A H 0.3946 -0.3254 -0.1536
O21A O 0.5230(2) -0.3135(3) -0.2020(3)
C22A C 0.4947(2) -0.2067(3) -0.2376(2)
C25A C 0.4306(3) -0.1566(3) -0.3199(2)
C27A C 0.2815(2) -0.1448(3) -0.3303(2)
H12A H 0.2821 -0.1330 -0.2763
C28A C 0.4186(3) -0.2120(3) -0.2802(3)
H13A H 0.3580 -0.2543 -0.2818
C29A C 0.8384(3) -0.0765(3) -0.1019(2)
H14A H 0.8961 -0.0590 -0.0721
C32A C 0.2116(3) -0.1423(3) -0.3721(2)
C33A C 0.3500(3) -0.1639(3) -0.3656(3)
C35A C 0.7649(3) -0.0783(3) -0.0642(2)
C36A C 0.5835(3) -0.1431(3) -0.2342(2)
C38A C 0.3508(3) -0.1745(3) -0.4430(3)
H17A H 0.3968 -0.1886 -0.4686
C40A C 0.5194(3) -0.0906(3) -0.3136(2)
C42A C 0.6693(3) -0.1277(3) -0.1889(2)
C43A C 0.8278(3) -0.1000(3) -0.1823(3)
C44A C 0.5939(3) -0.0856(3) -0.2710(2)
H19A H 0.6543 -0.0408 -0.2672
C46A C 0.5416(3) -0.0166(3) -0.3444(3)
C47A C 0.2867(3) -0.1649(3) -0.4836(3)
C48A C 0.7786(3) -0.0496(4) 0.0238(3)
O23A O 0.9824(2) -0.0604(4) -0.1769(2)
O24A O 0.7174(3) -0.0468(5) 0.0577(2)
O2A O 0.51833(17) -0.1847(2) 0.33024(15)
O3A O 0.58742(17) -0.0442(2) 0.44415(17)
O5A O 0.92663(17) -0.1024(2) 0.54730(15)
O9A O 0.8651(2) -0.0032(3) 0.60942(18)
O11A O 0.7114(2) -0.7116(2) -0.24357(16)
O12A O 0.61640(19) -0.7074(2) -0.16185(18)
C3A C 0.7322(3) -0.0893(3) 0.4652(2)
H1A H 0.7228 -0.0456 0.5126
C4A C 0.7640(2) -0.2101(3) 0.3254(2)
O14A O 0.9288(2) -0.0743(2) 0.28892(16)
C6A C 0.8284(2) -0.2363(3) 0.2000(2)
C8A C 0.8233(3) -0.1677(3) 0.3984(2)
H3A H 0.8755 -0.1796 0.4006
C9A C 0.5852(2) -0.1211(3) 0.3893(2)
O15A O 0.7755(2) -0.5785(2) 0.1241(2)
C10A C 0.7232(3) -0.5390(3) 0.1328(2)
O16A O 0.6390(2) -0.5829(2) 0.1292(2)
H4A H 0.6186 -0.5421 0.1517
O17A O 1.0455(2) -0.4958(2) -0.13362(19)
H5A H 1.1002 -0.4691 -0.1373
C11A C 0.8260(2) -0.4559(3) 0.0265(2)
C12A C 0.6869(2) -0.1953(3) 0.3227(2)
H6A H 0.6445 -0.2265 0.2730
C13A C 0.7813(2) -0.2733(3) 0.2488(2)
O19A O 1.0921(2) -0.3598(2) -0.0162(2)
C15A C 0.7554(3) -0.5389(3) -0.0349(2)
H8A H 0.6946 -0.5622 -0.0263
C18A C 0.6937(3) -0.6745(3) -0.1745(2)
C19A C 0.8701(3) -0.0675(3) 0.5477(2)
C20A C 0.8405(2) -0.2982(3) 0.1280(2)
H11A H 0.8715 -0.2723 0.0949
C21A C 0.6706(2) -0.1348(3) 0.3927(2)
C23A C 0.8711(3) -0.1301(3) 0.2234(2)
C24A C 0.7725(3) -0.5884(3) -0.1088(2)
C26A C 0.8079(2) -0.3974(3) 0.1038(2)
C30A C 0.7597(2) -0.4346(3) 0.1518(2)
C31A C 0.7457(3) -0.3735(3) 0.2228(2)
H15A H 0.7114 -0.4004 0.2542
C34A C 0.8617(3) -0.5570(3) -0.1217(2)
H16A H 0.8735 -0.5914 -0.1719
C37A C 0.8078(3) -0.1079(3) 0.4685(2)
C39A C 0.9333(3) -0.4748(3) -0.0599(2)
C41A C 0.9138(3) -0.4248(3) 0.0128(2)
H18A H 0.9625 -0.3675 0.0542
C45A C 1.0320(3) -0.4362(3) -0.0673(3)
O22A O 0.8487(3) -0.1056(2) 0.1767(2)
Zn1_2 Zn 0.5000 0.0000 -0.5000
Zn2_2 Zn 0.40227(3) -0.17688(4) -0.68417(3)
Zn2_3 Zn 0.40227(3) 0.82312(4) 1.31583(3)
Zn2A_2 Zn 0.59773(3) -0.82312(4) -0.31583(3)
Zn2A_3 Zn 0.59773(3) 0.17688(4) 0.68417(3)
Zn3_2 Zn 0.00888(3) 0.06460(4) 0.34801(3)
Zn3A_2 Zn -0.00888(3) -0.06460(4) 0.65199(3)
Zn3A_3 Zn 0.99112(3) -0.06460(4) -0.34801(3)
Zn3A_4 Zn 0.99112(3) -0.06460(4) 0.65199(3)
Zn4_2 Zn -0.11014(3) 0.01822(4) 0.17083(3)
Zn4A_2 Zn 0.11014(3) -0.01822(4) 0.82917(3)
Zn4A_3 Zn 1.11014(3) -0.01822(4) -0.17083(3)
O1_2 O 0.61814(16) 0.14316(19) -0.42626(15)
O1A_2 O 0.38186(16) -0.14316(19) 0.42626(15)
O2_2 O 0.48167(17) 0.1847(2) -0.33024(15)
O5_2 O 1.07337(17) 0.1024(2) 0.45270(15)
O5A_2 O -0.07337(17) -0.1024(2) -0.45270(15)
O7_2 O 1.10248(18) 0.1074(2) 0.29126(17)
O7A_2 O -0.10248(18) -0.1074(2) -0.29126(17)
O10A_2 O 0.5328(2) -0.0432(2) 0.58146(18)
O11_2 O 0.2886(2) -0.2884(2) 0.24357(16)
O11A_2 O 0.7114(2) 0.2884(2) -0.24357(16)
O14_2 O 0.0712(2) 0.0743(2) -0.28892(16)
O22_2 O 0.1513(3) 0.1056(2) -0.1767(2)
O23_2 O 1.0176(2) 0.0604(4) 0.1769(2)
O23A_2 O -0.0176(2) -0.0604(4) -0.1769(2)
loop_
_geom_bond_atom_site_label_1
_geom_bond_atom_site_label_2
_geom_bond_site_symmetry_1
_geom_bond_site_symmetry_2
Zn1 O1 1_555 1_555
Zn2 O13 1_555 1_555
Zn3 O4 1_555 1_555
Zn4 O6 1_555 1_555
O1 C1 1_555 1_555
O2 C9 1_555 1_555
O3 Zn1 1_555 1_555
O4 C7 1_555 1_555
O5 C19 1_555 1_555
O6 C7 1_555 1_555
O7 C17 1_555 1_555
C1 O8 1_555 1_555
C2 O20 1_555 1_555
O9 C19 1_555 1_555
O10 Zn1 1_555 1_555
O11 C18 1_555 1_555
O12 C18 1_555 1_555
O13 C46 1_555 1_555
C3 H1 1_555 1_555
C4 C8 1_555 1_555
C5 H2 1_555 1_555
O14 C23 1_555 1_555
C6 C13 1_555 1_555
C7 C32 1_555 1_555
C8 H3 1_555 1_555
C9 O3 1_555 1_555
O15 C10 1_555 1_555
C10 O16 1_555 1_555
O16 H4 1_555 1_555
O17 H5 1_555 1_555
C11 C15 1_555 1_555
C12 C4 1_555 1_555
H6 C12 1_555 1_555
O18 C48 1_555 1_555
C13 C4 1_555 1_555
C14 H7 1_555 1_555
O19 C45 1_555 1_555
C15 H8 1_555 1_555
C16 H9 1_555 1_555
C17 C43 1_555 1_555
C18 C24 1_555 1_555
C19 C37 1_555 1_555
O20 H10 1_555 1_555
C20 C6 1_555 1_555
H11 C20 1_555 1_555
C21 C3 1_555 1_555
O21 C2 1_555 1_555
C22 C2 1_555 1_555
C23 C6 1_555 1_555
C24 C15 1_555 1_555
C25 C28 1_555 1_555
C26 C11 1_555 1_555
C27 H12 1_555 1_555
C28 C22 1_555 1_555
H13 C28 1_555 1_555
C29 H14 1_555 1_555
C30 C10 1_555 1_555
C31 C13 1_555 1_555
H15 C31 1_555 1_555
C32 C14 1_555 1_555
C33 C25 1_555 1_555
C34 C24 1_555 1_555
H16 C34 1_555 1_555
C35 C16 1_555 1_555
C36 C22 1_555 1_555
C37 C3 1_555 1_555
C38 C33 1_555 1_555
H17 C38 1_555 1_555
C39 C34 1_555 1_555
C40 C25 1_555 1_555
C41 C11 1_555 1_555
H18 C41 1_555 1_555
C42 C5 1_555 1_555
C43 C5 1_555 1_555
C44 C36 1_555 1_555
H19 C44 1_555 1_555
C45 O17 1_555 1_555
O22 C23 1_555 1_555
C46 O10 1_555 1_555
C47 C1 1_555 1_555
C48 C35 1_555 1_555
O23 C17 1_555 1_555
O24 C48 1_555 1_555
Zn2A O13A 1_555 1_555
Zn3A O4A 1_555 1_555
Zn4A O18 1_555 1_555
O1A C1A 1_555 1_555
O4A C7A 1_555 1_555
O6A Zn4A 1_555 1_555
O7A C17A 1_555 1_555
C1A O8A 1_555 1_555
C2A O20A 1_555 1_555
O10A C46A 1_555 1_555
O13A C46A 1_555 1_555
C5A H2A 1_555 1_555
C7A O6A 1_555 1_555
O18A Zn4 1_555 1_555
C14A H7A 1_555 1_555
C16A H9A 1_555 1_555
C17A C43A 1_555 1_555
O20A H10A 1_555 1_555
O21A C2A 1_555 1_555
C22A C2A 1_555 1_555
C25A C28A 1_555 1_555
C27A H12A 1_555 1_555
C28A C22A 1_555 1_555
H13A C28A 1_555 1_555
C29A H14A 1_555 1_555
C32A C7A 1_555 1_555
C33A C25A 1_555 1_555
C35A C16A 1_555 1_555
C36A C22A 1_555 1_555
C38A C33A 1_555 1_555
H17A C38A 1_555 1_555
C40A C25A 1_555 1_555
C42A C5A 1_555 1_555
C43A C5A 1_555 1_555
C44A C36A 1_555 1_555
H19A C44A 1_555 1_555
C46A C40A 1_555 1_555
C47A C1A 1_555 1_555
C48A O18A 1_555 1_555
O23A C17A 1_555 1_555
O24A C48A 1_555 1_555
O2A Zn2 1_555 1_555
O3A Zn1 1_555 1_555
O5A C19A 1_555 1_555
O9A C19A 1_555 1_555
O11A C18A 1_555 1_555
O12A C18A 1_555 1_555
C3A H1A 1_555 1_555
C4A C8A 1_555 1_555
O14A Zn3 1_555 1_555
C6A C13A 1_555 1_555
C8A H3A 1_555 1_555
C9A O2A 1_555 1_555
O15A C10A 1_555 1_555
C10A O16A 1_555 1_555
O16A H4A 1_555 1_555
O17A H5A 1_555 1_555
C11A C15A 1_555 1_555
C12A C4A 1_555 1_555
H6A C12A 1_555 1_555
C13A C4A 1_555 1_555
O19A C45A 1_555 1_555
C15A H8A 1_555 1_555
C18A C24A 1_555 1_555
C19A C37A 1_555 1_555
C20A C6A 1_555 1_555
H11A C20A 1_555 1_555
C21A C3A 1_555 1_555
C23A O14A 1_555 1_555
C24A C15A 1_555 1_555
C26A C11A 1_555 1_555
C30A C10A 1_555 1_555
C31A C13A 1_555 1_555
H15A C31A 1_555 1_555
C34A C24A 1_555 1_555
H16A C34A 1_555 1_555
C37A C3A 1_555 1_555
C39A C34A 1_555 1_555
C41A C11A 1_555 1_555
H18A C41A 1_555 1_555
C45A O17A 1_555 1_555
O22A Zn4 1_555 1_555
Zn1_2 O1A 1_555 1_555
Zn2_2 O1A 1_555 1_555
Zn2_3 O11 1_555 1_555
Zn2A_2 O11A 1_555 1_555
Zn2A_3 O1 1_555 1_555
Zn3_2 O5 1_555 1_555
Zn3A_2 O14 1_555 1_555
Zn3A_3 O7A 1_555 1_555
Zn3A_4 O5A 1_555 1_555
Zn4_2 O23 1_555 1_555
Zn4A_2 O22 1_555 1_555
Zn4A_3 O23A 1_555 1_555
O1_2 Zn2A 1_555 1_555
O1A_2 Zn1 1_555 1_555
O2_2 Zn2A 1_555 1_555
O5_2 Zn3 1_555 1_555
O5A_2 Zn3A 1_555 1_555
O7_2 Zn3 1_555 1_555
O7A_2 Zn3A 1_555 1_555
O10A_2 Zn1 1_555 1_555
O11_2 Zn2 1_555 1_555
O11A_2 Zn2A 1_555 1_555
O14_2 Zn3A 1_555 1_555
O22_2 Zn4A 1_555 1_555
O23_2 Zn4 1_555 1_555
O23A_2 Zn4A 1_555 1_555
Zn2 O1A_2 1_555 1_555
O2 Zn2A_3 1_555 1_555
O7 Zn3_2 1_555 1_555
C8 C37 1_555 1_555
C9 C21 1_555 1_555
C12 C21 1_555 1_555
C14 C47 1_555 1_555
C16 C42 1_555 1_555
C20 C26 1_555 1_555
C26 C30 1_555 1_555
C27 C32 1_555 1_555
C27 C33 1_555 1_555
C29 C35 1_555 1_555
C29 C43 1_555 1_555
C30 C31 1_555 1_555
C36 C42 1_555 1_555
C38 C47 1_555 1_555
C39 C41 1_555 1_555
C39 C45 1_555 1_555
C40 C44 1_555 1_555
C40 C46 1_555 1_555
O10A Zn1_2 1_555 1_555
C14A C32A 1_555 1_555
C14A C47A 1_555 1_555
C16A C42A 1_555 1_555
C27A C32A 1_555 1_555
C27A C33A 1_555 1_555
C29A C35A 1_555 1_555
C29A C43A 1_555 1_555
C35A C48A 1_555 1_555
C36A C42A 1_555 1_555
C38A C47A 1_555 1_555
C40A C44A 1_555 1_555
O3A C9A 1_555 1_555
C6A C23A 1_555 1_555
C8A C37A 1_555 1_555
C9A C21A 1_555 1_555
C12A C21A 1_555 1_555
C20A C26A 1_555 1_555
C23A O22A 1_555 1_555
C26A C30A 1_555 1_555
C30A C31A 1_555 1_555
C39A C41A 1_555 1_555
C39A C45A 1_555 1_555
Zn1_2 O1_2 1_555 1_555

#END
