
#######################################################################
#
#                 Cambridge Crystallographic Data Centre
#                                CCDC 
#
#######################################################################
#
# If this CIF has been generated from an entry in the Cambridge 
# Structural Database, then it will include bibliographic, chemical, 
# crystal, experimental, refinement or atomic coordinate data resulting 
# from the CCDC's data processing and validation procedures.
#
#######################################################################

data_MAFJIO
_chemical_formula_moiety         '(C19 H16 Cu2 O12)n'
_symmetry_cell_setting           hexagonal
_symmetry_space_group_name_H-M   'P 63 2 2'
_symmetry_Int_Tables_number      182
_space_group_name_Hall           'P 6c 2c'
loop_
_symmetry_equiv_pos_site_id
_symmetry_equiv_pos_as_xyz
1 x,y,z
2 -x,-y,1/2+z
3 -y,x-y,z
4 -x+y,-x,z
5 x-y,x,1/2+z
6 y,-x+y,1/2+z
7 x-y,-y,-z
8 -x,-x+y,-z
9 y,x,-z
10 -y,-x,1/2-z
11 x,x-y,1/2-z
12 -x+y,y,1/2-z
_cell_length_a                   18.5773(3)
_cell_length_b                   18.5773(3)
_cell_length_c                   22.6933(5)
_cell_angle_alpha                90
_cell_angle_beta                 90
_cell_angle_gamma                120
_cell_volume                     6782.56
loop_
_atom_site_label
_atom_site_type_symbol
_atom_site_fract_x
_atom_site_fract_y
_atom_site_fract_z
_atom_site_U_iso_or_equiv
_atom_site_thermal_displace_type
Cu1 Cu -0.045646(17) 0.498021(19) 0.451203(18) 0.0419 Uani
O1 O 0.03215(10) 0.61579(11) 0.42966(8) 0.0515 Uani
O2 O 0.11552(10) 0.64748(12) 0.50950(9) 0.0551 Uani
O3 O 0.43281(11) 0.96838(12) 0.42290(9) 0.0563 Uani
O4 O 0.39073(11) 0.89585(11) 0.50657(10) 0.0591 Uani
O5 O 0.16934(12) 0.89686(12) 0.32085(10) 0.0627 Uani
O6 O -0.11057(16) 0.46619(19) 0.36854(13) 0.0960 Uani
C1 C 0.37896(15) 0.91361(15) 0.45564(15) 0.0516 Uani
C2 C 0.09551(15) 0.66327(15) 0.45977(13) 0.0491 Uani
C3 C 0.26796(16) 0.89929(16) 0.38580(14) 0.0550 Uani
H1 H 0.3076 0.9504 0.3683 0.0660 Uiso
C4 C 0.29195(16) 0.86686(16) 0.43187(13) 0.0517 Uani
C5 C 0.23443(15) 0.79083(16) 0.45738(14) 0.0522 Uani
H2 H 0.2497 0.7695 0.4901 0.0630 Uiso
C6 C 0.15441(15) 0.74696(15) 0.43388(13) 0.0528 Uani
C7 C 0.12880(16) 0.77933(15) 0.38780(12) 0.0493 Uani
H3 H 0.0740 0.7491 0.3724 0.0590 Uiso
C8 C 0.18673(16) 0.85818(17) 0.36483(13) 0.0543 Uani
C9 C 0.08484(17) 0.85766(18) 0.30141(14) 0.0578 Uani
H4 H 0.0479 0.8566 0.3332 0.0690 Uiso
H5 H 0.0654 0.8001 0.2881 0.0690 Uiso
C10 C 0.08748(15) 0.91252(15) 0.2500 0.0640 Uani
H6 H 0.1085 0.9698 0.2647 0.0770 Uiso
Cu1I Cu 0.501979(19) 1.045646(17) 0.048797(18) 0.0419 Uani
Cu1G Cu 0.045646(17) 0.543667(25) 0.548797(18) 0.0419 Uani
Cu1C Cu 0.543667(25) 1.045646(17) 0.451203(18) 0.0419 Uani
Cu1H Cu 0.498021(19) 0.954354(17) 0.548797(18) 0.0419 Uani
Cu1J Cu -0.045646(17) 0.456333(25) 0.048797(18) 0.0419 Uani
Cu1A Cu 0.045646(17) 0.501979(19) -0.048797(18) 0.0419 Uani
Cu1D Cu 0.456333(25) 0.954354(17) -0.048797(18) 0.0419 Uani
O1I O 0.38421(11) 0.96785(10) 0.07034(8) 0.0515 Uani
O2I O 0.35252(12) 0.88448(10) -0.00950(9) 0.0551 Uani
O2G O -0.11552(10) 0.53196(16) 0.49050(9) 0.0551 Uani
O2D O 0.46804(16) 1.11552(10) 0.00950(9) 0.0551 Uani
O3I O 0.03162(12) 0.56719(11) 0.07710(9) 0.0563 Uani
O3B O 0.03162(12) 0.46443(16) 0.42290(9) 0.0563 Uani
O3K O 0.53557(16) 0.96838(12) 0.07710(9) 0.0563 Uani
O4I O 0.10415(11) 0.60927(11) -0.00657(10) 0.0591 Uani
O4H O -0.10415(11) 0.39073(11) 0.49343(10) 0.0591 Uani
O4A O 0.60927(11) 1.10415(11) 0.00657(10) 0.0591 Uani
O5I O 0.10314(12) 0.83066(12) 0.17915(10) 0.0627 Uani
O6I O 0.53381(19) 1.11057(16) 0.13146(13) 0.0960 Uani
C1I C 0.08639(15) 0.62104(15) 0.04436(15) 0.0516 Uani
C2I C 0.33673(15) 0.90449(15) 0.04023(13) 0.0491 Uani
C3I C 0.10071(16) 0.73204(16) 0.11420(14) 0.0550 Uani
H1I H 0.0496 0.6924 0.1317 0.0660 Uiso
C4I C 0.13314(16) 0.70805(16) 0.06813(13) 0.0517 Uani
C5I C 0.20917(16) 0.76557(15) 0.04262(14) 0.0522 Uani
H2I H 0.2305 0.7503 0.0099 0.0630 Uiso
C6I C 0.25304(15) 0.84559(15) 0.06612(13) 0.0528 Uani
C7I C 0.22067(15) 0.87120(16) 0.11220(12) 0.0493 Uani
H3I H 0.2509 0.9260 0.1276 0.0590 Uiso
C8I C 0.14182(17) 0.81327(16) 0.13517(13) 0.0543 Uani
C9I C 0.14234(18) 0.91516(17) 0.19859(14) 0.0578 Uani
H4I H 0.1434 0.9521 0.1668 0.0690 Uiso
H5I H 0.1999 0.9346 0.2119 0.0690 Uiso
H6I H 0.0302 0.8915 0.2353 0.0770 Uiso
loop_
_atom_site_aniso_label
_atom_site_aniso_U_11
_atom_site_aniso_U_22
_atom_site_aniso_U_33
_atom_site_aniso_U_23
_atom_site_aniso_U_13
_atom_site_aniso_U_12
Cu1 0.02801(16) 0.03928(18) 0.05570(18) -0.00297(19) -0.00630(17) 0.01479(14)
O1 0.0366(9) 0.0432(9) 0.0639(11) -0.0008(8) -0.0055(8) 0.0118(8)
O2 0.0387 0.0463 0.0677 -0.0042 -0.0014 0.0119
O3 0.0413 0.0464 0.0693 0.0006 0.0016 0.013
O4 0.0449 0.043 0.0745 0.0076 0.0025 0.0108
O5 0.0475(10) 0.0534(11) 0.0735(13) 0.0127(9) -0.0028(9) 0.0150(9)
O6 0.0850(17) 0.115(2) 0.0925(19) -0.0219(17) -0.0270(14) 0.0533(16)
C1 0.0374(12) 0.0376(12) 0.0759(19) -0.0013(15) 0.0061(14) 0.0158(10)
C2 0.0366(13) 0.0393(12) 0.0681(19) -0.0014(13) 0.0011(13) 0.0165(11)
C3 0.0394(13) 0.0393(14) 0.0714(18) -0.0002(13) 0.0016(13) 0.0085(11)
C4 0.0387(12) 0.0405(13) 0.0686(19) -0.0056(12) -0.0020(12) 0.0144(11)
C5 0.0395(12) 0.0461(13) 0.0672(17) -0.0047(14) 0.0008(13) 0.0186(10)
C6 0.0364(13) 0.0363(12) 0.076(2) -0.0031(12) 0.0103(12) 0.0108(10)
C7 0.0383(12) 0.0395(13) 0.0592(15) -0.0003(12) 0.0040(11) 0.0112(11)
C8 0.0448(14) 0.0507(15) 0.0600(16) 0.0032(13) -0.0001(12) 0.0184(13)
C9 0.0510(16) 0.0508(16) 0.0643(18) 0.0049(14) 0.0008(13) 0.0199(13)
C10 0.066(2) 0.066(2) 0.060(2) 0.0001(18) 0.0001(18) 0.033(2)
Cu1I 0.03928 0.02801 0.0557 -0.0063 -0.00297 0.01479
Cu1G 0.02801 0.03771 0.0557 -0.00333 -0.0063 0.01322
Cu1C 0.03771 0.02801 0.0557 0.0063 0.00333 0.01322
Cu1H 0.03928 0.02801 0.0557 0.0063 0.00297 0.01479
Cu1J 0.02801 0.03771 0.0557 0.00333 0.0063 0.01322
Cu1A 0.02801 0.03928 0.0557 0.00297 0.0063 0.01479
Cu1D 0.03771 0.02801 0.0557 -0.0063 -0.00333 0.01322
O1I 0.0432 0.0366 0.0639 -0.0055 -0.0008 0.0118
O2I 0.0463 0.0387 0.0677 -0.0014 -0.0042 0.0119
O2G 0.0387 0.0612 0.0677 0.0028 -0.0014 0.0268
O2D 0.0612 0.0387 0.0677 -0.0014 0.0028 0.0268
O3I 0.0464 0.0413 0.0693 0.0016 0.0006 0.013
O3B 0.0464 0.0617 0.0693 0.001 -0.0006 0.0334
O3K 0.0617 0.0464 0.0693 -0.0006 0.001 0.0334
O4I 0.043 0.0449 0.0745 0.0025 0.0076 0.0108
O4H 0.043 0.0449 0.0745 -0.0025 -0.0076 0.0108
O4A 0.0449 0.043 0.0745 -0.0076 -0.0025 0.0108
O5I 0.0534 0.0475 0.0735 -0.0028 0.0127 0.015
O6I 0.115 0.085 0.0925 -0.027 -0.0219 0.0533
C1I 0.0376 0.0374 0.0759 0.0061 -0.0013 0.0158
C2I 0.0393 0.0366 0.0681 0.0011 -0.0014 0.0165
C3I 0.0393 0.0394 0.0714 0.0016 -0.0002 0.0085
C4I 0.0405 0.0387 0.0686 -0.002 -0.0056 0.0144
C5I 0.0461 0.0395 0.0672 0.0008 -0.0047 0.0186
C6I 0.0363 0.0364 0.076 0.0103 -0.0031 0.0108
C7I 0.0395 0.0383 0.0592 0.004 -0.0003 0.0112
C8I 0.0507 0.0448 0.06 -0.0001 0.0032 0.0184
C9I 0.0508 0.051 0.0643 0.0008 0.0049 0.0199
loop_
_geom_bond_atom_site_label_1
_geom_bond_atom_site_label_2
_geom_bond_site_symmetry_1
_geom_bond_site_symmetry_2
Cu1 O1 1_555 1_555
O1 C2 1_555 1_555
O2 C2 1_555 1_555
O3 C1 1_555 1_555
O4 C1 1_555 1_555
O5 C8 1_555 1_555
O6 Cu1 1_555 1_555
C1 C4 1_555 1_555
C2 C6 1_555 1_555
C3 H1 1_555 1_555
C4 C3 1_555 1_555
C5 C4 1_555 1_555
H2 C5 1_555 1_555
C6 C5 1_555 1_555
C7 C6 1_555 1_555
H3 C7 1_555 1_555
C8 C3 1_555 1_555
C9 O5 1_555 1_555
H4 C9 1_555 1_555
H5 C9 1_555 1_555
C10 C9 1_555 1_555
H6 C10 1_555 1_555
Cu1I Cu1D 1_555 1_555
Cu1G Cu1 1_555 1_555
Cu1C O3 1_555 1_555
Cu1H O4 1_555 1_555
Cu1J Cu1A 1_555 1_555
Cu1A O4I 1_555 1_555
Cu1D O2I 1_555 1_555
O1I Cu1I 1_555 1_555
O2I C2I 1_555 1_555
O2G Cu1 1_555 1_555
O2D Cu1I 1_555 1_555
O3I Cu1J 1_555 1_555
O3B Cu1 1_555 1_555
O3K Cu1I 1_555 1_555
O4I C1I 1_555 1_555
O4H Cu1 1_555 1_555
O4A Cu1I 1_555 1_555
O5I C8I 1_555 1_555
O6I Cu1I 1_555 1_555
C1I O3I 1_555 1_555
C2I O1I 1_555 1_555
C3I H1I 1_555 1_555
C4I C1I 1_555 1_555
C5I C4I 1_555 1_555
H2I C5I 1_555 1_555
C6I C2I 1_555 1_555
C7I C6I 1_555 1_555
H3I C7I 1_555 1_555
C8I C3I 1_555 1_555
C9I C10 1_555 1_555
H4I C9I 1_555 1_555
H5I C9I 1_555 1_555
H6I C10 1_555 1_555
O2 Cu1G 1_555 1_555
C7 C8 1_555 1_555
Cu1C Cu1H 1_555 1_555
O5I C9I 1_555 1_555
C3I C4I 1_555 1_555
C5I C6I 1_555 1_555
C7I C8I 1_555 1_555

#END
