
#######################################################################
#
#                 Cambridge Crystallographic Data Centre
#                                CCDC 
#
#######################################################################
#
# If this CIF has been generated from an entry in the Cambridge 
# Structural Database, then it will include bibliographic, chemical, 
# crystal, experimental, refinement or atomic coordinate data resulting 
# from the CCDC's data processing and validation procedures.
#
#######################################################################

data_CUKXIR
_chemical_formula_moiety         '(C22 H22 Mn3 N1 O21 1-)n'
_symmetry_cell_setting           orthorhombic
_symmetry_space_group_name_H-M   'P b c n'
_symmetry_Int_Tables_number      60
_space_group_name_Hall           '-P 2n 2ab'
loop_
_symmetry_equiv_pos_site_id
_symmetry_equiv_pos_as_xyz
1 x,y,z
2 1/2-x,1/2-y,1/2+z
3 -x,y,1/2-z
4 1/2+x,1/2-y,-z
5 -x,-y,-z
6 1/2+x,1/2+y,1/2-z
7 x,-y,1/2+z
8 1/2-x,1/2+y,z
_cell_length_a                   19.1035(9)
_cell_length_b                   9.5430(4)
_cell_length_c                   17.6708(8)
_cell_angle_alpha                90
_cell_angle_beta                 90
_cell_angle_gamma                90
_cell_volume                     3221.47
loop_
_atom_site_label
_atom_site_type_symbol
_atom_site_fract_x
_atom_site_fract_y
_atom_site_fract_z
_atom_site_U_iso_or_equiv
_atom_site_thermal_displace_type
N1 N 0.40536(15) 0.2023(3) 0.56742(17) 0.0524 Uani
H1 H 0.4140 0.2773 0.5968 0.0630 Uiso
H2 H 0.3610 0.1753 0.5763 0.0630 Uiso
C1 C 0.45218(19) 0.0891(4) 0.5902(3) 0.0630 Uani
H3 H 0.4996 0.1223 0.5902 0.0940 Uiso
H4 H 0.4478 0.0125 0.5553 0.0940 Uiso
H5 H 0.4399 0.0579 0.6401 0.0940 Uiso
C2 C 0.4109(3) 0.2451(7) 0.4885(3) 0.1017 Uani
H6 H 0.4055 0.1647 0.4564 0.1530 Uiso
H7 H 0.4560 0.2867 0.4799 0.1530 Uiso
H8 H 0.3750 0.3122 0.4772 0.1530 Uiso
O1 O 0.43545(17) 0.8683(4) 0.7883(3) 0.0892 Uani
H9 H 0.3990 0.8980 0.7658 0.1070 Uiso
H10 H 0.4417 0.9149 0.8287 0.1340 Uiso
C3 C 0.37477(12) 0.2535(2) 1.07669(13) 0.0198 Uani
C4 C 0.34175(11) 0.1873(2) 1.00768(12) 0.0158 Uani
C5 C 0.28901(11) 0.0854(2) 1.01035(12) 0.0160 Uani
C6 C 0.26442(12) 0.0276(2) 0.94290(13) 0.0183 Uani
H11 H 0.2299 -0.0409 0.9449 0.0220 Uiso
C7 C 0.29006(11) 0.0694(2) 0.87250(12) 0.0159 Uani
C8 C 0.34352(11) 0.1704(2) 0.86970(12) 0.0160 Uani
C9 C 0.36787(12) 0.2268(2) 0.93715(13) 0.0177 Uani
H12 H 0.4031 0.2939 0.9352 0.0210 Uiso
C10 C 0.25631(11) 0.0319(2) 1.08304(13) 0.0162 Uani
C11 C 0.25915(11) -0.0004(2) 0.80274(12) 0.0165 Uani
C12 C 0.37772(12) 0.2197(2) 0.79724(12) 0.0172 Uani
Mn1 Mn 0.257214(18) 0.26640(4) 1.195741(18) 0.0162 Uani
Mn2 Mn 0.5000 0.42823(5) 0.7500 0.0197 Uani
O2 O 0.42326(11) 0.3369(2) 1.06595(11) 0.0440 Uani
O3 O 0.35284(8) 0.21793(18) 1.14150(9) 0.0235 Uani
O4 O 0.21327(8) 0.10893(16) 1.11678(9) 0.0198 Uani
O5 O 0.27194(9) -0.09109(17) 1.10158(9) 0.0234 Uani
O6 O 0.20892(8) 0.06073(17) 0.76984(9) 0.0207 Uani
O7 O 0.28375(9) -0.11672(17) 0.78531(10) 0.0253 Uani
O8 O 0.34686(8) 0.20067(19) 0.73516(9) 0.0237 Uani
O9 O 0.43643(9) 0.2761(2) 0.80432(9) 0.0288 Uani
O10 O 0.43581(11) 0.5830(2) 0.81462(13) 0.0441 Uani
H13 H 0.3877 0.5747 0.7997 0.0660 Uiso
H14 H 0.4522 0.6759 0.8038 0.0660 Uiso
O11 O 0.57506(9) 0.44971(19) 0.84152(11) 0.0312 Uani
H15 H 0.5689 0.5392 0.8654 0.0470 Uiso
H16 H 0.6217 0.4431 0.8215 0.0470 Uiso
C3B C 0.62523(12) 0.2535(2) 0.42331(13) 0.0198 Uani
C4B C 0.65825(11) 0.1873(2) 0.49232(12) 0.0158 Uani
C5B C 0.71099(11) 0.0854(2) 0.48965(12) 0.0160 Uani
C6B C 0.73558(12) 0.0276(2) 0.55710(13) 0.0183 Uani
H11B H 0.7701 -0.0409 0.5551 0.0220 Uiso
C7B C 0.70994(11) 0.0694(2) 0.62750(12) 0.0159 Uani
C8B C 0.65648(11) 0.1704(2) 0.63030(12) 0.0160 Uani
C9B C 0.63213(12) 0.2268(2) 0.56285(13) 0.0177 Uani
H12B H 0.5969 0.2939 0.5648 0.0210 Uiso
C10B C 0.74369(11) 0.0319(2) 0.41696(13) 0.0162 Uani
C11B C 0.74085(11) -0.0004(2) 0.69726(12) 0.0165 Uani
C12B C 0.62228(12) 0.2197(2) 0.70276(12) 0.0172 Uani
Mn1B Mn 0.742786(18) 0.26640(4) 0.304259(18) 0.0162 Uani
O2B O 0.57674(11) 0.3369(2) 0.43405(11) 0.0440 Uani
O3B O 0.64716(8) 0.21793(18) 0.35850(9) 0.0235 Uani
O4B O 0.78673(8) 0.10893(16) 0.38322(9) 0.0198 Uani
O5B O 0.72806(9) -0.09109(17) 0.39842(9) 0.0234 Uani
O6B O 0.79108(8) 0.06073(17) 0.73016(9) 0.0207 Uani
O7B O 0.71625(9) -0.11672(17) 0.71469(10) 0.0253 Uani
O8B O 0.65314(8) 0.20067(19) 0.76484(9) 0.0237 Uani
O9B O 0.56357(9) 0.2761(2) 0.69568(9) 0.0288 Uani
O10B O 0.56419(11) 0.5830(2) 0.68538(13) 0.0441 Uani
H13B H 0.6123 0.5747 0.7003 0.0660 Uiso
H14B H 0.5478 0.6759 0.6962 0.0660 Uiso
O11B O 0.42494(9) 0.44971(19) 0.65848(11) 0.0312 Uani
H15B H 0.4311 0.5392 0.6346 0.0470 Uiso
H16B H 0.3783 0.4431 0.6785 0.0470 Uiso
Mn1A Mn 0.242786(18) 0.23360(4) 0.695741(18) 0.0162 Uani
Mn1C Mn 0.757214(18) 0.23360(4) 0.804259(18) 0.0162 Uani
Mn1D Mn 0.742786(18) -0.26640(4) 0.804259(18) 0.0162 Uani
Mn1E Mn 0.757214(18) -0.23360(4) 0.304259(18) 0.0162 Uani
Mn1F Mn 0.257214(18) -0.26640(4) 0.695741(18) 0.0162 Uani
Mn1G Mn 0.242786(18) -0.23360(4) 1.195741(18) 0.0162 Uani
O5E O 0.77194(9) 0.40891(17) 0.39842(9) 0.0234 Uani
O5G O 0.22806(9) 0.40891(17) 1.10158(9) 0.0234 Uani
O6A O 0.29108(8) 0.43927(17) 1.26984(9) 0.0207 Uani
O6C O 0.70892(8) 0.43927(17) 0.23016(9) 0.0207 Uani
O7D O 0.71625(9) 0.11672(17) 0.21469(10) 0.0253 Uani
O7F O 0.28375(9) 0.11672(17) 1.28531(10) 0.0253 Uani
O8A O 0.15314(8) 0.29933(19) 1.23516(9) 0.0237 Uani
O8C O 0.84686(8) 0.29933(19) 0.26484(9) 0.0237 Uani
loop_
_atom_site_aniso_label
_atom_site_aniso_U_11
_atom_site_aniso_U_22
_atom_site_aniso_U_33
_atom_site_aniso_U_23
_atom_site_aniso_U_13
_atom_site_aniso_U_12
N1 0.0410(16) 0.0529(16) 0.0634(19) -0.0139(15) 0.0183(13) -0.0128(13)
C1 0.044(2) 0.058(2) 0.087(3) -0.017(2) 0.0075(19) -0.0071(17)
C2 0.077(3) 0.154(6) 0.074(3) 0.026(3) 0.027(3) -0.006(3)
O1 0.0315(17) 0.0412(19) 0.195(5) 0.001(3) -0.005(2) 0.0093(14)
C3 0.0188(11) 0.0239(12) 0.0168(11) -0.0050(9) 0.0018(9) -0.0012(9)
C4 0.0183(10) 0.0163(10) 0.0127(11) -0.0010(8) 0.0009(8) 0.0003(8)
C5 0.0187(11) 0.0152(10) 0.0140(11) 0.0008(8) 0.0012(8) 0.0021(8)
C6 0.0220(11) 0.0165(11) 0.0165(12) 0.0002(9) 0.0008(9) -0.0069(9)
C7 0.0193(11) 0.0155(10) 0.0129(11) -0.0006(8) -0.0001(8) 0.0009(8)
C8 0.0179(11) 0.0170(10) 0.0130(11) 0.0017(9) 0.0019(8) 0.0003(8)
C9 0.0180(11) 0.0166(11) 0.0184(12) 0.0002(9) 0.0005(8) -0.0029(8)
C10 0.0189(11) 0.0167(11) 0.0130(11) -0.0011(9) -0.0018(8) -0.0040(8)
C11 0.0198(11) 0.0181(11) 0.0116(11) 0.0015(8) 0.0032(8) -0.0053(9)
C12 0.0195(11) 0.0164(11) 0.0156(11) 0.0020(9) 0.0017(9) 0.0018(9)
Mn1 0.02020(19) 0.0168(2) 0.01164(19) 0.00012(13) 0.00037(13) 0.00035(13)
Mn2 0.0187(3) 0.0218(3) 0.0185(3) 0.000 0.00135(19) 0.000
O2 0.0471(12) 0.0599(14) 0.0250(10) -0.0155(9) 0.0088(9) -0.0337(11)
O3 0.0217(8) 0.0352(10) 0.0136(8) -0.0025(7) -0.0005(6) 0.0002(7)
O4 0.0229(8) 0.0198(8) 0.0166(8) -0.0022(6) 0.0038(6) -0.0006(6)
O5 0.0317(9) 0.0181(8) 0.0203(9) 0.0055(7) 0.0053(7) 0.0024(7)
O6 0.0225(8) 0.0233(8) 0.0163(8) 0.0015(7) -0.0023(6) -0.0014(7)
O7 0.0354(10) 0.0197(9) 0.0207(9) -0.0064(7) -0.0051(7) 0.0025(7)
O8 0.0222(8) 0.0354(10) 0.0134(8) 0.0022(7) 0.0001(6) -0.0007(7)
O9 0.0242(9) 0.0417(11) 0.0206(9) 0.0073(8) 0.0008(7) -0.0128(8)
O10 0.0342(11) 0.0438(12) 0.0544(14) -0.0151(10) 0.0002(10) 0.0081(9)
O11 0.0253(9) 0.0332(10) 0.0352(11) -0.0115(8) -0.0070(8) 0.0023(7)
C3B 0.0188 0.0239 0.0168 0.005 0.0018 0.0012
C4B 0.0183 0.0163 0.0127 0.001 0.0009 -0.0003
C5B 0.0187 0.0152 0.014 -0.0008 0.0012 -0.0021
C6B 0.022 0.0165 0.0165 -0.0002 0.0008 0.0069
C7B 0.0193 0.0155 0.0129 0.0006 -0.0001 -0.0009
C8B 0.0179 0.017 0.013 -0.0017 0.0019 -0.0003
C9B 0.018 0.0166 0.0184 -0.0002 0.0005 0.0029
C10B 0.0189 0.0167 0.013 0.0011 -0.0018 0.004
C11B 0.0198 0.0181 0.0116 -0.0015 0.0032 0.0053
C12B 0.0195 0.0164 0.0156 -0.002 0.0017 -0.0018
Mn1B 0.0202 0.0168 0.01164 -0.00012 0.00037 -0.00035
O2B 0.0471 0.0599 0.025 0.0155 0.0088 0.0337
O3B 0.0217 0.0352 0.0136 0.0025 -0.0005 -0.0002
O4B 0.0229 0.0198 0.0166 0.0022 0.0038 0.0006
O5B 0.0317 0.0181 0.0203 -0.0055 0.0053 -0.0024
O6B 0.0225 0.0233 0.0163 -0.0015 -0.0023 0.0014
O7B 0.0354 0.0197 0.0207 0.0064 -0.0051 -0.0025
O8B 0.0222 0.0354 0.0134 -0.0022 0.0001 0.0007
O9B 0.0242 0.0417 0.0206 -0.0073 0.0008 0.0128
O10B 0.0342 0.0438 0.0544 0.0151 0.0002 -0.0081
O11B 0.0253 0.0332 0.0352 0.0115 -0.007 -0.0023
Mn1A 0.0202 0.0168 0.01164 -0.00012 -0.00037 0.00035
Mn1C 0.0202 0.0168 0.01164 0.00012 -0.00037 -0.00035
Mn1D 0.0202 0.0168 0.01164 0.00012 0.00037 0.00035
Mn1E 0.0202 0.0168 0.01164 -0.00012 -0.00037 0.00035
Mn1F 0.0202 0.0168 0.01164 -0.00012 0.00037 -0.00035
Mn1G 0.0202 0.0168 0.01164 0.00012 -0.00037 -0.00035
O5E 0.0317 0.0181 0.0203 -0.0055 -0.0053 0.0024
O5G 0.0317 0.0181 0.0203 0.0055 -0.0053 -0.0024
O6A 0.0225 0.0233 0.0163 -0.0015 0.0023 -0.0014
O6C 0.0225 0.0233 0.0163 0.0015 0.0023 0.0014
O7D 0.0354 0.0197 0.0207 -0.0064 -0.0051 0.0025
O7F 0.0354 0.0197 0.0207 0.0064 -0.0051 -0.0025
O8A 0.0222 0.0354 0.0134 -0.0022 -0.0001 -0.0007
O8C 0.0222 0.0354 0.0134 0.0022 -0.0001 0.0007
loop_
_geom_bond_atom_site_label_1
_geom_bond_atom_site_label_2
_geom_bond_site_symmetry_1
_geom_bond_site_symmetry_2
N1 H1 1_555 1_555
H2 N1 1_555 1_555
C1 N1 1_555 1_555
H3 C1 1_555 1_555
H4 C1 1_555 1_555
H5 C1 1_555 1_555
C2 N1 1_555 1_555
H6 C2 1_555 1_555
H7 C2 1_555 1_555
H8 C2 1_555 1_555
O1 H9 1_555 1_555
H10 O1 1_555 1_555
C3 C4 1_555 1_555
C4 C5 1_555 1_555
C5 C6 1_555 1_555
C6 H11 1_555 1_555
C7 C6 1_555 1_555
C8 C7 1_555 1_555
C9 C4 1_555 1_555
H12 C9 1_555 1_555
C10 C5 1_555 1_555
C11 C7 1_555 1_555
C12 C8 1_555 1_555
Mn1 O3 1_555 1_555
Mn2 O9 1_555 1_555
O2 C3 1_555 1_555
O3 C3 1_555 1_555
O4 C10 1_555 1_555
O5 C10 1_555 1_555
O6 C11 1_555 1_555
O7 C11 1_555 1_555
O8 C12 1_555 1_555
O9 C12 1_555 1_555
O10 Mn2 1_555 1_555
H13 O10 1_555 1_555
H14 O10 1_555 1_555
O11 Mn2 1_555 1_555
H15 O11 1_555 1_555
H16 O11 1_555 1_555
C3B C4B 1_555 1_555
C4B C5B 1_555 1_555
C5B C6B 1_555 1_555
C6B H11B 1_555 1_555
C7B C6B 1_555 1_555
C8B C7B 1_555 1_555
C9B C4B 1_555 1_555
H12B C9B 1_555 1_555
C10B C5B 1_555 1_555
C11B C7B 1_555 1_555
C12B C8B 1_555 1_555
Mn1B O3B 1_555 1_555
O2B C3B 1_555 1_555
O3B C3B 1_555 1_555
O4B C10B 1_555 1_555
O5B C10B 1_555 1_555
O6B C11B 1_555 1_555
O7B C11B 1_555 1_555
O8B C12B 1_555 1_555
O9B Mn2 1_555 1_555
O10B Mn2 1_555 1_555
H13B O10B 1_555 1_555
H14B O10B 1_555 1_555
O11B Mn2 1_555 1_555
H15B O11B 1_555 1_555
H16B O11B 1_555 1_555
Mn1A O6 1_555 1_555
Mn1C O6B 1_555 1_555
Mn1D O7B 1_555 1_555
Mn1E O5B 1_555 1_555
Mn1F O7 1_555 1_555
Mn1G O5 1_555 1_555
O5E Mn1B 1_555 1_555
O5G Mn1 1_555 1_555
O6A Mn1 1_555 1_555
O6C Mn1B 1_555 1_555
O7D Mn1B 1_555 1_555
O7F Mn1 1_555 1_555
O8A Mn1 1_555 1_555
O8C Mn1B 1_555 1_555
C8 C9 1_555 1_555
Mn1 O4 1_555 1_555
O8 Mn1A 1_555 1_555
C8B C9B 1_555 1_555
C12B O9B 1_555 1_555
Mn1B O4B 1_555 1_555
O8B Mn1C 1_555 1_555

#END
