
#######################################################################
#
#                 Cambridge Crystallographic Data Centre
#                                CCDC 
#
#######################################################################
#
# If this CIF has been generated from an entry in the Cambridge 
# Structural Database, then it will include bibliographic, chemical, 
# crystal, experimental, refinement or atomic coordinate data resulting 
# from the CCDC's data processing and validation procedures.
#
#######################################################################

data_EDABOC
_chemical_formula_moiety         '(C24 H28 N2 O14 Pr2)n'
_symmetry_cell_setting           triclinic
_symmetry_space_group_name_H-M   'P -1'
_symmetry_Int_Tables_number      2
_space_group_name_Hall           '-P 1'
loop_
_symmetry_equiv_pos_site_id
_symmetry_equiv_pos_as_xyz
1 x,y,z
2 -x,-y,-z
_cell_length_a                   7.7965(16)
_cell_length_b                   9.5743(19)
_cell_length_c                   11.464(2)
_cell_angle_alpha                91.93(3)
_cell_angle_beta                 105.87(3)
_cell_angle_gamma                103.38(3)
_cell_volume                     796.473
loop_
_atom_site_label
_atom_site_type_symbol
_atom_site_fract_x
_atom_site_fract_y
_atom_site_fract_z
O1 O 0.636(3) 0.133(3) 0.864(2)
H1 H 0.7266 0.1807 0.9218
H2 H 0.5545 0.0841 0.8924
O2 O 0.519(2) 0.1043(19) 0.0528(16)
H3 H 0.5897 0.0972 0.1221
H4 H 0.4466 0.1554 0.0617
Pr1 Pr 0.28634(4) 0.57990(3) 0.51780(3)
C1 C 0.0991(11) 0.8267(7) 0.6622(7)
H5 H 0.0502 0.7393 0.6880
C2 C 0.0590(13) 0.9483(8) 0.7021(8)
H6 H -0.0179 0.9424 0.7521
C3 C 0.1338(11) 1.0797(8) 0.6673(7)
H7 H 0.1072 1.1634 0.6929
C4 C 0.2484(9) 1.0851(7) 0.5940(6)
C5 C 0.2778(9) 0.9547(7) 0.5552(6)
H8 H 0.3522 0.9571 0.5038
C6 C 0.3379(9) 1.2257(7) 0.5571(6)
C7 C -0.0137(8) 0.5803(6) 0.2937(6)
C8 C -0.1657(9) 0.5572(8) 0.1756(6)
H9 H -0.2678 0.5890 0.1908
H10 H -0.2085 0.4545 0.1498
C9 C -0.1143(9) 0.6344(8) 0.0713(6)
H11 H -0.0046 0.6114 0.0602
H12 H -0.0871 0.7380 0.0913
C10 C -0.2713(10) 0.5890(9) -0.0466(6)
H13 H -0.3076 0.4845 -0.0609
H14 H -0.3765 0.6214 -0.0377
C11 C -0.2191(9) 0.6501(9) -0.1560(6)
H15 H -0.1744 0.7542 -0.1395
H16 H -0.1200 0.6120 -0.1688
C12 C -0.3805(9) 0.6132(7) -0.2705(6)
O3 O -0.0407(6) 0.4973(5) 0.3768(4)
O4 O 0.1350(6) 0.6724(5) 0.3135(4)
O5 O -0.3681(7) 0.5480(5) -0.3648(4)
O6 O -0.5246(6) 0.6488(6) -0.2695(4)
O7 O 0.4733(6) 1.2295(5) 0.5169(5)
O8 O 0.2711(7) 1.3313(5) 0.5708(5)
N1 N 0.2050(7) 0.8272(6) 0.5880(5)
Pr1A Pr -0.28634(4) 0.42010(3) -0.51780(3)
Pr1_2 Pr -0.71366(4) -0.42010(3) -0.48220(3)
Pr1_3 Pr -0.71366(4) 0.57990(3) -0.48220(3)
Pr1_4 Pr 0.28634(4) 0.57990(3) -0.48220(3)
Pr1_5 Pr 0.28634(4) 1.57990(3) 0.51780(3)
Pr1A_2 Pr -0.28634(4) -0.57990(3) -0.51780(3)
Pr1A_3 Pr -0.28634(4) 0.42010(3) 0.48220(3)
Pr1A_4 Pr 0.71366(4) 0.42010(3) 0.48220(3)
Pr1A_5 Pr 0.71366(4) 1.42010(3) 0.48220(3)
C1A C -0.0991(11) 0.1733(7) -0.6622(7)
H5A H -0.0502 0.2607 -0.6880
C2A C -0.0590(13) 0.0517(8) -0.7021(8)
H6A H 0.0179 0.0576 -0.7521
C3A C -0.1338(11) -0.0797(8) -0.6673(7)
H7A H -0.1072 -0.1634 -0.6929
C4A C -0.2484(9) -0.0851(7) -0.5940(6)
C5A C -0.2778(9) 0.0453(7) -0.5552(6)
H8A H -0.3522 0.0429 -0.5038
C6A C -0.3379(9) -0.2257(7) -0.5571(6)
C7A C 0.0137(8) 0.4197(6) -0.2937(6)
C8A C 0.1657(9) 0.4428(8) -0.1756(6)
H9A H 0.2678 0.4110 -0.1908
H10A H 0.2085 0.5455 -0.1498
C9A C 0.1143(9) 0.3656(8) -0.0713(6)
H11A H 0.0046 0.3886 -0.0602
H12A H 0.0871 0.2620 -0.0913
C10A C 0.2713(10) 0.4110(9) 0.0466(6)
H13A H 0.3076 0.5155 0.0609
H14A H 0.3765 0.3786 0.0377
C11A C 0.2191(9) 0.3499(9) 0.1560(6)
H15A H 0.1744 0.2458 0.1395
H16A H 0.1200 0.3880 0.1688
C12A C 0.3805(9) 0.3868(7) 0.2705(6)
O3A O 0.0407(6) 0.5027(5) -0.3768(4)
O3_2 O -0.0407(6) 0.4973(5) -0.6232(4)
O3A_2 O 0.0407(6) 0.5027(5) 0.6232(4)
O4A O -0.1350(6) 0.3276(5) -0.3135(4)
O5A O 0.3681(7) 0.4520(5) 0.3648(4)
O5_2 O 0.6319(7) 0.5480(5) 0.6352(4)
O5A_2 O -0.6319(7) 0.4520(5) -0.6352(4)
O6A O 0.5246(6) 0.3512(6) 0.2695(4)
O6_2 O 0.4754(6) 0.6488(6) 0.7305(4)
O6A_2 O -0.4754(6) 0.3512(6) -0.7305(4)
O7A O -0.4733(6) -0.2295(5) -0.5169(5)
O7_2 O -0.5267(6) 0.2295(5) -0.4831(5)
O7A_2 O 0.5267(6) 0.7705(5) 0.4831(5)
O8A O -0.2711(7) -0.3313(5) -0.5708(5)
O8_2 O 0.2711(7) 0.3313(5) 0.5708(5)
O8A_2 O -0.2711(7) 0.6687(5) -0.5708(5)
N1A N -0.2050(7) 0.1728(6) -0.5880(5)
loop_
_geom_bond_atom_site_label_1
_geom_bond_atom_site_label_2
_geom_bond_site_symmetry_1
_geom_bond_site_symmetry_2
O1 H1 1_555 1_555
H2 O1 1_555 1_555
O2 H3 1_555 1_555
H4 O2 1_555 1_555
Pr1 O3 1_555 1_555
C1 H5 1_555 1_555
C2 C1 1_555 1_555
H6 C2 1_555 1_555
C3 C2 1_555 1_555
H7 C3 1_555 1_555
C4 C3 1_555 1_555
C5 C4 1_555 1_555
H8 C5 1_555 1_555
C6 C4 1_555 1_555
C7 C8 1_555 1_555
C8 H9 1_555 1_555
H10 C8 1_555 1_555
C9 C8 1_555 1_555
H11 C9 1_555 1_555
H12 C9 1_555 1_555
C10 C9 1_555 1_555
H13 C10 1_555 1_555
H14 C10 1_555 1_555
C11 C10 1_555 1_555
H15 C11 1_555 1_555
H16 C11 1_555 1_555
C12 C11 1_555 1_555
O3 C7 1_555 1_555
O4 Pr1 1_555 1_555
O5 C12 1_555 1_555
O6 C12 1_555 1_555
O7 C6 1_555 1_555
O8 C6 1_555 1_555
N1 Pr1 1_555 1_555
Pr1A O5 1_555 1_555
Pr1_2 O7A 1_555 1_555
Pr1_3 O5 1_555 1_555
Pr1_4 O3A 1_555 1_555
Pr1_5 O8 1_555 1_555
Pr1A_2 O8A 1_555 1_555
Pr1A_3 O3 1_555 1_555
Pr1A_4 O5A 1_555 1_555
Pr1A_5 O7 1_555 1_555
C1A H5A 1_555 1_555
C2A C1A 1_555 1_555
H6A C2A 1_555 1_555
C3A C2A 1_555 1_555
H7A C3A 1_555 1_555
C4A C3A 1_555 1_555
C5A C4A 1_555 1_555
H8A C5A 1_555 1_555
C6A C4A 1_555 1_555
C7A C8A 1_555 1_555
C8A H9A 1_555 1_555
H10A C8A 1_555 1_555
C9A C8A 1_555 1_555
H11A C9A 1_555 1_555
H12A C9A 1_555 1_555
C10A C9A 1_555 1_555
H13A C10A 1_555 1_555
H14A C10A 1_555 1_555
C11A C10A 1_555 1_555
H15A C11A 1_555 1_555
H16A C11A 1_555 1_555
C12A C11A 1_555 1_555
O3A Pr1A 1_555 1_555
O3_2 Pr1A 1_555 1_555
O3A_2 Pr1 1_555 1_555
O4A Pr1A 1_555 1_555
O5A Pr1 1_555 1_555
O5_2 Pr1 1_555 1_555
O5A_2 Pr1A 1_555 1_555
O6A Pr1A_4 1_555 1_555
O6_2 Pr1 1_555 1_555
O6A_2 Pr1A 1_555 1_555
O7A C6A 1_555 1_555
O7_2 Pr1A 1_555 1_555
O7A_2 Pr1 1_555 1_555
O8A C6A 1_555 1_555
O8_2 Pr1 1_555 1_555
O8A_2 Pr1A 1_555 1_555
N1A Pr1A 1_555 1_555
C1 N1 1_555 1_555
C5 N1 1_555 1_555
C7 O4 1_555 1_555
O6 Pr1_3 1_555 1_555
Pr1_3 O5A_2 1_555 1_555
Pr1_4 O3_2 1_555 1_555
Pr1A_3 O3A_2 1_555 1_555
Pr1A_4 O5_2 1_555 1_555
C1A N1A 1_555 1_555
C5A N1A 1_555 1_555
C7A O3A 1_555 1_555
C7A O4A 1_555 1_555
C12A O5A 1_555 1_555
C12A O6A 1_555 1_555

#END
