
#######################################################################
#
#                 Cambridge Crystallographic Data Centre
#                                CCDC 
#
#######################################################################
#
# If this CIF has been generated from an entry in the Cambridge 
# Structural Database, then it will include bibliographic, chemical, 
# crystal, experimental, refinement or atomic coordinate data resulting 
# from the CCDC's data processing and validation procedures.
#
#######################################################################

data_KUXROM
_chemical_formula_moiety         'C57 H39 Fe13 N3 O24'
_symmetry_cell_setting           hexagonal
_symmetry_space_group_name_H-M   'P 63/m m c'
_symmetry_Int_Tables_number      194
_space_group_name_Hall           '-P 6c 2c'
loop_
_symmetry_equiv_pos_site_id
_symmetry_equiv_pos_as_xyz
1 x,y,z
2 -y,x-y,z
3 -x+y,-x,z
4 -x,-y,1/2+z
5 y,-x+y,1/2+z
6 x-y,x,1/2+z
7 y,x,-z
8 x-y,-y,-z
9 -x,-x+y,-z
10 -y,-x,1/2-z
11 -x+y,y,1/2-z
12 x,x-y,1/2-z
13 -x,-y,-z
14 y,-x+y,-z
15 x-y,x,-z
16 x,y,1/2-z
17 -y,x-y,1/2-z
18 -x+y,-x,1/2-z
19 -y,-x,z
20 -x+y,y,z
21 x,x-y,z
22 y,x,1/2+z
23 x-y,-y,1/2+z
24 -x,-x+y,1/2+z
_cell_length_a                   17.144(5)
_cell_length_b                   17.144(5)
_cell_length_c                   14.514(6)
_cell_angle_alpha                90
_cell_angle_beta                 90
_cell_angle_gamma                120
_cell_volume                     3694.38
loop_
_atom_site_label
_atom_site_type_symbol
_atom_site_fract_x
_atom_site_fract_y
_atom_site_fract_z
Fe1 Fe 0.26445(3) 0.52891(5) 0.7500
N1 N 0.19199(17) 0.3840(3) 0.7500
O1 O 0.34664(18) 0.52532(17) 0.6518(2)
O2 O 0.3333 0.6667 0.7500
C1 C 0.42527(18) 0.57473(18) 0.6262(4)
C2 C 0.4638(2) 0.5362(2) 0.5600(5)
C3 C 0.4131(3) 0.4491(3) 0.5298(5)
H1 H 0.3539 0.4141 0.5497
C4 C 0.2315(5) 0.3369(5) 0.7749(6)
H2 H 0.2908 0.3671 0.7956
C5 C 0.1840(5) 0.2415(5) 0.7702(16)
H3 H 0.2150 0.2109 0.7818
C6 C 0.0973(2) 0.1945(5) 0.7500
C7 C 0.0473(3) 0.0947(5) 0.7500
C8 C 0.0937(6) 0.0468(3) 0.7500
H4 H 0.1563 0.0781 0.7500
N1A N -0.3840(3) -0.19201(34) 0.7500
C4A C -0.3369(5) -0.1054(7) 0.7749(6)
H2A H -0.3671 -0.0763 0.7956
C5A C -0.2415(5) -0.0575(7) 0.7702(16)
H3A H -0.2109 0.0041 0.7818
C6A C -0.1945(5) -0.0972(5) 0.7500
C7A C -0.0947(5) -0.0474(6) 0.7500
C8A C -0.0468(3) 0.0469(7) 0.7500
H4A H -0.0781 0.0782 0.7500
N1B N 0.19201(34) -0.19199(17) 0.7500
C4B C 0.1054(7) -0.2315(5) 0.7749(6)
H2B H 0.0763 -0.2908 0.7956
C5B C 0.0575(7) -0.1840(5) 0.7702(16)
H3B H -0.0041 -0.2150 0.7818
C6B C 0.0972(5) -0.0973(2) 0.7500
C7B C 0.0474(6) -0.0473(3) 0.7500
C8B C -0.0469(7) -0.0937(6) 0.7500
H4B H -0.0782 -0.1563 0.7500
C4J C 0.1054(7) 0.3369(5) 0.7251(6)
H2J H 0.0763 0.3671 0.7044
C5J C 0.0575(7) 0.2415(5) 0.7298(16)
H3J H -0.0041 0.2109 0.7182
C4K C 0.2315(5) -0.1054(7) 0.7251(6)
H2K H 0.2908 -0.0763 0.7044
C5K C 0.1840(5) -0.0575(7) 0.7298(16)
H3K H 0.2150 0.0041 0.7182
C4O C 0.2315(5) 0.3369(5) 0.7251(6)
H2O H 0.2908 0.3671 0.7044
C5O C 0.1840(5) 0.2415(5) 0.7298(16)
H3O H 0.2150 0.2109 0.7182
C4P C -0.3369(5) -0.1054(7) 0.7251(6)
H2P H -0.3671 -0.0763 0.7044
C5P C -0.2415(5) -0.0575(7) 0.7298(16)
H3P H -0.2109 0.0041 0.7182
C4Q C 0.1054(7) -0.2315(5) 0.7251(6)
H2Q H 0.0763 -0.2908 0.7044
C5Q C 0.0575(7) -0.1840(5) 0.7298(16)
H3Q H -0.0041 -0.2150 0.7182
C4S C 0.1054(7) 0.3369(5) 0.7749(6)
H2S H 0.0763 0.3671 0.7956
C5S C 0.0575(7) 0.2415(5) 0.7702(16)
H3S H -0.0041 0.2109 0.7818
C4T C 0.2315(5) -0.1054(7) 0.7749(6)
H2T H 0.2908 -0.0763 0.7956
C5T C 0.1840(5) -0.0575(7) 0.7702(16)
H3T H 0.2150 0.0041 0.7818
C4I C -0.3369(5) -0.2315(5) 0.7251(6)
H2I H -0.3671 -0.2908 0.7044
C5I C -0.2415(5) -0.1840(5) 0.7298(16)
H3I H -0.2109 -0.2150 0.7182
C4R C -0.3369(5) -0.2315(5) 0.7749(6)
H2R H -0.3671 -0.2908 0.7956
C5R C -0.2415(5) -0.1840(5) 0.7702(16)
H3R H -0.2109 -0.2150 0.7818
O1F O 0.52532(17) 0.34664(18) 0.3482(2)
C1F C 0.57473(18) 0.42527(18) 0.3738(4)
C2F C 0.5362(2) 0.4638(2) 0.4400(5)
C3F C 0.4491(3) 0.4131(3) 0.4702(5)
H1F H 0.4141 0.3539 0.4503
O1L O 0.65336(18) 0.47468(17) 0.3482(2)
C3L C 0.5869(3) 0.5509(3) 0.4702(5)
H1L H 0.6461 0.5859 0.4503
O1R O 0.47468(17) 0.65336(18) 0.6518(2)
C3R C 0.5509(3) 0.5869(3) 0.5298(5)
H1R H 0.5859 0.6461 0.5497
Fe1A Fe -0.52891(5) -0.26446(6) 0.7500
O1A O -0.52532(17) -0.17868(25) 0.6518(2)
C1A C -0.57473(18) -0.14946(25) 0.6262(4)
C2A C -0.5362(2) -0.0724(3) 0.5600(5)
C3A C -0.4491(3) -0.0360(4) 0.5298(5)
H1A H -0.4141 -0.0602 0.5497
O1H O -0.34664(18) 0.17868(25) 0.3482(2)
C1H C -0.42527(18) 0.14946(25) 0.3738(4)
C2H C -0.4638(2) 0.0724(3) 0.4400(5)
C3H C -0.4131(3) 0.0360(4) 0.4702(5)
H1H H -0.3539 0.0602 0.4503
O1M O -0.47468(17) 0.17868(25) 0.3482(2)
C3M C -0.5509(3) 0.0360(4) 0.4702(5)
H1M H -0.5859 0.0602 0.4503
O1T O -0.65336(18) -0.17868(25) 0.6518(2)
C3T C -0.5869(3) -0.0360(4) 0.5298(5)
H1T H -0.6461 -0.0602 0.5497
Fe1B Fe 0.26446(6) -0.26445(3) 0.7500
O1B O 0.17868(25) -0.34664(18) 0.6518(2)
C1B C 0.14946(25) -0.42527(18) 0.6262(4)
C2B C 0.0724(3) -0.4638(2) 0.5600(5)
C3B C 0.0360(4) -0.4131(3) 0.5298(5)
H1B H 0.0602 -0.3539 0.5497
O1G O -0.17868(25) -0.52532(17) 0.3482(2)
C1G C -0.14946(25) -0.57473(18) 0.3738(4)
C2G C -0.0724(3) -0.5362(2) 0.4400(5)
C3G C -0.0360(4) -0.4491(3) 0.4702(5)
H1G H -0.0602 -0.4141 0.4503
O1N O -0.17868(25) -0.65336(18) 0.3482(2)
C3N C -0.0360(4) -0.5869(3) 0.4702(5)
H1N H -0.0602 -0.6461 0.4503
O1S O 0.17868(25) -0.47468(17) 0.6518(2)
C3S C 0.0360(4) -0.5509(3) 0.5298(5)
H1S H 0.0602 -0.5859 0.5497
Fe1_2 Fe 0.26445(3) -0.47109(5) 0.7500
Fe1A_2 Fe 0.47109(5) 0.73554(6) 0.7500
Fe1B_2 Fe -0.73554(6) -0.26445(3) 0.7500
Fe1B_3 Fe 0.26446(6) 0.73555(3) 0.7500
Fe1C Fe -0.26445(3) -0.52891(5) 0.2500
Fe1C_2 Fe 0.73555(3) 0.47109(5) 0.2500
Fe1D Fe -0.47109(5) 0.26446(6) 0.2500
Fe1D_2 Fe 0.52891(5) 0.26446(6) 0.2500
Fe1E Fe -0.26446(6) -0.73555(3) 0.2500
Fe1E_2 Fe -0.26446(6) 0.26445(3) 0.2500
O1I O -0.52532(17) -0.34664(18) 0.8482(2)
O1J O 0.17868(25) 0.52532(17) 0.8482(2)
O1K O 0.34664(18) -0.17868(25) 0.8482(2)
O1O O 0.34664(18) 0.52532(17) 0.8482(2)
O1P O -0.52532(17) -0.17868(25) 0.8482(2)
O1Q O 0.17868(25) -0.34664(18) 0.8482(2)
O1R_2 O -0.52532(17) -0.34664(18) 0.6518(2)
O1S_2 O 0.17868(25) 0.52532(17) 0.6518(2)
O1T_2 O 0.34664(18) -0.17868(25) 0.6518(2)
O2_2 O -0.6667 -0.3333 0.7500
O2_3 O 0.3333 -0.3333 0.7500
loop_
_geom_bond_atom_site_label_1
_geom_bond_atom_site_label_2
_geom_bond_site_symmetry_1
_geom_bond_site_symmetry_2
Fe1 N1 1_555 1_555
N1 C4 1_555 1_555
O1 Fe1 1_555 1_555
O2 Fe1 1_555 1_555
C1 O1 1_555 1_555
C2 C1 1_555 1_555
C3 C2 1_555 1_555
H1 C3 1_555 1_555
C4 H2 1_555 1_555
H2 C4O 1_555 1_555
C5 C4 1_555 1_555
H3 C5 1_555 1_555
C6 C5 1_555 1_555
C7 C6 1_555 1_555
C8 C7 1_555 1_555
H4 C8 1_555 1_555
N1A C4A 1_555 1_555
C4A H2A 1_555 1_555
H2A C4P 1_555 1_555
C5A C4A 1_555 1_555
H3A C5A 1_555 1_555
C6A C5A 1_555 1_555
C7A C6A 1_555 1_555
C8A C7 1_555 1_555
H4A C8A 1_555 1_555
N1B C4B 1_555 1_555
C4B H2B 1_555 1_555
H2B C4Q 1_555 1_555
C5B C4B 1_555 1_555
H3B C5B 1_555 1_555
C6B C5B 1_555 1_555
C7B C8 1_555 1_555
C8B C7A 1_555 1_555
H4B C8B 1_555 1_555
C4J N1 1_555 1_555
H2J C4J 1_555 1_555
C5J C6 1_555 1_555
H3J C5J 1_555 1_555
C4K N1B 1_555 1_555
H2K C4K 1_555 1_555
C5K C6B 1_555 1_555
H3K C5K 1_555 1_555
C4O N1 1_555 1_555
H2O C4 1_555 1_555
C5O C5 1_555 1_555
H3O C5 1_555 1_555
C4P N1A 1_555 1_555
H2P C4A 1_555 1_555
C5P C5A 1_555 1_555
H3P C5A 1_555 1_555
C4Q N1B 1_555 1_555
H2Q C4B 1_555 1_555
C5Q C5B 1_555 1_555
H3Q C5B 1_555 1_555
C4S N1 1_555 1_555
H2S C4J 1_555 1_555
C5S C6 1_555 1_555
H3S C5J 1_555 1_555
C4T N1B 1_555 1_555
H2T C4K 1_555 1_555
C5T C6B 1_555 1_555
H3T C5K 1_555 1_555
C4I N1A 1_555 1_555
H2I C4I 1_555 1_555
C5I C6A 1_555 1_555
H3I C5I 1_555 1_555
C4R N1A 1_555 1_555
H2R C4I 1_555 1_555
C5R C6A 1_555 1_555
H3R C5I 1_555 1_555
O1F C1F 1_555 1_555
C1F C2F 1_555 1_555
C2F C3F 1_555 1_555
C3F C3 1_555 1_555
H1F C3F 1_555 1_555
O1L C1F 1_555 1_555
C3L C2F 1_555 1_555
H1L C3L 1_555 1_555
O1R C1 1_555 1_555
C3R C2 1_555 1_555
H1R C3R 1_555 1_555
Fe1A N1A 1_555 1_555
O1A Fe1A 1_555 1_555
C1A O1A 1_555 1_555
C2A C1A 1_555 1_555
C3A C2A 1_555 1_555
H1A C3A 1_555 1_555
O1H C1H 1_555 1_555
C1H C2H 1_555 1_555
C2H C3H 1_555 1_555
C3H C3A 1_555 1_555
H1H C3H 1_555 1_555
O1M C1H 1_555 1_555
C3M C2H 1_555 1_555
H1M C3M 1_555 1_555
O1T C1A 1_555 1_555
C3T C2A 1_555 1_555
H1T C3T 1_555 1_555
Fe1B N1B 1_555 1_555
O1B Fe1B 1_555 1_555
C1B O1B 1_555 1_555
C2B C1B 1_555 1_555
C3B C2B 1_555 1_555
H1B C3B 1_555 1_555
O1G C1G 1_555 1_555
C1G C2G 1_555 1_555
C2G C3G 1_555 1_555
C3G C3B 1_555 1_555
H1G C3G 1_555 1_555
O1N C1G 1_555 1_555
C3N C2G 1_555 1_555
H1N C3N 1_555 1_555
O1S C1B 1_555 1_555
C3S C2B 1_555 1_555
H1S C3S 1_555 1_555
Fe1_2 O1S 1_555 1_555
Fe1A_2 O2 1_555 1_555
Fe1B_2 O1T 1_555 1_555
Fe1B_3 O2 1_555 1_555
Fe1C O1G 1_555 1_555
Fe1C_2 O1L 1_555 1_555
Fe1D O1M 1_555 1_555
Fe1D_2 O1F 1_555 1_555
Fe1E O1N 1_555 1_555
Fe1E_2 O1H 1_555 1_555
O1I Fe1A 1_555 1_555
O1J Fe1 1_555 1_555
O1K Fe1B 1_555 1_555
O1O Fe1 1_555 1_555
O1P Fe1A 1_555 1_555
O1Q Fe1B 1_555 1_555
O1R_2 Fe1A 1_555 1_555
O1S_2 Fe1 1_555 1_555
O1T_2 Fe1B 1_555 1_555
O2_2 Fe1A 1_555 1_555
O2_3 Fe1B 1_555 1_555
C4 C4O 1_555 1_555
H3 C5O 1_555 1_555
C6 C5O 1_555 1_555
C4A C4P 1_555 1_555
H3A C5P 1_555 1_555
C6A C5P 1_555 1_555
C7A C8A 1_555 1_555
C4B C4Q 1_555 1_555
H3B C5Q 1_555 1_555
C6B C7B 1_555 1_555
C6B C5Q 1_555 1_555
C7B C8B 1_555 1_555
C4J C5J 1_555 1_555
C4J C4S 1_555 1_555
H2J C4S 1_555 1_555
C5J C5S 1_555 1_555
H3J C5S 1_555 1_555
C4K C5K 1_555 1_555
C4K C4T 1_555 1_555
H2K C4T 1_555 1_555
C5K C5T 1_555 1_555
H3K C5T 1_555 1_555
C4O H2O 1_555 1_555
C4O C5O 1_555 1_555
C5O H3O 1_555 1_555
C4P H2P 1_555 1_555
C4P C5P 1_555 1_555
C5P H3P 1_555 1_555
C4Q H2Q 1_555 1_555
C4Q C5Q 1_555 1_555
C5Q H3Q 1_555 1_555
C4S H2S 1_555 1_555
C4S C5S 1_555 1_555
C5S H3S 1_555 1_555
C4T H2T 1_555 1_555
C4T C5T 1_555 1_555
C5T H3T 1_555 1_555
C4I C5I 1_555 1_555
C4I C4R 1_555 1_555
H2I C4R 1_555 1_555
C5I C5R 1_555 1_555
H3I C5R 1_555 1_555
C4R H2R 1_555 1_555
C4R C5R 1_555 1_555
C5R H3R 1_555 1_555
C3L C3R 1_555 1_555
O1R Fe1A_2 1_555 1_555
C3M C3T 1_555 1_555
C3N C3S 1_555 1_555
Fe1_2 O2_3 1_555 1_555
Fe1B_2 O2_2 1_555 1_555

#END
