
#######################################################################
#
#                 Cambridge Crystallographic Data Centre
#                                CCDC 
#
#######################################################################
#
# If this CIF has been generated from an entry in the Cambridge 
# Structural Database, then it will include bibliographic, chemical, 
# crystal, experimental, refinement or atomic coordinate data resulting 
# from the CCDC's data processing and validation procedures.
#
#######################################################################

data_KUXSIH03
_chemical_formula_moiety         '(C42 H24 Fe3 N6 O13)n'
_symmetry_cell_setting           hexagonal
_symmetry_space_group_name_H-M   'P 63/m m c'
_symmetry_Int_Tables_number      194
_space_group_name_Hall           '-P 6c 2c'
loop_
_symmetry_equiv_pos_site_id
_symmetry_equiv_pos_as_xyz
1 x,y,z
2 -y,x-y,z
3 -x+y,-x,z
4 -x,-y,1/2+z
5 y,-x+y,1/2+z
6 x-y,x,1/2+z
7 y,x,-z
8 x-y,-y,-z
9 -x,-x+y,-z
10 -y,-x,1/2-z
11 -x+y,y,1/2-z
12 x,x-y,1/2-z
13 -x,-y,-z
14 y,-x+y,-z
15 x-y,x,-z
16 x,y,1/2-z
17 -y,x-y,1/2-z
18 -x+y,-x,1/2-z
19 -y,-x,z
20 -x+y,y,z
21 x,x-y,z
22 y,x,1/2+z
23 x-y,-y,1/2+z
24 -x,-x+y,1/2+z
_cell_length_a                   16.7722(6)
_cell_length_b                   16.7722(6)
_cell_length_c                   15.0089(7)
_cell_angle_alpha                90
_cell_angle_beta                 90
_cell_angle_gamma                120
_cell_volume                     3656.45
loop_
_atom_site_label
_atom_site_type_symbol
_atom_site_fract_x
_atom_site_fract_y
_atom_site_fract_z
Fe1 Fe 0.26745(2) 0.53491(4) 0.7500
O1 O 0.34536(12) 0.52176(11) 0.65574(12)
O2 O 0.3333 0.6667 0.7500
N1 N 0.19263(12) 0.3853(2) 0.7500
C1 C 0.46419(12) 0.53581(12) 0.5614(2)
C2 C 0.42620(11) 0.57380(11) 0.6290(2)
C3 C 0.41056(19) 0.44629(19) 0.5310(2)
H1 H 0.3507 0.4101 0.5519
C4 C 0.09605(19) 0.1921(4) 0.7500
N2 N 0.0949(3) 0.04744(17) 0.7500
C5 C 0.2364(3) 0.3359(3) 0.7500
H2 H 0.3005 0.3679 0.7500
C6 C 0.1914(3) 0.2404(3) 0.7500
H3 H 0.2245 0.2095 0.7500
C7 C 0.0449(2) 0.0898(4) 0.7500
O1F O 0.52176(11) 0.34536(12) 0.34426(12)
C1F C 0.53581(12) 0.46419(12) 0.4386(2)
C2F C 0.57380(11) 0.42620(11) 0.3710(2)
C3F C 0.44629(19) 0.41056(19) 0.4690(2)
H1F H 0.4101 0.3507 0.4481
O1L O 0.65464(12) 0.47824(11) 0.34426(12)
C3L C 0.58944(19) 0.55371(19) 0.4690(2)
H1L H 0.6493 0.5899 0.4481
O1R O 0.47824(11) 0.65464(12) 0.65574(12)
C3R C 0.55371(19) 0.58944(19) 0.5310(2)
H1R H 0.5899 0.6493 0.5519
N1A N -0.3853(2) -0.19267(23) 0.7500
C4A C -0.1921(4) -0.09605(44) 0.7500
N2A N -0.04744(17) 0.04746(34) 0.7500
C5A C -0.3359(3) -0.0995(4) 0.7500
H2A H -0.3679 -0.0674 0.7500
C6A C -0.2404(3) -0.0490(4) 0.7500
H3A H -0.2095 0.0150 0.7500
C7A C -0.0898(4) -0.0449(4) 0.7500
N1B N 0.19267(23) -0.19263(12) 0.7500
C4B C 0.09605(44) -0.09605(19) 0.7500
N2B N -0.04746(34) -0.0949(3) 0.7500
C5B C 0.0995(4) -0.2364(3) 0.7500
H2B H 0.0674 -0.3005 0.7500
C6B C 0.0490(4) -0.1914(3) 0.7500
H3B H -0.0150 -0.2245 0.7500
C7B C 0.0449(4) -0.0449(2) 0.7500
C5J C 0.0995(4) 0.3359(3) 0.7500
H2J H 0.0674 0.3679 0.7500
C6J C 0.0490(4) 0.2404(3) 0.7500
H3J H -0.0150 0.2095 0.7500
C5K C 0.2364(3) -0.0995(4) 0.7500
H2K H 0.3005 -0.0674 0.7500
C6K C 0.1914(3) -0.0490(4) 0.7500
H3K H 0.2245 0.0150 0.7500
C5I C -0.3359(3) -0.2364(3) 0.7500
H2I H -0.3679 -0.3005 0.7500
C6I C -0.2404(3) -0.1914(3) 0.7500
H3I H -0.2095 -0.2245 0.7500
Fe1A Fe -0.53491(4) -0.26746(4) 0.7500
O1A O -0.52176(11) -0.17640(16) 0.65574(12)
C1A C -0.53581(12) -0.07162(17) 0.5614(2)
C2A C -0.57380(11) -0.14760(16) 0.6290(2)
C3A C -0.44629(19) -0.03573(27) 0.5310(2)
H1A H -0.4101 -0.0594 0.5519
O1H O -0.34536(12) 0.17640(16) 0.34426(12)
C1H C -0.46419(12) 0.07162(17) 0.4386(2)
C2H C -0.42620(11) 0.14760(16) 0.3710(2)
C3H C -0.41056(19) 0.03573(27) 0.4690(2)
H1H H -0.3507 0.0594 0.4481
O1M O -0.47824(11) 0.17640(16) 0.34426(12)
C3M C -0.55371(19) 0.03573(27) 0.4690(2)
H1M H -0.5899 0.0594 0.4481
O1T O -0.65464(12) -0.17640(16) 0.65574(12)
C3T C -0.58944(19) -0.03573(27) 0.5310(2)
H1T H -0.6493 -0.0594 0.5519
Fe1B Fe 0.26746(4) -0.26745(2) 0.7500
O1B O 0.17640(16) -0.34536(12) 0.65574(12)
C1B C 0.07162(17) -0.46419(12) 0.5614(2)
C2B C 0.14760(16) -0.42620(11) 0.6290(2)
C3B C 0.03573(27) -0.41056(19) 0.5310(2)
H1B H 0.0594 -0.3507 0.5519
O1G O -0.17640(16) -0.52176(11) 0.34426(12)
C1G C -0.07162(17) -0.53581(12) 0.4386(2)
C2G C -0.14760(16) -0.57380(11) 0.3710(2)
C3G C -0.03573(27) -0.44629(19) 0.4690(2)
H1G H -0.0594 -0.4101 0.4481
O1N O -0.17640(16) -0.65464(12) 0.34426(12)
C3N C -0.03573(27) -0.58944(19) 0.4690(2)
H1N H -0.0594 -0.6493 0.4481
O1S O 0.17640(16) -0.47824(11) 0.65574(12)
C3S C 0.03573(27) -0.55371(19) 0.5310(2)
H1S H 0.0594 -0.5899 0.5519
Fe1_2 Fe 0.26745(2) -0.46509(4) 0.7500
Fe1A_2 Fe 0.46509(4) 0.73254(4) 0.7500
Fe1B_2 Fe -0.73254(4) -0.26745(2) 0.7500
Fe1B_3 Fe 0.26746(4) 0.73255(2) 0.7500
Fe1C Fe -0.26745(2) -0.53491(4) 0.2500
Fe1C_2 Fe 0.73255(2) 0.46509(4) 0.2500
Fe1D Fe -0.46509(4) 0.26746(4) 0.2500
Fe1D_2 Fe 0.53491(4) 0.26746(4) 0.2500
Fe1E Fe -0.26746(4) -0.73255(2) 0.2500
Fe1E_2 Fe -0.26746(4) 0.26745(2) 0.2500
O1I O -0.52176(11) -0.34536(12) 0.84426(12)
O1J O 0.17640(16) 0.52176(11) 0.84426(12)
O1K O 0.34536(12) -0.17640(16) 0.84426(12)
O1O O 0.34536(12) 0.52176(11) 0.84426(12)
O1P O -0.52176(11) -0.17640(16) 0.84426(12)
O1Q O 0.17640(16) -0.34536(12) 0.84426(12)
O1R_2 O -0.52176(11) -0.34536(12) 0.65574(12)
O1S_2 O 0.17640(16) 0.52176(11) 0.65574(12)
O1T_2 O 0.34536(12) -0.17640(16) 0.65574(12)
O2_2 O -0.6667 -0.3333 0.7500
O2_3 O 0.3333 -0.3333 0.7500
loop_
_geom_bond_atom_site_label_1
_geom_bond_atom_site_label_2
_geom_bond_site_symmetry_1
_geom_bond_site_symmetry_2
Fe1 O1 1_555 1_555
O1 C2 1_555 1_555
O2 Fe1 1_555 1_555
N1 Fe1 1_555 1_555
C1 C2 1_555 1_555
C2 O1R 1_555 1_555
C3 C1 1_555 1_555
H1 C3 1_555 1_555
C4 C6 1_555 1_555
N2 C7 1_555 1_555
C5 N1 1_555 1_555
H2 C5 1_555 1_555
C6 C5 1_555 1_555
H3 C6 1_555 1_555
C7 C4 1_555 1_555
O1F C2F 1_555 1_555
C1F C2F 1_555 1_555
C2F O1L 1_555 1_555
C3F C3 1_555 1_555
H1F C3F 1_555 1_555
O1L Fe1C_2 1_555 1_555
C3L C1F 1_555 1_555
H1L C3L 1_555 1_555
O1R Fe1A_2 1_555 1_555
C3R C1 1_555 1_555
H1R C3R 1_555 1_555
N1A C5A 1_555 1_555
C4A C6A 1_555 1_555
N2A C7 1_555 1_555
C5A H2A 1_555 1_555
C6A C5A 1_555 1_555
H3A C6A 1_555 1_555
C7A C4A 1_555 1_555
N1B C5B 1_555 1_555
C4B C6B 1_555 1_555
N2B C7A 1_555 1_555
C5B H2B 1_555 1_555
C6B C5B 1_555 1_555
H3B C6B 1_555 1_555
C7B N2 1_555 1_555
C5J N1 1_555 1_555
H2J C5J 1_555 1_555
C6J C4 1_555 1_555
H3J C6J 1_555 1_555
C5K N1B 1_555 1_555
H2K C5K 1_555 1_555
C6K C4B 1_555 1_555
H3K C6K 1_555 1_555
C5I N1A 1_555 1_555
H2I C5I 1_555 1_555
C6I C4A 1_555 1_555
H3I C6I 1_555 1_555
Fe1A N1A 1_555 1_555
O1A Fe1A 1_555 1_555
C1A C2A 1_555 1_555
C2A O1A 1_555 1_555
C3A C1A 1_555 1_555
H1A C3A 1_555 1_555
O1H C2H 1_555 1_555
C1H C2H 1_555 1_555
C2H O1M 1_555 1_555
C3H C3A 1_555 1_555
H1H C3H 1_555 1_555
O1M Fe1D 1_555 1_555
C3M C1H 1_555 1_555
H1M C3M 1_555 1_555
O1T C2A 1_555 1_555
C3T C1A 1_555 1_555
H1T C3T 1_555 1_555
Fe1B N1B 1_555 1_555
O1B Fe1B 1_555 1_555
C1B C2B 1_555 1_555
C2B O1B 1_555 1_555
C3B C1B 1_555 1_555
H1B C3B 1_555 1_555
O1G C2G 1_555 1_555
C1G C2G 1_555 1_555
C2G O1N 1_555 1_555
C3G C3B 1_555 1_555
H1G C3G 1_555 1_555
O1N Fe1E 1_555 1_555
C3N C1G 1_555 1_555
H1N C3N 1_555 1_555
O1S C2B 1_555 1_555
C3S C1B 1_555 1_555
H1S C3S 1_555 1_555
Fe1_2 O1S 1_555 1_555
Fe1A_2 O2 1_555 1_555
Fe1B_2 O1T 1_555 1_555
Fe1B_3 O2 1_555 1_555
Fe1C O1G 1_555 1_555
Fe1D_2 O1F 1_555 1_555
Fe1E_2 O1H 1_555 1_555
O1I Fe1A 1_555 1_555
O1J Fe1 1_555 1_555
O1K Fe1B 1_555 1_555
O1O Fe1 1_555 1_555
O1P Fe1A 1_555 1_555
O1Q Fe1B 1_555 1_555
O1R_2 Fe1A 1_555 1_555
O1S_2 Fe1 1_555 1_555
O1T_2 Fe1B 1_555 1_555
O2_2 Fe1A 1_555 1_555
O2_3 Fe1B 1_555 1_555
C1F C3F 1_555 1_555
C3L C3R 1_555 1_555
N2A C7A 1_555 1_555
C4B C7B 1_555 1_555
N2B C7B 1_555 1_555
C5J C6J 1_555 1_555
C5K C6K 1_555 1_555
C5I C6I 1_555 1_555
C1H C3H 1_555 1_555
C3M C3T 1_555 1_555
C1G C3G 1_555 1_555
C3N C3S 1_555 1_555
Fe1_2 O2_3 1_555 1_555
Fe1B_2 O2_2 1_555 1_555

#END
