
#######################################################################
#
#                 Cambridge Crystallographic Data Centre
#                                CCDC 
#
#######################################################################
#
# If this CIF has been generated from an entry in the Cambridge 
# Structural Database, then it will include bibliographic, chemical, 
# crystal, experimental, refinement or atomic coordinate data resulting 
# from the CCDC's data processing and validation procedures.
#
#######################################################################

data_EXEWAG
_chemical_formula_moiety         '(C34 H16 N2 O8 S4 Zn2)n'
_symmetry_cell_setting           monoclinic
_symmetry_space_group_name_H-M   'C 2/c'
_symmetry_Int_Tables_number      15
_space_group_name_Hall           '-C 2yc'
loop_
_symmetry_equiv_pos_site_id
_symmetry_equiv_pos_as_xyz
1 x,y,z
2 -x,y,1/2-z
3 1/2+x,1/2+y,z
4 1/2-x,1/2+y,1/2-z
5 -x,-y,-z
6 x,-y,1/2+z
7 1/2-x,1/2-y,-z
8 1/2+x,1/2-y,1/2+z
_cell_length_a                   15.3611(8)
_cell_length_b                   25.4602(10)
_cell_length_c                   13.8990(6)
_cell_angle_alpha                90
_cell_angle_beta                 106.013(5)
_cell_angle_gamma                90
_cell_volume                     5224.94
loop_
_atom_site_label
_atom_site_type_symbol
_atom_site_fract_x
_atom_site_fract_y
_atom_site_fract_z
Zn1 Zn 0.52598(4) 0.14803(2) -0.13907(4)
S1 S 0.34755(13) 0.00330(6) -0.13515(11)
S2 S 0.20360(13) -0.19496(6) -0.10734(11)
O1 O 0.3870(3) 0.08681(13) -0.3579(3)
O2 O 0.1155(3) -0.29622(14) -0.1459(3)
O3 O 0.4250(3) 0.09461(14) -0.1914(3)
C1 C 0.1575(4) -0.2241(2) -0.2257(4)
N1 N 0.5209(3) 0.14821(14) 0.0039(3)
O4 O 0.0702(3) -0.29291(14) -0.3134(3)
C2 C 0.1579(6) -0.1966(2) -0.3171(8)
H1 H 0.1349 -0.2065 -0.3837
C3 C 0.4925(4) 0.1061(2) 0.0441(4)
H2 H 0.4779 0.0760 0.0049
C4 C 0.5045(4) 0.14891(19) 0.1982(4)
C5 C 0.5410(5) 0.1909(2) 0.0619(4)
H3 H 0.5601 0.2208 0.0351
C6 C 0.2089(5) -0.1453(2) -0.2695(5)
C7 C 0.2923(4) -0.0559(2) -0.1791(4)
C8 C 0.3428(4) 0.02141(19) -0.2600(4)
C9 C 0.1119(4) -0.27576(19) -0.2287(4)
C10 C 0.2317(5) -0.1398(2) -0.1673(5)
C11 C 0.4837(4) 0.1045(2) 0.1383(4)
H4 H 0.4640 0.0741 0.1626
C12 C 0.2290(5) -0.1050(2) -0.3307(5)
H5 H 0.2148 -0.1086 -0.3999
C13 C 0.3000(5) -0.0138(2) -0.3330(7)
C14 C 0.2730(5) -0.0945(2) -0.1183(5)
H6 H 0.2865 -0.0906 -0.0493
C15 C 0.5353(5) 0.1931(2) 0.1582(4)
H7 H 0.5515 0.2234 0.1962
C16 C 0.2715(4) -0.0592(2) -0.2821(5)
C17 C 0.3876(3) 0.07183(18) -0.2718(4)
H8 H 0.2819 -0.0061 -0.3996
Zn1A Zn 0.47402(4) 0.14803(2) -0.36093(4)
Zn1A_2 Zn 0.47402(4) 0.14803(2) 0.63907(4)
Zn1B Zn 0.02598(4) -0.35197(2) -0.13907(4)
Zn1B_2 Zn 1.02598(4) -0.35197(2) -0.13907(4)
Zn1C Zn -0.02598(4) -0.35197(2) -0.36093(4)
Zn1C_2 Zn 0.97402(4) -0.35197(2) -0.36093(4)
S1A S 0.65245(13) 0.00330(6) -0.36485(11)
S2A S 0.79640(13) -0.19496(6) -0.39266(11)
O1A O 0.6130(3) 0.08681(13) -0.1421(3)
O2A O 0.8845(3) -0.29622(14) -0.3541(3)
O2B O 0.6155(3) 0.20378(14) -0.1459(3)
O2C O 0.3845(3) 0.20378(14) -0.3541(3)
O3A O 0.5750(3) 0.09461(14) -0.3086(3)
C1A C 0.8425(4) -0.2241(2) -0.2743(4)
N1A N 0.4791(3) 0.14821(14) 0.4961(3)
N1A_2 N 0.4791(3) 0.14821(14) -0.5039(3)
O4A O 0.9298(3) -0.29291(14) -0.1866(3)
O4B O 0.5702(3) 0.20709(14) -0.3134(3)
O4C O 0.4298(3) 0.20709(14) -0.1866(3)
C2A C 0.8421(6) -0.1966(2) -0.1829(8)
H1A H 0.8651 -0.2065 -0.1163
C3A C 0.5075(4) 0.1061(2) 0.4559(4)
H2A H 0.5221 0.0760 0.4951
C4A C 0.4955(4) 0.14891(19) 0.3018(4)
C5A C 0.4590(5) 0.1909(2) 0.4381(4)
H3A H 0.4399 0.2208 0.4649
C6A C 0.7911(5) -0.1453(2) -0.2305(5)
C7A C 0.7077(4) -0.0559(2) -0.3209(4)
C8A C 0.6572(4) 0.02141(19) -0.2400(4)
C9A C 0.8881(4) -0.27576(19) -0.2713(4)
C10A C 0.7683(5) -0.1398(2) -0.3327(5)
C11A C 0.5163(4) 0.1045(2) 0.3617(4)
H4A H 0.5360 0.0741 0.3374
C12A C 0.7710(5) -0.1050(2) -0.1693(5)
H5A H 0.7852 -0.1086 -0.1001
C13A C 0.7000(5) -0.0138(2) -0.1670(7)
C14A C 0.7270(5) -0.0945(2) -0.3817(5)
H6A H 0.7135 -0.0906 -0.4507
C15A C 0.4647(5) 0.1931(2) 0.3418(4)
H7A H 0.4485 0.2234 0.3038
C16A C 0.7285(4) -0.0592(2) -0.2179(5)
C17A C 0.6124(3) 0.07183(18) -0.2282(4)
H8A H 0.7181 -0.0061 -0.1004
loop_
_geom_bond_atom_site_label_1
_geom_bond_atom_site_label_2
_geom_bond_site_symmetry_1
_geom_bond_site_symmetry_2
Zn1 O3 1_555 1_555
S1 C7 1_555 1_555
S2 C1 1_555 1_555
O1 C17 1_555 1_555
O2 C9 1_555 1_555
O3 C17 1_555 1_555
C1 C2 1_555 1_555
N1 Zn1 1_555 1_555
O4 C9 1_555 1_555
C2 H1 1_555 1_555
C3 N1 1_555 1_555
H2 C3 1_555 1_555
C4 C11 1_555 1_555
C5 N1 1_555 1_555
H3 C5 1_555 1_555
C6 C2 1_555 1_555
C7 C14 1_555 1_555
C8 S1 1_555 1_555
C9 C1 1_555 1_555
C10 S2 1_555 1_555
C11 C3 1_555 1_555
H4 C11 1_555 1_555
C12 C6 1_555 1_555
H5 C12 1_555 1_555
C13 C8 1_555 1_555
C14 C10 1_555 1_555
H6 C14 1_555 1_555
C15 C4 1_555 1_555
H7 C15 1_555 1_555
C16 C7 1_555 1_555
C17 C8 1_555 1_555
H8 C13 1_555 1_555
Zn1A O1 1_555 1_555
Zn1A_2 N1A 1_555 1_555
Zn1B O2 1_555 1_555
Zn1B_2 O4A 1_555 1_555
Zn1C O4 1_555 1_555
Zn1C_2 O2A 1_555 1_555
S1A C7A 1_555 1_555
S2A C1A 1_555 1_555
O1A Zn1 1_555 1_555
O2A C9A 1_555 1_555
O2B Zn1 1_555 1_555
O2C Zn1A 1_555 1_555
O3A Zn1A 1_555 1_555
C1A C2A 1_555 1_555
N1A C3A 1_555 1_555
N1A_2 Zn1A 1_555 1_555
O4A C9A 1_555 1_555
O4B Zn1A 1_555 1_555
O4C Zn1 1_555 1_555
C2A H1A 1_555 1_555
C3A H2A 1_555 1_555
C4A C4 1_555 1_555
C5A N1A 1_555 1_555
H3A C5A 1_555 1_555
C6A C2A 1_555 1_555
C7A C14A 1_555 1_555
C8A S1A 1_555 1_555
C9A C1A 1_555 1_555
C10A S2A 1_555 1_555
C11A C3A 1_555 1_555
H4A C11A 1_555 1_555
C12A C6A 1_555 1_555
H5A C12A 1_555 1_555
C13A C8A 1_555 1_555
C14A C10A 1_555 1_555
H6A C14A 1_555 1_555
C15A C4A 1_555 1_555
H7A C15A 1_555 1_555
C16A C7A 1_555 1_555
C17A O1A 1_555 1_555
H8A C13A 1_555 1_555
C5 C15 1_555 1_555
C6 C10 1_555 1_555
C12 C16 1_555 1_555
C13 C16 1_555 1_555
O3A C17A 1_555 1_555
C4A C11A 1_555 1_555
C5A C15A 1_555 1_555
C6A C10A 1_555 1_555
C8A C17A 1_555 1_555
C12A C16A 1_555 1_555
C13A C16A 1_555 1_555

#END
