
#######################################################################
#
#                 Cambridge Crystallographic Data Centre
#                                CCDC 
#
#######################################################################
#
# If this CIF has been generated from an entry in the Cambridge 
# Structural Database, then it will include bibliographic, chemical, 
# crystal, experimental, refinement or atomic coordinate data resulting 
# from the CCDC's data processing and validation procedures.
#
#######################################################################

data_EXEWIO
_chemical_formula_moiety         '(C144 H96 N12 O24 S12 Zn6)n'
_symmetry_cell_setting           monoclinic
_symmetry_space_group_name_H-M   'P 21/c'
_symmetry_Int_Tables_number      14
_space_group_name_Hall           '-P 2ybc'
loop_
_symmetry_equiv_pos_site_id
_symmetry_equiv_pos_as_xyz
1 x,y,z
2 -x,1/2+y,1/2-z
3 -x,-y,-z
4 x,1/2-y,1/2+z
_cell_length_a                   21.9544(5)
_cell_length_b                   23.8914(7)
_cell_length_c                   17.0398(5)
_cell_angle_alpha                90
_cell_angle_beta                 106.568(3)
_cell_angle_gamma                90
_cell_volume                     8566.66
loop_
_atom_site_label
_atom_site_type_symbol
_atom_site_fract_x
_atom_site_fract_y
_atom_site_fract_z
S1 S 0.82703(9) 0.36065(8) 0.97398(13)
S2 S 0.95333(9) 0.17055(7) 1.12818(12)
O1 O 0.99189(14) 0.07027(13) 1.21696(19)
O2 O 0.65569(14) 0.42317(13) 0.94208(19)
O3 O 0.90993(15) 0.05335(14) 1.2654(2)
O4 O 0.73793(15) 0.44487(14) 0.8962(2)
C1 C 0.7123(2) 0.41473(18) 0.9361(3)
C2 C 0.9038(2) 0.13035(19) 1.1777(3)
C3 C 0.9364(2) 0.08123(18) 1.2234(3)
C4 C 0.7471(2) 0.36623(18) 0.9819(3)
C5 C 0.7756(4) 0.2824(2) 1.0555(4)
C6 C 0.8292(4) 0.2986(2) 1.0368(4)
C7 C 0.8298(4) 0.1997(2) 1.1202(4)
C8 C 0.8844(4) 0.2171(2) 1.1002(5)
C9 C 0.8859(4) 0.2661(2) 1.0576(4)
H1 H 0.9219 0.2771 1.0434
C10 C 0.7723(4) 0.2322(2) 1.0996(4)
H2 H 0.7361 0.2214 1.1137
C11 C 0.69947(14) 0.32692(10) 1.03242(15)
C12 C 0.82374(14) 0.13846(11) 1.1874(2)
Zn1 Zn 1.31152(2) 0.01769(2) 2.04588(3)
Zn2 Zn 1.01786(2) 0.00010(2) 1.27939(3)
Zn3 Zn 0.63572(2) 0.49987(2) 0.89623(3)
S3 S 1.54050(5) -0.36856(4) 2.25499(7)
S4 S 0.96044(5) -0.22414(5) 1.26129(7)
S5 S 0.79391(5) -0.38707(5) 1.08306(7)
S6 S 1.37521(6) -0.21017(5) 2.06374(8)
O5 O 1.35960(14) -0.04860(12) 2.0902(2)
N1 N 1.04434(16) 0.01958(15) 1.4003(2)
N2 N 1.29206(15) 0.03500(14) 1.9241(2)
O6 O 1.63939(14) -0.42721(13) 2.37957(19)
O7 O 0.64368(15) -0.37538(14) 0.8914(2)
O8 O 0.69052(14) -0.44741(13) 0.96850(19)
N3 N 1.10712(16) -0.01205(16) 1.2632(2)
N4 N 1.54314(15) -0.00871(15) 1.4015(2)
O9 O 1.30792(17) -0.10825(14) 1.9921(2)
O10 O 1.69608(15) -0.35274(14) 2.4371(2)
N5 N 1.21761(16) 0.00896(15) 2.0405(2)
O11 O 0.96727(14) -0.06278(13) 1.2266(2)
C13 C 0.8801(2) -0.30834(18) 1.1746(3)
C14 C 1.54358(19) -0.26044(18) 2.2720(3)
O12 O 1.02321(15) -0.11718(14) 1.3283(2)
C15 C 1.5123(2) -0.0570(2) 1.3832(3)
C16 C 1.10048(18) 0.05097(18) 1.5625(3)
N6 N 0.61269(15) 0.50086(14) 0.7724(2)
C17 C 1.3916(2) -0.14219(18) 2.0994(3)
C18 C 1.0718(2) -0.0176(2) 1.4573(3)
H3 H 1.0719 -0.0551 1.4422
C19 C 1.4718(2) -0.19202(17) 2.1920(3)
C20 C 0.86120(19) -0.20921(17) 1.1350(3)
C21 C 1.5249(2) -0.20473(17) 2.2559(3)
H4 H 1.5480 -0.1762 2.2882
C22 C 1.5084(2) -0.30311(17) 2.2220(3)
C23 C 1.3493(2) -0.09691(19) 2.0560(3)
C24 C 1.1419(2) -0.0567(2) 1.2941(3)
C25 C 1.4562(2) -0.29162(19) 2.1559(3)
C26 C 0.9807(2) -0.1091(2) 1.2640(3)
C27 C 1.4388(2) -0.23613(18) 2.1423(3)
C28 C 1.2351(2) -0.0186(2) 1.2674(3)
C29 C 0.7898(2) -0.27922(17) 1.0592(3)
C30 C 1.23864(18) 0.05582(18) 1.7565(3)
C31 C 1.1336(2) 0.0655(2) 1.6500(3)
C32 C 1.2448(2) 0.00285(19) 1.7878(3)
H5 H 1.2312 -0.0274 1.7528
C33 C 0.68499(19) -0.39556(19) 0.9495(3)
C34 C 1.2613(2) 0.09845(19) 1.8115(3)
H6 H 1.2587 0.1353 1.7934
C35 C 0.89629(19) -0.25219(17) 1.1862(3)
C36 C 1.4127(2) -0.0155(2) 1.3812(3)
C37 C 1.20641(19) 0.06509(19) 1.6670(2)
H7 H 1.2185 0.0356 1.6353
H8 H 1.2202 0.1005 1.6501
C38 C 0.9411(2) -0.15675(18) 1.2239(3)
C39 C 1.2878(2) 0.08663(19) 1.8937(3)
H9 H 1.3033 0.1161 1.9294
C40 C 1.2051(2) -0.0616(2) 1.2966(4)
H10 H 1.2276 -0.0938 1.3178
C41 C 1.0697(2) 0.0895(2) 1.5050(3)
H11 H 1.0670 0.1267 1.5197
C42 C 0.73320(19) -0.35865(18) 1.0037(3)
C43 C 1.1354(2) 0.02874(19) 1.2319(3)
H12 H 1.1115 0.0597 1.2081
C44 C 1.4429(2) -0.13820(19) 2.1656(3)
C45 C 1.6495(2) -0.37483(18) 2.3882(3)
C46 C 1.60110(19) -0.33868(18) 2.3322(3)
C47 C 1.1985(2) 0.0264(2) 1.2338(3)
H13 H 1.2164 0.0557 1.2119
C48 C 1.1809(2) 0.0542(2) 2.0305(3)
H14 H 1.2000 0.0892 2.0396
C49 C 1.0426(2) 0.0725(2) 1.4249(3)
C50 C 1.4454(2) 0.0344(2) 1.4016(3)
H15 H 1.4238 0.0666 1.4086
C51 C 0.8080(2) -0.22320(18) 1.0718(3)
H16 H 0.7845 -0.1955 1.0380
C52 C 0.8266(2) -0.32127(17) 1.1108(3)
C53 C 1.3421(2) -0.0185(3) 1.3669(3)
H17 H 1.3321 -0.0516 1.3939
H18 H 1.3284 0.0139 1.3916
C54 C 0.8887(2) -0.15513(19) 1.1593(3)
H19 H 0.8719 -0.1221 1.1330
C55 C 0.7376(2) -0.30265(19) 0.9992(3)
C56 C 1.5096(2) 0.03642(18) 1.4114(3)
H20 H 1.5306 0.0703 1.4254
C57 C 1.4477(2) -0.0625(2) 1.3725(3)
H21 H 1.4280 -0.0971 1.3597
C58 C 1.2708(2) -0.00645(19) 1.8703(3)
H22 H 1.2738 -0.0431 1.8896
C59 C 1.1001(3) -0.0035(2) 1.5371(3)
H23 H 1.1193 -0.0310 1.5745
C60 C 1.5964(2) -0.28259(17) 2.3336(3)
H24 H 1.6250 -0.2602 2.3714
C61 C 1.1890(2) -0.0416(2) 2.0293(4)
H25 H 1.2139 -0.0737 2.0379
C62 C 1.3056(2) -0.0207(2) 1.2775(3)
H26 H 1.3176 0.0108 1.2492
H27 H 1.3159 -0.0549 1.2534
C63 C 0.5782(2) 0.4487(2) 0.6488(3)
H28 H 0.5715 0.4139 0.6234
C64 C 1.1239(2) -0.0469(3) 2.0057(4)
H29 H 1.1056 -0.0824 1.9983
C65 C 1.0131(2) -0.0042(3) 1.9651(4)
H30 H 1.0004 -0.0407 1.9410
H31 H 0.9961 0.0240 1.9237
C66 C 0.5990(2) 0.5475(2) 0.7280(3)
C67 C 0.5748(2) 0.5474(2) 0.6444(3)
H32 H 0.5657 0.5810 0.6159
C68 C 0.5641(2) 0.4973(2) 0.6026(3)
C69 C 0.6021(3) 0.4524(2) 0.7322(3)
C70 C 1.1152(2) 0.0510(2) 2.0070(3)
H33 H 1.0911 0.0836 2.0007
C71 C 0.5363(2) 0.4965(2) 0.5115(3)
H34 H 0.5466 0.4614 0.4898
H35 H 0.5545 0.5267 0.4874
C72 C 1.0857(2) -0.0004(2) 1.9928(3)
H36 H 1.1220(18) 0.0962(18) 1.665(2)
H37 H 0.7122(18) -0.2864(17) 0.967(2)
H38 H 1.4619(18) -0.1035(17) 2.190(2)
H39 H 1.537(2) -0.082(2) 1.384(3)
H40 H 1.124(2) 0.033(2) 1.694(3)
H41 H 1.434(2) -0.324(2) 2.116(3)
H42 H 0.903(2) -0.332(2) 1.217(3)
H43 H 1.117(3) -0.088(2) 1.319(3)
H44 H 0.607(2) 0.582(2) 0.765(3)
H45 H 1.027(2) 0.1027(19) 1.390(3)
H46 H 0.617(2) 0.416(2) 0.766(3)
S1A S 2.17297(9) 0.86065(8) 3.52602(13)
S2A S 2.04667(9) 0.67055(7) 3.37182(12)
O1A O 2.00811(14) 0.57027(13) 3.28304(19)
O2A O 2.34431(14) 0.92317(13) 3.55792(19)
O2_2 O 0.65569(14) -0.57683(13) 0.94208(19)
O3A O 2.09007(15) 0.55335(14) 3.2346(2)
O4A O 2.26207(15) 0.94487(14) 3.6038(2)
C1A C 2.2877(2) 0.91473(18) 3.5639(3)
C2A C 2.0962(2) 0.63035(19) 3.3223(3)
C3A C 2.0636(2) 0.58123(18) 3.2766(3)
C4A C 2.2529(2) 0.86623(18) 3.5181(3)
C5A C 2.2244(4) 0.7824(2) 3.4445(4)
C6A C 2.1708(4) 0.7986(2) 3.4632(4)
C7A C 2.1702(4) 0.6997(2) 3.3798(4)
C8A C 2.1156(4) 0.7171(2) 3.3998(5)
C9A C 2.1141(4) 0.7661(2) 3.4424(4)
H1A H 2.0781 0.7771 3.4566
C10A C 2.2277(4) 0.7322(2) 3.4004(4)
H2A H 2.2639 0.7214 3.3863
C11A C 2.30053(14) 0.82692(10) 3.46758(15)
C12A C 2.17626(14) 0.63846(11) 3.3126(2)
Zn1A Zn 1.68848(2) 0.51769(2) 2.45412(3)
Zn1A_2 Zn 1.68848(2) -0.48231(2) 2.45412(3)
Zn1B Zn 0.68848(2) -0.01769(2) 1.95412(3)
Zn2A Zn 1.98214(2) 0.50010(2) 3.22061(3)
Zn2_2 Zn 1.01786(2) 1.00010(2) 1.27939(3)
Zn2C Zn 0.01786(2) 0.49990(2) 0.77939(3)
Zn3_2 Zn 0.63572(2) -0.50013(2) 0.89623(3)
Zn3C Zn 1.63572(2) 0.00013(2) 1.39623(3)
Zn3B Zn 0.36428(2) 0.50013(2) 0.10377(3)
Zn3A Zn 2.36428(2) 0.99987(2) 3.60377(3)
S3A S 1.45950(5) 0.13144(4) 2.24501(7)
S4_2 S 0.96044(5) 0.77586(5) 1.26129(7)
S5_2 S 0.79391(5) 0.61293(5) 1.08306(7)
S6A S 1.62479(6) 0.28983(5) 2.43626(8)
O5A O 1.64040(14) 0.45140(12) 2.4098(2)
N1A N 1.95566(16) 0.51958(15) 3.0997(2)
N2A N 1.70794(15) 0.53500(14) 2.5759(2)
O6A O 1.36061(14) 0.07279(13) 2.12043(19)
O6_2 O 1.63939(14) 0.57279(13) 2.37957(19)
O7_2 O 0.64368(15) 0.62462(14) 0.8914(2)
O8_2 O 0.69052(14) 0.55259(13) 0.96850(19)
N3C N 0.10712(16) 0.51205(16) 0.7632(2)
N3A N 1.89288(16) 0.48795(16) 3.2368(2)
N4C N 0.54314(15) 0.50871(15) 0.9015(2)
N4C_2 N 0.54314(15) -0.49129(15) 0.9015(2)
O9A O 1.69208(17) 0.39175(14) 2.5079(2)
O10A O 1.30392(15) 0.14726(14) 2.0629(2)
N5B N 0.78239(16) -0.00896(15) 1.9595(2)
N5A N 1.78239(16) 0.50896(15) 2.4595(2)
O11_2 O 0.96727(14) 0.93722(13) 1.2266(2)
O11A O 2.03273(14) 0.43722(13) 3.2734(2)
C13_2 C 0.8801(2) 0.69166(18) 1.1746(3)
C14A C 1.45642(19) 0.23956(18) 2.2280(3)
O12_2 O 1.02321(15) 0.88282(14) 1.3283(2)
C15C C 0.5123(2) 0.5570(2) 0.8832(3)
C16A C 1.89952(18) 0.55097(18) 2.9375(3)
N6B N 0.38731(15) 0.49914(14) 0.2276(2)
N6_2 N 0.61269(15) -0.49914(14) 0.7724(2)
C17A C 1.6084(2) 0.35781(18) 2.4006(3)
C18A C 1.9282(2) 0.4824(2) 3.0427(3)
H3A H 1.9281 0.4449 3.0578
C19A C 1.5282(2) 0.30798(17) 2.3080(3)
C20_2 C 0.86120(19) 0.79079(17) 1.1350(3)
C21A C 1.4751(2) 0.29527(17) 2.2441(3)
H4A H 1.4520 0.3238 2.2118
C22A C 1.4916(2) 0.19689(17) 2.2780(3)
C23A C 1.6507(2) 0.40309(19) 2.4440(3)
C24C C 0.1419(2) 0.5567(2) 0.7941(3)
C25A C 1.5438(2) 0.20838(19) 2.3441(3)
C26_2 C 0.9807(2) 0.8909(2) 1.2640(3)
C27A C 1.5612(2) 0.26387(18) 2.3577(3)
C28C C 0.2351(2) 0.5186(2) 0.7674(3)
C29_2 C 0.7898(2) 0.72078(17) 1.0592(3)
C30A C 1.76136(18) 0.55582(18) 2.7435(3)
C31A C 1.8664(2) 0.5655(2) 2.8500(3)
C32A C 1.7552(2) 0.50285(19) 2.7122(3)
H5A H 1.7688 0.4726 2.7472
C33_2 C 0.68499(19) 0.60444(19) 0.9495(3)
C34A C 1.7387(2) 0.59845(19) 2.6885(3)
H6A H 1.7413 0.6353 2.7066
C35_2 C 0.89629(19) 0.74781(17) 1.1862(3)
C36C C 0.4127(2) 0.5155(2) 0.8812(3)
C37A C 1.79359(19) 0.56509(19) 2.8330(2)
H7A H 1.7815 0.5356 2.8647
H8A H 1.7798 0.6005 2.8499
C38_2 C 0.9411(2) 0.84325(18) 1.2239(3)
C39A C 1.7122(2) 0.58663(19) 2.6063(3)
H9A H 1.6967 0.6161 2.5706
C40C C 0.2051(2) 0.5616(2) 0.7966(4)
H10C H 0.2276 0.5938 0.8178
C41A C 1.9303(2) 0.5895(2) 2.9950(3)
H11A H 1.9330 0.6267 2.9803
C42_2 C 0.73320(19) 0.64135(18) 1.0037(3)
C43C C 0.1354(2) 0.47126(19) 0.7319(3)
H12C H 0.1115 0.4403 0.7081
C44A C 1.5571(2) 0.36180(19) 2.3344(3)
C45A C 1.3505(2) 0.12517(18) 2.1118(3)
C46A C 1.39890(19) 0.16132(18) 2.1678(3)
C47C C 0.1985(2) 0.4736(2) 0.7338(3)
H13C H 0.2164 0.4443 0.7119
C48B C 0.8191(2) -0.0542(2) 1.9695(3)
H14B H 0.8000 -0.0892 1.9604
C49A C 1.9574(2) 0.5725(2) 3.0751(3)
C50C C 0.4454(2) 0.4656(2) 0.9016(3)
H15C H 0.4238 0.4334 0.9086
C51_2 C 0.8080(2) 0.77680(18) 1.0718(3)
H16_2 H 0.7845 0.8045 1.0380
C52_2 C 0.8266(2) 0.67873(17) 1.1108(3)
C53C C 0.3421(2) 0.5185(3) 0.8669(3)
H17C H 0.3321 0.5516 0.8939
H18C H 0.3284 0.4861 0.8916
C54_2 C 0.8887(2) 0.84487(19) 1.1593(3)
H19_2 H 0.8719 0.8779 1.1330
C55_2 C 0.7376(2) 0.69735(19) 0.9992(3)
C56C C 0.5096(2) 0.46358(18) 0.9114(3)
H20C H 0.5306 0.4297 0.9254
C57C C 0.4477(2) 0.5625(2) 0.8725(3)
H21C H 0.4280 0.5971 0.8597
C58A C 1.7292(2) 0.49355(19) 2.6297(3)
H22A H 1.7262 0.4569 2.6104
C59A C 1.8999(3) 0.4965(2) 2.9629(3)
H23A H 1.8807 0.4690 2.9255
C60A C 1.4036(2) 0.21741(17) 2.1664(3)
H24A H 1.3750 0.2398 2.1286
C61B C 0.8110(2) 0.0416(2) 1.9707(4)
H25B H 0.7861 0.0737 1.9621
C62C C 0.3056(2) 0.5207(2) 0.7775(3)
H26C H 0.3176 0.4892 0.7492
H27C H 0.3159 0.5549 0.7534
C63B C 0.4218(2) 0.5513(2) 0.3512(3)
H28B H 0.4285 0.5861 0.3766
C64B C 0.8761(2) 0.0469(3) 1.9943(4)
H29B H 0.8944 0.0824 2.0017
C65B C 0.9869(2) 0.0042(3) 2.0349(4)
H30B H 0.9996 0.0407 2.0590
H31B H 1.0039 -0.0240 2.0763
C66B C 0.4010(2) 0.4525(2) 0.2720(3)
C67B C 0.4252(2) 0.4526(2) 0.3556(3)
H32B H 0.4343 0.4190 0.3841
C68B C 0.4359(2) 0.5027(2) 0.3974(3)
C69B C 0.3979(3) 0.5476(2) 0.2678(3)
C70B C 0.8848(2) -0.0510(2) 1.9930(3)
H33B H 0.9089 -0.0836 1.9993
C71B C 0.4637(2) 0.5035(2) 0.4885(3)
H34B H 0.4534 0.5386 0.5102
H35B H 0.4455 0.4733 0.5126
C72B C 0.9143(2) 0.0004(2) 2.0072(3)
H36A H 1.8780(18) 0.5962(18) 2.835(2)
H37_2 H 0.7122(18) 0.7136(17) 0.967(2)
H38A H 1.5381(18) 0.3965(17) 2.310(2)
H39C H 0.537(2) 0.582(2) 0.884(3)
H40A H 1.876(2) 0.533(2) 2.806(3)
H41A H 1.566(2) 0.176(2) 2.384(3)
H42_2 H 0.903(2) 0.668(2) 1.217(3)
H43C H 0.117(3) 0.588(2) 0.819(3)
H44B H 0.393(2) 0.418(2) 0.235(3)
H45A H 1.973(2) 0.6027(19) 3.110(3)
H46B H 0.383(2) 0.584(2) 0.234(3)
loop_
_geom_bond_atom_site_label_1
_geom_bond_atom_site_label_2
_geom_bond_site_symmetry_1
_geom_bond_site_symmetry_2
S1 C4 1_555 1_555
S2 C2 1_555 1_555
O1 C3 1_555 1_555
O2 C1 1_555 1_555
O3 C3 1_555 1_555
O4 C1 1_555 1_555
C1 C4 1_555 1_555
C2 C3 1_555 1_555
C4 C11 1_555 1_555
C5 C6 1_555 1_555
C6 S1 1_555 1_555
C7 C8 1_555 1_555
C8 S2 1_555 1_555
C9 C6 1_555 1_555
H1 C9 1_555 1_555
C10 C5 1_555 1_555
H2 C10 1_555 1_555
C11 C5 1_555 1_555
C12 C2 1_555 1_555
Zn1 O5 1_555 1_555
Zn2 O1 1_555 1_555
Zn3 O2 1_555 1_555
S3 C22 1_555 1_555
S4 C35 1_555 1_555
S5 C42 1_555 1_555
S6 C17 1_555 1_555
O5 C23 1_555 1_555
N1 Zn2 1_555 1_555
N2 Zn1 1_555 1_555
O6 C45 1_555 1_555
O7 C33 1_555 1_555
O8 C33 1_555 1_555
N3 Zn2 1_555 1_555
N4 C15 1_555 1_555
O9 C23 1_555 1_555
O10 C45 1_555 1_555
N5 Zn1 1_555 1_555
O11 Zn2 1_555 1_555
C13 C35 1_555 1_555
C14 C21 1_555 1_555
O12 C26 1_555 1_555
C15 C57 1_555 1_555
C16 C31 1_555 1_555
N6 Zn3 1_555 1_555
C17 C23 1_555 1_555
C18 N1 1_555 1_555
H3 C18 1_555 1_555
C19 C21 1_555 1_555
C20 C35 1_555 1_555
C21 H4 1_555 1_555
C22 C14 1_555 1_555
C24 N3 1_555 1_555
C25 C22 1_555 1_555
C26 O11 1_555 1_555
C27 S6 1_555 1_555
C28 C40 1_555 1_555
C29 C51 1_555 1_555
C30 C32 1_555 1_555
C31 C37 1_555 1_555
C32 H5 1_555 1_555
C33 C42 1_555 1_555
C34 C30 1_555 1_555
H6 C34 1_555 1_555
C36 C50 1_555 1_555
C37 C30 1_555 1_555
H7 C37 1_555 1_555
H8 C37 1_555 1_555
C38 S4 1_555 1_555
C39 N2 1_555 1_555
H9 C39 1_555 1_555
C40 C24 1_555 1_555
H10 C40 1_555 1_555
C41 C16 1_555 1_555
H11 C41 1_555 1_555
C42 C55 1_555 1_555
C43 N3 1_555 1_555
H12 C43 1_555 1_555
C44 C17 1_555 1_555
C45 C46 1_555 1_555
C46 S3 1_555 1_555
C47 C28 1_555 1_555
H13 C47 1_555 1_555
C48 N5 1_555 1_555
H14 C48 1_555 1_555
C49 N1 1_555 1_555
C50 H15 1_555 1_555
C51 C20 1_555 1_555
H16 C51 1_555 1_555
C52 S5 1_555 1_555
C53 C36 1_555 1_555
H17 C53 1_555 1_555
H18 C53 1_555 1_555
C54 C20 1_555 1_555
H19 C54 1_555 1_555
C55 C29 1_555 1_555
C56 N4 1_555 1_555
H20 C56 1_555 1_555
C57 C36 1_555 1_555
H21 C57 1_555 1_555
C58 N2 1_555 1_555
H22 C58 1_555 1_555
C59 C16 1_555 1_555
H23 C59 1_555 1_555
C60 C14 1_555 1_555
H24 C60 1_555 1_555
C61 N5 1_555 1_555
H25 C61 1_555 1_555
C62 C28 1_555 1_555
H26 C62 1_555 1_555
H27 C62 1_555 1_555
C63 H28 1_555 1_555
C64 C61 1_555 1_555
H29 C64 1_555 1_555
C65 H30 1_555 1_555
H31 C65 1_555 1_555
C66 N6 1_555 1_555
C67 C66 1_555 1_555
H32 C67 1_555 1_555
C68 C63 1_555 1_555
C69 N6 1_555 1_555
C70 C48 1_555 1_555
H33 C70 1_555 1_555
C71 C68 1_555 1_555
H34 C71 1_555 1_555
H35 C71 1_555 1_555
C72 C64 1_555 1_555
H36 C31 1_555 1_555
H37 C55 1_555 1_555
H38 C44 1_555 1_555
H39 C15 1_555 1_555
H40 C31 1_555 1_555
H41 C25 1_555 1_555
H42 C13 1_555 1_555
H43 C24 1_555 1_555
H44 C66 1_555 1_555
H45 C49 1_555 1_555
H46 C69 1_555 1_555
S1A C4A 1_555 1_555
S2A C2A 1_555 1_555
O1A C3A 1_555 1_555
O2A C1A 1_555 1_555
O2_2 Zn3_2 1_555 1_555
O3A C3A 1_555 1_555
O4A C1A 1_555 1_555
C1A C4A 1_555 1_555
C2A C3A 1_555 1_555
C4A C11A 1_555 1_555
C5A C6A 1_555 1_555
C6A S1A 1_555 1_555
C7A C8A 1_555 1_555
C8A S2A 1_555 1_555
C9A C6A 1_555 1_555
H1A C9A 1_555 1_555
C10A C5A 1_555 1_555
H2A C10A 1_555 1_555
C11A C5A 1_555 1_555
C12A C2A 1_555 1_555
Zn1A O5A 1_555 1_555
Zn1A_2 O6 1_555 1_555
Zn1B N5B 1_555 1_555
Zn2A O1A 1_555 1_555
Zn2_2 O11_2 1_555 1_555
Zn2C N3C 1_555 1_555
Zn3_2 O8 1_555 1_555
Zn3C N4 1_555 1_555
Zn3B N6B 1_555 1_555
Zn3A O2A 1_555 1_555
S3A C22A 1_555 1_555
S4_2 C35_2 1_555 1_555
S5_2 C42_2 1_555 1_555
S6A C17A 1_555 1_555
O5A C23A 1_555 1_555
N1A Zn2A 1_555 1_555
N2A Zn1A 1_555 1_555
O6A Zn1 1_555 1_555
O6_2 Zn1A 1_555 1_555
O7_2 C33_2 1_555 1_555
O8_2 Zn3 1_555 1_555
N3C C24C 1_555 1_555
N3A Zn2A 1_555 1_555
N4C Zn3 1_555 1_555
N4C_2 Zn3_2 1_555 1_555
O9A C23A 1_555 1_555
O10A C45A 1_555 1_555
N5B C48B 1_555 1_555
N5A Zn1A 1_555 1_555
O11_2 C26_2 1_555 1_555
O11A Zn2A 1_555 1_555
C13_2 C35_2 1_555 1_555
C14A C21A 1_555 1_555
O12_2 C26_2 1_555 1_555
C15C N4C 1_555 1_555
C16A C31A 1_555 1_555
N6B C66B 1_555 1_555
N6_2 Zn3_2 1_555 1_555
C17A C23A 1_555 1_555
C18A N1A 1_555 1_555
H3A C18A 1_555 1_555
C19A C21A 1_555 1_555
C20_2 C35_2 1_555 1_555
C21A H4A 1_555 1_555
C22A C14A 1_555 1_555
C24C C40C 1_555 1_555
C25A C22A 1_555 1_555
C26_2 C38_2 1_555 1_555
C27A S6A 1_555 1_555
C28C C40C 1_555 1_555
C29_2 C51_2 1_555 1_555
C30A C32A 1_555 1_555
C31A C37A 1_555 1_555
C32A H5A 1_555 1_555
C33_2 O8_2 1_555 1_555
C34A C30A 1_555 1_555
H6A C34A 1_555 1_555
C36C C50C 1_555 1_555
C37A C30A 1_555 1_555
H7A C37A 1_555 1_555
H8A C37A 1_555 1_555
C38_2 S4_2 1_555 1_555
C39A N2A 1_555 1_555
H9A C39A 1_555 1_555
C40C H10C 1_555 1_555
C41A C16A 1_555 1_555
H11A C41A 1_555 1_555
C42_2 C33_2 1_555 1_555
C43C N3C 1_555 1_555
H12C C43C 1_555 1_555
C44A C17A 1_555 1_555
C45A O6A 1_555 1_555
C46A S3A 1_555 1_555
C47C C28C 1_555 1_555
H13C C47C 1_555 1_555
C48B H14B 1_555 1_555
C49A N1A 1_555 1_555
C50C H15C 1_555 1_555
C51_2 C20_2 1_555 1_555
H16_2 C51_2 1_555 1_555
C52_2 S5_2 1_555 1_555
C53C C36C 1_555 1_555
H17C C53C 1_555 1_555
H18C C53C 1_555 1_555
C54_2 C20_2 1_555 1_555
H19_2 C54_2 1_555 1_555
C55_2 C29_2 1_555 1_555
C56C N4C 1_555 1_555
H20C C56C 1_555 1_555
C57C C15C 1_555 1_555
H21C C57C 1_555 1_555
C58A N2A 1_555 1_555
H22A C58A 1_555 1_555
C59A C16A 1_555 1_555
H23A C59A 1_555 1_555
C60A C14A 1_555 1_555
H24A C60A 1_555 1_555
C61B N5B 1_555 1_555
H25B C61B 1_555 1_555
C62C C28C 1_555 1_555
H26C C62C 1_555 1_555
H27C C62C 1_555 1_555
C63B H28B 1_555 1_555
C64B C61B 1_555 1_555
H29B C64B 1_555 1_555
C65B C65 1_555 1_555
H30B C65B 1_555 1_555
H31B C65B 1_555 1_555
C66B C67B 1_555 1_555
C67B H32B 1_555 1_555
C68B C63B 1_555 1_555
C69B N6B 1_555 1_555
C70B C48B 1_555 1_555
H33B C70B 1_555 1_555
C71B C71 1_555 1_555
H34B C71B 1_555 1_555
H35B C71B 1_555 1_555
C72B C64B 1_555 1_555
H36A C31A 1_555 1_555
H37_2 C55_2 1_555 1_555
H38A C44A 1_555 1_555
H39C C15C 1_555 1_555
H40A C31A 1_555 1_555
H41A C25A 1_555 1_555
H42_2 C13_2 1_555 1_555
H43C C24C 1_555 1_555
H44B C66B 1_555 1_555
H45A C49A 1_555 1_555
H46B C69B 1_555 1_555
C7 C10 1_555 1_555
C7 C12 1_555 1_555
C8 C9 1_555 1_555
C13 C52 1_555 1_555
C18 C59 1_555 1_555
C19 C27 1_555 1_555
C19 C44 1_555 1_555
C25 C27 1_555 1_555
C26 C38 1_555 1_555
C29 C52 1_555 1_555
C32 C58 1_555 1_555
C34 C39 1_555 1_555
C38 C54 1_555 1_555
C41 C49 1_555 1_555
C43 C47 1_555 1_555
C46 C60 1_555 1_555
C50 C56 1_555 1_555
C53 C62 1_555 1_555
C63 C69 1_555 1_555
C65 C72 1_555 1_555
C67 C68 1_555 1_555
C70 C72 1_555 1_555
C7A C10A 1_555 1_555
C7A C12A 1_555 1_555
C8A C9A 1_555 1_555
C13_2 C52_2 1_555 1_555
C18A C59A 1_555 1_555
C19A C27A 1_555 1_555
C19A C44A 1_555 1_555
C25A C27A 1_555 1_555
C29_2 C52_2 1_555 1_555
C32A C58A 1_555 1_555
C34A C39A 1_555 1_555
C36C C57C 1_555 1_555
C38_2 C54_2 1_555 1_555
C41A C49A 1_555 1_555
C42_2 C55_2 1_555 1_555
C43C C47C 1_555 1_555
C45A C46A 1_555 1_555
C46A C60A 1_555 1_555
C50C C56C 1_555 1_555
C53C C62C 1_555 1_555
C63B C69B 1_555 1_555
C65B C72B 1_555 1_555
C67B C68B 1_555 1_555
C68B C71B 1_555 1_555
C70B C72B 1_555 1_555

#END
