
#######################################################################
#
#                 Cambridge Crystallographic Data Centre
#                                CCDC 
#
#######################################################################
#
# If this CIF has been generated from an entry in the Cambridge 
# Structural Database, then it will include bibliographic, chemical, 
# crystal, experimental, refinement or atomic coordinate data resulting 
# from the CCDC's data processing and validation procedures.
#
#######################################################################

data_LUPVEZ
_chemical_formula_moiety         '(C60 H38 N30 Ni6 O14)n'
_symmetry_cell_setting           cubic
_symmetry_space_group_name_H-M   'I -4 3 m'
_symmetry_Int_Tables_number      217
_space_group_name_Hall           'I -4 2 3'
loop_
_symmetry_equiv_pos_site_id
_symmetry_equiv_pos_as_xyz
1 x,y,z
2 -x,-y,z
3 -x,y,-z
4 x,-y,-z
5 z,x,y
6 z,-x,-y
7 -z,-x,y
8 -z,x,-y
9 y,z,x
10 -y,z,-x
11 y,-z,-x
12 -y,-z,x
13 y,x,z
14 -y,-x,z
15 y,-x,-z
16 -y,x,-z
17 x,z,y
18 -x,z,-y
19 -x,-z,y
20 x,-z,-y
21 z,y,x
22 z,-y,-x
23 -z,y,-x
24 -z,-y,x
25 1/2+x,1/2+y,1/2+z
26 1/2-x,1/2-y,1/2+z
27 1/2-x,1/2+y,1/2-z
28 1/2+x,1/2-y,1/2-z
29 1/2+z,1/2+x,1/2+y
30 1/2+z,1/2-x,1/2-y
31 1/2-z,1/2-x,1/2+y
32 1/2-z,1/2+x,1/2-y
33 1/2+y,1/2+z,1/2+x
34 1/2-y,1/2+z,1/2-x
35 1/2+y,1/2-z,1/2-x
36 1/2-y,1/2-z,1/2+x
37 1/2+y,1/2+x,1/2+z
38 1/2-y,1/2-x,1/2+z
39 1/2+y,1/2-x,1/2-z
40 1/2-y,1/2+x,1/2-z
41 1/2+x,1/2+z,1/2+y
42 1/2-x,1/2+z,1/2-y
43 1/2-x,1/2-z,1/2+y
44 1/2+x,1/2-z,1/2-y
45 1/2+z,1/2+y,1/2+x
46 1/2+z,1/2-y,1/2-x
47 1/2-z,1/2+y,1/2-x
48 1/2-z,1/2-y,1/2+x
_cell_length_a                   23.290(3)
_cell_length_b                   23.290(3)
_cell_length_c                   23.290(3)
_cell_angle_alpha                90
_cell_angle_beta                 90
_cell_angle_gamma                90
_cell_volume                     12633.1
loop_
_atom_site_label
_atom_site_type_symbol
_atom_site_fract_x
_atom_site_fract_y
_atom_site_fract_z
_atom_site_U_iso_or_equiv
_atom_site_thermal_displace_type
Ni1 Ni 0.61353(2) 0.28333(2) 0.28333(2) 0.0143 Uani
O1 O 0.57052(8) 0.27336(9) 0.36068(8) 0.0247 Uani
O2 O 0.67310(10) 0.32690(10) 0.32690(10) 0.0163 Uani
N1 N 0.74461(9) 0.25539(9) -0.04350(12) 0.0185 Uani
N2 N 0.65933(9) 0.30020(9) 0.20834(8) 0.0173 Uani
N3 N 0.65657(9) 0.27585(9) 0.15692(9) 0.0196 Uani
C1 C 0.70116(12) 0.22989(13) -0.01713(12) 0.0291 Uani
H1 H 0.6819 0.2007 -0.0363 0.0350 Uiso
C2 C 0.68300(13) 0.24450(14) 0.03755(12) 0.0308 Uani
H2 H 0.6526 0.2252 0.0549 0.0370 Uiso
C3 C 0.71133(10) 0.28867(10) 0.06570(14) 0.0209 Uani
C4 C 0.69691(11) 0.30309(11) 0.12620(15) 0.0205 Uani
C5 C 0.58776(11) 0.27184(17) 0.41224(11) 0.0227 Uani
C6 C 0.54261(11) 0.26953(19) 0.45739(11) 0.0281 Uani
C7 C 0.48511(14) 0.2682(3) 0.44301(14) 0.0639 Uani
H3 H 0.4745 0.2672 0.4045 0.0770 Uiso
O1T O 0.36068(8) 0.27336(9) 0.57052(8) 0.0247 Uani
C5B C 0.41224(11) 0.27184(17) 0.58776(11) 0.0227 Uani
C6B C 0.45739(11) 0.26953(19) 0.54261(11) 0.0281 Uani
C7T C 0.44301(14) 0.2682(3) 0.48511(14) 0.0639 Uani
H3T H 0.4045 0.2672 0.4745 0.0770 Uiso
O1V O 0.63932(8) 0.27336(9) 0.42948(8) 0.0247 Uani
C7V C 0.55699(14) 0.2682(3) 0.51489(14) 0.0639 Uani
H3V H 0.5955 0.2672 0.5255 0.0770 Uiso
O1B O 0.42948(8) 0.27336(9) 0.63932(8) 0.0247 Uani
C7B C 0.51489(14) 0.2682(3) 0.55699(14) 0.0639 Uani
H3B H 0.5255 0.2672 0.5955 0.0770 Uiso
N2M N 0.69980(9) 0.34067(9) 0.20834(8) 0.0173 Uani
N3M N 0.72415(9) 0.34343(9) 0.15692(9) 0.0196 Uani
C1M C 0.77011(13) 0.29884(12) -0.01713(12) 0.0291 Uani
H1M H 0.7993 0.3181 -0.0363 0.0350 Uiso
C2M C 0.75550(14) 0.31700(13) 0.03755(12) 0.0308 Uani
H2M H 0.7748 0.3474 0.0549 0.0370 Uiso
Ni1B Ni 0.38647(2) 0.28333(2) 0.71667(2) 0.0143 Uani
O2B O 0.32690(10) 0.32690(10) 0.67310(10) 0.0163 Uani
N1B N 0.25539(9) 0.25539(9) 1.04350(12) 0.0185 Uani
N2B N 0.34067(9) 0.30020(9) 0.79166(8) 0.0173 Uani
N3B N 0.34343(9) 0.27585(9) 0.84308(9) 0.0196 Uani
C1B C 0.29884(12) 0.22989(13) 1.01713(12) 0.0291 Uani
H1B H 0.3181 0.2007 1.0363 0.0350 Uiso
C2B C 0.31700(13) 0.24450(14) 0.96245(12) 0.0308 Uani
H2B H 0.3474 0.2252 0.9451 0.0370 Uiso
C3B C 0.28867(10) 0.28867(10) 0.93430(14) 0.0209 Uani
C4B C 0.30309(11) 0.30309(11) 0.87380(15) 0.0205 Uani
N2N N 0.30020(9) 0.34067(9) 0.79166(8) 0.0173 Uani
N3N N 0.27585(9) 0.34343(9) 0.84308(9) 0.0196 Uani
C1N C 0.22989(13) 0.29884(12) 1.01713(12) 0.0291 Uani
H1N H 0.2007 0.3181 1.0363 0.0350 Uiso
C2N C 0.24450(14) 0.31700(13) 0.96245(12) 0.0308 Uani
H2N H 0.2252 0.3474 0.9451 0.0370 Uiso
Ni1D Ni 0.28333(2) 0.61353(2) 0.28333(2) 0.0143 Uani
O1D O 0.36068(8) 0.57052(8) 0.27336(9) 0.0247 Uani
N1D N -0.04350(12) 0.74461(9) 0.25539(9) 0.0185 Uani
N2D N 0.20834(8) 0.65933(9) 0.30020(9) 0.0173 Uani
N3D N 0.15692(9) 0.65657(9) 0.27585(9) 0.0196 Uani
C1D C -0.01713(12) 0.70116(12) 0.22989(13) 0.0291 Uani
H1D H -0.0363 0.6819 0.2007 0.0350 Uiso
C2D C 0.03755(12) 0.68300(13) 0.24450(14) 0.0308 Uani
H2D H 0.0549 0.6526 0.2252 0.0370 Uiso
C3D C 0.06570(14) 0.71133(10) 0.28867(10) 0.0209 Uani
C4D C 0.12620(15) 0.69691(11) 0.30309(11) 0.0205 Uani
C5D C 0.41224(11) 0.58776(11) 0.27184(17) 0.0227 Uani
C6D C 0.45739(11) 0.54261(11) 0.26953(19) 0.0281 Uani
C7D C 0.44301(14) 0.48511(14) 0.2682(3) 0.0639 Uani
H3D H 0.4045 0.4745 0.2672 0.0770 Uiso
O1P O 0.57052(8) 0.36068(8) 0.27336(9) 0.0247 Uani
C5F C 0.58776(11) 0.41224(11) 0.27184(17) 0.0227 Uani
C6F C 0.54261(11) 0.45739(11) 0.26953(19) 0.0281 Uani
C7P C 0.48511(14) 0.44301(14) 0.2682(3) 0.0639 Uani
H3P H 0.4745 0.4045 0.2672 0.0770 Uiso
O1R O 0.42948(8) 0.63932(8) 0.27336(9) 0.0247 Uani
C7R C 0.51489(14) 0.55699(14) 0.2682(3) 0.0639 Uani
H3R H 0.5255 0.5955 0.2672 0.0770 Uiso
O1F O 0.63932(8) 0.42948(8) 0.27336(9) 0.0247 Uani
C7F C 0.55699(14) 0.51489(14) 0.2682(3) 0.0639 Uani
H3F H 0.5955 0.5255 0.2672 0.0770 Uiso
N2U N 0.20834(8) 0.69980(9) 0.34067(9) 0.0173 Uani
N3U N 0.15692(9) 0.72415(9) 0.34343(9) 0.0196 Uani
C1U C -0.01713(12) 0.77011(13) 0.29884(12) 0.0291 Uani
H1U H -0.0363 0.7993 0.3181 0.0350 Uiso
C2U C 0.03755(12) 0.75550(14) 0.31700(13) 0.0308 Uani
H2U H 0.0549 0.7748 0.3474 0.0370 Uiso
Ni1E Ni 0.28333(2) 0.38647(2) 0.71667(2) 0.0143 Uani
O1E O 0.36068(8) 0.42948(8) 0.72664(9) 0.0247 Uani
N1E N -0.04350(12) 0.25539(9) 0.74461(9) 0.0185 Uani
N2E N 0.20834(8) 0.34067(9) 0.69980(9) 0.0173 Uani
N3E N 0.15692(9) 0.34343(9) 0.72415(9) 0.0196 Uani
C1E C -0.01713(12) 0.29884(12) 0.77011(13) 0.0291 Uani
H1E H -0.0363 0.3181 0.7993 0.0350 Uiso
C2E C 0.03755(12) 0.31700(13) 0.75550(14) 0.0308 Uani
H2E H 0.0549 0.3474 0.7748 0.0370 Uiso
C3E C 0.06570(14) 0.28867(10) 0.71133(10) 0.0209 Uani
C4E C 0.12620(15) 0.30309(11) 0.69691(11) 0.0205 Uani
C5E C 0.41224(11) 0.41224(11) 0.72816(17) 0.0227 Uani
C6E C 0.45739(11) 0.45739(11) 0.73047(19) 0.0281 Uani
C7E C 0.44301(14) 0.51489(14) 0.7318(3) 0.0639 Uani
H3E H 0.4045 0.5255 0.7328 0.0770 Uiso
O1S O 0.57052(8) 0.63932(8) 0.72664(9) 0.0247 Uani
C5G C 0.58776(11) 0.58776(11) 0.72816(17) 0.0227 Uani
C6G C 0.54261(11) 0.54261(11) 0.73047(19) 0.0281 Uani
C7S C 0.48511(14) 0.55699(14) 0.7318(3) 0.0639 Uani
H3S H 0.4745 0.5955 0.7328 0.0770 Uiso
O1Q O 0.42948(8) 0.36068(8) 0.72664(9) 0.0247 Uani
C7Q C 0.51489(14) 0.44301(14) 0.7318(3) 0.0639 Uani
H3Q H 0.5255 0.4045 0.7328 0.0770 Uiso
O1G O 0.63932(8) 0.57052(8) 0.72664(9) 0.0247 Uani
C7G C 0.55699(14) 0.48511(14) 0.7318(3) 0.0639 Uani
H3G H 0.5955 0.4745 0.7328 0.0770 Uiso
N2T N 0.20834(8) 0.30020(9) 0.65933(9) 0.0173 Uani
N3T N 0.15692(9) 0.27585(9) 0.65657(9) 0.0196 Uani
C1T C -0.01713(12) 0.22989(13) 0.70116(12) 0.0291 Uani
H1T H -0.0363 0.2007 0.6819 0.0350 Uiso
C2T C 0.03755(12) 0.24450(14) 0.68300(13) 0.0308 Uani
H2T H 0.0549 0.2252 0.6526 0.0370 Uiso
Ni1F Ni 0.71667(2) 0.38647(2) 0.28333(2) 0.0143 Uani
N1F N 1.04350(12) 0.25539(9) 0.25539(9) 0.0185 Uani
N2F N 0.79166(8) 0.34067(9) 0.30020(9) 0.0173 Uani
N3F N 0.84308(9) 0.34343(9) 0.27585(9) 0.0196 Uani
C1F C 1.01713(12) 0.29884(12) 0.22989(13) 0.0291 Uani
H1F H 1.0363 0.3181 0.2007 0.0350 Uiso
C2F C 0.96245(12) 0.31700(13) 0.24450(14) 0.0308 Uani
H2F H 0.9451 0.3474 0.2252 0.0370 Uiso
C3F C 0.93430(14) 0.28867(10) 0.28867(10) 0.0209 Uani
C4F C 0.87380(15) 0.30309(11) 0.30309(11) 0.0205 Uani
N2V N 0.79166(8) 0.30020(9) 0.34067(9) 0.0173 Uani
N3V N 0.84308(9) 0.27585(9) 0.34343(9) 0.0196 Uani
C1V C 1.01713(12) 0.22989(13) 0.29884(12) 0.0291 Uani
H1V H 1.0363 0.2007 0.3181 0.0350 Uiso
C2V C 0.96245(12) 0.24450(14) 0.31700(13) 0.0308 Uani
H2V H 0.9451 0.2252 0.3474 0.0370 Uiso
Ni1G Ni 0.71667(2) 0.61353(2) 0.71667(2) 0.0143 Uani
N1G N 1.04350(12) 0.74461(9) 0.74461(9) 0.0185 Uani
N2G N 0.79166(8) 0.65933(9) 0.69980(9) 0.0173 Uani
N3G N 0.84308(9) 0.65657(9) 0.72415(9) 0.0196 Uani
C1G C 1.01713(12) 0.70116(12) 0.77011(13) 0.0291 Uani
H1G H 1.0363 0.6819 0.7993 0.0350 Uiso
C2G C 0.96245(12) 0.68300(13) 0.75550(14) 0.0308 Uani
H2G H 0.9451 0.6526 0.7748 0.0370 Uiso
C3G C 0.93430(14) 0.71133(10) 0.71133(10) 0.0209 Uani
C4G C 0.87380(15) 0.69691(11) 0.69691(11) 0.0205 Uani
N2W N 0.79166(8) 0.69980(9) 0.65933(9) 0.0173 Uani
N3W N 0.84308(9) 0.72415(9) 0.65657(9) 0.0196 Uani
C1W C 1.01713(12) 0.77011(13) 0.70116(12) 0.0291 Uani
H1W H 1.0363 0.7993 0.6819 0.0350 Uiso
C2W C 0.96245(12) 0.75550(14) 0.68300(13) 0.0308 Uani
H2W H 0.9451 0.7748 0.6526 0.0370 Uiso
Ni1A Ni 0.38647(2) 0.71667(2) 0.28333(2) 0.0143 Uani
Ni1C Ni 0.61353(2) 0.71667(2) 0.71667(2) 0.0143 Uani
Ni1H Ni 0.28333(2) 0.28333(2) 0.61353(2) 0.0143 Uani
Ni1I Ni 0.71667(2) 0.28333(2) 0.38647(2) 0.0143 Uani
Ni1J Ni 0.28333(2) 0.71667(2) 0.38647(2) 0.0143 Uani
Ni1K Ni 0.71667(2) 0.71667(2) 0.61353(2) 0.0143 Uani
Ni1X Ni 1.11353(2) 0.78333(2) 0.78333(2) 0.0143 Uani
Ni1Y Ni -0.11353(2) 0.21667(2) 0.78333(2) 0.0143 Uani
Ni1Z Ni -0.11353(2) 0.78333(2) 0.21667(2) 0.0143 Uani
Ni1AA Ni 1.11353(2) 0.21667(2) 0.21667(2) 0.0143 Uani
Ni1HA Ni 0.78333(2) 0.21667(2) -0.11353(2) 0.0143 Uani
Ni1IA Ni 0.21667(2) 0.21667(2) 1.11353(2) 0.0143 Uani
O1L O 0.27336(9) 0.57052(8) 0.36068(8) 0.0247 Uani
O1M O 0.72664(9) 0.42948(8) 0.36068(8) 0.0247 Uani
O1N O 0.27336(9) 0.42948(8) 0.63932(8) 0.0247 Uani
O1O O 0.72664(9) 0.57052(8) 0.63932(8) 0.0247 Uani
O2A O 0.32690(10) 0.67310(10) 0.32690(10) 0.0163 Uani
O2C O 0.67310(10) 0.67310(10) 0.67310(10) 0.0163 Uani
N1BA N 0.45650(12) 0.24461(9) 0.75539(9) 0.0185 Uani
N1EA N 0.54350(12) 0.24461(9) 0.24461(9) 0.0185 Uani
N1FA N 0.75539(9) 0.45650(12) 0.24461(9) 0.0185 Uani
N1GA N 0.24461(9) 0.45650(12) 0.75539(9) 0.0185 Uani
N1HA N 0.75539(9) 0.54350(12) 0.75539(9) 0.0185 Uani
N1IA N 0.24461(9) 0.54350(12) 0.24461(9) 0.0185 Uani
N2L N 0.30020(9) 0.65933(9) 0.20834(8) 0.0173 Uani
N2O N 0.69980(9) 0.65933(9) 0.79166(8) 0.0173 Uani
N2P N 0.65933(9) 0.20834(8) 0.30020(9) 0.0173 Uani
N2Q N 0.34067(9) 0.20834(8) 0.69980(9) 0.0173 Uani
loop_
_atom_site_aniso_label
_atom_site_aniso_U_11
_atom_site_aniso_U_22
_atom_site_aniso_U_33
_atom_site_aniso_U_23
_atom_site_aniso_U_13
_atom_site_aniso_U_12
Ni1 0.01319(19) 0.01488(14) 0.01488(14) -0.00035(16) 0.00068(10) 0.00068(10)
O1 0.0183(8) 0.0377(11) 0.0182(9) -0.0012(8) 0.0053(7) -0.0049(8)
O2 0.0163(8) 0.0163(8) 0.0163(8) 0.0012(9) -0.0012(9) -0.0012(9)
N1 0.0213(9) 0.0213(9) 0.0130(14) -0.0005(8) 0.0005(8) 0.0020(11)
N2 0.0171(9) 0.0202(10) 0.0147(9) -0.0008(8) 0.0011(7) -0.0038(8)
N3 0.0224(10) 0.0209(10) 0.0155(9) -0.0044(8) 0.0025(7) -0.0020(8)
C1 0.0261(13) 0.0408(17) 0.0204(12) -0.0114(11) 0.0042(10) -0.0105(12)
C2 0.0306(15) 0.0411(16) 0.0208(13) -0.0091(11) 0.0088(11) -0.0149(13)
C3 0.0221(10) 0.0221(10) 0.0186(15) 0.0006(9) -0.0006(9) 0.0027(14)
C4 0.0220(10) 0.0220(10) 0.0174(16) -0.0010(9) 0.0010(9) 0.0010(13)
C5 0.0186(10) 0.031(2) 0.0186(10) 0.0011(10) -0.0010(13) -0.0011(10)
C6 0.0176(10) 0.049(3) 0.0176(10) 0.0021(11) 0.0015(13) -0.0021(11)
C7 0.0219(15) 0.150(5) 0.0197(15) -0.008(2) 0.0024(12) -0.007(2)
O1T 0.0182 0.0377 0.0183 -0.0049 0.0053 -0.0012
C5B 0.0186 0.031 0.0186 -0.0011 -0.001 0.0011
C6B 0.0176 0.049 0.0176 -0.0021 0.0015 0.0021
C7T 0.0197 0.15 0.0219 -0.007 0.0024 -0.008
O1V 0.0182 0.0377 0.0183 0.0049 0.0053 0.0012
C7V 0.0197 0.15 0.0219 0.007 0.0024 0.008
O1B 0.0183 0.0377 0.0182 0.0012 0.0053 0.0049
C7B 0.0219 0.15 0.0197 0.008 0.0024 0.007
N2M 0.0202 0.0171 0.0147 -0.0011 0.0008 -0.0038
N3M 0.0209 0.0224 0.0155 -0.0025 0.0044 -0.002
C1M 0.0408 0.0261 0.0204 -0.0042 0.0114 -0.0105
C2M 0.0411 0.0306 0.0208 -0.0088 0.0091 -0.0149
Ni1B 0.01319 0.01488 0.01488 0.00035 0.00068 -0.00068
O2B 0.0163 0.0163 0.0163 -0.0012 -0.0012 0.0012
N1B 0.0213 0.0213 0.013 0.0005 0.0005 -0.002
N2B 0.0171 0.0202 0.0147 0.0008 0.0011 0.0038
N3B 0.0224 0.0209 0.0155 0.0044 0.0025 0.002
C1B 0.0261 0.0408 0.0204 0.0114 0.0042 0.0105
C2B 0.0306 0.0411 0.0208 0.0091 0.0088 0.0149
C3B 0.0221 0.0221 0.0186 -0.0006 -0.0006 -0.0027
C4B 0.022 0.022 0.0174 0.001 0.001 -0.001
N2N 0.0202 0.0171 0.0147 0.0011 0.0008 0.0038
N3N 0.0209 0.0224 0.0155 0.0025 0.0044 0.002
C1N 0.0408 0.0261 0.0204 0.0042 0.0114 0.0105
C2N 0.0411 0.0306 0.0208 0.0088 0.0091 0.0149
Ni1D 0.01488 0.01319 0.01488 0.00068 -0.00035 0.00068
O1D 0.0182 0.0183 0.0377 -0.0049 -0.0012 0.0053
N1D 0.013 0.0213 0.0213 0.002 -0.0005 0.0005
N2D 0.0147 0.0171 0.0202 -0.0038 -0.0008 0.0011
N3D 0.0155 0.0224 0.0209 -0.002 -0.0044 0.0025
C1D 0.0204 0.0261 0.0408 -0.0105 -0.0114 0.0042
C2D 0.0208 0.0306 0.0411 -0.0149 -0.0091 0.0088
C3D 0.0186 0.0221 0.0221 0.0027 0.0006 -0.0006
C4D 0.0174 0.022 0.022 0.001 -0.001 0.001
C5D 0.0186 0.0186 0.031 -0.0011 0.0011 -0.001
C6D 0.0176 0.0176 0.049 -0.0021 0.0021 0.0015
C7D 0.0197 0.0219 0.15 -0.007 -0.008 0.0024
O1P 0.0183 0.0182 0.0377 -0.0012 -0.0049 0.0053
C5F 0.0186 0.0186 0.031 0.0011 -0.0011 -0.001
C6F 0.0176 0.0176 0.049 0.0021 -0.0021 0.0015
C7P 0.0219 0.0197 0.15 -0.008 -0.007 0.0024
O1R 0.0183 0.0182 0.0377 0.0012 0.0049 0.0053
C7R 0.0219 0.0197 0.15 0.008 0.007 0.0024
O1F 0.0182 0.0183 0.0377 0.0049 0.0012 0.0053
C7F 0.0197 0.0219 0.15 0.007 0.008 0.0024
N2U 0.0147 0.0202 0.0171 -0.0038 -0.0011 0.0008
N3U 0.0155 0.0209 0.0224 -0.002 -0.0025 0.0044
C1U 0.0204 0.0408 0.0261 -0.0105 -0.0042 0.0114
C2U 0.0208 0.0411 0.0306 -0.0149 -0.0088 0.0091
Ni1E 0.01488 0.01319 0.01488 0.00068 0.00035 -0.00068
O1E 0.0182 0.0183 0.0377 -0.0049 0.0012 -0.0053
N1E 0.013 0.0213 0.0213 0.002 0.0005 -0.0005
N2E 0.0147 0.0171 0.0202 -0.0038 0.0008 -0.0011
N3E 0.0155 0.0224 0.0209 -0.002 0.0044 -0.0025
C1E 0.0204 0.0261 0.0408 -0.0105 0.0114 -0.0042
C2E 0.0208 0.0306 0.0411 -0.0149 0.0091 -0.0088
C3E 0.0186 0.0221 0.0221 0.0027 -0.0006 0.0006
C4E 0.0174 0.022 0.022 0.001 0.001 -0.001
C5E 0.0186 0.0186 0.031 -0.0011 -0.0011 0.001
C6E 0.0176 0.0176 0.049 -0.0021 -0.0021 -0.0015
C7E 0.0197 0.0219 0.15 -0.007 0.008 -0.0024
O1S 0.0183 0.0182 0.0377 -0.0012 0.0049 -0.0053
C5G 0.0186 0.0186 0.031 0.0011 0.0011 0.001
C6G 0.0176 0.0176 0.049 0.0021 0.0021 -0.0015
C7S 0.0219 0.0197 0.15 -0.008 0.007 -0.0024
O1Q 0.0183 0.0182 0.0377 0.0012 -0.0049 -0.0053
C7Q 0.0219 0.0197 0.15 0.008 -0.007 -0.0024
O1G 0.0182 0.0183 0.0377 0.0049 -0.0012 -0.0053
C7G 0.0197 0.0219 0.15 0.007 -0.008 -0.0024
N2T 0.0147 0.0202 0.0171 -0.0038 0.0011 -0.0008
N3T 0.0155 0.0209 0.0224 -0.002 0.0025 -0.0044
C1T 0.0204 0.0408 0.0261 -0.0105 0.0042 -0.0114
C2T 0.0208 0.0411 0.0306 -0.0149 0.0088 -0.0091
Ni1F 0.01488 0.01319 0.01488 -0.00068 0.00035 0.00068
N1F 0.013 0.0213 0.0213 -0.002 0.0005 0.0005
N2F 0.0147 0.0171 0.0202 0.0038 0.0008 0.0011
N3F 0.0155 0.0224 0.0209 0.002 0.0044 0.0025
C1F 0.0204 0.0261 0.0408 0.0105 0.0114 0.0042
C2F 0.0208 0.0306 0.0411 0.0149 0.0091 0.0088
C3F 0.0186 0.0221 0.0221 -0.0027 -0.0006 -0.0006
C4F 0.0174 0.022 0.022 -0.001 0.001 0.001
N2V 0.0147 0.0202 0.0171 0.0038 0.0011 0.0008
N3V 0.0155 0.0209 0.0224 0.002 0.0025 0.0044
C1V 0.0204 0.0408 0.0261 0.0105 0.0042 0.0114
C2V 0.0208 0.0411 0.0306 0.0149 0.0088 0.0091
Ni1G 0.01488 0.01319 0.01488 -0.00068 -0.00035 -0.00068
N1G 0.013 0.0213 0.0213 -0.002 -0.0005 -0.0005
N2G 0.0147 0.0171 0.0202 0.0038 -0.0008 -0.0011
N3G 0.0155 0.0224 0.0209 0.002 -0.0044 -0.0025
C1G 0.0204 0.0261 0.0408 0.0105 -0.0114 -0.0042
C2G 0.0208 0.0306 0.0411 0.0149 -0.0091 -0.0088
C3G 0.0186 0.0221 0.0221 -0.0027 0.0006 0.0006
C4G 0.0174 0.022 0.022 -0.001 -0.001 -0.001
N2W 0.0147 0.0202 0.0171 0.0038 -0.0011 -0.0008
N3W 0.0155 0.0209 0.0224 0.002 -0.0025 -0.0044
C1W 0.0204 0.0408 0.0261 0.0105 -0.0042 -0.0114
C2W 0.0208 0.0411 0.0306 0.0149 -0.0088 -0.0091
Ni1A 0.01319 0.01488 0.01488 0.00035 -0.00068 0.00068
Ni1C 0.01319 0.01488 0.01488 -0.00035 -0.00068 -0.00068
Ni1H 0.01488 0.01488 0.01319 0.00068 0.00068 -0.00035
Ni1I 0.01488 0.01488 0.01319 -0.00068 0.00068 0.00035
Ni1J 0.01488 0.01488 0.01319 0.00068 -0.00068 0.00035
Ni1K 0.01488 0.01488 0.01319 -0.00068 -0.00068 -0.00035
Ni1X 0.01319 0.01488 0.01488 -0.00035 0.00068 0.00068
Ni1Y 0.01319 0.01488 0.01488 0.00035 -0.00068 0.00068
Ni1Z 0.01319 0.01488 0.01488 0.00035 0.00068 -0.00068
Ni1AA 0.01319 0.01488 0.01488 -0.00035 -0.00068 -0.00068
Ni1HA 0.01488 0.01488 0.01319 0.00068 -0.00068 0.00035
Ni1IA 0.01488 0.01488 0.01319 -0.00068 -0.00068 -0.00035
O1L 0.0377 0.0183 0.0182 0.0053 -0.0012 -0.0049
O1M 0.0377 0.0183 0.0182 -0.0053 0.0012 -0.0049
O1N 0.0377 0.0183 0.0182 0.0053 0.0012 0.0049
O1O 0.0377 0.0183 0.0182 -0.0053 -0.0012 0.0049
O2A 0.0163 0.0163 0.0163 -0.0012 0.0012 -0.0012
O2C 0.0163 0.0163 0.0163 0.0012 0.0012 0.0012
N1BA 0.013 0.0213 0.0213 0.002 -0.0005 0.0005
N1EA 0.013 0.0213 0.0213 -0.002 -0.0005 -0.0005
N1FA 0.0213 0.013 0.0213 0.0005 0.002 -0.0005
N1GA 0.0213 0.013 0.0213 -0.0005 0.002 0.0005
N1HA 0.0213 0.013 0.0213 0.0005 -0.002 0.0005
N1IA 0.0213 0.013 0.0213 -0.0005 -0.002 -0.0005
N2L 0.0202 0.0171 0.0147 0.0011 -0.0008 -0.0038
N2O 0.0202 0.0171 0.0147 -0.0011 -0.0008 0.0038
N2P 0.0171 0.0147 0.0202 -0.0008 -0.0038 0.0011
N2Q 0.0171 0.0147 0.0202 0.0008 -0.0038 -0.0011
loop_
_geom_bond_atom_site_label_1
_geom_bond_atom_site_label_2
_geom_bond_site_symmetry_1
_geom_bond_site_symmetry_2
Ni1 O1 1_555 1_555
O1 C5 1_555 1_555
O2 Ni1 1_555 1_555
N1 C1 1_555 1_555
N2 Ni1 1_555 1_555
N3 N2 1_555 1_555
C1 H1 1_555 1_555
C2 C1 1_555 1_555
H2 C2 1_555 1_555
C3 C2 1_555 1_555
C4 N3 1_555 1_555
C5 C6 1_555 1_555
C6 C7 1_555 1_555
C7 H3 1_555 1_555
O1T C5B 1_555 1_555
C5B C6B 1_555 1_555
C6B C7T 1_555 1_555
C7T C7 1_555 1_555
H3T C7T 1_555 1_555
O1V C5 1_555 1_555
C7V C6 1_555 1_555
H3V C7V 1_555 1_555
O1B C5B 1_555 1_555
C7B C6B 1_555 1_555
H3B C7B 1_555 1_555
N2M N2 1_555 1_555
N3M C4 1_555 1_555
C1M N1 1_555 1_555
H1M C1M 1_555 1_555
C2M C3 1_555 1_555
H2M C2M 1_555 1_555
Ni1B O1B 1_555 1_555
O2B Ni1B 1_555 1_555
N1B C1B 1_555 1_555
N2B Ni1B 1_555 1_555
N3B N2B 1_555 1_555
C1B H1B 1_555 1_555
C2B C1B 1_555 1_555
H2B C2B 1_555 1_555
C3B C2B 1_555 1_555
C4B N3B 1_555 1_555
N2N N2B 1_555 1_555
N3N C4B 1_555 1_555
C1N N1B 1_555 1_555
H1N C1N 1_555 1_555
C2N C3B 1_555 1_555
H2N C2N 1_555 1_555
Ni1D O1D 1_555 1_555
O1D C5D 1_555 1_555
N1D C1D 1_555 1_555
N2D Ni1D 1_555 1_555
N3D N2D 1_555 1_555
C1D H1D 1_555 1_555
C2D C1D 1_555 1_555
H2D C2D 1_555 1_555
C3D C2D 1_555 1_555
C4D N3D 1_555 1_555
C5D C6D 1_555 1_555
C6D C7D 1_555 1_555
C7D H3D 1_555 1_555
O1P Ni1 1_555 1_555
C5F O1P 1_555 1_555
C6F C5F 1_555 1_555
C7P C7D 1_555 1_555
H3P C7P 1_555 1_555
O1R C5D 1_555 1_555
C7R C6D 1_555 1_555
H3R C7R 1_555 1_555
O1F C5F 1_555 1_555
C7F C6F 1_555 1_555
H3F C7F 1_555 1_555
N2U N2D 1_555 1_555
N3U C4D 1_555 1_555
C1U N1D 1_555 1_555
H1U C1U 1_555 1_555
C2U C3D 1_555 1_555
H2U C2U 1_555 1_555
Ni1E O2B 1_555 1_555
O1E Ni1E 1_555 1_555
N1E C1E 1_555 1_555
N2E Ni1E 1_555 1_555
N3E N2E 1_555 1_555
C1E H1E 1_555 1_555
C2E C1E 1_555 1_555
H2E C2E 1_555 1_555
C3E C2E 1_555 1_555
C4E N3E 1_555 1_555
C5E O1E 1_555 1_555
C6E C5E 1_555 1_555
C7E C6E 1_555 1_555
H3E C7E 1_555 1_555
O1S C5G 1_555 1_555
C5G C6G 1_555 1_555
C6G C7S 1_555 1_555
C7S C7E 1_555 1_555
H3S C7S 1_555 1_555
O1Q Ni1B 1_555 1_555
C7Q C6E 1_555 1_555
H3Q C7Q 1_555 1_555
O1G C5G 1_555 1_555
C7G C6G 1_555 1_555
H3G C7G 1_555 1_555
N2T N2E 1_555 1_555
N3T C4E 1_555 1_555
C1T N1E 1_555 1_555
H1T C1T 1_555 1_555
C2T C3E 1_555 1_555
H2T C2T 1_555 1_555
Ni1F O2 1_555 1_555
N1F C1F 1_555 1_555
N2F Ni1F 1_555 1_555
N3F N2F 1_555 1_555
C1F H1F 1_555 1_555
C2F C1F 1_555 1_555
H2F C2F 1_555 1_555
C3F C2F 1_555 1_555
C4F N3F 1_555 1_555
N2V N2F 1_555 1_555
N3V C4F 1_555 1_555
C1V N1F 1_555 1_555
H1V C1V 1_555 1_555
C2V C3F 1_555 1_555
H2V C2V 1_555 1_555
Ni1G O1G 1_555 1_555
N1G C1G 1_555 1_555
N2G Ni1G 1_555 1_555
N3G N2G 1_555 1_555
C1G H1G 1_555 1_555
C2G C1G 1_555 1_555
H2G C2G 1_555 1_555
C3G C2G 1_555 1_555
C4G N3G 1_555 1_555
N2W N2G 1_555 1_555
N3W C4G 1_555 1_555
C1W N1G 1_555 1_555
H1W C1W 1_555 1_555
C2W C3G 1_555 1_555
H2W C2W 1_555 1_555
Ni1A O1R 1_555 1_555
Ni1C O1S 1_555 1_555
Ni1H O1T 1_555 1_555
Ni1I O2 1_555 1_555
Ni1J N2U 1_555 1_555
Ni1K N2W 1_555 1_555
Ni1X N1G 1_555 1_555
Ni1Y N1E 1_555 1_555
Ni1Z N1D 1_555 1_555
Ni1AA N1F 1_555 1_555
Ni1HA N1 1_555 1_555
Ni1IA N1B 1_555 1_555
O1L Ni1D 1_555 1_555
O1M Ni1F 1_555 1_555
O1N Ni1E 1_555 1_555
O1O Ni1G 1_555 1_555
O2A Ni1D 1_555 1_555
O2C Ni1G 1_555 1_555
N1BA Ni1B 1_555 1_555
N1EA Ni1 1_555 1_555
N1FA Ni1F 1_555 1_555
N1GA Ni1E 1_555 1_555
N1HA Ni1G 1_555 1_555
N1IA Ni1D 1_555 1_555
N2L Ni1D 1_555 1_555
N2O Ni1G 1_555 1_555
N2P Ni1 1_555 1_555
N2Q Ni1B 1_555 1_555
C3 C4 1_555 1_555
O1V Ni1I 1_555 1_555
C7V C7B 1_555 1_555
N2M N3M 1_555 1_555
N2M Ni1F 1_555 1_555
C1M C2M 1_555 1_555
O2B Ni1H 1_555 1_555
C3B C4B 1_555 1_555
N2N N3N 1_555 1_555
N2N Ni1E 1_555 1_555
C1N C2N 1_555 1_555
C3D C4D 1_555 1_555
C6F C7P 1_555 1_555
C7R C7F 1_555 1_555
O1F Ni1F 1_555 1_555
N2U N3U 1_555 1_555
C1U C2U 1_555 1_555
C3E C4E 1_555 1_555
C5E O1Q 1_555 1_555
C7Q C7G 1_555 1_555
N2T N3T 1_555 1_555
N2T Ni1H 1_555 1_555
C1T C2T 1_555 1_555
C3F C4F 1_555 1_555
N2V N3V 1_555 1_555
N2V Ni1I 1_555 1_555
C1V C2V 1_555 1_555
C3G C4G 1_555 1_555
N2W N3W 1_555 1_555
C1W C2W 1_555 1_555
Ni1A O2A 1_555 1_555
Ni1C O2C 1_555 1_555
Ni1J O2A 1_555 1_555
Ni1K O2C 1_555 1_555

#END
