
#######################################################################
#
#                 Cambridge Crystallographic Data Centre
#                                CCDC 
#
#######################################################################
#
# If this CIF has been generated from an entry in the Cambridge 
# Structural Database, then it will include bibliographic, chemical, 
# crystal, experimental, refinement or atomic coordinate data resulting 
# from the CCDC's data processing and validation procedures.
#
#######################################################################

data_RUBBOH
_chemical_formula_moiety         'C42 H26 O20 Zn10'
_symmetry_cell_setting           monoclinic
_symmetry_space_group_name_H-M   'C 2/m'
_symmetry_Int_Tables_number      12
_space_group_name_Hall           '-C 2y'
loop_
_symmetry_equiv_pos_site_id
_symmetry_equiv_pos_as_xyz
1 x,y,z
2 -x,y,-z
3 1/2+x,1/2+y,z
4 1/2-x,1/2+y,-z
5 -x,-y,-z
6 x,-y,z
7 1/2-x,1/2-y,-z
8 1/2+x,1/2-y,z
_cell_length_a                   24.117(2)
_cell_length_b                   24.219(2)
_cell_length_c                   17.0669(17)
_cell_angle_alpha                90
_cell_angle_beta                 92.381(2)
_cell_angle_gamma                90
_cell_volume                     9959.99
loop_
_atom_site_label
_atom_site_type_symbol
_atom_site_fract_x
_atom_site_fract_y
_atom_site_fract_z
O9 O 0.296(3) -0.0000 0.097(4)
Zn1 Zn 0.08053(4) -0.0000 0.18583(6)
Zn2 Zn 0.14857(4) 0.06505(4) 0.31698(5)
Zn3 Zn 0.21218(5) -0.0000 0.18617(8)
O1 O 0.1472(2) -0.0000 0.2513(3)
O2 O 0.0325(2) 0.0628(2) 0.2023(4)
O3 O 0.0811(3) 0.1070(3) 0.2966(4)
O4 O -0.2461(4) 0.4333(4) 0.2092(6)
O5 O -0.2886(3) 0.3878(3) 0.3045(5)
O6 O 0.0878(4) -0.0000 0.0749(5)
O7 O 0.1834(6) -0.0000 0.0807(6)
O8 O 0.1481(3) 0.0470(3) -0.5744(4)
C1 C 0.0395(4) 0.1000(4) 0.2485(6)
C2 C -0.0036(3) 0.1441(3) 0.2492(5)
C3 C 0.0016(3) 0.1874(4) 0.3024(4)
H1 H 0.0326 0.1888 0.3387
C4 C -0.0385(4) 0.2286(3) 0.3027(5)
H2 H -0.0350 0.2582 0.3391
C5 C -0.0838(3) 0.2266(3) 0.2497(6)
C6 C -0.0890(3) 0.1833(4) 0.1965(4)
H3 H -0.1200 0.1818 0.1603
C7 C -0.0489(4) 0.1420(3) 0.1962(4)
H4 H -0.0525 0.1125 0.1598
C8 C -0.1241(4) 0.2724(4) 0.2547(7)
C9 C -0.1659(5) 0.2692(4) 0.3082(5)
H5 H -0.1660 0.2398 0.3451
C10 C -0.2076(4) 0.3088(5) 0.3076(5)
H6 H -0.2362 0.3066 0.3442
C11 C -0.2075(4) 0.3518(4) 0.2536(7)
C12 C -0.1657(5) 0.3550(4) 0.2001(6)
H7 H -0.1656 0.3844 0.1632
C13 C -0.1240(4) 0.3154(5) 0.2007(6)
H8 H -0.0954 0.3176 0.1641
C14 C -0.2485(6) 0.3972(7) 0.2615(9)
C15 C 0.1288(9) 0.0000 0.0464(10)
C16 C 0.1354(6) 0.0000 -0.0411(8)
C17 C 0.1855(6) 0.0000 -0.0765(8)
H9 H 0.2186 0.0000 -0.0443
C18 C 0.1898(6) 0.0000 -0.1565(8)
H10 H 0.2250 0.0000 -0.1793
C19 C 0.1416(6) 0.0000 -0.2029(7)
C20 C 0.0913(5) 0.0000 -0.1678(7)
H11 H 0.0580 0.0000 -0.1996
C21 C 0.0884(5) 0.0000 -0.0880(6)
H12 H 0.0532 0.0000 -0.0650
C22 C 0.1481(7) 0.0000 -0.2899(10)
C23 C 0.1505(7) 0.0466(7) -0.3312(7)
H13 H 0.1515 0.0809 -0.3040
C24 C 0.1516(6) 0.0470(6) -0.4091(7)
H14 H 0.1546 0.0813 -0.4356
C25 C 0.1487(6) 0.0000 -0.4512(8)
C26 C 0.1497(6) 0.0000 -0.5391(9)
O8E O 0.1481(3) -0.0470(3) -0.5744(4)
C23E C 0.1505(7) -0.0466(7) -0.3312(7)
H13E H 0.1515 -0.0809 -0.3040
C24E C 0.1516(6) -0.0470(6) -0.4091(7)
H14E H 0.1546 -0.0813 -0.4356
Zn2E Zn 0.14857(4) -0.06505(4) 0.31698(5)
O2E O 0.0325(2) -0.0628(2) 0.2023(4)
O3E O 0.0811(3) -0.1070(3) 0.2966(4)
O4E O -0.2461(4) -0.4333(4) 0.2092(6)
O5E O -0.2886(3) -0.3878(3) 0.3045(5)
C1E C 0.0395(4) -0.1000(4) 0.2485(6)
C2E C -0.0036(3) -0.1441(3) 0.2492(5)
C3E C 0.0016(3) -0.1874(4) 0.3024(4)
H1E H 0.0326 -0.1888 0.3387
C4E C -0.0385(4) -0.2286(3) 0.3027(5)
H2E H -0.0350 -0.2582 0.3391
C5E C -0.0838(3) -0.2266(3) 0.2497(6)
C6E C -0.0890(3) -0.1833(4) 0.1965(4)
H3E H -0.1200 -0.1818 0.1603
C7E C -0.0489(4) -0.1420(3) 0.1962(4)
H4E H -0.0525 -0.1125 0.1598
C8E C -0.1241(4) -0.2724(4) 0.2547(7)
C9E C -0.1659(5) -0.2692(4) 0.3082(5)
H5E H -0.1660 -0.2398 0.3451
C10E C -0.2076(4) -0.3088(5) 0.3076(5)
H6E H -0.2362 -0.3066 0.3442
C11E C -0.2075(4) -0.3518(4) 0.2536(7)
C12E C -0.1657(5) -0.3550(4) 0.2001(6)
H7E H -0.1656 -0.3844 0.1632
C13E C -0.1240(4) -0.3154(5) 0.2007(6)
H8E H -0.0954 -0.3176 0.1641
C14E C -0.2485(6) -0.3972(7) 0.2615(9)
Zn2_2 Zn 0.14857(4) 0.06505(4) -0.68302(5)
Zn2B Zn -0.35143(4) -0.43495(4) 0.31698(5)
Zn2E_2 Zn 0.14857(4) -0.06505(4) -0.68302(5)
Zn2G Zn -0.35143(4) 0.43495(4) 0.31698(5)
Zn3B Zn -0.28782(5) -0.5000 0.18617(8)
Zn3B_2 Zn -0.28782(5) 0.5000 0.18617(8)
O4B O 0.2539(4) -0.0667(4) 0.2092(6)
O4G O 0.2539(4) 0.0667(4) 0.2092(6)
O5B O 0.2114(3) -0.1122(3) 0.3045(5)
O5G O 0.2114(3) 0.1122(3) 0.3045(5)
O8_2 O 0.1481(3) 0.0470(3) 0.4256(4)
O8E_2 O 0.1481(3) -0.0470(3) 0.4256(4)
loop_
_geom_bond_atom_site_label_1
_geom_bond_atom_site_label_2
_geom_bond_site_symmetry_1
_geom_bond_site_symmetry_2
Zn1 O1 1_555 1_555
Zn2 O1 1_555 1_555
Zn3 O1 1_555 1_555
O1 Zn2E 1_555 1_555
O2 Zn1 1_555 1_555
O3 Zn2 1_555 1_555
O4 C14 1_555 1_555
O5 C14 1_555 1_555
O6 Zn1 1_555 1_555
O7 Zn3 1_555 1_555
O8 C26 1_555 1_555
C1 O2 1_555 1_555
C2 C1 1_555 1_555
C3 C2 1_555 1_555
H1 C3 1_555 1_555
C4 C3 1_555 1_555
H2 C4 1_555 1_555
C5 C4 1_555 1_555
C6 C5 1_555 1_555
H3 C6 1_555 1_555
C7 C2 1_555 1_555
H4 C7 1_555 1_555
C8 C5 1_555 1_555
C9 C8 1_555 1_555
H5 C9 1_555 1_555
C10 C9 1_555 1_555
H6 C10 1_555 1_555
C11 C10 1_555 1_555
C12 C11 1_555 1_555
H7 C12 1_555 1_555
C13 C8 1_555 1_555
H8 C13 1_555 1_555
C14 C11 1_555 1_555
C15 O6 1_555 1_555
C16 C15 1_555 1_555
C17 C16 1_555 1_555
H9 C17 1_555 1_555
C18 C17 1_555 1_555
H10 C18 1_555 1_555
C19 C18 1_555 1_555
C20 C19 1_555 1_555
H11 C20 1_555 1_555
C21 C16 1_555 1_555
H12 C21 1_555 1_555
C22 C19 1_555 1_555
C23 C22 1_555 1_555
H13 C23 1_555 1_555
C24 C23 1_555 1_555
H14 C24 1_555 1_555
C25 C24 1_555 1_555
C26 C25 1_555 1_555
O8E C26 1_555 1_555
C23E C22 1_555 1_555
H13E C23E 1_555 1_555
C24E C25 1_555 1_555
H14E C24E 1_555 1_555
Zn2E O3E 1_555 1_555
O2E Zn1 1_555 1_555
O3E C1E 1_555 1_555
O4E C14E 1_555 1_555
O5E C14E 1_555 1_555
C1E O2E 1_555 1_555
C2E C1E 1_555 1_555
C3E C2E 1_555 1_555
H1E C3E 1_555 1_555
C4E C3E 1_555 1_555
H2E C4E 1_555 1_555
C5E C4E 1_555 1_555
C6E C5E 1_555 1_555
H3E C6E 1_555 1_555
C7E C2E 1_555 1_555
H4E C7E 1_555 1_555
C8E C5E 1_555 1_555
C9E C8E 1_555 1_555
H5E C9E 1_555 1_555
C10E C9E 1_555 1_555
H6E C10E 1_555 1_555
C11E C10E 1_555 1_555
C12E C11E 1_555 1_555
H7E C12E 1_555 1_555
C13E C8E 1_555 1_555
H8E C13E 1_555 1_555
C14E C11E 1_555 1_555
Zn2_2 O8 1_555 1_555
Zn2B O5E 1_555 1_555
Zn2E_2 O8E 1_555 1_555
Zn2G O5 1_555 1_555
Zn3B O4E 1_555 1_555
Zn3B_2 O4 1_555 1_555
O4B Zn3 1_555 1_555
O4G Zn3 1_555 1_555
O5B Zn2E 1_555 1_555
O5G Zn2 1_555 1_555
O8_2 Zn2 1_555 1_555
O8E_2 Zn2E 1_555 1_555
O3 C1 1_555 1_555
O7 C15 1_555 1_555
C6 C7 1_555 1_555
C12 C13 1_555 1_555
C20 C21 1_555 1_555
C23E C24E 1_555 1_555
C6E C7E 1_555 1_555
C12E C13E 1_555 1_555

#END
