
#######################################################################
#
#                 Cambridge Crystallographic Data Centre
#                                CCDC 
#
#######################################################################
#
# If this CIF has been generated from an entry in the Cambridge 
# Structural Database, then it will include bibliographic, chemical, 
# crystal, experimental, refinement or atomic coordinate data resulting 
# from the CCDC's data processing and validation procedures.
#
#######################################################################

data_KUNSAP
_chemical_formula_moiety         '(C54 H30 In3 N6 O24)n'
_symmetry_cell_setting           orthorhombic
_symmetry_space_group_name_H-M   'I b c a'
_symmetry_Int_Tables_number      73
_space_group_name_Hall           '-I 2b 2c'
loop_
_symmetry_equiv_pos_site_id
_symmetry_equiv_pos_as_xyz
1 x,y,z
2 1/2-x,-y,1/2+z
3 -x,1/2+y,1/2-z
4 1/2+x,1/2-y,-z
5 1/2+x,1/2+y,1/2+z
6 -x,1/2-y,z
7 1/2-x,y,-z
8 x,-y,1/2-z
9 -x,-y,-z
10 1/2+x,y,1/2-z
11 x,1/2-y,1/2+z
12 1/2-x,1/2+y,z
13 1/2-x,1/2-y,1/2-z
14 x,1/2+y,-z
15 1/2+x,-y,z
16 -x,y,1/2+z
_cell_length_a                   32.092(18)
_cell_length_b                   34.184
_cell_length_c                   34.184(19)
_cell_angle_alpha                90
_cell_angle_beta                 90
_cell_angle_gamma                90
_cell_volume                     37501
loop_
_atom_site_label
_atom_site_type_symbol
_atom_site_fract_x
_atom_site_fract_y
_atom_site_fract_z
_atom_site_U_iso_or_equiv
_atom_site_thermal_displace_type
In1 In 0.96633(8) 0.89604(7) 0.37722(7) 0.1240 Uani
In2 In 1.10258(8) 0.85720(8) 0.47708(7) 0.1320 Uani
In3 In 1.12340(9) 0.96138(7) 0.60536(8) 0.1430 Uani
N1 N 0.7308(6) 0.7668(6) 0.3063(4) 0.1180 Uiso
H1 H 0.7407 0.7587 0.3289 0.1420 Uiso
N2 N 0.6843(4) 0.7609(5) 0.2567(6) 0.1070 Uiso
H2 H 0.6630 0.7489 0.2458 0.1280 Uiso
N3 N 0.7334(6) 0.8086(4) 0.2552(6) 0.1190 Uiso
H3 H 0.7450 0.8288 0.2434 0.1430 Uiso
N4 N 1.1666(7) 0.8752(5) 0.1909(6) 0.1270 Uiso
H4 H 1.1700 0.8945 0.2077 0.1530 Uiso
N5 N 1.1853(6) 0.8443(7) 0.1352(5) 0.1500 Uiso
H5 H 1.2012 0.8428 0.1143 0.1800 Uiso
N6 N 1.1329(5) 0.8204(6) 0.1724(7) 0.1360 Uiso
H6 H 1.1136 0.8026 0.1767 0.1630 Uiso
O1 O 0.9839(5) 0.8550(5) 0.4261(5) 0.1100 Uiso
O2 O 1.0249(5) 0.9230(6) 0.4039(5) 0.1300 Uiso
O3 O 1.0365(5) 0.8407(5) 0.4625(5) 0.1110 Uiso
O4 O 1.0760(5) 0.9028(5) 0.4399(5) 0.1060 Uiso
O5 O 0.9131(7) 0.8521(5) 0.3747(6) 0.1490 Uiso
O6 O 0.9126(7) 0.8976(6) 0.3315(5) 0.1560 Uiso
O7 O 1.0684(6) 1.0712(6) 0.5797(5) 0.1340 Uiso
O8 O 1.0359(6) 1.0401(6) 0.6473(6) 0.1320 Uiso
O9 O 1.1044(6) 1.0119(7) 0.5675(6) 0.1670 Uiso
O10 O 1.0750(7) 0.9866(7) 0.6426(5) 0.1700 Uiso
O11 O 0.6169(6) 0.5875(7) 0.3436(5) 0.1530 Uiso
O12 O 0.6639(6) 0.5931(6) 0.3884(6) 0.1560 Uiso
O13 O 1.0062(6) 0.8876(6) 0.3360(5) 0.1280 Uiso
O14 O 1.0098(9) 0.8226(10) 0.3371(9) 0.2710 Uiso
O15 O 1.1665(10) 0.6872(10) 0.0040(9) 0.2640 Uiso
O16 O 1.0980(8) 0.6940(8) 0.0184(7) 0.1930 Uiso
O17 O 1.3308(7) 0.9997(7) 0.1098(7) 0.1680 Uiso
O18 O 1.3309(8) 1.0073(8) 0.1787(8) 0.2000 Uiso
O19 O 0.6550(5) 0.8648(5) 0.0686(5) 0.1310 Uiso
O20 O 0.6102(7) 0.8182(5) 0.0742(7) 0.1780 Uiso
O21 O 1.0673(6) 0.8853(6) 0.5291(5) 0.1330 Uiso
O22 O 1.1439(6) 0.9045(5) 0.4979(6) 0.1440 Uiso
O23 O 1.1524(6) 0.9481(5) 0.5433(5) 0.1270 Uiso
O24 O 1.0777(5) 0.9256(5) 0.5767(5) 0.1110 Uiso
C1 C 1.0203(8) 0.8610(7) 0.4365(7) 0.0860 Uiso
C2 C 1.0427(9) 0.8991(7) 0.4235(8) 0.1170 Uiso
C3 C 0.8968(8) 0.8677(10) 0.3453(10) 0.1580 Uiso
C4 C 0.8543(7) 0.8510(7) 0.3362(8) 0.1150 Uiso
C5 C 0.8376(7) 0.8187(7) 0.3543(6) 0.1150 Uiso
H7 H 0.8513 0.8074 0.3762 0.1380 Uiso
C6 C 0.8010(7) 0.8026(6) 0.3408(7) 0.1150 Uiso
H8 H 0.7883 0.7815 0.3545 0.1380 Uiso
C7 C 0.7830(6) 0.8170(7) 0.3077(8) 0.1150 Uiso
C8 C 0.8015(7) 0.8472(7) 0.2879(6) 0.1150 Uiso
H9 H 0.7904 0.8555 0.2635 0.1380 Uiso
C9 C 0.8359(8) 0.8654(6) 0.3031(7) 0.1150 Uiso
H10 H 0.8470 0.8879 0.2907 0.1380 Uiso
C10 C 0.7478(4) 0.7965(6) 0.2887(6) 0.0800 Uiso
C11 C 0.6987(6) 0.7487(5) 0.2903(6) 0.1590 Uiso
C12 C 0.6813(7) 0.7135(5) 0.3108(7) 0.1260 Uiso
C13 C 0.6982(5) 0.7004(7) 0.3461(7) 0.1260 Uiso
H11 H 0.7176 0.7162 0.3598 0.1510 Uiso
C14 C 0.6866(6) 0.6643(7) 0.3610(6) 0.1260 Uiso
H12 H 0.6981 0.6555 0.3850 0.1510 Uiso
C15 C 0.6583(7) 0.6409(6) 0.3411(7) 0.1260 Uiso
C16 C 0.6412(6) 0.6540(7) 0.3059(7) 0.1260 Uiso
H13 H 0.6216 0.6383 0.2922 0.1510 Uiso
C17 C 0.6530(6) 0.6902(7) 0.2909(6) 0.1260 Uiso
H14 H 0.6415 0.6990 0.2669 0.1510 Uiso
C18 C 0.7015(6) 0.7909(6) 0.2390(4) 0.1680 Uiso
C19 C 0.6863(8) 0.8045(8) 0.2001(6) 0.1250 Uiso
C20 C 0.6509(8) 0.7864(7) 0.1843(7) 0.1250 Uiso
H15 H 0.6357 0.7680 0.1995 0.1500 Uiso
C21 C 0.6379(7) 0.7954(7) 0.1459(7) 0.1250 Uiso
H16 H 0.6166 0.7804 0.1337 0.1500 Uiso
C22 C 0.6567(8) 0.8267(8) 0.1260(6) 0.1250 Uiso
C23 C 0.6921(8) 0.8451(7) 0.1419(7) 0.1250 Uiso
H17 H 0.7059 0.8651 0.1275 0.1500 Uiso
C24 C 0.7072(7) 0.8340(7) 0.1789(7) 0.1250 Uiso
H18 H 0.7312 0.8463 0.1896 0.1500 Uiso
C25 C 0.6440(10) 0.6067(9) 0.3603(10) 0.1540 Uiso
C26 C 1.0811(8) 1.0317(8) 0.5869(7) 0.1290 Uiso
C27 C 1.0637(7) 1.0200(9) 0.6280(6) 0.1080 Uiso
C28 C 1.0190(5) 0.8546(11) 0.3259(6) 0.1620 Uiso
C29 C 1.0521(6) 0.8490(9) 0.2942(6) 0.1550 Uiso
C30 C 1.0745(8) 0.8823(7) 0.2845(7) 0.1550 Uiso
H19 H 1.0715 0.9054 0.2997 0.1850 Uiso
C31 C 1.1010(7) 0.8818(7) 0.2530(8) 0.1550 Uiso
H20 H 1.1163 0.9047 0.2465 0.1850 Uiso
C32 C 1.1058(6) 0.8486(9) 0.2307(6) 0.1550 Uiso
C33 C 1.0835(8) 0.8154(7) 0.2403(7) 0.1550 Uiso
H21 H 1.0865 0.7923 0.2251 0.1850 Uiso
C34 C 1.0569(7) 0.8158(7) 0.2718(8) 0.1550 Uiso
H22 H 1.0416 0.7929 0.2783 0.1850 Uiso
C35 C 1.1378(6) 0.8486(7) 0.1969(5) 0.1600 Uiso
C36 C 1.1903(5) 0.8728(6) 0.1600(7) 0.1680 Uiso
C37 C 1.1565(7) 0.8178(5) 0.1413(6) 0.1190 Uiso
C38 C 1.2268(10) 0.9046(9) 0.1586(11) 0.1880 Uiso
C39 C 1.2292(10) 0.9338(11) 0.1856(9) 0.1880 Uiso
H23 H 1.2087 0.9357 0.2055 0.2260 Uiso
C40 C 1.2608(11) 0.9604(9) 0.1841(9) 0.1880 Uiso
H24 H 1.2648 0.9782 0.2051 0.2260 Uiso
C41 C 1.2867(10) 0.9613(9) 0.1524(12) 0.1880 Uiso
C42 C 1.2834(10) 0.9325(11) 0.1249(9) 0.1880 Uiso
H25 H 1.3025 0.9321 0.1036 0.2260 Uiso
C43 C 1.2537(12) 0.9046(9) 0.1274(9) 0.1880 Uiso
H26 H 1.2514 0.8851 0.1077 0.2260 Uiso
C44 C 1.1551(11) 0.7865(7) 0.1119(7) 0.1770 Uiso
C45 C 1.1859(7) 0.7791(8) 0.0838(9) 0.1770 Uiso
H27 H 1.2114 0.7932 0.0843 0.2130 Uiso
C46 C 1.1791(8) 0.7508(9) 0.0550(7) 0.1770 Uiso
H28 H 1.1998 0.7456 0.0359 0.2130 Uiso
C47 C 1.1415(11) 0.7299(6) 0.0543(7) 0.1770 Uiso
C48 C 1.1110(7) 0.7373(8) 0.0820(9) 0.1770 Uiso
H29 H 1.0855 0.7232 0.0814 0.2130 Uiso
C49 C 1.1176(9) 0.7657(9) 0.1111(7) 0.1770 Uiso
H30 H 1.0967 0.7706 0.1302 0.2130 Uiso
C50 C 1.1359(10) 0.6975(7) 0.0222(8) 0.1380 Uiso
C51 C 1.3202(8) 0.9926(7) 0.1448(9) 0.1080 Uiso
C52 C 0.6399(9) 0.8368(9) 0.0841(9) 0.1830 Uiso
C53 C 1.0868(8) 0.9098(9) 0.5440(9) 0.1330 Uiso
C54 C 1.1300(7) 0.9211(8) 0.5295(8) 0.0890 Uiso
In1H In 1.03367(8) 1.10396(7) 0.62278(7) 0.1240 Uani
In2I In 0.60258(8) 0.85720(8) 0.02292(7) 0.1320 Uani
In2J In 1.10258(8) 0.64280(8) -0.02292(7) 0.1320 Uani
In3A In 1.37660(9) 1.03862(7) 0.10536(8) 0.1430 Uani
In3C In 0.62340(9) 0.53862(7) 0.39464(8) 0.1430 Uani
O7H O 0.9316(6) 0.9288(6) 0.4203(5) 0.1340 Uiso
O8H O 0.9641(6) 0.9599(6) 0.3527(6) 0.1320 Uiso
O11C O 1.1169(6) 0.9125(7) 0.6564(5) 0.1530 Uiso
O12C O 1.1639(6) 0.9069(6) 0.6116(6) 0.1560 Uiso
O16J O 1.0980(8) 0.8060(8) 0.5184(7) 0.1930 Uiso
O17A O 1.1692(7) 1.0003(7) 0.6098(7) 0.1680 Uiso
O19I O 1.1550(5) 0.8648(5) 0.4314(5) 0.1310 Uiso
O20I O 1.1102(7) 0.8182(5) 0.4258(7) 0.1780 Uiso
loop_
_atom_site_aniso_label
_atom_site_aniso_U_11
_atom_site_aniso_U_22
_atom_site_aniso_U_33
_atom_site_aniso_U_23
_atom_site_aniso_U_13
_atom_site_aniso_U_12
In1 0.134(2) 0.099(2) 0.139(2) 0.0036(18) -0.0104(18) -0.0044(16)
In2 0.136(2) 0.133(2) 0.127(2) -0.0135(18) -0.0039(18) 0.0052(18)
In3 0.173(3) 0.102(2) 0.154(3) -0.0050(18) -0.020(2) 0.0107(19)
In1H 0.134 0.099 0.139 0.0036 -0.0104 -0.0044
In2I 0.136 0.133 0.127 0.0135 0.0039 0.0052
In2J 0.136 0.133 0.127 0.0135 -0.0039 -0.0052
In3A 0.173 0.102 0.154 0.005 0.02 0.0107
In3C 0.173 0.102 0.154 -0.005 0.02 -0.0107
loop_
_geom_bond_atom_site_label_1
_geom_bond_atom_site_label_2
_geom_bond_site_symmetry_1
_geom_bond_site_symmetry_2
In1 O1 1_555 1_555
In2 O3 1_555 1_555
In3 O9 1_555 1_555
N1 H1 1_555 1_555
N2 H2 1_555 1_555
N3 H3 1_555 1_555
N4 H4 1_555 1_555
N5 H5 1_555 1_555
N6 H6 1_555 1_555
O1 C1 1_555 1_555
O2 In1 1_555 1_555
O3 C1 1_555 1_555
O4 In2 1_555 1_555
O5 In1 1_555 1_555
O6 In1 1_555 1_555
O7 C26 1_555 1_555
O8 C27 1_555 1_555
O9 C26 1_555 1_555
O10 In3 1_555 1_555
O11 C25 1_555 1_555
O12 C25 1_555 1_555
O13 In1 1_555 1_555
O14 C28 1_555 1_555
O15 C50 1_555 1_555
O16 C50 1_555 1_555
O17 C51 1_555 1_555
O18 C51 1_555 1_555
O19 C52 1_555 1_555
O20 C52 1_555 1_555
O21 In2 1_555 1_555
O22 In2 1_555 1_555
O23 In3 1_555 1_555
O24 In3 1_555 1_555
C1 C2 1_555 1_555
C2 O2 1_555 1_555
C3 O5 1_555 1_555
C4 C3 1_555 1_555
C5 C4 1_555 1_555
H7 C5 1_555 1_555
C6 C5 1_555 1_555
H8 C6 1_555 1_555
C7 C6 1_555 1_555
C8 C7 1_555 1_555
H9 C8 1_555 1_555
C9 C4 1_555 1_555
H10 C9 1_555 1_555
C10 N1 1_555 1_555
C11 N1 1_555 1_555
C12 C11 1_555 1_555
C13 C12 1_555 1_555
H11 C13 1_555 1_555
C14 C13 1_555 1_555
H12 C14 1_555 1_555
C15 C14 1_555 1_555
C16 C15 1_555 1_555
H13 C16 1_555 1_555
C17 C12 1_555 1_555
H14 C17 1_555 1_555
C18 N2 1_555 1_555
C19 C18 1_555 1_555
C20 C19 1_555 1_555
H15 C20 1_555 1_555
C21 C20 1_555 1_555
H16 C21 1_555 1_555
C22 C21 1_555 1_555
C23 C22 1_555 1_555
H17 C23 1_555 1_555
C24 C19 1_555 1_555
H18 C24 1_555 1_555
C25 C15 1_555 1_555
C26 C27 1_555 1_555
C27 O10 1_555 1_555
C28 O13 1_555 1_555
C29 C28 1_555 1_555
C30 C29 1_555 1_555
H19 C30 1_555 1_555
C31 C30 1_555 1_555
H20 C31 1_555 1_555
C32 C31 1_555 1_555
C33 C32 1_555 1_555
H21 C33 1_555 1_555
C34 C29 1_555 1_555
H22 C34 1_555 1_555
C35 N4 1_555 1_555
C36 N4 1_555 1_555
C37 N5 1_555 1_555
C38 C36 1_555 1_555
C39 C38 1_555 1_555
H23 C39 1_555 1_555
C40 C39 1_555 1_555
H24 C40 1_555 1_555
C41 C40 1_555 1_555
C42 C41 1_555 1_555
H25 C42 1_555 1_555
C43 C38 1_555 1_555
H26 C43 1_555 1_555
C44 C37 1_555 1_555
C45 C44 1_555 1_555
H27 C45 1_555 1_555
C46 C45 1_555 1_555
H28 C46 1_555 1_555
C47 C46 1_555 1_555
C48 C47 1_555 1_555
H29 C48 1_555 1_555
C49 C44 1_555 1_555
H30 C49 1_555 1_555
C50 C47 1_555 1_555
C51 C41 1_555 1_555
C52 C22 1_555 1_555
C53 O21 1_555 1_555
C54 O22 1_555 1_555
In1H O7 1_555 1_555
In2I O19 1_555 1_555
In2J O16 1_555 1_555
In3A O17 1_555 1_555
In3C O11 1_555 1_555
O7H In1 1_555 1_555
O8H In1 1_555 1_555
O11C In3 1_555 1_555
O12C In3 1_555 1_555
O16J In2 1_555 1_555
O17A In3 1_555 1_555
O19I In2 1_555 1_555
O20I In2 1_555 1_555
N2 C11 1_555 1_555
N3 C10 1_555 1_555
N3 C18 1_555 1_555
N5 C36 1_555 1_555
N6 C35 1_555 1_555
N6 C37 1_555 1_555
O4 C2 1_555 1_555
O6 C3 1_555 1_555
O8 In1H 1_555 1_555
O12 In3C 1_555 1_555
O20 In2I 1_555 1_555
O23 C54 1_555 1_555
O24 C53 1_555 1_555
C7 C10 1_555 1_555
C8 C9 1_555 1_555
C16 C17 1_555 1_555
C23 C24 1_555 1_555
C32 C35 1_555 1_555
C33 C34 1_555 1_555
C42 C43 1_555 1_555
C48 C49 1_555 1_555
C53 C54 1_555 1_555

#END
