
#######################################################################
#
#                 Cambridge Crystallographic Data Centre
#                                CCDC 
#
#######################################################################
#
# If this CIF has been generated from an entry in the Cambridge 
# Structural Database, then it will include bibliographic, chemical, 
# crystal, experimental, refinement or atomic coordinate data resulting 
# from the CCDC's data processing and validation procedures.
#
#######################################################################

data_MAQRAA
_chemical_formula_moiety         '(C16 H17 Cu2 N1 O11 S2)n'
_symmetry_cell_setting           monoclinic
_symmetry_space_group_name_H-M   'P 21/n'
_symmetry_Int_Tables_number      14
_space_group_name_Hall           '-P 2yn'
loop_
_symmetry_equiv_pos_site_id
_symmetry_equiv_pos_as_xyz
1 x,y,z
2 1/2-x,1/2+y,1/2-z
3 -x,-y,-z
4 1/2+x,1/2-y,1/2+z
_cell_length_a                   6.5886(2)
_cell_length_b                   16.7607(4)
_cell_length_c                   11.7157(3)
_cell_angle_alpha                90
_cell_angle_beta                 95.644(3)
_cell_angle_gamma                90
_cell_volume                     1287.49
loop_
_atom_site_label
_atom_site_type_symbol
_atom_site_fract_x
_atom_site_fract_y
_atom_site_fract_z
Cu1 Cu 1.0000 -0.5000 1.0000
Cu2 Cu 1.0000 -0.0000 0.5000
C1 C 1.0668(4) -0.36821(15) 0.8557(2)
C2 C 1.1897(4) -0.30607(15) 0.8046(2)
C3 C 1.3946(4) -0.29106(17) 0.8179(3)
H1 H 1.4881 -0.3213 0.8641
C4 C 1.4483(4) -0.22460(18) 0.7537(2)
H2 H 1.5813 -0.2063 0.7524
C5 C 1.2822(4) -0.18984(15) 0.6931(2)
C6 C 1.2743(4) -0.11902(15) 0.6166(2)
S1 S 1.06051(10) -0.23857(4) 0.71450(6)
O1 O 0.8335(3) 0.01585(12) 0.62413(17)
H3 H 0.8458 -0.0092 0.6875
H4 H 0.7802 0.0590 0.6450
O2 O 1.1601(3) -0.42491(11) 0.91220(16)
O3 O 0.8782(3) -0.36063(12) 0.83941(19)
O4 O 1.4429(3) -0.08763(11) 0.60146(16)
O5 O 1.0999(3) -0.09760(11) 0.57475(17)
C1B C 0.9332(4) -0.63179(15) 1.1443(2)
C2B C 0.8103(4) -0.69393(15) 1.1954(2)
C3B C 0.6054(4) -0.70894(17) 1.1821(3)
H1B H 0.5119 -0.6787 1.1359
C4B C 0.5517(4) -0.77540(18) 1.2463(2)
H2B H 0.4187 -0.7937 1.2476
C5B C 0.7178(4) -0.81016(15) 1.3069(2)
C6B C 0.7257(4) -0.88098(15) 1.3834(2)
S1B S 0.93949(10) -0.76143(4) 1.28550(6)
O2B O 0.8399(3) -0.57509(11) 1.08780(16)
O3B O 1.1218(3) -0.63937(12) 1.16059(19)
O4B O 0.5571(3) -0.91237(11) 1.39854(16)
O5B O 0.9001(3) -0.90240(11) 1.42525(17)
O1C O 1.3335(3) -0.51585(12) 1.12413(17)
H3C H 1.3458 -0.4908 1.1875
H4C H 1.2802 -0.5590 1.1450
Cu1A Cu 0.5000 -1.0000 1.5000
Cu1A_2 Cu 0.5000 -0.0000 0.5000
Cu1A_3 Cu 1.5000 -0.0000 0.5000
Cu2_2 Cu 1.0000 -1.0000 1.5000
Cu2A Cu 0.5000 -0.5000 1.0000
Cu2A_2 Cu 1.5000 -0.5000 1.0000
O1A O 0.6665(3) -0.48415(12) 0.87587(17)
O1B O 1.1665(3) -0.01585(12) 0.37587(17)
O2A O 1.3399(3) 0.07509(11) 0.58780(16)
O2C O 0.6601(3) -0.07509(11) 0.41220(16)
O4A O 1.0571(3) -0.58763(11) 0.89854(16)
O4C O 0.9429(3) -0.41237(11) 1.10146(16)
O5B_2 O 0.9001(3) 0.09760(11) 0.42525(17)
C7 C 0.2620(8) 0.3664(4) 0.4582(4)
H5 H 0.1571 0.4027 0.4763
H6 H 0.2191 0.3126 0.4708
H7 H 0.2865 0.3728 0.3794
C8 C 0.6357(8) 0.3335(3) 0.5170(4)
H8 H 0.7471 0.3504 0.5706
H9 H 0.6724 0.3400 0.4403
H10 H 0.6059 0.2784 0.5302
C9 C 0.2745(8) 0.4827(3) 0.6328(4)
H11 H 0.3039 0.5182 0.6966
H12 H 0.1660 0.4472 0.6482
H13 H 0.2340 0.5132 0.5649
C10 C 0.4646(8) 0.4342(3) 0.6146(3)
O6 O 0.6299(4) 0.44349(18) 0.6766(2)
N1 N 0.4514(7) 0.3832(2) 0.5326(3)
loop_
_geom_bond_atom_site_label_1
_geom_bond_atom_site_label_2
_geom_bond_site_symmetry_1
_geom_bond_site_symmetry_2
Cu1 O2 1_555 1_555
Cu2 O1 1_555 1_555
C1 C2 1_555 1_555
C2 C3 1_555 1_555
C3 H1 1_555 1_555
C4 C3 1_555 1_555
H2 C4 1_555 1_555
C5 C4 1_555 1_555
C6 C5 1_555 1_555
S1 C2 1_555 1_555
O1 H3 1_555 1_555
H4 O1 1_555 1_555
O2 C1 1_555 1_555
O3 C1 1_555 1_555
O4 C6 1_555 1_555
O5 Cu2 1_555 1_555
C7 H5 1_555 1_555
H6 C7 1_555 1_555
H7 C7 1_555 1_555
C8 H8 1_555 1_555
H9 C8 1_555 1_555
H10 C8 1_555 1_555
C9 H11 1_555 1_555
H12 C9 1_555 1_555
H13 C9 1_555 1_555
C10 C9 1_555 1_555
O6 C10 1_555 1_555
N1 C7 1_555 1_555
C1B C2B 1_555 1_555
C2B C3B 1_555 1_555
C3B H1B 1_555 1_555
C4B C3B 1_555 1_555
H2B C4B 1_555 1_555
C5B C4B 1_555 1_555
C6B C5B 1_555 1_555
S1B C2B 1_555 1_555
O2B Cu1 1_555 1_555
O3B C1B 1_555 1_555
O4B C6B 1_555 1_555
O5B C6B 1_555 1_555
O1C Cu1 1_555 1_555
H3C O1C 1_555 1_555
H4C O1C 1_555 1_555
Cu1A O4B 1_555 1_555
Cu1A_2 O1 1_555 1_555
Cu1A_3 O4 1_555 1_555
Cu2_2 O5B 1_555 1_555
Cu2A O2B 1_555 1_555
Cu2A_2 O2 1_555 1_555
O1A Cu1 1_555 1_555
O1B Cu2 1_555 1_555
O2A Cu2 1_555 1_555
O2C Cu2 1_555 1_555
O4A Cu1 1_555 1_555
O4C Cu1 1_555 1_555
O5B_2 Cu2 1_555 1_555
C5 S1 1_555 1_555
C6 O5 1_555 1_555
C8 N1 1_555 1_555
C10 N1 1_555 1_555
C1B O2B 1_555 1_555
C5B S1B 1_555 1_555
O1C Cu2A_2 1_555 1_555
Cu1A_2 O2C 1_555 1_555
Cu1A_3 O1B 1_555 1_555
Cu1A_3 O2A 1_555 1_555
Cu2A O1A 1_555 1_555

#END
