
#######################################################################
#
#                 Cambridge Crystallographic Data Centre
#                                CCDC 
#
#######################################################################
#
# If this CIF has been generated from an entry in the Cambridge 
# Structural Database, then it will include bibliographic, chemical, 
# crystal, experimental, refinement or atomic coordinate data resulting 
# from the CCDC's data processing and validation procedures.
#
#######################################################################

data_LOSXIC
_chemical_formula_moiety         'C16 H2 In3 N4 O13'
_symmetry_cell_setting           hexagonal
_symmetry_space_group_name_H-M   'P 62 2 2'
_symmetry_Int_Tables_number      180
_space_group_name_Hall           'P 62 2 (0 0 4)'
loop_
_symmetry_equiv_pos_site_id
_symmetry_equiv_pos_as_xyz
1 x,y,z
2 x-y,x,1/3+z
3 -y,x-y,2/3+z
4 -x,-y,z
5 -x+y,-x,1/3+z
6 y,-x+y,2/3+z
7 x-y,-y,-z
8 -x,-x+y,1/3-z
9 y,x,2/3-z
10 -y,-x,2/3-z
11 -x+y,y,-z
12 x,x-y,1/3-z
_cell_length_a                   15.683(3)
_cell_length_b                   15.683(3)
_cell_length_c                   11.5526(16)
_cell_angle_alpha                90
_cell_angle_beta                 90
_cell_angle_gamma                120
_cell_volume                     2460.76
loop_
_atom_site_label
_atom_site_type_symbol
_atom_site_fract_x
_atom_site_fract_y
_atom_site_fract_z
O3 O 1.0000 1.0000 0.3333
In1 In 1.0000 0.5000 -0.3333
O1 O 0.9345(8) 0.5720(8) -0.2243(8)
O2 O 0.8718(8) 0.4150(9) -0.2089(8)
C1 C 0.8742(9) 0.4931(12) -0.1770(10)
C2 C 0.8082(8) 0.4962(13) -0.0896(8)
C3 C 0.7326(9) 0.4067(14) -0.0436(9)
C4 C 0.8238(8) 0.5853(14) -0.0465(6)
N1 N 0.8976(19) 0.679(3) -0.087(4)
O1J O 0.6375(11) 0.5720(8) 0.2243(8)
O2J O 0.5432(12) 0.4150(9) 0.2089(8)
C1J C 0.6189(15) 0.4931(12) 0.1770(10)
C2J C 0.6880(15) 0.4962(13) 0.0896(8)
C3J C 0.6741(17) 0.4067(14) 0.0436(9)
C4J C 0.7615(16) 0.5853(14) 0.0465(6)
N1J N 0.7814(36) 0.679(3) 0.087(4)
O1C O 1.0655(8) 0.4280(8) -0.2243(8)
O2C O 1.1282(8) 0.5850(9) -0.2089(8)
C1C C 1.1258(9) 0.5069(12) -0.1770(10)
C2C C 1.1918(8) 0.5038(13) -0.0896(8)
C3C C 1.2674(9) 0.5933(14) -0.0436(9)
C4C C 1.1762(8) 0.4147(14) -0.0465(6)
N1C N 1.1024(19) 0.321(3) -0.087(4)
O1F O 1.3625(11) 0.4280(8) 0.2243(8)
O2F O 1.4568(12) 0.5850(9) 0.2089(8)
C1F C 1.3811(15) 0.5069(12) 0.1770(10)
C2F C 1.3120(15) 0.5038(13) 0.0896(8)
C3F C 1.3259(17) 0.5933(14) 0.0436(9)
C4F C 1.2385(16) 0.4147(14) 0.0465(6)
N1F N 1.2186(36) 0.321(3) 0.087(4)
In1B In 0.5000 0.5000 0.3334
In1B_2 In 1.5000 0.5000 0.3334
O1G O 1.0655(8) 0.6375(11) -0.4424(8)
O1K O 0.9345(8) 0.3625(11) -0.4424(8)
O2G O 1.1282(8) 0.5432(12) -0.4578(8)
O2K O 0.8718(8) 0.4568(12) -0.4578(8)
loop_
_geom_bond_atom_site_label_1
_geom_bond_atom_site_label_2
_geom_bond_site_symmetry_1
_geom_bond_site_symmetry_2
In1 O1 1_555 1_555
O1 C1 1_555 1_555
O2 In1 1_555 1_555
C1 O2 1_555 1_555
C2 C1 1_555 1_555
C3 C2 1_555 1_555
C4 C2 1_555 1_555
N1 C4 1_555 1_555
O1J C1J 1_555 1_555
O2J C1J 1_555 1_555
C1J C2J 1_555 1_555
C2J C3J 1_555 1_555
C3J C3 1_555 1_555
C4J C4 1_555 1_555
N1J C4J 1_555 1_555
O1C In1 1_555 1_555
O2C In1 1_555 1_555
C1C O1C 1_555 1_555
C2C C1C 1_555 1_555
C3C C2C 1_555 1_555
C4C C2C 1_555 1_555
N1C C4C 1_555 1_555
O1F C1F 1_555 1_555
O2F C1F 1_555 1_555
C1F C2F 1_555 1_555
C2F C3F 1_555 1_555
C3F C3C 1_555 1_555
C4F C4C 1_555 1_555
N1F C4F 1_555 1_555
In1B O1J 1_555 1_555
In1B_2 O1F 1_555 1_555
O1G In1 1_555 1_555
O1K In1 1_555 1_555
O2G In1 1_555 1_555
O2K In1 1_555 1_555
O2J In1B 1_555 1_555
C2J C4J 1_555 1_555
O2C C1C 1_555 1_555
O2F In1B_2 1_555 1_555
C2F C4F 1_555 1_555

#END
