
#######################################################################
#
#                 Cambridge Crystallographic Data Centre
#                                CCDC 
#
#######################################################################
#
# If this CIF has been generated from an entry in the Cambridge 
# Structural Database, then it will include bibliographic, chemical, 
# crystal, experimental, refinement or atomic coordinate data resulting 
# from the CCDC's data processing and validation procedures.
#
#######################################################################

data_ERIJUM
_chemical_formula_moiety         '(C28 H28 Ag5 Al1 N14 O44 W12 5+)n'
_symmetry_cell_setting           monoclinic
_symmetry_space_group_name_H-M   'C 2/c'
_symmetry_Int_Tables_number      15
_space_group_name_Hall           '-C 2yc'
loop_
_symmetry_equiv_pos_site_id
_symmetry_equiv_pos_as_xyz
1 x,y,z
2 -x,y,1/2-z
3 1/2+x,1/2+y,z
4 1/2-x,1/2+y,1/2-z
5 -x,-y,-z
6 x,-y,1/2+z
7 1/2-x,1/2-y,-z
8 1/2+x,1/2-y,1/2+z
_cell_length_a                   23.342(3)
_cell_length_b                   20.685(3)
_cell_length_c                   12.5402(16)
_cell_angle_alpha                90
_cell_angle_beta                 97.970(2)
_cell_angle_gamma                90
_cell_volume                     5996.29
loop_
_atom_site_label
_atom_site_type_symbol
_atom_site_fract_x
_atom_site_fract_y
_atom_site_fract_z
Ag1 Ag 0.5000 0.5900(3) 0.2500
Ag2 Ag 0.5000 0.9459(3) 0.2500
Ag3 Ag -0.0000 0.8075(4) 0.2500
Ag4 Ag 0.2632(3) 0.9235(3) 0.5650(5)
N1 N 0.333(3) 0.950(2) 0.483(4)
N2 N 0.1838(19) 0.887(2) 0.462(3)
N3 N 0.5000 0.829(3) 0.2500
N4 N 0.5000 0.697(2) 0.2500
N5 N 0.5006(18) 0.5338(18) 0.095(3)
N6 N 0.082(2) 0.844(3) 0.345(4)
C1 C 0.476(2) 0.730(2) 0.320(4)
H1 H 0.4585 0.7080 0.3715
C2 C 0.153(3) 0.921(3) 0.387(4)
H2 H 0.1660 0.9627 0.3775
C3 C 0.476(2) 0.798(2) 0.321(4)
H3 H 0.4590 0.8206 0.3719
C4 C 0.548(2) 0.509(2) 0.068(3)
H4 H 0.5828 0.5154 0.1131
C5 C 0.453(2) 0.526(2) 0.027(3)
H5 H 0.4189 0.5444 0.0427
C6 C 0.392(3) 0.937(3) 0.516(4)
H6 H 0.4041 0.9250 0.5864
C7 C 0.108(3) 0.903(3) 0.326(4)
H7 H 0.0916 0.9288 0.2700
C8 C 0.116(3) 0.807(3) 0.415(5)
H8 H 0.1027 0.7659 0.4281
C9 C 0.370(4) 0.979(4) 0.315(4)
H9 H 0.3613 0.9944 0.2450
N7 N 0.425(2) 0.961(2) 0.353(3)
C10 C 0.430(3) 0.942(3) 0.447(5)
H10 H 0.4674 0.9295 0.4756
C11 C 0.168(3) 0.825(3) 0.468(4)
H11 H 0.1919 0.7953 0.5081
C12 C 0.330(4) 0.976(3) 0.377(5)
H12 H 0.2938 0.9936 0.3483
N8 N 0.0000 0.698(4) 0.2500
C13 C -0.022(3) 0.660(4) 0.330(6)
H13 H -0.0339 0.6816 0.3882
C14 C -0.027(4) 0.598(4) 0.328(7)
H14 H -0.0471 0.5778 0.3769
N9 N 0.0000 0.557(3) 0.2500
C1A C 0.524(2) 0.730(2) 0.180(4)
H1A H 0.5415 0.7080 0.1285
C3A C 0.524(2) 0.798(2) 0.179(4)
H3A H 0.5410 0.8206 0.1281
N5D N 0.4994(18) 0.4662(18) -0.095(3)
C4D C 0.452(2) 0.491(2) -0.068(3)
H4D H 0.4172 0.4846 -0.1131
C5D C 0.547(2) 0.474(2) -0.027(3)
H5D H 0.5811 0.4556 -0.0427
C13A C 0.022(3) 0.660(4) 0.170(6)
H13A H 0.0339 0.6816 0.1118
C14A C 0.027(4) 0.598(4) 0.172(7)
H14A H 0.0471 0.5778 0.1231
Ag4A Ag -0.2632(3) 0.9235(3) -0.0650(5)
N1A N -0.333(3) 0.950(2) 0.017(4)
N2A N -0.1838(19) 0.887(2) 0.038(3)
N6A N -0.082(2) 0.844(3) 0.155(4)
C2A C -0.153(3) 0.921(3) 0.113(4)
H2A H -0.1660 0.9627 0.1225
C6A C -0.392(3) 0.937(3) -0.016(4)
H6A H -0.4041 0.9250 -0.0864
C7A C -0.108(3) 0.903(3) 0.174(4)
H7A H -0.0916 0.9288 0.2300
C8A C -0.116(3) 0.807(3) 0.085(5)
H8A H -0.1027 0.7659 0.0719
C9A C -0.370(4) 0.979(4) 0.185(4)
H9A H -0.3613 0.9944 0.2550
N7A N -0.425(2) 0.961(2) 0.147(3)
C10A C -0.430(3) 0.942(3) 0.053(5)
H10A H -0.4674 0.9295 0.0244
C11A C -0.168(3) 0.825(3) 0.032(4)
H11A H -0.1919 0.7953 -0.0081
C12A C -0.330(4) 0.976(3) 0.123(5)
H12A H -0.2938 0.9936 0.1517
Ag1D Ag 0.5000 0.4100(3) -0.2500
Ag2_2 Ag -0.5000 0.9459(3) 0.2500
Ag2B Ag -0.0000 0.4459(3) 0.2500
N5A N 0.4994(18) 0.5338(18) 0.405(3)
N7A_2 N 0.575(2) 0.961(2) 0.147(3)
N9B N 0.5000 1.057(3) 0.2500
W1 W 0.17288(7) 1.13617(7) 0.32826(11)
W2 W 0.18877(8) 1.31543(8) 0.71547(11)
W3 W 0.22507(8) 1.09487(8) 0.59665(14)
W4 W 0.30497(8) 1.20761(10) 0.76496(11)
W5 W 0.11028(7) 1.20427(8) 0.54184(14)
O1 O 0.1566(17) 1.1371(18) 0.610(2)
O2 O 0.2368(18) 1.2495(18) 0.781(3)
O3 O 0.158(2) 1.210(2) 0.244(4)
O4 O 0.2013(14) 1.0826(14) 0.445(2)
O5 O 0.3314(16) 1.1861(16) 0.892(2)
O6 O 0.0937(19) 1.2834(16) 0.472(3)
O7 O 0.1601(18) 1.3477(18) 0.821(3)
Al1 Al 0.2500 1.2500 0.5000
O8 O 0.0819(14) 1.4143(14) 0.429(2)
O9 O 0.0453(14) 1.181(2) 0.564(2)
O10 O 0.2137(18) 1.0201(15) 0.641(2)
O11 O 0.1337(16) 1.0818(17) 0.254(3)
O12 O 0.1995(17) 1.412(3) 0.443(4)
O13 O 0.1145(19) 1.1666(19) 0.408(3)
W6 W 0.13589(8) 1.36090(9) 0.45157(16)
O14 O 0.154(2) 1.3694(15) 0.601(3)
O15 O 0.1350(17) 1.2507(15) 0.674(3)
O16 O 0.3140(15) 1.2274(19) 0.450(3)
O17 O 0.2010(14) 1.1892(15) 0.483(2)
O18 O 0.1386(17) 1.329(3) 0.310(4)
O19 O 0.2336(14) 1.2194(14) 0.372(2)
O20 O 0.2529(15) 1.3698(19) 0.712(4)
O21 O 0.2806(15) 1.1851(18) 0.590(2)
O22 O 0.2552(16) 1.135(2) 0.730(3)
W1F W 0.32712(7) 1.36383(7) 0.67174(11)
W2F W 0.31123(8) 1.18457(8) 0.28453(11)
W3F W 0.27493(8) 1.40513(8) 0.40335(14)
W4F W 0.19503(8) 1.29239(10) 0.23504(11)
W5F W 0.38972(7) 1.29573(8) 0.45816(14)
O1F O 0.3434(17) 1.3629(18) 0.390(2)
O2F O 0.2632(18) 1.2505(18) 0.219(3)
O3F O 0.342(2) 1.290(2) 0.756(4)
O4F O 0.2987(14) 1.4174(14) 0.555(2)
O5F O 0.1686(16) 1.3139(16) 0.108(2)
O6F O 0.4063(19) 1.2166(16) 0.528(3)
O7F O 0.3399(18) 1.1523(18) 0.179(3)
O8F O 0.4181(14) 1.0857(14) 0.571(2)
O9F O 0.4547(14) 1.319(2) 0.436(2)
O10F O 0.2863(18) 1.4799(15) 0.359(2)
O11F O 0.3663(16) 1.4182(17) 0.746(3)
O12F O 0.3005(17) 1.088(3) 0.557(4)
O13F O 0.3855(19) 1.3334(19) 0.592(3)
W6F W 0.36411(8) 1.13910(9) 0.54843(16)
O14F O 0.346(2) 1.1306(15) 0.399(3)
O15F O 0.3650(17) 1.2493(15) 0.326(3)
O16F O 0.1860(15) 1.2726(19) 0.550(3)
O17F O 0.2990(14) 1.3108(15) 0.517(2)
O18F O 0.3614(17) 1.171(3) 0.690(4)
O19F O 0.2664(14) 1.2806(14) 0.628(2)
O20F O 0.2471(15) 1.1302(19) 0.288(4)
O21F O 0.2194(15) 1.3149(18) 0.410(2)
O22F O 0.2448(16) 1.365(2) 0.270(3)
loop_
_geom_bond_atom_site_label_1
_geom_bond_atom_site_label_2
_geom_bond_site_symmetry_1
_geom_bond_site_symmetry_2
W1 O3 1_555 1_555
W2 O2 1_555 1_555
W3 O1 1_555 1_555
W4 O2 1_555 1_555
W5 O1 1_555 1_555
O3 W4F 1_555 1_555
O4 W1 1_555 1_555
O5 W4 1_555 1_555
O6 W5 1_555 1_555
O7 W2 1_555 1_555
Al1 O16 1_555 1_555
O8 W6 1_555 1_555
O9 W5 1_555 1_555
O10 W3 1_555 1_555
O11 W1 1_555 1_555
O12 W6 1_555 1_555
O13 W1 1_555 1_555
W6 O6 1_555 1_555
O14 W2 1_555 1_555
O15 W2 1_555 1_555
O16 W2F 1_555 1_555
O17 W1 1_555 1_555
O18 W6 1_555 1_555
O19 W1 1_555 1_555
O20 W2 1_555 1_555
O21 W3 1_555 1_555
O22 W3 1_555 1_555
Ag1 N4 1_555 1_555
Ag2 N3 1_555 1_555
Ag3 N6 1_555 1_555
Ag4 N1 1_555 1_555
N1 C6 1_555 1_555
N2 Ag4 1_555 1_555
N3 C3 1_555 1_555
N4 C1 1_555 1_555
N5 Ag1 1_555 1_555
N6 C7 1_555 1_555
C1 H1 1_555 1_555
C2 N2 1_555 1_555
H2 C2 1_555 1_555
C3 C1 1_555 1_555
H3 C3 1_555 1_555
C4 N5 1_555 1_555
H4 C4 1_555 1_555
C5 N5 1_555 1_555
H5 C5 1_555 1_555
C6 H6 1_555 1_555
C7 C2 1_555 1_555
H7 C7 1_555 1_555
C8 N6 1_555 1_555
H8 C8 1_555 1_555
C9 H9 1_555 1_555
N7 Ag2 1_555 1_555
C10 C6 1_555 1_555
H10 C10 1_555 1_555
C11 N2 1_555 1_555
H11 C11 1_555 1_555
C12 N1 1_555 1_555
H12 C12 1_555 1_555
N8 Ag3 1_555 1_555
C13 N8 1_555 1_555
H13 C13 1_555 1_555
C14 C13 1_555 1_555
H14 C14 1_555 1_555
N9 C14 1_555 1_555
W1F O20 1_555 1_555
W2F O19 1_555 1_555
W3F O12 1_555 1_555
W4F O18 1_555 1_555
W5F O16 1_555 1_555
O1F W3F 1_555 1_555
O2F W2F 1_555 1_555
O3F W4 1_555 1_555
O4F W1F 1_555 1_555
O5F W4F 1_555 1_555
O6F W5F 1_555 1_555
O7F W2F 1_555 1_555
O8F W6F 1_555 1_555
O9F W5F 1_555 1_555
O10F W3F 1_555 1_555
O11F W1F 1_555 1_555
O12F W3 1_555 1_555
O13F W1F 1_555 1_555
W6F O16 1_555 1_555
O14F W2F 1_555 1_555
O15F W2F 1_555 1_555
O16F W2 1_555 1_555
O17F Al1 1_555 1_555
O18F W4 1_555 1_555
O19F W2 1_555 1_555
O20F W1 1_555 1_555
O21F Al1 1_555 1_555
O22F W3F 1_555 1_555
C1A N4 1_555 1_555
H1A C1A 1_555 1_555
C3A N3 1_555 1_555
H3A C3A 1_555 1_555
N5D C4D 1_555 1_555
C4D C5 1_555 1_555
H4D C4D 1_555 1_555
C5D C4 1_555 1_555
H5D C5D 1_555 1_555
C13A N8 1_555 1_555
H13A C13A 1_555 1_555
C14A N9 1_555 1_555
H14A C14A 1_555 1_555
Ag4A N1A 1_555 1_555
N1A C6A 1_555 1_555
N2A Ag4A 1_555 1_555
N6A Ag3 1_555 1_555
C2A N2A 1_555 1_555
H2A C2A 1_555 1_555
C6A H6A 1_555 1_555
C7A N6A 1_555 1_555
H7A C7A 1_555 1_555
C8A N6A 1_555 1_555
H8A C8A 1_555 1_555
C9A H9A 1_555 1_555
N7A C9A 1_555 1_555
C10A C6A 1_555 1_555
H10A C10A 1_555 1_555
C11A N2A 1_555 1_555
H11A C11A 1_555 1_555
C12A N1A 1_555 1_555
H12A C12A 1_555 1_555
Ag1D N5D 1_555 1_555
Ag2_2 N7A 1_555 1_555
Ag2B N9 1_555 1_555
N5A Ag1 1_555 1_555
N7A_2 Ag2 1_555 1_555
N9B Ag2 1_555 1_555
W3 O4 1_555 1_555
W3 O17 1_555 1_555
W4 O21 1_555 1_555
W4 O22 1_555 1_555
W4 O19F 1_555 1_555
W5 O13 1_555 1_555
W5 O15 1_555 1_555
W5 O17 1_555 1_555
W5 O16F 1_555 1_555
Al1 O17 1_555 1_555
Al1 O19 1_555 1_555
Al1 O21 1_555 1_555
Al1 O16F 1_555 1_555
Al1 O19F 1_555 1_555
W6 O14 1_555 1_555
W6 O16F 1_555 1_555
W6 O21F 1_555 1_555
O17 O19 1_555 1_555
O19 W4F 1_555 1_555
O21 W6F 1_555 1_555
C8 C11 1_555 1_555
C9 N7 1_555 1_555
C9 C12 1_555 1_555
N7 C10 1_555 1_555
W1F O3F 1_555 1_555
W1F O17F 1_555 1_555
W1F O19F 1_555 1_555
W2F O20F 1_555 1_555
W3F O4F 1_555 1_555
W3F O17F 1_555 1_555
W3F O21F 1_555 1_555
W4F O2F 1_555 1_555
W4F O21F 1_555 1_555
W4F O22F 1_555 1_555
W5F O1F 1_555 1_555
W5F O13F 1_555 1_555
W5F O15F 1_555 1_555
W5F O17F 1_555 1_555
O6F W6F 1_555 1_555
O12F W6F 1_555 1_555
W6F O14F 1_555 1_555
W6F O18F 1_555 1_555
O17F O19F 1_555 1_555
C1A C3A 1_555 1_555
N5D C5D 1_555 1_555
C13A C14A 1_555 1_555
C2A C7A 1_555 1_555
C8A C11A 1_555 1_555
C9A C12A 1_555 1_555
N7A C10A 1_555 1_555

#END
