
#######################################################################
#
#                 Cambridge Crystallographic Data Centre
#                                CCDC 
#
#######################################################################
#
# If this CIF has been generated from an entry in the Cambridge 
# Structural Database, then it will include bibliographic, chemical, 
# crystal, experimental, refinement or atomic coordinate data resulting 
# from the CCDC's data processing and validation procedures.
#
#######################################################################

data_DAJVIW
_chemical_formula_moiety         'C144 H72 Co6 Fe19 N12 O54'
_symmetry_cell_setting           hexagonal
_symmetry_space_group_name_H-M   'P 6/m m m'
_symmetry_Int_Tables_number      191
_space_group_name_Hall           '-P 6 2'
loop_
_symmetry_equiv_pos_site_id
_symmetry_equiv_pos_as_xyz
1 x,y,z
2 -y,x-y,z
3 -x+y,-x,z
4 -x,-y,z
5 y,-x+y,z
6 x-y,x,z
7 y,x,-z
8 x-y,-y,-z
9 -x,-x+y,-z
10 -y,-x,-z
11 -x+y,y,-z
12 x,x-y,-z
13 -x,-y,-z
14 y,-x+y,-z
15 x-y,x,-z
16 x,y,-z
17 -y,x-y,-z
18 -x+y,-x,-z
19 -y,-x,z
20 -x+y,y,z
21 x,x-y,z
22 y,x,z
23 x-y,-y,z
24 -x,-x+y,z
_cell_length_a                   31.350(2)
_cell_length_b                   31.350(2)
_cell_length_c                   16.9103(11)
_cell_angle_alpha                90
_cell_angle_beta                 90
_cell_angle_gamma                120
_cell_volume                     14393.2
loop_
_atom_site_label
_atom_site_type_symbol
_atom_site_fract_x
_atom_site_fract_y
_atom_site_fract_z
Fe1 Fe 0.29784(4) 0.70216(4) 0.5000
Co1 Co 0.0000 0.493(2) 0.0000
O1 O 0.3333 0.6667 0.5000
C1 C 0.0397(4) 0.5198(2) 0.1655(6)
N1 N 0.0000 0.5000 0.1126(7)
C2 C 0.1026(5) 0.5513(2) 0.0646(6)
O2 O 0.26039(17) 0.73961(17) 0.5000
N2 N 0.0715(4) 0.5358(2) 0.0000
O3 O 0.25079(17) 0.66121(18) 0.4149(3)
C3 C 0.0890(4) 0.54450(18) 0.1427(5)
C4 C 0.0250(3) 0.51249(17) 0.2450(6)
H1 H 0.0455 0.5227 0.2890
O4 O 0.0000 0.4297(6) 0.0000
C5 C 0.1542(5) 0.5771(2) 0.0401(6)
H2 H 0.1816 0.5908 0.0730
C6 C 0.1471(3) 0.5367(3) 0.2343(5)
H3 H 0.1371 0.5058 0.2127
C7 C 0.1277(3) 0.56384(17) 0.2056(5)
C8 C 0.1989(4) 0.59946(18) 0.3254(5)
C9 C 0.1814(3) 0.5538(3) 0.2945(4)
H4 H 0.1927 0.5335 0.3144
C10 C 0.2362(4) 0.61808(18) 0.3900(5)
C1C C -0.0397(4) 0.4802(2) 0.1655(6)
C2C C -0.1026(5) 0.4487(2) 0.0646(6)
N2C N -0.0715(4) 0.4642(2) 0.0000
O3C O -0.25079(17) 0.33879(18) 0.4149(3)
C3C C -0.0890(4) 0.45550(18) 0.1427(5)
C4C C -0.0250(3) 0.48751(17) 0.2450(6)
H1C H -0.0455 0.4773 0.2890
C5C C -0.1542(5) 0.4229(2) 0.0401(6)
H2C H -0.1816 0.4092 0.0730
C6C C -0.1471(3) 0.4633(3) 0.2343(5)
H3C H -0.1371 0.4942 0.2127
C7C C -0.1277(3) 0.43616(17) 0.2056(5)
C8C C -0.1989(4) 0.40054(18) 0.3254(5)
C9C C -0.1814(3) 0.4462(3) 0.2945(4)
H4C H -0.1927 0.4665 0.3144
C10C C -0.2362(4) 0.38192(18) 0.3900(5)
C1K C 0.0397(4) 0.5199(4) -0.1655(6)
N1H N 0.0000 0.5000 -0.1126(7)
C2K C 0.1026(5) 0.5513(5) -0.0646(6)
O3K O 0.25079(17) 0.58958(25) -0.4149(3)
C3K C 0.0890(4) 0.54450(44) -0.1427(5)
C4K C 0.0250(3) 0.51251(34) -0.2450(6)
H1K H 0.0455 0.5228 -0.2890
C5K C 0.1542(5) 0.5771(5) -0.0401(6)
H2K H 0.1816 0.5908 -0.0730
C6K C 0.1471(3) 0.6104(4) -0.2343(5)
H3K H 0.1371 0.6313 -0.2127
C7K C 0.1277(3) 0.56386(34) -0.2056(5)
C8K C 0.1989(4) 0.59944(44) -0.3254(5)
C9K C 0.1814(3) 0.6276(4) -0.2945(4)
H4K H 0.1927 0.6592 -0.3144
C10K C 0.2362(4) 0.61812(44) -0.3900(5)
O3O O 0.25079(17) 0.66121(18) -0.4149(3)
C6O C 0.1471(3) 0.5367(3) -0.2343(5)
H3O H 0.1371 0.5058 -0.2127
C9O C 0.1814(3) 0.5538(3) -0.2945(4)
H4O H 0.1927 0.5335 -0.3144
O3T O 0.25079(17) 0.58958(25) 0.4149(3)
C6T C 0.1471(3) 0.6104(4) 0.2343(5)
H3T H 0.1371 0.6313 0.2127
C9T C 0.1814(3) 0.6276(4) 0.2945(4)
H4T H 0.1927 0.6592 0.3144
O3W O -0.25079(17) 0.41042(25) 0.4149(3)
C6W C -0.1471(3) 0.3896(4) 0.2343(5)
H3W H -0.1371 0.3687 0.2127
C9W C -0.1814(3) 0.3724(4) 0.2945(4)
H4W H -0.1927 0.3408 0.3144
C1H C -0.0397(4) 0.4801(4) -0.1655(6)
C2H C -0.1026(5) 0.4487(5) -0.0646(6)
O3H O -0.25079(17) 0.41042(25) -0.4149(3)
C3H C -0.0890(4) 0.45550(44) -0.1427(5)
C4H C -0.0250(3) 0.48749(34) -0.2450(6)
H1H H -0.0455 0.4772 -0.2890
C5H C -0.1542(5) 0.4229(5) -0.0401(6)
H2H H -0.1816 0.4092 -0.0730
C6H C -0.1471(3) 0.3896(4) -0.2343(5)
H3H H -0.1371 0.3687 -0.2127
C7H C -0.1277(3) 0.43614(34) -0.2056(5)
C8H C -0.1989(4) 0.40056(44) -0.3254(5)
C9H C -0.1814(3) 0.3724(4) -0.2945(4)
H4H H -0.1927 0.3408 -0.3144
C10H C -0.2362(4) 0.38188(44) -0.3900(5)
O3L O -0.25079(17) 0.33879(18) -0.4149(3)
C6L C -0.1471(3) 0.4633(3) -0.2343(5)
H3L H -0.1371 0.4942 -0.2127
C9L C -0.1814(3) 0.4462(3) -0.2945(4)
H4L H -0.1927 0.4665 -0.3144
Fe1A Fe 0.29784(4) 0.59568(6) 0.5000
Co1A Co 0.507(2) 0.5070(20) 0.0000
C1A C 0.4802(2) 0.5199(4) 0.1655(6)
N1A N 0.5000 0.5000 0.1126(7)
C2A C 0.4487(2) 0.5513(5) 0.0646(6)
O2A O 0.26039(17) 0.52078(24) 0.5000
N2A N 0.4642(2) 0.5357(4) 0.0000
O3A O 0.33879(18) 0.58958(25) 0.4149(3)
C3A C 0.45550(18) 0.54450(44) 0.1427(5)
C4A C 0.48751(17) 0.51251(34) 0.2450(6)
H1A H 0.4773 0.5228 0.2890
O4A O 0.5703(6) 0.5703(6) 0.0000
C5A C 0.4229(2) 0.5771(5) 0.0401(6)
H2A H 0.4092 0.5908 0.0730
C6A C 0.4633(3) 0.6104(4) 0.2343(5)
H3A H 0.4942 0.6313 0.2127
C7A C 0.43616(17) 0.56386(34) 0.2056(5)
C8A C 0.40054(18) 0.59944(44) 0.3254(5)
C9A C 0.4462(3) 0.6276(4) 0.2945(4)
H4A H 0.4665 0.6592 0.3144
C10A C 0.38192(18) 0.61812(44) 0.3900(5)
C1D C 0.5198(2) 0.4801(4) 0.1655(6)
C2D C 0.5513(2) 0.4487(5) 0.0646(6)
N2D N 0.5358(2) 0.4643(4) 0.0000
O3D O 0.66121(18) 0.41042(25) 0.4149(3)
C3D C 0.54450(18) 0.45550(44) 0.1427(5)
C4D C 0.51249(17) 0.48749(34) 0.2450(6)
H1D H 0.5227 0.4772 0.2890
C5D C 0.5771(2) 0.4229(5) 0.0401(6)
H2D H 0.5908 0.4092 0.0730
C6D C 0.5367(3) 0.3896(4) 0.2343(5)
H3D H 0.5058 0.3687 0.2127
C7D C 0.56384(17) 0.43614(34) 0.2056(5)
C8D C 0.59946(18) 0.40056(44) 0.3254(5)
C9D C 0.5538(3) 0.3724(4) 0.2945(4)
H4D H 0.5335 0.3408 0.3144
C10D C 0.61808(18) 0.38188(44) 0.3900(5)
C1J C 0.4801(4) 0.5198(2) -0.1655(6)
N1G N 0.5000 0.5000 -0.1126(7)
C2J C 0.4487(5) 0.5513(2) -0.0646(6)
O3J O 0.41042(25) 0.66121(18) -0.4149(3)
C3J C 0.45550(44) 0.54450(18) -0.1427(5)
C4J C 0.48749(34) 0.51249(17) -0.2450(6)
H1J H 0.4772 0.5227 -0.2890
C5J C 0.4229(5) 0.5771(2) -0.0401(6)
H2J H 0.4092 0.5908 -0.0730
C6J C 0.3896(4) 0.5367(3) -0.2343(5)
H3J H 0.3687 0.5058 -0.2127
C7J C 0.43614(34) 0.56384(17) -0.2056(5)
C8J C 0.40056(44) 0.59946(18) -0.3254(5)
C9J C 0.3724(4) 0.5538(3) -0.2945(4)
H4J H 0.3408 0.5335 -0.3144
C10J C 0.38188(44) 0.61808(18) -0.3900(5)
O3P O 0.33879(18) 0.58958(25) -0.4149(3)
C6P C 0.4633(3) 0.6104(4) -0.2343(5)
H3P H 0.4942 0.6313 -0.2127
C9P C 0.4462(3) 0.6276(4) -0.2945(4)
H4P H 0.4665 0.6592 -0.3144
O3S O 0.41042(25) 0.66121(18) 0.4149(3)
C6S C 0.3896(4) 0.5367(3) 0.2343(5)
H3S H 0.3687 0.5058 0.2127
C9S C 0.3724(4) 0.5538(3) 0.2945(4)
H4S H 0.3408 0.5335 0.3144
O3V O 0.58958(25) 0.33879(18) 0.4149(3)
C6V C 0.6104(4) 0.4633(3) 0.2343(5)
H3V H 0.6313 0.4942 0.2127
C9V C 0.6276(4) 0.4462(3) 0.2945(4)
H4V H 0.6592 0.4665 0.3144
C1G C 0.5199(4) 0.4802(2) -0.1655(6)
C2G C 0.5513(5) 0.4487(2) -0.0646(6)
O3G O 0.58958(25) 0.33879(18) -0.4149(3)
C3G C 0.54450(44) 0.45550(18) -0.1427(5)
C4G C 0.51251(34) 0.48751(17) -0.2450(6)
H1G H 0.5228 0.4773 -0.2890
C5G C 0.5771(5) 0.4229(2) -0.0401(6)
H2G H 0.5908 0.4092 -0.0730
C6G C 0.6104(4) 0.4633(3) -0.2343(5)
H3G H 0.6313 0.4942 -0.2127
C7G C 0.56386(34) 0.43616(17) -0.2056(5)
C8G C 0.59944(44) 0.40054(18) -0.3254(5)
C9G C 0.6276(4) 0.4462(3) -0.2945(4)
H4G H 0.6592 0.4665 -0.3144
C10G C 0.61812(44) 0.38192(18) -0.3900(5)
O3M O 0.66121(18) 0.41042(25) -0.4149(3)
C6M C 0.5367(3) 0.3896(4) -0.2343(5)
H3M H 0.5058 0.3687 -0.2127
C9M C 0.5538(3) 0.3724(4) -0.2945(4)
H4M H 0.5335 0.3408 -0.3144
Fe1B Fe 0.40432(6) 0.70216(4) 0.5000
Co1B Co 0.4930(20) 1.0000 0.0000
C1B C 0.4801(4) 0.9603(4) 0.1655(6)
N1B N 0.5000 1.0000 0.1126(7)
C2B C 0.4487(5) 0.8974(5) 0.0646(6)
O2B O 0.47922(24) 0.73961(17) 0.5000
N2B N 0.4643(4) 0.9285(4) 0.0000
O3B O 0.41042(25) 0.74921(17) 0.4149(3)
C3B C 0.45550(44) 0.9110(4) 0.1427(5)
C4B C 0.48749(34) 0.9750(3) 0.2450(6)
H1B H 0.4772 0.9545 0.2890
O4B O 0.4297(6) 1.0000 0.0000
C5B C 0.4229(5) 0.8458(5) 0.0401(6)
H2B H 0.4092 0.8184 0.0730
C6B C 0.3896(4) 0.8529(3) 0.2343(5)
H3B H 0.3687 0.8629 0.2127
C7B C 0.43614(34) 0.8723(3) 0.2056(5)
C8B C 0.40056(44) 0.8011(4) 0.3254(5)
C9B C 0.3724(4) 0.8186(3) 0.2945(4)
H4B H 0.3408 0.8073 0.3144
C10B C 0.38188(44) 0.7638(4) 0.3900(5)
C1E C 0.5199(4) 1.0397(4) 0.1655(6)
C2E C 0.5513(5) 1.1026(5) 0.0646(6)
N2E N 0.5357(4) 1.0715(4) 0.0000
O3E O 0.58958(25) 1.25079(17) 0.4149(3)
C3E C 0.54450(44) 1.0890(4) 0.1427(5)
C4E C 0.51251(34) 1.0250(3) 0.2450(6)
H1E H 0.5228 1.0455 0.2890
C5E C 0.5771(5) 1.1542(5) 0.0401(6)
H2E H 0.5908 1.1816 0.0730
C6E C 0.6104(4) 1.1471(3) 0.2343(5)
H3E H 0.6313 1.1371 0.2127
C7E C 0.56386(34) 1.1277(3) 0.2056(5)
C8E C 0.59944(44) 1.1989(4) 0.3254(5)
C9E C 0.6276(4) 1.1814(3) 0.2945(4)
H4E H 0.6592 1.1927 0.3144
C10E C 0.61812(44) 1.2362(4) 0.3900(5)
C1I C 0.4802(2) 0.9603(4) -0.1655(6)
N1F N 0.5000 1.0000 -0.1126(7)
C2I C 0.4487(2) 0.8974(5) -0.0646(6)
O3I O 0.33879(18) 0.74921(17) -0.4149(3)
C3I C 0.45550(18) 0.9110(4) -0.1427(5)
C4I C 0.48751(17) 0.9750(3) -0.2450(6)
H1I H 0.4773 0.9545 -0.2890
C5I C 0.4229(2) 0.8458(5) -0.0401(6)
H2I H 0.4092 0.8184 -0.0730
C6I C 0.4633(3) 0.8529(3) -0.2343(5)
H3I H 0.4942 0.8629 -0.2127
C7I C 0.43616(17) 0.8723(3) -0.2056(5)
C8I C 0.40054(18) 0.8011(4) -0.3254(5)
C9I C 0.4462(3) 0.8186(3) -0.2945(4)
H4I H 0.4665 0.8073 -0.3144
C10I C 0.38192(18) 0.7638(4) -0.3900(5)
O3Q O 0.41042(25) 0.74921(17) -0.4149(3)
C6Q C 0.3896(4) 0.8529(3) -0.2343(5)
H3Q H 0.3687 0.8629 -0.2127
C9Q C 0.3724(4) 0.8186(3) -0.2945(4)
H4Q H 0.3408 0.8073 -0.3144
O3R O 0.33879(18) 0.74921(17) 0.4149(3)
C6R C 0.4633(3) 0.8529(3) 0.2343(5)
H3R H 0.4942 0.8629 0.2127
C9R C 0.4462(3) 0.8186(3) 0.2945(4)
H4R H 0.4665 0.8073 0.3144
O3U O 0.66121(18) 1.25079(17) 0.4149(3)
C6U C 0.5367(3) 1.1471(3) 0.2343(5)
H3U H 0.5058 1.1371 0.2127
C9U C 0.5538(3) 1.1814(3) 0.2945(4)
H4U H 0.5335 1.1927 0.3144
C1F C 0.5198(2) 1.0397(4) -0.1655(6)
C2F C 0.5513(2) 1.1026(5) -0.0646(6)
O3F O 0.66121(18) 1.25079(17) -0.4149(3)
C3F C 0.54450(18) 1.0890(4) -0.1427(5)
C4F C 0.51249(17) 1.0250(3) -0.2450(6)
H1F H 0.5227 1.0455 -0.2890
C5F C 0.5771(2) 1.1542(5) -0.0401(6)
H2F H 0.5908 1.1816 -0.0730
C6F C 0.5367(3) 1.1471(3) -0.2343(5)
H3F H 0.5058 1.1371 -0.2127
C7F C 0.56384(17) 1.1277(3) -0.2056(5)
C8F C 0.59946(18) 1.1989(4) -0.3254(5)
C9F C 0.5538(3) 1.1814(3) -0.2945(4)
H4F H 0.5335 1.1927 -0.3144
C10F C 0.61808(18) 1.2362(4) -0.3900(5)
O3N O 0.58958(25) 1.25079(17) -0.4149(3)
C6N C 0.6104(4) 1.1471(3) -0.2343(5)
H3N H 0.6313 1.1371 -0.2127
C9N C 0.6276(4) 1.1814(3) -0.2945(4)
H4N H 0.6592 1.1927 -0.3144
Fe1C Fe -0.29784(4) 0.29784(4) 0.5000
Co1C Co 0.0000 0.507(2) 0.0000
O1C O -0.3333 0.3333 0.5000
O2C O -0.26039(17) 0.26039(17) 0.5000
O4C O 0.0000 0.5703(6) 0.0000
Fe1D Fe -0.29784(4) 0.40432(6) 0.5000
O2D O -0.26039(17) 0.47922(24) 0.5000
Fe1E Fe -0.40432(6) 0.29784(4) 0.5000
O2E O -0.47922(24) 0.26039(17) 0.5000
Co1D Co 0.493(2) 0.4930(20) 0.0000
O4D O 0.4297(6) 0.4297(6) 0.0000
Co1E Co 0.5070(20) 1.0000 0.0000
O4E O 0.5703(6) 1.0000 0.0000
Fe1_2 Fe 0.29784(4) 0.70216(4) -0.5000
Fe1A_2 Fe 0.29784(4) 0.59568(6) -0.5000
Fe1B_2 Fe 0.40432(6) 0.70216(4) -0.5000
Fe1C_2 Fe -0.29784(4) 0.29784(4) -0.5000
Fe1C_3 Fe 0.70216(4) 1.29784(4) -0.5000
Fe1C_4 Fe 0.70216(4) 1.29784(4) 0.5000
Fe1D_2 Fe -0.29784(4) 0.40432(6) -0.5000
Fe1D_3 Fe 0.70216(4) 0.40432(6) -0.5000
Fe1D_4 Fe 0.70216(4) 0.40432(6) 0.5000
Fe1E_2 Fe 0.59568(6) 0.29784(4) -0.5000
Fe1E_3 Fe 0.59568(6) 0.29784(4) 0.5000
Fe1E_4 Fe 0.59568(6) 1.29784(4) -0.5000
Fe1E_5 Fe 0.59568(6) 1.29784(4) 0.5000
O3D_2 O -0.33879(18) 0.41042(25) 0.4149(3)
O3E_2 O -0.41042(25) 0.25079(17) 0.4149(3)
O3F_2 O -0.33879(18) 0.25079(17) 0.5851(3)
O3G_2 O -0.41042(25) 0.33879(18) 0.5851(3)
O3H_2 O -0.25079(17) 0.41042(25) 0.5851(3)
O3I_2 O 0.33879(18) 0.74921(17) 0.5851(3)
O3J_2 O 0.41042(25) 0.66121(18) 0.5851(3)
O3K_2 O 0.25079(17) 0.58958(25) 0.5851(3)
O3L_2 O -0.25079(17) 0.33879(18) 0.5851(3)
O3M_2 O -0.33879(18) 0.41042(25) 0.5851(3)
O3N_2 O -0.41042(25) 0.25079(17) 0.5851(3)
O3O_2 O 0.25079(17) 0.66121(18) 0.5851(3)
O3P_2 O 0.33879(18) 0.58958(25) 0.5851(3)
O3Q_2 O 0.41042(25) 0.74921(17) 0.5851(3)
O3U_2 O -0.33879(18) 0.25079(17) 0.4149(3)
O3V_2 O -0.41042(25) 0.33879(18) 0.4149(3)
loop_
_geom_bond_atom_site_label_1
_geom_bond_atom_site_label_2
_geom_bond_site_symmetry_1
_geom_bond_site_symmetry_2
Fe1 O1 1_555 1_555
Co1 N1 1_555 1_555
O1 Fe1A 1_555 1_555
C1 N1 1_555 1_555
N1 C1C 1_555 1_555
C2 N2 1_555 1_555
O2 Fe1 1_555 1_555
N2 Co1 1_555 1_555
O3 Fe1 1_555 1_555
C3 C1 1_555 1_555
C4 C1 1_555 1_555
H1 C4 1_555 1_555
O4 Co1 1_555 1_555
C5 C2 1_555 1_555
H2 C5 1_555 1_555
C6 H3 1_555 1_555
C7 C3 1_555 1_555
C8 C9 1_555 1_555
C9 C6 1_555 1_555
H4 C9 1_555 1_555
C10 O3 1_555 1_555
C1C C3C 1_555 1_555
C2C N2C 1_555 1_555
N2C Co1 1_555 1_555
O3C C10C 1_555 1_555
C3C C2C 1_555 1_555
C4C C4 1_555 1_555
H1C C4C 1_555 1_555
C5C C2C 1_555 1_555
H2C C5C 1_555 1_555
C6C H3C 1_555 1_555
C7C C3C 1_555 1_555
C8C C9C 1_555 1_555
C9C C6C 1_555 1_555
H4C C9C 1_555 1_555
C10C C8C 1_555 1_555
C1K N1H 1_555 1_555
N1H Co1 1_555 1_555
C2K N2 1_555 1_555
O3K C10K 1_555 1_555
C3K C1K 1_555 1_555
C4K C1K 1_555 1_555
H1K C4K 1_555 1_555
C5K C5 1_555 1_555
H2K C5K 1_555 1_555
C6K H3K 1_555 1_555
C7K C3K 1_555 1_555
C8K C9K 1_555 1_555
C9K C6K 1_555 1_555
H4K C9K 1_555 1_555
C10K C8K 1_555 1_555
O3O C10K 1_555 1_555
C6O C7K 1_555 1_555
H3O C6O 1_555 1_555
C9O C8K 1_555 1_555
H4O C9O 1_555 1_555
O3T C10 1_555 1_555
C6T C7 1_555 1_555
H3T C6T 1_555 1_555
C9T C8 1_555 1_555
H4T C9T 1_555 1_555
O3W C10C 1_555 1_555
C6W C7C 1_555 1_555
H3W C6W 1_555 1_555
C9W C8C 1_555 1_555
H4W C9W 1_555 1_555
C1H N1H 1_555 1_555
C2H N2C 1_555 1_555
O3H C10H 1_555 1_555
C3H C1H 1_555 1_555
C4H C4K 1_555 1_555
H1H C4H 1_555 1_555
C5H C5C 1_555 1_555
H2H C5H 1_555 1_555
C6H H3H 1_555 1_555
C7H C3H 1_555 1_555
C8H C9H 1_555 1_555
C9H C6H 1_555 1_555
H4H C9H 1_555 1_555
C10H C8H 1_555 1_555
O3L C10H 1_555 1_555
C6L C7H 1_555 1_555
H3L C6L 1_555 1_555
C9L C8H 1_555 1_555
H4L C9L 1_555 1_555
Fe1A O3T 1_555 1_555
Co1A N1A 1_555 1_555
C1A N1A 1_555 1_555
N1A C1D 1_555 1_555
C2A N2A 1_555 1_555
O2A Fe1A 1_555 1_555
N2A Co1A 1_555 1_555
O3A Fe1A 1_555 1_555
C3A C1A 1_555 1_555
C4A C1A 1_555 1_555
H1A C4A 1_555 1_555
O4A Co1A 1_555 1_555
C5A C2A 1_555 1_555
H2A C5A 1_555 1_555
C6A H3A 1_555 1_555
C7A C3A 1_555 1_555
C8A C9A 1_555 1_555
C9A C6A 1_555 1_555
H4A C9A 1_555 1_555
C10A O3A 1_555 1_555
C1D C3D 1_555 1_555
C2D N2D 1_555 1_555
N2D Co1A 1_555 1_555
O3D C10D 1_555 1_555
C3D C2D 1_555 1_555
C4D C4A 1_555 1_555
H1D C4D 1_555 1_555
C5D C2D 1_555 1_555
H2D C5D 1_555 1_555
C6D H3D 1_555 1_555
C7D C3D 1_555 1_555
C8D C9D 1_555 1_555
C9D C6D 1_555 1_555
H4D C9D 1_555 1_555
C10D C8D 1_555 1_555
C1J N1G 1_555 1_555
N1G Co1A 1_555 1_555
C2J N2A 1_555 1_555
O3J C10J 1_555 1_555
C3J C1J 1_555 1_555
C4J C1J 1_555 1_555
H1J C4J 1_555 1_555
C5J C5A 1_555 1_555
H2J C5J 1_555 1_555
C6J H3J 1_555 1_555
C7J C3J 1_555 1_555
C8J C9J 1_555 1_555
C9J C6J 1_555 1_555
H4J C9J 1_555 1_555
C10J C8J 1_555 1_555
O3P C10J 1_555 1_555
C6P C7J 1_555 1_555
H3P C6P 1_555 1_555
C9P C8J 1_555 1_555
H4P C9P 1_555 1_555
O3S C10A 1_555 1_555
C6S C7A 1_555 1_555
H3S C6S 1_555 1_555
C9S C8A 1_555 1_555
H4S C9S 1_555 1_555
O3V C10D 1_555 1_555
C6V C7D 1_555 1_555
H3V C6V 1_555 1_555
C9V C8D 1_555 1_555
H4V C9V 1_555 1_555
C1G N1G 1_555 1_555
C2G N2D 1_555 1_555
O3G C10G 1_555 1_555
C3G C1G 1_555 1_555
C4G C4J 1_555 1_555
H1G C4G 1_555 1_555
C5G C5D 1_555 1_555
H2G C5G 1_555 1_555
C6G H3G 1_555 1_555
C7G C3G 1_555 1_555
C8G C9G 1_555 1_555
C9G C6G 1_555 1_555
H4G C9G 1_555 1_555
C10G C8G 1_555 1_555
O3M C10G 1_555 1_555
C6M C7G 1_555 1_555
H3M C6M 1_555 1_555
C9M C8G 1_555 1_555
H4M C9M 1_555 1_555
Fe1B O1 1_555 1_555
Co1B N1B 1_555 1_555
C1B N1B 1_555 1_555
N1B C1E 1_555 1_555
C2B N2B 1_555 1_555
O2B Fe1B 1_555 1_555
N2B Co1B 1_555 1_555
O3B Fe1B 1_555 1_555
C3B C1B 1_555 1_555
C4B C1B 1_555 1_555
H1B C4B 1_555 1_555
O4B Co1B 1_555 1_555
C5B C2B 1_555 1_555
H2B C5B 1_555 1_555
C6B H3B 1_555 1_555
C7B C3B 1_555 1_555
C8B C9B 1_555 1_555
C9B C6B 1_555 1_555
H4B C9B 1_555 1_555
C10B O3B 1_555 1_555
C1E C3E 1_555 1_555
C2E N2E 1_555 1_555
N2E Co1B 1_555 1_555
O3E C10E 1_555 1_555
C3E C2E 1_555 1_555
C4E C4B 1_555 1_555
H1E C4E 1_555 1_555
C5E C2E 1_555 1_555
H2E C5E 1_555 1_555
C6E H3E 1_555 1_555
C7E C3E 1_555 1_555
C8E C9E 1_555 1_555
C9E C6E 1_555 1_555
H4E C9E 1_555 1_555
C10E C8E 1_555 1_555
C1I N1F 1_555 1_555
N1F Co1B 1_555 1_555
C2I N2B 1_555 1_555
O3I C10I 1_555 1_555
C3I C1I 1_555 1_555
C4I C1I 1_555 1_555
H1I C4I 1_555 1_555
C5I C5B 1_555 1_555
H2I C5I 1_555 1_555
C6I H3I 1_555 1_555
C7I C3I 1_555 1_555
C8I C9I 1_555 1_555
C9I C6I 1_555 1_555
H4I C9I 1_555 1_555
C10I C8I 1_555 1_555
O3Q C10I 1_555 1_555
C6Q C7I 1_555 1_555
H3Q C6Q 1_555 1_555
C9Q C8I 1_555 1_555
H4Q C9Q 1_555 1_555
O3R Fe1 1_555 1_555
C6R C7B 1_555 1_555
H3R C6R 1_555 1_555
C9R C8B 1_555 1_555
H4R C9R 1_555 1_555
O3U C10E 1_555 1_555
C6U C7E 1_555 1_555
H3U C6U 1_555 1_555
C9U C8E 1_555 1_555
H4U C9U 1_555 1_555
C1F N1F 1_555 1_555
C2F N2E 1_555 1_555
O3F C10F 1_555 1_555
C3F C1F 1_555 1_555
C4F C4I 1_555 1_555
H1F C4F 1_555 1_555
C5F C5E 1_555 1_555
H2F C5F 1_555 1_555
C6F H3F 1_555 1_555
C7F C3F 1_555 1_555
C8F C9F 1_555 1_555
C9F C6F 1_555 1_555
H4F C9F 1_555 1_555
C10F C8F 1_555 1_555
O3N C10F 1_555 1_555
C6N C7F 1_555 1_555
H3N C6N 1_555 1_555
C9N C8F 1_555 1_555
H4N C9N 1_555 1_555
Fe1C O3C 1_555 1_555
Co1C N1 1_555 1_555
O1C Fe1C 1_555 1_555
O2C Fe1C 1_555 1_555
O4C Co1 1_555 1_555
Fe1D O3W 1_555 1_555
O2D Fe1D 1_555 1_555
Fe1E O1C 1_555 1_555
O2E Fe1E 1_555 1_555
Co1D N1A 1_555 1_555
O4D Co1A 1_555 1_555
Co1E N1B 1_555 1_555
O4E Co1B 1_555 1_555
Fe1_2 O3O 1_555 1_555
Fe1A_2 O3K 1_555 1_555
Fe1B_2 O3J 1_555 1_555
Fe1C_2 O3L 1_555 1_555
Fe1C_3 O3F 1_555 1_555
Fe1C_4 O3U 1_555 1_555
Fe1D_2 O3H 1_555 1_555
Fe1D_3 O3M 1_555 1_555
Fe1D_4 O3D 1_555 1_555
Fe1E_2 O3G 1_555 1_555
Fe1E_3 O3V 1_555 1_555
Fe1E_4 O3N 1_555 1_555
Fe1E_5 O3E 1_555 1_555
O3D_2 Fe1D 1_555 1_555
O3E_2 Fe1E 1_555 1_555
O3F_2 Fe1C 1_555 1_555
O3G_2 Fe1E 1_555 1_555
O3H_2 Fe1D 1_555 1_555
O3I_2 Fe1 1_555 1_555
O3J_2 Fe1B 1_555 1_555
O3K_2 Fe1A 1_555 1_555
O3L_2 Fe1C 1_555 1_555
O3M_2 Fe1D 1_555 1_555
O3N_2 Fe1E 1_555 1_555
O3O_2 Fe1 1_555 1_555
O3P_2 Fe1A 1_555 1_555
O3Q_2 Fe1B 1_555 1_555
O3U_2 Fe1C 1_555 1_555
O3V_2 Fe1E 1_555 1_555
C2 C3 1_555 1_555
N2 Co1C 1_555 1_555
O4 Co1C 1_555 1_555
C6 C7 1_555 1_555
C8 C10 1_555 1_555
C1C C4C 1_555 1_555
N2C Co1C 1_555 1_555
C6C C7C 1_555 1_555
N1H Co1C 1_555 1_555
C2K C3K 1_555 1_555
C2K C5K 1_555 1_555
C6K C7K 1_555 1_555
C6O C9O 1_555 1_555
C6T C9T 1_555 1_555
C6W C9W 1_555 1_555
C1H C4H 1_555 1_555
C2H C3H 1_555 1_555
C2H C5H 1_555 1_555
C6H C7H 1_555 1_555
C6L C9L 1_555 1_555
C2A C3A 1_555 1_555
N2A Co1D 1_555 1_555
O4A Co1D 1_555 1_555
C6A C7A 1_555 1_555
C8A C10A 1_555 1_555
C1D C4D 1_555 1_555
N2D Co1D 1_555 1_555
C6D C7D 1_555 1_555
N1G Co1D 1_555 1_555
C2J C3J 1_555 1_555
C2J C5J 1_555 1_555
C6J C7J 1_555 1_555
O3P Fe1A_2 1_555 1_555
C6P C9P 1_555 1_555
O3S Fe1B 1_555 1_555
C6S C9S 1_555 1_555
C6V C9V 1_555 1_555
C1G C4G 1_555 1_555
C2G C3G 1_555 1_555
C2G C5G 1_555 1_555
C6G C7G 1_555 1_555
C6M C9M 1_555 1_555
C2B C3B 1_555 1_555
N2B Co1E 1_555 1_555
O4B Co1E 1_555 1_555
C6B C7B 1_555 1_555
C8B C10B 1_555 1_555
C10B O3R 1_555 1_555
C1E C4E 1_555 1_555
N2E Co1E 1_555 1_555
C6E C7E 1_555 1_555
N1F Co1E 1_555 1_555
C2I C3I 1_555 1_555
C2I C5I 1_555 1_555
O3I Fe1_2 1_555 1_555
C6I C7I 1_555 1_555
O3Q Fe1B_2 1_555 1_555
C6Q C9Q 1_555 1_555
C6R C9R 1_555 1_555
C6U C9U 1_555 1_555
C1F C4F 1_555 1_555
C2F C3F 1_555 1_555
C2F C5F 1_555 1_555
C6F C7F 1_555 1_555
C6N C9N 1_555 1_555
Co1C O4C 1_555 1_555
O1C Fe1D 1_555 1_555
Co1D O4D 1_555 1_555
Co1E O4E 1_555 1_555

#END
