
#######################################################################
#
#                 Cambridge Crystallographic Data Centre
#                                CCDC 
#
#######################################################################
#
# If this CIF has been generated from an entry in the Cambridge 
# Structural Database, then it will include bibliographic, chemical, 
# crystal, experimental, refinement or atomic coordinate data resulting 
# from the CCDC's data processing and validation procedures.
#
#######################################################################

data_DAJVOC
_chemical_formula_moiety         'C144 H72 Co6 Mg19 N12 O54'
_symmetry_cell_setting           hexagonal
_symmetry_space_group_name_H-M   'P 6/m m m'
_symmetry_Int_Tables_number      191
_space_group_name_Hall           '-P 6 2'
loop_
_symmetry_equiv_pos_site_id
_symmetry_equiv_pos_as_xyz
1 x,y,z
2 -y,x-y,z
3 -x+y,-x,z
4 -x,-y,z
5 y,-x+y,z
6 x-y,x,z
7 y,x,-z
8 x-y,-y,-z
9 -x,-x+y,-z
10 -y,-x,-z
11 -x+y,y,-z
12 x,x-y,-z
13 -x,-y,-z
14 y,-x+y,-z
15 x-y,x,-z
16 x,y,-z
17 -y,x-y,-z
18 -x+y,-x,-z
19 -y,-x,z
20 -x+y,y,z
21 x,x-y,z
22 y,x,z
23 x-y,-y,z
24 -x,-x+y,z
_cell_length_a                   32.032(2)
_cell_length_b                   32.032(2)
_cell_length_c                   16.7024(12)
_cell_angle_alpha                90
_cell_angle_beta                 90
_cell_angle_gamma                120
_cell_volume                     14841.5
loop_
_atom_site_label
_atom_site_type_symbol
_atom_site_fract_x
_atom_site_fract_y
_atom_site_fract_z
O1 O 0.74083(14) 0.25917(14) 1.0000
Co1 Co 0.5080(6) 0.0000 0.5000
Mg1 Mg 0.70272(6) 0.29728(6) 1.0000
C1 C 0.5195(2) 0.0391(4) 0.6660(6)
N1 N 0.5000 0.0000 0.6165(7)
C2 C 0.54320(18) 0.0864(4) 0.6453(5)
O2 O 0.65980(16) 0.25051(17) 0.9126(3)
N2 N 0.53504(19) 0.0701(4) 0.5000
C3 C 0.55004(19) 0.1001(4) 0.5668(6)
O3 O 0.6667 0.3333 1.0000
C4 C 0.51233(15) 0.0247(3) 0.7499(6)
H1 H 0.5224 0.0448 0.7943
O4 O 0.5648(4) 0.0000 0.5000
C5 C 0.5747(2) 0.1493(4) 0.5404(5)
H2 H 0.5882 0.1764 0.5732
C6 C 0.5353(3) 0.1438(3) 0.7387(5)
H3 H 0.5042 0.1322 0.7194
C7 C 0.56285(16) 0.1257(3) 0.7088(5)
C8 C 0.5532(2) 0.1790(3) 0.7969(4)
H4 H 0.5337 0.1905 0.8170
C9 C 0.59858(17) 0.1972(3) 0.8254(5)
C10 C 0.61809(19) 0.2362(4) 0.8890(5)
C1C C 0.4805(2) -0.0391(4) 0.6660(6)
C2C C 0.45680(18) -0.0864(4) 0.6453(5)
O2C O 0.34020(16) -0.25051(17) 0.9126(3)
N2C N 0.46496(19) -0.0701(4) 0.5000
C3C C 0.44996(19) -0.1001(4) 0.5668(6)
C4C C 0.48767(15) -0.0247(3) 0.7499(6)
H1C H 0.4776 -0.0448 0.7943
C5C C 0.4253(2) -0.1493(4) 0.5404(5)
H2C H 0.4118 -0.1764 0.5732
C6C C 0.4647(3) -0.1438(3) 0.7387(5)
H3C H 0.4958 -0.1322 0.7194
C7C C 0.43715(16) -0.1257(3) 0.7088(5)
C8C C 0.4468(2) -0.1790(3) 0.7969(4)
H4C H 0.4663 -0.1905 0.8170
C9C C 0.40142(17) -0.1972(3) 0.8254(5)
C10C C 0.38191(19) -0.2362(4) 0.8890(5)
C1J C 0.5196(4) 0.0391(4) 0.3340(6)
N1G N 0.5000 0.0000 0.3835(7)
C2J C 0.54320(44) 0.0864(4) 0.3547(5)
O2J O 0.59071(23) 0.25051(17) 0.0874(3)
C3J C 0.55006(44) 0.1001(4) 0.4332(6)
C4J C 0.51237(34) 0.0247(3) 0.2501(6)
H1J H 0.5224 0.0448 0.2057
C5J C 0.5746(4) 0.1493(4) 0.4596(5)
H2J H 0.5882 0.1764 0.4268
C6J C 0.6085(4) 0.1438(3) 0.2613(5)
H3J H 0.6280 0.1322 0.2806
C7J C 0.56285(34) 0.1257(3) 0.2912(5)
C8J C 0.6258(4) 0.1790(3) 0.2031(4)
H4J H 0.6568 0.1905 0.1830
C9J C 0.59862(34) 0.1972(3) 0.1746(5)
C10J C 0.61811(44) 0.2362(4) 0.1110(5)
O2O O 0.65980(16) 0.25051(17) 0.0874(3)
C6O C 0.5353(3) 0.1438(3) 0.2613(5)
H3O H 0.5042 0.1322 0.2806
C8O C 0.5532(2) 0.1790(3) 0.2031(4)
H4O H 0.5337 0.1905 0.1830
O2S O 0.59071(23) 0.25051(17) 0.9126(3)
C6S C 0.6085(4) 0.1438(3) 0.7387(5)
H3S H 0.6280 0.1322 0.7194
C8S C 0.6258(4) 0.1790(3) 0.7969(4)
H4S H 0.6568 0.1905 0.8170
O2V O 0.40929(23) -0.25051(17) 0.9126(3)
C6V C 0.3915(4) -0.1438(3) 0.7387(5)
H3V H 0.3720 -0.1322 0.7194
C8V C 0.3742(4) -0.1790(3) 0.7969(4)
H4V H 0.3432 -0.1905 0.8170
C1G C 0.4804(4) -0.0391(4) 0.3340(6)
C2G C 0.45680(44) -0.0864(4) 0.3547(5)
O2G O 0.40929(23) -0.25051(17) 0.0874(3)
C3G C 0.44994(44) -0.1001(4) 0.4332(6)
C4G C 0.48763(34) -0.0247(3) 0.2501(6)
H1G H 0.4776 -0.0448 0.2057
C5G C 0.4254(4) -0.1493(4) 0.4596(5)
H2G H 0.4118 -0.1764 0.4268
C6G C 0.3915(4) -0.1438(3) 0.2613(5)
H3G H 0.3720 -0.1322 0.2806
C7G C 0.43715(34) -0.1257(3) 0.2912(5)
C8G C 0.3742(4) -0.1790(3) 0.2031(4)
H4G H 0.3432 -0.1905 0.1830
C9G C 0.40138(34) -0.1972(3) 0.1746(5)
C10G C 0.38189(44) -0.2362(4) 0.1110(5)
O2L O 0.34020(16) -0.25051(17) 0.0874(3)
C6L C 0.4647(3) -0.1438(3) 0.2613(5)
H3L H 0.4958 -0.1322 0.2806
C8L C 0.4468(2) -0.1790(3) 0.2031(4)
H4L H 0.4663 -0.1905 0.1830
O1A O 0.74083(14) 0.48166(20) 1.0000
Co1A Co 1.0000 0.5080(6) 0.5000
Mg1A Mg 0.70272(6) 0.40544(8) 1.0000
C1A C 0.9609(4) 0.4804(4) 0.6660(6)
N1A N 1.0000 0.5000 0.6165(7)
C2A C 0.9136(4) 0.45680(44) 0.6453(5)
O2A O 0.74949(17) 0.40929(23) 0.9126(3)
N2A N 0.9299(4) 0.46494(44) 0.5000
C3A C 0.8999(4) 0.44994(44) 0.5668(6)
C4A C 0.9753(3) 0.48763(34) 0.7499(6)
H1A H 0.9552 0.4776 0.7943
O4A O 1.0000 0.5648(4) 0.5000
C5A C 0.8507(4) 0.4254(4) 0.5404(5)
H2A H 0.8236 0.4118 0.5732
C6A C 0.8562(3) 0.3915(4) 0.7387(5)
H3A H 0.8678 0.3720 0.7194
C7A C 0.8743(3) 0.43715(34) 0.7088(5)
C8A C 0.8210(3) 0.3742(4) 0.7969(4)
H4A H 0.8095 0.3432 0.8170
C9A C 0.8028(3) 0.40138(34) 0.8254(5)
C10A C 0.7638(4) 0.38189(44) 0.8890(5)
C1D C 1.0391(4) 0.5196(4) 0.6660(6)
C2D C 1.0864(4) 0.54320(44) 0.6453(5)
O2D O 1.25051(17) 0.59071(23) 0.9126(3)
N2D N 1.0701(4) 0.53506(44) 0.5000
C3D C 1.1001(4) 0.55006(44) 0.5668(6)
C4D C 1.0247(3) 0.51237(34) 0.7499(6)
H1D H 1.0448 0.5224 0.7943
C5D C 1.1493(4) 0.5746(4) 0.5404(5)
H2D H 1.1764 0.5882 0.5732
C6D C 1.1438(3) 0.6085(4) 0.7387(5)
H3D H 1.1322 0.6280 0.7194
C7D C 1.1257(3) 0.56285(34) 0.7088(5)
C8D C 1.1790(3) 0.6258(4) 0.7969(4)
H4D H 1.1905 0.6568 0.8170
C9D C 1.1972(3) 0.59862(34) 0.8254(5)
C10D C 1.2362(4) 0.61811(44) 0.8890(5)
C1I C 0.9609(4) 0.4805(2) 0.3340(6)
N1F N 1.0000 0.5000 0.3835(7)
C2I C 0.9136(4) 0.45680(18) 0.3547(5)
O2I O 0.74949(17) 0.34020(16) 0.0874(3)
C3I C 0.8999(4) 0.44996(19) 0.4332(6)
C4I C 0.9753(3) 0.48767(15) 0.2501(6)
H1I H 0.9552 0.4776 0.2057
C5I C 0.8507(4) 0.4253(2) 0.4596(5)
H2I H 0.8236 0.4118 0.4268
C6I C 0.8562(3) 0.4647(3) 0.2613(5)
H3I H 0.8678 0.4958 0.2806
C7I C 0.8743(3) 0.43715(16) 0.2912(5)
C8I C 0.8210(3) 0.4468(2) 0.2031(4)
H4I H 0.8095 0.4663 0.1830
C9I C 0.8028(3) 0.40142(17) 0.1746(5)
C10I C 0.7638(4) 0.38191(19) 0.1110(5)
O2P O 0.74949(17) 0.40929(23) 0.0874(3)
C6P C 0.8562(3) 0.3915(4) 0.2613(5)
H3P H 0.8678 0.3720 0.2806
C8P C 0.8210(3) 0.3742(4) 0.2031(4)
H4P H 0.8095 0.3432 0.1830
O2R O 0.74949(17) 0.34020(16) 0.9126(3)
C6R C 0.8562(3) 0.4647(3) 0.7387(5)
H3R H 0.8678 0.4958 0.7194
C8R C 0.8210(3) 0.4468(2) 0.7969(4)
H4R H 0.8095 0.4663 0.8170
O2U O 1.25051(17) 0.65980(16) 0.9126(3)
C6U C 1.1438(3) 0.5353(3) 0.7387(5)
H3U H 1.1322 0.5042 0.7194
C8U C 1.1790(3) 0.5532(2) 0.7969(4)
H4U H 1.1905 0.5337 0.8170
C1F C 1.0391(4) 0.5195(2) 0.3340(6)
C2F C 1.0864(4) 0.54320(18) 0.3547(5)
O2F O 1.25051(17) 0.65980(16) 0.0874(3)
C3F C 1.1001(4) 0.55004(19) 0.4332(6)
C4F C 1.0247(3) 0.51233(15) 0.2501(6)
H1F H 1.0448 0.5224 0.2057
C5F C 1.1493(4) 0.5747(2) 0.4596(5)
H2F H 1.1764 0.5882 0.4268
C6F C 1.1438(3) 0.5353(3) 0.2613(5)
H3F H 1.1322 0.5042 0.2806
C7F C 1.1257(3) 0.56285(16) 0.2912(5)
C8F C 1.1790(3) 0.5532(2) 0.2031(4)
H4F H 1.1905 0.5337 0.1830
C9F C 1.1972(3) 0.59858(17) 0.1746(5)
C10F C 1.2362(4) 0.61809(19) 0.1110(5)
O2M O 1.25051(17) 0.59071(23) 0.0874(3)
C6M C 1.1438(3) 0.6085(4) 0.2613(5)
H3M H 1.1322 0.6280 0.2806
C8M C 1.1790(3) 0.6258(4) 0.2031(4)
H4M H 1.1905 0.6568 0.1830
O1B O 0.51834(20) 0.25917(14) 1.0000
Co1B Co 0.4920(6) 0.4920(6) 0.5000
Mg1B Mg 0.59456(8) 0.29728(6) 1.0000
C1B C 0.5196(4) 0.4805(2) 0.6660(6)
N1B N 0.5000 0.5000 0.6165(7)
C2B C 0.54320(44) 0.45680(18) 0.6453(5)
O2B O 0.59071(23) 0.34020(16) 0.9126(3)
N2B N 0.53506(44) 0.46496(19) 0.5000
C3B C 0.55006(44) 0.44996(19) 0.5668(6)
C4B C 0.51237(34) 0.48767(15) 0.7499(6)
H1B H 0.5224 0.4776 0.7943
O4B O 0.4352(4) 0.4352(4) 0.5000
C5B C 0.5746(4) 0.4253(2) 0.5404(5)
H2B H 0.5882 0.4118 0.5732
C6B C 0.6085(4) 0.4647(3) 0.7387(5)
H3B H 0.6280 0.4958 0.7194
C7B C 0.56285(34) 0.43715(16) 0.7088(5)
C8B C 0.6258(4) 0.4468(2) 0.7969(4)
H4B H 0.6568 0.4663 0.8170
C9B C 0.59862(34) 0.40142(17) 0.8254(5)
C10B C 0.61811(44) 0.38191(19) 0.8890(5)
C1E C 0.4804(4) 0.5195(2) 0.6660(6)
C2E C 0.45680(44) 0.54320(18) 0.6453(5)
O2E O 0.40929(23) 0.65980(16) 0.9126(3)
N2E N 0.46494(44) 0.53504(19) 0.5000
C3E C 0.44994(44) 0.55004(19) 0.5668(6)
C4E C 0.48763(34) 0.51233(15) 0.7499(6)
H1E H 0.4776 0.5224 0.7943
C5E C 0.4254(4) 0.5747(2) 0.5404(5)
H2E H 0.4118 0.5882 0.5732
C6E C 0.3915(4) 0.5353(3) 0.7387(5)
H3E H 0.3720 0.5042 0.7194
C7E C 0.43715(34) 0.56285(16) 0.7088(5)
C8E C 0.3742(4) 0.5532(2) 0.7969(4)
H4E H 0.3432 0.5337 0.8170
C9E C 0.40138(34) 0.59858(17) 0.8254(5)
C10E C 0.38189(44) 0.61809(19) 0.8890(5)
C1K C 0.5195(2) 0.4804(4) 0.3340(6)
N1H N 0.5000 0.5000 0.3835(7)
C2K C 0.54320(18) 0.45680(44) 0.3547(5)
O2K O 0.65980(16) 0.40929(23) 0.0874(3)
C3K C 0.55004(19) 0.44994(44) 0.4332(6)
C4K C 0.51233(15) 0.48763(34) 0.2501(6)
H1K H 0.5224 0.4776 0.2057
C5K C 0.5747(2) 0.4254(4) 0.4596(5)
H2K H 0.5882 0.4118 0.4268
C6K C 0.5353(3) 0.3915(4) 0.2613(5)
H3K H 0.5042 0.3720 0.2806
C7K C 0.56285(16) 0.43715(34) 0.2912(5)
C8K C 0.5532(2) 0.3742(4) 0.2031(4)
H4K H 0.5337 0.3432 0.1830
C9K C 0.59858(17) 0.40138(34) 0.1746(5)
C10K C 0.61809(19) 0.38189(44) 0.1110(5)
O2Q O 0.59071(23) 0.34020(16) 0.0874(3)
C6Q C 0.6085(4) 0.4647(3) 0.2613(5)
H3Q H 0.6280 0.4958 0.2806
C8Q C 0.6258(4) 0.4468(2) 0.2031(4)
H4Q H 0.6568 0.4663 0.1830
O2T O 0.65980(16) 0.40929(23) 0.9126(3)
C6T C 0.5353(3) 0.3915(4) 0.7387(5)
H3T H 0.5042 0.3720 0.7194
C8T C 0.5532(2) 0.3742(4) 0.7969(4)
H4T H 0.5337 0.3432 0.8170
O2W O 0.34020(16) 0.59071(23) 0.9126(3)
C6W C 0.4647(3) 0.6085(4) 0.7387(5)
H3W H 0.4958 0.6280 0.7194
C8W C 0.4468(2) 0.6258(4) 0.7969(4)
H4W H 0.4663 0.6568 0.8170
C1H C 0.4805(2) 0.5196(4) 0.3340(6)
C2H C 0.45680(18) 0.54320(44) 0.3547(5)
O2H O 0.34020(16) 0.59071(23) 0.0874(3)
C3H C 0.44996(19) 0.55006(44) 0.4332(6)
C4H C 0.48767(15) 0.51237(34) 0.2501(6)
H1H H 0.4776 0.5224 0.2057
C5H C 0.4253(2) 0.5746(4) 0.4596(5)
H2H H 0.4118 0.5882 0.4268
C6H C 0.4647(3) 0.6085(4) 0.2613(5)
H3H H 0.4958 0.6280 0.2806
C7H C 0.43715(16) 0.56285(34) 0.2912(5)
C8H C 0.4468(2) 0.6258(4) 0.2031(4)
H4H H 0.4663 0.6568 0.1830
C9H C 0.40142(17) 0.59862(34) 0.1746(5)
C10H C 0.38191(19) 0.61811(44) 0.1110(5)
O2N O 0.40929(23) 0.65980(16) 0.0874(3)
C6N C 0.3915(4) 0.5353(3) 0.2613(5)
H3N H 0.3720 0.5042 0.2806
C8N C 0.3742(4) 0.5532(2) 0.2031(4)
H4N H 0.3432 0.5337 0.1830
O1C O 0.25917(14) -0.25917(14) 1.0000
Co1C Co 0.4920(6) 0.0000 0.5000
Mg1C Mg 0.29728(6) -0.29728(6) 1.0000
O3C O 0.3333 -0.3333 1.0000
O4C O 0.4352(4) 0.0000 0.5000
O1D O 0.25917(14) -0.48166(20) 1.0000
Mg1D Mg 0.29728(6) -0.40544(8) 1.0000
O1E O 0.48166(20) -0.25917(14) 1.0000
Mg1E Mg 0.40544(8) -0.29728(6) 1.0000
Co1D Co 1.0000 0.4920(6) 0.5000
O4D O 1.0000 0.4352(4) 0.5000
Co1E Co 0.5080(6) 0.5080(6) 0.5000
O4E O 0.5648(4) 0.5648(4) 0.5000
Mg1_2 Mg 0.70272(6) 0.29728(6) 0.0000
Mg1A_2 Mg 0.70272(6) 0.40544(8) 0.0000
Mg1B_2 Mg 0.59456(8) 0.29728(6) 0.0000
Mg1C_2 Mg 0.29728(6) -0.29728(6) 0.0000
Mg1C_3 Mg 1.29728(6) 0.70272(6) 0.0000
Mg1C_4 Mg 1.29728(6) 0.70272(6) 1.0000
Mg1D_2 Mg 0.29728(6) 0.59456(8) 0.0000
Mg1D_3 Mg 0.29728(6) 0.59456(8) 1.0000
Mg1D_4 Mg 1.29728(6) 0.59456(8) 0.0000
Mg1D_5 Mg 1.29728(6) 0.59456(8) 1.0000
Mg1E_2 Mg 0.40544(8) -0.29728(6) 0.0000
Mg1E_3 Mg 0.40544(8) 0.70272(6) 0.0000
Mg1E_4 Mg 0.40544(8) 0.70272(6) 1.0000
O2D_2 O 0.25051(17) -0.40929(23) 0.9126(3)
O2E_2 O 0.40929(23) -0.34020(16) 0.9126(3)
O2F_2 O 0.25051(17) -0.34020(16) 1.0874(3)
O2G_2 O 0.40929(23) -0.25051(17) 1.0874(3)
O2H_2 O 0.34020(16) -0.40929(23) 1.0874(3)
O2I_2 O 0.74949(17) 0.34020(16) 1.0874(3)
O2J_2 O 0.59071(23) 0.25051(17) 1.0874(3)
O2K_2 O 0.65980(16) 0.40929(23) 1.0874(3)
O2L_2 O 0.34020(16) -0.25051(17) 1.0874(3)
O2M_2 O 0.25051(17) -0.40929(23) 1.0874(3)
O2N_2 O 0.40929(23) -0.34020(16) 1.0874(3)
O2O_2 O 0.65980(16) 0.25051(17) 1.0874(3)
O2P_2 O 0.74949(17) 0.40929(23) 1.0874(3)
O2Q_2 O 0.59071(23) 0.34020(16) 1.0874(3)
O2U_2 O 0.25051(17) -0.34020(16) 0.9126(3)
O2W_2 O 0.34020(16) -0.40929(23) 0.9126(3)
loop_
_geom_bond_atom_site_label_1
_geom_bond_atom_site_label_2
_geom_bond_site_symmetry_1
_geom_bond_site_symmetry_2
O1 Mg1 1_555 1_555
Co1 N1 1_555 1_555
Mg1 O2 1_555 1_555
C1 N1 1_555 1_555
N1 C1C 1_555 1_555
C2 C1 1_555 1_555
O2 C10 1_555 1_555
N2 Co1 1_555 1_555
C3 C2 1_555 1_555
O3 Mg1 1_555 1_555
C4 C1 1_555 1_555
H1 C4 1_555 1_555
O4 Co1 1_555 1_555
C5 C3 1_555 1_555
H2 C5 1_555 1_555
C6 H3 1_555 1_555
C7 C2 1_555 1_555
C8 C6 1_555 1_555
H4 C8 1_555 1_555
C9 C8 1_555 1_555
C10 C9 1_555 1_555
C1C C2C 1_555 1_555
C2C C3C 1_555 1_555
O2C C10C 1_555 1_555
N2C Co1 1_555 1_555
C3C N2C 1_555 1_555
C4C C4 1_555 1_555
H1C C4C 1_555 1_555
C5C C3C 1_555 1_555
H2C C5C 1_555 1_555
C6C H3C 1_555 1_555
C7C C2C 1_555 1_555
C8C C6C 1_555 1_555
H4C C8C 1_555 1_555
C9C C8C 1_555 1_555
C10C C9C 1_555 1_555
C1J N1G 1_555 1_555
N1G Co1 1_555 1_555
C2J C1J 1_555 1_555
O2J C10J 1_555 1_555
C3J N2 1_555 1_555
C4J C1J 1_555 1_555
H1J C4J 1_555 1_555
C5J C5 1_555 1_555
H2J C5J 1_555 1_555
C6J H3J 1_555 1_555
C7J C2J 1_555 1_555
C8J C6J 1_555 1_555
H4J C8J 1_555 1_555
C9J C8J 1_555 1_555
C10J C9J 1_555 1_555
O2O C10J 1_555 1_555
C6O C7J 1_555 1_555
H3O C6O 1_555 1_555
C8O C9J 1_555 1_555
H4O C8O 1_555 1_555
O2S C10 1_555 1_555
C6S C7 1_555 1_555
H3S C6S 1_555 1_555
C8S C9 1_555 1_555
H4S C8S 1_555 1_555
O2V C10C 1_555 1_555
C6V C7C 1_555 1_555
H3V C6V 1_555 1_555
C8V C9C 1_555 1_555
H4V C8V 1_555 1_555
C1G N1G 1_555 1_555
C2G C1G 1_555 1_555
O2G C10G 1_555 1_555
C3G N2C 1_555 1_555
C4G C4J 1_555 1_555
H1G C4G 1_555 1_555
C5G C5C 1_555 1_555
H2G C5G 1_555 1_555
C6G H3G 1_555 1_555
C7G C2G 1_555 1_555
C8G C6G 1_555 1_555
H4G C8G 1_555 1_555
C9G C8G 1_555 1_555
C10G C9G 1_555 1_555
O2L C10G 1_555 1_555
C6L C7G 1_555 1_555
H3L C6L 1_555 1_555
C8L C9G 1_555 1_555
H4L C8L 1_555 1_555
O1A Mg1A 1_555 1_555
Co1A N1A 1_555 1_555
Mg1A O3 1_555 1_555
C1A N1A 1_555 1_555
N1A C1D 1_555 1_555
C2A C1A 1_555 1_555
O2A Mg1A 1_555 1_555
N2A Co1A 1_555 1_555
C3A C2A 1_555 1_555
C4A C1A 1_555 1_555
H1A C4A 1_555 1_555
O4A Co1A 1_555 1_555
C5A C3A 1_555 1_555
H2A C5A 1_555 1_555
C6A H3A 1_555 1_555
C7A C2A 1_555 1_555
C8A C6A 1_555 1_555
H4A C8A 1_555 1_555
C9A C8A 1_555 1_555
C10A O2A 1_555 1_555
C1D C2D 1_555 1_555
C2D C3D 1_555 1_555
O2D C10D 1_555 1_555
N2D Co1A 1_555 1_555
C3D N2D 1_555 1_555
C4D C4A 1_555 1_555
H1D C4D 1_555 1_555
C5D C3D 1_555 1_555
H2D C5D 1_555 1_555
C6D H3D 1_555 1_555
C7D C2D 1_555 1_555
C8D C6D 1_555 1_555
H4D C8D 1_555 1_555
C9D C8D 1_555 1_555
C10D C9D 1_555 1_555
C1I N1F 1_555 1_555
N1F Co1A 1_555 1_555
C2I C1I 1_555 1_555
O2I C10I 1_555 1_555
C3I N2A 1_555 1_555
C4I C1I 1_555 1_555
H1I C4I 1_555 1_555
C5I C5A 1_555 1_555
H2I C5I 1_555 1_555
C6I H3I 1_555 1_555
C7I C2I 1_555 1_555
C8I C6I 1_555 1_555
H4I C8I 1_555 1_555
C9I C8I 1_555 1_555
C10I C9I 1_555 1_555
O2P C10I 1_555 1_555
C6P C7I 1_555 1_555
H3P C6P 1_555 1_555
C8P C9I 1_555 1_555
H4P C8P 1_555 1_555
O2R Mg1 1_555 1_555
C6R C7A 1_555 1_555
H3R C6R 1_555 1_555
C8R C9A 1_555 1_555
H4R C8R 1_555 1_555
O2U C10D 1_555 1_555
C6U C7D 1_555 1_555
H3U C6U 1_555 1_555
C8U C9D 1_555 1_555
H4U C8U 1_555 1_555
C1F N1F 1_555 1_555
C2F C1F 1_555 1_555
O2F C10F 1_555 1_555
C3F N2D 1_555 1_555
C4F C4I 1_555 1_555
H1F C4F 1_555 1_555
C5F C5D 1_555 1_555
H2F C5F 1_555 1_555
C6F H3F 1_555 1_555
C7F C2F 1_555 1_555
C8F C6F 1_555 1_555
H4F C8F 1_555 1_555
C9F C8F 1_555 1_555
C10F C9F 1_555 1_555
O2M C10F 1_555 1_555
C6M C7F 1_555 1_555
H3M C6M 1_555 1_555
C8M C9F 1_555 1_555
H4M C8M 1_555 1_555
O1B Mg1B 1_555 1_555
Co1B N1B 1_555 1_555
Mg1B O3 1_555 1_555
C1B N1B 1_555 1_555
N1B C1E 1_555 1_555
C2B C1B 1_555 1_555
O2B Mg1B 1_555 1_555
N2B Co1B 1_555 1_555
C3B C2B 1_555 1_555
C4B C1B 1_555 1_555
H1B C4B 1_555 1_555
O4B Co1B 1_555 1_555
C5B C3B 1_555 1_555
H2B C5B 1_555 1_555
C6B H3B 1_555 1_555
C7B C2B 1_555 1_555
C8B C6B 1_555 1_555
H4B C8B 1_555 1_555
C9B C8B 1_555 1_555
C10B O2B 1_555 1_555
C1E C2E 1_555 1_555
C2E C3E 1_555 1_555
O2E C10E 1_555 1_555
N2E Co1B 1_555 1_555
C3E N2E 1_555 1_555
C4E C4B 1_555 1_555
H1E C4E 1_555 1_555
C5E C3E 1_555 1_555
H2E C5E 1_555 1_555
C6E H3E 1_555 1_555
C7E C2E 1_555 1_555
C8E C6E 1_555 1_555
H4E C8E 1_555 1_555
C9E C8E 1_555 1_555
C10E C9E 1_555 1_555
C1K N1H 1_555 1_555
N1H Co1B 1_555 1_555
C2K C1K 1_555 1_555
O2K C10K 1_555 1_555
C3K N2B 1_555 1_555
C4K C1K 1_555 1_555
H1K C4K 1_555 1_555
C5K C5B 1_555 1_555
H2K C5K 1_555 1_555
C6K H3K 1_555 1_555
C7K C2K 1_555 1_555
C8K C6K 1_555 1_555
H4K C8K 1_555 1_555
C9K C8K 1_555 1_555
C10K C9K 1_555 1_555
O2Q C10K 1_555 1_555
C6Q C7K 1_555 1_555
H3Q C6Q 1_555 1_555
C8Q C9K 1_555 1_555
H4Q C8Q 1_555 1_555
O2T Mg1A 1_555 1_555
C6T C7B 1_555 1_555
H3T C6T 1_555 1_555
C8T C9B 1_555 1_555
H4T C8T 1_555 1_555
O2W C10E 1_555 1_555
C6W C7E 1_555 1_555
H3W C6W 1_555 1_555
C8W C9E 1_555 1_555
H4W C8W 1_555 1_555
C1H N1H 1_555 1_555
C2H C1H 1_555 1_555
O2H C10H 1_555 1_555
C3H N2E 1_555 1_555
C4H C4K 1_555 1_555
H1H C4H 1_555 1_555
C5H C5E 1_555 1_555
H2H C5H 1_555 1_555
C6H H3H 1_555 1_555
C7H C2H 1_555 1_555
C8H C6H 1_555 1_555
H4H C8H 1_555 1_555
C9H C8H 1_555 1_555
C10H C9H 1_555 1_555
O2N C10H 1_555 1_555
C6N C7H 1_555 1_555
H3N C6N 1_555 1_555
C8N C9H 1_555 1_555
H4N C8N 1_555 1_555
O1C Mg1C 1_555 1_555
Co1C N1 1_555 1_555
Mg1C O2C 1_555 1_555
O3C Mg1C 1_555 1_555
O4C Co1 1_555 1_555
O1D Mg1D 1_555 1_555
Mg1D O3C 1_555 1_555
O1E Mg1E 1_555 1_555
Mg1E O2V 1_555 1_555
Co1D N1A 1_555 1_555
O4D Co1A 1_555 1_555
Co1E N1B 1_555 1_555
O4E Co1B 1_555 1_555
Mg1_2 O2O 1_555 1_555
Mg1A_2 O2P 1_555 1_555
Mg1B_2 O2J 1_555 1_555
Mg1C_2 O2L 1_555 1_555
Mg1C_3 O2F 1_555 1_555
Mg1C_4 O2U 1_555 1_555
Mg1D_2 O2H 1_555 1_555
Mg1D_3 O2W 1_555 1_555
Mg1D_4 O2M 1_555 1_555
Mg1D_5 O2D 1_555 1_555
Mg1E_2 O2G 1_555 1_555
Mg1E_3 O2N 1_555 1_555
Mg1E_4 O2E 1_555 1_555
O2D_2 Mg1D 1_555 1_555
O2E_2 Mg1E 1_555 1_555
O2F_2 Mg1C 1_555 1_555
O2G_2 Mg1E 1_555 1_555
O2H_2 Mg1D 1_555 1_555
O2I_2 Mg1 1_555 1_555
O2J_2 Mg1B 1_555 1_555
O2K_2 Mg1A 1_555 1_555
O2L_2 Mg1C 1_555 1_555
O2M_2 Mg1D 1_555 1_555
O2N_2 Mg1E 1_555 1_555
O2O_2 Mg1 1_555 1_555
O2P_2 Mg1A 1_555 1_555
O2Q_2 Mg1B 1_555 1_555
O2U_2 Mg1C 1_555 1_555
O2W_2 Mg1D 1_555 1_555
N2 C3 1_555 1_555
N2 Co1C 1_555 1_555
O4 Co1C 1_555 1_555
C6 C7 1_555 1_555
C1C C4C 1_555 1_555
N2C Co1C 1_555 1_555
C6C C7C 1_555 1_555
N1G Co1C 1_555 1_555
C2J C3J 1_555 1_555
C3J C5J 1_555 1_555
C6J C7J 1_555 1_555
C6O C8O 1_555 1_555
O2S Mg1B 1_555 1_555
C6S C8S 1_555 1_555
C6V C8V 1_555 1_555
C1G C4G 1_555 1_555
C2G C3G 1_555 1_555
C3G C5G 1_555 1_555
C6G C7G 1_555 1_555
C6L C8L 1_555 1_555
N2A C3A 1_555 1_555
N2A Co1D 1_555 1_555
O4A Co1D 1_555 1_555
C6A C7A 1_555 1_555
C9A C10A 1_555 1_555
C10A O2R 1_555 1_555
C1D C4D 1_555 1_555
N2D Co1D 1_555 1_555
C6D C7D 1_555 1_555
N1F Co1D 1_555 1_555
C2I C3I 1_555 1_555
O2I Mg1_2 1_555 1_555
C3I C5I 1_555 1_555
C6I C7I 1_555 1_555
C6P C8P 1_555 1_555
C6R C8R 1_555 1_555
C6U C8U 1_555 1_555
C1F C4F 1_555 1_555
C2F C3F 1_555 1_555
C3F C5F 1_555 1_555
C6F C7F 1_555 1_555
C6M C8M 1_555 1_555
N2B C3B 1_555 1_555
N2B Co1E 1_555 1_555
O4B Co1E 1_555 1_555
C6B C7B 1_555 1_555
C9B C10B 1_555 1_555
C10B O2T 1_555 1_555
C1E C4E 1_555 1_555
N2E Co1E 1_555 1_555
C6E C7E 1_555 1_555
N1H Co1E 1_555 1_555
C2K C3K 1_555 1_555
O2K Mg1A_2 1_555 1_555
C3K C5K 1_555 1_555
C6K C7K 1_555 1_555
O2Q Mg1B_2 1_555 1_555
C6Q C8Q 1_555 1_555
C6T C8T 1_555 1_555
C6W C8W 1_555 1_555
C1H C4H 1_555 1_555
C2H C3H 1_555 1_555
C3H C5H 1_555 1_555
C6H C7H 1_555 1_555
C6N C8N 1_555 1_555
Co1C O4C 1_555 1_555
O3C Mg1E 1_555 1_555
Co1D O4D 1_555 1_555
Co1E O4E 1_555 1_555

#END
