
#######################################################################
#
#                 Cambridge Crystallographic Data Centre
#                                CCDC 
#
#######################################################################
#
# If this CIF has been generated from an entry in the Cambridge 
# Structural Database, then it will include bibliographic, chemical, 
# crystal, experimental, refinement or atomic coordinate data resulting 
# from the CCDC's data processing and validation procedures.
#
#######################################################################

data_DAJVUI
_chemical_formula_moiety         'C144 H72 Co6 Mn19 N12 O61'
_symmetry_cell_setting           hexagonal
_symmetry_space_group_name_H-M   'P 6/m m m'
_symmetry_Int_Tables_number      191
_space_group_name_Hall           '-P 6 2'
loop_
_symmetry_equiv_pos_site_id
_symmetry_equiv_pos_as_xyz
1 x,y,z
2 -y,x-y,z
3 -x+y,-x,z
4 -x,-y,z
5 y,-x+y,z
6 x-y,x,z
7 y,x,-z
8 x-y,-y,-z
9 -x,-x+y,-z
10 -y,-x,-z
11 -x+y,y,-z
12 x,x-y,-z
13 -x,-y,-z
14 y,-x+y,-z
15 x-y,x,-z
16 x,y,-z
17 -y,x-y,-z
18 -x+y,-x,-z
19 -y,-x,z
20 -x+y,y,z
21 x,x-y,z
22 y,x,z
23 x-y,-y,z
24 -x,-x+y,z
_cell_length_a                   32.4771(3)
_cell_length_b                   32.4771(3)
_cell_length_c                   16.7559(2)
_cell_angle_alpha                90
_cell_angle_beta                 90
_cell_angle_gamma                120
_cell_volume                     15305.7
loop_
_atom_site_label
_atom_site_type_symbol
_atom_site_fract_x
_atom_site_fract_y
_atom_site_fract_z
O1 O 0.75191(16) 0.34129(16) 0.5901(3)
N1 N 0.9306(3) 0.46531(16) 1.0000
Co1 Co 1.0000 0.4927(12) 1.0000
N2 N 1.0000 0.5000 0.8830(6)
C1 C 0.7657(3) 0.38286(15) 0.6127(5)
C2 C 0.8058(3) 0.40291(15) 0.6756(5)
C3 C 0.8766(3) 0.43829(15) 0.7930(5)
C4 C 0.9141(3) 0.45704(16) 0.8559(5)
C5 C 0.9616(4) 0.48079(18) 0.8332(5)
C6 C 0.9008(3) 0.45040(16) 0.9323(6)
C7 C 0.9765(3) 0.48826(15) 0.7490(6)
H1 H 0.9568 0.4784 0.7045
O2 O 1.0000 0.445(2) 1.0000
C8 C 0.8232(3) 0.3747(3) 0.7055(4)
H2 H 0.8108 0.3437 0.6871
C9 C 0.8591(3) 0.3924(3) 0.7631(4)
H3 H 0.8714 0.3737 0.7814
C10 C 0.8517(4) 0.42586(18) 0.9594(5)
H4 H 0.8249 0.4125 0.9269
O3 O 1.0000 0.4259(18) 1.0000
Mn1 Mn 0.70376(3) 0.29624(3) 0.5000
O4 O 0.6667 0.3333 0.5000
O5 O 0.74271(18) 0.25729(18) 0.5000
O1C O 1.24809(16) 0.65871(16) 0.5901(3)
N1C N 1.0694(3) 0.53469(16) 1.0000
C1C C 1.2343(3) 0.61714(15) 0.6127(5)
C2C C 1.1942(3) 0.59709(15) 0.6756(5)
C3C C 1.1234(3) 0.56171(15) 0.7930(5)
C4C C 1.0859(3) 0.54296(16) 0.8559(5)
C5C C 1.0384(4) 0.51921(18) 0.8332(5)
C6C C 1.0992(3) 0.54960(16) 0.9323(6)
C7C C 1.0235(3) 0.51174(15) 0.7490(6)
H1C H 1.0432 0.5216 0.7045
C8C C 1.1768(3) 0.6253(3) 0.7055(4)
H2C H 1.1892 0.6563 0.6871
C9C C 1.1409(3) 0.6076(3) 0.7631(4)
H3C H 1.1286 0.6263 0.7814
C10C C 1.1483(4) 0.57414(18) 0.9594(5)
H4C H 1.1751 0.5875 0.9269
O1K O 0.75191(16) 0.41062(23) 1.4099(3)
N2H N 1.0000 0.5000 1.1170(6)
C1K C 0.7657(3) 0.38284(34) 1.3873(5)
C2K C 0.8058(3) 0.40289(34) 1.3244(5)
C3K C 0.8766(3) 0.43831(34) 1.2070(5)
C4K C 0.9141(3) 0.45706(34) 1.1441(5)
C5K C 0.9616(4) 0.48081(44) 1.1668(5)
C6K C 0.9008(3) 0.45040(34) 1.0677(6)
C7K C 0.9765(3) 0.48824(34) 1.2510(6)
H1K H 0.9568 0.4784 1.2955
C8K C 0.8232(3) 0.4485(4) 1.2945(4)
H2K H 0.8108 0.4671 1.3129
C9K C 0.8591(3) 0.4667(4) 1.2369(4)
H3K H 0.8714 0.4977 1.2186
C10K C 0.8517(4) 0.42584(44) 1.0406(5)
H4K H 0.8249 0.4124 1.0731
O1O O 0.75191(16) 0.34129(16) 1.4099(3)
C8O C 0.8232(3) 0.3747(3) 1.2945(4)
H2O H 0.8108 0.3437 1.3129
C9O C 0.8591(3) 0.3924(3) 1.2369(4)
H3O H 0.8714 0.3737 1.2186
O1T O 0.75191(16) 0.41062(23) 0.5901(3)
C8T C 0.8232(3) 0.4485(4) 0.7055(4)
H2T H 0.8108 0.4671 0.6871
C9T C 0.8591(3) 0.4667(4) 0.7631(4)
H3T H 0.8714 0.4977 0.7814
O1W O 1.24809(16) 0.58938(23) 0.5901(3)
C8W C 1.1768(3) 0.5515(4) 0.7055(4)
H2W H 1.1892 0.5329 0.6871
C9W C 1.1409(3) 0.5333(4) 0.7631(4)
H3W H 1.1286 0.5023 0.7814
O1H O 1.24809(16) 0.58938(23) 1.4099(3)
C1H C 1.2343(3) 0.61716(34) 1.3873(5)
C2H C 1.1942(3) 0.59711(34) 1.3244(5)
C3H C 1.1234(3) 0.56169(34) 1.2070(5)
C4H C 1.0859(3) 0.54294(34) 1.1441(5)
C5H C 1.0384(4) 0.51919(44) 1.1668(5)
C6H C 1.0992(3) 0.54960(34) 1.0677(6)
C7H C 1.0235(3) 0.51176(34) 1.2510(6)
H1H H 1.0432 0.5216 1.2955
C8H C 1.1768(3) 0.5515(4) 1.2945(4)
H2H H 1.1892 0.5329 1.3129
C9H C 1.1409(3) 0.5333(4) 1.2369(4)
H3H H 1.1286 0.5023 1.2186
C10H C 1.1483(4) 0.57416(44) 1.0406(5)
H4H H 1.1751 0.5876 1.0731
O1L O 1.24809(16) 0.65871(16) 1.4099(3)
C8L C 1.1768(3) 0.6253(3) 1.2945(4)
H2L H 1.1892 0.6563 1.3129
C9L C 1.1409(3) 0.6076(3) 1.2369(4)
H3L H 1.1286 0.6263 1.2186
O1A O 0.65871(16) 0.41062(23) 0.5901(3)
N1A N 0.53469(16) 0.46529(34) 1.0000
Co1A Co 0.5073(12) 0.5073(12) 1.0000
N2A N 0.5000 0.5000 0.8830(6)
C1A C 0.61714(15) 0.38284(34) 0.6127(5)
C2A C 0.59709(15) 0.40289(34) 0.6756(5)
C3A C 0.56171(15) 0.43831(34) 0.7930(5)
C4A C 0.54296(16) 0.45706(34) 0.8559(5)
C5A C 0.51921(18) 0.48081(44) 0.8332(5)
C6A C 0.54960(16) 0.45040(34) 0.9323(6)
C7A C 0.51174(15) 0.48824(34) 0.7490(6)
H1A H 0.5216 0.4784 0.7045
O2A O 0.555(2) 0.5550(20) 1.0000
C8A C 0.6253(3) 0.4485(4) 0.7055(4)
H2A H 0.6563 0.4671 0.6871
C9A C 0.6076(3) 0.4667(4) 0.7631(4)
H3A H 0.6263 0.4977 0.7814
C10A C 0.57414(18) 0.42584(44) 0.9594(5)
H4A H 0.5875 0.4124 0.9269
O3A O 0.5741(18) 0.5741(18) 1.0000
Mn1A Mn 0.70376(3) 0.40752(4) 0.5000
O5A O 0.74271(18) 0.48542(25) 0.5000
O1D O 0.34129(16) 0.58938(23) 0.5901(3)
N1D N 0.46531(16) 0.53471(34) 1.0000
C1D C 0.38286(15) 0.61716(34) 0.6127(5)
C2D C 0.40291(15) 0.59711(34) 0.6756(5)
C3D C 0.43829(15) 0.56169(34) 0.7930(5)
C4D C 0.45704(16) 0.54294(34) 0.8559(5)
C5D C 0.48079(18) 0.51919(44) 0.8332(5)
C6D C 0.45040(16) 0.54960(34) 0.9323(6)
C7D C 0.48826(15) 0.51176(34) 0.7490(6)
H1D H 0.4784 0.5216 0.7045
C8D C 0.3747(3) 0.5515(4) 0.7055(4)
H2D H 0.3437 0.5329 0.6871
C9D C 0.3924(3) 0.5333(4) 0.7631(4)
H3D H 0.3737 0.5023 0.7814
C10D C 0.42586(18) 0.57416(44) 0.9594(5)
H4D H 0.4125 0.5876 0.9269
O1J O 0.58938(23) 0.34129(16) 1.4099(3)
N2G N 0.5000 0.5000 1.1170(6)
C1J C 0.61716(34) 0.38286(15) 1.3873(5)
C2J C 0.59711(34) 0.40291(15) 1.3244(5)
C3J C 0.56169(34) 0.43829(15) 1.2070(5)
C4J C 0.54294(34) 0.45704(16) 1.1441(5)
C5J C 0.51919(44) 0.48079(18) 1.1668(5)
C6J C 0.54960(34) 0.45040(16) 1.0677(6)
C7J C 0.51176(34) 0.48826(15) 1.2510(6)
H1J H 0.5216 0.4784 1.2955
C8J C 0.5515(4) 0.3747(3) 1.2945(4)
H2J H 0.5329 0.3437 1.3129
C9J C 0.5333(4) 0.3924(3) 1.2369(4)
H3J H 0.5023 0.3737 1.2186
C10J C 0.57416(44) 0.42586(18) 1.0406(5)
H4J H 0.5876 0.4125 1.0731
O1P O 0.65871(16) 0.41062(23) 1.4099(3)
C8P C 0.6253(3) 0.4485(4) 1.2945(4)
H2P H 0.6563 0.4671 1.3129
C9P C 0.6076(3) 0.4667(4) 1.2369(4)
H3P H 0.6263 0.4977 1.2186
O1S O 0.58938(23) 0.34129(16) 0.5901(3)
C8S C 0.5515(4) 0.3747(3) 0.7055(4)
H2S H 0.5329 0.3437 0.6871
C9S C 0.5333(4) 0.3924(3) 0.7631(4)
H3S H 0.5023 0.3737 0.7814
O1V O 0.41062(23) 0.65871(16) 0.5901(3)
C8V C 0.4485(4) 0.6253(3) 0.7055(4)
H2V H 0.4671 0.6563 0.6871
C9V C 0.4667(4) 0.6076(3) 0.7631(4)
H3V H 0.4977 0.6263 0.7814
O1G O 0.41062(23) 0.65871(16) 1.4099(3)
C1G C 0.38284(34) 0.61714(15) 1.3873(5)
C2G C 0.40289(34) 0.59709(15) 1.3244(5)
C3G C 0.43831(34) 0.56171(15) 1.2070(5)
C4G C 0.45706(34) 0.54296(16) 1.1441(5)
C5G C 0.48081(44) 0.51921(18) 1.1668(5)
C6G C 0.45040(34) 0.54960(16) 1.0677(6)
C7G C 0.48824(34) 0.51174(15) 1.2510(6)
H1G H 0.4784 0.5216 1.2955
C8G C 0.4485(4) 0.6253(3) 1.2945(4)
H2G H 0.4671 0.6563 1.3129
C9G C 0.4667(4) 0.6076(3) 1.2369(4)
H3G H 0.4977 0.6263 1.2186
C10G C 0.42584(44) 0.57414(18) 1.0406(5)
H4G H 0.4124 0.5875 1.0731
O1M O 0.34129(16) 0.58938(23) 1.4099(3)
C8M C 0.3747(3) 0.5515(4) 1.2945(4)
H2M H 0.3437 0.5329 1.3129
C9M C 0.3924(3) 0.5333(4) 1.2369(4)
H3M H 0.3737 0.5023 1.2186
O1B O 0.58938(23) 0.24809(16) 0.5901(3)
N1B N 0.53471(34) 0.0694(3) 1.0000
Co1B Co 0.4927(12) 0.0000 1.0000
N2B N 0.5000 0.0000 0.8830(6)
C1B C 0.61716(34) 0.2343(3) 0.6127(5)
C2B C 0.59711(34) 0.1942(3) 0.6756(5)
C3B C 0.56169(34) 0.1234(3) 0.7930(5)
C4B C 0.54294(34) 0.0859(3) 0.8559(5)
C5B C 0.51919(44) 0.0384(4) 0.8332(5)
C6B C 0.54960(34) 0.0992(3) 0.9323(6)
C7B C 0.51176(34) 0.0235(3) 0.7490(6)
H1B H 0.5216 0.0432 0.7045
O2B O 0.4450(20) 0.0000 1.0000
C8B C 0.5515(4) 0.1768(3) 0.7055(4)
H2B H 0.5329 0.1892 0.6871
C9B C 0.5333(4) 0.1409(3) 0.7631(4)
H3B H 0.5023 0.1286 0.7814
C10B C 0.57416(44) 0.1483(4) 0.9594(5)
H4B H 0.5876 0.1751 0.9269
O3B O 0.4259(18) 0.0000 1.0000
Mn1B Mn 0.59248(4) 0.29624(3) 0.5000
O5B O 0.51458(25) 0.25729(18) 0.5000
O1E O 0.41062(23) -0.24809(16) 0.5901(3)
N1E N 0.46529(34) -0.0694(3) 1.0000
C1E C 0.38284(34) -0.2343(3) 0.6127(5)
C2E C 0.40289(34) -0.1942(3) 0.6756(5)
C3E C 0.43831(34) -0.1234(3) 0.7930(5)
C4E C 0.45706(34) -0.0859(3) 0.8559(5)
C5E C 0.48081(44) -0.0384(4) 0.8332(5)
C6E C 0.45040(34) -0.0992(3) 0.9323(6)
C7E C 0.48824(34) -0.0235(3) 0.7490(6)
H1E H 0.4784 -0.0432 0.7045
C8E C 0.4485(4) -0.1768(3) 0.7055(4)
H2E H 0.4671 -0.1892 0.6871
C9E C 0.4667(4) -0.1409(3) 0.7631(4)
H3E H 0.4977 -0.1286 0.7814
C10E C 0.42584(44) -0.1483(4) 0.9594(5)
H4E H 0.4124 -0.1751 0.9269
O1I O 0.65871(16) 0.24809(16) 1.4099(3)
N2F N 0.5000 0.0000 1.1170(6)
C1I C 0.61714(15) 0.2343(3) 1.3873(5)
C2I C 0.59709(15) 0.1942(3) 1.3244(5)
C3I C 0.56171(15) 0.1234(3) 1.2070(5)
C4I C 0.54296(16) 0.0859(3) 1.1441(5)
C5I C 0.51921(18) 0.0384(4) 1.1668(5)
C6I C 0.54960(16) 0.0992(3) 1.0677(6)
C7I C 0.51174(15) 0.0235(3) 1.2510(6)
H1I H 0.5216 0.0432 1.2955
C8I C 0.6253(3) 0.1768(3) 1.2945(4)
H2I H 0.6563 0.1892 1.3129
C9I C 0.6076(3) 0.1409(3) 1.2369(4)
H3I H 0.6263 0.1286 1.2186
C10I C 0.57414(18) 0.1483(4) 1.0406(5)
H4I H 0.5875 0.1751 1.0731
O1Q O 0.58938(23) 0.24809(16) 1.4099(3)
C8Q C 0.5515(4) 0.1768(3) 1.2945(4)
H2Q H 0.5329 0.1892 1.3129
C9Q C 0.5333(4) 0.1409(3) 1.2369(4)
H3Q H 0.5023 0.1286 1.2186
O1R O 0.65871(16) 0.24809(16) 0.5901(3)
C8R C 0.6253(3) 0.1768(3) 0.7055(4)
H2R H 0.6563 0.1892 0.6871
C9R C 0.6076(3) 0.1409(3) 0.7631(4)
H3R H 0.6263 0.1286 0.7814
O1U O 0.34129(16) -0.24809(16) 0.5901(3)
C8U C 0.3747(3) -0.1768(3) 0.7055(4)
H2U H 0.3437 -0.1892 0.6871
C9U C 0.3924(3) -0.1409(3) 0.7631(4)
H3U H 0.3737 -0.1286 0.7814
O1F O 0.34129(16) -0.24809(16) 1.4099(3)
C1F C 0.38286(15) -0.2343(3) 1.3873(5)
C2F C 0.40291(15) -0.1942(3) 1.3244(5)
C3F C 0.43829(15) -0.1234(3) 1.2070(5)
C4F C 0.45704(16) -0.0859(3) 1.1441(5)
C5F C 0.48079(18) -0.0384(4) 1.1668(5)
C6F C 0.45040(16) -0.0992(3) 1.0677(6)
C7F C 0.48826(15) -0.0235(3) 1.2510(6)
H1F H 0.4784 -0.0432 1.2955
C8F C 0.3747(3) -0.1768(3) 1.2945(4)
H2F H 0.3437 -0.1892 1.3129
C9F C 0.3924(3) -0.1409(3) 1.2369(4)
H3F H 0.3737 -0.1286 1.2186
C10F C 0.42586(18) -0.1483(4) 1.0406(5)
H4F H 0.4125 -0.1751 1.0731
O1N O 0.41062(23) -0.24809(16) 1.4099(3)
C8N C 0.4485(4) -0.1768(3) 1.2945(4)
H2N H 0.4671 -0.1892 1.3129
C9N C 0.4667(4) -0.1409(3) 1.2369(4)
H3N H 0.4977 -0.1286 1.2186
Co1C Co 1.0000 0.5073(12) 1.0000
O2C O 1.0000 0.555(2) 1.0000
O3C O 1.0000 0.5741(18) 1.0000
Mn1C Mn 1.29624(3) 0.70376(3) 0.5000
O4C O 1.3333 0.6667 0.5000
O5C O 1.25729(18) 0.74271(18) 0.5000
Co1D Co 0.4927(12) 0.4927(12) 1.0000
O2D O 0.445(2) 0.4450(20) 1.0000
O3D O 0.4259(18) 0.4259(18) 1.0000
Mn1D Mn 0.29624(3) 0.59248(4) 0.5000
O5D O 0.25729(18) 0.51458(25) 0.5000
Co1E Co 0.5073(12) 0.0000 1.0000
O2E O 0.5550(20) 0.0000 1.0000
O3E O 0.5741(18) 0.0000 1.0000
Mn1E Mn 0.40752(4) -0.29624(3) 0.5000
O5E O 0.48542(25) -0.25729(18) 0.5000
O1F_2 O 1.34129(16) 0.75191(16) 0.4099(3)
O1G_2 O 0.41062(23) -0.34129(16) 0.4099(3)
O1H_2 O 0.24809(16) 0.58938(23) 0.4099(3)
O1I_2 O 0.65871(16) 0.24809(16) 0.4099(3)
O1J_2 O 0.58938(23) 0.34129(16) 0.4099(3)
O1K_2 O 0.75191(16) 0.41062(23) 0.4099(3)
O1L_2 O 1.24809(16) 0.65871(16) 0.4099(3)
O1M_2 O 0.34129(16) 0.58938(23) 0.4099(3)
O1N_2 O 0.41062(23) -0.24809(16) 0.4099(3)
O1O_2 O 0.75191(16) 0.34129(16) 0.4099(3)
O1P_2 O 0.65871(16) 0.41062(23) 0.4099(3)
O1Q_2 O 0.58938(23) 0.24809(16) 0.4099(3)
O1U_2 O 1.34129(16) 0.75191(16) 0.5901(3)
O1V_2 O 0.41062(23) -0.34129(16) 0.5901(3)
O1W_2 O 0.24809(16) 0.58938(23) 0.5901(3)
Mn1_2 Mn 0.70376(3) 0.29624(3) 1.5000
Mn1A_2 Mn 0.70376(3) 0.40752(4) 1.5000
Mn1B_2 Mn 0.59248(4) 0.29624(3) 1.5000
Mn1C_2 Mn 0.29624(3) -0.29624(3) 0.5000
Mn1C_3 Mn 0.29624(3) -0.29624(3) 1.5000
Mn1C_4 Mn 1.29624(3) 0.70376(3) 1.5000
Mn1D_2 Mn 0.29624(3) 0.59248(4) 1.5000
Mn1D_3 Mn 1.29624(3) 0.59248(4) 0.5000
Mn1D_4 Mn 1.29624(3) 0.59248(4) 1.5000
Mn1E_2 Mn 0.40752(4) -0.29624(3) 1.5000
Mn1E_3 Mn 0.40752(4) 0.70376(3) 0.5000
Mn1E_4 Mn 0.40752(4) 0.70376(3) 1.5000
Mn1E_5 Mn 1.40752(4) 0.70376(3) 0.5000
O4C_2 O 0.3333 -0.3333 0.5000
O4C_3 O 0.3333 0.6667 0.5000
loop_
_geom_bond_atom_site_label_1
_geom_bond_atom_site_label_2
_geom_bond_site_symmetry_1
_geom_bond_site_symmetry_2
O1 C1 1_555 1_555
N1 Co1 1_555 1_555
Co1 N2 1_555 1_555
N2 C5 1_555 1_555
C1 C2 1_555 1_555
C2 C8 1_555 1_555
C3 C4 1_555 1_555
C4 C5 1_555 1_555
C5 C7 1_555 1_555
C6 N1 1_555 1_555
C7 H1 1_555 1_555
O2 Co1 1_555 1_555
C8 H2 1_555 1_555
C9 C3 1_555 1_555
H3 C9 1_555 1_555
C10 C6 1_555 1_555
H4 C10 1_555 1_555
O3 Co1 1_555 1_555
Mn1 O1 1_555 1_555
O4 Mn1 1_555 1_555
O5 Mn1 1_555 1_555
O1C C1C 1_555 1_555
N1C Co1 1_555 1_555
C1C C2C 1_555 1_555
C2C C8C 1_555 1_555
C3C C4C 1_555 1_555
C4C C5C 1_555 1_555
C5C N2 1_555 1_555
C6C N1C 1_555 1_555
C7C C7 1_555 1_555
H1C C7C 1_555 1_555
C8C H2C 1_555 1_555
C9C C3C 1_555 1_555
H3C C9C 1_555 1_555
C10C C6C 1_555 1_555
H4C C10C 1_555 1_555
O1K C1K 1_555 1_555
N2H Co1 1_555 1_555
C1K C2K 1_555 1_555
C2K C8K 1_555 1_555
C3K C4K 1_555 1_555
C4K C5K 1_555 1_555
C5K N2H 1_555 1_555
C6K N1 1_555 1_555
C7K C5K 1_555 1_555
H1K C7K 1_555 1_555
C8K H2K 1_555 1_555
C9K C3K 1_555 1_555
H3K C9K 1_555 1_555
C10K C10 1_555 1_555
H4K C10K 1_555 1_555
O1O C1K 1_555 1_555
C8O C2K 1_555 1_555
H2O C8O 1_555 1_555
C9O C3K 1_555 1_555
H3O C9O 1_555 1_555
O1T C1 1_555 1_555
C8T C2 1_555 1_555
H2T C8T 1_555 1_555
C9T C3 1_555 1_555
H3T C9T 1_555 1_555
O1W C1C 1_555 1_555
C8W C2C 1_555 1_555
H2W C8W 1_555 1_555
C9W C3C 1_555 1_555
H3W C9W 1_555 1_555
O1H C1H 1_555 1_555
C1H C2H 1_555 1_555
C2H C8H 1_555 1_555
C3H C4H 1_555 1_555
C4H C5H 1_555 1_555
C5H N2H 1_555 1_555
C6H N1C 1_555 1_555
C7H C7K 1_555 1_555
H1H C7H 1_555 1_555
C8H H2H 1_555 1_555
C9H C3H 1_555 1_555
H3H C9H 1_555 1_555
C10H C10C 1_555 1_555
H4H C10H 1_555 1_555
O1L C1H 1_555 1_555
C8L C2H 1_555 1_555
H2L C8L 1_555 1_555
C9L C3H 1_555 1_555
H3L C9L 1_555 1_555
O1A C1A 1_555 1_555
N1A Co1A 1_555 1_555
Co1A N2A 1_555 1_555
N2A C5A 1_555 1_555
C1A C2A 1_555 1_555
C2A C8A 1_555 1_555
C3A C4A 1_555 1_555
C4A C5A 1_555 1_555
C5A C7A 1_555 1_555
C6A N1A 1_555 1_555
C7A H1A 1_555 1_555
O2A Co1A 1_555 1_555
C8A H2A 1_555 1_555
C9A C3A 1_555 1_555
H3A C9A 1_555 1_555
C10A C6A 1_555 1_555
H4A C10A 1_555 1_555
O3A Co1A 1_555 1_555
Mn1A O4 1_555 1_555
O5A Mn1A 1_555 1_555
O1D C1D 1_555 1_555
N1D Co1A 1_555 1_555
C1D C2D 1_555 1_555
C2D C8D 1_555 1_555
C3D C4D 1_555 1_555
C4D C5D 1_555 1_555
C5D N2A 1_555 1_555
C6D N1D 1_555 1_555
C7D C7A 1_555 1_555
H1D C7D 1_555 1_555
C8D H2D 1_555 1_555
C9D C3D 1_555 1_555
H3D C9D 1_555 1_555
C10D C6D 1_555 1_555
H4D C10D 1_555 1_555
O1J C1J 1_555 1_555
N2G Co1A 1_555 1_555
C1J C2J 1_555 1_555
C2J C8J 1_555 1_555
C3J C4J 1_555 1_555
C4J C5J 1_555 1_555
C5J N2G 1_555 1_555
C6J N1A 1_555 1_555
C7J C5J 1_555 1_555
H1J C7J 1_555 1_555
C8J H2J 1_555 1_555
C9J C3J 1_555 1_555
H3J C9J 1_555 1_555
C10J C10A 1_555 1_555
H4J C10J 1_555 1_555
O1P C1J 1_555 1_555
C8P C2J 1_555 1_555
H2P C8P 1_555 1_555
C9P C3J 1_555 1_555
H3P C9P 1_555 1_555
O1S C1A 1_555 1_555
C8S C2A 1_555 1_555
H2S C8S 1_555 1_555
C9S C3A 1_555 1_555
H3S C9S 1_555 1_555
O1V C1D 1_555 1_555
C8V C2D 1_555 1_555
H2V C8V 1_555 1_555
C9V C3D 1_555 1_555
H3V C9V 1_555 1_555
O1G C1G 1_555 1_555
C1G C2G 1_555 1_555
C2G C8G 1_555 1_555
C3G C4G 1_555 1_555
C4G C5G 1_555 1_555
C5G N2G 1_555 1_555
C6G N1D 1_555 1_555
C7G C7J 1_555 1_555
H1G C7G 1_555 1_555
C8G H2G 1_555 1_555
C9G C3G 1_555 1_555
H3G C9G 1_555 1_555
C10G C10D 1_555 1_555
H4G C10G 1_555 1_555
O1M C1G 1_555 1_555
C8M C2G 1_555 1_555
H2M C8M 1_555 1_555
C9M C3G 1_555 1_555
H3M C9M 1_555 1_555
O1B C1B 1_555 1_555
N1B Co1B 1_555 1_555
Co1B N2B 1_555 1_555
N2B C5B 1_555 1_555
C1B C2B 1_555 1_555
C2B C8B 1_555 1_555
C3B C4B 1_555 1_555
C4B C5B 1_555 1_555
C5B C7B 1_555 1_555
C6B N1B 1_555 1_555
C7B H1B 1_555 1_555
O2B Co1B 1_555 1_555
C8B H2B 1_555 1_555
C9B C3B 1_555 1_555
H3B C9B 1_555 1_555
C10B C6B 1_555 1_555
H4B C10B 1_555 1_555
O3B Co1B 1_555 1_555
Mn1B O4 1_555 1_555
O5B Mn1B 1_555 1_555
O1E C1E 1_555 1_555
N1E Co1B 1_555 1_555
C1E C2E 1_555 1_555
C2E C8E 1_555 1_555
C3E C4E 1_555 1_555
C4E C5E 1_555 1_555
C5E N2B 1_555 1_555
C6E N1E 1_555 1_555
C7E C7B 1_555 1_555
H1E C7E 1_555 1_555
C8E H2E 1_555 1_555
C9E C3E 1_555 1_555
H3E C9E 1_555 1_555
C10E C6E 1_555 1_555
H4E C10E 1_555 1_555
O1I C1I 1_555 1_555
N2F Co1B 1_555 1_555
C1I C2I 1_555 1_555
C2I C8I 1_555 1_555
C3I C4I 1_555 1_555
C4I C5I 1_555 1_555
C5I N2F 1_555 1_555
C6I N1B 1_555 1_555
C7I C5I 1_555 1_555
H1I C7I 1_555 1_555
C8I H2I 1_555 1_555
C9I C3I 1_555 1_555
H3I C9I 1_555 1_555
C10I C10B 1_555 1_555
H4I C10I 1_555 1_555
O1Q C1I 1_555 1_555
C8Q C2I 1_555 1_555
H2Q C8Q 1_555 1_555
C9Q C3I 1_555 1_555
H3Q C9Q 1_555 1_555
O1R Mn1 1_555 1_555
C8R C2B 1_555 1_555
H2R C8R 1_555 1_555
C9R C3B 1_555 1_555
H3R C9R 1_555 1_555
O1U C1E 1_555 1_555
C8U C2E 1_555 1_555
H2U C8U 1_555 1_555
C9U C3E 1_555 1_555
H3U C9U 1_555 1_555
O1F C1F 1_555 1_555
C1F C2F 1_555 1_555
C2F C8F 1_555 1_555
C3F C4F 1_555 1_555
C4F C5F 1_555 1_555
C5F N2F 1_555 1_555
C6F N1E 1_555 1_555
C7F C7I 1_555 1_555
H1F C7F 1_555 1_555
C8F H2F 1_555 1_555
C9F C3F 1_555 1_555
H3F C9F 1_555 1_555
C10F C10E 1_555 1_555
H4F C10F 1_555 1_555
O1N C1F 1_555 1_555
C8N C2F 1_555 1_555
H2N C8N 1_555 1_555
C9N C3F 1_555 1_555
H3N C9N 1_555 1_555
Co1C N1 1_555 1_555
O2C Co1 1_555 1_555
O3C Co1C 1_555 1_555
Mn1C O1C 1_555 1_555
O4C Mn1C 1_555 1_555
O5C Mn1C 1_555 1_555
Co1D N1A 1_555 1_555
O2D Co1A 1_555 1_555
O3D Co1D 1_555 1_555
Mn1D O1D 1_555 1_555
O5D Mn1D 1_555 1_555
Co1E N1B 1_555 1_555
O2E Co1B 1_555 1_555
O3E Co1E 1_555 1_555
Mn1E O1E 1_555 1_555
O5E Mn1E 1_555 1_555
O1F_2 Mn1C 1_555 1_555
O1G_2 Mn1E 1_555 1_555
O1H_2 Mn1D 1_555 1_555
O1I_2 Mn1 1_555 1_555
O1J_2 Mn1B 1_555 1_555
O1K_2 Mn1A 1_555 1_555
O1L_2 Mn1C 1_555 1_555
O1M_2 Mn1D 1_555 1_555
O1N_2 Mn1E 1_555 1_555
O1O_2 Mn1 1_555 1_555
O1P_2 Mn1A 1_555 1_555
O1Q_2 Mn1B 1_555 1_555
O1U_2 Mn1C 1_555 1_555
O1V_2 Mn1E 1_555 1_555
O1W_2 Mn1D 1_555 1_555
Mn1_2 O1O 1_555 1_555
Mn1A_2 O1K 1_555 1_555
Mn1B_2 O1J 1_555 1_555
Mn1C_2 O1U 1_555 1_555
Mn1C_3 O1F 1_555 1_555
Mn1C_4 O1L 1_555 1_555
Mn1D_2 O1M 1_555 1_555
Mn1D_3 O1W 1_555 1_555
Mn1D_4 O1H 1_555 1_555
Mn1E_2 O1N 1_555 1_555
Mn1E_3 O1V 1_555 1_555
Mn1E_4 O1G 1_555 1_555
Mn1E_5 O4C 1_555 1_555
O4C_2 Mn1E 1_555 1_555
O4C_3 Mn1D 1_555 1_555
N2 Co1C 1_555 1_555
C4 C6 1_555 1_555
O2 O3 1_555 1_555
O2 Co1C 1_555 1_555
C8 C9 1_555 1_555
N1C Co1C 1_555 1_555
C4C C6C 1_555 1_555
C5C C7C 1_555 1_555
C8C C9C 1_555 1_555
N2H Co1C 1_555 1_555
C4K C6K 1_555 1_555
C6K C10K 1_555 1_555
C8K C9K 1_555 1_555
C8O C9O 1_555 1_555
O1T Mn1A 1_555 1_555
C8T C9T 1_555 1_555
C8W C9W 1_555 1_555
C4H C6H 1_555 1_555
C5H C7H 1_555 1_555
C6H C10H 1_555 1_555
C8H C9H 1_555 1_555
C8L C9L 1_555 1_555
O1A Mn1A 1_555 1_555
N2A Co1D 1_555 1_555
C4A C6A 1_555 1_555
O2A O3A 1_555 1_555
O2A Co1D 1_555 1_555
C8A C9A 1_555 1_555
N1D Co1D 1_555 1_555
C4D C6D 1_555 1_555
C5D C7D 1_555 1_555
C8D C9D 1_555 1_555
N2G Co1D 1_555 1_555
C4J C6J 1_555 1_555
C6J C10J 1_555 1_555
C8J C9J 1_555 1_555
O1P Mn1A_2 1_555 1_555
C8P C9P 1_555 1_555
O1S Mn1B 1_555 1_555
C8S C9S 1_555 1_555
C8V C9V 1_555 1_555
C4G C6G 1_555 1_555
C5G C7G 1_555 1_555
C6G C10G 1_555 1_555
C8G C9G 1_555 1_555
C8M C9M 1_555 1_555
O1B Mn1B 1_555 1_555
N2B Co1E 1_555 1_555
C1B O1R 1_555 1_555
C4B C6B 1_555 1_555
O2B O3B 1_555 1_555
O2B Co1E 1_555 1_555
C8B C9B 1_555 1_555
N1E Co1E 1_555 1_555
C4E C6E 1_555 1_555
C5E C7E 1_555 1_555
C8E C9E 1_555 1_555
O1I Mn1_2 1_555 1_555
N2F Co1E 1_555 1_555
C4I C6I 1_555 1_555
C6I C10I 1_555 1_555
C8I C9I 1_555 1_555
O1Q Mn1B_2 1_555 1_555
C8Q C9Q 1_555 1_555
C8R C9R 1_555 1_555
C8U C9U 1_555 1_555
C4F C6F 1_555 1_555
C5F C7F 1_555 1_555
C6F C10F 1_555 1_555
C8F C9F 1_555 1_555
C8N C9N 1_555 1_555
Co1C O2C 1_555 1_555
O2C O3C 1_555 1_555
O4C Mn1D_3 1_555 1_555
Co1D O2D 1_555 1_555
O2D O3D 1_555 1_555
Co1E O2E 1_555 1_555
O2E O3E 1_555 1_555
Mn1C_2 O4C_2 1_555 1_555
Mn1E_3 O4C_3 1_555 1_555

#END
