
#######################################################################
#
#                 Cambridge Crystallographic Data Centre
#                                CCDC 
#
#######################################################################
#
# If this CIF has been generated from an entry in the Cambridge 
# Structural Database, then it will include bibliographic, chemical, 
# crystal, experimental, refinement or atomic coordinate data resulting 
# from the CCDC's data processing and validation procedures.
#
#######################################################################

data_DAJVES
_chemical_formula_moiety         'C144 H72 Co25 N12 O54'
_symmetry_cell_setting           hexagonal
_symmetry_space_group_name_H-M   'P 6/m m m'
_symmetry_Int_Tables_number      191
_space_group_name_Hall           '-P 6 2'
loop_
_symmetry_equiv_pos_site_id
_symmetry_equiv_pos_as_xyz
1 x,y,z
2 -y,x-y,z
3 -x+y,-x,z
4 -x,-y,z
5 y,-x+y,z
6 x-y,x,z
7 y,x,-z
8 x-y,-y,-z
9 -x,-x+y,-z
10 -y,-x,-z
11 -x+y,y,-z
12 x,x-y,-z
13 -x,-y,-z
14 y,-x+y,-z
15 x-y,x,-z
16 x,y,-z
17 -y,x-y,-z
18 -x+y,-x,-z
19 -y,-x,z
20 -x+y,y,z
21 x,x-y,z
22 y,x,z
23 x-y,-y,z
24 -x,-x+y,z
_cell_length_a                   32.1397(7)
_cell_length_b                   32.1397(7)
_cell_length_c                   16.6976(4)
_cell_angle_alpha                90
_cell_angle_beta                 90
_cell_angle_gamma                120
_cell_volume                     14937.2
loop_
_atom_site_label
_atom_site_type_symbol
_atom_site_fract_x
_atom_site_fract_y
_atom_site_fract_z
O1 O 0.25865(14) 0.74135(14) 1.0000
Co1 Co 0.29693(2) 0.70307(2) 1.0000
C1 C 0.0999(2) 0.54993(12) 0.5670(4)
N1 N 0.0702(2) 0.53511(12) 0.5000
O2 O 0.3333 0.6667 1.0000
C2 C 0.0392(2) 0.51960(12) 0.6687(4)
Co2 Co -0.0000 0.505(3) 0.5000
O3 O 0.25009(11) 0.66015(12) 0.91180(18)
C3 C 0.0863(2) 0.54314(12) 0.6455(4)
N2 N -0.0000 0.5000 0.6166(4)
C4 C 0.1507(3) 0.57535(14) 0.5403(4)
H1 H 0.1776 0.5888 0.5732
O4 O -0.0000 0.5662(4) 0.5000
C5 C 0.0241(2) 0.51206(12) 0.7508(4)
H2 H 0.0440 0.5220 0.7956
C6 C 0.1783(2) 0.55336(19) 0.7953(3)
H3 H 0.1905 0.5343 0.8139
C7 C 0.1425(2) 0.5350(2) 0.7388(3)
H4 H 0.1300 0.5035 0.7211
C8 C 0.1254(2) 0.56270(12) 0.7086(4)
C9 C 0.1962(2) 0.59812(12) 0.8248(4)
C10 C 0.2361(2) 0.61806(11) 0.8892(4)
C1C C -0.0999(2) 0.45007(12) 0.5670(4)
N1C N -0.0702(2) 0.46489(12) 0.5000
C2C C -0.0392(2) 0.48040(12) 0.6687(4)
O3C O -0.25009(11) 0.33985(12) 0.91180(18)
C3C C -0.0863(2) 0.45686(12) 0.6455(4)
C4C C -0.1507(3) 0.42465(14) 0.5403(4)
H1C H -0.1776 0.4112 0.5732
C5C C -0.0241(2) 0.48794(12) 0.7508(4)
H2C H -0.0440 0.4780 0.7956
C6C C -0.1783(2) 0.44664(19) 0.7953(3)
H3C H -0.1905 0.4657 0.8139
C7C C -0.1425(2) 0.4650(2) 0.7388(3)
H4C H -0.1300 0.4965 0.7211
C8C C -0.1254(2) 0.43730(12) 0.7086(4)
C9C C -0.1962(2) 0.40188(12) 0.8248(4)
C10C C -0.2361(2) 0.38194(11) 0.8892(4)
C1K C 0.0999(2) 0.54997(23) 0.4330(4)
C2K C 0.0392(2) 0.51960(23) 0.3313(4)
O3K O 0.25009(11) 0.58994(16) 0.08820(18)
C3K C 0.0863(2) 0.54316(23) 0.3545(4)
N2H N -0.0000 0.5000 0.3834(4)
C4K C 0.1507(3) 0.57535(33) 0.4597(4)
H1K H 0.1776 0.5888 0.4268
C5K C 0.0241(2) 0.51204(23) 0.2492(4)
H2K H 0.0440 0.5220 0.2044
C6K C 0.1783(2) 0.62494(28) 0.2047(3)
H3K H 0.1905 0.6562 0.1861
C7K C 0.1425(2) 0.6075(3) 0.2612(3)
H4K H 0.1300 0.6265 0.2789
C8K C 0.1254(2) 0.56270(23) 0.2914(4)
C9K C 0.1962(2) 0.59808(23) 0.1752(4)
C10K C 0.2361(2) 0.61804(23) 0.1108(4)
O3O O 0.25009(11) 0.66015(12) 0.08820(18)
C6O C 0.1783(2) 0.55336(19) 0.2047(3)
H3O H 0.1905 0.5343 0.1861
C7O C 0.1425(2) 0.5350(2) 0.2612(3)
H4O H 0.1300 0.5035 0.2789
O3T O 0.25009(11) 0.58994(16) 0.91180(18)
C6T C 0.1783(2) 0.62494(28) 0.7953(3)
H3T H 0.1905 0.6562 0.8139
C7T C 0.1425(2) 0.6075(3) 0.7388(3)
H4T H 0.1300 0.6265 0.7211
O3W O -0.25009(11) 0.41006(16) 0.91180(18)
C6W C -0.1783(2) 0.37506(28) 0.7953(3)
H3W H -0.1905 0.3438 0.8139
C7W C -0.1425(2) 0.3925(3) 0.7388(3)
H4W H -0.1300 0.3735 0.7211
C1H C -0.0999(2) 0.45003(23) 0.4330(4)
C2H C -0.0392(2) 0.48040(23) 0.3313(4)
O3H O -0.25009(11) 0.41006(16) 0.08820(18)
C3H C -0.0863(2) 0.45684(23) 0.3545(4)
C4H C -0.1507(3) 0.42465(33) 0.4597(4)
H1H H -0.1776 0.4112 0.4268
C5H C -0.0241(2) 0.48796(23) 0.2492(4)
H2H H -0.0440 0.4780 0.2044
C6H C -0.1783(2) 0.37506(28) 0.2047(3)
H3H H -0.1905 0.3438 0.1861
C7H C -0.1425(2) 0.3925(3) 0.2612(3)
H4H H -0.1300 0.3735 0.2789
C8H C -0.1254(2) 0.43730(23) 0.2914(4)
C9H C -0.1962(2) 0.40192(23) 0.1752(4)
C10H C -0.2361(2) 0.38196(23) 0.1108(4)
O3L O -0.25009(11) 0.33985(12) 0.08820(18)
C6L C -0.1783(2) 0.44664(19) 0.2047(3)
H3L H -0.1905 0.4657 0.1861
C7L C -0.1425(2) 0.4650(2) 0.2612(3)
H4L H -0.1300 0.4965 0.2789
O1A O 0.25865(14) 0.51730(20) 1.0000
Co1A Co 0.29693(2) 0.59386(3) 1.0000
C1A C 0.45007(12) 0.54997(23) 0.5670(4)
N1A N 0.46489(12) 0.53509(23) 0.5000
C2A C 0.48040(12) 0.51960(23) 0.6687(4)
Co2A Co 0.495(3) 0.4950(30) 0.5000
O3A O 0.33985(12) 0.58994(16) 0.91180(18)
C3A C 0.45686(12) 0.54316(23) 0.6455(4)
N2A N 0.5000 0.5000 0.6166(4)
C4A C 0.42465(14) 0.57535(33) 0.5403(4)
H1A H 0.4112 0.5888 0.5732
O4A O 0.4338(4) 0.4338(4) 0.5000
C5A C 0.48794(12) 0.51204(23) 0.7508(4)
H2A H 0.4780 0.5220 0.7956
C6A C 0.44664(19) 0.62494(28) 0.7953(3)
H3A H 0.4657 0.6562 0.8139
C7A C 0.4650(2) 0.6075(3) 0.7388(3)
H4A H 0.4965 0.6265 0.7211
C8A C 0.43730(12) 0.56270(23) 0.7086(4)
C9A C 0.40188(12) 0.59808(23) 0.8248(4)
C10A C 0.38194(11) 0.61804(23) 0.8892(4)
C1D C 0.54993(12) 0.45003(23) 0.5670(4)
N1D N 0.53511(12) 0.46491(23) 0.5000
C2D C 0.51960(12) 0.48040(23) 0.6687(4)
O3D O 0.66015(12) 0.41006(16) 0.91180(18)
C3D C 0.54314(12) 0.45684(23) 0.6455(4)
C4D C 0.57535(14) 0.42465(33) 0.5403(4)
H1D H 0.5888 0.4112 0.5732
C5D C 0.51206(12) 0.48796(23) 0.7508(4)
H2D H 0.5220 0.4780 0.7956
C6D C 0.55336(19) 0.37506(28) 0.7953(3)
H3D H 0.5343 0.3438 0.8139
C7D C 0.5350(2) 0.3925(3) 0.7388(3)
H4D H 0.5035 0.3735 0.7211
C8D C 0.56270(12) 0.43730(23) 0.7086(4)
C9D C 0.59812(12) 0.40192(23) 0.8248(4)
C10D C 0.61806(11) 0.38196(23) 0.8892(4)
C1J C 0.45003(23) 0.54993(12) 0.4330(4)
C2J C 0.48040(23) 0.51960(12) 0.3313(4)
O3J O 0.41006(16) 0.66015(12) 0.08820(18)
C3J C 0.45684(23) 0.54314(12) 0.3545(4)
N2G N 0.5000 0.5000 0.3834(4)
C4J C 0.42465(33) 0.57535(14) 0.4597(4)
H1J H 0.4112 0.5888 0.4268
C5J C 0.48796(23) 0.51206(12) 0.2492(4)
H2J H 0.4780 0.5220 0.2044
C6J C 0.37506(28) 0.55336(19) 0.2047(3)
H3J H 0.3438 0.5343 0.1861
C7J C 0.3925(3) 0.5350(2) 0.2612(3)
H4J H 0.3735 0.5035 0.2789
C8J C 0.43730(23) 0.56270(12) 0.2914(4)
C9J C 0.40192(23) 0.59812(12) 0.1752(4)
C10J C 0.38196(23) 0.61806(11) 0.1108(4)
O3P O 0.33985(12) 0.58994(16) 0.08820(18)
C6P C 0.44664(19) 0.62494(28) 0.2047(3)
H3P H 0.4657 0.6562 0.1861
C7P C 0.4650(2) 0.6075(3) 0.2612(3)
H4P H 0.4965 0.6265 0.2789
O3S O 0.41006(16) 0.66015(12) 0.91180(18)
C6S C 0.37506(28) 0.55336(19) 0.7953(3)
H3S H 0.3438 0.5343 0.8139
C7S C 0.3925(3) 0.5350(2) 0.7388(3)
H4S H 0.3735 0.5035 0.7211
O3V O 0.58994(16) 0.33985(12) 0.91180(18)
C6V C 0.62494(28) 0.44664(19) 0.7953(3)
H3V H 0.6562 0.4657 0.8139
C7V C 0.6075(3) 0.4650(2) 0.7388(3)
H4V H 0.6265 0.4965 0.7211
C1G C 0.54997(23) 0.45007(12) 0.4330(4)
C2G C 0.51960(23) 0.48040(12) 0.3313(4)
O3G O 0.58994(16) 0.33985(12) 0.08820(18)
C3G C 0.54316(23) 0.45686(12) 0.3545(4)
C4G C 0.57535(33) 0.42465(14) 0.4597(4)
H1G H 0.5888 0.4112 0.4268
C5G C 0.51204(23) 0.48794(12) 0.2492(4)
H2G H 0.5220 0.4780 0.2044
C6G C 0.62494(28) 0.44664(19) 0.2047(3)
H3G H 0.6562 0.4657 0.1861
C7G C 0.6075(3) 0.4650(2) 0.2612(3)
H4G H 0.6265 0.4965 0.2789
C8G C 0.56270(23) 0.43730(12) 0.2914(4)
C9G C 0.59808(23) 0.40188(12) 0.1752(4)
C10G C 0.61804(23) 0.38194(11) 0.1108(4)
O3M O 0.66015(12) 0.41006(16) 0.08820(18)
C6M C 0.55336(19) 0.37506(28) 0.2047(3)
H3M H 0.5343 0.3438 0.1861
C7M C 0.5350(2) 0.3925(3) 0.2612(3)
H4M H 0.5035 0.3735 0.2789
O1B O 0.48270(20) 0.74135(14) 1.0000
Co1B Co 0.40614(3) 0.70307(2) 1.0000
C1B C 0.45003(23) 0.9001(2) 0.5670(4)
N1B N 0.46491(23) 0.9298(2) 0.5000
C2B C 0.48040(23) 0.9608(2) 0.6687(4)
Co2B Co 0.5050(30) 1.0000 0.5000
O3B O 0.41006(16) 0.74991(11) 0.91180(18)
C3B C 0.45684(23) 0.9137(2) 0.6455(4)
N2B N 0.5000 1.0000 0.6166(4)
C4B C 0.42465(33) 0.8493(3) 0.5403(4)
H1B H 0.4112 0.8224 0.5732
O4B O 0.5662(4) 1.0000 0.5000
C5B C 0.48796(23) 0.9759(2) 0.7508(4)
H2B H 0.4780 0.9560 0.7956
C6B C 0.37506(28) 0.8217(2) 0.7953(3)
H3B H 0.3438 0.8095 0.8139
C7B C 0.3925(3) 0.8575(2) 0.7388(3)
H4B H 0.3735 0.8700 0.7211
C8B C 0.43730(23) 0.8746(2) 0.7086(4)
C9B C 0.40192(23) 0.8038(2) 0.8248(4)
C10B C 0.38196(23) 0.7639(2) 0.8892(4)
C1E C 0.54997(23) 1.0999(2) 0.5670(4)
N1E N 0.53509(23) 1.0702(2) 0.5000
C2E C 0.51960(23) 1.0392(2) 0.6687(4)
O3E O 0.58994(16) 1.25009(11) 0.91180(18)
C3E C 0.54316(23) 1.0863(2) 0.6455(4)
C4E C 0.57535(33) 1.1507(3) 0.5403(4)
H1E H 0.5888 1.1776 0.5732
C5E C 0.51204(23) 1.0241(2) 0.7508(4)
H2E H 0.5220 1.0440 0.7956
C6E C 0.62494(28) 1.1783(2) 0.7953(3)
H3E H 0.6562 1.1905 0.8139
C7E C 0.6075(3) 1.1425(2) 0.7388(3)
H4E H 0.6265 1.1300 0.7211
C8E C 0.56270(23) 1.1254(2) 0.7086(4)
C9E C 0.59808(23) 1.1962(2) 0.8248(4)
C10E C 0.61804(23) 1.2361(2) 0.8892(4)
C1I C 0.45007(12) 0.9001(2) 0.4330(4)
C2I C 0.48040(12) 0.9608(2) 0.3313(4)
O3I O 0.33985(12) 0.74991(11) 0.08820(18)
C3I C 0.45686(12) 0.9137(2) 0.3545(4)
N2F N 0.5000 1.0000 0.3834(4)
C4I C 0.42465(14) 0.8493(3) 0.4597(4)
H1I H 0.4112 0.8224 0.4268
C5I C 0.48794(12) 0.9759(2) 0.2492(4)
H2I H 0.4780 0.9560 0.2044
C6I C 0.44664(19) 0.8217(2) 0.2047(3)
H3I H 0.4657 0.8095 0.1861
C7I C 0.4650(2) 0.8575(2) 0.2612(3)
H4I H 0.4965 0.8700 0.2789
C8I C 0.43730(12) 0.8746(2) 0.2914(4)
C9I C 0.40188(12) 0.8038(2) 0.1752(4)
C10I C 0.38194(11) 0.7639(2) 0.1108(4)
O3Q O 0.41006(16) 0.74991(11) 0.08820(18)
C6Q C 0.37506(28) 0.8217(2) 0.2047(3)
H3Q H 0.3438 0.8095 0.1861
C7Q C 0.3925(3) 0.8575(2) 0.2612(3)
H4Q H 0.3735 0.8700 0.2789
O3R O 0.33985(12) 0.74991(11) 0.91180(18)
C6R C 0.44664(19) 0.8217(2) 0.7953(3)
H3R H 0.4657 0.8095 0.8139
C7R C 0.4650(2) 0.8575(2) 0.7388(3)
H4R H 0.4965 0.8700 0.7211
O3U O 0.66015(12) 1.25009(11) 0.91180(18)
C6U C 0.55336(19) 1.1783(2) 0.7953(3)
H3U H 0.5343 1.1905 0.8139
C7U C 0.5350(2) 1.1425(2) 0.7388(3)
H4U H 0.5035 1.1300 0.7211
C1F C 0.54993(12) 1.0999(2) 0.4330(4)
C2F C 0.51960(12) 1.0392(2) 0.3313(4)
O3F O 0.66015(12) 1.25009(11) 0.08820(18)
C3F C 0.54314(12) 1.0863(2) 0.3545(4)
C4F C 0.57535(14) 1.1507(3) 0.4597(4)
H1F H 0.5888 1.1776 0.4268
C5F C 0.51206(12) 1.0241(2) 0.2492(4)
H2F H 0.5220 1.0440 0.2044
C6F C 0.55336(19) 1.1783(2) 0.2047(3)
H3F H 0.5343 1.1905 0.1861
C7F C 0.5350(2) 1.1425(2) 0.2612(3)
H4F H 0.5035 1.1300 0.2789
C8F C 0.56270(12) 1.1254(2) 0.2914(4)
C9F C 0.59812(12) 1.1962(2) 0.1752(4)
C10F C 0.61806(11) 1.2361(2) 0.1108(4)
O3N O 0.58994(16) 1.25009(11) 0.08820(18)
C6N C 0.62494(28) 1.1783(2) 0.2047(3)
H3N H 0.6562 1.1905 0.1861
C7N C 0.6075(3) 1.1425(2) 0.2612(3)
H4N H 0.6265 1.1300 0.2789
O1C O -0.25865(14) 0.25865(14) 1.0000
Co1C Co -0.29693(2) 0.29693(2) 1.0000
O2C O -0.3333 0.3333 1.0000
Co2C Co -0.0000 0.495(3) 0.5000
O4C O -0.0000 0.4338(4) 0.5000
O1D O -0.25865(14) 0.48270(20) 1.0000
Co1D Co -0.29693(2) 0.40614(3) 1.0000
O1E O -0.48270(20) 0.25865(14) 1.0000
Co1E Co -0.40614(3) 0.29693(2) 1.0000
Co2D Co 0.505(3) 0.5050(30) 0.5000
O4D O 0.5662(4) 0.5662(4) 0.5000
Co2E Co 0.4950(30) 1.0000 0.5000
O4E O 0.4338(4) 1.0000 0.5000
Co1_2 Co 0.29693(2) 0.70307(2) 0.0000
Co1A_2 Co 0.29693(2) 0.59386(3) 0.0000
Co1B_2 Co 0.40614(3) 0.70307(2) 0.0000
Co1C_2 Co -0.29693(2) 0.29693(2) 0.0000
Co1C_3 Co 0.70307(2) 1.29693(2) 0.0000
Co1C_4 Co 0.70307(2) 1.29693(2) 1.0000
Co1D_2 Co -0.29693(2) 0.40614(3) 0.0000
Co1D_3 Co 0.70307(2) 0.40614(3) 0.0000
Co1D_4 Co 0.70307(2) 0.40614(3) 1.0000
Co1E_2 Co 0.59386(3) 0.29693(2) 0.0000
Co1E_3 Co 0.59386(3) 0.29693(2) 1.0000
Co1E_4 Co 0.59386(3) 1.29693(2) 0.0000
Co1E_5 Co 0.59386(3) 1.29693(2) 1.0000
O3D_2 O -0.33985(12) 0.41006(16) 0.91180(18)
O3E_2 O -0.41006(16) 0.25009(11) 0.91180(18)
O3F_2 O -0.33985(12) 0.25009(11) 1.08820(18)
O3G_2 O -0.41006(16) 0.33985(12) 1.08820(18)
O3H_2 O -0.25009(11) 0.41006(16) 1.08820(18)
O3I_2 O 0.33985(12) 0.74991(11) 1.08820(18)
O3J_2 O 0.41006(16) 0.66015(12) 1.08820(18)
O3K_2 O 0.25009(11) 0.58994(16) 1.08820(18)
O3L_2 O -0.25009(11) 0.33985(12) 1.08820(18)
O3M_2 O -0.33985(12) 0.41006(16) 1.08820(18)
O3N_2 O -0.41006(16) 0.25009(11) 1.08820(18)
O3O_2 O 0.25009(11) 0.66015(12) 1.08820(18)
O3P_2 O 0.33985(12) 0.58994(16) 1.08820(18)
O3Q_2 O 0.41006(16) 0.74991(11) 1.08820(18)
O3U_2 O -0.33985(12) 0.25009(11) 0.91180(18)
O3V_2 O -0.41006(16) 0.33985(12) 0.91180(18)
loop_
_geom_bond_atom_site_label_1
_geom_bond_atom_site_label_2
_geom_bond_site_symmetry_1
_geom_bond_site_symmetry_2
O1 Co1 1_555 1_555
Co1 O2 1_555 1_555
C1 N1 1_555 1_555
N1 Co2 1_555 1_555
O2 Co1A 1_555 1_555
C2 C3 1_555 1_555
Co2 N2 1_555 1_555
O3 Co1 1_555 1_555
C3 C1 1_555 1_555
N2 C2 1_555 1_555
C4 C1 1_555 1_555
H1 C4 1_555 1_555
O4 Co2 1_555 1_555
C5 C2 1_555 1_555
H2 C5 1_555 1_555
C6 H3 1_555 1_555
C7 C6 1_555 1_555
H4 C7 1_555 1_555
C8 C3 1_555 1_555
C9 C6 1_555 1_555
C10 O3 1_555 1_555
C1C N1C 1_555 1_555
N1C Co2 1_555 1_555
C2C N2 1_555 1_555
O3C C10C 1_555 1_555
C3C C1C 1_555 1_555
C4C C1C 1_555 1_555
H1C C4C 1_555 1_555
C5C C5 1_555 1_555
H2C C5C 1_555 1_555
C6C H3C 1_555 1_555
C7C C6C 1_555 1_555
H4C C7C 1_555 1_555
C8C C3C 1_555 1_555
C9C C6C 1_555 1_555
C10C C9C 1_555 1_555
C1K N1 1_555 1_555
C2K C3K 1_555 1_555
O3K C10K 1_555 1_555
C3K C1K 1_555 1_555
N2H Co2 1_555 1_555
C4K C4 1_555 1_555
H1K C4K 1_555 1_555
C5K C2K 1_555 1_555
H2K C5K 1_555 1_555
C6K H3K 1_555 1_555
C7K C6K 1_555 1_555
H4K C7K 1_555 1_555
C8K C3K 1_555 1_555
C9K C6K 1_555 1_555
C10K C9K 1_555 1_555
O3O C10K 1_555 1_555
C6O C9K 1_555 1_555
H3O C6O 1_555 1_555
C7O C8K 1_555 1_555
H4O C7O 1_555 1_555
O3T C10 1_555 1_555
C6T C9 1_555 1_555
H3T C6T 1_555 1_555
C7T C8 1_555 1_555
H4T C7T 1_555 1_555
O3W C10C 1_555 1_555
C6W C9C 1_555 1_555
H3W C6W 1_555 1_555
C7W C8C 1_555 1_555
H4W C7W 1_555 1_555
C1H N1C 1_555 1_555
C2H N2H 1_555 1_555
O3H C10H 1_555 1_555
C3H C1H 1_555 1_555
C4H C4C 1_555 1_555
H1H C4H 1_555 1_555
C5H C5K 1_555 1_555
H2H C5H 1_555 1_555
C6H H3H 1_555 1_555
C7H C6H 1_555 1_555
H4H C7H 1_555 1_555
C8H C3H 1_555 1_555
C9H C6H 1_555 1_555
C10H C9H 1_555 1_555
O3L C10H 1_555 1_555
C6L C9H 1_555 1_555
H3L C6L 1_555 1_555
C7L C8H 1_555 1_555
H4L C7L 1_555 1_555
O1A Co1A 1_555 1_555
Co1A O3T 1_555 1_555
C1A N1A 1_555 1_555
N1A Co2A 1_555 1_555
C2A C3A 1_555 1_555
Co2A N2A 1_555 1_555
O3A Co1A 1_555 1_555
C3A C1A 1_555 1_555
N2A C2A 1_555 1_555
C4A C1A 1_555 1_555
H1A C4A 1_555 1_555
O4A Co2A 1_555 1_555
C5A C2A 1_555 1_555
H2A C5A 1_555 1_555
C6A H3A 1_555 1_555
C7A C6A 1_555 1_555
H4A C7A 1_555 1_555
C8A C3A 1_555 1_555
C9A C6A 1_555 1_555
C10A O3A 1_555 1_555
C1D N1D 1_555 1_555
N1D Co2A 1_555 1_555
C2D N2A 1_555 1_555
O3D C10D 1_555 1_555
C3D C1D 1_555 1_555
C4D C1D 1_555 1_555
H1D C4D 1_555 1_555
C5D C5A 1_555 1_555
H2D C5D 1_555 1_555
C6D H3D 1_555 1_555
C7D C6D 1_555 1_555
H4D C7D 1_555 1_555
C8D C3D 1_555 1_555
C9D C6D 1_555 1_555
C10D C9D 1_555 1_555
C1J N1A 1_555 1_555
C2J C3J 1_555 1_555
O3J C10J 1_555 1_555
C3J C1J 1_555 1_555
N2G Co2A 1_555 1_555
C4J C4A 1_555 1_555
H1J C4J 1_555 1_555
C5J C2J 1_555 1_555
H2J C5J 1_555 1_555
C6J H3J 1_555 1_555
C7J C6J 1_555 1_555
H4J C7J 1_555 1_555
C8J C3J 1_555 1_555
C9J C6J 1_555 1_555
C10J C9J 1_555 1_555
O3P C10J 1_555 1_555
C6P C9J 1_555 1_555
H3P C6P 1_555 1_555
C7P C8J 1_555 1_555
H4P C7P 1_555 1_555
O3S C10A 1_555 1_555
C6S C9A 1_555 1_555
H3S C6S 1_555 1_555
C7S C8A 1_555 1_555
H4S C7S 1_555 1_555
O3V C10D 1_555 1_555
C6V C9D 1_555 1_555
H3V C6V 1_555 1_555
C7V C8D 1_555 1_555
H4V C7V 1_555 1_555
C1G N1D 1_555 1_555
C2G N2G 1_555 1_555
O3G C10G 1_555 1_555
C3G C1G 1_555 1_555
C4G C4D 1_555 1_555
H1G C4G 1_555 1_555
C5G C5J 1_555 1_555
H2G C5G 1_555 1_555
C6G H3G 1_555 1_555
C7G C6G 1_555 1_555
H4G C7G 1_555 1_555
C8G C3G 1_555 1_555
C9G C6G 1_555 1_555
C10G C9G 1_555 1_555
O3M C10G 1_555 1_555
C6M C9G 1_555 1_555
H3M C6M 1_555 1_555
C7M C8G 1_555 1_555
H4M C7M 1_555 1_555
O1B Co1B 1_555 1_555
Co1B O2 1_555 1_555
C1B N1B 1_555 1_555
N1B Co2B 1_555 1_555
C2B C3B 1_555 1_555
Co2B N2B 1_555 1_555
O3B Co1B 1_555 1_555
C3B C1B 1_555 1_555
N2B C2B 1_555 1_555
C4B C1B 1_555 1_555
H1B C4B 1_555 1_555
O4B Co2B 1_555 1_555
C5B C2B 1_555 1_555
H2B C5B 1_555 1_555
C6B H3B 1_555 1_555
C7B C6B 1_555 1_555
H4B C7B 1_555 1_555
C8B C3B 1_555 1_555
C9B C6B 1_555 1_555
C10B O3B 1_555 1_555
C1E N1E 1_555 1_555
N1E Co2B 1_555 1_555
C2E N2B 1_555 1_555
O3E C10E 1_555 1_555
C3E C1E 1_555 1_555
C4E C1E 1_555 1_555
H1E C4E 1_555 1_555
C5E C5B 1_555 1_555
H2E C5E 1_555 1_555
C6E H3E 1_555 1_555
C7E C6E 1_555 1_555
H4E C7E 1_555 1_555
C8E C3E 1_555 1_555
C9E C6E 1_555 1_555
C10E C9E 1_555 1_555
C1I N1B 1_555 1_555
C2I C3I 1_555 1_555
O3I C10I 1_555 1_555
C3I C1I 1_555 1_555
N2F Co2B 1_555 1_555
C4I C4B 1_555 1_555
H1I C4I 1_555 1_555
C5I C2I 1_555 1_555
H2I C5I 1_555 1_555
C6I H3I 1_555 1_555
C7I C6I 1_555 1_555
H4I C7I 1_555 1_555
C8I C3I 1_555 1_555
C9I C6I 1_555 1_555
C10I C9I 1_555 1_555
O3Q C10I 1_555 1_555
C6Q C9I 1_555 1_555
H3Q C6Q 1_555 1_555
C7Q C8I 1_555 1_555
H4Q C7Q 1_555 1_555
O3R Co1 1_555 1_555
C6R C9B 1_555 1_555
H3R C6R 1_555 1_555
C7R C8B 1_555 1_555
H4R C7R 1_555 1_555
O3U C10E 1_555 1_555
C6U C9E 1_555 1_555
H3U C6U 1_555 1_555
C7U C8E 1_555 1_555
H4U C7U 1_555 1_555
C1F N1E 1_555 1_555
C2F N2F 1_555 1_555
O3F C10F 1_555 1_555
C3F C1F 1_555 1_555
C4F C4E 1_555 1_555
H1F C4F 1_555 1_555
C5F C5I 1_555 1_555
H2F C5F 1_555 1_555
C6F H3F 1_555 1_555
C7F C6F 1_555 1_555
H4F C7F 1_555 1_555
C8F C3F 1_555 1_555
C9F C6F 1_555 1_555
C10F C9F 1_555 1_555
O3N C10F 1_555 1_555
C6N C9F 1_555 1_555
H3N C6N 1_555 1_555
C7N C8F 1_555 1_555
H4N C7N 1_555 1_555
O1C Co1C 1_555 1_555
Co1C O3C 1_555 1_555
O2C Co1C 1_555 1_555
Co2C N1 1_555 1_555
O4C Co2 1_555 1_555
O1D Co1D 1_555 1_555
Co1D O3W 1_555 1_555
O1E Co1E 1_555 1_555
Co1E O2C 1_555 1_555
Co2D N1A 1_555 1_555
O4D Co2A 1_555 1_555
Co2E N1B 1_555 1_555
O4E Co2B 1_555 1_555
Co1_2 O3O 1_555 1_555
Co1A_2 O3K 1_555 1_555
Co1B_2 O3J 1_555 1_555
Co1C_2 O3L 1_555 1_555
Co1C_3 O3F 1_555 1_555
Co1C_4 O3U 1_555 1_555
Co1D_2 O3H 1_555 1_555
Co1D_3 O3M 1_555 1_555
Co1D_4 O3D 1_555 1_555
Co1E_2 O3G 1_555 1_555
Co1E_3 O3V 1_555 1_555
Co1E_4 O3N 1_555 1_555
Co1E_5 O3E 1_555 1_555
O3D_2 Co1D 1_555 1_555
O3E_2 Co1E 1_555 1_555
O3F_2 Co1C 1_555 1_555
O3G_2 Co1E 1_555 1_555
O3H_2 Co1D 1_555 1_555
O3I_2 Co1 1_555 1_555
O3J_2 Co1B 1_555 1_555
O3K_2 Co1A 1_555 1_555
O3L_2 Co1C 1_555 1_555
O3M_2 Co1D 1_555 1_555
O3N_2 Co1E 1_555 1_555
O3O_2 Co1 1_555 1_555
O3P_2 Co1A 1_555 1_555
O3Q_2 Co1B 1_555 1_555
O3U_2 Co1C 1_555 1_555
O3V_2 Co1E 1_555 1_555
N2 Co2C 1_555 1_555
O4 Co2C 1_555 1_555
C7 C8 1_555 1_555
C9 C10 1_555 1_555
N1C Co2C 1_555 1_555
C2C C3C 1_555 1_555
C2C C5C 1_555 1_555
C7C C8C 1_555 1_555
C1K C4K 1_555 1_555
C2K N2H 1_555 1_555
N2H Co2C 1_555 1_555
C7K C8K 1_555 1_555
C6O C7O 1_555 1_555
C6T C7T 1_555 1_555
C6W C7W 1_555 1_555
C1H C4H 1_555 1_555
C2H C3H 1_555 1_555
C2H C5H 1_555 1_555
C7H C8H 1_555 1_555
C6L C7L 1_555 1_555
N2A Co2D 1_555 1_555
O4A Co2D 1_555 1_555
C7A C8A 1_555 1_555
C9A C10A 1_555 1_555
N1D Co2D 1_555 1_555
C2D C3D 1_555 1_555
C2D C5D 1_555 1_555
C7D C8D 1_555 1_555
C1J C4J 1_555 1_555
C2J N2G 1_555 1_555
N2G Co2D 1_555 1_555
C7J C8J 1_555 1_555
O3P Co1A_2 1_555 1_555
C6P C7P 1_555 1_555
O3S Co1B 1_555 1_555
C6S C7S 1_555 1_555
C6V C7V 1_555 1_555
C1G C4G 1_555 1_555
C2G C3G 1_555 1_555
C2G C5G 1_555 1_555
C7G C8G 1_555 1_555
C6M C7M 1_555 1_555
N2B Co2E 1_555 1_555
O4B Co2E 1_555 1_555
C7B C8B 1_555 1_555
C9B C10B 1_555 1_555
C10B O3R 1_555 1_555
N1E Co2E 1_555 1_555
C2E C3E 1_555 1_555
C2E C5E 1_555 1_555
C7E C8E 1_555 1_555
C1I C4I 1_555 1_555
C2I N2F 1_555 1_555
O3I Co1_2 1_555 1_555
N2F Co2E 1_555 1_555
C7I C8I 1_555 1_555
O3Q Co1B_2 1_555 1_555
C6Q C7Q 1_555 1_555
C6R C7R 1_555 1_555
C6U C7U 1_555 1_555
C1F C4F 1_555 1_555
C2F C3F 1_555 1_555
C2F C5F 1_555 1_555
C7F C8F 1_555 1_555
C6N C7N 1_555 1_555
O2C Co1D 1_555 1_555
Co2C O4C 1_555 1_555
Co2D O4D 1_555 1_555
Co2E O4E 1_555 1_555

#END
