
#######################################################################
#
#                 Cambridge Crystallographic Data Centre
#                                CCDC 
#
#######################################################################
#
# If this CIF has been generated from an entry in the Cambridge 
# Structural Database, then it will include bibliographic, chemical, 
# crystal, experimental, refinement or atomic coordinate data resulting 
# from the CCDC's data processing and validation procedures.
#
#######################################################################

data_DAJWET
_chemical_formula_moiety         '(C144 H90 Mg6 N12 O32 4-)n'
_symmetry_cell_setting           hexagonal
_symmetry_space_group_name_H-M   'P 6/m m m'
_symmetry_Int_Tables_number      191
_space_group_name_Hall           '-P 6 2'
loop_
_symmetry_equiv_pos_site_id
_symmetry_equiv_pos_as_xyz
1 x,y,z
2 -y,x-y,z
3 -x+y,-x,z
4 -x,-y,z
5 y,-x+y,z
6 x-y,x,z
7 y,x,-z
8 x-y,-y,-z
9 -x,-x+y,-z
10 -y,-x,-z
11 -x+y,y,-z
12 x,x-y,-z
13 -x,-y,-z
14 y,-x+y,-z
15 x-y,x,-z
16 x,y,-z
17 -y,x-y,-z
18 -x+y,-x,-z
19 -y,-x,z
20 -x+y,y,z
21 x,x-y,z
22 y,x,z
23 x-y,-y,z
24 -x,-x+y,z
_cell_length_a                   31.848(8)
_cell_length_b                   31.848(8)
_cell_length_c                   16.883(5)
_cell_angle_alpha                90
_cell_angle_beta                 90
_cell_angle_gamma                120
_cell_volume                     14830.1
loop_
_atom_site_label
_atom_site_type_symbol
_atom_site_fract_x
_atom_site_fract_y
_atom_site_fract_z
Mg1 Mg 0.29738(4) 0.59475(8) 0.5000
O1 O 0.25861(11) 0.5172(2) 0.5000
C1 C 0.0404(2) 0.52020(11) 0.1723(6)
N1 N -0.0000 0.5000 0.1184(6)
H1 H -0.0000 0.5000 0.0674
O2 O 0.24971(10) 0.59004(10) 0.4134(2)
C2 C 0.0881(2) 0.54405(11) 0.1423(5)
N2 N 0.0740(3) 0.53699(14) 0.0000
C3 C 0.23570(19) 0.61785(10) 0.3893(4)
C4 C 0.1026(3) 0.55129(14) 0.0652(6)
O3 O 0.3333 0.6667 0.5000
C5 C 0.19831(19) 0.59915(9) 0.3248(5)
C6 C 0.1270(2) 0.56352(10) 0.2083(5)
C7 C 0.1527(2) 0.57635(11) 0.0394(5)
H2 H 0.1799 0.5899 0.0720
C8 C 0.1799(2) 0.55344(18) 0.2941(4)
H3 H 0.1929 0.5345 0.3110
C9 C 0.1433(2) 0.5346(2) 0.2396(5)
H4 H 0.1295 0.5024 0.2240
C10 C 0.0249(2) 0.51244(12) 0.2513(7)
H5 H 0.0447 0.5224 0.2958
C1C C -0.0404(2) 0.47980(11) 0.1723(6)
O2C O -0.24971(10) 0.40996(10) 0.4134(2)
C2C C -0.0881(2) 0.45595(11) 0.1423(5)
N2C N -0.0740(3) 0.46301(14) 0.0000
C3C C -0.23570(19) 0.38215(10) 0.3893(4)
C4C C -0.1026(3) 0.44871(14) 0.0652(6)
C5C C -0.19831(19) 0.40085(9) 0.3248(5)
C6C C -0.1270(2) 0.43648(10) 0.2083(5)
C7C C -0.1527(2) 0.42365(11) 0.0394(5)
H2C H -0.1799 0.4101 0.0720
C8C C -0.1799(2) 0.44656(18) 0.2941(4)
H3C H -0.1929 0.4655 0.3110
C9C C -0.1433(2) 0.4654(2) 0.2396(5)
H4C H -0.1295 0.4976 0.2240
C10C C -0.0249(2) 0.48756(12) 0.2513(7)
H5C H -0.0447 0.4776 0.2958
C1H C -0.0404(2) 0.47980(23) -0.1723(6)
N1H N 0.0000 0.5000 -0.1184(6)
H1H H 0.0000 0.5000 -0.0674
O2H O -0.24971(10) 0.34033(14) -0.4134(2)
C2H C -0.0881(2) 0.45595(23) -0.1423(5)
C3H C -0.23570(19) 0.38215(21) -0.3893(4)
C4H C -0.1026(3) 0.44869(33) -0.0652(6)
C5H C -0.19831(19) 0.40084(21) -0.3248(5)
C6H C -0.1270(2) 0.43652(22) -0.2083(5)
C7H C -0.1527(2) 0.42365(23) -0.0394(5)
H2H H -0.1799 0.4100 -0.0720
C8H C -0.1799(2) 0.37354(27) -0.2941(4)
H3H H -0.1929 0.3416 -0.3110
C9H C -0.1433(2) 0.3913(3) -0.2396(5)
H4H H -0.1295 0.3729 -0.2240
C10H C -0.0249(2) 0.48754(23) -0.2513(7)
H5H H -0.0447 0.4777 -0.2958
C1K C 0.0404(2) 0.52020(23) -0.1723(6)
O2K O 0.24971(10) 0.65967(14) -0.4134(2)
C2K C 0.0881(2) 0.54405(23) -0.1423(5)
C3K C 0.23570(19) 0.61785(21) -0.3893(4)
C4K C 0.1026(3) 0.55131(33) -0.0652(6)
C5K C 0.19831(19) 0.59916(21) -0.3248(5)
C6K C 0.1270(2) 0.56348(22) -0.2083(5)
C7K C 0.1527(2) 0.57635(23) -0.0394(5)
H2K H 0.1799 0.5900 -0.0720
C8K C 0.1799(2) 0.62646(27) -0.2941(4)
H3K H 0.1929 0.6584 -0.3110
C9K C 0.1433(2) 0.6087(3) -0.2396(5)
H4K H 0.1295 0.6271 -0.2240
C10K C 0.0249(2) 0.51246(23) -0.2513(7)
H5K H 0.0447 0.5223 -0.2958
O2L O -0.24971(10) 0.40996(10) -0.4134(2)
C8L C -0.1799(2) 0.44656(18) -0.2941(4)
H3L H -0.1929 0.4655 -0.3110
C9L C -0.1433(2) 0.4654(2) -0.2396(5)
H4L H -0.1295 0.4976 -0.2240
O2O O 0.24971(10) 0.59004(10) -0.4134(2)
C8O C 0.1799(2) 0.55344(18) -0.2941(4)
H3O H 0.1929 0.5345 -0.3110
C9O C 0.1433(2) 0.5346(2) -0.2396(5)
H4O H 0.1295 0.5024 -0.2240
O2T O 0.24971(10) 0.65967(14) 0.4134(2)
C8T C 0.1799(2) 0.62646(27) 0.2941(4)
H3T H 0.1929 0.6584 0.3110
C9T C 0.1433(2) 0.6087(3) 0.2396(5)
H4T H 0.1295 0.6271 0.2240
O2W O -0.24971(10) 0.34033(14) 0.4134(2)
C8W C -0.1799(2) 0.37354(27) 0.2941(4)
H3W H -0.1929 0.3416 0.3110
C9W C -0.1433(2) 0.3913(3) 0.2396(5)
H4W H -0.1295 0.3729 0.2240
Mg1A Mg 0.40525(8) 0.70263(9) 0.5000
O1A O 0.4828(2) 0.74141(23) 0.5000
C1A C 0.47980(11) 0.52020(23) 0.1723(6)
N1A N 0.5000 0.5000 0.1184(6)
H1A H 0.5000 0.5000 0.0674
O2A O 0.40996(10) 0.65967(14) 0.4134(2)
C2A C 0.45595(11) 0.54405(23) 0.1423(5)
N2A N 0.46301(14) 0.53701(33) 0.0000
C3A C 0.38215(10) 0.61785(21) 0.3893(4)
C4A C 0.44871(14) 0.55131(33) 0.0652(6)
C5A C 0.40085(9) 0.59916(21) 0.3248(5)
C6A C 0.43648(10) 0.56348(22) 0.2083(5)
C7A C 0.42365(11) 0.57635(23) 0.0394(5)
H2A H 0.4101 0.5900 0.0720
C8A C 0.44656(18) 0.62646(27) 0.2941(4)
H3A H 0.4655 0.6584 0.3110
C9A C 0.4654(2) 0.6087(3) 0.2396(5)
H4A H 0.4976 0.6271 0.2240
C10A C 0.48756(12) 0.51246(23) 0.2513(7)
H5A H 0.4776 0.5223 0.2958
C1D C 0.52020(11) 0.47980(23) 0.1723(6)
O2D O 0.59004(10) 0.34033(14) 0.4134(2)
C2D C 0.54405(11) 0.45595(23) 0.1423(5)
N2D N 0.53699(14) 0.46299(33) 0.0000
C3D C 0.61785(10) 0.38215(21) 0.3893(4)
C4D C 0.55129(14) 0.44869(33) 0.0652(6)
C5D C 0.59915(9) 0.40084(21) 0.3248(5)
C6D C 0.56352(10) 0.43652(22) 0.2083(5)
C7D C 0.57635(11) 0.42365(23) 0.0394(5)
H2D H 0.5899 0.4100 0.0720
C8D C 0.55344(18) 0.37354(27) 0.2941(4)
H3D H 0.5345 0.3416 0.3110
C9D C 0.5346(2) 0.3913(3) 0.2396(5)
H4D H 0.5024 0.3729 0.2240
C10D C 0.51244(12) 0.48754(23) 0.2513(7)
H5D H 0.5224 0.4777 0.2958
C1G C 0.52020(23) 0.47980(11) -0.1723(6)
N1G N 0.5000 0.5000 -0.1184(6)
H1G H 0.5000 0.5000 -0.0674
O2G O 0.65967(14) 0.40996(10) -0.4134(2)
C2G C 0.54405(23) 0.45595(11) -0.1423(5)
C3G C 0.61785(21) 0.38215(10) -0.3893(4)
C4G C 0.55131(33) 0.44871(14) -0.0652(6)
C5G C 0.59916(21) 0.40085(9) -0.3248(5)
C6G C 0.56348(22) 0.43648(10) -0.2083(5)
C7G C 0.57635(23) 0.42365(11) -0.0394(5)
H2G H 0.5900 0.4101 -0.0720
C8G C 0.62646(27) 0.44656(18) -0.2941(4)
H3G H 0.6584 0.4655 -0.3110
C9G C 0.6087(3) 0.4654(2) -0.2396(5)
H4G H 0.6271 0.4976 -0.2240
C10G C 0.51246(23) 0.48756(12) -0.2513(7)
H5G H 0.5223 0.4776 -0.2958
C1J C 0.47980(23) 0.52020(11) -0.1723(6)
O2J O 0.34033(14) 0.59004(10) -0.4134(2)
C2J C 0.45595(23) 0.54405(11) -0.1423(5)
C3J C 0.38215(21) 0.61785(10) -0.3893(4)
C4J C 0.44869(33) 0.55129(14) -0.0652(6)
C5J C 0.40084(21) 0.59915(9) -0.3248(5)
C6J C 0.43652(22) 0.56352(10) -0.2083(5)
C7J C 0.42365(23) 0.57635(11) -0.0394(5)
H2J H 0.4100 0.5899 -0.0720
C8J C 0.37354(27) 0.55344(18) -0.2941(4)
H3J H 0.3416 0.5345 -0.3110
C9J C 0.3913(3) 0.5346(2) -0.2396(5)
H4J H 0.3729 0.5024 -0.2240
C10J C 0.48754(23) 0.51244(12) -0.2513(7)
H5J H 0.4777 0.5224 -0.2958
O2M O 0.59004(10) 0.34033(14) -0.4134(2)
C8M C 0.55344(18) 0.37354(27) -0.2941(4)
H3M H 0.5345 0.3416 -0.3110
C9M C 0.5346(2) 0.3913(3) -0.2396(5)
H4M H 0.5024 0.3729 -0.2240
O2P O 0.40996(10) 0.65967(14) -0.4134(2)
C8P C 0.44656(18) 0.62646(27) -0.2941(4)
H3P H 0.4655 0.6584 -0.3110
C9P C 0.4654(2) 0.6087(3) -0.2396(5)
H4P H 0.4976 0.6271 -0.2240
O2S O 0.34033(14) 0.59004(10) 0.4134(2)
C8S C 0.37354(27) 0.55344(18) 0.2941(4)
H3S H 0.3416 0.5345 0.3110
C9S C 0.3913(3) 0.5346(2) 0.2396(5)
H4S H 0.3729 0.5024 0.2240
O2V O 0.65967(14) 0.40996(10) 0.4134(2)
C8V C 0.62646(27) 0.44656(18) 0.2941(4)
H3V H 0.6584 0.4655 0.3110
C9V C 0.6087(3) 0.4654(2) 0.2396(5)
H4V H 0.6271 0.4976 0.2240
Mg1B Mg 0.29737(9) 0.70262(4) 0.5000
O1B O 0.25859(23) 0.74139(11) 0.5000
C1B C 0.47980(23) 0.9596(2) 0.1723(6)
N1B N 0.5000 1.0000 0.1184(6)
H1B H 0.5000 1.0000 0.0674
O2B O 0.34033(14) 0.75029(10) 0.4134(2)
C2B C 0.45595(23) 0.9119(2) 0.1423(5)
N2B N 0.46299(33) 0.9260(3) 0.0000
C3B C 0.38215(21) 0.76430(19) 0.3893(4)
C4B C 0.44869(33) 0.8974(3) 0.0652(6)
C5B C 0.40084(21) 0.80169(19) 0.3248(5)
C6B C 0.43652(22) 0.8730(2) 0.2083(5)
C7B C 0.42365(23) 0.8473(2) 0.0394(5)
H2B H 0.4100 0.8201 0.0720
C8B C 0.37354(27) 0.8201(2) 0.2941(4)
H3B H 0.3416 0.8071 0.3110
C9B C 0.3913(3) 0.8567(2) 0.2396(5)
H4B H 0.3729 0.8705 0.2240
C10B C 0.48754(23) 0.9751(2) 0.2513(7)
H5B H 0.4777 0.9553 0.2958
C1E C 0.52020(23) 1.0404(2) 0.1723(6)
O2E O 0.65967(14) 1.24971(10) 0.4134(2)
C2E C 0.54405(23) 1.0881(2) 0.1423(5)
N2E N 0.53701(33) 1.0740(3) 0.0000
C3E C 0.61785(21) 1.23570(19) 0.3893(4)
C4E C 0.55131(33) 1.1026(3) 0.0652(6)
C5E C 0.59916(21) 1.19831(19) 0.3248(5)
C6E C 0.56348(22) 1.1270(2) 0.2083(5)
C7E C 0.57635(23) 1.1527(2) 0.0394(5)
H2E H 0.5900 1.1799 0.0720
C8E C 0.62646(27) 1.1799(2) 0.2941(4)
H3E H 0.6584 1.1929 0.3110
C9E C 0.6087(3) 1.1433(2) 0.2396(5)
H4E H 0.6271 1.1295 0.2240
C10E C 0.51246(23) 1.0249(2) 0.2513(7)
H5E H 0.5223 1.0447 0.2958
C1F C 0.52020(11) 1.0404(2) -0.1723(6)
N1F N 0.5000 1.0000 -0.1184(6)
H1F H 0.5000 1.0000 -0.0674
O2F O 0.59004(10) 1.24971(10) -0.4134(2)
C2F C 0.54405(11) 1.0881(2) -0.1423(5)
C3F C 0.61785(10) 1.23570(19) -0.3893(4)
C4F C 0.55129(14) 1.1026(3) -0.0652(6)
C5F C 0.59915(9) 1.19831(19) -0.3248(5)
C6F C 0.56352(10) 1.1270(2) -0.2083(5)
C7F C 0.57635(11) 1.1527(2) -0.0394(5)
H2F H 0.5899 1.1799 -0.0720
C8F C 0.55344(18) 1.1799(2) -0.2941(4)
H3F H 0.5345 1.1929 -0.3110
C9F C 0.5346(2) 1.1433(2) -0.2396(5)
H4F H 0.5024 1.1295 -0.2240
C10F C 0.51244(12) 1.0249(2) -0.2513(7)
H5F H 0.5224 1.0447 -0.2958
C1I C 0.47980(11) 0.9596(2) -0.1723(6)
O2I O 0.40996(10) 0.75029(10) -0.4134(2)
C2I C 0.45595(11) 0.9119(2) -0.1423(5)
C3I C 0.38215(10) 0.76430(19) -0.3893(4)
C4I C 0.44871(14) 0.8974(3) -0.0652(6)
C5I C 0.40085(9) 0.80169(19) -0.3248(5)
C6I C 0.43648(10) 0.8730(2) -0.2083(5)
C7I C 0.42365(11) 0.8473(2) -0.0394(5)
H2I H 0.4101 0.8201 -0.0720
C8I C 0.44656(18) 0.8201(2) -0.2941(4)
H3I H 0.4655 0.8071 -0.3110
C9I C 0.4654(2) 0.8567(2) -0.2396(5)
H4I H 0.4976 0.8705 -0.2240
C10I C 0.48756(12) 0.9751(2) -0.2513(7)
H5I H 0.4776 0.9553 -0.2958
O2N O 0.65967(14) 1.24971(10) -0.4134(2)
C8N C 0.62646(27) 1.1799(2) -0.2941(4)
H3N H 0.6584 1.1929 -0.3110
C9N C 0.6087(3) 1.1433(2) -0.2396(5)
H4N H 0.6271 1.1295 -0.2240
O2Q O 0.34033(14) 0.75029(10) -0.4134(2)
C8Q C 0.37354(27) 0.8201(2) -0.2941(4)
H3Q H 0.3416 0.8071 -0.3110
C9Q C 0.3913(3) 0.8567(2) -0.2396(5)
H4Q H 0.3729 0.8705 -0.2240
O2R O 0.40996(10) 0.75029(10) 0.4134(2)
C8R C 0.44656(18) 0.8201(2) 0.2941(4)
H3R H 0.4655 0.8071 0.3110
C9R C 0.4654(2) 0.8567(2) 0.2396(5)
H4R H 0.4976 0.8705 0.2240
O2U O 0.59004(10) 1.24971(10) 0.4134(2)
C8U C 0.55344(18) 1.1799(2) 0.2941(4)
H3U H 0.5345 1.1929 0.3110
C9U C 0.5346(2) 1.1433(2) 0.2396(5)
H4U H 0.5024 1.1295 0.2240
Mg1C Mg -0.29738(4) 0.40525(8) 0.5000
O1C O -0.25861(11) 0.4828(2) 0.5000
O3C O -0.3333 0.3333 0.5000
Mg1D Mg -0.40525(8) 0.29737(9) 0.5000
O1D O -0.4828(2) 0.25859(23) 0.5000
Mg1E Mg -0.29737(9) 0.29738(4) 0.5000
O1E O -0.25859(23) 0.25861(11) 0.5000
Mg1_2 Mg 0.29738(4) 0.59475(8) -0.5000
Mg1A_2 Mg 0.40525(8) 0.70263(9) -0.5000
Mg1B_2 Mg 0.29737(9) 0.70262(4) -0.5000
Mg1C_2 Mg -0.29738(4) 0.40525(8) -0.5000
Mg1C_3 Mg 0.70262(4) 0.40525(8) -0.5000
Mg1C_4 Mg 0.70262(4) 0.40525(8) 0.5000
Mg1D_2 Mg 0.59475(8) 0.29737(9) -0.5000
Mg1D_3 Mg 0.59475(8) 0.29737(9) 0.5000
Mg1D_4 Mg 0.59475(8) 1.29737(9) -0.5000
Mg1D_5 Mg 0.59475(8) 1.29737(9) 0.5000
Mg1E_2 Mg -0.29737(9) 0.29738(4) -0.5000
Mg1E_3 Mg 0.70263(9) 1.29738(4) -0.5000
Mg1E_4 Mg 0.70263(9) 1.29738(4) 0.5000
O2D_2 O -0.40996(10) 0.34033(14) 0.4134(2)
O2E_2 O -0.34033(14) 0.24971(10) 0.4134(2)
O2F_2 O -0.40996(10) 0.24971(10) 0.5866(2)
O2G_2 O -0.34033(14) 0.40996(10) 0.5866(2)
O2H_2 O -0.24971(10) 0.34033(14) 0.5866(2)
O2I_2 O 0.40996(10) 0.75029(10) 0.5866(2)
O2J_2 O 0.34033(14) 0.59004(10) 0.5866(2)
O2K_2 O 0.24971(10) 0.65967(14) 0.5866(2)
O2L_2 O -0.24971(10) 0.40996(10) 0.5866(2)
O2M_2 O -0.40996(10) 0.34033(14) 0.5866(2)
O2N_2 O -0.34033(14) 0.24971(10) 0.5866(2)
O2O_2 O 0.24971(10) 0.59004(10) 0.5866(2)
O2P_2 O 0.40996(10) 0.65967(14) 0.5866(2)
O2Q_2 O 0.34033(14) 0.75029(10) 0.5866(2)
O2U_2 O -0.40996(10) 0.24971(10) 0.4134(2)
O2V_2 O -0.34033(14) 0.40996(10) 0.4134(2)
loop_
_geom_bond_atom_site_label_1
_geom_bond_atom_site_label_2
_geom_bond_site_symmetry_1
_geom_bond_site_symmetry_2
Mg1 O1 1_555 1_555
C1 N1 1_555 1_555
N1 H1 1_555 1_555
O2 Mg1 1_555 1_555
C2 C1 1_555 1_555
N2 C4 1_555 1_555
C3 O2 1_555 1_555
C4 C2 1_555 1_555
O3 Mg1 1_555 1_555
C5 C3 1_555 1_555
C6 C2 1_555 1_555
C7 C4 1_555 1_555
H2 C7 1_555 1_555
C8 C5 1_555 1_555
H3 C8 1_555 1_555
C9 C6 1_555 1_555
H4 C9 1_555 1_555
C10 C1 1_555 1_555
H5 C10 1_555 1_555
C1C N1 1_555 1_555
O2C C3C 1_555 1_555
C2C C1C 1_555 1_555
N2C C4C 1_555 1_555
C3C C5C 1_555 1_555
C4C C2C 1_555 1_555
C5C C8C 1_555 1_555
C6C C2C 1_555 1_555
C7C C4C 1_555 1_555
H2C C7C 1_555 1_555
C8C H3C 1_555 1_555
C9C C6C 1_555 1_555
H4C C9C 1_555 1_555
C10C C10 1_555 1_555
H5C C10C 1_555 1_555
C1H N1H 1_555 1_555
N1H H1H 1_555 1_555
O2H C3H 1_555 1_555
C2H C1H 1_555 1_555
C3H C5H 1_555 1_555
C4H N2C 1_555 1_555
C5H C8H 1_555 1_555
C6H C2H 1_555 1_555
C7H C7C 1_555 1_555
H2H C7H 1_555 1_555
C8H H3H 1_555 1_555
C9H C6H 1_555 1_555
H4H C9H 1_555 1_555
C10H C1H 1_555 1_555
H5H C10H 1_555 1_555
C1K N1H 1_555 1_555
O2K C3K 1_555 1_555
C2K C1K 1_555 1_555
C3K C5K 1_555 1_555
C4K N2 1_555 1_555
C5K C8K 1_555 1_555
C6K C2K 1_555 1_555
C7K C7 1_555 1_555
H2K C7K 1_555 1_555
C8K H3K 1_555 1_555
C9K C6K 1_555 1_555
H4K C9K 1_555 1_555
C10K C10H 1_555 1_555
H5K C10K 1_555 1_555
O2L C3H 1_555 1_555
C8L C5H 1_555 1_555
H3L C8L 1_555 1_555
C9L C6H 1_555 1_555
H4L C9L 1_555 1_555
O2O C3K 1_555 1_555
C8O C5K 1_555 1_555
H3O C8O 1_555 1_555
C9O C6K 1_555 1_555
H4O C9O 1_555 1_555
O2T C3 1_555 1_555
C8T C5 1_555 1_555
H3T C8T 1_555 1_555
C9T C6 1_555 1_555
H4T C9T 1_555 1_555
O2W C3C 1_555 1_555
C8W C5C 1_555 1_555
H3W C8W 1_555 1_555
C9W C6C 1_555 1_555
H4W C9W 1_555 1_555
Mg1A O3 1_555 1_555
O1A Mg1A 1_555 1_555
C1A N1A 1_555 1_555
N1A H1A 1_555 1_555
O2A Mg1A 1_555 1_555
C2A C1A 1_555 1_555
N2A C4A 1_555 1_555
C3A O2A 1_555 1_555
C4A C2A 1_555 1_555
C5A C3A 1_555 1_555
C6A C2A 1_555 1_555
C7A C4A 1_555 1_555
H2A C7A 1_555 1_555
C8A C5A 1_555 1_555
H3A C8A 1_555 1_555
C9A C6A 1_555 1_555
H4A C9A 1_555 1_555
C10A C1A 1_555 1_555
H5A C10A 1_555 1_555
C1D N1A 1_555 1_555
O2D C3D 1_555 1_555
C2D C1D 1_555 1_555
N2D C4D 1_555 1_555
C3D C5D 1_555 1_555
C4D C2D 1_555 1_555
C5D C8D 1_555 1_555
C6D C2D 1_555 1_555
C7D C4D 1_555 1_555
H2D C7D 1_555 1_555
C8D H3D 1_555 1_555
C9D C6D 1_555 1_555
H4D C9D 1_555 1_555
C10D C10A 1_555 1_555
H5D C10D 1_555 1_555
C1G N1G 1_555 1_555
N1G H1G 1_555 1_555
O2G C3G 1_555 1_555
C2G C1G 1_555 1_555
C3G C5G 1_555 1_555
C4G N2D 1_555 1_555
C5G C8G 1_555 1_555
C6G C2G 1_555 1_555
C7G C7D 1_555 1_555
H2G C7G 1_555 1_555
C8G H3G 1_555 1_555
C9G C6G 1_555 1_555
H4G C9G 1_555 1_555
C10G C1G 1_555 1_555
H5G C10G 1_555 1_555
C1J N1G 1_555 1_555
O2J C3J 1_555 1_555
C2J C1J 1_555 1_555
C3J C5J 1_555 1_555
C4J N2A 1_555 1_555
C5J C8J 1_555 1_555
C6J C2J 1_555 1_555
C7J C7A 1_555 1_555
H2J C7J 1_555 1_555
C8J H3J 1_555 1_555
C9J C6J 1_555 1_555
H4J C9J 1_555 1_555
C10J C10G 1_555 1_555
H5J C10J 1_555 1_555
O2M C3G 1_555 1_555
C8M C5G 1_555 1_555
H3M C8M 1_555 1_555
C9M C6G 1_555 1_555
H4M C9M 1_555 1_555
O2P C3J 1_555 1_555
C8P C5J 1_555 1_555
H3P C8P 1_555 1_555
C9P C6J 1_555 1_555
H4P C9P 1_555 1_555
O2S Mg1 1_555 1_555
C8S C5A 1_555 1_555
H3S C8S 1_555 1_555
C9S C6A 1_555 1_555
H4S C9S 1_555 1_555
O2V C3D 1_555 1_555
C8V C5D 1_555 1_555
H3V C8V 1_555 1_555
C9V C6D 1_555 1_555
H4V C9V 1_555 1_555
Mg1B O3 1_555 1_555
O1B Mg1B 1_555 1_555
C1B N1B 1_555 1_555
N1B H1B 1_555 1_555
O2B Mg1B 1_555 1_555
C2B C1B 1_555 1_555
N2B C4B 1_555 1_555
C3B O2B 1_555 1_555
C4B C2B 1_555 1_555
C5B C3B 1_555 1_555
C6B C2B 1_555 1_555
C7B C4B 1_555 1_555
H2B C7B 1_555 1_555
C8B C5B 1_555 1_555
H3B C8B 1_555 1_555
C9B C6B 1_555 1_555
H4B C9B 1_555 1_555
C10B C1B 1_555 1_555
H5B C10B 1_555 1_555
C1E N1B 1_555 1_555
O2E C3E 1_555 1_555
C2E C1E 1_555 1_555
N2E C4E 1_555 1_555
C3E C5E 1_555 1_555
C4E C2E 1_555 1_555
C5E C8E 1_555 1_555
C6E C2E 1_555 1_555
C7E C4E 1_555 1_555
H2E C7E 1_555 1_555
C8E H3E 1_555 1_555
C9E C6E 1_555 1_555
H4E C9E 1_555 1_555
C10E C10B 1_555 1_555
H5E C10E 1_555 1_555
C1F N1F 1_555 1_555
N1F H1F 1_555 1_555
O2F C3F 1_555 1_555
C2F C1F 1_555 1_555
C3F C5F 1_555 1_555
C4F N2E 1_555 1_555
C5F C8F 1_555 1_555
C6F C2F 1_555 1_555
C7F C7E 1_555 1_555
H2F C7F 1_555 1_555
C8F H3F 1_555 1_555
C9F C6F 1_555 1_555
H4F C9F 1_555 1_555
C10F C1F 1_555 1_555
H5F C10F 1_555 1_555
C1I N1F 1_555 1_555
O2I C3I 1_555 1_555
C2I C1I 1_555 1_555
C3I C5I 1_555 1_555
C4I N2B 1_555 1_555
C5I C8I 1_555 1_555
C6I C2I 1_555 1_555
C7I C7B 1_555 1_555
H2I C7I 1_555 1_555
C8I H3I 1_555 1_555
C9I C6I 1_555 1_555
H4I C9I 1_555 1_555
C10I C10F 1_555 1_555
H5I C10I 1_555 1_555
O2N C3F 1_555 1_555
C8N C5F 1_555 1_555
H3N C8N 1_555 1_555
C9N C6F 1_555 1_555
H4N C9N 1_555 1_555
O2Q C3I 1_555 1_555
C8Q C5I 1_555 1_555
H3Q C8Q 1_555 1_555
C9Q C6I 1_555 1_555
H4Q C9Q 1_555 1_555
O2R Mg1A 1_555 1_555
C8R C5B 1_555 1_555
H3R C8R 1_555 1_555
C9R C6B 1_555 1_555
H4R C9R 1_555 1_555
O2U C3E 1_555 1_555
C8U C5E 1_555 1_555
H3U C8U 1_555 1_555
C9U C6E 1_555 1_555
H4U C9U 1_555 1_555
Mg1C O2C 1_555 1_555
O1C Mg1C 1_555 1_555
O3C Mg1C 1_555 1_555
Mg1D O3C 1_555 1_555
O1D Mg1D 1_555 1_555
Mg1E O2W 1_555 1_555
O1E Mg1E 1_555 1_555
Mg1_2 O2O 1_555 1_555
Mg1A_2 O2P 1_555 1_555
Mg1B_2 O2K 1_555 1_555
Mg1C_2 O2L 1_555 1_555
Mg1C_3 O2G 1_555 1_555
Mg1C_4 O2V 1_555 1_555
Mg1D_2 O2M 1_555 1_555
Mg1D_3 O2D 1_555 1_555
Mg1D_4 O2F 1_555 1_555
Mg1D_5 O2U 1_555 1_555
Mg1E_2 O2H 1_555 1_555
Mg1E_3 O2N 1_555 1_555
Mg1E_4 O2E 1_555 1_555
O2D_2 Mg1D 1_555 1_555
O2E_2 Mg1E 1_555 1_555
O2F_2 Mg1D 1_555 1_555
O2G_2 Mg1C 1_555 1_555
O2H_2 Mg1E 1_555 1_555
O2I_2 Mg1A 1_555 1_555
O2J_2 Mg1 1_555 1_555
O2K_2 Mg1B 1_555 1_555
O2L_2 Mg1C 1_555 1_555
O2M_2 Mg1D 1_555 1_555
O2N_2 Mg1E 1_555 1_555
O2O_2 Mg1 1_555 1_555
O2P_2 Mg1A 1_555 1_555
O2Q_2 Mg1B 1_555 1_555
O2U_2 Mg1D 1_555 1_555
O2V_2 Mg1C 1_555 1_555
C8 C9 1_555 1_555
C1C C10C 1_555 1_555
C8C C9C 1_555 1_555
C2H C4H 1_555 1_555
C4H C7H 1_555 1_555
C8H C9H 1_555 1_555
C1K C10K 1_555 1_555
C2K C4K 1_555 1_555
C4K C7K 1_555 1_555
C8K C9K 1_555 1_555
C8L C9L 1_555 1_555
C8O C9O 1_555 1_555
O2T Mg1B 1_555 1_555
C8T C9T 1_555 1_555
C8W C9W 1_555 1_555
C3A O2S 1_555 1_555
C8A C9A 1_555 1_555
C1D C10D 1_555 1_555
C8D C9D 1_555 1_555
C2G C4G 1_555 1_555
C4G C7G 1_555 1_555
C8G C9G 1_555 1_555
C1J C10J 1_555 1_555
O2J Mg1_2 1_555 1_555
C2J C4J 1_555 1_555
C4J C7J 1_555 1_555
C8J C9J 1_555 1_555
C8M C9M 1_555 1_555
C8P C9P 1_555 1_555
C8S C9S 1_555 1_555
C8V C9V 1_555 1_555
C3B O2R 1_555 1_555
C8B C9B 1_555 1_555
C1E C10E 1_555 1_555
C8E C9E 1_555 1_555
C2F C4F 1_555 1_555
C4F C7F 1_555 1_555
C8F C9F 1_555 1_555
C1I C10I 1_555 1_555
O2I Mg1A_2 1_555 1_555
C2I C4I 1_555 1_555
C4I C7I 1_555 1_555
C8I C9I 1_555 1_555
C8N C9N 1_555 1_555
O2Q Mg1B_2 1_555 1_555
C8Q C9Q 1_555 1_555
C8R C9R 1_555 1_555
C8U C9U 1_555 1_555
O3C Mg1E 1_555 1_555

#END
