
#######################################################################
#
#                 Cambridge Crystallographic Data Centre
#                                CCDC 
#
#######################################################################
#
# If this CIF has been generated from an entry in the Cambridge 
# Structural Database, then it will include bibliographic, chemical, 
# crystal, experimental, refinement or atomic coordinate data resulting 
# from the CCDC's data processing and validation procedures.
#
#######################################################################

data_DAJWAP
_chemical_formula_moiety         'C144 H72 Co6 N12 Ni19 O54'
_symmetry_cell_setting           hexagonal
_symmetry_space_group_name_H-M   'P 6/m m m'
_symmetry_Int_Tables_number      191
_space_group_name_Hall           '-P 6 2'
loop_
_symmetry_equiv_pos_site_id
_symmetry_equiv_pos_as_xyz
1 x,y,z
2 -y,x-y,z
3 -x+y,-x,z
4 -x,-y,z
5 y,-x+y,z
6 x-y,x,z
7 y,x,-z
8 x-y,-y,-z
9 -x,-x+y,-z
10 -y,-x,-z
11 -x+y,y,-z
12 x,x-y,-z
13 -x,-y,-z
14 y,-x+y,-z
15 x-y,x,-z
16 x,y,-z
17 -y,x-y,-z
18 -x+y,-x,-z
19 -y,-x,z
20 -x+y,y,z
21 x,x-y,z
22 y,x,z
23 x-y,-y,z
24 -x,-x+y,z
_cell_length_a                   31.7402(14)
_cell_length_b                   31.7402(14)
_cell_length_c                   16.7689(9)
_cell_angle_alpha                90
_cell_angle_beta                 90
_cell_angle_gamma                120
_cell_volume                     14630.3
loop_
_atom_site_label
_atom_site_type_symbol
_atom_site_fract_x
_atom_site_fract_y
_atom_site_fract_z
Ni1 Ni 0.29684(3) 0.70316(3) 1.0000
Co1 Co 0.0000 0.5078(7) 0.5000
O1 O 0.25881(13) 0.74119(13) 1.0000
C1 C 0.1018(3) 0.55091(14) 0.5660(4)
N1 N 0.0717(3) 0.53584(14) 0.5000
O2 O 0.3333 0.6667 1.0000
C2 C 0.0393(3) 0.51965(15) 0.6662(4)
N2 N 0.0000 0.5000 0.6155(5)
O3 O 0.25032(11) 0.66073(12) 0.91293(17)
C3 C 0.0879(3) 0.54394(14) 0.6447(4)
C4 C 0.1517(3) 0.57583(16) 0.5403(5)
H1 H 0.1789 0.5895 0.5731
O4 O -0.0000 0.5680(5) 0.5000
C5 C 0.0242(3) 0.51209(14) 0.7494(5)
H2 H 0.0444 0.5222 0.7938
C6 C 0.1795(2) 0.5539(2) 0.7961(4)
H3 H 0.1907 0.5339 0.8158
C7 C 0.1443(2) 0.5358(3) 0.7379(4)
H4 H 0.1326 0.5043 0.7192
C8 C 0.1264(3) 0.56321(13) 0.7071(4)
C9 C 0.1985(2) 0.59927(12) 0.8260(4)
C10 C 0.2369(3) 0.61843(13) 0.8902(4)
C1C C -0.1018(3) 0.44909(14) 0.5660(4)
N1C N -0.0717(3) 0.46416(14) 0.5000
C2C C -0.0393(3) 0.48035(15) 0.6662(4)
O3C O -0.25032(11) 0.33927(12) 0.91293(17)
C3C C -0.0879(3) 0.45606(14) 0.6447(4)
C4C C -0.1517(3) 0.42417(16) 0.5403(5)
H1C H -0.1789 0.4105 0.5731
C5C C -0.0242(3) 0.48791(14) 0.7494(5)
H2C H -0.0444 0.4778 0.7938
C6C C -0.1795(2) 0.4461(2) 0.7961(4)
H3C H -0.1907 0.4661 0.8158
C7C C -0.1443(2) 0.4642(3) 0.7379(4)
H4C H -0.1326 0.4957 0.7192
C8C C -0.1264(3) 0.43679(13) 0.7071(4)
C9C C -0.1985(2) 0.40073(12) 0.8260(4)
C10C C -0.2369(3) 0.38157(13) 0.8902(4)
C1K C 0.1018(3) 0.55089(33) 0.4340(4)
C2K C 0.0393(3) 0.51965(34) 0.3338(4)
N2H N -0.0000 0.5000 0.3845(5)
O3K O 0.25032(11) 0.58959(16) 0.08707(17)
C3K C 0.0879(3) 0.54396(33) 0.3553(4)
C4K C 0.1517(3) 0.57587(34) 0.4597(5)
H1K H 0.1789 0.5894 0.4269
C5K C 0.0242(3) 0.51211(33) 0.2506(5)
H2K H 0.0444 0.5222 0.2062
C6K C 0.1795(2) 0.6256(3) 0.2039(4)
H3K H 0.1907 0.6568 0.1842
C7K C 0.1443(2) 0.6085(4) 0.2621(4)
H4K H 0.1326 0.6283 0.2808
C8K C 0.1264(3) 0.56319(33) 0.2929(4)
C9K C 0.1985(2) 0.59923(23) 0.1740(4)
C10K C 0.2369(3) 0.61847(33) 0.1098(4)
O3O O 0.25032(11) 0.66073(12) 0.08707(17)
C6O C 0.1795(2) 0.5539(2) 0.2039(4)
H3O H 0.1907 0.5339 0.1842
C7O C 0.1443(2) 0.5358(3) 0.2621(4)
H4O H 0.1326 0.5043 0.2808
O3T O 0.25032(11) 0.58959(16) 0.91293(17)
C6T C 0.1795(2) 0.6256(3) 0.7961(4)
H3T H 0.1907 0.6568 0.8158
C7T C 0.1443(2) 0.6085(4) 0.7379(4)
H4T H 0.1326 0.6283 0.7192
O3W O -0.25032(11) 0.41041(16) 0.91293(17)
C6W C -0.1795(2) 0.3744(3) 0.7961(4)
H3W H -0.1907 0.3432 0.8158
C7W C -0.1443(2) 0.3915(4) 0.7379(4)
H4W H -0.1326 0.3717 0.7192
C1H C -0.1018(3) 0.44911(33) 0.4340(4)
C2H C -0.0393(3) 0.48035(34) 0.3338(4)
O3H O -0.25032(11) 0.41041(16) 0.08707(17)
C3H C -0.0879(3) 0.45604(33) 0.3553(4)
C4H C -0.1517(3) 0.42413(34) 0.4597(5)
H1H H -0.1789 0.4106 0.4269
C5H C -0.0242(3) 0.48789(33) 0.2506(5)
H2H H -0.0444 0.4778 0.2062
C6H C -0.1795(2) 0.3744(3) 0.2039(4)
H3H H -0.1907 0.3432 0.1842
C7H C -0.1443(2) 0.3915(4) 0.2621(4)
H4H H -0.1326 0.3717 0.2808
C8H C -0.1264(3) 0.43681(33) 0.2929(4)
C9H C -0.1985(2) 0.40077(23) 0.1740(4)
C10H C -0.2369(3) 0.38153(33) 0.1098(4)
O3L O -0.25032(11) 0.33927(12) 0.08707(17)
C6L C -0.1795(2) 0.4461(2) 0.2039(4)
H3L H -0.1907 0.4661 0.1842
C7L C -0.1443(2) 0.4642(3) 0.2621(4)
H4L H -0.1326 0.4957 0.2808
Ni1A Ni 0.29684(3) 0.59368(4) 1.0000
Co1A Co 0.4922(7) 0.4922(7) 0.5000
O1A O 0.25881(13) 0.51762(18) 1.0000
C1A C 0.44909(14) 0.55089(33) 0.5660(4)
N1A N 0.46416(14) 0.53586(33) 0.5000
C2A C 0.48035(15) 0.51965(34) 0.6662(4)
N2A N 0.5000 0.5000 0.6155(5)
O3A O 0.33927(12) 0.58959(16) 0.91293(17)
C3A C 0.45606(14) 0.54396(33) 0.6447(4)
C4A C 0.42417(16) 0.57587(34) 0.5403(5)
H1A H 0.4105 0.5894 0.5731
O4A O 0.4320(5) 0.4320(5) 0.5000
C5A C 0.48791(14) 0.51211(33) 0.7494(5)
H2A H 0.4778 0.5222 0.7938
C6A C 0.4461(2) 0.6256(3) 0.7961(4)
H3A H 0.4661 0.6568 0.8158
C7A C 0.4642(3) 0.6085(4) 0.7379(4)
H4A H 0.4957 0.6283 0.7192
C8A C 0.43679(13) 0.56319(33) 0.7071(4)
C9A C 0.40073(12) 0.59923(23) 0.8260(4)
C10A C 0.38157(13) 0.61847(33) 0.8902(4)
C1D C 0.55091(14) 0.44911(33) 0.5660(4)
N1D N 0.53584(14) 0.46414(33) 0.5000
C2D C 0.51965(15) 0.48035(34) 0.6662(4)
O3D O 0.66073(12) 0.41041(16) 0.91293(17)
C3D C 0.54394(14) 0.45604(33) 0.6447(4)
C4D C 0.57583(16) 0.42413(34) 0.5403(5)
H1D H 0.5895 0.4106 0.5731
C5D C 0.51209(14) 0.48789(33) 0.7494(5)
H2D H 0.5222 0.4778 0.7938
C6D C 0.5539(2) 0.3744(3) 0.7961(4)
H3D H 0.5339 0.3432 0.8158
C7D C 0.5358(3) 0.3915(4) 0.7379(4)
H4D H 0.5043 0.3717 0.7192
C8D C 0.56321(13) 0.43681(33) 0.7071(4)
C9D C 0.59927(12) 0.40077(23) 0.8260(4)
C10D C 0.61843(13) 0.38153(33) 0.8902(4)
C1J C 0.44911(33) 0.55091(14) 0.4340(4)
C2J C 0.48035(34) 0.51965(15) 0.3338(4)
N2G N 0.5000 0.5000 0.3845(5)
O3J O 0.41041(16) 0.66073(12) 0.08707(17)
C3J C 0.45604(33) 0.54394(14) 0.3553(4)
C4J C 0.42413(34) 0.57583(16) 0.4597(5)
H1J H 0.4106 0.5895 0.4269
C5J C 0.48789(33) 0.51209(14) 0.2506(5)
H2J H 0.4778 0.5222 0.2062
C6J C 0.3744(3) 0.5539(2) 0.2039(4)
H3J H 0.3432 0.5339 0.1842
C7J C 0.3915(4) 0.5358(3) 0.2621(4)
H4J H 0.3717 0.5043 0.2808
C8J C 0.43681(33) 0.56321(13) 0.2929(4)
C9J C 0.40077(23) 0.59927(12) 0.1740(4)
C10J C 0.38153(33) 0.61843(13) 0.1098(4)
O3P O 0.33927(12) 0.58959(16) 0.08707(17)
C6P C 0.4461(2) 0.6256(3) 0.2039(4)
H3P H 0.4661 0.6568 0.1842
C7P C 0.4642(3) 0.6085(4) 0.2621(4)
H4P H 0.4957 0.6283 0.2808
O3S O 0.41041(16) 0.66073(12) 0.91293(17)
C6S C 0.3744(3) 0.5539(2) 0.7961(4)
H3S H 0.3432 0.5339 0.8158
C7S C 0.3915(4) 0.5358(3) 0.7379(4)
H4S H 0.3717 0.5043 0.7192
O3V O 0.58959(16) 0.33927(12) 0.91293(17)
C6V C 0.6256(3) 0.4461(2) 0.7961(4)
H3V H 0.6568 0.4661 0.8158
C7V C 0.6085(4) 0.4642(3) 0.7379(4)
H4V H 0.6283 0.4957 0.7192
C1G C 0.55089(33) 0.44909(14) 0.4340(4)
C2G C 0.51965(34) 0.48035(15) 0.3338(4)
O3G O 0.58959(16) 0.33927(12) 0.08707(17)
C3G C 0.54396(33) 0.45606(14) 0.3553(4)
C4G C 0.57587(34) 0.42417(16) 0.4597(5)
H1G H 0.5894 0.4105 0.4269
C5G C 0.51211(33) 0.48791(14) 0.2506(5)
H2G H 0.5222 0.4778 0.2062
C6G C 0.6256(3) 0.4461(2) 0.2039(4)
H3G H 0.6568 0.4661 0.1842
C7G C 0.6085(4) 0.4642(3) 0.2621(4)
H4G H 0.6283 0.4957 0.2808
C8G C 0.56319(33) 0.43679(13) 0.2929(4)
C9G C 0.59923(23) 0.40073(12) 0.1740(4)
C10G C 0.61847(33) 0.38157(13) 0.1098(4)
O3M O 0.66073(12) 0.41041(16) 0.08707(17)
C6M C 0.5539(2) 0.3744(3) 0.2039(4)
H3M H 0.5339 0.3432 0.1842
C7M C 0.5358(3) 0.3915(4) 0.2621(4)
H4M H 0.5043 0.3717 0.2808
Ni1B Ni 0.40632(4) 0.70316(3) 1.0000
Co1B Co 0.5078(7) 1.0000 0.5000
O1B O 0.48238(18) 0.74119(13) 1.0000
C1B C 0.44911(33) 0.8982(3) 0.5660(4)
N1B N 0.46414(33) 0.9283(3) 0.5000
C2B C 0.48035(34) 0.9607(3) 0.6662(4)
N2B N 0.5000 1.0000 0.6155(5)
O3B O 0.41041(16) 0.74968(11) 0.91293(17)
C3B C 0.45604(33) 0.9121(3) 0.6447(4)
C4B C 0.42413(34) 0.8483(3) 0.5403(5)
H1B H 0.4106 0.8211 0.5731
O4B O 0.5680(5) 1.0000 0.5000
C5B C 0.48789(33) 0.9758(3) 0.7494(5)
H2B H 0.4778 0.9556 0.7938
C6B C 0.3744(3) 0.8205(2) 0.7961(4)
H3B H 0.3432 0.8093 0.8158
C7B C 0.3915(4) 0.8557(2) 0.7379(4)
H4B H 0.3717 0.8674 0.7192
C8B C 0.43681(33) 0.8736(3) 0.7071(4)
C9B C 0.40077(23) 0.8015(2) 0.8260(4)
C10B C 0.38153(33) 0.7631(3) 0.8902(4)
C1E C 0.55089(33) 1.1018(3) 0.5660(4)
N1E N 0.53586(33) 1.0717(3) 0.5000
C2E C 0.51965(34) 1.0393(3) 0.6662(4)
O3E O 0.58959(16) 1.25032(11) 0.91293(17)
C3E C 0.54396(33) 1.0879(3) 0.6447(4)
C4E C 0.57587(34) 1.1517(3) 0.5403(5)
H1E H 0.5894 1.1789 0.5731
C5E C 0.51211(33) 1.0242(3) 0.7494(5)
H2E H 0.5222 1.0444 0.7938
C6E C 0.6256(3) 1.1795(2) 0.7961(4)
H3E H 0.6568 1.1907 0.8158
C7E C 0.6085(4) 1.1443(2) 0.7379(4)
H4E H 0.6283 1.1326 0.7192
C8E C 0.56319(33) 1.1264(3) 0.7071(4)
C9E C 0.59923(23) 1.1985(2) 0.8260(4)
C10E C 0.61847(33) 1.2369(3) 0.8902(4)
C1I C 0.44909(14) 0.8982(3) 0.4340(4)
C2I C 0.48035(15) 0.9607(3) 0.3338(4)
N2F N 0.5000 1.0000 0.3845(5)
O3I O 0.33927(12) 0.74968(11) 0.08707(17)
C3I C 0.45606(14) 0.9121(3) 0.3553(4)
C4I C 0.42417(16) 0.8483(3) 0.4597(5)
H1I H 0.4105 0.8211 0.4269
C5I C 0.48791(14) 0.9758(3) 0.2506(5)
H2I H 0.4778 0.9556 0.2062
C6I C 0.4461(2) 0.8205(2) 0.2039(4)
H3I H 0.4661 0.8093 0.1842
C7I C 0.4642(3) 0.8557(2) 0.2621(4)
H4I H 0.4957 0.8674 0.2808
C8I C 0.43679(13) 0.8736(3) 0.2929(4)
C9I C 0.40073(12) 0.8015(2) 0.1740(4)
C10I C 0.38157(13) 0.7631(3) 0.1098(4)
O3Q O 0.41041(16) 0.74968(11) 0.08707(17)
C6Q C 0.3744(3) 0.8205(2) 0.2039(4)
H3Q H 0.3432 0.8093 0.1842
C7Q C 0.3915(4) 0.8557(2) 0.2621(4)
H4Q H 0.3717 0.8674 0.2808
O3R O 0.33927(12) 0.74968(11) 0.91293(17)
C6R C 0.4461(2) 0.8205(2) 0.7961(4)
H3R H 0.4661 0.8093 0.8158
C7R C 0.4642(3) 0.8557(2) 0.7379(4)
H4R H 0.4957 0.8674 0.7192
O3U O 0.66073(12) 1.25032(11) 0.91293(17)
C6U C 0.5539(2) 1.1795(2) 0.7961(4)
H3U H 0.5339 1.1907 0.8158
C7U C 0.5358(3) 1.1443(2) 0.7379(4)
H4U H 0.5043 1.1326 0.7192
C1F C 0.55091(14) 1.1018(3) 0.4340(4)
C2F C 0.51965(15) 1.0393(3) 0.3338(4)
O3F O 0.66073(12) 1.25032(11) 0.08707(17)
C3F C 0.54394(14) 1.0879(3) 0.3553(4)
C4F C 0.57583(16) 1.1517(3) 0.4597(5)
H1F H 0.5895 1.1789 0.4269
C5F C 0.51209(14) 1.0242(3) 0.2506(5)
H2F H 0.5222 1.0444 0.2062
C6F C 0.5539(2) 1.1795(2) 0.2039(4)
H3F H 0.5339 1.1907 0.1842
C7F C 0.5358(3) 1.1443(2) 0.2621(4)
H4F H 0.5043 1.1326 0.2808
C8F C 0.56321(13) 1.1264(3) 0.2929(4)
C9F C 0.59927(12) 1.1985(2) 0.1740(4)
C10F C 0.61843(13) 1.2369(3) 0.1098(4)
O3N O 0.58959(16) 1.25032(11) 0.08707(17)
C6N C 0.6256(3) 1.1795(2) 0.2039(4)
H3N H 0.6568 1.1907 0.1842
C7N C 0.6085(4) 1.1443(2) 0.2621(4)
H4N H 0.6283 1.1326 0.2808
Ni1C Ni -0.29684(3) 0.29684(3) 1.0000
Co1C Co 0.0000 0.4922(7) 0.5000
O1C O -0.25881(13) 0.25881(13) 1.0000
O2C O -0.3333 0.3333 1.0000
O4C O 0.0000 0.4320(5) 0.5000
Ni1D Ni -0.29684(3) 0.40632(4) 1.0000
O1D O -0.25881(13) 0.48238(18) 1.0000
Ni1E Ni -0.40632(4) 0.29684(3) 1.0000
O1E O -0.48238(18) 0.25881(13) 1.0000
Co1D Co 0.5078(7) 0.5078(7) 0.5000
O4D O 0.5680(5) 0.5680(5) 0.5000
Co1E Co 0.4922(7) 1.0000 0.5000
O4E O 0.4320(5) 1.0000 0.5000
Ni1_2 Ni 0.29684(3) 0.70316(3) 0.0000
Ni1A_2 Ni 0.29684(3) 0.59368(4) 0.0000
Ni1B_2 Ni 0.40632(4) 0.70316(3) 0.0000
Ni1C_2 Ni -0.29684(3) 0.29684(3) 0.0000
Ni1C_3 Ni 0.70316(3) 1.29684(3) 0.0000
Ni1C_4 Ni 0.70316(3) 1.29684(3) 1.0000
Ni1D_2 Ni -0.29684(3) 0.40632(4) 0.0000
Ni1D_3 Ni 0.70316(3) 0.40632(4) 0.0000
Ni1D_4 Ni 0.70316(3) 0.40632(4) 1.0000
Ni1E_2 Ni 0.59368(4) 0.29684(3) 0.0000
Ni1E_3 Ni 0.59368(4) 0.29684(3) 1.0000
Ni1E_4 Ni 0.59368(4) 1.29684(3) 0.0000
Ni1E_5 Ni 0.59368(4) 1.29684(3) 1.0000
O3D_2 O -0.33927(12) 0.41041(16) 0.91293(17)
O3E_2 O -0.41041(16) 0.25032(11) 0.91293(17)
O3F_2 O -0.33927(12) 0.25032(11) 1.08707(17)
O3G_2 O -0.41041(16) 0.33927(12) 1.08707(17)
O3H_2 O -0.25032(11) 0.41041(16) 1.08707(17)
O3I_2 O 0.33927(12) 0.74968(11) 1.08707(17)
O3J_2 O 0.41041(16) 0.66073(12) 1.08707(17)
O3K_2 O 0.25032(11) 0.58959(16) 1.08707(17)
O3L_2 O -0.25032(11) 0.33927(12) 1.08707(17)
O3M_2 O -0.33927(12) 0.41041(16) 1.08707(17)
O3N_2 O -0.41041(16) 0.25032(11) 1.08707(17)
O3O_2 O 0.25032(11) 0.66073(12) 1.08707(17)
O3P_2 O 0.33927(12) 0.58959(16) 1.08707(17)
O3Q_2 O 0.41041(16) 0.74968(11) 1.08707(17)
O3U_2 O -0.33927(12) 0.25032(11) 0.91293(17)
O3V_2 O -0.41041(16) 0.33927(12) 0.91293(17)
loop_
_geom_bond_atom_site_label_1
_geom_bond_atom_site_label_2
_geom_bond_site_symmetry_1
_geom_bond_site_symmetry_2
Ni1 O1 1_555 1_555
Co1 N1 1_555 1_555
C1 N1 1_555 1_555
N1 C1K 1_555 1_555
O2 Ni1 1_555 1_555
C2 N2 1_555 1_555
N2 Co1 1_555 1_555
O3 Ni1 1_555 1_555
C3 C1 1_555 1_555
C4 C1 1_555 1_555
H1 C4 1_555 1_555
O4 Co1 1_555 1_555
C5 C2 1_555 1_555
H2 C5 1_555 1_555
C6 H3 1_555 1_555
C7 C6 1_555 1_555
H4 C7 1_555 1_555
C8 C3 1_555 1_555
C9 C6 1_555 1_555
C10 O3 1_555 1_555
C1C N1C 1_555 1_555
N1C Co1 1_555 1_555
C2C N2 1_555 1_555
O3C C10C 1_555 1_555
C3C C1C 1_555 1_555
C4C C1C 1_555 1_555
H1C C4C 1_555 1_555
C5C C5 1_555 1_555
H2C C5C 1_555 1_555
C6C H3C 1_555 1_555
C7C C6C 1_555 1_555
H4C C7C 1_555 1_555
C8C C3C 1_555 1_555
C9C C6C 1_555 1_555
C10C C9C 1_555 1_555
C1K C3K 1_555 1_555
C2K N2H 1_555 1_555
N2H Co1 1_555 1_555
O3K C10K 1_555 1_555
C3K C2K 1_555 1_555
C4K C4 1_555 1_555
H1K C4K 1_555 1_555
C5K C2K 1_555 1_555
H2K C5K 1_555 1_555
C6K H3K 1_555 1_555
C7K C6K 1_555 1_555
H4K C7K 1_555 1_555
C8K C3K 1_555 1_555
C9K C6K 1_555 1_555
C10K C9K 1_555 1_555
O3O C10K 1_555 1_555
C6O C9K 1_555 1_555
H3O C6O 1_555 1_555
C7O C8K 1_555 1_555
H4O C7O 1_555 1_555
O3T C10 1_555 1_555
C6T C9 1_555 1_555
H3T C6T 1_555 1_555
C7T C8 1_555 1_555
H4T C7T 1_555 1_555
O3W C10C 1_555 1_555
C6W C9C 1_555 1_555
H3W C6W 1_555 1_555
C7W C8C 1_555 1_555
H4W C7W 1_555 1_555
C1H N1C 1_555 1_555
C2H N2H 1_555 1_555
O3H C10H 1_555 1_555
C3H C1H 1_555 1_555
C4H C4C 1_555 1_555
H1H C4H 1_555 1_555
C5H C5K 1_555 1_555
H2H C5H 1_555 1_555
C6H H3H 1_555 1_555
C7H C6H 1_555 1_555
H4H C7H 1_555 1_555
C8H C3H 1_555 1_555
C9H C6H 1_555 1_555
C10H C9H 1_555 1_555
O3L C10H 1_555 1_555
C6L C9H 1_555 1_555
H3L C6L 1_555 1_555
C7L C8H 1_555 1_555
H4L C7L 1_555 1_555
Ni1A O2 1_555 1_555
Co1A N1A 1_555 1_555
O1A Ni1A 1_555 1_555
C1A N1A 1_555 1_555
N1A C1J 1_555 1_555
C2A N2A 1_555 1_555
N2A Co1A 1_555 1_555
O3A Ni1A 1_555 1_555
C3A C1A 1_555 1_555
C4A C1A 1_555 1_555
H1A C4A 1_555 1_555
O4A Co1A 1_555 1_555
C5A C2A 1_555 1_555
H2A C5A 1_555 1_555
C6A H3A 1_555 1_555
C7A C6A 1_555 1_555
H4A C7A 1_555 1_555
C8A C3A 1_555 1_555
C9A C6A 1_555 1_555
C10A O3A 1_555 1_555
C1D N1D 1_555 1_555
N1D Co1A 1_555 1_555
C2D N2A 1_555 1_555
O3D C10D 1_555 1_555
C3D C1D 1_555 1_555
C4D C1D 1_555 1_555
H1D C4D 1_555 1_555
C5D C5A 1_555 1_555
H2D C5D 1_555 1_555
C6D H3D 1_555 1_555
C7D C6D 1_555 1_555
H4D C7D 1_555 1_555
C8D C3D 1_555 1_555
C9D C6D 1_555 1_555
C10D C9D 1_555 1_555
C1J C3J 1_555 1_555
C2J N2G 1_555 1_555
N2G Co1A 1_555 1_555
O3J C10J 1_555 1_555
C3J C2J 1_555 1_555
C4J C4A 1_555 1_555
H1J C4J 1_555 1_555
C5J C2J 1_555 1_555
H2J C5J 1_555 1_555
C6J H3J 1_555 1_555
C7J C6J 1_555 1_555
H4J C7J 1_555 1_555
C8J C3J 1_555 1_555
C9J C6J 1_555 1_555
C10J C9J 1_555 1_555
O3P C10J 1_555 1_555
C6P C9J 1_555 1_555
H3P C6P 1_555 1_555
C7P C8J 1_555 1_555
H4P C7P 1_555 1_555
O3S C10A 1_555 1_555
C6S C9A 1_555 1_555
H3S C6S 1_555 1_555
C7S C8A 1_555 1_555
H4S C7S 1_555 1_555
O3V C10D 1_555 1_555
C6V C9D 1_555 1_555
H3V C6V 1_555 1_555
C7V C8D 1_555 1_555
H4V C7V 1_555 1_555
C1G N1D 1_555 1_555
C2G N2G 1_555 1_555
O3G C10G 1_555 1_555
C3G C1G 1_555 1_555
C4G C4D 1_555 1_555
H1G C4G 1_555 1_555
C5G C5J 1_555 1_555
H2G C5G 1_555 1_555
C6G H3G 1_555 1_555
C7G C6G 1_555 1_555
H4G C7G 1_555 1_555
C8G C3G 1_555 1_555
C9G C6G 1_555 1_555
C10G C9G 1_555 1_555
O3M C10G 1_555 1_555
C6M C9G 1_555 1_555
H3M C6M 1_555 1_555
C7M C8G 1_555 1_555
H4M C7M 1_555 1_555
Ni1B O2 1_555 1_555
Co1B N1B 1_555 1_555
O1B Ni1B 1_555 1_555
C1B N1B 1_555 1_555
N1B C1I 1_555 1_555
C2B N2B 1_555 1_555
N2B Co1B 1_555 1_555
O3B Ni1B 1_555 1_555
C3B C1B 1_555 1_555
C4B C1B 1_555 1_555
H1B C4B 1_555 1_555
O4B Co1B 1_555 1_555
C5B C2B 1_555 1_555
H2B C5B 1_555 1_555
C6B H3B 1_555 1_555
C7B C6B 1_555 1_555
H4B C7B 1_555 1_555
C8B C3B 1_555 1_555
C9B C6B 1_555 1_555
C10B O3B 1_555 1_555
C1E N1E 1_555 1_555
N1E Co1B 1_555 1_555
C2E N2B 1_555 1_555
O3E C10E 1_555 1_555
C3E C1E 1_555 1_555
C4E C1E 1_555 1_555
H1E C4E 1_555 1_555
C5E C5B 1_555 1_555
H2E C5E 1_555 1_555
C6E H3E 1_555 1_555
C7E C6E 1_555 1_555
H4E C7E 1_555 1_555
C8E C3E 1_555 1_555
C9E C6E 1_555 1_555
C10E C9E 1_555 1_555
C1I C3I 1_555 1_555
C2I N2F 1_555 1_555
N2F Co1B 1_555 1_555
O3I C10I 1_555 1_555
C3I C2I 1_555 1_555
C4I C4B 1_555 1_555
H1I C4I 1_555 1_555
C5I C2I 1_555 1_555
H2I C5I 1_555 1_555
C6I H3I 1_555 1_555
C7I C6I 1_555 1_555
H4I C7I 1_555 1_555
C8I C3I 1_555 1_555
C9I C6I 1_555 1_555
C10I C9I 1_555 1_555
O3Q C10I 1_555 1_555
C6Q C9I 1_555 1_555
H3Q C6Q 1_555 1_555
C7Q C8I 1_555 1_555
H4Q C7Q 1_555 1_555
O3R Ni1 1_555 1_555
C6R C9B 1_555 1_555
H3R C6R 1_555 1_555
C7R C8B 1_555 1_555
H4R C7R 1_555 1_555
O3U C10E 1_555 1_555
C6U C9E 1_555 1_555
H3U C6U 1_555 1_555
C7U C8E 1_555 1_555
H4U C7U 1_555 1_555
C1F N1E 1_555 1_555
C2F N2F 1_555 1_555
O3F C10F 1_555 1_555
C3F C1F 1_555 1_555
C4F C4E 1_555 1_555
H1F C4F 1_555 1_555
C5F C5I 1_555 1_555
H2F C5F 1_555 1_555
C6F H3F 1_555 1_555
C7F C6F 1_555 1_555
H4F C7F 1_555 1_555
C8F C3F 1_555 1_555
C9F C6F 1_555 1_555
C10F C9F 1_555 1_555
O3N C10F 1_555 1_555
C6N C9F 1_555 1_555
H3N C6N 1_555 1_555
C7N C8F 1_555 1_555
H4N C7N 1_555 1_555
Ni1C O3C 1_555 1_555
Co1C N1 1_555 1_555
O1C Ni1C 1_555 1_555
O2C Ni1C 1_555 1_555
O4C Co1 1_555 1_555
Ni1D O3W 1_555 1_555
O1D Ni1D 1_555 1_555
Ni1E O2C 1_555 1_555
O1E Ni1E 1_555 1_555
Co1D N1A 1_555 1_555
O4D Co1A 1_555 1_555
Co1E N1B 1_555 1_555
O4E Co1B 1_555 1_555
Ni1_2 O3O 1_555 1_555
Ni1A_2 O3K 1_555 1_555
Ni1B_2 O3J 1_555 1_555
Ni1C_2 O3L 1_555 1_555
Ni1C_3 O3F 1_555 1_555
Ni1C_4 O3U 1_555 1_555
Ni1D_2 O3H 1_555 1_555
Ni1D_3 O3M 1_555 1_555
Ni1D_4 O3D 1_555 1_555
Ni1E_2 O3G 1_555 1_555
Ni1E_3 O3V 1_555 1_555
Ni1E_4 O3N 1_555 1_555
Ni1E_5 O3E 1_555 1_555
O3D_2 Ni1D 1_555 1_555
O3E_2 Ni1E 1_555 1_555
O3F_2 Ni1C 1_555 1_555
O3G_2 Ni1E 1_555 1_555
O3H_2 Ni1D 1_555 1_555
O3I_2 Ni1 1_555 1_555
O3J_2 Ni1B 1_555 1_555
O3K_2 Ni1A 1_555 1_555
O3L_2 Ni1C 1_555 1_555
O3M_2 Ni1D 1_555 1_555
O3N_2 Ni1E 1_555 1_555
O3O_2 Ni1 1_555 1_555
O3P_2 Ni1A 1_555 1_555
O3Q_2 Ni1B 1_555 1_555
O3U_2 Ni1C 1_555 1_555
O3V_2 Ni1E 1_555 1_555
C2 C3 1_555 1_555
N2 Co1C 1_555 1_555
O4 Co1C 1_555 1_555
C7 C8 1_555 1_555
C9 C10 1_555 1_555
N1C Co1C 1_555 1_555
C2C C3C 1_555 1_555
C2C C5C 1_555 1_555
C7C C8C 1_555 1_555
C1K C4K 1_555 1_555
N2H Co1C 1_555 1_555
C7K C8K 1_555 1_555
C6O C7O 1_555 1_555
O3T Ni1A 1_555 1_555
C6T C7T 1_555 1_555
C6W C7W 1_555 1_555
C1H C4H 1_555 1_555
C2H C3H 1_555 1_555
C2H C5H 1_555 1_555
C7H C8H 1_555 1_555
C6L C7L 1_555 1_555
C2A C3A 1_555 1_555
N2A Co1D 1_555 1_555
O4A Co1D 1_555 1_555
C7A C8A 1_555 1_555
C9A C10A 1_555 1_555
N1D Co1D 1_555 1_555
C2D C3D 1_555 1_555
C2D C5D 1_555 1_555
C7D C8D 1_555 1_555
C1J C4J 1_555 1_555
N2G Co1D 1_555 1_555
C7J C8J 1_555 1_555
O3P Ni1A_2 1_555 1_555
C6P C7P 1_555 1_555
O3S Ni1B 1_555 1_555
C6S C7S 1_555 1_555
C6V C7V 1_555 1_555
C1G C4G 1_555 1_555
C2G C3G 1_555 1_555
C2G C5G 1_555 1_555
C7G C8G 1_555 1_555
C6M C7M 1_555 1_555
C2B C3B 1_555 1_555
N2B Co1E 1_555 1_555
O4B Co1E 1_555 1_555
C7B C8B 1_555 1_555
C9B C10B 1_555 1_555
C10B O3R 1_555 1_555
N1E Co1E 1_555 1_555
C2E C3E 1_555 1_555
C2E C5E 1_555 1_555
C7E C8E 1_555 1_555
C1I C4I 1_555 1_555
N2F Co1E 1_555 1_555
O3I Ni1_2 1_555 1_555
C7I C8I 1_555 1_555
O3Q Ni1B_2 1_555 1_555
C6Q C7Q 1_555 1_555
C6R C7R 1_555 1_555
C6U C7U 1_555 1_555
C1F C4F 1_555 1_555
C2F C3F 1_555 1_555
C2F C5F 1_555 1_555
C7F C8F 1_555 1_555
C6N C7N 1_555 1_555
Co1C O4C 1_555 1_555
O2C Ni1D 1_555 1_555
Co1D O4D 1_555 1_555
Co1E O4E 1_555 1_555

#END
