
#######################################################################
#
#                 Cambridge Crystallographic Data Centre
#                                CCDC 
#
#######################################################################
#
# If this CIF has been generated from an entry in the Cambridge 
# Structural Database, then it will include bibliographic, chemical, 
# crystal, experimental, refinement or atomic coordinate data resulting 
# from the CCDC's data processing and validation procedures.
#
#######################################################################

data_DAJXEU
_chemical_formula_moiety         'C144 H72 Co6 Fe19 N12 O55'
_symmetry_cell_setting           hexagonal
_symmetry_space_group_name_H-M   'P 6/m m m'
_symmetry_Int_Tables_number      191
_space_group_name_Hall           '-P 6 2'
loop_
_symmetry_equiv_pos_site_id
_symmetry_equiv_pos_as_xyz
1 x,y,z
2 -y,x-y,z
3 -x+y,-x,z
4 -x,-y,z
5 y,-x+y,z
6 x-y,x,z
7 y,x,-z
8 x-y,-y,-z
9 -x,-x+y,-z
10 -y,-x,-z
11 -x+y,y,-z
12 x,x-y,-z
13 -x,-y,-z
14 y,-x+y,-z
15 x-y,x,-z
16 x,y,-z
17 -y,x-y,-z
18 -x+y,-x,-z
19 -y,-x,z
20 -x+y,y,z
21 x,x-y,z
22 y,x,z
23 x-y,-y,z
24 -x,-x+y,z
_cell_length_a                   31.4689(10)
_cell_length_b                   31.4689(10)
_cell_length_c                   16.8714(6)
_cell_angle_alpha                90
_cell_angle_beta                 90
_cell_angle_gamma                120
_cell_volume                     14469.2
loop_
_atom_site_label
_atom_site_type_symbol
_atom_site_fract_x
_atom_site_fract_y
_atom_site_fract_z
Fe1 Fe 0.29635(3) 0.70365(3) 0.0000
Co1 Co 0.4933(13) 1.0000 0.5000
O1 O 0.25859(14) 0.74141(14) 0.0000
C1 C 0.44843(17) 0.8969(3) 0.4352(5)
N1 N 0.46380(16) 0.9276(3) 0.5000
O2 O 0.3333 0.6667 0.0000
C2 C 0.48059(18) 0.9612(4) 0.3328(5)
N2 N 0.5000 1.0000 0.3825(5)
O3 O 0.33959(15) 0.74927(15) 0.0847(2)
C3 C 0.45564(15) 0.9113(3) 0.3569(4)
C4 C 0.42395(17) 0.8479(3) 0.4585(6)
H1 H 0.4103 0.8206 0.4255
O4 O 0.4229(8) 1.0000 0.5000
C5 C 0.48731(17) 0.9746(3) 0.2537(5)
H2 H 0.4770 0.9539 0.2098
C6 C 0.3718(3) 0.8185(3) 0.2053(4)
H3 H 0.3402 0.8060 0.1854
C7 C 0.3880(3) 0.8540(3) 0.2646(4)
H4 H 0.3679 0.8655 0.2843
C8 C 0.43601(16) 0.8720(3) 0.2935(5)
C9 C 0.40069(15) 0.8014(3) 0.1756(4)
C10 C 0.38160(14) 0.7632(3) 0.1081(4)
C1C C 0.55157(17) 1.1031(3) 0.4352(5)
N1C N 0.53620(16) 1.0724(3) 0.5000
C2C C 0.51941(18) 1.0388(4) 0.3328(5)
O3C O 0.66041(15) 1.25073(15) 0.0847(2)
C3C C 0.54436(15) 1.0887(3) 0.3569(4)
C4C C 0.57605(17) 1.1521(3) 0.4585(6)
H1C H 0.5897 1.1794 0.4255
C5C C 0.51269(17) 1.0254(3) 0.2537(5)
H2C H 0.5230 1.0461 0.2098
C6C C 0.6282(3) 1.1815(3) 0.2053(4)
H3C H 0.6598 1.1940 0.1854
C7C C 0.6120(3) 1.1460(3) 0.2646(4)
H4C H 0.6321 1.1345 0.2843
C8C C 0.56399(16) 1.1280(3) 0.2935(5)
C9C C 0.59931(15) 1.1986(3) 0.1756(4)
C10C C 0.61840(14) 1.2368(3) 0.1081(4)
C1J C 0.44847(34) 0.8969(3) 0.5648(5)
C2J C 0.48061(44) 0.9612(4) 0.6672(5)
N2G N 0.5000 1.0000 0.6175(5)
O3J O 0.40968(21) 0.74927(15) 0.9153(2)
C3J C 0.45566(34) 0.9113(3) 0.6431(4)
C4J C 0.42395(34) 0.8479(3) 0.5415(6)
H1J H 0.4103 0.8206 0.5745
C5J C 0.48729(34) 0.9746(3) 0.7463(5)
H2J H 0.4769 0.9539 0.7902
C6J C 0.4467(4) 0.8185(3) 0.7947(4)
H3J H 0.4658 0.8060 0.8146
C7J C 0.4660(4) 0.8540(3) 0.7354(4)
H4J H 0.4976 0.8655 0.7157
C8J C 0.43599(34) 0.8720(3) 0.7065(5)
C9J C 0.40071(34) 0.8014(3) 0.8244(4)
C10J C 0.38160(33) 0.7632(3) 0.8919(4)
O3O O 0.33959(15) 0.74927(15) 0.9153(2)
C6O C 0.3718(3) 0.8185(3) 0.7947(4)
H3O H 0.3402 0.8060 0.8146
C7O C 0.3880(3) 0.8540(3) 0.7354(4)
H4O H 0.3679 0.8655 0.7157
O3S O 0.40968(21) 0.74927(15) 0.0847(2)
C6S C 0.4467(4) 0.8185(3) 0.2053(4)
H3S H 0.4658 0.8060 0.1854
C7S C 0.4660(4) 0.8540(3) 0.2646(4)
H4S H 0.4976 0.8655 0.2843
O3V O 0.59032(21) 1.25073(15) 0.0847(2)
C6V C 0.5533(4) 1.1815(3) 0.2053(4)
H3V H 0.5342 1.1940 0.1854
C7V C 0.5340(4) 1.1460(3) 0.2646(4)
H4V H 0.5024 1.1345 0.2843
C1G C 0.55153(34) 1.1031(3) 0.5648(5)
C2G C 0.51939(44) 1.0388(4) 0.6672(5)
O3G O 0.59032(21) 1.25073(15) 0.9153(2)
C3G C 0.54434(34) 1.0887(3) 0.6431(4)
C4G C 0.57605(34) 1.1521(3) 0.5415(6)
H1G H 0.5897 1.1794 0.5745
C5G C 0.51271(34) 1.0254(3) 0.7463(5)
H2G H 0.5231 1.0461 0.7902
C6G C 0.5533(4) 1.1815(3) 0.7947(4)
H3G H 0.5342 1.1940 0.8146
C7G C 0.5340(4) 1.1460(3) 0.7354(4)
H4G H 0.5024 1.1345 0.7157
C8G C 0.56401(34) 1.1280(3) 0.7065(5)
C9G C 0.59929(34) 1.1986(3) 0.8244(4)
C10G C 0.61840(33) 1.2368(3) 0.8919(4)
O3L O 0.66041(15) 1.25073(15) 0.9153(2)
C6L C 0.6282(3) 1.1815(3) 0.7947(4)
H3L H 0.6598 1.1940 0.8146
C7L C 0.6120(3) 1.1460(3) 0.7354(4)
H4L H 0.6321 1.1345 0.7157
Fe1A Fe 0.29635(3) 0.59270(4) 0.0000
Co1A Co 0.0000 0.4933(13) 0.5000
O1A O 0.25859(14) 0.51718(20) 0.0000
C1A C 0.1031(3) 0.55153(34) 0.4352(5)
N1A N 0.0724(3) 0.53620(34) 0.5000
C2A C 0.0388(4) 0.51939(44) 0.3328(5)
N2A N 0.0000 0.5000 0.3825(5)
O3A O 0.25073(15) 0.59032(21) 0.0847(2)
C3A C 0.0887(3) 0.54434(34) 0.3569(4)
C4A C 0.1521(3) 0.57605(34) 0.4585(6)
H1A H 0.1794 0.5897 0.4255
O4A O 0.0000 0.4229(8) 0.5000
C5A C 0.0254(3) 0.51271(34) 0.2537(5)
H2A H 0.0461 0.5231 0.2098
C6A C 0.1815(3) 0.5533(4) 0.2053(4)
H3A H 0.1940 0.5342 0.1854
C7A C 0.1460(3) 0.5340(4) 0.2646(4)
H4A H 0.1345 0.5024 0.2843
C8A C 0.1280(3) 0.56401(34) 0.2935(5)
C9A C 0.1986(3) 0.59929(34) 0.1756(4)
C10A C 0.2368(3) 0.61840(33) 0.1081(4)
C1D C -0.1031(3) 0.44847(34) 0.4352(5)
N1D N -0.0724(3) 0.46380(34) 0.5000
C2D C -0.0388(4) 0.48061(44) 0.3328(5)
O3D O -0.25073(15) 0.40968(21) 0.0847(2)
C3D C -0.0887(3) 0.45566(34) 0.3569(4)
C4D C -0.1521(3) 0.42395(34) 0.4585(6)
H1D H -0.1794 0.4103 0.4255
C5D C -0.0254(3) 0.48729(34) 0.2537(5)
H2D H -0.0461 0.4769 0.2098
C6D C -0.1815(3) 0.4467(4) 0.2053(4)
H3D H -0.1940 0.4658 0.1854
C7D C -0.1460(3) 0.4660(4) 0.2646(4)
H4D H -0.1345 0.4976 0.2843
C8D C -0.1280(3) 0.43599(34) 0.2935(5)
C9D C -0.1986(3) 0.40071(34) 0.1756(4)
C10D C -0.2368(3) 0.38160(33) 0.1081(4)
C1I C 0.1031(3) 0.55157(17) 0.5648(5)
C2I C 0.0388(4) 0.51941(18) 0.6672(5)
N2F N 0.0000 0.5000 0.6175(5)
O3I O 0.25073(15) 0.66041(15) 0.9153(2)
C3I C 0.0887(3) 0.54436(15) 0.6431(4)
C4I C 0.1521(3) 0.57605(17) 0.5415(6)
H1I H 0.1794 0.5897 0.5745
C5I C 0.0254(3) 0.51269(17) 0.7463(5)
H2I H 0.0461 0.5230 0.7902
C6I C 0.1815(3) 0.6282(3) 0.7947(4)
H3I H 0.1940 0.6598 0.8146
C7I C 0.1460(3) 0.6120(3) 0.7354(4)
H4I H 0.1345 0.6321 0.7157
C8I C 0.1280(3) 0.56399(16) 0.7065(5)
C9I C 0.1986(3) 0.59931(15) 0.8244(4)
C10I C 0.2368(3) 0.61840(14) 0.8919(4)
O3P O 0.25073(15) 0.59032(21) 0.9153(2)
C6P C 0.1815(3) 0.5533(4) 0.7947(4)
H3P H 0.1940 0.5342 0.8146
C7P C 0.1460(3) 0.5340(4) 0.7354(4)
H4P H 0.1345 0.5024 0.7157
O3R O 0.25073(15) 0.66041(15) 0.0847(2)
C6R C 0.1815(3) 0.6282(3) 0.2053(4)
H3R H 0.1940 0.6598 0.1854
C7R C 0.1460(3) 0.6120(3) 0.2646(4)
H4R H 0.1345 0.6321 0.2843
O3U O -0.25073(15) 0.33959(15) 0.0847(2)
C6U C -0.1815(3) 0.3718(3) 0.2053(4)
H3U H -0.1940 0.3402 0.1854
C7U C -0.1460(3) 0.3880(3) 0.2646(4)
H4U H -0.1345 0.3679 0.2843
C1F C -0.1031(3) 0.44843(17) 0.5648(5)
C2F C -0.0388(4) 0.48059(18) 0.6672(5)
O3F O -0.25073(15) 0.33959(15) 0.9153(2)
C3F C -0.0887(3) 0.45564(15) 0.6431(4)
C4F C -0.1521(3) 0.42395(17) 0.5415(6)
H1F H -0.1794 0.4103 0.5745
C5F C -0.0254(3) 0.48731(17) 0.7463(5)
H2F H -0.0461 0.4770 0.7902
C6F C -0.1815(3) 0.3718(3) 0.7947(4)
H3F H -0.1940 0.3402 0.8146
C7F C -0.1460(3) 0.3880(3) 0.7354(4)
H4F H -0.1345 0.3679 0.7157
C8F C -0.1280(3) 0.43601(16) 0.7065(5)
C9F C -0.1986(3) 0.40069(15) 0.8244(4)
C10F C -0.2368(3) 0.38160(14) 0.8919(4)
O3M O -0.25073(15) 0.40968(21) 0.9153(2)
C6M C -0.1815(3) 0.4467(4) 0.7947(4)
H3M H -0.1940 0.4658 0.8146
C7M C -0.1460(3) 0.4660(4) 0.7354(4)
H4M H -0.1345 0.4976 0.7157
Fe1B Fe 0.40730(4) 0.70365(3) 0.0000
Co1B Co 0.5067(13) 0.5067(13) 0.5000
O1B O 0.48282(20) 0.74141(14) 0.0000
C1B C 0.44847(34) 0.55157(17) 0.4352(5)
N1B N 0.46380(34) 0.53620(16) 0.5000
C2B C 0.48061(44) 0.51941(18) 0.3328(5)
N2B N 0.5000 0.5000 0.3825(5)
O3B O 0.40968(21) 0.66041(15) 0.0847(2)
C3B C 0.45566(34) 0.54436(15) 0.3569(4)
C4B C 0.42395(34) 0.57605(17) 0.4585(6)
H1B H 0.4103 0.5897 0.4255
O4B O 0.5771(8) 0.5771(8) 0.5000
C5B C 0.48729(34) 0.51269(17) 0.2537(5)
H2B H 0.4769 0.5230 0.2098
C6B C 0.4467(4) 0.6282(3) 0.2053(4)
H3B H 0.4658 0.6598 0.1854
C7B C 0.4660(4) 0.6120(3) 0.2646(4)
H4B H 0.4976 0.6321 0.2843
C8B C 0.43599(34) 0.56399(16) 0.2935(5)
C9B C 0.40071(34) 0.59931(15) 0.1756(4)
C10B C 0.38160(33) 0.61840(14) 0.1081(4)
C1E C 0.55153(34) 0.44843(17) 0.4352(5)
N1E N 0.53620(34) 0.46380(16) 0.5000
C2E C 0.51939(44) 0.48059(18) 0.3328(5)
O3E O 0.59032(21) 0.33959(15) 0.0847(2)
C3E C 0.54434(34) 0.45564(15) 0.3569(4)
C4E C 0.57605(34) 0.42395(17) 0.4585(6)
H1E H 0.5897 0.4103 0.4255
C5E C 0.51271(34) 0.48731(17) 0.2537(5)
H2E H 0.5231 0.4770 0.2098
C6E C 0.5533(4) 0.3718(3) 0.2053(4)
H3E H 0.5342 0.3402 0.1854
C7E C 0.5340(4) 0.3880(3) 0.2646(4)
H4E H 0.5024 0.3679 0.2843
C8E C 0.56401(34) 0.43601(16) 0.2935(5)
C9E C 0.59929(34) 0.40069(15) 0.1756(4)
C10E C 0.61840(33) 0.38160(14) 0.1081(4)
C1K C 0.44843(17) 0.55153(34) 0.5648(5)
C2K C 0.48059(18) 0.51939(44) 0.6672(5)
N2H N 0.5000 0.5000 0.6175(5)
O3K O 0.33959(15) 0.59032(21) 0.9153(2)
C3K C 0.45564(15) 0.54434(34) 0.6431(4)
C4K C 0.42395(17) 0.57605(34) 0.5415(6)
H1K H 0.4103 0.5897 0.5745
C5K C 0.48731(17) 0.51271(34) 0.7463(5)
H2K H 0.4770 0.5231 0.7902
C6K C 0.3718(3) 0.5533(4) 0.7947(4)
H3K H 0.3402 0.5342 0.8146
C7K C 0.3880(3) 0.5340(4) 0.7354(4)
H4K H 0.3679 0.5024 0.7157
C8K C 0.43601(16) 0.56401(34) 0.7065(5)
C9K C 0.40069(15) 0.59929(34) 0.8244(4)
C10K C 0.38160(14) 0.61840(33) 0.8919(4)
O3Q O 0.40968(21) 0.66041(15) 0.9153(2)
C6Q C 0.4467(4) 0.6282(3) 0.7947(4)
H3Q H 0.4658 0.6598 0.8146
C7Q C 0.4660(4) 0.6120(3) 0.7354(4)
H4Q H 0.4976 0.6321 0.7157
O3T O 0.33959(15) 0.59032(21) 0.0847(2)
C6T C 0.3718(3) 0.5533(4) 0.2053(4)
H3T H 0.3402 0.5342 0.1854
C7T C 0.3880(3) 0.5340(4) 0.2646(4)
H4T H 0.3679 0.5024 0.2843
O3W O 0.66041(15) 0.40968(21) 0.0847(2)
C6W C 0.6282(3) 0.4467(4) 0.2053(4)
H3W H 0.6598 0.4658 0.1854
C7W C 0.6120(3) 0.4660(4) 0.2646(4)
H4W H 0.6321 0.4976 0.2843
C1H C 0.55157(17) 0.44847(34) 0.5648(5)
C2H C 0.51941(18) 0.48061(44) 0.6672(5)
O3H O 0.66041(15) 0.40968(21) 0.9153(2)
C3H C 0.54436(15) 0.45566(34) 0.6431(4)
C4H C 0.57605(17) 0.42395(34) 0.5415(6)
H1H H 0.5897 0.4103 0.5745
C5H C 0.51269(17) 0.48729(34) 0.7463(5)
H2H H 0.5230 0.4769 0.7902
C6H C 0.6282(3) 0.4467(4) 0.7947(4)
H3H H 0.6598 0.4658 0.8146
C7H C 0.6120(3) 0.4660(4) 0.7354(4)
H4H H 0.6321 0.4976 0.7157
C8H C 0.56399(16) 0.43599(34) 0.7065(5)
C9H C 0.59931(15) 0.40071(34) 0.8244(4)
C10H C 0.61840(14) 0.38160(33) 0.8919(4)
O3N O 0.59032(21) 0.33959(15) 0.9153(2)
C6N C 0.5533(4) 0.3718(3) 0.7947(4)
H3N H 0.5342 0.3402 0.8146
C7N C 0.5340(4) 0.3880(3) 0.7354(4)
H4N H 0.5024 0.3679 0.7157
Fe1C Fe 0.70365(3) 1.29635(3) 0.0000
Co1C Co 0.5067(13) 1.0000 0.5000
O1C O 0.74141(14) 1.25859(14) 0.0000
O2C O 0.6667 1.3333 0.0000
O4C O 0.5771(8) 1.0000 0.5000
Fe1D Fe -0.29635(3) 0.40730(4) 0.0000
Co1D Co 0.0000 0.5067(13) 0.5000
O1D O -0.25859(14) 0.48282(20) 0.0000
O4D O -0.0000 0.5771(8) 0.5000
Fe1E Fe 0.59270(4) 0.29635(3) 0.0000
Co1E Co 0.4933(13) 0.4933(13) 0.5000
O1E O 0.51718(20) 0.25859(14) 0.0000
O4E O 0.4229(8) 0.4229(8) 0.5000
Fe1_2 Fe 0.29635(3) 0.70365(3) 1.0000
Fe1A_2 Fe 0.29635(3) 0.59270(4) 1.0000
Fe1B_2 Fe 0.40730(4) 0.70365(3) 1.0000
Fe1C_2 Fe -0.29635(3) 0.29635(3) 0.0000
Fe1C_3 Fe -0.29635(3) 0.29635(3) 1.0000
Fe1C_4 Fe 0.70365(3) 1.29635(3) 1.0000
Fe1D_2 Fe -0.29635(3) 0.40730(4) 1.0000
Fe1D_3 Fe 0.70365(3) 0.40730(4) 0.0000
Fe1D_4 Fe 0.70365(3) 0.40730(4) 1.0000
Fe1D_5 Fe 0.70365(3) 1.40730(4) 0.0000
Fe1E_2 Fe 0.59270(4) 0.29635(3) 1.0000
Fe1E_3 Fe 0.59270(4) 1.29635(3) 0.0000
Fe1E_4 Fe 0.59270(4) 1.29635(3) 1.0000
O2C_2 O -0.3333 0.3333 0.0000
O2C_3 O 0.6667 0.3333 0.0000
O3F_2 O 0.74927(15) 1.33959(15) -0.0847(2)
O3G_2 O 0.59032(21) 0.25073(15) -0.0847(2)
O3H_2 O -0.33959(15) 0.40968(21) -0.0847(2)
O3I_2 O 0.25073(15) 0.66041(15) -0.0847(2)
O3J_2 O 0.40968(21) 0.74927(15) -0.0847(2)
O3K_2 O 0.33959(15) 0.59032(21) -0.0847(2)
O3L_2 O 0.66041(15) 1.25073(15) -0.0847(2)
O3M_2 O -0.25073(15) 0.40968(21) -0.0847(2)
O3N_2 O 0.59032(21) 0.33959(15) -0.0847(2)
O3O_2 O 0.33959(15) 0.74927(15) -0.0847(2)
O3P_2 O 0.25073(15) 0.59032(21) -0.0847(2)
O3Q_2 O 0.40968(21) 0.66041(15) -0.0847(2)
O3U_2 O 0.74927(15) 1.33959(15) 0.0847(2)
O3V_2 O 0.59032(21) 0.25073(15) 0.0847(2)
O3W_2 O -0.33959(15) 0.40968(21) 0.0847(2)
loop_
_geom_bond_atom_site_label_1
_geom_bond_atom_site_label_2
_geom_bond_site_symmetry_1
_geom_bond_site_symmetry_2
Fe1 O1 1_555 1_555
Co1 N1 1_555 1_555
C1 N1 1_555 1_555
N1 C1J 1_555 1_555
O2 Fe1 1_555 1_555
C2 N2 1_555 1_555
N2 Co1 1_555 1_555
O3 Fe1 1_555 1_555
C3 C1 1_555 1_555
C4 C1 1_555 1_555
H1 C4 1_555 1_555
O4 Co1 1_555 1_555
C5 C2 1_555 1_555
H2 C5 1_555 1_555
C6 H3 1_555 1_555
C7 C6 1_555 1_555
H4 C7 1_555 1_555
C8 C3 1_555 1_555
C9 C6 1_555 1_555
C10 O3 1_555 1_555
C1C N1C 1_555 1_555
N1C Co1 1_555 1_555
C2C N2 1_555 1_555
O3C C10C 1_555 1_555
C3C C1C 1_555 1_555
C4C C1C 1_555 1_555
H1C C4C 1_555 1_555
C5C C5 1_555 1_555
H2C C5C 1_555 1_555
C6C H3C 1_555 1_555
C7C C6C 1_555 1_555
H4C C7C 1_555 1_555
C8C C3C 1_555 1_555
C9C C6C 1_555 1_555
C10C C9C 1_555 1_555
C1J C3J 1_555 1_555
C2J N2G 1_555 1_555
N2G Co1 1_555 1_555
O3J C10J 1_555 1_555
C3J C2J 1_555 1_555
C4J C4 1_555 1_555
H1J C4J 1_555 1_555
C5J C2J 1_555 1_555
H2J C5J 1_555 1_555
C6J H3J 1_555 1_555
C7J C6J 1_555 1_555
H4J C7J 1_555 1_555
C8J C3J 1_555 1_555
C9J C6J 1_555 1_555
C10J C9J 1_555 1_555
O3O C10J 1_555 1_555
C6O C9J 1_555 1_555
H3O C6O 1_555 1_555
C7O C8J 1_555 1_555
H4O C7O 1_555 1_555
O3S C10 1_555 1_555
C6S C9 1_555 1_555
H3S C6S 1_555 1_555
C7S C8 1_555 1_555
H4S C7S 1_555 1_555
O3V C10C 1_555 1_555
C6V C9C 1_555 1_555
H3V C6V 1_555 1_555
C7V C8C 1_555 1_555
H4V C7V 1_555 1_555
C1G N1C 1_555 1_555
C2G N2G 1_555 1_555
O3G C10G 1_555 1_555
C3G C1G 1_555 1_555
C4G C4C 1_555 1_555
H1G C4G 1_555 1_555
C5G C5J 1_555 1_555
H2G C5G 1_555 1_555
C6G H3G 1_555 1_555
C7G C6G 1_555 1_555
H4G C7G 1_555 1_555
C8G C3G 1_555 1_555
C9G C6G 1_555 1_555
C10G C9G 1_555 1_555
O3L C10G 1_555 1_555
C6L C9G 1_555 1_555
H3L C6L 1_555 1_555
C7L C8G 1_555 1_555
H4L C7L 1_555 1_555
Fe1A O2 1_555 1_555
Co1A N1A 1_555 1_555
O1A Fe1A 1_555 1_555
C1A N1A 1_555 1_555
N1A C1I 1_555 1_555
C2A N2A 1_555 1_555
N2A Co1A 1_555 1_555
O3A Fe1A 1_555 1_555
C3A C1A 1_555 1_555
C4A C1A 1_555 1_555
H1A C4A 1_555 1_555
O4A Co1A 1_555 1_555
C5A C2A 1_555 1_555
H2A C5A 1_555 1_555
C6A H3A 1_555 1_555
C7A C6A 1_555 1_555
H4A C7A 1_555 1_555
C8A C3A 1_555 1_555
C9A C6A 1_555 1_555
C10A O3A 1_555 1_555
C1D N1D 1_555 1_555
N1D Co1A 1_555 1_555
C2D N2A 1_555 1_555
O3D C10D 1_555 1_555
C3D C1D 1_555 1_555
C4D C1D 1_555 1_555
H1D C4D 1_555 1_555
C5D C5A 1_555 1_555
H2D C5D 1_555 1_555
C6D H3D 1_555 1_555
C7D C6D 1_555 1_555
H4D C7D 1_555 1_555
C8D C3D 1_555 1_555
C9D C6D 1_555 1_555
C10D C9D 1_555 1_555
C1I C3I 1_555 1_555
C2I N2F 1_555 1_555
N2F Co1A 1_555 1_555
O3I C10I 1_555 1_555
C3I C2I 1_555 1_555
C4I C4A 1_555 1_555
H1I C4I 1_555 1_555
C5I C2I 1_555 1_555
H2I C5I 1_555 1_555
C6I H3I 1_555 1_555
C7I C6I 1_555 1_555
H4I C7I 1_555 1_555
C8I C3I 1_555 1_555
C9I C6I 1_555 1_555
C10I C9I 1_555 1_555
O3P C10I 1_555 1_555
C6P C9I 1_555 1_555
H3P C6P 1_555 1_555
C7P C8I 1_555 1_555
H4P C7P 1_555 1_555
O3R Fe1 1_555 1_555
C6R C9A 1_555 1_555
H3R C6R 1_555 1_555
C7R C8A 1_555 1_555
H4R C7R 1_555 1_555
O3U C10D 1_555 1_555
C6U C9D 1_555 1_555
H3U C6U 1_555 1_555
C7U C8D 1_555 1_555
H4U C7U 1_555 1_555
C1F N1D 1_555 1_555
C2F N2F 1_555 1_555
O3F C10F 1_555 1_555
C3F C1F 1_555 1_555
C4F C4D 1_555 1_555
H1F C4F 1_555 1_555
C5F C5I 1_555 1_555
H2F C5F 1_555 1_555
C6F H3F 1_555 1_555
C7F C6F 1_555 1_555
H4F C7F 1_555 1_555
C8F C3F 1_555 1_555
C9F C6F 1_555 1_555
C10F C9F 1_555 1_555
O3M C10F 1_555 1_555
C6M C9F 1_555 1_555
H3M C6M 1_555 1_555
C7M C8F 1_555 1_555
H4M C7M 1_555 1_555
Fe1B O2 1_555 1_555
Co1B N1B 1_555 1_555
O1B Fe1B 1_555 1_555
C1B N1B 1_555 1_555
N1B C1K 1_555 1_555
C2B N2B 1_555 1_555
N2B Co1B 1_555 1_555
O3B Fe1B 1_555 1_555
C3B C1B 1_555 1_555
C4B C1B 1_555 1_555
H1B C4B 1_555 1_555
O4B Co1B 1_555 1_555
C5B C2B 1_555 1_555
H2B C5B 1_555 1_555
C6B H3B 1_555 1_555
C7B C6B 1_555 1_555
H4B C7B 1_555 1_555
C8B C3B 1_555 1_555
C9B C6B 1_555 1_555
C10B O3B 1_555 1_555
C1E N1E 1_555 1_555
N1E Co1B 1_555 1_555
C2E N2B 1_555 1_555
O3E C10E 1_555 1_555
C3E C1E 1_555 1_555
C4E C1E 1_555 1_555
H1E C4E 1_555 1_555
C5E C5B 1_555 1_555
H2E C5E 1_555 1_555
C6E H3E 1_555 1_555
C7E C6E 1_555 1_555
H4E C7E 1_555 1_555
C8E C3E 1_555 1_555
C9E C6E 1_555 1_555
C10E C9E 1_555 1_555
C1K C3K 1_555 1_555
C2K N2H 1_555 1_555
N2H Co1B 1_555 1_555
O3K C10K 1_555 1_555
C3K C2K 1_555 1_555
C4K C4B 1_555 1_555
H1K C4K 1_555 1_555
C5K C2K 1_555 1_555
H2K C5K 1_555 1_555
C6K H3K 1_555 1_555
C7K C6K 1_555 1_555
H4K C7K 1_555 1_555
C8K C3K 1_555 1_555
C9K C6K 1_555 1_555
C10K C9K 1_555 1_555
O3Q C10K 1_555 1_555
C6Q C9K 1_555 1_555
H3Q C6Q 1_555 1_555
C7Q C8K 1_555 1_555
H4Q C7Q 1_555 1_555
O3T Fe1A 1_555 1_555
C6T C9B 1_555 1_555
H3T C6T 1_555 1_555
C7T C8B 1_555 1_555
H4T C7T 1_555 1_555
O3W C10E 1_555 1_555
C6W C9E 1_555 1_555
H3W C6W 1_555 1_555
C7W C8E 1_555 1_555
H4W C7W 1_555 1_555
C1H N1E 1_555 1_555
C2H N2H 1_555 1_555
O3H C10H 1_555 1_555
C3H C1H 1_555 1_555
C4H C4E 1_555 1_555
H1H C4H 1_555 1_555
C5H C5K 1_555 1_555
H2H C5H 1_555 1_555
C6H H3H 1_555 1_555
C7H C6H 1_555 1_555
H4H C7H 1_555 1_555
C8H C3H 1_555 1_555
C9H C6H 1_555 1_555
C10H C9H 1_555 1_555
O3N C10H 1_555 1_555
C6N C9H 1_555 1_555
H3N C6N 1_555 1_555
C7N C8H 1_555 1_555
H4N C7N 1_555 1_555
Fe1C O3C 1_555 1_555
Co1C N1 1_555 1_555
O1C Fe1C 1_555 1_555
O2C Fe1C 1_555 1_555
O4C Co1C 1_555 1_555
Fe1D O3D 1_555 1_555
Co1D N1A 1_555 1_555
O1D Fe1D 1_555 1_555
O4D Co1D 1_555 1_555
Fe1E O3E 1_555 1_555
Co1E N1B 1_555 1_555
O1E Fe1E 1_555 1_555
O4E Co1E 1_555 1_555
Fe1_2 O3O 1_555 1_555
Fe1A_2 O3P 1_555 1_555
Fe1B_2 O3J 1_555 1_555
Fe1C_2 O3U 1_555 1_555
Fe1C_3 O3F 1_555 1_555
Fe1C_4 O3L 1_555 1_555
Fe1D_2 O3M 1_555 1_555
Fe1D_3 O3W 1_555 1_555
Fe1D_4 O3H 1_555 1_555
Fe1D_5 O2C 1_555 1_555
Fe1E_2 O3N 1_555 1_555
Fe1E_3 O3V 1_555 1_555
Fe1E_4 O3G 1_555 1_555
O2C_2 Fe1D 1_555 1_555
O2C_3 Fe1E 1_555 1_555
O3F_2 Fe1C 1_555 1_555
O3G_2 Fe1E 1_555 1_555
O3H_2 Fe1D 1_555 1_555
O3I_2 Fe1 1_555 1_555
O3J_2 Fe1B 1_555 1_555
O3K_2 Fe1A 1_555 1_555
O3L_2 Fe1C 1_555 1_555
O3M_2 Fe1D 1_555 1_555
O3N_2 Fe1E 1_555 1_555
O3O_2 Fe1 1_555 1_555
O3P_2 Fe1A 1_555 1_555
O3Q_2 Fe1B 1_555 1_555
O3U_2 Fe1C 1_555 1_555
O3V_2 Fe1E 1_555 1_555
O3W_2 Fe1D 1_555 1_555
C2 C3 1_555 1_555
N2 Co1C 1_555 1_555
C7 C8 1_555 1_555
C9 C10 1_555 1_555
N1C Co1C 1_555 1_555
C2C C3C 1_555 1_555
C2C C5C 1_555 1_555
C7C C8C 1_555 1_555
C1J C4J 1_555 1_555
N2G Co1C 1_555 1_555
C7J C8J 1_555 1_555
C6O C7O 1_555 1_555
O3S Fe1B 1_555 1_555
C6S C7S 1_555 1_555
C6V C7V 1_555 1_555
C1G C4G 1_555 1_555
C2G C3G 1_555 1_555
C2G C5G 1_555 1_555
C7G C8G 1_555 1_555
C6L C7L 1_555 1_555
C2A C3A 1_555 1_555
N2A Co1D 1_555 1_555
C7A C8A 1_555 1_555
C9A C10A 1_555 1_555
C10A O3R 1_555 1_555
N1D Co1D 1_555 1_555
C2D C3D 1_555 1_555
C2D C5D 1_555 1_555
C7D C8D 1_555 1_555
C1I C4I 1_555 1_555
N2F Co1D 1_555 1_555
O3I Fe1_2 1_555 1_555
C7I C8I 1_555 1_555
C6P C7P 1_555 1_555
C6R C7R 1_555 1_555
C6U C7U 1_555 1_555
C1F C4F 1_555 1_555
C2F C3F 1_555 1_555
C2F C5F 1_555 1_555
C7F C8F 1_555 1_555
C6M C7M 1_555 1_555
C2B C3B 1_555 1_555
N2B Co1E 1_555 1_555
C7B C8B 1_555 1_555
C9B C10B 1_555 1_555
C10B O3T 1_555 1_555
N1E Co1E 1_555 1_555
C2E C3E 1_555 1_555
C2E C5E 1_555 1_555
C7E C8E 1_555 1_555
C1K C4K 1_555 1_555
N2H Co1E 1_555 1_555
O3K Fe1A_2 1_555 1_555
C7K C8K 1_555 1_555
O3Q Fe1B_2 1_555 1_555
C6Q C7Q 1_555 1_555
C6T C7T 1_555 1_555
C6W C7W 1_555 1_555
C1H C4H 1_555 1_555
C2H C3H 1_555 1_555
C2H C5H 1_555 1_555
C7H C8H 1_555 1_555
C6N C7N 1_555 1_555
O2C Fe1E_3 1_555 1_555
Fe1C_2 O2C_2 1_555 1_555
Fe1D_3 O2C_3 1_555 1_555

#END
