
#######################################################################
#
#                 Cambridge Crystallographic Data Centre
#                                CCDC 
#
#######################################################################
#
# If this CIF has been generated from an entry in the Cambridge 
# Structural Database, then it will include bibliographic, chemical, 
# crystal, experimental, refinement or atomic coordinate data resulting 
# from the CCDC's data processing and validation procedures.
#
#######################################################################

data_DAJXIY
_chemical_formula_moiety         'C144 H72 Co3 N12 Ni19 O54'
_symmetry_cell_setting           hexagonal
_symmetry_space_group_name_H-M   'P 6/m m m'
_symmetry_Int_Tables_number      191
_space_group_name_Hall           '-P 6 2'
loop_
_symmetry_equiv_pos_site_id
_symmetry_equiv_pos_as_xyz
1 x,y,z
2 -y,x-y,z
3 -x+y,-x,z
4 -x,-y,z
5 y,-x+y,z
6 x-y,x,z
7 y,x,-z
8 x-y,-y,-z
9 -x,-x+y,-z
10 -y,-x,-z
11 -x+y,y,-z
12 x,x-y,-z
13 -x,-y,-z
14 y,-x+y,-z
15 x-y,x,-z
16 x,y,-z
17 -y,x-y,-z
18 -x+y,-x,-z
19 -y,-x,z
20 -x+y,y,z
21 x,x-y,z
22 y,x,z
23 x-y,-y,z
24 -x,-x+y,z
_cell_length_a                   31.963(3)
_cell_length_b                   31.963(3)
_cell_length_c                   16.7135(16)
_cell_angle_alpha                90
_cell_angle_beta                 90
_cell_angle_gamma                120
_cell_volume                     14787.4
loop_
_atom_site_label
_atom_site_type_symbol
_atom_site_fract_x
_atom_site_fract_y
_atom_site_fract_z
Ni1 Ni 0.29715(3) 0.70285(3) 0.5000
O1 O 0.25871(14) 0.74129(14) 0.5000
C1 C 0.1020(3) 0.55100(15) 0.0664(6)
N1 N 0.0710(3) 0.53548(17) 0.0000
Co1 Co 0.0000 0.5000 0.0000
O2 O 0.3333 0.6667 0.5000
C2 C 0.0396(3) 0.51978(16) 0.1689(6)
N2 N -0.0000 0.5000 0.1177(7)
O3 O 0.25029(14) 0.66031(15) 0.4134(2)
C3 C 0.0876(3) 0.54379(17) 0.1443(6)
C4 C 0.0246(3) 0.51231(15) 0.2478(6)
H1 H 0.0445 0.5223 0.2927
C5 C 0.1492(3) 0.57458(17) 0.0423(6)
H2 H 0.1762 0.5881 0.0753
O4 O 0.0000 0.5656(6) 0.0000
C6 C 0.1441(3) 0.5342(3) 0.2384(5)
H3 H 0.1327 0.5030 0.2194
C7 C 0.1256(3) 0.56278(16) 0.2072(6)
C8 C 0.1968(3) 0.59839(14) 0.3260(5)
C9 C 0.2370(3) 0.61850(14) 0.3900(5)
C10 C 0.1788(3) 0.5525(2) 0.2968(4)
H4 H 0.1905 0.5332 0.3171
C1C C -0.1020(3) 0.44900(15) 0.0664(6)
N1C N -0.0710(3) 0.46452(17) 0.0000
C2C C -0.0396(3) 0.48022(16) 0.1689(6)
O3C O -0.25029(14) 0.33969(15) 0.4134(2)
C3C C -0.0876(3) 0.45621(17) 0.1443(6)
C4C C -0.0246(3) 0.48769(15) 0.2478(6)
H1C H -0.0445 0.4777 0.2927
C5C C -0.1492(3) 0.42542(17) 0.0423(6)
H2C H -0.1762 0.4119 0.0753
C6C C -0.1441(3) 0.4658(3) 0.2384(5)
H3C H -0.1327 0.4970 0.2194
C7C C -0.1256(3) 0.43722(16) 0.2072(6)
C8C C -0.1968(3) 0.40161(14) 0.3260(5)
C9C C -0.2370(3) 0.38150(14) 0.3900(5)
C10C C -0.1788(3) 0.4475(2) 0.2968(4)
H4C H -0.1905 0.4668 0.3171
C1K C 0.1020(3) 0.55100(34) -0.0664(6)
C2K C 0.0396(3) 0.51982(34) -0.1689(6)
N2H N 0.0000 0.5000 -0.1177(7)
O3K O 0.25029(14) 0.58998(21) -0.4134(2)
C3K C 0.0876(3) 0.54381(34) -0.1443(6)
C4K C 0.0246(3) 0.51229(34) -0.2478(6)
H1K H 0.0445 0.5222 -0.2927
C5K C 0.1492(3) 0.57462(34) -0.0423(6)
H2K H 0.1762 0.5881 -0.0753
C6K C 0.1441(3) 0.6099(4) -0.2384(5)
H3K H 0.1327 0.6297 -0.2194
C7K C 0.1256(3) 0.56282(34) -0.2072(6)
C8K C 0.1968(3) 0.59841(33) -0.3260(5)
C9K C 0.2370(3) 0.61850(33) -0.3900(5)
C10K C 0.1788(3) 0.6263(4) -0.2968(4)
H4K H 0.1905 0.6573 -0.3171
O3O O 0.25029(14) 0.66031(15) -0.4134(2)
C6O C 0.1441(3) 0.5342(3) -0.2384(5)
H3O H 0.1327 0.5030 -0.2194
C10O C 0.1788(3) 0.5525(2) -0.2968(4)
H4O H 0.1905 0.5332 -0.3171
O3T O 0.25029(14) 0.58998(21) 0.4134(2)
C6T C 0.1441(3) 0.6099(4) 0.2384(5)
H3T H 0.1327 0.6297 0.2194
C10T C 0.1788(3) 0.6263(4) 0.2968(4)
H4T H 0.1905 0.6573 0.3171
O3W O -0.25029(14) 0.41002(21) 0.4134(2)
C6W C -0.1441(3) 0.3901(4) 0.2384(5)
H3W H -0.1327 0.3703 0.2194
C10W C -0.1788(3) 0.3737(4) 0.2968(4)
H4W H -0.1905 0.3427 0.3171
C1H C -0.1020(3) 0.44900(34) -0.0664(6)
C2H C -0.0396(3) 0.48018(34) -0.1689(6)
O3H O -0.25029(14) 0.41002(21) -0.4134(2)
C3H C -0.0876(3) 0.45619(34) -0.1443(6)
C4H C -0.0246(3) 0.48771(34) -0.2478(6)
H1H H -0.0445 0.4778 -0.2927
C5H C -0.1492(3) 0.42538(34) -0.0423(6)
H2H H -0.1762 0.4119 -0.0753
C6H C -0.1441(3) 0.3901(4) -0.2384(5)
H3H H -0.1327 0.3703 -0.2194
C7H C -0.1256(3) 0.43718(34) -0.2072(6)
C8H C -0.1968(3) 0.40159(33) -0.3260(5)
C9H C -0.2370(3) 0.38150(33) -0.3900(5)
C10H C -0.1788(3) 0.3737(4) -0.2968(4)
H4H H -0.1905 0.3427 -0.3171
O3L O -0.25029(14) 0.33969(15) -0.4134(2)
C6L C -0.1441(3) 0.4658(3) -0.2384(5)
H3L H -0.1327 0.4970 -0.2194
C10L C -0.1788(3) 0.4475(2) -0.2968(4)
H4L H -0.1905 0.4668 -0.3171
Ni1A Ni 0.29715(3) 0.59430(4) 0.5000
O1A O 0.25871(14) 0.51742(20) 0.5000
C1A C 0.44900(15) 0.55100(34) 0.0664(6)
N1A N 0.46452(17) 0.53552(34) 0.0000
Co1A Co 0.5000 0.5000 0.0000
C2A C 0.48022(16) 0.51982(34) 0.1689(6)
N2A N 0.5000 0.5000 0.1177(7)
O3A O 0.33969(15) 0.58998(21) 0.4134(2)
C3A C 0.45621(17) 0.54381(34) 0.1443(6)
C4A C 0.48769(15) 0.51229(34) 0.2478(6)
H1A H 0.4777 0.5222 0.2927
C5A C 0.42542(17) 0.57462(34) 0.0423(6)
H2A H 0.4119 0.5881 0.0753
O4A O 0.4344(6) 0.4344(6) 0.0000
C6A C 0.4658(3) 0.6099(4) 0.2384(5)
H3A H 0.4970 0.6297 0.2194
C7A C 0.43722(16) 0.56282(34) 0.2072(6)
C8A C 0.40161(14) 0.59841(33) 0.3260(5)
C9A C 0.38150(14) 0.61850(33) 0.3900(5)
C10A C 0.4475(2) 0.6263(4) 0.2968(4)
H4A H 0.4668 0.6573 0.3171
C1D C 0.55100(15) 0.44900(34) 0.0664(6)
N1D N 0.53548(17) 0.46448(34) 0.0000
C2D C 0.51978(16) 0.48018(34) 0.1689(6)
O3D O 0.66031(15) 0.41002(21) 0.4134(2)
C3D C 0.54379(17) 0.45619(34) 0.1443(6)
C4D C 0.51231(15) 0.48771(34) 0.2478(6)
H1D H 0.5223 0.4778 0.2927
C5D C 0.57458(17) 0.42538(34) 0.0423(6)
H2D H 0.5881 0.4119 0.0753
C6D C 0.5342(3) 0.3901(4) 0.2384(5)
H3D H 0.5030 0.3703 0.2194
C7D C 0.56278(16) 0.43718(34) 0.2072(6)
C8D C 0.59839(14) 0.40159(33) 0.3260(5)
C9D C 0.61850(14) 0.38150(33) 0.3900(5)
C10D C 0.5525(2) 0.3737(4) 0.2968(4)
H4D H 0.5332 0.3427 0.3171
C1J C 0.44900(34) 0.55100(15) -0.0664(6)
C2J C 0.48018(34) 0.51978(16) -0.1689(6)
N2G N 0.5000 0.5000 -0.1177(7)
O3J O 0.41002(21) 0.66031(15) -0.4134(2)
C3J C 0.45619(34) 0.54379(17) -0.1443(6)
C4J C 0.48771(34) 0.51231(15) -0.2478(6)
H1J H 0.4778 0.5223 -0.2927
C5J C 0.42538(34) 0.57458(17) -0.0423(6)
H2J H 0.4119 0.5881 -0.0753
C6J C 0.3901(4) 0.5342(3) -0.2384(5)
H3J H 0.3703 0.5030 -0.2194
C7J C 0.43718(34) 0.56278(16) -0.2072(6)
C8J C 0.40159(33) 0.59839(14) -0.3260(5)
C9J C 0.38150(33) 0.61850(14) -0.3900(5)
C10J C 0.3737(4) 0.5525(2) -0.2968(4)
H4J H 0.3427 0.5332 -0.3171
O3P O 0.33969(15) 0.58998(21) -0.4134(2)
C6P C 0.4658(3) 0.6099(4) -0.2384(5)
H3P H 0.4970 0.6297 -0.2194
C10P C 0.4475(2) 0.6263(4) -0.2968(4)
H4P H 0.4668 0.6573 -0.3171
O3S O 0.41002(21) 0.66031(15) 0.4134(2)
C6S C 0.3901(4) 0.5342(3) 0.2384(5)
H3S H 0.3703 0.5030 0.2194
C10S C 0.3737(4) 0.5525(2) 0.2968(4)
H4S H 0.3427 0.5332 0.3171
O3V O 0.58998(21) 0.33969(15) 0.4134(2)
C6V C 0.6099(4) 0.4658(3) 0.2384(5)
H3V H 0.6297 0.4970 0.2194
C10V C 0.6263(4) 0.4475(2) 0.2968(4)
H4V H 0.6573 0.4668 0.3171
C1G C 0.55100(34) 0.44900(15) -0.0664(6)
C2G C 0.51982(34) 0.48022(16) -0.1689(6)
O3G O 0.58998(21) 0.33969(15) -0.4134(2)
C3G C 0.54381(34) 0.45621(17) -0.1443(6)
C4G C 0.51229(34) 0.48769(15) -0.2478(6)
H1G H 0.5222 0.4777 -0.2927
C5G C 0.57462(34) 0.42542(17) -0.0423(6)
H2G H 0.5881 0.4119 -0.0753
C6G C 0.6099(4) 0.4658(3) -0.2384(5)
H3G H 0.6297 0.4970 -0.2194
C7G C 0.56282(34) 0.43722(16) -0.2072(6)
C8G C 0.59841(33) 0.40161(14) -0.3260(5)
C9G C 0.61850(33) 0.38150(14) -0.3900(5)
C10G C 0.6263(4) 0.4475(2) -0.2968(4)
H4G H 0.6573 0.4668 -0.3171
O3M O 0.66031(15) 0.41002(21) -0.4134(2)
C6M C 0.5342(3) 0.3901(4) -0.2384(5)
H3M H 0.5030 0.3703 -0.2194
C10M C 0.5525(2) 0.3737(4) -0.2968(4)
H4M H 0.5332 0.3427 -0.3171
Ni1B Ni 0.40570(4) 0.70285(3) 0.5000
O1B O 0.48258(20) 0.74129(14) 0.5000
C1B C 0.44900(34) 0.8980(3) 0.0664(6)
N1B N 0.46448(34) 0.9290(3) 0.0000
Co1B Co 0.5000 1.0000 0.0000
C2B C 0.48018(34) 0.9604(3) 0.1689(6)
N2B N 0.5000 1.0000 0.1177(7)
O3B O 0.41002(21) 0.74971(14) 0.4134(2)
C3B C 0.45619(34) 0.9124(3) 0.1443(6)
C4B C 0.48771(34) 0.9754(3) 0.2478(6)
H1B H 0.4778 0.9555 0.2927
C5B C 0.42538(34) 0.8508(3) 0.0423(6)
H2B H 0.4119 0.8238 0.0753
O4B O 0.5656(6) 1.0000 0.0000
C6B C 0.3901(4) 0.8559(3) 0.2384(5)
H3B H 0.3703 0.8673 0.2194
C7B C 0.43718(34) 0.8744(3) 0.2072(6)
C8B C 0.40159(33) 0.8032(3) 0.3260(5)
C9B C 0.38150(33) 0.7630(3) 0.3900(5)
C10B C 0.3737(4) 0.8212(3) 0.2968(4)
H4B H 0.3427 0.8095 0.3171
C1E C 0.55100(34) 1.1020(3) 0.0664(6)
N1E N 0.53552(34) 1.0710(3) 0.0000
C2E C 0.51982(34) 1.0396(3) 0.1689(6)
O3E O 0.58998(21) 1.25029(14) 0.4134(2)
C3E C 0.54381(34) 1.0876(3) 0.1443(6)
C4E C 0.51229(34) 1.0246(3) 0.2478(6)
H1E H 0.5222 1.0445 0.2927
C5E C 0.57462(34) 1.1492(3) 0.0423(6)
H2E H 0.5881 1.1762 0.0753
C6E C 0.6099(4) 1.1441(3) 0.2384(5)
H3E H 0.6297 1.1327 0.2194
C7E C 0.56282(34) 1.1256(3) 0.2072(6)
C8E C 0.59841(33) 1.1968(3) 0.3260(5)
C9E C 0.61850(33) 1.2370(3) 0.3900(5)
C10E C 0.6263(4) 1.1788(3) 0.2968(4)
H4E H 0.6573 1.1905 0.3171
C1I C 0.44900(15) 0.8980(3) -0.0664(6)
C2I C 0.48022(16) 0.9604(3) -0.1689(6)
N2F N 0.5000 1.0000 -0.1177(7)
O3I O 0.33969(15) 0.74971(14) -0.4134(2)
C3I C 0.45621(17) 0.9124(3) -0.1443(6)
C4I C 0.48769(15) 0.9754(3) -0.2478(6)
H1I H 0.4777 0.9555 -0.2927
C5I C 0.42542(17) 0.8508(3) -0.0423(6)
H2I H 0.4119 0.8238 -0.0753
C6I C 0.4658(3) 0.8559(3) -0.2384(5)
H3I H 0.4970 0.8673 -0.2194
C7I C 0.43722(16) 0.8744(3) -0.2072(6)
C8I C 0.40161(14) 0.8032(3) -0.3260(5)
C9I C 0.38150(14) 0.7630(3) -0.3900(5)
C10I C 0.4475(2) 0.8212(3) -0.2968(4)
H4I H 0.4668 0.8095 -0.3171
O3Q O 0.41002(21) 0.74971(14) -0.4134(2)
C6Q C 0.3901(4) 0.8559(3) -0.2384(5)
H3Q H 0.3703 0.8673 -0.2194
C10Q C 0.3737(4) 0.8212(3) -0.2968(4)
H4Q H 0.3427 0.8095 -0.3171
O3R O 0.33969(15) 0.74971(14) 0.4134(2)
C6R C 0.4658(3) 0.8559(3) 0.2384(5)
H3R H 0.4970 0.8673 0.2194
C10R C 0.4475(2) 0.8212(3) 0.2968(4)
H4R H 0.4668 0.8095 0.3171
O3U O 0.66031(15) 1.25029(14) 0.4134(2)
C6U C 0.5342(3) 1.1441(3) 0.2384(5)
H3U H 0.5030 1.1327 0.2194
C10U C 0.5525(2) 1.1788(3) 0.2968(4)
H4U H 0.5332 1.1905 0.3171
C1F C 0.55100(15) 1.1020(3) -0.0664(6)
C2F C 0.51978(16) 1.0396(3) -0.1689(6)
O3F O 0.66031(15) 1.25029(14) -0.4134(2)
C3F C 0.54379(17) 1.0876(3) -0.1443(6)
C4F C 0.51231(15) 1.0246(3) -0.2478(6)
H1F H 0.5223 1.0445 -0.2927
C5F C 0.57458(17) 1.1492(3) -0.0423(6)
H2F H 0.5881 1.1762 -0.0753
C6F C 0.5342(3) 1.1441(3) -0.2384(5)
H3F H 0.5030 1.1327 -0.2194
C7F C 0.56278(16) 1.1256(3) -0.2072(6)
C8F C 0.59839(14) 1.1968(3) -0.3260(5)
C9F C 0.61850(14) 1.2370(3) -0.3900(5)
C10F C 0.5525(2) 1.1788(3) -0.2968(4)
H4F H 0.5332 1.1905 -0.3171
O3N O 0.58998(21) 1.25029(14) -0.4134(2)
C6N C 0.6099(4) 1.1441(3) -0.2384(5)
H3N H 0.6297 1.1327 -0.2194
C10N C 0.6263(4) 1.1788(3) -0.2968(4)
H4N H 0.6573 1.1905 -0.3171
Ni1C Ni -0.29715(3) 0.29715(3) 0.5000
O1C O -0.25871(14) 0.25871(14) 0.5000
O2C O -0.3333 0.3333 0.5000
O4C O 0.0000 0.4344(6) 0.0000
Ni1D Ni -0.29715(3) 0.40570(4) 0.5000
O1D O -0.25871(14) 0.48258(20) 0.5000
Ni1E Ni -0.40570(4) 0.29715(3) 0.5000
O1E O -0.48258(20) 0.25871(14) 0.5000
O4D O 0.5656(6) 0.5656(6) 0.0000
O4E O 0.4344(6) 1.0000 0.0000
Ni1_2 Ni 0.29715(3) 0.70285(3) -0.5000
Ni1A_2 Ni 0.29715(3) 0.59430(4) -0.5000
Ni1B_2 Ni 0.40570(4) 0.70285(3) -0.5000
Ni1C_2 Ni -0.29715(3) 0.29715(3) -0.5000
Ni1C_3 Ni 0.70285(3) 1.29715(3) -0.5000
Ni1C_4 Ni 0.70285(3) 1.29715(3) 0.5000
Ni1D_2 Ni -0.29715(3) 0.40570(4) -0.5000
Ni1D_3 Ni 0.70285(3) 0.40570(4) -0.5000
Ni1D_4 Ni 0.70285(3) 0.40570(4) 0.5000
Ni1E_2 Ni 0.59430(4) 0.29715(3) -0.5000
Ni1E_3 Ni 0.59430(4) 0.29715(3) 0.5000
Ni1E_4 Ni 0.59430(4) 1.29715(3) -0.5000
Ni1E_5 Ni 0.59430(4) 1.29715(3) 0.5000
O3D_2 O -0.33969(15) 0.41002(21) 0.4134(2)
O3E_2 O -0.41002(21) 0.25029(14) 0.4134(2)
O3F_2 O -0.33969(15) 0.25029(14) 0.5866(2)
O3G_2 O -0.41002(21) 0.33969(15) 0.5866(2)
O3H_2 O -0.25029(14) 0.41002(21) 0.5866(2)
O3I_2 O 0.33969(15) 0.74971(14) 0.5866(2)
O3J_2 O 0.41002(21) 0.66031(15) 0.5866(2)
O3K_2 O 0.25029(14) 0.58998(21) 0.5866(2)
O3L_2 O -0.25029(14) 0.33969(15) 0.5866(2)
O3M_2 O -0.33969(15) 0.41002(21) 0.5866(2)
O3N_2 O -0.41002(21) 0.25029(14) 0.5866(2)
O3O_2 O 0.25029(14) 0.66031(15) 0.5866(2)
O3P_2 O 0.33969(15) 0.58998(21) 0.5866(2)
O3Q_2 O 0.41002(21) 0.74971(14) 0.5866(2)
O3U_2 O -0.33969(15) 0.25029(14) 0.4134(2)
O3V_2 O -0.41002(21) 0.33969(15) 0.4134(2)
loop_
_geom_bond_atom_site_label_1
_geom_bond_atom_site_label_2
_geom_bond_site_symmetry_1
_geom_bond_site_symmetry_2
Ni1 O1 1_555 1_555
C1 N1 1_555 1_555
N1 Co1 1_555 1_555
Co1 N2 1_555 1_555
O2 Ni1 1_555 1_555
C2 N2 1_555 1_555
N2 C2C 1_555 1_555
O3 Ni1 1_555 1_555
C3 C1 1_555 1_555
C4 C2 1_555 1_555
H1 C4 1_555 1_555
C5 C1 1_555 1_555
H2 C5 1_555 1_555
O4 Co1 1_555 1_555
C6 H3 1_555 1_555
C7 C3 1_555 1_555
C8 C9 1_555 1_555
C9 O3 1_555 1_555
C10 C6 1_555 1_555
H4 C10 1_555 1_555
C1C N1C 1_555 1_555
N1C Co1 1_555 1_555
C2C C3C 1_555 1_555
O3C C9C 1_555 1_555
C3C C1C 1_555 1_555
C4C C4 1_555 1_555
H1C C4C 1_555 1_555
C5C C1C 1_555 1_555
H2C C5C 1_555 1_555
C6C H3C 1_555 1_555
C7C C3C 1_555 1_555
C8C C9C 1_555 1_555
C9C O3W 1_555 1_555
C10C C6C 1_555 1_555
H4C C10C 1_555 1_555
C1K N1 1_555 1_555
C2K N2H 1_555 1_555
N2H Co1 1_555 1_555
O3K C9K 1_555 1_555
C3K C1K 1_555 1_555
C4K C2K 1_555 1_555
H1K C4K 1_555 1_555
C5K C5 1_555 1_555
H2K C5K 1_555 1_555
C6K H3K 1_555 1_555
C7K C3K 1_555 1_555
C8K C9K 1_555 1_555
C9K O3O 1_555 1_555
C10K C6K 1_555 1_555
H4K C10K 1_555 1_555
O3O Ni1_2 1_555 1_555
C6O C7K 1_555 1_555
H3O C6O 1_555 1_555
C10O C8K 1_555 1_555
H4O C10O 1_555 1_555
O3T C9 1_555 1_555
C6T C7 1_555 1_555
H3T C6T 1_555 1_555
C10T C8 1_555 1_555
H4T C10T 1_555 1_555
O3W Ni1D 1_555 1_555
C6W C7C 1_555 1_555
H3W C6W 1_555 1_555
C10W C8C 1_555 1_555
H4W C10W 1_555 1_555
C1H N1C 1_555 1_555
C2H N2H 1_555 1_555
O3H C9H 1_555 1_555
C3H C1H 1_555 1_555
C4H C4K 1_555 1_555
H1H C4H 1_555 1_555
C5H C5C 1_555 1_555
H2H C5H 1_555 1_555
C6H H3H 1_555 1_555
C7H C3H 1_555 1_555
C8H C9H 1_555 1_555
C9H O3L 1_555 1_555
C10H C6H 1_555 1_555
H4H C10H 1_555 1_555
O3L Ni1C_2 1_555 1_555
C6L C7H 1_555 1_555
H3L C6L 1_555 1_555
C10L C8H 1_555 1_555
H4L C10L 1_555 1_555
Ni1A O2 1_555 1_555
O1A Ni1A 1_555 1_555
C1A N1A 1_555 1_555
N1A Co1A 1_555 1_555
Co1A N2A 1_555 1_555
C2A N2A 1_555 1_555
N2A C2D 1_555 1_555
O3A Ni1A 1_555 1_555
C3A C1A 1_555 1_555
C4A C2A 1_555 1_555
H1A C4A 1_555 1_555
C5A C1A 1_555 1_555
H2A C5A 1_555 1_555
O4A Co1A 1_555 1_555
C6A H3A 1_555 1_555
C7A C3A 1_555 1_555
C8A C9A 1_555 1_555
C9A O3A 1_555 1_555
C10A C6A 1_555 1_555
H4A C10A 1_555 1_555
C1D N1D 1_555 1_555
N1D Co1A 1_555 1_555
C2D C3D 1_555 1_555
O3D C9D 1_555 1_555
C3D C1D 1_555 1_555
C4D C4A 1_555 1_555
H1D C4D 1_555 1_555
C5D C1D 1_555 1_555
H2D C5D 1_555 1_555
C6D H3D 1_555 1_555
C7D C3D 1_555 1_555
C8D C9D 1_555 1_555
C9D O3V 1_555 1_555
C10D C6D 1_555 1_555
H4D C10D 1_555 1_555
C1J N1A 1_555 1_555
C2J N2G 1_555 1_555
N2G Co1A 1_555 1_555
O3J C9J 1_555 1_555
C3J C1J 1_555 1_555
C4J C2J 1_555 1_555
H1J C4J 1_555 1_555
C5J C5A 1_555 1_555
H2J C5J 1_555 1_555
C6J H3J 1_555 1_555
C7J C3J 1_555 1_555
C8J C9J 1_555 1_555
C9J O3P 1_555 1_555
C10J C6J 1_555 1_555
H4J C10J 1_555 1_555
O3P Ni1A_2 1_555 1_555
C6P C7J 1_555 1_555
H3P C6P 1_555 1_555
C10P C8J 1_555 1_555
H4P C10P 1_555 1_555
O3S C9A 1_555 1_555
C6S C7A 1_555 1_555
H3S C6S 1_555 1_555
C10S C8A 1_555 1_555
H4S C10S 1_555 1_555
O3V Ni1E_3 1_555 1_555
C6V C7D 1_555 1_555
H3V C6V 1_555 1_555
C10V C8D 1_555 1_555
H4V C10V 1_555 1_555
C1G N1D 1_555 1_555
C2G N2G 1_555 1_555
O3G C9G 1_555 1_555
C3G C1G 1_555 1_555
C4G C4J 1_555 1_555
H1G C4G 1_555 1_555
C5G C5D 1_555 1_555
H2G C5G 1_555 1_555
C6G H3G 1_555 1_555
C7G C3G 1_555 1_555
C8G C9G 1_555 1_555
C9G O3M 1_555 1_555
C10G C6G 1_555 1_555
H4G C10G 1_555 1_555
O3M Ni1D_3 1_555 1_555
C6M C7G 1_555 1_555
H3M C6M 1_555 1_555
C10M C8G 1_555 1_555
H4M C10M 1_555 1_555
Ni1B O2 1_555 1_555
O1B Ni1B 1_555 1_555
C1B N1B 1_555 1_555
N1B Co1B 1_555 1_555
Co1B N2B 1_555 1_555
C2B N2B 1_555 1_555
N2B C2E 1_555 1_555
O3B Ni1B 1_555 1_555
C3B C1B 1_555 1_555
C4B C2B 1_555 1_555
H1B C4B 1_555 1_555
C5B C1B 1_555 1_555
H2B C5B 1_555 1_555
O4B Co1B 1_555 1_555
C6B H3B 1_555 1_555
C7B C3B 1_555 1_555
C8B C9B 1_555 1_555
C9B O3B 1_555 1_555
C10B C6B 1_555 1_555
H4B C10B 1_555 1_555
C1E N1E 1_555 1_555
N1E Co1B 1_555 1_555
C2E C3E 1_555 1_555
O3E C9E 1_555 1_555
C3E C1E 1_555 1_555
C4E C4B 1_555 1_555
H1E C4E 1_555 1_555
C5E C1E 1_555 1_555
H2E C5E 1_555 1_555
C6E H3E 1_555 1_555
C7E C3E 1_555 1_555
C8E C9E 1_555 1_555
C9E O3U 1_555 1_555
C10E C6E 1_555 1_555
H4E C10E 1_555 1_555
C1I N1B 1_555 1_555
C2I N2F 1_555 1_555
N2F Co1B 1_555 1_555
O3I C9I 1_555 1_555
C3I C1I 1_555 1_555
C4I C2I 1_555 1_555
H1I C4I 1_555 1_555
C5I C5B 1_555 1_555
H2I C5I 1_555 1_555
C6I H3I 1_555 1_555
C7I C3I 1_555 1_555
C8I C9I 1_555 1_555
C9I O3Q 1_555 1_555
C10I C6I 1_555 1_555
H4I C10I 1_555 1_555
O3Q Ni1B_2 1_555 1_555
C6Q C7I 1_555 1_555
H3Q C6Q 1_555 1_555
C10Q C8I 1_555 1_555
H4Q C10Q 1_555 1_555
O3R Ni1 1_555 1_555
C6R C7B 1_555 1_555
H3R C6R 1_555 1_555
C10R C8B 1_555 1_555
H4R C10R 1_555 1_555
O3U Ni1C_4 1_555 1_555
C6U C7E 1_555 1_555
H3U C6U 1_555 1_555
C10U C8E 1_555 1_555
H4U C10U 1_555 1_555
C1F N1E 1_555 1_555
C2F N2F 1_555 1_555
O3F C9F 1_555 1_555
C3F C1F 1_555 1_555
C4F C4I 1_555 1_555
H1F C4F 1_555 1_555
C5F C5E 1_555 1_555
H2F C5F 1_555 1_555
C6F H3F 1_555 1_555
C7F C3F 1_555 1_555
C8F C9F 1_555 1_555
C9F O3N 1_555 1_555
C10F C6F 1_555 1_555
H4F C10F 1_555 1_555
O3N Ni1E_4 1_555 1_555
C6N C7F 1_555 1_555
H3N C6N 1_555 1_555
C10N C8F 1_555 1_555
H4N C10N 1_555 1_555
Ni1C O3C 1_555 1_555
O1C Ni1C 1_555 1_555
O2C Ni1C 1_555 1_555
O4C Co1 1_555 1_555
Ni1D O2C 1_555 1_555
O1D Ni1D 1_555 1_555
Ni1E O2C 1_555 1_555
O1E Ni1E 1_555 1_555
O4D Co1A 1_555 1_555
O4E Co1B 1_555 1_555
Ni1_2 O3I 1_555 1_555
Ni1A_2 O3K 1_555 1_555
Ni1B_2 O3J 1_555 1_555
Ni1C_3 O3F 1_555 1_555
Ni1D_2 O3H 1_555 1_555
Ni1D_4 O3D 1_555 1_555
Ni1E_2 O3G 1_555 1_555
Ni1E_5 O3E 1_555 1_555
O3D_2 Ni1D 1_555 1_555
O3E_2 Ni1E 1_555 1_555
O3F_2 Ni1C 1_555 1_555
O3G_2 Ni1E 1_555 1_555
O3H_2 Ni1D 1_555 1_555
O3I_2 Ni1 1_555 1_555
O3J_2 Ni1B 1_555 1_555
O3K_2 Ni1A 1_555 1_555
O3L_2 Ni1C 1_555 1_555
O3M_2 Ni1D 1_555 1_555
O3N_2 Ni1E 1_555 1_555
O3O_2 Ni1 1_555 1_555
O3P_2 Ni1A 1_555 1_555
O3Q_2 Ni1B 1_555 1_555
O3U_2 Ni1C 1_555 1_555
O3V_2 Ni1E 1_555 1_555
C2 C3 1_555 1_555
C6 C7 1_555 1_555
C8 C10 1_555 1_555
C2C C4C 1_555 1_555
C6C C7C 1_555 1_555
C8C C10C 1_555 1_555
C1K C5K 1_555 1_555
C2K C3K 1_555 1_555
C6K C7K 1_555 1_555
C8K C10K 1_555 1_555
C6O C10O 1_555 1_555
O3T Ni1A 1_555 1_555
C6T C10T 1_555 1_555
C6W C10W 1_555 1_555
C1H C5H 1_555 1_555
C2H C3H 1_555 1_555
C2H C4H 1_555 1_555
C6H C7H 1_555 1_555
C8H C10H 1_555 1_555
C6L C10L 1_555 1_555
C2A C3A 1_555 1_555
C6A C7A 1_555 1_555
C8A C10A 1_555 1_555
C2D C4D 1_555 1_555
C6D C7D 1_555 1_555
C8D C10D 1_555 1_555
C1J C5J 1_555 1_555
C2J C3J 1_555 1_555
C6J C7J 1_555 1_555
C8J C10J 1_555 1_555
C6P C10P 1_555 1_555
O3S Ni1B 1_555 1_555
C6S C10S 1_555 1_555
C6V C10V 1_555 1_555
C1G C5G 1_555 1_555
C2G C3G 1_555 1_555
C2G C4G 1_555 1_555
C6G C7G 1_555 1_555
C8G C10G 1_555 1_555
C6M C10M 1_555 1_555
C2B C3B 1_555 1_555
C6B C7B 1_555 1_555
C8B C10B 1_555 1_555
C9B O3R 1_555 1_555
C2E C4E 1_555 1_555
C6E C7E 1_555 1_555
C8E C10E 1_555 1_555
C1I C5I 1_555 1_555
C2I C3I 1_555 1_555
C6I C7I 1_555 1_555
C8I C10I 1_555 1_555
C6Q C10Q 1_555 1_555
C6R C10R 1_555 1_555
C6U C10U 1_555 1_555
C1F C5F 1_555 1_555
C2F C3F 1_555 1_555
C2F C4F 1_555 1_555
C6F C7F 1_555 1_555
C8F C10F 1_555 1_555
C6N C10N 1_555 1_555

#END
