
#######################################################################
#
#                 Cambridge Crystallographic Data Centre
#                                CCDC 
#
#######################################################################
#
# If this CIF has been generated from an entry in the Cambridge 
# Structural Database, then it will include bibliographic, chemical, 
# crystal, experimental, refinement or atomic coordinate data resulting 
# from the CCDC's data processing and validation procedures.
#
#######################################################################

data_BELJIL
_chemical_formula_moiety         '(C13 H19 Cu1 N2 O6)n'
_symmetry_cell_setting           rhombohedral
_symmetry_space_group_name_H-M   'R -3'
_symmetry_Int_Tables_number      148
_space_group_name_Hall           '-R 3'
loop_
_symmetry_equiv_pos_site_id
_symmetry_equiv_pos_as_xyz
1 x,y,z
2 1/3+x,2/3+y,2/3+z
3 2/3+x,1/3+y,1/3+z
4 -y,x-y,z
5 -x+y,-x,z
6 1/3-y,2/3+x-y,2/3+z
7 1/3-x+y,2/3-x,2/3+z
8 2/3-y,1/3+x-y,1/3+z
9 2/3-x+y,1/3-x,1/3+z
10 -x,-y,-z
11 2/3-x,1/3-y,1/3-z
12 1/3-x,2/3-y,2/3-z
13 y,-x+y,-z
14 x-y,x,-z
15 2/3+y,1/3-x+y,1/3-z
16 2/3+x-y,1/3+x,1/3-z
17 1/3+y,2/3-x+y,2/3-z
18 1/3+x-y,2/3+x,2/3-z
_cell_length_a                   25.640(2)
_cell_length_b                   25.640(2)
_cell_length_c                   13.326(2)
_cell_angle_alpha                90
_cell_angle_beta                 90
_cell_angle_gamma                120
_cell_volume                     7586.94
loop_
_atom_site_label
_atom_site_type_symbol
_atom_site_fract_x
_atom_site_fract_y
_atom_site_fract_z
Cu1 Cu -0.43230 0.03860 -0.73140
O1 O -0.40410 0.09180 -0.58060
O2 O -0.59350 0.01220 -0.32590
O3 O -0.53180 -0.08300 -0.20600
O4 O -0.44420 -0.07890 -0.17110
N1 N -0.57810 0.10841 -0.53020
N2 N -0.48450 0.01580 -0.30710
C1 C -0.56820 0.04930 -0.40160
C2 C -0.60130 0.06991 -0.45290
C3 C -0.66240 0.05211 -0.42120
C4 C -0.52120 0.12731 -0.56060
C5 C -0.48539 0.11011 -0.51850
C6 C -0.41770 0.13610 -0.55220
C7 C -0.50670 0.06870 -0.43360
C8 C -0.46680 0.05480 -0.38400
C9 C -0.44080 0.00590 -0.25400
C10 C -0.47260 -0.05740 -0.20680
C11 C -0.40580 0.05360 -0.17700
C12 C -0.36480 0.11740 -0.21890
C13 C -0.45050 0.05760 -0.10210
H1 H -0.65900 0.06801 -0.34800
H2 H -0.68700 0.00701 -0.42100
H3 H -0.68800 0.06801 -0.45700
H4 H -0.50400 0.15701 -0.62500
H5 H -0.39100 0.16200 -0.49300
H6 H -0.41000 0.16700 -0.61000
H7 H -0.42000 0.05000 -0.40000
H8 H -0.40700 0.00800 -0.30500
H9 H -0.38000 0.04100 -0.13400
H10 H -0.36800 0.11800 -0.29300
H11 H -0.32100 0.13300 -0.19800
H12 H -0.39300 0.12300 -0.17000
H13 H -0.47600 0.07300 -0.14100
H14 H -0.42800 0.08800 -0.04500
H15 H -0.47800 0.01700 -0.07400
N1Q N -0.35318 0.08857 -0.80313
Cu1P Cu -0.62807 0.13757 -0.60193
O2I O -0.40650 -0.01220 -0.67410
N2I N -0.51550 -0.01580 -0.69290
Cu1I Cu -0.56770 -0.03860 -0.26860
O3I O -0.46820 0.08300 -0.79400
O5 O -0.40210 0.21050 -0.85680
O6 O -0.42690 0.29690 -1.00060
loop_
_geom_bond_atom_site_label_1
_geom_bond_atom_site_label_2
_geom_bond_site_symmetry_1
_geom_bond_site_symmetry_2
Cu1 O1 1_555 1_555
O1 C6 1_555 1_555
O2 C1 1_555 1_555
O3 C10 1_555 1_555
O4 C10 1_555 1_555
N1 C2 1_555 1_555
N2 C8 1_555 1_555
C1 C2 1_555 1_555
C2 C3 1_555 1_555
C3 H1 1_555 1_555
C4 N1 1_555 1_555
C5 C4 1_555 1_555
C6 C5 1_555 1_555
C7 C1 1_555 1_555
C8 C7 1_555 1_555
C9 N2 1_555 1_555
C10 C9 1_555 1_555
C11 C9 1_555 1_555
C12 C11 1_555 1_555
C13 C11 1_555 1_555
H2 C3 1_555 1_555
H3 C3 1_555 1_555
H4 C4 1_555 1_555
H5 C6 1_555 1_555
H6 C6 1_555 1_555
H7 C8 1_555 1_555
H8 C9 1_555 1_555
H9 C11 1_555 1_555
H10 C12 1_555 1_555
H11 C12 1_555 1_555
H12 C12 1_555 1_555
H13 C13 1_555 1_555
H14 C13 1_555 1_555
H15 C13 1_555 1_555
N1Q Cu1 1_555 1_555
Cu1P N1 1_555 1_555
O2I Cu1 1_555 1_555
N2I Cu1 1_555 1_555
Cu1I O2 1_555 1_555
O3I Cu1 1_555 1_555
O3 Cu1I 1_555 1_555
N2 Cu1I 1_555 1_555
C5 C7 1_555 1_555

#END
