
#######################################################################
#
#                 Cambridge Crystallographic Data Centre
#                                CCDC 
#
#######################################################################
#
# If this CIF has been generated from an entry in the Cambridge 
# Structural Database, then it will include bibliographic, chemical, 
# crystal, experimental, refinement or atomic coordinate data resulting 
# from the CCDC's data processing and validation procedures.
#
#######################################################################

data_FODJAL
_chemical_formula_moiety         '(C21 H21 Co2 N9 O5)n'
_symmetry_cell_setting           monoclinic
_symmetry_space_group_name_H-M   'P 21/c'
_symmetry_Int_Tables_number      14
_space_group_name_Hall           '-P 2ybc'
loop_
_symmetry_equiv_pos_site_id
_symmetry_equiv_pos_as_xyz
1 x,y,z
2 -x,1/2+y,1/2-z
3 -x,-y,-z
4 x,1/2-y,1/2+z
_cell_length_a                   15.6644(13)
_cell_length_b                   9.5550(8)
_cell_length_c                   10.0249(8)
_cell_angle_alpha                90
_cell_angle_beta                 100.696(2)
_cell_angle_gamma                90
_cell_volume                     1474.39
loop_
_atom_site_label
_atom_site_type_symbol
_atom_site_fract_x
_atom_site_fract_y
_atom_site_fract_z
Co1 Co 0.91449(3) 0.08117(5) 0.85702(5)
N1 N 0.9596(2) 0.3503(4) 0.5505(3)
N2 N 1.0276(2) 0.3961(4) 0.6514(3)
N3 N 0.9610(2) 0.2171(4) 0.7329(3)
N4 N 1.0817(3) 0.3234(5) 0.8768(4)
H1 H 1.1214 0.3866 0.8877
H2 H 1.0775 0.2669 0.9420
O1 O 0.7921(2) 0.1352(4) 0.8646(3)
O2 O 0.79565(19) 0.0291(4) 0.6723(3)
C1 C 0.7539(3) 0.0864(5) 0.7508(5)
C2 C 0.6573(3) 0.0995(5) 0.7132(5)
C3 C 0.6132(3) 0.0319(6) 0.5986(5)
H3 H 0.6448 -0.0205 0.5465
C4 C 0.5238(3) 0.0394(7) 0.5589(6)
C5 C 0.4794(4) 0.1197(9) 0.6400(7)
H4 H 0.4192 0.1261 0.6176
C6 C 0.5231(4) 0.1908(10) 0.7542(7)
H5 H 0.4923 0.2468 0.8047
C7 C 0.6125(4) 0.1778(8) 0.7921(7)
H6 H 0.6417 0.2216 0.8702
C8 C 0.9234(3) 0.2470(4) 0.6032(4)
H7 H 0.8759 0.1980 0.5561
C9 C 1.0260(3) 0.3131(5) 0.7578(4)
O1B O 0.2079(2) -0.1352(4) 0.1354(3)
O2B O 0.20435(19) -0.0291(4) 0.3277(3)
C1B C 0.2461(3) -0.0864(5) 0.2492(5)
C2B C 0.3427(3) -0.0995(5) 0.2868(5)
C3B C 0.3868(3) -0.0319(6) 0.4014(5)
H3B H 0.3552 0.0205 0.4535
C4B C 0.4762(3) -0.0394(7) 0.4411(6)
C5B C 0.5206(4) -0.1197(9) 0.3600(7)
H4B H 0.5808 -0.1261 0.3824
C6B C 0.4769(4) -0.1908(10) 0.2458(7)
H5B H 0.5077 -0.2468 0.1953
C7B C 0.3875(4) -0.1778(8) 0.2079(7)
H6B H 0.3583 -0.2216 0.1298
Co1B Co 0.08551(3) -0.08117(5) 0.14298(5)
N1B N 0.0404(2) -0.3503(4) 0.4495(3)
N2B N -0.0276(2) -0.3961(4) 0.3486(3)
N3B N 0.0390(2) -0.2171(4) 0.2671(3)
N4B N -0.0817(3) -0.3234(5) 0.1232(4)
H1B H -0.1214 -0.3866 0.1123
H2B H -0.0775 -0.2669 0.0580
C8B C 0.0766(3) -0.2470(4) 0.3968(4)
H7B H 0.1241 -0.1980 0.4439
C9B C -0.0260(3) -0.3131(5) 0.2422(4)
Co1A Co 0.08551(3) -0.41883(5) 0.64298(5)
Co1A_2 Co 1.08551(3) 0.58117(5) 0.64298(5)
Co1C Co -0.08551(3) -0.58117(5) 0.35702(5)
Co1C_2 Co 0.91449(3) 0.41883(5) 0.35702(5)
N1A N 0.0404(2) -0.1497(4) -0.0505(3)
N1C N 0.9596(2) 0.1497(4) 1.0505(3)
N2A N 0.9724(2) -0.1039(4) 0.8486(3)
N2C N 0.0276(2) 0.1039(4) 0.1514(3)
N5 N 0.7438(5) 0.5873(6) 0.7264(6)
O3 O 0.7760(6) 0.7519(8) 0.8904(8)
C10 C 0.8104(10) 0.4947(13) 0.7963(15)
H8 H 0.8495 0.5465 0.8636
H9 H 0.8421 0.4550 0.7321
H10 H 0.7839 0.4211 0.8395
C11 C 0.6905(12) 0.5483(17) 0.6025(13)
H11 H 0.6587 0.6285 0.5624
H12 H 0.6505 0.4771 0.6190
H13 H 0.7260 0.5129 0.5417
C12 C 0.7371(6) 0.7134(9) 0.7830(9)
H14 H 0.6984 0.7766 0.7337
loop_
_geom_bond_atom_site_label_1
_geom_bond_atom_site_label_2
_geom_bond_site_symmetry_1
_geom_bond_site_symmetry_2
Co1 N3 1_555 1_555
N1 N2 1_555 1_555
N2 C9 1_555 1_555
N3 C8 1_555 1_555
N4 H1 1_555 1_555
H2 N4 1_555 1_555
O1 Co1 1_555 1_555
O2 Co1 1_555 1_555
C1 O1 1_555 1_555
C2 C1 1_555 1_555
C3 C2 1_555 1_555
H3 C3 1_555 1_555
C4 C3 1_555 1_555
C5 C4 1_555 1_555
H4 C5 1_555 1_555
C6 C5 1_555 1_555
H5 C6 1_555 1_555
C7 C2 1_555 1_555
H6 C7 1_555 1_555
C8 N1 1_555 1_555
H7 C8 1_555 1_555
C9 N3 1_555 1_555
N5 C10 1_555 1_555
O3 C12 1_555 1_555
C10 H8 1_555 1_555
H9 C10 1_555 1_555
H10 C10 1_555 1_555
C11 N5 1_555 1_555
H11 C11 1_555 1_555
H12 C11 1_555 1_555
H13 C11 1_555 1_555
C12 N5 1_555 1_555
H14 C12 1_555 1_555
O1B C1B 1_555 1_555
O2B C1B 1_555 1_555
C1B C2B 1_555 1_555
C2B C3B 1_555 1_555
C3B H3B 1_555 1_555
C4B C4 1_555 1_555
C5B C4B 1_555 1_555
H4B C5B 1_555 1_555
C6B C5B 1_555 1_555
H5B C6B 1_555 1_555
C7B C2B 1_555 1_555
H6B C7B 1_555 1_555
Co1B O1B 1_555 1_555
N1B N2B 1_555 1_555
N2B C9B 1_555 1_555
N3B Co1B 1_555 1_555
N4B H1B 1_555 1_555
H2B N4B 1_555 1_555
C8B N1B 1_555 1_555
H7B C8B 1_555 1_555
C9B N3B 1_555 1_555
Co1A N1B 1_555 1_555
Co1A_2 N2 1_555 1_555
Co1C N2B 1_555 1_555
Co1C_2 N1 1_555 1_555
N1A Co1B 1_555 1_555
N1C Co1 1_555 1_555
N2A Co1 1_555 1_555
N2C Co1B 1_555 1_555
N4 C9 1_555 1_555
O2 C1 1_555 1_555
C6 C7 1_555 1_555
O2B Co1B 1_555 1_555
C3B C4B 1_555 1_555
C6B C7B 1_555 1_555
N3B C8B 1_555 1_555
N4B C9B 1_555 1_555

#END
