
#######################################################################
#
#                 Cambridge Crystallographic Data Centre
#                                CCDC 
#
#######################################################################
#
# If this CIF has been generated from an entry in the Cambridge 
# Structural Database, then it will include bibliographic, chemical, 
# crystal, experimental, refinement or atomic coordinate data resulting 
# from the CCDC's data processing and validation procedures.
#
#######################################################################

data_ORAJEX
_chemical_formula_moiety         'C9 H7 Ho2 K4 N13 O9 Re4 S4 1+'
_symmetry_cell_setting           orthorhombic
_symmetry_space_group_name_H-M   'C m c m'
_symmetry_Int_Tables_number      63
_space_group_name_Hall           '-C 2c 2'
loop_
_symmetry_equiv_pos_site_id
_symmetry_equiv_pos_as_xyz
1 x,y,z
2 -x,-y,1/2+z
3 x,-y,-z
4 -x,y,1/2-z
5 1/2+x,1/2+y,z
6 1/2-x,1/2-y,1/2+z
7 1/2+x,1/2-y,-z
8 1/2-x,1/2+y,1/2-z
9 -x,-y,-z
10 x,y,1/2-z
11 -x,y,z
12 x,-y,1/2+z
13 1/2-x,1/2-y,-z
14 1/2+x,1/2+y,1/2-z
15 1/2-x,1/2+y,z
16 1/2+x,1/2-y,1/2+z
_cell_length_a                   14.3389(4)
_cell_length_b                   21.2398(6)
_cell_length_c                   20.8514(5)
_cell_angle_alpha                90
_cell_angle_beta                 90
_cell_angle_gamma                90
_cell_volume                     6350.41
loop_
_atom_site_label
_atom_site_type_symbol
_atom_site_fract_x
_atom_site_fract_y
_atom_site_fract_z
_atom_site_U_iso_or_equiv
_atom_site_thermal_displace_type
O2 O 0.3174(9) 0.5505(6) 0.2500 0.1397 Uani
O3 O 0.5000 0.4585(11) 0.3112(10) 0.1157 Uani
Re1 Re -0.096149(12) -0.361540(9) 0.441397(8) 0.0171 Uani
Re2 Re 0.0000 -0.306340(12) 0.540584(11) 0.0152 Uani
Re3 Re 0.0000 -0.251085(11) 0.421275(11) 0.0137 Uani
S1 S 0.0000 -0.41602(7) 0.51602(7) 0.0153 Uani
S2 S -0.13069(8) -0.26315(6) 0.48855(5) 0.0201 Uani
S3 S -0.0000 -0.33884(8) 0.35261(8) 0.0204 Uani
Ho1 Ho -0.23720(2) -0.358437(14) 0.7500 0.0156 Uani
N1 N -0.1470(3) -0.3426(2) 0.6526(2) 0.0287 Uani
C1 C -0.0000 -0.2223(4) 0.5938(4) 0.0313 Uani
C2 C -0.0956(3) -0.2131(2) 0.3558(2) 0.0197 Uani
N2 N 0.0000 -0.1772(4) 0.6239(4) 0.0570 Uani
C3 C -0.0000 -0.1576(4) 0.4512(3) 0.0323 Uani
C4 C -0.0958(3) -0.3310(2) 0.6127(2) 0.0233 Uani
K1 K -0.41534(19) -0.5000 0.5000 0.0256 Uani
O4 O -0.1808(4) -0.2550(2) 0.7500 0.0287 Uani
O5 O -0.1193(4) -0.4340(3) 0.7500 0.0347 Uani
N3 N -0.1475(3) -0.1915(2) 0.3202(2) 0.0280 Uani
O6 O -0.2996(3) -0.4362(2) 0.8196(2) 0.0473 Uani
C5 C -0.1120(4) -0.4488(3) 0.3947(3) 0.0333 Uani
C6 C -0.2086(4) -0.3406(3) 0.3802(3) 0.0323 Uani
N4 N -0.2687(4) -0.3297(3) 0.3461(3) 0.0540 Uani
C7 C -0.2076(4) -0.3972(3) 0.4966(3) 0.0343 Uani
N5 N -0.1189(4) -0.4941(3) 0.3657(3) 0.0577 Uani
N6 N -0.2679(4) -0.4179(4) 0.5252(3) 0.0750 Uani
N7 N -0.0000 -0.1056(4) 0.4639(4) 0.0933 Uani
O7 O -0.4122(8) -0.5450(6) 0.6055(6) 0.0783 Uani
Re1J Re 0.096149(12) -0.361540(9) 0.441397(8) 0.0171 Uani
S2J S 0.13069(8) -0.26315(6) 0.48855(5) 0.0201 Uani
Ho1E Ho -0.26280(2) -0.141563(14) 0.2500 0.0156 Uani
N1I N -0.1470(3) -0.3426(2) 0.8474(2) 0.0287 Uani
C2J C 0.0956(3) -0.2131(2) 0.3558(2) 0.0197 Uani
C4J C 0.0958(3) -0.3310(2) 0.6127(2) 0.0233 Uani
K1H K -0.58466(19) -0.5000 0.5000 0.0256 Uani
K1L K -0.08466(19) -0.0000 0.5000 0.0256 Uani
K1D K 0.08466(19) -0.0000 0.5000 0.0256 Uani
N3E N -0.3525(3) -0.3085(2) 0.8202(2) 0.0280 Uani
N3L N -0.3525(3) -0.3085(2) 0.6798(2) 0.0280 Uani
O6I O -0.2996(3) -0.4362(2) 0.6804(2) 0.0473 Uani
N6B N -0.2679(4) -0.5821(4) 0.4748(3) 0.0750 Uani
N7F N -0.5000 -0.3944(4) 0.5361(4) 0.0933 Uani
N7D N -0.5000 -0.6056(4) 0.4639(4) 0.0933 Uani
O7B O -0.4122(8) -0.4550(6) 0.3945(6) 0.0783 Uani
O1 O -0.0000 0.1169(6) 0.2500 0.0857 Uani
loop_
_atom_site_aniso_label
_atom_site_aniso_U_11
_atom_site_aniso_U_22
_atom_site_aniso_U_33
_atom_site_aniso_U_23
_atom_site_aniso_U_13
_atom_site_aniso_U_12
O2 0.146(7) 0.118(7) 0.155(7) 0.000 0.000 -0.005(6)
O3 0.109(9) 0.119(10) 0.119(9) 0.000(7) 0.000 0.000
Re1 0.01755 0.01808 0.01568 0.00218 -0.00334 -0.00412
Re2 0.01742 0.01742 0.01075 -0.00015 0 0
Re3 0.01421 0.01437 0.01243 0.00108 0 0
S1 0.015 0.0172 0.0136 -0.0026 0 0
S2 0.0157 0.0258 0.0187 0.005 0.0029 0.0022
S3 0.0269 0.0185 0.0157 -0.0008 0 0
Ho1 0.01626 0.01845 0.01206 0 0 0.00261
N1 0.032 0.031 0.023 0.0002 0.0084 0.0019
C1 0.046 0.022 0.026 0.002 0 0
C2 0.019 0.02 0.02 0.0007 0.0015 -0.0002
N2 0.084 0.042 0.045 -0.017 0 0
C3 0.054 0.024 0.019 0 0 0
C4 0.029 0.024 0.017 -0.0001 0 0.005
K1 0.0172 0.0106 0.0489 -0.0095 0 0
O4 0.039 0.023 0.024 0 0 -0.002
O5 0.038 0.035 0.031 0 0 0.017
N3 0.027 0.032 0.025 0.0038 -0.0044 0.0008
O6 0.051 0.037 0.054 0.017 0.017 -0.002
C5 0.046 0.026 0.028 0.002 -0.014 -0.007
C6 0.03 0.032 0.035 0.013 -0.011 -0.01
N4 0.042 0.062 0.058 0.023 -0.024 -0.019
C7 0.022 0.041 0.04 0.014 -0.005 -0.007
N5 0.09 0.034 0.049 -0.008 -0.018 -0.018
N6 0.029 0.099 0.097 0.051 0.011 -0.008
N7 0.216 0.018 0.046 -0.013 0 0
O7 0.1 0.063 0.072 -0.007 0.004 -0.007
Re1J 0.01755 0.01808 0.01568 0.00218 0.00334 0.00412
S2J 0.0157 0.0258 0.0187 0.005 -0.0029 -0.0022
Ho1E 0.01626 0.01845 0.01206 0 0 0.00261
N1I 0.032 0.031 0.023 -0.0002 -0.0084 0.0019
C2J 0.019 0.02 0.02 0.0007 -0.0015 0.0002
C4J 0.029 0.024 0.017 -0.0001 0 -0.005
K1H 0.0172 0.0106 0.0489 -0.0095 0 0
K1L 0.0172 0.0106 0.0489 -0.0095 0 0
K1D 0.0172(13) 0.0106(13) 0.0489(19) -0.0095(13) 0.000 0.000
N3E 0.027 0.032 0.025 -0.0038 0.0044 0.0008
N3L 0.027 0.032 0.025 0.0038 -0.0044 0.0008
O6I 0.051 0.037 0.054 -0.017 -0.017 -0.002
N6B 0.029 0.099 0.097 0.051 -0.011 0.008
N7F 0.216 0.018 0.046 -0.013 0 0
N7D 0.216 0.018 0.046 -0.013 0 0
O7B 0.1 0.063 0.072 -0.007 -0.004 0.007
O1 0.118(7) 0.075(6) 0.064(6) 0.000 0.000 0.000
loop_
_geom_bond_atom_site_label_1
_geom_bond_atom_site_label_2
_geom_bond_site_symmetry_1
_geom_bond_site_symmetry_2
Re1 Re2 1_555 1_555
Re2 Re3 1_555 1_555
Re3 Re1 1_555 1_555
S1 Re1 1_555 1_555
S2 Re1 1_555 1_555
S3 Re1 1_555 1_555
Ho1 N1 1_555 1_555
N1 C4 1_555 1_555
C1 Re2 1_555 1_555
C2 Re3 1_555 1_555
N2 C1 1_555 1_555
C3 Re3 1_555 1_555
C4 Re2 1_555 1_555
K1 N6 1_555 1_555
O4 Ho1 1_555 1_555
O5 Ho1 1_555 1_555
N3 C2 1_555 1_555
O6 Ho1 1_555 1_555
C5 Re1 1_555 1_555
C6 Re1 1_555 1_555
N4 C6 1_555 1_555
C7 Re1 1_555 1_555
N5 C5 1_555 1_555
N6 C7 1_555 1_555
N7 C3 1_555 1_555
O7 K1 1_555 1_555
Re1J Re1 1_555 1_555
S2J Re2 1_555 1_555
Ho1E N3 1_555 1_555
N1I Ho1 1_555 1_555
C2J Re3 1_555 1_555
C4J Re2 1_555 1_555
K1H K1 1_555 1_555
K1L N7 1_555 1_555
K1D N7 1_555 1_555
N3E Ho1 1_555 1_555
N3L Ho1 1_555 1_555
O6I Ho1 1_555 1_555
N6B K1 1_555 1_555
N7F K1 1_555 1_555
N7D K1 1_555 1_555
O7B K1 1_555 1_555
Re2 S1 1_555 1_555
Re2 S2 1_555 1_555
Re2 Re1J 1_555 1_555
Re3 S2 1_555 1_555
Re3 S3 1_555 1_555
Re3 Re1J 1_555 1_555
Re3 S2J 1_555 1_555
S1 Re1J 1_555 1_555
S3 Re1J 1_555 1_555
Re1J S2J 1_555 1_555
K1H N7F 1_555 1_555
K1H N7D 1_555 1_555
K1L K1D 1_555 1_555

#END
