
#######################################################################
#
#                 Cambridge Crystallographic Data Centre
#                                CCDC 
#
#######################################################################
#
# If this CIF has been generated from an entry in the Cambridge 
# Structural Database, then it will include bibliographic, chemical, 
# crystal, experimental, refinement or atomic coordinate data resulting 
# from the CCDC's data processing and validation procedures.
#
#######################################################################

data_AVUCEA
_chemical_formula_moiety         '(C30 H53 Co2 N1 O21)n'
_symmetry_cell_setting           rhombohedral
_symmetry_space_group_name_H-M   'R -3'
_symmetry_Int_Tables_number      148
_space_group_name_Hall           '-R 3'
loop_
_symmetry_equiv_pos_site_id
_symmetry_equiv_pos_as_xyz
1 x,y,z
2 -y,x-y,z
3 -x+y,-x,z
4 2/3+x,1/3+y,1/3+z
5 2/3-y,1/3+x-y,1/3+z
6 2/3-x+y,1/3-x,1/3+z
7 1/3+x,2/3+y,2/3+z
8 1/3-y,2/3+x-y,2/3+z
9 1/3-x+y,2/3-x,2/3+z
10 -x,-y,-z
11 y,-x+y,-z
12 x-y,x,-z
13 1/3-x,2/3-y,2/3-z
14 1/3+y,2/3-x+y,2/3-z
15 1/3+x-y,2/3+x,2/3-z
16 2/3-x,1/3-y,1/3-z
17 2/3+y,1/3-x+y,1/3-z
18 2/3+x-y,1/3+x,1/3-z
_cell_length_a                   32.8195(15)
_cell_length_b                   32.8195(15)
_cell_length_c                   19.0793(11)
_cell_angle_alpha                90
_cell_angle_beta                 90
_cell_angle_gamma                120
_cell_volume                     17797.4
loop_
_atom_site_label
_atom_site_type_symbol
_atom_site_fract_x
_atom_site_fract_y
_atom_site_fract_z
_atom_site_U_iso_or_equiv
_atom_site_thermal_displace_type
Co1 Co 0.518476(19) 0.048720(19) 0.19288(3) 0.0267 Uani
Co2 Co 0.482620(17) 0.021700(18) -0.32575(2) 0.0243 Uani
O1 O 0.51989(12) 0.07242(11) 0.09391(15) 0.0393 Uani
O2 O 0.5441(3) 0.14782(18) 0.1113(2) 0.1264 Uani
O3 O 0.51187(11) 0.01809(10) -0.15294(15) 0.0353 Uani
O4 O 0.49325(12) 0.05620(11) -0.23340(14) 0.0358 Uani
O5 O 0.5925(4) 0.25651(18) -0.0834(3) 0.1497 Uani
O6 O 0.5705(2) 0.23037(16) -0.1909(2) 0.0799 Uani
O7 O 0.58291(10) 0.05366(12) 0.19872(15) 0.0366 Uani
O8 O 0.58650(9) 0.02792(11) 0.30629(14) 0.0323 Uani
O9 O 0.79429(10) 0.13876(11) 0.10284(14) 0.0326 Uani
O10 O 0.72730(10) 0.12047(11) 0.05309(14) 0.0354 Uani
O11 O 0.54842(17) 0.11914(13) 0.23245(19) 0.0582 Uani
O12 O 0.55159(12) 0.07171(14) -0.35609(18) 0.0524 Uani
C1 C 0.53270(17) 0.12075(16) -0.0045(2) 0.0361 Uani
C2 C 0.51966(15) 0.08399(15) -0.0514(2) 0.0315 Uani
C3 C 0.52099(14) 0.09190(14) -0.1233(2) 0.0292 Uani
C4 C 0.53666(17) 0.13729(16) -0.1481(2) 0.0353 Uani
C5 C 0.55174(19) 0.17495(16) -0.1019(2) 0.0412 Uani
C6 C 0.5490(2) 0.16630(17) -0.0303(2) 0.0441 Uani
C7 C 0.5320(2) 0.11314(17) 0.0734(2) 0.0457 Uani
C8 C 0.5732(2) 0.22474(18) -0.1273(3) 0.0537 Uani
C9 C 0.50750(14) 0.05207(14) -0.1741(2) 0.0289 Uani
C10 C 0.65729(13) 0.07728(14) 0.2481(2) 0.0285 Uani
C11 C 0.67923(14) 0.09110(15) 0.1829(2) 0.0296 Uani
C12 C 0.72810(14) 0.11330(14) 0.1777(2) 0.0300 Uani
C13 C 0.75514(14) 0.12596(15) 0.2386(2) 0.0305 Uani
C14 C 0.73350(13) 0.11440(14) 0.3041(2) 0.0279 Uani
C15 C 0.68436(13) 0.08820(14) 0.30797(19) 0.0284 Uani
C16 C 0.60425(14) 0.05087(14) 0.25166(19) 0.0285 Uani
C17 C 0.75101(14) 0.12488(14) 0.10747(19) 0.0286 Uani
C18 C 0.5920(2) 0.1057(3) -0.3164(4) 0.0757 Uani
H1 H 0.5812 0.1156 -0.2759 0.0910 Uiso
H2 H 0.6107 0.1332 -0.3453 0.0910 Uiso
C19 C 0.6209(4) 0.0868(5) -0.2933(8) 0.1712 Uani
H3 H 0.6442 0.0926 -0.3283 0.2050 Uiso
H4 H 0.6361 0.1016 -0.2501 0.2050 Uiso
H5 H 0.6016 0.0535 -0.2861 0.2050 Uiso
C20 C 0.5881(5) 0.1455(4) 0.2723(8) 0.1774 Uani
H6 H 0.6156 0.1533 0.2441 0.2120 Uiso
H7 H 0.5879 0.1266 0.3115 0.2120 Uiso
C21 C 0.5917(10) 0.1883(8) 0.2986(16) 0.4111 Uani
H8 H 0.6083 0.2132 0.2653 0.4920 Uiso
H9 H 0.6086 0.1966 0.3423 0.4920 Uiso
H10 H 0.5608 0.1838 0.3059 0.4920 Uiso
H11 H 0.5089(16) 0.0515(17) -0.028(3) 0.0300 Uiso
H12 H 0.5389(18) 0.1418(18) -0.191(3) 0.0360 Uiso
H13 H 0.558(2) 0.191(2) 0.005(4) 0.0670 Uiso
H14 H 0.6609(16) 0.0847(16) 0.142(3) 0.0280 Uiso
H15 H 0.7883(15) 0.1428(14) 0.235(2) 0.0160 Uiso
H16 H 0.6697(15) 0.0798(15) 0.353(2) 0.0200 Uiso
C22 C 0.76162(14) 0.13270(15) 0.3698(2) 0.0319 Uani
O13 O 0.74264(11) 0.11965(13) 0.42803(15) 0.0462 Uani
O14 O 0.80436(9) 0.16559(11) 0.36552(14) 0.0326 Uani
Co1I Co 0.481524(19) -0.048720(19) -0.19288(3) 0.0267 Uani
Co1N Co 0.803089(27) 0.185143(19) 0.47379(3) 0.0267 Uani
Co2I Co 0.517380(17) -0.021700(18) 0.32575(2) 0.0243 Uani
Co2N Co 0.794253(25) 0.149287(17) -0.00758(2) 0.0243 Uani
Co2H Co 0.872413(25) 0.184047(17) 0.34092(2) 0.0243 Uani
O3I O 0.48813(11) -0.01809(10) 0.15294(15) 0.0353 Uani
O8I O 0.41350(9) -0.02792(11) -0.30629(14) 0.0323 Uani
O9M O 0.47209(11) 0.01114(15) -0.43617(14) 0.0326 Uani
O10M O 0.45380(11) 0.05984(15) -0.38642(14) 0.0354 Uani
O13M O 0.45298(13) 0.04368(17) 0.23864(15) 0.0462 Uani
O14M O 0.49892(11) 0.02790(14) 0.30115(14) 0.0326 Uani
O14D O 0.50108(11) -0.02790(14) -0.30115(14) 0.0326 Uani
O15 O 0.5734(2) 0.07470(19) 0.5092(3) 0.0969 Uani
C23 C 0.6158(11) 0.0983(7) 0.4793(11) 0.3874 Uani
H17 H 0.6382 0.0968 0.5109 0.4610 Uiso
H18 H 0.6150 0.0813 0.4372 0.4610 Uiso
C24 C 0.6286(13) 0.1319(13) 0.4662(17) 0.3778 Uani
H19 H 0.6179 0.1337 0.4201 0.4570 Uiso
H20 H 0.6624 0.1478 0.4666 0.4570 Uiso
H21 H 0.6179 0.1466 0.4992 0.4570 Uiso
O16 O 0.1153(14) 0.1428(15) 0.7479(18) 0.5220 Uiso
O17 O 0.5847(5) 0.3310(5) 0.0133(7) 0.2080 Uiso
O18 O 0.3333 0.6667 0.0115(5) 0.0740 Uiso
O19 O 0.29074(6) 0.61736(6) 0.07971(9) 0.0000 Uiso
O20 O 0.3333 0.6667 0.1667 0.0710 Uiso
O21 O 0.6154(11) 0.2454(11) 0.1192(17) 0.4620 Uiso
N1 N 0.3917(3) 0.0819(2) 0.6860(4) 0.0891 Uani
C25 C 0.3592(6) 0.0881(7) 0.6377(8) 0.1818 Uani
H22 H 0.3401 0.0973 0.6648 0.2200 Uiso
H23 H 0.3776 0.1131 0.6047 0.2200 Uiso
C26 C 0.3282(5) 0.0446(9) 0.5988(10) 0.2276 Uani
H24 H 0.3426 0.0448 0.5549 0.2720 Uiso
H25 H 0.2985 0.0429 0.5901 0.2720 Uiso
H26 H 0.3231 0.0179 0.6259 0.2720 Uiso
C27 C 0.3691(4) 0.0440(4) 0.7357(5) 0.1141 Uani
H27 H 0.3931 0.0438 0.7654 0.1370 Uiso
H28 H 0.3538 0.0144 0.7103 0.1370 Uiso
C28 C 0.3326(7) 0.0466(7) 0.7825(7) 0.2159 Uani
H29 H 0.3476 0.0641 0.8241 0.2570 Uiso
H30 H 0.3086 0.0154 0.7951 0.2570 Uiso
H31 H 0.3187 0.0620 0.7575 0.2570 Uiso
C29 C 0.4245(9) 0.1248(7) 0.7275(16) 0.3289 Uani
H32 H 0.4096 0.1439 0.7307 0.3960 Uiso
H33 H 0.4250 0.1141 0.7747 0.3960 Uiso
C30 C 0.4645(7) 0.1509(7) 0.7118(16) 0.3271 Uani
H34 H 0.4840 0.1396 0.7313 0.3930 Uiso
H35 H 0.4743 0.1817 0.7296 0.3930 Uiso
H36 H 0.4674 0.1522 0.6616 0.3930 Uiso
loop_
_atom_site_aniso_label
_atom_site_aniso_U_11
_atom_site_aniso_U_22
_atom_site_aniso_U_33
_atom_site_aniso_U_23
_atom_site_aniso_U_13
_atom_site_aniso_U_12
Co1 0.0321(3) 0.0347(3) 0.0159(3) 0.00057(19) 0.00025(19) 0.0187(2)
Co2 0.0251 0.0345 0.0148 0.00274 0.00034 0.0161
O1 0.059(2) 0.0391(16) 0.0213(14) 0.0028(12) -0.0011(13) 0.0257(15)
O2 0.297(10) 0.059(3) 0.030(2) -0.0071(19) -0.010(4) 0.094(5)
O3 0.0426(16) 0.0339(15) 0.0285(15) -0.0040(12) -0.0068(12) 0.0184(13)
O4 0.0507(18) 0.0408(16) 0.0186(13) -0.0040(11) -0.0052(12) 0.0249(14)
O5 0.283(10) 0.039(3) 0.097(4) -0.013(3) -0.081(6) 0.058(4)
O6 0.151(5) 0.055(2) 0.041(2) 0.0181(18) 0.023(3) 0.057(3)
O7 0.0269(14) 0.0553(19) 0.0238(14) 0.0056(13) 0.0005(11) 0.0178(13)
O8 0.0231(13) 0.0447(16) 0.0228(13) 0.0061(12) 0.0036(10) 0.0122(12)
O9 0.0263(14) 0.0417(16) 0.0188(13) -0.0012(11) 0.0041(10) 0.0087(12)
O10 0.0328(15) 0.0485(17) 0.0187(13) 0.0014(12) 0.0023(11) 0.0156(13)
O11 0.092(3) 0.0437(19) 0.0364(19) -0.0111(15) -0.0143(19) 0.032(2)
O12 0.0297 0.067 0.0373 0.0036 0.0019 0.0067
C1 0.054(3) 0.039(2) 0.0190(18) 0.0023(16) 0.0004(17) 0.026(2)
C2 0.040(2) 0.035(2) 0.0209(18) 0.0020(15) -0.0002(15) 0.0197(18)
C3 0.0321(19) 0.0308(19) 0.0216(18) -0.0013(14) -0.0013(14) 0.0133(16)
C4 0.047(2) 0.041(2) 0.022(2) 0.0059(17) 0.0039(17) 0.025(2)
C5 0.063(3) 0.037(2) 0.029(2) 0.0013(17) 0.002(2) 0.029(2)
C6 0.075(3) 0.036(2) 0.027(2) -0.0034(18) -0.005(2) 0.032(2)
C7 0.079(4) 0.041(2) 0.021(2) -0.0015(17) -0.001(2) 0.033(3)
C8 0.079(4) 0.036(2) 0.045(3) -0.001(2) 0.002(3) 0.028(3)
C9 0.0317(19) 0.0291(18) 0.0227(18) 0.0003(14) -0.0002(14) 0.0127(16)
C10 0.0253(18) 0.035(2) 0.0230(18) 0.0023(15) 0.0032(14) 0.0135(16)
C11 0.0254(18) 0.038(2) 0.0180(17) -0.0016(15) -0.0009(14) 0.0102(16)
C12 0.0279(18) 0.0329(19) 0.0207(18) -0.0025(14) 0.0026(14) 0.0088(16)
C13 0.0225(18) 0.037(2) 0.0232(18) -0.0024(15) -0.0004(14) 0.0082(16)
C14 0.0242(17) 0.0324(19) 0.0205(17) -0.0041(14) -0.0003(14) 0.0092(15)
C15 0.0269(18) 0.035(2) 0.0172(17) 0.0011(14) 0.0050(14) 0.0110(16)
C16 0.0268(18) 0.039(2) 0.0191(17) -0.0031(15) -0.0010(14) 0.0161(16)
C17 0.0283(18) 0.0305(18) 0.0198(17) -0.0011(14) 0.0020(14) 0.0094(15)
C18 0.049 0.085 0.071 -0.016 0.002 0.017
C19 0.128 0.118 0.243 -0.019 -0.122 0.043
C20 0.214(14) 0.095(7) 0.231(16) -0.104(9) -0.161(13) 0.083(9)
C21 0.47(4) 0.30(3) 0.62(5) -0.37(3) -0.44(4) 0.31(3)
C22 0.0319(19) 0.039(2) 0.0208(18) -0.0036(15) -0.0006(15) 0.0147(17)
O13 0.0346(16) 0.065(2) 0.0175(14) 0.0032(14) 0.0006(12) 0.0088(15)
O14 0.0249(13) 0.0400(16) 0.0216(13) -0.0057(11) -0.0007(10) 0.0078(12)
Co1I 0.0321 0.0347 0.0159 0.00057 0.00025 0.0187
Co1N 0.0294 0.0321 0.0159 -0.00025 0.00032 0.0134
Co2I 0.0251(3) 0.0345(3) 0.0148(3) 0.00274(18) 0.00034(17) 0.0161(2)
Co2N 0.0274 0.0251 0.0148 -0.00034 0.0024 0.009
Co2H 0.0274 0.0251 0.0148 -0.00034 0.0024 0.009
O3I 0.0426 0.0339 0.0285 -0.004 -0.0068 0.0184
O8I 0.0231 0.0447 0.0228 0.0061 0.0036 0.0122
O9M 0.0417 0.0506 0.0188 0.0053 0.0012 0.033
O10M 0.0485 0.0501 0.0187 0.0009 -0.0014 0.0329
O13M 0.065 0.082 0.0175 -0.0026 -0.0032 0.0562
O14M 0.04 0.0493 0.0216 0.005 0.0057 0.0322
O14D 0.04 0.0493 0.0216 0.005 0.0057 0.0322
O15 0.093(4) 0.077(3) 0.056(3) -0.009(2) 0.029(3) -0.006(3)
C23 0.41(4) 0.160(16) 0.189(17) -0.101(14) 0.23(2) -0.16(2)
C24 0.29(4) 0.39(6) 0.36(5) 0.00(4) 0.09(3) 0.10(4)
N1 0.129(6) 0.078(4) 0.090(5) 0.005(3) 0.035(4) 0.074(4)
C25 0.258(18) 0.30(2) 0.148(11) 0.144(13) 0.132(12) 0.260(19)
C26 0.095(10) 0.39(3) 0.164(16) 0.014(19) 0.029(10) 0.096(15)
C27 0.191(11) 0.139(8) 0.085(6) 0.048(6) 0.063(7) 0.137(9)
C28 0.36(2) 0.30(2) 0.141(11) 0.106(13) 0.159(14) 0.28(2)
C29 0.26(3) 0.165(17) 0.48(4) -0.20(2) 0.11(3) 0.045(17)
C30 0.24(2) 0.178(16) 0.66(5) -0.26(3) -0.30(3) 0.177(17)
loop_
_geom_bond_atom_site_label_1
_geom_bond_atom_site_label_2
_geom_bond_site_symmetry_1
_geom_bond_site_symmetry_2
Co1 O1 1_555 1_555
Co2 O4 1_555 1_555
O1 C7 1_555 1_555
O2 C7 1_555 1_555
O3 C9 1_555 1_555
O4 C9 1_555 1_555
O5 C8 1_555 1_555
O6 C8 1_555 1_555
O7 Co1 1_555 1_555
O8 C16 1_555 1_555
O9 C17 1_555 1_555
O10 C17 1_555 1_555
O11 Co1 1_555 1_555
O12 Co2 1_555 1_555
C1 C2 1_555 1_555
C2 C3 1_555 1_555
C3 C4 1_555 1_555
C4 C5 1_555 1_555
C5 C6 1_555 1_555
C6 C1 1_555 1_555
C7 C1 1_555 1_555
C8 C5 1_555 1_555
C9 C3 1_555 1_555
C10 C11 1_555 1_555
C11 C12 1_555 1_555
C12 C13 1_555 1_555
C13 C14 1_555 1_555
C14 C15 1_555 1_555
C15 C10 1_555 1_555
C16 O7 1_555 1_555
C17 C12 1_555 1_555
C18 O12 1_555 1_555
H1 C18 1_555 1_555
H2 C18 1_555 1_555
C19 C18 1_555 1_555
H3 C19 1_555 1_555
H4 C19 1_555 1_555
H5 C19 1_555 1_555
C20 O11 1_555 1_555
H6 C20 1_555 1_555
H7 C20 1_555 1_555
C21 C20 1_555 1_555
H8 C21 1_555 1_555
H9 C21 1_555 1_555
H10 C21 1_555 1_555
H11 C2 1_555 1_555
H12 C4 1_555 1_555
H13 C6 1_555 1_555
H14 C11 1_555 1_555
H15 C13 1_555 1_555
H16 C15 1_555 1_555
C22 C14 1_555 1_555
O13 C22 1_555 1_555
O14 C22 1_555 1_555
O15 C23 1_555 1_555
C23 H17 1_555 1_555
H18 C23 1_555 1_555
C24 C23 1_555 1_555
H19 C24 1_555 1_555
H20 C24 1_555 1_555
H21 C24 1_555 1_555
N1 C25 1_555 1_555
C25 H22 1_555 1_555
H23 C25 1_555 1_555
C26 C25 1_555 1_555
H24 C26 1_555 1_555
H25 C26 1_555 1_555
H26 C26 1_555 1_555
C27 N1 1_555 1_555
H27 C27 1_555 1_555
H28 C27 1_555 1_555
C28 C27 1_555 1_555
H29 C28 1_555 1_555
H30 C28 1_555 1_555
H31 C28 1_555 1_555
C29 N1 1_555 1_555
H32 C29 1_555 1_555
H33 C29 1_555 1_555
C30 C29 1_555 1_555
H34 C30 1_555 1_555
H35 C30 1_555 1_555
H36 C30 1_555 1_555
Co1I O3 1_555 1_555
Co1N O13 1_555 1_555
Co2I O8 1_555 1_555
Co2N O9 1_555 1_555
Co2H O14 1_555 1_555
O3I Co1 1_555 1_555
O8I Co2 1_555 1_555
O9M Co2 1_555 1_555
O10M Co2 1_555 1_555
O13M Co1 1_555 1_555
O14M Co1 1_555 1_555
O14D Co2 1_555 1_555
O10 Co2N 1_555 1_555
C10 C16 1_555 1_555
O14 Co1N 1_555 1_555
Co1I O14D 1_555 1_555
Co2I O14M 1_555 1_555

#END
