
#######################################################################
#
#                 Cambridge Crystallographic Data Centre
#                                CCDC 
#
#######################################################################
#
# If this CIF has been generated from an entry in the Cambridge 
# Structural Database, then it will include bibliographic, chemical, 
# crystal, experimental, refinement or atomic coordinate data resulting 
# from the CCDC's data processing and validation procedures.
#
#######################################################################

data_RONSOC
_chemical_formula_moiety         '(C3 H26 Fe4 N2 O28 P5 2-)n'
_symmetry_cell_setting           tetragonal
_symmetry_space_group_name_H-M   'I 41/a'
_symmetry_Int_Tables_number      88
_space_group_name_Hall           '-I 4ad'
loop_
_symmetry_equiv_pos_site_id
_symmetry_equiv_pos_as_xyz
1 x,y,z
2 3/4-y,1/4+x,1/4+z
3 1/2-x,-y,1/2+z
4 3/4+y,3/4-x,3/4+z
5 1/2+x,1/2+y,1/2+z
6 1/4-y,3/4+x,3/4+z
7 -x,1/2-y,z
8 1/4+y,1/4-x,1/4+z
9 -x,-y,-z
10 1/4+y,3/4-x,3/4-z
11 1/2+x,y,1/2-z
12 1/4-y,1/4+x,1/4-z
13 1/2-x,1/2-y,1/2-z
14 3/4+y,1/4-x,1/4-z
15 x,1/2+y,-z
16 3/4-y,3/4+x,3/4-z
_cell_length_a                   15.4017(3)
_cell_length_b                   15.4017(3)
_cell_length_c                   28.9421(4)
_cell_angle_alpha                90
_cell_angle_beta                 90
_cell_angle_gamma                90
_cell_volume                     6865.42
loop_
_atom_site_label
_atom_site_type_symbol
_atom_site_fract_x
_atom_site_fract_y
_atom_site_fract_z
Fe1 Fe 0.40230(5) 0.81872(5) 0.05054(3)
Fe2 Fe 0.49206(5) 1.04938(5) 0.04689(3)
P1 P 0.32226(9) 0.98011(10) -0.00163(5)
P2 P 0.29420(9) 0.67686(9) 0.11051(5)
P3 P 0.50000 0.75000 -0.03881
O1 O 0.36765(26) 1.04405(25) 0.03193(14)
O2 O 0.38053(25) 0.96567(26) -0.04412(13)
O3 O 0.30686(24) 0.89348(25) 0.02391(12)
O4 O 0.23569(26) 1.01878(28) -0.01743(14)
O5 O 0.32034(26) 0.72477(26) 0.06682(13)
O6 O 0.23578(27) 0.73578(26) 0.13918(13)
O7 O 0.23811(27) 0.59634(27) 0.09629(14)
O8 O 0.37141(26) 0.64397(26) 0.13817(13)
O9 O 0.51073(26) 0.83023(25) -0.06973(12)
O10 O 0.41794(25) 0.75912(25) -0.00937(13)
O11 O 0.49205(25) 0.91536(24) 0.02439(13)
O12 O 0.50000 0.75000 0.07545(20)
O9F O 0.48927(26) 0.66977(25) -0.06973(12)
O10F O 0.58206(25) 0.74088(25) -0.00937(13)
P2M P 0.42686(9) 0.95580(9) 0.13949(5)
O5M O 0.47477(26) 0.92966(26) 0.18318(13)
O6M O 0.48578(26) 1.01422(27) 0.11082(13)
O7M O 0.34634(27) 1.01189(27) 0.15371(14)
O8M O 0.39397(26) 0.87859(26) 0.11183(13)
Fe1M Fe 0.56872(5) 0.84770(5) 0.19946(3)
Fe2H Fe 0.50794(5) 0.95062(5) -0.04689(3)
P1H P 0.67774(9) 1.01989(10) 0.00163(5)
O1H O 0.63235(26) 0.95595(25) -0.03193(14)
O2H O 0.61947(25) 1.03433(26) 0.04412(13)
O3H O 0.69314(24) 1.10652(25) -0.02391(12)
O4H O 0.76431(26) 0.98122(28) 0.01743(14)
O11H O 0.50795(25) 1.08464(24) -0.02439(13)
O9H O 0.48927(26) 1.16977(25) 0.06973(12)
Fe2K Fe 0.20062(5) 0.74206(5) 0.20311(3)
Fe1K Fe 0.43128(5) 0.65230(5) 0.19946(3)
Fe1F Fe 0.59770(5) 0.68128(5) 0.05054(3)
Fe2N Fe 0.49206(5) 0.54938(5) -0.04689(3)
O3M O 0.64348(25) 0.94314(24) 0.22609(12)
O8F O 0.62859(26) 0.85603(26) 0.13817(13)
O10M O 0.50912(25) 0.83206(25) 0.25937(13)
O11M O 0.66536(24) 0.75795(25) 0.22561(13)
O12K O 0.50000 0.75000 0.17455(20)
O6E O 0.51422(26) 0.98578(27) -0.11082(13)
Fe1H Fe 0.59770(5) 1.18128(5) -0.05054(3)
N1 N 0.66209(46) 0.05053(41) 0.14363(22)
N2 N 0.72923(76) 0.30386(65) 0.05249(58)
C1 C 0.7157(14) 0.1236(12) 0.14918(50)
C2 C 0.7244(11) 0.17796(75) 0.10363(47)
C3 C 0.7175(10) 0.2718(14) 0.10482(66)
O13 O 0.92178(97) 0.76403(94) 0.07672(50)
O14 O 0.1490(15) 0.2936(14) -0.00290(77)
O15 O 0.0773(18) 0.4166(19) 0.02859(92)
O16 O 0.9324(26) 0.4386(25) -0.0146(14)
loop_
_geom_bond_atom_site_label_1
_geom_bond_atom_site_label_2
_geom_bond_site_symmetry_1
_geom_bond_site_symmetry_2
Fe1 O3 1_555 1_555
Fe2 O1 1_555 1_555
P1 O1 1_555 1_555
P2 O5 1_555 1_555
P3 O9 1_555 1_555
O2 P1 1_555 1_555
O3 P1 1_555 1_555
O4 P1 1_555 1_555
O5 Fe1 1_555 1_555
O6 P2 1_555 1_555
O7 P2 1_555 1_555
O8 P2 1_555 1_555
O9 Fe2H 1_555 1_555
O10 Fe1 1_555 1_555
O11 Fe1 1_555 1_555
O12 Fe1 1_555 1_555
N1 C1 1_555 1_555
N2 C3 1_555 1_555
C1 C2 1_555 1_555
C2 C3 1_555 1_555
O9F P3 1_555 1_555
O10F P3 1_555 1_555
P2M O5M 1_555 1_555
O5M Fe1M 1_555 1_555
O6M Fe2 1_555 1_555
O7M P2M 1_555 1_555
O8M Fe1 1_555 1_555
Fe1M O3M 1_555 1_555
Fe2H O2 1_555 1_555
P1H O1H 1_555 1_555
O1H Fe2H 1_555 1_555
O2H Fe2 1_555 1_555
O3H P1H 1_555 1_555
O4H P1H 1_555 1_555
O11H Fe2 1_555 1_555
O9H Fe2 1_555 1_555
Fe2K O6 1_555 1_555
Fe1K O8 1_555 1_555
Fe1F O12 1_555 1_555
Fe2N O9F 1_555 1_555
O8F Fe1M 1_555 1_555
O10M Fe1M 1_555 1_555
O11M Fe1M 1_555 1_555
O12K Fe1M 1_555 1_555
O6E Fe2H 1_555 1_555
Fe1H O3H 1_555 1_555
Fe2 O11 1_555 1_555
P3 O10 1_555 1_555
O11 Fe2H 1_555 1_555
O10F Fe1F 1_555 1_555
P2M O6M 1_555 1_555
P2M O8M 1_555 1_555
Fe2H O11H 1_555 1_555
P1H O2H 1_555 1_555
O11H Fe1H 1_555 1_555
Fe1K O12K 1_555 1_555

#END
