
#######################################################################
#
#                 Cambridge Crystallographic Data Centre
#                                CCDC 
#
#######################################################################
#
# If this CIF has been generated from an entry in the Cambridge 
# Structural Database, then it will include bibliographic, chemical, 
# crystal, experimental, refinement or atomic coordinate data resulting 
# from the CCDC's data processing and validation procedures.
#
#######################################################################

data_PENYOX
_chemical_formula_moiety         'C12 H24 F8 O40 P8 V17'
_symmetry_cell_setting           monoclinic
_symmetry_space_group_name_H-M   'P 2/m'
_symmetry_Int_Tables_number      10
_space_group_name_Hall           '-P 2y'
loop_
_symmetry_equiv_pos_site_id
_symmetry_equiv_pos_as_xyz
1 x,y,z
2 -x,y,-z
3 -x,-y,-z
4 x,-y,z
_cell_length_a                   7.1564(6)
_cell_length_b                   18.2265(16)
_cell_length_c                   8.1397(7)
_cell_angle_alpha                90
_cell_angle_beta                 95.038(2)
_cell_angle_gamma                90
_cell_volume                     1057.61
loop_
_atom_site_label
_atom_site_type_symbol
_atom_site_fract_x
_atom_site_fract_y
_atom_site_fract_z
V1 V 1.0000 0.5000 0.5000
V2 V 1.25250(9) 0.26127(4) 0.99980(8)
V3 V 1.5000 0.0000 1.0000
P1 P 0.97394(14) 0.34764(6) 0.73120(13)
P2 P 1.51945(15) 0.15107(6) 1.22678(13)
F1 F 1.0000 0.21781(17) 1.0000
F2 F 1.5000 0.30502(18) 1.0000
O1 O 0.7248(7) 0.5000 0.4613(6)
O2 O 0.9780(4) 0.42648(16) 0.6720(4)
O3 O 1.1654(4) 0.3272(2) 0.8182(4)
O4 O 0.8128(4) 0.33749(17) 0.8424(4)
O5 O 1.3407(4) 0.1943(2) 1.1825(4)
O6 O 1.6899(4) 0.1865(2) 1.1620(5)
O7 O 1.557(4) 0.0773(7) 1.145(3)
O9 O 1.2423(13) -0.0000 0.9555(16)
C1 C 0.9285(6) 0.2858(2) 0.5634(6)
H1 H 0.9207 0.2355 0.6083
H2 H 0.8042 0.2978 0.5066
C2 C 1.555(3) 0.1682(17) 1.455(2)
H3 H 1.6497 0.1320 1.4979
H4 H 1.6163 0.2168 1.4669
C3 C 1.5684(18) 0.1307(16) 1.4351(14)
H5 H 1.6250 0.0811 1.4386
H6 H 1.6699 0.1648 1.4756
C1A C 1.0715(6) 0.2858(2) 0.4366(6)
P1A P 1.02606(14) 0.34764(6) 0.26880(13)
O2A O 1.0220(4) 0.42648(16) 0.3280(4)
O3A O 0.8346(4) 0.3272(2) 0.1818(4)
O4A O 1.1872(4) 0.33749(17) 0.1576(4)
H1A H 1.0793 0.2355 0.3917
H2A H 1.1958 0.2978 0.4934
C2A C 1.445(3) 0.1682(17) 1.545(2)
P2A P 1.48055(15) 0.15107(6) 1.77322(13)
O5A O 1.6593(4) 0.1943(2) 1.8175(4)
O6A O 1.3101(4) 0.1865(2) 1.8380(5)
O7A O 1.443(4) 0.0773(7) 1.855(3)
C3A C 1.4316(18) 0.1307(16) 1.5649(14)
H3A H 1.3503 0.1320 1.5021
H4A H 1.3837 0.2168 1.5331
H6A H 1.3301 0.1648 1.5244
H5A H 1.3750 0.0811 1.5614
O1A O 1.2752(7) 0.5000 0.5387(6)
P1B P 1.02606(14) 0.65236(6) 0.26880(13)
O2B O 1.0220(4) 0.57352(16) 0.3280(4)
O3B O 0.8346(4) 0.6728(2) 0.1818(4)
O4B O 1.1872(4) 0.66251(17) 0.1576(4)
C1B C 1.0715(6) 0.7142(2) 0.4366(6)
H1B H 1.0793 0.7645 0.3917
H2B H 1.1958 0.7022 0.4934
C1C C 0.9285(6) 0.7142(2) 0.5634(6)
P1C P 0.97394(14) 0.65236(6) 0.73120(13)
O2C O 0.9780(4) 0.57352(16) 0.6720(4)
O3C O 1.1654(4) 0.6728(2) 0.8182(4)
O4C O 0.8128(4) 0.66251(17) 0.8424(4)
H1C H 0.9207 0.7645 0.6083
H2C H 0.8042 0.7022 0.5066
V2A V 0.74750(9) 0.26127(4) 0.00020(8)
V2B V 0.74750(9) 0.73873(4) 0.00020(8)
V2C V 1.25250(9) 0.73873(4) 0.99980(8)
P2A_2 P 1.48055(15) 0.15107(6) 0.77322(13)
O5A_2 O 1.6593(4) 0.1943(2) 0.8175(4)
O6A_2 O 1.3101(4) 0.1865(2) 0.8380(5)
O7A_2 O 1.443(4) 0.0773(7) 0.855(3)
C2A_2 C 1.445(3) 0.1682(17) 0.545(2)
H3A_2 H 1.3503 0.1320 0.5021
H4A_2 H 1.3837 0.2168 0.5331
C3A_2 C 1.4316(18) 0.1307(16) 0.5649(14)
H5A_2 H 1.3750 0.0811 0.5614
H6A_2 H 1.3301 0.1648 0.5244
C2_2 C 1.555(3) 0.1682(17) 0.455(2)
P2_2 P 1.51945(15) 0.15107(6) 0.22678(13)
O5_2 O 1.3407(4) 0.1943(2) 0.1825(4)
O6_2 O 1.6899(4) 0.1865(2) 0.1620(5)
O7_2 O 1.557(4) 0.0773(7) 0.145(3)
C3_2 C 1.5684(18) 0.1307(16) 0.4351(14)
H3_2 H 1.6497 0.1320 0.4979
H4_2 H 1.6163 0.2168 0.4669
H6_2 H 1.6699 0.1648 0.4756
H5_2 H 1.6250 0.0811 0.4386
F1A F 1.0000 0.21781(17) 0.0000
F2A F 0.5000 0.30502(18) 0.0000
O9A O 1.7577(13) 0.0000 1.0445(16)
O4A_2 O 1.1872(4) 0.33749(17) 1.1576(4)
O7B O 1.443(4) -0.0773(7) 0.855(3)
O7C O 1.557(4) -0.0773(7) 1.145(3)
V2A_2 V 0.74750(9) 0.26127(4) 1.00020(8)
V2A_3 V 1.74750(9) 0.26127(4) 1.00020(8)
V2_2 V 1.25250(9) 0.26127(4) -0.00020(8)
V2A_4 V 1.74750(9) 0.26127(4) 2.00020(8)
V2_3 V 1.25250(9) 0.26127(4) 1.99980(8)
V3_2 V 1.5000 0.0000 2.0000
V2C_2 V 1.25250(9) 0.73873(4) -0.00020(8)
V2B_2 V 0.74750(9) 0.73873(4) 1.00020(8)
O4_2 O 0.8128(4) 0.33749(17) -0.1576(4)
O5A_3 O 0.6593(4) 0.1943(2) -0.1825(4)
O6_3 O 0.6899(4) 0.1865(2) 0.1620(5)
F1B F 1.0000 0.78219(17) 0.0000
F2B F 0.5000 0.69498(18) 0.0000
O4C_2 O 0.8128(4) 0.66251(17) -0.1576(4)
O5B O 0.6593(4) 0.8057(2) -0.1825(4)
O6C O 0.6899(4) 0.8135(2) 0.1620(5)
F1B_2 F 1.0000 0.78219(17) 1.0000
F2B_2 F 1.5000 0.69498(18) 1.0000
O4B_2 O 1.1872(4) 0.66251(17) 1.1576(4)
O5C O 1.3407(4) 0.8057(2) 1.1825(4)
O6B O 1.3101(4) 0.8135(2) 0.8380(5)
V2A_5 V 1.74750(9) 0.26127(4) 0.00020(8)
V3_3 V 1.5000 0.0000 0.0000
V2_4 V 0.25250(9) 0.26127(4) -0.00020(8)
loop_
_geom_bond_atom_site_label_1
_geom_bond_atom_site_label_2
_geom_bond_site_symmetry_1
_geom_bond_site_symmetry_2
V1 O1 1_555 1_555
V2 F1 1_555 1_555
V3 O7 1_555 1_555
P1 O2 1_555 1_555
P2 O5 1_555 1_555
F1 V2A_2 1_555 1_555
F2 V2 1_555 1_555
O2 V1 1_555 1_555
O3 V2 1_555 1_555
O4 P1 1_555 1_555
O5 V2 1_555 1_555
O6 P2 1_555 1_555
O7 P2 1_555 1_555
O9 V3 1_555 1_555
C1 P1 1_555 1_555
H1 C1 1_555 1_555
H2 C1 1_555 1_555
C2 P2 1_555 1_555
H3 C2 1_555 1_555
H4 C2 1_555 1_555
C3 P2 1_555 1_555
H5 C3 1_555 1_555
H6 C2 1_555 1_555
C1A C1 1_555 1_555
P1A C1A 1_555 1_555
O2A V1 1_555 1_555
O3A P1A 1_555 1_555
O4A P1A 1_555 1_555
H1A C1A 1_555 1_555
H2A C1A 1_555 1_555
C2A C2 1_555 1_555
P2A C2A 1_555 1_555
O5A P2A 1_555 1_555
O6A P2A 1_555 1_555
O7A P2A 1_555 1_555
C3A C2 1_555 1_555
H3A C2A 1_555 1_555
H4A C2A 1_555 1_555
H6A C2A 1_555 1_555
H5A C3A 1_555 1_555
O1A V1 1_555 1_555
P1B O2B 1_555 1_555
O2B V1 1_555 1_555
O3B P1B 1_555 1_555
O4B P1B 1_555 1_555
C1B P1B 1_555 1_555
H1B C1B 1_555 1_555
H2B C1B 1_555 1_555
C1C C1B 1_555 1_555
P1C C1C 1_555 1_555
O2C V1 1_555 1_555
O3C P1C 1_555 1_555
O4C P1C 1_555 1_555
H1C C1C 1_555 1_555
H2C C1C 1_555 1_555
V2A O3A 1_555 1_555
V2B O3B 1_555 1_555
V2C O3C 1_555 1_555
P2A_2 O5A_2 1_555 1_555
O5A_2 V2A_3 1_555 1_555
O6A_2 V2 1_555 1_555
O7A_2 V3 1_555 1_555
C2A_2 P2A_2 1_555 1_555
H3A_2 C2A_2 1_555 1_555
H4A_2 C2A_2 1_555 1_555
C3A_2 P2A_2 1_555 1_555
H5A_2 C3A_2 1_555 1_555
H6A_2 C2A_2 1_555 1_555
C2_2 C2A_2 1_555 1_555
P2_2 C2_2 1_555 1_555
O5_2 P2_2 1_555 1_555
O6_2 P2_2 1_555 1_555
O7_2 P2_2 1_555 1_555
C3_2 C2A_2 1_555 1_555
H3_2 C2_2 1_555 1_555
H4_2 C2_2 1_555 1_555
H6_2 C2_2 1_555 1_555
H5_2 C3_2 1_555 1_555
F1A V2A 1_555 1_555
F2A V2A 1_555 1_555
O9A V3 1_555 1_555
O4A_2 V2 1_555 1_555
O7B V3 1_555 1_555
O7C V3 1_555 1_555
V2A_2 O4 1_555 1_555
V2A_3 F2 1_555 1_555
V2_2 O4A 1_555 1_555
V2A_4 O5A 1_555 1_555
V2_3 O6A 1_555 1_555
V3_2 O7A 1_555 1_555
V2C_2 O4B 1_555 1_555
V2B_2 O4C 1_555 1_555
O4_2 V2A 1_555 1_555
O5A_3 V2A 1_555 1_555
O6_3 V2A 1_555 1_555
F1B V2B 1_555 1_555
F2B V2B 1_555 1_555
O4C_2 V2B 1_555 1_555
O5B V2B 1_555 1_555
O6C V2B 1_555 1_555
F1B_2 V2C 1_555 1_555
F2B_2 V2C 1_555 1_555
O4B_2 V2C 1_555 1_555
O5C V2C 1_555 1_555
O6B V2C 1_555 1_555
V2A_5 O6_2 1_555 1_555
V3_3 O7_2 1_555 1_555
V2_4 F2A 1_555 1_555
P1 O3 1_555 1_555
O6 V2A_3 1_555 1_555
C2 C3 1_555 1_555
H3 C3 1_555 1_555
H3 H6 1_555 1_555
C3 H6 1_555 1_555
C3 C2A 1_555 1_555
C3 C3A 1_555 1_555
P1A O2A 1_555 1_555
C2A C3A 1_555 1_555
P2A C3A 1_555 1_555
C3A H3A 1_555 1_555
C3A H6A 1_555 1_555
H3A H6A 1_555 1_555
P1C O2C 1_555 1_555
P2A_2 O6A_2 1_555 1_555
P2A_2 O7A_2 1_555 1_555
C2A_2 C3A_2 1_555 1_555
H3A_2 C3A_2 1_555 1_555
H3A_2 H6A_2 1_555 1_555
C3A_2 C2_2 1_555 1_555
C3A_2 H6A_2 1_555 1_555
C3A_2 C3_2 1_555 1_555
C2_2 C3_2 1_555 1_555
P2_2 C3_2 1_555 1_555
O5_2 V2_2 1_555 1_555
C3_2 H3_2 1_555 1_555
C3_2 H6_2 1_555 1_555
H3_2 H6_2 1_555 1_555
F1A V2_2 1_555 1_555
V2C_2 F1B 1_555 1_555
V2B_2 F1B_2 1_555 1_555

#END
