
#######################################################################
#
#                 Cambridge Crystallographic Data Centre
#                                CCDC 
#
#######################################################################
#
# If this CIF has been generated from an entry in the Cambridge 
# Structural Database, then it will include bibliographic, chemical, 
# crystal, experimental, refinement or atomic coordinate data resulting 
# from the CCDC's data processing and validation procedures.
#
#######################################################################

data_DOYLEI
_chemical_formula_moiety         '(C22 H31 Cd2 N13 Ni2)n'
_symmetry_cell_setting           triclinic
_symmetry_space_group_name_H-M   'P -1'
_symmetry_Int_Tables_number      2
_space_group_name_Hall           '-P 1'
loop_
_symmetry_equiv_pos_site_id
_symmetry_equiv_pos_as_xyz
1 x,y,z
2 -x,-y,-z
_cell_length_a                   9.774(3)
_cell_length_b                   13.918(8)
_cell_length_c                   7.715(4)
_cell_angle_alpha                90.41(4)
_cell_angle_beta                 90.43(5)
_cell_angle_gamma                93.18(4)
_cell_volume                     1047.83
loop_
_atom_site_label
_atom_site_type_symbol
_atom_site_fract_x
_atom_site_fract_y
_atom_site_fract_z
C1 C 0.449(3) 0.245(3) -0.011(3)
C2 C 0.549(3) 0.183(2) -0.045(3)
C3 C 0.678(3) 0.203(3) -0.033(3)
C4 C 0.747(4) 0.283(2) -0.009(3)
C5 C 0.654(4) 0.361(2) 0.024(3)
C6 C 0.508(4) 0.350(2) 0.031(3)
N1 N 0.334(3) 0.243(3) 0.004(3)
Cd1 Cd 0.09521(7) 0.26437(5) 0.50349(8)
Ni1 Ni 0.00000 0.00000 0.00000
Ni2 Ni 0.00000 0.50000 0.00000
C7 C 0.029(1) 0.0923(7) 0.173(1)
C8 C 0.073(1) 0.4259(7) 0.173(1)
C9 C 0.083(1) 0.4286(7) -0.169(1)
C10 C 0.043(1) 0.0915(7) -0.169(1)
C11 C 0.418(1) 0.3204(8) 0.513(2)
C12 C 0.568(1) 0.299(1) 0.494(2)
C13 C 0.664(1) 0.3856(9) 0.522(2)
C14 C 0.814(1) 0.371(1) 0.480(2)
N2 N 0.048(1) 0.1479(6) 0.279(1)
N3 N 0.115(1) 0.3799(7) 0.283(1)
N4 N 0.130(1) 0.3840(7) -0.276(1)
N5 N 0.069(1) 0.1472(7) -0.274(1)
N6 N 0.3221(9) 0.2386(7) 0.485(1)
N7 N 0.864(1) 0.2861(8) 0.539(2)
H1 H 0.33969 0.21227 0.35318
H2 H 0.34559 0.18517 0.57520
H3 H 0.40157 0.34882 0.64085
H4 H 0.39414 0.37672 0.41925
H5 H 0.58276 0.27122 0.36448
H6 H 0.59126 0.24600 0.58711
H7 H 0.66014 0.40661 0.65423
H8 H 0.62985 0.44289 0.44022
H9 H 0.87627 0.43165 0.52635
H10 H 0.82416 0.36898 0.33636
H11 H 0.80682 0.22314 0.48741
H12 H 0.84533 0.28331 0.68437
Cd1A Cd -0.09521(7) -0.26437(5) -0.50349(8)
C7A C -0.029(1) -0.0923(7) -0.173(1)
C8A C -0.073(1) -0.4259(7) -0.173(1)
C10A C -0.043(1) -0.0915(7) 0.169(1)
C11A C -0.418(1) -0.3204(8) -0.513(2)
C12A C -0.568(1) -0.299(1) -0.494(2)
C13A C -0.664(1) -0.3856(9) -0.522(2)
C14A C -0.814(1) -0.371(1) -0.480(2)
N2A N -0.048(1) -0.1479(6) -0.279(1)
N3A N -0.115(1) -0.3799(7) -0.283(1)
N5A N -0.069(1) -0.1472(7) 0.274(1)
N6A N -0.3221(9) -0.2386(7) -0.485(1)
N7A N -0.864(1) -0.2861(8) -0.539(2)
H1A H -0.33969 -0.21227 -0.35318
H2A H -0.34559 -0.18517 -0.57520
H3A H -0.40157 -0.34882 -0.64085
H4A H -0.39414 -0.37672 -0.41925
H5A H -0.58276 -0.27122 -0.36448
H6A H -0.59126 -0.24600 -0.58711
H7A H -0.66014 -0.40661 -0.65423
H8A H -0.62985 -0.44289 -0.44022
H9A H -0.87627 -0.43165 -0.52635
H10A H -0.82416 -0.36898 -0.33636
H11A H -0.80682 -0.22314 -0.48741
H12A H -0.84533 -0.28331 -0.68437
C9_2 C 0.083(1) 0.4286(7) 0.831(1)
N4_2 N 0.130(1) 0.3840(7) 0.724(1)
Cd1_2 Cd 0.09521(7) 0.26437(5) -0.49651(8)
Cd1_3 Cd 1.09521(7) 0.26437(5) 0.50349(8)
Cd1A_2 Cd -1.09521(7) -0.26437(5) -0.50349(8)
Cd1A_3 Cd -0.09521(7) -0.26437(5) 0.49651(8)
Ni2_2 Ni 0.00000 -0.50000 0.00000
Ni2_3 Ni 0.00000 0.50000 1.00000
C8A_2 C -0.073(1) 0.5741(7) -0.173(1)
C9A C -0.083(1) 0.5714(7) 0.169(1)
N4A N -0.130(1) -0.3840(7) -0.724(1)
N5_2 N 0.069(1) 0.1472(7) 0.726(1)
N5A_2 N -0.069(1) -0.1472(7) -0.726(1)
N7_2 N -0.136(1) 0.2861(8) 0.539(2)
N7A_2 N 0.136(1) -0.2861(8) -0.539(2)
loop_
_geom_bond_atom_site_label_1
_geom_bond_atom_site_label_2
_geom_bond_site_symmetry_1
_geom_bond_site_symmetry_2
C1 C2 1_555 1_555
C2 C3 1_555 1_555
C3 C4 1_555 1_555
C4 C5 1_555 1_555
C5 C6 1_555 1_555
C6 C1 1_555 1_555
N1 C1 1_555 1_555
Cd1 N2 1_555 1_555
Ni1 C7 1_555 1_555
Ni2 C8 1_555 1_555
C7 N2 1_555 1_555
C8 N3 1_555 1_555
C9 Ni2 1_555 1_555
C10 Ni1 1_555 1_555
C11 C12 1_555 1_555
C12 C13 1_555 1_555
C13 C14 1_555 1_555
C14 N7 1_555 1_555
N3 Cd1 1_555 1_555
N4 C9 1_555 1_555
N5 C10 1_555 1_555
N6 Cd1 1_555 1_555
N7 H11 1_555 1_555
H1 N6 1_555 1_555
H2 N6 1_555 1_555
H3 C11 1_555 1_555
H4 C11 1_555 1_555
H5 C12 1_555 1_555
H6 C12 1_555 1_555
H7 C13 1_555 1_555
H8 C13 1_555 1_555
H9 C14 1_555 1_555
H10 C14 1_555 1_555
H12 N7 1_555 1_555
Cd1A N2A 1_555 1_555
C7A Ni1 1_555 1_555
C8A N3A 1_555 1_555
C10A Ni1 1_555 1_555
C11A C12A 1_555 1_555
C12A C13A 1_555 1_555
C13A C14A 1_555 1_555
C14A N7A 1_555 1_555
N2A C7A 1_555 1_555
N3A Cd1A 1_555 1_555
N5A C10A 1_555 1_555
N6A Cd1A 1_555 1_555
N7A H11A 1_555 1_555
H1A N6A 1_555 1_555
H2A N6A 1_555 1_555
H3A C11A 1_555 1_555
H4A C11A 1_555 1_555
H5A C12A 1_555 1_555
H6A C12A 1_555 1_555
H7A C13A 1_555 1_555
H8A C13A 1_555 1_555
H9A C14A 1_555 1_555
H10A C14A 1_555 1_555
H12A N7A 1_555 1_555
C9_2 N4_2 1_555 1_555
N4_2 Cd1 1_555 1_555
Cd1_2 N4 1_555 1_555
Cd1_3 N7 1_555 1_555
Cd1A_2 N7A 1_555 1_555
Cd1A_3 N5A 1_555 1_555
Ni2_2 C8A 1_555 1_555
Ni2_3 C9_2 1_555 1_555
C8A_2 Ni2 1_555 1_555
C9A Ni2 1_555 1_555
N4A Cd1A 1_555 1_555
N5_2 Cd1 1_555 1_555
N5A_2 Cd1A 1_555 1_555
N7_2 Cd1 1_555 1_555
N7A_2 Cd1A 1_555 1_555
C11 N6 1_555 1_555
N5 Cd1_2 1_555 1_555
C11A N6A 1_555 1_555

#END
