
#######################################################################
#
#                 Cambridge Crystallographic Data Centre
#                                CCDC 
#
#######################################################################
#
# If this CIF has been generated from an entry in the Cambridge 
# Structural Database, then it will include bibliographic, chemical, 
# crystal, experimental, refinement or atomic coordinate data resulting 
# from the CCDC's data processing and validation procedures.
#
#######################################################################

data_UVAROZ
_chemical_formula_moiety         '(C31 H26 N2 O5 Zn1)n'
_symmetry_cell_setting           monoclinic
_symmetry_space_group_name_H-M   'C c'
_symmetry_Int_Tables_number      9
_space_group_name_Hall           'C -2yc'
loop_
_symmetry_equiv_pos_site_id
_symmetry_equiv_pos_as_xyz
1 x,y,z
2 x,-y,1/2+z
3 1/2+x,1/2+y,z
4 1/2+x,1/2-y,1/2+z
_cell_length_a                   13.187(8)
_cell_length_b                   24.889(18)
_cell_length_c                   8.666(5)
_cell_angle_alpha                90
_cell_angle_beta                 102.644(11)
_cell_angle_gamma                90
_cell_volume                     2775.3
loop_
_atom_site_label
_atom_site_type_symbol
_atom_site_fract_x
_atom_site_fract_y
_atom_site_fract_z
_atom_site_U_iso_or_equiv
_atom_site_thermal_displace_type
Zn1 Zn 0.51229(11) 0.41180(4) 1.20155(14) 0.0210 Uani
O1 O 0.4471(7) 0.3801(3) 0.9957(10) 0.0266 Uani
O2 O 0.4149(8) 0.3064(3) 1.1256(10) 0.0433 Uani
O3 O -0.3968(6) 0.5276(3) 1.6450(11) 0.0313 Uani
O4 O -0.3240(7) 0.6083(3) 1.6657(10) 0.0320 Uani
N1 N 0.0568(8) 0.1230(4) -0.0836(11) 0.0243 Uani
N2 N 0.3823(8) 0.4506(4) 1.2557(10) 0.0200 Uani
C1 C 0.4141(10) 0.3325(5) 0.9985(15) 0.0253 Uani
C2 C 0.3646(11) 0.3071(5) 0.8434(15) 0.0266 Uani
C3 C 0.3283(10) 0.2553(5) 0.8372(14) 0.0308 Uani
H1 H 0.3354 0.2350 0.9317 0.0370 Uiso
C4 C 0.2811(10) 0.2327(5) 0.6925(15) 0.0350 Uani
H2 H 0.2511 0.1979 0.6890 0.0420 Uiso
C5 C 0.2777(11) 0.2609(5) 0.5525(15) 0.0292 Uani
C6 C 0.3160(11) 0.3127(5) 0.5610(16) 0.0325 Uani
H3 H 0.3124 0.3329 0.4669 0.0390 Uiso
C7 C 0.3606(10) 0.3359(5) 0.7102(15) 0.0249 Uani
H4 H 0.3875 0.3714 0.7162 0.0300 Uiso
C8 C 0.2328(11) 0.2396(5) 0.3991(16) 0.0340 Uani
H5 H 0.2421 0.2600 0.3106 0.0410 Uiso
C9 C 0.1786(10) 0.1934(5) 0.3682(14) 0.0268 Uani
H6 H 0.1665 0.1739 0.4567 0.0320 Uiso
C10 C 0.1365(10) 0.1704(5) 0.2119(16) 0.0269 Uani
C11 C 0.0971(10) 0.1187(5) 0.2012(13) 0.0274 Uani
H7 H 0.0962 0.0983 0.2934 0.0330 Uiso
C12 C 0.0578(9) 0.0972(4) 0.0473(14) 0.0255 Uani
H8 H 0.0306 0.0618 0.0399 0.0310 Uiso
C13 C 0.0944(11) 0.1744(5) -0.0729(17) 0.0323 Uani
H9 H 0.0915 0.1944 -0.1671 0.0390 Uiso
C14 C 0.1360(11) 0.1977(5) 0.0693(16) 0.0352 Uani
H10 H 0.1649 0.2327 0.0722 0.0420 Uiso
C15 C -0.3246(11) 0.5593(5) 1.6268(18) 0.0322 Uani
C16 C -0.2316(10) 0.5386(5) 1.5752(14) 0.0265 Uani
C17 C -0.2222(11) 0.4843(5) 1.5397(15) 0.0332 Uani
H11 H -0.2751 0.4596 1.5509 0.0400 Uiso
C18 C -0.1348(10) 0.4662(5) 1.4878(14) 0.0302 Uani
H12 H -0.1289 0.4292 1.4638 0.0360 Uiso
C19 C -0.0571(11) 0.5014(5) 1.4710(13) 0.0264 Uani
C20 C -0.0695(10) 0.5554(4) 1.5053(14) 0.0294 Uani
H13 H -0.0170 0.5801 1.4929 0.0350 Uiso
C21 C -0.1529(10) 0.5741(5) 1.5553(15) 0.0328 Uani
H14 H -0.1582 0.6113 1.5770 0.0390 Uiso
C22 C 0.0324(10) 0.4806(5) 1.4146(13) 0.0265 Uani
H15 H 0.0327 0.4433 1.3916 0.0320 Uiso
C23 C 0.1131(11) 0.5093(5) 1.3927(15) 0.0299 Uani
H16 H 0.1114 0.5468 1.4125 0.0360 Uiso
C24 C 0.2054(10) 0.4885(5) 1.3406(13) 0.0272 Uani
C25 C 0.2088(10) 0.4359(4) 1.2872(14) 0.0275 Uani
H17 H 0.1519 0.4119 1.2806 0.0330 Uiso
C26 C 0.2994(11) 0.4205(5) 1.2443(14) 0.0320 Uani
H18 H 0.3019 0.3853 1.2031 0.0380 Uiso
C27 C 0.3818(10) 0.5011(4) 1.3099(13) 0.0286 Uani
H19 H 0.4415 0.5233 1.3216 0.0340 Uiso
C28 C 0.2908(10) 0.5197(5) 1.3487(12) 0.0241 Uani
H20 H 0.2884 0.5559 1.3822 0.0290 Uiso
Zn1A Zn -0.48771(11) 0.58820(4) 1.70155(14) 0.0210 Uani
Zn1C Zn 0.01229(11) 0.08820(4) -0.29845(14) 0.0210 Uani
O3A O 0.6032(6) 0.4724(3) 1.1450(11) 0.0313 Uani
O4A O 0.6760(7) 0.3917(3) 1.1657(10) 0.0320 Uani
N1C N 0.5568(8) 0.3770(4) 1.4164(11) 0.0243 Uani
O5 O 0.1296(9) 0.3446(4) 0.9596(15) 0.0582 Uani
C29 C -0.0363(14) 0.3049(7) 0.869(3) 0.1058 Uani
H21 H -0.0589 0.3213 0.9591 0.1590 Uiso
H22 H -0.0226 0.2666 0.8907 0.1590 Uiso
H23 H -0.0910 0.3090 0.7735 0.1590 Uiso
C30 C 0.0610(13) 0.3319(6) 0.847(3) 0.0633 Uani
C31 C 0.0758(19) 0.3437(10) 0.686(2) 0.1011 Uani
H24 H 0.0313 0.3739 0.6417 0.1520 Uiso
H25 H 0.0572 0.3120 0.6191 0.1520 Uiso
H26 H 0.1487 0.3530 0.6916 0.1520 Uiso
loop_
_atom_site_aniso_label
_atom_site_aniso_U_11
_atom_site_aniso_U_22
_atom_site_aniso_U_33
_atom_site_aniso_U_23
_atom_site_aniso_U_13
_atom_site_aniso_U_12
Zn1 0.0194(6) 0.0228(5) 0.0207(6) 0.0000(7) 0.0042(4) -0.0012(7)
O1 0.031(5) 0.018(4) 0.030(5) -0.013(4) 0.005(4) -0.003(4)
O2 0.061(7) 0.033(5) 0.032(5) -0.007(4) 0.002(5) -0.002(4)
O3 0.020(5) 0.026(4) 0.052(6) 0.004(4) 0.017(4) 0.000(4)
O4 0.024(5) 0.025(4) 0.052(6) -0.003(4) 0.019(4) -0.006(4)
N1 0.029(6) 0.034(6) 0.008(5) -0.003(4) 0.000(5) -0.004(5)
N2 0.026(6) 0.028(5) 0.005(4) 0.006(4) 0.001(4) 0.001(5)
C1 0.024(7) 0.031(7) 0.018(7) -0.002(5) -0.002(6) 0.011(5)
C2 0.031(7) 0.029(6) 0.019(7) -0.005(5) 0.004(6) 0.002(6)
C3 0.034(7) 0.032(6) 0.027(7) 0.001(5) 0.008(6) -0.003(5)
C4 0.031(7) 0.029(6) 0.043(8) 0.002(6) 0.004(6) -0.004(5)
C5 0.042(8) 0.025(6) 0.022(7) -0.002(5) 0.010(6) 0.002(6)
C6 0.030(8) 0.035(7) 0.029(8) -0.002(6) -0.001(6) -0.007(6)
C7 0.025(7) 0.026(6) 0.025(7) -0.004(5) 0.008(6) -0.004(5)
C8 0.037(8) 0.041(8) 0.022(7) 0.009(6) 0.002(6) -0.005(6)
C9 0.030(8) 0.033(6) 0.017(6) 0.002(5) 0.004(5) -0.001(6)
C10 0.028(8) 0.029(6) 0.026(7) -0.006(5) 0.011(6) -0.002(6)
C11 0.029(7) 0.031(6) 0.021(6) -0.006(5) 0.003(5) 0.000(5)
C12 0.025(7) 0.017(5) 0.036(7) -0.004(5) 0.010(5) -0.005(5)
C13 0.042(9) 0.027(6) 0.028(8) 0.002(6) 0.008(7) -0.006(6)
C14 0.041(9) 0.027(7) 0.037(9) -0.008(6) 0.007(7) -0.016(6)
C15 0.024(8) 0.015(6) 0.061(9) 0.007(6) 0.017(7) -0.002(5)
C16 0.025(7) 0.026(6) 0.035(7) 0.003(5) 0.021(6) 0.004(5)
C17 0.036(8) 0.040(7) 0.029(8) 0.001(6) 0.019(7) 0.007(6)
C18 0.035(8) 0.025(6) 0.034(7) -0.001(5) 0.015(6) 0.002(5)
C19 0.036(8) 0.026(6) 0.019(7) -0.002(5) 0.010(6) 0.000(6)
C20 0.027(7) 0.022(5) 0.040(7) 0.011(5) 0.009(6) 0.006(5)
C21 0.030(7) 0.035(6) 0.039(8) 0.004(5) 0.020(6) -0.005(6)
C22 0.031(7) 0.027(6) 0.022(6) 0.005(5) 0.007(6) 0.004(6)
C23 0.037(8) 0.022(6) 0.031(8) 0.000(5) 0.008(6) 0.006(6)
C24 0.027(7) 0.040(7) 0.013(6) 0.003(5) 0.001(5) 0.004(6)
C25 0.024(7) 0.021(6) 0.041(8) 0.003(5) 0.015(6) 0.004(5)
C26 0.046(9) 0.023(6) 0.028(7) 0.004(5) 0.010(6) 0.007(6)
C27 0.036(8) 0.030(6) 0.021(6) -0.004(5) 0.009(6) 0.005(6)
C28 0.039(8) 0.024(6) 0.010(6) 0.000(4) 0.007(5) 0.002(5)
Zn1A 0.0194 0.0228 0.0207 0 0.0042 0.0012
Zn1C 0.0194 0.0228 0.0207 0 0.0042 0.0012
O3A 0.02 0.026 0.052 -0.004 0.017 0
O4A 0.024 0.025 0.052 0.003 0.019 0.006
N1C 0.029 0.034 0.008 0.003 0 0.004
O5 0.047(7) 0.050(6) 0.079(8) -0.009(6) 0.017(6) -0.004(5)
C29 0.043(11) 0.053(10) 0.22(3) -0.023(15) 0.026(14) 0.009(9)
C30 0.035(9) 0.048(9) 0.116(17) -0.023(10) 0.036(11) 0.002(8)
C31 0.101(19) 0.130(19) 0.070(15) 0.019(13) 0.014(13) 0.036(15)
loop_
_geom_bond_atom_site_label_1
_geom_bond_atom_site_label_2
_geom_bond_site_symmetry_1
_geom_bond_site_symmetry_2
Zn1 O1 1_555 1_555
O1 C1 1_555 1_555
O2 C1 1_555 1_555
O3 C15 1_555 1_555
O4 C15 1_555 1_555
O5 C30 1_555 1_555
N1 C12 1_555 1_555
N2 Zn1 1_555 1_555
C1 C2 1_555 1_555
C2 C3 1_555 1_555
C3 H1 1_555 1_555
C4 C3 1_555 1_555
H2 C4 1_555 1_555
C5 C4 1_555 1_555
C6 C5 1_555 1_555
H3 C6 1_555 1_555
C7 C2 1_555 1_555
H4 C7 1_555 1_555
C8 C5 1_555 1_555
H5 C8 1_555 1_555
C9 C8 1_555 1_555
H6 C9 1_555 1_555
C10 C9 1_555 1_555
C11 C10 1_555 1_555
H7 C11 1_555 1_555
C12 C11 1_555 1_555
H8 C12 1_555 1_555
C13 N1 1_555 1_555
H9 C13 1_555 1_555
C14 C10 1_555 1_555
H10 C14 1_555 1_555
C15 C16 1_555 1_555
C16 C17 1_555 1_555
C17 H11 1_555 1_555
C18 C17 1_555 1_555
H12 C18 1_555 1_555
C19 C18 1_555 1_555
C20 C19 1_555 1_555
H13 C20 1_555 1_555
C21 C16 1_555 1_555
H14 C21 1_555 1_555
C22 C19 1_555 1_555
H15 C22 1_555 1_555
C23 C22 1_555 1_555
H16 C23 1_555 1_555
C24 C23 1_555 1_555
C25 C24 1_555 1_555
H17 C25 1_555 1_555
C26 N2 1_555 1_555
H18 C26 1_555 1_555
C27 N2 1_555 1_555
H19 C27 1_555 1_555
C28 C24 1_555 1_555
H20 C28 1_555 1_555
C29 H21 1_555 1_555
H22 C29 1_555 1_555
H23 C29 1_555 1_555
C30 C29 1_555 1_555
C31 C30 1_555 1_555
H24 C31 1_555 1_555
H25 C31 1_555 1_555
H26 C31 1_555 1_555
Zn1A O3 1_555 1_555
Zn1C N1 1_555 1_555
O3A Zn1 1_555 1_555
O4A Zn1 1_555 1_555
N1C Zn1 1_555 1_555
O4 Zn1A 1_555 1_555
C6 C7 1_555 1_555
C13 C14 1_555 1_555
C20 C21 1_555 1_555
C25 C26 1_555 1_555
C27 C28 1_555 1_555

#END
