
#######################################################################
#
#                 Cambridge Crystallographic Data Centre
#                                CCDC 
#
#######################################################################
#
# If this CIF has been generated from an entry in the Cambridge 
# Structural Database, then it will include bibliographic, chemical, 
# crystal, experimental, refinement or atomic coordinate data resulting 
# from the CCDC's data processing and validation procedures.
#
#######################################################################

data_UVARUF
_chemical_formula_moiety         '(C30 H23 N3 O4 Zn1)n'
_symmetry_cell_setting           monoclinic
_symmetry_space_group_name_H-M   'C c'
_symmetry_Int_Tables_number      9
_space_group_name_Hall           'C -2yc'
loop_
_symmetry_equiv_pos_site_id
_symmetry_equiv_pos_as_xyz
1 x,y,z
2 x,-y,1/2+z
3 1/2+x,1/2+y,z
4 1/2+x,1/2-y,1/2+z
_cell_length_a                   12.934(5)
_cell_length_b                   24.970(3)
_cell_length_c                   8.715(4)
_cell_angle_alpha                90
_cell_angle_beta                 103.834(5)
_cell_angle_gamma                90
_cell_volume                     2732.97
loop_
_atom_site_label
_atom_site_type_symbol
_atom_site_fract_x
_atom_site_fract_y
_atom_site_fract_z
_atom_site_U_iso_or_equiv
_atom_site_thermal_displace_type
Zn1 Zn 0.15238(15) 0.41123(5) 0.63243(17) 0.0273 Uani
O1 O 0.2231(9) 0.3801(4) 0.8369(11) 0.0329 Uani
O2 O 0.2482(9) 0.3060(4) 0.7114(10) 0.0518 Uani
O3 O 0.0614(8) 0.4714(3) 0.6835(10) 0.0286 Uani
O4 O -0.0093(8) 0.3915(3) 0.6693(10) 0.0350 Uani
N1 N 0.6090(10) 0.1226(5) 1.9186(14) 0.0299 Uani
N2 N -0.7201(9) 0.5511(5) 1.0846(12) 0.0194 Uani
C1 C 0.2521(16) 0.3316(8) 0.835(2) 0.0456 Uani
C2 C 0.3005(14) 0.3074(6) 0.9832(17) 0.0311 Uani
C3 C 0.3348(12) 0.2546(5) 0.9976(14) 0.0374 Uani
H1 H 0.3305 0.2342 0.9070 0.0450 Uiso
C4 C 0.3751(13) 0.2318(6) 1.1436(15) 0.0427 Uani
H2 H 0.3965 0.1961 1.1499 0.0510 Uiso
C5 C 0.3842(17) 0.2609(6) 1.2802(19) 0.0457 Uani
C6 C 0.3496(17) 0.3124(7) 1.2651(18) 0.0555 Uani
H3 H 0.3528 0.3324 1.3562 0.0670 Uiso
C7 C 0.3114(13) 0.3358(6) 1.1250(17) 0.0337 Uani
H4 H 0.2915 0.3716 1.1215 0.0400 Uiso
C8 C 0.4286(15) 0.2384(7) 1.4373(18) 0.0481 Uani
H5 H 0.4202 0.2579 1.5243 0.0580 Uiso
C9 C 0.4805(14) 0.1919(6) 1.4641(17) 0.0343 Uani
H6 H 0.4884 0.1720 1.3772 0.0410 Uiso
C10 C 0.5262(14) 0.1699(6) 1.6232(19) 0.0365 Uani
C11 C 0.5224(17) 0.1958(6) 1.7574(17) 0.0544 Uani
H7 H 0.4909 0.2295 1.7517 0.0630 Uiso
C12 C 0.5658(17) 0.1724(7) 1.907(2) 0.0601 Uani
H8 H 0.5647 0.1914 1.9985 0.0720 Uiso
C13 C 0.6045(11) 0.0981(5) 1.7843(13) 0.0299 Uani
H9 H 0.6289 0.0629 1.7913 0.0360 Uiso
C14 C 0.5685(12) 0.1179(5) 1.6364(15) 0.0321 Uani
H10 H 0.5716 0.0979 1.5476 0.0390 Uiso
C15 C -0.0185(13) 0.4394(6) 0.6983(18) 0.0284 Uani
C16 C -0.1055(12) 0.4623(6) 0.7563(15) 0.0306 Uani
C17 C -0.1819(12) 0.4255(6) 0.7802(16) 0.0342 Uani
H11 H -0.1753 0.3893 0.7602 0.0410 Uiso
C18 C -0.2673(13) 0.4443(6) 0.8343(15) 0.0401 Uani
H12 H -0.3185 0.4202 0.8503 0.0480 Uiso
C19 C -0.2785(14) 0.4977(6) 0.8648(19) 0.0377 Uani
C20 C -0.2038(15) 0.5331(6) 0.8360(18) 0.0469 Uani
H13 H -0.2102 0.5694 0.8550 0.0560 Uiso
C21 C -0.1178(14) 0.5144(6) 0.7778(19) 0.0390 Uani
H14 H -0.0693 0.5387 0.7543 0.0470 Uiso
C22 C -0.3665(13) 0.5171(5) 0.9220(17) 0.0318 Uani
H15 H -0.3649 0.5531 0.9490 0.0380 Uiso
C23 C -0.4515(14) 0.4888(7) 0.9412(18) 0.0407 Uani
H16 H -0.4531 0.4525 0.9174 0.0490 Uiso
C24 C -0.5396(12) 0.5103(5) 0.9953(14) 0.0246 Uani
C25 C -0.6279(12) 0.4790(6) 0.9836(17) 0.0309 Uani
H17 H -0.6300 0.4445 0.9429 0.0370 Uiso
C26 C -0.7162(13) 0.4997(5) 1.0340(14) 0.0335 Uani
H18 H -0.7739 0.4772 1.0325 0.0400 Uiso
C27 C -0.6291(14) 0.5803(6) 1.0992(17) 0.0403 Uani
H19 H -0.6263 0.6146 1.1417 0.0490 Uiso
C28 C -0.5442(14) 0.5618(6) 1.0551(15) 0.0368 Uani
H20 H -0.4854 0.5841 1.0645 0.0440 Uiso
Zn1A Zn -0.84762(15) 0.58877(5) 1.13243(17) 0.0273 Uani
Zn1C Zn 0.65238(15) 0.08877(5) 2.13243(17) 0.0273 Uani
N1C N 0.1090(10) 0.3774(5) 0.4186(14) 0.0299 Uani
N2A N 0.2799(9) 0.4489(5) 0.5846(12) 0.0194 Uani
N3 N 0.5410(16) 0.3383(6) 0.844(2) 0.0920 Uani
C29 C 0.5794(19) 0.3287(7) 0.966(4) 0.0961 Uani
C30 C 0.638(3) 0.3127(7) 1.144(4) 0.1369 Uani
H21 H 0.6645 0.2767 1.1455 0.2060 Uiso
H22 H 0.5884 0.3150 1.2096 0.2060 Uiso
H23 H 0.6963 0.3367 1.1824 0.2060 Uiso
loop_
_atom_site_aniso_label
_atom_site_aniso_U_11
_atom_site_aniso_U_22
_atom_site_aniso_U_33
_atom_site_aniso_U_23
_atom_site_aniso_U_13
_atom_site_aniso_U_12
Zn1 0.0272(8) 0.0263(7) 0.0248(6) -0.0014(9) -0.0007(5) 0.0017(11)
O1 0.034(7) 0.032(6) 0.029(6) 0.006(5) 0.000(5) -0.003(5)
O2 0.069(9) 0.053(6) 0.026(5) -0.005(5) -0.003(6) -0.014(6)
O3 0.038(7) 0.014(5) 0.031(5) -0.005(4) 0.003(5) -0.006(5)
O4 0.039(7) 0.029(5) 0.037(5) 0.003(4) 0.009(5) 0.020(5)
N1 0.015(8) 0.035(8) 0.035(8) -0.003(5) -0.003(6) -0.003(6)
N2 0.012(8) 0.024(7) 0.016(6) -0.003(5) -0.009(5) -0.005(6)
C1 0.043(12) 0.054(11) 0.034(10) 0.006(8) -0.002(9) -0.008(10)
C2 0.047(11) 0.021(8) 0.022(8) -0.002(6) 0.002(8) -0.001(8)
C3 0.040(10) 0.049(9) 0.013(7) -0.002(6) -0.014(6) 0.013(8)
C4 0.070(13) 0.029(7) 0.025(7) -0.003(6) 0.003(8) 0.003(8)
C5 0.078(14) 0.021(8) 0.040(9) 0.011(7) 0.018(9) 0.024(9)
C6 0.086(16) 0.053(11) 0.024(9) -0.012(8) 0.006(10) -0.007(11)
C7 0.047(11) 0.021(8) 0.026(8) 0.006(6) -0.005(8) 0.014(8)
C8 0.059(14) 0.048(11) 0.029(9) 0.001(7) -0.006(9) -0.002(10)
C9 0.050(12) 0.026(8) 0.023(8) 0.011(6) 0.001(7) 0.009(8)
C10 0.053(12) 0.031(8) 0.024(8) -0.001(6) 0.006(8) -0.008(8)
C11 0.117(19) 0.032(9) 0.020(7) 0.013(6) 0.028(10) 0.020(10)
C12 0.099(18) 0.034(9) 0.048(11) 0.000(8) 0.019(11) 0.033(11)
C13 0.032(9) 0.032(8) 0.022(6) -0.010(6) -0.001(6) 0.002(7)
C14 0.043(10) 0.022(7) 0.030(8) -0.004(6) 0.006(7) -0.011(7)
C15 0.022(10) 0.024(8) 0.040(8) -0.010(7) 0.009(8) 0.010(8)
C16 0.034(10) 0.021(7) 0.030(8) -0.012(6) -0.006(7) 0.011(7)
C17 0.039(10) 0.022(8) 0.046(9) 0.002(6) 0.019(8) 0.004(7)
C18 0.046(11) 0.042(9) 0.032(7) 0.001(7) 0.009(7) 0.002(9)
C19 0.025(10) 0.032(9) 0.059(11) -0.007(8) 0.016(9) -0.007(9)
C20 0.062(14) 0.043(10) 0.034(9) -0.018(7) 0.008(9) 0.013(10)
C21 0.037(12) 0.022(8) 0.057(11) 0.002(7) 0.009(9) -0.016(8)
C22 0.034(11) 0.014(7) 0.049(9) 0.002(6) 0.013(8) 0.003(7)
C23 0.030(11) 0.047(11) 0.037(9) -0.003(8) -0.008(8) 0.012(9)
C24 0.029(9) 0.019(7) 0.024(7) -0.004(6) 0.003(7) 0.004(7)
C25 0.028(10) 0.028(8) 0.032(8) -0.006(6) -0.002(7) -0.015(8)
C26 0.043(11) 0.029(8) 0.023(7) 0.006(6) -0.003(7) 0.016(8)
C27 0.045(12) 0.032(9) 0.036(9) -0.002(7) -0.006(9) -0.021(9)
C28 0.058(13) 0.021(8) 0.031(8) -0.009(6) 0.010(8) -0.004(8)
Zn1A 0.0272 0.0263 0.0248 0.0014 -0.0007 -0.0017
Zn1C 0.0272 0.0263 0.0248 0.0014 -0.0007 -0.0017
N1C 0.015 0.035 0.035 0.003 -0.003 0.003
N2A 0.012 0.024 0.016 0.003 -0.009 0.005
N3 0.066(14) 0.070(11) 0.113(14) 0.054(11) -0.032(11) -0.021(10)
C29 0.051(16) 0.030(10) 0.19(3) 0.004(14) -0.005(18) 0.003(10)
C30 0.11(2) 0.056(11) 0.20(2) -0.01(2) -0.051(19) 0.00(2)
loop_
_geom_bond_atom_site_label_1
_geom_bond_atom_site_label_2
_geom_bond_site_symmetry_1
_geom_bond_site_symmetry_2
Zn1 O1 1_555 1_555
O1 C1 1_555 1_555
O2 C1 1_555 1_555
O3 Zn1 1_555 1_555
O4 Zn1 1_555 1_555
N1 C12 1_555 1_555
N2 C26 1_555 1_555
N3 C29 1_555 1_555
C1 C2 1_555 1_555
C2 C3 1_555 1_555
C3 H1 1_555 1_555
C4 C3 1_555 1_555
H2 C4 1_555 1_555
C5 C4 1_555 1_555
C6 C5 1_555 1_555
H3 C6 1_555 1_555
C7 C2 1_555 1_555
H4 C7 1_555 1_555
C8 C5 1_555 1_555
H5 C8 1_555 1_555
C9 C8 1_555 1_555
H6 C9 1_555 1_555
C10 C9 1_555 1_555
C11 C10 1_555 1_555
H7 C11 1_555 1_555
C12 C11 1_555 1_555
H8 C12 1_555 1_555
C13 N1 1_555 1_555
H9 C13 1_555 1_555
C14 C10 1_555 1_555
H10 C14 1_555 1_555
C15 O3 1_555 1_555
C16 C15 1_555 1_555
C17 C16 1_555 1_555
H11 C17 1_555 1_555
C18 C17 1_555 1_555
H12 C18 1_555 1_555
C19 C18 1_555 1_555
C20 C19 1_555 1_555
H13 C20 1_555 1_555
C21 C16 1_555 1_555
H14 C21 1_555 1_555
C22 C19 1_555 1_555
H15 C22 1_555 1_555
C23 C22 1_555 1_555
H16 C23 1_555 1_555
C24 C23 1_555 1_555
C25 C24 1_555 1_555
H17 C25 1_555 1_555
C26 C25 1_555 1_555
H18 C26 1_555 1_555
C27 N2 1_555 1_555
H19 C27 1_555 1_555
C28 C24 1_555 1_555
H20 C28 1_555 1_555
C29 C30 1_555 1_555
C30 H21 1_555 1_555
H22 C30 1_555 1_555
H23 C30 1_555 1_555
Zn1A N2 1_555 1_555
Zn1C N1 1_555 1_555
N1C Zn1 1_555 1_555
N2A Zn1 1_555 1_555
O4 C15 1_555 1_555
C6 C7 1_555 1_555
C13 C14 1_555 1_555
C20 C21 1_555 1_555
C27 C28 1_555 1_555

#END
