
#######################################################################
#
#                 Cambridge Crystallographic Data Centre
#                                CCDC 
#
#######################################################################
#
# If this CIF has been generated from an entry in the Cambridge 
# Structural Database, then it will include bibliographic, chemical, 
# crystal, experimental, refinement or atomic coordinate data resulting 
# from the CCDC's data processing and validation procedures.
#
#######################################################################

data_UVASAM
_chemical_formula_moiety         '(C31 H27 N3 O5 Zn1)n'
_symmetry_cell_setting           monoclinic
_symmetry_space_group_name_H-M   'C c'
_symmetry_Int_Tables_number      9
_space_group_name_Hall           'C -2yc'
loop_
_symmetry_equiv_pos_site_id
_symmetry_equiv_pos_as_xyz
1 x,y,z
2 x,-y,1/2+z
3 1/2+x,1/2+y,z
4 1/2+x,1/2-y,1/2+z
_cell_length_a                   13.507(4)
_cell_length_b                   24.837(10)
_cell_length_c                   8.406(3)
_cell_angle_alpha                90
_cell_angle_beta                 98.841(5)
_cell_angle_gamma                90
_cell_volume                     2786.48
loop_
_atom_site_label
_atom_site_type_symbol
_atom_site_fract_x
_atom_site_fract_y
_atom_site_fract_z
_atom_site_U_iso_or_equiv
_atom_site_thermal_displace_type
Zn1 Zn 0.51167(8) 0.59137(3) 0.16638(10) 0.0180 Uani
O1 O 0.9519(5) 0.8812(3) 1.4535(7) 0.0239 Uani
O2 O 0.9182(6) 0.8084(3) 1.5894(7) 0.0362 Uani
O3 O -0.3936(5) 0.4709(2) 0.6208(8) 0.0236 Uani
O4 O -0.3293(5) 0.3893(2) 0.6290(7) 0.0224 Uani
N1 N 0.5513(6) 0.6282(3) 0.3858(9) 0.0207 Uani
N2 N 0.3849(6) 0.5518(3) 0.2227(8) 0.0208 Uani
C1 C 0.9151(7) 0.8330(3) 1.4595(11) 0.0244 Uani
C2 C 0.8678(7) 0.8093(3) 1.3057(10) 0.0205 Uani
C3 C 0.8656(7) 0.8364(4) 1.1602(11) 0.0243 Uani
H1 H 0.8946 0.8703 1.1601 0.0290 Uiso
C4 C 0.8215(8) 0.8143(4) 1.0168(12) 0.0289 Uani
H2 H 0.8225 0.8329 0.9210 0.0350 Uiso
C5 C 0.7748(7) 0.7635(4) 1.0145(11) 0.0254 Uani
C6 C 0.7763(7) 0.7372(4) 1.1584(10) 0.0266 Uani
H3 H 0.7458 0.7037 1.1588 0.0320 Uiso
C7 C 0.8222(7) 0.7592(3) 1.3045(10) 0.0258 Uani
H4 H 0.8222 0.7403 1.4001 0.0310 Uiso
C8 C 0.7269(7) 0.7423(4) 0.8595(11) 0.0251 Uani
H5 H 0.7298 0.7636 0.7692 0.0300 Uiso
C9 C 0.6796(8) 0.6954(4) 0.8357(11) 0.0265 Uani
H6 H 0.6743 0.6746 0.9260 0.0310 Uiso
C10 C 0.6347(7) 0.6734(4) 0.6766(11) 0.0237 Uani
C11 C 0.6190(8) 0.7048(3) 0.5392(12) 0.0264 Uani
H7 H 0.6358 0.7411 0.5426 0.0320 Uiso
C12 C 0.5775(8) 0.6804(4) 0.3961(11) 0.0276 Uani
H8 H 0.5673 0.7011 0.3029 0.0330 Uiso
C13 C 0.5683(7) 0.5990(3) 0.5202(10) 0.0236 Uani
H9 H 0.5528 0.5625 0.5133 0.0290 Uiso
C14 C 0.6073(7) 0.6195(3) 0.6682(9) 0.0220 Uani
H10 H 0.6152 0.5980 0.7598 0.0260 Uiso
C15 C -0.3209(7) 0.4387(3) 0.6046(10) 0.0212 Uani
C16 C -0.2290(7) 0.4600(3) 0.5530(10) 0.0222 Uani
C17 C -0.2168(8) 0.5135(4) 0.5206(13) 0.0342 Uani
H11 H -0.2675 0.5376 0.5342 0.0410 Uiso
C18 C -0.1305(8) 0.5328(3) 0.4678(13) 0.0322 Uani
H12 H -0.1235 0.5693 0.4481 0.0390 Uiso
C19 C -0.0552(8) 0.4970(4) 0.4450(11) 0.0262 Uani
C20 C -0.0655(7) 0.4426(3) 0.4796(12) 0.0263 Uani
H13 H -0.0144 0.4186 0.4673 0.0310 Uiso
C21 C -0.1506(8) 0.4245(3) 0.5316(11) 0.0270 Uani
H14 H -0.1570 0.3881 0.5533 0.0320 Uiso
C22 C 0.0375(8) 0.5173(4) 0.3885(12) 0.0288 Uani
H15 H 0.0384 0.5538 0.3636 0.0350 Uiso
C23 C 0.1186(7) 0.4896(3) 0.3697(11) 0.0214 Uani
H16 H 0.1188 0.4530 0.3937 0.0260 Uiso
C24 C 0.2085(7) 0.5118(4) 0.3139(10) 0.0232 Uani
C25 C 0.2934(7) 0.4800(3) 0.3245(10) 0.0230 Uani
H17 H 0.2918 0.4446 0.3595 0.0280 Uiso
C26 C 0.3826(7) 0.5016(3) 0.2817(9) 0.0196 Uani
H18 H 0.4405 0.4808 0.2947 0.0240 Uiso
C27 C 0.3012(7) 0.5810(4) 0.2053(10) 0.0214 Uani
H19 H 0.3020 0.6151 0.1598 0.0260 Uiso
C28 C 0.2117(7) 0.5628(3) 0.2523(11) 0.0240 Uani
H20 H 0.1555 0.5849 0.2419 0.0290 Uiso
Zn1A Zn -0.48833(8) 0.40863(3) 0.66638(10) 0.0180 Uani
Zn1C Zn 1.01167(8) 0.90863(3) 1.66638(10) 0.0180 Uani
O1C O 0.4519(5) 0.6188(3) -0.0465(7) 0.0239 Uani
O3A O 0.6064(5) 0.5291(2) 0.1208(8) 0.0236 Uani
O4A O 0.6707(5) 0.6107(2) 0.1290(7) 0.0224 Uani
O5 O 0.1272(7) 0.6541(3) 0.9568(14) 0.0568 Uani
N3 N 0.0335(7) 0.6742(3) 0.7146(14) 0.0487 Uani
C29 C 0.1158(9) 0.6589(4) 0.811(2) 0.0517 Uani
H21 H 0.1711 0.6511 0.7615 0.0620 Uiso
C30 C 0.0305(11) 0.6784(5) 0.5399(18) 0.0593 Uani
H22 H -0.0350 0.6898 0.4908 0.0890 Uiso
H23 H 0.0451 0.6439 0.4975 0.0890 Uiso
H24 H 0.0793 0.7041 0.5171 0.0890 Uiso
C31 C -0.0582(11) 0.6874(6) 0.782(2) 0.0638 Uani
H25 H -0.1104 0.6975 0.6967 0.0960 Uiso
H26 H -0.0447 0.7167 0.8567 0.0960 Uiso
H27 H -0.0790 0.6565 0.8373 0.0960 Uiso
loop_
_atom_site_aniso_label
_atom_site_aniso_U_11
_atom_site_aniso_U_22
_atom_site_aniso_U_33
_atom_site_aniso_U_23
_atom_site_aniso_U_13
_atom_site_aniso_U_12
Zn1 0.0150(4) 0.0225(4) 0.0164(4) -0.0003(4) 0.0017(3) -0.0003(4)
O1 0.027(4) 0.027(3) 0.018(3) -0.013(2) 0.004(3) -0.002(3)
O2 0.050(5) 0.039(4) 0.016(3) -0.004(3) -0.006(3) 0.005(3)
O3 0.012(3) 0.022(3) 0.038(3) 0.004(3) 0.008(3) -0.004(2)
O4 0.015(3) 0.020(3) 0.032(3) 0.003(2) 0.003(3) -0.001(2)
N1 0.013(4) 0.026(4) 0.022(4) 0.006(3) -0.001(3) -0.001(3)
N2 0.023(4) 0.023(4) 0.015(3) -0.004(3) -0.002(3) -0.002(3)
C1 0.028(5) 0.016(4) 0.029(5) -0.016(3) 0.004(4) 0.004(3)
C2 0.025(5) 0.017(4) 0.018(4) 0.002(3) -0.001(3) 0.008(3)
C3 0.013(4) 0.035(5) 0.025(5) 0.001(4) 0.003(4) -0.002(4)
C4 0.026(5) 0.034(5) 0.024(5) 0.000(4) -0.005(4) -0.001(4)
C5 0.020(5) 0.033(5) 0.023(4) -0.008(4) 0.003(4) -0.003(4)
C6 0.026(5) 0.027(4) 0.027(4) -0.002(3) 0.005(4) -0.011(4)
C7 0.028(5) 0.025(4) 0.023(4) -0.004(3) -0.001(4) 0.000(4)
C8 0.023(5) 0.031(5) 0.022(4) 0.003(4) 0.006(4) -0.001(4)
C9 0.028(5) 0.031(5) 0.019(4) 0.002(3) -0.001(4) -0.002(4)
C10 0.015(4) 0.036(5) 0.019(4) 0.002(4) -0.001(4) -0.003(4)
C11 0.026(5) 0.014(4) 0.038(5) -0.001(4) 0.001(4) -0.004(3)
C12 0.023(5) 0.038(5) 0.020(4) 0.003(4) -0.002(4) -0.007(4)
C13 0.020(4) 0.028(4) 0.021(4) -0.004(3) -0.003(3) 0.001(3)
C14 0.029(5) 0.023(4) 0.014(4) 0.008(3) 0.003(3) 0.001(3)
C15 0.023(5) 0.018(4) 0.018(4) -0.001(3) -0.011(4) 0.006(3)
C16 0.024(5) 0.023(4) 0.021(4) 0.005(3) 0.008(4) 0.004(3)
C17 0.021(5) 0.037(5) 0.048(6) 0.007(4) 0.016(5) 0.014(4)
C18 0.029(6) 0.011(4) 0.060(6) 0.006(4) 0.018(5) 0.002(4)
C19 0.018(5) 0.039(5) 0.021(4) 0.002(4) 0.001(4) -0.001(4)
C20 0.014(4) 0.021(4) 0.046(5) -0.003(4) 0.011(4) -0.007(3)
C21 0.029(5) 0.015(4) 0.039(5) 0.000(3) 0.012(4) 0.001(3)
C22 0.028(5) 0.022(4) 0.036(5) 0.003(4) 0.004(4) -0.007(4)
C23 0.020(5) 0.017(4) 0.028(4) 0.006(3) 0.006(4) 0.003(3)
C24 0.016(4) 0.038(5) 0.018(4) 0.002(3) 0.010(3) 0.006(4)
C25 0.018(4) 0.024(4) 0.029(4) -0.002(3) 0.010(4) 0.006(3)
C26 0.024(5) 0.016(3) 0.020(4) 0.010(3) 0.007(3) -0.002(3)
C27 0.011(4) 0.029(4) 0.022(4) 0.002(3) -0.004(3) 0.004(3)
C28 0.026(5) 0.016(4) 0.032(5) 0.002(3) 0.011(4) 0.004(3)
Zn1A 0.015 0.0225 0.0164 0.0003 0.0017 0.0003
Zn1C 0.015 0.0225 0.0164 0.0003 0.0017 0.0003
O1C 0.027 0.027 0.018 0.013 0.004 0.002
O3A 0.012 0.022 0.038 -0.004 0.008 0.004
O4A 0.015 0.02 0.032 -0.003 0.003 0.001
O5 0.033(5) 0.039(4) 0.099(7) 0.021(5) 0.012(5) 0.003(4)
N3 0.028(6) 0.021(4) 0.098(10) 0.008(4) 0.013(5) 0.004(4)
C29 0.029(6) 0.020(5) 0.106(11) 0.014(6) 0.010(7) -0.004(4)
C30 0.041(8) 0.049(7) 0.090(11) 0.001(7) 0.017(8) -0.005(6)
C31 0.043(8) 0.056(8) 0.099(12) 0.016(7) 0.032(8) 0.016(6)
loop_
_geom_bond_atom_site_label_1
_geom_bond_atom_site_label_2
_geom_bond_site_symmetry_1
_geom_bond_site_symmetry_2
Zn1 N1 1_555 1_555
O1 C1 1_555 1_555
O2 C1 1_555 1_555
O3 C15 1_555 1_555
O4 C15 1_555 1_555
N1 C12 1_555 1_555
N2 Zn1 1_555 1_555
C1 C2 1_555 1_555
C2 C3 1_555 1_555
C3 H1 1_555 1_555
C4 C3 1_555 1_555
H2 C4 1_555 1_555
C5 C4 1_555 1_555
C6 C5 1_555 1_555
H3 C6 1_555 1_555
C7 C2 1_555 1_555
H4 C7 1_555 1_555
C8 C5 1_555 1_555
H5 C8 1_555 1_555
C9 C8 1_555 1_555
H6 C9 1_555 1_555
C10 C9 1_555 1_555
C11 C10 1_555 1_555
H7 C11 1_555 1_555
C12 C11 1_555 1_555
H8 C12 1_555 1_555
C13 N1 1_555 1_555
H9 C13 1_555 1_555
C14 C10 1_555 1_555
H10 C14 1_555 1_555
C15 C16 1_555 1_555
C16 C17 1_555 1_555
C17 H11 1_555 1_555
C18 C17 1_555 1_555
H12 C18 1_555 1_555
C19 C18 1_555 1_555
C20 C19 1_555 1_555
H13 C20 1_555 1_555
C21 C16 1_555 1_555
H14 C21 1_555 1_555
C22 C19 1_555 1_555
H15 C22 1_555 1_555
C23 C22 1_555 1_555
H16 C23 1_555 1_555
C24 C23 1_555 1_555
C25 C24 1_555 1_555
H17 C25 1_555 1_555
C26 N2 1_555 1_555
H18 C26 1_555 1_555
C27 N2 1_555 1_555
H19 C27 1_555 1_555
C28 C24 1_555 1_555
H20 C28 1_555 1_555
O5 C29 1_555 1_555
N3 C29 1_555 1_555
C29 H21 1_555 1_555
C30 N3 1_555 1_555
H22 C30 1_555 1_555
H23 C30 1_555 1_555
H24 C30 1_555 1_555
C31 N3 1_555 1_555
H25 C31 1_555 1_555
H26 C31 1_555 1_555
H27 C31 1_555 1_555
Zn1A O3 1_555 1_555
Zn1C O1 1_555 1_555
O1C Zn1 1_555 1_555
O3A Zn1 1_555 1_555
O4A Zn1 1_555 1_555
O4 Zn1A 1_555 1_555
C6 C7 1_555 1_555
C13 C14 1_555 1_555
C20 C21 1_555 1_555
C25 C26 1_555 1_555
C27 C28 1_555 1_555

#END
