
#######################################################################
#
#                 Cambridge Crystallographic Data Centre
#                                CCDC 
#
#######################################################################
#
# If this CIF has been generated from an entry in the Cambridge 
# Structural Database, then it will include bibliographic, chemical, 
# crystal, experimental, refinement or atomic coordinate data resulting 
# from the CCDC's data processing and validation procedures.
#
#######################################################################

data_PANYEL
_chemical_formula_moiety         '(C42 H36 Cu2 N12 O10 S2)n'
_symmetry_cell_setting           monoclinic
_symmetry_space_group_name_H-M   'P 21/n'
_symmetry_Int_Tables_number      14
_space_group_name_Hall           '-P 2yn'
loop_
_symmetry_equiv_pos_site_id
_symmetry_equiv_pos_as_xyz
1 x,y,z
2 1/2-x,1/2+y,1/2-z
3 -x,-y,-z
4 1/2+x,1/2-y,1/2+z
_cell_length_a                   16.6304(3)
_cell_length_b                   12.4236(2)
_cell_length_c                   21.1103(3)
_cell_angle_alpha                90
_cell_angle_beta                 92.0990(10)
_cell_angle_gamma                90
_cell_volume                     4358.66
loop_
_atom_site_label
_atom_site_type_symbol
_atom_site_fract_x
_atom_site_fract_y
_atom_site_fract_z
Cu1 Cu 0.14678(3) 0.26485(4) 0.45167(2)
Cu2 Cu 0.63868(3) 0.78172(4) 0.43907(2)
S1 S 0.91056(5) 1.03513(7) 0.44861(4)
S2 S 0.41821(5) 0.52690(7) 0.44184(4)
O1 O 0.55243(14) 0.6751(2) 0.42346(12)
O2 O 1.05481(14) 1.16476(19) 0.43887(12)
O3 O 0.20159(14) 0.40200(19) 0.43667(11)
O4 O 0.69182(14) 0.9214(2) 0.42529(11)
O5 O 0.79984(15) 0.8594(2) 0.48009(11)
O6 O 0.31558(15) 0.3485(2) 0.48681(12)
O7 O 1.00566(16) 1.2864(2) 0.36966(13)
O8 O 0.49143(16) 0.7819(2) 0.35054(14)
N1 N 0.93625(17) 0.4618(2) 0.19508(13)
H1 H 0.959402 0.404519 0.181869
N2 N 1.07985(17) 0.6597(2) 0.01334(13)
N3 N 0.70410(16) 0.7150(2) 0.37115(13)
N4 N 0.20457(16) 0.1957(2) 0.38026(13)
N5 N 0.59033(17) 0.1717(2) 0.02649(14)
N6 N 0.90329(17) 0.6319(2) 0.20244(13)
N7 N 0.42839(17) -0.0411(2) 0.19092(13)
H2 H 0.449961 -0.097245 0.174801
N8 N 0.88347(17) 0.4652(2) 0.24285(13)
N9 N 0.37400(17) -0.0427(2) 0.23703(13)
N10 N 0.40105(17) 0.1286(2) 0.20748(13)
C1 C 0.7659(2) 0.9256(3) 0.44461(15)
C2 C 0.35946(19) 0.0618(3) 0.24511(15)
C3 C 0.30243(19) 0.1039(3) 0.29057(15)
C4 C 0.86561(19) 0.5699(3) 0.24491(16)
C5 C 0.99587(19) 0.5915(3) 0.11807(15)
C6 C 0.94677(19) 0.5613(3) 0.17160(15)
C7 C 0.2769(2) 0.4095(3) 0.45141(15)
C8 C 0.44385(19) 0.0608(3) 0.17395(15)
C9 C 0.80850(19) 0.6170(3) 0.28866(15)
C10 C 0.4982(2) 0.0953(3) 0.12442(15)
C11 C 0.2703(2) 0.0411(3) 0.33802(16)
H3 H 0.281061 -0.032318 0.340339
C12 C 0.9233(2) 1.1424(3) 0.39865(16)
C13 C 0.2217(2) 0.0901(3) 0.38196(16)
H4 H 0.200243 0.048157 0.413680
C14 C 1.0002(2) 1.2032(3) 0.40166(16)
C15 C 0.7159(2) 0.6085(3) 0.37207(16)
H5 H 0.688305 0.567283 0.400943
C16 C 0.4197(2) 0.6356(3) 0.39160(16)
C17 C 0.4935(2) 0.7035(3) 0.38703(16)
C18 C 0.7674(2) 0.5569(3) 0.33201(17)
H6 H 0.774297 0.482706 0.334233
C19 C 1.0443(2) 0.5206(3) 0.08571(16)
H7 H 1.049310 0.449279 0.098602
C20 C 0.7938(2) 0.7278(3) 0.28546(16)
H8 H 0.818841 0.770280 0.255720
C21 C 0.31902(19) 0.5013(3) 0.42176(15)
C22 C 0.2804(2) 0.2118(3) 0.28709(16)
H9 H 0.298124 0.254971 0.254405
C23 C 1.0850(2) 0.5577(3) 0.03402(16)
H10 H 1.117303 0.509808 0.012649
C24 C 0.81378(19) 1.0163(3) 0.41970(16)
C25 C 0.7417(2) 0.7728(3) 0.32706(16)
H11 H 0.731995 0.846444 0.324656
C26 C 0.2322(2) 0.2541(3) 0.33252(16)
H12 H 0.218274 0.326464 0.329881
C27 C 0.8557(2) 1.1616(3) 0.36130(17)
H13 H 0.851731 1.216209 0.331204
C28 C 0.5835(2) 0.0665(3) 0.03736(17)
H14 H 0.610141 0.018804 0.011455
C29 C 0.3467(2) 0.6515(3) 0.36100(18)
H15 H 0.336088 0.707033 0.332336
C30 C 0.5382(2) 0.0249(3) 0.08568(17)
H16 H 0.534873 -0.049033 0.091907
C31 C 0.7925(2) 1.0890(3) 0.37367(17)
H17 H 0.742329 1.090734 0.352807
C32 C 0.9919(2) 0.6980(3) 0.09758(18)
H18 H 0.961070 0.747971 0.118778
C33 C 1.0341(2) 0.7286(3) 0.04562(18)
H19 H 1.030791 0.799880 0.032238
C34 C 0.2893(2) 0.5739(3) 0.37802(18)
H20 H 0.236803 0.572270 0.361276
C35 C 0.5545(3) 0.2399(3) 0.0663(2)
H21 H 0.561154 0.313556 0.060504
C36 C 0.5086(3) 0.2048(3) 0.11512(19)
H22 H 0.484615 0.254190 0.141651
Cu1_2 Cu 1.14678(3) 1.26485(4) 0.45167(2)
Cu1B Cu 0.85322(3) 0.73515(4) 0.54833(2)
Cu1C Cu 0.64678(3) 0.23515(4) -0.04833(2)
Cu2B Cu 0.36132(3) 0.21828(4) 0.56093(2)
Cu2C Cu 1.13868(3) 0.71828(4) -0.06093(2)
O2_2 O 0.05481(14) 0.16476(19) 0.43887(12)
O5B O 0.20016(15) 0.1406(2) 0.51991(11)
O6B O 0.68442(15) 0.6515(2) 0.51319(12)
N2C N 0.57985(17) 0.8403(2) 0.51334(13)
N5C N 0.09033(17) 0.3283(2) 0.52649(14)
O9 O 0.6003(2) 0.4167(3) 0.3237(2)
N11 N 0.4944(2) 0.4812(3) 0.26295(18)
C37 C 0.4582(3) 0.5686(4) 0.2282(2)
H23 H 0.408179 0.587520 0.246608
H24 H 0.448476 0.547502 0.184893
H25 H 0.493715 0.629602 0.229922
C38 C 0.5667(3) 0.4890(4) 0.2914(2)
H26 H 0.594510 0.553362 0.286782
C39 C 0.4460(4) 0.3859(5) 0.2704(3)
H27 H 0.412012 0.395215 0.305800
H28 H 0.480477 0.324873 0.277845
H29 H 0.413339 0.374309 0.232611
O10 O 0.2768(3) -0.1281(3) 0.44865(18)
N12 N 0.2403(2) -0.2710(3) 0.50535(18)
C40 C 0.2908(4) -0.1970(5) 0.4912(3)
H30 H 0.340074 -0.194490 0.513478
C41 C 0.1651(4) -0.2854(6) 0.4701(3)
H31 H 0.156543 -0.225848 0.441649
H32 H 0.121862 -0.288699 0.498968
H33 H 0.166802 -0.351070 0.446267
C42 C 0.2544(5) -0.3491(5) 0.5545(3)
H34 H 0.255422 -0.419812 0.536311
H35 H 0.212155 -0.345036 0.584234
H36 H 0.305138 -0.334577 0.576041
loop_
_geom_bond_atom_site_label_1
_geom_bond_atom_site_label_2
_geom_bond_site_symmetry_1
_geom_bond_site_symmetry_2
Cu1 O3 1_555 1_555
Cu2 O1 1_555 1_555
S1 C12 1_555 1_555
S2 C16 1_555 1_555
O1 C17 1_555 1_555
O2 C14 1_555 1_555
O3 C7 1_555 1_555
O4 Cu2 1_555 1_555
O5 C1 1_555 1_555
O6 C7 1_555 1_555
O7 C14 1_555 1_555
O8 C17 1_555 1_555
N1 H1 1_555 1_555
N2 C23 1_555 1_555
N3 Cu2 1_555 1_555
N4 Cu1 1_555 1_555
N5 C28 1_555 1_555
N6 C4 1_555 1_555
N7 H2 1_555 1_555
N8 N1 1_555 1_555
N9 N7 1_555 1_555
N10 C2 1_555 1_555
C1 O4 1_555 1_555
C2 N9 1_555 1_555
C3 C2 1_555 1_555
C4 N8 1_555 1_555
C5 C6 1_555 1_555
C6 N1 1_555 1_555
C7 C21 1_555 1_555
C8 N7 1_555 1_555
C9 C4 1_555 1_555
C10 C8 1_555 1_555
C11 C3 1_555 1_555
H3 C11 1_555 1_555
C12 C14 1_555 1_555
C13 N4 1_555 1_555
H4 C13 1_555 1_555
C15 N3 1_555 1_555
H5 C15 1_555 1_555
C16 C17 1_555 1_555
C18 C9 1_555 1_555
H6 C18 1_555 1_555
C19 C5 1_555 1_555
H7 C19 1_555 1_555
C20 C9 1_555 1_555
H8 C20 1_555 1_555
C21 S2 1_555 1_555
C22 C3 1_555 1_555
H9 C22 1_555 1_555
C23 C19 1_555 1_555
H10 C23 1_555 1_555
C24 S1 1_555 1_555
C25 N3 1_555 1_555
H11 C25 1_555 1_555
C26 N4 1_555 1_555
H12 C26 1_555 1_555
C27 C12 1_555 1_555
H13 C27 1_555 1_555
C28 H14 1_555 1_555
C29 C16 1_555 1_555
H15 C29 1_555 1_555
C30 C10 1_555 1_555
H16 C30 1_555 1_555
C31 C24 1_555 1_555
H17 C31 1_555 1_555
C32 C5 1_555 1_555
H18 C32 1_555 1_555
C33 N2 1_555 1_555
H19 C33 1_555 1_555
C34 C21 1_555 1_555
H20 C34 1_555 1_555
C35 N5 1_555 1_555
H21 C35 1_555 1_555
C36 C10 1_555 1_555
H22 C36 1_555 1_555
O9 C38 1_555 1_555
N11 C37 1_555 1_555
C37 H23 1_555 1_555
H24 C37 1_555 1_555
H25 C37 1_555 1_555
C38 N11 1_555 1_555
H26 C38 1_555 1_555
C39 N11 1_555 1_555
H27 C39 1_555 1_555
H28 C39 1_555 1_555
H29 C39 1_555 1_555
O10 C40 1_555 1_555
N12 C40 1_555 1_555
C40 H30 1_555 1_555
C41 N12 1_555 1_555
H31 C41 1_555 1_555
H32 C41 1_555 1_555
H33 C41 1_555 1_555
C42 N12 1_555 1_555
H34 C42 1_555 1_555
H35 C42 1_555 1_555
H36 C42 1_555 1_555
Cu1_2 O2 1_555 1_555
Cu1B O5 1_555 1_555
Cu1C N5 1_555 1_555
Cu2B O6 1_555 1_555
Cu2C N2 1_555 1_555
O2_2 Cu1 1_555 1_555
O5B Cu1 1_555 1_555
O6B Cu2 1_555 1_555
N2C Cu2 1_555 1_555
N5C Cu1 1_555 1_555
N6 C6 1_555 1_555
N10 C8 1_555 1_555
C1 C24 1_555 1_555
C11 C13 1_555 1_555
C15 C18 1_555 1_555
C20 C25 1_555 1_555
C22 C26 1_555 1_555
C27 C31 1_555 1_555
C28 C30 1_555 1_555
C29 C34 1_555 1_555
C32 C33 1_555 1_555
C35 C36 1_555 1_555

#END
