
#######################################################################
#
#                 Cambridge Crystallographic Data Centre
#                                CCDC 
#
#######################################################################
#
# If this CIF has been generated from an entry in the Cambridge 
# Structural Database, then it will include bibliographic, chemical, 
# crystal, experimental, refinement or atomic coordinate data resulting 
# from the CCDC's data processing and validation procedures.
#
#######################################################################

data_FODZUU
_chemical_formula_moiety         '(C6 H22 Al3 N4 O15 P3 1-)n'
_symmetry_cell_setting           monoclinic
_symmetry_space_group_name_H-M   'P 21/n'
_symmetry_Int_Tables_number      14
_space_group_name_Hall           '-P 2yn'
loop_
_symmetry_equiv_pos_site_id
_symmetry_equiv_pos_as_xyz
1 x,y,z
2 1/2-x,1/2+y,1/2-z
3 -x,-y,-z
4 1/2+x,1/2-y,1/2+z
_cell_length_a                   8.488(6)
_cell_length_b                   17.721(18)
_cell_length_c                   9.024(6)
_cell_angle_alpha                90
_cell_angle_beta                 106.96(5)
_cell_angle_gamma                90
_cell_volume                     1298.32
loop_
_atom_site_label
_atom_site_type_symbol
_atom_site_fract_x
_atom_site_fract_y
_atom_site_fract_z
N1 N 0.4542(11) 0.0100(6) -0.9671(11)
H6 H 0.4410 -0.0391 -0.9479
C1 C 0.3258(17) 0.0532(10) -0.9192(6)
H7 H 0.2167 0.0359 -0.9723
H8 H 0.3343 0.1041 -0.9526
C2 C 0.361(2) 0.0634(4) -0.7459(6)
H9 H 0.4181 0.1101 -0.7142
H10 H 0.2496 0.0732 -0.7453
H12 H 0.3037 -0.0187 -0.6089
N2 N 0.5197(13) 0.0284(6) -0.4994(13)
H13 H 0.4689 0.0641 -0.4593
H14 H 0.6043 0.0516 -0.5217
C4 C 0.416(2) 0.0266(8) -0.6291(17)
H15 H 0.3378 -0.0065 -0.6970
N1B N 0.5458(11) -0.0100(6) -1.0329(11)
H6B H 0.5590 0.0391 -1.0521
C1B C 0.6742(17) -0.0532(10) -1.0808(6)
H7B H 0.7833 -0.0359 -1.0277
H8B H 0.6657 -0.1041 -1.0474
C2B C 0.639(2) -0.0634(4) -0.2541(6)
H9B H 0.5819 -0.1101 -0.2858
H10B H 0.7504 -0.0732 -0.2547
H12B H 0.6963 0.0187 -0.3911
N2B N 0.4803(13) -0.0284(6) -0.5006(13)
H13B H 0.5311 -0.0641 -0.5407
H14B H 0.3957 -0.0516 -0.4783
C4B C 0.584(2) -0.0266(8) -0.3709(17)
H15B H 0.6622 0.0065 -0.3030
Al1 Al -0.01674(18) 0.17661(9) -0.19223(17)
Al2 Al -0.07225(18) 0.29447(8) 0.20718(16)
Al3 Al 0.37140(18) 0.39251(9) -0.17039(16)
P1 P 0.20442(16) 0.28997(8) 0.02454(14)
P2 P -0.26636(16) 0.16925(8) 0.00012(14)
P3 P 0.15737(15) 0.07138(7) -0.36251(15)
O1 O 0.1631(4) 0.2233(2) -0.0889(4)
O2 O 0.2394(4) 0.35908(19) -0.0572(4)
O3 O 0.0598(4) 0.3065(2) 0.0846(4)
O4 O 0.3576(4) 0.2689(2) 0.1570(4)
O5 O -0.1259(4) 0.1473(2) -0.0683(4)
O6 O -0.4308(4) 0.1588(2) -0.1204(4)
O7 O -0.2566(5) 0.1141(2) 0.1317(4)
O8 O -0.2463(4) 0.25038(19) 0.0566(4)
O9 O 0.0444(4) 0.0944(2) -0.2634(4)
O10 O 0.0656(4) 0.0837(2) -0.5312(4)
O11 O 0.3130(4) 0.1187(2) -0.3171(4)
O12 O 0.2088(4) -0.00927(19) -0.3300(4)
O13 O -0.0339(4) 0.2034(2) 0.3099(4)
H1 H 0.0628 0.2045 0.3726
O14 O 0.5215(12) 0.4405(6) -0.3079(10)
H2 H 0.508(12) 0.426(5) -0.408(3)
H3 H 0.572(10) 0.467(3) -0.221(5)
Al1C Al 0.48326(18) 0.32339(9) 0.30777(17)
Al2C Al -0.57225(18) 0.20553(8) -0.29282(16)
Al2C_2 Al 0.42775(18) 0.20553(8) -0.29282(16)
Al3C Al -0.12860(18) 0.10749(9) 0.32961(16)
Al3C_2 Al -0.12860(18) 0.10749(9) -0.67039(16)
Al3A Al 0.12860(18) -0.10749(9) -0.32961(16)
O4C O -0.1424(4) 0.2311(2) -0.3430(4)
O6C O 0.0692(4) 0.3412(2) 0.3796(4)
O7C O 0.2434(5) 0.3859(2) -0.3683(4)
O10C O 0.5656(4) 0.4163(2) -0.0312(4)
O11C O -0.1870(4) 0.3813(2) 0.1829(4)
O12A O 0.2912(4) 0.49073(19) -0.1700(4)
O13C O 0.4661(4) 0.2966(2) -0.1901(4)
H1C H 0.5628 0.2955 -0.1274
loop_
_geom_bond_atom_site_label_1
_geom_bond_atom_site_label_2
_geom_bond_site_symmetry_1
_geom_bond_site_symmetry_2
Al1 O1 1_555 1_555
Al2 O3 1_555 1_555
Al3 O2 1_555 1_555
P1 O1 1_555 1_555
P2 O5 1_555 1_555
P3 O9 1_555 1_555
O2 P1 1_555 1_555
O3 P1 1_555 1_555
O4 P1 1_555 1_555
O5 Al1 1_555 1_555
O6 P2 1_555 1_555
O7 P2 1_555 1_555
O8 Al2 1_555 1_555
O9 Al1 1_555 1_555
O10 P3 1_555 1_555
O11 P3 1_555 1_555
O12 P3 1_555 1_555
O13 Al2 1_555 1_555
H1 O13 1_555 1_555
O14 Al3 1_555 1_555
H2 O14 1_555 1_555
H3 O14 1_555 1_555
N1 H6 1_555 1_555
C1 N1 1_555 1_555
H7 C1 1_555 1_555
H8 C1 1_555 1_555
C2 C1 1_555 1_555
H9 C2 1_555 1_555
H10 C2 1_555 1_555
H12 C4 1_555 1_555
N2 H13 1_555 1_555
H14 N2 1_555 1_555
C4 C2 1_555 1_555
H15 C4 1_555 1_555
Al1C O4 1_555 1_555
Al2C O6 1_555 1_555
Al2C_2 O11 1_555 1_555
Al3C O7 1_555 1_555
Al3C_2 O10 1_555 1_555
Al3A O12 1_555 1_555
O4C Al1 1_555 1_555
O6C Al2 1_555 1_555
O7C Al3 1_555 1_555
O10C Al3 1_555 1_555
O11C Al2 1_555 1_555
O12A Al3 1_555 1_555
O13C Al3 1_555 1_555
H1C O13C 1_555 1_555
N1B N1 1_555 1_555
H6B N1B 1_555 1_555
C1B N1B 1_555 1_555
H7B C1B 1_555 1_555
H8B C1B 1_555 1_555
C2B H9B 1_555 1_555
H10B C2B 1_555 1_555
H12B C4B 1_555 1_555
N2B N2 1_555 1_555
H13B N2B 1_555 1_555
H14B N2B 1_555 1_555
C4B N2 1_555 1_555
H15B C4B 1_555 1_555
P2 O8 1_555 1_555
O13 Al3C 1_555 1_555
N2 C4 1_555 1_555
C4 N2B 1_555 1_555
Al2C_2 O13C 1_555 1_555
C2B C4B 1_555 1_555
N2B C4B 1_555 1_555

#END
