
#######################################################################
#
#                 Cambridge Crystallographic Data Centre
#                                CCDC 
#
#######################################################################
#
# If this CIF has been generated from an entry in the Cambridge 
# Structural Database, then it will include bibliographic, chemical, 
# crystal, experimental, refinement or atomic coordinate data resulting 
# from the CCDC's data processing and validation procedures.
#
#######################################################################

data_FAGQAI
_chemical_formula_moiety         '(C69 H41 Cu3 N1 O15)n'
_symmetry_cell_setting           monoclinic
_symmetry_space_group_name_H-M   'P 21/c'
_symmetry_Int_Tables_number      14
_space_group_name_Hall           '-P 2ybc'
loop_
_symmetry_equiv_pos_site_id
_symmetry_equiv_pos_as_xyz
1 x,y,z
2 -x,1/2+y,1/2-z
3 -x,-y,-z
4 x,1/2-y,1/2+z
_cell_length_a                   17.1161(6)
_cell_length_b                   38.6862(15)
_cell_length_c                   25.6467(9)
_cell_angle_alpha                90
_cell_angle_beta                 101.441(2)
_cell_angle_gamma                90
_cell_volume                     16644.7
loop_
_atom_site_label
_atom_site_type_symbol
_atom_site_fract_x
_atom_site_fract_y
_atom_site_fract_z
Cu1 Cu -0.05980(4) 1.26600(2) 1.20506(3)
Cu2 Cu 0.07217(4) 1.25232(2) 1.27420(3)
Cu3 Cu 0.00609(3) 0.96601(2) 0.49967(2)
O1 O 0.11504(17) 0.97656(9) 0.49088(12)
O2 O 0.8843(2) 0.78903(9) 0.26432(16)
O3 O 0.9950(2) 0.79992(8) 0.32421(14)
O4 O 0.8947(2) 1.23100(9) 0.24423(17)
O5 O 1.0088(3) 1.21751(9) 0.30243(15)
O6 O 0.03870(18) 0.97130(9) 0.57630(12)
O7 O -0.0210(3) 1.22885(10) 1.16429(15)
O8 O -0.1656(2) 1.27508(10) 1.14693(17)
H1 H -0.1841 1.2535 1.1296
H2 H -0.1543 1.2914 1.1207
O9 O 0.1799(2) 1.24226(10) 1.33063(17)
H3 H 0.2169 1.2298 1.3133
H4 H 0.1679 1.2284 1.3596
O10 O 0.0917(2) 1.21834(9) 1.22207(18)
O11 O 0.0779(2) 0.80083(8) 1.24328(16)
O12 O -0.0326(3) 0.78817(10) 1.18361(14)
O13 O 0.0247(2) 0.91140(9) 0.50032(13)
N1 N 0.1118(5) 0.8656(2) 0.5062(3)
C1 C 0.1414(3) 1.00664(15) 0.48752(18)
C2 C 0.2239(3) 1.00967(13) 0.47529(18)
C3 C 0.2563(3) 1.04156(14) 0.4699(2)
H5 H 0.2282 1.0617 0.4751
C4 C 0.3325(3) 1.04374(14) 0.4566(2)
H6 H 0.3551 1.0655 0.4525
C5 C 0.3731(3) 1.01427(14) 0.4496(2)
C6 C 0.3408(3) 0.98260(15) 0.4563(2)
H7 H 0.3699 0.9624 0.4526
C7 C 0.2649(3) 0.97993(14) 0.4688(2)
H8 H 0.2424 0.9581 0.4727
C8 C 0.4505(4) 1.01649(14) 0.4352(2)
C9 C 0.5167(4) 1.01629(14) 0.4224(2)
C10 C 0.5912(3) 1.01511(13) 0.40848(19)
C11 C 0.6267(3) 0.98374(13) 0.40344(19)
H9 H 0.6012 0.9632 0.4101
C12 C 0.7017(3) 0.98250(13) 0.38819(19)
C13 C 0.7401(3) 1.01274(13) 0.3797(2)
H10 H 0.7911 1.0119 0.3712
C14 C 0.7037(3) 1.04402(13) 0.3836(2)
C15 C 0.6288(3) 1.04535(13) 0.39817(19)
H11 H 0.6041 1.0668 0.4009
C16 C 0.7391(3) 0.94935(15) 0.3819(2)
C17 C 0.7710(3) 0.92336(16) 0.3724(2)
C18 C 0.8080(4) 0.89286(13) 0.3594(2)
C19 C 0.7659(4) 0.87078(18) 0.3210(3)
H12 H 0.7116 0.8747 0.3070
C20 C 0.8053(4) 0.84279(17) 0.3038(3)
H13 H 0.7774 0.8284 0.2768
C21 C 0.8825(3) 0.83564(13) 0.3246(2)
C22 C 0.9225(3) 0.85646(14) 0.3635(2)
H14 H 0.9756 0.8514 0.3794
C23 C 0.8855(4) 0.88521(14) 0.3799(2)
H15 H 0.9148 0.8998 0.4059
C24 C 0.9232(4) 0.80515(13) 0.3028(2)
C25 C 0.7427(3) 1.07495(16) 0.3715(2)
C26 C 0.7757(3) 1.09952(16) 0.3596(2)
C27 C 0.8160(4) 1.12943(14) 0.3429(3)
C28 C 0.8967(4) 1.13352(15) 0.3582(2)
H16 H 0.9261 1.1171 0.3811
C29 C 0.9365(4) 1.16144(15) 0.3407(2)
H17 H 0.9918 1.1642 0.3523
C30 C 0.8924(4) 1.18521(14) 0.3057(2)
C31 C 0.8116(4) 1.18177(16) 0.2899(3)
H18 H 0.7827 1.1977 0.2659
C32 C 0.7709(4) 1.15383(19) 0.3099(3)
H19 H 0.7151 1.1520 0.3010
C33 C 0.9334(4) 1.21407(14) 0.2817(3)
C34 C 0.0425(3) 1.00012(16) 0.59874(18)
C35 C 0.0623(3) 0.99975(14) 0.6590(2)
C36 C 0.0722(4) 0.96915(15) 0.6871(2)
H20 H 0.0695 0.9481 0.6686
C37 C 0.0859(4) 0.96900(16) 0.7416(3)
H21 H 0.0928 0.9478 0.7599
C38 C 0.0897(4) 0.99975(17) 0.7701(2)
C39 C 0.0859(4) 1.03011(17) 0.7425(2)
H22 H 0.0932 1.0511 0.7612
C40 C 0.0713(3) 1.03042(15) 0.6869(2)
H23 H 0.0676 1.0516 0.6686
C41 C 0.0985(4) 1.00008(15) 0.8269(3)
C42 C 0.1030(4) 1.00073(14) 0.8732(3)
C43 C 0.1044(4) 1.00226(16) 0.9304(2)
C44 C 0.1026(4) 1.03386(15) 0.9547(2)
H24 H 0.1013 1.0543 0.9348
C45 C 0.1028(4) 1.03539(14) 1.0084(2)
C46 C 0.1044(4) 1.00551(15) 1.0371(2)
H25 H 0.1046 1.0067 1.0738
C47 C 0.1058(4) 0.97360(16) 1.0130(2)
C48 C 0.1039(4) 0.97178(14) 0.9595(2)
H26 H 0.1023 0.9502 0.9424
C49 C 0.1003(4) 1.06868(18) 1.0342(2)
C50 C 0.0929(4) 1.09545(18) 1.0571(3)
C51 C 0.0827(5) 1.12562(16) 1.0857(3)
C52 C 0.0184(5) 1.14644(18) 1.0701(2)
H27 H -0.0178 1.1413 1.0384
C53 C 0.0044(4) 1.17506(17) 1.0995(3)
H28 H -0.0411 1.1888 1.0883
C54 C 0.0583(4) 1.18299(14) 1.1453(3)
C55 C 0.1249(5) 1.16354(19) 1.1613(3)
H29 H 0.1627 1.1699 1.1916
C56 C 0.1369(5) 1.13391(19) 1.1322(3)
H30 H 0.1814 1.1197 1.1441
C57 C 0.0427(4) 1.21216(15) 1.1798(3)
C58 C 0.1008(4) 0.94204(17) 1.0441(2)
C59 C 0.0902(4) 0.91753(18) 1.0687(3)
C60 C 0.0774(5) 0.88846(17) 1.1000(3)
C61 C 0.0111(5) 0.86871(18) 1.0853(3)
H31 H -0.0252 0.8737 1.0536
C62 C -0.0034(4) 0.84085(16) 1.1174(3)
H32 H -0.0489 0.8270 1.1067
C63 C 0.0485(4) 0.83392(14) 1.1641(2)
C64 C 0.1146(4) 0.85290(16) 1.1788(2)
H33 H 0.1502 0.8475 1.2106
C65 C 0.1320(4) 0.88122(18) 1.1469(3)
H34 H 0.1786 0.8945 1.1572
C66 C 0.0304(4) 0.80502(14) 1.1989(3)
C67 C 0.0943(5) 0.89976(19) 0.5063(2)
H35 H 0.1367 0.9156 0.5111
C68 C 0.0479(7) 0.8390(2) 0.5006(4)
H36 H 0.0005 0.8490 0.5098
H37 H 0.0660 0.8197 0.5242
H38 H 0.0357 0.8308 0.4641
C69 C 0.2057(7) 0.8585(3) 0.5173(4)
H39 H 0.2187 0.8446 0.4888
H40 H 0.2215 0.8464 0.5508
H41 H 0.2339 0.8804 0.5190
O14 O 0.10507(18) 1.03418(9) 0.49134(12)
O15 O 0.02957(17) 1.02915(9) 0.57670(12)
Cu1_2 Cu 0.94020(4) 1.26600(2) 0.20506(3)
Cu1A Cu 0.05980(4) 0.76600(2) 1.29494(3)
Cu1A_2 Cu 1.05980(4) 0.76600(2) 0.29494(3)
Cu2_2 Cu 1.07217(4) 1.25232(2) 0.27420(3)
Cu2A Cu -0.07217(4) 0.75232(2) 1.22580(3)
Cu2A_2 Cu 0.92783(4) 0.75232(2) 0.22580(3)
Cu3B Cu -0.00609(3) 1.03399(2) 0.50033(2)
O2A O 0.1157(2) 1.28903(9) 1.23568(16)
O3A O 0.0050(2) 1.29992(8) 1.17579(14)
O4_2 O -0.1053(2) 1.23100(9) 1.24423(17)
O5_2 O 0.0088(3) 1.21751(9) 1.30243(15)
O11A O -0.0779(2) 1.30083(8) 1.25672(16)
O12A O 0.0326(3) 1.28817(10) 1.31639(14)
O14B O -0.10507(18) 0.96582(9) 0.50866(12)
O15B O -0.02957(17) 0.97085(9) 0.42330(12)
loop_
_geom_bond_atom_site_label_1
_geom_bond_atom_site_label_2
_geom_bond_site_symmetry_1
_geom_bond_site_symmetry_2
Cu1 O7 1_555 1_555
Cu2 O9 1_555 1_555
Cu3 O1 1_555 1_555
O1 C1 1_555 1_555
O2 C24 1_555 1_555
O3 C24 1_555 1_555
O4 C33 1_555 1_555
O5 C33 1_555 1_555
O6 Cu3 1_555 1_555
O7 C57 1_555 1_555
O8 Cu1 1_555 1_555
H1 O8 1_555 1_555
H2 O8 1_555 1_555
O9 H3 1_555 1_555
H4 O9 1_555 1_555
O10 Cu2 1_555 1_555
O11 C66 1_555 1_555
O12 C66 1_555 1_555
O13 Cu3 1_555 1_555
N1 C67 1_555 1_555
C1 C2 1_555 1_555
C2 C3 1_555 1_555
C3 H5 1_555 1_555
C4 C3 1_555 1_555
H6 C4 1_555 1_555
C5 C4 1_555 1_555
C6 C5 1_555 1_555
H7 C6 1_555 1_555
C7 C2 1_555 1_555
H8 C7 1_555 1_555
C8 C5 1_555 1_555
C9 C8 1_555 1_555
C10 C9 1_555 1_555
C11 C10 1_555 1_555
H9 C11 1_555 1_555
C12 C11 1_555 1_555
C13 C12 1_555 1_555
H10 C13 1_555 1_555
C14 C13 1_555 1_555
C15 C10 1_555 1_555
H11 C15 1_555 1_555
C16 C12 1_555 1_555
C17 C16 1_555 1_555
C18 C17 1_555 1_555
C19 C18 1_555 1_555
H12 C19 1_555 1_555
C20 C19 1_555 1_555
H13 C20 1_555 1_555
C21 C20 1_555 1_555
C22 C21 1_555 1_555
H14 C22 1_555 1_555
C23 C18 1_555 1_555
H15 C23 1_555 1_555
C24 C21 1_555 1_555
C25 C14 1_555 1_555
C26 C25 1_555 1_555
C27 C26 1_555 1_555
C28 C27 1_555 1_555
H16 C28 1_555 1_555
C29 C28 1_555 1_555
H17 C29 1_555 1_555
C30 C29 1_555 1_555
C31 C30 1_555 1_555
H18 C31 1_555 1_555
C32 C27 1_555 1_555
H19 C32 1_555 1_555
C33 C30 1_555 1_555
C34 O6 1_555 1_555
C35 C34 1_555 1_555
C36 C35 1_555 1_555
H20 C36 1_555 1_555
C37 C36 1_555 1_555
H21 C37 1_555 1_555
C38 C37 1_555 1_555
C39 C38 1_555 1_555
H22 C39 1_555 1_555
C40 C35 1_555 1_555
H23 C40 1_555 1_555
C41 C38 1_555 1_555
C42 C41 1_555 1_555
C43 C42 1_555 1_555
C44 C43 1_555 1_555
H24 C44 1_555 1_555
C45 C44 1_555 1_555
C46 C45 1_555 1_555
H25 C46 1_555 1_555
C47 C46 1_555 1_555
C48 C43 1_555 1_555
H26 C48 1_555 1_555
C49 C45 1_555 1_555
C50 C49 1_555 1_555
C51 C50 1_555 1_555
C52 C51 1_555 1_555
H27 C52 1_555 1_555
C53 C52 1_555 1_555
H28 C53 1_555 1_555
C54 C53 1_555 1_555
C55 C54 1_555 1_555
H29 C55 1_555 1_555
C56 C51 1_555 1_555
H30 C56 1_555 1_555
C57 O10 1_555 1_555
C58 C47 1_555 1_555
C59 C58 1_555 1_555
C60 C59 1_555 1_555
C61 C60 1_555 1_555
H31 C61 1_555 1_555
C62 C61 1_555 1_555
H32 C62 1_555 1_555
C63 C62 1_555 1_555
C64 C63 1_555 1_555
H33 C64 1_555 1_555
C65 C60 1_555 1_555
H34 C65 1_555 1_555
C66 C63 1_555 1_555
C67 O13 1_555 1_555
H35 C67 1_555 1_555
C68 N1 1_555 1_555
H36 C68 1_555 1_555
H37 C68 1_555 1_555
H38 C68 1_555 1_555
C69 N1 1_555 1_555
H39 C69 1_555 1_555
H40 C69 1_555 1_555
H41 C69 1_555 1_555
O14 C1 1_555 1_555
O15 C34 1_555 1_555
Cu1_2 O4 1_555 1_555
Cu1A O11 1_555 1_555
Cu1A_2 O3 1_555 1_555
Cu2_2 O5 1_555 1_555
Cu2A O12 1_555 1_555
Cu2A_2 O2 1_555 1_555
Cu3B O14 1_555 1_555
O2A Cu2 1_555 1_555
O3A Cu1 1_555 1_555
O4_2 Cu1 1_555 1_555
O5_2 Cu2 1_555 1_555
O11A Cu1 1_555 1_555
O12A Cu2 1_555 1_555
O14B Cu3 1_555 1_555
O15B Cu3 1_555 1_555
C6 C7 1_555 1_555
C14 C15 1_555 1_555
C22 C23 1_555 1_555
C31 C32 1_555 1_555
C39 C40 1_555 1_555
C47 C48 1_555 1_555
C54 C57 1_555 1_555
C55 C56 1_555 1_555
C64 C65 1_555 1_555
O15 Cu3B 1_555 1_555

#END
