
#######################################################################
#
#                 Cambridge Crystallographic Data Centre
#                                CCDC 
#
#######################################################################
#
# If this CIF has been generated from an entry in the Cambridge 
# Structural Database, then it will include bibliographic, chemical, 
# crystal, experimental, refinement or atomic coordinate data resulting 
# from the CCDC's data processing and validation procedures.
#
#######################################################################

data_OTEGOL01
_chemical_formula_moiety         '(C16 H8 In2 O10)n'
_symmetry_cell_setting           tetragonal
_symmetry_space_group_name_H-M   'I 41 2 2'
_symmetry_Int_Tables_number      98
_space_group_name_Hall           'I 4bw 2bw'
loop_
_symmetry_equiv_pos_site_id
_symmetry_equiv_pos_as_xyz
1 x,y,z
2 -y,1/2+x,1/4+z
3 1/2-x,1/2-y,1/2+z
4 1/2+y,-x,3/4+z
5 x,1/2-y,1/4-z
6 1/2+y,1/2+x,1/2-z
7 1/2-x,y,3/4-z
8 -y,-x,-z
9 1/2+x,1/2+y,1/2+z
10 1/2-y,x,3/4+z
11 -x,-y,z
12 y,1/2-x,1/4+z
13 1/2+x,-y,3/4-z
14 y,x,-z
15 -x,1/2+y,1/4-z
16 1/2-y,1/2-x,1/2-z
_cell_length_a                   15.46363(5)
_cell_length_b                   15.46363(5)
_cell_length_c                   12.29044(10)
_cell_angle_alpha                90
_cell_angle_beta                 90
_cell_angle_gamma                90
_cell_volume                     2938.94
loop_
_atom_site_label
_atom_site_type_symbol
_atom_site_fract_x
_atom_site_fract_y
_atom_site_fract_z
_atom_site_U_iso_or_equiv
_atom_site_thermal_displace_type
In1 In 0.6859(2) 0.3141(2) 0.50000 0.0400 Uiso
O1 O 0.7573(2) 0.25000 0.62500 0.0484 Uiso
O2 O 0.6126(4) 0.3828(4) 0.6166(3) 0.0484 Uiso
O3 O 0.5939(4) 0.2931(3) 0.7540(4) 0.0484 Uiso
C1 C 0.5849(3) 0.3642(2) 0.7084(2) 0.0431 Uiso
C2 C 0.53782(10) 0.43117(8) 0.7675(2) 0.0431 Uiso
C3 C 0.50000 0.50000 0.7105(3) 0.0431 Uiso
C4 C 0.53782(10) 0.43117(8) 0.88155(15) 0.0431 Uiso
C5 C 0.50000 0.50000 0.93859(14) 0.0431 Uiso
H1 H 0.8154(5) 0.25000 0.62500 0.0484 Uiso
H2 H 0.50000 0.50000 0.6252(4) 0.0431 Uiso
H3 H 0.5661(2) 0.3797(2) 0.9242(2) 0.0431 Uiso
O2G O 0.6172(4) 0.3874(4) 1.3834(3) 0.0484 Uiso
O3G O 0.7069(3) 0.4061(4) 1.2460(4) 0.0484 Uiso
C1G C 0.6358(2) 0.4151(3) 1.2916(2) 0.0431 Uiso
C2G C 0.56883(8) 0.46218(10) 1.2325(2) 0.0431 Uiso
C3G C 0.50000 0.50000 1.2895(3) 0.0431 Uiso
C4G C 0.56883(8) 0.46218(10) 1.11845(15) 0.0431 Uiso
C5G C 0.50000 0.50000 1.06141(14) 0.0431 Uiso
H2G H 0.50000 0.50000 1.3748(4) 0.0431 Uiso
H3G H 0.6203(2) 0.4339(2) 1.0758(2) 0.0431 Uiso
O2J O 0.3874(4) 0.6172(4) 0.6166(3) 0.0484 Uiso
O3J O 0.4061(4) 0.7069(3) 0.7540(4) 0.0484 Uiso
C1J C 0.4151(3) 0.6358(2) 0.7084(2) 0.0431 Uiso
C2J C 0.46218(10) 0.56883(8) 0.7675(2) 0.0431 Uiso
C4J C 0.46218(10) 0.56883(8) 0.88155(15) 0.0431 Uiso
H3J H 0.4339(2) 0.6203(2) 0.9242(2) 0.0431 Uiso
O2M O 0.3828(4) 0.6126(4) 1.3834(3) 0.0484 Uiso
O3M O 0.2931(3) 0.5939(4) 1.2460(4) 0.0484 Uiso
C1M C 0.3642(2) 0.5849(3) 1.2916(2) 0.0431 Uiso
C2M C 0.43117(8) 0.53782(10) 1.2325(2) 0.0431 Uiso
C4M C 0.43117(8) 0.53782(10) 1.11845(15) 0.0431 Uiso
H3M H 0.3797(2) 0.5661(2) 1.0758(2) 0.0431 Uiso
In1A In 0.6859(2) 0.1859(2) 0.75000 0.0400 Uiso
O1C O 0.75000 0.2427(2) 0.37500 0.0484 Uiso
H1C H 0.75000 0.1846(5) 0.37500 0.0484 Uiso
In1_2 In 0.6859(2) 0.3141(2) 1.50000 0.0400 Uiso
In1C In 0.8141(2) 0.3141(2) 0.25000 0.0400 Uiso
In1C_2 In 0.8141(2) 0.3141(2) 1.25000 0.0400 Uiso
In1I In 0.1859(2) 0.6859(2) 1.25000 0.0400 Uiso
In1J In 0.3141(2) 0.6859(2) 0.50000 0.0400 Uiso
In1J_2 In 0.3141(2) 0.6859(2) 1.50000 0.0400 Uiso
In1K In 0.3141(2) 0.8141(2) 0.75000 0.0400 Uiso
O1A O 0.75000 0.2573(2) 0.87500 0.0484 Uiso
O2A O 0.6172(4) 0.1126(4) 0.8666(3) 0.0484 Uiso
O2D O 0.6126(4) 0.1172(4) 0.6334(3) 0.0484 Uiso
O2G_2 O 0.6172(4) 0.3874(4) 0.3834(3) 0.0484 Uiso
O3C O 0.7931(3) 0.4061(4) 0.5040(4) 0.0484 Uiso
O3D O 0.5939(4) 0.2069(3) 0.4960(4) 0.0484 Uiso
O3E O 0.7931(3) 0.0939(4) 0.7460(4) 0.0484 Uiso
loop_
_geom_bond_atom_site_label_1
_geom_bond_atom_site_label_2
_geom_bond_site_symmetry_1
_geom_bond_site_symmetry_2
In1 O1 1_555 1_555
O1 H1 1_555 1_555
O2 In1 1_555 1_555
O3 C1 1_555 1_555
C1 O2 1_555 1_555
C2 C1 1_555 1_555
C3 C2 1_555 1_555
C4 C2 1_555 1_555
C5 C4 1_555 1_555
H2 C3 1_555 1_555
H3 C4 1_555 1_555
O2G C1G 1_555 1_555
O3G C1G 1_555 1_555
C1G C2G 1_555 1_555
C2G C3G 1_555 1_555
C3G H2G 1_555 1_555
C4G C2G 1_555 1_555
C5G C5 1_555 1_555
H3G C4G 1_555 1_555
O2J C1J 1_555 1_555
O3J C1J 1_555 1_555
C1J C2J 1_555 1_555
C2J C3 1_555 1_555
C4J C5 1_555 1_555
H3J C4J 1_555 1_555
O2M C1M 1_555 1_555
O3M C1M 1_555 1_555
C1M C2M 1_555 1_555
C2M C3G 1_555 1_555
C4M C5G 1_555 1_555
H3M C4M 1_555 1_555
In1A O1 1_555 1_555
O1C In1 1_555 1_555
H1C O1C 1_555 1_555
In1_2 O2G 1_555 1_555
In1C O1C 1_555 1_555
In1C_2 O3G 1_555 1_555
In1I O3M 1_555 1_555
In1J O2J 1_555 1_555
In1J_2 O2M 1_555 1_555
In1K O3J 1_555 1_555
O1A In1A 1_555 1_555
O2A In1A 1_555 1_555
O2D In1A 1_555 1_555
O2G_2 In1 1_555 1_555
O3C In1 1_555 1_555
O3D In1 1_555 1_555
O3E In1A 1_555 1_555
O3 In1A 1_555 1_555
C4G C5G 1_555 1_555
C2J C4J 1_555 1_555
C2M C4M 1_555 1_555

#END
