
#######################################################################
#
#                 Cambridge Crystallographic Data Centre
#                                CCDC 
#
#######################################################################
#
# If this CIF has been generated from an entry in the Cambridge 
# Structural Database, then it will include bibliographic, chemical, 
# crystal, experimental, refinement or atomic coordinate data resulting 
# from the CCDC's data processing and validation procedures.
#
#######################################################################

data_OWIHOT
_chemical_formula_moiety         '(C18 H16 In2 O10)n'
_symmetry_cell_setting           tetragonal
_symmetry_space_group_name_H-M   'I 41 2 2'
_symmetry_Int_Tables_number      98
_space_group_name_Hall           'I 4bw 2bw'
loop_
_symmetry_equiv_pos_site_id
_symmetry_equiv_pos_as_xyz
1 x,y,z
2 -y,1/2+x,1/4+z
3 1/2-x,1/2-y,1/2+z
4 1/2+y,-x,3/4+z
5 x,1/2-y,1/4-z
6 1/2+y,1/2+x,1/2-z
7 1/2-x,y,3/4-z
8 -y,-x,-z
9 1/2+x,1/2+y,1/2+z
10 1/2-y,x,3/4+z
11 -x,-y,z
12 y,1/2-x,1/4+z
13 1/2+x,-y,3/4-z
14 y,x,-z
15 -x,1/2+y,1/4-z
16 1/2-y,1/2-x,1/2-z
_cell_length_a                   15.5019(3)
_cell_length_b                   15.5019(3)
_cell_length_c                   12.3060(3)
_cell_angle_alpha                90
_cell_angle_beta                 90
_cell_angle_gamma                90
_cell_volume                     2957.24
loop_
_atom_site_label
_atom_site_type_symbol
_atom_site_fract_x
_atom_site_fract_y
_atom_site_fract_z
_atom_site_U_iso_or_equiv
_atom_site_thermal_displace_type
In1 In 0.6719(8) 0.3281(8) 0.50000 0.1390 Uiso
O1 O 0.7575(6) 0.25000 0.62500 0.0850 Uiso
O2 O 0.6135(9) 0.3817(9) 0.6182(6) 0.0850 Uiso
O3 O 0.5881(10) 0.2912(6) 0.7545(8) 0.0850 Uiso
C1 C 0.5829(7) 0.3643(5) 0.7104(5) 0.0561 Uiso
C2 C 0.5391(2) 0.43248(18) 0.7693(4) 0.0561 Uiso
C3 C 0.50000 0.50000 0.7126(5) 0.0561 Uiso
C4 C 0.5391(2) 0.43248(18) 0.8828(3) 0.0561 Uiso
C5 C 0.50000 0.50000 0.9395(2) 0.0561 Uiso
H1 H 0.8155(13) 0.25000 0.62500 0.0850 Uiso
H2 H 0.50000 0.50000 0.6273(10) 0.0561 Uiso
H3 H 0.5684(5) 0.3817(6) 0.9254(5) 0.0561 Uiso
O2G O 0.6183(9) 0.3865(9) 1.3818(6) 0.0850 Uiso
O3G O 0.7088(6) 0.4119(10) 1.2455(8) 0.0850 Uiso
C1G C 0.6357(5) 0.4171(7) 1.2896(5) 0.0561 Uiso
C2G C 0.56752(18) 0.4609(2) 1.2307(4) 0.0561 Uiso
C3G C 0.50000 0.50000 1.2874(5) 0.0561 Uiso
C4G C 0.56752(18) 0.4609(2) 1.1172(3) 0.0561 Uiso
C5G C 0.50000 0.50000 1.0605(2) 0.0561 Uiso
H2G H 0.50000 0.50000 1.3727(10) 0.0561 Uiso
H3G H 0.6183(6) 0.4316(5) 1.0746(5) 0.0561 Uiso
O2J O 0.3865(9) 0.6183(9) 0.6182(6) 0.0850 Uiso
O3J O 0.4119(10) 0.7088(6) 0.7545(8) 0.0850 Uiso
C1J C 0.4171(7) 0.6357(5) 0.7104(5) 0.0561 Uiso
C2J C 0.4609(2) 0.56752(18) 0.7693(4) 0.0561 Uiso
C4J C 0.4609(2) 0.56752(18) 0.8828(3) 0.0561 Uiso
H3J H 0.4316(5) 0.6183(6) 0.9254(5) 0.0561 Uiso
O2M O 0.3817(9) 0.6135(9) 1.3818(6) 0.0850 Uiso
O3M O 0.2912(6) 0.5881(10) 1.2455(8) 0.0850 Uiso
C1M C 0.3643(5) 0.5829(7) 1.2896(5) 0.0561 Uiso
C2M C 0.43248(18) 0.5391(2) 1.2307(4) 0.0561 Uiso
C4M C 0.43248(18) 0.5391(2) 1.1172(3) 0.0561 Uiso
H3M H 0.3817(6) 0.5684(5) 1.0746(5) 0.0561 Uiso
In1A In 0.6719(8) 0.1719(8) 0.75000 0.1390 Uiso
O1C O 0.75000 0.2425(6) 0.37500 0.0850 Uiso
H1C H 0.75000 0.1845(13) 0.37500 0.0850 Uiso
In1_2 In 0.6719(8) 0.3281(8) 1.50000 0.1390 Uiso
In1C In 0.8281(8) 0.3281(8) 0.25000 0.1390 Uiso
In1C_2 In 0.8281(8) 0.3281(8) 1.25000 0.1390 Uiso
In1I In 0.1719(8) 0.6719(8) 1.25000 0.1390 Uiso
In1J In 0.3281(8) 0.6719(8) 0.50000 0.1390 Uiso
In1J_2 In 0.3281(8) 0.6719(8) 1.50000 0.1390 Uiso
In1K In 0.3281(8) 0.8281(8) 0.75000 0.1390 Uiso
O1A O 0.75000 0.2575(6) 0.87500 0.0850 Uiso
O2A O 0.6183(9) 0.1135(9) 0.8682(6) 0.0850 Uiso
O2D O 0.6135(9) 0.1183(9) 0.6318(6) 0.0850 Uiso
O2G_2 O 0.6183(9) 0.3865(9) 0.3818(6) 0.0850 Uiso
O3C O 0.7912(6) 0.4119(10) 0.5045(8) 0.0850 Uiso
O3D O 0.5881(10) 0.2088(6) 0.4955(8) 0.0850 Uiso
O3E O 0.7912(6) 0.0881(10) 0.7455(8) 0.0850 Uiso
C6 C 0.5148(7) 0.7382(6) 0.2037(6) 0.1790 Uiso
D1 D 0.5496(14) 0.7939(11) 0.185(2) 0.2140 Uiso
D2 D 0.4492(9) 0.7491(14) 0.1898(16) 0.2140 Uiso
D3 D 0.5244(14) 0.7224(15) 0.2853(10) 0.2140 Uiso
D4 D 0.5359(15) 0.6874(13) 0.1547(15) 0.2140 Uiso
C6D C 0.5148(7) 0.7618(6) 0.0463(6) 0.1790 Uiso
D1D D 0.5496(14) 0.7061(11) 0.065(2) 0.2140 Uiso
D2D D 0.4492(9) 0.7509(14) 0.0602(16) 0.2140 Uiso
D3D D 0.5244(14) 0.7776(15) -0.0353(10) 0.2140 Uiso
D4D D 0.5359(15) 0.8126(13) 0.0953(15) 0.2140 Uiso
loop_
_geom_bond_atom_site_label_1
_geom_bond_atom_site_label_2
_geom_bond_site_symmetry_1
_geom_bond_site_symmetry_2
In1 O1 1_555 1_555
O1 H1 1_555 1_555
O2 In1 1_555 1_555
O3 C1 1_555 1_555
C1 O2 1_555 1_555
C2 C1 1_555 1_555
C3 C2 1_555 1_555
C4 C2 1_555 1_555
C5 C4 1_555 1_555
H2 C3 1_555 1_555
H3 C4 1_555 1_555
C6 D1 1_555 1_555
D2 C6 1_555 1_555
D3 C6 1_555 1_555
D4 C6 1_555 1_555
O2G C1G 1_555 1_555
O3G C1G 1_555 1_555
C1G C2G 1_555 1_555
C2G C3G 1_555 1_555
C3G H2G 1_555 1_555
C4G C2G 1_555 1_555
C5G C5 1_555 1_555
H3G C4G 1_555 1_555
O2J C1J 1_555 1_555
O3J C1J 1_555 1_555
C1J C2J 1_555 1_555
C2J C3 1_555 1_555
C4J C5 1_555 1_555
H3J C4J 1_555 1_555
O2M C1M 1_555 1_555
O3M C1M 1_555 1_555
C1M C2M 1_555 1_555
C2M C3G 1_555 1_555
C4M C5G 1_555 1_555
H3M C4M 1_555 1_555
In1A O1 1_555 1_555
O1C In1 1_555 1_555
H1C O1C 1_555 1_555
In1_2 O2G 1_555 1_555
In1C O1C 1_555 1_555
In1C_2 O3G 1_555 1_555
In1I O3M 1_555 1_555
In1J O2J 1_555 1_555
In1J_2 O2M 1_555 1_555
In1K O3J 1_555 1_555
O1A In1A 1_555 1_555
O2A In1A 1_555 1_555
O2D In1A 1_555 1_555
O2G_2 In1 1_555 1_555
O3C In1 1_555 1_555
O3D In1 1_555 1_555
O3E In1A 1_555 1_555
C6D D1D 1_555 1_555
D2D C6D 1_555 1_555
D3D C6D 1_555 1_555
D4D C6D 1_555 1_555
O3 In1A 1_555 1_555
C4G C5G 1_555 1_555
C2J C4J 1_555 1_555
C2M C4M 1_555 1_555

#END
