
#######################################################################
#
#                 Cambridge Crystallographic Data Centre
#                                CCDC 
#
#######################################################################
#
# If this CIF has been generated from an entry in the Cambridge 
# Structural Database, then it will include bibliographic, chemical, 
# crystal, experimental, refinement or atomic coordinate data resulting 
# from the CCDC's data processing and validation procedures.
#
#######################################################################

data_OWIHEJ
_chemical_formula_moiety         '(C17 H12 In2 O10)n'
_symmetry_cell_setting           tetragonal
_symmetry_space_group_name_H-M   'I 41 2 2'
_symmetry_Int_Tables_number      98
_space_group_name_Hall           'I 4bw 2bw'
loop_
_symmetry_equiv_pos_site_id
_symmetry_equiv_pos_as_xyz
1 x,y,z
2 -y,1/2+x,1/4+z
3 1/2-x,1/2-y,1/2+z
4 1/2+y,-x,3/4+z
5 x,1/2-y,1/4-z
6 1/2+y,1/2+x,1/2-z
7 1/2-x,y,3/4-z
8 -y,-x,-z
9 1/2+x,1/2+y,1/2+z
10 1/2-y,x,3/4+z
11 -x,-y,z
12 y,1/2-x,1/4+z
13 1/2+x,-y,3/4-z
14 y,x,-z
15 -x,1/2+y,1/4-z
16 1/2-y,1/2-x,1/2-z
_cell_length_a                   15.46363(5)
_cell_length_b                   15.46363(5)
_cell_length_c                   12.29044(10)
_cell_angle_alpha                90
_cell_angle_beta                 90
_cell_angle_gamma                90
_cell_volume                     2938.94
loop_
_atom_site_label
_atom_site_type_symbol
_atom_site_fract_x
_atom_site_fract_y
_atom_site_fract_z
_atom_site_U_iso_or_equiv
_atom_site_thermal_displace_type
In1 In 0.6875(4) 0.3125(4) 0.50000 0.0850 Uiso
O1 O 0.7617(3) 0.25000 0.62500 0.0750 Uiso
O2 O 0.6139(6) 0.3806(7) 0.6160(4) 0.0750 Uiso
O3 O 0.5938(7) 0.2910(4) 0.7512(5) 0.0750 Uiso
C1 C 0.5837(5) 0.3644(4) 0.7088(3) 0.0779 Uiso
C2 C 0.53685(17) 0.43088(11) 0.7674(2) 0.0779 Uiso
C3 C 0.50000 0.50000 0.7106(3) 0.0779 Uiso
C4 C 0.53685(17) 0.43088(11) 0.88125(16) 0.0779 Uiso
C5 C 0.50000 0.50000 0.93814(15) 0.0779 Uiso
H1 H 0.8199(8) 0.25000 0.62500 0.0750 Uiso
H2 H 0.50000 0.50000 0.6251(6) 0.0779 Uiso
H3 H 0.5645(4) 0.3790(4) 0.9240(3) 0.0779 Uiso
O2G O 0.6194(7) 0.3861(6) 1.3840(4) 0.0750 Uiso
O3G O 0.7090(4) 0.4062(7) 1.2488(5) 0.0750 Uiso
C1G C 0.6356(4) 0.4163(5) 1.2912(3) 0.0779 Uiso
C2G C 0.56912(11) 0.46315(17) 1.2326(2) 0.0779 Uiso
C3G C 0.50000 0.50000 1.2894(3) 0.0779 Uiso
C4G C 0.56912(11) 0.46315(17) 1.11875(16) 0.0779 Uiso
C5G C 0.50000 0.50000 1.06186(15) 0.0779 Uiso
H2G H 0.50000 0.50000 1.3749(6) 0.0779 Uiso
H3G H 0.6210(4) 0.4355(4) 1.0760(3) 0.0779 Uiso
O2J O 0.3861(6) 0.6194(7) 0.6160(4) 0.0750 Uiso
O3J O 0.4062(7) 0.7090(4) 0.7512(5) 0.0750 Uiso
C1J C 0.4163(5) 0.6356(4) 0.7088(3) 0.0779 Uiso
C2J C 0.46315(17) 0.56912(11) 0.7674(2) 0.0779 Uiso
C4J C 0.46315(17) 0.56912(11) 0.88125(16) 0.0779 Uiso
H3J H 0.4355(4) 0.6210(4) 0.9240(3) 0.0779 Uiso
O2M O 0.3806(7) 0.6139(6) 1.3840(4) 0.0750 Uiso
O3M O 0.2910(4) 0.5938(7) 1.2488(5) 0.0750 Uiso
C1M C 0.3644(4) 0.5837(5) 1.2912(3) 0.0779 Uiso
C2M C 0.43088(11) 0.53685(17) 1.2326(2) 0.0779 Uiso
C4M C 0.43088(11) 0.53685(17) 1.11875(16) 0.0779 Uiso
H3M H 0.3790(4) 0.5645(4) 1.0760(3) 0.0779 Uiso
In1A In 0.6875(4) 0.1875(4) 0.75000 0.0850 Uiso
O1C O 0.75000 0.2383(3) 0.37500 0.0750 Uiso
H1C H 0.75000 0.1801(8) 0.37500 0.0750 Uiso
In1_2 In 0.6875(4) 0.3125(4) 1.50000 0.0850 Uiso
In1C In 0.8125(4) 0.3125(4) 0.25000 0.0850 Uiso
In1C_2 In 0.8125(4) 0.3125(4) 1.25000 0.0850 Uiso
In1I In 0.1875(4) 0.6875(4) 1.25000 0.0850 Uiso
In1J In 0.3125(4) 0.6875(4) 0.50000 0.0850 Uiso
In1J_2 In 0.3125(4) 0.6875(4) 1.50000 0.0850 Uiso
In1K In 0.3125(4) 0.8125(4) 0.75000 0.0850 Uiso
O1A O 0.75000 0.2617(3) 0.87500 0.0750 Uiso
O2A O 0.6194(7) 0.1139(6) 0.8660(4) 0.0750 Uiso
O2D O 0.6139(6) 0.1194(7) 0.6340(4) 0.0750 Uiso
O2G_2 O 0.6194(7) 0.3861(6) 0.3840(4) 0.0750 Uiso
O3C O 0.7910(4) 0.4062(7) 0.5012(5) 0.0750 Uiso
O3D O 0.5938(7) 0.2090(4) 0.4988(5) 0.0750 Uiso
O3E O 0.7910(4) 0.0938(7) 0.7488(5) 0.0750 Uiso
C6 C 0.6399(5) 0.6399(5) 0.50000 0.1900 Uiso
D1 D 0.663(3) 0.649(4) 0.578(2) 0.2280 Uiso
D2 D 0.5753(16) 0.624(2) 0.503(4) 0.2280 Uiso
D1M D 0.649(4) 0.663(3) 0.422(2) 0.2280 Uiso
D2M D 0.624(2) 0.5753(16) 0.497(4) 0.2280 Uiso
loop_
_geom_bond_atom_site_label_1
_geom_bond_atom_site_label_2
_geom_bond_site_symmetry_1
_geom_bond_site_symmetry_2
In1 O1 1_555 1_555
O1 H1 1_555 1_555
O2 In1 1_555 1_555
O3 C1 1_555 1_555
C1 O2 1_555 1_555
C2 C1 1_555 1_555
C3 C2 1_555 1_555
C4 C2 1_555 1_555
C5 C4 1_555 1_555
H2 C3 1_555 1_555
H3 C4 1_555 1_555
C6 D1 1_555 1_555
D2 C6 1_555 1_555
O2G C1G 1_555 1_555
O3G C1G 1_555 1_555
C1G C2G 1_555 1_555
C2G C3G 1_555 1_555
C3G H2G 1_555 1_555
C4G C2G 1_555 1_555
C5G C5 1_555 1_555
H3G C4G 1_555 1_555
O2J C1J 1_555 1_555
O3J C1J 1_555 1_555
C1J C2J 1_555 1_555
C2J C3 1_555 1_555
C4J C5 1_555 1_555
H3J C4J 1_555 1_555
O2M C1M 1_555 1_555
O3M C1M 1_555 1_555
C1M C2M 1_555 1_555
C2M C3G 1_555 1_555
C4M C5G 1_555 1_555
H3M C4M 1_555 1_555
In1A O1 1_555 1_555
O1C In1 1_555 1_555
H1C O1C 1_555 1_555
In1_2 O2G 1_555 1_555
In1C O1C 1_555 1_555
In1C_2 O3G 1_555 1_555
In1I O3M 1_555 1_555
In1J O2J 1_555 1_555
In1J_2 O2M 1_555 1_555
In1K O3J 1_555 1_555
O1A In1A 1_555 1_555
O2A In1A 1_555 1_555
O2D In1A 1_555 1_555
O2G_2 In1 1_555 1_555
O3C In1 1_555 1_555
O3D In1 1_555 1_555
O3E In1A 1_555 1_555
D1M C6 1_555 1_555
D2M C6 1_555 1_555
O3 In1A 1_555 1_555
C4G C5G 1_555 1_555
C2J C4J 1_555 1_555
C2M C4M 1_555 1_555

#END
