
#######################################################################
#
#                 Cambridge Crystallographic Data Centre
#                                CCDC 
#
#######################################################################
#
# If this CIF has been generated from an entry in the Cambridge 
# Structural Database, then it will include bibliographic, chemical, 
# crystal, experimental, refinement or atomic coordinate data resulting 
# from the CCDC's data processing and validation procedures.
#
#######################################################################

data_OWIJIP
_chemical_formula_moiety         '(C16 H12 In2 O10)n'
_symmetry_cell_setting           tetragonal
_symmetry_space_group_name_H-M   'I 41 2 2'
_symmetry_Int_Tables_number      98
_space_group_name_Hall           'I 4bw 2bw'
loop_
_symmetry_equiv_pos_site_id
_symmetry_equiv_pos_as_xyz
1 x,y,z
2 -y,1/2+x,1/4+z
3 1/2-x,1/2-y,1/2+z
4 1/2+y,-x,3/4+z
5 x,1/2-y,1/4-z
6 1/2+y,1/2+x,1/2-z
7 1/2-x,y,3/4-z
8 -y,-x,-z
9 1/2+x,1/2+y,1/2+z
10 1/2-y,x,3/4+z
11 -x,-y,z
12 y,1/2-x,1/4+z
13 1/2+x,-y,3/4-z
14 y,x,-z
15 -x,1/2+y,1/4-z
16 1/2-y,1/2-x,1/2-z
_cell_length_a                   15.48281(12)
_cell_length_b                   15.48281(12)
_cell_length_c                   12.3009(2)
_cell_angle_alpha                90
_cell_angle_beta                 90
_cell_angle_gamma                90
_cell_volume                     2948.74
loop_
_atom_site_label
_atom_site_type_symbol
_atom_site_fract_x
_atom_site_fract_y
_atom_site_fract_z
_atom_site_U_iso_or_equiv
_atom_site_thermal_displace_type
In1 In 0.6833(4) 0.3167(4) 0.50000 0.0280 Uiso
O1 O 0.7549(5) 0.25000 0.62500 0.0502 Uiso
O2 O 0.6115(6) 0.3793(6) 0.6153(5) 0.0502 Uiso
O3 O 0.5933(6) 0.2922(4) 0.7550(6) 0.0502 Uiso
C1 C 0.5848(5) 0.3637(3) 0.7092(4) 0.0322 Uiso
C2 C 0.54161(17) 0.43240(14) 0.7681(3) 0.0322 Uiso
C3 C 0.50000 0.50000 0.7104(4) 0.0322 Uiso
C4 C 0.54161(17) 0.43240(14) 0.8835(2) 0.0322 Uiso
C5 C 0.50000 0.50000 0.9412(2) 0.0322 Uiso
H1 H 0.8130(10) 0.25000 0.62500 0.0502 Uiso
H2 H 0.50000 0.50000 0.6273(6) 0.0322 Uiso
H3 H 0.5716(3) 0.3837(3) 0.9250(3) 0.0322 Uiso
O2G O 0.6207(6) 0.3885(6) 1.3847(5) 0.0502 Uiso
O3G O 0.7078(4) 0.4067(6) 1.2450(6) 0.0502 Uiso
C1G C 0.6363(3) 0.4152(5) 1.2908(4) 0.0322 Uiso
C2G C 0.56760(14) 0.45839(17) 1.2319(3) 0.0322 Uiso
C3G C 0.50000 0.50000 1.2896(4) 0.0322 Uiso
C4G C 0.56760(14) 0.45839(17) 1.1165(2) 0.0322 Uiso
C5G C 0.50000 0.50000 1.0588(2) 0.0322 Uiso
H2G H 0.50000 0.50000 1.3727(6) 0.0322 Uiso
H3G H 0.6163(3) 0.4284(3) 1.0750(3) 0.0322 Uiso
O2J O 0.3885(6) 0.6207(6) 0.6153(5) 0.0502 Uiso
O3J O 0.4067(6) 0.7078(4) 0.7550(6) 0.0502 Uiso
C1J C 0.4152(5) 0.6363(3) 0.7092(4) 0.0322 Uiso
C2J C 0.45839(17) 0.56760(14) 0.7681(3) 0.0322 Uiso
C4J C 0.45839(17) 0.56760(14) 0.8835(2) 0.0322 Uiso
H3J H 0.4284(3) 0.6163(3) 0.9250(3) 0.0322 Uiso
O2M O 0.3793(6) 0.6115(6) 1.3847(5) 0.0502 Uiso
O3M O 0.2922(4) 0.5933(6) 1.2450(6) 0.0502 Uiso
C1M C 0.3637(3) 0.5848(5) 1.2908(4) 0.0322 Uiso
C2M C 0.43240(14) 0.54161(17) 1.2319(3) 0.0322 Uiso
C4M C 0.43240(14) 0.54161(17) 1.1165(2) 0.0322 Uiso
H3M H 0.3837(3) 0.5716(3) 1.0750(3) 0.0322 Uiso
In1A In 0.6833(4) 0.1833(4) 0.75000 0.0280 Uiso
O1C O 0.75000 0.2451(5) 0.37500 0.0502 Uiso
H1C H 0.75000 0.1870(10) 0.37500 0.0502 Uiso
In1_2 In 0.6833(4) 0.3167(4) 1.50000 0.0280 Uiso
In1C In 0.8167(4) 0.3167(4) 0.25000 0.0280 Uiso
In1C_2 In 0.8167(4) 0.3167(4) 1.25000 0.0280 Uiso
In1I In 0.1833(4) 0.6833(4) 1.25000 0.0280 Uiso
In1J In 0.3167(4) 0.6833(4) 0.50000 0.0280 Uiso
In1J_2 In 0.3167(4) 0.6833(4) 1.50000 0.0280 Uiso
In1K In 0.3167(4) 0.8167(4) 0.75000 0.0280 Uiso
O1A O 0.75000 0.2549(5) 0.87500 0.0502 Uiso
O2A O 0.6207(6) 0.1115(6) 0.8653(5) 0.0502 Uiso
O2D O 0.6115(6) 0.1207(6) 0.6347(5) 0.0502 Uiso
O2G_2 O 0.6207(6) 0.3885(6) 0.3847(5) 0.0502 Uiso
O3C O 0.7922(4) 0.4067(6) 0.5050(6) 0.0502 Uiso
O3D O 0.5933(6) 0.2078(4) 0.4950(6) 0.0502 Uiso
O3E O 0.7922(4) 0.0933(6) 0.7450(6) 0.0502 Uiso
D1 D 0.4652(5) 0.7581(5) 0.1962(6) 0.2220 Uiso
D1D D 0.4652(5) 0.7419(5) 0.0538(6) 0.2220 Uiso
D2 D 0.6743(12) 0.8598(15) 0.1771(10) 0.3140 Uiso
D2O D 0.6402(15) 0.8257(12) 0.3229(10) 0.3140 Uiso
loop_
_geom_bond_atom_site_label_1
_geom_bond_atom_site_label_2
_geom_bond_site_symmetry_1
_geom_bond_site_symmetry_2
In1 O1 1_555 1_555
O1 H1 1_555 1_555
O2 In1 1_555 1_555
O3 C1 1_555 1_555
C1 O2 1_555 1_555
C2 C1 1_555 1_555
C3 C2 1_555 1_555
C4 C2 1_555 1_555
C5 C4 1_555 1_555
H2 C3 1_555 1_555
H3 C4 1_555 1_555
D1 D1D 1_555 1_555
D2 D2O 1_555 1_555
O2G C1G 1_555 1_555
O3G C1G 1_555 1_555
C1G C2G 1_555 1_555
C2G C3G 1_555 1_555
C3G H2G 1_555 1_555
C4G C2G 1_555 1_555
C5G C5 1_555 1_555
H3G C4G 1_555 1_555
O2J C1J 1_555 1_555
O3J C1J 1_555 1_555
C1J C2J 1_555 1_555
C2J C3 1_555 1_555
C4J C5 1_555 1_555
H3J C4J 1_555 1_555
O2M C1M 1_555 1_555
O3M C1M 1_555 1_555
C1M C2M 1_555 1_555
C2M C3G 1_555 1_555
C4M C5G 1_555 1_555
H3M C4M 1_555 1_555
In1A O1 1_555 1_555
O1C In1 1_555 1_555
H1C O1C 1_555 1_555
In1_2 O2G 1_555 1_555
In1C O1C 1_555 1_555
In1C_2 O3G 1_555 1_555
In1I O3M 1_555 1_555
In1J O2J 1_555 1_555
In1J_2 O2M 1_555 1_555
In1K O3J 1_555 1_555
O1A In1A 1_555 1_555
O2A In1A 1_555 1_555
O2D In1A 1_555 1_555
O2G_2 In1 1_555 1_555
O3C In1 1_555 1_555
O3D In1 1_555 1_555
O3E In1A 1_555 1_555
O3 In1A 1_555 1_555
C4G C5G 1_555 1_555
C2J C4J 1_555 1_555
C2M C4M 1_555 1_555

#END
