
#######################################################################
#
#                 Cambridge Crystallographic Data Centre
#                                CCDC 
#
#######################################################################
#
# If this CIF has been generated from an entry in the Cambridge 
# Structural Database, then it will include bibliographic, chemical, 
# crystal, experimental, refinement or atomic coordinate data resulting 
# from the CCDC's data processing and validation procedures.
#
#######################################################################

data_DUWFOS
_chemical_formula_moiety         '(C10 H17 N16 O4 Zn2)n'
_symmetry_cell_setting           orthorhombic
_symmetry_space_group_name_H-M   'C m c 21'
_symmetry_Int_Tables_number      36
_space_group_name_Hall           'C 2c -2'
loop_
_symmetry_equiv_pos_site_id
_symmetry_equiv_pos_as_xyz
1 x,y,z
2 -x,-y,1/2+z
3 -x,y,z
4 x,-y,1/2+z
5 1/2+x,1/2+y,z
6 1/2-x,1/2-y,1/2+z
7 1/2-x,1/2+y,z
8 1/2+x,1/2-y,1/2+z
_cell_length_a                   20.071(11)
_cell_length_b                   9.698(6)
_cell_length_c                   10.986(6)
_cell_angle_alpha                90
_cell_angle_beta                 90
_cell_angle_gamma                90
_cell_volume                     2138.41
loop_
_atom_site_label
_atom_site_type_symbol
_atom_site_fract_x
_atom_site_fract_y
_atom_site_fract_z
Zn1 Zn 0.647441(16) 0.86779(3) 0.50703(5)
O1 O 0.55507(11) 0.7593(3) 0.5320(3)
N1 N 0.73917(14) 1.0066(3) 0.4933(4)
N2 N 0.78083(16) 0.9847(3) 0.5904(3)
N3 N 0.81939(16) 1.0920(3) 0.6037(3)
N4 N 0.80343(12) 1.1871(3) 0.5168(4)
N5 N 0.62390(17) 0.9196(3) 0.3338(3)
N6 N 0.61023(19) 0.8207(3) 0.2483(3)
N7 N 0.6111(2) 0.8769(3) 0.1420(3)
N8 N 0.62513(16) 1.0134(3) 0.1548(3)
C1 C 0.75447(18) 1.1327(3) 0.4518(3)
C2 C 0.72385(19) 1.2018(4) 0.3448(3)
H1 H 0.7473 1.1725 0.2720
H2 H 0.7301 1.3006 0.3528
C3 C 0.64947(19) 1.1730(4) 0.3278(4)
H3 H 0.6278 1.1794 0.4065
H4 H 0.6308 1.2444 0.2763
C4 C 0.63318(16) 1.0354(4) 0.2731(3)
C5 C 0.5000 0.8176(6) 0.5343(5)
H5 H 0.5000 0.8739 0.6073
O1B O 0.44493(11) 0.7593(3) 0.5320(3)
Zn1B Zn 0.352559(16) 0.86779(3) 0.50703(5)
N1B N 0.26083(14) 1.0066(3) 0.4933(4)
N2B N 0.21917(16) 0.9847(3) 0.5904(3)
N3B N 0.18061(16) 1.0920(3) 0.6037(3)
N4B N 0.19657(12) 1.1871(3) 0.5168(4)
N5B N 0.37610(17) 0.9196(3) 0.3338(3)
N6B N 0.38977(19) 0.8207(3) 0.2483(3)
N7B N 0.3889(2) 0.8769(3) 0.1420(3)
N8B N 0.37487(16) 1.0134(3) 0.1548(3)
C1B C 0.24553(18) 1.1327(3) 0.4518(3)
C2B C 0.27615(19) 1.2018(4) 0.3448(3)
H1B H 0.2527 1.1725 0.2720
H2B H 0.2699 1.3006 0.3528
C3B C 0.35053(19) 1.1730(4) 0.3278(4)
H3B H 0.3722 1.1794 0.4065
H4B H 0.3692 1.2444 0.2763
C4B C 0.36682(16) 1.0354(4) 0.2731(3)
Zn1A Zn 0.352559(16) 1.13221(3) 0.00703(5)
Zn1C Zn 0.647441(16) 1.13221(3) 0.00703(5)
Zn1D Zn 0.147441(16) 1.36779(3) 0.50703(5)
Zn1F Zn 0.852559(16) 1.36779(3) 0.50703(5)
N4D N 0.30343(12) 0.6871(3) 0.5168(4)
N4F N 0.69657(12) 0.6871(3) 0.5168(4)
N8A N 0.37487(16) 0.9866(3) 0.6548(3)
N8C N 0.62513(16) 0.9866(3) 0.6548(3)
O2 O 0.5000 0.4983(6) 0.4380(7)
C6 C 0.5000 0.3787(9) 0.5118(17)
O3 O 0.9111(4) 0.9807(7) 0.7938(9)
H6 H 0.9485 1.0183 0.8083
H7 H 0.8994 0.9091 0.8329
loop_
_geom_bond_atom_site_label_1
_geom_bond_atom_site_label_2
_geom_bond_site_symmetry_1
_geom_bond_site_symmetry_2
Zn1 O1 1_555 1_555
O1 C5 1_555 1_555
N1 Zn1 1_555 1_555
N2 N1 1_555 1_555
N3 N2 1_555 1_555
N4 N3 1_555 1_555
N5 Zn1 1_555 1_555
N6 N5 1_555 1_555
N7 N6 1_555 1_555
N8 N7 1_555 1_555
C1 N1 1_555 1_555
C2 C1 1_555 1_555
H1 C2 1_555 1_555
H2 C2 1_555 1_555
C3 C2 1_555 1_555
H3 C3 1_555 1_555
H4 C3 1_555 1_555
C4 N5 1_555 1_555
C5 H5 1_555 1_555
O2 C6 1_555 1_555
O3 H6 1_555 1_555
H7 O3 1_555 1_555
O1B C5 1_555 1_555
Zn1B O1B 1_555 1_555
N1B Zn1B 1_555 1_555
N2B N1B 1_555 1_555
N3B N2B 1_555 1_555
N4B N3B 1_555 1_555
N5B Zn1B 1_555 1_555
N6B N5B 1_555 1_555
N7B N6B 1_555 1_555
N8B N7B 1_555 1_555
C1B N1B 1_555 1_555
C2B C1B 1_555 1_555
H1B C2B 1_555 1_555
H2B C2B 1_555 1_555
C3B C2B 1_555 1_555
H3B C3B 1_555 1_555
H4B C3B 1_555 1_555
C4B N5B 1_555 1_555
Zn1A N8B 1_555 1_555
Zn1C N8 1_555 1_555
Zn1D N4B 1_555 1_555
Zn1F N4 1_555 1_555
N4D Zn1B 1_555 1_555
N4F Zn1 1_555 1_555
N8A Zn1B 1_555 1_555
N8C Zn1 1_555 1_555
N4 C1 1_555 1_555
N8 C4 1_555 1_555
C3 C4 1_555 1_555
N4B C1B 1_555 1_555
N8B C4B 1_555 1_555
C3B C4B 1_555 1_555

#END
