
#######################################################################
#
#                 Cambridge Crystallographic Data Centre
#                                CCDC 
#
#######################################################################
#
# If this CIF has been generated from an entry in the Cambridge 
# Structural Database, then it will include bibliographic, chemical, 
# crystal, experimental, refinement or atomic coordinate data resulting 
# from the CCDC's data processing and validation procedures.
#
#######################################################################

data_SAHYOS
_chemical_formula_moiety         '(C31 H26 Cd1 N4 O8)n'
_symmetry_cell_setting           monoclinic
_symmetry_space_group_name_H-M   'P 21/c'
_symmetry_Int_Tables_number      14
_space_group_name_Hall           '-P 2ybc'
loop_
_symmetry_equiv_pos_site_id
_symmetry_equiv_pos_as_xyz
1 x,y,z
2 -x,1/2+y,1/2-z
3 -x,-y,-z
4 x,1/2-y,1/2+z
_cell_length_a                   10.1676(16)
_cell_length_b                   17.300(3)
_cell_length_c                   17.485(3)
_cell_angle_alpha                90
_cell_angle_beta                 91.708(2)
_cell_angle_gamma                90
_cell_volume                     3074.24
loop_
_atom_site_label
_atom_site_type_symbol
_atom_site_fract_x
_atom_site_fract_y
_atom_site_fract_z
Cd1 Cd 1.82736(2) 0.363204(15) 1.019899(13)
N1 N 1.8107(3) 0.39705(18) 0.89178(15)
N2 N 1.8619(3) 0.51903(18) 0.63499(16)
N3 N 2.0992(3) 0.73816(19) 0.51087(16)
C1 C 1.7121(4) 0.3712(2) 0.8462(2)
H1 H 1.6481 0.3381 0.8673
C2 C 1.6993(4) 0.3905(2) 0.7697(2)
H2 H 1.6272 0.3712 0.7396
C3 C 1.7912(3) 0.4380(2) 0.73680(19)
C4 C 1.8922(4) 0.4655(2) 0.7847(2)
H3 H 1.9568 0.4993 0.7652
C5 C 1.8989(4) 0.4439(2) 0.8605(2)
H4 H 1.9693 0.4632 0.8919
C6 C 1.7845(3) 0.4604(2) 0.65469(19)
C7 C 1.7003(4) 0.4220(2) 0.60234(19)
H5 H 1.6483 0.3798 0.6185
C8 C 1.6938(4) 0.4467(2) 0.52580(19)
C9 C 1.7742(4) 0.5082(2) 0.5064(2)
H6 H 1.7732 0.5267 0.4552
C10 C 1.8565(3) 0.5427(2) 0.56170(19)
C11 C 2.0808(5) 0.7148(3) 0.5817(2)
H7 H 2.1221 0.7433 0.6222
C12 C 2.0053(5) 0.6517(3) 0.6005(2)
H8 H 1.9963 0.6375 0.6526
C13 C 1.9424(4) 0.6090(2) 0.5427(2)
C14 C 1.9675(4) 0.6313(2) 0.4683(2)
H9 H 1.9307 0.6029 0.4264
C15 C 2.0454(4) 0.6944(2) 0.4552(2)
H10 H 2.0621 0.7077 0.4036
C16 C 1.6032(3) 0.4095(2) 0.46866(19)
C17 C 1.5559(4) 0.3352(2) 0.4791(2)
H11 H 1.5835 0.3068 0.5232
C18 C 1.4692(4) 0.3016(2) 0.4263(2)
H12 H 1.4370 0.2508 0.4343
C19 C 1.4302(3) 0.3428(2) 0.3620(2)
C20 C 1.4774(4) 0.4165(2) 0.34974(19)
H13 H 1.4515 0.4441 0.3048
C21 C 1.5623(4) 0.4496(2) 0.4030(2)
H14 H 1.5936 0.5006 0.3949
C22 C 1.3417(3) 0.3260(2) 0.23580(19)
C23 C 1.2215(3) 0.3415(2) 0.1986(2)
H15 H 1.1428 0.3417 0.2265
C24 C 1.2169(3) 0.3565(2) 0.12051(19)
C25 C 1.3330(3) 0.3559(2) 0.0803(2)
H16 H 1.3306 0.3663 0.0269
C26 C 1.4529(3) 0.3402(2) 0.1179(2)
C27 C 1.4556(3) 0.3244(2) 0.1959(2)
H17 H 1.5366 0.3124 0.2216
C28 C 1.0866(4) 0.3709(2) 0.0806(2)
C29 C 1.5800(4) 0.3407(2) 0.0762(2)
O1 O 1.0810(2) 0.39176(16) 0.01190(14)
O2 O 1.7942(2) 0.49003(15) 1.05563(14)
H18 H 1.8229 0.5290 1.0311
H19 H 1.7159 0.5039 1.0663
O3 O 0.9846(2) 0.35884(15) 0.11806(14)
O4 O 1.5804(2) 0.36262(15) 0.00762(14)
O5 O 1.6834(2) 0.31975(17) 0.11185(14)
O6 O 1.3387(2) 0.30758(16) 0.31304(13)
Cd1_2 Cd 0.82736(2) 0.363204(15) 0.019899(13)
Cd1_3 Cd 1.82736(2) 0.363204(15) 0.019899(13)
Cd1A Cd 2.17264(2) 0.863204(15) 0.480101(13)
N3A N 1.9008(3) 0.23816(19) 0.98913(16)
O1_2 O 2.0810(2) 0.39176(16) 1.01190(14)
O3_2 O 1.9846(2) 0.35884(15) 1.11806(14)
O4_2 O 1.5804(2) 0.36262(15) 1.00762(14)
O5_2 O 1.6834(2) 0.31975(17) 1.11185(14)
N4 N 1.3652(8) 0.1226(5) 0.1855(5)
C30 C 1.2894(8) 0.1276(5) 0.2331(5)
C31 C 1.1963(8) 0.1406(5) 0.2932(5)
H20 H 1.2306 0.1806 0.3282
H21 H 1.1836 0.0925 0.3216
H22 H 1.1119 0.1576 0.2704
O7 O 1.5480(3) 0.5372(2) 1.09076(19)
H23 H 1.5007 0.5283 1.1366
H24 H 1.5049 0.5615 1.0545
O8 O 0.8745(4) 0.2679(3) 0.23324(19)
H25 H 0.8581 0.3205 0.2183
H26 H 0.8553 0.2343 0.1906
loop_
_geom_bond_atom_site_label_1
_geom_bond_atom_site_label_2
_geom_bond_site_symmetry_1
_geom_bond_site_symmetry_2
Cd1 N1 1_555 1_555
N1 C1 1_555 1_555
N2 C6 1_555 1_555
N3 C11 1_555 1_555
C1 H1 1_555 1_555
C2 C1 1_555 1_555
H2 C2 1_555 1_555
C3 C2 1_555 1_555
C4 C3 1_555 1_555
H3 C4 1_555 1_555
C5 N1 1_555 1_555
H4 C5 1_555 1_555
C6 C3 1_555 1_555
C7 C6 1_555 1_555
H5 C7 1_555 1_555
C8 C7 1_555 1_555
C9 C8 1_555 1_555
H6 C9 1_555 1_555
C10 N2 1_555 1_555
C11 H7 1_555 1_555
C12 C11 1_555 1_555
H8 C12 1_555 1_555
C13 C10 1_555 1_555
C14 C13 1_555 1_555
H9 C14 1_555 1_555
C15 N3 1_555 1_555
H10 C15 1_555 1_555
C16 C8 1_555 1_555
C17 C16 1_555 1_555
H11 C17 1_555 1_555
C18 C17 1_555 1_555
H12 C18 1_555 1_555
C19 C18 1_555 1_555
C20 C19 1_555 1_555
H13 C20 1_555 1_555
C21 C16 1_555 1_555
H14 C21 1_555 1_555
C22 C23 1_555 1_555
C23 H15 1_555 1_555
C24 C23 1_555 1_555
C25 C24 1_555 1_555
H16 C25 1_555 1_555
C26 C25 1_555 1_555
C27 C22 1_555 1_555
H17 C27 1_555 1_555
C28 C24 1_555 1_555
C29 C26 1_555 1_555
O1 C28 1_555 1_555
O2 Cd1 1_555 1_555
H18 O2 1_555 1_555
H19 O2 1_555 1_555
O3 C28 1_555 1_555
O4 C29 1_555 1_555
O5 C29 1_555 1_555
O6 C19 1_555 1_555
N4 C30 1_555 1_555
C30 C31 1_555 1_555
C31 H20 1_555 1_555
H21 C31 1_555 1_555
H22 C31 1_555 1_555
O7 H23 1_555 1_555
H24 O7 1_555 1_555
O8 H25 1_555 1_555
H26 O8 1_555 1_555
Cd1_2 O1 1_555 1_555
Cd1_3 O4 1_555 1_555
Cd1A N3 1_555 1_555
N3A Cd1 1_555 1_555
O1_2 Cd1 1_555 1_555
O3_2 Cd1 1_555 1_555
O4_2 Cd1 1_555 1_555
O5_2 Cd1 1_555 1_555
C4 C5 1_555 1_555
C9 C10 1_555 1_555
C12 C13 1_555 1_555
C14 C15 1_555 1_555
C20 C21 1_555 1_555
C22 O6 1_555 1_555
C26 C27 1_555 1_555
O3 Cd1_2 1_555 1_555
O5 Cd1_3 1_555 1_555

#END
