
#######################################################################
#
#                 Cambridge Crystallographic Data Centre
#                                CCDC 
#
#######################################################################
#
# If this CIF has been generated from an entry in the Cambridge 
# Structural Database, then it will include bibliographic, chemical, 
# crystal, experimental, refinement or atomic coordinate data resulting 
# from the CCDC's data processing and validation procedures.
#
#######################################################################

data_GULGEZ
_chemical_formula_moiety         '(C24 H30 Cu3 Gd2 N6 O24)n'
_symmetry_cell_setting           trigonal
_symmetry_space_group_name_H-M   'P -3 c 1'
_symmetry_Int_Tables_number      165
_space_group_name_Hall           '-P 3 2"c'
loop_
_symmetry_equiv_pos_site_id
_symmetry_equiv_pos_as_xyz
1 x,y,z
2 -y,x-y,z
3 y,x,1/2-z
4 -x+y,-x,z
5 -x,-x+y,1/2-z
6 x-y,-y,1/2-z
7 -x,-y,-z
8 y,-x+y,-z
9 -y,-x,1/2+z
10 x-y,x,-z
11 x,x-y,1/2+z
12 -x+y,y,1/2+z
_cell_length_a                   13.433(4)
_cell_length_b                   13.433(4)
_cell_length_c                   14.770(6)
_cell_angle_alpha                90
_cell_angle_beta                 90
_cell_angle_gamma                120
_cell_volume                     2308.11
loop_
_atom_site_label
_atom_site_type_symbol
_atom_site_fract_x
_atom_site_fract_y
_atom_site_fract_z
O1 O 0.5620(7) -0.1972(7) -0.1252(6)
O2 O 0.4521(7) -0.3630(7) -0.0579(8)
O3 O 0.3863(8) -0.4359(8) 0.2262(7)
O4 O 0.3994(7) -0.5265(7) 0.1043(6)
N1 N 0.6130(8) -0.3491(8) 0.0567(8)
C1 C 0.547(1) -0.271(1) -0.0714(9)
C2 C 0.646(1) -0.259(1) -0.012(1)
C3 C 0.555(1) -0.334(1) 0.140(1)
C4 C 0.4489(9) -0.429(9) 0.1562(8)
Gd1 Gd 0.3334 -0.3333 -0.16868(7)
Cu1 Cu 0.5000 -0.5000 0.00000
Gd1H Gd 0.3333 -0.3334 0.33132(7)
O4F O 0.6006(7) -0.4735(7) -0.1043(6)
O2F O 0.5479(7) -0.6370(7) 0.0579(8)
N1F N 0.3870(8) -0.6509(8) -0.0567(8)
O3C O 0.1778(11) -0.3863(8) 0.2262(7)
C4C C 0.1221(90) -0.4489(9) 0.1562(8)
O4C O 0.0741(10) -0.3994(7) 0.1043(6)
Cu1C Cu -0.0000 -0.5000 0.00000
O2C O 0.1849(10) -0.4521(7) -0.0579(8)
C1C C 0.182(1) -0.547(1) -0.0714(9)
O1C O 0.2408(10) -0.5620(7) -0.1252(6)
O1A O 0.1972(7) -0.2408(10) -0.1252(6)
C1A C 0.271(1) -0.182(1) -0.0714(9)
O2A O 0.3630(7) -0.1849(10) -0.0579(8)
Cu1A Cu 0.5000 0.0000 0.00000
O2G O 0.6370(7) 0.1849(10) 0.0579(8)
O4A O 0.5265(7) -0.0741(10) 0.1043(6)
C4A C 0.429(9) -0.1221(90) 0.1562(8)
O3A O 0.4359(8) -0.1778(11) 0.2262(7)
C3A C 0.334(1) -0.111(1) 0.140(1)
N1A N 0.3491(8) -0.0379(11) 0.0567(8)
C2A C 0.259(1) -0.095(1) -0.012(1)
O4G O 0.4735(7) 0.0741(10) -0.1043(6)
N1G N 0.6509(8) 0.0379(11) -0.0567(8)
O3K O 0.1778(11) -0.4359(8) -0.2738(7)
C4K C 0.1221(90) -0.429(9) -0.3438(8)
O4K O 0.0741(10) -0.5265(7) -0.3957(6)
Cu1E Cu -0.0000 -0.5000 -0.50000
O2K O 0.1849(10) -0.3630(7) -0.5579(8)
C1K C 0.182(1) -0.271(1) -0.5714(9)
Gd1H_2 Gd 0.3333 -0.3334 -0.66868(7)
O1K O 0.2408(10) -0.1972(7) -0.6252(6)
O1H O 0.1972(7) -0.5620(7) -0.6252(6)
C1H C 0.271(1) -0.547(1) -0.5714(9)
O1J O 0.5620(7) -0.2408(10) -0.6252(6)
C1J C 0.547(1) -0.182(1) -0.5714(9)
O2H O 0.3630(7) -0.4521(7) -0.5579(8)
Cu1B Cu 0.5000 -0.5000 -0.50000
O2J O 0.4521(7) -0.1849(10) -0.5579(8)
Cu1D Cu 0.5000 0.0000 -0.50000
O4J O 0.3994(7) -0.0741(10) -0.3957(6)
C4J C 0.4489(9) -0.1221(90) -0.3438(8)
O3J O 0.3863(8) -0.1778(11) -0.2738(7)
O3H O 0.4359(8) -0.3863(8) -0.2738(7)
C4H C 0.429(9) -0.4489(9) -0.3438(8)
C3J C 0.555(1) -0.111(1) -0.360(1)
N1J N 0.6130(8) -0.0379(11) -0.4433(8)
C2J C 0.646(1) -0.095(1) -0.512(1)
O3C_2 O 0.1778(11) -0.3863(8) -0.7738(7)
O3A_2 O 0.4359(8) -0.1778(11) -0.7738(7)
O3_2 O 0.3863(8) -0.4359(8) -0.7738(7)
N1K N 0.0379(11) -0.3491(8) -0.4433(8)
C3K C 0.111(1) -0.334(1) -0.360(1)
O2I O -0.1849(10) -0.5479(7) 0.0579(8)
O4I O -0.0741(10) -0.6006(7) -0.1043(6)
N1C N 0.0379(11) -0.6130(8) 0.0567(8)
N1I N -0.0379(11) -0.3870(8) -0.0567(8)
C3C C 0.111(1) -0.555(1) 0.140(1)
C2K C 0.095(1) -0.259(1) -0.512(1)
C2C C 0.095(1) -0.646(1) -0.012(1)
C2H C 0.259(1) -0.646(1) -0.512(1)
O4H O 0.5265(7) -0.3994(7) -0.3957(6)
C3H C 0.334(1) -0.555(1) -0.360(1)
N1H N 0.3491(8) -0.6130(8) -0.4433(8)
loop_
_geom_bond_atom_site_label_1
_geom_bond_atom_site_label_2
_geom_bond_site_symmetry_1
_geom_bond_site_symmetry_2
O1 C1 1_555 1_555
O2 C1 1_555 1_555
O3 C4 1_555 1_555
O4 C4 1_555 1_555
N1 C2 1_555 1_555
C1 C2 1_555 1_555
C3 N1 1_555 1_555
C4 C3 1_555 1_555
Gd1 O1 1_555 1_555
Cu1 O2 1_555 1_555
Gd1H O3 1_555 1_555
O4F Cu1 1_555 1_555
O2F Cu1 1_555 1_555
N1F Cu1 1_555 1_555
O3C Gd1H 1_555 1_555
C4C O3C 1_555 1_555
O4C C4C 1_555 1_555
Cu1C O4C 1_555 1_555
O2C Gd1 1_555 1_555
C1C O2C 1_555 1_555
O1C Gd1 1_555 1_555
O1A Gd1 1_555 1_555
C1A O1A 1_555 1_555
O2A Gd1 1_555 1_555
Cu1A O2A 1_555 1_555
O2G Cu1A 1_555 1_555
O4A Cu1A 1_555 1_555
C4A O4A 1_555 1_555
O3A Gd1H 1_555 1_555
C3A C4A 1_555 1_555
N1A Cu1A 1_555 1_555
C2A C1A 1_555 1_555
O4G Cu1A 1_555 1_555
N1G Cu1A 1_555 1_555
O3K Gd1 1_555 1_555
C4K O3K 1_555 1_555
O4K C4K 1_555 1_555
Cu1E O4K 1_555 1_555
O2K Cu1E 1_555 1_555
C1K O2K 1_555 1_555
Gd1H_2 O2K 1_555 1_555
O1K C1K 1_555 1_555
O1H Gd1H_2 1_555 1_555
C1H O1H 1_555 1_555
O1J Gd1H_2 1_555 1_555
C1J O1J 1_555 1_555
O2H Gd1H_2 1_555 1_555
Cu1B O2H 1_555 1_555
O2J Gd1H_2 1_555 1_555
Cu1D O2J 1_555 1_555
O4J Cu1D 1_555 1_555
C4J O4J 1_555 1_555
O3J Gd1 1_555 1_555
O3H Gd1 1_555 1_555
C4H O3H 1_555 1_555
C3J C4J 1_555 1_555
N1J Cu1D 1_555 1_555
C2J C1J 1_555 1_555
O3C_2 Gd1H_2 1_555 1_555
O3A_2 Gd1H_2 1_555 1_555
O3_2 Gd1H_2 1_555 1_555
N1K Cu1E 1_555 1_555
C3K C4K 1_555 1_555
O2I Cu1C 1_555 1_555
O4I Cu1C 1_555 1_555
N1C Cu1C 1_555 1_555
N1I Cu1C 1_555 1_555
C3C C4C 1_555 1_555
C2K C1K 1_555 1_555
C2C C1C 1_555 1_555
C2H C1H 1_555 1_555
O4H Cu1B 1_555 1_555
C3H C4H 1_555 1_555
N1H Cu1B 1_555 1_555
O2 Gd1 1_555 1_555
O4 Cu1 1_555 1_555
N1 Cu1 1_555 1_555
Cu1C O2C 1_555 1_555
C1C O1C 1_555 1_555
C1A O2A 1_555 1_555
C4A O3A 1_555 1_555
C3A N1A 1_555 1_555
N1A C2A 1_555 1_555
Gd1H_2 O1K 1_555 1_555
C1H O2H 1_555 1_555
C1J O2J 1_555 1_555
C4J O3J 1_555 1_555
C4H O4H 1_555 1_555
C3J N1J 1_555 1_555
N1J C2J 1_555 1_555
N1K C2K 1_555 1_555
N1K C3K 1_555 1_555
N1C C2C 1_555 1_555
N1C C3C 1_555 1_555
C2H N1H 1_555 1_555
C3H N1H 1_555 1_555

#END
