
#######################################################################
#
#                 Cambridge Crystallographic Data Centre
#                                CCDC 
#
#######################################################################
#
# If this CIF has been generated from an entry in the Cambridge 
# Structural Database, then it will include bibliographic, chemical, 
# crystal, experimental, refinement or atomic coordinate data resulting 
# from the CCDC's data processing and validation procedures.
#
#######################################################################

data_IGINIX01
_chemical_formula_moiety         '(C20 H20 N4 O10 Zn2)n'
_symmetry_cell_setting           monoclinic
_symmetry_space_group_name_H-M   'P 21/n'
_symmetry_Int_Tables_number      14
_space_group_name_Hall           '-P 2yn'
loop_
_symmetry_equiv_pos_site_id
_symmetry_equiv_pos_as_xyz
1 x,y,z
2 1/2-x,1/2+y,1/2-z
3 -x,-y,-z
4 1/2+x,1/2-y,1/2+z
_cell_length_a                   14.0907(17)
_cell_length_b                   12.1434(14)
_cell_length_c                   14.6345(17)
_cell_angle_alpha                90
_cell_angle_beta                 106.053(2)
_cell_angle_gamma                90
_cell_volume                     2406.45
loop_
_atom_site_label
_atom_site_type_symbol
_atom_site_fract_x
_atom_site_fract_y
_atom_site_fract_z
Zn1 Zn 0.19631(2) 0.24317(2) 0.07426(2)
Zn2 Zn 0.35012(2) 0.02137(2) 0.15646(2)
O1 O 0.28840(11) 0.23311(12) -0.02388(10)
O2 O 0.38673(13) 0.09203(16) 0.04120(13)
O3 O 0.60858(11) 0.25342(11) -0.32761(10)
O4 O 0.67070(10) 0.09833(12) -0.24990(10)
O5 O 0.32297(10) 0.28772(12) 0.17506(10)
O6 O 0.39655(11) 0.13683(12) 0.25312(10)
O7 O 0.67459(13) 0.58896(13) 0.51545(11)
O8 O 0.71046(10) 0.43113(11) 0.59632(9)
O9 O 0.15633(10) 0.40112(11) 0.02586(10)
N1 N 0.53813(14) 0.09302(15) -0.15579(13)
N2 N 0.58102(11) 0.32033(13) 0.46120(11)
N3 N 0.18198(13) 0.58566(14) 0.03970(13)
C1 C 0.47592(17) 0.08881(19) -0.10128(16)
H1 H 0.4728 0.0229 -0.0673
C2 C 0.41548(16) 0.17655(18) -0.09197(15)
C3 C 0.41340(17) 0.26795(18) -0.14906(16)
H2 H 0.3709 0.3281 -0.1471
C4 C 0.47474(17) 0.27077(18) -0.20977(16)
H3 H 0.4731 0.3321 -0.2505
C5 C 0.53791(14) 0.18318(16) -0.20979(13)
C6 C 0.35720(16) 0.16796(18) -0.01897(15)
C7 C 0.61179(13) 0.17848(15) -0.26760(13)
C8 C 0.51730(14) 0.26199(16) 0.39423(13)
H4 H 0.5176 0.1840 0.3997
C9 C 0.45038(14) 0.31102(16) 0.31667(13)
C10 C 0.44759(15) 0.42538(17) 0.31073(14)
H5 H 0.4007 0.4612 0.2602
C11 C 0.51440(15) 0.48656(16) 0.37990(14)
H6 H 0.5145 0.5647 0.3772
C12 C 0.58095(14) 0.43064(15) 0.45286(13)
C13 C 0.38361(14) 0.23977(16) 0.24173(13)
C14 C 0.66055(14) 0.49132(16) 0.52639(13)
C15 C 0.19845(14) 0.48358(16) 0.06976(13)
H7 H 0.2459 0.4717 0.1292
C16 C 0.1128(2) 0.6123(2) -0.05153(19)
H8 H 0.1486 0.6188 -0.1000
H9 H 0.0800 0.6823 -0.0464
H10 H 0.0632 0.5538 -0.0696
C17 C 0.24069(19) 0.67576(18) 0.09301(18)
H11 H 0.2743 0.6507 0.1575
H12 H 0.1973 0.7378 0.0963
H13 H 0.2898 0.6993 0.0610
Zn1C Zn 0.69631(2) 0.25683(2) -0.42574(2)
Zn1C_2 Zn 0.69631(2) 0.25683(2) 0.57426(2)
Zn2B Zn 0.64988(2) -0.02137(2) -0.15646(2)
Zn2C Zn 0.85012(2) 0.47863(2) 0.65646(2)
O3C O 0.10858(11) 0.24658(11) 0.17239(10)
O4B O 0.32930(10) -0.09833(12) 0.24990(10)
O8C O 0.21046(10) 0.06887(11) 0.09632(9)
N1B N 0.46187(14) -0.09302(15) 0.15579(13)
N2C N 0.08102(11) 0.17967(13) -0.03880(11)
N4 N 0.6985(2) 0.1057(2) 0.20736(18)
O10 O 0.7740(4) -0.0456(5) 0.2808(4)
C18 C 0.7540(4) 0.0171(5) 0.2135(5)
H14 H 0.7803 0.0012 0.1617
C19 C 0.6827(6) 0.1742(5) 0.1202(4)
H15 H 0.7205 0.1434 0.0793
H16 H 0.7048 0.2497 0.1381
H17 H 0.6123 0.1747 0.0859
C20 C 0.6520(3) 0.1412(5) 0.2744(3)
H18 H 0.5805 0.1320 0.2491
H19 H 0.6673 0.2191 0.2889
H20 H 0.6756 0.0975 0.3326
loop_
_geom_bond_atom_site_label_1
_geom_bond_atom_site_label_2
_geom_bond_site_symmetry_1
_geom_bond_site_symmetry_2
Zn1 O1 1_555 1_555
Zn2 O2 1_555 1_555
O1 C6 1_555 1_555
O2 C6 1_555 1_555
O3 C7 1_555 1_555
O4 C7 1_555 1_555
O5 Zn1 1_555 1_555
O6 Zn2 1_555 1_555
O7 C14 1_555 1_555
O8 C14 1_555 1_555
O9 Zn1 1_555 1_555
N1 C1 1_555 1_555
N2 C8 1_555 1_555
N3 C15 1_555 1_555
C1 H1 1_555 1_555
C2 C1 1_555 1_555
C3 C2 1_555 1_555
H2 C3 1_555 1_555
C4 C3 1_555 1_555
H3 C4 1_555 1_555
C5 N1 1_555 1_555
C6 C2 1_555 1_555
C7 C5 1_555 1_555
C8 H4 1_555 1_555
C9 C8 1_555 1_555
C10 C9 1_555 1_555
H5 C10 1_555 1_555
C11 C10 1_555 1_555
H6 C11 1_555 1_555
C12 N2 1_555 1_555
C13 O5 1_555 1_555
C14 C12 1_555 1_555
C15 O9 1_555 1_555
H7 C15 1_555 1_555
C16 N3 1_555 1_555
H8 C16 1_555 1_555
H9 C16 1_555 1_555
H10 C16 1_555 1_555
C17 N3 1_555 1_555
H11 C17 1_555 1_555
H12 C17 1_555 1_555
H13 C17 1_555 1_555
N4 C18 1_555 1_555
O10 C18 1_555 1_555
C18 H14 1_555 1_555
C19 N4 1_555 1_555
H15 C19 1_555 1_555
H16 C19 1_555 1_555
H17 C19 1_555 1_555
C20 N4 1_555 1_555
H18 C20 1_555 1_555
H19 C20 1_555 1_555
H20 C20 1_555 1_555
Zn1C O3 1_555 1_555
Zn1C_2 O8 1_555 1_555
Zn2B O4 1_555 1_555
Zn2C O8 1_555 1_555
O3C Zn1 1_555 1_555
O4B Zn2 1_555 1_555
O8C Zn1 1_555 1_555
N1B Zn2 1_555 1_555
N2C Zn1 1_555 1_555
Zn2 O8C 1_555 1_555
O6 C13 1_555 1_555
N1 Zn2B 1_555 1_555
N2 Zn1C_2 1_555 1_555
C4 C5 1_555 1_555
C9 C13 1_555 1_555
C11 C12 1_555 1_555

#END
