
#######################################################################
#
#                 Cambridge Crystallographic Data Centre
#                                CCDC 
#
#######################################################################
#
# If this CIF has been generated from an entry in the Cambridge 
# Structural Database, then it will include bibliographic, chemical, 
# crystal, experimental, refinement or atomic coordinate data resulting 
# from the CCDC's data processing and validation procedures.
#
#######################################################################

data_QUDGED
_chemical_formula_moiety         '(C27 H21 N5 O10 Zn2)n'
_symmetry_cell_setting           monoclinic
_symmetry_space_group_name_H-M   'I 2/a'
_symmetry_Int_Tables_number      15
_space_group_name_Hall           '-I 2ya'
loop_
_symmetry_equiv_pos_site_id
_symmetry_equiv_pos_as_xyz
1 x,y,z
2 1/2-x,y,-z
3 1/2+x,1/2+y,1/2+z
4 -x,1/2+y,1/2-z
5 -x,-y,-z
6 1/2+x,-y,z
7 1/2-x,1/2-y,1/2-z
8 x,1/2-y,1/2+z
_cell_length_a                   26.306(13)
_cell_length_b                   19.939(13)
_cell_length_c                   26.336(14)
_cell_angle_alpha                90
_cell_angle_beta                 100.095(12)
_cell_angle_gamma                90
_cell_volume                     13599.8
loop_
_atom_site_label
_atom_site_type_symbol
_atom_site_fract_x
_atom_site_fract_y
_atom_site_fract_z
_atom_site_U_iso_or_equiv
_atom_site_thermal_displace_type
Zn1 Zn 0.09562(9) 0.43164(17) 0.84270(9) 0.1342 Uani
Zn2 Zn 0.10569(8) 0.18270(17) 0.64130(9) 0.1288 Uani
O1 O 0.3549(6) 0.3984(7) 0.8643(6) 0.1500 Uiso
O2 O 0.2955(6) 0.3147(9) 0.8588(6) 0.1610 Uiso
O3 O 0.0063(7) 0.7357(11) 0.8862(7) 0.2030 Uiso
O4 O -0.0337(6) 0.6426(7) 0.8628(5) 0.1350 Uiso
O5 O 0.1070(8) 0.4892(13) 0.7389(8) 0.2270 Uiso
O6 O 0.0974(5) 0.3900(7) 0.7730(6) 0.1290 Uiso
O7 O 0.1050(6) 0.1560(8) 0.3900(7) 0.1530 Uiso
O8 O 0.0973(6) 0.0707(9) 0.4423(6) 0.1580 Uiso
N1 N 0.1775(4) 0.4530(8) 0.8562(4) 0.1150 Uiso
C1 C 0.2188(6) 0.4092(5) 0.8573(5) 0.1270 Uiso
H1 H 0.2128 0.3624 0.8529 0.1520 Uiso
C2 C 0.2690(4) 0.4339(8) 0.8646(5) 0.1050 Uiso
C3 C 0.2779(4) 0.5024(8) 0.8709(5) 0.1270 Uiso
H2 H 0.3122 0.5192 0.8759 0.1520 Uiso
C4 C 0.2366(7) 0.5461(5) 0.8699(6) 0.1780 Uiso
H3 H 0.2427 0.5929 0.8742 0.2140 Uiso
C5 C 0.1864(5) 0.5215(7) 0.8625(5) 0.1320 Uiso
N2 N 0.0975(7) 0.5335(5) 0.8556(5) 0.1400 Uiso
C6 C 0.1448(5) 0.5659(8) 0.8690(5) 0.1260 Uiso
C7 C 0.1464(5) 0.6331(8) 0.8832(5) 0.1300 Uiso
H4 H 0.1787 0.6552 0.8923 0.1560 Uiso
C8 C 0.1008(7) 0.6680(5) 0.8840(6) 0.2090 Uiso
H5 H 0.1019 0.7139 0.8937 0.2510 Uiso
C9 C 0.0535(5) 0.6356(8) 0.8706(6) 0.1270 Uiso
C10 C 0.0519(5) 0.5684(8) 0.8564(5) 0.1270 Uiso
H6 H 0.0196 0.5462 0.8473 0.1520 Uiso
N3 N 0.1099(5) 0.2830(6) 0.6438(7) 0.1410 Uiso
C11 C 0.1059(5) 0.3175(9) 0.6888(5) 0.1220 Uiso
H7 H 0.1015 0.2935 0.7189 0.1460 Uiso
C12 C 0.1083(6) 0.3872(9) 0.6898(7) 0.1300 Uiso
C13 C 0.1147(9) 0.4223(6) 0.6458(10) 0.3400 Uiso
H8 H 0.1163 0.4699 0.6464 0.4040 Uiso
C14 C 0.1187(10) 0.3878(11) 0.6008(7) 0.5500 Uiso
H9 H 0.1230 0.4119 0.5707 0.6600 Uiso
C15 C 0.1163(8) 0.3182(11) 0.5998(5) 0.2590 Uiso
N4 N 0.1051(4) 0.2044(8) 0.5635(4) 0.1010 Uiso
C16 C 0.1091(5) 0.2726(7) 0.5538(5) 0.1420 Uiso
C17 C 0.1102(6) 0.2948(6) 0.5040(7) 0.2370 Uiso
H10 H 0.1129 0.3414 0.4973 0.2850 Uiso
C18 C 0.1073(6) 0.2489(10) 0.4639(4) 0.1500 Uiso
H11 H 0.1080 0.2640 0.4298 0.1800 Uiso
C19 C 0.1033(5) 0.1807(8) 0.4736(5) 0.1220 Uiso
C20 C 0.1022(5) 0.1585(5) 0.5234(6) 0.1430 Uiso
H12 H 0.0995 0.1119 0.5301 0.1710 Uiso
C21 C 0.3036(8) 0.3680(12) 0.8595(7) 0.1060 Uiso
C22 C 0.0065(8) 0.6807(13) 0.8779(8) 0.1150 Uiso
C23 C 0.1011(10) 0.4305(17) 0.7387(10) 0.1570 Uiso
C24 C 0.1035(8) 0.1275(14) 0.4334(9) 0.1290 Uiso
O9 O 0.0135(5) 0.4327(7) 0.8288(5) 0.1430 Uiso
C25 C -0.0193(6) 0.3924(7) 0.8355(7) 0.1350 Uiso
H13 H -0.0081 0.3479 0.8442 0.1620 Uiso
N5 N -0.0707(6) 0.4051(10) 0.8316(8) 0.1270 Uiso
C26 C -0.0911(6) 0.4718(13) 0.8183(12) 0.1070 Uiso
H14 H -0.0628 0.5018 0.8135 0.1600 Uiso
H15 H -0.1077 0.4890 0.8462 0.1600 Uiso
H16 H -0.1165 0.4697 0.7864 0.1600 Uiso
C27 C -0.1070(9) 0.3534(15) 0.8403(16) 0.2700 Uiso
H17 H -0.0884 0.3111 0.8488 0.4100 Uiso
H18 H -0.1329 0.3474 0.8091 0.4100 Uiso
H19 H -0.1241 0.3666 0.8690 0.4100 Uiso
O10 O 0.1257(6) 0.1823(8) 0.7237(6) 0.1540 Uiso
Zn1G Zn 0.09562(9) 0.06836(17) 0.34270(9) 0.1342 Uani
Zn2C Zn -0.10569(8) 0.68270(17) 0.85870(9) 0.1288 Uani
Zn2F Zn 0.39431(8) 0.31730(17) 0.85870(9) 0.1288 Uani
O1F O 0.1451(6) 0.1016(7) 0.6357(6) 0.1500 Uiso
O4C O 0.0337(6) 0.1426(7) 0.6372(5) 0.1350 Uiso
O7G O 0.1050(6) 0.3440(8) 0.8900(7) 0.1530 Uiso
loop_
_atom_site_aniso_label
_atom_site_aniso_U_11
_atom_site_aniso_U_22
_atom_site_aniso_U_33
_atom_site_aniso_U_23
_atom_site_aniso_U_13
_atom_site_aniso_U_12
Zn1 0.0900(19) 0.250(4) 0.0692(18) -0.0067(19) 0.0323(13) 0.006(2)
Zn2 0.0651(16) 0.245(4) 0.0794(19) -0.0061(18) 0.0216(12) -0.0055(19)
Zn1G 0.09 0.25 0.0692 0.0067 0.0323 -0.006
Zn2C 0.0651 0.245 0.0794 0.0061 0.0216 0.0055
Zn2F 0.0651 0.245 0.0794 -0.0061 0.0216 -0.0055
loop_
_geom_bond_atom_site_label_1
_geom_bond_atom_site_label_2
_geom_bond_site_symmetry_1
_geom_bond_site_symmetry_2
Zn1 O6 1_555 1_555
Zn2 N3 1_555 1_555
O1 C21 1_555 1_555
O2 C21 1_555 1_555
O3 C22 1_555 1_555
O4 C22 1_555 1_555
O5 C23 1_555 1_555
O6 C23 1_555 1_555
O7 C24 1_555 1_555
O8 C24 1_555 1_555
N1 Zn1 1_555 1_555
C1 N1 1_555 1_555
H1 C1 1_555 1_555
C2 C1 1_555 1_555
C3 C2 1_555 1_555
H2 C3 1_555 1_555
C4 C3 1_555 1_555
H3 C4 1_555 1_555
C5 N1 1_555 1_555
N2 Zn1 1_555 1_555
C6 C5 1_555 1_555
C7 C6 1_555 1_555
H4 C7 1_555 1_555
C8 C7 1_555 1_555
H5 C8 1_555 1_555
C9 C8 1_555 1_555
C10 N2 1_555 1_555
H6 C10 1_555 1_555
N3 C11 1_555 1_555
C11 H7 1_555 1_555
C12 C11 1_555 1_555
C13 C12 1_555 1_555
H8 C13 1_555 1_555
C14 C13 1_555 1_555
H9 C14 1_555 1_555
C15 N3 1_555 1_555
N4 Zn2 1_555 1_555
C16 C15 1_555 1_555
C17 C16 1_555 1_555
H10 C17 1_555 1_555
C18 C17 1_555 1_555
H11 C18 1_555 1_555
C19 C18 1_555 1_555
C20 N4 1_555 1_555
H12 C20 1_555 1_555
C21 C2 1_555 1_555
C22 C9 1_555 1_555
C23 C12 1_555 1_555
C24 C19 1_555 1_555
O9 Zn1 1_555 1_555
C25 O9 1_555 1_555
H13 C25 1_555 1_555
N5 C25 1_555 1_555
C26 N5 1_555 1_555
H14 C26 1_555 1_555
H15 C26 1_555 1_555
H16 C26 1_555 1_555
C27 N5 1_555 1_555
H17 C27 1_555 1_555
H18 C27 1_555 1_555
H19 C27 1_555 1_555
O10 Zn2 1_555 1_555
Zn1G O7 1_555 1_555
Zn2C O4 1_555 1_555
Zn2F O1 1_555 1_555
O1F Zn2 1_555 1_555
O4C Zn2 1_555 1_555
O7G Zn1 1_555 1_555
C4 C5 1_555 1_555
N2 C6 1_555 1_555
C9 C10 1_555 1_555
C14 C15 1_555 1_555
N4 C16 1_555 1_555
C19 C20 1_555 1_555

#END
