
#######################################################################
#
#                 Cambridge Crystallographic Data Centre
#                                CCDC 
#
#######################################################################
#
# If this CIF has been generated from an entry in the Cambridge 
# Structural Database, then it will include bibliographic, chemical, 
# crystal, experimental, refinement or atomic coordinate data resulting 
# from the CCDC's data processing and validation procedures.
#
#######################################################################

data_CEKHIL
_chemical_formula_moiety         '(C24 H32 Co2 N2 O20)n'
_symmetry_cell_setting           monoclinic
_symmetry_space_group_name_H-M   'P 21'
_symmetry_Int_Tables_number      4
_space_group_name_Hall           'P 2yb'
loop_
_symmetry_equiv_pos_site_id
_symmetry_equiv_pos_as_xyz
1 x,y,z
2 -x,1/2+y,-z
_cell_length_a                   10.152(3)
_cell_length_b                   17.953(6)
_cell_length_c                   18.062(6)
_cell_angle_alpha                90
_cell_angle_beta                 94.620(10)
_cell_angle_gamma                90
_cell_volume                     3281.26
loop_
_atom_site_label
_atom_site_type_symbol
_atom_site_fract_x
_atom_site_fract_y
_atom_site_fract_z
Co1 Co 0.49070(9) 1.30463(6) 0.37142(5)
Co2 Co 0.72568(9) 1.24931(6) 0.51191(5)
N1 N 0.3209(10) 0.9559(5) 0.2588(4)
H1 H 0.3795 0.9472 0.2249
N2 N 0.0688(8) 0.8569(7) -0.1063(4)
H2 H 0.1354 0.8901 -0.1010
O1 O 0.1481(11) 0.8899(6) 0.2977(4)
O2 O -0.1229(12) 0.8296(16) -0.0590(5)
O3 O 0.4987(6) 1.1922(3) 0.3689(3)
O4 O 0.5996(6) 1.1642(3) 0.4786(3)
O5 O 0.5155(6) 0.9139(3) 0.5820(3)
O6 O 0.4362(5) 0.8242(3) 0.5096(3)
O7 O -0.3530(5) 0.8204(4) -0.2803(3)
O8 O -0.2776(5) 0.7953(4) -0.3885(3)
O9 O 0.2006(5) 0.7739(3) -0.4117(3)
O10 O 0.3409(5) 0.8213(3) -0.3230(3)
C1 C 0.16001(18) 0.90583(12) 0.16946(10)
C2 C 0.02851(19) 0.88435(14) 0.15725(10)
H3 H -0.0229 0.8786 0.1972
C3 C -0.02611(18) 0.87150(15) 0.08533(11)
H4 H -0.1141 0.8571 0.0772
C4 C 0.05077(17) 0.88014(14) 0.02561(10)
C5 C 0.18227(17) 0.90162(12) 0.03782(10)
H5 H 0.2337 0.9074 -0.0021
C6 C 0.23689(17) 0.91447(11) 0.10974(9)
H6 H 0.3249 0.9288 0.1179
C7 C 0.2134(2) 0.91535(12) 0.24763(10)
C8 C -0.00899(18) 0.85721(15) -0.04803(10)
C9 C 0.3840(2) 0.97431(11) 0.33035(9)
C10 C 0.4243(2) 1.04707(11) 0.34091(10)
H7 H 0.4105 1.0815 0.3026
C11 C 0.4875(2) 1.06935(12) 0.41088(10)
C12 C 0.5009(2) 1.01960(13) 0.46712(10)
H8 H 0.5416 1.0345 0.5127
C13 C 0.4543(3) 0.94497(13) 0.45843(10)
C14 C 0.3988(2) 0.92160(12) 0.38641(10)
H9 H 0.3735 0.8724 0.3777
C15 C 0.5351(2) 1.14840(12) 0.41937(11)
C16 C 0.4689(3) 0.89202(14) 0.51979(10)
C17 C 0.0322(2) 0.83858(16) -0.18176(10)
C18 C -0.0947(2) 0.83218(17) -0.21215(11)
H10 H -0.1654 0.8399 -0.1833
C19 C -0.1168(2) 0.81383(19) -0.28708(11)
C20 C -0.0168(2) 0.80552(19) -0.33164(11)
H11 H -0.0350 0.7954 -0.3819
C21 C 0.1157(2) 0.81227(19) -0.30116(10)
C22 C 0.1393(2) 0.83006(17) -0.22678(10)
H12 H 0.2256 0.8364 -0.2063
C23 C -0.2594(2) 0.8094(2) -0.32087(12)
C24 C 0.2280(3) 0.8013(2) -0.34966(11)
O11 O 0.8828(3) 1.17220(17) 0.52738(13)
H13 H 0.8468 1.1311 0.5140
H14 H 0.8961 1.1694 0.5744
O12 O 0.8517(4) 1.33348(16) 0.55581(15)
H15 H 0.9299 1.3363 0.5424
H16 H 0.8379 1.3527 0.5975
O13 O 0.6820(3) 1.23084(15) 0.62196(13)
H17 H 0.6538 1.2667 0.6471
H18 H 0.7180 1.1946 0.6461
Co1A Co -0.49070(9) 0.80463(6) -0.37142(5)
Co1A_2 Co 0.50930(9) 0.80463(6) -0.37142(5)
Co1A_3 Co 0.50930(9) 0.80463(6) 0.62858(5)
Co2A Co 0.27432(9) 0.74931(6) -0.51191(5)
Co2A_2 Co 0.27432(9) 0.74931(6) 0.48809(5)
O5A O 0.4845(6) 1.4139(3) 0.4180(3)
O6A O 0.5638(5) 1.3242(3) 0.4904(3)
O7A O 0.3530(5) 1.3204(4) 0.2803(3)
O8A O 0.2776(5) 1.2953(4) 0.3885(3)
O9A O 0.7994(5) 1.2739(3) 0.4117(3)
O10A O 0.6591(5) 1.3213(3) 0.3230(3)
O14 O 0.9942(3) 0.97031(19) 0.56505(14)
H19 H 0.9904 0.9575 0.6101
H20 H 1.0147 1.0161 0.5630
O15 O 0.0684(10) 0.1641(2) 0.4920(3)
H21 H 0.0604 0.2105 0.5000
H22 H 0.1305 0.1475 0.5219
O16 O 0.8661(10) 0.09493(17) 0.4075(4)
H23 H 0.8311 0.0705 0.4412
H24 H 0.8574 0.0707 0.3669
O17 O 0.138(4) 0.104(2) 0.3982(19)
H25 H 0.1020 0.0841 0.3589
H26 H 0.2132 0.0837 0.4089
O18 O 0.446(4) 0.0464(18) 0.1548(9)
H27 H 0.5035 0.0344 0.1254
H28 H 0.4812 0.0475 0.1991
O19 O 0.463(7) 0.978(3) 0.804(4)
H29 H 0.5370 0.9900 0.8260
H30 H 0.4099 1.0146 0.8048
O20 O 0.766(3) 0.174(3) 0.7467(16)
H31 H 0.7153 0.1605 0.7796
H32 H 0.8414 0.1852 0.7676
loop_
_geom_bond_atom_site_label_1
_geom_bond_atom_site_label_2
_geom_bond_site_symmetry_1
_geom_bond_site_symmetry_2
Co1 O3 1_555 1_555
Co2 O4 1_555 1_555
N1 H1 1_555 1_555
N2 H2 1_555 1_555
O1 C7 1_555 1_555
O2 C8 1_555 1_555
O3 C15 1_555 1_555
O4 C15 1_555 1_555
O5 C16 1_555 1_555
O6 C16 1_555 1_555
O7 C23 1_555 1_555
O8 C23 1_555 1_555
O9 C24 1_555 1_555
O10 C24 1_555 1_555
C1 C2 1_555 1_555
C2 H3 1_555 1_555
C3 C2 1_555 1_555
H4 C3 1_555 1_555
C4 C3 1_555 1_555
C5 C4 1_555 1_555
H5 C5 1_555 1_555
C6 C1 1_555 1_555
H6 C6 1_555 1_555
C7 N1 1_555 1_555
C8 N2 1_555 1_555
C9 N1 1_555 1_555
C10 C9 1_555 1_555
H7 C10 1_555 1_555
C11 C10 1_555 1_555
C12 C11 1_555 1_555
H8 C12 1_555 1_555
C13 C12 1_555 1_555
C14 C9 1_555 1_555
H9 C14 1_555 1_555
C15 C11 1_555 1_555
C16 C13 1_555 1_555
C17 N2 1_555 1_555
C18 C17 1_555 1_555
H10 C18 1_555 1_555
C19 C18 1_555 1_555
C20 C19 1_555 1_555
H11 C20 1_555 1_555
C21 C20 1_555 1_555
C22 C17 1_555 1_555
H12 C22 1_555 1_555
C23 C19 1_555 1_555
C24 C21 1_555 1_555
O11 Co2 1_555 1_555
H13 O11 1_555 1_555
H14 O11 1_555 1_555
O12 Co2 1_555 1_555
H15 O12 1_555 1_555
H16 O12 1_555 1_555
O13 Co2 1_555 1_555
H17 O13 1_555 1_555
H18 O13 1_555 1_555
O14 H19 1_555 1_555
H20 O14 1_555 1_555
O15 H21 1_555 1_555
H22 O15 1_555 1_555
O16 H23 1_555 1_555
H24 O16 1_555 1_555
O17 H25 1_555 1_555
H26 O17 1_555 1_555
O18 H27 1_555 1_555
H28 O18 1_555 1_555
O19 H29 1_555 1_555
H30 O19 1_555 1_555
O20 H31 1_555 1_555
H32 O20 1_555 1_555
Co1A O7 1_555 1_555
Co1A_2 O10 1_555 1_555
Co1A_3 O5 1_555 1_555
Co2A O9 1_555 1_555
Co2A_2 O6 1_555 1_555
O5A Co1 1_555 1_555
O6A Co1 1_555 1_555
O7A Co1 1_555 1_555
O8A Co1 1_555 1_555
O9A Co2 1_555 1_555
O10A Co1 1_555 1_555
Co2 O6A 1_555 1_555
O6 Co1A_3 1_555 1_555
O8 Co1A 1_555 1_555
C1 C7 1_555 1_555
C4 C8 1_555 1_555
C5 C6 1_555 1_555
C13 C14 1_555 1_555
C21 C22 1_555 1_555

#END
