
#######################################################################
#
#                 Cambridge Crystallographic Data Centre
#                                CCDC 
#
#######################################################################
#
# If this CIF has been generated from an entry in the Cambridge 
# Structural Database, then it will include bibliographic, chemical, 
# crystal, experimental, refinement or atomic coordinate data resulting 
# from the CCDC's data processing and validation procedures.
#
#######################################################################

data_KUKMUA
_chemical_formula_moiety         '(C22 H22 Cu4 N2 O18 S2)n'
_symmetry_cell_setting           orthorhombic
_symmetry_space_group_name_H-M   'F d d 2'
_symmetry_Int_Tables_number      43
_space_group_name_Hall           'F 2 -2d'
loop_
_symmetry_equiv_pos_site_id
_symmetry_equiv_pos_as_xyz
1 x,y,z
2 -x,-y,z
3 1/4-x,1/4+y,1/4+z
4 1/4+x,1/4-y,1/4+z
5 x,1/2+y,1/2+z
6 -x,1/2-y,1/2+z
7 1/4-x,3/4+y,3/4+z
8 1/4+x,3/4-y,3/4+z
9 1/2+x,y,1/2+z
10 1/2-x,-y,1/2+z
11 3/4-x,1/4+y,3/4+z
12 3/4+x,1/4-y,3/4+z
13 1/2+x,1/2+y,z
14 1/2-x,1/2-y,z
15 3/4-x,3/4+y,1/4+z
16 3/4+x,3/4-y,1/4+z
_cell_length_a                   24.748(5)
_cell_length_b                   32.354(5)
_cell_length_c                   21.712(5)
_cell_angle_alpha                90
_cell_angle_beta                 90
_cell_angle_gamma                90
_cell_volume                     17384.7
loop_
_atom_site_label
_atom_site_type_symbol
_atom_site_fract_x
_atom_site_fract_y
_atom_site_fract_z
_atom_site_U_iso_or_equiv
_atom_site_thermal_displace_type
C1 C 0.5914(5) 0.3229(4) 0.2089(7) 0.0247 Uani
C2 C 0.5685(3) 0.3093(3) 0.2628(8) 0.0223 Uani
H1 H 0.5428 0.2884 0.2615 0.0270 Uiso
C3 C 0.5832(4) 0.3263(3) 0.3201(6) 0.0140 Uani
C4 C 0.6248(5) 0.3565(4) 0.3210(7) 0.0327 Uani
H2 H 0.6397 0.3654 0.3580 0.0390 Uiso
C5 C 0.6425(3) 0.3723(2) 0.2655(8) 0.0177 Uani
C6 C 0.6255(5) 0.3578(3) 0.2104(6) 0.0190 Uani
H3 H 0.6361 0.3707 0.1741 0.0230 Uiso
C7 C 0.5707(5) 0.3067(4) 0.1498(6) 0.0203 Uani
C8 C 0.5655(5) 0.3097(4) 0.3820(6) 0.0237 Uani
C9 C 0.8254(4) 0.4443(4) 0.6317(5) 0.0143 Uani
C10 C 0.5978(6) 0.4066(3) -0.0176(5) 0.0420 Uani
H4 H 0.5620 0.4053 -0.0304 0.0500 Uiso
C11 C 0.6805(8) 0.4395(6) -0.0124(14) 0.1693 Uani
C12 C 0.6047(8) 0.4680(6) -0.0700(9) 0.1053 Uani
C13 C 0.8479(6) 0.3441(5) 0.2962(7) 0.0590 Uani
H5 H 0.8135 0.3464 0.3132 0.0710 Uiso
C14 C 0.8559(6) 0.2762(4) 0.3453(8) 0.0850 Uani
H6 H 0.8830 0.2551 0.3495 0.1280 Uiso
H7 H 0.8248 0.2650 0.3250 0.1280 Uiso
H8 H 0.8458 0.2861 0.3854 0.1280 Uiso
C15 C 0.9349(6) 0.3062(4) 0.2931(8) 0.0837 Uani
H9 H 0.9481 0.2799 0.3068 0.1250 Uiso
H10 H 0.9550 0.3279 0.3128 0.1250 Uiso
H11 H 0.9391 0.3083 0.2493 0.1250 Uiso
C16 C 0.8164(5) 0.4388(4) 0.4006(6) 0.0207 Uani
C17 C 0.8739(4) 0.3918(3) 0.4596(6) 0.0167 Uani
H12 H 0.8811 0.3786 0.4225 0.0200 Uiso
C18 C 0.8409(5) 0.4247(3) 0.4593(6) 0.0200 Uani
C19 C 0.8232(3) 0.4413(2) 0.5134(7) 0.0171 Uani
H13 H 0.7992 0.4634 0.5130 0.0200 Uiso
C20 C 0.8412(5) 0.4248(4) 0.5702(6) 0.0230 Uani
C21 C 0.8830(4) 0.3940(4) 0.5697(6) 0.0183 Uani
H14 H 0.8997 0.3861 0.6062 0.0220 Uiso
C22 C 0.8982(4) 0.3763(3) 0.5139(8) 0.0280 Uani
N1 N 0.8774(4) 0.3101(3) 0.3092(5) 0.0447 Uani
N2 N 0.6256(5) 0.4376(4) -0.0332(6) 0.0547 Uani
O1 O 0.5433(3) 0.2745(3) 0.1509(4) 0.0313 Uani
O2 O 0.5938(3) 0.3223(2) 0.1019(3) 0.0182 Uani
O3 O 0.6910(3) 0.4329(3) 0.2088(4) 0.0230 Uani
O4 O 0.7443(3) 0.38681(19) 0.2731(6) 0.0370 Uani
O5 O 0.6858(5) 0.4373(3) 0.3204(5) 0.0447 Uani
O6 O 0.5516(2) 0.26726(15) 0.0137(5) 0.0183 Uani
O7 O 0.4592(2) 0.22908(15) 0.0124(5) 0.0183 Uani
O8 O 0.7858(3) 0.4701(2) 0.4012(4) 0.0240 Uani
O9 O 0.6158(3) 0.3778(2) 0.0137(7) 0.0387 Uani
O10 O 0.8316(3) 0.4221(2) 0.6762(4) 0.0383 Uani
O11 O 0.7971(3) 0.4757(2) 0.6303(4) 0.0240 Uani
O12 O 0.5332(3) 0.2799(3) 0.3809(4) 0.0283 Uani
O13 O 0.5751(3) 0.3319(2) 0.4253(3) 0.0234 Uani
O14 O 0.8656(3) 0.3737(2) 0.2608(6) 0.0407 Uani
O15 O 0.8394(3) 0.4233(2) 0.3513(4) 0.0260 Uani
O16 O 0.9390(5) 0.3116(3) 0.5682(6) 0.0590 Uani
O17 O 0.9970(3) 0.3573(2) 0.5175(8) 0.0553 Uani
S1 S 0.69501(10) 0.41073(7) 0.2668(2) 0.0239 Uani
S2 S 0.94647(9) 0.33648(7) 0.5132(2) 0.0245 Uani
Cu1 Cu 0.50808(6) 0.24579(4) -0.05495(8) 0.0236 Uani
Cu2 Cu 0.82347(4) 0.42376(3) 0.26319(10) 0.0225 Uani
Cu3 Cu 0.57767(5) 0.32398(3) 0.01391(10) 0.0232 Uani
Cu4 Cu 0.50600(6) 0.24623(4) 0.08346(7) 0.0239 Uani
O18 O 0.9392(5) 0.3154(3) 0.4588(6) 0.0517 Uani
O3F O 0.5590(3) 0.1829(3) -0.0412(4) 0.0230 Uani
O5F O 0.5642(5) 0.1873(3) 0.0704(5) 0.0447 Uani
O7B O 0.7908(2) 0.47908(15) 0.2624(5) 0.0183 Uani
O8F O 0.4642(3) 0.2201(2) 0.1512(4) 0.0240 Uani
O10O O 0.5816(3) 0.3279(2) -0.0738(4) 0.0383 Uani
O11O O 0.5471(3) 0.2743(2) -0.1197(4) 0.0240 Uani
O12E O 0.4668(3) 0.2201(3) -0.1191(4) 0.0283 Uani
O13G O 0.8251(3) 0.4181(2) 0.1753(3) 0.0234 Uani
O16H O 0.4390(5) 0.3116(3) 0.0682(6) 0.0590 Uani
O17H O 0.4970(3) 0.3573(2) 0.0175(8) 0.0553 Uani
Cu1B Cu 0.74192(6) 0.49579(4) 0.19505(8) 0.0236 Uani
Cu1E Cu 0.49192(6) 0.25421(4) 0.44505(8) 0.0236 Uani
Cu1G Cu 0.75808(6) 0.50421(4) 0.69505(8) 0.0236 Uani
Cu2F Cu 0.42653(4) 0.17376(3) 0.01319(10) 0.0225 Uani
Cu2O Cu 0.57347(4) 0.32624(3) 0.51319(10) 0.0225 Uani
Cu3G Cu 0.82767(5) 0.42602(3) 0.76391(10) 0.0232 Uani
Cu3H Cu 1.07767(5) 0.32398(3) 0.51391(10) 0.0232 Uani
Cu4B Cu 0.74400(6) 0.49623(4) 0.33346(7) 0.0239 Uani
Cu4H Cu 1.00600(6) 0.24623(4) 0.58346(7) 0.0239 Uani
loop_
_atom_site_aniso_label
_atom_site_aniso_U_11
_atom_site_aniso_U_22
_atom_site_aniso_U_33
_atom_site_aniso_U_23
_atom_site_aniso_U_13
_atom_site_aniso_U_12
C1 0.025(3) 0.025(3) 0.024(3) 0.0002(10) 0.0002(10) 0.0001(10)
C2 0.022(2) 0.023(2) 0.022(2) 0.0002(10) 0.0000(10) -0.0005(10)
C3 0.014(3) 0.014(3) 0.014(3) -0.0002(10) -0.0001(10) -0.0002(10)
C4 0.033(4) 0.033(4) 0.032(4) -0.0006(10) -0.0002(10) -0.0006(10)
C5 0.018(2) 0.017(2) 0.018(2) -0.0001(10) -0.0001(10) -0.0011(10)
C6 0.019(3) 0.019(3) 0.019(3) 0.0009(10) 0.0002(10) -0.0010(10)
C7 0.020(3) 0.021(3) 0.020(3) 0.0000(10) -0.0001(10) -0.0006(10)
C8 0.024 0.024 0.023 -0.0003 0.0003 -0.0005
C9 0.014 0.015 0.014 0.0007 0 0.0001
C10 0.084(10) 0.030(6) 0.012(6) -0.005(5) 0.017(6) -0.035(7)
C11 0.050(9) 0.098(14) 0.36(4) 0.127(18) -0.012(13) -0.006(10)
C12 0.109(14) 0.127(15) 0.080(14) 0.058(11) -0.006(11) 0.010(13)
C13 0.040(8) 0.067(10) 0.070(11) -0.032(9) -0.019(7) 0.028(8)
C14 0.069(11) 0.064(10) 0.122(16) 0.048(10) 0.001(10) 0.046(9)
C15 0.059(10) 0.061(10) 0.131(17) 0.014(10) 0.039(10) 0.012(8)
C16 0.021(3) 0.021(3) 0.020(3) -0.0003(10) -0.0002(10) 0.0001(10)
C17 0.017(3) 0.017(3) 0.016(3) -0.0003(10) 0.0001(10) -0.0006(10)
C18 0.020(3) 0.020(3) 0.020(3) -0.0003(10) 0.0001(10) 0.0004(10)
C19 0.0175(19) 0.0172(19) 0.0165(19) 0.0002(10) 0.0002(10) 0.0005(10)
C20 0.032(6) 0.032(6) 0.005(5) 0.001(4) 0.002(4) 0.014(5)
C21 0.018(3) 0.019(3) 0.018(3) -0.0001(10) -0.0001(10) -0.0003(10)
C22 0.025(5) 0.039(5) 0.020(5) 0.005(6) -0.006(6) 0.003(4)
N1 0.050(7) 0.015(5) 0.069(8) 0.011(4) -0.005(5) 0.014(5)
N2 0.055(3) 0.054(3) 0.055(3) 0.0005(10) 0.0001(10) -0.0003(10)
O1 0.033(2) 0.031(2) 0.030(2) 0.0000(10) -0.0003(10) -0.0019(10)
O2 0.0183(17) 0.0194(18) 0.0169(18) 0.0009(10) -0.0004(10) -0.0012(10)
O3 0.023(2) 0.023(2) 0.023(2) 0.0006(10) -0.0006(10) -0.0005(10)
O4 0.030(4) 0.026(3) 0.055(7) 0.010(5) -0.008(5) -0.005(3)
O5 0.075(7) 0.033(5) 0.026(5) -0.015(4) 0.019(4) -0.023(5)
O6 0.022(3) 0.023(3) 0.010(3) -0.005(5) 0.006(4) -0.008(2)
O7 0.023(3) 0.020(3) 0.012(3) -0.003(5) 0.003(4) -0.008(2)
O8 0.024(2) 0.025(2) 0.023(2) -0.0003(10) -0.0009(10) 0.0027(10)
O9 0.057(5) 0.034(4) 0.025(4) 0.006(7) 0.002(7) -0.022(4)
O10 0.04 0.038 0.037 0.0005 0 0.002
O11 0.025 0.024 0.023 -0.0012 -0.0002 0.0018
O12 0.029 0.029 0.027 -0.0007 0.0009 -0.003
O13 0.0237 0.0238 0.0226 -0.0001 -0.0004 -0.0008
O14 0.068(6) 0.038(4) 0.016(4) 0.001(6) 0.007(6) 0.029(4)
O15 0.027(2) 0.027(2) 0.024(2) -0.0001(10) 0.0002(10) 0.0021(10)
O16 0.096(8) 0.038(6) 0.043(6) 0.024(5) 0.028(6) 0.045(6)
O17 0.032(5) 0.042(4) 0.092(7) -0.009(8) -0.009(8) 0.004(3)
S1 0.0314(13) 0.0208(11) 0.0196(13) 0.005(2) 0.0010(19) -0.0094(11)
S2 0.0269(13) 0.0263(12) 0.0202(13) -0.007(2) 0.005(2) 0.0098(11)
Cu1 0.0306(9) 0.0294(11) 0.0108(11) 0.0007(8) -0.0007(9) -0.0153(7)
Cu2 0.0322(7) 0.0267(6) 0.0085(6) -0.0016(10) -0.0038(9) 0.0108(5)
Cu3 0.0354(7) 0.0255(6) 0.0086(6) -0.0001(10) -0.0027(9) -0.0108(5)
Cu4 0.0351(10) 0.0317(11) 0.0049(10) -0.0011(8) 0.0006(9) -0.0159(7)
O18 0.053(6) 0.063(7) 0.039(7) -0.017(5) -0.010(5) 0.030(6)
O3F 0.023 0.023 0.023 0.0006 0.0006 0.0005
O5F 0.075 0.033 0.026 -0.015 -0.019 0.023
O7B 0.023 0.02 0.012 -0.003 -0.003 0.008
O8F 0.024 0.025 0.023 -0.0003 0.0009 -0.0027
O10O 0.04 0.038 0.037 -0.0005 0 -0.002
O11O 0.025 0.024 0.023 0.0012 -0.0002 -0.0018
O12E 0.029 0.029 0.027 0.0007 -0.0009 -0.003
O13G 0.0237 0.0238 0.0226 0.0001 -0.0004 0.0008
O16H 0.096 0.038 0.043 0.024 0.028 0.045
O17H 0.032 0.042 0.092 -0.009 -0.009 0.004
Cu1B 0.0306 0.0294 0.0108 0.0007 0.0007 0.0153
Cu1E 0.0306 0.0294 0.0108 -0.0007 0.0007 -0.0153
Cu1G 0.0306 0.0294 0.0108 -0.0007 -0.0007 0.0153
Cu2F 0.0322 0.0267 0.0085 -0.0016 0.0038 -0.0108
Cu2O 0.0322 0.0267 0.0085 0.0016 -0.0038 -0.0108
Cu3G 0.0354 0.0255 0.0086 0.0001 -0.0027 0.0108
Cu3H 0.0354 0.0255 0.0086 -0.0001 -0.0027 -0.0108
Cu4B 0.0351 0.0317 0.0049 -0.0011 -0.0006 0.0159
Cu4H 0.0351 0.0317 0.0049 -0.0011 0.0006 -0.0159
loop_
_geom_bond_atom_site_label_1
_geom_bond_atom_site_label_2
_geom_bond_site_symmetry_1
_geom_bond_site_symmetry_2
C1 C2 1_555 1_555
C2 H1 1_555 1_555
C3 C2 1_555 1_555
C4 C3 1_555 1_555
H2 C4 1_555 1_555
C5 C4 1_555 1_555
C6 C1 1_555 1_555
H3 C6 1_555 1_555
C7 C1 1_555 1_555
C8 C3 1_555 1_555
C9 C20 1_555 1_555
C10 H4 1_555 1_555
C11 N2 1_555 1_555
C12 N2 1_555 1_555
C13 H5 1_555 1_555
C14 H6 1_555 1_555
H7 C14 1_555 1_555
H8 C14 1_555 1_555
C15 H9 1_555 1_555
H10 C15 1_555 1_555
H11 C15 1_555 1_555
C16 C18 1_555 1_555
C17 H12 1_555 1_555
C18 C17 1_555 1_555
C19 C18 1_555 1_555
H13 C19 1_555 1_555
C20 C19 1_555 1_555
C21 C20 1_555 1_555
H14 C21 1_555 1_555
C22 C17 1_555 1_555
N1 C13 1_555 1_555
N2 C10 1_555 1_555
O1 C7 1_555 1_555
O2 C7 1_555 1_555
O3 S1 1_555 1_555
O4 S1 1_555 1_555
O5 S1 1_555 1_555
O6 Cu1 1_555 1_555
O7 Cu1 1_555 1_555
O8 C16 1_555 1_555
O9 C10 1_555 1_555
O10 C9 1_555 1_555
O11 C9 1_555 1_555
O12 C8 1_555 1_555
O13 C8 1_555 1_555
O14 C13 1_555 1_555
O15 C16 1_555 1_555
O16 S2 1_555 1_555
O17 S2 1_555 1_555
S1 C5 1_555 1_555
S2 C22 1_555 1_555
Cu1 O3F 1_555 1_555
Cu2 O4 1_555 1_555
Cu3 O2 1_555 1_555
Cu4 O1 1_555 1_555
O18 S2 1_555 1_555
O5F Cu4 1_555 1_555
O7B Cu2 1_555 1_555
O8F Cu4 1_555 1_555
O10O Cu3 1_555 1_555
O11O Cu1 1_555 1_555
O12E Cu1 1_555 1_555
O13G Cu2 1_555 1_555
O16H Cu4 1_555 1_555
O17H Cu3 1_555 1_555
Cu1B O3 1_555 1_555
Cu1E O12 1_555 1_555
Cu1G O11 1_555 1_555
Cu2F O7 1_555 1_555
Cu2O O13 1_555 1_555
Cu3G O10 1_555 1_555
Cu3H O17 1_555 1_555
Cu4B O5 1_555 1_555
Cu4H O16 1_555 1_555
C5 C6 1_555 1_555
C14 N1 1_555 1_555
C15 N1 1_555 1_555
C21 C22 1_555 1_555
O6 Cu3 1_555 1_555
O6 Cu4 1_555 1_555
O7 Cu4 1_555 1_555
O8 Cu4B 1_555 1_555
O9 Cu3 1_555 1_555
O14 Cu2 1_555 1_555
O15 Cu2 1_555 1_555
O7B Cu1B 1_555 1_555
O7B Cu4B 1_555 1_555

#END
