
#######################################################################
#
#                 Cambridge Crystallographic Data Centre
#                                CCDC 
#
#######################################################################
#
# If this CIF has been generated from an entry in the Cambridge 
# Structural Database, then it will include bibliographic, chemical, 
# crystal, experimental, refinement or atomic coordinate data resulting 
# from the CCDC's data processing and validation procedures.
#
#######################################################################

data_MOVHEM
_chemical_formula_moiety         '(C36 H40 N7 O26 Tb2 Zn1 1+)n'
_symmetry_cell_setting           monoclinic
_symmetry_space_group_name_H-M   'C 2/c'
_symmetry_Int_Tables_number      15
_space_group_name_Hall           '-C 2yc'
loop_
_symmetry_equiv_pos_site_id
_symmetry_equiv_pos_as_xyz
1 x,y,z
2 -x,y,1/2-z
3 1/2+x,1/2+y,z
4 1/2-x,1/2+y,1/2-z
5 -x,-y,-z
6 x,-y,1/2+z
7 1/2-x,1/2-y,-z
8 1/2+x,1/2-y,1/2+z
_cell_length_a                   17.0778(7)
_cell_length_b                   16.9284(4)
_cell_length_c                   20.3385(9)
_cell_angle_alpha                90
_cell_angle_beta                 108.115(5)
_cell_angle_gamma                90
_cell_volume                     5588.42
loop_
_atom_site_label
_atom_site_type_symbol
_atom_site_fract_x
_atom_site_fract_y
_atom_site_fract_z
Zn1 Zn 0.5000 0.55993(7) 0.7500
Tb1 Tb 0.49445(2) 0.06205(2) 0.582348(19)
C1 C 0.5122(5) 0.3085(5) 0.6385(4)
C2 C 0.4407(5) 0.3528(5) 0.6247(4)
H1 H 0.3898 0.3309 0.6010
C3 C 0.4469(5) 0.4307(4) 0.6471(4)
C4 C 0.5880(5) 0.4207(5) 0.6943(5)
H2 H 0.6385 0.4436 0.7180
C5 C 0.5874(5) 0.3437(5) 0.6715(4)
H3 H 0.6363 0.3161 0.6783
C6 C 0.3740(5) 0.4823(5) 0.6338(4)
C7 C 0.3011(5) 0.4675(5) 0.5813(4)
H4 H 0.2962 0.4236 0.5528
C8 C 0.2360(5) 0.5191(5) 0.5721(4)
C9 C 0.2450(5) 0.5866(5) 0.6128(4)
H5 H 0.2024 0.6230 0.6060
C10 C 0.3188(5) 0.5978(5) 0.6633(4)
H6 H 0.3257 0.6427 0.6909
C11 C 0.5479(5) 0.6528(5) 0.6368(4)
H7 H 0.5607 0.6038 0.6222
C12 C 0.5493(5) 0.7181(5) 0.5966(4)
H8 H 0.5626 0.7131 0.5558
C13 C 0.5303(5) 0.7921(5) 0.6187(4)
C14 C 0.5119(5) 0.7962(5) 0.6813(4)
H9 H 0.5007 0.8445 0.6980
C15 C 0.5108(5) 0.7277(4) 0.7175(4)
C16 C 0.5281(5) 0.8661(5) 0.5772(5)
C17 C 0.1539(5) 0.5001(5) 0.5184(4)
C18 C 0.5082(5) 0.2226(5) 0.6186(4)
N1 N 0.5194(4) 0.4640(4) 0.6840(3)
N2 N 0.3818(4) 0.5466(4) 0.6747(4)
N3 N 0.5288(4) 0.6566(4) 0.6959(4)
O1 O 0.4402(4) 0.0422(4) 0.6794(3)
H10 H 0.4765 0.0557 0.7173
H11 H 0.4282 -0.0066 0.6817
O2 O 0.6123(4) 0.0435(4) 0.6819(3)
H12 H 0.6498 0.0785 0.6829
H13 H 0.6331 -0.0031 0.6808
O3 O 0.5706(3) 0.1893(3) 0.6112(3)
O4 O 0.4415(3) 0.1862(3) 0.6107(3)
O5 O 0.1535(3) 0.4576(3) 0.4667(3)
O6 O 0.0892(3) 0.5265(3) 0.5258(3)
O7 O 0.5113(4) 0.9278(3) 0.6043(3)
O8 O 0.5409(3) 0.8607(3) 0.5198(3)
C11A C 0.4521(5) 0.6528(5) 0.8632(4)
H7A H 0.4393 0.6038 0.8778
C12A C 0.4507(5) 0.7181(5) 0.9034(4)
H8A H 0.4374 0.7131 0.9442
C13A C 0.4697(5) 0.7921(5) 0.8813(4)
C14A C 0.4881(5) 0.7962(5) 0.8187(4)
H9A H 0.4993 0.8445 0.8020
C15A C 0.4892(5) 0.7277(4) 0.7825(4)
C16A C 0.4719(5) 0.8661(5) 0.9228(5)
N3A N 0.4712(4) 0.6566(4) 0.8041(4)
O7A O 0.4887(4) 0.9278(3) 0.8957(3)
O8A O 0.4591(3) 0.8607(3) 0.9802(3)
Tb1A Tb 0.50555(2) 0.06205(2) 0.917652(19)
C1A C 0.4878(5) 0.3085(5) 0.8615(4)
C2A C 0.5593(5) 0.3528(5) 0.8753(4)
H1A H 0.6102 0.3309 0.8990
C3A C 0.5531(5) 0.4307(4) 0.8529(4)
C4A C 0.4120(5) 0.4207(5) 0.8057(5)
H2A H 0.3615 0.4436 0.7820
C5A C 0.4126(5) 0.3437(5) 0.8285(4)
H3A H 0.3637 0.3161 0.8217
C6A C 0.6260(5) 0.4823(5) 0.8662(4)
C7A C 0.6989(5) 0.4675(5) 0.9187(4)
H4A H 0.7038 0.4236 0.9472
C8A C 0.7640(5) 0.5191(5) 0.9279(4)
C9A C 0.7550(5) 0.5866(5) 0.8872(4)
H5A H 0.7976 0.6230 0.8940
C10A C 0.6812(5) 0.5978(5) 0.8367(4)
H6A H 0.6743 0.6427 0.8091
C17A C 0.8461(5) 0.5001(5) 0.9816(4)
C18A C 0.4918(5) 0.2226(5) 0.8814(4)
N1A N 0.4806(4) 0.4640(4) 0.8160(3)
N2A N 0.6182(4) 0.5466(4) 0.8253(4)
O1A O 0.5598(4) 0.0422(4) 0.8206(3)
H10A H 0.5235 0.0557 0.7827
H11A H 0.5718 -0.0066 0.8183
O2A O 0.3877(4) 0.0435(4) 0.8181(3)
H12A H 0.3502 0.0785 0.8171
H13A H 0.3669 -0.0031 0.8192
O3A O 0.4294(3) 0.1893(3) 0.8888(3)
O4A O 0.5585(3) 0.1862(3) 0.8893(3)
O5A O 0.8465(3) 0.4576(3) 1.0333(3)
O6A O 0.9108(3) 0.5265(3) 0.9742(3)
Tb1_2 Tb 0.49445(2) 1.06205(2) 0.582348(19)
Tb1A_2 Tb 0.50555(2) 1.06205(2) 0.917652(19)
Tb1B Tb -0.00555(2) 0.56205(2) 0.582348(19)
Tb1C Tb 1.00555(2) 0.56205(2) 0.917652(19)
Tb1D Tb 0.50555(2) 0.93795(2) 0.417652(19)
Tb1E Tb 0.49445(2) 0.93795(2) 1.082348(19)
Tb1F Tb 0.00555(2) 0.43795(2) 0.417652(19)
Tb1G Tb 0.99445(2) 0.43795(2) 1.082348(19)
O5F O 0.3465(3) 0.0424(3) 0.5333(3)
O5G O 0.6535(3) 0.0424(3) 0.9667(3)
O6B O 0.5892(3) 0.0265(3) 0.5258(3)
O6C O 0.4108(3) 0.0265(3) 0.9742(3)
O6F O 0.4108(3) -0.0265(3) 0.4742(3)
O6G O 0.5892(3) -0.0265(3) 1.0258(3)
O7_2 O 0.5113(4) -0.0722(3) 0.6043(3)
O7A_2 O 0.4887(4) -0.0722(3) 0.8957(3)
O8D O 0.4591(3) 0.1393(3) 0.4802(3)
O8E O 0.5409(3) 0.1393(3) 1.0198(3)
O9 O 0.3126(7) 0.1376(7) 0.7085(5)
O10 O 0.4216(7) 0.5458(7) 0.4832(5)
O11 O 0.3596(5) 0.7114(6) 0.4752(4)
O12 O 0.3148(12) 0.7858(12) 0.5807(11)
O13 O 0.2846(11) 0.4723(13) 0.3972(10)
O14 O 0.3037(7) 0.2319(9) 0.4685(6)
O15 O 0.2647(6) 0.2950(7) 0.6669(5)
O16 O 0.2008(11) 0.4033(12) 0.7209(10)
N4 N 0.2198(14) 0.3274(15) 0.7068(11)
O17 O 0.2121(11) 0.2954(11) 0.7654(9)
O18 O 0.1560(6) 0.4111(6) 0.8285(5)
loop_
_geom_bond_atom_site_label_1
_geom_bond_atom_site_label_2
_geom_bond_site_symmetry_1
_geom_bond_site_symmetry_2
Zn1 N1 1_555 1_555
Tb1 O1 1_555 1_555
C1 C2 1_555 1_555
C2 H1 1_555 1_555
C3 C2 1_555 1_555
C4 H2 1_555 1_555
C5 C1 1_555 1_555
H3 C5 1_555 1_555
C6 C3 1_555 1_555
C7 C6 1_555 1_555
H4 C7 1_555 1_555
C8 C7 1_555 1_555
C9 C8 1_555 1_555
H5 C9 1_555 1_555
C10 C9 1_555 1_555
H6 C10 1_555 1_555
C11 H7 1_555 1_555
C12 C11 1_555 1_555
H8 C12 1_555 1_555
C13 C12 1_555 1_555
C14 C13 1_555 1_555
H9 C14 1_555 1_555
C15 C14 1_555 1_555
C16 C13 1_555 1_555
C17 C8 1_555 1_555
C18 C1 1_555 1_555
N1 C3 1_555 1_555
N2 Zn1 1_555 1_555
N3 Zn1 1_555 1_555
O1 H10 1_555 1_555
H11 O1 1_555 1_555
O2 Tb1 1_555 1_555
H12 O2 1_555 1_555
H13 O2 1_555 1_555
O3 Tb1 1_555 1_555
O4 Tb1 1_555 1_555
O5 C17 1_555 1_555
O6 C17 1_555 1_555
O7 C16 1_555 1_555
O8 C16 1_555 1_555
O15 N4 1_555 1_555
O16 N4 1_555 1_555
N4 O17 1_555 1_555
C11A H7A 1_555 1_555
C12A C11A 1_555 1_555
H8A C12A 1_555 1_555
C13A C12A 1_555 1_555
C14A C13A 1_555 1_555
H9A C14A 1_555 1_555
C15A C15 1_555 1_555
C16A C13A 1_555 1_555
N3A Zn1 1_555 1_555
O7A C16A 1_555 1_555
O8A C16A 1_555 1_555
Tb1A O1A 1_555 1_555
C1A C2A 1_555 1_555
C2A H1A 1_555 1_555
C3A C2A 1_555 1_555
C4A H2A 1_555 1_555
C5A C1A 1_555 1_555
H3A C5A 1_555 1_555
C6A C3A 1_555 1_555
C7A C6A 1_555 1_555
H4A C7A 1_555 1_555
C8A C7A 1_555 1_555
C9A C8A 1_555 1_555
H5A C9A 1_555 1_555
C10A C9A 1_555 1_555
H6A C10A 1_555 1_555
C17A C8A 1_555 1_555
C18A C1A 1_555 1_555
N1A Zn1 1_555 1_555
N2A Zn1 1_555 1_555
O1A H10A 1_555 1_555
H11A O1A 1_555 1_555
O2A Tb1A 1_555 1_555
H12A O2A 1_555 1_555
H13A O2A 1_555 1_555
O3A Tb1A 1_555 1_555
O4A Tb1A 1_555 1_555
O5A C17A 1_555 1_555
O6A C17A 1_555 1_555
Tb1_2 O7 1_555 1_555
Tb1A_2 O7A 1_555 1_555
Tb1B O6 1_555 1_555
Tb1C O6A 1_555 1_555
Tb1D O8 1_555 1_555
Tb1E O8A 1_555 1_555
Tb1F O5 1_555 1_555
Tb1G O5A 1_555 1_555
O5F Tb1 1_555 1_555
O5G Tb1A 1_555 1_555
O6B Tb1 1_555 1_555
O6C Tb1A 1_555 1_555
O6F Tb1 1_555 1_555
O6G Tb1A 1_555 1_555
O7_2 Tb1 1_555 1_555
O7A_2 Tb1A 1_555 1_555
O8D Tb1 1_555 1_555
O8E Tb1A 1_555 1_555
C4 C5 1_555 1_555
C4 N1 1_555 1_555
C6 N2 1_555 1_555
C10 N2 1_555 1_555
C11 N3 1_555 1_555
C15 N3 1_555 1_555
C18 O3 1_555 1_555
C18 O4 1_555 1_555
O6 Tb1F 1_555 1_555
C11A N3A 1_555 1_555
C14A C15A 1_555 1_555
C15A N3A 1_555 1_555
C3A N1A 1_555 1_555
C4A C5A 1_555 1_555
C4A N1A 1_555 1_555
C6A N2A 1_555 1_555
C10A N2A 1_555 1_555
C18A O3A 1_555 1_555
C18A O4A 1_555 1_555
O6A Tb1G 1_555 1_555

#END
