
#######################################################################
#
#                 Cambridge Crystallographic Data Centre
#                                CCDC 
#
#######################################################################
#
# If this CIF has been generated from an entry in the Cambridge 
# Structural Database, then it will include bibliographic, chemical, 
# crystal, experimental, refinement or atomic coordinate data resulting 
# from the CCDC's data processing and validation procedures.
#
#######################################################################

data_JIZJEJ
_chemical_formula_moiety         '(C35 H44 Co3 N2 O15)n'
_symmetry_cell_setting           tetragonal
_symmetry_space_group_name_H-M   'P -4 c 2'
_symmetry_Int_Tables_number      116
_space_group_name_Hall           'P -4 -2c'
loop_
_symmetry_equiv_pos_site_id
_symmetry_equiv_pos_as_xyz
1 x,y,z
2 -x,-y,z
3 y,-x,-z
4 -y,x,-z
5 x,-y,1/2+z
6 -x,y,1/2+z
7 y,x,1/2-z
8 -y,-x,1/2-z
_cell_length_a                   17.5191(12)
_cell_length_b                   17.5191(12)
_cell_length_c                   15.163(2)
_cell_angle_alpha                90
_cell_angle_beta                 90
_cell_angle_gamma                90
_cell_volume                     4653.81
loop_
_atom_site_label
_atom_site_type_symbol
_atom_site_fract_x
_atom_site_fract_y
_atom_site_fract_z
Co1 Co -0.09888(3) -0.85836(2) -0.03149(3)
Co2 Co -0.14710(2) -0.85290(2) -0.2500
C1 C 0.0526(2) -0.8749(2) -0.0967(3)
C2 C 0.0068(2) -0.8537(3) -0.1783(2)
H1 H 0.0199 -0.8898 -0.2270
C3 C 0.0292(2) -0.7729(3) -0.2057(3)
H2 H 0.0018 -0.7589 -0.2596
H3 H 0.0843 -0.7709 -0.2166
H4 H 0.0159 -0.7371 -0.1585
C4 C -0.2631(2) -0.85780(19) -0.1109(2)
C5 C -0.3463(2) -0.8675(2) -0.0883(3)
C6 C -0.3684(2) -0.8755(2) -0.0007(2)
H5 H -0.3311 -0.8734 0.0447
C7 C -0.4449(2) -0.8867(2) 0.0206(3)
H6 H -0.4595 -0.8937 0.0804
C8 C -0.5003(2) -0.8876(2) -0.0457(2)
C9 C -0.4779(2) -0.8788(2) -0.1329(3)
H7 H -0.5152 -0.8791 -0.1784
C10 C -0.4013(2) -0.8694(2) -0.1541(3)
H8 H -0.3865 -0.8644 -0.2140
C11 C -0.5829(2) -0.8957(2) -0.0233(2)
C12 C -0.6332(2) -0.9335(2) -0.0789(2)
H9 H -0.6149 -0.9567 -0.1314
C13 C -0.7099(2) -0.9373(2) -0.0582(2)
H10 H -0.7432 -0.9632 -0.0975
C14 C -0.6909(2) -0.8704(2) 0.0695(3)
H11 H -0.7108 -0.8481 0.1217
C15 C -0.6137(2) -0.8646(2) 0.0538(3)
H12 H -0.5815 -0.8396 0.0951
N1 N -0.73943(16) -0.90602(17) 0.01492(18)
O1 O 0.12363(15) -0.88629(18) -0.10333(17)
O2 O 0.01969(13) -0.87793(13) -0.02305(17)
O3 O -0.07206(13) -0.86028(14) -0.15867(15)
O4 O -0.24765(14) -0.85390(15) -0.19208(17)
O5 O -0.21599(14) -0.85508(14) -0.04930(17)
Co1B Co -0.85836(2) -0.90112(3) 0.03149(3)
C1B C -0.8749(2) -1.0526(2) 0.0967(3)
C2B C -0.8537(3) -1.0068(2) 0.1783(2)
H1B H -0.8898 -1.0199 0.2270
C3B C -0.7729(3) -1.0292(2) 0.2057(3)
H2B H -0.7589 -1.0018 0.2596
H3B H -0.7709 -1.0843 0.2166
H4B H -0.7371 -1.0159 0.1585
C4B C -0.85780(19) -0.7369(2) 0.1109(2)
C5B C -0.8675(2) -0.6537(2) 0.0883(3)
C6B C -0.8755(2) -0.6316(2) 0.0007(2)
H5B H -0.8734 -0.6689 -0.0447
C7B C -0.8867(2) -0.5551(2) -0.0206(3)
H6B H -0.8937 -0.5405 -0.0804
C8B C -0.8876(2) -0.4997(2) 0.0457(2)
C9B C -0.8788(2) -0.5221(2) 0.1329(3)
H7B H -0.8791 -0.4848 0.1784
C10B C -0.8694(2) -0.5987(2) 0.1541(3)
H8B H -0.8644 -0.6135 0.2140
C11B C -0.8957(2) -0.4171(2) 0.0233(2)
C12B C -0.9335(2) -0.3668(2) 0.0789(2)
H9B H -0.9567 -0.3851 0.1314
C13B C -0.9373(2) -0.2901(2) 0.0582(2)
H10B H -0.9632 -0.2568 0.0975
C14B C -0.8704(2) -0.3091(2) -0.0695(3)
H11B H -0.8481 -0.2892 -0.1217
C15B C -0.8646(2) -0.3863(2) -0.0538(3)
H12B H -0.8396 -0.4185 -0.0951
N1B N -0.90602(17) -0.26057(16) -0.01492(18)
O1B O -0.88629(18) -1.12363(15) 0.10333(17)
O2B O -0.87793(13) -1.01969(13) 0.02305(17)
O3B O -0.86028(14) -0.92794(13) 0.15867(15)
O4B O -0.85390(15) -0.75235(14) 0.19208(17)
O5B O -0.85508(14) -0.78401(14) 0.04930(17)
Co1A Co -0.90112(3) -1.14164(2) -0.03149(3)
Co1A_2 Co -0.90112(3) -0.14164(2) -0.03149(3)
Co1B_2 Co 0.14164(2) -0.90112(3) 0.03149(3)
Co2B Co -0.85290(2) -0.85290(2) 0.2500
N1C N -0.09398(17) -0.73943(16) -0.01492(18)
O1_2 O -0.87637(15) -0.88629(18) -0.10333(17)
O1C O -0.11371(18) -0.87637(15) 0.10333(17)
O2_2 O -0.98031(13) -0.87793(13) -0.02305(17)
O2C O -0.12207(13) -0.98031(13) 0.02305(17)
O3G O -0.13972(14) -0.92794(13) -0.34133(15)
O4G O -0.14610(15) -0.75235(14) -0.30792(17)
O6 O -0.2432(6) -0.7616(7) 0.1441(7)
C16 C -0.2707(14) -0.7135(14) 0.0908(14)
O7 O -0.3718(14) -0.8074(14) 0.2371(16)
C17 C -0.317(2) -0.768(2) 0.199(2)
O8 O -0.4657(18) -0.7077(19) 0.238(2)
C18 C -0.506(4) -0.750(3) 0.182(4)
O9 O -0.4969(14) -0.6695(13) -0.0533(16)
C19 C -0.499(2) -0.677(2) 0.0343(19)
O10 O -0.3255(17) -0.6606(16) -0.0102(19)
C20 C -0.400(2) -0.669(2) -0.036(3)
loop_
_geom_bond_atom_site_label_1
_geom_bond_atom_site_label_2
_geom_bond_site_symmetry_1
_geom_bond_site_symmetry_2
Co1 O2 1_555 1_555
Co2 O3 1_555 1_555
C1 C2 1_555 1_555
C2 H1 1_555 1_555
C3 C2 1_555 1_555
H2 C3 1_555 1_555
H3 C3 1_555 1_555
H4 C3 1_555 1_555
C4 C5 1_555 1_555
C5 C6 1_555 1_555
C6 H5 1_555 1_555
C7 C6 1_555 1_555
H6 C7 1_555 1_555
C8 C7 1_555 1_555
C9 C8 1_555 1_555
H7 C9 1_555 1_555
C10 C5 1_555 1_555
H8 C10 1_555 1_555
C11 C8 1_555 1_555
C12 C11 1_555 1_555
H9 C12 1_555 1_555
C13 C12 1_555 1_555
H10 C13 1_555 1_555
C14 H11 1_555 1_555
C15 C11 1_555 1_555
H12 C15 1_555 1_555
N1 C13 1_555 1_555
O1 C1 1_555 1_555
O2 C1 1_555 1_555
O3 Co1 1_555 1_555
O4 Co2 1_555 1_555
O5 Co1 1_555 1_555
O6 C16 1_555 1_555
O7 C17 1_555 1_555
O8 C18 1_555 1_555
O9 C19 1_555 1_555
O10 C20 1_555 1_555
Co1B N1 1_555 1_555
C1B C2B 1_555 1_555
C2B H1B 1_555 1_555
C3B C2B 1_555 1_555
H2B C3B 1_555 1_555
H3B C3B 1_555 1_555
H4B C3B 1_555 1_555
C4B C5B 1_555 1_555
C5B C6B 1_555 1_555
C6B H5B 1_555 1_555
C7B C6B 1_555 1_555
H6B C7B 1_555 1_555
C8B C7B 1_555 1_555
C9B C8B 1_555 1_555
H7B C9B 1_555 1_555
C10B C5B 1_555 1_555
H8B C10B 1_555 1_555
C11B C8B 1_555 1_555
C12B C11B 1_555 1_555
H9B C12B 1_555 1_555
C13B C12B 1_555 1_555
H10B C13B 1_555 1_555
C14B H11B 1_555 1_555
C15B C11B 1_555 1_555
H12B C15B 1_555 1_555
N1B C13B 1_555 1_555
O1B C1B 1_555 1_555
O2B Co1B 1_555 1_555
O3B Co1B 1_555 1_555
O4B C4B 1_555 1_555
O5B Co1B 1_555 1_555
Co1A O1B 1_555 1_555
Co1A_2 N1B 1_555 1_555
Co1B_2 O1 1_555 1_555
Co2B O3B 1_555 1_555
N1C Co1 1_555 1_555
O1_2 Co1B 1_555 1_555
O1C Co1 1_555 1_555
O2_2 Co1B 1_555 1_555
O2C Co1 1_555 1_555
O3G Co2 1_555 1_555
O4G Co2 1_555 1_555
C2 O3 1_555 1_555
C4 O4 1_555 1_555
C4 O5 1_555 1_555
C9 C10 1_555 1_555
C14 C15 1_555 1_555
C14 N1 1_555 1_555
O2 Co1B_2 1_555 1_555
C1B O2B 1_555 1_555
C2B O3B 1_555 1_555
C4B O5B 1_555 1_555
C9B C10B 1_555 1_555
C14B C15B 1_555 1_555
C14B N1B 1_555 1_555
O2B Co1A 1_555 1_555
O4B Co2B 1_555 1_555

#END
