
#######################################################################
#
#                 Cambridge Crystallographic Data Centre
#                                CCDC 
#
#######################################################################
#
# If this CIF has been generated from an entry in the Cambridge 
# Structural Database, then it will include bibliographic, chemical, 
# crystal, experimental, refinement or atomic coordinate data resulting 
# from the CCDC's data processing and validation procedures.
#
#######################################################################

data_MATPUV
_chemical_formula_moiety         '(C24 H20 Cl1 Co1 N4 O12 Tb1)n'
_symmetry_cell_setting           monoclinic
_symmetry_space_group_name_H-M   'C 2/c'
_symmetry_Int_Tables_number      15
_space_group_name_Hall           '-C 2yc'
loop_
_symmetry_equiv_pos_site_id
_symmetry_equiv_pos_as_xyz
1 x,y,z
2 -x,y,1/2-z
3 1/2+x,1/2+y,z
4 1/2-x,1/2+y,1/2-z
5 -x,-y,-z
6 x,-y,1/2+z
7 1/2-x,1/2-y,-z
8 1/2+x,1/2-y,1/2+z
_cell_length_a                   28.0996(4)
_cell_length_b                   13.8122(3)
_cell_length_c                   22.4619(4)
_cell_angle_alpha                90
_cell_angle_beta                 99.3566(15)
_cell_angle_gamma                90
_cell_volume                     8601.87
loop_
_atom_site_label
_atom_site_type_symbol
_atom_site_fract_x
_atom_site_fract_y
_atom_site_fract_z
_atom_site_U_iso_or_equiv
_atom_site_thermal_displace_type
Tb1 Tb 0.03320(2) 0.37557(2) 0.04244(2) 0.0120 Uani
Co1 Co 0.26261(2) 0.61682(3) -0.14813(2) 0.0148 Uani
Cl1 Cl 0.22567(3) 0.77213(7) -0.16585(4) 0.0255 Uani
O1 O -0.00103(8) 0.53684(17) 0.05741(10) 0.0156 Uani
O2 O 0.08685(7) 0.47749(18) -0.09201(10) 0.0222 Uani
N1 N 0.22626(8) 0.5857(2) -0.07475(12) 0.0154 Uani
O3 O 0.07814(8) 0.55480(17) -0.36963(10) 0.0219 Uani
O4 O 0.07807(8) 0.64898(18) -0.28886(10) 0.0238 Uani
O5 O 0.00587(8) 0.29582(19) 0.12508(10) 0.0267 Uani
H1 H -0.0233 0.3176 0.1310 0.0400 Uiso
H2 H 0.0262 0.3050 0.1600 0.0400 Uiso
O6 O 0.09723(7) 0.44720(18) 0.00713(10) 0.0224 Uani
O7 O 0.31156(9) 0.6379(2) -0.21057(12) 0.0370 Uani
H3 H 0.3294 0.5870 -0.2115 0.0560 Uiso
H4 H 0.3302 0.6869 -0.1998 0.0560 Uiso
O8 O 0.45170(7) 0.83926(18) 0.01642(10) 0.0188 Uani
N2 N 0.21221(9) 0.5438(2) -0.21296(11) 0.0165 Uani
O9 O 0.03337(8) 0.25952(18) -0.03620(11) 0.0280 Uani
H5 H 0.0042 0.2416 -0.0501 0.0420 Uiso
H6 H 0.0499 0.2095 -0.0224 0.0420 Uiso
C1 C 0.18251(10) 0.5456(2) -0.07962(14) 0.0170 Uani
H7 H 0.1662 0.5312 -0.1180 0.0200 Uiso
C2 C 0.16020(10) 0.5243(3) -0.03103(14) 0.0168 Uani
C3 C 0.29731(10) 0.6568(2) -0.01830(14) 0.0141 Uani
O10 O 0.39844(10) 0.3605(2) -0.01445(14) 0.0531 Uani
C4 C 0.24970(11) 0.6089(2) -0.01928(14) 0.0150 Uani
C5 C 0.18453(11) 0.5477(3) 0.02625(15) 0.0184 Uani
H8 H 0.1708 0.5341 0.0603 0.0220 Uiso
O11 O 0.40650(8) 0.23601(19) -0.07578(10) 0.0262 Uani
N3 N 0.31074(9) 0.6696(2) -0.07288(12) 0.0151 Uani
C6 C 0.36836(10) 0.7373(2) 0.03093(14) 0.0169 Uani
H9 H 0.3882 0.7583 0.0658 0.0200 Uiso
C7 C 0.42515(11) 0.8139(3) -0.03204(15) 0.0167 Uani
C8 C 0.32555(11) 0.4371(3) -0.10366(16) 0.0250 Uani
H10 H 0.3415 0.4795 -0.0750 0.0300 Uiso
C9 C 0.32556(11) 0.6883(3) 0.03460(14) 0.0178 Uani
H11 H 0.3161 0.6770 0.0718 0.0210 Uiso
N4 N 0.28764(9) 0.4702(2) -0.14223(12) 0.0199 Uani
C10 C 0.11056(10) 0.4796(3) -0.04010(15) 0.0185 Uani
C11 C 0.38101(10) 0.7544(2) -0.02526(14) 0.0154 Uani
C12 C 0.17212(10) 0.5846(3) -0.24371(14) 0.0146 Uani
H12 H 0.1655 0.6489 -0.2359 0.0170 Uiso
C13 C 0.35164(10) 0.7187(2) -0.07541(14) 0.0158 Uani
H13 H 0.3605 0.7292 -0.1130 0.0190 Uiso
C14 C 0.09515(11) 0.5841(3) -0.31770(14) 0.0173 Uani
C15 C 0.22945(11) 0.5915(3) 0.03204(15) 0.0200 Uani
H14 H 0.2458 0.6090 0.0699 0.0240 Uiso
C16 C 0.38593(12) 0.3116(3) -0.06079(16) 0.0282 Uani
C17 C 0.31679(15) 0.2797(3) -0.14560(18) 0.0449 Uani
H15 H 0.3268 0.2158 -0.1471 0.0540 Uiso
C18 C 0.26314(12) 0.4074(3) -0.18226(15) 0.0239 Uani
C19 C 0.27690(14) 0.3109(3) -0.18428(18) 0.0436 Uani
H16 H 0.2593 0.2682 -0.2114 0.0520 Uiso
C20 C 0.34218(13) 0.3429(3) -0.10442(16) 0.0286 Uani
O12 O 0.43153(8) 0.83366(18) -0.08423(10) 0.0233 Uani
C21 C 0.14023(11) 0.5345(3) -0.28671(13) 0.0154 Uani
C22 C 0.22074(11) 0.4493(3) -0.22246(14) 0.0205 Uani
C23 C 0.15075(12) 0.4392(3) -0.29914(15) 0.0269 Uani
H17 H 0.1313 0.4053 -0.3296 0.0320 Uiso
C24 C 0.19096(13) 0.3949(3) -0.26519(16) 0.0296 Uani
H18 H 0.1977 0.3300 -0.2712 0.0350 Uiso
H19 H 0.0199(10) 0.575(2) 0.0728(16) 0.0340 Uiso
H20 H -0.0205(15) 0.542(4) 0.082(2) 0.1200 Uiso
Tb1B Tb 0.53320(2) 0.87557(2) 0.04244(2) 0.0120 Uani
Tb1D Tb -0.03320(2) 0.62443(2) -0.04244(2) 0.0120 Uani
Tb1E Tb 0.03320(2) 0.62443(2) -0.45756(2) 0.0120 Uani
Tb1F Tb 0.46680(2) 0.12443(2) -0.04244(2) 0.0120 Uani
O1D O 0.00103(8) 0.46316(17) -0.05741(10) 0.0156 Uani
O3E O 0.07814(8) 0.44520(17) 0.13037(10) 0.0219 Uani
O8B O -0.04830(7) 0.33926(18) 0.01642(10) 0.0188 Uani
O11F O 0.09350(8) 0.26399(19) 0.07578(10) 0.0262 Uani
loop_
_atom_site_aniso_label
_atom_site_aniso_U_11
_atom_site_aniso_U_22
_atom_site_aniso_U_33
_atom_site_aniso_U_23
_atom_site_aniso_U_13
_atom_site_aniso_U_12
Tb1 0.00734(8) 0.01591(10) 0.01153(8) 0.00271(7) -0.00223(6) -0.00245(6)
Co1 0.0078(2) 0.0218(3) 0.0142(2) -0.00236(19) -0.00041(17) -0.00284(18)
Cl1 0.0247(4) 0.0263(5) 0.0235(4) -0.0051(4) -0.0025(4) -0.0017(4)
O1 0.0120(11) 0.0169(14) 0.0162(12) 0.0004(10) -0.0024(10) -0.0041(10)
O2 0.0125(11) 0.0367(17) 0.0164(12) 0.0022(11) -0.0004(10) -0.0092(10)
N1 0.0092(13) 0.0196(16) 0.0170(14) -0.0026(12) 0.0005(11) -0.0034(11)
O3 0.0285(13) 0.0186(14) 0.0142(12) -0.0052(10) -0.0100(10) 0.0047(11)
O4 0.0187(12) 0.0341(17) 0.0163(12) -0.0072(11) -0.0040(10) 0.0106(11)
O5 0.0135(11) 0.0490(19) 0.0160(12) 0.0108(12) -0.0020(10) -0.0099(12)
O6 0.0121(11) 0.0337(16) 0.0206(12) 0.0082(11) 0.0002(10) -0.0090(10)
O7 0.0281(14) 0.0350(18) 0.0521(18) -0.0084(14) 0.0189(13) -0.0073(12)
O8 0.0107(11) 0.0277(15) 0.0156(12) 0.0005(10) -0.0046(9) -0.0071(10)
N2 0.0125(13) 0.0242(18) 0.0126(13) -0.0014(12) 0.0014(11) 0.0043(12)
O9 0.0218(13) 0.0274(16) 0.0300(14) -0.0046(12) -0.0098(11) 0.0079(11)
C1 0.0096(15) 0.023(2) 0.0171(17) -0.0013(15) -0.0014(13) -0.0033(14)
C2 0.0128(15) 0.017(2) 0.0204(17) 0.0012(14) 0.0021(14) -0.0033(14)
C3 0.0086(15) 0.0148(19) 0.0178(17) -0.0013(14) -0.0015(13) -0.0008(13)
O10 0.0498(18) 0.049(2) 0.0472(18) -0.0225(16) -0.0317(15) 0.0325(15)
C4 0.0128(15) 0.0123(19) 0.0191(17) -0.0013(14) 0.0002(13) -0.0005(13)
C5 0.0181(16) 0.021(2) 0.0164(17) -0.0014(15) 0.0034(14) -0.0038(15)
O11 0.0252(13) 0.0307(17) 0.0212(13) 0.0012(11) -0.0006(10) 0.0151(12)
N3 0.0094(13) 0.0181(16) 0.0173(14) 0.0016(12) 0.0005(11) -0.0018(11)
C6 0.0118(15) 0.020(2) 0.0173(17) -0.0002(15) -0.0027(13) -0.0039(14)
C7 0.0102(15) 0.016(2) 0.0232(19) 0.0029(15) 0.0003(14) -0.0021(14)
C8 0.0162(17) 0.033(2) 0.0223(19) -0.0071(17) -0.0071(14) 0.0058(16)
C9 0.0148(16) 0.023(2) 0.0152(17) -0.0023(15) 0.0012(13) -0.0052(15)
N4 0.0141(13) 0.0245(18) 0.0194(15) -0.0002(13) -0.0020(12) 0.0053(12)
C10 0.0098(15) 0.023(2) 0.0221(19) -0.0020(15) 0.0009(14) -0.0021(14)
C11 0.0078(15) 0.016(2) 0.0208(17) 0.0036(14) -0.0029(13) -0.0015(13)
C12 0.0123(15) 0.0155(19) 0.0155(16) 0.0000(14) 0.0010(13) 0.0025(13)
C13 0.0120(15) 0.020(2) 0.0158(16) 0.0010(14) 0.0033(13) -0.0026(14)
C14 0.0168(16) 0.018(2) 0.0165(17) 0.0031(15) 0.0008(14) -0.0047(15)
C15 0.0168(16) 0.026(2) 0.0154(17) -0.0046(15) -0.0028(14) -0.0061(15)
C16 0.0256(19) 0.033(3) 0.023(2) -0.0002(18) -0.0047(16) 0.0073(18)
C17 0.053(3) 0.043(3) 0.030(2) -0.017(2) -0.019(2) 0.033(2)
C18 0.0212(18) 0.033(2) 0.0146(17) -0.0076(16) -0.0054(14) 0.0098(16)
C19 0.049(2) 0.039(3) 0.032(2) -0.023(2) -0.026(2) 0.025(2)
C20 0.0263(19) 0.038(3) 0.0188(18) -0.0059(17) -0.0042(15) 0.0165(17)
O12 0.0198(12) 0.0305(16) 0.0177(13) 0.0049(11) -0.0023(10) -0.0139(11)
C21 0.0163(16) 0.020(2) 0.0094(15) -0.0008(14) 0.0002(13) 0.0026(14)
C22 0.0180(17) 0.030(2) 0.0122(16) -0.0055(15) -0.0018(13) 0.0071(15)
C23 0.0280(19) 0.029(2) 0.0200(19) -0.0082(16) -0.0068(15) 0.0041(17)
C24 0.034(2) 0.027(2) 0.0233(19) -0.0094(17) -0.0091(16) 0.0125(17)
Tb1B 0.00734 0.01591 0.01153 0.00271 -0.00223 -0.00245
Tb1D 0.00734 0.01591 0.01153 0.00271 -0.00223 -0.00245
Tb1E 0.00734 0.01591 0.01153 -0.00271 -0.00223 0.00245
Tb1F 0.00734 0.01591 0.01153 0.00271 -0.00223 -0.00245
O1D 0.012 0.0169 0.0162 0.0004 -0.0024 -0.0041
O3E 0.0285 0.0186 0.0142 0.0052 -0.01 -0.0047
O8B 0.0107 0.0277 0.0156 0.0005 -0.0046 -0.0071
O11F 0.0252 0.0307 0.0212 0.0012 -0.0006 0.0151
loop_
_geom_bond_atom_site_label_1
_geom_bond_atom_site_label_2
_geom_bond_site_symmetry_1
_geom_bond_site_symmetry_2
Tb1 O1 1_555 1_555
Co1 Cl1 1_555 1_555
O1 H19 1_555 1_555
O2 C10 1_555 1_555
N1 Co1 1_555 1_555
O3 C14 1_555 1_555
O4 C14 1_555 1_555
O5 Tb1 1_555 1_555
H1 O5 1_555 1_555
H2 O5 1_555 1_555
O6 Tb1 1_555 1_555
O7 Co1 1_555 1_555
H3 O7 1_555 1_555
H4 O7 1_555 1_555
O8 C7 1_555 1_555
N2 Co1 1_555 1_555
O9 Tb1 1_555 1_555
H5 O9 1_555 1_555
H6 O9 1_555 1_555
C1 N1 1_555 1_555
H7 C1 1_555 1_555
C2 C1 1_555 1_555
C3 C4 1_555 1_555
O10 C16 1_555 1_555
C4 N1 1_555 1_555
C5 C2 1_555 1_555
H8 C5 1_555 1_555
O11 C16 1_555 1_555
N3 Co1 1_555 1_555
C6 H9 1_555 1_555
C7 C11 1_555 1_555
C8 H10 1_555 1_555
C9 C3 1_555 1_555
H11 C9 1_555 1_555
N4 Co1 1_555 1_555
C10 O6 1_555 1_555
C11 C6 1_555 1_555
C12 N2 1_555 1_555
H12 C12 1_555 1_555
C13 N3 1_555 1_555
H13 C13 1_555 1_555
C14 C21 1_555 1_555
C15 C4 1_555 1_555
H14 C15 1_555 1_555
C16 C20 1_555 1_555
C17 H15 1_555 1_555
C18 N4 1_555 1_555
C19 C17 1_555 1_555
H16 C19 1_555 1_555
C20 C8 1_555 1_555
O12 C7 1_555 1_555
C21 C12 1_555 1_555
C22 N2 1_555 1_555
C23 C21 1_555 1_555
H17 C23 1_555 1_555
C24 C22 1_555 1_555
H18 C24 1_555 1_555
H20 O1 1_555 1_555
Tb1B O8 1_555 1_555
Tb1D O1 1_555 1_555
Tb1E O3 1_555 1_555
Tb1F O11 1_555 1_555
O1D Tb1 1_555 1_555
O3E Tb1 1_555 1_555
O8B Tb1 1_555 1_555
O11F Tb1 1_555 1_555
C2 C10 1_555 1_555
C3 N3 1_555 1_555
C5 C15 1_555 1_555
C6 C9 1_555 1_555
C8 N4 1_555 1_555
C11 C13 1_555 1_555
C17 C20 1_555 1_555
C18 C19 1_555 1_555
C18 C22 1_555 1_555
C23 C24 1_555 1_555
Tb1D O1D 1_555 1_555

#END
