
#######################################################################
#
#                 Cambridge Crystallographic Data Centre
#                                CCDC 
#
#######################################################################
#
# If this CIF has been generated from an entry in the Cambridge 
# Structural Database, then it will include bibliographic, chemical, 
# crystal, experimental, refinement or atomic coordinate data resulting 
# from the CCDC's data processing and validation procedures.
#
#######################################################################

data_ENCDBZ01
_chemical_formula_moiety         'C12 H26 Cd6 N13'
_symmetry_cell_setting           tetragonal
_symmetry_space_group_name_H-M   'P 42 2 2'
_symmetry_Int_Tables_number      93
_space_group_name_Hall           'P 4c 2'
loop_
_symmetry_equiv_pos_site_id
_symmetry_equiv_pos_as_xyz
1 x,y,z
2 -y,x,1/2+z
3 -x,-y,z
4 y,-x,1/2+z
5 -x,y,-z
6 y,x,1/2-z
7 x,-y,-z
8 -y,-x,1/2-z
_cell_length_a                   8.265(1)
_cell_length_b                   8.265(1)
_cell_length_c                   15.512(3)
_cell_angle_alpha                90
_cell_angle_beta                 90
_cell_angle_gamma                90
_cell_volume                     1059.63
loop_
_atom_site_label
_atom_site_type_symbol
_atom_site_fract_x
_atom_site_fract_y
_atom_site_fract_z
C3 C 0.164(1) 0.50000 0.00000
C4 C 0.081(1) 0.50000 0.0739(5)
H5 H 0.29461 0.50000 0.00000
H6 H 0.14507 0.50000 0.13451
C4B C -0.081(1) 0.50000 0.0739(5)
C3B C -0.164(1) 0.50000 0.00000
C4D C -0.081(1) 0.50000 -0.0739(5)
C4F C 0.081(1) 0.50000 -0.0739(5)
H6F H 0.14507 0.50000 -0.13451
H6D H -0.14507 0.50000 -0.13451
H5B H -0.29461 0.50000 0.00000
H6B H -0.14507 0.50000 0.13451
Cd1 Cd 0.50000 0.50000 0.25000
Cd2 Cd 0.50000 0.00000 0.00000
C1 C 0.499(2) 0.2913(4) 0.1597(3)
C2 C 0.0822(8) 0.00000 0.00000
N1 N 0.520(1) 0.1962(5) 0.1077(3)
N2 N 0.2188(9) 0.059(1) 0.0163(8)
H1 H 0.21037 0.17509 -0.01565
H2 H 0.21037 0.07763 0.08507
H3 H 0.09931 -0.11450 0.03229
H4 H 0.09931 -0.01704 -0.06842
C2B C -0.0822(8) 0.00000 0.00000
N2B N -0.2188(9) -0.059(1) 0.0163(8)
N2D N -0.2188(9) 0.059(1) -0.0163(8)
H3B H -0.09931 0.11450 0.03229
H3D H -0.09931 -0.11450 -0.03229
H4B H -0.09931 0.01704 -0.06842
H4D H -0.09931 -0.01704 0.06842
H1D H -0.21037 0.17509 0.01565
H2D H -0.21037 0.07763 -0.08507
H1B H -0.21037 -0.17509 -0.01565
H2B H -0.21037 -0.07763 0.08507
N2F N 0.2188(9) -0.059(1) -0.0163(8)
H3F H 0.09931 0.11450 -0.03229
H4F H 0.09931 0.01704 0.06842
H1F H 0.21037 -0.17509 0.01565
H2F H 0.21037 -0.07763 -0.08507
C1B C 0.501(2) 0.7087(4) 0.1597(3)
N1B N 0.480(1) 0.8038(5) 0.1077(3)
C1E C 0.2913(4) 0.499(2) 0.3403(3)
N1E N 0.1962(5) 0.520(1) 0.3923(3)
C1G C 0.7087(4) 0.501(2) 0.3403(3)
N1G N 0.8038(5) 0.480(1) 0.3923(3)
N1B_2 N 0.480(1) -0.1962(5) 0.1077(3)
N1D N 0.480(1) 0.1962(5) -0.1077(3)
N1F N 0.520(1) -0.1962(5) -0.1077(3)
N2B_2 N 0.7812(9) -0.059(1) 0.0163(8)
N2D_2 N 0.7812(9) 0.059(1) -0.0163(8)
Cd2_2 Cd -0.50000 0.00000 0.00000
Cd2_3 Cd 0.50000 1.00000 0.00000
Cd2A Cd -0.00000 0.50000 0.50000
Cd2A_2 Cd 1.00000 0.50000 0.50000
H1B_2 H 0.78963 -0.17509 -0.01565
H2B_2 H 0.78963 -0.07763 0.08507
H1D_2 H 0.78963 0.17509 0.01565
H2D_2 H 0.78963 0.07763 -0.08507
loop_
_geom_bond_atom_site_label_1
_geom_bond_atom_site_label_2
_geom_bond_site_symmetry_1
_geom_bond_site_symmetry_2
Cd1 C1 1_555 1_555
Cd2 N1 1_555 1_555
C1 N1 1_555 1_555
C2 N2 1_555 1_555
C3 C4 1_555 1_555
C4 H6 1_555 1_555
N2 Cd2 1_555 1_555
H1 N2 1_555 1_555
H2 N2 1_555 1_555
H3 C2 1_555 1_555
H4 C2 1_555 1_555
H5 C3 1_555 1_555
C2B C2 1_555 1_555
N2B C2B 1_555 1_555
N2D C2B 1_555 1_555
H3B C2B 1_555 1_555
H3D C2B 1_555 1_555
H4B C2B 1_555 1_555
H4D C2B 1_555 1_555
H1D N2D 1_555 1_555
H2D N2D 1_555 1_555
H1B N2B 1_555 1_555
H2B N2B 1_555 1_555
N2F Cd2 1_555 1_555
H3F C2 1_555 1_555
H4F C2 1_555 1_555
H1F N2F 1_555 1_555
H2F N2F 1_555 1_555
C4B C4 1_555 1_555
C3B C4B 1_555 1_555
C4D C3B 1_555 1_555
C4F C3 1_555 1_555
H6F C4F 1_555 1_555
H6D C4D 1_555 1_555
H5B C3B 1_555 1_555
H6B C4B 1_555 1_555
C1B Cd1 1_555 1_555
N1B C1B 1_555 1_555
C1E Cd1 1_555 1_555
N1E C1E 1_555 1_555
C1G Cd1 1_555 1_555
N1G C1G 1_555 1_555
N1B_2 Cd2 1_555 1_555
N1D Cd2 1_555 1_555
N1F Cd2 1_555 1_555
N2B_2 Cd2 1_555 1_555
N2D_2 Cd2 1_555 1_555
Cd2_2 N2B 1_555 1_555
Cd2_3 N1B 1_555 1_555
Cd2A N1E 1_555 1_555
Cd2A_2 N1G 1_555 1_555
H1B_2 N2B_2 1_555 1_555
H2B_2 N2B_2 1_555 1_555
H1D_2 N2D_2 1_555 1_555
H2D_2 N2D_2 1_555 1_555
C2 N2F 1_555 1_555
N2 N2F 1_555 1_555
N2B N2D 1_555 1_555
N2D Cd2_2 1_555 1_555
C4D C4F 1_555 1_555
N2B_2 N2D_2 1_555 1_555

#END
