
#######################################################################
#
#                 Cambridge Crystallographic Data Centre
#                                CCDC 
#
#######################################################################
#
# If this CIF has been generated from an entry in the Cambridge 
# Structural Database, then it will include bibliographic, chemical, 
# crystal, experimental, refinement or atomic coordinate data resulting 
# from the CCDC's data processing and validation procedures.
#
#######################################################################

data_UBACUX
_chemical_formula_moiety         '(C32 H34 N6 O13 Zn2)n'
_symmetry_cell_setting           monoclinic
_symmetry_space_group_name_H-M   'C 2/c'
_symmetry_Int_Tables_number      15
_space_group_name_Hall           '-C 2yc'
loop_
_symmetry_equiv_pos_site_id
_symmetry_equiv_pos_as_xyz
1 x,y,z
2 -x,y,1/2-z
3 1/2+x,1/2+y,z
4 1/2-x,1/2+y,1/2-z
5 -x,-y,-z
6 x,-y,1/2+z
7 1/2-x,1/2-y,-z
8 1/2+x,1/2-y,1/2+z
_cell_length_a                   29.943(6)
_cell_length_b                   13.921(3)
_cell_length_c                   18.994(4)
_cell_angle_alpha                90
_cell_angle_beta                 115.81(3)
_cell_angle_gamma                90
_cell_volume                     7127.58
loop_
_atom_site_label
_atom_site_type_symbol
_atom_site_fract_x
_atom_site_fract_y
_atom_site_fract_z
_atom_site_U_iso_or_equiv
_atom_site_thermal_displace_type
C1 C 0.2111(3) 0.6666(8) 0.3190(5) 0.0384 Uani
C2 C 0.1897(4) 0.5697(8) 0.3090(5) 0.0376 Uani
C3 C 0.1404(4) 0.5536(9) 0.2898(6) 0.0481 Uani
H1 H 0.1195 0.6056 0.2835 0.0580 Uiso
C4 C 0.1214(3) 0.4606(9) 0.2796(6) 0.0472 Uani
H2 H 0.0876 0.4507 0.2636 0.0570 Uiso
C5 C 0.1525(4) 0.3841(9) 0.2933(6) 0.0445 Uani
H3 H 0.1398 0.3221 0.2869 0.0540 Uiso
C6 C 0.2031(3) 0.3974(8) 0.3166(5) 0.0397 Uani
C7 C 0.2226(4) 0.4894(8) 0.3245(5) 0.0401 Uani
C8 C 0.2354(4) 0.3085(8) 0.3326(5) 0.0381 Uani
C9 C 0.2759(3) 0.4791(8) 0.2229(5) 0.0369 Uani
C10 C 0.3027(3) 0.5098(8) 0.3054(5) 0.0378 Uani
C11 C 0.3523(4) 0.5303(9) 0.3356(6) 0.0495 Uani
H4 H 0.3687 0.5238 0.3040 0.0600 Uiso
C12 C 0.3789(4) 0.5609(10) 0.4133(6) 0.0609 Uani
H5 H 0.4124 0.5758 0.4328 0.0730 Uiso
C13 C 0.3548(4) 0.5688(10) 0.4604(5) 0.0539 Uani
H6 H 0.3718 0.5924 0.5110 0.0640 Uiso
C14 C 0.3051(3) 0.5416(8) 0.4331(5) 0.0394 Uani
C15 C 0.2781(3) 0.5128(7) 0.3542(5) 0.0345 Uani
C16 C 0.2822(3) 0.5505(9) 0.4896(5) 0.0430 Uani
C17 C 0.1613(4) 0.3660(11) -0.0104(7) 0.0693 Uani
H7 H 0.1748 0.3853 -0.0439 0.0830 Uiso
C18 C 0.1098(4) 0.3654(11) -0.0377(7) 0.0700 Uani
H8 H 0.0893 0.3834 -0.0889 0.0840 Uiso
C19 C 0.0899(4) 0.3385(10) 0.0111(8) 0.0621 Uani
C20 C 0.1201(5) 0.3149(13) 0.0850(9) 0.0923 Uani
H9 H 0.1074 0.3005 0.1205 0.1110 Uiso
C21 C 0.1709(4) 0.3121(11) 0.1076(8) 0.0712 Uani
H10 H 0.1916 0.2898 0.1574 0.0860 Uiso
C22 C -0.1199(4) 0.2536(10) -0.1366(8) 0.0636 Uani
H11 H -0.1394 0.1993 -0.1570 0.0760 Uiso
C23 C -0.0699(5) 0.2477(13) -0.1143(9) 0.0845 Uani
H12 H -0.0563 0.1906 -0.1215 0.1010 Uiso
C24 C -0.0402(4) 0.3242(13) -0.0820(8) 0.0741 Uani
C25 C -0.0610(4) 0.4074(12) -0.0754(7) 0.0730 Uani
H13 H -0.0413 0.4615 -0.0551 0.0880 Uiso
C26 C -0.1132(4) 0.4128(10) -0.0994(7) 0.0582 Uani
H14 H -0.1274 0.4702 -0.0940 0.0690 Uiso
N1 N 0.19124(7) 0.33986(16) 0.06142(12) 0.0426 Uani
N2 N 0.03777(7) 0.34235(16) -0.00911(12) 0.0953 Uani
N3 N 0.01247(7) 0.31287(16) -0.06067(12) 0.1037 Uani
N4 N -0.14207(7) 0.33565(16) -0.12989(12) 0.0441 Uani
O1 O 0.20480(7) 0.71913(16) 0.36997(12) 0.0382 Uani
O2 O 0.23178(7) 0.69794(16) 0.27863(12) 0.0406 Uani
O3 O 0.23513(7) 0.51734(16) 0.17729(12) 0.0386 Uani
O4 O 0.29781(7) 0.41623(16) 0.20042(12) 0.0418 Uani
O5 O 0.21470(7) 0.22584(16) 0.31850(12) 0.0445 Uani
O6 O 0.28119(7) 0.31539(16) 0.35815(12) 0.0426 Uani
O7 O 0.25702(7) 0.48031(16) 0.49476(12) 0.0527 Uani
O8 O 0.29222(7) 0.62675(16) 0.52903(12) 0.0506 Uani
O11 O -0.19791(7) 0.36633(16) -0.03907(12) 0.0434 Uani
H29 H -0.1904 0.3271 -0.0013 0.0520 Uiso
H30 H -0.2145 0.4156 -0.0384 0.0520 Uiso
Zn1 Zn 0.26524(4) 0.34619(9) 0.10232(6) 0.0358 Uani
Zn2 Zn -0.21737(4) 0.34128(9) -0.16064(6) 0.0390 Uani
O1C O 0.29520(7) 0.21913(16) 0.13003(12) 0.0382 Uani
O2D O -0.23178(7) 0.30206(16) -0.27863(12) 0.0406 Uani
O3D O -0.23513(7) 0.48266(16) -0.17729(12) 0.0386 Uani
O5G O -0.28530(7) 0.27416(16) -0.18150(12) 0.0445 Uani
O6G O -0.21881(7) 0.18461(16) -0.14185(12) 0.0426 Uani
O8E O 0.29222(7) 0.37325(16) 0.02903(12) 0.0506 Uani
Zn1C Zn 0.23476(4) 0.84619(9) 0.39768(6) 0.0358 Uani
Zn1E Zn 0.26524(4) 0.65381(9) 0.60232(6) 0.0358 Uani
Zn2G Zn 0.28263(4) 0.15872(9) 0.33936(6) 0.0390 Uani
Zn2D Zn 0.21737(4) 0.65872(9) 0.16064(6) 0.0390 Uani
C27 C 0.0786(9) 0.2476(19) 0.4109(16) 0.1920 Uiso
H15 H 0.0839 0.2202 0.3687 0.2880 Uiso
H16 H 0.0798 0.1978 0.4466 0.2880 Uiso
H17 H 0.1040 0.2941 0.4379 0.2880 Uiso
C28 C -0.0168(9) 0.253(2) 0.3436(16) 0.2060 Uiso
H18 H -0.0397 0.2974 0.3485 0.3090 Uiso
H19 H -0.0180 0.1931 0.3678 0.3090 Uiso
H20 H -0.0255 0.2422 0.2892 0.3090 Uiso
C29 C 0.0405(14) 0.393(3) 0.381(2) 0.2680 Uiso
H21 H 0.0732 0.4144 0.4042 0.3220 Uiso
N6 N 0.03265(7) 0.29181(16) 0.38124(12) 0.1580 Uiso
O10 O 0.00854(7) 0.45540(16) 0.35437(12) 0.3380 Uiso
C30 C 0.4053(7) 0.4970(15) 0.1672(12) 0.1370 Uiso
H22 H 0.3729 0.4788 0.1611 0.2060 Uiso
H23 H 0.4022 0.5373 0.1243 0.2060 Uiso
H24 H 0.4223 0.5315 0.2154 0.2060 Uiso
C31 C 0.4794(8) 0.4270(18) 0.1417(13) 0.1580 Uiso
H25 H 0.5070 0.3876 0.1740 0.2370 Uiso
H26 H 0.4894 0.4932 0.1480 0.2370 Uiso
H27 H 0.4680 0.4087 0.0879 0.2370 Uiso
C32 C 0.41164(7) 0.33798(16) 0.19122(12) 0.1300 Uiso
H28 H 0.3832 0.3377 0.1995 0.1560 Uiso
N5 N 0.43312(7) 0.41242(16) 0.16840(12) 0.0980 Uiso
O9 O 0.44152(7) 0.27034(16) 0.19764(12) 0.4200 Uiso
O12 O 0.1878(3) 0.2004(7) 0.4500(4) 0.0605 Uani
H31 H 0.1898 0.2065 0.4070 0.0730 Uiso
H32 H 0.1871 0.1394 0.4493 0.0730 Uiso
O13 O 0.5000 0.102(2) 0.2500 0.1960 Uiso
H33 H 0.5240 0.1409 0.2614 0.2360 Uiso
H33A H 0.4760 0.1409 0.2386 0.2360 Uiso
loop_
_atom_site_aniso_label
_atom_site_aniso_U_11
_atom_site_aniso_U_22
_atom_site_aniso_U_33
_atom_site_aniso_U_23
_atom_site_aniso_U_13
_atom_site_aniso_U_12
C1 0.037 0.058 0.026 0.001 0.019 -0.001
C2 0.04 0.046 0.035 -0.002 0.024 -0.002
C3 0.037 0.073 0.047 -0.004 0.03 0.005
C4 0.023 0.06 0.058 0.004 0.017 0
C5 0.031 0.063 0.041 0.005 0.017 0.004
C6 0.033 0.059 0.034 0.003 0.021 0.01
C7 0.039 0.066 0.018 -0.005 0.015 -0.01
C8 0.043 0.047 0.028 0.007 0.019 0.008
C9 0.031 0.054 0.029 -0.005 0.016 -0.009
C10 0.031 0.057 0.027 -0.003 0.014 0.002
C11 0.046 0.071 0.043 -0.005 0.03 -0.003
C12 0.033 0.111 0.039 -0.022 0.016 -0.016
C13 0.028 0.111 0.021 -0.01 0.009 -0.016
C14 0.038 0.06 0.023 -0.009 0.016 -0.007
C15 0.031 0.043 0.032 0 0.016 0.003
C16 0.026 0.078 0.024 0.002 0.01 0.007
C17 0.046(7) 0.114(13) 0.051(7) -0.015(7) 0.024(6) 0.005(7)
C18 0.038(6) 0.127(13) 0.032(6) -0.024(7) 0.003(5) 0.010(7)
C19 0.033(6) 0.088(11) 0.071(8) -0.025(7) 0.028(6) -0.007(6)
C20 0.042(8) 0.139(16) 0.096(11) 0.060(11) 0.030(8) 0.017(8)
C21 0.046(7) 0.099(12) 0.073(9) 0.040(8) 0.030(7) 0.020(7)
C22 0.051(7) 0.057(9) 0.087(10) -0.012(7) 0.034(7) -0.005(6)
C23 0.039(8) 0.115(15) 0.096(11) 0.006(10) 0.026(8) 0.007(8)
C24 0.031(5) 0.128(14) 0.069(8) -0.013(8) 0.027(6) 0.013(7)
C25 0.038(7) 0.122(14) 0.052(7) -0.030(8) 0.013(6) -0.035(7)
C26 0.043(7) 0.072(9) 0.062(7) -0.023(6) 0.025(6) -0.016(6)
N1 0.040(5) 0.055(6) 0.033(4) -0.002(4) 0.016(4) 0.005(4)
N2 0.032(6) 0.148(13) 0.091(9) -0.009(8) 0.013(6) 0.014(7)
N3 0.027(5) 0.203(15) 0.071(8) -0.004(8) 0.012(5) 0.002(7)
N4 0.037(5) 0.062(7) 0.040(5) -0.002(4) 0.023(4) 0.000(4)
O1 0.047 0.035 0.041 -0.006 0.027 -0.012
O2 0.028 0.061 0.037 -0.006 0.018 -0.004
O3 0.039 0.038 0.037 -0.002 0.015 0.002
O4 0.038 0.063 0.03 -0.003 0.02 0.007
O5 0.047 0.045 0.049 0 0.028 0.003
O6 0.036 0.049 0.048 0.004 0.023 0.007
O7 0.055 0.068 0.046 -0.014 0.032 -0.016
O8 0.048 0.076 0.037 -0.01 0.027 -0.004
O11 0.038 0.059 0.031 -0.003 0.013 0.005
Zn1 0.0304(6) 0.0518(8) 0.0275(6) 0.0007(5) 0.0147(5) 0.0032(5)
Zn2 0.0314 0.0553 0.0337 -0.0022 0.0174 -0.0027
O1C 0.047(4) 0.035(4) 0.041(4) 0.006(3) 0.027(3) 0.012(3)
O2D 0.028 0.061 0.037 -0.006 0.018 -0.004
O3D 0.039 0.038 0.037 -0.002 0.015 0.002
O5G 0.047 0.045 0.049 0 0.028 -0.003
O6G 0.036 0.049 0.048 -0.004 0.023 -0.007
O8E 0.048 0.076 0.037 0.01 0.027 0.004
Zn1C 0.0304 0.0518 0.0275 -0.0007 0.0147 -0.0032
Zn1E 0.0304 0.0518 0.0275 -0.0007 0.0147 -0.0032
Zn2G 0.0314(6) 0.0553(9) 0.0337(6) 0.0022(5) 0.0174(5) 0.0027(5)
Zn2D 0.0314 0.0553 0.0337 -0.0022 0.0174 -0.0027
O12 0.066(5) 0.079(7) 0.051(5) 0.004(4) 0.039(4) -0.001(4)
loop_
_geom_bond_atom_site_label_1
_geom_bond_atom_site_label_2
_geom_bond_site_symmetry_1
_geom_bond_site_symmetry_2
C1 C2 1_555 1_555
C2 C3 1_555 1_555
C3 H1 1_555 1_555
C4 C3 1_555 1_555
H2 C4 1_555 1_555
C5 C4 1_555 1_555
H3 C5 1_555 1_555
C6 C5 1_555 1_555
C7 C2 1_555 1_555
C8 C6 1_555 1_555
C9 C10 1_555 1_555
C10 C11 1_555 1_555
C11 H4 1_555 1_555
C12 C11 1_555 1_555
H5 C12 1_555 1_555
C13 C12 1_555 1_555
H6 C13 1_555 1_555
C14 C13 1_555 1_555
C15 C7 1_555 1_555
C16 C14 1_555 1_555
C17 H7 1_555 1_555
C18 C17 1_555 1_555
H8 C18 1_555 1_555
C19 C18 1_555 1_555
C20 C19 1_555 1_555
H9 C20 1_555 1_555
C21 C20 1_555 1_555
H10 C21 1_555 1_555
C22 H11 1_555 1_555
C23 C22 1_555 1_555
H12 C23 1_555 1_555
C24 C23 1_555 1_555
C25 C24 1_555 1_555
H13 C25 1_555 1_555
C26 C25 1_555 1_555
H14 C26 1_555 1_555
C27 H15 1_555 1_555
H16 C27 1_555 1_555
H17 C27 1_555 1_555
C28 H18 1_555 1_555
H19 C28 1_555 1_555
H20 C28 1_555 1_555
C29 H21 1_555 1_555
C30 H22 1_555 1_555
H23 C30 1_555 1_555
H24 C30 1_555 1_555
C31 H25 1_555 1_555
H26 C31 1_555 1_555
H27 C31 1_555 1_555
C32 H28 1_555 1_555
N1 C17 1_555 1_555
N2 C19 1_555 1_555
N3 C24 1_555 1_555
N4 C22 1_555 1_555
N5 C30 1_555 1_555
N6 C27 1_555 1_555
O1 C1 1_555 1_555
O2 C1 1_555 1_555
O3 C9 1_555 1_555
O4 C9 1_555 1_555
O5 C8 1_555 1_555
O6 C8 1_555 1_555
O7 C16 1_555 1_555
O8 C16 1_555 1_555
O9 C32 1_555 1_555
O10 C29 1_555 1_555
O11 H29 1_555 1_555
H30 O11 1_555 1_555
O12 H31 1_555 1_555
H32 O12 1_555 1_555
O13 H33 1_555 1_555
Zn1 N1 1_555 1_555
Zn2 N4 1_555 1_555
O1C Zn1 1_555 1_555
O2D Zn2 1_555 1_555
O3D Zn2 1_555 1_555
O5G Zn2 1_555 1_555
O6G Zn2 1_555 1_555
O8E Zn1 1_555 1_555
H33A O13 1_555 1_555
Zn1C O1 1_555 1_555
Zn1E O8 1_555 1_555
Zn2G O5 1_555 1_555
Zn2D O2 1_555 1_555
C6 C7 1_555 1_555
C10 C15 1_555 1_555
C14 C15 1_555 1_555
C21 N1 1_555 1_555
C26 N4 1_555 1_555
C28 N6 1_555 1_555
C29 N6 1_555 1_555
C31 N5 1_555 1_555
C32 N5 1_555 1_555
N2 N3 1_555 1_555
O3 Zn2D 1_555 1_555
O4 Zn1 1_555 1_555
O6 Zn2G 1_555 1_555
O11 Zn2 1_555 1_555

#END
