
#######################################################################
#
#                 Cambridge Crystallographic Data Centre
#                                CCDC 
#
#######################################################################
#
# If this CIF has been generated from an entry in the Cambridge 
# Structural Database, then it will include bibliographic, chemical, 
# crystal, experimental, refinement or atomic coordinate data resulting 
# from the CCDC's data processing and validation procedures.
#
#######################################################################

data_APACAX
_chemical_formula_moiety         '(C56 H40 N3 O26 Zn3 3-)n'
_symmetry_cell_setting           tetragonal
_symmetry_space_group_name_H-M   'I -4 2 d'
_symmetry_Int_Tables_number      122
_space_group_name_Hall           'I -4 2bw'
loop_
_symmetry_equiv_pos_site_id
_symmetry_equiv_pos_as_xyz
1 x,y,z
2 -x,-y,z
3 y,-x,-z
4 -y,x,-z
5 1/2-x,y,3/4-z
6 1/2+x,-y,3/4-z
7 1/2-y,-x,3/4+z
8 1/2+y,x,3/4+z
9 1/2+x,1/2+y,1/2+z
10 1/2-x,1/2-y,1/2+z
11 1/2+y,1/2-x,1/2-z
12 1/2-y,1/2+x,1/2-z
13 -x,1/2+y,1/4-z
14 x,1/2-y,1/4-z
15 -y,1/2-x,1/4+z
16 y,1/2+x,1/4+z
_cell_length_a                   28.2219(17)
_cell_length_b                   28.2219(17)
_cell_length_c                   9.7266(12)
_cell_angle_alpha                90
_cell_angle_beta                 90
_cell_angle_gamma                90
_cell_volume                     7747
loop_
_atom_site_label
_atom_site_type_symbol
_atom_site_fract_x
_atom_site_fract_y
_atom_site_fract_z
Zn1 Zn 0.5000 0.0000 0.7500
O1 O 0.51445(13) 0.06124(13) 0.6640(4)
C1 C 0.48771(18) 0.07823(19) 0.5722(6)
O2 O 0.45655(18) 0.05487(16) 0.5112(6)
C2 C 0.49495(18) 0.12885(17) 0.5325(5)
C3 C 0.53396(19) 0.15410(19) 0.5838(6)
C4 C 0.46371(19) 0.15068(19) 0.4446(6)
H1 H 0.5556 0.1389 0.6408
C5 C 0.54074(17) 0.20151(18) 0.5506(5)
C6 C 0.47045(19) 0.19900(19) 0.4099(6)
H2 H 0.4383 0.1339 0.4082
C7 C 0.50817(18) 0.22366(17) 0.4659(6)
C8 C 0.58489(17) 0.22824(17) 0.5959(5)
C9 C 0.4375(2) 0.2238(2) 0.3108(7)
H3 H 0.5117 0.2557 0.4463
C10 C 0.62823(19) 0.20690(17) 0.5652(6)
O3 O 0.40542(14) 0.19938(14) 0.2537(5)
O4 O 0.44225(19) 0.26567(16) 0.2861(7)
H4 H 0.6278 0.1771 0.5244
C11 C 0.67152(18) 0.22723(17) 0.5918(6)
Zn2 Zn 0.37941(3) 0.2500 0.1250
C12 C 0.7139(2) 0.1998(2) 0.5432(6)
O5 O 0.70629(13) 0.16301(14) 0.4795(5)
O6 O 0.75537(17) 0.21480(17) 0.5599(7)
O1M O 0.51445(13) 0.43876(13) 0.5860(4)
C1M C 0.48771(18) 0.42177(19) 0.6778(6)
O2M O 0.45655(18) 0.44513(16) 0.7388(6)
C2M C 0.49495(18) 0.37115(17) 0.7175(5)
C3M C 0.53396(19) 0.34590(19) 0.6662(6)
C4M C 0.46371(19) 0.34932(19) 0.8054(6)
H1M H 0.5556 0.3611 0.6092
C5M C 0.54074(17) 0.29849(18) 0.6994(5)
C6M C 0.47045(19) 0.30100(19) 0.8401(6)
H2M H 0.4383 0.3661 0.8418
C7M C 0.50817(18) 0.27634(17) 0.7841(6)
C8M C 0.58489(17) 0.27176(17) 0.6541(5)
C9M C 0.4375(2) 0.2762(2) 0.9392(7)
H3M H 0.5117 0.2443 0.8037
C10M C 0.62823(19) 0.29310(17) 0.6848(6)
O3M O 0.40542(14) 0.30062(14) 0.9963(5)
O4M O 0.44225(19) 0.23433(16) 0.9639(7)
H4M H 0.6278 0.3229 0.7256
C11M C 0.67152(18) 0.27277(17) 0.6582(6)
C12M C 0.7139(2) 0.3002(2) 0.7068(6)
O6M O 0.75537(17) 0.28520(17) 0.6901(7)
O5M O 0.70629(13) 0.33699(14) 0.7705(5)
O1A O 0.48555(13) -0.06124(13) 0.6640(4)
C1A C 0.51229(18) -0.07823(19) 0.5722(6)
O2A O 0.54345(18) -0.05487(16) 0.5112(6)
C2A C 0.50505(18) -0.12885(17) 0.5325(5)
C3A C 0.46604(19) -0.15410(19) 0.5838(6)
C4A C 0.53629(19) -0.15068(19) 0.4446(6)
H1A H 0.4444 -0.1389 0.6408
C5A C 0.45926(17) -0.20151(18) 0.5506(5)
C6A C 0.52955(19) -0.19900(19) 0.4099(6)
H2A H 0.5617 -0.1339 0.4082
C7A C 0.49183(18) -0.22366(17) 0.4659(6)
C8A C 0.41511(17) -0.22824(17) 0.5959(5)
C9A C 0.5625(2) -0.2238(2) 0.3108(7)
H3A H 0.4883 -0.2557 0.4463
C10A C 0.37177(19) -0.20690(17) 0.5652(6)
O3A O 0.59458(14) -0.19938(14) 0.2537(5)
O4A O 0.55775(19) -0.26567(16) 0.2861(7)
H4A H 0.3722 -0.1771 0.5244
C11A C 0.32848(18) -0.22723(17) 0.5918(6)
Zn2A Zn 0.62059(3) -0.2500 0.1250
C12A C 0.2861(2) -0.1998(2) 0.5432(6)
O5A O 0.29371(13) -0.16301(14) 0.4795(5)
O6A O 0.24463(17) -0.21480(17) 0.5599(7)
O1L O 0.48555(13) -0.43876(13) 0.5860(4)
C1L C 0.51229(18) -0.42177(19) 0.6778(6)
O2L O 0.54345(18) -0.44513(16) 0.7388(6)
C2L C 0.50505(18) -0.37115(17) 0.7175(5)
C3L C 0.46604(19) -0.34590(19) 0.6662(6)
C4L C 0.53629(19) -0.34932(19) 0.8054(6)
H1L H 0.4444 -0.3611 0.6092
C5L C 0.45926(17) -0.29849(18) 0.6994(5)
C6L C 0.52955(19) -0.30100(19) 0.8401(6)
H2L H 0.5617 -0.3661 0.8418
C7L C 0.49183(18) -0.27634(17) 0.7841(6)
C8L C 0.41511(17) -0.27176(17) 0.6541(5)
C9L C 0.5625(2) -0.2762(2) 0.9392(7)
H3L H 0.4883 -0.2443 0.8037
C10L C 0.37177(19) -0.29310(17) 0.6848(6)
O3L O 0.59458(14) -0.30062(14) 0.9963(5)
O4L O 0.55775(19) -0.23433(16) 0.9639(7)
H4L H 0.3722 -0.3229 0.7256
C11L C 0.32848(18) -0.27277(17) 0.6582(6)
C12L C 0.2861(2) -0.3002(2) 0.7068(6)
O6L O 0.24463(17) -0.28520(17) 0.6901(7)
O5L O 0.29371(13) -0.33699(14) 0.7705(5)
Zn1F Zn 0.5000 -0.5000 0.5000
Zn1F_2 Zn 0.5000 0.5000 0.5000
O1J O 0.56124(13) -0.01445(13) 0.8360(4)
O1K O 0.43876(13) 0.01445(13) 0.8360(4)
O3L_2 O 0.59458(14) -0.30062(14) -0.0037(5)
O3M_2 O 0.40542(14) 0.30062(14) -0.0037(5)
O4L_2 O 0.55775(19) -0.23433(16) -0.0361(7)
O4M_2 O 0.44225(19) 0.23433(16) -0.0361(7)
Zn2_2 Zn 0.37941(3) 0.2500 1.1250
Zn2A_2 Zn 0.62059(3) -0.2500 1.1250
Zn2B Zn 0.2500 -0.37941(3) 0.8750
Zn2C Zn 0.7500 0.37941(3) 0.8750
Zn2J Zn 0.7500 0.12059(3) 0.3750
Zn2K Zn 0.2500 -0.12059(3) 0.3750
O5F O 0.33699(14) 0.29371(13) 0.2295(5)
O5G O 0.66301(14) -0.29371(13) 0.2295(5)
O5J O 0.66301(14) -0.20629(13) 0.0205(5)
O5K O 0.33699(14) 0.20629(13) 0.0205(5)
N1 N 0.6056(2) 0.0216(2) 0.5224(9)
H5 H 0.5786 0.0057 0.5393
H6 H 0.6108 0.0412 0.5938
C13 C 0.6447(3) -0.0122(4) 0.5135(17)
H7 H 0.6358 -0.0379 0.4544
H8 H 0.6517 -0.0242 0.6036
H9 H 0.6722 0.0034 0.4768
C14 C 0.5996(6) 0.0492(4) 0.4012(15)
H10 H 0.5749 0.0720 0.4156
H11 H 0.5912 0.0288 0.3260
H12 H 0.6287 0.0653 0.3801
O7 O 0.6332(3) 0.0891(3) 0.7135(10)
N2 N 0.6869(5) 0.1310(5) 0.8448(14)
C15 C 0.6692(6) 0.0975(6) 0.7519(18)
H13 H 0.6934 0.0777 0.7128
C16 C 0.7342(6) 0.1381(6) 0.874(3)
H14 H 0.7561 0.1207 0.8181
H15 H 0.7390 0.1300 0.9691
C17 C 0.6529(8) 0.1576(8) 0.919(2)
H16 H 0.6216 0.1489 0.8905
H17 H 0.6571 0.1496 1.0144
H18 H 0.6573 0.1910 0.9071
H19D H 0.7608 0.1714 0.8882
H19 H 0.7392 0.1714 0.8618
O7D O 0.8668(3) 0.0891(3) 1.0365(10)
N2D N 0.8131(5) 0.1310(5) 0.9052(14)
C15D C 0.8308(6) 0.0975(6) 0.9981(18)
H13D H 0.8066 0.0777 1.0372
C16D C 0.7658(6) 0.1381(6) 0.876(3)
H14D H 0.7439 0.1207 0.9319
H15D H 0.7610 0.1300 0.7809
C17D C 0.8471(8) 0.1576(8) 0.831(2)
H16D H 0.8784 0.1489 0.8595
H17D H 0.8429 0.1496 0.7356
H18D H 0.8427 0.1910 0.8429
loop_
_geom_bond_atom_site_label_1
_geom_bond_atom_site_label_2
_geom_bond_site_symmetry_1
_geom_bond_site_symmetry_2
Zn1 O1 1_555 1_555
O1 C1 1_555 1_555
C1 O2 1_555 1_555
C2 C1 1_555 1_555
C3 C2 1_555 1_555
C4 C2 1_555 1_555
H1 C3 1_555 1_555
C5 C3 1_555 1_555
C6 C4 1_555 1_555
H2 C4 1_555 1_555
C7 C5 1_555 1_555
C8 C5 1_555 1_555
C9 C6 1_555 1_555
H3 C7 1_555 1_555
C10 C8 1_555 1_555
O3 C9 1_555 1_555
O4 C9 1_555 1_555
H4 C10 1_555 1_555
C11 C10 1_555 1_555
Zn2 O3 1_555 1_555
C12 C11 1_555 1_555
O5 C12 1_555 1_555
O6 C12 1_555 1_555
N1 H5 1_555 1_555
H6 N1 1_555 1_555
C13 N1 1_555 1_555
H7 C13 1_555 1_555
H8 C13 1_555 1_555
H9 C13 1_555 1_555
C14 N1 1_555 1_555
H10 C14 1_555 1_555
H11 C14 1_555 1_555
H12 C14 1_555 1_555
O7 C15 1_555 1_555
N2 C15 1_555 1_555
C15 H13 1_555 1_555
C16 N2 1_555 1_555
H14 C16 1_555 1_555
H15 C16 1_555 1_555
C17 N2 1_555 1_555
H16 C17 1_555 1_555
H17 C17 1_555 1_555
H18 C17 1_555 1_555
H19 C16D 1_555 1_555
O1M C1M 1_555 1_555
C1M O2M 1_555 1_555
C2M C1M 1_555 1_555
C3M C2M 1_555 1_555
C4M C2M 1_555 1_555
H1M C3M 1_555 1_555
C5M C3M 1_555 1_555
C6M C4M 1_555 1_555
H2M C4M 1_555 1_555
C7M C5M 1_555 1_555
C8M C8 1_555 1_555
C9M C6M 1_555 1_555
H3M C7M 1_555 1_555
C10M C8M 1_555 1_555
O3M C9M 1_555 1_555
O4M C9M 1_555 1_555
H4M C10M 1_555 1_555
C11M C11 1_555 1_555
C12M C11M 1_555 1_555
O6M C12M 1_555 1_555
O5M C12M 1_555 1_555
O1A Zn1 1_555 1_555
C1A O1A 1_555 1_555
O2A C1A 1_555 1_555
C2A C1A 1_555 1_555
C3A C2A 1_555 1_555
C4A C2A 1_555 1_555
H1A C3A 1_555 1_555
C5A C3A 1_555 1_555
C6A C4A 1_555 1_555
H2A C4A 1_555 1_555
C7A C5A 1_555 1_555
C8A C5A 1_555 1_555
C9A C6A 1_555 1_555
H3A C7A 1_555 1_555
C10A C8A 1_555 1_555
O3A C9A 1_555 1_555
O4A C9A 1_555 1_555
H4A C10A 1_555 1_555
C11A C10A 1_555 1_555
Zn2A O3A 1_555 1_555
C12A C11A 1_555 1_555
O5A C12A 1_555 1_555
O6A C12A 1_555 1_555
O1L C1L 1_555 1_555
C1L O2L 1_555 1_555
C2L C1L 1_555 1_555
C3L C2L 1_555 1_555
C4L C2L 1_555 1_555
H1L C3L 1_555 1_555
C5L C3L 1_555 1_555
C6L C4L 1_555 1_555
H2L C4L 1_555 1_555
C7L C5L 1_555 1_555
C8L C8A 1_555 1_555
C9L C6L 1_555 1_555
H3L C7L 1_555 1_555
C10L C8L 1_555 1_555
O3L C9L 1_555 1_555
O4L C9L 1_555 1_555
H4L C10L 1_555 1_555
C11L C11A 1_555 1_555
C12L C11L 1_555 1_555
O6L C12L 1_555 1_555
O5L C12L 1_555 1_555
Zn1F O1L 1_555 1_555
Zn1F_2 O1M 1_555 1_555
O1J Zn1 1_555 1_555
O1K Zn1 1_555 1_555
O3L_2 Zn2A 1_555 1_555
O3M_2 Zn2 1_555 1_555
O4L_2 Zn2A 1_555 1_555
O4M_2 Zn2 1_555 1_555
Zn2_2 O3M 1_555 1_555
Zn2A_2 O3L 1_555 1_555
Zn2B O5L 1_555 1_555
Zn2C O5M 1_555 1_555
Zn2J O5 1_555 1_555
Zn2K O5A 1_555 1_555
O5F Zn2 1_555 1_555
O5G Zn2A 1_555 1_555
O5J Zn2A 1_555 1_555
O5K Zn2 1_555 1_555
H19D C16 1_555 1_555
O7D C15D 1_555 1_555
N2D C15D 1_555 1_555
C15D H13D 1_555 1_555
C16D N2D 1_555 1_555
H14D C16D 1_555 1_555
H15D C16D 1_555 1_555
C17D N2D 1_555 1_555
H16D C17D 1_555 1_555
H17D C17D 1_555 1_555
H18D C17D 1_555 1_555
C6 C7 1_555 1_555
O4 Zn2 1_555 1_555
C5M C8M 1_555 1_555
C6M C7M 1_555 1_555
C10M C11M 1_555 1_555
O4M Zn2_2 1_555 1_555
C6A C7A 1_555 1_555
O4A Zn2A 1_555 1_555
C5L C8L 1_555 1_555
C6L C7L 1_555 1_555
C10L C11L 1_555 1_555
O4L Zn2A_2 1_555 1_555

#END
