
#######################################################################
#
#                 Cambridge Crystallographic Data Centre
#                                CCDC 
#
#######################################################################
#
# If this CIF has been generated from an entry in the Cambridge 
# Structural Database, then it will include bibliographic, chemical, 
# crystal, experimental, refinement or atomic coordinate data resulting 
# from the CCDC's data processing and validation procedures.
#
#######################################################################

data_LEQQAA
_chemical_formula_moiety         '(C35 H48 Cu2 N6 O14 2+)n'
_symmetry_cell_setting           tetragonal
_symmetry_space_group_name_H-M   'P 42/n b c'
_symmetry_Int_Tables_number      133
_space_group_name_Hall           '-P 4ac 2b'
loop_
_symmetry_equiv_pos_site_id
_symmetry_equiv_pos_as_xyz
1 x,y,z
2 1/2-y,x,1/2+z
3 y,1/2-x,1/2+z
4 y,x,1/2-z
5 1/2-x,1/2-y,z
6 1/2-x,y,-z
7 x,1/2-y,-z
8 1/2-y,1/2-x,1/2-z
9 -x,-y,-z
10 1/2+y,-x,1/2-z
11 -y,1/2+x,1/2-z
12 -y,-x,1/2+z
13 1/2+x,1/2+y,-z
14 1/2+x,-y,z
15 -x,1/2+y,z
16 1/2+y,1/2+x,1/2+z
_cell_length_a                   21.435(2)
_cell_length_b                   21.435(2)
_cell_length_c                   11.382(2)
_cell_angle_alpha                90
_cell_angle_beta                 90
_cell_angle_gamma                90
_cell_volume                     5229.56
loop_
_atom_site_label
_atom_site_type_symbol
_atom_site_fract_x
_atom_site_fract_y
_atom_site_fract_z
_atom_site_U_iso_or_equiv
_atom_site_thermal_displace_type
O3 O 0.1413(7) 0.1413(7) 0.7500 0.0500 Uiso
C10 C 0.1900(11) 0.1900(11) 0.7500 0.0500 Uiso
N2 N 0.0391(6) 0.2157(8) 0.9430(16) 0.1310 Uani
O4 O -0.0083(5) 0.2500 1.0000 0.1527 Uani
O5 O 0.0282(7) 0.1719(6) 0.8557(14) 0.1140 Uani
O6 O 0.0987(7) 0.2381(15) 0.964(2) 0.1687 Uani
N2F N 0.0391(6) 0.2843(8) 1.0570(16) 0.1310 Uani
O5F O 0.0282(7) 0.3281(6) 1.1443(14) 0.1140 Uani
O6F O 0.0987(7) 0.2619(15) 1.036(2) 0.1687 Uani
Cu1 Cu 0.2500 0.93806(4) 1.0000 0.0420 Uani
O1 O 0.2987(2) 0.87622(17) 0.9207(4) 0.0520 Uani
N1 N 0.2024(2) 1.0032(2) 1.0900(5) 0.0413 Uani
C1 C 0.1760(3) 1.0529(3) 1.0379(6) 0.0440 Uani
H1 H 0.1828 1.0589 0.9581 0.0520 Uiso
C2 C 0.1395(3) 1.0952(3) 1.0969(5) 0.0413 Uani
H2 H 0.1227 1.1294 1.0579 0.0500 Uiso
C3 C 0.1278(2) 1.0859(2) 1.2162(5) 0.0360 Uani
C4 C 0.1556(3) 1.0346(3) 1.2712(6) 0.0413 Uani
H3 H 0.1497 1.0273 1.3509 0.0490 Uiso
C5 C 0.1920(3) 0.9952(2) 1.2043(6) 0.0413 Uani
H4 H 0.2102 0.9611 1.2411 0.0500 Uiso
C6 C 0.2934(3) 0.8162(2) 0.9314(5) 0.0410 Uani
C7 C 0.2500 0.7854(3) 1.0000 0.0337 Uani
C8 C 0.3413(3) 0.7813(3) 0.8582(5) 0.0457 Uani
H5 H 0.3506 0.8048 0.7887 0.0680 Uiso
H6 H 0.3249 0.7412 0.8364 0.0680 Uiso
H7 H 0.3788 0.7756 0.9033 0.0680 Uiso
O2 O 0.1685(3) 0.9452(3) 0.8455(5) 0.0827 Uani
C9 C 0.1092(7) 0.9218(8) 0.8577(19) 0.1730 Uani
H8 H 0.0880 0.9437 0.9195 0.2610 Uiso
H9 H 0.1114 0.8782 0.8769 0.2610 Uiso
H10 H 0.0868 0.9270 0.7854 0.2610 Uiso
Cu1D Cu 0.2500 0.56194(4) 1.0000 0.0420 Uani
Cu1B Cu -0.06194(4) 1.2500 1.5000 0.0420 Uani
Cu1A Cu 0.56194(4) 1.2500 0.5000 0.0420 Uani
O1E O 0.2013(2) 0.87622(17) 1.0793(4) 0.0520 Uani
O1D O 0.2013(2) 0.62378(17) 0.9207(4) 0.0520 Uani
O1F O 0.2987(2) 0.62378(17) 1.0793(4) 0.0520 Uani
N1C N 0.0032(2) 1.2024(2) 1.4100(5) 0.0413 Uani
N1E N 0.2976(2) 1.0032(2) 0.9100(5) 0.0413 Uani
N1A N 0.4968(2) 1.2024(2) 0.5900(5) 0.0413 Uani
N1D N 0.2976(2) 0.4968(2) 1.0900(5) 0.0413 Uani
N1F N 0.2024(2) 0.4968(2) 0.9100(5) 0.0413 Uani
C1C C 0.0529(3) 1.1760(3) 1.4621(6) 0.0440 Uani
C1E C 0.3240(3) 1.0529(3) 0.9621(6) 0.0440 Uani
C1A C 0.4471(3) 1.1760(3) 0.5379(6) 0.0440 Uani
H1C H 0.0589 1.1828 1.5419 0.0520 Uiso
H1E H 0.3172 1.0589 1.0419 0.0520 Uiso
H1A H 0.4411 1.1828 0.4581 0.0520 Uiso
C2C C 0.0952(3) 1.1395(3) 1.4031(5) 0.0413 Uani
C2E C 0.3605(3) 1.0952(3) 0.9031(5) 0.0413 Uani
C2A C 0.4048(3) 1.1395(3) 0.5969(5) 0.0413 Uani
H2C H 0.1294 1.1227 1.4421 0.0500 Uiso
H2E H 0.3773 1.1294 0.9421 0.0500 Uiso
H2A H 0.3706 1.1227 0.5579 0.0500 Uiso
C3C C 0.0859(2) 1.1278(2) 1.2838(5) 0.0360 Uani
C3E C 0.3722(2) 1.0859(2) 0.7838(5) 0.0360 Uani
C3A C 0.4141(2) 1.1278(2) 0.7162(5) 0.0360 Uani
C4C C 0.0346(3) 1.1556(3) 1.2288(6) 0.0413 Uani
C4E C 0.3444(3) 1.0346(3) 0.7288(6) 0.0413 Uani
C4A C 0.4654(3) 1.1556(3) 0.7712(6) 0.0413 Uani
H3C H 0.0273 1.1497 1.1491 0.0490 Uiso
H3E H 0.3503 1.0273 0.6491 0.0490 Uiso
H3A H 0.4727 1.1497 0.8509 0.0490 Uiso
C5C C -0.0048(2) 1.1920(3) 1.2957(6) 0.0413 Uani
C5E C 0.3080(3) 0.9952(2) 0.7957(6) 0.0413 Uani
C5A C 0.5048(2) 1.1920(3) 0.7043(6) 0.0413 Uani
H4C H -0.0389 1.2102 1.2589 0.0500 Uiso
H4E H 0.2898 0.9611 0.7589 0.0500 Uiso
H4A H 0.5389 1.2102 0.7411 0.0500 Uiso
C6E C 0.2066(3) 0.8162(2) 1.0686(5) 0.0410 Uani
C6D C 0.2066(3) 0.6838(2) 0.9314(5) 0.0410 Uani
C6F C 0.2934(3) 0.6838(2) 1.0686(5) 0.0410 Uani
C7D C 0.2500 0.7146(3) 1.0000 0.0337 Uani
C8E C 0.1587(3) 0.7813(3) 1.1418(5) 0.0457 Uani
C8D C 0.1587(3) 0.7187(3) 0.8582(5) 0.0457 Uani
C8F C 0.3413(3) 0.7187(3) 1.1418(5) 0.0457 Uani
H5E H 0.1494 0.8048 1.2113 0.0680 Uiso
H5D H 0.1494 0.6952 0.7887 0.0680 Uiso
H5F H 0.3506 0.6952 1.2113 0.0680 Uiso
H6E H 0.1751 0.7412 1.1636 0.0680 Uiso
H6D H 0.1751 0.7588 0.8364 0.0680 Uiso
H6F H 0.3249 0.7588 1.1636 0.0680 Uiso
H7E H 0.1212 0.7756 1.0967 0.0680 Uiso
H7D H 0.1212 0.7244 0.9033 0.0680 Uiso
H7F H 0.3788 0.7244 1.0967 0.0680 Uiso
O2E O 0.3315(3) 0.9452(3) 1.1545(5) 0.0827 Uani
O2D O 0.3315(3) 0.5548(3) 0.8455(5) 0.0827 Uani
O2F O 0.1685(3) 0.5548(3) 1.1545(5) 0.0827 Uani
C9E C 0.3908(7) 0.9218(8) 1.1423(19) 0.1730 Uani
C9D C 0.3908(7) 0.5782(8) 0.8577(19) 0.1730 Uani
C9F C 0.1092(7) 0.5782(8) 1.1423(19) 0.1730 Uani
H8E H 0.4120 0.9437 1.0805 0.2610 Uiso
H8D H 0.4120 0.5563 0.9195 0.2610 Uiso
H8F H 0.0880 0.5563 1.0805 0.2610 Uiso
H9E H 0.3886 0.8782 1.1231 0.2610 Uiso
H9D H 0.3886 0.6218 0.8769 0.2610 Uiso
H9F H 0.1114 0.6218 1.1231 0.2610 Uiso
H10E H 0.4132 0.9270 1.2146 0.2610 Uiso
H10D H 0.4132 0.5730 0.7854 0.2610 Uiso
H10F H 0.0868 0.5730 1.2146 0.2610 Uiso
loop_
_atom_site_aniso_label
_atom_site_aniso_U_11
_atom_site_aniso_U_22
_atom_site_aniso_U_33
_atom_site_aniso_U_23
_atom_site_aniso_U_13
_atom_site_aniso_U_12
N2 0.076(11) 0.117(17) 0.20(2) 0.069(18) -0.031(15) 0.015(12)
O4 0.059(7) 0.201(15) 0.198(14) 0.109(11) 0.000 0.000
O5 0.121(12) 0.075(9) 0.146(14) 0.003(8) -0.041(10) 0.044(9)
O6 0.106(11) 0.18(3) 0.22(4) 0.15(3) -0.075(17) -0.045(18)
N2F 0.076 0.117 0.2 0.069 0.031 -0.015
O5F 0.121 0.075 0.146 0.003 0.041 -0.044
O6F 0.106 0.18 0.22 0.15 0.075 0.045
Cu1 0.0428(8) 0.0231(7) 0.0601(10) 0.000 0.0207(5) 0.000
O1 0.058(3) 0.026(2) 0.072(3) 0.0027(18) 0.035(2) 0.0009(19)
N1 0.044(3) 0.023(2) 0.057(3) 0.001(2) 0.012(2) 0.001(2)
C1 0.040(3) 0.032(3) 0.060(4) 0.003(3) 0.015(3) 0.001(2)
C2 0.038(3) 0.032(3) 0.054(4) 0.004(3) 0.009(3) 0.002(2)
C3 0.030(3) 0.024(3) 0.054(4) -0.003(2) -0.002(2) -0.003(2)
C4 0.038(3) 0.033(3) 0.053(4) 0.003(3) 0.004(3) -0.003(2)
C5 0.039(3) 0.028(3) 0.057(4) -0.001(3) 0.008(3) 0.004(3)
C6 0.047(3) 0.028(3) 0.048(3) -0.002(2) 0.009(3) 0.002(2)
C7 0.039(4) 0.017(4) 0.045(4) 0.000 0.001(3) 0.000
C8 0.052(4) 0.037(3) 0.048(3) 0.000(3) 0.011(3) 0.005(3)
O2 0.054(3) 0.080(4) 0.114(5) -0.043(3) 0.008(3) -0.010(3)
C9 0.104(10) 0.145(13) 0.27(2) -0.036(13) 0.037(12) -0.004(10)
Cu1D 0.0428 0.0231 0.0601 0 -0.0207 0
Cu1B 0.0231 0.0428 0.0601 -0.0207 0 0
Cu1A 0.0231 0.0428 0.0601 0.0207 0 0
O1E 0.058 0.026 0.072 -0.0027 0.035 -0.0009
O1D 0.058 0.026 0.072 -0.0027 -0.035 0.0009
O1F 0.058 0.026 0.072 0.0027 -0.035 -0.0009
N1C 0.023 0.044 0.057 -0.012 -0.001 0.001
N1E 0.044 0.023 0.057 -0.001 0.012 -0.001
N1A 0.023 0.044 0.057 0.012 -0.001 -0.001
N1D 0.044 0.023 0.057 -0.001 -0.012 0.001
N1F 0.044 0.023 0.057 0.001 -0.012 -0.001
C1C 0.032 0.04 0.06 -0.015 -0.003 0.001
C1E 0.04 0.032 0.06 -0.003 0.015 -0.001
C1A 0.032 0.04 0.06 0.015 -0.003 -0.001
C2C 0.032 0.038 0.054 -0.009 -0.004 0.002
C2E 0.038 0.032 0.054 -0.004 0.009 -0.002
C2A 0.032 0.038 0.054 0.009 -0.004 -0.002
C3C 0.024 0.03 0.054 0.002 0.003 -0.003
C3E 0.03 0.024 0.054 0.003 -0.002 0.003
C3A 0.024 0.03 0.054 -0.002 0.003 0.003
C4C 0.033 0.038 0.053 -0.004 -0.003 -0.003
C4E 0.038 0.033 0.053 -0.003 0.004 0.003
C4A 0.033 0.038 0.053 0.004 -0.003 0.003
C5C 0.028 0.039 0.057 -0.008 0.001 0.004
C5E 0.039 0.028 0.057 0.001 0.008 -0.004
C5A 0.028 0.039 0.057 0.008 0.001 -0.004
C6E 0.047 0.028 0.048 0.002 0.009 -0.002
C6D 0.047 0.028 0.048 0.002 -0.009 0.002
C6F 0.047 0.028 0.048 -0.002 -0.009 -0.002
C7D 0.039 0.017 0.045 0 -0.001 0
C8E 0.052 0.037 0.048 0 0.011 -0.005
C8D 0.052 0.037 0.048 0 -0.011 0.005
C8F 0.052 0.037 0.048 0 -0.011 -0.005
O2E 0.054 0.08 0.114 0.043 0.008 0.01
O2D 0.054 0.08 0.114 0.043 -0.008 -0.01
O2F 0.054 0.08 0.114 -0.043 -0.008 0.01
C9E 0.104 0.145 0.27 0.036 0.037 0.004
C9D 0.104 0.145 0.27 0.036 -0.037 -0.004
C9F 0.104 0.145 0.27 -0.036 -0.037 0.004
loop_
_geom_bond_atom_site_label_1
_geom_bond_atom_site_label_2
_geom_bond_site_symmetry_1
_geom_bond_site_symmetry_2
Cu1 O1 1_555 1_555
O1 C6 1_555 1_555
N1 Cu1 1_555 1_555
C1 N1 1_555 1_555
H1 C1 1_555 1_555
C2 C1 1_555 1_555
H2 C2 1_555 1_555
C3 C2 1_555 1_555
C4 C3 1_555 1_555
H3 C4 1_555 1_555
C5 N1 1_555 1_555
H4 C5 1_555 1_555
C6 C7 1_555 1_555
C7 C6E 1_555 1_555
C8 C6 1_555 1_555
H5 C8 1_555 1_555
H6 C8 1_555 1_555
H7 C8 1_555 1_555
O2 Cu1 1_555 1_555
C9 O2 1_555 1_555
H8 C9 1_555 1_555
H9 C9 1_555 1_555
H10 C9 1_555 1_555
O3 C10 1_555 1_555
N2 O4 1_555 1_555
O4 N2F 1_555 1_555
O5 N2 1_555 1_555
O6 N2 1_555 1_555
Cu1D O1D 1_555 1_555
Cu1B N1C 1_555 1_555
Cu1A N1A 1_555 1_555
O1E Cu1 1_555 1_555
O1D C6D 1_555 1_555
O1F Cu1D 1_555 1_555
N1C C1C 1_555 1_555
N1E Cu1 1_555 1_555
N1A C1A 1_555 1_555
N1D Cu1D 1_555 1_555
N1F Cu1D 1_555 1_555
C1C H1C 1_555 1_555
C1E N1E 1_555 1_555
C1A H1A 1_555 1_555
H1E C1E 1_555 1_555
C2C C1C 1_555 1_555
C2E C1E 1_555 1_555
C2A C1A 1_555 1_555
H2C C2C 1_555 1_555
H2E C2E 1_555 1_555
H2A C2A 1_555 1_555
C3C C3 1_555 1_555
C3E C2E 1_555 1_555
C3A C2A 1_555 1_555
C4C C3C 1_555 1_555
C4E C3E 1_555 1_555
C4A C3A 1_555 1_555
H3C C4C 1_555 1_555
H3E C4E 1_555 1_555
H3A C4A 1_555 1_555
C5C N1C 1_555 1_555
C5E N1E 1_555 1_555
C5A N1A 1_555 1_555
H4C C5C 1_555 1_555
H4E C5E 1_555 1_555
H4A C5A 1_555 1_555
C6E O1E 1_555 1_555
C6D C7D 1_555 1_555
C6F O1F 1_555 1_555
C7D C7 1_555 1_555
C8E C6E 1_555 1_555
C8D C6D 1_555 1_555
C8F C6F 1_555 1_555
H5E C8E 1_555 1_555
H5D C8D 1_555 1_555
H5F C8F 1_555 1_555
H6E C8E 1_555 1_555
H6D C8D 1_555 1_555
H6F C8F 1_555 1_555
H7E C8E 1_555 1_555
H7D C8D 1_555 1_555
H7F C8F 1_555 1_555
O2E Cu1 1_555 1_555
O2D Cu1D 1_555 1_555
O2F Cu1D 1_555 1_555
C9E O2E 1_555 1_555
C9D O2D 1_555 1_555
C9F O2F 1_555 1_555
H8E C9E 1_555 1_555
H8D C9D 1_555 1_555
H8F C9F 1_555 1_555
H9E C9E 1_555 1_555
H9D C9D 1_555 1_555
H9F C9F 1_555 1_555
H10E C9E 1_555 1_555
H10D C9D 1_555 1_555
H10F C9F 1_555 1_555
N2F O5F 1_555 1_555
O6F O6 1_555 1_555
C4 C5 1_555 1_555
C2C C3C 1_555 1_555
C3E C3A 1_555 1_555
C4C C5C 1_555 1_555
C4E C5E 1_555 1_555
C4A C5A 1_555 1_555
C6F C7D 1_555 1_555
N2F O6F 1_555 1_555

#END
