
#######################################################################
#
#                 Cambridge Crystallographic Data Centre
#                                CCDC 
#
#######################################################################
#
# If this CIF has been generated from an entry in the Cambridge 
# Structural Database, then it will include bibliographic, chemical, 
# crystal, experimental, refinement or atomic coordinate data resulting 
# from the CCDC's data processing and validation procedures.
#
#######################################################################

data_LEQQEE
_chemical_formula_moiety         '(C30 H44 Cu2 N6 O18)n'
_symmetry_cell_setting           monoclinic
_symmetry_space_group_name_H-M   'P 21/n'
_symmetry_Int_Tables_number      14
_space_group_name_Hall           '-P 2yn'
loop_
_symmetry_equiv_pos_site_id
_symmetry_equiv_pos_as_xyz
1 x,y,z
2 1/2-x,1/2+y,1/2-z
3 -x,-y,-z
4 1/2+x,1/2-y,1/2+z
_cell_length_a                   10.043(3)
_cell_length_b                   31.429(9)
_cell_length_c                   11.821(4)
_cell_angle_alpha                90
_cell_angle_beta                 92.980(5)
_cell_angle_gamma                90
_cell_volume                     3726.15
loop_
_atom_site_label
_atom_site_type_symbol
_atom_site_fract_x
_atom_site_fract_y
_atom_site_fract_z
_atom_site_U_iso_or_equiv
_atom_site_thermal_displace_type
Cu1 Cu 0.33025(7) 0.87446(3) 0.30486(8) 0.0161 Uani
Cu2 Cu 0.18025(7) 1.12232(3) 0.26130(8) 0.0165 Uani
O1 O 0.4040(4) 0.91783(15) 0.2121(4) 0.0174 Uani
O2 O 0.1217(4) 0.87952(16) 0.1939(5) 0.0254 Uani
H1 H 0.0739 0.8980 0.2512 0.0300 Uiso
H2 H 0.1254 0.8929 0.1094 0.0300 Uiso
O3 O 0.2709(4) 0.91500(14) 0.4100(4) 0.0158 Uani
O4 O 0.5490(4) 0.86497(16) 0.4371(5) 0.0254 Uani
H3 H 0.6294 0.8684 0.3805 0.0300 Uiso
H4 H 0.5788 0.8668 0.5125 0.0300 Uiso
O5 O 0.1014(4) 1.07201(15) 0.1970(4) 0.0173 Uani
O6 O 0.0068(4) 1.11553(15) 0.4038(5) 0.0234 Uani
H5 H 0.0083 1.1136 0.4955 0.0280 Uiso
H6 H -0.0671 1.1002 0.4141 0.0280 Uiso
O7 O 0.3143(4) 1.09264(14) 0.3488(4) 0.0173 Uani
O8 O 0.3596(4) 1.11574(16) 0.1085(5) 0.0265 Uani
H7 H 0.3467 1.1146 0.0147 0.0320 Uiso
H8 H 0.3973 1.1333 0.1011 0.0320 Uiso
N1 N 0.4151(5) 0.82986(18) 0.2074(5) 0.0149 Uani
N2 N 0.7397(5) 0.67104(17) -0.1033(5) 0.0121 Uani
N3 N 0.2553(5) 1.17478(18) 0.3371(5) 0.0153 Uani
N4 N 0.5708(5) 1.34065(19) 0.6537(5) 0.0160 Uani
C1 C 0.4170(7) 0.9831(2) 0.1172(7) 0.0204 Uani
H9 H 0.4875 1.0014 0.1458 0.0300 Uiso
H10 H 0.3453 1.0001 0.0846 0.0300 Uiso
H11 H 0.4500 0.9646 0.0603 0.0300 Uiso
C2 C 0.3679(6) 0.9573(2) 0.2107(6) 0.0164 Uani
C3 C 0.2946(6) 0.9763(2) 0.2950(6) 0.0140 Uani
C4 C 0.2524(6) 0.9544(2) 0.3883(6) 0.0140 Uani
C5 C 0.1755(6) 0.9777(2) 0.4766(6) 0.0188 Uani
H12 H 0.0864 0.9832 0.4470 0.0280 Uiso
H13 H 0.2192 1.0041 0.4953 0.0280 Uiso
H14 H 0.1724 0.9604 0.5435 0.0280 Uiso
C6 C 0.0560(6) 0.9993(2) 0.1676(7) 0.0221 Uani
H15 H -0.0248 1.0113 0.1342 0.0330 Uiso
H16 H 0.0346 0.9796 0.2259 0.0330 Uiso
H17 H 0.1030 0.9848 0.1105 0.0330 Uiso
C7 C 0.1422(6) 1.0344(2) 0.2180(6) 0.0153 Uani
C8 C 0.2599(6) 1.0229(2) 0.2823(6) 0.0113 Uani
C9 C 0.3400(6) 1.0531(2) 0.3392(6) 0.0136 Uani
C10 C 0.4718(6) 1.0409(2) 0.3987(7) 0.0190 Uani
H18 H 0.5347 1.0636 0.3913 0.0290 Uiso
H19 H 0.5052 1.0155 0.3650 0.0290 Uiso
H20 H 0.4589 1.0358 0.4775 0.0290 Uiso
C11 C 0.4300(6) 0.8345(2) 0.0979(7) 0.0193 Uani
H21 H 0.3967 0.8589 0.0626 0.0230 Uiso
C12 C 0.4935(6) 0.8044(2) 0.0325(6) 0.0146 Uani
H22 H 0.5018 0.8090 -0.0445 0.0180 Uiso
C13 C 0.5440(6) 0.7675(2) 0.0831(6) 0.0123 Uani
C14 C 0.5280(6) 0.7629(2) 0.1989(7) 0.0166 Uani
H23 H 0.5594 0.7386 0.2365 0.0200 Uiso
C15 C 0.4657(6) 0.7944(2) 0.2572(7) 0.0191 Uani
H24 H 0.4581 0.7910 0.3348 0.0230 Uiso
C16 C 0.6120(6) 0.7339(2) 0.0185(6) 0.0130 Uani
C17 C 0.5916(6) 0.7304(2) -0.0961(7) 0.0193 Uani
H25 H 0.5341 0.7492 -0.1350 0.0230 Uiso
C18 C 0.6562(6) 0.6993(2) -0.1542(6) 0.0169 Uani
H26 H 0.6412 0.6977 -0.2324 0.0200 Uiso
C19 C 0.7572(6) 0.6736(2) 0.0080(7) 0.0190 Uani
H27 H 0.8123 0.6536 0.0450 0.0230 Uiso
C20 C 0.6981(6) 0.7044(2) 0.0728(7) 0.0178 Uani
H28 H 0.7152 0.7054 0.1509 0.0210 Uiso
C21 C 0.3775(6) 1.1896(2) 0.3112(6) 0.0183 Uani
H29 H 0.4239 1.1758 0.2559 0.0220 Uiso
C22 C 0.4341(6) 1.2246(2) 0.3652(6) 0.0190 Uani
H30 H 0.5150 1.2350 0.3421 0.0230 Uiso
C23 C 0.3733(6) 1.2444(2) 0.4525(6) 0.0133 Uani
C24 C 0.2512(6) 1.2278(2) 0.4823(6) 0.0163 Uani
H31 H 0.2071 1.2392 0.5426 0.0190 Uiso
C25 C 0.1970(6) 1.1939(2) 0.4199(7) 0.0208 Uani
H32 H 0.1134 1.1841 0.4382 0.0250 Uiso
C26 C 0.4383(6) 1.2793(2) 0.5181(6) 0.0146 Uani
C27 C 0.5752(6) 1.2853(2) 0.5158(6) 0.0146 Uani
H33 H 0.6251 1.2690 0.4679 0.0180 Uiso
C28 C 0.6362(6) 1.3153(2) 0.5845(7) 0.0205 Uani
H34 H 0.7282 1.3183 0.5830 0.0250 Uiso
C29 C 0.4361(6) 1.3362(2) 0.6523(6) 0.0156 Uani
H35 H 0.3877 1.3538 0.6983 0.0190 Uiso
C30 C 0.3692(6) 1.3067(2) 0.5854(6) 0.0180 Uani
H36 H 0.2767 1.3051 0.5852 0.0220 Uiso
Cu1C Cu 0.83025(7) 0.62554(3) -0.19514(8) 0.0161 Uani
Cu2C Cu 0.68025(7) 1.37768(3) 0.76130(8) 0.0165 Uani
N2C N 0.2397(5) 0.82896(17) 0.3967(5) 0.0121 Uani
N4C N 0.0708(5) 1.15935(19) 0.1537(5) 0.0160 Uani
O9 O 0.2292(5) 0.16684(19) 0.8445(5) 0.0361 Uani
O10 O 0.2064(5) 0.16388(18) 0.6635(5) 0.0310 Uani
O11 O 0.1753(4) 0.22372(17) 0.7492(5) 0.0271 Uani
N5 N 0.2006(5) 0.1842(2) 0.7536(6) 0.0217 Uani
O12 O 0.7776(5) 0.07903(18) 0.2718(5) 0.0329 Uani
O13 O 0.6204(5) 0.07774(18) 0.1408(5) 0.0368 Uani
O14 O 0.6476(5) 0.13391(19) 0.2454(5) 0.0354 Uani
N6 N 0.6808(6) 0.0972(2) 0.2209(6) 0.0263 Uani
O15 O 0.3358(4) 0.08615(16) 0.8756(5) 0.0273 Uani
H37 H 0.4075 0.0935 0.8485 0.0330 Uiso
H38 H 0.2806 0.1179 0.8481 0.0330 Uiso
O16 O 0.0692(5) 0.08718(18) 0.6376(5) 0.0356 Uani
H39 H 0.1470 0.0713 0.6008 0.0430 Uiso
H40 H 0.1096 0.1129 0.6694 0.0430 Uiso
O17 O 0.2508(5) 0.02184(18) 0.7199(5) 0.0357 Uani
H41 H 0.2715 0.0268 0.7991 0.0430 Uiso
H42 H 0.2252 -0.0084 0.7424 0.0430 Uiso
O18 O 0.8715(5) 0.07948(17) 0.0163(5) 0.0318 Uani
H43 H 0.7928 0.0756 0.0603 0.0380 Uiso
H44 H 0.9359 0.0775 0.0761 0.0380 Uiso
loop_
_atom_site_aniso_label
_atom_site_aniso_U_11
_atom_site_aniso_U_22
_atom_site_aniso_U_33
_atom_site_aniso_U_23
_atom_site_aniso_U_13
_atom_site_aniso_U_12
Cu1 0.0045(4) 0.0142(5) 0.0302(6) 0.0010(4) 0.0078(3) 0.0007(3)
Cu2 0.0026(4) 0.0153(5) 0.0315(6) -0.0002(4) -0.0006(3) 0.0009(3)
O1 0.007(2) 0.017(3) 0.029(3) 0.001(2) 0.008(2) 0.0031(19)
O2 0.008(2) 0.025(3) 0.043(4) 0.001(3) -0.001(2) 0.000(2)
O3 0.005(2) 0.013(3) 0.030(3) 0.001(2) 0.006(2) 0.0016(18)
O4 0.009(2) 0.034(3) 0.033(3) 0.000(3) 0.000(2) 0.004(2)
O5 0.003(2) 0.017(3) 0.032(3) 0.000(2) 0.001(2) 0.0024(18)
O6 0.009 0.026 0.036 0.002 0.009 -0.006
O7 0.005(2) 0.012(3) 0.035(3) -0.001(2) 0.001(2) 0.0008(18)
O8 0.01 0.03 0.04 0.001 0.006 -0.001
N1 0.006(2) 0.019(2) 0.020(3) -0.002(2) 0.0025(19) -0.0041(19)
N2 0.0045 0.015 0.017 0.003 0.0025 -0.0042
N3 0.004(2) 0.019(3) 0.023(4) 0.004(3) 0.001(2) 0.003(2)
N4 0.001 0.021 0.026 0.004 0 -0.002
C1 0.012(3) 0.022(4) 0.028(5) 0.001(4) 0.008(3) 0.000(3)
C2 0.010(2) 0.016(3) 0.023(3) 0.001(2) -0.002(2) -0.002(2)
C3 0.002(3) 0.012(4) 0.028(5) -0.004(3) 0.002(3) 0.001(2)
C4 0.008(2) 0.014(3) 0.020(3) 0.001(2) 0.001(2) -0.002(2)
C5 0.006(3) 0.026(4) 0.025(5) -0.001(4) 0.007(3) 0.001(3)
C6 0.003(3) 0.016(4) 0.047(6) -0.001(4) -0.001(3) -0.005(3)
C7 0.002(3) 0.019(4) 0.025(5) 0.000(3) 0.003(3) 0.000(3)
C8 0.002(3) 0.009(4) 0.023(4) 0.004(3) 0.002(3) -0.001(2)
C9 0.005(3) 0.016(4) 0.020(4) -0.002(3) 0.003(3) 0.001(3)
C10 0.001(3) 0.019(4) 0.037(5) 0.000(4) 0.000(3) 0.003(3)
C11 0.003(3) 0.019(4) 0.036(5) 0.001(4) 0.003(3) -0.003(3)
C12 0.008(2) 0.017(3) 0.019(3) 0.001(2) 0.003(2) -0.002(2)
C13 0.006(2) 0.015(3) 0.016(3) 0.000(2) 0.002(2) 0.000(2)
C14 0.005(3) 0.012(4) 0.033(5) 0.001(3) 0.003(3) -0.001(3)
C15 0.003(3) 0.023(4) 0.032(5) 0.004(4) 0.008(3) -0.003(3)
C16 0.006(2) 0.014(3) 0.019(3) 0.002(2) 0.002(2) -0.004(2)
C17 0.009(3) 0.017(4) 0.032(5) 0.007(4) 0.003(3) 0.000(3)
C18 0.01 0.023 0.018 0.002 0.004 -0.002
C19 0.002 0.024 0.031 0.004 0.002 -0.001
C20 0.004(3) 0.019(4) 0.031(5) 0.002(3) 0.006(3) -0.001(3)
C21 0.007(3) 0.022(4) 0.027(5) -0.004(4) 0.012(3) -0.004(3)
C22 0.004(3) 0.028(4) 0.025(5) 0.000(4) 0.001(3) -0.001(3)
C23 0.004(3) 0.016(4) 0.020(4) 0.008(3) 0.001(3) -0.004(3)
C24 0.011(2) 0.019(3) 0.019(3) -0.002(2) 0.002(2) 0.005(2)
C25 0.002(3) 0.017(4) 0.044(5) -0.001(4) 0.006(3) 0.002(3)
C26 0.005(3) 0.012(4) 0.027(4) 0.004(3) 0.002(3) -0.002(3)
C27 0.008(2) 0.018(3) 0.018(3) 0.000(2) 0.003(2) 0.001(2)
C28 0.004 0.026 0.032 -0.003 0.005 -0.005
C29 0.002 0.018 0.027 0.004 0.004 -0.001
C30 0.003(3) 0.023(4) 0.028(5) 0.006(4) 0.000(3) -0.003(3)
Cu1C 0.0045 0.0142 0.0302 -0.001 0.0078 -0.0007
Cu2C 0.0026 0.0153 0.0315 0.0002 -0.0006 -0.0009
N2C 0.0045 0.015 0.017 -0.003 0.0025 0.0042
N4C 0.001 0.021 0.026 -0.004 0 0.002
O9 0.022(3) 0.041(4) 0.045(4) 0.006(3) -0.002(3) -0.003(3)
O10 0.026(3) 0.031(3) 0.037(4) -0.009(3) 0.011(3) 0.000(2)
O11 0.009(2) 0.030(3) 0.042(4) -0.010(3) -0.001(2) 0.008(2)
N5 0.007(3) 0.037(4) 0.021(4) -0.001(4) 0.001(3) 0.000(3)
O12 0.008(2) 0.041(4) 0.049(4) 0.014(3) -0.005(2) -0.006(2)
O13 0.013(3) 0.044(4) 0.052(4) -0.019(3) -0.011(3) 0.002(3)
O14 0.007(2) 0.045(4) 0.055(4) -0.020(3) 0.008(2) -0.003(2)
N6 0.007(3) 0.037(4) 0.036(5) -0.004(4) 0.011(3) -0.003(3)
O15 0.004(2) 0.034(3) 0.044(4) -0.005(3) 0.003(2) -0.001(2)
O16 0.013(3) 0.039(4) 0.055(4) -0.012(3) 0.003(3) -0.013(2)
O17 0.021(3) 0.037(4) 0.049(4) -0.005(3) 0.000(3) -0.004(3)
O18 0.018(3) 0.042(4) 0.035(4) 0.002(3) -0.002(2) 0.007(2)
loop_
_geom_bond_atom_site_label_1
_geom_bond_atom_site_label_2
_geom_bond_site_symmetry_1
_geom_bond_site_symmetry_2
Cu1 O1 1_555 1_555
Cu2 O5 1_555 1_555
O1 C2 1_555 1_555
O2 Cu1 1_555 1_555
H1 O2 1_555 1_555
H2 O2 1_555 1_555
O3 Cu1 1_555 1_555
O4 Cu1 1_555 1_555
H3 O4 1_555 1_555
H4 O4 1_555 1_555
O5 C7 1_555 1_555
O6 Cu2 1_555 1_555
H5 O6 1_555 1_555
H6 O6 1_555 1_555
O7 Cu2 1_555 1_555
O8 Cu2 1_555 1_555
H7 O8 1_555 1_555
H8 O8 1_555 1_555
N1 Cu1 1_555 1_555
N2 C18 1_555 1_555
N3 Cu2 1_555 1_555
N4 C28 1_555 1_555
C1 H9 1_555 1_555
H10 C1 1_555 1_555
H11 C1 1_555 1_555
C2 C1 1_555 1_555
C3 C2 1_555 1_555
C4 O3 1_555 1_555
C5 C4 1_555 1_555
H12 C5 1_555 1_555
H13 C5 1_555 1_555
H14 C5 1_555 1_555
C6 H15 1_555 1_555
H16 C6 1_555 1_555
H17 C6 1_555 1_555
C7 C6 1_555 1_555
C8 C3 1_555 1_555
C9 O7 1_555 1_555
C10 C9 1_555 1_555
H18 C10 1_555 1_555
H19 C10 1_555 1_555
H20 C10 1_555 1_555
C11 N1 1_555 1_555
H21 C11 1_555 1_555
C12 C11 1_555 1_555
H22 C12 1_555 1_555
C13 C12 1_555 1_555
C14 C13 1_555 1_555
H23 C14 1_555 1_555
C15 N1 1_555 1_555
H24 C15 1_555 1_555
C16 C13 1_555 1_555
C17 C16 1_555 1_555
H25 C17 1_555 1_555
C18 C17 1_555 1_555
H26 C18 1_555 1_555
C19 N2 1_555 1_555
H27 C19 1_555 1_555
C20 C16 1_555 1_555
H28 C20 1_555 1_555
C21 N3 1_555 1_555
H29 C21 1_555 1_555
C22 C21 1_555 1_555
H30 C22 1_555 1_555
C23 C22 1_555 1_555
C24 C23 1_555 1_555
H31 C24 1_555 1_555
C25 N3 1_555 1_555
H32 C25 1_555 1_555
C26 C23 1_555 1_555
C27 C26 1_555 1_555
H33 C27 1_555 1_555
C28 C27 1_555 1_555
H34 C28 1_555 1_555
C29 N4 1_555 1_555
H35 C29 1_555 1_555
C30 C26 1_555 1_555
H36 C30 1_555 1_555
O9 N5 1_555 1_555
O10 N5 1_555 1_555
O11 N5 1_555 1_555
O12 N6 1_555 1_555
O13 N6 1_555 1_555
O14 N6 1_555 1_555
O15 H37 1_555 1_555
H38 O15 1_555 1_555
O16 H39 1_555 1_555
H40 O16 1_555 1_555
O17 H41 1_555 1_555
H42 O17 1_555 1_555
O18 H43 1_555 1_555
H44 O18 1_555 1_555
Cu1C N2 1_555 1_555
Cu2C N4 1_555 1_555
N2C Cu1 1_555 1_555
N4C Cu2 1_555 1_555
C3 C4 1_555 1_555
C7 C8 1_555 1_555
C8 C9 1_555 1_555
C14 C15 1_555 1_555
C19 C20 1_555 1_555
C24 C25 1_555 1_555
C29 C30 1_555 1_555

#END
