
#######################################################################
#
#                 Cambridge Crystallographic Data Centre
#                                CCDC 
#
#######################################################################
#
# If this CIF has been generated from an entry in the Cambridge 
# Structural Database, then it will include bibliographic, chemical, 
# crystal, experimental, refinement or atomic coordinate data resulting 
# from the CCDC's data processing and validation procedures.
#
#######################################################################

data_FIVYEP
_chemical_formula_moiety         '(C14 H14 K2 Mg2 O35 U2)n'
_symmetry_cell_setting           monoclinic
_symmetry_space_group_name_H-M   'C 2/m'
_symmetry_Int_Tables_number      12
_space_group_name_Hall           '-C 2y'
loop_
_symmetry_equiv_pos_site_id
_symmetry_equiv_pos_as_xyz
1 x,y,z
2 1/2+x,1/2+y,z
3 -x,y,-z
4 1/2-x,1/2+y,-z
5 -x,-y,-z
6 1/2-x,1/2-y,-z
7 x,-y,z
8 1/2+x,1/2-y,z
_cell_length_a                   20.437(3)
_cell_length_b                   12.841(4)
_cell_length_c                   14.614(5)
_cell_angle_alpha                90
_cell_angle_beta                 94.52(6)
_cell_angle_gamma                90
_cell_volume                     3823.25
loop_
_atom_site_label
_atom_site_type_symbol
_atom_site_fract_x
_atom_site_fract_y
_atom_site_fract_z
O1 O 0.0661 0.1246 -0.0080
H1 H 0.0985 0.1004 -0.0526
H2 H 0.0471 0.0619 -0.0114
O2 O 0.0391 0.3630 -0.0631
H3 H 0.008(2) 0.368(14) -0.114(5)
H4 H 0.0799 0.3982 -0.1113
O3 O 0.1078(11) 0.372(4) 0.247(4)
H5 H 0.1079 0.4308 0.2976
H6 H 0.1397 0.4162 0.2138
O4 O 0.120(3) 0.5000 0.047(5)
H7 H 0.0893 0.4634 0.0121
H7F H 0.0893 0.5366 0.0121
O5 O 0.1110(3) 0.1563(7) 0.1686(5)
H8 H 0.1067 0.0821 0.1787
H9 H 0.138(10) 0.143(3) 0.121(11)
C1 C -0.2840(4) -0.2317(7) 0.0139(6)
C2 C -0.2166(5) -0.1690(8) -0.3716(7)
C3 C -0.2879(5) -0.1472(8) -0.4094(7)
C4 C 0.0860(5) -0.1405(10) -0.3529(8)
C5 C 0.0448(5) -0.1778(9) -0.2761(8)
O6 O -0.0149(4) -0.1617(10) -0.2827(8)
O7 O 0.0589(5) -0.1163(13) -0.4283(8)
K1 K -0.06128(16) 0.0000 -0.4090(2)
O8 O -0.3012(4) -0.1258(9) -0.4911(6)
O9 O -0.1701(4) -0.1332(7) -0.4109(6)
K2 K -0.21228(19) 0.0000 -0.5650(2)
U1 U -0.305290(13) -0.25111(2) -0.210960(19)
O10 O -0.3735(3) -0.0875(6) -0.1902(6)
O11 O -0.3274(3) -0.2161(6) -0.0498(5)
O12 O -0.2899(4) -0.2202(7) 0.0979(5)
O13 O -0.2388(4) -0.4132(5) -0.2412(5)
C6 C -0.3119(6) -0.5000 -0.1487(9)
O14 O -0.2434(3) -0.0868(5) -0.1695(6)
O15 O -0.2127(4) -0.2249(7) -0.2999(5)
C7 C -0.3460(6) 0.0000 -0.1862(9)
O16 O 0.0773(4) -0.2239(7) -0.2104(6)
C8 C -0.2708(7) -0.0000 -0.1738(9)
O17 O -0.3286(4) -0.1544(7) -0.3479(6)
C9 C -0.2581(6) -0.5000 -0.2159(9)
O18 O -0.3321(4) -0.4129(6) -0.1247(5)
O19 O 0.1474(4) -0.1387(7) -0.3301(5)
Mg1 Mg -0.0781(3) -0.2909(5) -0.4332(5)
O20 O 0.0398(8) -0.3924(14) -0.4010(19)
H10 H 0.024(6) -0.420(12) -0.350(6)
H11 H 0.082(4) -0.370(18) -0.390(10)
C1E C -0.2160(4) -0.2683(7) -0.0139(6)
O11E O -0.1726(3) -0.2839(6) 0.0498(5)
O12E O -0.2101(4) -0.2798(7) -0.0979(5)
O10F O -0.3735(3) 0.0875(6) -0.1902(6)
O14F O -0.2434(3) 0.0868(5) -0.1695(6)
O13F O -0.2388(4) -0.5868(5) -0.2412(5)
O18F O -0.3321(4) -0.5871(6) -0.1247(5)
C4B C -0.0860(5) -0.1405(10) -0.6471(8)
C5B C -0.0448(5) -0.1778(9) -0.7239(8)
O6B O 0.0149(4) -0.1617(10) -0.7173(8)
O7B O -0.0589(5) -0.1163(13) -0.5717(8)
O16B O -0.0773(4) -0.2239(7) -0.7896(6)
O19B O -0.1474(4) -0.1387(7) -0.6699(5)
C2F C -0.2166(5) 0.1690(8) -0.3716(7)
C3F C -0.2879(5) 0.1472(8) -0.4094(7)
O8F O -0.3012(4) 0.1258(9) -0.4911(6)
O9F O -0.1701(4) 0.1332(7) -0.4109(6)
U1F U -0.305290(13) 0.25111(2) -0.210960(19)
O15F O -0.2127(4) 0.2249(7) -0.2999(5)
O17F O -0.3286(4) 0.1544(7) -0.3479(6)
Mg1F Mg -0.0781(3) 0.2909(5) -0.4332(5)
O20F O 0.0398(8) 0.3924(14) -0.4010(19)
H10F H 0.024(6) 0.420(12) -0.350(6)
H11F H 0.082(4) 0.370(18) -0.390(10)
O6F O -0.0149(4) 0.1617(10) -0.2827(8)
O7D O -0.0589(5) 0.1163(13) -0.5717(8)
O7F O 0.0589(5) 0.1163(13) -0.4283(8)
K1B K 0.06128(16) -0.0000 -0.5910(2)
K2B K 0.21228(19) -0.0000 -0.4350(2)
K2C K -0.28772(19) -0.5000 -0.4350(2)
U1E U -0.194710(13) -0.24889(2) -0.789040(19)
U1E_2 U -0.194710(13) -0.24889(2) 0.210960(19)
U1F_2 U -0.305290(13) -0.74889(2) -0.210960(19)
U1G U 0.194710(13) -0.24889(2) -0.210960(19)
O11F O -0.3274(3) 0.2161(6) -0.0498(5)
O12C O -0.2101(4) 0.2798(7) -0.0979(5)
O13C O -0.2612(4) 0.0868(5) -0.7588(5)
O13E O -0.2612(4) -0.0868(5) -0.7588(5)
O13F_2 O -0.2388(4) 0.4132(5) -0.2412(5)
O16A O -0.4227(4) 0.2761(7) -0.2104(6)
O16G O -0.4227(4) -0.2761(7) -0.2104(6)
O18F_2 O -0.3321(4) 0.4129(6) -0.1247(5)
O19A O -0.3526(4) 0.3613(7) -0.3301(5)
O19D O -0.1474(4) 0.1387(7) -0.6699(5)
O19G O -0.3526(4) -0.3613(7) -0.3301(5)
loop_
_geom_bond_atom_site_label_1
_geom_bond_atom_site_label_2
_geom_bond_site_symmetry_1
_geom_bond_site_symmetry_2
O1 H1 1_555 1_555
H2 O1 1_555 1_555
O2 H3 1_555 1_555
H4 O2 1_555 1_555
O3 H5 1_555 1_555
H6 O3 1_555 1_555
O4 H7 1_555 1_555
O5 H8 1_555 1_555
H9 O5 1_555 1_555
C1 O11 1_555 1_555
C2 C3 1_555 1_555
C3 O8 1_555 1_555
C4 C5 1_555 1_555
C5 O6 1_555 1_555
O6 K1 1_555 1_555
O7 C4 1_555 1_555
K1 O7 1_555 1_555
O8 K2 1_555 1_555
O9 C2 1_555 1_555
K2 O9 1_555 1_555
U1 O10 1_555 1_555
O10 C7 1_555 1_555
O11 U1 1_555 1_555
O12 C1 1_555 1_555
O13 U1 1_555 1_555
C6 C9 1_555 1_555
O14 U1 1_555 1_555
O15 C2 1_555 1_555
C7 C8 1_555 1_555
O16 C5 1_555 1_555
C8 O14 1_555 1_555
O17 C3 1_555 1_555
C9 O13 1_555 1_555
O18 U1 1_555 1_555
O19 C4 1_555 1_555
Mg1 O9 1_555 1_555
O20 Mg1 1_555 1_555
H10 O20 1_555 1_555
H11 O20 1_555 1_555
H7F O4 1_555 1_555
C1E C1 1_555 1_555
O11E C1E 1_555 1_555
O12E U1 1_555 1_555
O10F C7 1_555 1_555
O14F C8 1_555 1_555
O13F C9 1_555 1_555
O18F C6 1_555 1_555
C4B C5B 1_555 1_555
C5B O6B 1_555 1_555
O6B K1B 1_555 1_555
O7B K1 1_555 1_555
O16B C5B 1_555 1_555
O19B K2 1_555 1_555
C2F C3F 1_555 1_555
C3F O8F 1_555 1_555
O8F K2 1_555 1_555
O9F K1 1_555 1_555
U1F O10F 1_555 1_555
O15F C2F 1_555 1_555
O17F C3F 1_555 1_555
Mg1F O9F 1_555 1_555
O20F Mg1F 1_555 1_555
H10F O20F 1_555 1_555
H11F O20F 1_555 1_555
O6F K1 1_555 1_555
O7D K1 1_555 1_555
O7F K1 1_555 1_555
K1B O7 1_555 1_555
K2B O19 1_555 1_555
K2C O13 1_555 1_555
U1E O16B 1_555 1_555
U1E_2 O12 1_555 1_555
U1F_2 O13F 1_555 1_555
U1G O16 1_555 1_555
O11F U1F 1_555 1_555
O12C U1F 1_555 1_555
O13C K2 1_555 1_555
O13E K2 1_555 1_555
O13F_2 U1F 1_555 1_555
O16A U1F 1_555 1_555
O16G U1 1_555 1_555
O18F_2 U1F 1_555 1_555
O19A U1F 1_555 1_555
O19D K2 1_555 1_555
O19G U1 1_555 1_555
K1 O9 1_555 1_555
K2 O9F 1_555 1_555
U1 O15 1_555 1_555
U1 O17 1_555 1_555
C6 O18 1_555 1_555
O19 U1G 1_555 1_555
C1E O12E 1_555 1_555
O11E U1E_2 1_555 1_555
O14F U1F 1_555 1_555
O13F K2C 1_555 1_555
O18F U1F_2 1_555 1_555
C4B O7B 1_555 1_555
C4B O19B 1_555 1_555
O7B K1B 1_555 1_555
O19B U1E 1_555 1_555
C2F O9F 1_555 1_555
U1F O15F 1_555 1_555
U1F O17F 1_555 1_555
O7D K1B 1_555 1_555
O7F K1B 1_555 1_555
K2C O19G 1_555 1_555
U1E O13E 1_555 1_555

#END
