
#######################################################################
#
#                 Cambridge Crystallographic Data Centre
#                                CCDC 
#
#######################################################################
#
# If this CIF has been generated from an entry in the Cambridge 
# Structural Database, then it will include bibliographic, chemical, 
# crystal, experimental, refinement or atomic coordinate data resulting 
# from the CCDC's data processing and validation procedures.
#
#######################################################################

data_LUWMUN
_chemical_formula_moiety         '(C21 H15 O8 Sm1)n'
_symmetry_cell_setting           monoclinic
_symmetry_space_group_name_H-M   'C 2/c'
_symmetry_Int_Tables_number      15
_space_group_name_Hall           '-C 2yc'
loop_
_symmetry_equiv_pos_site_id
_symmetry_equiv_pos_as_xyz
1 x,y,z
2 -x,y,1/2-z
3 1/2+x,1/2+y,z
4 1/2-x,1/2+y,1/2-z
5 -x,-y,-z
6 x,-y,1/2+z
7 1/2-x,1/2-y,-z
8 1/2+x,1/2-y,1/2+z
_cell_length_a                   28.568(5)
_cell_length_b                   20.467(5)
_cell_length_c                   18.171(5)
_cell_angle_alpha                90
_cell_angle_beta                 104.043(5)
_cell_angle_gamma                90
_cell_volume                     10307.1
loop_
_atom_site_label
_atom_site_type_symbol
_atom_site_fract_x
_atom_site_fract_y
_atom_site_fract_z
_atom_site_U_iso_or_equiv
_atom_site_thermal_displace_type
Sm1 Sm 0.685391(3) 0.779363(4) 1.017078(5) 0.0373 Uani
C1 C 0.41149(7) 0.74042(11) 0.54637(12) 0.0542 Uani
C2 C 0.46094(7) 0.71546(10) 0.58623(13) 0.0574 Uani
C3 C 0.49439(18) 0.7558(3) 0.6300(4) 0.0721 Uani
H1 H 0.4863 0.7991 0.6364 0.0870 Uiso
C4 C 0.54046(18) 0.7333(3) 0.6655(4) 0.0740 Uani
H2 H 0.5629 0.7622 0.6939 0.0890 Uiso
C5 C 0.55313(7) 0.66943(11) 0.65912(12) 0.0613 Uani
C6 C 0.51868(17) 0.6271(3) 0.6177(4) 0.0899 Uani
H3 H 0.5263 0.5833 0.6136 0.1080 Uiso
C7 C 0.47291(16) 0.6496(2) 0.5822(4) 0.0847 Uani
H4 H 0.4500 0.6205 0.5555 0.1020 Uiso
C8 C 0.70402(6) 0.68960(10) 0.86725(11) 0.0486 Uani
C9 C 0.67616(6) 0.65632(9) 0.79486(11) 0.0479 Uani
C10 C 0.62920(6) 0.67555(9) 0.76266(11) 0.0527 Uani
H5 H 0.6152 0.7085 0.7854 0.0630 Uiso
C11 C 0.60262(6) 0.64609(10) 0.69638(12) 0.0575 Uani
C12 C 0.62447(7) 0.59592(11) 0.66524(12) 0.0639 Uani
H6 H 0.6072 0.5756 0.6212 0.0770 Uiso
C13 C 0.67139(6) 0.57504(10) 0.69784(12) 0.0569 Uani
C14 C 0.69694(6) 0.60690(10) 0.76248(11) 0.0548 Uani
H7 H 0.7286 0.5947 0.7843 0.0660 Uiso
C15 C 0.75903(7) 0.36515(9) 0.56411(11) 0.0509 Uani
C16 C 0.73562(7) 0.41878(9) 0.59937(12) 0.0534 Uani
C17 C 0.76288(7) 0.47192(10) 0.63198(14) 0.0717 Uani
H8 H 0.7954 0.4740 0.6323 0.0860 Uiso
C18 C 0.74204(7) 0.52193(11) 0.66407(15) 0.0743 Uani
H9 H 0.7610 0.5569 0.6866 0.0890 Uiso
C19 C 0.69339(7) 0.52104(10) 0.66333(12) 0.0596 Uani
C20 C 0.66665(7) 0.46797(11) 0.63008(14) 0.0720 Uani
H10 H 0.6340 0.4661 0.6291 0.0860 Uiso
C21 C 0.68722(7) 0.41732(10) 0.59811(14) 0.0668 Uani
H11 H 0.6683 0.3823 0.5758 0.0800 Uiso
O1 O 0.65145(7) 0.87344(11) 1.07104(12) 0.1067 Uani
H12 H 0.6480 0.9044 1.0411 0.1280 Uiso
H13 H 0.6253 0.8622 1.0812 0.1280 Uiso
O2 O 0.67525(9) 0.74706(13) 1.14416(12) 0.1209 Uani
H14 H 0.6853 0.7135 1.1547 0.1450 Uiso
H15 H 0.6922 0.7778 1.1792 0.1450 Uiso
O3 O 0.68140(5) 0.72953(7) 0.89674(8) 0.0556 Uani
O4 O 0.74786(4) 0.67501(7) 0.89013(8) 0.0576 Uani
O5 O 0.80063(5) 0.37349(7) 0.55639(9) 0.0613 Uani
O6 O 0.73585(5) 0.31367(6) 0.54277(8) 0.0543 Uani
O7 O 0.39879(5) 0.79597(7) 0.56117(9) 0.0629 Uani
O8 O 0.38413(5) 0.70388(9) 0.50054(11) 0.0852 Uani
Sm1A Sm 0.314609(3) 0.779363(4) 0.482922(5) 0.0373 Uani
Sm1C Sm 0.814609(3) 0.279363(4) 0.482922(5) 0.0373 Uani
Sm1E Sm 0.685391(3) 0.220637(4) 0.517078(5) 0.0373 Uani
Sm1F Sm 0.814609(3) 0.720637(4) 0.982922(5) 0.0373 Uani
O4F O 0.75214(4) 0.82499(7) 1.10987(8) 0.0576 Uani
O5C O 0.69937(5) 0.87349(7) 0.94361(9) 0.0613 Uani
O6C O 0.76415(5) 0.81367(6) 0.95723(8) 0.0543 Uani
O6E O 0.73585(5) 0.68633(6) 1.04277(8) 0.0543 Uani
O7A O 0.60121(5) 0.79597(7) 0.93883(9) 0.0629 Uani
O8A O 0.61587(5) 0.70388(9) 0.99946(11) 0.0852 Uani
loop_
_atom_site_aniso_label
_atom_site_aniso_U_11
_atom_site_aniso_U_22
_atom_site_aniso_U_33
_atom_site_aniso_U_23
_atom_site_aniso_U_13
_atom_site_aniso_U_12
Sm1 0.02433(5) 0.04148(6) 0.04217(6) -0.00143(4) 0.00029(3) -0.00554(3)
C1 0.0286(9) 0.0676(13) 0.0606(13) -0.0074(10) -0.0007(8) 0.0084(9)
C2 0.0303(9) 0.0688(14) 0.0642(13) -0.0153(10) -0.0057(9) 0.0142(9)
C3 0.048(2) 0.061(3) 0.091(4) -0.024(3) -0.015(2) 0.018(2)
C4 0.039(2) 0.072(3) 0.094(4) -0.033(3) -0.017(2) 0.0148(19)
C5 0.0335(9) 0.0695(13) 0.0679(13) -0.0282(11) -0.0130(9) 0.0147(9)
C6 0.048(2) 0.068(3) 0.124(5) -0.044(3) -0.037(3) 0.023(2)
C7 0.039(2) 0.076(3) 0.115(5) -0.037(3) -0.028(2) 0.0125(18)
C8 0.0353(9) 0.0529(11) 0.0493(11) -0.0139(9) -0.0056(8) -0.0020(8)
C9 0.0317(8) 0.0513(10) 0.0514(11) -0.0148(8) -0.0078(7) 0.0029(8)
C10 0.0351(9) 0.0556(11) 0.0582(12) -0.0219(9) -0.0065(8) 0.0088(8)
C11 0.0320(9) 0.0619(12) 0.0662(13) -0.0248(10) -0.0121(8) 0.0140(8)
C12 0.0377(10) 0.0689(13) 0.0703(14) -0.0333(11) -0.0157(9) 0.0135(9)
C13 0.0338(9) 0.0554(11) 0.0712(13) -0.0267(10) -0.0075(9) 0.0104(8)
C14 0.0294(8) 0.0570(11) 0.0663(13) -0.0197(10) -0.0108(8) 0.0094(8)
C15 0.0453(10) 0.0410(10) 0.0581(12) -0.0098(8) -0.0037(9) 0.0079(8)
C16 0.0375(9) 0.0484(11) 0.0658(13) -0.0175(9) -0.0038(9) 0.0066(8)
C17 0.0369(10) 0.0593(13) 0.1138(19) -0.0377(13) 0.0084(11) -0.0010(9)
C18 0.0405(11) 0.0622(13) 0.1116(19) -0.0449(13) 0.0019(11) 0.0000(10)
C19 0.0365(9) 0.0586(12) 0.0723(14) -0.0277(10) -0.0089(9) 0.0124(9)
C20 0.0318(10) 0.0697(14) 0.1051(19) -0.0368(13) -0.0018(11) 0.0038(9)
C21 0.0358(10) 0.0527(12) 0.1025(18) -0.0346(12) -0.0012(10) 0.0005(9)
O1 0.0759(12) 0.1323(17) 0.1063(15) -0.0384(13) 0.0112(11) 0.0239(12)
O2 0.150(2) 0.1349(18) 0.0877(16) -0.0030(15) 0.0478(15) -0.0471(18)
O3 0.0403(7) 0.0655(9) 0.0518(8) -0.0239(6) -0.0064(6) 0.0062(6)
O4 0.0317(6) 0.0717(9) 0.0586(8) -0.0197(7) -0.0100(6) 0.0028(6)
O5 0.0433(8) 0.0502(8) 0.0887(11) -0.0192(7) 0.0128(7) 0.0050(6)
O6 0.0513(8) 0.0402(7) 0.0646(9) -0.0138(6) 0.0006(6) 0.0029(6)
O7 0.0333(7) 0.0571(8) 0.0872(11) -0.0036(8) -0.0071(7) 0.0087(6)
O8 0.0390(8) 0.0948(12) 0.1006(13) -0.0443(10) -0.0240(8) 0.0287(8)
Sm1A 0.02433 0.04148 0.04217 0.00143 0.00029 0.00554
Sm1C 0.02433 0.04148 0.04217 0.00143 0.00029 0.00554
Sm1E 0.02433 0.04148 0.04217 0.00143 0.00029 0.00554
Sm1F 0.02433 0.04148 0.04217 -0.00143 0.00029 -0.00554
O4F 0.0317 0.0717 0.0586 -0.0197 -0.01 0.0028
O5C 0.0433 0.0502 0.0887 0.0192 0.0128 -0.005
O6C 0.0513 0.0402 0.0646 0.0138 0.0006 -0.0029
O6E 0.0513 0.0402 0.0646 0.0138 0.0006 -0.0029
O7A 0.0333 0.0571 0.0872 0.0036 -0.0071 -0.0087
O8A 0.039 0.0948 0.1006 0.0443 -0.024 -0.0287
loop_
_geom_bond_atom_site_label_1
_geom_bond_atom_site_label_2
_geom_bond_site_symmetry_1
_geom_bond_site_symmetry_2
Sm1 O1 1_555 1_555
C1 C2 1_555 1_555
C2 C3 1_555 1_555
C3 H1 1_555 1_555
C4 C3 1_555 1_555
H2 C4 1_555 1_555
C5 C4 1_555 1_555
C6 C5 1_555 1_555
H3 C6 1_555 1_555
C7 C2 1_555 1_555
H4 C7 1_555 1_555
C8 C9 1_555 1_555
C9 C10 1_555 1_555
C10 H5 1_555 1_555
C11 C5 1_555 1_555
C12 C11 1_555 1_555
H6 C12 1_555 1_555
C13 C12 1_555 1_555
C14 C9 1_555 1_555
H7 C14 1_555 1_555
C15 C16 1_555 1_555
C16 C17 1_555 1_555
C17 H8 1_555 1_555
C18 C17 1_555 1_555
H9 C18 1_555 1_555
C19 C13 1_555 1_555
C20 C19 1_555 1_555
H10 C20 1_555 1_555
C21 C16 1_555 1_555
H11 C21 1_555 1_555
O1 H12 1_555 1_555
H13 O1 1_555 1_555
O2 Sm1 1_555 1_555
H14 O2 1_555 1_555
H15 O2 1_555 1_555
O3 Sm1 1_555 1_555
O4 C8 1_555 1_555
O5 C15 1_555 1_555
O6 C15 1_555 1_555
O7 C1 1_555 1_555
O8 C1 1_555 1_555
Sm1A O7 1_555 1_555
Sm1C O5 1_555 1_555
Sm1E O6 1_555 1_555
Sm1F O4 1_555 1_555
O4F Sm1 1_555 1_555
O5C Sm1 1_555 1_555
O6C Sm1 1_555 1_555
O6E Sm1 1_555 1_555
O7A Sm1 1_555 1_555
O8A Sm1 1_555 1_555
C6 C7 1_555 1_555
C8 O3 1_555 1_555
C10 C11 1_555 1_555
C13 C14 1_555 1_555
C18 C19 1_555 1_555
C20 C21 1_555 1_555
O6 Sm1C 1_555 1_555
O8 Sm1A 1_555 1_555
Sm1F O6C 1_555 1_555
Sm1F O6E 1_555 1_555

#END
