
#######################################################################
#
#                 Cambridge Crystallographic Data Centre
#                                CCDC 
#
#######################################################################
#
# If this CIF has been generated from an entry in the Cambridge 
# Structural Database, then it will include bibliographic, chemical, 
# crystal, experimental, refinement or atomic coordinate data resulting 
# from the CCDC's data processing and validation procedures.
#
#######################################################################

data_LUWMIB
_chemical_formula_moiety         '(C18 H16 Ce1 N1 O8)n'
_symmetry_cell_setting           monoclinic
_symmetry_space_group_name_H-M   'C 2/c'
_symmetry_Int_Tables_number      15
_space_group_name_Hall           '-C 2yc'
loop_
_symmetry_equiv_pos_site_id
_symmetry_equiv_pos_as_xyz
1 x,y,z
2 -x,y,1/2-z
3 1/2+x,1/2+y,z
4 1/2-x,1/2+y,1/2-z
5 -x,-y,-z
6 x,-y,1/2+z
7 1/2-x,1/2-y,-z
8 1/2+x,1/2-y,1/2+z
_cell_length_a                   24.591(5)
_cell_length_b                   13.804(5)
_cell_length_c                   14.752(5)
_cell_angle_alpha                90
_cell_angle_beta                 97.135(5)
_cell_angle_gamma                90
_cell_volume                     4968.85
loop_
_atom_site_label
_atom_site_type_symbol
_atom_site_fract_x
_atom_site_fract_y
_atom_site_fract_z
_atom_site_U_iso_or_equiv
_atom_site_thermal_displace_type
Ce1 Ce 1.169058(6) 0.211311(11) 0.470515(10) 0.0263 Uani
O1 O 1.08331(10) 0.19207(18) 0.5477(2) 0.0640 Uani
O2 O 1.09818(9) 0.33939(18) 0.50276(18) 0.0553 Uani
O3 O 1.12411(16) 0.2731(3) 0.3204(2) 0.0961 Uani
O4 O 1.11705(15) 0.0691(3) 0.3947(3) 0.1116 Uani
O5 O 1.27416(8) 0.14510(14) 0.54327(14) 0.0390 Uani
O6 O 1.19978(8) 0.06529(15) 0.56730(16) 0.0450 Uani
O7 O 1.22329(8) 0.14813(18) 0.34954(15) 0.0488 Uani
O8 O 1.19820(9) 0.27110(16) 0.62413(15) 0.0408 Uani
C1 C 1.1399(5) 0.3047(7) 0.2549(5) 0.1980 Uani
H1 H 1.1387 0.0350 0.3672 0.1680 Uiso
H2 H 1.1045 0.0349 0.4353 0.1680 Uiso
C2 C 1.24966(12) 0.4246(2) 0.42165(19) 0.0335 Uani
H3 H 1.1775 0.2995 0.2528 0.2370 Uiso
N1 N 1.1114(4) 0.3475(7) 0.1823(4) 0.1946 Uani
C3 C 1.21510(11) 0.4980(2) 0.3653(2) 0.0329 Uani
C4 C 1.0536(5) 0.3469(13) 0.1796(8) 0.2875 Uani
C5 C 1.1381(7) 0.3981(9) 0.1109(6) 0.3143 Uani
C6 C 1.16221(12) 0.5185(2) 0.3822(2) 0.0359 Uani
C7 C 1.23778(11) 0.5484(2) 0.2969(2) 0.0354 Uani
H4 H 1.0423 0.2877 0.2058 0.3450 Uiso
H5 H 1.0370 0.3516 0.1173 0.3450 Uiso
H6 H 1.0424 0.4010 0.2137 0.3450 Uiso
H7 H 1.1297 0.4660 0.1118 0.3790 Uiso
H8 H 1.1249 0.3718 0.0520 0.3790 Uiso
H9 H 1.1771 0.3893 0.1225 0.3790 Uiso
C8 C 1.13181(12) 0.5911(2) 0.3336(2) 0.0376 Uani
H10 H 1.1468 0.4835 0.4265 0.0430 Uiso
C9 C 1.20689(12) 0.6160(2) 0.2443(2) 0.0351 Uani
H11 H 1.2738 0.5364 0.2869 0.0430 Uiso
C10 C 1.07719(12) 0.6225(2) 0.3587(2) 0.0384 Uani
C11 C 1.15436(12) 0.6376(2) 0.2636(2) 0.0389 Uani
C12 C 1.22888(12) 0.6688(2) 0.1665(2) 0.0358 Uani
C13 C 1.04164(13) 0.5574(2) 0.3911(2) 0.0488 Uani
C14 C 1.06245(16) 0.7190(3) 0.3545(3) 0.0639 Uani
H12 H 1.1339 0.6843 0.2290 0.0470 Uiso
H13 H 1.0502 0.4918 0.3935 0.0580 Uiso
C15 C 0.99300(12) 0.5893(2) 0.4202(2) 0.0470 Uani
H14 H 1.0856 0.7638 0.3320 0.0770 Uiso
C16 C 1.01392(15) 0.7504(3) 0.3831(3) 0.0633 Uani
C17 C 0.97938(12) 0.6858(2) 0.4183(2) 0.0396 Uani
H15 H 0.9693 0.5445 0.4412 0.0570 Uiso
H16 H 1.0046 0.8156 0.3785 0.0750 Uiso
C18 C 0.92922(13) 0.7193(2) 0.4578(2) 0.0406 Uani
O5F O 1.22584(8) 0.35490(14) 0.45673(14) 0.0390 Uani
Ce1F Ce 1.330942(6) 0.288689(11) 0.529485(10) 0.0263 Uani
O6F O 1.30022(8) 0.43471(15) 0.43270(16) 0.0450 Uani
O8E O 1.19820(9) 0.72890(16) 0.12413(15) 0.0408 Uani
O7C O 1.27671(8) 0.64813(18) 0.15046(15) 0.0488 Uani
Ce1E Ce 1.169058(6) 0.788689(11) -0.029485(10) 0.0263 Uani
Ce1C Ce 1.330942(6) 0.711311(11) 0.029485(10) 0.0263 Uani
O1D O 0.91669(10) 0.80793(18) 0.4523(2) 0.0640 Uani
O2D O 0.90182(9) 0.66061(18) 0.49724(18) 0.0553 Uani
Ce1D Ce 0.830942(6) 0.788689(11) 0.529485(10) 0.0263 Uani
loop_
_atom_site_aniso_label
_atom_site_aniso_U_11
_atom_site_aniso_U_22
_atom_site_aniso_U_33
_atom_site_aniso_U_23
_atom_site_aniso_U_13
_atom_site_aniso_U_12
Ce1 0.01784(11) 0.03642(12) 0.02593(11) -0.00036(6) 0.00770(7) 0.00364(6)
O1 0.0379(14) 0.0517(15) 0.111(2) 0.0047(14) 0.0438(15) 0.0076(11)
O2 0.0397(13) 0.0579(15) 0.0759(17) 0.0225(13) 0.0377(12) 0.0184(11)
O3 0.107(3) 0.137(3) 0.0397(18) 0.0147(18) -0.0086(18) 0.048(2)
O4 0.096(3) 0.131(3) 0.110(3) -0.044(2) 0.022(2) -0.063(2)
O5 0.0373 0.0372 0.0459 0.0131 0.0188 0.0063
O6 0.0257 0.0451 0.0645 0.0153 0.0071 0.0045
O7 0.0298 0.0768 0.0433 -0.0214 0.019 -0.0065
O8 0.0399 0.0513 0.0337 -0.0144 0.0147 -0.0068
C1 0.242(11) 0.277(12) 0.067(5) 0.021(6) -0.013(6) 0.145(9)
C2 0.0317(16) 0.0373(16) 0.0342(16) 0.0040(12) 0.0151(12) 0.0065(12)
N1 0.202(8) 0.314(10) 0.060(3) 0.038(5) -0.015(4) 0.043(8)
C3 0.0270(15) 0.0376(16) 0.0365(16) 0.0080(13) 0.0131(12) 0.0064(12)
C4 0.146(9) 0.53(2) 0.180(11) 0.107(14) -0.006(8) 0.062(14)
C5 0.57(3) 0.271(14) 0.096(7) 0.044(8) 0.018(11) -0.001(16)
C6 0.0318(16) 0.0431(17) 0.0368(16) 0.0136(13) 0.0198(13) 0.0075(13)
C7 0.0244(14) 0.0464(17) 0.0387(16) 0.0084(13) 0.0168(12) 0.0056(12)
C8 0.0291(15) 0.0473(18) 0.0396(17) 0.0120(14) 0.0170(13) 0.0093(13)
C9 0.0286(15) 0.0470(18) 0.0322(16) 0.0101(13) 0.0135(12) 0.0042(13)
C10 0.0290(15) 0.0515(19) 0.0379(17) 0.0127(14) 0.0171(13) 0.0140(13)
C11 0.0293(15) 0.0507(18) 0.0392(17) 0.0146(14) 0.0145(13) 0.0108(13)
C12 0.0293(16) 0.0505(18) 0.0298(15) 0.0066(14) 0.0121(13) -0.0030(14)
C13 0.0380(18) 0.0482(19) 0.066(2) 0.0084(17) 0.0299(16) 0.0123(15)
C14 0.045(2) 0.057(2) 0.099(3) 0.032(2) 0.046(2) 0.0137(16)
C15 0.0322(17) 0.0495(19) 0.065(2) 0.0101(16) 0.0285(16) 0.0047(14)
C16 0.047(2) 0.051(2) 0.100(3) 0.025(2) 0.041(2) 0.0181(18)
C17 0.0257(16) 0.0533(19) 0.0426(18) 0.0088(15) 0.0153(13) 0.0099(13)
C18 0.0252(16) 0.053(2) 0.0458(19) 0.0052(15) 0.0129(14) 0.0083(13)
O5F 0.0373 0.0372 0.0459 0.0131 0.0188 0.0063
Ce1F 0.01784 0.03642 0.02593 -0.00036 0.0077 0.00364
O6F 0.0257(11) 0.0451(12) 0.0645(15) 0.0153(11) 0.0071(10) 0.0045(9)
O8E 0.0399(13) 0.0513(13) 0.0337(12) 0.0144(10) 0.0147(10) 0.0068(10)
O7C 0.0298(12) 0.0768(17) 0.0433(13) 0.0214(12) 0.0190(10) 0.0065(11)
Ce1E 0.01784 0.03642 0.02593 0.00036 0.0077 -0.00364
Ce1C 0.01784 0.03642 0.02593 0.00036 0.0077 -0.00364
O1D 0.0379(14) 0.0517(15) 0.111(2) 0.0047(14) 0.0438(15) 0.0076(11)
O2D 0.0397(13) 0.0579(15) 0.0759(17) 0.0225(13) 0.0377(12) 0.0184(11)
Ce1D 0.01784 0.03642 0.02593 -0.00036 0.0077 0.00364
loop_
_geom_bond_atom_site_label_1
_geom_bond_atom_site_label_2
_geom_bond_site_symmetry_1
_geom_bond_site_symmetry_2
Ce1 O1 1_555 1_555
O2 Ce1 1_555 1_555
O3 Ce1 1_555 1_555
O4 Ce1 1_555 1_555
O5 Ce1 1_555 1_555
O6 Ce1 1_555 1_555
O7 Ce1 1_555 1_555
O8 Ce1 1_555 1_555
C1 O3 1_555 1_555
H1 O4 1_555 1_555
H2 O4 1_555 1_555
C2 C3 1_555 1_555
H3 C1 1_555 1_555
N1 C1 1_555 1_555
C3 C6 1_555 1_555
C4 N1 1_555 1_555
C5 N1 1_555 1_555
C6 C8 1_555 1_555
C7 C3 1_555 1_555
H4 C4 1_555 1_555
H5 C4 1_555 1_555
H6 C4 1_555 1_555
H7 C5 1_555 1_555
H8 C5 1_555 1_555
H9 C5 1_555 1_555
C8 C10 1_555 1_555
H10 C6 1_555 1_555
C9 C7 1_555 1_555
H11 C7 1_555 1_555
C10 C13 1_555 1_555
C11 C8 1_555 1_555
C12 C9 1_555 1_555
C13 H13 1_555 1_555
C14 C10 1_555 1_555
H12 C11 1_555 1_555
C15 C13 1_555 1_555
H14 C14 1_555 1_555
C16 C14 1_555 1_555
C17 C15 1_555 1_555
H15 C15 1_555 1_555
H16 C16 1_555 1_555
C18 C17 1_555 1_555
O5F Ce1 1_555 1_555
Ce1F O5 1_555 1_555
O6F C2 1_555 1_555
O8E C12 1_555 1_555
O7C C12 1_555 1_555
Ce1E O8E 1_555 1_555
Ce1C O7C 1_555 1_555
O1D C18 1_555 1_555
O2D C18 1_555 1_555
Ce1D O1D 1_555 1_555
C2 O5F 1_555 1_555
C9 C11 1_555 1_555
C16 C17 1_555 1_555
O5F Ce1F 1_555 1_555
Ce1F O6F 1_555 1_555
O2D Ce1D 1_555 1_555

#END
