
#######################################################################
#
#                 Cambridge Crystallographic Data Centre
#                                CCDC 
#
#######################################################################
#
# If this CIF has been generated from an entry in the Cambridge 
# Structural Database, then it will include bibliographic, chemical, 
# crystal, experimental, refinement or atomic coordinate data resulting 
# from the CCDC's data processing and validation procedures.
#
#######################################################################

data_LUWMOH
_chemical_formula_moiety         '(C18 H16 N1 O8 Sm1)n'
_symmetry_cell_setting           monoclinic
_symmetry_space_group_name_H-M   'C 2/c'
_symmetry_Int_Tables_number      15
_space_group_name_Hall           '-C 2yc'
loop_
_symmetry_equiv_pos_site_id
_symmetry_equiv_pos_as_xyz
1 x,y,z
2 -x,y,1/2-z
3 1/2+x,1/2+y,z
4 1/2-x,1/2+y,1/2-z
5 -x,-y,-z
6 x,-y,1/2+z
7 1/2-x,1/2-y,-z
8 1/2+x,1/2-y,1/2+z
_cell_length_a                   24.585(3)
_cell_length_b                   13.1726(19)
_cell_length_c                   14.829(2)
_cell_angle_alpha                90
_cell_angle_beta                 96.419(2)
_cell_angle_gamma                90
_cell_volume                     4772.24
loop_
_atom_site_label
_atom_site_type_symbol
_atom_site_fract_x
_atom_site_fract_y
_atom_site_fract_z
_atom_site_U_iso_or_equiv
_atom_site_thermal_displace_type
Sm1 Sm 0.328275(5) 0.792400(9) 0.030055(8) 0.0220 Uani
C1 C 0.57377(11) 0.2713(2) 0.0414(2) 0.0325 Uani
C2 C 0.52319(11) 0.3042(2) 0.0812(2) 0.0314 Uani
C3 C 0.48898(12) 0.2353(2) 0.1164(2) 0.0438 Uani
H1 H 0.4989 0.1673 0.1208 0.0530 Uiso
C4 C 0.43999(13) 0.2665(2) 0.1451(2) 0.0441 Uani
H2 H 0.4174 0.2191 0.1688 0.0530 Uiso
C5 C 0.42409(10) 0.3675(2) 0.13912(18) 0.0305 Uani
C6 C 0.45947(11) 0.4369(2) 0.1070(2) 0.0386 Uani
H3 H 0.4502 0.5054 0.1041 0.0460 Uiso
C7 C 0.50867(11) 0.4051(2) 0.0789(2) 0.0392 Uani
H4 H 0.5322 0.4528 0.0582 0.0470 Uiso
C8 C 0.36936(10) 0.3994(2) 0.16287(18) 0.0300 Uani
C9 C 0.34707(11) 0.3527(2) 0.23498(18) 0.0304 Uani
H5 H 0.3677 0.3050 0.2702 0.0370 Uiso
C10 C 0.29453(10) 0.3763(2) 0.25501(17) 0.0279 Uani
C11 C 0.26314(10) 0.4453(2) 0.20127(18) 0.0294 Uani
H6 H 0.2273 0.4584 0.2120 0.0350 Uiso
C12 C 0.28541(10) 0.49502(19) 0.13125(17) 0.0273 Uani
C13 C 0.33858(10) 0.4734(2) 0.11347(18) 0.0299 Uani
H7 H 0.3537 0.5087 0.0681 0.0360 Uiso
C14 C 0.25120(10) 0.56990(19) 0.07461(17) 0.0273 Uani
C15 C 0.27310(11) 0.3259(2) 0.33492(18) 0.0287 Uani
C16 C 0.3549(4) 0.6939(7) 0.2402(5) 0.0755 Uani
H8 H 0.3172 0.6969 0.2417 0.0910 Uiso
C17 C 0.3617(4) 0.6053(8) 0.3855(5) 0.0949 Uani
H9 H 0.3226 0.6100 0.3737 0.1420 Uiso
H10 H 0.3738 0.6402 0.4410 0.1420 Uiso
H11 H 0.3722 0.5352 0.3910 0.1420 Uiso
C18 C 0.4454(6) 0.653(2) 0.3112(8) 0.0949 Uani
H12 H 0.4542 0.6880 0.2579 0.1420 Uiso
H13 H 0.4591 0.5846 0.3106 0.1420 Uiso
H14 H 0.4620 0.6874 0.3643 0.1420 Uiso
N1 N 0.3863(5) 0.6507(17) 0.3123(6) 0.0949 Uani
O1 O 0.58729(8) 0.17832(16) 0.04450(17) 0.0476 Uani
O2 O 0.60148(8) 0.33526(17) 0.00481(16) 0.0465 Uani
O3 O 0.27413(7) 0.64483(13) 0.04006(13) 0.0314 Uani
O4 O 0.20082(7) 0.55726(15) 0.06179(14) 0.0382 Uani
O5 O 0.22590(7) 0.34945(17) 0.35257(13) 0.0402 Uani
O6 O 0.30406(8) 0.26352(16) 0.37793(13) 0.0344 Uani
O7 O 0.37429(13) 0.7294(3) 0.17254(19) 0.0747 Uani
O8 O 0.37612(11) 0.9412(2) 0.10451(19) 0.0746 Uani
H15 H 0.3703 0.9934 0.0711 0.1120 Uiso
H16 H 0.3643 0.9517 0.1554 0.1120 Uiso
Sm1C Sm 0.171725(5) 0.292400(9) 0.469945(8) 0.0220 Uani
Sm1D Sm 0.671725(5) 0.207600(9) -0.030055(8) 0.0220 Uani
Sm1E Sm 0.328275(5) 0.207600(9) 0.530055(8) 0.0220 Uani
Sm1F Sm 0.171725(5) 0.707600(9) -0.030055(8) 0.0220 Uani
O1D O 0.41271(8) 0.82168(16) -0.04450(17) 0.0476 Uani
O2D O 0.39852(8) 0.66474(17) -0.00481(16) 0.0465 Uani
O3F O 0.22587(7) 0.85517(13) -0.04006(13) 0.0314 Uani
O4F O 0.29918(7) 0.94274(15) -0.06179(14) 0.0382 Uani
O5C O 0.27410(7) 0.84945(17) 0.14743(13) 0.0402 Uani
O6E O 0.30406(8) 0.73648(16) -0.12207(13) 0.0344 Uani
loop_
_atom_site_aniso_label
_atom_site_aniso_U_11
_atom_site_aniso_U_22
_atom_site_aniso_U_33
_atom_site_aniso_U_23
_atom_site_aniso_U_13
_atom_site_aniso_U_12
Sm1 0.01647(8) 0.02944(9) 0.02093(8) 0.00002(5) 0.00619(5) 0.00346(5)
C1 0.0197(14) 0.0418(16) 0.0375(15) 0.0001(13) 0.0095(11) 0.0083(12)
C2 0.0206(14) 0.0412(16) 0.0343(15) 0.0045(12) 0.0120(11) 0.0069(11)
C3 0.0331(17) 0.0357(16) 0.067(2) 0.0130(15) 0.0254(15) 0.0115(13)
C4 0.0327(16) 0.0423(17) 0.062(2) 0.0182(16) 0.0260(15) 0.0072(13)
C5 0.0230(13) 0.0399(15) 0.0307(14) 0.0090(12) 0.0127(11) 0.0077(12)
C6 0.0327(15) 0.0345(15) 0.0527(18) 0.0075(14) 0.0228(13) 0.0075(12)
C7 0.0280(15) 0.0399(16) 0.0538(18) 0.0094(14) 0.0232(13) 0.0034(12)
C8 0.0240(13) 0.0366(15) 0.0320(14) 0.0083(12) 0.0144(11) 0.0061(11)
C9 0.0253(14) 0.0381(15) 0.0296(14) 0.0126(12) 0.0104(11) 0.0075(11)
C10 0.0242(13) 0.0346(14) 0.0267(13) 0.0065(12) 0.0113(10) 0.0016(11)
C11 0.0220(13) 0.0359(14) 0.0323(14) 0.0057(12) 0.0124(11) 0.0049(11)
C12 0.0252(13) 0.0295(13) 0.0286(13) 0.0068(11) 0.0098(10) 0.0045(11)
C13 0.0272(14) 0.0346(14) 0.0305(14) 0.0109(12) 0.0147(11) 0.0057(11)
C14 0.0263(14) 0.0295(13) 0.0277(13) 0.0040(11) 0.0096(10) 0.0063(11)
C15 0.0254(14) 0.0377(14) 0.0246(13) 0.0059(12) 0.0099(11) -0.0022(12)
C16 0.081(6) 0.096(7) 0.045(5) 0.006(4) -0.013(4) 0.027(5)
C17 0.100(7) 0.138(9) 0.043(4) 0.011(5) -0.009(4) 0.024(6)
C18 0.100(11) 0.138(15) 0.043(5) 0.011(8) -0.009(6) 0.024(10)
N1 0.100(8) 0.138(11) 0.043(4) 0.011(5) -0.009(5) 0.024(9)
O1 0.0299(11) 0.0388(11) 0.0791(17) -0.0024(11) 0.0279(11) 0.0036(9)
O2 0.0345(11) 0.0483(12) 0.0625(14) 0.0188(11) 0.0311(10) 0.0161(10)
O3 0.0317(10) 0.0292(10) 0.0357(10) 0.0089(8) 0.0139(8) 0.0049(8)
O4 0.0248(10) 0.0358(11) 0.0534(13) 0.0118(10) 0.0022(9) 0.0026(8)
O5 0.0255(10) 0.0623(14) 0.0356(11) 0.0168(10) 0.0161(8) 0.0049(9)
O6 0.0325(11) 0.0448(11) 0.0276(10) 0.0127(9) 0.0112(8) 0.0052(9)
O7 0.079(2) 0.104(2) 0.0366(15) 0.0088(15) -0.0133(15) 0.0311(17)
O8 0.0721(18) 0.087(2) 0.0650(17) -0.0239(16) 0.0092(14) -0.0318(16)
Sm1C 0.01647 0.02944 0.02093 -2e-05 0.00619 -0.00346
Sm1D 0.01647 0.02944 0.02093 2e-05 0.00619 0.00346
Sm1E 0.01647 0.02944 0.02093 -2e-05 0.00619 -0.00346
Sm1F 0.01647 0.02944 0.02093 2e-05 0.00619 0.00346
O1D 0.0299 0.0388 0.0791 -0.0024 0.0279 0.0036
O2D 0.0345 0.0483 0.0625 0.0188 0.0311 0.0161
O3F 0.0317 0.0292 0.0357 0.0089 0.0139 0.0049
O4F 0.0248 0.0358 0.0534 0.0118 0.0022 0.0026
O5C 0.0255 0.0623 0.0356 -0.0168 0.0161 -0.0049
O6E 0.0325 0.0448 0.0276 -0.0127 0.0112 -0.0052
loop_
_geom_bond_atom_site_label_1
_geom_bond_atom_site_label_2
_geom_bond_site_symmetry_1
_geom_bond_site_symmetry_2
Sm1 O3 1_555 1_555
C1 C2 1_555 1_555
C2 C3 1_555 1_555
C3 H1 1_555 1_555
C4 C3 1_555 1_555
H2 C4 1_555 1_555
C5 C4 1_555 1_555
C6 C5 1_555 1_555
H3 C6 1_555 1_555
C7 C2 1_555 1_555
H4 C7 1_555 1_555
C8 C5 1_555 1_555
C9 C8 1_555 1_555
H5 C9 1_555 1_555
C10 C9 1_555 1_555
C11 C10 1_555 1_555
H6 C11 1_555 1_555
C12 C11 1_555 1_555
C13 C8 1_555 1_555
H7 C13 1_555 1_555
C14 C12 1_555 1_555
C15 C10 1_555 1_555
C16 H8 1_555 1_555
C17 H9 1_555 1_555
H10 C17 1_555 1_555
H11 C17 1_555 1_555
C18 H12 1_555 1_555
H13 C18 1_555 1_555
H14 C18 1_555 1_555
N1 C16 1_555 1_555
O1 C1 1_555 1_555
O2 C1 1_555 1_555
O3 C14 1_555 1_555
O4 C14 1_555 1_555
O5 C15 1_555 1_555
O6 C15 1_555 1_555
O7 Sm1 1_555 1_555
O8 Sm1 1_555 1_555
H15 O8 1_555 1_555
H16 O8 1_555 1_555
Sm1C O5 1_555 1_555
Sm1D O1 1_555 1_555
Sm1E O6 1_555 1_555
Sm1F O3 1_555 1_555
O1D Sm1 1_555 1_555
O2D Sm1 1_555 1_555
O3F Sm1 1_555 1_555
O4F Sm1 1_555 1_555
O5C Sm1 1_555 1_555
O6E Sm1 1_555 1_555
C6 C7 1_555 1_555
C12 C13 1_555 1_555
C16 O7 1_555 1_555
C17 N1 1_555 1_555
C18 N1 1_555 1_555
O2 Sm1D 1_555 1_555
O4 Sm1F 1_555 1_555
Sm1F O3F 1_555 1_555

#END
