
#######################################################################
#
#                 Cambridge Crystallographic Data Centre
#                                CCDC 
#
#######################################################################
#
# If this CIF has been generated from an entry in the Cambridge 
# Structural Database, then it will include bibliographic, chemical, 
# crystal, experimental, refinement or atomic coordinate data resulting 
# from the CCDC's data processing and validation procedures.
#
#######################################################################

data_LUWMEX
_chemical_formula_moiety         '(C18 H16 La1 N1 O8)n'
_symmetry_cell_setting           monoclinic
_symmetry_space_group_name_H-M   'C 2/c'
_symmetry_Int_Tables_number      15
_space_group_name_Hall           '-C 2yc'
loop_
_symmetry_equiv_pos_site_id
_symmetry_equiv_pos_as_xyz
1 x,y,z
2 -x,y,1/2-z
3 1/2+x,1/2+y,z
4 1/2-x,1/2+y,1/2-z
5 -x,-y,-z
6 x,-y,1/2+z
7 1/2-x,1/2-y,-z
8 1/2+x,1/2-y,1/2+z
_cell_length_a                   24.795(7)
_cell_length_b                   13.651(4)
_cell_length_c                   14.936(5)
_cell_angle_alpha                90
_cell_angle_beta                 97.077(4)
_cell_angle_gamma                90
_cell_volume                     5016.97
loop_
_atom_site_label
_atom_site_type_symbol
_atom_site_fract_x
_atom_site_fract_y
_atom_site_fract_z
_atom_site_U_iso_or_equiv
_atom_site_thermal_displace_type
La1 La 0.830914(10) 0.21018(2) 0.530285(19) 0.0342 Uani
C1 C 1.0700(2) 0.7217(5) 0.5416(4) 0.0490 Uani
C2 C 1.0197(2) 0.6888(5) 0.5814(4) 0.0455 Uani
C3 C 0.9863(3) 0.7547(6) 0.6174(6) 0.0682 Uani
H1 H 0.9962 0.8202 0.6233 0.0820 Uiso
C4 C 0.9372(3) 0.7230(5) 0.6451(6) 0.0677 Uani
H2 H 0.9141 0.7684 0.6669 0.0810 Uiso
C5 C 0.9227(2) 0.6252(4) 0.6405(4) 0.0426 Uani
C6 C 0.9576(2) 0.5607(5) 0.6071(4) 0.0542 Uani
H3 H 0.9483 0.4947 0.6032 0.0650 Uiso
C7 C 1.0063(2) 0.5906(5) 0.5787(4) 0.0545 Uani
H4 H 1.0297 0.5448 0.5581 0.0650 Uiso
C8 C 0.8684(2) 0.5946(4) 0.6654(4) 0.0434 Uani
C9 C 0.8458(2) 0.6405(5) 0.7356(4) 0.0463 Uani
H5 H 0.8665 0.6859 0.7714 0.0560 Uiso
C10 C 0.7931(2) 0.6204(4) 0.7537(4) 0.0404 Uani
C11 C 0.7628(2) 0.5520(4) 0.7013(4) 0.0429 Uani
H6 H 0.7272 0.5394 0.7116 0.0510 Uiso
C12 C 0.7848(2) 0.5018(4) 0.6334(4) 0.0407 Uani
C13 C 0.8377(2) 0.5216(4) 0.6164(4) 0.0425 Uani
H7 H 0.8528 0.4864 0.5723 0.0510 Uiso
C14 C 0.7499(2) 0.4285(4) 0.5766(4) 0.0410 Uani
C15 C 0.7716(2) 0.6718(5) 0.8315(4) 0.0471 Uani
O1 O 1.08265(18) 0.8115(4) 0.5470(4) 0.0740 Uani
O2 O 1.09742(16) 0.6613(4) 0.5038(3) 0.0626 Uani
O3 O 0.77297(14) 0.3579(3) 0.5416(3) 0.0451 Uani
O4 O 0.70008(15) 0.4395(3) 0.5660(3) 0.0522 Uani
O5 O 0.72369(15) 0.6500(4) 0.8478(3) 0.0586 Uani
O6 O 0.80241(17) 0.7315(3) 0.8754(3) 0.0510 Uani
O7 O 0.8771(3) 0.2725(6) 0.6790(5) 0.1239 Uani
N1 N 0.8894(5) 0.3507(10) 0.8168(7) 0.1680 Uani
C16 C 0.8560(5) 0.3105(9) 0.7457(7) 0.1295 Uani
H8 H 0.8185 0.3108 0.7458 0.1550 Uiso
C17 C 0.8669(6) 0.4019(13) 0.8870(10) 0.2103 Uani
H9 H 0.8683 0.4711 0.8763 0.3160 Uiso
H10 H 0.8876 0.3868 0.9440 0.3160 Uiso
H11 H 0.8298 0.3821 0.8880 0.3160 Uiso
C18 C 0.9465(5) 0.3517(14) 0.8206(11) 0.2087 Uani
H12 H 0.9593 0.2864 0.8124 0.3130 Uiso
H13 H 0.9621 0.3762 0.8783 0.3130 Uiso
H14 H 0.9568 0.3933 0.7738 0.3130 Uiso
O8 O 0.8815(3) 0.0625(6) 0.6079(5) 0.1248 Uani
H15 H 0.8556 0.0210 0.5638 0.1500 Uiso
H16 H 0.9072 0.1014 0.6196 0.1500 Uiso
La1C La 0.669086(10) 0.71018(2) 0.969715(19) 0.0342 Uani
La1D La 1.169086(10) 0.78982(2) 0.469715(19) 0.0342 Uani
La1E La 0.830914(10) 0.78982(2) 1.030285(19) 0.0342 Uani
La1F La 0.669086(10) 0.28982(2) 0.469715(19) 0.0342 Uani
O1D O 0.91735(18) 0.1885(4) 0.4530(4) 0.0740 Uani
O2D O 0.90258(16) 0.3387(4) 0.4962(3) 0.0626 Uani
O3F O 0.72703(14) 0.1421(3) 0.4584(3) 0.0451 Uani
O4F O 0.79992(15) 0.0605(3) 0.4340(3) 0.0522 Uani
O5C O 0.77631(15) 0.1500(4) 0.6522(3) 0.0586 Uani
O6E O 0.80241(17) 0.2685(3) 0.3754(3) 0.0510 Uani
loop_
_atom_site_aniso_label
_atom_site_aniso_U_11
_atom_site_aniso_U_22
_atom_site_aniso_U_33
_atom_site_aniso_U_23
_atom_site_aniso_U_13
_atom_site_aniso_U_12
La1 0.02189(17) 0.0525(2) 0.0297(2) -0.00027(13) 0.00961(12) -0.00425(12)
C1 0.031(3) 0.065(4) 0.054(4) -0.003(3) 0.017(3) -0.011(3)
C2 0.030(3) 0.062(4) 0.048(4) -0.009(3) 0.019(3) -0.010(2)
C3 0.048(4) 0.067(4) 0.097(6) -0.025(4) 0.038(4) -0.019(3)
C4 0.047(4) 0.076(5) 0.089(6) -0.029(4) 0.044(4) -0.015(3)
C5 0.034(3) 0.057(4) 0.041(3) -0.013(3) 0.022(2) -0.014(2)
C6 0.039(3) 0.060(4) 0.069(4) -0.015(3) 0.028(3) -0.014(3)
C7 0.038(3) 0.064(4) 0.069(4) -0.014(3) 0.036(3) -0.004(3)
C8 0.033(3) 0.060(4) 0.040(3) -0.011(3) 0.016(2) -0.010(2)
C9 0.039(3) 0.063(4) 0.041(3) -0.014(3) 0.021(3) -0.014(3)
C10 0.032(3) 0.055(3) 0.037(3) -0.009(3) 0.015(2) -0.005(2)
C11 0.032(3) 0.061(4) 0.039(3) -0.010(3) 0.018(2) -0.006(2)
C12 0.032(3) 0.058(4) 0.035(3) -0.010(3) 0.016(2) -0.006(2)
C13 0.035(3) 0.054(4) 0.042(3) -0.012(3) 0.019(2) -0.007(2)
C14 0.037(3) 0.047(3) 0.042(3) -0.005(3) 0.017(2) -0.008(2)
C15 0.043(3) 0.065(4) 0.036(3) -0.010(3) 0.016(3) 0.007(3)
O1 0.044(3) 0.076(4) 0.112(5) -0.005(3) 0.049(3) -0.008(2)
O2 0.041(2) 0.074(3) 0.080(3) -0.022(3) 0.036(2) -0.022(2)
O3 0.0373(19) 0.051(2) 0.050(2) -0.0152(19) 0.0168(17) -0.0068(17)
O4 0.032(2) 0.054(3) 0.071(3) -0.014(2) 0.008(2) -0.0027(18)
O5 0.036(2) 0.098(4) 0.046(2) -0.026(2) 0.0220(19) -0.006(2)
O6 0.047(2) 0.070(3) 0.039(2) -0.016(2) 0.0176(19) -0.006(2)
O7 0.134(5) 0.163(5) 0.073(3) -0.026(3) 0.006(3) -0.039(4)
N1 0.179(6) 0.208(6) 0.111(5) -0.035(5) -0.006(5) -0.022(6)
C16 0.139(5) 0.167(5) 0.081(4) -0.023(4) 0.007(4) -0.037(4)
C17 0.244(9) 0.219(10) 0.167(8) -0.048(7) 0.022(7) 0.003(8)
C18 0.177(7) 0.249(10) 0.193(9) -0.029(8) -0.006(7) -0.020(8)
O8 0.104(4) 0.144(5) 0.124(5) 0.026(4) 0.005(4) 0.048(4)
La1C 0.02189 0.0525 0.0297 0.00027 0.00961 0.00425
La1D 0.02189 0.0525 0.0297 -0.00027 0.00961 -0.00425
La1E 0.02189 0.0525 0.0297 0.00027 0.00961 0.00425
La1F 0.02189 0.0525 0.0297 -0.00027 0.00961 -0.00425
O1D 0.044 0.076 0.112 -0.005 0.049 -0.008
O2D 0.041 0.074 0.08 -0.022 0.036 -0.022
O3F 0.0373 0.051 0.05 -0.0152 0.0168 -0.0068
O4F 0.032 0.054 0.071 -0.014 0.008 -0.0027
O5C 0.036 0.098 0.046 0.026 0.022 0.006
O6E 0.047 0.07 0.039 0.016 0.0176 0.006
loop_
_geom_bond_atom_site_label_1
_geom_bond_atom_site_label_2
_geom_bond_site_symmetry_1
_geom_bond_site_symmetry_2
La1 O3 1_555 1_555
C1 C2 1_555 1_555
C2 C3 1_555 1_555
C3 H1 1_555 1_555
C4 C3 1_555 1_555
H2 C4 1_555 1_555
C5 C4 1_555 1_555
C6 C5 1_555 1_555
H3 C6 1_555 1_555
C7 C2 1_555 1_555
H4 C7 1_555 1_555
C8 C5 1_555 1_555
C9 C8 1_555 1_555
H5 C9 1_555 1_555
C10 C9 1_555 1_555
C11 C10 1_555 1_555
H6 C11 1_555 1_555
C12 C11 1_555 1_555
C13 C8 1_555 1_555
H7 C13 1_555 1_555
C14 C12 1_555 1_555
C15 C10 1_555 1_555
O1 C1 1_555 1_555
O2 C1 1_555 1_555
O3 C14 1_555 1_555
O4 C14 1_555 1_555
O5 C15 1_555 1_555
O6 C15 1_555 1_555
O7 La1 1_555 1_555
N1 C16 1_555 1_555
C16 O7 1_555 1_555
H8 C16 1_555 1_555
C17 N1 1_555 1_555
H9 C17 1_555 1_555
H10 C17 1_555 1_555
H11 C17 1_555 1_555
C18 N1 1_555 1_555
H12 C18 1_555 1_555
H13 C18 1_555 1_555
H14 C18 1_555 1_555
O8 La1 1_555 1_555
H15 O8 1_555 1_555
H16 O8 1_555 1_555
La1C O5 1_555 1_555
La1D O1 1_555 1_555
La1E O6 1_555 1_555
La1F O3 1_555 1_555
O1D La1 1_555 1_555
O2D La1 1_555 1_555
O3F La1 1_555 1_555
O4F La1 1_555 1_555
O5C La1 1_555 1_555
O6E La1 1_555 1_555
C6 C7 1_555 1_555
C12 C13 1_555 1_555
O2 La1D 1_555 1_555
O4 La1F 1_555 1_555
La1F O3F 1_555 1_555

#END
