
#######################################################################
#
#                 Cambridge Crystallographic Data Centre
#                                CCDC 
#
#######################################################################
#
# If this CIF has been generated from an entry in the Cambridge 
# Structural Database, then it will include bibliographic, chemical, 
# crystal, experimental, refinement or atomic coordinate data resulting 
# from the CCDC's data processing and validation procedures.
#
#######################################################################

data_VEHXEN
_chemical_formula_moiety         'C114 H58 Cl55 Fe1 N7 O143 Pr24 S12 Sb60'
_symmetry_cell_setting           tetragonal
_symmetry_space_group_name_H-M   'P 42/n'
_symmetry_Int_Tables_number      86
_space_group_name_Hall           '-P 4bc'
loop_
_symmetry_equiv_pos_site_id
_symmetry_equiv_pos_as_xyz
1 x,y,z
2 -y,1/2+x,1/2+z
3 1/2-x,1/2-y,z
4 1/2+y,-x,1/2+z
5 -x,-y,-z
6 y,1/2-x,1/2-z
7 1/2+x,1/2+y,-z
8 1/2-y,x,1/2-z
_cell_length_a                   43.6051(6)
_cell_length_b                   43.6051(6)
_cell_length_c                   19.3474(5)
_cell_angle_alpha                90
_cell_angle_beta                 90
_cell_angle_gamma                90
_cell_volume                     36787.2
loop_
_atom_site_label
_atom_site_type_symbol
_atom_site_fract_x
_atom_site_fract_y
_atom_site_fract_z
_atom_site_U_iso_or_equiv
_atom_site_thermal_displace_type
N7 N 0.4142(6) 0.1902(8) 0.8076(11) 0.1547 Uani
H25 H 0.4006 0.1927 0.8394 0.1860 Uiso
C37 C 0.4351(7) 0.2135(5) 0.7938(14) 0.1527 Uani
C38 C 0.4571(6) 0.2095(6) 0.7426(16) 0.1523 Uani
H26 H 0.4711 0.2251 0.7333 0.1830 Uiso
C39 C 0.4582(6) 0.1823(8) 0.7051(12) 0.1513 Uani
H27 H 0.4729 0.1797 0.6708 0.1820 Uiso
C40 C 0.4372(7) 0.1591(6) 0.7189(14) 0.1520 Uani
H28 H 0.4379 0.1409 0.6938 0.1820 Uiso
C41 C 0.4152(6) 0.1630(6) 0.7702(15) 0.1550 Uani
H29 H 0.4012 0.1475 0.7794 0.1860 Uiso
C42 C 0.4377(9) 0.2433(7) 0.8375(18) 0.1520 Uani
H30 H 0.4210 0.2441 0.8700 0.2280 Uiso
H31 H 0.4367 0.2608 0.8074 0.2280 Uiso
H32 H 0.4568 0.2434 0.8619 0.2280 Uiso
O1 O 0.4207(4) 0.2041(4) 0.0068(9) 0.1127 Uani
H33 H 0.4345 0.2088 0.0336 0.1690 Uiso
H34 H 0.4209 0.1853 0.0093 0.1690 Uiso
Pr1 Pr 0.52697(2) 0.12422(2) 0.21303(5) 0.0420 Uani
Pr2 Pr 0.54545(2) 0.23385(2) 0.22163(4) 0.0353 Uani
Pr3 Pr 0.60463(2) 0.16364(2) 0.36442(4) 0.0350 Uani
Pr4 Pr 0.49938(2) 0.18246(2) 0.41574(5) 0.0342 Uani
Pr5 Pr 0.26260(2) 0.30311(2) 0.83946(5) 0.0374 Uani
Sb1 Sb 0.57482(3) 0.08465(3) 0.34213(6) 0.0423 Uani
Sb2 Sb 0.49445(3) 0.09804(3) 0.38296(6) 0.0383 Uani
Sb3 Sb 0.45123(2) 0.15139(3) 0.27570(6) 0.0386 Uani
Sb4 Sb 0.48688(3) 0.18869(3) 0.12909(5) 0.0398 Uani
Sb5 Sb 0.56658(3) 0.17528(3) 0.08978(6) 0.0467 Uani
Sb6 Sb 0.61153(3) 0.12326(3) 0.19612(6) 0.0434 Uani
Sb7 Sb 0.55395(3) 0.12746(3) 0.49505(5) 0.0370 Uani
Sb8 Sb 0.46580(2) 0.23307(3) 0.28221(5) 0.0352 Uani
Sb9 Sb 0.62516(3) 0.20479(3) 0.20290(6) 0.0411 Uani
Sb10 Sb 0.52603(3) 0.26213(2) 0.39429(5) 0.0358 Uani
Sb11 Sb 0.60610(3) 0.24832(3) 0.35748(5) 0.0365 Uani
Sb12 Sb 0.56884(2) 0.20941(3) 0.50331(5) 0.0339 Uani
Sb13 Sb 0.34198(3) 0.27006(2) 0.81504(5) 0.0344 Uani
Sb14 Sb 0.32060(3) 0.18961(3) 0.81677(5) 0.0355 Uani
Sb15 Sb 0.29051(3) 0.24148(3) 0.94883(5) 0.0360 Uani
Cl1 Cl 0.54430(9) 0.17510(10) 0.3041(2) 0.0393 Uani
Cl2 Cl 0.51090(12) 0.12267(14) 0.0680(2) 0.0707 Uani
Cl3 Cl 0.55825(16) 0.06792(15) 0.1794(3) 0.0943 Uani
Cl4 Cl 0.47202(11) 0.08485(11) 0.2282(3) 0.0580 Uani
Cl5 Cl 0.52985(12) 0.23783(13) 0.0692(2) 0.0697 Uani
Cl6 Cl 0.51233(12) 0.29128(11) 0.2387(3) 0.0627 Uani
Cl7 Cl 0.66070(10) 0.19996(12) 0.3510(2) 0.0567 Uani
Cl8 Cl 0.64554(12) 0.10987(13) 0.3363(3) 0.0720 Uani
Cl9 Cl 0.51087(12) 0.17907(12) 0.5695(2) 0.0590 Uani
Cl10 Cl 0.26486(12) 0.30314(11) 0.9970(2) 0.0603 Uani
Cl11 Cl 0.2500 0.2500 0.7500 0.0467 Uani
Cl12 Cl 0.63628(12) 0.16481(15) 0.0818(2) 0.0773 Uani
Cl13 Cl 0.57662(12) 0.28144(11) 0.4898(2) 0.0627 Uani
Cl14 Cl 0.54153(13) 0.05956(12) 0.4712(3) 0.0750 Uani
S1 S 0.64044(11) 0.33515(11) 0.1511(2) 0.0457 Uani
S2 S 0.39918(11) 0.17418(11) 0.5585(2) 0.0490 Uani
S3 S 0.39423(13) 0.25530(14) 0.5249(3) 0.0710 Uani
O2 O 0.4866(2) 0.1370(2) 0.3313(5) 0.0393 Uani
O3 O 0.4797(2) 0.1556(2) 0.1981(5) 0.0363 Uani
O4 O 0.5303(2) 0.1792(2) 0.1519(5) 0.0370 Uani
O5 O 0.5739(2) 0.1381(3) 0.1483(5) 0.0387 Uani
O6 O 0.5822(2) 0.1185(3) 0.2746(5) 0.0470 Uani
O7 O 0.5316(2) 0.0949(2) 0.3212(5) 0.0423 Uani
O8 O 0.5144(2) 0.1282(2) 0.4474(5) 0.0363 Uani
O9 O 0.4631(2) 0.1907(2) 0.3178(5) 0.0367 Uani
O10 O 0.4909(2) 0.2206(2) 0.1995(5) 0.0377 Uani
O11 O 0.5850(2) 0.2047(3) 0.1549(5) 0.0383 Uani
O12 O 0.6208(3) 0.1630(2) 0.2416(5) 0.0423 Uani
O13 O 0.5788(2) 0.1170(2) 0.4126(5) 0.0377 Uani
O14 O 0.5592(2) 0.1699(2) 0.4569(4) 0.0313 Uani
O15 O 0.5071(2) 0.2322(2) 0.3273(5) 0.0340 Uani
O16 O 0.5998(2) 0.2176(2) 0.2836(5) 0.0387 Uani
O17 O 0.5965(2) 0.2139(2) 0.4217(5) 0.0333 Uani
O18 O 0.5330(2) 0.2247(2) 0.4496(5) 0.0293 Uani
O19 O 0.5629(2) 0.2580(2) 0.3356(5) 0.0333 Uani
O20 O 0.3110(2) 0.2859(2) 0.7497(5) 0.0437 Uani
O21 O 0.3060(2) 0.2716(2) 0.8813(5) 0.0347 Uani
O22 O 0.2500 0.2500 0.9035(7) 0.0363 Uani
O23 O 0.2899(2) 0.2068(2) 0.8817(5) 0.0363 Uani
O24 O 0.3305(2) 0.2292(2) 0.7733(5) 0.0360 Uani
O25 O 0.4697(3) 0.2318(3) 0.4395(9) 0.0923 Uani
O26 O 0.4256(5) 0.2432(4) 0.3922(8) 0.1380 Uani
O27 O 0.3810(4) 0.2733(4) 0.7185(7) 0.1227 Uani
O28 O 0.3495(3) 0.2668(3) 0.6367(7) 0.0740 Uani
O29 O 0.4442(3) 0.1158(3) 0.4457(6) 0.0660 Uani
O30 O 0.4513(3) 0.1654(3) 0.4607(6) 0.0607 Uani
O31 O 0.3371(5) 0.1583(4) 0.6956(9) 0.1423 Uani
O32 O 0.3431(3) 0.1989(3) 0.6354(6) 0.0680 Uani
O33 O 0.6554(3) 0.3742(3) -0.0256(6) 0.0503 Uani
O34 O 0.6653(3) 0.3924(3) 0.0783(6) 0.0730 Uani
O35 O 0.5822(3) 0.2694(3) 0.1839(6) 0.0700 Uani
O36 O 0.6219(3) 0.2832(3) 0.2474(6) 0.0793 Uani
C43 C 0.4434(4) 0.2401(5) 0.4434(10) 0.0707 Uani
C44 C 0.4316(5) 0.2467(5) 0.5099(11) 0.0697 Uani
C45 C 0.4488(6) 0.2478(5) 0.5685(11) 0.0827 Uani
H35 H 0.4697 0.2438 0.5715 0.0990 Uiso
C46 C 0.4305(6) 0.2554(5) 0.6203(12) 0.0860 Uani
H36 H 0.4387 0.2577 0.6643 0.1040 Uiso
C47 C 0.3994(5) 0.2601(5) 0.6106(10) 0.0717 Uani
C48 C 0.3755(4) 0.2675(5) 0.6565(8) 0.0680 Uani
C49 C 0.4383(4) 0.1403(3) 0.4709(10) 0.0513 Uani
C50 C 0.4127(4) 0.1408(4) 0.5235(9) 0.0533 Uani
C51 C 0.3960(4) 0.1156(5) 0.5496(10) 0.0617 Uani
H37 H 0.3993 0.0953 0.5367 0.0740 Uiso
C52 C 0.3739(5) 0.1252(5) 0.5977(9) 0.0627 Uani
H38 H 0.3615 0.1115 0.6217 0.0750 Uiso
C53 C 0.3721(4) 0.1557(5) 0.6065(10) 0.0600 Uani
C54 C 0.3498(5) 0.1718(4) 0.6493(10) 0.0617 Uani
C55 C 0.6527(4) 0.3738(4) 0.0385(9) 0.0457 Uani
C56 C 0.6356(4) 0.3482(4) 0.0671(8) 0.0430 Uani
C57 C 0.6143(4) 0.3312(4) 0.0343(8) 0.0463 Uani
H39 H 0.6086 0.3346 -0.0114 0.0560 Uiso
C58 C 0.6013(4) 0.3079(4) 0.0753(9) 0.0517 Uani
H40 H 0.5860 0.2947 0.0600 0.0620 Uiso
C59 C 0.6136(4) 0.3067(4) 0.1395(8) 0.0427 Uani
C60 C 0.6063(4) 0.2844(3) 0.1954(7) 0.0473 Uani
Pr1B Pr -0.02697(2) 0.37578(2) 0.21303(5) 0.0420 Uani
Pr2B Pr -0.04545(2) 0.26615(2) 0.22163(4) 0.0353 Uani
Pr3B Pr -0.10463(2) 0.33636(2) 0.36442(4) 0.0350 Uani
Pr4B Pr 0.00062(2) 0.31754(2) 0.41574(5) 0.0342 Uani
Pr5B Pr 0.23740(2) 0.19689(2) 0.83946(5) 0.0374 Uani
Sb1B Sb -0.07482(3) 0.41535(3) 0.34213(6) 0.0423 Uani
Sb2B Sb 0.00555(3) 0.40196(3) 0.38296(6) 0.0383 Uani
Sb3B Sb 0.04877(2) 0.34861(3) 0.27570(6) 0.0386 Uani
Sb4B Sb 0.01312(3) 0.31131(3) 0.12909(5) 0.0398 Uani
Sb5B Sb -0.06658(3) 0.32472(3) 0.08978(6) 0.0467 Uani
Sb6B Sb -0.11153(3) 0.37674(3) 0.19612(6) 0.0434 Uani
Sb7B Sb -0.05395(3) 0.37254(3) 0.49505(5) 0.0370 Uani
Sb8B Sb 0.03420(2) 0.26693(3) 0.28221(5) 0.0352 Uani
Sb9B Sb -0.12516(3) 0.29521(3) 0.20290(6) 0.0411 Uani
Sb10B Sb -0.02603(3) 0.23787(2) 0.39429(5) 0.0358 Uani
Sb11B Sb -0.10610(3) 0.25168(3) 0.35748(5) 0.0365 Uani
Sb12B Sb -0.06884(2) 0.29059(3) 0.50331(5) 0.0339 Uani
Sb13B Sb 0.15802(3) 0.22994(2) 0.81504(5) 0.0344 Uani
Sb14B Sb 0.17940(3) 0.31039(3) 0.81677(5) 0.0355 Uani
Sb15B Sb 0.20949(3) 0.25852(3) 0.94883(5) 0.0360 Uani
Cl1B Cl -0.04430(9) 0.32490(10) 0.3041(2) 0.0393 Uani
Cl2B Cl -0.01090(12) 0.37733(14) 0.0680(2) 0.0707 Uani
Cl3B Cl -0.05825(16) 0.43208(15) 0.1794(3) 0.0943 Uani
Cl4B Cl 0.02798(11) 0.41515(11) 0.2282(3) 0.0580 Uani
Cl5B Cl -0.02985(12) 0.26217(13) 0.0692(2) 0.0697 Uani
Cl6B Cl -0.01233(12) 0.20872(11) 0.2387(3) 0.0627 Uani
Cl7B Cl -0.16070(10) 0.30004(12) 0.3510(2) 0.0567 Uani
Cl8B Cl -0.14554(12) 0.39013(13) 0.3363(3) 0.0720 Uani
Cl9B Cl -0.01087(12) 0.32093(12) 0.5695(2) 0.0590 Uani
Cl10B Cl 0.23514(12) 0.19686(11) 0.9970(2) 0.0603 Uani
Cl12B Cl -0.13628(12) 0.33519(15) 0.0818(2) 0.0773 Uani
Cl13B Cl -0.07662(12) 0.21856(11) 0.4898(2) 0.0627 Uani
Cl14B Cl -0.04153(13) 0.44044(12) 0.4712(3) 0.0750 Uani
S1B S -0.14044(11) 0.16485(11) 0.1511(2) 0.0457 Uani
S2B S 0.10082(11) 0.32582(11) 0.5585(2) 0.0490 Uani
S3B S 0.10577(13) 0.24470(14) 0.5249(3) 0.0710 Uani
O2B O 0.0134(2) 0.3630(2) 0.3313(5) 0.0393 Uani
O3B O 0.0203(2) 0.3444(2) 0.1981(5) 0.0363 Uani
O4B O -0.0303(2) 0.3208(2) 0.1519(5) 0.0370 Uani
O5B O -0.0739(2) 0.3619(3) 0.1483(5) 0.0387 Uani
O6B O -0.0822(2) 0.3815(3) 0.2746(5) 0.0470 Uani
O7B O -0.0316(2) 0.4051(2) 0.3212(5) 0.0423 Uani
O8B O -0.0144(2) 0.3718(2) 0.4474(5) 0.0363 Uani
O9B O 0.0369(2) 0.3093(2) 0.3178(5) 0.0367 Uani
O10B O 0.0091(2) 0.2794(2) 0.1995(5) 0.0377 Uani
O11B O -0.0850(2) 0.2953(3) 0.1549(5) 0.0383 Uani
O12B O -0.1208(3) 0.3370(2) 0.2416(5) 0.0423 Uani
O13B O -0.0788(2) 0.3830(2) 0.4126(5) 0.0377 Uani
O14B O -0.0592(2) 0.3301(2) 0.4569(4) 0.0313 Uani
O15B O -0.0071(2) 0.2678(2) 0.3273(5) 0.0340 Uani
O16B O -0.0998(2) 0.2824(2) 0.2836(5) 0.0387 Uani
O17B O -0.0965(2) 0.2861(2) 0.4217(5) 0.0333 Uani
O18B O -0.0330(2) 0.2753(2) 0.4496(5) 0.0293 Uani
O19B O -0.0629(2) 0.2420(2) 0.3356(5) 0.0333 Uani
O20B O 0.1890(2) 0.2141(2) 0.7497(5) 0.0437 Uani
O21B O 0.1940(2) 0.2284(2) 0.8813(5) 0.0347 Uani
O23B O 0.2101(2) 0.2932(2) 0.8817(5) 0.0363 Uani
O24B O 0.1695(2) 0.2708(2) 0.7733(5) 0.0360 Uani
O25B O 0.0303(3) 0.2682(3) 0.4395(9) 0.0923 Uani
O26B O 0.0744(5) 0.2568(4) 0.3922(8) 0.1380 Uani
O27B O 0.1190(4) 0.2267(4) 0.7185(7) 0.1227 Uani
O28B O 0.1505(3) 0.2332(3) 0.6367(7) 0.0740 Uani
O29B O 0.0558(3) 0.3842(3) 0.4457(6) 0.0660 Uani
O30B O 0.0487(3) 0.3346(3) 0.4607(6) 0.0607 Uani
O31B O 0.1629(5) 0.3417(4) 0.6956(9) 0.1423 Uani
O32B O 0.1569(3) 0.3011(3) 0.6354(6) 0.0680 Uani
O33B O -0.1554(3) 0.1258(3) -0.0256(6) 0.0503 Uani
O34B O -0.1653(3) 0.1076(3) 0.0783(6) 0.0730 Uani
O35B O -0.0822(3) 0.2306(3) 0.1839(6) 0.0700 Uani
O36B O -0.1219(3) 0.2168(3) 0.2474(6) 0.0793 Uani
C43B C 0.0566(4) 0.2599(5) 0.4434(10) 0.0707 Uani
C44B C 0.0684(5) 0.2533(5) 0.5099(11) 0.0697 Uani
C45B C 0.0512(6) 0.2522(5) 0.5685(11) 0.0827 Uani
H35B H 0.0303 0.2562 0.5715 0.0990 Uiso
C46B C 0.0695(6) 0.2446(5) 0.6203(12) 0.0860 Uani
H36B H 0.0613 0.2423 0.6643 0.1040 Uiso
C47B C 0.1006(5) 0.2399(5) 0.6106(10) 0.0717 Uani
C48B C 0.1245(4) 0.2325(5) 0.6565(8) 0.0680 Uani
C49B C 0.0617(4) 0.3597(3) 0.4709(10) 0.0513 Uani
C50B C 0.0873(4) 0.3592(4) 0.5235(9) 0.0533 Uani
C51B C 0.1040(4) 0.3844(5) 0.5496(10) 0.0617 Uani
H37B H 0.1007 0.4047 0.5367 0.0740 Uiso
C52B C 0.1261(5) 0.3748(5) 0.5977(9) 0.0627 Uani
H38B H 0.1385 0.3885 0.6217 0.0750 Uiso
C53B C 0.1279(4) 0.3443(5) 0.6065(10) 0.0600 Uani
C54B C 0.1502(5) 0.3282(4) 0.6493(10) 0.0617 Uani
C55B C -0.1527(4) 0.1262(4) 0.0385(9) 0.0457 Uani
C56B C -0.1356(4) 0.1518(4) 0.0671(8) 0.0430 Uani
C57B C -0.1143(4) 0.1688(4) 0.0343(8) 0.0463 Uani
H39B H -0.1086 0.1654 -0.0114 0.0560 Uiso
C58B C -0.1013(4) 0.1921(4) 0.0753(9) 0.0517 Uani
H40B H -0.0860 0.2053 0.0600 0.0620 Uiso
C59B C -0.1136(4) 0.1933(4) 0.1395(8) 0.0427 Uani
C60B C -0.1063(4) 0.2156(3) 0.1954(7) 0.0473 Uani
Pr1E Pr 0.12422(2) -0.02697(2) 1.28697(5) 0.0420 Uani
Pr2E Pr 0.23385(2) -0.04545(2) 1.27837(4) 0.0353 Uani
Pr3E Pr 0.16364(2) -0.10463(2) 1.13558(4) 0.0350 Uani
Pr4E Pr 0.18246(2) 0.00062(2) 1.08426(5) 0.0342 Uani
Pr5E Pr 0.30311(2) 0.23740(2) 0.66054(5) 0.0374 Uani
Sb1E Sb 0.08465(3) -0.07482(3) 1.15787(6) 0.0423 Uani
Sb2E Sb 0.09804(3) 0.00555(3) 1.11704(6) 0.0383 Uani
Sb3E Sb 0.15139(3) 0.04877(2) 1.22430(6) 0.0386 Uani
Sb4E Sb 0.18869(3) 0.01312(3) 1.37091(5) 0.0398 Uani
Sb5E Sb 0.17528(3) -0.06658(3) 1.41022(6) 0.0467 Uani
Sb6E Sb 0.12326(3) -0.11153(3) 1.30388(6) 0.0434 Uani
Sb7E Sb 0.12746(3) -0.05395(3) 1.00495(5) 0.0370 Uani
Sb8E Sb 0.23307(3) 0.03420(2) 1.21779(5) 0.0352 Uani
Sb9E Sb 0.20479(3) -0.12516(3) 1.29710(6) 0.0411 Uani
Sb10E Sb 0.26213(2) -0.02603(3) 1.10571(5) 0.0358 Uani
Sb11E Sb 0.24832(3) -0.10610(3) 1.14252(5) 0.0365 Uani
Sb12E Sb 0.20941(3) -0.06884(2) 0.99669(5) 0.0339 Uani
Sb13E Sb 0.27006(2) 0.15802(3) 0.68496(5) 0.0344 Uani
Sb14E Sb 0.18961(3) 0.17940(3) 0.68323(5) 0.0355 Uani
Sb15E Sb 0.24148(3) 0.20949(3) 0.55117(5) 0.0360 Uani
Cl1E Cl 0.17510(10) -0.04430(9) 1.1959(2) 0.0393 Uani
Cl2E Cl 0.12267(14) -0.01090(12) 1.4320(2) 0.0707 Uani
Cl3E Cl 0.06792(15) -0.05825(16) 1.3206(3) 0.0943 Uani
Cl4E Cl 0.08485(11) 0.02798(11) 1.2718(3) 0.0580 Uani
Cl5E Cl 0.23783(13) -0.02985(12) 1.4308(2) 0.0697 Uani
Cl6E Cl 0.29128(11) -0.01233(12) 1.2613(3) 0.0627 Uani
Cl7E Cl 0.19996(12) -0.16070(10) 1.1490(2) 0.0567 Uani
Cl8E Cl 0.10987(13) -0.14554(12) 1.1637(3) 0.0720 Uani
Cl9E Cl 0.17907(12) -0.01087(12) 0.9305(2) 0.0590 Uani
Cl10E Cl 0.30314(11) 0.23514(12) 0.5030(2) 0.0603 Uani
Cl12E Cl 0.16481(15) -0.13628(12) 1.4182(2) 0.0773 Uani
Cl13E Cl 0.28144(11) -0.07662(12) 1.0102(2) 0.0627 Uani
Cl14E Cl 0.05956(12) -0.04153(13) 1.0288(3) 0.0750 Uani
S1E S 0.33515(11) -0.14044(11) 1.3489(2) 0.0457 Uani
S2E S 0.17418(11) 0.10082(11) 0.9415(2) 0.0490 Uani
S3E S 0.25530(14) 0.10577(13) 0.9751(3) 0.0710 Uani
O2E O 0.1370(2) 0.0134(2) 1.1687(5) 0.0393 Uani
O3E O 0.1556(2) 0.0203(2) 1.3019(5) 0.0363 Uani
O4E O 0.1792(2) -0.0303(2) 1.3481(5) 0.0370 Uani
O5E O 0.1381(3) -0.0739(2) 1.3517(5) 0.0387 Uani
O6E O 0.1185(3) -0.0822(2) 1.2254(5) 0.0470 Uani
O7E O 0.0949(2) -0.0316(2) 1.1788(5) 0.0423 Uani
O8E O 0.1282(2) -0.0144(2) 1.0526(5) 0.0363 Uani
O9E O 0.1907(2) 0.0369(2) 1.1822(5) 0.0367 Uani
O10E O 0.2206(2) 0.0091(2) 1.3005(5) 0.0377 Uani
O11E O 0.2047(3) -0.0850(2) 1.3451(5) 0.0383 Uani
O12E O 0.1630(2) -0.1208(3) 1.2584(5) 0.0423 Uani
O13E O 0.1170(2) -0.0788(2) 1.0874(5) 0.0377 Uani
O14E O 0.1699(2) -0.0592(2) 1.0431(4) 0.0313 Uani
O15E O 0.2322(2) -0.0071(2) 1.1727(5) 0.0340 Uani
O16E O 0.2176(2) -0.0998(2) 1.2164(5) 0.0387 Uani
O17E O 0.2139(2) -0.0965(2) 1.0783(5) 0.0333 Uani
O18E O 0.2247(2) -0.0330(2) 1.0504(5) 0.0293 Uani
O19E O 0.2580(2) -0.0629(2) 1.1644(5) 0.0333 Uani
O20E O 0.2859(2) 0.1890(2) 0.7503(5) 0.0437 Uani
O21E O 0.2716(2) 0.1940(2) 0.6187(5) 0.0347 Uani
O22E O 0.2500 0.2500 0.5965(7) 0.0363 Uani
O23E O 0.2068(2) 0.2101(2) 0.6183(5) 0.0363 Uani
O24E O 0.2292(2) 0.1695(2) 0.7267(5) 0.0360 Uani
O25E O 0.2318(3) 0.0303(3) 1.0605(9) 0.0923 Uani
O26E O 0.2432(4) 0.0744(5) 1.1078(8) 0.1380 Uani
O27E O 0.2733(4) 0.1190(4) 0.7815(7) 0.1227 Uani
O28E O 0.2668(3) 0.1505(3) 0.8633(7) 0.0740 Uani
O29E O 0.1158(3) 0.0558(3) 1.0543(6) 0.0660 Uani
O30E O 0.1654(3) 0.0487(3) 1.0393(6) 0.0607 Uani
O31E O 0.1583(4) 0.1629(5) 0.8044(9) 0.1423 Uani
O32E O 0.1989(3) 0.1569(3) 0.8646(6) 0.0680 Uani
O33E O 0.3742(3) -0.1554(3) 1.5256(6) 0.0503 Uani
O34E O 0.3924(3) -0.1653(3) 1.4217(6) 0.0730 Uani
O35E O 0.2694(3) -0.0822(3) 1.3161(6) 0.0700 Uani
O36E O 0.2832(3) -0.1219(3) 1.2526(6) 0.0793 Uani
C43E C 0.2401(5) 0.0566(4) 1.0566(10) 0.0707 Uani
C44E C 0.2467(5) 0.0684(5) 0.9901(11) 0.0697 Uani
C45E C 0.2478(5) 0.0512(6) 0.9315(11) 0.0827 Uani
H35E H 0.2438 0.0303 0.9285 0.0990 Uiso
C46E C 0.2554(5) 0.0695(6) 0.8797(12) 0.0860 Uani
H36E H 0.2577 0.0613 0.8357 0.1040 Uiso
C47E C 0.2601(5) 0.1006(5) 0.8894(10) 0.0717 Uani
C48E C 0.2675(5) 0.1245(4) 0.8435(8) 0.0680 Uani
C49E C 0.1403(3) 0.0617(4) 1.0291(10) 0.0513 Uani
C50E C 0.1408(4) 0.0873(4) 0.9765(9) 0.0533 Uani
C51E C 0.1156(5) 0.1040(4) 0.9504(10) 0.0617 Uani
H37E H 0.0953 0.1007 0.9633 0.0740 Uiso
C52E C 0.1252(5) 0.1261(5) 0.9023(9) 0.0627 Uani
H38E H 0.1115 0.1385 0.8783 0.0750 Uiso
C53E C 0.1557(5) 0.1279(4) 0.8935(10) 0.0600 Uani
C54E C 0.1718(4) 0.1502(5) 0.8507(10) 0.0617 Uani
C55E C 0.3738(4) -0.1527(4) 1.4615(9) 0.0457 Uani
C56E C 0.3482(4) -0.1356(4) 1.4329(8) 0.0430 Uani
C57E C 0.3312(4) -0.1143(4) 1.4657(8) 0.0463 Uani
H39E H 0.3346 -0.1086 1.5114 0.0560 Uiso
C58E C 0.3079(4) -0.1013(4) 1.4247(9) 0.0517 Uani
H40E H 0.2947 -0.0860 1.4400 0.0620 Uiso
C59E C 0.3067(4) -0.1136(4) 1.3605(8) 0.0427 Uani
C60E C 0.2844(3) -0.1063(4) 1.3046(7) 0.0473 Uani
Pr1G Pr 0.37578(2) 0.52697(2) 1.28697(5) 0.0420 Uani
Pr2G Pr 0.26615(2) 0.54545(2) 1.27837(4) 0.0353 Uani
Pr3G Pr 0.33636(2) 0.60463(2) 1.13558(4) 0.0350 Uani
Pr4G Pr 0.31754(2) 0.49938(2) 1.08426(5) 0.0342 Uani
Pr5G Pr 0.19689(2) 0.26260(2) 0.66054(5) 0.0374 Uani
Sb1G Sb 0.41535(3) 0.57482(3) 1.15787(6) 0.0423 Uani
Sb2G Sb 0.40196(3) 0.49445(3) 1.11704(6) 0.0383 Uani
Sb3G Sb 0.34861(3) 0.45123(2) 1.22430(6) 0.0386 Uani
Sb4G Sb 0.31131(3) 0.48688(3) 1.37091(5) 0.0398 Uani
Sb5G Sb 0.32472(3) 0.56658(3) 1.41022(6) 0.0467 Uani
Sb6G Sb 0.37674(3) 0.61153(3) 1.30388(6) 0.0434 Uani
Sb7G Sb 0.37254(3) 0.55395(3) 1.00495(5) 0.0370 Uani
Sb8G Sb 0.26693(3) 0.46580(2) 1.21779(5) 0.0352 Uani
Sb9G Sb 0.29521(3) 0.62516(3) 1.29710(6) 0.0411 Uani
Sb10G Sb 0.23787(2) 0.52603(3) 1.10571(5) 0.0358 Uani
Sb11G Sb 0.25168(3) 0.60610(3) 1.14252(5) 0.0365 Uani
Sb12G Sb 0.29059(3) 0.56884(2) 0.99669(5) 0.0339 Uani
Sb13G Sb 0.22994(2) 0.34198(3) 0.68496(5) 0.0344 Uani
Sb14G Sb 0.31039(3) 0.32060(3) 0.68323(5) 0.0355 Uani
Sb15G Sb 0.25852(3) 0.29051(3) 0.55117(5) 0.0360 Uani
Cl1G Cl 0.32490(10) 0.54430(9) 1.1959(2) 0.0393 Uani
Cl2G Cl 0.37733(14) 0.51090(12) 1.4320(2) 0.0707 Uani
Cl3G Cl 0.43208(15) 0.55825(16) 1.3206(3) 0.0943 Uani
Cl4G Cl 0.41515(11) 0.47202(11) 1.2718(3) 0.0580 Uani
Cl5G Cl 0.26217(13) 0.52985(12) 1.4308(2) 0.0697 Uani
Cl6G Cl 0.20872(11) 0.51233(12) 1.2613(3) 0.0627 Uani
Cl7G Cl 0.30004(12) 0.66070(10) 1.1490(2) 0.0567 Uani
Cl8G Cl 0.39013(13) 0.64554(12) 1.1637(3) 0.0720 Uani
Cl9G Cl 0.32093(12) 0.51087(12) 0.9305(2) 0.0590 Uani
Cl10G Cl 0.19686(11) 0.26486(12) 0.5030(2) 0.0603 Uani
Cl12G Cl 0.33519(15) 0.63628(12) 1.4182(2) 0.0773 Uani
Cl13G Cl 0.21856(11) 0.57662(12) 1.0102(2) 0.0627 Uani
Cl14G Cl 0.44044(12) 0.54153(13) 1.0288(3) 0.0750 Uani
S1G S 0.16485(11) 0.64044(11) 1.3489(2) 0.0457 Uani
S2G S 0.32582(11) 0.39918(11) 0.9415(2) 0.0490 Uani
S3G S 0.24470(14) 0.39423(13) 0.9751(3) 0.0710 Uani
O2G O 0.3630(2) 0.4866(2) 1.1687(5) 0.0393 Uani
O3G O 0.3444(2) 0.4797(2) 1.3019(5) 0.0363 Uani
O4G O 0.3208(2) 0.5303(2) 1.3481(5) 0.0370 Uani
O5G O 0.3619(3) 0.5739(2) 1.3517(5) 0.0387 Uani
O6G O 0.3815(3) 0.5822(2) 1.2254(5) 0.0470 Uani
O7G O 0.4051(2) 0.5316(2) 1.1788(5) 0.0423 Uani
O8G O 0.3718(2) 0.5144(2) 1.0526(5) 0.0363 Uani
O9G O 0.3093(2) 0.4631(2) 1.1822(5) 0.0367 Uani
O10G O 0.2794(2) 0.4909(2) 1.3005(5) 0.0377 Uani
O11G O 0.2953(3) 0.5850(2) 1.3451(5) 0.0383 Uani
O12G O 0.3370(2) 0.6208(3) 1.2584(5) 0.0423 Uani
O13G O 0.3830(2) 0.5788(2) 1.0874(5) 0.0377 Uani
O14G O 0.3301(2) 0.5592(2) 1.0431(4) 0.0313 Uani
O15G O 0.2678(2) 0.5071(2) 1.1727(5) 0.0340 Uani
O16G O 0.2824(2) 0.5998(2) 1.2164(5) 0.0387 Uani
O17G O 0.2861(2) 0.5965(2) 1.0783(5) 0.0333 Uani
O18G O 0.2753(2) 0.5330(2) 1.0504(5) 0.0293 Uani
O19G O 0.2420(2) 0.5629(2) 1.1644(5) 0.0333 Uani
O20G O 0.2141(2) 0.3110(2) 0.7503(5) 0.0437 Uani
O21G O 0.2284(2) 0.3060(2) 0.6187(5) 0.0347 Uani
O23G O 0.2932(2) 0.2899(2) 0.6183(5) 0.0363 Uani
O24G O 0.2708(2) 0.3305(2) 0.7267(5) 0.0360 Uani
O25G O 0.2682(3) 0.4697(3) 1.0605(9) 0.0923 Uani
O26G O 0.2568(4) 0.4256(5) 1.1078(8) 0.1380 Uani
O27G O 0.2267(4) 0.3810(4) 0.7815(7) 0.1227 Uani
O28G O 0.2332(3) 0.3495(3) 0.8633(7) 0.0740 Uani
O29G O 0.3842(3) 0.4442(3) 1.0543(6) 0.0660 Uani
O30G O 0.3346(3) 0.4513(3) 1.0393(6) 0.0607 Uani
O31G O 0.3417(4) 0.3371(5) 0.8044(9) 0.1423 Uani
O32G O 0.3011(3) 0.3431(3) 0.8646(6) 0.0680 Uani
O33G O 0.1258(3) 0.6554(3) 1.5256(6) 0.0503 Uani
O34G O 0.1076(3) 0.6653(3) 1.4217(6) 0.0730 Uani
O35G O 0.2306(3) 0.5822(3) 1.3161(6) 0.0700 Uani
O36G O 0.2168(3) 0.6219(3) 1.2526(6) 0.0793 Uani
C43G C 0.2599(5) 0.4434(4) 1.0566(10) 0.0707 Uani
C44G C 0.2533(5) 0.4316(5) 0.9901(11) 0.0697 Uani
C45G C 0.2522(5) 0.4488(6) 0.9315(11) 0.0827 Uani
H35G H 0.2562 0.4697 0.9285 0.0990 Uiso
C46G C 0.2446(5) 0.4305(6) 0.8797(12) 0.0860 Uani
H36G H 0.2423 0.4387 0.8357 0.1040 Uiso
C47G C 0.2399(5) 0.3994(5) 0.8894(10) 0.0717 Uani
C48G C 0.2325(5) 0.3755(4) 0.8435(8) 0.0680 Uani
C49G C 0.3597(3) 0.4383(4) 1.0291(10) 0.0513 Uani
C50G C 0.3592(4) 0.4127(4) 0.9765(9) 0.0533 Uani
C51G C 0.3844(5) 0.3960(4) 0.9504(10) 0.0617 Uani
H37G H 0.4047 0.3993 0.9633 0.0740 Uiso
C52G C 0.3748(5) 0.3739(5) 0.9023(9) 0.0627 Uani
H38G H 0.3885 0.3615 0.8783 0.0750 Uiso
C53G C 0.3443(5) 0.3721(4) 0.8935(10) 0.0600 Uani
C54G C 0.3282(4) 0.3498(5) 0.8507(10) 0.0617 Uani
C55G C 0.1262(4) 0.6527(4) 1.4615(9) 0.0457 Uani
C56G C 0.1518(4) 0.6356(4) 1.4329(8) 0.0430 Uani
C57G C 0.1688(4) 0.6143(4) 1.4657(8) 0.0463 Uani
H39G H 0.1654 0.6086 1.5114 0.0560 Uiso
C58G C 0.1921(4) 0.6013(4) 1.4247(9) 0.0517 Uani
H40G H 0.2053 0.5860 1.4400 0.0620 Uiso
C59G C 0.1933(4) 0.6136(4) 1.3605(8) 0.0427 Uani
C60G C 0.2156(3) 0.6063(4) 1.3046(7) 0.0473 Uani
Pr3A Pr -0.16364(2) 0.10463(2) -0.13558(4) 0.0350 Uani
Pr3C Pr 0.66364(2) 0.39537(2) -0.13558(4) 0.0350 Uani
Pr3D Pr 0.39537(2) -0.16364(2) 1.63558(4) 0.0350 Uani
Pr3F Pr 0.10463(2) 0.66364(2) 1.63558(4) 0.0350 Uani
O33A O 0.6258(3) 0.1554(3) 0.4744(6) 0.0503 Uani
O33C O -0.1258(3) 0.3446(3) 0.4744(6) 0.0503 Uani
O33D O 0.3446(3) 0.6258(3) 1.0256(6) 0.0503 Uani
O33F O 0.1554(3) -0.1258(3) 1.0256(6) 0.0503 Uani
Cl15 Cl 0.41964(11) 0.19962(13) 0.1864(3) 0.0667 Uani
Cl16 Cl 0.35939(12) 0.22231(11) 0.9295(2) 0.0577 Uani
Fe1 Fe 0.53845(6) 0.09558(6) 0.78558(11) 0.0404 Uani
N1 N 0.5680(3) 0.0975(3) 0.8628(7) 0.0400 Uani
N2 N 0.5753(4) 0.0814(3) 0.7348(7) 0.0463 Uani
N3 N 0.5053(3) 0.1139(3) 0.8414(6) 0.0420 Uani
N4 N 0.5473(3) 0.1384(3) 0.7651(7) 0.0477 Uani
N5 N 0.5269(3) 0.0537(3) 0.8065(7) 0.0467 Uani
N6 N 0.5115(3) 0.0887(4) 0.7056(7) 0.0497 Uani
C1 C 0.5642(5) 0.1042(4) 0.9307(9) 0.0540 Uani
H1 H 0.5447 0.1091 0.9466 0.0650 Uiso
C2 C 0.5891(6) 0.1040(5) 0.9785(10) 0.0703 Uani
H2 H 0.5858 0.1092 1.0245 0.0840 Uiso
C3 C 0.6172(5) 0.0962(5) 0.9573(11) 0.0763 Uani
H3 H 0.6331 0.0956 0.9892 0.0920 Uiso
C4 C 0.6231(5) 0.0890(4) 0.8890(11) 0.0567 Uani
C5 C 0.6516(5) 0.0819(5) 0.8618(13) 0.0787 Uani
H4 H 0.6685 0.0832 0.8908 0.0950 Uiso
C6 C 0.6561(5) 0.0733(5) 0.7975(14) 0.0730 Uani
H5 H 0.6756 0.0680 0.7819 0.0880 Uiso
C7 C 0.6295(5) 0.0721(4) 0.7510(11) 0.0620 Uani
C8 C 0.6315(5) 0.0634(5) 0.6778(13) 0.0853 Uani
H6 H 0.6499 0.0573 0.6581 0.1010 Uiso
C9 C 0.6044(6) 0.0647(4) 0.6390(11) 0.0673 Uani
H7 H 0.6051 0.0599 0.5921 0.0810 Uiso
C10 C 0.5774(5) 0.0727(4) 0.6679(9) 0.0613 Uani
H8 H 0.5597 0.0721 0.6411 0.0740 Uiso
C11 C 0.6013(4) 0.0809(4) 0.7747(9) 0.0423 Uani
C12 C 0.5981(5) 0.0901(4) 0.8431(9) 0.0500 Uani
C13 C 0.5342(4) 0.0356(4) 0.8600(9) 0.0547 Uani
H9 H 0.5465 0.0437 0.8948 0.0660 Uiso
C14 C 0.5245(6) 0.0054(5) 0.8662(13) 0.0897 Uani
H10 H 0.5289 -0.0052 0.9068 0.1070 Uiso
C15 C 0.5086(7) -0.0095(6) 0.8154(14) 0.0973 Uani
H11 H 0.5038 -0.0303 0.8175 0.1180 Uiso
C16 C 0.5000(5) 0.0095(6) 0.7591(12) 0.0727 Uani
C17 C 0.4835(7) -0.0027(6) 0.7043(14) 0.0987 Uani
H12 H 0.4772 -0.0230 0.7056 0.1180 Uiso
C18 C 0.4769(6) 0.0139(7) 0.6518(12) 0.0983 Uani
H13 H 0.4669 0.0047 0.6147 0.1170 Uiso
C19 C 0.4842(5) 0.0474(6) 0.6471(11) 0.0770 Uani
C20 C 0.4771(6) 0.0691(6) 0.5975(12) 0.0980 Uani
H14 H 0.4661 0.0626 0.5591 0.1160 Uiso
C21 C 0.4850(5) 0.0989(5) 0.6009(9) 0.0687 Uani
H15 H 0.4783 0.1129 0.5679 0.0830 Uiso
C22 C 0.5038(5) 0.1082(5) 0.6556(8) 0.0627 Uani
H16 H 0.5110 0.1283 0.6571 0.0750 Uiso
C23 C 0.5008(4) 0.0592(5) 0.7009(9) 0.0527 Uani
C24 C 0.5098(4) 0.0401(4) 0.7564(10) 0.0513 Uani
C25 C 0.4842(4) 0.0998(5) 0.8753(9) 0.0553 Uani
H17 H 0.4825 0.0786 0.8730 0.0660 Uiso
C26 C 0.4631(5) 0.1175(5) 0.9169(10) 0.0690 Uani
H18 H 0.4466 0.1078 0.9383 0.0830 Uiso
C27 C 0.4673(5) 0.1485(5) 0.9252(11) 0.0723 Uani
H19 H 0.4546 0.1600 0.9539 0.0870 Uiso
C28 C 0.4914(6) 0.1620(5) 0.8887(11) 0.0737 Uani
C29 C 0.4966(6) 0.1945(6) 0.8941(12) 0.0923 Uani
H20 H 0.4843 0.2066 0.9226 0.1090 Uiso
C30 C 0.5177(7) 0.2062(6) 0.8602(12) 0.1027 Uani
H21 H 0.5222 0.2269 0.8657 0.1250 Uiso
C31 C 0.5348(6) 0.1886(6) 0.8137(11) 0.0853 Uani
C32 C 0.5573(6) 0.1999(5) 0.7661(13) 0.0933 Uani
H22 H 0.5620 0.2207 0.7677 0.1110 Uiso
C33 C 0.5723(6) 0.1824(5) 0.7186(12) 0.0840 Uani
H23 H 0.5851 0.1909 0.6852 0.1000 Uiso
C34 C 0.5676(5) 0.1520(4) 0.7227(10) 0.0577 Uani
H24 H 0.5793 0.1395 0.6942 0.0690 Uiso
C35 C 0.5309(4) 0.1578(4) 0.8065(10) 0.0520 Uani
C36 C 0.5087(4) 0.1441(4) 0.8482(9) 0.0467 Uani
loop_
_atom_site_aniso_label
_atom_site_aniso_U_11
_atom_site_aniso_U_22
_atom_site_aniso_U_33
_atom_site_aniso_U_23
_atom_site_aniso_U_13
_atom_site_aniso_U_12
N7 0.153(10) 0.156(10) 0.155(9) -0.002(7) -0.004(7) 0.006(7)
C37 0.152(10) 0.156(10) 0.150(10) 0.003(7) -0.001(7) 0.005(7)
C38 0.150(10) 0.155(10) 0.152(10) 0.003(7) -0.001(7) 0.006(7)
C39 0.150(10) 0.156(10) 0.148(10) 0.002(7) -0.002(7) 0.005(7)
C40 0.150(10) 0.158(10) 0.148(10) 0.000(7) -0.003(7) 0.004(7)
C41 0.152(10) 0.159(10) 0.154(10) -0.001(7) -0.006(7) 0.005(7)
C42 0.148(13) 0.154(13) 0.154(13) 0.007(9) -0.001(9) 0.002(9)
O1 0.102(15) 0.078(13) 0.158(16) 0.000(11) -0.021(12) 0.009(10)
Pr1 0.0357(6) 0.0405(6) 0.0497(6) -0.0023(5) -0.0035(5) 0.0019(5)
Pr2 0.0288(5) 0.0409(6) 0.0362(5) 0.0052(4) 0.0002(4) -0.0046(4)
Pr3 0.0351(6) 0.0413(6) 0.0287(5) 0.0002(4) -0.0008(4) 0.0017(4)
Pr4 0.0311(6) 0.0338(6) 0.0376(5) 0.0064(4) 0.0000(4) -0.0022(4)
Pr5 0.0354 0.0408 0.0361 0.0021 -0.0017 0.0011
Sb1 0.0398(7) 0.0319(7) 0.0551(7) -0.0020(5) -0.0018(6) 0.0084(5)
Sb2 0.0362(7) 0.0304(7) 0.0484(7) 0.0036(5) 0.0007(5) -0.0037(5)
Sb3 0.0245(6) 0.0422(7) 0.0492(7) 0.0017(5) -0.0033(5) -0.0057(5)
Sb4 0.0366(7) 0.0497(8) 0.0331(6) 0.0017(5) -0.0099(5) -0.0004(6)
Sb5 0.0449(8) 0.0671(9) 0.0282(6) -0.0030(6) 0.0002(5) 0.0043(6)
Sb6 0.0341(7) 0.0540(8) 0.0422(7) -0.0119(6) 0.0018(5) 0.0098(6)
Sb7 0.0385(7) 0.0377(7) 0.0348(6) 0.0100(5) -0.0028(5) 0.0020(5)
Sb8 0.0288(6) 0.0360(7) 0.0408(6) 0.0059(5) -0.0019(5) 0.0033(5)
Sb9 0.0277(7) 0.0570(8) 0.0385(7) 0.0061(6) 0.0059(5) -0.0050(6)
Sb10 0.0369(7) 0.0289(7) 0.0417(6) 0.0016(5) -0.0010(5) 0.0034(5)
Sb11 0.0311(7) 0.0395(7) 0.0388(6) 0.0027(5) -0.0026(5) -0.0096(5)
Sb12 0.0345(7) 0.0387(7) 0.0284(6) -0.0018(5) -0.0031(5) 0.0014(5)
Sb13 0.0311 0.0403 0.0318 -0.0037 0.0004 0.0003
Sb14 0.0359 0.0368 0.0338 0.0014 0.0022 0.0064
Sb15 0.0342 0.0488 0.025 0.0003 -0.0015 0.005
Cl1 0.032(2) 0.043(3) 0.043(2) -0.0010(19) -0.0039(18) -0.0010(19)
Cl2 0.068(4) 0.102(5) 0.042(3) -0.019(3) -0.013(2) 0.006(3)
Cl3 0.108(6) 0.075(5) 0.100(5) -0.026(4) 0.013(4) 0.000(4)
Cl4 0.046(3) 0.045(3) 0.083(4) -0.010(2) -0.011(3) -0.007(2)
Cl5 0.070(4) 0.090(4) 0.049(3) 0.025(3) 0.001(3) 0.006(3)
Cl6 0.059(3) 0.043(3) 0.086(4) 0.007(3) -0.023(3) 0.005(2)
Cl7 0.038(3) 0.084(4) 0.048(3) -0.011(2) 0.001(2) -0.014(2)
Cl8 0.053(3) 0.088(4) 0.075(4) -0.007(3) -0.003(3) 0.021(3)
Cl9 0.070(4) 0.065(4) 0.042(3) 0.008(2) 0.016(2) -0.004(3)
Cl10 0.047 0.078 0.056 -0.028 -0.004 0.01
Cl11 0.050(4) 0.050(4) 0.040(5) 0.000 0.000 0.000
Cl12 0.056(4) 0.129(6) 0.047(3) -0.009(3) 0.011(2) 0.012(3)
Cl13 0.075(4) 0.046(3) 0.067(3) -0.004(2) -0.017(3) 0.001(3)
Cl14 0.080(4) 0.048(3) 0.097(4) 0.016(3) -0.005(3) 0.009(3)
S1 0.052 0.047 0.038 0.012 0.003 -0.013
S2 0.051(3) 0.043(3) 0.053(3) -0.001(2) 0.011(2) -0.001(2)
S3 0.056(4) 0.082(4) 0.075(4) -0.006(3) 0.005(3) 0.019(3)
O2 0.052(8) 0.023(6) 0.043(7) 0.004(5) -0.015(5) 0.001(5)
O3 0.028(6) 0.048(7) 0.033(6) 0.011(5) -0.004(5) -0.001(5)
O4 0.024(6) 0.049(8) 0.038(6) -0.002(5) 0.001(5) 0.008(5)
O5 0.033(7) 0.055(8) 0.028(6) -0.004(5) -0.005(5) 0.010(5)
O6 0.039(8) 0.055(8) 0.047(7) 0.001(6) 0.013(6) 0.004(6)
O7 0.025(7) 0.044(8) 0.058(7) -0.001(6) 0.010(5) 0.004(5)
O8 0.027(6) 0.031(7) 0.051(7) 0.005(5) 0.004(5) 0.001(5)
O9 0.038(7) 0.031(7) 0.041(6) -0.004(5) -0.002(5) -0.008(5)
O10 0.029(7) 0.038(7) 0.046(7) -0.005(5) 0.000(5) -0.005(5)
O11 0.031(7) 0.055(8) 0.029(6) 0.003(5) -0.002(5) -0.001(5)
O12 0.048(8) 0.047(8) 0.032(6) 0.000(5) 0.005(5) -0.008(6)
O13 0.031(7) 0.040(7) 0.042(6) 0.003(5) -0.008(5) 0.003(5)
O14 0.044(7) 0.030(6) 0.020(5) 0.002(4) 0.000(5) 0.000(5)
O15 0.019(6) 0.050(7) 0.033(6) -0.003(5) -0.011(4) -0.010(5)
O16 0.047(7) 0.041(7) 0.028(6) -0.004(5) 0.016(5) -0.009(5)
O17 0.032(7) 0.037(7) 0.031(6) 0.008(5) 0.005(5) 0.000(5)
O18 0.028(6) 0.031(6) 0.029(6) 0.005(5) -0.005(4) 0.003(5)
O19 0.028(6) 0.035(7) 0.037(6) 0.006(5) -0.006(5) -0.001(5)
O20 0.035 0.039 0.057 0.01 -0.006 -0.002
O21 0.031 0.036 0.037 -0.001 0.007 0.003
O22 0.016 0.063 0.03 0 0 0.012
O23 0.028 0.036 0.045 0.001 0 0
O24 0.036 0.038 0.034 -0.009 0.008 -0.004
O25 0.054(11) 0.069(11) 0.154(15) -0.028(10) 0.026(10) -0.017(8)
O26 0.23(2) 0.110(16) 0.074(12) 0.010(10) 0.026(14) 0.094(16)
O27 0.145(18) 0.154(19) 0.069(11) -0.036(11) 0.014(11) -0.048(14)
O28 0.054(10) 0.084(12) 0.084(10) -0.012(8) 0.025(8) 0.014(8)
O29 0.048(9) 0.078(11) 0.072(9) -0.032(8) 0.025(7) -0.008(7)
O30 0.037(8) 0.080(11) 0.065(8) 0.022(7) 0.012(6) -0.019(7)
O31 0.156(19) 0.125(17) 0.146(16) 0.035(13) 0.114(15) 0.061(14)
O32 0.058(10) 0.088(12) 0.058(9) -0.017(8) 0.011(7) 0.014(8)
O33 0.064 0.043 0.044 0.025 -0.004 -0.007
O34 0.099 0.06 0.06 0.007 0.005 -0.044
O35 0.062 0.081 0.067 0.012 0.01 -0.03
O36 0.087 0.09 0.061 0.051 -0.02 -0.028
C43 0.073(11) 0.081(11) 0.058(10) 0.015(9) 0.023(9) 0.001(10)
C44 0.054(10) 0.091(10) 0.064(9) -0.006(9) 0.016(8) -0.006(9)
C45 0.076(10) 0.100(10) 0.072(9) -0.009(9) 0.005(8) 0.002(9)
C46 0.076(10) 0.102(10) 0.080(9) -0.006(9) 0.012(8) -0.005(9)
C47 0.066(10) 0.089(10) 0.060(9) -0.014(8) 0.019(8) 0.003(9)
C48 0.073(11) 0.086(11) 0.045(9) -0.030(8) 0.010(9) -0.018(10)
C49 0.043(9) 0.033(9) 0.078(10) 0.004(8) 0.003(8) -0.001(8)
C50 0.051(9) 0.044(8) 0.065(9) -0.009(7) 0.020(7) 0.007(7)
C51 0.055(9) 0.054(9) 0.076(9) 0.005(7) 0.027(7) -0.004(7)
C52 0.061(9) 0.057(8) 0.070(9) 0.005(7) 0.023(7) 0.008(8)
C53 0.055(9) 0.057(9) 0.068(9) 0.009(8) 0.027(7) 0.002(8)
C54 0.059(10) 0.051(10) 0.075(10) 0.015(9) 0.019(8) -0.001(9)
C55 0.047 0.046 0.044 0.017 0 -0.005
C56 0.038 0.053 0.038 0.012 0.006 -0.014
C57 0.047 0.055 0.037 0.015 0.006 -0.012
C58 0.046 0.057 0.052 0.016 0.002 -0.016
C59 0.038 0.048 0.042 0.016 0.007 -0.01
C60 0.044 0.048 0.05 0.021 0.012 -0.017
Pr1B 0.0357 0.0405 0.0497 0.0023 0.0035 0.0019
Pr2B 0.0288 0.0409 0.0362 -0.0052 -0.0002 -0.0046
Pr3B 0.0351 0.0413 0.0287 -0.0002 0.0008 0.0017
Pr4B 0.0311 0.0338 0.0376 -0.0064 0 -0.0022
Pr5B 0.0354 0.0408 0.0361 -0.0021 0.0017 0.0011
Sb1B 0.0398 0.0319 0.0551 0.002 0.0018 0.0084
Sb2B 0.0362 0.0304 0.0484 -0.0036 -0.0007 -0.0037
Sb3B 0.0245 0.0422 0.0492 -0.0017 0.0033 -0.0057
Sb4B 0.0366 0.0497 0.0331 -0.0017 0.0099 -0.0004
Sb5B 0.0449 0.0671 0.0282 0.003 -0.0002 0.0043
Sb6B 0.0341 0.054 0.0422 0.0119 -0.0018 0.0098
Sb7B 0.0385 0.0377 0.0348 -0.01 0.0028 0.002
Sb8B 0.0288 0.036 0.0408 -0.0059 0.0019 0.0033
Sb9B 0.0277 0.057 0.0385 -0.0061 -0.0059 -0.005
Sb10B 0.0369 0.0289 0.0417 -0.0016 0.001 0.0034
Sb11B 0.0311 0.0395 0.0388 -0.0027 0.0026 -0.0096
Sb12B 0.0345 0.0387 0.0284 0.0018 0.0031 0.0014
Sb13B 0.0311 0.0403 0.0318 0.0037 -0.0004 0.0003
Sb14B 0.0359 0.0368 0.0338 -0.0014 -0.0022 0.0064
Sb15B 0.0342 0.0488 0.025 -0.0003 0.0015 0.005
Cl1B 0.032 0.043 0.043 0.001 0.0039 -0.001
Cl2B 0.068 0.102 0.042 0.019 0.013 0.006
Cl3B 0.108 0.075 0.1 0.026 -0.013 0
Cl4B 0.046 0.045 0.083 0.01 0.011 -0.007
Cl5B 0.07 0.09 0.049 -0.025 -0.001 0.006
Cl6B 0.059 0.043 0.086 -0.007 0.023 0.005
Cl7B 0.038 0.084 0.048 0.011 -0.001 -0.014
Cl8B 0.053 0.088 0.075 0.007 0.003 0.021
Cl9B 0.07 0.065 0.042 -0.008 -0.016 -0.004
Cl10B 0.047 0.078 0.056 0.028 0.004 0.01
Cl12B 0.056 0.129 0.047 0.009 -0.011 0.012
Cl13B 0.075 0.046 0.067 0.004 0.017 0.001
Cl14B 0.08 0.048 0.097 -0.016 0.005 0.009
S1B 0.052 0.047 0.038 -0.012 -0.003 -0.013
S2B 0.051 0.043 0.053 0.001 -0.011 -0.001
S3B 0.056 0.082 0.075 0.006 -0.005 0.019
O2B 0.052 0.023 0.043 -0.004 0.015 0.001
O3B 0.028 0.048 0.033 -0.011 0.004 -0.001
O4B 0.024 0.049 0.038 0.002 -0.001 0.008
O5B 0.033 0.055 0.028 0.004 0.005 0.01
O6B 0.039 0.055 0.047 -0.001 -0.013 0.004
O7B 0.025 0.044 0.058 0.001 -0.01 0.004
O8B 0.027 0.031 0.051 -0.005 -0.004 0.001
O9B 0.038 0.031 0.041 0.004 0.002 -0.008
O10B 0.029 0.038 0.046 0.005 0 -0.005
O11B 0.031 0.055 0.029 -0.003 0.002 -0.001
O12B 0.048 0.047 0.032 0 -0.005 -0.008
O13B 0.031 0.04 0.042 -0.003 0.008 0.003
O14B 0.044 0.03 0.02 -0.002 0 0
O15B 0.019 0.05 0.033 0.003 0.011 -0.01
O16B 0.047 0.041 0.028 0.004 -0.016 -0.009
O17B 0.032 0.037 0.031 -0.008 -0.005 0
O18B 0.028 0.031 0.029 -0.005 0.005 0.003
O19B 0.028 0.035 0.037 -0.006 0.006 -0.001
O20B 0.035 0.039 0.057 -0.01 0.006 -0.002
O21B 0.031 0.036 0.037 0.001 -0.007 0.003
O23B 0.028 0.036 0.045 -0.001 0 0
O24B 0.036 0.038 0.034 0.009 -0.008 -0.004
O25B 0.054 0.069 0.154 0.028 -0.026 -0.017
O26B 0.23 0.11 0.074 -0.01 -0.026 0.094
O27B 0.145 0.154 0.069 0.036 -0.014 -0.048
O28B 0.054 0.084 0.084 0.012 -0.025 0.014
O29B 0.048 0.078 0.072 0.032 -0.025 -0.008
O30B 0.037 0.08 0.065 -0.022 -0.012 -0.019
O31B 0.156 0.125 0.146 -0.035 -0.114 0.061
O32B 0.058 0.088 0.058 0.017 -0.011 0.014
O33B 0.064 0.043 0.044 -0.025 0.004 -0.007
O34B 0.099 0.06 0.06 -0.007 -0.005 -0.044
O35B 0.062 0.081 0.067 -0.012 -0.01 -0.03
O36B 0.087 0.09 0.061 -0.051 0.02 -0.028
C43B 0.073 0.081 0.058 -0.015 -0.023 0.001
C44B 0.054 0.091 0.064 0.006 -0.016 -0.006
C45B 0.076 0.1 0.072 0.009 -0.005 0.002
C46B 0.076 0.102 0.08 0.006 -0.012 -0.005
C47B 0.066 0.089 0.06 0.014 -0.019 0.003
C48B 0.073 0.086 0.045 0.03 -0.01 -0.018
C49B 0.043 0.033 0.078 -0.004 -0.003 -0.001
C50B 0.051 0.044 0.065 0.009 -0.02 0.007
C51B 0.055 0.054 0.076 -0.005 -0.027 -0.004
C52B 0.061 0.057 0.07 -0.005 -0.023 0.008
C53B 0.055 0.057 0.068 -0.009 -0.027 0.002
C54B 0.059 0.051 0.075 -0.015 -0.019 -0.001
C55B 0.047 0.046 0.044 -0.017 0 -0.005
C56B 0.038 0.053 0.038 -0.012 -0.006 -0.014
C57B 0.047 0.055 0.037 -0.015 -0.006 -0.012
C58B 0.046 0.057 0.052 -0.016 -0.002 -0.016
C59B 0.038 0.048 0.042 -0.016 -0.007 -0.01
C60B 0.044 0.048 0.05 -0.021 -0.012 -0.017
Pr1E 0.0405 0.0357 0.0497 -0.0035 0.0023 -0.0019
Pr2E 0.0409 0.0288 0.0362 0.0002 -0.0052 0.0046
Pr3E 0.0413 0.0351 0.0287 -0.0008 -0.0002 -0.0017
Pr4E 0.0338 0.0311 0.0376 0 -0.0064 0.0022
Pr5E 0.0408(6) 0.0354(6) 0.0361(5) -0.0017(4) -0.0021(4) -0.0011(4)
Sb1E 0.0319 0.0398 0.0551 -0.0018 0.002 -0.0084
Sb2E 0.0304 0.0362 0.0484 0.0007 -0.0036 0.0037
Sb3E 0.0422 0.0245 0.0492 -0.0033 -0.0017 0.0057
Sb4E 0.0497 0.0366 0.0331 -0.0099 -0.0017 0.0004
Sb5E 0.0671 0.0449 0.0282 0.0002 0.003 -0.0043
Sb6E 0.054 0.0341 0.0422 0.0018 0.0119 -0.0098
Sb7E 0.0377 0.0385 0.0348 -0.0028 -0.01 -0.002
Sb8E 0.036 0.0288 0.0408 -0.0019 -0.0059 -0.0033
Sb9E 0.057 0.0277 0.0385 0.0059 -0.0061 0.005
Sb10E 0.0289 0.0369 0.0417 -0.001 -0.0016 -0.0034
Sb11E 0.0395 0.0311 0.0388 -0.0026 -0.0027 0.0096
Sb12E 0.0387 0.0345 0.0284 -0.0031 0.0018 -0.0014
Sb13E 0.0403(7) 0.0311(7) 0.0318(6) 0.0004(5) 0.0037(5) -0.0003(5)
Sb14E 0.0368(7) 0.0359(7) 0.0338(6) 0.0022(5) -0.0014(5) -0.0064(5)
Sb15E 0.0488(8) 0.0342(7) 0.0250(6) -0.0015(5) -0.0003(5) -0.0050(5)
Cl1E 0.043 0.032 0.043 -0.0039 0.001 0.001
Cl2E 0.102 0.068 0.042 -0.013 0.019 -0.006
Cl3E 0.075 0.108 0.1 0.013 0.026 0
Cl4E 0.045 0.046 0.083 -0.011 0.01 0.007
Cl5E 0.09 0.07 0.049 0.001 -0.025 -0.006
Cl6E 0.043 0.059 0.086 -0.023 -0.007 -0.005
Cl7E 0.084 0.038 0.048 0.001 0.011 0.014
Cl8E 0.088 0.053 0.075 -0.003 0.007 -0.021
Cl9E 0.065 0.07 0.042 0.016 -0.008 0.004
Cl10E 0.078(4) 0.047(3) 0.056(3) -0.004(2) 0.028(3) -0.010(3)
Cl12E 0.129 0.056 0.047 0.011 0.009 -0.012
Cl13E 0.046 0.075 0.067 -0.017 0.004 -0.001
Cl14E 0.048 0.08 0.097 -0.005 -0.016 -0.009
S1E 0.047 0.052 0.038 0.003 -0.012 0.013
S2E 0.043 0.051 0.053 0.011 0.001 0.001
S3E 0.082 0.056 0.075 0.005 0.006 -0.019
O2E 0.023 0.052 0.043 -0.015 -0.004 -0.001
O3E 0.048 0.028 0.033 -0.004 -0.011 0.001
O4E 0.049 0.024 0.038 0.001 0.002 -0.008
O5E 0.055 0.033 0.028 -0.005 0.004 -0.01
O6E 0.055 0.039 0.047 0.013 -0.001 -0.004
O7E 0.044 0.025 0.058 0.01 0.001 -0.004
O8E 0.031 0.027 0.051 0.004 -0.005 -0.001
O9E 0.031 0.038 0.041 -0.002 0.004 0.008
O10E 0.038 0.029 0.046 0 0.005 0.005
O11E 0.055 0.031 0.029 -0.002 -0.003 0.001
O12E 0.047 0.048 0.032 0.005 0 0.008
O13E 0.04 0.031 0.042 -0.008 -0.003 -0.003
O14E 0.03 0.044 0.02 0 -0.002 0
O15E 0.05 0.019 0.033 -0.011 0.003 0.01
O16E 0.041 0.047 0.028 0.016 0.004 0.009
O17E 0.037 0.032 0.031 0.005 -0.008 0
O18E 0.031 0.028 0.029 -0.005 -0.005 -0.003
O19E 0.035 0.028 0.037 -0.006 -0.006 0.001
O20E 0.039(7) 0.035(7) 0.057(7) -0.006(6) -0.010(6) 0.002(5)
O21E 0.036(7) 0.031(7) 0.037(6) 0.007(5) 0.001(5) -0.003(5)
O22E 0.063(12) 0.016(8) 0.030(8) 0.000 0.000 -0.012(7)
O23E 0.036(7) 0.028(7) 0.045(7) 0.000(5) -0.001(5) 0.000(5)
O24E 0.038(7) 0.036(7) 0.034(6) 0.008(5) 0.009(5) 0.004(5)
O25E 0.069 0.054 0.154 0.026 0.028 0.017
O26E 0.11 0.23 0.074 0.026 -0.01 -0.094
O27E 0.154 0.145 0.069 0.014 0.036 0.048
O28E 0.084 0.054 0.084 0.025 0.012 -0.014
O29E 0.078 0.048 0.072 0.025 0.032 0.008
O30E 0.08 0.037 0.065 0.012 -0.022 0.019
O31E 0.125 0.156 0.146 0.114 -0.035 -0.061
O32E 0.088 0.058 0.058 0.011 0.017 -0.014
O33E 0.043 0.064 0.044 -0.004 -0.025 0.007
O34E 0.06 0.099 0.06 0.005 -0.007 0.044
O35E 0.081 0.062 0.067 0.01 -0.012 0.03
O36E 0.09 0.087 0.061 -0.02 -0.051 0.028
C43E 0.081 0.073 0.058 0.023 -0.015 -0.001
C44E 0.091 0.054 0.064 0.016 0.006 0.006
C45E 0.1 0.076 0.072 0.005 0.009 -0.002
C46E 0.102 0.076 0.08 0.012 0.006 0.005
C47E 0.089 0.066 0.06 0.019 0.014 -0.003
C48E 0.086 0.073 0.045 0.01 0.03 0.018
C49E 0.033 0.043 0.078 0.003 -0.004 0.001
C50E 0.044 0.051 0.065 0.02 0.009 -0.007
C51E 0.054 0.055 0.076 0.027 -0.005 0.004
C52E 0.057 0.061 0.07 0.023 -0.005 -0.008
C53E 0.057 0.055 0.068 0.027 -0.009 -0.002
C54E 0.051 0.059 0.075 0.019 -0.015 0.001
C55E 0.046 0.047 0.044 0 -0.017 0.005
C56E 0.053 0.038 0.038 0.006 -0.012 0.014
C57E 0.055 0.047 0.037 0.006 -0.015 0.012
C58E 0.057 0.046 0.052 0.002 -0.016 0.016
C59E 0.048 0.038 0.042 0.007 -0.016 0.01
C60E 0.048 0.044 0.05 0.012 -0.021 0.017
Pr1G 0.0405 0.0357 0.0497 0.0035 -0.0023 -0.0019
Pr2G 0.0409 0.0288 0.0362 -0.0002 0.0052 0.0046
Pr3G 0.0413 0.0351 0.0287 0.0008 0.0002 -0.0017
Pr4G 0.0338 0.0311 0.0376 0 0.0064 0.0022
Pr5G 0.0408 0.0354 0.0361 0.0017 0.0021 -0.0011
Sb1G 0.0319 0.0398 0.0551 0.0018 -0.002 -0.0084
Sb2G 0.0304 0.0362 0.0484 -0.0007 0.0036 0.0037
Sb3G 0.0422 0.0245 0.0492 0.0033 0.0017 0.0057
Sb4G 0.0497 0.0366 0.0331 0.0099 0.0017 0.0004
Sb5G 0.0671 0.0449 0.0282 -0.0002 -0.003 -0.0043
Sb6G 0.054 0.0341 0.0422 -0.0018 -0.0119 -0.0098
Sb7G 0.0377 0.0385 0.0348 0.0028 0.01 -0.002
Sb8G 0.036 0.0288 0.0408 0.0019 0.0059 -0.0033
Sb9G 0.057 0.0277 0.0385 -0.0059 0.0061 0.005
Sb10G 0.0289 0.0369 0.0417 0.001 0.0016 -0.0034
Sb11G 0.0395 0.0311 0.0388 0.0026 0.0027 0.0096
Sb12G 0.0387 0.0345 0.0284 0.0031 -0.0018 -0.0014
Sb13G 0.0403 0.0311 0.0318 -0.0004 -0.0037 -0.0003
Sb14G 0.0368 0.0359 0.0338 -0.0022 0.0014 -0.0064
Sb15G 0.0488 0.0342 0.025 0.0015 0.0003 -0.005
Cl1G 0.043 0.032 0.043 0.0039 -0.001 0.001
Cl2G 0.102 0.068 0.042 0.013 -0.019 -0.006
Cl3G 0.075 0.108 0.1 -0.013 -0.026 0
Cl4G 0.045 0.046 0.083 0.011 -0.01 0.007
Cl5G 0.09 0.07 0.049 -0.001 0.025 -0.006
Cl6G 0.043 0.059 0.086 0.023 0.007 -0.005
Cl7G 0.084 0.038 0.048 -0.001 -0.011 0.014
Cl8G 0.088 0.053 0.075 0.003 -0.007 -0.021
Cl9G 0.065 0.07 0.042 -0.016 0.008 0.004
Cl10G 0.078 0.047 0.056 0.004 -0.028 -0.01
Cl12G 0.129 0.056 0.047 -0.011 -0.009 -0.012
Cl13G 0.046 0.075 0.067 0.017 -0.004 -0.001
Cl14G 0.048 0.08 0.097 0.005 0.016 -0.009
S1G 0.047 0.052 0.038 -0.003 0.012 0.013
S2G 0.043 0.051 0.053 -0.011 -0.001 0.001
S3G 0.082 0.056 0.075 -0.005 -0.006 -0.019
O2G 0.023 0.052 0.043 0.015 0.004 -0.001
O3G 0.048 0.028 0.033 0.004 0.011 0.001
O4G 0.049 0.024 0.038 -0.001 -0.002 -0.008
O5G 0.055 0.033 0.028 0.005 -0.004 -0.01
O6G 0.055 0.039 0.047 -0.013 0.001 -0.004
O7G 0.044 0.025 0.058 -0.01 -0.001 -0.004
O8G 0.031 0.027 0.051 -0.004 0.005 -0.001
O9G 0.031 0.038 0.041 0.002 -0.004 0.008
O10G 0.038 0.029 0.046 0 -0.005 0.005
O11G 0.055 0.031 0.029 0.002 0.003 0.001
O12G 0.047 0.048 0.032 -0.005 0 0.008
O13G 0.04 0.031 0.042 0.008 0.003 -0.003
O14G 0.03 0.044 0.02 0 0.002 0
O15G 0.05 0.019 0.033 0.011 -0.003 0.01
O16G 0.041 0.047 0.028 -0.016 -0.004 0.009
O17G 0.037 0.032 0.031 -0.005 0.008 0
O18G 0.031 0.028 0.029 0.005 0.005 -0.003
O19G 0.035 0.028 0.037 0.006 0.006 0.001
O20G 0.039 0.035 0.057 0.006 0.01 0.002
O21G 0.036 0.031 0.037 -0.007 -0.001 -0.003
O23G 0.036 0.028 0.045 0 0.001 0
O24G 0.038 0.036 0.034 -0.008 -0.009 0.004
O25G 0.069 0.054 0.154 -0.026 -0.028 0.017
O26G 0.11 0.23 0.074 -0.026 0.01 -0.094
O27G 0.154 0.145 0.069 -0.014 -0.036 0.048
O28G 0.084 0.054 0.084 -0.025 -0.012 -0.014
O29G 0.078 0.048 0.072 -0.025 -0.032 0.008
O30G 0.08 0.037 0.065 -0.012 0.022 0.019
O31G 0.125 0.156 0.146 -0.114 0.035 -0.061
O32G 0.088 0.058 0.058 -0.011 -0.017 -0.014
O33G 0.043 0.064 0.044 0.004 0.025 0.007
O34G 0.06 0.099 0.06 -0.005 0.007 0.044
O35G 0.081 0.062 0.067 -0.01 0.012 0.03
O36G 0.09 0.087 0.061 0.02 0.051 0.028
C43G 0.081 0.073 0.058 -0.023 0.015 -0.001
C44G 0.091 0.054 0.064 -0.016 -0.006 0.006
C45G 0.1 0.076 0.072 -0.005 -0.009 -0.002
C46G 0.102 0.076 0.08 -0.012 -0.006 0.005
C47G 0.089 0.066 0.06 -0.019 -0.014 -0.003
C48G 0.086 0.073 0.045 -0.01 -0.03 0.018
C49G 0.033 0.043 0.078 -0.003 0.004 0.001
C50G 0.044 0.051 0.065 -0.02 -0.009 -0.007
C51G 0.054 0.055 0.076 -0.027 0.005 0.004
C52G 0.057 0.061 0.07 -0.023 0.005 -0.008
C53G 0.057 0.055 0.068 -0.027 0.009 -0.002
C54G 0.051 0.059 0.075 -0.019 0.015 0.001
C55G 0.046 0.047 0.044 0 0.017 0.005
C56G 0.053 0.038 0.038 -0.006 0.012 0.014
C57G 0.055 0.047 0.037 -0.006 0.015 0.012
C58G 0.057 0.046 0.052 -0.002 0.016 0.016
C59G 0.048 0.038 0.042 -0.007 0.016 0.01
C60G 0.048 0.044 0.05 -0.012 0.021 0.017
Pr3A 0.0413 0.0351 0.0287 -0.0008 -0.0002 -0.0017
Pr3C 0.0413 0.0351 0.0287 0.0008 0.0002 -0.0017
Pr3D 0.0351 0.0413 0.0287 0.0002 -0.0008 0.0017
Pr3F 0.0351 0.0413 0.0287 -0.0002 0.0008 0.0017
O33A 0.043(8) 0.064(9) 0.044(7) -0.004(6) -0.025(6) 0.007(6)
O33C 0.043 0.064 0.044 0.004 0.025 0.007
O33D 0.064 0.043 0.044 0.025 -0.004 -0.007
O33F 0.064 0.043 0.044 -0.025 0.004 -0.007
Cl15 0.040(3) 0.076(4) 0.084(4) 0.013(3) -0.015(3) -0.004(3)
Cl16 0.052 0.063 0.058 0.005 -0.006 0.004
Fe1 0.0432(16) 0.0421(16) 0.0358(14) 0.0007(11) 0.0034(11) 0.0042(12)
N1 0.038(9) 0.035(9) 0.047(9) -0.001(7) 0.000(7) 0.001(7)
N2 0.062(11) 0.036(9) 0.041(9) 0.003(7) 0.014(8) 0.000(7)
N3 0.043(9) 0.044(10) 0.039(8) 0.006(7) -0.005(6) 0.007(7)
N4 0.047(10) 0.056(11) 0.040(9) -0.001(8) 0.009(7) 0.005(8)
N5 0.060(11) 0.044(10) 0.036(8) 0.004(7) 0.000(7) 0.004(8)
N6 0.053(11) 0.060(11) 0.036(9) 0.009(8) 0.003(7) 0.003(8)
C1 0.065(15) 0.052(13) 0.045(12) -0.020(9) 0.017(10) -0.004(10)
C2 0.11(2) 0.055(15) 0.046(12) -0.004(10) -0.011(13) 0.010(13)
C3 0.070(17) 0.083(18) 0.076(12) -0.021(13) -0.015(13) 0.004(14)
C4 0.052(14) 0.044(12) 0.074(11) 0.000(10) -0.003(11) 0.007(10)
C5 0.056(17) 0.060(16) 0.12(2) -0.019(14) -0.016(15) -0.001(12)
C6 0.031(12) 0.048(14) 0.14(2) -0.016(14) 0.023(14) 0.002(10)
C7 0.064(16) 0.045(13) 0.077(15) 0.003(10) 0.019(12) 0.010(11)
C8 0.068(17) 0.078(18) 0.11(2) 0.011(14) 0.066(15) 0.024(13)
C9 0.088(19) 0.042(13) 0.072(15) 0.001(10) 0.033(14) 0.017(12)
C10 0.094(18) 0.053(13) 0.037(11) -0.010(9) 0.028(11) 0.006(12)
C11 0.039(11) 0.029(10) 0.059(12) 0.012(9) 0.001(9) 0.011(8)
C12 0.069(15) 0.028(11) 0.053(12) -0.001(9) 0.002(11) 0.002(9)
C13 0.075(15) 0.038(12) 0.051(12) 0.005(9) 0.002(10) -0.011(10)
C14 0.14(3) 0.052(17) 0.077(17) 0.028(13) 0.037(16) 0.026(15)
C15 0.14(3) 0.062(19) 0.09(2) -0.005(16) 0.039(18) 0.004(17)
C16 0.069(17) 0.072(18) 0.077(16) -0.009(14) 0.013(13) -0.023(13)
C17 0.13(3) 0.066(19) 0.10(2) -0.001(16) -0.013(19) -0.031(17)
C18 0.12(2) 0.11(2) 0.065(17) -0.050(16) -0.012(16) -0.040(19)
C19 0.072(17) 0.092(19) 0.067(15) -0.003(11) -0.008(12) -0.031(14)
C20 0.12(2) 0.112(16) 0.062(15) 0.003(13) -0.019(14) -0.033(18)
C21 0.081(17) 0.089(14) 0.036(11) 0.024(11) 0.008(11) 0.008(13)
C22 0.088(17) 0.071(16) 0.029(10) 0.009(10) -0.012(10) -0.012(12)
C23 0.051(13) 0.051(13) 0.056(12) 0.000(10) 0.012(10) -0.011(10)
C24 0.054(13) 0.035(12) 0.065(13) 0.007(10) 0.019(10) -0.012(9)
C25 0.045(12) 0.059(14) 0.062(13) 0.029(10) -0.003(9) 0.010(9)
C26 0.064(15) 0.084(12) 0.059(13) 0.005(12) -0.001(11) -0.009(13)
C27 0.064(16) 0.074(12) 0.079(15) -0.010(13) -0.004(12) 0.040(12)
C28 0.093(19) 0.048(15) 0.080(16) 0.038(12) 0.011(14) -0.004(13)
C29 0.12(2) 0.066(18) 0.091(19) -0.008(14) 0.047(16) 0.024(15)
C30 0.15(3) 0.075(19) 0.083(18) -0.043(15) 0.065(18) 0.000(18)
C31 0.11(2) 0.08(2) 0.066(16) 0.004(14) 0.018(14) -0.008(16)
C32 0.12(2) 0.030(13) 0.13(2) -0.016(12) 0.006(16) -0.005(13)
C33 0.11(2) 0.048(15) 0.094(18) 0.012(11) 0.026(14) -0.012(13)
C34 0.068(15) 0.037(12) 0.068(14) -0.006(10) -0.003(11) 0.005(10)
C35 0.044(12) 0.041(12) 0.071(14) -0.003(10) -0.004(10) -0.012(9)
C36 0.043(12) 0.050(13) 0.047(11) -0.005(9) -0.001(9) 0.007(10)
loop_
_geom_bond_atom_site_label_1
_geom_bond_atom_site_label_2
_geom_bond_site_symmetry_1
_geom_bond_site_symmetry_2
Fe1 N1 1_555 1_555
N1 C1 1_555 1_555
N2 Fe1 1_555 1_555
N3 Fe1 1_555 1_555
N4 Fe1 1_555 1_555
N5 Fe1 1_555 1_555
N6 Fe1 1_555 1_555
C1 H1 1_555 1_555
C2 C1 1_555 1_555
H2 C2 1_555 1_555
C3 C2 1_555 1_555
H3 C3 1_555 1_555
C4 C3 1_555 1_555
C5 C4 1_555 1_555
H4 C5 1_555 1_555
C6 C5 1_555 1_555
H5 C6 1_555 1_555
C7 C6 1_555 1_555
C8 C7 1_555 1_555
H6 C8 1_555 1_555
C9 C8 1_555 1_555
H7 C9 1_555 1_555
C10 N2 1_555 1_555
H8 C10 1_555 1_555
C11 N2 1_555 1_555
C12 N1 1_555 1_555
C13 N5 1_555 1_555
H9 C13 1_555 1_555
C14 C13 1_555 1_555
H10 C14 1_555 1_555
C15 C14 1_555 1_555
H11 C15 1_555 1_555
C16 C15 1_555 1_555
C17 C16 1_555 1_555
H12 C17 1_555 1_555
C18 C17 1_555 1_555
H13 C18 1_555 1_555
C19 C18 1_555 1_555
C20 C19 1_555 1_555
H14 C20 1_555 1_555
C21 C20 1_555 1_555
H15 C21 1_555 1_555
C22 N6 1_555 1_555
H16 C22 1_555 1_555
C23 N6 1_555 1_555
C24 N5 1_555 1_555
C25 N3 1_555 1_555
H17 C25 1_555 1_555
C26 C25 1_555 1_555
H18 C26 1_555 1_555
C27 C26 1_555 1_555
H19 C27 1_555 1_555
C28 C27 1_555 1_555
C29 C28 1_555 1_555
H20 C29 1_555 1_555
C30 C29 1_555 1_555
H21 C30 1_555 1_555
C31 C30 1_555 1_555
C32 C31 1_555 1_555
H22 C32 1_555 1_555
C33 C32 1_555 1_555
H23 C33 1_555 1_555
C34 N4 1_555 1_555
H24 C34 1_555 1_555
C35 N4 1_555 1_555
C36 N3 1_555 1_555
N7 H25 1_555 1_555
C37 N7 1_555 1_555
C38 C37 1_555 1_555
H26 C38 1_555 1_555
C39 C38 1_555 1_555
H27 C39 1_555 1_555
C40 C39 1_555 1_555
H28 C40 1_555 1_555
C41 N7 1_555 1_555
H29 C41 1_555 1_555
C42 C37 1_555 1_555
H30 C42 1_555 1_555
H31 C42 1_555 1_555
H32 C42 1_555 1_555
O1 H33 1_555 1_555
H34 O1 1_555 1_555
Pr1 Cl1 1_555 1_555
Pr2 Cl1 1_555 1_555
Pr3 Cl1 1_555 1_555
Pr4 Cl1 1_555 1_555
Pr5 Cl10 1_555 1_555
Sb1 O6 1_555 1_555
Sb2 O2 1_555 1_555
Sb3 O2 1_555 1_555
Sb4 O3 1_555 1_555
Sb5 O4 1_555 1_555
Sb6 O5 1_555 1_555
Sb7 Cl14 1_555 1_555
Sb8 O9 1_555 1_555
Sb9 Cl12 1_555 1_555
Sb10 Cl13 1_555 1_555
Sb11 O16 1_555 1_555
Sb12 O14 1_555 1_555
Sb13 O20 1_555 1_555
Sb14 O23 1_555 1_555
Sb15 O21 1_555 1_555
Cl2 Pr1 1_555 1_555
Cl3 Pr1 1_555 1_555
Cl4 Pr1 1_555 1_555
Cl5 Pr2 1_555 1_555
Cl6 Pr2 1_555 1_555
Cl7 Pr3 1_555 1_555
Cl8 Pr3 1_555 1_555
Cl9 Pr4 1_555 1_555
Cl11 Pr5 1_555 1_555
S1 C56 1_555 1_555
S2 C50 1_555 1_555
S3 C44 1_555 1_555
O2 Pr1 1_555 1_555
O3 Pr1 1_555 1_555
O4 Pr1 1_555 1_555
O5 Pr1 1_555 1_555
O6 Pr1 1_555 1_555
O7 Pr1 1_555 1_555
O8 Pr4 1_555 1_555
O9 Pr4 1_555 1_555
O10 Pr2 1_555 1_555
O11 Pr2 1_555 1_555
O12 Pr3 1_555 1_555
O13 Pr3 1_555 1_555
O14 Pr3 1_555 1_555
O15 Pr2 1_555 1_555
O16 Pr2 1_555 1_555
O17 Pr3 1_555 1_555
O18 Pr4 1_555 1_555
O19 Pr2 1_555 1_555
O20 Pr5 1_555 1_555
O21 Pr5 1_555 1_555
O22 Pr5 1_555 1_555
O23 Sb15 1_555 1_555
O24 Sb13 1_555 1_555
O25 Pr4 1_555 1_555
O26 C43 1_555 1_555
O27 Sb13 1_555 1_555
O28 C48 1_555 1_555
O29 C49 1_555 1_555
O30 Pr4 1_555 1_555
O31 C54 1_555 1_555
O32 C54 1_555 1_555
O33 C55 1_555 1_555
O34 C55 1_555 1_555
O35 Pr2 1_555 1_555
O36 C60 1_555 1_555
C43 O25 1_555 1_555
C44 C43 1_555 1_555
C45 C44 1_555 1_555
H35 C45 1_555 1_555
C46 C45 1_555 1_555
H36 C46 1_555 1_555
C47 S3 1_555 1_555
C48 O27 1_555 1_555
C49 O30 1_555 1_555
C50 C49 1_555 1_555
C51 C50 1_555 1_555
H37 C51 1_555 1_555
C52 C51 1_555 1_555
H38 C52 1_555 1_555
C53 S2 1_555 1_555
C54 C53 1_555 1_555
C55 C56 1_555 1_555
C56 C57 1_555 1_555
C57 H39 1_555 1_555
C58 C57 1_555 1_555
H40 C58 1_555 1_555
C59 S1 1_555 1_555
C60 O35 1_555 1_555
Pr1B Cl1B 1_555 1_555
Pr2B Cl1B 1_555 1_555
Pr3B Cl1B 1_555 1_555
Pr4B Cl1B 1_555 1_555
Pr5B Cl11 1_555 1_555
Sb1B O6B 1_555 1_555
Sb2B O2B 1_555 1_555
Sb3B O2B 1_555 1_555
Sb4B O3B 1_555 1_555
Sb5B O4B 1_555 1_555
Sb6B O5B 1_555 1_555
Sb7B Cl14B 1_555 1_555
Sb8B O9B 1_555 1_555
Sb9B Cl12B 1_555 1_555
Sb10B Cl13B 1_555 1_555
Sb11B O16B 1_555 1_555
Sb12B O14B 1_555 1_555
Sb13B O20B 1_555 1_555
Sb14B O23B 1_555 1_555
Sb15B O22 1_555 1_555
Cl2B Pr1B 1_555 1_555
Cl3B Pr1B 1_555 1_555
Cl4B Pr1B 1_555 1_555
Cl5B Pr2B 1_555 1_555
Cl6B Pr2B 1_555 1_555
Cl7B Pr3B 1_555 1_555
Cl8B Pr3B 1_555 1_555
Cl9B Pr4B 1_555 1_555
Cl10B Pr5B 1_555 1_555
S1B C56B 1_555 1_555
S2B C50B 1_555 1_555
S3B C44B 1_555 1_555
O2B Pr1B 1_555 1_555
O3B Pr1B 1_555 1_555
O4B Pr1B 1_555 1_555
O5B Pr1B 1_555 1_555
O6B Pr1B 1_555 1_555
O7B Pr1B 1_555 1_555
O8B Pr4B 1_555 1_555
O9B Pr4B 1_555 1_555
O10B Pr2B 1_555 1_555
O11B Pr2B 1_555 1_555
O12B Pr3B 1_555 1_555
O13B Pr3B 1_555 1_555
O14B Pr3B 1_555 1_555
O15B Pr2B 1_555 1_555
O16B Pr2B 1_555 1_555
O17B Pr3B 1_555 1_555
O18B Pr4B 1_555 1_555
O19B Pr2B 1_555 1_555
O20B Pr5B 1_555 1_555
O21B Pr5B 1_555 1_555
O23B Pr5 1_555 1_555
O24B Sb13B 1_555 1_555
O25B Pr4B 1_555 1_555
O26B C43B 1_555 1_555
O27B Sb13B 1_555 1_555
O28B C48B 1_555 1_555
O29B C49B 1_555 1_555
O30B Pr4B 1_555 1_555
O31B C54B 1_555 1_555
O32B C54B 1_555 1_555
O33B C55B 1_555 1_555
O34B C55B 1_555 1_555
O35B Pr2B 1_555 1_555
O36B C60B 1_555 1_555
C43B O25B 1_555 1_555
C44B C43B 1_555 1_555
C45B C44B 1_555 1_555
H35B C45B 1_555 1_555
C46B C45B 1_555 1_555
H36B C46B 1_555 1_555
C47B S3B 1_555 1_555
C48B O27B 1_555 1_555
C49B O30B 1_555 1_555
C50B C49B 1_555 1_555
C51B C50B 1_555 1_555
H37B C51B 1_555 1_555
C52B C51B 1_555 1_555
H38B C52B 1_555 1_555
C53B S2B 1_555 1_555
C54B C53B 1_555 1_555
C55B C56B 1_555 1_555
C56B C57B 1_555 1_555
C57B H39B 1_555 1_555
C58B C57B 1_555 1_555
H40B C58B 1_555 1_555
C59B S1B 1_555 1_555
C60B O35B 1_555 1_555
Pr1E Cl1E 1_555 1_555
Pr2E Cl1E 1_555 1_555
Pr3E Cl1E 1_555 1_555
Pr4E Cl1E 1_555 1_555
Pr5E Cl11 1_555 1_555
Sb1E O6E 1_555 1_555
Sb2E O2E 1_555 1_555
Sb3E O2E 1_555 1_555
Sb4E O3E 1_555 1_555
Sb5E O4E 1_555 1_555
Sb6E O5E 1_555 1_555
Sb7E Cl14E 1_555 1_555
Sb8E O9E 1_555 1_555
Sb9E Cl12E 1_555 1_555
Sb10E Cl13E 1_555 1_555
Sb11E O16E 1_555 1_555
Sb12E O14E 1_555 1_555
Sb13E O20E 1_555 1_555
Sb14E O20B 1_555 1_555
Sb15E O21E 1_555 1_555
Cl2E Pr1E 1_555 1_555
Cl3E Pr1E 1_555 1_555
Cl4E Pr1E 1_555 1_555
Cl5E Pr2E 1_555 1_555
Cl6E Pr2E 1_555 1_555
Cl7E Pr3E 1_555 1_555
Cl8E Pr3E 1_555 1_555
Cl9E Pr4E 1_555 1_555
Cl10E Pr5E 1_555 1_555
S1E C56E 1_555 1_555
S2E C50E 1_555 1_555
S3E C44E 1_555 1_555
O2E Pr1E 1_555 1_555
O3E Pr1E 1_555 1_555
O4E Pr1E 1_555 1_555
O5E Pr1E 1_555 1_555
O6E Pr1E 1_555 1_555
O7E Pr1E 1_555 1_555
O8E Pr4E 1_555 1_555
O9E Pr4E 1_555 1_555
O10E Pr2E 1_555 1_555
O11E Pr2E 1_555 1_555
O12E Pr3E 1_555 1_555
O13E Pr3E 1_555 1_555
O14E Pr3E 1_555 1_555
O15E Pr2E 1_555 1_555
O16E Pr2E 1_555 1_555
O17E Pr3E 1_555 1_555
O18E Pr4E 1_555 1_555
O19E Pr2E 1_555 1_555
O20E Sb14 1_555 1_555
O21E Pr5E 1_555 1_555
O22E Pr5E 1_555 1_555
O23E Sb14E 1_555 1_555
O24E Pr5B 1_555 1_555
O25E Pr4E 1_555 1_555
O26E C43E 1_555 1_555
O27E Sb13E 1_555 1_555
O28E Pr5B 1_555 1_555
O29E C49E 1_555 1_555
O30E Pr4E 1_555 1_555
O31E C54E 1_555 1_555
O32E Pr5B 1_555 1_555
O33E C55E 1_555 1_555
O34E C55E 1_555 1_555
O35E Pr2E 1_555 1_555
O36E C60E 1_555 1_555
C43E O25E 1_555 1_555
C44E C43E 1_555 1_555
C45E C44E 1_555 1_555
H35E C45E 1_555 1_555
C46E C45E 1_555 1_555
H36E C46E 1_555 1_555
C47E S3E 1_555 1_555
C48E O27E 1_555 1_555
C49E O30E 1_555 1_555
C50E C49E 1_555 1_555
C51E C50E 1_555 1_555
H37E C51E 1_555 1_555
C52E C51E 1_555 1_555
H38E C52E 1_555 1_555
C53E S2E 1_555 1_555
C54E O32E 1_555 1_555
C55E C56E 1_555 1_555
C56E C57E 1_555 1_555
C57E H39E 1_555 1_555
C58E C57E 1_555 1_555
H40E C58E 1_555 1_555
C59E S1E 1_555 1_555
C60E O35E 1_555 1_555
Pr1G Cl1G 1_555 1_555
Pr2G Cl1G 1_555 1_555
Pr3G Cl1G 1_555 1_555
Pr4G Cl1G 1_555 1_555
Pr5G Cl11 1_555 1_555
Sb1G O6G 1_555 1_555
Sb2G O2G 1_555 1_555
Sb3G O2G 1_555 1_555
Sb4G O3G 1_555 1_555
Sb5G O4G 1_555 1_555
Sb6G O5G 1_555 1_555
Sb7G Cl14G 1_555 1_555
Sb8G O9G 1_555 1_555
Sb9G Cl12G 1_555 1_555
Sb10G Cl13G 1_555 1_555
Sb11G O16G 1_555 1_555
Sb12G O14G 1_555 1_555
Sb13G O20G 1_555 1_555
Sb14G O20 1_555 1_555
Sb15G O22E 1_555 1_555
Cl2G Pr1G 1_555 1_555
Cl3G Pr1G 1_555 1_555
Cl4G Pr1G 1_555 1_555
Cl5G Pr2G 1_555 1_555
Cl6G Pr2G 1_555 1_555
Cl7G Pr3G 1_555 1_555
Cl8G Pr3G 1_555 1_555
Cl9G Pr4G 1_555 1_555
Cl10G Pr5G 1_555 1_555
S1G C56G 1_555 1_555
S2G C50G 1_555 1_555
S3G C44G 1_555 1_555
O2G Pr1G 1_555 1_555
O3G Pr1G 1_555 1_555
O4G Pr1G 1_555 1_555
O5G Pr1G 1_555 1_555
O6G Pr1G 1_555 1_555
O7G Pr1G 1_555 1_555
O8G Pr4G 1_555 1_555
O9G Pr4G 1_555 1_555
O10G Pr2G 1_555 1_555
O11G Pr2G 1_555 1_555
O12G Pr3G 1_555 1_555
O13G Pr3G 1_555 1_555
O14G Pr3G 1_555 1_555
O15G Pr2G 1_555 1_555
O16G Pr2G 1_555 1_555
O17G Pr3G 1_555 1_555
O18G Pr4G 1_555 1_555
O19G Pr2G 1_555 1_555
O20G Pr5 1_555 1_555
O21G Pr5G 1_555 1_555
O23G Pr5E 1_555 1_555
O24G Pr5 1_555 1_555
O25G Pr4G 1_555 1_555
O26G C43G 1_555 1_555
O27G Sb13G 1_555 1_555
O28G Pr5 1_555 1_555
O29G C49G 1_555 1_555
O30G Pr4G 1_555 1_555
O31G C54G 1_555 1_555
O32G Pr5 1_555 1_555
O33G C55G 1_555 1_555
O34G C55G 1_555 1_555
O35G Pr2G 1_555 1_555
O36G C60G 1_555 1_555
C43G O25G 1_555 1_555
C44G C43G 1_555 1_555
C45G C44G 1_555 1_555
H35G C45G 1_555 1_555
C46G C45G 1_555 1_555
H36G C46G 1_555 1_555
C47G S3G 1_555 1_555
C48G O27G 1_555 1_555
C49G O30G 1_555 1_555
C50G C49G 1_555 1_555
C51G C50G 1_555 1_555
H37G C51G 1_555 1_555
C52G C51G 1_555 1_555
H38G C52G 1_555 1_555
C53G S2G 1_555 1_555
C54G O32G 1_555 1_555
C55G C56G 1_555 1_555
C56G C57G 1_555 1_555
C57G H39G 1_555 1_555
C58G C57G 1_555 1_555
H40G C58G 1_555 1_555
C59G S1G 1_555 1_555
C60G O35G 1_555 1_555
Pr3A O33B 1_555 1_555
Pr3C O33 1_555 1_555
Pr3D O33E 1_555 1_555
Pr3F O33G 1_555 1_555
O33A Pr3 1_555 1_555
O33C Pr3B 1_555 1_555
O33D Pr3G 1_555 1_555
O33F Pr3E 1_555 1_555
C4 C12 1_555 1_555
C7 C11 1_555 1_555
C9 C10 1_555 1_555
C11 C12 1_555 1_555
C16 C24 1_555 1_555
C19 C23 1_555 1_555
C21 C22 1_555 1_555
C23 C24 1_555 1_555
C28 C36 1_555 1_555
C31 C35 1_555 1_555
C33 C34 1_555 1_555
C35 C36 1_555 1_555
C40 C41 1_555 1_555
Pr2 O4 1_555 1_555
Pr3 O6 1_555 1_555
Pr3 O16 1_555 1_555
Pr4 O2 1_555 1_555
Pr4 O14 1_555 1_555
Pr4 O15 1_555 1_555
Sb1 O7 1_555 1_555
Sb1 O13 1_555 1_555
Sb2 O7 1_555 1_555
Sb2 O8 1_555 1_555
Sb3 O3 1_555 1_555
Sb3 O9 1_555 1_555
Sb4 O4 1_555 1_555
Sb4 O10 1_555 1_555
Sb5 O5 1_555 1_555
Sb5 O11 1_555 1_555
Sb6 O6 1_555 1_555
Sb6 O12 1_555 1_555
Sb7 O8 1_555 1_555
Sb7 O13 1_555 1_555
Sb7 O14 1_555 1_555
Sb8 O10 1_555 1_555
Sb8 O15 1_555 1_555
Sb9 O11 1_555 1_555
Sb9 O12 1_555 1_555
Sb9 O16 1_555 1_555
Sb10 O15 1_555 1_555
Sb10 O18 1_555 1_555
Sb10 O19 1_555 1_555
Sb11 O17 1_555 1_555
Sb11 O19 1_555 1_555
Sb12 O17 1_555 1_555
Sb12 O18 1_555 1_555
Sb13 O21 1_555 1_555
Sb14 O24 1_555 1_555
Sb15 O22 1_555 1_555
O20 Pr5E 1_555 1_555
O22 Pr5B 1_555 1_555
O23 Pr5B 1_555 1_555
O24 Pr5E 1_555 1_555
O28 Pr5E 1_555 1_555
O32 Pr5E 1_555 1_555
C46 C47 1_555 1_555
C47 C48 1_555 1_555
C52 C53 1_555 1_555
C58 C59 1_555 1_555
C59 C60 1_555 1_555
Pr2B O4B 1_555 1_555
Pr3B O6B 1_555 1_555
Pr3B O16B 1_555 1_555
Pr4B O2B 1_555 1_555
Pr4B O14B 1_555 1_555
Pr4B O15B 1_555 1_555
Pr5B O20E 1_555 1_555
Sb1B O7B 1_555 1_555
Sb1B O13B 1_555 1_555
Sb2B O7B 1_555 1_555
Sb2B O8B 1_555 1_555
Sb3B O3B 1_555 1_555
Sb3B O9B 1_555 1_555
Sb4B O4B 1_555 1_555
Sb4B O10B 1_555 1_555
Sb5B O5B 1_555 1_555
Sb5B O11B 1_555 1_555
Sb6B O6B 1_555 1_555
Sb6B O12B 1_555 1_555
Sb7B O8B 1_555 1_555
Sb7B O13B 1_555 1_555
Sb7B O14B 1_555 1_555
Sb8B O10B 1_555 1_555
Sb8B O15B 1_555 1_555
Sb9B O11B 1_555 1_555
Sb9B O12B 1_555 1_555
Sb9B O16B 1_555 1_555
Sb10B O15B 1_555 1_555
Sb10B O18B 1_555 1_555
Sb10B O19B 1_555 1_555
Sb11B O17B 1_555 1_555
Sb11B O19B 1_555 1_555
Sb12B O17B 1_555 1_555
Sb12B O18B 1_555 1_555
Sb13B O21B 1_555 1_555
Sb14B O24B 1_555 1_555
Sb14B O20G 1_555 1_555
Sb15B O21B 1_555 1_555
Sb15B O23B 1_555 1_555
O20B Pr5G 1_555 1_555
O24B Pr5G 1_555 1_555
O28B Pr5G 1_555 1_555
O32B Pr5G 1_555 1_555
C46B C47B 1_555 1_555
C47B C48B 1_555 1_555
C52B C53B 1_555 1_555
C58B C59B 1_555 1_555
C59B C60B 1_555 1_555
Pr2E O4E 1_555 1_555
Pr3E O6E 1_555 1_555
Pr3E O16E 1_555 1_555
Pr4E O2E 1_555 1_555
Pr4E O14E 1_555 1_555
Pr4E O15E 1_555 1_555
Pr5E O20E 1_555 1_555
Sb1E O7E 1_555 1_555
Sb1E O13E 1_555 1_555
Sb2E O7E 1_555 1_555
Sb2E O8E 1_555 1_555
Sb3E O3E 1_555 1_555
Sb3E O9E 1_555 1_555
Sb4E O4E 1_555 1_555
Sb4E O10E 1_555 1_555
Sb5E O5E 1_555 1_555
Sb5E O11E 1_555 1_555
Sb6E O6E 1_555 1_555
Sb6E O12E 1_555 1_555
Sb7E O8E 1_555 1_555
Sb7E O13E 1_555 1_555
Sb7E O14E 1_555 1_555
Sb8E O10E 1_555 1_555
Sb8E O15E 1_555 1_555
Sb9E O11E 1_555 1_555
Sb9E O12E 1_555 1_555
Sb9E O16E 1_555 1_555
Sb10E O15E 1_555 1_555
Sb10E O18E 1_555 1_555
Sb10E O19E 1_555 1_555
Sb11E O17E 1_555 1_555
Sb11E O19E 1_555 1_555
Sb12E O17E 1_555 1_555
Sb12E O18E 1_555 1_555
Sb13E O21E 1_555 1_555
Sb13E O24E 1_555 1_555
Sb14E O24E 1_555 1_555
Sb15E O22E 1_555 1_555
Sb15E O23E 1_555 1_555
O22E Pr5G 1_555 1_555
O23E Pr5G 1_555 1_555
O28E C48E 1_555 1_555
C46E C47E 1_555 1_555
C47E C48E 1_555 1_555
C52E C53E 1_555 1_555
C53E C54E 1_555 1_555
C58E C59E 1_555 1_555
C59E C60E 1_555 1_555
Pr2G O4G 1_555 1_555
Pr3G O6G 1_555 1_555
Pr3G O16G 1_555 1_555
Pr4G O2G 1_555 1_555
Pr4G O14G 1_555 1_555
Pr4G O15G 1_555 1_555
Pr5G O20G 1_555 1_555
Sb1G O7G 1_555 1_555
Sb1G O13G 1_555 1_555
Sb2G O7G 1_555 1_555
Sb2G O8G 1_555 1_555
Sb3G O3G 1_555 1_555
Sb3G O9G 1_555 1_555
Sb4G O4G 1_555 1_555
Sb4G O10G 1_555 1_555
Sb5G O5G 1_555 1_555
Sb5G O11G 1_555 1_555
Sb6G O6G 1_555 1_555
Sb6G O12G 1_555 1_555
Sb7G O8G 1_555 1_555
Sb7G O13G 1_555 1_555
Sb7G O14G 1_555 1_555
Sb8G O10G 1_555 1_555
Sb8G O15G 1_555 1_555
Sb9G O11G 1_555 1_555
Sb9G O12G 1_555 1_555
Sb9G O16G 1_555 1_555
Sb10G O15G 1_555 1_555
Sb10G O18G 1_555 1_555
Sb10G O19G 1_555 1_555
Sb11G O17G 1_555 1_555
Sb11G O19G 1_555 1_555
Sb12G O17G 1_555 1_555
Sb12G O18G 1_555 1_555
Sb13G O21G 1_555 1_555
Sb13G O24G 1_555 1_555
Sb14G O23G 1_555 1_555
Sb14G O24G 1_555 1_555
Sb15G O21G 1_555 1_555
Sb15G O23G 1_555 1_555
O28G C48G 1_555 1_555
C46G C47G 1_555 1_555
C47G C48G 1_555 1_555
C52G C53G 1_555 1_555
C53G C54G 1_555 1_555
C58G C59G 1_555 1_555
C59G C60G 1_555 1_555

#END
