
#######################################################################
#
#                 Cambridge Crystallographic Data Centre
#                                CCDC 
#
#######################################################################
#
# If this CIF has been generated from an entry in the Cambridge 
# Structural Database, then it will include bibliographic, chemical, 
# crystal, experimental, refinement or atomic coordinate data resulting 
# from the CCDC's data processing and validation procedures.
#
#######################################################################

data_KEYROX
_chemical_formula_moiety         'C4 H6 N10 Zn3'
_symmetry_cell_setting           cubic
_symmetry_space_group_name_H-M   'I -4 3 m'
_symmetry_Int_Tables_number      217
_space_group_name_Hall           'I -4 2 3'
loop_
_symmetry_equiv_pos_site_id
_symmetry_equiv_pos_as_xyz
1 x,y,z
2 x,-y,-z
3 -x,-y,z
4 -x,y,-z
5 y,-x,-z
6 -y,-x,z
7 -y,x,-z
8 y,x,z
9 y,z,x
10 -y,-z,x
11 y,-z,-x
12 -y,z,-x
13 z,-y,-x
14 z,y,x
15 -z,y,-x
16 -z,-y,x
17 z,x,y
18 -z,x,-y
19 -z,-x,y
20 z,-x,-y
21 x,z,y
22 x,-z,-y
23 -x,z,-y
24 -x,-z,y
25 1/2+x,1/2+y,1/2+z
26 1/2+x,1/2-y,1/2-z
27 1/2-x,1/2-y,1/2+z
28 1/2-x,1/2+y,1/2-z
29 1/2+y,1/2-x,1/2-z
30 1/2-y,1/2-x,1/2+z
31 1/2-y,1/2+x,1/2-z
32 1/2+y,1/2+x,1/2+z
33 1/2+y,1/2+z,1/2+x
34 1/2-y,1/2-z,1/2+x
35 1/2+y,1/2-z,1/2-x
36 1/2-y,1/2+z,1/2-x
37 1/2+z,1/2-y,1/2-x
38 1/2+z,1/2+y,1/2+x
39 1/2-z,1/2+y,1/2-x
40 1/2-z,1/2-y,1/2+x
41 1/2+z,1/2+x,1/2+y
42 1/2-z,1/2+x,1/2-y
43 1/2-z,1/2-x,1/2+y
44 1/2+z,1/2-x,1/2-y
45 1/2+x,1/2+z,1/2+y
46 1/2+x,1/2-z,1/2-y
47 1/2-x,1/2+z,1/2-y
48 1/2-x,1/2-z,1/2+y
_cell_length_a                   16.9958(16)
_cell_length_b                   16.9958(16)
_cell_length_c                   16.9958(16)
_cell_angle_alpha                90
_cell_angle_beta                 90
_cell_angle_gamma                90
_cell_volume                     4909.36
loop_
_atom_site_label
_atom_site_type_symbol
_atom_site_fract_x
_atom_site_fract_y
_atom_site_fract_z
_atom_site_U_iso_or_equiv
_atom_site_thermal_displace_type
Zn1 Zn -0.0000 -0.5000 -0.7500 0.0875 Uani
N1 N -0.09058(15) -0.47266(13) -0.81796(14) 0.0915 Uani
C1 C -0.12406(15) -0.5116(3) -0.87594(15) 0.0923 Uani
C2 C -0.0982(4) -0.5931(4) -0.9018(4) 0.1603 Uani
H1 H -0.0427 -0.5990 -0.8932 0.1920 Uiso
H2 H -0.1266 -0.6326 -0.8734 0.1920 Uiso
N2 N -0.1288(2) -0.4027(2) -0.8154(2) 0.1323 Uani
N1N N -0.18204(14) -0.47266(13) -0.90942(15) 0.0915 Uani
H1N H -0.1068 -0.5990 -0.9573 0.1920 Uiso
N2N N -0.1846(2) -0.4027(2) -0.8712(2) 0.1323 Uani
N1B N 0.09058(15) -0.52734(13) -0.81796(14) 0.0915 Uani
C1B C 0.12406(15) -0.4884(3) -0.87594(15) 0.0923 Uani
C2B C 0.0982(4) -0.4069(4) -0.9018(4) 0.1603 Uani
H1B H 0.0427 -0.4010 -0.8932 0.1920 Uiso
H2B H 0.1266 -0.3674 -0.8734 0.1920 Uiso
N2B N 0.1288(2) -0.5973(2) -0.8154(2) 0.1323 Uani
N1L N 0.18204(14) -0.52734(13) -0.90942(15) 0.0915 Uani
H1L H 0.1068 -0.4010 -0.9573 0.1920 Uiso
N2L N 0.1846(2) -0.5973(2) -0.8712(2) 0.1323 Uani
Zn1L Zn 0.2500 -0.5000 -1.0000 0.0875 Uani
Zn1N Zn -0.2500 -0.5000 -1.0000 0.0875 Uani
N1BA N 0.02734(13) -0.40942(15) -0.68204(14) 0.0915 Uani
N1DA N -0.02734(13) -0.59058(15) -0.68204(14) 0.0915 Uani
loop_
_atom_site_aniso_label
_atom_site_aniso_U_11
_atom_site_aniso_U_22
_atom_site_aniso_U_33
_atom_site_aniso_U_23
_atom_site_aniso_U_13
_atom_site_aniso_U_12
Zn1 0.0928(3) 0.0928(3) 0.0768(3) 0.000 0.000 0.000
N1 0.0990(15) 0.0874(18) 0.0880(14) -0.0037(10) -0.0094(12) 0.0073(11)
C1 0.0985(13) 0.080(4) 0.0985(13) 0.0000(16) -0.0074(19) 0.0000(16)
C2 0.182(4) 0.117(4) 0.182(4) -0.043(4) -0.069(5) 0.043(4)
N2 0.151(3) 0.114(2) 0.132(3) -0.033(2) -0.032(2) 0.025(2)
N1N 0.088 0.0874 0.099 -0.0073 -0.0094 0.0037
N2N 0.132 0.114 0.151 -0.025 -0.032 0.033
N1B 0.099 0.0874 0.088 0.0037 0.0094 0.0073
C1B 0.0985 0.08 0.0985 0 0.0074 0
C2B 0.182 0.117 0.182 0.043 0.069 0.043
N2B 0.151 0.114 0.132 0.033 0.032 0.025
N1L 0.088 0.0874 0.099 0.0073 0.0094 0.0037
N2L 0.132 0.114 0.151 0.025 0.032 0.033
Zn1L 0.0768 0.0928 0.0928 0 0 0
Zn1N 0.0768 0.0928 0.0928 0 0 0
N1BA 0.0874 0.099 0.088 -0.0094 0.0037 -0.0073
N1DA 0.0874 0.099 0.088 0.0094 -0.0037 -0.0073
loop_
_geom_bond_atom_site_label_1
_geom_bond_atom_site_label_2
_geom_bond_site_symmetry_1
_geom_bond_site_symmetry_2
Zn1 N1 1_555 1_555
N1 C1 1_555 1_555
C1 C2 1_555 1_555
C2 H1 1_555 1_555
H2 C2 1_555 1_555
N2 N1 1_555 1_555
N1N C1 1_555 1_555
H1N C2 1_555 1_555
N2N N2 1_555 1_555
N1B Zn1 1_555 1_555
C1B N1B 1_555 1_555
C2B C1B 1_555 1_555
H1B C2B 1_555 1_555
H2B C2B 1_555 1_555
N2B N1B 1_555 1_555
N1L C1B 1_555 1_555
H1L C2B 1_555 1_555
N2L N2B 1_555 1_555
Zn1L N1L 1_555 1_555
Zn1N N1N 1_555 1_555
N1BA Zn1 1_555 1_555
N1DA Zn1 1_555 1_555
N1N N2N 1_555 1_555
N1L N2L 1_555 1_555

#END
