
#######################################################################
#
#                 Cambridge Crystallographic Data Centre
#                                CCDC 
#
#######################################################################
#
# If this CIF has been generated from an entry in the Cambridge 
# Structural Database, then it will include bibliographic, chemical, 
# crystal, experimental, refinement or atomic coordinate data resulting 
# from the CCDC's data processing and validation procedures.
#
#######################################################################

data_OBUBIW
_chemical_formula_moiety         'C5 H10 Cu1 La2 O21'
_symmetry_cell_setting           hexagonal
_symmetry_space_group_name_H-M   'P -6 2 c'
_symmetry_Int_Tables_number      190
_space_group_name_Hall           'P -6c -2c'
loop_
_symmetry_equiv_pos_site_id
_symmetry_equiv_pos_as_xyz
1 x,y,z
2 -y,x-y,z
3 -x+y,-x,z
4 x,y,1/2-z
5 -y,x-y,1/2-z
6 -x+y,-x,1/2-z
7 y,x,-z
8 x-y,-y,-z
9 -x,-x+y,-z
10 y,x,1/2+z
11 x-y,-y,1/2+z
12 -x,-x+y,1/2+z
_cell_length_a                   15.522(2)
_cell_length_b                   15.522(2)
_cell_length_c                   13.712(3)
_cell_angle_alpha                90
_cell_angle_beta                 90
_cell_angle_gamma                120
_cell_volume                     2861.06
loop_
_atom_site_label
_atom_site_type_symbol
_atom_site_fract_x
_atom_site_fract_y
_atom_site_fract_z
_atom_site_U_iso_or_equiv
_atom_site_thermal_displace_type
O3 O 0.310(10) 0.218(3) 0.2500 1.2902 Uani
O7 O 0.8474(12) 0.5663(13) 0.7500 0.1138 Uani
O10 O 0.0000 0.0000 0.10(9) 2.0000 Uiso
La1 La 0.6667 0.3333 0.53937(3) 0.0241 Uani
Cu1 Cu 0.52863(6) 0.50200(6) 0.2500 0.0251 Uani
O1 O 0.4725(3) 0.2397(4) 0.5226(3) 0.0366 Uani
O2 O 0.5863(3) 0.3843(3) 0.4071(3) 0.0342 Uani
O4 O 0.4598(3) 0.3997(3) 0.3486(3) 0.0388 Uani
C1 C 0.4976(4) 0.3620(4) 0.4031(4) 0.0296 Uani
O5 O 0.674(3) 0.329(8) 0.7500 0.1039 Uani
C2 C 0.4232(5) 0.2783(6) 0.4670(5) 0.0483 Uani
H1 H 0.3907 0.3029 0.5100 0.0580 Uiso
H2 H 0.3727 0.2261 0.4267 0.0580 Uiso
C3 C 0.4102(5) 0.1416(4) 0.5514(5) 0.0404 Uani
H3 H 0.3842 0.0992 0.4944 0.0480 Uiso
H4 H 0.3546 0.1366 0.5883 0.0480 Uiso
O6 O 0.6830(5) 0.5063(5) 0.2500 0.0364 Uani
O8 O 0.5608(3) 0.1653(3) 0.6229(3) 0.0355 Uani
C4 C 0.4688(4) 0.1082(4) 0.6139(4) 0.0302 Uani
O9 O 0.5813(3) 0.6047(3) 0.3501(3) 0.0422 Uani
O1A O 0.7603(4) 0.2328(5) 0.5226(3) 0.0366 Uani
O1B O 0.7672(5) 0.5275(3) 0.5226(3) 0.0366 Uani
O2A O 0.6157(3) 0.2020(4) 0.4071(3) 0.0342 Uani
O2B O 0.7980(4) 0.4137(3) 0.4071(3) 0.0342 Uani
O5A O 0.671(8) 0.345(9) 0.7500 0.1039 Uani
O5B O 0.655(9) 0.326(3) 0.7500 0.1039 Uani
O8A O 0.8347(3) 0.3955(4) 0.6229(3) 0.0355 Uani
O8B O 0.6045(4) 0.4392(3) 0.6229(3) 0.0355 Uani
O4C O 0.4598(3) 0.3997(3) 0.1514(3) 0.0388 Uani
O9C O 0.5813(3) 0.6047(3) 0.1499(3) 0.0422 Uani
La1C La 0.6667 0.3333 0.96063(3) 0.0241 Uani
O9H O 0.4187(3) 0.0234(4) 0.6499(3) 0.0422 Uani
C4H C 0.5312(4) 0.6394(6) 0.3861(4) 0.0302 Uani
loop_
_atom_site_aniso_label
_atom_site_aniso_U_11
_atom_site_aniso_U_22
_atom_site_aniso_U_33
_atom_site_aniso_U_23
_atom_site_aniso_U_13
_atom_site_aniso_U_12
O3 1.9(2) 0.20(2) 0.40(6) 0.000 0.000 -0.503
O7 0.123(12) 0.126(12) 0.096(8) 0.000 0.000 0.065(9)
La1 0.02242(17) 0.02242(17) 0.0275(2) 0.000 0.000 0.01121(9)
Cu1 0.0335(5) 0.0253(4) 0.0237(3) 0.000 0.000 0.0200(4)
O1 0.0285(16) 0.0277(19) 0.0531(19) 0.0162(18) -0.0004(15) 0.0137(17)
O2 0.0318(19) 0.038(2) 0.0358(16) 0.0102(15) 0.0020(15) 0.0196(18)
O4 0.037(2) 0.041(2) 0.043(2) 0.0154(17) 0.0002(16) 0.0230(17)
C1 0.030(2) 0.027(2) 0.033(2) 0.0045(18) 0.0011(19) 0.0152(19)
O5 0.043(16) 0.24(6) 0.041(7) 0.000 0.000 0.08(4)
C2 0.028(3) 0.047(3) 0.073(4) 0.034(3) 0.006(2) 0.021(3)
C3 0.033(3) 0.028(3) 0.052(3) 0.015(2) -0.007(2) 0.009(2)
O6 0.042(3) 0.036(3) 0.036(3) 0.000 0.000 0.023(2)
O8 0.036(2) 0.0313(18) 0.0392(17) 0.0069(15) -0.0061(15) 0.0169(15)
C4 0.035(3) 0.031(2) 0.028(2) 0.0065(18) 0.0023(18) 0.019(2)
O9 0.045 0.0423 0.048 -0.0167 -0.0002 0.0283
O1A 0.0277 0.0288 0.0531 -0.0166 -0.0162 0.014
O1B 0.0288 0.0285 0.0531 0.0004 0.0166 0.0148
O2A 0.038 0.0306 0.0358 -0.0082 -0.0102 0.0184
O2B 0.0306 0.0318 0.0358 -0.002 0.0082 0.0122
O5A 0.24 0.123 0.041 0 0 0.16
O5B 0.123 0.043 0.041 0 0 -0.037
O8A 0.0313 0.0335 0.0392 -0.013 -0.0069 0.0144
O8B 0.0335 0.036 0.0392 0.0061 0.013 0.0191
O4C 0.037 0.041 0.043 -0.0154 -0.0002 0.023
O9C 0.045 0.0423 0.048 0.0167 0.0002 0.0283
La1C 0.02242 0.02242 0.0275 0 0 0.01121
O9H 0.045(2) 0.0307(19) 0.048(2) 0.0165(17) -0.0002(19) 0.0167(17)
C4H 0.035 0.028 0.028 -0.0042 0.0023 0.016
loop_
_geom_bond_atom_site_label_1
_geom_bond_atom_site_label_2
_geom_bond_site_symmetry_1
_geom_bond_site_symmetry_2
La1 O1 1_555 1_555
Cu1 O4 1_555 1_555
O1 C2 1_555 1_555
O2 La1 1_555 1_555
O4 C1 1_555 1_555
C1 O2 1_555 1_555
O5 La1 1_555 1_555
C2 C1 1_555 1_555
H1 C2 1_555 1_555
H2 C2 1_555 1_555
C3 O1 1_555 1_555
H3 C3 1_555 1_555
H4 C3 1_555 1_555
O6 Cu1 1_555 1_555
O8 La1 1_555 1_555
C4 C3 1_555 1_555
O9 Cu1 1_555 1_555
O1A La1 1_555 1_555
O1B La1 1_555 1_555
O2A La1 1_555 1_555
O2B La1 1_555 1_555
O5A La1 1_555 1_555
O5B La1 1_555 1_555
O8A La1 1_555 1_555
O8B La1 1_555 1_555
O4C Cu1 1_555 1_555
O9C Cu1 1_555 1_555
La1C O5 1_555 1_555
O9H C4 1_555 1_555
C4H O9 1_555 1_555
O5 O5A 1_555 1_555
O5 O5B 1_555 1_555
O8 C4 1_555 1_555
O5A O5B 1_555 1_555
O5A La1C 1_555 1_555
O5B La1C 1_555 1_555

#END
