
#######################################################################
#
#                 Cambridge Crystallographic Data Centre
#                                CCDC 
#
#######################################################################
#
# If this CIF has been generated from an entry in the Cambridge 
# Structural Database, then it will include bibliographic, chemical, 
# crystal, experimental, refinement or atomic coordinate data resulting 
# from the CCDC's data processing and validation procedures.
#
#######################################################################

data_FOGFAK
_chemical_formula_moiety         '(C14 H23 Cl1 N2 O8 Zn2)n'
_symmetry_cell_setting           triclinic
_symmetry_space_group_name_H-M   'P -1'
_symmetry_Int_Tables_number      2
_space_group_name_Hall           '-P 1'
loop_
_symmetry_equiv_pos_site_id
_symmetry_equiv_pos_as_xyz
1 x,y,z
2 -x,-y,-z
_cell_length_a                   8.0769(12)
_cell_length_b                   10.8723(19)
_cell_length_c                   12.909(3)
_cell_angle_alpha                101.511(6)
_cell_angle_beta                 96.399(6)
_cell_angle_gamma                109.817(5)
_cell_volume                     1025.1
loop_
_atom_site_label
_atom_site_type_symbol
_atom_site_fract_x
_atom_site_fract_y
_atom_site_fract_z
Zn1 Zn 0.51291(11) 0.64882(9) 0.49816(7)
Zn2 Zn 0.10138(11) 0.36887(9) 0.47758(7)
O1 O 0.3290(7) 0.4519(5) 0.4368(4)
H1 H 0.311(11) 0.419(8) 0.370(2)
Cl1 Cl 0.4363(11) 0.9055(7) 0.0139(4)
N1 N 0.6409(9) 0.9892(7) 0.4111(6)
H2 H 0.744(6) 1.047(7) 0.399(6)
H3 H 0.682(9) 0.964(8) 0.469(4)
N2 N 0.3623(9) 0.7554(7) 0.4280(5)
H4 H 0.242(3) 0.719(7) 0.422(6)
H5 H 0.396(9) 0.822(6) 0.490(4)
C1 C 0.5200(11) 0.8997(8) 0.3188(7)
C2 C 0.3789(11) 0.7860(8) 0.3266(6)
C3 C 0.2564(12) 0.6995(9) 0.2341(7)
H6 H 0.1629 0.6209 0.2395
C4 C 0.2699(14) 0.7271(11) 0.1347(8)
H7 H 0.1854 0.6683 0.0721
C5 C 0.4063(15) 0.8402(12) 0.1269(8)
C6 C 0.5331(14) 0.9267(10) 0.2183(8)
H8 H 0.628 1.0037 0.2117
O2 O 0.0171(7) 0.1738(5) 0.3941(5)
O3 O 0.2878(7) 0.1608(5) 0.4271(5)
C7 C 0.1261(11) 0.1117(8) 0.3829(7)
C8 C 0.0524(14) -0.0317(10) 0.3175(10)
H9 H 0.073 -0.0348 0.2438
H10 H -0.0767 -0.071 0.3161
H11 H 0.1127 -0.0834 0.3498
O4 O -0.1322(7) 0.3856(5) 0.4406(4)
O5 O -0.4119(7) 0.3230(6) 0.3558(4)
C9 C -0.2514(11) 0.3399(7) 0.3538(6)
C10 C -0.1933(12) 0.3104(9) 0.2482(6)
H12 H -0.2959 0.2829 0.189
H13 H -0.1474 0.2373 0.2451
H14 H -0.0986 0.3917 0.2416
O6 O 0.1070(7) 0.3617(6) 0.6295(4)
O7 O 0.3883(8) 0.3702(6) 0.6454(5)
C11 C 0.2520(12) 0.3665(8) 0.6821(7)
C12 C 0.2600(14) 0.3703(10) 0.7993(7)
H15 H 0.355 0.3401 0.8245
H16 H 0.1445 0.3104 0.8094
H17 H 0.2858 0.4629 0.8406
Zn1A Zn -0.51291(11) 0.35118(9) 0.50184(7)
Zn1A_2 Zn 0.48709(11) 0.35118(9) 0.50184(7)
O1A O 0.6710(7) 0.5481(5) 0.5632(4)
O3A O 0.7122(7) 0.8392(5) 0.5729(5)
O5A O 0.4119(7) 0.6770(6) 0.6442(4)
O7A O 0.6117(8) 0.6298(6) 0.3546(5)
O8 O 0.7175(15) 0.6924(13) 0.7773(8)
H18 H 0.6255 0.7008 0.7473
C13 C 0.711(4) 0.698(2) 0.8858(13)
H19 H 0.7271 0.6172 0.9035
H20 H 0.5934 0.6975 0.9
C14 C 0.855(4) 0.821(3) 0.954(2)
H21 H 0.9712 0.8238 0.9361
H22 H 0.8568 0.8222 1.0297
H23 H 0.8339 0.9008 0.94
loop_
_geom_bond_atom_site_label_1
_geom_bond_atom_site_label_2
_geom_bond_site_symmetry_1
_geom_bond_site_symmetry_2
Zn1 O1 1_555 1_555
Zn2 O1 1_555 1_555
O1 H1 1_555 1_555
Cl1 C5 1_555 1_555
N1 H2 1_555 1_555
H3 N1 1_555 1_555
N2 Zn1 1_555 1_555
H4 N2 1_555 1_555
H5 N2 1_555 1_555
C1 N1 1_555 1_555
C2 N2 1_555 1_555
C3 C2 1_555 1_555
H6 C3 1_555 1_555
C4 C3 1_555 1_555
H7 C4 1_555 1_555
C5 C4 1_555 1_555
C6 C1 1_555 1_555
H8 C6 1_555 1_555
O2 Zn2 1_555 1_555
O3 C7 1_555 1_555
C7 O2 1_555 1_555
C8 C7 1_555 1_555
H9 C8 1_555 1_555
H10 C8 1_555 1_555
H11 C8 1_555 1_555
O4 Zn2 1_555 1_555
O5 C9 1_555 1_555
C9 O4 1_555 1_555
C10 C9 1_555 1_555
H12 C10 1_555 1_555
H13 C10 1_555 1_555
H14 C10 1_555 1_555
O6 Zn2 1_555 1_555
O7 C11 1_555 1_555
C11 O6 1_555 1_555
C12 C11 1_555 1_555
H15 C12 1_555 1_555
H16 C12 1_555 1_555
H17 C12 1_555 1_555
O8 H18 1_555 1_555
C13 O8 1_555 1_555
H19 C13 1_555 1_555
H20 C13 1_555 1_555
C14 C13 1_555 1_555
H21 C14 1_555 1_555
H22 C14 1_555 1_555
H23 C14 1_555 1_555
Zn1A O5 1_555 1_555
Zn1A_2 O1 1_555 1_555
O1A Zn1 1_555 1_555
O3A Zn1 1_555 1_555
O5A Zn1 1_555 1_555
O7A Zn1 1_555 1_555
C1 C2 1_555 1_555
C5 C6 1_555 1_555
O3 Zn1A_2 1_555 1_555
O7 Zn1A_2 1_555 1_555
Zn1A_2 O1A 1_555 1_555

#END
