
#######################################################################
#
#                 Cambridge Crystallographic Data Centre
#                                CCDC 
#
#######################################################################
#
# If this CIF has been generated from an entry in the Cambridge 
# Structural Database, then it will include bibliographic, chemical, 
# crystal, experimental, refinement or atomic coordinate data resulting 
# from the CCDC's data processing and validation procedures.
#
#######################################################################

data_IDORAW
_chemical_formula_moiety         '(C44 H54 Cu2 Mn2 N6 O21)n'
_symmetry_cell_setting           tetragonal
_symmetry_space_group_name_H-M   'P 41 21 2'
_symmetry_Int_Tables_number      92
_space_group_name_Hall           'P 4abw 2nw'
loop_
_symmetry_equiv_pos_site_id
_symmetry_equiv_pos_as_xyz
1 x,y,z
2 -x,-y,1/2+z
3 1/2-y,1/2+x,1/4+z
4 1/2+y,1/2-x,3/4+z
5 1/2-x,1/2+y,1/4-z
6 1/2+x,1/2-y,3/4-z
7 y,x,-z
8 -y,-x,1/2-z
_cell_length_a                   20.467(3)
_cell_length_b                   20.467(3)
_cell_length_c                   34.344(7)
_cell_angle_alpha                90
_cell_angle_beta                 90
_cell_angle_gamma                90
_cell_volume                     14386.6
loop_
_atom_site_label
_atom_site_type_symbol
_atom_site_fract_x
_atom_site_fract_y
_atom_site_fract_z
_atom_site_U_iso_or_equiv
_atom_site_thermal_displace_type
Mn1 Mn 0.31852(4) 0.13038(4) 0.19785(2) 0.0402 Uani
Mn2 Mn 0.11302(4) 0.31028(4) 0.21380(2) 0.0402 Uani
Cu1 Cu 0.31323(4) -0.02893(3) -0.079706(19) 0.0447 Uani
Cu2 Cu 0.45192(3) 0.17063(4) 0.063902(19) 0.0439 Uani
C1 C 0.3448(3) 0.0513(3) 0.03046(14) 0.0397 Uani
H1 H 0.3882 0.0381 0.0316 0.0480 Uiso
C2 C 0.3014(3) 0.0219(3) 0.00379(14) 0.0393 Uani
C3 C 0.2372(3) 0.0435(3) 0.00110(15) 0.0413 Uani
H2 H 0.2096 0.0258 -0.0176 0.0500 Uiso
C4 C 0.2144(3) 0.0911(3) 0.02598(16) 0.0433 Uani
H3 H 0.1711 0.1044 0.0244 0.0520 Uiso
C5 C 0.2556(3) 0.1196(3) 0.05362(15) 0.0393 Uani
H4 H 0.2395 0.1508 0.0708 0.0470 Uiso
C6 C 0.3219(3) 0.1005(2) 0.05521(15) 0.0377 Uani
C7 C 0.3560(3) -0.0764(2) -0.00948(15) 0.0407 Uani
C8 C 0.3731(3) -0.1281(3) -0.03915(15) 0.0423 Uani
C9 C 0.3582(3) 0.1363(2) 0.11685(15) 0.0390 Uani
C10 C 0.4164(3) 0.1630(3) 0.13996(15) 0.0427 Uani
C11 C 0.3880(2) 0.1185(3) -0.04589(14) 0.0380 Uani
H5 H 0.4183 0.0848 -0.0478 0.0460 Uiso
C12 C 0.3320(2) 0.1186(2) -0.06992(14) 0.0333 Uani
C13 C 0.2886(2) 0.1697(3) -0.06623(15) 0.0380 Uani
H6 H 0.2513 0.1700 -0.0818 0.0460 Uiso
C14 C 0.2983(3) 0.2200(3) -0.04046(16) 0.0427 Uani
H7 H 0.2684 0.2542 -0.0391 0.0510 Uiso
C15 C 0.3541(3) 0.2195(3) -0.01599(16) 0.0397 Uani
H8 H 0.3610 0.2527 0.0020 0.0480 Uiso
C16 C 0.3976(2) 0.1688(3) -0.01955(13) 0.0359 Uani
C17 C 0.3154(2) 0.0735(3) -0.13283(14) 0.0343 Uani
C18 C 0.3068(3) 0.0095(3) -0.15543(15) 0.0410 Uani
C19 C 0.5116(2) 0.1663(3) -0.00853(15) 0.0377 Uani
C20 C 0.5662(3) 0.1647(3) 0.02265(16) 0.0443 Uani
C21 C 0.1893(3) 0.1898(3) 0.21311(15) 0.0413 Uani
C22 C 0.2402(3) 0.2475(2) 0.21238(16) 0.0410 Uani
N1 N 0.3240(2) -0.0268(2) -0.02251(13) 0.0433 Uani
N2 N 0.3674(2) 0.1319(2) 0.07976(13) 0.0407 Uani
N3 N 0.3212(2) 0.0645(2) -0.09486(11) 0.0328 Uani
N4 N 0.4524(2) 0.1670(2) 0.00616(12) 0.0373 Uani
O1 O 0.62277(18) 0.1616(2) 0.01049(11) 0.0455 Uani
O2 O 0.52798(17) 0.1695(2) -0.04307(11) 0.0432 Uani
O3 O 0.4433(2) 0.2828(2) 0.06278(14) 0.0553 Uani
O4 O 0.5494(2) 0.1677(3) 0.05775(11) 0.0539 Uani
O5 O 0.2123(2) 0.13348(18) 0.20900(13) 0.0460 Uani
O6 O 0.2985(2) 0.23326(19) 0.20693(13) 0.0478 Uani
O7 O 0.2193(2) 0.30298(19) 0.22000(13) 0.0484 Uani
O8 O 0.1308(2) 0.20500(19) 0.21551(12) 0.0444 Uani
O9 O 0.4653(2) 0.1815(2) 0.12044(11) 0.0490 Uani
O10 O 0.3984(2) -0.18021(19) -0.02764(11) 0.0490 Uani
O11 O 0.3719(2) -0.08821(18) 0.02624(10) 0.0448 Uani
O12 O 0.31761(19) 0.12606(18) -0.15126(10) 0.0392 Uani
O13 O 0.3016(2) 0.0138(2) -0.19145(10) 0.0441 Uani
O14 O 0.3055(2) -0.0431(2) -0.13629(12) 0.0491 Uani
O15 O 0.2104(2) -0.0643(2) -0.07580(14) 0.0577 Uani
O16 O 0.3570(2) -0.1180(2) -0.07433(11) 0.0521 Uani
O17 O 0.4134(2) 0.1638(2) 0.17614(11) 0.0472 Uani
O18 O 0.30757(19) 0.11697(18) 0.13624(10) 0.0398 Uani
Mn1C Mn 0.63038(4) 0.18148(4) -0.05215(2) 0.0402 Uani
Mn2D Mn 0.38698(4) -0.18972(4) 0.03620(2) 0.0402 Uani
Mn2F Mn 0.31028(4) 0.11302(4) -0.21380(2) 0.0402 Uani
O1B O 0.3384(2) 0.12277(18) 0.26049(11) 0.0455 Uani
O2B O 0.3305(2) 0.02798(17) 0.20693(11) 0.0432 Uani
O10D O 0.1016(2) 0.31979(19) 0.27764(11) 0.0490 Uani
O11D O 0.1281(2) 0.41179(18) 0.22376(10) 0.0448 Uani
O12F O 0.12606(18) 0.31761(19) 0.15126(10) 0.0392 Uani
O13F O 0.0138(2) 0.3016(2) 0.19145(10) 0.0441 Uani
C23 C 1.0086(3) 0.1183(3) 0.88133(19) 0.0487 Uani
C24 C 1.0646(3) 0.1435(3) 0.86480(17) 0.0477 Uani
H9 H 1.0616 0.1755 0.8457 0.0570 Uiso
C25 C 1.1264(3) 0.1208(4) 0.87674(17) 0.0543 Uani
H10 H 1.1640 0.1384 0.8658 0.0650 Uiso
C26 C 1.1312(4) 0.0723(4) 0.9048(2) 0.0577 Uani
H11 H 1.1718 0.0563 0.9123 0.0690 Uiso
C27 C 1.0766(4) 0.0488(4) 0.9211(3) 0.0843 Uani
H12 H 1.0802 0.0166 0.9400 0.1010 Uiso
C28 C 1.0165(4) 0.0699(3) 0.9110(2) 0.0597 Uani
H13 H 0.9799 0.0528 0.9234 0.0710 Uiso
C29 C 0.9335(5) 0.1389(6) 0.8249(2) 0.0927 Uani
H14 H 0.8895 0.1506 0.8182 0.1110 Uiso
H15 H 0.9436 0.0969 0.8140 0.1110 Uiso
H16 H 0.9631 0.1709 0.8146 0.1110 Uiso
N5 N 0.9183(2) 0.2020(2) 0.88587(14) 0.0437 Uani
C30 C 0.9324(4) 0.2036(5) 0.92863(19) 0.0723 Uani
H17 H 0.9135 0.1659 0.9408 0.0870 Uiso
H18 H 0.9138 0.2424 0.9398 0.0870 Uiso
H19 H 0.9788 0.2036 0.9327 0.0870 Uiso
C31 C 0.9464(4) 0.2589(3) 0.8666(3) 0.0780 Uani
H20 H 0.9932 0.2572 0.8685 0.0930 Uiso
H21 H 0.9308 0.2979 0.8791 0.0930 Uiso
H22 H 0.9337 0.2592 0.8397 0.0930 Uiso
C32 C 0.8462(3) 0.2086(4) 0.8817(2) 0.0580 Uani
H23 H 0.8250 0.1721 0.8939 0.0690 Uiso
H24 H 0.8349 0.2097 0.8546 0.0690 Uiso
H25 H 0.8320 0.2484 0.8939 0.0690 Uiso
C33 C 0.9403(3) 0.1363(3) 0.86807(19) 0.0530 Uani
H26 H 0.9105 0.1024 0.8777 0.0630 Uiso
O19 O 0.1768(3) 0.8483(2) 0.98031(16) 0.0673 Uani
O20 O 0.7337(4) 0.1460(7) 0.0569(2) 0.1430 Uani
O21 O 0.5412(5) 0.3331(4) 0.0125(4) 0.1530 Uani
C34 C 0.5022(5) -0.0581(6) 0.8273(3) 0.0960 Uani
C35 C 0.5355(7) -0.0721(5) 0.8617(3) 0.1080 Uani
H27 H 0.5580 -0.1115 0.8636 0.1290 Uiso
C36 C 0.5364(8) -0.0301(10) 0.8934(4) 0.1520 Uani
H28 H 0.5548 -0.0418 0.9171 0.1830 Uiso
C37 C 0.5057(4) 0.0356(5) 0.8867(3) 0.0797 Uani
H29 H 0.5095 0.0695 0.9046 0.0950 Uiso
C38 C 0.4727(4) 0.0420(5) 0.8537(3) 0.0720 Uani
H30 H 0.4507 0.0812 0.8499 0.0860 Uiso
C39 C 0.4680(5) -0.0013(4) 0.8261(3) 0.0813 Uani
H31 H 0.4406 0.0069 0.8051 0.0970 Uiso
C40 C 0.5014(6) -0.0794(6) 0.7577(4) 0.1043 Uani
H32 H 0.5355 -0.0474 0.7556 0.1570 Uiso
H33 H 0.4597 -0.0582 0.7555 0.1570 Uiso
H34 H 0.5059 -0.1111 0.7373 0.1570 Uiso
N6 N 0.4519(6) -0.1627(6) 0.7989(4) 0.1237 Uani
C41 C 0.3762(8) -0.1406(10) 0.8033(6) 0.1570 Uani
H35 H 0.3740 -0.0999 0.8170 0.2350 Uiso
H36 H 0.3526 -0.1734 0.8174 0.2350 Uiso
H37 H 0.3572 -0.1355 0.7779 0.2350 Uiso
C42 C 0.451(3) -0.1757(15) 0.8454(8) 0.4733 Uani
H38 H 0.4507 -0.1346 0.8589 0.7100 Uiso
H39 H 0.4899 -0.1996 0.8526 0.7100 Uiso
H40 H 0.4133 -0.2005 0.8522 0.7100 Uiso
C43 C 0.4528(9) -0.2245(10) 0.7770(8) 0.2350 Uani
H41 H 0.4137 -0.2488 0.7825 0.3510 Uiso
H42 H 0.4902 -0.2498 0.7847 0.3510 Uiso
H43 H 0.4552 -0.2154 0.7496 0.3510 Uiso
C44 C 0.5060(6) -0.1129(6) 0.7965(3) 0.0920 Uani
H44 H 0.5483 -0.1350 0.7985 0.1110 Uiso
loop_
_atom_site_aniso_label
_atom_site_aniso_U_11
_atom_site_aniso_U_22
_atom_site_aniso_U_33
_atom_site_aniso_U_23
_atom_site_aniso_U_13
_atom_site_aniso_U_12
Mn1 0.0532(5) 0.0339(4) 0.0336(4) 0.0000(3) 0.0023(3) 0.0034(3)
Mn2 0.0503(4) 0.0398(4) 0.0305(4) -0.0030(3) -0.0065(3) 0.0049(3)
Cu1 0.0641(4) 0.0406(3) 0.0295(3) 0.0022(2) -0.0065(3) -0.0056(3)
Cu2 0.0420(3) 0.0590(4) 0.0307(3) -0.0055(3) 0.0007(3) -0.0053(3)
C1 0.043(3) 0.044(3) 0.032(2) 0.000(2) -0.003(2) -0.005(2)
C2 0.054(3) 0.039(2) 0.025(2) -0.0016(19) 0.004(2) -0.010(2)
C3 0.048(3) 0.044(3) 0.032(2) 0.002(2) -0.006(2) -0.016(2)
C4 0.044(3) 0.045(3) 0.041(3) 0.010(2) 0.001(2) 0.002(2)
C5 0.047(3) 0.035(2) 0.036(2) 0.002(2) -0.002(2) 0.002(2)
C6 0.041(3) 0.034(2) 0.038(2) 0.0005(19) -0.002(2) -0.0034(19)
C7 0.059(3) 0.029(2) 0.034(2) 0.0018(19) -0.003(2) -0.007(2)
C8 0.059(3) 0.037(2) 0.031(2) -0.005(2) -0.001(2) -0.006(2)
C9 0.052(3) 0.035(2) 0.030(2) -0.0024(19) -0.002(2) 0.001(2)
C10 0.046(3) 0.049(3) 0.033(2) -0.005(2) -0.002(2) -0.003(2)
C11 0.034(2) 0.048(3) 0.032(2) 0.006(2) 0.0002(19) 0.000(2)
C12 0.035(2) 0.036(2) 0.029(2) -0.0025(17) 0.0006(18) -0.0094(18)
C13 0.029(2) 0.050(3) 0.035(2) -0.002(2) -0.0035(18) 0.004(2)
C14 0.033(2) 0.058(3) 0.037(2) -0.006(2) 0.002(2) 0.009(2)
C15 0.037(2) 0.041(3) 0.041(3) -0.006(2) 0.000(2) -0.003(2)
C16 0.037(2) 0.049(3) 0.0216(19) 0.0047(19) -0.0066(18) -0.005(2)
C17 0.027(2) 0.046(3) 0.030(2) 0.0004(19) 0.0010(18) -0.0005(18)
C18 0.044(3) 0.045(3) 0.034(2) 0.000(2) 0.005(2) -0.004(2)
C19 0.036(2) 0.044(3) 0.033(2) -0.007(2) -0.0037(19) -0.0057(19)
C20 0.040(3) 0.058(3) 0.035(3) 0.000(2) -0.004(2) -0.010(2)
C21 0.049(3) 0.044(3) 0.031(2) -0.005(2) -0.004(2) -0.001(2)
C22 0.056(3) 0.031(2) 0.036(3) -0.0002(19) -0.007(2) 0.008(2)
N1 0.055(3) 0.040(2) 0.035(2) -0.0015(18) -0.0041(19) -0.0006(19)
N2 0.042(2) 0.043(2) 0.037(2) 0.0015(18) 0.0024(18) 0.0025(18)
N3 0.035(2) 0.037(2) 0.0265(18) 0.0027(15) -0.0024(15) -0.0029(16)
N4 0.034(2) 0.045(2) 0.033(2) -0.0016(17) -0.0041(16) -0.0025(16)
O1 0.0332(18) 0.069(3) 0.0344(18) -0.0059(17) 0.0016(14) 0.0031(17)
O2 0.0331(16) 0.061(2) 0.0355(18) -0.0069(16) -0.0011(14) -0.0009(16)
O3 0.052(2) 0.059(2) 0.055(2) -0.014(2) 0.009(2) -0.0038(19)
O4 0.048(2) 0.089(3) 0.0246(16) -0.0144(19) -0.0054(15) -0.007(2)
O5 0.055(2) 0.0320(17) 0.051(2) -0.0038(16) -0.0025(18) -0.0028(15)
O6 0.050(2) 0.0373(18) 0.056(2) 0.0005(17) 0.0026(18) -0.0009(16)
O7 0.052(2) 0.0381(19) 0.055(2) -0.0032(17) -0.0121(18) 0.0008(16)
O8 0.048(2) 0.0402(19) 0.045(2) -0.0076(16) -0.0051(17) 0.0012(15)
O9 0.046(2) 0.067(3) 0.0341(18) -0.0070(18) 0.0038(16) -0.0080(19)
O10 0.070(3) 0.040(2) 0.0369(19) 0.0079(16) -0.0065(18) -0.0007(18)
O11 0.067(3) 0.0393(19) 0.0281(16) 0.0044(14) -0.0097(17) -0.0052(17)
O12 0.0470(19) 0.0438(19) 0.0269(16) 0.0032(14) 0.0007(14) 0.0044(15)
O13 0.055(2) 0.051(2) 0.0264(17) 0.0009(15) -0.0071(15) 0.0045(17)
O14 0.065(3) 0.046(2) 0.0363(19) -0.0002(16) -0.0036(18) -0.0004(18)
O15 0.060(3) 0.055(2) 0.058(3) 0.001(2) -0.009(2) -0.006(2)
O16 0.076(3) 0.047(2) 0.0333(19) 0.0031(16) -0.0075(19) -0.001(2)
O17 0.049(2) 0.060(2) 0.0327(18) -0.0047(17) 0.0003(16) -0.0036(18)
O18 0.0445(19) 0.0447(19) 0.0302(16) 0.0005(14) 0.0026(14) -0.0072(15)
Mn1C 0.0339 0.0532 0.0336 -0.0023 0 -0.0034
Mn2D 0.0503 0.0398 0.0305 0.003 -0.0065 -0.0049
Mn2F 0.0398 0.0503 0.0305 0.0065 0.003 0.0049
O1B 0.069 0.0332 0.0344 0.0016 0.0059 -0.0031
O2B 0.061 0.0331 0.0355 -0.0011 0.0069 0.0009
O10D 0.07 0.04 0.0369 -0.0079 -0.0065 0.0007
O11D 0.067 0.0393 0.0281 -0.0044 -0.0097 0.0052
O12F 0.0438 0.047 0.0269 -0.0007 -0.0032 0.0044
O13F 0.051 0.055 0.0264 0.0071 -0.0009 0.0045
C23 0.050(3) 0.041(3) 0.055(3) 0.005(3) 0.003(3) -0.004(2)
C24 0.051(3) 0.052(3) 0.040(3) 0.003(2) 0.000(2) 0.001(2)
C25 0.041(3) 0.083(4) 0.039(3) -0.001(3) 0.003(2) -0.008(3)
C26 0.060(4) 0.059(4) 0.054(4) 0.006(3) -0.010(3) 0.010(3)
C27 0.074(5) 0.064(4) 0.115(7) 0.027(5) 0.031(5) 0.030(4)
C28 0.061(4) 0.050(3) 0.068(4) 0.016(3) 0.003(3) 0.007(3)
C29 0.091(6) 0.125(8) 0.062(5) -0.044(5) -0.033(4) 0.028(6)
N5 0.046(2) 0.044(2) 0.041(2) 0.0040(19) -0.007(2) 0.0020(19)
C30 0.069(4) 0.110(6) 0.038(3) -0.014(4) -0.010(3) 0.040(4)
C31 0.072(5) 0.042(3) 0.120(7) 0.015(4) -0.004(5) -0.006(3)
C32 0.046(3) 0.064(4) 0.064(4) -0.021(3) -0.015(3) 0.007(3)
C33 0.050(3) 0.059(4) 0.050(3) -0.011(3) -0.002(3) 0.008(3)
O19 0.078(3) 0.051(2) 0.073(3) 0.015(2) -0.017(3) 0.001(2)
O20 0.061(4) 0.275(13) 0.093(5) 0.070(7) -0.018(4) -0.016(6)
O21 0.168(9) 0.085(5) 0.206(11) -0.019(6) 0.121(8) -0.026(5)
C34 0.087(6) 0.100(7) 0.101(7) 0.021(6) -0.017(6) 0.000(5)
C35 0.146(11) 0.072(6) 0.106(8) 0.003(5) -0.057(8) 0.007(6)
C36 0.136(12) 0.202(17) 0.118(10) -0.084(11) -0.054(9) 0.053(11)
C37 0.056(4) 0.106(7) 0.077(5) -0.023(5) 0.017(4) -0.016(4)
C38 0.053(4) 0.088(6) 0.075(5) -0.005(4) 0.011(4) 0.001(4)
C39 0.072(5) 0.072(5) 0.100(6) -0.013(5) -0.012(5) 0.002(4)
C40 0.093(7) 0.111(8) 0.109(8) -0.004(7) 0.004(6) -0.013(6)
N6 0.139(9) 0.100(7) 0.132(9) -0.030(6) 0.004(7) -0.002(6)
C41 0.126(12) 0.163(16) 0.182(16) 0.053(13) 0.037(11) 0.022(11)
C42 1.00(13) 0.20(3) 0.22(3) -0.03(2) -0.35(5) 0.13(5)
C43 0.139(14) 0.186(18) 0.38(4) -0.18(2) -0.101(19) 0.044(13)
C44 0.097(7) 0.111(8) 0.068(5) -0.015(5) 0.005(5) -0.005(6)
loop_
_geom_bond_atom_site_label_1
_geom_bond_atom_site_label_2
_geom_bond_site_symmetry_1
_geom_bond_site_symmetry_2
Mn1 O5 1_555 1_555
Mn2 O7 1_555 1_555
Cu1 N1 1_555 1_555
Cu2 N2 1_555 1_555
C1 H1 1_555 1_555
C2 C1 1_555 1_555
C3 C2 1_555 1_555
H2 C3 1_555 1_555
C4 C3 1_555 1_555
H3 C4 1_555 1_555
C5 C4 1_555 1_555
H4 C5 1_555 1_555
C6 C1 1_555 1_555
C7 C8 1_555 1_555
C8 O10 1_555 1_555
C9 C10 1_555 1_555
C10 O9 1_555 1_555
C11 H5 1_555 1_555
C12 C11 1_555 1_555
C13 C12 1_555 1_555
H6 C13 1_555 1_555
C14 C13 1_555 1_555
H7 C14 1_555 1_555
C15 C14 1_555 1_555
H8 C15 1_555 1_555
C16 C11 1_555 1_555
C17 C18 1_555 1_555
C18 O13 1_555 1_555
C19 C20 1_555 1_555
C20 O1 1_555 1_555
C21 C22 1_555 1_555
C22 O6 1_555 1_555
N1 C2 1_555 1_555
N2 C6 1_555 1_555
N3 Cu1 1_555 1_555
N4 Cu2 1_555 1_555
O1 Mn1C 1_555 1_555
O2 C19 1_555 1_555
O3 Cu2 1_555 1_555
O4 Cu2 1_555 1_555
O5 C21 1_555 1_555
O6 Mn1 1_555 1_555
O7 C22 1_555 1_555
O8 Mn2 1_555 1_555
O9 Cu2 1_555 1_555
O10 Mn2D 1_555 1_555
O11 C7 1_555 1_555
O12 C17 1_555 1_555
O13 Mn2F 1_555 1_555
O14 Cu1 1_555 1_555
O15 Cu1 1_555 1_555
O16 Cu1 1_555 1_555
O17 Mn1 1_555 1_555
O18 Mn1 1_555 1_555
C23 C24 1_555 1_555
C24 H9 1_555 1_555
C25 C24 1_555 1_555
H10 C25 1_555 1_555
C26 C25 1_555 1_555
H11 C26 1_555 1_555
C27 C26 1_555 1_555
H12 C27 1_555 1_555
C28 C23 1_555 1_555
H13 C28 1_555 1_555
C29 H14 1_555 1_555
H15 C29 1_555 1_555
H16 C29 1_555 1_555
N5 C30 1_555 1_555
C30 H17 1_555 1_555
H18 C30 1_555 1_555
H19 C30 1_555 1_555
C31 N5 1_555 1_555
H20 C31 1_555 1_555
H21 C31 1_555 1_555
H22 C31 1_555 1_555
C32 N5 1_555 1_555
H23 C32 1_555 1_555
H24 C32 1_555 1_555
H25 C32 1_555 1_555
C33 C23 1_555 1_555
H26 C33 1_555 1_555
C34 C35 1_555 1_555
C35 H27 1_555 1_555
C36 C35 1_555 1_555
H28 C36 1_555 1_555
C37 C36 1_555 1_555
H29 C37 1_555 1_555
C38 C37 1_555 1_555
H30 C38 1_555 1_555
C39 C34 1_555 1_555
H31 C39 1_555 1_555
C40 H32 1_555 1_555
H33 C40 1_555 1_555
H34 C40 1_555 1_555
N6 C41 1_555 1_555
C41 H35 1_555 1_555
H36 C41 1_555 1_555
H37 C41 1_555 1_555
C42 N6 1_555 1_555
H38 C42 1_555 1_555
H39 C42 1_555 1_555
H40 C42 1_555 1_555
C43 N6 1_555 1_555
H41 C43 1_555 1_555
H42 C43 1_555 1_555
H43 C43 1_555 1_555
C44 C34 1_555 1_555
H44 C44 1_555 1_555
Mn1C O2 1_555 1_555
Mn2D O11 1_555 1_555
Mn2F O12 1_555 1_555
O1B Mn1 1_555 1_555
O2B Mn1 1_555 1_555
O10D Mn2 1_555 1_555
O11D Mn2 1_555 1_555
O12F Mn2 1_555 1_555
O13F Mn2 1_555 1_555
C5 C6 1_555 1_555
C7 N1 1_555 1_555
C8 O16 1_555 1_555
C9 N2 1_555 1_555
C9 O18 1_555 1_555
C10 O17 1_555 1_555
C12 N3 1_555 1_555
C15 C16 1_555 1_555
C16 N4 1_555 1_555
C17 N3 1_555 1_555
C18 O14 1_555 1_555
C19 N4 1_555 1_555
C20 O4 1_555 1_555
C21 O8 1_555 1_555
C27 C28 1_555 1_555
C29 C33 1_555 1_555
N5 C33 1_555 1_555
C38 C39 1_555 1_555
C40 C44 1_555 1_555
N6 C44 1_555 1_555

#END
