
#######################################################################
#
#                 Cambridge Crystallographic Data Centre
#                                CCDC 
#
#######################################################################
#
# If this CIF has been generated from an entry in the Cambridge 
# Structural Database, then it will include bibliographic, chemical, 
# crystal, experimental, refinement or atomic coordinate data resulting 
# from the CCDC's data processing and validation procedures.
#
#######################################################################

data_YUYLEL
_chemical_formula_moiety         '(C86 H62 Cd5 N5 O27 1-)n'
_symmetry_cell_setting           monoclinic
_symmetry_space_group_name_H-M   'P 21/c'
_symmetry_Int_Tables_number      14
_space_group_name_Hall           '-P 2ybc'
loop_
_symmetry_equiv_pos_site_id
_symmetry_equiv_pos_as_xyz
1 x,y,z
2 -x,1/2+y,1/2-z
3 -x,-y,-z
4 x,1/2-y,1/2+z
_cell_length_a                   14.6261(6)
_cell_length_b                   23.2526(9)
_cell_length_c                   15.7357(7)
_cell_angle_alpha                90
_cell_angle_beta                 107.099(2)
_cell_angle_gamma                90
_cell_volume                     5115.08
loop_
_atom_site_label
_atom_site_type_symbol
_atom_site_fract_x
_atom_site_fract_y
_atom_site_fract_z
Cd1 Cd 0.25727(3) 0.300729(18) 0.69677(3)
Cd2 Cd 0.0000 0.5000 0.5000
Cd3 Cd 0.23509(3) 0.437743(16) 0.58374(3)
C1 C -0.1591(4) 0.2931(3) 0.6607(5)
C2 C -0.0705(4) 0.2996(3) 0.7213(4)
H1 H -0.0593 0.2858 0.7789
C3 C 0.0025(4) 0.3268(3) 0.6967(4)
H2 H 0.0625 0.3310 0.7380
C4 C -0.0133(4) 0.3477(2) 0.6117(4)
C5 C -0.1037(5) 0.3410(3) 0.5513(5)
H3 H -0.1154 0.3552 0.4939
C6 C -0.1762(5) 0.3137(3) 0.5753(5)
H4 H -0.2361 0.3092 0.5341
C7 C 0.0623(4) 0.3781(2) 0.5851(4)
C8 C -0.2180(4) 0.2114(3) 0.7302(5)
C9 C -0.1490(4) 0.1736(3) 0.7179(5)
H5 H -0.1118 0.1838 0.6815
C10 C -0.1362(4) 0.1204(3) 0.7606(4)
H6 H -0.0878 0.0961 0.7550
C11 C -0.1934(4) 0.1036(2) 0.8102(4)
C12 C -0.2617(5) 0.1411(3) 0.8227(5)
H7 H -0.3007 0.1298 0.8569
C13 C -0.2725(5) 0.1948(3) 0.7852(5)
H8 H -0.3165 0.2203 0.7966
C14 C -0.1849(5) 0.0442(3) 0.8505(4)
C15 C -0.3248(4) 0.2913(3) 0.6650(5)
C16 C -0.3326(5) 0.3494(3) 0.6772(6)
H9 H -0.2776 0.3716 0.6980
C17 C -0.4207(5) 0.3751(3) 0.6589(6)
H10 H -0.4246 0.4145 0.6672
C18 C -0.5046(4) 0.3428(3) 0.6278(4)
C19 C -0.4963(5) 0.2853(3) 0.6144(5)
H11 H -0.5513 0.2631 0.5938
C20 C -0.4077(5) 0.2593(3) 0.6307(5)
H12 H -0.4037 0.2204 0.6187
C21 C -0.6005(4) 0.3714(3) 0.6114(4)
C22 C 0.1679(4) 0.4879(3) 0.4008(4)
C23 C 0.1659(4) 0.5044(2) 0.3071(4)
C24 C 0.0869(4) 0.5331(3) 0.2526(4)
H13 H 0.0362 0.5427 0.2744
C25 C 0.0828(4) 0.5475(3) 0.1675(4)
H14 H 0.0286 0.5658 0.1317
C26 C 0.1582(4) 0.5354(3) 0.1333(4)
C27 C 0.2380(5) 0.5081(3) 0.1890(4)
H15 H 0.2908 0.5011 0.1691
C28 C 0.2398(5) 0.4914(3) 0.2733(4)
H16 H 0.2921 0.4709 0.3081
C29 C 0.1860(5) 0.5068(3) -0.0078(4)
C30 C 0.1722(5) 0.4492(3) 0.0034(5)
H17 H 0.1436 0.4373 0.0459
C31 C 0.2004(5) 0.4090(3) -0.0478(5)
H18 H 0.1924 0.3702 -0.0379
C32 C 0.2398(5) 0.4248(4) -0.1127(5)
C33 C 0.2535(6) 0.4822(4) -0.1249(5)
H19 H 0.2808 0.4935 -0.1687
C34 C 0.2272(6) 0.5242(3) -0.0730(5)
H20 H 0.2371 0.5630 -0.0818
C35 C 0.2653(5) 0.3800(5) -0.1732(6)
C36 C 0.0912(5) 0.5940(3) -0.0002(4)
C37 C 0.0289(5) 0.5861(3) -0.0845(4)
H21 H 0.0320 0.5525 -0.1157
C38 C -0.0381(4) 0.6277(3) -0.1228(4)
H22 H -0.0791 0.6217 -0.1797
C39 C -0.0452(5) 0.6778(3) -0.0785(4)
C40 C 0.0219(6) 0.6870(3) 0.0041(5)
H23 H 0.0209 0.7213 0.0342
C41 C 0.0892(5) 0.6463(3) 0.0414(5)
H24 H 0.1343 0.6538 0.0957
C42 C -0.1222(5) 0.7205(3) -0.1160(5)
N1 N -0.2343(3) 0.2651(2) 0.6864(5)
N2 N 0.1545(4) 0.5495(2) 0.0448(3)
O1 O 0.0418(3) 0.40498(16) 0.5130(3)
O2 O 0.1474(3) 0.37634(17) 0.6369(3)
O3 O -0.2588(4) 0.0255(2) 0.8664(4)
O4 O -0.1087(3) 0.01699(18) 0.8636(3)
O5 O -0.6050(3) 0.4241(2) 0.6121(4)
O6 O -0.6738(3) 0.3401(2) 0.5962(3)
O7 O 0.2246(3) 0.4497(2) 0.4403(3)
O8 O 0.1114(3) 0.51523(19) 0.4337(3)
O9 O 0.3126(4) 0.3962(3) -0.2232(5)
O10 O 0.2360(5) 0.3293(3) -0.1704(4)
O11 O -0.1617(4) 0.7210(2) -0.1980(3)
O12 O -0.1480(4) 0.7545(2) -0.0656(3)
O13 O 0.3898(5) 0.2492(4) 0.7585(6)
H25 H 0.3972 0.2136 0.7708
H26 H 0.4438 0.2655 0.7793
Cd1B Cd -0.25727(3) 0.699271(18) 0.30323(3)
Cd3B Cd -0.23509(3) 0.562257(16) 0.41626(3)
C1B C 0.1591(4) 0.7069(3) 0.3393(5)
C2B C 0.0705(4) 0.7004(3) 0.2787(4)
H1B H 0.0593 0.7142 0.2211
C3B C -0.0025(4) 0.6732(3) 0.3033(4)
H2B H -0.0625 0.6690 0.2620
C4B C 0.0133(4) 0.6523(2) 0.3883(4)
C5B C 0.1037(5) 0.6590(3) 0.4487(5)
H3B H 0.1154 0.6448 0.5061
C6B C 0.1762(5) 0.6863(3) 0.4247(5)
H4B H 0.2361 0.6908 0.4659
C7B C -0.0623(4) 0.6219(2) 0.4149(4)
C8B C 0.2180(4) 0.7886(3) 0.2698(5)
C9B C 0.1490(4) 0.8264(3) 0.2821(5)
H5B H 0.1118 0.8162 0.3185
C10B C 0.1362(4) 0.8796(3) 0.2394(4)
H6B H 0.0878 0.9039 0.2450
C11B C 0.1934(4) 0.8964(2) 0.1898(4)
C12B C 0.2617(5) 0.8589(3) 0.1773(5)
H7B H 0.3007 0.8702 0.1431
C13B C 0.2725(5) 0.8052(3) 0.2148(5)
H8B H 0.3165 0.7797 0.2034
C14B C 0.1849(5) 0.9558(3) 0.1495(4)
C15B C 0.3248(4) 0.7087(3) 0.3350(5)
C16B C 0.3326(5) 0.6506(3) 0.3228(6)
H9B H 0.2776 0.6284 0.3020
C17B C 0.4207(5) 0.6249(3) 0.3411(6)
H10B H 0.4246 0.5855 0.3328
C18B C 0.5046(4) 0.6572(3) 0.3722(4)
C19B C 0.4963(5) 0.7147(3) 0.3856(5)
H11B H 0.5513 0.7369 0.4062
C20B C 0.4077(5) 0.7407(3) 0.3693(5)
H12B H 0.4037 0.7796 0.3813
C21B C 0.6005(4) 0.6286(3) 0.3886(4)
C22B C -0.1679(4) 0.5121(3) 0.5992(4)
C23B C -0.1659(4) 0.4956(2) 0.6929(4)
C24B C -0.0869(4) 0.4669(3) 0.7474(4)
H13B H -0.0362 0.4573 0.7256
C25B C -0.0828(4) 0.4525(3) 0.8325(4)
H14B H -0.0286 0.4342 0.8683
C26B C -0.1582(4) 0.4646(3) 0.8667(4)
C27B C -0.2380(5) 0.4919(3) 0.8110(4)
H15B H -0.2908 0.4989 0.8309
C28B C -0.2398(5) 0.5086(3) 0.7267(4)
H16B H -0.2921 0.5291 0.6919
C29B C -0.1860(5) 0.4932(3) 1.0078(4)
C30B C -0.1722(5) 0.5508(3) 0.9966(5)
H17B H -0.1436 0.5627 0.9541
C31B C -0.2004(5) 0.5910(3) 1.0478(5)
H18B H -0.1924 0.6298 1.0379
C32B C -0.2398(5) 0.5752(4) 1.1127(5)
C33B C -0.2535(6) 0.5178(4) 1.1249(5)
H19B H -0.2808 0.5065 1.1687
C34B C -0.2272(6) 0.4758(3) 1.0730(5)
H20B H -0.2371 0.4370 1.0818
C35B C -0.2653(5) 0.6200(5) 1.1732(6)
C36B C -0.0912(5) 0.4060(3) 1.0002(4)
C37B C -0.0289(5) 0.4139(3) 1.0845(4)
H21B H -0.0320 0.4475 1.1157
C38B C 0.0381(4) 0.3723(3) 1.1228(4)
H22B H 0.0791 0.3783 1.1797
C39B C 0.0452(5) 0.3222(3) 1.0785(4)
C40B C -0.0219(6) 0.3130(3) 0.9959(5)
H23B H -0.0209 0.2787 0.9658
C41B C -0.0892(5) 0.3537(3) 0.9586(5)
H24B H -0.1343 0.3462 0.9043
C42B C 0.1222(5) 0.2795(3) 1.1160(5)
N1B N 0.2343(3) 0.7349(2) 0.3136(5)
N2B N -0.1545(4) 0.4505(2) 0.9552(3)
O1B O -0.0418(3) 0.59502(16) 0.4870(3)
O2B O -0.1474(3) 0.62366(17) 0.3631(3)
O3B O 0.2588(4) 0.9745(2) 0.1336(4)
O4B O 0.1087(3) 0.98301(18) 0.1364(3)
O5B O 0.6050(3) 0.5759(2) 0.3879(4)
O6B O 0.6738(3) 0.6599(2) 0.4038(3)
O7B O -0.2246(3) 0.5503(2) 0.5597(3)
O8B O -0.1114(3) 0.48477(19) 0.5663(3)
O9B O -0.3126(4) 0.6038(3) 1.2232(5)
O10B O -0.2360(5) 0.6707(3) 1.1704(4)
O11B O 0.1617(4) 0.2790(2) 1.1980(3)
O12B O 0.1480(4) 0.2455(2) 1.0656(3)
O13B O -0.3898(5) 0.7508(4) 0.2415(6)
H25B H -0.3972 0.7864 0.2292
H26B H -0.4438 0.7345 0.2207
Cd1_2 Cd -0.74273(3) 0.300729(18) 0.69677(3)
Cd1_3 Cd 0.25727(3) 0.300729(18) -0.30323(3)
Cd1A Cd -0.25727(3) 0.800729(18) -0.19677(3)
Cd1B_2 Cd -0.25727(3) 0.699271(18) 1.30323(3)
Cd1B_3 Cd 0.74273(3) 0.699271(18) 0.30323(3)
Cd1C Cd 0.25727(3) 0.199271(18) 1.19677(3)
Cd2A Cd 0.0000 0.0000 1.0000
Cd2A_2 Cd 0.0000 1.0000 0.0000
Cd3_2 Cd -0.76491(3) 0.437743(16) 0.58374(3)
Cd3A Cd -0.23509(3) -0.062257(16) 0.91626(3)
Cd3B_2 Cd 0.76491(3) 0.562257(16) 0.41626(3)
Cd3C Cd 0.23509(3) 1.062257(16) 0.08374(3)
O3A O 0.2588(4) 0.5255(2) 0.6336(4)
O3C O -0.2588(4) 0.4745(2) 0.3664(4)
O4A O 0.1087(3) 0.51699(18) 0.6364(3)
O4C O -0.1087(3) 0.48301(18) 0.3636(3)
O5_2 O 0.3950(3) 0.4241(2) 0.6121(4)
O5B_2 O -0.3950(3) 0.5759(2) 0.3879(4)
O6_2 O 0.3262(3) 0.3401(2) 0.5962(3)
O6B_2 O -0.3262(3) 0.6599(2) 0.4038(3)
O9_2 O 0.3126(4) 0.3962(3) 0.7768(5)
O9B_2 O -0.3126(4) 0.6038(3) 0.2232(5)
O10_2 O 0.2360(5) 0.3293(3) 0.8296(4)
O10B_2 O -0.2360(5) 0.6707(3) 0.1704(4)
O11A O 0.1617(4) 0.2210(2) 0.6980(3)
O11C O -0.1617(4) 0.7790(2) 0.3020(3)
O12A O 0.1480(4) 0.2545(2) 0.5656(3)
O12C O -0.1480(4) 0.7455(2) 0.4344(3)
C43 C 0.1042(8) 0.3133(5) 0.3733(7)
H27 H 0.1029 0.3521 0.3934
H28 H 0.0588 0.2906 0.3920
H29 H 0.0880 0.3128 0.3095
C44 C 0.2747(12) 0.3153(7) 0.3909(9)
H30 H 0.2542 0.3216 0.3278
H31 H 0.3326 0.2931 0.4066
H32 H 0.2863 0.3516 0.4211
N3 N 0.2081(11) 0.2874(6) 0.4143(7)
H33 H 0.2225 0.2878 0.4739
H34 H 0.2080 0.2505 0.3970
O14 O 0.5644(19) 0.3115(14) 0.8924(16)
H35 H 0.6126 0.3298 0.9254
H36 H 0.5155 0.3326 0.8851
loop_
_geom_bond_atom_site_label_1
_geom_bond_atom_site_label_2
_geom_bond_site_symmetry_1
_geom_bond_site_symmetry_2
Cd1 O2 1_555 1_555
Cd2 O1 1_555 1_555
Cd3 O2 1_555 1_555
C1 C2 1_555 1_555
C2 H1 1_555 1_555
C3 C2 1_555 1_555
H2 C3 1_555 1_555
C4 C3 1_555 1_555
C5 C4 1_555 1_555
H3 C5 1_555 1_555
C6 C1 1_555 1_555
H4 C6 1_555 1_555
C7 C4 1_555 1_555
C8 C9 1_555 1_555
C9 H5 1_555 1_555
C10 C9 1_555 1_555
H6 C10 1_555 1_555
C11 C10 1_555 1_555
C12 C11 1_555 1_555
H7 C12 1_555 1_555
C13 C8 1_555 1_555
H8 C13 1_555 1_555
C14 C11 1_555 1_555
C15 C16 1_555 1_555
C16 H9 1_555 1_555
C17 C16 1_555 1_555
H10 C17 1_555 1_555
C18 C17 1_555 1_555
C19 C18 1_555 1_555
H11 C19 1_555 1_555
C20 C15 1_555 1_555
H12 C20 1_555 1_555
C21 C18 1_555 1_555
C22 C23 1_555 1_555
C23 C24 1_555 1_555
C24 H13 1_555 1_555
C25 C24 1_555 1_555
H14 C25 1_555 1_555
C26 C25 1_555 1_555
C27 C26 1_555 1_555
H15 C27 1_555 1_555
C28 C23 1_555 1_555
H16 C28 1_555 1_555
C29 C30 1_555 1_555
C30 H17 1_555 1_555
C31 C30 1_555 1_555
H18 C31 1_555 1_555
C32 C31 1_555 1_555
C33 C32 1_555 1_555
H19 C33 1_555 1_555
C34 C29 1_555 1_555
H20 C34 1_555 1_555
C35 C32 1_555 1_555
C36 C37 1_555 1_555
C37 H21 1_555 1_555
C38 C37 1_555 1_555
H22 C38 1_555 1_555
C39 C38 1_555 1_555
C40 C39 1_555 1_555
H23 C40 1_555 1_555
C41 C36 1_555 1_555
H24 C41 1_555 1_555
C42 C39 1_555 1_555
N1 C1 1_555 1_555
N2 C26 1_555 1_555
O1 C7 1_555 1_555
O2 C7 1_555 1_555
O3 C14 1_555 1_555
O4 C14 1_555 1_555
O5 C21 1_555 1_555
O6 C21 1_555 1_555
O7 Cd3 1_555 1_555
O8 Cd2 1_555 1_555
O9 C35 1_555 1_555
O10 C35 1_555 1_555
O11 C42 1_555 1_555
O12 C42 1_555 1_555
O13 Cd1 1_555 1_555
H25 O13 1_555 1_555
H26 O13 1_555 1_555
C43 H27 1_555 1_555
H28 C43 1_555 1_555
H29 C43 1_555 1_555
C44 H30 1_555 1_555
H31 C44 1_555 1_555
H32 C44 1_555 1_555
N3 C43 1_555 1_555
H33 N3 1_555 1_555
H34 N3 1_555 1_555
O14 H35 1_555 1_555
H36 O14 1_555 1_555
Cd1B O2B 1_555 1_555
Cd3B O2B 1_555 1_555
C1B C2B 1_555 1_555
C2B H1B 1_555 1_555
C3B C2B 1_555 1_555
H2B C3B 1_555 1_555
C4B C3B 1_555 1_555
C5B C4B 1_555 1_555
H3B C5B 1_555 1_555
C6B C1B 1_555 1_555
H4B C6B 1_555 1_555
C7B C4B 1_555 1_555
C8B C9B 1_555 1_555
C9B H5B 1_555 1_555
C10B C9B 1_555 1_555
H6B C10B 1_555 1_555
C11B C10B 1_555 1_555
C12B C11B 1_555 1_555
H7B C12B 1_555 1_555
C13B C8B 1_555 1_555
H8B C13B 1_555 1_555
C14B C11B 1_555 1_555
C15B C16B 1_555 1_555
C16B H9B 1_555 1_555
C17B C16B 1_555 1_555
H10B C17B 1_555 1_555
C18B C17B 1_555 1_555
C19B C18B 1_555 1_555
H11B C19B 1_555 1_555
C20B C15B 1_555 1_555
H12B C20B 1_555 1_555
C21B C18B 1_555 1_555
C22B C23B 1_555 1_555
C23B C24B 1_555 1_555
C24B H13B 1_555 1_555
C25B C24B 1_555 1_555
H14B C25B 1_555 1_555
C26B C25B 1_555 1_555
C27B C26B 1_555 1_555
H15B C27B 1_555 1_555
C28B C23B 1_555 1_555
H16B C28B 1_555 1_555
C29B C30B 1_555 1_555
C30B H17B 1_555 1_555
C31B C30B 1_555 1_555
H18B C31B 1_555 1_555
C32B C31B 1_555 1_555
C33B C32B 1_555 1_555
H19B C33B 1_555 1_555
C34B C29B 1_555 1_555
H20B C34B 1_555 1_555
C35B C32B 1_555 1_555
C36B C37B 1_555 1_555
C37B H21B 1_555 1_555
C38B C37B 1_555 1_555
H22B C38B 1_555 1_555
C39B C38B 1_555 1_555
C40B C39B 1_555 1_555
H23B C40B 1_555 1_555
C41B C36B 1_555 1_555
H24B C41B 1_555 1_555
C42B C39B 1_555 1_555
N1B C1B 1_555 1_555
N2B C26B 1_555 1_555
O1B Cd2 1_555 1_555
O2B C7B 1_555 1_555
O3B C14B 1_555 1_555
O4B C14B 1_555 1_555
O5B C21B 1_555 1_555
O6B C21B 1_555 1_555
O7B Cd3B 1_555 1_555
O8B Cd2 1_555 1_555
O9B C35B 1_555 1_555
O10B C35B 1_555 1_555
O11B C42B 1_555 1_555
O12B C42B 1_555 1_555
O13B Cd1B 1_555 1_555
H25B O13B 1_555 1_555
H26B O13B 1_555 1_555
Cd1_2 O6 1_555 1_555
Cd1_3 O9 1_555 1_555
Cd1A O11 1_555 1_555
Cd1B_2 O9B 1_555 1_555
Cd1B_3 O6B 1_555 1_555
Cd1C O11B 1_555 1_555
Cd2A O4 1_555 1_555
Cd2A_2 O4B 1_555 1_555
Cd3_2 O5 1_555 1_555
Cd3A O3 1_555 1_555
Cd3B_2 O5B 1_555 1_555
Cd3C O3B 1_555 1_555
O3A Cd3 1_555 1_555
O3C Cd3B 1_555 1_555
O4A Cd2 1_555 1_555
O4C Cd2 1_555 1_555
O5_2 Cd3 1_555 1_555
O5B_2 Cd3B 1_555 1_555
O6_2 Cd1 1_555 1_555
O6B_2 Cd1B 1_555 1_555
O9_2 Cd1 1_555 1_555
O9B_2 Cd1B 1_555 1_555
O10_2 Cd1 1_555 1_555
O10B_2 Cd1B 1_555 1_555
O11A Cd1 1_555 1_555
O11C Cd1B 1_555 1_555
O12A Cd1 1_555 1_555
O12C Cd1B 1_555 1_555
Cd3 O6_2 1_555 1_555
C5 C6 1_555 1_555
C8 N1 1_555 1_555
C12 C13 1_555 1_555
C15 N1 1_555 1_555
C19 C20 1_555 1_555
C22 O7 1_555 1_555
C22 O8 1_555 1_555
C27 C28 1_555 1_555
C29 N2 1_555 1_555
C33 C34 1_555 1_555
C36 N2 1_555 1_555
C40 C41 1_555 1_555
O6 Cd3_2 1_555 1_555
O10 Cd1_3 1_555 1_555
O12 Cd1A 1_555 1_555
C44 N3 1_555 1_555
Cd3B O6B_2 1_555 1_555
C5B C6B 1_555 1_555
C7B O1B 1_555 1_555
C8B N1B 1_555 1_555
C12B C13B 1_555 1_555
C15B N1B 1_555 1_555
C19B C20B 1_555 1_555
C22B O7B 1_555 1_555
C22B O8B 1_555 1_555
C27B C28B 1_555 1_555
C29B N2B 1_555 1_555
C33B C34B 1_555 1_555
C36B N2B 1_555 1_555
C40B C41B 1_555 1_555
O6B Cd3B_2 1_555 1_555
O10B Cd1B_2 1_555 1_555
O12B Cd1C 1_555 1_555

#END
