
#######################################################################
#
#                 Cambridge Crystallographic Data Centre
#                                CCDC 
#
#######################################################################
#
# If this CIF has been generated from an entry in the Cambridge 
# Structural Database, then it will include bibliographic, chemical, 
# crystal, experimental, refinement or atomic coordinate data resulting 
# from the CCDC's data processing and validation procedures.
#
#######################################################################

data_REFMEW
_chemical_formula_moiety         '(C50 H40 N8 O14 Zn2)n'
_symmetry_cell_setting           orthorhombic
_symmetry_space_group_name_H-M   'P n a 21'
_symmetry_Int_Tables_number      33
_space_group_name_Hall           'P 2c -2n'
loop_
_symmetry_equiv_pos_site_id
_symmetry_equiv_pos_as_xyz
1 x,y,z
2 -x,-y,1/2+z
3 1/2+x,1/2-y,z
4 1/2-x,1/2+y,1/2+z
_cell_length_a                   32.313(2)
_cell_length_b                   8.1801(5)
_cell_length_c                   18.4522(12)
_cell_angle_alpha                90
_cell_angle_beta                 90
_cell_angle_gamma                90
_cell_volume                     4877.35
loop_
_atom_site_label
_atom_site_type_symbol
_atom_site_fract_x
_atom_site_fract_y
_atom_site_fract_z
O1 O 0.08244(10) 0.2411(4) -0.02940(17)
O2 O 0.06580(8) 0.1478(3) 0.08050(17)
O3 O 0.48366(8) -0.8724(4) 0.07659(17)
C1 C 0.08425(10) 0.1380(5) 0.0201(2)
O4 O 0.46887(8) -0.6173(4) 0.1103(2)
O5 O 0.31099(8) -0.4813(3) -0.07819(17)
O6 O 0.31687(9) -1.0789(4) -0.07116(18)
C2 C 0.46055(11) -0.7464(5) 0.0782(2)
C3 C 0.40474(11) -0.6190(5) 0.0047(2)
H1 H 0.4178 -0.5189 0.0112
C4 C 0.40104(11) -0.9088(5) 0.0286(2)
H2 H 0.4122 -1.0022 0.0498
C5 C 0.42109(11) -0.7582(5) 0.0355(2)
C6 C 0.34883(11) -0.7787(5) -0.0434(2)
H3 H 0.3248 -0.7866 -0.0708
C7 C 0.36443(10) -0.9173(5) -0.0103(2)
C8 C 0.36819(10) -0.6285(5) -0.0367(2)
C9 C -0.06277(13) -0.5969(7) 0.3138(3)
H4 H -0.0896 -0.5599 0.3058
O7 O 0.37299(9) -0.3739(4) -0.09631(19)
O8 O 0.34311(11) -1.1784(4) 0.03191(18)
C10 C 0.35024(11) -0.4830(5) -0.0727(2)
C11 C 0.33978(10) -1.0728(5) -0.0156(2)
H7 H 0.0710 -0.7932 0.3690
H8 H 0.1818 -0.6177 0.1351
Zn1 Zn 0.039580(11) -0.65524(5) 0.11639(4)
Zn2 Zn 0.289220(11) -0.26972(5) -0.10959(4)
N1 N 0.03816(8) -0.6852(4) 0.2248(2)
N2 N 0.21239(9) -0.7462(4) 0.28284(19)
C14 C 0.21065(11) -0.1493(5) -0.0749(2)
O11 O 0.23359(8) -0.2728(3) -0.06739(18)
O12 O 0.06769(8) -0.4555(3) 0.09024(17)
C15 C 0.17038(11) -0.1525(4) -0.0332(2)
O13 O 0.21894(8) -0.0286(3) -0.11285(18)
N3 N 0.05500(10) -0.7663(5) 0.33313(16)
C16 C 0.18348(11) -0.6790(5) 0.2398(2)
C17 C 0.09731(11) -0.1573(5) 0.0452(2)
H17 H 0.0728 -0.1587 0.0716
O14 O 0.13103(8) -0.5627(4) 0.09097(17)
C18 C 0.12101(11) -0.2981(5) 0.0401(2)
C19 C 0.11101(11) -0.7803(5) 0.2405(2)
H18 H 0.1206 -0.8815 0.2621
H19 H 0.1110 -0.7941 0.1883
C20 C 0.14041(11) -0.6416(5) 0.2610(2)
H20 H 0.1392 -0.6236 0.3129
H21 H 0.1316 -0.5418 0.2371
C21 C 0.10627(11) -0.4526(5) 0.0766(2)
C22 C 0.15811(10) -0.2946(5) 0.0026(2)
H22 H 0.1749 -0.3870 0.0014
C23 C 0.00403(11) -0.6634(5) 0.2710(2)
N4 N 0.19747(10) -0.6516(5) 0.17054(15)
C24 C 0.01501(13) -0.7166(6) 0.3401(2)
C25 C 0.23959(12) -0.7013(6) 0.1708(2)
C26 C 0.28634(12) -0.8284(6) 0.2571(3)
H23 H 0.2920 -0.8732 0.3023
C27 C 0.06765(12) -0.7453(5) 0.2660(2)
C28 C 0.14617(11) -0.0133(5) -0.0293(2)
H24 H 0.1542 0.0810 -0.0538
C29 C 0.10979(10) -0.0143(5) 0.0112(2)
C30 C -0.0516(2) -0.6472(8) 0.3822(4)
H25 H -0.0705 -0.6362 0.4198
C31 C -0.03503(11) -0.5999(6) 0.2567(3)
H26 H -0.0422 -0.5614 0.2109
C32 C 0.24797(12) -0.7627(5) 0.2402(2)
C33 C 0.26995(16) -0.6977(8) 0.1170(3)
H27 H 0.2645 -0.6562 0.0711
C34 C 0.31592(14) -0.8233(8) 0.2022(3)
H28 H 0.3421 -0.8657 0.2111
C35 C -0.01297(16) -0.7137(8) 0.3972(3)
H29 H -0.0063 -0.7541 0.4428
C36 C 0.30751(16) -0.7572(8) 0.1348(3)
H30 H 0.3286 -0.7536 0.1005
O2_2 O 0.06580(8) -0.8522(3) 0.08050(17)
O3B O -0.01634(8) -0.6276(4) 0.07659(17)
O6_2 O 0.31687(9) -0.0789(4) -0.07116(18)
Zn1_2 Zn 0.039580(11) 0.34476(5) 0.11639(4)
Zn1B Zn 0.539580(11) -0.84476(5) 0.11639(4)
Zn2C Zn 0.210780(11) -0.76972(5) 0.39041(4)
Zn2_2 Zn 0.289220(11) -1.26972(5) -0.10959(4)
N2C N 0.28761(9) -0.2462(4) -0.21716(19)
O9 O 0.14902(12) 0.3737(5) -0.1293(3)
H11 H 0.1282 0.3691 -0.1003
O10 O 0.22837(8) 0.3312(4) -0.06765(8)
H10 H 0.2048 0.3386 -0.0853
H5 H 0.4349 -0.3203 0.3812
H6 H 0.4596 -0.4978 0.1926
H9 H 0.3009 -0.4414 0.2996
H12 H 0.3199 -0.2413 0.1188
C12 C 0.38395(14) -0.4646(8) 0.2750(3)
H13 H 0.3688 -0.4243 0.3167
H14 H 0.3802 -0.5821 0.2726
C13 C 0.36718(14) -0.3868(9) 0.2071(3)
H15 H 0.3824 -0.2865 0.1983
H16 H 0.3727 -0.4596 0.1667
N5 N 0.44473(11) -0.3468(4) 0.33900(12)
N6 N 0.45867(10) -0.4517(5) 0.23505(13)
C37 C 0.48639(13) -0.3170(6) 0.3272(2)
C38 C 0.49521(13) -0.3839(5) 0.2590(2)
C39 C 0.42941(13) -0.4254(6) 0.2836(2)
C40 C 0.55466(18) -0.2186(8) 0.3354(4)
H31 H 0.5753 -0.1619 0.3598
C41 C 0.53403(14) -0.3740(7) 0.2287(3)
H32 H 0.5401 -0.4224 0.1844
C42 C 0.56325(16) -0.2896(8) 0.2670(4)
H33 H 0.5896 -0.2783 0.2475
C43 C 0.51665(17) -0.2327(7) 0.3654(3)
H34 H 0.5109 -0.1872 0.4105
N7 N 0.30370(12) -0.2691(6) 0.15420(18)
N8 N 0.29499(11) -0.3835(5) 0.26106(16)
C44 C 0.32253(14) -0.3478(7) 0.2072(3)
C45 C 0.26318(15) -0.2367(6) 0.1714(3)
C46 C 0.19459(18) -0.1416(8) 0.1725(4)
H35 H 0.1726 -0.0863 0.1511
C47 C 0.23296(18) -0.1523(7) 0.1344(3)
H36 H 0.2372 -0.1066 0.0889
C48 C 0.25724(13) -0.3064(6) 0.2383(2)
C49 C 0.21947(15) -0.2996(7) 0.2739(3)
H37 H 0.2148 -0.3516 0.3180
C50 C 0.18931(16) -0.2097(8) 0.2389(4)
H38 H 0.1640 -0.1950 0.2622
loop_
_geom_bond_atom_site_label_1
_geom_bond_atom_site_label_2
_geom_bond_site_symmetry_1
_geom_bond_site_symmetry_2
O1 C1 1_555 1_555
O2 C1 1_555 1_555
O3 C2 1_555 1_555
C1 C29 1_555 1_555
O4 C2 1_555 1_555
O5 C10 1_555 1_555
O6 C11 1_555 1_555
C2 C5 1_555 1_555
C3 H1 1_555 1_555
C4 H2 1_555 1_555
C5 C3 1_555 1_555
C6 H3 1_555 1_555
C7 C4 1_555 1_555
C8 C3 1_555 1_555
C9 H4 1_555 1_555
O7 C10 1_555 1_555
O8 C11 1_555 1_555
C10 C8 1_555 1_555
C11 C7 1_555 1_555
O9 H11 1_555 1_555
O10 H10 1_555 1_555
H5 N5 1_555 1_555
H6 N6 1_555 1_555
H7 N3 1_555 1_555
H8 N4 1_555 1_555
H9 N8 1_555 1_555
H12 N7 1_555 1_555
C12 H13 1_555 1_555
H14 C12 1_555 1_555
C13 C12 1_555 1_555
H15 C13 1_555 1_555
H16 C13 1_555 1_555
Zn1 N1 1_555 1_555
Zn2 O5 1_555 1_555
N1 C23 1_555 1_555
N2 C16 1_555 1_555
C14 O11 1_555 1_555
O11 Zn2 1_555 1_555
O12 Zn1 1_555 1_555
C15 C14 1_555 1_555
O13 C14 1_555 1_555
N3 C24 1_555 1_555
C16 C20 1_555 1_555
C17 H17 1_555 1_555
O14 C21 1_555 1_555
C18 C17 1_555 1_555
C19 H18 1_555 1_555
H19 C19 1_555 1_555
C20 C19 1_555 1_555
H20 C20 1_555 1_555
H21 C20 1_555 1_555
C21 O12 1_555 1_555
C22 C15 1_555 1_555
H22 C22 1_555 1_555
C23 C24 1_555 1_555
N4 C16 1_555 1_555
C24 C35 1_555 1_555
C25 N4 1_555 1_555
C26 H23 1_555 1_555
C27 N1 1_555 1_555
C28 C15 1_555 1_555
H24 C28 1_555 1_555
C29 C17 1_555 1_555
C30 C9 1_555 1_555
H25 C30 1_555 1_555
C31 C9 1_555 1_555
H26 C31 1_555 1_555
C32 N2 1_555 1_555
C33 C25 1_555 1_555
H27 C33 1_555 1_555
C34 C26 1_555 1_555
H28 C34 1_555 1_555
C35 C30 1_555 1_555
H29 C35 1_555 1_555
C36 C33 1_555 1_555
H30 C36 1_555 1_555
N5 C37 1_555 1_555
N6 C38 1_555 1_555
C37 C38 1_555 1_555
C38 C41 1_555 1_555
C39 C12 1_555 1_555
C40 H31 1_555 1_555
C41 H32 1_555 1_555
C42 C40 1_555 1_555
H33 C42 1_555 1_555
C43 C37 1_555 1_555
H34 C43 1_555 1_555
N7 C44 1_555 1_555
N8 C44 1_555 1_555
C44 C13 1_555 1_555
C45 N7 1_555 1_555
C46 H35 1_555 1_555
C47 C45 1_555 1_555
H36 C47 1_555 1_555
C48 N8 1_555 1_555
C49 C48 1_555 1_555
H37 C49 1_555 1_555
C50 C46 1_555 1_555
H38 C50 1_555 1_555
O2_2 Zn1 1_555 1_555
O3B Zn1 1_555 1_555
O6_2 Zn2 1_555 1_555
Zn1_2 O2 1_555 1_555
Zn1B O3 1_555 1_555
Zn2C N2 1_555 1_555
Zn2_2 O6 1_555 1_555
N2C Zn2 1_555 1_555
C4 C5 1_555 1_555
C6 C7 1_555 1_555
C6 C8 1_555 1_555
N3 C27 1_555 1_555
C18 C21 1_555 1_555
C18 C22 1_555 1_555
C19 C27 1_555 1_555
C23 C31 1_555 1_555
C25 C32 1_555 1_555
C26 C32 1_555 1_555
C28 C29 1_555 1_555
C34 C36 1_555 1_555
N5 C39 1_555 1_555
N6 C39 1_555 1_555
C40 C43 1_555 1_555
C41 C42 1_555 1_555
C45 C48 1_555 1_555
C46 C47 1_555 1_555
C49 C50 1_555 1_555

#END
