
#######################################################################
#
#                 Cambridge Crystallographic Data Centre
#                                CCDC 
#
#######################################################################
#
# If this CIF has been generated from an entry in the Cambridge 
# Structural Database, then it will include bibliographic, chemical, 
# crystal, experimental, refinement or atomic coordinate data resulting 
# from the CCDC's data processing and validation procedures.
#
#######################################################################

data_PIZJAJ
_chemical_formula_moiety         '(C48 H24 Cu2 N8 1+)n'
_symmetry_cell_setting           orthorhombic
_symmetry_space_group_name_H-M   'C c c m'
_symmetry_Int_Tables_number      66
_space_group_name_Hall           '-C 2 2c'
loop_
_symmetry_equiv_pos_site_id
_symmetry_equiv_pos_as_xyz
1 x,y,z
2 1/2+x,1/2+y,z
3 -x,y,1/2+z
4 1/2-x,1/2+y,1/2+z
5 x,-y,1/2+z
6 1/2+x,1/2-y,1/2+z
7 -x,-y,z
8 1/2-x,1/2-y,z
9 -x,-y,-z
10 1/2-x,1/2-y,-z
11 x,-y,1/2-z
12 1/2+x,1/2-y,1/2-z
13 -x,y,1/2-z
14 1/2-x,1/2+y,1/2-z
15 x,y,-z
16 1/2+x,1/2+y,-z
_cell_length_a                   23.69(1)
_cell_length_b                   27.26(2)
_cell_length_c                   32.76(1)
_cell_angle_alpha                90
_cell_angle_beta                 90
_cell_angle_gamma                90
_cell_volume                     21156.1
loop_
_atom_site_label
_atom_site_type_symbol
_atom_site_fract_x
_atom_site_fract_y
_atom_site_fract_z
Cu1 Cu 0.1185(6) 0.5000 0.2500
Cu2 Cu 0.3522(7) 0.2436(5) 0.5000
N1 N 0.360(3) 0.248(3) 0.437(1)
N2 N 0.405(4) 0.188(3) 0.5000
N3 N 0.298(4) 0.294(3) 0.5000
N4 N 0.159(2) 0.457(2) 0.287(2)
N5 N 0.569(3) 0.039(3) 0.284(2)
C1 C 0.464(5) 0.114(3) 0.4782(3)
C2 C 0.429(3) 0.163(3) 0.467(2)
C3 C 0.420(2) 0.176(2) 0.429(2)
C4 C 0.390(3) 0.214(2) 0.414(2)
C5 C 0.395(3) 0.243(2) 0.371(1)
C6 C 0.353(3) 0.281(2) 0.372(1)
C7 C 0.323(3) 0.280(2) 0.416(2)
C8 C 0.284(3) 0.313(2) 0.426(2)
C9 C 0.279(3) 0.320(2) 0.466(2)
C10 C 0.229(3) 0.357(2) 0.4782(3)
C11 C 0.266(3) 0.346(2) 0.392(1)
C12 C 0.269(2) 0.397(2) 0.396(1)
C13 C 0.240(2) 0.427(2) 0.368(1)
C14 C 0.209(2) 0.406(2) 0.337(1)
C15 C 0.206(2) 0.355(2) 0.333(1)
C16 C 0.234(2) 0.325(2) 0.361(1)
C17 C 0.192(2) 0.440(3) 0.304(2)
C18 C 0.455(2) 0.151(2) 0.396(1)
C19 C 0.428(2) 0.110(2) 0.381(1)
C20 C 0.455(2) 0.080(2) 0.352(1)
C21 C 0.509(2) 0.093(2) 0.338(1)
C22 C 0.536(2) 0.134(2) 0.353(1)
C23 C 0.509(2) 0.164(2) 0.382(1)
C24 C 0.551(4) 0.064(2) 0.306(2)
C2N C 0.429(3) 0.163(3) 0.533(2)
C1N C 0.464(5) 0.114(3) 0.5218(3)
C3N C 0.420(2) 0.176(2) 0.571(2)
C4N C 0.390(3) 0.214(2) 0.586(2)
N1N N 0.360(3) 0.248(3) 0.563(1)
C7N C 0.323(3) 0.280(2) 0.584(2)
C6N C 0.353(3) 0.281(2) 0.628(1)
C5N C 0.395(3) 0.243(2) 0.629(1)
C8N C 0.284(3) 0.313(2) 0.574(2)
C9N C 0.279(3) 0.320(2) 0.534(2)
C10N C 0.229(3) 0.357(2) 0.5218(3)
C11N C 0.266(3) 0.346(2) 0.608(1)
C12N C 0.269(2) 0.397(2) 0.604(1)
C13N C 0.240(2) 0.427(2) 0.632(1)
C14N C 0.209(2) 0.406(2) 0.663(1)
C15N C 0.206(2) 0.355(2) 0.667(1)
C16N C 0.234(2) 0.325(2) 0.639(1)
C17N C 0.192(2) 0.440(3) 0.696(2)
N4N N 0.159(2) 0.457(2) 0.713(2)
C18N C 0.455(2) 0.151(2) 0.604(1)
C19N C 0.428(2) 0.110(2) 0.619(1)
C20N C 0.455(2) 0.080(2) 0.648(1)
C21N C 0.509(2) 0.093(2) 0.662(1)
C22N C 0.536(2) 0.134(2) 0.647(1)
C23N C 0.509(2) 0.164(2) 0.618(1)
C24N C 0.551(4) 0.064(2) 0.694(2)
N5N N 0.569(3) 0.039(3) 0.716(2)
N4J N 0.159(2) 0.543(2) 0.213(2)
N5A N 0.069(3) 0.539(3) 0.284(2)
N5K N 0.069(3) 0.461(3) 0.216(2)
Cu1A Cu 0.6185(6) -0.0000 0.2500
Cu1D Cu 0.1185(6) 0.5000 0.7500
Cu1E Cu 0.6185(6) -0.0000 0.7500
loop_
_geom_bond_atom_site_label_1
_geom_bond_atom_site_label_2
_geom_bond_site_symmetry_1
_geom_bond_site_symmetry_2
Cu1 N4 1_555 1_555
Cu2 N1 1_555 1_555
N1 C4 1_555 1_555
N2 Cu2 1_555 1_555
N3 Cu2 1_555 1_555
N4 C17 1_555 1_555
N5 C24 1_555 1_555
C1 C2 1_555 1_555
C2 N2 1_555 1_555
C3 C2 1_555 1_555
C4 C3 1_555 1_555
C5 C4 1_555 1_555
C6 C5 1_555 1_555
C7 N1 1_555 1_555
C8 C7 1_555 1_555
C9 N3 1_555 1_555
C10 C9 1_555 1_555
C11 C8 1_555 1_555
C12 C11 1_555 1_555
C13 C12 1_555 1_555
C14 C13 1_555 1_555
C15 C14 1_555 1_555
C16 C11 1_555 1_555
C17 C14 1_555 1_555
C18 C3 1_555 1_555
C19 C18 1_555 1_555
C20 C19 1_555 1_555
C21 C20 1_555 1_555
C22 C21 1_555 1_555
C23 C18 1_555 1_555
C24 C21 1_555 1_555
C2N N2 1_555 1_555
C1N C1 1_555 1_555
C3N C2N 1_555 1_555
C4N C3N 1_555 1_555
N1N Cu2 1_555 1_555
C7N N1N 1_555 1_555
C6N C7N 1_555 1_555
C5N C4N 1_555 1_555
C8N C7N 1_555 1_555
C9N N3 1_555 1_555
C10N C10 1_555 1_555
C11N C8N 1_555 1_555
C12N C11N 1_555 1_555
C13N C12N 1_555 1_555
C14N C13N 1_555 1_555
C15N C14N 1_555 1_555
C16N C11N 1_555 1_555
C17N C14N 1_555 1_555
N4N C17N 1_555 1_555
C18N C3N 1_555 1_555
C19N C18N 1_555 1_555
C20N C19N 1_555 1_555
C21N C20N 1_555 1_555
C22N C21N 1_555 1_555
C23N C18N 1_555 1_555
C24N C21N 1_555 1_555
N5N C24N 1_555 1_555
N4J Cu1 1_555 1_555
N5A Cu1 1_555 1_555
N5K Cu1 1_555 1_555
Cu1A N5 1_555 1_555
Cu1D N4N 1_555 1_555
Cu1E N5N 1_555 1_555
C6 C7 1_555 1_555
C8 C9 1_555 1_555
C15 C16 1_555 1_555
C22 C23 1_555 1_555
C2N C1N 1_555 1_555
C4N N1N 1_555 1_555
C6N C5N 1_555 1_555
C8N C9N 1_555 1_555
C9N C10N 1_555 1_555
C15N C16N 1_555 1_555
C22N C23N 1_555 1_555

#END
