
#######################################################################
#
#                 Cambridge Crystallographic Data Centre
#                                CCDC 
#
#######################################################################
#
# If this CIF has been generated from an entry in the Cambridge 
# Structural Database, then it will include bibliographic, chemical, 
# crystal, experimental, refinement or atomic coordinate data resulting 
# from the CCDC's data processing and validation procedures.
#
#######################################################################

data_ZETPUL
_chemical_formula_moiety         '(C12 H19 Dy2 N3 O14)n'
_symmetry_cell_setting           tetragonal
_symmetry_space_group_name_H-M   'I 41/a'
_symmetry_Int_Tables_number      88
_space_group_name_Hall           '-I 4ad'
loop_
_symmetry_equiv_pos_site_id
_symmetry_equiv_pos_as_xyz
1 x,y,z
2 1/2-x,-y,1/2+z
3 3/4-y,1/4+x,1/4+z
4 3/4+y,3/4-x,3/4+z
5 1/2+x,1/2+y,1/2+z
6 -x,1/2-y,z
7 1/4-y,3/4+x,3/4+z
8 1/4+y,1/4-x,1/4+z
9 -x,-y,-z
10 1/2+x,y,1/2-z
11 1/4+y,3/4-x,3/4-z
12 1/4-y,1/4+x,1/4-z
13 1/2-x,1/2-y,1/2-z
14 x,1/2+y,-z
15 3/4+y,1/4-x,1/4-z
16 3/4-y,3/4+x,3/4-z
_cell_length_a                   25.803(3)
_cell_length_b                   25.803(3)
_cell_length_c                   11.9679(15)
_cell_angle_alpha                90
_cell_angle_beta                 90
_cell_angle_gamma                90
_cell_volume                     7968.17
loop_
_atom_site_label
_atom_site_type_symbol
_atom_site_fract_x
_atom_site_fract_y
_atom_site_fract_z
_atom_site_U_iso_or_equiv
_atom_site_thermal_displace_type
C1 C 0.1813(5) 0.7033(5) 0.0973(10) 0.0190 Uani
C2 C 0.1495(5) 0.6832(5) 0.0012(10) 0.0213 Uani
H1 H 0.1145 0.6760 0.0265 0.0260 Uiso
H2 H 0.1477 0.7093 -0.0569 0.0260 Uiso
C3 C 0.2083(5) 0.6472(5) -0.1385(11) 0.0250 Uani
H3 H 0.2280 0.6782 -0.1211 0.0300 Uiso
H4 H 0.1884 0.6538 -0.2058 0.0300 Uiso
C4 C 0.2449(4) 0.6026(4) -0.1582(10) 0.0157 Uani
C5 C 0.3441(5) 0.6327(5) 0.0347(11) 0.0237 Uani
C6 C 0.3900(6) 0.6657(6) 0.0704(14) 0.0450 Uani
H5 H 0.4171 0.6428 0.0972 0.0540 Uiso
H6 H 0.4033 0.6836 0.0051 0.0540 Uiso
C7 C 0.4188(6) 0.7052(7) 0.2441(16) 0.0527 Uani
H7 H 0.4201 0.7393 0.2779 0.0630 Uiso
H8 H 0.4523 0.6983 0.2104 0.0630 Uiso
C8 C 0.4081(7) 0.6652(9) 0.3331(18) 0.0690 Uani
C9 C 0.2502(4) 0.5764(4) 0.3699(9) 0.0147 Uani
C10 C 0.2778(6) 0.6005(5) 0.4676(11) 0.0293 Uani
H9 H 0.2606 0.5906 0.5363 0.0350 Uiso
H10 H 0.3132 0.5878 0.4705 0.0350 Uiso
C11 C 0.2324(7) 0.6802(6) 0.5103(12) 0.0423 Uani
H11 H 0.2400 0.6877 0.5880 0.0510 Uiso
H12 H 0.2043 0.6552 0.5085 0.0510 Uiso
C12 C 0.2153(6) 0.7287(5) 0.4542(11) 0.0290 Uani
Dy1 Dy 0.21809(2) 0.58081(2) 0.10043(5) 0.0155 Uani
Dy2 Dy 0.29179(2) 0.68653(2) 0.25673(5) 0.0181 Uani
N1 N 0.1728(4) 0.6351(4) -0.0450(8) 0.0180 Uani
H13 H 0.1465 0.6157 -0.0733 0.0220 Uiso
N2 N 0.3790(4) 0.7045(5) 0.1578(11) 0.0343 Uani
H14 H 0.3775 0.7364 0.1255 0.0410 Uiso
N3 N 0.2783(5) 0.6571(4) 0.4582(9) 0.0273 Uani
H15 H 0.3062 0.6684 0.4977 0.0330 Uiso
O1 O 0.2160(3) 0.6746(3) 0.1370(7) 0.0213 Uani
O2 O 0.1695(3) 0.7470(3) 0.1351(7) 0.0250 Uani
O3 O 0.2505(3) 0.5693(3) -0.0783(7) 0.0173 Uani
O4 O 0.2735(3) 0.6003(4) -0.2408(8) 0.0307 Uani
O5 O 0.3056(3) 0.6301(3) 0.0999(7) 0.0243 Uani
O6 O 0.3499(3) 0.6091(3) -0.0556(7) 0.0273 Uani
O7 O 0.3653(4) 0.6432(4) 0.3275(9) 0.0460 Uani
O8 O 0.4402(6) 0.6640(9) 0.4132(17) 0.1343 Uani
O9 O 0.2483(3) 0.6041(3) 0.2802(7) 0.0223 Uani
O10 O 0.2302(3) 0.5330(3) 0.3791(7) 0.0230 Uani
O11 O 0.2232(3) 0.7331(3) 0.3472(7) 0.0240 Uani
O12 O 0.1942(4) 0.7635(3) 0.5086(6) 0.0720 Uani
Dy1B Dy 0.16919(2) 0.46809(2) 0.35043(5) 0.0155 Uani
Dy1C Dy 0.33081(2) 0.53191(2) -0.14957(5) 0.0155 Uani
Dy2L Dy 0.20821(2) 0.81347(2) 0.24327(5) 0.0181 Uani
O2L O 0.3305(3) 0.7530(3) 0.3649(7) 0.0250 Uani
O3B O 0.1807(3) 0.5005(3) 0.1717(7) 0.0173 Uani
O4B O 0.1497(4) 0.5235(3) 0.0092(8) 0.0307 Uani
O6B O 0.1409(3) 0.5999(3) 0.1944(7) 0.0273 Uani
O10C O 0.2830(3) 0.5198(3) 0.1291(7) 0.0230 Uani
O11L O 0.2768(3) 0.7669(3) 0.1528(7) 0.0240 Uani
O13 O 0.3652(4) 0.6797(3) 0.6007(6) 0.0623 Uani
H16 H 0.3910 0.6891 0.5665 0.0750 Uiso
H17 H 0.3616 0.6965 0.6583 0.0750 Uiso
O14 O 0.3433(4) 0.7392(3) 0.7735(6) 0.2030 Uani
H18 H 0.3609 0.7649 0.7867 0.2420 Uiso
H19 H 0.3248 0.7339 0.8281 0.2420 Uiso
loop_
_atom_site_aniso_label
_atom_site_aniso_U_11
_atom_site_aniso_U_22
_atom_site_aniso_U_33
_atom_site_aniso_U_23
_atom_site_aniso_U_13
_atom_site_aniso_U_12
C1 0.023(7) 0.017(7) 0.017(6) 0.004(5) 0.003(5) -0.002(5)
C2 0.026(7) 0.018(6) 0.020(6) -0.006(5) -0.002(5) 0.010(5)
C3 0.028(7) 0.025(7) 0.022(7) 0.002(6) 0.001(6) 0.007(6)
C4 0.011(6) 0.013(6) 0.023(7) -0.001(5) 0.003(5) -0.002(5)
C5 0.022(7) 0.022(7) 0.027(7) -0.004(6) -0.009(6) 0.001(6)
C6 0.032(9) 0.047(10) 0.056(11) -0.031(8) 0.020(8) -0.013(7)
C7 0.019(8) 0.070(13) 0.069(13) -0.019(11) -0.003(8) 0.004(8)
C8 0.043(12) 0.092(16) 0.072(14) -0.013(12) -0.036(11) 0.014(11)
C9 0.014(3) 0.015(3) 0.015(3) 0.0003(10) -0.0001(10) -0.0001(10)
C10 0.035(8) 0.026(8) 0.027(7) -0.002(6) -0.006(6) -0.012(6)
C11 0.070(12) 0.027(8) 0.030(8) 0.008(7) 0.011(8) 0.015(8)
C12 0.037(8) 0.026(8) 0.024(7) -0.003(6) 0.001(6) -0.007(6)
Dy1 0.0167(3) 0.0154(3) 0.0145(3) -0.0003(2) 0.0006(2) 0.0000(2)
Dy2 0.0202(3) 0.0151(3) 0.0189(3) -0.0026(2) -0.0020(2) 0.0004(2)
N1 0.015(5) 0.016(5) 0.023(6) -0.003(4) 0.002(4) -0.001(4)
N2 0.016(6) 0.034(7) 0.053(8) -0.015(6) -0.003(6) -0.004(5)
N3 0.043(7) 0.014(5) 0.025(6) 0.002(5) -0.015(5) 0.005(5)
O1 0.021(5) 0.022(5) 0.021(5) 0.001(4) -0.007(4) -0.002(4)
O2 0.024(5) 0.020(5) 0.031(5) -0.006(4) -0.006(4) 0.004(4)
O3 0.016(4) 0.018(4) 0.018(4) 0.000(4) -0.002(3) 0.002(3)
O4 0.023(5) 0.046(6) 0.023(5) 0.005(4) 0.004(4) 0.004(4)
O5 0.025(5) 0.025(5) 0.023(5) -0.009(4) 0.003(4) -0.005(4)
O6 0.029(5) 0.030(5) 0.023(5) -0.009(4) 0.005(4) -0.004(4)
O7 0.042(7) 0.048(7) 0.048(7) 0.003(5) -0.013(6) 0.009(5)
O8 0.069(11) 0.20(2) 0.134(17) 0.028(15) -0.077(12) 0.003(12)
O9 0.037(5) 0.013(4) 0.017(4) 0.000(3) -0.007(4) 0.004(4)
O10 0.019(5) 0.021(5) 0.029(5) 0.004(4) 0.002(4) -0.008(4)
O11 0.022(5) 0.032(5) 0.018(5) -0.003(4) -0.002(4) -0.008(4)
O12 0.140(13) 0.050(8) 0.026(6) 0.005(6) 0.031(7) 0.030(8)
Dy1B 0.0154 0.0167 0.0145 0.0006 0.0003 0
Dy1C 0.0154 0.0167 0.0145 -0.0006 -0.0003 0
Dy2L 0.0202 0.0151 0.0189 -0.0026 -0.002 0.0004
O2L 0.024 0.02 0.031 -0.006 -0.006 0.004
O3B 0.018 0.016 0.018 -0.002 0 -0.002
O4B 0.046 0.023 0.023 0.004 -0.005 -0.004
O6B 0.03 0.029 0.023 0.005 0.009 0.004
O10C 0.021 0.019 0.029 -0.002 0.004 0.008
O11L 0.022 0.032 0.018 -0.003 -0.002 -0.008
O13 0.075(9) 0.062(8) 0.050(7) 0.005(6) -0.024(7) 0.000(7)
O14 0.37(4) 0.16(2) 0.079(14) -0.047(14) 0.08(2) -0.09(2)
loop_
_geom_bond_atom_site_label_1
_geom_bond_atom_site_label_2
_geom_bond_site_symmetry_1
_geom_bond_site_symmetry_2
C1 C2 1_555 1_555
C2 H1 1_555 1_555
H2 C2 1_555 1_555
C3 H3 1_555 1_555
H4 C3 1_555 1_555
C4 C3 1_555 1_555
C5 C6 1_555 1_555
C6 H5 1_555 1_555
H6 C6 1_555 1_555
C7 H7 1_555 1_555
H8 C7 1_555 1_555
C8 C7 1_555 1_555
C9 C10 1_555 1_555
C10 H9 1_555 1_555
H10 C10 1_555 1_555
C11 H11 1_555 1_555
H12 C11 1_555 1_555
C12 C11 1_555 1_555
Dy1 N1 1_555 1_555
Dy2 N2 1_555 1_555
N1 C2 1_555 1_555
H13 N1 1_555 1_555
N2 C6 1_555 1_555
H14 N2 1_555 1_555
N3 C10 1_555 1_555
H15 N3 1_555 1_555
O1 C1 1_555 1_555
O2 C1 1_555 1_555
O3 C4 1_555 1_555
O4 C4 1_555 1_555
O5 C5 1_555 1_555
O6 C5 1_555 1_555
O7 C8 1_555 1_555
O8 C8 1_555 1_555
O9 C9 1_555 1_555
O10 C9 1_555 1_555
O11 C12 1_555 1_555
O12 C12 1_555 1_555
O13 H16 1_555 1_555
H17 O13 1_555 1_555
O14 H18 1_555 1_555
H19 O14 1_555 1_555
Dy1B O10 1_555 1_555
Dy1C O3 1_555 1_555
Dy2L O2 1_555 1_555
O2L Dy2 1_555 1_555
O3B Dy1 1_555 1_555
O4B Dy1 1_555 1_555
O6B Dy1 1_555 1_555
O10C Dy1 1_555 1_555
O11L Dy2 1_555 1_555
C3 N1 1_555 1_555
C7 N2 1_555 1_555
C11 N3 1_555 1_555
Dy1 O1 1_555 1_555
Dy1 O3 1_555 1_555
Dy1 O5 1_555 1_555
Dy1 O9 1_555 1_555
Dy2 N3 1_555 1_555
Dy2 O1 1_555 1_555
Dy2 O5 1_555 1_555
Dy2 O7 1_555 1_555
Dy2 O9 1_555 1_555
Dy2 O11 1_555 1_555
O4 Dy1C 1_555 1_555
O6 Dy1C 1_555 1_555
O11 Dy2L 1_555 1_555
Dy1B O3B 1_555 1_555
Dy2L O11L 1_555 1_555

#END
