
#######################################################################
#
#                 Cambridge Crystallographic Data Centre
#                                CCDC 
#
#######################################################################
#
# If this CIF has been generated from an entry in the Cambridge 
# Structural Database, then it will include bibliographic, chemical, 
# crystal, experimental, refinement or atomic coordinate data resulting 
# from the CCDC's data processing and validation procedures.
#
#######################################################################

data_ZETQAS
_chemical_formula_moiety         '(C12 H19 N3 O14 Tb2)n'
_symmetry_cell_setting           tetragonal
_symmetry_space_group_name_H-M   'I 41/a'
_symmetry_Int_Tables_number      88
_space_group_name_Hall           '-I 4ad'
loop_
_symmetry_equiv_pos_site_id
_symmetry_equiv_pos_as_xyz
1 x,y,z
2 1/2-x,-y,1/2+z
3 3/4-y,1/4+x,1/4+z
4 3/4+y,3/4-x,3/4+z
5 1/2+x,1/2+y,1/2+z
6 -x,1/2-y,z
7 1/4-y,3/4+x,3/4+z
8 1/4+y,1/4-x,1/4+z
9 -x,-y,-z
10 1/2+x,y,1/2-z
11 1/4+y,3/4-x,3/4-z
12 1/4-y,1/4+x,1/4-z
13 1/2-x,1/2-y,1/2-z
14 x,1/2+y,-z
15 3/4+y,1/4-x,1/4-z
16 3/4-y,3/4+x,3/4-z
_cell_length_a                   25.824(5)
_cell_length_b                   25.824(5)
_cell_length_c                   11.966(3)
_cell_angle_alpha                90
_cell_angle_beta                 90
_cell_angle_gamma                90
_cell_volume                     7979.87
loop_
_atom_site_label
_atom_site_type_symbol
_atom_site_fract_x
_atom_site_fract_y
_atom_site_fract_z
_atom_site_U_iso_or_equiv
_atom_site_thermal_displace_type
C1 C 0.18098(18) 0.70320(18) 0.0975(4) 0.0167 Uani
C2 C 0.14943(19) 0.68297(19) 0.0009(4) 0.0213 Uani
H1 H 0.1147 0.6751 0.0264 0.0250 Uiso
H2 H 0.1469 0.7095 -0.0562 0.0250 Uiso
C3 C 0.2092(2) 0.6475(2) -0.1388(4) 0.0270 Uani
H3 H 0.2285 0.6786 -0.1207 0.0320 Uiso
H4 H 0.1898 0.6541 -0.2068 0.0320 Uiso
C4 C 0.24618(18) 0.60358(19) -0.1581(4) 0.0180 Uani
C5 C 0.34456(19) 0.63267(19) 0.0331(4) 0.0210 Uani
C6 C 0.3905(2) 0.6652(2) 0.0711(6) 0.0437 Uani
H5 H 0.4173 0.6420 0.0985 0.0520 Uiso
H6 H 0.4045 0.6832 0.0066 0.0520 Uiso
C7 C 0.4201(2) 0.7049(3) 0.2458(6) 0.0570 Uani
H7 H 0.4220 0.7393 0.2780 0.0690 Uiso
H8 H 0.4534 0.6968 0.2129 0.0690 Uiso
C8 C 0.4078(3) 0.6665(4) 0.3349(8) 0.0683 Uani
C9 C 0.24923(18) 0.57672(19) 0.3697(4) 0.0190 Uani
C10 C 0.2771(2) 0.6002(2) 0.4681(5) 0.0320 Uani
H9 H 0.2602 0.5897 0.5369 0.0390 Uiso
H10 H 0.3126 0.5878 0.4700 0.0390 Uiso
C11 C 0.2315(3) 0.6800(2) 0.5105(5) 0.0410 Uani
H11 H 0.2390 0.6874 0.5883 0.0500 Uiso
H12 H 0.2034 0.6551 0.5085 0.0500 Uiso
C12 C 0.2143(2) 0.7289(2) 0.4539(5) 0.0323 Uani
N1 N 0.17293(15) 0.63593(15) -0.0476(3) 0.0180 Uani
H13 H 0.1468 0.6166 -0.0769 0.0210 Uiso
N2 N 0.37944(17) 0.70364(19) 0.1584(4) 0.0347 Uani
H14 H 0.3780 0.7354 0.1258 0.0410 Uiso
N3 N 0.27676(17) 0.65716(15) 0.4594(4) 0.0257 Uani
H15 H 0.3045 0.6686 0.4995 0.0310 Uiso
O1 O 0.21624(12) 0.67430(12) 0.1358(3) 0.0181 Uani
O2 O 0.16950(13) 0.74733(13) 0.1340(3) 0.0245 Uani
O3 O 0.25018(12) 0.56950(12) -0.0803(3) 0.0195 Uani
O4 O 0.27349(14) 0.60054(15) -0.2421(3) 0.0297 Uani
O5 O 0.30581(13) 0.62995(13) 0.0981(3) 0.0226 Uani
O6 O 0.35027(13) 0.60948(13) -0.0567(3) 0.0254 Uani
O7 O 0.4398(3) 0.6636(4) 0.4152(7) 0.1423 Uani
O8 O 0.36581(17) 0.64291(17) 0.3282(4) 0.0463 Uani
O9 O 0.24859(13) 0.60372(13) 0.2805(3) 0.0211 Uani
O10 O 0.23059(13) 0.53321(13) 0.3786(3) 0.0246 Uani
O11 O 0.1926(2) 0.7626(2) 0.5082(4) 0.0743 Uani
O12 O 0.22279(11) 0.73287(10) 0.3482(2) 0.0220 Uani
Tb1 Tb 0.218038(8) 0.580817(8) 0.099506(19) 0.0149 Uani
Tb2 Tb 0.291909(9) 0.686610(9) 0.25685(2) 0.0175 Uani
O2L O 0.33050(13) 0.75267(13) 0.3660(3) 0.0245 Uani
O3B O 0.18050(12) 0.50018(12) 0.1697(3) 0.0195 Uani
O4B O 0.14946(15) 0.52349(14) 0.0079(3) 0.0297 Uani
O6B O 0.14052(13) 0.60027(13) 0.1933(3) 0.0254 Uani
O10C O 0.28321(13) 0.51941(13) 0.1286(3) 0.0246 Uani
O12L O 0.27721(11) 0.76713(10) 0.1518(2) 0.0220 Uani
Tb1B Tb 0.169183(8) 0.468038(8) 0.349506(19) 0.0149 Uani
Tb1C Tb 0.330817(8) 0.531962(8) -0.150494(19) 0.0149 Uani
Tb2L Tb 0.208091(9) 0.813390(9) 0.24315(2) 0.0175 Uani
O13 O 0.36537(11) 0.67943(10) 0.6007(2) 0.0683 Uani
H16 H 0.3560 0.7012 0.6466 0.1020 Uiso
H17 H 0.3796 0.6936 0.5474 0.1020 Uiso
O14 O 0.34486(11) 0.73941(10) 0.7740(2) 0.2090 Uani
H18 H 0.3672 0.7609 0.7887 0.3140 Uiso
H19 H 0.3289 0.7333 0.8317 0.3140 Uiso
loop_
_atom_site_aniso_label
_atom_site_aniso_U_11
_atom_site_aniso_U_22
_atom_site_aniso_U_33
_atom_site_aniso_U_23
_atom_site_aniso_U_13
_atom_site_aniso_U_12
C1 0.014(2) 0.020(3) 0.016(3) 0.001(2) 0.003(2) -0.0069(19)
C2 0.019(3) 0.021(3) 0.024(3) -0.005(2) -0.004(2) 0.007(2)
C3 0.033(3) 0.028(3) 0.020(3) 0.007(2) 0.003(2) 0.009(2)
C4 0.016(2) 0.022(3) 0.016(3) -0.001(2) -0.002(2) 0.000(2)
C5 0.020(3) 0.017(3) 0.026(3) -0.001(2) -0.001(2) 0.000(2)
C6 0.032(3) 0.045(4) 0.054(4) -0.027(3) 0.014(3) -0.011(3)
C7 0.025(3) 0.076(5) 0.070(6) -0.039(5) -0.006(3) -0.003(3)
C8 0.037(4) 0.091(6) 0.077(6) -0.006(5) -0.018(4) 0.020(4)
C9 0.018(3) 0.021(3) 0.018(3) 0.001(2) -0.001(2) 0.003(2)
C10 0.050(4) 0.022(3) 0.024(3) 0.004(2) -0.010(3) -0.003(3)
C11 0.058(4) 0.038(4) 0.027(3) 0.010(3) 0.014(3) 0.006(3)
C12 0.041(3) 0.030(3) 0.026(3) -0.002(3) 0.009(3) -0.001(3)
N1 0.017(2) 0.017(2) 0.020(2) -0.0070(17) -0.0013(17) 0.0007(16)
N2 0.024(2) 0.034(3) 0.046(3) -0.015(2) 0.007(2) -0.009(2)
N3 0.036(3) 0.016(2) 0.025(3) -0.0013(19) -0.010(2) 0.0008(19)
O1 0.0183(17) 0.0158(17) 0.0202(18) -0.0005(14) -0.0053(14) 0.0008(14)
O2 0.026(2) 0.0165(18) 0.031(2) -0.0095(16) -0.0072(16) 0.0042(15)
O3 0.0178(17) 0.0201(18) 0.0205(19) 0.0011(15) 0.0042(14) 0.0001(14)
O4 0.031(2) 0.039(2) 0.019(2) 0.0048(17) 0.0073(17) 0.0093(17)
O5 0.0196(18) 0.0232(19) 0.025(2) -0.0063(15) 0.0031(15) -0.0031(15)
O6 0.0240(19) 0.0242(19) 0.028(2) -0.0099(17) 0.0058(16) -0.0063(15)
O7 0.080(5) 0.221(10) 0.126(7) 0.016(7) -0.062(5) 0.024(5)
O8 0.041(3) 0.046(3) 0.052(3) -0.001(2) -0.012(2) 0.016(2)
O9 0.0296(19) 0.0197(18) 0.0140(18) 0.0038(15) -0.0014(15) -0.0013(15)
O10 0.0258(19) 0.0191(19) 0.029(2) 0.0008(16) -0.0016(16) -0.0068(15)
O11 0.129(5) 0.054(3) 0.040(3) 0.007(2) 0.030(3) 0.044(3)
O12 0.0234(19) 0.0227(19) 0.020(2) -0.0012(15) 0.0028(15) 0.0000(15)
Tb1 0.01523(13) 0.01400(13) 0.01541(15) -0.00030(9) 0.00113(9) -0.00032(9)
Tb2 0.01942(14) 0.01377(13) 0.01945(15) -0.00255(9) -0.00215(10) 0.00051(9)
O2L 0.026 0.0165 0.031 -0.0095 -0.0072 0.0042
O3B 0.0201 0.0178 0.0205 0.0042 -0.0011 -0.0001
O4B 0.039 0.031 0.019 0.0073 -0.0048 -0.0093
O6B 0.0242 0.024 0.028 0.0058 0.0099 0.0063
O10C 0.0191 0.0258 0.029 0.0016 0.0008 0.0068
O12L 0.0234 0.0227 0.02 -0.0012 0.0028 0
Tb1B 0.014 0.01523 0.01541 0.00113 0.0003 0.00032
Tb1C 0.014 0.01523 0.01541 -0.00113 -0.0003 0.00032
Tb2L 0.01942 0.01377 0.01945 -0.00255 -0.00215 0.00051
O13 0.094(4) 0.056(3) 0.055(3) 0.007(3) -0.026(3) -0.001(3)
O14 0.371(16) 0.168(9) 0.088(6) -0.049(6) 0.101(8) -0.123(10)
loop_
_geom_bond_atom_site_label_1
_geom_bond_atom_site_label_2
_geom_bond_site_symmetry_1
_geom_bond_site_symmetry_2
C1 C2 1_555 1_555
C2 H1 1_555 1_555
H2 C2 1_555 1_555
C3 H3 1_555 1_555
H4 C3 1_555 1_555
C4 C3 1_555 1_555
C5 C6 1_555 1_555
C6 H5 1_555 1_555
H6 C6 1_555 1_555
C7 H7 1_555 1_555
H8 C7 1_555 1_555
C8 C7 1_555 1_555
C9 C10 1_555 1_555
C10 H9 1_555 1_555
H10 C10 1_555 1_555
C11 H11 1_555 1_555
H12 C11 1_555 1_555
C12 C11 1_555 1_555
N1 C2 1_555 1_555
H13 N1 1_555 1_555
N2 C6 1_555 1_555
H14 N2 1_555 1_555
N3 C10 1_555 1_555
H15 N3 1_555 1_555
O1 C1 1_555 1_555
O2 C1 1_555 1_555
O3 C4 1_555 1_555
O4 C4 1_555 1_555
O5 C5 1_555 1_555
O6 C5 1_555 1_555
O7 C8 1_555 1_555
O8 C8 1_555 1_555
O9 C9 1_555 1_555
O10 C9 1_555 1_555
O11 C12 1_555 1_555
O12 C12 1_555 1_555
Tb1 N1 1_555 1_555
Tb2 N2 1_555 1_555
O13 H16 1_555 1_555
H17 O13 1_555 1_555
O14 H18 1_555 1_555
H19 O14 1_555 1_555
O2L Tb2 1_555 1_555
O3B Tb1 1_555 1_555
O4B Tb1 1_555 1_555
O6B Tb1 1_555 1_555
O10C Tb1 1_555 1_555
O12L Tb2 1_555 1_555
Tb1B O10 1_555 1_555
Tb1C O3 1_555 1_555
Tb2L O2 1_555 1_555
C3 N1 1_555 1_555
C7 N2 1_555 1_555
C11 N3 1_555 1_555
N3 Tb2 1_555 1_555
O1 Tb1 1_555 1_555
O1 Tb2 1_555 1_555
O3 Tb1 1_555 1_555
O4 Tb1C 1_555 1_555
O5 Tb1 1_555 1_555
O5 Tb2 1_555 1_555
O6 Tb1C 1_555 1_555
O8 Tb2 1_555 1_555
O9 Tb1 1_555 1_555
O9 Tb2 1_555 1_555
O12 Tb2 1_555 1_555
O12 Tb2L 1_555 1_555
O3B Tb1B 1_555 1_555
O12L Tb2L 1_555 1_555

#END
