
#######################################################################
#
#                 Cambridge Crystallographic Data Centre
#                                CCDC 
#
#######################################################################
#
# If this CIF has been generated from an entry in the Cambridge 
# Structural Database, then it will include bibliographic, chemical, 
# crystal, experimental, refinement or atomic coordinate data resulting 
# from the CCDC's data processing and validation procedures.
#
#######################################################################

data_ZETQIA
_chemical_formula_moiety         '(C12 H19 N3 Nd2 O14)n'
_symmetry_cell_setting           tetragonal
_symmetry_space_group_name_H-M   'I 41/a'
_symmetry_Int_Tables_number      88
_space_group_name_Hall           '-I 4ad'
loop_
_symmetry_equiv_pos_site_id
_symmetry_equiv_pos_as_xyz
1 x,y,z
2 1/2-x,-y,1/2+z
3 3/4-y,1/4+x,1/4+z
4 3/4+y,3/4-x,3/4+z
5 1/2+x,1/2+y,1/2+z
6 -x,1/2-y,z
7 1/4-y,3/4+x,3/4+z
8 1/4+y,1/4-x,1/4+z
9 -x,-y,-z
10 1/2+x,y,1/2-z
11 1/4+y,3/4-x,3/4-z
12 1/4-y,1/4+x,1/4-z
13 1/2-x,1/2-y,1/2-z
14 x,1/2+y,-z
15 3/4+y,1/4-x,1/4-z
16 3/4-y,3/4+x,3/4-z
_cell_length_a                   26.2339(16)
_cell_length_b                   26.2339(16)
_cell_length_c                   12.0733(14)
_cell_angle_alpha                90
_cell_angle_beta                 90
_cell_angle_gamma                90
_cell_volume                     8309.06
loop_
_atom_site_label
_atom_site_type_symbol
_atom_site_fract_x
_atom_site_fract_y
_atom_site_fract_z
_atom_site_U_iso_or_equiv
_atom_site_thermal_displace_type
C1 C 0.68136(18) 0.20315(18) 0.0922(4) 0.0183 Uani
C2 C 0.6509(2) 0.1845(2) -0.0059(4) 0.0250 Uani
H1 H 0.6164 0.1767 0.0177 0.0300 Uiso
H2 H 0.6490 0.2113 -0.0612 0.0300 Uiso
C3 C 0.7103(2) 0.1499(2) -0.1446(5) 0.0297 Uani
H3 H 0.7298 0.1799 -0.1247 0.0360 Uiso
H4 H 0.6916 0.1574 -0.2119 0.0360 Uiso
C4 C 0.74648(19) 0.10591(19) -0.1660(4) 0.0210 Uani
C5 C 0.84546(19) 0.13249(18) 0.0307(4) 0.0217 Uani
C6 C 0.8916(2) 0.1625(3) 0.0704(6) 0.0443 Uani
H5 H 0.9164 0.1386 0.0999 0.0540 Uiso
H6 H 0.9070 0.1791 0.0070 0.0540 Uiso
C7 C 0.9203(2) 0.2035(3) 0.2417(6) 0.0507 Uani
H7 H 0.9222 0.2379 0.2710 0.0600 Uiso
H8 H 0.9532 0.1951 0.2098 0.0600 Uiso
C8 C 0.9086(3) 0.1670(4) 0.3343(8) 0.0683 Uani
C9 C 0.74913(18) 0.07734(18) 0.3677(4) 0.0203 Uani
C10 C 0.7756(2) 0.1004(2) 0.4663(5) 0.0333 Uani
H9 H 0.7587 0.0893 0.5335 0.0400 Uiso
H10 H 0.8106 0.0883 0.4688 0.0400 Uiso
C11 C 0.7311(3) 0.1797(3) 0.5124(5) 0.0467 Uani
H11 H 0.7391 0.1879 0.5888 0.0560 Uiso
H12 H 0.7035 0.1551 0.5129 0.0560 Uiso
C12 C 0.7131(2) 0.2274(2) 0.4547(5) 0.0337 Uani
N1 N 0.67425(15) 0.13835(15) -0.0558(3) 0.0203 Uani
H13 H 0.6485 0.1199 -0.0865 0.0240 Uiso
N2 N 0.88116(17) 0.20133(19) 0.1554(4) 0.0350 Uani
H14 H 0.8801 0.2323 0.1214 0.0420 Uiso
N3 N 0.77545(18) 0.15641(16) 0.4616(4) 0.0277 Uani
H15 H 0.8028 0.1669 0.5021 0.0330 Uiso
Nd1 Nd 0.717479(9) 0.080480(9) 0.09318(2) 0.0151 Uani
Nd2 Nd 0.792648(10) 0.186813(9) 0.25562(2) 0.0180 Uani
O1 O 0.71630(13) 0.17501(12) 0.1299(3) 0.0207 Uani
O2 O 0.66950(14) 0.24578(13) 0.1312(3) 0.0270 Uani
O3 O 0.74846(12) 0.07083(12) -0.0921(3) 0.0199 Uani
O4 O 0.77404(15) 0.10453(15) -0.2484(3) 0.0323 Uani
O5 O 0.80689(13) 0.12947(13) 0.0939(3) 0.0255 Uani
O6 O 0.85047(14) 0.11069(13) -0.0601(3) 0.0277 Uani
O7 O 0.86724(18) 0.14339(17) 0.3305(4) 0.0467 Uani
O8 O 0.9395(3) 0.1665(4) 0.4156(6) 0.1273 Uani
O9 O 0.74814(14) 0.10431(13) 0.2795(3) 0.0237 Uani
O10 O 0.73134(14) 0.03368(13) 0.3736(3) 0.0266 Uani
O11 O 0.72207(13) 0.23153(13) 0.3498(3) 0.0236 Uani
O12 O 0.69001(15) 0.25999(13) 0.5076(3) 0.0873 Uani
Nd1B Nd 0.669520(9) -0.032521(9) 0.34318(2) 0.0151 Uani
Nd1C Nd 0.830480(9) 0.032521(9) -0.15682(2) 0.0151 Uani
Nd2L Nd 0.707352(10) 0.313187(9) 0.24438(2) 0.0180 Uani
O2L O 0.83050(14) 0.25422(13) 0.3688(3) 0.0270 Uani
O3B O 0.67917(12) -0.00154(12) 0.1579(3) 0.0199 Uani
O4B O 0.64547(15) 0.02404(15) 0.0016(3) 0.0323 Uani
O6B O 0.63931(13) 0.10047(14) 0.1899(3) 0.0277 Uani
O10C O 0.78368(13) 0.01866(14) 0.1236(3) 0.0266 Uani
O11L O 0.77793(13) 0.26847(13) 0.1502(3) 0.0236 Uani
O13 O 0.65580(15) 0.25924(13) 0.7269(3) 0.1900 Uani
H16 H 0.6682 0.2612 0.6648 0.2850 Uiso
H17 H 0.6275 0.2462 0.7209 0.2850 Uiso
O14 O 0.86424(15) 0.17742(13) 0.6004(3) 0.0603 Uani
H18 H 0.8563 0.1991 0.6464 0.0900 Uiso
H19 H 0.8836 0.1895 0.5540 0.0900 Uiso
loop_
_atom_site_aniso_label
_atom_site_aniso_U_11
_atom_site_aniso_U_22
_atom_site_aniso_U_33
_atom_site_aniso_U_23
_atom_site_aniso_U_13
_atom_site_aniso_U_12
C1 0.020(3) 0.017(2) 0.018(3) -0.003(2) 0.005(2) -0.002(2)
C2 0.024(3) 0.026(3) 0.025(3) -0.003(2) -0.005(2) 0.007(2)
C3 0.034(3) 0.028(3) 0.027(3) 0.007(2) 0.007(2) 0.010(2)
C4 0.020(3) 0.025(3) 0.018(3) 0.000(2) -0.004(2) 0.003(2)
C5 0.021(3) 0.013(2) 0.031(3) -0.003(2) 0.001(2) -0.002(2)
C6 0.028(3) 0.056(4) 0.049(4) -0.028(3) 0.007(3) -0.008(3)
C7 0.021(3) 0.066(5) 0.065(5) -0.036(4) -0.002(3) 0.000(3)
C8 0.041(5) 0.084(6) 0.080(6) -0.011(5) -0.022(4) 0.022(4)
C9 0.017(3) 0.019(3) 0.025(3) 0.000(2) 0.003(2) 0.002(2)
C10 0.056(4) 0.020(3) 0.024(3) 0.006(2) -0.015(3) 0.000(3)
C11 0.061(5) 0.047(4) 0.032(4) 0.013(3) 0.011(3) 0.013(3)
C12 0.044(4) 0.034(3) 0.023(3) 0.006(2) 0.006(3) 0.006(3)
N1 0.021(2) 0.019(2) 0.021(2) -0.0064(17) -0.0025(18) 0.0027(17)
N2 0.025(3) 0.033(3) 0.047(3) -0.021(2) 0.004(2) -0.006(2)
N3 0.039(3) 0.019(2) 0.025(2) -0.0014(19) -0.009(2) -0.0014(19)
Nd1 0.01571(14) 0.01470(14) 0.01503(15) -0.00029(10) 0.00129(10) -0.00046(10)
Nd2 0.01966(15) 0.01421(14) 0.01999(16) -0.00275(10) -0.00227(11) 0.00095(10)
O1 0.0207(18) 0.0165(17) 0.025(2) -0.0022(14) -0.0073(15) -0.0004(14)
O2 0.028(2) 0.0191(19) 0.034(2) -0.0098(16) -0.0068(17) 0.0061(15)
O3 0.0200(18) 0.0171(17) 0.0226(19) 0.0030(14) 0.0009(14) 0.0041(14)
O4 0.035(2) 0.039(2) 0.023(2) 0.0072(17) 0.0090(17) 0.0134(18)
O5 0.0237(19) 0.0247(19) 0.028(2) -0.0070(16) 0.0029(16) -0.0049(15)
O6 0.030(2) 0.024(2) 0.029(2) -0.0099(16) 0.0053(17) -0.0061(16)
O7 0.045(3) 0.043(3) 0.052(3) -0.004(2) -0.013(2) 0.019(2)
O8 0.068(5) 0.205(9) 0.109(6) 0.007(6) -0.052(4) 0.008(5)
O9 0.035(2) 0.0215(19) 0.0145(18) 0.0035(14) -0.0036(15) -0.0020(16)
O10 0.030(2) 0.0199(19) 0.030(2) 0.0000(16) -0.0011(16) -0.0050(16)
O11 0.026(2) 0.0228(19) 0.022(2) 0.0006(15) 0.0030(15) 0.0017(15)
O12 0.146(6) 0.072(4) 0.044(3) 0.008(3) 0.037(4) 0.062(4)
Nd1B 0.0147 0.01571 0.01503 0.00129 0.00029 0.00046
Nd1C 0.0147 0.01571 0.01503 -0.00129 -0.00029 0.00046
Nd2L 0.01966 0.01421 0.01999 -0.00275 -0.00227 0.00095
O2L 0.028 0.0191 0.034 -0.0098 -0.0068 0.0061
O3B 0.0171 0.02 0.0226 0.0009 -0.003 -0.0041
O4B 0.039 0.035 0.023 0.009 -0.0072 -0.0134
O6B 0.024 0.03 0.029 0.0053 0.0099 0.0061
O10C 0.0199 0.03 0.03 0.0011 0 0.005
O11L 0.026 0.0228 0.022 0.0006 0.003 0.0017
O13 0.330(15) 0.157(9) 0.083(6) -0.044(6) 0.085(8) -0.097(9)
O14 0.078(4) 0.049(3) 0.054(3) 0.005(2) -0.021(3) 0.002(3)
loop_
_geom_bond_atom_site_label_1
_geom_bond_atom_site_label_2
_geom_bond_site_symmetry_1
_geom_bond_site_symmetry_2
C1 C2 1_555 1_555
C2 H1 1_555 1_555
H2 C2 1_555 1_555
C3 H3 1_555 1_555
H4 C3 1_555 1_555
C4 C3 1_555 1_555
C5 C6 1_555 1_555
C6 H5 1_555 1_555
H6 C6 1_555 1_555
C7 H7 1_555 1_555
H8 C7 1_555 1_555
C8 C7 1_555 1_555
C9 C10 1_555 1_555
C10 H9 1_555 1_555
H10 C10 1_555 1_555
C11 H11 1_555 1_555
H12 C11 1_555 1_555
C12 C11 1_555 1_555
N1 C2 1_555 1_555
H13 N1 1_555 1_555
N2 C6 1_555 1_555
H14 N2 1_555 1_555
N3 C10 1_555 1_555
H15 N3 1_555 1_555
Nd1 N1 1_555 1_555
Nd2 N2 1_555 1_555
O1 C1 1_555 1_555
O2 C1 1_555 1_555
O3 C4 1_555 1_555
O4 C4 1_555 1_555
O5 C5 1_555 1_555
O6 C5 1_555 1_555
O7 C8 1_555 1_555
O8 C8 1_555 1_555
O9 C9 1_555 1_555
O10 C9 1_555 1_555
O11 C12 1_555 1_555
O12 C12 1_555 1_555
O13 H16 1_555 1_555
H17 O13 1_555 1_555
O14 H18 1_555 1_555
H19 O14 1_555 1_555
Nd1B O10 1_555 1_555
Nd1C O3 1_555 1_555
Nd2L O2 1_555 1_555
O2L Nd2 1_555 1_555
O3B Nd1 1_555 1_555
O4B Nd1 1_555 1_555
O6B Nd1 1_555 1_555
O10C Nd1 1_555 1_555
O11L Nd2 1_555 1_555
C3 N1 1_555 1_555
C7 N2 1_555 1_555
C11 N3 1_555 1_555
N3 Nd2 1_555 1_555
Nd1 O1 1_555 1_555
Nd1 O3 1_555 1_555
Nd1 O5 1_555 1_555
Nd1 O9 1_555 1_555
Nd2 O1 1_555 1_555
Nd2 O5 1_555 1_555
Nd2 O7 1_555 1_555
Nd2 O9 1_555 1_555
Nd2 O11 1_555 1_555
O4 Nd1C 1_555 1_555
O6 Nd1C 1_555 1_555
O11 Nd2L 1_555 1_555
Nd1B O3B 1_555 1_555
Nd2L O11L 1_555 1_555

#END
