
#######################################################################
#
#                 Cambridge Crystallographic Data Centre
#                                CCDC 
#
#######################################################################
#
# If this CIF has been generated from an entry in the Cambridge 
# Structural Database, then it will include bibliographic, chemical, 
# crystal, experimental, refinement or atomic coordinate data resulting 
# from the CCDC's data processing and validation procedures.
#
#######################################################################

data_GOMPOO
_chemical_formula_moiety         '(C3 H6 Al3 N2 O13 P3)n'
_symmetry_cell_setting           monoclinic
_symmetry_space_group_name_H-M   'P 21/n'
_symmetry_Int_Tables_number      14
_space_group_name_Hall           '-P 2yn'
loop_
_symmetry_equiv_pos_site_id
_symmetry_equiv_pos_as_xyz
1 x,y,z
2 1/2-x,1/2+y,1/2-z
3 -x,-y,-z
4 1/2+x,1/2-y,1/2+z
_cell_length_a                   8.6191(4)
_cell_length_b                   17.8031(10)
_cell_length_c                   9.0257(5)
_cell_angle_alpha                90
_cell_angle_beta                 107.357(2)
_cell_angle_gamma                90
_cell_volume                     1321.9
loop_
_atom_site_label
_atom_site_type_symbol
_atom_site_fract_x
_atom_site_fract_y
_atom_site_fract_z
P1 P 0.34760(11) 0.42755(5) 0.36100(11)
P2 P -0.19311(12) 0.29217(5) 0.47431(11)
P3 P 0.26634(11) 0.16905(5) 0.49610(10)
Al1 Al 0.07720(13) 0.29557(6) 0.28743(13)
Al2 Al 0.13704(13) 0.10962(6) 0.16094(12)
Al3 Al 0.02365(14) 0.17754(7) 0.69316(13)
O1 O 0.0448(3) 0.20608(15) 0.1795(3)
H1 H 0.0000 0.2143 0.0872
O2 O 0.1931(3) 0.38098(15) 0.3084(3)
O3 O 0.2466(3) 0.25081(14) 0.4384(3)
O4 O -0.0543(3) 0.30645(16) 0.4075(3)
O5 O 0.4327(3) 0.15892(15) 0.6132(3)
O6 O 0.4615(3) 0.40524(15) 0.2632(3)
O7 O -0.1506(3) 0.22697(15) 0.5916(3)
O8 O 0.1323(3) 0.14924(16) 0.5706(3)
O9 O -0.3491(3) 0.26930(15) 0.3453(3)
O10 O 0.2489(3) 0.11346(15) 0.3632(3)
O11 O 0.4375(3) 0.41341(15) 0.5319(3)
O12 O 0.3008(3) 0.50925(14) 0.3324(3)
O13 O -0.2268(3) 0.36298(15) 0.5533(3)
Al1C Al 0.57720(13) 0.20443(6) 0.78743(13)
Al2C Al 0.63704(13) 0.39038(6) 0.66094(12)
Al2A Al 0.36296(13) 0.60962(6) 0.33906(12)
Al2C_2 Al -0.36296(13) 0.39038(6) 0.66094(12)
Al3C Al 0.52365(14) 0.32246(7) 0.19316(13)
Al3C_2 Al -0.47635(14) 0.32246(7) 0.19316(13)
O5C O -0.0673(3) 0.34108(15) 0.1132(3)
O6C O -0.0385(3) 0.09476(15) 0.7632(3)
O9C O 0.1509(3) 0.23070(15) 0.8453(3)
O11C O -0.0625(3) 0.08659(15) 0.0319(3)
O12A O 0.1992(3) 0.00925(14) 0.1676(3)
O13C O 0.2732(3) 0.13702(15) 0.0533(3)
N1 N 0.9610(11) 0.5313(5) 0.2243(11)
H2 H 1.0646 0.5341 0.2424
C1 C 0.8880(12) 0.4908(6) 0.2994(12)
H3 H 0.9373 0.4562 0.3763
N2 N 0.7269(12) 0.5065(5) 0.2487(10)
H4 H 0.6531 0.4862 0.2820
C2 C 0.7029(14) 0.5578(6) 0.1399(13)
H5 H 0.6039 0.5815 0.0941
C3 C 0.8411(17) 0.5717(8) 0.1036(17)
H6 H 0.8557 0.6000 0.0221
loop_
_geom_bond_atom_site_label_1
_geom_bond_atom_site_label_2
_geom_bond_site_symmetry_1
_geom_bond_site_symmetry_2
P1 O2 1_555 1_555
P2 O4 1_555 1_555
P3 O3 1_555 1_555
Al1 O1 1_555 1_555
Al2 O1 1_555 1_555
Al3 O7 1_555 1_555
O1 H1 1_555 1_555
O2 Al1 1_555 1_555
O3 Al1 1_555 1_555
O4 Al1 1_555 1_555
O5 P3 1_555 1_555
O6 P1 1_555 1_555
O7 P2 1_555 1_555
O8 P3 1_555 1_555
O9 P2 1_555 1_555
O10 P3 1_555 1_555
O11 P1 1_555 1_555
O12 P1 1_555 1_555
O13 P2 1_555 1_555
N1 H2 1_555 1_555
C1 N1 1_555 1_555
H3 C1 1_555 1_555
N2 C1 1_555 1_555
H4 N2 1_555 1_555
C2 N2 1_555 1_555
H5 C2 1_555 1_555
C3 N1 1_555 1_555
H6 C3 1_555 1_555
Al1C O5 1_555 1_555
Al2C O11 1_555 1_555
Al2A O12 1_555 1_555
Al2C_2 O13 1_555 1_555
Al3C O6 1_555 1_555
Al3C_2 O9 1_555 1_555
O5C Al1 1_555 1_555
O6C Al3 1_555 1_555
O9C Al3 1_555 1_555
O11C Al2 1_555 1_555
O12A Al2 1_555 1_555
O13C Al2 1_555 1_555
Al2 O10 1_555 1_555
Al3 O8 1_555 1_555
C2 C3 1_555 1_555

#END
