
#######################################################################
#
#                 Cambridge Crystallographic Data Centre
#                                CCDC 
#
#######################################################################
#
# If this CIF has been generated from an entry in the Cambridge 
# Structural Database, then it will include bibliographic, chemical, 
# crystal, experimental, refinement or atomic coordinate data resulting 
# from the CCDC's data processing and validation procedures.
#
#######################################################################

data_QIXNIW
_chemical_formula_moiety         '(C42 H46 Er4 O41)n'
_symmetry_cell_setting           monoclinic
_symmetry_space_group_name_H-M   'P 21/c'
_symmetry_Int_Tables_number      14
_space_group_name_Hall           '-P 2ybc'
loop_
_symmetry_equiv_pos_site_id
_symmetry_equiv_pos_as_xyz
1 x,y,z
2 -x,1/2+y,1/2-z
3 -x,-y,-z
4 x,1/2-y,1/2+z
_cell_length_a                   9.8475(8)
_cell_length_b                   29.058(2)
_cell_length_c                   10.8151(9)
_cell_angle_alpha                90
_cell_angle_beta                 92.3110(10)
_cell_angle_gamma                90
_cell_volume                     3092.21
loop_
_atom_site_label
_atom_site_type_symbol
_atom_site_fract_x
_atom_site_fract_y
_atom_site_fract_z
C1 C 1.0764(6) 0.3491(2) -0.0877(5)
C2 C 0.9835(6) 0.3804(2) -0.1338(5)
H1 H 1.0144 0.4082 -0.1696
C3 C 0.8432(6) 0.3721(2) -0.1290(5)
H2 H 0.7808 0.3939 -0.1640
C4 C 0.7950(6) 0.3334(2) -0.0752(5)
C5 C 0.8884(6) 0.30156(18) -0.0158(5)
C6 C 0.8450(6) 0.2638(2) 0.0600(5)
C7 C 0.9370(6) 0.2331(2) 0.1074(6)
H3 H 0.9077 0.2093 0.1603
C8 C 1.0751(6) 0.2361(2) 0.0794(6)
H4 H 1.1365 0.2130 0.1089
C9 C 1.1223(6) 0.27168(19) 0.0104(5)
C10 C 1.0319(5) 0.30716(19) -0.0326(5)
C11 C 1.2193(6) 0.36584(19) -0.0800(5)
C12 C 0.6479(6) 0.3225(2) -0.0983(5)
C13 C 0.7042(6) 0.2615(2) 0.1060(5)
C14 C 1.2682(6) 0.26743(19) -0.0303(6)
C15 C 1.0262(6) 0.4866(2) 0.2304(6)
H5 H 1.0576 0.4833 0.3141
C16 C 1.1182(6) 0.48940(19) 0.1402(5)
C17 C 1.2635(6) 0.4770(2) 0.1731(5)
C18 C 1.0714(5) 0.49878(19) 0.0140(5)
C19 C 1.1615(6) 0.5064(2) -0.0830(5)
C20 C 1.3112(6) 0.5146(2) -0.0590(5)
C21 C 1.1136(6) 0.5116(2) -0.2024(6)
H6 H 1.1758 0.5141 -0.2670
O1 O 1.2644(4) 0.39064(14) -0.1665(4)
O2 O 1.2930(4) 0.35851(14) 0.0152(3)
O3 O 0.5634(4) 0.35413(15) -0.0961(4)
O4 O 0.6173(4) 0.28182(14) -0.1288(4)
O5 O 0.6466(4) 0.29673(14) 0.1476(4)
O6 O 0.6462(4) 0.22235(14) 0.1126(4)
O7 O 1.2882(4) 0.27296(14) -0.1422(3)
O8 O 1.3575(4) 0.25534(14) 0.0492(4)
O9 O 1.3155(4) 0.49100(15) 0.2750(4)
O10 O 1.3221(4) 0.45016(14) 0.1016(4)
O11 O 1.3400(4) 0.54627(14) 0.0152(4)
O12 O 1.3950(4) 0.49090(14) -0.1161(4)
O13 O 1.5215(4) 0.42877(15) -0.2520(4)
H7 H 1.576(5) 0.4092(14) -0.280(6)
H8 H 1.549(6) 0.4559(9) -0.267(6)
O14 O 1.5485(5) 0.38937(15) 0.1453(4)
H9 H 1.579(7) 0.3627(11) 0.144(5)
H10 H 1.563(7) 0.4029(18) 0.213(3)
O15 O 0.3191(5) 0.31734(15) 0.2382(4)
H11 H 0.309(7) 0.3297(19) 0.168(3)
H12 H 0.323(7) 0.3366(17) 0.296(4)
O16 O 0.5427(5) 0.30532(16) 0.3859(4)
H13 H 0.467(4) 0.317(2) 0.397(5)
H14 H 0.582(6) 0.296(2) 0.452(4)
O17 O 0.4058(4) 0.17535(15) 0.1797(4)
H15 H 0.384(6) 0.1567(17) 0.233(4)
H16 H 0.384(6) 0.168(2) 0.108(2)
Er1 Er 1.45512(2) 0.418772(9) -0.04236(2)
Er2 Er 0.46109(3) 0.251700(9) 0.23726(2)
C15B C 0.9738(6) 0.5134(2) -0.2304(6)
H5B H 0.9424 0.5167 -0.3141
C16B C 0.8818(6) 0.51060(19) -0.1402(5)
C17B C 0.7365(6) 0.5230(2) -0.1731(5)
C18B C 0.9286(5) 0.50122(19) -0.0140(5)
C19B C 0.8385(6) 0.4936(2) 0.0830(5)
C20B C 0.6888(6) 0.4854(2) 0.0590(5)
C21B C 0.8864(6) 0.4884(2) 0.2024(6)
H6B H 0.8242 0.4859 0.2670
O9B O 0.6845(4) 0.50900(15) -0.2750(4)
O10B O 0.6779(4) 0.54984(14) -0.1016(4)
O11B O 0.6600(4) 0.45373(14) -0.0152(4)
O12B O 0.6050(4) 0.50910(14) 0.1161(4)
C1B C 0.9236(6) 0.6509(2) 0.0877(5)
C2B C 1.0165(6) 0.6196(2) 0.1338(5)
H1B H 0.9856 0.5918 0.1696
C3B C 1.1568(6) 0.6279(2) 0.1290(5)
H2B H 1.2192 0.6061 0.1640
C4B C 1.2050(6) 0.6666(2) 0.0752(5)
C5B C 1.1116(6) 0.69844(18) 0.0158(5)
C6B C 1.1550(6) 0.7362(2) -0.0600(5)
C7B C 1.0630(6) 0.7669(2) -0.1074(6)
H3B H 1.0923 0.7907 -0.1603
C8B C 0.9249(6) 0.7639(2) -0.0794(6)
H4B H 0.8635 0.7870 -0.1089
C9B C 0.8777(6) 0.72832(19) -0.0104(5)
C10B C 0.9681(5) 0.69284(19) 0.0326(5)
C11B C 0.7807(6) 0.63416(19) 0.0800(5)
C12B C 1.3521(6) 0.6775(2) 0.0983(5)
C13B C 1.2958(6) 0.7385(2) -0.1060(5)
C14B C 0.7318(6) 0.73257(19) 0.0303(6)
O1B O 0.7356(4) 0.60936(14) 0.1665(4)
O2B O 0.7070(4) 0.64149(14) -0.0152(3)
O3B O 1.4366(4) 0.64587(15) 0.0961(4)
O4B O 1.3827(4) 0.71818(14) 0.1288(4)
O5B O 1.3534(4) 0.70327(14) -0.1476(4)
O6B O 1.3538(4) 0.77765(14) -0.1126(4)
O7B O 0.7118(4) 0.72704(14) 0.1422(3)
O8B O 0.6425(4) 0.74466(14) -0.0492(4)
O13B O 0.4785(4) 0.57123(15) 0.2520(4)
H7B H 0.424(5) 0.5908(14) 0.280(6)
H8B H 0.451(6) 0.5441(9) 0.267(6)
O14B O 0.4515(5) 0.61063(15) -0.1453(4)
H9B H 0.421(7) 0.6373(11) -0.144(5)
H10B H 0.437(7) 0.5971(18) -0.213(3)
O15B O 1.6809(5) 0.68266(15) -0.2382(4)
H11B H 1.691(7) 0.6703(19) -0.168(3)
H12B H 1.677(7) 0.6634(17) -0.296(4)
O16B O 1.4573(5) 0.69468(16) -0.3859(4)
H13B H 1.533(4) 0.683(2) -0.397(5)
H14B H 1.418(6) 0.704(2) -0.452(4)
O17B O 1.5942(4) 0.82465(15) -0.1797(4)
H15B H 1.616(6) 0.8433(17) -0.233(4)
H16B H 1.616(6) 0.832(2) -0.108(2)
Er1B Er 0.54488(2) 0.581228(9) 0.04236(2)
Er2B Er 1.53891(3) 0.748300(9) -0.23726(2)
O3_2 O 1.5634(4) 0.35413(15) -0.0961(4)
O3B_2 O 0.4366(4) 0.64587(15) 0.0961(4)
O4A O 1.3827(4) 0.78182(14) -0.3712(4)
O4C O 0.6173(4) 0.21818(14) 0.3712(4)
O7A O 1.7118(4) 0.77296(14) -0.3578(3)
O7C O 0.2882(4) 0.22704(14) 0.3578(3)
O8_2 O 0.3575(4) 0.25534(14) 0.0492(4)
O8B_2 O 1.6425(4) 0.74466(14) -0.0492(4)
O11_2 O 0.3400(4) 0.54627(14) 0.0152(4)
O11B_2 O 1.6600(4) 0.45373(14) -0.0152(4)
Er1_2 Er 0.45512(2) 0.418772(9) -0.04236(2)
Er1B_2 Er 1.54488(2) 0.581228(9) 0.04236(2)
Er2_2 Er 1.46109(3) 0.251700(9) 0.23726(2)
Er2A Er 0.53891(3) 0.751700(9) 0.26274(2)
Er2A_2 Er 1.53891(3) 0.751700(9) 0.26274(2)
Er2B_2 Er 0.53891(3) 0.748300(9) -0.23726(2)
Er2C Er 0.46109(3) 0.248300(9) -0.26274(2)
Er2C_2 Er 1.46109(3) 0.248300(9) -0.26274(2)
O18 O 0.1773(5) 0.42197(17) 0.5919(4)
H17 H 0.201(7) 0.414(2) 0.663(3)
H18 H 0.199(8) 0.4496(11) 0.578(6)
O19 O 0.5325(5) 0.43930(17) 0.3596(5)
H19 H 0.474(5) 0.4584(18) 0.330(6)
H20 H 0.595(5) 0.455(2) 0.398(6)
O20 O 0.2493(5) 0.51200(17) 0.5123(4)
H21 H 0.266(7) 0.508(2) 0.437(3)
H22 H 0.189(6) 0.532(2) 0.517(5)
O21 O 0.6727(5) 0.37399(18) 0.5996(5)
H23 H 0.747(4) 0.385(2) 0.580(7)
H24 H 0.678(6) 0.3507(18) 0.644(6)
O22 O 0.3609(5) 0.37512(16) 0.4504(5)
H25 H 0.413(5) 0.3983(16) 0.446(7)
H26 H 0.282(3) 0.383(2) 0.471(7)
O23 O 0.9130(5) 0.40857(19) 0.4942(5)
H27 H 0.9926 0.4130 0.5247
H28 H 0.8955 0.3965 0.4241
O24 O 0.858(2) 0.3455(9) 0.318(2)
loop_
_geom_bond_atom_site_label_1
_geom_bond_atom_site_label_2
_geom_bond_site_symmetry_1
_geom_bond_site_symmetry_2
C1 C2 1_555 1_555
C2 H1 1_555 1_555
C3 C2 1_555 1_555
H2 C3 1_555 1_555
C4 C3 1_555 1_555
C5 C4 1_555 1_555
C6 C5 1_555 1_555
C7 C6 1_555 1_555
H3 C7 1_555 1_555
C8 C7 1_555 1_555
H4 C8 1_555 1_555
C9 C8 1_555 1_555
C10 C1 1_555 1_555
C11 C1 1_555 1_555
C12 C4 1_555 1_555
C13 C6 1_555 1_555
C14 C9 1_555 1_555
C15 H5 1_555 1_555
C16 C15 1_555 1_555
C17 C16 1_555 1_555
C18 C16 1_555 1_555
C19 C18 1_555 1_555
C20 C19 1_555 1_555
C21 C19 1_555 1_555
H6 C21 1_555 1_555
O1 C11 1_555 1_555
O2 C11 1_555 1_555
O3 C12 1_555 1_555
O4 C12 1_555 1_555
O5 C13 1_555 1_555
O6 C13 1_555 1_555
O7 C14 1_555 1_555
O8 C14 1_555 1_555
O9 C17 1_555 1_555
O10 C17 1_555 1_555
O11 C20 1_555 1_555
O12 C20 1_555 1_555
O13 H7 1_555 1_555
H8 O13 1_555 1_555
O14 H9 1_555 1_555
H10 O14 1_555 1_555
O15 H11 1_555 1_555
H12 O15 1_555 1_555
O16 H13 1_555 1_555
H14 O16 1_555 1_555
O17 H15 1_555 1_555
H16 O17 1_555 1_555
Er1 O1 1_555 1_555
Er2 O5 1_555 1_555
O18 H17 1_555 1_555
H18 O18 1_555 1_555
O19 H19 1_555 1_555
H20 O19 1_555 1_555
O20 H21 1_555 1_555
H22 O20 1_555 1_555
O21 H23 1_555 1_555
H24 O21 1_555 1_555
O22 H25 1_555 1_555
H26 O22 1_555 1_555
O23 H27 1_555 1_555
H28 O23 1_555 1_555
C15B C21 1_555 1_555
H5B C15B 1_555 1_555
C16B C15B 1_555 1_555
C17B C16B 1_555 1_555
C18B C18 1_555 1_555
C19B C18B 1_555 1_555
C20B C19B 1_555 1_555
C21B C15 1_555 1_555
H6B C21B 1_555 1_555
O9B C17B 1_555 1_555
O10B C17B 1_555 1_555
O11B C20B 1_555 1_555
O12B C20B 1_555 1_555
C1B C2B 1_555 1_555
C2B H1B 1_555 1_555
C3B C2B 1_555 1_555
H2B C3B 1_555 1_555
C4B C3B 1_555 1_555
C5B C4B 1_555 1_555
C6B C5B 1_555 1_555
C7B C6B 1_555 1_555
H3B C7B 1_555 1_555
C8B C7B 1_555 1_555
H4B C8B 1_555 1_555
C9B C8B 1_555 1_555
C10B C1B 1_555 1_555
C11B C1B 1_555 1_555
C12B C4B 1_555 1_555
C13B C6B 1_555 1_555
C14B C9B 1_555 1_555
O1B C11B 1_555 1_555
O2B C11B 1_555 1_555
O3B C12B 1_555 1_555
O4B C12B 1_555 1_555
O5B C13B 1_555 1_555
O6B C13B 1_555 1_555
O7B C14B 1_555 1_555
O8B C14B 1_555 1_555
O13B H7B 1_555 1_555
H8B O13B 1_555 1_555
O14B H9B 1_555 1_555
H10B O14B 1_555 1_555
O15B H11B 1_555 1_555
H12B O15B 1_555 1_555
O16B H13B 1_555 1_555
H14B O16B 1_555 1_555
O17B H15B 1_555 1_555
H16B O17B 1_555 1_555
Er1B O10B 1_555 1_555
Er2B O5B 1_555 1_555
O3_2 Er1 1_555 1_555
O3B_2 Er1B 1_555 1_555
O4A Er2B 1_555 1_555
O4C Er2 1_555 1_555
O7A Er2B 1_555 1_555
O7C Er2 1_555 1_555
O8_2 Er2 1_555 1_555
O8B_2 Er2B 1_555 1_555
O11_2 Er1B 1_555 1_555
O11B_2 Er1 1_555 1_555
Er1_2 O3 1_555 1_555
Er1B_2 O11 1_555 1_555
Er2_2 O8 1_555 1_555
Er2A O7B 1_555 1_555
Er2A_2 O4B 1_555 1_555
Er2B_2 O8B 1_555 1_555
Er2C O4 1_555 1_555
Er2C_2 O7 1_555 1_555
C5 C10 1_555 1_555
C9 C10 1_555 1_555
O2 Er1 1_555 1_555
O6 Er2 1_555 1_555
O10 Er1 1_555 1_555
O12 Er1 1_555 1_555
O13 Er1 1_555 1_555
O14 Er1 1_555 1_555
O15 Er2 1_555 1_555
O16 Er2 1_555 1_555
O17 Er2 1_555 1_555
C16B C18B 1_555 1_555
C19B C21B 1_555 1_555
O11B Er1_2 1_555 1_555
O12B Er1B 1_555 1_555
C5B C10B 1_555 1_555
C9B C10B 1_555 1_555
O1B Er1B 1_555 1_555
O2B Er1B 1_555 1_555
O3B Er1B_2 1_555 1_555
O6B Er2B 1_555 1_555
O13B Er1B 1_555 1_555
O14B Er1B 1_555 1_555
O15B Er2B 1_555 1_555
O16B Er2B 1_555 1_555
O17B Er2B 1_555 1_555

#END
