
#######################################################################
#
#                 Cambridge Crystallographic Data Centre
#                                CCDC 
#
#######################################################################
#
# If this CIF has been generated from an entry in the Cambridge 
# Structural Database, then it will include bibliographic, chemical, 
# crystal, experimental, refinement or atomic coordinate data resulting 
# from the CCDC's data processing and validation procedures.
#
#######################################################################

data_RUVRUX
_chemical_formula_moiety         'C17 H42 Cu39 O86 S1'
_symmetry_cell_setting           monoclinic
_symmetry_space_group_name_H-M   'C 2/c'
_symmetry_Int_Tables_number      15
_space_group_name_Hall           '-C 2yc'
loop_
_symmetry_equiv_pos_site_id
_symmetry_equiv_pos_as_xyz
1 x,y,z
2 -x,y,1/2-z
3 1/2+x,1/2+y,z
4 1/2-x,1/2+y,1/2-z
5 -x,-y,-z
6 x,-y,1/2+z
7 1/2-x,1/2-y,-z
8 1/2+x,1/2-y,1/2+z
_cell_length_a                   28.124(5)
_cell_length_b                   20.007(3)
_cell_length_c                   16.214(2)
_cell_angle_alpha                90
_cell_angle_beta                 114.096(2)
_cell_angle_gamma                90
_cell_volume                     8328.27
loop_
_atom_site_label
_atom_site_type_symbol
_atom_site_fract_x
_atom_site_fract_y
_atom_site_fract_z
S1 S 0.3188(5) 0.5611(7) 0.3707(9)
O30 O 0.2750(9) 0.6056(13) 0.3294(18)
O31 O 0.3616(10) 0.5694(18) 0.343(2)
O32 O 0.3033(15) 0.4919(10) 0.369(3)
O33 O 0.3381(15) 0.578(3) 0.4660(14)
O34 O 0.6069(6) 0.8401(8) -0.0953(10)
O35 O 0.4992(9) 0.8060(13) 0.6688(18)
Cu1 Cu 0.65362(7) 0.79801(9) 0.17837(11)
O1 O 0.6032(4) 0.8669(5) 0.1151(6)
O2 O 0.6351(4) 0.9420(5) 0.2258(7)
O3 O 0.6152(4) 1.0669(5) 0.0869(7)
O4 O 0.5827(5) 1.1419(5) 0.1510(8)
C1 C 0.6004(6) 0.9213(7) 0.1523(10)
C2 C 0.5525(7) 0.9629(7) 0.1030(11)
H1 H 0.5480 0.9673 0.0406
H2 H 0.5226 0.9388 0.1029
C3 C 0.5852(6) 1.0825(8) 0.1216(9)
C4 C 0.5524(6) 1.0316(7) 0.1399(10)
H3 H 0.5637 1.0280 0.2048
H4 H 0.5167 1.0477 0.1153
Cu2 Cu 0.62407(8) 1.21808(9) 0.14752(12)
Cu3 Cu 0.63713(8) 0.70164(9) 0.50471(11)
Cu4 Cu 0.64652(7) 0.70584(8) 0.31356(11)
O5 O 0.6343(4) 0.7991(5) 0.2831(6)
H5 H 0.5979 0.8120 0.2663
O6 O 0.6004(4) 0.6966(5) 0.3748(6)
H6 H 0.5664 0.7188 0.3474
Cu5 Cu 0.68416(7) 0.86997(8) 0.35288(11)
Cu6 Cu 0.76186(7) 0.75585(9) 0.30317(11)
O7 O 0.7261(4) 0.8401(5) 0.2901(6)
H7 H 0.7421 0.8767 0.2703
O8 O 0.7976(4) 0.6714(5) 0.3313(6)
H8 H 0.7846 0.6376 0.2836
Cu7 Cu 0.71588(7) 0.59659(9) 0.46100(11)
Cu8 Cu 0.67206(8) 0.86345(9) 0.54477(11)
O9 O 0.6453(4) 0.8972(5) 0.4237(6)
H9 H 0.6125 0.9014 0.3960
Cu9 Cu 0.69746(9) 0.99899(10) 0.46872(14)
O10 O 0.7585(4) 0.7648(6) 0.1567(6)
O11 O 0.6738(4) 0.7876(6) 0.0765(6)
C5 C 0.7181(6) 0.7702(7) 0.0835(9)
C6 C 0.7245(6) 0.7602(8) -0.0022(9)
H10 H 0.6994 0.7268 -0.0372
H11 H 0.7151 0.8017 -0.0360
O12 O 0.6903(4) 0.7166(5) 0.2465(6)
H12 H 0.6881 0.6785 0.2070
O13 O 0.6609(4) 0.6111(5) 0.3407(6)
H13 H 0.6642 0.5846 0.2924
O14 O 0.7724(4) 0.5668(6) 0.4286(7)
O15 O 0.6571(4) 0.6074(5) 0.4959(6)
H14 H 0.6581 0.5783 0.5452
O16 O 0.6170(5) 0.7927(5) 0.5203(6)
H15 H 0.5822 0.8059 0.4771
O17 O 0.6673(4) 0.7050(5) 0.6382(6)
H16 H 0.6626 0.6639 0.6668
O18 O 0.7354(4) 0.9379(5) 0.4217(6)
H17 H 0.7524 0.9603 0.3871
O19 O 0.6721(6) 1.0551(7) 0.3576(10)
O20 O 0.6620(9) 1.0515(9) 0.5316(13)
O21 O 0.6288(6) 1.2497(8) 0.2669(8)
Cu10 Cu 0.60104(9) 0.58484(11) 0.37303(13)
O22 O 0.5523(9) 0.5501(11) 0.4212(15)
C7 C 0.5024(13) 0.5417(14) 0.505(2)
H18 H 0.4677 0.5595 0.4721
H19 H 0.5118 0.5518 0.5684
C8 C 0.5400(13) 0.5830(13) 0.475(2)
O23 O 0.5515(14) 0.6398(13) 0.514(2)
O24 O 0.5582(7) 0.5606(14) 0.2469(13)
O25 O 0.7387(9) 0.8136(10) 0.5038(16)
O26 O 0.7030(9) 0.7599(10) 0.4865(16)
O27 O 0.7129(9) 0.7100(10) 0.4693(16)
C9 C 0.7500 0.7500 0.5000
O28 O 0.5679(8) 0.6843(13) 0.1599(14)
O29 O 0.7796(12) 1.0699(14) 0.5499(16)
O10F O 0.7415(4) 0.7352(6) -0.1567(6)
O11F O 0.8262(4) 0.7124(6) -0.0765(6)
C5F C 0.7819(6) 0.7298(7) -0.0835(9)
C6F C 0.7755(6) 0.7398(8) 0.0022(9)
H10F H 0.8006 0.7732 0.0372
H11F H 0.7849 0.6983 0.0360
O22D O 0.4477(9) 0.4499(11) 0.5788(15)
C7D C 0.4976(13) 0.4583(14) 0.495(2)
H18D H 0.5323 0.4405 0.5279
H19D H 0.4882 0.4482 0.4316
C8D C 0.4600(13) 0.4170(13) 0.525(2)
O23D O 0.4485(14) 0.3602(13) 0.486(2)
O25F O 0.7613(9) 0.6864(10) 0.4962(16)
O26F O 0.7970(9) 0.7401(10) 0.5135(16)
O27F O 0.7871(9) 0.7900(10) 0.5307(16)
Cu1D Cu 0.34638(7) 0.20199(9) 0.82163(11)
O1D O 0.3968(4) 0.1331(5) 0.8849(6)
O2D O 0.3649(4) 0.0580(5) 0.7742(7)
O3D O 0.3848(4) -0.0669(5) 0.9131(7)
O4D O 0.4173(5) -0.1419(5) 0.8490(8)
C1D C 0.3996(6) 0.0787(7) 0.8477(10)
C2D C 0.4475(7) 0.0371(7) 0.8970(11)
H1D H 0.4520 0.0327 0.9594
H2D H 0.4774 0.0612 0.8971
C3D C 0.4148(6) -0.0825(8) 0.8784(9)
C4D C 0.4476(6) -0.0316(7) 0.8601(10)
H3D H 0.4363 -0.0280 0.7952
H4D H 0.4833 -0.0477 0.8847
Cu2D Cu 0.37593(8) -0.21808(9) 0.85248(12)
Cu3D Cu 0.36287(8) 0.29836(9) 0.49529(11)
Cu4D Cu 0.35348(7) 0.29416(8) 0.68644(11)
O5D O 0.3657(4) 0.2009(5) 0.7169(6)
H5D H 0.4021 0.1880 0.7337
O6D O 0.3996(4) 0.3034(5) 0.6252(6)
H6D H 0.4336 0.2812 0.6526
Cu5D Cu 0.31584(7) 0.13003(8) 0.64712(11)
Cu6D Cu 0.23814(7) 0.24415(9) 0.69683(11)
O7D O 0.2739(4) 0.1599(5) 0.7099(6)
H7D H 0.2579 0.1233 0.7297
O8D O 0.2024(4) 0.3286(5) 0.6687(6)
H8D H 0.2154 0.3624 0.7164
Cu7D Cu 0.28412(7) 0.40341(9) 0.53900(11)
Cu8D Cu 0.32794(8) 0.13655(9) 0.45523(11)
O9D O 0.3547(4) 0.1028(5) 0.5763(6)
H9D H 0.3875 0.0986 0.6040
Cu9D Cu 0.30254(9) 0.00101(10) 0.53128(14)
O12D O 0.3097(4) 0.2834(5) 0.7535(6)
H12D H 0.3119 0.3215 0.7930
O13D O 0.3391(4) 0.3889(5) 0.6593(6)
H13D H 0.3358 0.4154 0.7076
O14D O 0.2276(4) 0.4332(6) 0.5714(7)
O15D O 0.3429(4) 0.3926(5) 0.5041(6)
H14D H 0.3419 0.4217 0.4548
O16D O 0.3830(5) 0.2073(5) 0.4797(6)
H15D H 0.4178 0.1941 0.5229
O17D O 0.3327(4) 0.2950(5) 0.3618(6)
H16D H 0.3374 0.3361 0.3332
O18D O 0.2646(4) 0.0621(5) 0.5783(6)
H17D H 0.2476 0.0397 0.6129
O19D O 0.3279(6) -0.0551(7) 0.6424(10)
O20D O 0.3380(9) -0.0515(9) 0.4684(13)
O21D O 0.3712(6) -0.2497(8) 0.7331(8)
Cu10D Cu 0.39896(9) 0.41516(11) 0.62697(13)
O24D O 0.4418(7) 0.4394(14) 0.7531(13)
O28D O 0.4321(8) 0.3157(13) 0.8401(14)
O29D O 0.2204(12) -0.0699(14) 0.4501(16)
Cu1F Cu 0.84638(7) 0.70199(9) -0.17837(11)
O3A O 0.3848(4) 0.0669(5) 0.4131(7)
O3E O 0.6152(4) 0.9331(5) 0.5869(7)
Cu2A Cu 0.37593(8) 0.21808(9) 0.35248(12)
Cu2C Cu 0.87593(8) 0.71808(9) 0.35248(12)
Cu2E Cu 0.62407(8) 0.78192(9) 0.64752(12)
Cu2G Cu 0.12407(8) 0.28192(9) 0.64752(12)
Cu3F Cu 0.86287(8) 0.79836(9) 0.49529(11)
Cu4F Cu 0.85348(7) 0.79416(8) 0.68644(11)
Cu5F Cu 0.81584(7) 0.63003(8) 0.64712(11)
Cu6B Cu 0.26186(7) 0.25585(9) 0.30317(11)
Cu6F Cu 0.73814(7) 0.74415(9) -0.30317(11)
Cu6F_2 Cu 0.73814(7) 0.74415(9) 0.69683(11)
O8B O 0.2976(4) 0.1714(5) 0.3313(6)
O8C O 0.7024(4) 1.1714(5) 0.1687(6)
O8F O 0.7024(4) 0.8286(5) 0.6687(6)
O8G O 0.2976(4) -0.1714(5) 0.8313(6)
Cu7B Cu 0.21588(7) 0.09659(9) 0.46100(11)
Cu7F Cu 0.78412(7) 0.90341(9) 0.53900(11)
Cu8A Cu 0.32794(8) -0.13655(9) 0.95523(11)
Cu8B Cu 0.17206(8) 0.36345(9) 0.54477(11)
Cu8E Cu 0.67206(8) 1.13655(9) 0.04477(11)
Cu8F Cu 0.82794(8) 0.63655(9) 0.45523(11)
Cu9B Cu 0.19746(9) 0.49899(10) 0.46872(14)
Cu9F Cu 0.80254(9) 0.50101(10) 0.53128(14)
O10D O 0.2415(4) 0.2352(6) 0.8433(6)
O11D O 0.3262(4) 0.2124(6) 0.9235(6)
O14B O 0.2724(4) 0.0668(6) 0.4286(7)
O14F O 0.7276(4) 0.9332(6) 0.5714(7)
O16A O 0.3830(5) -0.2073(5) 0.9797(6)
O16E O 0.6170(5) 1.2073(5) 0.0203(6)
O17A O 0.3327(4) -0.2950(5) 0.8618(6)
O17B O 0.1673(4) 0.2050(5) 0.6382(6)
O17E O 0.6673(4) 1.2950(5) 0.1382(6)
O17F O 0.8327(4) 0.7950(5) 0.3618(6)
O18B O 0.2354(4) 0.4379(5) 0.4217(6)
O18F O 0.7646(4) 0.5621(5) 0.5783(6)
O25B O 0.2387(9) 0.3136(10) 0.5038(16)
O25D O 0.2613(9) 0.1864(10) 0.4962(16)
O26D O 0.2970(9) 0.2401(10) 0.5135(16)
O27D O 0.2871(9) 0.2900(10) 0.5307(16)
loop_
_geom_bond_atom_site_label_1
_geom_bond_atom_site_label_2
_geom_bond_site_symmetry_1
_geom_bond_site_symmetry_2
Cu1 O1 1_555 1_555
O1 C1 1_555 1_555
O2 C1 1_555 1_555
O3 C3 1_555 1_555
O4 C3 1_555 1_555
C1 C2 1_555 1_555
C2 H1 1_555 1_555
H2 C2 1_555 1_555
C3 C4 1_555 1_555
C4 C2 1_555 1_555
H3 C4 1_555 1_555
H4 C4 1_555 1_555
Cu2 O4 1_555 1_555
Cu3 O6 1_555 1_555
Cu4 O5 1_555 1_555
O5 Cu1 1_555 1_555
H5 O5 1_555 1_555
O6 Cu4 1_555 1_555
H6 O6 1_555 1_555
Cu5 O2 1_555 1_555
Cu6 O7 1_555 1_555
O7 Cu1 1_555 1_555
H7 O7 1_555 1_555
O8 Cu6 1_555 1_555
H8 O8 1_555 1_555
Cu7 O13 1_555 1_555
Cu8 O9 1_555 1_555
O9 Cu5 1_555 1_555
H9 O9 1_555 1_555
Cu9 O9 1_555 1_555
O10 Cu6 1_555 1_555
O11 Cu1 1_555 1_555
C5 O10 1_555 1_555
C6 C5 1_555 1_555
H10 C6 1_555 1_555
H11 C6 1_555 1_555
O12 Cu1 1_555 1_555
H12 O12 1_555 1_555
O13 Cu4 1_555 1_555
H13 O13 1_555 1_555
O14 Cu7 1_555 1_555
O15 Cu3 1_555 1_555
H14 O15 1_555 1_555
O16 Cu3 1_555 1_555
H15 O16 1_555 1_555
O17 Cu3 1_555 1_555
H16 O17 1_555 1_555
O18 Cu5 1_555 1_555
H17 O18 1_555 1_555
O19 Cu9 1_555 1_555
O20 Cu9 1_555 1_555
O21 Cu2 1_555 1_555
Cu10 O6 1_555 1_555
O22 Cu10 1_555 1_555
C7 H18 1_555 1_555
H19 C7 1_555 1_555
C8 O22 1_555 1_555
O23 Cu3 1_555 1_555
O24 Cu10 1_555 1_555
O25 Cu5 1_555 1_555
O26 Cu3 1_555 1_555
O27 Cu3 1_555 1_555
C9 O25 1_555 1_555
O28 Cu4 1_555 1_555
O29 Cu9 1_555 1_555
S1 O30 1_555 1_555
O31 S1 1_555 1_555
O32 S1 1_555 1_555
O33 S1 1_555 1_555
O10F C5F 1_555 1_555
O11F C5F 1_555 1_555
C5F C6F 1_555 1_555
C6F C6 1_555 1_555
H10F C6F 1_555 1_555
H11F C6F 1_555 1_555
O22D C8D 1_555 1_555
C7D C7 1_555 1_555
H18D C7D 1_555 1_555
H19D C7D 1_555 1_555
C8D C7D 1_555 1_555
O23D C8D 1_555 1_555
O25F Cu7 1_555 1_555
O26F C9 1_555 1_555
O27F O25 1_555 1_555
Cu1D O1D 1_555 1_555
O1D C1D 1_555 1_555
O2D C1D 1_555 1_555
O3D C3D 1_555 1_555
O4D C3D 1_555 1_555
C1D C2D 1_555 1_555
C2D H1D 1_555 1_555
H2D C2D 1_555 1_555
C3D C4D 1_555 1_555
C4D C2D 1_555 1_555
H3D C4D 1_555 1_555
H4D C4D 1_555 1_555
Cu2D O4D 1_555 1_555
Cu3D O23D 1_555 1_555
Cu4D O5D 1_555 1_555
O5D Cu1D 1_555 1_555
H5D O5D 1_555 1_555
O6D Cu3D 1_555 1_555
H6D O6D 1_555 1_555
Cu5D O2D 1_555 1_555
Cu6D O7D 1_555 1_555
O7D Cu1D 1_555 1_555
H7D O7D 1_555 1_555
O8D Cu6D 1_555 1_555
H8D O8D 1_555 1_555
Cu7D O13D 1_555 1_555
Cu8D O9D 1_555 1_555
O9D Cu5D 1_555 1_555
H9D O9D 1_555 1_555
Cu9D O9D 1_555 1_555
O12D Cu1D 1_555 1_555
H12D O12D 1_555 1_555
O13D Cu4D 1_555 1_555
H13D O13D 1_555 1_555
O14D Cu7D 1_555 1_555
O15D Cu3D 1_555 1_555
H14D O15D 1_555 1_555
O16D Cu3D 1_555 1_555
H15D O16D 1_555 1_555
O17D Cu3D 1_555 1_555
H16D O17D 1_555 1_555
O18D Cu5D 1_555 1_555
H17D O18D 1_555 1_555
O19D Cu9D 1_555 1_555
O20D Cu9D 1_555 1_555
O21D Cu2D 1_555 1_555
Cu10D O22D 1_555 1_555
O24D Cu10D 1_555 1_555
O28D Cu4D 1_555 1_555
O29D Cu9D 1_555 1_555
Cu1F O11F 1_555 1_555
O3A Cu8D 1_555 1_555
O3E Cu8 1_555 1_555
Cu2A O16D 1_555 1_555
Cu2C O8 1_555 1_555
Cu2E O16 1_555 1_555
Cu2G O8D 1_555 1_555
Cu3F O26F 1_555 1_555
Cu4F O27F 1_555 1_555
Cu5F O25F 1_555 1_555
Cu6B O17D 1_555 1_555
Cu6F O10F 1_555 1_555
Cu6F_2 O17 1_555 1_555
O8B Cu8D 1_555 1_555
O8C Cu2 1_555 1_555
O8F Cu8 1_555 1_555
O8G Cu2D 1_555 1_555
Cu7B O18D 1_555 1_555
Cu7F O18 1_555 1_555
Cu8A O3D 1_555 1_555
Cu8B O8D 1_555 1_555
Cu8E O3 1_555 1_555
Cu8F O8 1_555 1_555
Cu9B O14D 1_555 1_555
Cu9F O14 1_555 1_555
O10D Cu6D 1_555 1_555
O11D Cu1D 1_555 1_555
O14B Cu8D 1_555 1_555
O14F Cu8 1_555 1_555
O16A Cu2D 1_555 1_555
O16E Cu2 1_555 1_555
O17A Cu2D 1_555 1_555
O17B Cu6D 1_555 1_555
O17E Cu2 1_555 1_555
O17F Cu6 1_555 1_555
O18B Cu7D 1_555 1_555
O18F Cu7 1_555 1_555
O25B Cu7D 1_555 1_555
O25D Cu5D 1_555 1_555
O26D Cu3D 1_555 1_555
O27D Cu3D 1_555 1_555
Cu4 O12 1_555 1_555
Cu4 O27 1_555 1_555
O5 Cu5 1_555 1_555
Cu5 O7 1_555 1_555
Cu6 O12 1_555 1_555
Cu7 O15 1_555 1_555
Cu7 O27 1_555 1_555
Cu8 O16 1_555 1_555
Cu8 O25 1_555 1_555
Cu8 O26 1_555 1_555
Cu9 O18 1_555 1_555
Cu9 O14F 1_555 1_555
O11 C5 1_555 1_555
O13 Cu10 1_555 1_555
O14 Cu8F 1_555 1_555
O15 Cu10 1_555 1_555
O17 Cu2E 1_555 1_555
C7 C8 1_555 1_555
C8 O23 1_555 1_555
O25 O26 1_555 1_555
O25 Cu7F 1_555 1_555
O26 O27 1_555 1_555
O26 C9 1_555 1_555
O27 C9 1_555 1_555
O27 O25F 1_555 1_555
C9 O25F 1_555 1_555
C9 O27F 1_555 1_555
O25F O26F 1_555 1_555
O25F Cu8F 1_555 1_555
O26F O27F 1_555 1_555
O26F Cu8F 1_555 1_555
O27F Cu3F 1_555 1_555
O27F Cu7F 1_555 1_555
Cu4D O6D 1_555 1_555
Cu4D O12D 1_555 1_555
Cu4D O27D 1_555 1_555
O5D Cu5D 1_555 1_555
O6D Cu10D 1_555 1_555
Cu5D O7D 1_555 1_555
Cu6D O12D 1_555 1_555
Cu7D O15D 1_555 1_555
Cu7D O27D 1_555 1_555
Cu8D O16D 1_555 1_555
Cu8D O25D 1_555 1_555
Cu8D O26D 1_555 1_555
Cu9D O18D 1_555 1_555
Cu9D O14B 1_555 1_555
O13D Cu10D 1_555 1_555
O14D Cu8B 1_555 1_555
O15D Cu10D 1_555 1_555
O17D Cu2A 1_555 1_555
Cu2A O8B 1_555 1_555
Cu2C O17F 1_555 1_555
Cu2E O8F 1_555 1_555
Cu2G O17B 1_555 1_555
Cu3F O17F 1_555 1_555
Cu5F O18F 1_555 1_555
Cu6B O8B 1_555 1_555
Cu6F_2 O8F 1_555 1_555
O8C Cu8E 1_555 1_555
O8G Cu8A 1_555 1_555
Cu7B O14B 1_555 1_555
Cu7B O25D 1_555 1_555
Cu7F O14F 1_555 1_555
Cu8A O16A 1_555 1_555
Cu8B O25B 1_555 1_555
Cu8E O16E 1_555 1_555
Cu9B O18B 1_555 1_555
Cu9F O18F 1_555 1_555
O25B O27D 1_555 1_555
O25D O26D 1_555 1_555
O26D O27D 1_555 1_555

#END
