
#######################################################################
#
#                 Cambridge Crystallographic Data Centre
#                                CCDC 
#
#######################################################################
#
# If this CIF has been generated from an entry in the Cambridge 
# Structural Database, then it will include bibliographic, chemical, 
# crystal, experimental, refinement or atomic coordinate data resulting 
# from the CCDC's data processing and validation procedures.
#
#######################################################################

data_IPIMEA
_chemical_formula_moiety         '(C6 H20 La3 N2 Na1 O27 S6)n'
_symmetry_cell_setting           orthorhombic
_symmetry_space_group_name_H-M   'C m c a'
_symmetry_Int_Tables_number      64
_space_group_name_Hall           '-C 2ac 2'
loop_
_symmetry_equiv_pos_site_id
_symmetry_equiv_pos_as_xyz
1 x,y,z
2 -x,1/2-y,1/2+z
3 -x,1/2+y,1/2-z
4 x,-y,-z
5 1/2+x,1/2+y,z
6 1/2-x,-y,1/2+z
7 1/2-x,y,1/2-z
8 1/2+x,1/2-y,-z
9 -x,-y,-z
10 x,1/2+y,1/2-z
11 x,1/2-y,1/2+z
12 -x,y,z
13 1/2-x,1/2-y,-z
14 1/2+x,y,1/2-z
15 1/2+x,-y,1/2+z
16 1/2-x,1/2+y,z
_cell_length_a                   27.657(20)
_cell_length_b                   19.775(14)
_cell_length_c                   9.508(7)
_cell_angle_alpha                90
_cell_angle_beta                 90
_cell_angle_gamma                90
_cell_volume                     5200.09
loop_
_atom_site_label
_atom_site_type_symbol
_atom_site_fract_x
_atom_site_fract_y
_atom_site_fract_z
Na1 Na -0.0000 0.24225(16) 0.1185(4)
La1 La 0.0000 0.43257(2) 0.21345(5)
La2 La 0.132605(13) 0.362039(17) -0.25183(3)
S1 S 0.10522(7) 0.5000 0.0000
S2 S 0.0000 0.37545(10) -0.1512(2)
S3 S 0.12997(5) 0.25521(7) -0.51078(14)
S4 S 0.2500 0.37681(10) -0.2500
S5 S -0.08727(7) 0.5000 0.5000
O1 O 0.21722(14) 0.41869(19) -0.3384(4)
O2 O 0.21821(14) 0.33567(19) -0.1600(4)
O3 O 0.17151(14) 0.28833(18) -0.4423(4)
O4 O 0.04296(17) 0.3498(2) -0.2236(5)
O5 O 0.13234(15) 0.2632(2) -0.6644(4)
O6 O 0.08711(15) 0.2887(2) -0.4520(4)
O7 O 0.0000 0.3524(3) -0.0048(6)
O8 O 0.13648(15) 0.4615(2) -0.0982(4)
O9 O 0.12893(15) 0.18237(19) -0.4849(4)
O10 O 0.07591(16) 0.45246(19) 0.0799(5)
O11 O -0.11768(17) 0.4483(2) 0.5647(5)
O12 O -0.05721(19) 0.4691(3) 0.3933(5)
O13 O -0.0000 0.4482(3) -0.1535(9)
O14 O 0.05551(19) 0.3313(3) 0.2280(5)
O15 O 0.0000 0.3611(5) 0.4700(10)
O8C O 0.13648(15) 0.5385(2) 0.0982(4)
O10C O 0.07591(16) 0.54754(19) -0.0799(5)
O4K O -0.04296(17) 0.3498(2) -0.2236(5)
O1F O 0.28278(14) 0.41869(19) -0.1616(4)
O2F O 0.28179(14) 0.33567(19) -0.3400(4)
O11C O -0.11768(17) 0.5517(2) 0.4353(5)
O12C O -0.05721(19) 0.5309(3) 0.6067(5)
La2C La 0.132605(13) 0.637961(17) 0.25183(3)
S3C S 0.12997(5) 0.74479(7) 0.51078(14)
O3C O 0.17151(14) 0.71167(18) 0.4423(4)
O5C O 0.13234(15) 0.7368(2) 0.6644(4)
O6C O 0.08711(15) 0.7113(2) 0.4520(4)
O9C O 0.12893(15) 0.81763(19) 0.4849(4)
O14K O -0.05551(19) 0.3313(3) 0.2280(5)
La1C La -0.0000 0.56743(2) -0.21345(5)
La1C_2 La -0.0000 0.56743(2) 0.78655(5)
La2F La 0.367395(13) 0.362039(17) -0.24817(3)
La2H La -0.132605(13) 0.637961(17) 0.25183(3)
La2I La 0.132605(13) 0.862039(17) 0.75183(3)
La2J La 0.132605(13) 0.137961(17) -0.75183(3)
La2K La -0.132605(13) 0.362039(17) -0.25183(3)
La2K_2 La -0.132605(13) 0.362039(17) 0.74817(3)
O1C O 0.21722(14) 0.58131(19) 0.3384(4)
O2C O 0.21821(14) 0.66433(19) 0.1600(4)
O4C O 0.04296(17) 0.6502(2) 0.2236(5)
O5I O 0.13234(15) 0.7632(2) 0.1644(4)
O5J O 0.13234(15) 0.2368(2) -0.1644(4)
O9I O 0.12893(15) 0.68237(19) -0.0151(4)
O9J O 0.12893(15) 0.31763(19) 0.0151(4)
O10K O -0.07591(16) 0.45246(19) 0.0799(5)
O11H O 0.11768(17) 0.5517(2) 0.4353(5)
O11K O 0.11768(17) 0.4483(2) -0.4353(5)
O12K O 0.05721(19) 0.4691(3) 0.3933(5)
O13C O -0.0000 0.5518(3) 0.1535(9)
C1 C -0.3021(2) 0.0834(3) 0.7143(7)
H1 H -0.3140 0.0417 0.6733
H2 H -0.3287 0.1151 0.7211
C2 C -0.2809(2) 0.0698(3) 0.8595(6)
H3 H -0.3042 0.0815 0.9318
H4 H -0.2728 0.0223 0.8691
C3 C -0.2521(2) 0.1828(3) 0.6714(7)
H5 H -0.2220 0.1979 0.6295
H6 H -0.2777 0.2131 0.6418
N1 N -0.2631(2) 0.1120(2) 0.6261(5)
H7 H -0.2727 0.1122 0.5346
C1F C -0.1979(2) 0.0834(3) 0.7857(7)
H1F H -0.1860 0.0417 0.8267
H2F H -0.1713 0.1151 0.7789
C2F C -0.2191(2) 0.0698(3) 0.6405(6)
H3F H -0.1958 0.0815 0.5682
H4F H -0.2272 0.0223 0.6309
C3F C -0.2479(2) 0.1828(3) 0.8286(7)
H5F H -0.2780 0.1979 0.8705
H6F H -0.2223 0.2131 0.8582
N1F N -0.2369(2) 0.1120(2) 0.8739(5)
H7F H -0.2273 0.1122 0.9654
loop_
_geom_bond_atom_site_label_1
_geom_bond_atom_site_label_2
_geom_bond_site_symmetry_1
_geom_bond_site_symmetry_2
La1 O7 1_555 1_555
La2 O1 1_555 1_555
S1 O8 1_555 1_555
S2 O4 1_555 1_555
S3 O3 1_555 1_555
S4 O1 1_555 1_555
S5 O11 1_555 1_555
O2 La2 1_555 1_555
O3 La2 1_555 1_555
O4 La2 1_555 1_555
O5 S3 1_555 1_555
O6 La2 1_555 1_555
O7 S2 1_555 1_555
O8 La2 1_555 1_555
O9 S3 1_555 1_555
O10 La1 1_555 1_555
O11 La2K_2 1_555 1_555
O12 La1 1_555 1_555
O13 S2 1_555 1_555
O14 La1 1_555 1_555
O15 La1 1_555 1_555
C1 H1 1_555 1_555
H2 C1 1_555 1_555
C2 C1 1_555 1_555
H3 C2 1_555 1_555
H4 C2 1_555 1_555
C3 H5 1_555 1_555
H6 C3 1_555 1_555
N1 C1 1_555 1_555
H7 N1 1_555 1_555
O8C S1 1_555 1_555
O10C S1 1_555 1_555
O4K S2 1_555 1_555
O1F S4 1_555 1_555
O2F S4 1_555 1_555
O11C S5 1_555 1_555
O12C S5 1_555 1_555
La2C O8C 1_555 1_555
S3C O3C 1_555 1_555
O3C La2C 1_555 1_555
O5C S3C 1_555 1_555
O6C La2C 1_555 1_555
O9C S3C 1_555 1_555
O14K La1 1_555 1_555
La1C O13 1_555 1_555
La1C_2 O12C 1_555 1_555
La2F O1F 1_555 1_555
La2H O11C 1_555 1_555
La2I O5C 1_555 1_555
La2J O5 1_555 1_555
La2K O4K 1_555 1_555
O1C La2C 1_555 1_555
O2C La2C 1_555 1_555
O4C La2C 1_555 1_555
O5I La2C 1_555 1_555
O5J La2 1_555 1_555
O9I La2C 1_555 1_555
O9J La2 1_555 1_555
O10K La1 1_555 1_555
O11H La2C 1_555 1_555
O11K La2 1_555 1_555
O12K La1 1_555 1_555
O13C La1 1_555 1_555
C1F H1F 1_555 1_555
H2F C1F 1_555 1_555
C2F N1 1_555 1_555
H3F C2F 1_555 1_555
H4F C2F 1_555 1_555
C3F C3 1_555 1_555
H5F C3F 1_555 1_555
H6F C3F 1_555 1_555
N1F C2 1_555 1_555
H7F N1F 1_555 1_555
S1 O10 1_555 1_555
S3 O6 1_555 1_555
S4 O2 1_555 1_555
S5 O12 1_555 1_555
O9 La2J 1_555 1_555
C3 N1 1_555 1_555
O10C La1C 1_555 1_555
O2F La2F 1_555 1_555
S3C O6C 1_555 1_555
O9C La2I 1_555 1_555
C1F C2F 1_555 1_555
C1F N1F 1_555 1_555
C3F N1F 1_555 1_555

#END
