
#######################################################################
#
#                 Cambridge Crystallographic Data Centre
#                                CCDC 
#
#######################################################################
#
# If this CIF has been generated from an entry in the Cambridge 
# Structural Database, then it will include bibliographic, chemical, 
# crystal, experimental, refinement or atomic coordinate data resulting 
# from the CCDC's data processing and validation procedures.
#
#######################################################################

data_AMUFEV
_chemical_formula_moiety         '(C30 H30 Co4 N2 O20)n'
_symmetry_cell_setting           triclinic
_symmetry_space_group_name_H-M   'P -1'
_symmetry_Int_Tables_number      2
_space_group_name_Hall           '-P 1'
loop_
_symmetry_equiv_pos_site_id
_symmetry_equiv_pos_as_xyz
1 x,y,z
2 -x,-y,-z
_cell_length_a                   9.1461(6)
_cell_length_b                   9.6587(6)
_cell_length_c                   12.7617(12)
_cell_angle_alpha                94.6640(10)
_cell_angle_beta                 103.8370(10)
_cell_angle_gamma                114.8300(10)
_cell_volume                     972.096
loop_
_atom_site_label
_atom_site_type_symbol
_atom_site_fract_x
_atom_site_fract_y
_atom_site_fract_z
C1 C 0.7680(3) 0.3101(3) 0.26072(19)
O1 O 1.2889(2) 0.3397(2) 0.56498(13)
O2 O 1.4367(2) 0.3155(2) 0.34398(18)
O3 O 1.3720(2) 0.4530(2) 0.23420(16)
C2 C 1.3272(3) 0.3453(3) 0.2845(2)
C3 C 1.1434(3) 0.2449(3) 0.27324(19)
H1 H 1.1096 0.1451 0.2255
O4 O 0.6881(2) 0.0398(2) 0.42575(17)
O5 O 0.8982(2) 0.26994(18) 0.51672(14)
C4 C 0.8286(3) 0.1528(2) 0.43905(19)
Co1 Co 0.63443(4) 0.48781(4) 0.30123(3)
Co2 Co 1.0000 0.5000 0.5000
Co3 Co 0.5000 0.0000 0.5000
O6 O 1.19381(19) 0.47430(17) 0.45822(13)
O7 O 0.8362(2) 0.42910(19) 0.33900(13)
C5 C 1.2030(3) 0.3501(3) 0.47567(19)
O8 O 0.4336(2) -0.23592(19) 0.43151(16)
H2 H 0.3356 -0.3052 0.4494
C6 C 1.1062(3) 0.2072(2) 0.38247(19)
H3 H 1.1369 0.1250 0.4026
N1 N 0.7288(3) 0.6349(2) 0.19836(17)
C7 C 0.8579(3) 0.2113(3) 0.24751(19)
H4 H 0.7833 0.1239 0.1851
C8 C 1.0225(3) 0.3070(3) 0.2195(2)
H5 H 1.0025 0.2914 0.1403
H6 H 1.0673 0.4173 0.2493
C9 C 0.9200(3) 0.9575(3) -0.0030(2)
H7 H 0.8393 0.9707 -0.0554
C10 C 0.8580(3) 0.8443(3) 0.0655(2)
C11 C 0.9106(3) 0.1419(3) 0.34912(19)
H8 H 0.8651 0.0301 0.3200
O9 O 0.6300(2) 0.2796(2) 0.19409(16)
O10 O 0.3554(3) 0.0143(2) 0.35203(17)
H9 H 0.4285 0.0702 0.3111
C12 C 0.9633(3) 0.8225(3) 0.1531(2)
H10 H 1.0799 0.8779 0.1688
C13 C 0.6279(4) 0.6546(4) 0.1135(2)
H11 H 0.5118 0.5969 0.0987
C14 C 0.6863(4) 0.7561(4) 0.0461(2)
H12 H 0.6100 0.7651 -0.0124
C15 C 0.8963(3) 0.7190(3) 0.2171(2)
H13 H 0.9698 0.7068 0.2757
N1A N 1.2712(3) 1.3651(2) -0.19836(17)
C9A C 1.0800(3) 1.0425(3) 0.0030(2)
H7A H 1.1607 1.0293 0.0554
C10A C 1.1420(3) 1.1557(3) -0.0655(2)
C12A C 1.0367(3) 1.1775(3) -0.1531(2)
H10A H 0.9201 1.1221 -0.1688
C13A C 1.3721(4) 1.3454(4) -0.1135(2)
H11A H 1.4882 1.4031 -0.0987
C14A C 1.3137(4) 1.2439(4) -0.0461(2)
H12A H 1.3900 1.2349 0.0124
C15A C 1.1037(3) 1.2810(3) -0.2171(2)
H13A H 1.0302 1.2932 -0.2757
C1A C 0.2320(3) -0.3101(3) 0.73928(19)
O1A O -0.2889(2) -0.3397(2) 0.43502(13)
O2A O -0.4367(2) -0.3155(2) 0.65602(18)
O3A O -0.3720(2) -0.4530(2) 0.76580(16)
C2A C -0.3272(3) -0.3453(3) 0.7155(2)
C3A C -0.1434(3) -0.2449(3) 0.72676(19)
H1A H -0.1096 -0.1451 0.7745
O4A O 0.3119(2) -0.0398(2) 0.57425(17)
O5A O 0.1018(2) -0.26994(18) 0.48328(14)
C4A C 0.1714(3) -0.1528(2) 0.56095(19)
Co1A Co 0.36557(4) -0.48781(4) 0.69877(3)
O6A O -0.19381(19) -0.47430(17) 0.54178(13)
O7A O 0.1638(2) -0.42910(19) 0.66100(13)
C5A C -0.2030(3) -0.3501(3) 0.52433(19)
O8A O 0.5664(2) 0.23592(19) 0.56849(16)
H2A H 0.6644 0.3052 0.5506
C6A C -0.1062(3) -0.2072(2) 0.61753(19)
H3A H -0.1369 -0.1250 0.5974
C7A C 0.1421(3) -0.2113(3) 0.75249(19)
H4A H 0.2167 -0.1239 0.8149
C8A C -0.0225(3) -0.3070(3) 0.7805(2)
H5A H -0.0025 -0.2914 0.8597
H6A H -0.0673 -0.4173 0.7507
C11A C 0.0894(3) -0.1419(3) 0.65088(19)
H8A H 0.1349 -0.0301 0.6800
O9A O 0.3700(2) -0.2796(2) 0.80591(16)
O10A O 0.6446(3) -0.0143(2) 0.64797(17)
H9A H 0.5715 -0.0702 0.6889
O1_2 O 0.2889(2) -0.6603(2) 0.56498(13)
O1A_2 O 0.7111(2) 0.6603(2) 0.43502(13)
O2_2 O 0.4367(2) 0.3155(2) 0.34398(18)
O2A_2 O 0.5633(2) -0.3155(2) 0.65602(18)
O3_2 O 0.3720(2) 0.4530(2) 0.23420(16)
O3A_2 O 0.6280(2) -0.4530(2) 0.76580(16)
O5A_2 O 1.1018(2) 0.73006(18) 0.48328(14)
Co1_2 Co -0.36557(4) -0.51219(4) 0.30123(3)
Co1_3 Co 1.63443(4) 0.48781(4) 0.30123(3)
Co1A_2 Co -0.63443(4) -0.48781(4) 0.69877(3)
Co1A_3 Co 1.36557(4) 0.51219(4) 0.69877(3)
Co1A_4 Co 1.36557(4) 1.51219(4) -0.30123(3)
Co2_2 Co -0.0000 -0.5000 0.5000
O6A_2 O 0.80619(19) 0.52570(17) 0.54178(13)
O7A_2 O 1.1638(2) 0.57090(19) 0.66100(13)
N1A_2 N 0.2712(3) -0.6349(2) 0.80164(17)
loop_
_geom_bond_atom_site_label_1
_geom_bond_atom_site_label_2
_geom_bond_site_symmetry_1
_geom_bond_site_symmetry_2
C1 O7 1_555 1_555
O1 C5 1_555 1_555
O2 C2 1_555 1_555
O3 C2 1_555 1_555
C2 C3 1_555 1_555
C3 H1 1_555 1_555
O4 C4 1_555 1_555
O5 C4 1_555 1_555
C4 C11 1_555 1_555
Co1 O7 1_555 1_555
Co2 O5 1_555 1_555
Co3 O4 1_555 1_555
O6 Co2 1_555 1_555
O7 Co2 1_555 1_555
C5 O6 1_555 1_555
O8 Co3 1_555 1_555
H2 O8 1_555 1_555
C6 C3 1_555 1_555
H3 C6 1_555 1_555
N1 Co1 1_555 1_555
C7 C1 1_555 1_555
H4 C7 1_555 1_555
C8 C3 1_555 1_555
H5 C8 1_555 1_555
H6 C8 1_555 1_555
C9 H7 1_555 1_555
C10 C9 1_555 1_555
C11 C6 1_555 1_555
H8 C11 1_555 1_555
O9 C1 1_555 1_555
O10 Co3 1_555 1_555
H9 O10 1_555 1_555
C12 C10 1_555 1_555
H10 C12 1_555 1_555
C13 N1 1_555 1_555
H11 C13 1_555 1_555
C14 C10 1_555 1_555
H12 C14 1_555 1_555
C15 N1 1_555 1_555
H13 C15 1_555 1_555
N1A C13A 1_555 1_555
C9A C9 1_555 1_555
H7A C9A 1_555 1_555
C10A C9A 1_555 1_555
C12A C10A 1_555 1_555
H10A C12A 1_555 1_555
C13A H11A 1_555 1_555
C14A C10A 1_555 1_555
H12A C14A 1_555 1_555
C15A N1A 1_555 1_555
H13A C15A 1_555 1_555
C1A O7A 1_555 1_555
O1A C5A 1_555 1_555
O2A C2A 1_555 1_555
O3A C2A 1_555 1_555
C2A C3A 1_555 1_555
C3A H1A 1_555 1_555
O4A Co3 1_555 1_555
O5A C4A 1_555 1_555
C4A O4A 1_555 1_555
Co1A O7A 1_555 1_555
O6A C5A 1_555 1_555
O7A Co2_2 1_555 1_555
C5A C6A 1_555 1_555
O8A Co3 1_555 1_555
H2A O8A 1_555 1_555
C6A C3A 1_555 1_555
H3A C6A 1_555 1_555
C7A C1A 1_555 1_555
H4A C7A 1_555 1_555
C8A C3A 1_555 1_555
H5A C8A 1_555 1_555
H6A C8A 1_555 1_555
C11A C4A 1_555 1_555
H8A C11A 1_555 1_555
O9A C1A 1_555 1_555
O10A Co3 1_555 1_555
H9A O10A 1_555 1_555
O1_2 Co1A 1_555 1_555
O1A_2 Co1 1_555 1_555
O2_2 Co1 1_555 1_555
O2A_2 Co1A 1_555 1_555
O3_2 Co1 1_555 1_555
O3A_2 Co1A 1_555 1_555
O5A_2 Co2 1_555 1_555
Co1_2 O1A 1_555 1_555
Co1_3 O2 1_555 1_555
Co1A_2 O2A 1_555 1_555
Co1A_3 O1 1_555 1_555
Co1A_4 N1A 1_555 1_555
Co2_2 O5A 1_555 1_555
O6A_2 Co2 1_555 1_555
O7A_2 Co2 1_555 1_555
N1A_2 Co1A 1_555 1_555
O3 Co1_3 1_555 1_555
Co1 O9 1_555 1_555
C5 C6 1_555 1_555
C7 C8 1_555 1_555
C7 C11 1_555 1_555
C12 C15 1_555 1_555
C13 C14 1_555 1_555
C12A C15A 1_555 1_555
C13A C14A 1_555 1_555
O3A Co1A_2 1_555 1_555
Co1A O9A 1_555 1_555
O6A Co2_2 1_555 1_555
C6A C11A 1_555 1_555
C7A C8A 1_555 1_555
C7A C11A 1_555 1_555
Co1A_3 O7A_2 1_555 1_555

#END
