
#######################################################################
#
#                 Cambridge Crystallographic Data Centre
#                                CCDC 
#
#######################################################################
#
# If this CIF has been generated from an entry in the Cambridge 
# Structural Database, then it will include bibliographic, chemical, 
# crystal, experimental, refinement or atomic coordinate data resulting 
# from the CCDC's data processing and validation procedures.
#
#######################################################################

data_AMUFIZ
_chemical_formula_moiety         '(C28 H34 Co4 N4 O23)n'
_symmetry_cell_setting           triclinic
_symmetry_space_group_name_H-M   'P -1'
_symmetry_Int_Tables_number      2
_space_group_name_Hall           '-P 1'
loop_
_symmetry_equiv_pos_site_id
_symmetry_equiv_pos_as_xyz
1 x,y,z
2 -x,-y,-z
_cell_length_a                   9.0838(10)
_cell_length_b                   9.6157(11)
_cell_length_c                   12.4252(14)
_cell_angle_alpha                93.488(2)
_cell_angle_beta                 104.357(2)
_cell_angle_gamma                113.993(2)
_cell_volume                     944.403
loop_
_atom_site_label
_atom_site_type_symbol
_atom_site_fract_x
_atom_site_fract_y
_atom_site_fract_z
C1 C 0.6685(8) 0.3465(7) 0.0597(5)
C2 C 0.2958(7) 0.1495(7) 0.0251(5)
C3 C 0.1739(8) 0.1486(7) 0.2208(5)
C4 C 0.7326(8) 0.1846(7) 0.2442(5)
C5 C 0.6444(8) 0.2842(7) 0.2579(5)
H1 H 0.7194 0.3701 0.3211
C6 C 0.5875(7) 0.3548(7) 0.1525(5)
H2 H 0.6311 0.4655 0.1815
C7 C 0.3915(7) 0.2906(7) 0.1195(5)
H3 H 0.3589 0.3728 0.0982
C8 C 0.3550(8) 0.2506(7) 0.2328(5)
H4 H 0.3853 0.3486 0.2810
C9 C 0.4813(8) 0.1888(8) 0.2885(5)
H5 H 0.4385 0.0794 0.2594
H6 H 0.5025 0.2036 0.3698
C10 C 0.8666(9) -0.1693(9) 0.3979(6)
H7 H 0.9831 -0.1156 0.4139
C11 C 0.8054(10) -0.2675(9) 0.4670(6)
H8 H 0.8787 -0.2787 0.5292
C12 C 0.6333(9) -0.3502(7) 0.4435(5)
C13 C 0.5274(9) -0.3288(9) 0.3513(6)
H9 H 0.4107 -0.3831 0.3337
C14 C 0.5991(9) -0.2252(9) 0.2863(6)
H10 H 0.5283 -0.2095 0.2252
N1 N 0.5760(8) -0.4551(7) 0.5174(5)
Co1 Co 0.86686(10) 0.00499(9) 0.20410(7)
Co2 Co 0.5000 0.0000 0.0000
Co3 Co 1.0000 0.5000 0.0000
N2 N 0.7683(7) -0.1453(6) 0.3075(4)
O1 O 0.6020(6) 0.2303(5) -0.0176(4)
O2 O 0.8058(6) 0.4606(5) 0.0715(4)
O3 O 0.3062(5) 0.0264(5) 0.0439(3)
O4 O 0.2104(6) 0.1641(5) -0.0677(4)
O5 O 0.0602(6) 0.1745(6) 0.1555(4)
O6 O 0.1317(6) 0.0418(6) 0.2765(4)
O7 O 0.6627(5) 0.0662(5) 0.1643(3)
O8 O 0.8709(7) 0.2119(6) 0.3093(4)
O9 O 0.9332(6) 0.2658(5) -0.0707(4)
H11 H 0.8460 0.1966 -0.0431
O10 O 1.1367(7) 0.4778(6) 0.1550(4)
H12 H 1.1121 0.3707 0.1545
H13 H 1.0306 0.2457 -0.0486
H14 H 1.2099 0.4335 0.1423
C10A C 0.1334(9) -0.8307(9) 0.6021(6)
H7A H 0.0169 -0.8844 0.5861
C11A C 0.1946(10) -0.7325(9) 0.5330(6)
H8A H 0.1213 -0.7213 0.4708
C12A C 0.3667(9) -0.6498(7) 0.5565(5)
C13A C 0.4726(9) -0.6712(9) 0.6487(6)
H9A H 0.5893 -0.6169 0.6663
C14A C 0.4009(9) -0.7748(9) 0.7137(6)
H10A H 0.4717 -0.7905 0.7748
N1A N 0.4240(8) -0.5449(7) 0.4826(5)
N2A N 0.2317(7) -0.8547(6) 0.6925(4)
C1A C 0.3315(8) -1.3465(7) 0.9403(5)
C2A C 0.7042(7) -1.1495(7) 0.9749(5)
C3A C 0.8261(8) -1.1486(7) 0.7792(5)
C4A C 0.2674(8) -1.1846(7) 0.7558(5)
C5A C 0.3556(8) -1.2842(7) 0.7421(5)
H1A H 0.2806 -1.3701 0.6789
C6A C 0.4125(7) -1.3548(7) 0.8475(5)
H2A H 0.3689 -1.4655 0.8185
C7A C 0.6085(7) -1.2906(7) 0.8805(5)
H3A H 0.6411 -1.3728 0.9018
C8A C 0.6450(8) -1.2506(7) 0.7672(5)
H4A H 0.6147 -1.3486 0.7190
C9A C 0.5187(8) -1.1888(8) 0.7115(5)
H5A H 0.5615 -1.0794 0.7406
H6A H 0.4975 -1.2036 0.6302
Co1A Co 0.13314(10) -1.00499(9) 0.79590(7)
O1A O 0.3980(6) -1.2303(5) 1.0176(4)
O2A O 0.1942(6) -1.4606(5) 0.9285(4)
O3A O 0.6938(5) -1.0264(5) 0.9561(3)
O4A O 0.7896(6) -1.1641(5) 1.0677(4)
O5A O 0.9398(6) -1.1745(6) 0.8445(4)
O6A O 0.8683(6) -1.0418(6) 0.7235(4)
O7A O 0.3373(5) -1.0662(5) 0.8357(3)
O8A O 0.1291(7) -1.2119(6) 0.6907(4)
O9A O 1.0668(6) 0.7342(5) 0.0707(4)
H11A H 1.1540 0.8034 0.0431
H13A H 0.9694 0.7543 0.0486
O10A O 0.8633(7) 0.5222(6) -0.1550(4)
H12A H 0.8879 0.6293 -0.1545
H14A H 0.7901 0.5665 -0.1423
Co1_2 Co -0.13314(10) 0.00499(9) 0.20410(7)
Co1_3 Co 0.86686(10) -0.99501(9) 1.20410(7)
Co1A_2 Co 0.13314(10) -0.00499(9) -0.20410(7)
Co1A_3 Co 1.13314(10) -1.00499(9) 0.79590(7)
Co2_2 Co 0.5000 -1.0000 1.0000
Co3_2 Co 0.0000 -1.5000 1.0000
O1A_2 O 0.3980(6) -0.2303(5) 0.0176(4)
O2A_2 O 1.1942(6) 0.5394(5) -0.0715(4)
O3A_2 O 0.6938(5) -0.0264(5) -0.0439(3)
O4_2 O 0.2104(6) -0.8359(5) 0.9323(4)
O4A_2 O 0.7896(6) -0.1641(5) 0.0677(4)
O5_2 O 1.0602(6) 0.1745(6) 0.1555(4)
O5A_2 O -0.0602(6) -1.1745(6) 0.8445(4)
O6_2 O 1.1317(6) 0.0418(6) 0.2765(4)
O6A_2 O -0.1317(6) -1.0418(6) 0.7235(4)
O7A_2 O 0.3373(5) -0.0662(5) -0.1643(3)
O11 O 0.3160(13) 0.9288(12) 0.4570(10)
H15 H 0.3463 0.9896 0.4115
H16 H 0.2994 0.8386 0.4298
O12 O 0.085(2) 0.6394(16) 0.3165(11)
H17 H 0.0703 0.7019 0.2743
H18 H -0.0098 0.5761 0.3218
O13 O 0.0000 0.5000 0.5000
loop_
_geom_bond_atom_site_label_1
_geom_bond_atom_site_label_2
_geom_bond_site_symmetry_1
_geom_bond_site_symmetry_2
C1 C6 1_555 1_555
C2 C7 1_555 1_555
C3 C8 1_555 1_555
C4 C5 1_555 1_555
C5 H1 1_555 1_555
C6 C5 1_555 1_555
H2 C6 1_555 1_555
C7 C6 1_555 1_555
H3 C7 1_555 1_555
C8 C7 1_555 1_555
H4 C8 1_555 1_555
C9 C5 1_555 1_555
H5 C9 1_555 1_555
H6 C9 1_555 1_555
C10 H7 1_555 1_555
C11 C10 1_555 1_555
H8 C11 1_555 1_555
C12 C11 1_555 1_555
C13 C12 1_555 1_555
H9 C13 1_555 1_555
C14 C13 1_555 1_555
H10 C14 1_555 1_555
N1 C12 1_555 1_555
Co1 N2 1_555 1_555
Co2 O1 1_555 1_555
Co3 O2 1_555 1_555
N2 C10 1_555 1_555
O1 C1 1_555 1_555
O2 C1 1_555 1_555
O3 C2 1_555 1_555
O4 C2 1_555 1_555
O5 C3 1_555 1_555
O6 C3 1_555 1_555
O7 C4 1_555 1_555
O8 C4 1_555 1_555
O9 Co3 1_555 1_555
H11 O9 1_555 1_555
O10 Co3 1_555 1_555
H12 O10 1_555 1_555
H13 O9 1_555 1_555
H14 O10 1_555 1_555
O11 H15 1_555 1_555
H16 O11 1_555 1_555
O12 H17 1_555 1_555
H18 O12 1_555 1_555
C10A H7A 1_555 1_555
C11A C10A 1_555 1_555
H8A C11A 1_555 1_555
C12A C11A 1_555 1_555
C13A C12A 1_555 1_555
H9A C13A 1_555 1_555
C14A C13A 1_555 1_555
H10A C14A 1_555 1_555
N1A N1 1_555 1_555
N2A C10A 1_555 1_555
C1A C6A 1_555 1_555
C2A C7A 1_555 1_555
C3A C8A 1_555 1_555
C4A C5A 1_555 1_555
C5A H1A 1_555 1_555
C6A C5A 1_555 1_555
H2A C6A 1_555 1_555
C7A C6A 1_555 1_555
H3A C7A 1_555 1_555
C8A C7A 1_555 1_555
H4A C8A 1_555 1_555
C9A C5A 1_555 1_555
H5A C9A 1_555 1_555
H6A C9A 1_555 1_555
Co1A N2A 1_555 1_555
O1A C1A 1_555 1_555
O2A C1A 1_555 1_555
O3A C2A 1_555 1_555
O4A C2A 1_555 1_555
O5A C3A 1_555 1_555
O6A C3A 1_555 1_555
O7A C4A 1_555 1_555
O8A C4A 1_555 1_555
O9A Co3 1_555 1_555
H11A O9A 1_555 1_555
H13A O9A 1_555 1_555
O10A Co3 1_555 1_555
H12A O10A 1_555 1_555
H14A O10A 1_555 1_555
Co1_2 O5 1_555 1_555
Co1_3 O4A 1_555 1_555
Co1A_2 O4 1_555 1_555
Co1A_3 O5A 1_555 1_555
Co2_2 O1A 1_555 1_555
Co3_2 O2A 1_555 1_555
O1A_2 Co2 1_555 1_555
O2A_2 Co3 1_555 1_555
O3A_2 Co2 1_555 1_555
O4_2 Co1A 1_555 1_555
O4A_2 Co1 1_555 1_555
O5_2 Co1 1_555 1_555
O5A_2 Co1A 1_555 1_555
O6_2 Co1 1_555 1_555
O6A_2 Co1A 1_555 1_555
O7A_2 Co2 1_555 1_555
C8 C9 1_555 1_555
C14 N2 1_555 1_555
Co1 O7 1_555 1_555
Co1 O8 1_555 1_555
Co2 O3 1_555 1_555
Co2 O7 1_555 1_555
O6 Co1_2 1_555 1_555
C12A N1A 1_555 1_555
C14A N2A 1_555 1_555
C8A C9A 1_555 1_555
Co1A O7A 1_555 1_555
Co1A O8A 1_555 1_555
O3A Co2_2 1_555 1_555
O6A Co1A_3 1_555 1_555
O7A Co2_2 1_555 1_555
Co1A_2 O7A_2 1_555 1_555

#END
