
#######################################################################
#
#                 Cambridge Crystallographic Data Centre
#                                CCDC 
#
#######################################################################
#
# If this CIF has been generated from an entry in the Cambridge 
# Structural Database, then it will include bibliographic, chemical, 
# crystal, experimental, refinement or atomic coordinate data resulting 
# from the CCDC's data processing and validation procedures.
#
#######################################################################

data_AMUFAR
_chemical_formula_moiety         '(C34 H32 Co4 N2 O20)n'
_symmetry_cell_setting           triclinic
_symmetry_space_group_name_H-M   'P -1'
_symmetry_Int_Tables_number      2
_space_group_name_Hall           '-P 1'
loop_
_symmetry_equiv_pos_site_id
_symmetry_equiv_pos_as_xyz
1 x,y,z
2 -x,-y,-z
_cell_length_a                   9.1291(6)
_cell_length_b                   9.5884(6)
_cell_length_c                   14.7554(10)
_cell_angle_alpha                100.3880(10)
_cell_angle_beta                 99.2700(10)
_cell_angle_gamma                114.4670(10)
_cell_volume                     1115.52
loop_
_atom_site_label
_atom_site_type_symbol
_atom_site_fract_x
_atom_site_fract_y
_atom_site_fract_z
O1 O 1.3474(2) 0.2482(2) 0.26816(14)
O2 O 1.1570(2) 0.08930(19) 0.13845(12)
C1 C 1.2171(3) 0.2145(3) 0.20793(17)
O3 O 1.3069(2) 0.4652(2) 0.06497(14)
O4 O 1.0995(2) 0.22897(18) -0.01520(12)
C2 C 1.1665(3) 0.3529(3) 0.05306(17)
C3 C 1.0799(3) 0.3750(3) 0.13142(17)
H1 H 1.1236 0.4905 0.1562
O5 O 0.7127(2) 0.1540(2) -0.05370(12)
O6 O 0.80413(19) 0.03053(18) 0.03763(12)
C4 C 0.7953(3) 0.1536(3) 0.02304(17)
C5 C 0.8864(3) 0.3069(3) 0.10318(16)
H2 H 0.8566 0.3876 0.0859
Co1 Co 0.35513(4) 0.03226(4) 0.17061(2)
Co2 Co 1.0000 0.0000 0.0000
Co3 Co 1.5000 0.5000 0.0000
O7 O 1.5573(2) 0.74301(19) 0.05586(14)
H3 H 1.6651 0.8108 0.0496
C6 C 0.6608(3) 0.1773(3) 0.18802(17)
O8 O 0.6125(2) 0.0650(2) 0.22486(15)
C7 C 0.8436(3) 0.2809(3) 0.19847(17)
H4 H 0.8732 0.3860 0.2399
C8 C 0.9617(3) 0.2239(3) 0.24427(18)
H5 H 0.9191 0.1100 0.2182
H6 H 0.9770 0.2475 0.3129
C9 C 1.1275(3) 0.3167(3) 0.21983(17)
H7 H 1.1983 0.4111 0.2738
N1 N 0.2617(3) -0.1025(3) 0.26147(15)
O9 O 0.5551(2) 0.2081(2) 0.14166(16)
O10 O 1.6426(3) 0.5114(2) 0.13002(14)
H8 H 1.6656 0.4215 0.1217
C10 C 0.0651(3) -0.3983(3) 0.44289(18)
C11 C 0.1329(3) -0.2937(3) 0.38103(18)
C12 C 0.0308(3) -0.2845(3) 0.3048(2)
H9 H -0.0844 -0.3425 0.2923
C13 C 0.0974(3) -0.1906(3) 0.24696(19)
H10 H 0.0251 -0.1884 0.1957
C14 C -0.1003(4) -0.4556(4) 0.4459(2)
H11 H -0.1699 -0.4264 0.4092
C15 C 0.3609(4) -0.1091(4) 0.3361(2)
H12 H 0.4755 -0.0485 0.3477
C16 C 0.3033(4) -0.2002(4) 0.3968(2)
H13 H 0.3781 -0.1991 0.4481
C17 C 0.1637(4) -0.4456(4) 0.4984(2)
H14 H 0.2750 -0.4098 0.4979
N1A N -0.2617(3) -0.8975(3) 0.73853(15)
C10A C -0.0651(3) -0.6017(3) 0.55711(18)
C11A C -0.1329(3) -0.7063(3) 0.61897(18)
C12A C -0.0308(3) -0.7155(3) 0.6952(2)
H9A H 0.0844 -0.6575 0.7077
C13A C -0.0974(3) -0.8094(3) 0.75304(19)
H10A H -0.0251 -0.8116 0.8043
C14A C 0.1003(4) -0.5444(4) 0.5541(2)
H11A H 0.1699 -0.5736 0.5908
C15A C -0.3609(4) -0.8909(4) 0.6639(2)
H12A H -0.4755 -0.9515 0.6523
C16A C -0.3033(4) -0.7998(4) 0.6032(2)
H13A H -0.3781 -0.8009 0.5519
C17A C -0.1637(4) -0.5544(4) 0.5016(2)
H14A H -0.2750 -0.5902 0.5021
O1A O -1.3474(2) -1.2482(2) 0.73184(14)
O2A O -1.1570(2) -1.08930(19) 0.86155(12)
C1A C -1.2171(3) -1.2145(3) 0.79207(17)
O3A O -1.3069(2) -1.4652(2) 0.93503(14)
O4A O -1.0995(2) -1.22897(18) 1.01520(12)
C2A C -1.1665(3) -1.3529(3) 0.94694(17)
C3A C -1.0799(3) -1.3750(3) 0.86858(17)
H1A H -1.1236 -1.4905 0.8438
O5A O -0.7127(2) -1.1540(2) 1.05370(12)
O6A O -0.80413(19) -1.03053(18) 0.96237(12)
C4A C -0.7953(3) -1.1536(3) 0.97696(17)
C5A C -0.8864(3) -1.3069(3) 0.89682(16)
H2A H -0.8566 -1.3876 0.9141
Co1A Co -0.35513(4) -1.03226(4) 0.82939(2)
C6A C -0.6608(3) -1.1773(3) 0.81198(17)
O8A O -0.6125(2) -1.0650(2) 0.77514(15)
C7A C -0.8436(3) -1.2809(3) 0.80153(17)
H4A H -0.8732 -1.3860 0.7601
C8A C -0.9617(3) -1.2239(3) 0.75573(18)
H5A H -0.9191 -1.1100 0.7818
H6A H -0.9770 -1.2475 0.6871
C9A C -1.1275(3) -1.3167(3) 0.78017(17)
H7A H -1.1983 -1.4111 0.7262
O9A O -0.5551(2) -1.2081(2) 0.85834(16)
O7A O 1.4427(2) 0.25699(19) -0.05586(14)
H3A H 1.3349 0.1892 -0.0496
O10A O 1.3574(3) 0.4886(2) -0.13002(14)
H8A H 1.3344 0.5785 -0.1217
O1_2 O 0.3474(2) 0.2482(2) 0.26816(14)
O1A_2 O -0.3474(2) -1.2482(2) 0.73184(14)
O2_2 O 0.1570(2) 0.08930(19) 0.13845(12)
O2A_2 O -0.1570(2) -1.08930(19) 0.86155(12)
O2A_3 O 0.8430(2) -0.08930(19) -0.13845(12)
O3A_2 O 1.6931(2) 0.5348(2) -0.06497(14)
O4A_2 O 0.9005(2) -0.22897(18) 0.01520(12)
O5_2 O -0.2873(2) -0.8460(2) 0.94630(12)
O5A_2 O 0.2873(2) -0.1540(2) 0.05370(12)
O6A_2 O 1.19587(19) -0.03053(18) -0.03763(12)
Co1_2 Co -0.64487(4) -0.96774(4) 1.17061(2)
Co1_3 Co 1.35513(4) 0.03226(4) 0.17061(2)
Co1A_2 Co -1.35513(4) -1.03226(4) 0.82939(2)
Co1A_3 Co 0.64487(4) -0.03226(4) -0.17061(2)
Co2_2 Co -1.0000 -1.0000 1.0000
Co3_2 Co -1.5000 -1.5000 1.0000
loop_
_geom_bond_atom_site_label_1
_geom_bond_atom_site_label_2
_geom_bond_site_symmetry_1
_geom_bond_site_symmetry_2
O1 C1 1_555 1_555
O2 C1 1_555 1_555
C1 C9 1_555 1_555
O3 C2 1_555 1_555
O4 C2 1_555 1_555
C2 C3 1_555 1_555
C3 H1 1_555 1_555
O5 C4 1_555 1_555
O6 C4 1_555 1_555
C4 C5 1_555 1_555
C5 C3 1_555 1_555
H2 C5 1_555 1_555
Co1 O8 1_555 1_555
Co2 O2 1_555 1_555
Co3 O3 1_555 1_555
O7 Co3 1_555 1_555
H3 O7 1_555 1_555
C6 O8 1_555 1_555
C7 C5 1_555 1_555
H4 C7 1_555 1_555
C8 C7 1_555 1_555
H5 C8 1_555 1_555
H6 C8 1_555 1_555
C9 C3 1_555 1_555
H7 C9 1_555 1_555
N1 Co1 1_555 1_555
O9 Co1 1_555 1_555
O10 Co3 1_555 1_555
H8 O10 1_555 1_555
C10 C11 1_555 1_555
C11 C12 1_555 1_555
C12 H9 1_555 1_555
C13 N1 1_555 1_555
H10 C13 1_555 1_555
C14 C10 1_555 1_555
H11 C14 1_555 1_555
C15 N1 1_555 1_555
H12 C15 1_555 1_555
C16 C11 1_555 1_555
H13 C16 1_555 1_555
C17 C10 1_555 1_555
H14 C17 1_555 1_555
N1A C13A 1_555 1_555
C10A C11A 1_555 1_555
C11A C12A 1_555 1_555
C12A H9A 1_555 1_555
C13A C12A 1_555 1_555
H10A C13A 1_555 1_555
C14A C17 1_555 1_555
H11A C14A 1_555 1_555
C15A N1A 1_555 1_555
H12A C15A 1_555 1_555
C16A C11A 1_555 1_555
H13A C16A 1_555 1_555
C17A C14 1_555 1_555
H14A C17A 1_555 1_555
O1A C1A 1_555 1_555
O2A C1A 1_555 1_555
C1A C9A 1_555 1_555
O3A C2A 1_555 1_555
O4A C2A 1_555 1_555
C2A C3A 1_555 1_555
C3A H1A 1_555 1_555
O5A C4A 1_555 1_555
O6A C4A 1_555 1_555
C4A C5A 1_555 1_555
C5A C3A 1_555 1_555
H2A C5A 1_555 1_555
Co1A N1A 1_555 1_555
C6A O8A 1_555 1_555
O8A Co1A 1_555 1_555
C7A C5A 1_555 1_555
H4A C7A 1_555 1_555
C8A C7A 1_555 1_555
H5A C8A 1_555 1_555
H6A C8A 1_555 1_555
C9A C3A 1_555 1_555
H7A C9A 1_555 1_555
O9A Co1A 1_555 1_555
O7A Co3 1_555 1_555
H3A O7A 1_555 1_555
O10A Co3 1_555 1_555
H8A O10A 1_555 1_555
O1_2 Co1 1_555 1_555
O1A_2 Co1A 1_555 1_555
O2_2 Co1 1_555 1_555
O2A_2 Co1A 1_555 1_555
O2A_3 Co2 1_555 1_555
O3A_2 Co3 1_555 1_555
O4A_2 Co2 1_555 1_555
O5_2 Co1A 1_555 1_555
O5A_2 Co1 1_555 1_555
O6A_2 Co2 1_555 1_555
Co1_2 O5A 1_555 1_555
Co1_3 O1 1_555 1_555
Co1A_2 O1A 1_555 1_555
Co1A_3 O5 1_555 1_555
Co2_2 O2A 1_555 1_555
Co3_2 O3A 1_555 1_555
O2 Co1_3 1_555 1_555
O4 Co2 1_555 1_555
O6 Co2 1_555 1_555
C6 C7 1_555 1_555
C6 O9 1_555 1_555
C8 C9 1_555 1_555
C12 C13 1_555 1_555
C15 C16 1_555 1_555
C10A C14A 1_555 1_555
C10A C17A 1_555 1_555
C15A C16A 1_555 1_555
O2A Co1A_2 1_555 1_555
O4A Co2_2 1_555 1_555
O6A Co2_2 1_555 1_555
C6A C7A 1_555 1_555
C6A O9A 1_555 1_555
C8A C9A 1_555 1_555
O2A_3 Co1A_3 1_555 1_555

#END
