
#######################################################################
#
#                 Cambridge Crystallographic Data Centre
#                                CCDC 
#
#######################################################################
#
# If this CIF has been generated from an entry in the Cambridge 
# Structural Database, then it will include bibliographic, chemical, 
# crystal, experimental, refinement or atomic coordinate data resulting 
# from the CCDC's data processing and validation procedures.
#
#######################################################################

data_AMUFOF
_chemical_formula_moiety         '(C30 H30 Co4 N4 O20)n'
_symmetry_cell_setting           triclinic
_symmetry_space_group_name_H-M   'P -1'
_symmetry_Int_Tables_number      2
_space_group_name_Hall           '-P 1'
loop_
_symmetry_equiv_pos_site_id
_symmetry_equiv_pos_as_xyz
1 x,y,z
2 -x,-y,-z
_cell_length_a                   9.1004(4)
_cell_length_b                   9.3972(4)
_cell_length_c                   14.9287(6)
_cell_angle_alpha                82.0880(10)
_cell_angle_beta                 85.4580(10)
_cell_angle_gamma                65.3350(10)
_cell_volume                     1148.82
loop_
_atom_site_label
_atom_site_type_symbol
_atom_site_fract_x
_atom_site_fract_y
_atom_site_fract_z
C1 C 0.6148(3) 0.8443(3) 0.19650(15)
C2 C 0.6415(2) 0.6570(2) 0.05434(16)
C3 C 0.2845(2) 0.8485(3) 0.02449(15)
C4 C 0.0658(3) 0.8787(3) 0.17975(16)
C5 C 0.2429(3) 0.7753(3) 0.19123(15)
H1 H 0.2506 0.6811 0.2317
C6 C 0.3391(3) 0.8473(3) 0.23366(16)
H2 H 0.3200 0.8438 0.2986
H3 H 0.3094 0.9560 0.2082
C7 C 0.5185(3) 0.7447(3) 0.21089(15)
H4 H 0.5631 0.6651 0.2628
C8 C 0.5155(2) 0.6569(3) 0.12898(15)
H5 H 0.5477 0.5462 0.1536
C9 C 0.3355(2) 0.7177(3) 0.10195(16)
H6 H 0.3147 0.6294 0.0872
C10 C 0.4453(3) 1.2693(3) 0.23244(18)
H7 H 0.3860 1.2578 0.1882
C11 C 0.3827(3) 1.3628(3) 0.29895(18)
H8 H 0.2741 1.4259 0.3093
C12 C 0.6457(3) 1.2432(3) 0.30987(17)
H9 H 0.7500 1.2113 0.3301
C13 C 0.5055(3) 1.4251(3) 0.42570(17)
C14 C 0.6404(4) 1.4275(6) 0.4547(3)
H10 H 0.7384 1.3791 0.4241
C15 C 0.3651(4) 1.4982(6) 0.4698(3)
H11 H 0.2704 1.4993 0.4498
Co1 Co 0.76592(3) 1.02557(4) 0.16199(2)
Co2 Co 0.5000 1.0000 0.0000
Co3 Co 1.0000 0.5000 0.0000
N1 N 0.6108(2) 1.1933(2) 0.24016(14)
N2 N 0.5117(2) 1.3465(2) 0.34889(14)
O1 O 0.58338(19) 0.95454(19) 0.13101(11)
O2 O 0.72148(19) 0.8257(2) 0.24974(12)
O3 O 0.77931(18) 0.5480(2) 0.06780(12)
O4 O 0.60703(18) 0.76076(18) -0.01195(11)
O5 O 0.24120(19) 0.8241(2) -0.04762(11)
O6 O 0.28554(17) 0.97934(17) 0.03652(11)
O7 O -0.01350(19) 0.8402(2) 0.12934(13)
O8 O -0.0064(2) 0.9992(2) 0.21963(13)
O9 O 1.03097(19) 0.26856(19) 0.05309(12)
H12 H 1.1269 0.1937 0.0267
H13 H 0.9389 0.2515 0.0390
O10 O 1.0842(2) 0.5239(2) 0.12194(13)
H14 H 1.2003 0.4780 0.1203
H15 H 1.0448 0.6338 0.1292
C10A C 0.5547(3) 1.7307(3) 0.76756(18)
H7A H 0.6140 1.7422 0.8118
C11A C 0.6173(3) 1.6372(3) 0.70105(18)
H8A H 0.7259 1.5741 0.6907
C12A C 0.3543(3) 1.7568(3) 0.69013(17)
H9A H 0.2500 1.7887 0.6699
C13A C 0.4945(3) 1.5749(3) 0.57430(17)
C14A C 0.3596(4) 1.5725(6) 0.5453(3)
H10A H 0.2616 1.6209 0.5759
C15A C 0.6349(4) 1.5018(6) 0.5302(3)
H11A H 0.7296 1.5007 0.5502
N1A N 0.3892(2) 1.8067(2) 0.75984(14)
N2A N 0.4883(2) 1.6535(2) 0.65111(14)
C1A C 0.3852(3) 1.1557(3) -0.19650(15)
C2A C 0.3585(2) 1.3430(2) -0.05434(16)
C3A C 0.7155(2) 1.1515(3) -0.02449(15)
C4A C 0.9342(3) 1.1213(3) -0.17975(16)
C5A C 0.7571(3) 1.2247(3) -0.19123(15)
H1A H 0.7494 1.3189 -0.2317
C6A C 0.6609(3) 1.1527(3) -0.23366(16)
H2A H 0.6800 1.1562 -0.2986
H3A H 0.6906 1.0440 -0.2082
C7A C 0.4815(3) 1.2553(3) -0.21089(15)
H4A H 0.4369 1.3349 -0.2628
C8A C 0.4845(2) 1.3431(3) -0.12898(15)
H5A H 0.4523 1.4538 -0.1536
C9A C 0.6645(2) 1.2823(3) -0.10195(16)
H6A H 0.6853 1.3706 -0.0872
Co1A Co 0.23408(3) 0.97443(4) -0.16199(2)
O1A O 0.41662(19) 1.04546(19) -0.13101(11)
O2A O 0.27852(19) 1.1743(2) -0.24974(12)
O3A O 0.22069(18) 1.4520(2) -0.06780(12)
O4A O 0.39297(18) 1.23924(18) 0.01195(11)
O5A O 0.75880(19) 1.1759(2) 0.04762(11)
O6A O 0.71446(17) 1.02066(17) -0.03652(11)
O7A O 1.01350(19) 1.1598(2) -0.12934(13)
O8A O 1.0064(2) 1.0008(2) -0.21963(13)
O9A O 0.96903(19) 0.73144(19) -0.05309(12)
H12A H 0.8731 0.8063 -0.0267
H13A H 1.0611 0.7485 -0.0390
O10A O 0.9158(2) 0.4761(2) -0.12194(13)
H14A H 0.7997 0.5220 -0.1203
H15A H 0.9552 0.3662 -0.1292
Co1_2 Co -0.23408(3) 1.02557(4) 0.16199(2)
Co1A_2 Co 0.23408(3) 1.97443(4) 0.83801(2)
Co1A_3 Co 1.23408(3) 0.97443(4) -0.16199(2)
Co3_2 Co -0.0000 1.5000 0.0000
N1A_2 N 0.3892(2) 0.8067(2) -0.24016(14)
O3A_2 O 1.22069(18) 0.4520(2) -0.06780(12)
O7_2 O 0.98650(19) 0.8402(2) 0.12934(13)
O7A_2 O 0.01350(19) 1.1598(2) -0.12934(13)
O8_2 O 0.9936(2) 0.9992(2) 0.21963(13)
O8A_2 O 0.0064(2) 1.0008(2) -0.21963(13)
loop_
_geom_bond_atom_site_label_1
_geom_bond_atom_site_label_2
_geom_bond_site_symmetry_1
_geom_bond_site_symmetry_2
C1 C7 1_555 1_555
C2 C8 1_555 1_555
C3 C9 1_555 1_555
C4 C5 1_555 1_555
C5 H1 1_555 1_555
C6 C5 1_555 1_555
H2 C6 1_555 1_555
H3 C6 1_555 1_555
C7 C6 1_555 1_555
H4 C7 1_555 1_555
C8 C7 1_555 1_555
H5 C8 1_555 1_555
C9 C5 1_555 1_555
H6 C9 1_555 1_555
C10 H7 1_555 1_555
C11 C10 1_555 1_555
H8 C11 1_555 1_555
C12 H9 1_555 1_555
C13 C14 1_555 1_555
C14 H10 1_555 1_555
C15 C13 1_555 1_555
H11 C15 1_555 1_555
Co1 N1 1_555 1_555
Co2 O1 1_555 1_555
Co3 O3 1_555 1_555
N1 C10 1_555 1_555
N2 C11 1_555 1_555
O1 C1 1_555 1_555
O2 C1 1_555 1_555
O3 C2 1_555 1_555
O4 C2 1_555 1_555
O5 C3 1_555 1_555
O6 C3 1_555 1_555
O7 C4 1_555 1_555
O8 C4 1_555 1_555
O9 Co3 1_555 1_555
H12 O9 1_555 1_555
H13 O9 1_555 1_555
O10 Co3 1_555 1_555
H14 O10 1_555 1_555
H15 O10 1_555 1_555
C10A H7A 1_555 1_555
C11A C10A 1_555 1_555
H8A C11A 1_555 1_555
C12A H9A 1_555 1_555
C13A C14A 1_555 1_555
C14A C15 1_555 1_555
H10A C14A 1_555 1_555
C15A C14 1_555 1_555
H11A C15A 1_555 1_555
N1A C10A 1_555 1_555
N2A C11A 1_555 1_555
C1A C7A 1_555 1_555
C2A C8A 1_555 1_555
C3A C9A 1_555 1_555
C4A C5A 1_555 1_555
C5A H1A 1_555 1_555
C6A C5A 1_555 1_555
H2A C6A 1_555 1_555
H3A C6A 1_555 1_555
C7A C6A 1_555 1_555
H4A C7A 1_555 1_555
C8A C7A 1_555 1_555
H5A C8A 1_555 1_555
C9A C5A 1_555 1_555
H6A C9A 1_555 1_555
Co1A O5 1_555 1_555
O1A Co2 1_555 1_555
O2A C1A 1_555 1_555
O3A C2A 1_555 1_555
O4A Co2 1_555 1_555
O5A Co1 1_555 1_555
O6A Co2 1_555 1_555
O7A C4A 1_555 1_555
O8A C4A 1_555 1_555
O9A Co3 1_555 1_555
H12A O9A 1_555 1_555
H13A O9A 1_555 1_555
O10A Co3 1_555 1_555
H14A O10A 1_555 1_555
H15A O10A 1_555 1_555
Co1_2 O7 1_555 1_555
Co1A_2 N1A 1_555 1_555
Co1A_3 O7A 1_555 1_555
Co3_2 O3A 1_555 1_555
N1A_2 Co1A 1_555 1_555
O3A_2 Co3 1_555 1_555
O7_2 Co1 1_555 1_555
O7A_2 Co1A 1_555 1_555
O8_2 Co1 1_555 1_555
O8A_2 Co1A 1_555 1_555
C8 C9 1_555 1_555
C12 N1 1_555 1_555
C12 N2 1_555 1_555
C13 N2 1_555 1_555
Co1 O1 1_555 1_555
Co1 O2 1_555 1_555
Co2 O4 1_555 1_555
Co2 O6 1_555 1_555
O8 Co1_2 1_555 1_555
C12A N1A 1_555 1_555
C12A N2A 1_555 1_555
C13A C15A 1_555 1_555
C13A N2A 1_555 1_555
C1A O1A 1_555 1_555
C2A O4A 1_555 1_555
C3A O5A 1_555 1_555
C3A O6A 1_555 1_555
C8A C9A 1_555 1_555
Co1A O1A 1_555 1_555
Co1A O2A 1_555 1_555
O8A Co1A_3 1_555 1_555

#END
