
#######################################################################
#
#                 Cambridge Crystallographic Data Centre
#                                CCDC 
#
#######################################################################
#
# If this CIF has been generated from an entry in the Cambridge 
# Structural Database, then it will include bibliographic, chemical, 
# crystal, experimental, refinement or atomic coordinate data resulting 
# from the CCDC's data processing and validation procedures.
#
#######################################################################

data_PIHJOH
_chemical_formula_moiety         '(C24 H16 Mn1 N2 O4)n'
_symmetry_cell_setting           monoclinic
_symmetry_space_group_name_H-M   'C 2/c'
_symmetry_Int_Tables_number      15
_space_group_name_Hall           '-C 2yc'
loop_
_symmetry_equiv_pos_site_id
_symmetry_equiv_pos_as_xyz
1 x,y,z
2 -x,y,1/2-z
3 1/2+x,1/2+y,z
4 1/2-x,1/2+y,1/2-z
5 -x,-y,-z
6 x,-y,1/2+z
7 1/2-x,1/2-y,-z
8 1/2+x,1/2-y,1/2+z
_cell_length_a                   19.627(5)
_cell_length_b                   14.985(5)
_cell_length_c                   8.581(5)
_cell_angle_alpha                90
_cell_angle_beta                 109.527(5)
_cell_angle_gamma                90
_cell_volume                     2378.61
loop_
_atom_site_label
_atom_site_type_symbol
_atom_site_fract_x
_atom_site_fract_y
_atom_site_fract_z
Mn1 Mn 0.5000 0.42153(3) 0.2500
O1 O 0.58475(8) 0.59683(12) 0.6435(2)
O2 O 0.56323(9) 0.52327(12) 0.4072(2)
N1 N 0.93489(10) 0.81689(14) 1.0585(2)
C1 C 0.68060(13) 0.58137(15) 0.5377(3)
C2 C 0.60348(11) 0.56454(14) 0.5287(3)
C3 C 0.72633(12) 0.63318(16) 0.6634(3)
H1 H 0.7095 0.6556 0.7448
C4 C 0.79701(13) 0.65253(19) 0.6708(3)
C5 C 0.84470(13) 0.70804(18) 0.8045(3)
C6 C 0.88811(15) 0.7590(2) 1.0864(3)
H2 H 0.8863 0.7549 1.1931
C7 C 0.84253(15) 0.7051(2) 0.9660(3)
H3 H 0.8105 0.6669 0.9919
C8 C 0.93768(14) 0.81853(19) 0.9051(3)
H4 H 0.9702 0.8573 0.8825
C9 C 0.89477(15) 0.7656(2) 0.7781(3)
H5 H 0.8997 0.7687 0.6741
C10 C 0.70568(16) 0.5461(3) 0.4185(4)
H6 H 0.6758 0.5102 0.3351
C11 C 0.7757(2) 0.5643(3) 0.4234(6)
C12 C 0.82053(18) 0.6184(3) 0.5465(5)
H7 H 0.8667 0.6320 0.5461
H8 H 0.794(3) 0.539(3) 0.341(6)
O1A O 0.41525(8) 0.59683(12) -0.1435(2)
O2A O 0.43677(9) 0.52327(12) 0.0928(2)
N1A N 0.06511(10) 0.81689(14) -0.5585(2)
C1A C 0.31940(13) 0.58137(15) -0.0377(3)
C2A C 0.39652(11) 0.56454(14) -0.0287(3)
C3A C 0.27367(12) 0.63318(16) -0.1634(3)
H1A H 0.2905 0.6556 -0.2448
C4A C 0.20299(13) 0.65253(19) -0.1708(3)
C5A C 0.15530(13) 0.70804(18) -0.3045(3)
C6A C 0.11189(15) 0.7590(2) -0.5864(3)
H2A H 0.1137 0.7549 -0.6931
C7A C 0.15747(15) 0.7051(2) -0.4660(3)
H3A H 0.1895 0.6669 -0.4919
C8A C 0.06232(14) 0.81853(19) -0.4051(3)
H4A H 0.0298 0.8573 -0.3825
C9A C 0.10523(15) 0.7656(2) -0.2781(3)
H5A H 0.1003 0.7687 -0.1741
C10A C 0.29432(16) 0.5461(3) 0.0815(4)
H6A H 0.3242 0.5102 0.1649
C11A C 0.2243(2) 0.5643(3) 0.0766(6)
C12A C 0.17947(18) 0.6184(3) -0.0465(5)
H7A H 0.1333 0.6320 -0.0461
H8A H 0.206(3) 0.539(3) 0.159(6)
Mn1B Mn -0.0000 0.92153(3) -0.7500
Mn1B_2 Mn 1.0000 0.92153(3) 1.2500
Mn1D Mn 0.5000 0.57847(3) -0.2500
Mn1D_2 Mn 0.5000 0.57847(3) 0.7500
O1D O 0.41525(8) 0.40317(12) 0.3565(2)
O1E O 0.58475(8) 0.40317(12) 0.1435(2)
N1B N 0.43489(10) 0.31689(14) 0.0585(2)
N1C N 0.56511(10) 0.31689(14) 0.4415(2)
loop_
_geom_bond_atom_site_label_1
_geom_bond_atom_site_label_2
_geom_bond_site_symmetry_1
_geom_bond_site_symmetry_2
Mn1 O2 1_555 1_555
O1 C2 1_555 1_555
O2 C2 1_555 1_555
N1 C6 1_555 1_555
C1 C2 1_555 1_555
C3 C1 1_555 1_555
H1 C3 1_555 1_555
C4 C3 1_555 1_555
C5 C4 1_555 1_555
C6 H2 1_555 1_555
C7 C5 1_555 1_555
H3 C7 1_555 1_555
C8 N1 1_555 1_555
H4 C8 1_555 1_555
C9 C5 1_555 1_555
H5 C9 1_555 1_555
C10 C1 1_555 1_555
H6 C10 1_555 1_555
C11 C10 1_555 1_555
C12 C4 1_555 1_555
H7 C12 1_555 1_555
H8 C11 1_555 1_555
O1A C2A 1_555 1_555
O2A Mn1 1_555 1_555
N1A C6A 1_555 1_555
C1A C2A 1_555 1_555
C2A O2A 1_555 1_555
C3A C1A 1_555 1_555
H1A C3A 1_555 1_555
C4A C3A 1_555 1_555
C5A C4A 1_555 1_555
C6A H2A 1_555 1_555
C7A C5A 1_555 1_555
H3A C7A 1_555 1_555
C8A N1A 1_555 1_555
H4A C8A 1_555 1_555
C9A C5A 1_555 1_555
H5A C9A 1_555 1_555
C10A C1A 1_555 1_555
H6A C10A 1_555 1_555
C11A C10A 1_555 1_555
C12A C4A 1_555 1_555
H7A C12A 1_555 1_555
H8A C11A 1_555 1_555
Mn1B N1A 1_555 1_555
Mn1B_2 N1 1_555 1_555
Mn1D O1A 1_555 1_555
Mn1D_2 O1 1_555 1_555
O1D Mn1 1_555 1_555
O1E Mn1 1_555 1_555
N1B Mn1 1_555 1_555
N1C Mn1 1_555 1_555
C6 C7 1_555 1_555
C8 C9 1_555 1_555
C11 C12 1_555 1_555
C6A C7A 1_555 1_555
C8A C9A 1_555 1_555
C11A C12A 1_555 1_555

#END
