
#######################################################################
#
#                 Cambridge Crystallographic Data Centre
#                                CCDC 
#
#######################################################################
#
# If this CIF has been generated from an entry in the Cambridge 
# Structural Database, then it will include bibliographic, chemical, 
# crystal, experimental, refinement or atomic coordinate data resulting 
# from the CCDC's data processing and validation procedures.
#
#######################################################################

data_JUMCUR
_chemical_formula_moiety         '(C12 H13 N1 O5 S1 V1)n'
_symmetry_cell_setting           orthorhombic
_symmetry_space_group_name_H-M   'P 21 21 21'
_symmetry_Int_Tables_number      19
_space_group_name_Hall           'P 2ac 2ab'
loop_
_symmetry_equiv_pos_site_id
_symmetry_equiv_pos_as_xyz
1 x,y,z
2 1/2-x,-y,1/2+z
3 -x,1/2+y,1/2-z
4 1/2+x,1/2-y,-z
_cell_length_a                   6.798(3)
_cell_length_b                   13.285(5)
_cell_length_c                   16.457(6)
_cell_angle_alpha                90
_cell_angle_beta                 90
_cell_angle_gamma                90
_cell_volume                     1486.26
loop_
_atom_site_label
_atom_site_type_symbol
_atom_site_fract_x
_atom_site_fract_y
_atom_site_fract_z
C1 C 0.7747(12) 0.6095(7) -0.0955(5)
C2 C 0.7592(12) 0.5349(7) -0.1635(5)
C3 C 0.9286(14) 0.4897(8) -0.1935(6)
H1 H 1.0493 0.5023 -0.1689
C4 C 0.5784(14) 0.5126(8) -0.1976(6)
H2 H 0.4644 0.5396 -0.1752
C5 C 0.5662(14) 0.4507(8) -0.2644(6)
H3 H 0.4444 0.4375 -0.2878
C6 C 0.9177(14) 0.4255(8) -0.2601(6)
H4 H 1.0309 0.3947 -0.2798
C7 C 0.7370(11) 0.4075(7) -0.2974(5)
C8 C 0.7258(11) 0.3458(7) -0.3726(5)
O1 O 1.2837(7) 0.6896(4) 0.0096(3)
O2 O 0.8834(8) 0.3138(5) -0.4015(3)
O3 O 0.6146(8) 0.6464(5) -0.0706(4)
O4 O 0.5566(9) 0.3307(5) -0.4018(3)
O5 O 0.9442(9) 0.6320(5) -0.0702(3)
V1 V 1.06409(15) 0.73509(8) 0.00142(8)
O1C O 0.7837(7) 0.8104(4) -0.0096(3)
O2B O 1.1166(8) 0.8138(5) -0.0985(3)
O3C O 1.1146(8) 0.8536(5) 0.0706(4)
O4A O 0.9434(9) 0.6693(5) 0.0982(3)
V1A V 0.43591(15) 0.26491(8) -0.49858(8)
V1B V 0.93591(15) 0.23509(8) -0.50142(8)
V1C V 0.56409(15) 0.76491(8) -0.00142(8)
V1C_2 V 1.56409(15) 0.76491(8) -0.00142(8)
C9 C 0.091(3) 0.393(2) 0.0552(13)
H5 H 0.0890 0.4591 0.0800
H6 H -0.0337 0.3821 0.0277
C10 C 0.123(3) 0.313(2) 0.1184(16)
H7 H 0.1518 0.2490 0.0933
H8 H 0.0080 0.3061 0.1528
C11 C 0.491(3) 0.3475(19) 0.1209(14)
H9 H 0.5987 0.3655 0.1567
H10 H 0.5144 0.2802 0.1003
C12 C 0.479(3) 0.4201(15) 0.0525(11)
H11 H 0.6025 0.4213 0.0232
H12 H 0.4532 0.4872 0.0731
N1 N 0.298(2) 0.3504(16) 0.1673(12)
H13 H 0.312(4) 0.307(4) 0.2076(18)
S1 S 0.2866(17) 0.3828(12) -0.0136(8)
loop_
_geom_bond_atom_site_label_1
_geom_bond_atom_site_label_2
_geom_bond_site_symmetry_1
_geom_bond_site_symmetry_2
C1 C2 1_555 1_555
C2 C3 1_555 1_555
C3 H1 1_555 1_555
C4 C2 1_555 1_555
H2 C4 1_555 1_555
C5 C4 1_555 1_555
H3 C5 1_555 1_555
C6 C3 1_555 1_555
H4 C6 1_555 1_555
C7 C5 1_555 1_555
C8 C7 1_555 1_555
O1 V1 1_555 1_555
O2 C8 1_555 1_555
O3 C1 1_555 1_555
O4 C8 1_555 1_555
O5 C1 1_555 1_555
V1 O5 1_555 1_555
C9 H5 1_555 1_555
H6 C9 1_555 1_555
C10 C9 1_555 1_555
H7 C10 1_555 1_555
H8 C10 1_555 1_555
C11 H9 1_555 1_555
H10 C11 1_555 1_555
C12 C11 1_555 1_555
H11 C12 1_555 1_555
H12 C12 1_555 1_555
N1 C10 1_555 1_555
H13 N1 1_555 1_555
S1 C9 1_555 1_555
O1C V1 1_555 1_555
O2B V1 1_555 1_555
O3C V1 1_555 1_555
O4A V1 1_555 1_555
V1A O4 1_555 1_555
V1B O2 1_555 1_555
V1C O3 1_555 1_555
V1C_2 O1 1_555 1_555
C6 C7 1_555 1_555
C11 N1 1_555 1_555
C12 S1 1_555 1_555
O1C V1C 1_555 1_555

#END
