
#######################################################################
#
#                 Cambridge Crystallographic Data Centre
#                                CCDC 
#
#######################################################################
#
# If this CIF has been generated from an entry in the Cambridge 
# Structural Database, then it will include bibliographic, chemical, 
# crystal, experimental, refinement or atomic coordinate data resulting 
# from the CCDC's data processing and validation procedures.
#
#######################################################################

data_JUMDEC
_chemical_formula_moiety         '(C12 H12 O5 S1 V1)n'
_symmetry_cell_setting           orthorhombic
_symmetry_space_group_name_H-M   'P 21 21 21'
_symmetry_Int_Tables_number      19
_space_group_name_Hall           'P 2ac 2ab'
loop_
_symmetry_equiv_pos_site_id
_symmetry_equiv_pos_as_xyz
1 x,y,z
2 1/2-x,-y,1/2+z
3 -x,1/2+y,1/2-z
4 1/2+x,1/2-y,-z
_cell_length_a                   6.8055(7)
_cell_length_b                   13.4475(13)
_cell_length_c                   16.1809(16)
_cell_angle_alpha                90
_cell_angle_beta                 90
_cell_angle_gamma                90
_cell_volume                     1480.83
loop_
_atom_site_label
_atom_site_type_symbol
_atom_site_fract_x
_atom_site_fract_y
_atom_site_fract_z
_atom_site_U_iso_or_equiv
_atom_site_thermal_displace_type
C1 C 0.2243(8) 0.6096(4) 0.4043(3) 0.0223 Uani
C2 C 0.2402(8) 0.5343(4) 0.3379(3) 0.0263 Uani
C3 C 0.4192(9) 0.5118(5) 0.3021(5) 0.0430 Uani
H1 H 0.5331 0.5410 0.3225 0.0520 Uiso
C4 C 0.4310(9) 0.4483(5) 0.2381(4) 0.0433 Uani
H2 H 0.5532 0.4330 0.2158 0.0520 Uiso
C5 C 0.0714(9) 0.4893(5) 0.3071(4) 0.0417 Uani
H3 H -0.0499 0.5022 0.3312 0.0500 Uiso
C6 C 0.0845(9) 0.4253(5) 0.2405(4) 0.0383 Uani
H4 H -0.0288 0.3958 0.2198 0.0460 Uiso
C7 C 0.2623(8) 0.4049(4) 0.2047(3) 0.0233 Uani
C8 C 0.2769(8) 0.3443(4) 0.1295(3) 0.0220 Uani
O1 O 0.2835(4) 0.1898(2) -0.0100(2) 0.0188 Uani
O2 O 0.1157(5) 0.3126(3) 0.0996(2) 0.0241 Uani
O3 O 0.0564(6) 0.6321(3) 0.4302(3) 0.0263 Uani
O4 O 0.4428(6) 0.3284(3) 0.0991(2) 0.0272 Uani
O5 O 0.3845(5) 0.6473(3) 0.4286(3) 0.0254 Uani
V1 V 0.06454(10) 0.23546(5) -0.00148(7) 0.0149 Uani
O1C O -0.2165(4) 0.3102(2) 0.0100(2) 0.0188 Uani
O3B O -0.0564(6) 0.1321(3) 0.0698(3) 0.0263 Uani
O4C O -0.0572(6) 0.1716(3) -0.0991(2) 0.0272 Uani
O5A O 0.1155(5) 0.3527(3) -0.0714(3) 0.0254 Uani
V1A V 0.43546(10) 0.76454(5) 0.49852(7) 0.0149 Uani
V1B V -0.06454(10) 0.73546(5) 0.50148(7) 0.0149 Uani
V1C V 0.56454(10) 0.26454(5) 0.00148(7) 0.0149 Uani
C9 C 0.669(4) 0.4185(16) 0.5026(9) 0.2760 Uani
H5 H 0.6655 0.3674 0.4604 0.3320 Uiso
H6 H 0.6780 0.4825 0.4752 0.3320 Uiso
C10 C 0.847(3) 0.4036(15) 0.5562(11) 0.3213 Uani
H7 H 0.8977 0.4668 0.5756 0.3840 Uiso
H8 H 0.9500 0.3693 0.5260 0.3840 Uiso
C11 C 0.482(3) 0.4144(17) 0.5522(13) 0.3133 Uani
H9 H 0.4629 0.4759 0.5826 0.3730 Uiso
H10 H 0.3695 0.4043 0.5162 0.3730 Uiso
S1 S 0.760(3) 0.3283(10) 0.6422(8) 0.4723 Uani
C12 C 0.504(2) 0.3285(16) 0.6106(14) 0.3233 Uani
H11 H 0.4705 0.2665 0.5833 0.3880 Uiso
H12 H 0.4186 0.3368 0.6582 0.3880 Uiso
loop_
_atom_site_aniso_label
_atom_site_aniso_U_11
_atom_site_aniso_U_22
_atom_site_aniso_U_33
_atom_site_aniso_U_23
_atom_site_aniso_U_13
_atom_site_aniso_U_12
C1 0.017 0.028 0.022 -0.006 -0.001 -0.002
C2 0.018(2) 0.034(3) 0.027(3) -0.016(3) -0.001(2) 0.002(2)
C3 0.013(3) 0.070(5) 0.046(4) -0.028(4) -0.004(3) -0.005(3)
C4 0.015(2) 0.069(5) 0.046(4) -0.033(4) 0.004(3) 0.004(3)
C5 0.020(3) 0.058(4) 0.047(4) -0.035(4) 0.004(3) -0.006(3)
C6 0.017(3) 0.055(4) 0.043(4) -0.027(3) -0.001(3) -0.004(3)
C7 0.020(2) 0.028(3) 0.022(3) -0.009(2) -0.002(2) -0.003(2)
C8 0.014(2) 0.032(3) 0.020(3) -0.001(2) 0.003(2) 0.002(2)
O1 0.0167(15) 0.0188(17) 0.0210(19) -0.0017(17) 0.0004(16) 0.0020(13)
O2 0.0199(19) 0.033(2) 0.0194(19) -0.0107(18) -0.0006(15) 0.0015(17)
O3 0.0189 0.031 0.029 -0.0128 0.0017 0.0008
O4 0.0186 0.04 0.023 -0.017 -0.0018 -0.0019
O5 0.0171 0.031 0.028 -0.0175 -0.0001 0.0007
V1 0.0125(3) 0.0187(4) 0.0135(3) -0.0005(5) 0.0005(5) -0.0003(3)
O1C 0.0167 0.0188 0.021 -0.0017 -0.0004 -0.002
O3B 0.0189 0.031 0.029 0.0128 0.0017 -0.0008
O4C 0.0186 0.04 0.023 -0.017 0.0018 0.0019
O5A 0.0171 0.031 0.028 0.0175 0.0001 0.0007
V1A 0.0125 0.0187 0.0135 0.0005 -0.0005 -0.0003
V1B 0.0125 0.0187 0.0135 0.0005 0.0005 0.0003
V1C 0.0125 0.0187 0.0135 -0.0005 -0.0005 0.0003
C9 0.45(4) 0.24(2) 0.138(14) -0.076(12) -0.009(17) 0.08(2)
C10 0.61(3) 0.144(18) 0.21(2) -0.010(16) -0.17(2) -0.03(3)
C11 0.61(4) 0.20(2) 0.13(2) 0.011(15) 0.11(2) 0.13(3)
S1 0.69(3) 0.356(16) 0.371(15) 0.143(13) -0.14(2) -0.05(2)
C12 0.64(3) 0.16(2) 0.17(2) -0.014(14) -0.04(3) 0.05(3)
loop_
_geom_bond_atom_site_label_1
_geom_bond_atom_site_label_2
_geom_bond_site_symmetry_1
_geom_bond_site_symmetry_2
C1 C2 1_555 1_555
C2 C3 1_555 1_555
C3 H1 1_555 1_555
C4 C3 1_555 1_555
H2 C4 1_555 1_555
C5 C2 1_555 1_555
H3 C5 1_555 1_555
C6 C5 1_555 1_555
H4 C6 1_555 1_555
C7 C4 1_555 1_555
C8 C7 1_555 1_555
O1 V1 1_555 1_555
O2 C8 1_555 1_555
O3 C1 1_555 1_555
O4 C8 1_555 1_555
O5 C1 1_555 1_555
V1 O2 1_555 1_555
C9 H5 1_555 1_555
H6 C9 1_555 1_555
C10 C9 1_555 1_555
H7 C10 1_555 1_555
H8 C10 1_555 1_555
C11 C9 1_555 1_555
H9 C11 1_555 1_555
H10 C11 1_555 1_555
S1 C10 1_555 1_555
C12 C11 1_555 1_555
H11 C12 1_555 1_555
H12 C12 1_555 1_555
O1C V1 1_555 1_555
O3B V1 1_555 1_555
O4C V1 1_555 1_555
O5A V1 1_555 1_555
V1A O5 1_555 1_555
V1B O3 1_555 1_555
V1C O1 1_555 1_555
C6 C7 1_555 1_555
O4 V1C 1_555 1_555
S1 C12 1_555 1_555

#END
