
#######################################################################
#
#                 Cambridge Crystallographic Data Centre
#                                CCDC 
#
#######################################################################
#
# If this CIF has been generated from an entry in the Cambridge 
# Structural Database, then it will include bibliographic, chemical, 
# crystal, experimental, refinement or atomic coordinate data resulting 
# from the CCDC's data processing and validation procedures.
#
#######################################################################

data_KAQBOW
_chemical_formula_moiety         '(C33 H20 F6 N2 O4 Zn1)n'
_symmetry_cell_setting           orthorhombic
_symmetry_space_group_name_H-M   'P 21 21 2'
_symmetry_Int_Tables_number      18
_space_group_name_Hall           'P 2 2ab'
loop_
_symmetry_equiv_pos_site_id
_symmetry_equiv_pos_as_xyz
1 x,y,z
2 -x,-y,z
3 1/2-x,1/2+y,-z
4 1/2+x,1/2-y,-z
_cell_length_a                   21.923(4)
_cell_length_b                   23.594(4)
_cell_length_c                   7.3042(13)
_cell_angle_alpha                90
_cell_angle_beta                 90
_cell_angle_gamma                90
_cell_volume                     3778.11
loop_
_atom_site_label
_atom_site_type_symbol
_atom_site_fract_x
_atom_site_fract_y
_atom_site_fract_z
_atom_site_U_iso_or_equiv
_atom_site_thermal_displace_type
Zn1 Zn 0.291077(17) 0.821800(14) 0.51679(6) 0.0501 Uani
C1 C 0.60446(19) 0.63167(16) 0.8420(6) 0.0633 Uani
C2 C 0.6110(2) 0.5874(2) 0.7243(7) 0.0983 Uani
H1 H 0.6441 0.5630 0.7375 0.1180 Uiso
C3 C 0.5704(3) 0.5781(2) 0.5887(8) 0.1207 Uani
H2 H 0.5757 0.5475 0.5104 0.1450 Uiso
C4 C 0.5207(2) 0.6141(2) 0.5648(7) 0.1033 Uani
H3 H 0.4931 0.6075 0.4705 0.1240 Uiso
C5 C 0.51233(19) 0.65921(16) 0.6803(6) 0.0653 Uani
C6 C 0.55416(18) 0.66681(15) 0.8200(6) 0.0627 Uani
H4 H 0.5484 0.6965 0.9020 0.0750 Uiso
C7 C 0.64752(16) 0.64159(13) 0.9951(6) 0.0592 Uani
C8 C 0.70968(17) 0.62827(13) 0.9748(5) 0.0593 Uani
H5 H 0.7239 0.6126 0.8660 0.0710 Uiso
C9 C 0.74894(17) 0.63842(15) 1.1153(6) 0.0567 Uani
H6 H 0.7897 0.6287 1.0999 0.0680 Uiso
C10 C 0.67253(17) 0.67423(17) 1.2911(6) 0.0627 Uani
H7 H 0.6592 0.6907 1.3995 0.0750 Uiso
C11 C 0.63029(18) 0.66400(16) 1.1562(5) 0.0613 Uani
H8 H 0.5895 0.6726 1.1765 0.0740 Uiso
C12 C 0.46086(18) 0.69804(16) 0.6518(6) 0.0600 Uani
C13 C 0.4396(2) 0.7095(2) 0.4820(7) 0.0867 Uani
H9 H 0.4582 0.6927 0.3813 0.1040 Uiso
C14 C 0.3912(2) 0.7452(2) 0.4552(7) 0.0903 Uani
H10 H 0.3779 0.7513 0.3358 0.1080 Uiso
C15 C 0.3820(2) 0.76208(19) 0.7557(7) 0.0847 Uani
H11 H 0.3623 0.7790 0.8545 0.1020 Uiso
C16 C 0.4323(2) 0.7268(2) 0.7880(8) 0.0967 Uani
H12 H 0.4467 0.7229 0.9071 0.1160 Uiso
C17 C 0.05580(16) 0.62257(14) -0.1349(5) 0.0501 Uani
C18 C 0.10501(15) 0.65681(12) -0.0352(5) 0.0482 Uani
C19 C 0.15902(17) 0.66837(14) -0.1248(5) 0.0567 Uani
H13 H 0.1646 0.6547 -0.2430 0.0680 Uiso
C20 C 0.20483(18) 0.69951(13) -0.0445(5) 0.0555 Uani
H14 H 0.2405 0.7068 -0.1095 0.0670 Uiso
C21 C 0.19857(18) 0.72001(13) 0.1307(5) 0.0532 Uani
C22 C 0.14452(18) 0.70939(14) 0.2199(5) 0.0571 Uani
H15 H 0.1388 0.7236 0.3374 0.0680 Uiso
C23 C 0.09893(16) 0.67835(15) 0.1394(5) 0.0571 Uani
H16 H 0.0631 0.6717 0.2041 0.0690 Uiso
C24 C 0.24897(18) 0.75338(14) 0.2198(6) 0.0560 Uani
C25 C 0.08299(16) 0.57149(13) -0.2367(5) 0.0498 Uani
C26 C 0.06563(18) 0.55397(15) -0.4096(5) 0.0560 Uani
H17 H 0.0372 0.5752 -0.4748 0.0670 Uiso
C27 C 0.08945(16) 0.50597(13) -0.4866(6) 0.0563 Uani
H18 H 0.0768 0.4952 -0.6030 0.0680 Uiso
C28 C 0.13162(16) 0.47332(13) -0.3962(5) 0.0501 Uani
C29 C 0.14877(17) 0.49051(14) -0.2221(5) 0.0580 Uani
H19 H 0.1766 0.4687 -0.1568 0.0700 Uiso
C30 C 0.12570(17) 0.53880(14) -0.1435(5) 0.0563 Uani
H20 H 0.1387 0.5497 -0.0275 0.0670 Uiso
C31 C 0.15582(16) 0.41977(14) -0.4817(7) 0.0565 Uani
C32 C 0.00715(18) 0.59875(15) -0.0054(6) 0.0640 Uani
C33 C 0.0239(2) 0.66553(16) -0.2633(6) 0.0657 Uani
F1 F 0.05973(12) 0.67956(10) -0.4018(3) 0.0785 Uani
F2 F 0.00948(12) 0.71303(9) -0.1785(3) 0.0798 Uani
F3 F -0.02784(11) 0.64522(10) -0.3351(4) 0.0811 Uani
F4 F -0.02846(10) 0.63863(10) 0.0693(3) 0.0820 Uani
F5 F -0.03006(11) 0.56278(10) -0.0877(3) 0.0840 Uani
F6 F 0.03249(11) 0.57016(9) 0.1374(3) 0.0774 Uani
N1 N 0.36201(15) 0.77171(12) 0.5899(4) 0.0550 Uani
N2 N 0.73191(13) 0.66175(11) 1.2751(4) 0.0517 Uani
O1 O 0.29758(13) 0.75924(11) 0.1396(4) 0.0714 Uani
O2 O 0.23589(11) 0.77367(10) 0.3767(4) 0.0617 Uani
O3 O 0.18998(11) 0.38915(10) -0.3779(4) 0.0644 Uani
O4 O 0.14289(14) 0.40711(12) -0.6360(4) 0.0751 Uani
Zn1B Zn 0.208923(17) 0.321800(14) -0.51679(6) 0.0501 Uani
Zn1C Zn 0.791077(17) 0.678200(14) 1.48321(6) 0.0501 Uani
N2C N 0.23191(13) 0.83825(11) 0.7249(4) 0.0517 Uani
O3B O 0.31002(11) 0.88915(10) 0.3779(4) 0.0644 Uani
loop_
_atom_site_aniso_label
_atom_site_aniso_U_11
_atom_site_aniso_U_22
_atom_site_aniso_U_33
_atom_site_aniso_U_23
_atom_site_aniso_U_13
_atom_site_aniso_U_12
Zn1 0.0467(2) 0.04655(18) 0.0571(3) 0.0024(2) -0.0021(2) -0.00812(17)
C1 0.071(3) 0.057(2) 0.062(3) -0.003(2) -0.008(2) 0.010(2)
C2 0.096(4) 0.094(3) 0.105(4) -0.037(3) -0.045(3) 0.038(3)
C3 0.141(5) 0.106(4) 0.115(5) -0.050(4) -0.045(4) 0.064(4)
C4 0.103(4) 0.106(3) 0.101(4) -0.031(3) -0.047(3) 0.033(3)
C5 0.065(3) 0.060(2) 0.071(3) -0.010(2) -0.018(2) 0.0084(19)
C6 0.062(2) 0.051(2) 0.075(3) -0.008(2) -0.004(2) 0.0063(18)
C7 0.058(2) 0.0497(17) 0.070(3) 0.003(2) -0.011(2) 0.0050(15)
C8 0.061(2) 0.0618(19) 0.055(2) -0.008(2) 0.001(2) 0.0120(18)
C9 0.045(2) 0.061(2) 0.064(3) 0.006(2) 0.007(2) 0.0135(17)
C10 0.054(2) 0.070(2) 0.064(3) -0.008(2) 0.008(2) 0.010(2)
C11 0.050(2) 0.077(3) 0.057(2) -0.009(2) -0.002(2) 0.017(2)
C12 0.060(3) 0.065(2) 0.055(3) -0.005(2) -0.005(2) 0.0009(19)
C13 0.074(3) 0.120(3) 0.066(3) 0.002(3) -0.005(3) 0.032(3)
C14 0.087(3) 0.120(4) 0.064(3) 0.015(3) 0.001(3) 0.027(3)
C15 0.086(3) 0.099(3) 0.069(2) -0.012(3) -0.019(3) 0.028(3)
C16 0.103(4) 0.101(3) 0.086(4) -0.028(3) -0.046(3) 0.031(3)
C17 0.050(2) 0.0474(18) 0.053(2) -0.0071(19) -0.0036(19) 0.0032(16)
C18 0.050(2) 0.0386(15) 0.056(2) -0.0089(18) -0.0040(19) -0.0008(14)
C19 0.074(3) 0.054(2) 0.042(2) -0.0114(19) 0.004(2) -0.0055(19)
C20 0.055(2) 0.0575(18) 0.054(2) -0.0084(18) 0.011(2) -0.0099(17)
C21 0.059(3) 0.0437(17) 0.057(2) -0.0010(18) -0.007(2) -0.0050(17)
C22 0.058(2) 0.0542(19) 0.059(3) -0.014(2) 0.005(2) -0.0073(18)
C23 0.053(2) 0.0574(19) 0.061(2) -0.004(2) 0.0074(19) -0.0123(19)
C24 0.056 0.045 0.067 0.009 -0.010 -0.003
C25 0.052(2) 0.0373(17) 0.060(2) -0.0076(18) -0.0136(19) 0.0020(15)
C26 0.062(2) 0.054(2) 0.052(2) -0.0048(19) -0.0099(19) 0.0158(17)
C27 0.066(2) 0.0508(17) 0.052(2) -0.009(2) -0.019(2) 0.0115(16)
C28 0.050(2) 0.0432(17) 0.057(2) -0.0048(18) -0.0022(19) 0.0017(16)
C29 0.059(2) 0.054(2) 0.061(3) -0.001(2) -0.011(2) 0.0147(18)
C30 0.074(3) 0.0508(19) 0.044(2) -0.0119(19) -0.008(2) 0.0027(19)
C31 0.052(2) 0.0504(18) 0.067(3) -0.007(2) 0.005(2) 0.0044(16)
C32 0.061(2) 0.060(2) 0.071(3) -0.023(3) -0.005(3) -0.0120(18)
C33 0.076(3) 0.057(2) 0.064(3) -0.009(2) -0.003(2) 0.004(2)
F1 0.1035(18) 0.0648(12) 0.0673(15) 0.0017(14) -0.0116(14) 0.0127(13)
F2 0.1071(19) 0.0536(12) 0.0788(17) -0.0167(13) -0.0154(15) 0.0260(12)
F3 0.0707(16) 0.0765(14) 0.0960(18) -0.0155(14) -0.0351(14) 0.0134(12)
F4 0.0699(15) 0.0842(14) 0.0920(19) -0.0272(15) 0.0142(14) -0.0039(12)
F5 0.0746(16) 0.0836(14) 0.0937(18) -0.0211(15) 0.0012(14) -0.0278(13)
F6 0.0932(18) 0.0724(14) 0.0666(15) 0.0078(14) 0.0021(14) -0.0128(13)
N1 0.061(2) 0.0467(15) 0.0574(17) 0.0050(15) 0.0045(16) -0.0050(14)
N2 0.0482(18) 0.0539(16) 0.0529(19) 0.0010(15) 0.0084(15) 0.0044(13)
O1 0.0579(17) 0.0864(17) 0.0698(18) 0.0001(16) -0.0069(16) -0.0135(15)
O2 0.0640(17) 0.0647(15) 0.0563(16) -0.0137(14) -0.0003(14) -0.0156(13)
O3 0.0664(18) 0.0548(14) 0.0721(18) -0.0086(14) -0.0076(15) 0.0188(12)
O4 0.087(2) 0.0761(17) 0.0621(18) -0.0211(17) -0.0132(17) 0.0219(15)
Zn1B 0.0467 0.04655 0.0571 -0.0024 -0.0021 0.00812
Zn1C 0.0467 0.04655 0.0571 0.0024 0.0021 0.00812
N2C 0.0482 0.0539 0.0529 0.001 -0.0084 -0.0044
O3B 0.0664 0.0548 0.0721 0.0086 -0.0076 -0.0188
loop_
_geom_bond_atom_site_label_1
_geom_bond_atom_site_label_2
_geom_bond_site_symmetry_1
_geom_bond_site_symmetry_2
Zn1 N1 1_555 1_555
C1 C2 1_555 1_555
C2 H1 1_555 1_555
C3 C2 1_555 1_555
H2 C3 1_555 1_555
C4 C3 1_555 1_555
H3 C4 1_555 1_555
C5 C4 1_555 1_555
C6 C1 1_555 1_555
H4 C6 1_555 1_555
C7 C1 1_555 1_555
C8 C7 1_555 1_555
H5 C8 1_555 1_555
C9 C8 1_555 1_555
H6 C9 1_555 1_555
C10 H7 1_555 1_555
C11 C7 1_555 1_555
H8 C11 1_555 1_555
C12 C5 1_555 1_555
C13 C12 1_555 1_555
H9 C13 1_555 1_555
C14 C13 1_555 1_555
H10 C14 1_555 1_555
C15 H11 1_555 1_555
C16 C12 1_555 1_555
H12 C16 1_555 1_555
C17 C18 1_555 1_555
C18 C19 1_555 1_555
C19 H13 1_555 1_555
C20 C19 1_555 1_555
H14 C20 1_555 1_555
C21 C20 1_555 1_555
C22 C21 1_555 1_555
H15 C22 1_555 1_555
C23 C18 1_555 1_555
H16 C23 1_555 1_555
C24 C21 1_555 1_555
C25 C17 1_555 1_555
C26 C25 1_555 1_555
H17 C26 1_555 1_555
C27 C26 1_555 1_555
H18 C27 1_555 1_555
C28 C27 1_555 1_555
C29 C28 1_555 1_555
H19 C29 1_555 1_555
C30 C25 1_555 1_555
H20 C30 1_555 1_555
C31 C28 1_555 1_555
C32 C17 1_555 1_555
C33 C17 1_555 1_555
F1 C33 1_555 1_555
F2 C33 1_555 1_555
F3 C33 1_555 1_555
F4 C32 1_555 1_555
F5 C32 1_555 1_555
F6 C32 1_555 1_555
N1 C14 1_555 1_555
N2 C9 1_555 1_555
O1 C24 1_555 1_555
O2 Zn1 1_555 1_555
O3 C31 1_555 1_555
O4 C31 1_555 1_555
Zn1B O3 1_555 1_555
Zn1C N2 1_555 1_555
N2C Zn1 1_555 1_555
O3B Zn1 1_555 1_555
C5 C6 1_555 1_555
C10 C11 1_555 1_555
C10 N2 1_555 1_555
C15 C16 1_555 1_555
C15 N1 1_555 1_555
C22 C23 1_555 1_555
C24 O2 1_555 1_555
C29 C30 1_555 1_555

#END
