
#######################################################################
#
#                 Cambridge Crystallographic Data Centre
#                                CCDC 
#
#######################################################################
#
# If this CIF has been generated from an entry in the Cambridge 
# Structural Database, then it will include bibliographic, chemical, 
# crystal, experimental, refinement or atomic coordinate data resulting 
# from the CCDC's data processing and validation procedures.
#
#######################################################################

data_UJAQEC
_chemical_formula_moiety         '(C17 H12 Co2 O12)n'
_symmetry_cell_setting           triclinic
_symmetry_space_group_name_H-M   'P -1'
_symmetry_Int_Tables_number      2
_space_group_name_Hall           '-P 1'
loop_
_symmetry_equiv_pos_site_id
_symmetry_equiv_pos_as_xyz
1 x,y,z
2 -x,-y,-z
_cell_length_a                   10.2067(4)
_cell_length_b                   11.1297(6)
_cell_length_c                   13.9251(5)
_cell_angle_alpha                112.663(3)
_cell_angle_beta                 104.574(3)
_cell_angle_gamma                94.7960(17)
_cell_volume                     1383.57
loop_
_atom_site_label
_atom_site_type_symbol
_atom_site_fract_x
_atom_site_fract_y
_atom_site_fract_z
Co1 Co 0.50570(5) -0.13633(5) -0.49098(4)
Co2 Co 0.38618(5) 0.07824(5) -0.30240(4)
O1 O 0.6695(2) -0.0370(3) -0.34347(19)
O2 O 0.5940(3) 0.1212(3) -0.22402(19)
C1 C 0.6877(4) 0.0691(4) -0.2578(3)
C2 C 0.8345(4) 0.1379(4) -0.1914(3)
C3 C 0.9415(4) 0.1016(4) -0.2348(3)
H1 H 0.9215 0.0333 -0.3065
C4 C 1.0771(4) 0.1651(4) -0.1736(3)
C5 C 1.1927(4) 0.1284(4) -0.2210(3)
O3 O 1.3145(2) 0.1553(2) -0.15888(18)
O4 O 1.1633(3) 0.0693(3) -0.32451(18)
C6 C 1.1072(4) 0.2671(4) -0.0687(3)
H2 H 1.2001 0.3093 -0.0257
C7 C 0.9990(4) 0.3055(4) -0.0286(3)
C8 C 0.8623(4) 0.2421(4) -0.0881(3)
H3 H 0.7894 0.2692 -0.0592
O5 O 1.0401(3) 0.4127(2) 0.07443(18)
C9 C 0.9353(4) 0.4603(4) 0.1195(3)
H4 H 0.8595 0.4700 0.0643
H5 H 0.9729 0.5477 0.1831
O6 O 0.8865(3) 0.3626(3) 0.15274(19)
C10 C 0.7997(4) 0.3972(4) 0.2172(3)
C11 C 0.7595(4) 0.3014(4) 0.2499(3)
H6 H 0.7889 0.2191 0.2260
C12 C 0.6762(3) 0.3250(3) 0.3175(3)
C13 C 0.6290(4) 0.2189(4) 0.3494(3)
O7 O 0.5787(3) 0.2531(3) 0.42769(19)
O8 O 0.6436(3) 0.1036(2) 0.29532(19)
C14 C 0.6373(4) 0.4481(4) 0.3539(3)
H7 H 0.5842 0.4674 0.4031
C15 C 0.6758(4) 0.5424(4) 0.3187(3)
C16 C 0.6277(4) 0.6718(4) 0.3532(3)
O9 O 0.6137(3) 0.7192(2) 0.44884(18)
O10 O 0.6055(3) 0.7264(3) 0.28907(19)
C17 C 0.7555(4) 0.5167(4) 0.2480(3)
H8 H 0.7791 0.5797 0.2215
O11 O 0.3932(3) 0.0105(2) -0.45646(17)
O12 O 0.3313(3) -0.2497(3) -0.6380(2)
Co1A Co 0.49430(5) 0.13633(5) 0.49098(4)
Co1_2 Co 0.50570(5) 0.86367(5) 0.50902(4)
Co1A_2 Co 0.49430(5) 0.13633(5) -0.50902(4)
Co2_2 Co 1.38618(5) 0.07824(5) -0.30240(4)
Co2A Co 0.61382(5) -0.07824(5) 0.30240(4)
Co2A_2 Co 0.61382(5) 0.92176(5) 0.30240(4)
O3_2 O 0.3145(2) 0.1553(2) -0.15888(18)
O4_2 O 0.1633(3) 0.0693(3) -0.32451(18)
O7A O 0.4213(3) -0.2531(3) -0.42769(19)
O8A O 0.3564(3) -0.1036(2) -0.29532(19)
O9_2 O 0.6137(3) -0.2808(2) -0.55116(18)
O10A O 0.3945(3) 0.2736(3) -0.28907(19)
O11A O 0.6068(3) -0.0105(2) -0.54354(17)
loop_
_geom_bond_atom_site_label_1
_geom_bond_atom_site_label_2
_geom_bond_site_symmetry_1
_geom_bond_site_symmetry_2
Co1 O1 1_555 1_555
Co2 O2 1_555 1_555
O1 C1 1_555 1_555
O2 C1 1_555 1_555
C1 C2 1_555 1_555
C2 C3 1_555 1_555
C3 H1 1_555 1_555
C4 C3 1_555 1_555
C5 C4 1_555 1_555
O3 C5 1_555 1_555
O4 C5 1_555 1_555
C6 C4 1_555 1_555
H2 C6 1_555 1_555
C7 C6 1_555 1_555
C8 C2 1_555 1_555
H3 C8 1_555 1_555
O5 C7 1_555 1_555
C9 O5 1_555 1_555
H4 C9 1_555 1_555
H5 C9 1_555 1_555
O6 C9 1_555 1_555
C10 O6 1_555 1_555
C11 C10 1_555 1_555
H6 C11 1_555 1_555
C12 C11 1_555 1_555
C13 C12 1_555 1_555
O7 C13 1_555 1_555
O8 C13 1_555 1_555
C14 C12 1_555 1_555
H7 C14 1_555 1_555
C15 C14 1_555 1_555
C16 C15 1_555 1_555
O9 C16 1_555 1_555
O10 C16 1_555 1_555
C17 C10 1_555 1_555
H8 C17 1_555 1_555
O11 Co1 1_555 1_555
O12 Co1 1_555 1_555
Co1A O7 1_555 1_555
Co1_2 O9 1_555 1_555
Co1A_2 O11 1_555 1_555
Co2_2 O3 1_555 1_555
Co2A O8 1_555 1_555
Co2A_2 O10 1_555 1_555
O3_2 Co2 1_555 1_555
O4_2 Co2 1_555 1_555
O7A Co1 1_555 1_555
O8A Co2 1_555 1_555
O9_2 Co1 1_555 1_555
O10A Co2 1_555 1_555
O11A Co1 1_555 1_555
Co2 O11 1_555 1_555
O4 Co2_2 1_555 1_555
C7 C8 1_555 1_555
C15 C17 1_555 1_555
Co1A_2 O11A 1_555 1_555

#END
