
#######################################################################
#
#                 Cambridge Crystallographic Data Centre
#                                CCDC 
#
#######################################################################
#
# If this CIF has been generated from an entry in the Cambridge 
# Structural Database, then it will include bibliographic, chemical, 
# crystal, experimental, refinement or atomic coordinate data resulting 
# from the CCDC's data processing and validation procedures.
#
#######################################################################

data_UJARAZ
_chemical_formula_moiety         '(C18 H14 Ni2 O12)n'
_symmetry_cell_setting           triclinic
_symmetry_space_group_name_H-M   'P -1'
_symmetry_Int_Tables_number      2
_space_group_name_Hall           '-P 1'
loop_
_symmetry_equiv_pos_site_id
_symmetry_equiv_pos_as_xyz
1 x,y,z
2 -x,-y,-z
_cell_length_a                   10.0777(2)
_cell_length_b                   11.0012(2)
_cell_length_c                   15.0573(3)
_cell_angle_alpha                72.9490(12)
_cell_angle_beta                 77.0468(11)
_cell_angle_gamma                81.3705(10)
_cell_volume                     1548.98
loop_
_atom_site_label
_atom_site_type_symbol
_atom_site_fract_x
_atom_site_fract_y
_atom_site_fract_z
Ni1 Ni 0.50391(3) -0.35831(3) 0.49232(2)
Ni2 Ni 0.36319(3) -0.40881(3) 0.32499(2)
O1 O 0.33188(19) -0.21843(14) 0.31620(12)
O2 O 0.40344(19) -0.18693(15) 0.43859(12)
C1 C 0.3471(2) -0.1508(2) 0.36751(17)
C2 C 0.2924(2) -0.0129(2) 0.34145(16)
C3 C 0.3383(2) 0.0751(2) 0.37525(16)
H1 H 0.4009 0.0473 0.4174
C4 C 0.2925(2) 0.2035(2) 0.34739(17)
C5 C 0.3515(2) 0.2993(2) 0.37661(18)
O3 O 0.37719(17) 0.26515(15) 0.45973(12)
O4 O 0.3732(2) 0.40387(15) 0.31654(12)
C6 C 0.1943(3) 0.2445(2) 0.28884(17)
H2 H 0.1621 0.3322 0.2702
C7 C 0.1451(2) 0.1549(2) 0.25873(16)
C8 C 0.1952(3) 0.0287(2) 0.28324(17)
H3 H 0.1633 -0.0310 0.2603
O5 O 0.04759(19) 0.18151(15) 0.20364(13)
C9 C -0.0210(3) 0.3080(2) 0.17930(17)
H4 H 0.0402 0.3728 0.1749
H5 H -0.1039 0.3166 0.2276
C10 C -0.0588(2) 0.3251(2) 0.08491(17)
H6 H -0.1058 0.2517 0.0860
H7 H -0.1201 0.4041 0.0685
O6 O 0.06554(19) 0.3328(2) 0.01902(13)
C11 C 0.0653(3) 0.3437(2) -0.07425(17)
C12 C 0.1929(3) 0.3486(2) -0.13217(18)
H8 H 0.2717 0.3441 -0.1062
C13 C 0.2069(3) 0.3601(2) -0.22872(17)
C14 C 0.3443(3) 0.3634(2) -0.29169(17)
O7 O 0.35319(17) 0.33552(16) -0.36837(12)
O8 O 0.43953(17) 0.39591(16) -0.26364(12)
C15 C 0.0889(3) 0.3694(2) -0.26584(18)
H9 H 0.0968 0.3784 -0.3315
C16 C -0.0380(2) 0.3655(2) -0.20816(16)
C17 C -0.1628(3) 0.3780(2) -0.24983(18)
O9 O -0.14896(18) 0.40866(16) -0.33997(12)
O10 O -0.27902(17) 0.36109(15) -0.19753(12)
C18 C -0.0527(3) 0.3526(2) -0.11064(17)
H10 H -0.1404 0.3499 -0.0707
O11 O 0.38875(16) -0.46819(14) 0.45857(11)
O12 O 0.35506(19) -0.35974(17) 0.61726(13)
H11 H 0.3869 -0.4102 0.6678
H12 H 0.3592 -0.3966 0.5710
Ni1A Ni 0.49609(3) 0.35831(3) 0.50768(2)
Ni1A_2 Ni 0.49609(3) 0.35831(3) -0.49232(2)
Ni1A_3 Ni 0.49609(3) -0.64169(3) 0.50768(2)
Ni2_2 Ni 0.36319(3) 0.59119(3) 0.32499(2)
Ni2A Ni 0.63681(3) 0.40881(3) -0.32499(2)
Ni2A_2 Ni -0.36319(3) 0.40881(3) -0.32499(2)
O3A O 0.62281(17) -0.26515(15) 0.54027(12)
O4_2 O 0.3732(2) -0.59613(15) 0.31654(12)
O7A O 0.64681(17) -0.33552(16) 0.36837(12)
O8A O 0.56047(17) -0.39591(16) 0.26364(12)
O9A O 0.14896(18) -0.40866(16) 0.33997(12)
O10A O 0.27902(17) -0.36109(15) 0.19753(12)
O11A O 0.61125(16) -0.53181(14) 0.54143(11)
loop_
_geom_bond_atom_site_label_1
_geom_bond_atom_site_label_2
_geom_bond_site_symmetry_1
_geom_bond_site_symmetry_2
Ni1 O2 1_555 1_555
Ni2 O1 1_555 1_555
O1 C1 1_555 1_555
O2 C1 1_555 1_555
C1 C2 1_555 1_555
C2 C3 1_555 1_555
C3 H1 1_555 1_555
C4 C3 1_555 1_555
C5 C4 1_555 1_555
O3 C5 1_555 1_555
O4 C5 1_555 1_555
C6 C4 1_555 1_555
H2 C6 1_555 1_555
C7 C6 1_555 1_555
C8 C2 1_555 1_555
H3 C8 1_555 1_555
O5 C7 1_555 1_555
C9 O5 1_555 1_555
H4 C9 1_555 1_555
H5 C9 1_555 1_555
C10 C9 1_555 1_555
H6 C10 1_555 1_555
H7 C10 1_555 1_555
O6 C10 1_555 1_555
C11 O6 1_555 1_555
C12 C11 1_555 1_555
H8 C12 1_555 1_555
C13 C12 1_555 1_555
C14 C13 1_555 1_555
O7 C14 1_555 1_555
O8 C14 1_555 1_555
C15 C13 1_555 1_555
H9 C15 1_555 1_555
C16 C15 1_555 1_555
C17 C16 1_555 1_555
O9 C17 1_555 1_555
O10 C17 1_555 1_555
C18 C11 1_555 1_555
H10 C18 1_555 1_555
O11 Ni1 1_555 1_555
O12 Ni1 1_555 1_555
H11 O12 1_555 1_555
H12 O12 1_555 1_555
Ni1A O3 1_555 1_555
Ni1A_2 O7 1_555 1_555
Ni1A_3 O11 1_555 1_555
Ni2_2 O4 1_555 1_555
Ni2A O8 1_555 1_555
Ni2A_2 O9 1_555 1_555
O3A Ni1 1_555 1_555
O4_2 Ni2 1_555 1_555
O7A Ni1 1_555 1_555
O8A Ni2 1_555 1_555
O9A Ni2 1_555 1_555
O10A Ni2 1_555 1_555
O11A Ni1 1_555 1_555
Ni2 O11 1_555 1_555
C7 C8 1_555 1_555
C16 C18 1_555 1_555
O10 Ni2A_2 1_555 1_555
Ni1A_3 O11A 1_555 1_555

#END
