
#######################################################################
#
#                 Cambridge Crystallographic Data Centre
#                                CCDC 
#
#######################################################################
#
# If this CIF has been generated from an entry in the Cambridge 
# Structural Database, then it will include bibliographic, chemical, 
# crystal, experimental, refinement or atomic coordinate data resulting 
# from the CCDC's data processing and validation procedures.
#
#######################################################################

data_SERWAP
_chemical_formula_moiety         '(C177 H193 Cl3 F24 N16 O32 Si4 Zn4)n'
_symmetry_cell_setting           tetragonal
_symmetry_space_group_name_H-M   'P 4'
_symmetry_Int_Tables_number      75
_space_group_name_Hall           'P 4'
loop_
_symmetry_equiv_pos_site_id
_symmetry_equiv_pos_as_xyz
1 x,y,z
2 -x,-y,z
3 -y,x,z
4 y,-x,z
_cell_length_a                   22.0440(15)
_cell_length_b                   22.0440(15)
_cell_length_c                   15.1513(18)
_cell_angle_alpha                90
_cell_angle_beta                 90
_cell_angle_gamma                90
_cell_volume                     7362.59
loop_
_atom_site_label
_atom_site_type_symbol
_atom_site_fract_x
_atom_site_fract_y
_atom_site_fract_z
Zn1 Zn 0.5000 0.5000 0.01429(9)
Zn2 Zn 0.5000 0.5000 0.51289(9)
Zn3 Zn 0.0000 0.0000 -0.00054(12)
Zn4 Zn 0.0000 0.0000 0.49761(11)
Si1 Si 0.5000 0.5000 0.2629(3)
Si2 Si 0.5000 0.5000 0.7630(4)
Si3 Si 0.0000 0.0000 0.2480(4)
Si4 Si 0.0000 0.0000 0.7512(4)
F1 F 0.5000 0.5000 0.8774(7)
F2 F 0.5000 0.5000 0.1491(5)
F3 F 0.5169(2) 0.42654(16) 0.2595(4)
F4 F 0.5000 0.5000 0.3760(6)
F5 F 0.5000 0.5000 0.6528(6)
F6 F 0.5727(3) 0.4974(7) 0.7680(5)
F7 F -0.0000 -0.0000 0.1389(6)
F8 F -0.07321(17) 0.01903(18) 0.2467(3)
F9 F -0.0000 -0.0000 0.3664(7)
F10 F -0.0000 -0.0000 0.6331(7)
F11 F 0.0723(3) 0.0095(5) 0.7485(5)
F12 F 0.0000 0.0000 0.8579(8)
N1 N 0.42979(19) 0.43633(19) 0.0142(3)
C1 C 0.4312(2) 0.3905(2) 0.0771(3)
H1 H 0.4631 0.3892 0.1193
C2 C 0.3859(2) 0.3466(2) 0.0785(3)
H2 H 0.3869 0.3153 0.1215
C3 C 0.3393(2) 0.3485(2) 0.0168(3)
C4 C 0.3379(2) 0.3944(2) -0.0462(3)
H3 H 0.3060 0.3957 -0.0883
C5 C 0.3831(2) 0.4383(2) -0.0475(3)
H4 H 0.3822 0.4696 -0.0905
C6 C 0.2916(4) 0.2974(4) 0.0136(6)
C7 C 0.2318(4) 0.3112(4) 0.0130(6)
C8 C 0.1875(4) 0.2633(3) 0.0087(6)
H5 H 0.1455 0.2725 0.0057
C9 C 0.2080(4) 0.2008(4) 0.0089(6)
C10 C 0.2711(4) 0.1919(4) 0.0189(6)
C11 C 0.3107(4) 0.2379(4) 0.0223(6)
H6 H 0.3526 0.2296 0.0309
O1 O 0.2155(3) 0.3706(3) 0.0018(5)
C12 C 0.1493(4) 0.3857(4) 0.0021(9)
H7 H 0.1309 0.3753 -0.0555
H8 H 0.1281 0.3625 0.0488
C13 C 0.1435(5) 0.4515(5) 0.0190(12)
H9 H 0.1580 0.4547 0.0814
O2 O 0.0815(4) 0.4719(6) 0.0265(10)
H10 H 0.0649 0.4546 0.0696
C14 C 0.1739(12) 0.5053(10) -0.0233(16)
H11 H 0.1960 0.4920 -0.0760
H12 H 0.2022 0.5237 0.0186
H13 H 0.1431 0.5352 -0.0403
O3 O 0.2870(3) 0.1321(3) 0.0275(7)
C15 C 0.3382(5) 0.1092(5) -0.0215(11)
H14 H 0.3738 0.1364 -0.0166
H15 H 0.3282 0.1031 -0.0845
C16 C 0.3497(6) 0.0463(5) 0.0275(11)
H16 H 0.3355 0.0392 0.0893
O4 O 0.4132(6) 0.0358(6) 0.001(2)
H17 H 0.4192 -0.0017 -0.0048
C17 C 0.3259(7) 0.0113(8) -0.0468(17)
H18 H 0.3560 0.0105 -0.0944
H19 H 0.2884 0.0302 -0.0683
H20 H 0.3173 -0.0302 -0.0275
C18 C 0.1616(3) 0.1540(3) 0.0073(5)
C19 C 0.1161(3) 0.1567(3) -0.0541(5)
H21 H 0.1150 0.1889 -0.0957
C20 C 0.0709(3) 0.1113(3) -0.0551(5)
H22 H 0.0403 0.1130 -0.0993
N2 N 0.0696(3) 0.0682(3) 0.0008(4)
C21 C 0.1118(3) 0.0676(3) 0.0625(5)
H23 H 0.1105 0.0362 0.1054
C22 C 0.1569(3) 0.1090(3) 0.0680(5)
H24 H 0.1856 0.1066 0.1147
N3 N 0.4327(2) 0.4315(2) 0.5092(4)
C23 C 0.4326(3) 0.3868(3) 0.4485(4)
H25 H 0.4638 0.3873 0.4053
C24 C 0.3927(4) 0.3425(3) 0.4444(5)
H26 H 0.3957 0.3126 0.3995
C25 C 0.3453(3) 0.3396(4) 0.5069(5)
C26 C 0.3436(3) 0.3862(4) 0.5703(5)
H27 H 0.3117 0.3887 0.6124
C27 C 0.3898(3) 0.4280(3) 0.5689(5)
H28 H 0.3908 0.4570 0.6153
C28 C 0.2950(2) 0.2928(2) 0.5077(4)
C29 C 0.3078(2) 0.2312(2) 0.5018(5)
C30 C 0.2608(2) 0.1892(2) 0.4999(4)
H29 H 0.2695 0.1471 0.4959
C31 C 0.2009(2) 0.2089(2) 0.5039(4)
C32 C 0.1881(2) 0.2705(2) 0.5098(4)
C33 C 0.2351(2) 0.3124(2) 0.5117(4)
H30 H 0.2264 0.3546 0.5157
O5 O 0.3685(2) 0.2131(2) 0.4828(5)
C34 C 0.3897(5) 0.1582(5) 0.5310(9)
H31 H 0.3879 0.1652 0.5955
H32 H 0.3634 0.1231 0.5166
C35 C 0.4528(5) 0.1459(5) 0.5033(11)
H33 H 0.4556 0.1573 0.4395
O6 O 0.4698(6) 0.0791(6) 0.5094(16)
H34 H 0.4453 0.0585 0.4793
C36 C 0.4989(8) 0.1870(8) 0.5537(17)
H35 H 0.4955 0.2288 0.5324
H36 H 0.5402 0.1721 0.5433
H37 H 0.4901 0.1857 0.6171
O7 O 0.1299(3) 0.2855(3) 0.5000(6)
C37 C 0.1150(4) 0.3486(4) 0.4994(7)
H38 H 0.1355 0.3698 0.4502
H39 H 0.1265 0.3681 0.5558
C38 C 0.0451(6) 0.3487(6) 0.4869(14)
H40 H 0.0353 0.3340 0.4261
O8 O 0.0337(5) 0.4145(4) 0.4914(11)
H41 H 0.0631 0.4332 0.4689
C39 C 0.0048(11) 0.3179(12) 0.5508(14)
H42 H 0.0137 0.2744 0.5512
H43 H -0.0376 0.3244 0.5338
H44 H 0.0117 0.3347 0.6099
C40 C 0.1509(2) 0.1638(2) 0.4968(4)
C41 C 0.1540(2) 0.1182(3) 0.4336(3)
H45 H 0.1855 0.1186 0.3908
C42 C 0.1111(2) 0.0720(2) 0.4331(3)
H46 H 0.1132 0.0408 0.3899
N4 N 0.0651(2) 0.0714(2) 0.4958(4)
C43 C 0.0619(2) 0.1170(3) 0.5590(3)
H47 H 0.0305 0.1166 0.6019
C44 C 0.1049(3) 0.1632(2) 0.5595(4)
H48 H 0.1027 0.1944 0.6027
F3A F 0.4831(2) 0.57346(16) 0.2595(4)
F3B F 0.57346(16) 0.5169(2) 0.2595(4)
F3C F 0.42654(16) 0.4831(2) 0.2595(4)
F6A F 0.4273(3) 0.5026(7) 0.7680(5)
F6B F 0.5026(7) 0.5727(3) 0.7680(5)
F6C F 0.4974(7) 0.4273(3) 0.7680(5)
F8A F 0.07321(17) -0.01903(18) 0.2467(3)
F8B F -0.01903(18) -0.07321(17) 0.2467(3)
F8C F 0.01903(18) 0.07321(17) 0.2467(3)
F11A F -0.0723(3) -0.0095(5) 0.7485(5)
F11B F -0.0095(5) 0.0723(3) 0.7485(5)
F11C F 0.0095(5) -0.0723(3) 0.7485(5)
N1A N -0.42979(19) -0.43633(19) 0.0142(3)
C1A C -0.4312(2) -0.3905(2) 0.0771(3)
H1A H -0.4631 -0.3892 0.1193
C2A C -0.3859(2) -0.3466(2) 0.0785(3)
H2A H -0.3869 -0.3153 0.1215
C3A C -0.3393(2) -0.3485(2) 0.0168(3)
C4A C -0.3379(2) -0.3944(2) -0.0462(3)
H3A H -0.3060 -0.3957 -0.0883
C5A C -0.3831(2) -0.4383(2) -0.0475(3)
H4A H -0.3822 -0.4696 -0.0905
C6A C -0.2916(4) -0.2974(4) 0.0136(6)
C7A C -0.2318(4) -0.3112(4) 0.0130(6)
C8A C -0.1875(4) -0.2633(3) 0.0087(6)
H5A H -0.1455 -0.2725 0.0057
C9A C -0.2080(4) -0.2008(4) 0.0089(6)
C10A C -0.2711(4) -0.1919(4) 0.0189(6)
C11A C -0.3107(4) -0.2379(4) 0.0223(6)
H6A H -0.3526 -0.2296 0.0309
O1A O -0.2155(3) -0.3706(3) 0.0018(5)
C12A C -0.1493(4) -0.3857(4) 0.0021(9)
H7A H -0.1309 -0.3753 -0.0555
H8A H -0.1281 -0.3625 0.0488
C13A C -0.1435(5) -0.4515(5) 0.0190(12)
H9A H -0.1580 -0.4547 0.0814
O2A O -0.0815(4) -0.4719(6) 0.0265(10)
H10A H -0.0649 -0.4546 0.0696
C14A C -0.1739(12) -0.5053(10) -0.0233(16)
H11A H -0.1960 -0.4920 -0.0760
H12A H -0.2022 -0.5237 0.0186
H13A H -0.1431 -0.5352 -0.0403
O3A O -0.2870(3) -0.1321(3) 0.0275(7)
C15A C -0.3382(5) -0.1092(5) -0.0215(11)
H14A H -0.3738 -0.1364 -0.0166
H15A H -0.3282 -0.1031 -0.0845
C16A C -0.3497(6) -0.0463(5) 0.0275(11)
H16A H -0.3355 -0.0392 0.0893
O4A O -0.4132(6) -0.0358(6) 0.001(2)
H17A H -0.4192 0.0017 -0.0048
C17A C -0.3259(7) -0.0113(8) -0.0468(17)
H18A H -0.3560 -0.0105 -0.0944
H19A H -0.2884 -0.0302 -0.0683
H20A H -0.3173 0.0302 -0.0275
C18A C -0.1616(3) -0.1540(3) 0.0073(5)
C19A C -0.1161(3) -0.1567(3) -0.0541(5)
H21A H -0.1150 -0.1889 -0.0957
C20A C -0.0709(3) -0.1113(3) -0.0551(5)
H22A H -0.0403 -0.1130 -0.0993
N2A N -0.0696(3) -0.0682(3) 0.0008(4)
C21A C -0.1118(3) -0.0676(3) 0.0625(5)
H23A H -0.1105 -0.0362 0.1054
C22A C -0.1569(3) -0.1090(3) 0.0680(5)
H24A H -0.1856 -0.1066 0.1147
N3A N -0.4327(2) -0.4315(2) 0.5092(4)
C23A C -0.4326(3) -0.3868(3) 0.4485(4)
H25A H -0.4638 -0.3873 0.4053
C24A C -0.3927(4) -0.3425(3) 0.4444(5)
H26A H -0.3957 -0.3126 0.3995
C25A C -0.3453(3) -0.3396(4) 0.5069(5)
C26A C -0.3436(3) -0.3862(4) 0.5703(5)
H27A H -0.3117 -0.3887 0.6124
C27A C -0.3898(3) -0.4280(3) 0.5689(5)
H28A H -0.3908 -0.4570 0.6153
C28A C -0.2950(2) -0.2928(2) 0.5077(4)
C29A C -0.3078(2) -0.2312(2) 0.5018(5)
C30A C -0.2608(2) -0.1892(2) 0.4999(4)
H29A H -0.2695 -0.1471 0.4959
C31A C -0.2009(2) -0.2089(2) 0.5039(4)
C32A C -0.1881(2) -0.2705(2) 0.5098(4)
C33A C -0.2351(2) -0.3124(2) 0.5117(4)
H30A H -0.2264 -0.3546 0.5157
O5A O -0.3685(2) -0.2131(2) 0.4828(5)
C34A C -0.3897(5) -0.1582(5) 0.5310(9)
H31A H -0.3879 -0.1652 0.5955
H32A H -0.3634 -0.1231 0.5166
C35A C -0.4528(5) -0.1459(5) 0.5033(11)
H33A H -0.4556 -0.1573 0.4395
O6A O -0.4698(6) -0.0791(6) 0.5094(16)
H34A H -0.4453 -0.0585 0.4793
C36A C -0.4989(8) -0.1870(8) 0.5537(17)
H35A H -0.4955 -0.2288 0.5324
H36A H -0.5402 -0.1721 0.5433
H37A H -0.4901 -0.1857 0.6171
O7A O -0.1299(3) -0.2855(3) 0.5000(6)
C37A C -0.1150(4) -0.3486(4) 0.4994(7)
H38A H -0.1355 -0.3698 0.4502
H39A H -0.1265 -0.3681 0.5558
C38A C -0.0451(6) -0.3487(6) 0.4869(14)
H40A H -0.0353 -0.3340 0.4261
O8A O -0.0337(5) -0.4145(4) 0.4914(11)
H41A H -0.0631 -0.4332 0.4689
C39A C -0.0048(11) -0.3179(12) 0.5508(14)
H42A H -0.0137 -0.2744 0.5512
H43A H 0.0376 -0.3244 0.5338
H44A H -0.0117 -0.3347 0.6099
C40A C -0.1509(2) -0.1638(2) 0.4968(4)
C41A C -0.1540(2) -0.1182(3) 0.4336(3)
H45A H -0.1855 -0.1186 0.3908
C42A C -0.1111(2) -0.0720(2) 0.4331(3)
H46A H -0.1132 -0.0408 0.3899
N4A N -0.0651(2) -0.0714(2) 0.4958(4)
C43A C -0.0619(2) -0.1170(3) 0.5590(3)
H47A H -0.0305 -0.1166 0.6019
C44A C -0.1049(3) -0.1632(2) 0.5595(4)
H48A H -0.1027 -0.1944 0.6027
N1B N -0.43633(19) 0.42979(19) 0.0142(3)
C1B C -0.3905(2) 0.4312(2) 0.0771(3)
H1B H -0.3892 0.4631 0.1193
C2B C -0.3466(2) 0.3859(2) 0.0785(3)
H2B H -0.3153 0.3869 0.1215
C3B C -0.3485(2) 0.3393(2) 0.0168(3)
C4B C -0.3944(2) 0.3379(2) -0.0462(3)
H3B H -0.3957 0.3060 -0.0883
C5B C -0.4383(2) 0.3831(2) -0.0475(3)
H4B H -0.4696 0.3822 -0.0905
C6B C -0.2974(4) 0.2916(4) 0.0136(6)
C7B C -0.3112(4) 0.2318(4) 0.0130(6)
C8B C -0.2633(3) 0.1875(4) 0.0087(6)
H5B H -0.2725 0.1455 0.0057
C9B C -0.2008(4) 0.2080(4) 0.0089(6)
C10B C -0.1919(4) 0.2711(4) 0.0189(6)
C11B C -0.2379(4) 0.3107(4) 0.0223(6)
H6B H -0.2296 0.3526 0.0309
O1B O -0.3706(3) 0.2155(3) 0.0018(5)
C12B C -0.3857(4) 0.1493(4) 0.0021(9)
H7B H -0.3753 0.1309 -0.0555
H8B H -0.3625 0.1281 0.0488
C13B C -0.4515(5) 0.1435(5) 0.0190(12)
H9B H -0.4547 0.1580 0.0814
O2B O -0.4719(6) 0.0815(4) 0.0265(10)
H10B H -0.4546 0.0649 0.0696
C14B C -0.5053(10) 0.1739(12) -0.0233(16)
H11B H -0.4920 0.1960 -0.0760
H12B H -0.5237 0.2022 0.0186
H13B H -0.5352 0.1431 -0.0403
O3B O -0.1321(3) 0.2870(3) 0.0275(7)
C15B C -0.1092(5) 0.3382(5) -0.0215(11)
H14B H -0.1364 0.3738 -0.0166
H15B H -0.1031 0.3282 -0.0845
C16B C -0.0463(5) 0.3497(6) 0.0275(11)
H16B H -0.0392 0.3355 0.0893
O4B O -0.0358(6) 0.4132(6) 0.001(2)
H17B H 0.0017 0.4192 -0.0048
C17B C -0.0113(8) 0.3259(7) -0.0468(17)
H18B H -0.0105 0.3560 -0.0944
H19B H -0.0302 0.2884 -0.0683
H20B H 0.0302 0.3173 -0.0275
C18B C -0.1540(3) 0.1616(3) 0.0073(5)
C19B C -0.1567(3) 0.1161(3) -0.0541(5)
H21B H -0.1889 0.1150 -0.0957
C20B C -0.1113(3) 0.0709(3) -0.0551(5)
H22B H -0.1130 0.0403 -0.0993
N2B N -0.0682(3) 0.0696(3) 0.0008(4)
C21B C -0.0676(3) 0.1118(3) 0.0625(5)
H23B H -0.0362 0.1105 0.1054
C22B C -0.1090(3) 0.1569(3) 0.0680(5)
H24B H -0.1066 0.1856 0.1147
N3B N -0.4315(2) 0.4327(2) 0.5092(4)
C23B C -0.3868(3) 0.4326(3) 0.4485(4)
H25B H -0.3873 0.4638 0.4053
C24B C -0.3425(3) 0.3927(4) 0.4444(5)
H26B H -0.3126 0.3957 0.3995
C25B C -0.3396(4) 0.3453(3) 0.5069(5)
C26B C -0.3862(4) 0.3436(3) 0.5703(5)
H27B H -0.3887 0.3117 0.6124
C27B C -0.4280(3) 0.3898(3) 0.5689(5)
H28B H -0.4570 0.3908 0.6153
C28B C -0.2928(2) 0.2950(2) 0.5077(4)
C29B C -0.2312(2) 0.3078(2) 0.5018(5)
C30B C -0.1892(2) 0.2608(2) 0.4999(4)
H29B H -0.1471 0.2695 0.4959
C31B C -0.2089(2) 0.2009(2) 0.5039(4)
C32B C -0.2705(2) 0.1881(2) 0.5098(4)
C33B C -0.3124(2) 0.2351(2) 0.5117(4)
H30B H -0.3546 0.2264 0.5157
O5B O -0.2131(2) 0.3685(2) 0.4828(5)
C34B C -0.1582(5) 0.3897(5) 0.5310(9)
H31B H -0.1652 0.3879 0.5955
H32B H -0.1231 0.3634 0.5166
C35B C -0.1459(5) 0.4528(5) 0.5033(11)
H33B H -0.1573 0.4556 0.4395
O6B O -0.0791(6) 0.4698(6) 0.5094(16)
H34B H -0.0585 0.4453 0.4793
C36B C -0.1870(8) 0.4989(8) 0.5537(17)
H35B H -0.2288 0.4955 0.5324
H36B H -0.1721 0.5402 0.5433
H37B H -0.1857 0.4901 0.6171
O7B O -0.2855(3) 0.1299(3) 0.5000(6)
C37B C -0.3486(4) 0.1150(4) 0.4994(7)
H38B H -0.3698 0.1355 0.4502
H39B H -0.3681 0.1265 0.5558
C38B C -0.3487(6) 0.0451(6) 0.4869(14)
H40B H -0.3340 0.0353 0.4261
O8B O -0.4145(4) 0.0337(5) 0.4914(11)
H41B H -0.4332 0.0631 0.4689
C39B C -0.3179(12) 0.0048(11) 0.5508(14)
H42B H -0.2744 0.0137 0.5512
H43B H -0.3244 -0.0376 0.5338
H44B H -0.3347 0.0117 0.6099
C40B C -0.1638(2) 0.1509(2) 0.4968(4)
C41B C -0.1182(3) 0.1540(2) 0.4336(3)
H45B H -0.1186 0.1855 0.3908
C42B C -0.0720(2) 0.1111(2) 0.4331(3)
H46B H -0.0408 0.1132 0.3899
N4B N -0.0714(2) 0.0651(2) 0.4958(4)
C43B C -0.1170(3) 0.0619(2) 0.5590(3)
H47B H -0.1166 0.0305 0.6019
C44B C -0.1632(2) 0.1049(3) 0.5595(4)
H48B H -0.1944 0.1027 0.6027
N1C N 0.43633(19) -0.42979(19) 0.0142(3)
C1C C 0.3905(2) -0.4312(2) 0.0771(3)
H1C H 0.3892 -0.4631 0.1193
C2C C 0.3466(2) -0.3859(2) 0.0785(3)
H2C H 0.3153 -0.3869 0.1215
C3C C 0.3485(2) -0.3393(2) 0.0168(3)
C4C C 0.3944(2) -0.3379(2) -0.0462(3)
H3C H 0.3957 -0.3060 -0.0883
C5C C 0.4383(2) -0.3831(2) -0.0475(3)
H4C H 0.4696 -0.3822 -0.0905
C6C C 0.2974(4) -0.2916(4) 0.0136(6)
C7C C 0.3112(4) -0.2318(4) 0.0130(6)
C8C C 0.2633(3) -0.1875(4) 0.0087(6)
H5C H 0.2725 -0.1455 0.0057
C9C C 0.2008(4) -0.2080(4) 0.0089(6)
C10C C 0.1919(4) -0.2711(4) 0.0189(6)
C11C C 0.2379(4) -0.3107(4) 0.0223(6)
H6C H 0.2296 -0.3526 0.0309
O1C O 0.3706(3) -0.2155(3) 0.0018(5)
C12C C 0.3857(4) -0.1493(4) 0.0021(9)
H7C H 0.3753 -0.1309 -0.0555
H8C H 0.3625 -0.1281 0.0488
C13C C 0.4515(5) -0.1435(5) 0.0190(12)
H9C H 0.4547 -0.1580 0.0814
O2C O 0.4719(6) -0.0815(4) 0.0265(10)
H10C H 0.4546 -0.0649 0.0696
C14C C 0.5053(10) -0.1739(12) -0.0233(16)
H11C H 0.4920 -0.1960 -0.0760
H12C H 0.5237 -0.2022 0.0186
H13C H 0.5352 -0.1431 -0.0403
O3C O 0.1321(3) -0.2870(3) 0.0275(7)
C15C C 0.1092(5) -0.3382(5) -0.0215(11)
H14C H 0.1364 -0.3738 -0.0166
H15C H 0.1031 -0.3282 -0.0845
C16C C 0.0463(5) -0.3497(6) 0.0275(11)
H16C H 0.0392 -0.3355 0.0893
O4C O 0.0358(6) -0.4132(6) 0.001(2)
H17C H -0.0017 -0.4192 -0.0048
C17C C 0.0113(8) -0.3259(7) -0.0468(17)
H18C H 0.0105 -0.3560 -0.0944
H19C H 0.0302 -0.2884 -0.0683
H20C H -0.0302 -0.3173 -0.0275
C18C C 0.1540(3) -0.1616(3) 0.0073(5)
C19C C 0.1567(3) -0.1161(3) -0.0541(5)
H21C H 0.1889 -0.1150 -0.0957
C20C C 0.1113(3) -0.0709(3) -0.0551(5)
H22C H 0.1130 -0.0403 -0.0993
N2C N 0.0682(3) -0.0696(3) 0.0008(4)
C21C C 0.0676(3) -0.1118(3) 0.0625(5)
H23C H 0.0362 -0.1105 0.1054
C22C C 0.1090(3) -0.1569(3) 0.0680(5)
H24C H 0.1066 -0.1856 0.1147
N3C N 0.4315(2) -0.4327(2) 0.5092(4)
C23C C 0.3868(3) -0.4326(3) 0.4485(4)
H25C H 0.3873 -0.4638 0.4053
C24C C 0.3425(3) -0.3927(4) 0.4444(5)
H26C H 0.3126 -0.3957 0.3995
C25C C 0.3396(4) -0.3453(3) 0.5069(5)
C26C C 0.3862(4) -0.3436(3) 0.5703(5)
H27C H 0.3887 -0.3117 0.6124
C27C C 0.4280(3) -0.3898(3) 0.5689(5)
H28C H 0.4570 -0.3908 0.6153
C28C C 0.2928(2) -0.2950(2) 0.5077(4)
C29C C 0.2312(2) -0.3078(2) 0.5018(5)
C30C C 0.1892(2) -0.2608(2) 0.4999(4)
H29C H 0.1471 -0.2695 0.4959
C31C C 0.2089(2) -0.2009(2) 0.5039(4)
C32C C 0.2705(2) -0.1881(2) 0.5098(4)
C33C C 0.3124(2) -0.2351(2) 0.5117(4)
H30C H 0.3546 -0.2264 0.5157
O5C O 0.2131(2) -0.3685(2) 0.4828(5)
C34C C 0.1582(5) -0.3897(5) 0.5310(9)
H31C H 0.1652 -0.3879 0.5955
H32C H 0.1231 -0.3634 0.5166
C35C C 0.1459(5) -0.4528(5) 0.5033(11)
H33C H 0.1573 -0.4556 0.4395
O6C O 0.0791(6) -0.4698(6) 0.5094(16)
H34C H 0.0585 -0.4453 0.4793
C36C C 0.1870(8) -0.4989(8) 0.5537(17)
H35C H 0.2288 -0.4955 0.5324
H36C H 0.1721 -0.5402 0.5433
H37C H 0.1857 -0.4901 0.6171
O7C O 0.2855(3) -0.1299(3) 0.5000(6)
C37C C 0.3486(4) -0.1150(4) 0.4994(7)
H38C H 0.3698 -0.1355 0.4502
H39C H 0.3681 -0.1265 0.5558
C38C C 0.3487(6) -0.0451(6) 0.4869(14)
H40C H 0.3340 -0.0353 0.4261
O8C O 0.4145(4) -0.0337(5) 0.4914(11)
H41C H 0.4332 -0.0631 0.4689
C39C C 0.3179(12) -0.0048(11) 0.5508(14)
H42C H 0.2744 -0.0137 0.5512
H43C H 0.3244 0.0376 0.5338
H44C H 0.3347 -0.0117 0.6099
C40C C 0.1638(2) -0.1509(2) 0.4968(4)
C41C C 0.1182(3) -0.1540(2) 0.4336(3)
H45C H 0.1186 -0.1855 0.3908
C42C C 0.0720(2) -0.1111(2) 0.4331(3)
H46C H 0.0408 -0.1132 0.3899
N4C N 0.0714(2) -0.0651(2) 0.4958(4)
C43C C 0.1170(3) -0.0619(2) 0.5590(3)
H47C H 0.1166 -0.0305 0.6019
C44C C 0.1632(2) -0.1049(3) 0.5595(4)
H48C H 0.1944 -0.1027 0.6027
Zn1_2 Zn -0.5000 -0.5000 0.01429(9)
Zn1_3 Zn -0.5000 0.5000 0.01429(9)
Zn1_4 Zn 0.5000 -0.5000 0.01429(9)
Zn1_5 Zn 0.5000 0.5000 1.01429(9)
Zn2_2 Zn -0.5000 -0.5000 0.51289(9)
Zn2_3 Zn -0.5000 0.5000 0.51289(9)
Zn2_4 Zn 0.5000 -0.5000 0.51289(9)
Zn3_2 Zn -0.0000 -0.0000 0.99946(12)
F1_2 F 0.5000 0.5000 -0.1226(7)
F12_2 F 0.0000 0.0000 -0.1421(8)
N1A_2 N 0.57021(19) 0.56367(19) 0.0142(3)
N1B_2 N 0.56367(19) 0.42979(19) 0.0142(3)
N1C_2 N 0.43633(19) 0.57021(19) 0.0142(3)
N3A_2 N 0.5673(2) 0.5685(2) 0.5092(4)
N3B_2 N 0.5685(2) 0.4327(2) 0.5092(4)
N3C_2 N 0.4315(2) 0.5673(2) 0.5092(4)
C45 C 0.5758(4) 0.3013(4) 0.2671(7)
H49 H 0.5775 0.3466 0.2712
Cl1 Cl 0.52974(17) 0.28179(15) 0.1773(2)
Cl2 Cl 0.53916(19) 0.27226(17) 0.3669(2)
Cl3 Cl 0.64521(14) 0.27544(17) 0.2638(3)
loop_
_geom_bond_atom_site_label_1
_geom_bond_atom_site_label_2
_geom_bond_site_symmetry_1
_geom_bond_site_symmetry_2
Zn1 F2 1_555 1_555
Zn2 F4 1_555 1_555
Zn3 F7 1_555 1_555
Zn4 F9 1_555 1_555
Si1 F2 1_555 1_555
Si2 F1 1_555 1_555
Si3 F7 1_555 1_555
Si4 F10 1_555 1_555
F1 Zn1_5 1_555 1_555
F3 Si1 1_555 1_555
F4 Si1 1_555 1_555
F5 Zn2 1_555 1_555
F6 Si2 1_555 1_555
F8 Si3 1_555 1_555
F9 Si3 1_555 1_555
F10 Zn4 1_555 1_555
F11 Si4 1_555 1_555
F12 Si4 1_555 1_555
N1 Zn1 1_555 1_555
C1 N1 1_555 1_555
H1 C1 1_555 1_555
C2 C1 1_555 1_555
H2 C2 1_555 1_555
C3 C2 1_555 1_555
C4 C3 1_555 1_555
H3 C4 1_555 1_555
C5 N1 1_555 1_555
H4 C5 1_555 1_555
C6 C3 1_555 1_555
C7 C6 1_555 1_555
C8 C7 1_555 1_555
H5 C8 1_555 1_555
C9 C8 1_555 1_555
C10 C9 1_555 1_555
C11 C6 1_555 1_555
H6 C11 1_555 1_555
O1 C7 1_555 1_555
C12 O1 1_555 1_555
H7 C12 1_555 1_555
H8 C12 1_555 1_555
C13 C12 1_555 1_555
H9 C13 1_555 1_555
O2 C13 1_555 1_555
H10 O2 1_555 1_555
C14 C13 1_555 1_555
H11 C14 1_555 1_555
H12 C14 1_555 1_555
H13 C14 1_555 1_555
O3 C10 1_555 1_555
C15 O3 1_555 1_555
H14 C15 1_555 1_555
H15 C15 1_555 1_555
C16 C15 1_555 1_555
H16 C16 1_555 1_555
O4 C16 1_555 1_555
H17 O4 1_555 1_555
C17 C16 1_555 1_555
H18 C17 1_555 1_555
H19 C17 1_555 1_555
H20 C17 1_555 1_555
C18 C9 1_555 1_555
C19 C18 1_555 1_555
H21 C19 1_555 1_555
C20 C19 1_555 1_555
H22 C20 1_555 1_555
N2 Zn3 1_555 1_555
C21 N2 1_555 1_555
H23 C21 1_555 1_555
C22 C18 1_555 1_555
H24 C22 1_555 1_555
N3 Zn2 1_555 1_555
C23 N3 1_555 1_555
H25 C23 1_555 1_555
C24 C23 1_555 1_555
H26 C24 1_555 1_555
C25 C24 1_555 1_555
C26 C25 1_555 1_555
H27 C26 1_555 1_555
C27 N3 1_555 1_555
H28 C27 1_555 1_555
C28 C25 1_555 1_555
C29 C28 1_555 1_555
C30 C29 1_555 1_555
H29 C30 1_555 1_555
C31 C30 1_555 1_555
C32 C31 1_555 1_555
C33 C28 1_555 1_555
H30 C33 1_555 1_555
O5 C29 1_555 1_555
C34 O5 1_555 1_555
H31 C34 1_555 1_555
H32 C34 1_555 1_555
C35 C34 1_555 1_555
H33 C35 1_555 1_555
O6 C35 1_555 1_555
H34 O6 1_555 1_555
C36 C35 1_555 1_555
H35 C36 1_555 1_555
H36 C36 1_555 1_555
H37 C36 1_555 1_555
O7 C32 1_555 1_555
C37 O7 1_555 1_555
H38 C37 1_555 1_555
H39 C37 1_555 1_555
C38 C37 1_555 1_555
H40 C38 1_555 1_555
O8 C38 1_555 1_555
H41 O8 1_555 1_555
C39 C38 1_555 1_555
H42 C39 1_555 1_555
H43 C39 1_555 1_555
H44 C39 1_555 1_555
C40 C31 1_555 1_555
C41 C40 1_555 1_555
H45 C41 1_555 1_555
C42 C41 1_555 1_555
H46 C42 1_555 1_555
N4 Zn4 1_555 1_555
C43 N4 1_555 1_555
H47 C43 1_555 1_555
C44 C40 1_555 1_555
H48 C44 1_555 1_555
C45 H49 1_555 1_555
Cl1 C45 1_555 1_555
Cl2 C45 1_555 1_555
Cl3 C45 1_555 1_555
F3A Si1 1_555 1_555
F3B Si1 1_555 1_555
F3C Si1 1_555 1_555
F6A Si2 1_555 1_555
F6B Si2 1_555 1_555
F6C Si2 1_555 1_555
F8A Si3 1_555 1_555
F8B Si3 1_555 1_555
F8C Si3 1_555 1_555
F11A Si4 1_555 1_555
F11B Si4 1_555 1_555
F11C Si4 1_555 1_555
N1A C1A 1_555 1_555
C1A H1A 1_555 1_555
C2A C1A 1_555 1_555
H2A C2A 1_555 1_555
C3A C2A 1_555 1_555
C4A C3A 1_555 1_555
H3A C4A 1_555 1_555
C5A N1A 1_555 1_555
H4A C5A 1_555 1_555
C6A C3A 1_555 1_555
C7A C6A 1_555 1_555
C8A C7A 1_555 1_555
H5A C8A 1_555 1_555
C9A C8A 1_555 1_555
C10A C9A 1_555 1_555
C11A C6A 1_555 1_555
H6A C11A 1_555 1_555
O1A C7A 1_555 1_555
C12A O1A 1_555 1_555
H7A C12A 1_555 1_555
H8A C12A 1_555 1_555
C13A C12A 1_555 1_555
H9A C13A 1_555 1_555
O2A C13A 1_555 1_555
H10A O2A 1_555 1_555
C14A C13A 1_555 1_555
H11A C14A 1_555 1_555
H12A C14A 1_555 1_555
H13A C14A 1_555 1_555
O3A C10A 1_555 1_555
C15A O3A 1_555 1_555
H14A C15A 1_555 1_555
H15A C15A 1_555 1_555
C16A C15A 1_555 1_555
H16A C16A 1_555 1_555
O4A C16A 1_555 1_555
H17A O4A 1_555 1_555
C17A C16A 1_555 1_555
H18A C17A 1_555 1_555
H19A C17A 1_555 1_555
H20A C17A 1_555 1_555
C18A C9A 1_555 1_555
C19A C18A 1_555 1_555
H21A C19A 1_555 1_555
C20A C19A 1_555 1_555
H22A C20A 1_555 1_555
N2A Zn3 1_555 1_555
C21A N2A 1_555 1_555
H23A C21A 1_555 1_555
C22A C18A 1_555 1_555
H24A C22A 1_555 1_555
N3A C23A 1_555 1_555
C23A H25A 1_555 1_555
C24A C23A 1_555 1_555
H26A C24A 1_555 1_555
C25A C24A 1_555 1_555
C26A C25A 1_555 1_555
H27A C26A 1_555 1_555
C27A N3A 1_555 1_555
H28A C27A 1_555 1_555
C28A C25A 1_555 1_555
C29A C28A 1_555 1_555
C30A C29A 1_555 1_555
H29A C30A 1_555 1_555
C31A C30A 1_555 1_555
C32A C31A 1_555 1_555
C33A C28A 1_555 1_555
H30A C33A 1_555 1_555
O5A C29A 1_555 1_555
C34A O5A 1_555 1_555
H31A C34A 1_555 1_555
H32A C34A 1_555 1_555
C35A C34A 1_555 1_555
H33A C35A 1_555 1_555
O6A C35A 1_555 1_555
H34A O6A 1_555 1_555
C36A C35A 1_555 1_555
H35A C36A 1_555 1_555
H36A C36A 1_555 1_555
H37A C36A 1_555 1_555
O7A C32A 1_555 1_555
C37A O7A 1_555 1_555
H38A C37A 1_555 1_555
H39A C37A 1_555 1_555
C38A C37A 1_555 1_555
H40A C38A 1_555 1_555
O8A C38A 1_555 1_555
H41A O8A 1_555 1_555
C39A C38A 1_555 1_555
H42A C39A 1_555 1_555
H43A C39A 1_555 1_555
H44A C39A 1_555 1_555
C40A C31A 1_555 1_555
C41A C40A 1_555 1_555
H45A C41A 1_555 1_555
C42A C41A 1_555 1_555
H46A C42A 1_555 1_555
N4A Zn4 1_555 1_555
C43A N4A 1_555 1_555
H47A C43A 1_555 1_555
C44A C40A 1_555 1_555
H48A C44A 1_555 1_555
N1B C1B 1_555 1_555
C1B H1B 1_555 1_555
C2B C1B 1_555 1_555
H2B C2B 1_555 1_555
C3B C2B 1_555 1_555
C4B C3B 1_555 1_555
H3B C4B 1_555 1_555
C5B N1B 1_555 1_555
H4B C5B 1_555 1_555
C6B C3B 1_555 1_555
C7B C6B 1_555 1_555
C8B C7B 1_555 1_555
H5B C8B 1_555 1_555
C9B C8B 1_555 1_555
C10B C9B 1_555 1_555
C11B C6B 1_555 1_555
H6B C11B 1_555 1_555
O1B C7B 1_555 1_555
C12B O1B 1_555 1_555
H7B C12B 1_555 1_555
H8B C12B 1_555 1_555
C13B C12B 1_555 1_555
H9B C13B 1_555 1_555
O2B C13B 1_555 1_555
H10B O2B 1_555 1_555
C14B C13B 1_555 1_555
H11B C14B 1_555 1_555
H12B C14B 1_555 1_555
H13B C14B 1_555 1_555
O3B C10B 1_555 1_555
C15B O3B 1_555 1_555
H14B C15B 1_555 1_555
H15B C15B 1_555 1_555
C16B C15B 1_555 1_555
H16B C16B 1_555 1_555
O4B C16B 1_555 1_555
H17B O4B 1_555 1_555
C17B C16B 1_555 1_555
H18B C17B 1_555 1_555
H19B C17B 1_555 1_555
H20B C17B 1_555 1_555
C18B C9B 1_555 1_555
C19B C18B 1_555 1_555
H21B C19B 1_555 1_555
C20B C19B 1_555 1_555
H22B C20B 1_555 1_555
N2B Zn3 1_555 1_555
C21B N2B 1_555 1_555
H23B C21B 1_555 1_555
C22B C18B 1_555 1_555
H24B C22B 1_555 1_555
N3B C23B 1_555 1_555
C23B H25B 1_555 1_555
C24B C23B 1_555 1_555
H26B C24B 1_555 1_555
C25B C24B 1_555 1_555
C26B C25B 1_555 1_555
H27B C26B 1_555 1_555
C27B N3B 1_555 1_555
H28B C27B 1_555 1_555
C28B C25B 1_555 1_555
C29B C28B 1_555 1_555
C30B C29B 1_555 1_555
H29B C30B 1_555 1_555
C31B C30B 1_555 1_555
C32B C31B 1_555 1_555
C33B C28B 1_555 1_555
H30B C33B 1_555 1_555
O5B C29B 1_555 1_555
C34B O5B 1_555 1_555
H31B C34B 1_555 1_555
H32B C34B 1_555 1_555
C35B C34B 1_555 1_555
H33B C35B 1_555 1_555
O6B C35B 1_555 1_555
H34B O6B 1_555 1_555
C36B C35B 1_555 1_555
H35B C36B 1_555 1_555
H36B C36B 1_555 1_555
H37B C36B 1_555 1_555
O7B C32B 1_555 1_555
C37B O7B 1_555 1_555
H38B C37B 1_555 1_555
H39B C37B 1_555 1_555
C38B C37B 1_555 1_555
H40B C38B 1_555 1_555
O8B C38B 1_555 1_555
H41B O8B 1_555 1_555
C39B C38B 1_555 1_555
H42B C39B 1_555 1_555
H43B C39B 1_555 1_555
H44B C39B 1_555 1_555
C40B C31B 1_555 1_555
C41B C40B 1_555 1_555
H45B C41B 1_555 1_555
C42B C41B 1_555 1_555
H46B C42B 1_555 1_555
N4B Zn4 1_555 1_555
C43B N4B 1_555 1_555
H47B C43B 1_555 1_555
C44B C40B 1_555 1_555
H48B C44B 1_555 1_555
N1C C1C 1_555 1_555
C1C H1C 1_555 1_555
C2C C1C 1_555 1_555
H2C C2C 1_555 1_555
C3C C2C 1_555 1_555
C4C C3C 1_555 1_555
H3C C4C 1_555 1_555
C5C N1C 1_555 1_555
H4C C5C 1_555 1_555
C6C C3C 1_555 1_555
C7C C6C 1_555 1_555
C8C C7C 1_555 1_555
H5C C8C 1_555 1_555
C9C C8C 1_555 1_555
C10C C9C 1_555 1_555
C11C C6C 1_555 1_555
H6C C11C 1_555 1_555
O1C C7C 1_555 1_555
C12C O1C 1_555 1_555
H7C C12C 1_555 1_555
H8C C12C 1_555 1_555
C13C C12C 1_555 1_555
H9C C13C 1_555 1_555
O2C C13C 1_555 1_555
H10C O2C 1_555 1_555
C14C C13C 1_555 1_555
H11C C14C 1_555 1_555
H12C C14C 1_555 1_555
H13C C14C 1_555 1_555
O3C C10C 1_555 1_555
C15C O3C 1_555 1_555
H14C C15C 1_555 1_555
H15C C15C 1_555 1_555
C16C C15C 1_555 1_555
H16C C16C 1_555 1_555
O4C C16C 1_555 1_555
H17C O4C 1_555 1_555
C17C C16C 1_555 1_555
H18C C17C 1_555 1_555
H19C C17C 1_555 1_555
H20C C17C 1_555 1_555
C18C C9C 1_555 1_555
C19C C18C 1_555 1_555
H21C C19C 1_555 1_555
C20C C19C 1_555 1_555
H22C C20C 1_555 1_555
N2C Zn3 1_555 1_555
C21C N2C 1_555 1_555
H23C C21C 1_555 1_555
C22C C18C 1_555 1_555
H24C C22C 1_555 1_555
N3C C23C 1_555 1_555
C23C H25C 1_555 1_555
C24C C23C 1_555 1_555
H26C C24C 1_555 1_555
C25C C24C 1_555 1_555
C26C C25C 1_555 1_555
H27C C26C 1_555 1_555
C27C N3C 1_555 1_555
H28C C27C 1_555 1_555
C28C C25C 1_555 1_555
C29C C28C 1_555 1_555
C30C C29C 1_555 1_555
H29C C30C 1_555 1_555
C31C C30C 1_555 1_555
C32C C31C 1_555 1_555
C33C C28C 1_555 1_555
H30C C33C 1_555 1_555
O5C C29C 1_555 1_555
C34C O5C 1_555 1_555
H31C C34C 1_555 1_555
H32C C34C 1_555 1_555
C35C C34C 1_555 1_555
H33C C35C 1_555 1_555
O6C C35C 1_555 1_555
H34C O6C 1_555 1_555
C36C C35C 1_555 1_555
H35C C36C 1_555 1_555
H36C C36C 1_555 1_555
H37C C36C 1_555 1_555
O7C C32C 1_555 1_555
C37C O7C 1_555 1_555
H38C C37C 1_555 1_555
H39C C37C 1_555 1_555
C38C C37C 1_555 1_555
H40C C38C 1_555 1_555
O8C C38C 1_555 1_555
H41C O8C 1_555 1_555
C39C C38C 1_555 1_555
H42C C39C 1_555 1_555
H43C C39C 1_555 1_555
H44C C39C 1_555 1_555
C40C C31C 1_555 1_555
C41C C40C 1_555 1_555
H45C C41C 1_555 1_555
C42C C41C 1_555 1_555
H46C C42C 1_555 1_555
N4C Zn4 1_555 1_555
C43C N4C 1_555 1_555
H47C C43C 1_555 1_555
C44C C40C 1_555 1_555
H48C C44C 1_555 1_555
Zn1_2 N1A 1_555 1_555
Zn1_3 N1B 1_555 1_555
Zn1_4 N1C 1_555 1_555
Zn2_2 N3A 1_555 1_555
Zn2_3 N3B 1_555 1_555
Zn2_4 N3C 1_555 1_555
Zn3_2 F12 1_555 1_555
F1_2 Zn1 1_555 1_555
F12_2 Zn3 1_555 1_555
N1A_2 Zn1 1_555 1_555
N1B_2 Zn1 1_555 1_555
N1C_2 Zn1 1_555 1_555
N3A_2 Zn2 1_555 1_555
N3B_2 Zn2 1_555 1_555
N3C_2 Zn2 1_555 1_555
Si2 F5 1_555 1_555
C4 C5 1_555 1_555
C10 C11 1_555 1_555
C20 N2 1_555 1_555
C21 C22 1_555 1_555
C26 C27 1_555 1_555
C32 C33 1_555 1_555
C42 N4 1_555 1_555
C43 C44 1_555 1_555
C4A C5A 1_555 1_555
C10A C11A 1_555 1_555
C20A N2A 1_555 1_555
C21A C22A 1_555 1_555
C26A C27A 1_555 1_555
C32A C33A 1_555 1_555
C42A N4A 1_555 1_555
C43A C44A 1_555 1_555
C4B C5B 1_555 1_555
C10B C11B 1_555 1_555
C20B N2B 1_555 1_555
C21B C22B 1_555 1_555
C26B C27B 1_555 1_555
C32B C33B 1_555 1_555
C42B N4B 1_555 1_555
C43B C44B 1_555 1_555
C4C C5C 1_555 1_555
C10C C11C 1_555 1_555
C20C N2C 1_555 1_555
C21C C22C 1_555 1_555
C26C C27C 1_555 1_555
C32C C33C 1_555 1_555
C42C N4C 1_555 1_555
C43C C44C 1_555 1_555

#END
