
#######################################################################
#
#                 Cambridge Crystallographic Data Centre
#                                CCDC 
#
#######################################################################
#
# If this CIF has been generated from an entry in the Cambridge 
# Structural Database, then it will include bibliographic, chemical, 
# crystal, experimental, refinement or atomic coordinate data resulting 
# from the CCDC's data processing and validation procedures.
#
#######################################################################

data_GOYYAW
_chemical_formula_moiety         '(C28 H20 Ag2 Ho2 N4 O18)n'
_symmetry_cell_setting           monoclinic
_symmetry_space_group_name_H-M   'C 2/c'
_symmetry_Int_Tables_number      15
_space_group_name_Hall           '-C 2yc'
loop_
_symmetry_equiv_pos_site_id
_symmetry_equiv_pos_as_xyz
1 x,y,z
2 -x,y,1/2-z
3 1/2+x,1/2+y,z
4 1/2-x,1/2+y,1/2-z
5 -x,-y,-z
6 x,-y,1/2+z
7 1/2-x,1/2-y,-z
8 1/2+x,1/2-y,1/2+z
_cell_length_a                   22.162(9)
_cell_length_b                   9.459(4)
_cell_length_c                   16.683(7)
_cell_angle_alpha                90
_cell_angle_beta                 96.586(5)
_cell_angle_gamma                90
_cell_volume                     3474.18
loop_
_atom_site_label
_atom_site_type_symbol
_atom_site_fract_x
_atom_site_fract_y
_atom_site_fract_z
Ho1 Ho -0.00471(2) 0.29872(5) 0.56590(3)
O1 O 0.0582(3) 0.0936(7) 0.5582(4)
C1 C 0.2080(7) 0.3684(16) 0.5891(9)
H1 H 0.1829 0.3155 0.6186
O2 O 0.0598(4) 0.2705(8) 0.6916(5)
C2 C 0.0950(6) 0.3835(12) 0.2702(7)
H2 H 0.0948 0.4805 0.2795
O3 O 0.0066(4) 0.2677(8) 0.4267(4)
O4 O 0.0828(4) 0.4128(8) 0.5445(5)
C3 C 0.1837(5) 0.4773(11) 0.5351(6)
O5 O 0.0192(4) 0.4816(8) 0.3773(5)
C4 C 0.0672(6) 0.1475(12) 0.3000(7)
H3 H 0.0484 0.0820 0.3305
O6 O 0.1011(3) 0.6231(8) 0.4923(5)
C5 C 0.0348(5) 0.0001(11) 0.5116(6)
C6 C 0.2230(5) 0.5494(13) 0.4942(7)
H4 H 0.2072 0.6204 0.4593
O7 O 0.0614(4) 0.2430(8) 0.8249(4)
C7 C 0.2697(8) 0.3446(17) 0.5958(9)
H5 H 0.2866 0.2759 0.6314
C8 C 0.1177(5) 0.5059(11) 0.5235(6)
C9 C 0.0264(5) 0.3538(12) 0.3785(6)
C10 C 0.0982(6) 0.1047(13) 0.2387(7)
H6 H 0.0989 0.0084 0.2276
N1 N 0.2838(5) 0.5261(12) 0.5002(6)
C11 C 0.3064(7) 0.4204(17) 0.5511(8)
H7 H 0.3477 0.3996 0.5553
C12 C 0.0349(5) 0.2552(11) 0.7554(7)
O8 O 0.0631(3) -0.0976(7) 0.4794(4)
C13 C 0.1253(6) 0.3279(14) 0.2114(7)
H8 H 0.1460 0.3901 0.1811
C14 C 0.0642(5) 0.2914(11) 0.3160(6)
N2 N 0.1276(5) 0.1897(12) 0.1937(6)
Ag1 Ag 0.15842(5) -0.12398(15) 0.58018(7)
O1D O -0.0582(3) -0.0936(7) 0.4418(4)
C5D C -0.0348(5) -0.0001(11) 0.4884(6)
O8D O -0.0631(3) 0.0976(7) 0.5206(4)
O2A O -0.0598(4) 0.2705(8) 0.8084(5)
O7A O -0.0614(4) 0.2430(8) 0.6751(4)
C12A C -0.0349(5) 0.2552(11) 0.7446(7)
Ho1A Ho 0.00471(2) 0.29872(5) 0.93410(3)
C1A C -0.2080(7) 0.3684(16) 0.9109(9)
H1A H -0.1829 0.3155 0.8814
C2A C -0.0950(6) 0.3835(12) 1.2298(7)
H2A H -0.0948 0.4805 1.2205
O3A O -0.0066(4) 0.2677(8) 1.0733(4)
O4A O -0.0828(4) 0.4128(8) 0.9555(5)
C3A C -0.1837(5) 0.4773(11) 0.9649(6)
O5A O -0.0192(4) 0.4816(8) 1.1227(5)
C4A C -0.0672(6) 0.1475(12) 1.2000(7)
H3A H -0.0484 0.0820 1.1695
O6A O -0.1011(3) 0.6231(8) 1.0077(5)
C6A C -0.2230(5) 0.5494(13) 1.0058(7)
H4A H -0.2072 0.6204 1.0407
C7A C -0.2697(8) 0.3446(17) 0.9042(9)
H5A H -0.2866 0.2759 0.8686
C8A C -0.1177(5) 0.5059(11) 0.9765(6)
C9A C -0.0264(5) 0.3538(12) 1.1215(6)
C10A C -0.0982(6) 0.1047(13) 1.2613(7)
H6A H -0.0989 0.0084 1.2724
N1A N -0.2838(5) 0.5261(12) 0.9998(6)
C11A C -0.3064(7) 0.4204(17) 0.9489(8)
H7A H -0.3477 0.3996 0.9447
C13A C -0.1253(6) 0.3279(14) 1.2886(7)
H8A H -0.1460 0.3901 1.3189
C14A C -0.0642(5) 0.2914(11) 1.1840(6)
N2A N -0.1276(5) 0.1897(12) 1.3063(6)
Ag1F Ag 0.34158(5) 0.62398(15) 0.41982(7)
Ho1D Ho 0.00471(2) -0.29872(5) 0.43410(3)
Ho1D_2 Ho 0.00471(2) 0.70128(5) 0.43410(3)
Ho1E Ho -0.00471(2) 0.70128(5) 1.06590(3)
O1A O -0.0582(3) 0.0936(7) 0.9418(4)
O5D O -0.0192(4) 0.5184(8) 0.6227(5)
O5E O 0.0192(4) 0.5184(8) 0.8773(5)
O6D O -0.1011(3) 0.3769(8) 0.5077(5)
O6E O 0.1011(3) 0.3769(8) 0.9923(5)
N1F N 0.2162(5) -0.0261(12) 0.4998(6)
O8E O 0.0631(3) 0.0976(7) 0.9794(4)
O8F O 0.4369(3) 0.5976(7) 0.5206(4)
N2C N 0.3724(5) 0.6897(12) 0.3063(6)
N2E N 0.1276(5) -0.1897(12) 0.6937(6)
Ag1D Ag -0.15842(5) 0.12398(15) 0.41982(7)
Ag1D_2 Ag -0.15842(5) 0.12398(15) 1.41982(7)
Ag1E Ag 0.15842(5) 0.12398(15) 0.08018(7)
Ag1G Ag -0.34158(5) 0.62398(15) 1.08018(7)
O9 O 0.1952(8) 0.746(2) 0.3119(13)
H9 H 0.1578 0.7319 0.3006
H10 H 0.1956 0.8333 0.3015
O10 O 0.2445(9) 0.945(3) 0.2081(17)
H11 H 0.2607 1.0256 0.2021
H12 H 0.2674 0.8857 0.2337
loop_
_geom_bond_atom_site_label_1
_geom_bond_atom_site_label_2
_geom_bond_site_symmetry_1
_geom_bond_site_symmetry_2
Ho1 O1 1_555 1_555
O1 C5 1_555 1_555
C1 H1 1_555 1_555
O2 Ho1 1_555 1_555
C2 H2 1_555 1_555
O3 Ho1 1_555 1_555
O4 Ho1 1_555 1_555
C3 C1 1_555 1_555
O5 C9 1_555 1_555
C4 H3 1_555 1_555
O6 C8 1_555 1_555
C5 O8 1_555 1_555
C6 C3 1_555 1_555
H4 C6 1_555 1_555
O7 C12 1_555 1_555
C7 C1 1_555 1_555
H5 C7 1_555 1_555
C8 O4 1_555 1_555
C9 O3 1_555 1_555
C10 C4 1_555 1_555
H6 C10 1_555 1_555
N1 C6 1_555 1_555
C11 C7 1_555 1_555
H7 C11 1_555 1_555
C12 O2 1_555 1_555
O8 Ag1 1_555 1_555
C13 C2 1_555 1_555
H8 C13 1_555 1_555
C14 C2 1_555 1_555
N2 C10 1_555 1_555
Ag1 N1F 1_555 1_555
O9 H9 1_555 1_555
H10 O9 1_555 1_555
O10 H11 1_555 1_555
H12 O10 1_555 1_555
O1D C5D 1_555 1_555
C5D C5 1_555 1_555
O8D Ho1 1_555 1_555
O2A C12A 1_555 1_555
O7A Ho1 1_555 1_555
C12A C12 1_555 1_555
Ho1A O7 1_555 1_555
C1A H1A 1_555 1_555
C2A H2A 1_555 1_555
O3A Ho1A 1_555 1_555
O4A Ho1A 1_555 1_555
C3A C1A 1_555 1_555
O5A C9A 1_555 1_555
C4A H3A 1_555 1_555
O6A C8A 1_555 1_555
C6A C3A 1_555 1_555
H4A C6A 1_555 1_555
C7A C1A 1_555 1_555
H5A C7A 1_555 1_555
C8A O4A 1_555 1_555
C9A O3A 1_555 1_555
C10A C4A 1_555 1_555
H6A C10A 1_555 1_555
N1A C6A 1_555 1_555
C11A C7A 1_555 1_555
H7A C11A 1_555 1_555
C13A C2A 1_555 1_555
H8A C13A 1_555 1_555
C14A C2A 1_555 1_555
N2A C10A 1_555 1_555
Ag1F N1 1_555 1_555
Ho1D O8 1_555 1_555
Ho1D_2 O5 1_555 1_555
Ho1E O5A 1_555 1_555
O1A Ho1A 1_555 1_555
O5D Ho1 1_555 1_555
O5E Ho1A 1_555 1_555
O6D Ho1 1_555 1_555
O6E Ho1A 1_555 1_555
O8E Ho1A 1_555 1_555
O8F Ag1F 1_555 1_555
N2C Ag1F 1_555 1_555
N2E Ag1 1_555 1_555
Ag1D O8D 1_555 1_555
Ag1D_2 N2A 1_555 1_555
Ag1E N2 1_555 1_555
Ag1G N1A 1_555 1_555
C3 C8 1_555 1_555
C4 C14 1_555 1_555
O6 Ho1D_2 1_555 1_555
C9 C14 1_555 1_555
N1 C11 1_555 1_555
C13 N2 1_555 1_555
O1D Ho1D 1_555 1_555
C5D O8D 1_555 1_555
O2A Ho1A 1_555 1_555
O7A C12A 1_555 1_555
C3A C8A 1_555 1_555
C4A C14A 1_555 1_555
O6A Ho1E 1_555 1_555
C9A C14A 1_555 1_555
N1A C11A 1_555 1_555
C13A N2A 1_555 1_555

#END
