
#######################################################################
#
#                 Cambridge Crystallographic Data Centre
#                                CCDC 
#
#######################################################################
#
# If this CIF has been generated from an entry in the Cambridge 
# Structural Database, then it will include bibliographic, chemical, 
# crystal, experimental, refinement or atomic coordinate data resulting 
# from the CCDC's data processing and validation procedures.
#
#######################################################################

data_QUQWUW
_chemical_formula_moiety         '(C20 H20 N6 O9 Zn2)n'
_symmetry_cell_setting           monoclinic
_symmetry_space_group_name_H-M   'C 2/m'
_symmetry_Int_Tables_number      12
_space_group_name_Hall           '-C 2y'
loop_
_symmetry_equiv_pos_site_id
_symmetry_equiv_pos_as_xyz
1 x,y,z
2 -x,y,-z
3 1/2+x,1/2+y,z
4 1/2-x,1/2+y,-z
5 -x,-y,-z
6 x,-y,z
7 1/2-x,1/2-y,-z
8 1/2+x,1/2-y,z
_cell_length_a                   18.8226(10)
_cell_length_b                   18.6427(8)
_cell_length_c                   14.2485(5)
_cell_angle_alpha                90
_cell_angle_beta                 130.175(3)
_cell_angle_gamma                90
_cell_volume                     3820.28
loop_
_atom_site_label
_atom_site_type_symbol
_atom_site_fract_x
_atom_site_fract_y
_atom_site_fract_z
Zn1 Zn -0.47005(5) 0.5000 0.12682(6)
Zn2 Zn 0.0000 0.09694(4) 0.5000
C1 C -0.3141(4) 0.3387(3) 0.1175(4)
C2 C -0.3103(4) 0.3169(3) 0.0277(4)
H1 H -0.3475 0.3398 -0.0481
C3 C -0.2521(4) 0.2613(3) 0.0486(4)
C4 C -0.1993(4) 0.2285(3) 0.1618(5)
H2 H -0.1587 0.1921 0.1787
C5 C -0.2041(4) 0.2472(3) 0.2511(5)
C6 C -0.2613(4) 0.3040(3) 0.2294(5)
H3 H -0.2638 0.3184 0.2897
C7 C -0.3781(3) 0.3992(2) 0.0878(4)
C8 C -0.1440(4) 0.2067(3) 0.3715(5)
C9 C -0.4642(3) 0.4427(2) 0.3306(4)
N1 N -0.4602(4) 0.5000 0.2757(5)
N2 N -0.4723(3) 0.46210(18) 0.4125(3)
N3 N -0.4610(4) 0.3742(2) 0.3042(4)
H4 H -0.4644 0.3399 0.3414
H5 H -0.4556 0.3647 0.2499
O1 O -0.3790(3) 0.4205(2) 0.1703(3)
O2 O -0.4264(3) 0.4243(2) -0.0178(3)
O3 O -0.1440(4) 0.2205(3) 0.4552(4)
O4 O -0.0996(4) 0.1566(3) 0.3733(4)
C1F C -0.1859(4) 0.1613(3) -0.1175(4)
C2F C -0.1897(4) 0.1831(3) -0.0277(4)
H1F H -0.1525 0.1602 0.0481
C3F C -0.2479(4) 0.2387(3) -0.0486(4)
C4F C -0.3007(4) 0.2715(3) -0.1618(5)
H2F H -0.3413 0.3079 -0.1787
C5F C -0.2959(4) 0.2528(3) -0.2511(5)
C6F C -0.2387(4) 0.1960(3) -0.2294(5)
H3F H -0.2362 0.1816 -0.2897
C7F C -0.1219(3) 0.1008(2) -0.0878(4)
C8F C -0.3560(4) 0.2933(3) -0.3715(5)
O1F O -0.1210(3) 0.0795(2) -0.1703(3)
O2F O -0.0736(3) 0.0757(2) 0.0178(3)
O3F O -0.3560(4) 0.2795(3) -0.4552(4)
O4F O -0.4004(4) 0.3434(3) -0.3733(4)
C9E C -0.4642(3) 0.5573(2) 0.3306(4)
N2E N -0.4723(3) 0.53790(18) 0.4125(3)
N3E N -0.4610(4) 0.6258(2) 0.3042(4)
H4E H -0.4644 0.6601 0.3414
H5E H -0.4556 0.6353 0.2499
Zn1A Zn -0.52995(5) 0.5000 -0.12682(6)
Zn1B Zn 0.02995(5) -0.0000 0.12682(6)
Zn1C Zn -0.02995(5) 0.0000 -0.12682(6)
Zn2B Zn -0.5000 0.59694(4) 0.5000
Zn2F Zn -0.5000 0.40306(4) -0.5000
Zn2F_2 Zn -0.5000 0.40306(4) 0.5000
N2F N -0.0277(3) 0.03790(18) 0.5875(3)
N2G N 0.0277(3) 0.03790(18) 0.4125(3)
O1E O -0.3790(3) 0.5795(2) 0.1703(3)
O2A O -0.5736(3) 0.4243(2) 0.0178(3)
O2D O -0.5736(3) 0.5757(2) 0.0178(3)
O4A O 0.0996(4) 0.1566(3) 0.6267(4)
C10 C -0.175(2) 0.4131(9) 0.580(3)
H6 H -0.1364 0.3799 0.5786
H7 H -0.1661 0.4056 0.6537
H8 H -0.2386 0.4056 0.5097
N4 N -0.139(4) 0.5000 0.594(8)
H9 H -0.1252 0.5000 0.5433
H10 H -0.0827 0.5000 0.6699
C10E C -0.175(2) 0.5869(9) 0.580(3)
H6E H -0.1364 0.6201 0.5786
H7E H -0.1661 0.5944 0.6537
H8E H -0.2386 0.5944 0.5097
O5 O -0.731(4) 0.5000 0.093(3)
loop_
_geom_bond_atom_site_label_1
_geom_bond_atom_site_label_2
_geom_bond_site_symmetry_1
_geom_bond_site_symmetry_2
Zn1 N1 1_555 1_555
Zn2 O4 1_555 1_555
C1 C2 1_555 1_555
C2 H1 1_555 1_555
C3 C2 1_555 1_555
C4 C3 1_555 1_555
H2 C4 1_555 1_555
C5 C4 1_555 1_555
C6 C1 1_555 1_555
H3 C6 1_555 1_555
C7 C1 1_555 1_555
C8 C5 1_555 1_555
C9 N1 1_555 1_555
N1 C9E 1_555 1_555
N2 C9 1_555 1_555
N3 C9 1_555 1_555
H4 N3 1_555 1_555
H5 N3 1_555 1_555
O1 Zn1 1_555 1_555
O2 C7 1_555 1_555
O3 C8 1_555 1_555
O4 C8 1_555 1_555
C10 H6 1_555 1_555
H7 C10 1_555 1_555
H8 C10 1_555 1_555
N4 C10 1_555 1_555
H9 N4 1_555 1_555
H10 N4 1_555 1_555
C1F C2F 1_555 1_555
C2F H1F 1_555 1_555
C3F C3 1_555 1_555
C4F C3F 1_555 1_555
H2F C4F 1_555 1_555
C5F C4F 1_555 1_555
C6F C1F 1_555 1_555
H3F C6F 1_555 1_555
C7F C1F 1_555 1_555
C8F C5F 1_555 1_555
O1F C7F 1_555 1_555
O2F C7F 1_555 1_555
O3F C8F 1_555 1_555
O4F C8F 1_555 1_555
C9E N2E 1_555 1_555
N2E N2 1_555 1_555
N3E C9E 1_555 1_555
H4E N3E 1_555 1_555
H5E N3E 1_555 1_555
Zn1A O2 1_555 1_555
Zn1B O2F 1_555 1_555
Zn1C O1F 1_555 1_555
Zn2B N2E 1_555 1_555
Zn2F O4F 1_555 1_555
Zn2F_2 N2 1_555 1_555
N2F Zn2 1_555 1_555
N2G Zn2 1_555 1_555
O1E Zn1 1_555 1_555
O2A Zn1 1_555 1_555
O2D Zn1 1_555 1_555
O4A Zn2 1_555 1_555
C10E N4 1_555 1_555
H6E C10E 1_555 1_555
H7E C10E 1_555 1_555
H8E C10E 1_555 1_555
C5 C6 1_555 1_555
C7 O1 1_555 1_555
C2F C3F 1_555 1_555
C5F C6F 1_555 1_555

#END
