
#######################################################################
#
#                 Cambridge Crystallographic Data Centre
#                                CCDC 
#
#######################################################################
#
# If this CIF has been generated from an entry in the Cambridge 
# Structural Database, then it will include bibliographic, chemical, 
# crystal, experimental, refinement or atomic coordinate data resulting 
# from the CCDC's data processing and validation procedures.
#
#######################################################################

data_QUQWOQ
_chemical_formula_moiety         '(C36 H30 N11 O12 Zn3 1-)n'
_symmetry_cell_setting           monoclinic
_symmetry_space_group_name_H-M   'C 2/c'
_symmetry_Int_Tables_number      15
_space_group_name_Hall           '-C 2yc'
loop_
_symmetry_equiv_pos_site_id
_symmetry_equiv_pos_as_xyz
1 x,y,z
2 -x,y,1/2-z
3 1/2+x,1/2+y,z
4 1/2-x,1/2+y,1/2-z
5 -x,-y,-z
6 x,-y,1/2+z
7 1/2-x,1/2-y,-z
8 1/2+x,1/2-y,1/2+z
_cell_length_a                   28.3006(15)
_cell_length_b                   20.085(3)
_cell_length_c                   15.4335(12)
_cell_angle_alpha                90
_cell_angle_beta                 92.498(5)
_cell_angle_gamma                90
_cell_volume                     8764.34
loop_
_atom_site_label
_atom_site_type_symbol
_atom_site_fract_x
_atom_site_fract_y
_atom_site_fract_z
Zn1 Zn 0.5000 0.29271(5) 1.2500
Zn2 Zn 0.064887(16) 0.00518(4) 1.01129(3)
C1 C 0.03607(15) 0.1201(3) 0.8995(3)
C2 C -0.03743(15) 0.1096(4) 0.8791(3)
C3 C 0.37618(16) 0.1882(4) 1.2845(3)
C4 C 0.36108(17) 0.1416(4) 1.3427(4)
H1 H 0.3829 0.1244 1.3836
C5 C 0.31533(19) 0.1196(4) 1.3429(4)
H2 H 0.3063 0.0889 1.3842
C6 C 0.28213(16) 0.1435(4) 1.2803(3)
C7 C 0.29709(19) 0.1892(5) 1.2232(4)
H3 H 0.2756 0.2055 1.1811
C8 C 0.34359(18) 0.2130(5) 1.2251(4)
H4 H 0.3523 0.2455 1.1860
C9 C 0.42629(19) 0.2124(4) 1.2887(4)
C10 C 0.23197(15) 0.1194(3) 1.2773(3)
C11 C 0.20961(17) 0.1049(4) 1.3531(3)
H5 H 0.2251 0.1133 1.4063
C12 C 0.16436(16) 0.0778(4) 1.3508(3)
C13 C 0.14033(15) 0.0697(3) 1.2694(3)
H6 H 0.1098 0.0524 1.2667
C14 C 0.16134(15) 0.0867(3) 1.1953(3)
C15 C 0.20712(17) 0.1142(4) 1.1995(3)
H7 H 0.2206 0.1290 1.1490
C16 C 0.13984(17) 0.0598(4) 1.4314(3)
C17 C 0.13449(17) 0.0767(4) 1.1089(3)
O1 O 0.43677(10) 0.2567(2) 1.2351(2)
O2 O 0.45543(14) 0.1887(4) 1.3404(3)
O3 O 0.15649(15) 0.0757(4) 1.5020(2)
O4 O 0.10193(11) 0.0286(3) 1.4199(2)
O5 O 0.14792(13) 0.1035(3) 1.0427(2)
O6 O 0.09906(11) 0.0395(3) 1.1122(2)
N1 N 0.02345(11) 0.0704(3) 0.9529(2)
N2 N -0.02529(11) 0.0645(3) 0.9379(2)
N3 N -0.00117(11) 0.1473(3) 0.8525(2)
N4 N 0.08068(13) 0.1416(4) 0.8941(3)
H8 H 0.1030 0.1237 0.9256
H9 H 0.0870 0.1734 0.8591
N5 N -0.08319(13) 0.1199(4) 0.8477(4)
H10 H -0.1058 0.0962 0.8665
H11 H -0.0891 0.1502 0.8092
Zn2A Zn 0.935113(16) 0.00518(4) 1.48871(3)
C1A C 0.96393(15) 0.1201(3) 1.6005(3)
C2A C 1.03743(15) 0.1096(4) 1.6209(3)
C3A C 0.62382(16) 0.1882(4) 1.2155(3)
C4A C 0.63892(17) 0.1416(4) 1.1573(4)
H1A H 0.6171 0.1244 1.1164
C5A C 0.68467(19) 0.1196(4) 1.1571(4)
H2A H 0.6937 0.0889 1.1158
C6A C 0.71787(16) 0.1435(4) 1.2197(3)
C7A C 0.70291(19) 0.1892(5) 1.2768(4)
H3A H 0.7244 0.2055 1.3189
C8A C 0.65641(18) 0.2130(5) 1.2749(4)
H4A H 0.6477 0.2455 1.3140
C9A C 0.57371(19) 0.2124(4) 1.2113(4)
C10A C 0.76803(15) 0.1194(3) 1.2227(3)
C11A C 0.79039(17) 0.1049(4) 1.1469(3)
H5A H 0.7749 0.1133 1.0937
C12A C 0.83564(16) 0.0778(4) 1.1492(3)
C13A C 0.85967(15) 0.0697(3) 1.2306(3)
H6A H 0.8902 0.0524 1.2333
C14A C 0.83866(15) 0.0867(3) 1.3047(3)
C15A C 0.79288(17) 0.1142(4) 1.3005(3)
H7A H 0.7794 0.1290 1.3510
C16A C 0.86016(17) 0.0598(4) 1.0686(3)
C17A C 0.86551(17) 0.0767(4) 1.3911(3)
O1A O 0.56323(10) 0.2567(2) 1.2649(2)
O2A O 0.54457(14) 0.1887(4) 1.1596(3)
O3A O 0.84351(15) 0.0757(4) 0.9980(2)
O4A O 0.89807(11) 0.0286(3) 1.0801(2)
O5A O 0.85208(13) 0.1035(3) 1.4573(2)
O6A O 0.90094(11) 0.0395(3) 1.3878(2)
N1A N 0.97655(11) 0.0704(3) 1.5471(2)
N2A N 1.02529(11) 0.0645(3) 1.5621(2)
N3A N 1.00117(11) 0.1473(3) 1.6475(2)
N4A N 0.91932(13) 0.1416(4) 1.6059(3)
H8A H 0.8970 0.1237 1.5744
H9A H 0.9130 0.1734 1.6409
N5A N 1.08319(13) 0.1199(4) 1.6523(4)
H10A H 1.1058 0.0962 1.6335
H11A H 1.0891 0.1502 1.6908
Zn1F Zn -0.0000 0.20729(5) 0.7500
Zn1F_2 Zn 1.0000 0.20729(5) 1.7500
Zn2D Zn -0.064887(16) -0.00518(4) 0.98871(3)
Zn2D_2 Zn 0.935113(16) -0.00518(4) 0.98871(3)
Zn2E Zn 0.064887(16) -0.00518(4) 1.51129(3)
Zn2E_2 Zn 1.064887(16) -0.00518(4) 1.51129(3)
O4D O 0.89807(11) -0.0286(3) 1.5801(2)
O4E O 0.10193(11) -0.0286(3) 0.9199(2)
N2D N 0.02529(11) -0.0645(3) 1.0621(2)
N2E N 0.97471(11) -0.0645(3) 1.4379(2)
N3F N 0.50117(11) 0.3527(3) 1.1475(2)
N3G N 0.49883(11) 0.3527(3) 1.3525(2)
C18 C -0.0048(5) 0.1345(10) 1.1646(7)
H12 H -0.0046 0.1822 1.1676
H13 H -0.0341 0.1196 1.1374
H14 H 0.0211 0.1196 1.1313
N6 N 0.0000 0.1077(7) 1.2500
C18A C 0.0048(5) 0.1345(10) 1.3354(7)
H12A H 0.0046 0.1822 1.3324
H13A H 0.0341 0.1196 1.3626
H14A H -0.0211 0.1196 1.3687
loop_
_geom_bond_atom_site_label_1
_geom_bond_atom_site_label_2
_geom_bond_site_symmetry_1
_geom_bond_site_symmetry_2
Zn1 O1 1_555 1_555
Zn2 O6 1_555 1_555
C1 N1 1_555 1_555
C2 N2 1_555 1_555
C3 C4 1_555 1_555
C4 H1 1_555 1_555
C5 C4 1_555 1_555
H2 C5 1_555 1_555
C6 C5 1_555 1_555
C7 C6 1_555 1_555
H3 C7 1_555 1_555
C8 C3 1_555 1_555
H4 C8 1_555 1_555
C9 C3 1_555 1_555
C10 C6 1_555 1_555
C11 C10 1_555 1_555
H5 C11 1_555 1_555
C12 C11 1_555 1_555
C13 C12 1_555 1_555
H6 C13 1_555 1_555
C14 C13 1_555 1_555
C15 C10 1_555 1_555
H7 C15 1_555 1_555
C16 C12 1_555 1_555
C17 C14 1_555 1_555
O1 C9 1_555 1_555
O2 C9 1_555 1_555
O3 C16 1_555 1_555
O4 C16 1_555 1_555
O5 C17 1_555 1_555
O6 C17 1_555 1_555
N1 Zn2 1_555 1_555
N2 N1 1_555 1_555
N3 C1 1_555 1_555
N4 C1 1_555 1_555
H8 N4 1_555 1_555
H9 N4 1_555 1_555
N5 C2 1_555 1_555
H10 N5 1_555 1_555
H11 N5 1_555 1_555
C18 H12 1_555 1_555
H13 C18 1_555 1_555
H14 C18 1_555 1_555
N6 C18 1_555 1_555
Zn2A O6A 1_555 1_555
C1A N1A 1_555 1_555
C2A N2A 1_555 1_555
C3A C4A 1_555 1_555
C4A H1A 1_555 1_555
C5A C4A 1_555 1_555
H2A C5A 1_555 1_555
C6A C5A 1_555 1_555
C7A C6A 1_555 1_555
H3A C7A 1_555 1_555
C8A C3A 1_555 1_555
H4A C8A 1_555 1_555
C9A C3A 1_555 1_555
C10A C6A 1_555 1_555
C11A C10A 1_555 1_555
H5A C11A 1_555 1_555
C12A C11A 1_555 1_555
C13A C12A 1_555 1_555
H6A C13A 1_555 1_555
C14A C13A 1_555 1_555
C15A C10A 1_555 1_555
H7A C15A 1_555 1_555
C16A C12A 1_555 1_555
C17A C14A 1_555 1_555
O1A Zn1 1_555 1_555
O2A C9A 1_555 1_555
O3A C16A 1_555 1_555
O4A C16A 1_555 1_555
O5A C17A 1_555 1_555
O6A C17A 1_555 1_555
N1A Zn2A 1_555 1_555
N2A N1A 1_555 1_555
N3A C1A 1_555 1_555
N4A C1A 1_555 1_555
H8A N4A 1_555 1_555
H9A N4A 1_555 1_555
N5A C2A 1_555 1_555
H10A N5A 1_555 1_555
H11A N5A 1_555 1_555
Zn1F N3 1_555 1_555
Zn1F_2 N3A 1_555 1_555
Zn2D N2 1_555 1_555
Zn2D_2 O4A 1_555 1_555
Zn2E O4 1_555 1_555
Zn2E_2 N2A 1_555 1_555
O4D Zn2A 1_555 1_555
O4E Zn2 1_555 1_555
N2D Zn2 1_555 1_555
N2E Zn2A 1_555 1_555
N3F Zn1 1_555 1_555
N3G Zn1 1_555 1_555
C18A N6 1_555 1_555
H12A C18A 1_555 1_555
H13A C18A 1_555 1_555
H14A C18A 1_555 1_555
C2 N3 1_555 1_555
C7 C8 1_555 1_555
C14 C15 1_555 1_555
C2A N3A 1_555 1_555
C7A C8A 1_555 1_555
C9A O1A 1_555 1_555
C14A C15A 1_555 1_555

#END
