
#######################################################################
#
#                 Cambridge Crystallographic Data Centre
#                                CCDC 
#
#######################################################################
#
# If this CIF has been generated from an entry in the Cambridge 
# Structural Database, then it will include bibliographic, chemical, 
# crystal, experimental, refinement or atomic coordinate data resulting 
# from the CCDC's data processing and validation procedures.
#
#######################################################################

data_AVEQID
_chemical_formula_moiety         '(C44 H32 N2 O22 Zn4)n'
_symmetry_cell_setting           monoclinic
_symmetry_space_group_name_H-M   'P 21/c'
_symmetry_Int_Tables_number      14
_space_group_name_Hall           '-P 2ybc'
loop_
_symmetry_equiv_pos_site_id
_symmetry_equiv_pos_as_xyz
1 x,y,z
2 -x,1/2+y,1/2-z
3 -x,-y,-z
4 x,1/2-y,1/2+z
_cell_length_a                   12.4957(10)
_cell_length_b                   15.3163(14)
_cell_length_c                   24.254(2)
_cell_angle_alpha                90
_cell_angle_beta                 102.304(2)
_cell_angle_gamma                90
_cell_volume                     4535.3
loop_
_atom_site_label
_atom_site_type_symbol
_atom_site_fract_x
_atom_site_fract_y
_atom_site_fract_z
C1 C 0.3660(2) 0.47770(17) 0.26012(10)
C2 C 0.32272(19) 0.40525(16) 0.22071(10)
C3 C 0.22850(19) 0.41778(16) 0.17842(11)
H1 H 0.1920 0.4711 0.1755
C4 C 0.18947(19) 0.35131(16) 0.14096(10)
C5 C 0.2460(2) 0.27389(17) 0.14511(11)
H2 H 0.2216 0.2295 0.1194
C6 C 0.3399(2) 0.26079(16) 0.18750(11)
C7 C 0.3762(2) 0.32655(16) 0.22529(11)
H3 H 0.4374 0.3177 0.2541
C8 C 0.4045(2) 0.17772(18) 0.18945(12)
C9 C 0.09056(18) 0.36728(15) 0.09489(10)
C10 C 0.08692(18) 0.44063(16) 0.06228(10)
H4 H 0.1452 0.4796 0.0706
C11 C 0.00032(19) 0.46004(15) 0.01725(10)
C12 C -0.08682(19) 0.39968(16) 0.00763(10)
H5 H -0.1463 0.4100 -0.0220
C13 C -0.08765(19) 0.32587(15) 0.04032(10)
C14 C 0.0016(2) 0.30760(16) 0.08502(11)
C15 C -0.18299(19) 0.26371(16) 0.02862(10)
C16 C -0.2179(2) 0.22622(16) -0.02448(10)
H6 H -0.1857 0.2432 -0.0540
C17 C -0.3009(2) 0.16338(17) -0.03392(10)
C18 C -0.3491(2) 0.13875(17) 0.00991(11)
H7 H -0.4019 0.0950 0.0043
C19 C -0.3193(2) 0.17875(16) 0.06236(10)
C20 C -0.2372(2) 0.24115(16) 0.07121(10)
H8 H -0.2179 0.2685 0.1062
C21 C -0.3372(2) 0.11977(18) -0.09084(11)
C22 C -0.3717(2) 0.15130(18) 0.10950(11)
N1 N 0.0043(2) 0.23393(17) 0.11780(12)
H9 H -0.0494 0.1977 0.1112
H10 H 0.0598 0.2242 0.1449
O1 O 0.45556(16) 0.46141(13) 0.29452(8)
O2 O 0.31470(15) 0.54711(12) 0.25678(9)
O3 O 0.48737(16) 0.16775(13) 0.22820(9)
O4 O 0.37003(17) 0.12233(13) 0.15150(9)
O5 O -0.3557(2) 0.19544(14) 0.15284(9)
O6 O -0.42975(18) 0.08237(15) 0.10072(9)
O7 O -0.38909(17) 0.04908(13) -0.08884(8)
O8 O -0.3172(2) 0.15324(16) -0.13388(9)
O9 O 0.3149(3) 0.67806(17) 0.17116(10)
O10 O 0.1653(3) 0.6900(3) 0.25930(19)
O11 O 0.3445(2) 0.81755(16) 0.25199(10)
Zn1 Zn 0.52892(2) 0.530790(18) 0.356351(11)
Zn2 Zn 0.34189(3) 0.67874(2) 0.261341(13)
C1B C -0.3660(2) 0.52230(17) -0.26012(10)
C2B C -0.32272(19) 0.59475(16) -0.22071(10)
C3B C -0.22850(19) 0.58222(16) -0.17842(11)
H1B H -0.1920 0.5289 -0.1755
C4B C -0.18947(19) 0.64869(16) -0.14096(10)
C5B C -0.2460(2) 0.72611(17) -0.14511(11)
H2B H -0.2216 0.7705 -0.1194
C6B C -0.3399(2) 0.73921(16) -0.18750(11)
C7B C -0.3762(2) 0.67345(16) -0.22529(11)
H3B H -0.4374 0.6823 -0.2541
C8B C -0.4045(2) 0.82228(18) -0.18945(12)
C9B C -0.09056(18) 0.63272(15) -0.09489(10)
C10B C -0.08692(18) 0.55937(16) -0.06228(10)
H4B H -0.1452 0.5204 -0.0706
C11B C -0.00032(19) 0.53996(15) -0.01725(10)
C12B C 0.08682(19) 0.60032(16) -0.00763(10)
H5B H 0.1463 0.5900 0.0220
C13B C 0.08765(19) 0.67413(15) -0.04032(10)
C14B C -0.0016(2) 0.69240(16) -0.08502(11)
C15B C 0.18299(19) 0.73629(16) -0.02862(10)
C16B C 0.2179(2) 0.77378(16) 0.02448(10)
H6B H 0.1857 0.7568 0.0540
C17B C 0.3009(2) 0.83662(17) 0.03392(10)
C18B C 0.3491(2) 0.86125(17) -0.00991(11)
H7B H 0.4019 0.9050 -0.0043
C19B C 0.3193(2) 0.82125(16) -0.06236(10)
C20B C 0.2372(2) 0.75885(16) -0.07121(10)
H8B H 0.2179 0.7315 -0.1062
C21B C 0.3372(2) 0.88023(18) 0.09084(11)
C22B C 0.3717(2) 0.84870(18) -0.10950(11)
N1B N -0.0043(2) 0.76607(17) -0.11780(12)
H9B H 0.0494 0.8023 -0.1112
H10B H -0.0598 0.7758 -0.1449
O1B O -0.45556(16) 0.53859(13) -0.29452(8)
O2B O -0.31470(15) 0.45289(12) -0.25678(9)
O3B O -0.48737(16) 0.83225(13) -0.22820(9)
O4B O -0.37003(17) 0.87767(13) -0.15150(9)
O5B O 0.3557(2) 0.80456(14) -0.15284(9)
O6B O 0.42975(18) 0.91763(15) -0.10072(9)
O7B O 0.38909(17) 0.95092(13) 0.08884(8)
O8B O 0.3172(2) 0.84676(16) 0.13388(9)
O9B O -0.3149(3) 0.32194(17) -0.17116(10)
O10B O -0.1653(3) 0.3100(3) -0.25930(19)
O11B O -0.3445(2) 0.18245(16) -0.25199(10)
Zn1B Zn -0.52892(2) 0.469210(18) -0.356351(11)
Zn2B Zn -0.34189(3) 0.32126(2) -0.261341(13)
O3A O 0.51263(16) 0.66775(13) 0.27180(9)
O3C O -0.51263(16) 0.33225(13) -0.27180(9)
O4A O 0.62997(17) 0.62233(13) 0.34850(9)
O4C O -0.62997(17) 0.37767(13) -0.34850(9)
O5A O 0.3557(2) 0.69544(14) 0.34716(9)
O5C O -0.3557(2) 0.30456(14) -0.34716(9)
O6A O 0.42975(18) 0.58237(15) 0.39928(9)
O6C O -0.42975(18) 0.41763(15) -0.39928(9)
O7A O -0.61091(17) 0.54908(13) -0.41116(8)
O7C O 0.61091(17) 0.45092(13) 0.41116(8)
Zn1A Zn -0.52892(2) 0.030790(18) 0.143649(11)
Zn1A_2 Zn 0.47108(2) 0.030790(18) 0.143649(11)
Zn1A_3 Zn 0.47108(2) 1.030790(18) 0.143649(11)
Zn1C Zn -0.47108(2) -0.030790(18) -0.143649(11)
Zn1C_2 Zn -0.47108(2) 0.969210(18) -0.143649(11)
Zn1C_3 Zn 0.52892(2) 0.969210(18) -0.143649(11)
Zn2A Zn -0.34189(3) 0.17874(2) 0.238659(13)
Zn2A_2 Zn 0.65811(3) 0.17874(2) 0.238659(13)
Zn2C Zn -0.65811(3) 0.82126(2) -0.238659(13)
Zn2C_2 Zn 0.34189(3) 0.82126(2) -0.238659(13)
loop_
_geom_bond_atom_site_label_1
_geom_bond_atom_site_label_2
_geom_bond_site_symmetry_1
_geom_bond_site_symmetry_2
C1 C2 1_555 1_555
C2 C3 1_555 1_555
C3 H1 1_555 1_555
C4 C3 1_555 1_555
C5 C4 1_555 1_555
H2 C5 1_555 1_555
C6 C5 1_555 1_555
C7 C2 1_555 1_555
H3 C7 1_555 1_555
C8 C6 1_555 1_555
C9 C4 1_555 1_555
C10 C9 1_555 1_555
H4 C10 1_555 1_555
C11 C10 1_555 1_555
C12 C11 1_555 1_555
H5 C12 1_555 1_555
C13 C12 1_555 1_555
C14 C9 1_555 1_555
C15 C13 1_555 1_555
C16 C15 1_555 1_555
H6 C16 1_555 1_555
C17 C16 1_555 1_555
C18 C17 1_555 1_555
H7 C18 1_555 1_555
C19 C18 1_555 1_555
C20 C15 1_555 1_555
H8 C20 1_555 1_555
C21 C17 1_555 1_555
C22 C19 1_555 1_555
N1 C14 1_555 1_555
H9 N1 1_555 1_555
H10 N1 1_555 1_555
O1 C1 1_555 1_555
O2 C1 1_555 1_555
O3 C8 1_555 1_555
O4 C8 1_555 1_555
O5 C22 1_555 1_555
O6 C22 1_555 1_555
O7 C21 1_555 1_555
O8 C21 1_555 1_555
O9 Zn2 1_555 1_555
O10 Zn2 1_555 1_555
O11 Zn2 1_555 1_555
Zn1 O1 1_555 1_555
Zn2 O2 1_555 1_555
C1B C2B 1_555 1_555
C2B C3B 1_555 1_555
C3B H1B 1_555 1_555
C4B C3B 1_555 1_555
C5B C4B 1_555 1_555
H2B C5B 1_555 1_555
C6B C5B 1_555 1_555
C7B C2B 1_555 1_555
H3B C7B 1_555 1_555
C8B C6B 1_555 1_555
C9B C4B 1_555 1_555
C10B C9B 1_555 1_555
H4B C10B 1_555 1_555
C11B C11 1_555 1_555
C12B C11B 1_555 1_555
H5B C12B 1_555 1_555
C13B C12B 1_555 1_555
C14B C9B 1_555 1_555
C15B C13B 1_555 1_555
C16B C15B 1_555 1_555
H6B C16B 1_555 1_555
C17B C16B 1_555 1_555
C18B C17B 1_555 1_555
H7B C18B 1_555 1_555
C19B C18B 1_555 1_555
C20B C15B 1_555 1_555
H8B C20B 1_555 1_555
C21B C17B 1_555 1_555
C22B C19B 1_555 1_555
N1B C14B 1_555 1_555
H9B N1B 1_555 1_555
H10B N1B 1_555 1_555
O1B C1B 1_555 1_555
O2B C1B 1_555 1_555
O3B C8B 1_555 1_555
O4B C8B 1_555 1_555
O5B C22B 1_555 1_555
O6B C22B 1_555 1_555
O7B C21B 1_555 1_555
O8B C21B 1_555 1_555
O9B Zn2B 1_555 1_555
O10B Zn2B 1_555 1_555
O11B Zn2B 1_555 1_555
Zn1B O1B 1_555 1_555
Zn2B O2B 1_555 1_555
O3A Zn2 1_555 1_555
O3C Zn2B 1_555 1_555
O4A Zn1 1_555 1_555
O4C Zn1B 1_555 1_555
O5A Zn2 1_555 1_555
O5C Zn2B 1_555 1_555
O6A Zn1 1_555 1_555
O6C Zn1B 1_555 1_555
O7A Zn1B 1_555 1_555
O7C Zn1 1_555 1_555
Zn1A O6 1_555 1_555
Zn1A_2 O4 1_555 1_555
Zn1A_3 O7B 1_555 1_555
Zn1C O7 1_555 1_555
Zn1C_2 O4B 1_555 1_555
Zn1C_3 O6B 1_555 1_555
Zn2A O5 1_555 1_555
Zn2A_2 O3 1_555 1_555
Zn2C O3B 1_555 1_555
Zn2C_2 O5B 1_555 1_555
C6 C7 1_555 1_555
C13 C14 1_555 1_555
C19 C20 1_555 1_555
C6B C7B 1_555 1_555
C10B C11B 1_555 1_555
C13B C14B 1_555 1_555
C19B C20B 1_555 1_555

#END
