
#######################################################################
#
#                 Cambridge Crystallographic Data Centre
#                                CCDC 
#
#######################################################################
#
# If this CIF has been generated from an entry in the Cambridge 
# Structural Database, then it will include bibliographic, chemical, 
# crystal, experimental, refinement or atomic coordinate data resulting 
# from the CCDC's data processing and validation procedures.
#
#######################################################################

data_DUPVER
_chemical_formula_moiety         '(C23 H12 N5 O13 Zn3)n'
_symmetry_cell_setting           monoclinic
_symmetry_space_group_name_H-M   'P 21/n'
_symmetry_Int_Tables_number      14
_space_group_name_Hall           '-P 2yn'
loop_
_symmetry_equiv_pos_site_id
_symmetry_equiv_pos_as_xyz
1 x,y,z
2 1/2-x,1/2+y,1/2-z
3 -x,-y,-z
4 1/2+x,1/2-y,1/2+z
_cell_length_a                   14.4022(8)
_cell_length_b                   25.9200(12)
_cell_length_c                   17.4395(10)
_cell_angle_alpha                90
_cell_angle_beta                 107.384(6)
_cell_angle_gamma                90
_cell_volume                     6212.89
loop_
_atom_site_label
_atom_site_type_symbol
_atom_site_fract_x
_atom_site_fract_y
_atom_site_fract_z
_atom_site_U_iso_or_equiv
_atom_site_thermal_displace_type
Zn1 Zn 0.83466(6) 0.00072(3) 0.12570(5) 0.0459 Uani
Zn2 Zn 0.89769(6) 0.06598(3) 0.31073(5) 0.0459 Uani
Zn3 Zn 1.04064(6) 0.31969(3) 0.77347(5) 0.0464 Uani
O1 O 0.9379(5) 0.0707(3) 0.4270(3) 0.0745 Uani
O2 O 1.0464(4) 0.24519(19) 0.7570(3) 0.0621 Uani
O3 O 0.7624(5) 0.4351(3) 0.4838(4) 0.0756 Uani
O4 O 0.9232(4) 0.3584(2) 0.7441(4) 0.0789 Uani
O5 O 0.5127(4) 0.4171(3) 0.7793(3) 0.0747 Uani
C1 C 0.9442(6) 0.1176(4) 0.4499(5) 0.0579 Uani
C2 C 0.9791(6) 0.1754(3) 0.5685(5) 0.0572 Uani
H1 H 0.9536 0.2026 0.5337 0.0690 Uiso
O6 O 0.9725(6) 0.2729(2) 0.6334(4) 0.0969 Uani
O7 O 0.9194(5) 0.1541(3) 0.4027(4) 0.0827 Uani
O8 O 0.4363(4) 0.4450(2) 0.6569(3) 0.0674 Uani
C3 C 0.6055(6) 0.4379(3) 0.6109(5) 0.0556 Uani
H2 H 0.5534 0.4562 0.5776 0.0670 Uiso
C4 C 0.5995(6) 0.4183(3) 0.6836(4) 0.0533 Uani
O9 O 0.6372(4) 0.4842(2) 0.4744(3) 0.0706 Uani
C5 C 1.0103(6) 0.2377(3) 0.6811(6) 0.0636 Uani
C6 C 1.0208(5) 0.0859(3) 0.5900(5) 0.0510 Uani
H3 H 1.0219 0.0527 0.5700 0.0610 Uiso
C7 C 0.9824(5) 0.1256(3) 0.5377(4) 0.0476 Uani
C8 C 1.0536(5) 0.1440(3) 0.7039(4) 0.0504 Uani
H4 H 1.0767 0.1497 0.7589 0.0610 Uiso
C9 C 0.7642(6) 0.4033(3) 0.6385(5) 0.0593 Uani
H5 H 0.8195 0.3974 0.6227 0.0710 Uiso
C10 C 1.0139(6) 0.1843(3) 0.6511(5) 0.0525 Uani
C11 C 1.0578(5) 0.0945(3) 0.6719(4) 0.0480 Uani
C12 C 0.6782(6) 0.3916(3) 0.7334(5) 0.0601 Uani
H6 H 0.6742 0.3783 0.7818 0.0720 Uiso
C13 C 0.6885(6) 0.4303(3) 0.5881(5) 0.0531 Uani
C14 C 0.5103(6) 0.4276(3) 0.7088(5) 0.0580 Uani
C15 C 0.7613(6) 0.3846(3) 0.7122(5) 0.0628 Uani
O10 O 0.8395(6) 0.3289(4) 0.8195(6) 0.1624 Uani
C16 C 0.6971(7) 0.4507(3) 0.5094(5) 0.0580 Uani
C17 C 0.8476(7) 0.3541(4) 0.7654(6) 0.0775 Uani
N1 N 0.7679(4) 0.0905(2) 0.2469(3) 0.0454 Uani
N2 N 0.7140(4) 0.0393(2) 0.1244(4) 0.0480 Uani
N3 N 0.6313(4) 0.1386(2) 0.2291(3) 0.0451 Uani
N4 N 0.4634(4) 0.1261(3) 0.0708(4) 0.0611 Uani
H7 H 0.4183 0.1192 0.0271 0.0740 Uiso
H8 H 0.4564 0.1514 0.1006 0.0740 Uiso
C18 C 0.6201(5) 0.1057(3) 0.1641(4) 0.0451 Uani
C19 C 0.7038(5) 0.0759(3) 0.1754(4) 0.0394 Uani
N5 N 0.5509(5) 0.0591(3) 0.0436(4) 0.0638 Uani
C20 C 0.6331(6) 0.0332(3) 0.0611(5) 0.0662 Uani
H9 H 0.6361 0.0073 0.0251 0.0790 Uiso
C21 C 0.7202(5) 0.1272(3) 0.2763(4) 0.0495 Uani
H10 H 0.7476 0.1431 0.3257 0.0600 Uiso
C22 C 0.5427(5) 0.0982(3) 0.0919(5) 0.0521 Uani
C23 C 1.0995(6) 0.0502(3) 0.7270(5) 0.0545 Uani
O11 O 1.1177(4) 0.0566(2) 0.8011(3) 0.0664 Uani
O12 O 1.1158(5) 0.0100(2) 0.6951(4) 0.0844 Uani
O13 O 1.1080(5) 0.3242(3) 0.8907(4) 0.0885 Uani
H11 H 1.0847 0.3411 0.9307 0.1320 Uiso
H12 H 1.1707 0.3099 0.9192 0.1320 Uiso
Zn1A Zn 0.66534(6) 0.50072(3) 0.37430(5) 0.0459 Uani
Zn1B Zn 1.16534(6) -0.00072(3) 0.87430(5) 0.0459 Uani
Zn1C Zn 0.33466(6) 0.49928(3) 0.62570(5) 0.0459 Uani
Zn2B Zn 1.10231(6) -0.06598(3) 0.68927(5) 0.0459 Uani
Zn2C Zn 0.39769(6) 0.43402(3) 0.81073(5) 0.0459 Uani
Zn3C Zn 0.54064(6) 0.18031(3) 0.27347(5) 0.0464 Uani
O5C O 1.0127(4) 0.0829(3) 0.2793(3) 0.0747 Uani
O8C O 0.9363(4) 0.0550(2) 0.1569(3) 0.0674 Uani
O9A O 0.8628(4) -0.0158(2) 0.0256(3) 0.0706 Uani
N3C N 1.1313(4) 0.3614(2) 0.7291(3) 0.0451 Uani
O11B O 0.8823(4) -0.0566(2) 0.1989(3) 0.0664 Uani
O12B O 0.8842(5) -0.0100(2) 0.3049(4) 0.0844 Uani
loop_
_atom_site_aniso_label
_atom_site_aniso_U_11
_atom_site_aniso_U_22
_atom_site_aniso_U_33
_atom_site_aniso_U_23
_atom_site_aniso_U_13
_atom_site_aniso_U_12
Zn1 0.0516(5) 0.0565(6) 0.0264(5) -0.0088(4) 0.0066(4) 0.0013(4)
Zn2 0.0506(5) 0.0577(6) 0.0241(5) -0.0072(4) 0.0030(4) 0.0058(4)
Zn3 0.0541(5) 0.0399(5) 0.0400(5) 0.0052(4) 0.0062(4) 0.0022(4)
O1 0.095(4) 0.094(5) 0.029(3) -0.016(3) 0.010(3) -0.005(4)
O2 0.088(4) 0.045(3) 0.045(4) -0.009(3) 0.007(3) 0.002(3)
O3 0.076(4) 0.110(5) 0.047(4) 0.011(3) 0.028(3) -0.009(4)
O4 0.065(4) 0.096(5) 0.078(5) 0.033(4) 0.025(4) 0.035(3)
O5 0.063(3) 0.124(5) 0.039(4) 0.026(3) 0.018(3) 0.016(3)
C1 0.064(5) 0.078(7) 0.028(5) -0.009(5) 0.008(4) -0.009(5)
C2 0.067(5) 0.054(5) 0.043(5) 0.004(4) 0.005(4) 0.000(4)
O6 0.147(6) 0.051(4) 0.069(5) 0.008(3) -0.004(4) 0.004(4)
O7 0.095(5) 0.100(5) 0.035(4) 0.007(4) -0.008(3) -0.004(4)
O8 0.063(3) 0.092(4) 0.041(3) 0.014(3) 0.006(3) 0.023(3)
C3 0.060(5) 0.067(5) 0.032(4) 0.015(4) 0.002(4) 0.007(4)
C4 0.060(5) 0.066(5) 0.032(4) 0.015(4) 0.011(4) 0.013(4)
O9 0.088(4) 0.084(4) 0.038(3) 0.023(3) 0.016(3) 0.013(4)
C5 0.076(6) 0.053(5) 0.055(6) -0.006(5) 0.009(5) -0.011(4)
C6 0.062(5) 0.049(5) 0.040(5) -0.017(4) 0.012(4) -0.004(4)
C7 0.050(4) 0.057(5) 0.031(4) -0.008(4) 0.005(3) -0.002(4)
C8 0.070(5) 0.046(5) 0.030(4) -0.007(3) 0.007(4) 0.000(4)
C9 0.056(5) 0.077(6) 0.052(5) 0.012(4) 0.027(4) 0.009(4)
C10 0.076(5) 0.042(4) 0.034(5) -0.006(3) 0.008(4) -0.005(4)
C11 0.056(4) 0.055(5) 0.028(4) -0.007(3) 0.005(3) 0.002(4)
C12 0.063(5) 0.078(6) 0.041(5) 0.023(4) 0.018(4) 0.013(4)
C13 0.064(5) 0.057(5) 0.037(5) 0.011(4) 0.013(4) 0.000(4)
C14 0.054(5) 0.079(6) 0.036(5) 0.017(4) 0.006(4) 0.006(4)
C15 0.059(5) 0.085(6) 0.044(5) 0.028(4) 0.015(4) 0.015(5)
O10 0.104(6) 0.251(12) 0.141(8) 0.155(9) 0.050(6) 0.071(7)
C16 0.068(5) 0.067(6) 0.036(5) -0.001(4) 0.011(5) -0.020(5)
C17 0.065(6) 0.101(8) 0.066(7) 0.035(6) 0.019(5) 0.029(5)
N1 0.042(3) 0.055(4) 0.032(4) -0.004(3) 0.000(3) -0.003(3)
N2 0.047(3) 0.053(4) 0.036(4) -0.013(3) 0.000(3) 0.004(3)
N3 0.048(3) 0.047(4) 0.033(4) -0.012(3) 0.001(3) 0.002(3)
N4 0.042(3) 0.083(5) 0.044(4) -0.027(4) -0.009(3) 0.005(3)
C18 0.045(4) 0.053(5) 0.030(4) -0.004(3) 0.000(3) -0.010(4)
C19 0.039(4) 0.043(4) 0.032(4) -0.008(3) 0.004(3) -0.002(3)
N5 0.060(4) 0.075(5) 0.043(4) -0.022(4) -0.005(3) 0.010(4)
C20 0.064(5) 0.066(6) 0.058(6) -0.023(4) 0.002(5) 0.011(5)
C21 0.058(5) 0.057(5) 0.029(4) -0.008(4) 0.006(4) 0.005(4)
C22 0.044(4) 0.062(5) 0.042(5) -0.012(4) 0.000(4) 0.001(4)
C23 0.072(5) 0.050(5) 0.035(5) -0.013(4) 0.006(4) 0.000(4)
O11 0.095(4) 0.057(3) 0.035(3) -0.006(3) 0.001(3) 0.019(3)
O12 0.151(6) 0.049(4) 0.054(4) -0.007(3) 0.032(4) 0.020(4)
O13 0.088(5) 0.112(6) 0.050(4) 0.005(4) -0.003(3) -0.009(4)
Zn1A 0.0516 0.0565 0.0264 0.0088 0.0066 -0.0013
Zn1B 0.0516 0.0565 0.0264 -0.0088 0.0066 0.0013
Zn1C 0.0516 0.0565 0.0264 0.0088 0.0066 -0.0013
Zn2B 0.0506 0.0577 0.0241 -0.0072 0.003 0.0058
Zn2C 0.0506 0.0577 0.0241 0.0072 0.003 -0.0058
Zn3C 0.0541 0.0399 0.04 -0.0052 0.0062 -0.0022
O5C 0.063 0.124 0.039 -0.026 0.018 -0.016
O8C 0.063 0.092 0.041 -0.014 0.006 -0.023
O9A 0.088 0.084 0.038 -0.023 0.016 -0.013
N3C 0.048 0.047 0.033 0.012 0.001 -0.002
O11B 0.095 0.057 0.035 -0.006 0.001 0.019
O12B 0.151 0.049 0.054 -0.007 0.032 0.02
loop_
_geom_bond_atom_site_label_1
_geom_bond_atom_site_label_2
_geom_bond_site_symmetry_1
_geom_bond_site_symmetry_2
Zn1 N2 1_555 1_555
Zn2 O1 1_555 1_555
Zn3 O2 1_555 1_555
O1 C1 1_555 1_555
O2 C5 1_555 1_555
O3 C16 1_555 1_555
O4 Zn3 1_555 1_555
O5 C14 1_555 1_555
C1 O7 1_555 1_555
C2 H1 1_555 1_555
O6 C5 1_555 1_555
O8 C14 1_555 1_555
C3 H2 1_555 1_555
C4 C3 1_555 1_555
O9 C16 1_555 1_555
C5 C10 1_555 1_555
C6 H3 1_555 1_555
C7 C1 1_555 1_555
C8 H4 1_555 1_555
C9 H5 1_555 1_555
C10 C2 1_555 1_555
C11 C6 1_555 1_555
C12 C4 1_555 1_555
H6 C12 1_555 1_555
C13 C3 1_555 1_555
C14 C4 1_555 1_555
C15 C9 1_555 1_555
O10 C17 1_555 1_555
C16 C13 1_555 1_555
C17 O4 1_555 1_555
N1 Zn2 1_555 1_555
N2 C19 1_555 1_555
N3 C18 1_555 1_555
N4 H7 1_555 1_555
H8 N4 1_555 1_555
C18 C19 1_555 1_555
C19 N1 1_555 1_555
N5 C20 1_555 1_555
C20 N2 1_555 1_555
H9 C20 1_555 1_555
C21 N1 1_555 1_555
H10 C21 1_555 1_555
C22 N4 1_555 1_555
C23 C11 1_555 1_555
O11 C23 1_555 1_555
O12 C23 1_555 1_555
O13 Zn3 1_555 1_555
H11 O13 1_555 1_555
H12 O13 1_555 1_555
Zn1A O9 1_555 1_555
Zn1B O11 1_555 1_555
Zn1C O8 1_555 1_555
Zn2B O12 1_555 1_555
Zn2C O5 1_555 1_555
Zn3C N3 1_555 1_555
O5C Zn2 1_555 1_555
O8C Zn1 1_555 1_555
O9A Zn1 1_555 1_555
N3C Zn3 1_555 1_555
O11B Zn1 1_555 1_555
O12B Zn2 1_555 1_555
C2 C7 1_555 1_555
C6 C7 1_555 1_555
C8 C10 1_555 1_555
C8 C11 1_555 1_555
C9 C13 1_555 1_555
C12 C15 1_555 1_555
C15 C17 1_555 1_555
N3 C21 1_555 1_555
C18 C22 1_555 1_555
N5 C22 1_555 1_555

#END
