
#######################################################################
#
#                 Cambridge Crystallographic Data Centre
#                                CCDC 
#
#######################################################################
#
# If this CIF has been generated from an entry in the Cambridge 
# Structural Database, then it will include bibliographic, chemical, 
# crystal, experimental, refinement or atomic coordinate data resulting 
# from the CCDC's data processing and validation procedures.
#
#######################################################################

data_OSIWOD01
_chemical_formula_moiety         '(C8 H12 Ag2 N6)n'
_symmetry_cell_setting           monoclinic
_symmetry_space_group_name_H-M   'C 2/c'
_symmetry_Int_Tables_number      15
_space_group_name_Hall           '-C 2yc'
loop_
_symmetry_equiv_pos_site_id
_symmetry_equiv_pos_as_xyz
1 x,y,z
2 -x,y,1/2-z
3 1/2+x,1/2+y,z
4 1/2-x,1/2+y,1/2-z
5 -x,-y,-z
6 x,-y,1/2+z
7 1/2-x,1/2-y,-z
8 1/2+x,1/2-y,1/2+z
_cell_length_a                   13.0358(14)
_cell_length_b                   21.135(2)
_cell_length_c                   11.7194(13)
_cell_angle_alpha                90
_cell_angle_beta                 122.1840(10)
_cell_angle_gamma                90
_cell_volume                     2732.7
loop_
_atom_site_label
_atom_site_type_symbol
_atom_site_fract_x
_atom_site_fract_y
_atom_site_fract_z
_atom_site_U_iso_or_equiv
_atom_site_thermal_displace_type
Ag1 Ag 0.92701(6) 0.30005(3) 0.82248(6) 0.0518 Uani
Ag2 Ag 0.85039(6) 0.43750(3) 0.55950(6) 0.0512 Uani
N1 N 0.8868(6) 0.4048(3) 0.8392(6) 0.0490 Uani
N2 N 0.8520(6) 0.4519(3) 0.7447(7) 0.0476 Uani
N3 N 0.8423(6) 0.4902(3) 0.9156(7) 0.0505 Uani
N4 N 1.1106(6) 0.2936(3) 1.0000(7) 0.0489 Uani
N5 N 1.1872(6) 0.3441(3) 1.0518(7) 0.0492 Uani
N6 N 1.2802(6) 0.2615(3) 1.1853(7) 0.0528 Uani
C1 C 0.8797(7) 0.4307(4) 0.9393(8) 0.0468 Uani
C2 C 0.8284(8) 0.5003(4) 0.7955(9) 0.0551 Uani
H1 H 0.8038 0.5391 0.7516 0.0660 Uiso
C3 C 0.9112(9) 0.3946(5) 1.0639(9) 0.0679 Uani
H2 H 0.9835 0.3699 1.0917 0.0820 Uiso
H3 H 0.9310 0.4248 1.1352 0.0820 Uiso
C4 C 0.8178(12) 0.3522(7) 1.0518(12) 0.1158 Uani
H4 H 0.8462 0.3320 1.1369 0.1740 Uiso
H5 H 0.7998 0.3207 0.9846 0.1740 Uiso
H6 H 0.7459 0.3760 1.0259 0.1740 Uiso
C5 C 1.1683(7) 0.2451(4) 1.0819(8) 0.0497 Uani
C6 C 1.2863(8) 0.3230(4) 1.1605(9) 0.0550 Uani
H7 H 1.3537 0.3482 1.2147 0.0660 Uiso
C7 C 1.1134(8) 0.1813(4) 1.0644(11) 0.0702 Uani
H8 H 1.1768 0.1496 1.0979 0.0850 Uiso
H9 H 1.0572 0.1734 0.9690 0.0850 Uiso
C8 C 1.0489(14) 0.1747(7) 1.1352(18) 0.1338 Uani
H10 H 1.0121 0.1336 1.1175 0.2010 Uiso
H11 H 1.1052 0.1796 1.2304 0.2010 Uiso
H12 H 0.9873 0.2066 1.1040 0.2010 Uiso
Ag1G Ag 1.42701(6) 0.19995(3) 1.32248(6) 0.0518 Uani
Ag2E Ag 0.85039(6) 0.56250(3) 1.05950(6) 0.0512 Uani
Ag2A Ag 1.14961(6) 0.43750(3) 0.94050(6) 0.0512 Uani
N3E N 0.8423(6) 0.5098(3) 0.4156(7) 0.0505 Uani
N5A N 0.8128(6) 0.3441(3) 0.4482(7) 0.0492 Uani
N6G N 0.7802(6) 0.2385(3) 0.6853(7) 0.0528 Uani
loop_
_atom_site_aniso_label
_atom_site_aniso_U_11
_atom_site_aniso_U_22
_atom_site_aniso_U_33
_atom_site_aniso_U_23
_atom_site_aniso_U_13
_atom_site_aniso_U_12
Ag1 0.0524(4) 0.0524(5) 0.0426(4) -0.0070(3) 0.0200(3) -0.0040(3)
Ag2 0.0655(4) 0.0525(5) 0.0396(4) -0.0017(3) 0.0306(3) -0.0041(3)
N1 0.071(4) 0.042(4) 0.033(4) 0.002(3) 0.027(3) 0.004(3)
N2 0.067(4) 0.044(4) 0.041(4) 0.001(3) 0.035(4) 0.002(3)
N3 0.075(5) 0.044(5) 0.036(4) -0.002(3) 0.032(4) 0.005(4)
N4 0.046 0.042 0.046 0.003 0.016 0.002
N5 0.057 0.038 0.045 0.002 0.022 -0.001
N6 0.052 0.051 0.043 0.003 0.017 0.001
C1 0.058(5) 0.046(6) 0.031(4) -0.003(4) 0.020(4) -0.001(4)
C2 0.080(6) 0.039(5) 0.051(5) 0.008(4) 0.038(5) 0.006(4)
C3 0.093(7) 0.072(7) 0.044(5) 0.004(5) 0.040(5) 0.007(6)
C4 0.151(12) 0.130(13) 0.073(8) 0.010(8) 0.064(9) -0.046(10)
C5 0.048 0.051 0.049 -0.002 0.025 -0.002
C6 0.056 0.044 0.051 0 0.019 -0.006
C7 0.056 0.054 0.086 0.012 0.028 0.003
C8 0.154 0.1 0.209 0.01 0.138 -0.039
Ag1G 0.0524 0.0524 0.0426 0.007 0.02 0.004
Ag2E 0.0655 0.0525 0.0396 0.0017 0.0306 0.0041
Ag2A 0.0655 0.0525 0.0396 0.0017 0.0306 0.0041
N3E 0.075 0.044 0.036 0.002 0.032 -0.005
N5A 0.057 0.038 0.045 -0.002 0.022 0.001
N6G 0.052(4) 0.051(5) 0.043(4) -0.003(4) 0.017(3) -0.001(3)
loop_
_geom_bond_atom_site_label_1
_geom_bond_atom_site_label_2
_geom_bond_site_symmetry_1
_geom_bond_site_symmetry_2
Ag1 N1 1_555 1_555
Ag2 N2 1_555 1_555
N1 N2 1_555 1_555
N2 C2 1_555 1_555
N3 C1 1_555 1_555
N4 Ag1 1_555 1_555
N5 N4 1_555 1_555
N6 C5 1_555 1_555
C1 N1 1_555 1_555
C2 N3 1_555 1_555
H1 C2 1_555 1_555
C3 C1 1_555 1_555
H2 C3 1_555 1_555
H3 C3 1_555 1_555
C4 C3 1_555 1_555
H4 C4 1_555 1_555
H5 C4 1_555 1_555
H6 C4 1_555 1_555
C5 N4 1_555 1_555
C6 N5 1_555 1_555
H7 C6 1_555 1_555
C7 C5 1_555 1_555
H8 C7 1_555 1_555
H9 C7 1_555 1_555
C8 C7 1_555 1_555
H10 C8 1_555 1_555
H11 C8 1_555 1_555
H12 C8 1_555 1_555
Ag1G N6 1_555 1_555
Ag2E N3 1_555 1_555
Ag2A N5 1_555 1_555
N3E Ag2 1_555 1_555
N5A Ag2 1_555 1_555
N6G Ag1 1_555 1_555
N6 C6 1_555 1_555

#END
