
#######################################################################
#
#                 Cambridge Crystallographic Data Centre
#                                CCDC 
#
#######################################################################
#
# If this CIF has been generated from an entry in the Cambridge 
# Structural Database, then it will include bibliographic, chemical, 
# crystal, experimental, refinement or atomic coordinate data resulting 
# from the CCDC's data processing and validation procedures.
#
#######################################################################

data_OSIXEU
_chemical_formula_moiety         '(C17 H26 Ag4 Cl2 N12)n'
_symmetry_cell_setting           monoclinic
_symmetry_space_group_name_H-M   'C 2/c'
_symmetry_Int_Tables_number      15
_space_group_name_Hall           '-C 2yc'
loop_
_symmetry_equiv_pos_site_id
_symmetry_equiv_pos_as_xyz
1 x,y,z
2 -x,y,1/2-z
3 1/2+x,1/2+y,z
4 1/2-x,1/2+y,1/2-z
5 -x,-y,-z
6 x,-y,1/2+z
7 1/2-x,1/2-y,-z
8 1/2+x,1/2-y,1/2+z
_cell_length_a                   12.9651(8)
_cell_length_b                   21.4537(14)
_cell_length_c                   11.7302(7)
_cell_angle_alpha                90
_cell_angle_beta                 122.6320(10)
_cell_angle_gamma                90
_cell_volume                     2747.73
loop_
_atom_site_label
_atom_site_type_symbol
_atom_site_fract_x
_atom_site_fract_y
_atom_site_fract_z
Ag1 Ag 0.92863(2) 0.303063(13) 0.82317(3)
Ag2 Ag 0.84223(3) 0.437340(13) 0.54735(3)
N1 N 0.8869(3) 0.40609(13) 0.8345(3)
N2 N 0.8465(3) 0.45097(14) 0.7353(3)
N3 N 0.8379(3) 0.49044(14) 0.9056(3)
N4 N 1.1146(3) 0.29511(14) 1.0062(3)
N5 N 1.1938(3) 0.34492(14) 1.0621(3)
N6 N 1.2838(3) 0.26110(14) 1.1899(3)
C1 C 0.8805(3) 0.43170(16) 0.9338(3)
C2 C 0.8191(4) 0.49939(17) 0.7821(4)
H1 H 0.7895 0.5366 0.7344
C3 C 0.9141(4) 0.3977(2) 1.0603(4)
H2 H 0.9846 0.3716 1.0868
H3 H 0.9380 0.4279 1.1319
C4 C 0.8141(6) 0.3581(3) 1.0480(6)
H4 H 0.8423 0.3378 1.1328
H5 H 0.7912 0.3272 0.9790
H6 H 0.7445 0.3836 1.0242
C5 C 1.1711(3) 0.24651(16) 1.0842(3)
C6 C 1.2918(3) 0.32254(18) 1.1702(4)
H7 H 1.3604 0.3466 1.2278
C7 C 1.1135(4) 0.18360(19) 1.0589(5)
H8 H 1.1766 0.1520 1.0898
H9 H 1.0567 0.1780 0.9623
C8 C 1.0473(7) 0.1747(3) 1.1285(9)
H10 H 1.0120 0.1337 1.1092
H11 H 1.1035 0.1792 1.2244
H12 H 0.9836 0.2053 1.0969
Ag1G Ag 0.42863(2) 0.196937(13) 0.32317(3)
Ag1G_2 Ag 1.42863(2) 0.196937(13) 1.32317(3)
Ag1E Ag 0.92863(2) 0.696937(13) 0.32317(3)
Ag2E Ag 0.84223(3) 0.562660(13) 1.04735(3)
Ag2A Ag 1.15777(3) 0.437340(13) 0.95265(3)
Ag2F Ag 0.65777(3) 0.062660(13) 0.45265(3)
Ag2E_2 Ag 0.84223(3) 0.562660(13) 0.04735(3)
N1E N 0.8869(3) 0.59391(13) 0.3345(3)
N1G N 0.3869(3) 0.09391(13) 0.3345(3)
N2E N 0.8465(3) 0.54903(14) 0.2353(3)
N2E_2 N 0.8465(3) 0.54903(14) 1.2353(3)
N3E N 0.8379(3) 0.50956(14) 0.4056(3)
N4G N 0.6146(3) 0.20489(14) 0.5062(3)
N5G N 0.6938(3) 0.15508(14) 0.5621(3)
N5A N 0.8062(3) 0.34492(14) 0.4379(3)
N5D N 0.8062(3) 0.65508(14) 0.9379(3)
N6G N 0.7838(3) 0.23890(14) 0.6899(3)
N6_2 N 0.2838(3) 0.26110(14) 0.1899(3)
C1E C 0.8805(3) 0.56830(16) 0.4338(3)
C2E C 0.8191(4) 0.50061(17) 0.2821(4)
H1E H 0.7895 0.4634 0.2344
C3E C 0.9141(4) 0.6023(2) 0.5603(4)
H2E H 0.9846 0.6284 0.5868
H3E H 0.9380 0.5721 0.6319
C4E C 0.8141(6) 0.6419(3) 0.5480(6)
H4E H 0.8423 0.6622 0.6328
H5E H 0.7912 0.6728 0.4790
H6E H 0.7445 0.6164 0.5242
C5G C 0.6711(3) 0.25349(16) 0.5842(3)
C6G C 0.7918(3) 0.17746(18) 0.6702(4)
H7G H 0.8604 0.1534 0.7278
C7G C 0.6135(4) 0.31640(19) 0.5589(5)
H8G H 0.6766 0.3480 0.5898
H9G H 0.5567 0.3220 0.4623
C8G C 0.5473(7) 0.3253(3) 0.6285(9)
H10G H 0.5120 0.3663 0.6092
H11G H 0.6035 0.3208 0.7244
H12G H 0.4836 0.2947 0.5969
C9 C 0.5000 0.4895(4) 0.7500
H13 H 0.5687 0.4632 0.7736
Cl1 Cl 0.5336(2) 0.53421(13) 0.8858(2)
H13A H 0.4313 0.4632 0.7264
Cl1A Cl 0.4664(2) 0.53421(13) 0.6142(2)
loop_
_geom_bond_atom_site_label_1
_geom_bond_atom_site_label_2
_geom_bond_site_symmetry_1
_geom_bond_site_symmetry_2
Ag1 N1 1_555 1_555
Ag2 N2 1_555 1_555
N1 N2 1_555 1_555
N2 C2 1_555 1_555
N3 C1 1_555 1_555
N4 Ag1 1_555 1_555
N5 N4 1_555 1_555
N6 C5 1_555 1_555
C1 N1 1_555 1_555
C2 N3 1_555 1_555
H1 C2 1_555 1_555
C3 C1 1_555 1_555
H2 C3 1_555 1_555
H3 C3 1_555 1_555
C4 C3 1_555 1_555
H4 C4 1_555 1_555
H5 C4 1_555 1_555
H6 C4 1_555 1_555
C5 N4 1_555 1_555
C6 N5 1_555 1_555
H7 C6 1_555 1_555
C7 C5 1_555 1_555
H8 C7 1_555 1_555
H9 C7 1_555 1_555
C8 C7 1_555 1_555
H10 C8 1_555 1_555
H11 C8 1_555 1_555
H12 C8 1_555 1_555
C9 H13 1_555 1_555
Cl1 C9 1_555 1_555
Ag1G N1G 1_555 1_555
Ag1G_2 N6 1_555 1_555
Ag1E N1E 1_555 1_555
Ag2E N3 1_555 1_555
Ag2A N5 1_555 1_555
Ag2F N5G 1_555 1_555
Ag2E_2 N2E 1_555 1_555
N1E N2E 1_555 1_555
N2E C2E 1_555 1_555
N2E_2 Ag2E 1_555 1_555
N3E Ag2 1_555 1_555
N4G Ag1G 1_555 1_555
N5G N4G 1_555 1_555
N5A Ag2 1_555 1_555
N5D Ag2E 1_555 1_555
N6G Ag1 1_555 1_555
N6_2 Ag1G 1_555 1_555
C1E N1E 1_555 1_555
C2E N3E 1_555 1_555
H1E C2E 1_555 1_555
C3E C1E 1_555 1_555
H2E C3E 1_555 1_555
H3E C3E 1_555 1_555
C4E C3E 1_555 1_555
H4E C4E 1_555 1_555
H5E C4E 1_555 1_555
H6E C4E 1_555 1_555
C5G N4G 1_555 1_555
C6G N5G 1_555 1_555
H7G C6G 1_555 1_555
C7G C5G 1_555 1_555
H8G C7G 1_555 1_555
H9G C7G 1_555 1_555
C8G C7G 1_555 1_555
H10G C8G 1_555 1_555
H11G C8G 1_555 1_555
H12G C8G 1_555 1_555
H13A C9 1_555 1_555
Cl1A C9 1_555 1_555
N6 C6 1_555 1_555
N3E C1E 1_555 1_555
N6G C5G 1_555 1_555
N6G C6G 1_555 1_555

#END
