
#######################################################################
#
#                 Cambridge Crystallographic Data Centre
#                                CCDC 
#
#######################################################################
#
# If this CIF has been generated from an entry in the Cambridge 
# Structural Database, then it will include bibliographic, chemical, 
# crystal, experimental, refinement or atomic coordinate data resulting 
# from the CCDC's data processing and validation procedures.
#
#######################################################################

data_FORTUD
_chemical_formula_moiety         'C360 H342 N18 O92 Zn41'
_symmetry_cell_setting           hexagonal
_symmetry_space_group_name_H-M   'P 63 2 2'
_symmetry_Int_Tables_number      182
_space_group_name_Hall           'P 6c 2c'
loop_
_symmetry_equiv_pos_site_id
_symmetry_equiv_pos_as_xyz
1 x,y,z
2 x-y,x,1/2+z
3 -y,x-y,z
4 -x,-y,1/2+z
5 -x+y,-x,z
6 y,-x+y,1/2+z
7 x-y,-y,-z
8 -x,-x+y,-z
9 y,x,-z
10 -y,-x,1/2-z
11 -x+y,y,1/2-z
12 x,x-y,1/2-z
_cell_length_a                   34.597(3)
_cell_length_b                   34.597(3)
_cell_length_c                   33.003(6)
_cell_angle_alpha                90
_cell_angle_beta                 90
_cell_angle_gamma                120
_cell_volume                     34210.6
loop_
_atom_site_label
_atom_site_type_symbol
_atom_site_fract_x
_atom_site_fract_y
_atom_site_fract_z
Zn1 Zn 0.3333 -0.3333 0.56257(4)
Zn2 Zn 0.50053(2) 0.00106(4) 0.2500
Zn3 Zn 0.39291(3) -0.29036(3) 0.48547(2)
Zn4 Zn 0.48995(4) 0.05514(3) 0.32297(3)
Zn5 Zn 0.40792(4) -0.00165(4) 0.26984(3)
Zn6 Zn 0.44337(4) -0.04594(3) 0.32902(3)
N1 N 0.5979(2) 0.11568(19) 0.19923(17)
N2 N 0.4824(3) -0.0620(2) 0.35917(18)
N3 N 0.3637(3) -0.0535(2) 0.2392(2)
O1 O 0.6007(3) 0.2447(3) 0.0319(3)
O2 O 0.6422(3) 0.27423(18) 0.08465(17)
O3 O 0.5661(3) 0.0726(2) 0.12150(16)
O4 O 0.56899(18) 0.04224(15) 0.24312(15)
O5 O 0.51104(18) 0.01068(14) 0.31199(13)
O6 O 0.3877(2) -0.09552(19) 0.3482(2)
O7 O 0.3308(3) -0.2712(3) 0.4388(3)
O8 O 0.4013(3) -0.2454(2) 0.4458(2)
O9 O 0.43788(17) -0.04827(14) 0.26832(15)
O10 O 0.3758(2) 0.03142(19) 0.26834(19)
O11 O 0.1834(3) -0.0192(3) 0.2348(3)
O12 O 0.1694(3) -0.0836(3) 0.2661(3)
O13 O 0.42636(19) 0.00316(17) 0.32810(14)
O14 O 0.3333 -0.3333 0.5046(2)
C1 C 0.6189(4) 0.2425(3) 0.0643(3)
C2 C 0.6077(3) 0.19732(15) 0.07817(16)
C3 C 0.5882(3) 0.1603(2) 0.05281(13)
H1 H 0.5838 0.1637 0.0255
C4 C 0.5751(3) 0.11813(17) 0.06822(16)
C5 C 0.5816(3) 0.11298(14) 0.10899(17)
C6 C 0.6011(3) 0.15000(18) 0.13435(12)
C7 C 0.6142(3) 0.19217(15) 0.11894(15)
H2 H 0.6272 0.2169 0.1359
C8 C 0.5522(4) 0.0760(3) 0.0394(3)
C9 C 0.5096(4) 0.0460(5) 0.0508(4)
H3 H 0.4971 0.0214 0.0323
H4 H 0.4919 0.0603 0.0505
H5 H 0.5097 0.0354 0.0776
C10 C 0.5773(5) 0.0595(5) 0.0350(5)
H6 H 0.5637 0.0348 0.0165
H7 H 0.5817 0.0495 0.0607
H8 H 0.6056 0.0819 0.0243
C11 C 0.5559(4) 0.0930(4) -0.0048(3)
H9 H 0.5430 0.0680 -0.0231
H10 H 0.5867 0.1122 -0.0116
H11 H 0.5402 0.1093 -0.0071
C12 C 0.6096(3) 0.1498(2) 0.1776(2)
H12 H 0.6251 0.1774 0.1904
C13 C 0.60829(19) 0.12033(14) 0.24280(10)
C14 C 0.59305(18) 0.08060(11) 0.26402(13)
C15 C 0.60261(18) 0.08150(13) 0.30503(13)
C16 C 0.62742(18) 0.12212(16) 0.32482(10)
C17 C 0.64266(19) 0.16184(13) 0.30361(13)
C18 C 0.63310(19) 0.16094(11) 0.26260(13)
H13 H 0.6433 0.1875 0.2484
C19 C 0.6700(4) 0.2067(3) 0.3247(3)
H14 H 0.6774 0.2303 0.3056
H15 H 0.6969 0.2090 0.3353
H16 H 0.6529 0.2090 0.3465
C20 C 0.6363(3) 0.1249(3) 0.3704(2)
H17 H 0.6243 0.0953 0.3812
H18 H 0.6222 0.1395 0.3833
H19 H 0.6679 0.1415 0.3752
C21 C 0.58905(17) 0.03704(14) 0.32628(16)
C22 C 0.54386(16) 0.00680(17) 0.33147(17)
C23 C 0.53039(15) -0.03225(16) 0.35331(18)
C24 C 0.5621(2) -0.04106(15) 0.36995(17)
H20 H 0.5531 -0.0672 0.3846
C25 C 0.60727(19) -0.01082(19) 0.36475(18)
C26 C 0.62075(14) 0.02823(17) 0.34292(19)
C27 C 0.6722(4) 0.0601(3) 0.3346(3)
H21 H 0.6890 0.0492 0.3488
H22 H 0.6809 0.0896 0.3438
H23 H 0.6778 0.0608 0.3060
C28 C 0.6405(4) -0.0246(4) 0.3832(4)
H24 H 0.6706 -0.0015 0.3781
H25 H 0.6355 -0.0519 0.3708
H26 H 0.6357 -0.0289 0.4119
C29 C 0.4668(3) -0.0955(3) 0.3818(2)
H27 H 0.4877 -0.0978 0.3977
C30 C 0.4230(3) -0.12963(16) 0.38675(18)
C31 C 0.3869(3) -0.1285(2) 0.36942(19)
C32 C 0.3440(3) -0.1647(3) 0.3739(2)
C33 C 0.3372(2) -0.2020(2) 0.3956(2)
H28 H 0.3085 -0.2262 0.3986
C34 C 0.3733(3) -0.20310(15) 0.41298(17)
C35 C 0.4161(3) -0.1669(2) 0.40853(16)
H29 H 0.4403 -0.1677 0.4201
C36 C 0.3700(3) -0.2429(3) 0.4390(3)
C37 C 0.2998(5) -0.1683(4) 0.3542(4)
C38 C 0.2544(4) -0.2085(4) 0.3661(4)
H30 H 0.2309 -0.2063 0.3528
H31 H 0.2506 -0.2087 0.3950
H32 H 0.2534 -0.2356 0.3580
C39 C 0.3034(5) -0.1673(5) 0.3079(6)
H33 H 0.2771 -0.1692 0.2963
H34 H 0.3062 -0.1922 0.2989
H35 H 0.3292 -0.1400 0.2996
C40 C 0.2974(5) -0.1274(5) 0.3694(6)
H36 H 0.2713 -0.1282 0.3585
H37 H 0.3235 -0.1006 0.3606
H38 H 0.2960 -0.1280 0.3984
C41 C 0.42145(16) -0.11835(17) 0.23822(15)
C42 C 0.41153(16) -0.08459(14) 0.24495(15)
C43 C 0.37445(18) -0.08651(16) 0.22661(17)
C44 C 0.34727(15) -0.12219(19) 0.20153(16)
H39 H 0.3225 -0.1235 0.1893
C45 C 0.35719(18) -0.15595(16) 0.19480(15)
C46 C 0.3943(2) -0.15403(15) 0.21314(16)
C47 C 0.4080(3) -0.1892(2) 0.2022(2)
H40 H 0.3859 -0.2114 0.1847
H41 H 0.4103 -0.2032 0.2265
H42 H 0.4363 -0.1748 0.1886
C48 C 0.3265(4) -0.1952(4) 0.1662(3)
H43 H 0.3376 -0.2157 0.1644
H44 H 0.3263 -0.1838 0.1398
H45 H 0.2967 -0.2105 0.1769
C49 C 0.3231(4) -0.0591(3) 0.2346(4)
H46 H 0.3021 -0.0849 0.2214
C50 C 0.3083(3) -0.0285(2) 0.2485(5)
C51 C 0.2622(3) -0.0476(2) 0.2468(5)
H47 H 0.2445 -0.0772 0.2390
C52 C 0.2425(2) -0.0223(3) 0.2567(4)
C53 C 0.2689(3) 0.0220(3) 0.2683(5)
H48 H 0.2557 0.0389 0.2750
C54 C 0.3150(3) 0.0411(2) 0.2700(5)
C55 C 0.3347(2) 0.0158(2) 0.2601(3)
C56 C 0.3425(6) 0.0893(5) 0.2838(6)
C57 C 0.3156(6) 0.1137(4) 0.2845(5)
H49 H 0.3025 0.1114 0.2583
H50 H 0.3350 0.1445 0.2911
H51 H 0.2924 0.1002 0.3045
C58 C 0.3790(6) 0.1164(4) 0.2539(5)
H52 H 0.3660 0.1171 0.2284
H53 H 0.3974 0.1032 0.2503
H54 H 0.3969 0.1463 0.2640
C59 C 0.3653(6) 0.0908(4) 0.3250(5)
H55 H 0.3808 0.0744 0.3227
H56 H 0.3430 0.0777 0.3458
H57 H 0.3861 0.1213 0.3319
C60 C 0.1930(5) -0.0435(5) 0.2548(6)
N3J N 0.5828(4) -0.0535(2) 0.2608(2)
O9J O 0.51385(22) -0.04827(14) 0.23168(15)
O10J O 0.65562(28) 0.03142(19) 0.23166(19)
O11J O 0.7974(4) -0.0192(3) 0.2652(3)
O12J O 0.7470(4) -0.0836(3) 0.2339(3)
C41J C 0.46020(23) -0.11835(17) 0.26178(15)
C42J C 0.50388(21) -0.08459(14) 0.25505(15)
C43J C 0.53904(24) -0.08651(16) 0.27339(17)
C44J C 0.53054(24) -0.12219(19) 0.29847(16)
H39J H 0.5540 -0.1235 0.3107
C45J C 0.48686(24) -0.15595(16) 0.30520(15)
C46J C 0.45167(25) -0.15403(15) 0.28686(16)
C47J C 0.4028(4) -0.1892(2) 0.2978(2)
H40J H 0.4027 -0.2114 0.3153
H41J H 0.3865 -0.2032 0.2735
H42J H 0.3889 -0.1748 0.3114
C48J C 0.4783(6) -0.1952(4) 0.3338(3)
H43J H 0.4467 -0.2157 0.3356
H44J H 0.4899 -0.1838 0.3602
H45J H 0.4928 -0.2105 0.3231
C49J C 0.6178(5) -0.0591(3) 0.2654(4)
H46J H 0.6130 -0.0849 0.2786
C50J C 0.6632(4) -0.0285(2) 0.2515(5)
C51J C 0.6902(4) -0.0476(2) 0.2532(5)
H47J H 0.6783 -0.0772 0.2610
C52J C 0.7352(4) -0.0223(3) 0.2433(4)
C53J C 0.7531(4) 0.0220(3) 0.2317(5)
H48J H 0.7832 0.0389 0.2250
C54J C 0.7261(4) 0.0411(2) 0.2300(5)
C55J C 0.6811(3) 0.0158(2) 0.2399(3)
C56J C 0.7468(8) 0.0893(5) 0.2162(6)
C57J C 0.7981(7) 0.1137(4) 0.2155(5)
H49J H 0.8089 0.1114 0.2417
H50J H 0.8095 0.1445 0.2089
H51J H 0.8078 0.1002 0.1955
C58J C 0.7374(7) 0.1164(4) 0.2461(5)
H52J H 0.7511 0.1171 0.2716
H53J H 0.7058 0.1032 0.2497
H54J H 0.7494 0.1463 0.2360
C59J C 0.7255(7) 0.0908(4) 0.1750(5)
H55J H 0.6936 0.0744 0.1773
H56J H 0.7347 0.0777 0.1542
H57J H 0.7352 0.1213 0.1681
C60J C 0.7635(7) -0.0435(5) 0.2452(6)
Zn2B Zn -0.00106(4) -0.50053(4) 0.2500
Zn3B Zn 0.29036(3) -0.31673(4) 0.48547(2)
Zn4B Zn -0.05514(3) -0.56519(5) 0.32297(3)
Zn5B Zn 0.00165(4) -0.59043(6) 0.26984(3)
Zn6B Zn 0.04594(3) -0.51069(5) 0.32902(3)
N1B N -0.11568(19) -0.51778(28) 0.19923(17)
N2B N 0.0620(2) -0.4556(4) 0.35917(18)
N3B N 0.0535(2) -0.5828(4) 0.2392(2)
O1B O -0.2447(3) -0.6440(4) 0.0319(3)
O2B O -0.27423(18) -0.63203(35) 0.08465(17)
O3B O -0.0726(2) -0.5065(4) 0.12150(16)
O4B O -0.04224(15) -0.47325(23) 0.24312(15)
O5B O -0.01068(14) -0.49964(23) 0.31199(13)
O6B O 0.09552(19) -0.51678(28) 0.3482(2)
O7B O 0.2712(3) -0.3980(4) 0.4388(3)
O8B O 0.2454(2) -0.3533(4) 0.4458(2)
O9B O 0.04827(14) -0.51385(22) 0.26832(15)
O10B O -0.03142(19) -0.65562(28) 0.26834(19)
O11B O 0.0192(3) -0.7974(4) 0.2348(3)
O12B O 0.0836(3) -0.7470(4) 0.2661(3)
O13B O -0.00316(17) -0.57680(25) 0.32810(14)
C1B C -0.2425(3) -0.6236(5) 0.0643(3)
C2B C -0.19732(15) -0.58962(34) 0.07817(16)
C3B C -0.1603(2) -0.5721(4) 0.05281(13)
H1B H -0.1637 -0.5799 0.0255
C4B C -0.11813(17) -0.54303(34) 0.06822(16)
C5B C -0.11298(14) -0.53138(33) 0.10899(17)
C6B C -0.15000(18) -0.54890(35) 0.13435(12)
C7B C -0.19217(15) -0.57797(34) 0.11894(15)
H2B H -0.2169 -0.5897 0.1359
C8B C -0.0760(3) -0.5238(5) 0.0394(3)
C9B C -0.0460(5) -0.5364(6) 0.0508(4)
H3B H -0.0214 -0.5243 0.0323
H4B H -0.0603 -0.5684 0.0505
H5B H -0.0354 -0.5257 0.0776
C10B C -0.0595(5) -0.4822(7) 0.0350(5)
H6B H -0.0348 -0.4711 0.0165
H7B H -0.0495 -0.4678 0.0607
H8B H -0.0819 -0.4763 0.0243
C11B C -0.0930(4) -0.5371(6) -0.0048(3)
H9B H -0.0680 -0.5250 -0.0231
H10B H -0.1122 -0.5255 -0.0116
H11B H -0.1093 -0.5691 -0.0071
C12B C -0.1498(2) -0.5402(4) 0.1776(2)
H12B H -0.1774 -0.5523 0.1904
C13B C -0.12033(14) -0.51204(24) 0.24280(10)
C14B C -0.08060(11) -0.48755(21) 0.26402(13)
C15B C -0.08150(13) -0.47889(22) 0.30503(13)
C16B C -0.12212(16) -0.49470(24) 0.32482(10)
C17B C -0.16184(13) -0.51918(23) 0.30361(13)
C18B C -0.16094(11) -0.52784(22) 0.26260(13)
H13B H -0.1875 -0.5442 0.2484
C19B C -0.2067(3) -0.5367(5) 0.3247(3)
H14B H -0.2303 -0.5529 0.3056
H15B H -0.2090 -0.5121 0.3353
H16B H -0.2090 -0.5561 0.3465
C20B C -0.1249(3) -0.4886(4) 0.3704(2)
H17B H -0.0953 -0.4710 0.3812
H18B H -0.1395 -0.5173 0.3833
H19B H -0.1415 -0.4736 0.3752
C21B C -0.03704(14) -0.44799(22) 0.32628(16)
C22B C -0.00680(17) -0.46294(23) 0.33147(17)
C23B C 0.03225(16) -0.43736(22) 0.35331(18)
C24B C 0.04106(15) -0.39684(25) 0.36995(17)
H20B H 0.0672 -0.3797 0.3846
C25B C 0.01082(19) -0.38191(27) 0.36475(18)
C26B C -0.02823(17) -0.40748(22) 0.34292(19)
C27B C -0.0601(3) -0.3879(5) 0.3346(3)
H21B H -0.0492 -0.3602 0.3488
H22B H -0.0896 -0.4087 0.3438
H23B H -0.0608 -0.3830 0.3060
C28B C 0.0246(4) -0.3349(6) 0.3832(4)
H24B H 0.0015 -0.3279 0.3781
H25B H 0.0519 -0.3126 0.3708
H26B H 0.0289 -0.3354 0.4119
C29B C 0.0955(3) -0.4377(4) 0.3818(2)
H27B H 0.0978 -0.4145 0.3977
C30B C 0.12963(16) -0.44737(34) 0.38675(18)
C31B C 0.1285(2) -0.4846(4) 0.36942(19)
C32B C 0.1647(3) -0.4913(4) 0.3739(2)
C33B C 0.2020(2) -0.4608(3) 0.3956(2)
H28B H 0.2262 -0.4653 0.3986
C34B C 0.20310(15) -0.42360(34) 0.41298(17)
C35B C 0.1669(2) -0.4170(4) 0.40853(16)
H29B H 0.1677 -0.3920 0.4201
C36B C 0.2429(3) -0.3871(4) 0.4390(3)
C37B C 0.1683(4) -0.5319(6) 0.3542(4)
C38B C 0.2085(4) -0.5371(6) 0.3661(4)
H30B H 0.2063 -0.5628 0.3528
H31B H 0.2087 -0.5407 0.3950
H32B H 0.2356 -0.5110 0.3580
C39B C 0.1673(5) -0.5293(7) 0.3079(6)
H33B H 0.1692 -0.5537 0.2963
H34B H 0.1922 -0.5016 0.2989
H35B H 0.1400 -0.5308 0.2996
C40B C 0.1274(5) -0.5752(7) 0.3694(6)
H36B H 0.1282 -0.6005 0.3585
H37B H 0.1006 -0.5759 0.3606
H38B H 0.1280 -0.5760 0.3984
C41B C 0.11835(17) -0.46020(23) 0.23822(15)
C42B C 0.08459(14) -0.50388(21) 0.24495(15)
C43B C 0.08651(16) -0.53904(24) 0.22661(17)
C44B C 0.12219(19) -0.53054(24) 0.20153(16)
H39B H 0.1235 -0.5540 0.1893
C45B C 0.15595(16) -0.48686(24) 0.19480(15)
C46B C 0.15403(15) -0.45167(25) 0.21314(16)
C47B C 0.1892(2) -0.4028(4) 0.2022(2)
H40B H 0.2114 -0.4027 0.1847
H41B H 0.2032 -0.3865 0.2265
H42B H 0.1748 -0.3889 0.1886
C48B C 0.1952(4) -0.4783(6) 0.1662(3)
H43B H 0.2157 -0.4467 0.1644
H44B H 0.1838 -0.4899 0.1398
H45B H 0.2105 -0.4928 0.1769
C49B C 0.0591(3) -0.6178(5) 0.2346(4)
H46B H 0.0849 -0.6130 0.2214
C50B C 0.0285(2) -0.6632(4) 0.2485(5)
C51B C 0.0476(2) -0.6902(4) 0.2468(5)
H47B H 0.0772 -0.6783 0.2390
C52B C 0.0223(3) -0.7352(4) 0.2567(4)
C53B C -0.0220(3) -0.7531(4) 0.2683(5)
H48B H -0.0389 -0.7832 0.2750
C54B C -0.0411(2) -0.7261(4) 0.2700(5)
C55B C -0.0158(2) -0.6811(3) 0.2601(3)
C56B C -0.0893(5) -0.7468(8) 0.2838(6)
C57B C -0.1137(4) -0.7981(7) 0.2845(5)
H49B H -0.1114 -0.8089 0.2583
H50B H -0.1445 -0.8095 0.2911
H51B H -0.1002 -0.8078 0.3045
C58B C -0.1164(4) -0.7374(7) 0.2539(5)
H52B H -0.1171 -0.7511 0.2284
H53B H -0.1032 -0.7058 0.2503
H54B H -0.1463 -0.7494 0.2640
C59B C -0.0908(4) -0.7255(7) 0.3250(5)
H55B H -0.0744 -0.6936 0.3227
H56B H -0.0777 -0.7347 0.3458
H57B H -0.1213 -0.7352 0.3319
C60B C 0.0435(5) -0.7635(7) 0.2548(6)
N3I N 0.0535(2) -0.3637(3) 0.2608(2)
O9I O 0.04827(14) -0.43788(17) 0.23168(15)
O10I O -0.03142(19) -0.3758(2) 0.23166(19)
O11I O 0.0192(3) -0.1834(3) 0.2652(3)
O12I O 0.0836(3) -0.1694(3) 0.2339(3)
C41I C 0.11835(17) -0.42145(16) 0.26178(15)
C42I C 0.08459(14) -0.41153(16) 0.25505(15)
C43I C 0.08651(16) -0.37445(18) 0.27339(17)
C44I C 0.12219(19) -0.34727(15) 0.29847(16)
H39I H 0.1235 -0.3225 0.3107
C45I C 0.15595(16) -0.35719(18) 0.30520(15)
C46I C 0.15403(15) -0.3943(2) 0.28686(16)
C47I C 0.1892(2) -0.4080(3) 0.2978(2)
H40I H 0.2114 -0.3859 0.3153
H41I H 0.2032 -0.4103 0.2735
H42I H 0.1748 -0.4363 0.3114
C48I C 0.1952(4) -0.3265(4) 0.3338(3)
H43I H 0.2157 -0.3376 0.3356
H44I H 0.1838 -0.3263 0.3602
H45I H 0.2105 -0.2967 0.3231
C49I C 0.0591(3) -0.3231(4) 0.2654(4)
H46I H 0.0849 -0.3021 0.2786
C50I C 0.0285(2) -0.3083(3) 0.2515(5)
C51I C 0.0476(2) -0.2622(3) 0.2532(5)
H47I H 0.0772 -0.2445 0.2610
C52I C 0.0223(3) -0.2425(2) 0.2433(4)
C53I C -0.0220(3) -0.2689(3) 0.2317(5)
H48I H -0.0389 -0.2557 0.2250
C54I C -0.0411(2) -0.3150(3) 0.2300(5)
C55I C -0.0158(2) -0.3347(2) 0.2399(3)
C56I C -0.0893(5) -0.3425(6) 0.2162(6)
C57I C -0.1137(4) -0.3156(6) 0.2155(5)
H49I H -0.1114 -0.3025 0.2417
H50I H -0.1445 -0.3350 0.2089
H51I H -0.1002 -0.2924 0.1955
C58I C -0.1164(4) -0.3790(6) 0.2461(5)
H52I H -0.1171 -0.3660 0.2716
H53I H -0.1032 -0.3974 0.2497
H54I H -0.1463 -0.3969 0.2360
C59I C -0.0908(4) -0.3653(6) 0.1750(5)
H55I H -0.0744 -0.3808 0.1773
H56I H -0.0777 -0.3430 0.1542
H57I H -0.1213 -0.3861 0.1681
C60I C 0.0435(5) -0.1930(5) 0.2452(6)
Zn2D Zn 0.50053(4) -0.50053(2) 0.2500
Zn3D Zn 0.31673(4) -0.39291(3) 0.48547(2)
Zn4D Zn 0.56519(5) -0.48995(4) 0.32297(3)
Zn5D Zn 0.59043(6) -0.40792(4) 0.26984(3)
Zn6D Zn 0.51069(5) -0.44337(4) 0.32902(3)
N1D N 0.51778(28) -0.5979(2) 0.19923(17)
N2D N 0.4556(4) -0.4824(3) 0.35917(18)
N3D N 0.5828(4) -0.3637(3) 0.2392(2)
O1D O 0.6440(4) -0.6007(3) 0.0319(3)
O2D O 0.63203(35) -0.6422(3) 0.08465(17)
O3D O 0.5065(4) -0.5661(3) 0.12150(16)
O4D O 0.47325(23) -0.56899(18) 0.24312(15)
O5D O 0.49964(23) -0.51104(18) 0.31199(13)
O6D O 0.51678(28) -0.3877(2) 0.3482(2)
O7D O 0.3980(4) -0.3308(3) 0.4388(3)
O8D O 0.3533(4) -0.4013(3) 0.4458(2)
O9D O 0.51385(22) -0.43788(17) 0.26832(15)
O10D O 0.65562(28) -0.3758(2) 0.26834(19)
O11D O 0.7974(4) -0.1834(3) 0.2348(3)
O12D O 0.7470(4) -0.1694(3) 0.2661(3)
O13D O 0.57680(25) -0.42636(19) 0.32810(14)
C1D C 0.6236(5) -0.6189(4) 0.0643(3)
C2D C 0.58962(34) -0.6077(3) 0.07817(16)
C3D C 0.5721(4) -0.5882(3) 0.05281(13)
H1D H 0.5799 -0.5838 0.0255
C4D C 0.54303(34) -0.5751(3) 0.06822(16)
C5D C 0.53138(33) -0.5816(3) 0.10899(17)
C6D C 0.54890(35) -0.6011(3) 0.13435(12)
C7D C 0.57797(34) -0.6142(3) 0.11894(15)
H2D H 0.5897 -0.6272 0.1359
C8D C 0.5238(5) -0.5522(4) 0.0394(3)
C9D C 0.5364(6) -0.5096(4) 0.0508(4)
H3D H 0.5243 -0.4971 0.0323
H4D H 0.5684 -0.4919 0.0505
H5D H 0.5257 -0.5097 0.0776
C10D C 0.4822(7) -0.5773(5) 0.0350(5)
H6D H 0.4711 -0.5637 0.0165
H7D H 0.4678 -0.5817 0.0607
H8D H 0.4763 -0.6056 0.0243
C11D C 0.5371(6) -0.5559(4) -0.0048(3)
H9D H 0.5250 -0.5430 -0.0231
H10D H 0.5255 -0.5867 -0.0116
H11D H 0.5691 -0.5402 -0.0071
C12D C 0.5402(4) -0.6096(3) 0.1776(2)
H12D H 0.5523 -0.6251 0.1904
C13D C 0.51204(24) -0.60829(19) 0.24280(10)
C14D C 0.48755(21) -0.59305(18) 0.26402(13)
C15D C 0.47889(22) -0.60261(18) 0.30503(13)
C16D C 0.49470(24) -0.62742(18) 0.32482(10)
C17D C 0.51918(23) -0.64266(19) 0.30361(13)
C18D C 0.52784(22) -0.63310(19) 0.26260(13)
H13D H 0.5442 -0.6433 0.2484
C19D C 0.5367(5) -0.6700(4) 0.3247(3)
H14D H 0.5529 -0.6774 0.3056
H15D H 0.5121 -0.6969 0.3353
H16D H 0.5561 -0.6529 0.3465
C20D C 0.4886(4) -0.6363(3) 0.3704(2)
H17D H 0.4710 -0.6243 0.3812
H18D H 0.5173 -0.6222 0.3833
H19D H 0.4736 -0.6679 0.3752
C21D C 0.44799(22) -0.58905(17) 0.32628(16)
C22D C 0.46294(23) -0.54386(16) 0.33147(17)
C23D C 0.43736(22) -0.53039(15) 0.35331(18)
C24D C 0.39684(25) -0.5621(2) 0.36995(17)
H20D H 0.3797 -0.5531 0.3846
C25D C 0.38191(27) -0.60727(19) 0.36475(18)
C26D C 0.40748(22) -0.62075(14) 0.34292(19)
C27D C 0.3879(5) -0.6722(4) 0.3346(3)
H21D H 0.3602 -0.6890 0.3488
H22D H 0.4087 -0.6809 0.3438
H23D H 0.3830 -0.6778 0.3060
C28D C 0.3349(6) -0.6405(4) 0.3832(4)
H24D H 0.3279 -0.6706 0.3781
H25D H 0.3126 -0.6355 0.3708
H26D H 0.3354 -0.6357 0.4119
C29D C 0.4377(4) -0.4668(3) 0.3818(2)
H27D H 0.4145 -0.4877 0.3977
C30D C 0.44737(34) -0.4230(3) 0.38675(18)
C31D C 0.4846(4) -0.3869(3) 0.36942(19)
C32D C 0.4913(4) -0.3440(3) 0.3739(2)
C33D C 0.4608(3) -0.3372(2) 0.3956(2)
H28D H 0.4653 -0.3085 0.3986
C34D C 0.42360(34) -0.3733(3) 0.41298(17)
C35D C 0.4170(4) -0.4161(3) 0.40853(16)
H29D H 0.3920 -0.4403 0.4201
C36D C 0.3871(4) -0.3700(3) 0.4390(3)
C37D C 0.5319(6) -0.2998(5) 0.3542(4)
C38D C 0.5371(6) -0.2544(4) 0.3661(4)
H30D H 0.5628 -0.2309 0.3528
H31D H 0.5407 -0.2506 0.3950
H32D H 0.5110 -0.2534 0.3580
C39D C 0.5293(7) -0.3034(5) 0.3079(6)
H33D H 0.5537 -0.2771 0.2963
H34D H 0.5016 -0.3062 0.2989
H35D H 0.5308 -0.3292 0.2996
C40D C 0.5752(7) -0.2974(5) 0.3694(6)
H36D H 0.6005 -0.2713 0.3585
H37D H 0.5759 -0.3235 0.3606
H38D H 0.5760 -0.2960 0.3984
C41D C 0.46020(23) -0.42145(16) 0.23822(15)
C42D C 0.50388(21) -0.41153(16) 0.24495(15)
C43D C 0.53904(24) -0.37445(18) 0.22661(17)
C44D C 0.53054(24) -0.34727(15) 0.20153(16)
H39D H 0.5540 -0.3225 0.1893
C45D C 0.48686(24) -0.35719(18) 0.19480(15)
C46D C 0.45167(25) -0.3943(2) 0.21314(16)
C47D C 0.4028(4) -0.4080(3) 0.2022(2)
H40D H 0.4027 -0.3859 0.1847
H41D H 0.3865 -0.4103 0.2265
H42D H 0.3889 -0.4363 0.1886
C48D C 0.4783(6) -0.3265(4) 0.1662(3)
H43D H 0.4467 -0.3376 0.1644
H44D H 0.4899 -0.3263 0.1398
H45D H 0.4928 -0.2967 0.1769
C49D C 0.6178(5) -0.3231(4) 0.2346(4)
H46D H 0.6130 -0.3021 0.2214
C50D C 0.6632(4) -0.3083(3) 0.2485(5)
C51D C 0.6902(4) -0.2622(3) 0.2468(5)
H47D H 0.6783 -0.2445 0.2390
C52D C 0.7352(4) -0.2425(2) 0.2567(4)
C53D C 0.7531(4) -0.2689(3) 0.2683(5)
H48D H 0.7832 -0.2557 0.2750
C54D C 0.7261(4) -0.3150(3) 0.2700(5)
C55D C 0.6811(3) -0.3347(2) 0.2601(3)
C56D C 0.7468(8) -0.3425(6) 0.2838(6)
C57D C 0.7981(7) -0.3156(6) 0.2845(5)
H49D H 0.8089 -0.3025 0.2583
H50D H 0.8095 -0.3350 0.2911
H51D H 0.8078 -0.2924 0.3045
C58D C 0.7374(7) -0.3790(6) 0.2539(5)
H52D H 0.7511 -0.3660 0.2284
H53D H 0.7058 -0.3974 0.2503
H54D H 0.7494 -0.3969 0.2640
C59D C 0.7255(7) -0.3653(6) 0.3250(5)
H55D H 0.6936 -0.3808 0.3227
H56D H 0.7347 -0.3430 0.3458
H57D H 0.7352 -0.3861 0.3319
C60D C 0.7635(7) -0.1930(5) 0.2548(6)
N3K N 0.3637(3) -0.5828(4) 0.2608(2)
O9K O 0.43788(17) -0.51385(22) 0.23168(15)
O10K O 0.3758(2) -0.65562(28) 0.23166(19)
O11K O 0.1834(3) -0.7974(4) 0.2652(3)
O12K O 0.1694(3) -0.7470(4) 0.2339(3)
C41K C 0.42145(16) -0.46020(23) 0.26178(15)
C42K C 0.41153(16) -0.50388(21) 0.25505(15)
C43K C 0.37445(18) -0.53904(24) 0.27339(17)
C44K C 0.34727(15) -0.53054(24) 0.29847(16)
H39K H 0.3225 -0.5540 0.3107
C45K C 0.35719(18) -0.48686(24) 0.30520(15)
C46K C 0.3943(2) -0.45167(25) 0.28686(16)
C47K C 0.4080(3) -0.4028(4) 0.2978(2)
H40K H 0.3859 -0.4027 0.3153
H41K H 0.4103 -0.3865 0.2735
H42K H 0.4363 -0.3889 0.3114
C48K C 0.3265(4) -0.4783(6) 0.3338(3)
H43K H 0.3376 -0.4467 0.3356
H44K H 0.3263 -0.4899 0.3602
H45K H 0.2967 -0.4928 0.3231
C49K C 0.3231(4) -0.6178(5) 0.2654(4)
H46K H 0.3021 -0.6130 0.2786
C50K C 0.3083(3) -0.6632(4) 0.2515(5)
C51K C 0.2622(3) -0.6902(4) 0.2532(5)
H47K H 0.2445 -0.6783 0.2610
C52K C 0.2425(2) -0.7352(4) 0.2433(4)
C53K C 0.2689(3) -0.7531(4) 0.2317(5)
H48K H 0.2557 -0.7832 0.2250
C54K C 0.3150(3) -0.7261(4) 0.2300(5)
C55K C 0.3347(2) -0.6811(3) 0.2399(3)
C56K C 0.3425(6) -0.7468(8) 0.2162(6)
C57K C 0.3156(6) -0.7981(7) 0.2155(5)
H49K H 0.3025 -0.8089 0.2417
H50K H 0.3350 -0.8095 0.2089
H51K H 0.2924 -0.8078 0.1955
C58K C 0.3790(6) -0.7374(7) 0.2461(5)
H52K H 0.3660 -0.7511 0.2716
H53K H 0.3974 -0.7058 0.2497
H54K H 0.3969 -0.7494 0.2360
C59K C 0.3653(6) -0.7255(7) 0.1750(5)
H55K H 0.3808 -0.6936 0.1773
H56K H 0.3430 -0.7347 0.1542
H57K H 0.3861 -0.7352 0.1681
C60K C 0.1930(5) -0.7635(7) 0.2452(6)
Zn1I Zn 0.3333 -0.3333 -0.06257(4)
Zn3I Zn 0.29036(3) -0.39291(3) 0.01453(2)
Zn4I Zn -0.05514(3) -0.48995(4) 0.17703(3)
Zn5I Zn 0.00165(4) -0.40792(4) 0.23016(3)
Zn6I Zn 0.04594(3) -0.44337(4) 0.17098(3)
N1I N -0.11568(19) -0.5979(2) 0.30077(17)
N2I N 0.0620(2) -0.4824(3) 0.14083(18)
O1I O -0.2447(3) -0.6007(3) 0.4681(3)
O2I O -0.27423(18) -0.6422(3) 0.41535(17)
O3I O -0.0726(2) -0.5661(3) 0.37850(16)
O4I O -0.04224(15) -0.56899(18) 0.25688(15)
O5I O -0.01068(14) -0.51104(18) 0.18801(13)
O6I O 0.09552(19) -0.3877(2) 0.1518(2)
O7I O 0.2712(3) -0.3308(3) 0.0612(3)
O8I O 0.2454(2) -0.4013(3) 0.0542(2)
O13I O -0.00316(17) -0.42636(19) 0.17190(14)
O14I O 0.3333 -0.3333 -0.0046(2)
C1I C -0.2425(3) -0.6189(4) 0.4357(3)
C2I C -0.19732(15) -0.6077(3) 0.42183(16)
C3I C -0.1603(2) -0.5882(3) 0.44719(13)
H1I H -0.1637 -0.5838 0.4745
C4I C -0.11813(17) -0.5751(3) 0.43178(16)
C5I C -0.11298(14) -0.5816(3) 0.39101(17)
C6I C -0.15000(18) -0.6011(3) 0.36565(12)
C7I C -0.19217(15) -0.6142(3) 0.38106(15)
H2I H -0.2169 -0.6272 0.3641
C8I C -0.0760(3) -0.5522(4) 0.4606(3)
C9I C -0.0460(5) -0.5096(4) 0.4492(4)
H3I H -0.0214 -0.4971 0.4677
H4I H -0.0603 -0.4919 0.4495
H5I H -0.0354 -0.5097 0.4224
C10I C -0.0595(5) -0.5773(5) 0.4650(5)
H6I H -0.0348 -0.5637 0.4835
H7I H -0.0495 -0.5817 0.4393
H8I H -0.0819 -0.6056 0.4757
C11I C -0.0930(4) -0.5559(4) 0.5048(3)
H9I H -0.0680 -0.5430 0.5231
H10I H -0.1122 -0.5867 0.5116
H11I H -0.1093 -0.5402 0.5071
C12I C -0.1498(2) -0.6096(3) 0.3224(2)
H12I H -0.1774 -0.6251 0.3096
C13I C -0.12033(14) -0.60829(19) 0.25720(10)
C14I C -0.08060(11) -0.59305(18) 0.23598(13)
C15I C -0.08150(13) -0.60261(18) 0.19497(13)
C16I C -0.12212(16) -0.62742(18) 0.17518(10)
C17I C -0.16184(13) -0.64266(19) 0.19639(13)
C18I C -0.16094(11) -0.63310(19) 0.23740(13)
H13I H -0.1875 -0.6433 0.2516
C19I C -0.2067(3) -0.6700(4) 0.1753(3)
H14I H -0.2303 -0.6774 0.1944
H15I H -0.2090 -0.6969 0.1647
H16I H -0.2090 -0.6529 0.1535
C20I C -0.1249(3) -0.6363(3) 0.1296(2)
H17I H -0.0953 -0.6243 0.1188
H18I H -0.1395 -0.6222 0.1167
H19I H -0.1415 -0.6679 0.1248
C21I C -0.03704(14) -0.58905(17) 0.17372(16)
C22I C -0.00680(17) -0.54386(16) 0.16853(17)
C23I C 0.03225(16) -0.53039(15) 0.14669(18)
C24I C 0.04106(15) -0.5621(2) 0.13005(17)
H20I H 0.0672 -0.5531 0.1154
C25I C 0.01082(19) -0.60727(19) 0.13525(18)
C26I C -0.02823(17) -0.62075(14) 0.15708(19)
C27I C -0.0601(3) -0.6722(4) 0.1654(3)
H21I H -0.0492 -0.6890 0.1512
H22I H -0.0896 -0.6809 0.1562
H23I H -0.0608 -0.6778 0.1940
C28I C 0.0246(4) -0.6405(4) 0.1168(4)
H24I H 0.0015 -0.6706 0.1219
H25I H 0.0519 -0.6355 0.1292
H26I H 0.0289 -0.6357 0.0881
C29I C 0.0955(3) -0.4668(3) 0.1182(2)
H27I H 0.0978 -0.4877 0.1023
C30I C 0.12963(16) -0.4230(3) 0.11325(18)
C31I C 0.1285(2) -0.3869(3) 0.13058(19)
C32I C 0.1647(3) -0.3440(3) 0.1261(2)
C33I C 0.2020(2) -0.3372(2) 0.1044(2)
H28I H 0.2262 -0.3085 0.1014
C34I C 0.20310(15) -0.3733(3) 0.08702(17)
C35I C 0.1669(2) -0.4161(3) 0.09147(16)
H29I H 0.1677 -0.4403 0.0799
C36I C 0.2429(3) -0.3700(3) 0.0610(3)
C37I C 0.1683(4) -0.2998(5) 0.1458(4)
C38I C 0.2085(4) -0.2544(4) 0.1339(4)
H30I H 0.2063 -0.2309 0.1472
H31I H 0.2087 -0.2506 0.1050
H32I H 0.2356 -0.2534 0.1420
C39I C 0.1673(5) -0.3034(5) 0.1921(6)
H33I H 0.1692 -0.2771 0.2037
H34I H 0.1922 -0.3062 0.2011
H35I H 0.1400 -0.3292 0.2004
C40I C 0.1274(5) -0.2974(5) 0.1306(6)
H36I H 0.1282 -0.2713 0.1415
H37I H 0.1006 -0.3235 0.1394
H38I H 0.1280 -0.2960 0.1016
Zn3J Zn 0.31673(4) -0.29036(3) 0.01453(2)
Zn4J Zn 0.56519(5) 0.05514(3) 0.17703(3)
Zn5J Zn 0.59043(6) -0.00165(4) 0.23016(3)
Zn6J Zn 0.51069(5) -0.04594(3) 0.17098(3)
N1J N 0.51778(28) 0.11568(19) 0.30077(17)
N2J N 0.4556(4) -0.0620(2) 0.14083(18)
O1J O 0.6440(4) 0.2447(3) 0.4681(3)
O2J O 0.63203(35) 0.27423(18) 0.41535(17)
O3J O 0.5065(4) 0.0726(2) 0.37850(16)
O4J O 0.47325(23) 0.04224(15) 0.25688(15)
O5J O 0.49964(23) 0.01068(14) 0.18801(13)
O6J O 0.51678(28) -0.09552(19) 0.1518(2)
O7J O 0.3980(4) -0.2712(3) 0.0612(3)
O8J O 0.3533(4) -0.2454(2) 0.0542(2)
O13J O 0.57680(25) 0.00316(17) 0.17190(14)
C1J C 0.6236(5) 0.2425(3) 0.4357(3)
C2J C 0.58962(34) 0.19732(15) 0.42183(16)
C3J C 0.5721(4) 0.1603(2) 0.44719(13)
H1J H 0.5799 0.1637 0.4745
C4J C 0.54303(34) 0.11813(17) 0.43178(16)
C5J C 0.53138(33) 0.11298(14) 0.39101(17)
C6J C 0.54890(35) 0.15000(18) 0.36565(12)
C7J C 0.57797(34) 0.19217(15) 0.38106(15)
H2J H 0.5897 0.2169 0.3641
C8J C 0.5238(5) 0.0760(3) 0.4606(3)
C9J C 0.5364(6) 0.0460(5) 0.4492(4)
H3J H 0.5243 0.0214 0.4677
H4J H 0.5684 0.0603 0.4495
H5J H 0.5257 0.0354 0.4224
C10J C 0.4822(7) 0.0595(5) 0.4650(5)
H6J H 0.4711 0.0348 0.4835
H7J H 0.4678 0.0495 0.4393
H8J H 0.4763 0.0819 0.4757
C11J C 0.5371(6) 0.0930(4) 0.5048(3)
H9J H 0.5250 0.0680 0.5231
H10J H 0.5255 0.1122 0.5116
H11J H 0.5691 0.1093 0.5071
C12J C 0.5402(4) 0.1498(2) 0.3224(2)
H12J H 0.5523 0.1774 0.3096
C13J C 0.51204(24) 0.12033(14) 0.25720(10)
C14J C 0.48755(21) 0.08060(11) 0.23598(13)
C15J C 0.47889(22) 0.08150(13) 0.19497(13)
C16J C 0.49470(24) 0.12212(16) 0.17518(10)
C17J C 0.51918(23) 0.16184(13) 0.19639(13)
C18J C 0.52784(22) 0.16094(11) 0.23740(13)
H13J H 0.5442 0.1875 0.2516
C19J C 0.5367(5) 0.2067(3) 0.1753(3)
H14J H 0.5529 0.2303 0.1944
H15J H 0.5121 0.2090 0.1647
H16J H 0.5561 0.2090 0.1535
C20J C 0.4886(4) 0.1249(3) 0.1296(2)
H17J H 0.4710 0.0953 0.1188
H18J H 0.5173 0.1395 0.1167
H19J H 0.4736 0.1415 0.1248
C21J C 0.44799(22) 0.03704(14) 0.17372(16)
C22J C 0.46294(23) 0.00680(17) 0.16853(17)
C23J C 0.43736(22) -0.03225(16) 0.14669(18)
C24J C 0.39684(25) -0.04106(15) 0.13005(17)
H20J H 0.3797 -0.0672 0.1154
C25J C 0.38191(27) -0.01082(19) 0.13525(18)
C26J C 0.40748(22) 0.02823(17) 0.15708(19)
C27J C 0.3879(5) 0.0601(3) 0.1654(3)
H21J H 0.3602 0.0492 0.1512
H22J H 0.4087 0.0896 0.1562
H23J H 0.3830 0.0608 0.1940
C28J C 0.3349(6) -0.0246(4) 0.1168(4)
H24J H 0.3279 -0.0015 0.1219
H25J H 0.3126 -0.0519 0.1292
H26J H 0.3354 -0.0289 0.0881
C29J C 0.4377(4) -0.0955(3) 0.1182(2)
H27J H 0.4145 -0.0978 0.1023
C30J C 0.44737(34) -0.12963(16) 0.11325(18)
C31J C 0.4846(4) -0.1285(2) 0.13058(19)
C32J C 0.4913(4) -0.1647(3) 0.1261(2)
C33J C 0.4608(3) -0.2020(2) 0.1044(2)
H28J H 0.4653 -0.2262 0.1014
C34J C 0.42360(34) -0.20310(15) 0.08702(17)
C35J C 0.4170(4) -0.1669(2) 0.09147(16)
H29J H 0.3920 -0.1677 0.0799
C36J C 0.3871(4) -0.2429(3) 0.0610(3)
C37J C 0.5319(6) -0.1683(4) 0.1458(4)
C38J C 0.5371(6) -0.2085(4) 0.1339(4)
H30J H 0.5628 -0.2063 0.1472
H31J H 0.5407 -0.2087 0.1050
H32J H 0.5110 -0.2356 0.1420
C39J C 0.5293(7) -0.1673(5) 0.1921(6)
H33J H 0.5537 -0.1692 0.2037
H34J H 0.5016 -0.1922 0.2011
H35J H 0.5308 -0.1400 0.2004
C40J C 0.5752(7) -0.1274(5) 0.1306(6)
H36J H 0.6005 -0.1282 0.1415
H37J H 0.5759 -0.1006 0.1394
H38J H 0.5760 -0.1280 0.1016
Zn3K Zn 0.39291(3) -0.31673(4) 0.01453(2)
Zn4K Zn 0.48995(4) -0.56519(5) 0.17703(3)
Zn5K Zn 0.40792(4) -0.59043(6) 0.23016(3)
Zn6K Zn 0.44337(4) -0.51069(5) 0.17098(3)
N1K N 0.5979(2) -0.51778(28) 0.30077(17)
N2K N 0.4824(3) -0.4556(4) 0.14083(18)
O1K O 0.6007(3) -0.6440(4) 0.4681(3)
O2K O 0.6422(3) -0.63203(35) 0.41535(17)
O3K O 0.5661(3) -0.5065(4) 0.37850(16)
O4K O 0.56899(18) -0.47325(23) 0.25688(15)
O5K O 0.51104(18) -0.49964(23) 0.18801(13)
O6K O 0.3877(2) -0.51678(28) 0.1518(2)
O7K O 0.3308(3) -0.3980(4) 0.0612(3)
O8K O 0.4013(3) -0.3533(4) 0.0542(2)
O13K O 0.42636(19) -0.57680(25) 0.17190(14)
C1K C 0.6189(4) -0.6236(5) 0.4357(3)
C2K C 0.6077(3) -0.58962(34) 0.42183(16)
C3K C 0.5882(3) -0.5721(4) 0.44719(13)
H1K H 0.5838 -0.5799 0.4745
C4K C 0.5751(3) -0.54303(34) 0.43178(16)
C5K C 0.5816(3) -0.53138(33) 0.39101(17)
C6K C 0.6011(3) -0.54890(35) 0.36565(12)
C7K C 0.6142(3) -0.57797(34) 0.38106(15)
H2K H 0.6272 -0.5897 0.3641
C8K C 0.5522(4) -0.5238(5) 0.4606(3)
C9K C 0.5096(4) -0.5364(6) 0.4492(4)
H3K H 0.4971 -0.5243 0.4677
H4K H 0.4919 -0.5684 0.4495
H5K H 0.5097 -0.5257 0.4224
C10K C 0.5773(5) -0.4822(7) 0.4650(5)
H6K H 0.5637 -0.4711 0.4835
H7K H 0.5817 -0.4678 0.4393
H8K H 0.6056 -0.4763 0.4757
C11K C 0.5559(4) -0.5371(6) 0.5048(3)
H9K H 0.5430 -0.5250 0.5231
H10K H 0.5867 -0.5255 0.5116
H11K H 0.5402 -0.5691 0.5071
C12K C 0.6096(3) -0.5402(4) 0.3224(2)
H12K H 0.6251 -0.5523 0.3096
C13K C 0.60829(19) -0.51204(24) 0.25720(10)
C14K C 0.59305(18) -0.48755(21) 0.23598(13)
C15K C 0.60261(18) -0.47889(22) 0.19497(13)
C16K C 0.62742(18) -0.49470(24) 0.17518(10)
C17K C 0.64266(19) -0.51918(23) 0.19639(13)
C18K C 0.63310(19) -0.52784(22) 0.23740(13)
H13K H 0.6433 -0.5442 0.2516
C19K C 0.6700(4) -0.5367(5) 0.1753(3)
H14K H 0.6774 -0.5529 0.1944
H15K H 0.6969 -0.5121 0.1647
H16K H 0.6529 -0.5561 0.1535
C20K C 0.6363(3) -0.4886(4) 0.1296(2)
H17K H 0.6243 -0.4710 0.1188
H18K H 0.6222 -0.5173 0.1167
H19K H 0.6679 -0.4736 0.1248
C21K C 0.58905(17) -0.44799(22) 0.17372(16)
C22K C 0.54386(16) -0.46294(23) 0.16853(17)
C23K C 0.53039(15) -0.43736(22) 0.14669(18)
C24K C 0.5621(2) -0.39684(25) 0.13005(17)
H20K H 0.5531 -0.3797 0.1154
C25K C 0.60727(19) -0.38191(27) 0.13525(18)
C26K C 0.62075(14) -0.40748(22) 0.15708(19)
C27K C 0.6722(4) -0.3879(5) 0.1654(3)
H21K H 0.6890 -0.3602 0.1512
H22K H 0.6809 -0.4087 0.1562
H23K H 0.6778 -0.3830 0.1940
C28K C 0.6405(4) -0.3349(6) 0.1168(4)
H24K H 0.6706 -0.3279 0.1219
H25K H 0.6355 -0.3126 0.1292
H26K H 0.6357 -0.3354 0.0881
C29K C 0.4668(3) -0.4377(4) 0.1182(2)
H27K H 0.4877 -0.4145 0.1023
C30K C 0.4230(3) -0.44737(34) 0.11325(18)
C31K C 0.3869(3) -0.4846(4) 0.13058(19)
C32K C 0.3440(3) -0.4913(4) 0.1261(2)
C33K C 0.3372(2) -0.4608(3) 0.1044(2)
H28K H 0.3085 -0.4653 0.1014
C34K C 0.3733(3) -0.42360(34) 0.08702(17)
C35K C 0.4161(3) -0.4170(4) 0.09147(16)
H29K H 0.4403 -0.3920 0.0799
C36K C 0.3700(3) -0.3871(4) 0.0610(3)
C37K C 0.2998(5) -0.5319(6) 0.1458(4)
C38K C 0.2544(4) -0.5371(6) 0.1339(4)
H30K H 0.2309 -0.5628 0.1472
H31K H 0.2506 -0.5407 0.1050
H32K H 0.2534 -0.5110 0.1420
C39K C 0.3034(5) -0.5293(7) 0.1921(6)
H33K H 0.2771 -0.5537 0.2037
H34K H 0.3062 -0.5016 0.2011
H35K H 0.3292 -0.5308 0.2004
C40K C 0.2974(5) -0.5752(7) 0.1306(6)
H36K H 0.2713 -0.6005 0.1415
H37K H 0.3235 -0.5759 0.1394
H38K H 0.2960 -0.5760 0.1016
Zn1A Zn -0.3334 -0.6667 0.06257(4)
Zn1A_2 Zn 0.6666 -0.6667 0.06257(4)
Zn1A_3 Zn 0.6666 0.3333 0.06257(4)
Zn1F Zn -0.3334 -0.6667 0.43743(4)
Zn1F_2 Zn 0.6666 -0.6667 0.43743(4)
Zn1F_3 Zn 0.6666 0.3333 0.43743(4)
Zn3A Zn 0.68327(4) -0.60709(3) -0.01453(2)
Zn3C Zn 0.60709(3) 0.29036(3) -0.01453(2)
Zn3E Zn -0.29036(3) -0.68327(4) -0.01453(2)
Zn3F Zn 0.68327(4) 0.29036(3) 0.51453(2)
Zn3G Zn 0.60709(3) -0.68327(4) 0.51453(2)
Zn3H Zn -0.29036(3) -0.60709(3) 0.51453(2)
O1A O 0.3560(4) -0.3993(3) 0.5319(3)
O1C O 0.3993(3) -0.2447(3) 0.5319(3)
O1E O 0.2447(3) -0.3560(4) 0.5319(3)
O1F O 0.3560(4) -0.2447(3) -0.0319(3)
O1G O 0.3993(3) -0.3560(4) -0.0319(3)
O1H O 0.2447(3) -0.3993(3) -0.0319(3)
O2A O 0.36797(35) -0.3578(3) 0.58465(17)
O2C O 0.3578(3) -0.27423(18) 0.58465(17)
O2E O 0.27423(18) -0.36797(35) 0.58465(17)
O2F O 0.36797(35) -0.27423(18) -0.08465(17)
O2G O 0.3578(3) -0.36797(35) -0.08465(17)
O2H O 0.27423(18) -0.3578(3) -0.08465(17)
loop_
_geom_bond_atom_site_label_1
_geom_bond_atom_site_label_2
_geom_bond_site_symmetry_1
_geom_bond_site_symmetry_2
Zn1 O14 1_555 1_555
Zn2 O4 1_555 1_555
Zn3 O8 1_555 1_555
Zn4 O5 1_555 1_555
Zn5 N3 1_555 1_555
Zn6 N2 1_555 1_555
N1 C12 1_555 1_555
N2 C23 1_555 1_555
N3 C43 1_555 1_555
O1 C1 1_555 1_555
O2 C1 1_555 1_555
O3 C5 1_555 1_555
O4 C14 1_555 1_555
O5 Zn2 1_555 1_555
O6 Zn6 1_555 1_555
O7 C36 1_555 1_555
O8 C36 1_555 1_555
O9 Zn2 1_555 1_555
O10 Zn5 1_555 1_555
O11 C60 1_555 1_555
O12 C60 1_555 1_555
O13 Zn4 1_555 1_555
O14 Zn3 1_555 1_555
C1 C2 1_555 1_555
C2 C3 1_555 1_555
C3 H1 1_555 1_555
C4 C3 1_555 1_555
C5 C4 1_555 1_555
C6 C5 1_555 1_555
C7 C2 1_555 1_555
H2 C7 1_555 1_555
C8 C4 1_555 1_555
C9 C8 1_555 1_555
H3 C9 1_555 1_555
H4 C9 1_555 1_555
H5 C9 1_555 1_555
C10 C8 1_555 1_555
H6 C10 1_555 1_555
H7 C10 1_555 1_555
H8 C10 1_555 1_555
C11 C8 1_555 1_555
H9 C11 1_555 1_555
H10 C11 1_555 1_555
H11 C11 1_555 1_555
C12 C6 1_555 1_555
H12 C12 1_555 1_555
C13 N1 1_555 1_555
C14 C13 1_555 1_555
C15 C14 1_555 1_555
C16 C15 1_555 1_555
C17 C16 1_555 1_555
C18 C13 1_555 1_555
H13 C18 1_555 1_555
C19 C17 1_555 1_555
H14 C19 1_555 1_555
H15 C19 1_555 1_555
H16 C19 1_555 1_555
C20 C16 1_555 1_555
H17 C20 1_555 1_555
H18 C20 1_555 1_555
H19 C20 1_555 1_555
C21 C15 1_555 1_555
C22 O5 1_555 1_555
C23 C22 1_555 1_555
C24 C23 1_555 1_555
H20 C24 1_555 1_555
C25 C24 1_555 1_555
C26 C21 1_555 1_555
C27 C26 1_555 1_555
H21 C27 1_555 1_555
H22 C27 1_555 1_555
H23 C27 1_555 1_555
C28 C25 1_555 1_555
H24 C28 1_555 1_555
H25 C28 1_555 1_555
H26 C28 1_555 1_555
C29 N2 1_555 1_555
H27 C29 1_555 1_555
C30 C29 1_555 1_555
C31 O6 1_555 1_555
C32 C31 1_555 1_555
C33 C32 1_555 1_555
H28 C33 1_555 1_555
C34 C33 1_555 1_555
C35 C30 1_555 1_555
H29 C35 1_555 1_555
C36 C34 1_555 1_555
C37 C32 1_555 1_555
C38 C37 1_555 1_555
H30 C38 1_555 1_555
H31 C38 1_555 1_555
H32 C38 1_555 1_555
C39 C37 1_555 1_555
H33 C39 1_555 1_555
H34 C39 1_555 1_555
H35 C39 1_555 1_555
C40 C37 1_555 1_555
H36 C40 1_555 1_555
H37 C40 1_555 1_555
H38 C40 1_555 1_555
C41 C42 1_555 1_555
C42 O9 1_555 1_555
C43 C42 1_555 1_555
C44 C43 1_555 1_555
H39 C44 1_555 1_555
C45 C44 1_555 1_555
C46 C41 1_555 1_555
C47 C46 1_555 1_555
H40 C47 1_555 1_555
H41 C47 1_555 1_555
H42 C47 1_555 1_555
C48 C45 1_555 1_555
H43 C48 1_555 1_555
H44 C48 1_555 1_555
H45 C48 1_555 1_555
C49 N3 1_555 1_555
H46 C49 1_555 1_555
C50 C49 1_555 1_555
C51 C50 1_555 1_555
H47 C51 1_555 1_555
C52 C51 1_555 1_555
C53 C52 1_555 1_555
H48 C53 1_555 1_555
C54 C53 1_555 1_555
C55 O10 1_555 1_555
C56 C54 1_555 1_555
C57 C56 1_555 1_555
H49 C57 1_555 1_555
H50 C57 1_555 1_555
H51 C57 1_555 1_555
C58 C56 1_555 1_555
H52 C58 1_555 1_555
H53 C58 1_555 1_555
H54 C58 1_555 1_555
C59 C56 1_555 1_555
H55 C59 1_555 1_555
H56 C59 1_555 1_555
H57 C59 1_555 1_555
C60 C52 1_555 1_555
N3J C43J 1_555 1_555
O9J Zn2 1_555 1_555
O10J C55J 1_555 1_555
O11J C60J 1_555 1_555
O12J C60J 1_555 1_555
C41J C41 1_555 1_555
C42J O9J 1_555 1_555
C43J C42J 1_555 1_555
C44J C43J 1_555 1_555
H39J C44J 1_555 1_555
C45J C44J 1_555 1_555
C46J C41J 1_555 1_555
C47J C46J 1_555 1_555
H40J C47J 1_555 1_555
H41J C47J 1_555 1_555
H42J C47J 1_555 1_555
C48J C45J 1_555 1_555
H43J C48J 1_555 1_555
H44J C48J 1_555 1_555
H45J C48J 1_555 1_555
C49J N3J 1_555 1_555
H46J C49J 1_555 1_555
C50J C49J 1_555 1_555
C51J C50J 1_555 1_555
H47J C51J 1_555 1_555
C52J C51J 1_555 1_555
C53J C52J 1_555 1_555
H48J C53J 1_555 1_555
C54J C53J 1_555 1_555
C55J C50J 1_555 1_555
C56J C54J 1_555 1_555
C57J C56J 1_555 1_555
H49J C57J 1_555 1_555
H50J C57J 1_555 1_555
H51J C57J 1_555 1_555
C58J C56J 1_555 1_555
H52J C58J 1_555 1_555
H53J C58J 1_555 1_555
H54J C58J 1_555 1_555
C59J C56J 1_555 1_555
H55J C59J 1_555 1_555
H56J C59J 1_555 1_555
H57J C59J 1_555 1_555
C60J C52J 1_555 1_555
Zn2B O4B 1_555 1_555
Zn3B O7 1_555 1_555
Zn4B O5B 1_555 1_555
Zn5B N3B 1_555 1_555
Zn6B N2B 1_555 1_555
N1B C12B 1_555 1_555
N2B C23B 1_555 1_555
N3B C43B 1_555 1_555
O1B C1B 1_555 1_555
O2B C1B 1_555 1_555
O3B C5B 1_555 1_555
O4B C14B 1_555 1_555
O5B Zn2B 1_555 1_555
O6B Zn6B 1_555 1_555
O7B C36B 1_555 1_555
O8B Zn3B 1_555 1_555
O9B Zn2B 1_555 1_555
O10B Zn5B 1_555 1_555
O11B C60B 1_555 1_555
O12B C60B 1_555 1_555
O13B Zn4B 1_555 1_555
C1B C2B 1_555 1_555
C2B C3B 1_555 1_555
C3B H1B 1_555 1_555
C4B C3B 1_555 1_555
C5B C4B 1_555 1_555
C6B C5B 1_555 1_555
C7B C2B 1_555 1_555
H2B C7B 1_555 1_555
C8B C4B 1_555 1_555
C9B C8B 1_555 1_555
H3B C9B 1_555 1_555
H4B C9B 1_555 1_555
H5B C9B 1_555 1_555
C10B C8B 1_555 1_555
H6B C10B 1_555 1_555
H7B C10B 1_555 1_555
H8B C10B 1_555 1_555
C11B C8B 1_555 1_555
H9B C11B 1_555 1_555
H10B C11B 1_555 1_555
H11B C11B 1_555 1_555
C12B C6B 1_555 1_555
H12B C12B 1_555 1_555
C13B N1B 1_555 1_555
C14B C13B 1_555 1_555
C15B C14B 1_555 1_555
C16B C15B 1_555 1_555
C17B C16B 1_555 1_555
C18B C13B 1_555 1_555
H13B C18B 1_555 1_555
C19B C17B 1_555 1_555
H14B C19B 1_555 1_555
H15B C19B 1_555 1_555
H16B C19B 1_555 1_555
C20B C16B 1_555 1_555
H17B C20B 1_555 1_555
H18B C20B 1_555 1_555
H19B C20B 1_555 1_555
C21B C15B 1_555 1_555
C22B O5B 1_555 1_555
C23B C22B 1_555 1_555
C24B C23B 1_555 1_555
H20B C24B 1_555 1_555
C25B C24B 1_555 1_555
C26B C21B 1_555 1_555
C27B C26B 1_555 1_555
H21B C27B 1_555 1_555
H22B C27B 1_555 1_555
H23B C27B 1_555 1_555
C28B C25B 1_555 1_555
H24B C28B 1_555 1_555
H25B C28B 1_555 1_555
H26B C28B 1_555 1_555
C29B N2B 1_555 1_555
H27B C29B 1_555 1_555
C30B C29B 1_555 1_555
C31B O6B 1_555 1_555
C32B C31B 1_555 1_555
C33B C32B 1_555 1_555
H28B C33B 1_555 1_555
C34B C33B 1_555 1_555
C35B C30B 1_555 1_555
H29B C35B 1_555 1_555
C36B O8B 1_555 1_555
C37B C32B 1_555 1_555
C38B C37B 1_555 1_555
H30B C38B 1_555 1_555
H31B C38B 1_555 1_555
H32B C38B 1_555 1_555
C39B C37B 1_555 1_555
H33B C39B 1_555 1_555
H34B C39B 1_555 1_555
H35B C39B 1_555 1_555
C40B C37B 1_555 1_555
H36B C40B 1_555 1_555
H37B C40B 1_555 1_555
H38B C40B 1_555 1_555
C41B C42B 1_555 1_555
C42B O9B 1_555 1_555
C43B C42B 1_555 1_555
C44B C43B 1_555 1_555
H39B C44B 1_555 1_555
C45B C44B 1_555 1_555
C46B C41B 1_555 1_555
C47B C46B 1_555 1_555
H40B C47B 1_555 1_555
H41B C47B 1_555 1_555
H42B C47B 1_555 1_555
C48B C45B 1_555 1_555
H43B C48B 1_555 1_555
H44B C48B 1_555 1_555
H45B C48B 1_555 1_555
C49B N3B 1_555 1_555
H46B C49B 1_555 1_555
C50B C49B 1_555 1_555
C51B C50B 1_555 1_555
H47B C51B 1_555 1_555
C52B C51B 1_555 1_555
C53B C52B 1_555 1_555
H48B C53B 1_555 1_555
C54B C53B 1_555 1_555
C55B O10B 1_555 1_555
C56B C54B 1_555 1_555
C57B C56B 1_555 1_555
H49B C57B 1_555 1_555
H50B C57B 1_555 1_555
H51B C57B 1_555 1_555
C58B C56B 1_555 1_555
H52B C58B 1_555 1_555
H53B C58B 1_555 1_555
H54B C58B 1_555 1_555
C59B C56B 1_555 1_555
H55B C59B 1_555 1_555
H56B C59B 1_555 1_555
H57B C59B 1_555 1_555
C60B C52B 1_555 1_555
N3I C43I 1_555 1_555
O9I Zn2B 1_555 1_555
O10I C55I 1_555 1_555
O11I C60I 1_555 1_555
O12I C60I 1_555 1_555
C41I C41B 1_555 1_555
C42I O9I 1_555 1_555
C43I C42I 1_555 1_555
C44I C43I 1_555 1_555
H39I C44I 1_555 1_555
C45I C44I 1_555 1_555
C46I C41I 1_555 1_555
C47I C46I 1_555 1_555
H40I C47I 1_555 1_555
H41I C47I 1_555 1_555
H42I C47I 1_555 1_555
C48I C45I 1_555 1_555
H43I C48I 1_555 1_555
H44I C48I 1_555 1_555
H45I C48I 1_555 1_555
C49I N3I 1_555 1_555
H46I C49I 1_555 1_555
C50I C49I 1_555 1_555
C51I C50I 1_555 1_555
H47I C51I 1_555 1_555
C52I C51I 1_555 1_555
C53I C52I 1_555 1_555
H48I C53I 1_555 1_555
C54I C53I 1_555 1_555
C55I C50I 1_555 1_555
C56I C54I 1_555 1_555
C57I C56I 1_555 1_555
H49I C57I 1_555 1_555
H50I C57I 1_555 1_555
H51I C57I 1_555 1_555
C58I C56I 1_555 1_555
H52I C58I 1_555 1_555
H53I C58I 1_555 1_555
H54I C58I 1_555 1_555
C59I C56I 1_555 1_555
H55I C59I 1_555 1_555
H56I C59I 1_555 1_555
H57I C59I 1_555 1_555
C60I C52I 1_555 1_555
Zn2D O4D 1_555 1_555
Zn3D O14 1_555 1_555
Zn4D O5D 1_555 1_555
Zn5D N3D 1_555 1_555
Zn6D N2D 1_555 1_555
N1D C12D 1_555 1_555
N2D C23D 1_555 1_555
N3D C43D 1_555 1_555
O1D C1D 1_555 1_555
O2D C1D 1_555 1_555
O3D C5D 1_555 1_555
O4D C14D 1_555 1_555
O5D Zn2D 1_555 1_555
O6D Zn6D 1_555 1_555
O7D Zn3 1_555 1_555
O8D Zn3D 1_555 1_555
O9D Zn2D 1_555 1_555
O10D Zn5D 1_555 1_555
O11D C60D 1_555 1_555
O12D C60D 1_555 1_555
O13D Zn4D 1_555 1_555
C1D C2D 1_555 1_555
C2D C3D 1_555 1_555
C3D H1D 1_555 1_555
C4D C3D 1_555 1_555
C5D C4D 1_555 1_555
C6D C5D 1_555 1_555
C7D C2D 1_555 1_555
H2D C7D 1_555 1_555
C8D C4D 1_555 1_555
C9D C8D 1_555 1_555
H3D C9D 1_555 1_555
H4D C9D 1_555 1_555
H5D C9D 1_555 1_555
C10D C8D 1_555 1_555
H6D C10D 1_555 1_555
H7D C10D 1_555 1_555
H8D C10D 1_555 1_555
C11D C8D 1_555 1_555
H9D C11D 1_555 1_555
H10D C11D 1_555 1_555
H11D C11D 1_555 1_555
C12D C6D 1_555 1_555
H12D C12D 1_555 1_555
C13D N1D 1_555 1_555
C14D C13D 1_555 1_555
C15D C14D 1_555 1_555
C16D C15D 1_555 1_555
C17D C16D 1_555 1_555
C18D C13D 1_555 1_555
H13D C18D 1_555 1_555
C19D C17D 1_555 1_555
H14D C19D 1_555 1_555
H15D C19D 1_555 1_555
H16D C19D 1_555 1_555
C20D C16D 1_555 1_555
H17D C20D 1_555 1_555
H18D C20D 1_555 1_555
H19D C20D 1_555 1_555
C21D C15D 1_555 1_555
C22D O5D 1_555 1_555
C23D C22D 1_555 1_555
C24D C23D 1_555 1_555
H20D C24D 1_555 1_555
C25D C24D 1_555 1_555
C26D C21D 1_555 1_555
C27D C26D 1_555 1_555
H21D C27D 1_555 1_555
H22D C27D 1_555 1_555
H23D C27D 1_555 1_555
C28D C25D 1_555 1_555
H24D C28D 1_555 1_555
H25D C28D 1_555 1_555
H26D C28D 1_555 1_555
C29D N2D 1_555 1_555
H27D C29D 1_555 1_555
C30D C29D 1_555 1_555
C31D O6D 1_555 1_555
C32D C31D 1_555 1_555
C33D C32D 1_555 1_555
H28D C33D 1_555 1_555
C34D C33D 1_555 1_555
C35D C30D 1_555 1_555
H29D C35D 1_555 1_555
C36D O7D 1_555 1_555
C37D C32D 1_555 1_555
C38D C37D 1_555 1_555
H30D C38D 1_555 1_555
H31D C38D 1_555 1_555
H32D C38D 1_555 1_555
C39D C37D 1_555 1_555
H33D C39D 1_555 1_555
H34D C39D 1_555 1_555
H35D C39D 1_555 1_555
C40D C37D 1_555 1_555
H36D C40D 1_555 1_555
H37D C40D 1_555 1_555
H38D C40D 1_555 1_555
C41D C42D 1_555 1_555
C42D O9D 1_555 1_555
C43D C42D 1_555 1_555
C44D C43D 1_555 1_555
H39D C44D 1_555 1_555
C45D C44D 1_555 1_555
C46D C41D 1_555 1_555
C47D C46D 1_555 1_555
H40D C47D 1_555 1_555
H41D C47D 1_555 1_555
H42D C47D 1_555 1_555
C48D C45D 1_555 1_555
H43D C48D 1_555 1_555
H44D C48D 1_555 1_555
H45D C48D 1_555 1_555
C49D N3D 1_555 1_555
H46D C49D 1_555 1_555
C50D C49D 1_555 1_555
C51D C50D 1_555 1_555
H47D C51D 1_555 1_555
C52D C51D 1_555 1_555
C53D C52D 1_555 1_555
H48D C53D 1_555 1_555
C54D C53D 1_555 1_555
C55D O10D 1_555 1_555
C56D C54D 1_555 1_555
C57D C56D 1_555 1_555
H49D C57D 1_555 1_555
H50D C57D 1_555 1_555
H51D C57D 1_555 1_555
C58D C56D 1_555 1_555
H52D C58D 1_555 1_555
H53D C58D 1_555 1_555
H54D C58D 1_555 1_555
C59D C56D 1_555 1_555
H55D C59D 1_555 1_555
H56D C59D 1_555 1_555
H57D C59D 1_555 1_555
C60D C52D 1_555 1_555
N3K C43K 1_555 1_555
O9K Zn2D 1_555 1_555
O10K C55K 1_555 1_555
O11K C60K 1_555 1_555
O12K C60K 1_555 1_555
C41K C41D 1_555 1_555
C42K O9K 1_555 1_555
C43K C42K 1_555 1_555
C44K C43K 1_555 1_555
H39K C44K 1_555 1_555
C45K C44K 1_555 1_555
C46K C41K 1_555 1_555
C47K C46K 1_555 1_555
H40K C47K 1_555 1_555
H41K C47K 1_555 1_555
H42K C47K 1_555 1_555
C48K C45K 1_555 1_555
H43K C48K 1_555 1_555
H44K C48K 1_555 1_555
H45K C48K 1_555 1_555
C49K N3K 1_555 1_555
H46K C49K 1_555 1_555
C50K C49K 1_555 1_555
C51K C50K 1_555 1_555
H47K C51K 1_555 1_555
C52K C51K 1_555 1_555
C53K C52K 1_555 1_555
H48K C53K 1_555 1_555
C54K C53K 1_555 1_555
C55K C50K 1_555 1_555
C56K C54K 1_555 1_555
C57K C56K 1_555 1_555
H49K C57K 1_555 1_555
H50K C57K 1_555 1_555
H51K C57K 1_555 1_555
C58K C56K 1_555 1_555
H52K C58K 1_555 1_555
H53K C58K 1_555 1_555
H54K C58K 1_555 1_555
C59K C56K 1_555 1_555
H55K C59K 1_555 1_555
H56K C59K 1_555 1_555
H57K C59K 1_555 1_555
C60K C52K 1_555 1_555
Zn1I O14I 1_555 1_555
Zn3I O8I 1_555 1_555
Zn4I N1B 1_555 1_555
Zn5I O4B 1_555 1_555
Zn6I O9I 1_555 1_555
N1I Zn4B 1_555 1_555
N2I Zn6I 1_555 1_555
O1I C1I 1_555 1_555
O2I C1I 1_555 1_555
O3I Zn4B 1_555 1_555
O4I Zn2B 1_555 1_555
O5I Zn2B 1_555 1_555
O6I Zn6I 1_555 1_555
O7I C36I 1_555 1_555
O8I C36I 1_555 1_555
O13I Zn4I 1_555 1_555
O14I Zn3I 1_555 1_555
C1I C2I 1_555 1_555
C2I C3I 1_555 1_555
C3I H1I 1_555 1_555
C4I C3I 1_555 1_555
C5I O3I 1_555 1_555
C6I C5I 1_555 1_555
C7I C2I 1_555 1_555
H2I C7I 1_555 1_555
C8I C4I 1_555 1_555
C9I C8I 1_555 1_555
H3I C9I 1_555 1_555
H4I C9I 1_555 1_555
H5I C9I 1_555 1_555
C10I C8I 1_555 1_555
H6I C10I 1_555 1_555
H7I C10I 1_555 1_555
H8I C10I 1_555 1_555
C11I C8I 1_555 1_555
H9I C11I 1_555 1_555
H10I C11I 1_555 1_555
H11I C11I 1_555 1_555
C12I N1I 1_555 1_555
H12I C12I 1_555 1_555
C13I N1I 1_555 1_555
C14I O4I 1_555 1_555
C15I C14I 1_555 1_555
C16I C15I 1_555 1_555
C17I C16I 1_555 1_555
C18I C13I 1_555 1_555
H13I C18I 1_555 1_555
C19I C17I 1_555 1_555
H14I C19I 1_555 1_555
H15I C19I 1_555 1_555
H16I C19I 1_555 1_555
C20I C16I 1_555 1_555
H17I C20I 1_555 1_555
H18I C20I 1_555 1_555
H19I C20I 1_555 1_555
C21I C15I 1_555 1_555
C22I O5I 1_555 1_555
C23I N2I 1_555 1_555
C24I C23I 1_555 1_555
H20I C24I 1_555 1_555
C25I C24I 1_555 1_555
C26I C21I 1_555 1_555
C27I C26I 1_555 1_555
H21I C27I 1_555 1_555
H22I C27I 1_555 1_555
H23I C27I 1_555 1_555
C28I C25I 1_555 1_555
H24I C28I 1_555 1_555
H25I C28I 1_555 1_555
H26I C28I 1_555 1_555
C29I N2I 1_555 1_555
H27I C29I 1_555 1_555
C30I C29I 1_555 1_555
C31I O6I 1_555 1_555
C32I C31I 1_555 1_555
C33I C32I 1_555 1_555
H28I C33I 1_555 1_555
C34I C33I 1_555 1_555
C35I C30I 1_555 1_555
H29I C35I 1_555 1_555
C36I C34I 1_555 1_555
C37I C32I 1_555 1_555
C38I C37I 1_555 1_555
H30I C38I 1_555 1_555
H31I C38I 1_555 1_555
H32I C38I 1_555 1_555
C39I C37I 1_555 1_555
H33I C39I 1_555 1_555
H34I C39I 1_555 1_555
H35I C39I 1_555 1_555
C40I C37I 1_555 1_555
H36I C40I 1_555 1_555
H37I C40I 1_555 1_555
H38I C40I 1_555 1_555
Zn3J O7I 1_555 1_555
Zn4J N1 1_555 1_555
Zn5J O4 1_555 1_555
Zn6J O9J 1_555 1_555
N1J Zn4 1_555 1_555
N2J Zn6J 1_555 1_555
O1J C1J 1_555 1_555
O2J C1J 1_555 1_555
O3J Zn4 1_555 1_555
O4J Zn2 1_555 1_555
O5J Zn2 1_555 1_555
O6J Zn6J 1_555 1_555
O7J C36J 1_555 1_555
O8J Zn3J 1_555 1_555
O13J Zn4J 1_555 1_555
C1J C2J 1_555 1_555
C2J C3J 1_555 1_555
C3J H1J 1_555 1_555
C4J C3J 1_555 1_555
C5J O3J 1_555 1_555
C6J C5J 1_555 1_555
C7J C2J 1_555 1_555
H2J C7J 1_555 1_555
C8J C4J 1_555 1_555
C9J C8J 1_555 1_555
H3J C9J 1_555 1_555
H4J C9J 1_555 1_555
H5J C9J 1_555 1_555
C10J C8J 1_555 1_555
H6J C10J 1_555 1_555
H7J C10J 1_555 1_555
H8J C10J 1_555 1_555
C11J C8J 1_555 1_555
H9J C11J 1_555 1_555
H10J C11J 1_555 1_555
H11J C11J 1_555 1_555
C12J N1J 1_555 1_555
H12J C12J 1_555 1_555
C13J N1J 1_555 1_555
C14J O4J 1_555 1_555
C15J C14J 1_555 1_555
C16J C15J 1_555 1_555
C17J C16J 1_555 1_555
C18J C13J 1_555 1_555
H13J C18J 1_555 1_555
C19J C17J 1_555 1_555
H14J C19J 1_555 1_555
H15J C19J 1_555 1_555
H16J C19J 1_555 1_555
C20J C16J 1_555 1_555
H17J C20J 1_555 1_555
H18J C20J 1_555 1_555
H19J C20J 1_555 1_555
C21J C15J 1_555 1_555
C22J O5J 1_555 1_555
C23J N2J 1_555 1_555
C24J C23J 1_555 1_555
H20J C24J 1_555 1_555
C25J C24J 1_555 1_555
C26J C21J 1_555 1_555
C27J C26J 1_555 1_555
H21J C27J 1_555 1_555
H22J C27J 1_555 1_555
H23J C27J 1_555 1_555
C28J C25J 1_555 1_555
H24J C28J 1_555 1_555
H25J C28J 1_555 1_555
H26J C28J 1_555 1_555
C29J N2J 1_555 1_555
H27J C29J 1_555 1_555
C30J C29J 1_555 1_555
C31J O6J 1_555 1_555
C32J C31J 1_555 1_555
C33J C32J 1_555 1_555
H28J C33J 1_555 1_555
C34J C33J 1_555 1_555
C35J C30J 1_555 1_555
H29J C35J 1_555 1_555
C36J O8J 1_555 1_555
C37J C32J 1_555 1_555
C38J C37J 1_555 1_555
H30J C38J 1_555 1_555
H31J C38J 1_555 1_555
H32J C38J 1_555 1_555
C39J C37J 1_555 1_555
H33J C39J 1_555 1_555
H34J C39J 1_555 1_555
H35J C39J 1_555 1_555
C40J C37J 1_555 1_555
H36J C40J 1_555 1_555
H37J C40J 1_555 1_555
H38J C40J 1_555 1_555
Zn3K O14I 1_555 1_555
Zn4K N1D 1_555 1_555
Zn5K O4D 1_555 1_555
Zn6K O9K 1_555 1_555
N1K Zn4D 1_555 1_555
N2K Zn6K 1_555 1_555
O1K C1K 1_555 1_555
O2K C1K 1_555 1_555
O3K Zn4D 1_555 1_555
O4K Zn2D 1_555 1_555
O5K Zn2D 1_555 1_555
O6K Zn6K 1_555 1_555
O7K Zn3I 1_555 1_555
O8K Zn3K 1_555 1_555
O13K Zn4K 1_555 1_555
C1K C2K 1_555 1_555
C2K C3K 1_555 1_555
C3K H1K 1_555 1_555
C4K C3K 1_555 1_555
C5K O3K 1_555 1_555
C6K C5K 1_555 1_555
C7K C2K 1_555 1_555
H2K C7K 1_555 1_555
C8K C4K 1_555 1_555
C9K C8K 1_555 1_555
H3K C9K 1_555 1_555
H4K C9K 1_555 1_555
H5K C9K 1_555 1_555
C10K C8K 1_555 1_555
H6K C10K 1_555 1_555
H7K C10K 1_555 1_555
H8K C10K 1_555 1_555
C11K C8K 1_555 1_555
H9K C11K 1_555 1_555
H10K C11K 1_555 1_555
H11K C11K 1_555 1_555
C12K N1K 1_555 1_555
H12K C12K 1_555 1_555
C13K N1K 1_555 1_555
C14K O4K 1_555 1_555
C15K C14K 1_555 1_555
C16K C15K 1_555 1_555
C17K C16K 1_555 1_555
C18K C13K 1_555 1_555
H13K C18K 1_555 1_555
C19K C17K 1_555 1_555
H14K C19K 1_555 1_555
H15K C19K 1_555 1_555
H16K C19K 1_555 1_555
C20K C16K 1_555 1_555
H17K C20K 1_555 1_555
H18K C20K 1_555 1_555
H19K C20K 1_555 1_555
C21K C15K 1_555 1_555
C22K O5K 1_555 1_555
C23K N2K 1_555 1_555
C24K C23K 1_555 1_555
H20K C24K 1_555 1_555
C25K C24K 1_555 1_555
C26K C21K 1_555 1_555
C27K C26K 1_555 1_555
H21K C27K 1_555 1_555
H22K C27K 1_555 1_555
H23K C27K 1_555 1_555
C28K C25K 1_555 1_555
H24K C28K 1_555 1_555
H25K C28K 1_555 1_555
H26K C28K 1_555 1_555
C29K N2K 1_555 1_555
H27K C29K 1_555 1_555
C30K C29K 1_555 1_555
C31K O6K 1_555 1_555
C32K C31K 1_555 1_555
C33K C32K 1_555 1_555
H28K C33K 1_555 1_555
C34K C33K 1_555 1_555
C35K C30K 1_555 1_555
H29K C35K 1_555 1_555
C36K O7K 1_555 1_555
C37K C32K 1_555 1_555
C38K C37K 1_555 1_555
H30K C38K 1_555 1_555
H31K C38K 1_555 1_555
H32K C38K 1_555 1_555
C39K C37K 1_555 1_555
H33K C39K 1_555 1_555
H34K C39K 1_555 1_555
H35K C39K 1_555 1_555
C40K C37K 1_555 1_555
H36K C40K 1_555 1_555
H37K C40K 1_555 1_555
H38K C40K 1_555 1_555
Zn1A O2B 1_555 1_555
Zn1A_2 O2D 1_555 1_555
Zn1A_3 O2 1_555 1_555
Zn1F O2I 1_555 1_555
Zn1F_2 O2K 1_555 1_555
Zn1F_3 O2J 1_555 1_555
Zn3A O1D 1_555 1_555
Zn3C O1 1_555 1_555
Zn3E O1B 1_555 1_555
Zn3F O1J 1_555 1_555
Zn3G O1K 1_555 1_555
Zn3H O1I 1_555 1_555
O1A Zn3D 1_555 1_555
O1C Zn3 1_555 1_555
O1E Zn3B 1_555 1_555
O1F Zn3J 1_555 1_555
O1G Zn3K 1_555 1_555
O1H Zn3I 1_555 1_555
O2A Zn1 1_555 1_555
O2C Zn1 1_555 1_555
O2E Zn1 1_555 1_555
O2F Zn1I 1_555 1_555
O2G Zn1I 1_555 1_555
O2H Zn1I 1_555 1_555
Zn4 O4J 1_555 1_555
Zn5 O9 1_555 1_555
Zn5 O13 1_555 1_555
Zn5 O4J 1_555 1_555
Zn6 O5 1_555 1_555
Zn6 O9 1_555 1_555
Zn6 O13 1_555 1_555
O3 Zn4J 1_555 1_555
O4 Zn4J 1_555 1_555
O14 Zn3B 1_555 1_555
C6 C7 1_555 1_555
C17 C18 1_555 1_555
C21 C22 1_555 1_555
C25 C26 1_555 1_555
C30 C31 1_555 1_555
C34 C35 1_555 1_555
C45 C46 1_555 1_555
C50 C55 1_555 1_555
C54 C55 1_555 1_555
N3J Zn5J 1_555 1_555
O9J Zn5J 1_555 1_555
O10J Zn5J 1_555 1_555
C41J C42J 1_555 1_555
C45J C46J 1_555 1_555
C54J C55J 1_555 1_555
Zn4B O4I 1_555 1_555
Zn5B O9B 1_555 1_555
Zn5B O13B 1_555 1_555
Zn5B O4I 1_555 1_555
Zn6B O5B 1_555 1_555
Zn6B O9B 1_555 1_555
Zn6B O13B 1_555 1_555
O3B Zn4I 1_555 1_555
O4B Zn4I 1_555 1_555
O7B Zn3D 1_555 1_555
C6B C7B 1_555 1_555
C17B C18B 1_555 1_555
C21B C22B 1_555 1_555
C25B C26B 1_555 1_555
C30B C31B 1_555 1_555
C34B C35B 1_555 1_555
C34B C36B 1_555 1_555
C45B C46B 1_555 1_555
C50B C55B 1_555 1_555
C54B C55B 1_555 1_555
N3I Zn5I 1_555 1_555
O9I Zn5I 1_555 1_555
O10I Zn5I 1_555 1_555
C41I C42I 1_555 1_555
C45I C46I 1_555 1_555
C54I C55I 1_555 1_555
Zn4D O4K 1_555 1_555
Zn5D O9D 1_555 1_555
Zn5D O13D 1_555 1_555
Zn5D O4K 1_555 1_555
Zn6D O5D 1_555 1_555
Zn6D O9D 1_555 1_555
Zn6D O13D 1_555 1_555
O3D Zn4K 1_555 1_555
O4D Zn4K 1_555 1_555
O8D C36D 1_555 1_555
C6D C7D 1_555 1_555
C17D C18D 1_555 1_555
C21D C22D 1_555 1_555
C25D C26D 1_555 1_555
C30D C31D 1_555 1_555
C34D C35D 1_555 1_555
C34D C36D 1_555 1_555
C45D C46D 1_555 1_555
C50D C55D 1_555 1_555
C54D C55D 1_555 1_555
N3K Zn5K 1_555 1_555
O9K Zn5K 1_555 1_555
O10K Zn5K 1_555 1_555
C41K C42K 1_555 1_555
C45K C46K 1_555 1_555
C54K C55K 1_555 1_555
Zn4I O5I 1_555 1_555
Zn5I O13I 1_555 1_555
Zn6I O5I 1_555 1_555
Zn6I O13I 1_555 1_555
O14I Zn3J 1_555 1_555
C4I C5I 1_555 1_555
C6I C7I 1_555 1_555
C6I C12I 1_555 1_555
C13I C14I 1_555 1_555
C17I C18I 1_555 1_555
C21I C22I 1_555 1_555
C22I C23I 1_555 1_555
C25I C26I 1_555 1_555
C30I C31I 1_555 1_555
C34I C35I 1_555 1_555
Zn4J O5J 1_555 1_555
Zn5J O13J 1_555 1_555
Zn6J O5J 1_555 1_555
Zn6J O13J 1_555 1_555
O7J Zn3K 1_555 1_555
C4J C5J 1_555 1_555
C6J C7J 1_555 1_555
C6J C12J 1_555 1_555
C13J C14J 1_555 1_555
C17J C18J 1_555 1_555
C21J C22J 1_555 1_555
C22J C23J 1_555 1_555
C25J C26J 1_555 1_555
C30J C31J 1_555 1_555
C34J C35J 1_555 1_555
C34J C36J 1_555 1_555
Zn4K O5K 1_555 1_555
Zn5K O13K 1_555 1_555
Zn6K O5K 1_555 1_555
Zn6K O13K 1_555 1_555
O8K C36K 1_555 1_555
C4K C5K 1_555 1_555
C6K C7K 1_555 1_555
C6K C12K 1_555 1_555
C13K C14K 1_555 1_555
C17K C18K 1_555 1_555
C21K C22K 1_555 1_555
C22K C23K 1_555 1_555
C25K C26K 1_555 1_555
C30K C31K 1_555 1_555
C34K C35K 1_555 1_555
C34K C36K 1_555 1_555

#END
