
#######################################################################
#
#                 Cambridge Crystallographic Data Centre
#                                CCDC 
#
#######################################################################
#
# If this CIF has been generated from an entry in the Cambridge 
# Structural Database, then it will include bibliographic, chemical, 
# crystal, experimental, refinement or atomic coordinate data resulting 
# from the CCDC's data processing and validation procedures.
#
#######################################################################

data_FORTIR
_chemical_formula_moiety         '(C143 H159 Cd2 N11 O34 Zn7)n'
_symmetry_cell_setting           orthorhombic
_symmetry_space_group_name_H-M   'I 21 21 21'
_symmetry_Int_Tables_number      24
_space_group_name_Hall           'I 2b 2c'
loop_
_symmetry_equiv_pos_site_id
_symmetry_equiv_pos_as_xyz
1 x,y,z
2 -x,1/2-y,z
3 x,-y,1/2-z
4 1/2-x,y,-z
5 1/2+x,1/2+y,1/2+z
6 1/2-x,-y,1/2+z
7 1/2+x,1/2-y,-z
8 -x,1/2+y,1/2-z
_cell_length_a                   17.5150(19)
_cell_length_b                   32.963(4)
_cell_length_c                   38.137(4)
_cell_angle_alpha                90
_cell_angle_beta                 90
_cell_angle_gamma                90
_cell_volume                     22018.3
loop_
_atom_site_label
_atom_site_type_symbol
_atom_site_fract_x
_atom_site_fract_y
_atom_site_fract_z
_atom_site_U_iso_or_equiv
_atom_site_thermal_displace_type
Cd1 Cd 0.7500 0.55764(7) 0.0000 0.1085 Uani
Cd2 Cd -0.0048(2) 0.5000 0.2500 0.1063 Uani
Zn1 Zn 0.5000 0.7500 0.25235(9) 0.0332 Uani
Zn2 Zn 0.62260(16) 0.69757(6) 0.21173(7) 0.0403 Uani
Zn3 Zn 0.38548(17) 0.80799(7) 0.29198(7) 0.0421 Uani
Zn4 Zn 0.32308(15) 0.73064(7) 0.25697(7) 0.0420 Uani
C1 C 0.712(2) 0.5825(7) 0.0663(7) 0.0907 Uani
C2 C 0.6895(7) 0.5963(3) 0.1015(3) 0.0617 Uani
C3 C 0.6905(10) 0.5710(3) 0.1307(3) 0.0600 Uani
H1 H 0.7024 0.5437 0.1281 0.0740 Uiso
C4 C 0.6737(12) 0.5866(4) 0.1636(3) 0.0510 Uani
C5 C 0.6559(14) 0.6275(5) 0.1675(3) 0.0527 Uani
C6 C 0.6549(14) 0.6528(4) 0.1383(4) 0.0540 Uani
C7 C 0.6717(11) 0.6372(3) 0.1053(3) 0.0703 Uani
H2 H 0.6711 0.6541 0.0858 0.0830 Uiso
C8 C 0.6740(17) 0.5573(5) 0.1957(5) 0.0483 Uani
C9 C 0.732(2) 0.5693(8) 0.2202(9) 0.0827 Uani
H3 H 0.7319 0.5512 0.2399 0.1220 Uiso
H4 H 0.7221 0.5965 0.2281 0.1220 Uiso
H5 H 0.7811 0.5684 0.2090 0.1220 Uiso
C10 C 0.5950(15) 0.5563(7) 0.2141(6) 0.0500 Uani
H6 H 0.5971 0.5383 0.2338 0.0750 Uiso
H7 H 0.5570 0.5470 0.1978 0.0750 Uiso
H8 H 0.5821 0.5832 0.2219 0.0750 Uiso
C11 C 0.6917(18) 0.5129(6) 0.1855(8) 0.0690 Uani
H9 H 0.6916 0.4963 0.2062 0.1040 Uiso
H10 H 0.7409 0.5116 0.1745 0.1040 Uiso
H11 H 0.6534 0.5033 0.1695 0.1040 Uiso
C12 C 0.6327(15) 0.6958(6) 0.1367(6) 0.0473 Uani
H12 H 0.6304 0.7076 0.1146 0.0570 Uiso
C13 C 0.5938(6) 0.7605(2) 0.1590(2) 0.0420 Uani
C14 C 0.5866(9) 0.7834(3) 0.1894(3) 0.0353 Uani
C15 C 0.5670(10) 0.8242(3) 0.1874(3) 0.0317 Uani
C16 C 0.5547(10) 0.8421(3) 0.1549(4) 0.0413 Uani
C17 C 0.5619(11) 0.8193(3) 0.1244(3) 0.0467 Uani
C18 C 0.5815(9) 0.7785(3) 0.1265(2) 0.0443 Uani
H13 H 0.5863 0.7632 0.1061 0.0530 Uiso
C19 C 0.545(2) 0.8380(8) 0.0885(7) 0.0647 Uani
H14 H 0.5521 0.8179 0.0706 0.0990 Uiso
H15 H 0.5787 0.8604 0.0844 0.0990 Uiso
H16 H 0.4929 0.8474 0.0880 0.0990 Uiso
C20 C 0.5213(16) 0.8862(6) 0.1491(7) 0.0707 Uani
H17 H 0.5172 0.8916 0.1244 0.1040 Uiso
H18 H 0.5546 0.9058 0.1596 0.1040 Uiso
H19 H 0.4716 0.8881 0.1596 0.1040 Uiso
C21 C 0.5659(6) 0.8501(2) 0.2214(2) 0.0333 Uani
C22 C 0.5111(7) 0.8424(3) 0.2469(3) 0.0393 Uani
C23 C 0.5049(9) 0.8679(4) 0.2758(3) 0.0327 Uani
C24 C 0.5535(11) 0.9010(4) 0.2792(3) 0.0460 Uani
H20 H 0.5493 0.9180 0.2986 0.0550 Uiso
C25 C 0.6082(10) 0.9087(3) 0.2537(4) 0.0447 Uani
C26 C 0.6144(7) 0.8832(3) 0.2247(3) 0.0390 Uani
C27 C 0.6827(14) 0.8905(7) 0.1963(7) 0.0637 Uani
H21 H 0.7112 0.9142 0.2027 0.0950 Uiso
H22 H 0.6610 0.8941 0.1734 0.0950 Uiso
H23 H 0.7160 0.8673 0.1962 0.0950 Uiso
C28 C 0.6598(16) 0.9469(6) 0.2605(8) 0.0700 Uani
H24 H 0.6957 0.9498 0.2417 0.1050 Uiso
H25 H 0.6869 0.9434 0.2822 0.1050 Uiso
H26 H 0.6283 0.9707 0.2619 0.1050 Uiso
C29 C 0.4269(16) 0.8831(6) 0.3250(6) 0.0457 Uani
H27 H 0.4553 0.9068 0.3272 0.0550 Uiso
C30 C 0.3659(8) 0.8774(3) 0.3507(3) 0.0507 Uani
C31 C 0.3191(9) 0.8437(3) 0.3546(3) 0.0620 Uani
C32 C 0.2631(9) 0.8434(4) 0.3805(4) 0.0517 Uani
C33 C 0.2540(11) 0.8768(5) 0.4023(4) 0.0537 Uani
H28 H 0.2165 0.8765 0.4196 0.0640 Uiso
C34 C 0.3008(11) 0.9105(4) 0.3984(4) 0.0643 Uani
C35 C 0.3568(9) 0.9108(3) 0.3725(3) 0.0613 Uani
H29 H 0.3882 0.9334 0.3699 0.0750 Uiso
C36 C 0.285(2) 0.9480(6) 0.4196(7) 0.0657 Uani
C37 C 0.2103(18) 0.8055(7) 0.3854(8) 0.0727 Uani
C38 C 0.1528(19) 0.8117(9) 0.4182(8) 0.0827 Uani
H30 H 0.1198 0.7886 0.4201 0.1260 Uiso
H31 H 0.1227 0.8357 0.4146 0.1260 Uiso
H32 H 0.1819 0.8146 0.4394 0.1260 Uiso
C39 C 0.252(2) 0.7679(8) 0.3932(9) 0.0843 Uani
H33 H 0.2166 0.7461 0.3963 0.1240 Uiso
H34 H 0.2813 0.7715 0.4143 0.1240 Uiso
H35 H 0.2859 0.7617 0.3741 0.1240 Uiso
C40 C 0.159(2) 0.8008(11) 0.3525(9) 0.0917 Uani
H36 H 0.1244 0.7784 0.3559 0.1370 Uiso
H37 H 0.1901 0.7958 0.3323 0.1370 Uiso
H38 H 0.1299 0.8252 0.3490 0.1370 Uiso
C41 C 0.0769(16) 0.5660(8) 0.2473(10) 0.0740 Uani
C42 C 0.1189(7) 0.6046(3) 0.2438(4) 0.0690 Uani
C43 C 0.1061(9) 0.6289(4) 0.2146(4) 0.0630 Uani
H39 H 0.0700 0.6212 0.1980 0.0760 Uiso
C44 C 0.1472(11) 0.6646(4) 0.2102(5) 0.0633 Uani
C45 C 0.2012(11) 0.6760(4) 0.2350(6) 0.0563 Uani
C46 C 0.2140(10) 0.6518(5) 0.2643(6) 0.0540 Uani
C47 C 0.1729(8) 0.6161(4) 0.2687(4) 0.0790 Uani
H40 H 0.1815 0.5998 0.2882 0.0940 Uiso
C48 C 0.1311(16) 0.6912(8) 0.1773(7) 0.0870 Uani
C49 C 0.0712(16) 0.6725(12) 0.1523(9) 0.1133 Uani
H41 H 0.0640 0.6900 0.1325 0.1680 Uiso
H42 H 0.0237 0.6693 0.1646 0.1680 Uiso
H43 H 0.0888 0.6465 0.1444 0.1680 Uiso
C50 C 0.2067(19) 0.6928(12) 0.1546(9) 0.0847 Uani
H44 H 0.2473 0.7041 0.1684 0.1290 Uiso
H45 H 0.1985 0.7093 0.1343 0.1290 Uiso
H46 H 0.2202 0.6658 0.1474 0.1290 Uiso
C51 C 0.106(3) 0.7344(9) 0.1874(12) 0.1020 Uani
H47 H 0.1428 0.7462 0.2028 0.1550 Uiso
H48 H 0.0571 0.7332 0.1991 0.1550 Uiso
H49 H 0.1011 0.7507 0.1666 0.1550 Uiso
C52 C 0.2718(14) 0.6582(6) 0.2918(7) 0.0457 Uani
H50 H 0.2755 0.6385 0.3091 0.0550 Uiso
C53 C 0.3740(7) 0.6915(3) 0.3217(3) 0.0423 Uani
C54 C 0.4230(8) 0.7246(3) 0.3206(3) 0.0340 Uani
C55 C 0.4772(9) 0.7300(4) 0.3468(4) 0.0477 Uani
C56 C 0.4823(10) 0.7023(5) 0.3742(4) 0.0530 Uani
C57 C 0.4332(10) 0.6692(5) 0.3753(3) 0.0587 Uani
C58 C 0.3790(8) 0.6638(3) 0.3491(3) 0.0547 Uani
H51 H 0.3462 0.6417 0.3499 0.0650 Uiso
C59 C 0.442(2) 0.6357(8) 0.4042(8) 0.0763 Uani
H52 H 0.4033 0.6153 0.4007 0.1140 Uiso
H53 H 0.4356 0.6477 0.4269 0.1140 Uiso
H54 H 0.4914 0.6236 0.4025 0.1140 Uiso
C60 C 0.5394(17) 0.7065(7) 0.4023(6) 0.0610 Uani
H55 H 0.5693 0.7305 0.3984 0.0920 Uiso
H56 H 0.5723 0.6832 0.4023 0.0920 Uiso
H57 H 0.5139 0.7085 0.4245 0.0920 Uiso
N1 N 0.884(3) 0.5557(14) 0.0174(11) 0.2380 Uani
C61 C 0.906(3) 0.5239(16) 0.0390(14) 0.2400 Uani
H58 H 0.8697 0.5073 0.0493 0.2880 Uiso
C62 C 0.983(4) 0.517(2) 0.0451(18) 0.2400 Uani
H59 H 0.9984 0.4956 0.0596 0.2880 Uiso
C63 C 1.038(3) 0.542(2) 0.030(2) 0.2400 Uani
H60 H 1.0896 0.5371 0.0338 0.2880 Uiso
C64 C 1.016(3) 0.574(2) 0.0081(18) 0.2400 Uani
H61 H 1.0521 0.5902 -0.0022 0.2880 Uiso
C65 C 0.938(3) 0.5805(16) 0.0020(14) 0.2400 Uani
H62 H 0.9234 0.6018 -0.0125 0.2880 Uiso
N2 N -0.0782(11) 0.4814(7) 0.2061(9) 0.1277 Uani
C66 C -0.1179(17) 0.4451(8) 0.2103(11) 0.1737 Uani
H63 H -0.1239 0.4340 0.2325 0.2070 Uiso
C67 C -0.149(2) 0.4256(10) 0.1812(13) 0.1737 Uani
H64 H -0.1751 0.4014 0.1840 0.2070 Uiso
C68 C -0.140(3) 0.4423(14) 0.1480(11) 0.1737 Uani
H65 H -0.1601 0.4292 0.1286 0.2070 Uiso
C69 C -0.100(2) 0.4785(14) 0.1438(9) 0.1737 Uani
H66 H -0.0939 0.4896 0.1216 0.2070 Uiso
C70 C -0.0693(17) 0.4980(9) 0.1729(9) 0.1737 Uani
H67 H -0.0427 0.5222 0.1701 0.2070 Uiso
N3 N 0.6161(12) 0.7188(4) 0.1633(5) 0.0400 Uani
N4 N 0.4460(13) 0.8594(5) 0.3000(5) 0.0437 Uani
N5 N 0.3171(13) 0.6881(6) 0.2940(5) 0.0517 Uani
O1 O 0.4185(8) 0.7494(4) 0.2921(4) 0.0340 Uani
O2 O 0.6879(8) 0.7080(4) 0.2542(4) 0.0403 Uani
O3 O 0.6430(11) 0.6425(4) 0.1992(4) 0.0527 Uani
O4 O 0.5932(8) 0.7632(3) 0.2201(3) 0.0327 Uani
O5 O 0.4653(8) 0.8091(4) 0.2458(4) 0.0347 Uani
O6 O 0.3232(12) 0.8115(4) 0.3335(4) 0.0573 Uani
O7 O 0.2380(10) 0.7114(5) 0.2298(5) 0.0563 Uani
O8 O 0.724(2) 0.6069(5) 0.0417(5) 0.1337 Uani
O9 O 0.7208(14) 0.5447(5) 0.0613(5) 0.0860 Uani
O10 O 0.3294(15) 0.9785(5) 0.4122(5) 0.0760 Uani
O11 O 0.2336(14) 0.9484(5) 0.4414(5) 0.0810 Uani
O12 O 0.0266(12) 0.5569(6) 0.2247(6) 0.0783 Uani
O13 O 0.0875(13) 0.5438(6) 0.2752(7) 0.0883 Uani
O14 O 0.7500 0.4886(8) 0.0000 0.1823 Uani
C41A C 0.9231(16) 0.9340(8) 0.2473(10) 0.0740 Uani
C42A C 0.8811(7) 0.8954(3) 0.2438(4) 0.0690 Uani
C43A C 0.8939(9) 0.8711(4) 0.2146(4) 0.0630 Uani
H39A H 0.9300 0.8788 0.1980 0.0760 Uiso
C44A C 0.8528(11) 0.8354(4) 0.2102(5) 0.0633 Uani
C45A C 0.7988(11) 0.8240(4) 0.2350(6) 0.0563 Uani
C46A C 0.7860(10) 0.8482(5) 0.2643(6) 0.0540 Uani
C47A C 0.8271(8) 0.8839(4) 0.2687(4) 0.0790 Uani
H40A H 0.8185 0.9002 0.2882 0.0940 Uiso
C48A C 0.8689(16) 0.8088(8) 0.1773(7) 0.0870 Uani
C49A C 0.9288(16) 0.8275(12) 0.1523(9) 0.1133 Uani
H41A H 0.9360 0.8100 0.1325 0.1680 Uiso
H42A H 0.9763 0.8307 0.1646 0.1680 Uiso
H43A H 0.9112 0.8535 0.1444 0.1680 Uiso
C50A C 0.7933(19) 0.8072(12) 0.1546(9) 0.0847 Uani
H44A H 0.7527 0.7959 0.1684 0.1290 Uiso
H45A H 0.8015 0.7907 0.1343 0.1290 Uiso
H46A H 0.7798 0.8342 0.1474 0.1290 Uiso
C51A C 0.894(3) 0.7656(9) 0.1874(12) 0.1020 Uani
H47A H 0.8572 0.7538 0.2028 0.1550 Uiso
H48A H 0.9429 0.7668 0.1991 0.1550 Uiso
H49A H 0.8989 0.7493 0.1666 0.1550 Uiso
C52A C 0.7282(14) 0.8418(6) 0.2918(7) 0.0457 Uani
H50A H 0.7245 0.8615 0.3091 0.0550 Uiso
C53A C 0.6260(7) 0.8085(3) 0.3217(3) 0.0423 Uani
C54A C 0.5770(8) 0.7754(3) 0.3206(3) 0.0340 Uani
C55A C 0.5228(9) 0.7700(4) 0.3468(4) 0.0477 Uani
C56A C 0.5177(10) 0.7977(5) 0.3742(4) 0.0530 Uani
C57A C 0.5668(10) 0.8308(5) 0.3753(3) 0.0587 Uani
C58A C 0.6210(8) 0.8362(3) 0.3491(3) 0.0547 Uani
H51A H 0.6538 0.8583 0.3499 0.0650 Uiso
C59A C 0.558(2) 0.8643(8) 0.4042(8) 0.0763 Uani
H52A H 0.5967 0.8847 0.4007 0.1140 Uiso
H53A H 0.5644 0.8523 0.4269 0.1140 Uiso
H54A H 0.5086 0.8764 0.4025 0.1140 Uiso
C60A C 0.4606(17) 0.7935(7) 0.4023(6) 0.0610 Uani
H55A H 0.4307 0.7695 0.3984 0.0920 Uiso
H56A H 0.4277 0.8168 0.4023 0.0920 Uiso
H57A H 0.4861 0.7915 0.4245 0.0920 Uiso
N5A N 0.6829(13) 0.8119(6) 0.2940(5) 0.0517 Uani
O1A O 0.5815(8) 0.7506(4) 0.2921(4) 0.0340 Uani
O7A O 0.7620(10) 0.7886(5) 0.2298(5) 0.0563 Uani
O12A O 0.9734(12) 0.9431(6) 0.2247(6) 0.0783 Uani
O13A O 0.9125(13) 0.9562(6) 0.2752(7) 0.0883 Uani
Zn2A Zn 0.37740(16) 0.80243(6) 0.21173(7) 0.0403 Uani
Zn3A Zn 0.61452(17) 0.69201(7) 0.29198(7) 0.0421 Uani
Zn4A Zn 0.67692(15) 0.76936(7) 0.25697(7) 0.0420 Uani
C1A C 0.288(2) 0.9175(7) 0.0663(7) 0.0907 Uani
C2A C 0.3105(7) 0.9037(3) 0.1015(3) 0.0617 Uani
C3A C 0.3095(10) 0.9290(3) 0.1307(3) 0.0600 Uani
H1A H 0.2976 0.9563 0.1281 0.0740 Uiso
C4A C 0.3263(12) 0.9134(4) 0.1636(3) 0.0510 Uani
C5A C 0.3441(14) 0.8725(5) 0.1675(3) 0.0527 Uani
C6A C 0.3451(14) 0.8472(4) 0.1383(4) 0.0540 Uani
C7A C 0.3283(11) 0.8628(3) 0.1053(3) 0.0703 Uani
H2A H 0.3289 0.8459 0.0858 0.0830 Uiso
C8A C 0.3260(17) 0.9427(5) 0.1957(5) 0.0483 Uani
C9A C 0.268(2) 0.9307(8) 0.2202(9) 0.0827 Uani
H3A H 0.2681 0.9488 0.2399 0.1220 Uiso
H4A H 0.2779 0.9035 0.2281 0.1220 Uiso
H5A H 0.2189 0.9316 0.2090 0.1220 Uiso
C10A C 0.4050(15) 0.9437(7) 0.2141(6) 0.0500 Uani
H6A H 0.4029 0.9617 0.2338 0.0750 Uiso
H7A H 0.4430 0.9530 0.1978 0.0750 Uiso
H8A H 0.4179 0.9168 0.2219 0.0750 Uiso
C11A C 0.3083(18) 0.9871(6) 0.1855(8) 0.0690 Uani
H9A H 0.3084 1.0037 0.2062 0.1040 Uiso
H10A H 0.2591 0.9884 0.1745 0.1040 Uiso
H11A H 0.3466 0.9967 0.1695 0.1040 Uiso
C12A C 0.3673(15) 0.8042(6) 0.1367(6) 0.0473 Uani
H12A H 0.3696 0.7924 0.1146 0.0570 Uiso
C13A C 0.4062(6) 0.7395(2) 0.1590(2) 0.0420 Uani
C14A C 0.4134(9) 0.7166(3) 0.1894(3) 0.0353 Uani
C15A C 0.4330(10) 0.6758(3) 0.1874(3) 0.0317 Uani
C16A C 0.4453(10) 0.6579(3) 0.1549(4) 0.0413 Uani
C17A C 0.4381(11) 0.6807(3) 0.1244(3) 0.0467 Uani
C18A C 0.4185(9) 0.7215(3) 0.1265(2) 0.0443 Uani
H13A H 0.4137 0.7368 0.1061 0.0530 Uiso
C19A C 0.455(2) 0.6620(8) 0.0885(7) 0.0647 Uani
H14A H 0.4479 0.6821 0.0706 0.0990 Uiso
H15A H 0.4213 0.6396 0.0844 0.0990 Uiso
H16A H 0.5071 0.6526 0.0880 0.0990 Uiso
C20A C 0.4787(16) 0.6138(6) 0.1491(7) 0.0707 Uani
H17A H 0.4828 0.6084 0.1244 0.1040 Uiso
H18A H 0.4454 0.5942 0.1596 0.1040 Uiso
H19A H 0.5284 0.6119 0.1596 0.1040 Uiso
C21A C 0.4341(6) 0.6499(2) 0.2214(2) 0.0333 Uani
C22A C 0.4889(7) 0.6576(3) 0.2469(3) 0.0393 Uani
C23A C 0.4951(9) 0.6321(4) 0.2758(3) 0.0327 Uani
C24A C 0.4465(11) 0.5990(4) 0.2792(3) 0.0460 Uani
H20A H 0.4507 0.5820 0.2986 0.0550 Uiso
C25A C 0.3918(10) 0.5913(3) 0.2537(4) 0.0447 Uani
C26A C 0.3856(7) 0.6168(3) 0.2247(3) 0.0390 Uani
C27A C 0.3173(14) 0.6095(7) 0.1963(7) 0.0637 Uani
H21A H 0.2888 0.5858 0.2027 0.0950 Uiso
H22A H 0.3390 0.6059 0.1734 0.0950 Uiso
H23A H 0.2840 0.6327 0.1962 0.0950 Uiso
C28A C 0.3402(16) 0.5531(6) 0.2605(8) 0.0700 Uani
H24A H 0.3043 0.5502 0.2417 0.1050 Uiso
H25A H 0.3131 0.5566 0.2822 0.1050 Uiso
H26A H 0.3717 0.5293 0.2619 0.1050 Uiso
C29A C 0.5731(16) 0.6169(6) 0.3250(6) 0.0457 Uani
H27A H 0.5447 0.5932 0.3272 0.0550 Uiso
C30A C 0.6341(8) 0.6226(3) 0.3507(3) 0.0507 Uani
C31A C 0.6809(9) 0.6563(3) 0.3546(3) 0.0620 Uani
C32A C 0.7369(9) 0.6566(4) 0.3805(4) 0.0517 Uani
C33A C 0.7460(11) 0.6232(5) 0.4023(4) 0.0537 Uani
H28A H 0.7835 0.6235 0.4196 0.0640 Uiso
C34A C 0.6992(11) 0.5895(4) 0.3984(4) 0.0643 Uani
C35A C 0.6432(9) 0.5892(3) 0.3725(3) 0.0613 Uani
H29A H 0.6118 0.5666 0.3699 0.0750 Uiso
C36A C 0.715(2) 0.5520(6) 0.4196(7) 0.0657 Uani
C37A C 0.7897(18) 0.6945(7) 0.3854(8) 0.0727 Uani
C38A C 0.8472(19) 0.6883(9) 0.4182(8) 0.0827 Uani
H30A H 0.8802 0.7114 0.4201 0.1260 Uiso
H31A H 0.8773 0.6643 0.4146 0.1260 Uiso
H32A H 0.8181 0.6854 0.4394 0.1260 Uiso
C39A C 0.748(2) 0.7321(8) 0.3932(9) 0.0843 Uani
H33A H 0.7834 0.7539 0.3963 0.1240 Uiso
H34A H 0.7187 0.7285 0.4143 0.1240 Uiso
H35A H 0.7141 0.7383 0.3741 0.1240 Uiso
C40A C 0.841(2) 0.6992(11) 0.3525(9) 0.0917 Uani
H36A H 0.8756 0.7216 0.3559 0.1370 Uiso
H37A H 0.8099 0.7042 0.3323 0.1370 Uiso
H38A H 0.8701 0.6748 0.3490 0.1370 Uiso
N3A N 0.3839(12) 0.7812(4) 0.1633(5) 0.0400 Uani
N4A N 0.5540(13) 0.6406(5) 0.3000(5) 0.0437 Uani
O2A O 0.3121(8) 0.7920(4) 0.2542(4) 0.0403 Uani
O3A O 0.3570(11) 0.8575(4) 0.1992(4) 0.0527 Uani
O4A O 0.4068(8) 0.7368(3) 0.2201(3) 0.0327 Uani
O5A O 0.5347(8) 0.6909(4) 0.2458(4) 0.0347 Uani
O6A O 0.6768(12) 0.6885(4) 0.3335(4) 0.0573 Uani
O8A O 0.276(2) 0.8931(5) 0.0417(5) 0.1337 Uani
O9A O 0.2792(14) 0.9553(5) 0.0613(5) 0.0860 Uani
O10A O 0.6706(15) 0.5215(5) 0.4122(5) 0.0760 Uani
O11A O 0.7664(14) 0.5516(5) 0.4414(5) 0.0810 Uani
N1C N 0.616(3) 0.5557(14) -0.0174(11) 0.2380 Uani
C61C C 0.594(3) 0.5239(16) -0.0390(14) 0.2400 Uani
H58C H 0.6303 0.5073 -0.0493 0.2880 Uiso
C62C C 0.517(4) 0.517(2) -0.0451(18) 0.2400 Uani
H59C H 0.5016 0.4956 -0.0596 0.2880 Uiso
C63C C 0.462(3) 0.542(2) -0.030(2) 0.2400 Uani
H60C H 0.4104 0.5371 -0.0338 0.2880 Uiso
C64C C 0.484(3) 0.574(2) -0.0081(18) 0.2400 Uani
H61C H 0.4479 0.5902 0.0022 0.2880 Uiso
C65C C 0.562(3) 0.5805(16) -0.0020(14) 0.2400 Uani
H62C H 0.5766 0.6018 0.0125 0.2880 Uiso
N2B N -0.0782(11) 0.5186(7) 0.2939(9) 0.1277 Uani
C66B C -0.1179(17) 0.5549(8) 0.2897(11) 0.1737 Uani
H63B H -0.1239 0.5660 0.2675 0.2070 Uiso
C67B C -0.149(2) 0.5744(10) 0.3188(13) 0.1737 Uani
H64B H -0.1751 0.5986 0.3160 0.2070 Uiso
C68B C -0.140(3) 0.5577(14) 0.3520(11) 0.1737 Uani
H65B H -0.1601 0.5708 0.3714 0.2070 Uiso
C69B C -0.100(2) 0.5215(14) 0.3562(9) 0.1737 Uani
H66B H -0.0939 0.5104 0.3784 0.2070 Uiso
C70B C -0.0693(17) 0.5020(9) 0.3271(9) 0.1737 Uani
H67B H -0.0427 0.4778 0.3299 0.2070 Uiso
Cd1A Cd 0.2500 0.94236(7) 0.0000 0.1085 Uani
Cd2A Cd 1.0048(2) 1.0000 0.2500 0.1063 Uani
O8C O 0.776(2) 0.6069(5) -0.0417(5) 0.1337 Uani
O9C O 0.7792(14) 0.5447(5) -0.0613(5) 0.0860 Uani
O12B O 0.0266(12) 0.4431(6) 0.2753(6) 0.0783 Uani
O13B O 0.0875(13) 0.4562(6) 0.2248(7) 0.0883 Uani
C71 C 0.997(3) -0.0044(15) 0.6299(11) 0.2000 Uiso
C72 C 0.938(6) -0.0233(19) 0.5708(19) 0.3700 Uiso
C73 C 1.012(3) 0.032(2) 0.5727(16) 0.2200 Uiso
N6 N 0.964(2) 0.0086(11) 0.5960(8) 0.1770 Uiso
O15 O 0.966(3) -0.0318(11) 0.6493(9) 0.1960 Uiso
O16 O 0.225(4) 0.600(2) 0.3646(17) 0.2500 Uiso
O17 O 0.214(3) 0.5068(16) 0.1773(13) 0.1990 Uiso
O18 O 0.830(2) 0.6705(13) 0.2535(12) 0.1680 Uiso
O19 O 0.641(5) 0.731(2) 0.051(2) 0.2800 Uiso
O20 O 0.370(8) 0.882(4) 0.487(4) 0.2500 Uiso
O21 O 0.461(12) 0.573(6) 0.488(5) 0.3400 Uiso
loop_
_atom_site_aniso_label
_atom_site_aniso_U_11
_atom_site_aniso_U_22
_atom_site_aniso_U_33
_atom_site_aniso_U_23
_atom_site_aniso_U_13
_atom_site_aniso_U_12
Cd1 0.238(4) 0.0223(10) 0.0652(14) 0.000 0.0874(18) 0.000
Cd2 0.092(2) 0.0589(17) 0.168(4) -0.008(2) 0.000 0.000
Zn1 0.0498(18) 0.0166(11) 0.0331(16) 0.000 0.000 0.0027(13)
Zn2 0.0603(15) 0.0223(9) 0.0383(12) -0.0027(10) 0.0019(13) 0.0092(12)
Zn3 0.0643(16) 0.0213(9) 0.0407(12) -0.0025(10) 0.0065(14) 0.0017(12)
Zn4 0.0534(14) 0.0246(9) 0.0481(14) 0.0021(11) 0.0023(13) 0.0012(11)
C1 0.17(3) 0.035(11) 0.067(14) -0.026(11) 0.070(16) -0.017(16)
C2 0.089(18) 0.029(10) 0.067(14) -0.015(10) 0.043(14) 0.001(12)
C3 0.11(2) 0.024(9) 0.046(13) -0.003(9) 0.031(14) -0.001(13)
C4 0.072(16) 0.028(9) 0.053(13) -0.007(10) 0.021(13) 0.011(12)
C5 0.087(19) 0.029(10) 0.042(13) 0.007(10) 0.012(13) 0.010(12)
C6 0.087(18) 0.036(10) 0.039(12) -0.008(10) 0.013(13) 0.017(12)
C7 0.13(2) 0.017(9) 0.064(15) 0.007(10) 0.038(16) 0.004(14)
C8 0.082(17) 0.023(9) 0.040(12) 0.006(9) 0.011(13) 0.009(12)
C9 0.11(2) 0.038(11) 0.10(2) -0.010(14) 0.02(2) 0.018(15)
C10 0.066(15) 0.037(10) 0.047(12) 0.013(10) 0.020(12) 0.017(11)
C11 0.084(19) 0.033(11) 0.09(2) 0.005(12) 0.023(17) 0.027(12)
C12 0.083(17) 0.026(9) 0.033(10) 0.001(9) 0.024(11) 0.003(12)
C13 0.059(14) 0.017(8) 0.050(12) 0.004(9) -0.006(11) 0.001(9)
C14 0.044(12) 0.027(9) 0.035(11) -0.001(9) 0.007(10) 0.009(9)
C15 0.038(12) 0.026(8) 0.031(10) 0.003(8) -0.002(9) 0.006(9)
C16 0.063(15) 0.024(9) 0.037(11) 0.009(9) 0.003(11) -0.003(10)
C17 0.071(16) 0.033(10) 0.036(11) 0.001(9) 0.012(12) 0.004(12)
C18 0.080(17) 0.026(9) 0.027(10) 0.000(8) 0.011(11) 0.008(11)
C19 0.10(2) 0.047(13) 0.047(14) 0.017(11) -0.004(16) 0.010(15)
C20 0.14(2) 0.021(9) 0.051(13) 0.000(10) 0.037(15) 0.013(13)
C21 0.049(13) 0.019(8) 0.032(10) 0.006(8) 0.006(10) -0.002(9)
C22 0.058(13) 0.015(7) 0.045(11) 0.000(9) -0.002(13) 0.004(8)
C23 0.046(12) 0.022(8) 0.030(10) 0.004(8) 0.005(10) 0.003(9)
C24 0.076(17) 0.022(9) 0.040(12) -0.003(9) -0.005(13) -0.003(11)
C25 0.051(12) 0.024(8) 0.059(14) -0.006(10) -0.012(13) 0.001(9)
C26 0.046(13) 0.017(7) 0.054(12) 0.007(9) 0.009(11) 0.003(9)
C27 0.080(19) 0.037(11) 0.074(18) 0.003(12) -0.008(16) -0.006(14)
C28 0.077(17) 0.033(10) 0.10(2) -0.018(13) 0.022(17) -0.022(12)
C29 0.072(17) 0.021(9) 0.044(12) 0.005(9) -0.002(12) -0.003(11)
C30 0.093(19) 0.025(9) 0.034(11) 0.004(9) 0.007(13) 0.006(12)
C31 0.13(2) 0.022(9) 0.034(12) -0.002(9) 0.009(16) -0.002(14)
C32 0.069(16) 0.035(10) 0.051(13) 0.014(10) 0.018(13) 0.008(12)
C33 0.094(18) 0.021(9) 0.046(12) 0.010(9) 0.031(13) 0.006(12)
C34 0.12(2) 0.036(11) 0.037(12) 0.001(10) 0.023(14) 0.034(13)
C35 0.12(2) 0.029(10) 0.035(12) 0.004(10) 0.022(14) -0.007(14)
C36 0.13(2) 0.021(9) 0.046(14) 0.000(10) 0.018(16) 0.008(13)
C37 0.11(2) 0.032(11) 0.076(18) -0.003(13) 0.028(17) 0.002(14)
C38 0.10(2) 0.062(15) 0.086(19) -0.014(15) 0.051(16) -0.036(16)
C39 0.12(2) 0.049(13) 0.084(19) 0.019(14) 0.019(19) -0.024(17)
C40 0.10(2) 0.085(19) 0.09(2) -0.013(18) 0.031(19) -0.039(19)
C41 0.061(16) 0.051(13) 0.11(2) -0.019(17) -0.003(19) -0.005(12)
C42 0.061(15) 0.046(12) 0.10(2) -0.010(14) -0.007(18) -0.006(12)
C43 0.034(13) 0.077(17) 0.078(18) 0.000(15) -0.019(13) 0.004(13)
C44 0.063(17) 0.047(13) 0.080(18) -0.004(14) -0.016(15) 0.003(13)
C45 0.043(14) 0.049(12) 0.077(18) 0.001(13) -0.006(13) -0.006(12)
C46 0.054(15) 0.044(12) 0.064(16) 0.007(12) -0.001(13) -0.005(12)
C47 0.08(2) 0.037(12) 0.12(2) 0.014(15) 0.01(2) -0.002(14)
C48 0.09(2) 0.061(15) 0.11(2) 0.033(16) -0.041(18) 0.000(17)
C49 0.09(2) 0.10(2) 0.15(3) 0.01(2) -0.07(2) -0.01(2)
C50 0.08(2) 0.11(3) 0.064(18) 0.010(19) -0.015(17) 0.02(2)
C51 0.12(3) 0.056(17) 0.13(3) 0.01(2) -0.04(2) 0.01(2)
C52 0.051(14) 0.027(9) 0.059(14) 0.004(10) 0.002(13) -0.005(10)
C53 0.057(14) 0.026(9) 0.044(12) 0.000(9) 0.010(11) -0.014(11)
C54 0.038(12) 0.021(8) 0.043(12) -0.004(9) 0.003(10) 0.001(9)
C55 0.087(18) 0.019(8) 0.037(11) -0.003(9) 0.011(12) 0.001(11)
C56 0.089(19) 0.035(10) 0.035(11) 0.008(10) -0.003(13) 0.007(13)
C57 0.10(2) 0.049(13) 0.027(11) 0.004(10) 0.000(13) 0.001(15)
C58 0.092(19) 0.026(9) 0.046(13) 0.005(9) 0.008(15) -0.005(13)
C59 0.12(3) 0.052(13) 0.057(16) 0.028(12) -0.010(18) -0.014(17)
C60 0.10(2) 0.036(11) 0.047(14) 0.005(11) -0.005(15) 0.003(14)
N1 0.238(2) 0.238(3) 0.238(3) 0.000(2) 0.000(2) 0.0002(19)
C61 0.240(2) 0.240(3) 0.240(3) 0.000(2) 0.000(2) -0.0005(18)
C62 0.240(2) 0.240(3) 0.240(3) 0.000(2) 0.000(2) -0.0005(18)
C63 0.240(2) 0.240(3) 0.240(3) 0.000(2) 0.000(2) -0.0005(18)
C64 0.240(2) 0.240(3) 0.240(3) 0.000(2) 0.000(2) -0.0005(18)
C65 0.240(2) 0.240(3) 0.240(3) 0.000(2) 0.000(2) -0.0005(18)
N2 0.054(16) 0.087(12) 0.242(3) -0.040(4) -0.001(12) -0.018(13)
C66 0.16(2) 0.134(13) 0.227(4) -0.031(4) -0.047(13) 0.000(15)
C67 0.16(2) 0.134(13) 0.227(4) -0.031(4) -0.047(13) 0.000(15)
C68 0.16(2) 0.134(13) 0.227(4) -0.031(4) -0.047(13) 0.000(15)
C69 0.16(2) 0.134(13) 0.227(4) -0.031(4) -0.047(13) 0.000(15)
C70 0.16(2) 0.134(13) 0.227(4) -0.031(4) -0.047(13) 0.000(15)
N3 0.062(12) 0.016(6) 0.042(10) 0.000(7) 0.004(10) 0.009(8)
N4 0.075(13) 0.020(7) 0.036(10) 0.001(7) 0.000(10) 0.002(9)
N5 0.067(13) 0.037(9) 0.051(11) 0.000(9) -0.003(11) 0.005(10)
O1 0.049(8) 0.018(5) 0.035(7) 0.001(6) -0.002(7) 0.005(6)
O2 0.045(8) 0.034(6) 0.042(8) 0.002(7) -0.005(8) 0.005(6)
O3 0.093(13) 0.025(6) 0.040(8) -0.005(6) 0.003(9) 0.016(8)
O4 0.048(8) 0.015(5) 0.035(7) 0.002(5) 0.005(6) 0.007(6)
O5 0.040(7) 0.024(6) 0.040(7) 0.000(6) 0.000(7) -0.001(6)
O6 0.095(12) 0.026(7) 0.051(9) -0.005(7) 0.029(9) 0.005(9)
O7 0.056(10) 0.044(8) 0.069(11) 0.004(8) -0.009(9) -0.011(8)
O8 0.33(3) 0.016(7) 0.055(10) -0.004(7) 0.095(14) -0.010(13)
O9 0.160(18) 0.026(7) 0.072(11) -0.002(8) 0.065(11) 0.006(11)
O10 0.149(18) 0.026(7) 0.053(10) -0.006(7) 0.032(11) 0.003(11)
O11 0.142(17) 0.043(8) 0.058(10) -0.004(8) 0.052(11) 0.020(11)
O12 0.069(13) 0.059(10) 0.107(15) -0.012(11) -0.001(12) -0.016(10)
O13 0.079(14) 0.056(10) 0.130(19) -0.002(12) 0.004(14) -0.025(10)
O14 0.46(8) 0.027(12) 0.060(17) 0.000 0.08(3) 0.000
C41A 0.061 0.051 0.11 0.019 0.003 -0.005
C42A 0.061 0.046 0.1 0.01 0.007 -0.006
C43A 0.034 0.077 0.078 0 0.019 0.004
C44A 0.063 0.047 0.08 0.004 0.016 0.003
C45A 0.043 0.049 0.077 -0.001 0.006 -0.006
C46A 0.054 0.044 0.064 -0.007 0.001 -0.005
C47A 0.08 0.037 0.12 -0.014 -0.01 -0.002
C48A 0.09 0.061 0.11 -0.033 0.041 0
C49A 0.09 0.1 0.15 -0.01 0.07 -0.01
C50A 0.08 0.11 0.064 -0.01 0.015 0.02
C51A 0.12 0.056 0.13 -0.01 0.04 0.01
C52A 0.051 0.027 0.059 -0.004 -0.002 -0.005
C53A 0.057 0.026 0.044 0 -0.01 -0.014
C54A 0.038 0.021 0.043 0.004 -0.003 0.001
C55A 0.087 0.019 0.037 0.003 -0.011 0.001
C56A 0.089 0.035 0.035 -0.008 0.003 0.007
C57A 0.1 0.049 0.027 -0.004 0 0.001
C58A 0.092 0.026 0.046 -0.005 -0.008 -0.005
C59A 0.12 0.052 0.057 -0.028 0.01 -0.014
C60A 0.1 0.036 0.047 -0.005 0.005 0.003
N5A 0.067 0.037 0.051 0 0.003 0.005
O1A 0.049 0.018 0.035 -0.001 0.002 0.005
O7A 0.056 0.044 0.069 -0.004 0.009 -0.011
O12A 0.069 0.059 0.107 0.012 0.001 -0.016
O13A 0.079 0.056 0.13 0.002 -0.004 -0.025
Zn2A 0.0603 0.0223 0.0383 0.0027 -0.0019 0.0092
Zn3A 0.0643 0.0213 0.0407 0.0025 -0.0065 0.0017
Zn4A 0.0534 0.0246 0.0481 -0.0021 -0.0023 0.0012
C1A 0.17 0.035 0.067 0.026 -0.07 -0.017
C2A 0.089 0.029 0.067 0.015 -0.043 0.001
C3A 0.11 0.024 0.046 0.003 -0.031 -0.001
C4A 0.072 0.028 0.053 0.007 -0.021 0.011
C5A 0.087 0.029 0.042 -0.007 -0.012 0.01
C6A 0.087 0.036 0.039 0.008 -0.013 0.017
C7A 0.13 0.017 0.064 -0.007 -0.038 0.004
C8A 0.082 0.023 0.04 -0.006 -0.011 0.009
C9A 0.11 0.038 0.1 0.01 -0.02 0.018
C10A 0.066 0.037 0.047 -0.013 -0.02 0.017
C11A 0.084 0.033 0.09 -0.005 -0.023 0.027
C12A 0.083 0.026 0.033 -0.001 -0.024 0.003
C13A 0.059 0.017 0.05 -0.004 0.006 0.001
C14A 0.044 0.027 0.035 0.001 -0.007 0.009
C15A 0.038 0.026 0.031 -0.003 0.002 0.006
C16A 0.063 0.024 0.037 -0.009 -0.003 -0.003
C17A 0.071 0.033 0.036 -0.001 -0.012 0.004
C18A 0.08 0.026 0.027 0 -0.011 0.008
C19A 0.1 0.047 0.047 -0.017 0.004 0.01
C20A 0.14 0.021 0.051 0 -0.037 0.013
C21A 0.049 0.019 0.032 -0.006 -0.006 -0.002
C22A 0.058 0.015 0.045 0 0.002 0.004
C23A 0.046 0.022 0.03 -0.004 -0.005 0.003
C24A 0.076 0.022 0.04 0.003 0.005 -0.003
C25A 0.051 0.024 0.059 0.006 0.012 0.001
C26A 0.046 0.017 0.054 -0.007 -0.009 0.003
C27A 0.08 0.037 0.074 -0.003 0.008 -0.006
C28A 0.077 0.033 0.1 0.018 -0.022 -0.022
C29A 0.072 0.021 0.044 -0.005 0.002 -0.003
C30A 0.093 0.025 0.034 -0.004 -0.007 0.006
C31A 0.13 0.022 0.034 0.002 -0.009 -0.002
C32A 0.069 0.035 0.051 -0.014 -0.018 0.008
C33A 0.094 0.021 0.046 -0.01 -0.031 0.006
C34A 0.12 0.036 0.037 -0.001 -0.023 0.034
C35A 0.12 0.029 0.035 -0.004 -0.022 -0.007
C36A 0.13 0.021 0.046 0 -0.018 0.008
C37A 0.11 0.032 0.076 0.003 -0.028 0.002
C38A 0.1 0.062 0.086 0.014 -0.051 -0.036
C39A 0.12 0.049 0.084 -0.019 -0.019 -0.024
C40A 0.1 0.085 0.09 0.013 -0.031 -0.039
N3A 0.062 0.016 0.042 0 -0.004 0.009
N4A 0.075 0.02 0.036 -0.001 0 0.002
O2A 0.045 0.034 0.042 -0.002 0.005 0.005
O3A 0.093 0.025 0.04 0.005 -0.003 0.016
O4A 0.048 0.015 0.035 -0.002 -0.005 0.007
O5A 0.04 0.024 0.04 0 0 -0.001
O6A 0.095 0.026 0.051 0.005 -0.029 0.005
O8A 0.33 0.016 0.055 0.004 -0.095 -0.01
O9A 0.16 0.026 0.072 0.002 -0.065 0.006
O10A 0.149 0.026 0.053 0.006 -0.032 0.003
O11A 0.142 0.043 0.058 0.004 -0.052 0.02
N1C 0.238 0.238 0.238 0 0 -0.0002
C61C 0.24 0.24 0.24 0 0 0.0005
C62C 0.24 0.24 0.24 0 0 0.0005
C63C 0.24 0.24 0.24 0 0 0.0005
C64C 0.24 0.24 0.24 0 0 0.0005
C65C 0.24 0.24 0.24 0 0 0.0005
N2B 0.054 0.087 0.242 -0.04 0.001 0.018
C66B 0.16 0.134 0.227 -0.031 0.047 0
C67B 0.16 0.134 0.227 -0.031 0.047 0
C68B 0.16 0.134 0.227 -0.031 0.047 0
C69B 0.16 0.134 0.227 -0.031 0.047 0
C70B 0.16 0.134 0.227 -0.031 0.047 0
Cd1A 0.238 0.0223 0.0652 0 -0.0874 0
Cd2A 0.092 0.0589 0.168 0.008 0 0
O8C 0.33 0.016 0.055 0.004 0.095 0.01
O9C 0.16 0.026 0.072 0.002 0.065 -0.006
O12B 0.069 0.059 0.107 -0.012 0.001 0.016
O13B 0.079 0.056 0.13 -0.002 -0.004 0.025
loop_
_geom_bond_atom_site_label_1
_geom_bond_atom_site_label_2
_geom_bond_site_symmetry_1
_geom_bond_site_symmetry_2
Cd1 N1 1_555 1_555
Cd2 N2 1_555 1_555
Zn1 O1 1_555 1_555
Zn2 N3 1_555 1_555
Zn3 N4 1_555 1_555
Zn4 N5 1_555 1_555
C1 C2 1_555 1_555
C2 C3 1_555 1_555
C3 H1 1_555 1_555
C4 C3 1_555 1_555
C5 C4 1_555 1_555
C6 C5 1_555 1_555
C7 C2 1_555 1_555
H2 C7 1_555 1_555
C8 C4 1_555 1_555
C9 C8 1_555 1_555
H3 C9 1_555 1_555
H4 C9 1_555 1_555
H5 C9 1_555 1_555
C10 C8 1_555 1_555
H6 C10 1_555 1_555
H7 C10 1_555 1_555
H8 C10 1_555 1_555
C11 C8 1_555 1_555
H9 C11 1_555 1_555
H10 C11 1_555 1_555
H11 C11 1_555 1_555
C12 C6 1_555 1_555
H12 C12 1_555 1_555
C13 C14 1_555 1_555
C14 C15 1_555 1_555
C15 C16 1_555 1_555
C16 C17 1_555 1_555
C17 C18 1_555 1_555
C18 C13 1_555 1_555
H13 C18 1_555 1_555
C19 C17 1_555 1_555
H14 C19 1_555 1_555
H15 C19 1_555 1_555
H16 C19 1_555 1_555
C20 C16 1_555 1_555
H17 C20 1_555 1_555
H18 C20 1_555 1_555
H19 C20 1_555 1_555
C21 C15 1_555 1_555
C22 C21 1_555 1_555
C23 C22 1_555 1_555
C24 C23 1_555 1_555
H20 C24 1_555 1_555
C25 C24 1_555 1_555
C26 C21 1_555 1_555
C27 C26 1_555 1_555
H21 C27 1_555 1_555
H22 C27 1_555 1_555
H23 C27 1_555 1_555
C28 C25 1_555 1_555
H24 C28 1_555 1_555
H25 C28 1_555 1_555
H26 C28 1_555 1_555
C29 H27 1_555 1_555
C30 C29 1_555 1_555
C31 C30 1_555 1_555
C32 C31 1_555 1_555
C33 C32 1_555 1_555
H28 C33 1_555 1_555
C34 C33 1_555 1_555
C35 C30 1_555 1_555
H29 C35 1_555 1_555
C36 C34 1_555 1_555
C37 C32 1_555 1_555
C38 C37 1_555 1_555
H30 C38 1_555 1_555
H31 C38 1_555 1_555
H32 C38 1_555 1_555
C39 C37 1_555 1_555
H33 C39 1_555 1_555
H34 C39 1_555 1_555
H35 C39 1_555 1_555
C40 C37 1_555 1_555
H36 C40 1_555 1_555
H37 C40 1_555 1_555
H38 C40 1_555 1_555
C41 C42 1_555 1_555
C42 C43 1_555 1_555
C43 H39 1_555 1_555
C44 C43 1_555 1_555
C45 C44 1_555 1_555
C46 C45 1_555 1_555
C47 C42 1_555 1_555
H40 C47 1_555 1_555
C48 C44 1_555 1_555
C49 C48 1_555 1_555
H41 C49 1_555 1_555
H42 C49 1_555 1_555
H43 C49 1_555 1_555
C50 C48 1_555 1_555
H44 C50 1_555 1_555
H45 C50 1_555 1_555
H46 C50 1_555 1_555
C51 C48 1_555 1_555
H47 C51 1_555 1_555
H48 C51 1_555 1_555
H49 C51 1_555 1_555
C52 C46 1_555 1_555
H50 C52 1_555 1_555
C53 C54 1_555 1_555
C54 C55 1_555 1_555
C55 C56 1_555 1_555
C56 C57 1_555 1_555
C57 C58 1_555 1_555
C58 C53 1_555 1_555
H51 C58 1_555 1_555
C59 C57 1_555 1_555
H52 C59 1_555 1_555
H53 C59 1_555 1_555
H54 C59 1_555 1_555
C60 C56 1_555 1_555
H55 C60 1_555 1_555
H56 C60 1_555 1_555
H57 C60 1_555 1_555
N1 C61 1_555 1_555
C61 H58 1_555 1_555
C62 C61 1_555 1_555
H59 C62 1_555 1_555
C63 C62 1_555 1_555
H60 C63 1_555 1_555
C64 C63 1_555 1_555
H61 C64 1_555 1_555
C65 N1 1_555 1_555
H62 C65 1_555 1_555
N2 C66 1_555 1_555
C66 H63 1_555 1_555
C67 C66 1_555 1_555
H64 C67 1_555 1_555
C68 C67 1_555 1_555
H65 C68 1_555 1_555
C69 C68 1_555 1_555
H66 C69 1_555 1_555
C70 N2 1_555 1_555
H67 C70 1_555 1_555
N3 C12 1_555 1_555
N4 C23 1_555 1_555
N5 C52 1_555 1_555
O1 Zn3 1_555 1_555
O2 Zn2 1_555 1_555
O3 Zn2 1_555 1_555
O4 Zn1 1_555 1_555
O5 Zn1 1_555 1_555
O6 Zn3 1_555 1_555
O7 Zn4 1_555 1_555
O8 Cd1 1_555 1_555
O9 Cd1 1_555 1_555
O10 C36 1_555 1_555
O11 C36 1_555 1_555
O12 Cd2 1_555 1_555
O13 Cd2 1_555 1_555
O14 Cd1 1_555 1_555
C71 N6 1_555 1_555
C72 N6 1_555 1_555
C73 N6 1_555 1_555
O15 C71 1_555 1_555
C41A C42A 1_555 1_555
C42A C43A 1_555 1_555
C43A H39A 1_555 1_555
C44A C43A 1_555 1_555
C45A C44A 1_555 1_555
C46A C45A 1_555 1_555
C47A C42A 1_555 1_555
H40A C47A 1_555 1_555
C48A C44A 1_555 1_555
C49A C48A 1_555 1_555
H41A C49A 1_555 1_555
H42A C49A 1_555 1_555
H43A C49A 1_555 1_555
C50A C48A 1_555 1_555
H44A C50A 1_555 1_555
H45A C50A 1_555 1_555
H46A C50A 1_555 1_555
C51A C48A 1_555 1_555
H47A C51A 1_555 1_555
H48A C51A 1_555 1_555
H49A C51A 1_555 1_555
C52A C46A 1_555 1_555
H50A C52A 1_555 1_555
C53A C54A 1_555 1_555
C54A C55A 1_555 1_555
C55A C55 1_555 1_555
C56A C55A 1_555 1_555
C57A C56A 1_555 1_555
C58A C53A 1_555 1_555
H51A C58A 1_555 1_555
C59A C57A 1_555 1_555
H52A C59A 1_555 1_555
H53A C59A 1_555 1_555
H54A C59A 1_555 1_555
C60A C56A 1_555 1_555
H55A C60A 1_555 1_555
H56A C60A 1_555 1_555
H57A C60A 1_555 1_555
N5A C52A 1_555 1_555
O1A Zn1 1_555 1_555
O7A C45A 1_555 1_555
O12A C41A 1_555 1_555
O13A C41A 1_555 1_555
Zn2A O5 1_555 1_555
Zn3A O2 1_555 1_555
Zn4A O2 1_555 1_555
C1A C2A 1_555 1_555
C2A C3A 1_555 1_555
C3A H1A 1_555 1_555
C4A C3A 1_555 1_555
C5A C4A 1_555 1_555
C6A C5A 1_555 1_555
C7A C2A 1_555 1_555
H2A C7A 1_555 1_555
C8A C4A 1_555 1_555
C9A C8A 1_555 1_555
H3A C9A 1_555 1_555
H4A C9A 1_555 1_555
H5A C9A 1_555 1_555
C10A C8A 1_555 1_555
H6A C10A 1_555 1_555
H7A C10A 1_555 1_555
H8A C10A 1_555 1_555
C11A C8A 1_555 1_555
H9A C11A 1_555 1_555
H10A C11A 1_555 1_555
H11A C11A 1_555 1_555
C12A C6A 1_555 1_555
H12A C12A 1_555 1_555
C13A C14A 1_555 1_555
C14A C15A 1_555 1_555
C15A C16A 1_555 1_555
C16A C17A 1_555 1_555
C17A C18A 1_555 1_555
C18A C13A 1_555 1_555
H13A C18A 1_555 1_555
C19A C17A 1_555 1_555
H14A C19A 1_555 1_555
H15A C19A 1_555 1_555
H16A C19A 1_555 1_555
C20A C16A 1_555 1_555
H17A C20A 1_555 1_555
H18A C20A 1_555 1_555
H19A C20A 1_555 1_555
C21A C15A 1_555 1_555
C22A C21A 1_555 1_555
C23A C22A 1_555 1_555
C24A C23A 1_555 1_555
H20A C24A 1_555 1_555
C25A C24A 1_555 1_555
C26A C21A 1_555 1_555
C27A C26A 1_555 1_555
H21A C27A 1_555 1_555
H22A C27A 1_555 1_555
H23A C27A 1_555 1_555
C28A C25A 1_555 1_555
H24A C28A 1_555 1_555
H25A C28A 1_555 1_555
H26A C28A 1_555 1_555
C29A H27A 1_555 1_555
C30A C29A 1_555 1_555
C31A C30A 1_555 1_555
C32A C31A 1_555 1_555
C33A C32A 1_555 1_555
H28A C33A 1_555 1_555
C34A C33A 1_555 1_555
C35A C30A 1_555 1_555
H29A C35A 1_555 1_555
C36A C34A 1_555 1_555
C37A C32A 1_555 1_555
C38A C37A 1_555 1_555
H30A C38A 1_555 1_555
H31A C38A 1_555 1_555
H32A C38A 1_555 1_555
C39A C37A 1_555 1_555
H33A C39A 1_555 1_555
H34A C39A 1_555 1_555
H35A C39A 1_555 1_555
C40A C37A 1_555 1_555
H36A C40A 1_555 1_555
H37A C40A 1_555 1_555
H38A C40A 1_555 1_555
N3A Zn2A 1_555 1_555
N4A Zn3A 1_555 1_555
O2A Zn3 1_555 1_555
O3A Zn2A 1_555 1_555
O4A Zn1 1_555 1_555
O5A Zn1 1_555 1_555
O6A Zn3A 1_555 1_555
O8A C1A 1_555 1_555
O9A C1A 1_555 1_555
O10A C36A 1_555 1_555
O11A C36A 1_555 1_555
N1C Cd1 1_555 1_555
C61C N1C 1_555 1_555
H58C C61C 1_555 1_555
C62C C61C 1_555 1_555
H59C C62C 1_555 1_555
C63C C62C 1_555 1_555
H60C C63C 1_555 1_555
C64C C63C 1_555 1_555
H61C C64C 1_555 1_555
C65C N1C 1_555 1_555
H62C C65C 1_555 1_555
N2B Cd2 1_555 1_555
C66B N2B 1_555 1_555
H63B C66B 1_555 1_555
C67B C66B 1_555 1_555
H64B C67B 1_555 1_555
C68B C67B 1_555 1_555
H65B C68B 1_555 1_555
C69B C68B 1_555 1_555
H66B C69B 1_555 1_555
C70B N2B 1_555 1_555
H67B C70B 1_555 1_555
Cd1A O8A 1_555 1_555
Cd2A O12A 1_555 1_555
O8C Cd1 1_555 1_555
O9C Cd1 1_555 1_555
O12B Cd2 1_555 1_555
O13B Cd2 1_555 1_555
Zn2 O4 1_555 1_555
Zn2 O5A 1_555 1_555
Zn3 O5 1_555 1_555
Zn4 O1 1_555 1_555
Zn4 O2A 1_555 1_555
Zn4 O4A 1_555 1_555
C1 O8 1_555 1_555
C1 O9 1_555 1_555
C5 O3 1_555 1_555
C6 C7 1_555 1_555
C13 N3 1_555 1_555
C14 O4 1_555 1_555
C22 O5 1_555 1_555
C25 C26 1_555 1_555
C29 N4 1_555 1_555
C31 O6 1_555 1_555
C34 C35 1_555 1_555
C41 O12 1_555 1_555
C41 O13 1_555 1_555
C45 O7 1_555 1_555
C46 C47 1_555 1_555
C53 N5 1_555 1_555
C54 O1 1_555 1_555
C64 C65 1_555 1_555
C69 C70 1_555 1_555
O4 Zn4A 1_555 1_555
C46A C47A 1_555 1_555
C53A N5A 1_555 1_555
C54A O1A 1_555 1_555
C57A C58A 1_555 1_555
N5A Zn4A 1_555 1_555
O1A Zn3A 1_555 1_555
O1A Zn4A 1_555 1_555
O7A Zn4A 1_555 1_555
O13A Cd2A 1_555 1_555
Zn2A O2A 1_555 1_555
Zn2A O4A 1_555 1_555
Zn3A O5A 1_555 1_555
C5A O3A 1_555 1_555
C6A C7A 1_555 1_555
C12A N3A 1_555 1_555
C13A N3A 1_555 1_555
C14A O4A 1_555 1_555
C22A O5A 1_555 1_555
C23A N4A 1_555 1_555
C25A C26A 1_555 1_555
C29A N4A 1_555 1_555
C31A O6A 1_555 1_555
C34A C35A 1_555 1_555
O9A Cd1A 1_555 1_555
C64C C65C 1_555 1_555
C69B C70B 1_555 1_555

#END
