
#######################################################################
#
#                 Cambridge Crystallographic Data Centre
#                                CCDC 
#
#######################################################################
#
# If this CIF has been generated from an entry in the Cambridge 
# Structural Database, then it will include bibliographic, chemical, 
# crystal, experimental, refinement or atomic coordinate data resulting 
# from the CCDC's data processing and validation procedures.
#
#######################################################################

data_SITTUM
_chemical_formula_moiety         '(C38 H50 N4 O15 Zn4)n'
_symmetry_cell_setting           tetragonal
_symmetry_space_group_name_H-M   'I 41/a'
_symmetry_Int_Tables_number      88
_space_group_name_Hall           '-I 4ad'
loop_
_symmetry_equiv_pos_site_id
_symmetry_equiv_pos_as_xyz
1 x,y,z
2 -x,1/2-y,z
3 3/4-y,1/4+x,1/4+z
4 1/4+y,1/4-x,1/4+z
5 1/2+x,1/2+y,1/2+z
6 1/2-x,-y,1/2+z
7 1/4-y,3/4+x,3/4+z
8 3/4+y,3/4-x,3/4+z
9 -x,-y,-z
10 x,1/2+y,-z
11 1/4+y,3/4-x,3/4-z
12 3/4-y,3/4+x,3/4-z
13 1/2-x,1/2-y,1/2-z
14 1/2+x,y,1/2-z
15 3/4+y,1/4-x,1/4-z
16 1/4-y,1/4+x,1/4-z
_cell_length_a                   27.150(7)
_cell_length_b                   27.150(7)
_cell_length_c                   13.122(3)
_cell_angle_alpha                90
_cell_angle_beta                 90
_cell_angle_gamma                90
_cell_volume                     9672.52
loop_
_atom_site_label
_atom_site_type_symbol
_atom_site_fract_x
_atom_site_fract_y
_atom_site_fract_z
_atom_site_U_iso_or_equiv
_atom_site_thermal_displace_type
Zn1 Zn 0.02485(3) 0.13802(3) 0.57299(7) 0.0420 Uani
Zn2 Zn 0.08424(3) 0.11332(3) 0.38479(7) 0.0531 Uani
C1 C 0.1906(3) -0.0448(3) 0.7418(7) 0.0630 Uani
H1 H 0.1913 -0.0376 0.8134 0.0940 Uiso
H2 H 0.2237 -0.0493 0.7175 0.0940 Uiso
H3 H 0.1721 -0.0744 0.7303 0.0940 Uiso
C2 C 0.1671(2) -0.0031(2) 0.6860(7) 0.0477 Uani
C3 C 0.1756(2) 0.0059(3) 0.5845(6) 0.0470 Uani
H4 H 0.1977 -0.0143 0.5501 0.0560 Uiso
C4 C 0.1527(2) 0.0439(2) 0.5304(6) 0.0427 Uani
C5 C 0.1186(2) 0.0742(2) 0.5820(6) 0.0380 Uani
C6 C 0.1125(2) 0.0688(2) 0.6866(6) 0.0423 Uani
C7 C 0.1356(2) 0.0297(3) 0.7396(6) 0.0450 Uani
H5 H 0.1302 0.0255 0.8091 0.0540 Uiso
C8 C 0.0849(2) 0.1063(3) 0.7490(6) 0.0467 Uani
H6 H 0.0880 0.0976 0.8204 0.0560 Uiso
H7 H 0.1005 0.1381 0.7397 0.0560 Uiso
C9 C 0.0073(2) 0.0627(2) 0.7425(6) 0.0460 Uani
H8 H 0.0100 0.0550 0.8145 0.0550 Uiso
H9 H 0.0252 0.0376 0.7052 0.0550 Uiso
C10 C -0.0465(3) 0.0604(3) 0.7121(7) 0.0537 Uani
H10 H -0.0502 0.0715 0.6423 0.0640 Uiso
H11 H -0.0656 0.0821 0.7556 0.0640 Uiso
C11 C -0.0659(3) 0.0078(3) 0.7217(8) 0.0673 Uani
H12 H -0.0405 -0.0151 0.7003 0.0810 Uiso
H13 H -0.0736 0.0010 0.7925 0.0810 Uiso
C12 C 0.1683(3) 0.0542(3) 0.4231(6) 0.0513 Uani
H14 H 0.1830 0.0867 0.4208 0.0620 Uiso
H15 H 0.1937 0.0306 0.4045 0.0620 Uiso
C13 C 0.0096(2) 0.1513(3) 0.7875(6) 0.0437 Uani
H16 H -0.0032 0.1373 0.8501 0.0530 Uiso
H17 H 0.0354 0.1745 0.8056 0.0530 Uiso
C14 C -0.0309(2) 0.1784(2) 0.7343(6) 0.0440 Uani
C15 C 0.1496(3) 0.0684(3) 0.2485(6) 0.0573 Uani
H18 H 0.1274 0.0595 0.1937 0.0690 Uiso
H19 H 0.1805 0.0514 0.2371 0.0690 Uiso
C16 C 0.1584(4) 0.1227(4) 0.2455(7) 0.0747 Uani
C17 C -0.0190(3) 0.0961(3) 0.3871(8) 0.0593 Uani
C18 C -0.0644(3) 0.0808(5) 0.3306(9) 0.1070 Uani
H20 H -0.0717 0.1047 0.2788 0.1610 Uiso
H21 H -0.0915 0.0787 0.3773 0.1610 Uiso
H22 H -0.0590 0.0493 0.2996 0.1610 Uiso
C19 C -0.1100(3) 0.0003(3) 0.6597(7) 0.0533 Uani
H23 H -0.1031 0.0114 0.5910 0.0640 Uiso
H24 H -0.1361 0.0209 0.6866 0.0640 Uiso
N1 N 0.03129(18) 0.11108(19) 0.7237(5) 0.0390 Uani
N2 N 0.1286(2) 0.0519(2) 0.3456(5) 0.0483 Uani
O1 O 0.09373(16) 0.10983(16) 0.5316(4) 0.0437 Uani
O2 O -0.03318(16) 0.17670(17) 0.6384(4) 0.0470 Uani
O3 O -0.06059(17) 0.20290(17) 0.7859(4) 0.0503 Uani
O4 O 0.1918(3) 0.1388(3) 0.1918(7) 0.1213 Uani
O5 O 0.1296(2) 0.1501(2) 0.3010(5) 0.0727 Uani
O6 O 0.0189(2) 0.1036(2) 0.3309(5) 0.0687 Uani
O7 O -0.0195(2) 0.1002(2) 0.4793(5) 0.0657 Uani
C1H C -0.1906(3) 0.0448(3) 0.2582(7) 0.0630 Uani
H1H H -0.1913 0.0376 0.1866 0.0940 Uiso
H2H H -0.2237 0.0493 0.2825 0.0940 Uiso
H3H H -0.1721 0.0744 0.2697 0.0940 Uiso
C2H C -0.1671(2) 0.0031(2) 0.3140(7) 0.0477 Uani
C3H C -0.1756(2) -0.0059(3) 0.4155(6) 0.0470 Uani
H4H H -0.1977 0.0143 0.4499 0.0560 Uiso
C4H C -0.1527(2) -0.0439(2) 0.4696(6) 0.0427 Uani
C5H C -0.1186(2) -0.0742(2) 0.4180(6) 0.0380 Uani
C6H C -0.1125(2) -0.0688(2) 0.3134(6) 0.0423 Uani
C7H C -0.1356(2) -0.0297(3) 0.2604(6) 0.0450 Uani
H5H H -0.1302 -0.0255 0.1909 0.0540 Uiso
C8H C -0.0849(2) -0.1063(3) 0.2510(6) 0.0467 Uani
H6H H -0.0880 -0.0976 0.1796 0.0560 Uiso
H7H H -0.1005 -0.1381 0.2603 0.0560 Uiso
C9H C -0.0073(2) -0.0627(2) 0.2575(6) 0.0460 Uani
H8H H -0.0100 -0.0550 0.1855 0.0550 Uiso
H9H H -0.0252 -0.0376 0.2948 0.0550 Uiso
C10H C 0.0465(3) -0.0604(3) 0.2879(7) 0.0537 Uani
H10H H 0.0502 -0.0715 0.3577 0.0640 Uiso
H11H H 0.0656 -0.0821 0.2444 0.0640 Uiso
C11H C 0.0659(3) -0.0078(3) 0.2783(8) 0.0673 Uani
H12H H 0.0405 0.0151 0.2997 0.0810 Uiso
H13H H 0.0736 -0.0010 0.2075 0.0810 Uiso
C12H C -0.1683(3) -0.0542(3) 0.5769(6) 0.0513 Uani
H14H H -0.1830 -0.0867 0.5792 0.0620 Uiso
H15H H -0.1937 -0.0306 0.5955 0.0620 Uiso
C13H C -0.0096(2) -0.1513(3) 0.2125(6) 0.0437 Uani
H16H H 0.0032 -0.1373 0.1499 0.0530 Uiso
H17H H -0.0354 -0.1745 0.1944 0.0530 Uiso
C14H C 0.0309(2) -0.1784(2) 0.2657(6) 0.0440 Uani
C15H C -0.1496(3) -0.0684(3) 0.7515(6) 0.0573 Uani
H18H H -0.1274 -0.0595 0.8063 0.0690 Uiso
H19H H -0.1805 -0.0514 0.7629 0.0690 Uiso
C16H C -0.1584(4) -0.1227(4) 0.7545(7) 0.0747 Uani
C19H C 0.1100(3) -0.0003(3) 0.3403(7) 0.0533 Uani
H23H H 0.1031 -0.0114 0.4090 0.0640 Uiso
H24H H 0.1361 -0.0209 0.3134 0.0640 Uiso
N1H N -0.03129(18) -0.11108(19) 0.2763(5) 0.0390 Uani
N2H N -0.1286(2) -0.0519(2) 0.6544(5) 0.0483 Uani
O1H O -0.09373(16) -0.10983(16) 0.4684(4) 0.0437 Uani
O2H O 0.03318(16) -0.17670(17) 0.3616(4) 0.0470 Uani
O3H O 0.06059(17) -0.20290(17) 0.2141(4) 0.0503 Uani
O4H O -0.1918(3) -0.1388(3) 0.8082(7) 0.1213 Uani
O5H O -0.1296(2) -0.1501(2) 0.6990(5) 0.0727 Uani
Zn1H Zn -0.02485(3) -0.13802(3) 0.42701(7) 0.0420 Uani
Zn2H Zn -0.08424(3) -0.11332(3) 0.61521(7) 0.0531 Uani
C17H C 0.0190(3) -0.0961(3) 0.6129(8) 0.0593 Uani
C18H C 0.0644(3) -0.0808(5) 0.6694(9) 0.1070 Uani
H20H H 0.0717 -0.1047 0.7212 0.1610 Uiso
H21H H 0.0915 -0.0787 0.6227 0.1610 Uiso
H22H H 0.0590 -0.0493 0.7004 0.1610 Uiso
O6H O -0.0189(2) -0.1036(2) 0.6691(5) 0.0687 Uani
O7H O 0.0195(2) -0.1002(2) 0.5207(5) 0.0657 Uani
Zn1F Zn 0.11198(3) -0.22515(3) 0.32299(7) 0.0420 Uani
Zn1N Zn -0.11198(3) 0.22515(3) 0.67701(7) 0.0420 Uani
Zn2F Zn 0.13668(3) -0.16576(3) 0.13479(7) 0.0531 Uani
Zn2N Zn -0.13668(3) 0.16576(3) 0.86521(7) 0.0531 Uani
O2G O -0.07330(17) -0.21682(16) 0.3884(4) 0.0470 Uani
O2O O 0.07330(17) 0.21682(16) 0.6116(4) 0.0470 Uani
O3G O -0.04710(17) -0.18941(17) 0.5359(4) 0.0503 Uani
O3O O 0.04710(17) 0.18941(17) 0.4641(4) 0.0503 Uani
O8 O 0.0781(11) 0.0397(16) 0.006(3) 0.1200 Uani
H25 H 0.108(4) 0.033(11) -0.01(2) 0.1810 Uiso
loop_
_atom_site_aniso_label
_atom_site_aniso_U_11
_atom_site_aniso_U_22
_atom_site_aniso_U_33
_atom_site_aniso_U_23
_atom_site_aniso_U_13
_atom_site_aniso_U_12
Zn1 0.0352(5) 0.0399(5) 0.0508(6) -0.0031(4) -0.0004(4) 0.0014(3)
Zn2 0.0498(6) 0.0544(6) 0.0552(6) -0.0015(4) 0.0010(4) -0.0025(4)
C1 0.047(5) 0.052(5) 0.090(7) 0.010(5) -0.011(4) 0.006(4)
C2 0.030(4) 0.033(4) 0.080(6) -0.008(4) -0.010(4) 0.002(3)
C3 0.036(4) 0.045(4) 0.060(6) -0.010(4) 0.001(4) 0.007(3)
C4 0.037(4) 0.038(4) 0.053(5) -0.003(3) 0.002(3) -0.001(3)
C5 0.030(3) 0.036(4) 0.048(5) -0.004(3) -0.003(3) -0.005(3)
C6 0.026(3) 0.033(4) 0.068(6) -0.013(3) -0.010(3) 0.003(3)
C7 0.036(4) 0.054(4) 0.045(5) 0.000(4) -0.001(3) 0.002(3)
C8 0.028(4) 0.049(4) 0.063(5) -0.006(4) -0.006(3) 0.002(3)
C9 0.040(4) 0.034(4) 0.064(5) 0.004(3) 0.005(4) 0.000(3)
C10 0.044(4) 0.039(4) 0.078(6) 0.001(4) 0.004(4) -0.004(3)
C11 0.056(5) 0.057(5) 0.089(7) -0.001(5) -0.014(5) -0.016(4)
C12 0.039(4) 0.056(5) 0.059(5) -0.015(4) 0.006(4) -0.001(3)
C13 0.036(4) 0.046(4) 0.049(5) -0.008(3) -0.003(3) 0.005(3)
C14 0.036(4) 0.038(4) 0.058(6) -0.010(4) -0.009(4) -0.003(3)
C15 0.060(5) 0.062(5) 0.050(5) -0.004(4) 0.007(4) -0.017(4)
C16 0.087(7) 0.087(7) 0.050(6) -0.003(5) 0.021(5) -0.031(6)
C17 0.050(5) 0.049(5) 0.079(7) -0.017(5) -0.006(5) -0.004(4)
C18 0.049(6) 0.155(11) 0.117(10) -0.063(8) -0.015(6) 0.000(6)
C19 0.048(4) 0.039(4) 0.073(6) -0.008(4) -0.003(4) -0.001(3)
N1 0.031(3) 0.036(3) 0.050(4) -0.006(3) -0.002(3) 0.004(2)
N2 0.043(3) 0.041(3) 0.061(5) -0.006(3) 0.003(3) -0.010(3)
O1 0.043(3) 0.038(3) 0.050(3) 0.000(2) 0.004(2) 0.007(2)
O2 0.032(3) 0.040(3) 0.069(4) 0.002(3) -0.003(2) 0.004(2)
O3 0.039(3) 0.046(3) 0.066(4) -0.013(3) 0.004(3) 0.008(2)
O4 0.142(7) 0.098(6) 0.124(7) -0.014(5) 0.068(6) -0.056(5)
O5 0.095(5) 0.055(3) 0.068(4) 0.004(3) 0.020(4) -0.013(3)
O6 0.056(4) 0.075(4) 0.075(4) -0.017(3) -0.009(3) 0.001(3)
O7 0.063(4) 0.073(4) 0.061(4) -0.012(3) 0.003(3) -0.019(3)
C1H 0.047 0.052 0.09 0.01 -0.011 0.006
C2H 0.03 0.033 0.08 -0.008 -0.01 0.002
C3H 0.036 0.045 0.06 -0.01 0.001 0.007
C4H 0.037 0.038 0.053 -0.003 0.002 -0.001
C5H 0.03 0.036 0.048 -0.004 -0.003 -0.005
C6H 0.026 0.033 0.068 -0.013 -0.01 0.003
C7H 0.036 0.054 0.045 0 -0.001 0.002
C8H 0.028 0.049 0.063 -0.006 -0.006 0.002
C9H 0.04 0.034 0.064 0.004 0.005 0
C10H 0.044 0.039 0.078 0.001 0.004 -0.004
C11H 0.056 0.057 0.089 -0.001 -0.014 -0.016
C12H 0.039 0.056 0.059 -0.015 0.006 -0.001
C13H 0.036 0.046 0.049 -0.008 -0.003 0.005
C14H 0.036 0.038 0.058 -0.01 -0.009 -0.003
C15H 0.06 0.062 0.05 -0.004 0.007 -0.017
C16H 0.087 0.087 0.05 -0.003 0.021 -0.031
C19H 0.048 0.039 0.073 -0.008 -0.003 -0.001
N1H 0.031 0.036 0.05 -0.006 -0.002 0.004
N2H 0.043 0.041 0.061 -0.006 0.003 -0.01
O1H 0.043 0.038 0.05 0 0.004 0.007
O2H 0.032 0.04 0.069 0.002 -0.003 0.004
O3H 0.039 0.046 0.066 -0.013 0.004 0.008
O4H 0.142 0.098 0.124 -0.014 0.068 -0.056
O5H 0.095 0.055 0.068 0.004 0.02 -0.013
Zn1H 0.0352 0.0399 0.0508 -0.0031 -0.0004 0.0014
Zn2H 0.0498 0.0544 0.0552 -0.0015 0.001 -0.0025
C17H 0.05 0.049 0.079 -0.017 -0.006 -0.004
C18H 0.049 0.155 0.117 -0.063 -0.015 0
O6H 0.056 0.075 0.075 -0.017 -0.009 0.001
O7H 0.063 0.073 0.061 -0.012 0.003 -0.019
Zn1F 0.0399 0.0352 0.0508 -0.0004 0.0031 -0.0014
Zn1N 0.0399 0.0352 0.0508 -0.0004 0.0031 -0.0014
Zn2F 0.0544 0.0498 0.0552 0.001 0.0015 0.0025
Zn2N 0.0544 0.0498 0.0552 0.001 0.0015 0.0025
O2G 0.04 0.032 0.069 0.003 0.002 -0.004
O2O 0.04 0.032 0.069 0.003 0.002 -0.004
O3G 0.046 0.039 0.066 -0.004 -0.013 -0.008
O3O 0.046 0.039 0.066 -0.004 -0.013 -0.008
O8 0.08(2) 0.21(4) 0.07(2) 0.01(2) 0.024(18) -0.02(2)
loop_
_geom_bond_atom_site_label_1
_geom_bond_atom_site_label_2
_geom_bond_site_symmetry_1
_geom_bond_site_symmetry_2
Zn1 N1 1_555 1_555
Zn2 N2 1_555 1_555
C1 H1 1_555 1_555
H2 C1 1_555 1_555
H3 C1 1_555 1_555
C2 C1 1_555 1_555
C3 C2 1_555 1_555
H4 C3 1_555 1_555
C4 C3 1_555 1_555
C5 C4 1_555 1_555
C6 C5 1_555 1_555
C7 C2 1_555 1_555
H5 C7 1_555 1_555
C8 C6 1_555 1_555
H6 C8 1_555 1_555
H7 C8 1_555 1_555
C9 H8 1_555 1_555
H9 C9 1_555 1_555
C10 C9 1_555 1_555
H10 C10 1_555 1_555
H11 C10 1_555 1_555
C11 C10 1_555 1_555
H12 C11 1_555 1_555
H13 C11 1_555 1_555
C12 C4 1_555 1_555
H14 C12 1_555 1_555
H15 C12 1_555 1_555
C13 H16 1_555 1_555
H17 C13 1_555 1_555
C14 C13 1_555 1_555
C15 H18 1_555 1_555
H19 C15 1_555 1_555
C16 C15 1_555 1_555
C17 C18 1_555 1_555
C18 H20 1_555 1_555
H21 C18 1_555 1_555
H22 C18 1_555 1_555
C19 C11 1_555 1_555
H23 C19 1_555 1_555
H24 C19 1_555 1_555
N1 C8 1_555 1_555
N2 C12 1_555 1_555
O1 Zn1 1_555 1_555
O2 Zn1 1_555 1_555
O3 C14 1_555 1_555
O4 C16 1_555 1_555
O5 Zn2 1_555 1_555
O6 Zn2 1_555 1_555
O7 Zn1 1_555 1_555
O8 H25 1_555 1_555
C1H H1H 1_555 1_555
H2H C1H 1_555 1_555
H3H C1H 1_555 1_555
C2H C1H 1_555 1_555
C3H C2H 1_555 1_555
H4H C3H 1_555 1_555
C4H C3H 1_555 1_555
C5H C4H 1_555 1_555
C6H C5H 1_555 1_555
C7H C2H 1_555 1_555
H5H C7H 1_555 1_555
C8H C6H 1_555 1_555
H6H C8H 1_555 1_555
H7H C8H 1_555 1_555
C9H H8H 1_555 1_555
H9H C9H 1_555 1_555
C10H C9H 1_555 1_555
H10H C10H 1_555 1_555
H11H C10H 1_555 1_555
C11H C10H 1_555 1_555
H12H C11H 1_555 1_555
H13H C11H 1_555 1_555
C12H C4H 1_555 1_555
H14H C12H 1_555 1_555
H15H C12H 1_555 1_555
C13H H16H 1_555 1_555
H17H C13H 1_555 1_555
C14H C13H 1_555 1_555
C15H H18H 1_555 1_555
H19H C15H 1_555 1_555
C16H C15H 1_555 1_555
C19H N2 1_555 1_555
H23H C19H 1_555 1_555
H24H C19H 1_555 1_555
N1H C8H 1_555 1_555
N2H C19 1_555 1_555
O1H C5H 1_555 1_555
O2H C14H 1_555 1_555
O3H C14H 1_555 1_555
O4H C16H 1_555 1_555
O5H C16H 1_555 1_555
Zn1H N1H 1_555 1_555
Zn2H N2H 1_555 1_555
C17H C18H 1_555 1_555
C18H H20H 1_555 1_555
H21H C18H 1_555 1_555
H22H C18H 1_555 1_555
O6H Zn2H 1_555 1_555
O7H Zn1H 1_555 1_555
Zn1F O2H 1_555 1_555
Zn1N O2 1_555 1_555
Zn2F O3H 1_555 1_555
Zn2N O3 1_555 1_555
O2G Zn1H 1_555 1_555
O2O Zn1 1_555 1_555
O3G Zn1H 1_555 1_555
O3O Zn1 1_555 1_555
Zn2 O1 1_555 1_555
Zn2 O3O 1_555 1_555
C5 O1 1_555 1_555
C6 C7 1_555 1_555
C9 N1 1_555 1_555
C13 N1 1_555 1_555
C14 O2 1_555 1_555
C15 N2 1_555 1_555
C16 O5 1_555 1_555
C17 O6 1_555 1_555
C17 O7 1_555 1_555
O3 Zn1N 1_555 1_555
C6H C7H 1_555 1_555
C9H N1H 1_555 1_555
C11H C19H 1_555 1_555
C12H N2H 1_555 1_555
C13H N1H 1_555 1_555
C15H N2H 1_555 1_555
O1H Zn1H 1_555 1_555
O1H Zn2H 1_555 1_555
O2H Zn1H 1_555 1_555
O3H Zn1F 1_555 1_555
O5H Zn2H 1_555 1_555
Zn2H O3G 1_555 1_555
C17H O6H 1_555 1_555
C17H O7H 1_555 1_555

#END
