
#######################################################################
#
#                 Cambridge Crystallographic Data Centre
#                                CCDC 
#
#######################################################################
#
# If this CIF has been generated from an entry in the Cambridge 
# Structural Database, then it will include bibliographic, chemical, 
# crystal, experimental, refinement or atomic coordinate data resulting 
# from the CCDC's data processing and validation procedures.
#
#######################################################################

data_APUPEH
_chemical_formula_moiety         'C14 H4 Cu4 O12'
_symmetry_cell_setting           cubic
_symmetry_space_group_name_H-M   'I 4 3 2'
_symmetry_Int_Tables_number      211
_space_group_name_Hall           'I 4 2 3'
loop_
_symmetry_equiv_pos_site_id
_symmetry_equiv_pos_as_xyz
1 x,y,z
2 -x,-y,z
3 -x,y,-z
4 x,-y,-z
5 z,x,y
6 z,-x,-y
7 -z,-x,y
8 -z,x,-y
9 y,z,x
10 -y,z,-x
11 y,-z,-x
12 -y,-z,x
13 y,x,-z
14 -y,-x,-z
15 y,-x,z
16 -y,x,z
17 x,z,-y
18 -x,z,y
19 -x,-z,-y
20 x,-z,y
21 z,y,-x
22 z,-y,x
23 -z,y,x
24 -z,-y,-x
25 1/2+x,1/2+y,1/2+z
26 1/2-x,1/2-y,1/2+z
27 1/2-x,1/2+y,1/2-z
28 1/2+x,1/2-y,1/2-z
29 1/2+z,1/2+x,1/2+y
30 1/2+z,1/2-x,1/2-y
31 1/2-z,1/2-x,1/2+y
32 1/2-z,1/2+x,1/2-y
33 1/2+y,1/2+z,1/2+x
34 1/2-y,1/2+z,1/2-x
35 1/2+y,1/2-z,1/2-x
36 1/2-y,1/2-z,1/2+x
37 1/2+y,1/2+x,1/2-z
38 1/2-y,1/2-x,1/2-z
39 1/2+y,1/2-x,1/2+z
40 1/2-y,1/2+x,1/2+z
41 1/2+x,1/2+z,1/2-y
42 1/2-x,1/2+z,1/2+y
43 1/2-x,1/2-z,1/2-y
44 1/2+x,1/2-z,1/2+y
45 1/2+z,1/2+y,1/2-x
46 1/2+z,1/2-y,1/2+x
47 1/2-z,1/2+y,1/2+x
48 1/2-z,1/2-y,1/2-x
_cell_length_a                   30.1892(2)
_cell_length_b                   30.1892(2)
_cell_length_c                   30.1892(2)
_cell_angle_alpha                90
_cell_angle_beta                 90
_cell_angle_gamma                90
_cell_volume                     27514.1
loop_
_atom_site_label
_atom_site_type_symbol
_atom_site_fract_x
_atom_site_fract_y
_atom_site_fract_z
_atom_site_U_iso_or_equiv
_atom_site_thermal_displace_type
Cu1 Cu 0.5000 0.5000 0.95673(3) 0.1456 Uani
O1 O 0.5000 0.5000 0.88358(14) 0.2023 Uani
O2 O 0.50089(13) 0.56295(7) 0.96252(8) 0.1683 Uani
C1 C 0.5000 0.58272(11) 1.0000 0.1773 Uani
C2 C 0.5000 0.63269(18) 1.0000 0.1807 Uani
C3 C 0.50231(8) 0.65432(12) 0.95935(13) 0.1973 Uani
H1 H 0.5038 0.6379 0.9333 0.2370 Uiso
C4 C 0.50242(8) 0.70184(15) 0.95732(16) 0.2183 Uani
C5 C 0.5000 0.72317(15) 1.0000 0.1947 Uani
O3 O 0.50469(16) 0.7272(2) 0.91729(19) 0.3127 Uani
Cu1B Cu 0.5000 0.5000 1.04327(3) 0.1456 Uani
Cu1BA Cu 0.45673(3) 1.0000 1.0000 0.1456 Uani
Cu1DA Cu 0.54327(3) 1.0000 1.0000 0.1456 Uani
O2B O 0.49911(13) 0.56295(7) 1.03748(8) 0.1683 Uani
O2SA O 0.46252(8) 0.93705(7) 1.00089(13) 0.1683 Uani
O2UA O 0.53748(8) 0.93705(7) 0.99911(13) 0.1683 Uani
O2A O 0.49911(13) 0.43705(7) 0.96252(8) 0.1683 Uani
O2N O 0.56295(7) 0.49911(13) 0.96252(8) 0.1683 Uani
O2O O 0.43705(7) 0.50089(13) 0.96252(8) 0.1683 Uani
C1SA C 0.5000 0.91728(11) 1.0000 0.1773 Uani
C2SA C 0.5000 0.86731(18) 1.0000 0.1807 Uani
C3B C 0.49769(8) 0.65432(12) 1.04065(13) 0.1973 Uani
C3SA C 0.45935(13) 0.84568(12) 1.00231(8) 0.1973 Uani
C3UA C 0.54065(13) 0.84568(12) 0.99769(8) 0.1973 Uani
H1B H 0.4962 0.6379 1.0667 0.2370 Uiso
H1UA H 0.5667 0.8621 0.9962 0.2370 Uiso
H1SA H 0.4333 0.8621 1.0038 0.2370 Uiso
C4B C 0.49758(8) 0.70184(15) 1.04268(16) 0.2183 Uani
C4SA C 0.45732(16) 0.79816(15) 1.00242(8) 0.2183 Uani
C4UA C 0.54268(16) 0.79816(15) 0.99758(8) 0.2183 Uani
C5SA C 0.5000 0.77683(15) 1.0000 0.1947 Uani
O3B O 0.49531(16) 0.7272(2) 1.08271(19) 0.3127 Uani
O3UA O 0.58271(19) 0.7728(2) 0.99531(16) 0.3127 Uani
O3SA O 0.41729(19) 0.7728(2) 1.00469(16) 0.3127 Uani
loop_
_atom_site_aniso_label
_atom_site_aniso_U_11
_atom_site_aniso_U_22
_atom_site_aniso_U_33
_atom_site_aniso_U_23
_atom_site_aniso_U_13
_atom_site_aniso_U_12
Cu1 0.1056(5) 0.1056(5) 0.2257(11) 0.000 0.000 0.000
O1 0.202(3) 0.202(3) 0.203(4) 0.000 0.000 0.000
O2 0.1688(18) 0.0841(15) 0.252(2) -0.0234(12) 0.024(3) -0.042(2)
C1 0.118(3) 0.033(2) 0.381(10) 0.000 -0.061(8) 0.000
C2 0.153(4) 0.141(5) 0.248(7) 0.000 0.039(8) 0.000
C3 0.252(4) 0.092(3) 0.248(5) -0.011(2) 0.054(6) -0.003(5)
C4 0.268(5) 0.140(4) 0.247(6) -0.063(4) -0.041(6) -0.024(6)
C5 0.198(5) 0.102(3) 0.284(7) 0.000 -0.054(8) 0.000
O3 0.64(2) 0.095(4) 0.203(10) 0.046(5) 0.035(15) 0.061(12)
Cu1B 0.1056 0.1056 0.2257 0 0 0
Cu1BA 0.2257 0.1056 0.1056 0 0 0
Cu1DA 0.2257 0.1056 0.1056 0 0 0
O2B 0.1688 0.0841 0.252 0.0234 0.024 0.042
O2SA 0.252 0.0841 0.1688 0.042 0.024 0.0234
O2UA 0.252 0.0841 0.1688 -0.042 0.024 -0.0234
O2A 0.1688 0.0841 0.252 0.0234 -0.024 -0.042
O2N 0.0841 0.1688 0.252 -0.024 -0.0234 0.042
O2O 0.0841 0.1688 0.252 0.024 0.0234 0.042
C1SA 0.381 0.033 0.118 0 -0.061 0
C2SA 0.248 0.141 0.153 0 0.039 0
C3B 0.252 0.092 0.248 0.011 0.054 0.003
C3SA 0.248 0.092 0.252 0.003 0.054 0.011
C3UA 0.248 0.092 0.252 -0.003 0.054 -0.011
C4B 0.268 0.14 0.247 0.063 -0.041 0.024
C4SA 0.247 0.14 0.268 0.024 -0.041 0.063
C4UA 0.247 0.14 0.268 -0.024 -0.041 -0.063
C5SA 0.284 0.102 0.198 0 -0.054 0
O3B 0.64 0.095 0.203 -0.046 0.035 -0.061
O3UA 0.203 0.095 0.64 0.061 0.035 0.046
O3SA 0.203 0.095 0.64 -0.061 0.035 -0.046
loop_
_geom_bond_atom_site_label_1
_geom_bond_atom_site_label_2
_geom_bond_site_symmetry_1
_geom_bond_site_symmetry_2
Cu1 O1 1_555 1_555
O2 Cu1 1_555 1_555
C1 O2 1_555 1_555
C2 C1 1_555 1_555
C3 C2 1_555 1_555
H1 C3 1_555 1_555
C4 C3 1_555 1_555
C5 C4 1_555 1_555
O3 C4 1_555 1_555
Cu1B O2B 1_555 1_555
Cu1BA O2SA 1_555 1_555
Cu1DA O2UA 1_555 1_555
O2B C1 1_555 1_555
O2SA C1SA 1_555 1_555
O2UA C1SA 1_555 1_555
O2A Cu1 1_555 1_555
O2N Cu1 1_555 1_555
O2O Cu1 1_555 1_555
C1SA C2SA 1_555 1_555
C2SA C3SA 1_555 1_555
C3B C2 1_555 1_555
C3SA H1SA 1_555 1_555
C3UA C2SA 1_555 1_555
H1B C3B 1_555 1_555
H1UA C3UA 1_555 1_555
C4B C5 1_555 1_555
C4SA C3SA 1_555 1_555
C4UA C3UA 1_555 1_555
C5SA C5 1_555 1_555
O3B C4B 1_555 1_555
O3UA C4UA 1_555 1_555
O3SA C4SA 1_555 1_555
C3B C4B 1_555 1_555
C4SA C5SA 1_555 1_555
C4UA C5SA 1_555 1_555

#END
