
#######################################################################
#
#                 Cambridge Crystallographic Data Centre
#                                CCDC 
#
#######################################################################
#
# If this CIF has been generated from an entry in the Cambridge 
# Structural Database, then it will include bibliographic, chemical, 
# crystal, experimental, refinement or atomic coordinate data resulting 
# from the CCDC's data processing and validation procedures.
#
#######################################################################

data_BUPVIT
_chemical_formula_moiety         '(C24 H14 Ce3 O16)n'
_symmetry_cell_setting           cubic
_symmetry_space_group_name_H-M   'F m -3 m'
_symmetry_Int_Tables_number      225
_space_group_name_Hall           '-F 4 2 3'
loop_
_symmetry_equiv_pos_site_id
_symmetry_equiv_pos_as_xyz
1 x,y,z
2 -x,-y,z
3 -x,-z,-y
4 -x,z,y
5 -x,y,-z
6 -y,-x,-z
7 -y,-z,x
8 -y,z,-x
9 -y,x,z
10 -z,-x,y
11 -z,-y,-x
12 -z,y,x
13 -z,x,-y
14 z,-x,-y
15 z,-y,x
16 z,y,-x
17 z,x,y
18 y,-x,z
19 y,-z,-x
20 y,z,x
21 y,x,-z
22 x,-y,-z
23 x,-z,y
24 x,z,-y
25 1/2+x,1/2+y,z
26 1/2-x,1/2-y,z
27 1/2-x,1/2-z,-y
28 1/2-x,1/2+z,y
29 1/2-x,1/2+y,-z
30 1/2-y,1/2-x,-z
31 1/2-y,1/2-z,x
32 1/2-y,1/2+z,-x
33 1/2-y,1/2+x,z
34 1/2-z,1/2-x,y
35 1/2-z,1/2-y,-x
36 1/2-z,1/2+y,x
37 1/2-z,1/2+x,-y
38 1/2+z,1/2-x,-y
39 1/2+z,1/2-y,x
40 1/2+z,1/2+y,-x
41 1/2+z,1/2+x,y
42 1/2+y,1/2-x,z
43 1/2+y,1/2-z,-x
44 1/2+y,1/2+z,x
45 1/2+y,1/2+x,-z
46 1/2+x,1/2-y,-z
47 1/2+x,1/2-z,y
48 1/2+x,1/2+z,-y
49 1/2+x,y,1/2+z
50 1/2-x,-y,1/2+z
51 1/2-x,-z,1/2-y
52 1/2-x,z,1/2+y
53 1/2-x,y,1/2-z
54 1/2-y,-x,1/2-z
55 1/2-y,-z,1/2+x
56 1/2-y,z,1/2-x
57 1/2-y,x,1/2+z
58 1/2-z,-x,1/2+y
59 1/2-z,-y,1/2-x
60 1/2-z,y,1/2+x
61 1/2-z,x,1/2-y
62 1/2+z,-x,1/2-y
63 1/2+z,-y,1/2+x
64 1/2+z,y,1/2-x
65 1/2+z,x,1/2+y
66 1/2+y,-x,1/2+z
67 1/2+y,-z,1/2-x
68 1/2+y,z,1/2+x
69 1/2+y,x,1/2-z
70 1/2+x,-y,1/2-z
71 1/2+x,-z,1/2+y
72 1/2+x,z,1/2-y
73 x,1/2+y,1/2+z
74 -x,1/2-y,1/2+z
75 -x,1/2-z,1/2-y
76 -x,1/2+z,1/2+y
77 -x,1/2+y,1/2-z
78 -y,1/2-x,1/2-z
79 -y,1/2-z,1/2+x
80 -y,1/2+z,1/2-x
81 -y,1/2+x,1/2+z
82 -z,1/2-x,1/2+y
83 -z,1/2-y,1/2-x
84 -z,1/2+y,1/2+x
85 -z,1/2+x,1/2-y
86 z,1/2-x,1/2-y
87 z,1/2-y,1/2+x
88 z,1/2+y,1/2-x
89 z,1/2+x,1/2+y
90 y,1/2-x,1/2+z
91 y,1/2-z,1/2-x
92 y,1/2+z,1/2+x
93 y,1/2+x,1/2-z
94 x,1/2-y,1/2-z
95 x,1/2-z,1/2+y
96 x,1/2+z,1/2-y
97 -x,-y,-z
98 x,y,-z
99 x,z,y
100 x,-z,-y
101 x,-y,z
102 y,x,z
103 y,z,-x
104 y,-z,x
105 y,-x,-z
106 z,x,-y
107 z,y,x
108 z,-y,-x
109 z,-x,y
110 -z,x,y
111 -z,y,-x
112 -z,-y,x
113 -z,-x,-y
114 -y,x,-z
115 -y,z,x
116 -y,-z,-x
117 -y,-x,z
118 -x,y,z
119 -x,z,-y
120 -x,-z,y
121 1/2-x,1/2-y,-z
122 1/2+x,1/2+y,-z
123 1/2+x,1/2+z,y
124 1/2+x,1/2-z,-y
125 1/2+x,1/2-y,z
126 1/2+y,1/2+x,z
127 1/2+y,1/2+z,-x
128 1/2+y,1/2-z,x
129 1/2+y,1/2-x,-z
130 1/2+z,1/2+x,-y
131 1/2+z,1/2+y,x
132 1/2+z,1/2-y,-x
133 1/2+z,1/2-x,y
134 1/2-z,1/2+x,y
135 1/2-z,1/2+y,-x
136 1/2-z,1/2-y,x
137 1/2-z,1/2-x,-y
138 1/2-y,1/2+x,-z
139 1/2-y,1/2+z,x
140 1/2-y,1/2-z,-x
141 1/2-y,1/2-x,z
142 1/2-x,1/2+y,z
143 1/2-x,1/2+z,-y
144 1/2-x,1/2-z,y
145 1/2-x,-y,1/2-z
146 1/2+x,y,1/2-z
147 1/2+x,z,1/2+y
148 1/2+x,-z,1/2-y
149 1/2+x,-y,1/2+z
150 1/2+y,x,1/2+z
151 1/2+y,z,1/2-x
152 1/2+y,-z,1/2+x
153 1/2+y,-x,1/2-z
154 1/2+z,x,1/2-y
155 1/2+z,y,1/2+x
156 1/2+z,-y,1/2-x
157 1/2+z,-x,1/2+y
158 1/2-z,x,1/2+y
159 1/2-z,y,1/2-x
160 1/2-z,-y,1/2+x
161 1/2-z,-x,1/2-y
162 1/2-y,x,1/2-z
163 1/2-y,z,1/2+x
164 1/2-y,-z,1/2-x
165 1/2-y,-x,1/2+z
166 1/2-x,y,1/2+z
167 1/2-x,z,1/2-y
168 1/2-x,-z,1/2+y
169 -x,1/2-y,1/2-z
170 x,1/2+y,1/2-z
171 x,1/2+z,1/2+y
172 x,1/2-z,1/2-y
173 x,1/2-y,1/2+z
174 y,1/2+x,1/2+z
175 y,1/2+z,1/2-x
176 y,1/2-z,1/2+x
177 y,1/2-x,1/2-z
178 z,1/2+x,1/2-y
179 z,1/2+y,1/2+x
180 z,1/2-y,1/2-x
181 z,1/2-x,1/2+y
182 -z,1/2+x,1/2+y
183 -z,1/2+y,1/2-x
184 -z,1/2-y,1/2+x
185 -z,1/2-x,1/2-y
186 -y,1/2+x,1/2-z
187 -y,1/2+z,1/2+x
188 -y,1/2-z,1/2-x
189 -y,1/2-x,1/2+z
190 -x,1/2+y,1/2+z
191 -x,1/2+z,1/2-y
192 -x,1/2-z,1/2+y
_cell_length_a                   21.4727(3)
_cell_length_b                   21.4727(3)
_cell_length_c                   21.4727(3)
_cell_angle_alpha                90
_cell_angle_beta                 90
_cell_angle_gamma                90
_cell_volume                     9900.56
loop_
_atom_site_label
_atom_site_type_symbol
_atom_site_fract_x
_atom_site_fract_y
_atom_site_fract_z
_atom_site_U_iso_or_equiv
_atom_site_thermal_displace_type
Ce1 Ce 0.12416(18) 0.000 0.000 0.0046 Uiso
O1 O 0.1747(7) 0.000 0.0997(6) 0.0177 Uiso
C1 C 0.157(2) 0.000 0.157(2) 0.0063 Uiso
C2 C 0.204(2) 0.000 0.204(2) 0.0063 Uiso
C3 C 0.2666(9) 0.000 0.1875(9) 0.0063 Uiso
O2 O 0.0656(7) 0.0656(7) 0.0656(7) 0.0177 Uiso
O1N O 0.0997(6) 0.000 0.1747(7) 0.0177 Uiso
C3N C 0.1875(9) 0.000 0.2666(9) 0.0063 Uiso
O1FB O 0.4003(6) 0.000 0.3253(7) 0.0177 Uiso
C1ZA C 0.343(2) 0.000 0.343(2) 0.0063 Uiso
C2ZA C 0.296(2) 0.000 0.296(2) 0.0063 Uiso
C3FB C 0.3125(9) 0.000 0.2334(9) 0.0063 Uiso
O1ZA O 0.3253(7) 0.000 0.4003(6) 0.0177 Uiso
C3ZA C 0.2334(9) 0.000 0.3125(9) 0.0063 Uiso
Ce1F Ce 0.000 0.000 0.12416(18) 0.0046 Uiso
O1F O -0.000 -0.0997(6) 0.1747(7) 0.0177 Uiso
C1LD C 0.000 -0.157(2) 0.157(2) 0.0063 Uiso
C2LD C 0.000 -0.204(2) 0.204(2) 0.0063 Uiso
C3F C 0.000 -0.1875(9) 0.2666(9) 0.0063 Uiso
O2A O -0.0656(7) -0.0656(7) 0.0656(7) 0.0177 Uiso
O1LD O -0.000 -0.1747(7) 0.0997(6) 0.0177 Uiso
C3LD C 0.000 -0.2666(9) 0.1875(9) 0.0063 Uiso
O1CG O -0.000 -0.3253(7) 0.4003(6) 0.0177 Uiso
C1AC C -0.000 -0.343(2) 0.343(2) 0.0063 Uiso
C2AC C 0.000 -0.296(2) 0.296(2) 0.0063 Uiso
C3CG C 0.000 -0.2334(9) 0.3125(9) 0.0063 Uiso
O1AC O 0.000 -0.4003(6) 0.3253(7) 0.0177 Uiso
C3AC C 0.000 -0.3125(9) 0.2334(9) 0.0063 Uiso
O1JD O 0.000 0.0997(6) 0.1747(7) 0.0177 Uiso
C1JD C 0.000 0.157(2) 0.157(2) 0.0063 Uiso
C2JD C 0.000 0.204(2) 0.204(2) 0.0063 Uiso
C3JD C 0.000 0.1875(9) 0.2666(9) 0.0063 Uiso
O2C O -0.0656(7) 0.0656(7) 0.0656(7) 0.0177 Uiso
O1H O 0.000 0.1747(7) 0.0997(6) 0.0177 Uiso
C3H C 0.000 0.2666(9) 0.1875(9) 0.0063 Uiso
O1YB O 0.000 0.3253(7) 0.4003(6) 0.0177 Uiso
C1YB C 0.000 0.343(2) 0.343(2) 0.0063 Uiso
C2YB C 0.000 0.296(2) 0.296(2) 0.0063 Uiso
C3YB C 0.000 0.2334(9) 0.3125(9) 0.0063 Uiso
O1EG O 0.000 0.4003(6) 0.3253(7) 0.0177 Uiso
C3EG C 0.000 0.3125(9) 0.2334(9) 0.0063 Uiso
Ce1ID Ce 0.000 0.12416(18) 0.000 0.0046 Uiso
O2ND O -0.0656(7) 0.0656(7) -0.0656(7) 0.0177 Uiso
Ce1A Ce -0.12416(18) 0.000 0.000 0.0046 Uiso
Ce1E Ce -0.000 -0.12416(18) 0.000 0.0046 Uiso
Ce1KD Ce -0.000 -0.000 -0.12416(18) 0.0046 Uiso
Ce1WA Ce 0.37584(18) 0.000 0.500 0.0046 Uiso
Ce1GF Ce 0.500 0.000 0.37584(18) 0.0046 Uiso
Ce1YB Ce 0.000 0.37584(18) 0.500 0.0046 Uiso
Ce1EG Ce -0.000 -0.500 0.37584(18) 0.0046 Uiso
Ce1EG_2 Ce 0.000 0.500 0.37584(18) 0.0046 Uiso
Ce1CG Ce 0.000 -0.37584(18) 0.500 0.0046 Uiso
O1ID O 0.000 0.1747(7) -0.0997(6) 0.0177 Uiso
O1GD O -0.0997(6) 0.000 0.1747(7) 0.0177 Uiso
O1L O -0.0997(6) 0.1747(7) 0.000 0.0177 Uiso
O1AD O 0.0997(6) 0.1747(7) 0.000 0.0177 Uiso
O1U O 0.1747(7) 0.000 -0.0997(6) 0.0177 Uiso
O1UC O 0.1747(7) -0.0997(6) 0.000 0.0177 Uiso
O1W O 0.1747(7) 0.0997(6) 0.000 0.0177 Uiso
O2M O 0.0656(7) -0.0656(7) -0.0656(7) 0.0177 Uiso
O2DD O 0.0656(7) -0.0656(7) 0.0656(7) 0.0177 Uiso
O2O O 0.0656(7) 0.0656(7) -0.0656(7) 0.0177 Uiso
loop_
_geom_bond_atom_site_label_1
_geom_bond_atom_site_label_2
_geom_bond_site_symmetry_1
_geom_bond_site_symmetry_2
Ce1 O1 1_555 1_555
O1 C1 1_555 1_555
C1 C2 1_555 1_555
C2 C3 1_555 1_555
C3 C3FB 1_555 1_555
O2 Ce1 1_555 1_555
O1N C1 1_555 1_555
C3N C2 1_555 1_555
O1FB C1ZA 1_555 1_555
C1ZA C2ZA 1_555 1_555
C2ZA C3FB 1_555 1_555
O1ZA C1ZA 1_555 1_555
C3ZA C3N 1_555 1_555
Ce1F O2 1_555 1_555
O1F Ce1F 1_555 1_555
C1LD O1F 1_555 1_555
C2LD C1LD 1_555 1_555
C3F C2LD 1_555 1_555
O2A Ce1F 1_555 1_555
O1LD C1LD 1_555 1_555
C3LD C2LD 1_555 1_555
O1CG C1AC 1_555 1_555
C1AC C2AC 1_555 1_555
C2AC C3CG 1_555 1_555
C3CG C3F 1_555 1_555
O1AC C1AC 1_555 1_555
C3AC C3LD 1_555 1_555
O1JD Ce1F 1_555 1_555
C1JD O1JD 1_555 1_555
C2JD C1JD 1_555 1_555
C3JD C2JD 1_555 1_555
O2C Ce1F 1_555 1_555
O1H C1JD 1_555 1_555
C3H C2JD 1_555 1_555
O1YB C1YB 1_555 1_555
C1YB C2YB 1_555 1_555
C2YB C3YB 1_555 1_555
C3YB C3JD 1_555 1_555
O1EG C1YB 1_555 1_555
C3EG C3H 1_555 1_555
Ce1ID O2 1_555 1_555
O2ND Ce1ID 1_555 1_555
Ce1A O2A 1_555 1_555
Ce1E O2A 1_555 1_555
Ce1KD O2ND 1_555 1_555
Ce1WA O1ZA 1_555 1_555
Ce1GF O1FB 1_555 1_555
Ce1YB O1YB 1_555 1_555
Ce1EG O1AC 1_555 1_555
Ce1EG_2 O1EG 1_555 1_555
Ce1CG O1CG 1_555 1_555
O1ID Ce1ID 1_555 1_555
O1GD Ce1F 1_555 1_555
O1L Ce1ID 1_555 1_555
O1AD Ce1ID 1_555 1_555
O1U Ce1 1_555 1_555
O1UC Ce1 1_555 1_555
O1W Ce1 1_555 1_555
O2M Ce1 1_555 1_555
O2DD Ce1 1_555 1_555
O2O Ce1 1_555 1_555
O1N Ce1F 1_555 1_555
C2ZA C3ZA 1_555 1_555
Ce1F O2DD 1_555 1_555
O1LD Ce1E 1_555 1_555
C2AC C3AC 1_555 1_555
O2C Ce1ID 1_555 1_555
O2C Ce1A 1_555 1_555
O1H Ce1ID 1_555 1_555
C2YB C3EG 1_555 1_555
Ce1ID O2O 1_555 1_555
O2ND Ce1A 1_555 1_555
Ce1E O2M 1_555 1_555
Ce1E O2DD 1_555 1_555
Ce1KD O2M 1_555 1_555
Ce1KD O2O 1_555 1_555

#END
