
#######################################################################
#
#                 Cambridge Crystallographic Data Centre
#                                CCDC 
#
#######################################################################
#
# If this CIF has been generated from an entry in the Cambridge 
# Structural Database, then it will include bibliographic, chemical, 
# crystal, experimental, refinement or atomic coordinate data resulting 
# from the CCDC's data processing and validation procedures.
#
#######################################################################

data_RUGXOI
_chemical_formula_moiety         '(C20 H22 N2 O10 Zn2)n'
_symmetry_cell_setting           monoclinic
_symmetry_space_group_name_H-M   'P 21/c'
_symmetry_Int_Tables_number      14
_space_group_name_Hall           '-P 2ybc'
loop_
_symmetry_equiv_pos_site_id
_symmetry_equiv_pos_as_xyz
1 x,y,z
2 -x,1/2+y,1/2-z
3 -x,-y,-z
4 x,1/2-y,1/2+z
_cell_length_a                   14.3288(9)
_cell_length_b                   13.2643(8)
_cell_length_c                   14.3563(10)
_cell_angle_alpha                90
_cell_angle_beta                 91.296(6)
_cell_angle_gamma                90
_cell_volume                     2727.88
loop_
_atom_site_label
_atom_site_type_symbol
_atom_site_fract_x
_atom_site_fract_y
_atom_site_fract_z
_atom_site_U_iso_or_equiv
_atom_site_thermal_displace_type
N1 N 0.3470(4) 0.3179(5) 0.3035(4) 0.0311 Uani
H7 H 0.2904 0.2975 0.3240 0.0370 Uiso
H8 H 0.3722 0.2660 0.2711 0.0370 Uiso
C17 C 0.4085(7) 0.3417(8) 0.3847(6) 0.0466 Uani
H9 H 0.4153 0.2819 0.4244 0.0700 Uiso
H10 H 0.4700 0.3624 0.3631 0.0700 Uiso
H11 H 0.3811 0.3967 0.4206 0.0700 Uiso
C18 C 0.3338(8) 0.4070(7) 0.2397(8) 0.0658 Uani
H12 H 0.2928 0.3880 0.1870 0.0990 Uiso
H13 H 0.3056 0.4626 0.2740 0.0990 Uiso
H14 H 0.3945 0.4283 0.2165 0.0990 Uiso
N2 N 0.1582(6) 0.7008(6) 0.1305(6) 0.0448 Uani
H15 H 0.2137 0.7253 0.1109 0.0540 Uiso
H16 H 0.1235 0.7540 0.1499 0.0540 Uiso
C19 C 0.1087(6) 0.6511(6) 0.0507(6) 0.0385 Uani
H17 H 0.0990 0.7000 0.0002 0.0580 Uiso
H18 H 0.1463 0.5947 0.0284 0.0580 Uiso
H19 H 0.0481 0.6259 0.0709 0.0580 Uiso
C20 C 0.1745(13) 0.6356(11) 0.2055(12) 0.1099 Uani
H20 H 0.2071 0.6720 0.2559 0.1650 Uiso
H21 H 0.1148 0.6101 0.2278 0.1650 Uiso
H22 H 0.2130 0.5789 0.1853 0.1650 Uiso
O1 O 0.5853(3) -0.3341(3) 0.3109(3) 0.0176 Uani
O2 O 0.2305(3) -0.1012(3) 0.3230(3) 0.0209 Uani
O3 O 0.2089(3) 0.0943(3) 0.1988(3) 0.0125 Uani
O4 O 0.3666(3) -0.4881(3) 0.5480(3) 0.0216 Uani
O5 O 0.3661(3) -0.0493(3) 0.2646(3) 0.0215 Uani
O6 O 0.1325(3) 0.4202(3) -0.0795(3) 0.0185 Uani
O7 O -0.0240(3) 0.4701(3) 0.2148(3) 0.0177 Uani
C1 C 0.3152(4) -0.1118(4) 0.3079(4) 0.0156 Uani
C2 C 0.4579(4) -0.3709(4) 0.4162(4) 0.0150 Uani
H1 H 0.4885 -0.4297 0.4394 0.0180 Uiso
C3 C 0.1726(4) 0.1825(4) 0.1669(4) 0.0136 Uani
C4 C 0.1995(4) 0.2224(4) 0.0822(4) 0.0136 Uani
H2 H 0.2455 0.1889 0.0469 0.0160 Uiso
C5 C 0.5004(4) -0.3138(4) 0.3474(4) 0.0176 Uani
O8 O -0.0355(4) 0.3405(4) 0.3126(4) 0.0396 Uani
O9 O 0.2664(4) -0.3637(4) 0.5778(4) 0.0392 Uani
C6 C 0.1076(4) 0.2356(4) 0.2201(4) 0.0123 Uani
H3 H 0.0893 0.2095 0.2786 0.0150 Uiso
O10 O 0.2513(3) 0.3120(4) -0.0878(3) 0.0256 Uani
C7 C 0.3634(4) -0.2040(4) 0.3468(4) 0.0157 Uani
C8 C 0.0949(4) 0.3635(4) 0.1003(4) 0.0157 Uani
H4 H 0.0678 0.4241 0.0769 0.0190 Uiso
C9 C 0.4508(4) -0.2285(5) 0.3140(5) 0.0217 Uani
H5 H 0.4780 -0.1871 0.2679 0.0260 Uiso
C10 C 0.3230(4) -0.2599(5) 0.4165(4) 0.0193 Uani
H6 H 0.2638 -0.2419 0.4398 0.0230 Uiso
C11 C 0.1591(4) 0.3121(4) 0.0484(4) 0.0147 Uani
C12 C 0.0694(4) 0.3268(4) 0.1875(4) 0.0127 Uani
C13 C 0.1845(4) 0.3494(4) -0.0477(4) 0.0160 Uani
C14 C -0.0023(4) 0.3801(5) 0.2438(4) 0.0183 Uani
C15 C 0.3302(5) -0.4004(5) 0.5307(5) 0.0229 Uani
C16 C 0.3719(4) -0.3439(5) 0.4518(4) 0.0183 Uani
Zn1 Zn 0.33592(4) 0.04960(5) 0.16657(4) 0.0114 Uani
Zn2 Zn 0.15203(4) 0.01798(4) 0.29943(4) 0.0081 Uani
O1A O 0.4147(3) 0.1659(3) 0.1891(3) 0.0176 Uani
O4C O 0.3666(3) -0.0119(3) 0.0480(3) 0.0216 Uani
O6C O 0.1325(3) 0.0798(3) 0.4205(3) 0.0185 Uani
O7A O 0.0240(3) -0.0299(3) 0.2852(3) 0.0177 Uani
Zn1A Zn 0.66408(4) -0.45040(5) 0.33343(4) 0.0114 Uani
Zn1C Zn 0.33592(4) -0.54960(5) 0.66657(4) 0.0114 Uani
Zn2A Zn -0.15203(4) 0.51798(4) 0.20057(4) 0.0081 Uani
Zn2C Zn 0.15203(4) 0.48202(4) -0.20057(4) 0.0081 Uani
loop_
_atom_site_aniso_label
_atom_site_aniso_U_11
_atom_site_aniso_U_22
_atom_site_aniso_U_33
_atom_site_aniso_U_23
_atom_site_aniso_U_13
_atom_site_aniso_U_12
N1 0.020(3) 0.052(4) 0.022(3) -0.019(3) 0.013(2) -0.014(3)
C17 0.050(5) 0.067(6) 0.023(4) -0.018(4) 0.008(3) -0.035(5)
C18 0.080(7) 0.034(4) 0.081(7) -0.024(5) -0.053(6) 0.034(5)
N2 0.044(4) 0.035(4) 0.056(5) -0.009(3) 0.014(3) -0.021(3)
C19 0.040(4) 0.031(4) 0.045(5) -0.003(4) 0.011(4) -0.008(3)
C20 0.141(14) 0.059(7) 0.125(13) 0.019(8) -0.099(12) -0.016(9)
O1 0.0130(18) 0.0162(19) 0.024(2) 0.0094(17) 0.0090(15) 0.0080(16)
O2 0.023(2) 0.016(2) 0.024(2) 0.0122(17) 0.0085(16) 0.0069(17)
O3 0.0136(17) 0.0108(17) 0.0134(18) 0.0083(14) 0.0060(14) 0.0030(15)
O4 0.0222(19) 0.018(2) 0.025(2) 0.0118(17) 0.0094(17) 0.0086(18)
O5 0.0156(19) 0.017(2) 0.032(2) 0.0110(18) 0.0020(17) 0.0009(16)
O6 0.028(2) 0.0155(19) 0.0123(19) 0.0075(16) 0.0063(15) 0.0088(17)
O7 0.0140(18) 0.0122(19) 0.027(2) 0.0073(16) 0.0010(15) 0.0045(15)
C1 0.018(3) 0.013(2) 0.016(3) 0.002(2) 0.002(2) 0.006(2)
C2 0.016(3) 0.013(2) 0.016(3) 0.001(2) 0.002(2) 0.004(2)
C3 0.019(2) 0.007(2) 0.015(3) 0.006(2) 0.004(2) 0.001(2)
C4 0.019(2) 0.013(2) 0.009(2) 0.0041(19) 0.0053(19) 0.003(2)
C5 0.014(2) 0.011(2) 0.028(3) 0.006(2) 0.003(2) 0.002(2)
O8 0.042(3) 0.030(3) 0.048(3) 0.020(2) 0.030(3) 0.023(2)
O9 0.042(3) 0.030(3) 0.047(3) 0.027(2) 0.032(3) 0.026(2)
C6 0.013(2) 0.012(2) 0.012(2) 0.003(2) 0.0023(19) 0.006(2)
O10 0.030(2) 0.026(2) 0.021(2) 0.0088(19) 0.0073(18) 0.013(2)
C7 0.019(3) 0.016(3) 0.012(2) 0.004(2) -0.001(2) 0.006(2)
C8 0.021(3) 0.010(2) 0.016(3) 0.003(2) -0.003(2) 0.005(2)
C9 0.022(3) 0.016(3) 0.027(3) 0.009(2) -0.001(2) 0.005(2)
C10 0.017(3) 0.019(3) 0.022(3) 0.008(2) 0.004(2) 0.006(2)
C11 0.021(3) 0.008(2) 0.015(3) 0.003(2) 0.001(2) 0.001(2)
C12 0.015(2) 0.011(2) 0.012(2) 0.0008(19) -0.0001(19) 0.004(2)
C13 0.020(3) 0.015(3) 0.013(3) 0.004(2) 0.001(2) -0.001(2)
C14 0.021(3) 0.016(3) 0.018(3) 0.004(2) 0.003(2) 0.010(2)
C15 0.023(3) 0.018(3) 0.028(3) 0.013(3) 0.007(2) 0.008(2)
C16 0.017(3) 0.015(3) 0.023(3) 0.006(2) 0.002(2) 0.002(2)
Zn1 0.0128(3) 0.0089(3) 0.0127(3) -0.0014(2) 0.0035(2) -0.0005(2)
Zn2 0.0095(3) 0.0058(3) 0.0092(3) 0.0009(2) 0.00200(18) 0.0003(2)
O1A 0.013 0.0162 0.024 -0.0094 0.009 -0.008
O4C 0.0222 0.018 0.025 -0.0118 0.0094 -0.0086
O6C 0.028 0.0155 0.0123 -0.0075 0.0063 -0.0088
O7A 0.014 0.0122 0.027 -0.0073 0.001 -0.0045
Zn1A 0.0128 0.0089 0.0127 0.0014 0.0035 0.0005
Zn1C 0.0128 0.0089 0.0127 0.0014 0.0035 0.0005
Zn2A 0.0095 0.0058 0.0092 -0.0009 0.002 -0.0003
Zn2C 0.0095 0.0058 0.0092 -0.0009 0.002 -0.0003
loop_
_geom_bond_atom_site_label_1
_geom_bond_atom_site_label_2
_geom_bond_site_symmetry_1
_geom_bond_site_symmetry_2
O1 C5 1_555 1_555
O2 C1 1_555 1_555
O3 C3 1_555 1_555
O4 C15 1_555 1_555
O5 C1 1_555 1_555
O6 C13 1_555 1_555
O7 C14 1_555 1_555
C1 C7 1_555 1_555
C2 H1 1_555 1_555
C3 C4 1_555 1_555
C4 H2 1_555 1_555
C5 C2 1_555 1_555
O8 C14 1_555 1_555
O9 C15 1_555 1_555
C6 C3 1_555 1_555
H3 C6 1_555 1_555
O10 C13 1_555 1_555
C7 C9 1_555 1_555
C8 H4 1_555 1_555
C9 C5 1_555 1_555
H5 C9 1_555 1_555
C10 C7 1_555 1_555
H6 C10 1_555 1_555
C11 C4 1_555 1_555
C12 C6 1_555 1_555
C13 C11 1_555 1_555
C14 C12 1_555 1_555
C15 C16 1_555 1_555
C16 C2 1_555 1_555
Zn1 O3 1_555 1_555
Zn2 O2 1_555 1_555
N1 H7 1_555 1_555
H8 N1 1_555 1_555
C17 N1 1_555 1_555
H9 C17 1_555 1_555
H10 C17 1_555 1_555
H11 C17 1_555 1_555
C18 N1 1_555 1_555
H12 C18 1_555 1_555
H13 C18 1_555 1_555
H14 C18 1_555 1_555
N2 H15 1_555 1_555
H16 N2 1_555 1_555
C19 N2 1_555 1_555
H17 C19 1_555 1_555
H18 C19 1_555 1_555
H19 C19 1_555 1_555
C20 N2 1_555 1_555
H20 C20 1_555 1_555
H21 C20 1_555 1_555
H22 C20 1_555 1_555
O1A Zn1 1_555 1_555
O4C Zn1 1_555 1_555
O6C Zn2 1_555 1_555
O7A Zn2 1_555 1_555
Zn1A O1 1_555 1_555
Zn1C O4 1_555 1_555
Zn2A O7 1_555 1_555
Zn2C O6 1_555 1_555
O3 Zn2 1_555 1_555
O5 Zn1 1_555 1_555
C8 C11 1_555 1_555
C8 C12 1_555 1_555
C10 C16 1_555 1_555

#END
