
#######################################################################
#
#                 Cambridge Crystallographic Data Centre
#                                CCDC 
#
#######################################################################
#
# If this CIF has been generated from an entry in the Cambridge 
# Structural Database, then it will include bibliographic, chemical, 
# crystal, experimental, refinement or atomic coordinate data resulting 
# from the CCDC's data processing and validation procedures.
#
#######################################################################

data_RUGXUO
_chemical_formula_moiety         '(C82 H64 N3 O45 Zn8 3-)n'
_symmetry_cell_setting           orthorhombic
_symmetry_space_group_name_H-M   'C m c 21'
_symmetry_Int_Tables_number      36
_space_group_name_Hall           'C 2c -2'
loop_
_symmetry_equiv_pos_site_id
_symmetry_equiv_pos_as_xyz
1 x,y,z
2 -x,-y,1/2+z
3 -x,y,z
4 x,-y,1/2+z
5 1/2+x,1/2+y,z
6 1/2-x,1/2-y,1/2+z
7 1/2-x,1/2+y,z
8 1/2+x,1/2-y,1/2+z
_cell_length_a                   54.076(4)
_cell_length_b                   15.3088(6)
_cell_length_c                   16.0309(6)
_cell_angle_alpha                90
_cell_angle_beta                 90
_cell_angle_gamma                90
_cell_volume                     13271
loop_
_atom_site_label
_atom_site_type_symbol
_atom_site_fract_x
_atom_site_fract_y
_atom_site_fract_z
_atom_site_U_iso_or_equiv
_atom_site_thermal_displace_type
N1 N 0.2055(3) 0.6776(8) 0.3554(8) 0.0370 Uani
C38 C 0.2238(4) 0.6098(12) 0.3348(12) 0.0630 Uiso
H15 H 0.2270 0.5748 0.3833 0.0940 Uiso
H16 H 0.2388 0.6369 0.3165 0.0940 Uiso
H17 H 0.2174 0.5734 0.2910 0.0940 Uiso
C39 C 0.2140(4) 0.7342(12) 0.4256(12) 0.0620 Uiso
H18 H 0.2171 0.6988 0.4739 0.0930 Uiso
H19 H 0.2015 0.7765 0.4383 0.0930 Uiso
H20 H 0.2290 0.7638 0.4098 0.0930 Uiso
C40 C 0.2006(3) 0.7282(11) 0.2823(11) 0.0510 Uiso
H21 H 0.1885 0.7719 0.2949 0.0770 Uiso
H22 H 0.1945 0.6907 0.2390 0.0770 Uiso
H23 H 0.2156 0.7558 0.2639 0.0770 Uiso
C41 C 0.1822(6) 0.6331(19) 0.3855(18) 0.1310 Uiso
H24 H 0.1859 0.5988 0.4341 0.1970 Uiso
H25 H 0.1759 0.5958 0.3423 0.1970 Uiso
H26 H 0.1701 0.6764 0.3993 0.1970 Uiso
N2 N 0.1794(4) 0.8075(11) 0.9602(11) 0.0750 Uani
C42 C 0.1820(5) 0.7593(14) 1.0411(14) 0.0950 Uiso
H27 H 0.1833 0.6978 1.0303 0.1420 Uiso
H28 H 0.1678 0.7703 1.0754 0.1420 Uiso
H29 H 0.1966 0.7789 1.0695 0.1420 Uiso
C43 C 0.1585(4) 0.8708(12) 0.9637(12) 0.0600 Uiso
H30 H 0.1457 0.8528 0.9257 0.0900 Uiso
H31 H 0.1643 0.9279 0.9484 0.0900 Uiso
H32 H 0.1519 0.8726 1.0193 0.0900 Uiso
C44 C 0.2028(5) 0.8627(16) 0.9406(17) 0.1060 Uiso
H33 H 0.2119 0.8353 0.8964 0.1580 Uiso
H34 H 0.2129 0.8665 0.9895 0.1580 Uiso
H35 H 0.1979 0.9203 0.9235 0.1580 Uiso
C45 C 0.1738(5) 0.7433(15) 0.8881(15) 0.0920 Uiso
H36 H 0.1889 0.7175 0.8690 0.1370 Uiso
H37 H 0.1661 0.7743 0.8430 0.1370 Uiso
H38 H 0.1629 0.6983 0.9075 0.1370 Uiso
C46 C 0.1092(7) 0.951(2) 0.685(2) 0.1660 Uiso
H39 H 0.1214 0.9831 0.6543 0.2480 Uiso
H40 H 0.1157 0.9368 0.7394 0.2480 Uiso
H41 H 0.0947 0.9867 0.6917 0.2480 Uiso
N3 N 0.1047(14) 0.894(5) 0.653(4) 0.3600 Uiso
H42 H 0.1200 0.8620 0.6466 0.4370 Uiso
H43 H 0.0995 0.9119 0.5980 0.4370 Uiso
C47 C 0.0869(13) 0.833(4) 0.682(5) 0.3700 Uiso
H44 H 0.0775 0.8123 0.6349 0.5480 Uiso
H45 H 0.0760 0.8612 0.7207 0.5480 Uiso
H46 H 0.0951 0.7853 0.7082 0.5480 Uiso
Zn1 Zn 0.25296(3) 0.93899(9) 0.54909(10) 0.0233 Uani
Zn2 Zn 0.20057(3) 0.94878(9) 0.65008(10) 0.0259 Uani
Zn3 Zn 0.09555(4) 0.67407(12) 0.29350(16) 0.0503 Uani
Zn4 Zn 0.07028(4) 0.84885(13) 0.33811(15) 0.0554 Uani
O1 O 0.1009(2) 0.7787(7) 0.3619(7) 0.0473 Uani
O2 O 0.1643(3) 0.9185(7) 0.1618(7) 0.0637 Uani
O3 O 0.1841(2) 1.0066(6) 0.2464(6) 0.0320 Uani
O4 O 0.1590(3) 0.8512(8) 0.5970(8) 0.0913 Uani
O5 O 0.18693(19) 0.9333(7) 0.5390(6) 0.0370 Uani
O6 O 0.22972(19) 1.0178(5) 0.6154(6) 0.0280 Uani
O7 O 0.2433(2) 1.0439(5) 0.9297(5) 0.0277 Uani
O8 O 0.2723(2) 1.1450(6) 0.9386(6) 0.0463 Uani
O9 O 0.0721(3) 0.8552(8) 0.2173(9) 0.0717 Uani
O10 O 0.0753(4) 1.0338(10) -0.1348(14) 0.1377 Uani
O11 O 0.1349(3) 0.6506(9) 0.2460(9) 0.0793 Uani
O12 O 0.0829(3) 0.7181(7) 0.1827(8) 0.0667 Uani
O13 O 0.0651(2) 0.6339(7) 0.3503(9) 0.0553 Uani
O14 O 0.0449(2) 0.7631(7) 0.3643(8) 0.0517 Uani
O15 O 0.1072(3) 0.5512(8) 0.2722(10) 0.0773 Uani
O16 O 0.2140(2) 0.4462(7) 0.0369(7) 0.0380 Uani
O17 O 0.21648(19) 0.5609(6) 0.1183(6) 0.0310 Uani
O18 O 0.2849(2) 1.3421(6) 0.7001(6) 0.0317 Uani
O19 O 0.2620(2) 1.3228(6) 0.5845(6) 0.0317 Uani
O20 O 0.1480(3) 0.2678(8) 0.2047(10) 0.0870 Uani
O21 O 0.0718(4) 1.0774(10) -0.0095(12) 0.1000 Uani
C1 C 0.1234(3) 0.8233(9) 0.3681(11) 0.0370 Uani
C2 C 0.1344(3) 0.8571(9) 0.2986(10) 0.0270 Uani
H1 H 0.1273 0.8481 0.2465 0.0330 Uiso
C3 C 0.1331(3) 0.8320(10) 0.4452(12) 0.0403 Uani
H2 H 0.1251 0.8088 0.4916 0.0480 Uiso
C4 C 0.1562(3) 0.9053(8) 0.3053(9) 0.0230 Uani
C5 C 0.1556(3) 0.8773(9) 0.4535(9) 0.0300 Uani
C6 C 0.1662(3) 0.9144(9) 0.3862(10) 0.0337 Uani
H3 H 0.1806 0.9470 0.3933 0.0400 Uiso
C7 C 0.1682(3) 0.9435(10) 0.2302(10) 0.0340 Uani
C8 C 0.1683(3) 0.8862(9) 0.5356(10) 0.0310 Uani
C9 C 0.2401(3) 1.0781(8) 0.6709(9) 0.0250 Uiso
C10 C 0.2486(2) 1.1555(8) 0.6360(8) 0.0190 Uiso
H4 H 0.2465 1.1675 0.5796 0.0220 Uiso
C11 C 0.2423(3) 1.0599(8) 0.7516(8) 0.0180 Uiso
H5 H 0.2352 1.0088 0.7722 0.0220 Uiso
C12 C 0.2600(3) 1.2128(9) 0.6874(9) 0.0290 Uiso
C13 C 0.2547(3) 1.1148(8) 0.8059(8) 0.0190 Uiso
C14 C 0.2652(3) 1.1942(8) 0.7723(9) 0.0260 Uiso
H6 H 0.2748 1.2314 0.8048 0.0310 Uiso
C15 C 0.2571(3) 1.1011(10) 0.8957(10) 0.0340 Uiso
C16 C 0.2060(3) 0.4897(12) 0.0937(11) 0.0397 Uani
C17 C 0.1828(3) 0.4678(9) 0.1382(11) 0.0400 Uani
C18 C 0.0461(3) 0.6831(12) 0.3623(10) 0.0393 Uani
C19 C 0.2701(3) 1.3013(9) 0.6530(10) 0.0310 Uiso
C20 C 0.1757(3) 0.3775(9) 0.1448(12) 0.0467 Uani
H7 H 0.1854 0.3351 0.1193 0.0560 Uiso
C21 C 0.0783(4) 0.7956(13) 0.1635(14) 0.0670 Uani
C22 C 0.1675(3) 0.5287(9) 0.1710(9) 0.0323 Uani
H8 H 0.1717 0.5874 0.1660 0.0390 Uiso
C23 C 0.1549(4) 0.3525(12) 0.1879(12) 0.0613 Uani
C24 C 0.1271(4) 0.5734(12) 0.2443(13) 0.0570 Uani
C25 C 0.1458(3) 0.5061(10) 0.2120(10) 0.0427 Uani
C26 C 0.1383(4) 0.4187(12) 0.2180(12) 0.0603 Uani
H9 H 0.1230 0.4040 0.2408 0.0720 Uiso
C27 C 0.0827(6) 0.8200(14) 0.0762(14) 0.1010 Uani
C28 C 0.0760(5) 0.9042(13) 0.0495(16) 0.0837 Uani
H10 H 0.0685 0.9425 0.0867 0.1020 Uiso
C29 C 0.0908(5) 0.7615(13) 0.0185(18) 0.0943 Uani
H11 H 0.0960 0.7065 0.0359 0.1150 Uiso
C30 C 0.0750(5) 1.0232(17) -0.0574(15) 0.0700 Uani
C31 C 0.0917(6) 0.7821(19) -0.065(2) 0.1167 Uani
C32 C 0.0805(8) 0.9297(18) -0.029(2) 0.1433 Uani
O22 O 0.1017(7) 0.7263(18) -0.1280(17) 0.2400 Uani
C33 C 0.0898(8) 0.8704(19) -0.086(2) 0.1600 Uani
H12 H 0.0948 0.8895 -0.1384 0.1880 Uiso
O23 O -0.0000 0.409(3) 0.386(3) 0.1050 Uiso
C34 C -0.0000 0.498(5) 0.383(3) 0.0700 Uiso
C35 C 0.0195(16) 0.546(5) 0.374(4) 0.1300 Uiso
H13 H 0.0337 0.5180 0.3561 0.1600 Uiso
C36 C 0.0217(11) 0.639(4) 0.388(4) 0.0370 Uiso
C37 C 0.0000 0.676(5) 0.369(4) 0.0080 Uiso
H14 H 0.0000 0.7299 0.3416 0.0090 Uiso
O13B O -0.0651(2) 0.6339(7) 0.3503(9) 0.0553 Uani
O14B O -0.0449(2) 0.7631(7) 0.3643(8) 0.0517 Uani
C18B C -0.0461(3) 0.6831(12) 0.3623(10) 0.0393 Uani
C35B C -0.0195(16) 0.546(5) 0.374(4) 0.1300 Uiso
H13B H -0.0337 0.5180 0.3561 0.1600 Uiso
C36B C -0.0217(11) 0.639(4) 0.388(4) 0.0370 Uiso
Zn1B Zn -0.25296(3) 0.93899(9) 0.54909(10) 0.0233 Uani
Zn2B Zn -0.20057(3) 0.94878(9) 0.65008(10) 0.0259 Uani
Zn3B Zn -0.09555(4) 0.67407(12) 0.29350(16) 0.0503 Uani
Zn4B Zn -0.07028(4) 0.84885(13) 0.33811(15) 0.0554 Uani
O1B O -0.1009(2) 0.7787(7) 0.3619(7) 0.0473 Uani
O2B O -0.1643(3) 0.9185(7) 0.1618(7) 0.0637 Uani
O3B O -0.1841(2) 1.0066(6) 0.2464(6) 0.0320 Uani
O4B O -0.1590(3) 0.8512(8) 0.5970(8) 0.0913 Uani
O5B O -0.18693(19) 0.9333(7) 0.5390(6) 0.0370 Uani
O6B O -0.22972(19) 1.0178(5) 0.6154(6) 0.0280 Uani
O7B O -0.2433(2) 1.0439(5) 0.9297(5) 0.0277 Uani
O8B O -0.2723(2) 1.1450(6) 0.9386(6) 0.0463 Uani
O9B O -0.0721(3) 0.8552(8) 0.2173(9) 0.0717 Uani
O10B O -0.0753(4) 1.0338(10) -0.1348(14) 0.1377 Uani
O11B O -0.1349(3) 0.6506(9) 0.2460(9) 0.0793 Uani
O12B O -0.0829(3) 0.7181(7) 0.1827(8) 0.0667 Uani
O15B O -0.1072(3) 0.5512(8) 0.2722(10) 0.0773 Uani
O16B O -0.2140(2) 0.4462(7) 0.0369(7) 0.0380 Uani
O17B O -0.21648(19) 0.5609(6) 0.1183(6) 0.0310 Uani
O18B O -0.2849(2) 1.3421(6) 0.7001(6) 0.0317 Uani
O19B O -0.2620(2) 1.3228(6) 0.5845(6) 0.0317 Uani
O20B O -0.1480(3) 0.2678(8) 0.2047(10) 0.0870 Uani
O21B O -0.0718(4) 1.0774(10) -0.0095(12) 0.1000 Uani
C1B C -0.1234(3) 0.8233(9) 0.3681(11) 0.0370 Uani
C2B C -0.1344(3) 0.8571(9) 0.2986(10) 0.0270 Uani
H1B H -0.1273 0.8481 0.2465 0.0330 Uiso
C3B C -0.1331(3) 0.8320(10) 0.4452(12) 0.0403 Uani
H2B H -0.1251 0.8088 0.4916 0.0480 Uiso
C4B C -0.1562(3) 0.9053(8) 0.3053(9) 0.0230 Uani
C5B C -0.1556(3) 0.8773(9) 0.4535(9) 0.0300 Uani
C6B C -0.1662(3) 0.9144(9) 0.3862(10) 0.0337 Uani
H3B H -0.1806 0.9470 0.3933 0.0400 Uiso
C7B C -0.1682(3) 0.9435(10) 0.2302(10) 0.0340 Uani
C8B C -0.1683(3) 0.8862(9) 0.5356(10) 0.0310 Uani
C9B C -0.2401(3) 1.0781(8) 0.6709(9) 0.0250 Uiso
C10B C -0.2486(2) 1.1555(8) 0.6360(8) 0.0190 Uiso
H4B H -0.2465 1.1675 0.5796 0.0220 Uiso
C11B C -0.2423(3) 1.0599(8) 0.7516(8) 0.0180 Uiso
H5B H -0.2352 1.0088 0.7722 0.0220 Uiso
C12B C -0.2600(3) 1.2128(9) 0.6874(9) 0.0290 Uiso
C13B C -0.2547(3) 1.1148(8) 0.8059(8) 0.0190 Uiso
C14B C -0.2652(3) 1.1942(8) 0.7723(9) 0.0260 Uiso
H6B H -0.2748 1.2314 0.8048 0.0310 Uiso
C15B C -0.2571(3) 1.1011(10) 0.8957(10) 0.0340 Uiso
C16B C -0.2060(3) 0.4897(12) 0.0937(11) 0.0397 Uani
C17B C -0.1828(3) 0.4678(9) 0.1382(11) 0.0400 Uani
C19B C -0.2701(3) 1.3013(9) 0.6530(10) 0.0310 Uiso
C20B C -0.1757(3) 0.3775(9) 0.1448(12) 0.0467 Uani
H7B H -0.1854 0.3351 0.1193 0.0560 Uiso
C21B C -0.0783(4) 0.7956(13) 0.1635(14) 0.0670 Uani
C22B C -0.1675(3) 0.5287(9) 0.1710(9) 0.0323 Uani
H8B H -0.1717 0.5874 0.1660 0.0390 Uiso
C23B C -0.1549(4) 0.3525(12) 0.1879(12) 0.0613 Uani
C24B C -0.1271(4) 0.5734(12) 0.2443(13) 0.0570 Uani
C25B C -0.1458(3) 0.5061(10) 0.2120(10) 0.0427 Uani
C26B C -0.1383(4) 0.4187(12) 0.2180(12) 0.0603 Uani
H9B H -0.1230 0.4040 0.2408 0.0720 Uiso
C27B C -0.0827(6) 0.8200(14) 0.0762(14) 0.1010 Uani
C28B C -0.0760(5) 0.9042(13) 0.0495(16) 0.0837 Uani
H10B H -0.0685 0.9425 0.0867 0.1020 Uiso
C29B C -0.0908(5) 0.7615(13) 0.0185(18) 0.0943 Uani
H11B H -0.0960 0.7065 0.0359 0.1150 Uiso
C30B C -0.0750(5) 1.0232(17) -0.0574(15) 0.0700 Uani
C31B C -0.0917(6) 0.7821(19) -0.065(2) 0.1167 Uani
C32B C -0.0805(8) 0.9297(18) -0.029(2) 0.1433 Uani
O22B O -0.1017(7) 0.7263(18) -0.1280(17) 0.2400 Uani
C33B C -0.0898(8) 0.8704(19) -0.086(2) 0.1600 Uani
H12B H -0.0948 0.8895 -0.1384 0.1880 Uiso
Zn1A Zn -0.25296(3) 1.06101(9) 1.04909(10) 0.0233 Uani
Zn1C Zn 0.25296(3) 1.06101(9) 1.04909(10) 0.0233 Uani
Zn1D Zn -0.24704(3) 1.43899(9) 0.54909(10) 0.0233 Uani
Zn1E Zn 0.24704(3) 0.56101(9) 0.04909(10) 0.0233 Uani
Zn1F Zn 0.24704(3) 1.43899(9) 0.54909(10) 0.0233 Uani
Zn1G Zn -0.24704(3) 0.56101(9) 0.04909(10) 0.0233 Uani
Zn2A Zn -0.20057(3) 1.05122(9) 0.15008(10) 0.0259 Uani
Zn2C Zn 0.20057(3) 1.05122(9) 0.15008(10) 0.0259 Uani
Zn2D Zn -0.29943(3) 1.44878(9) 0.65008(10) 0.0259 Uani
Zn2F Zn 0.29943(3) 1.44878(9) 0.65008(10) 0.0259 Uani
Zn4A Zn -0.07028(4) 1.15115(13) -0.16189(15) 0.0554 Uani
Zn4C Zn 0.07028(4) 1.15115(13) -0.16189(15) 0.0554 Uani
O3A O -0.1841(2) 0.9934(6) 0.7464(6) 0.0320 Uani
O3C O 0.1841(2) 0.9934(6) 0.7464(6) 0.0320 Uani
O7A O -0.2433(2) 0.9561(5) 0.4297(5) 0.0277 Uani
O7C O 0.2433(2) 0.9561(5) 0.4297(5) 0.0277 Uani
O8A O -0.2723(2) 0.8550(6) 0.4386(6) 0.0463 Uani
O8C O 0.2723(2) 0.8550(6) 0.4386(6) 0.0463 Uani
O10A O -0.0753(4) 0.9662(10) 0.3652(14) 0.1377 Uani
O10C O 0.0753(4) 0.9662(10) 0.3652(14) 0.1377 Uani
O16E O 0.2860(2) 1.0538(7) 0.5369(7) 0.0380 Uani
O16G O -0.2860(2) 1.0538(7) 0.5369(7) 0.0380 Uani
O17E O 0.28352(19) 0.9391(6) 0.6183(6) 0.0310 Uani
O17G O -0.28352(19) 0.9391(6) 0.6183(6) 0.0310 Uani
O18D O -0.2151(2) 0.8421(6) 0.7001(6) 0.0317 Uani
O18F O 0.2151(2) 0.8421(6) 0.7001(6) 0.0317 Uani
O19D O -0.2380(2) 0.8228(6) 0.5845(6) 0.0317 Uani
O19F O 0.2380(2) 0.8228(6) 0.5845(6) 0.0317 Uani
loop_
_atom_site_aniso_label
_atom_site_aniso_U_11
_atom_site_aniso_U_22
_atom_site_aniso_U_33
_atom_site_aniso_U_23
_atom_site_aniso_U_13
_atom_site_aniso_U_12
N1 0.042(10) 0.038(7) 0.031(8) 0.004(6) 0.002(7) 0.000(7)
N2 0.092(16) 0.065(11) 0.068(12) 0.011(10) 0.002(11) 0.024(11)
Zn1 0.0340(12) 0.0170(7) 0.0188(8) 0.0020(8) 0.0018(9) 0.0004(7)
Zn2 0.0320(11) 0.0175(7) 0.0282(9) -0.0001(8) 0.0018(9) 0.0019(8)
Zn3 0.0302(13) 0.0358(11) 0.0849(16) -0.0079(11) 0.0147(12) -0.0054(9)
Zn4 0.0388(15) 0.0473(12) 0.0800(16) -0.0067(12) 0.0059(13) -0.0078(11)
O1 0.026(8) 0.037(6) 0.079(9) 0.006(6) 0.003(6) -0.004(5)
O2 0.106(12) 0.062(8) 0.023(7) 0.000(6) 0.019(7) -0.038(8)
O3 0.042(8) 0.035(6) 0.019(5) 0.007(5) 0.004(5) -0.014(6)
O4 0.172(18) 0.055(9) 0.047(9) 0.015(7) -0.014(10) -0.045(10)
O5 0.021(7) 0.062(7) 0.028(6) -0.007(6) -0.006(5) 0.000(6)
O6 0.025(7) 0.018(5) 0.041(7) -0.007(4) 0.007(5) -0.001(5)
O7 0.050(8) 0.016(5) 0.017(5) 0.001(4) 0.002(5) -0.001(5)
O8 0.082(10) 0.029(6) 0.028(6) 0.005(5) -0.007(6) -0.016(6)
O9 0.088(12) 0.033(7) 0.094(11) -0.004(8) -0.005(9) 0.013(7)
O10 0.23(3) 0.049(9) 0.134(18) 0.029(11) -0.004(17) -0.013(11)
O11 0.067(12) 0.048(8) 0.123(13) -0.028(8) 0.021(9) 0.008(7)
O12 0.099(12) 0.027(6) 0.074(9) 0.021(6) -0.006(8) -0.006(7)
O13 0.018(7) 0.048(7) 0.100(10) 0.007(7) 0.016(7) 0.001(6)
O14 0.025(8) 0.043(7) 0.087(10) -0.012(6) 0.008(6) -0.007(6)
O15 0.033(9) 0.070(9) 0.129(13) -0.004(9) 0.049(9) 0.013(7)
O16 0.040(8) 0.049(7) 0.025(6) -0.001(6) 0.003(6) 0.019(6)
O17 0.019(6) 0.042(6) 0.032(6) 0.006(5) 0.000(5) 0.007(5)
O18 0.050(8) 0.021(5) 0.024(6) 0.010(4) -0.007(5) -0.011(5)
O19 0.052(8) 0.020(5) 0.023(6) -0.001(4) -0.003(5) 0.009(5)
O20 0.083(13) 0.051(8) 0.127(13) -0.012(8) 0.049(10) -0.019(8)
O21 0.147(19) 0.052(9) 0.101(13) 0.014(9) 0.029(13) 0.008(10)
C1 0.036(12) 0.021(8) 0.054(12) 0.000(8) 0.015(10) 0.003(8)
C2 0.011(9) 0.037(8) 0.033(9) -0.007(8) 0.000(7) -0.003(6)
C3 0.023(11) 0.039(10) 0.059(13) -0.004(9) 0.014(9) 0.006(8)
C4 0.022(9) 0.020(7) 0.027(9) -0.006(6) 0.004(7) 0.010(6)
C5 0.049(13) 0.020(8) 0.021(9) -0.009(7) 0.012(8) 0.003(8)
C6 0.039(12) 0.020(7) 0.042(10) -0.006(7) 0.005(9) 0.008(7)
C7 0.050(12) 0.028(8) 0.024(9) 0.020(8) 0.013(8) 0.011(9)
C8 0.039(12) 0.017(7) 0.037(11) 0.007(8) 0.000(9) -0.002(7)
C16 0.039(12) 0.047(11) 0.033(11) 0.023(9) -0.012(9) -0.014(10)
C17 0.035(11) 0.028(8) 0.057(12) 0.002(8) 0.003(10) 0.004(7)
C18 0.026(11) 0.047(10) 0.045(11) 0.000(9) 0.012(8) -0.006(9)
C20 0.043(12) 0.022(8) 0.075(13) -0.001(9) 0.019(11) 0.006(7)
C21 0.078(17) 0.043(12) 0.080(17) 0.023(13) -0.021(13) -0.019(11)
C22 0.023(10) 0.030(8) 0.044(11) 0.003(7) 0.013(8) 0.003(7)
C23 0.073(17) 0.045(11) 0.066(13) -0.019(10) 0.031(12) -0.016(11)
C24 0.058(16) 0.030(11) 0.083(15) -0.008(10) -0.004(12) 0.019(10)
C25 0.051(13) 0.034(9) 0.043(10) -0.014(8) 0.013(9) 0.004(9)
C26 0.045(14) 0.054(12) 0.082(15) 0.003(11) 0.006(11) -0.012(10)
C27 0.20(3) 0.042(12) 0.061(16) 0.003(12) -0.004(17) -0.007(16)
C28 0.14(3) 0.052(13) 0.059(15) 0.008(13) -0.009(17) 0.003(13)
C29 0.14(3) 0.043(13) 0.10(2) 0.006(14) 0.059(18) -0.020(14)
C30 0.073(18) 0.09(2) 0.047(15) 0.029(14) 0.004(13) 0.004(14)
C31 0.16(3) 0.08(2) 0.11(3) 0.000(19) 0.04(2) -0.013(19)
C32 0.27(5) 0.070(19) 0.09(2) -0.02(2) 0.01(3) 0.00(2)
O22 0.37(5) 0.19(3) 0.16(2) -0.04(2) 0.06(3) 0.05(3)
C33 0.29(5) 0.08(2) 0.11(2) 0.030(19) 0.02(3) -0.02(3)
O13B 0.018 0.048 0.1 0.007 -0.016 -0.001
O14B 0.025 0.043 0.087 -0.012 -0.008 0.007
C18B 0.026 0.047 0.045 0 -0.012 0.006
Zn1B 0.034 0.017 0.0188 0.002 -0.0018 -0.0004
Zn2B 0.032 0.0175 0.0282 -0.0001 -0.0018 -0.0019
Zn3B 0.0302 0.0358 0.0849 -0.0079 -0.0147 0.0054
Zn4B 0.0388 0.0473 0.08 -0.0067 -0.0059 0.0078
O1B 0.026 0.037 0.079 0.006 -0.003 0.004
O2B 0.106 0.062 0.023 0 -0.019 0.038
O3B 0.042 0.035 0.019 0.007 -0.004 0.014
O4B 0.172 0.055 0.047 0.015 0.014 0.045
O5B 0.021 0.062 0.028 -0.007 0.006 0
O6B 0.025 0.018 0.041 -0.007 -0.007 0.001
O7B 0.05 0.016 0.017 0.001 -0.002 0.001
O8B 0.082 0.029 0.028 0.005 0.007 0.016
O9B 0.088 0.033 0.094 -0.004 0.005 -0.013
O10B 0.23 0.049 0.134 0.029 0.004 0.013
O11B 0.067 0.048 0.123 -0.028 -0.021 -0.008
O12B 0.099 0.027 0.074 0.021 0.006 0.006
O15B 0.033 0.07 0.129 -0.004 -0.049 -0.013
O16B 0.04 0.049 0.025 -0.001 -0.003 -0.019
O17B 0.019 0.042 0.032 0.006 0 -0.007
O18B 0.05 0.021 0.024 0.01 0.007 0.011
O19B 0.052 0.02 0.023 -0.001 0.003 -0.009
O20B 0.083 0.051 0.127 -0.012 -0.049 0.019
O21B 0.147 0.052 0.101 0.014 -0.029 -0.008
C1B 0.036 0.021 0.054 0 -0.015 -0.003
C2B 0.011 0.037 0.033 -0.007 0 0.003
C3B 0.023 0.039 0.059 -0.004 -0.014 -0.006
C4B 0.022 0.02 0.027 -0.006 -0.004 -0.01
C5B 0.049 0.02 0.021 -0.009 -0.012 -0.003
C6B 0.039 0.02 0.042 -0.006 -0.005 -0.008
C7B 0.05 0.028 0.024 0.02 -0.013 -0.011
C8B 0.039 0.017 0.037 0.007 0 0.002
C16B 0.039 0.047 0.033 0.023 0.012 0.014
C17B 0.035 0.028 0.057 0.002 -0.003 -0.004
C20B 0.043 0.022 0.075 -0.001 -0.019 -0.006
C21B 0.078 0.043 0.08 0.023 0.021 0.019
C22B 0.023 0.03 0.044 0.003 -0.013 -0.003
C23B 0.073 0.045 0.066 -0.019 -0.031 0.016
C24B 0.058 0.03 0.083 -0.008 0.004 -0.019
C25B 0.051 0.034 0.043 -0.014 -0.013 -0.004
C26B 0.045 0.054 0.082 0.003 -0.006 0.012
C27B 0.2 0.042 0.061 0.003 0.004 0.007
C28B 0.14 0.052 0.059 0.008 0.009 -0.003
C29B 0.14 0.043 0.1 0.006 -0.059 0.02
C30B 0.073 0.09 0.047 0.029 -0.004 -0.004
C31B 0.16 0.08 0.11 0 -0.04 0.013
C32B 0.27 0.07 0.09 -0.02 -0.01 0
O22B 0.37 0.19 0.16 -0.04 -0.06 -0.05
C33B 0.29 0.08 0.11 0.03 -0.02 0.02
Zn1A 0.034 0.017 0.0188 -0.002 -0.0018 0.0004
Zn1C 0.034 0.017 0.0188 -0.002 0.0018 -0.0004
Zn1D 0.034 0.017 0.0188 0.002 0.0018 0.0004
Zn1E 0.034 0.017 0.0188 -0.002 -0.0018 0.0004
Zn1F 0.034 0.017 0.0188 0.002 -0.0018 -0.0004
Zn1G 0.034 0.017 0.0188 -0.002 0.0018 -0.0004
Zn2A 0.032 0.0175 0.0282 0.0001 -0.0018 0.0019
Zn2C 0.032 0.0175 0.0282 0.0001 0.0018 -0.0019
Zn2D 0.032 0.0175 0.0282 -0.0001 0.0018 0.0019
Zn2F 0.032 0.0175 0.0282 -0.0001 -0.0018 -0.0019
Zn4A 0.0388 0.0473 0.08 0.0067 -0.0059 -0.0078
Zn4C 0.0388 0.0473 0.08 0.0067 0.0059 0.0078
O3A 0.042 0.035 0.019 -0.007 -0.004 -0.014
O3C 0.042 0.035 0.019 -0.007 0.004 0.014
O7A 0.05 0.016 0.017 -0.001 -0.002 -0.001
O7C 0.05 0.016 0.017 -0.001 0.002 0.001
O8A 0.082 0.029 0.028 -0.005 0.007 -0.016
O8C 0.082 0.029 0.028 -0.005 -0.007 0.016
O10A 0.23 0.049 0.134 -0.029 0.004 -0.013
O10C 0.23 0.049 0.134 -0.029 -0.004 0.013
O16E 0.04 0.049 0.025 0.001 -0.003 0.019
O16G 0.04 0.049 0.025 0.001 0.003 -0.019
O17E 0.019 0.042 0.032 -0.006 0 0.007
O17G 0.019 0.042 0.032 -0.006 0 -0.007
O18D 0.05 0.021 0.024 0.01 -0.007 -0.011
O18F 0.05 0.021 0.024 0.01 0.007 0.011
O19D 0.052 0.02 0.023 -0.001 -0.003 0.009
O19F 0.052 0.02 0.023 -0.001 0.003 -0.009
loop_
_geom_bond_atom_site_label_1
_geom_bond_atom_site_label_2
_geom_bond_site_symmetry_1
_geom_bond_site_symmetry_2
Zn1 O6 1_555 1_555
Zn2 O5 1_555 1_555
Zn3 O1 1_555 1_555
Zn4 O1 1_555 1_555
O1 C1 1_555 1_555
O2 C7 1_555 1_555
O3 C7 1_555 1_555
O4 C8 1_555 1_555
O5 C8 1_555 1_555
O6 Zn2 1_555 1_555
O7 C15 1_555 1_555
O8 C15 1_555 1_555
O9 Zn4 1_555 1_555
O10 C30 1_555 1_555
O11 Zn3 1_555 1_555
O12 Zn3 1_555 1_555
O13 Zn3 1_555 1_555
O14 Zn4 1_555 1_555
O15 Zn3 1_555 1_555
O16 C16 1_555 1_555
O17 C16 1_555 1_555
O18 C19 1_555 1_555
O19 C19 1_555 1_555
O20 C23 1_555 1_555
O21 C30 1_555 1_555
C1 C2 1_555 1_555
C2 H1 1_555 1_555
C3 C1 1_555 1_555
H2 C3 1_555 1_555
C4 C2 1_555 1_555
C5 C3 1_555 1_555
C6 C4 1_555 1_555
H3 C6 1_555 1_555
C7 C4 1_555 1_555
C8 C5 1_555 1_555
C9 O6 1_555 1_555
C10 C9 1_555 1_555
H4 C10 1_555 1_555
C11 C9 1_555 1_555
H5 C11 1_555 1_555
C12 C10 1_555 1_555
C13 C11 1_555 1_555
C14 C12 1_555 1_555
H6 C14 1_555 1_555
C15 C13 1_555 1_555
C16 C17 1_555 1_555
C17 C20 1_555 1_555
C18 O13 1_555 1_555
C19 C12 1_555 1_555
C20 H7 1_555 1_555
C21 O9 1_555 1_555
C22 C17 1_555 1_555
H8 C22 1_555 1_555
C23 C20 1_555 1_555
C24 O11 1_555 1_555
C25 C22 1_555 1_555
C26 C23 1_555 1_555
H9 C26 1_555 1_555
C27 C21 1_555 1_555
C28 C27 1_555 1_555
H10 C28 1_555 1_555
C29 C27 1_555 1_555
H11 C29 1_555 1_555
C30 C32 1_555 1_555
C31 C29 1_555 1_555
C32 C28 1_555 1_555
O22 C31 1_555 1_555
C33 C31 1_555 1_555
H12 C33 1_555 1_555
O23 C34 1_555 1_555
C34 C35 1_555 1_555
C35 H13 1_555 1_555
C36 C18 1_555 1_555
C37 C36 1_555 1_555
H14 C37 1_555 1_555
N1 C38 1_555 1_555
C38 H15 1_555 1_555
H16 C38 1_555 1_555
H17 C38 1_555 1_555
C39 N1 1_555 1_555
H18 C39 1_555 1_555
H19 C39 1_555 1_555
H20 C39 1_555 1_555
C40 N1 1_555 1_555
H21 C40 1_555 1_555
H22 C40 1_555 1_555
H23 C40 1_555 1_555
C41 N1 1_555 1_555
H24 C41 1_555 1_555
H25 C41 1_555 1_555
H26 C41 1_555 1_555
N2 C42 1_555 1_555
C42 H27 1_555 1_555
H28 C42 1_555 1_555
H29 C42 1_555 1_555
C43 N2 1_555 1_555
H30 C43 1_555 1_555
H31 C43 1_555 1_555
H32 C43 1_555 1_555
C44 N2 1_555 1_555
H33 C44 1_555 1_555
H34 C44 1_555 1_555
H35 C44 1_555 1_555
C45 N2 1_555 1_555
H36 C45 1_555 1_555
H37 C45 1_555 1_555
H38 C45 1_555 1_555
C46 H39 1_555 1_555
H40 C46 1_555 1_555
H41 C46 1_555 1_555
N3 C46 1_555 1_555
H42 N3 1_555 1_555
H43 N3 1_555 1_555
C47 N3 1_555 1_555
H44 C47 1_555 1_555
H45 C47 1_555 1_555
H46 C47 1_555 1_555
O13B C18B 1_555 1_555
O14B C18B 1_555 1_555
C18B C36B 1_555 1_555
C35B C34 1_555 1_555
H13B C35B 1_555 1_555
C36B C37 1_555 1_555
Zn1B O6B 1_555 1_555
Zn2B O5B 1_555 1_555
Zn3B O13B 1_555 1_555
Zn4B O14B 1_555 1_555
O1B Zn3B 1_555 1_555
O2B C7B 1_555 1_555
O3B C7B 1_555 1_555
O4B C8B 1_555 1_555
O5B C8B 1_555 1_555
O6B Zn2B 1_555 1_555
O7B C15B 1_555 1_555
O8B C15B 1_555 1_555
O9B Zn4B 1_555 1_555
O10B C30B 1_555 1_555
O11B Zn3B 1_555 1_555
O12B Zn3B 1_555 1_555
O15B Zn3B 1_555 1_555
O16B C16B 1_555 1_555
O17B C16B 1_555 1_555
O18B C19B 1_555 1_555
O19B C19B 1_555 1_555
O20B C23B 1_555 1_555
O21B C30B 1_555 1_555
C1B O1B 1_555 1_555
C2B C1B 1_555 1_555
H1B C2B 1_555 1_555
C3B C1B 1_555 1_555
H2B C3B 1_555 1_555
C4B C2B 1_555 1_555
C5B C3B 1_555 1_555
C6B C4B 1_555 1_555
H3B C6B 1_555 1_555
C7B C4B 1_555 1_555
C8B C5B 1_555 1_555
C9B O6B 1_555 1_555
C10B C9B 1_555 1_555
H4B C10B 1_555 1_555
C11B C9B 1_555 1_555
H5B C11B 1_555 1_555
C12B C10B 1_555 1_555
C13B C11B 1_555 1_555
C14B C12B 1_555 1_555
H6B C14B 1_555 1_555
C15B C13B 1_555 1_555
C16B C17B 1_555 1_555
C17B C20B 1_555 1_555
C19B C12B 1_555 1_555
C20B H7B 1_555 1_555
C21B O9B 1_555 1_555
C22B C17B 1_555 1_555
H8B C22B 1_555 1_555
C23B C20B 1_555 1_555
C24B O11B 1_555 1_555
C25B C22B 1_555 1_555
C26B C23B 1_555 1_555
H9B C26B 1_555 1_555
C27B C21B 1_555 1_555
C28B C27B 1_555 1_555
H10B C28B 1_555 1_555
C29B C27B 1_555 1_555
H11B C29B 1_555 1_555
C30B C32B 1_555 1_555
C31B C29B 1_555 1_555
C32B C28B 1_555 1_555
O22B C31B 1_555 1_555
C33B C31B 1_555 1_555
H12B C33B 1_555 1_555
Zn1A O7B 1_555 1_555
Zn1C O7 1_555 1_555
Zn1D O19B 1_555 1_555
Zn1E O16 1_555 1_555
Zn1F O19 1_555 1_555
Zn1G O16B 1_555 1_555
Zn2A O3B 1_555 1_555
Zn2C O3 1_555 1_555
Zn2D O18B 1_555 1_555
Zn2F O18 1_555 1_555
Zn4A O10B 1_555 1_555
Zn4C O10 1_555 1_555
O3A Zn2B 1_555 1_555
O3C Zn2 1_555 1_555
O7A Zn1B 1_555 1_555
O7C Zn1 1_555 1_555
O8A Zn1B 1_555 1_555
O8C Zn1 1_555 1_555
O10A Zn4B 1_555 1_555
O10C Zn4 1_555 1_555
O16E Zn1 1_555 1_555
O16G Zn1B 1_555 1_555
O17E Zn1 1_555 1_555
O17G Zn1B 1_555 1_555
O18D Zn2B 1_555 1_555
O18F Zn2 1_555 1_555
O19D Zn1B 1_555 1_555
O19F Zn1 1_555 1_555
O8 Zn1C 1_555 1_555
O12 C21 1_555 1_555
O14 C18 1_555 1_555
O15 C24 1_555 1_555
O17 Zn1E 1_555 1_555
C5 C6 1_555 1_555
C13 C14 1_555 1_555
C24 C25 1_555 1_555
C25 C26 1_555 1_555
C32 C33 1_555 1_555
C35 C36 1_555 1_555
C35B C36B 1_555 1_555
Zn4B O1B 1_555 1_555
O8B Zn1A 1_555 1_555
O12B C21B 1_555 1_555
O15B C24B 1_555 1_555
O17B Zn1G 1_555 1_555
C5B C6B 1_555 1_555
C13B C14B 1_555 1_555
C24B C25B 1_555 1_555
C25B C26B 1_555 1_555
C32B C33B 1_555 1_555

#END
