
#######################################################################
#
#                 Cambridge Crystallographic Data Centre
#                                CCDC 
#
#######################################################################
#
# If this CIF has been generated from an entry in the Cambridge 
# Structural Database, then it will include bibliographic, chemical, 
# crystal, experimental, refinement or atomic coordinate data resulting 
# from the CCDC's data processing and validation procedures.
#
#######################################################################

data_IJEXIF01
_chemical_formula_moiety         '(C34 H45 N1 O14 Zn3)n'
_symmetry_cell_setting           orthorhombic
_symmetry_space_group_name_H-M   'P b c a'
_symmetry_Int_Tables_number      61
_space_group_name_Hall           '-P 2ac 2ab'
loop_
_symmetry_equiv_pos_site_id
_symmetry_equiv_pos_as_xyz
1 x,y,z
2 1/2-x,-y,1/2+z
3 1/2+x,1/2-y,-z
4 -x,1/2+y,1/2-z
5 -x,-y,-z
6 1/2+x,y,1/2-z
7 1/2-x,1/2+y,z
8 x,1/2-y,1/2+z
_cell_length_a                   16.295(5)
_cell_length_b                   16.295(5)
_cell_length_c                   28.946(5)
_cell_angle_alpha                90
_cell_angle_beta                 90
_cell_angle_gamma                90
_cell_volume                     7685.95
loop_
_atom_site_label
_atom_site_type_symbol
_atom_site_fract_x
_atom_site_fract_y
_atom_site_fract_z
_atom_site_U_iso_or_equiv
_atom_site_thermal_displace_type
C1 C 0.76518(19) 0.3324(2) 0.57153(11) 0.0240 Uani
C2 C 0.72626(19) 0.2998(2) 0.53324(11) 0.0251 Uani
H1 H 0.7475 0.2534 0.5188 0.0300 Uiso
C3 C 0.65577(19) 0.3364(2) 0.51636(11) 0.0224 Uani
C4 C 0.62623(19) 0.4065(2) 0.53724(11) 0.0235 Uani
H2 H 0.5783 0.4305 0.5262 0.0280 Uiso
C5 C 0.6665(2) 0.4418(2) 0.57412(11) 0.0240 Uani
C6 C 0.7354(2) 0.4038(2) 0.59158(11) 0.0267 Uani
H3 H 0.7621 0.4262 0.6170 0.0320 Uiso
C7 C 0.8392(2) 0.2900(2) 0.59169(12) 0.0251 Uani
C8 C 0.6116(2) 0.3057(2) 0.47464(11) 0.0229 Uani
C9 C 0.6355(2) 0.5218(2) 0.59296(13) 0.0333 Uani
C10 C 0.9004(2) 0.0957(2) 0.76805(11) 0.0231 Uani
C11 C 0.92903(19) 0.0206(2) 0.78223(11) 0.0246 Uani
H4 H 0.9737 -0.0029 0.7672 0.0300 Uiso
C12 C 0.89223(19) -0.0204(2) 0.81857(11) 0.0225 Uani
C13 C 0.82612(19) 0.0157(2) 0.84119(11) 0.0255 Uani
H5 H 0.8012 -0.0113 0.8658 0.0310 Uiso
C14 C 0.79740(19) 0.0912(2) 0.82739(11) 0.0246 Uani
C15 C 0.83441(19) 0.1305(2) 0.79074(11) 0.0240 Uani
H6 H 0.8146 0.1813 0.7811 0.0290 Uiso
C16 C 0.9409(2) 0.1396(2) 0.72901(12) 0.0273 Uani
C17 C 0.9225(2) -0.1027(2) 0.83342(11) 0.0246 Uani
C18 C 0.7268(2) 0.1304(2) 0.85213(12) 0.0278 Uani
O1 O 0.87184(14) 0.23552(16) 0.56768(8) 0.0362 Uani
O2 O 0.86264(14) 0.31397(16) 0.63058(8) 0.0355 Uani
O3 O 0.64976(14) 0.25944(15) 0.44788(8) 0.0305 Uani
O4 O 0.53918(13) 0.32934(16) 0.46956(8) 0.0337 Uani
O5 O 0.57056(17) 0.54736(18) 0.57447(10) 0.0531 Uani
O6 O 0.67374(17) 0.55794(17) 0.62306(10) 0.0531 Uani
O7 O 0.91524(14) 0.21258(14) 0.72211(8) 0.0295 Uani
O8 O 0.99505(16) 0.10514(16) 0.70684(9) 0.0431 Uani
O9 O 0.98565(14) -0.12995(15) 0.81338(8) 0.0316 Uani
O10 O 0.88317(14) -0.13893(14) 0.86430(8) 0.0316 Uani
O11 O 0.71941(14) 0.20737(15) 0.84644(8) 0.0329 Uani
O12 O 0.68018(16) 0.09061(16) 0.87645(9) 0.0469 Uani
O13 O 1.02002(12) 0.19730(13) 0.63449(7) 0.0184 Uani
H43 H 1.0246 0.1607 0.6588 0.0220 Uiso
Zn1 Zn 0.95951(2) 0.15787(2) 0.580582(13) 0.0217 Uani
Zn2 Zn 0.95001(2) 0.27515(2) 0.669671(12) 0.0193 Uani
Zn3 Zn 0.62713(2) 0.25505(2) 0.381910(13) 0.0209 Uani
O4B O 1.03918(13) 0.17066(16) 0.53044(8) 0.0337 Uani
O5F O 0.92944(17) 0.04736(18) 0.57447(10) 0.0531 Uani
O9C O 1.01435(14) 0.37005(15) 0.68662(8) 0.0316 Uani
O10A O 0.61683(14) 0.13893(14) 0.36430(8) 0.0316 Uani
O11G O 0.71941(14) 0.29263(15) 0.34644(8) 0.0329 Uani
O13B O 0.52002(12) 0.30270(13) 0.36551(7) 0.0184 Uani
H43B H 0.5246 0.3393 0.3412 0.0220 Uiso
Zn1B Zn 0.45951(2) 0.34213(2) 0.419418(13) 0.0217 Uani
Zn1F Zn 0.54049(2) 0.65787(2) 0.580582(13) 0.0217 Uani
Zn2C Zn 1.04999(2) -0.22485(2) 0.830329(12) 0.0193 Uani
Zn3A Zn 0.87287(2) -0.25505(2) 0.881910(13) 0.0209 Uani
Zn3G Zn 0.62713(2) 0.24495(2) 0.881910(13) 0.0209 Uani
Zn3B Zn 1.12713(2) 0.24495(2) 0.618090(13) 0.0209 Uani
C19 C 0.8723(2) 0.3453(3) 0.82377(14) 0.0457 Uani
H7 H 0.8856 0.3017 0.8022 0.0550 Uiso
H8 H 0.8161 0.3366 0.8337 0.0550 Uiso
C20 C 0.8758(3) 0.4257(3) 0.79796(15) 0.0527 Uani
H9 H 0.8596 0.4701 0.8183 0.0630 Uiso
H10 H 0.9316 0.4360 0.7878 0.0630 Uiso
C21 C 0.81928(19) 0.4232(2) 0.75671(12) 0.0640 Uani
H11 H 0.7634 0.4147 0.7672 0.0770 Uiso
H12 H 0.8342 0.3772 0.7371 0.0770 Uiso
C22 C 0.82376(19) 0.5032(2) 0.72833(12) 0.0887 Uani
H13 H 0.8231 0.5494 0.7489 0.1330 Uiso
H14 H 0.7775 0.5062 0.7079 0.1330 Uiso
H15 H 0.8735 0.5038 0.7106 0.1330 Uiso
C23 C 1.0164(2) 0.3513(3) 0.85266(15) 0.0590 Uani
H16 H 1.0504 0.3435 0.8798 0.0700 Uiso
H17 H 1.0220 0.4082 0.8432 0.0700 Uiso
C24 C 1.0494(3) 0.2962(4) 0.81374(18) 0.0783 Uani
H18 H 1.0380 0.2393 0.8212 0.0940 Uiso
H19 H 1.0209 0.3092 0.7853 0.0940 Uiso
C25 C 1.1379(2) 0.3062(3) 0.80653(17) 0.1077 Uani
H20 H 1.1662 0.2968 0.8356 0.1290 Uiso
H21 H 1.1489 0.3622 0.7970 0.1290 Uiso
C26 C 1.1714(2) 0.2487(3) 0.77085(17) 0.1367 Uani
H22 H 1.1587 0.1932 0.7793 0.2050 Uiso
H23 H 1.2299 0.2552 0.7689 0.2050 Uiso
H24 H 1.1472 0.2609 0.7414 0.2050 Uiso
C27 C 0.9169(3) 0.2499(3) 0.88305(16) 0.0543 Uani
H25 H 0.9338 0.2125 0.8588 0.0650 Uiso
H26 H 0.8589 0.2408 0.8886 0.0650 Uiso
C28 C 0.9637(3) 0.2281(3) 0.92683(17) 0.0727 Uani
H27 H 1.0222 0.2279 0.9208 0.0870 Uiso
H28 H 0.9525 0.2683 0.9507 0.0870 Uiso
C29 C 0.9361(3) 0.1441(3) 0.94246(19) 0.1320 Uani
H29 H 0.9478 0.1044 0.9184 0.1580 Uiso
H30 H 0.8772 0.1446 0.9475 0.1580 Uiso
C30 C 0.9790(3) 0.1180(3) 0.98675(19) 0.1720 Uani
H31 H 1.0347 0.1371 0.9864 0.2580 Uiso
H32 H 0.9785 0.0592 0.9891 0.2580 Uiso
H33 H 0.9508 0.1411 1.0128 0.2580 Uiso
C31 C 0.9052(2) 0.3982(3) 0.90251(14) 0.0470 Uani
H34 H 0.9461 0.3962 0.9268 0.0570 Uiso
H35 H 0.9072 0.4526 0.8889 0.0570 Uiso
C32 C 0.8221(2) 0.3864(3) 0.92395(14) 0.0450 Uani
H36 H 0.8185 0.3318 0.9372 0.0540 Uiso
H37 H 0.7800 0.3913 0.9004 0.0540 Uiso
C33 C 0.8077(2) 0.4499(2) 0.96125(11) 0.0590 Uani
H38 H 0.8159 0.5041 0.9482 0.0710 Uiso
H39 H 0.8481 0.4423 0.9855 0.0710 Uiso
C34 C 0.7220(2) 0.4457(2) 0.98250(11) 0.0803 Uani
H40 H 0.6815 0.4491 0.9585 0.1200 Uiso
H41 H 0.7148 0.4906 1.0036 0.1200 Uiso
H42 H 0.7158 0.3948 0.9988 0.1200 Uiso
N1 N 0.92799(19) 0.3363(2) 0.86590(11) 0.0427 Uani
O14 O 0.1549(8) 0.1219(9) 0.8850(4) 0.0830 Uani
loop_
_atom_site_aniso_label
_atom_site_aniso_U_11
_atom_site_aniso_U_22
_atom_site_aniso_U_33
_atom_site_aniso_U_23
_atom_site_aniso_U_13
_atom_site_aniso_U_12
C1 0.0221(17) 0.025(2) 0.0250(18) 0.0001(15) -0.0026(14) 0.0056(15)
C2 0.0276(19) 0.024(2) 0.0238(18) -0.0047(15) -0.0031(15) 0.0059(15)
C3 0.0214(17) 0.0221(19) 0.0237(18) -0.0010(15) -0.0029(14) 0.0008(14)
C4 0.0193(17) 0.025(2) 0.0261(18) 0.0023(15) -0.0005(14) 0.0038(15)
C5 0.0257(18) 0.024(2) 0.0222(18) -0.0034(15) -0.0021(14) 0.0044(15)
C6 0.0288(19) 0.029(2) 0.0223(18) -0.0051(16) -0.0047(15) 0.0036(16)
C7 0.0239(18) 0.025(2) 0.0265(19) 0.0027(16) -0.0032(15) 0.0037(15)
C8 0.0271(19) 0.0205(19) 0.0212(18) 0.0029(15) -0.0043(14) -0.0002(15)
C9 0.039(2) 0.025(2) 0.036(2) -0.0082(17) -0.0047(17) 0.0037(17)
C10 0.0270(18) 0.0190(19) 0.0233(18) 0.0050(15) 0.0033(14) 0.0021(14)
C11 0.0234(18) 0.024(2) 0.0265(19) 0.0038(15) 0.0067(14) 0.0051(15)
C12 0.0229(18) 0.0184(19) 0.0262(19) 0.0027(15) 0.0007(14) 0.0025(14)
C13 0.0266(19) 0.022(2) 0.028(2) 0.0054(15) 0.0049(15) 0.0014(15)
C14 0.0234(18) 0.022(2) 0.0283(19) 0.0021(16) 0.0033(14) 0.0026(14)
C15 0.0269(18) 0.0178(19) 0.0272(19) 0.0044(15) 0.0007(15) 0.0031(14)
C16 0.030(2) 0.023(2) 0.029(2) 0.0059(16) 0.0035(16) 0.0045(15)
C17 0.0287(19) 0.0195(19) 0.0256(19) 0.0001(15) -0.0025(15) -0.0021(15)
C18 0.0264(19) 0.024(2) 0.033(2) 0.0012(17) 0.0007(16) 0.0042(16)
O1 0.0314(14) 0.0412(17) 0.0361(14) -0.0106(13) -0.0088(11) 0.0195(12)
O2 0.0377(15) 0.0389(17) 0.0298(14) -0.0074(12) -0.0170(11) 0.0149(12)
O3 0.0377(14) 0.0286(15) 0.0252(13) -0.0093(11) -0.0107(11) 0.0103(11)
O4 0.0231(13) 0.0478(18) 0.0303(14) -0.0062(12) -0.0091(11) 0.0050(12)
O5 0.0554(13) 0.0365(13) 0.0674(14) -0.0241(11) -0.0221(11) 0.0197(10)
O6 0.0554(13) 0.0365(13) 0.0674(14) -0.0241(11) -0.0221(11) 0.0197(10)
O7 0.0387(14) 0.0203(14) 0.0295(14) 0.0088(11) 0.0108(11) 0.0043(11)
O8 0.0517(17) 0.0348(17) 0.0428(16) 0.0201(13) 0.0261(13) 0.0208(13)
O9 0.0312(14) 0.0268(15) 0.0367(15) 0.0098(12) 0.0079(11) 0.0121(11)
O10 0.0410(15) 0.0190(14) 0.0348(14) 0.0104(11) 0.0127(12) 0.0014(11)
O11 0.0316(14) 0.0227(15) 0.0445(16) 0.0060(12) 0.0121(11) 0.0056(11)
O12 0.0440(16) 0.0316(17) 0.065(2) 0.0127(15) 0.0315(14) 0.0041(13)
O13 0.0187(11) 0.0167(12) 0.0199(11) 0.0023(10) -0.0016(9) 0.0021(9)
Zn1 0.01888(19) 0.0196(2) 0.0266(2) -0.00610(17) 0.00158(16) -0.00071(16)
Zn2 0.02036(19) 0.0173(2) 0.0202(2) 0.00052(16) -0.00066(15) 0.00008(16)
Zn3 0.01865 0.021 0.0231 -0.00463 0.00087 -0.00059
O4B 0.0231 0.0478 0.0303 -0.0062 0.0091 -0.005
O5F 0.0554 0.0365 0.0674 -0.0241 0.0221 -0.0197
O9C 0.0312 0.0268 0.0367 -0.0098 0.0079 -0.0121
O10A 0.041 0.019 0.0348 -0.0104 -0.0127 0.0014
O11G 0.0316 0.0227 0.0445 -0.006 0.0121 -0.0056
O13B 0.0187 0.0167 0.0199 0.0023 0.0016 -0.0021
Zn1B 0.01888 0.0196 0.0266 -0.0061 -0.00158 0.00071
Zn1F 0.01888 0.0196 0.0266 -0.0061 -0.00158 0.00071
Zn2C 0.02036 0.0173 0.0202 -0.00052 -0.00066 -8e-05
Zn3A 0.01865 0.021 0.0231 0.00463 -0.00087 -0.00059
Zn3G 0.01865 0.021 0.0231 0.00463 0.00087 0.00059
Zn3B 0.01865(19) 0.0210(2) 0.0231(2) -0.00463(17) -0.00087(16) 0.00059(16)
C19 0.041(2) 0.049(3) 0.047(3) -0.014(2) -0.005(2) -0.009(2)
C20 0.047(3) 0.052(3) 0.059(3) -0.005(2) 0.004(2) -0.008(2)
C21 0.058(3) 0.073(4) 0.061(3) -0.013(3) -0.001(3) 0.006(3)
C22 0.091(4) 0.103(5) 0.072(4) 0.019(4) 0.002(3) 0.023(4)
C23 0.037(3) 0.076(4) 0.064(3) -0.023(3) -0.005(2) -0.011(2)
C24 0.049(3) 0.099(5) 0.087(4) -0.042(4) 0.003(3) -0.002(3)
C25 0.062(4) 0.137(7) 0.124(5) -0.057(5) 0.031(4) -0.019(4)
C26 0.101(5) 0.134(7) 0.175(7) -0.084(6) 0.060(5) -0.015(5)
C27 0.060(3) 0.039(3) 0.064(3) -0.010(2) -0.015(2) -0.002(2)
C28 0.079(4) 0.052(3) 0.087(4) -0.011(3) -0.035(3) 0.003(3)
C29 0.202 0.067 0.127 -0.027 -0.102 0.015
C30 0.229(9) 0.096(7) 0.191(9) 0.030(6) -0.073(7) 0.001(6)
C31 0.055(3) 0.042(3) 0.044(3) -0.014(2) -0.008(2) -0.008(2)
C32 0.047(3) 0.040(3) 0.048(3) -0.004(2) -0.004(2) 0.001(2)
C33 0.078(3) 0.054(3) 0.045(3) -0.009(2) -0.002(2) -0.005(3)
C34 0.088(4) 0.081(5) 0.072(4) -0.017(3) 0.017(3) 0.007(3)
N1 0.0382(19) 0.041(2) 0.049(2) -0.0132(18) -0.0052(16) -0.0068(16)
O14 0.083 0.087 0.079 -0.012 -0.013 0.064
loop_
_geom_bond_atom_site_label_1
_geom_bond_atom_site_label_2
_geom_bond_site_symmetry_1
_geom_bond_site_symmetry_2
C1 C2 1_555 1_555
C2 H1 1_555 1_555
C3 C2 1_555 1_555
C4 C3 1_555 1_555
H2 C4 1_555 1_555
C5 C4 1_555 1_555
C6 C1 1_555 1_555
H3 C6 1_555 1_555
C7 C1 1_555 1_555
C8 C3 1_555 1_555
C9 C5 1_555 1_555
C10 C11 1_555 1_555
C11 H4 1_555 1_555
C12 C11 1_555 1_555
C13 C12 1_555 1_555
H5 C13 1_555 1_555
C14 C13 1_555 1_555
C15 C10 1_555 1_555
H6 C15 1_555 1_555
C16 C10 1_555 1_555
C17 C12 1_555 1_555
C18 C14 1_555 1_555
C19 H7 1_555 1_555
H8 C19 1_555 1_555
C20 C19 1_555 1_555
H9 C20 1_555 1_555
H10 C20 1_555 1_555
C21 C20 1_555 1_555
H11 C21 1_555 1_555
H12 C21 1_555 1_555
C22 C21 1_555 1_555
H13 C22 1_555 1_555
H14 C22 1_555 1_555
H15 C22 1_555 1_555
C23 H16 1_555 1_555
H17 C23 1_555 1_555
C24 C23 1_555 1_555
H18 C24 1_555 1_555
H19 C24 1_555 1_555
C25 C24 1_555 1_555
H20 C25 1_555 1_555
H21 C25 1_555 1_555
C26 C25 1_555 1_555
H22 C26 1_555 1_555
H23 C26 1_555 1_555
H24 C26 1_555 1_555
C27 H25 1_555 1_555
H26 C27 1_555 1_555
C28 C27 1_555 1_555
H27 C28 1_555 1_555
H28 C28 1_555 1_555
C29 C28 1_555 1_555
H29 C29 1_555 1_555
H30 C29 1_555 1_555
C30 C29 1_555 1_555
H31 C30 1_555 1_555
H32 C30 1_555 1_555
H33 C30 1_555 1_555
C31 H34 1_555 1_555
H35 C31 1_555 1_555
C32 C31 1_555 1_555
H36 C32 1_555 1_555
H37 C32 1_555 1_555
C33 C32 1_555 1_555
H38 C33 1_555 1_555
H39 C33 1_555 1_555
C34 C33 1_555 1_555
H40 C34 1_555 1_555
H41 C34 1_555 1_555
H42 C34 1_555 1_555
N1 C19 1_555 1_555
O1 C7 1_555 1_555
O2 C7 1_555 1_555
O3 C8 1_555 1_555
O4 C8 1_555 1_555
O5 C9 1_555 1_555
O6 C9 1_555 1_555
O7 C16 1_555 1_555
O8 C16 1_555 1_555
O9 C17 1_555 1_555
O10 C17 1_555 1_555
O11 C18 1_555 1_555
O12 C18 1_555 1_555
O13 H43 1_555 1_555
Zn1 O1 1_555 1_555
Zn2 O2 1_555 1_555
Zn3 O3 1_555 1_555
O4B Zn1 1_555 1_555
O5F Zn1 1_555 1_555
O9C Zn2 1_555 1_555
O10A Zn3 1_555 1_555
O11G Zn3 1_555 1_555
O13B Zn3 1_555 1_555
H43B O13B 1_555 1_555
Zn1B O4 1_555 1_555
Zn1F O5 1_555 1_555
Zn2C O9 1_555 1_555
Zn3A O10 1_555 1_555
Zn3G O11 1_555 1_555
Zn3B O13 1_555 1_555
C5 C6 1_555 1_555
C14 C15 1_555 1_555
C23 N1 1_555 1_555
C27 N1 1_555 1_555
C31 N1 1_555 1_555
O7 Zn2 1_555 1_555
O13 Zn1 1_555 1_555
O13 Zn2 1_555 1_555
O13B Zn1B 1_555 1_555

#END
