
#######################################################################
#
#                 Cambridge Crystallographic Data Centre
#                                CCDC 
#
#######################################################################
#
# If this CIF has been generated from an entry in the Cambridge 
# Structural Database, then it will include bibliographic, chemical, 
# crystal, experimental, refinement or atomic coordinate data resulting 
# from the CCDC's data processing and validation procedures.
#
#######################################################################

data_GUVBEF
_chemical_formula_moiety         '(C2 H8 N4 Ni3 O29 P4 W4)n'
_symmetry_cell_setting           tetragonal
_symmetry_space_group_name_H-M   'I 41/a'
_symmetry_Int_Tables_number      88
_space_group_name_Hall           '-I 4ad'
loop_
_symmetry_equiv_pos_site_id
_symmetry_equiv_pos_as_xyz
1 x,y,z
2 1/2-x,-y,1/2+z
3 3/4-y,1/4+x,1/4+z
4 3/4+y,3/4-x,3/4+z
5 1/2+x,1/2+y,1/2+z
6 -x,1/2-y,z
7 1/4-y,3/4+x,3/4+z
8 1/4+y,1/4-x,1/4+z
9 -x,-y,-z
10 1/2+x,y,1/2-z
11 1/4+y,3/4-x,3/4-z
12 1/4-y,1/4+x,1/4-z
13 1/2-x,1/2-y,1/2-z
14 x,1/2+y,-z
15 3/4+y,1/4-x,1/4-z
16 3/4-y,3/4+x,3/4-z
_cell_length_a                   17.0531(12)
_cell_length_b                   17.0531(12)
_cell_length_c                   10.7397(15)
_cell_angle_alpha                90
_cell_angle_beta                 90
_cell_angle_gamma                90
_cell_volume                     3123.19
loop_
_atom_site_label
_atom_site_type_symbol
_atom_site_fract_x
_atom_site_fract_y
_atom_site_fract_z
O1 O 0.3558(9) 0.4145(9) 0.2479(15)
W1 W 0.33813(2) 0.94138(2) -0.80660(4)
Ni1 Ni 0.5000 0.7500 -0.3750
Ni2 Ni 0.2500 0.7500 -0.7500
P1 P 0.36522(15) 0.83297(15) -0.5538(2)
O2 O 0.4268(4) 0.9311(4) -0.8920(6)
O3 O 0.2503(4) 0.9665(4) -0.6683(7)
O4 O 0.2930(4) 0.8503(4) -0.8351(6)
O5 O 0.3926(4) 0.8948(4) -0.6514(6)
O6 O 0.3401(4) 0.7575(4) -0.6169(6)
O7 O 0.2957(4) 0.8685(4) -0.4789(6)
O8 O 0.4341(4) 0.8215(4) -0.4658(7)
W1E W 0.66187(2) 0.55862(2) -0.80660(4)
W1K W 0.30862(2) 0.58813(2) 0.05660(4)
W1N W 0.69138(2) 0.91187(2) 0.05660(4)
W1G W 0.19138(2) 0.91187(2) -0.55660(4)
W1B W 0.80862(2) 0.58813(2) -0.55660(4)
W1M W 0.33813(2) 0.44138(2) -0.19340(4)
W1H W 0.66187(2) 1.05862(2) -0.19340(4)
W1F W 0.30862(2) 1.08813(2) -1.05660(4)
W1K_2 W 0.30862(2) 0.58813(2) -0.94340(4)
W1L W 0.16187(2) 0.55862(2) -0.69340(4)
W1I W 0.83813(2) 0.94138(2) -0.69340(4)
W1C W 0.69138(2) 0.41187(2) -1.05660(4)
Ni2E Ni 0.7500 0.7500 -0.7500
Ni2F Ni 0.5000 1.0000 -1.0000
Ni2C Ni 0.5000 0.5000 0.0000
Ni2F_2 Ni 0.5000 1.0000 0.0000
P1E P 0.63478(15) 0.66703(15) -0.5538(2)
P1K P 0.41703(15) 0.61522(15) -0.1962(2)
P1N P 0.58297(15) 0.88478(15) -0.1962(2)
O2G O 0.1811(4) 0.8232(4) -0.6420(6)
O2K O 0.3189(4) 0.6768(4) -0.8580(6)
O2B O 0.8189(4) 0.6768(4) -0.6420(6)
O2N O 0.6811(4) 0.8232(4) -0.8580(6)
O2E O 0.5732(4) 0.5689(4) -0.8920(6)
O2K_2 O 0.3189(4) 0.6768(4) 0.1420(6)
O2N_2 O 0.6811(4) 0.8232(4) 0.1420(6)
O3F O 0.2835(4) 1.0003(4) -0.9183(7)
O3E O 0.7497(4) 0.5335(4) -0.6683(7)
O3C O 0.7165(4) 0.4997(4) -0.9183(7)
O3K O 0.2835(4) 0.5003(4) -0.0817(7)
O3L O 0.2497(4) 0.5335(4) 0.1683(7)
O3N O 0.7165(4) 0.9997(4) -0.0817(7)
O3I O 0.7503(4) 0.9665(4) 0.1683(7)
O4L O 0.2070(4) 0.6497(4) -0.6649(6)
O4I O 0.7930(4) 0.8503(4) -0.6649(6)
O4E O 0.7070(4) 0.6497(4) -0.8351(6)
O4K O 0.3997(4) 0.5430(4) 0.0851(6)
O4N O 0.6003(4) 0.9570(4) 0.0851(6)
O5E O 0.6074(4) 0.6052(4) -0.6514(6)
O5K O 0.3552(4) 0.6426(4) -0.0986(6)
O5N O 0.6448(4) 0.8574(4) -0.0986(6)
O6E O 0.6599(4) 0.7425(4) -0.6169(6)
O6K O 0.4925(4) 0.5901(4) -0.1331(6)
O6N O 0.5075(4) 0.9099(4) -0.1331(6)
O6L O 0.1599(4) 0.7425(4) -0.8831(6)
O6I O 0.8401(4) 0.7575(4) -0.8831(6)
O7E O 0.7043(4) 0.6315(4) -0.4789(6)
O7K O 0.3815(4) 0.5457(4) -0.2711(6)
O7N O 0.6185(4) 0.9543(4) -0.2711(6)
O7F O 0.3815(4) 1.0457(4) -0.7289(6)
O7C O 0.6185(4) 0.4543(4) -0.7289(6)
O7L O 0.2043(4) 0.6315(4) -0.0211(6)
O7I O 0.7957(4) 0.8685(4) -0.0211(6)
O8E O 0.5659(4) 0.6785(4) -0.4658(7)
O8K O 0.4285(4) 0.6841(4) -0.2842(7)
O8N O 0.5715(4) 0.8159(4) -0.2842(7)
N1 N 0.5744(10) 0.7195(14) -0.001(2)
C1 C 0.5000 0.7500 0.0576(19)
N1E N 0.4256(10) 0.7805(14) -0.001(2)
N1N N 0.4695(14) 0.6756(10) 0.251(2)
N1K N 0.5305(14) 0.8244(10) 0.251(2)
C1K C 0.5000 0.7500 0.1924(19)
loop_
_geom_bond_atom_site_label_1
_geom_bond_atom_site_label_2
_geom_bond_site_symmetry_1
_geom_bond_site_symmetry_2
N1 C1 1_555 1_555
C1 N1E 1_555 1_555
W1 O2 1_555 1_555
Ni1 O8 1_555 1_555
Ni2 O4 1_555 1_555
P1 O5 1_555 1_555
O2 Ni2F 1_555 1_555
O3 W1 1_555 1_555
O4 W1 1_555 1_555
O5 W1 1_555 1_555
O6 Ni2 1_555 1_555
O7 P1 1_555 1_555
O8 P1 1_555 1_555
N1N C1K 1_555 1_555
N1K C1K 1_555 1_555
C1K C1 1_555 1_555
W1E O2E 1_555 1_555
W1K O2K_2 1_555 1_555
W1N O2N_2 1_555 1_555
W1G O3 1_555 1_555
W1B O2B 1_555 1_555
W1M O3K 1_555 1_555
W1H O3N 1_555 1_555
W1F O3F 1_555 1_555
W1K_2 O2K 1_555 1_555
W1L O4L 1_555 1_555
W1I O4I 1_555 1_555
W1C O3C 1_555 1_555
Ni2E O2B 1_555 1_555
Ni2C O4K 1_555 1_555
Ni2F_2 O4N 1_555 1_555
P1E O5E 1_555 1_555
P1K O5K 1_555 1_555
P1N O5N 1_555 1_555
O2G Ni2 1_555 1_555
O2K Ni2 1_555 1_555
O2N Ni2E 1_555 1_555
O3F W1 1_555 1_555
O3E W1E 1_555 1_555
O3C W1E 1_555 1_555
O3K W1K 1_555 1_555
O3L W1K 1_555 1_555
O3N W1N 1_555 1_555
O3I W1N 1_555 1_555
O4L Ni2 1_555 1_555
O4I Ni2E 1_555 1_555
O4E W1E 1_555 1_555
O4K W1K 1_555 1_555
O4N W1N 1_555 1_555
O5E W1E 1_555 1_555
O5K W1K 1_555 1_555
O5N W1N 1_555 1_555
O6E Ni2E 1_555 1_555
O6K Ni2C 1_555 1_555
O6N Ni2F_2 1_555 1_555
O6L Ni2 1_555 1_555
O6I Ni2E 1_555 1_555
O7E W1B 1_555 1_555
O7K W1M 1_555 1_555
O7N W1H 1_555 1_555
O7F W1 1_555 1_555
O7C W1E 1_555 1_555
O7L W1K 1_555 1_555
O7I W1N 1_555 1_555
O8E Ni1 1_555 1_555
O8K Ni1 1_555 1_555
O8N Ni1 1_555 1_555
P1 O6 1_555 1_555
O7 W1G 1_555 1_555
W1G O2G 1_555 1_555
W1B O3E 1_555 1_555
Ni2E O4E 1_555 1_555
P1E O6E 1_555 1_555
P1E O7E 1_555 1_555
P1E O8E 1_555 1_555
P1K O6K 1_555 1_555
P1K O7K 1_555 1_555
P1K O8K 1_555 1_555
P1N O6N 1_555 1_555
P1N O7N 1_555 1_555
P1N O8N 1_555 1_555

#END
