
#######################################################################
#
#                 Cambridge Crystallographic Data Centre
#                                CCDC 
#
#######################################################################
#
# If this CIF has been generated from an entry in the Cambridge 
# Structural Database, then it will include bibliographic, chemical, 
# crystal, experimental, refinement or atomic coordinate data resulting 
# from the CCDC's data processing and validation procedures.
#
#######################################################################

data_PITPIT
_chemical_formula_moiety         'C207 H183 Cd28 N3 O85'
_symmetry_cell_setting           rhombohedral
_symmetry_space_group_name_H-M   'R 3 c'
_symmetry_Int_Tables_number      161
_space_group_name_Hall           'R 3 -2"c'
loop_
_symmetry_equiv_pos_site_id
_symmetry_equiv_pos_as_xyz
1 x,y,z
2 -y,x-y,z
3 -x+y,-x,z
4 -y,-x,1/2+z
5 -x+y,y,1/2+z
6 x,x-y,1/2+z
7 2/3+x,1/3+y,1/3+z
8 2/3-y,1/3+x-y,1/3+z
9 2/3-x+y,1/3-x,1/3+z
10 2/3-y,1/3-x,5/6+z
11 2/3-x+y,1/3+y,5/6+z
12 2/3+x,1/3+x-y,5/6+z
13 1/3+x,2/3+y,2/3+z
14 1/3-y,2/3+x-y,2/3+z
15 1/3-x+y,2/3-x,2/3+z
16 1/3-y,2/3-x,1/6+z
17 1/3-x+y,2/3+y,1/6+z
18 1/3+x,2/3+x-y,1/6+z
_cell_length_a                   25.7369(5)
_cell_length_b                   25.7369(5)
_cell_length_c                   61.601(2)
_cell_angle_alpha                90
_cell_angle_beta                 90
_cell_angle_gamma                120
_cell_volume                     35337.1
loop_
_atom_site_label
_atom_site_type_symbol
_atom_site_fract_x
_atom_site_fract_y
_atom_site_fract_z
Cd1 Cd 1.244073(14) 0.595971(15) 0.943554(6)
Cd2 Cd 1.267585(14) 0.568157(14) 0.888277(6)
Cd3 Cd 0.6667 0.3333 0.882185(11)
Cd4 Cd 0.6667 0.3333 0.826367(18)
Cd5 Cd 0.6667 0.3333 0.770449(10)
O1 O 0.65665(13) 0.39475(13) 0.85217(5)
O2 O 0.60403(16) 0.37125(17) 0.88211(6)
O3 O 0.61467(18) 0.3653(2) 0.63600(6)
O4 O 0.52297(19) 0.29781(19) 0.62402(7)
O5 O 0.86833(15) 0.86585(16) 0.71969(6)
O6 O 0.87941(15) 0.94171(15) 0.74003(6)
O7 O 0.72052(14) 0.31296(14) 0.80026(5)
O8 O 0.69021(15) 0.25909(15) 0.76982(6)
O9 O 1.16618(16) 0.49611(17) 0.94281(6)
O10 O 1.24477(14) 0.51937(16) 0.92203(6)
O11 O 0.6430(2) 0.1606(2) 1.03938(7)
O12 O 0.6664(3) 0.2349(2) 1.01751(7)
O13 O 0.56945(15) 0.48936(16) 0.80322(5)
O14 O 0.66717(14) 0.69533(14) 0.74759(7)
O15 O 0.56115(16) 0.45348(18) 0.69899(6)
O16 O 0.79174(15) 0.20298(14) 0.84903(5)
O17 O 0.74640(16) 0.18565(15) 0.95146(5)
O18 O 1.00142(14) 0.30196(14) 0.90689(6)
C1 C 0.61526(18) 0.39364(18) 0.86363(8)
C2 C 0.58231(19) 0.42239(19) 0.85460(8)
C3 C 0.5433(2) 0.4324(2) 0.86745(8)
H1 H 0.5357 0.4189 0.8821
C4 C 0.5154(2) 0.4625(3) 0.85857(9)
H2 H 0.4896 0.4702 0.8674
C5 C 0.5247(2) 0.4807(2) 0.83758(9)
H3 H 0.5061 0.5016 0.8318
C6 C 0.5623(2) 0.4686(2) 0.82431(8)
C7 C 0.59137(19) 0.4410(2) 0.83313(8)
H4 H 0.6181 0.4347 0.8244
C8 C 0.6103(2) 0.4799(2) 0.78944(8)
H5 H 0.5950 0.4365 0.7873
H6 H 0.6506 0.4981 0.7961
C9 C 0.61283(18) 0.50994(19) 0.76787(7)
C10 C 0.57310(19) 0.4775(2) 0.75159(8)
C11 C 0.57489(19) 0.5063(2) 0.73195(7)
C12 C 0.6177(2) 0.5670(2) 0.72898(8)
C13 C 0.65712(19) 0.59890(19) 0.74577(8)
C14 C 0.65471(19) 0.5722(2) 0.76591(8)
C15 C 0.6942(2) 0.6079(2) 0.78442(8)
H7 H 0.7336 0.6110 0.7829
H8 H 0.6759 0.5879 0.7981
H9 H 0.6990 0.6481 0.7843
C16 C 0.5284(3) 0.4113(2) 0.75461(11)
H10 H 0.5445 0.3874 0.7482
H11 H 0.4905 0.4015 0.7474
H12 H 0.5212 0.4023 0.7701
C17 C 0.6223(3) 0.5976(3) 0.70702(9)
H13 H 0.6506 0.5933 0.6976
H14 H 0.6365 0.6403 0.7094
H15 H 0.5828 0.5787 0.7001
C18 C 0.7007(2) 0.6665(2) 0.74289(9)
H16 H 0.7350 0.6804 0.7530
H17 H 0.7162 0.6754 0.7278
C19 C 0.6972(2) 0.7560(2) 0.74576(8)
C20 C 0.6638(2) 0.7844(2) 0.75096(10)
H18 H 0.6225 0.7609 0.7547
C21 C 0.6912(3) 0.8460(2) 0.75062(12)
H19 H 0.6689 0.8648 0.7545
C22 C 0.7509(2) 0.8811(2) 0.74465(11)
H20 H 0.7694 0.9236 0.7448
C23 C 0.78369(19) 0.8536(2) 0.73846(8)
C24 C 0.75615(19) 0.79069(19) 0.73909(8)
H21 H 0.7783 0.7718 0.7349
C25 C 0.5314(2) 0.4727(2) 0.71365(8)
H22 H 0.4948 0.4377 0.7195
H23 H 0.5197 0.4993 0.7061
C26 C 0.5303(2) 0.4255(2) 0.68036(8)
C27 C 0.4741(2) 0.4154(2) 0.67529(8)
H24 H 0.4544 0.4293 0.6847
C28 C 0.4464(2) 0.3850(3) 0.65649(9)
H25 H 0.4085 0.3801 0.6526
C29 C 0.4731(3) 0.3617(3) 0.64329(10)
H26 H 0.4528 0.3392 0.6307
C30 C 0.5292(2) 0.3713(2) 0.64842(8)
C31 C 0.5594(2) 0.4043(2) 0.66653(8)
H27 H 0.5990 0.4127 0.6696
C32 C 0.5572(3) 0.3429(3) 0.63512(9)
C33 C 0.71312(19) 0.2686(2) 0.78884(7)
C34 C 0.7340(2) 0.2278(2) 0.79762(7)
C35 C 0.75216(19) 0.23576(18) 0.81944(8)
H28 H 0.7513 0.2658 0.8281
C36 C 0.7717(2) 0.1979(2) 0.82811(8)
C37 C 0.7758(3) 0.1557(2) 0.81517(9)
H29 H 0.7908 0.1316 0.8210
C38 C 0.7572(3) 0.1493(2) 0.79346(9)
H30 H 0.7594 0.1202 0.7846
C39 C 0.7356(2) 0.1847(2) 0.78458(8)
H31 H 0.7224 0.1794 0.7699
C40 C 0.7914(2) 0.2496(2) 0.86220(7)
H32 H 0.7499 0.2415 0.8642
H33 H 0.8153 0.2892 0.8551
C41 C 0.81864(19) 0.24872(18) 0.88364(7)
C42 C 0.78098(19) 0.2066(2) 0.89993(8)
C43 C 0.8064(2) 0.2049(2) 0.91999(8)
C44 C 0.8672(2) 0.2460(2) 0.92454(8)
C45 C 0.9033(2) 0.2873(2) 0.90866(8)
C46 C 0.8801(2) 0.28665(18) 0.88797(7)
C47 C 0.9202(2) 0.3259(2) 0.86968(8)
H34 H 0.9251 0.3661 0.8709
H35 H 0.9017 0.3082 0.8557
H36 H 0.9595 0.3288 0.8707
C48 C 0.7155(2) 0.1656(2) 0.89477(9)
H37 H 0.7023 0.1257 0.9008
H38 H 0.7099 0.1625 0.8790
H39 H 0.6917 0.1819 0.9011
C49 C 0.8922(3) 0.2486(3) 0.94705(8)
H40 H 0.9333 0.2559 0.9459
H41 H 0.8671 0.2104 0.9545
H42 H 0.8923 0.2812 0.9553
C50 C 0.7686(2) 0.1579(2) 0.93654(7)
H43 H 0.7347 0.1230 0.9293
H44 H 0.7929 0.1440 0.9444
C51 C 0.7177(2) 0.1525(2) 0.96970(8)
C52 C 0.7030(2) 0.1821(2) 0.98505(8)
H45 H 0.7112 0.2219 0.9825
C53 C 0.6754(3) 0.1518(3) 1.00466(9)
C54 C 0.6611(5) 0.0948(3) 1.00778(12)
H46 H 0.6395 0.0742 1.0204
C55 C 0.6771(5) 0.0663(4) 0.99324(15)
H47 H 0.6720 0.0280 0.9967
C56 C 0.7014(4) 0.0925(3) 0.97290(12)
H48 H 0.7064 0.0700 0.9617
C57 C 0.6612(2) 0.1848(3) 1.02141(9)
C58 C 0.9681(2) 0.3311(2) 0.91338(9)
H49 H 0.9817 0.3686 0.9050
H50 H 0.9740 0.3410 0.9290
C59 C 1.0631(2) 0.3366(2) 0.90770(8)
C60 C 1.0942(2) 0.39103(19) 0.91856(7)
H51 H 1.0734 0.4068 0.9264
C61 C 1.1574(2) 0.4223(2) 0.91773(8)
C62 C 1.1870(3) 0.3983(3) 0.90642(12)
H52 H 1.2296 0.4200 0.9055
C63 C 1.1556(3) 0.3437(3) 0.89657(14)
H53 H 1.1765 0.3268 0.8895
C64 C 1.0934(3) 0.3128(3) 0.89683(12)
H54 H 1.0716 0.2754 0.8895
C65 C 1.1910(2) 0.4822(2) 0.92854(8)
C66 C 0.8482(2) 0.8899(2) 0.73231(8)
O19 O 1.3333 0.6667 0.93106(9)
O20 O 1.3333 0.6667 0.88149(10)
O21 O 0.6797(5) 0.3295(9) 0.91880(18)
C67 C 0.7209(6) 0.3749(7) 0.9275(3)
H55 H 0.7145 0.4069 0.9316
N1 N 0.7800(4) 0.3798(4) 0.93142(15)
C68 C 0.7857(7) 0.3260(6) 0.9310(3)
H56 H 0.7560 0.2958 0.9409
H57 H 0.8261 0.3363 0.9358
H58 H 0.7788 0.3098 0.9163
C69 C 0.8319(6) 0.4387(6) 0.9355(4)
H59 H 0.8596 0.4346 0.9454
H60 H 0.8188 0.4648 0.9422
H61 H 0.8524 0.4564 0.9218
O22 O 0.6667 0.3333 0.73377(19)
O21A O 0.6705(9) 0.3502(10) 0.91880(18)
C67A C 0.6251(7) 0.3460(9) 0.9275(3)
H55A H 0.5931 0.3076 0.9316
N1A N 0.6202(4) 0.4002(6) 0.93142(15)
C68A C 0.6740(6) 0.4597(9) 0.9310(3)
H56A H 0.7042 0.4602 0.9409
H57A H 0.6637 0.4898 0.9358
H58A H 0.6902 0.4690 0.9163
C69A C 0.5613(6) 0.3932(8) 0.9355(4)
H59A H 0.5654 0.4250 0.9454
H60A H 0.5352 0.3540 0.9422
H61A H 0.5436 0.3960 0.9218
O21B O 0.6498(10) 0.3203(5) 0.91880(18)
C67B C 0.6540(9) 0.2791(6) 0.9275(3)
H55B H 0.6924 0.2855 0.9316
N1B N 0.5998(6) 0.2200(4) 0.93142(15)
C68B C 0.5403(9) 0.2143(7) 0.9310(3)
H56B H 0.5398 0.2440 0.9409
H57B H 0.5102 0.1739 0.9358
H58B H 0.5310 0.2212 0.9163
C69B C 0.6068(8) 0.1681(6) 0.9355(4)
H59B H 0.5750 0.1404 0.9454
H60B H 0.6460 0.1812 0.9422
H61B H 0.6040 0.1476 0.9218
Cd1A Cd 0.404029(15) 0.648102(21) 0.943554(6)
Cd2A Cd 0.431843(14) 0.699428(20) 0.888277(6)
O1A O 0.60525(13) 0.26190(18) 0.85217(5)
O2A O 0.62875(17) 0.23278(23) 0.88211(6)
O3A O 0.6347(2) 0.24937(27) 0.63600(6)
O4A O 0.70219(19) 0.22516(27) 0.62402(7)
O5A O 0.13415(16) 0.00248(22) 0.71969(6)
O6A O 0.05829(15) -0.06230(21) 0.74003(6)
O7A O 0.68704(14) 0.40756(20) 0.80026(5)
O8A O 0.74091(15) 0.43112(21) 0.76982(6)
O9A O 0.50389(17) 0.67007(23) 0.94281(6)
O10A O 0.48063(16) 0.72540(21) 0.92203(6)
O11A O 0.8394(2) 0.4824(3) 1.03938(7)
O12A O 0.7651(2) 0.4315(4) 1.01751(7)
O13A O 0.51064(16) 0.08009(22) 0.80322(5)
O14A O 0.30467(14) -0.02816(20) 0.74759(7)
O15A O 0.54652(18) 0.10767(24) 0.69899(6)
O16A O 0.79702(14) 0.58876(21) 0.84903(5)
O17A O 0.81435(15) 0.56075(22) 0.95146(5)
O18A O 0.69804(14) 0.69946(20) 0.90689(6)
C1A C 0.60636(18) 0.22162(25) 0.86363(8)
C2A C 0.57761(19) 0.15992(27) 0.85460(8)
C3A C 0.5676(2) 0.1109(3) 0.86745(8)
H1A H 0.5811 0.1168 0.8821
C4A C 0.5375(3) 0.0529(4) 0.85857(9)
H2A H 0.5298 0.0194 0.8674
C5A C 0.5193(2) 0.0440(3) 0.83758(9)
H3A H 0.4984 0.0045 0.8318
C6A C 0.5314(2) 0.0937(3) 0.82431(8)
C7A C 0.5590(2) 0.15037(28) 0.83313(8)
H4A H 0.5653 0.1834 0.8244
C8A C 0.5201(2) 0.1304(3) 0.78944(8)
H5A H 0.5635 0.1585 0.7873
H6A H 0.5019 0.1525 0.7961
C9A C 0.49006(19) 0.10289(26) 0.76787(7)
C10A C 0.5225(2) 0.09560(28) 0.75159(8)
C11A C 0.4937(2) 0.06859(28) 0.73195(7)
C12A C 0.4330(2) 0.0507(3) 0.72898(8)
C13A C 0.40110(19) 0.05822(27) 0.74577(8)
C14A C 0.4278(2) 0.08251(28) 0.76591(8)
C15A C 0.3921(2) 0.0863(3) 0.78442(8)
H7A H 0.3890 0.1226 0.7829
H8A H 0.4121 0.0880 0.7981
H9A H 0.3519 0.0509 0.7843
C16A C 0.5887(2) 0.1171(4) 0.75461(11)
H10A H 0.6126 0.1571 0.7482
H11A H 0.5985 0.0890 0.7474
H12A H 0.5977 0.1189 0.7701
C17A C 0.4024(3) 0.0247(4) 0.70702(9)
H13A H 0.4067 0.0573 0.6976
H14A H 0.3597 -0.0038 0.7094
H15A H 0.4213 0.0041 0.7001
C18A C 0.3335(2) 0.0342(3) 0.74289(9)
H16A H 0.3196 0.0546 0.7530
H17A H 0.3246 0.0408 0.7278
C19A C 0.2440(2) -0.0588(3) 0.74576(8)
C20A C 0.2156(2) -0.1206(3) 0.75096(10)
H18A H 0.2391 -0.1384 0.7547
C21A C 0.1540(2) -0.1548(4) 0.75062(12)
H19A H 0.1352 -0.1959 0.7545
C22A C 0.1189(2) -0.1302(3) 0.74465(11)
H20A H 0.0764 -0.1542 0.7448
C23A C 0.1464(2) -0.06991(28) 0.73846(8)
C24A C 0.20931(19) -0.03454(27) 0.73909(8)
H21A H 0.2282 0.0065 0.7349
C25A C 0.5273(2) 0.0587(3) 0.71365(8)
H22A H 0.5623 0.0571 0.7195
H23A H 0.5007 0.0204 0.7061
C26A C 0.5745(2) 0.1048(3) 0.68036(8)
C27A C 0.5846(2) 0.0587(3) 0.67529(8)
H24A H 0.5707 0.0251 0.6847
C28A C 0.6150(3) 0.0614(4) 0.65649(9)
H25A H 0.6199 0.0284 0.6526
C29A C 0.6383(3) 0.1114(4) 0.64329(10)
H26A H 0.6608 0.1136 0.6307
C30A C 0.6287(2) 0.1579(3) 0.64842(8)
C31A C 0.5957(2) 0.1551(3) 0.66653(8)
H27A H 0.5873 0.1863 0.6696
C32A C 0.6571(3) 0.2143(4) 0.63512(9)
C33A C 0.7314(2) 0.44452(28) 0.78884(7)
C34A C 0.7722(2) 0.5062(3) 0.79762(7)
C35A C 0.76424(18) 0.51640(26) 0.81944(8)
H28A H 0.7342 0.4855 0.8281
C36A C 0.8021(2) 0.5738(3) 0.82811(8)
C37A C 0.8443(2) 0.6201(4) 0.81517(9)
H29A H 0.8684 0.6592 0.8210
C38A C 0.8507(2) 0.6079(4) 0.79346(9)
H30A H 0.8798 0.6392 0.7846
C39A C 0.8153(2) 0.5509(3) 0.78458(8)
H31A H 0.8206 0.5430 0.7699
C40A C 0.7504(2) 0.5418(3) 0.86220(7)
H32A H 0.7585 0.5084 0.8642
H33A H 0.7108 0.5261 0.8551
C41A C 0.75128(18) 0.56992(26) 0.88364(7)
C42A C 0.7934(2) 0.57438(28) 0.89993(8)
C43A C 0.7951(2) 0.6015(3) 0.91999(8)
C44A C 0.7540(2) 0.6212(3) 0.92454(8)
C45A C 0.7127(2) 0.6160(3) 0.90866(8)
C46A C 0.71335(18) 0.59345(27) 0.88797(7)
C47A C 0.6741(2) 0.5943(3) 0.86968(8)
H34A H 0.6339 0.5590 0.8709
H35A H 0.6918 0.5935 0.8557
H36A H 0.6712 0.6307 0.8707
C48A C 0.8344(2) 0.5499(3) 0.89477(9)
H37A H 0.8743 0.5766 0.9008
H38A H 0.8375 0.5474 0.8790
H39A H 0.8181 0.5098 0.9011
C49A C 0.7514(3) 0.6436(4) 0.94705(8)
H40A H 0.7441 0.6774 0.9459
H41A H 0.7896 0.6567 0.9545
H42A H 0.7188 0.6111 0.9553
C50A C 0.8421(2) 0.6107(3) 0.93654(7)
H43A H 0.8770 0.6117 0.9293
H44A H 0.8560 0.6489 0.9444
C51A C 0.8475(2) 0.5652(3) 0.96970(8)
C52A C 0.8179(2) 0.5209(3) 0.98505(8)
H45A H 0.7781 0.4893 0.9825
C53A C 0.8482(3) 0.5236(4) 1.00466(9)
C54A C 0.9052(3) 0.5663(6) 1.00778(12)
H46A H 0.9258 0.5653 1.0204
C55A C 0.9337(4) 0.6108(6) 0.99324(15)
H47A H 0.9720 0.6440 0.9967
C56A C 0.9075(3) 0.6089(5) 0.97290(12)
H48A H 0.9300 0.6364 0.9617
C57A C 0.8152(3) 0.4764(4) 1.02141(9)
C58A C 0.6689(2) 0.6370(3) 0.91338(9)
H49A H 0.6314 0.6131 0.9050
H50A H 0.6590 0.6330 0.9290
C59A C 0.6634(2) 0.7265(3) 0.90770(8)
C60A C 0.60897(19) 0.70317(28) 0.91856(7)
H51A H 0.5932 0.6666 0.9264
C61A C 0.5777(2) 0.7351(3) 0.91773(8)
C62A C 0.6017(3) 0.7887(4) 0.90642(12)
H52A H 0.5800 0.8096 0.9055
C63A C 0.6563(3) 0.8119(4) 0.89657(14)
H53A H 0.6732 0.8497 0.8895
C64A C 0.6872(3) 0.7806(4) 0.89683(12)
H54A H 0.7246 0.7962 0.8895
C65A C 0.5178(2) 0.7088(3) 0.92854(8)
C66A C 0.1101(2) -0.0417(3) 0.73231(8)
Cd1B Cd 0.351898(21) -0.244073(14) 0.943554(6)
Cd2B Cd 0.300572(20) -0.267585(14) 0.888277(6)
O1B O 0.73810(18) 0.34335(13) 0.85217(5)
O2B O 0.76722(23) 0.39597(16) 0.88211(6)
O3B O 0.75063(27) 0.38533(18) 0.63600(6)
O4B O 0.77484(27) 0.47703(19) 0.62402(7)
O5B O 0.99752(22) 0.13167(15) 0.71969(6)
O6B O 1.06230(21) 0.12059(15) 0.74003(6)
O7B O 0.59244(20) 0.27948(14) 0.80026(5)
O8B O 0.56888(21) 0.30979(15) 0.76982(6)
O9B O 0.32993(23) -0.16618(16) 0.94281(6)
O10B O 0.27460(21) -0.24477(14) 0.92203(6)
O11B O 0.5176(3) 0.3570(2) 1.03938(7)
O12B O 0.5685(4) 0.3336(3) 1.01751(7)
O13B O 0.91991(22) 0.43055(15) 0.80322(5)
O14B O 1.02816(20) 0.33283(14) 0.74759(7)
O15B O 0.89233(24) 0.43885(16) 0.69899(6)
O16B O 0.41124(21) 0.20826(15) 0.84903(5)
O17B O 0.43925(22) 0.25360(16) 0.95146(5)
O18B O 0.30054(20) -0.00142(14) 0.90689(6)
C1B C 0.77838(25) 0.38474(18) 0.86363(8)
C2B C 0.84008(27) 0.41769(19) 0.85460(8)
C3B C 0.8891(3) 0.4567(2) 0.86745(8)
H1B H 0.8832 0.4643 0.8821
C4B C 0.9471(4) 0.4846(2) 0.85857(9)
H2B H 0.9806 0.5104 0.8674
C5B C 0.9560(3) 0.4753(2) 0.83758(9)
H3B H 0.9955 0.4939 0.8318
C6B C 0.9063(3) 0.4377(2) 0.82431(8)
C7B C 0.84963(28) 0.40863(19) 0.83313(8)
H4B H 0.8166 0.3819 0.8244
C8B C 0.8696(3) 0.3897(2) 0.78944(8)
H5B H 0.8415 0.4050 0.7873
H6B H 0.8475 0.3494 0.7961
C9B C 0.89711(26) 0.38717(18) 0.76787(7)
C10B C 0.90440(28) 0.42690(19) 0.75159(8)
C11B C 0.93141(28) 0.42511(19) 0.73195(7)
C12B C 0.9493(3) 0.3823(2) 0.72898(8)
C13B C 0.94178(27) 0.34288(19) 0.74577(8)
C14B C 0.91749(28) 0.34529(19) 0.76591(8)
C15B C 0.9137(3) 0.3058(2) 0.78442(8)
H7B H 0.8774 0.2664 0.7829
H8B H 0.9120 0.3241 0.7981
H9B H 0.9491 0.3010 0.7843
C16B C 0.8829(4) 0.4716(3) 0.75461(11)
H10B H 0.8429 0.4555 0.7482
H11B H 0.9110 0.5095 0.7474
H12B H 0.8811 0.4788 0.7701
C17B C 0.9753(4) 0.3777(3) 0.70702(9)
H13B H 0.9427 0.3494 0.6976
H14B H 1.0038 0.3635 0.7094
H15B H 0.9959 0.4172 0.7001
C18B C 0.9658(3) 0.2993(2) 0.74289(9)
H16B H 0.9454 0.2650 0.7530
H17B H 0.9592 0.2838 0.7278
C19B C 1.0588(3) 0.3028(2) 0.74576(8)
C20B C 1.1206(3) 0.3362(2) 0.75096(10)
H18B H 1.1384 0.3775 0.7547
C21B C 1.1548(4) 0.3088(3) 0.75062(12)
H19B H 1.1959 0.3311 0.7545
C22B C 1.1302(3) 0.2491(2) 0.74465(11)
H20B H 1.1542 0.2306 0.7448
C23B C 1.06991(28) 0.21631(19) 0.73846(8)
C24B C 1.03454(27) 0.24385(19) 0.73909(8)
H21B H 0.9935 0.2217 0.7349
C25B C 0.9413(3) 0.4686(2) 0.71365(8)
H22B H 0.9429 0.5052 0.7195
H23B H 0.9796 0.4803 0.7061
C26B C 0.8952(3) 0.4697(2) 0.68036(8)
C27B C 0.9413(3) 0.5259(2) 0.67529(8)
H24B H 0.9749 0.5456 0.6847
C28B C 0.9386(4) 0.5536(2) 0.65649(9)
H25B H 0.9716 0.5915 0.6526
C29B C 0.8886(4) 0.5269(3) 0.64329(10)
H26B H 0.8864 0.5472 0.6307
C30B C 0.8421(3) 0.4708(2) 0.64842(8)
C31B C 0.8449(3) 0.4406(2) 0.66653(8)
H27B H 0.8137 0.4010 0.6696
C32B C 0.7857(4) 0.4428(3) 0.63512(9)
C33B C 0.55548(28) 0.28688(19) 0.78884(7)
C34B C 0.4938(3) 0.2660(2) 0.79762(7)
C35B C 0.48360(26) 0.24784(19) 0.81944(8)
H28B H 0.5145 0.2487 0.8281
C36B C 0.4262(3) 0.2283(2) 0.82811(8)
C37B C 0.3799(4) 0.2242(3) 0.81517(9)
H29B H 0.3408 0.2092 0.8210
C38B C 0.3921(4) 0.2428(3) 0.79346(9)
H30B H 0.3608 0.2406 0.7846
C39B C 0.4491(3) 0.2644(2) 0.78458(8)
H31B H 0.4570 0.2776 0.7699
C40B C 0.4582(3) 0.2086(2) 0.86220(7)
H32B H 0.4916 0.2501 0.8642
H33B H 0.4739 0.1847 0.8551
C41B C 0.43008(26) 0.18136(19) 0.88364(7)
C42B C 0.42562(28) 0.21902(19) 0.89993(8)
C43B C 0.3985(3) 0.1936(2) 0.91999(8)
C44B C 0.3788(3) 0.1328(2) 0.92454(8)
C45B C 0.3840(3) 0.0967(2) 0.90866(8)
C46B C 0.40655(27) 0.1199(2) 0.88797(7)
C47B C 0.4057(3) 0.0798(2) 0.86968(8)
H34B H 0.4410 0.0749 0.8709
H35B H 0.4065 0.0983 0.8557
H36B H 0.3693 0.0405 0.8707
C48B C 0.4501(3) 0.2845(2) 0.89477(9)
H37B H 0.4234 0.2977 0.9008
H38B H 0.4526 0.2901 0.8790
H39B H 0.4902 0.3083 0.9011
C49B C 0.3564(4) 0.1078(3) 0.94705(8)
H40B H 0.3226 0.0667 0.9459
H41B H 0.3433 0.1329 0.9545
H42B H 0.3889 0.1077 0.9553
C50B C 0.3893(3) 0.2314(2) 0.93654(7)
H43B H 0.3883 0.2653 0.9293
H44B H 0.3511 0.2071 0.9444
C51B C 0.4348(3) 0.2823(2) 0.96970(8)
C52B C 0.4791(3) 0.2970(2) 0.98505(8)
H45B H 0.5107 0.2888 0.9825
C53B C 0.4764(4) 0.3246(3) 1.00466(9)
C54B C 0.4337(6) 0.3389(5) 1.00778(12)
H46B H 0.4347 0.3605 1.0204
C55B C 0.3892(6) 0.3229(5) 0.99324(15)
H47B H 0.3560 0.3280 0.9967
C56B C 0.3911(5) 0.2986(4) 0.97290(12)
H48B H 0.3636 0.2936 0.9617
C57B C 0.5236(4) 0.3388(2) 1.02141(9)
C58B C 0.3630(3) 0.0319(2) 0.91338(9)
H49B H 0.3869 0.0183 0.9050
H50B H 0.3670 0.0260 0.9290
C59B C 0.2735(3) -0.0631(2) 0.90770(8)
C60B C 0.29683(28) -0.0942(2) 0.91856(7)
H51B H 0.3334 -0.0734 0.9264
C61B C 0.2649(3) -0.1574(2) 0.91773(8)
C62B C 0.2113(4) -0.1870(3) 0.90642(12)
H52B H 0.1904 -0.2296 0.9055
C63B C 0.1881(4) -0.1556(3) 0.89657(14)
H53B H 0.1503 -0.1765 0.8895
C64B C 0.2194(4) -0.0934(3) 0.89683(12)
H54B H 0.2038 -0.0716 0.8895
C65B C 0.2912(3) -0.1910(2) 0.92854(8)
C66B C 1.0417(3) 0.1518(2) 0.73231(8)
Cd1A_2 Cd 1.404029(15) 0.648102(21) 0.943554(6)
Cd1B_2 Cd 1.351898(21) 0.755927(14) 0.943554(6)
Cd1I Cd 1.070696(15) 0.089260(14) 0.776887(6)
Cd1J Cd 0.018565(21) -0.070696(15) 0.776887(6)
Cd1K Cd 0.910740(14) 0.981435(21) 0.776887(6)
Cd1L Cd 0.577406(14) 0.262638(15) 0.610221(6)
Cd1M Cd 0.737362(15) 0.314769(21) 0.610221(6)
Cd1N Cd 0.685231(21) 0.422594(14) 0.610221(6)
Cd2A_2 Cd 1.431843(14) 0.699428(20) 0.888277(6)
Cd2B_2 Cd 1.300572(20) 0.732415(14) 0.888277(6)
Cd2I Cd 0.098510(14) 0.065748(14) 0.721610(6)
Cd2I_2 Cd 1.098510(14) 0.065748(14) 0.721610(6)
Cd2J Cd -0.032761(20) -0.098510(14) 0.721610(6)
Cd2J_2 Cd 0.967239(20) 0.901490(14) 0.721610(6)
Cd2K Cd 0.934252(14) 0.032761(20) 0.721610(6)
Cd2K_2 Cd 0.934252(14) 1.032761(20) 0.721610(6)
Cd2O Cd 0.765176(14) 0.399082(14) 1.054944(6)
Cd2P Cd 0.633905(20) 0.234824(14) 1.054944(6)
Cd2Q Cd 0.600918(14) 0.366095(20) 1.054944(6)
O3F O 0.28134(18) -0.3014(2) 0.96933(6)
O3F_2 O 1.28134(18) 0.6986(2) 0.96933(6)
O3G O 0.3014(2) 0.58270(27) 0.96933(6)
O3G_2 O 1.3014(2) 0.58270(27) 0.96933(6)
O3H O 0.41730(27) -0.28134(18) 0.96933(6)
O3H_2 O 0.41730(27) 0.71866(18) 0.96933(6)
O4F O 1.18964(19) 0.63114(19) 0.95735(7)
O4G O 0.36886(19) 0.55849(27) 0.95735(7)
O4H O 0.44151(27) -0.18964(19) 0.95735(7)
O5O O 0.46748(16) 0.79834(15) 0.88636(6)
O5P O 1.33085(22) 0.53252(16) 0.88636(6)
O5Q O 0.20166(15) -0.33085(22) 0.88636(6)
O6O O 0.39162(15) -0.21274(15) 0.90670(6)
O6P O 0.39563(21) 0.60838(15) 0.90670(6)
O6Q O 1.21274(15) 0.60437(21) 0.90670(6)
O11I O 0.5061(2) 0.6903(2) 0.87271(7)
O11J O 1.1843(3) 0.4939(2) 0.87271(7)
O11K O 0.3097(2) -0.1843(3) 0.87271(7)
O12I O 0.4318(2) 0.6669(3) 0.85084(7)
O12J O 1.2352(4) 0.5682(2) 0.85084(7)
O12K O 0.3331(3) -0.2352(4) 0.85084(7)
O19_2 O 0.3333 -0.3333 0.93106(9)
O19_3 O 0.3333 0.6667 0.93106(9)
O20_2 O 0.3333 -0.3333 0.88149(10)
O20_3 O 0.3333 0.6667 0.88149(10)
loop_
_geom_bond_atom_site_label_1
_geom_bond_atom_site_label_2
_geom_bond_site_symmetry_1
_geom_bond_site_symmetry_2
Cd1 O9 1_555 1_555
Cd2 O10 1_555 1_555
Cd3 O1 1_555 1_555
Cd4 O1 1_555 1_555
Cd5 O7 1_555 1_555
O1 C1 1_555 1_555
O2 Cd3 1_555 1_555
O3 C32 1_555 1_555
O4 C32 1_555 1_555
O5 C66 1_555 1_555
O6 C66 1_555 1_555
O7 Cd4 1_555 1_555
O8 Cd5 1_555 1_555
O9 C65 1_555 1_555
O10 Cd1 1_555 1_555
O11 C57 1_555 1_555
O12 C57 1_555 1_555
O13 C6 1_555 1_555
O14 C18 1_555 1_555
O15 C25 1_555 1_555
O16 C36 1_555 1_555
O17 C50 1_555 1_555
O18 C58 1_555 1_555
C1 O2 1_555 1_555
C2 C1 1_555 1_555
C3 C2 1_555 1_555
H1 C3 1_555 1_555
C4 C3 1_555 1_555
H2 C4 1_555 1_555
C5 C4 1_555 1_555
H3 C5 1_555 1_555
C6 C5 1_555 1_555
C7 C2 1_555 1_555
H4 C7 1_555 1_555
C8 O13 1_555 1_555
H5 C8 1_555 1_555
H6 C8 1_555 1_555
C9 C8 1_555 1_555
C10 C9 1_555 1_555
C11 C10 1_555 1_555
C12 C11 1_555 1_555
C13 C12 1_555 1_555
C14 C9 1_555 1_555
C15 C14 1_555 1_555
H7 C15 1_555 1_555
H8 C15 1_555 1_555
H9 C15 1_555 1_555
C16 C10 1_555 1_555
H10 C16 1_555 1_555
H11 C16 1_555 1_555
H12 C16 1_555 1_555
C17 C12 1_555 1_555
H13 C17 1_555 1_555
H14 C17 1_555 1_555
H15 C17 1_555 1_555
C18 C13 1_555 1_555
H16 C18 1_555 1_555
H17 C18 1_555 1_555
C19 O14 1_555 1_555
C20 C19 1_555 1_555
H18 C20 1_555 1_555
C21 C20 1_555 1_555
H19 C21 1_555 1_555
C22 C21 1_555 1_555
H20 C22 1_555 1_555
C23 C22 1_555 1_555
C24 C19 1_555 1_555
H21 C24 1_555 1_555
C25 C11 1_555 1_555
H22 C25 1_555 1_555
H23 C25 1_555 1_555
C26 O15 1_555 1_555
C27 C26 1_555 1_555
H24 C27 1_555 1_555
C28 C27 1_555 1_555
H25 C28 1_555 1_555
C29 C28 1_555 1_555
H26 C29 1_555 1_555
C30 C29 1_555 1_555
C31 C26 1_555 1_555
H27 C31 1_555 1_555
C32 C30 1_555 1_555
C33 O7 1_555 1_555
C34 C33 1_555 1_555
C35 C34 1_555 1_555
H28 C35 1_555 1_555
C36 C35 1_555 1_555
C37 C36 1_555 1_555
H29 C37 1_555 1_555
C38 C37 1_555 1_555
H30 C38 1_555 1_555
C39 C34 1_555 1_555
H31 C39 1_555 1_555
C40 O16 1_555 1_555
H32 C40 1_555 1_555
H33 C40 1_555 1_555
C41 C40 1_555 1_555
C42 C41 1_555 1_555
C43 C42 1_555 1_555
C44 C43 1_555 1_555
C45 C44 1_555 1_555
C46 C41 1_555 1_555
C47 C46 1_555 1_555
H34 C47 1_555 1_555
H35 C47 1_555 1_555
H36 C47 1_555 1_555
C48 C42 1_555 1_555
H37 C48 1_555 1_555
H38 C48 1_555 1_555
H39 C48 1_555 1_555
C49 C44 1_555 1_555
H40 C49 1_555 1_555
H41 C49 1_555 1_555
H42 C49 1_555 1_555
C50 C43 1_555 1_555
H43 C50 1_555 1_555
H44 C50 1_555 1_555
C51 O17 1_555 1_555
C52 C51 1_555 1_555
H45 C52 1_555 1_555
C53 C52 1_555 1_555
C54 C53 1_555 1_555
H46 C54 1_555 1_555
C55 C54 1_555 1_555
H47 C55 1_555 1_555
C56 C51 1_555 1_555
H48 C56 1_555 1_555
C57 C53 1_555 1_555
C58 C45 1_555 1_555
H49 C58 1_555 1_555
H50 C58 1_555 1_555
C59 O18 1_555 1_555
C60 C59 1_555 1_555
H51 C60 1_555 1_555
C61 C60 1_555 1_555
C62 C61 1_555 1_555
H52 C62 1_555 1_555
C63 C62 1_555 1_555
H53 C63 1_555 1_555
C64 C59 1_555 1_555
H54 C64 1_555 1_555
C65 O10 1_555 1_555
C66 C23 1_555 1_555
O19 Cd1 1_555 1_555
O20 Cd2 1_555 1_555
O21 Cd3 1_555 1_555
C67 O21 1_555 1_555
H55 C67 1_555 1_555
N1 C67 1_555 1_555
C68 N1 1_555 1_555
H56 C68 1_555 1_555
H57 C68 1_555 1_555
H58 C68 1_555 1_555
C69 N1 1_555 1_555
H59 C69 1_555 1_555
H60 C69 1_555 1_555
H61 C69 1_555 1_555
O22 Cd5 1_555 1_555
O21A Cd3 1_555 1_555
C67A O21 1_555 1_555
H55A C67A 1_555 1_555
N1A C67A 1_555 1_555
C68A N1A 1_555 1_555
H56A C68A 1_555 1_555
H57A C68A 1_555 1_555
H58A C68A 1_555 1_555
C69A N1A 1_555 1_555
H59A C69A 1_555 1_555
H60A C69A 1_555 1_555
H61A C69A 1_555 1_555
O21B Cd3 1_555 1_555
C67B O21 1_555 1_555
H55B C67B 1_555 1_555
N1B C67B 1_555 1_555
C68B N1B 1_555 1_555
H56B C68B 1_555 1_555
H57B C68B 1_555 1_555
H58B C68B 1_555 1_555
C69B N1B 1_555 1_555
H59B C69B 1_555 1_555
H60B C69B 1_555 1_555
H61B C69B 1_555 1_555
Cd1A O9A 1_555 1_555
Cd2A O10A 1_555 1_555
O1A Cd3 1_555 1_555
O2A Cd3 1_555 1_555
O3A C32A 1_555 1_555
O4A C32A 1_555 1_555
O5A C66A 1_555 1_555
O6A C66A 1_555 1_555
O7A Cd4 1_555 1_555
O8A Cd5 1_555 1_555
O9A C65A 1_555 1_555
O10A Cd1A 1_555 1_555
O11A C57A 1_555 1_555
O12A C57A 1_555 1_555
O13A C6A 1_555 1_555
O14A C18A 1_555 1_555
O15A C25A 1_555 1_555
O16A C36A 1_555 1_555
O17A C50A 1_555 1_555
O18A C58A 1_555 1_555
C1A O1A 1_555 1_555
C2A C1A 1_555 1_555
C3A C2A 1_555 1_555
H1A C3A 1_555 1_555
C4A C3A 1_555 1_555
H2A C4A 1_555 1_555
C5A C4A 1_555 1_555
H3A C5A 1_555 1_555
C6A C5A 1_555 1_555
C7A C2A 1_555 1_555
H4A C7A 1_555 1_555
C8A O13A 1_555 1_555
H5A C8A 1_555 1_555
H6A C8A 1_555 1_555
C9A C8A 1_555 1_555
C10A C9A 1_555 1_555
C11A C10A 1_555 1_555
C12A C11A 1_555 1_555
C13A C12A 1_555 1_555
C14A C9A 1_555 1_555
C15A C14A 1_555 1_555
H7A C15A 1_555 1_555
H8A C15A 1_555 1_555
H9A C15A 1_555 1_555
C16A C10A 1_555 1_555
H10A C16A 1_555 1_555
H11A C16A 1_555 1_555
H12A C16A 1_555 1_555
C17A C12A 1_555 1_555
H13A C17A 1_555 1_555
H14A C17A 1_555 1_555
H15A C17A 1_555 1_555
C18A C13A 1_555 1_555
H16A C18A 1_555 1_555
H17A C18A 1_555 1_555
C19A O14A 1_555 1_555
C20A C19A 1_555 1_555
H18A C20A 1_555 1_555
C21A C20A 1_555 1_555
H19A C21A 1_555 1_555
C22A C21A 1_555 1_555
H20A C22A 1_555 1_555
C23A C22A 1_555 1_555
C24A C19A 1_555 1_555
H21A C24A 1_555 1_555
C25A C11A 1_555 1_555
H22A C25A 1_555 1_555
H23A C25A 1_555 1_555
C26A O15A 1_555 1_555
C27A C26A 1_555 1_555
H24A C27A 1_555 1_555
C28A C27A 1_555 1_555
H25A C28A 1_555 1_555
C29A C28A 1_555 1_555
H26A C29A 1_555 1_555
C30A C29A 1_555 1_555
C31A C26A 1_555 1_555
H27A C31A 1_555 1_555
C32A C30A 1_555 1_555
C33A O7A 1_555 1_555
C34A C33A 1_555 1_555
C35A C34A 1_555 1_555
H28A C35A 1_555 1_555
C36A C35A 1_555 1_555
C37A C36A 1_555 1_555
H29A C37A 1_555 1_555
C38A C37A 1_555 1_555
H30A C38A 1_555 1_555
C39A C34A 1_555 1_555
H31A C39A 1_555 1_555
C40A O16A 1_555 1_555
H32A C40A 1_555 1_555
H33A C40A 1_555 1_555
C41A C40A 1_555 1_555
C42A C41A 1_555 1_555
C43A C42A 1_555 1_555
C44A C43A 1_555 1_555
C45A C44A 1_555 1_555
C46A C41A 1_555 1_555
C47A C46A 1_555 1_555
H34A C47A 1_555 1_555
H35A C47A 1_555 1_555
H36A C47A 1_555 1_555
C48A C42A 1_555 1_555
H37A C48A 1_555 1_555
H38A C48A 1_555 1_555
H39A C48A 1_555 1_555
C49A C44A 1_555 1_555
H40A C49A 1_555 1_555
H41A C49A 1_555 1_555
H42A C49A 1_555 1_555
C50A C43A 1_555 1_555
H43A C50A 1_555 1_555
H44A C50A 1_555 1_555
C51A O17A 1_555 1_555
C52A C51A 1_555 1_555
H45A C52A 1_555 1_555
C53A C52A 1_555 1_555
C54A C53A 1_555 1_555
H46A C54A 1_555 1_555
C55A C54A 1_555 1_555
H47A C55A 1_555 1_555
C56A C51A 1_555 1_555
H48A C56A 1_555 1_555
C57A C53A 1_555 1_555
C58A C45A 1_555 1_555
H49A C58A 1_555 1_555
H50A C58A 1_555 1_555
C59A O18A 1_555 1_555
C60A C59A 1_555 1_555
H51A C60A 1_555 1_555
C61A C60A 1_555 1_555
C62A C61A 1_555 1_555
H52A C62A 1_555 1_555
C63A C62A 1_555 1_555
H53A C63A 1_555 1_555
C64A C59A 1_555 1_555
H54A C64A 1_555 1_555
C65A O10A 1_555 1_555
C66A C23A 1_555 1_555
Cd1B O9B 1_555 1_555
Cd2B O10B 1_555 1_555
O1B Cd3 1_555 1_555
O2B Cd3 1_555 1_555
O3B C32B 1_555 1_555
O4B C32B 1_555 1_555
O5B C66B 1_555 1_555
O6B C66B 1_555 1_555
O7B Cd4 1_555 1_555
O8B Cd5 1_555 1_555
O9B C65B 1_555 1_555
O10B Cd1B 1_555 1_555
O11B C57B 1_555 1_555
O12B C57B 1_555 1_555
O13B C6B 1_555 1_555
O14B C18B 1_555 1_555
O15B C25B 1_555 1_555
O16B C36B 1_555 1_555
O17B C50B 1_555 1_555
O18B C58B 1_555 1_555
C1B O1B 1_555 1_555
C2B C1B 1_555 1_555
C3B C2B 1_555 1_555
H1B C3B 1_555 1_555
C4B C3B 1_555 1_555
H2B C4B 1_555 1_555
C5B C4B 1_555 1_555
H3B C5B 1_555 1_555
C6B C5B 1_555 1_555
C7B C2B 1_555 1_555
H4B C7B 1_555 1_555
C8B O13B 1_555 1_555
H5B C8B 1_555 1_555
H6B C8B 1_555 1_555
C9B C8B 1_555 1_555
C10B C9B 1_555 1_555
C11B C10B 1_555 1_555
C12B C11B 1_555 1_555
C13B C12B 1_555 1_555
C14B C9B 1_555 1_555
C15B C14B 1_555 1_555
H7B C15B 1_555 1_555
H8B C15B 1_555 1_555
H9B C15B 1_555 1_555
C16B C10B 1_555 1_555
H10B C16B 1_555 1_555
H11B C16B 1_555 1_555
H12B C16B 1_555 1_555
C17B C12B 1_555 1_555
H13B C17B 1_555 1_555
H14B C17B 1_555 1_555
H15B C17B 1_555 1_555
C18B C13B 1_555 1_555
H16B C18B 1_555 1_555
H17B C18B 1_555 1_555
C19B O14B 1_555 1_555
C20B C19B 1_555 1_555
H18B C20B 1_555 1_555
C21B C20B 1_555 1_555
H19B C21B 1_555 1_555
C22B C21B 1_555 1_555
H20B C22B 1_555 1_555
C23B C22B 1_555 1_555
C24B C19B 1_555 1_555
H21B C24B 1_555 1_555
C25B C11B 1_555 1_555
H22B C25B 1_555 1_555
H23B C25B 1_555 1_555
C26B O15B 1_555 1_555
C27B C26B 1_555 1_555
H24B C27B 1_555 1_555
C28B C27B 1_555 1_555
H25B C28B 1_555 1_555
C29B C28B 1_555 1_555
H26B C29B 1_555 1_555
C30B C29B 1_555 1_555
C31B C26B 1_555 1_555
H27B C31B 1_555 1_555
C32B C30B 1_555 1_555
C33B O7B 1_555 1_555
C34B C33B 1_555 1_555
C35B C34B 1_555 1_555
H28B C35B 1_555 1_555
C36B C35B 1_555 1_555
C37B C36B 1_555 1_555
H29B C37B 1_555 1_555
C38B C37B 1_555 1_555
H30B C38B 1_555 1_555
C39B C34B 1_555 1_555
H31B C39B 1_555 1_555
C40B O16B 1_555 1_555
H32B C40B 1_555 1_555
H33B C40B 1_555 1_555
C41B C40B 1_555 1_555
C42B C41B 1_555 1_555
C43B C42B 1_555 1_555
C44B C43B 1_555 1_555
C45B C44B 1_555 1_555
C46B C41B 1_555 1_555
C47B C46B 1_555 1_555
H34B C47B 1_555 1_555
H35B C47B 1_555 1_555
H36B C47B 1_555 1_555
C48B C42B 1_555 1_555
H37B C48B 1_555 1_555
H38B C48B 1_555 1_555
H39B C48B 1_555 1_555
C49B C44B 1_555 1_555
H40B C49B 1_555 1_555
H41B C49B 1_555 1_555
H42B C49B 1_555 1_555
C50B C43B 1_555 1_555
H43B C50B 1_555 1_555
H44B C50B 1_555 1_555
C51B O17B 1_555 1_555
C52B C51B 1_555 1_555
H45B C52B 1_555 1_555
C53B C52B 1_555 1_555
C54B C53B 1_555 1_555
H46B C54B 1_555 1_555
C55B C54B 1_555 1_555
H47B C55B 1_555 1_555
C56B C51B 1_555 1_555
H48B C56B 1_555 1_555
C57B C53B 1_555 1_555
C58B C45B 1_555 1_555
H49B C58B 1_555 1_555
H50B C58B 1_555 1_555
C59B O18B 1_555 1_555
C60B C59B 1_555 1_555
H51B C60B 1_555 1_555
C61B C60B 1_555 1_555
C62B C61B 1_555 1_555
H52B C62B 1_555 1_555
C63B C62B 1_555 1_555
H53B C63B 1_555 1_555
C64B C59B 1_555 1_555
H54B C64B 1_555 1_555
C65B O10B 1_555 1_555
C66B C23B 1_555 1_555
Cd1A_2 O19 1_555 1_555
Cd1B_2 O19 1_555 1_555
Cd1I O6B 1_555 1_555
Cd1J O6A 1_555 1_555
Cd1K O6 1_555 1_555
Cd1L O3 1_555 1_555
Cd1M O3A 1_555 1_555
Cd1N O3 1_555 1_555
Cd2A_2 O20 1_555 1_555
Cd2B_2 O20 1_555 1_555
Cd2I O5A 1_555 1_555
Cd2I_2 O6B 1_555 1_555
Cd2J O6A 1_555 1_555
Cd2J_2 O5 1_555 1_555
Cd2K O5B 1_555 1_555
Cd2K_2 O6 1_555 1_555
Cd2O O11A 1_555 1_555
Cd2P O11 1_555 1_555
Cd2Q O11B 1_555 1_555
O3F Cd1B 1_555 1_555
O3F_2 Cd1 1_555 1_555
O3G Cd1A 1_555 1_555
O3G_2 Cd1 1_555 1_555
O3H Cd1B 1_555 1_555
O3H_2 Cd1A 1_555 1_555
O4F Cd1 1_555 1_555
O4G Cd1A 1_555 1_555
O4H Cd1B 1_555 1_555
O5O Cd2A 1_555 1_555
O5P Cd2 1_555 1_555
O5Q Cd2B 1_555 1_555
O6O Cd1B 1_555 1_555
O6P Cd1A 1_555 1_555
O6Q Cd1 1_555 1_555
O11I Cd2A 1_555 1_555
O11J Cd2 1_555 1_555
O11K Cd2B 1_555 1_555
O12I Cd2A 1_555 1_555
O12J Cd2 1_555 1_555
O12K Cd2B 1_555 1_555
O19_2 Cd1B 1_555 1_555
O19_3 Cd1A 1_555 1_555
O20_2 Cd2B 1_555 1_555
O20_3 Cd2A 1_555 1_555
Cd2 O6Q 1_555 1_555
Cd4 O1A 1_555 1_555
Cd4 O1B 1_555 1_555
Cd5 O7A 1_555 1_555
Cd5 O7B 1_555 1_555
O4 Cd1L 1_555 1_555
O8 C33 1_555 1_555
O12 Cd2P 1_555 1_555
C6 C7 1_555 1_555
C13 C14 1_555 1_555
C23 C24 1_555 1_555
C30 C31 1_555 1_555
C38 C39 1_555 1_555
C45 C46 1_555 1_555
C55 C56 1_555 1_555
C61 C65 1_555 1_555
C63 C64 1_555 1_555
O21 O21A 1_555 1_555
O21 O21B 1_555 1_555
C67 O21A 1_555 1_555
C67 O21B 1_555 1_555
O21A C67A 1_555 1_555
O21A O21B 1_555 1_555
O21A C67B 1_555 1_555
C67A O21B 1_555 1_555
O21B C67B 1_555 1_555
Cd2A O6P 1_555 1_555
O2A C1A 1_555 1_555
O3A Cd1L 1_555 1_555
O4A Cd1M 1_555 1_555
O8A C33A 1_555 1_555
O12A Cd2O 1_555 1_555
C6A C7A 1_555 1_555
C13A C14A 1_555 1_555
C23A C24A 1_555 1_555
C30A C31A 1_555 1_555
C38A C39A 1_555 1_555
C45A C46A 1_555 1_555
C55A C56A 1_555 1_555
C61A C65A 1_555 1_555
C63A C64A 1_555 1_555
Cd2B O6O 1_555 1_555
O2B C1B 1_555 1_555
O3B Cd1M 1_555 1_555
O3B Cd1N 1_555 1_555
O4B Cd1N 1_555 1_555
O8B C33B 1_555 1_555
O12B Cd2Q 1_555 1_555
C6B C7B 1_555 1_555
C13B C14B 1_555 1_555
C23B C24B 1_555 1_555
C30B C31B 1_555 1_555
C38B C39B 1_555 1_555
C45B C46B 1_555 1_555
C55B C56B 1_555 1_555
C61B C65B 1_555 1_555
C63B C64B 1_555 1_555
Cd1A_2 O3G_2 1_555 1_555
Cd1B_2 O3F_2 1_555 1_555

#END
