
#######################################################################
#
#                 Cambridge Crystallographic Data Centre
#                                CCDC 
#
#######################################################################
#
# If this CIF has been generated from an entry in the Cambridge 
# Structural Database, then it will include bibliographic, chemical, 
# crystal, experimental, refinement or atomic coordinate data resulting 
# from the CCDC's data processing and validation procedures.
#
#######################################################################

data_QIWHEL
_chemical_formula_moiety         '(C36 H42 Cd2 N6 O24 Ru1)n'
_symmetry_cell_setting           monoclinic
_symmetry_space_group_name_H-M   'P 21/c'
_symmetry_Int_Tables_number      14
_space_group_name_Hall           '-P 2ybc'
loop_
_symmetry_equiv_pos_site_id
_symmetry_equiv_pos_as_xyz
1 x,y,z
2 -x,1/2+y,1/2-z
3 -x,-y,-z
4 x,1/2-y,1/2+z
_cell_length_a                   12.085(3)
_cell_length_b                   19.169(5)
_cell_length_c                   24.119(6)
_cell_angle_alpha                90
_cell_angle_beta                 90.341(4)
_cell_angle_gamma                90
_cell_volume                     5587.25
loop_
_atom_site_label
_atom_site_type_symbol
_atom_site_fract_x
_atom_site_fract_y
_atom_site_fract_z
Cd1 Cd 0.00259(3) 0.567542(19) 0.737391(16)
Cd2 Cd -0.00493(9) 0.36420(5) 1.10041(5)
Ru1 Ru 0.50236(3) 0.33061(2) 0.856816(18)
O1 O 0.8487(5) 0.1386(3) 0.8062(4)
O2 O 0.9018(5) 0.1608(3) 0.7197(4)
O3 O 0.1080(4) 0.4741(3) 0.6974(3)
O4 O 0.1524(4) 0.5036(3) 0.7824(3)
O5 O 0.8662(6) 0.3718(4) 1.0035(3)
O6 O 0.8486(7) 0.2996(6) 1.0708(4)
O7 O 0.1588(5) 0.1627(3) 0.7711(3)
O8 O 0.1080(4) 0.0890(3) 0.8373(3)
O9 O 0.8543(4) 0.4867(3) 0.7611(3)
O10 O 0.9016(4) 0.5662(3) 0.8229(2)
O11 O 0.1450(7) 0.3112(5) 1.0055(5)
O12 O 0.1185(6) 0.4134(6) 1.0420(3)
O13 O -0.0974(10) 0.4694(8) 1.1047(4)
O14 O 0.0768(9) 0.2807(5) 1.1472(4)
N1 N 0.5952(4) 0.2876(3) 0.7937(3)
N2 N 0.4168(4) 0.3653(3) 0.7869(2)
N3 N 0.5910(5) 0.2872(3) 0.9215(3)
N4 N 0.4177(5) 0.2384(3) 0.8687(3)
N5 N 0.5864(4) 0.4247(3) 0.8577(2)
N6 N 0.4096(5) 0.3855(3) 0.9131(2)
C1 C 0.6837(5) 0.2439(4) 0.7989(4)
C2 C 0.7459(6) 0.2229(4) 0.7538(4)
C3 C 0.7216(6) 0.2484(5) 0.7013(4)
C4 C 0.6306(7) 0.2915(5) 0.6953(4)
C5 C 0.5672(5) 0.3086(4) 0.7414(3)
C6 C 0.4649(5) 0.3492(3) 0.7376(3)
C7 C 0.4174(6) 0.3700(4) 0.6873(3)
C8 C 0.3199(6) 0.4067(4) 0.6867(3)
C9 C 0.2707(5) 0.4245(3) 0.7373(3)
C10 C 0.3229(5) 0.4024(3) 0.7859(3)
C11 C 0.8403(6) 0.1702(4) 0.7616(4)
C12 C 0.1688(5) 0.4700(3) 0.7396(3)
C13 C 0.6789(6) 0.3156(4) 0.9483(3)
C14 C 0.7287(7) 0.2851(5) 0.9942(4)
C15 C 0.6896(8) 0.2213(6) 1.0135(4)
C16 C 0.6004(9) 0.1905(5) 0.9851(5)
C17 C 0.5523(6) 0.2239(4) 0.9404(4)
C18 C 0.4552(6) 0.1979(4) 0.9105(3)
C19 C 0.4041(7) 0.1351(4) 0.9240(4)
C20 C 0.3099(7) 0.1141(4) 0.8946(4)
C21 C 0.2712(6) 0.1560(4) 0.8521(3)
C22 C 0.3279(5) 0.2176(4) 0.8399(3)
C23 C 0.8233(7) 0.3226(6) 1.0240(4)
C24 C 0.1710(5) 0.1353(4) 0.8174(3)
C25 C 0.6805(5) 0.4400(3) 0.8309(3)
C26 C 0.7338(5) 0.5044(3) 0.8363(3)
C27 C 0.6872(5) 0.5552(4) 0.8702(3)
C28 C 0.5888(5) 0.5403(4) 0.8971(3)
C29 C 0.5403(5) 0.4754(3) 0.8905(3)
C30 C 0.4399(5) 0.4541(4) 0.9205(3)
C31 C 0.3797(6) 0.4990(4) 0.9548(3)
C32 C 0.2901(6) 0.4737(5) 0.9830(3)
C33 C 0.2607(6) 0.4035(5) 0.9774(3)
C34 C 0.3217(6) 0.3624(4) 0.9423(3)
C35 C 0.8387(5) 0.5185(4) 0.8037(3)
C36 C 0.1656(7) 0.3732(6) 1.0099(4)
H1 H 0.7034 0.2273 0.8348
H2 H 0.7662 0.2366 0.6703
H3 H 0.6113 0.3095 0.6599
H4 H 0.4528 0.3588 0.6533
H5 H 0.2862 0.4198 0.6526
H6 H 0.2899 0.4143 0.8203
H7 H 0.7079 0.3585 0.9349
H8 H 0.7223 0.1993 1.0449
H9 H 0.5729 0.1464 0.9968
H10 H 0.4330 0.1069 0.9530
H11 H 0.2732 0.0718 0.9036
H12 H 0.3020 0.2459 0.8102
H13 H 0.7121 0.4058 0.8073
H14 H 0.7221 0.5993 0.8748
H15 H 0.5548 0.5745 0.9199
H16 H 0.4008 0.5465 0.9585
H17 H 0.2482 0.5037 1.0062
H18 H 0.3008 0.3149 0.9382
Cd1_2 Cd 1.00259(3) 0.567542(19) 0.737391(16)
Cd1A Cd -0.00259(3) 0.067542(19) 0.762609(16)
Cd1A_2 Cd 0.99741(3) 0.067542(19) 0.762609(16)
Cd2_2 Cd 0.99507(9) 0.36420(5) 1.10041(5)
Cd2B Cd 1.00493(9) 0.63580(5) 0.89959(5)
O1A O 0.1513(5) 0.6386(3) 0.6938(4)
O2A O 0.0982(5) 0.6608(3) 0.7803(4)
O5_2 O -0.1338(6) 0.3718(4) 1.0035(3)
O6_2 O -0.1514(7) 0.2996(6) 1.0708(4)
O7A O -0.1588(5) 0.6627(3) 0.7289(3)
O8A O -0.1080(4) 0.5890(3) 0.6627(3)
O9_2 O -0.1457(4) 0.4867(3) 0.7611(3)
O10_2 O -0.0984(4) 0.5662(3) 0.8229(2)
O10B O 0.0984(4) 0.4338(3) 1.1771(2)
O15 O 0.3829(9) 0.6567(5) 0.9002(4)
O16 O 0.3581(7) 0.5638(4) 0.8176(4)
O17 O 0.5035(6) 0.5811(5) 0.7318(4)
O18 O 0.3524(8) 0.5864(5) 0.6454(5)
O19 O 0.276(2) 0.2929(12) 0.5530(12)
O20 O 0.3578(16) 0.5794(7) 0.4021(5)
O21 O 0.3502(6) 0.5238(4) 0.2989(3)
O22 O 0.3695(7) 0.3142(4) 0.2167(3)
O23 O 0.4231(11) 0.2788(6) 0.1091(4)
O24 O 0.0759(13) 0.5880(11) 0.1005(7)
loop_
_geom_bond_atom_site_label_1
_geom_bond_atom_site_label_2
_geom_bond_site_symmetry_1
_geom_bond_site_symmetry_2
Cd1 O3 1_555 1_555
Cd2 O12 1_555 1_555
Ru1 N1 1_555 1_555
O1 C11 1_555 1_555
O2 C11 1_555 1_555
O3 C12 1_555 1_555
O4 Cd1 1_555 1_555
O5 C23 1_555 1_555
O6 C23 1_555 1_555
O7 C24 1_555 1_555
O8 C24 1_555 1_555
O9 C35 1_555 1_555
O10 C35 1_555 1_555
O11 C36 1_555 1_555
O12 C36 1_555 1_555
O13 Cd2 1_555 1_555
O14 Cd2 1_555 1_555
N1 C1 1_555 1_555
N2 Ru1 1_555 1_555
N3 Ru1 1_555 1_555
N4 Ru1 1_555 1_555
N5 Ru1 1_555 1_555
N6 Ru1 1_555 1_555
C1 C2 1_555 1_555
C2 C3 1_555 1_555
C3 C4 1_555 1_555
C4 C5 1_555 1_555
C5 N1 1_555 1_555
C6 N2 1_555 1_555
C7 C6 1_555 1_555
C8 C7 1_555 1_555
C9 C8 1_555 1_555
C10 N2 1_555 1_555
C11 C2 1_555 1_555
C12 O4 1_555 1_555
C13 N3 1_555 1_555
C14 C13 1_555 1_555
C15 C14 1_555 1_555
C16 C15 1_555 1_555
C17 N3 1_555 1_555
C18 N4 1_555 1_555
C19 C18 1_555 1_555
C20 C19 1_555 1_555
C21 C20 1_555 1_555
C22 N4 1_555 1_555
C23 C14 1_555 1_555
C24 C21 1_555 1_555
C25 N5 1_555 1_555
C26 C25 1_555 1_555
C27 C26 1_555 1_555
C28 C27 1_555 1_555
C29 N5 1_555 1_555
C30 N6 1_555 1_555
C31 C30 1_555 1_555
C32 C31 1_555 1_555
C33 C32 1_555 1_555
C34 N6 1_555 1_555
C35 C26 1_555 1_555
C36 C33 1_555 1_555
H1 C1 1_555 1_555
H2 C3 1_555 1_555
H3 C4 1_555 1_555
H4 C7 1_555 1_555
H5 C8 1_555 1_555
H6 C10 1_555 1_555
H7 C13 1_555 1_555
H8 C15 1_555 1_555
H9 C16 1_555 1_555
H10 C19 1_555 1_555
H11 C20 1_555 1_555
H12 C22 1_555 1_555
H13 C25 1_555 1_555
H14 C27 1_555 1_555
H15 C28 1_555 1_555
H16 C31 1_555 1_555
H17 C32 1_555 1_555
H18 C34 1_555 1_555
Cd1_2 O9 1_555 1_555
Cd1A O7 1_555 1_555
Cd1A_2 O1 1_555 1_555
Cd2_2 O5 1_555 1_555
Cd2B O10 1_555 1_555
O1A Cd1 1_555 1_555
O2A Cd1 1_555 1_555
O5_2 Cd2 1_555 1_555
O6_2 Cd2 1_555 1_555
O7A Cd1 1_555 1_555
O8A Cd1 1_555 1_555
O9_2 Cd1 1_555 1_555
O10_2 Cd1 1_555 1_555
O10B Cd2 1_555 1_555
O2 Cd1A_2 1_555 1_555
O6 Cd2_2 1_555 1_555
O8 Cd1A 1_555 1_555
O10 Cd1_2 1_555 1_555
C5 C6 1_555 1_555
C9 C10 1_555 1_555
C9 C12 1_555 1_555
C16 C17 1_555 1_555
C17 C18 1_555 1_555
C21 C22 1_555 1_555
C28 C29 1_555 1_555
C29 C30 1_555 1_555
C33 C34 1_555 1_555

#END
