
#######################################################################
#
#                 Cambridge Crystallographic Data Centre
#                                CCDC 
#
#######################################################################
#
# If this CIF has been generated from an entry in the Cambridge 
# Structural Database, then it will include bibliographic, chemical, 
# crystal, experimental, refinement or atomic coordinate data resulting 
# from the CCDC's data processing and validation procedures.
#
#######################################################################

data_WEMCAU
_chemical_formula_moiety         '(C10 H18 O22 Yb2)n'
_symmetry_cell_setting           monoclinic
_symmetry_space_group_name_H-M   'P 21/n'
_symmetry_Int_Tables_number      14
_space_group_name_Hall           '-P 2yn'
loop_
_symmetry_equiv_pos_site_id
_symmetry_equiv_pos_as_xyz
1 x,y,z
2 1/2-x,1/2+y,1/2-z
3 -x,-y,-z
4 1/2+x,1/2-y,1/2+z
_cell_length_a                   9.5915(19)
_cell_length_b                   11.452(2)
_cell_length_c                   12.178(2)
_cell_angle_alpha                90
_cell_angle_beta                 98.96(3)
_cell_angle_gamma                90
_cell_volume                     1321.33
loop_
_atom_site_label
_atom_site_type_symbol
_atom_site_fract_x
_atom_site_fract_y
_atom_site_fract_z
Yb1 Yb 0.21574(3) 0.00984(3) 0.83351(2)
O1 O 0.1372(5) 0.2065(4) 0.8422(4)
O2 O 0.1753(5) 0.3917(4) 0.7920(4)
O3 O 0.3130(5) 0.1316(4) 0.7090(4)
O4 O 0.3630(5) 0.3159(4) 0.6688(4)
O5 O 0.1825(6) 0.0098(4) 1.0209(5)
O6 O 0.0327(6) -0.0060(3) 1.1447(4)
O7 O 0.3978(5) -0.1137(4) 0.9385(4)
O8 O 0.5898(5) -0.1178(4) 1.0686(4)
O9 O 0.0586(7) 0.0163(4) 0.6592(5)
H1 H 0.0521 0.0837 0.6363
H2 H 0.0905 -0.0269 0.6120
H3 H -0.0223 -0.0082 0.6688
C1 C 0.1951(7) 0.2836(5) 0.7913(5)
C2 C 0.3000(6) 0.2393(5) 0.7160(5)
C3 C 0.0646(8) 0.0007(4) 1.0467(6)
C4 C 0.4971(5) -0.0666(7) 1.0013(4)
Yb1B Yb -0.21574(3) -0.00984(3) 1.16649(2)
Yb1A Yb 0.28426(3) 0.50984(3) 0.66649(2)
Yb1B_2 Yb 0.78426(3) -0.00984(3) 1.16649(2)
Yb1A_2 Yb 0.28426(3) -0.49016(3) 0.66649(2)
O1A O 0.3628(5) 0.7065(4) 0.6578(4)
O1A_2 O 0.3628(5) -0.2935(4) 0.6578(4)
O2A O 0.3247(5) -0.1083(4) 0.7080(4)
O3A O 0.1870(5) 0.6316(4) 0.7910(4)
O3A_2 O 0.1870(5) -0.3684(4) 0.7910(4)
O4A O 0.1370(5) -0.1841(4) 0.8312(4)
O5B O -0.1825(6) -0.0098(4) 0.9791(5)
O5A O 0.3175(6) 0.5098(4) 0.4791(5)
O6B O -0.0327(6) 0.0060(3) 0.8553(4)
O6C O 0.5327(6) 0.5060(3) 0.6447(4)
O7B O 0.6022(5) 0.1137(4) 1.0615(4)
O7A O 0.1022(5) 0.3863(4) 0.5615(4)
O8B O 0.4102(5) 0.1178(4) 0.9314(4)
O8C O 0.0898(5) 0.6178(4) 0.5686(4)
O9A O 0.4414(7) 0.5163(4) 0.8408(5)
H1A H 0.4479 0.5837 0.8637
H2A H 0.4095 0.4731 0.8880
H3A H 0.5223 0.4918 0.8312
C1A C 0.3049(7) -0.2164(5) 0.7087(5)
C2A C 0.2000(6) -0.2607(5) 0.7840(5)
C3B C -0.0646(8) -0.0007(4) 0.9533(6)
C4B C 0.5029(5) 0.0666(7) 0.9987(4)
O10 O 0.6539(10) 0.1326(15) 0.7537(10)
H4 H 0.6376 0.0656 0.7717
C5 C 0.8093(11) 0.2470(13) 0.6632(10)
H5 H 0.8908 0.2427 0.6264
H6 H 0.8298 0.2960 0.7277
H7 H 0.7315 0.2793 0.6132
C6 C 0.7735(7) 0.1331(8) 0.6960(7)
H8 H 0.8540 0.0997 0.7438
H9 H 0.7531 0.0841 0.6305
O11 O 0.0852(9) -0.2851(7) 1.0328(6)
H10 H 0.1284 -0.2797 1.0990
H11 H -0.0033 -0.2820 1.0330
O12 O -0.0947(7) -0.1503(5) 0.5331(5)
H12 H -0.1695 -0.1736 0.5557
H13 H -0.0550 -0.2077 0.5062
O13 O 0.343(2) -0.0099(8) 0.4968(14)
H14 H 0.3059 -0.0467 0.5456
H15 H 0.2950 0.0512 0.4775
loop_
_geom_bond_atom_site_label_1
_geom_bond_atom_site_label_2
_geom_bond_site_symmetry_1
_geom_bond_site_symmetry_2
Yb1 O1 1_555 1_555
O1 C1 1_555 1_555
O2 C1 1_555 1_555
O3 Yb1 1_555 1_555
O4 C2 1_555 1_555
O5 Yb1 1_555 1_555
O6 C3 1_555 1_555
O7 Yb1 1_555 1_555
O8 C4 1_555 1_555
O9 Yb1 1_555 1_555
H1 O9 1_555 1_555
H2 O9 1_555 1_555
H3 O9 1_555 1_555
O10 H4 1_555 1_555
C1 C2 1_555 1_555
C2 O3 1_555 1_555
C3 O5 1_555 1_555
C4 O7 1_555 1_555
C5 H5 1_555 1_555
H6 C5 1_555 1_555
H7 C5 1_555 1_555
C6 O10 1_555 1_555
H8 C6 1_555 1_555
H9 C6 1_555 1_555
O11 H10 1_555 1_555
H11 O11 1_555 1_555
O12 H12 1_555 1_555
H13 O12 1_555 1_555
O13 H14 1_555 1_555
H15 O13 1_555 1_555
Yb1B O6 1_555 1_555
Yb1A O2 1_555 1_555
Yb1B_2 O8 1_555 1_555
Yb1A_2 O1A_2 1_555 1_555
O1A Yb1A 1_555 1_555
O1A_2 C1A 1_555 1_555
O2A Yb1 1_555 1_555
O3A Yb1A 1_555 1_555
O3A_2 Yb1A_2 1_555 1_555
O4A Yb1 1_555 1_555
O5B Yb1B 1_555 1_555
O5A Yb1A 1_555 1_555
O6B Yb1 1_555 1_555
O6C Yb1A 1_555 1_555
O7B Yb1B_2 1_555 1_555
O7A Yb1A 1_555 1_555
O8B Yb1 1_555 1_555
O8C Yb1A 1_555 1_555
O9A Yb1A 1_555 1_555
H1A O9A 1_555 1_555
H2A O9A 1_555 1_555
H3A O9A 1_555 1_555
C1A O2A 1_555 1_555
C2A O3A_2 1_555 1_555
C3B C3 1_555 1_555
C4B C4 1_555 1_555
O4 Yb1A 1_555 1_555
C5 C6 1_555 1_555
O4A C2A 1_555 1_555
O5B C3B 1_555 1_555
O6B C3B 1_555 1_555
O7B C4B 1_555 1_555
O8B C4B 1_555 1_555
C1A C2A 1_555 1_555

#END
