
#######################################################################
#
#                 Cambridge Crystallographic Data Centre
#                                CCDC 
#
#######################################################################
#
# If this CIF has been generated from an entry in the Cambridge 
# Structural Database, then it will include bibliographic, chemical, 
# crystal, experimental, refinement or atomic coordinate data resulting 
# from the CCDC's data processing and validation procedures.
#
#######################################################################

data_MIJHOD
_chemical_formula_moiety         '(C22 H22 Mg3 N1 O21 1-)n'
_symmetry_cell_setting           orthorhombic
_symmetry_space_group_name_H-M   'P b c n'
_symmetry_Int_Tables_number      60
_space_group_name_Hall           '-P 2n 2ab'
loop_
_symmetry_equiv_pos_site_id
_symmetry_equiv_pos_as_xyz
1 x,y,z
2 1/2-x,1/2-y,1/2+z
3 -x,y,1/2-z
4 1/2+x,1/2-y,-z
5 -x,-y,-z
6 1/2+x,1/2+y,1/2-z
7 x,-y,1/2+z
8 1/2-x,1/2+y,z
_cell_length_a                   18.8184(15)
_cell_length_b                   9.4843(8)
_cell_length_c                   17.3490(14)
_cell_angle_alpha                90
_cell_angle_beta                 90
_cell_angle_gamma                90
_cell_volume                     3096.44
loop_
_atom_site_label
_atom_site_type_symbol
_atom_site_fract_x
_atom_site_fract_y
_atom_site_fract_z
_atom_site_U_iso_or_equiv
_atom_site_thermal_displace_type
Mg1 Mg 0.25519(4) 0.26214(8) 0.30410(4) 0.0189 Uani
Mg2 Mg 0.0000 0.07076(11) 0.2500 0.0234 Uani
C1 C 0.15530(11) 0.3270(2) 0.12939(11) 0.0190 Uani
C2 C 0.13021(12) 0.2719(2) 0.06019(12) 0.0210 Uani
C3 C 0.15687(11) 0.3137(2) -0.01094(12) 0.0199 Uani
C4 C 0.20973(11) 0.4174(2) -0.01307(12) 0.0186 Uani
C5 C 0.23442(13) 0.4750(2) 0.05621(12) 0.0211 Uani
C6 C 0.20901(11) 0.4290(2) 0.12728(12) 0.0189 Uani
C7 C 0.24189(11) 0.4948(2) 0.19884(11) 0.0191 Uani
C8 C 0.12174(12) 0.2744(2) 0.20313(12) 0.0203 Uani
C9 C 0.12379(12) 0.2484(2) -0.08216(13) 0.0239 Uani
C10 C 0.24360(11) 0.4714(2) -0.08673(12) 0.0189 Uani
O1 O 0.15421(8) 0.29130(18) 0.26554(9) 0.0253 Uani
O2 O 0.06211(9) 0.2166(2) 0.19680(9) 0.0308 Uani
O3 O 0.07130(12) 0.1711(3) -0.07167(11) 0.0471 Uani
O4 O 0.14909(8) 0.27645(18) -0.14721(9) 0.0270 Uani
O5 O 0.28609(8) 0.39157(16) -0.12112(9) 0.0226 Uani
O6 O 0.22916(9) 0.59591(17) -0.10537(9) 0.0260 Uani
O7 O 0.22080(9) 0.61501(17) 0.21697(9) 0.0270 Uani
O8 O 0.28992(8) 0.42518(16) 0.23241(9) 0.0227 Uani
O9 O 0.06186(11) -0.0823(2) 0.19068(14) 0.0493 Uani
O10 O -0.07135(9) 0.0521(2) 0.15961(11) 0.0350 Uani
H8 H 0.0924(14) 0.201(3) 0.0622(13) 0.0180 Uiso
H9 H 0.2709(14) 0.544(3) 0.0542(13) 0.0180 Uiso
Mg1B Mg -0.25519(4) 0.26214(8) 0.19590(4) 0.0189 Uani
Mg1A Mg 0.24481(4) 0.23786(8) -0.19590(4) 0.0189 Uani
Mg1F Mg 0.25519(4) 0.73786(8) -0.19590(4) 0.0189 Uani
Mg1G Mg 0.24481(4) 0.76214(8) 0.30410(4) 0.0189 Uani
Mg1C Mg -0.24481(4) 0.23786(8) 0.69590(4) 0.0189 Uani
Mg1D Mg -0.25519(4) 0.73786(8) 0.69590(4) 0.0189 Uani
Mg1E Mg -0.24481(4) 0.76214(8) 0.19590(4) 0.0189 Uani
C1B C -0.15530(11) 0.3270(2) 0.37061(11) 0.0190 Uani
C2B C -0.13021(12) 0.2719(2) 0.43981(12) 0.0210 Uani
C3B C -0.15687(11) 0.3137(2) 0.51094(12) 0.0199 Uani
C4B C -0.20973(11) 0.4174(2) 0.51307(12) 0.0186 Uani
C5B C -0.23442(13) 0.4750(2) 0.44379(12) 0.0211 Uani
C6B C -0.20901(11) 0.4290(2) 0.37272(12) 0.0189 Uani
C7B C -0.24189(11) 0.4948(2) 0.30116(11) 0.0191 Uani
C8B C -0.12174(12) 0.2744(2) 0.29687(12) 0.0203 Uani
C9B C -0.12379(12) 0.2484(2) 0.58216(13) 0.0239 Uani
C10B C -0.24360(11) 0.4714(2) 0.58673(12) 0.0189 Uani
O1B O -0.15421(8) 0.29130(18) 0.23446(9) 0.0253 Uani
O2B O -0.06211(9) 0.2166(2) 0.30320(9) 0.0308 Uani
O3B O -0.07130(12) 0.1711(3) 0.57167(11) 0.0471 Uani
O4B O -0.14909(8) 0.27645(18) 0.64721(9) 0.0270 Uani
O4A O 0.35091(8) 0.22355(18) 0.35279(9) 0.0270 Uani
O4C O -0.35091(8) 0.22355(18) 0.14721(9) 0.0270 Uani
O5B O -0.28609(8) 0.39157(16) 0.62112(9) 0.0226 Uani
O5A O 0.21391(8) 0.10843(16) 0.37888(9) 0.0226 Uani
O5C O -0.21391(8) 0.10843(16) 0.12112(9) 0.0226 Uani
O6B O -0.22916(9) 0.59591(17) 0.60537(9) 0.0260 Uani
O6F O 0.22916(9) 0.40409(17) 0.39463(9) 0.0260 Uani
O6D O -0.22916(9) 0.40409(17) 0.10537(9) 0.0260 Uani
O7B O -0.22080(9) 0.61501(17) 0.28303(9) 0.0270 Uani
O7G O 0.27920(9) 0.11501(17) 0.21697(9) 0.0270 Uani
O7E O -0.27920(9) 0.11501(17) 0.28303(9) 0.0270 Uani
O8B O -0.28992(8) 0.42518(16) 0.26759(9) 0.0227 Uani
O9B O -0.06186(11) -0.0823(2) 0.30932(14) 0.0493 Uani
O10B O 0.07135(9) 0.0521(2) 0.34039(11) 0.0350 Uani
H8B H -0.0924(14) 0.201(3) 0.4378(13) 0.0180 Uiso
H9B H -0.2709(14) 0.544(3) 0.4458(13) 0.0180 Uiso
C11 C 0.0902(3) 0.2526(7) 0.5124(3) 0.1103 Uani
H1 H 0.1045 0.3291 0.5452 0.1650 Uiso
H2 H 0.1215 0.1740 0.5201 0.1650 Uiso
H3 H 0.0425 0.2253 0.5249 0.1650 Uiso
C12 C 0.0470(2) 0.4107(4) 0.4103(3) 0.0780 Uani
H4 H -0.0014 0.3789 0.4124 0.1170 Uiso
H5 H 0.0581 0.4406 0.3588 0.1170 Uiso
H6 H 0.0532 0.4884 0.4451 0.1170 Uiso
N1 N 0.09350(18) 0.2975(4) 0.4321(2) 0.0656 Uani
H7 H 0.1217 0.2582 0.3995 0.0790 Uiso
O11 O 0.56550(18) 0.8715(4) 0.7885(3) 0.1123 Uani
loop_
_atom_site_aniso_label
_atom_site_aniso_U_11
_atom_site_aniso_U_22
_atom_site_aniso_U_33
_atom_site_aniso_U_23
_atom_site_aniso_U_13
_atom_site_aniso_U_12
Mg1 0.0222(4) 0.0196(4) 0.0150(4) -0.0002(3) -0.0001(3) 0.0000(3)
Mg2 0.0211(5) 0.0247(6) 0.0244(5) 0.000 0.0014(4) 0.000
C1 0.0200(10) 0.0210(10) 0.0160(10) 0.0001(8) 0.0005(8) 0.0005(8)
C2 0.0210(11) 0.0218(10) 0.0202(11) -0.0012(8) 0.0004(8) -0.0036(8)
C3 0.0212(10) 0.0217(10) 0.0169(10) -0.0015(8) -0.0011(8) 0.0010(8)
C4 0.0223(10) 0.0176(10) 0.0158(10) 0.0010(7) 0.0014(8) 0.0005(8)
C5 0.0259(11) 0.0191(10) 0.0184(10) -0.0003(8) 0.0000(8) -0.0043(9)
C6 0.0218(10) 0.0190(10) 0.0159(10) -0.0012(7) -0.0004(8) 0.0000(8)
C7 0.0228(11) 0.0197(10) 0.0147(10) 0.0008(7) 0.0028(8) -0.0054(8)
C8 0.0211(10) 0.0215(10) 0.0183(10) 0.0022(8) 0.0018(8) 0.0006(8)
C9 0.0233(11) 0.0272(11) 0.0212(11) -0.0053(9) 0.0000(9) -0.0010(9)
C10 0.0215(10) 0.0214(10) 0.0138(9) -0.0004(8) -0.0016(8) -0.0038(8)
O1 0.0226(8) 0.0368(9) 0.0166(7) 0.0036(6) -0.0006(6) 0.0000(7)
O2 0.0261(9) 0.0422(10) 0.0241(8) 0.0064(7) 0.0007(7) -0.0115(7)
O3 0.0473(12) 0.0642(14) 0.0299(10) -0.0166(9) 0.0076(8) -0.0315(11)
O4 0.0236(8) 0.0401(10) 0.0173(8) -0.0027(7) -0.0003(6) 0.0021(7)
O5 0.0247(8) 0.0226(8) 0.0206(8) -0.0024(6) 0.0027(6) -0.0006(6)
O6 0.0343(9) 0.0217(8) 0.0220(8) 0.0051(6) 0.0060(7) 0.0023(7)
O7 0.0377(9) 0.0214(8) 0.0219(8) -0.0041(6) -0.0044(7) 0.0017(7)
O8 0.0234(8) 0.0255(8) 0.0192(8) 0.0026(6) -0.0014(6) -0.0009(6)
O9 0.0371(11) 0.0483(13) 0.0624(15) -0.0192(10) -0.0002(10) 0.0100(9)
O10 0.0269(9) 0.0402(10) 0.0379(10) -0.0100(8) -0.0059(8) 0.0015(8)
Mg1B 0.0222 0.0196 0.015 0.0002 -0.0001 0
Mg1A 0.0222 0.0196 0.015 0.0002 0.0001 0
Mg1F 0.0222 0.0196 0.015 0.0002 -0.0001 0
Mg1G 0.0222 0.0196 0.015 -0.0002 0.0001 0
Mg1C 0.0222 0.0196 0.015 -0.0002 0.0001 0
Mg1D 0.0222 0.0196 0.015 -0.0002 -0.0001 0
Mg1E 0.0222 0.0196 0.015 0.0002 0.0001 0
C1B 0.02 0.021 0.016 -0.0001 0.0005 -0.0005
C2B 0.021 0.0218 0.0202 0.0012 0.0004 0.0036
C3B 0.0212 0.0217 0.0169 0.0015 -0.0011 -0.001
C4B 0.0223 0.0176 0.0158 -0.001 0.0014 -0.0005
C5B 0.0259 0.0191 0.0184 0.0003 0 0.0043
C6B 0.0218 0.019 0.0159 0.0012 -0.0004 0
C7B 0.0228 0.0197 0.0147 -0.0008 0.0028 0.0054
C8B 0.0211 0.0215 0.0183 -0.0022 0.0018 -0.0006
C9B 0.0233 0.0272 0.0212 0.0053 0 0.001
C10B 0.0215 0.0214 0.0138 0.0004 -0.0016 0.0038
O1B 0.0226 0.0368 0.0166 -0.0036 -0.0006 0
O2B 0.0261 0.0422 0.0241 -0.0064 0.0007 0.0115
O3B 0.0473 0.0642 0.0299 0.0166 0.0076 0.0315
O4B 0.0236 0.0401 0.0173 0.0027 -0.0003 -0.0021
O4A 0.0236 0.0401 0.0173 0.0027 0.0003 0.0021
O4C 0.0236 0.0401 0.0173 -0.0027 0.0003 -0.0021
O5B 0.0247 0.0226 0.0206 0.0024 0.0027 0.0006
O5A 0.0247 0.0226 0.0206 0.0024 -0.0027 -0.0006
O5C 0.0247 0.0226 0.0206 -0.0024 -0.0027 0.0006
O6B 0.0343 0.0217 0.022 -0.0051 0.006 -0.0023
O6F 0.0343 0.0217 0.022 -0.0051 0.006 -0.0023
O6D 0.0343 0.0217 0.022 0.0051 0.006 0.0023
O7B 0.0377 0.0214 0.0219 0.0041 -0.0044 -0.0017
O7G 0.0377 0.0214 0.0219 -0.0041 0.0044 -0.0017
O7E 0.0377 0.0214 0.0219 0.0041 0.0044 0.0017
O8B 0.0234 0.0255 0.0192 -0.0026 -0.0014 0.0009
O9B 0.0371 0.0483 0.0624 0.0192 -0.0002 -0.01
O10B 0.0269 0.0402 0.0379 0.01 -0.0059 -0.0015
C11 0.103(4) 0.144(5) 0.084(4) 0.006(3) 0.042(3) -0.022(4)
C12 0.048(2) 0.066(3) 0.120(4) -0.026(3) 0.013(2) -0.0128(19)
N1 0.0557(19) 0.069(2) 0.072(2) -0.0181(17) 0.0239(15) -0.0073(16)
O11 0.066(2) 0.078(2) 0.193(4) -0.001(2) 0.009(2) -0.0117(18)
loop_
_geom_bond_atom_site_label_1
_geom_bond_atom_site_label_2
_geom_bond_site_symmetry_1
_geom_bond_site_symmetry_2
Mg1 O1 1_555 1_555
Mg2 O2 1_555 1_555
C1 C2 1_555 1_555
C2 C3 1_555 1_555
C3 C4 1_555 1_555
C4 C5 1_555 1_555
C5 C6 1_555 1_555
C6 C1 1_555 1_555
C7 C6 1_555 1_555
C8 C1 1_555 1_555
C9 C3 1_555 1_555
C10 C4 1_555 1_555
C11 H1 1_555 1_555
H2 C11 1_555 1_555
H3 C11 1_555 1_555
C12 H4 1_555 1_555
H5 C12 1_555 1_555
H6 C12 1_555 1_555
N1 C11 1_555 1_555
H7 N1 1_555 1_555
O1 C8 1_555 1_555
O2 C8 1_555 1_555
O3 C9 1_555 1_555
O4 C9 1_555 1_555
O5 C10 1_555 1_555
O6 C10 1_555 1_555
O7 C7 1_555 1_555
O8 Mg1 1_555 1_555
O9 Mg2 1_555 1_555
O10 Mg2 1_555 1_555
H8 C2 1_555 1_555
H9 C5 1_555 1_555
Mg1B O1B 1_555 1_555
Mg1A O4 1_555 1_555
Mg1F O6 1_555 1_555
Mg1G O7 1_555 1_555
Mg1C O4B 1_555 1_555
Mg1D O6B 1_555 1_555
Mg1E O7B 1_555 1_555
C1B C2B 1_555 1_555
C2B C3B 1_555 1_555
C3B C4B 1_555 1_555
C4B C5B 1_555 1_555
C5B C6B 1_555 1_555
C6B C1B 1_555 1_555
C7B C6B 1_555 1_555
C8B C1B 1_555 1_555
C9B C3B 1_555 1_555
C10B C4B 1_555 1_555
O1B C8B 1_555 1_555
O2B Mg2 1_555 1_555
O3B C9B 1_555 1_555
O4B C9B 1_555 1_555
O4A Mg1 1_555 1_555
O4C Mg1B 1_555 1_555
O5B Mg1C 1_555 1_555
O5A Mg1 1_555 1_555
O5C Mg1B 1_555 1_555
O6B C10B 1_555 1_555
O6F Mg1 1_555 1_555
O6D Mg1B 1_555 1_555
O7B C7B 1_555 1_555
O7G Mg1 1_555 1_555
O7E Mg1B 1_555 1_555
O8B Mg1B 1_555 1_555
O9B Mg2 1_555 1_555
O10B Mg2 1_555 1_555
H8B C2B 1_555 1_555
H9B C5B 1_555 1_555
C7 O8 1_555 1_555
C12 N1 1_555 1_555
O5 Mg1A 1_555 1_555
C7B O8B 1_555 1_555
C8B O2B 1_555 1_555
C10B O5B 1_555 1_555

#END
