
#######################################################################
#
#                 Cambridge Crystallographic Data Centre
#                                CCDC 
#
#######################################################################
#
# If this CIF has been generated from an entry in the Cambridge 
# Structural Database, then it will include bibliographic, chemical, 
# crystal, experimental, refinement or atomic coordinate data resulting 
# from the CCDC's data processing and validation procedures.
#
#######################################################################

data_LAVDOE
_chemical_formula_moiety         '(C28 H32 Cd2 N4 O14)n'
_symmetry_cell_setting           monoclinic
_symmetry_space_group_name_H-M   'C 2/c'
_symmetry_Int_Tables_number      15
_space_group_name_Hall           '-C 2yc'
loop_
_symmetry_equiv_pos_site_id
_symmetry_equiv_pos_as_xyz
1 x,y,z
2 -x,y,1/2-z
3 1/2+x,1/2+y,z
4 1/2-x,1/2+y,1/2-z
5 -x,-y,-z
6 x,-y,1/2+z
7 1/2-x,1/2-y,-z
8 1/2+x,1/2-y,1/2+z
_cell_length_a                   30.672(4)
_cell_length_b                   15.072(2)
_cell_length_c                   20.994(5)
_cell_angle_alpha                90
_cell_angle_beta                 129.553(2)
_cell_angle_gamma                90
_cell_volume                     7483.12
loop_
_atom_site_label
_atom_site_type_symbol
_atom_site_fract_x
_atom_site_fract_y
_atom_site_fract_z
Cd1 Cd 0.926840(15) 0.54719(3) 0.93213(2)
Cd2 Cd 0.761416(15) 0.79494(3) 0.59429(2)
O1 O 0.97992(17) 0.2828(3) 1.0458(3)
O2 O 0.93514(16) 0.4659(3) 0.8377(2)
O3 O 0.83356(17) 0.5532(3) 0.5811(3)
O4 O 0.78614(16) 0.6807(3) 0.5456(2)
N1 N 0.82245(18) 0.7058(3) 0.7023(3)
N2 N 0.86852(18) 0.4440(3) 0.9202(3)
C1 C 0.8497(2) 0.6976(4) 0.7839(3)
O5 O 0.89912(19) 0.4625(3) 0.7066(3)
H1 H 0.8815 0.4961 0.6668
N3 N 0.88217(17) 0.6247(3) 0.8169(3)
O6 O 0.8322(2) 0.9208(4) 0.9821(3)
C2 C 0.8447(2) 0.7596(4) 0.8331(3)
C3 C 0.8148(2) 0.4354(4) 0.8892(3)
O7 O 0.98181(15) 0.4195(3) 1.0070(2)
C4 C 0.7700(2) 0.5022(4) 0.8367(4)
C5 C 0.9052(2) 0.4987(4) 0.7678(4)
C6 C 0.8957(2) 0.3673(4) 0.9638(3)
C7 C 0.7349(2) 0.5301(5) 0.8539(4)
H2 H 0.7396 0.5070 0.8990
C8 C 0.8185(2) 0.6211(4) 0.5988(3)
C9 C 0.8393(2) 0.6341(4) 0.6830(3)
C10 C 0.8754(2) 0.5830(4) 0.7530(3)
C11 C 0.7622(2) 0.5367(4) 0.7687(4)
H3 H 0.7851 0.5175 0.7568
C12 C 0.9566(2) 0.3546(4) 1.0090(3)
C13 C 0.7851(3) 0.8469(5) 0.8490(4)
H4 H 0.7496 0.8676 0.8281
C14 C 0.7915(2) 0.7932(4) 0.8012(4)
H5 H 0.7600 0.7795 0.7473
C15 C 0.8915(3) 0.7820(5) 0.9126(4)
H6 H 0.9266 0.7590 0.9343
O8 O 0.6473(2) 0.6919(4) 0.6840(4)
C16 C 0.7202(3) 0.6003(5) 0.7181(4)
H7 H 0.7154 0.6240 0.6731
C17 C 0.8338(3) 0.8689(5) 0.9299(4)
C18 C 0.6857(3) 0.6276(5) 0.7362(4)
C19 C 0.8873(3) 0.8387(5) 0.9616(4)
H8 H 0.9194 0.8557 1.0140
C20 C 0.7787(3) 0.9516(6) 0.9538(5)
H9 H 0.7603 0.9836 0.9030
H10 H 0.7838 0.9902 0.9945
H11 H 0.7557 0.9019 0.9447
C21 C 0.6927(3) 0.5926(5) 0.8029(4)
H12 H 0.6692 0.6109 0.8139
C22 C 0.6126(4) 0.7273(7) 0.7016(6)
H13 H 0.5841 0.6848 0.6862
H14 H 0.5949 0.7810 0.6708
H15 H 0.6356 0.7398 0.7596
N4 N 0.80525(18) 0.3566(3) 0.9102(3)
O9 O 0.90952(17) 0.1848(3) 1.0331(3)
H16 H 0.9345 0.2213 1.0497
C23 C 0.8565(2) 0.3126(4) 0.9572(3)
C24 C 0.8612(2) 0.2243(4) 0.9898(3)
O10 O 0.81839(16) 0.1894(3) 0.9738(3)
O11 O 0.8249(2) 0.8836(4) 0.6021(4)
O12 O 0.95682(17) 0.6059(3) 1.0555(3)
C25 C 0.9262(3) 0.5838(6) 1.0851(4)
H17 H 0.9495 0.5970 1.1436
H18 H 0.9175 0.5209 1.0775
C26 C 0.8718(3) 0.6371(6) 1.0377(5)
H19 H 0.8805 0.6978 1.0556
H20 H 0.8478 0.6131 1.0479
H21 H 0.8528 0.6342 0.9797
H22 H 0.7990(4) 0.8437(10) 0.5767(13)
H23 H 0.8413(5) 0.863(2) 0.5839(10)
Cd1D Cd 1.073160(15) 0.45281(3) 1.06787(2)
Cd2C Cd 0.738584(15) 0.29494(3) 0.90571(2)
Cd2F Cd 0.738584(15) 0.70506(3) 0.40571(2)
O4F O 0.71386(16) 0.8193(3) 0.4544(2)
O7D O 1.01819(15) 0.5805(3) 0.9930(2)
N4C N 0.69475(18) 0.8566(3) 0.5898(3)
O10C O 0.68161(16) 0.6894(3) 0.5262(3)
O13 O 0.9200(3) 0.9352(5) 0.1611(4)
H24 H 0.947(2) 0.910(3) 0.2082(19)
O14 O 0.9267(3) 0.9204(7) 0.7436(4)
H25 H 0.9577 0.9115 0.7561
C27 C 0.9307(4) 0.9088(8) 0.8136(6)
H26 H 0.9392 0.8470 0.8304
H27 H 0.8943 0.9222 0.7988
C28 C 0.9749(6) 0.9657(11) 0.8853(9)
H28 H 1.0084 0.9312 0.9237
H29 H 0.9609 0.9879 0.9122
H30 H 0.9837 1.0147 0.8659
loop_
_geom_bond_atom_site_label_1
_geom_bond_atom_site_label_2
_geom_bond_site_symmetry_1
_geom_bond_site_symmetry_2
Cd1 O2 1_555 1_555
Cd2 O4 1_555 1_555
O1 C12 1_555 1_555
O2 C5 1_555 1_555
O3 C8 1_555 1_555
O4 C8 1_555 1_555
N1 Cd2 1_555 1_555
N2 Cd1 1_555 1_555
C1 N1 1_555 1_555
O5 H1 1_555 1_555
N3 Cd1 1_555 1_555
O6 C17 1_555 1_555
C2 C1 1_555 1_555
C3 N2 1_555 1_555
O7 Cd1 1_555 1_555
C4 C3 1_555 1_555
C5 O5 1_555 1_555
C6 N2 1_555 1_555
C7 C4 1_555 1_555
H2 C7 1_555 1_555
C8 C9 1_555 1_555
C9 N1 1_555 1_555
C10 N3 1_555 1_555
C11 C4 1_555 1_555
H3 C11 1_555 1_555
C12 O7 1_555 1_555
C13 H4 1_555 1_555
C14 C2 1_555 1_555
H5 C14 1_555 1_555
C15 C2 1_555 1_555
H6 C15 1_555 1_555
O8 C18 1_555 1_555
C16 C11 1_555 1_555
H7 C16 1_555 1_555
C17 C13 1_555 1_555
C18 C16 1_555 1_555
C19 C15 1_555 1_555
H8 C19 1_555 1_555
C20 O6 1_555 1_555
H9 C20 1_555 1_555
H10 C20 1_555 1_555
H11 C20 1_555 1_555
C21 C7 1_555 1_555
H12 C21 1_555 1_555
C22 O8 1_555 1_555
H13 C22 1_555 1_555
H14 C22 1_555 1_555
H15 C22 1_555 1_555
N4 C3 1_555 1_555
O9 H16 1_555 1_555
C23 C6 1_555 1_555
C24 O9 1_555 1_555
O10 C24 1_555 1_555
O11 Cd2 1_555 1_555
O12 Cd1 1_555 1_555
C25 O12 1_555 1_555
H17 C25 1_555 1_555
H18 C25 1_555 1_555
C26 C25 1_555 1_555
H19 C26 1_555 1_555
H20 C26 1_555 1_555
H21 C26 1_555 1_555
H22 O11 1_555 1_555
H23 O11 1_555 1_555
O13 H24 1_555 1_555
O14 H25 1_555 1_555
C27 O14 1_555 1_555
H26 C27 1_555 1_555
H27 C27 1_555 1_555
C28 C27 1_555 1_555
H28 C28 1_555 1_555
H29 C28 1_555 1_555
H30 C28 1_555 1_555
Cd1D O7 1_555 1_555
Cd2C N4 1_555 1_555
Cd2F O4 1_555 1_555
O4F Cd2 1_555 1_555
O7D Cd1 1_555 1_555
N4C Cd2 1_555 1_555
O10C Cd2 1_555 1_555
C1 N3 1_555 1_555
C5 C10 1_555 1_555
C6 C12 1_555 1_555
C9 C10 1_555 1_555
C13 C14 1_555 1_555
C17 C19 1_555 1_555
C18 C21 1_555 1_555
N4 C23 1_555 1_555
C23 C24 1_555 1_555
O10 Cd2C 1_555 1_555
Cd1D O7D 1_555 1_555
Cd2F O4F 1_555 1_555

#END
