
#######################################################################
#
#                 Cambridge Crystallographic Data Centre
#                                CCDC 
#
#######################################################################
#
# If this CIF has been generated from an entry in the Cambridge 
# Structural Database, then it will include bibliographic, chemical, 
# crystal, experimental, refinement or atomic coordinate data resulting 
# from the CCDC's data processing and validation procedures.
#
#######################################################################

data_UXEHIP
_chemical_formula_moiety         '(C37 H28 N4 O6 Zn1)n'
_symmetry_cell_setting           orthorhombic
_symmetry_space_group_name_H-M   'P 21 21 21'
_symmetry_Int_Tables_number      19
_space_group_name_Hall           'P 2ac 2ab'
loop_
_symmetry_equiv_pos_site_id
_symmetry_equiv_pos_as_xyz
1 x,y,z
2 1/2-x,-y,1/2+z
3 -x,1/2+y,1/2-z
4 1/2+x,1/2-y,-z
_cell_length_a                   11.683(10)
_cell_length_b                   15.571(14)
_cell_length_c                   26.71(2)
_cell_angle_alpha                90
_cell_angle_beta                 90
_cell_angle_gamma                90
_cell_volume                     4858.98
loop_
_atom_site_label
_atom_site_type_symbol
_atom_site_fract_x
_atom_site_fract_y
_atom_site_fract_z
_atom_site_U_iso_or_equiv
_atom_site_thermal_displace_type
Zn1 Zn 0.52804(6) 0.56649(5) 0.70428(3) 0.0706 Uani
N1 N 0.5937(5) 0.4545(4) 0.7154(2) 0.0803 Uani
N2 N 0.6479(6) 0.3328(5) 0.7557(3) 0.1070 Uani
N3 N 1.3481(4) 0.1488(4) 0.8078(2) 0.0767 Uani
N4 N 1.2041(6) 0.2175(5) 0.8442(3) 0.0950 Uani
O1 O 0.4194(3) 0.5911(3) 0.65102(16) 0.0693 Uani
O2 O 0.5425(4) 0.5181(4) 0.60624(15) 0.0920 Uani
O3 O 0.4965(4) 0.4751(3) 0.51659(14) 0.0893 Uani
H1 H 0.5285 0.4729 0.5439 0.1340 Uiso
O4 O 0.0241(4) 0.3877(3) 0.26801(16) 0.0917 Uani
O5 O 0.1520(5) 0.4904(4) 0.26333(17) 0.1067 Uani
O6 O 0.2888(4) 0.5216(3) 0.33336(16) 0.0983 Uani
H2 H 0.2575 0.5268 0.3060 0.1480 Uiso
C1 C 0.4506(7) 0.5577(5) 0.6105(3) 0.0690 Uani
C2 C 0.2985(6) 0.6329(5) 0.5646(3) 0.0747 Uani
H3 H 0.2822 0.6618 0.5942 0.0890 Uiso
C3 C 0.3847(6) 0.5762(5) 0.5639(3) 0.0720 Uani
C4 C 0.4075(6) 0.5329(4) 0.5188(3) 0.0690 Uani
C5 C 0.3480(6) 0.5443(4) 0.4749(2) 0.0637 Uani
C6 C 0.2572(7) 0.6025(5) 0.4757(3) 0.0777 Uani
C7 C 0.2332(6) 0.6500(5) 0.5227(3) 0.0727 Uani
C8 C 0.1536(7) 0.7148(5) 0.5243(3) 0.0900 Uani
H4 H 0.1436 0.7457 0.5538 0.1080 Uiso
C9 C 0.0877(7) 0.7349(5) 0.4827(3) 0.1093 Uani
H5 H 0.0333 0.7784 0.4839 0.1320 Uiso
C10 C 0.1061(7) 0.6872(6) 0.4385(3) 0.0960 Uani
H6 H 0.0621 0.6985 0.4102 0.1150 Uiso
C11 C 0.1883(7) 0.6245(5) 0.4368(3) 0.0863 Uani
H7 H 0.1976 0.5948 0.4069 0.1040 Uiso
C12 C 0.1076(7) 0.4289(6) 0.2870(3) 0.0813 Uani
C13 C 0.1047(7) 0.3402(5) 0.3636(2) 0.0877 Uani
H8 H 0.0448 0.3092 0.3494 0.1050 Uiso
C14 C 0.1499(7) 0.4098(5) 0.3397(2) 0.0713 Uani
C15 C 0.2416(7) 0.4531(5) 0.3587(3) 0.0803 Uani
C16 C 0.2809(6) 0.4397(5) 0.4065(3) 0.0763 Uani
C17 C 0.2375(7) 0.3680(5) 0.4314(3) 0.0883 Uani
C18 C 0.1504(7) 0.3167(5) 0.4096(3) 0.0930 Uani
C19 C 0.1019(7) 0.2480(5) 0.4353(3) 0.1097 Uani
H9 H 0.0398 0.2197 0.4211 0.1320 Uiso
C20 C 0.1414(8) 0.2208(5) 0.4801(3) 0.1257 Uani
H10 H 0.1073 0.1762 0.4978 0.1510 Uiso
C21 C 0.2401(8) 0.2659(6) 0.4983(3) 0.1197 Uani
H11 H 0.2814 0.2417 0.5245 0.1440 Uiso
C22 C 0.2761(6) 0.3418(5) 0.4794(3) 0.0967 Uani
H12 H 0.3257 0.3765 0.4976 0.1160 Uiso
C23 C 0.3712(6) 0.4924(4) 0.4284(2) 0.0747 Uani
H13 H 0.3968 0.5321 0.4027 0.0890 Uiso
H14 H 0.4352 0.4547 0.4357 0.0890 Uiso
C24 C 0.5880(6) 0.4064(5) 0.7554(3) 0.0947 Uani
H15 H 0.5438 0.4226 0.7828 0.1140 Uiso
C25 C 0.6668(7) 0.4045(6) 0.6865(3) 0.1107 Uani
H16 H 0.6882 0.4169 0.6537 0.1330 Uiso
C26 C 0.7025(9) 0.3352(6) 0.7127(4) 0.1207 Uani
H17 H 0.7568 0.2956 0.7020 0.1450 Uiso
C27 C 0.6585(7) 0.2694(5) 0.7940(3) 0.1013 Uani
H18 H 0.6322 0.2144 0.7814 0.1220 Uiso
H19 H 0.6109 0.2851 0.8223 0.1220 Uiso
C28 C 0.7780(9) 0.2621(6) 0.8102(3) 0.1017 Uani
C29 C 0.8350(7) 0.1853(6) 0.8139(3) 0.0993 Uani
H20 H 0.7991 0.1365 0.8015 0.1190 Uiso
C30 C 0.9432(8) 0.1759(6) 0.8350(3) 0.1053 Uani
H21 H 0.9748 0.1213 0.8381 0.1260 Uiso
C31 C 1.0038(8) 0.2462(7) 0.8512(3) 0.0947 Uani
C32 C 0.9490(9) 0.3240(7) 0.8479(3) 0.1203 Uani
H22 H 0.9862 0.3730 0.8593 0.1450 Uiso
C33 C 0.8404(9) 0.3313(6) 0.8282(3) 0.1137 Uani
H23 H 0.8072 0.3856 0.8269 0.1370 Uiso
C34 C 1.1128(7) 0.2353(6) 0.8760(3) 0.1040 Uani
H24 H 1.1301 0.2874 0.8945 0.1250 Uiso
H25 H 1.1061 0.1889 0.9001 0.1250 Uiso
C35 C 1.2381(7) 0.2678(6) 0.8040(4) 0.1083 Uani
H26 H 1.2054 0.3193 0.7937 0.1300 Uiso
C36 C 1.3261(7) 0.2283(5) 0.7831(3) 0.1017 Uani
H27 H 1.3678 0.2494 0.7562 0.1220 Uiso
C37 C 1.2720(6) 0.1532(6) 0.8441(3) 0.0883 Uani
H28 H 1.2678 0.1112 0.8688 0.1060 Uiso
Zn1A Zn -0.02804(6) 0.43351(5) 0.20428(3) 0.0706 Uani
Zn1B Zn 1.47196(6) 0.06649(5) 0.79572(3) 0.0706 Uani
N3B N 0.6519(4) 0.6488(4) 0.6922(2) 0.0767 Uani
O4A O 0.4759(4) 0.6123(3) 0.76801(16) 0.0917 Uani
loop_
_atom_site_aniso_label
_atom_site_aniso_U_11
_atom_site_aniso_U_22
_atom_site_aniso_U_33
_atom_site_aniso_U_23
_atom_site_aniso_U_13
_atom_site_aniso_U_12
Zn1 0.0832(5) 0.0699(5) 0.0587(4) 0.0045(5) -0.0010(5) 0.0047(5)
N1 0.087(4) 0.072(5) 0.082(5) 0.007(3) -0.009(3) 0.006(3)
N2 0.111(7) 0.075(5) 0.135(7) 0.023(5) -0.025(5) 0.002(4)
N3 0.062(4) 0.104(5) 0.064(5) 0.016(3) 0.008(3) 0.013(3)
N4 0.080(6) 0.108(6) 0.097(5) 0.001(4) 0.012(4) 0.025(4)
O1 0.096(3) 0.065(4) 0.047(3) 0.012(3) -0.010(3) 0.006(3)
O2 0.104(5) 0.112(5) 0.060(3) 0.005(3) -0.010(3) 0.014(4)
O3 0.114(4) 0.079(4) 0.075(3) -0.016(2) -0.016(3) 0.020(3)
O4 0.122(4) 0.080(4) 0.073(3) -0.005(3) -0.031(3) 0.003(4)
O5 0.155(5) 0.118(5) 0.047(3) 0.019(3) -0.015(3) -0.001(4)
O6 0.140(5) 0.090(4) 0.065(3) 0.005(3) -0.025(3) -0.021(3)
C1 0.090(7) 0.059(5) 0.058(5) 0.002(4) -0.003(4) 0.004(5)
C2 0.091(6) 0.062(6) 0.071(6) -0.009(4) -0.008(5) 0.004(5)
C3 0.070(5) 0.067(6) 0.079(5) -0.001(5) -0.016(4) 0.007(5)
C4 0.096(6) 0.048(5) 0.063(5) -0.004(4) -0.012(4) 0.013(4)
C5 0.091(6) 0.051(5) 0.049(4) 0.005(3) -0.003(4) 0.000(4)
C6 0.109(7) 0.064(6) 0.060(4) 0.000(3) -0.016(4) -0.003(4)
C7 0.090(6) 0.061(5) 0.067(4) 0.002(4) -0.001(4) 0.002(4)
C8 0.120(7) 0.072(6) 0.078(6) 0.003(4) -0.019(5) 0.020(4)
C9 0.148(8) 0.092(7) 0.088(7) -0.002(6) -0.033(6) 0.031(6)
C10 0.120(8) 0.084(7) 0.084(7) 0.009(6) -0.003(5) 0.006(6)
C11 0.119(8) 0.066(6) 0.074(4) 0.005(4) -0.020(4) 0.006(5)
C12 0.111(7) 0.084(6) 0.049(6) -0.009(5) -0.009(4) 0.014(5)
C13 0.134(7) 0.075(6) 0.054(4) -0.011(3) -0.021(4) -0.001(5)
C14 0.114(7) 0.076(6) 0.024(4) -0.019(3) -0.014(4) 0.004(5)
C15 0.114(7) 0.081(6) 0.046(5) 0.001(4) -0.001(4) 0.008(5)
C16 0.115(6) 0.063(6) 0.051(5) 0.001(5) -0.021(4) -0.008(6)
C17 0.143(7) 0.069(6) 0.053(4) 0.002(4) -0.035(4) -0.005(5)
C18 0.142(7) 0.072(6) 0.065(5) 0.006(3) -0.026(4) -0.014(4)
C19 0.165(8) 0.076(6) 0.088(6) 0.011(4) -0.042(5) -0.034(5)
C20 0.192(10) 0.081(7) 0.104(7) 0.034(5) -0.048(6) -0.038(6)
C21 0.182(10) 0.089(7) 0.088(6) 0.030(5) -0.055(5) -0.025(6)
C22 0.156(7) 0.077(6) 0.057(5) 0.015(4) -0.030(4) -0.006(5)
C23 0.124(6) 0.053(5) 0.047(4) 0.001(3) -0.022(4) -0.007(5)
C24 0.108(6) 0.079(6) 0.097(5) 0.018(4) -0.026(4) 0.006(4)
C25 0.133(8) 0.092(8) 0.107(6) -0.003(5) -0.011(4) 0.036(6)
C26 0.144(9) 0.088(8) 0.130(9) -0.009(7) -0.025(8) 0.040(6)
C27 0.098(7) 0.083(7) 0.123(7) 0.027(6) -0.038(6) -0.007(5)
C28 0.101(8) 0.078(7) 0.126(8) 0.023(6) -0.033(6) -0.005(5)
C29 0.080(7) 0.088(6) 0.130(8) 0.011(6) -0.022(5) 0.001(5)
C30 0.099(8) 0.092(8) 0.125(7) -0.004(6) -0.021(6) 0.020(6)
C31 0.090(9) 0.104(8) 0.090(6) 0.003(6) -0.019(5) 0.015(7)
C32 0.113(9) 0.105(9) 0.143(8) -0.002(6) -0.019(7) 0.008(7)
C33 0.107(8) 0.091(8) 0.143(8) 0.003(6) -0.035(6) 0.015(7)
C34 0.079(7) 0.121(8) 0.112(7) -0.003(6) -0.007(6) 0.027(6)
C35 0.102(7) 0.098(7) 0.125(8) 0.012(5) 0.030(6) 0.028(5)
C36 0.110(7) 0.081(6) 0.114(8) 0.011(5) 0.020(5) 0.011(6)
C37 0.073(6) 0.103(7) 0.089(6) 0.006(5) 0.022(4) 0.017(4)
Zn1A 0.0832 0.0699 0.0587 -0.0045 0.001 0.0047
Zn1B 0.0832 0.0699 0.0587 -0.0045 -0.001 -0.0047
N3B 0.062 0.104 0.064 -0.016 0.008 -0.013
O4A 0.122 0.08 0.073 0.005 0.031 0.003
loop_
_geom_bond_atom_site_label_1
_geom_bond_atom_site_label_2
_geom_bond_site_symmetry_1
_geom_bond_site_symmetry_2
Zn1 N1 1_555 1_555
N1 C24 1_555 1_555
N2 C24 1_555 1_555
N3 C36 1_555 1_555
N4 C34 1_555 1_555
O1 Zn1 1_555 1_555
O2 C1 1_555 1_555
O3 H1 1_555 1_555
O4 C12 1_555 1_555
O5 C12 1_555 1_555
O6 H2 1_555 1_555
C1 O1 1_555 1_555
C2 H3 1_555 1_555
C3 C1 1_555 1_555
C4 O3 1_555 1_555
C5 C4 1_555 1_555
C6 C5 1_555 1_555
C7 C2 1_555 1_555
C8 C7 1_555 1_555
H4 C8 1_555 1_555
C9 C8 1_555 1_555
H5 C9 1_555 1_555
C10 C9 1_555 1_555
H6 C10 1_555 1_555
C11 C6 1_555 1_555
H7 C11 1_555 1_555
C12 C14 1_555 1_555
C13 H8 1_555 1_555
C14 C13 1_555 1_555
C15 O6 1_555 1_555
C16 C15 1_555 1_555
C17 C16 1_555 1_555
C18 C13 1_555 1_555
C19 C18 1_555 1_555
H9 C19 1_555 1_555
C20 C19 1_555 1_555
H10 C20 1_555 1_555
C21 C20 1_555 1_555
H11 C21 1_555 1_555
C22 C17 1_555 1_555
H12 C22 1_555 1_555
C23 C5 1_555 1_555
H13 C23 1_555 1_555
H14 C23 1_555 1_555
C24 H15 1_555 1_555
C25 N1 1_555 1_555
H16 C25 1_555 1_555
C26 N2 1_555 1_555
H17 C26 1_555 1_555
C27 N2 1_555 1_555
H18 C27 1_555 1_555
H19 C27 1_555 1_555
C28 C27 1_555 1_555
C29 C28 1_555 1_555
H20 C29 1_555 1_555
C30 C29 1_555 1_555
H21 C30 1_555 1_555
C31 C30 1_555 1_555
C32 C31 1_555 1_555
H22 C32 1_555 1_555
C33 C28 1_555 1_555
H23 C33 1_555 1_555
C34 C31 1_555 1_555
H24 C34 1_555 1_555
H25 C34 1_555 1_555
C35 N4 1_555 1_555
H26 C35 1_555 1_555
C36 C35 1_555 1_555
H27 C36 1_555 1_555
C37 N3 1_555 1_555
H28 C37 1_555 1_555
Zn1A O4 1_555 1_555
Zn1B N3 1_555 1_555
N3B Zn1 1_555 1_555
O4A Zn1 1_555 1_555
N4 C37 1_555 1_555
C2 C3 1_555 1_555
C3 C4 1_555 1_555
C6 C7 1_555 1_555
C10 C11 1_555 1_555
C14 C15 1_555 1_555
C16 C23 1_555 1_555
C17 C18 1_555 1_555
C21 C22 1_555 1_555
C25 C26 1_555 1_555
C32 C33 1_555 1_555

#END
