
#######################################################################
#
#                 Cambridge Crystallographic Data Centre
#                                CCDC 
#
#######################################################################
#
# If this CIF has been generated from an entry in the Cambridge 
# Structural Database, then it will include bibliographic, chemical, 
# crystal, experimental, refinement or atomic coordinate data resulting 
# from the CCDC's data processing and validation procedures.
#
#######################################################################

data_ENESUN
_chemical_formula_moiety         '(C32 H44 Co2 Mo16 N24 O60)n'
_symmetry_cell_setting           orthorhombic
_symmetry_space_group_name_H-M   'C m c a'
_symmetry_Int_Tables_number      64
_space_group_name_Hall           '-C 2ac 2'
loop_
_symmetry_equiv_pos_site_id
_symmetry_equiv_pos_as_xyz
1 x,y,z
2 -x,1/2-y,1/2+z
3 x,-y,-z
4 1/2-x,y,1/2-z
5 1/2+x,1/2+y,z
6 1/2-x,-y,1/2+z
7 1/2+x,1/2-y,-z
8 -x,1/2+y,1/2-z
9 -x,-y,-z
10 x,1/2+y,1/2-z
11 -x,y,z
12 1/2+x,-y,1/2+z
13 1/2-x,1/2-y,-z
14 1/2+x,y,1/2-z
15 1/2-x,1/2+y,z
16 x,1/2-y,1/2+z
_cell_length_a                   27.0900(13)
_cell_length_b                   38.2760(13)
_cell_length_c                   19.1070(8)
_cell_angle_alpha                90
_cell_angle_beta                 90
_cell_angle_gamma                90
_cell_volume                     19812
loop_
_atom_site_label
_atom_site_type_symbol
_atom_site_fract_x
_atom_site_fract_y
_atom_site_fract_z
Co1 Co 0.5000 0.48789(3) 0.30238(6)
O19 O 0.5000 0.4852(2) 0.1908(4)
O20 O 0.4078(2) 0.38308(13) 0.1472(3)
N1 N 0.44646(19) 0.44708(13) 0.3021(3)
C1 C 0.3143(3) 0.30066(17) 0.0801(3)
H1 H 0.2860 0.3012 0.1078
Co2 Co 0.7500 0.7500 0.5000
O21 O 0.5000 0.48636(16) 0.4155(3)
O22 O 0.66551(19) 0.62922(13) 0.4041(3)
C2 C 0.3530(2) 0.32250(17) 0.0987(4)
N2 N 0.4440(2) 0.42373(14) 0.3563(3)
N3 N 0.4112(2) 0.40021(15) 0.3430(3)
C3 C 0.3561(3) 0.27858(18) -0.0131(4)
H2 H 0.3577 0.2635 -0.0511
O23 O 0.7432(3) 0.7740(2) 0.6048(3)
N4 N 0.3917(2) 0.40796(14) 0.2807(3)
C4 C 0.3965(3) 0.29964(19) 0.0012(4)
H3 H 0.4244 0.2986 -0.0270
N5 N 0.3461(2) 0.34317(15) 0.1590(3)
H4 H 0.3218 0.3375 0.1857
N6 N 0.3145(2) 0.27911(13) 0.0262(3)
N7 N 0.5589(2) 0.52519(13) 0.3062(3)
N8 N 0.6008(2) 0.59258(14) 0.4264(3)
H5 H 0.5783 0.5881 0.4570
N9 N 0.65068(19) 0.66594(12) 0.5244(3)
C5 C 0.3950(3) 0.32200(19) 0.0572(4)
H6 H 0.4216 0.3365 0.0672
N10 N 0.6642(2) 0.66921(13) 0.5925(3)
C6 C 0.3731(2) 0.37058(16) 0.1791(4)
N11 N 0.69647(19) 0.69456(14) 0.5949(3)
C7 C 0.3540(3) 0.38557(18) 0.2480(4)
H7 H 0.3244 0.3991 0.2393
H8 H 0.3455 0.3666 0.2795
N12 N 0.70351(19) 0.70790(13) 0.5301(3)
C8 C 0.4138(2) 0.43663(16) 0.2559(3)
H9 H 0.4072 0.4473 0.2132
C9 C 0.5937(3) 0.52672(18) 0.2570(4)
H10 H 0.5904 0.5126 0.2177
C10 C 0.6345(3) 0.5481(2) 0.2616(4)
H11 H 0.6588 0.5472 0.2273
C11 C 0.6392(3) 0.5708(2) 0.3168(4)
H12 H 0.6659 0.5860 0.3197
C12 C 0.5643(2) 0.54687(16) 0.3611(3)
H13 H 0.5408 0.5461 0.3965
C13 C 0.6034(2) 0.57051(16) 0.3678(3)
C14 C 0.6304(2) 0.62007(15) 0.4386(3)
C15 C 0.6139(2) 0.64068(15) 0.5042(3)
H14 H 0.5830 0.6526 0.4945
H15 H 0.6082 0.6245 0.5426
C16 C 0.6747(2) 0.68991(15) 0.4873(3)
H16 H 0.6717 0.6934 0.4394
O20J O 0.5922(2) 0.38308(13) 0.1472(3)
N1J N 0.55354(19) 0.44708(13) 0.3021(3)
C1J C 0.6857(3) 0.30066(17) 0.0801(3)
H1J H 0.7140 0.3012 0.1078
O22J O 0.33449(19) 0.62922(13) 0.4041(3)
C2J C 0.6470(2) 0.32250(17) 0.0987(4)
N2J N 0.5560(2) 0.42373(14) 0.3563(3)
N3J N 0.5888(2) 0.40021(15) 0.3430(3)
C3J C 0.6439(3) 0.27858(18) -0.0131(4)
H2J H 0.6423 0.2635 -0.0511
N4J N 0.6083(2) 0.40796(14) 0.2807(3)
C4J C 0.6035(3) 0.29964(19) 0.0012(4)
H3J H 0.5756 0.2986 -0.0270
N5J N 0.6539(2) 0.34317(15) 0.1590(3)
H4J H 0.6782 0.3375 0.1857
N6J N 0.6855(2) 0.27911(13) 0.0262(3)
N7J N 0.4411(2) 0.52519(13) 0.3062(3)
N8J N 0.3992(2) 0.59258(14) 0.4264(3)
H5J H 0.4217 0.5881 0.4570
N9J N 0.34932(19) 0.66594(12) 0.5244(3)
C5J C 0.6050(3) 0.32200(19) 0.0572(4)
H6J H 0.5784 0.3365 0.0672
N10J N 0.3358(2) 0.66921(13) 0.5925(3)
C6J C 0.6269(2) 0.37058(16) 0.1791(4)
N11J N 0.30353(19) 0.69456(14) 0.5949(3)
C7J C 0.6460(3) 0.38557(18) 0.2480(4)
H7J H 0.6756 0.3991 0.2393
H8J H 0.6545 0.3666 0.2795
N12J N 0.29649(19) 0.70790(13) 0.5301(3)
C8J C 0.5862(2) 0.43663(16) 0.2559(3)
H9J H 0.5928 0.4473 0.2132
C9J C 0.4063(3) 0.52672(18) 0.2570(4)
H10J H 0.4096 0.5126 0.2177
C10J C 0.3655(3) 0.5481(2) 0.2616(4)
H11J H 0.3412 0.5472 0.2273
C11J C 0.3608(3) 0.5708(2) 0.3168(4)
H12J H 0.3341 0.5860 0.3197
C12J C 0.4357(2) 0.54687(16) 0.3611(3)
H13J H 0.4592 0.5461 0.3965
C13J C 0.3966(2) 0.57051(16) 0.3678(3)
C14J C 0.3696(2) 0.62007(15) 0.4386(3)
C15J C 0.3861(2) 0.64068(15) 0.5042(3)
H14J H 0.4170 0.6526 0.4945
H15J H 0.3918 0.6245 0.5426
C16J C 0.3253(2) 0.68991(15) 0.4873(3)
H16J H 0.3283 0.6934 0.4394
O23L O 0.7568(3) 0.7260(2) 0.3952(3)
Co2E Co 0.7500 0.2500 0.0000
Co2F Co 0.2500 0.7500 0.5000
Co2G Co 0.2500 0.2500 0.0000
N6G N 0.6855(2) 0.77911(13) 0.4738(3)
N6K N 0.8145(2) 0.72089(13) 0.5262(3)
N12L N 0.79649(19) 0.79210(13) 0.4699(3)
O24 O 0.68185(15) 0.52109(10) 0.4492(2)
O25 O 0.60328(16) 0.47073(11) 0.4541(2)
O26 O 0.68278(16) 0.42388(10) 0.4514(2)
Mo7 Mo 0.66461(2) 0.470886(13) 0.43369(3)
O27 O 0.75042(19) 0.41045(12) 0.3459(2)
Mo8 Mo 0.75032(2) 0.410782(14) 0.43540(3)
O28 O 0.75308(19) 0.36827(11) 0.4599(2)
Mo9 Mo 0.750758(19) 0.470359(13) 0.57202(3)
O29 O 0.81809(17) 0.42407(11) 0.4505(3)
Mo10 Mo 0.83618(2) 0.471109(15) 0.43200(3)
O30 O 0.8336(2) 0.47138(13) 0.3430(3)
O31 O 0.89762(19) 0.47045(15) 0.4518(3)
O32 O 0.82050(16) 0.52133(11) 0.4483(2)
O33 O 0.75140(16) 0.42619(11) 0.5509(2)
O34 O 0.75111(19) 0.47091(12) 0.6606(2)
O35 O 0.66737(18) 0.47178(12) 0.3449(2)
O36 O 0.75142(15) 0.47418(11) 0.4472(2)
O24B O 0.68185(15) 0.47891(10) 0.5508(2)
O25B O 0.60328(16) 0.52927(11) 0.5459(2)
O26B O 0.68278(16) 0.57612(10) 0.5486(2)
Mo7B Mo 0.66461(2) 0.529114(13) 0.56631(3)
O27B O 0.75042(19) 0.58955(12) 0.6541(2)
Mo8B Mo 0.75032(2) 0.589218(14) 0.56460(3)
O28B O 0.75308(19) 0.63173(11) 0.5401(2)
Mo9B Mo 0.750758(19) 0.529641(13) 0.42798(3)
O29B O 0.81809(17) 0.57593(11) 0.5495(3)
Mo10B Mo 0.83618(2) 0.528891(15) 0.56800(3)
O30B O 0.8336(2) 0.52862(13) 0.6570(3)
O31B O 0.89762(19) 0.52955(15) 0.5482(3)
O32B O 0.82050(16) 0.47867(11) 0.5517(2)
O33B O 0.75140(16) 0.57381(11) 0.4491(2)
O34B O 0.75111(19) 0.52909(12) 0.3394(2)
O35B O 0.66737(18) 0.52822(12) 0.6551(2)
O36B O 0.75142(15) 0.52582(11) 0.5528(2)
Mo1 Mo 0.5000 0.775117(18) 0.35048(3)
Mo2 Mo 0.585605(19) 0.775901(13) 0.21198(3)
Mo3 Mo 0.5000 0.716949(18) 0.20480(3)
Mo4 Mo 0.584675(19) 0.716365(13) 0.34415(3)
Mo5 Mo 0.5000 0.655824(19) 0.33908(4)
Mo6 Mo 0.5000 0.836847(18) 0.21791(4)
O1 O 0.5000 0.77335(16) 0.4392(3)
O2 O 0.5000 0.81984(14) 0.3319(3)
O3 O 0.58070(17) 0.71524(12) 0.4335(2)
O4 O 0.5000 0.87860(14) 0.2449(3)
O5 O 0.64688(16) 0.77601(12) 0.2318(2)
O6 O 0.64637(16) 0.71441(11) 0.3260(2)
O7 O 0.43268(16) 0.82231(10) 0.2317(2)
O8 O 0.58274(17) 0.77493(12) 0.1233(2)
O9 O 0.5000 0.65558(17) 0.4300(3)
O10 O 0.5000 0.67229(15) 0.2244(3)
O11 O 0.5000 0.71852(16) 0.1161(3)
O12 O 0.5000 0.61344(16) 0.3154(4)
O13 O 0.5000 0.71980(14) 0.3294(3)
O14 O 0.56743(16) 0.66895(10) 0.3236(2)
O15 O 0.56959(15) 0.72480(10) 0.2253(2)
O16 O 0.56954(15) 0.76626(10) 0.3302(2)
O17 O 0.5000 0.77106(14) 0.2261(3)
O18 O 0.5000 0.83879(16) 0.1290(3)
Mo2J Mo 0.414395(19) 0.775901(13) 0.21198(3)
Mo4J Mo 0.415325(19) 0.716365(13) 0.34415(3)
O3J O 0.41930(17) 0.71524(12) 0.4335(2)
O5J O 0.35312(16) 0.77601(12) 0.2318(2)
O6J O 0.35363(16) 0.71441(11) 0.3260(2)
O7J O 0.56732(16) 0.82231(10) 0.2317(2)
O8J O 0.41726(17) 0.77493(12) 0.1233(2)
O14J O 0.43257(16) 0.66895(10) 0.3236(2)
O15J O 0.43041(15) 0.72480(10) 0.2253(2)
O16J O 0.43046(15) 0.76626(10) 0.3302(2)
loop_
_geom_bond_atom_site_label_1
_geom_bond_atom_site_label_2
_geom_bond_site_symmetry_1
_geom_bond_site_symmetry_2
Mo1 O1 1_555 1_555
Mo2 O5 1_555 1_555
Mo3 O10 1_555 1_555
Mo4 O3 1_555 1_555
Mo5 O9 1_555 1_555
Mo6 O2 1_555 1_555
O2 Mo1 1_555 1_555
O4 Mo6 1_555 1_555
O6 Mo4 1_555 1_555
O7 Mo6 1_555 1_555
O8 Mo2 1_555 1_555
O10 Mo5 1_555 1_555
O11 Mo3 1_555 1_555
O12 Mo5 1_555 1_555
O13 Mo1 1_555 1_555
O14 Mo4 1_555 1_555
O15 Mo2 1_555 1_555
O16 Mo1 1_555 1_555
O17 Mo1 1_555 1_555
O18 Mo6 1_555 1_555
Co1 O19 1_555 1_555
O20 C6 1_555 1_555
N1 Co1 1_555 1_555
C1 H1 1_555 1_555
Co2 O23 1_555 1_555
O21 Co1 1_555 1_555
O22 C14 1_555 1_555
C2 C1 1_555 1_555
N2 N1 1_555 1_555
N3 N2 1_555 1_555
C3 H2 1_555 1_555
N4 N3 1_555 1_555
C4 C3 1_555 1_555
H3 C4 1_555 1_555
N5 C2 1_555 1_555
H4 N5 1_555 1_555
N6 C1 1_555 1_555
N7 Co1 1_555 1_555
N8 H5 1_555 1_555
N9 N10 1_555 1_555
C5 C2 1_555 1_555
H6 C5 1_555 1_555
N10 N11 1_555 1_555
C6 N5 1_555 1_555
N11 N12 1_555 1_555
C7 N4 1_555 1_555
H7 C7 1_555 1_555
H8 C7 1_555 1_555
N12 Co2 1_555 1_555
C8 N1 1_555 1_555
H9 C8 1_555 1_555
C9 N7 1_555 1_555
H10 C9 1_555 1_555
C10 C9 1_555 1_555
H11 C10 1_555 1_555
C11 C10 1_555 1_555
H12 C11 1_555 1_555
C12 N7 1_555 1_555
H13 C12 1_555 1_555
C13 N8 1_555 1_555
C14 N8 1_555 1_555
C15 N9 1_555 1_555
H14 C15 1_555 1_555
H15 C15 1_555 1_555
C16 N9 1_555 1_555
H16 C16 1_555 1_555
O24 Mo7 1_555 1_555
O25 Mo7 1_555 1_555
O26 Mo7 1_555 1_555
Mo7 O35 1_555 1_555
O27 Mo8 1_555 1_555
Mo8 O26 1_555 1_555
O28 Mo8 1_555 1_555
Mo9 O33 1_555 1_555
O29 Mo8 1_555 1_555
Mo10 O29 1_555 1_555
O30 Mo10 1_555 1_555
O31 Mo10 1_555 1_555
O32 Mo10 1_555 1_555
O33 Mo8 1_555 1_555
O34 Mo9 1_555 1_555
O36 Mo7 1_555 1_555
Mo2J O7 1_555 1_555
Mo4J O13 1_555 1_555
O3J Mo4J 1_555 1_555
O5J Mo2J 1_555 1_555
O6J Mo4J 1_555 1_555
O7J Mo2 1_555 1_555
O8J Mo2J 1_555 1_555
O14J Mo5 1_555 1_555
O15J Mo3 1_555 1_555
O16J Mo1 1_555 1_555
O20J C6J 1_555 1_555
N1J Co1 1_555 1_555
C1J H1J 1_555 1_555
O22J C14J 1_555 1_555
C2J C1J 1_555 1_555
N2J N1J 1_555 1_555
N3J N2J 1_555 1_555
C3J H2J 1_555 1_555
N4J N3J 1_555 1_555
C4J C3J 1_555 1_555
H3J C4J 1_555 1_555
N5J C2J 1_555 1_555
H4J N5J 1_555 1_555
N6J C1J 1_555 1_555
N7J Co1 1_555 1_555
N8J H5J 1_555 1_555
N9J N10J 1_555 1_555
C5J C2J 1_555 1_555
H6J C5J 1_555 1_555
N10J N11J 1_555 1_555
C6J N5J 1_555 1_555
N11J N12J 1_555 1_555
C7J N4J 1_555 1_555
H7J C7J 1_555 1_555
H8J C7J 1_555 1_555
N12J C16J 1_555 1_555
C8J N1J 1_555 1_555
H9J C8J 1_555 1_555
C9J N7J 1_555 1_555
H10J C9J 1_555 1_555
C10J C9J 1_555 1_555
H11J C10J 1_555 1_555
C11J C10J 1_555 1_555
H12J C11J 1_555 1_555
C12J N7J 1_555 1_555
H13J C12J 1_555 1_555
C13J N8J 1_555 1_555
C14J N8J 1_555 1_555
C15J N9J 1_555 1_555
H14J C15J 1_555 1_555
H15J C15J 1_555 1_555
C16J N9J 1_555 1_555
H16J C16J 1_555 1_555
O23L Co2 1_555 1_555
Co2E N6J 1_555 1_555
Co2F N12J 1_555 1_555
Co2G N6 1_555 1_555
N6G Co2 1_555 1_555
N6K Co2 1_555 1_555
N12L Co2 1_555 1_555
O24B Mo7 1_555 1_555
O25B Mo7B 1_555 1_555
O26B Mo7B 1_555 1_555
Mo7B O24 1_555 1_555
O27B Mo8B 1_555 1_555
Mo8B O26B 1_555 1_555
O28B Mo8B 1_555 1_555
Mo9B O24 1_555 1_555
O29B Mo8B 1_555 1_555
Mo10B O32 1_555 1_555
O30B Mo10B 1_555 1_555
O31B Mo10B 1_555 1_555
O32B Mo9 1_555 1_555
O33B Mo8B 1_555 1_555
O34B Mo9B 1_555 1_555
O35B Mo7B 1_555 1_555
O36B Mo9 1_555 1_555
Mo2 O16 1_555 1_555
Mo2 O17 1_555 1_555
Mo3 O13 1_555 1_555
Mo3 O15 1_555 1_555
Mo3 O17 1_555 1_555
Mo4 O13 1_555 1_555
Mo4 O15 1_555 1_555
Mo4 O16 1_555 1_555
Mo5 O13 1_555 1_555
Mo5 O14 1_555 1_555
Mo6 O17 1_555 1_555
Mo6 O7J 1_555 1_555
O17 Mo2J 1_555 1_555
C3 N6 1_555 1_555
N4 C8 1_555 1_555
C4 C5 1_555 1_555
C6 C7 1_555 1_555
N12 C16 1_555 1_555
C11 C13 1_555 1_555
C12 C13 1_555 1_555
C14 C15 1_555 1_555
Mo8 O36 1_555 1_555
Mo9 O36 1_555 1_555
Mo9 O24B 1_555 1_555
Mo10 O36 1_555 1_555
Mo10 O32B 1_555 1_555
O32 Mo9B 1_555 1_555
O36 Mo9B 1_555 1_555
Mo2J O15J 1_555 1_555
Mo2J O16J 1_555 1_555
Mo4J O14J 1_555 1_555
Mo4J O15J 1_555 1_555
Mo4J O16J 1_555 1_555
C3J N6J 1_555 1_555
N4J C8J 1_555 1_555
C4J C5J 1_555 1_555
C6J C7J 1_555 1_555
C11J C13J 1_555 1_555
C12J C13J 1_555 1_555
C14J C15J 1_555 1_555
O24B Mo7B 1_555 1_555
Mo7B O36B 1_555 1_555
Mo8B O36B 1_555 1_555
Mo9B O33B 1_555 1_555
Mo9B O36B 1_555 1_555
O29B Mo10B 1_555 1_555
Mo10B O32B 1_555 1_555
Mo10B O36B 1_555 1_555

#END
