
#######################################################################
#
#                 Cambridge Crystallographic Data Centre
#                                CCDC 
#
#######################################################################
#
# If this CIF has been generated from an entry in the Cambridge 
# Structural Database, then it will include bibliographic, chemical, 
# crystal, experimental, refinement or atomic coordinate data resulting 
# from the CCDC's data processing and validation procedures.
#
#######################################################################

data_ENESOH
_chemical_formula_moiety         '(C32 H38 Cu2 Mo16 N24 O57)n'
_symmetry_cell_setting           orthorhombic
_symmetry_space_group_name_H-M   'C m c a'
_symmetry_Int_Tables_number      64
_space_group_name_Hall           '-C 2ac 2'
loop_
_symmetry_equiv_pos_site_id
_symmetry_equiv_pos_as_xyz
1 x,y,z
2 -x,1/2-y,1/2+z
3 x,-y,-z
4 1/2-x,y,1/2-z
5 1/2+x,1/2+y,z
6 1/2-x,-y,1/2+z
7 1/2+x,1/2-y,-z
8 -x,1/2+y,1/2-z
9 -x,-y,-z
10 x,1/2+y,1/2-z
11 -x,y,z
12 1/2+x,-y,1/2+z
13 1/2-x,1/2-y,-z
14 1/2+x,y,1/2-z
15 1/2-x,1/2+y,z
16 x,1/2-y,1/2+z
_cell_length_a                   26.9829(10)
_cell_length_b                   37.6059(15)
_cell_length_c                   19.3314(7)
_cell_angle_alpha                90
_cell_angle_beta                 90
_cell_angle_gamma                90
_cell_volume                     19615.9
loop_
_atom_site_label
_atom_site_type_symbol
_atom_site_fract_x
_atom_site_fract_y
_atom_site_fract_z
Cu1 Cu 0.5000 0.48616(3) 0.80491(7)
C1 C 0.3114(3) 0.29916(18) 0.5829(4)
H1 H 0.2830 0.2998 0.6102
N1 N 0.3124(2) 0.27791(15) 0.5273(3)
O19 O 0.6664(2) 0.62715(15) 0.9011(3)
O20 O 0.5000 0.48494(19) 0.9260(4)
Cu2 Cu 0.2500 0.2500 0.5000
C2 C 0.3527(3) 0.27782(19) 0.4886(4)
H2 H 0.3535 0.2631 0.4500
N2 N 0.5552(2) 0.52302(16) 0.8067(3)
O21 O 0.4071(2) 0.38188(16) 0.6489(3)
C3 C 0.3938(3) 0.2987(2) 0.5031(4)
H3 H 0.4215 0.2980 0.4744
N3 N 0.4479(2) 0.44699(15) 0.8030(3)
C4 C 0.3932(3) 0.3207(2) 0.5606(4)
H4 H 0.4200 0.3352 0.5713
N4 N 0.3454(2) 0.34075(17) 0.6620(3)
H5 H 0.3218 0.3344 0.6892
N5 N 0.3925(3) 0.40752(17) 0.7811(4)
C5 C 0.3517(3) 0.32038(19) 0.6009(4)
C6 C 0.3730(3) 0.36943(18) 0.6821(4)
N6 N 0.4101(2) 0.40051(17) 0.8449(3)
N7 N 0.4438(2) 0.42391(17) 0.8576(3)
C7 C 0.3535(3) 0.3854(2) 0.7493(5)
H6 H 0.3244 0.3998 0.7399
H7 H 0.3440 0.3665 0.7809
N8 N 0.6016(2) 0.59027(17) 0.9257(4)
H8 H 0.5806 0.5853 0.9577
C8 C 0.4160(3) 0.43647(19) 0.7563(4)
H9 H 0.4104 0.4471 0.7136
N9 N 0.6524(2) 0.66588(15) 1.0201(3)
C9 C 0.5630(3) 0.54420(19) 0.8620(4)
H10 H 0.5410 0.5424 0.8989
N10 N 0.6769(3) 0.68938(17) 0.9823(4)
C10 C 0.5892(4) 0.5249(2) 0.7555(5)
H11 H 0.5847 0.5107 0.7165
N11 N 0.7054(2) 0.70855(15) 1.0243(3)
C11 C 0.6300(4) 0.5467(3) 0.7585(5)
H12 H 0.6533 0.5465 0.7230
N12 N 0.6952(2) 0.69639(18) 1.0903(3)
C12 C 0.6363(4) 0.5691(2) 0.8145(5)
H13 H 0.6634 0.5844 0.8168
C13 C 0.6152(3) 0.6401(2) 1.0008(4)
H14 H 0.5843 0.6523 0.9906
H15 H 0.6093 0.6241 1.0393
C14 C 0.6637(2) 0.67121(17) 1.0873(3)
H16 H 0.6508 0.6587 1.1247
C15 C 0.6316(3) 0.61856(19) 0.9370(4)
C16 C 0.6015(3) 0.56836(19) 0.8674(4)
C1J C 0.6886(3) 0.29916(18) 0.5829(4)
H1J H 0.7170 0.2998 0.6102
N1J N 0.6876(2) 0.27791(15) 0.5273(3)
O19J O 0.3336(2) 0.62715(15) 0.9011(3)
C2J C 0.6473(3) 0.27782(19) 0.4886(4)
H2J H 0.6465 0.2631 0.4500
N2J N 0.4448(2) 0.52302(16) 0.8067(3)
O21J O 0.5929(2) 0.38188(16) 0.6489(3)
C3J C 0.6062(3) 0.2987(2) 0.5031(4)
H3J H 0.5785 0.2980 0.4744
N3J N 0.5521(2) 0.44699(15) 0.8030(3)
C4J C 0.6068(3) 0.3207(2) 0.5606(4)
H4J H 0.5800 0.3352 0.5713
N4J N 0.6546(2) 0.34075(17) 0.6620(3)
H5J H 0.6782 0.3344 0.6892
N5J N 0.6075(3) 0.40752(17) 0.7811(4)
C5J C 0.6483(3) 0.32038(19) 0.6009(4)
C6J C 0.6270(3) 0.36943(18) 0.6821(4)
N6J N 0.5899(2) 0.40051(17) 0.8449(3)
N7J N 0.5562(2) 0.42391(17) 0.8576(3)
C7J C 0.6465(3) 0.3854(2) 0.7493(5)
H6J H 0.6756 0.3998 0.7399
H7J H 0.6560 0.3665 0.7809
N8J N 0.3984(2) 0.59027(17) 0.9257(4)
H8J H 0.4194 0.5853 0.9577
C8J C 0.5840(3) 0.43647(19) 0.7563(4)
H9J H 0.5896 0.4471 0.7136
N9J N 0.3476(2) 0.66588(15) 1.0201(3)
C9J C 0.4370(3) 0.54420(19) 0.8620(4)
H10J H 0.4590 0.5424 0.8989
N10J N 0.3231(3) 0.68938(17) 0.9823(4)
C10J C 0.4108(4) 0.5249(2) 0.7555(5)
H11J H 0.4153 0.5107 0.7165
N11J N 0.2946(2) 0.70855(15) 1.0243(3)
C11J C 0.3700(4) 0.5467(3) 0.7585(5)
H12J H 0.3467 0.5465 0.7230
N12J N 0.3048(2) 0.69639(18) 1.0903(3)
C12J C 0.3637(4) 0.5691(2) 0.8145(5)
H13J H 0.3366 0.5844 0.8168
C13J C 0.3848(3) 0.6401(2) 1.0008(4)
H14J H 0.4157 0.6523 0.9906
H15J H 0.3907 0.6241 1.0393
C14J C 0.3363(2) 0.67121(17) 1.0873(3)
H16J H 0.3492 0.6587 1.1247
C15J C 0.3684(3) 0.61856(19) 0.9370(4)
C16J C 0.3985(3) 0.56836(19) 0.8674(4)
N1L N 0.1876(2) 0.22209(15) 0.4727(3)
Cu2E Cu 0.2500 0.7500 1.0000
Cu2F Cu 0.7500 0.2500 0.5000
Cu2G Cu 0.7500 0.7500 1.0000
N11G N 0.2946(2) 0.20855(15) 0.4757(3)
N11K N 0.2054(2) 0.29145(15) 0.5243(3)
O22 O 0.24610(19) 0.42459(12) 1.0494(3)
Mo7 Mo 0.24739(2) 0.409816(16) 0.93425(3)
O23 O 0.2463(2) 0.52995(14) 0.8420(3)
O24 O 0.39495(19) 0.47018(14) 0.9541(3)
O25 O 0.31623(17) 0.52198(12) 0.9497(2)
Mo8 Mo 0.24706(2) 0.530466(15) 0.92925(3)
O26 O 0.17673(18) 0.52177(13) 0.9492(3)
Mo9 Mo 0.33348(2) 0.470705(15) 0.93363(3)
O27 O 0.0995(2) 0.47036(17) 0.9503(4)
O28 O 0.1637(2) 0.47171(16) 0.8437(3)
Mo10 Mo 0.16110(2) 0.471072(17) 0.93166(4)
O29 O 0.2447(2) 0.36641(13) 0.9573(3)
O30 O 0.24605(17) 0.47408(13) 0.9468(3)
O31 O 0.17879(19) 0.42310(13) 0.9501(3)
O32 O 0.2471(2) 0.41015(16) 0.8458(3)
O33 O 0.31498(19) 0.42264(13) 0.9505(3)
O34 O 0.3311(2) 0.47166(14) 0.8456(3)
O22B O 0.24610(19) 0.57541(12) 0.9506(3)
Mo7B Mo 0.24739(2) 0.590184(16) 1.06575(3)
O23B O 0.2463(2) 0.47005(14) 1.1580(3)
O24B O 0.39495(19) 0.52982(14) 1.0459(3)
O25B O 0.31623(17) 0.47802(12) 1.0503(2)
Mo8B Mo 0.24706(2) 0.469534(15) 1.07075(3)
O26B O 0.17673(18) 0.47823(13) 1.0508(3)
Mo9B Mo 0.33348(2) 0.529295(15) 1.06637(3)
O27B O 0.0995(2) 0.52964(17) 1.0497(4)
O28B O 0.1637(2) 0.52829(16) 1.1563(3)
Mo10B Mo 0.16110(2) 0.528928(17) 1.06834(4)
O29B O 0.2447(2) 0.63359(13) 1.0427(3)
O30B O 0.24605(17) 0.52592(13) 1.0532(3)
O31B O 0.17879(19) 0.57690(13) 1.0499(3)
O32B O 0.2471(2) 0.58985(16) 1.1542(3)
O33B O 0.31498(19) 0.57736(13) 1.0495(3)
O34B O 0.3311(2) 0.52834(14) 1.1544(3)
Mo1 Mo 0.5000 0.27520(2) 0.65190(4)
Mo2 Mo 0.41413(2) 0.274622(15) 0.78955(3)
Mo3 Mo 0.5000 0.21471(2) 0.79409(4)
Mo4 Mo 0.5000 0.33646(2) 0.78524(4)
Mo5 Mo 0.41484(2) 0.215503(16) 0.65602(3)
Mo6 Mo 0.5000 0.15408(2) 0.65866(4)
O1 O 0.5000 0.26977(17) 0.7747(4)
O2 O 0.5000 0.32059(18) 0.6714(3)
O3 O 0.35292(19) 0.27502(15) 0.7703(3)
O4 O 0.5000 0.16932(17) 0.7724(3)
O5 O 0.41790(18) 0.21525(14) 0.5676(3)
O6 O 0.41706(19) 0.27264(14) 0.8768(3)
O7 O 0.5000 0.2744(2) 0.5631(4)
O8 O 0.5000 0.33811(19) 0.8732(4)
O9 O 0.5000 0.15457(19) 0.5689(4)
O10 O 0.5000 0.1098(2) 0.6799(4)
O11 O 0.56776(19) 0.16732(13) 0.6736(3)
O12 O 0.43026(18) 0.22302(12) 0.7737(2)
O13 O 0.35293(18) 0.21323(14) 0.6746(3)
O14 O 0.5000 0.37962(16) 0.7586(4)
O15 O 0.5000 0.21856(17) 0.6707(3)
O16 O 0.5000 0.2151(2) 0.8819(4)
O17 O 0.43192(19) 0.32194(12) 0.7713(3)
O18 O 0.42988(18) 0.26655(12) 0.6721(2)
Mo2J Mo 0.58587(2) 0.274622(15) 0.78955(3)
Mo5J Mo 0.58516(2) 0.215503(16) 0.65602(3)
O3J O 0.64708(19) 0.27502(15) 0.7703(3)
O5J O 0.58210(18) 0.21525(14) 0.5676(3)
O6J O 0.58294(19) 0.27264(14) 0.8768(3)
O11J O 0.43224(19) 0.16732(13) 0.6736(3)
O12J O 0.56974(18) 0.22302(12) 0.7737(2)
O13J O 0.64707(18) 0.21323(14) 0.6746(3)
O17J O 0.56808(19) 0.32194(12) 0.7713(3)
O18J O 0.57012(18) 0.26655(12) 0.6721(2)
loop_
_geom_bond_atom_site_label_1
_geom_bond_atom_site_label_2
_geom_bond_site_symmetry_1
_geom_bond_site_symmetry_2
Mo1 O1 1_555 1_555
Mo2 O1 1_555 1_555
Mo3 O1 1_555 1_555
Mo4 O1 1_555 1_555
Mo5 O5 1_555 1_555
Mo6 O4 1_555 1_555
O1 Mo2J 1_555 1_555
O2 Mo1 1_555 1_555
O3 Mo2 1_555 1_555
O4 Mo3 1_555 1_555
O6 Mo2 1_555 1_555
O7 Mo1 1_555 1_555
O8 Mo4 1_555 1_555
O9 Mo6 1_555 1_555
O10 Mo6 1_555 1_555
O11 Mo6 1_555 1_555
O12 Mo2 1_555 1_555
O13 Mo5 1_555 1_555
O14 Mo4 1_555 1_555
O15 Mo1 1_555 1_555
O16 Mo3 1_555 1_555
O17 Mo2 1_555 1_555
O18 Mo1 1_555 1_555
Cu1 O20 1_555 1_555
C1 H1 1_555 1_555
N1 C1 1_555 1_555
O19 C15 1_555 1_555
Cu2 N1 1_555 1_555
C2 N1 1_555 1_555
H2 C2 1_555 1_555
N2 Cu1 1_555 1_555
O21 C6 1_555 1_555
C3 C2 1_555 1_555
H3 C3 1_555 1_555
N3 Cu1 1_555 1_555
C4 C3 1_555 1_555
H4 C4 1_555 1_555
N4 H5 1_555 1_555
N5 N6 1_555 1_555
C5 C1 1_555 1_555
C6 N4 1_555 1_555
N6 N7 1_555 1_555
N7 N3 1_555 1_555
C7 N5 1_555 1_555
H6 C7 1_555 1_555
H7 C7 1_555 1_555
N8 H8 1_555 1_555
C8 N3 1_555 1_555
H9 C8 1_555 1_555
N9 N10 1_555 1_555
C9 N2 1_555 1_555
H10 C9 1_555 1_555
N10 N11 1_555 1_555
C10 N2 1_555 1_555
H11 C10 1_555 1_555
N11 N12 1_555 1_555
C11 C10 1_555 1_555
H12 C11 1_555 1_555
N12 C14 1_555 1_555
C12 C11 1_555 1_555
H13 C12 1_555 1_555
C13 N9 1_555 1_555
H14 C13 1_555 1_555
H15 C13 1_555 1_555
C14 N9 1_555 1_555
H16 C14 1_555 1_555
C15 N8 1_555 1_555
C16 N8 1_555 1_555
O22 Mo7 1_555 1_555
Mo7 O29 1_555 1_555
O23 Mo8 1_555 1_555
O24 Mo9 1_555 1_555
O25 Mo8 1_555 1_555
Mo8 O26 1_555 1_555
O26 Mo10 1_555 1_555
Mo9 O25 1_555 1_555
O27 Mo10 1_555 1_555
O28 Mo10 1_555 1_555
Mo10 O30 1_555 1_555
O30 Mo7 1_555 1_555
O31 Mo7 1_555 1_555
O32 Mo7 1_555 1_555
O33 Mo7 1_555 1_555
O34 Mo9 1_555 1_555
Mo2J O3J 1_555 1_555
Mo5J O11 1_555 1_555
O5J Mo5J 1_555 1_555
O6J Mo2J 1_555 1_555
O11J Mo5 1_555 1_555
O12J Mo3 1_555 1_555
O13J Mo5J 1_555 1_555
O17J Mo4 1_555 1_555
O18J Mo1 1_555 1_555
C1J H1J 1_555 1_555
N1J C1J 1_555 1_555
O19J C15J 1_555 1_555
C2J N1J 1_555 1_555
H2J C2J 1_555 1_555
N2J Cu1 1_555 1_555
O21J C6J 1_555 1_555
C3J C2J 1_555 1_555
H3J C3J 1_555 1_555
N3J Cu1 1_555 1_555
C4J C3J 1_555 1_555
H4J C4J 1_555 1_555
N4J H5J 1_555 1_555
N5J N6J 1_555 1_555
C5J C1J 1_555 1_555
C6J N4J 1_555 1_555
N6J N7J 1_555 1_555
N7J N3J 1_555 1_555
C7J N5J 1_555 1_555
H6J C7J 1_555 1_555
H7J C7J 1_555 1_555
N8J H8J 1_555 1_555
C8J N3J 1_555 1_555
H9J C8J 1_555 1_555
N9J N10J 1_555 1_555
C9J N2J 1_555 1_555
H10J C9J 1_555 1_555
N10J N11J 1_555 1_555
C10J N2J 1_555 1_555
H11J C10J 1_555 1_555
N11J N12J 1_555 1_555
C11J C10J 1_555 1_555
H12J C11J 1_555 1_555
N12J C14J 1_555 1_555
C12J C11J 1_555 1_555
H13J C12J 1_555 1_555
C13J N9J 1_555 1_555
H14J C13J 1_555 1_555
H15J C13J 1_555 1_555
C14J N9J 1_555 1_555
H16J C14J 1_555 1_555
C15J N8J 1_555 1_555
C16J N8J 1_555 1_555
N1L Cu2 1_555 1_555
Cu2E N11J 1_555 1_555
Cu2F N1J 1_555 1_555
Cu2G N11 1_555 1_555
N11G Cu2 1_555 1_555
N11K Cu2 1_555 1_555
O22B Mo8 1_555 1_555
Mo7B O22B 1_555 1_555
O23B Mo8B 1_555 1_555
O24B Mo9B 1_555 1_555
O25B Mo9 1_555 1_555
Mo8B O22 1_555 1_555
O26B Mo10 1_555 1_555
Mo9B O25 1_555 1_555
O27B Mo10B 1_555 1_555
O28B Mo10B 1_555 1_555
Mo10B O26 1_555 1_555
O29B Mo7B 1_555 1_555
O30B Mo8 1_555 1_555
O31B Mo7B 1_555 1_555
O32B Mo7B 1_555 1_555
O33B Mo7B 1_555 1_555
O34B Mo9B 1_555 1_555
Mo2 O18 1_555 1_555
Mo3 O12 1_555 1_555
Mo3 O15 1_555 1_555
Mo4 O2 1_555 1_555
Mo4 O17 1_555 1_555
Mo5 O12 1_555 1_555
Mo5 O15 1_555 1_555
Mo5 O18 1_555 1_555
Mo6 O15 1_555 1_555
Mo6 O11J 1_555 1_555
O15 Mo5J 1_555 1_555
C4 C5 1_555 1_555
N4 C5 1_555 1_555
N5 C8 1_555 1_555
C6 C7 1_555 1_555
C9 C16 1_555 1_555
C12 C16 1_555 1_555
C13 C15 1_555 1_555
Mo8 O30 1_555 1_555
Mo9 O30 1_555 1_555
Mo9 O33 1_555 1_555
Mo10 O31 1_555 1_555
O30 Mo8B 1_555 1_555
Mo2J O12J 1_555 1_555
Mo2J O17J 1_555 1_555
Mo2J O18J 1_555 1_555
Mo5J O12J 1_555 1_555
Mo5J O18J 1_555 1_555
C4J C5J 1_555 1_555
N4J C5J 1_555 1_555
N5J C8J 1_555 1_555
C6J C7J 1_555 1_555
C9J C16J 1_555 1_555
C12J C16J 1_555 1_555
C13J C15J 1_555 1_555
Mo7B O30B 1_555 1_555
O25B Mo8B 1_555 1_555
O25B Mo9B 1_555 1_555
Mo8B O26B 1_555 1_555
Mo8B O30B 1_555 1_555
O26B Mo10B 1_555 1_555
Mo9B O30B 1_555 1_555
Mo9B O33B 1_555 1_555
Mo10B O30B 1_555 1_555
Mo10B O31B 1_555 1_555

#END
