
#######################################################################
#
#                 Cambridge Crystallographic Data Centre
#                                CCDC 
#
#######################################################################
#
# If this CIF has been generated from an entry in the Cambridge 
# Structural Database, then it will include bibliographic, chemical, 
# crystal, experimental, refinement or atomic coordinate data resulting 
# from the CCDC's data processing and validation procedures.
#
#######################################################################

data_RUBLUX
_chemical_formula_moiety         'C176 H152 N4 O88 Zr32'
_symmetry_cell_setting           tetragonal
_symmetry_space_group_name_H-M   'P 42/m n m'
_symmetry_Int_Tables_number      136
_space_group_name_Hall           '-P 4n 2n'
loop_
_symmetry_equiv_pos_site_id
_symmetry_equiv_pos_as_xyz
1 x,y,z
2 1/2-y,1/2+x,1/2+z
3 -x,-y,z
4 1/2+y,1/2-x,1/2+z
5 1/2+x,1/2-y,1/2-z
6 1/2-x,1/2+y,1/2-z
7 y,x,-z
8 -y,-x,-z
9 -x,-y,-z
10 1/2+y,1/2-x,1/2-z
11 x,y,-z
12 1/2-y,1/2+x,1/2-z
13 1/2-x,1/2+y,1/2+z
14 1/2+x,1/2-y,1/2+z
15 -y,-x,z
16 y,x,z
_cell_length_a                   34.351(17)
_cell_length_b                   34.351
_cell_length_c                   14.710(7)
_cell_angle_alpha                90
_cell_angle_beta                 90
_cell_angle_gamma                90
_cell_volume                     17357.7
loop_
_atom_site_label
_atom_site_type_symbol
_atom_site_fract_x
_atom_site_fract_y
_atom_site_fract_z
Zr1 Zr 0.2740 0.7260 0.1198
Zr2 Zr 0.2022 0.7978 -0.1192
Zr3 Zr 0.1879 0.7106 0.0000
O1 O 0.1564 0.8436 -0.0810
O2 O 0.2142 0.7858 0.2649
O3 O 0.2628 0.7372 0.2633
O4 O 0.2496 0.6700 0.1730
O5 O 0.1945 0.6594 0.0903
O6 O 0.2128 0.3625 0.4108
O7 O 0.2136 0.7364 0.1157
H1 H 0.2056 0.7286 0.1767
O8 O 0.2984 0.7494 0.0000
H2 H 0.3244 0.7378 0.0000
O9 O 0.3205 0.6795 0.0925
H3 H 0.3233 0.6767 0.0362
O10 O 0.2743 0.3531 0.3281
O11 O 0.1776 0.7710 0.0000
H4 H 0.1500 0.7744 0.0000
C1 C 0.2229 0.6490 0.1460
C2 C 0.2223 0.6084 0.1790
C3 C 0.2498 0.5955 0.2416
H5 H 0.2671 0.6138 0.2699
C4 C 0.2522 0.5562 0.2631
H6 H 0.2711 0.5473 0.3063
C5 C 0.2271 0.5297 0.2222
C6 C 0.1996 0.5426 0.1596
C7 C 0.1972 0.5819 0.1381
H7 H 0.1783 0.5908 0.0949
C8 C 0.1693 0.5111 0.1066
H8 H 0.1525 0.5252 0.0662
H9 H 0.1843 0.4926 0.0725
H10 H 0.1539 0.4976 0.1511
C9 C 0.2298 0.4889 0.2507
C10 C 0.2583 0.4644 0.2153
H11 H 0.2752 0.4735 0.1681
C11 C 0.2621 0.4267 0.2483
H12 H 0.2818 0.4098 0.2238
C12 C 0.2375 0.4134 0.3167
C13 C 0.2091 0.4379 0.3521
H13 H 0.1921 0.4287 0.3993
C14 C 0.2052 0.4756 0.3191
C15 C 0.1799 0.5033 0.3908
H14 H 0.1652 0.4870 0.4313
H15 H 0.1974 0.5192 0.4254
H16 H 0.1624 0.5196 0.3571
C16 C 0.2409 0.3733 0.3541
C17 C 0.2386 0.7614 0.3060
C18 C 0.2627 0.7373 0.4610
C19 C 0.2389 0.7611 0.4085
C20 C 0.2132 0.7868 0.4503
H17 H 0.1965 0.8035 0.4158
C21 C 0.2609 0.7391 0.5553
H18 H 0.2773 0.7227 0.5914
N1 N 0.2887 0.7113 0.4155
H19 H 0.2894 0.7106 0.3544
H20 H 0.3044 0.6956 0.4480
C22 C 0.1467 0.8533 0.0000
C23 C 0.1157 0.8843 0.0000
C24 C 0.1014 0.8986 -0.0819
H21 H 0.1113 0.8887 -0.1384
C25 C 0.0728 0.9272 -0.0819
H22 H 0.0629 0.9371 -0.1384
C26 C 0.0585 0.9416 0.0000
C27 C 0.0274 0.9726 0.0000
C28 C 0.0137 0.9863 -0.0829
C29 C -0.0149 1.0149 -0.0851
O12 O 0.0288 0.9712 -0.1663
C30 C 0.0095 0.9905 -0.2398
H23 H 0.0193 0.9808 -0.2965
H24 H -0.0180 0.9820 -0.2360
H25 H 0.0143 1.0143 -0.2360
O1B O -0.1564 1.1564 -0.0810
C22B C -0.1467 1.1467 0.0000
C23B C -0.1157 1.1157 0.0000
C24B C -0.1014 1.1014 -0.0819
H21B H -0.1113 1.1113 -0.1384
C25B C -0.0728 1.0728 -0.0819
H22B H -0.0629 1.0629 -0.1384
C26B C -0.0585 1.0584 0.0000
C27B C -0.0274 1.0274 0.0000
C28B C -0.0137 1.0137 -0.0829
C29B C 0.0149 0.9851 -0.0851
O12B O -0.0288 1.0288 -0.1663
C30B C -0.0095 1.0095 -0.2398
H23B H -0.0193 1.0192 -0.2965
H24B H 0.0180 1.0180 -0.2360
H25B H -0.0143 0.9857 -0.2360
O1F O -0.1564 1.1564 0.0810
C24F C -0.1014 1.1014 0.0819
H21F H -0.1113 1.1113 0.1384
C25F C -0.0728 1.0728 0.0819
H22F H -0.0629 1.0629 0.1384
C28F C -0.0137 1.0137 0.0829
C29F C 0.0149 0.9851 0.0851
O12F O -0.0288 1.0288 0.1663
C30F C -0.0095 1.0095 0.2398
H23F H -0.0192 1.0193 0.2965
H24F H -0.0180 0.9820 0.2360
H25F H 0.0143 1.0143 0.2360
O1G O 0.1564 0.8436 0.0810
C24G C 0.1014 0.8986 0.0819
H21G H 0.1113 0.8887 0.1384
C25G C 0.0728 0.9272 0.0819
H22G H 0.0629 0.9371 0.1384
C28G C 0.0137 0.9863 0.0829
C29G C -0.0149 1.0149 0.0851
O12G O 0.0288 0.9712 0.1663
C30G C 0.0095 0.9905 0.2398
H23G H 0.0192 0.9807 0.2965
H24G H 0.0180 1.0180 0.2360
H25G H -0.0143 0.9857 0.2360
O2G O 0.2142 0.7858 0.7351
O3G O 0.2628 0.7372 0.7367
C17G C 0.2386 0.7614 0.6940
C18G C 0.2627 0.7373 0.5390
C19G C 0.2389 0.7611 0.5915
C20G C 0.2132 0.7868 0.5497
H17G H 0.1965 0.8035 0.5842
C21G C 0.2609 0.7391 0.4447
H18G H 0.2773 0.7227 0.4086
N1G N 0.2887 0.7113 0.5845
H19G H 0.2894 0.7106 0.6456
H20G H 0.3044 0.6956 0.5520
Zr1B Zr -0.2740 1.2740 0.1198
Zr2B Zr -0.2022 1.2022 -0.1192
Zr3B Zr -0.1879 1.2894 0.0000
O2B O -0.2142 1.2142 0.2649
O3B O -0.2628 1.2628 0.2633
O4B O -0.2496 1.3300 0.1730
O5B O -0.1945 1.3406 0.0903
O6B O -0.2128 1.6375 0.4108
O7B O -0.2136 1.2636 0.1157
H1B H -0.2056 1.2714 0.1767
O8B O -0.2984 1.2506 0.0000
H2B H -0.3244 1.2622 0.0000
O9B O -0.3205 1.3205 0.0925
H3B H -0.3233 1.3233 0.0362
O10B O -0.2743 1.6469 0.3281
O11B O -0.1776 1.2290 0.0000
H4B H -0.1500 1.2256 0.0000
C1B C -0.2229 1.3510 0.1460
C2B C -0.2223 1.3916 0.1790
C3B C -0.2498 1.4045 0.2416
H5B H -0.2671 1.3862 0.2699
C4B C -0.2522 1.4438 0.2631
H6B H -0.2711 1.4527 0.3063
C5B C -0.2271 1.4703 0.2222
C6B C -0.1996 1.4574 0.1596
C7B C -0.1972 1.4181 0.1381
H7B H -0.1783 1.4092 0.0949
C8B C -0.1693 1.4889 0.1066
H8B H -0.1525 1.4748 0.0662
H9B H -0.1843 1.5074 0.0725
H10B H -0.1539 1.5024 0.1511
C9B C -0.2298 1.5111 0.2507
C10B C -0.2583 1.5356 0.2153
H11B H -0.2752 1.5265 0.1681
C11B C -0.2621 1.5733 0.2483
H12B H -0.2818 1.5902 0.2238
C12B C -0.2375 1.5866 0.3167
C13B C -0.2091 1.5621 0.3521
H13B H -0.1921 1.5713 0.3993
C14B C -0.2052 1.5244 0.3191
C15B C -0.1799 1.4967 0.3908
H14B H -0.1652 1.5130 0.4313
H15B H -0.1974 1.4808 0.4254
H16B H -0.1624 1.4804 0.3571
C16B C -0.2409 1.6267 0.3541
C17B C -0.2386 1.2386 0.3060
C18B C -0.2627 1.2627 0.4610
C19B C -0.2389 1.2389 0.4085
C20B C -0.2132 1.2132 0.4503
H17B H -0.1965 1.1965 0.4158
C21B C -0.2609 1.2609 0.5553
H18B H -0.2773 1.2773 0.5914
N1B N -0.2887 1.2887 0.4155
H19B H -0.2894 1.2894 0.3544
H20B H -0.3044 1.3044 0.4480
O2F O -0.2142 1.2142 0.7351
O3F O -0.2628 1.2628 0.7367
C17F C -0.2386 1.2386 0.6940
C18F C -0.2627 1.2627 0.5390
C19F C -0.2389 1.2389 0.5915
C20F C -0.2132 1.2132 0.5497
H17F H -0.1965 1.1965 0.5842
C21F C -0.2609 1.2609 0.4447
H18F H -0.2773 1.2773 0.4086
N1F N -0.2887 1.2887 0.5845
H19F H -0.2894 1.2894 0.6456
H20F H -0.3044 1.3044 0.5520
Zr1F Zr -0.2740 1.2740 -0.1198
Zr2F Zr -0.2022 1.2022 0.1192
Zr3F Zr -0.2894 1.1879 0.0000
O4F O -0.3300 1.2496 -0.1730
O5F O -0.3406 1.1945 -0.0903
O6F O -0.6375 1.2128 -0.4108
O7F O -0.2636 1.2136 -0.1157
H1F H -0.2714 1.2056 -0.1767
O8F O -0.2506 1.2984 0.0000
H2F H -0.2622 1.3244 0.0000
O9F O -0.3205 1.3205 -0.0925
H3F H -0.3233 1.3233 -0.0362
O10F O -0.6469 1.2743 -0.3281
O11F O -0.2290 1.1776 0.0000
H4F H -0.2256 1.1500 0.0000
C1F C -0.3510 1.2229 -0.1460
C2F C -0.3916 1.2223 -0.1790
C3F C -0.4045 1.2498 -0.2416
H5F H -0.3862 1.2671 -0.2699
C4F C -0.4438 1.2522 -0.2631
H6F H -0.4527 1.2711 -0.3063
C5F C -0.4703 1.2271 -0.2222
C6F C -0.4574 1.1996 -0.1596
C7F C -0.4181 1.1972 -0.1381
H7F H -0.4092 1.1783 -0.0949
C8F C -0.4889 1.1693 -0.1066
H8F H -0.4748 1.1525 -0.0662
H9F H -0.5074 1.1843 -0.0725
H10F H -0.5024 1.1539 -0.1511
C9F C -0.5111 1.2298 -0.2507
C10F C -0.5356 1.2583 -0.2153
H11F H -0.5265 1.2752 -0.1681
C11F C -0.5733 1.2621 -0.2483
H12F H -0.5902 1.2818 -0.2238
C12F C -0.5866 1.2375 -0.3167
C13F C -0.5621 1.2091 -0.3521
H13F H -0.5713 1.1921 -0.3993
C14F C -0.5244 1.2052 -0.3191
C15F C -0.4967 1.1799 -0.3908
H14F H -0.5130 1.1652 -0.4313
H15F H -0.4808 1.1974 -0.4254
H16F H -0.4804 1.1624 -0.3571
C16F C -0.6267 1.2409 -0.3541
Zr1G Zr 0.2740 0.7260 -0.1198
Zr2G Zr 0.2022 0.7978 0.1192
Zr3G Zr 0.2894 0.8121 0.0000
O4G O 0.3300 0.7504 -0.1730
O5G O 0.3406 0.8055 -0.0903
O6G O 0.6375 0.7872 -0.4108
O7G O 0.2636 0.7864 -0.1157
H1G H 0.2714 0.7944 -0.1767
O8G O 0.2506 0.7016 0.0000
H2G H 0.2622 0.6756 0.0000
O9G O 0.3205 0.6795 -0.0925
H3G H 0.3233 0.6767 -0.0362
O10G O 0.6469 0.7257 -0.3281
O11G O 0.2290 0.8224 0.0000
H4G H 0.2256 0.8500 0.0000
C1G C 0.3510 0.7771 -0.1460
C2G C 0.3916 0.7777 -0.1790
C3G C 0.4045 0.7502 -0.2416
H5G H 0.3862 0.7329 -0.2699
C4G C 0.4438 0.7478 -0.2631
H6G H 0.4527 0.7289 -0.3063
C5G C 0.4703 0.7729 -0.2222
C6G C 0.4574 0.8004 -0.1596
C7G C 0.4181 0.8028 -0.1381
H7G H 0.4092 0.8217 -0.0949
C8G C 0.4889 0.8307 -0.1066
H8G H 0.4748 0.8475 -0.0662
H9G H 0.5074 0.8157 -0.0725
H10G H 0.5024 0.8461 -0.1511
C9G C 0.5111 0.7702 -0.2507
C10G C 0.5356 0.7417 -0.2153
H11G H 0.5265 0.7248 -0.1681
C11G C 0.5733 0.7379 -0.2483
H12G H 0.5902 0.7182 -0.2238
C12G C 0.5866 0.7625 -0.3167
C13G C 0.5621 0.7909 -0.3521
H13G H 0.5713 0.8079 -0.3993
C14G C 0.5244 0.7948 -0.3191
C15G C 0.4967 0.8201 -0.3908
H14G H 0.5130 0.8348 -0.4313
H15G H 0.4808 0.8026 -0.4254
H16G H 0.4804 0.8376 -0.3571
C16G C 0.6267 0.7591 -0.3541
O4H O -0.2496 1.3300 -0.1730
O5H O -0.1945 1.3406 -0.0903
O6H O -0.2128 1.6375 -0.4108
O7H O -0.2136 1.2636 -0.1157
H1H H -0.2056 1.2714 -0.1767
O10H O -0.2743 1.6469 -0.3281
C1H C -0.2229 1.3510 -0.1460
C2H C -0.2223 1.3916 -0.1790
C3H C -0.2498 1.4045 -0.2416
H5H H -0.2671 1.3862 -0.2699
C4H C -0.2522 1.4438 -0.2631
H6H H -0.2711 1.4527 -0.3063
C5H C -0.2271 1.4703 -0.2222
C6H C -0.1996 1.4574 -0.1596
C7H C -0.1972 1.4181 -0.1381
H7H H -0.1783 1.4092 -0.0949
C8H C -0.1693 1.4889 -0.1066
H8H H -0.1525 1.4748 -0.0662
H9H H -0.1843 1.5074 -0.0725
H10H H -0.1539 1.5024 -0.1511
C9H C -0.2298 1.5111 -0.2507
C10H C -0.2583 1.5356 -0.2153
H11H H -0.2752 1.5265 -0.1681
C11H C -0.2621 1.5733 -0.2483
H12H H -0.2818 1.5902 -0.2238
C12H C -0.2375 1.5866 -0.3167
C13H C -0.2091 1.5621 -0.3521
H13H H -0.1921 1.5713 -0.3993
C14H C -0.2052 1.5244 -0.3191
C15H C -0.1799 1.4967 -0.3908
H14H H -0.1652 1.5130 -0.4313
H15H H -0.1974 1.4808 -0.4254
H16H H -0.1624 1.4804 -0.3571
C16H C -0.2409 1.6267 -0.3541
O4J O 0.2496 0.6700 -0.1730
O5J O 0.1945 0.6594 -0.0903
O6J O 0.2128 0.3625 -0.4108
O7J O 0.2136 0.7364 -0.1157
H1J H 0.2056 0.7286 -0.1767
O10J O 0.2743 0.3531 -0.3281
C1J C 0.2229 0.6490 -0.1460
C2J C 0.2223 0.6084 -0.1790
C3J C 0.2498 0.5955 -0.2416
H5J H 0.2671 0.6138 -0.2699
C4J C 0.2522 0.5562 -0.2631
H6J H 0.2711 0.5473 -0.3063
C5J C 0.2271 0.5297 -0.2222
C6J C 0.1996 0.5426 -0.1596
C7J C 0.1972 0.5819 -0.1381
H7J H 0.1783 0.5908 -0.0949
C8J C 0.1693 0.5111 -0.1066
H8J H 0.1525 0.5252 -0.0662
H9J H 0.1843 0.4926 -0.0725
H10J H 0.1539 0.4976 -0.1511
C9J C 0.2298 0.4889 -0.2507
C10J C 0.2583 0.4644 -0.2153
H11J H 0.2752 0.4735 -0.1681
C11J C 0.2621 0.4267 -0.2483
H12J H 0.2818 0.4098 -0.2238
C12J C 0.2375 0.4134 -0.3167
C13J C 0.2091 0.4379 -0.3521
H13J H 0.1921 0.4287 -0.3993
C14J C 0.2052 0.4756 -0.3191
C15J C 0.1799 0.5033 -0.3908
H14J H 0.1652 0.4870 -0.4313
H15J H 0.1974 0.5192 -0.4254
H16J H 0.1624 0.5196 -0.3571
C16J C 0.2409 0.3733 -0.3541
O4N O 0.3300 0.7504 0.1730
O5N O 0.3406 0.8055 0.0903
O6N O 0.6375 0.7872 0.4108
O7N O 0.2636 0.7864 0.1157
H1N H 0.2714 0.7944 0.1767
O10N O 0.6469 0.7257 0.3281
C1N C 0.3510 0.7771 0.1460
C2N C 0.3916 0.7777 0.1790
C3N C 0.4045 0.7502 0.2416
H5N H 0.3862 0.7329 0.2699
C4N C 0.4438 0.7478 0.2631
H6N H 0.4527 0.7289 0.3063
C5N C 0.4703 0.7729 0.2222
C6N C 0.4574 0.8004 0.1596
C7N C 0.4181 0.8028 0.1381
H7N H 0.4092 0.8217 0.0949
C8N C 0.4889 0.8307 0.1066
H8N H 0.4748 0.8475 0.0662
H9N H 0.5074 0.8157 0.0725
H10N H 0.5024 0.8461 0.1511
C9N C 0.5111 0.7702 0.2507
C10N C 0.5356 0.7417 0.2153
H11N H 0.5265 0.7248 0.1681
C11N C 0.5733 0.7379 0.2483
H12N H 0.5902 0.7182 0.2238
C12N C 0.5866 0.7625 0.3167
C13N C 0.5621 0.7909 0.3521
H13N H 0.5713 0.8079 0.3993
C14N C 0.5244 0.7948 0.3191
C15N C 0.4967 0.8201 0.3908
H14N H 0.5130 0.8348 0.4313
H15N H 0.4808 0.8026 0.4254
H16N H 0.4804 0.8376 0.3571
C16N C 0.6267 0.7591 0.3541
O4O O -0.3300 1.2496 0.1730
O5O O -0.3406 1.1945 0.0903
O6O O -0.6375 1.2128 0.4108
O7O O -0.2636 1.2136 0.1157
H1O H -0.2714 1.2056 0.1767
O10O O -0.6469 1.2743 0.3281
C1O C -0.3510 1.2229 0.1460
C2O C -0.3916 1.2223 0.1790
C3O C -0.4045 1.2498 0.2416
H5O H -0.3862 1.2671 0.2699
C4O C -0.4438 1.2522 0.2631
H6O H -0.4527 1.2711 0.3063
C5O C -0.4703 1.2271 0.2222
C6O C -0.4574 1.1996 0.1596
C7O C -0.4181 1.1972 0.1381
H7O H -0.4092 1.1783 0.0949
C8O C -0.4889 1.1693 0.1066
H8O H -0.4748 1.1525 0.0662
H9O H -0.5074 1.1843 0.0725
H10O H -0.5024 1.1539 0.1511
C9O C -0.5111 1.2298 0.2507
C10O C -0.5356 1.2583 0.2153
H11O H -0.5265 1.2752 0.1681
C11O C -0.5733 1.2621 0.2483
H12O H -0.5902 1.2818 0.2238
C12O C -0.5866 1.2375 0.3167
C13O C -0.5621 1.2091 0.3521
H13O H -0.5713 1.1921 0.3993
C14O C -0.5244 1.2052 0.3191
C15O C -0.4967 1.1799 0.3908
H14O H -0.5130 1.1652 0.4313
H15O H -0.4808 1.1974 0.4254
H16O H -0.4804 1.1624 0.3571
C16O C -0.6267 1.2409 0.3541
Zr1F_2 Zr -0.2740 1.2740 0.8802
Zr1G_2 Zr 0.2740 0.7260 0.8802
Zr2_2 Zr 0.2022 0.7978 0.8808
Zr2A Zr -0.2978 1.7022 0.3808
Zr2A_2 Zr 0.7022 0.7022 0.3808
Zr2B_2 Zr -0.2022 1.2022 0.8808
Zr2C Zr -0.7022 1.2978 0.3808
Zr2C_2 Zr 0.2978 0.2978 0.3808
Zr2D Zr -0.2978 1.7022 -0.3808
Zr2D_2 Zr 0.7022 0.7022 -0.3808
Zr2E Zr -0.7022 1.2978 -0.3808
Zr2E_2 Zr 0.2978 0.2978 -0.3808
Zr3A Zr -0.2106 1.6879 -0.5000
Zr3A_2 Zr -0.2106 1.6879 0.5000
Zr3C Zr 0.2106 0.3121 -0.5000
Zr3C_2 Zr 0.2106 0.3121 0.5000
Zr3D Zr 0.6879 0.7894 -0.5000
Zr3D_2 Zr 0.6879 0.7894 0.5000
Zr3E Zr -0.6879 1.2106 -0.5000
Zr3E_2 Zr -0.6879 1.2106 0.5000
O2F_2 O -0.2142 1.2142 -0.2649
O2G_2 O 0.2142 0.7858 -0.2649
O3F_2 O -0.2628 1.2628 -0.2633
O3G_2 O 0.2628 0.7372 -0.2633
O6A O 0.1375 0.7128 -0.0892
O6C O -0.1375 1.2872 -0.0892
O6D O -0.2872 1.1375 0.0892
O6E O 0.2872 0.8625 0.0892
O6I O -0.1375 1.2872 0.0892
O6K O 0.1375 0.7128 0.0892
O6L O 0.2872 0.8625 -0.0892
O6M O -0.2872 1.1375 -0.0892
O10A O 0.1469 0.7743 -0.1719
O10C O -0.1469 1.2257 -0.1719
O10D O -0.2257 1.1469 0.1719
O10E O 0.2257 0.8531 0.1719
O10I O -0.1469 1.2257 0.1719
O10K O 0.1469 0.7743 0.1719
O10L O 0.2257 0.8531 -0.1719
O10M O -0.2257 1.1469 -0.1719
loop_
_geom_bond_atom_site_label_1
_geom_bond_atom_site_label_2
_geom_bond_site_symmetry_1
_geom_bond_site_symmetry_2
Zr1 O3 1_555 1_555
Zr2 O1 1_555 1_555
Zr3 O5 1_555 1_555
O1 C22 1_555 1_555
O2 C17 1_555 1_555
O3 C17 1_555 1_555
O4 Zr1 1_555 1_555
O5 C1 1_555 1_555
O6 C16 1_555 1_555
O7 Zr1 1_555 1_555
H1 O7 1_555 1_555
O8 Zr1 1_555 1_555
H2 O8 1_555 1_555
O9 Zr1 1_555 1_555
H3 O9 1_555 1_555
O10 C16 1_555 1_555
O11 Zr2 1_555 1_555
H4 O11 1_555 1_555
C1 O4 1_555 1_555
C2 C1 1_555 1_555
C3 C2 1_555 1_555
H5 C3 1_555 1_555
C4 C3 1_555 1_555
H6 C4 1_555 1_555
C5 C4 1_555 1_555
C6 C5 1_555 1_555
C7 C2 1_555 1_555
H7 C7 1_555 1_555
C8 C6 1_555 1_555
H8 C8 1_555 1_555
H9 C8 1_555 1_555
H10 C8 1_555 1_555
C9 C5 1_555 1_555
C10 C9 1_555 1_555
H11 C10 1_555 1_555
C11 C10 1_555 1_555
H12 C11 1_555 1_555
C12 C11 1_555 1_555
C13 C12 1_555 1_555
H13 C13 1_555 1_555
C14 C9 1_555 1_555
C15 C14 1_555 1_555
H14 C15 1_555 1_555
H15 C15 1_555 1_555
H16 C15 1_555 1_555
C16 C12 1_555 1_555
C17 C19 1_555 1_555
C18 C19 1_555 1_555
C19 C20 1_555 1_555
C20 H17 1_555 1_555
C21 C18 1_555 1_555
H18 C21 1_555 1_555
N1 C18 1_555 1_555
H19 N1 1_555 1_555
H20 N1 1_555 1_555
C22 C23 1_555 1_555
C23 C24 1_555 1_555
C24 H21 1_555 1_555
C25 C24 1_555 1_555
H22 C25 1_555 1_555
C26 C25 1_555 1_555
C27 C26 1_555 1_555
C28 C27 1_555 1_555
C29 C28 1_555 1_555
O12 C28 1_555 1_555
C30 O12 1_555 1_555
H23 C30 1_555 1_555
H24 C30 1_555 1_555
H25 C30 1_555 1_555
O1B C22B 1_555 1_555
C22B C23B 1_555 1_555
C23B C24B 1_555 1_555
C24B H21B 1_555 1_555
C25B C24B 1_555 1_555
H22B C25B 1_555 1_555
C26B C25B 1_555 1_555
C27B C29 1_555 1_555
C28B C28 1_555 1_555
C29B C27 1_555 1_555
O12B C29 1_555 1_555
C30B C30 1_555 1_555
H23B C30B 1_555 1_555
H24B C30 1_555 1_555
H25B C30 1_555 1_555
O1F C22B 1_555 1_555
C24F C23B 1_555 1_555
H21F C24F 1_555 1_555
C25F C26B 1_555 1_555
H22F C25F 1_555 1_555
C28F C27B 1_555 1_555
C29F C27 1_555 1_555
O12F C28F 1_555 1_555
C30F O12F 1_555 1_555
H23F C30F 1_555 1_555
H24F C30F 1_555 1_555
H25F C30F 1_555 1_555
O1G C22 1_555 1_555
C24G C23 1_555 1_555
H21G C24G 1_555 1_555
C25G C26 1_555 1_555
H22G C25G 1_555 1_555
C28G C27 1_555 1_555
C29G C27B 1_555 1_555
O12G C29F 1_555 1_555
C30G C30F 1_555 1_555
H23G C30G 1_555 1_555
H24G C30F 1_555 1_555
H25G C30F 1_555 1_555
O2G C17G 1_555 1_555
O3G C17G 1_555 1_555
C17G C19G 1_555 1_555
C18G C18 1_555 1_555
C19G C21 1_555 1_555
C20G C20 1_555 1_555
H17G C20G 1_555 1_555
C21G C19 1_555 1_555
H18G C18 1_555 1_555
N1G C21 1_555 1_555
H19G N1G 1_555 1_555
H20G N1G 1_555 1_555
Zr1B O3B 1_555 1_555
Zr2B O1B 1_555 1_555
Zr3B O5B 1_555 1_555
O2B C17B 1_555 1_555
O3B C17B 1_555 1_555
O4B Zr1B 1_555 1_555
O5B C1B 1_555 1_555
O6B C16B 1_555 1_555
O7B Zr1B 1_555 1_555
H1B O7B 1_555 1_555
O8B Zr1B 1_555 1_555
H2B O8B 1_555 1_555
O9B Zr1B 1_555 1_555
H3B O9B 1_555 1_555
O10B C16B 1_555 1_555
O11B Zr2B 1_555 1_555
H4B O11B 1_555 1_555
C1B O4B 1_555 1_555
C2B C1B 1_555 1_555
C3B C2B 1_555 1_555
H5B C3B 1_555 1_555
C4B C3B 1_555 1_555
H6B C4B 1_555 1_555
C5B C4B 1_555 1_555
C6B C5B 1_555 1_555
C7B C2B 1_555 1_555
H7B C7B 1_555 1_555
C8B C6B 1_555 1_555
H8B C8B 1_555 1_555
H9B C8B 1_555 1_555
H10B C8B 1_555 1_555
C9B C5B 1_555 1_555
C10B C9B 1_555 1_555
H11B C10B 1_555 1_555
C11B C10B 1_555 1_555
H12B C11B 1_555 1_555
C12B C11B 1_555 1_555
C13B C12B 1_555 1_555
H13B C13B 1_555 1_555
C14B C9B 1_555 1_555
C15B C14B 1_555 1_555
H14B C15B 1_555 1_555
H15B C15B 1_555 1_555
H16B C15B 1_555 1_555
C16B C12B 1_555 1_555
C17B C19B 1_555 1_555
C18B C19B 1_555 1_555
C19B C20B 1_555 1_555
C20B H17B 1_555 1_555
C21B C18B 1_555 1_555
H18B C21B 1_555 1_555
N1B C18B 1_555 1_555
H19B N1B 1_555 1_555
H20B N1B 1_555 1_555
O2F C17F 1_555 1_555
O3F C17F 1_555 1_555
C17F C19F 1_555 1_555
C18F C18B 1_555 1_555
C19F C21B 1_555 1_555
C20F C20B 1_555 1_555
H17F C20F 1_555 1_555
C21F C19B 1_555 1_555
H18F C18B 1_555 1_555
N1F C21B 1_555 1_555
H19F N1F 1_555 1_555
H20F N1F 1_555 1_555
Zr1F O8B 1_555 1_555
Zr2F O1F 1_555 1_555
Zr3F O8B 1_555 1_555
O4F Zr1F 1_555 1_555
O5F Zr3F 1_555 1_555
O6F C16F 1_555 1_555
O7F Zr2B 1_555 1_555
H1F O7F 1_555 1_555
O8F Zr1B 1_555 1_555
H2F O8F 1_555 1_555
O9F Zr1F 1_555 1_555
H3F O9F 1_555 1_555
O10F C16F 1_555 1_555
O11F Zr2B 1_555 1_555
H4F O11F 1_555 1_555
C1F O4F 1_555 1_555
C2F C1F 1_555 1_555
C3F C2F 1_555 1_555
H5F C3F 1_555 1_555
C4F C3F 1_555 1_555
H6F C4F 1_555 1_555
C5F C4F 1_555 1_555
C6F C5F 1_555 1_555
C7F C2F 1_555 1_555
H7F C7F 1_555 1_555
C8F C6F 1_555 1_555
H8F C8F 1_555 1_555
H9F C8F 1_555 1_555
H10F C8F 1_555 1_555
C9F C5F 1_555 1_555
C10F C9F 1_555 1_555
H11F C10F 1_555 1_555
C11F C10F 1_555 1_555
H12F C11F 1_555 1_555
C12F C11F 1_555 1_555
C13F C12F 1_555 1_555
H13F C13F 1_555 1_555
C14F C9F 1_555 1_555
C15F C14F 1_555 1_555
H14F C15F 1_555 1_555
H15F C15F 1_555 1_555
H16F C15F 1_555 1_555
C16F C12F 1_555 1_555
Zr1G O8 1_555 1_555
Zr2G O2 1_555 1_555
Zr3G O8 1_555 1_555
O4G Zr1G 1_555 1_555
O5G Zr3G 1_555 1_555
O6G C16G 1_555 1_555
O7G Zr2 1_555 1_555
H1G O7G 1_555 1_555
O8G Zr1 1_555 1_555
H2G O8G 1_555 1_555
O9G Zr1G 1_555 1_555
H3G O9G 1_555 1_555
O10G C16G 1_555 1_555
O11G Zr2 1_555 1_555
H4G O11G 1_555 1_555
C1G O4G 1_555 1_555
C2G C1G 1_555 1_555
C3G C2G 1_555 1_555
H5G C3G 1_555 1_555
C4G C3G 1_555 1_555
H6G C4G 1_555 1_555
C5G C4G 1_555 1_555
C6G C5G 1_555 1_555
C7G C2G 1_555 1_555
H7G C7G 1_555 1_555
C8G C6G 1_555 1_555
H8G C8G 1_555 1_555
H9G C8G 1_555 1_555
H10G C8G 1_555 1_555
C9G C5G 1_555 1_555
C10G C9G 1_555 1_555
H11G C10G 1_555 1_555
C11G C10G 1_555 1_555
H12G C11G 1_555 1_555
C12G C11G 1_555 1_555
C13G C12G 1_555 1_555
H13G C13G 1_555 1_555
C14G C9G 1_555 1_555
C15G C14G 1_555 1_555
H14G C15G 1_555 1_555
H15G C15G 1_555 1_555
H16G C15G 1_555 1_555
C16G C12G 1_555 1_555
O4H Zr1F 1_555 1_555
O5H Zr3B 1_555 1_555
O6H C16H 1_555 1_555
O7H Zr2B 1_555 1_555
H1H O7H 1_555 1_555
O10H C16H 1_555 1_555
C1H O4H 1_555 1_555
C2H C1H 1_555 1_555
C3H C2H 1_555 1_555
H5H C3H 1_555 1_555
C4H C3H 1_555 1_555
H6H C4H 1_555 1_555
C5H C4H 1_555 1_555
C6H C5H 1_555 1_555
C7H C2H 1_555 1_555
H7H C7H 1_555 1_555
C8H C6H 1_555 1_555
H8H C8H 1_555 1_555
H9H C8H 1_555 1_555
H10H C8H 1_555 1_555
C9H C5H 1_555 1_555
C10H C9H 1_555 1_555
H11H C10H 1_555 1_555
C11H C10H 1_555 1_555
H12H C11H 1_555 1_555
C12H C11H 1_555 1_555
C13H C12H 1_555 1_555
H13H C13H 1_555 1_555
C14H C9H 1_555 1_555
C15H C14H 1_555 1_555
H14H C15H 1_555 1_555
H15H C15H 1_555 1_555
H16H C15H 1_555 1_555
C16H C12H 1_555 1_555
O4J Zr1G 1_555 1_555
O5J Zr3 1_555 1_555
O6J C16J 1_555 1_555
O7J Zr2 1_555 1_555
H1J O7J 1_555 1_555
O10J C16J 1_555 1_555
C1J O4J 1_555 1_555
C2J C1J 1_555 1_555
C3J C2J 1_555 1_555
H5J C3J 1_555 1_555
C4J C3J 1_555 1_555
H6J C4J 1_555 1_555
C5J C4J 1_555 1_555
C6J C5J 1_555 1_555
C7J C2J 1_555 1_555
H7J C7J 1_555 1_555
C8J C6J 1_555 1_555
H8J C8J 1_555 1_555
H9J C8J 1_555 1_555
H10J C8J 1_555 1_555
C9J C5J 1_555 1_555
C10J C9J 1_555 1_555
H11J C10J 1_555 1_555
C11J C10J 1_555 1_555
H12J C11J 1_555 1_555
C12J C11J 1_555 1_555
C13J C12J 1_555 1_555
H13J C13J 1_555 1_555
C14J C9J 1_555 1_555
C15J C14J 1_555 1_555
H14J C15J 1_555 1_555
H15J C15J 1_555 1_555
H16J C15J 1_555 1_555
C16J C12J 1_555 1_555
O4N Zr1 1_555 1_555
O5N Zr3G 1_555 1_555
O6N C16N 1_555 1_555
O7N Zr1 1_555 1_555
H1N O7N 1_555 1_555
O10N C16N 1_555 1_555
C1N O4N 1_555 1_555
C2N C1N 1_555 1_555
C3N C2N 1_555 1_555
H5N C3N 1_555 1_555
C4N C3N 1_555 1_555
H6N C4N 1_555 1_555
C5N C4N 1_555 1_555
C6N C5N 1_555 1_555
C7N C2N 1_555 1_555
H7N C7N 1_555 1_555
C8N C6N 1_555 1_555
H8N C8N 1_555 1_555
H9N C8N 1_555 1_555
H10N C8N 1_555 1_555
C9N C5N 1_555 1_555
C10N C9N 1_555 1_555
H11N C10N 1_555 1_555
C11N C10N 1_555 1_555
H12N C11N 1_555 1_555
C12N C11N 1_555 1_555
C13N C12N 1_555 1_555
H13N C13N 1_555 1_555
C14N C9N 1_555 1_555
C15N C14N 1_555 1_555
H14N C15N 1_555 1_555
H15N C15N 1_555 1_555
H16N C15N 1_555 1_555
C16N C12N 1_555 1_555
O4O Zr1B 1_555 1_555
O5O Zr3F 1_555 1_555
O6O C16O 1_555 1_555
O7O Zr1B 1_555 1_555
H1O O7O 1_555 1_555
O10O C16O 1_555 1_555
C1O O4O 1_555 1_555
C2O C1O 1_555 1_555
C3O C2O 1_555 1_555
H5O C3O 1_555 1_555
C4O C3O 1_555 1_555
H6O C4O 1_555 1_555
C5O C4O 1_555 1_555
C6O C5O 1_555 1_555
C7O C2O 1_555 1_555
H7O C7O 1_555 1_555
C8O C6O 1_555 1_555
H8O C8O 1_555 1_555
H9O C8O 1_555 1_555
H10O C8O 1_555 1_555
C9O C5O 1_555 1_555
C10O C9O 1_555 1_555
H11O C10O 1_555 1_555
C11O C10O 1_555 1_555
H12O C11O 1_555 1_555
C12O C11O 1_555 1_555
C13O C12O 1_555 1_555
H13O C13O 1_555 1_555
C14O C9O 1_555 1_555
C15O C14O 1_555 1_555
H14O C15O 1_555 1_555
H15O C15O 1_555 1_555
H16O C15O 1_555 1_555
C16O C12O 1_555 1_555
Zr1F_2 O3F 1_555 1_555
Zr1G_2 O3G 1_555 1_555
Zr2_2 O2G 1_555 1_555
Zr2A O10B 1_555 1_555
Zr2A_2 O10N 1_555 1_555
Zr2B_2 O2F 1_555 1_555
Zr2C O10O 1_555 1_555
Zr2C_2 O10 1_555 1_555
Zr2D O10H 1_555 1_555
Zr2D_2 O10G 1_555 1_555
Zr2E O10F 1_555 1_555
Zr2E_2 O10J 1_555 1_555
Zr3A O6H 1_555 1_555
Zr3A_2 O6B 1_555 1_555
Zr3C O6J 1_555 1_555
Zr3C_2 O6 1_555 1_555
Zr3D O6G 1_555 1_555
Zr3D_2 O6N 1_555 1_555
Zr3E O6F 1_555 1_555
Zr3E_2 O6O 1_555 1_555
O2F_2 Zr2B 1_555 1_555
O2G_2 Zr2 1_555 1_555
O3F_2 Zr1F 1_555 1_555
O3G_2 Zr1G 1_555 1_555
O6A Zr3 1_555 1_555
O6C Zr3B 1_555 1_555
O6D Zr3F 1_555 1_555
O6E Zr3G 1_555 1_555
O6I Zr3B 1_555 1_555
O6K Zr3 1_555 1_555
O6L Zr3G 1_555 1_555
O6M Zr3F 1_555 1_555
O10A Zr2 1_555 1_555
O10C Zr2B 1_555 1_555
O10D Zr2F 1_555 1_555
O10E Zr2G 1_555 1_555
O10I Zr2F 1_555 1_555
O10K Zr2G 1_555 1_555
O10L Zr2 1_555 1_555
O10M Zr2B 1_555 1_555
Zr3 O7 1_555 1_555
Zr3 O11 1_555 1_555
Zr3 O8G 1_555 1_555
Zr3 O7J 1_555 1_555
O7 Zr2G 1_555 1_555
O11 Zr2G 1_555 1_555
C6 C7 1_555 1_555
C13 C14 1_555 1_555
C21 C21G 1_555 1_555
H18 C18G 1_555 1_555
H18 N1G 1_555 1_555
N1 C21G 1_555 1_555
N1 H18G 1_555 1_555
C29 C29B 1_555 1_555
O12 C29B 1_555 1_555
H24 C30B 1_555 1_555
H25 C30B 1_555 1_555
C26B C27B 1_555 1_555
C27B C28B 1_555 1_555
C28B C29B 1_555 1_555
C28B O12B 1_555 1_555
O12B C30B 1_555 1_555
C30B H24B 1_555 1_555
C30B H25B 1_555 1_555
C24F C25F 1_555 1_555
C28F C29F 1_555 1_555
C28F C28G 1_555 1_555
C29F C29G 1_555 1_555
O12F C29G 1_555 1_555
H24F C30G 1_555 1_555
H25F C30G 1_555 1_555
O1G Zr2G 1_555 1_555
C24G C25G 1_555 1_555
C28G C29G 1_555 1_555
C28G O12G 1_555 1_555
O12G C30G 1_555 1_555
C30G H24G 1_555 1_555
C30G H25G 1_555 1_555
C18G C19G 1_555 1_555
C18G C21G 1_555 1_555
C18G N1G 1_555 1_555
C19G C20G 1_555 1_555
C21G H18G 1_555 1_555
Zr3B O7B 1_555 1_555
Zr3B O11B 1_555 1_555
Zr3B O8F 1_555 1_555
Zr3B O7H 1_555 1_555
O2B Zr2F 1_555 1_555
O7B Zr2F 1_555 1_555
O11B Zr2F 1_555 1_555
C6B C7B 1_555 1_555
C13B C14B 1_555 1_555
C21B C21F 1_555 1_555
H18B C18F 1_555 1_555
H18B N1F 1_555 1_555
N1B C21F 1_555 1_555
N1B H18F 1_555 1_555
C18F C19F 1_555 1_555
C18F C21F 1_555 1_555
C18F N1F 1_555 1_555
C19F C20F 1_555 1_555
C21F H18F 1_555 1_555
Zr1F O7F 1_555 1_555
Zr1F O8F 1_555 1_555
Zr1F O7H 1_555 1_555
Zr2F O11F 1_555 1_555
Zr2F O7O 1_555 1_555
Zr3F O7F 1_555 1_555
Zr3F O11F 1_555 1_555
Zr3F O7O 1_555 1_555
O5F C1F 1_555 1_555
C6F C7F 1_555 1_555
C13F C14F 1_555 1_555
Zr1G O7G 1_555 1_555
Zr1G O8G 1_555 1_555
Zr1G O7J 1_555 1_555
Zr2G O11G 1_555 1_555
Zr2G O7N 1_555 1_555
Zr3G O7G 1_555 1_555
Zr3G O11G 1_555 1_555
Zr3G O7N 1_555 1_555
O5G C1G 1_555 1_555
C6G C7G 1_555 1_555
C13G C14G 1_555 1_555
O5H C1H 1_555 1_555
C6H C7H 1_555 1_555
C13H C14H 1_555 1_555
O5J C1J 1_555 1_555
C6J C7J 1_555 1_555
C13J C14J 1_555 1_555
O5N C1N 1_555 1_555
C6N C7N 1_555 1_555
C13N C14N 1_555 1_555
O5O C1O 1_555 1_555
C6O C7O 1_555 1_555
C13O C14O 1_555 1_555

#END
