
#######################################################################
#
#                 Cambridge Crystallographic Data Centre
#                                CCDC 
#
#######################################################################
#
# If this CIF has been generated from an entry in the Cambridge 
# Structural Database, then it will include bibliographic, chemical, 
# crystal, experimental, refinement or atomic coordinate data resulting 
# from the CCDC's data processing and validation procedures.
#
#######################################################################

data_MOTVOI
_chemical_formula_moiety         '(C76 H83 Eu3 N9 O39 1-)n'
_symmetry_cell_setting           monoclinic
_symmetry_space_group_name_H-M   'P 21/n'
_symmetry_Int_Tables_number      14
_space_group_name_Hall           '-P 2yn'
loop_
_symmetry_equiv_pos_site_id
_symmetry_equiv_pos_as_xyz
1 x,y,z
2 1/2-x,1/2+y,1/2-z
3 -x,-y,-z
4 1/2+x,1/2-y,1/2+z
_cell_length_a                   15.4724(19)
_cell_length_b                   14.1459(17)
_cell_length_c                   24.040(2)
_cell_angle_alpha                90
_cell_angle_beta                 90.188(2)
_cell_angle_gamma                90
_cell_volume                     5261.63
loop_
_atom_site_label
_atom_site_type_symbol
_atom_site_fract_x
_atom_site_fract_y
_atom_site_fract_z
C1 C 0.3716(7) 1.0084(6) 0.4250(3)
C2 C 0.3357(5) 1.0533(6) 0.3730(3)
C3 C 0.3685(6) 1.1394(6) 0.3542(4)
H1 H 0.4125 1.1702 0.3751
C4 C 0.3398(5) 1.1787(6) 0.3082(4)
H2 H 0.3624 1.2380 0.2967
C5 C 0.2754(5) 1.1338(6) 0.2754(4)
C6 C 0.2425(5) 1.0479(6) 0.2952(3)
C7 C 0.2724(5) 1.0043(6) 0.3439(3)
H3 H 0.2507 0.9451 0.3562
C8 C 0.0740(6) 1.1751(7) 0.0778(3)
C9 C 0.1308(5) 1.1653(6) 0.1277(3)
C10 C 0.1891(6) 1.2337(6) 0.1413(3)
H4 H 0.1942 1.2866 0.1172
C11 C 0.2435(6) 1.2306(6) 0.1899(3)
H5 H 0.2854 1.2777 0.1979
C12 C 0.2303(5) 1.1572(6) 0.2221(3)
C13 C 0.1724(6) 1.0846(6) 0.2095(3)
C14 C 0.1214(6) 1.0872(6) 0.1646(3)
H6 H 0.0803 1.0387 0.1575
C15 C 0.1761(6) 1.0026(5) 0.2551(3)
C16 C 0.0908(6) 0.9982(7) 0.2826(4)
H7 H 0.0966 1.0189 0.3214
H8 H 0.0692 0.9331 0.2817
H9 H 0.0501 1.0397 0.2631
C17 C 0.4643(5) 0.6819(6) 0.5915(3)
C18 C 0.4165(5) 0.6868(6) 0.6448(3)
C19 C 0.3951(5) 0.7711(6) 0.6683(3)
H10 H 0.4116 0.8279 0.6501
C20 C 0.3499(6) 0.7766(6) 0.7179(3)
H11 H 0.3431 0.8357 0.7361
C21 C 0.3158(5) 0.6976(6) 0.7402(3)
C22 C 0.3415(5) 0.6072(6) 0.7182(3)
C23 C 0.3896(5) 0.6044(6) 0.6712(3)
H12 H 0.4053 0.5449 0.6559
C24 C 0.1057(6) 0.5725(6) 0.9193(3)
C25 C 0.1615(5) 0.6081(6) 0.8727(3)
C26 C 0.1672(6) 0.7068(6) 0.8655(4)
H13 H 0.1356 0.7483 0.8889
C27 C 0.2199(6) 0.7428(6) 0.8236(3)
H14 H 0.2246 0.8090 0.8179
C28 C 0.2656(5) 0.6795(6) 0.7898(3)
C29 C 0.2536(5) 0.5837(6) 0.7948(3)
C30 C 0.2022(5) 0.5483(6) 0.8387(3)
H15 H 0.1967 0.4820 0.8440
C31 C 0.2973(6) 0.5304(6) 0.7516(3)
C32 C 0.3636(6) 0.4543(7) 0.7700(3)
H16 H 0.3329 0.3998 0.7854
H17 H 0.4022 0.4809 0.7983
H18 H 0.3976 0.4342 0.7378
Eu1 Eu 0.44398(3) 0.87368(3) 0.508454(17)
Eu2 Eu 0.5000 0.5000 0.5000
N1 N 0.2564(5) 0.7509(6) 0.5225(3)
O1 O 0.3390(4) 0.9320(4) 0.4436(2)
O2 O 0.4374(4) 1.0420(4) 0.4512(2)
O3 O 0.0857(3) 1.2434(4) 0.0468(2)
O4 O 0.0225(5) 1.1122(5) 0.0657(2)
O5 O 0.2027(4) 0.9217(4) 0.2327(2)
H19 H 0.2642 0.9111 0.2250
O6 O 0.4891(3) 0.7576(4) 0.5700(2)
O7 O 0.4768(4) 0.6025(4) 0.5685(2)
O8 O 0.0502(4) 0.6278(4) 0.9401(2)
O9 O 0.1165(4) 0.4848(4) 0.9317(2)
O10 O 0.2364(4) 0.4905(4) 0.7174(2)
H20 H 0.2626 0.4579 0.6868
O11 O 0.3072(3) 0.8087(4) 0.5420(2)
O12 O 0.2034(4) 0.7143(4) 0.5553(2)
O13 O 0.2532(4) 0.7335(4) 0.4729(2)
C33 C 0.7000(6) 0.6749(8) 0.5632(4)
H21 H 0.7002 0.6706 0.6026
C34 C 0.7735(8) 0.7086(7) 0.4818(4)
H22 H 0.8025 0.6474 0.4859
H23 H 0.8139 0.7546 0.4660
H24 H 0.7235 0.7017 0.4570
C35 C 0.7803(6) 0.8321(6) 0.5606(4)
H25 H 0.7362 0.8816 0.5584
H26 H 0.8317 0.8520 0.5398
H27 H 0.7960 0.8212 0.5996
N2 N 0.7450(4) 0.7412(6) 0.5355(3)
O14 O 0.6537(4) 0.6140(4) 0.5302(2)
N3 N 0.2931(4) 0.5067(6) 0.5532(3)
O15 O 0.3032(4) 0.4178(5) 0.5485(2)
O16 O 0.3169(4) 0.5596(4) 0.5172(2)
O17 O 0.2527(3) 0.5379(4) 0.5991(2)
C1B C 0.6284(7) -0.0084(6) 0.5750(3)
C2B C 0.6643(5) -0.0533(6) 0.6270(3)
C3B C 0.6315(6) -0.1394(6) 0.6458(4)
H1B H 0.5875 -0.1702 0.6249
C4B C 0.6602(5) -0.1787(6) 0.6918(4)
H2B H 0.6376 -0.2380 0.7033
C5B C 0.7246(5) -0.1338(6) 0.7246(4)
C6B C 0.7575(5) -0.0479(6) 0.7048(3)
C7B C 0.7276(5) -0.0043(6) 0.6561(3)
H3B H 0.7493 0.0549 0.6438
C8B C 0.9260(6) -0.1751(7) 0.9222(3)
C9B C 0.8692(5) -0.1653(6) 0.8723(3)
C10B C 0.8109(6) -0.2337(6) 0.8587(3)
H4B H 0.8058 -0.2866 0.8828
C11B C 0.7565(6) -0.2306(6) 0.8101(3)
H5B H 0.7146 -0.2777 0.8021
C12B C 0.7697(5) -0.1572(6) 0.7779(3)
C13B C 0.8276(6) -0.0846(6) 0.7905(3)
C14B C 0.8786(6) -0.0872(6) 0.8354(3)
H6B H 0.9197 -0.0387 0.8425
C15B C 0.8239(6) -0.0026(5) 0.7449(3)
C16B C 0.9092(6) 0.0018(7) 0.7174(4)
H7B H 0.9034 -0.0189 0.6786
H8B H 0.9308 0.0669 0.7183
H9B H 0.9499 -0.0397 0.7369
C17B C 0.5357(5) 0.3181(6) 0.4085(3)
C18B C 0.5835(5) 0.3132(6) 0.3552(3)
C19B C 0.6049(5) 0.2289(6) 0.3317(3)
H10B H 0.5884 0.1721 0.3499
C20B C 0.6501(6) 0.2234(6) 0.2821(3)
H11B H 0.6569 0.1643 0.2639
C21B C 0.6842(5) 0.3024(6) 0.2598(3)
C22B C 0.6585(5) 0.3928(6) 0.2818(3)
C23B C 0.6104(5) 0.3956(6) 0.3288(3)
H12B H 0.5947 0.4551 0.3441
C24B C 0.8943(6) 0.4275(6) 0.0807(3)
C25B C 0.8385(5) 0.3919(6) 0.1273(3)
C26B C 0.8328(6) 0.2932(6) 0.1345(4)
H13B H 0.8644 0.2517 0.1111
C27B C 0.7801(6) 0.2572(6) 0.1764(3)
H14B H 0.7754 0.1910 0.1821
C28B C 0.7344(5) 0.3205(6) 0.2102(3)
C29B C 0.7464(5) 0.4163(6) 0.2052(3)
C30B C 0.7978(5) 0.4517(6) 0.1613(3)
H15B H 0.8033 0.5180 0.1560
C31B C 0.7027(6) 0.4696(6) 0.2484(3)
C32B C 0.6364(6) 0.5457(7) 0.2300(3)
H16B H 0.6671 0.6002 0.2146
H17B H 0.5978 0.5191 0.2017
H18B H 0.6024 0.5658 0.2622
Eu1B Eu 0.55602(3) 0.12632(3) 0.491546(17)
N1B N 0.7436(5) 0.2491(6) 0.4775(3)
O1B O 0.6610(4) 0.0680(4) 0.5564(2)
O2B O 0.5626(4) -0.0420(4) 0.5488(2)
O3B O 0.9143(3) -0.2434(4) 0.9532(2)
O4B O 0.9775(5) -0.1122(5) 0.9343(2)
O5B O 0.7973(4) 0.0783(4) 0.7673(2)
H19B H 0.7358 0.0889 0.7750
O6B O 0.5109(3) 0.2424(4) 0.4300(2)
O7B O 0.5232(4) 0.3975(4) 0.4315(2)
O8B O 0.9498(4) 0.3722(4) 0.0599(2)
O9B O 0.8835(4) 0.5152(4) 0.0683(2)
O10B O 0.7636(4) 0.5095(4) 0.2826(2)
H20B H 0.7374 0.5421 0.3132
O11B O 0.6928(3) 0.1913(4) 0.4580(2)
O12B O 0.7966(4) 0.2857(4) 0.4447(2)
O13B O 0.7468(4) 0.2665(4) 0.5271(2)
C33B C 0.3000(6) 0.3251(8) 0.4368(4)
H21B H 0.2998 0.3294 0.3974
C34B C 0.2265(8) 0.2914(7) 0.5182(4)
H22B H 0.1975 0.3526 0.5141
H23B H 0.1861 0.2454 0.5340
H24B H 0.2765 0.2983 0.5430
C35B C 0.2197(6) 0.1679(6) 0.4394(4)
H25B H 0.2638 0.1184 0.4416
H26B H 0.1683 0.1480 0.4602
H27B H 0.2040 0.1788 0.4004
N2B N 0.2550(4) 0.2588(6) 0.4645(3)
O14B O 0.3463(4) 0.3860(4) 0.4698(2)
N3B N 0.7069(4) 0.4933(6) 0.4468(3)
O15B O 0.6968(4) 0.5822(5) 0.4515(2)
O16B O 0.6831(4) 0.4404(4) 0.4828(2)
O17B O 0.7473(3) 0.4621(4) 0.4009(2)
Eu1_2 Eu 0.44398(3) -0.12632(3) 0.508454(17)
Eu1A Eu 0.05602(3) 0.37368(3) 0.991546(17)
Eu1A_2 Eu 0.05602(3) 1.37368(3) -0.008454(17)
Eu1A_3 Eu 1.05602(3) 0.37368(3) -0.008454(17)
Eu1B_2 Eu 0.55602(3) 1.12632(3) 0.491546(17)
Eu1C Eu -0.05602(3) 0.62632(3) 1.008454(17)
Eu1C_2 Eu 0.94398(3) -0.37368(3) 1.008454(17)
Eu1C_3 Eu 0.94398(3) 0.62632(3) 0.008454(17)
Eu2A Eu -0.0000 1.0000 0.0000
Eu2A_2 Eu 1.0000 0.0000 1.0000
O2_2 O 0.4374(4) 0.0420(4) 0.4512(2)
O2B_2 O 0.5626(4) 0.9580(4) 0.5488(2)
O3A O 0.4143(3) 0.7434(4) 0.4532(2)
O3C O 0.5857(3) 0.2566(4) 0.5468(2)
O4A O 0.4775(5) 0.6122(5) 0.4343(2)
O4C O 0.5225(5) 0.3878(5) 0.5657(2)
O8A O 0.4498(4) 0.1278(4) 0.5599(2)
O8C O 0.5502(4) 0.8722(4) 0.4401(2)
O9A O 0.3835(4) 0.9848(4) 0.5683(2)
O9C O 0.6165(4) 0.0152(4) 0.4317(2)
C36 C 0.3935(6) 0.8135(6) 0.1290(4)
C37 C 0.4691(6) 0.7854(7) 0.0997(4)
H28 H 0.4940 0.7292 0.1174
H29 H 0.5115 0.8368 0.1005
H30 H 0.4540 0.7707 0.0610
N4 N 0.3293(6) 0.8373(7) 0.1516(4)
C38 C 0.9287(10) 0.5292(12) 0.4599(6)
H31 H 0.9697 0.4781 0.4523
H32 H 0.8755 0.5025 0.4755
H33 H 0.9543 0.5734 0.4867
C39 C 0.9637(13) 0.6758(13) 0.4111(14)
H34 H 0.9800 0.6861 0.4501
H35 H 0.9294 0.7296 0.3978
H36 H 1.0159 0.6697 0.3885
N5 N 0.9077(11) 0.5813(10) 0.4061(8)
H37 H 0.8496 0.5948 0.4036
H38 H 0.9238 0.5464 0.3756
C40 C 0.4995(6) 0.7374(6) 0.2519(4)
H39 H 0.5163 0.7437 0.2128
H40 H 0.4495 0.6953 0.2548
H41 H 0.5479 0.7110 0.2733
C41 C 0.5415(6) 0.9042(7) 0.2638(4)
H42 H 0.5899 0.8962 0.2898
H43 H 0.5161 0.9671 0.2689
H44 H 0.5623 0.8978 0.2256
N6 N 0.4766(5) 0.8327(5) 0.2747(3)
H45 H 0.4250 0.8519 0.2592
H46 H 0.4688 0.8278 0.3125
O18 O 0.2055(11) 0.6155(10) 0.4602(7)
H47 H 0.1692 0.6603 0.4572
H48 H 0.2204 0.6094 0.4941
O19 O 0.8648(11) 0.8827(10) 0.4485(6)
H49 H 0.9160 0.8643 0.4416
H50 H 0.8657 0.9408 0.4577
O20 O -0.0026(9) 0.9018(12) 0.5623(6)
H51 H 0.0014 0.9562 0.5771
H52 H 0.0167 0.9040 0.5293
O21 O 0.9210(11) 0.3680(13) 0.6812(7)
H53 H 0.8994 0.4232 0.6817
H54 H 0.8876 0.3310 0.6635
O22 O 0.9910(12) 0.1439(13) 0.5592(8)
H55 H 0.9751 0.0899 0.5707
H56 H 0.9823 0.1478 0.5243
loop_
_geom_bond_atom_site_label_1
_geom_bond_atom_site_label_2
_geom_bond_site_symmetry_1
_geom_bond_site_symmetry_2
C1 C2 1_555 1_555
C2 C3 1_555 1_555
C3 H1 1_555 1_555
C4 C3 1_555 1_555
H2 C4 1_555 1_555
C5 C4 1_555 1_555
C6 C5 1_555 1_555
C7 C2 1_555 1_555
H3 C7 1_555 1_555
C8 C9 1_555 1_555
C9 C10 1_555 1_555
C10 H4 1_555 1_555
C11 C10 1_555 1_555
H5 C11 1_555 1_555
C12 C5 1_555 1_555
C13 C12 1_555 1_555
C14 C9 1_555 1_555
H6 C14 1_555 1_555
C15 C6 1_555 1_555
C16 C15 1_555 1_555
H7 C16 1_555 1_555
H8 C16 1_555 1_555
H9 C16 1_555 1_555
C17 C18 1_555 1_555
C18 C19 1_555 1_555
C19 H10 1_555 1_555
C20 C19 1_555 1_555
H11 C20 1_555 1_555
C21 C20 1_555 1_555
C22 C21 1_555 1_555
C23 C18 1_555 1_555
H12 C23 1_555 1_555
C24 C25 1_555 1_555
C25 C26 1_555 1_555
C26 H13 1_555 1_555
C27 C26 1_555 1_555
H14 C27 1_555 1_555
C28 C21 1_555 1_555
C29 C28 1_555 1_555
C30 C25 1_555 1_555
H15 C30 1_555 1_555
C31 C22 1_555 1_555
C32 C31 1_555 1_555
H16 C32 1_555 1_555
H17 C32 1_555 1_555
H18 C32 1_555 1_555
Eu1 O1 1_555 1_555
Eu2 O7 1_555 1_555
N1 O11 1_555 1_555
O1 C1 1_555 1_555
O2 C1 1_555 1_555
O3 C8 1_555 1_555
O4 C8 1_555 1_555
O5 C15 1_555 1_555
H19 O5 1_555 1_555
O6 C17 1_555 1_555
O7 C17 1_555 1_555
O8 C24 1_555 1_555
O9 C24 1_555 1_555
O10 C31 1_555 1_555
H20 O10 1_555 1_555
O11 Eu1 1_555 1_555
O12 N1 1_555 1_555
O13 N1 1_555 1_555
C33 H21 1_555 1_555
C34 H22 1_555 1_555
H23 C34 1_555 1_555
H24 C34 1_555 1_555
C35 H25 1_555 1_555
H26 C35 1_555 1_555
H27 C35 1_555 1_555
N2 C33 1_555 1_555
O14 Eu2 1_555 1_555
N3 O15 1_555 1_555
O16 Eu2 1_555 1_555
O17 N3 1_555 1_555
C36 C37 1_555 1_555
C37 H28 1_555 1_555
H29 C37 1_555 1_555
H30 C37 1_555 1_555
N4 C36 1_555 1_555
C38 H31 1_555 1_555
H32 C38 1_555 1_555
H33 C38 1_555 1_555
C39 H34 1_555 1_555
H35 C39 1_555 1_555
H36 C39 1_555 1_555
N5 C38 1_555 1_555
H37 N5 1_555 1_555
H38 N5 1_555 1_555
C40 H39 1_555 1_555
H40 C40 1_555 1_555
H41 C40 1_555 1_555
C41 H42 1_555 1_555
H43 C41 1_555 1_555
H44 C41 1_555 1_555
N6 C40 1_555 1_555
H45 N6 1_555 1_555
H46 N6 1_555 1_555
O18 H47 1_555 1_555
H48 O18 1_555 1_555
O19 H49 1_555 1_555
H50 O19 1_555 1_555
O20 H51 1_555 1_555
H52 O20 1_555 1_555
O21 H53 1_555 1_555
H54 O21 1_555 1_555
O22 H55 1_555 1_555
H56 O22 1_555 1_555
C1B C2B 1_555 1_555
C2B C3B 1_555 1_555
C3B H1B 1_555 1_555
C4B C3B 1_555 1_555
H2B C4B 1_555 1_555
C5B C4B 1_555 1_555
C6B C5B 1_555 1_555
C7B C2B 1_555 1_555
H3B C7B 1_555 1_555
C8B C9B 1_555 1_555
C9B C10B 1_555 1_555
C10B H4B 1_555 1_555
C11B C10B 1_555 1_555
H5B C11B 1_555 1_555
C12B C5B 1_555 1_555
C13B C12B 1_555 1_555
C14B C9B 1_555 1_555
H6B C14B 1_555 1_555
C15B C6B 1_555 1_555
C16B C15B 1_555 1_555
H7B C16B 1_555 1_555
H8B C16B 1_555 1_555
H9B C16B 1_555 1_555
C17B C18B 1_555 1_555
C18B C19B 1_555 1_555
C19B H10B 1_555 1_555
C20B C19B 1_555 1_555
H11B C20B 1_555 1_555
C21B C20B 1_555 1_555
C22B C21B 1_555 1_555
C23B C18B 1_555 1_555
H12B C23B 1_555 1_555
C24B C25B 1_555 1_555
C25B C26B 1_555 1_555
C26B H13B 1_555 1_555
C27B C26B 1_555 1_555
H14B C27B 1_555 1_555
C28B C21B 1_555 1_555
C29B C28B 1_555 1_555
C30B C25B 1_555 1_555
H15B C30B 1_555 1_555
C31B C22B 1_555 1_555
C32B C31B 1_555 1_555
H16B C32B 1_555 1_555
H17B C32B 1_555 1_555
H18B C32B 1_555 1_555
Eu1B O1B 1_555 1_555
N1B O11B 1_555 1_555
O1B C1B 1_555 1_555
O2B C1B 1_555 1_555
O3B C8B 1_555 1_555
O4B C8B 1_555 1_555
O5B C15B 1_555 1_555
H19B O5B 1_555 1_555
O6B C17B 1_555 1_555
O7B Eu2 1_555 1_555
O8B C24B 1_555 1_555
O9B C24B 1_555 1_555
O10B C31B 1_555 1_555
H20B O10B 1_555 1_555
O11B Eu1B 1_555 1_555
O12B N1B 1_555 1_555
O13B N1B 1_555 1_555
C33B H21B 1_555 1_555
C34B H22B 1_555 1_555
H23B C34B 1_555 1_555
H24B C34B 1_555 1_555
C35B H25B 1_555 1_555
H26B C35B 1_555 1_555
H27B C35B 1_555 1_555
N2B C33B 1_555 1_555
O14B Eu2 1_555 1_555
N3B O15B 1_555 1_555
O16B Eu2 1_555 1_555
O17B N3B 1_555 1_555
Eu1_2 O2B 1_555 1_555
Eu1A O9 1_555 1_555
Eu1A_2 O3 1_555 1_555
Eu1A_3 O8B 1_555 1_555
Eu1B_2 O2 1_555 1_555
Eu1C O8 1_555 1_555
Eu1C_2 O3B 1_555 1_555
Eu1C_3 O9B 1_555 1_555
Eu2A O4 1_555 1_555
Eu2A_2 O4B 1_555 1_555
O2_2 Eu1B 1_555 1_555
O2B_2 Eu1 1_555 1_555
O3A Eu1 1_555 1_555
O3C Eu1B 1_555 1_555
O4A Eu2 1_555 1_555
O4C Eu2 1_555 1_555
O8A Eu1B 1_555 1_555
O8C Eu1 1_555 1_555
O9A Eu1 1_555 1_555
O9C Eu1B 1_555 1_555
C6 C7 1_555 1_555
C11 C12 1_555 1_555
C13 C14 1_555 1_555
C13 C15 1_555 1_555
C22 C23 1_555 1_555
C27 C28 1_555 1_555
C29 C30 1_555 1_555
C29 C31 1_555 1_555
Eu1 O2 1_555 1_555
Eu1 O6 1_555 1_555
C33 O14 1_555 1_555
C34 N2 1_555 1_555
C35 N2 1_555 1_555
N3 O16 1_555 1_555
C39 N5 1_555 1_555
C41 N6 1_555 1_555
C6B C7B 1_555 1_555
C11B C12B 1_555 1_555
C13B C14B 1_555 1_555
C13B C15B 1_555 1_555
C17B O7B 1_555 1_555
C22B C23B 1_555 1_555
C27B C28B 1_555 1_555
C29B C30B 1_555 1_555
C29B C31B 1_555 1_555
Eu1B O2B 1_555 1_555
Eu1B O6B 1_555 1_555
C33B O14B 1_555 1_555
C34B N2B 1_555 1_555
C35B N2B 1_555 1_555
N3B O16B 1_555 1_555
Eu1_2 O2_2 1_555 1_555
Eu1B_2 O2B_2 1_555 1_555

#END
