
#######################################################################
#
#                 Cambridge Crystallographic Data Centre
#                                CCDC 
#
#######################################################################
#
# If this CIF has been generated from an entry in the Cambridge 
# Structural Database, then it will include bibliographic, chemical, 
# crystal, experimental, refinement or atomic coordinate data resulting 
# from the CCDC's data processing and validation procedures.
#
#######################################################################

data_EBEMOO
_chemical_formula_moiety         '(C16 H10 Cd1 N6 O4)n'
_symmetry_cell_setting           monoclinic
_symmetry_space_group_name_H-M   'C 2/c'
_symmetry_Int_Tables_number      15
_space_group_name_Hall           '-C 2yc'
loop_
_symmetry_equiv_pos_site_id
_symmetry_equiv_pos_as_xyz
1 x,y,z
2 x,-y,1/2+z
3 1/2+x,1/2+y,z
4 1/2+x,1/2-y,1/2+z
5 -x,-y,-z
6 -x,y,1/2-z
7 1/2-x,1/2-y,-z
8 1/2-x,1/2+y,1/2-z
_cell_length_a                   25.09(3)
_cell_length_b                   11.472(3)
_cell_length_c                   13.762(6)
_cell_angle_alpha                90
_cell_angle_beta                 102.94(2)
_cell_angle_gamma                90
_cell_volume                     3860.56
loop_
_atom_site_label
_atom_site_type_symbol
_atom_site_fract_x
_atom_site_fract_y
_atom_site_fract_z
_atom_site_U_iso_or_equiv
_atom_site_thermal_displace_type
Cd1 Cd 0.27801(1) 0.18128(2) 0.63129(2) 0.0252 Uani
O1 O 0.2734(2) 0.2261(4) 0.7929(3) 0.0714 Uani
O2 O 0.3395(2) 0.1043(5) 0.7987(3) 0.0827 Uani
O3 O 0.2472(3) -0.0357(4) 0.8307(3) 0.1065 Uani
O4 O 0.2661(1) -0.1604(2) 0.9543(2) 0.0350 Uani
N1 N 0.3294(2) 0.2285(4) 1.0089(3) 0.0630 Uani
N2 N 0.3027(1) 0.0152(3) 1.0826(2) 0.0293 Uani
N3 N 0.3645(2) 0.2659(4) 0.6291(3) 0.0449 Uani
N4 N 0.6886(1) 0.6038(3) 0.6242(2) 0.0316 Uani
N5 N 0.5214(2) 0.3882(5) 0.6205(4) 0.0591 Uani
N6 N 0.5293(2) 0.4936(4) 0.6308(3) 0.0488 Uani
C1 C 0.3102(2) 0.1392(4) 0.9482(3) 0.0370 Uani
C2 C 0.2958(2) 0.0345(3) 0.9847(3) 0.0266 Uani
C3 C 0.3216(2) 0.1031(4) 1.1428(3) 0.0462 Uani
C4 C 0.3326(3) 0.2075(5) 1.1051(4) 0.0734 Uani
C5 C 0.3077(3) 0.1577(4) 0.8371(3) 0.0479 Uani
C6 C 0.2680(2) -0.0614(4) 0.9160(3) 0.0373 Uani
C7 C 0.4068(2) 0.1984(6) 0.6297(6) 0.0666 Uani
C8 C 0.4579(2) 0.2376(6) 0.6248(5) 0.0676 Uani
C9 C 0.4664(2) 0.3539(5) 0.6239(4) 0.0461 Uani
C10 C 0.4244(2) 0.4275(5) 0.6246(4) 0.0475 Uani
C11 C 0.3735(2) 0.3782(5) 0.6267(4) 0.0475 Uani
C12 C 0.5849(2) 0.5246(4) 0.6296(3) 0.0389 Uani
C13 C 0.6258(2) 0.4466(4) 0.6232(4) 0.0433 Uani
C14 C 0.6771(2) 0.4905(4) 0.6213(4) 0.0390 Uani
C15 C 0.6480(2) 0.6789(4) 0.6293(4) 0.0382 Uani
C16 C 0.5964(2) 0.6430(5) 0.6336(4) 0.0439 Uani
H1 H 0.3433 0.2700 1.1506 0.0878 Uiso
H2 H 0.3274 0.0931 1.2129 0.0555 Uiso
H3 H 0.4017 0.1166 0.6339 0.0800 Uiso
H4 H 0.4865 0.1843 0.6221 0.0809 Uiso
H5 H 0.4292 0.5096 0.6236 0.0568 Uiso
H6 H 0.3437 0.4295 0.6264 0.0567 Uiso
H7 H 0.6191 0.3650 0.6202 0.0521 Uiso
H8 H 0.7054 0.4368 0.6178 0.0469 Uiso
H9 H 0.6554 0.7601 0.6299 0.0456 Uiso
H10 H 0.5690 0.6982 0.6392 0.0528 Uiso
O4A O 0.2661(1) 0.1604(2) 0.4543(2) 0.0350 Uani
O4G O 0.2339(1) 0.3396(2) 0.5457(2) 0.0350 Uani
N2A N 0.3027(1) -0.0152(3) 0.5826(2) 0.0293 Uani
N4B N 0.1886(1) 0.1038(3) 0.6242(2) 0.0316 Uani
Cd1A Cd 0.27801(1) -0.18128(2) 1.13129(2) 0.0252 Uani
Cd1G Cd 0.22199(1) -0.31872(2) 0.86871(2) 0.0252 Uani
Cd1B Cd 0.77801(1) 0.68128(2) 0.63129(2) 0.0252 Uani
loop_
_atom_site_aniso_label
_atom_site_aniso_U_11
_atom_site_aniso_U_22
_atom_site_aniso_U_33
_atom_site_aniso_U_23
_atom_site_aniso_U_13
_atom_site_aniso_U_12
Cd1 0.0265(2) 0.0276(2) 0.0221(2) 0.0000(1) 0.0064(1) -0.0050(1)
O1 0.119(4) 0.058(3) 0.032(2) 0.011(2) 0.006(2) -0.011(3)
O2 0.118(4) 0.092(4) 0.051(2) -0.004(2) 0.046(2) 0.002(3)
O3 0.190(6) 0.057(3) 0.044(2) 0.010(2) -0.034(3) -0.057(3)
O4 0.051(2) 0.025(1) 0.029(2) 0.000(1) 0.009(1) -0.004(1)
N1 0.117(4) 0.041(2) 0.028(2) -0.007(2) 0.010(2) -0.034(3)
N2 0.035(2) 0.035(2) 0.018(2) 0.000(1) 0.006(1) -0.003(1)
N3 0.033(2) 0.059(3) 0.042(2) 0.004(2) 0.007(2) -0.020(2)
N4 0.025(2) 0.037(2) 0.033(2) -0.002(1) 0.007(1) -0.007(1)
N5 0.036(2) 0.068(3) 0.076(3) 0.003(3) 0.018(2) -0.016(2)
N6 0.036(2) 0.058(3) 0.055(3) 0.001(2) 0.016(2) -0.016(2)
C1 0.059(3) 0.028(2) 0.024(2) -0.002(2) 0.009(2) -0.010(2)
C2 0.031(2) 0.029(2) 0.020(2) -0.001(1) 0.006(1) 0.000(2)
C3 0.073(3) 0.046(3) 0.019(2) -0.007(2) 0.009(2) -0.019(3)
C4 0.129(6) 0.059(4) 0.029(3) -0.015(2) 0.011(3) -0.045(4)
C5 0.084(4) 0.034(2) 0.027(2) -0.001(2) 0.015(2) -0.023(2)
C6 0.057(3) 0.032(2) 0.022(2) -0.002(2) 0.007(2) -0.011(2)
C7 0.033(3) 0.064(4) 0.100(5) 0.026(3) 0.009(3) -0.007(3)
C8 0.032(3) 0.065(4) 0.106(5) 0.017(4) 0.016(3) -0.012(3)
C9 0.027(2) 0.067(3) 0.044(3) 0.003(2) 0.007(2) -0.016(2)
C10 0.042(3) 0.054(3) 0.048(3) -0.008(2) 0.013(2) -0.020(2)
C11 0.034(2) 0.064(3) 0.045(3) -0.009(2) 0.010(2) -0.016(2)
C12 0.029(2) 0.052(3) 0.037(2) 0.002(2) 0.010(2) -0.015(2)
C13 0.035(2) 0.038(2) 0.058(3) 0.002(2) 0.013(2) -0.014(2)
C14 0.029(2) 0.036(2) 0.053(3) 0.006(2) 0.011(2) -0.006(2)
C15 0.035(2) 0.037(2) 0.045(3) -0.004(2) 0.014(2) -0.007(2)
C16 0.032(2) 0.049(3) 0.055(3) -0.011(2) 0.019(2) -0.002(2)
O4A 0.051 0.025 0.029 0 0.009 0.004
O4G 0.051 0.025 0.029 0 0.009 0.004
N2A 0.035 0.035 0.018 0 0.006 0.003
N4B 0.025 0.037 0.033 -0.002 0.007 -0.007
Cd1A 0.0265 0.0276 0.0221 0 0.0064 0.005
Cd1G 0.0265 0.0276 0.0221 0 0.0064 0.005
Cd1B 0.0265 0.0276 0.0221 0 0.0064 -0.005
loop_
_geom_bond_atom_site_label_1
_geom_bond_atom_site_label_2
_geom_bond_site_symmetry_1
_geom_bond_site_symmetry_2
Cd1 O1 1_555 1_555
O1 C5 1_555 1_555
O2 C5 1_555 1_555
O3 C6 1_555 1_555
O4 C6 1_555 1_555
N1 C1 1_555 1_555
N2 C2 1_555 1_555
N3 Cd1 1_555 1_555
N4 C14 1_555 1_555
N5 N6 1_555 1_555
N6 C12 1_555 1_555
C1 C2 1_555 1_555
C2 C6 1_555 1_555
C3 N2 1_555 1_555
C4 N1 1_555 1_555
C5 C1 1_555 1_555
C7 N3 1_555 1_555
C8 C7 1_555 1_555
C9 N5 1_555 1_555
C10 C9 1_555 1_555
C11 N3 1_555 1_555
C12 C13 1_555 1_555
C13 C14 1_555 1_555
C14 H8 1_555 1_555
C15 N4 1_555 1_555
C16 C12 1_555 1_555
H1 C4 1_555 1_555
H2 C3 1_555 1_555
H3 C7 1_555 1_555
H4 C8 1_555 1_555
H5 C10 1_555 1_555
H6 C11 1_555 1_555
H7 C13 1_555 1_555
H9 C15 1_555 1_555
H10 C16 1_555 1_555
O4A Cd1 1_555 1_555
O4G Cd1 1_555 1_555
N2A Cd1 1_555 1_555
N4B Cd1 1_555 1_555
Cd1A O4 1_555 1_555
Cd1G O4 1_555 1_555
Cd1B N4 1_555 1_555
N2 Cd1A 1_555 1_555
C3 C4 1_555 1_555
C8 C9 1_555 1_555
C10 C11 1_555 1_555
C15 C16 1_555 1_555

#END
