
#######################################################################
#
#                 Cambridge Crystallographic Data Centre
#                                CCDC 
#
#######################################################################
#
# If this CIF has been generated from an entry in the Cambridge 
# Structural Database, then it will include bibliographic, chemical, 
# crystal, experimental, refinement or atomic coordinate data resulting 
# from the CCDC's data processing and validation procedures.
#
#######################################################################

data_EBEMEE
_chemical_formula_moiety         '(C16 H14 Cd1 N6 O6)n'
_symmetry_cell_setting           monoclinic
_symmetry_space_group_name_H-M   'C 2/c'
_symmetry_Int_Tables_number      15
_space_group_name_Hall           '-C 2yc'
loop_
_symmetry_equiv_pos_site_id
_symmetry_equiv_pos_as_xyz
1 x,y,z
2 x,-y,1/2+z
3 1/2+x,1/2+y,z
4 1/2+x,1/2-y,1/2+z
5 -x,-y,-z
6 -x,y,1/2-z
7 1/2-x,1/2-y,-z
8 1/2-x,1/2+y,1/2-z
_cell_length_a                   25.02(7)
_cell_length_b                   11.44(2)
_cell_length_c                   13.78(2)
_cell_angle_alpha                90
_cell_angle_beta                 104.58(4)
_cell_angle_gamma                90
_cell_volume                     3817.22
loop_
_atom_site_label
_atom_site_type_symbol
_atom_site_fract_x
_atom_site_fract_y
_atom_site_fract_z
_atom_site_U_iso_or_equiv
_atom_site_thermal_displace_type
Cd1 Cd 0.77729(2) 0.17978(5) 0.63140(4) 0.0176 Uani
O1 O 0.7740(3) 0.2233(6) 0.7923(4) 0.0559 Uani
O2 O 0.8459(4) 0.1075(7) 0.8095(6) 0.0770 Uani
O3 O 0.7528(4) -0.0372(6) 0.8284(5) 0.0887 Uani
O4 O 0.7654(2) -0.1594(4) 0.9547(4) 0.0249 Uani
N1 N 0.8300(4) 0.2306(7) 1.0134(5) 0.0517 Uani
N2 N 0.8020(3) 0.0171(5) 1.0854(4) 0.0208 Uani
N3 N 0.8639(3) 0.2622(7) 0.6323(5) 0.0288 Uani
N4 N 1.1874(3) 0.6048(6) 0.6232(5) 0.0235 Uani
N5 N 1.0200(3) 0.3879(7) 0.6195(6) 0.0389 Uani
N6 N 1.0281(3) 0.4935(7) 0.6292(5) 0.0342 Uani
C1 C 0.8121(4) 0.1402(7) 0.9519(6) 0.0287 Uani
C2 C 0.7970(3) 0.0362(7) 0.9868(5) 0.0201 Uani
C3 C 0.8209(4) 0.1075(8) 1.1458(6) 0.0378 Uani
C4 C 0.8327(5) 0.2121(9) 1.1103(7) 0.0581 Uani
C5 C 0.8102(5) 0.1591(8) 0.8417(7) 0.0426 Uani
C6 C 0.7701(4) -0.0604(7) 0.9157(6) 0.0283 Uani
C7 C 0.9062(4) 0.1920(8) 0.6293(8) 0.0413 Uani
C8 C 0.9574(4) 0.2331(9) 0.6260(7) 0.0439 Uani
C9 C 0.9658(3) 0.3523(8) 0.6249(6) 0.0307 Uani
C10 C 0.9227(4) 0.4265(8) 0.6279(6) 0.0317 Uani
C11 C 0.8732(4) 0.3773(8) 0.6313(6) 0.0325 Uani
C12 C 1.0831(3) 0.5263(7) 0.6280(6) 0.0272 Uani
C13 C 1.1246(3) 0.4480(7) 0.6239(7) 0.0317 Uani
C14 C 1.1759(3) 0.4914(7) 0.6217(6) 0.0293 Uani
C15 C 1.1467(3) 0.6803(7) 0.6277(6) 0.0256 Uani
C16 C 1.0950(3) 0.6456(8) 0.6306(7) 0.0306 Uani
H1 H 0.8262 0.0980 1.2161 0.0454 Uiso
H2 H 0.8433 0.2750 1.1561 0.0691 Uiso
H3 H 0.9006 0.1098 0.6294 0.0495 Uiso
H4 H 0.9866 0.1804 0.6245 0.0526 Uiso
H5 H 0.9273 0.5089 0.6275 0.0379 Uiso
H6 H 0.8436 0.4284 0.6331 0.0394 Uiso
H7 H 1.1181 0.3661 0.6227 0.0383 Uiso
H8 H 1.2043 0.4374 0.6189 0.0352 Uiso
H9 H 1.1545 0.7617 0.6288 0.0307 Uiso
H10 H 1.0676 0.7016 0.6344 0.0369 Uiso
O4A O 0.7654(2) 0.1594(4) 0.4547(4) 0.0249 Uani
O4G O 0.7346(2) 0.3406(4) 0.5453(4) 0.0249 Uani
N2A N 0.8020(3) -0.0171(5) 0.5854(4) 0.0208 Uani
N4B N 0.6874(3) 0.1048(6) 0.6232(5) 0.0235 Uani
Cd1A Cd 0.77729(2) -0.17978(5) 1.13140(4) 0.0176 Uani
Cd1G Cd 0.72271(2) -0.32022(5) 0.86860(4) 0.0176 Uani
Cd1B Cd 1.27729(2) 0.67978(5) 0.63140(4) 0.0176 Uani
O5 O 0.935(1) -0.008(2) 0.907(2) 0.3500 Uiso
O6 O 0.9804 0.0883 1.1172 0.4109 Uiso
loop_
_atom_site_aniso_label
_atom_site_aniso_U_11
_atom_site_aniso_U_22
_atom_site_aniso_U_33
_atom_site_aniso_U_23
_atom_site_aniso_U_13
_atom_site_aniso_U_12
Cd1 0.0191(3) 0.0181(3) 0.0162(3) -0.0004(2) 0.0054(2) -0.0037(2)
O1 0.102(7) 0.040(4) 0.020(3) 0.007(3) 0.005(4) -0.015(4)
O2 0.137(9) 0.063(6) 0.051(5) 0.009(4) 0.061(6) 0.006(6)
O3 0.173(9) 0.050(5) 0.025(4) 0.004(3) -0.009(5) -0.064(6)
O4 0.036(3) 0.018(3) 0.021(3) -0.002(2) 0.008(2) -0.005(2)
N1 0.106(8) 0.027(4) 0.024(4) -0.006(3) 0.020(4) -0.032(5)
N2 0.026(3) 0.024(3) 0.014(3) -0.002(3) 0.008(3) -0.001(3)
N3 0.018(3) 0.039(4) 0.027(4) 0.002(3) 0.001(3) -0.012(3)
N4 0.023(3) 0.024(3) 0.023(3) 0.001(3) 0.005(3) -0.005(3)
N5 0.023(4) 0.042(5) 0.052(5) 0.001(4) 0.010(4) -0.014(4)
N6 0.026(4) 0.038(4) 0.040(4) 0.003(4) 0.011(3) -0.010(3)
C1 0.049(6) 0.020(4) 0.020(4) -0.003(3) 0.014(4) -0.012(4)
C2 0.026(4) 0.018(4) 0.016(3) -0.002(3) 0.005(3) -0.002(3)
C3 0.061(7) 0.037(5) 0.015(4) -0.005(4) 0.009(4) -0.020(5)
C4 0.12(1) 0.033(5) 0.019(4) -0.010(4) 0.013(5) -0.035(6)
C5 0.086(9) 0.021(5) 0.024(5) -0.006(4) 0.020(5) -0.026(5)
C6 0.049(6) 0.022(4) 0.014(4) -0.001(3) 0.008(4) -0.009(4)
C7 0.023(4) 0.037(6) 0.062(7) 0.013(5) 0.007(4) -0.007(4)
C8 0.018(4) 0.043(6) 0.069(7) 0.010(5) 0.008(4) -0.004(4)
C9 0.020(4) 0.043(5) 0.028(4) 0.001(4) 0.004(3) -0.010(4)
C10 0.026(4) 0.037(5) 0.034(5) -0.009(4) 0.011(4) -0.014(4)
C11 0.026(5) 0.040(5) 0.032(5) -0.007(4) 0.008(4) -0.011(4)
C12 0.020(4) 0.032(5) 0.030(4) 0.002(4) 0.007(3) -0.008(4)
C13 0.025(4) 0.022(4) 0.049(6) 0.002(4) 0.011(4) -0.008(4)
C14 0.021(4) 0.025(4) 0.042(5) 0.006(4) 0.008(4) -0.005(3)
C15 0.026(4) 0.024(4) 0.030(4) -0.003(4) 0.013(3) -0.006(4)
C16 0.024(4) 0.030(5) 0.041(5) -0.006(4) 0.014(4) -0.003(4)
O4A 0.036 0.018 0.021 0.002 0.008 0.005
O4G 0.036 0.018 0.021 0.002 0.008 0.005
N2A 0.026 0.024 0.014 0.002 0.008 0.001
N4B 0.023 0.024 0.023 0.001 0.005 -0.005
Cd1A 0.0191 0.0181 0.0162 0.0004 0.0054 0.0037
Cd1G 0.0191 0.0181 0.0162 0.0004 0.0054 0.0037
Cd1B 0.0191 0.0181 0.0162 -0.0004 0.0054 -0.0037
loop_
_geom_bond_atom_site_label_1
_geom_bond_atom_site_label_2
_geom_bond_site_symmetry_1
_geom_bond_site_symmetry_2
Cd1 O1 1_555 1_555
O1 C5 1_555 1_555
O2 C5 1_555 1_555
O3 C6 1_555 1_555
O4 C6 1_555 1_555
N1 C1 1_555 1_555
N2 C2 1_555 1_555
N3 Cd1 1_555 1_555
N4 C14 1_555 1_555
N5 N6 1_555 1_555
N6 C12 1_555 1_555
C1 C2 1_555 1_555
C2 C6 1_555 1_555
C3 N2 1_555 1_555
C4 N1 1_555 1_555
C5 C1 1_555 1_555
C7 N3 1_555 1_555
C8 C7 1_555 1_555
C9 N5 1_555 1_555
C10 C9 1_555 1_555
C11 N3 1_555 1_555
C12 C13 1_555 1_555
C13 C14 1_555 1_555
C14 H8 1_555 1_555
C15 N4 1_555 1_555
C16 C12 1_555 1_555
H1 C3 1_555 1_555
H2 C4 1_555 1_555
H3 C7 1_555 1_555
H4 C8 1_555 1_555
H5 C10 1_555 1_555
H6 C11 1_555 1_555
H7 C13 1_555 1_555
H9 C15 1_555 1_555
H10 C16 1_555 1_555
O4A Cd1 1_555 1_555
O4G Cd1 1_555 1_555
N2A Cd1 1_555 1_555
N4B Cd1 1_555 1_555
Cd1A O4 1_555 1_555
Cd1G O4 1_555 1_555
Cd1B N4 1_555 1_555
N2 Cd1A 1_555 1_555
C3 C4 1_555 1_555
C8 C9 1_555 1_555
C10 C11 1_555 1_555
C15 C16 1_555 1_555

#END
