
#######################################################################
#
#                 Cambridge Crystallographic Data Centre
#                                CCDC 
#
#######################################################################
#
# If this CIF has been generated from an entry in the Cambridge 
# Structural Database, then it will include bibliographic, chemical, 
# crystal, experimental, refinement or atomic coordinate data resulting 
# from the CCDC's data processing and validation procedures.
#
#######################################################################

data_XOPMIA
_chemical_formula_moiety         '(C70 H78 Cd2 N14 O16)n'
_symmetry_cell_setting           triclinic
_symmetry_space_group_name_H-M   'P -1'
_symmetry_Int_Tables_number      2
_space_group_name_Hall           '-P 1'
loop_
_symmetry_equiv_pos_site_id
_symmetry_equiv_pos_as_xyz
1 x,y,z
2 -x,-y,-z
_cell_length_a                   9.0720(18)
_cell_length_b                   13.140(3)
_cell_length_c                   30.700(6)
_cell_angle_alpha                92.72(3)
_cell_angle_beta                 90.20(3)
_cell_angle_gamma                90.01(3)
_cell_volume                     3655.48
loop_
_atom_site_label
_atom_site_type_symbol
_atom_site_fract_x
_atom_site_fract_y
_atom_site_fract_z
Cd1 Cd 0.63503(7) 0.57854(4) 0.462894(17)
Cd2 Cd 0.86443(7) 0.57848(4) -0.036956(17)
O1 O 0.7113(7) 0.6584(5) 0.52646(18)
O2 O 0.5551(7) 0.5409(5) 0.5456(2)
O3 O 0.6373(9) 0.8094(5) 0.7231(2)
O4 O 0.8436(7) 0.5696(5) 0.88832(18)
O5 O 0.7028(7) 0.6902(5) 0.91999(19)
O6 O 0.6553(7) 0.5699(5) 0.38812(19)
O7 O 0.7960(7) 0.6904(5) 0.42009(18)
O8 O 0.8650(9) 0.8084(5) 0.2233(2)
O9 O 0.7874(7) 0.6581(5) 0.02650(18)
O10 O 0.9471(7) 0.5407(5) 0.0459(2)
N1 N 0.7871(9) 0.4393(5) 0.4707(2)
N2 N 1.0613(9) 0.1058(6) 0.4562(3)
N3 N 1.1604(9) 0.0297(6) 0.4682(3)
N4 N 1.4612(9) -0.2902(5) 0.4556(2)
N5 N 0.7122(8) 0.4392(5) -0.0291(2)
N6 N 0.4367(9) 0.1060(6) -0.0434(3)
N7 N 0.3396(10) 0.0300(6) -0.0317(3)
N8 N 0.0387(9) -0.2912(6) -0.0440(2)
C1 C 0.6373(9) 0.6176(6) 0.5549(3)
C2 C 0.6426(9) 0.6611(6) 0.6007(3)
C3 C 0.7344(11) 0.7435(7) 0.6102(3)
H1 H 0.7951 0.7688 0.5880
C4 C 0.7386(12) 0.7896(7) 0.6521(3)
H2 H 0.8039 0.8447 0.6587
C5 C 0.6477(11) 0.7545(7) 0.6834(3)
C6 C 0.5549(11) 0.6709(7) 0.6751(3)
H3 H 0.4932 0.6468 0.6974
C7 C 0.5546(10) 0.6238(7) 0.6337(3)
H4 H 0.4942 0.5657 0.6278
C8 C 0.6624(11) 0.7609(7) 0.7615(3)
C9 C 0.7621(11) 0.6833(7) 0.7647(3)
H5 H 0.8101 0.6555 0.7394
C10 C 0.7924(10) 0.6459(7) 0.8053(3)
H6 H 0.8636 0.5934 0.8078
C11 C 0.7194(9) 0.6843(6) 0.8424(3)
C12 C 0.6147(10) 0.7606(7) 0.8378(3)
H7 H 0.5621 0.7859 0.8627
C13 C 0.5855(11) 0.8002(7) 0.7978(3)
H8 H 0.5149 0.8530 0.7951
C14 C 0.7559(10) 0.6460(6) 0.8863(3)
C15 C 0.7429(10) 0.6465(7) 0.3862(3)
C16 C 0.7804(9) 0.6850(7) 0.3424(2)
C17 C 0.7071(11) 0.6455(7) 0.3050(3)
H9 H 0.6357 0.5932 0.3075
C18 C 0.7384(11) 0.6825(7) 0.2646(3)
H10 H 0.6913 0.6545 0.2391
C19 C 0.8385(11) 0.7603(7) 0.2619(3)
C20 C 0.9167(11) 0.8002(7) 0.2981(3)
H11 H 0.9880 0.8525 0.2955
C21 C 0.8852(10) 0.7598(7) 0.3381(3)
H12 H 0.9376 0.7845 0.3633
C22 C 0.8550(12) 0.7533(7) 0.1838(3)
C23 C 0.7623(11) 0.7884(7) 0.1523(3)
H13 H 0.6961 0.8427 0.1592
C24 C 0.7661(11) 0.7437(7) 0.1103(3)
H14 H 0.7053 0.7694 0.0881
C25 C 0.8598(10) 0.6607(6) 0.1008(3)
C26 C 0.9465(11) 0.6238(7) 0.1337(3)
H15 H 1.0076 0.5661 0.1277
C27 C 0.9452(11) 0.6698(7) 0.1752(3)
H16 H 1.0056 0.6443 0.1976
C28 C 0.8673(9) 0.6173(6) 0.0548(3)
C29 C 0.8553(9) 0.4258(7) 0.5082(3)
H17 H 0.8438 0.4752 0.5315
C30 C 0.9443(10) 0.3399(7) 0.5142(3)
H18 H 0.9935 0.3316 0.5411
C31 C 0.9592(10) 0.2672(7) 0.4799(3)
C32 C 0.8855(11) 0.2822(7) 0.4409(3)
H19 H 0.8932 0.2338 0.4170
C33 C 0.8006(10) 0.3691(7) 0.4376(3)
H20 H 0.7501 0.3795 0.4110
C34 C 1.0529(11) 0.1776(7) 0.4863(3)
H21 H 1.1073 0.1726 0.5126
C35 C 1.1822(11) -0.0368(7) 0.4367(3)
H22 H 1.1353 -0.0296 0.4093
C36 C 1.2797(11) -0.1236(7) 0.4434(3)
C37 C 1.3628(14) -0.1305(8) 0.4807(4)
H23 H 1.3590 -0.0777 0.5029
C38 C 1.4515(12) -0.2143(8) 0.4859(3)
H24 H 1.5077 -0.2182 0.5119
C39 C 1.3816(11) -0.2875(7) 0.4194(3)
H25 H 1.3848 -0.3432 0.3985
C40 C 1.2919(11) -0.2021(7) 0.4118(3)
H26 H 1.2401 -0.1984 0.3850
C41 C 0.6975(10) 0.3697(7) -0.0620(3)
H27 H 0.7468 0.3804 -0.0887
C42 C 0.6129(11) 0.2822(7) -0.0588(3)
H28 H 0.6045 0.2341 -0.0827
C43 C 0.5411(10) 0.2667(6) -0.0199(3)
C44 C 0.5590(10) 0.3395(7) 0.0143(3)
H29 H 0.5127 0.3305 0.0416
C45 C 0.6449(9) 0.4251(7) 0.0084(3)
H30 H 0.6557 0.4748 0.0317
C46 C 0.4465(11) 0.1782(6) -0.0135(3)
H31 H 0.3920 0.1740 0.0127
C47 C 0.3168(11) -0.0375(7) -0.0630(3)
H32 H 0.3642 -0.0312 -0.0903
C48 C 0.2189(11) -0.1234(6) -0.0566(3)
C49 C 0.2076(12) -0.2026(7) -0.0880(3)
H33 H 0.2607 -0.2000 -0.1145
C50 C 0.1180(12) -0.2864(7) -0.0804(3)
H34 H 0.1133 -0.3413 -0.1016
C51 C 0.0474(13) -0.2140(8) -0.0143(3)
H35 H -0.0104 -0.2171 0.0113
C52 C 0.1357(14) -0.1301(8) -0.0188(3)
H36 H 0.1399 -0.0775 0.0035
Cd1_2 Cd 1.63503(7) -0.42146(4) 0.462894(17)
Cd1A Cd 0.36497(7) 0.42146(4) 0.537106(17)
Cd2_2 Cd -0.13557(7) -0.42152(4) -0.036956(17)
Cd2_3 Cd 0.86443(7) 0.57848(4) 0.963044(17)
Cd2A Cd 1.13557(7) 0.42152(4) 0.036956(17)
O2A O 0.4449(7) 0.4591(5) 0.4544(2)
O4_2 O 0.8436(7) 0.5696(5) -0.11168(18)
O5_2 O 0.7028(7) 0.6902(5) -0.08001(19)
O10A O 1.0529(7) 0.4593(5) -0.0459(2)
N4_2 N 0.4612(9) 0.7098(5) 0.4556(2)
N8_2 N 1.0387(9) 0.7088(6) -0.0440(2)
O11 O 0.843(2) 0.1399(10) 0.3401(5)
N9 N 0.7168(16) 0.0385(10) 0.3851(4)
C53 C 0.836(2) 0.0613(12) 0.3599(6)
H37 H 0.9156 0.0144 0.3577
C54 C 0.716(3) -0.0527(12) 0.4105(6)
H38 H 0.6209 -0.0877 0.4065
H39 H 0.7301 -0.0334 0.4414
H40 H 0.7955 -0.0984 0.4005
C55 C 0.593(2) 0.1070(13) 0.3918(6)
H41 H 0.6045 0.1653 0.3733
H42 H 0.5897 0.1312 0.4225
H43 H 0.5015 0.0709 0.3841
O12 O 1.1206(12) 0.5763(8) 0.2652(3)
N10 N 0.9990(12) 0.4767(8) 0.3116(3)
C56 C 1.0204(16) 0.5176(10) 0.2731(4)
H44 H 0.9530 0.4999 0.2502
C57 C 1.0877(16) 0.5015(12) 0.3485(4)
H45 H 1.1573 0.5554 0.3415
H46 H 1.1425 0.4410 0.3566
H47 H 1.0251 0.5253 0.3728
C58 C 0.8753(16) 0.4101(9) 0.3174(4)
H48 H 0.8104 0.4399 0.3400
H49 H 0.9108 0.3437 0.3261
H50 H 0.8206 0.4015 0.2899
O13 O 0.6970(10) 0.0621(7) 0.1696(3)
N11 N 0.8848(14) 0.1027(9) 0.2169(4)
C59 C 0.8109(16) 0.0423(9) 0.1893(4)
H51 H 0.8500 -0.0242 0.1839
C60 C 1.015(2) 0.0699(14) 0.2393(8)
H52 H 1.0061 0.0880 0.2706
H53 H 1.1017 0.1035 0.2277
H54 H 1.0254 -0.0041 0.2350
C61 C 0.830(2) 0.2061(15) 0.2273(8)
H55 H 0.7518 0.2224 0.2067
H56 H 0.9112 0.2549 0.2250
H57 H 0.7911 0.2101 0.2570
O14 O 0.652(2) 0.1375(10) -0.1596(5)
N12 N 0.7784(16) 0.0387(9) -0.1150(4)
C62 C 0.664(2) 0.0625(11) -0.1401(5)
H58 H 0.5860 0.0146 -0.1425
C63 C 0.903(2) 0.1080(14) -0.1095(7)
H59 H 0.9947 0.0703 -0.1144
H60 H 0.9022 0.1390 -0.0798
H61 H 0.8948 0.1616 -0.1305
C64 C 0.786(3) -0.0508(12) -0.0901(6)
H62 H 0.6893 -0.0834 -0.0896
H63 H 0.8172 -0.0316 -0.0602
H64 H 0.8582 -0.0984 -0.1034
O15 O 0.3804(12) 0.5759(8) -0.2352(3)
N13 N 0.5018(13) 0.4756(8) -0.1889(3)
C65 C 0.4799(16) 0.5183(10) -0.2273(4)
H65 H 0.5480 0.5019 -0.2500
C66 C 0.6255(17) 0.4064(10) -0.1826(4)
H66 H 0.6782 0.3950 -0.2102
H67 H 0.5884 0.3413 -0.1729
H68 H 0.6929 0.4366 -0.1606
C67 C 0.4099(17) 0.5027(12) -0.1516(5)
H69 H 0.3502 0.5624 -0.1579
H70 H 0.4724 0.5185 -0.1261
H71 H 0.3450 0.4454 -0.1457
O16 O 0.8028(10) 0.0609(6) -0.3302(3)
N14 N 0.6132(13) 0.1018(9) -0.2836(4)
C68 C 0.6879(16) 0.0420(9) -0.3111(4)
H72 H 0.6481 -0.0241 -0.3169
C69 C 0.667(2) 0.2073(14) -0.2736(7)
H73 H 0.7180 0.2102 -0.2454
H74 H 0.5824 0.2541 -0.2722
H75 H 0.7343 0.2271 -0.2965
C70 C 0.480(2) 0.0690(15) -0.2627(8)
H76 H 0.3944 0.0962 -0.2776
H77 H 0.4806 0.0941 -0.2321
H78 H 0.4760 -0.0056 -0.2641
loop_
_geom_bond_atom_site_label_1
_geom_bond_atom_site_label_2
_geom_bond_site_symmetry_1
_geom_bond_site_symmetry_2
Cd1 O1 1_555 1_555
Cd2 O9 1_555 1_555
O1 C1 1_555 1_555
O2 Cd1 1_555 1_555
O3 C5 1_555 1_555
O4 C14 1_555 1_555
O5 C14 1_555 1_555
O6 Cd1 1_555 1_555
O7 Cd1 1_555 1_555
O8 C19 1_555 1_555
O9 C28 1_555 1_555
O10 Cd2 1_555 1_555
N1 Cd1 1_555 1_555
N2 N3 1_555 1_555
N3 C35 1_555 1_555
N4 C38 1_555 1_555
N5 Cd2 1_555 1_555
N6 N7 1_555 1_555
N7 C47 1_555 1_555
N8 C50 1_555 1_555
C1 O2 1_555 1_555
C2 C1 1_555 1_555
C3 C2 1_555 1_555
H1 C3 1_555 1_555
C4 C3 1_555 1_555
H2 C4 1_555 1_555
C5 C4 1_555 1_555
C6 C5 1_555 1_555
H3 C6 1_555 1_555
C7 C2 1_555 1_555
H4 C7 1_555 1_555
C8 O3 1_555 1_555
C9 C8 1_555 1_555
H5 C9 1_555 1_555
C10 C9 1_555 1_555
H6 C10 1_555 1_555
C11 C10 1_555 1_555
C12 C11 1_555 1_555
H7 C12 1_555 1_555
C13 C8 1_555 1_555
H8 C13 1_555 1_555
C14 C11 1_555 1_555
C15 O6 1_555 1_555
C16 C15 1_555 1_555
C17 C16 1_555 1_555
H9 C17 1_555 1_555
C18 C17 1_555 1_555
H10 C18 1_555 1_555
C19 C18 1_555 1_555
C20 C19 1_555 1_555
H11 C20 1_555 1_555
C21 C16 1_555 1_555
H12 C21 1_555 1_555
C22 O8 1_555 1_555
C23 C22 1_555 1_555
H13 C23 1_555 1_555
C24 C23 1_555 1_555
H14 C24 1_555 1_555
C25 C24 1_555 1_555
C26 C25 1_555 1_555
H15 C26 1_555 1_555
C27 C22 1_555 1_555
H16 C27 1_555 1_555
C28 O10 1_555 1_555
C29 N1 1_555 1_555
H17 C29 1_555 1_555
C30 C29 1_555 1_555
H18 C30 1_555 1_555
C31 C30 1_555 1_555
C32 C31 1_555 1_555
H19 C32 1_555 1_555
C33 N1 1_555 1_555
H20 C33 1_555 1_555
C34 N2 1_555 1_555
H21 C34 1_555 1_555
C35 H22 1_555 1_555
C36 C35 1_555 1_555
C37 C36 1_555 1_555
H23 C37 1_555 1_555
C38 C37 1_555 1_555
H24 C38 1_555 1_555
C39 N4 1_555 1_555
H25 C39 1_555 1_555
C40 C36 1_555 1_555
H26 C40 1_555 1_555
C41 N5 1_555 1_555
H27 C41 1_555 1_555
C42 C41 1_555 1_555
H28 C42 1_555 1_555
C43 C42 1_555 1_555
C44 C43 1_555 1_555
H29 C44 1_555 1_555
C45 N5 1_555 1_555
H30 C45 1_555 1_555
C46 N6 1_555 1_555
H31 C46 1_555 1_555
C47 H32 1_555 1_555
C48 C47 1_555 1_555
C49 C48 1_555 1_555
H33 C49 1_555 1_555
C50 C49 1_555 1_555
H34 C50 1_555 1_555
C51 N8 1_555 1_555
H35 C51 1_555 1_555
C52 C48 1_555 1_555
H36 C52 1_555 1_555
O11 C53 1_555 1_555
N9 C53 1_555 1_555
C53 H37 1_555 1_555
C54 N9 1_555 1_555
H38 C54 1_555 1_555
H39 C54 1_555 1_555
H40 C54 1_555 1_555
C55 N9 1_555 1_555
H41 C55 1_555 1_555
H42 C55 1_555 1_555
H43 C55 1_555 1_555
O12 C56 1_555 1_555
N10 C56 1_555 1_555
C56 H44 1_555 1_555
C57 N10 1_555 1_555
H45 C57 1_555 1_555
H46 C57 1_555 1_555
H47 C57 1_555 1_555
C58 N10 1_555 1_555
H48 C58 1_555 1_555
H49 C58 1_555 1_555
H50 C58 1_555 1_555
O13 C59 1_555 1_555
N11 C59 1_555 1_555
C59 H51 1_555 1_555
C60 N11 1_555 1_555
H52 C60 1_555 1_555
H53 C60 1_555 1_555
H54 C60 1_555 1_555
C61 N11 1_555 1_555
H55 C61 1_555 1_555
H56 C61 1_555 1_555
H57 C61 1_555 1_555
O14 C62 1_555 1_555
N12 C62 1_555 1_555
C62 H58 1_555 1_555
C63 N12 1_555 1_555
H59 C63 1_555 1_555
H60 C63 1_555 1_555
H61 C63 1_555 1_555
C64 N12 1_555 1_555
H62 C64 1_555 1_555
H63 C64 1_555 1_555
H64 C64 1_555 1_555
O15 C65 1_555 1_555
N13 C65 1_555 1_555
C65 H65 1_555 1_555
C66 N13 1_555 1_555
H66 C66 1_555 1_555
H67 C66 1_555 1_555
H68 C66 1_555 1_555
C67 N13 1_555 1_555
H69 C67 1_555 1_555
H70 C67 1_555 1_555
H71 C67 1_555 1_555
O16 C68 1_555 1_555
N14 C68 1_555 1_555
C68 H72 1_555 1_555
C69 N14 1_555 1_555
H73 C69 1_555 1_555
H74 C69 1_555 1_555
H75 C69 1_555 1_555
C70 N14 1_555 1_555
H76 C70 1_555 1_555
H77 C70 1_555 1_555
H78 C70 1_555 1_555
Cd1_2 N4 1_555 1_555
Cd1A O2 1_555 1_555
Cd2_2 N8 1_555 1_555
Cd2_3 O4 1_555 1_555
Cd2A O10 1_555 1_555
O2A Cd1 1_555 1_555
O4_2 Cd2 1_555 1_555
O5_2 Cd2 1_555 1_555
O10A Cd2 1_555 1_555
N4_2 Cd1 1_555 1_555
N8_2 Cd2 1_555 1_555
O5 Cd2_3 1_555 1_555
O7 C15 1_555 1_555
C6 C7 1_555 1_555
C12 C13 1_555 1_555
C20 C21 1_555 1_555
C25 C28 1_555 1_555
C26 C27 1_555 1_555
C31 C34 1_555 1_555
C32 C33 1_555 1_555
C39 C40 1_555 1_555
C43 C46 1_555 1_555
C44 C45 1_555 1_555
C51 C52 1_555 1_555
Cd1A O2A 1_555 1_555
Cd2A O10A 1_555 1_555

#END
