
#######################################################################
#
#                 Cambridge Crystallographic Data Centre
#                                CCDC 
#
#######################################################################
#
# If this CIF has been generated from an entry in the Cambridge 
# Structural Database, then it will include bibliographic, chemical, 
# crystal, experimental, refinement or atomic coordinate data resulting 
# from the CCDC's data processing and validation procedures.
#
#######################################################################

data_CUGLIB
_chemical_formula_moiety         '(C12 H18 Ag6 Br1 N12 O2 1-)n'
_symmetry_cell_setting           tetragonal
_symmetry_space_group_name_H-M   'I -4 2 d'
_symmetry_Int_Tables_number      122
_space_group_name_Hall           'I -4 2bw'
loop_
_symmetry_equiv_pos_site_id
_symmetry_equiv_pos_as_xyz
1 x,y,z
2 y,-x,-z
3 -x,-y,z
4 -y,x,-z
5 x,1/2-y,1/4-z
6 -x,1/2+y,1/4-z
7 -y,1/2-x,1/4+z
8 y,1/2+x,1/4+z
9 1/2+x,1/2+y,1/2+z
10 1/2+y,1/2-x,1/2-z
11 1/2-x,1/2-y,1/2+z
12 1/2-y,1/2+x,1/2-z
13 1/2+x,-y,3/4-z
14 1/2-x,y,3/4-z
15 1/2-y,-x,3/4+z
16 1/2+y,x,3/4+z
_cell_length_a                   28.503(3)
_cell_length_b                   28.503(3)
_cell_length_c                   3.5383(5)
_cell_angle_alpha                90
_cell_angle_beta                 90
_cell_angle_gamma                90
_cell_volume                     2874.59
loop_
_atom_site_label
_atom_site_type_symbol
_atom_site_fract_x
_atom_site_fract_y
_atom_site_fract_z
Ag1 Ag 0.95726(17) 0.9239(2) 1.0113(17)
Ag2 Ag 0.7500 0.9281(4) 0.3750
Br1 Br 1.0000 1.0000 0.5000
N1 N 0.8908(11) 0.9441(9) 0.832(10)
N2 N 0.8777(10) 0.9906(9) 0.827(9)
N3 N 0.8177(9) 0.9481(11) 0.619(10)
C1 C 0.8542(12) 0.9213(11) 0.712(14)
H1 H 0.8535 0.8888 0.6915
C2 C 0.8348(11) 0.9905(10) 0.700(13)
C3 C 0.807(3) 1.033(2) 0.59(3)
H2 H 0.8279 1.0553 0.4738
H3 H 0.7940 1.0468 0.8160
H4 H 0.7829 1.0244 0.4216
Ag1A Ag 0.9239(2) 1.04274(17) -0.0113(17)
Ag2A Ag 0.9281(4) 1.2500 0.6250
N1A N 0.9441(9) 1.1092(11) 0.168(10)
N2A N 0.9906(9) 1.1223(10) 0.173(9)
N3A N 0.9481(11) 1.1823(9) 0.381(10)
C1A C 0.9213(11) 1.1458(12) 0.288(14)
H1A H 0.8888 1.1465 0.3085
C2A C 0.9905(10) 1.1652(11) 0.300(13)
C3A C 1.033(2) 1.193(3) 0.41(3)
H2A H 1.0553 1.1721 0.5262
H3A H 1.0468 1.2060 0.1840
H4A H 1.0244 1.2171 0.5784
Ag1B Ag 1.04274(17) 1.0761(2) 1.0113(17)
N1B N 1.1092(11) 1.0559(9) 0.832(10)
N2B N 1.1223(10) 1.0094(9) 0.827(9)
N3B N 1.1823(9) 1.0519(11) 0.619(10)
C1B C 1.1458(12) 1.0787(11) 0.712(14)
H1B H 1.1465 1.1112 0.6915
C2B C 1.1652(11) 1.0095(10) 0.700(13)
C3B C 1.193(3) 0.967(2) 0.59(3)
H2B H 1.1721 0.9447 0.4738
H3B H 1.2060 0.9532 0.8160
H4B H 1.2171 0.9756 0.4216
Ag1C Ag 1.0761(2) 0.95726(17) -0.0113(17)
N1C N 1.0559(9) 0.8908(11) 0.168(10)
N2C N 1.0094(9) 0.8777(10) 0.173(9)
N3C N 1.0519(11) 0.8177(9) 0.381(10)
C1C C 1.0787(11) 0.8542(12) 0.288(14)
H1C H 1.1112 0.8535 0.3085
C2C C 1.0095(10) 0.8348(11) 0.300(13)
C3C C 0.967(2) 0.807(3) 0.41(3)
H2C H 0.9447 0.8279 0.5262
H3C H 0.9532 0.7940 0.1840
H4C H 0.9756 0.7829 0.5784
Ag1_2 Ag 0.95726(17) 0.9239(2) 0.0113(17)
Ag1A_2 Ag 0.9239(2) 1.04274(17) 0.9887(17)
Ag1B_2 Ag 1.04274(17) 1.0761(2) 0.0113(17)
Ag1C_2 Ag 1.0761(2) 0.95726(17) 0.9887(17)
Ag2B Ag 1.2500 1.0719(4) 0.3750
Ag2C Ag 1.0719(4) 0.7500 0.6250
Br1_2 Br 1.0000 1.0000 -0.5000
Br1_3 Br 1.0000 1.0000 1.5000
N2_2 N 0.8777(10) 0.9906(9) -0.173(9)
N2A_2 N 0.9906(9) 1.1223(10) 1.173(9)
N2B_2 N 1.1223(10) 1.0094(9) -0.173(9)
N2C_2 N 1.0094(9) 0.8777(10) 1.173(9)
N3G N 0.9481(11) 1.3177(9) 0.869(10)
N3M N 0.6823(9) 0.9481(11) 0.131(10)
O1 O 0.742(5) 0.811(4) 0.28(4)
H5M H 0.7816 0.7967 0.3889
H5 H 0.7184 0.7967 0.3611
O1M O 0.758(5) 0.811(4) 0.47(4)
loop_
_geom_bond_atom_site_label_1
_geom_bond_atom_site_label_2
_geom_bond_site_symmetry_1
_geom_bond_site_symmetry_2
Ag1 Br1 1_555 1_555
Ag2 N3 1_555 1_555
Br1 Ag1A 1_555 1_555
N1 Ag1 1_555 1_555
N2 N1 1_555 1_555
N3 C1 1_555 1_555
C1 N1 1_555 1_555
H1 C1 1_555 1_555
C2 N2 1_555 1_555
C3 C2 1_555 1_555
H2 C3 1_555 1_555
H3 C3 1_555 1_555
H4 C3 1_555 1_555
O1 H5M 1_555 1_555
H5 O1M 1_555 1_555
Ag1A N1A 1_555 1_555
Ag2A N3A 1_555 1_555
N1A N2A 1_555 1_555
N2A C2A 1_555 1_555
N3A C1A 1_555 1_555
C1A N1A 1_555 1_555
H1A C1A 1_555 1_555
C2A N3A 1_555 1_555
C3A C2A 1_555 1_555
H2A C3A 1_555 1_555
H3A C3A 1_555 1_555
H4A C3A 1_555 1_555
Ag1B Br1 1_555 1_555
N1B Ag1B 1_555 1_555
N2B N1B 1_555 1_555
N3B C1B 1_555 1_555
C1B N1B 1_555 1_555
H1B C1B 1_555 1_555
C2B N2B 1_555 1_555
C3B C2B 1_555 1_555
H2B C3B 1_555 1_555
H3B C3B 1_555 1_555
H4B C3B 1_555 1_555
Ag1C Br1 1_555 1_555
N1C Ag1C 1_555 1_555
N2C N1C 1_555 1_555
N3C C1C 1_555 1_555
C1C N1C 1_555 1_555
H1C C1C 1_555 1_555
C2C N2C 1_555 1_555
C3C C2C 1_555 1_555
H2C C3C 1_555 1_555
H3C C3C 1_555 1_555
H4C C3C 1_555 1_555
Ag1_2 Br1 1_555 1_555
Ag1A_2 Br1 1_555 1_555
Ag1B_2 Br1 1_555 1_555
Ag1C_2 Br1 1_555 1_555
Ag2B N3B 1_555 1_555
Ag2C N3C 1_555 1_555
Br1_2 Ag1A 1_555 1_555
Br1_3 Ag1 1_555 1_555
N2_2 Ag1A 1_555 1_555
N2A_2 Ag1B 1_555 1_555
N2B_2 Ag1C 1_555 1_555
N2C_2 Ag1 1_555 1_555
N3G Ag2A 1_555 1_555
N3M Ag2 1_555 1_555
N2 Ag1A_2 1_555 1_555
N3 C2 1_555 1_555
N2A Ag1B_2 1_555 1_555
Ag1B Br1_3 1_555 1_555
N2B Ag1C_2 1_555 1_555
N3B C2B 1_555 1_555
Ag1C Br1_2 1_555 1_555
N2C Ag1_2 1_555 1_555
N3C C2C 1_555 1_555
Ag1_2 Br1_2 1_555 1_555
Ag1A_2 Br1_3 1_555 1_555
Ag1B_2 Br1_2 1_555 1_555
Ag1C_2 Br1_3 1_555 1_555

#END
