
#######################################################################
#
#                 Cambridge Crystallographic Data Centre
#                                CCDC 
#
#######################################################################
#
# If this CIF has been generated from an entry in the Cambridge 
# Structural Database, then it will include bibliographic, chemical, 
# crystal, experimental, refinement or atomic coordinate data resulting 
# from the CCDC's data processing and validation procedures.
#
#######################################################################

data_CUGYUA
_chemical_formula_moiety         '(C8 H14 Ag6 Br1 N16 O2 1-)n'
_symmetry_cell_setting           tetragonal
_symmetry_space_group_name_H-M   'P -4 n 2'
_symmetry_Int_Tables_number      118
_space_group_name_Hall           'P -4 -2n'
loop_
_symmetry_equiv_pos_site_id
_symmetry_equiv_pos_as_xyz
1 x,y,z
2 -x,-y,z
3 y,-x,-z
4 -y,x,-z
5 1/2+x,1/2-y,1/2+z
6 1/2-x,1/2+y,1/2+z
7 1/2+y,1/2+x,1/2-z
8 1/2-y,1/2-x,1/2-z
_cell_length_a                   19.455(2)
_cell_length_b                   19.455(2)
_cell_length_c                   3.5339(4)
_cell_angle_alpha                90
_cell_angle_beta                 90
_cell_angle_gamma                90
_cell_volume                     1337.57
loop_
_atom_site_label
_atom_site_type_symbol
_atom_site_fract_x
_atom_site_fract_y
_atom_site_fract_z
Ag1 Ag 0.37507(14) 0.45533(13) -0.0024(10)
Ag2 Ag 0.1661(2) 0.6661(2) 0.7500
Br1 Br 0.5000 0.5000 0.5000
N1 N 0.3246(11) 0.5411(10) 0.212(7)
N2 N 0.3541(11) 0.6058(13) 0.193(8)
N3 N 0.2498(13) 0.6197(16) 0.458(8)
N4 N 0.212(4) 0.501(3) 0.40(2)
H1 H 0.1731 0.5096 0.5092
H2 H 0.2215 0.4604 0.3268
C1 C 0.2604(14) 0.5552(16) 0.350(8)
C2 C 0.3055(17) 0.6501(18) 0.370(8)
Ag1A Ag 0.62493(14) 0.54467(13) -0.0024(10)
Ag2A Ag 0.8339(2) 0.3339(2) 0.7500
N1A N 0.6754(11) 0.4589(10) 0.212(7)
N2A N 0.6459(11) 0.3942(13) 0.193(8)
N3A N 0.7502(13) 0.3803(16) 0.458(8)
N4A N 0.788(4) 0.499(3) 0.40(2)
H1A H 0.8269 0.4904 0.5092
H2A H 0.7785 0.5396 0.3268
C1A C 0.7396(14) 0.4448(16) 0.350(8)
C2A C 0.6945(17) 0.3499(18) 0.370(8)
Ag1B Ag 0.45533(13) 0.62493(14) 0.0024(10)
N1B N 0.5411(10) 0.6754(11) -0.212(7)
N2B N 0.6058(13) 0.6459(11) -0.193(8)
N3B N 0.6197(16) 0.7502(13) -0.458(8)
N4B N 0.501(3) 0.788(4) -0.40(2)
H1B H 0.5096 0.8269 -0.5092
H2B H 0.4604 0.7785 -0.3268
C1B C 0.5552(16) 0.7396(14) -0.350(8)
C2B C 0.6501(18) 0.6945(17) -0.370(8)
Ag1C Ag 0.54467(13) 0.37507(14) 0.0024(10)
N1C N 0.4589(10) 0.3246(11) -0.212(7)
N2C N 0.3942(13) 0.3541(11) -0.193(8)
N3C N 0.3803(16) 0.2498(13) -0.458(8)
N4C N 0.499(3) 0.212(4) -0.40(2)
H1C H 0.4904 0.1731 -0.5092
H2C H 0.5396 0.2215 -0.3268
C1C C 0.4448(16) 0.2604(14) -0.350(8)
C2C C 0.3499(18) 0.3055(17) -0.370(8)
Ag1_2 Ag 0.37507(14) 0.45533(13) 0.9976(10)
Ag1A_2 Ag 0.62493(14) 0.54467(13) 0.9976(10)
Ag1B_2 Ag 0.45533(13) 0.62493(14) 1.0024(10)
Ag1C_2 Ag 0.54467(13) 0.37507(14) 1.0024(10)
Ag2B Ag 0.6661(2) 0.8339(2) -0.7500
Ag2C Ag 0.3339(2) 0.1661(2) -0.7500
Br1_2 Br 0.5000 0.5000 -0.5000
N3F N 0.1197(16) 0.7498(13) 1.042(8)
N3G N 0.8803(16) 0.2502(13) 1.042(8)
O1 O 0.071(4) 0.571(4) 0.7500
O1A O 0.929(4) 0.429(4) 0.7500
loop_
_geom_bond_atom_site_label_1
_geom_bond_atom_site_label_2
_geom_bond_site_symmetry_1
_geom_bond_site_symmetry_2
Ag1 Br1 1_555 1_555
Ag2 N3 1_555 1_555
Br1 Ag1A 1_555 1_555
N1 Ag1 1_555 1_555
N2 N1 1_555 1_555
N3 C1 1_555 1_555
N4 H1 1_555 1_555
H2 N4 1_555 1_555
C1 N1 1_555 1_555
C2 N2 1_555 1_555
Ag1A N1A 1_555 1_555
Ag2A N3A 1_555 1_555
N1A N2A 1_555 1_555
N2A C2A 1_555 1_555
N3A C1A 1_555 1_555
N4A H1A 1_555 1_555
H2A N4A 1_555 1_555
C1A N1A 1_555 1_555
C2A N3A 1_555 1_555
Ag1B Br1 1_555 1_555
N1B Ag1B 1_555 1_555
N2B Ag1A 1_555 1_555
N3B C1B 1_555 1_555
N4B H1B 1_555 1_555
H2B N4B 1_555 1_555
C1B N1B 1_555 1_555
C2B N2B 1_555 1_555
Ag1C Br1 1_555 1_555
N1C Ag1C 1_555 1_555
N2C Ag1 1_555 1_555
N3C C1C 1_555 1_555
N4C H1C 1_555 1_555
H2C N4C 1_555 1_555
C1C N1C 1_555 1_555
C2C N2C 1_555 1_555
Ag1_2 Br1 1_555 1_555
Ag1A_2 Br1 1_555 1_555
Ag1B_2 Br1 1_555 1_555
Ag1C_2 Br1 1_555 1_555
Ag2B N3B 1_555 1_555
Ag2C N3C 1_555 1_555
Br1_2 Ag1 1_555 1_555
N3F Ag2 1_555 1_555
N3G Ag2A 1_555 1_555
N2 Ag1B 1_555 1_555
N3 C2 1_555 1_555
N4 C1 1_555 1_555
Ag1A Br1_2 1_555 1_555
N2A Ag1C 1_555 1_555
N4A C1A 1_555 1_555
Ag1B Br1_2 1_555 1_555
N1B N2B 1_555 1_555
N3B C2B 1_555 1_555
N4B C1B 1_555 1_555
Ag1C Br1_2 1_555 1_555
N1C N2C 1_555 1_555
N3C C2C 1_555 1_555
N4C C1C 1_555 1_555

#END
