
#######################################################################
#
#                 Cambridge Crystallographic Data Centre
#                                CCDC 
#
#######################################################################
#
# If this CIF has been generated from an entry in the Cambridge 
# Structural Database, then it will include bibliographic, chemical, 
# crystal, experimental, refinement or atomic coordinate data resulting 
# from the CCDC's data processing and validation procedures.
#
#######################################################################

data_CUGZAH
_chemical_formula_moiety         'C16 H30 Ag13 Br2 N15 O3'
_symmetry_cell_setting           tetragonal
_symmetry_space_group_name_H-M   'I 41/a m d'
_symmetry_Int_Tables_number      141
_space_group_name_Hall           '-I 4bd 2'
loop_
_symmetry_equiv_pos_site_id
_symmetry_equiv_pos_as_xyz
1 x,y,z
2 1/2-x,-y,1/2+z
3 1/4-y,3/4+x,1/4+z
4 1/4+y,1/4-x,3/4+z
5 1/2-x,y,1/2-z
6 x,-y,-z
7 1/4+y,3/4+x,1/4-z
8 1/4-y,1/4-x,3/4-z
9 1/2+x,1/2+y,1/2+z
10 -x,1/2-y,z
11 3/4-y,1/4+x,3/4+z
12 3/4+y,3/4-x,1/4+z
13 -x,1/2+y,-z
14 1/2+x,1/2-y,1/2-z
15 3/4+y,1/4+x,3/4-z
16 3/4-y,3/4-x,1/4-z
17 -x,-y,-z
18 1/2+x,y,1/2-z
19 3/4+y,1/4-x,3/4-z
20 3/4-y,3/4+x,1/4-z
21 1/2+x,-y,1/2+z
22 -x,y,z
23 3/4-y,1/4-x,3/4+z
24 3/4+y,3/4+x,1/4+z
25 1/2-x,1/2-y,1/2-z
26 x,1/2+y,-z
27 1/4+y,3/4-x,1/4-z
28 1/4-y,1/4+x,3/4-z
29 x,1/2-y,z
30 1/2-x,1/2+y,1/2+z
31 1/4-y,3/4-x,1/4+z
32 1/4+y,1/4+x,3/4+z
_cell_length_a                   29.419(2)
_cell_length_b                   29.419(2)
_cell_length_c                   3.5564(4)
_cell_angle_alpha                90
_cell_angle_beta                 90
_cell_angle_gamma                90
_cell_volume                     3077.98
loop_
_atom_site_label
_atom_site_type_symbol
_atom_site_fract_x
_atom_site_fract_y
_atom_site_fract_z
O1 O 0.2500 0.363(7) 0.2500
H4 H 0.2500 0.3919 0.2500
O2 O 0.314(3) 0.483(5) 0.44(6)
O2E O 0.314(3) 0.517(5) 0.56(6)
Ag1 Ag 0.44027(6) 0.30973(6) 0.1250
Ag2 Ag 0.2500 0.2500 0.7500
Br1 Br 0.5000 0.2500 0.6250
N1 N 0.3807(5) 0.2736(5) 0.313(4)
N2 N 0.3151(7) 0.2500 0.515(5)
C1 C 0.3410(6) 0.2861(7) 0.440(5)
C2 C 0.3259(14) 0.3334(15) 0.456(14)
H1 H 0.2955 0.3347 0.5523
H2 H 0.3266 0.3462 0.2079
H3 H 0.3458 0.3504 0.6178
N1BA N 0.3807(5) 0.2264(5) 0.313(4)
C1BA C 0.3410(6) 0.2139(7) 0.440(5)
C2BA C 0.3259(14) 0.1666(15) 0.456(14)
H1BA H 0.2955 0.1653 0.5523
H2BA H 0.3266 0.1538 0.2079
H3BA H 0.3458 0.1496 0.6178
N1D N 0.1193(5) 0.2736(5) 1.187(4)
N2D N 0.1849(7) 0.2500 0.985(5)
C1D C 0.1590(6) 0.2861(7) 1.060(5)
C2D C 0.1741(14) 0.3334(15) 1.044(14)
H1D H 0.2045 0.3347 0.9477
H2D H 0.1734 0.3462 1.2921
H3D H 0.1542 0.3504 0.8822
N1X N 0.1193(5) 0.2264(5) 1.187(4)
C1X C 0.1590(6) 0.2139(7) 1.060(5)
C2X C 0.1741(14) 0.1666(15) 1.044(14)
H1X H 0.2045 0.1653 0.9477
H2X H 0.1734 0.1538 1.2921
H3X H 0.1542 0.1496 0.8822
Ag1F Ag 0.55973(6) 0.19027(6) 0.1250
Ag2C Ag 0.5000 0.0000 -0.5000
N1F N 0.5236(5) 0.1307(5) -0.063(4)
N2F N 0.5000 0.0651(7) -0.265(5)
C1F C 0.5361(7) 0.0910(6) -0.190(5)
C2F C 0.5834(15) 0.0759(14) -0.206(14)
H1F H 0.5847 0.0455 -0.3023
H2F H 0.5962 0.0766 0.0421
H3F H 0.6004 0.0958 -0.3678
N1S N 0.4764(5) 0.1307(5) -0.063(4)
C1S C 0.4639(7) 0.0910(6) -0.190(5)
C2S C 0.4166(15) 0.0759(14) -0.206(14)
H1S H 0.4153 0.0455 -0.3023
H2S H 0.4038 0.0766 0.0421
H3S H 0.3996 0.0958 -0.3678
Ag1S Ag 0.44027(6) 0.19027(6) 0.1250
Ag1U Ag 0.55973(6) 0.30973(6) 0.1250
N1O N 0.4764(5) 0.3693(5) -0.063(4)
N2O N 0.5000 0.4349(7) -0.265(5)
C1O C 0.4639(7) 0.4090(6) -0.190(5)
C2O C 0.4166(15) 0.4241(14) -0.206(14)
H1O H 0.4153 0.4545 -0.3023
H2O H 0.4038 0.4234 0.0421
H3O H 0.3996 0.4042 -0.3678
N1Z N 0.5236(5) 0.3693(5) -0.063(4)
C1Z C 0.5361(7) 0.4090(6) -0.190(5)
C2Z C 0.5834(15) 0.4241(14) -0.206(14)
H1Z H 0.5847 0.4545 -0.3023
H2Z H 0.5962 0.4234 0.0421
H3Z H 0.6004 0.4042 -0.3678
Ag1_2 Ag 0.44027(6) 0.30973(6) 1.1250
Ag1D Ag 0.05973(6) 0.30973(6) 1.3750
Ag1F_2 Ag 0.55973(6) 0.19027(6) 1.1250
Ag1S_2 Ag 0.44027(6) 0.19027(6) 1.1250
Ag1U_2 Ag 0.55973(6) 0.30973(6) 1.1250
Ag1W Ag 0.05973(6) 0.19027(6) 1.3750
Ag2J Ag 0.5000 0.5000 -0.5000
Br1_2 Br 0.5000 0.2500 -0.3750
N1I N 0.6193(5) 0.2264(5) 0.313(4)
N1U N 0.6193(5) 0.2736(5) 0.313(4)
N2C N 0.5000 -0.0651(7) -0.735(5)
loop_
_geom_bond_atom_site_label_1
_geom_bond_atom_site_label_2
_geom_bond_site_symmetry_1
_geom_bond_site_symmetry_2
Ag1 Br1 1_555 1_555
Ag2 N2 1_555 1_555
Br1 Ag1F 1_555 1_555
N1 Ag1 1_555 1_555
N2 C1 1_555 1_555
C1 N1 1_555 1_555
C2 C1 1_555 1_555
H1 C2 1_555 1_555
H2 C2 1_555 1_555
H3 C2 1_555 1_555
O1 H4 1_555 1_555
N1BA N1 1_555 1_555
C1BA N2 1_555 1_555
C2BA C1BA 1_555 1_555
H1BA C2BA 1_555 1_555
H2BA C2BA 1_555 1_555
H3BA C2BA 1_555 1_555
N1D C1D 1_555 1_555
N2D Ag2 1_555 1_555
C1D N2D 1_555 1_555
C2D C1D 1_555 1_555
H1D C2D 1_555 1_555
H2D C2D 1_555 1_555
H3D C2D 1_555 1_555
N1X N1D 1_555 1_555
C1X N2D 1_555 1_555
C2X C1X 1_555 1_555
H1X C2X 1_555 1_555
H2X C2X 1_555 1_555
H3X C2X 1_555 1_555
Ag1F N1F 1_555 1_555
Ag2C N2F 1_555 1_555
N1F C1F 1_555 1_555
N2F C1F 1_555 1_555
C1F C2F 1_555 1_555
C2F H1F 1_555 1_555
H2F C2F 1_555 1_555
H3F C2F 1_555 1_555
N1S N1F 1_555 1_555
C1S N2F 1_555 1_555
C2S C1S 1_555 1_555
H1S C2S 1_555 1_555
H2S C2S 1_555 1_555
H3S C2S 1_555 1_555
Ag1S Br1 1_555 1_555
Ag1U Br1 1_555 1_555
N1O Ag1 1_555 1_555
N2O C1O 1_555 1_555
C1O N1O 1_555 1_555
C2O C1O 1_555 1_555
H1O C2O 1_555 1_555
H2O C2O 1_555 1_555
H3O C2O 1_555 1_555
N1Z Ag1U 1_555 1_555
C1Z N2O 1_555 1_555
C2Z C1Z 1_555 1_555
H1Z C2Z 1_555 1_555
H2Z C2Z 1_555 1_555
H3Z C2Z 1_555 1_555
Ag1_2 Br1 1_555 1_555
Ag1D N1D 1_555 1_555
Ag1F_2 Br1 1_555 1_555
Ag1S_2 Br1 1_555 1_555
Ag1U_2 Br1 1_555 1_555
Ag1W N1X 1_555 1_555
Ag2J N2O 1_555 1_555
Br1_2 Ag1 1_555 1_555
N1I Ag1F 1_555 1_555
N1U Ag1U 1_555 1_555
N2C Ag2C 1_555 1_555
N1BA C1BA 1_555 1_555
N1BA Ag1S 1_555 1_555
N1X C1X 1_555 1_555
Ag1F Br1_2 1_555 1_555
N1S C1S 1_555 1_555
N1S Ag1S 1_555 1_555
Ag1S Br1_2 1_555 1_555
Ag1U Br1_2 1_555 1_555
N1O N1Z 1_555 1_555
N1Z C1Z 1_555 1_555
N1I N1U 1_555 1_555

#END
