
#######################################################################
#
#                 Cambridge Crystallographic Data Centre
#                                CCDC 
#
#######################################################################
#
# If this CIF has been generated from an entry in the Cambridge 
# Structural Database, then it will include bibliographic, chemical, 
# crystal, experimental, refinement or atomic coordinate data resulting 
# from the CCDC's data processing and validation procedures.
#
#######################################################################

data_MAXHOJ02
_chemical_formula_moiety         'C8 H20 Ag13 Cl2 N23 O2'
_symmetry_cell_setting           tetragonal
_symmetry_space_group_name_H-M   'I 41/a m d'
_symmetry_Int_Tables_number      141
_space_group_name_Hall           '-I 4bd 2'
loop_
_symmetry_equiv_pos_site_id
_symmetry_equiv_pos_as_xyz
1 x,y,z
2 1/2-x,-y,1/2+z
3 1/4-y,3/4+x,1/4+z
4 1/4+y,1/4-x,3/4+z
5 1/2-x,y,1/2-z
6 x,-y,-z
7 1/4+y,3/4+x,1/4-z
8 1/4-y,1/4-x,3/4-z
9 1/2+x,1/2+y,1/2+z
10 -x,1/2-y,z
11 3/4-y,1/4+x,3/4+z
12 3/4+y,3/4-x,1/4+z
13 -x,1/2+y,-z
14 1/2+x,1/2-y,1/2-z
15 3/4+y,1/4+x,3/4-z
16 3/4-y,3/4-x,1/4-z
17 -x,-y,-z
18 1/2+x,y,1/2-z
19 3/4+y,1/4-x,3/4-z
20 3/4-y,3/4+x,1/4-z
21 1/2+x,-y,1/2+z
22 -x,y,z
23 3/4-y,1/4-x,3/4+z
24 3/4+y,3/4+x,1/4+z
25 1/2-x,1/2-y,1/2-z
26 x,1/2+y,-z
27 1/4+y,3/4-x,1/4-z
28 1/4-y,1/4+x,3/4-z
29 x,1/2-y,z
30 1/2-x,1/2+y,1/2+z
31 1/4-y,3/4-x,1/4+z
32 1/4+y,1/4+x,3/4+z
_cell_length_a                   29.5862(10)
_cell_length_b                   29.5862(10)
_cell_length_c                   3.4563(2)
_cell_angle_alpha                90
_cell_angle_beta                 90
_cell_angle_gamma                90
_cell_volume                     3025.45
loop_
_atom_site_label
_atom_site_type_symbol
_atom_site_fract_x
_atom_site_fract_y
_atom_site_fract_z
O1 O 0.2574(14) 0.6422(11) 0.594(10)
H3 H 0.2744 0.6364 0.4019
O1D O 0.2426(14) 0.6422(11) 0.906(10)
H3D H 0.2256 0.6364 1.0981
Ag1 Ag 0.06044(2) 0.68956(2) 0.1250
Ag2 Ag 0.2500 0.7500 0.7500
N1 N 0.1836(3) 0.7500 0.537(3)
N2 N 0.11699(18) 0.72652(19) 0.3262(17)
C1 C 0.1571(2) 0.7149(3) 0.453(2)
N3 N 0.1692(5) 0.6692(5) 0.485(6)
H1 H 0.1503 0.6485 0.4203
H2 H 0.1956 0.6619 0.5682
Cl1 Cl 0.0000 0.7500 0.6250
N2BA N 0.11699(18) 0.77348(19) 0.3262(17)
C1BA C 0.1571(2) 0.7851(3) 0.453(2)
N3BA N 0.1692(5) 0.8308(5) 0.485(6)
H1BA H 0.1503 0.8515 0.4203
H2BA H 0.1956 0.8381 0.5682
N1D N 0.3164(3) 0.7500 0.963(3)
N2D N 0.38301(18) 0.72652(19) 1.1738(17)
C1D C 0.3429(2) 0.7149(3) 1.047(2)
N3D N 0.3308(5) 0.6692(5) 1.015(6)
H1D H 0.3497 0.6485 1.0797
H2D H 0.3044 0.6619 0.9318
N2X N 0.38301(18) 0.77348(19) 1.1738(17)
C1X C 0.3429(2) 0.7851(3) 1.047(2)
N3X N 0.3308(5) 0.8308(5) 1.015(6)
H1X H 0.3497 0.8515 1.0797
H2X H 0.3044 0.8381 0.9318
Ag1F Ag -0.06044(2) 0.81044(2) 0.1250
Ag2C Ag 0.0000 1.0000 -0.5000
N1F N 0.0000 0.9336(3) -0.287(3)
N2F N -0.02348(19) 0.86699(18) -0.0762(17)
C1F C -0.0351(3) 0.9071(2) -0.203(2)
N3F N -0.0808(5) 0.9192(5) -0.235(6)
H1F H -0.1015 0.9003 -0.1703
H2F H -0.0881 0.9456 -0.3182
N2S N 0.02348(19) 0.86699(18) -0.0762(17)
C1S C 0.0351(3) 0.9071(2) -0.203(2)
N3S N 0.0808(5) 0.9192(5) -0.235(6)
H1S H 0.1015 0.9003 -0.1703
H2S H 0.0881 0.9456 -0.3182
Ag1S Ag 0.06044(2) 0.81044(2) 0.1250
Ag1U Ag -0.06044(2) 0.68956(2) 0.1250
N1O N -0.0000 0.5664(3) -0.287(3)
N2O N 0.02348(19) 0.63301(18) -0.0762(17)
C1O C 0.0351(3) 0.5929(2) -0.203(2)
N3O N 0.0808(5) 0.5808(5) -0.235(6)
H1O H 0.1015 0.5997 -0.1703
H2O H 0.0881 0.5544 -0.3182
N2Z N -0.02348(19) 0.63301(18) -0.0762(17)
C1Z C -0.0351(3) 0.5929(2) -0.203(2)
N3Z N -0.0808(5) 0.5808(5) -0.235(6)
H1Z H -0.1015 0.5997 -0.1703
H2Z H -0.0881 0.5544 -0.3182
Ag1_2 Ag 0.06044(2) 0.68956(2) 1.1250
Ag1D Ag 0.43956(2) 0.68956(2) 1.3750
Ag1F_2 Ag -0.06044(2) 0.81044(2) 1.1250
Ag1S_2 Ag 0.06044(2) 0.81044(2) 1.1250
Ag1U_2 Ag -0.06044(2) 0.68956(2) 1.1250
Ag1W Ag 0.43956(2) 0.81044(2) 1.3750
Ag2J Ag 0.0000 0.5000 -0.5000
N1C N 0.0000 1.0664(3) -0.713(3)
N2I N -0.11699(18) 0.77348(19) 0.3262(17)
N2U N -0.11699(18) 0.72652(19) 0.3262(17)
Cl1_2 Cl 0.0000 0.7500 -0.3750
loop_
_geom_bond_atom_site_label_1
_geom_bond_atom_site_label_2
_geom_bond_site_symmetry_1
_geom_bond_site_symmetry_2
Ag1 N2 1_555 1_555
Ag2 N1 1_555 1_555
N1 C1 1_555 1_555
N2 C1 1_555 1_555
C1 N3 1_555 1_555
N3 H1 1_555 1_555
H2 N3 1_555 1_555
Cl1 Ag1 1_555 1_555
O1 H3 1_555 1_555
N2BA N2 1_555 1_555
C1BA N1 1_555 1_555
N3BA C1BA 1_555 1_555
H1BA N3BA 1_555 1_555
H2BA N3BA 1_555 1_555
N1D Ag2 1_555 1_555
N2D C1D 1_555 1_555
C1D N1D 1_555 1_555
N3D C1D 1_555 1_555
H1D N3D 1_555 1_555
H2D N3D 1_555 1_555
N2X N2D 1_555 1_555
C1X N1D 1_555 1_555
N3X C1X 1_555 1_555
H1X N3X 1_555 1_555
H2X N3X 1_555 1_555
Ag1F Cl1 1_555 1_555
Ag2C N1F 1_555 1_555
N1F C1F 1_555 1_555
N2F Ag1F 1_555 1_555
C1F N2F 1_555 1_555
N3F C1F 1_555 1_555
H1F N3F 1_555 1_555
H2F N3F 1_555 1_555
N2S N2F 1_555 1_555
C1S N1F 1_555 1_555
N3S C1S 1_555 1_555
H1S N3S 1_555 1_555
H2S N3S 1_555 1_555
Ag1S Cl1 1_555 1_555
Ag1U Cl1 1_555 1_555
N1O C1O 1_555 1_555
N2O Ag1 1_555 1_555
C1O N2O 1_555 1_555
N3O C1O 1_555 1_555
H1O N3O 1_555 1_555
H2O N3O 1_555 1_555
N2Z Ag1U 1_555 1_555
C1Z N1O 1_555 1_555
N3Z C1Z 1_555 1_555
H1Z N3Z 1_555 1_555
H2Z N3Z 1_555 1_555
Ag1_2 Cl1 1_555 1_555
Ag1D N2D 1_555 1_555
Ag1F_2 Cl1 1_555 1_555
Ag1S_2 Cl1 1_555 1_555
Ag1U_2 Cl1 1_555 1_555
Ag1W N2X 1_555 1_555
Ag2J N1O 1_555 1_555
N1C Ag2C 1_555 1_555
N2I Ag1F 1_555 1_555
N2U Ag1U 1_555 1_555
Cl1_2 Ag1 1_555 1_555
O1D H3D 1_555 1_555
N2BA C1BA 1_555 1_555
N2BA Ag1S 1_555 1_555
N2X C1X 1_555 1_555
Ag1F Cl1_2 1_555 1_555
N2S C1S 1_555 1_555
N2S Ag1S 1_555 1_555
Ag1S Cl1_2 1_555 1_555
Ag1U Cl1_2 1_555 1_555
N2O N2Z 1_555 1_555
N2Z C1Z 1_555 1_555
N2I N2U 1_555 1_555

#END
