
#######################################################################
#
#                 Cambridge Crystallographic Data Centre
#                                CCDC 
#
#######################################################################
#
# If this CIF has been generated from an entry in the Cambridge 
# Structural Database, then it will include bibliographic, chemical, 
# crystal, experimental, refinement or atomic coordinate data resulting 
# from the CCDC's data processing and validation procedures.
#
#######################################################################

data_MEMGAN
_chemical_formula_moiety         '(C13 H16 Cu1 N2 O9)n'
_symmetry_cell_setting           orthorhombic
_symmetry_space_group_name_H-M   'C c 2 m'
_symmetry_Int_Tables_number      40
_space_group_name_Hall           'C -2c -2c'
loop_
_symmetry_equiv_pos_site_id
_symmetry_equiv_pos_as_xyz
1 x,y,z
2 x,y,1/2-z
3 -x,y,1/2+z
4 -x,y,-z
5 1/2+x,1/2+y,z
6 1/2+x,1/2+y,1/2-z
7 1/2-x,1/2+y,1/2+z
8 1/2-x,1/2+y,-z
_cell_length_a                   8.8871(14)
_cell_length_b                   11.4931(19)
_cell_length_c                   16.457(3)
_cell_angle_alpha                90
_cell_angle_beta                 90
_cell_angle_gamma                90
_cell_volume                     1680.92
loop_
_atom_site_label
_atom_site_type_symbol
_atom_site_fract_x
_atom_site_fract_y
_atom_site_fract_z
_atom_site_U_iso_or_equiv
_atom_site_thermal_displace_type
Cu1 Cu -0.0000 0.00191(17) 0.0000 0.0181 Uani
O1 O 0.0156(4) -0.1149(5) 0.0892(3) 0.0260 Uani
O2 O 0.2541(4) -0.1165(4) 0.0492(3) 0.0370 Uani
O3 O 0.4711(5) -0.3845(5) 0.0865(3) 0.0280 Uani
O4 O 0.2306(4) -0.3842(4) 0.0507(3) 0.0343 Uani
C1 C 0.1482(5) -0.1543(5) 0.25000(19) 0.0217 Uani
H1 H 0.0856 -0.0894 0.2500 0.0260 Uiso
C2 C 0.1959(6) -0.2038(6) 0.1749(4) 0.0213 Uani
C3 C 0.2947(6) -0.2987(6) 0.1777(4) 0.0180 Uani
C4 C 0.3407(7) -0.3410(7) 0.2500 0.0187 Uani
H2 H 0.4081 -0.4029 0.2500 0.0220 Uiso
C5 C 0.1545(7) -0.1430(6) 0.0985(4) 0.0213 Uani
C6 C 0.3342(7) -0.3598(6) 0.0976(4) 0.0210 Uani
Cu1D Cu 0.5000 -0.49809(17) 0.0000 0.0181 Uani
Cu1E Cu 0.5000 -0.49809(17) 0.5000 0.0181 Uani
Cu1A Cu -0.0000 0.00191(17) 0.5000 0.0181 Uani
O1A O 0.0156(4) -0.1149(5) 0.4108(3) 0.0260 Uani
O1C O -0.0156(4) -0.1149(5) -0.0892(3) 0.0260 Uani
O2A O 0.2541(4) -0.1165(4) 0.4508(3) 0.0370 Uani
O3A O 0.4711(5) -0.3845(5) 0.4135(3) 0.0280 Uani
O3D O -0.0289(5) 0.1155(5) 0.0865(3) 0.0280 Uani
O3G O 0.0289(5) 0.1155(5) -0.0865(3) 0.0280 Uani
O4A O 0.2306(4) -0.3842(4) 0.4493(3) 0.0343 Uani
C2A C 0.1959(6) -0.2038(6) 0.3251(4) 0.0213 Uani
C3A C 0.2947(6) -0.2987(6) 0.3223(4) 0.0180 Uani
C5A C 0.1545(7) -0.1430(6) 0.4015(4) 0.0213 Uani
C6A C 0.3342(7) -0.3598(6) 0.4024(4) 0.0210 Uani
O5 O 0.5513(3) 0.9154(4) 0.3903(2) 0.0567 Uani
H3 H 0.4577 0.9052 0.3777 0.0850 Uiso
H4 H 0.5615 0.9720 0.4182 0.0850 Uiso
N1 N -0.2694(5) 0.2359(5) -0.10014(19) 0.0355 Uani
H5 H -0.2601 0.1904 -0.0567 0.0530 Uiso
H6 H -0.3505 0.2806 -0.0947 0.0530 Uiso
H7 H -0.1881 0.2806 -0.1048 0.0530 Uiso
C7 C -0.2652(10) 0.2303(9) -0.2500 0.0227 Uani
H8 H -0.3367 0.2941 -0.2500 0.0280 Uiso
H9 H -0.1649 0.2636 -0.2500 0.0280 Uiso
C8 C -0.2855(5) 0.1618(5) -0.1748(3) 0.0373 Uani
H10 H -0.2113 0.0999 -0.1733 0.0450 Uiso
H11 H -0.3845 0.1263 -0.1752 0.0450 Uiso
N1A N -0.2694(5) 0.2359(5) -0.39986(19) 0.0355 Uani
H5A H -0.2601 0.1904 -0.4433 0.0530 Uiso
H6A H -0.3505 0.2806 -0.4053 0.0530 Uiso
H7A H -0.1881 0.2806 -0.3952 0.0530 Uiso
C8A C -0.2855(5) 0.1618(5) -0.3252(3) 0.0373 Uani
H10A H -0.2113 0.0999 -0.3267 0.0450 Uiso
H11A H -0.3845 0.1263 -0.3248 0.0450 Uiso
loop_
_atom_site_aniso_label
_atom_site_aniso_U_11
_atom_site_aniso_U_22
_atom_site_aniso_U_33
_atom_site_aniso_U_23
_atom_site_aniso_U_13
_atom_site_aniso_U_12
Cu1 0.0214(3) 0.0208(4) 0.0122(3) 0.000 -0.0001(6) 0.000
O1 0.026(2) 0.029(4) 0.023(3) 0.015(3) -0.0030(18) -0.001(2)
O2 0.030(2) 0.064(5) 0.017(3) 0.018(3) 0.0038(19) 0.000(2)
O3 0.035 0.029 0.02 0.004 0.0054 0.01
O4 0.044 0.034 0.025 -0.006 -0.003 -0.008
C1 0.018(4) 0.028(8) 0.019(5) 0.000 0.000 0.008(4)
C2 0.025(3) 0.031(6) 0.008(3) -0.004(3) -0.001(3) 0.004(3)
C3 0.024 0.009 0.021 -0.008 0.004 -0.004
C4 0.029 0.008 0.019 0 0 0.002
C5 0.028(3) 0.016(6) 0.020(4) 0.000(4) -0.006(3) -0.002(3)
C6 0.037 0.012 0.014 0.006 0.002 0.001
Cu1D 0.0214 0.0208 0.0122 0 -0.0001 0
Cu1E 0.0214 0.0208 0.0122 0 0.0001 0
Cu1A 0.0214 0.0208 0.0122 0 0.0001 0
O1A 0.026 0.029 0.023 -0.015 0.003 -0.001
O1C 0.026 0.029 0.023 -0.015 -0.003 0.001
O2A 0.03 0.064 0.017 -0.018 -0.0038 0
O3A 0.035 0.029 0.02 -0.004 -0.0054 0.01
O3D 0.035 0.029 0.02 0.004 0.0054 0.01
O3G 0.035 0.029 0.02 -0.004 0.0054 -0.01
O4A 0.044 0.034 0.025 0.006 0.003 -0.008
C2A 0.025 0.031 0.008 0.004 0.001 0.004
C3A 0.024 0.009 0.021 0.008 -0.004 -0.004
C5A 0.028 0.016 0.02 0 0.006 -0.002
C6A 0.037 0.012 0.014 -0.006 -0.002 0.001
O5 0.0411(17) 0.066(3) 0.063(3) -0.014(3) -0.0045(17) -0.0128(19)
N1 0.030(2) 0.057(3) 0.0194(17) -0.002(3) 0.000(2) 0.013(2)
C7 0.031(4) 0.019(7) 0.018(3) 0.000 0.000 0.002(4)
C8 0.045(3) 0.044(4) 0.023(3) -0.001(3) -0.002(2) 0.004(3)
N1A 0.03 0.057 0.0194 0.002 0 0.013
C8A 0.045 0.044 0.023 0.001 0.002 0.004
loop_
_geom_bond_atom_site_label_1
_geom_bond_atom_site_label_2
_geom_bond_site_symmetry_1
_geom_bond_site_symmetry_2
Cu1 O1 1_555 1_555
O1 C5 1_555 1_555
O2 C5 1_555 1_555
O3 C6 1_555 1_555
O4 C6 1_555 1_555
C1 H1 1_555 1_555
C2 C1 1_555 1_555
C3 C2 1_555 1_555
C4 C3 1_555 1_555
H2 C4 1_555 1_555
C5 C2 1_555 1_555
C6 C3 1_555 1_555
O5 H3 1_555 1_555
H4 O5 1_555 1_555
N1 H5 1_555 1_555
H6 N1 1_555 1_555
H7 N1 1_555 1_555
C7 H8 1_555 1_555
H9 C7 1_555 1_555
C8 N1 1_555 1_555
H10 C8 1_555 1_555
H11 C8 1_555 1_555
Cu1D O3 1_555 1_555
Cu1E O3A 1_555 1_555
Cu1A O1A 1_555 1_555
O1A C5A 1_555 1_555
O1C Cu1 1_555 1_555
O2A C5A 1_555 1_555
O3A C6A 1_555 1_555
O3D Cu1 1_555 1_555
O3G Cu1 1_555 1_555
O4A C6A 1_555 1_555
C2A C1 1_555 1_555
C3A C4 1_555 1_555
C5A C2A 1_555 1_555
C6A C3A 1_555 1_555
N1A H5A 1_555 1_555
H6A N1A 1_555 1_555
H7A N1A 1_555 1_555
C8A C7 1_555 1_555
H10A C8A 1_555 1_555
H11A C8A 1_555 1_555
C7 C8 1_555 1_555
C2A C3A 1_555 1_555
N1A C8A 1_555 1_555

#END
