
#######################################################################
#
#                 Cambridge Crystallographic Data Centre
#                                CCDC 
#
#######################################################################
#
# If this CIF has been generated from an entry in the Cambridge 
# Structural Database, then it will include bibliographic, chemical, 
# crystal, experimental, refinement or atomic coordinate data resulting 
# from the CCDC's data processing and validation procedures.
#
#######################################################################

data_JAKBOP
_chemical_formula_moiety         '(C14 H20 Mn1 N9 O1 P1)n'
_symmetry_cell_setting           orthorhombic
_symmetry_space_group_name_H-M   'P 21 21 21'
_symmetry_Int_Tables_number      19
_space_group_name_Hall           'P 2ac 2ab'
loop_
_symmetry_equiv_pos_site_id
_symmetry_equiv_pos_as_xyz
1 x,y,z
2 1/2-x,-y,1/2+z
3 -x,1/2+y,1/2-z
4 1/2+x,1/2-y,-z
_cell_length_a                   10.694(2)
_cell_length_b                   12.092(2)
_cell_length_c                   16.108(3)
_cell_angle_alpha                90
_cell_angle_beta                 90
_cell_angle_gamma                90
_cell_volume                     2082.96
loop_
_atom_site_label
_atom_site_type_symbol
_atom_site_fract_x
_atom_site_fract_y
_atom_site_fract_z
C1 C 0.5287(10) 0.5149(8) 0.9347(7)
H1 H 0.5233 0.4768 0.8819
H2 H 0.4798 0.4735 0.9748
C2 C 0.8215(11) 0.5891(13) 1.1042(8)
H3 H 0.8485 0.5168 1.1209
H4 H 0.8200 0.6372 1.1516
H5 H 0.8782 0.6181 1.0634
C3 C 0.6952(10) 0.5820(8) 1.0683(6)
H6 H 0.6609 0.6559 1.0638
H7 H 0.6422 0.5403 1.1059
C4 C 0.7843(9) 0.5942(7) 0.8949(6)
H8 H 0.7546 0.6699 0.8931
H9 H 0.8702 0.5956 0.9143
C5 C 0.7492(14) 0.3784(7) 0.9737(7)
H10 H 0.7382 0.3417 0.9206
H11 H 0.8376 0.3786 0.9872
P1 P 0.69110(19) 0.51792(16) 0.96824(14)
C6 C 0.4731(10) 0.6300(10) 0.9255(8)
H12 H 0.4623 0.6625 0.9794
H13 H 0.3935 0.6250 0.8983
H14 H 0.5284 0.6752 0.8931
C7 C 0.7819(10) 0.5475(7) 0.8085(6)
H15 H 0.8087 0.4718 0.8098
H16 H 0.8372 0.5894 0.7737
H17 H 0.6984 0.5516 0.7869
O1 O 0.6828(10) 0.3243(6) 1.0343(5)
C8 C 0.7038(16) 0.2128(8) 1.0361(8)
H18 H 0.6324 0.1748 1.0140
H19 H 0.7176 0.1897 1.0924
H20 H 0.7762 0.1957 1.0033
C9 C 0.1670(7) 0.6079(6) 0.0113(4)
C10 C 0.4171(7) 0.3400(6) 0.1610(4)
N1 N 0.1238(6) 0.4279(5) 0.1871(5)
N2 N 0.4027(6) 0.4268(5) 0.1349(4)
N3 N 0.2147(7) 0.6173(5) 0.0730(3)
Mn1 Mn 0.27545(9) 0.55427(7) 0.19451(5)
N4 N 0.4213(7) 0.2378(5) 0.1864(6)
N5 N 0.1014(7) 0.6073(8) -0.0565(4)
N6 N 0.0019(11) 0.2668(9) 0.1592(7)
C11 C 0.0641(10) 0.3548(8) 0.1796(6)
C12 C -0.0785(10) 0.2186(8) 0.2098(6)
N7 N -0.1484(7) 0.1706(6) 0.2434(4)
N8 N 0.1684(6) 0.5176(5) -0.1839(4)
C13 C 0.1424(7) 0.5575(7) -0.1232(4)
N9 N 0.5652(6) 0.1700(5) 0.2931(5)
C14 C 0.5013(8) 0.2067(5) 0.2421(6)
Mn1A Mn 0.22455(9) 0.44573(7) -0.30549(5)
Mn1B Mn -0.27545(9) 0.05427(7) 0.30549(5)
Mn1B_2 Mn 0.72455(9) 0.05427(7) 0.30549(5)
N7B N 0.1484(7) 0.6706(6) 0.2566(4)
N8A N 0.3316(6) 0.4824(5) 0.3161(4)
N9B N 0.4348(6) 0.6700(5) 0.2069(5)
loop_
_geom_bond_atom_site_label_1
_geom_bond_atom_site_label_2
_geom_bond_site_symmetry_1
_geom_bond_site_symmetry_2
C1 H1 1_555 1_555
H2 C1 1_555 1_555
C2 H3 1_555 1_555
H4 C2 1_555 1_555
H5 C2 1_555 1_555
C3 C2 1_555 1_555
H6 C3 1_555 1_555
H7 C3 1_555 1_555
C4 H8 1_555 1_555
H9 C4 1_555 1_555
C5 H10 1_555 1_555
H11 C5 1_555 1_555
P1 C1 1_555 1_555
C6 C1 1_555 1_555
H12 C6 1_555 1_555
H13 C6 1_555 1_555
H14 C6 1_555 1_555
C7 C4 1_555 1_555
H15 C7 1_555 1_555
H16 C7 1_555 1_555
H17 C7 1_555 1_555
O1 C5 1_555 1_555
C8 O1 1_555 1_555
H18 C8 1_555 1_555
H19 C8 1_555 1_555
H20 C8 1_555 1_555
C9 N3 1_555 1_555
C10 N2 1_555 1_555
N1 Mn1 1_555 1_555
N2 Mn1 1_555 1_555
N3 Mn1 1_555 1_555
Mn1 N7B 1_555 1_555
N4 C10 1_555 1_555
N5 C9 1_555 1_555
N6 C11 1_555 1_555
C11 N1 1_555 1_555
C12 N6 1_555 1_555
N7 C12 1_555 1_555
N8 C13 1_555 1_555
C13 N5 1_555 1_555
N9 C14 1_555 1_555
C14 N4 1_555 1_555
Mn1A N8 1_555 1_555
Mn1B N7 1_555 1_555
Mn1B_2 N9 1_555 1_555
N8A Mn1 1_555 1_555
N9B Mn1 1_555 1_555
C3 P1 1_555 1_555
C4 P1 1_555 1_555
C5 P1 1_555 1_555

#END
