
#######################################################################
#
#                 Cambridge Crystallographic Data Centre
#                                CCDC 
#
#######################################################################
#
# If this CIF has been generated from an entry in the Cambridge 
# Structural Database, then it will include bibliographic, chemical, 
# crystal, experimental, refinement or atomic coordinate data resulting 
# from the CCDC's data processing and validation procedures.
#
#######################################################################

data_JAKBIJ
_chemical_formula_moiety         '(C15 H22 Mn1 N9 P1)n'
_symmetry_cell_setting           orthorhombic
_symmetry_space_group_name_H-M   'P 21 21 21'
_symmetry_Int_Tables_number      19
_space_group_name_Hall           'P 2ac 2ab'
loop_
_symmetry_equiv_pos_site_id
_symmetry_equiv_pos_as_xyz
1 x,y,z
2 1/2-x,-y,1/2+z
3 -x,1/2+y,1/2-z
4 1/2+x,1/2-y,-z
_cell_length_a                   10.496(2)
_cell_length_b                   12.396(3)
_cell_length_c                   16.254(3)
_cell_angle_alpha                90
_cell_angle_beta                 90
_cell_angle_gamma                90
_cell_volume                     2114.78
loop_
_atom_site_label
_atom_site_type_symbol
_atom_site_fract_x
_atom_site_fract_y
_atom_site_fract_z
C1 C 0.7628(12) 0.8866(6) 0.0292(5)
H1 H 0.7700 0.8563 0.0840
H2 H 0.6732 0.8861 0.0145
C2 C 0.8307(11) 0.8161(7) -0.0278(6)
H3 H 0.9210 0.8196 -0.0153
H4 H 0.8193 0.8437 -0.0832
C3 C 0.7900(13) 0.6999(7) -0.0264(6)
H5 H 0.8041 0.6706 0.0275
H6 H 0.8387 0.6599 -0.0660
H7 H 0.7011 0.6951 -0.0398
C4 C 0.8103(9) 1.0856(7) -0.0664(5)
H8 H 0.8393 1.1596 -0.0612
H9 H 0.8701 1.0484 -0.1020
C5 C 0.6825(11) 1.0863(10) -0.1077(7)
H10 H 0.6558 1.0134 -0.1180
H11 H 0.6883 1.1246 -0.1589
H12 H 0.6215 1.1213 -0.0727
C6 C 0.7141(8) 1.0972(7) 0.1031(5)
H13 H 0.7414 1.1720 0.1045
H14 H 0.6276 1.0958 0.0821
C7 C 0.7137(10) 1.0542(7) 0.1890(5)
H15 H 0.6823 0.9815 0.1888
H16 H 0.6597 1.0982 0.2228
H17 H 0.7989 1.0552 0.2105
C8 C 0.9779(8) 1.0306(7) 0.0681(6)
H18 H 0.9845 0.9923 0.1199
H19 H 1.0321 0.9941 0.0286
C9 C 1.0263(8) 1.1450(8) 0.0799(6)
H20 H 1.0464 1.1759 0.0273
H21 H 1.1014 1.1438 0.1136
H22 H 0.9617 1.1875 0.1063
P1 P 0.81561(18) 1.02408(14) 0.03278(12)
C10 C 0.3289(6) 1.1054(5) 0.9844(3)
C11 C 0.3525(6) 1.0629(6) 1.1187(3)
C12 C 0.0862(6) 0.8380(6) 0.8342(4)
C13 C 0.0042(7) 0.6998(5) 0.7599(5)
C14 C 0.4439(9) 0.8581(9) 0.8188(5)
C15 C 0.5821(9) 0.7186(7) 0.7940(5)
Mn1 Mn 0.22651(8) 1.04889(6) 0.79988(4)
N1 N 0.2812(6) 1.1098(4) 0.9224(3)
N2 N 0.3909(6) 1.1126(7) 1.0524(3)
N3 N 0.3285(6) 1.0229(5) 1.1785(3)
N4 N 0.0975(6) 0.9239(5) 0.8571(3)
N5 N 0.0865(7) 0.7361(4) 0.8127(5)
N6 N -0.0625(6) 0.6601(4) 0.7131(4)
N7 N 0.3832(6) 0.9290(5) 0.8087(4)
N8 N 0.5165(11) 0.7787(8) 0.8442(6)
N9 N 0.6464(7) 0.6653(5) 0.7602(4)
Mn1A Mn 0.27349(8) 0.95111(6) 1.29988(4)
Mn1B Mn -0.22651(8) 0.54889(6) 0.70012(4)
Mn1B_2 Mn 0.77349(8) 0.54889(6) 0.70012(4)
N3A N 0.1715(6) 0.9771(5) 0.6785(3)
N6B N 0.0625(6) 1.1601(4) 0.7869(4)
N9B N 0.3536(7) 1.1653(5) 0.7398(4)
loop_
_geom_bond_atom_site_label_1
_geom_bond_atom_site_label_2
_geom_bond_site_symmetry_1
_geom_bond_site_symmetry_2
C1 H1 1_555 1_555
H2 C1 1_555 1_555
C2 C1 1_555 1_555
H3 C2 1_555 1_555
H4 C2 1_555 1_555
C3 C2 1_555 1_555
H5 C3 1_555 1_555
H6 C3 1_555 1_555
H7 C3 1_555 1_555
C4 H8 1_555 1_555
H9 C4 1_555 1_555
C5 C4 1_555 1_555
H10 C5 1_555 1_555
H11 C5 1_555 1_555
H12 C5 1_555 1_555
C6 H13 1_555 1_555
H14 C6 1_555 1_555
C7 C6 1_555 1_555
H15 C7 1_555 1_555
H16 C7 1_555 1_555
H17 C7 1_555 1_555
C8 H18 1_555 1_555
H19 C8 1_555 1_555
C9 C8 1_555 1_555
H20 C9 1_555 1_555
H21 C9 1_555 1_555
H22 C9 1_555 1_555
P1 C1 1_555 1_555
C10 N1 1_555 1_555
C11 N2 1_555 1_555
C12 N4 1_555 1_555
C13 N5 1_555 1_555
C14 N7 1_555 1_555
C15 N8 1_555 1_555
Mn1 N1 1_555 1_555
N2 C10 1_555 1_555
N3 C11 1_555 1_555
N4 Mn1 1_555 1_555
N5 C12 1_555 1_555
N6 C13 1_555 1_555
N7 Mn1 1_555 1_555
N8 C14 1_555 1_555
N9 C15 1_555 1_555
Mn1A N3 1_555 1_555
Mn1B N6 1_555 1_555
Mn1B_2 N9 1_555 1_555
N3A Mn1 1_555 1_555
N6B Mn1 1_555 1_555
N9B Mn1 1_555 1_555
C4 P1 1_555 1_555
C6 P1 1_555 1_555
C8 P1 1_555 1_555

#END
