
#######################################################################
#
#                 Cambridge Crystallographic Data Centre
#                                CCDC 
#
#######################################################################
#
# If this CIF has been generated from an entry in the Cambridge 
# Structural Database, then it will include bibliographic, chemical, 
# crystal, experimental, refinement or atomic coordinate data resulting 
# from the CCDC's data processing and validation procedures.
#
#######################################################################

data_JAKBOP01
_chemical_formula_moiety         '(C14 H20 Mn1 N9 O1 P1)n'
_symmetry_cell_setting           monoclinic
_symmetry_space_group_name_H-M   'P 21/c'
_symmetry_Int_Tables_number      14
_space_group_name_Hall           '-P 2ybc'
loop_
_symmetry_equiv_pos_site_id
_symmetry_equiv_pos_as_xyz
1 x,y,z
2 -x,1/2+y,1/2-z
3 -x,-y,-z
4 x,1/2-y,1/2+z
_cell_length_a                   10.391(13)
_cell_length_b                   15.81(2)
_cell_length_c                   15.482(15)
_cell_angle_alpha                90
_cell_angle_beta                 127.560(19)
_cell_angle_gamma                90
_cell_volume                     2016.2
loop_
_atom_site_label
_atom_site_type_symbol
_atom_site_fract_x
_atom_site_fract_y
_atom_site_fract_z
Mn1 Mn 0.41640(13) 0.18386(8) 0.18495(8)
C1 C 0.4713(8) 0.3618(6) 0.3221(6)
N1 N 0.4446(9) 0.3030(5) 0.2721(6)
N2 N 0.4027(8) 0.3846(6) -0.1900(5)
N3 N 0.6098(8) 0.5618(5) 0.3966(5)
N4 N 0.5026(9) 0.4229(6) 0.3925(6)
N5 N 0.6880(8) 0.1633(6) 0.3084(6)
N6 N 0.4645(8) 0.2590(6) 0.0849(5)
C2 C 0.5600(8) 0.4961(5) 0.3907(5)
C3 C 0.4951(9) 0.3038(6) 0.0444(7)
N7 N 1.1492(8) 0.2970(5) 0.5753(6)
C4 C 0.7991(9) 0.1892(6) 0.3971(7)
N8 N 0.9020(10) 0.2088(7) 0.4975(6)
C5 C 1.0337(9) 0.2553(6) 0.5357(7)
N9 N 0.5459(8) 0.3631(6) 0.0082(5)
C6 C 0.4645(9) 0.3712(6) -0.0991(6)
Mn1A Mn 0.58360(13) 0.68386(8) 0.31505(8)
Mn1C Mn 0.41640(13) 0.31614(8) -0.31505(8)
Mn1C_2 Mn 1.41640(13) 0.31614(8) 0.68495(8)
N2C N 0.4027(8) 0.1154(6) 0.3100(5)
N3A N 0.3902(8) 0.0618(5) 0.1034(5)
N7C N 0.1492(8) 0.2030(5) 0.0753(6)
P1 P 1.0032(2) 0.01899(14) 0.76081(15)
O1 O 0.8995(7) -0.0205(5) 0.5662(4)
C7 C 1.0492(8) 0.1236(6) 0.7379(6)
H1 H 1.1012 0.1176 0.7019
H2 H 0.9462 0.1549 0.6876
C8 C 1.1633(10) 0.1767(6) 0.8445(7)
H3 H 1.1044 0.1927 0.8729
H4 H 1.1983 0.2278 0.8283
H5 H 1.2585 0.1428 0.8990
C9 C 0.8397(9) -0.0253(5) 0.6252(6)
H6 H 0.8164 -0.0846 0.6318
H7 H 0.7388 0.0083 0.5898
C10 C 0.9355(9) 0.0242(7) 0.8461(7)
H8 H 0.8976 -0.0326 0.8483
H9 H 1.0297 0.0390 0.9213
C11 C 1.1817(9) -0.0500(6) 0.8247(7)
H10 H 1.2131 -0.0541 0.7760
H11 H 1.2732 -0.0237 0.8937
C12 C 0.8031(9) 0.0864(7) 0.8084(6)
H12 H 0.8442 0.1438 0.8161
H13 H 0.7651 0.0805 0.8525
H14 H 0.7128 0.0756 0.7317
C13 C 1.1554(13) -0.1379(8) 0.8487(11)
H15 H 1.0821 -0.1355 0.8685
H16 H 1.2598 -0.1620 0.9093
H17 H 1.1072 -0.1735 0.7839
C14 C 0.7876(11) -0.0444(7) 0.4554(7)
H18 H 0.7418 -0.0999 0.4505
H19 H 0.8436 -0.0472 0.4225
H20 H 0.7002 -0.0025 0.4164
loop_
_geom_bond_atom_site_label_1
_geom_bond_atom_site_label_2
_geom_bond_site_symmetry_1
_geom_bond_site_symmetry_2
Mn1 N1 1_555 1_555
C1 N1 1_555 1_555
N2 C6 1_555 1_555
N3 C2 1_555 1_555
N4 C1 1_555 1_555
N5 Mn1 1_555 1_555
N6 Mn1 1_555 1_555
C2 N4 1_555 1_555
C3 N6 1_555 1_555
N7 C5 1_555 1_555
C4 N5 1_555 1_555
N8 C4 1_555 1_555
C5 N8 1_555 1_555
N9 C3 1_555 1_555
C6 N9 1_555 1_555
P1 C7 1_555 1_555
O1 C9 1_555 1_555
C7 H1 1_555 1_555
H2 C7 1_555 1_555
C8 C7 1_555 1_555
H3 C8 1_555 1_555
H4 C8 1_555 1_555
H5 C8 1_555 1_555
C9 P1 1_555 1_555
H6 C9 1_555 1_555
H7 C9 1_555 1_555
C10 P1 1_555 1_555
H8 C10 1_555 1_555
H9 C10 1_555 1_555
C11 P1 1_555 1_555
H10 C11 1_555 1_555
H11 C11 1_555 1_555
C12 C10 1_555 1_555
H12 C12 1_555 1_555
H13 C12 1_555 1_555
H14 C12 1_555 1_555
C13 C11 1_555 1_555
H15 C13 1_555 1_555
H16 C13 1_555 1_555
H17 C13 1_555 1_555
C14 O1 1_555 1_555
H18 C14 1_555 1_555
H19 C14 1_555 1_555
H20 C14 1_555 1_555
Mn1A N3 1_555 1_555
Mn1C N2 1_555 1_555
Mn1C_2 N7 1_555 1_555
N2C Mn1 1_555 1_555
N3A Mn1 1_555 1_555
N7C Mn1 1_555 1_555

#END
