
#######################################################################
#
#                 Cambridge Crystallographic Data Centre
#                                CCDC 
#
#######################################################################
#
# If this CIF has been generated from an entry in the Cambridge 
# Structural Database, then it will include bibliographic, chemical, 
# crystal, experimental, refinement or atomic coordinate data resulting 
# from the CCDC's data processing and validation procedures.
#
#######################################################################

data_JAKBUV
_chemical_formula_moiety         '(C15 H20 Mn1 N9 P1)n'
_symmetry_cell_setting           monoclinic
_symmetry_space_group_name_H-M   'P 21/c'
_symmetry_Int_Tables_number      14
_space_group_name_Hall           '-P 2ybc'
loop_
_symmetry_equiv_pos_site_id
_symmetry_equiv_pos_as_xyz
1 x,y,z
2 -x,1/2+y,1/2-z
3 -x,-y,-z
4 x,1/2-y,1/2+z
_cell_length_a                   10.098(2)
_cell_length_b                   12.156(2)
_cell_length_c                   17.119(3)
_cell_angle_alpha                90
_cell_angle_beta                 96.32(3)
_cell_angle_gamma                90
_cell_volume                     2088.61
loop_
_atom_site_label
_atom_site_type_symbol
_atom_site_fract_x
_atom_site_fract_y
_atom_site_fract_z
Mn1 Mn 0.73110(4) 0.77455(3) 0.21230(2)
C1 C 0.6526(3) 1.0373(2) 0.19286(16)
C2 C 0.8226(3) 0.5131(2) 0.25089(18)
C3 C 0.9625(3) 0.3696(2) 0.27910(17)
C4 C 0.7586(3) 0.8386(2) 0.40331(16)
N1 N 0.6736(3) 0.9464(2) 0.18471(18)
N2 N 0.7915(3) 0.6019(2) 0.23928(16)
C5 C 0.5500(3) 1.1858(2) 0.23658(18)
N3 N 0.6373(3) 1.1433(2) 0.19520(18)
N4 N 0.8434(3) 0.4091(2) 0.2642(2)
N5 N 0.7571(4) 0.8161(3) 0.33947(16)
N6 N 0.7670(4) 0.8757(3) 0.47431(16)
N7 N 1.0592(3) 0.3241(2) 0.2939(2)
N8 N 0.4786(3) 1.2311(2) 0.2726(2)
C6 C 0.7318(3) 0.8166(2) 0.53167(16)
N9 N 0.7053(3) 0.7747(2) 0.58670(15)
Mn1A Mn 0.26890(4) 1.27455(3) 0.28770(2)
Mn1A_2 Mn 1.26890(4) 0.27455(3) 0.28770(2)
Mn1C Mn 0.73110(4) 0.72545(3) 0.71230(2)
N7A N 0.9408(3) 0.8241(2) 0.2061(2)
N8A N 0.5214(3) 0.7311(2) 0.2274(2)
N9C N 0.7053(3) 0.7253(2) 0.08670(15)
P1 P 0.77281(8) 0.25280(6) -0.01044(4)
C7 C 0.6361(3) 0.1560(3) -0.01882(19)
H1 H 0.6281 0.1247 0.0326
H2 H 0.5542 0.1953 -0.0353
C8 C 0.9306(3) 0.1783(3) 0.0089(2)
H3 H 0.9387 0.1280 -0.0343
H4 H 1.0031 0.2307 0.0100
C9 C 0.7778(4) 0.3246(3) -0.10198(19)
H5 H 0.7716 0.2707 -0.1440
H6 H 0.6995 0.3711 -0.1104
C10 C 0.6513(4) 0.0659(3) -0.0748(2)
H7 H 0.6450 0.0828 -0.1281
C11 C 0.8979(4) 0.3943(3) -0.1087(2)
H8 H 0.9167 0.4374 -0.0618
H9 H 0.8813 0.4423 -0.1532
H10 H 0.9728 0.3479 -0.1153
C12 C 0.7590(4) 0.3465(3) 0.0678(2)
H11 H 0.7825 0.3088 0.1173
H12 H 0.8224 0.4058 0.0644
C13 C 0.9456(4) 0.1148(4) 0.0835(2)
H13 H 0.9314 0.1627 0.1264
H14 H 1.0338 0.0844 0.0919
H15 H 0.8814 0.0563 0.0805
C14 C 0.6731(4) -0.0369(3) -0.0537(3)
H16 H 0.6798 -0.0561 -0.0008
H17 H 0.6818 -0.0904 -0.0916
C15 C 0.6180(5) 0.3960(4) 0.0675(3)
H18 H 0.5898 0.4263 0.0166
H19 H 0.6196 0.4531 0.1064
H20 H 0.5569 0.3395 0.0793
loop_
_geom_bond_atom_site_label_1
_geom_bond_atom_site_label_2
_geom_bond_site_symmetry_1
_geom_bond_site_symmetry_2
Mn1 N1 1_555 1_555
C1 N1 1_555 1_555
C2 N2 1_555 1_555
C3 N4 1_555 1_555
C4 N5 1_555 1_555
N2 Mn1 1_555 1_555
C5 N3 1_555 1_555
N3 C1 1_555 1_555
N4 C2 1_555 1_555
N5 Mn1 1_555 1_555
N6 C4 1_555 1_555
N7 C3 1_555 1_555
N8 C5 1_555 1_555
C6 N6 1_555 1_555
N9 C6 1_555 1_555
P1 C7 1_555 1_555
C7 H1 1_555 1_555
H2 C7 1_555 1_555
C8 P1 1_555 1_555
H3 C8 1_555 1_555
H4 C8 1_555 1_555
C9 P1 1_555 1_555
H5 C9 1_555 1_555
H6 C9 1_555 1_555
C10 C7 1_555 1_555
H7 C10 1_555 1_555
C11 C9 1_555 1_555
H8 C11 1_555 1_555
H9 C11 1_555 1_555
H10 C11 1_555 1_555
C12 P1 1_555 1_555
H11 C12 1_555 1_555
H12 C12 1_555 1_555
C13 C8 1_555 1_555
H13 C13 1_555 1_555
H14 C13 1_555 1_555
H15 C13 1_555 1_555
C14 C10 1_555 1_555
H16 C14 1_555 1_555
H17 C14 1_555 1_555
C15 C12 1_555 1_555
H18 C15 1_555 1_555
H19 C15 1_555 1_555
H20 C15 1_555 1_555
Mn1A N8 1_555 1_555
Mn1A_2 N7 1_555 1_555
Mn1C N9 1_555 1_555
N7A Mn1 1_555 1_555
N8A Mn1 1_555 1_555
N9C Mn1 1_555 1_555

#END
