
#######################################################################
#
#                 Cambridge Crystallographic Data Centre
#                                CCDC 
#
#######################################################################
#
# If this CIF has been generated from an entry in the Cambridge 
# Structural Database, then it will include bibliographic, chemical, 
# crystal, experimental, refinement or atomic coordinate data resulting 
# from the CCDC's data processing and validation procedures.
#
#######################################################################

data_UHUPET
_chemical_formula_moiety         'C315 O102 Zn32'
_symmetry_cell_setting           triclinic
_symmetry_space_group_name_H-M   'P -1'
_symmetry_Int_Tables_number      2
_space_group_name_Hall           '-P 1'
loop_
_symmetry_equiv_pos_site_id
_symmetry_equiv_pos_as_xyz
1 x,y,z
2 -x,-y,-z
_cell_length_a                   26.4452(15)
_cell_length_b                   26.4452(15)
_cell_length_c                   52.740(3)
_cell_angle_alpha                90.895(2)
_cell_angle_beta                 90.895(2)
_cell_angle_gamma                91.78
_cell_volume                     36856.6
loop_
_atom_site_label
_atom_site_type_symbol
_atom_site_fract_x
_atom_site_fract_y
_atom_site_fract_z
O1 O 1.06762(18) 1.17536(15) 0.60590(8)
Zn1 Zn 1.02158(4) 1.13340(4) 0.62622(2)
O2 O 1.0295(2) 1.1520(2) 0.66231(11)
O3 O 1.0914(2) 1.2115(2) 0.66413(10)
C1 C 1.0637(4) 1.1808(4) 0.67396(18)
C2 C 1.0663(4) 1.1680(3) 0.75468(18)
C3 C 1.0340(4) 1.1359(4) 0.7404(2)
C4 C 1.0306(5) 1.1425(4) 0.7132(2)
C5 C 1.0621(4) 1.1784(3) 0.70155(18)
C6 C 1.0944(4) 1.2062(3) 0.71684(19)
C7 C 1.0945(4) 1.2050(4) 0.7440(2)
C8 C 1.0682(4) 1.1625(3) 0.7816(2)
C9 C 1.0708(4) 1.1511(3) 0.8043(2)
C10 C 1.0820(4) 1.1254(4) 0.88228(19)
C11 C 1.0668(4) 1.0869(4) 0.8656(2)
C12 C 1.0637(4) 1.0950(4) 0.8404(2)
C13 C 1.0744(3) 1.1437(3) 0.82998(17)
C14 C 1.0880(4) 1.1828(3) 0.84677(19)
C15 C 1.0951(4) 1.1737(4) 0.87191(19)
O4 O 1.0514(3) 1.0570(3) 0.82236(13)
C16 C 1.0424(5) 1.0062(5) 0.8318(2)
O5 O 1.1036(3) 1.2126(3) 0.89012(14)
C17 C 1.1134(4) 1.2644(4) 0.8799(2)
C18 C 1.0850(4) 1.1176(4) 0.9087(2)
C19 C 1.0849(4) 1.1095(4) 0.9312(2)
C20 C 1.0823(5) 1.0815(4) 1.0091(2)
C21 C 1.1130(5) 1.1191(5) 1.0017(3)
C22 C 1.1138(5) 1.1285(5) 0.9748(3)
C23 C 1.0858(4) 1.0990(4) 0.9571(2)
C24 C 1.0528(5) 1.0645(5) 0.9664(3)
C25 C 1.0453(4) 1.0538(4) 0.9940(2)
C26 C 1.0728(4) 1.0699(4) 1.0380(2)
O6 O 1.0417(3) 1.0408(2) 1.04559(12)
O7 O 1.1079(3) 1.0982(3) 1.05179(15)
O8 O 1.0268(3) 1.0606(3) 0.62546(14)
O9 O 1.0709(3) 1.0644(3) 0.58868(17)
C27 C 1.0489(5) 1.0416(5) 0.6082(3)
C28 C 1.0426(5) 0.8836(8) 0.6033(4)
C29 C 1.0545(5) 0.9039(7) 0.5817(3)
C30 C 1.0559(6) 0.9626(7) 0.5837(3)
C31 C 1.0467(5) 0.9824(5) 0.6061(3)
C32 C 1.0307(5) 0.9583(5) 0.6258(2)
C33 C 1.0300(5) 0.9033(6) 0.6243(3)
C34 C 1.0355(8) 0.8268(12) 0.6017(4)
C35 C 1.0354(7) 0.7826(9) 0.6020(3)
C36 C 1.0420(6) 0.6266(5) 0.6005(3)
C37 C 0.9899(5) 0.6395(5) 0.5963(2)
C38 C 0.9997(7) 0.6965(6) 0.5969(3)
C39 C 1.0356(9) 0.7242(7) 0.6017(3)
C40 C 1.0823(10) 0.7086(9) 0.6065(4)
C41 C 1.0877(11) 0.6442(10) 0.6078(5)
O10 O 0.9482(7) 0.7194(6) 0.5925(3)
C42 C 0.9019(15) 0.6870(16) 0.5922(8)
O11 O 1.1470(15) 0.645(2) 0.6066(9)
C43 C 1.1606(17) 0.659(2) 0.6334(10)
C44 C 1.0441(5) 0.5683(5) 0.5995(2)
C45 C 1.0494(5) 0.5241(6) 0.5999(2)
C46 C 1.0583(4) 0.3650(4) 0.60186(19)
C47 C 1.0223(4) 0.3843(4) 0.5860(2)
C48 C 1.0175(4) 0.4383(5) 0.5844(2)
C49 C 1.0501(4) 0.4668(4) 0.6009(2)
C50 C 1.0864(5) 0.4498(5) 0.6178(2)
C51 C 1.0889(4) 0.3958(4) 0.6187(2)
C52 C 1.0622(4) 0.3061(3) 0.60324(19)
O12 O 1.0904(2) 0.2917(2) 0.62094(11)
O13 O 1.0373(2) 0.2825(2) 0.58646(11)
O14 O 0.9485(3) 1.1462(3) 0.61897(14)
O15 O 0.9569(3) 1.1954(3) 0.58350(14)
C53 C 0.9338(5) 1.1734(5) 0.6004(3)
C54 C 0.8756(6) 1.1743(5) 0.6004(3)
C55 C 0.8531(9) 1.1973(6) 0.5829(4)
C56 C 0.7983(12) 1.2083(8) 0.5798(5)
C57 C 0.7724(8) 1.1847(7) 0.6018(4)
C58 C 0.7931(8) 1.1599(7) 0.6209(4)
C59 C 0.8482(7) 1.1521(5) 0.6191(3)
C60 C 0.7129(11) 1.1823(11) 0.5987(5)
C61 C 0.6731(10) 1.2015(7) 0.5996(5)
C62 C 0.5137(6) 1.2138(6) 0.6010(5)
C63 C 0.5365(7) 1.2088(6) 0.6247(4)
C64 C 0.5886(8) 1.2047(7) 0.6268(3)
C65 C 0.6180(5) 1.2055(4) 0.6052(4)
C66 C 0.5952(8) 1.2105(7) 0.5815(4)
C67 C 0.5431(9) 1.2146(9) 0.5794(4)
O16 O 0.5196(17) 1.2086(17) 0.6511(6)
C68 C 0.463(2) 1.200(6) 0.6524(12)
O17 O 0.611(3) 1.220(3) 0.5566(9)
C69 C 0.593(3) 1.236(3) 0.5331(13)
C70 C 0.4594(10) 1.2105(10) 0.6000(5)
C71 C 0.4172(11) 1.2034(9) 0.6050(5)
C72 C 0.3609(9) 1.2110(9) 0.6064(5)
C73 C 0.3385(11) 1.1863(9) 0.5868(5)
C74 C 0.2765(10) 1.1807(8) 0.5890(4)
C75 C 0.2549(5) 1.2073(5) 0.6074(3)
C76 C 0.2797(7) 1.2340(6) 0.6251(3)
C77 C 0.3391(9) 1.2364(8) 0.6227(4)
C78 C 0.1965(5) 1.2081(4) 0.6097(2)
O18 O 0.1804(3) 1.2264(2) 0.62748(14)
O19 O 0.1742(3) 1.1849(3) 0.59032(18)
Zn2 Zn 1.10550(4) 1.22150(4) 0.62814(2)
Zn3 Zn 1.11531(5) 1.12948(4) 0.58927(2)
O20 O 1.1017(3) 1.1383(3) 0.55228(13)
O21 O 1.0454(2) 1.2010(2) 0.54584(11)
C79 C 1.0739(4) 1.1684(4) 0.5385(2)
C80 C 1.0804(4) 1.1618(4) 0.5102(2)
C81 C 1.1086(5) 1.1252(5) 0.5012(3)
C82 C 1.1128(5) 1.1153(5) 0.4755(3)
C83 C 1.0890(5) 1.1465(5) 0.4593(3)
C84 C 1.0633(5) 1.1874(5) 0.4664(3)
C85 C 1.0543(4) 1.1922(4) 0.4949(2)
C86 C 1.0918(5) 1.1414(5) 0.4320(3)
C87 C 1.0946(6) 1.1345(5) 0.4083(4)
C88 C 1.0967(4) 1.1330(5) 0.3819(3)
C89 C 1.1017(6) 1.0869(7) 0.3701(3)
C90 C 1.1008(5) 1.0816(5) 0.3430(3)
C91 C 1.0920(4) 1.1246(5) 0.3296(2)
C92 C 1.0859(5) 1.1724(5) 0.3408(3)
C93 C 1.0868(6) 1.1781(6) 0.3678(3)
O22 O 1.1094(4) 1.0463(4) 0.3850(2)
C94 C 1.1143(7) 0.9936(7) 0.3704(4)
O23 O 1.0786(4) 1.2132(4) 0.32708(19)
C95 C 1.0774(6) 1.2639(6) 0.3399(3)
C96 C 1.0913(5) 1.1211(5) 0.3027(3)
C97 C 1.0860(5) 1.1161(5) 0.2802(3)
C98 C 1.0795(4) 1.1051(5) 0.2522(2)
C99 C 1.1016(5) 1.0637(5) 0.2422(3)
C100 C 1.1002(5) 1.0558(4) 0.2156(3)
C101 C 1.0723(4) 1.0863(4) 0.2010(2)
C102 C 1.0478(4) 1.1241(4) 0.2127(2)
C103 C 1.0551(5) 1.1371(4) 0.2390(2)
C104 C 1.0683(4) 1.0762(4) 0.1727(2)
O24 O 1.0922(2) 1.0421(2) 0.16394(12)
O25 O 1.0385(3) 1.1050(3) 0.16103(13)
Zn4 Zn 1.02848(5) 1.21000(4) 0.58098(2)
O26 O 1.0707(2) 1.06817(17) 1.10537(10)
Zn5 Zn 1.03463(6) 1.02771(4) 1.08056(2)
O27 O 1.0443(3) 0.9552(3) 1.08456(14)
O28 O 1.0757(3) 0.9554(2) 1.12414(13)
C105 C 1.0571(5) 0.9341(5) 1.1055(3)
C106 C 1.0541(4) 0.8772(4) 1.1052(2)
C107 C 1.0535(6) 0.8527(6) 1.1269(3)
C108 C 1.0516(6) 0.7980(7) 1.1261(3)
C109 C 1.0474(6) 0.7753(6) 1.1043(4)
C110 C 1.0417(6) 0.7956(6) 1.0799(3)
C111 C 1.0422(5) 0.8514(5) 1.0818(2)
C112 C 1.0467(7) 0.7207(9) 1.1032(4)
C113 C 1.0424(7) 0.6723(8) 1.1029(4)
C114 C 1.0454(6) 0.6174(4) 1.1059(2)
C115 C 1.0953(5) 0.6023(6) 1.1067(2)
C116 C 1.1059(5) 0.5511(7) 1.1060(3)
C117 C 1.0665(7) 0.5150(4) 1.1047(3)
C118 C 1.0167(6) 0.5301(6) 1.1039(3)
C119 C 1.0061(4) 0.5813(7) 1.1046(3)
O29 O 1.1469(5) 0.5201(5) 1.1105(2)
C120 C 1.1942(10) 0.5530(9) 1.1228(5)
O30 O 0.9649(6) 0.6123(5) 1.1042(2)
C121 C 0.9155(5) 0.5926(8) 1.1091(4)
C122 C 1.0678(10) 0.4599(8) 1.1058(5)
C123 C 1.0471(13) 0.4181(11) 1.1037(5)
C124 C 1.0529(9) 0.3630(4) 1.1024(3)
C125 C 1.0125(6) 0.3357(7) 1.1126(2)
C126 C 1.0123(5) 0.2831(7) 1.1123(2)
C127 C 1.0525(8) 0.2578(4) 1.1019(3)
C128 C 1.0930(6) 0.2851(9) 1.0918(3)
C129 C 1.0931(6) 0.3377(9) 1.0920(3)
C130 C 1.0655(8) 1.1922(8) 1.1004(4)
O31 O 1.0227(3) 1.1816(3) 1.11636(16)
O32 O 1.0718(7) 1.1733(7) 1.0826(4)
O33 O 0.9591(3) 1.0304(2) 1.08601(13)
O34 O 0.9587(3) 1.0819(3) 1.11899(14)
C131 C 0.9356(4) 1.0511(4) 1.1021(2)
C132 C 0.8804(5) 1.0446(4) 1.1025(2)
C133 C 0.8525(7) 1.0635(5) 1.1206(3)
C134 C 0.7990(8) 1.0614(6) 1.1213(3)
C135 C 0.7748(7) 1.0318(6) 1.1028(3)
C136 C 0.8004(8) 1.0056(6) 1.0849(3)
C137 C 0.8562(6) 1.0136(5) 1.0852(3)
C138 C 0.7222(8) 1.0233(8) 1.1029(4)
C139 C 0.6778(9) 1.0229(7) 1.1013(4)
C140 C 0.6228(6) 1.0256(6) 1.1047(4)
C141 C 0.5894(9) 1.0023(9) 1.0873(4)
C142 C 0.5375(8) 1.0050(10) 1.0906(5)
C143 C 0.5190(7) 1.0310(9) 1.1115(6)
C144 C 0.5524(10) 1.0543(11) 1.1289(5)
C145 C 0.6043(9) 1.0516(9) 1.1256(4)
O35 O 0.6127(17) 0.979(2) 1.0665(7)
C146 C 0.579(2) 0.963(4) 1.0458(10)
O36 O 0.537(4) 1.081(2) 1.1505(11)
C147 C 0.561(2) 1.1279(17) 1.1547(11)
C148 C 0.4671(10) 1.0271(15) 1.1108(8)
C149 C 0.4218(9) 1.0284(10) 1.1093(5)
C150 C 0.3658(5) 1.0348(9) 1.1122(4)
C151 C 0.3343(10) 1.0053(6) 1.1272(3)
C152 C 0.2822(9) 1.0111(6) 1.1261(3)
C153 C 0.2617(5) 1.0463(8) 1.1099(4)
C154 C 0.2933(10) 1.0757(5) 1.0948(3)
C155 C 0.3453(9) 1.0700(7) 1.0960(3)
C156 C 0.2005(7) 1.0444(6) 1.1169(3)
O37 O 0.1756(4) 1.0190(4) 1.12824(19)
O38 O 0.1859(5) 1.0764(5) 1.0965(3)
Zn6 Zn 1.10621(6) 1.02466(5) 0.12846(2)
Zn7 Zn 1.02684(5) 1.10896(4) 0.12439(2)
Zn8 Zn 1.12360(6) 1.11507(5) 1.08848(2)
O12_2 O 1.0904(2) 1.2917(2) 0.62094(11)
O13_2 O 1.0373(2) 1.2825(2) 0.58646(11)
O18_2 O 1.1804(3) 1.2264(2) 0.62748(14)
O19_2 O 1.1742(3) 1.1849(3) 0.59032(18)
Zn2_2 Zn 1.10550(4) 0.22150(4) 0.62814(2)
Zn2_3 Zn 0.10550(4) 1.22150(4) 0.62814(2)
Zn3_2 Zn 0.11531(5) 1.12948(4) 0.58927(2)
Zn4_2 Zn 1.02848(5) 0.21000(4) 0.58098(2)
O26_2 O 1.0707(2) 1.06817(17) 0.10537(10)
O28_2 O 1.0757(3) 0.9554(2) 0.12414(13)
O31_2 O 1.0227(3) 1.1816(3) 0.11636(16)
O34_2 O 0.9587(3) 1.0819(3) 0.11899(14)
O37_2 O 1.1756(4) 1.0190(4) 0.12824(19)
O38_2 O 1.1859(5) 1.0764(5) 1.0965(3)
Zn6_2 Zn 1.10621(6) 1.02466(5) 1.12846(2)
Zn6_3 Zn 0.10621(6) 1.02466(5) 1.12846(2)
Zn7_2 Zn 1.02684(5) 1.10896(4) 1.12439(2)
Zn8_2 Zn 0.12360(6) 1.11507(5) 1.08848(2)
O39 O 0.2304(2) 0.33001(17) 0.81882(9)
Zn9 Zn 0.19022(5) 0.28863(4) 0.79460(2)
O40 O 0.1965(2) 0.3010(2) 0.75881(12)
O41 O 0.2471(3) 0.3712(3) 0.76613(15)
C157 C 0.2204(5) 0.3388(5) 0.7504(2)
C158 C 0.2288(4) 0.3581(4) 0.6714(2)
C159 C 0.2057(4) 0.3156(4) 0.6806(2)
C160 C 0.2011(4) 0.3089(4) 0.7071(2)
C161 C 0.2259(4) 0.3455(4) 0.7231(2)
C162 C 0.2533(5) 0.3870(4) 0.7150(2)
C163 C 0.2540(5) 0.3953(5) 0.6875(3)
C164 C 0.2324(4) 0.3650(4) 0.6452(3)
C165 C 0.2319(4) 0.3712(4) 0.6230(2)
C166 C 0.2435(4) 0.3898(4) 0.5446(2)
C167 C 0.2114(5) 0.3523(4) 0.5542(3)
C168 C 0.2055(4) 0.3478(4) 0.5794(2)
C169 C 0.2376(4) 0.3783(4) 0.5960(2)
C170 C 0.2703(5) 0.4143(4) 0.5864(3)
C171 C 0.2742(5) 0.4208(4) 0.5589(3)
O42 O 0.1816(3) 0.3263(3) 0.53572(16)
O43 O 0.3020(4) 0.4409(3) 0.60380(18)
C172 C 0.1465(6) 0.2865(6) 0.5454(3)
C173 C 0.3399(7) 0.4769(6) 0.5931(3)
C174 C 0.2429(5) 0.3949(4) 0.5175(3)
C175 C 0.2457(5) 0.4038(4) 0.4945(3)
C176 C 0.2493(4) 0.4227(4) 0.4162(2)
C177 C 0.2159(5) 0.3867(4) 0.4256(3)
C178 C 0.2157(5) 0.3844(5) 0.4532(3)
C179 C 0.2480(5) 0.4101(5) 0.4678(3)
C180 C 0.2769(5) 0.4527(5) 0.4586(3)
C181 C 0.2819(5) 0.4518(5) 0.4301(3)
C182 C 0.2490(5) 0.4271(4) 0.3856(2)
O44 O 0.2829(2) 0.4594(2) 0.37810(11)
O45 O 0.2217(3) 0.3990(3) 0.37524(13)
O46 O 0.1164(2) 0.2950(2) 0.80040(12)
O47 O 0.1152(3) 0.3501(3) 0.83229(13)
C183 C 0.0936(4) 0.3219(4) 0.81658(19)
C184 C 0.0359(5) 0.3135(4) 0.8159(2)
C185 C 0.0083(7) 0.3377(6) 0.8324(3)
C186 C -0.0453(6) 0.3325(5) 0.8325(3)
C187 C -0.0639(6) 0.2986(5) 0.8163(3)
C188 C -0.0405(6) 0.2754(5) 0.7961(3)
C189 C 0.0155(6) 0.2831(5) 0.7993(3)
C190 C -0.1177(9) 0.2959(7) 0.8148(4)
C191 C -0.1643(8) 0.2882(7) 0.8116(4)
C192 C -0.2197(5) 0.2930(8) 0.8113(5)
C193 C -0.2483(9) 0.2647(7) 0.7935(3)
C194 C -0.3008(9) 0.2628(7) 0.7949(4)
C195 C -0.3246(5) 0.2892(8) 0.8141(5)
C196 C -0.2960(10) 0.3175(7) 0.8319(4)
C197 C -0.2435(9) 0.3194(7) 0.8305(4)
O48 O -0.2281(12) 0.2243(10) 0.7773(6)
C198 C -0.198(3) 0.240(2) 0.7573(13)
O49 O -0.3179(12) 0.3564(13) 0.8481(6)
C199 C -0.288(3) 0.4007(13) 0.8482(14)
C200 C -0.3802(11) 0.2947(18) 0.8183(9)
C201 C -0.4221(10) 0.2911(10) 0.8147(5)
C202 C -0.4803(5) 0.2960(10) 0.8175(4)
C203 C -0.5102(9) 0.2614(6) 0.8306(3)
C204 C -0.5620(9) 0.2678(6) 0.8322(2)
C205 C -0.5840(5) 0.3088(9) 0.8206(3)
C206 C -0.5541(11) 0.3434(6) 0.8075(3)
C207 C -0.5023(10) 0.3370(8) 0.8059(3)
C208 C -0.6440(8) 0.3049(8) 0.8228(4)
O50 O -0.6589(5) 0.3538(5) 0.8227(2)
O51 O -0.6633(3) 0.2796(3) 0.83925(16)
O52 O 0.1994(2) 0.2158(2) 0.79863(13)
O53 O 0.2337(2) 0.2167(2) 0.83779(12)
C209 C 0.2183(4) 0.1962(4) 0.8187(2)
C210 C 0.2070(4) 0.1389(4) 0.8179(3)
C211 C 0.1932(4) 0.1130(5) 0.7964(2)
C212 C 0.1939(5) 0.0602(6) 0.7928(3)
C213 C 0.2092(7) 0.0370(7) 0.8139(4)
C214 C 0.2231(9) 0.0592(10) 0.8356(5)
C215 C 0.2188(6) 0.1171(7) 0.8390(3)
C216 C 0.2206(11) -0.0184(11) 0.8134(5)
C217 C 0.2032(12) -0.0609(10) 0.8155(4)
C218 C 0.2275(9) -0.2177(6) 0.8150(3)
C219 C 0.2671(7) -0.1820(7) 0.8144(4)
C220 C 0.2571(8) -0.1307(6) 0.8146(3)
C221 C 0.2074(10) -0.1152(6) 0.8153(3)
C222 C 0.1677(7) -0.1509(10) 0.8159(5)
C223 C 0.1778(8) -0.2022(9) 0.8157(4)
O54 O 0.3132(15) -0.202(3) 0.8240(9)
C224 C 0.315(2) -0.198(3) 0.8513(7)
O55 O 0.1104(9) -0.1416(9) 0.8212(4)
C225 C 0.0766(15) -0.1964(14) 0.8339(7)
C226 C 0.2312(15) -0.2741(10) 0.8149(5)
C227 C 0.2289(13) -0.3168(11) 0.8163(6)
C228 C 0.2281(9) -0.3784(7) 0.8125(4)
C229 C 0.1793(9) -0.3985(9) 0.8234(4)
C230 C 0.1829(9) -0.4617(9) 0.8216(4)
C231 C 0.2267(8) -0.4752(6) 0.8149(3)
C232 C 0.2712(6) -0.4571(6) 0.8128(3)
C233 C 0.2756(8) -0.4011(8) 0.8125(4)
C234 C 0.2200(5) 0.4582(4) 0.8173(2)
O56 O 0.2642(4) 0.4435(3) 0.81001(16)
O57 O 0.1884(3) 0.4432(3) 0.83006(14)
Zn10 Zn 0.28135(5) 0.37223(4) 0.79964(2)
Zn11 Zn 0.18529(5) 0.37144(4) 0.83740(2)
Zn12 Zn 0.26467(5) 0.28597(4) 0.84114(2)
O58 O 0.2589(2) 0.43586(18) 0.31981(10)
Zn13 Zn 0.29549(5) 0.47687(4) 0.34335(2)
O59 O 0.2917(3) 0.5494(3) 0.34119(16)
O60 O 0.2553(4) 0.5450(4) 0.3033(2)
C235 C 0.2642(6) 0.5631(6) 0.3257(3)
C236 C 0.2697(5) 0.6254(4) 0.3217(3)
C237 C 0.2458(5) 0.6474(7) 0.3011(2)
C238 C 0.2427(5) 0.6998(8) 0.3001(3)
C239 C 0.2635(6) 0.7300(4) 0.3196(4)
C240 C 0.2875(5) 0.7080(6) 0.3401(3)
C241 C 0.2906(4) 0.6557(7) 0.3412(2)
C242 C 0.2644(13) 0.7870(10) 0.3197(6)
C243 C 0.2507(14) 0.8279(10) 0.3160(5)
C244 C 0.2449(8) 0.8818(5) 0.3166(3)
C245 C 0.2882(6) 0.9097(8) 0.3239(3)
C246 C 0.2874(7) 0.9623(7) 0.3250(3)
C247 C 0.2432(9) 0.9868(5) 0.3188(3)
C248 C 0.1999(7) 0.9588(8) 0.3115(3)
C249 C 0.2007(6) 0.9063(8) 0.3104(3)
O61 O 0.3320(8) 0.8836(11) 0.3259(6)
C250 C 0.3650(11) 0.9112(14) 0.3478(7)
O62 O 0.1466(8) 0.9674(8) 0.3029(4)
C251 C 0.139(3) 1.021(3) 0.307(3)
C252 C 0.2547(18) 1.0418(10) 0.3220(7)
C253 C 0.2584(15) 1.0852(9) 0.3167(7)
C254 C 0.2573(8) 1.1381(4) 0.3184(4)
C255 C 0.2229(6) 1.1638(7) 0.3331(3)
C256 C 0.2248(4) 1.2164(7) 0.3342(2)
C257 C 0.2610(6) 1.2433(4) 0.3206(3)
C258 C 0.2953(5) 1.2176(8) 0.3059(2)
C259 C 0.2935(6) 1.1650(8) 0.3048(3)
C260 C 0.2594(5) 1.3018(5) 0.3178(3)
O63 O 0.2227(3) 1.3165(3) 0.33343(14)
O64 O 0.2921(3) 1.3233(3) 0.30633(15)
Zn14 Zn 0.21086(5) 0.39033(4) 0.33782(2)
O65 O 0.1371(3) 0.3922(3) 0.33187(17)
O66 O 0.1476(4) 0.4386(4) 0.2963(2)
C261 C 0.1231(6) 0.4137(5) 0.3105(3)
C262 C -0.0361(7) 0.4425(6) 0.3131(4)
C263 C -0.0107(8) 0.4547(6) 0.2921(3)
C264 C 0.0451(7) 0.4472(6) 0.2917(3)
C265 C 0.0649(5) 0.4247(5) 0.3137(3)
C266 C 0.0363(6) 0.4062(5) 0.3331(3)
C267 C -0.0172(7) 0.4170(6) 0.3325(3)
C268 C -0.0923(8) 0.4542(6) 0.3134(3)
C269 C -0.1369(8) 0.4581(5) 0.3147(3)
C270 C -0.2948(5) 0.4697(4) 0.3199(2)
C271 C -0.2687(6) 0.4731(5) 0.2984(3)
C272 C -0.2164(6) 0.4695(5) 0.2928(3)
C273 C -0.1902(5) 0.4663(4) 0.3153(3)
C274 C -0.2098(5) 0.4669(4) 0.3381(3)
C275 C -0.2663(5) 0.4700(4) 0.3426(2)
O67 O -0.2981(4) 0.4774(4) 0.2735(2)
C276 C -0.2717(7) 0.4882(7) 0.2507(4)
O68 O -0.1802(4) 0.4652(3) 0.3607(2)
C277 C -0.2000(7) 0.4718(6) 0.3854(4)
C278 C -0.3493(7) 0.4713(5) 0.3206(3)
C279 C -0.3911(9) 0.4666(6) 0.3243(3)
C280 C -0.5513(4) 0.4492(4) 0.3236(2)
C281 C -0.5246(6) 0.4286(5) 0.3029(3)
C282 C -0.4720(6) 0.4358(5) 0.3035(3)
C283 C -0.4458(7) 0.4604(5) 0.3219(3)
C284 C -0.4705(6) 0.4808(5) 0.3428(3)
C285 C -0.5270(6) 0.4771(5) 0.3414(3)
C286 C -0.6093(4) 0.4428(4) 0.3244(2)
O69 O 0.3699(3) 0.4660(2) 0.33953(13)
O70 O -0.6280(3) 0.4153(2) 0.30641(13)
Zn15 Zn 0.21508(6) 0.47943(5) 0.29742(2)
O71 O 0.2342(3) 0.4594(3) 0.26249(15)
O72 O 0.2935(3) 0.4010(3) 0.26387(15)
C287 C 0.2623(5) 0.4288(5) 0.2529(3)
C288 C 0.2614(6) 0.4221(6) 0.1723(3)
C289 C 0.2951(7) 0.3912(7) 0.1841(4)
C290 C 0.2918(6) 0.3923(6) 0.2119(4)
C291 C 0.2620(5) 0.4270(4) 0.2249(2)
C292 C 0.2241(6) 0.4524(5) 0.2105(3)
C293 C 0.2237(6) 0.4463(6) 0.1828(3)
C294 C 0.2529(7) 0.4150(6) 0.1445(4)
C295 C 0.2590(7) 0.4146(6) 0.1217(4)
C296 C 0.2563(8) 0.3906(6) 0.0433(3)
C297 C 0.2951(7) 0.3736(6) 0.0552(4)
C298 C 0.2954(8) 0.3838(8) 0.0835(5)
O73 O 0.3271(9) 0.3540(8) 0.0951(4)
C299 C 0.3736(10) 0.3439(12) 0.0830(6)
C300 C 0.2532(7) 0.4050(6) 0.0932(3)
C301 C 0.2152(6) 0.4264(6) 0.0809(3)
C302 C 0.2160(7) 0.4168(6) 0.0527(3)
O74 O 0.1715(7) 0.4388(6) 0.0375(3)
C303 C 0.1267(13) 0.4688(12) 0.0522(6)
C304 C 0.2498(6) 0.3849(6) 0.0151(4)
C305 C 0.2492(6) 0.3763(6) -0.0083(4)
C306 C 0.2329(4) 0.3479(4) -0.0851(2)
C307 C 0.2084(5) 0.3897(5) -0.0751(3)
C308 C 0.2124(6) 0.3954(6) -0.0480(3)
C309 C 0.2420(5) 0.3672(5) -0.0356(3)
C310 C 0.2668(6) 0.3271(6) -0.0451(3)
C311 C 0.2634(5) 0.3203(4) -0.0715(3)
C312 C 0.2270(4) 0.3374(4) -0.11462(18)
O75 O 0.1993(2) 0.3679(2) -0.12560(12)
O76 O 0.2495(2) 0.3025(2) -0.12303(11)
Zn16 Zn 0.30065(5) 0.39427(4) 0.29925(2)
O45_2 O 0.2217(3) 1.3990(3) 0.37524(13)
O50_2 O 0.3411(5) 0.3538(5) 0.8227(2)
O51_2 O 0.3367(3) 0.2796(3) 0.83925(16)
Zn10_2 Zn -0.71865(5) 0.37223(4) 0.79964(2)
Zn11_2 Zn 0.18529(5) 0.37144(4) -0.16260(2)
Zn12_2 Zn -0.73533(5) 0.28597(4) 0.84114(2)
Zn12_3 Zn 0.26467(5) 0.28597(4) -0.15886(2)
O58_2 O 0.2589(2) 1.43586(18) 0.31981(10)
O58_3 O -0.7411(2) 0.43586(18) 0.31981(10)
Zn13_2 Zn -0.70451(5) 0.47687(4) 0.34335(2)
C260_2 C 0.2594(5) 0.3018(5) 0.3178(3)
O63_2 O 0.2227(3) 0.3165(3) 0.33343(14)
O64_2 O 0.2921(3) 0.3233(3) 0.30633(15)
O64_3 O -0.7079(3) 0.3233(3) 0.30633(15)
Zn14_2 Zn 0.21086(5) 1.39033(4) 0.33782(2)
O65_2 O 0.1371(3) 1.3922(3) 0.33187(17)
C280_2 C 0.4487(4) 0.4492(4) 0.3236(2)
C286_2 C 0.3907(4) 0.4428(4) 0.3244(2)
O69_2 O -0.6301(3) 0.4660(2) 0.33953(13)
O70_2 O 0.3720(3) 0.4153(2) 0.30641(13)
O70_3 O 0.3720(3) 1.4153(2) 0.30641(13)
O72_2 O 0.2935(3) 1.4010(3) 0.26387(15)
O72_3 O -0.7065(3) 0.4010(3) 0.26387(15)
O75_2 O 0.1993(2) 0.3679(2) 0.87440(12)
O76_2 O 0.2495(2) 0.3025(2) 0.87697(11)
Zn16_2 Zn 0.30065(5) 1.39427(4) 0.29925(2)
Zn16_3 Zn -0.69935(5) 0.39427(4) 0.29925(2)
loop_
_geom_bond_atom_site_label_1
_geom_bond_atom_site_label_2
_geom_bond_site_symmetry_1
_geom_bond_site_symmetry_2
O1 Zn1 1_555 1_555
Zn1 O2 1_555 1_555
O2 C1 1_555 1_555
O3 C1 1_555 1_555
C1 C5 1_555 1_555
C2 C3 1_555 1_555
C3 C4 1_555 1_555
C4 C5 1_555 1_555
C5 C6 1_555 1_555
C6 C7 1_555 1_555
C7 C2 1_555 1_555
C8 C2 1_555 1_555
C9 C8 1_555 1_555
C10 C11 1_555 1_555
C11 C12 1_555 1_555
C12 C13 1_555 1_555
C13 C9 1_555 1_555
C14 C13 1_555 1_555
C15 C10 1_555 1_555
O4 C12 1_555 1_555
C16 O4 1_555 1_555
O5 C15 1_555 1_555
C17 O5 1_555 1_555
C18 C10 1_555 1_555
C19 C18 1_555 1_555
C20 C21 1_555 1_555
C21 C22 1_555 1_555
C22 C23 1_555 1_555
C23 C19 1_555 1_555
C24 C23 1_555 1_555
C25 C20 1_555 1_555
C26 C20 1_555 1_555
O6 C26 1_555 1_555
O7 C26 1_555 1_555
O8 Zn1 1_555 1_555
O9 C27 1_555 1_555
C27 O8 1_555 1_555
C28 C29 1_555 1_555
C29 C30 1_555 1_555
C30 C31 1_555 1_555
C31 C27 1_555 1_555
C32 C31 1_555 1_555
C33 C28 1_555 1_555
C34 C28 1_555 1_555
C35 C34 1_555 1_555
C36 C37 1_555 1_555
C37 C38 1_555 1_555
C38 C39 1_555 1_555
C39 C35 1_555 1_555
C40 C39 1_555 1_555
C41 C36 1_555 1_555
O10 C38 1_555 1_555
C42 O10 1_555 1_555
O11 C41 1_555 1_555
C43 O11 1_555 1_555
C44 C36 1_555 1_555
C45 C44 1_555 1_555
C46 C47 1_555 1_555
C47 C48 1_555 1_555
C48 C49 1_555 1_555
C49 C45 1_555 1_555
C50 C49 1_555 1_555
C51 C46 1_555 1_555
C52 C46 1_555 1_555
O12 C52 1_555 1_555
O13 C52 1_555 1_555
O14 Zn1 1_555 1_555
O15 C53 1_555 1_555
C53 O14 1_555 1_555
C54 C53 1_555 1_555
C55 C54 1_555 1_555
C56 C55 1_555 1_555
C57 C56 1_555 1_555
C58 C57 1_555 1_555
C59 C54 1_555 1_555
C60 C57 1_555 1_555
C61 C60 1_555 1_555
C62 C63 1_555 1_555
C63 C64 1_555 1_555
C64 C65 1_555 1_555
C65 C61 1_555 1_555
C66 C65 1_555 1_555
C67 C62 1_555 1_555
O16 C63 1_555 1_555
C68 O16 1_555 1_555
O17 C66 1_555 1_555
C69 O17 1_555 1_555
C70 C62 1_555 1_555
C71 C70 1_555 1_555
C72 C71 1_555 1_555
C73 C72 1_555 1_555
C74 C73 1_555 1_555
C75 C74 1_555 1_555
C76 C75 1_555 1_555
C77 C72 1_555 1_555
C78 C75 1_555 1_555
O18 C78 1_555 1_555
O19 C78 1_555 1_555
Zn2 O1 1_555 1_555
Zn3 O1 1_555 1_555
O20 Zn3 1_555 1_555
O21 C79 1_555 1_555
C79 O20 1_555 1_555
C80 C79 1_555 1_555
C81 C80 1_555 1_555
C82 C81 1_555 1_555
C83 C82 1_555 1_555
C84 C83 1_555 1_555
C85 C80 1_555 1_555
C86 C83 1_555 1_555
C87 C86 1_555 1_555
C88 C87 1_555 1_555
C89 C88 1_555 1_555
C90 C89 1_555 1_555
C91 C90 1_555 1_555
C92 C91 1_555 1_555
C93 C88 1_555 1_555
O22 C89 1_555 1_555
C94 O22 1_555 1_555
O23 C92 1_555 1_555
C95 O23 1_555 1_555
C96 C91 1_555 1_555
C97 C96 1_555 1_555
C98 C97 1_555 1_555
C99 C98 1_555 1_555
C100 C99 1_555 1_555
C101 C100 1_555 1_555
C102 C101 1_555 1_555
C103 C98 1_555 1_555
C104 C101 1_555 1_555
O24 C104 1_555 1_555
O25 C104 1_555 1_555
Zn4 O1 1_555 1_555
O26 Zn5 1_555 1_555
Zn5 O6 1_555 1_555
O27 Zn5 1_555 1_555
O28 C105 1_555 1_555
C105 O27 1_555 1_555
C106 C105 1_555 1_555
C107 C106 1_555 1_555
C108 C107 1_555 1_555
C109 C108 1_555 1_555
C110 C109 1_555 1_555
C111 C106 1_555 1_555
C112 C109 1_555 1_555
C113 C112 1_555 1_555
C114 C113 1_555 1_555
C115 C114 1_555 1_555
C116 C115 1_555 1_555
C117 C116 1_555 1_555
C118 C117 1_555 1_555
C119 C114 1_555 1_555
O29 C116 1_555 1_555
C120 O29 1_555 1_555
O30 C119 1_555 1_555
C121 O30 1_555 1_555
C122 C117 1_555 1_555
C123 C122 1_555 1_555
C124 C123 1_555 1_555
C125 C124 1_555 1_555
C126 C125 1_555 1_555
C127 C126 1_555 1_555
C128 C127 1_555 1_555
C129 C124 1_555 1_555
C130 O31 1_555 1_555
O31 Zn7_2 1_555 1_555
O32 C130 1_555 1_555
O33 Zn5 1_555 1_555
O34 C131 1_555 1_555
C131 O33 1_555 1_555
C132 C131 1_555 1_555
C133 C132 1_555 1_555
C134 C133 1_555 1_555
C135 C134 1_555 1_555
C136 C135 1_555 1_555
C137 C132 1_555 1_555
C138 C135 1_555 1_555
C139 C138 1_555 1_555
C140 C139 1_555 1_555
C141 C140 1_555 1_555
C142 C141 1_555 1_555
C143 C142 1_555 1_555
C144 C143 1_555 1_555
C145 C140 1_555 1_555
O35 C141 1_555 1_555
C146 O35 1_555 1_555
O36 C144 1_555 1_555
C147 O36 1_555 1_555
C148 C143 1_555 1_555
C149 C148 1_555 1_555
C150 C149 1_555 1_555
C151 C150 1_555 1_555
C152 C151 1_555 1_555
C153 C152 1_555 1_555
C154 C153 1_555 1_555
C155 C150 1_555 1_555
C156 C153 1_555 1_555
O37 C156 1_555 1_555
O38 C156 1_555 1_555
Zn6 O24 1_555 1_555
Zn7 O25 1_555 1_555
Zn8 O7 1_555 1_555
O39 Zn9 1_555 1_555
Zn9 O40 1_555 1_555
O40 C157 1_555 1_555
O41 C157 1_555 1_555
C157 C161 1_555 1_555
C158 C159 1_555 1_555
C159 C160 1_555 1_555
C160 C161 1_555 1_555
C161 C162 1_555 1_555
C162 C163 1_555 1_555
C163 C158 1_555 1_555
C164 C158 1_555 1_555
C165 C164 1_555 1_555
C166 C167 1_555 1_555
C167 C168 1_555 1_555
C168 C169 1_555 1_555
C169 C165 1_555 1_555
C170 C169 1_555 1_555
C171 C166 1_555 1_555
O42 C167 1_555 1_555
O43 C170 1_555 1_555
C172 O42 1_555 1_555
C173 O43 1_555 1_555
C174 C166 1_555 1_555
C175 C174 1_555 1_555
C176 C177 1_555 1_555
C177 C178 1_555 1_555
C178 C179 1_555 1_555
C179 C175 1_555 1_555
C180 C179 1_555 1_555
C181 C176 1_555 1_555
C182 C176 1_555 1_555
O44 C182 1_555 1_555
O45 C182 1_555 1_555
O46 Zn9 1_555 1_555
O47 C183 1_555 1_555
C183 O46 1_555 1_555
C184 C183 1_555 1_555
C185 C184 1_555 1_555
C186 C185 1_555 1_555
C187 C186 1_555 1_555
C188 C187 1_555 1_555
C189 C184 1_555 1_555
C190 C187 1_555 1_555
C191 C190 1_555 1_555
C192 C191 1_555 1_555
C193 C192 1_555 1_555
C194 C193 1_555 1_555
C195 C194 1_555 1_555
C196 C195 1_555 1_555
C197 C192 1_555 1_555
O48 C193 1_555 1_555
C198 O48 1_555 1_555
O49 C196 1_555 1_555
C199 O49 1_555 1_555
C200 C195 1_555 1_555
C201 C200 1_555 1_555
C202 C201 1_555 1_555
C203 C202 1_555 1_555
C204 C203 1_555 1_555
C205 C204 1_555 1_555
C206 C205 1_555 1_555
C207 C202 1_555 1_555
C208 C205 1_555 1_555
O50 C208 1_555 1_555
O51 C208 1_555 1_555
O52 Zn9 1_555 1_555
O53 C209 1_555 1_555
C209 O52 1_555 1_555
C210 C209 1_555 1_555
C211 C210 1_555 1_555
C212 C211 1_555 1_555
C213 C212 1_555 1_555
C214 C213 1_555 1_555
C215 C210 1_555 1_555
C216 C213 1_555 1_555
C217 C216 1_555 1_555
C218 C219 1_555 1_555
C219 C220 1_555 1_555
C220 C221 1_555 1_555
C221 C217 1_555 1_555
C222 C221 1_555 1_555
C223 C218 1_555 1_555
O54 C219 1_555 1_555
C224 O54 1_555 1_555
O55 C222 1_555 1_555
C225 O55 1_555 1_555
C226 C218 1_555 1_555
C227 C226 1_555 1_555
C228 C227 1_555 1_555
C229 C228 1_555 1_555
C230 C229 1_555 1_555
C231 C230 1_555 1_555
C232 C231 1_555 1_555
C233 C228 1_555 1_555
C234 O56 1_555 1_555
O56 Zn10 1_555 1_555
O57 C234 1_555 1_555
Zn10 O39 1_555 1_555
Zn11 O39 1_555 1_555
Zn12 O39 1_555 1_555
O58 Zn13 1_555 1_555
Zn13 O44 1_555 1_555
O59 Zn13 1_555 1_555
O60 C235 1_555 1_555
C235 O59 1_555 1_555
C236 C235 1_555 1_555
C237 C236 1_555 1_555
C238 C237 1_555 1_555
C239 C238 1_555 1_555
C240 C239 1_555 1_555
C241 C236 1_555 1_555
C242 C239 1_555 1_555
C243 C242 1_555 1_555
C244 C243 1_555 1_555
C245 C244 1_555 1_555
C246 C245 1_555 1_555
C247 C246 1_555 1_555
C248 C247 1_555 1_555
C249 C244 1_555 1_555
O61 C245 1_555 1_555
C250 O61 1_555 1_555
O62 C248 1_555 1_555
C251 O62 1_555 1_555
C252 C247 1_555 1_555
C253 C252 1_555 1_555
C254 C253 1_555 1_555
C255 C254 1_555 1_555
C256 C255 1_555 1_555
C257 C256 1_555 1_555
C258 C257 1_555 1_555
C259 C254 1_555 1_555
C260 C257 1_555 1_555
O63 C260 1_555 1_555
O64 C260 1_555 1_555
Zn14 O45 1_555 1_555
O65 Zn14 1_555 1_555
O66 C261 1_555 1_555
C261 O65 1_555 1_555
C262 C263 1_555 1_555
C263 C264 1_555 1_555
C264 C265 1_555 1_555
C265 C261 1_555 1_555
C266 C265 1_555 1_555
C267 C262 1_555 1_555
C268 C262 1_555 1_555
C269 C268 1_555 1_555
C270 C271 1_555 1_555
C271 C272 1_555 1_555
C272 C273 1_555 1_555
C273 C269 1_555 1_555
C274 C273 1_555 1_555
C275 C270 1_555 1_555
O67 C271 1_555 1_555
C276 O67 1_555 1_555
O68 C274 1_555 1_555
C277 O68 1_555 1_555
C278 C270 1_555 1_555
C279 C278 1_555 1_555
C280 C281 1_555 1_555
C281 C282 1_555 1_555
C282 C283 1_555 1_555
C283 C279 1_555 1_555
C284 C283 1_555 1_555
C285 C280 1_555 1_555
C286 C280 1_555 1_555
O69 Zn13 1_555 1_555
O70 C286 1_555 1_555
Zn15 O58 1_555 1_555
O71 Zn15 1_555 1_555
O72 C287 1_555 1_555
C287 O71 1_555 1_555
C288 C289 1_555 1_555
C289 C290 1_555 1_555
C290 C291 1_555 1_555
C291 C287 1_555 1_555
C292 C291 1_555 1_555
C293 C288 1_555 1_555
C294 C288 1_555 1_555
C295 C294 1_555 1_555
C296 C297 1_555 1_555
C297 C298 1_555 1_555
C298 O73 1_555 1_555
O73 C299 1_555 1_555
C300 C295 1_555 1_555
C301 C300 1_555 1_555
C302 C296 1_555 1_555
O74 C302 1_555 1_555
C303 O74 1_555 1_555
C304 C296 1_555 1_555
C305 C304 1_555 1_555
C306 C307 1_555 1_555
C307 C308 1_555 1_555
C308 C309 1_555 1_555
C309 C305 1_555 1_555
C310 C309 1_555 1_555
C311 C306 1_555 1_555
C312 C306 1_555 1_555
O75 C312 1_555 1_555
O76 C312 1_555 1_555
Zn16 O58 1_555 1_555
O12_2 Zn2 1_555 1_555
O13_2 Zn4 1_555 1_555
O18_2 Zn2 1_555 1_555
O19_2 Zn3 1_555 1_555
Zn2_2 O12 1_555 1_555
Zn2_3 O18 1_555 1_555
Zn3_2 O19 1_555 1_555
Zn4_2 O13 1_555 1_555
O26_2 Zn6 1_555 1_555
O28_2 Zn6 1_555 1_555
O31_2 Zn7 1_555 1_555
O34_2 Zn7 1_555 1_555
O37_2 Zn6 1_555 1_555
O38_2 Zn8 1_555 1_555
Zn6_2 O26 1_555 1_555
Zn6_3 O37 1_555 1_555
Zn7_2 O26 1_555 1_555
Zn8_2 O38 1_555 1_555
O45_2 Zn14_2 1_555 1_555
O50_2 Zn10 1_555 1_555
O51_2 Zn12 1_555 1_555
Zn10_2 O50 1_555 1_555
Zn11_2 O75 1_555 1_555
Zn12_2 O51 1_555 1_555
Zn12_3 O76 1_555 1_555
O58_2 Zn14_2 1_555 1_555
O58_3 Zn13_2 1_555 1_555
Zn13_2 O69_2 1_555 1_555
C260_2 O63_2 1_555 1_555
O63_2 Zn14 1_555 1_555
O64_2 Zn16 1_555 1_555
O64_3 Zn16_3 1_555 1_555
Zn14_2 O63 1_555 1_555
O65_2 Zn14_2 1_555 1_555
C280_2 C286_2 1_555 1_555
C286_2 O69 1_555 1_555
O69_2 C286 1_555 1_555
O70_2 Zn16 1_555 1_555
O70_3 Zn16_2 1_555 1_555
O72_2 Zn16_2 1_555 1_555
O72_3 Zn16_3 1_555 1_555
O75_2 Zn11 1_555 1_555
O76_2 Zn12 1_555 1_555
Zn16_2 O64 1_555 1_555
Zn16_3 O70 1_555 1_555
O3 Zn2 1_555 1_555
C14 C15 1_555 1_555
C24 C25 1_555 1_555
O9 Zn3 1_555 1_555
C32 C33 1_555 1_555
C40 C41 1_555 1_555
C50 C51 1_555 1_555
O15 Zn4 1_555 1_555
C58 C59 1_555 1_555
C66 C67 1_555 1_555
C76 C77 1_555 1_555
O21 Zn4 1_555 1_555
C84 C85 1_555 1_555
C92 C93 1_555 1_555
C102 C103 1_555 1_555
O26 Zn8 1_555 1_555
O28 Zn6_2 1_555 1_555
C110 C111 1_555 1_555
C118 C119 1_555 1_555
C128 C129 1_555 1_555
O32 Zn8 1_555 1_555
O34 Zn7_2 1_555 1_555
C136 C137 1_555 1_555
C144 C145 1_555 1_555
C154 C155 1_555 1_555
Zn7 O26_2 1_555 1_555
O41 Zn10 1_555 1_555
C170 C171 1_555 1_555
C180 C181 1_555 1_555
O47 Zn11 1_555 1_555
C188 C189 1_555 1_555
C196 C197 1_555 1_555
C206 C207 1_555 1_555
O53 Zn12 1_555 1_555
C214 C215 1_555 1_555
C222 C223 1_555 1_555
C232 C233 1_555 1_555
O57 Zn11 1_555 1_555
O58 Zn14 1_555 1_555
O60 Zn15 1_555 1_555
C240 C241 1_555 1_555
C248 C249 1_555 1_555
C258 C259 1_555 1_555
O66 Zn15 1_555 1_555
C266 C267 1_555 1_555
C274 C275 1_555 1_555
C284 C285 1_555 1_555
O72 Zn16 1_555 1_555
C292 C293 1_555 1_555
C298 C300 1_555 1_555
C301 C302 1_555 1_555
C310 C311 1_555 1_555
O58_2 Zn16_2 1_555 1_555
O58_3 Zn16_3 1_555 1_555
C260_2 O64_2 1_555 1_555
C286_2 O70_2 1_555 1_555

#END
