
#######################################################################
#
#                 Cambridge Crystallographic Data Centre
#                                CCDC 
#
#######################################################################
#
# If this CIF has been generated from an entry in the Cambridge 
# Structural Database, then it will include bibliographic, chemical, 
# crystal, experimental, refinement or atomic coordinate data resulting 
# from the CCDC's data processing and validation procedures.
#
#######################################################################

data_LETPUX01
_chemical_formula_moiety         '(C7 H22 F2 Ga2 N1 O46 P14 Zn9 6-)n'
_symmetry_cell_setting           tetragonal
_symmetry_space_group_name_H-M   'I 41/a m d'
_symmetry_Int_Tables_number      141
_space_group_name_Hall           '-I 4bd 2'
loop_
_symmetry_equiv_pos_site_id
_symmetry_equiv_pos_as_xyz
1 x,y,z
2 1/2-x,-y,1/2+z
3 1/4-y,3/4+x,1/4+z
4 1/4+y,1/4-x,3/4+z
5 1/2-x,y,1/2-z
6 x,-y,-z
7 1/4+y,3/4+x,1/4-z
8 1/4-y,1/4-x,3/4-z
9 1/2+x,1/2+y,1/2+z
10 -x,1/2-y,z
11 3/4-y,1/4+x,3/4+z
12 3/4+y,3/4-x,1/4+z
13 -x,1/2+y,-z
14 1/2+x,1/2-y,1/2-z
15 3/4+y,1/4+x,3/4-z
16 3/4-y,3/4-x,1/4-z
17 -x,-y,-z
18 1/2+x,y,1/2-z
19 3/4+y,1/4-x,3/4-z
20 3/4-y,3/4+x,1/4-z
21 1/2+x,-y,1/2+z
22 -x,y,z
23 3/4-y,1/4-x,3/4+z
24 3/4+y,3/4+x,1/4+z
25 1/2-x,1/2-y,1/2-z
26 x,1/2+y,-z
27 1/4+y,3/4-x,1/4-z
28 1/4-y,1/4+x,3/4-z
29 x,1/2-y,z
30 1/2-x,1/2+y,1/2+z
31 1/4-y,3/4-x,1/4+z
32 1/4+y,1/4+x,3/4+z
_cell_length_a                   48.3931(8)
_cell_length_b                   48.3931(8)
_cell_length_c                   9.9998(2)
_cell_angle_alpha                90
_cell_angle_beta                 90
_cell_angle_gamma                90
_cell_volume                     23418.5
loop_
_atom_site_label
_atom_site_type_symbol
_atom_site_fract_x
_atom_site_fract_y
_atom_site_fract_z
N1 N 0.3513(5) 0.5399(3) 0.065(3)
C1 C 0.3445(3) 0.5687(3) 0.117(2)
C2 C 0.3661(3) 0.5890(2) 0.0842(18)
C3 C 0.3601(5) 0.6183(3) 0.124(5)
C4 C 0.3839(7) 0.6361(5) 0.087(5)
C5 C 0.3764(10) 0.6656(6) 0.108(5)
C6 C 0.3852(12) 0.6836(10) 0.221(6)
C7 C 0.3775(14) 0.7087(10) 0.300(8)
Ga1 Ga 0.2500 0.462900(12) 0.2500
Zn1 Zn 0.374906(11) 0.482058(15) 0.32751(6)
Zn2 Zn 0.5000 0.5000 0.5000
Zn3 Zn 0.438702(11) 0.522117(16) 0.17014(6)
P1 P 0.310859(18) 0.48433(2) 0.28188(9)
P2 P 0.40039(2) 0.53913(3) 0.39899(12)
P3 P 0.5000 0.53479(4) 0.21515(15)
P4 P 0.41595(2) 0.53755(3) -0.10967(13)
O1 O 0.28832(5) 0.46271(5) 0.2983(3)
O2 O 0.31535(5) 0.49329(5) 0.1363(3)
O3 O 0.33696(6) 0.47337(8) 0.3441(3)
O4 O 0.42974(6) 0.53456(9) 0.3494(3)
O5 O 0.37941(7) 0.52221(8) 0.3214(4)
O6 O 0.39928(7) 0.53549(9) 0.5478(4)
O7 O 0.5000 0.51050(11) 0.3084(4)
O8 O 0.47514(6) 0.53522(10) 0.1265(4)
O9 O 0.38697(7) 0.53156(11) -0.1552(3)
O10 O 0.41589(7) 0.53949(9) 0.0397(4)
O11 O 0.43787(7) 0.51828(8) -0.1668(4)
O12 O 0.46713(7) 0.52897(8) 0.5552(4)
F1 F 0.24263(4) 0.49263(4) 0.3750
H1 H 0.2999 0.5096 0.3732
H2 H 0.3919 0.5679 0.3747
H3 H 0.4213 0.5611 -0.1787
H4 H 0.5000 0.5577 0.2881
Ga1Q Ga 0.7500 0.462900(12) 0.2500
Ga1J Ga 0.287100(12) 0.5000 0.0000
Ga1K Ga 0.212900(12) 0.5000 0.5000
Ga1Z Ga 0.712900(12) 0.5000 0.0000
Ga1A Ga 0.2500 0.537100(12) 0.7500
Ga1J_2 Ga 0.287100(12) 0.5000 1.0000
Ga1P Ga 0.7500 0.537100(12) 0.7500
Ga1Z_2 Ga 0.712900(12) 0.5000 1.0000
Zn1U Zn 0.625094(11) 0.482058(15) 0.32751(6)
Zn1E Zn 0.374906(11) 0.517942(15) 0.67249(6)
Zn1P Zn 0.625094(11) 0.517942(15) 0.67249(6)
Zn1E_2 Zn 0.374906(11) 0.517942(15) -0.32751(6)
Zn1P_2 Zn 0.625094(11) 0.517942(15) -0.32751(6)
Zn3U Zn 0.561298(11) 0.522117(16) 0.17014(6)
Zn3E Zn 0.438702(11) 0.477883(16) 0.82986(6)
Zn3P Zn 0.561298(11) 0.477883(16) 0.82986(6)
Zn3E_2 Zn 0.438702(11) 0.477883(16) -0.17014(6)
Zn3P_2 Zn 0.561298(11) 0.477883(16) -0.17014(6)
P1U P 0.689141(18) 0.48433(2) 0.28188(9)
P1E P 0.310859(18) 0.51567(2) 0.71812(9)
P1P P 0.689141(18) 0.51567(2) 0.71812(9)
P2U P 0.59961(2) 0.53913(3) 0.39899(12)
P2E P 0.40039(2) 0.46087(3) 0.60101(12)
P2P P 0.59961(2) 0.46087(3) 0.60101(12)
P3E P 0.5000 0.46521(4) 0.78485(15)
P4E P 0.41595(2) 0.46245(3) 0.10967(13)
P4U P 0.58405(2) 0.53755(3) -0.10967(13)
P4P P 0.58405(2) 0.46245(3) 0.10967(13)
O1U O 0.71168(5) 0.46271(5) 0.2983(3)
O1E O 0.28832(5) 0.53729(5) 0.7017(3)
O1P O 0.71168(5) 0.53729(5) 0.7017(3)
O1D O 0.21168(5) 0.46271(5) 0.2017(3)
O1Q O 0.78832(5) 0.46271(5) 0.2017(3)
O2U O 0.68465(5) 0.49329(5) 0.1363(3)
O2E O 0.31535(5) 0.50671(5) 0.8637(3)
O2P O 0.68465(5) 0.50671(5) 0.8637(3)
O2K O 0.24329(5) 0.43465(5) 0.3863(3)
O2O O 0.25671(5) 0.43465(5) 0.1137(3)
O2DA O 0.75671(5) 0.43465(5) 0.3863(3)
O2Z O 0.74329(5) 0.43465(5) 0.1137(3)
O3U O 0.66304(6) 0.47337(8) 0.3441(3)
O3E O 0.33696(6) 0.52663(8) 0.6559(3)
O3P O 0.66304(6) 0.52663(8) 0.6559(3)
O4U O 0.57026(6) 0.53456(9) 0.3494(3)
O4E O 0.42974(6) 0.46544(9) 0.6506(3)
O4P O 0.57026(6) 0.46544(9) 0.6506(3)
O5U O 0.62059(7) 0.52221(8) 0.3214(4)
O5E O 0.37941(7) 0.47779(8) 0.6786(4)
O5P O 0.62059(7) 0.47779(8) 0.6786(4)
O6U O 0.60072(7) 0.53549(9) 0.5478(4)
O6E O 0.39928(7) 0.46451(9) 0.4522(4)
O6P O 0.60072(7) 0.46451(9) 0.4522(4)
O7E O 0.5000 0.48950(11) 0.6916(4)
O8U O 0.52486(6) 0.53522(10) 0.1265(4)
O8E O 0.47514(6) 0.46478(10) 0.8735(4)
O8P O 0.52486(6) 0.46478(10) 0.8735(4)
O9E O 0.38697(7) 0.46844(11) 0.1552(3)
O9U O 0.61303(7) 0.53156(11) -0.1552(3)
O9P O 0.61303(7) 0.46844(11) 0.1552(3)
O9_2 O 0.38697(7) 0.53156(11) 0.8448(3)
O9U_2 O 0.61303(7) 0.53156(11) 0.8448(3)
O10E O 0.41589(7) 0.46051(9) -0.0397(4)
O10U O 0.58411(7) 0.53949(9) 0.0397(4)
O10P O 0.58411(7) 0.46051(9) -0.0397(4)
O10E_2 O 0.41589(7) 0.46051(9) 0.9603(4)
O10P_2 O 0.58411(7) 0.46051(9) 0.9603(4)
O11E O 0.43787(7) 0.48172(8) 0.1668(4)
O11U O 0.56213(7) 0.51828(8) -0.1668(4)
O11P O 0.56213(7) 0.48172(8) 0.1668(4)
O11_2 O 0.43787(7) 0.51828(8) 0.8332(4)
O11U_2 O 0.56213(7) 0.51828(8) 0.8332(4)
O12E O 0.46713(7) 0.47103(8) 0.4448(4)
O12P O 0.53287(7) 0.47103(8) 0.4448(4)
O12U O 0.53287(7) 0.52897(8) 0.5552(4)
F1D F 0.25737(4) 0.49263(4) 0.1250
F1U F 0.75737(4) 0.49263(4) 0.3750
F1Q F 0.74263(4) 0.49263(4) 0.1250
H1U H 0.7001 0.5096 0.3732
H1E H 0.2999 0.4904 0.6268
H1P H 0.7001 0.4904 0.6268
H2U H 0.6081 0.5679 0.3747
H2E H 0.3919 0.4321 0.6253
H2P H 0.6081 0.4321 0.6253
H3E H 0.4213 0.4389 0.1787
H3U H 0.5787 0.5611 -0.1787
H3P H 0.5787 0.4389 0.1787
H4E H 0.5000 0.4423 0.7119
loop_
_geom_bond_atom_site_label_1
_geom_bond_atom_site_label_2
_geom_bond_site_symmetry_1
_geom_bond_site_symmetry_2
Ga1 O1 1_555 1_555
Zn1 O3 1_555 1_555
Zn2 O7 1_555 1_555
Zn3 O4 1_555 1_555
P1 O1 1_555 1_555
P2 O4 1_555 1_555
P3 O7 1_555 1_555
P4 O9 1_555 1_555
O2 P1 1_555 1_555
O3 P1 1_555 1_555
O5 Zn1 1_555 1_555
O6 P2 1_555 1_555
O8 Zn3 1_555 1_555
O9 Zn1E_2 1_555 1_555
O10 Zn3 1_555 1_555
O11 P4 1_555 1_555
O12 Zn2 1_555 1_555
F1 Ga1 1_555 1_555
H1 P1 1_555 1_555
H2 P2 1_555 1_555
H3 P4 1_555 1_555
H4 P3 1_555 1_555
N1 C1 1_555 1_555
C1 C2 1_555 1_555
C2 C3 1_555 1_555
C3 C4 1_555 1_555
C4 C5 1_555 1_555
C5 C6 1_555 1_555
C6 C7 1_555 1_555
Ga1Q O1U 1_555 1_555
Ga1J O2 1_555 1_555
Ga1K F1 1_555 1_555
Ga1Z O2U 1_555 1_555
Ga1A O1E 1_555 1_555
Ga1J_2 O2E 1_555 1_555
Ga1P O1P 1_555 1_555
Ga1Z_2 O2P 1_555 1_555
Zn1U O3U 1_555 1_555
Zn1E O6 1_555 1_555
Zn1P O3P 1_555 1_555
Zn1P_2 O9U 1_555 1_555
Zn3U O4U 1_555 1_555
Zn3E O4E 1_555 1_555
Zn3P O4P 1_555 1_555
Zn3E_2 O11 1_555 1_555
Zn3P_2 O10P 1_555 1_555
P1U O1U 1_555 1_555
P1E O1E 1_555 1_555
P1P O1P 1_555 1_555
P2U O4U 1_555 1_555
P2E O4E 1_555 1_555
P2P O4P 1_555 1_555
P3E O7E 1_555 1_555
P4E O9E 1_555 1_555
P4U O9U 1_555 1_555
P4P O9P 1_555 1_555
O1D Ga1 1_555 1_555
O1Q Ga1Q 1_555 1_555
O2U P1U 1_555 1_555
O2E P1E 1_555 1_555
O2P P1P 1_555 1_555
O2K Ga1 1_555 1_555
O2O Ga1 1_555 1_555
O2DA Ga1Q 1_555 1_555
O2Z Ga1Q 1_555 1_555
O3U P1U 1_555 1_555
O3E Zn1E 1_555 1_555
O3P P1P 1_555 1_555
O5U Zn1U 1_555 1_555
O5E Zn1E 1_555 1_555
O5P Zn1P 1_555 1_555
O6U Zn1P 1_555 1_555
O6E Zn1 1_555 1_555
O6P Zn1U 1_555 1_555
O7E Zn2 1_555 1_555
O8U P3 1_555 1_555
O8E Zn3E 1_555 1_555
O8P Zn3P 1_555 1_555
O9E Zn1 1_555 1_555
O9P Zn1U 1_555 1_555
O9_2 Zn1E 1_555 1_555
O9U_2 Zn1P 1_555 1_555
O10E Zn3E_2 1_555 1_555
O10U Zn3U 1_555 1_555
O10P P4P 1_555 1_555
O10E_2 Zn3E 1_555 1_555
O10P_2 Zn3P 1_555 1_555
O11E Zn3 1_555 1_555
O11U Zn3P_2 1_555 1_555
O11P Zn3U 1_555 1_555
O11_2 Zn3E 1_555 1_555
O11U_2 Zn3P 1_555 1_555
O12E Zn2 1_555 1_555
O12P Zn2 1_555 1_555
O12U Zn2 1_555 1_555
F1D Ga1 1_555 1_555
F1U Ga1Q 1_555 1_555
F1Q Ga1Q 1_555 1_555
H1U P1U 1_555 1_555
H1E P1E 1_555 1_555
H1P P1P 1_555 1_555
H2U P2U 1_555 1_555
H2E P2E 1_555 1_555
H2P P2P 1_555 1_555
H3E P4E 1_555 1_555
H3U P4U 1_555 1_555
H3P P4P 1_555 1_555
H4E P3E 1_555 1_555
P2 O5 1_555 1_555
P3 O8 1_555 1_555
P4 O10 1_555 1_555
Ga1J F1D 1_555 1_555
Ga1Z F1Q 1_555 1_555
Zn3U O8U 1_555 1_555
P1E O3E 1_555 1_555
P2U O5U 1_555 1_555
P2U O6U 1_555 1_555
P2E O5E 1_555 1_555
P2E O6E 1_555 1_555
P2P O5P 1_555 1_555
P2P O6P 1_555 1_555
P3E O8E 1_555 1_555
P3E O8P 1_555 1_555
P4E O10E 1_555 1_555
P4E O11E 1_555 1_555
P4U O10U 1_555 1_555
P4U O11U 1_555 1_555
P4P O11P 1_555 1_555

#END
