
#######################################################################
#
#                 Cambridge Crystallographic Data Centre
#                                CCDC 
#
#######################################################################
#
# If this CIF has been generated from an entry in the Cambridge 
# Structural Database, then it will include bibliographic, chemical, 
# crystal, experimental, refinement or atomic coordinate data resulting 
# from the CCDC's data processing and validation procedures.
#
#######################################################################

data_LETRAF
_chemical_formula_moiety         'H46 F6 Ga8 O189 P46 Zn51'
_symmetry_cell_setting           orthorhombic
_symmetry_space_group_name_H-M   'C m c a'
_symmetry_Int_Tables_number      64
_space_group_name_Hall           '-C 2ac 2'
loop_
_symmetry_equiv_pos_site_id
_symmetry_equiv_pos_as_xyz
1 x,y,z
2 -x,1/2-y,1/2+z
3 -x,1/2+y,1/2-z
4 x,-y,-z
5 1/2+x,1/2+y,z
6 1/2-x,-y,1/2+z
7 1/2-x,y,1/2-z
8 1/2+x,1/2-y,-z
9 -x,-y,-z
10 x,1/2+y,1/2-z
11 x,1/2-y,1/2+z
12 -x,y,z
13 1/2-x,1/2-y,-z
14 1/2+x,y,1/2-z
15 1/2+x,-y,1/2+z
16 1/2-x,1/2+y,z
_cell_length_a                   84.043(2)
_cell_length_b                   66.298(2)
_cell_length_c                   10.0356(4)
_cell_angle_alpha                90
_cell_angle_beta                 90
_cell_angle_gamma                90
_cell_volume                     55917.2
loop_
_atom_site_label
_atom_site_type_symbol
_atom_site_fract_x
_atom_site_fract_y
_atom_site_fract_z
Ga1 Ga 0.2500 -0.02714(2) -0.2500
Ga2 Ga 0.228550(16) 0.0000 0.0000
Zn1 Zn 0.141120(14) -0.01634(3) 0.17131(15)
Zn2 Zn 0.177800(14) -0.01323(2) -0.32629(14)
Zn3 Zn 0.260260(18) -0.09143(2) -0.57584(14)
Zn4 Zn 0.26300(2) -0.13803(2) -1.07846(15)
Zn5 Zn 0.070690(18) -0.01510(5) 0.1636(2)
Zn6 Zn 0.035140(19) -0.01512(5) -0.3364(2)
Zn7 Zn 0.26199(3) -0.22750(3) -1.0859(2)
Zn8 Zn 0.2500 -0.18271(3) -0.7500
Zn9 Zn 0.0000 0.0000 0.0000
Zn10 Zn 0.10596(2) 0.0000 0.5000
P1 P 0.25909(4) -0.04454(6) -0.5265(4)
P2 P 0.10566(5) -0.02462(7) 0.2182(4)
P3 P 0.27254(4) -0.10930(7) -0.8519(5)
P4 P 0.15423(4) -0.02740(6) -0.1079(5)
P5 P 0.16367(4) -0.02892(6) 0.3974(5)
P6 P 0.26965(5) -0.18321(8) -1.0300(5)
P7 P 0.27157(5) -0.12174(7) -0.3571(5)
P8 P 0.05761(6) -0.02827(9) -0.1038(7)
P9 P 0.04834(6) -0.02795(10) -0.6056(7)
P10 P 0.21485(4) -0.01148(5) -0.2774(4)
P11 P 0.22820(7) -0.24396(10) -1.1409(6)
P12 P 0.0000 -0.02516(12) -0.2788(7)
O1 O 0.27149(6) -0.02783(9) -0.5469(5)
O2 O 0.25394(6) -0.04756(8) -0.3807(6)
O3 O 0.26561(8) -0.06396(12) -0.5857(6)
O4 O 0.12011(8) -0.02556(11) 0.1345(7)
O5 O 0.09190(9) -0.02416(16) 0.1266(9)
O6 O 0.10605(8) -0.00758(15) 0.3078(8)
O7 O 0.27076(8) -0.10896(10) -0.7017(9)
O8 O 0.27005(8) -0.13070(13) -0.8999(6)
O9 O 0.26275(9) -0.09375(10) -0.9257(7)
O10 O 0.15393(7) -0.02859(11) 0.0429(8)
O11 O 0.17047(8) -0.02207(12) -0.1494(6)
O12 O 0.14149(8) -0.01293(13) -0.1634(7)
O13 O 0.14672(8) -0.02486(10) 0.3470(6)
O14 O 0.17559(8) -0.01684(12) 0.3286(7)
O15 O 0.16417(7) -0.02625(11) 0.5442(10)
O16 O 0.27009(8) -0.16431(15) -1.1153(8)
O17 O 0.26901(11) -0.20049(15) -1.1251(9)
O18 O 0.25630(10) -0.18266(10) -0.9434(7)
O19 O 0.26750(8) -0.10117(14) -0.3971(6)
O20 O 0.26023(10) -0.13774(11) -0.4145(7)
O21 O 0.27268(8) -0.12149(10) -0.2067(8)
O22 O 0.05671(10) -0.02768(16) 0.0424(11)
O23 O 0.04080(10) -0.02341(16) -0.1569(10)
O24 O 0.07019(11) -0.0140(3) -0.1572(10)
O25 O 0.04878(10) -0.02848(16) -0.4585(13)
O26 O 0.03525(11) -0.0135(2) -0.6616(10)
O27 O 0.06469(10) -0.02415(15) -0.6554(8)
O28 O 0.19974(7) -0.01967(10) -0.3364(6)
O29 O 0.22792(6) -0.02752(8) -0.2967(5)
O30 O 0.21246(5) -0.00522(8) -0.1325(6)
O31 O 0.23918(16) -0.22750(14) -1.0883(9)
O32 O 0.23092(11) -0.26493(17) -1.0937(8)
O33 O 0.22782(11) -0.24480(13) -1.2862(13)
O34 O 0.01397(9) -0.02381(17) -0.3720(10)
O35 O -0.0000 -0.0063(2) -0.1986(14)
O36 O 0.26685(8) -0.15855(10) -0.6935(6)
O37 O 0.23261(9) -0.20713(11) -0.8050(7)
O38 O 0.01942(8) 0.02273(16) -0.0557(8)
O39 O 0.08654(8) -0.02124(13) 0.5530(7)
O40 O 0.12513(7) -0.02179(12) 0.5600(7)
F1 F 0.25406(4) -0.00508(6) -0.3756(4)
H1 H 0.2446 -0.0393 -0.6149
H2 H 0.1043 -0.0460 0.3039
H3 H 0.2902 -0.1047 -0.8844
H4 H 0.1497 -0.0503 -0.1539
H5 H 0.1681 -0.0527 0.3654
H6 H 0.2872 -0.1853 -0.9469
H7 H 0.2873 -0.1247 -0.4327
H8 H 0.0626 -0.0509 -0.1607
H9 H 0.0433 -0.0523 -0.6804
H10 H 0.2190 0.0098 -0.3630
H11 H 0.2132 -0.2373 -1.0736
H12 H 0.0000 -0.0503 -0.2033
Ga1C Ga 0.2500 0.02714(2) 0.2500
Ga1K Ga -0.2500 -0.02714(2) -0.2500
Ga1H Ga -0.2500 0.02714(2) 0.2500
Ga2H Ga -0.228550(16) 0.0000 0.0000
Ga2E Ga 0.271450(16) -0.0000 -0.5000
Ga2E_2 Ga 0.271450(16) 0.0000 0.5000
Zn1K Zn -0.141120(14) -0.01634(3) 0.17131(15)
Zn1C Zn 0.141120(14) 0.01634(3) -0.17131(15)
Zn1H Zn -0.141120(14) 0.01634(3) -0.17131(15)
Zn2C Zn 0.177800(14) 0.01323(2) 0.32629(14)
Zn2K Zn -0.177800(14) -0.01323(2) -0.32629(14)
Zn2H Zn -0.177800(14) 0.01323(2) 0.32629(14)
Zn2_2 Zn 0.177800(14) -0.01323(2) 0.67371(14)
Zn2K_2 Zn -0.177800(14) -0.01323(2) 0.67371(14)
Zn2C_2 Zn 0.177800(14) 0.01323(2) -0.67371(14)
Zn2H_2 Zn -0.177800(14) 0.01323(2) -0.67371(14)
Zn3F Zn 0.239740(18) -0.09143(2) 0.07584(14)
Zn3E Zn 0.239740(18) 0.09143(2) -0.07584(14)
Zn3C Zn 0.260260(18) 0.09143(2) 0.57584(14)
Zn3F_2 Zn 0.239740(18) -0.09143(2) -0.92416(14)
Zn3_2 Zn 0.260260(18) -0.09143(2) 0.42416(14)
Zn4F Zn 0.23700(2) -0.13803(2) -0.42154(15)
Zn4F_2 Zn 0.23700(2) -0.13803(2) 0.57846(15)
Zn4_2 Zn 0.26300(2) -0.13803(2) -0.07846(15)
Zn4C Zn 0.26300(2) 0.13803(2) 0.07846(15)
Zn4E Zn 0.23700(2) 0.13803(2) 0.42154(15)
Zn5K Zn -0.070690(18) -0.01510(5) 0.1636(2)
Zn5C Zn 0.070690(18) 0.01510(5) -0.1636(2)
Zn5H Zn -0.070690(18) 0.01510(5) -0.1636(2)
Zn5_2 Zn 0.070690(18) -0.01510(5) -0.8364(2)
Zn5K_2 Zn -0.070690(18) -0.01510(5) -0.8364(2)
Zn6K Zn -0.035140(19) -0.01512(5) -0.3364(2)
Zn6C Zn 0.035140(19) 0.01512(5) 0.3364(2)
Zn6H Zn -0.035140(19) 0.01512(5) 0.3364(2)
Zn6C_2 Zn 0.035140(19) 0.01512(5) -0.6636(2)
Zn6H_2 Zn -0.035140(19) 0.01512(5) -0.6636(2)
Zn7F Zn 0.23801(3) -0.22750(3) -0.4141(2)
Zn7F_2 Zn 0.23801(3) -0.22750(3) 0.5859(2)
Zn7_2 Zn 0.26199(3) -0.22750(3) -0.0859(2)
Zn7L Zn 0.23801(3) -0.27250(3) -0.9141(2)
Zn7F_3 Zn 0.23801(3) -0.22750(3) -1.4141(2)
Zn7J Zn 0.26199(3) -0.27250(3) -1.5859(2)
Zn7J_2 Zn 0.26199(3) -0.27250(3) -0.5859(2)
Zn8_2 Zn 0.2500 -0.18271(3) 0.2500
Zn10H Zn -0.10596(2) 0.0000 0.5000
Zn10_2 Zn 0.10596(2) -0.0000 -0.5000
Zn10H_2 Zn -0.10596(2) -0.0000 -0.5000
P1F P 0.24091(4) -0.04454(6) 0.0265(4)
P1E P 0.24091(4) 0.04454(6) -0.0265(4)
P1C P 0.25909(4) 0.04454(6) 0.5265(4)
P2K P -0.10566(5) -0.02462(7) 0.2182(4)
P2C P 0.10566(5) 0.02462(7) -0.2182(4)
P2H P -0.10566(5) 0.02462(7) -0.2182(4)
P3F P 0.22746(4) -0.10930(7) -0.6481(5)
P3F_2 P 0.22746(4) -0.10930(7) 0.3519(5)
P3_2 P 0.27254(4) -0.10930(7) 0.1481(5)
P4C P 0.15423(4) 0.02740(6) 0.1079(5)
P4K P -0.15423(4) -0.02740(6) -0.1079(5)
P4H P -0.15423(4) 0.02740(6) 0.1079(5)
P5K P -0.16367(4) -0.02892(6) 0.3974(5)
P5C P 0.16367(4) 0.02892(6) -0.3974(5)
P5H P -0.16367(4) 0.02892(6) -0.3974(5)
P6F P 0.23035(5) -0.18321(8) -0.4700(5)
P6F_2 P 0.23035(5) -0.18321(8) 0.5300(5)
P6_2 P 0.26965(5) -0.18321(8) -0.0300(5)
P7F P 0.22843(5) -0.12174(7) -0.1429(5)
P7E P 0.22843(5) 0.12174(7) 0.1429(5)
P7C P 0.27157(5) 0.12174(7) 0.3571(5)
P8K P -0.05761(6) -0.02827(9) -0.1038(7)
P8C P 0.05761(6) 0.02827(9) 0.1038(7)
P8H P -0.05761(6) 0.02827(9) 0.1038(7)
P9C P 0.04834(6) 0.02795(10) -0.3944(7)
P9K P -0.04834(6) -0.02795(10) -0.6056(7)
P9H P -0.04834(6) 0.02795(10) -0.3944(7)
P10C P 0.21485(4) 0.01148(5) 0.2774(4)
P10K P -0.21485(4) -0.01148(5) -0.2774(4)
P10H P -0.21485(4) 0.01148(5) 0.2774(4)
P11F P 0.27180(7) -0.24396(10) -1.3591(6)
P11L P 0.27180(7) -0.25604(10) -0.8591(6)
P11F_2 P 0.27180(7) -0.24396(10) -0.3591(6)
P12C P -0.0000 0.02516(12) 0.2788(7)
O1F O 0.22851(6) -0.02783(9) 0.0469(5)
O1E O 0.22851(6) 0.02783(9) -0.0469(5)
O1C O 0.27149(6) 0.02783(9) 0.5469(5)
O1M O -0.22851(6) -0.02783(9) 0.0469(5)
O1N O -0.22851(6) 0.02783(9) -0.0469(5)
O2F O 0.24606(6) -0.04756(8) -0.1193(6)
O2E O 0.24606(6) 0.04756(8) 0.1193(6)
O2C O 0.25394(6) 0.04756(8) 0.3807(6)
O3F O 0.23439(8) -0.06396(12) 0.0857(6)
O3E O 0.23439(8) 0.06396(12) -0.0857(6)
O3C O 0.26561(8) 0.06396(12) 0.5857(6)
O4K O -0.12011(8) -0.02556(11) 0.1345(7)
O4C O 0.12011(8) 0.02556(11) -0.1345(7)
O4H O -0.12011(8) 0.02556(11) -0.1345(7)
O5K O -0.09190(9) -0.02416(16) 0.1266(9)
O5C O 0.09190(9) 0.02416(16) -0.1266(9)
O5H O -0.09190(9) 0.02416(16) -0.1266(9)
O6K O -0.10605(8) -0.00758(15) 0.3078(8)
O6C O 0.10605(8) 0.00758(15) -0.3078(8)
O6H O -0.10605(8) 0.00758(15) -0.3078(8)
O6C_2 O 0.10605(8) 0.00758(15) 0.6922(8)
O6H_2 O -0.10605(8) 0.00758(15) 0.6922(8)
O7F O 0.22924(8) -0.10896(10) -0.7983(9)
O7F_2 O 0.22924(8) -0.10896(10) 0.2017(9)
O7_2 O 0.27076(8) -0.10896(10) 0.2983(9)
O7E O 0.22924(8) 0.10896(10) -0.2017(9)
O7C O 0.27076(8) 0.10896(10) 0.7017(9)
O8F O 0.22995(8) -0.13070(13) -0.6001(6)
O8F_2 O 0.22995(8) -0.13070(13) 0.3999(6)
O8_2 O 0.27005(8) -0.13070(13) 0.1001(6)
O9F O 0.23725(9) -0.09375(10) -0.5743(7)
O9F_2 O 0.23725(9) -0.09375(10) 0.4257(7)
O9_2 O 0.26275(9) -0.09375(10) 0.0743(7)
O9C O 0.26275(9) 0.09375(10) -0.0743(7)
O9E O 0.23725(9) 0.09375(10) 0.5743(7)
O10C O 0.15393(7) 0.02859(11) -0.0429(8)
O10K O -0.15393(7) -0.02859(11) 0.0429(8)
O10H O -0.15393(7) 0.02859(11) -0.0429(8)
O11C O 0.17047(8) 0.02207(12) 0.1494(6)
O11K O -0.17047(8) -0.02207(12) -0.1494(6)
O11H O -0.17047(8) 0.02207(12) 0.1494(6)
O12C O 0.14149(8) 0.01293(13) 0.1634(7)
O12K O -0.14149(8) -0.01293(13) -0.1634(7)
O12H O -0.14149(8) 0.01293(13) 0.1634(7)
O13K O -0.14672(8) -0.02486(10) 0.3470(6)
O13C O 0.14672(8) 0.02486(10) -0.3470(6)
O13H O -0.14672(8) 0.02486(10) -0.3470(6)
O14K O -0.17559(8) -0.01684(12) 0.3286(7)
O14C O 0.17559(8) 0.01684(12) -0.3286(7)
O14H O -0.17559(8) 0.01684(12) -0.3286(7)
O15K O -0.16417(7) -0.02625(11) 0.5442(10)
O15C O 0.16417(7) 0.02625(11) -0.5442(10)
O15H O -0.16417(7) 0.02625(11) -0.5442(10)
O15_2 O 0.16417(7) -0.02625(11) -0.4558(10)
O15C_2 O 0.16417(7) 0.02625(11) 0.4558(10)
O15K_2 O -0.16417(7) -0.02625(11) -0.4558(10)
O15H_2 O -0.16417(7) 0.02625(11) 0.4558(10)
O16F O 0.22991(8) -0.16431(15) -0.3847(8)
O16F_2 O 0.22991(8) -0.16431(15) 0.6153(8)
O16_2 O 0.27009(8) -0.16431(15) -0.1153(8)
O17F O 0.23099(11) -0.20049(15) -0.3749(9)
O17F_2 O 0.23099(11) -0.20049(15) 0.6251(9)
O17_2 O 0.26901(11) -0.20049(15) -0.1251(9)
O18F O 0.24370(10) -0.18266(10) -0.5566(7)
O18F_2 O 0.24370(10) -0.18266(10) 0.4434(7)
O18_2 O 0.25630(10) -0.18266(10) 0.0566(7)
O19F O 0.23250(8) -0.10117(14) -0.1029(6)
O19E O 0.23250(8) 0.10117(14) 0.1029(6)
O19C O 0.26750(8) 0.10117(14) 0.3971(6)
O20F O 0.23977(10) -0.13774(11) -0.0855(7)
O20E O 0.23977(10) 0.13774(11) 0.0855(7)
O20C O 0.26023(10) 0.13774(11) 0.4145(7)
O20F_2 O 0.23977(10) -0.13774(11) -1.0855(7)
O20_2 O 0.26023(10) -0.13774(11) 0.5855(7)
O21F O 0.22732(8) -0.12149(10) -0.2933(8)
O21E O 0.22732(8) 0.12149(10) 0.2933(8)
O21C O 0.27268(8) 0.12149(10) 0.2067(8)
O21_2 O 0.27268(8) -0.12149(10) -1.2067(8)
O21F_2 O 0.22732(8) -0.12149(10) 0.7067(8)
O22K O -0.05671(10) -0.02768(16) 0.0424(11)
O22C O 0.05671(10) 0.02768(16) -0.0424(11)
O22H O -0.05671(10) 0.02768(16) -0.0424(11)
O23K O -0.04080(10) -0.02341(16) -0.1569(10)
O23C O 0.04080(10) 0.02341(16) 0.1569(10)
O23H O -0.04080(10) 0.02341(16) 0.1569(10)
O24K O -0.07019(11) -0.0140(3) -0.1572(10)
O24C O 0.07019(11) 0.0140(3) 0.1572(10)
O24H O -0.07019(11) 0.0140(3) 0.1572(10)
O25C O 0.04878(10) 0.02848(16) -0.5415(13)
O25K O -0.04878(10) -0.02848(16) -0.4585(13)
O25H O -0.04878(10) 0.02848(16) -0.5415(13)
O25C_2 O 0.04878(10) 0.02848(16) 0.4585(13)
O25H_2 O -0.04878(10) 0.02848(16) 0.4585(13)
O26C O 0.03525(11) 0.0135(2) -0.3384(10)
O26K O -0.03525(11) -0.0135(2) -0.6616(10)
O26H O -0.03525(11) 0.0135(2) -0.3384(10)
O26_2 O 0.03525(11) -0.0135(2) 0.3384(10)
O26K_2 O -0.03525(11) -0.0135(2) 0.3384(10)
O27C O 0.06469(10) 0.02415(15) -0.3446(8)
O27K O -0.06469(10) -0.02415(15) -0.6554(8)
O27H O -0.06469(10) 0.02415(15) -0.3446(8)
O27_2 O 0.06469(10) -0.02415(15) 0.3446(8)
O27K_2 O -0.06469(10) -0.02415(15) 0.3446(8)
O28C O 0.19974(7) 0.01967(10) 0.3364(6)
O28K O -0.19974(7) -0.01967(10) -0.3364(6)
O28H O -0.19974(7) 0.01967(10) 0.3364(6)
O29C O 0.22792(6) 0.02752(8) 0.2967(5)
O29K O -0.22792(6) -0.02752(8) -0.2967(5)
O29H O -0.22792(6) 0.02752(8) 0.2967(5)
O29F O 0.27208(6) -0.02752(8) -0.2033(5)
O29E O 0.27208(6) 0.02752(8) 0.2033(5)
O30C O 0.21246(5) 0.00522(8) 0.1325(6)
O30K O -0.21246(5) -0.00522(8) -0.1325(6)
O30H O -0.21246(5) 0.00522(8) 0.1325(6)
O31F O 0.26082(16) -0.22750(14) -1.4117(9)
O31L O 0.26082(16) -0.27250(14) -0.9117(9)
O31F_2 O 0.26082(16) -0.22750(14) -0.4117(9)
O31F_3 O 0.26082(16) -0.22750(14) 0.5883(9)
O31_2 O 0.23918(16) -0.22750(14) -0.0883(9)
O32F O 0.26908(11) -0.26493(17) -1.4063(8)
O32L O 0.26908(11) -0.23507(17) -0.9063(8)
O32F_2 O 0.26908(11) -0.26493(17) -0.4063(8)
O32J O 0.23092(11) -0.23507(17) -0.5937(8)
O32J_2 O 0.23092(11) -0.23507(17) 0.4063(8)
O32L_2 O 0.26908(11) -0.23507(17) 0.0937(8)
O33F O 0.27218(11) -0.24480(13) -1.2138(13)
O33L O 0.27218(11) -0.25520(13) -0.7138(13)
O33F_2 O 0.27218(11) -0.24480(13) -0.2138(13)
O33_2 O 0.22782(11) -0.24480(13) -0.2862(13)
O33_3 O 0.22782(11) -0.24480(13) 0.7138(13)
O34K O -0.01397(9) -0.02381(17) -0.3720(10)
O34C O 0.01397(9) 0.02381(17) 0.3720(10)
O34H O -0.01397(9) 0.02381(17) 0.3720(10)
O35C O 0.0000 0.0063(2) 0.1986(14)
O36F O 0.23315(8) -0.15855(10) -0.8065(6)
O36F_2 O 0.23315(8) -0.15855(10) 0.1935(6)
O36_2 O 0.26685(8) -0.15855(10) 0.3065(6)
O37F O 0.26739(9) -0.20713(11) -0.6950(7)
O37F_2 O 0.26739(9) -0.20713(11) 0.3050(7)
O37_2 O 0.23261(9) -0.20713(11) 0.1950(7)
O38C O 0.01942(8) -0.02273(16) 0.0557(8)
O38H O -0.01942(8) -0.02273(16) 0.0557(8)
O38K O -0.01942(8) 0.02273(16) -0.0557(8)
O39C O 0.08654(8) 0.02124(13) 0.4470(7)
O39K O -0.08654(8) -0.02124(13) 0.5530(7)
O39H O -0.08654(8) 0.02124(13) 0.4470(7)
O40C O 0.12513(7) 0.02179(12) 0.4400(7)
O40K O -0.12513(7) -0.02179(12) 0.5600(7)
O40H O -0.12513(7) 0.02179(12) 0.4400(7)
F1F F 0.24594(4) -0.00508(6) -0.1244(4)
F1E F 0.24594(4) 0.00508(6) 0.1244(4)
F1C F 0.25406(4) 0.00508(6) 0.3756(4)
F1N F -0.24594(4) 0.00508(6) 0.1244(4)
F1M F -0.24594(4) -0.00508(6) -0.1244(4)
H1F H 0.2554 -0.0393 0.1149
H1E H 0.2554 0.0393 -0.1149
H1C H 0.2446 0.0393 0.6149
H2K H -0.1043 -0.0460 0.3039
H2C H 0.1043 0.0460 -0.3039
H2H H -0.1043 0.0460 -0.3039
H3F H 0.2098 -0.1047 -0.6156
H3F_2 H 0.2098 -0.1047 0.3844
H3_2 H 0.2902 -0.1047 0.1156
H4C H 0.1497 0.0503 0.1539
H4K H -0.1497 -0.0503 -0.1539
H4H H -0.1497 0.0503 0.1539
H5K H -0.1681 -0.0527 0.3654
H5C H 0.1681 0.0527 -0.3654
H5H H -0.1681 0.0527 -0.3654
H6F H 0.2128 -0.1853 -0.5531
H6F_2 H 0.2128 -0.1853 0.4469
H6_2 H 0.2872 -0.1853 0.0531
H7F H 0.2127 -0.1247 -0.0673
H7E H 0.2127 0.1247 0.0673
H7C H 0.2873 0.1247 0.4327
H8K H -0.0626 -0.0509 -0.1607
H8C H 0.0626 0.0509 0.1607
H8H H -0.0626 0.0509 0.1607
H9C H 0.0433 0.0523 -0.3196
H9K H -0.0433 -0.0523 -0.6804
H9H H -0.0433 0.0523 -0.3196
H10C H 0.2190 -0.0098 0.3630
H10K H -0.2190 0.0098 -0.3630
H10H H -0.2190 -0.0098 0.3630
H11F H 0.2868 -0.2373 -1.4264
H11L H 0.2868 -0.2627 -0.9264
H11F_2 H 0.2868 -0.2373 -0.4264
H12C H -0.0000 0.0503 0.2033
loop_
_geom_bond_atom_site_label_1
_geom_bond_atom_site_label_2
_geom_bond_site_symmetry_1
_geom_bond_site_symmetry_2
Ga1 O2 1_555 1_555
Ga2 O30 1_555 1_555
Zn1 O4 1_555 1_555
Zn2 O11 1_555 1_555
Zn3 O3 1_555 1_555
Zn4 O8 1_555 1_555
Zn5 O5 1_555 1_555
Zn6 O23 1_555 1_555
Zn7 O17 1_555 1_555
Zn8 O18 1_555 1_555
Zn9 O35 1_555 1_555
Zn10 O6 1_555 1_555
P1 O1 1_555 1_555
P2 O4 1_555 1_555
P3 O7 1_555 1_555
P4 O10 1_555 1_555
P5 O13 1_555 1_555
P6 O16 1_555 1_555
P7 O19 1_555 1_555
P8 O22 1_555 1_555
P9 O25 1_555 1_555
P10 O28 1_555 1_555
P11 O31 1_555 1_555
P12 O34 1_555 1_555
O1 Ga2E 1_555 1_555
O2 P1 1_555 1_555
O3 P1 1_555 1_555
O5 P2 1_555 1_555
O6 P2 1_555 1_555
O7 Zn3 1_555 1_555
O8 P3 1_555 1_555
O9 P3 1_555 1_555
O10 Zn1 1_555 1_555
O11 P4 1_555 1_555
O12 P4 1_555 1_555
O13 Zn1 1_555 1_555
O14 P5 1_555 1_555
O15 P5 1_555 1_555
O16 Zn4 1_555 1_555
O17 P6 1_555 1_555
O18 P6 1_555 1_555
O19 Zn3 1_555 1_555
O20 P7 1_555 1_555
O21 P7 1_555 1_555
O22 Zn5 1_555 1_555
O23 P8 1_555 1_555
O24 P8 1_555 1_555
O25 Zn6 1_555 1_555
O26 P9 1_555 1_555
O27 P9 1_555 1_555
O28 Zn2 1_555 1_555
O29 Ga1 1_555 1_555
O30 P10 1_555 1_555
O31 Zn7 1_555 1_555
O32 P11 1_555 1_555
O33 P11 1_555 1_555
O34 Zn6 1_555 1_555
O35 P12 1_555 1_555
O36 Zn8 1_555 1_555
O37 Zn8 1_555 1_555
O38 Zn9 1_555 1_555
O39 Zn10 1_555 1_555
O40 Zn10 1_555 1_555
F1 Ga1 1_555 1_555
H1 P1 1_555 1_555
H2 P2 1_555 1_555
H3 P3 1_555 1_555
H4 P4 1_555 1_555
H5 P5 1_555 1_555
H6 P6 1_555 1_555
H7 P7 1_555 1_555
H8 P8 1_555 1_555
H9 P9 1_555 1_555
H10 P10 1_555 1_555
H11 P11 1_555 1_555
H12 P12 1_555 1_555
Ga1C O2E 1_555 1_555
Ga1K O29K 1_555 1_555
Ga1H O29H 1_555 1_555
Ga2H O1M 1_555 1_555
Ga2E F1 1_555 1_555
Ga2E_2 O1C 1_555 1_555
Zn1K O4K 1_555 1_555
Zn1C O12 1_555 1_555
Zn1H O4H 1_555 1_555
Zn2C O14 1_555 1_555
Zn2K O11K 1_555 1_555
Zn2H O11H 1_555 1_555
Zn2_2 O15 1_555 1_555
Zn2K_2 O15K 1_555 1_555
Zn2C_2 O15C 1_555 1_555
Zn2H_2 O15H 1_555 1_555
Zn3F O3F 1_555 1_555
Zn3E O3E 1_555 1_555
Zn3C O3C 1_555 1_555
Zn3F_2 O9 1_555 1_555
Zn3_2 O7_2 1_555 1_555
Zn4F O20 1_555 1_555
Zn4F_2 O8F_2 1_555 1_555
Zn4_2 O21 1_555 1_555
Zn4C O20E 1_555 1_555
Zn4E O20C 1_555 1_555
Zn5K O5K 1_555 1_555
Zn5C O24 1_555 1_555
Zn5H O5H 1_555 1_555
Zn5_2 O27 1_555 1_555
Zn5K_2 O27K 1_555 1_555
Zn6K O23K 1_555 1_555
Zn6C O23C 1_555 1_555
Zn6H O23H 1_555 1_555
Zn6C_2 O26 1_555 1_555
Zn6H_2 O25H 1_555 1_555
Zn7F O17F 1_555 1_555
Zn7F_2 O17F_2 1_555 1_555
Zn7_2 O17_2 1_555 1_555
Zn7L O32 1_555 1_555
Zn7F_3 O33 1_555 1_555
Zn7J O32F 1_555 1_555
Zn7J_2 O32F_2 1_555 1_555
Zn8_2 O18F_2 1_555 1_555
Zn10H O6K 1_555 1_555
Zn10_2 O6C 1_555 1_555
Zn10H_2 O6H 1_555 1_555
P1F O1F 1_555 1_555
P1E O1E 1_555 1_555
P1C O1C 1_555 1_555
P2K O4K 1_555 1_555
P2C O4C 1_555 1_555
P2H O4H 1_555 1_555
P3F O7F 1_555 1_555
P3F_2 O7F_2 1_555 1_555
P3_2 O7_2 1_555 1_555
P4C O10C 1_555 1_555
P4K O10K 1_555 1_555
P4H O10H 1_555 1_555
P5K O13K 1_555 1_555
P5C O13C 1_555 1_555
P5H O13H 1_555 1_555
P6F O16F 1_555 1_555
P6F_2 O16F_2 1_555 1_555
P6_2 O16_2 1_555 1_555
P7F O19F 1_555 1_555
P7E O19E 1_555 1_555
P7C O19C 1_555 1_555
P8K O22K 1_555 1_555
P8C O22C 1_555 1_555
P8H O22H 1_555 1_555
P9C O25C 1_555 1_555
P9K O25K 1_555 1_555
P9H O25H 1_555 1_555
P10C O28C 1_555 1_555
P10K O28K 1_555 1_555
P10H O28H 1_555 1_555
P11F O31F 1_555 1_555
P11L O31L 1_555 1_555
P11F_2 O31F_2 1_555 1_555
P12C O34C 1_555 1_555
O1F Ga2 1_555 1_555
O1E Ga2 1_555 1_555
O1N Ga2H 1_555 1_555
O2F Ga1 1_555 1_555
O2E P1E 1_555 1_555
O2C Ga1C 1_555 1_555
O3F P1F 1_555 1_555
O3E P1E 1_555 1_555
O3C P1C 1_555 1_555
O4C Zn1C 1_555 1_555
O5K P2K 1_555 1_555
O5C Zn5C 1_555 1_555
O5H P2H 1_555 1_555
O6K P2K 1_555 1_555
O6C P2C 1_555 1_555
O6H P2H 1_555 1_555
O6C_2 Zn10 1_555 1_555
O6H_2 Zn10H 1_555 1_555
O7F Zn3F_2 1_555 1_555
O7F_2 Zn3F 1_555 1_555
O7E Zn3E 1_555 1_555
O7C Zn3C 1_555 1_555
O8F Zn4F 1_555 1_555
O8F_2 P3F_2 1_555 1_555
O8_2 Zn4_2 1_555 1_555
O9F Zn3 1_555 1_555
O9F_2 Zn3_2 1_555 1_555
O9_2 Zn3F 1_555 1_555
O9C Zn3E 1_555 1_555
O9E Zn3C 1_555 1_555
O10C Zn1C 1_555 1_555
O10K Zn1K 1_555 1_555
O10H Zn1H 1_555 1_555
O11C Zn2C 1_555 1_555
O11K P4K 1_555 1_555
O11H P4H 1_555 1_555
O12C Zn1 1_555 1_555
O12K Zn1H 1_555 1_555
O12H Zn1K 1_555 1_555
O13K Zn1K 1_555 1_555
O13C Zn1C 1_555 1_555
O13H Zn1H 1_555 1_555
O14K Zn2H 1_555 1_555
O14C Zn2 1_555 1_555
O14H Zn2K 1_555 1_555
O15K P5K 1_555 1_555
O15C P5C 1_555 1_555
O15H P5H 1_555 1_555
O15_2 Zn2 1_555 1_555
O15C_2 Zn2C 1_555 1_555
O15K_2 Zn2K 1_555 1_555
O15H_2 Zn2H 1_555 1_555
O16F Zn4F 1_555 1_555
O16F_2 Zn4F_2 1_555 1_555
O16_2 Zn4_2 1_555 1_555
O17F P6F 1_555 1_555
O17F_2 P6F_2 1_555 1_555
O17_2 P6_2 1_555 1_555
O18F Zn8 1_555 1_555
O18F_2 P6F_2 1_555 1_555
O18_2 Zn8_2 1_555 1_555
O19F Zn3F 1_555 1_555
O19E Zn3E 1_555 1_555
O19C Zn3C 1_555 1_555
O20F Zn4_2 1_555 1_555
O20E P7E 1_555 1_555
O20C P7C 1_555 1_555
O20F_2 Zn4 1_555 1_555
O20_2 Zn4F_2 1_555 1_555
O21F Zn4F 1_555 1_555
O21E Zn4E 1_555 1_555
O21C Zn4C 1_555 1_555
O21_2 Zn4 1_555 1_555
O21F_2 Zn4F_2 1_555 1_555
O22K Zn5K 1_555 1_555
O22C Zn5C 1_555 1_555
O22H Zn5H 1_555 1_555
O23K P8K 1_555 1_555
O23C P8C 1_555 1_555
O23H P8H 1_555 1_555
O24K Zn5H 1_555 1_555
O24C Zn5 1_555 1_555
O24H Zn5K 1_555 1_555
O25C Zn6C_2 1_555 1_555
O25K Zn6K 1_555 1_555
O25C_2 Zn6C 1_555 1_555
O25H_2 Zn6H 1_555 1_555
O26C Zn6 1_555 1_555
O26K Zn6H_2 1_555 1_555
O26H Zn6K 1_555 1_555
O26_2 Zn6C 1_555 1_555
O26K_2 Zn6H 1_555 1_555
O27C Zn5C 1_555 1_555
O27K P9K 1_555 1_555
O27H Zn5H 1_555 1_555
O27_2 Zn5 1_555 1_555
O27K_2 Zn5K 1_555 1_555
O28C Zn2C 1_555 1_555
O28K Zn2K 1_555 1_555
O28H Zn2H 1_555 1_555
O29C Ga1C 1_555 1_555
O29K P10K 1_555 1_555
O29H P10H 1_555 1_555
O29F Ga1 1_555 1_555
O29E Ga1C 1_555 1_555
O30C Ga2 1_555 1_555
O30K Ga2H 1_555 1_555
O30H Ga2H 1_555 1_555
O31F Zn7F_3 1_555 1_555
O31L Zn7L 1_555 1_555
O31F_2 Zn7F 1_555 1_555
O31F_3 Zn7F_2 1_555 1_555
O31_2 Zn7_2 1_555 1_555
O32F P11F 1_555 1_555
O32L Zn7 1_555 1_555
O32F_2 P11F_2 1_555 1_555
O32J Zn7F 1_555 1_555
O32J_2 Zn7F_2 1_555 1_555
O32L_2 Zn7_2 1_555 1_555
O33F Zn7 1_555 1_555
O33L Zn7J_2 1_555 1_555
O33F_2 Zn7_2 1_555 1_555
O33_2 Zn7F 1_555 1_555
O33_3 Zn7F_2 1_555 1_555
O34K P12 1_555 1_555
O34C Zn6C 1_555 1_555
O34H Zn6H 1_555 1_555
O35C Zn9 1_555 1_555
O36F Zn8 1_555 1_555
O36F_2 Zn8_2 1_555 1_555
O36_2 Zn8_2 1_555 1_555
O37F Zn8 1_555 1_555
O37F_2 Zn8_2 1_555 1_555
O37_2 Zn8_2 1_555 1_555
O38C Zn9 1_555 1_555
O38H Zn9 1_555 1_555
O38K Zn9 1_555 1_555
O39C Zn10 1_555 1_555
O39K Zn10H 1_555 1_555
O39H Zn10H 1_555 1_555
O40C Zn10 1_555 1_555
O40K Zn10H 1_555 1_555
O40H Zn10H 1_555 1_555
F1F Ga1 1_555 1_555
F1E Ga2 1_555 1_555
F1C Ga1C 1_555 1_555
F1N Ga1H 1_555 1_555
F1M Ga1K 1_555 1_555
H1F P1F 1_555 1_555
H1E P1E 1_555 1_555
H1C P1C 1_555 1_555
H2K P2K 1_555 1_555
H2C P2C 1_555 1_555
H2H P2H 1_555 1_555
H3F P3F 1_555 1_555
H3F_2 P3F_2 1_555 1_555
H3_2 P3_2 1_555 1_555
H4C P4C 1_555 1_555
H4K P4K 1_555 1_555
H4H P4H 1_555 1_555
H5K P5K 1_555 1_555
H5C P5C 1_555 1_555
H5H P5H 1_555 1_555
H6F P6F 1_555 1_555
H6F_2 P6F_2 1_555 1_555
H6_2 P6_2 1_555 1_555
H7F P7F 1_555 1_555
H7E P7E 1_555 1_555
H7C P7C 1_555 1_555
H8K P8K 1_555 1_555
H8C P8C 1_555 1_555
H8H P8H 1_555 1_555
H9C P9C 1_555 1_555
H9K P9K 1_555 1_555
H9H P9H 1_555 1_555
H10C P10C 1_555 1_555
H10K P10K 1_555 1_555
H10H P10H 1_555 1_555
H11F P11F 1_555 1_555
H11L P11L 1_555 1_555
H11F_2 P11F_2 1_555 1_555
H12C P12C 1_555 1_555
Ga2 F1F 1_555 1_555
P10 O29 1_555 1_555
Ga1C F1E 1_555 1_555
Ga2H F1N 1_555 1_555
Ga2H F1M 1_555 1_555
Ga2E_2 F1C 1_555 1_555
Zn6K O34K 1_555 1_555
P1F O2F 1_555 1_555
P1C O2C 1_555 1_555
P2C O5C 1_555 1_555
P3F O8F 1_555 1_555
P3F O9F 1_555 1_555
P3F_2 O9F_2 1_555 1_555
P3_2 O8_2 1_555 1_555
P3_2 O9_2 1_555 1_555
P4C O11C 1_555 1_555
P4C O12C 1_555 1_555
P4K O12K 1_555 1_555
P4H O12H 1_555 1_555
P5K O14K 1_555 1_555
P5C O14C 1_555 1_555
P5H O14H 1_555 1_555
P6F O18F 1_555 1_555
P6_2 O18_2 1_555 1_555
P7F O20F 1_555 1_555
P7F O21F 1_555 1_555
P7E O21E 1_555 1_555
P7C O21C 1_555 1_555
P8K O24K 1_555 1_555
P8C O24C 1_555 1_555
P8H O24H 1_555 1_555
P9C O26C 1_555 1_555
P9C O27C 1_555 1_555
P9K O26K 1_555 1_555
P9H O26H 1_555 1_555
P9H O27H 1_555 1_555
P10C O29C 1_555 1_555
P10C O30C 1_555 1_555
P10K O30K 1_555 1_555
P10H O30H 1_555 1_555
P11F O33F 1_555 1_555
P11L O32L 1_555 1_555
P11L O33L 1_555 1_555
P11F_2 O33F_2 1_555 1_555
P12C O34H 1_555 1_555
P12C O35C 1_555 1_555

#END
