
#######################################################################
#
#                 Cambridge Crystallographic Data Centre
#                                CCDC 
#
#######################################################################
#
# If this CIF has been generated from an entry in the Cambridge 
# Structural Database, then it will include bibliographic, chemical, 
# crystal, experimental, refinement or atomic coordinate data resulting 
# from the CCDC's data processing and validation procedures.
#
#######################################################################

data_PACWOG
_chemical_formula_moiety         '(C41 H22 N6 O13 Zn2)n'
_symmetry_cell_setting           orthorhombic
_symmetry_space_group_name_H-M   'P b c m'
_symmetry_Int_Tables_number      57
_space_group_name_Hall           '-P 2c 2b'
loop_
_symmetry_equiv_pos_site_id
_symmetry_equiv_pos_as_xyz
1 x,y,z
2 x,y,1/2-z
3 x,1/2-y,1/2+z
4 -x,1/2+y,z
5 -x,-y,-z
6 -x,-y,1/2+z
7 -x,1/2+y,1/2-z
8 x,1/2-y,-z
_cell_length_a                   10.5778(10)
_cell_length_b                   19.6493(18)
_cell_length_c                   19.1872(18)
_cell_angle_alpha                90
_cell_angle_beta                 90
_cell_angle_gamma                90
_cell_volume                     3987.99
loop_
_atom_site_label
_atom_site_type_symbol
_atom_site_fract_x
_atom_site_fract_y
_atom_site_fract_z
C23 C 0.5843(5) 0.3191(3) 0.7500
N3 N 0.7000(7) 0.3568(3) 0.7746(4)
C28 C 0.5315(8) 0.3274(4) 0.8069(4)
O7 O 0.7360(7) 0.3582(4) 0.8354(4)
C30 C 0.4263(10) 0.2903(5) 0.8231(5)
C33 C 0.3827(13) 0.2462(7) 0.7810(8)
N3A N 0.7000(7) 0.3568(3) 0.7254(4)
C33A C 0.3827(13) 0.2462(7) 0.7190(8)
C30A C 0.4263(10) 0.2903(5) 0.6769(5)
C28A C 0.5315(8) 0.3274(4) 0.6931(4)
O7A O 0.7360(7) 0.3582(4) 0.6646(4)
C24 C -0.1368(6) 0.2053(3) -0.2178(3)
O6 O 0.0497(7) 0.2759(4) -0.2500
N4 N 0.0056(9) 0.2367(6) -0.1975(5)
O8 O 0.0375(7) 0.2141(4) -0.1366(5)
C29 C -0.2886(11) 0.1189(5) -0.2045(7)
C32 C -0.1785(10) 0.1497(5) -0.1776(5)
C24A C -0.1368(6) 0.2053(3) -0.2822(3)
N4A N 0.0056(9) 0.2367(6) -0.3025(5)
C29A C -0.2886(11) 0.1189(5) -0.2955(7)
C32A C -0.1785(10) 0.1497(5) -0.3224(5)
O8A O 0.0375(7) 0.2141(4) -0.3634(5)
Zn1 Zn 0.61168(3) -0.031060(18) 0.537360(19)
C1 C 0.6021(3) -0.02429(16) 0.11868(18)
O1 O 0.3538(3) -0.07169(13) 0.47670(17)
O2 O 0.6607(3) -0.04163(14) 0.06462(14)
O3 O 0.5191(3) -0.12080(12) 0.52904(14)
C2 C 0.6068(4) -0.0247(2) 0.2500
H1 H 0.5284 -0.0011 0.2500
O4 O 0.4966(3) 0.00477(14) 0.12068(13)
C3 C 0.8365(5) -0.0918(3) 0.2500
H2 H 0.9158 -0.1146 0.2500
C4 C 0.2106(3) -0.18913(17) 0.4993(2)
H3 H 0.1655 -0.1473 0.4981
C5 C 0.6637(3) -0.04187(16) 0.18710(17)
C6 C 0.3420(3) -0.18886(16) 0.50047(17)
C7 C 0.1453(5) -0.2500 0.5000
H4 H 0.0555 -0.2500 0.5000
C8 C 0.4103(3) -0.12158(17) 0.50210(18)
C9 C 0.4074(5) -0.2500 0.5000
H5 H 0.4973 -0.2500 0.5000
C10 C 0.7798(3) -0.07549(18) 0.31267(19)
H6 H 0.8197 -0.0871 0.1446
C17 C 0.0080(8) 0.0550(5) 0.3321(5)
H14 H -0.0691 0.0555 0.3067
C18 C 0.2066(7) 0.0052(4) 0.3586(4)
H15 H 0.2679 -0.0293 0.3509
C19 C 0.0969(8) 0.0046(5) 0.3199(5)
H16 H 0.0826 -0.0294 0.2856
N2 N 0.2296(9) 0.0530(5) 0.4068(4)
C20 C 0.0320(10) 0.1042(5) 0.3814(5)
H17 H -0.0279 0.1394 0.3894
C21 C 0.1458(6) 0.1024(3) 0.4198(4)
C22 C 0.1763(7) 0.1553(4) 0.4724(4)
H18 H 0.2620 0.1478 0.4902
H19 H 0.1713 0.2004 0.4508
H20 H 0.1157 0.1526 0.5110
Zn1A Zn 0.61168(3) -0.031060(18) -0.037360(19)
C5A C 0.6637(3) -0.04187(16) 0.31290(17)
C1A C 0.6021(3) -0.02429(16) 0.38132(18)
O2A O 0.6607(3) -0.04163(14) 0.43538(14)
Zn1E Zn 0.38832(3) 0.031060(18) 0.037360(19)
O1D O 0.6462(3) 0.07169(13) 0.52330(17)
O3D O 0.4809(3) 0.12080(12) 0.47096(14)
Zn1D Zn 0.38832(3) 0.031060(18) 0.462640(19)
O4E O 0.5034(3) -0.00477(14) 0.62068(13)
O2E O 0.3393(3) 0.04163(14) 0.56462(14)
O4A O 0.4966(3) 0.00477(14) 0.37932(13)
N2D N 0.7704(9) -0.0530(5) 0.5932(4)
C18D C 0.7934(7) -0.0052(4) 0.6414(4)
H15D H 0.7321 0.0293 0.6491
C19D C 0.9031(8) -0.0046(5) 0.6801(5)
C17D C 0.9920(8) -0.0550(5) 0.6679(5)
H14D H 1.0691 -0.0555 0.6933
C20D C 0.9680(10) -0.1042(5) 0.6186(5)
H17D H 1.0279 -0.1394 0.6106
C21D C 0.8542(6) -0.1024(3) 0.5802(4)
C22D C 0.8237(7) -0.1553(4) 0.5276(4)
H18D H 0.7380 -0.1478 0.5098
H19D H 0.8287 -0.2004 0.5492
H20D H 0.8843 -0.1526 0.4890
H16D H 0.9174 0.0294 0.7144
C4G C 0.2106(3) -0.31087(17) 0.5007(2)
H3G H 0.1655 -0.3527 0.5019
C6G C 0.3420(3) -0.31114(16) 0.49953(17)
C8G C 0.4103(3) -0.37842(17) 0.49790(18)
O1G O 0.3538(3) -0.42831(13) 0.52330(17)
Zn1C Zn 0.38832(3) -0.531060(18) 0.537360(19)
Zn1G Zn 0.61168(3) -0.468940(18) 0.462640(19)
O3G O 0.5191(3) -0.37920(12) 0.47096(14)
C10A C 0.7798(3) -0.07549(18) 0.18733(19)
H6A H 0.8197 -0.0871 0.3554
loop_
_geom_bond_atom_site_label_1
_geom_bond_atom_site_label_2
_geom_bond_site_symmetry_1
_geom_bond_site_symmetry_2
Zn1 O3 1_555 1_555
C1 O2 1_555 1_555
O1 C8 1_555 1_555
O2 Zn1A 1_555 1_555
O3 C8 1_555 1_555
C2 H1 1_555 1_555
O4 C1 1_555 1_555
C3 H2 1_555 1_555
C4 H3 1_555 1_555
C5 C1 1_555 1_555
C6 C4 1_555 1_555
C7 C4 1_555 1_555
H4 C7 1_555 1_555
C8 C6 1_555 1_555
C9 C6 1_555 1_555
H5 C9 1_555 1_555
C10 C3 1_555 1_555
H6 C10A 1_555 1_555
C17 H14 1_555 1_555
C18 H15 1_555 1_555
C19 C17 1_555 1_555
H16 C19 1_555 1_555
N2 C18 1_555 1_555
C20 C17 1_555 1_555
H17 C20 1_555 1_555
C21 N2 1_555 1_555
C22 C21 1_555 1_555
H18 C22 1_555 1_555
H19 C22 1_555 1_555
H20 C22 1_555 1_555
C23 N3 1_555 1_555
C24 N4 1_555 1_555
N3 O7 1_555 1_555
O6 N4 1_555 1_555
C28 C23 1_555 1_555
N4 O8 1_555 1_555
C29 C32 1_555 1_555
C30 C28 1_555 1_555
C32 C24 1_555 1_555
C33 C30 1_555 1_555
C5A C2 1_555 1_555
C1A C5A 1_555 1_555
O2A Zn1 1_555 1_555
Zn1E O4 1_555 1_555
O1D Zn1 1_555 1_555
O3D Zn1D 1_555 1_555
Zn1D O1 1_555 1_555
O4E Zn1 1_555 1_555
O2E Zn1D 1_555 1_555
O4A C1A 1_555 1_555
N2D Zn1 1_555 1_555
C18D N2D 1_555 1_555
H15D C18D 1_555 1_555
C19D C18D 1_555 1_555
C17D C19D 1_555 1_555
H14D C17D 1_555 1_555
C20D C17D 1_555 1_555
H17D C20D 1_555 1_555
C21D N2D 1_555 1_555
C22D C21D 1_555 1_555
H18D C22D 1_555 1_555
H19D C22D 1_555 1_555
H20D C22D 1_555 1_555
H16D C19D 1_555 1_555
C4G C7 1_555 1_555
H3G C4G 1_555 1_555
C6G C9 1_555 1_555
C8G C6G 1_555 1_555
O1G C8G 1_555 1_555
Zn1C O1G 1_555 1_555
Zn1G O3G 1_555 1_555
O3G C8G 1_555 1_555
C10A C3 1_555 1_555
H6A C10 1_555 1_555
N3A C23 1_555 1_555
C33A C33 1_555 1_555
C30A C33A 1_555 1_555
C28A C23 1_555 1_555
O7A N3A 1_555 1_555
C24A C24 1_555 1_555
N4A O6 1_555 1_555
C29A C29 1_555 1_555
C32A C24A 1_555 1_555
O8A N4A 1_555 1_555
C2 C5 1_555 1_555
C5 C10A 1_555 1_555
C10 C5A 1_555 1_555
C18 C19 1_555 1_555
N2 Zn1D 1_555 1_555
C20 C21 1_555 1_555
N3 N3A 1_555 1_555
C1A O2A 1_555 1_555
Zn1D O4A 1_555 1_555
C20D C21D 1_555 1_555
C4G C6G 1_555 1_555
C30A C28A 1_555 1_555
C24A N4A 1_555 1_555
C29A C32A 1_555 1_555

#END
