
#######################################################################
#
#                 Cambridge Crystallographic Data Centre
#                                CCDC 
#
#######################################################################
#
# If this CIF has been generated from an entry in the Cambridge 
# Structural Database, then it will include bibliographic, chemical, 
# crystal, experimental, refinement or atomic coordinate data resulting 
# from the CCDC's data processing and validation procedures.
#
#######################################################################

data_FIXVUE
_chemical_formula_moiety         '(C120 H248 Ag17 Au12 Cl5 Cu12 N24 O64 S24)n'
_symmetry_cell_setting           cubic
_symmetry_space_group_name_H-M   'P 21 3'
_symmetry_Int_Tables_number      198
_space_group_name_Hall           'P 2ac 2ab 3'
loop_
_symmetry_equiv_pos_site_id
_symmetry_equiv_pos_as_xyz
1 x,y,z
2 z,x,y
3 y,z,x
4 1/2+x,1/2-y,-z
5 1/2+z,1/2-x,-y
6 1/2+y,1/2-z,-x
7 -x,1/2+y,1/2-z
8 -z,1/2+x,1/2-y
9 -y,1/2+z,1/2-x
10 1/2-x,-y,1/2+z
11 1/2-z,-x,1/2+y
12 1/2-y,-z,1/2+x
_cell_length_a                   32.749(2)
_cell_length_b                   32.749(2)
_cell_length_c                   32.749(2)
_cell_angle_alpha                90
_cell_angle_beta                 90
_cell_angle_gamma                90
_cell_volume                     35123.2
loop_
_atom_site_label
_atom_site_type_symbol
_atom_site_fract_x
_atom_site_fract_y
_atom_site_fract_z
_atom_site_U_iso_or_equiv
_atom_site_thermal_displace_type
Au1 Au 0.34797(2) -0.00343(2) 0.52165(2) 0.0461 Uani
Au2 Au 0.41875(2) 0.06230(2) 0.57131(2) 0.0488 Uani
Au3 Au 0.05554(2) 0.00613(2) 0.59969(2) 0.0518 Uani
Au4 Au 0.04397(2) 0.11043(2) 0.57455(2) 0.0549 Uani
Ag1 Ag 0.33264(5) 0.08223(5) 0.54810(5) 0.0694 Uani
Ag2 Ag 0.42204(5) 0.00949(5) 0.47605(5) 0.0704 Uani
Ag3 Ag 0.40430(5) -0.01232(5) 0.61674(6) 0.0759 Uani
Ag4 Ag 0.10963(7) 0.07415(9) 0.62699(7) 0.0759 Uani
Ag5 Ag -0.02374(5) 0.03763(6) 0.62628(7) 0.0942 Uani
Ag6 Ag 0.05701(7) 0.05794(6) 0.50362(5) 0.0953 Uani
Cu1 Cu 0.38951(8) 0.13320(7) 0.44933(7) 0.0634 Uani
Cu2 Cu 0.28245(7) 0.02532(8) 0.64517(7) 0.0637 Uani
Cu3 Cu 0.02664(7) 0.10928(7) 0.71995(6) 0.0536 Uani
Cu4 Cu 0.17744(6) 0.03124(7) 0.53469(7) 0.0537 Uani
Cl1 Cl 0.2824(2) 0.1358(2) 0.5499(2) 0.0977 Uani
Cl2 Cl 0.45419(13) -0.04581(13) 0.54581(13) 0.0500 Uani
Cl3 Cl -0.03236(13) 0.03236(13) 0.53236(13) 0.0560 Uani
S1 S 0.35836(12) 0.05291(13) 0.48036(13) 0.0490 Uani
S2 S 0.34673(12) -0.05793(13) 0.56534(13) 0.0487 Uani
S3 S 0.36326(13) 0.05341(14) 0.61381(14) 0.0543 Uani
S4 S 0.47224(13) 0.06138(12) 0.52600(14) 0.0493 Uani
S5 S 0.04575(14) 0.04305(14) 0.65864(12) 0.0523 Uani
S6 S 0.06246(14) -0.02756(14) 0.53888(14) 0.0563 Uani
S7 S 0.10665(14) 0.08794(15) 0.5513(2) 0.0603 Uani
S8 S -0.02139(13) 0.12202(14) 0.59698(14) 0.0537 Uani
O1 O 0.3918(4) 0.1081(4) 0.3990(4) 0.0763 Uani
O2 O 0.3523(6) 0.0763(6) 0.3516(5) 0.1113 Uani
O3 O 0.3899(4) 0.1525(3) 0.5054(4) 0.0583 Uani
O4 O 0.4288(4) 0.1710(3) 0.5575(3) 0.0570 Uani
O5 O 0.2658(4) 0.0290(3) 0.5908(4) 0.0637 Uani
O6 O 0.2381(3) -0.0086(3) 0.5381(3) 0.0533 Uani
O7 O 0.3096(5) 0.0188(5) 0.6979(5) 0.0923 Uani
O8 O 0.3438(7) 0.0592(8) 0.7430(5) 0.1437 Uani
O9 O -0.0113(3) 0.0696(3) 0.7442(3) 0.0487 Uani
O10 O -0.0125(4) 0.0044(4) 0.7663(4) 0.0630 Uani
O11 O 0.0620(4) 0.1414(4) 0.6865(3) 0.0610 Uani
O12 O 0.0650(5) 0.1938(6) 0.6435(6) 0.1147 Uani
O13 O 0.1633(3) 0.0092(3) 0.5878(3) 0.0540 Uani
O14 O 0.1564(4) -0.0520(5) 0.6194(4) 0.0817 Uani
O15 O 0.1796(3) 0.0579(4) 0.4813(4) 0.0710 Uani
O16 O 0.1858(4) 0.1185(4) 0.4494(4) 0.0713 Uani
O17 O 0.1768(6) 0.0901(10) 0.6457(7) 0.1083 Uani
O18 O 0.4036(5) 0.2033(4) 0.4260(4) 0.0817 Uani
O19 O 0.2124(5) 0.0161(7) 0.6665(6) 0.1163 Uani
O20 O 0.0251(5) 0.1534(4) 0.7746(4) 0.0860 Uani
N1 N 0.3296(5) 0.1296(4) 0.4430(5) 0.0653 Uani
N2 N 0.4491(5) 0.1238(4) 0.4574(5) 0.0697 Uani
N3 N 0.2880(5) -0.0335(5) 0.6360(4) 0.0723 Uani
N4 N 0.2884(5) 0.0861(6) 0.6532(6) 0.0980 Uani
N5 N 0.0692(4) 0.0725(4) 0.7424(4) 0.0533 Uani
N6 N -0.0172(4) 0.1365(4) 0.6911(4) 0.0563 Uani
N7 N 0.1516(4) -0.0172(4) 0.5135(4) 0.0593 Uani
N8 N 0.1970(4) 0.0860(4) 0.5549(5) 0.0587 Uani
C1 C 0.3586(6) 0.0940(6) 0.3865(5) 0.1027 Uani
C2 C 0.3208(5) 0.0943(4) 0.4156(5) 0.0620 Uani
C3 C 0.3172(4) 0.0554(5) 0.4405(5) 0.0687 Uani
C4 C 0.2752(5) 0.0544(6) 0.4626(7) 0.0677 Uani
C5 C 0.3205(6) 0.0160(5) 0.4135(5) 0.0620 Uani
C6 C 0.4244(4) 0.1543(5) 0.5227(4) 0.0497 Uani
C7 C 0.4631(5) 0.1403(5) 0.4979(5) 0.0637 Uani
C8 C 0.4940(4) 0.1125(4) 0.5191(4) 0.0537 Uani
C9 C 0.5305(5) 0.1083(6) 0.4900(6) 0.0627 Uani
C10 C 0.5063(6) 0.1312(6) 0.5608(6) 0.0800 Uani
C11 C 0.2575(4) -0.0045(4) 0.5724(4) 0.0573 Uani
C12 C 0.2694(5) -0.0451(4) 0.5950(4) 0.0557 Uani
C13 C 0.2940(5) -0.0770(5) 0.5720(4) 0.0557 Uani
C14 C 0.2973(6) -0.1150(6) 0.6008(7) 0.0780 Uani
C15 C 0.2757(5) -0.0887(6) 0.5295(5) 0.0680 Uani
C16 C 0.3241(7) 0.0528(7) 0.7096(5) 0.1117 Uani
C17 C 0.3267(5) 0.0888(7) 0.6780(6) 0.0977 Uani
C18 C 0.3655(5) 0.0950(5) 0.6527(5) 0.0607 Uani
C19 C 0.3672(6) 0.1363(5) 0.6299(6) 0.0790 Uani
C20 C 0.4050(6) 0.0912(8) 0.6782(7) 0.0910 Uani
C21 C 0.0053(4) 0.0355(5) 0.7517(5) 0.0603 Uani
C22 C 0.0513(4) 0.0302(4) 0.7406(4) 0.0520 Uani
C23 C 0.0611(4) 0.0092(5) 0.7003(4) 0.0497 Uani
C24 C 0.1075(5) 0.0024(6) 0.6979(7) 0.0717 Uani
C25 C 0.0374(8) -0.0317(5) 0.6977(6) 0.0793 Uani
C26 C 0.0451(5) 0.1680(5) 0.6642(5) 0.0713 Uani
C27 C -0.0030(5) 0.1720(5) 0.6647(5) 0.0660 Uani
C28 C -0.0232(4) 0.1741(5) 0.6227(4) 0.0580 Uani
C29 C -0.0065(7) 0.2058(6) 0.5928(6) 0.0770 Uani
C30 C -0.0696(5) 0.1815(7) 0.6311(8) 0.0877 Uani
C31 C 0.1545(5) -0.0278(4) 0.5887(4) 0.0543 Uani
C32 C 0.1440(4) -0.0477(5) 0.5472(4) 0.0590 Uani
C33 C 0.1018(4) -0.0684(5) 0.5443(5) 0.0553 Uani
C34 C 0.0899(6) -0.0946(6) 0.5831(7) 0.0907 Uani
C35 C 0.0983(7) -0.0936(7) 0.5039(6) 0.0837 Uani
C36 C 0.1823(5) 0.0967(4) 0.4808(5) 0.0660 Uani
C37 C 0.1813(5) 0.1168(5) 0.5241(5) 0.0647 Uani
C38 C 0.1389(5) 0.1310(6) 0.5364(5) 0.0710 Uani
C39 C 0.1417(7) 0.1582(8) 0.5748(7) 0.0893 Uani
C40 C 0.1190(5) 0.1569(6) 0.5019(6) 0.0680 Uani
Au1E Au 0.49657(2) -0.02165(2) 0.65203(2) 0.0461 Uani
Au1H Au 0.00343(2) 0.02165(2) 0.15203(2) 0.0461 Uani
Au1G Au 0.47835(2) -0.15203(2) 0.50343(2) 0.0461 Uani
Au2G Au 0.42869(2) -0.08125(2) 0.43770(2) 0.0488 Uani
Au2E Au 0.56230(2) -0.07131(2) 0.58125(2) 0.0488 Uani
Au3E Au 0.50613(2) -0.09969(2) 0.94446(2) 0.0518 Uani
Au3H Au -0.00613(2) 0.09969(2) 0.44446(2) 0.0518 Uani
Au3J Au -0.09969(2) -0.05554(2) 0.50613(2) 0.0518 Uani
Au4E Au 0.61043(2) -0.07455(2) 0.95603(2) 0.0549 Uani
Au4H Au -0.11043(2) 0.07455(2) 0.45603(2) 0.0549 Uani
Au4J Au -0.07455(2) -0.04397(2) 0.61043(2) 0.0549 Uani
Ag1G Ag 0.45190(5) -0.16736(5) 0.41777(5) 0.0694 Uani
Ag1E Ag 0.58223(5) -0.04810(5) 0.66736(5) 0.0694 Uani
Ag1H Ag -0.08223(5) 0.04810(5) 0.16736(5) 0.0694 Uani
Ag2G Ag 0.52395(5) -0.07796(5) 0.49051(5) 0.0704 Uani
Ag2E Ag 0.50949(5) 0.02395(5) 0.57796(5) 0.0704 Uani
Ag2H Ag -0.00949(5) -0.02395(5) 0.07796(5) 0.0704 Uani
Ag3G Ag 0.38326(6) -0.09570(5) 0.51232(5) 0.0759 Uani
Ag3E Ag 0.48768(5) -0.11674(6) 0.59570(5) 0.0759 Uani
Ag3H Ag 0.01232(5) 0.11674(6) 0.09570(5) 0.0759 Uani
Ag3I Ag 0.09570(5) 0.01232(5) 0.11674(6) 0.0759 Uani
Ag4E Ag 0.57415(9) -0.12699(7) 0.89037(7) 0.0759 Uani
Ag4H Ag -0.07415(9) 0.12699(7) 0.39037(7) 0.0759 Uani
Ag4J Ag -0.12699(7) -0.10963(7) 0.57415(9) 0.0759 Uani
Ag5J Ag -0.12628(7) 0.02374(5) 0.53763(6) 0.0942 Uani
Ag5H Ag -0.03763(6) 0.12628(7) 0.52374(5) 0.0942 Uani
Ag5E Ag 0.53763(6) -0.12628(7) 1.02374(5) 0.0942 Uani
Ag5A Ag 0.62628(7) -0.02374(5) 1.03763(6) 0.0942 Uani
Ag6J Ag -0.00362(5) -0.05701(7) 0.55794(6) 0.0953 Uani
Ag6H Ag -0.05794(6) 0.00362(5) 0.44299(7) 0.0953 Uani
Ag6E Ag 0.55794(6) -0.00362(5) 0.94299(7) 0.0953 Uani
Ag6I Ag 0.44299(7) -0.05794(6) 1.00362(5) 0.0953 Uani
Cu1G Cu 0.55067(7) -0.11049(8) 0.36680(7) 0.0634 Uani
Cu1E Cu 0.63320(7) 0.05067(7) 0.61049(8) 0.0634 Uani
Cu1H Cu -0.13320(7) -0.05067(7) 0.11049(8) 0.0634 Uani
Cu2E Cu 0.52532(8) -0.14517(7) 0.71755(7) 0.0637 Uani
Cu2H Cu -0.02532(8) 0.14517(7) 0.21755(7) 0.0637 Uani
Cu2G Cu 0.35483(7) -0.21755(7) 0.47468(8) 0.0637 Uani
Cu3J Cu -0.21995(6) -0.02664(7) 0.60928(7) 0.0536 Uani
Cu3E Cu 0.60928(7) -0.21995(6) 0.97336(7) 0.0536 Uani
Cu4E Cu 0.53124(7) -0.03469(7) 0.82256(6) 0.0537 Uani
Cu4H Cu -0.03124(7) 0.03469(7) 0.32256(6) 0.0537 Uani
Cl1G Cl 0.4501(2) -0.2176(2) 0.3642(2) 0.0977 Uani
Cl1E Cl 0.6358(2) -0.0499(2) 0.7176(2) 0.0977 Uani
S1E S 0.55291(13) 0.01964(13) 0.64164(12) 0.0490 Uani
S1H S -0.05291(13) -0.01964(13) 0.14164(12) 0.0490 Uani
S1G S 0.51964(13) -0.14164(12) 0.44709(13) 0.0490 Uani
S2E S 0.44207(13) -0.06534(13) 0.65327(12) 0.0487 Uani
S2H S 0.05793(13) 0.06534(13) 0.15327(12) 0.0487 Uani
S2G S 0.43466(13) -0.15327(12) 0.55793(13) 0.0487 Uani
S3G S 0.38619(14) -0.13674(13) 0.44659(14) 0.0543 Uani
S3E S 0.55341(14) -0.11381(14) 0.63674(13) 0.0543 Uani
S4G S 0.47400(14) -0.02776(13) 0.43862(12) 0.0493 Uani
S4E S 0.56138(12) -0.02600(14) 0.52776(13) 0.0493 Uani
S5J S -0.15864(12) -0.04575(14) 0.54305(14) 0.0523 Uani
S5E S 0.54305(14) -0.15864(12) 0.95425(14) 0.0523 Uani
S5H S -0.04305(14) 0.15864(12) 0.45425(14) 0.0523 Uani
S6E S 0.47244(14) -0.03888(14) 0.93754(14) 0.0563 Uani
S6H S 0.02756(14) 0.03888(14) 0.43754(14) 0.0563 Uani
S6J S -0.03888(14) -0.06246(14) 0.47244(14) 0.0563 Uani
S7E S 0.58794(15) -0.0513(2) 0.89335(14) 0.0603 Uani
S7H S -0.08794(15) 0.0513(2) 0.39335(14) 0.0603 Uani
S7J S -0.0513(2) -0.10665(14) 0.58794(15) 0.0603 Uani
S8J S -0.09698(14) 0.02139(13) 0.62202(14) 0.0537 Uani
S8E S 0.62202(14) -0.09698(14) 1.02139(13) 0.0537 Uani
S8H S -0.12202(14) 0.09698(14) 0.52139(13) 0.0537 Uani
O1E O 0.6081(4) 0.1010(4) 0.6082(4) 0.0763 Uani
O1H O -0.1081(4) -0.1010(4) 0.1082(4) 0.0763 Uani
O1G O 0.6010(4) -0.1082(4) 0.3919(4) 0.0763 Uani
O2E O 0.5763(6) 0.1484(5) 0.6477(6) 0.1113 Uani
O2H O -0.0763(6) -0.1484(5) 0.1477(6) 0.1113 Uani
O3G O 0.4946(4) -0.1101(4) 0.3475(3) 0.0583 Uani
O3E O 0.6525(3) -0.0054(4) 0.6101(4) 0.0583 Uani
O4G O 0.4425(3) -0.0712(4) 0.3290(3) 0.0570 Uani
O4E O 0.6710(3) -0.0575(3) 0.5712(4) 0.0570 Uani
O5E O 0.5290(3) -0.0908(4) 0.7342(4) 0.0637 Uani
O5H O -0.0290(3) 0.0908(4) 0.2342(4) 0.0637 Uani
O6E O 0.4914(3) -0.0381(3) 0.7619(3) 0.0533 Uani
O6H O 0.0086(3) 0.0381(3) 0.2619(3) 0.0533 Uani
O7G O 0.3021(5) -0.1904(5) 0.4812(5) 0.0923 Uani
O7E O 0.5188(5) -0.1979(5) 0.6904(5) 0.0923 Uani
O7H O -0.0188(5) 0.1979(5) 0.1904(5) 0.0923 Uani
O8G O 0.2570(5) -0.1562(7) 0.4408(8) 0.1437 Uani
O8E O 0.5592(8) -0.2430(5) 0.6562(7) 0.1437 Uani
O9J O -0.2442(3) 0.0113(3) 0.5696(3) 0.0487 Uani
O9E O 0.5696(3) -0.2442(3) 1.0113(3) 0.0487 Uani
O10J O -0.2663(4) 0.0125(4) 0.5044(4) 0.0630 Uani
O10E O 0.5044(4) -0.2663(4) 1.0125(4) 0.0630 Uani
O11J O -0.1865(3) -0.0620(4) 0.6414(4) 0.0610 Uani
O11E O 0.6414(4) -0.1865(3) 0.9380(4) 0.0610 Uani
O12J O -0.1435(6) -0.0650(5) 0.6938(6) 0.1147 Uani
O12E O 0.6938(6) -0.1435(6) 0.9350(5) 0.1147 Uani
O13E O 0.5092(3) -0.0878(3) 0.8367(3) 0.0540 Uani
O13H O -0.0092(3) 0.0878(3) 0.3367(3) 0.0540 Uani
O14E O 0.4480(5) -0.1194(4) 0.8436(4) 0.0817 Uani
O14H O 0.0520(5) 0.1194(4) 0.3436(4) 0.0817 Uani
O15E O 0.5579(4) 0.0187(4) 0.8204(3) 0.0710 Uani
O15H O -0.0579(4) -0.0187(4) 0.3204(3) 0.0710 Uani
O16E O 0.6185(4) 0.0506(4) 0.8142(4) 0.0713 Uani
O16H O -0.1185(4) -0.0506(4) 0.3142(4) 0.0713 Uani
O17E O 0.5901(10) -0.1457(7) 0.8232(6) 0.1083 Uani
O17H O -0.0901(10) 0.1457(7) 0.3232(6) 0.1083 Uani
O18G O 0.5740(4) -0.0964(5) 0.2967(4) 0.0817 Uani
O18E O 0.7033(4) 0.0740(4) 0.5964(5) 0.0817 Uani
O19E O 0.5161(7) -0.1665(6) 0.7876(5) 0.1163 Uani
O19H O -0.0161(7) 0.1665(6) 0.2876(5) 0.1163 Uani
O20J O -0.2746(4) -0.0251(5) 0.6534(4) 0.0860 Uani
O20E O 0.6534(4) -0.2746(4) 0.9749(5) 0.0860 Uani
N1E N 0.6296(4) 0.0570(5) 0.6704(5) 0.0653 Uani
N1H N -0.1296(4) -0.0570(5) 0.1704(5) 0.0653 Uani
N1G N 0.5570(5) -0.1704(5) 0.3704(4) 0.0653 Uani
N2G N 0.5426(5) -0.0509(5) 0.3762(4) 0.0697 Uani
N2E N 0.6238(4) 0.0426(5) 0.5509(5) 0.0697 Uani
N3E N 0.4665(5) -0.1360(4) 0.7120(5) 0.0723 Uani
N3H N 0.0335(5) 0.1360(4) 0.2120(5) 0.0723 Uani
N4G N 0.3468(6) -0.2116(5) 0.4139(6) 0.0980 Uani
N4E N 0.5861(6) -0.1532(6) 0.7116(5) 0.0980 Uani
N4H N -0.0861(6) 0.1532(6) 0.2116(5) 0.0980 Uani
N5J N -0.2424(4) -0.0692(4) 0.5725(4) 0.0533 Uani
N5E N 0.5725(4) -0.2424(4) 0.9308(4) 0.0533 Uani
N6J N -0.1911(4) 0.0172(4) 0.6365(4) 0.0563 Uani
N6E N 0.6365(4) -0.1911(4) 1.0172(4) 0.0563 Uani
N7E N 0.4828(4) -0.0135(4) 0.8484(4) 0.0593 Uani
N7H N 0.0172(4) 0.0135(4) 0.3484(4) 0.0593 Uani
N8E N 0.5860(4) -0.0549(5) 0.8030(4) 0.0587 Uani
N8H N -0.0860(4) 0.0549(5) 0.3030(4) 0.0587 Uani
C1E C 0.5940(6) 0.1135(5) 0.6414(6) 0.1027 Uani
C1H C -0.0940(6) -0.1135(5) 0.1414(6) 0.1027 Uani
C2E C 0.5943(4) 0.0844(5) 0.6792(5) 0.0620 Uani
C2H C -0.0943(4) -0.0844(5) 0.1792(5) 0.0620 Uani
C3E C 0.5554(5) 0.0595(5) 0.6828(4) 0.0687 Uani
C3H C -0.0554(5) -0.0595(5) 0.1828(4) 0.0687 Uani
C4E C 0.5544(6) 0.0374(7) 0.7248(5) 0.0677 Uani
C4H C -0.0544(6) -0.0374(7) 0.2248(5) 0.0677 Uani
C5E C 0.5160(5) 0.0865(5) 0.6795(6) 0.0620 Uani
C5H C -0.0160(5) -0.0865(5) 0.1795(6) 0.0620 Uani
C6G C 0.4773(4) -0.0756(4) 0.3457(5) 0.0497 Uani
C6E C 0.6543(5) -0.0227(4) 0.5756(4) 0.0497 Uani
C7G C 0.5021(5) -0.0369(5) 0.3597(5) 0.0637 Uani
C7E C 0.6403(5) 0.0021(5) 0.5369(5) 0.0637 Uani
C8G C 0.4809(4) -0.0060(4) 0.3875(4) 0.0537 Uani
C8E C 0.6125(4) -0.0191(4) 0.5060(4) 0.0537 Uani
C9G C 0.5100(6) 0.0305(5) 0.3917(6) 0.0627 Uani
C9E C 0.6083(6) 0.0100(6) 0.4695(5) 0.0627 Uani
C10G C 0.4392(6) 0.0063(6) 0.3688(6) 0.0800 Uani
C10E C 0.6312(6) -0.0608(6) 0.4937(6) 0.0800 Uani
C11E C 0.4955(4) -0.0724(4) 0.7425(4) 0.0573 Uani
C11H C 0.0045(4) 0.0724(4) 0.2425(4) 0.0573 Uani
C12E C 0.4549(4) -0.0950(4) 0.7306(5) 0.0557 Uani
C12H C 0.0451(4) 0.0950(4) 0.2306(5) 0.0557 Uani
C13E C 0.4230(5) -0.0720(4) 0.7060(5) 0.0557 Uani
C13H C 0.0770(5) 0.0720(4) 0.2060(5) 0.0557 Uani
C14E C 0.3850(6) -0.1008(7) 0.7027(6) 0.0780 Uani
C14H C 0.1150(6) 0.1008(7) 0.2027(6) 0.0780 Uani
C15E C 0.4113(6) -0.0295(5) 0.7243(5) 0.0680 Uani
C15H C 0.0887(6) 0.0295(5) 0.2243(5) 0.0680 Uani
C16G C 0.2904(5) -0.1759(7) 0.4472(7) 0.1117 Uani
C16E C 0.5528(7) -0.2096(5) 0.6759(7) 0.1117 Uani
C17G C 0.3220(6) -0.1733(5) 0.4112(7) 0.0977 Uani
C17E C 0.5888(7) -0.1780(6) 0.6733(5) 0.0977 Uani
C18G C 0.3473(5) -0.1345(5) 0.4050(5) 0.0607 Uani
C18E C 0.5950(5) -0.1527(5) 0.6345(5) 0.0607 Uani
C19G C 0.3701(6) -0.1328(6) 0.3637(5) 0.0790 Uani
C19E C 0.6363(5) -0.1299(6) 0.6328(6) 0.0790 Uani
C20G C 0.3218(7) -0.0950(6) 0.4088(8) 0.0910 Uani
C20E C 0.5912(8) -0.1782(7) 0.5950(6) 0.0910 Uani
C21J C -0.2517(5) -0.0053(4) 0.5355(5) 0.0603 Uani
C21E C 0.5355(5) -0.2517(5) 0.9947(4) 0.0603 Uani
C22J C -0.2406(4) -0.0513(4) 0.5302(4) 0.0520 Uani
C22E C 0.5302(4) -0.2406(4) 0.9487(4) 0.0520 Uani
C23J C -0.2003(4) -0.0611(4) 0.5092(5) 0.0497 Uani
C23E C 0.5092(5) -0.2003(4) 0.9389(4) 0.0497 Uani
C24J C -0.1979(7) -0.1075(5) 0.5024(6) 0.0717 Uani
C24E C 0.5024(6) -0.1979(7) 0.8925(5) 0.0717 Uani
C25J C -0.1977(6) -0.0374(8) 0.4683(5) 0.0793 Uani
C25E C 0.4683(5) -0.1977(6) 0.9626(8) 0.0793 Uani
C26J C -0.1642(5) -0.0451(5) 0.6680(5) 0.0713 Uani
C26E C 0.6680(5) -0.1642(5) 0.9549(5) 0.0713 Uani
C27J C -0.1647(5) 0.0030(5) 0.6720(5) 0.0660 Uani
C27E C 0.6720(5) -0.1647(5) 1.0030(5) 0.0660 Uani
C28J C -0.1227(4) 0.0232(4) 0.6741(5) 0.0580 Uani
C28E C 0.6741(5) -0.1227(4) 1.0232(4) 0.0580 Uani
C29J C -0.0928(6) 0.0065(7) 0.7058(6) 0.0770 Uani
C29E C 0.7058(6) -0.0928(6) 1.0065(7) 0.0770 Uani
C30J C -0.1311(8) 0.0696(5) 0.6815(7) 0.0877 Uani
C30E C 0.6815(7) -0.1311(8) 1.0696(5) 0.0877 Uani
C31E C 0.4722(4) -0.0887(4) 0.8455(5) 0.0543 Uani
C31H C 0.0278(4) 0.0887(4) 0.3455(5) 0.0543 Uani
C32E C 0.4523(5) -0.0472(4) 0.8560(4) 0.0590 Uani
C32H C 0.0477(5) 0.0472(4) 0.3560(4) 0.0590 Uani
C33E C 0.4316(5) -0.0443(5) 0.8982(4) 0.0553 Uani
C33H C 0.0684(5) 0.0443(5) 0.3982(4) 0.0553 Uani
C34E C 0.4054(6) -0.0831(7) 0.9101(6) 0.0907 Uani
C34H C 0.0946(6) 0.0831(7) 0.4101(6) 0.0907 Uani
C35E C 0.4064(7) -0.0039(6) 0.9017(7) 0.0837 Uani
C35H C 0.0936(7) 0.0039(6) 0.4017(7) 0.0837 Uani
C36E C 0.5967(4) 0.0192(5) 0.8177(5) 0.0660 Uani
C36H C -0.0967(4) -0.0192(5) 0.3177(5) 0.0660 Uani
C37E C 0.6168(5) -0.0241(5) 0.8187(5) 0.0647 Uani
C37H C -0.1168(5) 0.0241(5) 0.3187(5) 0.0647 Uani
C38E C 0.6310(6) -0.0364(5) 0.8611(5) 0.0710 Uani
C38H C -0.1310(6) 0.0364(5) 0.3611(5) 0.0710 Uani
C39E C 0.6582(8) -0.0748(7) 0.8583(7) 0.0893 Uani
C39H C -0.1582(8) 0.0748(7) 0.3583(7) 0.0893 Uani
C40E C 0.6569(6) -0.0019(6) 0.8810(5) 0.0680 Uani
C40H C -0.1569(6) 0.0019(6) 0.3810(5) 0.0680 Uani
O21 O 0.2071(7) 0.0814(13) 0.3712(10) 0.2490 Uani
O22 O 0.2910(16) 0.1928(11) 0.3849(18) 0.2213 Uani
O23 O 0.3322(9) 0.2531(7) 0.4027(14) 0.2657 Uani
O24 O 0.4138(12) 0.0882(10) 0.2902(8) 0.2467 Uani
O25 O 0.1870(9) -0.0715(8) 0.4482(9) 0.0810 Uani
loop_
_atom_site_aniso_label
_atom_site_aniso_U_11
_atom_site_aniso_U_22
_atom_site_aniso_U_33
_atom_site_aniso_U_23
_atom_site_aniso_U_13
_atom_site_aniso_U_12
Au1 0.0431(4) 0.0422(4) 0.0529(4) -0.0050(3) -0.0042(3) 0.0059(3)
Au2 0.0451(4) 0.0439(4) 0.0575(4) -0.0034(3) -0.0107(3) 0.0047(3)
Au3 0.0500(4) 0.0603(4) 0.0452(4) -0.0072(3) -0.0013(3) 0.0009(3)
Au4 0.0483(4) 0.0590(4) 0.0574(4) -0.0044(3) -0.0073(3) 0.0031(3)
Ag1 0.0674(9) 0.0714(10) 0.0695(9) -0.0206(8) -0.0212(8) 0.0315(8)
Ag2 0.0576(9) 0.0637(9) 0.0898(11) -0.0166(8) 0.0131(8) 0.0117(7)
Ag3 0.0642(9) 0.0676(10) 0.0958(12) 0.0193(9) -0.0172(9) 0.0084(8)
Ag4 0.0455(12) 0.116(2) 0.0663(14) 0.0344(14) -0.0176(10) -0.0231(13)
Ag5 0.0513(9) 0.0824(12) 0.149(2) -0.0309(12) -0.0214(10) 0.0023(8)
Ag6 0.118(2) 0.0982(13) 0.0698(11) -0.0280(10) -0.0352(11) 0.0390(12)
Cu1 0.079(2) 0.0476(12) 0.0636(14) 0.0050(11) -0.0167(12) 0.0024(11)
Cu2 0.0538(13) 0.0706(15) 0.0666(15) -0.0121(12) -0.0047(11) 0.0053(12)
Cu3 0.0603(13) 0.0523(12) 0.0483(12) -0.0019(10) -0.0056(10) -0.0034(10)
Cu4 0.0425(11) 0.0603(13) 0.0584(13) -0.0018(10) -0.0076(10) 0.0015(10)
Cl1 0.056(3) 0.065(3) 0.172(7) -0.022(4) -0.032(4) 0.018(3)
Cl2 0.050(2) 0.050(2) 0.050(2) 0.000(2) 0.000(2) 0.000(2)
Cl3 0.056(2) 0.056(2) 0.056(2) -0.003(2) 0.003(2) 0.003(2)
S1 0.046(2) 0.045(2) 0.056(2) -0.002(2) -0.010(2) 0.008(2)
S2 0.042(2) 0.049(2) 0.055(2) 0.001(2) -0.003(2) 0.006(2)
S3 0.045(2) 0.059(3) 0.059(3) -0.010(2) -0.004(2) 0.008(2)
S4 0.049(2) 0.037(2) 0.062(3) 0.000(2) -0.007(2) 0.001(2)
S5 0.062(3) 0.056(3) 0.039(2) -0.009(2) -0.002(2) -0.004(2)
S6 0.054(3) 0.057(3) 0.058(3) -0.016(2) -0.004(2) -0.004(2)
S7 0.046(2) 0.062(3) 0.073(3) 0.001(2) -0.003(2) 0.005(2)
S8 0.047(2) 0.060(3) 0.054(3) 0.001(2) -0.005(2) 0.002(2)
O1 0.090(10) 0.069(9) 0.070(9) -0.014(7) 0.003(8) -0.019(8)
O2 0.131(15) 0.120(14) 0.083(11) 0.017(11) -0.015(10) -0.047(12)
O3 0.074(9) 0.045(7) 0.056(7) 0.001(6) 0.006(7) 0.009(6)
O4 0.058(7) 0.049(7) 0.064(8) 0.001(6) -0.002(6) -0.007(6)
O5 0.056(7) 0.045(7) 0.090(10) -0.016(7) 0.003(7) 0.007(6)
O6 0.052(7) 0.043(6) 0.065(8) -0.008(5) -0.007(6) 0.009(5)
O7 0.105(12) 0.099(12) 0.073(10) -0.025(9) -0.019(9) -0.025(10)
O8 0.154(19) 0.212(25) 0.065(11) -0.030(13) 0.000(12) -0.012(18)
O9 0.043(6) 0.049(7) 0.054(7) -0.009(5) 0.004(5) 0.004(5)
O10 0.060(8) 0.068(8) 0.061(8) -0.016(7) 0.001(6) -0.017(7)
O11 0.062(8) 0.081(9) 0.040(6) 0.013(6) -0.018(6) -0.009(7)
O12 0.087(12) 0.128(15) 0.129(15) -0.019(13) 0.007(11) -0.023(11)
O13 0.050(7) 0.055(7) 0.057(7) -0.013(6) 0.012(5) -0.006(6)
O14 0.078(10) 0.098(11) 0.069(9) 0.007(8) -0.003(7) 0.003(8)
O15 0.041(7) 0.123(13) 0.049(7) -0.008(8) -0.016(6) -0.001(7)
O16 0.065(8) 0.074(9) 0.075(9) 0.024(8) -0.011(7) 0.001(7)
O17 0.051(12) 0.187(28) 0.087(16) 0.069(18) 0.007(11) 0.040(15)
O18 0.112(12) 0.046(7) 0.087(10) 0.005(7) -0.047(9) 0.001(7)
O19 0.065(10) 0.168(18) 0.116(14) -0.050(13) 0.020(9) -0.004(11)
O20 0.147(14) 0.058(8) 0.053(8) -0.014(7) 0.018(9) 0.009(9)
N1 0.077(11) 0.038(8) 0.081(11) -0.014(8) -0.027(9) 0.019(7)
N2 0.095(13) 0.037(8) 0.077(11) 0.002(7) 0.006(10) -0.002(8)
N3 0.084(12) 0.069(11) 0.064(10) -0.008(8) -0.038(9) 0.032(9)
N4 0.082(12) 0.085(13) 0.127(16) -0.074(12) -0.031(12) 0.040(10)
N5 0.054(8) 0.051(8) 0.055(8) -0.013(7) -0.013(7) 0.008(7)
N6 0.056(9) 0.068(10) 0.045(8) 0.009(7) 0.004(7) -0.003(7)
N7 0.051(9) 0.055(9) 0.072(10) -0.004(8) -0.003(8) 0.004(7)
N8 0.039(8) 0.049(8) 0.088(11) -0.011(8) -0.016(7) 0.009(6)
C1 0.241(37) 0.040(11) 0.027(10) -0.004(8) 0.009(16) 0.005(16)
C2 0.090(14) 0.037(9) 0.059(12) 0.001(8) -0.018(10) 0.018(9)
C3 0.040(10) 0.078(13) 0.088(14) 0.006(11) -0.020(9) 0.010(9)
C4 0.040(10) 0.061(12) 0.102(16) -0.007(11) 0.004(10) 0.017(9)
C5 0.090(14) 0.052(11) 0.044(10) -0.011(8) 0.009(9) -0.001(10)
C6 0.052(10) 0.043(9) 0.054(10) 0.007(8) -0.019(9) -0.008(8)
C7 0.061(11) 0.078(13) 0.052(11) -0.017(10) -0.011(9) -0.017(10)
C8 0.058(11) 0.034(9) 0.069(11) 0.006(8) -0.009(9) -0.011(8)
C9 0.051(11) 0.061(11) 0.076(13) -0.005(10) 0.005(9) -0.003(9)
C10 0.042(10) 0.053(11) 0.145(21) -0.019(13) -0.018(12) -0.006(9)
C11 0.029(8) 0.083(14) 0.060(11) 0.013(10) 0.012(8) 0.011(9)
C12 0.072(12) 0.040(9) 0.055(11) -0.002(8) -0.001(9) -0.003(8)
C13 0.047(9) 0.059(11) 0.061(11) -0.010(9) 0.005(8) 0.018(8)
C14 0.049(11) 0.057(12) 0.128(19) 0.030(12) 0.023(12) 0.006(9)
C15 0.042(10) 0.072(13) 0.090(15) -0.029(11) -0.012(10) 0.010(9)
C16 0.092(19) 0.209(37) 0.034(12) -0.009(17) 0.010(12) 0.015(21)
C17 0.051(12) 0.143(24) 0.099(18) -0.065(18) -0.014(12) 0.005(13)
C18 0.083(13) 0.044(10) 0.055(11) -0.017(8) -0.019(10) 0.004(9)
C19 0.068(13) 0.080(15) 0.089(15) -0.044(13) -0.027(12) -0.004(11)
C20 0.070(14) 0.101(18) 0.102(18) -0.010(14) -0.006(13) -0.005(13)
C21 0.059(11) 0.085(15) 0.037(9) -0.008(9) 0.012(8) -0.028(11)
C22 0.061(11) 0.057(11) 0.038(9) 0.010(8) -0.012(8) 0.011(9)
C23 0.057(10) 0.053(10) 0.039(9) 0.000(7) -0.004(8) 0.007(8)
C24 0.060(12) 0.070(13) 0.085(14) -0.011(11) 0.000(11) 0.018(10)
C25 0.131(20) 0.064(13) 0.043(11) -0.010(9) 0.001(11) -0.017(13)
C26 0.080(14) 0.074(14) 0.060(12) -0.010(11) 0.002(11) -0.058(12)
C27 0.063(12) 0.055(11) 0.080(14) 0.003(10) 0.001(10) 0.014(9)
C28 0.055(11) 0.066(12) 0.053(11) -0.008(9) -0.008(9) 0.007(9)
C29 0.110(18) 0.056(12) 0.065(13) 0.004(10) -0.013(12) 0.006(12)
C30 0.068(14) 0.084(15) 0.111(18) 0.012(13) 0.011(13) 0.053(12)
C31 0.048(10) 0.074(13) 0.041(10) -0.011(9) 0.007(8) 0.011(9)
C32 0.037(9) 0.070(12) 0.070(12) -0.005(10) 0.005(8) -0.006(8)
C33 0.041(9) 0.056(10) 0.069(11) -0.010(9) 0.012(8) -0.019(8)
C34 0.060(13) 0.059(12) 0.153(24) 0.011(14) -0.025(14) -0.007(10)
C35 0.070(13) 0.093(16) 0.088(15) -0.041(13) 0.001(12) -0.020(12)
C36 0.040(10) 0.034(10) 0.124(20) -0.013(11) -0.016(11) -0.006(8)
C37 0.054(11) 0.055(11) 0.085(14) -0.001(10) -0.018(10) 0.008(9)
C38 0.037(10) 0.079(14) 0.097(16) 0.000(12) -0.002(10) 0.004(9)
C39 0.072(14) 0.104(18) 0.092(16) -0.047(15) 0.004(13) 0.006(13)
C40 0.023(8) 0.067(12) 0.114(17) 0.005(12) -0.011(9) 0.009(8)
Au1E 0.0422 0.0529 0.0431 -0.0042 -0.0059 0.005
Au1H 0.0422 0.0529 0.0431 0.0042 0.0059 0.005
Au1G 0.0529 0.0431 0.0422 -0.0059 -0.005 0.0042
Au2G 0.0575 0.0451 0.0439 -0.0047 -0.0034 0.0107
Au2E 0.0439 0.0575 0.0451 -0.0107 -0.0047 0.0034
Au3E 0.0603 0.0452 0.05 -0.0013 -0.0009 0.0072
Au3H 0.0603 0.0452 0.05 0.0013 0.0009 0.0072
Au3J 0.0452 0.05 0.0603 -0.0009 0.0072 -0.0013
Au4E 0.059 0.0574 0.0483 -0.0073 -0.0031 0.0044
Au4H 0.059 0.0574 0.0483 0.0073 0.0031 0.0044
Au4J 0.0574 0.0483 0.059 -0.0031 0.0044 -0.0073
Ag1G 0.0695 0.0674 0.0714 -0.0315 -0.0206 0.0212
Ag1E 0.0714 0.0695 0.0674 -0.0212 -0.0315 0.0206
Ag1H 0.0714 0.0695 0.0674 0.0212 0.0315 0.0206
Ag2G 0.0898 0.0576 0.0637 -0.0117 -0.0166 -0.0131
Ag2E 0.0637 0.0898 0.0576 0.0131 -0.0117 0.0166
Ag2H 0.0637 0.0898 0.0576 -0.0131 0.0117 0.0166
Ag3G 0.0958 0.0642 0.0676 -0.0084 0.0193 0.0172
Ag3E 0.0676 0.0958 0.0642 -0.0172 -0.0084 -0.0193
Ag3H 0.0676 0.0958 0.0642 0.0172 0.0084 -0.0193
Ag3I 0.0642 0.0676 0.0958 -0.0193 0.0172 0.0084
Ag4E 0.116 0.0663 0.0455 -0.0176 0.0231 -0.0344
Ag4H 0.116 0.0663 0.0455 0.0176 -0.0231 -0.0344
Ag4J 0.0663 0.0455 0.116 0.0231 -0.0344 -0.0176
Ag5J 0.149 0.0513 0.0824 -0.0023 0.0309 -0.0214
Ag5H 0.0824 0.149 0.0513 0.0214 0.0023 0.0309
Ag5E 0.0824 0.149 0.0513 -0.0214 -0.0023 0.0309
Ag5A 0.149 0.0513 0.0824 0.0023 -0.0309 -0.0214
Ag6J 0.0698 0.118 0.0982 -0.039 0.028 -0.0352
Ag6H 0.0982 0.0698 0.118 0.0352 0.039 0.028
Ag6E 0.0982 0.0698 0.118 -0.0352 -0.039 0.028
Ag6I 0.118 0.0982 0.0698 0.028 0.0352 0.039
Cu1G 0.0636 0.079 0.0476 -0.0024 0.005 0.0167
Cu1E 0.0476 0.0636 0.079 -0.0167 -0.0024 -0.005
Cu1H 0.0476 0.0636 0.079 0.0167 0.0024 -0.005
Cu2E 0.0706 0.0666 0.0538 -0.0047 -0.0053 0.0121
Cu2H 0.0706 0.0666 0.0538 0.0047 0.0053 0.0121
Cu2G 0.0666 0.0538 0.0706 -0.0053 -0.0121 0.0047
Cu3J 0.0483 0.0603 0.0523 0.0034 0.0019 -0.0056
Cu3E 0.0523 0.0483 0.0603 -0.0056 0.0034 0.0019
Cu4E 0.0603 0.0584 0.0425 -0.0076 -0.0015 0.0018
Cu4H 0.0603 0.0584 0.0425 0.0076 0.0015 0.0018
Cl1G 0.172 0.056 0.065 -0.018 -0.022 0.032
Cl1E 0.065 0.172 0.056 -0.032 -0.018 0.022
S1E 0.045 0.056 0.046 -0.01 -0.008 0.002
S1H 0.045 0.056 0.046 0.01 0.008 0.002
S1G 0.056 0.046 0.045 -0.008 -0.002 0.01
S2E 0.049 0.055 0.042 -0.003 -0.006 -0.001
S2H 0.049 0.055 0.042 0.003 0.006 -0.001
S2G 0.055 0.042 0.049 -0.006 0.001 0.003
S3G 0.059 0.045 0.059 -0.008 -0.01 0.004
S3E 0.059 0.059 0.045 -0.004 -0.008 0.01
S4G 0.062 0.049 0.037 -0.001 0 0.007
S4E 0.037 0.062 0.049 -0.007 -0.001 0
S5J 0.039 0.062 0.056 0.004 0.009 -0.002
S5E 0.056 0.039 0.062 -0.002 0.004 0.009
S5H 0.056 0.039 0.062 0.002 -0.004 0.009
S6E 0.057 0.058 0.054 -0.004 0.004 0.016
S6H 0.057 0.058 0.054 0.004 -0.004 0.016
S6J 0.058 0.054 0.057 0.004 0.016 -0.004
S7E 0.062 0.073 0.046 -0.003 -0.005 -0.001
S7H 0.062 0.073 0.046 0.003 0.005 -0.001
S7J 0.073 0.046 0.062 -0.005 -0.001 -0.003
S8J 0.054 0.047 0.06 -0.002 -0.001 -0.005
S8E 0.06 0.054 0.047 -0.005 -0.002 -0.001
S8H 0.06 0.054 0.047 0.005 0.002 -0.001
O1E 0.069 0.07 0.09 0.003 0.019 0.014
O1H 0.069 0.07 0.09 -0.003 -0.019 0.014
O1G 0.07 0.09 0.069 0.019 -0.014 -0.003
O2E 0.12 0.083 0.131 -0.015 0.047 -0.017
O2H 0.12 0.083 0.131 0.015 -0.047 -0.017
O3G 0.056 0.074 0.045 -0.009 0.001 -0.006
O3E 0.045 0.056 0.074 0.006 -0.009 -0.001
O4G 0.064 0.058 0.049 0.007 0.001 0.002
O4E 0.049 0.064 0.058 -0.002 0.007 -0.001
O5E 0.045 0.09 0.056 0.003 -0.007 0.016
O5H 0.045 0.09 0.056 -0.003 0.007 0.016
O6E 0.043 0.065 0.052 -0.007 -0.009 0.008
O6H 0.043 0.065 0.052 0.007 0.009 0.008
O7G 0.073 0.105 0.099 0.025 -0.025 0.019
O7E 0.099 0.073 0.105 -0.019 0.025 0.025
O7H 0.099 0.073 0.105 0.019 -0.025 0.025
O8G 0.065 0.154 0.212 0.012 -0.03 0
O8E 0.212 0.065 0.154 0 0.012 0.03
O9J 0.054 0.043 0.049 -0.004 0.009 0.004
O9E 0.049 0.054 0.043 0.004 -0.004 0.009
O10J 0.061 0.06 0.068 0.017 0.016 0.001
O10E 0.068 0.061 0.06 0.001 0.017 0.016
O11J 0.04 0.062 0.081 0.009 -0.013 -0.018
O11E 0.081 0.04 0.062 -0.018 0.009 -0.013
O12J 0.129 0.087 0.128 0.023 0.019 0.007
O12E 0.128 0.129 0.087 0.007 0.023 0.019
O13E 0.055 0.057 0.05 0.012 0.006 0.013
O13H 0.055 0.057 0.05 -0.012 -0.006 0.013
O14E 0.098 0.069 0.078 -0.003 -0.003 -0.007
O14H 0.098 0.069 0.078 0.003 0.003 -0.007
O15E 0.123 0.049 0.041 -0.016 0.001 0.008
O15H 0.123 0.049 0.041 0.016 -0.001 0.008
O16E 0.074 0.075 0.065 -0.011 -0.001 -0.024
O16H 0.074 0.075 0.065 0.011 0.001 -0.024
O17E 0.187 0.087 0.051 0.007 -0.04 -0.069
O17H 0.187 0.087 0.051 -0.007 0.04 -0.069
O18G 0.087 0.112 0.046 -0.001 0.005 0.047
O18E 0.046 0.087 0.112 -0.047 -0.001 -0.005
O19E 0.168 0.116 0.065 0.02 0.004 0.05
O19H 0.168 0.116 0.065 -0.02 -0.004 0.05
O20J 0.053 0.147 0.058 -0.009 0.014 0.018
O20E 0.058 0.053 0.147 0.018 -0.009 0.014
N1E 0.038 0.081 0.077 -0.027 -0.019 0.014
N1H 0.038 0.081 0.077 0.027 0.019 0.014
N1G 0.081 0.077 0.038 -0.019 -0.014 0.027
N2G 0.077 0.095 0.037 0.002 0.002 -0.006
N2E 0.037 0.077 0.095 0.006 0.002 -0.002
N3E 0.069 0.064 0.084 -0.038 -0.032 0.008
N3H 0.069 0.064 0.084 0.038 0.032 0.008
N4G 0.127 0.082 0.085 -0.04 -0.074 0.031
N4E 0.085 0.127 0.082 -0.031 -0.04 0.074
N4H 0.085 0.127 0.082 0.031 0.04 0.074
N5J 0.055 0.054 0.051 -0.008 0.013 -0.013
N5E 0.051 0.055 0.054 -0.013 -0.008 0.013
N6J 0.045 0.056 0.068 0.003 -0.009 0.004
N6E 0.068 0.045 0.056 0.004 0.003 -0.009
N7E 0.055 0.072 0.051 -0.003 -0.004 0.004
N7H 0.055 0.072 0.051 0.003 0.004 0.004
N8E 0.049 0.088 0.039 -0.016 -0.009 0.011
N8H 0.049 0.088 0.039 0.016 0.009 0.011
C1E 0.04 0.027 0.241 0.009 -0.005 0.004
C1H 0.04 0.027 0.241 -0.009 0.005 0.004
C2E 0.037 0.059 0.09 -0.018 -0.018 -0.001
C2H 0.037 0.059 0.09 0.018 0.018 -0.001
C3E 0.078 0.088 0.04 -0.02 -0.01 -0.006
C3H 0.078 0.088 0.04 0.02 0.01 -0.006
C4E 0.061 0.102 0.04 0.004 -0.017 0.007
C4H 0.061 0.102 0.04 -0.004 0.017 0.007
C5E 0.052 0.044 0.09 0.009 0.001 0.011
C5H 0.052 0.044 0.09 -0.009 -0.001 0.011
C6G 0.054 0.052 0.043 0.008 0.007 0.019
C6E 0.043 0.054 0.052 -0.019 0.008 -0.007
C7G 0.052 0.061 0.078 0.017 -0.017 0.011
C7E 0.078 0.052 0.061 -0.011 0.017 0.017
C8G 0.069 0.058 0.034 0.011 0.006 0.009
C8E 0.034 0.069 0.058 -0.009 0.011 -0.006
C9G 0.076 0.051 0.061 0.003 -0.005 -0.005
C9E 0.061 0.076 0.051 0.005 0.003 0.005
C10G 0.145 0.042 0.053 0.006 -0.019 0.018
C10E 0.053 0.145 0.042 -0.018 0.006 0.019
C11E 0.083 0.06 0.029 0.012 -0.011 -0.013
C11H 0.083 0.06 0.029 -0.012 0.011 -0.013
C12E 0.04 0.055 0.072 -0.001 0.003 0.002
C12H 0.04 0.055 0.072 0.001 -0.003 0.002
C13E 0.059 0.061 0.047 0.005 -0.018 0.01
C13H 0.059 0.061 0.047 -0.005 0.018 0.01
C14E 0.057 0.128 0.049 0.023 -0.006 -0.03
C14H 0.057 0.128 0.049 -0.023 0.006 -0.03
C15E 0.072 0.09 0.042 -0.012 -0.01 0.029
C15H 0.072 0.09 0.042 0.012 0.01 0.029
C16G 0.034 0.092 0.209 -0.015 -0.009 -0.01
C16E 0.209 0.034 0.092 0.01 -0.015 0.009
C17G 0.099 0.051 0.143 -0.005 -0.065 0.014
C17E 0.143 0.099 0.051 -0.014 -0.005 0.065
C18G 0.055 0.083 0.044 -0.004 -0.017 0.019
C18E 0.044 0.055 0.083 -0.019 -0.004 0.017
C19G 0.089 0.068 0.08 0.004 -0.044 0.027
C19E 0.08 0.089 0.068 -0.027 0.004 0.044
C20G 0.102 0.07 0.101 0.005 -0.01 0.006
C20E 0.101 0.102 0.07 -0.006 0.005 0.01
C21J 0.037 0.059 0.085 0.028 0.008 0.012
C21E 0.085 0.037 0.059 0.012 0.028 0.008
C22J 0.038 0.061 0.057 -0.011 -0.01 -0.012
C22E 0.057 0.038 0.061 -0.012 -0.011 -0.01
C23J 0.039 0.057 0.053 -0.007 0 -0.004
C23E 0.053 0.039 0.057 -0.004 -0.007 0
C24J 0.085 0.06 0.07 -0.018 0.011 0
C24E 0.07 0.085 0.06 0 -0.018 0.011
C25J 0.043 0.131 0.064 0.017 0.01 0.001
C25E 0.064 0.043 0.131 0.001 0.017 0.01
C26J 0.06 0.08 0.074 0.058 0.01 0.002
C26E 0.074 0.06 0.08 0.002 0.058 0.01
C27J 0.08 0.063 0.055 -0.014 -0.003 0.001
C27E 0.055 0.08 0.063 0.001 -0.014 -0.003
C28J 0.053 0.055 0.066 -0.007 0.008 -0.008
C28E 0.066 0.053 0.055 -0.008 -0.007 0.008
C29J 0.065 0.11 0.056 -0.006 -0.004 -0.013
C29E 0.056 0.065 0.11 -0.013 -0.006 -0.004
C30J 0.111 0.068 0.084 -0.053 -0.012 0.011
C30E 0.084 0.111 0.068 0.011 -0.053 -0.012
C31E 0.074 0.041 0.048 0.007 -0.011 0.011
C31H 0.074 0.041 0.048 -0.007 0.011 0.011
C32E 0.07 0.07 0.037 0.005 0.006 0.005
C32H 0.07 0.07 0.037 -0.005 -0.006 0.005
C33E 0.056 0.069 0.041 0.012 0.019 0.01
C33H 0.056 0.069 0.041 -0.012 -0.019 0.01
C34E 0.059 0.153 0.06 -0.025 0.007 -0.011
C34H 0.059 0.153 0.06 0.025 -0.007 -0.011
C35E 0.093 0.088 0.07 0.001 0.02 0.041
C35H 0.093 0.088 0.07 -0.001 -0.02 0.041
C36E 0.034 0.124 0.04 -0.016 0.006 0.013
C36H 0.034 0.124 0.04 0.016 -0.006 0.013
C37E 0.055 0.085 0.054 -0.018 -0.008 0.001
C37H 0.055 0.085 0.054 0.018 0.008 0.001
C38E 0.079 0.097 0.037 -0.002 -0.004 0
C38H 0.079 0.097 0.037 0.002 0.004 0
C39E 0.104 0.092 0.072 0.004 -0.006 0.047
C39H 0.104 0.092 0.072 -0.004 0.006 0.047
C40E 0.067 0.114 0.023 -0.011 -0.009 -0.005
C40H 0.067 0.114 0.023 0.011 0.009 -0.005
O21 0.090(16) 0.428(53) 0.229(32) -0.155(35) 0.007(18) 0.082(24)
O22 0.249(52) 0.082(24) 0.333(66) 0.010(32) -0.283(54) -0.014(29)
O23 0.204(29) 0.077(14) 0.516(64) -0.042(25) 0.176(36) -0.029(16)
O24 0.379(48) 0.235(32) 0.126(19) 0.085(20) 0.093(25) 0.201(33)
O25 0.087(20) 0.070(17) 0.086(19) -0.030(15) 0.047(17) -0.024(15)
loop_
_geom_bond_atom_site_label_1
_geom_bond_atom_site_label_2
_geom_bond_site_symmetry_1
_geom_bond_site_symmetry_2
Au1 Ag1 1_555 1_555
Au2 Ag1 1_555 1_555
Au3 Ag4 1_555 1_555
Au4 Ag4 1_555 1_555
Ag1 Cl1 1_555 1_555
Ag2 Au1 1_555 1_555
Ag3 Au2 1_555 1_555
Ag4 S5 1_555 1_555
Ag5 Au3 1_555 1_555
Ag6 Au4 1_555 1_555
Cu1 O1 1_555 1_555
Cu2 O5 1_555 1_555
Cu3 O9 1_555 1_555
Cu4 O6 1_555 1_555
Cl2 Ag2 1_555 1_555
Cl3 Ag5 1_555 1_555
S1 Au1 1_555 1_555
S2 Au1 1_555 1_555
S3 Au2 1_555 1_555
S4 Au2 1_555 1_555
S5 Au3 1_555 1_555
S6 Au3 1_555 1_555
S7 Au4 1_555 1_555
S8 Au4 1_555 1_555
O1 C1 1_555 1_555
O2 C1 1_555 1_555
O3 Cu1 1_555 1_555
O4 C6 1_555 1_555
O5 C11 1_555 1_555
O6 C11 1_555 1_555
O7 Cu2 1_555 1_555
O8 C16 1_555 1_555
O9 C21 1_555 1_555
O10 C21 1_555 1_555
O11 Cu3 1_555 1_555
O12 C26 1_555 1_555
O13 Cu4 1_555 1_555
O14 C31 1_555 1_555
O15 Cu4 1_555 1_555
O16 C36 1_555 1_555
O17 Ag4 1_555 1_555
O18 Cu1 1_555 1_555
O19 Cu2 1_555 1_555
O20 Cu3 1_555 1_555
N1 Cu1 1_555 1_555
N2 Cu1 1_555 1_555
N3 Cu2 1_555 1_555
N4 Cu2 1_555 1_555
N5 Cu3 1_555 1_555
N6 Cu3 1_555 1_555
N7 Cu4 1_555 1_555
N8 Cu4 1_555 1_555
C1 C2 1_555 1_555
C2 N1 1_555 1_555
C3 S1 1_555 1_555
C4 C3 1_555 1_555
C5 C3 1_555 1_555
C6 O3 1_555 1_555
C7 N2 1_555 1_555
C8 S4 1_555 1_555
C9 C8 1_555 1_555
C10 C8 1_555 1_555
C11 C12 1_555 1_555
C12 N3 1_555 1_555
C13 S2 1_555 1_555
C14 C13 1_555 1_555
C15 C13 1_555 1_555
C16 O7 1_555 1_555
C17 N4 1_555 1_555
C18 S3 1_555 1_555
C19 C18 1_555 1_555
C20 C18 1_555 1_555
C21 C22 1_555 1_555
C22 N5 1_555 1_555
C23 S5 1_555 1_555
C24 C23 1_555 1_555
C25 C23 1_555 1_555
C26 O11 1_555 1_555
C27 N6 1_555 1_555
C28 S8 1_555 1_555
C29 C28 1_555 1_555
C30 C28 1_555 1_555
C31 O13 1_555 1_555
C32 N7 1_555 1_555
C33 S6 1_555 1_555
C34 C33 1_555 1_555
C35 C33 1_555 1_555
C36 O15 1_555 1_555
C37 N8 1_555 1_555
C38 S7 1_555 1_555
C39 C38 1_555 1_555
C40 C38 1_555 1_555
Au1E Ag3 1_555 1_555
Au1H Ag1H 1_555 1_555
Au1G Ag1G 1_555 1_555
Au2G Ag2 1_555 1_555
Au2E Ag1E 1_555 1_555
Au3E Ag4E 1_555 1_555
Au3H Ag6 1_555 1_555
Au3J Ag4J 1_555 1_555
Au4E Ag4E 1_555 1_555
Au4H Ag4H 1_555 1_555
Au4J Ag5 1_555 1_555
Ag1G Au2G 1_555 1_555
Ag1E Au1E 1_555 1_555
Ag1H S1H 1_555 1_555
Ag2G Cl2 1_555 1_555
Ag2E Au2 1_555 1_555
Ag2H Au1H 1_555 1_555
Ag3G Au1 1_555 1_555
Ag3E Cl2 1_555 1_555
Ag3H S2H 1_555 1_555
Ag3I Au1H 1_555 1_555
Ag4E S5E 1_555 1_555
Ag4H Au3H 1_555 1_555
Ag4J Au4J 1_555 1_555
Ag5J Cl3 1_555 1_555
Ag5H Au4 1_555 1_555
Ag5E Au3E 1_555 1_555
Ag5A Au4E 1_555 1_555
Ag6J Au3 1_555 1_555
Ag6H Cl3 1_555 1_555
Ag6E Au4E 1_555 1_555
Ag6I Au3E 1_555 1_555
Cu1G O1G 1_555 1_555
Cu1E O1E 1_555 1_555
Cu1H O1H 1_555 1_555
Cu2E O5E 1_555 1_555
Cu2H O5H 1_555 1_555
Cu2G O7G 1_555 1_555
Cu3J O9J 1_555 1_555
Cu3E O9E 1_555 1_555
Cu4E O6E 1_555 1_555
Cu4H O6H 1_555 1_555
Cl1G Ag1G 1_555 1_555
Cl1E Ag1E 1_555 1_555
S1E Au1E 1_555 1_555
S1H Au1H 1_555 1_555
S1G Au1G 1_555 1_555
S2E Ag3 1_555 1_555
S2H Au1H 1_555 1_555
S2G Au1G 1_555 1_555
S3G Au2G 1_555 1_555
S3E Au2E 1_555 1_555
S4G Ag2 1_555 1_555
S4E Au2E 1_555 1_555
S5J Au3J 1_555 1_555
S5E Au3E 1_555 1_555
S5H Au3H 1_555 1_555
S6E Au3E 1_555 1_555
S6H Ag6 1_555 1_555
S6J Au3J 1_555 1_555
S7E Au4E 1_555 1_555
S7H Au4H 1_555 1_555
S7J Au4J 1_555 1_555
S8J Ag5 1_555 1_555
S8E Au4E 1_555 1_555
S8H Au4H 1_555 1_555
O1E C1E 1_555 1_555
O1H C1H 1_555 1_555
O2E C1E 1_555 1_555
O2H C1H 1_555 1_555
O3G Cu1G 1_555 1_555
O3E Cu1E 1_555 1_555
O4G C6G 1_555 1_555
O4E C6E 1_555 1_555
O5E C11E 1_555 1_555
O5H C11H 1_555 1_555
O6E C11E 1_555 1_555
O6H C11H 1_555 1_555
O7G C16G 1_555 1_555
O7E Cu2E 1_555 1_555
O7H Cu2H 1_555 1_555
O8G C16G 1_555 1_555
O8E C16E 1_555 1_555
O9J C21J 1_555 1_555
O9E C21E 1_555 1_555
O10J C21J 1_555 1_555
O10E C21E 1_555 1_555
O11J Cu3J 1_555 1_555
O11E Cu3E 1_555 1_555
O12J C26J 1_555 1_555
O12E C26E 1_555 1_555
O13E Cu4E 1_555 1_555
O13H Cu4H 1_555 1_555
O14E C31E 1_555 1_555
O14H C31H 1_555 1_555
O15E Cu4E 1_555 1_555
O15H Cu4H 1_555 1_555
O16E C36E 1_555 1_555
O16H C36H 1_555 1_555
O17E Ag4E 1_555 1_555
O17H Ag4H 1_555 1_555
O18G Cu1G 1_555 1_555
O18E Cu1E 1_555 1_555
O19E Cu2E 1_555 1_555
O19H Cu2H 1_555 1_555
O20J Cu3J 1_555 1_555
O20E Cu3E 1_555 1_555
N1E Cu1E 1_555 1_555
N1H Cu1H 1_555 1_555
N1G Cu1G 1_555 1_555
N2G Cu1G 1_555 1_555
N2E Cu1E 1_555 1_555
N3E Cu2E 1_555 1_555
N3H Cu2H 1_555 1_555
N4G Cu2G 1_555 1_555
N4E Cu2E 1_555 1_555
N4H Cu2H 1_555 1_555
N5J Cu3J 1_555 1_555
N5E Cu3E 1_555 1_555
N6J Cu3J 1_555 1_555
N6E Cu3E 1_555 1_555
N7E Cu4E 1_555 1_555
N7H Cu4H 1_555 1_555
N8E Cu4E 1_555 1_555
N8H Cu4H 1_555 1_555
C1E C2E 1_555 1_555
C1H C2H 1_555 1_555
C2E N1E 1_555 1_555
C2H N1H 1_555 1_555
C3E S1E 1_555 1_555
C3H S1H 1_555 1_555
C4E C3E 1_555 1_555
C4H C3H 1_555 1_555
C5E C3E 1_555 1_555
C5H C3H 1_555 1_555
C6G O3G 1_555 1_555
C6E O3E 1_555 1_555
C7G N2G 1_555 1_555
C7E N2E 1_555 1_555
C8G S4G 1_555 1_555
C8E S4E 1_555 1_555
C9G C8G 1_555 1_555
C9E C8E 1_555 1_555
C10G C8G 1_555 1_555
C10E C8E 1_555 1_555
C11E C12E 1_555 1_555
C11H C12H 1_555 1_555
C12E N3E 1_555 1_555
C12H N3H 1_555 1_555
C13E S2E 1_555 1_555
C13H S2H 1_555 1_555
C14E C13E 1_555 1_555
C14H C13H 1_555 1_555
C15E C13E 1_555 1_555
C15H C13H 1_555 1_555
C16G C17G 1_555 1_555
C16E O7E 1_555 1_555
C17G N4G 1_555 1_555
C17E N4E 1_555 1_555
C18G S3G 1_555 1_555
C18E S3E 1_555 1_555
C19G C18G 1_555 1_555
C19E C18E 1_555 1_555
C20G C18G 1_555 1_555
C20E C18E 1_555 1_555
C21J C22J 1_555 1_555
C21E C22E 1_555 1_555
C22J N5J 1_555 1_555
C22E N5E 1_555 1_555
C23J S5J 1_555 1_555
C23E S5E 1_555 1_555
C24J C23J 1_555 1_555
C24E C23E 1_555 1_555
C25J C23J 1_555 1_555
C25E C23E 1_555 1_555
C26J O11J 1_555 1_555
C26E O11E 1_555 1_555
C27J N6J 1_555 1_555
C27E N6E 1_555 1_555
C28J S8J 1_555 1_555
C28E S8E 1_555 1_555
C29J C28J 1_555 1_555
C29E C28E 1_555 1_555
C30J C28J 1_555 1_555
C30E C28E 1_555 1_555
C31E O13E 1_555 1_555
C31H O13H 1_555 1_555
C32E N7E 1_555 1_555
C32H N7H 1_555 1_555
C33E S6E 1_555 1_555
C33H S6H 1_555 1_555
C34E C33E 1_555 1_555
C34H C33H 1_555 1_555
C35E C33E 1_555 1_555
C35H C33H 1_555 1_555
C36E O15E 1_555 1_555
C36H O15H 1_555 1_555
C37E N8E 1_555 1_555
C37H N8H 1_555 1_555
C38E S7E 1_555 1_555
C38H S7H 1_555 1_555
C39E C38E 1_555 1_555
C39H C38H 1_555 1_555
C40E C38E 1_555 1_555
C40H C38H 1_555 1_555
Ag1 S1 1_555 1_555
Ag1 S3 1_555 1_555
Ag2 S1 1_555 1_555
Ag2 S4 1_555 1_555
Ag3 Cl2 1_555 1_555
Ag3 S2 1_555 1_555
Ag3 S3 1_555 1_555
Ag4 S7 1_555 1_555
Ag5 S5 1_555 1_555
Ag5 S8 1_555 1_555
Ag6 Cl3 1_555 1_555
Ag6 S6 1_555 1_555
Ag6 S7 1_555 1_555
Cl2 Ag2E 1_555 1_555
Cl2 Ag3G 1_555 1_555
Cl3 Ag5H 1_555 1_555
Cl3 Ag6J 1_555 1_555
S2 Ag3G 1_555 1_555
S4 Ag2E 1_555 1_555
S6 Ag6J 1_555 1_555
S8 Ag5H 1_555 1_555
C2 C3 1_555 1_555
C6 C7 1_555 1_555
C7 C8 1_555 1_555
C12 C13 1_555 1_555
C16 C17 1_555 1_555
C17 C18 1_555 1_555
C22 C23 1_555 1_555
C26 C27 1_555 1_555
C27 C28 1_555 1_555
C31 C32 1_555 1_555
C32 C33 1_555 1_555
C36 C37 1_555 1_555
C37 C38 1_555 1_555
Au1E Ag2E 1_555 1_555
Au1E S2E 1_555 1_555
Au1G Ag2G 1_555 1_555
Au1G Ag3E 1_555 1_555
Au2G Ag3G 1_555 1_555
Au2G S4G 1_555 1_555
Au2E Ag2G 1_555 1_555
Au2E Ag3E 1_555 1_555
Au3H Ag5H 1_555 1_555
Au3H S6H 1_555 1_555
Au3J Ag5J 1_555 1_555
Au3J Ag6H 1_555 1_555
Au4H Ag5J 1_555 1_555
Au4H Ag6H 1_555 1_555
Au4J Ag6J 1_555 1_555
Au4J S8J 1_555 1_555
Ag1G S1G 1_555 1_555
Ag1G S3G 1_555 1_555
Ag1E S1E 1_555 1_555
Ag1E S3E 1_555 1_555
Ag2G S1G 1_555 1_555
Ag2G S4G 1_555 1_555
Ag2G S4E 1_555 1_555
Ag2E S1E 1_555 1_555
Ag2E S4E 1_555 1_555
Ag2H S1H 1_555 1_555
Ag3G S2G 1_555 1_555
Ag3G S3G 1_555 1_555
Ag3E S2E 1_555 1_555
Ag3E S2G 1_555 1_555
Ag3E S3E 1_555 1_555
Ag3I S2H 1_555 1_555
Ag4E S7E 1_555 1_555
Ag4H S5H 1_555 1_555
Ag4H S7H 1_555 1_555
Ag4J S5J 1_555 1_555
Ag4J S7J 1_555 1_555
Ag5J S5J 1_555 1_555
Ag5J S8J 1_555 1_555
Ag5J S8H 1_555 1_555
Ag5H S5H 1_555 1_555
Ag5H S8H 1_555 1_555
Ag5E S5E 1_555 1_555
Ag5E S8E 1_555 1_555
Ag5A S8E 1_555 1_555
Ag6J S6J 1_555 1_555
Ag6J S7J 1_555 1_555
Ag6H S6H 1_555 1_555
Ag6H S6J 1_555 1_555
Ag6H S7H 1_555 1_555
Ag6E S6E 1_555 1_555
Ag6E S7E 1_555 1_555
Ag6I S6E 1_555 1_555
C2E C3E 1_555 1_555
C2H C3H 1_555 1_555
C6G C7G 1_555 1_555
C6E C7E 1_555 1_555
C7G C8G 1_555 1_555
C7E C8E 1_555 1_555
C12E C13E 1_555 1_555
C12H C13H 1_555 1_555
C16E C17E 1_555 1_555
C17G C18G 1_555 1_555
C17E C18E 1_555 1_555
C22J C23J 1_555 1_555
C22E C23E 1_555 1_555
C26J C27J 1_555 1_555
C26E C27E 1_555 1_555
C27J C28J 1_555 1_555
C27E C28E 1_555 1_555
C31E C32E 1_555 1_555
C31H C32H 1_555 1_555
C32E C33E 1_555 1_555
C32H C33H 1_555 1_555
C36E C37E 1_555 1_555
C36H C37H 1_555 1_555
C37E C38E 1_555 1_555
C37H C38H 1_555 1_555

#END
