
#######################################################################
#
#                 Cambridge Crystallographic Data Centre
#                                CCDC 
#
#######################################################################
#
# If this CIF has been generated from an entry in the Cambridge 
# Structural Database, then it will include bibliographic, chemical, 
# crystal, experimental, refinement or atomic coordinate data resulting 
# from the CCDC's data processing and validation procedures.
#
#######################################################################

data_IKUBUL
_chemical_formula_moiety         '(C6 H22 N2 O12 P4 Zn3)n'
_symmetry_cell_setting           orthorhombic
_symmetry_space_group_name_H-M   'P b c n'
_symmetry_Int_Tables_number      60
_space_group_name_Hall           '-P 2n 2ab'
loop_
_symmetry_equiv_pos_site_id
_symmetry_equiv_pos_as_xyz
1 x,y,z
2 1/2-x,1/2-y,1/2+z
3 -x,y,1/2-z
4 1/2+x,1/2-y,-z
5 -x,-y,-z
6 1/2+x,1/2+y,1/2-z
7 x,-y,1/2+z
8 1/2-x,1/2+y,z
_cell_length_a                   8.8754(14)
_cell_length_b                   16.667(3)
_cell_length_c                   13.864(2)
_cell_angle_alpha                90
_cell_angle_beta                 90
_cell_angle_gamma                90
_cell_volume                     2050.85
loop_
_atom_site_label
_atom_site_type_symbol
_atom_site_fract_x
_atom_site_fract_y
_atom_site_fract_z
Zn1 Zn 0.44689(4) 0.92309(2) 0.10618(2)
Zn2 Zn 0.5000 1.25069(3) 0.2500
P1 P 0.50544(9) 1.10828(5) 0.11139(5)
P2 P 0.74170(9) 1.38158(5) 0.22009(6)
O1 O 0.4032(2) 1.03636(13) 0.10220(15)
O2 O 0.8116(3) 1.35976(13) 0.31549(16)
O3 O 0.5881(3) 1.12842(13) 0.01851(16)
O4 O 0.8479(3) 1.4090(2) 0.1438(2)
O5 O 0.4177(2) 1.18083(11) 0.14900(15)
O6 O 0.6459(3) 1.31410(14) 0.18073(15)
H10 H 0.615(3) 1.0901(16) 0.174(2)
H11 H 0.647(4) 1.448(2) 0.239(2)
Zn1B Zn 0.55311(4) 0.92309(2) 0.39382(2)
Zn1E Zn 0.94689(4) 1.42309(2) 0.39382(2)
Zn1D Zn 0.55311(4) 1.07691(2) -0.10618(2)
Zn1G Zn 1.05311(4) 1.42309(2) 0.10618(2)
Zn1F Zn 0.44689(4) 1.07691(2) 0.60618(2)
Zn1G_2 Zn 0.05311(4) 1.42309(2) 0.10618(2)
Zn1E_2 Zn -0.05311(4) 1.42309(2) 0.39382(2)
P1B P 0.49456(9) 1.10828(5) 0.38861(5)
P2B P 0.25830(9) 1.38158(5) 0.27991(6)
O1B O 0.5968(2) 1.03636(13) 0.39780(15)
O2B O 0.1884(3) 1.35976(13) 0.18451(16)
O2E O 0.3116(3) 0.85976(13) 0.18451(16)
O2G O 0.6884(3) 0.85976(13) 0.31549(16)
O3B O 0.4119(3) 1.12842(13) 0.48149(16)
O3D O 0.4119(3) 0.87158(13) -0.01851(16)
O3F O 0.5881(3) 0.87158(13) 0.51851(16)
O4B O 0.1521(3) 1.4090(2) 0.3562(2)
O4G O 0.6521(3) 0.9090(2) 0.1438(2)
O4E O 0.3479(3) 0.9090(2) 0.3562(2)
O5B O 0.5823(2) 1.18083(11) 0.35100(15)
O6B O 0.3541(3) 1.31410(14) 0.31927(15)
H10B H 0.385(3) 1.0901(16) 0.326(2)
H11B H 0.353(4) 1.448(2) 0.261(2)
C1 C 0.4913(4) 0.6810(2) 0.0731(3)
H1 H 0.5065 0.7074 0.1347
H2 H 0.5745 0.6956 0.0312
C2 C 0.4919(5) 0.5907(2) 0.0881(3)
H3 H 0.4048 0.5757 0.1264
H4 H 0.5814 0.5757 0.1240
C3 C 0.4887(5) 0.5445(2) -0.0066(3)
H5 H 0.3926 0.5536 -0.0381
H6 H 0.5671 0.5651 -0.0486
N1 N 0.3469(3) 0.70977(15) 0.02945(19)
H7 H 0.3517 0.7626 0.0203
H8 H 0.2708 0.6984 0.0690
H9 H 0.3323 0.6854 -0.0269
C1D C 0.5087(4) 0.3190(2) -0.0731(3)
H1D H 0.4935 0.2926 -0.1347
H2D H 0.4255 0.3044 -0.0312
C2D C 0.5081(5) 0.4093(2) -0.0881(3)
H3D H 0.5952 0.4243 -0.1264
H4D H 0.4186 0.4243 -0.1240
C3D C 0.5113(5) 0.4555(2) 0.0066(3)
H5D H 0.6074 0.4464 0.0381
H6D H 0.4329 0.4349 0.0486
N1D N 0.6531(3) 0.29023(15) -0.02945(19)
H7D H 0.6483 0.2374 -0.0203
H8D H 0.7292 0.3016 -0.0690
H9D H 0.6677 0.3146 0.0269
loop_
_geom_bond_atom_site_label_1
_geom_bond_atom_site_label_2
_geom_bond_site_symmetry_1
_geom_bond_site_symmetry_2
Zn1 O1 1_555 1_555
Zn2 O5 1_555 1_555
P1 O1 1_555 1_555
P2 O2 1_555 1_555
O2 Zn1E 1_555 1_555
O3 P1 1_555 1_555
O4 P2 1_555 1_555
O5 P1 1_555 1_555
O6 Zn2 1_555 1_555
C1 H1 1_555 1_555
H2 C1 1_555 1_555
C2 C1 1_555 1_555
H3 C2 1_555 1_555
H4 C2 1_555 1_555
C3 C2 1_555 1_555
H5 C3 1_555 1_555
H6 C3 1_555 1_555
N1 C1 1_555 1_555
H7 N1 1_555 1_555
H8 N1 1_555 1_555
H9 N1 1_555 1_555
H10 P1 1_555 1_555
H11 P2 1_555 1_555
Zn1B O1B 1_555 1_555
Zn1D O3 1_555 1_555
Zn1G O4 1_555 1_555
Zn1F O3B 1_555 1_555
Zn1G_2 O2B 1_555 1_555
Zn1E_2 O4B 1_555 1_555
P1B O1B 1_555 1_555
P2B O2B 1_555 1_555
O2E Zn1 1_555 1_555
O2G Zn1B 1_555 1_555
O3B P1B 1_555 1_555
O3D Zn1 1_555 1_555
O3F Zn1B 1_555 1_555
O4B P2B 1_555 1_555
O4G Zn1 1_555 1_555
O4E Zn1B 1_555 1_555
O5B Zn2 1_555 1_555
O6B Zn2 1_555 1_555
C1D H1D 1_555 1_555
H2D C1D 1_555 1_555
C2D C1D 1_555 1_555
H3D C2D 1_555 1_555
H4D C2D 1_555 1_555
C3D C3 1_555 1_555
H5D C3D 1_555 1_555
H6D C3D 1_555 1_555
N1D C1D 1_555 1_555
H7D N1D 1_555 1_555
H8D N1D 1_555 1_555
H9D N1D 1_555 1_555
H10B P1B 1_555 1_555
H11B P2B 1_555 1_555
P2 O6 1_555 1_555
P1B O5B 1_555 1_555
P2B O6B 1_555 1_555
C2D C3D 1_555 1_555

#END
