
#######################################################################
#
#                 Cambridge Crystallographic Data Centre
#                                CCDC 
#
#######################################################################
#
# If this CIF has been generated from an entry in the Cambridge 
# Structural Database, then it will include bibliographic, chemical, 
# crystal, experimental, refinement or atomic coordinate data resulting 
# from the CCDC's data processing and validation procedures.
#
#######################################################################

data_DACFAR
_chemical_formula_moiety         'C36 H26 Cu4 F4 N7 O8 S2'
_symmetry_cell_setting           tetragonal
_symmetry_space_group_name_H-M   'P 42 2 2'
_symmetry_Int_Tables_number      93
_space_group_name_Hall           'P 4c 2'
loop_
_symmetry_equiv_pos_site_id
_symmetry_equiv_pos_as_xyz
1 x,y,z
2 -y,x,1/2+z
3 x,-y,-z
4 -x,-y,z
5 -y,-x,1/2-z
6 y,x,1/2-z
7 y,-x,1/2+z
8 -x,y,-z
_cell_length_a                   13.0883(4)
_cell_length_b                   13.0883(4)
_cell_length_c                   26.7939(10)
_cell_angle_alpha                90
_cell_angle_beta                 90
_cell_angle_gamma                90
_cell_volume                     4589.89
loop_
_atom_site_label
_atom_site_type_symbol
_atom_site_fract_x
_atom_site_fract_y
_atom_site_fract_z
_atom_site_U_iso_or_equiv
_atom_site_thermal_displace_type
O1 O 0.3247(4) 1.0790(3) 0.28394(17) 0.0733 Uani
F1 F 0.0645(13) 1.1120(15) 0.3049(8) 0.1983 Uani
O2 O 0.2255(9) 1.2361(7) 0.2750(4) 0.0977 Uani
Cu1 Cu 0.5000 1.0000 0.28255(3) 0.0563 Uani
N1 N 0.4499(4) 0.9049(3) 0.33688(15) 0.0547 Uani
O3 O 0.2805(3) 0.5432(3) 0.58323(13) 0.0519 Uani
N2 N 0.0992(3) 0.4559(4) 0.72918(14) 0.0487 Uani
C1 C 0.3859(4) 0.6176(4) 0.46281(15) 0.0363 Uani
H1 H 0.4141 0.5868 0.4347 0.0440 Uiso
C2 C 0.3510(3) 0.5557(3) 0.50227(19) 0.0363 Uani
C3 C 0.4062(4) 0.7868(4) 0.42098(17) 0.0417 Uani
C4 C 0.3795(4) 0.7229(4) 0.46472(16) 0.0417 Uani
C5 C 0.4640(4) 0.7482(4) 0.38184(18) 0.0447 Uani
H2 H 0.4892 0.6818 0.3834 0.0530 Uiso
C6 C 0.4844(5) 0.8087(3) 0.34031(17) 0.0473 Uani
H3 H 0.5229 0.7817 0.3143 0.0570 Uiso
C7 C 0.3160(4) 0.6052(4) 0.54613(17) 0.0433 Uani
C8 C 0.3459(5) 0.7677(4) 0.50886(17) 0.0493 Uani
H4 H 0.3443 0.8385 0.5113 0.0590 Uiso
C9 C 0.3701(5) 0.8841(4) 0.41606(19) 0.0567 Uani
H5 H 0.3295 0.9123 0.4410 0.0680 Uiso
C10 C 0.3937(6) 0.9418(4) 0.3736(2) 0.0643 Uani
H6 H 0.3690 1.0083 0.3712 0.0780 Uiso
C11 C 0.1335(4) 0.5261(5) 0.69648(19) 0.0507 Uani
H7 H 0.1100 0.5929 0.6993 0.0610 Uiso
C12 C 0.2010(5) 0.5035(5) 0.65944(19) 0.0587 Uani
C13 C 0.3149(5) 0.7100(4) 0.54902(18) 0.0507 Uani
H8 H 0.2932 0.7420 0.5781 0.0610 Uiso
C14 C 0.1302(7) 0.3593(6) 0.7241(3) 0.0860 Uani
H9 H 0.1063 0.3102 0.7464 0.1030 Uiso
C15 C 0.2384(5) 0.5868(5) 0.6257(2) 0.0600 Uani
H10 H 0.1822 0.6312 0.6166 0.0720 Uiso
H11 H 0.2895 0.6275 0.6428 0.0720 Uiso
C16 C 0.1953(7) 0.3308(6) 0.6874(3) 0.0860 Uani
H12 H 0.2144 0.2626 0.6846 0.1030 Uiso
C17 C 0.2334(7) 0.4007(6) 0.6544(3) 0.1040 Uani
H13 H 0.2790 0.3815 0.6294 0.1250 Uiso
O4 O 0.2453(13) 1.1509(10) 0.3561(5) 0.1337 Uani
S1 S 0.2495(3) 1.1412(3) 0.29951(19) 0.0874 Uani
C18 C 0.149(2) 1.0566(18) 0.2886(9) 0.1950 Uani
F2 F 0.1520(11) 0.9640(13) 0.3143(8) 0.1897 Uani
N1B N 0.4499(4) 0.0951(3) 0.66312(15) 0.0547 Uani
O3B O 0.2805(3) 0.4568(3) 0.41677(13) 0.0519 Uani
N2B N 0.0992(3) 0.5441(4) 0.27082(14) 0.0487 Uani
C1B C 0.3859(4) 0.3824(4) 0.53719(15) 0.0363 Uani
H1B H 0.4141 0.4132 0.5653 0.0440 Uiso
C2B C 0.3510(3) 0.4443(3) 0.49773(19) 0.0363 Uani
C3B C 0.4062(4) 0.2132(4) 0.57902(17) 0.0417 Uani
C4B C 0.3795(4) 0.2771(4) 0.53528(16) 0.0417 Uani
C5B C 0.4640(4) 0.2518(4) 0.61816(18) 0.0447 Uani
H2B H 0.4892 0.3182 0.6166 0.0530 Uiso
C6B C 0.4844(5) 0.1913(3) 0.65969(17) 0.0473 Uani
H3B H 0.5229 0.2183 0.6857 0.0570 Uiso
C7B C 0.3160(4) 0.3948(4) 0.45387(17) 0.0433 Uani
C8B C 0.3459(5) 0.2323(4) 0.49114(17) 0.0493 Uani
H4B H 0.3443 0.1615 0.4887 0.0590 Uiso
C9B C 0.3701(5) 0.1159(4) 0.58394(19) 0.0567 Uani
H5B H 0.3295 0.0877 0.5590 0.0680 Uiso
C10B C 0.3937(6) 0.0582(4) 0.6264(2) 0.0643 Uani
H6B H 0.3690 -0.0083 0.6288 0.0780 Uiso
C11B C 0.1335(4) 0.4739(5) 0.30352(19) 0.0507 Uani
H7B H 0.1100 0.4071 0.3007 0.0610 Uiso
C12B C 0.2010(5) 0.4965(5) 0.34056(19) 0.0587 Uani
C13B C 0.3149(5) 0.2900(4) 0.45098(18) 0.0507 Uani
H8B H 0.2932 0.2580 0.4219 0.0610 Uiso
C14B C 0.1302(7) 0.6407(6) 0.2759(3) 0.0860 Uani
H9B H 0.1063 0.6898 0.2536 0.1030 Uiso
C15B C 0.2384(5) 0.4132(5) 0.3743(2) 0.0600 Uani
H10B H 0.1822 0.3688 0.3834 0.0720 Uiso
H11B H 0.2895 0.3725 0.3572 0.0720 Uiso
C16B C 0.1953(7) 0.6692(6) 0.3126(3) 0.0860 Uani
H12B H 0.2144 0.7374 0.3154 0.1030 Uiso
C17B C 0.2334(7) 0.5993(6) 0.3456(3) 0.1040 Uani
H13B H 0.2790 0.6185 0.3706 0.1250 Uiso
O1C O 0.6753(4) 0.9210(3) 0.28394(17) 0.0733 Uani
F1C F 0.9355(13) 0.8880(15) 0.3049(8) 0.1983 Uani
O2C O 0.7745(9) 0.7639(7) 0.2750(4) 0.0977 Uani
O4C O 0.7547(13) 0.8491(10) 0.3561(5) 0.1337 Uani
S1C S 0.7505(3) 0.8588(3) 0.29951(19) 0.0874 Uani
C18C C 0.851(2) 0.9434(18) 0.2886(9) 0.1950 Uani
F2C F 0.8480(11) 1.0360(13) 0.3143(8) 0.1897 Uani
Cu1A Cu -0.0000 0.5000 0.78255(3) 0.0563 Uani
Cu1B Cu 0.5000 0.0000 0.71745(3) 0.0563 Uani
Cu1D Cu 0.0000 0.5000 0.21745(3) 0.0563 Uani
N1C N 0.5501(4) 1.0951(3) 0.33688(15) 0.0547 Uani
N2A N 0.5441(4) 1.0992(3) 0.22918(14) 0.0487 Uani
N2F N 0.4559(4) 0.9008(3) 0.22918(14) 0.0487 Uani
loop_
_atom_site_aniso_label
_atom_site_aniso_U_11
_atom_site_aniso_U_22
_atom_site_aniso_U_33
_atom_site_aniso_U_23
_atom_site_aniso_U_13
_atom_site_aniso_U_12
O1 0.109(2) 0.057(2) 0.054(2) 0.005(2) 0.000(3) -0.014(2)
F1 0.112(7) 0.183(9) 0.300(15) 0.048(10) -0.028(9) -0.040(7)
O2 0.096(7) 0.061(6) 0.136(9) 0.005(7) -0.002(8) 0.013(5)
Cu1 0.1139(8) 0.0345(4) 0.0204(4) 0.000 0.000 -0.0177(5)
N1 0.097(4) 0.038(2) 0.029(2) -0.0011(18) 0.006(2) -0.007(2)
O3 0.079(3) 0.0428(18) 0.0339(18) 0.0070(16) 0.0081(19) 0.0058(19)
N2 0.039 0.083 0.0241 0.0076 0.003 0.021
C1 0.041(2) 0.044(3) 0.024(2) 0.005(2) -0.002(2) -0.001(2)
C2 0.039(2) 0.041(2) 0.029(2) 0.003(2) -0.001(2) -0.0052(18)
C3 0.060(3) 0.039(3) 0.026(2) 0.004(2) -0.003(2) -0.012(2)
C4 0.052(3) 0.048(3) 0.025(2) 0.006(2) -0.005(2) -0.006(2)
C5 0.065(3) 0.037(2) 0.032(2) 0.004(2) -0.001(2) -0.008(2)
C6 0.080(4) 0.033(2) 0.029(2) -0.0003(18) -0.006(3) -0.014(3)
C7 0.050(3) 0.053(3) 0.027(2) 0.005(2) 0.005(2) -0.004(2)
C8 0.083(4) 0.039(2) 0.026(3) -0.003(2) 0.006(2) 0.003(3)
C9 0.088(4) 0.048(3) 0.034(2) 0.000(2) 0.007(3) 0.003(3)
C10 0.117(6) 0.041(3) 0.035(3) 0.000(2) 0.010(3) 0.008(3)
C11 0.047(3) 0.071(4) 0.034(3) 0.002(3) -0.001(2) 0.016(3)
C12 0.072(3) 0.066(3) 0.038(3) 0.003(3) 0.015(3) 0.018(3)
C13 0.081(4) 0.046(3) 0.025(2) -0.007(2) 0.003(3) -0.003(3)
C14 0.105 0.082 0.071 0.025 0.037 0.032
C15 0.079(4) 0.060(4) 0.041(3) 0.004(3) 0.011(3) 0.016(3)
C16 0.105 0.082 0.071 0.025 0.037 0.032
C17 0.135(8) 0.078(5) 0.099(6) 0.023(5) 0.052(6) 0.041(5)
O4 0.198(15) 0.127(10) 0.076(7) -0.059(7) -0.022(9) 0.079(10)
S1 0.073(2) 0.0511(18) 0.138(4) -0.003(2) 0.002(2) -0.0071(17)
C18 0.117(6) 0.174(8) 0.294(14) 0.050(10) -0.027(8) -0.050(6)
F2 0.112(6) 0.165(9) 0.292(14) 0.057(10) -0.017(8) -0.060(7)
N1B 0.097 0.038 0.029 -0.0011 -0.006 0.007
O3B 0.079 0.0428 0.0339 0.007 -0.0081 -0.0058
N2B 0.039 0.083 0.0241 0.0076 -0.003 -0.021
C1B 0.041 0.044 0.024 0.005 0.002 0.001
C2B 0.039 0.041 0.029 0.003 0.001 0.0052
C3B 0.06 0.039 0.026 0.004 0.003 0.012
C4B 0.052 0.048 0.025 0.006 0.005 0.006
C5B 0.065 0.037 0.032 0.004 0.001 0.008
C6B 0.08 0.033 0.029 -0.0003 0.006 0.014
C7B 0.05 0.053 0.027 0.005 -0.005 0.004
C8B 0.083 0.039 0.026 -0.003 -0.006 -0.003
C9B 0.088 0.048 0.034 0 -0.007 -0.003
C10B 0.117 0.041 0.035 0 -0.01 -0.008
C11B 0.047 0.071 0.034 0.002 0.001 -0.016
C12B 0.072 0.066 0.038 0.003 -0.015 -0.018
C13B 0.081 0.046 0.025 -0.007 -0.003 0.003
C14B 0.105 0.082 0.071 0.025 -0.037 -0.032
C15B 0.079 0.06 0.041 0.004 -0.011 -0.016
C16B 0.105 0.082 0.071 0.025 -0.037 -0.032
C17B 0.135 0.078 0.099 0.023 -0.052 -0.041
O1C 0.109 0.057 0.054 -0.005 0 -0.014
F1C 0.112 0.183 0.3 -0.048 0.028 -0.04
O2C 0.096 0.061 0.136 -0.005 0.002 0.013
O4C 0.198 0.127 0.076 0.059 0.022 0.079
S1C 0.073 0.0511 0.138 0.003 -0.002 -0.0071
C18C 0.117 0.174 0.294 -0.05 0.027 -0.05
F2C 0.112 0.165 0.292 -0.057 0.017 -0.06
Cu1A 0.0345 0.1139 0.0204 0 0 0.0177
Cu1B 0.1139 0.0345 0.0204 0 0 0.0177
Cu1D 0.0345 0.1139 0.0204 0 0 -0.0177
N1C 0.097 0.038 0.029 0.0011 -0.006 -0.007
N2A 0.083 0.039 0.0241 0.003 -0.0076 -0.021
N2F 0.083 0.039 0.0241 -0.003 0.0076 -0.021
loop_
_geom_bond_atom_site_label_1
_geom_bond_atom_site_label_2
_geom_bond_site_symmetry_1
_geom_bond_site_symmetry_2
O1 Cu1 1_555 1_555
F1 C18 1_555 1_555
O2 S1 1_555 1_555
Cu1 N1 1_555 1_555
N1 C6 1_555 1_555
O3 C7 1_555 1_555
N2 C11 1_555 1_555
C1 H1 1_555 1_555
C2 C1 1_555 1_555
C3 C4 1_555 1_555
C4 C1 1_555 1_555
C5 C3 1_555 1_555
H2 C5 1_555 1_555
C6 C5 1_555 1_555
H3 C6 1_555 1_555
C7 C2 1_555 1_555
C8 C4 1_555 1_555
H4 C8 1_555 1_555
C9 C3 1_555 1_555
H5 C9 1_555 1_555
C10 N1 1_555 1_555
H6 C10 1_555 1_555
C11 H7 1_555 1_555
C12 C11 1_555 1_555
C13 C7 1_555 1_555
H8 C13 1_555 1_555
C14 N2 1_555 1_555
H9 C14 1_555 1_555
C15 O3 1_555 1_555
H10 C15 1_555 1_555
H11 C15 1_555 1_555
C16 C14 1_555 1_555
H12 C16 1_555 1_555
C17 C12 1_555 1_555
H13 C17 1_555 1_555
O4 S1 1_555 1_555
S1 O1 1_555 1_555
C18 S1 1_555 1_555
F2 C18 1_555 1_555
N1B C6B 1_555 1_555
O3B C7B 1_555 1_555
N2B C11B 1_555 1_555
C1B H1B 1_555 1_555
C2B C2 1_555 1_555
C3B C4B 1_555 1_555
C4B C1B 1_555 1_555
C5B C3B 1_555 1_555
H2B C5B 1_555 1_555
C6B C5B 1_555 1_555
H3B C6B 1_555 1_555
C7B C2B 1_555 1_555
C8B C4B 1_555 1_555
H4B C8B 1_555 1_555
C9B C3B 1_555 1_555
H5B C9B 1_555 1_555
C10B N1B 1_555 1_555
H6B C10B 1_555 1_555
C11B H7B 1_555 1_555
C12B C11B 1_555 1_555
C13B C7B 1_555 1_555
H8B C13B 1_555 1_555
C14B N2B 1_555 1_555
H9B C14B 1_555 1_555
C15B O3B 1_555 1_555
H10B C15B 1_555 1_555
H11B C15B 1_555 1_555
C16B C14B 1_555 1_555
H12B C16B 1_555 1_555
C17B C12B 1_555 1_555
H13B C17B 1_555 1_555
O1C Cu1 1_555 1_555
F1C C18C 1_555 1_555
O2C S1C 1_555 1_555
O4C S1C 1_555 1_555
S1C O1C 1_555 1_555
C18C S1C 1_555 1_555
F2C C18C 1_555 1_555
Cu1A N2 1_555 1_555
Cu1B N1B 1_555 1_555
Cu1D N2B 1_555 1_555
N1C Cu1 1_555 1_555
N2A Cu1 1_555 1_555
N2F Cu1 1_555 1_555
C8 C13 1_555 1_555
C9 C10 1_555 1_555
C12 C15 1_555 1_555
C16 C17 1_555 1_555
C1B C2B 1_555 1_555
C8B C13B 1_555 1_555
C9B C10B 1_555 1_555
C12B C15B 1_555 1_555
C16B C17B 1_555 1_555

#END
