
#######################################################################
#
#                 Cambridge Crystallographic Data Centre
#                                CCDC 
#
#######################################################################
#
# If this CIF has been generated from an entry in the Cambridge 
# Structural Database, then it will include bibliographic, chemical, 
# crystal, experimental, refinement or atomic coordinate data resulting 
# from the CCDC's data processing and validation procedures.
#
#######################################################################

data_DEYLOJ
_chemical_formula_moiety         'C20 H25 Eu6 K2 N3 O151 P6 W38'
_symmetry_cell_setting           triclinic
_symmetry_space_group_name_H-M   'P -1'
_symmetry_Int_Tables_number      2
_space_group_name_Hall           '-P 1'
loop_
_symmetry_equiv_pos_site_id
_symmetry_equiv_pos_as_xyz
1 x,y,z
2 -x,-y,-z
_cell_length_a                   18.024(4)
_cell_length_b                   19.371(4)
_cell_length_c                   23.242(5)
_cell_angle_alpha                89.45(3)
_cell_angle_beta                 87.05(3)
_cell_angle_gamma                63.73(3)
_cell_volume                     7266.24
loop_
_atom_site_label
_atom_site_type_symbol
_atom_site_fract_x
_atom_site_fract_y
_atom_site_fract_z
_atom_site_U_iso_or_equiv
_atom_site_thermal_displace_type
O9 O -0.1640(14) 0.9559(14) 0.0849(10) 0.0436 Uani
O10 O 0.133(2) 0.499(2) -0.0362(17) 0.0299 Uani
O11 O 0.165(3) 0.233(3) -0.006(2) 0.0519 Uani
O12 O 0.688(3) 0.133(3) 0.551(2) 0.0551 Uani
O13 O 0.438(3) 0.584(3) 0.0064(19) 0.0425 Uani
K1 K 0.3114(3) 0.0437(4) 0.5624(2) 0.0269 Uani
K2 K 0.8867(5) -0.0683(5) 0.4406(3) 0.0446 Uani
W1 W 0.93961(6) -0.38198(6) 0.59993(5) 0.0190 Uani
W2 W 0.67766(7) -0.05247(7) 0.61314(5) 0.0226 Uani
W3 W 0.92561(6) -0.39939(7) 0.89093(5) 0.0206 Uani
W4 W 0.69672(6) -0.27830(7) 0.89228(5) 0.0224 Uani
W5 W 1.13740(7) -0.93064(7) 1.09270(5) 0.0273 Uani
W6 W 0.68085(7) -0.41658(7) 0.66733(5) 0.0273 Uani
W7 W 0.71129(6) -0.25629(7) 0.60291(5) 0.0194 Uani
W8 W 0.57823(7) 0.11861(7) 0.83771(5) 0.0306 Uani
W9 W 1.11707(7) -0.53385(7) 0.66822(5) 0.0275 Uani
W10 W 1.10081(7) -0.54917(7) 0.80940(5) 0.0286 Uani
W11 W 0.49947(7) -0.20925(8) 0.81885(5) 0.0305 Uani
W12 W 0.88517(7) -0.05270(7) 0.61674(5) 0.0258 Uani
W13 W 1.18090(7) -0.21760(8) 0.82832(6) 0.0311 Uani
W14 W 1.04760(6) -0.25661(7) 0.60783(5) 0.0225 Uani
W15 W 0.51260(6) -0.21411(8) 0.67609(5) 0.0272 Uani
W16 W 0.91257(7) -0.54126(7) 0.66535(5) 0.0274 Uani
W17 W 1.22318(7) -0.40419(8) 0.67745(5) 0.0295 Uani
W18 W 0.47466(7) -0.00560(8) 0.68675(5) 0.0302 Uani
W19 W 0.65660(8) -0.41584(8) 0.80922(5) 0.0314 Uani
W20 W 0.46484(7) -0.00254(8) 0.82872(5) 0.0335 Uani
W21 W 0.97002(6) -0.72883(7) 1.10093(5) 0.0224 Uani
W22 W 1.18093(7) -0.19683(8) 0.68669(6) 0.0336 Uani
W23 W 0.88909(8) -0.54206(7) 0.80748(5) 0.0289 Uani
W24 W 0.57529(8) 0.12677(7) 0.69603(6) 0.0315 Uani
W25 W 1.01570(8) -0.01141(8) 0.83804(6) 0.0360 Uani
W26 W 1.21005(7) -0.42168(7) 0.81897(5) 0.0287 Uani
W27 W 0.78393(8) 0.12996(8) 0.69898(6) 0.0372 Uani
W28 W 0.78761(8) 0.11931(7) 0.84093(6) 0.0347 Uani
W29 W 1.01441(8) 0.00960(8) 0.69695(6) 0.0384 Uani
W30 W 0.65700(7) -0.07281(7) 0.90365(5) 0.0259 Uani
Eu2 Eu 0.84871(12) -0.20503(12) 0.67864(9) 0.0340 Uani
Eu3 Eu 0.39661(12) 0.27721(11) 0.94381(8) 0.0506 Uani
Eu4 Eu 0.9558(3) -0.7160(3) 0.9254(3) 0.0485 Uani
P1 P 0.9393(4) -0.4069(4) 0.7459(3) 0.0179 Uani
P2 P 0.6528(4) -0.0499(4) 0.7588(3) 0.0174 Uani
P3 P 0.8770(4) -0.0476(4) 0.7633(3) 0.0214 Uani
P4 P 0.6902(4) -0.2719(4) 0.7482(3) 0.0193 Uani
P5 P 0.9451(4) -0.7311(4) 1.2452(3) 0.0201 Uani
O14 O 0.8934(11) -0.0319(12) 0.5451(9) 0.0326 Uani
O15 O 1.1362(11) -0.9479(13) 1.0218(9) 0.0327 Uani
O16 O 0.9330(13) -0.4282(14) 0.9608(9) 0.0439 Uani
O17 O 0.5352(12) 0.1766(13) 0.7685(9) 0.0363 Uani
O18 O 0.7168(11) -0.1617(11) 0.6089(8) 0.0248 Uani
O19 O 0.7239(10) -0.2598(11) 0.8033(8) 0.0219 Uani
O20 O 0.8301(10) -0.3034(11) 0.6031(7) 0.0201 Uani
O21 O 0.9980(10) -0.7416(11) 1.1908(8) 0.0225 Uani
O22 O 0.7128(10) -0.3519(10) 0.6209(8) 0.0202 Uani
O23 O 1.1541(10) -0.5936(11) 0.7356(8) 0.0267 Uani
O24 O 0.7013(12) -0.2576(12) 0.5298(9) 0.0323 Uani
O25 O 0.8720(11) -0.0859(11) 0.7083(9) 0.0287 Uani
O26 O 1.2469(12) -0.2106(13) 0.8756(9) 0.0381 Uani
O27 O 0.5280(11) 0.2045(11) 0.6515(8) 0.0288 Uani
O28 O 1.3042(11) -0.4520(13) 0.6319(9) 0.0324 Uani
O29 O 0.4393(12) -0.2052(14) 0.6275(9) 0.0374 Uani
O30 O 1.0457(10) -0.4538(11) 0.6212(8) 0.0219 Uani
O31 O 0.7712(15) 0.2059(15) 0.6541(12) 0.0541 Uani
O32 O 1.0529(14) 0.0298(15) 0.8860(11) 0.0506 Uani
O33 O 1.2745(12) -0.4470(13) 0.7480(9) 0.0336 Uani
O34 O 0.8978(12) -0.6180(12) 0.8505(8) 0.0303 Uani
O35 O 1.1604(12) -0.6231(13) 0.8530(10) 0.0379 Uani
O36 O 0.5829(11) -0.2248(12) 0.8715(8) 0.0267 Uani
O37 O 1.1779(12) -0.6045(13) 0.6182(8) 0.0332 Uani
O38 O 0.3795(13) 0.0340(14) 0.8754(10) 0.0420 Uani
O39 O 1.2549(13) -0.1931(14) 0.6412(10) 0.0437 Uani
O40 O 0.4229(12) -0.2122(13) 0.8624(9) 0.0367 Uani
O41 O 0.4528(11) -0.2104(11) 0.7465(8) 0.0263 Uani
O42 O 1.2346(12) -0.2040(13) 0.7566(9) 0.0352 Uani
O43 O 0.7324(10) -0.2507(11) 0.6966(8) 0.0245 Uani
O44 O 0.6488(12) -0.4607(12) 0.6177(9) 0.0340 Uani
O45 O 0.7910(11) -0.4914(12) 0.6726(8) 0.0253 Uani
O46 O 0.5186(13) 0.1889(14) 0.8892(10) 0.0435 Uani
O47 O 0.9209(11) -0.6093(11) 0.6156(8) 0.0286 Uani
O48 O 0.5530(10) -0.0572(11) 0.8790(8) 0.0257 Uani
O49 O 0.9507(12) -0.7171(12) 1.0297(9) 0.0325 Uani
O50 O 0.5709(10) -0.0439(11) 0.6365(8) 0.0238 Uani
O51 O 0.6275(10) 0.0327(10) 0.8853(8) 0.0218 Uani
O52 O 0.8127(11) -0.3258(11) 0.8976(8) 0.0263 Uani
O53 O 1.1722(11) -0.4948(11) 0.8075(8) 0.0257 Uani
O54 O 0.8891(10) -0.4727(11) 0.8618(8) 0.0226 Uani
O55 O 0.8145(12) 0.0474(13) 0.6456(9) 0.0348 Uani
O56 O 0.6438(12) 0.0485(12) 0.6428(9) 0.0332 Uani
O57 O 0.7044(10) -0.3561(11) 0.7422(8) 0.0197 Uani
O58 O 1.0666(11) -0.8241(12) 1.0941(9) 0.0310 Uani
O59 O 0.5944(10) -0.2198(10) 0.7480(7) 0.0155 Uani
O60 O 1.1339(10) -0.3502(11) 0.6279(7) 0.0187 Uani
O61 O 0.5737(10) -0.3215(11) 0.6730(7) 0.0205 Uani
O62 O 0.5015(11) 0.0828(12) 0.6951(9) 0.0298 Uani
O63 O 0.8666(10) -0.0915(10) 0.8170(7) 0.0191 Uani
O64 O 0.5980(10) -0.2086(11) 0.6265(7) 0.0230 Uani
O65 O 0.8107(10) 0.0369(11) 0.7651(8) 0.0231 Uani
O66 O 0.6247(13) -0.4717(13) 0.8515(10) 0.0384 Uani
O67 O 0.8965(10) -0.4618(11) 0.7430(8) 0.0214 Uani
O68 O 1.1064(11) -0.1043(12) 0.8282(9) 0.0343 Uani
O69 O 0.7892(11) -0.0717(11) 0.6133(8) 0.0235 Uani
O70 O 1.1063(11) -0.2055(11) 0.6352(9) 0.0288 Uani
O71 O 0.6365(10) 0.0343(10) 0.7632(7) 0.0182 Uani
O72 O 0.9624(9) -0.0449(10) 0.7627(8) 0.0188 Uani
O73 O 0.9493(11) -0.3944(12) 0.5257(8) 0.0299 Uani
O74 O 0.9015(10) -0.4559(11) 0.6179(8) 0.0227 Uani
O75 O 0.6936(10) -0.0908(11) 0.8126(8) 0.0217 Uani
O76 O 1.0329(10) -0.4702(10) 0.8641(7) 0.0172 Uani
O77 O 0.5660(9) -0.0467(10) 0.7553(7) 0.0158 Uani
O78 O 1.1110(11) -0.0907(12) 0.6987(9) 0.0300 Uani
O79 O 0.9029(12) 0.0793(12) 0.8367(9) 0.0324 Uani
O80 O 0.4131(11) 0.0255(11) 0.7585(8) 0.0283 Uani
O81 O 0.6464(11) -0.4531(12) 0.7345(8) 0.0283 Uani
O82 O 1.2301(10) -0.3108(11) 0.6842(8) 0.0238 Uani
O83 O 0.9007(10) -0.7838(11) 1.2431(8) 0.0242 Uani
O84 O 0.9705(12) -0.2988(12) 0.6060(9) 0.0318 Uani
O85 O 1.0118(12) -0.5699(12) 0.8025(8) 0.0299 Uani
O86 O 1.1219(10) -0.3510(10) 0.7504(7) 0.0183 Uani
O87 O 0.7063(10) -0.0864(10) 0.7039(7) 0.0179 Uani
O88 O 0.6960(11) -0.1819(12) 0.9022(8) 0.0276 Uani
O89 O 1.2229(11) -0.3232(11) 0.8196(8) 0.0257 Uani
O90 O 1.0420(11) -0.9475(11) 1.1141(8) 0.0248 Uani
O91 O 0.9056(10) -0.7782(11) 1.1198(8) 0.0244 Uani
O92 O 0.6680(12) -0.2896(13) 0.9642(9) 0.0342 Uani
O93 O 0.7752(12) 0.1780(11) 0.7716(9) 0.0305 Uani
O94 O 0.7639(14) 0.1896(15) 0.8908(10) 0.0482 Uani
O95 O 0.7690(11) -0.0867(12) 0.9093(8) 0.0259 Uani
O96 O 1.0023(11) -0.2479(11) 0.7016(8) 0.0237 Uani
O97 O 0.6948(10) -0.3687(11) 0.8627(8) 0.0220 Uani
O98 O 1.0232(11) -0.5630(11) 0.6690(8) 0.0244 Uani
O99 O 0.6707(11) 0.1342(11) 0.8341(8) 0.0281 Uani
O100 O 1.1227(12) -0.3662(12) 0.8724(9) 0.0315 Uani
O101 O 0.4771(11) -0.1022(12) 0.6874(8) 0.0309 Uani
O102 O 1.0350(10) -0.4594(10) 0.7426(8) 0.0187 Uani
O103 O 0.9127(10) -0.3640(11) 0.8023(8) 0.0218 Uani
O104 O 0.4670(11) -0.1065(12) 0.8188(9) 0.0325 Uani
O105 O 0.9095(10) -0.5928(11) 0.7335(8) 0.0239 Uani
O106 O 0.9583(11) -0.3217(11) 0.8998(8) 0.0234 Uani
O107 O 0.9183(10) -0.3542(11) 0.6945(8) 0.0240 Uani
O108 O 0.9501(11) -0.1617(11) 0.6121(8) 0.0266 Uani
O109 O 1.1804(11) -0.4832(11) 0.6759(8) 0.0251 Uani
O110 O 0.6779(12) 0.1418(12) 0.7023(8) 0.0309 Uani
O111 O 0.5596(10) -0.3240(11) 0.8095(8) 0.0243 Uani
O112 O 0.9090(13) 0.0909(13) 0.7013(10) 0.0390 Uani
O113 O 0.4942(11) 0.0767(12) 0.8313(9) 0.0320 Uani
O114 O 0.3960(12) 0.0412(13) 0.6404(9) 0.0348 Uani
O115 O 0.9777(12) -0.0390(14) 0.6415(10) 0.0411 Uani
O116 O 0.3359(13) 0.0328(14) 0.4581(9) 0.0410 Uani
O117 O 1.0718(12) -0.2570(14) 0.5367(9) 0.0397 Uani
O118 O 0.6291(12) -0.0571(13) 0.9766(9) 0.0342 Uani
O119 O 0.7752(12) -0.4952(12) 0.8004(9) 0.0357 Uani
O120 O 1.2861(12) -0.4685(13) 0.8634(10) 0.0398 Uani
O121 O 1.0446(13) 0.0302(12) 0.7702(9) 0.0360 Uani
O122 O 1.2018(11) -1.0354(13) 1.1132(9) 0.0336 Uani
O123 O 0.9387(13) -0.0505(14) 0.3495(10) 0.0416 Uani
O124 O 0.8399(14) -0.2108(15) 0.7782(12) 0.0522 Uani
O125 O 0.3856(19) 0.1583(19) 0.9439(14) 0.0789 Uani
O126 O 0.499(2) 0.189(2) 1.0109(17) 0.1078 Uani
O127 O 0.243(4) 0.311(4) 0.946(3) 0.1109 Uani
O128 O 0.302(3) 0.413(3) 0.945(2) 0.0512 Uani
O129 O 0.481(3) 0.332(4) 0.966(3) 0.0688 Uani
O130 O 0.9323(17) -0.7834(18) 0.8414(12) 0.0680 Uani
O131 O 1.0652(19) -0.730(2) 0.8535(14) 0.0820 Uiso
O132 O 0.946(4) -0.588(4) 0.960(3) 0.1011 Uani
O133 O 1.052(2) -0.837(3) 0.9369(18) 0.0680 Uani
O134 O 0.828(4) -0.592(4) 0.968(3) 0.0856 Uani
O135 O 0.398(3) 0.341(3) 0.854(2) 0.1264 Uani
O136 O 0.347(2) 0.258(2) 0.8507(17) 0.0984 Uani
C13 C 0.364(2) 0.316(2) 0.7611(14) 0.0920 Uani
C14 C 0.343(2) 0.270(2) 0.7300(15) 0.0928 Uani
H11 H 0.3310 0.2321 0.7487 0.0930 Uiso
N3 N 0.3382(18) 0.2781(19) 0.6726(14) 0.0929 Uani
H12 H 0.3243 0.2479 0.6523 0.0930 Uiso
C15 C 0.355(2) 0.332(2) 0.6462(14) 0.0941 Uani
H13 H 0.3517 0.3377 0.6056 0.0940 Uiso
C16 C 0.376(2) 0.378(2) 0.6772(17) 0.1081 Uani
H14 H 0.3879 0.4164 0.6586 0.1080 Uiso
C17 C 0.381(2) 0.370(2) 0.7347(17) 0.1082 Uani
H15 H 0.3957 0.4029 0.7566 0.1080 Uiso
C18 C 0.374(4) 0.295(4) 0.826(3) 0.0984 Uani
W2A W 0.32234(7) 0.05247(7) 0.38686(5) 0.0226 Uani
W5A W 0.86260(7) -0.06936(7) 0.90730(5) 0.0273 Uani
W13A W 0.81910(7) -0.78240(8) 1.17168(6) 0.0311 Uani
W21A W 1.02998(6) -0.27117(7) 0.89907(5) 0.0224 Uani
W22A W 0.81907(7) -0.80317(8) 1.31331(6) 0.0336 Uani
W25A W 0.98430(8) -0.98859(8) 1.16196(6) 0.0360 Uani
W28A W 1.21239(8) -1.11931(7) 1.15907(6) 0.0347 Uani
W29A W 0.98559(8) -0.00960(8) 0.30305(6) 0.0384 Uani
Eu3A Eu 0.60339(12) -0.27721(11) 1.05619(8) 0.0506 Uani
P5A P 1.0549(4) -0.2689(4) 0.7548(3) 0.0201 Uani
O63A O 1.1334(10) -0.9085(10) 1.1830(7) 0.0191 Uani
O83A O 1.0993(10) -0.2162(11) 0.7569(8) 0.0242 Uani
O86A O 0.8781(10) -0.6490(10) 1.2496(7) 0.0183 Uani
O90A O 0.9580(11) -0.0525(11) 0.8859(8) 0.0248 Uani
O91A O 1.0944(10) -0.2218(11) 0.8802(8) 0.0244 Uani
O92A O 0.3320(12) 0.2896(13) 1.0358(9) 0.0342 Uani
O95A O 1.2310(11) -0.9133(12) 1.0907(8) 0.0259 Uani
O96A O 0.9977(11) -0.7521(11) 1.2984(8) 0.0237 Uani
O100A O 0.8773(12) -0.6338(12) 1.1276(9) 0.0315 Uani
O106A O 1.0417(11) -0.6783(11) 1.1002(8) 0.0234 Uani
O116A O 0.6641(13) -0.0328(14) 0.5419(9) 0.0410 Uani
O122A O 0.7982(11) 0.0354(13) 0.8868(9) 0.0336 Uani
O123A O 1.0613(13) 0.0505(14) 0.6505(10) 0.0416 Uani
Eu1 Eu 0.56802(8) 0.38817(9) 0.52181(6) 0.0260 Uani
O1 O 0.5683(15) 0.2647(15) 0.4841(11) 0.0544 Uani
O2 O 0.5951(16) 0.2970(16) 0.5966(11) 0.0580 Uani
O3 O 0.6772(14) 0.3831(15) 0.5844(11) 0.0495 Uani
O4 O 0.7052(15) 0.3073(16) 0.4708(11) 0.0563 Uani
O5 O 0.5104(11) 0.4747(12) 0.6020(8) 0.0298 Uani
O6 O 0.5489(12) 0.4040(12) 0.4207(9) 0.0318 Uani
N1 N 0.4042(18) 0.6600(19) 0.7515(13) 0.0497 Uani
H1 H 0.3791 0.7090 0.7616 0.0500 Uiso
C1 C 0.4587(16) 0.5639(17) 0.6769(12) 0.0250 Uani
C2 C 0.4199(16) 0.6401(18) 0.6944(12) 0.0256 Uani
H2 H 0.4038 0.6793 0.6664 0.0260 Uiso
C3 C 0.428(2) 0.601(2) 0.7963(18) 0.0537 Uani
H3 H 0.4162 0.6130 0.8363 0.0540 Uiso
C4 C 0.468(2) 0.531(3) 0.7748(18) 0.0559 Uani
H4 H 0.4881 0.4899 0.8013 0.0560 Uiso
C5 C 0.484(2) 0.512(3) 0.7151(19) 0.0627 Uani
H5 H 0.5132 0.4595 0.7034 0.0630 Uiso
C6 C 0.4767(16) 0.5406(18) 0.6163(12) 0.0267 Uani
O7 O 0.4350(13) 0.3888(13) 0.5377(10) 0.0396 Uani
O8 O 0.5858(11) 0.4968(12) 0.4962(9) 0.0303 Uani
N2 N 0.1962(14) 0.4325(15) 0.4977(10) 0.0283 Uani
H6 H 0.1842 0.3941 0.4907 0.0280 Uiso
C7 C 0.2984(17) 0.4754(17) 0.5125(13) 0.0283 Uani
C8 C 0.2760(17) 0.4151(18) 0.5067(12) 0.0290 Uani
H7 H 0.3162 0.3630 0.5091 0.0290 Uiso
C9 C 0.1362(18) 0.5014(19) 0.4985(13) 0.0325 Uani
H8 H 0.0803 0.5102 0.4959 0.0320 Uiso
C10 C 0.1578(19) 0.563(2) 0.5036(13) 0.0397 Uani
H9 H 0.1153 0.6145 0.5013 0.0400 Uiso
C11 C 0.2376(16) 0.5526(17) 0.5118(13) 0.0276 Uani
H10 H 0.2507 0.5946 0.5166 0.0270 Uiso
C12 C 0.3856(16) 0.4545(17) 0.5192(12) 0.0225 Uani
Eu1A Eu 0.43198(8) 0.61183(9) 0.47819(6) 0.0260 Uani
O6A O 0.4511(12) 0.5960(12) 0.5793(9) 0.0318 Uani
C6A C 0.5233(16) 0.4594(18) 0.3837(12) 0.0267 Uani
O8A O 0.4142(11) 0.5032(12) 0.5038(9) 0.0303 Uani
C12A C 0.6144(16) 0.5455(17) 0.4808(12) 0.0225 Uani
loop_
_atom_site_aniso_label
_atom_site_aniso_U_11
_atom_site_aniso_U_22
_atom_site_aniso_U_33
_atom_site_aniso_U_23
_atom_site_aniso_U_13
_atom_site_aniso_U_12
O9 0.053(9) 0.039(9) 0.040(9) -0.006(7) -0.006(7) -0.021(7)
O10 0.030(12) 0.029(12) 0.029(12) -0.002(9) 0.004(9) -0.012(9)
O11 0.048(14) 0.056(15) 0.054(15) 0.002(9) -0.003(9) -0.025(10)
O12 0.058(15) 0.054(16) 0.056(16) 0.005(9) -0.006(9) -0.027(10)
O13 0.043(13) 0.045(14) 0.037(14) 0.001(9) -0.003(9) -0.017(10)
K1 0.019(3) 0.036(4) 0.011(3) 0.001(3) -0.009(2) 0.002(3)
K2 0.084 0.045 0.022 -0.004 0.015 -0.046
W1 0.0201 0.0183 0.0169 -0.0006 -0.0003 -0.007
W2 0.0246 0.0171 0.0212 0.0049 -0.0036 -0.0047
W3 0.0229 0.0204 0.0173 0.0045 -0.0027 -0.0085
W4 0.0216 0.029 0.0165 0.0035 0.0003 -0.0114
W5 0.0283 0.0261 0.0256 -0.0068 -0.0025 -0.0102
W6 0.0377 0.028 0.0253 0.0013 -0.0063 -0.0223
W7 0.0211 0.0202 0.0169 0.0012 -0.0024 -0.0089
W8 0.0296 0.0199 0.0316 -0.0065 -0.0005 -0.0012
W9 0.0237 0.0226 0.0253 -0.0016 0.0007 -0.0005
W10 0.0279 0.0207 0.0269 0.0045 -0.0055 -0.001
W11 0.0209 0.0486 0.0248 -0.0001 0.0009 -0.018
W12 0.03 0.0213 0.0277 0.0069 0.0003 -0.0132
W13 0.0248 0.0385 0.0362 -0.0053 -0.0025 -0.0195
W14 0.0215 0.0252 0.0209 0.0019 0.0028 -0.011
W15 0.0191 0.0391 0.0253 0.0029 -0.0047 -0.0142
W16 0.0409 0.0192 0.025 -0.0001 -0.0034 -0.0157
W17 0.0195 0.0342 0.0271 -0.0015 0.0028 -0.0053
W18 0.0202 0.0318 0.0315 0.0052 -0.0056 -0.0048
W19 0.0441 0.0351 0.0269 0.0049 0.001 -0.0287
W20 0.0202 0.0438 0.0306 -0.0071 0.0014 -0.009
W21 0.0221 0.0255 0.0197 -0.0008 -0.0028 -0.0104
W22 0.0284 0.0457 0.0363 0.0012 0.0019 -0.0255
W23 0.046 0.0231 0.0245 0.007 -0.0044 -0.0214
W24 0.0385 0.0143 0.0323 0.005 -0.001 -0.0033
W25 0.0349 0.0359 0.0465 -0.0095 -0.0018 -0.0239
W26 0.0221 0.0273 0.0272 -0.0006 -0.0053 -0.0019
W27 0.0488 0.017 0.0452 0.0048 -0.0008 -0.0143
W28 0.041 0.0181 0.0427 -0.0075 -0.0034 -0.0107
W29 0.0413 0.0392 0.0481 0.0035 0.0003 -0.0303
W30 0.0253 0.0258 0.0212 -0.0028 0.0004 -0.0065
Eu2 0.0348 0.0318 0.0358 0.0024 -0.0007 -0.0152
Eu3 0.0545 0.0367 0.0297 0.0076 0.0119 0.0063
Eu4 0.084 0.031 0.0318 0.0028 0 -0.027
P1 0.022 0.017 0.014 0.001 -0.001 -0.008
P2 0.014 0.018 0.019 0.001 0 -0.006
P3 0.019 0.018 0.027 -0.002 -0.001 -0.008
P4 0.018 0.022 0.02 -0.004 0.001 -0.011
P5 0.016 0.021 0.022 -0.005 0.001 -0.007
O14 0.026 0.031 0.03 0.003 0 -0.003
O15 0.026 0.037 0.035 -0.003 0.001 -0.014
O16 0.045 0.047 0.031 -0.002 -0.005 -0.012
O17 0.035 0.032 0.038 0.001 -0.006 -0.011
O18 0.035 0.019 0.022 -0.002 0.004 -0.014
O19 0.017 0.027 0.023 0.012 -0.003 -0.011
O20 0.018 0.02 0.019 0.012 0.003 -0.006
O21 0.023 0.022 0.024 -0.007 -0.002 -0.011
O22 0.026 0.016 0.021 0.001 -0.006 -0.011
O23 0.022 0.025 0.025 0 -0.01 -0.002
O24 0.036 0.035 0.032 0.002 -0.005 -0.021
O25 0.029 0.022 0.032 0 0.003 -0.009
O26 0.042 0.042 0.034 -0.006 -0.009 -0.021
O27 0.033 0.014 0.03 0.007 -0.002 -0.002
O28 0.019 0.039 0.035 -0.002 0 -0.009
O29 0.038 0.05 0.029 0.003 -0.011 -0.023
O30 0.018 0.022 0.032 0.003 -0.007 -0.014
O31 0.059 0.044 0.065 0.005 -0.004 -0.028
O32 0.056 0.052 0.058 -0.006 -0.01 -0.036
O33 0.034 0.038 0.034 -0.008 -0.007 -0.02
O34 0.04 0.025 0.029 0.003 -0.004 -0.017
O35 0.033 0.037 0.044 0.003 -0.001 -0.016
O36 0.023 0.028 0.023 0.012 -0.001 -0.006
O37 0.03 0.035 0.026 0.005 0.001 -0.007
O38 0.038 0.047 0.043 -0.004 -0.008 -0.02
O39 0.039 0.047 0.052 0.001 0.005 -0.026
O40 0.031 0.041 0.039 0.003 -0.001 -0.017
O41 0.027 0.026 0.034 0.004 -0.004 -0.019
O42 0.042 0.034 0.035 -0.001 0 -0.022
O43 0.022 0.026 0.021 -0.005 -0.005 -0.006
O44 0.041 0.03 0.032 0.002 -0.009 -0.016
O45 0.027 0.03 0.025 0.008 -0.003 -0.018
O46 0.041 0.043 0.044 -0.005 -0.004 -0.016
O47 0.033 0.023 0.031 -0.008 -0.006 -0.013
O48 0.021 0.018 0.037 -0.003 0.002 -0.008
O49 0.036 0.027 0.029 0.007 -0.002 -0.009
O50 0.022 0.024 0.028 -0.004 -0.005 -0.012
O51 0.025 0.014 0.026 0.003 -0.004 -0.008
O52 0.025 0.017 0.028 0.002 -0.004 -0.001
O53 0.026 0.022 0.022 0.007 -0.005 -0.004
O54 0.026 0.018 0.031 -0.004 -0.003 -0.016
O55 0.034 0.034 0.035 0.002 -0.001 -0.014
O56 0.037 0.03 0.037 0 -0.009 -0.018
O57 0.018 0.023 0.026 0.004 -0.004 -0.016
O58 0.023 0.028 0.037 0.001 0.001 -0.007
O59 0.023 0.011 0.011 -0.002 -0.003 -0.006
O60 0.02 0.023 0.01 0.001 0.003 -0.007
O61 0.018 0.021 0.019 -0.006 -0.003 -0.005
O62 0.029 0.024 0.039 -0.001 -0.002 -0.014
O63 0.023 0.018 0.017 -0.002 0.001 -0.01
O64 0.023 0.028 0.014 0.001 0.002 -0.008
O65 0.027 0.019 0.028 0.003 -0.006 -0.014
O66 0.042 0.037 0.043 0.011 0.009 -0.025
O67 0.019 0.021 0.02 0.007 -0.002 -0.005
O68 0.026 0.034 0.044 -0.001 -0.004 -0.014
O69 0.026 0.026 0.018 0.005 0.007 -0.012
O70 0.036 0.018 0.038 0.002 -0.003 -0.017
O71 0.021 0.015 0.013 0.004 -0.001 -0.003
O72 0.016 0.016 0.032 -0.002 0 -0.014
O73 0.036 0.031 0.023 -0.004 -0.003 -0.015
O74 0.024 0.017 0.026 0.004 -0.004 -0.008
O75 0.022 0.025 0.021 -0.001 0 -0.013
O76 0.017 0.021 0.013 0 0 -0.008
O77 0.011 0.021 0.016 0.001 0.004 -0.008
O78 0.031 0.027 0.033 -0.002 0 -0.014
O79 0.035 0.032 0.038 0.002 0 -0.022
O80 0.027 0.021 0.032 -0.003 -0.002 -0.006
O81 0.028 0.029 0.027 0.007 -0.001 -0.012
O82 0.02 0.017 0.03 -0.004 0.007 -0.005
O83 0.018 0.027 0.027 0.002 -0.006 -0.009
O84 0.034 0.029 0.033 0.005 -0.008 -0.014
O85 0.039 0.026 0.022 0.004 -0.003 -0.012
O86 0.023 0.017 0.021 0.001 -0.004 -0.014
O87 0.017 0.016 0.019 0.002 0.002 -0.006
O88 0.03 0.028 0.029 0 -0.008 -0.016
O89 0.026 0.024 0.032 -0.002 0.003 -0.016
O90 0.026 0.025 0.019 -0.007 -0.002 -0.007
O91 0.022 0.028 0.024 -0.004 0.002 -0.012
O92 0.03 0.043 0.034 -0.003 0.006 -0.021
O93 0.039 0.016 0.032 0 0.007 -0.009
O94 0.047 0.046 0.048 -0.001 -0.004 -0.017
O95 0.03 0.028 0.018 -0.002 -0.003 -0.011
O96 0.027 0.026 0.021 0.005 0.005 -0.015
O97 0.02 0.022 0.025 0 -0.002 -0.01
O98 0.028 0.028 0.017 0 -0.003 -0.012
O99 0.037 0.023 0.019 -0.013 0.005 -0.009
O100 0.032 0.029 0.03 0.003 -0.006 -0.01
O101 0.023 0.035 0.029 -0.008 -0.007 -0.007
O102 0.018 0.013 0.024 0.002 -0.001 -0.006
O103 0.026 0.02 0.025 -0.004 -0.002 -0.015
O104 0.027 0.032 0.03 -0.006 0.005 -0.006
O105 0.024 0.025 0.018 0.007 -0.008 -0.006
O106 0.027 0.021 0.022 -0.001 0.003 -0.011
O107 0.02 0.024 0.029 -0.001 -0.008 -0.01
O108 0.023 0.025 0.033 -0.003 0.002 -0.012
O109 0.028 0.024 0.018 0.01 0.001 -0.007
O110 0.046 0.026 0.025 0.005 -0.001 -0.02
O111 0.025 0.024 0.026 0.001 0.001 -0.013
O112 0.048 0.032 0.048 -0.006 0.002 -0.028
O113 0.026 0.029 0.035 0 0 -0.007
O114 0.036 0.033 0.029 0.003 -0.016 -0.008
O115 0.037 0.042 0.045 0.004 -0.014 -0.017
O116 0.048(9) 0.040(9) 0.028(8) -0.003(7) -0.003(7) -0.013(7)
O117 0.037 0.044 0.037 0.005 -0.002 -0.017
O118 0.036 0.033 0.029 -0.003 -0.001 -0.011
O119 0.04 0.027 0.046 0 -0.004 -0.02
O120 0.036 0.038 0.04 -0.003 -0.007 -0.011
O121 0.047 0.026 0.035 0.009 0.005 -0.017
O122 0.027 0.034 0.041 0 0.003 -0.015
O123 0.04 0.038 0.049 0.005 0.004 -0.02
O124 0.051 0.046 0.064 0.005 -0.008 -0.025
O125 0.085 0.073 0.076 -0.001 0 -0.033
O126 0.105 0.11 0.1 0.008 -0.007 -0.04
O127 0.11 0.11 0.11 0.004 -0.009 -0.046
O128 0.05 0.049 0.044 0.003 0.004 -0.013
O129 0.07 0.068 0.071 -0.005 -0.012 -0.032
O130 0.074 0.067 0.064 -0.002 -0.013 -0.031
O132 0.1 0.1 0.1 0.001 -0.007 -0.041
O133 0.071 0.066 0.063 -0.001 -0.009 -0.026
O134 0.089 0.082 0.085 0.002 -0.007 -0.037
O135 0.126 0.126 0.125 0.003 -0.005 -0.054
O136 0.096 0.098 0.1 0.006 -0.005 -0.042
C13 0.086 0.091 0.086 -0.006 0.002 -0.028
C14 0.088 0.096 0.087 0.005 -0.005 -0.034
N3 0.091 0.093 0.086 0.001 -0.002 -0.033
C15 0.089 0.093 0.089 0.003 0.003 -0.031
C16 0.114 0.103 0.105 0.006 -0.006 -0.046
C17 0.112 0.106 0.104 0 -0.004 -0.046
C18 0.095 0.097 0.101 0.007 -0.002 -0.041
W2A 0.0246(5) 0.0171(6) 0.0212(6) 0.0049(5) -0.0036(5) -0.0047(5)
W5A 0.0283 0.0261 0.0256 -0.0068 -0.0025 -0.0102
W13A 0.0248 0.0385 0.0362 -0.0053 -0.0025 -0.0195
W21A 0.0221 0.0255 0.0197 -0.0008 -0.0028 -0.0104
W22A 0.0284 0.0457 0.0363 0.0012 0.0019 -0.0255
W25A 0.0349 0.0359 0.0465 -0.0095 -0.0018 -0.0239
W28A 0.041 0.0181 0.0427 -0.0075 -0.0034 -0.0107
W29A 0.0413 0.0392 0.0481 0.0035 0.0003 -0.0303
Eu3A 0.0545 0.0367 0.0297 0.0076 0.0119 0.0063
P5A 0.016 0.021 0.022 -0.005 0.001 -0.007
O63A 0.023 0.018 0.017 -0.002 0.001 -0.01
O83A 0.018 0.027 0.027 0.002 -0.006 -0.009
O86A 0.023 0.017 0.021 0.001 -0.004 -0.014
O90A 0.026 0.025 0.019 -0.007 -0.002 -0.007
O91A 0.022 0.028 0.024 -0.004 0.002 -0.012
O92A 0.03 0.043 0.034 -0.003 0.006 -0.021
O95A 0.03 0.028 0.018 -0.002 -0.003 -0.011
O96A 0.027 0.026 0.021 0.005 0.005 -0.015
O100A 0.032 0.029 0.03 0.003 -0.006 -0.01
O106A 0.027 0.021 0.022 -0.001 0.003 -0.011
O116A 0.048 0.04 0.028 -0.003 -0.003 -0.013
O122A 0.027 0.034 0.041 0 0.003 -0.015
O123A 0.04 0.038 0.049 0.005 0.004 -0.02
Eu1 0.0276(7) 0.0207(8) 0.0294(8) 0.0005(7) -0.0024(6) -0.0104(6)
O1 0.064(10) 0.045(10) 0.056(10) -0.009(8) 0.000(8) -0.026(8)
O2 0.063(10) 0.060(11) 0.055(10) 0.004(8) -0.003(8) -0.031(8)
O3 0.047(9) 0.050(10) 0.054(10) 0.001(8) -0.010(7) -0.023(8)
O4 0.050(9) 0.055(10) 0.059(10) 0.007(8) -0.002(8) -0.019(8)
O5 0.030(8) 0.027(8) 0.029(8) -0.003(7) -0.005(6) -0.009(7)
O6 0.037 0.033 0.027 -0.001 -0.011 -0.016
N1 0.052(10) 0.042(11) 0.054(11) 0.000(8) 0.000(8) -0.020(8)
C1 0.027(9) 0.026(10) 0.023(10) 0.002(8) -0.008(7) -0.012(8)
C2 0.024(9) 0.032(10) 0.023(10) 0.004(8) -0.005(7) -0.014(8)
C3 0.051(12) 0.061(13) 0.054(13) 0.002(9) -0.006(9) -0.029(9)
C4 0.055(12) 0.060(13) 0.062(13) 0.007(9) -0.002(9) -0.034(10)
C5 0.063(13) 0.062(14) 0.064(14) 0.004(9) -0.008(9) -0.028(10)
C6 0.028(9) 0.028(10) 0.024(10) -0.008(8) -0.002(7) -0.012(8)
O7 0.039 0.034 0.047 0 -0.005 -0.017
O8 0.029(7) 0.031(7) 0.034(7) 0.000(6) -0.003(5) -0.016(6)
N2 0.032 0.032 0.021 -0.006 -0.002 -0.014
C7 0.03 0.024 0.035 0 0.002 -0.016
C8 0.03 0.029 0.027 -0.008 -0.01 -0.011
C9 0.031 0.037 0.03 0.004 -0.007 -0.015
C10 0.037 0.04 0.031 -0.002 -0.002 -0.007
C11 0.024 0.024 0.032 0.002 0.006 -0.009
C12 0.022 0.023 0.022 0.005 0.011 -0.011
Eu1A 0.0276 0.0207 0.0294 0.0005 -0.0024 -0.0104
O6A 0.037(8) 0.033(9) 0.027(8) -0.001(7) -0.011(6) -0.016(7)
C6A 0.028 0.028 0.024 -0.008 -0.002 -0.012
O8A 0.029 0.031 0.034 0 -0.003 -0.016
C12A 0.022(9) 0.023(10) 0.022(9) 0.005(8) 0.011(7) -0.011(8)
loop_
_geom_bond_atom_site_label_1
_geom_bond_atom_site_label_2
_geom_bond_site_symmetry_1
_geom_bond_site_symmetry_2
Eu1 O1 1_555 1_555
O2 Eu1 1_555 1_555
O3 Eu1 1_555 1_555
O4 Eu1 1_555 1_555
O5 Eu1 1_555 1_555
O6 Eu1 1_555 1_555
N1 H1 1_555 1_555
C1 C2 1_555 1_555
C2 N1 1_555 1_555
H2 C2 1_555 1_555
C3 N1 1_555 1_555
H3 C3 1_555 1_555
C4 C3 1_555 1_555
H4 C4 1_555 1_555
C5 C1 1_555 1_555
H5 C5 1_555 1_555
C6 O5 1_555 1_555
O7 Eu1 1_555 1_555
O8 Eu1 1_555 1_555
N2 H6 1_555 1_555
C7 C8 1_555 1_555
C8 N2 1_555 1_555
H7 C8 1_555 1_555
C9 N2 1_555 1_555
H8 C9 1_555 1_555
C10 C9 1_555 1_555
H9 C10 1_555 1_555
C11 C7 1_555 1_555
H10 C11 1_555 1_555
C12 O7 1_555 1_555
K1 O114 1_555 1_555
K2 O14 1_555 1_555
W1 O20 1_555 1_555
W2 O18 1_555 1_555
W3 O16 1_555 1_555
W4 O19 1_555 1_555
W5 O15 1_555 1_555
W6 O22 1_555 1_555
W7 O18 1_555 1_555
W8 O17 1_555 1_555
W9 O23 1_555 1_555
W10 O23 1_555 1_555
W11 O36 1_555 1_555
W12 O14 1_555 1_555
W13 O26 1_555 1_555
W14 O60 1_555 1_555
W15 O29 1_555 1_555
W16 O45 1_555 1_555
W17 O28 1_555 1_555
W18 O50 1_555 1_555
W19 O57 1_555 1_555
W20 O38 1_555 1_555
W21 O21 1_555 1_555
W22 O39 1_555 1_555
W23 O34 1_555 1_555
W24 O17 1_555 1_555
W25 O32 1_555 1_555
W26 O33 1_555 1_555
W27 O31 1_555 1_555
W28 O65 1_555 1_555
W29 O72 1_555 1_555
W30 O48 1_555 1_555
Eu2 O18 1_555 1_555
Eu3 O46 1_555 1_555
Eu4 O34 1_555 1_555
P1 O67 1_555 1_555
P2 O71 1_555 1_555
P3 O25 1_555 1_555
P4 O19 1_555 1_555
P5 O21 1_555 1_555
O20 W7 1_555 1_555
O22 W7 1_555 1_555
O24 W7 1_555 1_555
O25 W12 1_555 1_555
O27 W24 1_555 1_555
O30 W1 1_555 1_555
O33 W17 1_555 1_555
O35 W10 1_555 1_555
O36 W4 1_555 1_555
O37 W9 1_555 1_555
O40 W11 1_555 1_555
O41 W11 1_555 1_555
O42 W13 1_555 1_555
O43 W7 1_555 1_555
O44 W6 1_555 1_555
O45 W6 1_555 1_555
O46 W8 1_555 1_555
O47 W16 1_555 1_555
O48 W20 1_555 1_555
O49 W21 1_555 1_555
O50 W2 1_555 1_555
O51 W8 1_555 1_555
O52 W3 1_555 1_555
O53 W10 1_555 1_555
O54 W3 1_555 1_555
O55 W12 1_555 1_555
O56 W2 1_555 1_555
O57 W6 1_555 1_555
O58 W5 1_555 1_555
O59 W11 1_555 1_555
O60 W17 1_555 1_555
O61 W6 1_555 1_555
O62 W18 1_555 1_555
O63 P3 1_555 1_555
O64 W7 1_555 1_555
O65 W27 1_555 1_555
O66 W19 1_555 1_555
O67 W16 1_555 1_555
O68 W13 1_555 1_555
O69 W2 1_555 1_555
O70 W14 1_555 1_555
O71 W8 1_555 1_555
O72 W25 1_555 1_555
O73 W1 1_555 1_555
O74 W1 1_555 1_555
O75 W30 1_555 1_555
O76 W3 1_555 1_555
O77 W18 1_555 1_555
O78 W22 1_555 1_555
O79 W25 1_555 1_555
O80 W18 1_555 1_555
O81 W6 1_555 1_555
O82 W17 1_555 1_555
O83 P5 1_555 1_555
O84 W1 1_555 1_555
O85 W10 1_555 1_555
O86 W17 1_555 1_555
O87 W2 1_555 1_555
O88 W4 1_555 1_555
O89 W13 1_555 1_555
O90 W5 1_555 1_555
O91 W21 1_555 1_555
O92 W4 1_555 1_555
O93 W27 1_555 1_555
O94 W28 1_555 1_555
O95 W30 1_555 1_555
O96 W14 1_555 1_555
O97 W4 1_555 1_555
O98 W9 1_555 1_555
O99 W8 1_555 1_555
O100 W26 1_555 1_555
O101 W15 1_555 1_555
O102 W9 1_555 1_555
O103 W3 1_555 1_555
O104 W11 1_555 1_555
O105 W16 1_555 1_555
O106 W3 1_555 1_555
O107 W1 1_555 1_555
O108 W12 1_555 1_555
O109 W9 1_555 1_555
O110 W24 1_555 1_555
O111 W11 1_555 1_555
O112 W27 1_555 1_555
O113 W8 1_555 1_555
O114 W18 1_555 1_555
O115 W12 1_555 1_555
O116 K1 1_555 1_555
O117 W14 1_555 1_555
O118 W30 1_555 1_555
O119 W19 1_555 1_555
O120 W26 1_555 1_555
O121 W25 1_555 1_555
O122 W5 1_555 1_555
O123 K2 1_555 1_555
O124 Eu2 1_555 1_555
O125 Eu3 1_555 1_555
O126 Eu3 1_555 1_555
O127 Eu3 1_555 1_555
O128 Eu3 1_555 1_555
O129 Eu3 1_555 1_555
O130 Eu4 1_555 1_555
O131 Eu4 1_555 1_555
O132 Eu4 1_555 1_555
O133 Eu4 1_555 1_555
O134 Eu4 1_555 1_555
O135 Eu3 1_555 1_555
O136 Eu3 1_555 1_555
C13 C14 1_555 1_555
C14 H11 1_555 1_555
N3 C14 1_555 1_555
H12 N3 1_555 1_555
C15 N3 1_555 1_555
H13 C15 1_555 1_555
C16 C15 1_555 1_555
H14 C16 1_555 1_555
C17 C13 1_555 1_555
H15 C17 1_555 1_555
C18 O135 1_555 1_555
Eu1A O8 1_555 1_555
O6A C6 1_555 1_555
C6A O6 1_555 1_555
O8A Eu1 1_555 1_555
C12A O8 1_555 1_555
W2A O116 1_555 1_555
W5A O63 1_555 1_555
W13A O83 1_555 1_555
W21A O100 1_555 1_555
W22A O83 1_555 1_555
W25A O90 1_555 1_555
W28A O122 1_555 1_555
W29A O123 1_555 1_555
Eu3A O92 1_555 1_555
P5A O86 1_555 1_555
O63A W5 1_555 1_555
O83A W13 1_555 1_555
O86A P5 1_555 1_555
O90A W25 1_555 1_555
O91A W13 1_555 1_555
O92A Eu3 1_555 1_555
O95A W5 1_555 1_555
O96A P5 1_555 1_555
O100A W21 1_555 1_555
O106A W21 1_555 1_555
O116A W2 1_555 1_555
O122A W28 1_555 1_555
O123A W29 1_555 1_555
C1 C6 1_555 1_555
C4 C5 1_555 1_555
C7 C12 1_555 1_555
C10 C11 1_555 1_555
C12 O8A 1_555 1_555
W4 O52 1_555 1_555
W9 O30 1_555 1_555
W10 O76 1_555 1_555
W10 O102 1_555 1_555
W12 O69 1_555 1_555
W14 O84 1_555 1_555
W14 O108 1_555 1_555
W15 O41 1_555 1_555
W15 O59 1_555 1_555
W15 O61 1_555 1_555
W15 O64 1_555 1_555
W16 O74 1_555 1_555
W16 O98 1_555 1_555
W17 O109 1_555 1_555
W18 O101 1_555 1_555
W19 O81 1_555 1_555
W19 O97 1_555 1_555
W19 O111 1_555 1_555
W20 O77 1_555 1_555
W20 O80 1_555 1_555
W20 O104 1_555 1_555
W20 O113 1_555 1_555
W21 O58 1_555 1_555
W22 O42 1_555 1_555
W22 O70 1_555 1_555
W22 O82 1_555 1_555
W22 O83A 1_555 1_555
W23 O54 1_555 1_555
W23 O67 1_555 1_555
W23 O85 1_555 1_555
W23 O105 1_555 1_555
W23 O119 1_555 1_555
W24 O56 1_555 1_555
W24 O62 1_555 1_555
W24 O71 1_555 1_555
W25 O68 1_555 1_555
W26 O53 1_555 1_555
W26 O86 1_555 1_555
W26 O89 1_555 1_555
W27 O55 1_555 1_555
W27 O110 1_555 1_555
W28 O79 1_555 1_555
W28 O93 1_555 1_555
W28 O99 1_555 1_555
W29 O78 1_555 1_555
W29 O112 1_555 1_555
W29 O115 1_555 1_555
W29 O121 1_555 1_555
W30 O51 1_555 1_555
W30 O88 1_555 1_555
Eu2 O20 1_555 1_555
Eu2 O25 1_555 1_555
Eu2 O43 1_555 1_555
Eu2 O69 1_555 1_555
Eu2 O84 1_555 1_555
Eu2 O87 1_555 1_555
Eu2 O96 1_555 1_555
Eu2 O107 1_555 1_555
Eu2 O108 1_555 1_555
Eu4 O49 1_555 1_555
P1 O102 1_555 1_555
P1 O103 1_555 1_555
P1 O107 1_555 1_555
P2 O75 1_555 1_555
P2 O77 1_555 1_555
P2 O87 1_555 1_555
P3 O65 1_555 1_555
P3 O72 1_555 1_555
P4 O43 1_555 1_555
P4 O57 1_555 1_555
P4 O59 1_555 1_555
O91 W13A 1_555 1_555
O95 W5A 1_555 1_555
O96 P5A 1_555 1_555
O106 W21A 1_555 1_555
O136 C18 1_555 1_555
C13 C18 1_555 1_555
C16 C17 1_555 1_555
Eu1A O6A 1_555 1_555
Eu1A O8A 1_555 1_555
W5A O90A 1_555 1_555
W5A O122A 1_555 1_555
W21A O91A 1_555 1_555
P5A O83A 1_555 1_555

#END
