
#######################################################################
#
#                 Cambridge Crystallographic Data Centre
#                                CCDC 
#
#######################################################################
#
# If this CIF has been generated from an entry in the Cambridge 
# Structural Database, then it will include bibliographic, chemical, 
# crystal, experimental, refinement or atomic coordinate data resulting 
# from the CCDC's data processing and validation procedures.
#
#######################################################################

data_KOQJOR
_chemical_formula_moiety         'C26 H38 N5 O13 Zn3'
_symmetry_cell_setting           orthorhombic
_symmetry_space_group_name_H-M   'P n m a'
_symmetry_Int_Tables_number      62
_space_group_name_Hall           '-P 2ac 2n'
loop_
_symmetry_equiv_pos_site_id
_symmetry_equiv_pos_as_xyz
1 x,y,z
2 1/2-x,-y,1/2+z
3 -x,1/2+y,-z
4 1/2+x,1/2-y,1/2-z
5 -x,-y,-z
6 1/2+x,y,1/2-z
7 x,1/2-y,z
8 1/2-x,1/2+y,1/2+z
_cell_length_a                   13.812(8)
_cell_length_b                   21.618(13)
_cell_length_c                   9.061(6)
_cell_angle_alpha                90
_cell_angle_beta                 90
_cell_angle_gamma                90
_cell_volume                     2705.5
loop_
_atom_site_label
_atom_site_type_symbol
_atom_site_fract_x
_atom_site_fract_y
_atom_site_fract_z
_atom_site_U_iso_or_equiv
_atom_site_thermal_displace_type
O5 O 0.4548(9) 0.2500 0.4457(11) 0.0600 Uani
H16 H 0.451(8) 0.2825(9) 0.506(4) 0.0720 Uiso
H16F H 0.451(8) 0.2175(9) 0.506(4) 0.0720 Uiso
O6 O 0.4851(8) 0.3451(5) 0.6370(10) 0.0833 Uani
H17 H 0.491(8) 0.381(3) 0.681(13) 0.1000 Uiso
H18 H 0.536(6) 0.323(4) 0.663(15) 0.1000 Uiso
O7 O 0.5170(11) 0.4673(5) 0.6220(9) 0.1113 Uani
H19 H 0.523(13) 0.498(5) 0.556(11) 0.1340 Uiso
H20 H 0.526(11) 0.488(5) 0.707(7) 0.1340 Uiso
O8 O 0.2848(14) 0.3770(11) 0.748(2) 0.1147 Uani
H21 H 0.2359 0.3529 0.7297 0.1710 Uiso
H22 H 0.3207 0.3607 0.8166 0.1710 Uiso
Zn1 Zn 0.64210(10) 0.2500 0.06785(15) 0.0307 Uani
O1 O 0.7153(7) 0.2500 -0.1137(9) 0.0607 Uani
O2 O 1.0045(6) 0.2500 -0.6454(10) 0.0573 Uani
O3 O 0.6156(10) 0.1864(7) -0.1687(13) 0.0537 Uani
O4 O 1.0052(9) 0.2970(7) -0.4459(14) 0.0470 Uani
N1 N 0.6968(5) 0.3263(4) 0.1730(7) 0.0343 Uani
N2 N 0.9141(5) 0.4930(3) 0.4087(7) 0.0317 Uani
C1 C 0.7762(6) 0.3548(5) 0.1259(9) 0.0393 Uani
H1 H 0.8073 0.3394 0.0400 0.0470 Uiso
C2 C 0.8168(6) 0.4071(5) 0.1973(10) 0.0387 Uani
H2 H 0.8742 0.4256 0.1600 0.0460 Uiso
C3 C 0.7729(6) 0.4307(5) 0.3196(10) 0.0410 Uani
C4 C 0.6896(6) 0.4013(5) 0.3721(10) 0.0440 Uani
H3 H 0.6577 0.4159 0.4583 0.0530 Uiso
C5 C 0.6544(6) 0.3502(5) 0.2957(9) 0.0400 Uani
H4 H 0.5973 0.3308 0.3314 0.0480 Uiso
C6 C 0.8094(7) 0.4867(5) 0.4005(11) 0.0497 Uani
H5 H 0.7829 0.5240 0.3517 0.0590 Uiso
H6 H 0.7834 0.4857 0.5023 0.0590 Uiso
C7 C 0.9561(7) 0.4424(4) 0.4987(10) 0.0377 Uani
H7 H 0.9409 0.4022 0.4518 0.0450 Uiso
H8 H 0.9260 0.4427 0.5978 0.0450 Uiso
C8 C 0.9372(6) 0.5515(4) 0.4857(9) 0.0320 Uani
H9 H 0.9066 0.5517 0.5845 0.0380 Uiso
H10 H 0.9114 0.5869 0.4288 0.0380 Uiso
C9 C 0.673(3) 0.219(2) -0.225(3) 0.0323 Uani
C10 C 0.704(3) 0.2181(18) -0.362(3) 0.0323 Uani
H11 H 0.6665 0.2387 -0.4608 0.0390 Uiso
C11 C 0.858(4) 0.2288(18) -0.534(5) 0.0323 Uani
H12 H 0.8408 0.1927 -0.5956 0.0390 Uiso
H13 H 0.8233 0.2649 -0.5756 0.0390 Uiso
C12 C 0.959(4) 0.271(3) -0.533(5) 0.0323 Uani
C13 C 0.812(4) 0.216(3) -0.369(4) 0.0323 Uani
H14 H 0.8339 0.1752 -0.3339 0.0390 Uiso
H15 H 0.8378 0.2477 -0.2999 0.0390 Uiso
O3F O 0.6156(10) 0.3136(7) -0.1687(13) 0.0537 Uani
O4F O 1.0052(9) 0.2030(7) -0.4459(14) 0.0470 Uani
C9F C 0.673(3) 0.281(2) -0.225(3) 0.0323 Uani
C10F C 0.704(3) 0.2819(18) -0.362(3) 0.0323 Uani
H11F H 0.6665 0.2613 -0.4608 0.0390 Uiso
C11F C 0.858(4) 0.2712(18) -0.534(5) 0.0323 Uani
H12F H 0.8408 0.3073 -0.5956 0.0390 Uiso
H13F H 0.8233 0.2351 -0.5756 0.0390 Uiso
C12F C 0.959(4) 0.229(3) -0.533(5) 0.0323 Uani
C13F C 0.812(4) 0.284(3) -0.369(4) 0.0323 Uani
H14F H 0.8339 0.3248 -0.3339 0.0390 Uiso
H15F H 0.8378 0.2523 -0.2999 0.0390 Uiso
N1D N 1.3032(5) 0.6737(4) 0.8270(7) 0.0343 Uani
N2D N 1.0859(5) 0.5070(3) 0.5913(7) 0.0317 Uani
C1D C 1.2238(6) 0.6452(5) 0.8741(9) 0.0393 Uani
H1D H 1.1927 0.6606 0.9600 0.0470 Uiso
C2D C 1.1832(6) 0.5929(5) 0.8027(10) 0.0387 Uani
H2D H 1.1258 0.5744 0.8400 0.0460 Uiso
C3D C 1.2271(6) 0.5693(5) 0.6804(10) 0.0410 Uani
C4D C 1.3104(6) 0.5987(5) 0.6279(10) 0.0440 Uani
H3D H 1.3423 0.5841 0.5417 0.0530 Uiso
C5D C 1.3456(6) 0.6498(5) 0.7043(9) 0.0400 Uani
H4D H 1.4027 0.6692 0.6686 0.0480 Uiso
C6D C 1.1906(7) 0.5133(5) 0.5995(11) 0.0497 Uani
H5D H 1.2171 0.4760 0.6483 0.0590 Uiso
H6D H 1.2166 0.5143 0.4977 0.0590 Uiso
C7D C 1.0439(7) 0.5576(4) 0.5013(10) 0.0377 Uani
H7D H 1.0591 0.5978 0.5482 0.0450 Uiso
H8D H 1.0740 0.5573 0.4022 0.0450 Uiso
C8D C 1.0628(6) 0.4485(4) 0.5143(9) 0.0320 Uani
H9D H 1.0934 0.4483 0.4155 0.0380 Uiso
H10D H 1.0886 0.4131 0.5712 0.0380 Uiso
Zn1B Zn 1.35790(10) 0.7500 0.93215(15) 0.0307 Uani
Zn1C Zn 1.14210(10) 0.2500 -0.56785(15) 0.0307 Uani
O2C O 0.5045(6) 0.2500 0.1454(10) 0.0573 Uani
O4C O 0.5052(9) 0.2030(7) -0.0541(14) 0.0470 Uani
O4E O 0.5052(9) 0.2970(7) -0.0541(14) 0.0470 Uani
N1F N 0.6968(5) 0.1737(4) 0.1730(7) 0.0343 Uani
loop_
_atom_site_aniso_label
_atom_site_aniso_U_11
_atom_site_aniso_U_22
_atom_site_aniso_U_33
_atom_site_aniso_U_23
_atom_site_aniso_U_13
_atom_site_aniso_U_12
O5 0.077(8) 0.064(7) 0.039(5) 0.000 -0.009(6) 0.000
O6 0.119(8) 0.076(7) 0.055(5) 0.000(5) -0.010(5) -0.022(6)
O7 0.215(13) 0.089(7) 0.030(4) 0.004(5) -0.029(7) -0.019(8)
O8 0.083(13) 0.18(2) 0.081(13) 0.038(15) -0.010(11) -0.029(15)
Zn1 0.0243(7) 0.0460(10) 0.0218(7) 0.000 -0.0037(6) 0.000
O1 0.049(6) 0.127(10) 0.006(4) 0.000 0.001(4) 0.000
O2 0.024(5) 0.120(10) 0.028(5) 0.000 0.003(4) 0.000
O3 0.063(9) 0.069(10) 0.029(7) 0.003(7) -0.014(6) -0.030(8)
O4 0.033(6) 0.065(9) 0.043(7) 0.023(7) 0.003(6) -0.004(7)
N1 0.026(4) 0.048(5) 0.029(4) 0.004(4) 0.000(3) 0.006(4)
N2 0.032(4) 0.041(4) 0.022(3) -0.005(3) -0.001(3) -0.002(3)
C1 0.024(4) 0.069(7) 0.025(4) -0.004(5) -0.001(4) 0.005(5)
C2 0.028(5) 0.053(6) 0.035(5) -0.011(5) 0.001(4) 0.003(5)
C3 0.031(5) 0.056(7) 0.036(5) -0.019(5) -0.007(4) 0.012(5)
C4 0.028(5) 0.064(7) 0.040(5) -0.020(5) 0.004(4) -0.008(5)
C5 0.031(5) 0.059(7) 0.030(5) -0.006(5) -0.001(4) -0.009(5)
C6 0.039(5) 0.066(7) 0.044(6) -0.021(5) -0.007(4) -0.003(5)
C7 0.051(6) 0.032(5) 0.030(4) 0.002(4) -0.006(4) -0.019(5)
C8 0.043(5) 0.031(5) 0.022(4) -0.004(4) -0.010(4) -0.003(4)
C9 0.026(4) 0.050(10) 0.021(5) -0.021(8) -0.006(4) -0.007(6)
C10 0.026(4) 0.050(10) 0.021(5) -0.021(8) -0.006(4) -0.007(6)
C11 0.026(4) 0.050(10) 0.021(5) -0.021(8) -0.006(4) -0.007(6)
C12 0.026(4) 0.050(10) 0.021(5) -0.021(8) -0.006(4) -0.007(6)
C13 0.026(4) 0.050(10) 0.021(5) -0.021(8) -0.006(4) -0.007(6)
O3F 0.063 0.069 0.029 -0.003 -0.014 0.03
O4F 0.033 0.065 0.043 -0.023 0.003 0.004
C9F 0.026 0.05 0.021 0.021 -0.006 0.007
C10F 0.026 0.05 0.021 0.021 -0.006 0.007
C11F 0.026 0.05 0.021 0.021 -0.006 0.007
C12F 0.026 0.05 0.021 0.021 -0.006 0.007
C13F 0.026 0.05 0.021 0.021 -0.006 0.007
N1D 0.026 0.048 0.029 0.004 0 0.006
N2D 0.032 0.041 0.022 -0.005 -0.001 -0.002
C1D 0.024 0.069 0.025 -0.004 -0.001 0.005
C2D 0.028 0.053 0.035 -0.011 0.001 0.003
C3D 0.031 0.056 0.036 -0.019 -0.007 0.012
C4D 0.028 0.064 0.04 -0.02 0.004 -0.008
C5D 0.031 0.059 0.03 -0.006 -0.001 -0.009
C6D 0.039 0.066 0.044 -0.021 -0.007 -0.003
C7D 0.051 0.032 0.03 0.002 -0.006 -0.019
C8D 0.043 0.031 0.022 -0.004 -0.01 -0.003
Zn1B 0.0243 0.046 0.0218 0 -0.0037 0
Zn1C 0.0243 0.046 0.0218 0 0.0037 0
O2C 0.024 0.12 0.028 0 -0.003 0
O4C 0.033 0.065 0.043 0.023 -0.003 0.004
O4E 0.033 0.065 0.043 -0.023 -0.003 -0.004
N1F 0.026 0.048 0.029 -0.004 0 -0.006
loop_
_geom_bond_atom_site_label_1
_geom_bond_atom_site_label_2
_geom_bond_site_symmetry_1
_geom_bond_site_symmetry_2
Zn1 O1 1_555 1_555
O1 C9 1_555 1_555
O2 C12 1_555 1_555
O3 Zn1 1_555 1_555
O4 C12 1_555 1_555
N1 Zn1 1_555 1_555
N2 C6 1_555 1_555
C1 N1 1_555 1_555
H1 C1 1_555 1_555
C2 C1 1_555 1_555
H2 C2 1_555 1_555
C3 C2 1_555 1_555
C4 C3 1_555 1_555
H3 C4 1_555 1_555
C5 N1 1_555 1_555
H4 C5 1_555 1_555
C6 C3 1_555 1_555
H5 C6 1_555 1_555
H6 C6 1_555 1_555
C7 N2 1_555 1_555
H7 C7 1_555 1_555
H8 C7 1_555 1_555
C8 N2 1_555 1_555
H9 C8 1_555 1_555
H10 C8 1_555 1_555
C9 O3 1_555 1_555
C10 C9 1_555 1_555
H11 C10 1_555 1_555
C11 H12 1_555 1_555
H13 C11 1_555 1_555
C12 C11F 1_555 1_555
C13 C10 1_555 1_555
H14 C13 1_555 1_555
H15 C13 1_555 1_555
O5 H16 1_555 1_555
O6 H17 1_555 1_555
H18 O6 1_555 1_555
O7 H19 1_555 1_555
H20 O7 1_555 1_555
O8 H21 1_555 1_555
H22 O8 1_555 1_555
O3F Zn1 1_555 1_555
O4F C12F 1_555 1_555
C9F O1 1_555 1_555
C10F C9F 1_555 1_555
H11F C10F 1_555 1_555
C11F H12F 1_555 1_555
H13F C11F 1_555 1_555
C12F O2 1_555 1_555
C13F C10F 1_555 1_555
H14F C13F 1_555 1_555
H15F C13F 1_555 1_555
N1D C1D 1_555 1_555
N2D C6D 1_555 1_555
C1D H1D 1_555 1_555
C2D C1D 1_555 1_555
H2D C2D 1_555 1_555
C3D C2D 1_555 1_555
C4D C3D 1_555 1_555
H3D C4D 1_555 1_555
C5D N1D 1_555 1_555
H4D C5D 1_555 1_555
C6D C3D 1_555 1_555
H5D C6D 1_555 1_555
H6D C6D 1_555 1_555
C7D C8 1_555 1_555
H7D C7D 1_555 1_555
H8D C7D 1_555 1_555
C8D C7 1_555 1_555
H9D C8D 1_555 1_555
H10D C8D 1_555 1_555
Zn1B N1D 1_555 1_555
Zn1C O2 1_555 1_555
O2C Zn1 1_555 1_555
O4C Zn1 1_555 1_555
O4E Zn1 1_555 1_555
N1F Zn1 1_555 1_555
H16F O5 1_555 1_555
O4 Zn1C 1_555 1_555
C4 C5 1_555 1_555
C11 C13 1_555 1_555
C11 C12F 1_555 1_555
O3F C9F 1_555 1_555
O4F Zn1C 1_555 1_555
C11F C13F 1_555 1_555
N2D C7D 1_555 1_555
N2D C8D 1_555 1_555
C4D C5D 1_555 1_555

#END
