
#######################################################################
#
#                 Cambridge Crystallographic Data Centre
#                                CCDC 
#
#######################################################################
#
# If this CIF has been generated from an entry in the Cambridge 
# Structural Database, then it will include bibliographic, chemical, 
# crystal, experimental, refinement or atomic coordinate data resulting 
# from the CCDC's data processing and validation procedures.
#
#######################################################################

data_PEJMUO
_chemical_formula_moiety         'C48 H8 Cu25 N54 O75 2+'
_symmetry_cell_setting           cubic
_symmetry_space_group_name_H-M   'P m -3 n'
_symmetry_Int_Tables_number      223
_space_group_name_Hall           '-P 4n 2 3'
loop_
_symmetry_equiv_pos_site_id
_symmetry_equiv_pos_as_xyz
1 x,y,z
2 -x,-y,z
3 -x,y,-z
4 x,-y,-z
5 z,x,y
6 z,-x,-y
7 -z,-x,y
8 -z,x,-y
9 y,z,x
10 -y,z,-x
11 y,-z,-x
12 -y,-z,x
13 1/2+y,1/2+x,1/2-z
14 1/2-y,1/2-x,1/2-z
15 1/2+y,1/2-x,1/2+z
16 1/2-y,1/2+x,1/2+z
17 1/2+x,1/2+z,1/2-y
18 1/2-x,1/2+z,1/2+y
19 1/2-x,1/2-z,1/2-y
20 1/2+x,1/2-z,1/2+y
21 1/2+z,1/2+y,1/2-x
22 1/2+z,1/2-y,1/2+x
23 1/2-z,1/2+y,1/2+x
24 1/2-z,1/2-y,1/2-x
25 -x,-y,-z
26 x,y,-z
27 x,-y,z
28 -x,y,z
29 -z,-x,-y
30 -z,x,y
31 z,x,-y
32 z,-x,y
33 -y,-z,-x
34 y,-z,x
35 -y,z,x
36 y,z,-x
37 1/2-y,1/2-x,1/2+z
38 1/2+y,1/2+x,1/2+z
39 1/2-y,1/2+x,1/2-z
40 1/2+y,1/2-x,1/2-z
41 1/2-x,1/2-z,1/2+y
42 1/2+x,1/2-z,1/2-y
43 1/2+x,1/2+z,1/2+y
44 1/2-x,1/2+z,1/2-y
45 1/2-z,1/2-y,1/2+x
46 1/2-z,1/2+y,1/2-x
47 1/2+z,1/2-y,1/2-x
48 1/2+z,1/2+y,1/2+x
_cell_length_a                   22.5557(3)
_cell_length_b                   22.5557(3)
_cell_length_c                   22.5557(3)
_cell_angle_alpha                90
_cell_angle_beta                 90
_cell_angle_gamma                90
_cell_volume                     11475.4
loop_
_atom_site_label
_atom_site_type_symbol
_atom_site_fract_x
_atom_site_fract_y
_atom_site_fract_z
O2 O 0.3332(16) 0.1625(16) 0.0000
O3 O 0.1436(12) 0.1436(12) 0.1436(12)
Cu1 Cu 0.5000(7) 0.1874(6) 0.2364
Cu2 Cu 0.2500 0.2500 0.2500
O4 O 0.43701(16) 0.24728(12) 0.24567(19)
O5 O 0.34068(14) 0.25989(13) 0.24766(14)
O6 O 0.5000 0.1936(7) 0.1349(7)
N1 N 0.4333(9) 0.1336(9) 0.2340(6)
N2 N 0.4237(7) 0.0756(7) 0.2328(5)
C1 C 0.38010(19) 0.16270(18) 0.2496(3)
C2 C 0.3845(2) 0.22775(19) 0.2478(2)
Cu1M Cu 0.3126(6) 0.0000(7) 0.2636
Cu1D Cu 0.2364 0.5000(7) 0.1874(6)
Cu1W Cu 0.2636 0.3126(6) 0.0000(7)
Cu1H Cu 0.1874(6) 0.2364 0.5000(7)
Cu1R Cu -0.0000(7) 0.2636 0.3126(6)
Cu1L Cu 0.6874(6) 0.0000(7) 0.2636
Cu1A Cu 0.5000(7) -0.1874(6) 0.2364
Cu1V Cu 0.2636 0.6874(6) 0.0000(7)
Cu1E Cu 0.2364 0.5000(7) -0.1874(6)
Cu1S Cu -0.0000(7) 0.2636 0.6874(6)
Cu1I Cu -0.1874(6) 0.2364 0.5000(7)
Cu1F Cu 0.7636 0.5000(7) 0.1874(6)
Cu1U Cu 0.7364 0.3126(6) 0.0000(7)
Cu1I_2 Cu 0.8126(6) 0.2364 0.5000(7)
Cu1R_2 Cu 1.0000(7) 0.2636 0.3126(6)
Cu1P Cu -0.0000(7) -0.2636 0.3126(6)
Cu1J Cu 0.1874(6) -0.2364 0.5000(7)
Cu2AA Cu 0.7500 0.2500 0.2500
Cu2Z Cu 0.2500 -0.2500 0.2500
Cu2Z_2 Cu 0.2500 0.7500 0.2500
Cu2Y Cu 0.2500 0.2500 -0.2500
Cu2Y_2 Cu 0.2500 0.2500 0.7500
Cu2AA_2 Cu -0.2500 0.2500 0.2500
O4M O 0.25272(12) 0.06299(16) 0.25433(19)
O4D O 0.24567(19) 0.43701(16) 0.24728(12)
O4W O 0.25433(19) 0.25272(12) 0.06299(16)
O4H O 0.24728(12) 0.24567(19) 0.43701(16)
O4R O 0.06299(16) 0.25433(19) 0.25272(12)
O4AA O 0.56299(16) 0.24728(12) 0.24567(19)
O4MA O 0.74728(12) 0.06299(16) 0.25433(19)
O4LA O 0.25272(12) -0.06299(16) 0.25433(19)
O4Z O 0.43701(16) -0.24728(12) 0.24567(19)
O4EA O 0.24567(19) 0.56299(16) 0.24728(12)
O4SA O 0.25433(19) 0.74728(12) 0.06299(16)
O4RA O 0.25433(19) 0.25272(12) -0.06299(16)
O4DA O 0.24567(19) 0.43701(16) -0.24728(12)
O4IA O 0.24728(12) 0.24567(19) 0.56299(16)
O4NA O 0.06299(16) 0.25433(19) 0.74728(12)
O4OA O -0.06299(16) 0.25433(19) 0.25272(12)
O4HA O -0.24728(12) 0.24567(19) 0.43701(16)
O4CA O 0.75433(19) 0.43701(16) 0.24728(12)
O4TA O 0.74567(19) 0.25272(12) 0.06299(16)
O4HA_2 O 0.75272(12) 0.24567(19) 0.43701(16)
O4OA_2 O 0.93701(16) 0.25433(19) 0.25272(12)
O4QA O 0.06299(16) -0.25433(19) 0.25272(12)
O4GA O 0.24728(12) -0.24567(19) 0.43701(16)
O4L O 0.74728(12) -0.06299(16) 0.25433(19)
O4A O 0.56299(16) -0.24728(12) 0.24567(19)
O4V O 0.25433(19) 0.74728(12) -0.06299(16)
O4E O 0.24567(19) 0.56299(16) -0.24728(12)
O4S O -0.06299(16) 0.25433(19) 0.74728(12)
O4I O -0.24728(12) 0.24567(19) 0.56299(16)
O5M O 0.24011(13) 0.15932(14) 0.25234(14)
O5D O 0.24766(14) 0.34068(14) 0.25989(13)
O5W O 0.25234(14) 0.24011(13) 0.15932(14)
O5H O 0.25989(13) 0.24766(14) 0.34068(14)
O5R O 0.15932(14) 0.25234(14) 0.24011(13)
O5AA O 0.65932(14) 0.25989(13) 0.24766(14)
O5MA O 0.75989(13) 0.15932(14) 0.25234(14)
O5LA O 0.24011(13) -0.15932(14) 0.25234(14)
O5Z O 0.34068(14) -0.25989(13) 0.24766(14)
O5EA O 0.24766(14) 0.65932(14) 0.25989(13)
O5SA O 0.25234(14) 0.75989(13) 0.15932(14)
O5RA O 0.25234(14) 0.24011(13) -0.15932(14)
O5DA O 0.24766(14) 0.34068(14) -0.25989(13)
O5IA O 0.25989(13) 0.24766(14) 0.65932(14)
O5NA O 0.15932(14) 0.25234(14) 0.75989(13)
O5OA O -0.15932(14) 0.25234(14) 0.24011(13)
O5HA O -0.25989(13) 0.24766(14) 0.34068(14)
O5CA O 0.75234(14) 0.34068(14) 0.25989(13)
O5TA O 0.74766(14) 0.24011(13) 0.15932(14)
O5HA_2 O 0.74011(13) 0.24766(14) 0.34068(14)
O5OA_2 O 0.84068(14) 0.25234(14) 0.24011(13)
O5QA O 0.15932(14) -0.25234(14) 0.24011(13)
O5GA O 0.25989(13) -0.24766(14) 0.34068(14)
O5SA_2 O 0.25234(14) -0.24011(13) 0.15932(14)
O5EA_2 O 0.24766(14) -0.34068(14) 0.25989(13)
O5GA_2 O 0.25989(13) 0.75234(14) 0.34068(14)
O5Z_2 O 0.34068(14) 0.74011(13) 0.24766(14)
O5LA_2 O 0.24011(13) 0.84068(14) 0.25234(14)
O5QA_2 O 0.15932(14) 0.74766(14) 0.24011(13)
O6M O 0.3064(7) 0.0000 0.3651(7)
O6D O 0.1349(7) 0.5000 0.1936(7)
O6W O 0.3651(7) 0.3064(7) 0.0000
O6H O 0.1936(7) 0.1349(7) 0.5000
O6R O -0.0000 0.3651(7) 0.3064(7)
O6L O 0.6936(7) 0.0000 0.3651(7)
O6A O 0.5000 -0.1936(7) 0.1349(7)
O6V O 0.3651(7) 0.6936(7) 0.0000
O6E O 0.1349(7) 0.5000 -0.1936(7)
O6S O -0.0000 0.3651(7) 0.6936(7)
O6I O -0.1936(7) 0.1349(7) 0.5000
N1M N 0.3664(9) 0.0667(9) 0.2660(6)
N1D N 0.2340(6) 0.4333(9) 0.1336(9)
N1W N 0.2660(6) 0.3664(9) 0.0667(9)
N1H N 0.1336(9) 0.2340(6) 0.4333(9)
N1R N 0.0667(9) 0.2660(6) 0.3664(9)
N1AA N 0.5667(9) 0.1336(9) 0.2340(6)
N1MA N 0.6336(9) 0.0667(9) 0.2660(6)
N1LA N 0.3664(9) -0.0667(9) 0.2660(6)
N1Z N 0.4333(9) -0.1336(9) 0.2340(6)
N1EA N 0.2340(6) 0.5667(9) 0.1336(9)
N1SA N 0.2660(6) 0.6336(9) 0.0667(9)
N1RA N 0.2660(6) 0.3664(9) -0.0667(9)
N1DA N 0.2340(6) 0.4333(9) -0.1336(9)
N1IA N 0.1336(9) 0.2340(6) 0.5667(9)
N1NA N 0.0667(9) 0.2660(6) 0.6336(9)
N1OA N -0.0667(9) 0.2660(6) 0.3664(9)
N1HA N -0.1336(9) 0.2340(6) 0.4333(9)
N1CA N 0.7660(6) 0.4333(9) 0.1336(9)
N1TA N 0.7340(6) 0.3664(9) 0.0667(9)
N1HA_2 N 0.8664(9) 0.2340(6) 0.4333(9)
N1OA_2 N 0.9333(9) 0.2660(6) 0.3664(9)
N1QA N 0.0667(9) -0.2660(6) 0.3664(9)
N1GA N 0.1336(9) -0.2340(6) 0.4333(9)
N1L N 0.6336(9) -0.0667(9) 0.2660(6)
N1A N 0.5667(9) -0.1336(9) 0.2340(6)
N1V N 0.2660(6) 0.6336(9) -0.0667(9)
N1E N 0.2340(6) 0.5667(9) -0.1336(9)
N1S N -0.0667(9) 0.2660(6) 0.6336(9)
N1I N -0.1336(9) 0.2340(6) 0.5667(9)
N2M N 0.4244(7) 0.0763(7) 0.2672(5)
N2D N 0.2328(5) 0.4237(7) 0.0756(7)
N2W N 0.2672(5) 0.4244(7) 0.0763(7)
N2H N 0.0756(7) 0.2328(5) 0.4237(7)
N2R N 0.0763(7) 0.2672(5) 0.4244(7)
N2AA N 0.5763(7) 0.0756(7) 0.2328(5)
N2MA N 0.5756(7) 0.0763(7) 0.2672(5)
N2LA N 0.4244(7) -0.0763(7) 0.2672(5)
N2Z N 0.4237(7) -0.0756(7) 0.2328(5)
N2EA N 0.2328(5) 0.5763(7) 0.0756(7)
N2SA N 0.2672(5) 0.5756(7) 0.0763(7)
N2RA N 0.2672(5) 0.4244(7) -0.0763(7)
N2DA N 0.2328(5) 0.4237(7) -0.0756(7)
N2IA N 0.0756(7) 0.2328(5) 0.5763(7)
N2NA N 0.0763(7) 0.2672(5) 0.5756(7)
N2OA N -0.0763(7) 0.2672(5) 0.4244(7)
N2HA N -0.0756(7) 0.2328(5) 0.4237(7)
N2CA N 0.7672(5) 0.4237(7) 0.0756(7)
N2TA N 0.7328(5) 0.4244(7) 0.0763(7)
N2HA_2 N 0.9244(7) 0.2328(5) 0.4237(7)
N2OA_2 N 0.9237(7) 0.2672(5) 0.4244(7)
N2QA N 0.0763(7) -0.2672(5) 0.4244(7)
N2GA N 0.0756(7) -0.2328(5) 0.4237(7)
C1M C 0.33730(18) 0.11990(19) 0.2504(3)
C1D C 0.2496(3) 0.38010(19) 0.16270(18)
C1W C 0.2504(3) 0.33730(18) 0.11990(19)
C1H C 0.16270(18) 0.2496(3) 0.38010(19)
C1R C 0.11990(19) 0.2504(3) 0.33730(18)
C1AA C 0.61990(19) 0.16270(18) 0.2496(3)
C1MA C 0.66270(18) 0.11990(19) 0.2504(3)
C1LA C 0.33730(18) -0.11990(19) 0.2504(3)
C1Z C 0.38010(19) -0.16270(18) 0.2496(3)
C1EA C 0.2496(3) 0.61990(19) 0.16270(18)
C1SA C 0.2504(3) 0.66270(18) 0.11990(19)
C1RA C 0.2504(3) 0.33730(18) -0.11990(19)
C1DA C 0.2496(3) 0.38010(19) -0.16270(18)
C1IA C 0.16270(18) 0.2496(3) 0.61990(19)
C1NA C 0.11990(19) 0.2504(3) 0.66270(18)
C1OA C -0.11990(19) 0.2504(3) 0.33730(18)
C1HA C -0.16270(18) 0.2496(3) 0.38010(19)
C1CA C 0.7504(3) 0.38010(19) 0.16270(18)
C1TA C 0.7496(3) 0.33730(18) 0.11990(19)
C1HA_2 C 0.83730(18) 0.2496(3) 0.38010(19)
C1OA_2 C 0.88010(19) 0.2504(3) 0.33730(18)
C1QA C 0.11990(19) -0.2504(3) 0.33730(18)
C1GA C 0.16270(18) -0.2496(3) 0.38010(19)
C2M C 0.27225(19) 0.1155(2) 0.2522(2)
C2D C 0.2478(2) 0.3845(2) 0.22775(19)
C2W C 0.2522(2) 0.27225(19) 0.1155(2)
C2H C 0.22775(19) 0.2478(2) 0.3845(2)
C2R C 0.1155(2) 0.2522(2) 0.27225(19)
C2AA C 0.6155(2) 0.22775(19) 0.2478(2)
C2MA C 0.72775(19) 0.1155(2) 0.2522(2)
C2LA C 0.27225(19) -0.1155(2) 0.2522(2)
C2Z C 0.3845(2) -0.22775(19) 0.2478(2)
C2EA C 0.2478(2) 0.6155(2) 0.22775(19)
C2SA C 0.2522(2) 0.72775(19) 0.1155(2)
C2RA C 0.2522(2) 0.27225(19) -0.1155(2)
C2DA C 0.2478(2) 0.3845(2) -0.22775(19)
C2IA C 0.22775(19) 0.2478(2) 0.6155(2)
C2NA C 0.1155(2) 0.2522(2) 0.72775(19)
C2OA C -0.1155(2) 0.2522(2) 0.27225(19)
C2HA C -0.22775(19) 0.2478(2) 0.3845(2)
C2CA C 0.7522(2) 0.3845(2) 0.22775(19)
C2TA C 0.7478(2) 0.27225(19) 0.1155(2)
C2HA_2 C 0.77225(19) 0.2478(2) 0.3845(2)
C2OA_2 C 0.8845(2) 0.2522(2) 0.27225(19)
C2QA C 0.1155(2) -0.2522(2) 0.27225(19)
C2GA C 0.22775(19) -0.2478(2) 0.3845(2)
O1 O 0.1553(13) 0.5000 0.0000
loop_
_geom_bond_atom_site_label_1
_geom_bond_atom_site_label_2
_geom_bond_site_symmetry_1
_geom_bond_site_symmetry_2
Cu1 O4 1_555 1_555
Cu2 O5 1_555 1_555
O4 C2 1_555 1_555
O5 C2 1_555 1_555
O6 Cu1 1_555 1_555
N1 Cu1 1_555 1_555
N2 N1 1_555 1_555
C1 N1 1_555 1_555
C2 C1 1_555 1_555
Cu1M O4M 1_555 1_555
Cu1D O4D 1_555 1_555
Cu1W O4W 1_555 1_555
Cu1H O4H 1_555 1_555
Cu1R O4R 1_555 1_555
Cu1L O4MA 1_555 1_555
Cu1A O4Z 1_555 1_555
Cu1V O4SA 1_555 1_555
Cu1E O4DA 1_555 1_555
Cu1S O4NA 1_555 1_555
Cu1I O4HA 1_555 1_555
Cu1F O4CA 1_555 1_555
Cu1U O4TA 1_555 1_555
Cu1I_2 O4HA_2 1_555 1_555
Cu1R_2 O4OA_2 1_555 1_555
Cu1P O4QA 1_555 1_555
Cu1J O4GA 1_555 1_555
Cu2AA O5AA 1_555 1_555
Cu2Z O5LA 1_555 1_555
Cu2Z_2 O5EA 1_555 1_555
Cu2Y O5RA 1_555 1_555
Cu2Y_2 O5IA 1_555 1_555
Cu2AA_2 O5OA 1_555 1_555
O4M C2M 1_555 1_555
O4D C2D 1_555 1_555
O4W C2W 1_555 1_555
O4H C2H 1_555 1_555
O4R C2R 1_555 1_555
O4AA Cu1 1_555 1_555
O4MA C2MA 1_555 1_555
O4LA Cu1M 1_555 1_555
O4Z C2Z 1_555 1_555
O4EA Cu1D 1_555 1_555
O4SA C2SA 1_555 1_555
O4RA Cu1W 1_555 1_555
O4DA C2DA 1_555 1_555
O4IA Cu1H 1_555 1_555
O4NA C2NA 1_555 1_555
O4OA Cu1R 1_555 1_555
O4HA C2HA 1_555 1_555
O4CA C2CA 1_555 1_555
O4TA C2TA 1_555 1_555
O4HA_2 C2HA_2 1_555 1_555
O4OA_2 C2OA_2 1_555 1_555
O4QA C2QA 1_555 1_555
O4GA C2GA 1_555 1_555
O4L Cu1L 1_555 1_555
O4A Cu1A 1_555 1_555
O4V Cu1V 1_555 1_555
O4E Cu1E 1_555 1_555
O4S Cu1S 1_555 1_555
O4I Cu1I 1_555 1_555
O5M Cu2 1_555 1_555
O5D Cu2 1_555 1_555
O5W Cu2 1_555 1_555
O5H Cu2 1_555 1_555
O5R Cu2 1_555 1_555
O5AA C2AA 1_555 1_555
O5MA Cu2AA 1_555 1_555
O5LA C2LA 1_555 1_555
O5Z Cu2Z 1_555 1_555
O5EA C2EA 1_555 1_555
O5SA Cu2Z_2 1_555 1_555
O5RA C2RA 1_555 1_555
O5DA Cu2Y 1_555 1_555
O5IA C2IA 1_555 1_555
O5NA Cu2Y_2 1_555 1_555
O5OA C2OA 1_555 1_555
O5HA Cu2AA_2 1_555 1_555
O5CA Cu2AA 1_555 1_555
O5TA Cu2AA 1_555 1_555
O5HA_2 Cu2AA 1_555 1_555
O5OA_2 Cu2AA 1_555 1_555
O5QA Cu2Z 1_555 1_555
O5GA Cu2Z 1_555 1_555
O5SA_2 Cu2Z 1_555 1_555
O5EA_2 Cu2Z 1_555 1_555
O5GA_2 Cu2Z_2 1_555 1_555
O5Z_2 Cu2Z_2 1_555 1_555
O5LA_2 Cu2Z_2 1_555 1_555
O5QA_2 Cu2Z_2 1_555 1_555
O6M Cu1M 1_555 1_555
O6D Cu1D 1_555 1_555
O6W Cu1W 1_555 1_555
O6H Cu1H 1_555 1_555
O6R Cu1R 1_555 1_555
O6L Cu1L 1_555 1_555
O6A Cu1A 1_555 1_555
O6V Cu1V 1_555 1_555
O6E Cu1E 1_555 1_555
O6S Cu1S 1_555 1_555
O6I Cu1I 1_555 1_555
N1M N2 1_555 1_555
N1D Cu1D 1_555 1_555
N1W Cu1W 1_555 1_555
N1H Cu1H 1_555 1_555
N1R Cu1R 1_555 1_555
N1AA Cu1 1_555 1_555
N1MA Cu1L 1_555 1_555
N1LA Cu1M 1_555 1_555
N1Z Cu1A 1_555 1_555
N1EA Cu1D 1_555 1_555
N1SA Cu1V 1_555 1_555
N1RA Cu1W 1_555 1_555
N1DA Cu1E 1_555 1_555
N1IA Cu1H 1_555 1_555
N1NA Cu1S 1_555 1_555
N1OA Cu1R 1_555 1_555
N1HA Cu1I 1_555 1_555
N1CA Cu1F 1_555 1_555
N1TA Cu1U 1_555 1_555
N1HA_2 Cu1I_2 1_555 1_555
N1OA_2 Cu1R_2 1_555 1_555
N1QA Cu1P 1_555 1_555
N1GA Cu1J 1_555 1_555
N1L Cu1L 1_555 1_555
N1A Cu1A 1_555 1_555
N1V Cu1V 1_555 1_555
N1E Cu1E 1_555 1_555
N1S Cu1S 1_555 1_555
N1I Cu1I 1_555 1_555
N2M N1 1_555 1_555
N2D N1D 1_555 1_555
N2W N1D 1_555 1_555
N2H N1H 1_555 1_555
N2R N1H 1_555 1_555
N2AA N1AA 1_555 1_555
N2MA N1AA 1_555 1_555
N2LA N1LA 1_555 1_555
N2Z N1LA 1_555 1_555
N2EA N1EA 1_555 1_555
N2SA N1EA 1_555 1_555
N2RA N1RA 1_555 1_555
N2DA N1RA 1_555 1_555
N2IA N1IA 1_555 1_555
N2NA N1IA 1_555 1_555
N2OA N1OA 1_555 1_555
N2HA N1OA 1_555 1_555
N2CA N1CA 1_555 1_555
N2TA N1CA 1_555 1_555
N2HA_2 N1HA_2 1_555 1_555
N2OA_2 N1HA_2 1_555 1_555
N2QA N1QA 1_555 1_555
N2GA N1QA 1_555 1_555
C1M C1 1_555 1_555
C1D N1D 1_555 1_555
C1W N1W 1_555 1_555
C1H N1H 1_555 1_555
C1R N1R 1_555 1_555
C1AA N1AA 1_555 1_555
C1MA N1MA 1_555 1_555
C1LA N1LA 1_555 1_555
C1Z N1Z 1_555 1_555
C1EA N1EA 1_555 1_555
C1SA N1SA 1_555 1_555
C1RA N1RA 1_555 1_555
C1DA N1DA 1_555 1_555
C1IA N1IA 1_555 1_555
C1NA N1NA 1_555 1_555
C1OA N1OA 1_555 1_555
C1HA N1HA 1_555 1_555
C1CA N1CA 1_555 1_555
C1TA N1TA 1_555 1_555
C1HA_2 N1HA_2 1_555 1_555
C1OA_2 N1OA_2 1_555 1_555
C1QA N1QA 1_555 1_555
C1GA N1GA 1_555 1_555
C2M O5M 1_555 1_555
C2D O5D 1_555 1_555
C2W O5W 1_555 1_555
C2H O5H 1_555 1_555
C2R O5R 1_555 1_555
C2AA O4AA 1_555 1_555
C2MA O5MA 1_555 1_555
C2LA O4LA 1_555 1_555
C2Z O5Z 1_555 1_555
C2EA O4EA 1_555 1_555
C2SA O5SA 1_555 1_555
C2RA O4RA 1_555 1_555
C2DA O5DA 1_555 1_555
C2IA O4IA 1_555 1_555
C2NA O5NA 1_555 1_555
C2OA O4OA 1_555 1_555
C2HA O5HA 1_555 1_555
C2CA O5CA 1_555 1_555
C2TA O5TA 1_555 1_555
C2HA_2 O5HA_2 1_555 1_555
C2OA_2 O5OA_2 1_555 1_555
C2QA O5QA 1_555 1_555
C2GA O5GA 1_555 1_555
N2 N2M 1_555 1_555
Cu1M N1M 1_555 1_555
N1M N2M 1_555 1_555
N1M C1M 1_555 1_555
N1W N2D 1_555 1_555
N1W N2W 1_555 1_555
N1R N2H 1_555 1_555
N1R N2R 1_555 1_555
N1MA N2AA 1_555 1_555
N1MA N2MA 1_555 1_555
N1Z N2LA 1_555 1_555
N1Z N2Z 1_555 1_555
N1SA N2EA 1_555 1_555
N1SA N2SA 1_555 1_555
N1DA N2RA 1_555 1_555
N1DA N2DA 1_555 1_555
N1NA N2IA 1_555 1_555
N1NA N2NA 1_555 1_555
N1HA N2OA 1_555 1_555
N1HA N2HA 1_555 1_555
N1TA N2CA 1_555 1_555
N1TA N2TA 1_555 1_555
N1OA_2 N2HA_2 1_555 1_555
N1OA_2 N2OA_2 1_555 1_555
N1GA N2QA 1_555 1_555
N1GA N2GA 1_555 1_555
N2D N2W 1_555 1_555
N2H N2R 1_555 1_555
N2AA N2MA 1_555 1_555
N2LA N2Z 1_555 1_555
N2EA N2SA 1_555 1_555
N2RA N2DA 1_555 1_555
N2IA N2NA 1_555 1_555
N2OA N2HA 1_555 1_555
N2CA N2TA 1_555 1_555
N2HA_2 N2OA_2 1_555 1_555
N2QA N2GA 1_555 1_555
C1M C2M 1_555 1_555
C1D C1W 1_555 1_555
C1D C2D 1_555 1_555
C1W C2W 1_555 1_555
C1H C1R 1_555 1_555
C1H C2H 1_555 1_555
C1R C2R 1_555 1_555
C1AA C1MA 1_555 1_555
C1AA C2AA 1_555 1_555
C1MA C2MA 1_555 1_555
C1LA C1Z 1_555 1_555
C1LA C2LA 1_555 1_555
C1Z C2Z 1_555 1_555
C1EA C1SA 1_555 1_555
C1EA C2EA 1_555 1_555
C1SA C2SA 1_555 1_555
C1RA C1DA 1_555 1_555
C1RA C2RA 1_555 1_555
C1DA C2DA 1_555 1_555
C1IA C1NA 1_555 1_555
C1IA C2IA 1_555 1_555
C1NA C2NA 1_555 1_555
C1OA C1HA 1_555 1_555
C1OA C2OA 1_555 1_555
C1HA C2HA 1_555 1_555
C1CA C1TA 1_555 1_555
C1CA C2CA 1_555 1_555
C1TA C2TA 1_555 1_555
C1HA_2 C1OA_2 1_555 1_555
C1HA_2 C2HA_2 1_555 1_555
C1OA_2 C2OA_2 1_555 1_555
C1QA C1GA 1_555 1_555
C1QA C2QA 1_555 1_555
C1GA C2GA 1_555 1_555

#END
