
#######################################################################
#
#                 Cambridge Crystallographic Data Centre
#                                CCDC 
#
#######################################################################
#
# If this CIF has been generated from an entry in the Cambridge 
# Structural Database, then it will include bibliographic, chemical, 
# crystal, experimental, refinement or atomic coordinate data resulting 
# from the CCDC's data processing and validation procedures.
#
#######################################################################

data_GADMAA
_chemical_formula_moiety         'C48 H76 Gd8 O98 Zn15'
_symmetry_cell_setting           hexagonal
_symmetry_space_group_name_H-M   'P 6/m c c'
_symmetry_Int_Tables_number      192
_space_group_name_Hall           '-P 6 2c'
loop_
_symmetry_equiv_pos_site_id
_symmetry_equiv_pos_as_xyz
1 x,y,z
2 -y,x-y,z
3 -x+y,-x,z
4 y,-x+y,z
5 x-y,x,z
6 y,x,1/2-z
7 x-y,-y,1/2-z
8 -x,-x+y,1/2-z
9 -y,-x,1/2-z
10 -x+y,y,1/2-z
11 x,x-y,1/2-z
12 -x,-y,z
13 -x,-y,-z
14 y,-x+y,-z
15 x-y,x,-z
16 -y,x-y,-z
17 -x+y,-x,-z
18 -y,-x,1/2+z
19 -x+y,y,1/2+z
20 x,x-y,1/2+z
21 y,x,1/2+z
22 x-y,-y,1/2+z
23 -x,-x+y,1/2+z
24 x,y,-z
_cell_length_a                   14.5104(11)
_cell_length_b                   14.5104(11)
_cell_length_c                   15.7725(16)
_cell_angle_alpha                90
_cell_angle_beta                 90
_cell_angle_gamma                120
_cell_volume                     2876.01
loop_
_atom_site_label
_atom_site_type_symbol
_atom_site_fract_x
_atom_site_fract_y
_atom_site_fract_z
O2 O 0.845(3) 0.984(2) 0.311(3)
Gd1 Gd 0.6667 0.3333 0.2500
Zn1 Zn 1.0000 0.5000 0.5000
O3 O 0.80431(19) 0.41954(17) 0.35441(15)
O4 O 0.9450(2) 0.56231(18) 0.40957(17)
O5 O 0.76513(13) 0.5303(3) 0.2500
C1 C 0.8681(3) 0.5181(2) 0.3600(2)
C2 C 0.8491(3) 0.5902(3) 0.3049(3)
H1 H 0.8324 0.6350 0.3398
H2 H 0.9128 0.6358 0.2726
O6 O 0.8555(2) 0.3483(2) 0.5000
H3 H 0.829(4) 0.367(4) 0.543(3)
C2I C 0.7411(4) 0.5902(3) 0.1951(3)
C1I C 0.6500(4) 0.5181(2) 0.1400(2)
O3I O 0.61523(25) 0.41954(17) 0.14559(15)
O4I O 0.61731(27) 0.56231(18) 0.09043(17)
H1I H 0.8026 0.6350 0.1602
H2I H 0.7230 0.6358 0.2274
H3W H 0.829(4) 0.367(4) 0.457(3)
O3A O 0.58046(17) 0.38477(25) 0.35441(15)
O4A O 0.43769(18) 0.38269(27) 0.40957(17)
O5A O 0.4697(3) 0.23483(33) 0.2500
C1A C 0.4819(2) 0.3500(4) 0.3600(2)
C2A C 0.4098(3) 0.2589(4) 0.3049(3)
H1A H 0.3650 0.1974 0.3398
H2A H 0.3642 0.2770 0.2726
C2H C 0.4098(3) 0.1509(3) 0.1951(3)
C1H C 0.4819(2) 0.1319(3) 0.1400(2)
O3H O 0.58046(17) 0.19569(19) 0.14559(15)
O4H O 0.43769(18) 0.0550(2) 0.09043(17)
H1H H 0.3650 0.1676 0.1602
H2H H 0.3642 0.0872 0.2274
O3B O 0.61523(25) 0.19569(19) 0.35441(15)
O4B O 0.61731(27) 0.0550(2) 0.40957(17)
O5B O 0.76517(33) 0.23487(13) 0.2500
C1B C 0.6500(4) 0.1319(3) 0.3600(2)
C2B C 0.7411(4) 0.1509(3) 0.3049(3)
H1B H 0.8026 0.1676 0.3398
H2B H 0.7230 0.0872 0.2726
C2J C 0.8491(3) 0.2589(4) 0.1951(3)
C1J C 0.8681(3) 0.3500(4) 0.1400(2)
O3J O 0.80431(19) 0.38477(25) 0.14559(15)
O4J O 0.9450(2) 0.38269(27) 0.09043(17)
H1J H 0.8324 0.1974 0.1602
H2J H 0.9128 0.2770 0.2274
Zn1I Zn 0.5000 0.5000 0.0000
Zn1A Zn 0.5000 0.5000 0.5000
Zn1H Zn 0.5000 0.0000 0.0000
Zn1B Zn 0.5000 0.0000 0.5000
Zn1J Zn 1.0000 0.5000 0.0000
O3W O 0.80431(19) 0.41954(17) 0.64559(15)
O4W O 0.9450(2) 0.56231(18) 0.59043(17)
O5W O 0.76513(13) 0.5303(3) 0.7500
C1W C 0.8681(3) 0.5181(2) 0.6400(2)
C2W C 0.8491(3) 0.5902(3) 0.6951(3)
H1W H 0.8324 0.6350 0.6602
H2W H 0.9128 0.6358 0.7274
C2R C 0.7411(4) 0.5902(3) 0.8049(3)
C1R C 0.6500(4) 0.5181(2) 0.8600(2)
O3R O 0.61523(25) 0.41954(17) 0.85441(15)
O4R O 0.61731(27) 0.56231(18) 0.90957(17)
H1R H 0.8026 0.6350 0.8398
H2R H 0.7230 0.6358 0.7726
O3L O 1.19569(19) 0.58046(17) 0.64559(15)
O4L O 1.0550(2) 0.43769(18) 0.59043(17)
O5L O 1.23487(13) 0.4697(3) 0.7500
C1L C 1.1319(3) 0.4819(2) 0.6400(2)
C2L C 1.1509(3) 0.4098(3) 0.6951(3)
H1L H 1.1676 0.3650 0.6602
H2L H 1.0872 0.3642 0.7274
C2U C 1.2589(4) 0.4098(3) 0.8049(3)
C1U C 1.3500(4) 0.4819(2) 0.8600(2)
O3U O 1.38477(25) 0.58046(17) 0.85441(15)
O4U O 1.38269(27) 0.43769(18) 0.90957(17)
H1U H 1.1974 0.3650 0.8398
H2U H 1.2770 0.3642 0.7726
O3K O 1.19569(19) 0.58046(17) 0.35441(15)
O4K O 1.0550(2) 0.43769(18) 0.40957(17)
O5K O 1.23487(13) 0.4697(3) 0.2500
C1K C 1.1319(3) 0.4819(2) 0.3600(2)
C2K C 1.1509(3) 0.4098(3) 0.3049(3)
H1K H 1.1676 0.3650 0.3398
H2K H 1.0872 0.3642 0.2726
C2F C 1.2589(4) 0.4098(3) 0.1951(3)
C1F C 1.3500(4) 0.4819(2) 0.1400(2)
O3F O 1.38477(25) 0.58046(17) 0.14559(15)
O4F O 1.38269(27) 0.43769(18) 0.09043(17)
H1F H 1.1974 0.3650 0.1602
H2F H 1.2770 0.3642 0.2274
O6L O 1.1445(2) 0.6517(2) 0.5000
H3L H 1.171(4) 0.633(4) 0.457(3)
H3K H 1.171(4) 0.633(4) 0.543(3)
O3R_2 O 0.61523(25) 0.41954(17) -0.14559(15)
O4R_2 O 0.61731(27) 0.56231(18) -0.09043(17)
O5R O 0.76517(33) 0.5303(3) -0.2500
C1R_2 C 0.6500(4) 0.5181(2) -0.1400(2)
C2R_2 C 0.7411(4) 0.5902(3) -0.1951(3)
H1R_2 H 0.8026 0.6350 -0.1602
H2R_2 H 0.7230 0.6358 -0.2274
C2W_2 C 0.8491(3) 0.5902(3) -0.3049(3)
C1W_2 C 0.8681(3) 0.5181(2) -0.3600(2)
O3W_2 O 0.80431(19) 0.41954(17) -0.35441(15)
O4W_2 O 0.9450(2) 0.56231(18) -0.40957(17)
H1W_2 H 0.8324 0.6350 -0.3398
H2W_2 H 0.9128 0.6358 -0.2726
O3U_2 O 0.38477(25) 0.58046(17) -0.14559(15)
O4U_2 O 0.38269(27) 0.43769(18) -0.09043(17)
O5U O 0.23483(33) 0.4697(3) -0.2500
C1U_2 C 0.3500(4) 0.4819(2) -0.1400(2)
C2U_2 C 0.2589(4) 0.4098(3) -0.1951(3)
H1U_2 H 0.1974 0.3650 -0.1602
H2U_2 H 0.2770 0.3642 -0.2274
C2L_2 C 0.1509(3) 0.4098(3) -0.3049(3)
C1L_2 C 0.1319(3) 0.4819(2) -0.3600(2)
O3L_2 O 0.19569(19) 0.58046(17) -0.35441(15)
O4L_2 O 0.0550(2) 0.43769(18) -0.40957(17)
H1L_2 H 0.1676 0.3650 -0.3398
H2L_2 H 0.0872 0.3642 -0.2726
O3F_2 O 0.38477(25) 0.58046(17) 0.14559(15)
O4F_2 O 0.38269(27) 0.43769(18) 0.09043(17)
O5F O 0.23483(33) 0.4697(3) 0.2500
C1F_2 C 0.3500(4) 0.4819(2) 0.1400(2)
C2F_2 C 0.2589(4) 0.4098(3) 0.1951(3)
H1F_2 H 0.1974 0.3650 0.1602
H2F_2 H 0.2770 0.3642 0.2274
C2K_2 C 0.1509(3) 0.4098(3) 0.3049(3)
C1K_2 C 0.1319(3) 0.4819(2) 0.3600(2)
O3K_2 O 0.19569(19) 0.58046(17) 0.35441(15)
O4K_2 O 0.0550(2) 0.43769(18) 0.40957(17)
H1K_2 H 0.1676 0.3650 0.3398
H2K_2 H 0.0872 0.3642 0.2726
O6I O 0.4928(3) 0.3483(2) 0.0000
H3I H 0.538(6) 0.367(4) -0.043(3)
H3R H 0.538(6) 0.367(4) 0.043(3)
O6U O 0.5072(3) 0.6517(2) 0.0000
H3U H 0.462(6) 0.633(4) 0.043(3)
H3F H 0.462(6) 0.633(4) -0.043(3)
O3O O 0.58046(17) 0.38477(25) 0.64559(15)
O4O O 0.43769(18) 0.38269(27) 0.59043(17)
O5O O 0.4697(3) 0.23483(33) 0.7500
C1O C 0.4819(2) 0.3500(4) 0.6400(2)
C2O C 0.4098(3) 0.2589(4) 0.6951(3)
H1O H 0.3650 0.1974 0.6602
H2O H 0.3642 0.2770 0.7274
C2Q C 0.4098(3) 0.1509(3) 0.8049(3)
C1Q C 0.4819(2) 0.1319(3) 0.8600(2)
O3Q O 0.58046(17) 0.19569(19) 0.85441(15)
O4Q O 0.43769(18) 0.0550(2) 0.90957(17)
H1Q H 0.3650 0.1676 0.8398
H2Q H 0.3642 0.0872 0.7726
O3M O 0.41954(17) 0.61523(25) 0.64559(15)
O4M O 0.56231(18) 0.61731(27) 0.59043(17)
O5M O 0.5303(3) 0.76517(33) 0.7500
C1M C 0.5181(2) 0.6500(4) 0.6400(2)
C2M C 0.5902(3) 0.7411(4) 0.6951(3)
H1M H 0.6350 0.8026 0.6602
H2M H 0.6358 0.7230 0.7274
C2T C 0.5902(3) 0.8491(3) 0.8049(3)
C1T C 0.5181(2) 0.8681(3) 0.8600(2)
O3T O 0.41954(17) 0.80431(19) 0.85441(15)
O4T O 0.56231(18) 0.9450(2) 0.90957(17)
H1T H 0.6350 0.8324 0.8398
H2T H 0.6358 0.9128 0.7726
O3C O 0.41954(17) 0.61523(25) 0.35441(15)
O4C O 0.56231(18) 0.61731(27) 0.40957(17)
O5C O 0.5303(3) 0.76517(33) 0.2500
C1C C 0.5181(2) 0.6500(4) 0.3600(2)
C2C C 0.5902(3) 0.7411(4) 0.3049(3)
H1C H 0.6350 0.8026 0.3398
H2C H 0.6358 0.7230 0.2726
C2E C 0.5902(3) 0.8491(3) 0.1951(3)
C1E C 0.5181(2) 0.8681(3) 0.1400(2)
O3E O 0.41954(17) 0.80431(19) 0.14559(15)
O4E O 0.56231(18) 0.9450(2) 0.09043(17)
H1E H 0.6350 0.8324 0.1602
H2E H 0.6358 0.9128 0.2274
O6A O 0.6517(2) 0.5072(3) 0.5000
H3A H 0.633(4) 0.462(6) 0.543(3)
H3O H 0.633(4) 0.462(6) 0.457(3)
O6M O 0.3483(2) 0.4928(3) 0.5000
H3M H 0.367(4) 0.538(6) 0.457(3)
H3C H 0.367(4) 0.538(6) 0.543(3)
O6H O 0.6517(2) 0.1445(2) 0.0000
H3H H 0.633(4) 0.171(4) -0.043(3)
H3Q H 0.633(4) 0.171(4) 0.043(3)
O6T O 0.3483(2) -0.1445(2) 0.0000
H3T H 0.367(4) -0.171(4) 0.043(3)
H3E H 0.367(4) -0.171(4) -0.043(3)
O6B O 0.4928(3) 0.1445(2) 0.5000
H3B H 0.538(6) 0.171(4) 0.543(3)
H3P H 0.538(6) 0.171(4) 0.457(3)
O6N O 0.5072(3) -0.1445(2) 0.5000
H3N H 0.462(6) -0.171(4) 0.457(3)
H3D H 0.462(6) -0.171(4) 0.543(3)
O6J O 0.8555(2) 0.5072(3) 0.0000
H3J H 0.829(4) 0.462(6) -0.043(3)
H3S H 0.829(4) 0.462(6) 0.043(3)
O6V O 1.1445(2) 0.4928(3) 0.0000
H3V H 1.171(4) 0.538(6) 0.043(3)
H3G H 1.171(4) 0.538(6) -0.043(3)
Gd1W Gd 0.6667 0.3333 0.7500
Gd1L Gd 1.3333 0.6667 0.7500
Gd1K Gd 1.3333 0.6667 0.2500
O4T_2 O 0.56231(18) -0.0550(2) -0.09043(17)
O4E_2 O 0.56231(18) -0.0550(2) 0.09043(17)
O4Q_2 O 0.43769(18) 0.0550(2) -0.09043(17)
O4D O 0.38269(27) -0.0550(2) 0.40957(17)
O4N O 0.38269(27) -0.0550(2) 0.59043(17)
O4P O 0.61731(27) 0.0550(2) 0.59043(17)
O4S O 0.9450(2) 0.38269(27) -0.09043(17)
O4V O 1.0550(2) 0.61731(27) -0.09043(17)
O4G O 1.0550(2) 0.61731(27) 0.09043(17)
Zn1R Zn 0.5000 0.5000 1.0000
Zn1R_2 Zn 1.5000 0.5000 1.0000
Zn1R_3 Zn 1.5000 0.5000 0.0000
Gd1R Gd 0.6666 0.3333 -0.2500
Zn1_2 Zn 1.0000 0.5000 -0.5000
Gd1T Gd 0.3333 0.6667 -0.2500
Zn1_3 Zn -0.0000 0.5000 -0.5000
Gd1C Gd 0.3333 0.6666 0.2500
Zn1_4 Zn 0.0000 0.5000 0.5000
Zn1T Zn 0.5000 0.0000 1.0000
Gd1T_2 Gd 0.3333 0.6667 0.7500
Zn1T_2 Zn 0.5000 1.0000 1.0000
Zn1T_3 Zn 0.5000 1.0000 0.0000
O3S O 0.80431(19) 0.38477(25) 0.85441(15)
O3P O 0.61523(25) 0.19569(19) 0.64559(15)
O5S O 0.76513(13) 0.23483(33) 0.7500
O3T_2 O 1.41954(17) 0.80431(19) 0.85441(15)
O3V O 1.19569(19) 0.61523(25) 0.85441(15)
O3M_2 O 1.41954(17) 0.61523(25) 0.64559(15)
O3N O 1.38477(25) 0.80431(19) 0.64559(15)
O5T O 1.5303(3) 0.76513(13) 0.7500
O5V O 1.23487(13) 0.76517(33) 0.7500
O3C_2 O 1.41954(17) 0.61523(25) 0.35441(15)
O3D O 1.38477(25) 0.80431(19) 0.35441(15)
O3E_2 O 1.41954(17) 0.80431(19) 0.14559(15)
O3G O 1.19569(19) 0.61523(25) 0.14559(15)
O5C_2 O 1.5303(3) 0.76517(33) 0.2500
O5D O 1.23483(33) 0.76513(13) 0.2500
O1 O 0.803(3) 1.033(3) 0.5000
loop_
_geom_bond_atom_site_label_1
_geom_bond_atom_site_label_2
_geom_bond_site_symmetry_1
_geom_bond_site_symmetry_2
Gd1 O3 1_555 1_555
Zn1 O4 1_555 1_555
O3 C1 1_555 1_555
O4 C1 1_555 1_555
O5 Gd1 1_555 1_555
C1 C2 1_555 1_555
C2 O5 1_555 1_555
H1 C2 1_555 1_555
H2 C2 1_555 1_555
O6 Zn1 1_555 1_555
H3 O6 1_555 1_555
C2I O5 1_555 1_555
C1I C2I 1_555 1_555
O3I Gd1 1_555 1_555
O4I C1I 1_555 1_555
H1I C2I 1_555 1_555
H2I C2I 1_555 1_555
H3W O6 1_555 1_555
O3A Gd1 1_555 1_555
O4A C1A 1_555 1_555
O5A Gd1 1_555 1_555
C1A O3A 1_555 1_555
C2A O5A 1_555 1_555
H1A C2A 1_555 1_555
H2A C2A 1_555 1_555
C2H O5A 1_555 1_555
C1H C2H 1_555 1_555
O3H Gd1 1_555 1_555
O4H C1H 1_555 1_555
H1H C2H 1_555 1_555
H2H C2H 1_555 1_555
O3B Gd1 1_555 1_555
O4B C1B 1_555 1_555
O5B Gd1 1_555 1_555
C1B O3B 1_555 1_555
C2B O5B 1_555 1_555
H1B C2B 1_555 1_555
H2B C2B 1_555 1_555
C2J O5B 1_555 1_555
C1J C2J 1_555 1_555
O3J Gd1 1_555 1_555
O4J C1J 1_555 1_555
H1J C2J 1_555 1_555
H2J C2J 1_555 1_555
Zn1I O4I 1_555 1_555
Zn1A O4A 1_555 1_555
Zn1H O4H 1_555 1_555
Zn1B O4B 1_555 1_555
Zn1J O4J 1_555 1_555
O3W C1W 1_555 1_555
O4W Zn1 1_555 1_555
O5W C2W 1_555 1_555
C1W O4W 1_555 1_555
C2W C1W 1_555 1_555
H1W C2W 1_555 1_555
H2W C2W 1_555 1_555
C2R O5W 1_555 1_555
C1R C2R 1_555 1_555
O3R C1R 1_555 1_555
O4R C1R 1_555 1_555
H1R C2R 1_555 1_555
H2R C2R 1_555 1_555
O3L C1L 1_555 1_555
O4L Zn1 1_555 1_555
O5L C2L 1_555 1_555
C1L O4L 1_555 1_555
C2L C1L 1_555 1_555
H1L C2L 1_555 1_555
H2L C2L 1_555 1_555
C2U O5L 1_555 1_555
C1U C2U 1_555 1_555
O3U C1U 1_555 1_555
O4U C1U 1_555 1_555
H1U C2U 1_555 1_555
H2U C2U 1_555 1_555
O3K C1K 1_555 1_555
O4K Zn1 1_555 1_555
O5K C2K 1_555 1_555
C1K O4K 1_555 1_555
C2K C1K 1_555 1_555
H1K C2K 1_555 1_555
H2K C2K 1_555 1_555
C2F O5K 1_555 1_555
C1F C2F 1_555 1_555
O3F C1F 1_555 1_555
O4F C1F 1_555 1_555
H1F C2F 1_555 1_555
H2F C2F 1_555 1_555
O6L Zn1 1_555 1_555
H3L O6L 1_555 1_555
H3K O6L 1_555 1_555
O3R_2 C1R_2 1_555 1_555
O4R_2 Zn1I 1_555 1_555
O5R C2R_2 1_555 1_555
C1R_2 O4R_2 1_555 1_555
C2R_2 C1R_2 1_555 1_555
H1R_2 C2R_2 1_555 1_555
H2R_2 C2R_2 1_555 1_555
C2W_2 O5R 1_555 1_555
C1W_2 C2W_2 1_555 1_555
O3W_2 C1W_2 1_555 1_555
O4W_2 C1W_2 1_555 1_555
H1W_2 C2W_2 1_555 1_555
H2W_2 C2W_2 1_555 1_555
O3U_2 C1U_2 1_555 1_555
O4U_2 Zn1I 1_555 1_555
O5U C2U_2 1_555 1_555
C1U_2 O4U_2 1_555 1_555
C2U_2 C1U_2 1_555 1_555
H1U_2 C2U_2 1_555 1_555
H2U_2 C2U_2 1_555 1_555
C2L_2 O5U 1_555 1_555
C1L_2 C2L_2 1_555 1_555
O3L_2 C1L_2 1_555 1_555
O4L_2 C1L_2 1_555 1_555
H1L_2 C2L_2 1_555 1_555
H2L_2 C2L_2 1_555 1_555
O3F_2 C1F_2 1_555 1_555
O4F_2 Zn1I 1_555 1_555
O5F C2F_2 1_555 1_555
C1F_2 O4F_2 1_555 1_555
C2F_2 C1F_2 1_555 1_555
H1F_2 C2F_2 1_555 1_555
H2F_2 C2F_2 1_555 1_555
C2K_2 O5F 1_555 1_555
C1K_2 C2K_2 1_555 1_555
O3K_2 C1K_2 1_555 1_555
O4K_2 C1K_2 1_555 1_555
H1K_2 C2K_2 1_555 1_555
H2K_2 C2K_2 1_555 1_555
O6I Zn1I 1_555 1_555
H3I O6I 1_555 1_555
H3R O6I 1_555 1_555
O6U Zn1I 1_555 1_555
H3U O6U 1_555 1_555
H3F O6U 1_555 1_555
O3O C1O 1_555 1_555
O4O Zn1A 1_555 1_555
O5O C2O 1_555 1_555
C1O O4O 1_555 1_555
C2O C1O 1_555 1_555
H1O C2O 1_555 1_555
H2O C2O 1_555 1_555
C2Q O5O 1_555 1_555
C1Q C2Q 1_555 1_555
O3Q C1Q 1_555 1_555
O4Q C1Q 1_555 1_555
H1Q C2Q 1_555 1_555
H2Q C2Q 1_555 1_555
O3M C1M 1_555 1_555
O4M Zn1A 1_555 1_555
O5M C2M 1_555 1_555
C1M O4M 1_555 1_555
C2M C1M 1_555 1_555
H1M C2M 1_555 1_555
H2M C2M 1_555 1_555
C2T O5M 1_555 1_555
C1T C2T 1_555 1_555
O3T C1T 1_555 1_555
O4T C1T 1_555 1_555
H1T C2T 1_555 1_555
H2T C2T 1_555 1_555
O3C C1C 1_555 1_555
O4C Zn1A 1_555 1_555
O5C C2C 1_555 1_555
C1C O4C 1_555 1_555
C2C C1C 1_555 1_555
H1C C2C 1_555 1_555
H2C C2C 1_555 1_555
C2E O5C 1_555 1_555
C1E C2E 1_555 1_555
O3E C1E 1_555 1_555
O4E C1E 1_555 1_555
H1E C2E 1_555 1_555
H2E C2E 1_555 1_555
O6A Zn1A 1_555 1_555
H3A O6A 1_555 1_555
H3O O6A 1_555 1_555
O6M Zn1A 1_555 1_555
H3M O6M 1_555 1_555
H3C O6M 1_555 1_555
O6H Zn1H 1_555 1_555
H3H O6H 1_555 1_555
H3Q O6H 1_555 1_555
O6T Zn1H 1_555 1_555
H3T O6T 1_555 1_555
H3E O6T 1_555 1_555
O6B Zn1B 1_555 1_555
H3B O6B 1_555 1_555
H3P O6B 1_555 1_555
O6N Zn1B 1_555 1_555
H3N O6N 1_555 1_555
H3D O6N 1_555 1_555
O6J Zn1J 1_555 1_555
H3J O6J 1_555 1_555
H3S O6J 1_555 1_555
O6V Zn1J 1_555 1_555
H3V O6V 1_555 1_555
H3G O6V 1_555 1_555
Gd1W O3W 1_555 1_555
Gd1L O3L 1_555 1_555
Gd1K O3K 1_555 1_555
O4T_2 Zn1H 1_555 1_555
O4E_2 Zn1H 1_555 1_555
O4Q_2 Zn1H 1_555 1_555
O4D Zn1B 1_555 1_555
O4N Zn1B 1_555 1_555
O4P Zn1B 1_555 1_555
O4S Zn1J 1_555 1_555
O4V Zn1J 1_555 1_555
O4G Zn1J 1_555 1_555
Zn1R O4R 1_555 1_555
Zn1R_2 O4U 1_555 1_555
Zn1R_3 O4F 1_555 1_555
Gd1R O3R_2 1_555 1_555
Zn1_2 O4W_2 1_555 1_555
Gd1T O3U_2 1_555 1_555
Zn1_3 O4L_2 1_555 1_555
Gd1C O3F_2 1_555 1_555
Zn1_4 O4K_2 1_555 1_555
Zn1T O4Q 1_555 1_555
Gd1T_2 O3M 1_555 1_555
Zn1T_2 O4T 1_555 1_555
Zn1T_3 O4E 1_555 1_555
O3S Gd1W 1_555 1_555
O3P Gd1W 1_555 1_555
O5S Gd1W 1_555 1_555
O3T_2 Gd1L 1_555 1_555
O3V Gd1L 1_555 1_555
O3M_2 Gd1L 1_555 1_555
O3N Gd1L 1_555 1_555
O5T Gd1L 1_555 1_555
O5V Gd1L 1_555 1_555
O3C_2 Gd1K 1_555 1_555
O3D Gd1K 1_555 1_555
O3E_2 Gd1K 1_555 1_555
O3G Gd1K 1_555 1_555
O5C_2 Gd1K 1_555 1_555
O5D Gd1K 1_555 1_555
C1I O3I 1_555 1_555
C1A C2A 1_555 1_555
C1H O3H 1_555 1_555
C1B C2B 1_555 1_555
C1J O3J 1_555 1_555
O5W Gd1W 1_555 1_555
O3R Gd1W 1_555 1_555
O5L Gd1L 1_555 1_555
O3U Gd1L 1_555 1_555
O5K Gd1K 1_555 1_555
O3F Gd1K 1_555 1_555
O5R Gd1R 1_555 1_555
O3W_2 Gd1R 1_555 1_555
O5U Gd1T 1_555 1_555
O3L_2 Gd1T 1_555 1_555
O5F Gd1C 1_555 1_555
O3K_2 Gd1C 1_555 1_555
O3O Gd1W 1_555 1_555
O5O Gd1W 1_555 1_555
O3Q Gd1W 1_555 1_555
O5M Gd1T_2 1_555 1_555
O3T Gd1T_2 1_555 1_555
O3C Gd1C 1_555 1_555
O5C Gd1C 1_555 1_555
O3E Gd1C 1_555 1_555

#END
