
#######################################################################
#
#                 Cambridge Crystallographic Data Centre
#                                CCDC 
#
#######################################################################
#
# If this CIF has been generated from an entry in the Cambridge 
# Structural Database, then it will include bibliographic, chemical, 
# crystal, experimental, refinement or atomic coordinate data resulting 
# from the CCDC's data processing and validation procedures.
#
#######################################################################

data_ILASUL
_chemical_formula_moiety         '(C7 H6 Co1 N7 Rb1 1-)n'
_symmetry_cell_setting           monoclinic
_symmetry_space_group_name_H-M   'C 2/c'
_symmetry_Int_Tables_number      15
_space_group_name_Hall           '-C 2yc'
loop_
_symmetry_equiv_pos_site_id
_symmetry_equiv_pos_as_xyz
1 x,y,z
2 -x,y,1/2-z
3 1/2+x,1/2+y,z
4 1/2-x,1/2+y,1/2-z
5 -x,-y,-z
6 x,-y,1/2+z
7 1/2-x,1/2-y,-z
8 1/2+x,1/2-y,1/2+z
_cell_length_a                   13.8848(5)
_cell_length_b                   7.9026(3)
_cell_length_c                   13.8314(13)
_cell_angle_alpha                90
_cell_angle_beta                 108.21(3)
_cell_angle_gamma                90
_cell_volume                     1441.66
loop_
_atom_site_label
_atom_site_type_symbol
_atom_site_fract_x
_atom_site_fract_y
_atom_site_fract_z
Rb1 Rb 0.5000 0.21132(6) 0.2500
N1 N 0.4366(2) 0.1770(4) 0.4363(2)
N2 N 0.6560(3) -0.0594(4) 0.3018(2)
N3 N 0.6610(2) 0.4149(4) 0.4030(2)
C1 C 0.6334(2) 0.2058(3) 0.0401(2)
Co1 Co 0.7500 0.2500 0.0000
C2 C 0.8075(2) 0.0419(4) 0.0614(2)
C3 C 0.6900(2) 0.1316(4) -0.1239(2)
N1A N 0.5634(2) 0.1770(4) 0.0637(2)
N2A N 0.3440(3) -0.0594(4) 0.1982(2)
N3A N 0.3390(2) 0.4149(4) 0.0970(2)
C2F C 0.6925(2) 0.4581(4) -0.0614(2)
C3F C 0.8100(2) 0.3684(4) 0.1239(2)
C1F C 0.8666(2) 0.2942(3) -0.0401(2)
N3C N 0.8390(2) -0.0851(4) 0.0970(2)
N3E N 0.6610(2) 0.5851(4) -0.0970(2)
N2E N 0.6560(3) 0.0594(4) -0.1982(2)
N2C N 0.8440(3) 0.4406(4) 0.1982(2)
N1G N 0.9366(2) 0.3230(4) -0.0637(2)
Rb1B Rb 1.0000 -0.28868(6) 0.2500
Rb1D Rb 0.5000 0.78868(6) -0.2500
Rb1D_2 Rb 0.5000 -0.21132(6) -0.2500
Rb1B_2 Rb 1.0000 0.71132(6) 0.2500
Rb1F Rb 1.0000 0.28868(6) -0.2500
C4 C 0.0952(4) 0.8744(5) 0.6413(3)
H1 H 0.1459 0.9112 0.7023
H2 H 0.0334 0.8501 0.6559
H3 H 0.0832 0.9621 0.5908
N4 N 0.1307(2) 0.7198(3) 0.6024(2)
H4 H 0.1880 0.7423 0.5889
H5 H 0.0838 0.6858 0.5458
H6 H 0.1418 0.6385 0.6491
loop_
_geom_bond_atom_site_label_1
_geom_bond_atom_site_label_2
_geom_bond_site_symmetry_1
_geom_bond_site_symmetry_2
Rb1 N1 1_555 1_555
N2 Rb1 1_555 1_555
N3 Rb1 1_555 1_555
C1 Co1 1_555 1_555
Co1 C2 1_555 1_555
C2 N3C 1_555 1_555
C3 Co1 1_555 1_555
C4 H1 1_555 1_555
H2 C4 1_555 1_555
H3 C4 1_555 1_555
N4 C4 1_555 1_555
H4 N4 1_555 1_555
H5 N4 1_555 1_555
H6 N4 1_555 1_555
N1A Rb1 1_555 1_555
N2A Rb1 1_555 1_555
N3A Rb1 1_555 1_555
C2F Co1 1_555 1_555
C3F Co1 1_555 1_555
C1F Co1 1_555 1_555
N3C Rb1B 1_555 1_555
N3E C2F 1_555 1_555
N2E C3 1_555 1_555
N2C C3F 1_555 1_555
N1G C1F 1_555 1_555
Rb1D N3E 1_555 1_555
Rb1D_2 N2E 1_555 1_555
Rb1B_2 N2C 1_555 1_555
Rb1F N1G 1_555 1_555
C1 N1A 1_555 1_555

#END
