
#######################################################################
#
#                 Cambridge Crystallographic Data Centre
#                                CCDC 
#
#######################################################################
#
# If this CIF has been generated from an entry in the Cambridge 
# Structural Database, then it will include bibliographic, chemical, 
# crystal, experimental, refinement or atomic coordinate data resulting 
# from the CCDC's data processing and validation procedures.
#
#######################################################################

data_QUYRAF
_chemical_formula_moiety         'C216 H186 Co38 N6 O114'
_symmetry_cell_setting           rhombohedral
_symmetry_space_group_name_H-M   'R -3 c'
_symmetry_Int_Tables_number      167
_space_group_name_Hall           '-R 3 2"c'
loop_
_symmetry_equiv_pos_site_id
_symmetry_equiv_pos_as_xyz
1 x,y,z
2 -y,x-y,z
3 -x+y,-x,z
4 x-y,-y,1/2-z
5 -x,-x+y,1/2-z
6 y,x,1/2-z
7 2/3+x,1/3+y,1/3+z
8 2/3-y,1/3+x-y,1/3+z
9 2/3-x+y,1/3-x,1/3+z
10 2/3+x-y,1/3-y,5/6-z
11 2/3-x,1/3-x+y,5/6-z
12 2/3+y,1/3+x,5/6-z
13 1/3+x,2/3+y,2/3+z
14 1/3-y,2/3+x-y,2/3+z
15 1/3-x+y,2/3-x,2/3+z
16 1/3+x-y,2/3-y,1/6-z
17 1/3-x,2/3-x+y,1/6-z
18 1/3+y,2/3+x,1/6-z
19 -x,-y,-z
20 y,-x+y,-z
21 x-y,x,-z
22 -x+y,y,1/2+z
23 x,x-y,1/2+z
24 -y,-x,1/2+z
25 1/3-x,2/3-y,2/3-z
26 1/3+y,2/3-x+y,2/3-z
27 1/3+x-y,2/3+x,2/3-z
28 1/3-x+y,2/3+y,1/6+z
29 1/3+x,2/3+x-y,1/6+z
30 1/3-y,2/3-x,1/6+z
31 2/3-x,1/3-y,1/3-z
32 2/3+y,1/3-x+y,1/3-z
33 2/3+x-y,1/3+x,1/3-z
34 2/3-x+y,1/3+y,5/6+z
35 2/3+x,1/3+x-y,5/6+z
36 2/3-y,1/3-x,5/6+z
_cell_length_a                   26.8674(6)
_cell_length_b                   26.8674(6)
_cell_length_c                   95.505(4)
_cell_angle_alpha                90
_cell_angle_beta                 90
_cell_angle_gamma                120
_cell_volume                     59704.6
loop_
_atom_site_label
_atom_site_type_symbol
_atom_site_fract_x
_atom_site_fract_y
_atom_site_fract_z
_atom_site_U_iso_or_equiv
_atom_site_thermal_displace_type
N1 N 0.5741(19) 0.6044(16) 0.4993(3) 0.1400 Uani
C1 C 0.5268(14) 0.6177(19) 0.4980(2) 0.1400 Uani
H1 H 0.5086 0.6146 0.4895 0.1690 Uiso
C2 C 0.5856(9) 0.5747(10) 0.4877(2) 0.1420 Uani
H2 H 0.5584 0.5665 0.4803 0.2120 Uiso
H3 H 0.5820 0.5394 0.4911 0.2120 Uiso
H4 H 0.6239 0.5990 0.4842 0.2120 Uiso
C3 C 0.6134(11) 0.6261(11) 0.5115(2) 0.1396 Uani
H5 H 0.5914 0.6200 0.5199 0.2130 Uiso
H6 H 0.6398 0.6665 0.5104 0.2130 Uiso
H7 H 0.6345 0.6060 0.5121 0.2130 Uiso
C4 C 0.1970(2) 0.4767(3) 0.52724(5) 0.0800 Uani
C5 C 0.1510(2) 0.4471(2) 0.53817(5) 0.0824 Uani
C6 C 0.1224(3) 0.3865(3) 0.53835(7) 0.1077 Uani
H8 H 0.1321 0.3664 0.5320 0.1290 Uiso
C7 C 0.0789(3) 0.3575(3) 0.54823(7) 0.1112 Uani
H9 H 0.0594 0.3175 0.5486 0.1330 Uiso
C8 C 0.0650(3) 0.3881(3) 0.55752(6) 0.0963 Uani
C9 C 0.0938(3) 0.4470(3) 0.55719(6) 0.1018 Uani
H10 H 0.0854 0.4679 0.5636 0.1220 Uiso
C10 C 0.1359(3) 0.4745(3) 0.54699(6) 0.0946 Uani
H11 H 0.1542 0.5144 0.5464 0.1140 Uiso
C11 C 0.0034(3) 0.3805(2) 0.57648(5) 0.0884 Uani
H12 H -0.0039 0.4085 0.5719 0.1060 Uiso
H13 H 0.0332 0.4001 0.5835 0.1060 Uiso
C12 C -0.0516(3) 0.3333 0.5833 0.0842 Uani
C13 C -0.1696(2) 0.3579(3) 0.51079(6) 0.0820 Uani
C14 C -0.1515(2) 0.3558(2) 0.52540(5) 0.0810 Uani
C15 C -0.1374(3) 0.4003(3) 0.53465(6) 0.0908 Uani
H14 H -0.1359 0.4340 0.5317 0.1100 Uiso
C16 C -0.1255(3) 0.3936(3) 0.54858(6) 0.1000 Uani
H15 H -0.1209 0.4214 0.5551 0.1200 Uiso
C17 C -0.1206(3) 0.3501(3) 0.55283(5) 0.0886 Uani
C18 C -0.1370(3) 0.3024(3) 0.54411(6) 0.0931 Uani
H16 H -0.1370 0.2696 0.5472 0.1120 Uiso
C19 C -0.1532(3) 0.3070(3) 0.53054(6) 0.0914 Uani
H17 H -0.1658 0.2754 0.5246 0.1100 Uiso
C20 C -0.0970(3) 0.3062(3) 0.57191(5) 0.0891 Uani
H18 H -0.0836 0.2910 0.5645 0.1070 Uiso
H19 H -0.1323 0.2749 0.5757 0.1070 Uiso
C21 C 0.2564(4) 0.5645(4) 0.48686(9) 0.1348 Uani
C22 C 0.2318(4) 0.5350(4) 0.47324(8) 0.1164 Uani
C23 C 0.1868(5) 0.4835(5) 0.47353(11) 0.1513 Uani
H20 H 0.1713 0.4666 0.4821 0.1820 Uiso
C24 C 0.1616(5) 0.4539(5) 0.46146(11) 0.1751 Uani
H21 H 0.1310 0.4164 0.4618 0.2100 Uiso
C25 C 0.1835(6) 0.4819(6) 0.44865(12) 0.1848 Uani
C26 C 0.2284(5) 0.5325(4) 0.44930(11) 0.1741 Uani
H22 H 0.2451 0.5504 0.4409 0.2090 Uiso
C27 C 0.2537(4) 0.5620(4) 0.46149(11) 0.1502 Uani
H23 H 0.2848 0.5993 0.4613 0.1800 Uiso
O1 O 0.1350(7) 0.4324(6) 0.44104(10) 0.1852 Uani
O2 O 0.0510(6) 0.4568(7) 0.43467(16) 0.1854 Uani
C28 C 0.1467(8) 0.4302(9) 0.42590(13) 0.1851 Uani
H24 H 0.1752 0.4261 0.4205 0.2220 Uiso
H25 H 0.1602 0.4706 0.4275 0.2220 Uiso
C29 C 0.1088(9) 0.4421(9) 0.4167 0.1851 Uani
C30 C 0.0494(8) 0.4247(11) 0.42162(18) 0.1852 Uani
H26 H 0.0607 0.4624 0.4178 0.2220 Uiso
H27 H 0.0168 0.3952 0.4165 0.2220 Uiso
C31 C -0.0092(5) 0.4272(7) 0.44129(14) 0.2028 Uani
C32 C -0.0457(5) 0.3641(5) 0.44189(11) 0.1970 Uani
H28 H -0.0403 0.3383 0.4365 0.2360 Uiso
C33 C -0.0927(5) 0.3479(5) 0.45241(11) 0.1734 Uani
H29 H -0.1173 0.3095 0.4546 0.2080 Uiso
C34 C -0.0987(3) 0.3888(4) 0.45855(8) 0.1228 Uani
C35 C -0.0588(4) 0.4465(5) 0.45460(10) 0.1516 Uani
H30 H -0.0663 0.4749 0.4577 0.1820 Uiso
C36 C -0.0105(6) 0.4640(6) 0.44670(15) 0.1847 Uani
H31 H 0.0182 0.5022 0.4458 0.2220 Uiso
C37 C -0.1420(3) 0.3785(4) 0.46931(6) 0.0986 Uani
Co1 Co 0.28895(3) 0.52828(3) 0.513394(6) 0.0622 Uani
Co2 Co 0.42957(3) 0.62043(3) 0.510969(6) 0.0648 Uani
Co3 Co 0.3333 0.6667 0.501981(10) 0.0744 Uani
O3 O 0.02093(19) 0.35386(17) 0.56659(4) 0.1049 Uani
O4 O 0.21232(16) 0.44909(17) 0.51968(4) 0.0953 Uani
O5 O 0.22229(15) 0.53138(15) 0.52658(3) 0.0787 Uani
O6 O 0.23925(18) 0.5459(2) 0.49800(4) 0.0991 Uani
O7 O 0.3000(3) 0.6131(3) 0.48581(6) 0.1976 Uani
O8 O 0.35015(11) 0.61258(12) 0.51438(3) 0.0608 Uani
O9 O 0.5131(3) 0.6325(3) 0.50847(7) 0.1396 Uani
O10 O -0.1067(2) 0.3503(2) 0.56658(4) 0.1092 Uani
O11 O -0.18527(25) 0.31481(19) 0.50326(4) 0.0967 Uani
O12 O -0.17933(28) 0.3252(2) 0.47131(4) 0.1054 Uani
O13 O -0.16570(25) 0.40528(17) 0.50694(4) 0.0939 Uani
O14 O -0.14047(25) 0.42056(18) 0.47490(4) 0.0952 Uani
C4O C 0.0536(4) 0.1900(3) 0.63943(5) 0.0800 Uani
C5O C 0.0372(3) 0.2196(2) 0.62850(5) 0.0824 Uani
C6O C 0.0692(4) 0.2802(3) 0.62832(7) 0.1077 Uani
H8O H 0.0990 0.3003 0.6347 0.1290 Uiso
C7O C 0.0547(4) 0.3092(3) 0.61844(7) 0.1112 Uani
H9O H 0.0752 0.3492 0.6181 0.1330 Uiso
C8O C 0.0102(4) 0.2786(3) 0.60915(6) 0.0963 Uani
C9O C -0.0199(4) 0.2197(3) 0.60948(6) 0.1018 Uani
H10O H -0.0492 0.1988 0.6031 0.1220 Uiso
C10O C -0.0053(4) 0.1922(3) 0.61968(6) 0.0946 Uani
H11O H -0.0269 0.1523 0.6203 0.1140 Uiso
C11O C -0.0438(4) 0.2862(2) 0.59019(5) 0.0884 Uani
H12O H -0.0791 0.2582 0.5948 0.1060 Uiso
H13O H -0.0336 0.2666 0.5832 0.1060 Uiso
C13O C -0.1942(4) 0.3088(3) 0.65588(6) 0.0820 Uani
C14O C -0.1740(3) 0.3109(2) 0.64127(5) 0.0810 Uani
C15O C -0.2044(4) 0.2664(3) 0.63202(6) 0.0908 Uani
H14O H -0.2366 0.2327 0.6350 0.1100 Uiso
C16O C -0.1858(4) 0.2731(3) 0.61809(6) 0.1000 Uani
H15O H -0.2090 0.2453 0.6116 0.1200 Uiso
C17O C -0.1374(4) 0.3166(3) 0.61384(5) 0.0886 Uani
C18O C -0.1061(4) 0.3643(3) 0.62256(6) 0.0931 Uani
H16O H -0.0733 0.3971 0.6195 0.1120 Uiso
C19O C -0.1269(4) 0.3597(3) 0.63613(6) 0.0914 Uani
H17O H -0.1079 0.3913 0.6421 0.1100 Uiso
C20O C -0.0699(4) 0.3605(3) 0.59476(5) 0.0891 Uani
H18O H -0.0413 0.3757 0.6022 0.1070 Uiso
H19O H -0.0739 0.3918 0.5910 0.1070 Uiso
O3O O 0.00040(25) 0.31281(17) 0.60008(4) 0.1049 Uani
O4O O 0.09656(23) 0.21758(17) 0.64699(4) 0.0953 Uani
O5O O 0.02424(21) 0.13529(15) 0.64009(3) 0.0787 Uani
O10O O -0.1237(3) 0.3164(2) 0.60009(4) 0.1092 Uani
O11O O -0.16675(31) 0.35186(19) 0.66341(4) 0.0967 Uani
O13O O -0.23765(30) 0.26139(17) 0.65973(4) 0.0939 Uani
C21K C 0.2312(4) 0.5897(4) 0.34647(9) 0.1348 Uani
C22K C 0.2017(4) 0.5651(4) 0.36009(8) 0.1164 Uani
C23K C 0.1502(5) 0.5201(5) 0.35980(11) 0.1513 Uani
H20K H 0.1333 0.5046 0.3512 0.1820 Uiso
C24K C 0.1206(5) 0.4949(5) 0.37187(11) 0.1751 Uani
H21K H 0.0831 0.4643 0.3715 0.2100 Uiso
C25K C 0.1486(6) 0.5168(6) 0.38468(12) 0.1848 Uani
C26K C 0.1992(4) 0.5617(5) 0.38403(11) 0.1741 Uani
H22K H 0.2171 0.5784 0.3924 0.2090 Uiso
C27K C 0.2287(4) 0.5870(4) 0.37184(11) 0.1502 Uani
H23K H 0.2660 0.6181 0.3720 0.1800 Uiso
O1K O 0.0991(6) 0.4683(7) 0.39229(10) 0.1852 Uani
O2K O 0.1235(7) 0.3843(6) 0.39866(16) 0.1854 Uani
C28K C 0.0969(9) 0.4800(8) 0.40743(13) 0.1851 Uani
H24K H 0.0928 0.5085 0.4128 0.2220 Uiso
H25K H 0.1373 0.4935 0.4058 0.2220 Uiso
C30K C 0.0914(11) 0.3827(8) 0.41171(18) 0.1852 Uani
H26K H 0.1291 0.3940 0.4155 0.2220 Uiso
H27K H 0.0619 0.3501 0.4168 0.2220 Uiso
C31K C 0.0939(7) 0.3241(5) 0.39204(14) 0.2028 Uani
C32K C 0.0308(5) 0.2876(5) 0.39144(11) 0.1970 Uani
H28K H 0.0050 0.2930 0.3968 0.2360 Uiso
C33K C 0.0146(5) 0.2406(5) 0.38092(11) 0.1734 Uani
H29K H -0.0238 0.2160 0.3787 0.2080 Uiso
C34K C 0.0555(4) 0.2346(3) 0.37478(8) 0.1228 Uani
C35K C 0.1132(5) 0.2745(4) 0.37873(10) 0.1516 Uani
H30K H 0.1416 0.2670 0.3756 0.1820 Uiso
C36K C 0.1307(6) 0.3228(6) 0.38663(15) 0.1847 Uani
H31K H 0.1689 0.3515 0.3875 0.2220 Uiso
C37K C 0.0452(4) 0.1913(3) 0.36402(6) 0.0986 Uani
O6K O 0.2126(2) 0.57258(18) 0.33533(4) 0.0991 Uani
O7K O 0.2798(3) 0.6333(3) 0.34752(6) 0.1976 Uani
O12K O -0.0081(2) 0.15400(28) 0.36202(4) 0.1054 Uani
O14K O 0.08723(18) 0.19286(25) 0.35843(4) 0.0952 Uani
N1A N 0.3956(16) 0.9697(25) 0.4993(3) 0.1400 Uani
C1A C 0.3823(19) 0.9091(24) 0.4980(2) 0.1400 Uani
H1A H 0.3854 0.8940 0.4895 0.1690 Uiso
C2A C 0.4253(10) 1.0109(13) 0.4877(2) 0.1420 Uani
H2A H 0.4335 0.9919 0.4803 0.2120 Uiso
H3A H 0.4606 1.0426 0.4911 0.2120 Uiso
H4A H 0.4010 1.0249 0.4842 0.2120 Uiso
C3A C 0.3739(11) 0.9873(16) 0.5115(2) 0.1396 Uani
H5A H 0.3800 0.9714 0.5199 0.2130 Uiso
H6A H 0.3335 0.9733 0.5104 0.2130 Uiso
H7A H 0.3940 1.0285 0.5121 0.2130 Uiso
C4A C 0.5233(3) 0.7203(4) 0.52724(5) 0.0800 Uani
C5A C 0.5529(2) 0.7039(3) 0.53817(5) 0.0824 Uani
C6A C 0.6135(3) 0.7359(4) 0.53835(7) 0.1077 Uani
H8A H 0.6336 0.7657 0.5320 0.1290 Uiso
C7A C 0.6425(3) 0.7214(4) 0.54823(7) 0.1112 Uani
H9A H 0.6825 0.7419 0.5486 0.1330 Uiso
C8A C 0.6119(3) 0.6769(4) 0.55752(6) 0.0963 Uani
C9A C 0.5530(3) 0.6468(4) 0.55719(6) 0.1018 Uani
H10A H 0.5321 0.6175 0.5636 0.1220 Uiso
C10A C 0.5255(3) 0.6614(4) 0.54699(6) 0.0946 Uani
H11A H 0.4856 0.6398 0.5464 0.1140 Uiso
C11A C 0.6195(2) 0.6229(4) 0.57648(5) 0.0884 Uani
H12A H 0.5915 0.5876 0.5719 0.1060 Uiso
H13A H 0.5999 0.6331 0.5835 0.1060 Uiso
C12A C 0.6667 0.6151(3) 0.5833 0.0842 Uani
C13A C 0.6421(3) 0.4725(4) 0.51079(6) 0.0820 Uani
C14A C 0.6442(2) 0.4927(3) 0.52540(5) 0.0810 Uani
C15A C 0.5997(3) 0.4623(4) 0.53465(6) 0.0908 Uani
H14A H 0.5660 0.4301 0.5317 0.1100 Uiso
C16A C 0.6064(3) 0.4809(4) 0.54858(6) 0.1000 Uani
H15A H 0.5786 0.4577 0.5551 0.1200 Uiso
C17A C 0.6499(3) 0.5293(4) 0.55283(5) 0.0886 Uani
C18A C 0.6976(3) 0.5606(4) 0.54411(6) 0.0931 Uani
H16A H 0.7304 0.5934 0.5472 0.1120 Uiso
C19A C 0.6930(3) 0.5398(4) 0.53054(6) 0.0914 Uani
H17A H 0.7246 0.5588 0.5246 0.1100 Uiso
C20A C 0.6938(3) 0.5968(4) 0.57191(5) 0.0891 Uani
H18A H 0.7090 0.6254 0.5645 0.1070 Uiso
H19A H 0.7251 0.5928 0.5757 0.1070 Uiso
C21A C 0.4355(4) 0.6919(6) 0.48686(9) 0.1348 Uani
C22A C 0.4650(4) 0.6968(6) 0.47324(8) 0.1164 Uani
C23A C 0.5165(5) 0.7033(7) 0.47353(11) 0.1513 Uani
H20A H 0.5334 0.7047 0.4821 0.1820 Uiso
C24A C 0.5461(5) 0.7077(7) 0.46146(11) 0.1751 Uani
H21A H 0.5836 0.7146 0.4618 0.2100 Uiso
C25A C 0.5181(6) 0.7016(8) 0.44865(12) 0.1848 Uani
C26A C 0.4675(4) 0.6959(6) 0.44930(11) 0.1741 Uani
H22A H 0.4496 0.6947 0.4409 0.2090 Uiso
C27A C 0.4380(4) 0.6917(6) 0.46149(11) 0.1502 Uani
H23A H 0.4007 0.6855 0.4613 0.1800 Uiso
O1A O 0.5676(6) 0.7026(9) 0.44104(10) 0.1852 Uani
O2A O 0.5432(7) 0.5942(9) 0.43467(16) 0.1854 Uani
C28A C 0.5698(9) 0.7165(12) 0.42590(13) 0.1851 Uani
H24A H 0.5739 0.7491 0.4205 0.2220 Uiso
H25A H 0.5294 0.6896 0.4275 0.2220 Uiso
C29A C 0.5579(9) 0.6667(13) 0.4167 0.1851 Uani
C30A C 0.5753(11) 0.6247(14) 0.42162(18) 0.1852 Uani
H26A H 0.5376 0.5983 0.4178 0.2220 Uiso
H27A H 0.6048 0.6216 0.4165 0.2220 Uiso
C31A C 0.5728(7) 0.5636(9) 0.44129(14) 0.2028 Uani
C32A C 0.6359(5) 0.5902(7) 0.44189(11) 0.1970 Uani
H28A H 0.6617 0.6214 0.4365 0.2360 Uiso
C33A C 0.6521(5) 0.5594(7) 0.45241(11) 0.1734 Uani
H29A H 0.6905 0.5732 0.4546 0.2080 Uiso
C34A C 0.6112(4) 0.5125(5) 0.45855(8) 0.1228 Uani
C35A C 0.5535(5) 0.4947(6) 0.45460(10) 0.1516 Uani
H30A H 0.5251 0.4588 0.4577 0.1820 Uiso
C36A C 0.5360(6) 0.5255(8) 0.44670(15) 0.1847 Uani
H31A H 0.4978 0.5160 0.4458 0.2220 Uiso
C37A C 0.6215(4) 0.4795(5) 0.46931(6) 0.0986 Uani
Co1A Co 0.47172(3) 0.76067(4) 0.513394(6) 0.0622 Uani
Co2A Co 0.37957(3) 0.80914(4) 0.510969(6) 0.0648 Uani
O3A O 0.64614(17) 0.66707(25) 0.56659(4) 0.1049 Uani
O4A O 0.55091(17) 0.76323(23) 0.51968(4) 0.0953 Uani
O5A O 0.46862(15) 0.69091(21) 0.52658(3) 0.0787 Uani
O6A O 0.4541(2) 0.69335(27) 0.49800(4) 0.0991 Uani
O7A O 0.3869(3) 0.6869(4) 0.48581(6) 0.1976 Uani
O8A O 0.38742(12) 0.73757(16) 0.51438(3) 0.0608 Uani
O9A O 0.3675(3) 0.8806(4) 0.50847(7) 0.1396 Uani
O10A O 0.6497(2) 0.5430(3) 0.56658(4) 0.1092 Uani
O11A O 0.68519(19) 0.49992(31) 0.50326(4) 0.0967 Uani
O12A O 0.6748(2) 0.49547(34) 0.47131(4) 0.1054 Uani
O13A O 0.59472(17) 0.42902(30) 0.50694(4) 0.0939 Uani
O14A O 0.57944(18) 0.43897(31) 0.47490(4) 0.0952 Uani
C4Q C 0.8100(3) 0.8637(2) 0.63943(5) 0.0800 Uani
C5Q C 0.7804(2) 0.8177(2) 0.62850(5) 0.0824 Uani
C6Q C 0.7198(3) 0.7891(3) 0.62832(7) 0.1077 Uani
H8Q H 0.6997 0.7988 0.6347 0.1290 Uiso
C7Q C 0.6908(3) 0.7456(3) 0.61844(7) 0.1112 Uani
H9Q H 0.6508 0.7261 0.6181 0.1330 Uiso
C8Q C 0.7214(3) 0.7317(3) 0.60915(6) 0.0963 Uani
C9Q C 0.7803(3) 0.7605(3) 0.60948(6) 0.1018 Uani
H10Q H 0.8012 0.7521 0.6031 0.1220 Uiso
C10Q C 0.8078(3) 0.8026(3) 0.61968(6) 0.0946 Uani
H11Q H 0.8477 0.8209 0.6203 0.1140 Uiso
C11Q C 0.7138(2) 0.6701(3) 0.59019(5) 0.0884 Uani
H12Q H 0.7418 0.6628 0.5948 0.1060 Uiso
H13Q H 0.7334 0.6999 0.5832 0.1060 Uiso
C13Q C 0.6912(3) 0.4971(2) 0.65588(6) 0.0820 Uani
C14Q C 0.6891(2) 0.5152(2) 0.64127(5) 0.0810 Uani
C15Q C 0.7336(3) 0.5293(3) 0.63202(6) 0.0908 Uani
H14Q H 0.7673 0.5308 0.6350 0.1100 Uiso
C16Q C 0.7269(3) 0.5412(3) 0.61809(6) 0.1000 Uani
H15Q H 0.7547 0.5458 0.6116 0.1200 Uiso
C17Q C 0.6834(3) 0.5461(3) 0.61384(5) 0.0886 Uani
C18Q C 0.6357(3) 0.5297(3) 0.62256(6) 0.0931 Uani
H16Q H 0.6029 0.5297 0.6195 0.1120 Uiso
C19Q C 0.6403(3) 0.5135(3) 0.63613(6) 0.0914 Uani
H17Q H 0.6087 0.5009 0.6421 0.1100 Uiso
C20Q C 0.6395(3) 0.5697(3) 0.59476(5) 0.0891 Uani
H18Q H 0.6243 0.5831 0.6022 0.1070 Uiso
H19Q H 0.6082 0.5344 0.5910 0.1070 Uiso
O3Q O 0.68719(17) 0.68760(19) 0.60008(4) 0.1049 Uani
O4Q O 0.78242(17) 0.87899(16) 0.64699(4) 0.0953 Uani
O5Q O 0.86471(15) 0.88896(15) 0.64009(3) 0.0787 Uani
O10Q O 0.6836(2) 0.5600(2) 0.60009(4) 0.1092 Uani
O11Q O 0.64814(19) 0.48140(25) 0.66341(4) 0.0967 Uani
O13Q O 0.73861(17) 0.50097(25) 0.65973(4) 0.0939 Uani
C21J C 0.4103(4) 0.6414(6) 0.34647(9) 0.1348 Uani
C22J C 0.4349(4) 0.6365(6) 0.36009(8) 0.1164 Uani
C23J C 0.4799(5) 0.6300(7) 0.35980(11) 0.1513 Uani
H20J H 0.4954 0.6286 0.3512 0.1820 Uiso
C24J C 0.5051(5) 0.6256(7) 0.37187(11) 0.1751 Uani
H21J H 0.5357 0.6187 0.3715 0.2100 Uiso
C25J C 0.4832(6) 0.6317(8) 0.38468(12) 0.1848 Uani
C26J C 0.4383(5) 0.6374(6) 0.38403(11) 0.1741 Uani
H22J H 0.4216 0.6386 0.3924 0.2090 Uiso
C27J C 0.4130(4) 0.6416(6) 0.37184(11) 0.1502 Uani
H23J H 0.3819 0.6478 0.3720 0.1800 Uiso
O1J O 0.5317(7) 0.6307(9) 0.39229(10) 0.1852 Uani
O2J O 0.6157(6) 0.7391(9) 0.39866(16) 0.1854 Uani
C28J C 0.5200(8) 0.6168(12) 0.40743(13) 0.1851 Uani
H24J H 0.4915 0.5842 0.4128 0.2220 Uiso
H25J H 0.5065 0.6437 0.4058 0.2220 Uiso
C30J C 0.6173(8) 0.7086(14) 0.41171(18) 0.1852 Uani
H26J H 0.6060 0.7350 0.4155 0.2220 Uiso
H27J H 0.6499 0.7117 0.4168 0.2220 Uiso
C31J C 0.6759(5) 0.7697(9) 0.39204(14) 0.2028 Uani
C32J C 0.7124(5) 0.7431(7) 0.39144(11) 0.1970 Uani
H28J H 0.7070 0.7119 0.3968 0.2360 Uiso
C33J C 0.7594(5) 0.7739(7) 0.38092(11) 0.1734 Uani
H29J H 0.7840 0.7601 0.3787 0.2080 Uiso
C34J C 0.7654(3) 0.8208(5) 0.37478(8) 0.1228 Uani
C35J C 0.7255(4) 0.8386(6) 0.37873(10) 0.1516 Uani
H30J H 0.7330 0.8745 0.3756 0.1820 Uiso
C36J C 0.6772(6) 0.8078(8) 0.38663(15) 0.1847 Uani
H31J H 0.6485 0.8173 0.3875 0.2220 Uiso
C37J C 0.8087(3) 0.8538(5) 0.36402(6) 0.0986 Uani
O6J O 0.42742(18) 0.63998(27) 0.33533(4) 0.0991 Uani
O7J O 0.3667(3) 0.6464(4) 0.34752(6) 0.1976 Uani
O12J O 0.84600(28) 0.83786(34) 0.36202(4) 0.1054 Uani
O14J O 0.80714(25) 0.89436(31) 0.35843(4) 0.0952 Uani
N1B N 0.0303(25) 0.4259(19) 0.4993(3) 0.1400 Uani
C1B C 0.0909(24) 0.4732(14) 0.4980(2) 0.1400 Uani
H1B H 0.1060 0.4914 0.4895 0.1690 Uiso
C2B C -0.0109(13) 0.4144(9) 0.4877(2) 0.1420 Uani
H2B H 0.0081 0.4416 0.4803 0.2120 Uiso
H3B H -0.0426 0.4180 0.4911 0.2120 Uiso
H4B H -0.0249 0.3761 0.4842 0.2120 Uiso
C3B C 0.0127(16) 0.3866(11) 0.5115(2) 0.1396 Uani
H5B H 0.0286 0.4086 0.5199 0.2130 Uiso
H6B H 0.0267 0.3602 0.5104 0.2130 Uiso
H7B H -0.0285 0.3655 0.5121 0.2130 Uiso
C4B C 0.2797(4) 0.8030(2) 0.52724(5) 0.0800 Uani
C5B C 0.2961(3) 0.8490(2) 0.53817(5) 0.0824 Uani
C6B C 0.2641(4) 0.8776(3) 0.53835(7) 0.1077 Uani
H8B H 0.2343 0.8679 0.5320 0.1290 Uiso
C7B C 0.2786(4) 0.9211(3) 0.54823(7) 0.1112 Uani
H9B H 0.2581 0.9406 0.5486 0.1330 Uiso
C8B C 0.3231(4) 0.9350(3) 0.55752(6) 0.0963 Uani
C9B C 0.3532(4) 0.9062(3) 0.55719(6) 0.1018 Uani
H10B H 0.3825 0.9146 0.5636 0.1220 Uiso
C10B C 0.3386(4) 0.8641(3) 0.54699(6) 0.0946 Uani
H11B H 0.3602 0.8458 0.5464 0.1140 Uiso
C11B C 0.3771(4) 0.9966(3) 0.57648(5) 0.0884 Uani
H12B H 0.4124 1.0039 0.5719 0.1060 Uiso
H13B H 0.3669 0.9668 0.5835 0.1060 Uiso
C12B C 0.3849(3) 1.0516(3) 0.5833 0.0842 Uani
C13B C 0.5275(4) 1.1696(2) 0.51079(6) 0.0820 Uani
C14B C 0.5073(3) 1.1515(2) 0.52540(5) 0.0810 Uani
C15B C 0.5377(4) 1.1374(3) 0.53465(6) 0.0908 Uani
H14B H 0.5699 1.1359 0.5317 0.1100 Uiso
C16B C 0.5191(4) 1.1255(3) 0.54858(6) 0.1000 Uani
H15B H 0.5423 1.1209 0.5551 0.1200 Uiso
C17B C 0.4707(4) 1.1206(3) 0.55283(5) 0.0886 Uani
C18B C 0.4394(4) 1.1370(3) 0.54411(6) 0.0931 Uani
H16B H 0.4066 1.1370 0.5472 0.1120 Uiso
C19B C 0.4602(4) 1.1532(3) 0.53054(6) 0.0914 Uani
H17B H 0.4412 1.1658 0.5246 0.1100 Uiso
C20B C 0.4032(4) 1.0970(3) 0.57191(5) 0.0891 Uani
H18B H 0.3746 1.0836 0.5645 0.1070 Uiso
H19B H 0.4072 1.1323 0.5757 0.1070 Uiso
C21B C 0.3081(6) 0.7436(4) 0.48686(9) 0.1348 Uani
C22B C 0.3032(6) 0.7682(4) 0.47324(8) 0.1164 Uani
C23B C 0.2967(7) 0.8132(5) 0.47353(11) 0.1513 Uani
H20B H 0.2953 0.8287 0.4821 0.1820 Uiso
C24B C 0.2923(7) 0.8384(5) 0.46146(11) 0.1751 Uani
H21B H 0.2854 0.8690 0.4618 0.2100 Uiso
C25B C 0.2984(8) 0.8165(6) 0.44865(12) 0.1848 Uani
C26B C 0.3041(6) 0.7716(5) 0.44930(11) 0.1741 Uani
H22B H 0.3053 0.7549 0.4409 0.2090 Uiso
C27B C 0.3083(6) 0.7463(4) 0.46149(11) 0.1502 Uani
H23B H 0.3145 0.7152 0.4613 0.1800 Uiso
O1B O 0.2974(9) 0.8650(7) 0.44104(10) 0.1852 Uani
O2B O 0.4058(9) 0.9490(6) 0.43467(16) 0.1854 Uani
C28B C 0.2835(12) 0.8533(8) 0.42590(13) 0.1851 Uani
H24B H 0.2509 0.8248 0.4205 0.2220 Uiso
H25B H 0.3104 0.8398 0.4275 0.2220 Uiso
C29B C 0.3333(13) 0.8912(9) 0.4167 0.1851 Uani
C30B C 0.3753(14) 0.9506(8) 0.42162(18) 0.1852 Uani
H26B H 0.4017 0.9393 0.4178 0.2220 Uiso
H27B H 0.3784 0.9832 0.4165 0.2220 Uiso
C31B C 0.4364(9) 1.0092(5) 0.44129(14) 0.2028 Uani
C32B C 0.4098(7) 1.0457(5) 0.44189(11) 0.1970 Uani
H28B H 0.3786 1.0403 0.4365 0.2360 Uiso
C33B C 0.4406(7) 1.0927(5) 0.45241(11) 0.1734 Uani
H29B H 0.4268 1.1173 0.4546 0.2080 Uiso
C34B C 0.4875(5) 1.0987(3) 0.45855(8) 0.1228 Uani
C35B C 0.5053(6) 1.0588(4) 0.45460(10) 0.1516 Uani
H30B H 0.5412 1.0663 0.4577 0.1820 Uiso
C36B C 0.4745(8) 1.0105(6) 0.44670(15) 0.1847 Uani
H31B H 0.4840 0.9818 0.4458 0.2220 Uiso
C37B C 0.5205(5) 1.1420(3) 0.46931(6) 0.0986 Uani
Co1B Co 0.23933(4) 0.71105(3) 0.513394(6) 0.0622 Uani
Co2B Co 0.19086(4) 0.57043(3) 0.510969(6) 0.0648 Uani
O3B O 0.33293(25) 0.97907(19) 0.56659(4) 0.1049 Uani
O4B O 0.23677(23) 0.78768(16) 0.51968(4) 0.0953 Uani
O5B O 0.30909(21) 0.77771(15) 0.52658(3) 0.0787 Uani
O6B O 0.30665(27) 0.76075(18) 0.49800(4) 0.0991 Uani
O7B O 0.3131(4) 0.7000(3) 0.48581(6) 0.1976 Uani
O8B O 0.26243(16) 0.64985(11) 0.51438(3) 0.0608 Uani
O9B O 0.1194(4) 0.4869(3) 0.50847(7) 0.1396 Uani
O10B O 0.4570(3) 1.1067(2) 0.56658(4) 0.1092 Uani
O11B O 0.50008(31) 1.18527(25) 0.50326(4) 0.0967 Uani
O12B O 0.50453(34) 1.17933(28) 0.47131(4) 0.1054 Uani
O13B O 0.57098(30) 1.16570(25) 0.50694(4) 0.0939 Uani
O14B O 0.56103(31) 1.14047(25) 0.47490(4) 0.0952 Uani
C4P C 0.1363(2) 0.9464(4) 0.63943(5) 0.0800 Uani
C5P C 0.1823(2) 0.9628(3) 0.62850(5) 0.0824 Uani
C6P C 0.2109(3) 0.9308(4) 0.62832(7) 0.1077 Uani
H8P H 0.2012 0.9010 0.6347 0.1290 Uiso
C7P C 0.2544(3) 0.9453(4) 0.61844(7) 0.1112 Uani
H9P H 0.2739 0.9248 0.6181 0.1330 Uiso
C8P C 0.2683(3) 0.9898(4) 0.60915(6) 0.0963 Uani
C9P C 0.2395(3) 1.0199(4) 0.60948(6) 0.1018 Uani
H10P H 0.2479 1.0492 0.6031 0.1220 Uiso
C10P C 0.1974(3) 1.0053(4) 0.61968(6) 0.0946 Uani
H11P H 0.1791 1.0269 0.6203 0.1140 Uiso
C11P C 0.3299(3) 1.0438(4) 0.59019(5) 0.0884 Uani
H12P H 0.3372 1.0791 0.5948 0.1060 Uiso
H13P H 0.3001 1.0336 0.5832 0.1060 Uiso
C13P C 0.5029(2) 1.1942(4) 0.65588(6) 0.0820 Uani
C14P C 0.4848(2) 1.1740(3) 0.64127(5) 0.0810 Uani
C15P C 0.4707(3) 1.2044(4) 0.63202(6) 0.0908 Uani
H14P H 0.4692 1.2366 0.6350 0.1100 Uiso
C16P C 0.4588(3) 1.1858(4) 0.61809(6) 0.1000 Uani
H15P H 0.4542 1.2090 0.6116 0.1200 Uiso
C17P C 0.4539(3) 1.1374(4) 0.61384(5) 0.0886 Uani
C18P C 0.4703(3) 1.1061(4) 0.62256(6) 0.0931 Uani
H16P H 0.4703 1.0733 0.6195 0.1120 Uiso
C19P C 0.4865(3) 1.1269(4) 0.63613(6) 0.0914 Uani
H17P H 0.4991 1.1079 0.6421 0.1100 Uiso
C20P C 0.4303(3) 1.0699(4) 0.59476(5) 0.0891 Uani
H18P H 0.4169 1.0413 0.6022 0.1070 Uiso
H19P H 0.4656 1.0739 0.5910 0.1070 Uiso
O3P O 0.31240(19) 0.99960(25) 0.60008(4) 0.1049 Uani
O4P O 0.12101(16) 0.90344(23) 0.64699(4) 0.0953 Uani
O5P O 0.11104(15) 0.97576(21) 0.64009(3) 0.0787 Uani
O10P O 0.4400(2) 1.1237(3) 0.60009(4) 0.1092 Uani
O11P O 0.51860(25) 1.16675(31) 0.66341(4) 0.0967 Uani
O13P O 0.49903(25) 1.23765(30) 0.65973(4) 0.0939 Uani
C21I C 0.3586(6) 0.7688(4) 0.34647(9) 0.1348 Uani
C22I C 0.3635(6) 0.7983(4) 0.36009(8) 0.1164 Uani
C23I C 0.3700(7) 0.8498(5) 0.35980(11) 0.1513 Uani
H20I H 0.3714 0.8667 0.3512 0.1820 Uiso
C24I C 0.3744(7) 0.8794(5) 0.37187(11) 0.1751 Uani
H21I H 0.3813 0.9169 0.3715 0.2100 Uiso
C25I C 0.3683(8) 0.8514(6) 0.38468(12) 0.1848 Uani
C26I C 0.3626(6) 0.8008(4) 0.38403(11) 0.1741 Uani
H22I H 0.3614 0.7829 0.3924 0.2090 Uiso
C27I C 0.3584(6) 0.7713(4) 0.37184(11) 0.1502 Uani
H23I H 0.3522 0.7340 0.3720 0.1800 Uiso
O1I O 0.3693(9) 0.9009(6) 0.39229(10) 0.1852 Uani
O2I O 0.2609(9) 0.8765(7) 0.39866(16) 0.1854 Uani
C28I C 0.3832(12) 0.9031(9) 0.40743(13) 0.1851 Uani
H24I H 0.4158 0.9072 0.4128 0.2220 Uiso
H25I H 0.3563 0.8627 0.4058 0.2220 Uiso
C30I C 0.2914(14) 0.9086(11) 0.41171(18) 0.1852 Uani
H26I H 0.2650 0.8709 0.4155 0.2220 Uiso
H27I H 0.2883 0.9381 0.4168 0.2220 Uiso
C31I C 0.2303(9) 0.9061(7) 0.39204(14) 0.2028 Uani
C32I C 0.2569(7) 0.9692(5) 0.39144(11) 0.1970 Uani
H28I H 0.2881 0.9950 0.3968 0.2360 Uiso
C33I C 0.2261(7) 0.9854(5) 0.38092(11) 0.1734 Uani
H29I H 0.2399 1.0238 0.3787 0.2080 Uiso
C34I C 0.1792(5) 0.9445(4) 0.37478(8) 0.1228 Uani
C35I C 0.1614(6) 0.8868(5) 0.37873(10) 0.1516 Uani
H30I H 0.1255 0.8584 0.3756 0.1820 Uiso
C36I C 0.1922(8) 0.8693(6) 0.38663(15) 0.1847 Uani
H31I H 0.1827 0.8311 0.3875 0.2220 Uiso
C37I C 0.1462(5) 0.9548(4) 0.36402(6) 0.0986 Uani
O6I O 0.36002(27) 0.7874(2) 0.33533(4) 0.0991 Uani
O7I O 0.3536(4) 0.7202(3) 0.34752(6) 0.1976 Uani
O12I O 0.16214(34) 1.0081(2) 0.36202(4) 0.1054 Uani
O14I O 0.10564(31) 0.91277(18) 0.35843(4) 0.0952 Uani
N1I N 0.6364(25) 0.7289(16) 0.3340(3) 0.1400 Uani
C1I C 0.5758(24) 0.7156(19) 0.3353(2) 0.1400 Uani
H1I H 0.5607 0.7187 0.3438 0.1690 Uiso
C2I C 0.6776(13) 0.7586(10) 0.3456(2) 0.1420 Uani
H2I H 0.6586 0.7668 0.3530 0.2120 Uiso
H3I H 0.7093 0.7939 0.3422 0.2120 Uiso
H4I H 0.6916 0.7343 0.3491 0.2120 Uiso
C3I C 0.6540(16) 0.7072(11) 0.3218(2) 0.1396 Uani
H5I H 0.6381 0.7133 0.3134 0.2130 Uiso
H6I H 0.6400 0.6668 0.3229 0.2130 Uiso
H7I H 0.6952 0.7273 0.3212 0.2130 Uiso
Co1I Co 0.42734(4) 0.80505(3) 0.319939(6) 0.0622 Uani
Co2I Co 0.47581(4) 0.71290(3) 0.322364(6) 0.0648 Uani
Co3I Co 0.3333 0.6666 0.331352(10) 0.0744 Uani
O8I O 0.40424(16) 0.72075(12) 0.31895(3) 0.0608 Uani
O9I O 0.5473(4) 0.7008(3) 0.32486(7) 0.1396 Uani
N1J N 0.0926(19) 0.3636(25) 0.3340(3) 0.1400 Uani
C1J C 0.1399(14) 0.4242(24) 0.3353(2) 0.1400 Uani
H1J H 0.1581 0.4393 0.3438 0.1690 Uiso
C2J C 0.0811(9) 0.3224(13) 0.3456(2) 0.1420 Uani
H2J H 0.1083 0.3414 0.3530 0.2120 Uiso
H3J H 0.0847 0.2907 0.3422 0.2120 Uiso
H4J H 0.0428 0.3084 0.3491 0.2120 Uiso
C3J C 0.0533(11) 0.3460(16) 0.3218(2) 0.1396 Uani
H5J H 0.0753 0.3619 0.3134 0.2130 Uiso
H6J H 0.0269 0.3600 0.3229 0.2130 Uiso
H7J H 0.0322 0.3048 0.3212 0.2130 Uiso
Co1J Co 0.37772(3) 0.57266(4) 0.319939(6) 0.0622 Uani
Co2J Co 0.23710(3) 0.52419(4) 0.322364(6) 0.0648 Uani
O8J O 0.31652(11) 0.59576(16) 0.31895(3) 0.0608 Uani
O9J O 0.1536(3) 0.4527(4) 0.32486(7) 0.1396 Uani
N1K N 0.2711(16) 0.9074(19) 0.3340(3) 0.1400 Uani
C1K C 0.2844(19) 0.8601(14) 0.3353(2) 0.1400 Uani
H1K H 0.2813 0.8419 0.3438 0.1690 Uiso
C2K C 0.2414(10) 0.9189(9) 0.3456(2) 0.1420 Uani
H2K H 0.2332 0.8917 0.3530 0.2120 Uiso
H3K H 0.2061 0.9153 0.3422 0.2120 Uiso
H4K H 0.2657 0.9572 0.3491 0.2120 Uiso
C3K C 0.2928(11) 0.9467(11) 0.3218(2) 0.1396 Uani
H5K H 0.2867 0.9247 0.3134 0.2130 Uiso
H6K H 0.3332 0.9731 0.3229 0.2130 Uiso
H7K H 0.2727 0.9678 0.3212 0.2130 Uiso
Co1K Co 0.19495(3) 0.62228(3) 0.319939(6) 0.0622 Uani
Co2K Co 0.28710(3) 0.76290(3) 0.322364(6) 0.0648 Uani
O8K O 0.27925(12) 0.68348(11) 0.31895(3) 0.0608 Uani
O9K O 0.2992(3) 0.8464(3) 0.32486(7) 0.1396 Uani
Co1O Co 0.09400(4) 0.13839(3) 0.653273(6) 0.0622 Uani
Co1P Co 0.04438(3) 0.90600(4) 0.653273(6) 0.0622 Uani
Co1Q Co 0.86161(3) 0.95562(3) 0.653273(6) 0.0622 Uani
Co1R Co 0.71105(3) 0.47172(3) 0.486606(6) 0.0622 Uani
Co1S Co 0.52828(3) 1.23933(4) 0.486606(6) 0.0622 Uani
Co1T Co -0.23933(4) 0.28895(3) 0.486606(6) 0.0622 Uani
Co1GA Co 0.90600(4) 0.86161(3) 0.346727(6) 0.0622 Uani
Co1HA Co -0.04438(3) 0.09400(4) 0.346727(6) 0.0622 Uani
Co1IA Co 0.13839(3) 1.04438(3) 0.346727(6) 0.0622 Uani
Co1AA Co 0.57266(4) 1.19495(3) 0.680061(6) 0.0622 Uani
Co1BA Co 0.62228(3) 0.42734(4) 0.680061(6) 0.0622 Uani
Co1CA Co -0.19495(3) 0.37772(3) 0.680061(6) 0.0622 Uani
Co2O Co 0.14247(4) 1.04624(3) 0.655698(6) 0.0648 Uani
Co2P Co 0.90376(3) 0.85753(4) 0.655698(6) 0.0648 Uani
Co2Q Co -0.04624(3) 0.09624(3) 0.655698(6) 0.0648 Uani
Co2R Co 0.57043(3) 0.37957(3) 0.489031(6) 0.0648 Uani
Co2S Co 0.62043(3) 1.19086(4) 0.489031(6) 0.0648 Uani
Co2T Co -0.19086(4) 0.42957(3) 0.489031(6) 0.0648 Uani
Co2GA Co 0.85753(4) 0.95376(3) 0.344302(6) 0.0648 Uani
Co2HA Co 0.09624(3) 0.14247(4) 0.344302(6) 0.0648 Uani
Co2IA Co 0.04624(3) 0.90376(3) 0.344302(6) 0.0648 Uani
Co2AA Co 0.52419(4) 1.28710(3) 0.677636(6) 0.0648 Uani
Co2BA Co 0.76290(3) 0.47581(4) 0.677636(6) 0.0648 Uani
Co2CA Co -0.28710(3) 0.23710(3) 0.677636(6) 0.0648 Uani
O4I O 0.42990(23) 0.88424(17) 0.31365(4) 0.0953 Uani
O4J O 0.45435(16) 0.57010(23) 0.31365(4) 0.0953 Uani
O4K O 0.11576(17) 0.54565(16) 0.31365(4) 0.0953 Uani
O5I O 0.35758(21) 0.80195(15) 0.30675(3) 0.0787 Uani
O5J O 0.44438(15) 0.64242(21) 0.30675(3) 0.0787 Uani
O5K O 0.19805(15) 0.55562(15) 0.30675(3) 0.0787 Uani
O11R O 0.18527(25) 0.68519(19) 0.49674(4) 0.0967 Uani
O11S O 0.31481(19) 0.50008(31) 0.49674(4) 0.0967 Uani
O11T O 0.49992(31) 0.81473(25) 0.49674(4) 0.0967 Uani
O11GA O 0.16675(31) 0.64814(19) 0.33659(4) 0.0967 Uani
O11HA O 0.48140(25) 0.83325(31) 0.33659(4) 0.0967 Uani
O11IA O 0.35186(19) 0.51860(25) 0.33659(4) 0.0967 Uani
O12R O 0.17933(28) 0.6748(2) 0.52869(4) 0.1054 Uani
O12S O 0.3252(2) 0.50453(34) 0.52869(4) 0.1054 Uani
O12T O 0.49547(34) 0.82067(28) 0.52869(4) 0.1054 Uani
O12GA O 0.17120(34) 0.6585(2) 0.30464(4) 0.1054 Uani
O12HA O 0.48734(28) 0.82880(34) 0.30464(4) 0.1054 Uani
O12IA O 0.3415(2) 0.51266(28) 0.30464(4) 0.1054 Uani
O13R O 0.16570(25) 0.59472(17) 0.49306(4) 0.0939 Uani
O13S O 0.40528(17) 0.57098(30) 0.49306(4) 0.0939 Uani
O13T O 0.42902(30) 0.83430(25) 0.49306(4) 0.0939 Uani
O13GA O 0.23765(30) 0.73861(17) 0.34027(4) 0.0939 Uani
O13HA O 0.50097(25) 0.76235(30) 0.34027(4) 0.0939 Uani
O13IA O 0.26139(17) 0.49903(25) 0.34027(4) 0.0939 Uani
O14R O 0.14047(25) 0.57944(18) 0.52510(4) 0.0952 Uani
O14S O 0.42056(18) 0.56103(31) 0.52510(4) 0.0952 Uani
O14T O 0.43897(31) 0.85953(25) 0.52510(4) 0.0952 Uani
O14GA O 0.22770(31) 0.75389(18) 0.30823(4) 0.0952 Uani
O14HA O 0.52620(25) 0.77230(31) 0.30823(4) 0.0952 Uani
O14IA O 0.24611(18) 0.47380(25) 0.30823(4) 0.0952 Uani
loop_
_atom_site_aniso_label
_atom_site_aniso_U_11
_atom_site_aniso_U_22
_atom_site_aniso_U_33
_atom_site_aniso_U_23
_atom_site_aniso_U_13
_atom_site_aniso_U_12
N1 0.141(19) 0.14(2) 0.14(2) -0.001(16) 0.00(2) 0.071(18)
C1 0.14(2) 0.14(3) 0.14(2) 0.00(2) 0.000(19) 0.07(2)
C2 0.142(17) 0.142(18) 0.142(18) -0.001(15) 0.001(14) 0.071(15)
C3 0.14(2) 0.14(2) 0.14(2) 0.000(17) 0.000(17) 0.071(17)
C4 0.093(4) 0.083(4) 0.064(3) 0.014(3) 0.012(3) 0.044(3)
C5 0.101(4) 0.077(3) 0.074(3) 0.020(3) 0.023(3) 0.048(3)
C6 0.123(5) 0.086(4) 0.107(4) 0.016(3) 0.046(4) 0.047(4)
C7 0.134(5) 0.083(4) 0.115(5) 0.020(4) 0.049(4) 0.053(4)
C8 0.118(5) 0.092(4) 0.089(4) 0.031(3) 0.042(3) 0.060(4)
C9 0.126(5) 0.094(4) 0.092(4) 0.020(3) 0.043(4) 0.060(4)
C10 0.117(5) 0.078(4) 0.085(4) 0.020(3) 0.030(3) 0.046(3)
C11 0.107(4) 0.100(4) 0.072(3) 0.032(3) 0.031(3) 0.062(4)
C12 0.087(3) 0.113(6) 0.062(4) 0.019(4) 0.009(2) 0.057(3)
C13 0.084(4) 0.083(4) 0.074(3) 0.003(3) -0.018(3) 0.038(3)
C14 0.093(4) 0.085(4) 0.067(3) 0.000(3) -0.017(3) 0.046(3)
C15 0.113(4) 0.091(4) 0.083(4) -0.003(3) -0.028(3) 0.062(3)
C16 0.132(5) 0.108(4) 0.076(3) -0.014(3) -0.022(3) 0.072(4)
C17 0.116(4) 0.117(5) 0.063(3) -0.003(3) -0.017(3) 0.081(4)
C18 0.112(4) 0.100(4) 0.074(3) 0.004(3) -0.015(3) 0.058(4)
C19 0.105(4) 0.086(4) 0.077(3) -0.002(3) -0.020(3) 0.043(3)
C20 0.114(4) 0.118(4) 0.062(3) 0.010(3) -0.004(3) 0.078(4)
C21 0.137(7) 0.136(7) 0.099(6) 0.004(5) 0.002(5) 0.044(6)
C22 0.127(6) 0.133(6) 0.092(5) -0.011(5) 0.003(4) 0.067(5)
C23 0.144(8) 0.145(8) 0.150(8) -0.002(7) 0.003(6) 0.061(7)
C24 0.166(9) 0.162(9) 0.184(10) -0.017(8) 0.006(8) 0.072(7)
C25 0.1849(14) 0.1849(14) 0.1845(13) -0.0006(5) 0.0000(5) 0.0924(8)
C26 0.186(10) 0.189(10) 0.133(8) 0.019(7) -0.003(7) 0.083(9)
C27 0.157(8) 0.158(8) 0.128(7) 0.017(6) -0.003(6) 0.073(6)
O1 0.1851(14) 0.1853(14) 0.1849(14) -0.0005(6) 0.0000(6) 0.0923(8)
O2 0.1852(16) 0.1856(16) 0.1852(16) -0.0002(7) 0.0004(7) 0.0926(9)
C28 0.1851(14) 0.1852(14) 0.1848(14) -0.0004(6) 0.0000(6) 0.0924(8)
C29 0.1851(13) 0.1851(13) 0.1850(14) -0.0002(4) 0.0002(4) 0.0925(8)
C30 0.1851(14) 0.1853(15) 0.1852(15) -0.0001(6) 0.0003(6) 0.0927(9)
C31 0.182(12) 0.207(16) 0.191(12) -0.004(12) 0.028(9) 0.076(12)
C32 0.193(11) 0.209(12) 0.183(10) -0.044(9) 0.050(9) 0.096(10)
C33 0.164(8) 0.181(9) 0.167(8) -0.033(7) 0.040(7) 0.080(7)
C34 0.119(6) 0.142(7) 0.115(5) -0.004(5) 0.025(5) 0.071(5)
C35 0.130(7) 0.166(9) 0.148(7) 0.024(6) 0.028(6) 0.066(7)
C36 0.161(10) 0.192(12) 0.186(12) 0.023(10) 0.033(9) 0.077(10)
C37 0.090(4) 0.121(6) 0.089(4) 0.007(4) 0.019(3) 0.056(4)
Co1 0.0677(4) 0.0671(4) 0.0528(4) -0.0016(3) 0.0079(3) 0.0345(3)
Co2 0.0680(4) 0.0731(4) 0.0601(4) -0.0078(3) -0.0063(3) 0.0404(3)
Co3 0.0909(5) 0.0909(5) 0.0416(5) 0.000 0.000 0.0455(3)
O3 0.128(3) 0.099(3) 0.096(3) 0.039(2) 0.056(2) 0.063(3)
O4 0.096(3) 0.103(3) 0.086(2) 0.007(2) 0.028(2) 0.049(2)
O5 0.090(2) 0.083(2) 0.0575(18) 0.0185(16) 0.0096(16) 0.039(2)
O6 0.114(3) 0.137(3) 0.060(2) -0.013(2) -0.006(2) 0.073(3)
O7 0.189(6) 0.174(6) 0.110(4) 0.006(4) -0.005(4) 0.001(5)
O8 0.0605(17) 0.0623(17) 0.0616(17) -0.0085(13) -0.0048(13) 0.0321(14)
O9 0.139(4) 0.140(5) 0.140(5) -0.001(4) 0.000(4) 0.070(4)
O10 0.147(4) 0.143(4) 0.073(2) -0.005(2) -0.018(2) 0.099(3)
O11 0.118 0.114 0.074 -0.014 -0.034 0.07
O12 0.106 0.107 0.095 -0.004 0.024 0.047
O13 0.093 0.086 0.087 0.011 -0.029 0.033
O14 0.093 0.092 0.107 0.017 0.03 0.051
C4O 0.088 0.083 0.064 0.014 0.002 0.039
C5O 0.082 0.077 0.074 0.02 -0.003 0.029
C6O 0.115 0.086 0.107 0.016 -0.03 0.039
C7O 0.111 0.083 0.115 0.02 -0.029 0.03
C8O 0.09 0.092 0.089 0.031 -0.011 0.032
C9O 0.1 0.094 0.092 0.02 -0.023 0.034
C10O 0.103 0.078 0.085 0.02 -0.01 0.032
C11O 0.083 0.1 0.072 0.032 0.001 0.038
C13O 0.091 0.083 0.074 0.003 0.021 0.045
C14O 0.086 0.085 0.067 0 0.017 0.039
C15O 0.08 0.091 0.083 -0.003 0.025 0.029
C16O 0.096 0.108 0.076 -0.014 0.008 0.036
C17O 0.071 0.117 0.063 -0.003 0.014 0.036
C18O 0.096 0.1 0.074 0.004 0.019 0.042
C19O 0.105 0.086 0.077 -0.002 0.018 0.043
C20O 0.076 0.118 0.062 0.01 0.014 0.04
O3O 0.101 0.099 0.096 0.039 -0.017 0.036
O4O 0.101 0.103 0.086 0.007 -0.021 0.054
O5O 0.095 0.083 0.0575 0.0185 0.0089 0.044
O10O 0.092 0.143 0.073 -0.005 0.013 0.044
O11O 0.092 0.114 0.074 -0.014 0.02 0.044
O13O 0.113 0.086 0.087 0.011 0.04 0.053
C21K 0.136 0.137 0.099 -0.002 -0.004 0.044
C22K 0.133 0.127 0.092 -0.003 0.011 0.067
C23K 0.145 0.144 0.15 -0.003 0.002 0.061
C24K 0.162 0.166 0.184 -0.006 0.017 0.072
C25K 0.1849 0.1849 0.1845 0 0.0006 0.0924
C26K 0.189 0.186 0.133 0.003 -0.019 0.083
C27K 0.158 0.157 0.128 0.003 -0.017 0.073
O1K 0.1853 0.1851 0.1849 0 0.0005 0.0923
O2K 0.1856 0.1852 0.1852 -0.0004 0.0002 0.0926
C28K 0.1852 0.1851 0.1848 0 0.0004 0.0924
C30K 0.1853 0.1851 0.1852 -0.0003 0.0001 0.0927
C31K 0.207 0.182 0.191 -0.028 0.004 0.076
C32K 0.209 0.193 0.183 -0.05 0.044 0.096
C33K 0.181 0.164 0.167 -0.04 0.033 0.08
C34K 0.142 0.119 0.115 -0.025 0.004 0.071
C35K 0.166 0.13 0.148 -0.028 -0.024 0.066
C36K 0.192 0.161 0.186 -0.033 -0.023 0.077
C37K 0.121 0.09 0.089 -0.019 -0.007 0.056
O6K 0.137 0.114 0.06 0.006 0.013 0.073
O7K 0.174 0.189 0.11 0.005 -0.006 0.001
O12K 0.107 0.106 0.095 -0.024 0.004 0.047
O14K 0.092 0.093 0.107 -0.03 -0.017 0.051
N1A 0.14 0.139 0.14 0.001 0.001 0.069
C1A 0.14 0.14 0.14 0 0 0.07
C2A 0.142 0.142 0.142 0.002 0.001 0.071
C3A 0.14 0.138 0.14 0 0 0.069
C4A 0.083 0.088 0.064 -0.002 -0.014 0.039
C5A 0.077 0.082 0.074 0.003 -0.02 0.029
C6A 0.086 0.115 0.107 0.03 -0.016 0.039
C7A 0.083 0.111 0.115 0.029 -0.02 0.03
C8A 0.092 0.09 0.089 0.011 -0.031 0.032
C9A 0.094 0.1 0.092 0.023 -0.02 0.034
C10A 0.078 0.103 0.085 0.01 -0.02 0.032
C11A 0.1 0.083 0.072 -0.001 -0.032 0.038
C12A 0.113 0.086 0.062 -0.01 -0.019 0.056
C13A 0.083 0.091 0.074 -0.021 -0.003 0.045
C14A 0.085 0.086 0.067 -0.017 0 0.039
C15A 0.091 0.08 0.083 -0.025 0.003 0.029
C16A 0.108 0.096 0.076 -0.008 0.014 0.036
C17A 0.117 0.071 0.063 -0.014 0.003 0.036
C18A 0.1 0.096 0.074 -0.019 -0.004 0.042
C19A 0.086 0.105 0.077 -0.018 0.002 0.043
C20A 0.118 0.076 0.062 -0.014 -0.01 0.04
C21A 0.136 0.185 0.099 -0.002 -0.004 0.092
C22A 0.133 0.126 0.092 0.014 0.011 0.066
C23A 0.145 0.167 0.15 0.005 0.002 0.084
C24A 0.162 0.184 0.184 0.023 0.017 0.09
C25A 0.1849 0.185 0.1845 0.0006 0.0006 0.0925
C26A 0.189 0.209 0.133 -0.022 -0.019 0.106
C27A 0.158 0.169 0.128 -0.02 -0.017 0.085
O1A 0.1853 0.1858 0.1849 0.0005 0.0005 0.093
O2A 0.1856 0.1856 0.1852 0.0006 0.0002 0.093
C28A 0.1852 0.1855 0.1848 0.0004 0.0004 0.0928
C29A 0.1851 0.1852 0.185 0.0004 0.0002 0.0926
C30A 0.1853 0.185 0.1852 0.0004 0.0001 0.0926
C31A 0.207 0.237 0.191 0.032 0.004 0.131
C32A 0.209 0.21 0.183 0.094 0.044 0.113
C33A 0.181 0.185 0.167 0.073 0.033 0.101
C34A 0.142 0.119 0.115 0.029 0.004 0.071
C35A 0.166 0.164 0.148 0.004 -0.024 0.1
C36A 0.192 0.199 0.186 0.01 -0.023 0.115
C37A 0.121 0.099 0.089 0.012 -0.007 0.065
Co1A 0.0671 0.0658 0.0528 0.0095 0.0016 0.0326
Co2A 0.0731 0.0603 0.0601 0.0015 0.0078 0.0327
O3A 0.099 0.101 0.096 0.017 -0.039 0.036
O4A 0.103 0.101 0.086 0.021 -0.007 0.054
O5A 0.083 0.095 0.0575 -0.0089 -0.0185 0.044
O6A 0.137 0.105 0.06 0.007 0.013 0.064
O7A 0.174 0.361 0.11 -0.011 -0.006 0.173
O8A 0.0623 0.0586 0.0616 0.0037 0.0085 0.0302
O9A 0.14 0.139 0.14 0.001 0.001 0.07
O10A 0.143 0.092 0.073 -0.013 0.005 0.044
O11A 0.114 0.092 0.074 -0.02 0.014 0.044
O12A 0.107 0.119 0.095 0.028 0.004 0.06
O13A 0.086 0.113 0.087 -0.04 -0.011 0.053
O14A 0.092 0.083 0.107 0.013 -0.017 0.041
C4Q 0.083 0.093 0.064 -0.012 -0.014 0.044
C5Q 0.077 0.101 0.074 -0.023 -0.02 0.048
C6Q 0.086 0.123 0.107 -0.046 -0.016 0.047
C7Q 0.083 0.134 0.115 -0.049 -0.02 0.053
C8Q 0.092 0.118 0.089 -0.042 -0.031 0.06
C9Q 0.094 0.126 0.092 -0.043 -0.02 0.06
C10Q 0.078 0.117 0.085 -0.03 -0.02 0.046
C11Q 0.1 0.107 0.072 -0.031 -0.032 0.062
C13Q 0.083 0.084 0.074 0.018 -0.003 0.038
C14Q 0.085 0.093 0.067 0.017 0 0.046
C15Q 0.091 0.113 0.083 0.028 0.003 0.062
C16Q 0.108 0.132 0.076 0.022 0.014 0.072
C17Q 0.117 0.116 0.063 0.017 0.003 0.081
C18Q 0.1 0.112 0.074 0.015 -0.004 0.058
C19Q 0.086 0.105 0.077 0.02 0.002 0.043
C20Q 0.118 0.114 0.062 0.004 -0.01 0.078
O3Q 0.099 0.128 0.096 -0.056 -0.039 0.063
O4Q 0.103 0.096 0.086 -0.028 -0.007 0.049
O5Q 0.083 0.09 0.0575 -0.0096 -0.0185 0.039
O10Q 0.143 0.147 0.073 0.018 0.005 0.099
O11Q 0.114 0.118 0.074 0.034 0.014 0.07
O13Q 0.086 0.093 0.087 0.029 -0.011 0.033
C21J 0.137 0.185 0.099 -0.002 0.002 0.093
C22J 0.127 0.126 0.092 0.014 0.003 0.06
C23J 0.144 0.167 0.15 0.005 0.003 0.083
C24J 0.166 0.184 0.184 0.023 0.006 0.094
C25J 0.1849 0.185 0.1845 0.0006 0 0.0925
C26J 0.186 0.209 0.133 -0.022 -0.003 0.103
C27J 0.157 0.169 0.128 -0.02 -0.003 0.084
O1J 0.1851 0.1858 0.1849 0.0005 0 0.0928
O2J 0.1852 0.1856 0.1852 0.0006 0.0004 0.0926
C28J 0.1851 0.1855 0.1848 0.0004 0 0.0927
C30J 0.1851 0.185 0.1852 0.0004 0.0003 0.0924
C31J 0.182 0.237 0.191 0.032 0.028 0.106
C32J 0.193 0.21 0.183 0.094 0.05 0.097
C33J 0.164 0.185 0.167 0.073 0.04 0.084
C34J 0.119 0.119 0.115 0.029 0.025 0.048
C35J 0.13 0.164 0.148 0.004 0.028 0.064
C36J 0.161 0.199 0.186 0.01 0.033 0.084
C37J 0.09 0.099 0.089 0.012 0.019 0.034
O6J 0.114 0.105 0.06 0.007 -0.006 0.041
O7J 0.189 0.361 0.11 -0.011 -0.005 0.188
O12J 0.106 0.119 0.095 0.028 0.024 0.059
O14J 0.093 0.083 0.107 0.013 0.03 0.042
N1B 0.139 0.141 0.14 0 -0.001 0.07
C1B 0.14 0.14 0.14 0 0 0.07
C2B 0.142 0.142 0.142 -0.001 -0.002 0.071
C3B 0.138 0.14 0.14 0 0 0.069
C4B 0.088 0.093 0.064 -0.012 0.002 0.049
C5B 0.082 0.101 0.074 -0.023 -0.003 0.053
C6B 0.115 0.123 0.107 -0.046 -0.03 0.076
C7B 0.111 0.134 0.115 -0.049 -0.029 0.081
C8B 0.09 0.118 0.089 -0.042 -0.011 0.058
C9B 0.1 0.126 0.092 -0.043 -0.023 0.066
C10B 0.103 0.117 0.085 -0.03 -0.01 0.071
C11B 0.083 0.107 0.072 -0.031 0.001 0.045
C12B 0.086 0.087 0.062 -0.009 0.01 0.03
C13B 0.091 0.084 0.074 0.018 0.021 0.046
C14B 0.086 0.093 0.067 0.017 0.017 0.047
C15B 0.08 0.113 0.083 0.028 0.025 0.051
C16B 0.096 0.132 0.076 0.022 0.008 0.06
C17B 0.071 0.116 0.063 0.017 0.014 0.035
C18B 0.096 0.112 0.074 0.015 0.019 0.054
C19B 0.105 0.105 0.077 0.02 0.018 0.062
C20B 0.076 0.114 0.062 0.004 0.014 0.036
C21B 0.185 0.137 0.099 -0.002 0.002 0.093
C22B 0.126 0.127 0.092 -0.003 -0.014 0.06
C23B 0.167 0.144 0.15 -0.003 -0.005 0.083
C24B 0.184 0.166 0.184 -0.006 -0.023 0.094
C25B 0.185 0.1849 0.1845 0 -0.0006 0.0925
C26B 0.209 0.186 0.133 0.003 0.022 0.103
C27B 0.169 0.157 0.128 0.003 0.02 0.084
O1B 0.1858 0.1851 0.1849 0 -0.0005 0.0928
O2B 0.1856 0.1852 0.1852 -0.0004 -0.0006 0.0926
C28B 0.1855 0.1851 0.1848 0 -0.0004 0.0927
C29B 0.1852 0.1851 0.185 -0.0002 -0.0004 0.0926
C30B 0.185 0.1851 0.1852 -0.0003 -0.0004 0.0924
C31B 0.237 0.182 0.191 -0.028 -0.032 0.106
C32B 0.21 0.193 0.183 -0.05 -0.094 0.097
C33B 0.185 0.164 0.167 -0.04 -0.073 0.084
C34B 0.119 0.119 0.115 -0.025 -0.029 0.048
C35B 0.164 0.13 0.148 -0.028 -0.004 0.064
C36B 0.199 0.161 0.186 -0.033 -0.01 0.084
C37B 0.099 0.09 0.089 -0.019 -0.012 0.034
Co1B 0.0658 0.0677 0.0528 -0.0079 -0.0095 0.0332
Co2B 0.0603 0.068 0.0601 0.0063 -0.0015 0.0276
O3B 0.101 0.128 0.096 -0.056 -0.017 0.065
O4B 0.101 0.096 0.086 -0.028 -0.021 0.047
O5B 0.095 0.09 0.0575 -0.0096 0.0089 0.051
O6B 0.105 0.114 0.06 0.006 -0.007 0.041
O7B 0.361 0.189 0.11 0.005 0.011 0.188
O8B 0.0586 0.0605 0.0616 0.0048 -0.0037 0.0284
O9B 0.139 0.139 0.14 0 -0.001 0.069
O10B 0.092 0.147 0.073 0.018 0.013 0.048
O11B 0.092 0.118 0.074 0.034 0.02 0.048
O12B 0.119 0.106 0.095 -0.024 -0.028 0.059
O13B 0.113 0.093 0.087 0.029 0.04 0.06
O14B 0.083 0.093 0.107 -0.03 -0.013 0.042
C4P 0.093 0.088 0.064 -0.002 0.012 0.049
C5P 0.101 0.082 0.074 0.003 0.023 0.053
C6P 0.123 0.115 0.107 0.03 0.046 0.076
C7P 0.134 0.111 0.115 0.029 0.049 0.081
C8P 0.118 0.09 0.089 0.011 0.042 0.058
C9P 0.126 0.1 0.092 0.023 0.043 0.066
C10P 0.117 0.103 0.085 0.01 0.03 0.071
C11P 0.107 0.083 0.072 -0.001 0.031 0.045
C13P 0.084 0.091 0.074 -0.021 -0.018 0.046
C14P 0.093 0.086 0.067 -0.017 -0.017 0.047
C15P 0.113 0.08 0.083 -0.025 -0.028 0.051
C16P 0.132 0.096 0.076 -0.008 -0.022 0.06
C17P 0.116 0.071 0.063 -0.014 -0.017 0.035
C18P 0.112 0.096 0.074 -0.019 -0.015 0.054
C19P 0.105 0.105 0.077 -0.018 -0.02 0.062
C20P 0.114 0.076 0.062 -0.014 -0.004 0.036
O3P 0.128 0.101 0.096 0.017 0.056 0.065
O4P 0.096 0.101 0.086 0.021 0.028 0.047
O5P 0.09 0.095 0.0575 -0.0089 0.0096 0.051
O10P 0.147 0.092 0.073 -0.013 -0.018 0.048
O11P 0.118 0.092 0.074 -0.02 -0.034 0.048
O13P 0.093 0.113 0.087 -0.04 -0.029 0.06
C21I 0.185 0.136 0.099 0.004 0.002 0.092
C22I 0.126 0.133 0.092 -0.011 -0.014 0.066
C23I 0.167 0.145 0.15 -0.002 -0.005 0.084
C24I 0.184 0.162 0.184 -0.017 -0.023 0.09
C25I 0.185 0.1849 0.1845 -0.0006 -0.0006 0.0925
C26I 0.209 0.189 0.133 0.019 0.022 0.106
C27I 0.169 0.158 0.128 0.017 0.02 0.085
O1I 0.1858 0.1853 0.1849 -0.0005 -0.0005 0.093
O2I 0.1856 0.1856 0.1852 -0.0002 -0.0006 0.093
C28I 0.1855 0.1852 0.1848 -0.0004 -0.0004 0.0928
C30I 0.185 0.1853 0.1852 -0.0001 -0.0004 0.0926
C31I 0.237 0.207 0.191 -0.004 -0.032 0.131
C32I 0.21 0.209 0.183 -0.044 -0.094 0.113
C33I 0.185 0.181 0.167 -0.033 -0.073 0.101
C34I 0.119 0.142 0.115 -0.004 -0.029 0.071
C35I 0.164 0.166 0.148 0.024 -0.004 0.1
C36I 0.199 0.192 0.186 0.023 -0.01 0.115
C37I 0.099 0.121 0.089 0.007 -0.012 0.065
O6I 0.105 0.137 0.06 -0.013 -0.007 0.064
O7I 0.361 0.174 0.11 0.006 0.011 0.173
O12I 0.119 0.107 0.095 -0.004 -0.028 0.06
O14I 0.083 0.092 0.107 0.017 -0.013 0.041
N1I 0.139 0.14 0.14 -0.001 -0.001 0.069
C1I 0.14 0.14 0.14 0 0 0.07
C2I 0.142 0.142 0.142 -0.001 -0.002 0.071
C3I 0.138 0.14 0.14 0 0 0.069
Co1I 0.0658 0.0671 0.0528 -0.0016 -0.0095 0.0326
Co2I 0.0603 0.0731 0.0601 -0.0078 -0.0015 0.0327
Co3I 0.0908 0.0909 0.0416 0 0 0.0454
O8I 0.0586 0.0623 0.0616 -0.0085 -0.0037 0.0302
O9I 0.139 0.14 0.14 -0.001 -0.001 0.07
N1J 0.141 0.139 0.14 0.001 0 0.07
C1J 0.14 0.14 0.14 0 0 0.07
C2J 0.142 0.142 0.142 0.002 0.001 0.071
C3J 0.14 0.138 0.14 0 0 0.069
Co1J 0.0677 0.0658 0.0528 0.0095 0.0079 0.0332
Co2J 0.068 0.0603 0.0601 0.0015 -0.0063 0.0276
O8J 0.0605 0.0586 0.0616 0.0037 -0.0048 0.0284
O9J 0.139 0.139 0.14 0.001 0 0.069
N1K 0.14 0.141 0.14 0 0.001 0.071
C1K 0.14 0.14 0.14 0 0 0.07
C2K 0.142 0.142 0.142 -0.001 0.001 0.071
C3K 0.14 0.14 0.14 0 0 0.071
Co1K 0.0671 0.0677 0.0528 -0.0079 0.0016 0.0345
Co2K 0.0731 0.068 0.0601 0.0063 0.0078 0.0404
O8K 0.0623 0.0605 0.0616 0.0048 0.0085 0.0321
O9K 0.14 0.139 0.14 0 0.001 0.07
Co1O 0.0658 0.0671 0.0528 -0.0016 -0.0095 0.0326
Co1P 0.0677 0.0658 0.0528 0.0095 0.0079 0.0332
Co1Q 0.0671 0.0677 0.0528 -0.0079 0.0016 0.0345
Co1R 0.0677 0.0671 0.0528 -0.0016 0.0079 0.0345
Co1S 0.0671 0.0658 0.0528 0.0095 0.0016 0.0326
Co1T 0.0658 0.0677 0.0528 -0.0079 -0.0095 0.0332
Co1GA 0.0658 0.0671 0.0528 -0.0016 -0.0095 0.0326
Co1HA 0.0677 0.0658 0.0528 0.0095 0.0079 0.0332
Co1IA 0.0671 0.0677 0.0528 -0.0079 0.0016 0.0345
Co1AA 0.0658 0.0671 0.0528 -0.0016 -0.0095 0.0326
Co1BA 0.0677 0.0658 0.0528 0.0095 0.0079 0.0332
Co1CA 0.0671 0.0677 0.0528 -0.0079 0.0016 0.0345
Co2O 0.0603 0.0731 0.0601 -0.0078 -0.0015 0.0327
Co2P 0.068 0.0603 0.0601 0.0015 -0.0063 0.0276
Co2Q 0.0731 0.068 0.0601 0.0063 0.0078 0.0404
Co2R 0.068 0.0731 0.0601 -0.0078 -0.0063 0.0404
Co2S 0.0731 0.0603 0.0601 0.0015 0.0078 0.0327
Co2T 0.0603 0.068 0.0601 0.0063 -0.0015 0.0276
Co2GA 0.0603 0.0731 0.0601 -0.0078 -0.0015 0.0327
Co2HA 0.068 0.0603 0.0601 0.0015 -0.0063 0.0276
Co2IA 0.0731 0.068 0.0601 0.0063 0.0078 0.0404
Co2AA 0.0603 0.0731 0.0601 -0.0078 -0.0015 0.0327
Co2BA 0.068 0.0603 0.0601 0.0015 -0.0063 0.0276
Co2CA 0.0731 0.068 0.0601 0.0063 0.0078 0.0404
O4I 0.101 0.103 0.086 0.007 -0.021 0.054
O4J 0.096 0.101 0.086 0.021 0.028 0.047
O4K 0.103 0.096 0.086 -0.028 -0.007 0.049
O5I 0.095 0.083 0.0575 0.0185 0.0089 0.044
O5J 0.09 0.095 0.0575 -0.0089 0.0096 0.051
O5K 0.083 0.09 0.0575 -0.0096 -0.0185 0.039
O11R 0.118 0.114 0.074 -0.014 -0.034 0.07
O11S 0.114 0.092 0.074 -0.02 0.014 0.044
O11T 0.092 0.118 0.074 0.034 0.02 0.048
O11GA 0.092 0.114 0.074 -0.014 0.02 0.044
O11HA 0.118 0.092 0.074 -0.02 -0.034 0.048
O11IA 0.114 0.118 0.074 0.034 0.014 0.07
O12R 0.106 0.107 0.095 -0.004 0.024 0.047
O12S 0.107 0.119 0.095 0.028 0.004 0.06
O12T 0.119 0.106 0.095 -0.024 -0.028 0.059
O12GA 0.119 0.107 0.095 -0.004 -0.028 0.06
O12HA 0.106 0.119 0.095 0.028 0.024 0.059
O12IA 0.107 0.106 0.095 -0.024 0.004 0.047
O13R 0.093 0.086 0.087 0.011 -0.029 0.033
O13S 0.086 0.113 0.087 -0.04 -0.011 0.053
O13T 0.113 0.093 0.087 0.029 0.04 0.06
O13GA 0.113 0.086 0.087 0.011 0.04 0.053
O13HA 0.093 0.113 0.087 -0.04 -0.029 0.06
O13IA 0.086 0.093 0.087 0.029 -0.011 0.033
O14R 0.093 0.092 0.107 0.017 0.03 0.051
O14S 0.092 0.083 0.107 0.013 -0.017 0.041
O14T 0.083 0.093 0.107 -0.03 -0.013 0.042
O14GA 0.083 0.092 0.107 0.017 -0.013 0.041
O14HA 0.093 0.083 0.107 0.013 0.03 0.042
O14IA 0.092 0.093 0.107 -0.03 -0.017 0.051
loop_
_geom_bond_atom_site_label_1
_geom_bond_atom_site_label_2
_geom_bond_site_symmetry_1
_geom_bond_site_symmetry_2
N1 C1 1_555 1_555
C1 H1 1_555 1_555
C2 N1 1_555 1_555
H2 C2 1_555 1_555
H3 C2 1_555 1_555
H4 C2 1_555 1_555
C3 N1 1_555 1_555
H5 C3 1_555 1_555
H6 C3 1_555 1_555
H7 C3 1_555 1_555
C4 C5 1_555 1_555
C5 C6 1_555 1_555
C6 H8 1_555 1_555
C7 C6 1_555 1_555
H9 C7 1_555 1_555
C8 C7 1_555 1_555
C9 C8 1_555 1_555
H10 C9 1_555 1_555
C10 C5 1_555 1_555
H11 C10 1_555 1_555
C11 H12 1_555 1_555
H13 C11 1_555 1_555
C12 C11 1_555 1_555
C13 C14 1_555 1_555
C14 C15 1_555 1_555
C15 H14 1_555 1_555
C16 C15 1_555 1_555
H15 C16 1_555 1_555
C17 C16 1_555 1_555
C18 C17 1_555 1_555
H16 C18 1_555 1_555
C19 C14 1_555 1_555
H17 C19 1_555 1_555
C20 C12 1_555 1_555
H18 C20 1_555 1_555
H19 C20 1_555 1_555
C21 C22 1_555 1_555
C22 C23 1_555 1_555
C23 H20 1_555 1_555
C24 C23 1_555 1_555
H21 C24 1_555 1_555
C25 C24 1_555 1_555
C26 C25 1_555 1_555
H22 C26 1_555 1_555
C27 C22 1_555 1_555
H23 C27 1_555 1_555
O1 C25 1_555 1_555
O2 C30 1_555 1_555
C28 O1 1_555 1_555
H24 C28 1_555 1_555
H25 C28 1_555 1_555
C29 C28 1_555 1_555
C30 C29 1_555 1_555
H26 C30 1_555 1_555
H27 C30 1_555 1_555
C31 O2 1_555 1_555
C32 C31 1_555 1_555
H28 C32 1_555 1_555
C33 C32 1_555 1_555
H29 C33 1_555 1_555
C34 C33 1_555 1_555
C35 C34 1_555 1_555
H30 C35 1_555 1_555
C36 C31 1_555 1_555
H31 C36 1_555 1_555
C37 C34 1_555 1_555
Co1 O4 1_555 1_555
Co2 O8 1_555 1_555
Co3 O7 1_555 1_555
O3 C8 1_555 1_555
O4 C4 1_555 1_555
O5 C4 1_555 1_555
O6 C21 1_555 1_555
O7 C21 1_555 1_555
O8 Co1 1_555 1_555
O9 C1 1_555 1_555
O10 C17 1_555 1_555
O11 C13 1_555 1_555
O12 C37 1_555 1_555
O13 C13 1_555 1_555
O14 C37 1_555 1_555
C4O C5O 1_555 1_555
C5O C6O 1_555 1_555
C6O H8O 1_555 1_555
C7O C6O 1_555 1_555
H9O C7O 1_555 1_555
C8O C7O 1_555 1_555
C9O C8O 1_555 1_555
H10O C9O 1_555 1_555
C10O C5O 1_555 1_555
H11O C10O 1_555 1_555
C11O C12 1_555 1_555
H12O C11O 1_555 1_555
H13O C11O 1_555 1_555
C13O C14O 1_555 1_555
C14O C15O 1_555 1_555
C15O H14O 1_555 1_555
C16O C15O 1_555 1_555
H15O C16O 1_555 1_555
C17O C16O 1_555 1_555
C18O C17O 1_555 1_555
H16O C18O 1_555 1_555
C19O C14O 1_555 1_555
H17O C19O 1_555 1_555
C20O C12 1_555 1_555
H18O C20O 1_555 1_555
H19O C20O 1_555 1_555
O3O C8O 1_555 1_555
O4O C4O 1_555 1_555
O5O C4O 1_555 1_555
O10O C17O 1_555 1_555
O11O C13O 1_555 1_555
O13O C13O 1_555 1_555
C21K C22K 1_555 1_555
C22K C23K 1_555 1_555
C23K H20K 1_555 1_555
C24K C23K 1_555 1_555
H21K C24K 1_555 1_555
C25K C24K 1_555 1_555
C26K C25K 1_555 1_555
H22K C26K 1_555 1_555
C27K C22K 1_555 1_555
H23K C27K 1_555 1_555
O1K C25K 1_555 1_555
O2K C30K 1_555 1_555
C28K C29 1_555 1_555
H24K C28K 1_555 1_555
H25K C28K 1_555 1_555
C30K C29 1_555 1_555
H26K C30K 1_555 1_555
H27K C30K 1_555 1_555
C31K O2K 1_555 1_555
C32K C31K 1_555 1_555
H28K C32K 1_555 1_555
C33K C32K 1_555 1_555
H29K C33K 1_555 1_555
C34K C33K 1_555 1_555
C35K C34K 1_555 1_555
H30K C35K 1_555 1_555
C36K C31K 1_555 1_555
H31K C36K 1_555 1_555
C37K C34K 1_555 1_555
O6K C21K 1_555 1_555
O7K C21K 1_555 1_555
O12K C37K 1_555 1_555
O14K C37K 1_555 1_555
N1A C1A 1_555 1_555
C1A H1A 1_555 1_555
C2A N1A 1_555 1_555
H2A C2A 1_555 1_555
H3A C2A 1_555 1_555
H4A C2A 1_555 1_555
C3A N1A 1_555 1_555
H5A C3A 1_555 1_555
H6A C3A 1_555 1_555
H7A C3A 1_555 1_555
C4A C5A 1_555 1_555
C5A C6A 1_555 1_555
C6A H8A 1_555 1_555
C7A C6A 1_555 1_555
H9A C7A 1_555 1_555
C8A C7A 1_555 1_555
C9A C8A 1_555 1_555
H10A C9A 1_555 1_555
C10A C5A 1_555 1_555
H11A C10A 1_555 1_555
C11A H12A 1_555 1_555
H13A C11A 1_555 1_555
C12A C11A 1_555 1_555
C13A C14A 1_555 1_555
C14A C15A 1_555 1_555
C15A H14A 1_555 1_555
C16A C15A 1_555 1_555
H15A C16A 1_555 1_555
C17A C16A 1_555 1_555
C18A C17A 1_555 1_555
H16A C18A 1_555 1_555
C19A C14A 1_555 1_555
H17A C19A 1_555 1_555
C20A C12A 1_555 1_555
H18A C20A 1_555 1_555
H19A C20A 1_555 1_555
C21A C22A 1_555 1_555
C22A C23A 1_555 1_555
C23A H20A 1_555 1_555
C24A C23A 1_555 1_555
H21A C24A 1_555 1_555
C25A C24A 1_555 1_555
C26A C25A 1_555 1_555
H22A C26A 1_555 1_555
C27A C22A 1_555 1_555
H23A C27A 1_555 1_555
O1A C25A 1_555 1_555
O2A C30A 1_555 1_555
C28A O1A 1_555 1_555
H24A C28A 1_555 1_555
H25A C28A 1_555 1_555
C29A C28A 1_555 1_555
C30A C29A 1_555 1_555
H26A C30A 1_555 1_555
H27A C30A 1_555 1_555
C31A O2A 1_555 1_555
C32A C31A 1_555 1_555
H28A C32A 1_555 1_555
C33A C32A 1_555 1_555
H29A C33A 1_555 1_555
C34A C33A 1_555 1_555
C35A C34A 1_555 1_555
H30A C35A 1_555 1_555
C36A C31A 1_555 1_555
H31A C36A 1_555 1_555
C37A C34A 1_555 1_555
Co1A O4A 1_555 1_555
Co2A O8A 1_555 1_555
O3A C8A 1_555 1_555
O4A C4A 1_555 1_555
O5A Co2 1_555 1_555
O6A Co2 1_555 1_555
O7A Co3 1_555 1_555
O8A Co3 1_555 1_555
O9A C1A 1_555 1_555
O10A C17A 1_555 1_555
O11A C13A 1_555 1_555
O12A C37A 1_555 1_555
O13A C13A 1_555 1_555
O14A C37A 1_555 1_555
C4Q C5Q 1_555 1_555
C5Q C6Q 1_555 1_555
C6Q H8Q 1_555 1_555
C7Q C6Q 1_555 1_555
H9Q C7Q 1_555 1_555
C8Q C7Q 1_555 1_555
C9Q C8Q 1_555 1_555
H10Q C9Q 1_555 1_555
C10Q C5Q 1_555 1_555
H11Q C10Q 1_555 1_555
C11Q C12A 1_555 1_555
H12Q C11Q 1_555 1_555
H13Q C11Q 1_555 1_555
C13Q C14Q 1_555 1_555
C14Q C15Q 1_555 1_555
C15Q H14Q 1_555 1_555
C16Q C15Q 1_555 1_555
H15Q C16Q 1_555 1_555
C17Q C16Q 1_555 1_555
C18Q C17Q 1_555 1_555
H16Q C18Q 1_555 1_555
C19Q C14Q 1_555 1_555
H17Q C19Q 1_555 1_555
C20Q C12A 1_555 1_555
H18Q C20Q 1_555 1_555
H19Q C20Q 1_555 1_555
O3Q C8Q 1_555 1_555
O4Q C4Q 1_555 1_555
O5Q C4Q 1_555 1_555
O10Q C17Q 1_555 1_555
O11Q C13Q 1_555 1_555
O13Q C13Q 1_555 1_555
C21J C22J 1_555 1_555
C22J C23J 1_555 1_555
C23J H20J 1_555 1_555
C24J C23J 1_555 1_555
H21J C24J 1_555 1_555
C25J C24J 1_555 1_555
C26J C25J 1_555 1_555
H22J C26J 1_555 1_555
C27J C22J 1_555 1_555
H23J C27J 1_555 1_555
O1J C25J 1_555 1_555
O2J C30J 1_555 1_555
C28J C29A 1_555 1_555
H24J C28J 1_555 1_555
H25J C28J 1_555 1_555
C30J C29A 1_555 1_555
H26J C30J 1_555 1_555
H27J C30J 1_555 1_555
C31J O2J 1_555 1_555
C32J C31J 1_555 1_555
H28J C32J 1_555 1_555
C33J C32J 1_555 1_555
H29J C33J 1_555 1_555
C34J C33J 1_555 1_555
C35J C34J 1_555 1_555
H30J C35J 1_555 1_555
C36J C31J 1_555 1_555
H31J C36J 1_555 1_555
C37J C34J 1_555 1_555
O6J C21J 1_555 1_555
O7J C21J 1_555 1_555
O12J C37J 1_555 1_555
O14J C37J 1_555 1_555
N1B C1B 1_555 1_555
C1B H1B 1_555 1_555
C2B N1B 1_555 1_555
H2B C2B 1_555 1_555
H3B C2B 1_555 1_555
H4B C2B 1_555 1_555
C3B N1B 1_555 1_555
H5B C3B 1_555 1_555
H6B C3B 1_555 1_555
H7B C3B 1_555 1_555
C4B C5B 1_555 1_555
C5B C6B 1_555 1_555
C6B H8B 1_555 1_555
C7B C6B 1_555 1_555
H9B C7B 1_555 1_555
C8B C7B 1_555 1_555
C9B C8B 1_555 1_555
H10B C9B 1_555 1_555
C10B C5B 1_555 1_555
H11B C10B 1_555 1_555
C11B H12B 1_555 1_555
H13B C11B 1_555 1_555
C12B C11B 1_555 1_555
C13B C14B 1_555 1_555
C14B C15B 1_555 1_555
C15B H14B 1_555 1_555
C16B C15B 1_555 1_555
H15B C16B 1_555 1_555
C17B C16B 1_555 1_555
C18B C17B 1_555 1_555
H16B C18B 1_555 1_555
C19B C14B 1_555 1_555
H17B C19B 1_555 1_555
C20B C12B 1_555 1_555
H18B C20B 1_555 1_555
H19B C20B 1_555 1_555
C21B C22B 1_555 1_555
C22B C23B 1_555 1_555
C23B H20B 1_555 1_555
C24B C23B 1_555 1_555
H21B C24B 1_555 1_555
C25B C24B 1_555 1_555
C26B C25B 1_555 1_555
H22B C26B 1_555 1_555
C27B C22B 1_555 1_555
H23B C27B 1_555 1_555
O1B C25B 1_555 1_555
O2B C30B 1_555 1_555
C28B O1B 1_555 1_555
H24B C28B 1_555 1_555
H25B C28B 1_555 1_555
C29B C28B 1_555 1_555
C30B C29B 1_555 1_555
H26B C30B 1_555 1_555
H27B C30B 1_555 1_555
C31B O2B 1_555 1_555
C32B C31B 1_555 1_555
H28B C32B 1_555 1_555
C33B C32B 1_555 1_555
H29B C33B 1_555 1_555
C34B C33B 1_555 1_555
C35B C34B 1_555 1_555
H30B C35B 1_555 1_555
C36B C31B 1_555 1_555
H31B C36B 1_555 1_555
C37B C34B 1_555 1_555
Co1B O4B 1_555 1_555
Co2B O5 1_555 1_555
O3B C8B 1_555 1_555
O4B C4B 1_555 1_555
O5B Co2A 1_555 1_555
O6B Co2A 1_555 1_555
O7B Co3 1_555 1_555
O8B Co3 1_555 1_555
O9B C1B 1_555 1_555
O10B C17B 1_555 1_555
O11B C13B 1_555 1_555
O12B C37B 1_555 1_555
O13B C13B 1_555 1_555
O14B C37B 1_555 1_555
C4P C5P 1_555 1_555
C5P C6P 1_555 1_555
C6P H8P 1_555 1_555
C7P C6P 1_555 1_555
H9P C7P 1_555 1_555
C8P C7P 1_555 1_555
C9P C8P 1_555 1_555
H10P C9P 1_555 1_555
C10P C5P 1_555 1_555
H11P C10P 1_555 1_555
C11P C12B 1_555 1_555
H12P C11P 1_555 1_555
H13P C11P 1_555 1_555
C13P C14P 1_555 1_555
C14P C15P 1_555 1_555
C15P H14P 1_555 1_555
C16P C15P 1_555 1_555
H15P C16P 1_555 1_555
C17P C16P 1_555 1_555
C18P C17P 1_555 1_555
H16P C18P 1_555 1_555
C19P C14P 1_555 1_555
H17P C19P 1_555 1_555
C20P C12B 1_555 1_555
H18P C20P 1_555 1_555
H19P C20P 1_555 1_555
O3P C8P 1_555 1_555
O4P C4P 1_555 1_555
O5P C4P 1_555 1_555
O10P C17P 1_555 1_555
O11P C13P 1_555 1_555
O13P C13P 1_555 1_555
C21I C22I 1_555 1_555
C22I C23I 1_555 1_555
C23I H20I 1_555 1_555
C24I C23I 1_555 1_555
H21I C24I 1_555 1_555
C25I C24I 1_555 1_555
C26I C25I 1_555 1_555
H22I C26I 1_555 1_555
C27I C22I 1_555 1_555
H23I C27I 1_555 1_555
O1I C25I 1_555 1_555
O2I C30I 1_555 1_555
C28I C29B 1_555 1_555
H24I C28I 1_555 1_555
H25I C28I 1_555 1_555
C30I C29B 1_555 1_555
H26I C30I 1_555 1_555
H27I C30I 1_555 1_555
C31I O2I 1_555 1_555
C32I C31I 1_555 1_555
H28I C32I 1_555 1_555
C33I C32I 1_555 1_555
H29I C33I 1_555 1_555
C34I C33I 1_555 1_555
C35I C34I 1_555 1_555
H30I C35I 1_555 1_555
C36I C31I 1_555 1_555
H31I C36I 1_555 1_555
C37I C34I 1_555 1_555
O6I C21I 1_555 1_555
O7I C21I 1_555 1_555
O12I C37I 1_555 1_555
O14I C37I 1_555 1_555
N1I C1I 1_555 1_555
C1I H1I 1_555 1_555
C2I N1I 1_555 1_555
H2I C2I 1_555 1_555
H3I C2I 1_555 1_555
H4I C2I 1_555 1_555
C3I N1I 1_555 1_555
H5I C3I 1_555 1_555
H6I C3I 1_555 1_555
H7I C3I 1_555 1_555
Co1I O6I 1_555 1_555
Co2I O6J 1_555 1_555
Co3I O7K 1_555 1_555
O8I Co1I 1_555 1_555
O9I C1I 1_555 1_555
N1J C1J 1_555 1_555
C1J H1J 1_555 1_555
C2J N1J 1_555 1_555
H2J C2J 1_555 1_555
H3J C2J 1_555 1_555
H4J C2J 1_555 1_555
C3J N1J 1_555 1_555
H5J C3J 1_555 1_555
H6J C3J 1_555 1_555
H7J C3J 1_555 1_555
Co1J O6J 1_555 1_555
Co2J O6K 1_555 1_555
O8J Co3I 1_555 1_555
O9J C1J 1_555 1_555
N1K C1K 1_555 1_555
C1K H1K 1_555 1_555
C2K N1K 1_555 1_555
H2K C2K 1_555 1_555
H3K C2K 1_555 1_555
H4K C2K 1_555 1_555
C3K N1K 1_555 1_555
H5K C3K 1_555 1_555
H6K C3K 1_555 1_555
H7K C3K 1_555 1_555
Co1K O6K 1_555 1_555
Co2K O6I 1_555 1_555
O8K Co3I 1_555 1_555
O9K C1K 1_555 1_555
Co1O O4O 1_555 1_555
Co1P O4P 1_555 1_555
Co1Q O4Q 1_555 1_555
Co1R O11A 1_555 1_555
Co1S O11B 1_555 1_555
Co1T O11 1_555 1_555
Co1GA O12J 1_555 1_555
Co1HA O12K 1_555 1_555
Co1IA O12I 1_555 1_555
Co1AA O11P 1_555 1_555
Co1BA O11Q 1_555 1_555
Co1CA O11O 1_555 1_555
Co2O O5P 1_555 1_555
Co2P O5Q 1_555 1_555
Co2Q O5O 1_555 1_555
Co2R O13A 1_555 1_555
Co2S O13B 1_555 1_555
Co2T O13 1_555 1_555
Co2GA O14J 1_555 1_555
Co2HA O14K 1_555 1_555
Co2IA O14I 1_555 1_555
Co2AA O13P 1_555 1_555
Co2BA O13Q 1_555 1_555
Co2CA O13O 1_555 1_555
O4I Co1I 1_555 1_555
O4J Co1J 1_555 1_555
O4K Co1K 1_555 1_555
O5I Co1I 1_555 1_555
O5J Co2I 1_555 1_555
O5K Co2J 1_555 1_555
O11R Co1B 1_555 1_555
O11S Co1 1_555 1_555
O11T Co1A 1_555 1_555
O11GA Co1K 1_555 1_555
O11HA Co1I 1_555 1_555
O11IA Co1J 1_555 1_555
O12R Co1B 1_555 1_555
O12S Co1 1_555 1_555
O12T Co1A 1_555 1_555
O12GA Co1K 1_555 1_555
O12HA Co1I 1_555 1_555
O12IA Co1J 1_555 1_555
O13R Co2B 1_555 1_555
O13S Co2 1_555 1_555
O13T Co2A 1_555 1_555
O13GA Co2K 1_555 1_555
O13HA Co2I 1_555 1_555
O13IA Co2J 1_555 1_555
O14R Co2B 1_555 1_555
O14S Co2 1_555 1_555
O14T Co2A 1_555 1_555
O14GA Co2K 1_555 1_555
O14HA Co2I 1_555 1_555
O14IA Co2J 1_555 1_555
C9 C10 1_555 1_555
C11 O3 1_555 1_555
C18 C19 1_555 1_555
C20 O10 1_555 1_555
C26 C27 1_555 1_555
C35 C36 1_555 1_555
Co1 O5 1_555 1_555
Co1 O6 1_555 1_555
Co2 O9 1_555 1_555
Co3 O8 1_555 1_555
O6 Co2B 1_555 1_555
O12 Co1T 1_555 1_555
O14 Co2T 1_555 1_555
C9O C10O 1_555 1_555
C11O O3O 1_555 1_555
C18O C19O 1_555 1_555
C20O O10O 1_555 1_555
O5O Co1O 1_555 1_555
C26K C27K 1_555 1_555
O1K C28K 1_555 1_555
C35K C36K 1_555 1_555
C4A O5A 1_555 1_555
C9A C10A 1_555 1_555
C11A O3A 1_555 1_555
C18A C19A 1_555 1_555
C20A O10A 1_555 1_555
C21A O6A 1_555 1_555
C21A O7A 1_555 1_555
C26A C27A 1_555 1_555
C35A C36A 1_555 1_555
Co1A O5A 1_555 1_555
Co1A O6A 1_555 1_555
Co1A O8A 1_555 1_555
Co2A O9A 1_555 1_555
O12A Co1R 1_555 1_555
O14A Co2R 1_555 1_555
C9Q C10Q 1_555 1_555
C11Q O3Q 1_555 1_555
C18Q C19Q 1_555 1_555
C20Q O10Q 1_555 1_555
O5Q Co1Q 1_555 1_555
C26J C27J 1_555 1_555
O1J C28J 1_555 1_555
C35J C36J 1_555 1_555
O7J Co3I 1_555 1_555
C4B O5B 1_555 1_555
C9B C10B 1_555 1_555
C11B O3B 1_555 1_555
C18B C19B 1_555 1_555
C20B O10B 1_555 1_555
C21B O6B 1_555 1_555
C21B O7B 1_555 1_555
C26B C27B 1_555 1_555
C35B C36B 1_555 1_555
Co1B O5B 1_555 1_555
Co1B O6B 1_555 1_555
Co1B O8B 1_555 1_555
Co2B O8B 1_555 1_555
Co2B O9B 1_555 1_555
O12B Co1S 1_555 1_555
O14B Co2S 1_555 1_555
C9P C10P 1_555 1_555
C11P O3P 1_555 1_555
C18P C19P 1_555 1_555
C20P O10P 1_555 1_555
O5P Co1P 1_555 1_555
C26I C27I 1_555 1_555
O1I C28I 1_555 1_555
C35I C36I 1_555 1_555
O7I Co3I 1_555 1_555
Co2I O8I 1_555 1_555
Co2I O9I 1_555 1_555
Co3I O8I 1_555 1_555
Co1J O8J 1_555 1_555
Co1J O5J 1_555 1_555
Co2J O8J 1_555 1_555
Co2J O9J 1_555 1_555
Co1K O8K 1_555 1_555
Co1K O5K 1_555 1_555
Co2K O8K 1_555 1_555
Co2K O9K 1_555 1_555
Co2K O5I 1_555 1_555

#END
