
#######################################################################
#
#                 Cambridge Crystallographic Data Centre
#                                CCDC 
#
#######################################################################
#
# If this CIF has been generated from an entry in the Cambridge 
# Structural Database, then it will include bibliographic, chemical, 
# crystal, experimental, refinement or atomic coordinate data resulting 
# from the CCDC's data processing and validation procedures.
#
#######################################################################

data_PUKSUL
_chemical_formula_moiety         'C18 Cu8 N5 S6 W2'
_symmetry_cell_setting           orthorhombic
_symmetry_space_group_name_H-M   'P n m a'
_symmetry_Int_Tables_number      62
_space_group_name_Hall           '-P 2ac 2n'
loop_
_symmetry_equiv_pos_site_id
_symmetry_equiv_pos_as_xyz
1 x,y,z
2 1/2-x,-y,1/2+z
3 1/2+x,1/2-y,1/2-z
4 -x,1/2+y,-z
5 -x,-y,-z
6 1/2+x,y,1/2-z
7 1/2-x,1/2+y,1/2+z
8 x,1/2-y,z
_cell_length_a                   20.342(4)
_cell_length_b                   13.566(3)
_cell_length_c                   9.877(2)
_cell_angle_alpha                90
_cell_angle_beta                 90
_cell_angle_gamma                90
_cell_volume                     2725.65
loop_
_atom_site_label
_atom_site_type_symbol
_atom_site_fract_x
_atom_site_fract_y
_atom_site_fract_z
_atom_site_U_iso_or_equiv
_atom_site_thermal_displace_type
W1 W 0.15276(2) 0.2500 0.69610(5) 0.0431 Uani
Cu1 Cu 0.10350(6) 0.09024(9) 0.56060(14) 0.0641 Uani
Cu2 Cu 0.22224(8) 0.38658(12) 0.82543(19) 0.0850 Uani
S1 S 0.26186(19) 0.2500 0.7228(5) 0.0763 Uani
S2 S 0.11327(15) 0.1138(2) 0.7946(3) 0.0610 Uani
S3 S 0.1248(2) 0.2500 0.4809(4) 0.0587 Uani
N1 N 0.1830(5) 0.0148(8) 0.4799(13) 0.0857 Uani
C1 C 0.2205(6) -0.0263(9) 0.4183(15) 0.0847 Uani
N2 N -0.0229(4) -0.0211(7) 0.4868(11) 0.0653 Uani
N2D N 0.0229(4) 0.0211(7) 0.5132(11) 0.0653 Uani
Cu1D Cu -0.10350(6) -0.09024(9) 0.43940(14) 0.0641 Uani
S2D S -0.11327(15) -0.1138(2) 0.2054(3) 0.0610 Uani
N1D N -0.1830(5) -0.0148(8) 0.5201(13) 0.0857 Uani
C1D C -0.2205(6) 0.0263(9) 0.5817(15) 0.0847 Uani
Cu2G Cu 0.22224(8) 0.11342(12) 0.82543(19) 0.0850 Uani
W1C W -0.15276(2) -0.2500 0.30390(5) 0.0431 Uani
Cu1G Cu 0.10350(6) 0.40976(9) 0.56060(14) 0.0641 Uani
Cu2B Cu -0.27776(8) 0.11342(12) 0.67457(19) 0.0850 Uani
Cu2C Cu -0.22224(8) -0.11342(12) 0.17457(19) 0.0850 Uani
Cu2F Cu 0.27776(8) -0.11342(12) 0.32543(19) 0.0850 Uani
S2G S 0.11327(15) 0.3862(2) 0.7946(3) 0.0610 Uani
S3C S -0.1248(2) -0.2500 0.5191(4) 0.0587 Uani
C1A C 0.2795(6) 0.0263(9) 0.9183(15) 0.0847 Uani
C1F C 0.2795(6) 0.4737(9) 0.9183(15) 0.0847 Uani
N3 N 0.3945(13) 0.2500 0.246(2) 0.1350 Uiso
C2 C 0.4116(16) 0.207(2) 0.107(3) 0.1020 Uiso
C3 C 0.4035(18) 0.2500 -0.005(4) 0.1520 Uiso
C4 C 0.4318(14) 0.2500 -0.133(3) 0.1280 Uiso
C5 C 0.318(4) 0.2500 0.259(6) 0.2600 Uiso
C6 C 0.257(3) 0.219(5) 0.195(4) 0.1700 Uiso
C7 C 0.203(2) 0.2500 0.156(4) 0.1780 Uiso
C8 C 0.397(3) 0.153(4) 0.342(6) 0.1640 Uiso
C9 C 0.389(3) 0.153(5) 0.494(6) 0.2000 Uiso
C10 C 0.418(2) 0.069(4) 0.586(4) 0.1470 Uiso
C2G C 0.4116(16) 0.293(2) 0.107(3) 0.1020 Uiso
C6G C 0.257(3) 0.281(5) 0.195(4) 0.1700 Uiso
C8G C 0.397(3) 0.347(4) 0.342(6) 0.1640 Uiso
C9G C 0.389(3) 0.347(5) 0.494(6) 0.2000 Uiso
C10G C 0.418(2) 0.431(4) 0.586(4) 0.1470 Uiso
loop_
_atom_site_aniso_label
_atom_site_aniso_U_11
_atom_site_aniso_U_22
_atom_site_aniso_U_33
_atom_site_aniso_U_23
_atom_site_aniso_U_13
_atom_site_aniso_U_12
W1 0.0408(3) 0.0313(3) 0.0573(4) 0.000 -0.0052(2) 0.000
Cu1 0.0626(8) 0.0483(7) 0.0814(8) -0.0060(6) -0.0073(7) -0.0092(6)
Cu2 0.0805(10) 0.0545(9) 0.1200(13) -0.0129(8) -0.0324(9) -0.0125(7)
S1 0.0418(18) 0.063(2) 0.124(4) 0.000 -0.015(2) 0.000
S2 0.0714(16) 0.0461(14) 0.0655(15) 0.0103(11) -0.0074(12) -0.0085(12)
S3 0.080(2) 0.0407(17) 0.0555(18) 0.000 -0.0018(17) 0.000
N1 0.074(6) 0.056(6) 0.127(9) -0.016(6) 0.009(6) 0.007(5)
C1 0.071(7) 0.052(7) 0.131(11) -0.017(7) 0.025(7) 0.019(6)
N2 0.062 0.049 0.085 -0.008 -0.01 -0.003
N2D 0.062 0.049 0.085 -0.008 -0.01 -0.003
Cu1D 0.0626 0.0483 0.0814 -0.006 -0.0073 -0.0092
S2D 0.0714 0.0461 0.0655 0.0103 -0.0074 -0.0085
N1D 0.074 0.056 0.127 -0.016 0.009 0.007
C1D 0.071 0.052 0.131 -0.017 0.025 0.019
Cu2G 0.0805 0.0545 0.12 0.0129 -0.0324 0.0125
W1C 0.0408 0.0313 0.0573 0 -0.0052 0
Cu1G 0.0626 0.0483 0.0814 0.006 -0.0073 0.0092
Cu2B 0.0805 0.0545 0.12 -0.0129 0.0324 0.0125
Cu2C 0.0805 0.0545 0.12 0.0129 -0.0324 0.0125
Cu2F 0.0805 0.0545 0.12 -0.0129 0.0324 0.0125
S2G 0.0714 0.0461 0.0655 -0.0103 -0.0074 0.0085
S3C 0.08 0.0407 0.0555 0 -0.0018 0
C1A 0.071 0.052 0.131 0.017 -0.025 0.019
C1F 0.071 0.052 0.131 -0.017 -0.025 -0.019
loop_
_geom_bond_atom_site_label_1
_geom_bond_atom_site_label_2
_geom_bond_site_symmetry_1
_geom_bond_site_symmetry_2
W1 S1 1_555 1_555
Cu1 S2 1_555 1_555
Cu2 S1 1_555 1_555
S1 Cu2G 1_555 1_555
S2 W1 1_555 1_555
S3 W1 1_555 1_555
N1 Cu1 1_555 1_555
C1 N1 1_555 1_555
N2 N2D 1_555 1_555
N3 C2 1_555 1_555
C2 C3 1_555 1_555
C3 C4 1_555 1_555
C5 N3 1_555 1_555
C6 C5 1_555 1_555
C7 C6 1_555 1_555
C8 N3 1_555 1_555
C9 C8 1_555 1_555
C10 C9 1_555 1_555
N2D Cu1 1_555 1_555
Cu1D N2 1_555 1_555
S2D Cu1D 1_555 1_555
N1D Cu1D 1_555 1_555
C1D N1D 1_555 1_555
Cu2G S2 1_555 1_555
W1C S2D 1_555 1_555
Cu1G S3 1_555 1_555
Cu2B C1D 1_555 1_555
Cu2C S2D 1_555 1_555
Cu2F C1 1_555 1_555
S2G W1 1_555 1_555
S3C Cu1D 1_555 1_555
C1A Cu2G 1_555 1_555
C1F Cu2 1_555 1_555
C2G N3 1_555 1_555
C6G C5 1_555 1_555
C8G N3 1_555 1_555
C9G C8G 1_555 1_555
C10G C9G 1_555 1_555
Cu1 S3 1_555 1_555
Cu2 S2G 1_555 1_555
C2 C2G 1_555 1_555
C3 C2G 1_555 1_555
C6 C6G 1_555 1_555
C7 C6G 1_555 1_555
W1C S3C 1_555 1_555
Cu1G S2G 1_555 1_555

#END
