
#######################################################################
#
#                 Cambridge Crystallographic Data Centre
#                                CCDC 
#
#######################################################################
#
# If this CIF has been generated from an entry in the Cambridge 
# Structural Database, then it will include bibliographic, chemical, 
# crystal, experimental, refinement or atomic coordinate data resulting 
# from the CCDC's data processing and validation procedures.
#
#######################################################################

data_JAHNEM01
_chemical_formula_moiety         '(C15 H27 Cr1 Mn3 N12 O9)n'
_symmetry_cell_setting           hexagonal
_symmetry_space_group_name_H-M   'P 63'
_symmetry_Int_Tables_number      173
_space_group_name_Hall           'P 6c'
loop_
_symmetry_equiv_pos_site_id
_symmetry_equiv_pos_as_xyz
1 x,y,z
2 -x,-y,1/2+z
3 -y,x-y,z
4 -x+y,-x,z
5 x-y,x,1/2+z
6 y,-x+y,1/2+z
_cell_length_a                   13.6013(5)
_cell_length_b                   13.6013(5)
_cell_length_c                   8.1404(3)
_cell_angle_alpha                90
_cell_angle_beta                 90
_cell_angle_gamma                120
_cell_volume                     1304.18
loop_
_atom_site_label
_atom_site_type_symbol
_atom_site_fract_x
_atom_site_fract_y
_atom_site_fract_z
Cr1 Cr 0.3333 0.6667 0.92642(16)
Mn1 Mn 0.29616(5) 0.33503(6) 0.54316(11)
O1 O 0.2273(3) 0.1809(3) 0.4043(5)
C1 C 0.5295(4) 0.3208(3) 0.5556(8)
C2 C 0.3549(3) 0.5564(4) 0.7762(7)
O2 O 0.2450(3) 0.0585(3) 0.2464(5)
C3 C 0.2670(4) 0.1589(4) 0.2799(6)
N1 N 0.3459(5) 0.2098(4) 0.0027(5)
H1 H 0.4103 0.2575 -0.0509
H2 H 0.2864 0.2011 -0.0573
C4 C 0.3446(4) 0.2549(4) 0.1651(6)
H3 H 0.4216 0.2868 0.2093
N2 N 0.3644(4) 0.4265(4) 0.3055(6)
H4 H 0.3479 0.4827 0.2978
H5 H 0.4405 0.4585 0.3060
C5 C 0.3189(5) 0.3528(5) 0.1595(8)
H6 H 0.3523 0.3976 0.0612
H7 H 0.2374 0.3219 0.1539
N3 N 0.4485(4) 0.3187(3) 0.6043(6)
N4 N 0.3667(4) 0.4955(4) 0.6911(7)
Mn1B Mn 0.66497(6) 0.96113(8) 0.54316(11)
O1B O 0.8191(3) 1.0464(4) 0.4043(5)
C1B C 0.6792(3) 1.2087(5) 0.5556(8)
C2B C 0.4436(4) 0.7985(5) 0.7762(7)
O2B O 0.9415(3) 1.1865(4) 0.2464(5)
C3B C 0.8411(4) 1.1081(6) 0.2799(6)
N1B N 0.7902(4) 1.1361(6) 0.0027(5)
H1B H 0.7425 1.1528 -0.0509
H2B H 0.7989 1.0853 -0.0573
C4B C 0.7451(4) 1.0897(6) 0.1651(6)
H3B H 0.7132 1.1348 0.2093
N2B N 0.5735(4) 0.9379(6) 0.3055(6)
H4B H 0.5173 0.8652 0.2978
H5B H 0.5415 0.9820 0.3060
C5B C 0.6472(5) 0.9661(7) 0.1595(8)
H6B H 0.6024 0.9547 0.0612
H7B H 0.6781 0.9155 0.1539
N3B N 0.6813(3) 1.1298(5) 0.6043(6)
N4B N 0.5045(4) 0.8712(6) 0.6911(7)
Mn1C Mn 0.03887(8) 0.70384(5) 0.54316(11)
O1C O -0.0464(4) 0.7727(3) 0.4043(5)
C1C C -0.2087(5) 0.4705(4) 0.5556(8)
C2C C 0.2015(5) 0.6451(3) 0.7762(7)
O2C O -0.1865(4) 0.7550(3) 0.2464(5)
C3C C -0.1081(6) 0.7330(4) 0.2799(6)
N1C N -0.1361(6) 0.6541(5) 0.0027(5)
H1C H -0.1528 0.5897 -0.0509
H2C H -0.0853 0.7136 -0.0573
C4C C -0.0897(6) 0.6554(4) 0.1651(6)
H3C H -0.1348 0.5784 0.2093
N2C N 0.0621(6) 0.6356(4) 0.3055(6)
H4C H 0.1348 0.6521 0.2978
H5C H 0.0180 0.5595 0.3060
C5C C 0.0339(7) 0.6811(5) 0.1595(8)
H6C H 0.0453 0.6477 0.0612
H7C H 0.0845 0.7626 0.1539
N3C N -0.1298(5) 0.5515(4) 0.6043(6)
N4C N 0.1288(6) 0.6333(4) 0.6911(7)
Cr1A Cr -0.3333 0.3333 0.42642(16)
Cr1A_2 Cr 0.6667 0.3333 0.42642(16)
Cr1A_3 Cr 0.6667 1.3333 0.42642(16)
Mn1A Mn -0.29616(5) 0.66497(6) 0.04316(11)
Mn1D Mn 0.96113(8) 1.29616(5) 0.04316(11)
Mn1E Mn 0.33503(6) 0.03887(8) 0.04316(11)
C1A C 0.4705(4) 0.6792(3) 1.0556(8)
C1D C 0.2087(5) 0.5295(4) 1.0556(8)
C1E C 0.3208(3) 0.7913(5) 1.0556(8)
O2A O 0.7550(3) 0.9415(3) 0.7464(5)
O2D O 0.1865(4) 0.2450(3) 0.7464(5)
O2E O 0.0585(3) 0.8135(4) 0.7464(5)
N1A N 0.6541(5) 0.7902(4) 0.5027(5)
N1D N 0.1361(6) 0.3459(5) 0.5027(5)
N1E N 0.2098(4) 0.8639(6) 0.5027(5)
O3 O 0.3333 0.6667 0.3966(11)
O4 O 0.0000 0.0000 0.067(8)
O5 O -0.0000 0.0000 -0.1365(6)
loop_
_geom_bond_atom_site_label_1
_geom_bond_atom_site_label_2
_geom_bond_site_symmetry_1
_geom_bond_site_symmetry_2
Cr1 C2 1_555 1_555
Mn1 O1 1_555 1_555
O1 C3 1_555 1_555
C1 N3 1_555 1_555
C2 N4 1_555 1_555
O2 C3 1_555 1_555
C3 C4 1_555 1_555
N1 H1 1_555 1_555
H2 N1 1_555 1_555
C4 N1 1_555 1_555
H3 C4 1_555 1_555
N2 Mn1 1_555 1_555
H4 N2 1_555 1_555
H5 N2 1_555 1_555
C5 C4 1_555 1_555
H6 C5 1_555 1_555
H7 C5 1_555 1_555
N3 Mn1 1_555 1_555
N4 Mn1 1_555 1_555
Mn1B O1B 1_555 1_555
O1B C3B 1_555 1_555
C1B N3B 1_555 1_555
C2B Cr1 1_555 1_555
O2B C3B 1_555 1_555
C3B C4B 1_555 1_555
N1B H1B 1_555 1_555
H2B N1B 1_555 1_555
C4B N1B 1_555 1_555
H3B C4B 1_555 1_555
N2B Mn1B 1_555 1_555
H4B N2B 1_555 1_555
H5B N2B 1_555 1_555
C5B C4B 1_555 1_555
H6B C5B 1_555 1_555
H7B C5B 1_555 1_555
N3B Mn1B 1_555 1_555
N4B Mn1B 1_555 1_555
Mn1C O1C 1_555 1_555
O1C C3C 1_555 1_555
C1C N3C 1_555 1_555
C2C Cr1 1_555 1_555
O2C C3C 1_555 1_555
C3C C4C 1_555 1_555
N1C H1C 1_555 1_555
H2C N1C 1_555 1_555
C4C N1C 1_555 1_555
H3C C4C 1_555 1_555
N2C Mn1C 1_555 1_555
H4C N2C 1_555 1_555
H5C N2C 1_555 1_555
C5C C4C 1_555 1_555
H6C C5C 1_555 1_555
H7C C5C 1_555 1_555
N3C Mn1C 1_555 1_555
N4C Mn1C 1_555 1_555
Cr1A C1C 1_555 1_555
Cr1A_2 C1 1_555 1_555
Cr1A_3 C1B 1_555 1_555
Mn1A O2C 1_555 1_555
Mn1D O2B 1_555 1_555
Mn1E O2 1_555 1_555
C1A Cr1 1_555 1_555
C1D Cr1 1_555 1_555
C1E Cr1 1_555 1_555
O2A Mn1B 1_555 1_555
O2D Mn1 1_555 1_555
O2E Mn1C 1_555 1_555
N1A Mn1B 1_555 1_555
N1D Mn1 1_555 1_555
N1E Mn1C 1_555 1_555
N1 Mn1E 1_555 1_555
N2 C5 1_555 1_555
C2B N4B 1_555 1_555
N1B Mn1D 1_555 1_555
N2B C5B 1_555 1_555
C2C N4C 1_555 1_555
N1C Mn1A 1_555 1_555
N2C C5C 1_555 1_555

#END
