
#######################################################################
#
#                 Cambridge Crystallographic Data Centre
#                                CCDC 
#
#######################################################################
#
# If this CIF has been generated from an entry in the Cambridge 
# Structural Database, then it will include bibliographic, chemical, 
# crystal, experimental, refinement or atomic coordinate data resulting 
# from the CCDC's data processing and validation procedures.
#
#######################################################################

data_JAHNEM02
_chemical_formula_moiety         '(C15 H27 Cr1 Mn3 N12 O9)n'
_symmetry_cell_setting           hexagonal
_symmetry_space_group_name_H-M   'P 63'
_symmetry_Int_Tables_number      173
_space_group_name_Hall           'P 6c'
loop_
_symmetry_equiv_pos_site_id
_symmetry_equiv_pos_as_xyz
1 x,y,z
2 -x,-y,1/2+z
3 -y,x-y,z
4 -x+y,-x,z
5 x-y,x,1/2+z
6 y,-x+y,1/2+z
_cell_length_a                   13.6093(5)
_cell_length_b                   13.6093(5)
_cell_length_c                   8.1609(3)
_cell_angle_alpha                90
_cell_angle_beta                 90
_cell_angle_gamma                120
_cell_volume                     1309
loop_
_atom_site_label
_atom_site_type_symbol
_atom_site_fract_x
_atom_site_fract_y
_atom_site_fract_z
Cr1 Cr 0.3333 0.6667 0.92566(16)
Mn1 Mn 0.29578(6) 0.33471(6) 0.54340(11)
O1 O 0.2279(3) 0.1806(3) 0.4048(6)
C1 C 0.5297(4) 0.3207(4) 0.5552(9)
C2 C 0.3544(4) 0.5558(4) 0.7763(7)
O2 O 0.2447(3) 0.0585(3) 0.2467(5)
C3 C 0.2666(4) 0.1587(4) 0.2800(7)
N1 N 0.3459(5) 0.2101(4) 0.0036(6)
H1 H 0.4104 0.2577 -0.0497
H2 H 0.2866 0.2016 -0.0563
C4 C 0.3447(4) 0.2554(4) 0.1658(6)
H3 H 0.4216 0.2872 0.2101
N2 N 0.3636(4) 0.4259(4) 0.3066(6)
H4 H 0.3470 0.4820 0.2990
H5 H 0.4397 0.4581 0.3071
C5 C 0.3186(6) 0.3528(5) 0.1612(8)
H6 H 0.3518 0.3979 0.0633
H7 H 0.2371 0.3216 0.1558
N3 N 0.4487(4) 0.3189(4) 0.6037(7)
N4 N 0.3665(4) 0.4957(4) 0.6916(7)
Mn1B Mn 0.66529(6) 0.96107(8) 0.54340(11)
O1B O 0.8194(3) 1.0473(4) 0.4048(6)
C1B C 0.6793(4) 1.2090(6) 0.5552(9)
C2B C 0.4442(4) 0.7986(6) 0.7763(7)
O2B O 0.9415(3) 1.1862(4) 0.2467(5)
C3B C 0.8413(4) 1.1079(6) 0.2800(7)
N1B N 0.7899(4) 1.1358(6) 0.0036(6)
H1B H 0.7423 1.1527 -0.0497
H2B H 0.7984 1.0850 -0.0563
C4B C 0.7446(4) 1.0893(6) 0.1658(6)
H3B H 0.7128 1.1344 0.2101
N2B N 0.5741(4) 0.9377(6) 0.3066(6)
H4B H 0.5180 0.8650 0.2990
H5B H 0.5419 0.9816 0.3071
C5B C 0.6472(5) 0.9658(8) 0.1612(8)
H6B H 0.6021 0.9539 0.0633
H7B H 0.6784 0.9155 0.1558
N3B N 0.6811(4) 1.1298(6) 0.6037(7)
N4B N 0.5043(4) 0.8708(6) 0.6916(7)
Mn1C Mn 0.03893(8) 0.70422(6) 0.54340(11)
O1C O -0.0473(4) 0.7721(3) 0.4048(6)
C1C C -0.2090(6) 0.4703(4) 0.5552(9)
C2C C 0.2014(6) 0.6456(4) 0.7763(7)
O2C O -0.1862(4) 0.7553(3) 0.2467(5)
C3C C -0.1079(6) 0.7334(4) 0.2800(7)
N1C N -0.1358(6) 0.6541(5) 0.0036(6)
H1C H -0.1527 0.5896 -0.0497
H2C H -0.0850 0.7134 -0.0563
C4C C -0.0893(6) 0.6553(4) 0.1658(6)
H3C H -0.1344 0.5784 0.2101
N2C N 0.0623(6) 0.6364(4) 0.3066(6)
H4C H 0.1350 0.6530 0.2990
H5C H 0.0184 0.5603 0.3071
C5C C 0.0342(8) 0.6814(6) 0.1612(8)
H6C H 0.0461 0.6482 0.0633
H7C H 0.0845 0.7629 0.1558
N3C N -0.1298(6) 0.5513(4) 0.6037(7)
N4C N 0.1292(6) 0.6335(4) 0.6916(7)
Cr1A Cr -0.3333 0.3333 0.42566(16)
Cr1A_2 Cr 0.6667 0.3333 0.42566(16)
Cr1A_3 Cr 0.6667 1.3333 0.42566(16)
Mn1A Mn -0.29578(6) 0.66529(6) 0.04340(11)
Mn1D Mn 0.96107(8) 1.29578(6) 0.04340(11)
Mn1E Mn 0.33471(6) 0.03893(8) 0.04340(11)
C1A C 0.4703(4) 0.6793(4) 1.0552(9)
C1D C 0.2090(6) 0.5297(4) 1.0552(9)
C1E C 0.3207(4) 0.7910(6) 1.0552(9)
O2A O 0.7553(3) 0.9415(3) 0.7467(5)
O2D O 0.1862(4) 0.2447(3) 0.7467(5)
O2E O 0.0585(3) 0.8138(4) 0.7467(5)
N1A N 0.6541(5) 0.7899(4) 0.5036(6)
N1D N 0.1358(6) 0.3459(5) 0.5036(6)
N1E N 0.2101(4) 0.8642(6) 0.5036(6)
O3 O 0.3333 0.6667 0.3959(12)
O4 O 0.0000 0.0000 0.072(8)
O5 O 0.0000 0.0000 -0.1372(7)
loop_
_geom_bond_atom_site_label_1
_geom_bond_atom_site_label_2
_geom_bond_site_symmetry_1
_geom_bond_site_symmetry_2
Cr1 C2 1_555 1_555
Mn1 O1 1_555 1_555
O1 C3 1_555 1_555
C1 N3 1_555 1_555
C2 N4 1_555 1_555
O2 C3 1_555 1_555
C3 C4 1_555 1_555
N1 H1 1_555 1_555
H2 N1 1_555 1_555
C4 N1 1_555 1_555
H3 C4 1_555 1_555
N2 Mn1 1_555 1_555
H4 N2 1_555 1_555
H5 N2 1_555 1_555
C5 C4 1_555 1_555
H6 C5 1_555 1_555
H7 C5 1_555 1_555
N3 Mn1 1_555 1_555
N4 Mn1 1_555 1_555
Mn1B O1B 1_555 1_555
O1B C3B 1_555 1_555
C1B N3B 1_555 1_555
C2B Cr1 1_555 1_555
O2B C3B 1_555 1_555
C3B C4B 1_555 1_555
N1B H1B 1_555 1_555
H2B N1B 1_555 1_555
C4B N1B 1_555 1_555
H3B C4B 1_555 1_555
N2B Mn1B 1_555 1_555
H4B N2B 1_555 1_555
H5B N2B 1_555 1_555
C5B C4B 1_555 1_555
H6B C5B 1_555 1_555
H7B C5B 1_555 1_555
N3B Mn1B 1_555 1_555
N4B Mn1B 1_555 1_555
Mn1C O1C 1_555 1_555
O1C C3C 1_555 1_555
C1C N3C 1_555 1_555
C2C Cr1 1_555 1_555
O2C C3C 1_555 1_555
C3C C4C 1_555 1_555
N1C H1C 1_555 1_555
H2C N1C 1_555 1_555
C4C N1C 1_555 1_555
H3C C4C 1_555 1_555
N2C Mn1C 1_555 1_555
H4C N2C 1_555 1_555
H5C N2C 1_555 1_555
C5C C4C 1_555 1_555
H6C C5C 1_555 1_555
H7C C5C 1_555 1_555
N3C Mn1C 1_555 1_555
N4C Mn1C 1_555 1_555
Cr1A C1C 1_555 1_555
Cr1A_2 C1 1_555 1_555
Cr1A_3 C1B 1_555 1_555
Mn1A O2C 1_555 1_555
Mn1D O2B 1_555 1_555
Mn1E O2 1_555 1_555
C1A Cr1 1_555 1_555
C1D Cr1 1_555 1_555
C1E Cr1 1_555 1_555
O2A Mn1B 1_555 1_555
O2D Mn1 1_555 1_555
O2E Mn1C 1_555 1_555
N1A Mn1B 1_555 1_555
N1D Mn1 1_555 1_555
N1E Mn1C 1_555 1_555
N1 Mn1E 1_555 1_555
N2 C5 1_555 1_555
C2B N4B 1_555 1_555
N1B Mn1D 1_555 1_555
N2B C5B 1_555 1_555
C2C N4C 1_555 1_555
N1C Mn1A 1_555 1_555
N2C C5C 1_555 1_555

#END
