
#######################################################################
#
#                 Cambridge Crystallographic Data Centre
#                                CCDC 
#
#######################################################################
#
# If this CIF has been generated from an entry in the Cambridge 
# Structural Database, then it will include bibliographic, chemical, 
# crystal, experimental, refinement or atomic coordinate data resulting 
# from the CCDC's data processing and validation procedures.
#
#######################################################################

data_JAHNEM03
_chemical_formula_moiety         '(C15 H27 Cr1 Mn3 N12 O9)n'
_symmetry_cell_setting           hexagonal
_symmetry_space_group_name_H-M   'P 63'
_symmetry_Int_Tables_number      173
_space_group_name_Hall           'P 6c'
loop_
_symmetry_equiv_pos_site_id
_symmetry_equiv_pos_as_xyz
1 x,y,z
2 -x,-y,1/2+z
3 -y,x-y,z
4 -x+y,-x,z
5 x-y,x,1/2+z
6 y,-x+y,1/2+z
_cell_length_a                   13.6206(5)
_cell_length_b                   13.6206(5)
_cell_length_c                   8.1751(3)
_cell_angle_alpha                90
_cell_angle_beta                 90
_cell_angle_gamma                120
_cell_volume                     1313.46
loop_
_atom_site_label
_atom_site_type_symbol
_atom_site_fract_x
_atom_site_fract_y
_atom_site_fract_z
Cr1 Cr 0.3333 0.6667 0.92457(13)
Mn1 Mn 0.29561(5) 0.33426(5) 0.54383(9)
O1 O 0.2282(3) 0.1804(3) 0.4051(5)
C1 C 0.5303(3) 0.3217(3) 0.5537(7)
C2 C 0.3543(3) 0.5561(3) 0.7755(5)
O2 O 0.2443(3) 0.0587(3) 0.2465(4)
C3 C 0.2670(4) 0.1588(4) 0.2802(5)
N1 N 0.3448(4) 0.2101(4) 0.0042(4)
H1 H 0.4089 0.2578 -0.0495
H2 H 0.2852 0.2013 -0.0549
C4 C 0.3440(4) 0.2550(4) 0.1672(5)
H3 H 0.4210 0.2868 0.2108
N2 N 0.3631(3) 0.4251(3) 0.3070(5)
H4 H 0.3465 0.4811 0.2995
H5 H 0.4391 0.4574 0.3076
C5 C 0.3185(5) 0.3523(4) 0.1610(7)
H6 H 0.3525 0.3975 0.0637
H7 H 0.2372 0.3216 0.1546
N3 N 0.4499(3) 0.3193(3) 0.6035(5)
N4 N 0.3660(3) 0.4954(3) 0.6916(6)
Mn1B Mn 0.66574(5) 0.96135(7) 0.54383(9)
O1B O 0.8196(3) 1.0478(4) 0.4051(5)
C1B C 0.6783(3) 1.2086(4) 0.5537(7)
C2B C 0.4439(3) 0.7982(4) 0.7755(5)
O2B O 0.9413(3) 1.1856(4) 0.2465(4)
C3B C 0.8412(4) 1.1082(6) 0.2802(5)
N1B N 0.7899(4) 1.1347(6) 0.0042(4)
H1B H 0.7422 1.1511 -0.0495
H2B H 0.7987 1.0839 -0.0549
C4B C 0.7450(4) 1.0890(6) 0.1672(5)
H3B H 0.7132 1.1342 0.2108
N2B N 0.5749(3) 0.9380(4) 0.3070(5)
H4B H 0.5189 0.8654 0.2995
H5B H 0.5426 0.9817 0.3076
C5B C 0.6477(4) 0.9662(6) 0.1610(7)
H6B H 0.6025 0.9550 0.0637
H7B H 0.6784 0.9156 0.1546
N3B N 0.6807(3) 1.1306(4) 0.6035(5)
N4B N 0.5046(3) 0.8706(4) 0.6916(6)
Mn1C Mn 0.03865(7) 0.70439(5) 0.54383(9)
O1C O -0.0478(4) 0.7718(3) 0.4051(5)
C1C C -0.2086(4) 0.4697(3) 0.5537(7)
C2C C 0.2018(4) 0.6457(3) 0.7755(5)
O2C O -0.1856(4) 0.7557(3) 0.2465(4)
C3C C -0.1082(6) 0.7330(4) 0.2802(5)
N1C N -0.1347(6) 0.6552(4) 0.0042(4)
H1C H -0.1511 0.5911 -0.0495
H2C H -0.0839 0.7148 -0.0549
C4C C -0.0890(6) 0.6560(4) 0.1672(5)
H3C H -0.1342 0.5790 0.2108
N2C N 0.0620(4) 0.6369(3) 0.3070(5)
H4C H 0.1346 0.6535 0.2995
H5C H 0.0183 0.5609 0.3076
C5C C 0.0338(6) 0.6815(5) 0.1610(7)
H6C H 0.0450 0.6475 0.0637
H7C H 0.0844 0.7628 0.1546
N3C N -0.1306(4) 0.5501(3) 0.6035(5)
N4C N 0.1294(4) 0.6340(3) 0.6916(6)
Cr1A Cr -0.3333 0.3333 0.42457(13)
Cr1A_2 Cr 0.6667 0.3333 0.42457(13)
Cr1A_3 Cr 0.6667 1.3333 0.42457(13)
Mn1A Mn -0.29561(5) 0.66574(5) 0.04383(9)
Mn1D Mn 0.96135(7) 1.29561(5) 0.04383(9)
Mn1E Mn 0.33426(5) 0.03865(7) 0.04383(9)
C1A C 0.4697(3) 0.6783(3) 1.0537(7)
C1D C 0.2086(4) 0.5303(3) 1.0537(7)
C1E C 0.3217(3) 0.7914(4) 1.0537(7)
O2A O 0.7557(3) 0.9413(3) 0.7465(4)
O2D O 0.1856(4) 0.2443(3) 0.7465(4)
O2E O 0.0587(3) 0.8144(4) 0.7465(4)
N1A N 0.6552(4) 0.7899(4) 0.5042(4)
N1D N 0.1347(6) 0.3448(4) 0.5042(4)
N1E N 0.2101(4) 0.8653(6) 0.5042(4)
O3 O 0.3333 0.6667 0.3967(10)
O4 O 0.0000 0.0000 0.068(6)
O5 O -0.0000 0.0000 -0.1339(7)
loop_
_geom_bond_atom_site_label_1
_geom_bond_atom_site_label_2
_geom_bond_site_symmetry_1
_geom_bond_site_symmetry_2
Cr1 C2 1_555 1_555
Mn1 O1 1_555 1_555
O1 C3 1_555 1_555
C1 N3 1_555 1_555
C2 N4 1_555 1_555
O2 C3 1_555 1_555
C3 C4 1_555 1_555
N1 H1 1_555 1_555
H2 N1 1_555 1_555
C4 N1 1_555 1_555
H3 C4 1_555 1_555
N2 Mn1 1_555 1_555
H4 N2 1_555 1_555
H5 N2 1_555 1_555
C5 C4 1_555 1_555
H6 C5 1_555 1_555
H7 C5 1_555 1_555
N3 Mn1 1_555 1_555
N4 Mn1 1_555 1_555
Mn1B O1B 1_555 1_555
O1B C3B 1_555 1_555
C1B N3B 1_555 1_555
C2B Cr1 1_555 1_555
O2B C3B 1_555 1_555
C3B C4B 1_555 1_555
N1B H1B 1_555 1_555
H2B N1B 1_555 1_555
C4B N1B 1_555 1_555
H3B C4B 1_555 1_555
N2B Mn1B 1_555 1_555
H4B N2B 1_555 1_555
H5B N2B 1_555 1_555
C5B C4B 1_555 1_555
H6B C5B 1_555 1_555
H7B C5B 1_555 1_555
N3B Mn1B 1_555 1_555
N4B Mn1B 1_555 1_555
Mn1C O1C 1_555 1_555
O1C C3C 1_555 1_555
C1C N3C 1_555 1_555
C2C Cr1 1_555 1_555
O2C C3C 1_555 1_555
C3C C4C 1_555 1_555
N1C H1C 1_555 1_555
H2C N1C 1_555 1_555
C4C N1C 1_555 1_555
H3C C4C 1_555 1_555
N2C Mn1C 1_555 1_555
H4C N2C 1_555 1_555
H5C N2C 1_555 1_555
C5C C4C 1_555 1_555
H6C C5C 1_555 1_555
H7C C5C 1_555 1_555
N3C Mn1C 1_555 1_555
N4C Mn1C 1_555 1_555
Cr1A C1C 1_555 1_555
Cr1A_2 C1 1_555 1_555
Cr1A_3 C1B 1_555 1_555
Mn1A O2C 1_555 1_555
Mn1D O2B 1_555 1_555
Mn1E O2 1_555 1_555
C1A Cr1 1_555 1_555
C1D Cr1 1_555 1_555
C1E Cr1 1_555 1_555
O2A Mn1B 1_555 1_555
O2D Mn1 1_555 1_555
O2E Mn1C 1_555 1_555
N1A Mn1B 1_555 1_555
N1D Mn1 1_555 1_555
N1E Mn1C 1_555 1_555
N1 Mn1E 1_555 1_555
N2 C5 1_555 1_555
C2B N4B 1_555 1_555
N1B Mn1D 1_555 1_555
N2B C5B 1_555 1_555
C2C N4C 1_555 1_555
N1C Mn1A 1_555 1_555
N2C C5C 1_555 1_555

#END
