
#######################################################################
#
#                 Cambridge Crystallographic Data Centre
#                                CCDC 
#
#######################################################################
#
# If this CIF has been generated from an entry in the Cambridge 
# Structural Database, then it will include bibliographic, chemical, 
# crystal, experimental, refinement or atomic coordinate data resulting 
# from the CCDC's data processing and validation procedures.
#
#######################################################################

data_OKILEA
_chemical_formula_moiety         '(C22 H22 Mn3 N4 O14)n'
_symmetry_cell_setting           rhombohedral
_symmetry_space_group_name_H-M   'R -3'
_symmetry_Int_Tables_number      148
_space_group_name_Hall           '-R 3'
loop_
_symmetry_equiv_pos_site_id
_symmetry_equiv_pos_as_xyz
1 x,y,z
2 -y,x-y,z
3 -x+y,-x,z
4 2/3+x,1/3+y,1/3+z
5 2/3-y,1/3+x-y,1/3+z
6 2/3-x+y,1/3-x,1/3+z
7 1/3+x,2/3+y,2/3+z
8 1/3-y,2/3+x-y,2/3+z
9 1/3-x+y,2/3-x,2/3+z
10 -x,-y,-z
11 y,-x+y,-z
12 x-y,x,-z
13 1/3-x,2/3-y,2/3-z
14 1/3+y,2/3-x+y,2/3-z
15 1/3+x-y,2/3+x,2/3-z
16 2/3-x,1/3-y,1/3-z
17 2/3+y,1/3-x+y,1/3-z
18 2/3+x-y,1/3+x,1/3-z
_cell_length_a                   25.5178(3)
_cell_length_b                   25.5178(3)
_cell_length_c                   14.2324(4)
_cell_angle_alpha                90
_cell_angle_beta                 90
_cell_angle_gamma                120
_cell_volume                     8025.93
loop_
_atom_site_label
_atom_site_type_symbol
_atom_site_fract_x
_atom_site_fract_y
_atom_site_fract_z
_atom_site_U_iso_or_equiv
_atom_site_thermal_displace_type
Mn1 Mn 0.402434(16) 0.079699(15) 0.81217(2) 0.0258 Uani
Mn2 Mn 0.5000 -0.0000 0.5000 0.0369 Uani
N1 N 0.49446(9) 0.09064(9) 0.80942(12) 0.0302 Uani
N2 N 0.57631(8) 0.08000(8) 0.82599(11) 0.0260 Uani
O1 O 0.57676(8) 0.03375(10) 0.58772(11) 0.0500 Uani
O2 O 0.63660(7) 0.04904(8) 0.70721(10) 0.0345 Uani
O3 O 0.47945(9) 0.06282(9) 0.56203(11) 0.0452 Uani
O4 O 0.41851(7) 0.06864(8) 0.66577(10) 0.0330 Uani
O5 O 0.35765(14) -0.02013(9) 0.83087(14) 0.0902 Uani
H1 H 0.3492 -0.0390 0.8829 0.1080 Uiso
H2 H 0.3432 -0.0456 0.7863 0.1080 Uiso
O6 O 0.31044(9) 0.05497(10) 0.76296(15) 0.0621 Uani
H3 H 0.2994 0.0813 0.7619 0.0740 Uiso
H4 H 0.2932 0.0291 0.7194 0.0740 Uiso
O7 O 0.55366(11) 0.06716(11) 0.39138(15) 0.0733 Uani
H5 H 0.5465 0.0963 0.3935 0.0880 Uiso
H6 H 0.5914 0.0831 0.3808 0.0880 Uiso
C1 C 0.59090(10) 0.04849(11) 0.67103(14) 0.0283 Uani
C2 C 0.55699(10) 0.06705(10) 0.73427(14) 0.0250 Uani
C3 C 0.50658(10) 0.07402(10) 0.72421(14) 0.0266 Uani
C4 C 0.46569(11) 0.06749(11) 0.64490(15) 0.0288 Uani
C5 C 0.53758(10) 0.09399(11) 0.86752(14) 0.0285 Uani
C6 C 0.54159(11) 0.11133(13) 0.96715(16) 0.0364 Uani
C7 C 0.55869(12) 0.08391(15) 1.03579(17) 0.0481 Uani
H7 H 0.5678 0.0542 1.0189 0.0580 Uiso
C8 C 0.56211(14) 0.10089(19) 1.12957(19) 0.0677 Uani
H8 H 0.5730 0.0821 1.1753 0.0820 Uiso
C9 C 0.54929(17) 0.14577(19) 1.1548(2) 0.0729 Uani
H9 H 0.5528 0.1579 1.2172 0.0870 Uiso
C10 C 0.53147(16) 0.17219(17) 1.0875(2) 0.0690 Uani
H10 H 0.5215 0.2013 1.1048 0.0830 Uiso
C11 C 0.52829(13) 0.15565(14) 0.99352(19) 0.0488 Uani
H11 H 0.5172 0.1745 0.9482 0.0590 Uiso
Mn1I Mn 0.597566(16) -0.079699(15) 0.18783(2) 0.0258 Uani
Mn1E Mn 0.343932(22) -0.069101(16) 0.14550(2) 0.0258 Uani
Mn1N Mn 0.656068(22) 0.069101(16) 0.85450(2) 0.0258 Uani
N1I N 0.50554(9) -0.09064(9) 0.19058(12) 0.0302 Uani
N2I N 0.42369(8) -0.08000(8) 0.17401(11) 0.0260 Uani
N2D N 0.58667(8) -0.17036(11) 0.15932(11) 0.0260 Uani
N2M N 0.41333(8) 0.17036(11) 0.84068(11) 0.0260 Uani
O1I O 0.42324(8) -0.03375(10) 0.41228(11) 0.0500 Uani
O2I O 0.36340(7) -0.04904(8) 0.29279(10) 0.0345 Uani
O2D O 0.61763(8) -0.07911(11) 0.04054(10) 0.0345 Uani
O2M O 0.38237(8) 0.07911(11) 0.95946(10) 0.0345 Uani
O3I O 0.52055(9) -0.06282(9) 0.43797(11) 0.0452 Uani
O4I O 0.58149(7) -0.06864(8) 0.33423(10) 0.0330 Uani
O5I O 0.64235(14) 0.02013(9) 0.16913(14) 0.0902 Uani
H1I H 0.6508 0.0390 0.1171 0.1080 Uiso
H2I H 0.6568 0.0456 0.2137 0.1080 Uiso
O6I O 0.68956(9) -0.05497(10) 0.23704(15) 0.0621 Uani
H3I H 0.7006 -0.0813 0.2381 0.0740 Uiso
H4I H 0.7068 -0.0291 0.2806 0.0740 Uiso
O7I O 0.44634(11) -0.06716(11) 0.60862(15) 0.0733 Uani
H5I H 0.4535 -0.0963 0.6065 0.0880 Uiso
H6I H 0.4086 -0.0831 0.6192 0.0880 Uiso
C1I C 0.40910(10) -0.04849(11) 0.32897(14) 0.0283 Uani
C2I C 0.44301(10) -0.06705(10) 0.26573(14) 0.0250 Uani
C3I C 0.49342(10) -0.07402(10) 0.27579(14) 0.0266 Uani
C4I C 0.53431(11) -0.06749(11) 0.35510(15) 0.0288 Uani
C5I C 0.46242(10) -0.09399(11) 0.13248(14) 0.0285 Uani
C6I C 0.45841(11) -0.11133(13) 0.03285(16) 0.0364 Uani
C7I C 0.44131(12) -0.08391(15) -0.03579(17) 0.0481 Uani
H7I H 0.4322 -0.0542 -0.0189 0.0580 Uiso
C8I C 0.43789(14) -0.10089(19) -0.12957(19) 0.0677 Uani
H8I H 0.4270 -0.0821 -0.1753 0.0820 Uiso
C9I C 0.45071(17) -0.14577(19) -0.1548(2) 0.0729 Uani
H9I H 0.4472 -0.1579 -0.2172 0.0870 Uiso
C10I C 0.46853(16) -0.17219(17) -0.0875(2) 0.0690 Uani
H10I H 0.4785 -0.2013 -0.1048 0.0830 Uiso
C11I C 0.47171(13) -0.15565(14) 0.00648(19) 0.0488 Uani
H11I H 0.4828 -0.1745 0.0518 0.0590 Uiso
loop_
_atom_site_aniso_label
_atom_site_aniso_U_11
_atom_site_aniso_U_22
_atom_site_aniso_U_33
_atom_site_aniso_U_23
_atom_site_aniso_U_13
_atom_site_aniso_U_12
Mn1 0.0308(2) 0.0283(2) 0.02126(19) -0.00192(13) 0.00201(13) 0.01695(17)
Mn2 0.0379(3) 0.0639(4) 0.0202(3) -0.0127(2) -0.0071(2) 0.0339(3)
N1 0.0356(11) 0.0436(12) 0.0197(9) -0.0049(8) -0.0030(8) 0.0260(10)
N2 0.0274(10) 0.0327(11) 0.0192(8) -0.0018(7) -0.0019(7) 0.0159(9)
O1 0.0383(11) 0.0961(16) 0.0267(9) -0.0239(9) -0.0110(8) 0.0419(11)
O2 0.0343(9) 0.0544(11) 0.0248(8) -0.0098(7) -0.0057(7) 0.0297(9)
O3 0.0619(13) 0.0808(14) 0.0189(8) -0.0100(8) -0.0068(8) 0.0552(12)
O4 0.0349(9) 0.0520(11) 0.0239(8) -0.0051(7) -0.0055(7) 0.0306(9)
O5 0.184(3) 0.0368(12) 0.0418(12) 0.0115(9) 0.0368(14) 0.0491(16)
O6 0.0435(12) 0.0679(14) 0.0800(15) -0.0399(12) -0.0279(11) 0.0317(11)
O7 0.0735(17) 0.0882(18) 0.0503(13) 0.0100(12) 0.0113(11) 0.0344(14)
C1 0.0252(12) 0.0360(13) 0.0233(11) -0.0048(9) -0.0028(9) 0.0149(10)
C2 0.0263(12) 0.0305(12) 0.0182(10) -0.0020(8) -0.0016(8) 0.0142(10)
C3 0.0309(12) 0.0334(12) 0.0198(10) -0.0022(9) -0.0005(9) 0.0194(11)
C4 0.0374(13) 0.0343(13) 0.0224(10) -0.0038(9) -0.0038(9) 0.0237(11)
C5 0.0293(12) 0.0375(13) 0.0204(10) -0.0027(9) -0.0010(9) 0.0179(11)
C6 0.0318(13) 0.0563(17) 0.0218(11) -0.0088(10) -0.0029(9) 0.0225(13)
C7 0.0428(16) 0.081(2) 0.0257(12) -0.0041(13) -0.0028(11) 0.0349(16)
C8 0.056(2) 0.122(3) 0.0257(14) -0.0047(17) -0.0075(13) 0.045(2)
C9 0.065(2) 0.115(3) 0.0280(14) -0.0267(17) -0.0057(14) 0.037(2)
C10 0.073(2) 0.084(3) 0.0523(19) -0.0354(18) -0.0019(17) 0.041(2)
C11 0.0508(17) 0.0613(19) 0.0389(14) -0.0181(13) -0.0046(13) 0.0314(16)
Mn1I 0.0308 0.0283 0.02126 -0.00192 0.00201 0.01695
Mn1E 0.0252 0.0308 0.02126 -0.00201 -0.00393 0.01385
Mn1N 0.0252 0.0308 0.02126 -0.00201 -0.00393 0.01385
N1I 0.0356 0.0436 0.0197 -0.0049 -0.003 0.026
N2I 0.0274 0.0327 0.0192 -0.0018 -0.0019 0.0159
N2D 0.0327 0.0283 0.0192 -0.0001 0.0018 0.0168
N2M 0.0327 0.0283 0.0192 -0.0001 0.0018 0.0168
O1I 0.0383 0.0961 0.0267 -0.0239 -0.011 0.0419
O2I 0.0343 0.0544 0.0248 -0.0098 -0.0057 0.0297
O2D 0.0544 0.0293 0.0248 0.0041 0.0098 0.0247
O2M 0.0544 0.0293 0.0248 0.0041 0.0098 0.0247
O3I 0.0619 0.0808 0.0189 -0.01 -0.0068 0.0552
O4I 0.0349 0.052 0.0239 -0.0051 -0.0055 0.0306
O5I 0.184 0.0368 0.0418 0.0115 0.0368 0.0491
O6I 0.0435 0.0679 0.08 -0.0399 -0.0279 0.0317
O7I 0.0735 0.0882 0.0503 0.01 0.0113 0.0344
C1I 0.0252 0.036 0.0233 -0.0048 -0.0028 0.0149
C2I 0.0263 0.0305 0.0182 -0.002 -0.0016 0.0142
C3I 0.0309 0.0334 0.0198 -0.0022 -0.0005 0.0194
C4I 0.0374 0.0343 0.0224 -0.0038 -0.0038 0.0237
C5I 0.0293 0.0375 0.0204 -0.0027 -0.001 0.0179
C6I 0.0318 0.0563 0.0218 -0.0088 -0.0029 0.0225
C7I 0.0428 0.081 0.0257 -0.0041 -0.0028 0.0349
C8I 0.056 0.122 0.0257 -0.0047 -0.0075 0.045
C9I 0.065 0.115 0.028 -0.0267 -0.0057 0.037
C10I 0.073 0.084 0.0523 -0.0354 -0.0019 0.041
C11I 0.0508 0.0613 0.0389 -0.0181 -0.0046 0.0314
loop_
_geom_bond_atom_site_label_1
_geom_bond_atom_site_label_2
_geom_bond_site_symmetry_1
_geom_bond_site_symmetry_2
Mn1 N1 1_555 1_555
Mn2 O1 1_555 1_555
N1 C3 1_555 1_555
N2 C2 1_555 1_555
O1 C1 1_555 1_555
O2 C1 1_555 1_555
O3 Mn2 1_555 1_555
O4 Mn1 1_555 1_555
O5 Mn1 1_555 1_555
H1 O5 1_555 1_555
H2 O5 1_555 1_555
O6 Mn1 1_555 1_555
H3 O6 1_555 1_555
H4 O6 1_555 1_555
O7 Mn2 1_555 1_555
H5 O7 1_555 1_555
H6 O7 1_555 1_555
C1 C2 1_555 1_555
C2 C3 1_555 1_555
C3 C4 1_555 1_555
C4 O3 1_555 1_555
C5 N1 1_555 1_555
C6 C5 1_555 1_555
C7 C6 1_555 1_555
H7 C7 1_555 1_555
C8 C7 1_555 1_555
H8 C8 1_555 1_555
C9 C8 1_555 1_555
H9 C9 1_555 1_555
C10 C9 1_555 1_555
H10 C10 1_555 1_555
C11 C6 1_555 1_555
H11 C11 1_555 1_555
Mn1I N1I 1_555 1_555
Mn1E N2I 1_555 1_555
Mn1N N2 1_555 1_555
N1I C3I 1_555 1_555
N2I C2I 1_555 1_555
N2D Mn1I 1_555 1_555
N2M Mn1 1_555 1_555
O1I Mn2 1_555 1_555
O2I Mn1E 1_555 1_555
O2D Mn1I 1_555 1_555
O2M Mn1 1_555 1_555
O3I Mn2 1_555 1_555
O4I Mn1I 1_555 1_555
O5I Mn1I 1_555 1_555
H1I O5I 1_555 1_555
H2I O5I 1_555 1_555
O6I Mn1I 1_555 1_555
H3I O6I 1_555 1_555
H4I O6I 1_555 1_555
O7I Mn2 1_555 1_555
H5I O7I 1_555 1_555
H6I O7I 1_555 1_555
C1I O1I 1_555 1_555
C2I C1I 1_555 1_555
C3I C2I 1_555 1_555
C4I O3I 1_555 1_555
C5I N1I 1_555 1_555
C6I C5I 1_555 1_555
C7I C6I 1_555 1_555
H7I C7I 1_555 1_555
C8I C7I 1_555 1_555
H8I C8I 1_555 1_555
C9I C8I 1_555 1_555
H9I C9I 1_555 1_555
C10I C9I 1_555 1_555
H10I C10I 1_555 1_555
C11I C6I 1_555 1_555
H11I C11I 1_555 1_555
N2 C5 1_555 1_555
O2 Mn1N 1_555 1_555
O4 C4 1_555 1_555
C10 C11 1_555 1_555
N2I C5I 1_555 1_555
O2I C1I 1_555 1_555
O4I C4I 1_555 1_555
C3I C4I 1_555 1_555
C10I C11I 1_555 1_555

#END
