
#######################################################################
#
#                 Cambridge Crystallographic Data Centre
#                                CCDC 
#
#######################################################################
#
# If this CIF has been generated from an entry in the Cambridge 
# Structural Database, then it will include bibliographic, chemical, 
# crystal, experimental, refinement or atomic coordinate data resulting 
# from the CCDC's data processing and validation procedures.
#
#######################################################################

data_KAKBUW
_chemical_formula_moiety         'C145 H113 Ca26 N7 O64 1+'
_symmetry_cell_setting           monoclinic
_symmetry_space_group_name_H-M   'C 2/c'
_symmetry_Int_Tables_number      15
_space_group_name_Hall           '-C 2yc'
loop_
_symmetry_equiv_pos_site_id
_symmetry_equiv_pos_as_xyz
1 x,y,z
2 -x,y,1/2-z
3 1/2+x,1/2+y,z
4 1/2-x,1/2+y,1/2-z
5 -x,-y,-z
6 x,-y,1/2+z
7 1/2-x,1/2-y,-z
8 1/2+x,1/2-y,1/2+z
_cell_length_a                   28.281(4)
_cell_length_b                   20.849(3)
_cell_length_c                   30.699(4)
_cell_angle_alpha                90
_cell_angle_beta                 90.994(9)
_cell_angle_gamma                90
_cell_volume                     18098.3
loop_
_atom_site_label
_atom_site_type_symbol
_atom_site_fract_x
_atom_site_fract_y
_atom_site_fract_z
O22 O 0.5011 0.9270 0.4333
O23 O 0.4595 0.8403 0.3917
C75 C 0.5964 1.1064 0.4691
N3 N 0.6206 1.0420 0.4583
C76 C 0.6640 1.0588 0.4313
Ca1 Ca 0.5098 0.7380 0.3128
O1 O 0.4443 0.8140 0.3091
O2 O 0.4456 0.7612 0.2475
O3 O 0.4714 0.7135 0.3802
O4 O 0.4938 0.6377 0.2858
O5 O 0.5393 0.8192 0.3619
O6 O 0.5704 0.6864 0.3536
C1 C 0.4253 0.7958 0.2741
Ca2 Ca 0.5406 0.7088 0.4308
C2 C 0.4518 0.6651 0.3960
C3 C 0.5000 0.6097 0.2500
C4 C 0.3749 0.8144 0.2641
O7 O 0.4903 0.7812 0.4695
O8 O 0.4699 0.6349 0.4272
O9 O 0.5891 0.6220 0.4080
O10 O 0.5875 0.8048 0.4186
O11 O 0.5942 0.7242 0.4948
O12 O 0.5432 0.6460 0.5016
C5 C 0.4049 0.6445 0.3775
C6 C 0.5000 0.5385 0.2500
C7 C 0.3489 0.7868 0.2308
C8 C 0.3536 0.8619 0.2890
H1 H 0.4680 0.7992 0.4518
H2 H 0.5069 0.8140 0.4817
Ca3 Ca 0.4710 0.5844 0.4967
C9 C 0.3787 0.6868 0.3514
C10 C 0.3877 0.5833 0.3850
C11 C 0.5042 0.5040 0.2884
H3 H 0.3629 0.7554 0.2137
C12 C 0.3030 0.8042 0.2220
C13 C 0.3074 0.8806 0.2796
H4 H 0.3703 0.8811 0.3118
O13 O 0.4352 0.6863 0.5206
O14 O 0.3985 0.5274 0.4898
O15 O 0.5077 0.5038 0.4541
N1 N 0.4572 0.5697 0.5805
H5 H 0.3898 0.7282 0.3467
C14 C 0.3361 0.6674 0.3325
H6 H 0.4044 0.5552 0.4030
C15 C 0.3453 0.5639 0.3654
C16 C 0.5043 0.4390 0.2883
H7 H 0.5070 0.5258 0.3147
H8 H 0.2859 0.7826 0.2004
C17 C 0.2809 0.8544 0.2453
H9 H 0.2936 0.9118 0.2969
C18 C 0.3789 0.4858 0.5080
C19 C 0.5213 0.4925 0.4151
C20 C 0.3193 0.6051 0.3383
H10 H 0.3186 0.6963 0.3157
H11 H 0.3340 0.5227 0.3705
C21 C 0.5000 0.4031 0.2500
H12 H 0.5073 0.4175 0.3147
C22 C 0.2331 0.8792 0.2341
N2 N 0.3334 0.4652 0.5011
H13 H 0.3962 0.4645 0.5296
C23 C 0.2762 0.5830 0.3146
C24 C 0.5000 0.3324 0.2500
C25 C 0.2104 0.9217 0.2608
C26 C 0.2096 0.8631 0.1943
C27 C 0.3174 0.4145 0.5273
C28 C 0.3061 0.5022 0.4696
C29 C 0.2448 0.5384 0.3325
C30 C 0.2671 0.6042 0.2720
C31 C 0.4905 0.2985 0.2873
C32 C 0.1666 0.9489 0.2502
H14 H 0.2249 0.9330 0.2871
C33 C 0.1662 0.8888 0.1825
H15 H 0.2239 0.8343 0.1755
H16 H 0.2835 0.4151 0.5280
H17 H 0.3300 0.4194 0.5563
H18 H 0.3278 0.3744 0.5154
H19 H 0.2852 0.5305 0.4847
H20 H 0.2880 0.4737 0.4514
H21 H 0.3272 0.5269 0.4521
H22 H 0.2502 0.5232 0.3606
C34 C 0.2055 0.5165 0.3086
C35 C 0.2283 0.5840 0.2480
H23 H 0.2881 0.6330 0.2594
C36 C 0.4909 0.2303 0.2884
H24 H 0.4835 0.3209 0.3126
C37 C 0.1452 0.9325 0.2105
C38 C 0.1452 0.9972 0.2796
C39 C 0.1435 0.8723 0.1395
C40 C 0.1980 0.5395 0.2671
C41 C 0.1720 0.4701 0.3283
C42 C 0.2214 0.6069 0.2024
C43 C 0.4816 0.1965 0.3303
C44 C 0.5000 0.1989 0.2500
H25 H 0.1164 0.9511 0.2026
C45 C 0.1249 1.0527 0.2643
C46 C 0.1472 0.9872 0.3242
C47 C 0.1005 0.8974 0.1266
C48 C 0.1653 0.8314 0.1103
H26 H 0.1719 0.5249 0.2512
C49 C 0.1885 0.4242 0.3592
C50 C 0.1247 0.4672 0.3155
C51 C 0.1761 0.6131 0.1832
C52 C 0.2597 0.6242 0.1778
C53 C 0.4966 0.1379 0.3368
C54 C 0.4606 0.2231 0.3633
H27 H 0.5000 0.1543 0.2500
H28 H 0.1229 1.0598 0.2344
C55 C 0.1073 1.0984 0.2925
H29 H 0.1610 0.9499 0.3352
C56 C 0.1289 1.0321 0.3527
C57 C 0.0794 0.8832 0.0864
H30 H 0.0850 0.9249 0.1454
H31 H 0.1947 0.8140 0.1175
C58 C 0.1439 0.8160 0.0707
H32 H 0.2203 0.4237 0.3676
C59 C 0.1577 0.3804 0.3766
C60 C 0.0945 0.4223 0.3331
H33 H 0.1131 0.4959 0.2947
C61 C 0.1702 0.6331 0.1412
H34 H 0.1496 0.6034 0.1996
H35 H 0.2900 0.6216 0.1899
C62 C 0.2537 0.6453 0.1349
C63 C 0.4887 0.1060 0.3782
H36 H 0.5126 0.1166 0.3149
C64 C 0.4548 0.1943 0.4031
H37 H 0.4487 0.2644 0.3596
H38 H 0.0944 1.1363 0.2816
C65 C 0.1088 1.0878 0.3369
H39 H 0.1302 1.0245 0.3825
H40 H 0.0509 0.9023 0.0783
C66 C 0.1011 0.8406 0.0587
H41 H 0.1592 0.7883 0.0518
H42 H 0.1688 0.3515 0.3975
C67 C 0.1107 0.3785 0.3637
H43 H 0.0628 0.4217 0.3243
C68 C 0.2084 0.6484 0.1160
H44 H 0.1398 0.6364 0.1293
H45 H 0.2798 0.6574 0.1189
C69 C 0.4677 0.1345 0.4103
H46 H 0.4989 0.0639 0.3818
H47 H 0.4413 0.2176 0.4255
C70 C 0.0885 1.1347 0.3681
C71 C 0.0782 0.8232 0.0156
C72 C 0.0767 0.3306 0.3821
C73 C 0.2018 0.6677 0.0691
C74 C 0.4598 0.1033 0.4536
O16 O 0.1623 0.6576 0.0521
O17 O 0.2356 0.6923 0.0501
O18 O 0.4480 0.1365 0.4854
O19 O 0.4666 0.0448 0.4566
Ca4 Ca 0.1239 0.6715 -0.0137
O20 O 0.2999 0.2082 0.5316
O21 O 0.3619 0.0640 0.5287
H48 H 0.3001 0.2501 0.5385
H49 H 0.2793 0.2032 0.5093
H50 H 0.3876 0.0255 0.5271
H51 H 0.3293 0.0415 0.5390
O2A O 0.5544 0.7612 0.2525
Ca1A Ca 0.4902 0.7380 0.1872
C1A C 0.5747 0.7958 0.2259
O4A O 0.5062 0.6377 0.2142
O1A O 0.5557 0.8140 0.1909
O3A O 0.5286 0.7135 0.1198
O5A O 0.4607 0.8192 0.1381
O6A O 0.4296 0.6864 0.1464
C4A C 0.6251 0.8144 0.2359
Ca2A Ca 0.4594 0.7088 0.0692
C2A C 0.5482 0.6651 0.1040
C11A C 0.4958 0.5040 0.2116
C7A C 0.6511 0.7868 0.2692
C8A C 0.6464 0.8619 0.2110
O7A O 0.5097 0.7812 0.0305
O8A O 0.5301 0.6349 0.0728
O9A O 0.4109 0.6220 0.0920
O10A O 0.4125 0.8048 0.0814
O11A O 0.4058 0.7242 0.0052
O12A O 0.4568 0.6460 -0.0016
C5A C 0.5951 0.6445 0.1225
O15D O 0.4923 0.4962 0.5459
C16A C 0.4957 0.4390 0.2117
H7A H 0.4930 0.5258 0.1853
H3A H 0.6371 0.7554 0.2863
C12A C 0.6970 0.8042 0.2780
C13A C 0.6926 0.8806 0.2204
H4A H 0.6297 0.8811 0.1882
H1A H 0.5320 0.7992 0.0482
H2A H 0.4931 0.8140 0.0183
Ca3A Ca 0.5290 0.5844 0.0033
C9A C 0.6213 0.6868 0.1486
C10A C 0.6123 0.5833 0.1150
Ca3D Ca 0.5290 0.4156 0.5033
H12A H 0.4927 0.4175 0.1853
H8A H 0.7141 0.7826 0.2996
C17A C 0.7191 0.8544 0.2547
H9A H 0.7064 0.9118 0.2031
O13A O 0.5648 0.6863 -0.0206
O14A O 0.6015 0.5274 0.0102
O15A O 0.4923 0.5038 0.0459
O15E O 0.5077 0.4962 -0.0459
N1A N 0.5428 0.5697 -0.0805
H5A H 0.6102 0.7282 0.1533
C14A C 0.6639 0.6674 0.1675
H6A H 0.5956 0.5552 0.0970
C15A C 0.6547 0.5639 0.1346
N1D N 0.5428 0.4303 0.4195
C22A C 0.7669 0.8792 0.2659
C18A C 0.6211 0.4858 -0.0080
C19A C 0.4787 0.4925 0.0849
Ca3E Ca 0.4710 0.4156 -0.0033
C20A C 0.6807 0.6051 0.1617
H10A H 0.6814 0.6963 0.1843
H11A H 0.6660 0.5227 0.1295
C31A C 0.5095 0.2985 0.2127
C25A C 0.7896 0.9217 0.2392
C26A C 0.7904 0.8631 0.3057
N2A N 0.6666 0.4652 -0.0011
H13A H 0.6038 0.4645 -0.0296
N1E N 0.4572 0.4303 0.0805
C23A C 0.7238 0.5830 0.1854
C36A C 0.5091 0.2303 0.2116
H24A H 0.5165 0.3209 0.1874
C32A C 0.8334 0.9489 0.2498
H14A H 0.7751 0.9330 0.2129
C33A C 0.8338 0.8888 0.3175
H15A H 0.7761 0.8343 0.3245
C27A C 0.6826 0.4145 -0.0273
C28A C 0.6939 0.5022 0.0304
C29A C 0.7552 0.5384 0.1675
C30A C 0.7329 0.6042 0.2280
C43A C 0.5184 0.1965 0.1697
C37A C 0.8548 0.9325 0.2895
C38A C 0.8548 0.9972 0.2204
C39A C 0.8565 0.8723 0.3605
H16A H 0.7165 0.4151 -0.0280
H17A H 0.6700 0.4194 -0.0563
H18A H 0.6722 0.3744 -0.0154
H19A H 0.7148 0.5305 0.0153
H20A H 0.7120 0.4737 0.0486
H21A H 0.6728 0.5269 0.0479
H22A H 0.7498 0.5232 0.1394
C34A C 0.7945 0.5165 0.1914
C35A C 0.7717 0.5840 0.2520
H23A H 0.7119 0.6330 0.2406
C53A C 0.5034 0.1379 0.1632
C54A C 0.5394 0.2231 0.1367
H25A H 0.8836 0.9511 0.2974
C45A C 0.8751 1.0527 0.2357
C46A C 0.8528 0.9872 0.1758
C47A C 0.8995 0.8974 0.3734
C48A C 0.8347 0.8314 0.3897
C40A C 0.8020 0.5395 0.2329
C41A C 0.8280 0.4701 0.1717
C42A C 0.7786 0.6069 0.2976
C63A C 0.5113 0.1060 0.1218
H36A H 0.4874 0.1166 0.1851
C64A C 0.5452 0.1943 0.0969
H37A H 0.5513 0.2644 0.1404
H28A H 0.8771 1.0598 0.2656
C55A C 0.8927 1.0984 0.2075
H29A H 0.8390 0.9499 0.1648
C56A C 0.8711 1.0321 0.1473
C57A C 0.9206 0.8832 0.4136
H30A H 0.9150 0.9249 0.3546
H31A H 0.8053 0.8140 0.3825
C58A C 0.8561 0.8160 0.4293
H26A H 0.8281 0.5249 0.2488
C49A C 0.8115 0.4242 0.1408
C50A C 0.8753 0.4672 0.1845
C51A C 0.8239 0.6131 0.3168
C52A C 0.7403 0.6242 0.3222
C69A C 0.5323 0.1345 0.0897
H46A H 0.5011 0.0639 0.1182
H47A H 0.5587 0.2176 0.0745
H38A H 0.9056 1.1363 0.2184
C65A C 0.8912 1.0878 0.1631
H39A H 0.8698 1.0245 0.1175
H40A H 0.9491 0.9023 0.4217
C66A C 0.8989 0.8406 0.4413
H41A H 0.8408 0.7883 0.4482
H32A H 0.7797 0.4237 0.1324
C59A C 0.8423 0.3804 0.1234
C60A C 0.9055 0.4223 0.1669
H33A H 0.8869 0.4959 0.2053
C61A C 0.8298 0.6331 0.3588
H34A H 0.8504 0.6034 0.3004
H35A H 0.7100 0.6216 0.3101
C62A C 0.7463 0.6453 0.3651
C74A C 0.5402 0.1033 0.0464
C70A C 0.9115 1.1347 0.1319
C71A C 0.9218 0.8232 0.4844
O6B O 0.0704 1.1864 0.3536
O9B O 0.0891 1.1220 0.4080
O11G O 0.0942 0.7758 -0.0052
O12G O 0.0432 0.8540 0.0016
H42A H 0.8312 0.3515 0.1025
C67A C 0.8893 0.3785 0.1363
H43A H 0.9372 0.4217 0.1757
C68A C 0.7916 0.6484 0.3840
H44A H 0.8602 0.6364 0.3707
H45A H 0.7202 0.6574 0.3811
O5B O 0.0393 0.3192 0.3619
O10B O 0.0875 0.3048 0.4186
O18A O 0.5520 0.1365 0.0146
O19A O 0.5334 0.0448 0.0434
O6C O 0.9296 1.1864 0.1464
O9C O 0.9109 1.1220 0.0920
O11F O 0.9058 0.7758 0.5052
O12F O 0.9568 0.8540 0.4984
Ca1B Ca 0.0098 1.2380 0.3128
Ca2B Ca 0.0406 1.2088 0.4308
Ca2G Ca 0.0406 0.7912 -0.0692
Ca3G Ca -0.0290 0.9156 -0.0033
C72A C 0.9233 0.3306 0.1179
C73A C 0.7982 0.6677 0.4309
Ca1B_2 Ca 0.0098 0.2380 0.3128
Ca2B_2 Ca 0.0406 0.2088 0.4308
Ca4E Ca 0.1239 0.3285 0.4863
Ca4C Ca 0.3761 0.1715 0.5137
Ca4B Ca 0.6239 0.1715 -0.0137
Ca1C Ca 0.9902 1.2380 0.1872
Ca2C Ca 0.9594 1.2088 0.0692
Ca2F Ca 0.9594 0.7912 0.5692
Ca4A Ca 0.8761 0.6715 0.5137
Ca3F Ca 1.0290 0.9156 0.5033
O5C O 0.9607 0.3192 0.1381
O10C O 0.9125 0.3048 0.0814
O16A O 0.8377 0.6576 0.4479
O17A O 0.7644 0.6923 0.4499
O10D O 0.4125 0.1952 0.5814
O11D O 0.4058 0.2758 0.5052
O16C O 0.3377 0.1576 0.4479
O11E O 0.5942 0.2758 -0.0052
O20A O 0.7001 0.2082 -0.0316
O21A O 0.6381 0.0640 -0.0287
O10E O 0.5875 0.1952 -0.0814
O16B O 0.6623 0.1576 0.0521
Ca1C_2 Ca 0.9902 0.2380 0.1872
Ca2C_2 Ca 0.9594 0.2088 0.0692
Ca4D Ca 0.8761 0.3285 0.0137
H48A H 0.6999 0.2501 -0.0385
H49A H 0.7207 0.2032 -0.0093
H50A H 0.6124 0.0255 -0.0271
H51A H 0.6707 0.0415 -0.0390
loop_
_geom_bond_atom_site_label_1
_geom_bond_atom_site_label_2
_geom_bond_site_symmetry_1
_geom_bond_site_symmetry_2
Ca1 O1 1_555 1_555
O1 C1 1_555 1_555
O2 Ca1 1_555 1_555
O3 Ca1 1_555 1_555
O4 Ca1 1_555 1_555
O5 Ca1 1_555 1_555
O6 Ca1 1_555 1_555
C1 O2 1_555 1_555
Ca2 O3 1_555 1_555
C2 O3 1_555 1_555
C3 O4 1_555 1_555
C4 C1 1_555 1_555
O7 Ca2 1_555 1_555
O8 Ca2 1_555 1_555
O9 Ca2 1_555 1_555
O10 Ca2 1_555 1_555
O11 Ca2 1_555 1_555
O12 Ca2 1_555 1_555
C5 C2 1_555 1_555
C6 C3 1_555 1_555
C7 C4 1_555 1_555
C8 C4 1_555 1_555
H1 O7 1_555 1_555
H2 O7 1_555 1_555
Ca3 O8 1_555 1_555
C9 C5 1_555 1_555
C10 C5 1_555 1_555
C11 C6 1_555 1_555
H3 C7 1_555 1_555
C12 C7 1_555 1_555
C13 C8 1_555 1_555
H4 C8 1_555 1_555
O13 Ca3 1_555 1_555
O14 Ca3 1_555 1_555
O15 Ca3 1_555 1_555
N1 Ca3 1_555 1_555
H5 C9 1_555 1_555
C14 C9 1_555 1_555
H6 C10 1_555 1_555
C15 C10 1_555 1_555
C16 C11 1_555 1_555
H7 C11 1_555 1_555
H8 C12 1_555 1_555
C17 C12 1_555 1_555
H9 C13 1_555 1_555
C18 O14 1_555 1_555
C19 O15 1_555 1_555
C20 C14 1_555 1_555
H10 C14 1_555 1_555
H11 C15 1_555 1_555
C21 C16 1_555 1_555
H12 C16 1_555 1_555
C22 C17 1_555 1_555
N2 C18 1_555 1_555
H13 C18 1_555 1_555
C23 C20 1_555 1_555
C24 C21 1_555 1_555
C25 C22 1_555 1_555
C26 C22 1_555 1_555
C27 N2 1_555 1_555
C28 N2 1_555 1_555
C29 C23 1_555 1_555
C30 C23 1_555 1_555
C31 C24 1_555 1_555
C32 C25 1_555 1_555
H14 C25 1_555 1_555
C33 C26 1_555 1_555
H15 C26 1_555 1_555
H16 C27 1_555 1_555
H17 C27 1_555 1_555
H18 C27 1_555 1_555
H19 C28 1_555 1_555
H20 C28 1_555 1_555
H21 C28 1_555 1_555
H22 C29 1_555 1_555
C34 C29 1_555 1_555
C35 C30 1_555 1_555
H23 C30 1_555 1_555
C36 C31 1_555 1_555
H24 C31 1_555 1_555
C37 C32 1_555 1_555
C38 C32 1_555 1_555
C39 C33 1_555 1_555
C40 C34 1_555 1_555
C41 C34 1_555 1_555
C42 C35 1_555 1_555
C43 C36 1_555 1_555
C44 C36 1_555 1_555
H25 C37 1_555 1_555
C45 C38 1_555 1_555
C46 C38 1_555 1_555
C47 C39 1_555 1_555
C48 C39 1_555 1_555
H26 C40 1_555 1_555
C49 C41 1_555 1_555
C50 C41 1_555 1_555
C51 C42 1_555 1_555
C52 C42 1_555 1_555
C53 C43 1_555 1_555
C54 C43 1_555 1_555
H27 C44 1_555 1_555
H28 C45 1_555 1_555
C55 C45 1_555 1_555
H29 C46 1_555 1_555
C56 C46 1_555 1_555
C57 C47 1_555 1_555
H30 C47 1_555 1_555
H31 C48 1_555 1_555
C58 C48 1_555 1_555
H32 C49 1_555 1_555
C59 C49 1_555 1_555
C60 C50 1_555 1_555
H33 C50 1_555 1_555
C61 C51 1_555 1_555
H34 C51 1_555 1_555
H35 C52 1_555 1_555
C62 C52 1_555 1_555
C63 C53 1_555 1_555
H36 C53 1_555 1_555
C64 C54 1_555 1_555
H37 C54 1_555 1_555
H38 C55 1_555 1_555
C65 C55 1_555 1_555
H39 C56 1_555 1_555
H40 C57 1_555 1_555
C66 C57 1_555 1_555
H41 C58 1_555 1_555
H42 C59 1_555 1_555
C67 C59 1_555 1_555
H43 C60 1_555 1_555
C68 C61 1_555 1_555
H44 C61 1_555 1_555
H45 C62 1_555 1_555
C69 C63 1_555 1_555
H46 C63 1_555 1_555
H47 C64 1_555 1_555
C70 C65 1_555 1_555
C71 C66 1_555 1_555
C72 C67 1_555 1_555
C73 C68 1_555 1_555
C74 C69 1_555 1_555
O16 C73 1_555 1_555
O17 C73 1_555 1_555
O18 C74 1_555 1_555
O19 C74 1_555 1_555
Ca4 O16 1_555 1_555
O20 H48 1_555 1_555
O21 H50 1_555 1_555
H49 O20 1_555 1_555
H51 O21 1_555 1_555
C75 N3 1_555 1_555
N3 C76 1_555 1_555
O2A Ca1 1_555 1_555
Ca1A O2 1_555 1_555
C1A O2A 1_555 1_555
O4A C3 1_555 1_555
O1A Ca1A 1_555 1_555
O3A Ca1A 1_555 1_555
O5A Ca1A 1_555 1_555
O6A Ca1A 1_555 1_555
C4A C1A 1_555 1_555
Ca2A O3A 1_555 1_555
C2A O3A 1_555 1_555
C11A C6 1_555 1_555
C7A C4A 1_555 1_555
C8A C4A 1_555 1_555
O7A Ca2A 1_555 1_555
O8A Ca2A 1_555 1_555
O9A Ca2A 1_555 1_555
O10A Ca2A 1_555 1_555
O11A Ca2A 1_555 1_555
O12A Ca2A 1_555 1_555
C5A C2A 1_555 1_555
O15D Ca3 1_555 1_555
C16A C21 1_555 1_555
H7A C11A 1_555 1_555
H3A C7A 1_555 1_555
C12A C7A 1_555 1_555
C13A C8A 1_555 1_555
H4A C8A 1_555 1_555
H1A O7A 1_555 1_555
H2A O7A 1_555 1_555
Ca3A O8A 1_555 1_555
C9A C5A 1_555 1_555
C10A C5A 1_555 1_555
Ca3D O15 1_555 1_555
H12A C16A 1_555 1_555
H8A C12A 1_555 1_555
C17A C12A 1_555 1_555
H9A C13A 1_555 1_555
O13A Ca3A 1_555 1_555
O14A Ca3A 1_555 1_555
O15A Ca3A 1_555 1_555
O15E Ca3A 1_555 1_555
N1A Ca3A 1_555 1_555
H5A C9A 1_555 1_555
C14A C9A 1_555 1_555
H6A C10A 1_555 1_555
C15A C10A 1_555 1_555
N1D C19 1_555 1_555
C22A C17A 1_555 1_555
C18A O14A 1_555 1_555
C19A O15A 1_555 1_555
Ca3E O15A 1_555 1_555
C20A C14A 1_555 1_555
H10A C14A 1_555 1_555
H11A C15A 1_555 1_555
C31A C24 1_555 1_555
C25A C22A 1_555 1_555
C26A C22A 1_555 1_555
N2A C18A 1_555 1_555
H13A C18A 1_555 1_555
N1E C19A 1_555 1_555
C23A C20A 1_555 1_555
C36A C44 1_555 1_555
H24A C31A 1_555 1_555
C32A C25A 1_555 1_555
H14A C25A 1_555 1_555
C33A C26A 1_555 1_555
H15A C26A 1_555 1_555
C27A N2A 1_555 1_555
C28A N2A 1_555 1_555
C29A C23A 1_555 1_555
C30A C23A 1_555 1_555
C43A C36A 1_555 1_555
C37A C32A 1_555 1_555
C38A C32A 1_555 1_555
C39A C33A 1_555 1_555
H16A C27A 1_555 1_555
H17A C27A 1_555 1_555
H18A C27A 1_555 1_555
H19A C28A 1_555 1_555
H20A C28A 1_555 1_555
H21A C28A 1_555 1_555
H22A C29A 1_555 1_555
C34A C29A 1_555 1_555
C35A C30A 1_555 1_555
H23A C30A 1_555 1_555
C53A C43A 1_555 1_555
C54A C43A 1_555 1_555
H25A C37A 1_555 1_555
C45A C38A 1_555 1_555
C46A C38A 1_555 1_555
C47A C39A 1_555 1_555
C48A C39A 1_555 1_555
C40A C34A 1_555 1_555
C41A C34A 1_555 1_555
C42A C35A 1_555 1_555
C63A C53A 1_555 1_555
H36A C53A 1_555 1_555
C64A C54A 1_555 1_555
H37A C54A 1_555 1_555
H28A C45A 1_555 1_555
C55A C45A 1_555 1_555
H29A C46A 1_555 1_555
C56A C46A 1_555 1_555
C57A C47A 1_555 1_555
H30A C47A 1_555 1_555
H31A C48A 1_555 1_555
C58A C48A 1_555 1_555
H26A C40A 1_555 1_555
C49A C41A 1_555 1_555
C50A C41A 1_555 1_555
C51A C42A 1_555 1_555
C52A C42A 1_555 1_555
C69A C63A 1_555 1_555
H46A C63A 1_555 1_555
H47A C64A 1_555 1_555
H38A C55A 1_555 1_555
C65A C55A 1_555 1_555
H39A C56A 1_555 1_555
H40A C57A 1_555 1_555
C66A C57A 1_555 1_555
H41A C58A 1_555 1_555
H32A C49A 1_555 1_555
C59A C49A 1_555 1_555
C60A C50A 1_555 1_555
H33A C50A 1_555 1_555
C61A C51A 1_555 1_555
H34A C51A 1_555 1_555
H35A C52A 1_555 1_555
C62A C52A 1_555 1_555
C74A C69A 1_555 1_555
C70A C65A 1_555 1_555
C71A C66A 1_555 1_555
O6B C70 1_555 1_555
O9B C70 1_555 1_555
O11G C71 1_555 1_555
O12G C71 1_555 1_555
H42A C59A 1_555 1_555
C67A C59A 1_555 1_555
H43A C60A 1_555 1_555
C68A C61A 1_555 1_555
H44A C61A 1_555 1_555
H45A C62A 1_555 1_555
O5B C72 1_555 1_555
O10B C72 1_555 1_555
O18A C74A 1_555 1_555
O19A C74A 1_555 1_555
O6C C70A 1_555 1_555
O9C C70A 1_555 1_555
O11F C71A 1_555 1_555
O12F C71A 1_555 1_555
Ca1B O6B 1_555 1_555
Ca2B O6B 1_555 1_555
Ca2G O11G 1_555 1_555
Ca3G O12G 1_555 1_555
C72A C67A 1_555 1_555
C73A C68A 1_555 1_555
Ca1B_2 O5B 1_555 1_555
Ca2B_2 O10B 1_555 1_555
Ca4E O10B 1_555 1_555
Ca4C O18 1_555 1_555
Ca4B O18A 1_555 1_555
Ca1C O6C 1_555 1_555
Ca2C O6C 1_555 1_555
Ca2F O11F 1_555 1_555
Ca4A O11F 1_555 1_555
Ca3F O12F 1_555 1_555
O5C C72A 1_555 1_555
O10C C72A 1_555 1_555
O16A C73A 1_555 1_555
O17A C73A 1_555 1_555
O10D Ca4C 1_555 1_555
O11D Ca4C 1_555 1_555
O16C Ca4C 1_555 1_555
O11E Ca4B 1_555 1_555
O20A Ca4B 1_555 1_555
O21A Ca4B 1_555 1_555
O10E Ca4B 1_555 1_555
O16B Ca4B 1_555 1_555
Ca1C_2 O5C 1_555 1_555
Ca2C_2 O10C 1_555 1_555
Ca4D O10C 1_555 1_555
H48A O20A 1_555 1_555
H49A O20A 1_555 1_555
H50A O21A 1_555 1_555
H51A O21A 1_555 1_555
O6 Ca2 1_555 1_555
C2 O8 1_555 1_555
O12 Ca3 1_555 1_555
C13 C17 1_555 1_555
C15 C20 1_555 1_555
C33 C37 1_555 1_555
C35 C40 1_555 1_555
C56 C65 1_555 1_555
C58 C66 1_555 1_555
C60 C67 1_555 1_555
C62 C68 1_555 1_555
C64 C69 1_555 1_555
Ca4 O11G 1_555 1_555
O20 Ca4C 1_555 1_555
O21 Ca4C 1_555 1_555
O2A Ca1A 1_555 1_555
Ca1A O4A 1_555 1_555
C1A O1A 1_555 1_555
O6A Ca2A 1_555 1_555
C2A O8A 1_555 1_555
C11A C16A 1_555 1_555
O12A Ca3A 1_555 1_555
O15D Ca3D 1_555 1_555
C13A C17A 1_555 1_555
Ca3D N1D 1_555 1_555
O15E Ca3E 1_555 1_555
C15A C20A 1_555 1_555
Ca3E N1E 1_555 1_555
C31A C36A 1_555 1_555
C33A C37A 1_555 1_555
C35A C40A 1_555 1_555
C64A C69A 1_555 1_555
C56A C65A 1_555 1_555
C58A C66A 1_555 1_555
C60A C67A 1_555 1_555
C62A C68A 1_555 1_555
O9B Ca2B 1_555 1_555
O12G Ca2G 1_555 1_555
O9C Ca2C 1_555 1_555
O12F Ca2F 1_555 1_555
Ca4A O16A 1_555 1_555

#END
