
#######################################################################
#
#                 Cambridge Crystallographic Data Centre
#                                CCDC 
#
#######################################################################
#
# If this CIF has been generated from an entry in the Cambridge 
# Structural Database, then it will include bibliographic, chemical, 
# crystal, experimental, refinement or atomic coordinate data resulting 
# from the CCDC's data processing and validation procedures.
#
#######################################################################

data_KAKCAD
_chemical_formula_moiety         '(C110 H80 N1 O30 Sr5 1-)n'
_symmetry_cell_setting           monoclinic
_symmetry_space_group_name_H-M   'C 2/c'
_symmetry_Int_Tables_number      15
_space_group_name_Hall           '-C 2yc'
loop_
_symmetry_equiv_pos_site_id
_symmetry_equiv_pos_as_xyz
1 x,y,z
2 -x,y,1/2-z
3 1/2+x,1/2+y,z
4 1/2-x,1/2+y,1/2-z
5 -x,-y,-z
6 x,-y,1/2+z
7 1/2-x,1/2-y,-z
8 1/2+x,1/2-y,1/2+z
_cell_length_a                   18.2197(11)
_cell_length_b                   31.5978(17)
_cell_length_c                   29.862(2)
_cell_angle_alpha                90
_cell_angle_beta                 101.311(3)
_cell_angle_gamma                90
_cell_volume                     16857.7
loop_
_atom_site_label
_atom_site_type_symbol
_atom_site_fract_x
_atom_site_fract_y
_atom_site_fract_z
Sr1 Sr 0.30382(3) 0.35018(2) 0.57790(2)
Sr2 Sr 0.2500 0.2500 0.5000
Sr3 Sr 0.35143(3) 0.46056(2) 0.53012(2)
O1 O 0.2743(3) 0.39228(12) 0.49875(13)
O2 O 0.2912(3) 0.32404(12) 0.48971(13)
O3 O 1.1617(3) 0.35192(16) 0.5762(3)
O4 O 1.1910(3) 0.29001(15) 0.55255(18)
O5 O -0.1431(3) 0.2465(2) 0.0643(2)
O6 O -0.1235(4) 0.2058(2) 0.1244(2)
O7 O 0.2721(3) 0.56952(12) 0.08522(16)
O8 O 0.2926(4) 0.60430(15) 0.14991(16)
O9 O 0.4204(2) 0.38761(13) 0.57019(17)
O10 O 0.4857(3) 0.43124(16) 0.5356(2)
O11 O 0.4065(4) 0.49491(19) 0.60794(15)
H1 H 0.4244 0.5053 0.6341
H2 H 0.3597 0.4911 0.6054
O12 O 0.4306(3) 0.53006(15) 0.52333(17)
H3 H 0.4616 0.5203 0.5081
H4 H 0.4330 0.5157 0.5477
O13 O 0.3576(6) 0.4718(3) 0.44757(16)
H5 H 0.3226 0.4536 0.4426
H6 H 0.3604 0.4843 0.4227
O14 O 0.7314(3) -0.00074(14) 0.50826(17)
O15 O 0.6143(4) 0.01745(16) 0.4825(3)
C1 C 0.2729(4) 0.36056(17) 0.4727(2)
C2 C 0.2470(4) 0.36542(19) 0.4239(2)
C3 C 0.2426(5) 0.3314(2) 0.3942(2)
H7 H 0.2569 0.3046 0.4056
C4 C 0.2169(5) 0.3367(2) 0.3473(2)
H8 H 0.2149 0.3136 0.3278
C5 C 0.1945(5) 0.3762(2) 0.3297(2)
C6 C 0.1971(5) 0.4099(2) 0.3592(2)
H9 H 0.1819 0.4365 0.3477
C7 C 0.2223(5) 0.4049(2) 0.4059(2)
H10 H 0.2226 0.4279 0.4254
C8 C 0.1692(5) 0.3823(2) 0.2799(2)
C9 C 0.1222(5) 0.3534(2) 0.2535(2)
H11 H 0.1082 0.3290 0.2671
C10 C 0.0952(5) 0.3601(2) 0.2068(2)
C11 C 0.1211(5) 0.3950(2) 0.1871(2)
H12 H 0.1066 0.3989 0.1557
C12 C 0.1682(5) 0.4246(2) 0.2127(2)
C13 C 0.1919(5) 0.4175(2) 0.2582(2)
H13 H 0.2243 0.4369 0.2753
C14 C 0.1932(5) 0.4632(2) 0.1906(2)
C15 C 0.2028(5) 0.4620(2) 0.1462(2)
H14 H 0.1925 0.4371 0.1295
C16 C 0.2074(7) 0.5004(3) 0.2139(3)
H15 H 0.1979 0.5023 0.2433
C17 C 0.2361(6) 0.5359(3) 0.1945(3)
H16 H 0.2492 0.5603 0.2116
C18 C 0.0446(5) 0.3277(2) 0.1791(2)
C19 C 0.0361(5) 0.2885(2) 0.1945(2)
H17 H 0.0648 0.2802 0.2224
C20 C 0.0009(8) 0.3379(3) 0.1377(3)
H18 H 0.0052 0.3647 0.1255
C21 C -0.0499(6) 0.3092(3) 0.1135(3)
H19 H -0.0798 0.3172 0.0858
C22 C 1.1444(4) 0.3151(2) 0.5638(3)
C23 C 1.0674(4) 0.2992(2) 0.5641(3)
C24 C 1.0366(4) 0.2657(2) 0.5363(3)
H20 H 1.0635 0.2531 0.5164
C25 C 1.0234(4) 0.3189(2) 0.5910(3)
H21 H 1.0422 0.3419 0.6091
C26 C -0.1127(4) 0.2387(3) 0.1034(3)
C27 C -0.0560(4) 0.2704(2) 0.1297(2)
C28 C -0.0144(5) 0.2597(2) 0.1701(2)
H22 H -0.0192 0.2329 0.1820
C29 C 0.2724(4) 0.57187(19) 0.1271(2)
C30 C 0.2444(5) 0.5336(2) 0.1496(2)
C31 C 0.2275(5) 0.49719(19) 0.1257(2)
H23 H 0.2325 0.4958 0.0954
C32 C 0.4787(4) 0.3970(2) 0.5553(3)
C33 C 0.5417(4) 0.36482(19) 0.5613(2)
C34 C 0.6053(4) 0.3740(2) 0.5443(3)
H24 H 0.6100 0.4000 0.5307
C35 C 0.6616(4) 0.3443(2) 0.5477(3)
H25 H 0.7043 0.3508 0.5364
C36 C 0.6562(4) 0.30547(19) 0.5674(3)
C37 C 0.5925(4) 0.2969(2) 0.5845(3)
H26 H 0.5874 0.2709 0.5981
C38 C 0.5363(4) 0.3269(2) 0.5817(3)
H27 H 0.4942 0.3209 0.5939
C39 C 0.7157(4) 0.27275(19) 0.5672(3)
C40 C 0.7898(4) 0.2847(2) 0.5700(3)
H28 H 0.8029 0.3129 0.5756
C41 C 0.8455(4) 0.2557(2) 0.5647(3)
C42 C 0.8244(4) 0.2132(2) 0.5568(3)
H29 H 0.8602 0.1934 0.5525
C43 C 0.7512(4) 0.20023(19) 0.5551(3)
C44 C 0.6965(4) 0.2302(2) 0.5602(3)
H30 H 0.6473 0.2216 0.5588
C45 C 0.9221(4) 0.27009(19) 0.5654(3)
C46 C 0.9660(4) 0.2512(2) 0.5387(3)
H31 H 0.9473 0.2276 0.5214
C47 C 0.9525(4) 0.3046(2) 0.5911(3)
H32 H 0.9238 0.3185 0.6090
C48 C 0.6789(5) 0.0260(2) 0.5006(3)
C49 C 0.6975(4) 0.07119(18) 0.5163(3)
C50 C 0.7645(4) 0.08115(19) 0.5425(3)
H33 H 0.7999 0.0600 0.5514
C51 C 0.7807(4) 0.1225(2) 0.5563(3)
H34 H 0.8272 0.1286 0.5743
C52 C 0.7297(4) 0.15510(19) 0.5442(3)
C53 C 0.6608(4) 0.1439(2) 0.5181(3)
H35 H 0.6244 0.1646 0.5098
C54 C 0.6451(4) 0.1029(2) 0.5043(3)
H36 H 0.5985 0.0963 0.4866
Sr1A Sr -0.30382(3) 0.35018(2) -0.07790(2)
Sr3A Sr -0.35143(3) 0.46056(2) -0.03012(2)
O1A O -0.2743(3) 0.39228(12) 0.00125(13)
O2A O -0.2912(3) 0.32404(12) 0.01029(13)
O3A O -1.1617(3) 0.35192(16) -0.0762(3)
O4A O -1.1910(3) 0.29001(15) -0.05255(18)
O5A O 0.1431(3) 0.2465(2) 0.4357(2)
O6A O 0.1235(4) 0.2058(2) 0.3756(2)
O7A O -0.2721(3) 0.56952(12) 0.41478(16)
O8A O -0.2926(4) 0.60430(15) 0.35009(16)
O9A O -0.4204(2) 0.38761(13) -0.07019(17)
O10A O -0.4857(3) 0.43124(16) -0.0356(2)
O11A O -0.4065(4) 0.49491(19) -0.10794(15)
H1A H -0.4244 0.5053 -0.1341
H2A H -0.3597 0.4911 -0.1054
O12A O -0.4306(3) 0.53006(15) -0.02333(17)
H3A H -0.4616 0.5203 -0.0081
H4A H -0.4330 0.5157 -0.0477
O13A O -0.3576(6) 0.4718(3) 0.05243(16)
H5A H -0.3226 0.4536 0.0574
H6A H -0.3604 0.4843 0.0773
O14A O -0.7314(3) -0.00074(14) -0.00826(17)
O15A O -0.6143(4) 0.01745(16) 0.0175(3)
C1A C -0.2729(4) 0.36056(17) 0.0273(2)
C2A C -0.2470(4) 0.36542(19) 0.0761(2)
C3A C -0.2426(5) 0.3314(2) 0.1058(2)
H7A H -0.2569 0.3046 0.0944
C4A C -0.2169(5) 0.3367(2) 0.1527(2)
H8A H -0.2149 0.3136 0.1722
C5A C -0.1945(5) 0.3762(2) 0.1703(2)
C6A C -0.1971(5) 0.4099(2) 0.1408(2)
H9A H -0.1819 0.4365 0.1523
C7A C -0.2223(5) 0.4049(2) 0.0941(2)
H10A H -0.2226 0.4279 0.0746
C8A C -0.1692(5) 0.3823(2) 0.2201(2)
C9A C -0.1222(5) 0.3534(2) 0.2465(2)
H11A H -0.1082 0.3290 0.2329
C10A C -0.0952(5) 0.3601(2) 0.2932(2)
C11A C -0.1211(5) 0.3950(2) 0.3129(2)
H12A H -0.1066 0.3989 0.3443
C12A C -0.1682(5) 0.4246(2) 0.2873(2)
C13A C -0.1919(5) 0.4175(2) 0.2418(2)
H13A H -0.2243 0.4369 0.2247
C14A C -0.1932(5) 0.4632(2) 0.3094(2)
C15A C -0.2028(5) 0.4620(2) 0.3538(2)
H14A H -0.1925 0.4371 0.3705
C16A C -0.2074(7) 0.5004(3) 0.2861(3)
H15A H -0.1979 0.5023 0.2567
C17A C -0.2361(6) 0.5359(3) 0.3055(3)
H16A H -0.2492 0.5603 0.2884
C18A C -0.0446(5) 0.3277(2) 0.3209(2)
C19A C -0.0361(5) 0.2885(2) 0.3055(2)
H17A H -0.0648 0.2802 0.2776
C20A C -0.0009(8) 0.3379(3) 0.3623(3)
H18A H -0.0052 0.3647 0.3745
C21A C 0.0499(6) 0.3092(3) 0.3865(3)
H19A H 0.0798 0.3172 0.4142
C22A C -1.1444(4) 0.3151(2) -0.0638(3)
C23A C -1.0674(4) 0.2992(2) -0.0641(3)
C24A C -1.0366(4) 0.2657(2) -0.0363(3)
H20A H -1.0635 0.2531 -0.0164
C25A C -1.0234(4) 0.3189(2) -0.0910(3)
H21A H -1.0422 0.3419 -0.1091
C26A C 0.1127(4) 0.2387(3) 0.3966(3)
C27A C 0.0560(4) 0.2704(2) 0.3703(2)
C28A C 0.0144(5) 0.2597(2) 0.3299(2)
H22A H 0.0192 0.2329 0.3180
C29A C -0.2724(4) 0.57187(19) 0.3729(2)
C30A C -0.2444(5) 0.5336(2) 0.3504(2)
C31A C -0.2275(5) 0.49719(19) 0.3743(2)
H23A H -0.2325 0.4958 0.4046
C32A C -0.4787(4) 0.3970(2) -0.0553(3)
C33A C -0.5417(4) 0.36482(19) -0.0613(2)
C34A C -0.6053(4) 0.3740(2) -0.0443(3)
H24A H -0.6100 0.4000 -0.0307
C35A C -0.6616(4) 0.3443(2) -0.0477(3)
H25A H -0.7043 0.3508 -0.0364
C36A C -0.6562(4) 0.30547(19) -0.0674(3)
C37A C -0.5925(4) 0.2969(2) -0.0845(3)
H26A H -0.5874 0.2709 -0.0981
C38A C -0.5363(4) 0.3269(2) -0.0817(3)
H27A H -0.4942 0.3209 -0.0939
C39A C -0.7157(4) 0.27275(19) -0.0672(3)
C40A C -0.7898(4) 0.2847(2) -0.0700(3)
H28A H -0.8029 0.3129 -0.0756
C41A C -0.8455(4) 0.2557(2) -0.0647(3)
C42A C -0.8244(4) 0.2132(2) -0.0568(3)
H29A H -0.8602 0.1934 -0.0525
C43A C -0.7512(4) 0.20023(19) -0.0551(3)
C44A C -0.6965(4) 0.2302(2) -0.0602(3)
H30A H -0.6473 0.2216 -0.0588
C45A C -0.9221(4) 0.27009(19) -0.0654(3)
C46A C -0.9660(4) 0.2512(2) -0.0387(3)
H31A H -0.9473 0.2276 -0.0214
C47A C -0.9525(4) 0.3046(2) -0.0911(3)
H32A H -0.9238 0.3185 -0.1090
C48A C -0.6789(5) 0.0260(2) -0.0006(3)
C49A C -0.6975(4) 0.07119(18) -0.0163(3)
C50A C -0.7645(4) 0.08115(19) -0.0425(3)
H33A H -0.7999 0.0600 -0.0514
C51A C -0.7807(4) 0.1225(2) -0.0563(3)
H34A H -0.8272 0.1286 -0.0743
C52A C -0.7297(4) 0.15510(19) -0.0442(3)
C53A C -0.6608(4) 0.1439(2) -0.0181(3)
H35A H -0.6244 0.1646 -0.0098
C54A C -0.6451(4) 0.1029(2) -0.0043(3)
H36A H -0.5985 0.0963 0.0134
Sr1_2 Sr 1.30382(3) 0.35018(2) 0.57790(2)
Sr1A_2 Sr -1.30382(3) 0.35018(2) -0.07790(2)
Sr1D Sr -0.30382(3) 0.64982(2) 0.42210(2)
Sr1E Sr 0.30382(3) 0.64982(2) 0.07790(2)
Sr1F Sr 0.19618(3) 0.14982(2) 0.42210(2)
Sr1G Sr -0.19618(3) 0.14982(2) 0.07790(2)
Sr2_2 Sr 1.2500 0.2500 0.5000
Sr2A Sr -1.2500 0.2500 0.0000
Sr2A_2 Sr -0.2500 0.2500 0.0000
Sr3B Sr 0.85143(3) -0.03944(2) 0.53012(2)
Sr3C Sr -0.85143(3) -0.03944(2) -0.03012(2)
Sr3D Sr -0.35143(3) 0.53944(2) 0.46988(2)
Sr3E Sr 0.35143(3) 0.53944(2) 0.03012(2)
O2F O 0.2088(3) 0.17596(12) 0.51029(13)
O3_2 O 0.1617(3) 0.35192(16) 0.5762(3)
O3A_2 O -0.1617(3) 0.35192(16) -0.0762(3)
O4_2 O 0.1910(3) 0.29001(15) 0.55255(18)
O4A_2 O -0.1910(3) 0.29001(15) -0.05255(18)
O4F O 0.3090(3) 0.20999(15) 0.44745(18)
O5G O 0.3569(3) 0.2535(2) 0.5643(2)
O6F O -0.3765(4) 0.2942(2) -0.1244(2)
O6G O 0.3765(4) 0.2942(2) 0.6244(2)
O7D O -0.2721(3) 0.43048(12) -0.08522(16)
O7E O 0.2721(3) 0.43048(12) 0.58522(16)
O8D O -0.2926(4) 0.39570(15) -0.14991(16)
O8E O 0.2926(4) 0.39570(15) 0.64991(16)
O14B O 0.2314(3) 0.49926(14) 0.50826(17)
O14C O -0.2314(3) 0.49926(14) -0.00826(17)
N1 N 0.1147(4) 0.4324(2) 0.5179(3)
H37 H 0.1552 0.4187 0.5323
H38 H 0.1302 0.4562 0.5068
C55 C 0.0776(7) 0.4063(4) 0.4794(4)
H39 H 0.1112 0.4017 0.4588
H40 H 0.0336 0.4206 0.4635
H41 H 0.0637 0.3796 0.4905
C56 C 0.0721(6) 0.4431(4) 0.5496(4)
H42 H 0.0224 0.4504 0.5342
H43 H 0.0944 0.4668 0.5673
H44 H 0.0698 0.4194 0.5695
loop_
_geom_bond_atom_site_label_1
_geom_bond_atom_site_label_2
_geom_bond_site_symmetry_1
_geom_bond_site_symmetry_2
Sr1 O1 1_555 1_555
Sr2 O2 1_555 1_555
Sr3 O1 1_555 1_555
O1 C1 1_555 1_555
O2 Sr1 1_555 1_555
O3 C22 1_555 1_555
O4 C22 1_555 1_555
O5 C26 1_555 1_555
O6 C26 1_555 1_555
O7 C29 1_555 1_555
O8 C29 1_555 1_555
O9 Sr1 1_555 1_555
O10 Sr3 1_555 1_555
O11 Sr3 1_555 1_555
H1 O11 1_555 1_555
H2 O11 1_555 1_555
O12 Sr3 1_555 1_555
H3 O12 1_555 1_555
H4 O12 1_555 1_555
O13 Sr3 1_555 1_555
H5 O13 1_555 1_555
H6 O13 1_555 1_555
O14 C48 1_555 1_555
O15 C48 1_555 1_555
C1 O2 1_555 1_555
C2 C1 1_555 1_555
C3 C2 1_555 1_555
H7 C3 1_555 1_555
C4 C3 1_555 1_555
H8 C4 1_555 1_555
C5 C4 1_555 1_555
C6 C5 1_555 1_555
H9 C6 1_555 1_555
C7 C2 1_555 1_555
H10 C7 1_555 1_555
C8 C5 1_555 1_555
C9 C8 1_555 1_555
H11 C9 1_555 1_555
C10 C9 1_555 1_555
C11 C10 1_555 1_555
H12 C11 1_555 1_555
C12 C11 1_555 1_555
C13 C8 1_555 1_555
H13 C13 1_555 1_555
C14 C12 1_555 1_555
C15 C14 1_555 1_555
H14 C15 1_555 1_555
C16 C14 1_555 1_555
H15 C16 1_555 1_555
C17 C16 1_555 1_555
H16 C17 1_555 1_555
C18 C10 1_555 1_555
C19 C18 1_555 1_555
H17 C19 1_555 1_555
C20 C18 1_555 1_555
H18 C20 1_555 1_555
C21 C20 1_555 1_555
H19 C21 1_555 1_555
C22 C23 1_555 1_555
C23 C24 1_555 1_555
C24 H20 1_555 1_555
C25 C23 1_555 1_555
H21 C25 1_555 1_555
C26 C27 1_555 1_555
C27 C21 1_555 1_555
C28 C19 1_555 1_555
H22 C28 1_555 1_555
C29 C30 1_555 1_555
C30 C17 1_555 1_555
C31 C15 1_555 1_555
H23 C31 1_555 1_555
C32 O9 1_555 1_555
C33 C32 1_555 1_555
C34 C33 1_555 1_555
H24 C34 1_555 1_555
C35 C34 1_555 1_555
H25 C35 1_555 1_555
C36 C35 1_555 1_555
C37 C36 1_555 1_555
H26 C37 1_555 1_555
C38 C33 1_555 1_555
H27 C38 1_555 1_555
C39 C36 1_555 1_555
C40 C39 1_555 1_555
H28 C40 1_555 1_555
C41 C40 1_555 1_555
C42 C41 1_555 1_555
H29 C42 1_555 1_555
C43 C42 1_555 1_555
C44 C39 1_555 1_555
H30 C44 1_555 1_555
C45 C41 1_555 1_555
C46 C24 1_555 1_555
H31 C46 1_555 1_555
C47 C25 1_555 1_555
H32 C47 1_555 1_555
C48 C49 1_555 1_555
C49 C50 1_555 1_555
C50 H33 1_555 1_555
C51 C50 1_555 1_555
H34 C51 1_555 1_555
C52 C43 1_555 1_555
C53 C52 1_555 1_555
H35 C53 1_555 1_555
C54 C49 1_555 1_555
H36 C54 1_555 1_555
N1 H37 1_555 1_555
H38 N1 1_555 1_555
C55 N1 1_555 1_555
H39 C55 1_555 1_555
H40 C55 1_555 1_555
H41 C55 1_555 1_555
C56 N1 1_555 1_555
H42 C56 1_555 1_555
H43 C56 1_555 1_555
H44 C56 1_555 1_555
Sr1A O1A 1_555 1_555
Sr3A O1A 1_555 1_555
O1A C1A 1_555 1_555
O2A Sr1A 1_555 1_555
O3A C22A 1_555 1_555
O4A C22A 1_555 1_555
O5A Sr2 1_555 1_555
O6A C26A 1_555 1_555
O7A C29A 1_555 1_555
O8A C29A 1_555 1_555
O9A Sr1A 1_555 1_555
O10A Sr3A 1_555 1_555
O11A Sr3A 1_555 1_555
H1A O11A 1_555 1_555
H2A O11A 1_555 1_555
O12A Sr3A 1_555 1_555
H3A O12A 1_555 1_555
H4A O12A 1_555 1_555
O13A Sr3A 1_555 1_555
H5A O13A 1_555 1_555
H6A O13A 1_555 1_555
O14A C48A 1_555 1_555
O15A C48A 1_555 1_555
C1A O2A 1_555 1_555
C2A C1A 1_555 1_555
C3A C2A 1_555 1_555
H7A C3A 1_555 1_555
C4A C3A 1_555 1_555
H8A C4A 1_555 1_555
C5A C4A 1_555 1_555
C6A C5A 1_555 1_555
H9A C6A 1_555 1_555
C7A C2A 1_555 1_555
H10A C7A 1_555 1_555
C8A C5A 1_555 1_555
C9A C8A 1_555 1_555
H11A C9A 1_555 1_555
C10A C9A 1_555 1_555
C11A C10A 1_555 1_555
H12A C11A 1_555 1_555
C12A C11A 1_555 1_555
C13A C8A 1_555 1_555
H13A C13A 1_555 1_555
C14A C12A 1_555 1_555
C15A C14A 1_555 1_555
H14A C15A 1_555 1_555
C16A C14A 1_555 1_555
H15A C16A 1_555 1_555
C17A C16A 1_555 1_555
H16A C17A 1_555 1_555
C18A C10A 1_555 1_555
C19A C18A 1_555 1_555
H17A C19A 1_555 1_555
C20A C18A 1_555 1_555
H18A C20A 1_555 1_555
C21A C20A 1_555 1_555
H19A C21A 1_555 1_555
C22A C23A 1_555 1_555
C23A C24A 1_555 1_555
C24A H20A 1_555 1_555
C25A C23A 1_555 1_555
H21A C25A 1_555 1_555
C26A O5A 1_555 1_555
C27A C21A 1_555 1_555
C28A C19A 1_555 1_555
H22A C28A 1_555 1_555
C29A C30A 1_555 1_555
C30A C17A 1_555 1_555
C31A C15A 1_555 1_555
H23A C31A 1_555 1_555
C32A O9A 1_555 1_555
C33A C32A 1_555 1_555
C34A C33A 1_555 1_555
H24A C34A 1_555 1_555
C35A C34A 1_555 1_555
H25A C35A 1_555 1_555
C36A C35A 1_555 1_555
C37A C36A 1_555 1_555
H26A C37A 1_555 1_555
C38A C33A 1_555 1_555
H27A C38A 1_555 1_555
C39A C36A 1_555 1_555
C40A C39A 1_555 1_555
H28A C40A 1_555 1_555
C41A C40A 1_555 1_555
C42A C41A 1_555 1_555
H29A C42A 1_555 1_555
C43A C42A 1_555 1_555
C44A C39A 1_555 1_555
H30A C44A 1_555 1_555
C45A C41A 1_555 1_555
C46A C24A 1_555 1_555
H31A C46A 1_555 1_555
C47A C25A 1_555 1_555
H32A C47A 1_555 1_555
C48A C49A 1_555 1_555
C49A C50A 1_555 1_555
C50A H33A 1_555 1_555
C51A C50A 1_555 1_555
H34A C51A 1_555 1_555
C52A C43A 1_555 1_555
C53A C52A 1_555 1_555
H35A C53A 1_555 1_555
C54A C49A 1_555 1_555
H36A C54A 1_555 1_555
Sr1_2 O3 1_555 1_555
Sr1A_2 O3A 1_555 1_555
Sr1D O7A 1_555 1_555
Sr1E O7 1_555 1_555
Sr1F O6A 1_555 1_555
Sr1G O6 1_555 1_555
Sr2_2 O4 1_555 1_555
Sr2A O4A 1_555 1_555
Sr2A_2 O5 1_555 1_555
Sr3B O14 1_555 1_555
Sr3C O14A 1_555 1_555
Sr3D O7A 1_555 1_555
Sr3E O7 1_555 1_555
O2F Sr2 1_555 1_555
O3_2 Sr1 1_555 1_555
O3A_2 Sr1A 1_555 1_555
O4_2 Sr1 1_555 1_555
O4A_2 Sr1A 1_555 1_555
O4F Sr2 1_555 1_555
O5G Sr2 1_555 1_555
O6F Sr1A 1_555 1_555
O6G Sr1 1_555 1_555
O7D Sr1A 1_555 1_555
O7E Sr1 1_555 1_555
O8D Sr1A 1_555 1_555
O8E Sr1 1_555 1_555
O14B Sr3 1_555 1_555
O14C Sr3A 1_555 1_555
Sr2 O4_2 1_555 1_555
Sr3 O9 1_555 1_555
Sr3 O7E 1_555 1_555
O4 Sr1_2 1_555 1_555
O8 Sr1E 1_555 1_555
O10 C32 1_555 1_555
C6 C7 1_555 1_555
C12 C13 1_555 1_555
C27 C28 1_555 1_555
C30 C31 1_555 1_555
C37 C38 1_555 1_555
C43 C44 1_555 1_555
C45 C46 1_555 1_555
C45 C47 1_555 1_555
C51 C52 1_555 1_555
C53 C54 1_555 1_555
Sr3A O9A 1_555 1_555
Sr3A O7D 1_555 1_555
O2A Sr2A_2 1_555 1_555
O4A Sr1A_2 1_555 1_555
O8A Sr1D 1_555 1_555
O10A C32A 1_555 1_555
C6A C7A 1_555 1_555
C12A C13A 1_555 1_555
C26A C27A 1_555 1_555
C27A C28A 1_555 1_555
C30A C31A 1_555 1_555
C37A C38A 1_555 1_555
C43A C44A 1_555 1_555
C45A C46A 1_555 1_555
C45A C47A 1_555 1_555
C51A C52A 1_555 1_555
C53A C54A 1_555 1_555
Sr1F O2F 1_555 1_555
Sr1F O4F 1_555 1_555
Sr2A_2 O4A_2 1_555 1_555

#END
