
#######################################################################
#
#                 Cambridge Crystallographic Data Centre
#                                CCDC 
#
#######################################################################
#
# If this CIF has been generated from an entry in the Cambridge 
# Structural Database, then it will include bibliographic, chemical, 
# crystal, experimental, refinement or atomic coordinate data resulting 
# from the CCDC's data processing and validation procedures.
#
#######################################################################

data_KAKCEH
_chemical_formula_moiety         '(C29 H25 Ba1 N1 O7)n'
_symmetry_cell_setting           orthorhombic
_symmetry_space_group_name_H-M   'P n a 21'
_symmetry_Int_Tables_number      33
_space_group_name_Hall           'P 2c -2n'
loop_
_symmetry_equiv_pos_site_id
_symmetry_equiv_pos_as_xyz
1 x,y,z
2 -x,-y,1/2+z
3 1/2-x,1/2+y,1/2+z
4 1/2+x,1/2-y,z
_cell_length_a                   7.2993(2)
_cell_length_b                   19.3615(6)
_cell_length_c                   26.0984(9)
_cell_angle_alpha                90
_cell_angle_beta                 90
_cell_angle_gamma                90
_cell_volume                     3688.37
loop_
_atom_site_label
_atom_site_type_symbol
_atom_site_fract_x
_atom_site_fract_y
_atom_site_fract_z
Ba1 Ba 0.12795(7) 0.69239(2) 0.98982(5)
O1 O -0.4487(13) 0.1289(4) 1.4057(3)
O2 O -0.3298(10) 0.2320(4) 1.4189(3)
O3 O 0.0038(9) -0.1737(3) 0.9968(5)
O4 O 0.2767(10) -0.1838(3) 1.0327(3)
O5 O 0.176(2) 0.6653(11) 1.0942(6)
H1 H 0.1279 0.6958 1.1235
H2 H 0.2457 0.6239 1.1094
O6 O 0.0736(12) 0.5507(4) 1.0036(3)
O7 O -0.0735(13) 0.5010(4) 0.9393(4)
C1 C -0.3540(14) 0.1808(5) 1.3913(4)
C2 C -0.2857(14) 0.1819(5) 1.3375(4)
C3 C -0.2017(14) 0.2391(6) 1.3182(4)
H3 H -0.1844 0.2772 1.3393
C4 C -0.1409(13) 0.2417(5) 1.2675(4)
H4 H -0.0812 0.2810 1.2556
C5 C -0.1684(14) 0.1863(5) 1.2346(4)
C6 C -0.2602(16) 0.1279(5) 1.2538(4)
H5 H -0.2782 0.0899 1.2325
C7 C -0.3236(18) 0.1255(6) 1.3032(5)
H6 H -0.3909 0.0877 1.3144
C8 C 0.0035(14) 0.4996(5) 0.9848(6)
C9 C -0.0104(15) 0.4331(5) 1.0130(4)
C10 C -0.0699(14) 0.3720(5) 0.9900(7)
H7 H -0.1061 0.3724 0.9558
C11 C -0.0756(18) 0.3116(5) 1.0170(5)
H8 H -0.1104 0.2711 1.0006
C12 C -0.0292(13) 0.3098(4) 1.0699(4)
C13 C 0.0279(15) 0.3714(5) 1.0924(4)
H9 H 0.0592 0.3717 1.1270
C14 C 0.0393(14) 0.4322(5) 1.0645(4)
H10 H 0.0801 0.4724 1.0802
C15 C -0.0457(14) 0.2456(5) 1.1004(4)
C16 C 0.0019(12) 0.1830(4) 1.0778(4)
H11 H 0.0296 0.1814 1.0430
C17 C 0.0083(13) 0.1222(5) 1.1071(4)
C18 C -0.0456(14) 0.1256(5) 1.1580(4)
H12 H -0.0464 0.0853 1.1774
C19 C -0.0981(13) 0.1871(5) 1.1809(4)
C20 C -0.0962(11) 0.2470(5) 1.1511(4)
H13 H -0.1299 0.2888 1.1659
C21 C 0.0543(14) 0.0548(5) 1.0829(4)
C22 C 0.1580(14) 0.0055(6) 1.1105(5)
H14 H 0.2054 0.0170 1.1425
C23 C 0.1895(15) -0.0594(5) 1.0904(4)
H15 H 0.2607 -0.0910 1.1084
C24 C 0.0199(14) -0.0288(5) 1.0161(4)
H16 H -0.0274 -0.0404 0.9841
C25 C -0.0077(14) 0.0371(5) 1.0348(4)
H17 H -0.0685 0.0697 1.0149
C26 C 0.1150(12) -0.0776(5) 1.0432(4)
C27 C 0.1339(14) -0.1498(6) 1.0239(5)
Ba1_2 Ba 0.12795(7) -0.30761(2) 0.98982(5)
Ba1A Ba -0.12795(7) 0.30761(2) 1.48982(5)
Ba1B Ba -0.62795(7) 0.19239(2) 1.48982(5)
Ba1C Ba -0.37205(7) -0.19239(2) 0.98982(5)
Ba1C_2 Ba 0.62795(7) -0.19239(2) 0.98982(5)
O1B O -0.0513(13) 0.6289(4) 0.9057(3)
O2A O 0.3298(10) 0.7680(4) 0.9189(3)
O2B O -0.1702(10) 0.7320(4) 0.9189(3)
O3_2 O 0.0038(9) 0.8263(3) 0.9968(5)
O3C O 0.5038(9) 0.6737(3) 0.9968(5)
O4_2 O 0.2767(10) 0.8162(3) 1.0327(3)
O4C O -0.2233(10) 0.6838(3) 1.0327(3)
C28 C 0.392(16) 0.473(4) 0.851(3)
C29 C 0.294(9) 0.547(3) 0.779(3)
N1 N 0.397(5) 0.538(3) 0.841(3)
loop_
_geom_bond_atom_site_label_1
_geom_bond_atom_site_label_2
_geom_bond_site_symmetry_1
_geom_bond_site_symmetry_2
Ba1 O5 1_555 1_555
O1 C1 1_555 1_555
O2 C1 1_555 1_555
O3 C27 1_555 1_555
O4 C27 1_555 1_555
O5 H1 1_555 1_555
H2 O5 1_555 1_555
O6 Ba1 1_555 1_555
O7 C8 1_555 1_555
C1 C2 1_555 1_555
C2 C3 1_555 1_555
C3 H3 1_555 1_555
C4 C3 1_555 1_555
H4 C4 1_555 1_555
C5 C4 1_555 1_555
C6 C5 1_555 1_555
H5 C6 1_555 1_555
C7 C2 1_555 1_555
H6 C7 1_555 1_555
C8 O6 1_555 1_555
C9 C8 1_555 1_555
C10 C9 1_555 1_555
H7 C10 1_555 1_555
C11 C10 1_555 1_555
H8 C11 1_555 1_555
C12 C11 1_555 1_555
C13 C12 1_555 1_555
H9 C13 1_555 1_555
C14 C9 1_555 1_555
H10 C14 1_555 1_555
C15 C12 1_555 1_555
C16 C15 1_555 1_555
H11 C16 1_555 1_555
C17 C16 1_555 1_555
C18 C17 1_555 1_555
H12 C18 1_555 1_555
C19 C5 1_555 1_555
C20 C15 1_555 1_555
H13 C20 1_555 1_555
C21 C17 1_555 1_555
C22 C21 1_555 1_555
H14 C22 1_555 1_555
C23 C22 1_555 1_555
H15 C23 1_555 1_555
C24 H16 1_555 1_555
C25 C21 1_555 1_555
H17 C25 1_555 1_555
C26 C23 1_555 1_555
C27 C26 1_555 1_555
C28 N1 1_555 1_555
C29 N1 1_555 1_555
Ba1_2 O3 1_555 1_555
Ba1A O2 1_555 1_555
Ba1B O1 1_555 1_555
Ba1C O3 1_555 1_555
Ba1C_2 O4 1_555 1_555
O1B Ba1 1_555 1_555
O2A Ba1 1_555 1_555
O2B Ba1 1_555 1_555
O3_2 Ba1 1_555 1_555
O3C Ba1 1_555 1_555
O4_2 Ba1 1_555 1_555
O4C Ba1 1_555 1_555
O2 Ba1B 1_555 1_555
O4 Ba1_2 1_555 1_555
C6 C7 1_555 1_555
C13 C14 1_555 1_555
C18 C19 1_555 1_555
C19 C20 1_555 1_555
C24 C25 1_555 1_555
C24 C26 1_555 1_555

#END
