
#######################################################################
#
#                 Cambridge Crystallographic Data Centre
#                                CCDC 
#
#######################################################################
#
# If this CIF has been generated from an entry in the Cambridge 
# Structural Database, then it will include bibliographic, chemical, 
# crystal, experimental, refinement or atomic coordinate data resulting 
# from the CCDC's data processing and validation procedures.
#
#######################################################################

data_WAHREE
_chemical_formula_moiety         '(C51 H28 Co2 F18 O13)n'
_symmetry_cell_setting           monoclinic
_symmetry_space_group_name_H-M   'P 2/c'
_symmetry_Int_Tables_number      13
_space_group_name_Hall           '-P 2yc'
loop_
_symmetry_equiv_pos_site_id
_symmetry_equiv_pos_as_xyz
1 x,y,z
2 -x,y,1/2-z
3 -x,-y,-z
4 x,-y,1/2+z
_cell_length_a                   18.9503(19)
_cell_length_b                   7.1992(7)
_cell_length_c                   23.5351(17)
_cell_angle_alpha                90
_cell_angle_beta                 123.836(5)
_cell_angle_gamma                90
_cell_volume                     2667.02
loop_
_atom_site_label
_atom_site_type_symbol
_atom_site_fract_x
_atom_site_fract_y
_atom_site_fract_z
C1 C 0.4189(3) 1.3609(6) 0.88201(19)
C2 C 0.4052(3) 0.6854(6) 0.5314(2)
C3 C 0.3682(2) 0.9486(6) 0.57821(19)
H1 H 0.4134 1.0148 0.5831
C4 C 0.3493(3) 0.7684(6) 0.5503(2)
C5 C 0.2812(3) 0.6778(6) 0.5415(2)
H2 H 0.2668 0.5615 0.5208
C6 C 0.2783(3) 0.1724(6) 0.4233(2)
C7 C 0.1382(3) 1.1601(6) 0.5565(2)
C8 C 0.1451(3) 0.8864(7) 0.6257(3)
C9 C -0.0151(3) -0.4477(6) 0.2955(3)
C10 C 0.3646(2) 1.2784(6) 0.81218(18)
C11 C 0.3782(3) 1.0984(6) 0.7994(2)
H3 H 0.4226 1.0286 0.8342
C12 C 0.1988(2) 1.0242(6) 0.61457(18)
C13 C 0.2512(2) 0.9312(6) 0.59163(19)
C14 C 0.2573(2) 1.1247(5) 0.68324(17)
C15 C 0.3187(3) 1.0257(6) 0.5984(2)
H4 H 0.3312 1.1446 0.6170
C16 C 0.2322(3) 0.7556(6) 0.5628(2)
H5 H 0.1868 0.6895 0.5577
C17 C 0.2974(3) 1.3805(6) 0.7608(2)
H6 H 0.2876 1.5007 0.7693
C18 C 0.3266(3) 1.0240(6) 0.7358(2)
H7 H 0.3374 0.9050 0.7271
C19 C 0.2241(3) -0.1173(6) 0.3571(2)
H8 H 0.2780 -0.1414 0.3669
C20 C 0.2099(2) 0.0391(5) 0.3840(2)
C21 C 0.1303(3) 0.0682(6) 0.3707(2)
H9 H 0.1205 0.1696 0.3899
C22 C 0.0661(3) -0.0511(6) 0.3296(2)
H10 H 0.0128 -0.0307 0.3214
C23 C 0.0000 -0.3244(8) 0.2500
C24 C 0.0781(3) -0.2027(5) 0.2995(2)
C25 C 0.1577(3) -0.2366(6) 0.3157(2)
H11 H 0.1678 -0.3425 0.2986
C26 C 0.2450(2) 1.3028(6) 0.69673(18)
H12 H 0.2003 1.3725 0.6620
Co1 Co 0.44930(3) 0.33133(7) 0.47548(3)
F1 F 0.17965(17) 1.2990(4) 0.55159(13)
F2 F 0.09619(17) 1.0751(4) 0.49645(13)
F3 F 0.08051(16) 1.2350(4) 0.56467(12)
F4 F 0.08104(16) 0.8153(3) 0.56777(14)
F5 F 0.19100(19) 0.7486(4) 0.66558(14)
F6 F 0.11182(18) 0.9703(4) 0.65618(14)
F7 F -0.04580(18) -0.3538(4) 0.32523(15)
F8 F -0.07045(18) -0.5885(4) 0.25998(14)
F9 F 0.05755(17) -0.5255(4) 0.34651(13)
O1 O 0.48120(18) 1.2655(4) 0.92714(13)
O2 O 0.3973(2) 1.5156(4) 0.89179(15)
O3 O 0.38634(18) 0.5266(4) 0.50362(15)
O4 O 0.46783(19) 0.7732(4) 0.54324(15)
O5 O 0.2564(2) 0.3165(4) 0.44353(16)
H13 H 0.2985 0.3803 0.4688
O6 O 0.34918(19) 0.1525(4) 0.43569(14)
C1A C -0.4189(3) 1.3609(6) -0.38201(19)
C2A C -0.4052(3) 0.6854(6) -0.0314(2)
C3A C -0.3682(2) 0.9486(6) -0.07821(19)
H1A H -0.4134 1.0148 -0.0831
C4A C -0.3493(3) 0.7684(6) -0.0503(2)
C5A C -0.2812(3) 0.6778(6) -0.0415(2)
H2A H -0.2668 0.5615 -0.0208
C6A C -0.2783(3) 0.1724(6) 0.0767(2)
C7A C -0.1382(3) 1.1601(6) -0.0565(2)
C8A C -0.1451(3) 0.8864(7) -0.1257(3)
C9A C 0.0151(3) -0.4477(6) 0.2045(3)
C10A C -0.3646(2) 1.2784(6) -0.31218(18)
C11A C -0.3782(3) 1.0984(6) -0.2994(2)
H3A H -0.4226 1.0286 -0.3342
C12A C -0.1988(2) 1.0242(6) -0.11457(18)
C13A C -0.2512(2) 0.9312(6) -0.09163(19)
C14A C -0.2573(2) 1.1247(5) -0.18324(17)
C15A C -0.3187(3) 1.0257(6) -0.0984(2)
H4A H -0.3312 1.1446 -0.1170
C16A C -0.2322(3) 0.7556(6) -0.0628(2)
H5A H -0.1868 0.6895 -0.0577
C17A C -0.2974(3) 1.3805(6) -0.2608(2)
H6A H -0.2876 1.5007 -0.2693
C18A C -0.3266(3) 1.0240(6) -0.2358(2)
H7A H -0.3374 0.9050 -0.2271
C19A C -0.2241(3) -0.1173(6) 0.1429(2)
H8A H -0.2780 -0.1414 0.1331
C20A C -0.2099(2) 0.0391(5) 0.1160(2)
C21A C -0.1303(3) 0.0682(6) 0.1293(2)
H9A H -0.1205 0.1696 0.1101
C22A C -0.0661(3) -0.0511(6) 0.1704(2)
H10A H -0.0128 -0.0307 0.1786
C24A C -0.0781(3) -0.2027(5) 0.2005(2)
C25A C -0.1577(3) -0.2366(6) 0.1843(2)
H11A H -0.1678 -0.3425 0.2014
C26A C -0.2450(2) 1.3028(6) -0.19673(18)
H12A H -0.2003 1.3725 -0.1620
Co1A Co -0.44930(3) 0.33133(7) 0.02452(3)
Co1_2 Co -0.55070(3) 1.33133(7) -0.52452(3)
Co1A_2 Co 0.55070(3) 1.33133(7) 1.02452(3)
Co1B Co -0.44930(3) 1.66867(7) -0.47548(3)
Co1B_2 Co 0.55070(3) 0.66867(7) 0.52452(3)
Co1C Co -0.55070(3) 0.66867(7) -0.02452(3)
Co1C_2 Co 0.44930(3) 1.66867(7) 0.97548(3)
F1A F -0.17965(17) 1.2990(4) -0.05159(13)
F2A F -0.09619(17) 1.0751(4) 0.00355(13)
F3A F -0.08051(16) 1.2350(4) -0.06467(12)
F4A F -0.08104(16) 0.8153(3) -0.06777(14)
F5A F -0.19100(19) 0.7486(4) -0.16558(14)
F6A F -0.11182(18) 0.9703(4) -0.15618(14)
F7A F 0.04580(18) -0.3538(4) 0.17477(15)
F8A F 0.07045(18) -0.5885(4) 0.24002(14)
F9A F -0.05755(17) -0.5255(4) 0.15349(13)
O1A O -0.48120(18) 1.2655(4) -0.42714(13)
O1_2 O -0.51880(18) 0.2655(4) -0.07286(13)
O1A_2 O 0.51880(18) 0.2655(4) 0.57286(13)
O2A O -0.3973(2) 1.5156(4) -0.39179(15)
O2B O -0.3973(2) 0.4844(4) 0.10821(15)
O2C O 0.3973(2) 0.4844(4) 0.39179(15)
O3A O -0.38634(18) 0.5266(4) -0.00362(15)
O4A O -0.46783(19) 0.7732(4) -0.04324(15)
O4B O 0.53217(19) 0.2268(4) 0.45676(15)
O4C O -0.53217(19) 0.2268(4) 0.04324(15)
O5A O -0.2564(2) 0.3165(4) 0.05647(16)
H13A H -0.2985 0.3803 0.0312
O6A O -0.34918(19) 0.1525(4) 0.06431(14)
O7 O 0.4297(4) 0.5837(9) 0.7106(3)
H14 H 0.4815 0.6094 0.7291
H15 H 0.4246 0.4953 0.7321
loop_
_geom_bond_atom_site_label_1
_geom_bond_atom_site_label_2
_geom_bond_site_symmetry_1
_geom_bond_site_symmetry_2
C1 C10 1_555 1_555
C2 C4 1_555 1_555
C3 H1 1_555 1_555
C4 C3 1_555 1_555
C5 C4 1_555 1_555
H2 C5 1_555 1_555
C6 C20 1_555 1_555
C7 C12 1_555 1_555
C8 C12 1_555 1_555
C9 C23 1_555 1_555
C10 C11 1_555 1_555
C11 H3 1_555 1_555
C12 C13 1_555 1_555
C13 C15 1_555 1_555
C14 C12 1_555 1_555
C15 C3 1_555 1_555
H4 C15 1_555 1_555
C16 C5 1_555 1_555
H5 C16 1_555 1_555
C17 C10 1_555 1_555
H6 C17 1_555 1_555
C18 C11 1_555 1_555
H7 C18 1_555 1_555
C19 H8 1_555 1_555
C20 C19 1_555 1_555
C21 C20 1_555 1_555
H9 C21 1_555 1_555
C22 C21 1_555 1_555
H10 C22 1_555 1_555
C23 C24 1_555 1_555
C24 C22 1_555 1_555
C25 C19 1_555 1_555
H11 C25 1_555 1_555
C26 C14 1_555 1_555
H12 C26 1_555 1_555
Co1 O3 1_555 1_555
F1 C7 1_555 1_555
F2 C7 1_555 1_555
F3 C7 1_555 1_555
F4 C8 1_555 1_555
F5 C8 1_555 1_555
F6 C8 1_555 1_555
F7 C9 1_555 1_555
F8 C9 1_555 1_555
F9 C9 1_555 1_555
O1 C1 1_555 1_555
O2 C1 1_555 1_555
O3 C2 1_555 1_555
O4 C2 1_555 1_555
O5 C6 1_555 1_555
H13 O5 1_555 1_555
O6 C6 1_555 1_555
O7 H14 1_555 1_555
H15 O7 1_555 1_555
C1A C10A 1_555 1_555
C2A C4A 1_555 1_555
C3A H1A 1_555 1_555
C4A C3A 1_555 1_555
C5A C4A 1_555 1_555
H2A C5A 1_555 1_555
C6A C20A 1_555 1_555
C7A C12A 1_555 1_555
C8A C12A 1_555 1_555
C9A C23 1_555 1_555
C10A C11A 1_555 1_555
C11A H3A 1_555 1_555
C12A C13A 1_555 1_555
C13A C15A 1_555 1_555
C14A C12A 1_555 1_555
C15A C3A 1_555 1_555
H4A C15A 1_555 1_555
C16A C5A 1_555 1_555
H5A C16A 1_555 1_555
C17A C10A 1_555 1_555
H6A C17A 1_555 1_555
C18A C11A 1_555 1_555
H7A C18A 1_555 1_555
C19A H8A 1_555 1_555
C20A C19A 1_555 1_555
C21A C20A 1_555 1_555
H9A C21A 1_555 1_555
C22A C21A 1_555 1_555
H10A C22A 1_555 1_555
C24A C23 1_555 1_555
C25A C19A 1_555 1_555
H11A C25A 1_555 1_555
C26A C14A 1_555 1_555
H12A C26A 1_555 1_555
Co1A Co1C 1_555 1_555
Co1_2 Co1B 1_555 1_555
Co1A_2 O1 1_555 1_555
Co1B O2A 1_555 1_555
Co1B_2 Co1 1_555 1_555
Co1C O4A 1_555 1_555
Co1C_2 O2 1_555 1_555
F1A C7A 1_555 1_555
F2A C7A 1_555 1_555
F3A C7A 1_555 1_555
F4A C8A 1_555 1_555
F5A C8A 1_555 1_555
F6A C8A 1_555 1_555
F7A C9A 1_555 1_555
F8A C9A 1_555 1_555
F9A C9A 1_555 1_555
O1A C1A 1_555 1_555
O1_2 Co1A 1_555 1_555
O1A_2 Co1 1_555 1_555
O2A C1A 1_555 1_555
O2B Co1A 1_555 1_555
O2C Co1 1_555 1_555
O3A C2A 1_555 1_555
O4A C2A 1_555 1_555
O4B Co1 1_555 1_555
O4C Co1A 1_555 1_555
O5A C6A 1_555 1_555
H13A O5A 1_555 1_555
O6A C6A 1_555 1_555
C13 C16 1_555 1_555
C14 C18 1_555 1_555
C17 C26 1_555 1_555
C24 C25 1_555 1_555
Co1 O6 1_555 1_555
O4 Co1B_2 1_555 1_555
C13A C16A 1_555 1_555
C14A C18A 1_555 1_555
C17A C26A 1_555 1_555
C22A C24A 1_555 1_555
C24A C25A 1_555 1_555
Co1A O3A 1_555 1_555
Co1A O6A 1_555 1_555
Co1_2 O1A 1_555 1_555
Co1A_2 Co1C_2 1_555 1_555

#END
