
#######################################################################
#
#                 Cambridge Crystallographic Data Centre
#                                CCDC 
#
#######################################################################
#
# If this CIF has been generated from an entry in the Cambridge 
# Structural Database, then it will include bibliographic, chemical, 
# crystal, experimental, refinement or atomic coordinate data resulting 
# from the CCDC's data processing and validation procedures.
#
#######################################################################

data_UJUPOG
_chemical_formula_moiety         '(C18 H45 N15 O8 S2 Zn2)n'
_symmetry_cell_setting           orthorhombic
_symmetry_space_group_name_H-M   'P 21 21 21'
_symmetry_Int_Tables_number      19
_space_group_name_Hall           'P 2ac 2ab'
loop_
_symmetry_equiv_pos_site_id
_symmetry_equiv_pos_as_xyz
1 x,y,z
2 1/2-x,-y,1/2+z
3 -x,1/2+y,1/2-z
4 1/2+x,1/2-y,-z
_cell_length_a                   15.7886(13)
_cell_length_b                   15.9425(9)
_cell_length_c                   16.3286(7)
_cell_angle_alpha                90
_cell_angle_beta                 90
_cell_angle_gamma                90
_cell_volume                     4110.07
loop_
_atom_site_label
_atom_site_type_symbol
_atom_site_fract_x
_atom_site_fract_y
_atom_site_fract_z
_atom_site_U_iso_or_equiv
_atom_site_thermal_displace_type
Zn1 Zn 0.29782(9) 1.18239(9) 0.16349(8) 0.0632 Uani
Zn2 Zn 0.35625(8) 0.84386(9) 0.32429(8) 0.0632 Uani
S1 S 0.2438(2) 0.7244(2) 0.2232(2) 0.0737 Uani
S2 S 0.1925(3) 1.2819(3) 0.2861(2) 0.0907 Uani
N1 N 0.3569(6) 0.9508(6) 0.2637(6) 0.0617 Uani
N2 N 0.3386(6) 1.0749(7) 0.2141(6) 0.0653 Uani
N3 N 0.2017(7) 1.1419(7) -0.0688(6) 0.0793 Uani
C1 C 0.3018(8) 1.0140(8) 0.2491(7) 0.0620 Uani
N4 N 0.5995(7) 0.7531(7) 0.3524(5) 0.0660 Uani
N5 N 0.4758(6) 0.8101(6) 0.3499(5) 0.0593 Uani
N6 N 0.2529(7) 1.1508(6) 0.0537(6) 0.0697 Uani
C2 C 0.5338(8) 0.7720(7) 0.3057(6) 0.0617 Uani
C3 C 0.2218(7) 1.1929(7) -0.0097(7) 0.0590 Uani
O1 O 0.3198(8) 0.7460(9) 0.2658(8) 0.1350 Uani
N7 N 0.4236(7) 1.0537(9) 0.2066(9) 0.1017 Uani
N8 N 0.4347(7) 0.9814(9) 0.2380(8) 0.0980 Uani
N9 N 0.5036(9) 0.8125(9) 0.4284(7) 0.0960 Uani
N10 N 0.5791(8) 0.7769(9) 0.4306(7) 0.0930 Uani
C4 C 0.2099(8) 1.0072(10) 0.2611(11) 0.1087 Uani
H1 H 0.1972 0.9557 0.2890 0.1300 Uiso
H2 H 0.1904 1.0537 0.2933 0.1300 Uiso
H3 H 0.1821 1.0077 0.2088 0.1300 Uiso
O2 O 0.1847(8) 0.7936(8) 0.2207(9) 0.1347 Uani
C5 C 0.5300(9) 0.7588(12) 0.2191(8) 0.1047 Uani
H4 H 0.5799 0.7296 0.2014 0.1260 Uiso
H5 H 0.4808 0.7260 0.2060 0.1260 Uiso
H6 H 0.5267 0.8120 0.1917 0.1260 Uiso
O3 O 0.2070(9) 0.6567(8) 0.2690(9) 0.1407 Uani
O4 O 0.2669(12) 0.6939(9) 0.1464(6) 0.1567 Uani
N11 N 0.2222(12) 1.0623(8) -0.0409(9) 0.1223 Uani
O5 O 0.2026(8) 1.2329(10) 0.2120(8) 0.1313 Uani
C6 C 0.2093(12) 1.2833(9) -0.0107(8) 0.1003 Uani
H7 H 0.2292 1.3068 0.0399 0.1200 Uiso
H8 H 0.2404 1.3072 -0.0555 0.1200 Uiso
H9 H 0.1501 1.2955 -0.0172 0.1200 Uiso
N12 N 0.2502(12) 1.0698(8) 0.0341(8) 0.1180 Uani
O6 O 0.1112(9) 1.304(2) 0.2961(12) 0.3063 Uani
O7 O 0.2580(14) 1.3445(14) 0.2927(11) 0.2063 Uani
O8 O 0.215(2) 1.237(2) 0.3529(8) 0.3177 Uani
Zn1B Zn 0.70218(9) 0.68239(9) 0.33651(8) 0.0632 Uani
Zn2A Zn 0.14375(8) 1.15614(9) -0.17571(8) 0.0632 Uani
N3A N 0.2983(7) 0.8581(7) 0.4312(6) 0.0793 Uani
N4B N 0.4005(7) 1.2531(7) 0.1476(5) 0.0660 Uani
N13 N 0.7175(8) 0.9994(9) 0.2622(9) 0.1287 Uani
H10 H 0.7456 1.0457 0.2484 0.1550 Uiso
H11 H 0.7435 0.9550 0.2409 0.1550 Uiso
C7 C 0.6486(16) 1.0132(12) 0.1441(10) 0.1753 Uani
H12 H 0.5973 1.0175 0.1129 0.2110 Uiso
H13 H 0.6819 1.0630 0.1363 0.2110 Uiso
H14 H 0.6802 0.9652 0.1263 0.2110 Uiso
C8 C 0.6265(9) 1.004(3) 0.2362(9) 0.2423 Uani
H15 H 0.5970 1.0521 0.2583 0.2910 Uiso
H16 H 0.5953 0.9528 0.2481 0.2910 Uiso
C9 C 0.7078(12) 0.992(2) 0.3532(8) 0.2003 Uani
H17 H 0.6787 0.9404 0.3683 0.2390 Uiso
H18 H 0.6777 1.0394 0.3761 0.2390 Uiso
C10 C 0.8017(12) 0.990(2) 0.3808(17) 0.2300 Uani
H19 H 0.7833 0.9757 0.4349 0.2790 Uiso
H20 H 0.8405 0.9488 0.3610 0.2790 Uiso
H21 H 0.8295 1.0440 0.3824 0.2790 Uiso
N14 N -0.0227(10) 1.2310(10) 0.2099(7) 0.1470 Uani
H22 H -0.0724 1.2455 0.2314 0.1770 Uiso
H23 H 0.0187 1.2575 0.2364 0.1770 Uiso
C11 C -0.0197(17) 1.2482(11) 0.1196(8) 0.1733 Uani
H24 H -0.0621 1.2165 0.0898 0.2060 Uiso
H25 H 0.0359 1.2374 0.0966 0.2060 Uiso
C12 C -0.0406(18) 1.3431(11) 0.1224(15) 0.1937 Uani
H26 H -0.0414 1.3652 0.0678 0.2330 Uiso
H27 H -0.0951 1.3511 0.1473 0.2330 Uiso
H28 H 0.0017 1.3718 0.1540 0.2330 Uiso
C13 C -0.0102(16) 1.1378(10) 0.2108(11) 0.1870 Uani
H29 H 0.0414 1.1232 0.1818 0.2240 Uiso
H30 H -0.0574 1.1102 0.1839 0.2240 Uiso
C14 C -0.004(2) 1.109(3) 0.3013(12) 0.2600 Uani
H31 H 0.0037 1.0494 0.3033 0.3140 Uiso
H32 H 0.0427 1.1364 0.3273 0.3140 Uiso
H33 H -0.0558 1.1235 0.3293 0.3140 Uiso
N15 N 0.2506(11) 0.8026(9) 0.0097(7) 0.1583 Uani
H34 H 0.2576 0.7646 0.0491 0.1900 Uiso
H35 H 0.2693 0.7818 -0.0376 0.1900 Uiso
C15 C 0.1601(10) 0.8305(15) 0.003(3) 0.2967 Uani
H36 H 0.1492 0.8648 -0.0444 0.3530 Uiso
H37 H 0.1401 0.8584 0.0526 0.3530 Uiso
C16 C 0.2931(11) 0.8840(14) 0.030(3) 0.2667 Uani
H38 H 0.2765 0.9042 0.0840 0.3200 Uiso
H39 H 0.2815 0.9268 -0.0103 0.3200 Uiso
C17 C 0.3873(13) 0.8564(17) 0.0288(15) 0.2033 Uani
H40 H 0.4227 0.9036 0.0414 0.2420 Uiso
H41 H 0.3962 0.8131 0.0687 0.2420 Uiso
H42 H 0.4012 0.8354 -0.0246 0.2420 Uiso
C18 C 0.126(2) 0.7398(15) -0.0052(18) 0.2700 Uani
H43 H 0.0652 0.7413 -0.0104 0.3250 Uiso
H44 H 0.1499 0.7141 -0.0530 0.3250 Uiso
H45 H 0.1410 0.7079 0.0424 0.3250 Uiso
loop_
_atom_site_aniso_label
_atom_site_aniso_U_11
_atom_site_aniso_U_22
_atom_site_aniso_U_33
_atom_site_aniso_U_23
_atom_site_aniso_U_13
_atom_site_aniso_U_12
Zn1 0.0613(7) 0.0622(8) 0.0660(8) 0.0032(7) -0.0053(6) -0.0059(7)
Zn2 0.0578(7) 0.0636(8) 0.0681(8) 0.0068(7) 0.0055(6) 0.0041(7)
S1 0.073(2) 0.072(2) 0.076(2) -0.0072(17) -0.0036(16) -0.001(2)
S2 0.083(2) 0.102(3) 0.087(2) -0.020(2) 0.0069(19) 0.004(3)
N1 0.061(6) 0.061(6) 0.063(5) 0.011(4) 0.004(5) 0.000(6)
N2 0.055(6) 0.061(6) 0.080(6) 0.022(5) 0.007(5) -0.002(5)
N3 0.095(7) 0.073(7) 0.070(6) -0.017(5) -0.034(6) 0.020(7)
C1 0.057(6) 0.062(7) 0.067(7) 0.005(6) 0.006(5) 0.001(7)
N4 0.080(6) 0.074(7) 0.044(5) -0.010(4) 0.000(4) 0.020(6)
N5 0.061(5) 0.061(5) 0.056(5) -0.004(4) -0.008(4) 0.002(5)
N6 0.092(7) 0.056(6) 0.061(5) -0.002(5) -0.013(5) -0.010(6)
C2 0.076(8) 0.062(7) 0.047(6) 0.007(5) 0.002(5) 0.014(7)
C3 0.061(6) 0.044(6) 0.072(7) -0.013(5) -0.018(5) 0.013(6)
O1 0.105(9) 0.131(11) 0.169(11) -0.039(9) -0.039(8) -0.001(8)
N7 0.056(7) 0.110(10) 0.139(11) 0.068(9) 0.014(7) -0.004(7)
N8 0.063(7) 0.104(10) 0.127(10) 0.052(9) 0.009(7) 0.005(7)
N9 0.101(9) 0.109(10) 0.078(7) -0.021(7) -0.012(6) 0.015(9)
N10 0.090(8) 0.113(10) 0.076(7) -0.018(7) -0.026(6) 0.039(8)
C4 0.044(6) 0.089(11) 0.193(17) 0.058(11) 0.016(10) 0.004(8)
O2 0.103(9) 0.108(9) 0.193(12) -0.033(9) -0.005(8) 0.034(8)
C5 0.080(9) 0.159(17) 0.075(9) -0.021(9) -0.017(7) 0.045(11)
O3 0.117(9) 0.098(8) 0.207(13) 0.033(9) 0.046(10) 0.015(9)
O4 0.256(18) 0.135(10) 0.079(7) -0.006(7) 0.024(9) 0.022(13)
N11 0.185(17) 0.064(8) 0.118(10) 0.005(7) -0.061(11) 0.023(10)
O5 0.092(8) 0.165(12) 0.137(9) -0.041(9) 0.011(7) -0.011(9)
C6 0.146(15) 0.068(8) 0.087(10) 0.002(7) -0.039(10) 0.019(11)
N12 0.192(16) 0.081(8) 0.081(8) -0.004(7) -0.055(9) 0.021(11)
O6 0.091(10) 0.60(5) 0.228(18) -0.22(3) -0.009(11) 0.06(2)
O7 0.213(19) 0.214(19) 0.192(15) -0.051(15) -0.018(14) -0.092(17)
O8 0.44(4) 0.43(4) 0.083(10) 0.058(16) -0.044(15) 0.16(3)
Zn1B 0.0613 0.0622 0.066 -0.0032 -0.0053 0.0059
Zn2A 0.0578 0.0636 0.0681 -0.0068 -0.0055 0.0041
N3A 0.095 0.073 0.07 0.017 0.034 0.02
N4B 0.08 0.074 0.044 0.01 0 -0.02
N13 0.120(10) 0.072(8) 0.194(13) 0.012(9) 0.018(10) 0.004(9)
C7 0.163(19) 0.099(13) 0.264(19) 0.082(14) -0.033(15) -0.075(14)
C8 0.137(14) 0.30(5) 0.29(2) 0.099(18) -0.006(14) -0.009(16)
C9 0.22(2) 0.16(2) 0.221(16) 0.039(14) 0.020(14) 0.00(2)
C10 0.23(2) 0.22(4) 0.24(2) 0.00(2) -0.008(19) 0.03(2)
N14 0.087(10) 0.222(16) 0.132(9) -0.056(11) 0.013(8) 0.003(12)
C11 0.142(19) 0.25(2) 0.128(11) -0.044(14) 0.016(11) 0.009(17)
C12 0.17(2) 0.25(2) 0.161(18) -0.028(16) 0.022(16) 0.013(18)
C13 0.093(15) 0.238(18) 0.230(19) -0.030(16) 0.007(15) -0.003(15)
C14 0.17(3) 0.35(3) 0.26(2) 0.03(2) 0.01(2) 0.02(3)
N15 0.214(16) 0.198(17) 0.063(7) 0.038(9) 0.006(9) 0.002(15)
C15 0.22(2) 0.37(3) 0.30(4) 0.00(3) -0.039(18) 0.012(19)
C16 0.25(2) 0.21(2) 0.34(4) 0.00(2) -0.05(2) -0.006(19)
C17 0.24(2) 0.18(2) 0.19(2) 0.07(2) -0.026(18) -0.024(19)
C18 0.27(3) 0.40(4) 0.14(2) 0.02(3) -0.03(2) -0.05(2)
loop_
_geom_bond_atom_site_label_1
_geom_bond_atom_site_label_2
_geom_bond_site_symmetry_1
_geom_bond_site_symmetry_2
Zn1 N2 1_555 1_555
Zn2 N1 1_555 1_555
S1 O1 1_555 1_555
S2 O5 1_555 1_555
N1 C1 1_555 1_555
N2 C1 1_555 1_555
N3 C3 1_555 1_555
C1 C4 1_555 1_555
N4 C2 1_555 1_555
N5 Zn2 1_555 1_555
N6 Zn1 1_555 1_555
C2 N5 1_555 1_555
C3 N6 1_555 1_555
O1 Zn2 1_555 1_555
N7 N2 1_555 1_555
N8 N1 1_555 1_555
N9 N5 1_555 1_555
N10 N4 1_555 1_555
C4 H1 1_555 1_555
H2 C4 1_555 1_555
H3 C4 1_555 1_555
O2 S1 1_555 1_555
C5 C2 1_555 1_555
H4 C5 1_555 1_555
H5 C5 1_555 1_555
H6 C5 1_555 1_555
O3 S1 1_555 1_555
O4 S1 1_555 1_555
N11 N3 1_555 1_555
O5 Zn1 1_555 1_555
C6 C3 1_555 1_555
H7 C6 1_555 1_555
H8 C6 1_555 1_555
H9 C6 1_555 1_555
N12 N6 1_555 1_555
O6 S2 1_555 1_555
O7 S2 1_555 1_555
O8 S2 1_555 1_555
N13 H10 1_555 1_555
H11 N13 1_555 1_555
C7 H12 1_555 1_555
H13 C7 1_555 1_555
H14 C7 1_555 1_555
C8 N13 1_555 1_555
H15 C8 1_555 1_555
H16 C8 1_555 1_555
C9 N13 1_555 1_555
H17 C9 1_555 1_555
H18 C9 1_555 1_555
C10 C9 1_555 1_555
H19 C10 1_555 1_555
H20 C10 1_555 1_555
H21 C10 1_555 1_555
N14 H22 1_555 1_555
H23 N14 1_555 1_555
C11 N14 1_555 1_555
H24 C11 1_555 1_555
H25 C11 1_555 1_555
C12 C11 1_555 1_555
H26 C12 1_555 1_555
H27 C12 1_555 1_555
H28 C12 1_555 1_555
C13 N14 1_555 1_555
H29 C13 1_555 1_555
H30 C13 1_555 1_555
C14 C13 1_555 1_555
H31 C14 1_555 1_555
H32 C14 1_555 1_555
H33 C14 1_555 1_555
N15 H34 1_555 1_555
H35 N15 1_555 1_555
C15 N15 1_555 1_555
H36 C15 1_555 1_555
H37 C15 1_555 1_555
C16 N15 1_555 1_555
H38 C16 1_555 1_555
H39 C16 1_555 1_555
C17 C16 1_555 1_555
H40 C17 1_555 1_555
H41 C17 1_555 1_555
H42 C17 1_555 1_555
C18 C15 1_555 1_555
H43 C18 1_555 1_555
H44 C18 1_555 1_555
H45 C18 1_555 1_555
Zn1B N4 1_555 1_555
Zn2A N3 1_555 1_555
N3A Zn2 1_555 1_555
N4B Zn1 1_555 1_555
N7 N8 1_555 1_555
N9 N10 1_555 1_555
N11 N12 1_555 1_555
C7 C8 1_555 1_555

#END
