
#######################################################################
#
#                 Cambridge Crystallographic Data Centre
#                                CCDC 
#
#######################################################################
#
# If this CIF has been generated from an entry in the Cambridge 
# Structural Database, then it will include bibliographic, chemical, 
# crystal, experimental, refinement or atomic coordinate data resulting 
# from the CCDC's data processing and validation procedures.
#
#######################################################################

data_UKACIU
_chemical_formula_moiety         '(C4 H6 N8 Zn1)n'
_symmetry_cell_setting           cubic
_symmetry_space_group_name_H-M   'I -4 3 m'
_symmetry_Int_Tables_number      217
_space_group_name_Hall           'I -4 2 3'
loop_
_symmetry_equiv_pos_site_id
_symmetry_equiv_pos_as_xyz
1 x,y,z
2 -x,-y,z
3 -x,y,-z
4 x,-y,-z
5 z,x,y
6 z,-x,-y
7 -z,-x,y
8 -z,x,-y
9 y,z,x
10 -y,z,-x
11 y,-z,-x
12 -y,-z,x
13 y,x,z
14 -y,-x,z
15 y,-x,-z
16 -y,x,-z
17 x,z,y
18 -x,z,-y
19 -x,-z,y
20 x,-z,-y
21 z,y,x
22 z,-y,-x
23 -z,y,-x
24 -z,-y,x
25 1/2+x,1/2+y,1/2+z
26 1/2-x,1/2-y,1/2+z
27 1/2-x,1/2+y,1/2-z
28 1/2+x,1/2-y,1/2-z
29 1/2+z,1/2+x,1/2+y
30 1/2+z,1/2-x,1/2-y
31 1/2-z,1/2-x,1/2+y
32 1/2-z,1/2+x,1/2-y
33 1/2+y,1/2+z,1/2+x
34 1/2-y,1/2+z,1/2-x
35 1/2+y,1/2-z,1/2-x
36 1/2-y,1/2-z,1/2+x
37 1/2+y,1/2+x,1/2+z
38 1/2-y,1/2-x,1/2+z
39 1/2+y,1/2-x,1/2-z
40 1/2-y,1/2+x,1/2-z
41 1/2+x,1/2+z,1/2+y
42 1/2-x,1/2+z,1/2-y
43 1/2-x,1/2-z,1/2+y
44 1/2+x,1/2-z,1/2-y
45 1/2+z,1/2+y,1/2+x
46 1/2+z,1/2-y,1/2-x
47 1/2-z,1/2+y,1/2-x
48 1/2-z,1/2-y,1/2+x
_cell_length_a                   17.1168(3)
_cell_length_b                   17.1168(3)
_cell_length_c                   17.1168(3)
_cell_angle_alpha                90
_cell_angle_beta                 90
_cell_angle_gamma                90
_cell_volume                     5014.96
loop_
_atom_site_label
_atom_site_type_symbol
_atom_site_fract_x
_atom_site_fract_y
_atom_site_fract_z
Zn1 Zn 1.0000 0.5000 0.2500
N1 N 1.0154(3) 0.4071(3) 0.3176(2)
N2 N 1.0820(4) 0.3653(4) 0.3130(4)
C1 C 0.9785(4) 0.3759(4) 0.3759(4)
C2 C 0.8981(8) 0.4006(8) 0.4006(8)
N1P N 1.0154(3) 0.3176(2) 0.4071(3)
N2P N 1.0820(4) 0.3130(4) 0.3653(4)
N1A N 0.9846(3) 0.5929(3) 0.3176(2)
N2A N 0.9180(4) 0.6347(4) 0.3130(4)
C1A C 1.0215(4) 0.6241(4) 0.3759(4)
C2A C 1.1019(8) 0.5994(8) 0.4006(8)
N1R N 0.9846(3) 0.6824(2) 0.4071(3)
N2R N 0.9180(4) 0.6870(4) 0.3653(4)
Zn1P Zn 1.0000 0.2500 0.5000
Zn1R Zn 1.0000 0.7500 0.5000
N1LA N 0.9071(3) 0.4846(3) 0.1824(2)
N1MA N 1.0929(3) 0.5154(3) 0.1824(2)
loop_
_geom_bond_atom_site_label_1
_geom_bond_atom_site_label_2
_geom_bond_site_symmetry_1
_geom_bond_site_symmetry_2
Zn1 N1 1_555 1_555
N1 N2 1_555 1_555
N2 N2P 1_555 1_555
C1 N1 1_555 1_555
C2 C1 1_555 1_555
N1P C1 1_555 1_555
N2P N1P 1_555 1_555
N1A Zn1 1_555 1_555
N2A N1A 1_555 1_555
C1A N1A 1_555 1_555
C2A C1A 1_555 1_555
N1R C1A 1_555 1_555
N2R N2A 1_555 1_555
Zn1P N1P 1_555 1_555
Zn1R N1R 1_555 1_555
N1LA Zn1 1_555 1_555
N1MA Zn1 1_555 1_555
N1R N2R 1_555 1_555

#END
