
#######################################################################
#
#                 Cambridge Crystallographic Data Centre
#                                CCDC 
#
#######################################################################
#
# If this CIF has been generated from an entry in the Cambridge 
# Structural Database, then it will include bibliographic, chemical, 
# crystal, experimental, refinement or atomic coordinate data resulting 
# from the CCDC's data processing and validation procedures.
#
#######################################################################

data_ORIVOC
_chemical_formula_moiety         '(C8 H14 O12 Zn2)n'
_symmetry_cell_setting           rhombohedral
_symmetry_space_group_name_H-M   'R -3'
_symmetry_Int_Tables_number      148
_space_group_name_Hall           '-R 3'
loop_
_symmetry_equiv_pos_site_id
_symmetry_equiv_pos_as_xyz
1 x,y,z
2 -y,x-y,z
3 -x+y,-x,z
4 1/3+x,2/3+y,2/3+z
5 1/3-y,2/3+x-y,2/3+z
6 1/3-x+y,2/3-x,2/3+z
7 2/3+x,1/3+y,1/3+z
8 2/3-y,1/3+x-y,1/3+z
9 2/3-x+y,1/3-x,1/3+z
10 -x,-y,-z
11 y,-x+y,-z
12 x-y,x,-z
13 2/3-x,1/3-y,1/3-z
14 2/3+y,1/3-x+y,1/3-z
15 2/3+x-y,1/3+x,1/3-z
16 1/3-x,2/3-y,2/3-z
17 1/3+y,2/3-x+y,2/3-z
18 1/3+x-y,2/3+x,2/3-z
_cell_length_a                   26.17897(10)
_cell_length_b                   26.17897
_cell_length_c                   6.65197(5)
_cell_angle_alpha                90
_cell_angle_beta                 90
_cell_angle_gamma                120
_cell_volume                     3948.08
loop_
_atom_site_label
_atom_site_type_symbol
_atom_site_fract_x
_atom_site_fract_y
_atom_site_fract_z
Zn1 Zn 0.38790(5) 0.35068(5) 0.15211(16)
C1 C 0.32290(5) 0.20386(4) 0.28779(14)
C2 C 0.34291(7) 0.22040(4) 0.09164(19)
C3 C 0.35335(8) 0.18320(6) -0.02948(10)
H1 H 0.36889(15) 0.19605(11) -0.18183(18)
C4 C 0.31168(11) 0.24386(9) 0.41805(30)
O1 O 0.32032(14) 0.29230(9) 0.3504(4)
O2 O 0.29364(16) 0.22895(14) 0.59490(30)
O3 O 0.35220(15) 0.27243(7) 0.0190(4)
O4 O 0.45319(28) 0.34100(41) 0.3017(10)
C1L C 0.34377(5) 0.12947(4) 0.04554(14)
C2L C 0.32376(7) 0.11293(4) 0.24169(19)
C3L C 0.31332(8) 0.15013(6) 0.36281(10)
H1L H 0.29778(15) 0.13728(11) 0.51516(18)
C4L C 0.35499(11) 0.08947(9) -0.08472(30)
O1L O 0.34635(14) 0.04103(9) -0.0171(4)
O2L O 0.37303(16) 0.10438(14) -0.26157(30)
O3L O 0.31447(15) 0.06090(7) 0.3143(4)
Zn1J Zn 0.35068(5) -0.03722(7) -0.15211(16)
O4J O 0.34100(41) -0.11219(50) -0.3017(10)
Zn1E Zn 0.29611(7) 0.27877(5) -0.18122(16)
Zn1E_2 Zn 0.29611(7) 0.27877(5) 0.81878(16)
Zn1L Zn 0.27877(5) -0.01735(5) 0.18122(16)
Zn1G Zn 0.31599(5) 0.37055(7) 0.48544(16)
Zn1Q Zn 0.37055(7) 0.05457(5) -0.48544(16)
Zn1Q_2 Zn 0.37055(7) 0.05457(5) 0.51456(16)
O1J O 0.29230(9) -0.02802(17) -0.3504(4)
O1E O 0.30531(17) 0.34635(14) 0.0171(4)
O2G O 0.43772(14) 0.39802(21) -0.07177(30)
O2Q O 0.39802(21) -0.03969(16) 0.07177(30)
O3J O 0.27243(7) -0.07977(17) -0.0190(4)
O3G O 0.39424(7) 0.41310(17) 0.3523(4)
O3Q O 0.41310(17) 0.01887(15) -0.3523(4)
O5 O 0.47318(28) 0.11142(30) -0.0357(10)
O6 O 0.0484(6) -0.0124(6) 0.1349(17)
O7 O 0.18083(31) 0.56462(32) 0.1605(11)
O8 O 0.1578(4) 0.0723(4) 0.1161(14)
loop_
_geom_bond_atom_site_label_1
_geom_bond_atom_site_label_2
_geom_bond_site_symmetry_1
_geom_bond_site_symmetry_2
Zn1 O1 1_555 1_555
C1 C2 1_555 1_555
C2 C3 1_555 1_555
C3 H1 1_555 1_555
C4 C1 1_555 1_555
O1 C4 1_555 1_555
O2 C4 1_555 1_555
O3 Zn1 1_555 1_555
O4 Zn1 1_555 1_555
C1L C3 1_555 1_555
C2L C1L 1_555 1_555
C3L C1 1_555 1_555
H1L C3L 1_555 1_555
C4L C1L 1_555 1_555
O1L C4L 1_555 1_555
O2L C4L 1_555 1_555
O3L C2L 1_555 1_555
Zn1J O1L 1_555 1_555
O4J Zn1J 1_555 1_555
Zn1E O3 1_555 1_555
Zn1E_2 O2 1_555 1_555
Zn1L O1L 1_555 1_555
Zn1G O1 1_555 1_555
Zn1Q O2L 1_555 1_555
Zn1Q_2 O3L 1_555 1_555
O1J Zn1J 1_555 1_555
O1E Zn1 1_555 1_555
O2G Zn1 1_555 1_555
O2Q Zn1J 1_555 1_555
O3J Zn1J 1_555 1_555
O3G Zn1 1_555 1_555
O3Q Zn1J 1_555 1_555
C2 O3 1_555 1_555
C2L C3L 1_555 1_555
O3L Zn1L 1_555 1_555
Zn1E O1E 1_555 1_555
Zn1L O3J 1_555 1_555
Zn1G O3G 1_555 1_555
Zn1Q O1J 1_555 1_555
Zn1Q O3Q 1_555 1_555

#END
