
#######################################################################
#
#                 Cambridge Crystallographic Data Centre
#                                CCDC 
#
#######################################################################
#
# If this CIF has been generated from an entry in the Cambridge 
# Structural Database, then it will include bibliographic, chemical, 
# crystal, experimental, refinement or atomic coordinate data resulting 
# from the CCDC's data processing and validation procedures.
#
#######################################################################

data_ORIWET
_chemical_formula_moiety         '(C8 H14 Mn2 O12)n'
_symmetry_cell_setting           rhombohedral
_symmetry_space_group_name_H-M   'R -3'
_symmetry_Int_Tables_number      148
_space_group_name_Hall           '-R 3'
loop_
_symmetry_equiv_pos_site_id
_symmetry_equiv_pos_as_xyz
1 x,y,z
2 -y,x-y,z
3 -x+y,-x,z
4 1/3+x,2/3+y,2/3+z
5 1/3-y,2/3+x-y,2/3+z
6 1/3-x+y,2/3-x,2/3+z
7 2/3+x,1/3+y,1/3+z
8 2/3-y,1/3+x-y,1/3+z
9 2/3-x+y,1/3-x,1/3+z
10 -x,-y,-z
11 y,-x+y,-z
12 x-y,x,-z
13 2/3-x,1/3-y,1/3-z
14 2/3+y,1/3-x+y,1/3-z
15 2/3+x-y,1/3+x,1/3-z
16 1/3-x,2/3-y,2/3-z
17 1/3+y,2/3-x+y,2/3-z
18 1/3+x-y,2/3+x,2/3-z
_cell_length_a                   26.57377(17)
_cell_length_b                   26.57377
_cell_length_c                   6.80883(8)
_cell_angle_alpha                90
_cell_angle_beta                 90
_cell_angle_gamma                120
_cell_volume                     4163.99
loop_
_atom_site_label
_atom_site_type_symbol
_atom_site_fract_x
_atom_site_fract_y
_atom_site_fract_z
Mn1 Mn 0.39072(9) 0.35177(9) 0.14297(26)
C1 C 0.32125(7) 0.20173(5) 0.28665(18)
C2 C 0.33897(9) 0.21815(5) 0.09342(24)
C3 C 0.35106(11) 0.18309(8) -0.02656(12)
H1 H 0.36482(19) 0.19584(15) -0.17662(22)
C4 C 0.30825(14) 0.23943(11) 0.4157(4)
O1 O 0.31334(16) 0.28585(11) 0.3496(6)
O2 O 0.29227(21) 0.22463(18) 0.5899(4)
O3 O 0.34444(18) 0.26801(10) 0.0225(5)
O4 O 0.4588(4) 0.3467(6) 0.3069(14)
C1L C 0.34542(7) 0.13160(5) 0.04668(18)
C2L C 0.32770(9) 0.11518(5) 0.23991(24)
C3L C 0.31561(11) 0.15024(8) 0.35989(12)
H1L H 0.30185(19) 0.13749(15) 0.50995(22)
C4L C 0.35842(14) 0.09390(11) -0.0824(4)
O1L O 0.35333(16) 0.04748(11) -0.0163(6)
O2L O 0.37440(21) 0.10870(18) -0.2566(4)
O3L O 0.32223(18) 0.06532(10) 0.3108(5)
Mn1J Mn 0.35177(9) -0.03895(13) -0.14297(26)
O4J O 0.3467(6) -0.1121(7) -0.3069(14)
Mn1E Mn 0.29438(13) 0.27595(9) -0.19036(26)
Mn1E_2 Mn 0.29438(13) 0.27595(9) 0.80964(26)
Mn1L Mn 0.27595(9) -0.01844(9) 0.19036(26)
Mn1G Mn 0.31490(9) 0.37228(13) 0.47630(26)
Mn1Q Mn 0.37228(13) 0.05739(9) -0.47630(26)
Mn1Q_2 Mn 0.37228(13) 0.05739(9) 0.52370(26)
O1J O 0.28585(11) -0.02749(19) -0.3496(6)
O1E O 0.30584(19) 0.35333(16) 0.0163(6)
O2G O 0.44204(18) 0.40097(28) -0.0768(4)
O2Q O 0.40097(28) -0.04106(21) 0.0768(4)
O3J O 0.26801(10) -0.07643(21) -0.0225(5)
O3G O 0.39866(10) 0.40976(21) 0.3558(5)
O3Q O 0.40976(21) 0.01111(18) -0.3558(5)
O5 O 0.33333 0.66667 0.16667
O6 O 0.4685(4) 0.1120(4) -0.0301(15)
O7 O 0.0540(5) 0.0031(6) 0.2142(14)
O8 O 0.2759(6) 0.4938(4) 0.1523(18)
loop_
_geom_bond_atom_site_label_1
_geom_bond_atom_site_label_2
_geom_bond_site_symmetry_1
_geom_bond_site_symmetry_2
Mn1 O1 1_555 1_555
C1 C2 1_555 1_555
C2 C3 1_555 1_555
C3 H1 1_555 1_555
C4 C1 1_555 1_555
O1 C4 1_555 1_555
O2 C4 1_555 1_555
O3 Mn1 1_555 1_555
O4 Mn1 1_555 1_555
C1L C3 1_555 1_555
C2L C1L 1_555 1_555
C3L C1 1_555 1_555
H1L C3L 1_555 1_555
C4L C1L 1_555 1_555
O1L C4L 1_555 1_555
O2L C4L 1_555 1_555
O3L C2L 1_555 1_555
Mn1J O1L 1_555 1_555
O4J Mn1J 1_555 1_555
Mn1E O3 1_555 1_555
Mn1E_2 O2 1_555 1_555
Mn1L O1L 1_555 1_555
Mn1G O1 1_555 1_555
Mn1Q O2L 1_555 1_555
Mn1Q_2 O3L 1_555 1_555
O1J Mn1J 1_555 1_555
O1E Mn1 1_555 1_555
O2G Mn1 1_555 1_555
O2Q Mn1J 1_555 1_555
O3J Mn1J 1_555 1_555
O3G Mn1 1_555 1_555
O3Q Mn1J 1_555 1_555
C2 O3 1_555 1_555
C2L C3L 1_555 1_555
O3L Mn1L 1_555 1_555
Mn1E O1E 1_555 1_555
Mn1L O3J 1_555 1_555
Mn1G O3G 1_555 1_555
Mn1Q O1J 1_555 1_555
Mn1Q O3Q 1_555 1_555

#END
