
#######################################################################
#
#                 Cambridge Crystallographic Data Centre
#                                CCDC 
#
#######################################################################
#
# If this CIF has been generated from an entry in the Cambridge 
# Structural Database, then it will include bibliographic, chemical, 
# crystal, experimental, refinement or atomic coordinate data resulting 
# from the CCDC's data processing and validation procedures.
#
#######################################################################

data_ORIWAP
_chemical_formula_moiety         '(C8 H20 Co2 O15)n'
_symmetry_cell_setting           rhombohedral
_symmetry_space_group_name_H-M   'R -3'
_symmetry_Int_Tables_number      148
_space_group_name_Hall           '-R 3'
loop_
_symmetry_equiv_pos_site_id
_symmetry_equiv_pos_as_xyz
1 x,y,z
2 -y,x-y,z
3 -x+y,-x,z
4 1/3+x,2/3+y,2/3+z
5 1/3-y,2/3+x-y,2/3+z
6 1/3-x+y,2/3-x,2/3+z
7 2/3+x,1/3+y,1/3+z
8 2/3-y,1/3+x-y,1/3+z
9 2/3-x+y,1/3-x,1/3+z
10 -x,-y,-z
11 y,-x+y,-z
12 x-y,x,-z
13 2/3-x,1/3-y,1/3-z
14 2/3+y,1/3-x+y,1/3-z
15 2/3+x-y,1/3+x,1/3-z
16 1/3-x,2/3-y,2/3-z
17 1/3+y,2/3-x+y,2/3-z
18 1/3+x-y,2/3+x,2/3-z
_cell_length_a                   26.13173(4)
_cell_length_b                   26.13173
_cell_length_c                   6.722028(13)
_cell_angle_alpha                90
_cell_angle_beta                 90
_cell_angle_gamma                120
_cell_volume                     3975.28
loop_
_atom_site_label
_atom_site_type_symbol
_atom_site_fract_x
_atom_site_fract_y
_atom_site_fract_z
Co1 Co 0.38496(5) 0.34926(5) 0.15008(14)
C1 C 0.32926(28) 0.20814(19) 0.2854(7)
C2 C 0.34415(27) 0.22015(13) 0.0852(7)
C3 C 0.34822(24) 0.17867(23) -0.03346(21)
H1 H 0.3598(4) 0.1880(4) -0.1889(4)
C4 C 0.31392(34) 0.24562(31) 0.4230(8)
O1 O 0.32382(18) 0.29195(22) 0.3584(6)
O2 O 0.29972(23) 0.22892(23) 0.5902(7)
O3 O 0.35535(20) 0.27214(17) -0.0043(7)
O4 O 0.45479(22) 0.33954(32) 0.2923(6)
C1L C 0.33741(28) 0.12519(19) 0.0479(7)
C2L C 0.32252(27) 0.11318(13) 0.2481(7)
C3L C 0.31845(24) 0.15466(23) 0.36679(21)
H1L H 0.3069(4) 0.1453(4) 0.5222(4)
C4L C 0.35275(34) 0.08771(31) -0.0897(8)
O1L O 0.34285(18) 0.04138(22) -0.0251(6)
O2L O 0.36695(23) 0.10441(23) -0.2569(7)
O3L O 0.31132(20) 0.06119(17) 0.3376(7)
Co1J Co 0.34926(5) -0.03570(7) -0.15008(14)
O4J O 0.33954(32) -0.11525(39) -0.2923(6)
Co1E Co 0.29763(7) 0.28171(5) -0.18325(14)
Co1E_2 Co 0.29763(7) 0.28171(5) 0.81675(14)
Co1L Co 0.28171(5) -0.01593(5) 0.18325(14)
Co1G Co 0.31741(5) 0.36903(7) 0.48341(14)
Co1Q Co 0.36903(7) 0.05163(5) -0.48341(14)
Co1Q_2 Co 0.36903(7) 0.05163(5) 0.51659(14)
O1J O 0.29195(22) -0.03187(28) -0.3584(6)
O1E O 0.30146(28) 0.34285(18) 0.0251(6)
O2G O 0.43775(23) 0.40413(33) -0.0765(7)
O2Q O 0.40413(33) -0.03361(23) 0.0765(7)
O3J O 0.27214(17) -0.08321(26) 0.0043(7)
O3G O 0.39453(17) 0.41654(26) 0.3290(7)
O3Q O 0.41654(26) 0.02202(20) -0.3290(7)
O5 O 0.4816(4) 0.1179(4) -0.0061(14)
O6 O 0.0463(11) -0.0290(12) 0.446(4)
O7 O 0.1691(5) 0.5564(5) 0.1373(19)
O8 O 0.1491(8) 0.5427(8) -0.0757(23)
O9 O 0.1563(6) 0.0755(5) 0.1827(25)
O10 O 0.1943(11) 0.0851(7) -0.0237(34)
O11 O 0.2815(6) 0.6575(8) 0.5346(20)
loop_
_geom_bond_atom_site_label_1
_geom_bond_atom_site_label_2
_geom_bond_site_symmetry_1
_geom_bond_site_symmetry_2
Co1 O1 1_555 1_555
C1 C2 1_555 1_555
C2 C3 1_555 1_555
C3 H1 1_555 1_555
C4 C1 1_555 1_555
O1 C4 1_555 1_555
O2 C4 1_555 1_555
O3 Co1 1_555 1_555
O4 Co1 1_555 1_555
C1L C3 1_555 1_555
C2L C1L 1_555 1_555
C3L C1 1_555 1_555
H1L C3L 1_555 1_555
C4L C1L 1_555 1_555
O1L C4L 1_555 1_555
O2L C4L 1_555 1_555
O3L C2L 1_555 1_555
Co1J O1L 1_555 1_555
O4J Co1J 1_555 1_555
Co1E O3 1_555 1_555
Co1E_2 O2 1_555 1_555
Co1L O1L 1_555 1_555
Co1G O1 1_555 1_555
Co1Q O2L 1_555 1_555
Co1Q_2 O3L 1_555 1_555
O1J Co1J 1_555 1_555
O1E Co1 1_555 1_555
O2G Co1 1_555 1_555
O2Q Co1J 1_555 1_555
O3J Co1J 1_555 1_555
O3G Co1 1_555 1_555
O3Q Co1J 1_555 1_555
C2 O3 1_555 1_555
C2L C3L 1_555 1_555
O3L Co1L 1_555 1_555
Co1E O1E 1_555 1_555
Co1L O3J 1_555 1_555
Co1G O3G 1_555 1_555
Co1Q O1J 1_555 1_555
Co1Q O3Q 1_555 1_555

#END
