
#######################################################################
#
#                 Cambridge Crystallographic Data Centre
#                                CCDC 
#
#######################################################################
#
# If this CIF has been generated from an entry in the Cambridge 
# Structural Database, then it will include bibliographic, chemical, 
# crystal, experimental, refinement or atomic coordinate data resulting 
# from the CCDC's data processing and validation procedures.
#
#######################################################################

data_AYUJIP
_chemical_formula_moiety         'C54 H78 Mn14 N6 O36'
_symmetry_cell_setting           rhombohedral
_symmetry_space_group_name_H-M   'R -3'
_symmetry_Int_Tables_number      148
_space_group_name_Hall           '-R 3'
loop_
_symmetry_equiv_pos_site_id
_symmetry_equiv_pos_as_xyz
1 x,y,z
2 -y,x-y,z
3 -x+y,-x,z
4 2/3+x,1/3+y,1/3+z
5 2/3-y,1/3+x-y,1/3+z
6 2/3-x+y,1/3-x,1/3+z
7 1/3+x,2/3+y,2/3+z
8 1/3-y,2/3+x-y,2/3+z
9 1/3-x+y,2/3-x,2/3+z
10 -x,-y,-z
11 y,-x+y,-z
12 x-y,x,-z
13 1/3-x,2/3-y,2/3-z
14 1/3+y,2/3-x+y,2/3-z
15 1/3+x-y,2/3+x,2/3-z
16 2/3-x,1/3-y,1/3-z
17 2/3+y,1/3-x+y,1/3-z
18 2/3+x-y,1/3+x,1/3-z
_cell_length_a                   47.899(6)
_cell_length_b                   47.899(6)
_cell_length_c                   14.1778(18)
_cell_angle_alpha                90
_cell_angle_beta                 90
_cell_angle_gamma                120
_cell_volume                     28170.4
loop_
_atom_site_label
_atom_site_type_symbol
_atom_site_fract_x
_atom_site_fract_y
_atom_site_fract_z
_atom_site_U_iso_or_equiv
_atom_site_thermal_displace_type
Mn1 Mn 0.52945(2) 0.02893(2) 0.98488(5) 0.0347 Uani
Mn2 Mn 0.46609(2) 0.02846(2) 0.92329(5) 0.0399 Uani
Mn3 Mn 0.44864(2) 0.02032(2) 0.69743(5) 0.0490 Uani
Mn4 Mn 0.45245(2) -0.03763(2) 0.79972(5) 0.0486 Uani
Mn5 Mn 0.52102(2) 0.03079(2) 0.76197(6) 0.0531 Uani
N1 N 0.29227(12) -0.08528(16) 1.0225(3) 0.0656 Uani
N2 N 0.5842(4) 0.20255(19) 0.8595(7) 0.1788 Uani
O1 O 0.48830(9) 0.05131(9) 0.8099(2) 0.0458 Uani
O2 O 0.49233(7) -0.00024(8) 0.9112(2) 0.0317 Uani
O3 O 0.50090(8) 0.05599(8) 1.0057(2) 0.0372 Uani
O4 O 0.41050(11) -0.02253(12) 0.6339(3) 0.0603 Uani
O5 O 0.41126(11) -0.06334(11) 0.7119(3) 0.0646 Uani
O6 O 0.44671(8) 0.00211(9) 1.0343(2) 0.0394 Uani
O7 O 0.43364(9) -0.00304(10) 0.8389(2) 0.0455 Uani
O8 O 0.43522(8) -0.05599(8) 0.9335(2) 0.0421 Uani
O9 O 0.44143(11) 0.05517(11) 0.9370(3) 0.0602 Uani
O10 O 0.44502(14) 0.06469(14) 1.0930(3) 0.0826 Uani
O11 O 0.56238(17) -0.02848(18) 0.7318(4) 0.1103 Uani
O12 O 0.54824(8) 0.05605(8) 0.8766(2) 0.0425 Uani
O13 O 0.47802(9) -0.00253(9) 0.6969(2) 0.0442 Uani
O14 O 0.49819(17) -0.09373(16) 0.7840(5) 0.1156 Uani
C1 C 0.3137(2) -0.0864(2) 1.0802(5) 0.0793 Uani
H1 H 0.3061 -0.0983 1.1381 0.0950 Uiso
C2 C 0.3031(2) -0.0680(2) 0.9446(7) 0.0717 Uani
H2 H 0.2882 -0.0666 0.9024 0.0860 Uiso
C3 C 0.4496(4) -0.1085(4) 0.6975(15) 0.2444 Uani
H3 H 0.4358 -0.0996 0.6867 0.3660 Uiso
H4 H 0.4375 -0.1292 0.7271 0.3660 Uiso
H5 H 0.4580 -0.1108 0.6384 0.3660 Uiso
C4 C 0.5713(4) 0.1892(2) 0.9382(9) 0.1633 Uani
H6 H 0.5725 0.2025 0.9878 0.1960 Uiso
C5 C 0.5802(3) 0.1829(2) 0.7822(8) 0.1240 Uani
H7 H 0.5886 0.1914 0.7231 0.1480 Uiso
C6 C 0.3769(3) -0.0757(3) 0.5832(7) 0.1429 Uani
H8 H 0.3708 -0.0651 0.5371 0.2140 Uiso
H9 H 0.3583 -0.0906 0.6188 0.2140 Uiso
H10 H 0.3859 -0.0872 0.5519 0.2140 Uiso
C7 C 0.5559(3) 0.1565(2) 0.9541(8) 0.1210 Uani
H11 H 0.5484 0.1484 1.0142 0.1450 Uiso
C8 C 0.4179(4) 0.0842(4) 0.9968(9) 0.1697 Uani
H12 H 0.4151 0.0920 1.0564 0.2540 Uiso
H13 H 0.3972 0.0698 0.9699 0.2540 Uiso
H14 H 0.4298 0.1020 0.9550 0.2540 Uiso
C9 C 0.3458(2) -0.0714(2) 1.0617(7) 0.1042 Uani
H15 H 0.3600 -0.0731 1.1061 0.1250 Uiso
C10 C 0.3373(2) -0.0512(2) 0.9206(7) 0.0659 Uani
H16 H 0.3454 -0.0390 0.8636 0.0790 Uiso
C11 C 0.5515(2) 0.13591(17) 0.8806(5) 0.0770 Uani
C12 C 0.5635(3) 0.1508(2) 0.7982(8) 0.1218 Uani
H17 H 0.5598 0.1376 0.7462 0.1460 Uiso
C13 C 0.4765(2) -0.0867(2) 0.7595(6) 0.0850 Uani
C14 C 0.4361(2) 0.0665(2) 1.0115(6) 0.0890 Uani
C15 C 0.53332(17) 0.09858(15) 0.8900(4) 0.0580 Uani
C16 C 0.57529(18) 0.0131(2) 0.6197(5) 0.0813 Uani
H18 H 0.5710 0.0305 0.6123 0.1230 Uiso
H19 H 0.5667 -0.0012 0.5668 0.1230 Uiso
H20 H 0.5981 0.0216 0.6232 0.1230 Uiso
C17 C 0.40121(16) -0.05152(19) 0.6472(4) 0.0626 Uani
C18 C 0.48229(17) -0.01476(18) 0.6068(3) 0.0619 Uani
H21 H 0.4956 -0.0243 0.6158 0.0930 Uiso
H22 H 0.4924 0.0027 0.5625 0.0930 Uiso
H23 H 0.4616 -0.0307 0.5829 0.0930 Uiso
C19 C 0.50690(15) 0.08552(13) 0.8158(4) 0.0529 Uani
H24 H 0.4925 0.0938 0.8289 0.0630 Uiso
H25 H 0.5167 0.0938 0.7547 0.0630 Uiso
C20 C 0.40048(13) -0.01922(15) 0.8712(3) 0.0492 Uani
H26 H 0.3869 -0.0339 0.8222 0.0590 Uiso
H27 H 0.3939 -0.0033 0.8807 0.0590 Uiso
C21 C 0.35837(15) -0.05402(16) 0.9845(4) 0.0594 Uani
C22 C 0.51832(16) 0.08988(14) 0.9943(4) 0.0568 Uani
H28 H 0.5355 0.0994 1.0406 0.0680 Uiso
H29 H 0.5041 0.0986 1.0040 0.0680 Uiso
C23 C 0.56022(16) -0.00437(19) 0.7058(4) 0.0626 Uani
C24 C 0.55920(16) 0.08970(15) 0.8789(5) 0.0629 Uani
H30 H 0.5709 0.0993 0.8210 0.0750 Uiso
H31 H 0.5743 0.0992 0.9307 0.0750 Uiso
C25 C 0.40256(13) -0.06532(14) 0.9556(4) 0.0512 Uani
H32 H 0.3971 -0.0766 1.0155 0.0620 Uiso
H33 H 0.3887 -0.0805 0.9080 0.0620 Uiso
C26 C 0.41236(13) -0.01586(15) 1.0467(4) 0.0497 Uani
H34 H 0.4044 -0.0010 1.0552 0.0600 Uiso
H35 H 0.4073 -0.0289 1.1033 0.0600 Uiso
C27 C 0.39493(13) -0.03804(15) 0.9617(3) 0.0492 Uani
O15 O 0.54457(17) 0.06590(16) 0.6401(4) 0.1048 Uani
H36 H 0.5605 0.0846 0.6508 0.1250 Uiso
H37 H 0.5375 0.0604 0.5842 0.1250 Uiso
O16 O 0.47749(15) 0.04991(13) 0.5839(3) 0.0892 Uani
H38 H 0.4720 0.0429 0.5220 0.1070 Uiso
H39 H 0.4955 0.0699 0.5963 0.1070 Uiso
O17 O 0.47956(10) -0.06153(10) 0.7877(2) 0.0527 Uani
O18 O 0.54216(10) 0.00113(11) 0.7560(2) 0.0560 Uani
Mn6 Mn 0.52854(2) -0.04304(2) 0.85577(5) 0.0497 Uani
Mn1I Mn 0.47055(2) -0.02893(2) 1.01512(5) 0.0347 Uani
Mn3E Mn 0.23835(3) -0.11531(2) 1.03076(5) 0.0490 Uani
N1G N 0.41861(16) 0.04422(20) 0.6892(3) 0.0656 Uani
O2I O 0.50767(7) 0.00024(8) 1.0888(2) 0.0317 Uani
O3I O 0.49910(8) -0.05599(8) 0.9943(2) 0.0372 Uani
O6I O 0.55329(8) -0.00211(9) 0.9657(2) 0.0394 Uani
O8I O 0.56478(8) 0.05599(8) 1.0665(2) 0.0421 Uani
O10I O 0.55498(14) -0.06469(14) 0.9070(3) 0.0826 Uani
Mn6I Mn 0.47146(2) 0.04304(2) 1.14423(5) 0.0497 Uani
O12I O 0.45176(8) -0.05605(8) 1.1234(2) 0.0425 Uani
Mn2I Mn 0.53391(2) -0.02846(2) 1.07671(5) 0.0399 Uani
O1I O 0.51170(9) -0.05131(9) 1.1901(2) 0.0458 Uani
O7I O 0.56636(9) 0.00304(10) 1.1611(2) 0.0455 Uani
O9I O 0.55857(11) -0.05517(11) 1.0630(3) 0.0602 Uani
Mn3I Mn 0.55136(2) -0.02032(2) 1.30257(5) 0.0490 Uani
O4I O 0.58950(11) 0.02253(12) 1.3661(3) 0.0603 Uani
O13I O 0.52198(9) 0.00253(9) 1.3031(2) 0.0442 Uani
O16I O 0.52251(15) -0.04991(13) 1.4161(3) 0.0892 Uani
N1P N 0.58139(16) -0.04422(20) 1.3108(3) 0.0656 Uani
Mn4I Mn 0.54755(2) 0.03763(2) 1.20028(5) 0.0486 Uani
O5I O 0.58874(11) 0.06334(11) 1.2881(3) 0.0646 Uani
O17I O 0.52044(10) 0.06153(10) 1.2123(2) 0.0527 Uani
Mn5I Mn 0.47898(2) -0.03079(2) 1.23803(6) 0.0531 Uani
O15I O 0.45543(17) -0.06590(16) 1.3599(4) 0.1048 Uani
O18I O 0.45784(10) -0.00113(11) 1.2440(2) 0.0560 Uani
N1I N 0.70773(12) 0.08528(16) 0.9775(3) 0.0656 Uani
C1I C 0.6863(2) 0.0864(2) 0.9198(5) 0.0793 Uani
C2I C 0.6969(2) 0.0680(2) 1.0554(7) 0.0717 Uani
Mn3N Mn 0.76165(3) 0.11531(2) 0.96924(5) 0.0490 Uani
N2I N 0.4158(4) -0.20255(19) 1.1405(7) 0.1788 Uani
C4I C 0.4287(4) -0.1892(2) 1.0618(9) 0.1633 Uani
C5I C 0.4198(3) -0.1829(2) 1.2178(8) 0.1240 Uani
C19I C 0.49310(15) -0.08552(13) 1.1842(4) 0.0529 Uani
C22I C 0.48168(16) -0.08988(14) 1.0057(4) 0.0568 Uani
C17I C 0.59879(16) 0.05152(19) 1.3528(4) 0.0626 Uani
C26I C 0.58764(13) 0.01586(15) 0.9533(4) 0.0497 Uani
C20I C 0.59952(13) 0.01922(15) 1.1288(3) 0.0492 Uani
C25I C 0.59744(13) 0.06532(14) 1.0444(4) 0.0512 Uani
C14I C 0.5639(2) -0.0665(2) 0.9885(6) 0.0890 Uani
O11I O 0.43762(17) 0.02848(18) 1.2682(4) 0.1103 Uani
C23I C 0.43978(16) 0.00437(19) 1.2942(4) 0.0626 Uani
C24I C 0.44080(16) -0.08970(15) 1.1211(5) 0.0629 Uani
C18I C 0.51771(17) 0.01476(18) 1.3932(3) 0.0619 Uani
O14I O 0.50181(17) 0.09373(16) 1.2160(5) 0.1156 Uani
C13I C 0.5235(2) 0.0867(2) 1.2405(6) 0.0850 Uani
H1I H 0.6939 0.0983 0.8619 0.0950 Uiso
C9I C 0.6542(2) 0.0714(2) 0.9383(7) 0.1042 Uani
H2I H 0.7118 0.0666 1.0976 0.0860 Uiso
C10I C 0.6627(2) 0.0512(2) 1.0794(7) 0.0659 Uani
C3I C 0.5504(4) 0.1085(4) 1.3025(15) 0.2444 Uani
H3I H 0.5642 0.0996 1.3133 0.3660 Uiso
H4I H 0.5625 0.1292 1.2729 0.3660 Uiso
H5I H 0.5420 0.1108 1.3616 0.3660 Uiso
H6I H 0.4275 -0.2025 1.0122 0.1960 Uiso
C7I C 0.4441(3) -0.1565(2) 1.0459(8) 0.1210 Uani
H7I H 0.4114 -0.1914 1.2769 0.1480 Uiso
C12I C 0.4365(3) -0.1508(2) 1.2018(8) 0.1218 Uani
C6I C 0.6231(3) 0.0757(3) 1.4168(7) 0.1429 Uani
H8I H 0.6292 0.0651 1.4629 0.2140 Uiso
H9I H 0.6417 0.0906 1.3812 0.2140 Uiso
H10I H 0.6141 0.0872 1.4481 0.2140 Uiso
H11I H 0.4516 -0.1484 0.9858 0.1450 Uiso
C11I C 0.4485(2) -0.13591(17) 1.1194(5) 0.0770 Uani
C8I C 0.5821(4) -0.0842(4) 1.0032(9) 0.1697 Uani
H12I H 0.5849 -0.0920 0.9436 0.2540 Uiso
H13I H 0.6028 -0.0698 1.0301 0.2540 Uiso
H14I H 0.5702 -0.1020 1.0450 0.2540 Uiso
H15I H 0.6400 0.0731 0.8939 0.1250 Uiso
C21I C 0.64163(15) 0.05402(16) 1.0155(4) 0.0594 Uani
H16I H 0.6546 0.0390 1.1364 0.0790 Uiso
C15I C 0.46668(17) -0.09858(15) 1.1100(4) 0.0580 Uani
H17I H 0.4402 -0.1376 1.2538 0.1460 Uiso
C16I C 0.42471(18) -0.0131(2) 1.3803(5) 0.0813 Uani
H18I H 0.4290 -0.0305 1.3877 0.1230 Uiso
H19I H 0.4333 0.0012 1.4332 0.1230 Uiso
H20I H 0.4019 -0.0216 1.3768 0.1230 Uiso
H21I H 0.5044 0.0243 1.3842 0.0930 Uiso
H22I H 0.5076 -0.0027 1.4375 0.0930 Uiso
H23I H 0.5384 0.0307 1.4171 0.0930 Uiso
H24I H 0.5075 -0.0938 1.1711 0.0630 Uiso
H25I H 0.4833 -0.0938 1.2453 0.0630 Uiso
H26I H 0.6131 0.0339 1.1778 0.0590 Uiso
H27I H 0.6061 0.0033 1.1193 0.0590 Uiso
C27I C 0.60507(13) 0.03804(15) 1.0383(3) 0.0492 Uani
H28I H 0.4645 -0.0994 0.9594 0.0680 Uiso
H29I H 0.4959 -0.0986 0.9960 0.0680 Uiso
H30I H 0.4291 -0.0993 1.1790 0.0750 Uiso
H31I H 0.4257 -0.0992 1.0693 0.0750 Uiso
H32I H 0.6029 0.0766 0.9845 0.0620 Uiso
H33I H 0.6113 0.0805 1.0920 0.0620 Uiso
H34I H 0.5956 0.0010 0.9448 0.0600 Uiso
H35I H 0.5927 0.0289 0.8967 0.0600 Uiso
H36I H 0.4395 -0.0846 1.3492 0.1250 Uiso
H37I H 0.4625 -0.0604 1.4158 0.1250 Uiso
H38I H 0.5280 -0.0429 1.4780 0.1070 Uiso
H39I H 0.5045 -0.0699 1.4037 0.1070 Uiso
loop_
_atom_site_aniso_label
_atom_site_aniso_U_11
_atom_site_aniso_U_22
_atom_site_aniso_U_33
_atom_site_aniso_U_23
_atom_site_aniso_U_13
_atom_site_aniso_U_12
Mn1 0.0362(4) 0.0419(5) 0.0260(4) 0.0084(3) 0.0050(3) 0.0195(3)
Mn2 0.0497(5) 0.0515(5) 0.0275(4) 0.0022(3) -0.0007(3) 0.0320(4)
Mn3 0.0622(6) 0.0673(6) 0.0336(5) 0.0077(4) -0.0016(4) 0.0445(5)
Mn4 0.0609(6) 0.0650(6) 0.0314(4) 0.0072(3) 0.0072(3) 0.0401(5)
Mn5 0.0642(6) 0.0705(6) 0.0345(5) 0.0080(4) 0.0035(4) 0.0412(5)
N1 0.037(3) 0.106(5) 0.050(3) 0.007(3) 0.006(2) 0.033(3)
N2 0.291(15) 0.049(4) 0.111(7) 0.016(5) 0.007(8) 0.021(6)
O1 0.061(2) 0.052(2) 0.0321(18) 0.0038(15) -0.0002(16) 0.034(2)
O2 0.0346(18) 0.0372(18) 0.0260(15) 0.0078(12) 0.0073(12) 0.0199(15)
O3 0.048(2) 0.0337(18) 0.0349(18) 0.0077(13) 0.0034(14) 0.0241(16)
O4 0.071(3) 0.084(3) 0.045(2) -0.011(2) -0.0136(19) 0.053(3)
O5 0.081(3) 0.062(3) 0.051(2) -0.0118(19) -0.008(2) 0.036(2)
O6 0.0341(18) 0.065(2) 0.0255(16) 0.0074(15) 0.0093(13) 0.0296(17)
O7 0.049(2) 0.070(3) 0.0313(18) 0.0041(16) 0.0053(15) 0.040(2)
O8 0.040(2) 0.048(2) 0.0334(17) 0.0097(14) 0.0058(14) 0.0184(17)
O9 0.081(3) 0.080(3) 0.050(2) -0.007(2) -0.010(2) 0.063(3)
O10 0.117(4) 0.123(4) 0.057(3) -0.020(3) -0.023(3) 0.097(4)
O11 0.147(6) 0.168(6) 0.079(4) 0.037(4) 0.057(4) 0.126(5)
O12 0.041(2) 0.043(2) 0.0355(18) 0.0135(14) 0.0060(14) 0.0151(17)
O13 0.058(2) 0.073(3) 0.0194(16) 0.0053(15) 0.0022(14) 0.046(2)
O14 0.122(5) 0.106(5) 0.148(6) -0.066(4) -0.044(4) 0.079(4)
C1 0.046(5) 0.154(11) 0.026(4) 0.014(5) 0.003(4) 0.041(6)
C2 0.057(6) 0.077(7) 0.079(7) 0.028(6) 0.015(5) 0.032(5)
C3 0.226(17) 0.158(13) 0.38(3) -0.198(16) -0.197(18) 0.119(12)
C4 0.235(16) 0.063(6) 0.122(9) -0.004(6) 0.053(10) 0.022(8)
C5 0.153(10) 0.056(5) 0.132(9) 0.013(5) 0.012(7) 0.029(6)
C6 0.151(10) 0.159(10) 0.066(5) -0.011(6) -0.041(6) 0.038(8)
C7 0.158(10) 0.062(6) 0.127(8) 0.014(5) 0.016(7) 0.043(6)
C8 0.257(16) 0.258(16) 0.137(9) -0.068(10) -0.057(10) 0.236(15)
C9 0.062(7) 0.190(15) 0.070(7) 0.062(9) 0.026(5) 0.070(8)
C10 0.041(5) 0.094(7) 0.051(5) 0.007(5) 0.004(4) 0.025(5)
C11 0.112(6) 0.049(4) 0.067(4) 0.017(3) 0.007(4) 0.038(4)
C12 0.146(9) 0.073(6) 0.104(7) 0.027(5) -0.007(6) 0.023(6)
C13 0.088(6) 0.080(5) 0.099(6) -0.022(4) -0.034(4) 0.051(5)
C14 0.134(7) 0.101(6) 0.079(5) -0.014(4) -0.006(5) 0.094(6)
C15 0.077(4) 0.048(3) 0.050(3) 0.007(3) -0.009(3) 0.032(3)
C16 0.067(5) 0.130(7) 0.052(4) 0.012(4) 0.015(3) 0.053(5)
C17 0.066(4) 0.079(5) 0.045(3) -0.010(3) -0.013(3) 0.038(4)
C18 0.080(4) 0.105(5) 0.015(2) 0.002(3) 0.008(2) 0.057(4)
C19 0.070(4) 0.047(3) 0.048(3) 0.009(2) -0.001(3) 0.034(3)
C20 0.046(3) 0.070(4) 0.033(3) -0.011(2) 0.000(2) 0.030(3)
C21 0.047(3) 0.095(5) 0.029(3) -0.011(3) -0.004(2) 0.030(4)
C22 0.070(4) 0.049(3) 0.053(3) 0.000(3) 0.004(3) 0.031(3)
C23 0.060(4) 0.097(5) 0.041(3) -0.006(3) 0.006(3) 0.047(4)
C24 0.064(4) 0.048(4) 0.058(4) 0.022(3) 0.013(3) 0.014(3)
C25 0.036(3) 0.059(4) 0.043(3) -0.002(2) 0.001(2) 0.012(3)
C26 0.043(3) 0.076(4) 0.037(3) -0.002(3) 0.003(2) 0.035(3)
C27 0.040(3) 0.078(4) 0.029(3) -0.003(2) -0.003(2) 0.029(3)
O15 0.154(6) 0.122(5) 0.069(3) -0.021(3) -0.013(3) 0.092(5)
O16 0.138(5) 0.084(4) 0.045(3) 0.020(2) 0.007(3) 0.055(3)
O17 0.071(3) 0.060(3) 0.038(2) -0.0136(17) -0.0104(17) 0.041(2)
O18 0.070(3) 0.086(3) 0.0307(19) 0.0113(18) 0.0152(18) 0.053(2)
Mn6 0.0593(6) 0.0643(6) 0.0344(5) -0.0031(4) 0.0012(3) 0.0375(5)
Mn1I 0.0362 0.0419 0.026 0.0084 0.005 0.0195
Mn3E 0.0405 0.0622 0.0336 0.0016 0.0093 0.0177
N1G 0.106 0.077 0.05 -0.001 -0.007 0.073
O2I 0.0346 0.0372 0.026 0.0078 0.0073 0.0199
O3I 0.048 0.0337 0.0349 0.0077 0.0034 0.0241
O6I 0.0341 0.065 0.0255 0.0074 0.0093 0.0296
O8I 0.04 0.048 0.0334 0.0097 0.0058 0.0184
O10I 0.117 0.123 0.057 -0.02 -0.023 0.097
Mn6I 0.0593 0.0643 0.0344 -0.0031 0.0012 0.0375
O12I 0.041(2) 0.043(2) 0.0355(18) 0.0135(14) 0.0060(14) 0.0151(17)
Mn2I 0.0497(5) 0.0515(5) 0.0275(4) 0.0022(3) -0.0007(3) 0.0320(4)
O1I 0.061(2) 0.052(2) 0.0321(18) 0.0038(15) -0.0002(16) 0.034(2)
O7I 0.049(2) 0.070(3) 0.0313(18) 0.0041(16) 0.0053(15) 0.040(2)
O9I 0.081(3) 0.080(3) 0.050(2) -0.007(2) -0.010(2) 0.063(3)
Mn3I 0.0622(6) 0.0673(6) 0.0336(5) 0.0077(4) -0.0016(4) 0.0445(5)
O4I 0.071(3) 0.084(3) 0.045(2) -0.011(2) -0.0136(19) 0.053(3)
O13I 0.058(2) 0.073(3) 0.0194(16) 0.0053(15) 0.0022(14) 0.046(2)
O16I 0.138(5) 0.084(4) 0.045(3) 0.020(2) 0.007(3) 0.055(3)
N1P 0.106 0.077 0.05 -0.001 -0.007 0.073
Mn4I 0.0609(6) 0.0650(6) 0.0314(4) 0.0072(3) 0.0072(3) 0.0401(5)
O5I 0.081(3) 0.062(3) 0.051(2) -0.0118(19) -0.008(2) 0.036(2)
O17I 0.071(3) 0.060(3) 0.038(2) -0.0136(17) -0.0104(17) 0.041(2)
Mn5I 0.0642(6) 0.0705(6) 0.0345(5) 0.0080(4) 0.0035(4) 0.0412(5)
O15I 0.154(6) 0.122(5) 0.069(3) -0.021(3) -0.013(3) 0.092(5)
O18I 0.070(3) 0.086(3) 0.0307(19) 0.0113(18) 0.0152(18) 0.053(2)
N1I 0.037(3) 0.106(5) 0.050(3) 0.007(3) 0.006(2) 0.033(3)
C1I 0.046(5) 0.154(11) 0.026(4) 0.014(5) 0.003(4) 0.041(6)
C2I 0.057(6) 0.077(7) 0.079(7) 0.028(6) 0.015(5) 0.032(5)
Mn3N 0.0405 0.0622 0.0336 0.0016 0.0093 0.0177
N2I 0.291(15) 0.049(4) 0.111(7) 0.016(5) 0.007(8) 0.021(6)
C4I 0.235(16) 0.063(6) 0.122(9) -0.004(6) 0.053(10) 0.022(8)
C5I 0.153(10) 0.056(5) 0.132(9) 0.013(5) 0.012(7) 0.029(6)
C19I 0.070(4) 0.047(3) 0.048(3) 0.009(2) -0.001(3) 0.034(3)
C22I 0.070(4) 0.049(3) 0.053(3) 0.000(3) 0.004(3) 0.031(3)
C17I 0.066(4) 0.079(5) 0.045(3) -0.010(3) -0.013(3) 0.038(4)
C26I 0.043(3) 0.076(4) 0.037(3) -0.002(3) 0.003(2) 0.035(3)
C20I 0.046(3) 0.070(4) 0.033(3) -0.011(2) 0.000(2) 0.030(3)
C25I 0.036(3) 0.059(4) 0.043(3) -0.002(2) 0.001(2) 0.012(3)
C14I 0.134(7) 0.101(6) 0.079(5) -0.014(4) -0.006(5) 0.094(6)
O11I 0.147(6) 0.168(6) 0.079(4) 0.037(4) 0.057(4) 0.126(5)
C23I 0.060(4) 0.097(5) 0.041(3) -0.006(3) 0.006(3) 0.047(4)
C24I 0.064(4) 0.048(4) 0.058(4) 0.022(3) 0.013(3) 0.014(3)
C18I 0.080(4) 0.105(5) 0.015(2) 0.002(3) 0.008(2) 0.057(4)
O14I 0.122(5) 0.106(5) 0.148(6) -0.066(4) -0.044(4) 0.079(4)
C13I 0.088(6) 0.080(5) 0.099(6) -0.022(4) -0.034(4) 0.051(5)
C9I 0.062(7) 0.190(15) 0.070(7) 0.062(9) 0.026(5) 0.070(8)
C10I 0.041(5) 0.094(7) 0.051(5) 0.007(5) 0.004(4) 0.025(5)
C3I 0.226(17) 0.158(13) 0.38(3) -0.198(16) -0.197(18) 0.119(12)
C7I 0.158(10) 0.062(6) 0.127(8) 0.014(5) 0.016(7) 0.043(6)
C12I 0.146(9) 0.073(6) 0.104(7) 0.027(5) -0.007(6) 0.023(6)
C6I 0.151(10) 0.159(10) 0.066(5) -0.011(6) -0.041(6) 0.038(8)
C11I 0.112(6) 0.049(4) 0.067(4) 0.017(3) 0.007(4) 0.038(4)
C8I 0.257(16) 0.258(16) 0.137(9) -0.068(10) -0.057(10) 0.236(15)
C21I 0.047(3) 0.095(5) 0.029(3) -0.011(3) -0.004(2) 0.030(4)
C15I 0.077(4) 0.048(3) 0.050(3) 0.007(3) -0.009(3) 0.032(3)
C16I 0.067(5) 0.130(7) 0.052(4) 0.012(4) 0.015(3) 0.053(5)
C27I 0.040(3) 0.078(4) 0.029(3) -0.003(2) -0.003(2) 0.029(3)
loop_
_geom_bond_atom_site_label_1
_geom_bond_atom_site_label_2
_geom_bond_site_symmetry_1
_geom_bond_site_symmetry_2
Mn1 O2 1_555 1_555
Mn2 O1 1_555 1_555
Mn3 O1 1_555 1_555
Mn4 O2 1_555 1_555
Mn5 O1 1_555 1_555
N1 C1 1_555 1_555
N2 C4 1_555 1_555
O1 C19 1_555 1_555
O2 Mn2 1_555 1_555
O3 Mn1 1_555 1_555
O4 Mn3 1_555 1_555
O5 Mn4 1_555 1_555
O6 Mn2 1_555 1_555
O7 Mn2 1_555 1_555
O8 Mn4 1_555 1_555
O9 Mn2 1_555 1_555
O10 C14 1_555 1_555
O11 C23 1_555 1_555
O12 Mn1 1_555 1_555
O13 Mn3 1_555 1_555
O14 C13 1_555 1_555
C1 H1 1_555 1_555
C2 N1 1_555 1_555
H2 C2 1_555 1_555
C3 H3 1_555 1_555
H4 C3 1_555 1_555
H5 C3 1_555 1_555
C4 H6 1_555 1_555
C5 N2 1_555 1_555
H7 C5 1_555 1_555
C6 H8 1_555 1_555
H9 C6 1_555 1_555
H10 C6 1_555 1_555
C7 C4 1_555 1_555
H11 C7 1_555 1_555
C8 H12 1_555 1_555
H13 C8 1_555 1_555
H14 C8 1_555 1_555
C9 C1 1_555 1_555
H15 C9 1_555 1_555
C10 C2 1_555 1_555
H16 C10 1_555 1_555
C11 C7 1_555 1_555
C12 C5 1_555 1_555
H17 C12 1_555 1_555
C13 C3 1_555 1_555
C14 O9 1_555 1_555
C15 C11 1_555 1_555
C16 H18 1_555 1_555
H19 C16 1_555 1_555
H20 C16 1_555 1_555
C17 O4 1_555 1_555
C18 O13 1_555 1_555
H21 C18 1_555 1_555
H22 C18 1_555 1_555
H23 C18 1_555 1_555
C19 C15 1_555 1_555
H24 C19 1_555 1_555
H25 C19 1_555 1_555
C20 O7 1_555 1_555
H26 C20 1_555 1_555
H27 C20 1_555 1_555
C21 C9 1_555 1_555
C22 O3 1_555 1_555
H28 C22 1_555 1_555
H29 C22 1_555 1_555
C23 C16 1_555 1_555
C24 O12 1_555 1_555
H30 C24 1_555 1_555
H31 C24 1_555 1_555
C25 O8 1_555 1_555
H32 C25 1_555 1_555
H33 C25 1_555 1_555
C26 O6 1_555 1_555
H34 C26 1_555 1_555
H35 C26 1_555 1_555
C27 C20 1_555 1_555
O15 Mn5 1_555 1_555
H36 O15 1_555 1_555
H37 O15 1_555 1_555
O16 Mn3 1_555 1_555
H38 O16 1_555 1_555
H39 O16 1_555 1_555
O17 Mn4 1_555 1_555
O18 Mn5 1_555 1_555
Mn6 O11 1_555 1_555
Mn1I O2 1_555 1_555
Mn3E N1 1_555 1_555
N1G Mn3 1_555 1_555
O2I Mn1 1_555 1_555
O3I Mn6 1_555 1_555
O6I Mn1 1_555 1_555
O8I Mn1 1_555 1_555
O10I Mn6 1_555 1_555
Mn6I O3 1_555 1_555
O12I Mn1I 1_555 1_555
Mn2I O2I 1_555 1_555
O1I Mn2I 1_555 1_555
O7I Mn2I 1_555 1_555
O9I Mn2I 1_555 1_555
Mn3I O1I 1_555 1_555
O4I Mn3I 1_555 1_555
O13I Mn3I 1_555 1_555
O16I Mn3I 1_555 1_555
N1P Mn3I 1_555 1_555
Mn4I O2I 1_555 1_555
O5I Mn4I 1_555 1_555
O17I Mn6I 1_555 1_555
Mn5I O2I 1_555 1_555
O15I Mn5I 1_555 1_555
O18I Mn6I 1_555 1_555
N1I C1I 1_555 1_555
C1I H1I 1_555 1_555
C2I N1I 1_555 1_555
Mn3N N1I 1_555 1_555
N2I C4I 1_555 1_555
C4I H6I 1_555 1_555
C5I N2I 1_555 1_555
C19I O1I 1_555 1_555
C22I O3I 1_555 1_555
C17I O4I 1_555 1_555
C26I O6I 1_555 1_555
C20I O7I 1_555 1_555
C25I O8I 1_555 1_555
C14I O10I 1_555 1_555
O11I Mn6I 1_555 1_555
C23I O18I 1_555 1_555
C24I O12I 1_555 1_555
C18I O13I 1_555 1_555
O14I Mn6I 1_555 1_555
C13I O17I 1_555 1_555
C9I C1I 1_555 1_555
H2I C2I 1_555 1_555
C10I C2I 1_555 1_555
C3I C13I 1_555 1_555
H3I C3I 1_555 1_555
H4I C3I 1_555 1_555
H5I C3I 1_555 1_555
C7I C4I 1_555 1_555
H7I C5I 1_555 1_555
C12I C5I 1_555 1_555
C6I C17I 1_555 1_555
H8I C6I 1_555 1_555
H9I C6I 1_555 1_555
H10I C6I 1_555 1_555
H11I C7I 1_555 1_555
C11I C7I 1_555 1_555
C8I C14I 1_555 1_555
H12I C8I 1_555 1_555
H13I C8I 1_555 1_555
H14I C8I 1_555 1_555
H15I C9I 1_555 1_555
C21I C9I 1_555 1_555
H16I C10I 1_555 1_555
C15I C19I 1_555 1_555
H17I C12I 1_555 1_555
C16I C23I 1_555 1_555
H18I C16I 1_555 1_555
H19I C16I 1_555 1_555
H20I C16I 1_555 1_555
H21I C18I 1_555 1_555
H22I C18I 1_555 1_555
H23I C18I 1_555 1_555
H24I C19I 1_555 1_555
H25I C19I 1_555 1_555
H26I C20I 1_555 1_555
H27I C20I 1_555 1_555
C27I C26I 1_555 1_555
H28I C22I 1_555 1_555
H29I C22I 1_555 1_555
H30I C24I 1_555 1_555
H31I C24I 1_555 1_555
H32I C25I 1_555 1_555
H33I C25I 1_555 1_555
H34I C26I 1_555 1_555
H35I C26I 1_555 1_555
H36I O15I 1_555 1_555
H37I O15I 1_555 1_555
H38I O16I 1_555 1_555
H39I O16I 1_555 1_555
Mn2 O3 1_555 1_555
Mn3 O7 1_555 1_555
Mn4 O7 1_555 1_555
Mn4 O13 1_555 1_555
Mn5 O2 1_555 1_555
Mn5 O12 1_555 1_555
Mn5 O13 1_555 1_555
O5 C17 1_555 1_555
O6 Mn1I 1_555 1_555
O6 Mn6I 1_555 1_555
O8 Mn1I 1_555 1_555
O10 Mn6I 1_555 1_555
O14 Mn6 1_555 1_555
C6 C17 1_555 1_555
C8 C14 1_555 1_555
C10 C21 1_555 1_555
C11 C12 1_555 1_555
C13 O17 1_555 1_555
C15 C22 1_555 1_555
C15 C24 1_555 1_555
C21 C27 1_555 1_555
C23 O18 1_555 1_555
C25 C27 1_555 1_555
C26 C27 1_555 1_555
O17 Mn6 1_555 1_555
O18 Mn6 1_555 1_555
Mn6 O6I 1_555 1_555
Mn1I O2I 1_555 1_555
Mn1I O3I 1_555 1_555
O3I Mn2I 1_555 1_555
O6I Mn2I 1_555 1_555
O8I Mn4I 1_555 1_555
O12I Mn5I 1_555 1_555
O1I Mn5I 1_555 1_555
O7I Mn3I 1_555 1_555
O7I Mn4I 1_555 1_555
O9I C14I 1_555 1_555
O13I Mn4I 1_555 1_555
O13I Mn5I 1_555 1_555
Mn4I O17I 1_555 1_555
O5I C17I 1_555 1_555
Mn5I O18I 1_555 1_555
C22I C15I 1_555 1_555
C20I C27I 1_555 1_555
C25I C27I 1_555 1_555
O11I C23I 1_555 1_555
C24I C15I 1_555 1_555
O14I C13I 1_555 1_555
C10I C21I 1_555 1_555
C12I C11I 1_555 1_555
C11I C15I 1_555 1_555
C21I C27I 1_555 1_555

#END
