
#######################################################################
#
#                 Cambridge Crystallographic Data Centre
#                                CCDC 
#
#######################################################################
#
# If this CIF has been generated from an entry in the Cambridge 
# Structural Database, then it will include bibliographic, chemical, 
# crystal, experimental, refinement or atomic coordinate data resulting 
# from the CCDC's data processing and validation procedures.
#
#######################################################################

data_KUKQAK
_chemical_formula_moiety         'C68 H46 Cl8 Cu19 N22 O28'
_symmetry_cell_setting           orthorhombic
_symmetry_space_group_name_H-M   'C c c m'
_symmetry_Int_Tables_number      66
_space_group_name_Hall           '-C 2 2c'
loop_
_symmetry_equiv_pos_site_id
_symmetry_equiv_pos_as_xyz
1 x,y,z
2 -x,-y,z
3 x,-y,1/2-z
4 -x,y,1/2-z
5 1/2+x,1/2+y,z
6 1/2-x,1/2-y,z
7 1/2+x,1/2-y,1/2-z
8 1/2-x,1/2+y,1/2-z
9 -x,-y,-z
10 x,y,-z
11 -x,y,1/2+z
12 x,-y,1/2+z
13 1/2-x,1/2-y,-z
14 1/2+x,1/2+y,-z
15 1/2-x,1/2+y,1/2+z
16 1/2+x,1/2-y,1/2+z
_cell_length_a                   15.8022(7)
_cell_length_b                   24.0290(12)
_cell_length_c                   21.3108(8)
_cell_angle_alpha                90
_cell_angle_beta                 90
_cell_angle_gamma                90
_cell_volume                     8091.95
loop_
_atom_site_label
_atom_site_type_symbol
_atom_site_fract_x
_atom_site_fract_y
_atom_site_fract_z
_atom_site_U_iso_or_equiv
_atom_site_thermal_displace_type
Cu1 Cu 0.05001(4) 0.04399(3) 0.5000 0.0173 Uani
Cu2 Cu 0.25872(4) 0.14218(3) 0.5000 0.0181 Uani
Cu3 Cu 0.40677(3) 0.20975(2) 0.57925(2) 0.0307 Uani
Cl1 Cl 0.11491(7) 0.13375(5) 0.5000 0.0192 Uani
O1 O 0.3822(2) 0.16586(16) 0.5000 0.0208 Uani
N1 N 0.26153(19) 0.13809(14) 0.59180(14) 0.0247 Uani
N2 N 0.3234(2) 0.16535(16) 0.62457(15) 0.0292 Uani
N3 N 0.2432(2) 0.12172(17) 0.69080(15) 0.0316 Uani
C1 C 0.2136(3) 0.1128(2) 0.63234(18) 0.0324 Uani
H1 H 0.1661 0.0917 0.6225 0.0390 Uiso
C2 C 0.3117(3) 0.1549(2) 0.68405(19) 0.0357 Uani
H2 H 0.3453 0.1681 0.7167 0.0430 Uiso
C3 C 0.2068(3) 0.10126(19) 0.74865(18) 0.0312 Uani
C4 C 0.2530(3) 0.06650(19) 0.78655(18) 0.0297 Uani
H3 H 0.3082 0.0570 0.7761 0.0360 Uiso
C5 C 0.2162(3) 0.04593(17) 0.84044(18) 0.0273 Uani
H4 H 0.2463 0.0218 0.8663 0.0330 Uiso
C6 C 0.1344(2) 0.06116(17) 0.85612(17) 0.0240 Uani
C7 C 0.1262(3) 0.1180(3) 0.7642(2) 0.0563 Uani
H5 H 0.0965 0.1424 0.7385 0.0680 Uiso
C8 C 0.0903(3) 0.0978(3) 0.8185(2) 0.0523 Uani
H6 H 0.0360 0.1089 0.8298 0.0630 Uiso
C9 C 0.0918(2) 0.03810(17) 0.91296(17) 0.0243 Uani
O2 O 0.11860(18) -0.00684(12) 0.93525(13) 0.0310 Uani
O3 O 0.02976(18) 0.06547(12) 0.93381(13) 0.0339 Uani
N4 N 0.4935(2) 0.24993(14) 0.53182(16) 0.0294 Uani
C10 C 0.5610(3) 0.27657(19) 0.5499(3) 0.0497 Uani
H7 H 0.5764 0.2828 0.5915 0.0600 Uiso
N5 N 0.6049(3) 0.2936(2) 0.5000 0.0543 Uani
Cl2 Cl 0.42380(11) 0.26706(6) 0.66317(6) 0.0656 Uani
Cl3 Cl 0.2500 0.2500 0.5000 0.0657 Uani
O4 O 0.2922(3) 0.0418(2) 0.5000 0.0607 Uani
C11 C 0.6882(5) 0.3193(3) 0.4802(3) 0.0173 Uani
C12 C 0.8478(6) 0.3616(4) 0.4668(4) 0.0273 Uani
C13 C 0.7309(5) 0.3110(4) 0.4245(4) 0.0280 Uani
H8 H 0.7057 0.2915 0.3917 0.0340 Uiso
C14 C 0.8114(5) 0.3321(4) 0.4184(4) 0.0300 Uani
H9 H 0.8414 0.3264 0.3815 0.0360 Uiso
O5 O 0.9751(3) 0.4012(2) 0.5000 0.0483 Uani
O6 O 0.9797(4) 0.3678(3) 0.4110(4) 0.0380 Uani
C15 C 0.9412(5) 0.3786(4) 0.4618(4) 0.0330 Uani
C16 C 0.7220(5) 0.3484(4) 0.4708(4) 0.0303 Uani
H10 H 0.6916 0.3536 0.4339 0.0360 Uiso
C17 C 0.8032(6) 0.3702(4) 0.4776(4) 0.0303 Uani
H11 H 0.8276 0.3904 0.4450 0.0370 Uiso
H12 H 0.415(5) 0.138(2) 0.5000 0.0800 Uiso
N4I N 0.4935(2) 0.24993(14) 0.46818(16) 0.0294 Uani
C10I C 0.5610(3) 0.27657(19) 0.4501(3) 0.0497 Uani
H7I H 0.5764 0.2828 0.4085 0.0600 Uiso
C11I C 0.6882(5) 0.3193(3) 0.5198(3) 0.0173 Uani
C12I C 0.8478(6) 0.3616(4) 0.5332(4) 0.0273 Uani
C13I C 0.7309(5) 0.3110(4) 0.5755(4) 0.0280 Uani
H8I H 0.7057 0.2915 0.6083 0.0340 Uiso
C14I C 0.8114(5) 0.3321(4) 0.5816(4) 0.0300 Uani
H9I H 0.8414 0.3264 0.6185 0.0360 Uiso
O6I O 0.9797(4) 0.3678(3) 0.5890(4) 0.0380 Uani
C15I C 0.9412(5) 0.3786(4) 0.5382(4) 0.0330 Uani
C16I C 0.7220(5) 0.3484(4) 0.5292(4) 0.0303 Uani
H10I H 0.6916 0.3536 0.5661 0.0360 Uiso
C17I C 0.8032(6) 0.3702(4) 0.5224(4) 0.0303 Uani
H11I H 0.8276 0.3904 0.5550 0.0370 Uiso
Cu1A Cu -0.05001(4) -0.04399(3) 0.5000 0.0173 Uani
Cu2A Cu -0.25872(4) -0.14218(3) 0.5000 0.0181 Uani
Cu3A Cu -0.40677(3) -0.20975(2) 0.57925(2) 0.0307 Uani
Cl1A Cl -0.11491(7) -0.13375(5) 0.5000 0.0192 Uani
O1A O -0.3822(2) -0.16586(16) 0.5000 0.0208 Uani
N1A N -0.26153(19) -0.13809(14) 0.59180(14) 0.0247 Uani
N2A N -0.3234(2) -0.16535(16) 0.62457(15) 0.0292 Uani
N3A N -0.2432(2) -0.12172(17) 0.69080(15) 0.0316 Uani
C1A C -0.2136(3) -0.1128(2) 0.63234(18) 0.0324 Uani
H1A H -0.1661 -0.0917 0.6225 0.0390 Uiso
C2A C -0.3117(3) -0.1549(2) 0.68405(19) 0.0357 Uani
H2A H -0.3453 -0.1681 0.7167 0.0430 Uiso
C3A C -0.2068(3) -0.10126(19) 0.74865(18) 0.0312 Uani
C4A C -0.2530(3) -0.06650(19) 0.78655(18) 0.0297 Uani
H3A H -0.3082 -0.0570 0.7761 0.0360 Uiso
C5A C -0.2162(3) -0.04593(17) 0.84044(18) 0.0273 Uani
H4A H -0.2463 -0.0218 0.8663 0.0330 Uiso
C6A C -0.1344(2) -0.06116(17) 0.85612(17) 0.0240 Uani
C7A C -0.1262(3) -0.1180(3) 0.7642(2) 0.0563 Uani
H5A H -0.0965 -0.1424 0.7385 0.0680 Uiso
C8A C -0.0903(3) -0.0978(3) 0.8185(2) 0.0523 Uani
H6A H -0.0360 -0.1089 0.8298 0.0630 Uiso
C9A C -0.0918(2) -0.03810(17) 0.91296(17) 0.0243 Uani
O2A O -0.11860(18) 0.00684(12) 0.93525(13) 0.0310 Uani
O3A O -0.02976(18) -0.06547(12) 0.93381(13) 0.0339 Uani
N4A N -0.4935(2) -0.24993(14) 0.53182(16) 0.0294 Uani
C10A C -0.5610(3) -0.27657(19) 0.5499(3) 0.0497 Uani
H7A H -0.5764 -0.2828 0.5915 0.0600 Uiso
N5A N -0.6049(3) -0.2936(2) 0.5000 0.0543 Uani
Cl2A Cl -0.42380(11) -0.26706(6) 0.66317(6) 0.0656 Uani
O4A O -0.2922(3) -0.0418(2) 0.5000 0.0607 Uani
C11A C -0.6882(5) -0.3193(3) 0.4802(3) 0.0173 Uani
C12A C -0.8478(6) -0.3616(4) 0.4668(4) 0.0273 Uani
C13A C -0.7309(5) -0.3110(4) 0.4245(4) 0.0280 Uani
H8A H -0.7057 -0.2915 0.3917 0.0340 Uiso
C14A C -0.8114(5) -0.3321(4) 0.4184(4) 0.0300 Uani
H9A H -0.8414 -0.3264 0.3815 0.0360 Uiso
O5A O -0.9751(3) -0.4012(2) 0.5000 0.0483 Uani
O6A O -0.9797(4) -0.3678(3) 0.4110(4) 0.0380 Uani
C15A C -0.9412(5) -0.3786(4) 0.4618(4) 0.0330 Uani
C16A C -0.7220(5) -0.3484(4) 0.4708(4) 0.0303 Uani
H10A H -0.6916 -0.3536 0.4339 0.0360 Uiso
C17A C -0.8032(6) -0.3702(4) 0.4776(4) 0.0303 Uani
H11A H -0.8276 -0.3904 0.4450 0.0370 Uiso
H12A H -0.415(5) -0.138(2) 0.5000 0.0800 Uiso
N4H N -0.4935(2) -0.24993(14) 0.46818(16) 0.0294 Uani
C10H C -0.5610(3) -0.27657(19) 0.4501(3) 0.0497 Uani
H7H H -0.5764 -0.2828 0.4085 0.0600 Uiso
C11H C -0.6882(5) -0.3193(3) 0.5198(3) 0.0173 Uani
C12H C -0.8478(6) -0.3616(4) 0.5332(4) 0.0273 Uani
C13H C -0.7309(5) -0.3110(4) 0.5755(4) 0.0280 Uani
H8H H -0.7057 -0.2915 0.6083 0.0340 Uiso
C14H C -0.8114(5) -0.3321(4) 0.5816(4) 0.0300 Uani
H9H H -0.8414 -0.3264 0.6185 0.0360 Uiso
O6H O -0.9797(4) -0.3678(3) 0.5890(4) 0.0380 Uani
C15H C -0.9412(5) -0.3786(4) 0.5382(4) 0.0330 Uani
C16H C -0.7220(5) -0.3484(4) 0.5292(4) 0.0303 Uani
H10H H -0.6916 -0.3536 0.5661 0.0360 Uiso
C17H C -0.8032(6) -0.3702(4) 0.5224(4) 0.0303 Uani
H11H H -0.8276 -0.3904 0.5550 0.0370 Uiso
Cu3B Cu 0.40677(3) -0.20975(2) 0.92075(2) 0.0307 Uani
N1B N 0.26153(19) -0.13809(14) 0.90820(14) 0.0247 Uani
N2B N 0.3234(2) -0.16535(16) 0.87543(15) 0.0292 Uani
N3B N 0.2432(2) -0.12172(17) 0.80920(15) 0.0316 Uani
C1B C 0.2136(3) -0.1128(2) 0.86766(18) 0.0324 Uani
H1B H 0.1661 -0.0917 0.8775 0.0390 Uiso
C2B C 0.3117(3) -0.1549(2) 0.81595(19) 0.0357 Uani
H2B H 0.3453 -0.1681 0.7833 0.0430 Uiso
C3B C 0.2068(3) -0.10126(19) 0.75135(18) 0.0312 Uani
C4B C 0.2530(3) -0.06650(19) 0.71345(18) 0.0297 Uani
H3B H 0.3082 -0.0570 0.7239 0.0360 Uiso
C5B C 0.2162(3) -0.04593(17) 0.65956(18) 0.0273 Uani
H4B H 0.2463 -0.0218 0.6337 0.0330 Uiso
C6B C 0.1344(2) -0.06116(17) 0.64388(17) 0.0240 Uani
C7B C 0.1262(3) -0.1180(3) 0.7358(2) 0.0563 Uani
H5B H 0.0965 -0.1424 0.7615 0.0680 Uiso
C8B C 0.0903(3) -0.0978(3) 0.6815(2) 0.0523 Uani
H6B H 0.0360 -0.1089 0.6702 0.0630 Uiso
C9B C 0.0918(2) -0.03810(17) 0.58704(17) 0.0243 Uani
O2B O 0.11860(18) 0.00684(12) 0.56475(13) 0.0310 Uani
O3B O 0.02976(18) -0.06547(12) 0.56619(13) 0.0339 Uani
Cl2B Cl 0.42380(11) -0.26706(6) 0.83683(6) 0.0656 Uani
Cu3C Cu -0.40677(3) 0.20975(2) 0.92075(2) 0.0307 Uani
N1C N -0.26153(19) 0.13809(14) 0.90820(14) 0.0247 Uani
N2C N -0.3234(2) 0.16535(16) 0.87543(15) 0.0292 Uani
N3C N -0.2432(2) 0.12172(17) 0.80920(15) 0.0316 Uani
C1C C -0.2136(3) 0.1128(2) 0.86766(18) 0.0324 Uani
H1C H -0.1661 0.0917 0.8775 0.0390 Uiso
C2C C -0.3117(3) 0.1549(2) 0.81595(19) 0.0357 Uani
H2C H -0.3453 0.1681 0.7833 0.0430 Uiso
C3C C -0.2068(3) 0.10126(19) 0.75135(18) 0.0312 Uani
C4C C -0.2530(3) 0.06650(19) 0.71345(18) 0.0297 Uani
H3C H -0.3082 0.0570 0.7239 0.0360 Uiso
C5C C -0.2162(3) 0.04593(17) 0.65956(18) 0.0273 Uani
H4C H -0.2463 0.0218 0.6337 0.0330 Uiso
C6C C -0.1344(2) 0.06116(17) 0.64388(17) 0.0240 Uani
C7C C -0.1262(3) 0.1180(3) 0.7358(2) 0.0563 Uani
H5C H -0.0965 0.1424 0.7615 0.0680 Uiso
C8C C -0.0903(3) 0.0978(3) 0.6815(2) 0.0523 Uani
H6C H -0.0360 0.1089 0.6702 0.0630 Uiso
C9C C -0.0918(2) 0.03810(17) 0.58704(17) 0.0243 Uani
O2C O -0.11860(18) -0.00684(12) 0.56475(13) 0.0310 Uani
O3C O -0.02976(18) 0.06547(12) 0.56619(13) 0.0339 Uani
Cl2C Cl -0.42380(11) 0.26706(6) 0.83683(6) 0.0656 Uani
Cu1B Cu 0.05001(4) -0.04399(3) 1.0000 0.0173 Uani
Cu1C Cu -0.05001(4) 0.04399(3) 1.0000 0.0173 Uani
Cu2B Cu 0.25872(4) -0.14218(3) 1.0000 0.0181 Uani
Cu2C Cu -0.25872(4) 0.14218(3) 1.0000 0.0181 Uani
Cu2E Cu 0.24128(4) 0.35782(3) 0.5000 0.0181 Uani
Cu3D Cu -1.09323(3) -0.29025(2) 0.57925(2) 0.0307 Uani
Cu3E Cu 1.09323(3) 0.29025(2) 0.57925(2) 0.0307 Uani
Cu3H Cu -0.40677(3) -0.20975(2) 0.42075(2) 0.0307 Uani
Cu3I Cu 0.40677(3) 0.20975(2) 0.42075(2) 0.0307 Uani
Cu3L Cu 1.09323(3) 0.29025(2) 0.42075(2) 0.0307 Uani
Cu3M Cu -1.09323(3) -0.29025(2) 0.42075(2) 0.0307 Uani
O1B O 0.3822(2) -0.16586(16) 1.0000 0.0208 Uani
O1C O -0.3822(2) 0.16586(16) 1.0000 0.0208 Uani
N1H N -0.26153(19) -0.13809(14) 0.40820(14) 0.0247 Uani
N1I N 0.26153(19) 0.13809(14) 0.40820(14) 0.0247 Uani
O2J O -0.11860(18) -0.00684(12) 0.43525(13) 0.0310 Uani
O2K O 0.11860(18) 0.00684(12) 0.43525(13) 0.0310 Uani
O3J O -0.02976(18) 0.06547(12) 0.43381(13) 0.0339 Uani
O3K O 0.02976(18) -0.06547(12) 0.43381(13) 0.0339 Uani
N4B N 0.4935(2) -0.24993(14) 0.96818(16) 0.0294 Uani
N4C N -0.4935(2) 0.24993(14) 0.96818(16) 0.0294 Uani
Cl3A Cl -0.2500 -0.2500 0.5000 0.0657 Uani
O6L O 0.5203(4) 0.1322(3) 0.5890(4) 0.0380 Uani
O6M O -0.5203(4) -0.1322(3) 0.5890(4) 0.0380 Uani
O6N O 0.5203(4) -0.1322(3) 0.9110(4) 0.0380 Uani
O6O O -0.5203(4) 0.1322(3) 0.9110(4) 0.0380 Uani
loop_
_atom_site_aniso_label
_atom_site_aniso_U_11
_atom_site_aniso_U_22
_atom_site_aniso_U_33
_atom_site_aniso_U_23
_atom_site_aniso_U_13
_atom_site_aniso_U_12
Cu1 0.0245(3) 0.0205(3) 0.0068(3) 0.000 0.000 -0.0091(3)
Cu2 0.0162(3) 0.0281(4) 0.0100(3) 0.000 0.000 -0.0096(3)
Cu3 0.0396(3) 0.0321(3) 0.0204(3) 0.0029(2) -0.0090(2) -0.0209(2)
Cl1 0.0202(6) 0.0196(6) 0.0179(6) 0.000 0.000 -0.0067(5)
O1 0.0171(17) 0.024(2) 0.0212(18) 0.000 0.000 -0.0071(16)
N1 0.0203(15) 0.038(2) 0.0158(15) 0.0010(14) -0.0044(13) -0.0116(14)
N2 0.0250(16) 0.043(2) 0.0197(16) 0.0013(15) -0.0078(13) -0.0135(15)
N3 0.0282(17) 0.053(2) 0.0135(16) 0.0069(16) -0.0030(13) -0.0148(16)
C1 0.026(2) 0.057(3) 0.0142(18) 0.0027(18) -0.0030(16) -0.016(2)
C2 0.032(2) 0.059(3) 0.016(2) 0.0029(19) -0.0056(17) -0.014(2)
C3 0.030(2) 0.051(3) 0.0125(17) 0.0057(18) -0.0014(16) -0.0078(19)
C4 0.028(2) 0.040(2) 0.021(2) -0.0040(18) 0.0052(17) -0.0015(18)
C5 0.033(2) 0.029(2) 0.020(2) 0.0018(16) 0.0013(17) 0.0039(18)
C6 0.030(2) 0.028(2) 0.0141(17) 0.0047(15) 0.0035(15) 0.0026(17)
C7 0.034(2) 0.100(5) 0.035(3) 0.043(3) 0.001(2) 0.007(3)
C8 0.031(2) 0.086(4) 0.040(3) 0.038(3) 0.010(2) 0.020(2)
C9 0.030(2) 0.030(2) 0.0128(17) -0.0001(16) 0.0009(15) 0.0056(17)
O2 0.0396(15) 0.0295(16) 0.0238(13) 0.0108(12) 0.0141(12) 0.0140(13)
O3 0.0421(16) 0.0297(16) 0.0300(15) 0.0120(13) 0.0166(13) 0.0177(13)
N4 0.0261(16) 0.0245(17) 0.0376(17) 0.0044(15) -0.0101(15) -0.0107(14)
C10 0.034(2) 0.026(2) 0.089(4) 0.012(3) -0.035(3) -0.015(2)
N5 0.014(2) 0.019(3) 0.130(6) 0.000 0.000 -0.007(2)
Cl2 0.1170(12) 0.0504(8) 0.0295(6) -0.0019(6) -0.0229(7) -0.0434(8)
Cl3 0.0347(12) 0.0165(11) 0.146(3) 0.000 0.000 -0.0055(10)
O4 0.049(3) 0.035(3) 0.098(4) 0.000 0.000 -0.005(2)
C11 0.016(3) 0.015(4) 0.021(4) 0.003(3) 0.000(3) -0.008(3)
C12 0.021(5) 0.028(5) 0.033(5) 0.003(4) -0.002(4) -0.004(4)
C13 0.022(4) 0.045(5) 0.017(4) 0.001(4) 0.000(3) -0.010(4)
C14 0.022(4) 0.045(5) 0.023(4) 0.002(4) 0.005(3) -0.003(4)
O5 0.023(2) 0.038(3) 0.084(4) 0.000 0.000 -0.011(2)
O6 0.022(3) 0.056(5) 0.036(4) 0.010(4) 0.005(3) -0.006(3)
C15 0.025(4) 0.036(5) 0.038(5) 0.005(4) 0.002(4) -0.006(4)
C16 0.020(4) 0.032(5) 0.039(4) 0.014(4) -0.007(3) -0.004(4)
C17 0.026(5) 0.026(5) 0.039(5) 0.014(3) 0.002(4) -0.006(4)
N4I 0.0261 0.0245 0.0376 -0.0044 0.0101 -0.0107
C10I 0.034 0.026 0.089 -0.012 0.035 -0.015
C11I 0.016 0.015 0.021 -0.003 0 -0.008
C12I 0.021 0.028 0.033 -0.003 0.002 -0.004
C13I 0.022 0.045 0.017 -0.001 0 -0.01
C14I 0.022 0.045 0.023 -0.002 -0.005 -0.003
O6I 0.022 0.056 0.036 -0.01 -0.005 -0.006
C15I 0.025 0.036 0.038 -0.005 -0.002 -0.006
C16I 0.02 0.032 0.039 -0.014 0.007 -0.004
C17I 0.026 0.026 0.039 -0.014 -0.002 -0.006
Cu1A 0.0245 0.0205 0.0068 0 0 -0.0091
Cu2A 0.0162 0.0281 0.01 0 0 -0.0096
Cu3A 0.0396 0.0321 0.0204 -0.0029 0.009 -0.0209
Cl1A 0.0202 0.0196 0.0179 0 0 -0.0067
O1A 0.0171 0.024 0.0212 0 0 -0.0071
N1A 0.0203 0.038 0.0158 -0.001 0.0044 -0.0116
N2A 0.025 0.043 0.0197 -0.0013 0.0078 -0.0135
N3A 0.0282 0.053 0.0135 -0.0069 0.003 -0.0148
C1A 0.026 0.057 0.0142 -0.0027 0.003 -0.016
C2A 0.032 0.059 0.016 -0.0029 0.0056 -0.014
C3A 0.03 0.051 0.0125 -0.0057 0.0014 -0.0078
C4A 0.028 0.04 0.021 0.004 -0.0052 -0.0015
C5A 0.033 0.029 0.02 -0.0018 -0.0013 0.0039
C6A 0.03 0.028 0.0141 -0.0047 -0.0035 0.0026
C7A 0.034 0.1 0.035 -0.043 -0.001 0.007
C8A 0.031 0.086 0.04 -0.038 -0.01 0.02
C9A 0.03 0.03 0.0128 0.0001 -0.0009 0.0056
O2A 0.0396 0.0295 0.0238 -0.0108 -0.0141 0.014
O3A 0.0421 0.0297 0.03 -0.012 -0.0166 0.0177
N4A 0.0261 0.0245 0.0376 -0.0044 0.0101 -0.0107
C10A 0.034 0.026 0.089 -0.012 0.035 -0.015
N5A 0.014 0.019 0.13 0 0 -0.007
Cl2A 0.117 0.0504 0.0295 0.0019 0.0229 -0.0434
O4A 0.049 0.035 0.098 0 0 -0.005
C11A 0.016 0.015 0.021 -0.003 0 -0.008
C12A 0.021 0.028 0.033 -0.003 0.002 -0.004
C13A 0.022 0.045 0.017 -0.001 0 -0.01
C14A 0.022 0.045 0.023 -0.002 -0.005 -0.003
O5A 0.023 0.038 0.084 0 0 -0.011
O6A 0.022 0.056 0.036 -0.01 -0.005 -0.006
C15A 0.025 0.036 0.038 -0.005 -0.002 -0.006
C16A 0.02 0.032 0.039 -0.014 0.007 -0.004
C17A 0.026 0.026 0.039 -0.014 -0.002 -0.006
N4H 0.0261 0.0245 0.0376 0.0044 -0.0101 -0.0107
C10H 0.034 0.026 0.089 0.012 -0.035 -0.015
C11H 0.016 0.015 0.021 0.003 0 -0.008
C12H 0.021 0.028 0.033 0.003 -0.002 -0.004
C13H 0.022 0.045 0.017 0.001 0 -0.01
C14H 0.022 0.045 0.023 0.002 0.005 -0.003
O6H 0.022 0.056 0.036 0.01 0.005 -0.006
C15H 0.025 0.036 0.038 0.005 0.002 -0.006
C16H 0.02 0.032 0.039 0.014 -0.007 -0.004
C17H 0.026 0.026 0.039 0.014 0.002 -0.006
Cu3B 0.0396 0.0321 0.0204 0.0029 0.009 0.0209
N1B 0.0203 0.038 0.0158 0.001 0.0044 0.0116
N2B 0.025 0.043 0.0197 0.0013 0.0078 0.0135
N3B 0.0282 0.053 0.0135 0.0069 0.003 0.0148
C1B 0.026 0.057 0.0142 0.0027 0.003 0.016
C2B 0.032 0.059 0.016 0.0029 0.0056 0.014
C3B 0.03 0.051 0.0125 0.0057 0.0014 0.0078
C4B 0.028 0.04 0.021 -0.004 -0.0052 0.0015
C5B 0.033 0.029 0.02 0.0018 -0.0013 -0.0039
C6B 0.03 0.028 0.0141 0.0047 -0.0035 -0.0026
C7B 0.034 0.1 0.035 0.043 -0.001 -0.007
C8B 0.031 0.086 0.04 0.038 -0.01 -0.02
C9B 0.03 0.03 0.0128 -0.0001 -0.0009 -0.0056
O2B 0.0396 0.0295 0.0238 0.0108 -0.0141 -0.014
O3B 0.0421 0.0297 0.03 0.012 -0.0166 -0.0177
Cl2B 0.117 0.0504 0.0295 -0.0019 0.0229 0.0434
Cu3C 0.0396 0.0321 0.0204 -0.0029 -0.009 0.0209
N1C 0.0203 0.038 0.0158 -0.001 -0.0044 0.0116
N2C 0.025 0.043 0.0197 -0.0013 -0.0078 0.0135
N3C 0.0282 0.053 0.0135 -0.0069 -0.003 0.0148
C1C 0.026 0.057 0.0142 -0.0027 -0.003 0.016
C2C 0.032 0.059 0.016 -0.0029 -0.0056 0.014
C3C 0.03 0.051 0.0125 -0.0057 -0.0014 0.0078
C4C 0.028 0.04 0.021 0.004 0.0052 0.0015
C5C 0.033 0.029 0.02 -0.0018 0.0013 -0.0039
C6C 0.03 0.028 0.0141 -0.0047 0.0035 -0.0026
C7C 0.034 0.1 0.035 -0.043 0.001 -0.007
C8C 0.031 0.086 0.04 -0.038 0.01 -0.02
C9C 0.03 0.03 0.0128 0.0001 0.0009 -0.0056
O2C 0.0396 0.0295 0.0238 -0.0108 0.0141 -0.014
O3C 0.0421 0.0297 0.03 -0.012 0.0166 -0.0177
Cl2C 0.117 0.0504 0.0295 0.0019 -0.0229 0.0434
Cu1B 0.0245 0.0205 0.0068 0 0 0.0091
Cu1C 0.0245 0.0205 0.0068 0 0 0.0091
Cu2B 0.0162 0.0281 0.01 0 0 0.0096
Cu2C 0.0162 0.0281 0.01 0 0 0.0096
Cu2E 0.0162 0.0281 0.01 0 0 -0.0096
Cu3D 0.0396 0.0321 0.0204 0.0029 -0.009 -0.0209
Cu3E 0.0396 0.0321 0.0204 -0.0029 0.009 -0.0209
Cu3H 0.0396 0.0321 0.0204 0.0029 -0.009 -0.0209
Cu3I 0.0396 0.0321 0.0204 -0.0029 0.009 -0.0209
Cu3L 0.0396 0.0321 0.0204 0.0029 -0.009 -0.0209
Cu3M 0.0396 0.0321 0.0204 -0.0029 0.009 -0.0209
O1B 0.0171 0.024 0.0212 0 0 0.0071
O1C 0.0171 0.024 0.0212 0 0 0.0071
N1H 0.0203 0.038 0.0158 0.001 -0.0044 -0.0116
N1I 0.0203 0.038 0.0158 -0.001 0.0044 -0.0116
O2J 0.0396 0.0295 0.0238 0.0108 -0.0141 -0.014
O2K 0.0396 0.0295 0.0238 -0.0108 0.0141 -0.014
O3J 0.0421 0.0297 0.03 0.012 -0.0166 -0.0177
O3K 0.0421 0.0297 0.03 -0.012 0.0166 -0.0177
N4B 0.0261 0.0245 0.0376 0.0044 0.0101 0.0107
N4C 0.0261 0.0245 0.0376 -0.0044 -0.0101 0.0107
Cl3A 0.0347 0.0165 0.146 0 0 -0.0055
O6L 0.022 0.056 0.036 0.01 0.005 -0.006
O6M 0.022 0.056 0.036 -0.01 -0.005 -0.006
O6N 0.022 0.056 0.036 0.01 -0.005 0.006
O6O 0.022 0.056 0.036 -0.01 0.005 0.006
loop_
_geom_bond_atom_site_label_1
_geom_bond_atom_site_label_2
_geom_bond_site_symmetry_1
_geom_bond_site_symmetry_2
Cu1 Cl1 1_555 1_555
Cu2 Cl1 1_555 1_555
Cu3 O1 1_555 1_555
O1 Cu2 1_555 1_555
N1 Cu2 1_555 1_555
N2 Cu3 1_555 1_555
N3 C1 1_555 1_555
C1 N1 1_555 1_555
H1 C1 1_555 1_555
C2 N2 1_555 1_555
H2 C2 1_555 1_555
C3 N3 1_555 1_555
C4 C3 1_555 1_555
H3 C4 1_555 1_555
C5 C4 1_555 1_555
H4 C5 1_555 1_555
C6 C5 1_555 1_555
C7 C3 1_555 1_555
H5 C7 1_555 1_555
C8 C6 1_555 1_555
H6 C8 1_555 1_555
C9 C6 1_555 1_555
O2 C9 1_555 1_555
O3 C9 1_555 1_555
N4 Cu3 1_555 1_555
C10 N4 1_555 1_555
H7 C10 1_555 1_555
N5 C10 1_555 1_555
Cl2 Cu3 1_555 1_555
Cl3 Cu2 1_555 1_555
O4 Cu2 1_555 1_555
C11 N5 1_555 1_555
C12 C14 1_555 1_555
C13 C11 1_555 1_555
H8 C13 1_555 1_555
C14 C13 1_555 1_555
H9 C14 1_555 1_555
O5 C15 1_555 1_555
O6 C15 1_555 1_555
C15 C12 1_555 1_555
C16 H10 1_555 1_555
C17 C16 1_555 1_555
H11 C17 1_555 1_555
H12 O1 1_555 1_555
N4I N4 1_555 1_555
C10I N5 1_555 1_555
H7I C10I 1_555 1_555
C11I N5 1_555 1_555
C12I C17 1_555 1_555
C13I C11I 1_555 1_555
H8I C13I 1_555 1_555
C14I C12I 1_555 1_555
H9I C14I 1_555 1_555
O6I C15I 1_555 1_555
C15I O5 1_555 1_555
C16I C11 1_555 1_555
H10I C16I 1_555 1_555
C17I C12 1_555 1_555
H11I C17I 1_555 1_555
Cu1A Cu1 1_555 1_555
Cu2A Cl1A 1_555 1_555
Cu3A O1A 1_555 1_555
Cl1A Cu1A 1_555 1_555
O1A Cu2A 1_555 1_555
N1A Cu2A 1_555 1_555
N2A Cu3A 1_555 1_555
N3A C1A 1_555 1_555
C1A N1A 1_555 1_555
H1A C1A 1_555 1_555
C2A N2A 1_555 1_555
H2A C2A 1_555 1_555
C3A N3A 1_555 1_555
C4A C3A 1_555 1_555
H3A C4A 1_555 1_555
C5A C4A 1_555 1_555
H4A C5A 1_555 1_555
C6A C5A 1_555 1_555
C7A C3A 1_555 1_555
H5A C7A 1_555 1_555
C8A C6A 1_555 1_555
H6A C8A 1_555 1_555
C9A C6A 1_555 1_555
O2A C9A 1_555 1_555
O3A C9A 1_555 1_555
N4A Cu3A 1_555 1_555
C10A N4A 1_555 1_555
H7A C10A 1_555 1_555
N5A C10A 1_555 1_555
Cl2A Cu3A 1_555 1_555
O4A Cu2A 1_555 1_555
C11A N5A 1_555 1_555
C12A C14A 1_555 1_555
C13A C11A 1_555 1_555
H8A C13A 1_555 1_555
C14A C13A 1_555 1_555
H9A C14A 1_555 1_555
O5A C15A 1_555 1_555
O6A C15A 1_555 1_555
C15A C12A 1_555 1_555
C16A H10A 1_555 1_555
C17A C16A 1_555 1_555
H11A C17A 1_555 1_555
H12A O1A 1_555 1_555
N4H N4A 1_555 1_555
C10H N5A 1_555 1_555
H7H C10H 1_555 1_555
C11H N5A 1_555 1_555
C12H C17A 1_555 1_555
C13H C11H 1_555 1_555
H8H C13H 1_555 1_555
C14H C12H 1_555 1_555
H9H C14H 1_555 1_555
O6H C15H 1_555 1_555
C15H O5A 1_555 1_555
C16H C11A 1_555 1_555
H10H C16H 1_555 1_555
C17H C12A 1_555 1_555
H11H C17H 1_555 1_555
Cu3B N2B 1_555 1_555
N1B N2B 1_555 1_555
N2B C2B 1_555 1_555
N3B C1B 1_555 1_555
C1B N1B 1_555 1_555
H1B C1B 1_555 1_555
C2B N3B 1_555 1_555
H2B C2B 1_555 1_555
C3B N3B 1_555 1_555
C4B C3B 1_555 1_555
H3B C4B 1_555 1_555
C5B C4B 1_555 1_555
H4B C5B 1_555 1_555
C6B C5B 1_555 1_555
C7B C3B 1_555 1_555
H5B C7B 1_555 1_555
C8B C6B 1_555 1_555
H6B C8B 1_555 1_555
C9B C6B 1_555 1_555
O2B Cu1 1_555 1_555
O3B Cu1A 1_555 1_555
Cl2B Cu3B 1_555 1_555
Cu3C N2C 1_555 1_555
N1C N2C 1_555 1_555
N2C C2C 1_555 1_555
N3C C1C 1_555 1_555
C1C N1C 1_555 1_555
H1C C1C 1_555 1_555
C2C N3C 1_555 1_555
H2C C2C 1_555 1_555
C3C N3C 1_555 1_555
C4C C3C 1_555 1_555
H3C C4C 1_555 1_555
C5C C4C 1_555 1_555
H4C C5C 1_555 1_555
C6C C5C 1_555 1_555
C7C C3C 1_555 1_555
H5C C7C 1_555 1_555
C8C C6C 1_555 1_555
H6C C8C 1_555 1_555
C9C C6C 1_555 1_555
O2C Cu1A 1_555 1_555
O3C Cu1 1_555 1_555
Cl2C Cu3C 1_555 1_555
Cu1B O2 1_555 1_555
Cu1C O3 1_555 1_555
Cu2B N1B 1_555 1_555
Cu2C N1C 1_555 1_555
Cu2E Cl3 1_555 1_555
Cu3D O6H 1_555 1_555
Cu3E O6I 1_555 1_555
Cu3H O1A 1_555 1_555
Cu3I O1 1_555 1_555
Cu3L O6 1_555 1_555
Cu3M O6A 1_555 1_555
O1B Cu3B 1_555 1_555
O1C Cu3C 1_555 1_555
N1H Cu2A 1_555 1_555
N1I Cu2 1_555 1_555
O2J Cu1A 1_555 1_555
O2K Cu1 1_555 1_555
O3J Cu1 1_555 1_555
O3K Cu1A 1_555 1_555
N4B Cu3B 1_555 1_555
N4C Cu3C 1_555 1_555
Cl3A Cu2A 1_555 1_555
O6L Cu3 1_555 1_555
O6M Cu3A 1_555 1_555
O6N Cu3B 1_555 1_555
O6O Cu3C 1_555 1_555
N1 N2 1_555 1_555
N3 C2 1_555 1_555
C7 C8 1_555 1_555
C16 C11I 1_555 1_555
N4I C10I 1_555 1_555
N4I Cu3I 1_555 1_555
C12I C15I 1_555 1_555
C13I C14I 1_555 1_555
C16I C17I 1_555 1_555
N1A N2A 1_555 1_555
N3A C2A 1_555 1_555
C7A C8A 1_555 1_555
O2A Cu1C 1_555 1_555
O3A Cu1B 1_555 1_555
C16A C11H 1_555 1_555
N4H C10H 1_555 1_555
N4H Cu3H 1_555 1_555
C12H C15H 1_555 1_555
C13H C14H 1_555 1_555
C16H C17H 1_555 1_555
C7B C8B 1_555 1_555
C9B O2B 1_555 1_555
C9B O3B 1_555 1_555
C7C C8C 1_555 1_555
C9C O2C 1_555 1_555
C9C O3C 1_555 1_555
Cu1B Cu1C 1_555 1_555
Cu2B O1B 1_555 1_555
Cu2C O1C 1_555 1_555

#END
