
#######################################################################
#
#                 Cambridge Crystallographic Data Centre
#                                CCDC 
#
#######################################################################
#
# If this CIF has been generated from an entry in the Cambridge 
# Structural Database, then it will include bibliographic, chemical, 
# crystal, experimental, refinement or atomic coordinate data resulting 
# from the CCDC's data processing and validation procedures.
#
#######################################################################

data_GIRYUD
_chemical_formula_moiety         '(C40 H30 I2 N6 O15 Zn3)n'
_symmetry_cell_setting           monoclinic
_symmetry_space_group_name_H-M   'C 2/c'
_symmetry_Int_Tables_number      15
_space_group_name_Hall           '-C 2yc'
loop_
_symmetry_equiv_pos_site_id
_symmetry_equiv_pos_as_xyz
1 x,y,z
2 -x,y,1/2-z
3 1/2+x,1/2+y,z
4 1/2-x,1/2+y,1/2-z
5 -x,-y,-z
6 x,-y,1/2+z
7 1/2-x,1/2-y,-z
8 1/2+x,1/2-y,1/2+z
_cell_length_a                   16.291(7)
_cell_length_b                   24.684(11)
_cell_length_c                   13.435(6)
_cell_angle_alpha                90
_cell_angle_beta                 124.098(5)
_cell_angle_gamma                90
_cell_volume                     4473.77
loop_
_atom_site_label
_atom_site_type_symbol
_atom_site_fract_x
_atom_site_fract_y
_atom_site_fract_z
_atom_site_U_iso_or_equiv
_atom_site_thermal_displace_type
I2 I 0.4342(2) 0.50296(10) 0.1333(2) 0.0934 Uani
I2A I 0.5658(2) 0.50296(10) 0.3667(2) 0.0934 Uani
Zn1 Zn 0.0000 0.5000 0.0000 0.0257 Uani
Zn2 Zn -0.17491(6) 0.55238(3) -0.27097(7) 0.0293 Uani
O1 O 0.2361(4) 0.5634(2) -0.0564(4) 0.0445 Uani
O2 O 0.1200(4) 0.6223(2) -0.0895(5) 0.0563 Uani
O3 O 0.1509(4) 0.5298(2) 0.0835(4) 0.0361 Uani
O4 O 0.2508(4) 0.5129(2) 0.2803(5) 0.0432 Uani
O5 O 0.4690(7) 0.6568(4) 0.5361(7) 0.1146 Uani
O6 O 0.5180(6) 0.7164(3) 0.4703(7) 0.0982 Uani
O7 O -0.0402(3) 0.53897(18) -0.1544(4) 0.0322 Uani
H1 H -0.0015 0.5620 -0.1547 0.0400 Uiso
N1 N 0.4681(6) 0.6778(3) 0.4550(6) 0.0560 Uani
N2 N -0.0403(4) 0.5710(2) 0.0592(5) 0.0324 Uani
N3 N -0.2628(4) 0.8844(2) 0.2356(5) 0.0356 Uani
C1 C 0.2683(5) 0.6180(3) 0.1042(6) 0.0306 Uani
C2 C 0.2815(5) 0.5903(3) 0.2035(6) 0.0283 Uani
C3 C 0.3490(5) 0.6096(3) 0.3183(6) 0.0360 Uani
H2 H 0.3598 0.5908 0.3846 0.0430 Uiso
C4 C 0.4001(6) 0.6567(3) 0.3343(7) 0.0385 Uani
C5 C 0.3885(6) 0.6854(3) 0.2393(7) 0.0451 Uani
H3 H 0.4245 0.7168 0.2520 0.0540 Uiso
C6 C 0.3213(6) 0.6659(3) 0.1241(7) 0.0425 Uani
H4 H 0.3113 0.6852 0.0586 0.0510 Uiso
C7 C 0.2005(6) 0.5997(3) -0.0234(6) 0.0357 Uani
C8 C 0.2215(5) 0.5404(3) 0.1854(6) 0.0303 Uani
C9 C -0.0207(6) 0.6216(3) 0.0459(6) 0.0350 Uani
H5 H 0.0180 0.6270 0.0158 0.0420 Uiso
C10 C -0.0540(6) 0.6663(3) 0.0736(7) 0.0379 Uani
H6 H -0.0384 0.7010 0.0620 0.0460 Uiso
C11 C -0.1125(6) 0.6590(3) 0.1200(6) 0.0374 Uani
C12 C -0.1327(6) 0.6057(3) 0.1333(7) 0.0398 Uani
H7 H -0.1710 0.5987 0.1634 0.0470 Uiso
C13 C -0.0969(6) 0.5636(3) 0.1028(7) 0.0376 Uani
H8 H -0.1119 0.5284 0.1123 0.0450 Uiso
C14 C -0.1512(6) 0.7033(3) 0.1547(7) 0.0434 Uani
H9 H -0.1910 0.6935 0.1812 0.0520 Uiso
C15 C -0.1361(6) 0.7552(3) 0.1523(7) 0.0429 Uani
H10 H -0.0945 0.7653 0.1286 0.0510 Uiso
C16 C -0.2054(6) 0.8930(3) 0.1959(7) 0.0454 Uani
H11 H -0.1929 0.9286 0.1858 0.0540 Uiso
C17 C -0.1634(6) 0.8523(3) 0.1690(8) 0.0477 Uani
H12 H -0.1245 0.8608 0.1405 0.0570 Uiso
C18 C -0.1788(5) 0.7992(3) 0.1840(6) 0.0364 Uani
C19 C -0.2373(7) 0.7896(3) 0.2280(8) 0.0498 Uani
H13 H -0.2489 0.7544 0.2417 0.0600 Uiso
C20 C -0.2777(6) 0.8329(3) 0.2509(8) 0.0475 Uani
H14 H -0.3177 0.8257 0.2786 0.0570 Uiso
Zn2A Zn 0.17491(6) 0.55238(3) -0.22903(7) 0.0293 Uani
O1A O -0.2361(4) 0.5634(2) -0.4436(4) 0.0445 Uani
O2A O -0.1200(4) 0.6223(2) -0.4105(5) 0.0563 Uani
O3A O -0.1509(4) 0.5298(2) -0.5835(4) 0.0361 Uani
O4A O -0.2508(4) 0.5129(2) -0.7803(5) 0.0432 Uani
O5A O -0.4690(7) 0.6568(4) -1.0361(7) 0.1146 Uani
O6A O -0.5180(6) 0.7164(3) -0.9703(7) 0.0982 Uani
O7A O 0.0402(3) 0.53897(18) -0.3456(4) 0.0322 Uani
H1A H 0.0015 0.5620 -0.3453 0.0400 Uiso
N1A N -0.4681(6) 0.6778(3) -0.9550(6) 0.0560 Uani
C1A C -0.2683(5) 0.6180(3) -0.6042(6) 0.0306 Uani
C2A C -0.2815(5) 0.5903(3) -0.7035(6) 0.0283 Uani
C3A C -0.3490(5) 0.6096(3) -0.8183(6) 0.0360 Uani
H2A H -0.3598 0.5908 -0.8846 0.0430 Uiso
C4A C -0.4001(6) 0.6567(3) -0.8343(7) 0.0385 Uani
C5A C -0.3885(6) 0.6854(3) -0.7393(7) 0.0451 Uani
H3A H -0.4245 0.7168 -0.7520 0.0540 Uiso
C6A C -0.3213(6) 0.6659(3) -0.6241(7) 0.0425 Uani
H4A H -0.3113 0.6852 -0.5586 0.0510 Uiso
C7A C -0.2005(6) 0.5997(3) -0.4766(6) 0.0357 Uani
C8A C -0.2215(5) 0.5404(3) -0.6854(6) 0.0303 Uani
N2D N 0.0403(4) 0.4290(2) -0.0592(5) 0.0324 Uani
N3D N 0.2628(4) 0.1156(2) -0.2356(5) 0.0356 Uani
C9D C 0.0207(6) 0.3784(3) -0.0459(6) 0.0350 Uani
H5D H -0.0180 0.3730 -0.0158 0.0420 Uiso
C10D C 0.0540(6) 0.3337(3) -0.0736(7) 0.0379 Uani
H6D H 0.0384 0.2990 -0.0620 0.0460 Uiso
C11D C 0.1125(6) 0.3410(3) -0.1200(6) 0.0374 Uani
C12D C 0.1327(6) 0.3943(3) -0.1333(7) 0.0398 Uani
H7D H 0.1710 0.4013 -0.1634 0.0470 Uiso
C13D C 0.0969(6) 0.4364(3) -0.1028(7) 0.0376 Uani
H8D H 0.1119 0.4716 -0.1123 0.0450 Uiso
C14D C 0.1512(6) 0.2967(3) -0.1547(7) 0.0434 Uani
H9D H 0.1910 0.3065 -0.1812 0.0520 Uiso
C15D C 0.1361(6) 0.2448(3) -0.1523(7) 0.0429 Uani
H10D H 0.0945 0.2347 -0.1286 0.0510 Uiso
C16D C 0.2054(6) 0.1070(3) -0.1959(7) 0.0454 Uani
H11D H 0.1929 0.0714 -0.1858 0.0540 Uiso
C17D C 0.1634(6) 0.1477(3) -0.1690(8) 0.0477 Uani
H12D H 0.1245 0.1392 -0.1405 0.0570 Uiso
C18D C 0.1788(5) 0.2008(3) -0.1840(6) 0.0364 Uani
C19D C 0.2373(7) 0.2104(3) -0.2280(8) 0.0498 Uani
H13D H 0.2489 0.2456 -0.2417 0.0600 Uiso
C20D C 0.2777(6) 0.1671(3) -0.2509(8) 0.0475 Uani
H14D H 0.3177 0.1743 -0.2786 0.0570 Uiso
Zn1A Zn 0.0000 0.5000 -0.5000 0.0257 Uani
Zn2B Zn 0.32509(6) 0.05238(3) -0.27097(7) 0.0293 Uani
Zn2D Zn 0.17491(6) 0.44762(3) 0.27097(7) 0.0293 Uani
Zn2E Zn -0.17491(6) 0.44762(3) -0.77097(7) 0.0293 Uani
Zn2F Zn -0.32509(6) 0.94762(3) 0.27097(7) 0.0293 Uani
O3D O -0.1509(4) 0.4702(2) -0.0835(4) 0.0361 Uani
O4D O -0.2508(4) 0.4871(2) -0.2803(5) 0.0432 Uani
O4E O 0.2508(4) 0.4871(2) -0.2197(5) 0.0432 Uani
O7D O 0.0402(3) 0.46103(18) 0.1544(4) 0.0322 Uani
N3F N -0.2372(4) 0.6156(2) -0.2356(5) 0.0356 Uani
N3G N 0.2372(4) 0.6156(2) -0.2644(5) 0.0356 Uani
O8 O 0.5000 0.2032(4) 0.7500 0.0746 Uani
H15 H 0.4636 0.1831 0.6895 0.0700 Uiso
H15A H 0.5364 0.1831 0.8105 0.0700 Uiso
loop_
_atom_site_aniso_label
_atom_site_aniso_U_11
_atom_site_aniso_U_22
_atom_site_aniso_U_33
_atom_site_aniso_U_23
_atom_site_aniso_U_13
_atom_site_aniso_U_12
I2 0.0659 0.1052 0.1045 0.0171 0.045 -0.012
I2A 0.0659 0.1052 0.1045 -0.0171 0.045 0.012
Zn1 0.0325(6) 0.0233(5) 0.0251(6) -0.0003(4) 0.0184(5) 0.0008(4)
Zn2 0.0366(5) 0.0273(4) 0.0288(4) 0.0027(3) 0.0213(4) 0.0049(3)
O1 0.054(3) 0.051(3) 0.034(3) -0.010(2) 0.028(3) -0.003(3)
O2 0.054(4) 0.055(4) 0.042(3) 0.007(3) 0.016(3) 0.005(3)
O3 0.038(3) 0.043(3) 0.027(3) -0.007(2) 0.018(2) -0.016(2)
O4 0.050(3) 0.039(3) 0.038(3) 0.006(2) 0.023(3) -0.007(2)
O5 0.131(8) 0.159(9) 0.053(5) -0.044(5) 0.051(5) -0.079(7)
O6 0.100(6) 0.096(6) 0.072(5) -0.038(4) 0.032(5) -0.058(5)
O7 0.034(3) 0.036(3) 0.031(3) 0.007(2) 0.021(2) 0.001(2)
N1 0.061(5) 0.067(5) 0.043(4) -0.024(4) 0.031(4) -0.026(4)
N2 0.045(4) 0.028(3) 0.035(3) -0.001(2) 0.029(3) 0.005(3)
N3 0.043(4) 0.034(3) 0.036(3) 0.001(3) 0.026(3) 0.008(3)
C1 0.036(4) 0.028(3) 0.037(4) -0.007(3) 0.026(3) -0.003(3)
C2 0.035(4) 0.029(3) 0.028(3) -0.002(3) 0.022(3) -0.003(3)
C3 0.038(4) 0.043(4) 0.029(4) -0.005(3) 0.020(3) -0.004(3)
C4 0.042(4) 0.040(4) 0.040(4) -0.021(3) 0.027(4) -0.012(3)
C5 0.052(5) 0.036(4) 0.053(5) -0.013(4) 0.033(4) -0.014(4)
C6 0.052(5) 0.037(4) 0.046(4) -0.003(3) 0.032(4) -0.011(4)
C7 0.045(4) 0.038(4) 0.027(4) 0.000(3) 0.022(4) -0.013(3)
C8 0.039(4) 0.026(3) 0.037(4) -0.005(3) 0.028(4) 0.000(3)
C9 0.051(4) 0.032(4) 0.036(4) -0.004(3) 0.033(4) -0.003(3)
C10 0.051(5) 0.027(4) 0.041(4) -0.004(3) 0.029(4) -0.002(3)
C11 0.047(5) 0.035(4) 0.035(4) 0.001(3) 0.026(4) 0.010(3)
C12 0.048(4) 0.038(4) 0.047(4) 0.003(3) 0.035(4) 0.004(3)
C13 0.053(5) 0.029(4) 0.046(4) 0.000(3) 0.037(4) 0.001(3)
C14 0.049(5) 0.039(4) 0.054(5) -0.001(4) 0.036(4) 0.006(4)
C15 0.051(5) 0.036(4) 0.053(5) 0.001(3) 0.036(4) 0.008(3)
C16 0.057(5) 0.034(4) 0.058(5) -0.002(4) 0.040(5) 0.004(4)
C17 0.058(5) 0.037(4) 0.073(6) -0.006(4) 0.052(5) 0.000(4)
C18 0.038(4) 0.039(4) 0.037(4) -0.004(3) 0.024(3) 0.010(3)
C19 0.072(6) 0.027(4) 0.068(6) 0.001(4) 0.050(5) 0.004(4)
C20 0.061(5) 0.043(4) 0.060(5) 0.006(4) 0.047(5) 0.009(4)
Zn2A 0.0366 0.0273 0.0288 -0.0027 0.0213 -0.0049
O1A 0.054 0.051 0.034 0.01 0.028 0.003
O2A 0.054 0.055 0.042 -0.007 0.016 -0.005
O3A 0.038 0.043 0.027 0.007 0.018 0.016
O4A 0.05 0.039 0.038 -0.006 0.023 0.007
O5A 0.131 0.159 0.053 0.044 0.051 0.079
O6A 0.1 0.096 0.072 0.038 0.032 0.058
O7A 0.034 0.036 0.031 -0.007 0.021 -0.001
N1A 0.061 0.067 0.043 0.024 0.031 0.026
C1A 0.036 0.028 0.037 0.007 0.026 0.003
C2A 0.035 0.029 0.028 0.002 0.022 0.003
C3A 0.038 0.043 0.029 0.005 0.02 0.004
C4A 0.042 0.04 0.04 0.021 0.027 0.012
C5A 0.052 0.036 0.053 0.013 0.033 0.014
C6A 0.052 0.037 0.046 0.003 0.032 0.011
C7A 0.045 0.038 0.027 0 0.022 0.013
C8A 0.039 0.026 0.037 0.005 0.028 0
N2D 0.045 0.028 0.035 -0.001 0.029 0.005
N3D 0.043 0.034 0.036 0.001 0.026 0.008
C9D 0.051 0.032 0.036 -0.004 0.033 -0.003
C10D 0.051 0.027 0.041 -0.004 0.029 -0.002
C11D 0.047 0.035 0.035 0.001 0.026 0.01
C12D 0.048 0.038 0.047 0.003 0.035 0.004
C13D 0.053 0.029 0.046 0 0.037 0.001
C14D 0.049 0.039 0.054 -0.001 0.036 0.006
C15D 0.051 0.036 0.053 0.001 0.036 0.008
C16D 0.057 0.034 0.058 -0.002 0.04 0.004
C17D 0.058 0.037 0.073 -0.006 0.052 0
C18D 0.038 0.039 0.037 -0.004 0.024 0.01
C19D 0.072 0.027 0.068 0.001 0.05 0.004
C20D 0.061 0.043 0.06 0.006 0.047 0.009
Zn1A 0.0325 0.0233 0.0251 0.0003 0.0184 -0.0008
Zn2B 0.0366 0.0273 0.0288 0.0027 0.0213 0.0049
Zn2D 0.0366 0.0273 0.0288 0.0027 0.0213 0.0049
Zn2E 0.0366 0.0273 0.0288 -0.0027 0.0213 -0.0049
Zn2F 0.0366 0.0273 0.0288 0.0027 0.0213 0.0049
O3D 0.038 0.043 0.027 -0.007 0.018 -0.016
O4D 0.05 0.039 0.038 0.006 0.023 -0.007
O4E 0.05 0.039 0.038 -0.006 0.023 0.007
O7D 0.034 0.036 0.031 0.007 0.021 0.001
N3F 0.043 0.034 0.036 0.001 0.026 0.008
N3G 0.043 0.034 0.036 -0.001 0.026 -0.008
O8 0.077(7) 0.040(5) 0.077(7) 0.000 0.025(6) 0.000
loop_
_geom_bond_atom_site_label_1
_geom_bond_atom_site_label_2
_geom_bond_site_symmetry_1
_geom_bond_site_symmetry_2
I2 I2A 1_555 1_555
Zn1 O3 1_555 1_555
Zn2 O7 1_555 1_555
O1 C7 1_555 1_555
O2 C7 1_555 1_555
O3 C8 1_555 1_555
O4 C8 1_555 1_555
O5 N1 1_555 1_555
O6 N1 1_555 1_555
O7 Zn1 1_555 1_555
H1 O7 1_555 1_555
N1 C4 1_555 1_555
N2 Zn1 1_555 1_555
N3 C16 1_555 1_555
C1 C2 1_555 1_555
C2 C3 1_555 1_555
C3 H2 1_555 1_555
C4 C3 1_555 1_555
C5 C4 1_555 1_555
H3 C5 1_555 1_555
C6 C1 1_555 1_555
H4 C6 1_555 1_555
C7 C1 1_555 1_555
C8 C2 1_555 1_555
C9 N2 1_555 1_555
H5 C9 1_555 1_555
C10 C9 1_555 1_555
H6 C10 1_555 1_555
C11 C10 1_555 1_555
C12 C11 1_555 1_555
H7 C12 1_555 1_555
C13 N2 1_555 1_555
H8 C13 1_555 1_555
C14 C11 1_555 1_555
H9 C14 1_555 1_555
C15 C14 1_555 1_555
H10 C15 1_555 1_555
C16 H11 1_555 1_555
C17 C16 1_555 1_555
H12 C17 1_555 1_555
C18 C15 1_555 1_555
C19 C18 1_555 1_555
H13 C19 1_555 1_555
C20 N3 1_555 1_555
H14 C20 1_555 1_555
O8 H15 1_555 1_555
Zn2A O1 1_555 1_555
O1A Zn2 1_555 1_555
O2A C7A 1_555 1_555
O3A C8A 1_555 1_555
O4A C8A 1_555 1_555
O5A N1A 1_555 1_555
O6A N1A 1_555 1_555
O7A Zn2A 1_555 1_555
H1A O7A 1_555 1_555
N1A C4A 1_555 1_555
C1A C2A 1_555 1_555
C2A C3A 1_555 1_555
C3A H2A 1_555 1_555
C4A C3A 1_555 1_555
C5A C4A 1_555 1_555
H3A C5A 1_555 1_555
C6A C1A 1_555 1_555
H4A C6A 1_555 1_555
C7A O1A 1_555 1_555
C8A C2A 1_555 1_555
N2D Zn1 1_555 1_555
N3D C16D 1_555 1_555
C9D N2D 1_555 1_555
H5D C9D 1_555 1_555
C10D C9D 1_555 1_555
H6D C10D 1_555 1_555
C11D C10D 1_555 1_555
C12D C11D 1_555 1_555
H7D C12D 1_555 1_555
C13D N2D 1_555 1_555
H8D C13D 1_555 1_555
C14D C11D 1_555 1_555
H9D C14D 1_555 1_555
C15D C14D 1_555 1_555
H10D C15D 1_555 1_555
C16D H11D 1_555 1_555
C17D C16D 1_555 1_555
H12D C17D 1_555 1_555
C18D C15D 1_555 1_555
C19D C18D 1_555 1_555
H13D C19D 1_555 1_555
C20D N3D 1_555 1_555
H14D C20D 1_555 1_555
Zn1A O3A 1_555 1_555
Zn2B N3D 1_555 1_555
Zn2D O4 1_555 1_555
Zn2E O4A 1_555 1_555
Zn2F N3 1_555 1_555
O3D Zn1 1_555 1_555
O4D Zn2 1_555 1_555
O4E Zn2A 1_555 1_555
O7D Zn1 1_555 1_555
N3F Zn2 1_555 1_555
N3G Zn2A 1_555 1_555
H15A O8 1_555 1_555
C5 C6 1_555 1_555
C12 C13 1_555 1_555
C17 C18 1_555 1_555
C19 C20 1_555 1_555
O7A Zn1A 1_555 1_555
C1A C7A 1_555 1_555
C5A C6A 1_555 1_555
C12D C13D 1_555 1_555
C17D C18D 1_555 1_555
C19D C20D 1_555 1_555
Zn2D O7D 1_555 1_555

#END
