
#######################################################################
#
#                 Cambridge Crystallographic Data Centre
#                                CCDC 
#
#######################################################################
#
# If this CIF has been generated from an entry in the Cambridge 
# Structural Database, then it will include bibliographic, chemical, 
# crystal, experimental, refinement or atomic coordinate data resulting 
# from the CCDC's data processing and validation procedures.
#
#######################################################################

data_GIRYOX
_chemical_formula_moiety         '(C40 H30 N6 O15 Zn3)n'
_symmetry_cell_setting           monoclinic
_symmetry_space_group_name_H-M   'C 2/c'
_symmetry_Int_Tables_number      15
_space_group_name_Hall           '-C 2yc'
loop_
_symmetry_equiv_pos_site_id
_symmetry_equiv_pos_as_xyz
1 x,y,z
2 -x,y,1/2-z
3 1/2+x,1/2+y,z
4 1/2-x,1/2+y,1/2-z
5 -x,-y,-z
6 x,-y,1/2+z
7 1/2-x,1/2-y,-z
8 1/2+x,1/2-y,1/2+z
_cell_length_a                   15.307(3)
_cell_length_b                   25.365(4)
_cell_length_c                   13.442(2)
_cell_angle_alpha                90
_cell_angle_beta                 124.029(2)
_cell_angle_gamma                90
_cell_volume                     4325.28
loop_
_atom_site_label
_atom_site_type_symbol
_atom_site_fract_x
_atom_site_fract_y
_atom_site_fract_z
_atom_site_U_iso_or_equiv
_atom_site_thermal_displace_type
Zn1 Zn 0.5000 0.0000 0.0000 0.0237 Uani
Zn2 Zn 0.31094(2) 0.051222(9) -0.27296(2) 0.0270 Uani
O1 O 0.75537(13) 0.06243(6) -0.05309(13) 0.0378 Uani
O2 O 0.62493(14) 0.11734(7) -0.09870(14) 0.0458 Uani
O3 O 0.66079(12) 0.02727(6) 0.08024(13) 0.0335 Uani
O4 O 0.76966(13) 0.01055(6) 0.27641(13) 0.0416 Uani
O5 O 0.9903(2) 0.15326(11) 0.53417(18) 0.0991 Uani
O6 O 1.0094(2) 0.22356(9) 0.4622(2) 0.0892 Uani
O7 O 0.45448(12) 0.03665(6) -0.15696(12) 0.0295 Uani
H1 H 0.4932 0.0597 -0.1573 0.0620 Uiso
N1 N 0.97320(18) 0.18006(10) 0.4506(2) 0.0513 Uani
N2 N 0.46009(14) 0.06977(7) 0.05965(15) 0.0282 Uani
N3 N 0.24952(15) 0.38558(7) 0.23377(16) 0.0306 Uani
C1 C 0.77680(17) 0.11712(8) 0.10077(18) 0.0278 Uani
C2 C 0.79492(17) 0.08842(8) 0.19968(18) 0.0268 Uani
C3 C 0.86172(17) 0.10883(9) 0.31466(19) 0.0321 Uani
H2 H 0.8772 0.0894 0.3813 0.0380 Uiso
C4 C 0.90475(18) 0.15821(9) 0.3285(2) 0.0351 Uani
C5 C 0.88582(19) 0.18810(9) 0.2329(2) 0.0383 Uani
H3 H 0.9152 0.2215 0.2447 0.0460 Uiso
C6 C 0.82173(19) 0.16703(9) 0.1187(2) 0.0367 Uani
H4 H 0.8084 0.1865 0.0529 0.0440 Uiso
C7 C 0.71101(19) 0.09692(9) -0.02728(19) 0.0307 Uani
C8 C 0.73692(18) 0.03775(8) 0.18270(19) 0.0276 Uani
C9 C 0.48275(18) 0.11869(8) 0.04417(18) 0.0301 Uani
H5 H 0.5230 0.1229 0.0126 0.0360 Uiso
C10 C 0.44966(18) 0.16332(8) 0.07253(19) 0.0317 Uani
H6 H 0.4683 0.1965 0.0610 0.0380 Uiso
C11 C 0.38791(18) 0.15821(9) 0.11870(18) 0.0304 Uani
C12 C 0.36413(19) 0.10714(9) 0.1338(2) 0.0342 Uani
H7 H 0.3231 0.1017 0.1640 0.0410 Uiso
C13 C 0.40126(18) 0.06466(8) 0.10420(19) 0.0321 Uani
H8 H 0.3847 0.0309 0.1157 0.0380 Uiso
C14 C 0.34870(19) 0.20319(9) 0.1518(2) 0.0358 Uani
H9 H 0.3063 0.1955 0.1793 0.0430 Uiso
C15 C 0.36796(18) 0.25370(9) 0.14608(19) 0.0338 Uani
H10 H 0.4107 0.2615 0.1190 0.0410 Uiso
C16 C 0.30983(19) 0.39138(9) 0.1920(2) 0.0371 Uani
H11 H 0.3262 0.4254 0.1816 0.0440 Uiso
C17 C 0.34935(19) 0.34953(9) 0.1634(2) 0.0366 Uani
H12 H 0.3906 0.3557 0.1338 0.0440 Uiso
C18 C 0.32776(18) 0.29836(9) 0.17872(18) 0.0306 Uani
C19 C 0.2665(2) 0.29253(9) 0.2246(2) 0.0411 Uani
H13 H 0.2509 0.2590 0.2384 0.0490 Uiso
C20 C 0.2291(2) 0.33596(9) 0.2496(2) 0.0393 Uani
H14 H 0.1873 0.3309 0.2790 0.0470 Uiso
Zn2A Zn 0.68906(2) 0.051222(9) -0.22704(2) 0.0270 Uani
O1A O 0.24463(13) 0.06243(6) -0.44691(13) 0.0378 Uani
O2A O 0.37507(14) 0.11734(7) -0.40130(14) 0.0458 Uani
O3A O 0.33921(12) 0.02727(6) -0.58024(13) 0.0335 Uani
O4A O 0.23034(13) 0.01055(6) -0.77641(13) 0.0416 Uani
O5A O 0.0097(2) 0.15326(11) -1.03417(18) 0.0991 Uani
O6A O -0.0094(2) 0.22356(9) -0.9622(2) 0.0892 Uani
O7A O 0.54552(12) 0.03665(6) -0.34304(12) 0.0295 Uani
H1A H 0.5068 0.0597 -0.3427 0.0620 Uiso
N1A N 0.02680(18) 0.18006(10) -0.9506(2) 0.0513 Uani
C1A C 0.22320(17) 0.11712(8) -0.60077(18) 0.0278 Uani
C2A C 0.20508(17) 0.08842(8) -0.69968(18) 0.0268 Uani
C3A C 0.13828(17) 0.10883(9) -0.81466(19) 0.0321 Uani
H2A H 0.1228 0.0894 -0.8813 0.0380 Uiso
C4A C 0.09525(18) 0.15821(9) -0.8285(2) 0.0351 Uani
C5A C 0.11418(19) 0.18810(9) -0.7329(2) 0.0383 Uani
H3A H 0.0848 0.2215 -0.7447 0.0460 Uiso
C6A C 0.17827(19) 0.16703(9) -0.6187(2) 0.0367 Uani
H4A H 0.1916 0.1865 -0.5529 0.0440 Uiso
C7A C 0.28899(19) 0.09692(9) -0.47272(19) 0.0307 Uani
C8A C 0.26308(18) 0.03775(8) -0.68270(19) 0.0276 Uani
N2D N 0.53991(14) -0.06977(7) -0.05965(15) 0.0282 Uani
N3D N 0.75048(15) -0.38558(7) -0.23377(16) 0.0306 Uani
C9D C 0.51725(18) -0.11869(8) -0.04417(18) 0.0301 Uani
H5D H 0.4770 -0.1229 -0.0126 0.0360 Uiso
C10D C 0.55034(18) -0.16332(8) -0.07253(19) 0.0317 Uani
H6D H 0.5317 -0.1965 -0.0610 0.0380 Uiso
C11D C 0.61209(18) -0.15821(9) -0.11870(18) 0.0304 Uani
C12D C 0.63587(19) -0.10714(9) -0.1338(2) 0.0342 Uani
H7D H 0.6769 -0.1017 -0.1640 0.0410 Uiso
C13D C 0.59874(18) -0.06466(8) -0.10420(19) 0.0321 Uani
H8D H 0.6153 -0.0309 -0.1157 0.0380 Uiso
C14D C 0.65130(19) -0.20319(9) -0.1518(2) 0.0358 Uani
H9D H 0.6937 -0.1955 -0.1793 0.0430 Uiso
C15D C 0.63204(18) -0.25370(9) -0.14608(19) 0.0338 Uani
H10D H 0.5893 -0.2615 -0.1190 0.0410 Uiso
C16D C 0.69017(19) -0.39138(9) -0.1920(2) 0.0371 Uani
H11D H 0.6738 -0.4254 -0.1816 0.0440 Uiso
C17D C 0.65065(19) -0.34953(9) -0.1634(2) 0.0366 Uani
H12D H 0.6094 -0.3557 -0.1338 0.0440 Uiso
C18D C 0.67224(18) -0.29836(9) -0.17872(18) 0.0306 Uani
C19D C 0.7335(2) -0.29253(9) -0.2246(2) 0.0411 Uani
H13D H 0.7491 -0.2590 -0.2384 0.0490 Uiso
C20D C 0.7709(2) -0.33596(9) -0.2496(2) 0.0393 Uani
H14D H 0.8127 -0.3309 -0.2790 0.0470 Uiso
Zn1A Zn 0.5000 0.0000 -0.5000 0.0237 Uani
Zn2B Zn 0.81094(2) -0.448778(9) -0.27296(2) 0.0270 Uani
Zn2D Zn 0.68906(2) -0.051222(9) 0.27296(2) 0.0270 Uani
Zn2E Zn 0.31094(2) -0.051222(9) -0.77296(2) 0.0270 Uani
Zn2F Zn 0.18906(2) 0.448778(9) 0.27296(2) 0.0270 Uani
O3D O 0.33921(12) -0.02727(6) -0.08024(13) 0.0335 Uani
O4D O 0.23034(13) -0.01055(6) -0.27641(13) 0.0416 Uani
O4E O 0.76966(13) -0.01055(6) -0.22359(13) 0.0416 Uani
O7D O 0.54552(12) -0.03665(6) 0.15696(12) 0.0295 Uani
N3F N 0.25048(15) 0.11442(7) -0.23377(16) 0.0306 Uani
N3G N 0.74952(15) 0.11442(7) -0.26623(16) 0.0306 Uani
O8 O 0.5000 0.19971(10) 0.7500 0.0644 Uani
H15 H 0.4636 0.1796 0.6895 0.1350 Uiso
H15A H 0.5364 0.1796 0.8105 0.1350 Uiso
loop_
_atom_site_aniso_label
_atom_site_aniso_U_11
_atom_site_aniso_U_22
_atom_site_aniso_U_33
_atom_site_aniso_U_23
_atom_site_aniso_U_13
_atom_site_aniso_U_12
Zn1 0.0322(2) 0.01932(17) 0.02107(17) -0.00020(13) 0.01576(16) 0.00068(14)
Zn2 0.03692(17) 0.02252(14) 0.02381(13) 0.00247(10) 0.01837(12) 0.00453(11)
O1 0.0484(11) 0.0421(9) 0.0263(8) -0.0080(7) 0.0229(8) -0.0047(8)
O2 0.0483(11) 0.0439(10) 0.0310(9) 0.0057(8) 0.0135(9) 0.0018(8)
O3 0.0377(10) 0.0365(9) 0.0262(8) -0.0043(7) 0.0179(7) -0.0133(7)
O4 0.0483(11) 0.0374(9) 0.0297(8) 0.0073(7) 0.0161(8) -0.0092(8)
O5 0.121(2) 0.131(2) 0.0356(11) -0.0293(13) 0.0378(13) -0.0706(18)
O6 0.111(2) 0.0604(15) 0.0642(14) -0.0370(12) 0.0294(14) -0.0371(14)
O7 0.0344(9) 0.0288(8) 0.0269(8) 0.0052(6) 0.0181(7) 0.0017(7)
N1 0.0505(15) 0.0622(16) 0.0423(13) -0.0252(12) 0.0266(12) -0.0190(12)
N2 0.0372(11) 0.0233(9) 0.0265(9) -0.0007(7) 0.0193(9) 0.0024(8)
N3 0.0370(11) 0.0265(10) 0.0313(10) 0.0002(8) 0.0210(9) 0.0044(8)
C1 0.0343(13) 0.0253(11) 0.0278(11) -0.0038(9) 0.0199(10) -0.0035(9)
C2 0.0304(12) 0.0269(11) 0.0258(11) -0.0033(9) 0.0174(10) -0.0020(9)
C3 0.0358(14) 0.0382(13) 0.0251(11) -0.0029(10) 0.0188(10) -0.0042(10)
C4 0.0349(14) 0.0402(14) 0.0320(12) -0.0159(10) 0.0199(11) -0.0091(11)
C5 0.0436(15) 0.0283(12) 0.0482(14) -0.0128(11) 0.0289(13) -0.0120(11)
C6 0.0479(15) 0.0292(12) 0.0360(12) -0.0019(10) 0.0253(12) -0.0076(11)
C7 0.0418(15) 0.0278(12) 0.0258(11) -0.0021(9) 0.0209(11) -0.0119(10)
C8 0.0344(13) 0.0246(11) 0.0294(11) -0.0004(9) 0.0212(11) 0.0001(9)
C9 0.0398(14) 0.0268(11) 0.0289(11) 0.0008(9) 0.0225(11) 0.0005(10)
C10 0.0454(14) 0.0208(11) 0.0327(12) -0.0009(9) 0.0242(11) -0.0013(10)
C11 0.0339(13) 0.0287(12) 0.0265(11) -0.0041(9) 0.0156(10) 0.0034(10)
C12 0.0424(15) 0.0320(12) 0.0382(12) -0.0013(10) 0.0286(12) 0.0019(11)
C13 0.0438(15) 0.0243(11) 0.0350(12) -0.0003(9) 0.0263(12) -0.0019(10)
C14 0.0406(15) 0.0347(13) 0.0374(13) -0.0028(10) 0.0250(12) 0.0064(11)
C15 0.0394(14) 0.0320(13) 0.0339(12) -0.0011(10) 0.0229(11) 0.0072(11)
C16 0.0496(16) 0.0257(12) 0.0433(13) 0.0001(10) 0.0305(13) 0.0023(11)
C17 0.0448(15) 0.0328(13) 0.0432(13) -0.0003(10) 0.0313(12) 0.0032(11)
C18 0.0347(14) 0.0296(12) 0.0265(11) -0.0016(9) 0.0165(10) 0.0048(10)
C19 0.0571(17) 0.0235(12) 0.0557(15) -0.0017(11) 0.0396(14) 0.0012(11)
C20 0.0505(16) 0.0311(13) 0.0507(14) 0.0001(11) 0.0371(13) 0.0029(11)
Zn2A 0.03692 0.02252 0.02381 -0.00247 0.01837 -0.00453
O1A 0.0484 0.0421 0.0263 0.008 0.0229 0.0047
O2A 0.0483 0.0439 0.031 -0.0057 0.0135 -0.0018
O3A 0.0377 0.0365 0.0262 0.0043 0.0179 0.0133
O4A 0.0483 0.0374 0.0297 -0.0073 0.0161 0.0092
O5A 0.121 0.131 0.0356 0.0293 0.0378 0.0706
O6A 0.111 0.0604 0.0642 0.037 0.0294 0.0371
O7A 0.0344 0.0288 0.0269 -0.0052 0.0181 -0.0017
N1A 0.0505 0.0622 0.0423 0.0252 0.0266 0.019
C1A 0.0343 0.0253 0.0278 0.0038 0.0199 0.0035
C2A 0.0304 0.0269 0.0258 0.0033 0.0174 0.002
C3A 0.0358 0.0382 0.0251 0.0029 0.0188 0.0042
C4A 0.0349 0.0402 0.032 0.0159 0.0199 0.0091
C5A 0.0436 0.0283 0.0482 0.0128 0.0289 0.012
C6A 0.0479 0.0292 0.036 0.0019 0.0253 0.0076
C7A 0.0418 0.0278 0.0258 0.0021 0.0209 0.0119
C8A 0.0344 0.0246 0.0294 0.0004 0.0212 -0.0001
N2D 0.0372 0.0233 0.0265 -0.0007 0.0193 0.0024
N3D 0.037 0.0265 0.0313 0.0002 0.021 0.0044
C9D 0.0398 0.0268 0.0289 0.0008 0.0225 0.0005
C10D 0.0454 0.0208 0.0327 -0.0009 0.0242 -0.0013
C11D 0.0339 0.0287 0.0265 -0.0041 0.0156 0.0034
C12D 0.0424 0.032 0.0382 -0.0013 0.0286 0.0019
C13D 0.0438 0.0243 0.035 -0.0003 0.0263 -0.0019
C14D 0.0406 0.0347 0.0374 -0.0028 0.025 0.0064
C15D 0.0394 0.032 0.0339 -0.0011 0.0229 0.0072
C16D 0.0496 0.0257 0.0433 0.0001 0.0305 0.0023
C17D 0.0448 0.0328 0.0432 -0.0003 0.0313 0.0032
C18D 0.0347 0.0296 0.0265 -0.0016 0.0165 0.0048
C19D 0.0571 0.0235 0.0557 -0.0017 0.0396 0.0012
C20D 0.0505 0.0311 0.0507 0.0001 0.0371 0.0029
Zn1A 0.0322 0.01932 0.02107 0.0002 0.01576 -0.00068
Zn2B 0.03692 0.02252 0.02381 0.00247 0.01837 0.00453
Zn2D 0.03692 0.02252 0.02381 0.00247 0.01837 0.00453
Zn2E 0.03692 0.02252 0.02381 -0.00247 0.01837 -0.00453
Zn2F 0.03692 0.02252 0.02381 0.00247 0.01837 0.00453
O3D 0.0377 0.0365 0.0262 -0.0043 0.0179 -0.0133
O4D 0.0483 0.0374 0.0297 0.0073 0.0161 -0.0092
O4E 0.0483 0.0374 0.0297 -0.0073 0.0161 0.0092
O7D 0.0344 0.0288 0.0269 0.0052 0.0181 0.0017
N3F 0.037 0.0265 0.0313 0.0002 0.021 0.0044
N3G 0.037 0.0265 0.0313 -0.0002 0.021 -0.0044
O8 0.0643(19) 0.0320(14) 0.080(2) 0.000 0.0300(17) 0.000
loop_
_geom_bond_atom_site_label_1
_geom_bond_atom_site_label_2
_geom_bond_site_symmetry_1
_geom_bond_site_symmetry_2
Zn1 O3 1_555 1_555
Zn2 O7 1_555 1_555
O1 C7 1_555 1_555
O2 C7 1_555 1_555
O3 C8 1_555 1_555
O4 C8 1_555 1_555
O5 N1 1_555 1_555
O6 N1 1_555 1_555
O7 Zn1 1_555 1_555
H1 O7 1_555 1_555
N1 C4 1_555 1_555
N2 Zn1 1_555 1_555
N3 C16 1_555 1_555
C1 C2 1_555 1_555
C2 C3 1_555 1_555
C3 H2 1_555 1_555
C4 C3 1_555 1_555
C5 C4 1_555 1_555
H3 C5 1_555 1_555
C6 C1 1_555 1_555
H4 C6 1_555 1_555
C7 C1 1_555 1_555
C8 C2 1_555 1_555
C9 N2 1_555 1_555
H5 C9 1_555 1_555
C10 C9 1_555 1_555
H6 C10 1_555 1_555
C11 C10 1_555 1_555
C12 C11 1_555 1_555
H7 C12 1_555 1_555
C13 N2 1_555 1_555
H8 C13 1_555 1_555
C14 C11 1_555 1_555
H9 C14 1_555 1_555
C15 C14 1_555 1_555
H10 C15 1_555 1_555
C16 H11 1_555 1_555
C17 C16 1_555 1_555
H12 C17 1_555 1_555
C18 C15 1_555 1_555
C19 C18 1_555 1_555
H13 C19 1_555 1_555
C20 N3 1_555 1_555
H14 C20 1_555 1_555
O8 H15 1_555 1_555
Zn2A O1 1_555 1_555
O1A Zn2 1_555 1_555
O2A C7A 1_555 1_555
O3A C8A 1_555 1_555
O4A C8A 1_555 1_555
O5A N1A 1_555 1_555
O6A N1A 1_555 1_555
O7A Zn2A 1_555 1_555
H1A O7A 1_555 1_555
N1A C4A 1_555 1_555
C1A C2A 1_555 1_555
C2A C3A 1_555 1_555
C3A H2A 1_555 1_555
C4A C3A 1_555 1_555
C5A C4A 1_555 1_555
H3A C5A 1_555 1_555
C6A C1A 1_555 1_555
H4A C6A 1_555 1_555
C7A O1A 1_555 1_555
C8A C2A 1_555 1_555
N2D Zn1 1_555 1_555
N3D C16D 1_555 1_555
C9D N2D 1_555 1_555
H5D C9D 1_555 1_555
C10D C9D 1_555 1_555
H6D C10D 1_555 1_555
C11D C10D 1_555 1_555
C12D C11D 1_555 1_555
H7D C12D 1_555 1_555
C13D N2D 1_555 1_555
H8D C13D 1_555 1_555
C14D C11D 1_555 1_555
H9D C14D 1_555 1_555
C15D C14D 1_555 1_555
H10D C15D 1_555 1_555
C16D H11D 1_555 1_555
C17D C16D 1_555 1_555
H12D C17D 1_555 1_555
C18D C15D 1_555 1_555
C19D C18D 1_555 1_555
H13D C19D 1_555 1_555
C20D N3D 1_555 1_555
H14D C20D 1_555 1_555
Zn1A O3A 1_555 1_555
Zn2B N3D 1_555 1_555
Zn2D O4 1_555 1_555
Zn2E O4A 1_555 1_555
Zn2F N3 1_555 1_555
O3D Zn1 1_555 1_555
O4D Zn2 1_555 1_555
O4E Zn2A 1_555 1_555
O7D Zn1 1_555 1_555
N3F Zn2 1_555 1_555
N3G Zn2A 1_555 1_555
H15A O8 1_555 1_555
C5 C6 1_555 1_555
C12 C13 1_555 1_555
C17 C18 1_555 1_555
C19 C20 1_555 1_555
O7A Zn1A 1_555 1_555
C1A C7A 1_555 1_555
C5A C6A 1_555 1_555
C12D C13D 1_555 1_555
C17D C18D 1_555 1_555
C19D C20D 1_555 1_555
Zn2D O7D 1_555 1_555

#END
