
#######################################################################
#
#                 Cambridge Crystallographic Data Centre
#                                CCDC 
#
#######################################################################
#
# If this CIF has been generated from an entry in the Cambridge 
# Structural Database, then it will include bibliographic, chemical, 
# crystal, experimental, refinement or atomic coordinate data resulting 
# from the CCDC's data processing and validation procedures.
#
#######################################################################

data_GIRZAK
_chemical_formula_moiety         '(C80 H60 N12 O30 Zn6)n'
_symmetry_cell_setting           triclinic
_symmetry_space_group_name_H-M   'P -1'
_symmetry_Int_Tables_number      2
_space_group_name_Hall           '-P 1'
loop_
_symmetry_equiv_pos_site_id
_symmetry_equiv_pos_as_xyz
1 x,y,z
2 -x,-y,-z
_cell_length_a                   13.838(19)
_cell_length_b                   13.844(19)
_cell_length_c                   14.42(3)
_cell_angle_alpha                108.31(2)
_cell_angle_beta                 110.43(2)
_cell_angle_gamma                107.046(16)
_cell_volume                     2191.33
loop_
_atom_site_label
_atom_site_type_symbol
_atom_site_fract_x
_atom_site_fract_y
_atom_site_fract_z
Zn1 Zn 0.8441(2) 0.6307(3) 0.3998(2)
Zn2 Zn 1.0000 0.5000 0.5000
Zn3 Zn 0.5000 0.5000 0.5000
Zn4 Zn 0.5530(2) 0.2740(3) 0.4002(2)
N1 N 0.8742(18) 0.6442(19) 0.2710(16)
N2 N 1.0254(16) 0.4615(17) 0.3510(15)
N3 N 0.3964(18) 0.142(2) 0.276(2)
N4 N -0.3275(19) -0.398(2) -0.3501(17)
N5 N 0.326(2) 0.791(2) 0.123(2)
N6 N 0.798(3) -0.153(3) 0.134(2)
O1 O 0.7283(14) 0.6849(17) 0.3863(14)
O2 O 0.5952(18) 0.508(2) 0.2569(16)
O3 O 0.5323(12) 0.6171(15) 0.4382(12)
O4 O 0.4450(13) 0.7281(14) 0.4626(12)
O5 O 0.2639(19) 0.810(2) 0.1620(19)
O6 O 0.337(2) 0.814(2) 0.0501(19)
O7 O 0.5692(11) 0.4204(14) 0.4207(10)
H1 H 0.5768 0.4443 0.3750
O8 O 0.9060(11) 0.3248(14) 0.4440(11)
O9 O 1.0221(13) 0.2377(15) 0.4630(11)
O10 O 0.6647(16) 0.2573(18) 0.2583(17)
O11 O 0.6537(15) 0.2021(17) 0.3870(15)
O12 O 0.899(2) -0.130(2) 0.169(2)
O13 O 0.714(2) -0.244(2) 0.057(2)
O14 O 0.8501(11) 0.5038(13) 0.4172(10)
H2 H 0.7982 0.4353 0.3732
C1 C 0.799(2) 0.568(2) 0.1615(19)
H3 H 0.7227 0.5246 0.1401
C2 C 0.832(2) 0.555(2) 0.084(2)
H4 H 0.7775 0.5067 0.0091
C3 C 0.948(2) 0.613(2) 0.1134(18)
C4 C 1.021(2) 0.698(2) 0.217(2)
H5 H 1.0954 0.7450 0.2356
C5 C 0.986(2) 0.715(2) 0.297(2)
H6 H 1.0371 0.7749 0.3687
C6 C 1.0058(19) 0.585(2) 0.0475(17)
H7 H 1.0625 0.6543 0.0569
C7 C 1.0644(19) 0.507(2) 0.0759(17)
H8 H 1.1462 0.5436 0.0965
C8 C 1.0545(16) 0.480(2) 0.1631(18)
C9 C 1.1459(19) 0.544(2) 0.278(2)
H9 H 1.2194 0.5923 0.2956
C10 C 1.125(2) 0.533(2) 0.3651(18)
H10 H 1.1857 0.5786 0.4380
C11 C 0.9448(18) 0.397(2) 0.2479(18)
H11 H 0.8746 0.3437 0.2332
C12 C 0.9586(18) 0.403(2) 0.1545(18)
H12 H 0.8978 0.3500 0.0830
C13 C -0.3018(18) -0.358(2) -0.246(2)
H13 H -0.3574 -0.3930 -0.2297
C14 C -0.195(3) -0.265(3) -0.155(2)
H14 H -0.1854 -0.2453 -0.0829
C15 C -0.106(3) -0.202(4) -0.166(3)
C16 C -0.132(3) -0.251(3) -0.277(3)
H15 H -0.0755 -0.2230 -0.2955
C17 C -0.240(3) -0.341(3) -0.363(2)
H16 H -0.2518 -0.3639 -0.4353
C18 C -0.006(3) -0.084(6) -0.079(3)
C19 C 0.364(2) 0.106(2) 0.164(2)
H17 H 0.4178 0.1338 0.1427
C20 C 0.249(2) 0.027(2) 0.084(2)
H18 H 0.2280 -0.0034 0.0087
C21 C 0.167(2) -0.008(2) 0.114(2)
C22 C 0.197(2) 0.023(3) 0.220(3)
H19 H 0.1417 -0.0044 0.2403
C23 C 0.310(3) 0.094(3) 0.302(2)
H20 H 0.3310 0.1115 0.3757
C24 C 0.039(2) -0.068(5) 0.039(3)
C25 C 0.673(2) 0.197(3) 0.308(3)
C26 C 0.715(2) 0.114(2) 0.262(2)
C27 C 0.629(2) 0.015(3) 0.164(2)
H21 H 0.5548 0.0075 0.1279
C28 C 0.655(2) -0.075(2) 0.1213(19)
H22 H 0.5988 -0.1430 0.0576
C29 C 0.770(2) -0.058(3) 0.178(2)
C30 C 0.857(2) 0.038(2) 0.272(2)
H23 H 0.9309 0.0438 0.3054
C31 C 0.8307(19) 0.132(2) 0.3178(18)
C32 C 0.9240(18) 0.241(2) 0.4166(18)
C33 C 0.629(3) 0.611(3) 0.307(2)
C34 C 0.5413(16) 0.658(2) 0.2561(18)
C35 C 0.4797(16) 0.691(2) 0.3089(18)
C36 C 0.4124(17) 0.741(2) 0.266(2)
H24 H 0.3763 0.7716 0.3022
C37 C 0.4025(19) 0.744(2) 0.171(2)
C38 C 0.453(2) 0.702(2) 0.1122(18)
H25 H 0.4424 0.7057 0.0464
C39 C 0.5232(18) 0.651(2) 0.1560(19)
H26 H 0.5546 0.6162 0.1170
C40 C 0.4889(17) 0.677(2) 0.4114(17)
N1A N 1.1258(18) 0.3558(19) -0.2710(16)
N2A N 0.9746(16) 0.5385(17) -0.3510(15)
C1A C 1.201(2) 0.432(2) -0.1615(19)
H3A H 1.2773 0.4754 -0.1401
C2A C 1.168(2) 0.445(2) -0.084(2)
H4A H 1.2225 0.4933 -0.0091
C3A C 1.052(2) 0.387(2) -0.1134(18)
C4A C 0.979(2) 0.302(2) -0.217(2)
H5A H 0.9046 0.2550 -0.2356
C5A C 1.014(2) 0.285(2) -0.297(2)
H6A H 0.9629 0.2251 -0.3687
C6A C 0.9942(19) 0.415(2) -0.0475(17)
H7A H 0.9375 0.3457 -0.0569
C7A C 0.9356(19) 0.493(2) -0.0759(17)
H8A H 0.8538 0.4564 -0.0965
C8A C 0.9455(16) 0.520(2) -0.1631(18)
C9A C 0.8541(19) 0.456(2) -0.278(2)
H9A H 0.7806 0.4077 -0.2956
C10A C 0.875(2) 0.467(2) -0.3651(18)
H10A H 0.8143 0.4214 -0.4380
C11A C 1.0552(18) 0.603(2) -0.2479(18)
H11A H 1.1254 0.6563 -0.2332
C12A C 1.0414(18) 0.597(2) -0.1545(18)
H12A H 1.1022 0.6500 -0.0830
Zn4A Zn -0.5530(2) -0.2740(3) -0.4002(2)
N3A N -0.3964(18) -0.142(2) -0.276(2)
N4A N 0.3275(19) 0.398(2) 0.3501(17)
N6A N -0.798(3) 0.153(3) -0.134(2)
O7A O -0.5692(11) -0.4204(14) -0.4207(10)
H1A H -0.5768 -0.4443 -0.3750
O8A O -0.9060(11) -0.3248(14) -0.4440(11)
O9A O -1.0221(13) -0.2377(15) -0.4630(11)
O10A O -0.6647(16) -0.2573(18) -0.2583(17)
O11A O -0.6537(15) -0.2021(17) -0.3870(15)
O12A O -0.899(2) 0.130(2) -0.169(2)
O13A O -0.714(2) 0.244(2) -0.057(2)
C13A C 0.3018(18) 0.358(2) 0.246(2)
H13A H 0.3574 0.3930 0.2297
C14A C 0.195(3) 0.265(3) 0.155(2)
H14A H 0.1854 0.2453 0.0829
C15A C 0.106(3) 0.202(4) 0.166(3)
C16A C 0.132(3) 0.251(3) 0.277(3)
H15A H 0.0755 0.2230 0.2955
C17A C 0.240(3) 0.341(3) 0.363(2)
H16A H 0.2518 0.3639 0.4353
C18A C 0.006(3) 0.084(6) 0.079(3)
C19A C -0.364(2) -0.106(2) -0.164(2)
H17A H -0.4178 -0.1338 -0.1427
C20A C -0.249(2) -0.027(2) -0.084(2)
H18A H -0.2280 0.0034 -0.0087
C21A C -0.167(2) 0.008(2) -0.114(2)
C22A C -0.197(2) -0.023(3) -0.220(3)
H19A H -0.1417 0.0044 -0.2403
C23A C -0.310(3) -0.094(3) -0.302(2)
H20A H -0.3310 -0.1115 -0.3757
C24A C -0.039(2) 0.068(5) -0.039(3)
C25A C -0.673(2) -0.197(3) -0.308(3)
C26A C -0.715(2) -0.114(2) -0.262(2)
C27A C -0.629(2) -0.015(3) -0.164(2)
H21A H -0.5548 -0.0075 -0.1279
C28A C -0.655(2) 0.075(2) -0.1213(19)
H22A H -0.5988 0.1430 -0.0576
C29A C -0.770(2) 0.058(3) -0.178(2)
C30A C -0.857(2) -0.038(2) -0.272(2)
H23A H -0.9309 -0.0438 -0.3054
C31A C -0.8307(19) -0.132(2) -0.3178(18)
C32A C -0.9240(18) -0.241(2) -0.4166(18)
Zn1A Zn 1.1559(2) 0.3693(3) 0.6002(2)
N5A N 1.674(2) 0.209(2) 0.877(2)
O1A O 1.2717(14) 0.3151(17) 0.6137(14)
O2A O 1.4048(18) 0.492(2) 0.7431(16)
O3A O 1.4677(12) 0.3829(15) 0.5618(12)
O4A O 1.5550(13) 0.2719(14) 0.5374(12)
O5A O 1.7361(19) 0.190(2) 0.8380(19)
O6A O 1.663(2) 0.186(2) 0.9499(19)
O14A O 1.1499(11) 0.4962(13) 0.5828(10)
H2A H 1.2018 0.5647 0.6268
C33A C 1.371(3) 0.389(3) 0.693(2)
C34A C 1.4587(16) 0.342(2) 0.7439(18)
C35A C 1.5203(16) 0.309(2) 0.6911(18)
C36A C 1.5876(17) 0.259(2) 0.734(2)
H24A H 1.6237 0.2284 0.6978
C37A C 1.5975(19) 0.256(2) 0.829(2)
C38A C 1.547(2) 0.298(2) 0.8878(18)
H25A H 1.5576 0.2943 0.9536
C39A C 1.4768(18) 0.349(2) 0.8440(19)
H26A H 1.4454 0.3838 0.8830
C40A C 1.5111(17) 0.323(2) 0.5886(17)
Zn1_2 Zn -1.1559(2) -0.3693(3) -0.6002(2)
Zn1A_2 Zn 1.1559(2) 0.3693(3) -0.3998(2)
Zn2_2 Zn -1.0000 -0.5000 -0.5000
Zn2_3 Zn 1.0000 0.5000 -0.5000
Zn3_2 Zn -0.5000 -0.5000 -0.5000
Zn3_3 Zn 1.5000 0.5000 0.5000
Zn4_2 Zn 1.5530(2) 0.2740(3) 0.4002(2)
Zn4A_2 Zn 0.4470(2) 0.7260(3) 0.5998(2)
N1A_2 N 1.1258(18) 0.3558(19) 0.7290(16)
N2A_2 N 0.9746(16) 0.5385(17) 0.6490(15)
N4_2 N 0.6725(19) 0.602(2) 0.6499(17)
O3A_2 O 0.4677(12) 0.3829(15) 0.5618(12)
O4_2 O -0.5550(13) -0.2719(14) -0.5374(12)
O4A_2 O 0.5550(13) 0.2719(14) 0.5374(12)
O7A_2 O 0.4308(11) 0.5796(14) 0.5793(10)
O8A_2 O 1.0940(11) 0.6752(14) 0.5560(11)
O9A_2 O 0.9779(13) 0.7623(15) 0.5370(11)
O15 O 0.462(2) 0.6957(19) 0.8937(18)
H27 H 0.3926 0.6837 0.8574
H28 H 0.4655 0.6360 0.8583
O16 O 0.756(5) 0.010(6) 0.512(3)
H29 H 0.7957 -0.0268 0.5103
H30 H 0.7438 0.0492 0.4781
loop_
_geom_bond_atom_site_label_1
_geom_bond_atom_site_label_2
_geom_bond_site_symmetry_1
_geom_bond_site_symmetry_2
Zn1 N1 1_555 1_555
Zn2 N2 1_555 1_555
Zn3 O3 1_555 1_555
Zn4 N3 1_555 1_555
N1 C1 1_555 1_555
N2 C10 1_555 1_555
N3 C19 1_555 1_555
N4 C13 1_555 1_555
N5 O5 1_555 1_555
N6 O12 1_555 1_555
O1 Zn1 1_555 1_555
O2 C33 1_555 1_555
O3 C40 1_555 1_555
O4 C40 1_555 1_555
O6 N5 1_555 1_555
O7 Zn3 1_555 1_555
H1 O7 1_555 1_555
O8 Zn2 1_555 1_555
O9 C32 1_555 1_555
O10 C25 1_555 1_555
O11 Zn4 1_555 1_555
O13 N6 1_555 1_555
O14 Zn1 1_555 1_555
H2 O14 1_555 1_555
C1 H3 1_555 1_555
C2 C1 1_555 1_555
H4 C2 1_555 1_555
C3 C2 1_555 1_555
C4 C3 1_555 1_555
H5 C4 1_555 1_555
C5 N1 1_555 1_555
H6 C5 1_555 1_555
C6 C3 1_555 1_555
H7 C6 1_555 1_555
C7 C6 1_555 1_555
H8 C7 1_555 1_555
C8 C7 1_555 1_555
C9 C8 1_555 1_555
H9 C9 1_555 1_555
C10 C9 1_555 1_555
H10 C10 1_555 1_555
C11 N2 1_555 1_555
H11 C11 1_555 1_555
C12 C8 1_555 1_555
H12 C12 1_555 1_555
C13 H13 1_555 1_555
C14 C13 1_555 1_555
H14 C14 1_555 1_555
C15 C14 1_555 1_555
C16 C15 1_555 1_555
H15 C16 1_555 1_555
C17 N4 1_555 1_555
H16 C17 1_555 1_555
C18 C15 1_555 1_555
C19 H17 1_555 1_555
C20 C19 1_555 1_555
H18 C20 1_555 1_555
C21 C20 1_555 1_555
C22 C21 1_555 1_555
H19 C22 1_555 1_555
C23 N3 1_555 1_555
H20 C23 1_555 1_555
C24 C18 1_555 1_555
C25 O11 1_555 1_555
C26 C25 1_555 1_555
C27 C26 1_555 1_555
H21 C27 1_555 1_555
C28 C27 1_555 1_555
H22 C28 1_555 1_555
C29 N6 1_555 1_555
C30 C29 1_555 1_555
H23 C30 1_555 1_555
C31 C26 1_555 1_555
C32 O8 1_555 1_555
C33 O1 1_555 1_555
C34 C33 1_555 1_555
C35 C34 1_555 1_555
C36 C35 1_555 1_555
H24 C36 1_555 1_555
C37 N5 1_555 1_555
C38 C37 1_555 1_555
H25 C38 1_555 1_555
C39 C34 1_555 1_555
H26 C39 1_555 1_555
C40 C35 1_555 1_555
O15 H27 1_555 1_555
H28 O15 1_555 1_555
O16 H29 1_555 1_555
H30 O16 1_555 1_555
N1A C1A 1_555 1_555
N2A C10A 1_555 1_555
C1A H3A 1_555 1_555
C2A C1A 1_555 1_555
H4A C2A 1_555 1_555
C3A C2A 1_555 1_555
C4A C3A 1_555 1_555
H5A C4A 1_555 1_555
C5A N1A 1_555 1_555
H6A C5A 1_555 1_555
C6A C7 1_555 1_555
H7A C6A 1_555 1_555
C7A C6 1_555 1_555
H8A C7A 1_555 1_555
C8A C7A 1_555 1_555
C9A C8A 1_555 1_555
H9A C9A 1_555 1_555
C10A C9A 1_555 1_555
H10A C10A 1_555 1_555
C11A N2A 1_555 1_555
H11A C11A 1_555 1_555
C12A C8A 1_555 1_555
H12A C12A 1_555 1_555
Zn4A N3A 1_555 1_555
N3A C19A 1_555 1_555
N4A Zn3 1_555 1_555
N6A O12A 1_555 1_555
O7A Zn4A 1_555 1_555
H1A O7A 1_555 1_555
O8A C32A 1_555 1_555
O9A C32A 1_555 1_555
O10A C25A 1_555 1_555
O11A Zn4A 1_555 1_555
O13A N6A 1_555 1_555
C13A N4A 1_555 1_555
H13A C13A 1_555 1_555
C14A C13A 1_555 1_555
H14A C14A 1_555 1_555
C15A C14A 1_555 1_555
C16A C15A 1_555 1_555
H15A C16A 1_555 1_555
C17A N4A 1_555 1_555
H16A C17A 1_555 1_555
C18A C15A 1_555 1_555
C19A H17A 1_555 1_555
C20A C19A 1_555 1_555
H18A C20A 1_555 1_555
C21A C20A 1_555 1_555
C22A C21A 1_555 1_555
H19A C22A 1_555 1_555
C23A N3A 1_555 1_555
H20A C23A 1_555 1_555
C24A C18A 1_555 1_555
C25A O11A 1_555 1_555
C26A C25A 1_555 1_555
C27A C26A 1_555 1_555
H21A C27A 1_555 1_555
C28A C27A 1_555 1_555
H22A C28A 1_555 1_555
C29A N6A 1_555 1_555
C30A C29A 1_555 1_555
H23A C30A 1_555 1_555
C31A C26A 1_555 1_555
C32A C31A 1_555 1_555
Zn1A O9 1_555 1_555
N5A O5A 1_555 1_555
O1A Zn1A 1_555 1_555
O2A C33A 1_555 1_555
O3A C40A 1_555 1_555
O4A C40A 1_555 1_555
O6A N5A 1_555 1_555
O14A Zn2 1_555 1_555
H2A O14A 1_555 1_555
C33A O1A 1_555 1_555
C34A C33A 1_555 1_555
C35A C34A 1_555 1_555
C36A C35A 1_555 1_555
H24A C36A 1_555 1_555
C37A N5A 1_555 1_555
C38A C37A 1_555 1_555
H25A C38A 1_555 1_555
C39A C34A 1_555 1_555
H26A C39A 1_555 1_555
C40A C35A 1_555 1_555
Zn1_2 O9A 1_555 1_555
Zn1A_2 N1A 1_555 1_555
Zn2_2 O8A 1_555 1_555
Zn2_3 N2A 1_555 1_555
Zn3_2 N4 1_555 1_555
Zn3_3 O3A 1_555 1_555
Zn4_2 O4A 1_555 1_555
Zn4A_2 O4 1_555 1_555
N1A_2 Zn1A 1_555 1_555
N2A_2 Zn2 1_555 1_555
N4_2 Zn3 1_555 1_555
O3A_2 Zn3 1_555 1_555
O4_2 Zn4A 1_555 1_555
O4A_2 Zn4 1_555 1_555
O7A_2 Zn3 1_555 1_555
O8A_2 Zn2 1_555 1_555
O9A_2 Zn1 1_555 1_555
Zn2 O14 1_555 1_555
Zn4 O7 1_555 1_555
C4 C5 1_555 1_555
C11 C12 1_555 1_555
C16 C17 1_555 1_555
C21 C24 1_555 1_555
C22 C23 1_555 1_555
C28 C29 1_555 1_555
C30 C31 1_555 1_555
C31 C32 1_555 1_555
C36 C37 1_555 1_555
C38 C39 1_555 1_555
C3A C6A 1_555 1_555
C4A C5A 1_555 1_555
C6A C7A 1_555 1_555
C11A C12A 1_555 1_555
O7A Zn3_2 1_555 1_555
C16A C17A 1_555 1_555
C21A C24A 1_555 1_555
C22A C23A 1_555 1_555
C28A C29A 1_555 1_555
C30A C31A 1_555 1_555
Zn1A O14A 1_555 1_555
C36A C37A 1_555 1_555
C38A C39A 1_555 1_555
Zn4A_2 O7A_2 1_555 1_555

#END
