
#######################################################################
#
#                 Cambridge Crystallographic Data Centre
#                                CCDC 
#
#######################################################################
#
# If this CIF has been generated from an entry in the Cambridge 
# Structural Database, then it will include bibliographic, chemical, 
# crystal, experimental, refinement or atomic coordinate data resulting 
# from the CCDC's data processing and validation procedures.
#
#######################################################################

data_UYAQAN
_chemical_formula_moiety         '(C26 H20 Mg1 N10)n'
_symmetry_cell_setting           rhombohedral
_symmetry_space_group_name_H-M   'R -3'
_symmetry_Int_Tables_number      148
_space_group_name_Hall           '-R 3'
loop_
_symmetry_equiv_pos_site_id
_symmetry_equiv_pos_as_xyz
1 x,y,z
2 -y,x-y,z
3 -x+y,-x,z
4 2/3+x,1/3+y,1/3+z
5 2/3-y,1/3+x-y,1/3+z
6 2/3-x+y,1/3-x,1/3+z
7 1/3+x,2/3+y,2/3+z
8 1/3-y,2/3+x-y,2/3+z
9 1/3-x+y,2/3-x,2/3+z
10 -x,-y,-z
11 y,-x+y,-z
12 x-y,x,-z
13 1/3-x,2/3-y,2/3-z
14 1/3+y,2/3-x+y,2/3-z
15 1/3+x-y,2/3+x,2/3-z
16 2/3-x,1/3-y,1/3-z
17 2/3+y,1/3-x+y,1/3-z
18 2/3+x-y,1/3+x,1/3-z
_cell_length_a                   27.085(6)
_cell_length_b                   27.085(6)
_cell_length_c                   10.329(6)
_cell_angle_alpha                90
_cell_angle_beta                 90
_cell_angle_gamma                120
_cell_volume                     6562.16
loop_
_atom_site_label
_atom_site_type_symbol
_atom_site_fract_x
_atom_site_fract_y
_atom_site_fract_z
_atom_site_U_iso_or_equiv
_atom_site_thermal_displace_type
Mg1 Mg 0.1667 0.3333 -0.1667 0.0399 Uani
C1 C 0.1660(3) 0.2200(3) -0.0766(6) 0.0620 Uani
H1 H 0.1794 0.2200 -0.1595 0.0750 Uiso
C2 C 0.1604(3) 0.1792(3) 0.0089(7) 0.0737 Uani
H2 H 0.1713 0.1529 -0.0147 0.0880 Uiso
C3 C 0.1388(3) 0.1772(3) 0.1296(7) 0.0694 Uani
H3 H 0.1337 0.1487 0.1874 0.0830 Uiso
C4 C 0.1244(2) 0.2176(3) 0.1658(6) 0.0464 Uani
C5 C 0.1314(2) 0.2581(3) 0.0763(6) 0.0411 Uani
C6 C 0.1195(2) 0.3059(2) 0.0994(6) 0.0370 Uani
C7 C 0.1008(2) 0.3659(3) 0.1721(6) 0.0376 Uani
C8 C 0.0831(2) 0.3975(3) 0.2585(6) 0.0368 Uani
C9 C 0.0984(2) 0.4531(3) 0.2315(6) 0.0556 Uani
H4 H 0.1213 0.4716 0.1604 0.0670 Uiso
C10 C 0.0795(2) 0.4811(2) 0.3101(6) 0.0489 Uani
H5 H 0.0908 0.5188 0.2905 0.0590 Uiso
C11 C 0.0326(2) 0.4036(3) 0.4411(6) 0.0556 Uani
H6 H 0.0098 0.3860 0.5129 0.0670 Uiso
C12 C 0.0510(2) 0.3739(2) 0.3693(6) 0.0527 Uani
H7 H 0.0420 0.3374 0.3948 0.0630 Uiso
C13 C 0.1017(2) 0.2159(2) 0.2998(6) 0.0656 Uani
H8 H 0.0935 0.2463 0.3090 0.0990 Uiso
H9 H 0.1297 0.2204 0.3628 0.0990 Uiso
H10 H 0.0675 0.1801 0.3130 0.0990 Uiso
N1 N 0.15256(18) 0.26062(19) -0.0452(4) 0.0431 Uani
N2 N 0.13272(17) 0.3457(2) 0.0048(4) 0.0379 Uani
N3 N 0.12148(19) 0.3858(2) 0.0531(4) 0.0414 Uani
N4 N 0.09865(18) 0.31668(19) 0.2070(4) 0.0399 Uani
N5 N 0.04582(19) 0.4575(2) 0.4130(4) 0.0452 Uani
Mg1G Mg 0.0000 0.5001 0.5000 0.0399 Uani
Mg1J Mg 0.3333 0.1666 -0.8333 0.0399 Uani
C1L C 0.1673(3) 0.4467(3) -0.2567(6) 0.0620 Uani
H1L H 0.1539 0.4467 -0.1738 0.0750 Uiso
C2L C 0.1729(3) 0.4875(3) -0.3422(7) 0.0737 Uani
H2L H 0.1620 0.5138 -0.3186 0.0880 Uiso
C3L C 0.1945(3) 0.4895(3) -0.4629(7) 0.0694 Uani
H3L H 0.1996 0.5180 -0.5207 0.0830 Uiso
C4L C 0.2089(2) 0.4491(3) -0.4991(6) 0.0464 Uani
C5L C 0.2019(2) 0.4086(3) -0.4096(6) 0.0411 Uani
C6L C 0.2138(2) 0.3608(2) -0.4327(6) 0.0370 Uani
C7L C 0.2325(2) 0.3008(3) -0.5054(6) 0.0376 Uani
C8L C 0.2502(2) 0.2692(3) -0.5918(6) 0.0368 Uani
C9L C 0.2349(2) 0.2136(3) -0.5648(6) 0.0556 Uani
H4L H 0.2120 0.1951 -0.4937 0.0670 Uiso
C10L C 0.2538(2) 0.1856(2) -0.6434(6) 0.0489 Uani
H5L H 0.2425 0.1479 -0.6238 0.0590 Uiso
C11L C 0.3007(2) 0.2631(3) -0.7744(6) 0.0556 Uani
H6L H 0.3235 0.2807 -0.8462 0.0670 Uiso
C12L C 0.2823(2) 0.2928(2) -0.7026(6) 0.0527 Uani
H7L H 0.2913 0.3293 -0.7281 0.0630 Uiso
C13L C 0.2316(2) 0.4508(2) -0.6331(6) 0.0656 Uani
H8L H 0.2398 0.4204 -0.6423 0.0990 Uiso
H9L H 0.2036 0.4463 -0.6961 0.0990 Uiso
H10L H 0.2658 0.4866 -0.6463 0.0990 Uiso
N1L N 0.18077(18) 0.40605(19) -0.2881(4) 0.0431 Uani
N2L N 0.20061(17) 0.3210(2) -0.3381(4) 0.0379 Uani
N3L N 0.21185(19) 0.2809(2) -0.3864(4) 0.0414 Uani
N4L N 0.23468(18) 0.34999(19) -0.5403(4) 0.0399 Uani
N5L N 0.28751(19) 0.2092(2) -0.7463(4) 0.0452 Uani
N5E N 0.07835(28) 0.28751(19) -0.2537(4) 0.0452 Uani
N5Q N 0.25499(28) 0.37915(19) -0.0797(4) 0.0452 Uani
loop_
_atom_site_aniso_label
_atom_site_aniso_U_11
_atom_site_aniso_U_22
_atom_site_aniso_U_33
_atom_site_aniso_U_23
_atom_site_aniso_U_13
_atom_site_aniso_U_12
Mg1 0.0379(19) 0.050(2) 0.0351(16) -0.0098(15) -0.0033(15) 0.0244(17)
C1 0.066(5) 0.073(6) 0.070(5) -0.011(4) 0.008(4) 0.052(5)
C2 0.109(7) 0.066(6) 0.081(6) 0.003(5) 0.010(5) 0.070(5)
C3 0.098(6) 0.061(5) 0.079(6) -0.001(4) 0.017(5) 0.062(5)
C4 0.048(5) 0.051(5) 0.046(5) 0.000(4) -0.001(3) 0.029(4)
C5 0.040(4) 0.046(4) 0.046(4) -0.013(4) 0.000(3) 0.028(4)
C6 0.024(4) 0.042(4) 0.035(4) -0.009(3) 0.001(3) 0.009(3)
C7 0.035(4) 0.053(5) 0.034(4) -0.003(3) 0.009(3) 0.029(4)
C8 0.033(4) 0.041(4) 0.041(4) 0.001(3) 0.003(3) 0.022(4)
C9 0.062(5) 0.070(5) 0.048(5) 0.024(4) 0.030(4) 0.043(4)
C10 0.060(5) 0.046(4) 0.052(5) 0.013(4) 0.019(4) 0.035(4)
C11 0.076(5) 0.045(5) 0.060(5) 0.020(4) 0.034(4) 0.041(4)
C12 0.076(5) 0.041(5) 0.054(5) 0.010(4) 0.029(4) 0.039(4)
C13 0.089(5) 0.072(5) 0.054(5) 0.012(4) 0.010(4) 0.054(4)
N1 0.039(3) 0.050(4) 0.044(3) -0.006(3) 0.002(3) 0.025(3)
N2 0.025(3) 0.053(4) 0.035(3) -0.008(3) -0.004(2) 0.019(3)
N3 0.046(3) 0.055(4) 0.039(3) -0.018(3) -0.008(3) 0.037(3)
N4 0.043(3) 0.044(4) 0.041(3) -0.003(3) 0.008(3) 0.028(3)
N5 0.057(4) 0.043(4) 0.041(3) 0.006(3) 0.021(3) 0.029(3)
Mg1G 0.05 0.0391 0.0351 0.0065 0.0098 0.0256
Mg1J 0.05 0.0391 0.0351 0.0065 0.0098 0.0256
C1L 0.066 0.073 0.07 -0.011 0.008 0.052
C2L 0.109 0.066 0.081 0.003 0.01 0.07
C3L 0.098 0.061 0.079 -0.001 0.017 0.062
C4L 0.048 0.051 0.046 0 -0.001 0.029
C5L 0.04 0.046 0.046 -0.013 0 0.028
C6L 0.024 0.042 0.035 -0.009 0.001 0.009
C7L 0.035 0.053 0.034 -0.003 0.009 0.029
C8L 0.033 0.041 0.041 0.001 0.003 0.022
C9L 0.062 0.07 0.048 0.024 0.03 0.043
C10L 0.06 0.046 0.052 0.013 0.019 0.035
C11L 0.076 0.045 0.06 0.02 0.034 0.041
C12L 0.076 0.041 0.054 0.01 0.029 0.039
C13L 0.089 0.072 0.054 0.012 0.01 0.054
N1L 0.039 0.05 0.044 -0.006 0.002 0.025
N2L 0.025 0.053 0.035 -0.008 -0.004 0.019
N3L 0.046 0.055 0.039 -0.018 -0.008 0.037
N4L 0.043 0.044 0.041 -0.003 0.008 0.028
N5L 0.057 0.043 0.041 0.006 0.021 0.029
N5E 0.042 0.057 0.041 -0.021 -0.015 0.028
N5Q 0.042 0.057 0.041 -0.021 -0.015 0.028
loop_
_geom_bond_atom_site_label_1
_geom_bond_atom_site_label_2
_geom_bond_site_symmetry_1
_geom_bond_site_symmetry_2
Mg1 N1 1_555 1_555
C1 H1 1_555 1_555
C2 C1 1_555 1_555
H2 C2 1_555 1_555
C3 C2 1_555 1_555
H3 C3 1_555 1_555
C4 C3 1_555 1_555
C5 C4 1_555 1_555
C6 C5 1_555 1_555
C7 C8 1_555 1_555
C8 C9 1_555 1_555
C9 H4 1_555 1_555
C10 C9 1_555 1_555
H5 C10 1_555 1_555
C11 H6 1_555 1_555
C12 C8 1_555 1_555
H7 C12 1_555 1_555
C13 C4 1_555 1_555
H8 C13 1_555 1_555
H9 C13 1_555 1_555
H10 C13 1_555 1_555
N1 C1 1_555 1_555
N2 Mg1 1_555 1_555
N3 C7 1_555 1_555
N4 C6 1_555 1_555
N5 C10 1_555 1_555
Mg1G N5 1_555 1_555
Mg1J N5L 1_555 1_555
C1L H1L 1_555 1_555
C2L C1L 1_555 1_555
H2L C2L 1_555 1_555
C3L C2L 1_555 1_555
H3L C3L 1_555 1_555
C4L C3L 1_555 1_555
C5L C4L 1_555 1_555
C6L C5L 1_555 1_555
C7L C8L 1_555 1_555
C8L C9L 1_555 1_555
C9L H4L 1_555 1_555
C10L C9L 1_555 1_555
H5L C10L 1_555 1_555
C11L H6L 1_555 1_555
C12L C8L 1_555 1_555
H7L C12L 1_555 1_555
C13L C4L 1_555 1_555
H8L C13L 1_555 1_555
H9L C13L 1_555 1_555
H10L C13L 1_555 1_555
N1L Mg1 1_555 1_555
N2L Mg1 1_555 1_555
N3L C7L 1_555 1_555
N4L C6L 1_555 1_555
N5L C10L 1_555 1_555
N5E Mg1 1_555 1_555
N5Q Mg1 1_555 1_555
C5 N1 1_555 1_555
C6 N2 1_555 1_555
C7 N4 1_555 1_555
C11 C12 1_555 1_555
C11 N5 1_555 1_555
N2 N3 1_555 1_555
C1L N1L 1_555 1_555
C5L N1L 1_555 1_555
C6L N2L 1_555 1_555
C7L N4L 1_555 1_555
C11L C12L 1_555 1_555
C11L N5L 1_555 1_555
N2L N3L 1_555 1_555

#END
