
#######################################################################
#
#                 Cambridge Crystallographic Data Centre
#                                CCDC 
#
#######################################################################
#
# If this CIF has been generated from an entry in the Cambridge 
# Structural Database, then it will include bibliographic, chemical, 
# crystal, experimental, refinement or atomic coordinate data resulting 
# from the CCDC's data processing and validation procedures.
#
#######################################################################

data_RAGMOE
_chemical_formula_moiety         '(C47 H32 La1 N3 O12)n'
_symmetry_cell_setting           hexagonal
_symmetry_space_group_name_H-M   'P 62 2 2'
_symmetry_Int_Tables_number      180
_space_group_name_Hall           'P 62 2 (0 0 4)'
loop_
_symmetry_equiv_pos_site_id
_symmetry_equiv_pos_as_xyz
1 x,y,z
2 -y,x-y,2/3+z
3 -x+y,-x,1/3+z
4 -x,-y,z
5 y,-x+y,2/3+z
6 x-y,x,1/3+z
7 y,x,2/3-z
8 x-y,-y,-z
9 -x,-x+y,1/3-z
10 -y,-x,2/3-z
11 -x+y,y,-z
12 x,x-y,1/3-z
_cell_length_a                   16.18114(17)
_cell_length_b                   16.18114(17)
_cell_length_c                   30.4774(3)
_cell_angle_alpha                90
_cell_angle_beta                 90
_cell_angle_gamma                120
_cell_volume                     6910.78
loop_
_atom_site_label
_atom_site_type_symbol
_atom_site_fract_x
_atom_site_fract_y
_atom_site_fract_z
La1 La 0.35666(2) 0.0000 0.5000
O1 O 0.6431(3) 0.1235(2) 0.44678(12)
O2 O 0.9723(2) 0.6993(3) 0.23985(11)
O3 O 0.4984(2) 0.1020(2) 0.45773(12)
C1 C 0.6214(3) 0.2571(3) 0.44027(13)
C2 C 0.6860(3) 0.4499(3) 0.42262(15)
N1 N 0.7198(3) 0.5478(3) 0.41358(13)
O4 O 0.6747(4) 0.7898(3) 0.56772(12)
O5 O 0.6828(3) 0.8746(3) 0.50910(11)
C3 C 0.8410(3) 0.5979(3) 0.30593(14)
H1 H 0.8314 0.5691 0.2786
C4 C 0.5628(3) 0.2963(3) 0.44675(14)
H2 H 0.5012 0.2577 0.4573
C5 C 0.6862(3) 0.5860(3) 0.48679(15)
H3 H 0.6853 0.5323 0.4983
C6 C 0.5939(4) 0.3909(3) 0.43787(15)
H4 H 0.5531 0.4151 0.4421
C7 C 0.7884(3) 0.5947(3) 0.37999(15)
C8 C 0.7141(4) 0.3171(3) 0.42548(17)
H5 H 0.7548 0.2927 0.4212
C9 C 0.6983(3) 0.6034(3) 0.44191(15)
C10 C 0.9362(4) 0.7284(3) 0.35449(15)
H6 H 0.9904 0.7869 0.3600
C11 C 0.7753(4) 0.5525(3) 0.33852(15)
H7 H 0.7218 0.4933 0.3331
C12 C 0.6927(4) 0.6807(3) 0.42487(15)
H8 H 0.6952 0.6902 0.3947
C13 C 0.6754(3) 0.6477(3) 0.51434(15)
H9 H 0.6674 0.6354 0.5443
C14 C 0.5858(3) 0.1544(3) 0.44913(13)
C15 C 0.8696(4) 0.6828(3) 0.38739(15)
H10 H 0.8793 0.7115 0.4148
C16 C 0.9923(4) 0.7311(4) 0.27646(14)
O6 O 1.0759(4) 0.7996(4) 0.28713(14)
H11 H 1.1416 0.8137 0.2893
C17 C 0.6772(4) 0.8031(4) 0.52661(16)
C18 C 0.7462(3) 0.4119(3) 0.41714(18)
H12 H 0.8087 0.4512 0.4078
C19 C 0.9221(3) 0.6869(3) 0.31313(15)
C20 C 0.6835(4) 0.7426(3) 0.45249(15)
H13 H 0.6819 0.7949 0.4408
C21 C 0.6765(3) 0.7286(3) 0.49756(15)
O1C O 0.3569(3) -0.1235(2) 0.44678(12)
O2C O 0.0277(2) -0.6993(3) 0.23985(11)
O3C O 0.5016(2) -0.1020(2) 0.45773(12)
C1C C 0.3786(3) -0.2571(3) 0.44027(13)
C2C C 0.3140(3) -0.4499(3) 0.42262(15)
N1C N 0.2802(3) -0.5478(3) 0.41358(13)
O4C O 0.3253(4) -0.7898(3) 0.56772(12)
O5C O 0.3172(3) -0.8746(3) 0.50910(11)
C3C C 0.1590(3) -0.5979(3) 0.30593(14)
H1C H 0.1686 -0.5691 0.2786
C4C C 0.4372(3) -0.2963(3) 0.44675(14)
H2C H 0.4988 -0.2577 0.4573
C5C C 0.3138(3) -0.5860(3) 0.48679(15)
H3C H 0.3147 -0.5323 0.4983
C6C C 0.4061(4) -0.3909(3) 0.43787(15)
H4C H 0.4469 -0.4151 0.4421
C7C C 0.2116(3) -0.5947(3) 0.37999(15)
C8C C 0.2859(4) -0.3171(3) 0.42548(17)
H5C H 0.2452 -0.2927 0.4212
C9C C 0.3017(3) -0.6034(3) 0.44191(15)
C10C C 0.0638(4) -0.7284(3) 0.35449(15)
H6C H 0.0096 -0.7869 0.3600
C11C C 0.2247(4) -0.5525(3) 0.33852(15)
H7C H 0.2782 -0.4933 0.3331
C12C C 0.3073(4) -0.6807(3) 0.42487(15)
H8C H 0.3048 -0.6902 0.3947
C13C C 0.3246(3) -0.6477(3) 0.51434(15)
H9C H 0.3326 -0.6354 0.5443
C14C C 0.4142(3) -0.1544(3) 0.44913(13)
C15C C 0.1304(4) -0.6828(3) 0.38739(15)
H10C H 0.1207 -0.7115 0.4148
C16C C 0.0077(4) -0.7311(4) 0.27646(14)
O6C O -0.0759(4) -0.7996(4) 0.28713(14)
H11C H -0.1416 -0.8137 0.2893
C17C C 0.3228(4) -0.8031(4) 0.52661(16)
C18C C 0.2538(3) -0.4119(3) 0.41714(18)
H12C H 0.1913 -0.4512 0.4078
C19C C 0.0779(3) -0.6869(3) 0.31313(15)
C20C C 0.3165(4) -0.7426(3) 0.45249(15)
H13C H 0.3181 -0.7949 0.4408
C21C C 0.3235(3) -0.7286(3) 0.49756(15)
La1_2 La 0.35666(2) -1.0000 0.5000
La1A La -0.0000 -0.64334(2) 0.1667
La1C La 0.64334(2) 0.0000 0.5000
La1C_2 La 0.64334(2) 1.0000 0.5000
La1D La 1.0000 0.64334(2) 0.1667
O1J O 0.4804(4) 0.1235(2) 0.55322(12)
O2E O 0.2730(4) -0.0277(2) 0.57318(11)
O2I O 0.3007(3) 0.0277(2) 0.42682(11)
O3G O 0.3964(3) -0.1020(2) 0.54227(12)
O5C_2 O 0.3172(3) 0.1254(3) 0.50910(11)
O5J O 0.1918(4) -0.1254(3) 0.49090(11)
N2 N 1.0000 0.5000 0.3890(3)
H14 H 1.0000 0.5000 0.4172
C22 C 1.0000 0.5000 0.3018(3)
H15 H 1.0000 0.5000 0.2713
C23 C 1.0505(6) 0.5800(7) 0.3227(3)
H16 H 1.0869 0.6360 0.3069
C24 C 1.0512(6) 0.5832(6) 0.3663(3)
H17 H 1.0858 0.6409 0.3810
C23C C 0.9495(6) 0.4200(7) 0.3227(3)
H16C H 0.9131 0.3640 0.3069
C24C C 0.9488(6) 0.4168(6) 0.3663(3)
H17C H 0.9142 0.3591 0.3810
loop_
_geom_bond_atom_site_label_1
_geom_bond_atom_site_label_2
_geom_bond_site_symmetry_1
_geom_bond_site_symmetry_2
La1 O3 1_555 1_555
O1 C14 1_555 1_555
O2 C16 1_555 1_555
O3 C14 1_555 1_555
C1 C4 1_555 1_555
C2 N1 1_555 1_555
N1 C7 1_555 1_555
O4 C17 1_555 1_555
O5 C17 1_555 1_555
C3 H1 1_555 1_555
C4 H2 1_555 1_555
C5 H3 1_555 1_555
C6 C2 1_555 1_555
H4 C6 1_555 1_555
C7 C11 1_555 1_555
C8 C1 1_555 1_555
H5 C8 1_555 1_555
C9 N1 1_555 1_555
C10 H6 1_555 1_555
C11 C3 1_555 1_555
H7 C11 1_555 1_555
C12 C9 1_555 1_555
H8 C12 1_555 1_555
C13 C5 1_555 1_555
H9 C13 1_555 1_555
C14 C1 1_555 1_555
C15 C7 1_555 1_555
H10 C15 1_555 1_555
C16 O6 1_555 1_555
O6 H11 1_555 1_555
C17 C21 1_555 1_555
C18 C2 1_555 1_555
H12 C18 1_555 1_555
C19 C3 1_555 1_555
C20 C12 1_555 1_555
H13 C20 1_555 1_555
C21 C13 1_555 1_555
N2 H14 1_555 1_555
C22 H15 1_555 1_555
C23 C22 1_555 1_555
H16 C23 1_555 1_555
C24 N2 1_555 1_555
H17 C24 1_555 1_555
O1C La1 1_555 1_555
O2C C16C 1_555 1_555
O3C C14C 1_555 1_555
C1C C4C 1_555 1_555
C2C N1C 1_555 1_555
N1C C7C 1_555 1_555
O4C C17C 1_555 1_555
O5C C17C 1_555 1_555
C3C H1C 1_555 1_555
C4C H2C 1_555 1_555
C5C H3C 1_555 1_555
C6C C2C 1_555 1_555
H4C C6C 1_555 1_555
C7C C11C 1_555 1_555
C8C C1C 1_555 1_555
H5C C8C 1_555 1_555
C9C N1C 1_555 1_555
C10C H6C 1_555 1_555
C11C C3C 1_555 1_555
H7C C11C 1_555 1_555
C12C C9C 1_555 1_555
H8C C12C 1_555 1_555
C13C C5C 1_555 1_555
H9C C13C 1_555 1_555
C14C O1C 1_555 1_555
C15C C7C 1_555 1_555
H10C C15C 1_555 1_555
C16C O6C 1_555 1_555
O6C H11C 1_555 1_555
C17C C21C 1_555 1_555
C18C C2C 1_555 1_555
H12C C18C 1_555 1_555
C19C C3C 1_555 1_555
C20C C12C 1_555 1_555
H13C C20C 1_555 1_555
C21C C13C 1_555 1_555
La1_2 O5C 1_555 1_555
La1A O2C 1_555 1_555
La1C O1 1_555 1_555
La1C_2 O5 1_555 1_555
La1D O2 1_555 1_555
O1J La1 1_555 1_555
O2E La1 1_555 1_555
O2I La1 1_555 1_555
O3G La1 1_555 1_555
O5C_2 La1 1_555 1_555
O5J La1 1_555 1_555
C23C C22 1_555 1_555
H16C C23C 1_555 1_555
C24C N2 1_555 1_555
H17C C24C 1_555 1_555
C4 C6 1_555 1_555
C5 C9 1_555 1_555
C8 C18 1_555 1_555
C10 C15 1_555 1_555
C10 C19 1_555 1_555
C16 C19 1_555 1_555
C20 C21 1_555 1_555
C23 C24 1_555 1_555
O3C La1C 1_555 1_555
C1C C14C 1_555 1_555
C4C C6C 1_555 1_555
C5C C9C 1_555 1_555
C8C C18C 1_555 1_555
C10C C15C 1_555 1_555
C10C C19C 1_555 1_555
C16C C19C 1_555 1_555
C20C C21C 1_555 1_555
C23C C24C 1_555 1_555

#END
