
#######################################################################
#
#                 Cambridge Crystallographic Data Centre
#                                CCDC 
#
#######################################################################
#
# If this CIF has been generated from an entry in the Cambridge 
# Structural Database, then it will include bibliographic, chemical, 
# crystal, experimental, refinement or atomic coordinate data resulting 
# from the CCDC's data processing and validation procedures.
#
#######################################################################

data_LEHXUT
_chemical_formula_moiety         'C204 H108 Cu36 N12 O96'
_symmetry_cell_setting           cubic
_symmetry_space_group_name_H-M   'F m -3 m'
_symmetry_Int_Tables_number      225
_space_group_name_Hall           '-F 4 2 3'
loop_
_symmetry_equiv_pos_site_id
_symmetry_equiv_pos_as_xyz
1 x,y,z
2 z,x,y
3 y,z,x
4 y,x,-z
5 y,-x,z
6 -y,x,z
7 x,z,-y
8 -x,z,y
9 x,-z,y
10 z,y,-x
11 z,-y,x
12 -z,y,x
13 x,1/2+y,1/2+z
14 z,1/2+x,1/2+y
15 y,1/2+z,1/2+x
16 y,1/2+x,1/2-z
17 y,1/2-x,1/2+z
18 -y,1/2+x,1/2+z
19 x,1/2+z,1/2-y
20 -x,1/2+z,1/2+y
21 x,1/2-z,1/2+y
22 z,1/2+y,1/2-x
23 z,1/2-y,1/2+x
24 -z,1/2+y,1/2+x
25 1/2+x,y,1/2+z
26 1/2+z,x,1/2+y
27 1/2+y,z,1/2+x
28 1/2+y,x,1/2-z
29 1/2+y,-x,1/2+z
30 1/2-y,x,1/2+z
31 1/2+x,z,1/2-y
32 1/2-x,z,1/2+y
33 1/2+x,-z,1/2+y
34 1/2+z,y,1/2-x
35 1/2+z,-y,1/2+x
36 1/2-z,y,1/2+x
37 1/2+x,1/2+y,z
38 1/2+z,1/2+x,y
39 1/2+y,1/2+z,x
40 1/2+y,1/2+x,-z
41 1/2+y,1/2-x,z
42 1/2-y,1/2+x,z
43 1/2+x,1/2+z,-y
44 1/2-x,1/2+z,y
45 1/2+x,1/2-z,y
46 1/2+z,1/2+y,-x
47 1/2+z,1/2-y,x
48 1/2-z,1/2+y,x
49 -x,-y,z
50 -x,y,-z
51 x,-y,-z
52 z,-x,-y
53 -z,-x,y
54 -z,x,-y
55 -y,z,-x
56 y,-z,-x
57 -y,-z,x
58 -y,-x,-z
59 -x,-z,-y
60 -z,-y,-x
61 -x,1/2-y,1/2+z
62 -x,1/2+y,1/2-z
63 x,1/2-y,1/2-z
64 z,1/2-x,1/2-y
65 -z,1/2-x,1/2+y
66 -z,1/2+x,1/2-y
67 -y,1/2+z,1/2-x
68 y,1/2-z,1/2-x
69 -y,1/2-z,1/2+x
70 -y,1/2-x,1/2-z
71 -x,1/2-z,1/2-y
72 -z,1/2-y,1/2-x
73 1/2-x,-y,1/2+z
74 1/2-x,y,1/2-z
75 1/2+x,-y,1/2-z
76 1/2+z,-x,1/2-y
77 1/2-z,-x,1/2+y
78 1/2-z,x,1/2-y
79 1/2-y,z,1/2-x
80 1/2+y,-z,1/2-x
81 1/2-y,-z,1/2+x
82 1/2-y,-x,1/2-z
83 1/2-x,-z,1/2-y
84 1/2-z,-y,1/2-x
85 1/2-x,1/2-y,z
86 1/2-x,1/2+y,-z
87 1/2+x,1/2-y,-z
88 1/2+z,1/2-x,-y
89 1/2-z,1/2-x,y
90 1/2-z,1/2+x,-y
91 1/2-y,1/2+z,-x
92 1/2+y,1/2-z,-x
93 1/2-y,1/2-z,x
94 1/2-y,1/2-x,-z
95 1/2-x,1/2-z,-y
96 1/2-z,1/2-y,-x
97 -x,-y,-z
98 -z,-x,-y
99 -y,-z,-x
100 -y,-x,z
101 -y,x,-z
102 y,-x,-z
103 -x,-z,y
104 x,-z,-y
105 -x,z,-y
106 -z,-y,x
107 -z,y,-x
108 z,-y,-x
109 -x,1/2-y,1/2-z
110 -z,1/2-x,1/2-y
111 -y,1/2-z,1/2-x
112 -y,1/2-x,1/2+z
113 -y,1/2+x,1/2-z
114 y,1/2-x,1/2-z
115 -x,1/2-z,1/2+y
116 x,1/2-z,1/2-y
117 -x,1/2+z,1/2-y
118 -z,1/2-y,1/2+x
119 -z,1/2+y,1/2-x
120 z,1/2-y,1/2-x
121 1/2-x,-y,1/2-z
122 1/2-z,-x,1/2-y
123 1/2-y,-z,1/2-x
124 1/2-y,-x,1/2+z
125 1/2-y,x,1/2-z
126 1/2+y,-x,1/2-z
127 1/2-x,-z,1/2+y
128 1/2+x,-z,1/2-y
129 1/2-x,z,1/2-y
130 1/2-z,-y,1/2+x
131 1/2-z,y,1/2-x
132 1/2+z,-y,1/2-x
133 1/2-x,1/2-y,-z
134 1/2-z,1/2-x,-y
135 1/2-y,1/2-z,-x
136 1/2-y,1/2-x,z
137 1/2-y,1/2+x,-z
138 1/2+y,1/2-x,-z
139 1/2-x,1/2-z,y
140 1/2+x,1/2-z,-y
141 1/2-x,1/2+z,-y
142 1/2-z,1/2-y,x
143 1/2-z,1/2+y,-x
144 1/2+z,1/2-y,-x
145 x,y,-z
146 x,-y,z
147 -x,y,z
148 -z,x,y
149 z,x,-y
150 z,-x,y
151 y,-z,x
152 -y,z,x
153 y,z,-x
154 y,x,z
155 x,z,y
156 z,y,x
157 x,1/2+y,1/2-z
158 x,1/2-y,1/2+z
159 -x,1/2+y,1/2+z
160 -z,1/2+x,1/2+y
161 z,1/2+x,1/2-y
162 z,1/2-x,1/2+y
163 y,1/2-z,1/2+x
164 -y,1/2+z,1/2+x
165 y,1/2+z,1/2-x
166 y,1/2+x,1/2+z
167 x,1/2+z,1/2+y
168 z,1/2+y,1/2+x
169 1/2+x,y,1/2-z
170 1/2+x,-y,1/2+z
171 1/2-x,y,1/2+z
172 1/2-z,x,1/2+y
173 1/2+z,x,1/2-y
174 1/2+z,-x,1/2+y
175 1/2+y,-z,1/2+x
176 1/2-y,z,1/2+x
177 1/2+y,z,1/2-x
178 1/2+y,x,1/2+z
179 1/2+x,z,1/2+y
180 1/2+z,y,1/2+x
181 1/2+x,1/2+y,-z
182 1/2+x,1/2-y,z
183 1/2-x,1/2+y,z
184 1/2-z,1/2+x,y
185 1/2+z,1/2+x,-y
186 1/2+z,1/2-x,y
187 1/2+y,1/2-z,x
188 1/2-y,1/2+z,x
189 1/2+y,1/2+z,-x
190 1/2+y,1/2+x,z
191 1/2+x,1/2+z,y
192 1/2+z,1/2+y,x
_cell_length_a                   52.557(3)
_cell_length_b                   52.557(3)
_cell_length_c                   52.557(3)
_cell_angle_alpha                90
_cell_angle_beta                 90
_cell_angle_gamma                90
_cell_volume                     145175
loop_
_atom_site_label
_atom_site_type_symbol
_atom_site_fract_x
_atom_site_fract_y
_atom_site_fract_z
_atom_site_U_iso_or_equiv
_atom_site_thermal_displace_type
C1 C 0.10211(3) 0.64877(3) 0.46553(3) 0.0436 Uani
C2 C 0.06710(3) 0.65091(4) 0.43290(3) 0.0418 Uani
H1 H 0.0600 0.6363 0.4400 0.0500 Uiso
C3 C 0.08857(3) 0.66167(3) 0.44392(3) 0.0486 Uani
C4 C 0.09683(3) 0.68475(3) 0.43478(3) 0.0489 Uani
H2 H 0.1107 0.6924 0.4427 0.0590 Uiso
C5 C 0.08562(3) 0.69711(5) 0.41438(3) 0.0531 Uani
C6 C 0.11192(5) 0.72390(6) 0.38808(5) 0.0690 Uani
C7 C 0.11892(4) 0.75063(6) 0.38108(4) 0.0665 Uani
C8 C 0.10193(8) 0.76665(8) 0.36966(8) 0.0643 Uani
H3 H 0.0847 0.7613 0.3669 0.0770 Uiso
C9 C 0.10930(9) 0.79103(9) 0.36138(8) 0.0747 Uani
H4 H 0.0975 0.8024 0.3533 0.0900 Uiso
C10 C 0.13502(4) 0.79832(5) 0.36498(4) 0.0637 Uani
C13 C 0.14522(4) 0.82322(5) 0.35478(4) 0.0597 Uani
C14 C 0.13351(5) 0.83420(4) 0.33420(4) 0.0631 Uani
H7 H 0.1182 0.8279 0.3279 0.0760 Uiso
Cu1 Cu 0.107539(5) 0.607539(5) 0.5000 0.0426 Uani
Cu2 Cu 0.143100(5) 0.643100(5) 0.5000 0.0453 Uani
N1 N 0.09440(3) 0.72243(4) 0.40560(3) 0.0553 Uani
H8 H 0.0880 0.7361 0.4120 0.0660 Uiso
O1 O 0.091693(19) 0.628388(19) 0.473788(19) 0.0429 Uani
O2 O 0.12219(2) 0.658495(19) 0.47378(2) 0.0480 Uani
O3 O 0.12326(3) 0.70551(4) 0.37674(3) 0.0784 Uani
O4 O 0.17155(3) 0.67155(3) 0.5000 0.0512 Uani
O5 O 0.07888(3) 0.57888(3) 0.5000 0.0555 Uani
C1ZD C 0.03447(3) 0.64877(3) 0.39789(3) 0.0436 Uani
C1JF C 0.10211(3) 0.96553(3) 0.14877(3) 0.0436 Uani
C1XB C 0.03447(3) 0.89789(3) 0.14877(3) 0.0436 Uani
C1UC C 0.35123(3) 0.89789(3) 0.46553(3) 0.0436 Uani
C1NB C 0.35123(3) 0.96553(3) 0.39789(3) 0.0436 Uani
C1MA C 0.14877(3) 0.60211(3) 0.53447(3) 0.0436 Uani
C1RF C 0.14877(3) 0.53447(3) 0.60211(3) 0.0436 Uani
C1DF C 0.46553(3) 0.60211(3) 0.85123(3) 0.0436 Uani
C1DC C 0.39789(3) 0.53447(3) 0.85123(3) 0.0436 Uani
C1BE C 0.39789(3) 0.85123(3) 0.53447(3) 0.0436 Uani
C1V C 0.46553(3) 0.85123(3) 0.60211(3) 0.0436 Uani
C1NE C 0.10211(3) 0.64877(3) 0.53447(3) 0.0436 Uani
C1IA C 0.03447(3) 0.64877(3) 0.60211(3) 0.0436 Uani
C1R C 0.10211(3) 0.96553(3) 0.85123(3) 0.0436 Uani
C1QD C 0.03447(3) 0.89789(3) 0.85123(3) 0.0436 Uani
C1EB C 0.35123(3) 0.89789(3) 0.53447(3) 0.0436 Uani
C1GF C 0.35123(3) 0.96553(3) 0.60211(3) 0.0436 Uani
C1GG C 0.14877(3) 0.60211(3) 0.46553(3) 0.0436 Uani
C1AC C 0.14877(3) 0.53447(3) 0.39789(3) 0.0436 Uani
C1M C 0.46553(3) 0.60211(3) 0.14877(3) 0.0436 Uani
C1VD C 0.39789(3) 0.53447(3) 0.14877(3) 0.0436 Uani
C1FC C 0.39789(3) 0.85123(3) 0.46553(3) 0.0436 Uani
C1OD C 0.46553(3) 0.85123(3) 0.39789(3) 0.0436 Uani
C2JF C 0.06710(3) 0.93290(3) 0.15091(4) 0.0418 Uani
C2UC C 0.34909(4) 0.93290(3) 0.43290(3) 0.0418 Uani
C2MA C 0.15091(4) 0.56710(3) 0.56710(3) 0.0418 Uani
C2DF C 0.43290(3) 0.56710(3) 0.84909(4) 0.0418 Uani
C2V C 0.43290(3) 0.84909(4) 0.56710(3) 0.0418 Uani
C2IA C 0.06710(3) 0.65091(4) 0.56710(3) 0.0418 Uani
C2R C 0.06710(3) 0.93290(3) 0.84909(4) 0.0418 Uani
C2GF C 0.34909(4) 0.93290(3) 0.56710(3) 0.0418 Uani
C2GG C 0.15091(4) 0.56710(3) 0.43290(3) 0.0418 Uani
C2M C 0.43290(3) 0.56710(3) 0.15091(4) 0.0418 Uani
C2OD C 0.43290(3) 0.84909(4) 0.43290(3) 0.0418 Uani
H1JF H 0.0600 0.9400 0.1363 0.0500 Uiso
H1UC H 0.3637 0.9400 0.4400 0.0500 Uiso
H1MA H 0.1363 0.5600 0.5600 0.0500 Uiso
H1DF H 0.4400 0.5600 0.8637 0.0500 Uiso
H1V H 0.4400 0.8637 0.5600 0.0500 Uiso
H1IA H 0.0600 0.6363 0.5600 0.0500 Uiso
H1R H 0.0600 0.9400 0.8637 0.0500 Uiso
H1GF H 0.3637 0.9400 0.5600 0.0500 Uiso
H1GG H 0.1363 0.5600 0.4400 0.0500 Uiso
H1M H 0.4400 0.5600 0.1363 0.0500 Uiso
H1OD H 0.4400 0.8637 0.4400 0.0500 Uiso
C3ZD C 0.05608(3) 0.66167(3) 0.41143(3) 0.0486 Uani
C3JF C 0.08857(3) 0.94392(3) 0.16167(3) 0.0486 Uani
C3XB C 0.05608(3) 0.91143(3) 0.16167(3) 0.0486 Uani
C3UC C 0.33833(3) 0.91143(3) 0.44392(3) 0.0486 Uani
C3NB C 0.33833(3) 0.94392(3) 0.41143(3) 0.0486 Uani
C3MA C 0.16167(3) 0.58857(3) 0.55608(3) 0.0486 Uani
C3RF C 0.16167(3) 0.55608(3) 0.58857(3) 0.0486 Uani
C3DF C 0.44392(3) 0.58857(3) 0.83833(3) 0.0486 Uani
C3DC C 0.41143(3) 0.55608(3) 0.83833(3) 0.0486 Uani
C3BE C 0.41143(3) 0.83833(3) 0.55608(3) 0.0486 Uani
C3V C 0.44392(3) 0.83833(3) 0.58857(3) 0.0486 Uani
C3NE C 0.08857(3) 0.66167(3) 0.55608(3) 0.0486 Uani
C3IA C 0.05608(3) 0.66167(3) 0.58857(3) 0.0486 Uani
C3R C 0.08857(3) 0.94392(3) 0.83833(3) 0.0486 Uani
C3QD C 0.05608(3) 0.91143(3) 0.83833(3) 0.0486 Uani
C3EB C 0.33833(3) 0.91143(3) 0.55608(3) 0.0486 Uani
C3GF C 0.33833(3) 0.94392(3) 0.58857(3) 0.0486 Uani
C3GG C 0.16167(3) 0.58857(3) 0.44392(3) 0.0486 Uani
C3AC C 0.16167(3) 0.55608(3) 0.41143(3) 0.0486 Uani
C3M C 0.44392(3) 0.58857(3) 0.16167(3) 0.0486 Uani
C3VD C 0.41143(3) 0.55608(3) 0.16167(3) 0.0486 Uani
C3FC C 0.41143(3) 0.83833(3) 0.44392(3) 0.0486 Uani
C3OD C 0.44392(3) 0.83833(3) 0.41143(3) 0.0486 Uani
C4ZD C 0.06522(3) 0.68475(3) 0.40317(3) 0.0489 Uani
C4JF C 0.09683(3) 0.93478(3) 0.18475(3) 0.0489 Uani
C4XB C 0.06522(3) 0.90317(3) 0.18475(3) 0.0489 Uani
C4UC C 0.31525(3) 0.90317(3) 0.43478(3) 0.0489 Uani
C4NB C 0.31525(3) 0.93478(3) 0.40317(3) 0.0489 Uani
C4MA C 0.18475(3) 0.59683(3) 0.56522(3) 0.0489 Uani
C4RF C 0.18475(3) 0.56522(3) 0.59683(3) 0.0489 Uani
C4DF C 0.43478(3) 0.59683(3) 0.81525(3) 0.0489 Uani
C4DC C 0.40317(3) 0.56522(3) 0.81525(3) 0.0489 Uani
C4BE C 0.40317(3) 0.81525(3) 0.56522(3) 0.0489 Uani
C4V C 0.43478(3) 0.81525(3) 0.59683(3) 0.0489 Uani
C4NE C 0.09683(3) 0.68475(3) 0.56522(3) 0.0489 Uani
C4IA C 0.06522(3) 0.68475(3) 0.59683(3) 0.0489 Uani
C4R C 0.09683(3) 0.93478(3) 0.81525(3) 0.0489 Uani
C4QD C 0.06522(3) 0.90317(3) 0.81525(3) 0.0489 Uani
C4EB C 0.31525(3) 0.90317(3) 0.56522(3) 0.0489 Uani
C4GF C 0.31525(3) 0.93478(3) 0.59683(3) 0.0489 Uani
C4GG C 0.18475(3) 0.59683(3) 0.43478(3) 0.0489 Uani
C4AC C 0.18475(3) 0.56522(3) 0.40317(3) 0.0489 Uani
C4M C 0.43478(3) 0.59683(3) 0.18475(3) 0.0489 Uani
C4VD C 0.40317(3) 0.56522(3) 0.18475(3) 0.0489 Uani
C4FC C 0.40317(3) 0.81525(3) 0.43478(3) 0.0489 Uani
C4OD C 0.43478(3) 0.81525(3) 0.40317(3) 0.0489 Uani
H2ZD H 0.0573 0.6924 0.3893 0.0590 Uiso
H2XB H 0.0573 0.8893 0.1924 0.0590 Uiso
H2JF H 0.1107 0.9427 0.1924 0.0590 Uiso
H2NB H 0.3076 0.9427 0.3893 0.0590 Uiso
H2UC H 0.3076 0.8893 0.4427 0.0590 Uiso
H2MA H 0.1924 0.6107 0.5573 0.0590 Uiso
H2RF H 0.1924 0.5573 0.6107 0.0590 Uiso
H2DC H 0.3893 0.5573 0.8076 0.0590 Uiso
H2DF H 0.4427 0.6107 0.8076 0.0590 Uiso
H2V H 0.4427 0.8076 0.6107 0.0590 Uiso
H2BE H 0.3893 0.8076 0.5573 0.0590 Uiso
H2NE H 0.1107 0.6924 0.5573 0.0590 Uiso
H2IA H 0.0573 0.6924 0.6107 0.0590 Uiso
H2QD H 0.0573 0.8893 0.8076 0.0590 Uiso
H2R H 0.1107 0.9427 0.8076 0.0590 Uiso
H2GF H 0.3076 0.9427 0.6107 0.0590 Uiso
H2EB H 0.3076 0.8893 0.5573 0.0590 Uiso
H2GG H 0.1924 0.6107 0.4427 0.0590 Uiso
H2AC H 0.1924 0.5573 0.3893 0.0590 Uiso
H2VD H 0.3893 0.5573 0.1924 0.0590 Uiso
H2M H 0.4427 0.6107 0.1924 0.0590 Uiso
H2OD H 0.4427 0.8076 0.3893 0.0590 Uiso
H2FC H 0.3893 0.8076 0.4427 0.0590 Uiso
C5JF C 0.08562(3) 0.91438(3) 0.19711(5) 0.0531 Uani
C5UC C 0.30289(5) 0.91438(3) 0.41438(3) 0.0531 Uani
C5MA C 0.19711(5) 0.58562(3) 0.58562(3) 0.0531 Uani
C5DF C 0.41438(3) 0.58562(3) 0.80289(5) 0.0531 Uani
C5V C 0.41438(3) 0.80289(5) 0.58562(3) 0.0531 Uani
C5IA C 0.08562(3) 0.69711(5) 0.58562(3) 0.0531 Uani
C5R C 0.08562(3) 0.91438(3) 0.80289(5) 0.0531 Uani
C5GF C 0.30289(5) 0.91438(3) 0.58562(3) 0.0531 Uani
C5GG C 0.19711(5) 0.58562(3) 0.41438(3) 0.0531 Uani
C5M C 0.41438(3) 0.58562(3) 0.19711(5) 0.0531 Uani
C5OD C 0.41438(3) 0.80289(5) 0.41438(3) 0.0531 Uani
C6JF C 0.11192(5) 0.88808(5) 0.22390(6) 0.0690 Uani
C6UC C 0.27610(6) 0.88808(5) 0.38808(5) 0.0690 Uani
C6MA C 0.22390(6) 0.61192(5) 0.61192(5) 0.0690 Uani
C6DF C 0.38808(5) 0.61192(5) 0.77610(6) 0.0690 Uani
C6V C 0.38808(5) 0.77610(6) 0.61192(5) 0.0690 Uani
C6IA C 0.11192(5) 0.72390(6) 0.61192(5) 0.0690 Uani
C6R C 0.11192(5) 0.88808(5) 0.77610(6) 0.0690 Uani
C6GF C 0.27610(6) 0.88808(5) 0.61192(5) 0.0690 Uani
C6GG C 0.22390(6) 0.61192(5) 0.38808(5) 0.0690 Uani
C6M C 0.38808(5) 0.61192(5) 0.22390(6) 0.0690 Uani
C6OD C 0.38808(5) 0.77610(6) 0.38808(5) 0.0690 Uani
C7JF C 0.11892(4) 0.88108(4) 0.25063(6) 0.0665 Uani
C7UC C 0.24937(6) 0.88108(4) 0.38108(4) 0.0665 Uani
C7MA C 0.25063(6) 0.61892(4) 0.61892(4) 0.0665 Uani
C7DF C 0.38108(4) 0.61892(4) 0.74937(6) 0.0665 Uani
C7V C 0.38108(4) 0.74937(6) 0.61892(4) 0.0665 Uani
C7IA C 0.11892(4) 0.75063(6) 0.61892(4) 0.0665 Uani
C7R C 0.11892(4) 0.88108(4) 0.74937(6) 0.0665 Uani
C7GF C 0.24937(6) 0.88108(4) 0.61892(4) 0.0665 Uani
C7GG C 0.25063(6) 0.61892(4) 0.38108(4) 0.0665 Uani
C7M C 0.38108(4) 0.61892(4) 0.25063(6) 0.0665 Uani
C7OD C 0.38108(4) 0.74937(6) 0.38108(4) 0.0665 Uani
C8ZD C 0.13034(8) 0.76665(8) 0.39807(8) 0.0643 Uani
C8JF C 0.10193(8) 0.86966(8) 0.26665(8) 0.0643 Uani
C8XB C 0.13034(8) 0.89807(8) 0.26665(8) 0.0643 Uani
C8UC C 0.23335(8) 0.89807(8) 0.36966(8) 0.0643 Uani
C8NB C 0.23335(8) 0.86966(8) 0.39807(8) 0.0643 Uani
C8MA C 0.26665(8) 0.60193(8) 0.63034(8) 0.0643 Uani
C8RF C 0.26665(8) 0.63034(8) 0.60193(8) 0.0643 Uani
C8DF C 0.36966(8) 0.60193(8) 0.73335(8) 0.0643 Uani
C8DC C 0.39807(8) 0.63034(8) 0.73335(8) 0.0643 Uani
C8BE C 0.39807(8) 0.73335(8) 0.63034(8) 0.0643 Uani
C8V C 0.36966(8) 0.73335(8) 0.60193(8) 0.0643 Uani
C8NE C 0.10193(8) 0.76665(8) 0.63034(8) 0.0643 Uani
C8IA C 0.13034(8) 0.76665(8) 0.60193(8) 0.0643 Uani
C8R C 0.10193(8) 0.86966(8) 0.73335(8) 0.0643 Uani
C8QD C 0.13034(8) 0.89807(8) 0.73335(8) 0.0643 Uani
C8EB C 0.23335(8) 0.89807(8) 0.63034(8) 0.0643 Uani
C8GF C 0.23335(8) 0.86966(8) 0.60193(8) 0.0643 Uani
C8GG C 0.26665(8) 0.60193(8) 0.36966(8) 0.0643 Uani
C8AC C 0.26665(8) 0.63034(8) 0.39807(8) 0.0643 Uani
C8M C 0.36966(8) 0.60193(8) 0.26665(8) 0.0643 Uani
C8VD C 0.39807(8) 0.63034(8) 0.26665(8) 0.0643 Uani
C8FC C 0.39807(8) 0.73335(8) 0.36966(8) 0.0643 Uani
C8OD C 0.36966(8) 0.73335(8) 0.39807(8) 0.0643 Uani
H3ZD H 0.1331 0.7613 0.4153 0.0770 Uiso
H3XB H 0.1331 0.9153 0.2613 0.0770 Uiso
H3JF H 0.0847 0.8669 0.2613 0.0770 Uiso
H3NB H 0.2387 0.8669 0.4153 0.0770 Uiso
H3UC H 0.2387 0.9153 0.3669 0.0770 Uiso
H3MA H 0.2613 0.5847 0.6331 0.0770 Uiso
H3RF H 0.2613 0.6331 0.5847 0.0770 Uiso
H3DC H 0.4153 0.6331 0.7387 0.0770 Uiso
H3DF H 0.3669 0.5847 0.7387 0.0770 Uiso
H3V H 0.3669 0.7387 0.5847 0.0770 Uiso
H3BE H 0.4153 0.7387 0.6331 0.0770 Uiso
H3NE H 0.0847 0.7613 0.6331 0.0770 Uiso
H3IA H 0.1331 0.7613 0.5847 0.0770 Uiso
H3QD H 0.1331 0.9153 0.7387 0.0770 Uiso
H3R H 0.0847 0.8669 0.7387 0.0770 Uiso
H3GF H 0.2387 0.8669 0.5847 0.0770 Uiso
H3EB H 0.2387 0.9153 0.6331 0.0770 Uiso
H3GG H 0.2613 0.5847 0.3669 0.0770 Uiso
H3AC H 0.2613 0.6331 0.4153 0.0770 Uiso
H3VD H 0.4153 0.6331 0.2613 0.0770 Uiso
H3M H 0.3669 0.5847 0.2613 0.0770 Uiso
H3OD H 0.3669 0.7387 0.4153 0.0770 Uiso
H3FC H 0.4153 0.7387 0.3669 0.0770 Uiso
C9ZD C 0.13862(8) 0.79103(9) 0.39070(9) 0.0747 Uani
C9JF C 0.10930(9) 0.86138(8) 0.29103(9) 0.0747 Uani
C9XB C 0.13862(8) 0.89070(9) 0.29103(9) 0.0747 Uani
C9UC C 0.20897(9) 0.89070(9) 0.36138(8) 0.0747 Uani
C9NB C 0.20897(9) 0.86138(8) 0.39070(9) 0.0747 Uani
C9MA C 0.29103(9) 0.60930(9) 0.63862(8) 0.0747 Uani
C9RF C 0.29103(9) 0.63862(8) 0.60930(9) 0.0747 Uani
C9DF C 0.36138(8) 0.60930(9) 0.70897(9) 0.0747 Uani
C9DC C 0.39070(9) 0.63862(8) 0.70897(9) 0.0747 Uani
C9BE C 0.39070(9) 0.70897(9) 0.63862(8) 0.0747 Uani
C9V C 0.36138(8) 0.70897(9) 0.60930(9) 0.0747 Uani
C9NE C 0.10930(9) 0.79103(9) 0.63862(8) 0.0747 Uani
C9IA C 0.13862(8) 0.79103(9) 0.60930(9) 0.0747 Uani
C9R C 0.10930(9) 0.86138(8) 0.70897(9) 0.0747 Uani
C9QD C 0.13862(8) 0.89070(9) 0.70897(9) 0.0747 Uani
C9EB C 0.20897(9) 0.89070(9) 0.63862(8) 0.0747 Uani
C9GF C 0.20897(9) 0.86138(8) 0.60930(9) 0.0747 Uani
C9GG C 0.29103(9) 0.60930(9) 0.36138(8) 0.0747 Uani
C9AC C 0.29103(9) 0.63862(8) 0.39070(9) 0.0747 Uani
C9M C 0.36138(8) 0.60930(9) 0.29103(9) 0.0747 Uani
C9VD C 0.39070(9) 0.63862(8) 0.29103(9) 0.0747 Uani
C9FC C 0.39070(9) 0.70897(9) 0.36138(8) 0.0747 Uani
C9OD C 0.36138(8) 0.70897(9) 0.39070(9) 0.0747 Uani
H4ZD H 0.1467 0.8024 0.4025 0.0900 Uiso
H4XB H 0.1467 0.9025 0.3024 0.0900 Uiso
H4JF H 0.0975 0.8533 0.3024 0.0900 Uiso
H4NB H 0.1976 0.8533 0.4025 0.0900 Uiso
H4UC H 0.1976 0.9025 0.3533 0.0900 Uiso
H4MA H 0.3024 0.5975 0.6467 0.0900 Uiso
H4RF H 0.3024 0.6467 0.5975 0.0900 Uiso
H4DC H 0.4025 0.6467 0.6976 0.0900 Uiso
H4DF H 0.3533 0.5975 0.6976 0.0900 Uiso
H4V H 0.3533 0.6976 0.5975 0.0900 Uiso
H4BE H 0.4025 0.6976 0.6467 0.0900 Uiso
H4NE H 0.0975 0.8024 0.6467 0.0900 Uiso
H4IA H 0.1467 0.8024 0.5975 0.0900 Uiso
H4QD H 0.1467 0.9025 0.6976 0.0900 Uiso
H4R H 0.0975 0.8533 0.6976 0.0900 Uiso
H4GF H 0.1976 0.8533 0.5975 0.0900 Uiso
H4EB H 0.1976 0.9025 0.6467 0.0900 Uiso
H4GG H 0.3024 0.5975 0.3533 0.0900 Uiso
H4AC H 0.3024 0.6467 0.4025 0.0900 Uiso
H4VD H 0.4025 0.6467 0.3024 0.0900 Uiso
H4M H 0.3533 0.5975 0.3024 0.0900 Uiso
H4OD H 0.3533 0.6976 0.4025 0.0900 Uiso
H4FC H 0.4025 0.6976 0.3533 0.0900 Uiso
C10JF C 0.13502(4) 0.86498(4) 0.29832(5) 0.0637 Uani
C10UC C 0.20168(5) 0.86498(4) 0.36498(4) 0.0637 Uani
C10MA C 0.29832(5) 0.63502(4) 0.63502(4) 0.0637 Uani
C10DF C 0.36498(4) 0.63502(4) 0.70168(5) 0.0637 Uani
C10V C 0.36498(4) 0.70168(5) 0.63502(4) 0.0637 Uani
C10IA C 0.13502(4) 0.79832(5) 0.63502(4) 0.0637 Uani
C10R C 0.13502(4) 0.86498(4) 0.70168(5) 0.0637 Uani
C10GF C 0.20168(5) 0.86498(4) 0.63502(4) 0.0637 Uani
C10GG C 0.29832(5) 0.63502(4) 0.36498(4) 0.0637 Uani
C10M C 0.36498(4) 0.63502(4) 0.29832(5) 0.0637 Uani
C10OD C 0.36498(4) 0.70168(5) 0.36498(4) 0.0637 Uani
C13JF C 0.14522(4) 0.85478(4) 0.32322(5) 0.0597 Uani
C13UC C 0.17678(5) 0.85478(4) 0.35478(4) 0.0597 Uani
C13MA C 0.32322(5) 0.64522(4) 0.64522(4) 0.0597 Uani
C13DF C 0.35478(4) 0.64522(4) 0.67678(5) 0.0597 Uani
C13V C 0.35478(4) 0.67678(5) 0.64522(4) 0.0597 Uani
C13IA C 0.14522(4) 0.82322(5) 0.64522(4) 0.0597 Uani
C13R C 0.14522(4) 0.85478(4) 0.67678(5) 0.0597 Uani
C13GF C 0.17678(5) 0.85478(4) 0.64522(4) 0.0597 Uani
C13GG C 0.32322(5) 0.64522(4) 0.35478(4) 0.0597 Uani
C13M C 0.35478(4) 0.64522(4) 0.32322(5) 0.0597 Uani
C13OD C 0.35478(4) 0.67678(5) 0.35478(4) 0.0597 Uani
C14UC C 0.16580(4) 0.86649(5) 0.33420(4) 0.0631 Uani
C14ZD C 0.16580(4) 0.83420(4) 0.36649(5) 0.0631 Uani
C14MA C 0.33420(4) 0.63351(5) 0.66580(4) 0.0631 Uani
C14BE C 0.36649(5) 0.66580(4) 0.66580(4) 0.0631 Uani
C14V C 0.33420(4) 0.66580(4) 0.63351(5) 0.0631 Uani
C14R C 0.13351(5) 0.83420(4) 0.66580(4) 0.0631 Uani
C14QD C 0.16580(4) 0.86649(5) 0.66580(4) 0.0631 Uani
C14IA C 0.16580(4) 0.83420(4) 0.63351(5) 0.0631 Uani
C14M C 0.33420(4) 0.63351(5) 0.33420(4) 0.0631 Uani
C14VD C 0.36649(5) 0.66580(4) 0.33420(4) 0.0631 Uani
C14OD C 0.33420(4) 0.66580(4) 0.36649(5) 0.0631 Uani
H7ZD H 0.1721 0.8279 0.3818 0.0760 Uiso
H7UC H 0.1721 0.8818 0.3279 0.0760 Uiso
H7MA H 0.3279 0.6182 0.6721 0.0760 Uiso
H7V H 0.3279 0.6721 0.6182 0.0760 Uiso
H7BE H 0.3818 0.6721 0.6721 0.0760 Uiso
H7R H 0.1182 0.8279 0.6721 0.0760 Uiso
H7IA H 0.1721 0.8279 0.6182 0.0760 Uiso
H7QD H 0.1721 0.8818 0.6721 0.0760 Uiso
H7M H 0.3279 0.6182 0.3279 0.0760 Uiso
H7OD H 0.3279 0.6721 0.3818 0.0760 Uiso
H7VD H 0.3818 0.6721 0.3279 0.0760 Uiso
Cu1GA Cu 0.0000 0.607539(5) 0.392461(5) 0.0426 Uani
Cu1T Cu 0.107539(5) 1.0000 0.107539(5) 0.0426 Uani
Cu1TA Cu -0.0000 0.892461(5) 0.107539(5) 0.0426 Uani
Cu1UC Cu 0.392461(5) 0.892461(5) 0.5000 0.0426 Uani
Cu1FD Cu 0.392461(5) 1.0000 0.392461(5) 0.0426 Uani
Cu1H Cu 0.107539(5) 0.5000 0.607539(5) 0.0426 Uani
Cu1I Cu 0.5000 0.607539(5) 0.892461(5) 0.0426 Uani
Cu1TC Cu 0.392461(5) 0.5000 0.892461(5) 0.0426 Uani
Cu1V Cu 0.5000 0.892461(5) 0.607539(5) 0.0426 Uani
Cu1IA Cu 0.0000 0.607539(5) 0.607539(5) 0.0426 Uani
Cu1R Cu 0.107539(5) 1.0000 0.892461(5) 0.0426 Uani
Cu1QD Cu -0.0000 0.892461(5) 0.892461(5) 0.0426 Uani
Cu1QA Cu 0.392461(5) 1.0000 0.607539(5) 0.0426 Uani
Cu1F Cu 0.107539(5) 0.5000 0.392461(5) 0.0426 Uani
Cu1K Cu 0.5000 0.607539(5) 0.107539(5) 0.0426 Uani
Cu1EA Cu 0.392461(5) 0.5000 0.107539(5) 0.0426 Uani
Cu1SC Cu 0.5000 0.892461(5) 0.392461(5) 0.0426 Uani
Cu2GA Cu 0.0000 0.643100(5) 0.356900(5) 0.0453 Uani
Cu2T Cu 0.143100(5) 1.0000 0.143100(5) 0.0453 Uani
Cu2TA Cu 0.0000 0.856900(5) 0.143100(5) 0.0453 Uani
Cu2UC Cu 0.356900(5) 0.856900(5) 0.5000 0.0453 Uani
Cu2FD Cu 0.356900(5) 1.0000 0.356900(5) 0.0453 Uani
Cu2H Cu 0.143100(5) 0.5000 0.643100(5) 0.0453 Uani
Cu2I Cu 0.5000 0.643100(5) 0.856900(5) 0.0453 Uani
Cu2TC Cu 0.356900(5) 0.5000 0.856900(5) 0.0453 Uani
Cu2V Cu 0.5000 0.856900(5) 0.643100(5) 0.0453 Uani
Cu2IA Cu 0.0000 0.643100(5) 0.643100(5) 0.0453 Uani
Cu2R Cu 0.143100(5) 1.0000 0.856900(5) 0.0453 Uani
Cu2QD Cu 0.0000 0.856900(5) 0.856900(5) 0.0453 Uani
Cu2QA Cu 0.356900(5) 1.0000 0.643100(5) 0.0453 Uani
Cu2F Cu 0.143100(5) 0.5000 0.356900(5) 0.0453 Uani
Cu2K Cu 0.5000 0.643100(5) 0.143100(5) 0.0453 Uani
Cu2EA Cu 0.356900(5) 0.5000 0.143100(5) 0.0453 Uani
Cu2SC Cu 0.5000 0.856900(5) 0.356900(5) 0.0453 Uani
N1JF N 0.09440(3) 0.90560(3) 0.22243(4) 0.0553 Uani
N1UC N 0.27757(4) 0.90560(3) 0.40560(3) 0.0553 Uani
N1MA N 0.22243(4) 0.59440(3) 0.59440(3) 0.0553 Uani
N1DF N 0.40560(3) 0.59440(3) 0.77757(4) 0.0553 Uani
N1V N 0.40560(3) 0.77757(4) 0.59440(3) 0.0553 Uani
N1IA N 0.09440(3) 0.72243(4) 0.59440(3) 0.0553 Uani
N1R N 0.09440(3) 0.90560(3) 0.77757(4) 0.0553 Uani
N1GF N 0.27757(4) 0.90560(3) 0.59440(3) 0.0553 Uani
N1GG N 0.22243(4) 0.59440(3) 0.40560(3) 0.0553 Uani
N1M N 0.40560(3) 0.59440(3) 0.22243(4) 0.0553 Uani
N1OD N 0.40560(3) 0.77757(4) 0.40560(3) 0.0553 Uani
H8JF H 0.0880 0.9120 0.2361 0.0660 Uiso
H8UC H 0.2639 0.9120 0.4120 0.0660 Uiso
H8MA H 0.2361 0.5880 0.5880 0.0660 Uiso
H8DF H 0.4120 0.5880 0.7639 0.0660 Uiso
H8V H 0.4120 0.7639 0.5880 0.0660 Uiso
H8IA H 0.0880 0.7361 0.5880 0.0660 Uiso
H8R H 0.0880 0.9120 0.7639 0.0660 Uiso
H8GF H 0.2639 0.9120 0.5880 0.0660 Uiso
H8GG H 0.2361 0.5880 0.4120 0.0660 Uiso
H8M H 0.4120 0.5880 0.2361 0.0660 Uiso
H8OD H 0.4120 0.7639 0.4120 0.0660 Uiso
O1ZD O 0.026212(19) 0.628388(19) 0.408307(19) 0.0429 Uani
O1JF O 0.091693(19) 0.973788(19) 0.128388(19) 0.0429 Uani
O1XB O 0.026212(19) 0.908307(19) 0.128388(19) 0.0429 Uani
O1UC O 0.371612(19) 0.908307(19) 0.473788(19) 0.0429 Uani
O1NB O 0.371612(19) 0.973788(19) 0.408307(19) 0.0429 Uani
O1MA O 0.128388(19) 0.591693(19) 0.526212(19) 0.0429 Uani
O1RF O 0.128388(19) 0.526212(19) 0.591693(19) 0.0429 Uani
O1DF O 0.473788(19) 0.591693(19) 0.871612(19) 0.0429 Uani
O1DC O 0.408307(19) 0.526212(19) 0.871612(19) 0.0429 Uani
O1BE O 0.408307(19) 0.871612(19) 0.526212(19) 0.0429 Uani
O1V O 0.473788(19) 0.871612(19) 0.591693(19) 0.0429 Uani
O1NE O 0.091693(19) 0.628388(19) 0.526212(19) 0.0429 Uani
O1IA O 0.026212(19) 0.628388(19) 0.591693(19) 0.0429 Uani
O1R O 0.091693(19) 0.973788(19) 0.871612(19) 0.0429 Uani
O1QD O 0.026212(19) 0.908307(19) 0.871612(19) 0.0429 Uani
O1EB O 0.371612(19) 0.908307(19) 0.526212(19) 0.0429 Uani
O1GF O 0.371612(19) 0.973788(19) 0.591693(19) 0.0429 Uani
O1GG O 0.128388(19) 0.591693(19) 0.473788(19) 0.0429 Uani
O1AC O 0.128388(19) 0.526212(19) 0.408307(19) 0.0429 Uani
O1M O 0.473788(19) 0.591693(19) 0.128388(19) 0.0429 Uani
O1VD O 0.408307(19) 0.526212(19) 0.128388(19) 0.0429 Uani
O1FC O 0.408307(19) 0.871612(19) 0.473788(19) 0.0429 Uani
O1OD O 0.473788(19) 0.871612(19) 0.408307(19) 0.0429 Uani
O1BG O -0.026212(19) 0.591693(19) 0.371612(19) 0.0429 Uani
O1GA O -0.026212(19) 0.628388(19) 0.408307(19) 0.0429 Uani
O1KC O 0.026212(19) 0.591693(19) 0.371612(19) 0.0429 Uani
O1DG O 0.128388(19) 1.026212(19) 0.091693(19) 0.0429 Uani
O1T O 0.091693(19) 1.026212(19) 0.128388(19) 0.0429 Uani
O1LA O 0.128388(19) 0.973788(19) 0.091693(19) 0.0429 Uani
O1TA O -0.026212(19) 0.871612(19) 0.091693(19) 0.0429 Uani
O1QF O -0.026212(19) 0.908307(19) 0.128388(19) 0.0429 Uani
O1KE O 0.026212(19) 0.871612(19) 0.091693(19) 0.0429 Uani
O1PC O 0.408307(19) 1.026212(19) 0.371612(19) 0.0429 Uani
O1FD O 0.371612(19) 1.026212(19) 0.408307(19) 0.0429 Uani
O1JE O 0.408307(19) 0.973788(19) 0.371612(19) 0.0429 Uani
O2ZD O 0.02622(2) 0.658495(19) 0.37781(2) 0.0480 Uani
O2JF O 0.12219(2) 0.97378(2) 0.158495(19) 0.0480 Uani
O2XB O 0.02622(2) 0.87781(2) 0.158495(19) 0.0480 Uani
O2UC O 0.341505(19) 0.87781(2) 0.47378(2) 0.0480 Uani
O2NB O 0.341505(19) 0.97378(2) 0.37781(2) 0.0480 Uani
O2MA O 0.158495(19) 0.62219(2) 0.52622(2) 0.0480 Uani
O2RF O 0.158495(19) 0.52622(2) 0.62219(2) 0.0480 Uani
O2DF O 0.47378(2) 0.62219(2) 0.841505(19) 0.0480 Uani
O2DC O 0.37781(2) 0.52622(2) 0.841505(19) 0.0480 Uani
O2BE O 0.37781(2) 0.841505(19) 0.52622(2) 0.0480 Uani
O2V O 0.47378(2) 0.841505(19) 0.62219(2) 0.0480 Uani
O2NE O 0.12219(2) 0.658495(19) 0.52622(2) 0.0480 Uani
O2IA O 0.02622(2) 0.658495(19) 0.62219(2) 0.0480 Uani
O2R O 0.12219(2) 0.97378(2) 0.841505(19) 0.0480 Uani
O2QD O 0.02622(2) 0.87781(2) 0.841505(19) 0.0480 Uani
O2EB O 0.341505(19) 0.87781(2) 0.52622(2) 0.0480 Uani
O2GF O 0.341505(19) 0.97378(2) 0.62219(2) 0.0480 Uani
O2GG O 0.158495(19) 0.62219(2) 0.47378(2) 0.0480 Uani
O2AC O 0.158495(19) 0.52622(2) 0.37781(2) 0.0480 Uani
O2M O 0.47378(2) 0.62219(2) 0.158495(19) 0.0480 Uani
O2VD O 0.37781(2) 0.52622(2) 0.158495(19) 0.0480 Uani
O2FC O 0.37781(2) 0.841505(19) 0.47378(2) 0.0480 Uani
O2OD O 0.47378(2) 0.841505(19) 0.37781(2) 0.0480 Uani
O2BG O -0.02622(2) 0.62219(2) 0.341505(19) 0.0480 Uani
O2GA O -0.02622(2) 0.658495(19) 0.37781(2) 0.0480 Uani
O2KC O 0.02622(2) 0.62219(2) 0.341505(19) 0.0480 Uani
O2DG O 0.158495(19) 1.02622(2) 0.12219(2) 0.0480 Uani
O2T O 0.12219(2) 1.02622(2) 0.158495(19) 0.0480 Uani
O2LA O 0.158495(19) 0.97378(2) 0.12219(2) 0.0480 Uani
O2TA O -0.02622(2) 0.841505(19) 0.12219(2) 0.0480 Uani
O2QF O -0.02622(2) 0.87781(2) 0.158495(19) 0.0480 Uani
O2KE O 0.02622(2) 0.841505(19) 0.12219(2) 0.0480 Uani
O2PC O 0.37781(2) 1.02622(2) 0.341505(19) 0.0480 Uani
O2FD O 0.341505(19) 1.02622(2) 0.37781(2) 0.0480 Uani
O2JE O 0.37781(2) 0.97378(2) 0.341505(19) 0.0480 Uani
O3JF O 0.12326(3) 0.87674(3) 0.20551(4) 0.0784 Uani
O3UC O 0.29449(4) 0.87674(3) 0.37674(3) 0.0784 Uani
O3MA O 0.20551(4) 0.62326(3) 0.62326(3) 0.0784 Uani
O3DF O 0.37674(3) 0.62326(3) 0.79449(4) 0.0784 Uani
O3V O 0.37674(3) 0.79449(4) 0.62326(3) 0.0784 Uani
O3IA O 0.12326(3) 0.70551(4) 0.62326(3) 0.0784 Uani
O3R O 0.12326(3) 0.87674(3) 0.79449(4) 0.0784 Uani
O3GF O 0.29449(4) 0.87674(3) 0.62326(3) 0.0784 Uani
O3GG O 0.20551(4) 0.62326(3) 0.37674(3) 0.0784 Uani
O3M O 0.37674(3) 0.62326(3) 0.20551(4) 0.0784 Uani
O3OD O 0.37674(3) 0.79449(4) 0.37674(3) 0.0784 Uani
O4GA O 0.0000 0.67155(3) 0.32845(3) 0.0512 Uani
O4T O 0.17155(3) 1.0000 0.17155(3) 0.0512 Uani
O4TA O 0.0000 0.82845(3) 0.17155(3) 0.0512 Uani
O4UC O 0.32845(3) 0.82845(3) 0.5000 0.0512 Uani
O4FD O 0.32845(3) 1.0000 0.32845(3) 0.0512 Uani
O5GA O 0.0000 0.57888(3) 0.42112(3) 0.0555 Uani
O5T O 0.07888(3) 1.0000 0.07888(3) 0.0555 Uani
O5TA O 0.0000 0.92112(3) 0.07888(3) 0.0555 Uani
O5UC O 0.42112(3) 0.92112(3) 0.5000 0.0555 Uani
O5FD O 0.42112(3) 1.0000 0.42112(3) 0.0555 Uani
loop_
_atom_site_aniso_label
_atom_site_aniso_U_11
_atom_site_aniso_U_22
_atom_site_aniso_U_33
_atom_site_aniso_U_23
_atom_site_aniso_U_13
_atom_site_aniso_U_12
C1 0.0515(9) 0.0434(8) 0.0358(7) 0.0049(6) -0.0024(7) -0.0117(7)
C2 0.0466(7) 0.0321(10) 0.0466(7) 0.0116(6) -0.0061(9) -0.0116(6)
C3 0.0517(9) 0.0466(9) 0.0475(9) 0.0097(7) -0.0086(7) -0.0110(7)
C4 0.0554(10) 0.0350(8) 0.0564(10) 0.0084(7) -0.0102(8) -0.0100(7)
C5 0.0479(8) 0.0634(15) 0.0479(8) 0.0194(8) -0.0068(10) -0.0194(8)
C6 0.0705(12) 0.0660(18) 0.0705(12) 0.0116(12) -0.0212(15) -0.0116(12)
C7 0.0599(10) 0.0796(19) 0.0599(10) 0.0156(10) -0.0045(13) -0.0156(10)
C8 0.061(2) 0.064(2) 0.068(3) -0.0048(19) -0.005(2) -0.0124(19)
C9 0.068(3) 0.089(3) 0.067(3) 0.024(2) -0.020(2) -0.020(2)
C10 0.0641(10) 0.0629(17) 0.0641(10) 0.0171(10) -0.0082(13) -0.0171(10)
C13 0.0508(8) 0.0775(18) 0.0508(8) 0.0190(9) -0.0128(11) -0.0190(9)
C14 0.0606(15) 0.0643(11) 0.0643(11) 0.0286(13) -0.0251(10) -0.0251(10)
Cu1 0.04430(15) 0.04430(15) 0.0393(2) 0.000 0.000 -0.01492(16)
Cu2 0.04516(16) 0.04516(16) 0.0457(2) 0.000 0.000 -0.01428(17)
N1 0.0592(8) 0.0475(11) 0.0592(8) 0.0180(7) -0.0272(11) -0.0180(7)
O1 0.0419(6) 0.0479(6) 0.0390(6) -0.0030(4) 0.0004(4) -0.0146(5)
O2 0.0515(6) 0.0356(5) 0.0568(7) 0.0026(5) -0.0038(5) -0.0108(5)
O3 0.0797(9) 0.0758(14) 0.0797(9) 0.0056(9) -0.0158(11) -0.0056(9)
O4 0.0438(8) 0.0438(8) 0.0661(15) 0.000 0.000 -0.0177(10)
O5 0.0538(8) 0.0538(8) 0.0589(14) 0.000 0.000 -0.0211(11)
C1ZD 0.0358 0.0434 0.0515 0.0117 -0.0024 -0.0049
C1JF 0.0515 0.0358 0.0434 0.0049 -0.0117 -0.0024
C1XB 0.0358 0.0515 0.0434 0.0117 -0.0049 -0.0024
C1UC 0.0434 0.0515 0.0358 0.0024 -0.0049 -0.0117
C1NB 0.0434 0.0358 0.0515 0.0024 -0.0117 -0.0049
C1MA 0.0434 0.0515 0.0358 0.0024 -0.0049 -0.0117
C1RF 0.0434 0.0358 0.0515 0.0024 -0.0117 -0.0049
C1DF 0.0358 0.0515 0.0434 0.0117 -0.0049 -0.0024
C1DC 0.0515 0.0358 0.0434 0.0049 -0.0117 -0.0024
C1BE 0.0515 0.0434 0.0358 0.0049 -0.0024 -0.0117
C1V 0.0358 0.0434 0.0515 0.0117 -0.0024 -0.0049
C1NE 0.0515 0.0434 0.0358 -0.0049 0.0024 -0.0117
C1IA 0.0358 0.0434 0.0515 -0.0117 0.0024 -0.0049
C1R 0.0515 0.0358 0.0434 -0.0049 0.0117 -0.0024
C1QD 0.0358 0.0515 0.0434 -0.0117 0.0049 -0.0024
C1EB 0.0434 0.0515 0.0358 -0.0024 0.0049 -0.0117
C1GF 0.0434 0.0358 0.0515 -0.0024 0.0117 -0.0049
C1GG 0.0434 0.0515 0.0358 -0.0024 0.0049 -0.0117
C1AC 0.0434 0.0358 0.0515 -0.0024 0.0117 -0.0049
C1M 0.0358 0.0515 0.0434 -0.0117 0.0049 -0.0024
C1VD 0.0515 0.0358 0.0434 -0.0049 0.0117 -0.0024
C1FC 0.0515 0.0434 0.0358 -0.0049 0.0024 -0.0117
C1OD 0.0358 0.0434 0.0515 -0.0117 0.0024 -0.0049
C2JF 0.0466 0.0466 0.0321 0.0116 -0.0116 -0.0061
C2UC 0.0321 0.0466 0.0466 0.0061 -0.0116 -0.0116
C2MA 0.0321 0.0466 0.0466 0.0061 -0.0116 -0.0116
C2DF 0.0466 0.0466 0.0321 0.0116 -0.0116 -0.0061
C2V 0.0466 0.0321 0.0466 0.0116 -0.0061 -0.0116
C2IA 0.0466 0.0321 0.0466 -0.0116 0.0061 -0.0116
C2R 0.0466 0.0466 0.0321 -0.0116 0.0116 -0.0061
C2GF 0.0321 0.0466 0.0466 -0.0061 0.0116 -0.0116
C2GG 0.0321 0.0466 0.0466 -0.0061 0.0116 -0.0116
C2M 0.0466 0.0466 0.0321 -0.0116 0.0116 -0.0061
C2OD 0.0466 0.0321 0.0466 -0.0116 0.0061 -0.0116
C3ZD 0.0475 0.0466 0.0517 0.011 -0.0086 -0.0097
C3JF 0.0517 0.0475 0.0466 0.0097 -0.011 -0.0086
C3XB 0.0475 0.0517 0.0466 0.011 -0.0097 -0.0086
C3UC 0.0466 0.0517 0.0475 0.0086 -0.0097 -0.011
C3NB 0.0466 0.0475 0.0517 0.0086 -0.011 -0.0097
C3MA 0.0466 0.0517 0.0475 0.0086 -0.0097 -0.011
C3RF 0.0466 0.0475 0.0517 0.0086 -0.011 -0.0097
C3DF 0.0475 0.0517 0.0466 0.011 -0.0097 -0.0086
C3DC 0.0517 0.0475 0.0466 0.0097 -0.011 -0.0086
C3BE 0.0517 0.0466 0.0475 0.0097 -0.0086 -0.011
C3V 0.0475 0.0466 0.0517 0.011 -0.0086 -0.0097
C3NE 0.0517 0.0466 0.0475 -0.0097 0.0086 -0.011
C3IA 0.0475 0.0466 0.0517 -0.011 0.0086 -0.0097
C3R 0.0517 0.0475 0.0466 -0.0097 0.011 -0.0086
C3QD 0.0475 0.0517 0.0466 -0.011 0.0097 -0.0086
C3EB 0.0466 0.0517 0.0475 -0.0086 0.0097 -0.011
C3GF 0.0466 0.0475 0.0517 -0.0086 0.011 -0.0097
C3GG 0.0466 0.0517 0.0475 -0.0086 0.0097 -0.011
C3AC 0.0466 0.0475 0.0517 -0.0086 0.011 -0.0097
C3M 0.0475 0.0517 0.0466 -0.011 0.0097 -0.0086
C3VD 0.0517 0.0475 0.0466 -0.0097 0.011 -0.0086
C3FC 0.0517 0.0466 0.0475 -0.0097 0.0086 -0.011
C3OD 0.0475 0.0466 0.0517 -0.011 0.0086 -0.0097
C4ZD 0.0564 0.035 0.0554 0.01 -0.0102 -0.0084
C4JF 0.0554 0.0564 0.035 0.0084 -0.01 -0.0102
C4XB 0.0564 0.0554 0.035 0.01 -0.0084 -0.0102
C4UC 0.035 0.0554 0.0564 0.0102 -0.0084 -0.01
C4NB 0.035 0.0564 0.0554 0.0102 -0.01 -0.0084
C4MA 0.035 0.0554 0.0564 0.0102 -0.0084 -0.01
C4RF 0.035 0.0564 0.0554 0.0102 -0.01 -0.0084
C4DF 0.0564 0.0554 0.035 0.01 -0.0084 -0.0102
C4DC 0.0554 0.0564 0.035 0.0084 -0.01 -0.0102
C4BE 0.0554 0.035 0.0564 0.0084 -0.0102 -0.01
C4V 0.0564 0.035 0.0554 0.01 -0.0102 -0.0084
C4NE 0.0554 0.035 0.0564 -0.0084 0.0102 -0.01
C4IA 0.0564 0.035 0.0554 -0.01 0.0102 -0.0084
C4R 0.0554 0.0564 0.035 -0.0084 0.01 -0.0102
C4QD 0.0564 0.0554 0.035 -0.01 0.0084 -0.0102
C4EB 0.035 0.0554 0.0564 -0.0102 0.0084 -0.01
C4GF 0.035 0.0564 0.0554 -0.0102 0.01 -0.0084
C4GG 0.035 0.0554 0.0564 -0.0102 0.0084 -0.01
C4AC 0.035 0.0564 0.0554 -0.0102 0.01 -0.0084
C4M 0.0564 0.0554 0.035 -0.01 0.0084 -0.0102
C4VD 0.0554 0.0564 0.035 -0.0084 0.01 -0.0102
C4FC 0.0554 0.035 0.0564 -0.0084 0.0102 -0.01
C4OD 0.0564 0.035 0.0554 -0.01 0.0102 -0.0084
C5JF 0.0479 0.0479 0.0634 0.0194 -0.0194 -0.0068
C5UC 0.0634 0.0479 0.0479 0.0068 -0.0194 -0.0194
C5MA 0.0634 0.0479 0.0479 0.0068 -0.0194 -0.0194
C5DF 0.0479 0.0479 0.0634 0.0194 -0.0194 -0.0068
C5V 0.0479 0.0634 0.0479 0.0194 -0.0068 -0.0194
C5IA 0.0479 0.0634 0.0479 -0.0194 0.0068 -0.0194
C5R 0.0479 0.0479 0.0634 -0.0194 0.0194 -0.0068
C5GF 0.0634 0.0479 0.0479 -0.0068 0.0194 -0.0194
C5GG 0.0634 0.0479 0.0479 -0.0068 0.0194 -0.0194
C5M 0.0479 0.0479 0.0634 -0.0194 0.0194 -0.0068
C5OD 0.0479 0.0634 0.0479 -0.0194 0.0068 -0.0194
C6JF 0.0705 0.0705 0.066 0.0116 -0.0116 -0.0212
C6UC 0.066 0.0705 0.0705 0.0212 -0.0116 -0.0116
C6MA 0.066 0.0705 0.0705 0.0212 -0.0116 -0.0116
C6DF 0.0705 0.0705 0.066 0.0116 -0.0116 -0.0212
C6V 0.0705 0.066 0.0705 0.0116 -0.0212 -0.0116
C6IA 0.0705 0.066 0.0705 -0.0116 0.0212 -0.0116
C6R 0.0705 0.0705 0.066 -0.0116 0.0116 -0.0212
C6GF 0.066 0.0705 0.0705 -0.0212 0.0116 -0.0116
C6GG 0.066 0.0705 0.0705 -0.0212 0.0116 -0.0116
C6M 0.0705 0.0705 0.066 -0.0116 0.0116 -0.0212
C6OD 0.0705 0.066 0.0705 -0.0116 0.0212 -0.0116
C7JF 0.0599 0.0599 0.0796 0.0156 -0.0156 -0.0045
C7UC 0.0796 0.0599 0.0599 0.0045 -0.0156 -0.0156
C7MA 0.0796 0.0599 0.0599 0.0045 -0.0156 -0.0156
C7DF 0.0599 0.0599 0.0796 0.0156 -0.0156 -0.0045
C7V 0.0599 0.0796 0.0599 0.0156 -0.0045 -0.0156
C7IA 0.0599 0.0796 0.0599 -0.0156 0.0045 -0.0156
C7R 0.0599 0.0599 0.0796 -0.0156 0.0156 -0.0045
C7GF 0.0796 0.0599 0.0599 -0.0045 0.0156 -0.0156
C7GG 0.0796 0.0599 0.0599 -0.0045 0.0156 -0.0156
C7M 0.0599 0.0599 0.0796 -0.0156 0.0156 -0.0045
C7OD 0.0599 0.0796 0.0599 -0.0156 0.0045 -0.0156
C8ZD 0.068 0.064 0.061 0.0124 -0.005 0.0048
C8JF 0.061 0.068 0.064 -0.0048 -0.0124 -0.005
C8XB 0.068 0.061 0.064 0.0124 0.0048 -0.005
C8UC 0.064 0.061 0.068 0.005 0.0048 -0.0124
C8NB 0.064 0.068 0.061 0.005 -0.0124 0.0048
C8MA 0.064 0.061 0.068 0.005 0.0048 -0.0124
C8RF 0.064 0.068 0.061 0.005 -0.0124 0.0048
C8DF 0.068 0.061 0.064 0.0124 0.0048 -0.005
C8DC 0.061 0.068 0.064 -0.0048 -0.0124 -0.005
C8BE 0.061 0.064 0.068 -0.0048 -0.005 -0.0124
C8V 0.068 0.064 0.061 0.0124 -0.005 0.0048
C8NE 0.061 0.064 0.068 0.0048 0.005 -0.0124
C8IA 0.068 0.064 0.061 -0.0124 0.005 0.0048
C8R 0.061 0.068 0.064 0.0048 0.0124 -0.005
C8QD 0.068 0.061 0.064 -0.0124 -0.0048 -0.005
C8EB 0.064 0.061 0.068 -0.005 -0.0048 -0.0124
C8GF 0.064 0.068 0.061 -0.005 0.0124 0.0048
C8GG 0.064 0.061 0.068 -0.005 -0.0048 -0.0124
C8AC 0.064 0.068 0.061 -0.005 0.0124 0.0048
C8M 0.068 0.061 0.064 -0.0124 -0.0048 -0.005
C8VD 0.061 0.068 0.064 0.0048 0.0124 -0.005
C8FC 0.061 0.064 0.068 0.0048 0.005 -0.0124
C8OD 0.068 0.064 0.061 -0.0124 0.005 0.0048
C9ZD 0.067 0.089 0.068 0.02 -0.02 -0.024
C9JF 0.068 0.067 0.089 0.024 -0.02 -0.02
C9XB 0.067 0.068 0.089 0.02 -0.024 -0.02
C9UC 0.089 0.068 0.067 0.02 -0.024 -0.02
C9NB 0.089 0.067 0.068 0.02 -0.02 -0.024
C9MA 0.089 0.068 0.067 0.02 -0.024 -0.02
C9RF 0.089 0.067 0.068 0.02 -0.02 -0.024
C9DF 0.067 0.068 0.089 0.02 -0.024 -0.02
C9DC 0.068 0.067 0.089 0.024 -0.02 -0.02
C9BE 0.068 0.089 0.067 0.024 -0.02 -0.02
C9V 0.067 0.089 0.068 0.02 -0.02 -0.024
C9NE 0.068 0.089 0.067 -0.024 0.02 -0.02
C9IA 0.067 0.089 0.068 -0.02 0.02 -0.024
C9R 0.068 0.067 0.089 -0.024 0.02 -0.02
C9QD 0.067 0.068 0.089 -0.02 0.024 -0.02
C9EB 0.089 0.068 0.067 -0.02 0.024 -0.02
C9GF 0.089 0.067 0.068 -0.02 0.02 -0.024
C9GG 0.089 0.068 0.067 -0.02 0.024 -0.02
C9AC 0.089 0.067 0.068 -0.02 0.02 -0.024
C9M 0.067 0.068 0.089 -0.02 0.024 -0.02
C9VD 0.068 0.067 0.089 -0.024 0.02 -0.02
C9FC 0.068 0.089 0.067 -0.024 0.02 -0.02
C9OD 0.067 0.089 0.068 -0.02 0.02 -0.024
C10JF 0.0641 0.0641 0.0629 0.0171 -0.0171 -0.0082
C10UC 0.0629 0.0641 0.0641 0.0082 -0.0171 -0.0171
C10MA 0.0629 0.0641 0.0641 0.0082 -0.0171 -0.0171
C10DF 0.0641 0.0641 0.0629 0.0171 -0.0171 -0.0082
C10V 0.0641 0.0629 0.0641 0.0171 -0.0082 -0.0171
C10IA 0.0641 0.0629 0.0641 -0.0171 0.0082 -0.0171
C10R 0.0641 0.0641 0.0629 -0.0171 0.0171 -0.0082
C10GF 0.0629 0.0641 0.0641 -0.0082 0.0171 -0.0171
C10GG 0.0629 0.0641 0.0641 -0.0082 0.0171 -0.0171
C10M 0.0641 0.0641 0.0629 -0.0171 0.0171 -0.0082
C10OD 0.0641 0.0629 0.0641 -0.0171 0.0082 -0.0171
C13JF 0.0508 0.0508 0.0775 0.019 -0.019 -0.0128
C13UC 0.0775 0.0508 0.0508 0.0128 -0.019 -0.019
C13MA 0.0775 0.0508 0.0508 0.0128 -0.019 -0.019
C13DF 0.0508 0.0508 0.0775 0.019 -0.019 -0.0128
C13V 0.0508 0.0775 0.0508 0.019 -0.0128 -0.019
C13IA 0.0508 0.0775 0.0508 -0.019 0.0128 -0.019
C13R 0.0508 0.0508 0.0775 -0.019 0.019 -0.0128
C13GF 0.0775 0.0508 0.0508 -0.0128 0.019 -0.019
C13GG 0.0775 0.0508 0.0508 -0.0128 0.019 -0.019
C13M 0.0508 0.0508 0.0775 -0.019 0.019 -0.0128
C13OD 0.0508 0.0775 0.0508 -0.019 0.0128 -0.019
C14UC 0.0643 0.0606 0.0643 0.0251 -0.0286 -0.0251
C14ZD 0.0643 0.0643 0.0606 0.0251 -0.0251 -0.0286
C14MA 0.0643 0.0606 0.0643 0.0251 -0.0286 -0.0251
C14BE 0.0606 0.0643 0.0643 0.0286 -0.0251 -0.0251
C14V 0.0643 0.0643 0.0606 0.0251 -0.0251 -0.0286
C14R 0.0606 0.0643 0.0643 -0.0286 0.0251 -0.0251
C14QD 0.0643 0.0606 0.0643 -0.0251 0.0286 -0.0251
C14IA 0.0643 0.0643 0.0606 -0.0251 0.0251 -0.0286
C14M 0.0643 0.0606 0.0643 -0.0251 0.0286 -0.0251
C14VD 0.0606 0.0643 0.0643 -0.0286 0.0251 -0.0251
C14OD 0.0643 0.0643 0.0606 -0.0251 0.0251 -0.0286
Cu1GA 0.0393 0.0443 0.0443 0.01492 0 0
Cu1T 0.0443 0.0393 0.0443 0 -0.01492 0
Cu1TA 0.0393 0.0443 0.0443 0.01492 0 0
Cu1UC 0.0443 0.0443 0.0393 0 0 -0.01492
Cu1FD 0.0443 0.0393 0.0443 0 -0.01492 0
Cu1H 0.0443 0.0393 0.0443 0 -0.01492 0
Cu1I 0.0393 0.0443 0.0443 0.01492 0 0
Cu1TC 0.0443 0.0393 0.0443 0 -0.01492 0
Cu1V 0.0393 0.0443 0.0443 0.01492 0 0
Cu1IA 0.0393 0.0443 0.0443 -0.01492 0 0
Cu1R 0.0443 0.0393 0.0443 0 0.01492 0
Cu1QD 0.0393 0.0443 0.0443 -0.01492 0 0
Cu1QA 0.0443 0.0393 0.0443 0 0.01492 0
Cu1F 0.0443 0.0393 0.0443 0 0.01492 0
Cu1K 0.0393 0.0443 0.0443 -0.01492 0 0
Cu1EA 0.0443 0.0393 0.0443 0 0.01492 0
Cu1SC 0.0393 0.0443 0.0443 -0.01492 0 0
Cu2GA 0.0457 0.04516 0.04516 0.01428 0 0
Cu2T 0.04516 0.0457 0.04516 0 -0.01428 0
Cu2TA 0.0457 0.04516 0.04516 0.01428 0 0
Cu2UC 0.04516 0.04516 0.0457 0 0 -0.01428
Cu2FD 0.04516 0.0457 0.04516 0 -0.01428 0
Cu2H 0.04516 0.0457 0.04516 0 -0.01428 0
Cu2I 0.0457 0.04516 0.04516 0.01428 0 0
Cu2TC 0.04516 0.0457 0.04516 0 -0.01428 0
Cu2V 0.0457 0.04516 0.04516 0.01428 0 0
Cu2IA 0.0457 0.04516 0.04516 -0.01428 0 0
Cu2R 0.04516 0.0457 0.04516 0 0.01428 0
Cu2QD 0.0457 0.04516 0.04516 -0.01428 0 0
Cu2QA 0.04516 0.0457 0.04516 0 0.01428 0
Cu2F 0.04516 0.0457 0.04516 0 0.01428 0
Cu2K 0.0457 0.04516 0.04516 -0.01428 0 0
Cu2EA 0.04516 0.0457 0.04516 0 0.01428 0
Cu2SC 0.0457 0.04516 0.04516 -0.01428 0 0
N1JF 0.0592 0.0592 0.0475 0.018 -0.018 -0.0272
N1UC 0.0475 0.0592 0.0592 0.0272 -0.018 -0.018
N1MA 0.0475 0.0592 0.0592 0.0272 -0.018 -0.018
N1DF 0.0592 0.0592 0.0475 0.018 -0.018 -0.0272
N1V 0.0592 0.0475 0.0592 0.018 -0.0272 -0.018
N1IA 0.0592 0.0475 0.0592 -0.018 0.0272 -0.018
N1R 0.0592 0.0592 0.0475 -0.018 0.018 -0.0272
N1GF 0.0475 0.0592 0.0592 -0.0272 0.018 -0.018
N1GG 0.0475 0.0592 0.0592 -0.0272 0.018 -0.018
N1M 0.0592 0.0592 0.0475 -0.018 0.018 -0.0272
N1OD 0.0592 0.0475 0.0592 -0.018 0.0272 -0.018
O1ZD 0.039 0.0479 0.0419 0.0146 0.0004 0.003
O1JF 0.0419 0.039 0.0479 -0.003 -0.0146 0.0004
O1XB 0.039 0.0419 0.0479 0.0146 0.003 0.0004
O1UC 0.0479 0.0419 0.039 -0.0004 0.003 -0.0146
O1NB 0.0479 0.039 0.0419 -0.0004 -0.0146 0.003
O1MA 0.0479 0.0419 0.039 -0.0004 0.003 -0.0146
O1RF 0.0479 0.039 0.0419 -0.0004 -0.0146 0.003
O1DF 0.039 0.0419 0.0479 0.0146 0.003 0.0004
O1DC 0.0419 0.039 0.0479 -0.003 -0.0146 0.0004
O1BE 0.0419 0.0479 0.039 -0.003 0.0004 -0.0146
O1V 0.039 0.0479 0.0419 0.0146 0.0004 0.003
O1NE 0.0419 0.0479 0.039 0.003 -0.0004 -0.0146
O1IA 0.039 0.0479 0.0419 -0.0146 -0.0004 0.003
O1R 0.0419 0.039 0.0479 0.003 0.0146 0.0004
O1QD 0.039 0.0419 0.0479 -0.0146 -0.003 0.0004
O1EB 0.0479 0.0419 0.039 0.0004 -0.003 -0.0146
O1GF 0.0479 0.039 0.0419 0.0004 0.0146 0.003
O1GG 0.0479 0.0419 0.039 0.0004 -0.003 -0.0146
O1AC 0.0479 0.039 0.0419 0.0004 0.0146 0.003
O1M 0.039 0.0419 0.0479 -0.0146 -0.003 0.0004
O1VD 0.0419 0.039 0.0479 0.003 0.0146 0.0004
O1FC 0.0419 0.0479 0.039 0.003 -0.0004 -0.0146
O1OD 0.039 0.0479 0.0419 -0.0146 -0.0004 0.003
O1BG 0.039 0.0419 0.0479 0.0146 0.003 0.0004
O1GA 0.039 0.0479 0.0419 0.0146 -0.0004 -0.003
O1KC 0.039 0.0419 0.0479 0.0146 -0.003 -0.0004
O1DG 0.0479 0.039 0.0419 -0.0004 -0.0146 0.003
O1T 0.0419 0.039 0.0479 0.003 -0.0146 -0.0004
O1LA 0.0479 0.039 0.0419 0.0004 -0.0146 -0.003
O1TA 0.039 0.0479 0.0419 0.0146 0.0004 0.003
O1QF 0.039 0.0419 0.0479 0.0146 -0.003 -0.0004
O1KE 0.039 0.0479 0.0419 0.0146 -0.0004 -0.003
O1PC 0.0419 0.039 0.0479 -0.003 -0.0146 0.0004
O1FD 0.0479 0.039 0.0419 0.0004 -0.0146 -0.003
O1JE 0.0419 0.039 0.0479 0.003 -0.0146 -0.0004
O2ZD 0.0568 0.0356 0.0515 0.0108 -0.0038 -0.0026
O2JF 0.0515 0.0568 0.0356 0.0026 -0.0108 -0.0038
O2XB 0.0568 0.0515 0.0356 0.0108 -0.0026 -0.0038
O2UC 0.0356 0.0515 0.0568 0.0038 -0.0026 -0.0108
O2NB 0.0356 0.0568 0.0515 0.0038 -0.0108 -0.0026
O2MA 0.0356 0.0515 0.0568 0.0038 -0.0026 -0.0108
O2RF 0.0356 0.0568 0.0515 0.0038 -0.0108 -0.0026
O2DF 0.0568 0.0515 0.0356 0.0108 -0.0026 -0.0038
O2DC 0.0515 0.0568 0.0356 0.0026 -0.0108 -0.0038
O2BE 0.0515 0.0356 0.0568 0.0026 -0.0038 -0.0108
O2V 0.0568 0.0356 0.0515 0.0108 -0.0038 -0.0026
O2NE 0.0515 0.0356 0.0568 -0.0026 0.0038 -0.0108
O2IA 0.0568 0.0356 0.0515 -0.0108 0.0038 -0.0026
O2R 0.0515 0.0568 0.0356 -0.0026 0.0108 -0.0038
O2QD 0.0568 0.0515 0.0356 -0.0108 0.0026 -0.0038
O2EB 0.0356 0.0515 0.0568 -0.0038 0.0026 -0.0108
O2GF 0.0356 0.0568 0.0515 -0.0038 0.0108 -0.0026
O2GG 0.0356 0.0515 0.0568 -0.0038 0.0026 -0.0108
O2AC 0.0356 0.0568 0.0515 -0.0038 0.0108 -0.0026
O2M 0.0568 0.0515 0.0356 -0.0108 0.0026 -0.0038
O2VD 0.0515 0.0568 0.0356 -0.0026 0.0108 -0.0038
O2FC 0.0515 0.0356 0.0568 -0.0026 0.0038 -0.0108
O2OD 0.0568 0.0356 0.0515 -0.0108 0.0038 -0.0026
O2BG 0.0568 0.0515 0.0356 0.0108 -0.0026 -0.0038
O2GA 0.0568 0.0356 0.0515 0.0108 0.0038 0.0026
O2KC 0.0568 0.0515 0.0356 0.0108 0.0026 0.0038
O2DG 0.0356 0.0568 0.0515 0.0038 -0.0108 -0.0026
O2T 0.0515 0.0568 0.0356 -0.0026 -0.0108 0.0038
O2LA 0.0356 0.0568 0.0515 -0.0038 -0.0108 0.0026
O2TA 0.0568 0.0356 0.0515 0.0108 -0.0038 -0.0026
O2QF 0.0568 0.0515 0.0356 0.0108 0.0026 0.0038
O2KE 0.0568 0.0356 0.0515 0.0108 0.0038 0.0026
O2PC 0.0515 0.0568 0.0356 0.0026 -0.0108 -0.0038
O2FD 0.0356 0.0568 0.0515 -0.0038 -0.0108 0.0026
O2JE 0.0515 0.0568 0.0356 -0.0026 -0.0108 0.0038
O3JF 0.0797 0.0797 0.0758 0.0056 -0.0056 -0.0158
O3UC 0.0758 0.0797 0.0797 0.0158 -0.0056 -0.0056
O3MA 0.0758 0.0797 0.0797 0.0158 -0.0056 -0.0056
O3DF 0.0797 0.0797 0.0758 0.0056 -0.0056 -0.0158
O3V 0.0797 0.0758 0.0797 0.0056 -0.0158 -0.0056
O3IA 0.0797 0.0758 0.0797 -0.0056 0.0158 -0.0056
O3R 0.0797 0.0797 0.0758 -0.0056 0.0056 -0.0158
O3GF 0.0758 0.0797 0.0797 -0.0158 0.0056 -0.0056
O3GG 0.0758 0.0797 0.0797 -0.0158 0.0056 -0.0056
O3M 0.0797 0.0797 0.0758 -0.0056 0.0056 -0.0158
O3OD 0.0797 0.0758 0.0797 -0.0056 0.0158 -0.0056
O4GA 0.0661 0.0438 0.0438 0.0177 0 0
O4T 0.0438 0.0661 0.0438 0 -0.0177 0
O4TA 0.0661 0.0438 0.0438 0.0177 0 0
O4UC 0.0438 0.0438 0.0661 0 0 -0.0177
O4FD 0.0438 0.0661 0.0438 0 -0.0177 0
O5GA 0.0589 0.0538 0.0538 0.0211 0 0
O5T 0.0538 0.0589 0.0538 0 -0.0211 0
O5TA 0.0589 0.0538 0.0538 0.0211 0 0
O5UC 0.0538 0.0538 0.0589 0 0 -0.0211
O5FD 0.0538 0.0589 0.0538 0 -0.0211 0
loop_
_geom_bond_atom_site_label_1
_geom_bond_atom_site_label_2
_geom_bond_site_symmetry_1
_geom_bond_site_symmetry_2
C1 C3 1_555 1_555
C2 H1 1_555 1_555
C3 C2 1_555 1_555
C4 C3 1_555 1_555
H2 C4 1_555 1_555
C5 C4 1_555 1_555
C6 C7 1_555 1_555
C7 C8 1_555 1_555
C8 H3 1_555 1_555
C9 C8 1_555 1_555
H4 C9 1_555 1_555
C10 C9 1_555 1_555
C13 C10 1_555 1_555
C14 C13 1_555 1_555
H7 C14 1_555 1_555
Cu1 O1 1_555 1_555
Cu2 O2 1_555 1_555
N1 C5 1_555 1_555
H8 N1 1_555 1_555
O1 C1 1_555 1_555
O2 C1 1_555 1_555
O3 C6 1_555 1_555
O4 Cu2 1_555 1_555
O5 Cu1 1_555 1_555
C1ZD C3ZD 1_555 1_555
C1JF C3JF 1_555 1_555
C1XB C3XB 1_555 1_555
C1UC C3UC 1_555 1_555
C1NB C3NB 1_555 1_555
C1MA C3MA 1_555 1_555
C1RF C3RF 1_555 1_555
C1DF C3DF 1_555 1_555
C1DC C3DC 1_555 1_555
C1BE C3BE 1_555 1_555
C1V C3V 1_555 1_555
C1NE C3NE 1_555 1_555
C1IA C3IA 1_555 1_555
C1R C3R 1_555 1_555
C1QD C3QD 1_555 1_555
C1EB C3EB 1_555 1_555
C1GF C3GF 1_555 1_555
C1GG C3GG 1_555 1_555
C1AC C3AC 1_555 1_555
C1M C3M 1_555 1_555
C1VD C3VD 1_555 1_555
C1FC C3FC 1_555 1_555
C1OD C3OD 1_555 1_555
C2JF H1JF 1_555 1_555
C2UC H1UC 1_555 1_555
C2MA H1MA 1_555 1_555
C2DF H1DF 1_555 1_555
C2V H1V 1_555 1_555
C2IA H1IA 1_555 1_555
C2R H1R 1_555 1_555
C2GF H1GF 1_555 1_555
C2GG H1GG 1_555 1_555
C2M H1M 1_555 1_555
C2OD H1OD 1_555 1_555
C3ZD C2 1_555 1_555
C3JF C2JF 1_555 1_555
C3XB C2JF 1_555 1_555
C3UC C2UC 1_555 1_555
C3NB C2UC 1_555 1_555
C3MA C2MA 1_555 1_555
C3RF C2MA 1_555 1_555
C3DF C2DF 1_555 1_555
C3DC C2DF 1_555 1_555
C3BE C2V 1_555 1_555
C3V C2V 1_555 1_555
C3NE C2IA 1_555 1_555
C3IA C2IA 1_555 1_555
C3R C2R 1_555 1_555
C3QD C2R 1_555 1_555
C3EB C2GF 1_555 1_555
C3GF C2GF 1_555 1_555
C3GG C2GG 1_555 1_555
C3AC C2GG 1_555 1_555
C3M C2M 1_555 1_555
C3VD C2M 1_555 1_555
C3FC C2OD 1_555 1_555
C3OD C2OD 1_555 1_555
C4ZD C5 1_555 1_555
C4JF C3JF 1_555 1_555
C4XB C3XB 1_555 1_555
C4UC C3UC 1_555 1_555
C4NB C3NB 1_555 1_555
C4MA C3MA 1_555 1_555
C4RF C3RF 1_555 1_555
C4DF C3DF 1_555 1_555
C4DC C3DC 1_555 1_555
C4BE C3BE 1_555 1_555
C4V C3V 1_555 1_555
C4NE C3NE 1_555 1_555
C4IA C3IA 1_555 1_555
C4R C3R 1_555 1_555
C4QD C3QD 1_555 1_555
C4EB C3EB 1_555 1_555
C4GF C3GF 1_555 1_555
C4GG C3GG 1_555 1_555
C4AC C3AC 1_555 1_555
C4M C3M 1_555 1_555
C4VD C3VD 1_555 1_555
C4FC C3FC 1_555 1_555
C4OD C3OD 1_555 1_555
H2ZD C4ZD 1_555 1_555
H2XB C4XB 1_555 1_555
H2JF C4JF 1_555 1_555
H2NB C4NB 1_555 1_555
H2UC C4UC 1_555 1_555
H2MA C4MA 1_555 1_555
H2RF C4RF 1_555 1_555
H2DC C4DC 1_555 1_555
H2DF C4DF 1_555 1_555
H2V C4V 1_555 1_555
H2BE C4BE 1_555 1_555
H2NE C4NE 1_555 1_555
H2IA C4IA 1_555 1_555
H2QD C4QD 1_555 1_555
H2R C4R 1_555 1_555
H2GF C4GF 1_555 1_555
H2EB C4EB 1_555 1_555
H2GG C4GG 1_555 1_555
H2AC C4AC 1_555 1_555
H2VD C4VD 1_555 1_555
H2M C4M 1_555 1_555
H2OD C4OD 1_555 1_555
H2FC C4FC 1_555 1_555
C5JF C4JF 1_555 1_555
C5UC C4UC 1_555 1_555
C5MA C4MA 1_555 1_555
C5DF C4DF 1_555 1_555
C5V C4BE 1_555 1_555
C5IA C4NE 1_555 1_555
C5R C4R 1_555 1_555
C5GF C4EB 1_555 1_555
C5GG C4GG 1_555 1_555
C5M C4M 1_555 1_555
C5OD C4FC 1_555 1_555
C6JF C7JF 1_555 1_555
C6UC C7UC 1_555 1_555
C6MA C7MA 1_555 1_555
C6DF C7DF 1_555 1_555
C6V C7V 1_555 1_555
C6IA C7IA 1_555 1_555
C6R C7R 1_555 1_555
C6GF C7GF 1_555 1_555
C6GG C7GG 1_555 1_555
C6M C7M 1_555 1_555
C6OD C7OD 1_555 1_555
C7JF C8JF 1_555 1_555
C7UC C8UC 1_555 1_555
C7MA C8MA 1_555 1_555
C7DF C8DF 1_555 1_555
C7V C8BE 1_555 1_555
C7IA C8NE 1_555 1_555
C7R C8R 1_555 1_555
C7GF C8EB 1_555 1_555
C7GG C8GG 1_555 1_555
C7M C8M 1_555 1_555
C7OD C8FC 1_555 1_555
C8ZD C7 1_555 1_555
C8JF H3JF 1_555 1_555
C8XB C7JF 1_555 1_555
C8UC H3UC 1_555 1_555
C8NB C7UC 1_555 1_555
C8MA H3MA 1_555 1_555
C8RF C7MA 1_555 1_555
C8DF H3DF 1_555 1_555
C8DC C7DF 1_555 1_555
C8BE H3BE 1_555 1_555
C8V C7V 1_555 1_555
C8NE H3NE 1_555 1_555
C8IA C7IA 1_555 1_555
C8R H3R 1_555 1_555
C8QD C7R 1_555 1_555
C8EB H3EB 1_555 1_555
C8GF C7GF 1_555 1_555
C8GG H3GG 1_555 1_555
C8AC C7GG 1_555 1_555
C8M H3M 1_555 1_555
C8VD C7M 1_555 1_555
C8FC H3FC 1_555 1_555
C8OD C7OD 1_555 1_555
H3ZD C8ZD 1_555 1_555
H3XB C8XB 1_555 1_555
H3NB C8NB 1_555 1_555
H3RF C8RF 1_555 1_555
H3DC C8DC 1_555 1_555
H3V C8V 1_555 1_555
H3IA C8IA 1_555 1_555
H3QD C8QD 1_555 1_555
H3GF C8GF 1_555 1_555
H3AC C8AC 1_555 1_555
H3VD C8VD 1_555 1_555
H3OD C8OD 1_555 1_555
C9ZD C10 1_555 1_555
C9JF C8JF 1_555 1_555
C9XB C8XB 1_555 1_555
C9UC C8UC 1_555 1_555
C9NB C8NB 1_555 1_555
C9MA C8MA 1_555 1_555
C9RF C8RF 1_555 1_555
C9DF C8DF 1_555 1_555
C9DC C8DC 1_555 1_555
C9BE C8BE 1_555 1_555
C9V C8V 1_555 1_555
C9NE C8NE 1_555 1_555
C9IA C8IA 1_555 1_555
C9R C8R 1_555 1_555
C9QD C8QD 1_555 1_555
C9EB C8EB 1_555 1_555
C9GF C8GF 1_555 1_555
C9GG C8GG 1_555 1_555
C9AC C8AC 1_555 1_555
C9M C8M 1_555 1_555
C9VD C8VD 1_555 1_555
C9FC C8FC 1_555 1_555
C9OD C8OD 1_555 1_555
H4ZD C9ZD 1_555 1_555
H4XB C9XB 1_555 1_555
H4JF C9JF 1_555 1_555
H4NB C9NB 1_555 1_555
H4UC C9UC 1_555 1_555
H4MA C9MA 1_555 1_555
H4RF C9RF 1_555 1_555
H4DC C9DC 1_555 1_555
H4DF C9DF 1_555 1_555
H4V C9V 1_555 1_555
H4BE C9BE 1_555 1_555
H4NE C9NE 1_555 1_555
H4IA C9IA 1_555 1_555
H4QD C9QD 1_555 1_555
H4R C9R 1_555 1_555
H4GF C9GF 1_555 1_555
H4EB C9EB 1_555 1_555
H4GG C9GG 1_555 1_555
H4AC C9AC 1_555 1_555
H4VD C9VD 1_555 1_555
H4M C9M 1_555 1_555
H4OD C9OD 1_555 1_555
H4FC C9FC 1_555 1_555
C10JF C9JF 1_555 1_555
C10UC C9UC 1_555 1_555
C10MA C9MA 1_555 1_555
C10DF C9DF 1_555 1_555
C10V C9BE 1_555 1_555
C10IA C9NE 1_555 1_555
C10R C9R 1_555 1_555
C10GF C9EB 1_555 1_555
C10GG C9GG 1_555 1_555
C10M C9M 1_555 1_555
C10OD C9FC 1_555 1_555
C13JF C14 1_555 1_555
C13UC C10UC 1_555 1_555
C13MA C10MA 1_555 1_555
C13DF C10DF 1_555 1_555
C13V C10V 1_555 1_555
C13IA C10IA 1_555 1_555
C13R C10R 1_555 1_555
C13GF C10GF 1_555 1_555
C13GG C10GG 1_555 1_555
C13M C10M 1_555 1_555
C13OD C10OD 1_555 1_555
C14UC C13JF 1_555 1_555
C14ZD C13 1_555 1_555
C14MA C13MA 1_555 1_555
C14BE C13DF 1_555 1_555
C14V C13MA 1_555 1_555
C14R C13IA 1_555 1_555
C14QD C13R 1_555 1_555
C14IA C13IA 1_555 1_555
C14M C13GG 1_555 1_555
C14VD C13M 1_555 1_555
C14OD C13GG 1_555 1_555
H7ZD C14ZD 1_555 1_555
H7UC C14UC 1_555 1_555
H7MA C14MA 1_555 1_555
H7V C14V 1_555 1_555
H7BE C14BE 1_555 1_555
H7R C14R 1_555 1_555
H7IA C14IA 1_555 1_555
H7QD C14QD 1_555 1_555
H7M C14M 1_555 1_555
H7OD C14OD 1_555 1_555
H7VD C14VD 1_555 1_555
Cu1GA O1ZD 1_555 1_555
Cu1T O1JF 1_555 1_555
Cu1TA O1XB 1_555 1_555
Cu1UC O1UC 1_555 1_555
Cu1FD O1NB 1_555 1_555
Cu1H O1RF 1_555 1_555
Cu1I O1DF 1_555 1_555
Cu1TC O1DC 1_555 1_555
Cu1V O1V 1_555 1_555
Cu1IA O1IA 1_555 1_555
Cu1R O1R 1_555 1_555
Cu1QD O1QD 1_555 1_555
Cu1QA O1GF 1_555 1_555
Cu1F O1AC 1_555 1_555
Cu1K O1M 1_555 1_555
Cu1EA O1VD 1_555 1_555
Cu1SC O1OD 1_555 1_555
Cu2GA O2ZD 1_555 1_555
Cu2T O2JF 1_555 1_555
Cu2TA O2XB 1_555 1_555
Cu2UC O2UC 1_555 1_555
Cu2FD O2NB 1_555 1_555
Cu2H O2RF 1_555 1_555
Cu2I O2DF 1_555 1_555
Cu2TC O2DC 1_555 1_555
Cu2V O2V 1_555 1_555
Cu2IA O2IA 1_555 1_555
Cu2R O2R 1_555 1_555
Cu2QD O2QD 1_555 1_555
Cu2QA O2GF 1_555 1_555
Cu2F O2AC 1_555 1_555
Cu2K O2M 1_555 1_555
Cu2EA O2VD 1_555 1_555
Cu2SC O2OD 1_555 1_555
N1JF C5JF 1_555 1_555
N1UC C5UC 1_555 1_555
N1MA C5MA 1_555 1_555
N1DF C5DF 1_555 1_555
N1V C5V 1_555 1_555
N1IA C5IA 1_555 1_555
N1R C5R 1_555 1_555
N1GF C5GF 1_555 1_555
N1GG C5GG 1_555 1_555
N1M C5M 1_555 1_555
N1OD C5OD 1_555 1_555
H8JF N1JF 1_555 1_555
H8UC N1UC 1_555 1_555
H8MA N1MA 1_555 1_555
H8DF N1DF 1_555 1_555
H8V N1V 1_555 1_555
H8IA N1IA 1_555 1_555
H8R N1R 1_555 1_555
H8GF N1GF 1_555 1_555
H8GG N1GG 1_555 1_555
H8M N1M 1_555 1_555
H8OD N1OD 1_555 1_555
O1ZD C1ZD 1_555 1_555
O1JF C1JF 1_555 1_555
O1XB C1XB 1_555 1_555
O1UC C1UC 1_555 1_555
O1NB C1NB 1_555 1_555
O1MA Cu1 1_555 1_555
O1RF C1RF 1_555 1_555
O1DF C1DF 1_555 1_555
O1DC C1DC 1_555 1_555
O1BE C1BE 1_555 1_555
O1V C1V 1_555 1_555
O1NE Cu1 1_555 1_555
O1IA C1IA 1_555 1_555
O1R C1R 1_555 1_555
O1QD C1QD 1_555 1_555
O1EB C1EB 1_555 1_555
O1GF C1GF 1_555 1_555
O1GG Cu1 1_555 1_555
O1AC C1AC 1_555 1_555
O1M C1M 1_555 1_555
O1VD C1VD 1_555 1_555
O1FC C1FC 1_555 1_555
O1OD C1OD 1_555 1_555
O1BG Cu1GA 1_555 1_555
O1GA Cu1GA 1_555 1_555
O1KC Cu1GA 1_555 1_555
O1DG Cu1T 1_555 1_555
O1T Cu1T 1_555 1_555
O1LA Cu1T 1_555 1_555
O1TA Cu1TA 1_555 1_555
O1QF Cu1TA 1_555 1_555
O1KE Cu1TA 1_555 1_555
O1PC Cu1FD 1_555 1_555
O1FD Cu1FD 1_555 1_555
O1JE Cu1FD 1_555 1_555
O2ZD C1ZD 1_555 1_555
O2JF C1JF 1_555 1_555
O2XB C1XB 1_555 1_555
O2UC C1UC 1_555 1_555
O2NB C1NB 1_555 1_555
O2MA Cu2 1_555 1_555
O2RF C1RF 1_555 1_555
O2DF C1DF 1_555 1_555
O2DC C1DC 1_555 1_555
O2BE C1BE 1_555 1_555
O2V C1V 1_555 1_555
O2NE Cu2 1_555 1_555
O2IA C1IA 1_555 1_555
O2R C1R 1_555 1_555
O2QD C1QD 1_555 1_555
O2EB C1EB 1_555 1_555
O2GF C1GF 1_555 1_555
O2GG Cu2 1_555 1_555
O2AC C1AC 1_555 1_555
O2M C1M 1_555 1_555
O2VD C1VD 1_555 1_555
O2FC C1FC 1_555 1_555
O2OD C1OD 1_555 1_555
O2BG Cu2GA 1_555 1_555
O2GA Cu2GA 1_555 1_555
O2KC Cu2GA 1_555 1_555
O2DG Cu2T 1_555 1_555
O2T Cu2T 1_555 1_555
O2LA Cu2T 1_555 1_555
O2TA Cu2TA 1_555 1_555
O2QF Cu2TA 1_555 1_555
O2KE Cu2TA 1_555 1_555
O2PC Cu2FD 1_555 1_555
O2FD Cu2FD 1_555 1_555
O2JE Cu2FD 1_555 1_555
O3JF C6JF 1_555 1_555
O3UC C6UC 1_555 1_555
O3MA C6MA 1_555 1_555
O3DF C6DF 1_555 1_555
O3V C6V 1_555 1_555
O3IA C6IA 1_555 1_555
O3R C6R 1_555 1_555
O3GF C6GF 1_555 1_555
O3GG C6GG 1_555 1_555
O3M C6M 1_555 1_555
O3OD C6OD 1_555 1_555
O4GA Cu2GA 1_555 1_555
O4T Cu2T 1_555 1_555
O4TA Cu2TA 1_555 1_555
O4UC Cu2UC 1_555 1_555
O4FD Cu2FD 1_555 1_555
O5GA Cu1GA 1_555 1_555
O5T Cu1T 1_555 1_555
O5TA Cu1TA 1_555 1_555
O5UC Cu1UC 1_555 1_555
O5FD Cu1FD 1_555 1_555
C6 N1 1_555 1_555
C1MA O1MA 1_555 1_555
C1MA O2MA 1_555 1_555
C1NE O1NE 1_555 1_555
C1NE O2NE 1_555 1_555
C1GG O1GG 1_555 1_555
C1GG O2GG 1_555 1_555
C3ZD C4ZD 1_555 1_555
C4XB C5JF 1_555 1_555
C4NB C5UC 1_555 1_555
C4RF C5MA 1_555 1_555
C4DC C5DF 1_555 1_555
C4V C5V 1_555 1_555
C4IA C5IA 1_555 1_555
C4QD C5R 1_555 1_555
C4GF C5GF 1_555 1_555
C4AC C5GG 1_555 1_555
C4VD C5M 1_555 1_555
C4OD C5OD 1_555 1_555
C6JF N1JF 1_555 1_555
C6UC N1UC 1_555 1_555
C6MA N1MA 1_555 1_555
C6DF N1DF 1_555 1_555
C6V N1V 1_555 1_555
C6IA N1IA 1_555 1_555
C6R N1R 1_555 1_555
C6GF N1GF 1_555 1_555
C6GG N1GG 1_555 1_555
C6M N1M 1_555 1_555
C6OD N1OD 1_555 1_555
C8ZD C9ZD 1_555 1_555
C9XB C10JF 1_555 1_555
C9NB C10UC 1_555 1_555
C9RF C10MA 1_555 1_555
C9DC C10DF 1_555 1_555
C9V C10V 1_555 1_555
C9IA C10IA 1_555 1_555
C9QD C10R 1_555 1_555
C9GF C10GF 1_555 1_555
C9AC C10GG 1_555 1_555
C9VD C10M 1_555 1_555
C9OD C10OD 1_555 1_555
C10JF C13JF 1_555 1_555
C13UC C14UC 1_555 1_555
C13UC C14ZD 1_555 1_555
C13DF C14MA 1_555 1_555
C13V C14BE 1_555 1_555
C13V C14V 1_555 1_555
C13R C14R 1_555 1_555
C13GF C14QD 1_555 1_555
C13GF C14IA 1_555 1_555
C13M C14M 1_555 1_555
C13OD C14VD 1_555 1_555
C13OD C14OD 1_555 1_555
Cu1UC O1BE 1_555 1_555
Cu1UC O1EB 1_555 1_555
Cu1UC O1FC 1_555 1_555
Cu2UC O2BE 1_555 1_555
Cu2UC O2EB 1_555 1_555
Cu2UC O2FC 1_555 1_555

#END
