
#######################################################################
#
#                 Cambridge Crystallographic Data Centre
#                                CCDC 
#
#######################################################################
#
# If this CIF has been generated from an entry in the Cambridge 
# Structural Database, then it will include bibliographic, chemical, 
# crystal, experimental, refinement or atomic coordinate data resulting 
# from the CCDC's data processing and validation procedures.
#
#######################################################################

data_EGATEM
_chemical_formula_moiety         '(C62 H42 Co1 N2 O14 Zn2)n'
_symmetry_cell_setting           orthorhombic
_symmetry_space_group_name_H-M   'P n m a'
_symmetry_Int_Tables_number      62
_space_group_name_Hall           '-P 2ac 2n'
loop_
_symmetry_equiv_pos_site_id
_symmetry_equiv_pos_as_xyz
1 x,y,z
2 1/2+x,1/2-y,1/2-z
3 -x,1/2+y,-z
4 1/2-x,-y,1/2+z
5 -x,-y,-z
6 1/2-x,1/2+y,1/2+z
7 x,1/2-y,z
8 1/2+x,y,1/2-z
_cell_length_a                   16.9892(3)
_cell_length_b                   20.6271(4)
_cell_length_c                   25.8309(5)
_cell_angle_alpha                90
_cell_angle_beta                 90
_cell_angle_gamma                90
_cell_volume                     9052.13
loop_
_atom_site_label
_atom_site_type_symbol
_atom_site_fract_x
_atom_site_fract_y
_atom_site_fract_z
Zn1 Zn 0.51532(3) 0.16105(3) 0.11853(2)
Co1 Co 0.63153(5) 0.2500 0.18866(3)
O1 O 0.52221(19) 0.2500 0.14885(14)
O2 O 0.08761(16) 0.66187(16) 0.58640(12)
O3 O 0.04884(19) 0.56597(19) 0.56012(16)
O4 O 0.51171(17) 0.38993(16) 0.18267(11)
O5 O 0.58176(17) 0.32228(16) 0.23409(11)
O6 O 0.89131(15) 0.65637(15) 0.57551(11)
O7 O 0.81611(16) 0.67897(16) 0.64404(12)
N1 N 0.7289(2) 0.2500 0.24024(19)
C1 C 0.0995(2) 0.6091(3) 0.56240(19)
C2 C 0.1779(2) 0.6015(2) 0.53702(17)
C3 C 0.1962(2) 0.5479(2) 0.5084(2)
H1 H 0.1583 0.5159 0.5037
C4 C 0.2693(2) 0.5400(2) 0.48622(19)
H2 H 0.2801 0.5031 0.4669
C5 C 0.3277(2) 0.5877(2) 0.49265(18)
C6 C 0.3088(2) 0.6427(2) 0.52147(17)
H3 H 0.3461 0.6753 0.5258
C7 C 0.2355(2) 0.6495(2) 0.54367(18)
H4 H 0.2241 0.6862 0.5632
C8 C 0.4081(2) 0.5791(2) 0.47075(18)
C9 C 0.4197(2) 0.5464(2) 0.42430(17)
H5 H 0.3763 0.5321 0.4055
C10 C 0.4950(2) 0.5346(2) 0.4056(2)
C11 C 0.5591(2) 0.5572(2) 0.43380(17)
H6 H 0.6096 0.5494 0.4215
C12 C 0.5495(2) 0.5913(2) 0.48006(17)
C13 C 0.4734(2) 0.6004(2) 0.49863(19)
H7 H 0.4659 0.6211 0.5302
C14 C 0.5082(2) 0.4967(3) 0.35770(18)
C15 C 0.4583(3) 0.5008(3) 0.31436(17)
H8 H 0.4165 0.5300 0.3148
C16 C 0.4697(2) 0.4632(2) 0.27187(18)
H9 H 0.4366 0.4679 0.2435
C17 C 0.5304(2) 0.4178(2) 0.27020(17)
C18 C 0.5810(3) 0.4134(3) 0.31340(18)
H10 H 0.6223 0.3838 0.3130
C19 C 0.5703(2) 0.4520(3) 0.35566(18)
H11 H 0.6047 0.4486 0.3836
C20 C 0.5421(2) 0.3736(2) 0.22517(17)
C21 C 0.6188(2) 0.6119(2) 0.51003(17)
C22 C 0.6895(2) 0.6289(3) 0.48552(19)
H12 H 0.6916 0.6300 0.4496
C23 C 0.7558(2) 0.6439(2) 0.51363(18)
H13 H 0.8028 0.6525 0.4965
C24 C 0.7530(2) 0.6465(2) 0.56702(17)
C25 C 0.6836(2) 0.6316(2) 0.59188(17)
H14 H 0.6814 0.6331 0.6278
C26 C 0.6171(2) 0.6143(2) 0.56403(18)
H15 H 0.5708 0.6042 0.5815
C27 C 0.8244(2) 0.6617(2) 0.59800(18)
C28 C 0.7556(2) 0.3056(3) 0.26045(17)
H16 H 0.7405 0.3446 0.2452
C29 C 0.8047(2) 0.3075(3) 0.30294(19)
H17 H 0.8214 0.3468 0.3166
C30 C 0.8282(3) 0.2500 0.3246(3)
H18 H 0.8600 0.2500 0.3538
Zn1F Zn 0.51532(3) 0.33895(3) 0.11853(2)
Zn1E Zn -0.01532(3) 0.66105(3) 0.61853(2)
Zn1E_2 Zn 0.98468(3) 0.66105(3) 0.61853(2)
Zn1C Zn -0.01532(3) -0.16105(3) 0.61853(2)
Zn1C_2 Zn 0.98468(3) -0.16105(3) 0.61853(2)
Co1E Co 0.86847(5) 0.7500 0.68866(3)
Co1E_2 Co 0.86847(5) -0.2500 0.68866(3)
O2F O 0.08761(16) -0.16187(16) 0.58640(12)
O2E O 0.41239(16) 0.16187(16) 0.08640(12)
O2C O 0.41239(16) 0.33813(16) 0.08640(12)
O3F O 0.04884(19) -0.06597(19) 0.56012(16)
O4F O 0.51171(17) 0.11007(16) 0.18267(11)
O5F O 0.58176(17) 0.17772(16) 0.23409(11)
O6F O 0.89131(15) -0.15637(15) 0.57551(11)
O6E O 0.60869(15) 0.15637(15) 0.07551(11)
O6C O 0.60869(15) 0.34363(15) 0.07551(11)
O7F O 0.81611(16) -0.17897(16) 0.64404(12)
O7E O 0.68389(16) 0.17897(16) 0.14404(12)
O7C O 0.68389(16) 0.32103(16) 0.14404(12)
C1F C 0.0995(2) -0.1091(3) 0.56240(19)
C2F C 0.1779(2) -0.1015(2) 0.53702(17)
C3F C 0.1962(2) -0.0479(2) 0.5084(2)
H1F H 0.1583 -0.0159 0.5037
C4F C 0.2693(2) -0.0400(2) 0.48622(19)
H2F H 0.2801 -0.0031 0.4669
C5F C 0.3277(2) -0.0877(2) 0.49265(18)
C6F C 0.3088(2) -0.1427(2) 0.52147(17)
H3F H 0.3461 -0.1753 0.5258
C7F C 0.2355(2) -0.1495(2) 0.54367(18)
H4F H 0.2241 -0.1862 0.5632
C8F C 0.4081(2) -0.0791(2) 0.47075(18)
C9F C 0.4197(2) -0.0464(2) 0.42430(17)
H5F H 0.3763 -0.0321 0.4055
C10F C 0.4950(2) -0.0346(2) 0.4056(2)
C11F C 0.5591(2) -0.0572(2) 0.43380(17)
H6F H 0.6096 -0.0494 0.4215
C12F C 0.5495(2) -0.0913(2) 0.48006(17)
C13F C 0.4734(2) -0.1004(2) 0.49863(19)
H7F H 0.4659 -0.1211 0.5302
C14F C 0.5082(2) 0.0033(3) 0.35770(18)
C15F C 0.4583(3) -0.0008(3) 0.31436(17)
H8F H 0.4165 -0.0300 0.3148
C16F C 0.4697(2) 0.0368(2) 0.27187(18)
H9F H 0.4366 0.0321 0.2435
C17F C 0.5304(2) 0.0822(2) 0.27020(17)
C18F C 0.5810(3) 0.0866(3) 0.31340(18)
H10F H 0.6223 0.1162 0.3130
C19F C 0.5703(2) 0.0480(3) 0.35566(18)
H11F H 0.6047 0.0514 0.3836
C20F C 0.5421(2) 0.1264(2) 0.22517(17)
C21F C 0.6188(2) -0.1119(2) 0.51003(17)
C22F C 0.6895(2) -0.1289(3) 0.48552(19)
H12F H 0.6916 -0.1300 0.4496
C23F C 0.7558(2) -0.1439(2) 0.51363(18)
H13F H 0.8028 -0.1525 0.4965
C24F C 0.7530(2) -0.1465(2) 0.56702(17)
C25F C 0.6836(2) -0.1316(2) 0.59188(17)
H14F H 0.6814 -0.1331 0.6278
C26F C 0.6171(2) -0.1143(2) 0.56403(18)
H15F H 0.5708 -0.1042 0.5815
C27F C 0.8244(2) -0.1617(2) 0.59800(18)
C28F C 0.7556(2) 0.1944(3) 0.26045(17)
H16F H 0.7405 0.1554 0.2452
C29F C 0.8047(2) 0.1925(3) 0.30294(19)
H17F H 0.8214 0.1532 0.3166
O8 O 0.0325(3) 0.2500 0.04156(18)
N2 N 0.0077(3) 0.2500 0.1272(2)
C31 C -0.0131(4) 0.2500 0.0766(3)
H19 H -0.0665 0.2500 0.0686
C32 C 0.0897(4) 0.2500 0.1403(3)
H21 H 0.1080 0.2061 0.1432
C33 C -0.0507(5) 0.2500 0.1684(3)
H23 H -0.0636 0.2939 0.1775
H21F H 0.1080 0.2939 0.1432
H23F H -0.0636 0.2061 0.1775
loop_
_geom_bond_atom_site_label_1
_geom_bond_atom_site_label_2
_geom_bond_site_symmetry_1
_geom_bond_site_symmetry_2
Zn1 O1 1_555 1_555
Co1 O1 1_555 1_555
O1 Zn1F 1_555 1_555
O2 C1 1_555 1_555
O3 C1 1_555 1_555
O4 C20 1_555 1_555
O5 Co1 1_555 1_555
O6 C27 1_555 1_555
O7 C27 1_555 1_555
O8 C31 1_555 1_555
N1 Co1 1_555 1_555
N2 C31 1_555 1_555
C1 C2 1_555 1_555
C2 C3 1_555 1_555
C3 H1 1_555 1_555
C4 C3 1_555 1_555
H2 C4 1_555 1_555
C5 C4 1_555 1_555
C6 C5 1_555 1_555
H3 C6 1_555 1_555
C7 C2 1_555 1_555
H4 C7 1_555 1_555
C8 C5 1_555 1_555
C9 C8 1_555 1_555
H5 C9 1_555 1_555
C10 C9 1_555 1_555
C11 C10 1_555 1_555
H6 C11 1_555 1_555
C12 C11 1_555 1_555
C13 C8 1_555 1_555
H7 C13 1_555 1_555
C14 C10 1_555 1_555
C15 C14 1_555 1_555
H8 C15 1_555 1_555
C16 C15 1_555 1_555
H9 C16 1_555 1_555
C17 C16 1_555 1_555
C18 C17 1_555 1_555
H10 C18 1_555 1_555
C19 C14 1_555 1_555
H11 C19 1_555 1_555
C20 O5 1_555 1_555
C21 C12 1_555 1_555
C22 C21 1_555 1_555
H12 C22 1_555 1_555
C23 C22 1_555 1_555
H13 C23 1_555 1_555
C24 C23 1_555 1_555
C25 C24 1_555 1_555
H14 C25 1_555 1_555
C26 C21 1_555 1_555
H15 C26 1_555 1_555
C27 C24 1_555 1_555
C28 N1 1_555 1_555
H16 C28 1_555 1_555
C29 C28 1_555 1_555
H17 C29 1_555 1_555
C30 C29 1_555 1_555
H18 C30 1_555 1_555
C31 H19 1_555 1_555
C32 N2 1_555 1_555
H21 C32 1_555 1_555
C33 N2 1_555 1_555
H23 C33 1_555 1_555
Zn1F O4 1_555 1_555
Zn1E O2 1_555 1_555
Zn1E_2 O6 1_555 1_555
Zn1C O2F 1_555 1_555
Zn1C_2 O6F 1_555 1_555
Co1E O7 1_555 1_555
Co1E_2 O7F 1_555 1_555
O2F C1F 1_555 1_555
O2E Zn1 1_555 1_555
O2C Zn1F 1_555 1_555
O3F C1F 1_555 1_555
O4F Zn1 1_555 1_555
O5F Co1 1_555 1_555
O6F C27F 1_555 1_555
O6E Zn1 1_555 1_555
O6C Zn1F 1_555 1_555
O7F C27F 1_555 1_555
O7E Co1 1_555 1_555
O7C Co1 1_555 1_555
C1F C2F 1_555 1_555
C2F C3F 1_555 1_555
C3F H1F 1_555 1_555
C4F C3F 1_555 1_555
H2F C4F 1_555 1_555
C5F C4F 1_555 1_555
C6F C5F 1_555 1_555
H3F C6F 1_555 1_555
C7F C2F 1_555 1_555
H4F C7F 1_555 1_555
C8F C5F 1_555 1_555
C9F C8F 1_555 1_555
H5F C9F 1_555 1_555
C10F C9F 1_555 1_555
C11F C10F 1_555 1_555
H6F C11F 1_555 1_555
C12F C11F 1_555 1_555
C13F C8F 1_555 1_555
H7F C13F 1_555 1_555
C14F C10F 1_555 1_555
C15F C14F 1_555 1_555
H8F C15F 1_555 1_555
C16F C15F 1_555 1_555
H9F C16F 1_555 1_555
C17F C16F 1_555 1_555
C18F C17F 1_555 1_555
H10F C18F 1_555 1_555
C19F C14F 1_555 1_555
H11F C19F 1_555 1_555
C20F O4F 1_555 1_555
C21F C12F 1_555 1_555
C22F C21F 1_555 1_555
H12F C22F 1_555 1_555
C23F C22F 1_555 1_555
H13F C23F 1_555 1_555
C24F C23F 1_555 1_555
C25F C24F 1_555 1_555
H14F C25F 1_555 1_555
C26F C21F 1_555 1_555
H15F C26F 1_555 1_555
C27F C24F 1_555 1_555
C28F N1 1_555 1_555
H16F C28F 1_555 1_555
C29F C30 1_555 1_555
H17F C29F 1_555 1_555
H21F C32 1_555 1_555
H23F C33 1_555 1_555
C6 C7 1_555 1_555
C12 C13 1_555 1_555
C17 C20 1_555 1_555
C18 C19 1_555 1_555
C25 C26 1_555 1_555
O5F C20F 1_555 1_555
C6F C7F 1_555 1_555
C12F C13F 1_555 1_555
C17F C20F 1_555 1_555
C18F C19F 1_555 1_555
C25F C26F 1_555 1_555
C28F C29F 1_555 1_555

#END
