
#######################################################################
#
#                 Cambridge Crystallographic Data Centre
#                                CCDC 
#
#######################################################################
#
# If this CIF has been generated from an entry in the Cambridge 
# Structural Database, then it will include bibliographic, chemical, 
# crystal, experimental, refinement or atomic coordinate data resulting 
# from the CCDC's data processing and validation procedures.
#
#######################################################################

data_EGATOW
_chemical_formula_moiety         '(C15 H15 Co1 N1 O10 S1 Zn1)n'
_symmetry_cell_setting           tetragonal
_symmetry_space_group_name_H-M   'P 42 b c'
_symmetry_Int_Tables_number      106
_space_group_name_Hall           'P 4c -2ab'
loop_
_symmetry_equiv_pos_site_id
_symmetry_equiv_pos_as_xyz
1 x,y,z
2 -y,x,1/2+z
3 -x,-y,z
4 y,-x,1/2+z
5 1/2-x,1/2+y,z
6 1/2+y,1/2+x,1/2+z
7 1/2+x,1/2-y,z
8 1/2-y,1/2-x,1/2+z
_cell_length_a                   18.7107(3)
_cell_length_b                   18.7107(3)
_cell_length_c                   11.7603(2)
_cell_angle_alpha                90
_cell_angle_beta                 90
_cell_angle_gamma                90
_cell_volume                     4117.17
loop_
_atom_site_label
_atom_site_type_symbol
_atom_site_fract_x
_atom_site_fract_y
_atom_site_fract_z
_atom_site_U_iso_or_equiv
_atom_site_thermal_displace_type
Zn1 Zn 0.71429(7) 0.21838(7) 0.35614(17) 0.0229 Uani
Co1 Co 0.84611(8) 0.17832(8) 0.18206(19) 0.0210 Uani
S1 S 0.96935(18) 0.28592(19) 0.1597(3) 0.0469 Uani
O1 O 0.8129(4) 0.2851(4) 0.1732(9) 0.0340 Uani
O2 O 0.7080(4) 0.3048(5) 0.2596(8) 0.0350 Uani
O3 O 0.7226(5) 0.2910(4) -0.0312(8) 0.0363 Uani
O4 O 0.6947(5) 0.3774(4) -0.1531(9) 0.0423 Uani
O5 O 0.7925(5) 0.6205(5) -0.0730(7) 0.0323 Uani
O6 O 0.6979(4) 0.6546(4) 0.0287(7) 0.0300 Uani
O7 O 0.7626(5) 0.6456(4) 0.2402(7) 0.0343 Uani
O8 O 0.8004(7) 0.5646(5) 0.3612(10) 0.0683 Uani
O9 O 0.8879(4) 0.0746(4) 0.1925(9) 0.0390 Uani
O10 O 0.9438(4) 0.2126(4) 0.1223(8) 0.0303 Uani
N1 N 0.9137(6) -0.0282(6) 0.2870(11) 0.0497 Uani
C1 C 0.7591(5) 0.3217(5) 0.1899(11) 0.0220 Uiso
C2 C 0.7542(5) 0.3953(5) 0.1406(9) 0.0180 Uiso
C3 C 0.7380(6) 0.4113(6) 0.0285(10) 0.0250 Uiso
C4 C 0.7379(6) 0.4820(6) -0.0119(11) 0.0310 Uiso
H1 H 0.7283 0.4913 -0.0898 0.0370 Uiso
C5 C 0.7518(6) 0.5376(6) 0.0610(10) 0.0230 Uiso
C6 C 0.7668(5) 0.5245(5) 0.1771(12) 0.0280 Uiso
C7 C 0.7681(6) 0.4530(6) 0.2129(11) 0.0310 Uiso
H2 H 0.7790 0.4433 0.2902 0.0370 Uiso
C8 C 0.7179(5) 0.3552(6) -0.0577(9) 0.0190 Uiso
C9 C 0.7482(6) 0.6106(6) 0.0075(10) 0.0260 Uiso
C10 C 0.7792(7) 0.5801(7) 0.2667(12) 0.0360 Uiso
C11 C 0.8936(6) 0.0385(7) 0.2810(12) 0.0393 Uani
H3 H 0.8823 0.0616 0.3506 0.0470 Uiso
C12 C 0.9288(8) -0.0681(7) 0.1811(17) 0.0600 Uani
H4 H 0.9456 -0.0349 0.1225 0.0720 Uiso
H5 H 0.8851 -0.0917 0.1549 0.0720 Uiso
H6 H 0.9657 -0.1041 0.1958 0.0720 Uiso
C13 C 0.9147(8) -0.0669(10) 0.3925(15) 0.0673 Uani
H7 H 0.9051 -0.1176 0.3778 0.0810 Uiso
H8 H 0.8779 -0.0477 0.4434 0.0810 Uiso
H9 H 0.9617 -0.0619 0.4283 0.0810 Uiso
C14 C 1.0650(7) 0.2831(8) 0.1349(15) 0.0567 Uani
H10 H 1.0752 0.2509 0.0712 0.0680 Uiso
H11 H 1.0892 0.2657 0.2033 0.0680 Uiso
H12 H 1.0822 0.3312 0.1167 0.0680 Uiso
C15 C 0.9470(9) 0.3464(8) 0.0511(13) 0.0540 Uani
H13 H 0.9866 0.3498 -0.0030 0.0650 Uiso
H14 H 0.9378 0.3936 0.0842 0.0650 Uiso
H15 H 0.9040 0.3296 0.0116 0.0650 Uiso
Zn1E Zn 0.71838(7) 0.21429(7) -0.14386(17) 0.0229 Uani
Zn1A Zn 0.78162(7) 0.71429(7) -0.14386(17) 0.0229 Uani
Zn1D Zn 0.78571(7) 0.71838(7) 0.35614(17) 0.0229 Uani
Co1E Co 0.67832(8) 0.34611(8) -0.31794(19) 0.0210 Uani
Co1D Co 0.65389(8) 0.67832(8) 0.18206(19) 0.0210 Uani
O3E O 0.7910(4) 0.2226(5) 0.4688(8) 0.0363 Uani
O4E O 0.8774(4) 0.1947(5) 0.3469(9) 0.0423 Uani
O5C O 0.6205(5) 0.2075(5) 0.4270(7) 0.0323 Uani
O6D O 0.8021(4) 0.1546(4) 0.0287(7) 0.0300 Uani
O7D O 0.7374(5) 0.1456(4) 0.2402(7) 0.0343 Uani
loop_
_atom_site_aniso_label
_atom_site_aniso_U_11
_atom_site_aniso_U_22
_atom_site_aniso_U_33
_atom_site_aniso_U_23
_atom_site_aniso_U_13
_atom_site_aniso_U_12
Zn1 0.0246(7) 0.0263(7) 0.0179(7) -0.0016(7) 0.0020(7) -0.0001(6)
Co1 0.0225(8) 0.0226(9) 0.0179(9) -0.0020(9) -0.0001(9) -0.0002(6)
S1 0.0449(18) 0.0478(19) 0.048(2) -0.0013(17) 0.0019(17) -0.0043(15)
O1 0.027(4) 0.023(4) 0.052(6) 0.004(4) 0.006(4) 0.002(3)
O2 0.030(4) 0.034(5) 0.041(6) 0.000(4) 0.010(4) 0.000(4)
O3 0.051(6) 0.036(5) 0.022(5) 0.002(4) -0.015(4) -0.010(4)
O4 0.056(5) 0.032(4) 0.039(6) -0.004(5) 0.004(5) -0.011(4)
O5 0.040(5) 0.029(5) 0.028(5) 0.004(3) 0.007(4) -0.006(4)
O6 0.040(5) 0.023(4) 0.027(5) -0.005(4) 0.003(4) 0.001(3)
O7 0.040(5) 0.033(5) 0.030(5) -0.001(4) 0.003(4) -0.001(4)
O8 0.137(10) 0.036(5) 0.032(6) 0.005(5) -0.043(7) -0.001(6)
O9 0.027(4) 0.042(5) 0.048(6) 0.017(5) 0.003(4) 0.005(3)
O10 0.020(4) 0.031(4) 0.040(5) -0.006(4) 0.008(4) 0.011(3)
N1 0.051(7) 0.032(6) 0.066(9) 0.016(6) -0.005(6) 0.001(5)
C11 0.035(7) 0.043(8) 0.040(9) -0.009(7) 0.005(6) -0.003(6)
C12 0.058(9) 0.039(7) 0.083(12) 0.020(10) -0.009(11) -0.012(6)
C13 0.039(9) 0.080(12) 0.083(15) 0.040(10) -0.005(8) 0.002(8)
C14 0.041(8) 0.059(9) 0.070(13) 0.004(8) -0.006(7) -0.017(7)
C15 0.062(10) 0.054(9) 0.046(10) 0.003(8) 0.006(8) 0.008(7)
Zn1E 0.0263 0.0246 0.0179 0.002 -0.0016 -0.0001
Zn1A 0.0263 0.0246 0.0179 0.002 0.0016 0.0001
Zn1D 0.0246 0.0263 0.0179 -0.0016 -0.002 0.0001
Co1E 0.0226 0.0225 0.0179 -0.0001 -0.002 -0.0002
Co1D 0.0225 0.0226 0.0179 -0.002 0.0001 0.0002
O3E 0.036 0.051 0.022 -0.015 0.002 -0.01
O4E 0.032 0.056 0.039 0.004 -0.004 -0.011
O5C 0.029 0.04 0.028 -0.007 0.004 0.006
O6D 0.04 0.023 0.027 -0.005 -0.003 -0.001
O7D 0.04 0.033 0.03 -0.001 -0.003 0.001
loop_
_geom_bond_atom_site_label_1
_geom_bond_atom_site_label_2
_geom_bond_site_symmetry_1
_geom_bond_site_symmetry_2
Zn1 O2 1_555 1_555
Co1 O1 1_555 1_555
S1 O10 1_555 1_555
O1 C1 1_555 1_555
O2 C1 1_555 1_555
O3 C8 1_555 1_555
O4 C8 1_555 1_555
O5 C9 1_555 1_555
O6 C9 1_555 1_555
O7 C10 1_555 1_555
O8 C10 1_555 1_555
O9 Co1 1_555 1_555
O10 Co1 1_555 1_555
N1 C11 1_555 1_555
C1 C2 1_555 1_555
C2 C3 1_555 1_555
C3 C4 1_555 1_555
C4 H1 1_555 1_555
C5 C4 1_555 1_555
C6 C5 1_555 1_555
C7 C2 1_555 1_555
H2 C7 1_555 1_555
C8 C3 1_555 1_555
C9 C5 1_555 1_555
C10 C6 1_555 1_555
C11 O9 1_555 1_555
H3 C11 1_555 1_555
C12 N1 1_555 1_555
H4 C12 1_555 1_555
H5 C12 1_555 1_555
H6 C12 1_555 1_555
C13 N1 1_555 1_555
H7 C13 1_555 1_555
H8 C13 1_555 1_555
H9 C13 1_555 1_555
C14 S1 1_555 1_555
H10 C14 1_555 1_555
H11 C14 1_555 1_555
H12 C14 1_555 1_555
C15 S1 1_555 1_555
H13 C15 1_555 1_555
H14 C15 1_555 1_555
H15 C15 1_555 1_555
Zn1E O3 1_555 1_555
Zn1A O5 1_555 1_555
Zn1D O7 1_555 1_555
Co1E O4 1_555 1_555
Co1D O6 1_555 1_555
O3E Zn1 1_555 1_555
O4E Co1 1_555 1_555
O5C Zn1 1_555 1_555
O6D Co1 1_555 1_555
O7D Zn1 1_555 1_555
Co1 O7D 1_555 1_555
O7 Co1D 1_555 1_555
C6 C7 1_555 1_555

#END
