
#######################################################################
#
#                 Cambridge Crystallographic Data Centre
#                                CCDC 
#
#######################################################################
#
# If this CIF has been generated from an entry in the Cambridge 
# Structural Database, then it will include bibliographic, chemical, 
# crystal, experimental, refinement or atomic coordinate data resulting 
# from the CCDC's data processing and validation procedures.
#
#######################################################################

data_NUCREJ
_chemical_formula_moiety         '(C20 H22 N8 O12 Zn3)n'
_symmetry_cell_setting           trigonal
_symmetry_space_group_name_H-M   'P 32 2 1'
_symmetry_Int_Tables_number      154
_space_group_name_Hall           'P 32 2"'
loop_
_symmetry_equiv_pos_site_id
_symmetry_equiv_pos_as_xyz
1 x,y,z
2 -y,x-y,2/3+z
3 -x+y,-x,1/3+z
4 x-y,-y,1/3-z
5 -x,-x+y,2/3-z
6 y,x,-z
_cell_length_a                   11.321(2)
_cell_length_b                   11.321(2)
_cell_length_c                   19.872(3)
_cell_angle_alpha                90
_cell_angle_beta                 90
_cell_angle_gamma                120
_cell_volume                     2205.68
loop_
_atom_site_label
_atom_site_type_symbol
_atom_site_fract_x
_atom_site_fract_y
_atom_site_fract_z
Zn1 Zn 0.88985(9) 0.29823(9) 0.22174(4)
Zn2 Zn 0.37823(17) 0.37823(17) 0.5000
C1 C 0.8320(8) 0.5125(8) 0.2776(4)
H1 H 0.8425 0.5525 0.2355
C2 C 0.8077(8) 0.5586(9) 0.3343(4)
H2 H 0.7970 0.6345 0.3389
C3 C 0.8200(7) 0.3755(7) 0.3551(3)
C4 C 0.8133(8) 0.2598(7) 0.3900(3)
C5 C 0.8654(9) 0.1247(11) 0.4436(5)
H3 H 0.9131 0.0922 0.4683
C6 C 0.7375(9) 0.0489(10) 0.4220(5)
H4 H 0.6816 -0.0445 0.4283
C7 C 0.5694(10) 0.0945(9) 0.3647(4)
H5 H 0.5322 0.0071 0.3422
H6 H 0.5777 0.1610 0.3315
C8 C 0.4701(8) 0.0841(8) 0.4182(3)
C9 C 0.7759(8) 0.4824(8) 0.4549(4)
H7 H 0.8500 0.5703 0.4692
H8 H 0.7908 0.4148 0.4772
N1 N 0.8392(6) 0.3988(6) 0.2900(3)
N2 N 0.8015(5) 0.4724(6) 0.3853(3)
N3 N 0.9170(7) 0.2595(7) 0.4237(3)
N4 N 0.7035(6) 0.1328(7) 0.3893(3)
O1 O 0.5169(6) 0.1116(6) 0.4780(2)
O2 O 0.3545(7) 0.0524(7) 0.4008(3)
O3 O 0.3269(7) 0.2201(7) 0.5571(3)
C11 C 0.6212(15) 0.4253(11) 0.4644(8)
O7 O 0.5367(15) 0.3777(13) 0.4154(8)
O8 O 0.5784(14) 0.4325(16) 0.5225(7)
Zn1E Zn 0.29823(9) 0.88985(9) 0.77826(4)
Zn1D Zn 1.11015(9) 0.40838(13) 0.44493(4)
Zn1B Zn 0.40838(13) 0.11015(9) 0.55507(4)
Zn1D_2 Zn 0.11015(9) 0.40838(13) 0.44493(4)
Zn1B_2 Zn 0.40838(13) 1.11015(9) 0.55507(4)
C1E C 0.5125(8) 0.8320(8) 0.7224(4)
H1E H 0.5525 0.8425 0.7645
C2E C 0.5586(9) 0.8077(8) 0.6657(4)
H2E H 0.6345 0.7970 0.6611
C3E C 0.3755(7) 0.8200(7) 0.6449(3)
C4E C 0.2598(7) 0.8133(8) 0.6100(3)
C5E C 0.1247(11) 0.8654(9) 0.5564(5)
H3E H 0.0922 0.9131 0.5317
C6E C 0.0489(10) 0.7375(9) 0.5780(5)
H4E H -0.0445 0.6816 0.5717
C7E C 0.0945(9) 0.5694(10) 0.6353(4)
H5E H 0.0071 0.5322 0.6578
H6E H 0.1610 0.5777 0.6685
C8E C 0.0841(8) 0.4701(8) 0.5818(3)
C9E C 0.4824(8) 0.7759(8) 0.5451(4)
H7E H 0.5703 0.8500 0.5308
H8E H 0.4148 0.7908 0.5228
N1E N 0.3988(6) 0.8392(6) 0.7100(3)
N2E N 0.4724(6) 0.8015(5) 0.6147(3)
N3E N 0.2595(7) 0.9170(7) 0.5763(3)
N3D N 1.0830(7) 0.3425(10) 0.2430(3)
N3B N 0.3425(10) 1.0830(7) 0.7570(3)
N4E N 0.1328(7) 0.7035(6) 0.6107(3)
O1E O 0.1116(6) 0.5169(6) 0.5220(2)
O1A O 0.8884(6) 0.4053(8) 0.1447(2)
O1C O 0.4053(8) 0.8884(6) 0.8553(2)
O2E O 0.0524(7) 0.3545(7) 0.5992(3)
O3E O 0.2201(7) 0.3269(7) 0.4429(3)
O3A O 0.7799(7) 0.1068(10) 0.2238(3)
O3C O 0.1068(10) 0.7799(7) 0.7762(3)
C11E C 0.4253(11) 0.6212(15) 0.5356(8)
O7E O 0.3777(13) 0.5367(15) 0.5846(8)
O8E O 0.4325(16) 0.5784(14) 0.4775(7)
O6 O 0.6632(16) 0.7438(13) 0.4066(6)
O9 O 0.9433(9) 0.8983(11) 0.7296(5)
loop_
_geom_bond_atom_site_label_1
_geom_bond_atom_site_label_2
_geom_bond_site_symmetry_1
_geom_bond_site_symmetry_2
Zn1 N1 1_555 1_555
Zn2 O3 1_555 1_555
C1 H1 1_555 1_555
C2 C1 1_555 1_555
H2 C2 1_555 1_555
C3 C4 1_555 1_555
C4 N3 1_555 1_555
C5 H3 1_555 1_555
C6 C5 1_555 1_555
H4 C6 1_555 1_555
C7 H5 1_555 1_555
H6 C7 1_555 1_555
C8 C7 1_555 1_555
C9 H7 1_555 1_555
H8 C9 1_555 1_555
N1 C1 1_555 1_555
N2 C2 1_555 1_555
N3 C5 1_555 1_555
N4 C4 1_555 1_555
O1 C8 1_555 1_555
O2 C8 1_555 1_555
O3 Zn1B 1_555 1_555
C11 C9 1_555 1_555
O7 Zn2 1_555 1_555
O8 Zn2 1_555 1_555
Zn1E N1E 1_555 1_555
Zn1D N3 1_555 1_555
Zn1B O1 1_555 1_555
Zn1D_2 O1E 1_555 1_555
Zn1B_2 N3E 1_555 1_555
C1E H1E 1_555 1_555
C2E C1E 1_555 1_555
H2E C2E 1_555 1_555
C3E C4E 1_555 1_555
C4E N3E 1_555 1_555
C5E H3E 1_555 1_555
C6E C5E 1_555 1_555
H4E C6E 1_555 1_555
C7E H5E 1_555 1_555
H6E C7E 1_555 1_555
C8E C7E 1_555 1_555
C9E H7E 1_555 1_555
H8E C9E 1_555 1_555
N1E C1E 1_555 1_555
N2E C2E 1_555 1_555
N3E C5E 1_555 1_555
N3D Zn1 1_555 1_555
N3B Zn1E 1_555 1_555
N4E C4E 1_555 1_555
O1E C8E 1_555 1_555
O1A Zn1 1_555 1_555
O1C Zn1E 1_555 1_555
O2E C8E 1_555 1_555
O3E Zn2 1_555 1_555
O3A Zn1 1_555 1_555
O3C Zn1E 1_555 1_555
C11E C9E 1_555 1_555
O7E Zn2 1_555 1_555
O8E Zn2 1_555 1_555
C3 N1 1_555 1_555
C3 N2 1_555 1_555
C6 N4 1_555 1_555
C7 N4 1_555 1_555
C9 N2 1_555 1_555
C11 O7 1_555 1_555
C11 O8 1_555 1_555
Zn1D_2 O3E 1_555 1_555
C3E N1E 1_555 1_555
C3E N2E 1_555 1_555
C6E N4E 1_555 1_555
C7E N4E 1_555 1_555
C9E N2E 1_555 1_555
C11E O7E 1_555 1_555
C11E O8E 1_555 1_555

#END
