
#######################################################################
#
#                 Cambridge Crystallographic Data Centre
#                                CCDC 
#
#######################################################################
#
# If this CIF has been generated from an entry in the Cambridge 
# Structural Database, then it will include bibliographic, chemical, 
# crystal, experimental, refinement or atomic coordinate data resulting 
# from the CCDC's data processing and validation procedures.
#
#######################################################################

data_TIRRIW
_chemical_formula_moiety         '(C37 H27 Co2 N3 O9)n'
_symmetry_cell_setting           triclinic
_symmetry_space_group_name_H-M   'P -1'
_symmetry_Int_Tables_number      2
_space_group_name_Hall           '-P 1'
loop_
_symmetry_equiv_pos_site_id
_symmetry_equiv_pos_as_xyz
1 x,y,z
2 -x,-y,-z
_cell_length_a                   12.939(5)
_cell_length_b                   13.092(5)
_cell_length_c                   13.754(4)
_cell_angle_alpha                85.449(11)
_cell_angle_beta                 70.302(12)
_cell_angle_gamma                83.731(10)
_cell_volume                     2178.18
loop_
_atom_site_label
_atom_site_type_symbol
_atom_site_fract_x
_atom_site_fract_y
_atom_site_fract_z
O9 O 0.2031(7) 0.4574(5) 0.9379(5)
N3 N 0.1119(7) 0.4408(4) 0.8240(6)
C39 C 0.2128(9) 0.4596(6) 0.8373(11)
H25 H 0.2785 0.4722 0.7821
C40 C 0.0143(10) 0.4097(10) 0.9094(8)
H26 H 0.0284 0.4095 0.9751
H27 H -0.0010 0.3406 0.8986
H28 H -0.0494 0.4584 0.9113
C41 C 0.1151(6) 0.4477(5) 0.7071(6)
H29 H 0.1861 0.4703 0.6622
H30 H 0.0554 0.4971 0.6997
H31 H 0.1059 0.3798 0.6873
Co1 Co -0.19486(4) 0.18318(3) 0.82998(3)
Co2 Co -0.12776(4) 0.17448(3) 0.61831(3)
O1 O -0.0234(2) 0.17461(19) 0.77006(19)
O2 O 0.0354(2) 0.16256(17) 0.59857(17)
O3 O 0.7019(2) 0.18907(19) 0.6821(2)
O4 O 0.6425(2) 0.1915(2) 0.8536(2)
O5 O -0.1822(2) 0.02860(17) 0.82151(17)
O6 O -0.1345(2) 0.02178(17) 0.64949(16)
O7 O -0.1364(2) -0.67197(17) 0.62646(16)
O8 O -0.1921(2) -0.66542(17) 0.79877(17)
N1 N -0.1829(3) 0.1825(2) 0.9745(2)
N2 N -0.1334(3) 0.1760(2) 1.4714(2)
C1 C 0.0519(3) 0.1692(3) 0.6828(3)
C2 C 0.1664(3) 0.1712(3) 0.6812(3)
C3 C 0.1879(3) 0.1866(3) 0.7689(3)
H1 H 0.1277 0.1966 0.8311
C4 C 0.2962(3) 0.1883(3) 0.7713(3)
C5 C 0.3160(3) 0.2064(3) 0.8614(3)
H2 H 0.2562 0.2184 0.9235
C6 C 0.4209(4) 0.2066(3) 0.8601(3)
H3 H 0.4337 0.2172 0.9224
C7 C 0.5122(3) 0.1916(3) 0.7686(3)
C8 C 0.4899(3) 0.1763(3) 0.6810(3)
H4 H 0.5501 0.1676 0.6186
C9 C 0.3843(3) 0.1727(3) 0.6780(3)
C10 C 0.3605(3) 0.1575(3) 0.5876(3)
H5 H 0.4194 0.1488 0.5242
C11 C 0.2550(3) 0.1549(3) 0.5890(3)
H6 H 0.2413 0.1422 0.5276
C12 C 0.6267(4) 0.1907(3) 0.7673(3)
C13 C -0.1599(3) -0.0186(3) 0.7384(3)
C14 C -0.1653(3) -0.1329(3) 0.7498(3)
C15 C -0.1445(3) -0.1893(3) 0.6658(3)
H7 H -0.1267 -0.1553 0.5994
C16 C -0.1484(3) -0.2956(3) 0.6741(2)
C17 C -0.1258(3) -0.3574(3) 0.5876(3)
H8 H -0.1057 -0.3252 0.5202
C18 C -0.1318(3) -0.4605(3) 0.5980(3)
H9 H -0.1170 -0.4995 0.5386
C19 C -0.1603(3) -0.5100(3) 0.6976(3)
C20 C -0.1848(3) -0.4530(3) 0.7830(3)
H10 H -0.2074 -0.4862 0.8499
C21 C -0.1770(4) -0.3452(3) 0.7732(3)
C22 C -0.1989(4) -0.2869(3) 0.8602(3)
H11 H -0.2179 -0.3195 0.9274
C23 C -0.1927(4) -0.1839(3) 0.8480(3)
H12 H -0.2074 -0.1449 0.9073
C24 C -0.1637(3) -0.6234(3) 0.7087(3)
C25 C -0.1147(7) 0.1083(5) 1.0041(5)
H13 H -0.0791 0.0543 0.9589
C26 C -0.0959(6) 0.1089(5) 1.0967(5)
H14 H -0.0421 0.0611 1.1118
C29 C -0.1587(4) 0.1828(3) 1.1693(3)
C30 C -0.1929(4) 0.2667(3) 1.1258(3)
H17 H -0.2110 0.3292 1.1609
C31 C -0.2024(5) 0.2639(3) 1.0289(3)
H18 H -0.2251 0.3267 0.9994
C32 C -0.1489(4) 0.1805(3) 1.2734(3)
C33 C -0.1264(4) 0.0930(3) 1.3230(3)
H19 H -0.1149 0.0297 1.2900
C34 C -0.1196(3) 0.0930(3) 1.4210(3)
H20 H -0.1041 0.0290 1.4533
C35 C -0.1792(10) 0.2569(7) 1.4347(6)
H21 H -0.2043 0.3152 1.4761
C36 C -0.1933(10) 0.2625(7) 1.3388(7)
H22 H -0.2323 0.3209 1.3178
Co1_2 Co 0.80514(4) 0.18318(3) 0.82998(3)
Co1_3 Co -0.19486(4) -0.81682(3) 0.82998(3)
Co2_2 Co 0.87224(4) 0.17448(3) 0.61831(3)
Co2_3 Co -0.12776(4) -0.82552(3) 0.61831(3)
Co2_4 Co -0.12776(4) 0.17448(3) 1.61831(3)
O3_2 O -0.2981(2) 0.18907(19) 0.6821(2)
O4_2 O -0.3575(2) 0.1915(2) 0.8536(2)
O7_2 O -0.1364(2) 0.32803(17) 0.62646(16)
O8_2 O -0.1921(2) 0.33458(17) 0.79877(17)
N2_2 N -0.1334(3) 0.1760(2) 0.4714(2)
loop_
_geom_bond_atom_site_label_1
_geom_bond_atom_site_label_2
_geom_bond_site_symmetry_1
_geom_bond_site_symmetry_2
Co1 O1 1_555 1_555
Co2 O2 1_555 1_555
O1 C1 1_555 1_555
O2 C1 1_555 1_555
O3 C12 1_555 1_555
O4 C12 1_555 1_555
O5 Co1 1_555 1_555
O6 Co2 1_555 1_555
O7 C24 1_555 1_555
O8 C24 1_555 1_555
N1 Co1 1_555 1_555
N2 C34 1_555 1_555
C1 C2 1_555 1_555
C2 C3 1_555 1_555
C3 H1 1_555 1_555
C4 C3 1_555 1_555
C5 C4 1_555 1_555
H2 C5 1_555 1_555
C6 C5 1_555 1_555
H3 C6 1_555 1_555
C7 C6 1_555 1_555
C8 C7 1_555 1_555
H4 C8 1_555 1_555
C9 C4 1_555 1_555
C10 C9 1_555 1_555
H5 C10 1_555 1_555
C11 C2 1_555 1_555
H6 C11 1_555 1_555
C12 C7 1_555 1_555
C13 O5 1_555 1_555
C14 C13 1_555 1_555
C15 C14 1_555 1_555
H7 C15 1_555 1_555
C16 C15 1_555 1_555
C17 C16 1_555 1_555
H8 C17 1_555 1_555
C18 C17 1_555 1_555
H9 C18 1_555 1_555
C19 C18 1_555 1_555
C20 C19 1_555 1_555
H10 C20 1_555 1_555
C21 C16 1_555 1_555
C22 C21 1_555 1_555
H11 C22 1_555 1_555
C23 C14 1_555 1_555
H12 C23 1_555 1_555
C24 C19 1_555 1_555
C25 N1 1_555 1_555
H13 C25 1_555 1_555
C26 C25 1_555 1_555
H14 C26 1_555 1_555
C29 C26 1_555 1_555
C30 C29 1_555 1_555
H17 C30 1_555 1_555
C31 N1 1_555 1_555
H18 C31 1_555 1_555
C32 C29 1_555 1_555
C33 C32 1_555 1_555
H19 C33 1_555 1_555
C34 C33 1_555 1_555
H20 C34 1_555 1_555
C35 N2 1_555 1_555
H21 C35 1_555 1_555
C36 C32 1_555 1_555
H22 C36 1_555 1_555
O9 C39 1_555 1_555
N3 C39 1_555 1_555
C39 H25 1_555 1_555
C40 N3 1_555 1_555
H26 C40 1_555 1_555
H27 C40 1_555 1_555
H28 C40 1_555 1_555
C41 N3 1_555 1_555
H29 C41 1_555 1_555
H30 C41 1_555 1_555
H31 C41 1_555 1_555
Co1_2 O4 1_555 1_555
Co1_3 O8 1_555 1_555
Co2_2 O3 1_555 1_555
Co2_3 O7 1_555 1_555
Co2_4 N2 1_555 1_555
O3_2 Co2 1_555 1_555
O4_2 Co1 1_555 1_555
O7_2 Co2 1_555 1_555
O8_2 Co1 1_555 1_555
N2_2 Co2 1_555 1_555
O6 C13 1_555 1_555
C8 C9 1_555 1_555
C10 C11 1_555 1_555
C20 C21 1_555 1_555
C22 C23 1_555 1_555
C30 C31 1_555 1_555
C35 C36 1_555 1_555

#END
