
#######################################################################
#
#                 Cambridge Crystallographic Data Centre
#                                CCDC 
#
#######################################################################
#
# If this CIF has been generated from an entry in the Cambridge 
# Structural Database, then it will include bibliographic, chemical, 
# crystal, experimental, refinement or atomic coordinate data resulting 
# from the CCDC's data processing and validation procedures.
#
#######################################################################

data_HAJMIQ
_chemical_formula_moiety         'C72 H26 Cu32 K1 O127 P1 W12 1+'
_symmetry_cell_setting           cubic
_symmetry_space_group_name_H-M   'F m -3 m'
_symmetry_Int_Tables_number      225
_space_group_name_Hall           '-F 4 2 3'
loop_
_symmetry_equiv_pos_site_id
_symmetry_equiv_pos_as_xyz
1 x,y,z
2 -x,-y,z
3 -x,y,-z
4 x,-y,-z
5 z,x,y
6 z,-x,-y
7 -z,-x,y
8 -z,x,-y
9 y,z,x
10 -y,z,-x
11 y,-z,-x
12 -y,-z,x
13 y,x,-z
14 -y,-x,-z
15 y,-x,z
16 -y,x,z
17 x,z,-y
18 -x,z,y
19 -x,-z,-y
20 x,-z,y
21 z,y,-x
22 z,-y,x
23 -z,y,x
24 -z,-y,-x
25 x,1/2+y,1/2+z
26 -x,1/2-y,1/2+z
27 -x,1/2+y,1/2-z
28 x,1/2-y,1/2-z
29 z,1/2+x,1/2+y
30 z,1/2-x,1/2-y
31 -z,1/2-x,1/2+y
32 -z,1/2+x,1/2-y
33 y,1/2+z,1/2+x
34 -y,1/2+z,1/2-x
35 y,1/2-z,1/2-x
36 -y,1/2-z,1/2+x
37 y,1/2+x,1/2-z
38 -y,1/2-x,1/2-z
39 y,1/2-x,1/2+z
40 -y,1/2+x,1/2+z
41 x,1/2+z,1/2-y
42 -x,1/2+z,1/2+y
43 -x,1/2-z,1/2-y
44 x,1/2-z,1/2+y
45 z,1/2+y,1/2-x
46 z,1/2-y,1/2+x
47 -z,1/2+y,1/2+x
48 -z,1/2-y,1/2-x
49 1/2+x,y,1/2+z
50 1/2-x,-y,1/2+z
51 1/2-x,y,1/2-z
52 1/2+x,-y,1/2-z
53 1/2+z,x,1/2+y
54 1/2+z,-x,1/2-y
55 1/2-z,-x,1/2+y
56 1/2-z,x,1/2-y
57 1/2+y,z,1/2+x
58 1/2-y,z,1/2-x
59 1/2+y,-z,1/2-x
60 1/2-y,-z,1/2+x
61 1/2+y,x,1/2-z
62 1/2-y,-x,1/2-z
63 1/2+y,-x,1/2+z
64 1/2-y,x,1/2+z
65 1/2+x,z,1/2-y
66 1/2-x,z,1/2+y
67 1/2-x,-z,1/2-y
68 1/2+x,-z,1/2+y
69 1/2+z,y,1/2-x
70 1/2+z,-y,1/2+x
71 1/2-z,y,1/2+x
72 1/2-z,-y,1/2-x
73 1/2+x,1/2+y,z
74 1/2-x,1/2-y,z
75 1/2-x,1/2+y,-z
76 1/2+x,1/2-y,-z
77 1/2+z,1/2+x,y
78 1/2+z,1/2-x,-y
79 1/2-z,1/2-x,y
80 1/2-z,1/2+x,-y
81 1/2+y,1/2+z,x
82 1/2-y,1/2+z,-x
83 1/2+y,1/2-z,-x
84 1/2-y,1/2-z,x
85 1/2+y,1/2+x,-z
86 1/2-y,1/2-x,-z
87 1/2+y,1/2-x,z
88 1/2-y,1/2+x,z
89 1/2+x,1/2+z,-y
90 1/2-x,1/2+z,y
91 1/2-x,1/2-z,-y
92 1/2+x,1/2-z,y
93 1/2+z,1/2+y,-x
94 1/2+z,1/2-y,x
95 1/2-z,1/2+y,x
96 1/2-z,1/2-y,-x
97 -x,-y,-z
98 x,y,-z
99 x,-y,z
100 -x,y,z
101 -z,-x,-y
102 -z,x,y
103 z,x,-y
104 z,-x,y
105 -y,-z,-x
106 y,-z,x
107 -y,z,x
108 y,z,-x
109 -y,-x,z
110 y,x,z
111 -y,x,-z
112 y,-x,-z
113 -x,-z,y
114 x,-z,-y
115 x,z,y
116 -x,z,-y
117 -z,-y,x
118 -z,y,-x
119 z,-y,-x
120 z,y,x
121 -x,1/2-y,1/2-z
122 x,1/2+y,1/2-z
123 x,1/2-y,1/2+z
124 -x,1/2+y,1/2+z
125 -z,1/2-x,1/2-y
126 -z,1/2+x,1/2+y
127 z,1/2+x,1/2-y
128 z,1/2-x,1/2+y
129 -y,1/2-z,1/2-x
130 y,1/2-z,1/2+x
131 -y,1/2+z,1/2+x
132 y,1/2+z,1/2-x
133 -y,1/2-x,1/2+z
134 y,1/2+x,1/2+z
135 -y,1/2+x,1/2-z
136 y,1/2-x,1/2-z
137 -x,1/2-z,1/2+y
138 x,1/2-z,1/2-y
139 x,1/2+z,1/2+y
140 -x,1/2+z,1/2-y
141 -z,1/2-y,1/2+x
142 -z,1/2+y,1/2-x
143 z,1/2-y,1/2-x
144 z,1/2+y,1/2+x
145 1/2-x,-y,1/2-z
146 1/2+x,y,1/2-z
147 1/2+x,-y,1/2+z
148 1/2-x,y,1/2+z
149 1/2-z,-x,1/2-y
150 1/2-z,x,1/2+y
151 1/2+z,x,1/2-y
152 1/2+z,-x,1/2+y
153 1/2-y,-z,1/2-x
154 1/2+y,-z,1/2+x
155 1/2-y,z,1/2+x
156 1/2+y,z,1/2-x
157 1/2-y,-x,1/2+z
158 1/2+y,x,1/2+z
159 1/2-y,x,1/2-z
160 1/2+y,-x,1/2-z
161 1/2-x,-z,1/2+y
162 1/2+x,-z,1/2-y
163 1/2+x,z,1/2+y
164 1/2-x,z,1/2-y
165 1/2-z,-y,1/2+x
166 1/2-z,y,1/2-x
167 1/2+z,-y,1/2-x
168 1/2+z,y,1/2+x
169 1/2-x,1/2-y,-z
170 1/2+x,1/2+y,-z
171 1/2+x,1/2-y,z
172 1/2-x,1/2+y,z
173 1/2-z,1/2-x,-y
174 1/2-z,1/2+x,y
175 1/2+z,1/2+x,-y
176 1/2+z,1/2-x,y
177 1/2-y,1/2-z,-x
178 1/2+y,1/2-z,x
179 1/2-y,1/2+z,x
180 1/2+y,1/2+z,-x
181 1/2-y,1/2-x,z
182 1/2+y,1/2+x,z
183 1/2-y,1/2+x,-z
184 1/2+y,1/2-x,-z
185 1/2-x,1/2-z,y
186 1/2+x,1/2-z,-y
187 1/2+x,1/2+z,y
188 1/2-x,1/2+z,-y
189 1/2-z,1/2-y,x
190 1/2-z,1/2+y,-x
191 1/2+z,1/2-y,-x
192 1/2+z,1/2+y,x
_cell_length_a                   26.4022(13)
_cell_length_b                   26.4022(13)
_cell_length_c                   26.4022(13)
_cell_angle_alpha                90
_cell_angle_beta                 90
_cell_angle_gamma                90
_cell_volume                     18404.3
loop_
_atom_site_label
_atom_site_type_symbol
_atom_site_fract_x
_atom_site_fract_y
_atom_site_fract_z
_atom_site_U_iso_or_equiv
_atom_site_thermal_displace_type
Cu1 Cu 0.78491(3) 1.0000 0.28491(3) 0.0173 Uani
O2 O 0.8430(3) 1.0000 0.3430(3) 0.0720 Uani
O4 O 0.81666(15) 0.94744(15) 0.24319(15) 0.0289 Uani
C1 C 0.79723(18) 0.9314(3) 0.20277(18) 0.0210 Uani
C2 C 0.86595(19) 0.86595(19) 0.1991(3) 0.0237 Uani
H1 H 0.8803 0.8803 0.2279 0.0290 Uiso
C3 C 0.82256(19) 0.8877(3) 0.17744(19) 0.0230 Uani
Cu1W Cu 0.71509(3) 1.0000 0.21509(3) 0.0173 Uani
Cu1J Cu 1.0000 0.71509(3) 0.21509(3) 0.0173 Uani
Cu1O Cu 1.0000 0.78491(3) 0.28491(3) 0.0173 Uani
Cu1G Cu 0.71509(3) 0.78491(3) 0.0000 0.0173 Uani
Cu1S Cu 0.78491(3) 0.71509(3) 0.0000 0.0173 Uani
Cu1EA Cu 0.71509(3) 1.28491(3) 0.5000 0.0173 Uani
Cu1QA Cu 0.78491(3) 1.21509(3) 0.5000 0.0173 Uani
Cu1IB Cu 0.5000 1.21509(3) 0.21509(3) 0.0173 Uani
Cu1DB Cu 0.5000 1.28491(3) 0.28491(3) 0.0173 Uani
Cu1I Cu 1.0000 1.28491(3) 0.21509(3) 0.0173 Uani
Cu1N Cu 1.0000 1.21509(3) 0.28491(3) 0.0173 Uani
Cu1F Cu 0.71509(3) 1.21509(3) 0.0000 0.0173 Uani
Cu1P Cu 0.78491(3) 1.28491(3) 0.0000 0.0173 Uani
Cu1DA Cu 0.71509(3) 0.71509(3) 0.5000 0.0173 Uani
Cu1NA Cu 0.78491(3) 0.78491(3) 0.5000 0.0173 Uani
Cu1HB Cu 0.5000 0.78491(3) 0.21509(3) 0.0173 Uani
Cu1GB Cu 0.5000 0.71509(3) 0.28491(3) 0.0173 Uani
Cu1SA Cu 1.28491(3) 0.5000 0.28491(3) 0.0173 Uani
Cu1Z Cu 1.21509(3) 0.5000 0.21509(3) 0.0173 Uani
Cu1OA Cu 1.21509(3) 0.78491(3) 0.5000 0.0173 Uani
Cu1CA Cu 1.28491(3) 0.71509(3) 0.5000 0.0173 Uani
Cu1D Cu 1.28491(3) 0.78491(3) 0.0000 0.0173 Uani
Cu1R Cu 1.21509(3) 0.71509(3) 0.0000 0.0173 Uani
Cu1A Cu 1.21509(3) 1.0000 0.28491(3) 0.0173 Uani
Cu1T Cu 1.28491(3) 1.0000 0.21509(3) 0.0173 Uani
Cu1TA Cu 0.71509(3) 0.5000 0.28491(3) 0.0173 Uani
Cu1AA Cu 0.78491(3) 0.5000 0.21509(3) 0.0173 Uani
Cu1FB Cu 0.5000 0.71509(3) -0.28491(3) 0.0173 Uani
Cu1KB Cu 0.5000 0.78491(3) -0.21509(3) 0.0173 Uani
Cu1X Cu 0.78491(3) 0.5000 -0.21509(3) 0.0173 Uani
Cu1UA Cu 0.71509(3) 0.5000 -0.28491(3) 0.0173 Uani
O2W O 0.6570(3) 1.0000 0.1570(3) 0.0720 Uani
O2J O 1.0000 0.6570(3) 0.1570(3) 0.0720 Uani
O2O O 1.0000 0.8430(3) 0.3430(3) 0.0720 Uani
O2G O 0.6570(3) 0.8430(3) 0.0000 0.0720 Uani
O2S O 0.8430(3) 0.6570(3) 0.0000 0.0720 Uani
O2EA O 0.6570(3) 1.3430(3) 0.5000 0.0720 Uani
O2QA O 0.8430(3) 1.1570(3) 0.5000 0.0720 Uani
O2IB O 0.5000 1.1570(3) 0.1570(3) 0.0720 Uani
O2DB O 0.5000 1.3430(3) 0.3430(3) 0.0720 Uani
O2I O 1.0000 1.3430(3) 0.1570(3) 0.0720 Uani
O2N O 1.0000 1.1570(3) 0.3430(3) 0.0720 Uani
O4MD O 0.75681(15) 0.94744(15) 0.18334(15) 0.0289 Uani
O4J O 0.94744(15) 0.75681(15) 0.18334(15) 0.0289 Uani
O4ED O 0.94744(15) 0.81666(15) 0.24319(15) 0.0289 Uani
O4G O 0.75681(15) 0.81666(15) 0.05256(15) 0.0289 Uani
O4ID O 0.81666(15) 0.75681(15) 0.05256(15) 0.0289 Uani
O4QB O 0.74319(15) 1.05256(15) 0.31666(15) 0.0289 Uani
O4NE O 0.68334(15) 1.05256(15) 0.25681(15) 0.0289 Uani
O4MB O 0.68334(15) 1.24319(15) 0.44744(15) 0.0289 Uani
O4UE O 0.74319(15) 1.18334(15) 0.44744(15) 0.0289 Uani
O4IB O 0.55256(15) 1.18334(15) 0.25681(15) 0.0289 Uani
O4XE O 0.55256(15) 1.24319(15) 0.31666(15) 0.0289 Uani
O4TC O 0.81666(15) 1.05256(15) 0.24319(15) 0.0289 Uani
O4W O 0.75681(15) 1.05256(15) 0.18334(15) 0.0289 Uani
O4CD O 0.94744(15) 1.24319(15) 0.18334(15) 0.0289 Uani
O4N O 0.94744(15) 1.18334(15) 0.24319(15) 0.0289 Uani
O4VC O 0.75681(15) 1.18334(15) 0.05256(15) 0.0289 Uani
O4P O 0.81666(15) 1.24319(15) 0.05256(15) 0.0289 Uani
O4KF O 0.74319(15) 0.94744(15) 0.31666(15) 0.0289 Uani
O4XA O 0.68334(15) 0.94744(15) 0.25681(15) 0.0289 Uani
O4DF O 0.68334(15) 0.75681(15) 0.44744(15) 0.0289 Uani
O4ZA O 0.74319(15) 0.81666(15) 0.44744(15) 0.0289 Uani
O4BF O 0.55256(15) 0.81666(15) 0.25681(15) 0.0289 Uani
O4GB O 0.55256(15) 0.75681(15) 0.31666(15) 0.0289 Uani
O4KA O 1.05256(15) 0.68334(15) 0.25681(15) 0.0289 Uani
O4ZD O 1.05256(15) 0.74319(15) 0.31666(15) 0.0289 Uani
O4SA O 1.24319(15) 0.55256(15) 0.31666(15) 0.0289 Uani
O4PD O 1.18334(15) 0.55256(15) 0.25681(15) 0.0289 Uani
O4OA O 1.18334(15) 0.74319(15) 0.44744(15) 0.0289 Uani
O4WD O 1.24319(15) 0.68334(15) 0.44744(15) 0.0289 Uani
O4ZC O 1.05256(15) 0.75681(15) 0.18334(15) 0.0289 Uani
O4O O 1.05256(15) 0.81666(15) 0.24319(15) 0.0289 Uani
O4XC O 1.24319(15) 0.81666(15) 0.05256(15) 0.0289 Uani
O4R O 1.18334(15) 0.75681(15) 0.05256(15) 0.0289 Uani
O4UC O 1.18334(15) 0.94744(15) 0.24319(15) 0.0289 Uani
O4T O 1.24319(15) 0.94744(15) 0.18334(15) 0.0289 Uani
O4EE O 0.94744(15) 0.68334(15) 0.25681(15) 0.0289 Uani
O4FA O 0.94744(15) 0.74319(15) 0.31666(15) 0.0289 Uani
O4JE O 0.75681(15) 0.55256(15) 0.31666(15) 0.0289 Uani
O4AA O 0.81666(15) 0.55256(15) 0.25681(15) 0.0289 Uani
O4HE O 0.81666(15) 0.74319(15) 0.44744(15) 0.0289 Uani
O4DA O 0.75681(15) 0.68334(15) 0.44744(15) 0.0289 Uani
O4KC O 0.68334(15) 0.74319(15) -0.05256(15) 0.0289 Uani
O4SF O 0.74319(15) 0.68334(15) -0.05256(15) 0.0289 Uani
O4GC O 0.55256(15) 0.68334(15) -0.24319(15) 0.0289 Uani
O4VF O 0.55256(15) 0.74319(15) -0.18334(15) 0.0289 Uani
O4OC O 0.74319(15) 0.55256(15) -0.18334(15) 0.0289 Uani
O4LF O 0.68334(15) 0.55256(15) -0.24319(15) 0.0289 Uani
O4WC O 0.75681(15) 0.81666(15) -0.05256(15) 0.0289 Uani
O4EG O 0.68334(15) 0.74319(15) 0.05256(15) 0.0289 Uani
O4S O 0.81666(15) 0.75681(15) -0.05256(15) 0.0289 Uani
O4YB O 0.74319(15) 0.68334(15) 0.05256(15) 0.0289 Uani
O4EA O 0.75681(15) 1.31666(15) 0.55256(15) 0.0289 Uani
O4GF O 0.68334(15) 1.24319(15) 0.55256(15) 0.0289 Uani
O4UD O 0.75681(15) 1.31666(15) 0.44744(15) 0.0289 Uani
O4GE O 0.81666(15) 1.25681(15) 0.55256(15) 0.0289 Uani
O4AB O 0.74319(15) 1.18334(15) 0.55256(15) 0.0289 Uani
O4QA O 0.81666(15) 1.25681(15) 0.44744(15) 0.0289 Uani
O4DC O 0.44744(15) 1.25681(15) 0.18334(15) 0.0289 Uani
O4CF O 0.44744(15) 1.18334(15) 0.25681(15) 0.0289 Uani
O4TF O 0.55256(15) 1.25681(15) 0.18334(15) 0.0289 Uani
O4YF O 0.44744(15) 1.31666(15) 0.24319(15) 0.0289 Uani
O4DB O 0.44744(15) 1.24319(15) 0.31666(15) 0.0289 Uani
O4IC O 0.55256(15) 1.31666(15) 0.24319(15) 0.0289 Uani
O4DE O 1.05256(15) 1.31666(15) 0.25681(15) 0.0289 Uani
O4I O 1.05256(15) 1.24319(15) 0.18334(15) 0.0289 Uani
O4JA O 0.94744(15) 1.31666(15) 0.25681(15) 0.0289 Uani
O4IA O 1.05256(15) 1.25681(15) 0.31666(15) 0.0289 Uani
O4DD O 1.05256(15) 1.18334(15) 0.24319(15) 0.0289 Uani
O4YD O 0.94744(15) 1.25681(15) 0.31666(15) 0.0289 Uani
C1J C 0.9314(3) 0.79723(18) 0.20277(18) 0.0210 Uani
C1G C 0.79723(18) 0.79723(18) 0.0686(3) 0.0210 Uani
C1QB C 0.70277(18) 1.0686(3) 0.29723(18) 0.0210 Uani
C1MB C 0.70277(18) 1.20277(18) 0.4314(3) 0.0210 Uani
C1IB C 0.5686(3) 1.20277(18) 0.29723(18) 0.0210 Uani
C1W C 0.79723(18) 1.0686(3) 0.20277(18) 0.0210 Uani
C1N C 0.9314(3) 1.20277(18) 0.20277(18) 0.0210 Uani
C1P C 0.79723(18) 1.20277(18) 0.0686(3) 0.0210 Uani
C1XA C 0.70277(18) 0.9314(3) 0.29723(18) 0.0210 Uani
C1ZA C 0.70277(18) 0.79723(18) 0.4314(3) 0.0210 Uani
C1GB C 0.5686(3) 0.79723(18) 0.29723(18) 0.0210 Uani
C1KA C 1.0686(3) 0.70277(18) 0.29723(18) 0.0210 Uani
C1SA C 1.20277(18) 0.5686(3) 0.29723(18) 0.0210 Uani
C1OA C 1.20277(18) 0.70277(18) 0.4314(3) 0.0210 Uani
C1O C 1.0686(3) 0.79723(18) 0.20277(18) 0.0210 Uani
C1R C 1.20277(18) 0.79723(18) 0.0686(3) 0.0210 Uani
C1T C 1.20277(18) 0.9314(3) 0.20277(18) 0.0210 Uani
C1FA C 0.9314(3) 0.70277(18) 0.29723(18) 0.0210 Uani
C1AA C 0.79723(18) 0.5686(3) 0.29723(18) 0.0210 Uani
C1DA C 0.79723(18) 0.70277(18) 0.4314(3) 0.0210 Uani
C1KC C 0.70277(18) 0.70277(18) -0.0686(3) 0.0210 Uani
C1GC C 0.5686(3) 0.70277(18) -0.20277(18) 0.0210 Uani
C1OC C 0.70277(18) 0.5686(3) -0.20277(18) 0.0210 Uani
C2J C 0.86595(19) 0.8009(3) 0.13405(19) 0.0237 Uani
C2G C 0.8009(3) 0.86595(19) 0.13405(19) 0.0237 Uani
C2QB C 0.6991(3) 1.13405(19) 0.36595(19) 0.0237 Uani
C2MB C 0.63405(19) 1.1991(3) 0.36595(19) 0.0237 Uani
C2IB C 0.63405(19) 1.13405(19) 0.3009(3) 0.0237 Uani
C2N C 0.86595(19) 1.13405(19) 0.1991(3) 0.0237 Uani
C2P C 0.86595(19) 1.1991(3) 0.13405(19) 0.0237 Uani
C2W C 0.8009(3) 1.13405(19) 0.13405(19) 0.0237 Uani
C2ZA C 0.6991(3) 0.86595(19) 0.36595(19) 0.0237 Uani
C2GB C 0.63405(19) 0.8009(3) 0.36595(19) 0.0237 Uani
C2XA C 0.63405(19) 0.86595(19) 0.3009(3) 0.0237 Uani
C2KA C 1.13405(19) 0.63405(19) 0.3009(3) 0.0237 Uani
C2SA C 1.1991(3) 0.63405(19) 0.36595(19) 0.0237 Uani
C2OA C 1.13405(19) 0.6991(3) 0.36595(19) 0.0237 Uani
C2R C 1.13405(19) 0.8009(3) 0.13405(19) 0.0237 Uani
C2T C 1.1991(3) 0.86595(19) 0.13405(19) 0.0237 Uani
C2O C 1.13405(19) 0.86595(19) 0.1991(3) 0.0237 Uani
C2AA C 0.86595(19) 0.63405(19) 0.3009(3) 0.0237 Uani
C2DA C 0.8009(3) 0.63405(19) 0.36595(19) 0.0237 Uani
C2FA C 0.86595(19) 0.6991(3) 0.36595(19) 0.0237 Uani
C2KC C 0.63405(19) 0.6991(3) -0.13405(19) 0.0237 Uani
C2GC C 0.63405(19) 0.63405(19) -0.1991(3) 0.0237 Uani
C2OC C 0.6991(3) 0.63405(19) -0.13405(19) 0.0237 Uani
H1J H 0.8803 0.7721 0.1197 0.0290 Uiso
H1G H 0.7721 0.8803 0.1197 0.0290 Uiso
H1QB H 0.7279 1.1197 0.3803 0.0290 Uiso
H1MB H 0.6197 1.2279 0.3803 0.0290 Uiso
H1IB H 0.6197 1.1197 0.2721 0.0290 Uiso
H1N H 0.8803 1.1197 0.2279 0.0290 Uiso
H1P H 0.8803 1.2279 0.1197 0.0290 Uiso
H1W H 0.7721 1.1197 0.1197 0.0290 Uiso
H1ZA H 0.7279 0.8803 0.3803 0.0290 Uiso
H1GB H 0.6197 0.7721 0.3803 0.0290 Uiso
H1XA H 0.6197 0.8803 0.2721 0.0290 Uiso
H1KA H 1.1197 0.6197 0.2721 0.0290 Uiso
H1SA H 1.2279 0.6197 0.3803 0.0290 Uiso
H1OA H 1.1197 0.7279 0.3803 0.0290 Uiso
H1R H 1.1197 0.7721 0.1197 0.0290 Uiso
H1T H 1.2279 0.8803 0.1197 0.0290 Uiso
H1O H 1.1197 0.8803 0.2279 0.0290 Uiso
H1AA H 0.8803 0.6197 0.2721 0.0290 Uiso
H1DA H 0.7721 0.6197 0.3803 0.0290 Uiso
H1FA H 0.8803 0.7279 0.3803 0.0290 Uiso
H1KC H 0.6197 0.7279 -0.1197 0.0290 Uiso
H1GC H 0.6197 0.6197 -0.2279 0.0290 Uiso
H1OC H 0.7279 0.6197 -0.1197 0.0290 Uiso
C3J C 0.8877(3) 0.82256(19) 0.17744(19) 0.0230 Uani
C3G C 0.82256(19) 0.82256(19) 0.1123(3) 0.0230 Uani
C3QB C 0.67744(19) 1.1123(3) 0.32256(19) 0.0230 Uani
C3MB C 0.67744(19) 1.17744(19) 0.3877(3) 0.0230 Uani
C3IB C 0.6123(3) 1.17744(19) 0.32256(19) 0.0230 Uani
C3W C 0.82256(19) 1.1123(3) 0.17744(19) 0.0230 Uani
C3N C 0.8877(3) 1.17744(19) 0.17744(19) 0.0230 Uani
C3P C 0.82256(19) 1.17744(19) 0.1123(3) 0.0230 Uani
C3XA C 0.67744(19) 0.8877(3) 0.32256(19) 0.0230 Uani
C3ZA C 0.67744(19) 0.82256(19) 0.3877(3) 0.0230 Uani
C3GB C 0.6123(3) 0.82256(19) 0.32256(19) 0.0230 Uani
C3KA C 1.1123(3) 0.67744(19) 0.32256(19) 0.0230 Uani
C3SA C 1.17744(19) 0.6123(3) 0.32256(19) 0.0230 Uani
C3OA C 1.17744(19) 0.67744(19) 0.3877(3) 0.0230 Uani
C3O C 1.1123(3) 0.82256(19) 0.17744(19) 0.0230 Uani
C3R C 1.17744(19) 0.82256(19) 0.1123(3) 0.0230 Uani
C3T C 1.17744(19) 0.8877(3) 0.17744(19) 0.0230 Uani
C3FA C 0.8877(3) 0.67744(19) 0.32256(19) 0.0230 Uani
C3AA C 0.82256(19) 0.6123(3) 0.32256(19) 0.0230 Uani
C3DA C 0.82256(19) 0.67744(19) 0.3877(3) 0.0230 Uani
C3KC C 0.67744(19) 0.67744(19) -0.1123(3) 0.0230 Uani
C3GC C 0.6123(3) 0.67744(19) -0.17744(19) 0.0230 Uani
C3OC C 0.67744(19) 0.6123(3) -0.17744(19) 0.0230 Uani
K1 K 0.9235(6) 1.0000 0.2435(7) 0.0393 Uani
O6 O 0.9234(16) 1.0766(16) 0.323(2) 0.0833 Uani
P1 P 1.0000 1.0000 0.0000 0.0141 Uani
W1 W 0.904711(12) 1.0000 0.095289(12) 0.0302 Uani
O1 O 0.8600(2) 1.0000 0.1400(2) 0.0550 Uani
O3 O 0.8806(3) 0.9500(2) 0.0500(2) 0.0633 Uani
O5 O 0.9660(4) 0.9660(4) 0.0340(4) 0.0450 Uani
W1J W 1.0000 0.904711(12) 0.095289(12) 0.0302 Uani
W1F W 0.904711(12) 1.095289(12) 0.0000 0.0302 Uani
W1G W 0.904711(12) 0.904711(12) 0.0000 0.0302 Uani
W1I W 1.0000 1.095289(12) 0.095289(12) 0.0302 Uani
W1A W 1.095289(12) 1.0000 0.095289(12) 0.0302 Uani
W1B W 1.095289(12) 1.0000 -0.095289(12) 0.0302 Uani
W1C W 0.904711(12) 1.0000 -0.095289(12) 0.0302 Uani
W1K W 1.0000 0.904711(12) -0.095289(12) 0.0302 Uani
W1H W 1.0000 1.095289(12) -0.095289(12) 0.0302 Uani
W1E W 1.095289(12) 1.095289(12) 0.0000 0.0302 Uani
W1D W 1.095289(12) 0.904711(12) 0.0000 0.0302 Uani
O1J O 1.0000 0.8600(2) 0.1400(2) 0.0550 Uani
O1F O 0.8600(2) 1.1400(2) 0.0000 0.0550 Uani
O1G O 0.8600(2) 0.8600(2) 0.0000 0.0550 Uani
O1I O 1.0000 1.1400(2) 0.1400(2) 0.0550 Uani
O1A O 1.1400(2) 1.0000 0.1400(2) 0.0550 Uani
O1B O 1.1400(2) 1.0000 -0.1400(2) 0.0550 Uani
O1C O 0.8600(2) 1.0000 -0.1400(2) 0.0550 Uani
O1K O 1.0000 0.8600(2) -0.1400(2) 0.0550 Uani
O1H O 1.0000 1.1400(2) -0.1400(2) 0.0550 Uani
O1E O 1.1400(2) 1.1400(2) 0.0000 0.0550 Uani
O1D O 1.1400(2) 0.8600(2) 0.0000 0.0550 Uani
O3J O 0.9500(2) 0.9500(2) 0.1194(3) 0.0633 Uani
O3P O 0.8806(3) 1.0500(2) 0.0500(2) 0.0633 Uani
O3W O 0.9500(2) 1.0500(2) 0.1194(3) 0.0633 Uani
O3G O 0.9500(2) 0.8806(3) 0.0500(2) 0.0633 Uani
O3T O 1.0500(2) 0.9500(2) 0.1194(3) 0.0633 Uani
O3O O 1.0500(2) 0.8806(3) 0.0500(2) 0.0633 Uani
O3N O 0.9500(2) 1.1194(3) 0.0500(2) 0.0633 Uani
O3C O 0.8806(3) 1.0500(2) -0.0500(2) 0.0633 Uani
O3F O 0.9500(2) 1.1194(3) -0.0500(2) 0.0633 Uani
O3L O 0.9500(2) 0.8806(3) -0.0500(2) 0.0633 Uani
O3S O 0.8806(3) 0.9500(2) -0.0500(2) 0.0633 Uani
O3E O 1.0500(2) 1.1194(3) 0.0500(2) 0.0633 Uani
O3I O 1.0500(2) 1.0500(2) 0.1194(3) 0.0633 Uani
O3A O 1.1194(3) 1.0500(2) 0.0500(2) 0.0633 Uani
O3R O 1.1194(3) 0.9500(2) 0.0500(2) 0.0633 Uani
O3B O 1.1194(3) 0.9500(2) -0.0500(2) 0.0633 Uani
O3K O 1.0500(2) 0.9500(2) -0.1194(3) 0.0633 Uani
O3Q O 1.1194(3) 1.0500(2) -0.0500(2) 0.0633 Uani
O3U O 1.0500(2) 1.0500(2) -0.1194(3) 0.0633 Uani
O3H O 0.9500(2) 1.0500(2) -0.1194(3) 0.0633 Uani
O3V O 0.9500(2) 0.9500(2) -0.1194(3) 0.0633 Uani
O3D O 1.0500(2) 0.8806(3) -0.0500(2) 0.0633 Uani
O3M O 1.0500(2) 1.1194(3) -0.0500(2) 0.0633 Uani
O5A O 1.0340(4) 1.0340(4) 0.0340(4) 0.0450 Uani
O5B O 1.0340(4) 0.9660(4) -0.0340(4) 0.0450 Uani
O5C O 0.9660(4) 1.0340(4) -0.0340(4) 0.0450 Uani
O5L O 0.9660(4) 0.9660(4) -0.0340(4) 0.0450 Uani
O5M O 1.0340(4) 1.0340(4) -0.0340(4) 0.0450 Uani
O5N O 0.9660(4) 1.0340(4) 0.0340(4) 0.0450 Uani
O5O O 1.0340(4) 0.9660(4) 0.0340(4) 0.0450 Uani
loop_
_atom_site_aniso_label
_atom_site_aniso_U_11
_atom_site_aniso_U_22
_atom_site_aniso_U_33
_atom_site_aniso_U_23
_atom_site_aniso_U_13
_atom_site_aniso_U_12
Cu1 0.0168(4) 0.0182(6) 0.0168(4) 0.000 -0.0018(4) 0.000
O2 0.067(7) 0.082(11) 0.067(7) 0.000 -0.048(7) 0.000
O4 0.0288(19) 0.0288(19) 0.029(2) -0.0089(16) -0.0051(16) 0.0055(16)
C1 0.021(2) 0.021(3) 0.021(2) -0.0001(18) 0.001(3) 0.0001(18)
C2 0.023(2) 0.023(2) 0.025(3) -0.004(2) -0.004(2) 0.003(3)
C3 0.024(2) 0.021(3) 0.024(2) -0.003(2) 0.001(3) 0.003(2)
Cu1W 0.0168 0.0182 0.0168 0 -0.0018 0
Cu1J 0.0182 0.0168 0.0168 -0.0018 0 0
Cu1O 0.0182 0.0168 0.0168 -0.0018 0 0
Cu1G 0.0168 0.0168 0.0182 0 0 0.0018
Cu1S 0.0168 0.0168 0.0182 0 0 0.0018
Cu1EA 0.0168 0.0168 0.0182 0 0 0.0018
Cu1QA 0.0168 0.0168 0.0182 0 0 0.0018
Cu1IB 0.0182 0.0168 0.0168 -0.0018 0 0
Cu1DB 0.0182 0.0168 0.0168 -0.0018 0 0
Cu1I 0.0182 0.0168 0.0168 0.0018 0 0
Cu1N 0.0182 0.0168 0.0168 0.0018 0 0
Cu1F 0.0168 0.0168 0.0182 0 0 -0.0018
Cu1P 0.0168 0.0168 0.0182 0 0 -0.0018
Cu1DA 0.0168 0.0168 0.0182 0 0 -0.0018
Cu1NA 0.0168 0.0168 0.0182 0 0 -0.0018
Cu1HB 0.0182 0.0168 0.0168 0.0018 0 0
Cu1GB 0.0182 0.0168 0.0168 0.0018 0 0
Cu1SA 0.0168 0.0182 0.0168 0 -0.0018 0
Cu1Z 0.0168 0.0182 0.0168 0 -0.0018 0
Cu1OA 0.0168 0.0168 0.0182 0 0 0.0018
Cu1CA 0.0168 0.0168 0.0182 0 0 0.0018
Cu1D 0.0168 0.0168 0.0182 0 0 -0.0018
Cu1R 0.0168 0.0168 0.0182 0 0 -0.0018
Cu1A 0.0168 0.0182 0.0168 0 0.0018 0
Cu1T 0.0168 0.0182 0.0168 0 0.0018 0
Cu1TA 0.0168 0.0182 0.0168 0 0.0018 0
Cu1AA 0.0168 0.0182 0.0168 0 0.0018 0
Cu1FB 0.0182 0.0168 0.0168 -0.0018 0 0
Cu1KB 0.0182 0.0168 0.0168 -0.0018 0 0
Cu1X 0.0168 0.0182 0.0168 0 -0.0018 0
Cu1UA 0.0168 0.0182 0.0168 0 -0.0018 0
O2W 0.067 0.082 0.067 0 -0.048 0
O2J 0.082 0.067 0.067 -0.048 0 0
O2O 0.082 0.067 0.067 -0.048 0 0
O2G 0.067 0.067 0.082 0 0 0.048
O2S 0.067 0.067 0.082 0 0 0.048
O2EA 0.067 0.067 0.082 0 0 0.048
O2QA 0.067 0.067 0.082 0 0 0.048
O2IB 0.082 0.067 0.067 -0.048 0 0
O2DB 0.082 0.067 0.067 -0.048 0 0
O2I 0.082 0.067 0.067 0.048 0 0
O2N 0.082 0.067 0.067 0.048 0 0
O4MD 0.029 0.0288 0.0288 -0.0055 -0.0051 0.0089
O4J 0.0288 0.029 0.0288 -0.0051 -0.0055 0.0089
O4ED 0.0288 0.0288 0.029 -0.0051 -0.0089 0.0055
O4G 0.029 0.0288 0.0288 -0.0055 -0.0089 0.0051
O4ID 0.0288 0.029 0.0288 -0.0089 -0.0055 0.0051
O4QB 0.029 0.0288 0.0288 -0.0055 -0.0051 0.0089
O4NE 0.0288 0.0288 0.029 -0.0089 -0.0051 0.0055
O4MB 0.0288 0.029 0.0288 -0.0089 -0.0055 0.0051
O4UE 0.029 0.0288 0.0288 -0.0055 -0.0089 0.0051
O4IB 0.0288 0.0288 0.029 -0.0051 -0.0089 0.0055
O4XE 0.0288 0.029 0.0288 -0.0051 -0.0055 0.0089
O4TC 0.0288 0.0288 0.029 0.0089 -0.0051 -0.0055
O4W 0.029 0.0288 0.0288 0.0055 -0.0051 -0.0089
O4CD 0.0288 0.029 0.0288 0.0051 -0.0055 -0.0089
O4N 0.0288 0.0288 0.029 0.0051 -0.0089 -0.0055
O4VC 0.029 0.0288 0.0288 0.0055 -0.0089 -0.0051
O4P 0.0288 0.029 0.0288 0.0089 -0.0055 -0.0051
O4KF 0.029 0.0288 0.0288 0.0055 -0.0051 -0.0089
O4XA 0.0288 0.0288 0.029 0.0089 -0.0051 -0.0055
O4DF 0.0288 0.029 0.0288 0.0089 -0.0055 -0.0051
O4ZA 0.029 0.0288 0.0288 0.0055 -0.0089 -0.0051
O4BF 0.0288 0.0288 0.029 0.0051 -0.0089 -0.0055
O4GB 0.0288 0.029 0.0288 0.0051 -0.0055 -0.0089
O4KA 0.0288 0.0288 0.029 -0.0051 -0.0089 0.0055
O4ZD 0.0288 0.029 0.0288 -0.0051 -0.0055 0.0089
O4SA 0.029 0.0288 0.0288 -0.0055 -0.0051 0.0089
O4PD 0.0288 0.0288 0.029 -0.0089 -0.0051 0.0055
O4OA 0.0288 0.029 0.0288 -0.0089 -0.0055 0.0051
O4WD 0.029 0.0288 0.0288 -0.0055 -0.0089 0.0051
O4ZC 0.0288 0.029 0.0288 -0.0051 0.0055 -0.0089
O4O 0.0288 0.0288 0.029 -0.0051 0.0089 -0.0055
O4XC 0.029 0.0288 0.0288 -0.0055 0.0089 -0.0051
O4R 0.0288 0.029 0.0288 -0.0089 0.0055 -0.0051
O4UC 0.0288 0.0288 0.029 -0.0089 0.0051 -0.0055
O4T 0.029 0.0288 0.0288 -0.0055 0.0051 -0.0089
O4EE 0.0288 0.0288 0.029 -0.0051 0.0089 -0.0055
O4FA 0.0288 0.029 0.0288 -0.0051 0.0055 -0.0089
O4JE 0.029 0.0288 0.0288 -0.0055 0.0051 -0.0089
O4AA 0.0288 0.0288 0.029 -0.0089 0.0051 -0.0055
O4HE 0.0288 0.029 0.0288 -0.0089 0.0055 -0.0051
O4DA 0.029 0.0288 0.0288 -0.0055 0.0089 -0.0051
O4KC 0.0288 0.029 0.0288 -0.0089 -0.0055 0.0051
O4SF 0.029 0.0288 0.0288 -0.0055 -0.0089 0.0051
O4GC 0.0288 0.0288 0.029 -0.0051 -0.0089 0.0055
O4VF 0.0288 0.029 0.0288 -0.0051 -0.0055 0.0089
O4OC 0.029 0.0288 0.0288 -0.0055 -0.0051 0.0089
O4LF 0.0288 0.0288 0.029 -0.0089 -0.0051 0.0055
O4WC 0.029 0.0288 0.0288 0.0055 0.0089 0.0051
O4EG 0.0288 0.029 0.0288 0.0089 0.0055 0.0051
O4S 0.0288 0.029 0.0288 0.0089 0.0055 0.0051
O4YB 0.029 0.0288 0.0288 0.0055 0.0089 0.0051
O4EA 0.029 0.0288 0.0288 -0.0055 -0.0089 0.0051
O4GF 0.0288 0.029 0.0288 0.0089 0.0055 0.0051
O4UD 0.029 0.0288 0.0288 0.0055 0.0089 0.0051
O4GE 0.0288 0.029 0.0288 -0.0089 -0.0055 0.0051
O4AB 0.029 0.0288 0.0288 0.0055 0.0089 0.0051
O4QA 0.0288 0.029 0.0288 0.0089 0.0055 0.0051
O4DC 0.0288 0.029 0.0288 -0.0051 -0.0055 0.0089
O4CF 0.0288 0.0288 0.029 -0.0051 0.0089 -0.0055
O4TF 0.0288 0.029 0.0288 -0.0051 0.0055 -0.0089
O4YF 0.0288 0.0288 0.029 -0.0051 -0.0089 0.0055
O4DB 0.0288 0.029 0.0288 -0.0051 0.0055 -0.0089
O4IC 0.0288 0.0288 0.029 -0.0051 0.0089 -0.0055
O4DE 0.0288 0.0288 0.029 0.0051 -0.0089 -0.0055
O4I 0.0288 0.029 0.0288 0.0051 0.0055 0.0089
O4JA 0.0288 0.0288 0.029 0.0051 0.0089 0.0055
O4IA 0.0288 0.029 0.0288 0.0051 -0.0055 -0.0089
O4DD 0.0288 0.0288 0.029 0.0051 0.0089 0.0055
O4YD 0.0288 0.029 0.0288 0.0051 0.0055 0.0089
C1J 0.021 0.021 0.021 0.001 -0.0001 0.0001
C1G 0.021 0.021 0.021 -0.0001 -0.0001 -0.001
C1QB 0.021 0.021 0.021 -0.0001 0.001 0.0001
C1MB 0.021 0.021 0.021 -0.0001 -0.0001 -0.001
C1IB 0.021 0.021 0.021 0.001 -0.0001 0.0001
C1W 0.021 0.021 0.021 0.0001 0.001 -0.0001
C1N 0.021 0.021 0.021 -0.001 -0.0001 -0.0001
C1P 0.021 0.021 0.021 0.0001 -0.0001 0.001
C1XA 0.021 0.021 0.021 0.0001 0.001 -0.0001
C1ZA 0.021 0.021 0.021 0.0001 -0.0001 0.001
C1GB 0.021 0.021 0.021 -0.001 -0.0001 -0.0001
C1KA 0.021 0.021 0.021 0.001 -0.0001 0.0001
C1SA 0.021 0.021 0.021 -0.0001 0.001 0.0001
C1OA 0.021 0.021 0.021 -0.0001 -0.0001 -0.001
C1O 0.021 0.021 0.021 0.001 0.0001 -0.0001
C1R 0.021 0.021 0.021 -0.0001 0.0001 0.001
C1T 0.021 0.021 0.021 -0.0001 -0.001 -0.0001
C1FA 0.021 0.021 0.021 0.001 0.0001 -0.0001
C1AA 0.021 0.021 0.021 -0.0001 -0.001 -0.0001
C1DA 0.021 0.021 0.021 -0.0001 0.0001 0.001
C1KC 0.021 0.021 0.021 -0.0001 -0.0001 -0.001
C1GC 0.021 0.021 0.021 0.001 -0.0001 0.0001
C1OC 0.021 0.021 0.021 -0.0001 0.001 0.0001
C2J 0.023 0.025 0.023 -0.004 -0.003 0.004
C2G 0.025 0.023 0.023 -0.003 -0.004 0.004
C2QB 0.025 0.023 0.023 -0.003 -0.004 0.004
C2MB 0.023 0.025 0.023 -0.004 -0.003 0.004
C2IB 0.023 0.023 0.025 -0.004 -0.004 0.003
C2N 0.023 0.023 0.025 0.004 -0.004 -0.003
C2P 0.023 0.025 0.023 0.004 -0.003 -0.004
C2W 0.025 0.023 0.023 0.003 -0.004 -0.004
C2ZA 0.025 0.023 0.023 0.003 -0.004 -0.004
C2GB 0.023 0.025 0.023 0.004 -0.003 -0.004
C2XA 0.023 0.023 0.025 0.004 -0.004 -0.003
C2KA 0.023 0.023 0.025 -0.004 -0.004 0.003
C2SA 0.025 0.023 0.023 -0.003 -0.004 0.004
C2OA 0.023 0.025 0.023 -0.004 -0.003 0.004
C2R 0.023 0.025 0.023 -0.004 0.003 -0.004
C2T 0.025 0.023 0.023 -0.003 0.004 -0.004
C2O 0.023 0.023 0.025 -0.004 0.004 -0.003
C2AA 0.023 0.023 0.025 -0.004 0.004 -0.003
C2DA 0.025 0.023 0.023 -0.003 0.004 -0.004
C2FA 0.023 0.025 0.023 -0.004 0.003 -0.004
C2KC 0.023 0.025 0.023 -0.004 -0.003 0.004
C2GC 0.023 0.023 0.025 -0.004 -0.004 0.003
C2OC 0.025 0.023 0.023 -0.003 -0.004 0.004
C3J 0.021 0.024 0.024 0.001 -0.003 0.003
C3G 0.024 0.024 0.021 -0.003 -0.003 -0.001
C3QB 0.024 0.021 0.024 -0.003 0.001 0.003
C3MB 0.024 0.024 0.021 -0.003 -0.003 -0.001
C3IB 0.021 0.024 0.024 0.001 -0.003 0.003
C3W 0.024 0.021 0.024 0.003 0.001 -0.003
C3N 0.021 0.024 0.024 -0.001 -0.003 -0.003
C3P 0.024 0.024 0.021 0.003 -0.003 0.001
C3XA 0.024 0.021 0.024 0.003 0.001 -0.003
C3ZA 0.024 0.024 0.021 0.003 -0.003 0.001
C3GB 0.021 0.024 0.024 -0.001 -0.003 -0.003
C3KA 0.021 0.024 0.024 0.001 -0.003 0.003
C3SA 0.024 0.021 0.024 -0.003 0.001 0.003
C3OA 0.024 0.024 0.021 -0.003 -0.003 -0.001
C3O 0.021 0.024 0.024 0.001 0.003 -0.003
C3R 0.024 0.024 0.021 -0.003 0.003 0.001
C3T 0.024 0.021 0.024 -0.003 -0.001 -0.003
C3FA 0.021 0.024 0.024 0.001 0.003 -0.003
C3AA 0.024 0.021 0.024 -0.003 -0.001 -0.003
C3DA 0.024 0.024 0.021 -0.003 0.003 0.001
C3KC 0.024 0.024 0.021 -0.003 -0.003 -0.001
C3GC 0.021 0.024 0.024 0.001 -0.003 0.003
C3OC 0.024 0.021 0.024 -0.003 0.001 0.003
K1 0.004(6) 0.086(16) 0.028(9) 0.000 -0.005(6) 0.000
O6 0.08(2) 0.08(2) 0.09(4) 0.02(2) -0.02(2) -0.03(3)
P1 0.0141(15) 0.0141(15) 0.0141(15) 0.000 0.000 0.000
W1 0.0255(2) 0.0397(3) 0.0255(2) 0.000 0.00772(17) 0.000
O1 0.039(3) 0.087(8) 0.039(3) 0.000 0.021(4) 0.000
O3 0.064(5) 0.063(3) 0.063(3) -0.032(4) -0.035(3) 0.035(3)
O5 0.045(6) 0.045(6) 0.045(6) 0.004(4) 0.004(4) -0.004(4)
W1J 0.0397 0.0255 0.0255 0.00772 0 0
W1F 0.0255 0.0255 0.0397 0 0 0.00772
W1G 0.0255 0.0255 0.0397 0 0 -0.00772
W1I 0.0397 0.0255 0.0255 -0.00772 0 0
W1A 0.0255 0.0397 0.0255 0 -0.00772 0
W1B 0.0255 0.0397 0.0255 0 0.00772 0
W1C 0.0255 0.0397 0.0255 0 -0.00772 0
W1K 0.0397 0.0255 0.0255 -0.00772 0 0
W1H 0.0397 0.0255 0.0255 0.00772 0 0
W1E 0.0255 0.0255 0.0397 0 0 -0.00772
W1D 0.0255 0.0255 0.0397 0 0 0.00772
O1J 0.087 0.039 0.039 0.021 0 0
O1F 0.039 0.039 0.087 0 0 0.021
O1G 0.039 0.039 0.087 0 0 -0.021
O1I 0.087 0.039 0.039 -0.021 0 0
O1A 0.039 0.087 0.039 0 -0.021 0
O1B 0.039 0.087 0.039 0 0.021 0
O1C 0.039 0.087 0.039 0 -0.021 0
O1K 0.087 0.039 0.039 -0.021 0 0
O1H 0.087 0.039 0.039 0.021 0 0
O1E 0.039 0.039 0.087 0 0 -0.021
O1D 0.039 0.039 0.087 0 0 0.021
O3J 0.063 0.063 0.064 -0.035 -0.035 0.032
O3P 0.064 0.063 0.063 0.032 -0.035 -0.035
O3W 0.063 0.063 0.064 0.035 -0.035 -0.032
O3G 0.063 0.064 0.063 -0.035 -0.032 0.035
O3T 0.063 0.063 0.064 -0.035 0.035 -0.032
O3O 0.063 0.064 0.063 -0.035 0.032 -0.035
O3N 0.063 0.064 0.063 0.035 -0.032 -0.035
O3C 0.064 0.063 0.063 -0.032 0.035 -0.035
O3F 0.063 0.064 0.063 -0.035 0.032 -0.035
O3L 0.063 0.064 0.063 0.035 0.032 0.035
O3S 0.064 0.063 0.063 0.032 0.035 0.035
O3E 0.063 0.064 0.063 0.035 0.032 0.035
O3I 0.063 0.063 0.064 0.035 0.035 0.032
O3A 0.064 0.063 0.063 0.032 0.035 0.035
O3R 0.064 0.063 0.063 -0.032 0.035 -0.035
O3B 0.064 0.063 0.063 0.032 -0.035 -0.035
O3K 0.063 0.063 0.064 0.035 -0.035 -0.032
O3Q 0.064 0.063 0.063 -0.032 -0.035 0.035
O3U 0.063 0.063 0.064 -0.035 -0.035 0.032
O3H 0.063 0.063 0.064 -0.035 0.035 -0.032
O3V 0.063 0.063 0.064 0.035 0.035 0.032
O3D 0.063 0.064 0.063 0.035 -0.032 -0.035
O3M 0.063 0.064 0.063 -0.035 -0.032 0.035
O5A 0.045 0.045 0.045 -0.004 -0.004 -0.004
O5B 0.045 0.045 0.045 -0.004 0.004 0.004
O5C 0.045 0.045 0.045 0.004 -0.004 0.004
O5L 0.045 0.045 0.045 -0.004 -0.004 -0.004
O5M 0.045 0.045 0.045 0.004 0.004 -0.004
O5N 0.045 0.045 0.045 -0.004 0.004 0.004
O5O 0.045 0.045 0.045 0.004 -0.004 0.004
loop_
_geom_bond_atom_site_label_1
_geom_bond_atom_site_label_2
_geom_bond_site_symmetry_1
_geom_bond_site_symmetry_2
P1 O5 1_555 1_555
W1 O1 1_555 1_555
Cu1 O2 1_555 1_555
O3 W1 1_555 1_555
O4 Cu1 1_555 1_555
C1 O4 1_555 1_555
C2 H1 1_555 1_555
C3 C1 1_555 1_555
O5 W1 1_555 1_555
W1J O5 1_555 1_555
W1F O1F 1_555 1_555
W1G O3 1_555 1_555
W1I O1I 1_555 1_555
W1A O1A 1_555 1_555
W1B O1B 1_555 1_555
W1C O1C 1_555 1_555
W1K O1K 1_555 1_555
W1H O1H 1_555 1_555
W1E O1E 1_555 1_555
W1D O1D 1_555 1_555
Cu1W Cu1 1_555 1_555
Cu1J Cu1O 1_555 1_555
Cu1O O2O 1_555 1_555
Cu1G Cu1S 1_555 1_555
Cu1S O2S 1_555 1_555
Cu1EA Cu1QA 1_555 1_555
Cu1QA O2QA 1_555 1_555
Cu1IB Cu1DB 1_555 1_555
Cu1DB O2DB 1_555 1_555
Cu1I Cu1N 1_555 1_555
Cu1N O2N 1_555 1_555
Cu1F Cu1P 1_555 1_555
Cu1P O4P 1_555 1_555
Cu1DA Cu1NA 1_555 1_555
Cu1NA O4ZA 1_555 1_555
Cu1HB Cu1GB 1_555 1_555
Cu1GB O4GB 1_555 1_555
Cu1SA Cu1Z 1_555 1_555
Cu1Z O4PD 1_555 1_555
Cu1OA Cu1CA 1_555 1_555
Cu1CA O4WD 1_555 1_555
Cu1D Cu1R 1_555 1_555
Cu1R O4R 1_555 1_555
Cu1A Cu1T 1_555 1_555
Cu1T O4T 1_555 1_555
Cu1TA Cu1AA 1_555 1_555
Cu1AA O4AA 1_555 1_555
Cu1FB Cu1KB 1_555 1_555
Cu1KB O4VF 1_555 1_555
Cu1X Cu1UA 1_555 1_555
Cu1UA O4LF 1_555 1_555
O1J W1J 1_555 1_555
O1G W1G 1_555 1_555
O2W Cu1W 1_555 1_555
O2J Cu1J 1_555 1_555
O2G Cu1G 1_555 1_555
O2EA Cu1EA 1_555 1_555
O2IB Cu1IB 1_555 1_555
O2I Cu1I 1_555 1_555
O3J W1 1_555 1_555
O3P W1 1_555 1_555
O3W W1 1_555 1_555
O3G W1J 1_555 1_555
O3T W1J 1_555 1_555
O3O W1J 1_555 1_555
O3N W1F 1_555 1_555
O3C W1F 1_555 1_555
O3F W1F 1_555 1_555
O3L W1G 1_555 1_555
O3S W1G 1_555 1_555
O3E W1I 1_555 1_555
O3I W1I 1_555 1_555
O3A W1A 1_555 1_555
O3R W1A 1_555 1_555
O3B W1B 1_555 1_555
O3K W1B 1_555 1_555
O3Q W1B 1_555 1_555
O3U W1B 1_555 1_555
O3H W1C 1_555 1_555
O3V W1C 1_555 1_555
O3D W1K 1_555 1_555
O3M W1H 1_555 1_555
O4MD C1 1_555 1_555
O4J Cu1J 1_555 1_555
O4ED Cu1O 1_555 1_555
O4G Cu1G 1_555 1_555
O4ID Cu1S 1_555 1_555
O4QB Cu1 1_555 1_555
O4NE Cu1W 1_555 1_555
O4MB Cu1EA 1_555 1_555
O4UE Cu1QA 1_555 1_555
O4IB Cu1IB 1_555 1_555
O4XE Cu1DB 1_555 1_555
O4TC Cu1 1_555 1_555
O4W Cu1W 1_555 1_555
O4CD Cu1I 1_555 1_555
O4N Cu1N 1_555 1_555
O4VC Cu1F 1_555 1_555
O4P C1P 1_555 1_555
O4KF Cu1 1_555 1_555
O4XA Cu1W 1_555 1_555
O4DF Cu1DA 1_555 1_555
O4ZA C1ZA 1_555 1_555
O4BF Cu1HB 1_555 1_555
O4GB C1GB 1_555 1_555
O4KA Cu1J 1_555 1_555
O4ZD Cu1O 1_555 1_555
O4SA Cu1SA 1_555 1_555
O4PD C1SA 1_555 1_555
O4OA Cu1OA 1_555 1_555
O4WD C1OA 1_555 1_555
O4ZC Cu1J 1_555 1_555
O4O Cu1O 1_555 1_555
O4XC Cu1D 1_555 1_555
O4R C1R 1_555 1_555
O4UC Cu1A 1_555 1_555
O4T C1T 1_555 1_555
O4EE Cu1J 1_555 1_555
O4FA Cu1O 1_555 1_555
O4JE Cu1TA 1_555 1_555
O4AA C1AA 1_555 1_555
O4HE Cu1NA 1_555 1_555
O4DA Cu1DA 1_555 1_555
O4KC Cu1G 1_555 1_555
O4SF Cu1S 1_555 1_555
O4GC Cu1FB 1_555 1_555
O4VF C1GC 1_555 1_555
O4OC Cu1X 1_555 1_555
O4LF C1OC 1_555 1_555
O4WC Cu1G 1_555 1_555
O4EG Cu1G 1_555 1_555
O4S Cu1S 1_555 1_555
O4YB Cu1S 1_555 1_555
O4EA Cu1EA 1_555 1_555
O4GF Cu1EA 1_555 1_555
O4UD Cu1EA 1_555 1_555
O4GE Cu1QA 1_555 1_555
O4AB Cu1QA 1_555 1_555
O4QA Cu1QA 1_555 1_555
O4DC Cu1IB 1_555 1_555
O4CF Cu1IB 1_555 1_555
O4TF Cu1IB 1_555 1_555
O4YF Cu1DB 1_555 1_555
O4DB Cu1DB 1_555 1_555
O4IC Cu1DB 1_555 1_555
O4DE Cu1I 1_555 1_555
O4I Cu1I 1_555 1_555
O4JA Cu1I 1_555 1_555
O4IA Cu1N 1_555 1_555
O4DD Cu1N 1_555 1_555
O4YD Cu1N 1_555 1_555
C1J O4J 1_555 1_555
C1G O4G 1_555 1_555
C1QB O4QB 1_555 1_555
C1MB O4MB 1_555 1_555
C1IB O4IB 1_555 1_555
C1W O4TC 1_555 1_555
C1N O4CD 1_555 1_555
C1P O4VC 1_555 1_555
C1XA O4KF 1_555 1_555
C1ZA O4DF 1_555 1_555
C1GB O4BF 1_555 1_555
C1KA O4KA 1_555 1_555
C1SA O4SA 1_555 1_555
C1OA O4OA 1_555 1_555
C1O O4ZC 1_555 1_555
C1R O4XC 1_555 1_555
C1T O4UC 1_555 1_555
C1FA O4EE 1_555 1_555
C1AA O4JE 1_555 1_555
C1DA O4HE 1_555 1_555
C1KC O4KC 1_555 1_555
C1GC O4GC 1_555 1_555
C1OC O4OC 1_555 1_555
C2J H1J 1_555 1_555
C2G C3 1_555 1_555
C2QB H1QB 1_555 1_555
C2MB H1MB 1_555 1_555
C2IB H1IB 1_555 1_555
C2N H1N 1_555 1_555
C2P H1P 1_555 1_555
C2W H1W 1_555 1_555
C2ZA H1ZA 1_555 1_555
C2GB H1GB 1_555 1_555
C2XA H1XA 1_555 1_555
C2KA H1KA 1_555 1_555
C2SA H1SA 1_555 1_555
C2OA H1OA 1_555 1_555
C2R H1R 1_555 1_555
C2T H1T 1_555 1_555
C2O H1O 1_555 1_555
C2AA H1AA 1_555 1_555
C2DA H1DA 1_555 1_555
C2FA H1FA 1_555 1_555
C2KC H1KC 1_555 1_555
C2GC H1GC 1_555 1_555
C2OC H1OC 1_555 1_555
H1G C2G 1_555 1_555
C3J C2 1_555 1_555
C3G C1G 1_555 1_555
C3QB C1QB 1_555 1_555
C3MB C1MB 1_555 1_555
C3IB C1IB 1_555 1_555
C3W C1W 1_555 1_555
C3N C1N 1_555 1_555
C3P C1P 1_555 1_555
C3XA C1XA 1_555 1_555
C3ZA C1ZA 1_555 1_555
C3GB C1GB 1_555 1_555
C3KA C1KA 1_555 1_555
C3SA C1SA 1_555 1_555
C3OA C1OA 1_555 1_555
C3O C1O 1_555 1_555
C3R C1R 1_555 1_555
C3T C1T 1_555 1_555
C3FA C1FA 1_555 1_555
C3AA C1AA 1_555 1_555
C3DA C1DA 1_555 1_555
C3KC C1KC 1_555 1_555
C3GC C1GC 1_555 1_555
C3OC C1OC 1_555 1_555
O5A P1 1_555 1_555
O5B P1 1_555 1_555
O5C P1 1_555 1_555
O5L P1 1_555 1_555
O5M P1 1_555 1_555
O5N P1 1_555 1_555
O5O P1 1_555 1_555
W1 O5N 1_555 1_555
C2 C3 1_555 1_555
O5 W1G 1_555 1_555
W1J O3J 1_555 1_555
W1J O5O 1_555 1_555
W1F O3P 1_555 1_555
W1F O5C 1_555 1_555
W1F O5N 1_555 1_555
W1G O3G 1_555 1_555
W1G O5L 1_555 1_555
W1I O3W 1_555 1_555
W1I O3N 1_555 1_555
W1I O5A 1_555 1_555
W1I O5N 1_555 1_555
W1A O3T 1_555 1_555
W1A O3I 1_555 1_555
W1A O5A 1_555 1_555
W1A O5O 1_555 1_555
W1B O5B 1_555 1_555
W1B O5M 1_555 1_555
W1C O3C 1_555 1_555
W1C O3S 1_555 1_555
W1C O5C 1_555 1_555
W1C O5L 1_555 1_555
W1K O3L 1_555 1_555
W1K O3K 1_555 1_555
W1K O3V 1_555 1_555
W1K O5B 1_555 1_555
W1K O5L 1_555 1_555
W1H O3F 1_555 1_555
W1H O3U 1_555 1_555
W1H O3H 1_555 1_555
W1H O5C 1_555 1_555
W1H O5M 1_555 1_555
W1E O3E 1_555 1_555
W1E O3A 1_555 1_555
W1E O3Q 1_555 1_555
W1E O3M 1_555 1_555
W1E O5A 1_555 1_555
W1E O5M 1_555 1_555
W1D O3O 1_555 1_555
W1D O3R 1_555 1_555
W1D O3B 1_555 1_555
W1D O3D 1_555 1_555
W1D O5B 1_555 1_555
W1D O5O 1_555 1_555
Cu1W O4MD 1_555 1_555
O4ED C1J 1_555 1_555
O4ID C1G 1_555 1_555
O4NE C1QB 1_555 1_555
O4UE C1MB 1_555 1_555
O4XE C1IB 1_555 1_555
O4W C1W 1_555 1_555
O4N C1N 1_555 1_555
O4XA C1XA 1_555 1_555
O4ZD C1KA 1_555 1_555
O4O C1O 1_555 1_555
O4FA C1FA 1_555 1_555
O4DA C1DA 1_555 1_555
O4SF C1KC 1_555 1_555
C1J C3J 1_555 1_555
C2J C3J 1_555 1_555
C2J C3G 1_555 1_555
C2G C3G 1_555 1_555
C2QB C3QB 1_555 1_555
C2QB C3MB 1_555 1_555
C2MB C3MB 1_555 1_555
C2MB C3IB 1_555 1_555
C2IB C3QB 1_555 1_555
C2IB C3IB 1_555 1_555
C2N C3W 1_555 1_555
C2N C3N 1_555 1_555
C2P C3N 1_555 1_555
C2P C3P 1_555 1_555
C2W C3W 1_555 1_555
C2W C3P 1_555 1_555
C2ZA C3XA 1_555 1_555
C2ZA C3ZA 1_555 1_555
C2GB C3ZA 1_555 1_555
C2GB C3GB 1_555 1_555
C2XA C3XA 1_555 1_555
C2XA C3GB 1_555 1_555
C2KA C3KA 1_555 1_555
C2KA C3SA 1_555 1_555
C2SA C3SA 1_555 1_555
C2SA C3OA 1_555 1_555
C2OA C3KA 1_555 1_555
C2OA C3OA 1_555 1_555
C2R C3O 1_555 1_555
C2R C3R 1_555 1_555
C2T C3R 1_555 1_555
C2T C3T 1_555 1_555
C2O C3O 1_555 1_555
C2O C3T 1_555 1_555
C2AA C3FA 1_555 1_555
C2AA C3AA 1_555 1_555
C2DA C3AA 1_555 1_555
C2DA C3DA 1_555 1_555
C2FA C3FA 1_555 1_555
C2FA C3DA 1_555 1_555
C2KC C3KC 1_555 1_555
C2KC C3GC 1_555 1_555
C2GC C3GC 1_555 1_555
C2GC C3OC 1_555 1_555
C2OC C3KC 1_555 1_555
C2OC C3OC 1_555 1_555

#END
