
#######################################################################
#
#                 Cambridge Crystallographic Data Centre
#                                CCDC 
#
#######################################################################
#
# If this CIF has been generated from an entry in the Cambridge 
# Structural Database, then it will include bibliographic, chemical, 
# crystal, experimental, refinement or atomic coordinate data resulting 
# from the CCDC's data processing and validation procedures.
#
#######################################################################

data_IJOMOJ02
_chemical_formula_moiety         '(C12 H12 Mn6 O24)n'
_symmetry_cell_setting           monoclinic
_symmetry_space_group_name_H-M   'P 21/n'
_symmetry_Int_Tables_number      14
_space_group_name_Hall           '-P 2yn'
loop_
_symmetry_equiv_pos_site_id
_symmetry_equiv_pos_as_xyz
1 x,y,z
2 1/2-x,1/2+y,1/2-z
3 -x,-y,-z
4 1/2+x,1/2-y,1/2+z
_cell_length_a                   11.7203(12)
_cell_length_b                   10.2070(11)
_cell_length_c                   14.9556(15)
_cell_angle_alpha                90
_cell_angle_beta                 91.439(2)
_cell_angle_gamma                90
_cell_volume                     1788.56
loop_
_atom_site_label
_atom_site_type_symbol
_atom_site_fract_x
_atom_site_fract_y
_atom_site_fract_z
Mn1 Mn 0.25685(4) 0.92065(4) 0.13112(3)
Mn2 Mn 0.26022(4) 0.60714(5) 0.18696(3)
Mn3 Mn 0.0000 1.0000 0.0000
Mn4 Mn 0.5000 1.0000 0.0000
O1 O 0.3512(2) 1.0808(2) 0.19585(16)
O2 O 0.3156(2) 0.9340(2) 0.36588(16)
O3 O 0.1542(2) 0.7423(2) 0.10734(15)
O4 O 0.1859(2) 1.0290(2) 0.02059(16)
O5 O 0.3048(2) 0.7995(2) 0.24826(15)
O6 O 0.12778(19) 1.0074(2) 0.21772(16)
O7 O 0.4008(2) 0.8413(2) 0.06163(16)
O8 O 0.0211(2) 0.7903(3) 0.00299(19)
O9 O 0.3926(2) 0.6278(2) 0.09422(18)
O10 O -0.0357(2) 0.9984(3) 0.14099(18)
O11 O 0.3464(2) 1.1053(3) -0.0352(2)
O12 O 0.5124(2) 1.1094(3) 0.12303(19)
C1 C 0.4481(3) 1.1313(4) 0.1843(3)
H1 H 0.4735 1.1924 0.2274
C2 C 0.4327(3) 0.7226(4) 0.0552(3)
H2 H 0.4932 0.7056 0.0168
C3 C 0.3289(3) 0.8266(3) 0.3291(2)
H3 H 0.3598 0.7588 0.3646
C4 C 0.0776(3) 0.7132(3) 0.0489(3)
H4 H 0.0628 0.6235 0.0400
C5 C 0.0206(3) 1.0144(4) 0.2095(2)
H5 H -0.0197 1.0338 0.2615
C6 C 0.2422(3) 1.1001(4) -0.0324(2)
H6 H 0.2003 1.1530 -0.0728
Mn1B Mn -0.25685(4) 1.07935(4) -0.13112(3)
Mn1A Mn 0.24315(4) 0.42065(4) 0.36888(3)
Mn1B_2 Mn 0.74315(4) 1.07935(4) -0.13112(3)
Mn2B Mn -0.26022(4) 1.39286(5) -0.18696(3)
Mn2A Mn 0.23978(4) 1.10714(5) 0.31304(3)
Mn2C Mn -0.23978(4) 0.89286(5) -0.31304(3)
Mn2A_2 Mn 0.23978(4) 0.10714(5) 0.31304(3)
Mn2B_2 Mn 0.73978(4) 1.39286(5) -0.18696(3)
Mn4_2 Mn -0.5000 1.0000 0.0000
Mn4C Mn -0.0000 0.5000 0.5000
O1A O 0.1488(2) 0.5808(2) 0.30415(16)
O1B O -0.3512(2) 0.9192(2) -0.19585(16)
O1C O -0.1488(2) 1.4192(2) -0.30415(16)
O2A O 0.1844(2) 0.4340(2) 0.13412(16)
O2C O -0.1844(2) 1.5660(2) -0.13412(16)
O3B O -0.1542(2) 1.2577(2) -0.10734(15)
O4B O -0.1859(2) 0.9710(2) -0.02059(16)
O5A O 0.1952(2) 0.2995(2) 0.25174(15)
O5B O -0.3048(2) 1.2005(2) -0.24826(15)
O6B O -0.12778(19) 0.9926(2) -0.21772(16)
O6A O 0.37222(19) 0.5074(2) 0.28228(16)
O6C O -0.37222(19) 1.4926(2) -0.28228(16)
O7B O 0.5992(2) 1.1587(2) -0.06163(16)
O7B_2 O -0.4008(2) 1.1587(2) -0.06163(16)
O8B O -0.0211(2) 1.2097(3) -0.00299(19)
O9B O 0.6074(2) 1.3722(2) -0.09422(18)
O9B_2 O -0.3926(2) 1.3722(2) -0.09422(18)
O10B O 0.0357(2) 1.0016(3) -0.14099(18)
O11B O -0.3464(2) 0.8947(3) 0.0352(2)
O11B_2 O 0.6536(2) 0.8947(3) 0.0352(2)
O12A O -0.0124(2) 0.6094(3) 0.37697(19)
O12B O 0.4876(2) 0.8906(3) -0.12303(19)
C1A C 0.0519(3) 0.6313(4) 0.3157(3)
H1A H 0.0265 0.6924 0.2726
C2B C 0.5673(3) 1.2774(4) -0.0552(3)
H2B H 0.5068 1.2944 -0.0168
C3A C 0.1711(3) 0.3266(3) 0.1709(2)
H3A H 0.1402 0.2588 0.1354
C4B C -0.0776(3) 1.2868(3) -0.0489(3)
H4B H -0.0628 1.3765 -0.0400
C5B C -0.0206(3) 0.9856(4) -0.2095(2)
H5B H 0.0197 0.9662 -0.2615
C6B C -0.2422(3) 0.8999(4) 0.0324(2)
H6B H -0.2003 0.8470 0.0728
loop_
_geom_bond_atom_site_label_1
_geom_bond_atom_site_label_2
_geom_bond_site_symmetry_1
_geom_bond_site_symmetry_2
Mn1 O1 1_555 1_555
Mn2 O3 1_555 1_555
Mn3 O4 1_555 1_555
Mn4 O7 1_555 1_555
O1 C1 1_555 1_555
O2 C3 1_555 1_555
O3 Mn1 1_555 1_555
O4 Mn1 1_555 1_555
O5 Mn1 1_555 1_555
O6 Mn1 1_555 1_555
O7 Mn1 1_555 1_555
O8 Mn3 1_555 1_555
O9 Mn2 1_555 1_555
O10 Mn3 1_555 1_555
O11 Mn4 1_555 1_555
O12 Mn4 1_555 1_555
C1 O12 1_555 1_555
H1 C1 1_555 1_555
C2 O7 1_555 1_555
H2 C2 1_555 1_555
C3 O5 1_555 1_555
H3 C3 1_555 1_555
C4 O3 1_555 1_555
H4 C4 1_555 1_555
C5 O6 1_555 1_555
H5 C5 1_555 1_555
C6 O4 1_555 1_555
H6 C6 1_555 1_555
Mn1B O1B 1_555 1_555
Mn1A O1A 1_555 1_555
Mn1B_2 O7B 1_555 1_555
Mn2B O1C 1_555 1_555
Mn2A O1 1_555 1_555
Mn2C O1B 1_555 1_555
Mn2A_2 O5A 1_555 1_555
Mn2B_2 O9B 1_555 1_555
Mn4_2 O7B_2 1_555 1_555
Mn4C O12A 1_555 1_555
O1A Mn2 1_555 1_555
O2A Mn2 1_555 1_555
O2C Mn2B 1_555 1_555
O3B Mn1B 1_555 1_555
O4B Mn3 1_555 1_555
O5A Mn1A 1_555 1_555
O5B Mn1B 1_555 1_555
O6B Mn1B 1_555 1_555
O6A Mn2 1_555 1_555
O6C Mn2B 1_555 1_555
O7B Mn4 1_555 1_555
O7B_2 Mn1B 1_555 1_555
O8B Mn3 1_555 1_555
O9B C2B 1_555 1_555
O9B_2 Mn2B 1_555 1_555
O10B Mn3 1_555 1_555
O11B Mn4_2 1_555 1_555
O11B_2 Mn4 1_555 1_555
O12A C1A 1_555 1_555
O12B Mn4 1_555 1_555
C1A O1A 1_555 1_555
H1A C1A 1_555 1_555
C2B O7B 1_555 1_555
H2B C2B 1_555 1_555
C3A O2A 1_555 1_555
H3A C3A 1_555 1_555
C4B O3B 1_555 1_555
H4B C4B 1_555 1_555
C5B O6B 1_555 1_555
H5B C5B 1_555 1_555
C6B O4B 1_555 1_555
H6B C6B 1_555 1_555
Mn2 O5 1_555 1_555
O2 Mn2A 1_555 1_555
O6 Mn2A 1_555 1_555
O8 C4 1_555 1_555
O9 C2 1_555 1_555
O10 C5 1_555 1_555
O11 C6 1_555 1_555
Mn1B O4B 1_555 1_555
Mn1A O6A 1_555 1_555
Mn2B O3B 1_555 1_555
Mn2B O5B 1_555 1_555
Mn2C O6B 1_555 1_555
O5A C3A 1_555 1_555
O8B C4B 1_555 1_555
O10B C5B 1_555 1_555
O11B C6B 1_555 1_555

#END
