
#######################################################################
#
#                 Cambridge Crystallographic Data Centre
#                                CCDC 
#
#######################################################################
#
# If this CIF has been generated from an entry in the Cambridge 
# Structural Database, then it will include bibliographic, chemical, 
# crystal, experimental, refinement or atomic coordinate data resulting 
# from the CCDC's data processing and validation procedures.
#
#######################################################################

data_AHEBAS
_chemical_formula_moiety         '(C42 H42 Cu3 N4 O17)n'
_symmetry_cell_setting           monoclinic
_symmetry_space_group_name_H-M   'C 2'
_symmetry_Int_Tables_number      5
_space_group_name_Hall           'C 2y'
loop_
_symmetry_equiv_pos_site_id
_symmetry_equiv_pos_as_xyz
1 x,y,z
2 -x,y,-z
3 1/2+x,1/2+y,z
4 1/2-x,1/2+y,-z
_cell_length_a                   20.7929(8)
_cell_length_b                   12.4871(7)
_cell_length_c                   19.5025(9)
_cell_angle_alpha                90
_cell_angle_beta                 97.329(4)
_cell_angle_gamma                90
_cell_volume                     5022.32
loop_
_atom_site_label
_atom_site_type_symbol
_atom_site_fract_x
_atom_site_fract_y
_atom_site_fract_z
_atom_site_U_iso_or_equiv
_atom_site_thermal_displace_type
Cu1 Cu 0.30278(4) 0.23703(8) 0.18793(5) 0.0330 Uani
Cu2 Cu 0.39069(4) 0.37236(8) 0.14997(5) 0.0340 Uani
Cu3 Cu 0.51996(4) 0.83561(8) 0.43707(5) 0.0331 Uani
O1 O 0.4611(2) 0.7177(4) 0.4095(2) 0.0461 Uani
O2 O 0.0567(2) 0.4332(4) 0.5792(2) 0.0407 Uani
O3 O 0.4531(2) 0.2688(5) 0.1955(2) 0.0449 Uani
O4 O 0.3770(2) 0.4362(4) 0.2408(3) 0.0437 Uani
O5 O 0.3090(2) 0.3150(4) 0.2748(2) 0.0422 Uani
O6 O 0.0779(2) 0.4517(4) 0.4695(2) 0.0400 Uani
N1 N 0.5561(2) 0.8278(6) 0.3410(3) 0.0409 Uani
O7 O 0.41918(19) 0.7315(4) 0.5102(2) 0.0384 Uani
O8 O 0.61821(19) 0.2781(4) -0.0677(2) 0.0415 Uani
O9 O 0.8177(2) -0.0412(5) 0.1080(3) 0.0484 Uani
O10 O 0.3796(2) 0.1494(4) 0.2216(3) 0.0519 Uani
O11 O 0.7438(2) -0.1493(4) 0.1488(2) 0.0464 Uani
O12 O 0.2351(3) 0.1146(5) 0.2105(4) 0.0839 Uani
N2 N 0.1927(2) 0.5594(5) 0.5124(3) 0.0416 Uani
O13 O 0.6987(2) 0.1734(5) -0.0970(2) 0.0492 Uani
O14 O 0.2194(2) 0.3838(5) 0.5064(3) 0.0595 Uani
N3 N 0.5456(3) 0.1072(6) 0.2040(3) 0.0482 Uani
C1 C 0.4368(3) 0.1794(6) 0.2160(3) 0.0373 Uani
C2 C 0.6566(3) 0.1350(6) 0.0077(3) 0.0389 Uani
N4 N 0.4685(3) 0.4635(6) 0.1161(3) 0.0550 Uani
C3 C 0.4209(3) 0.6912(6) 0.4506(4) 0.0406 Uani
C4 C 0.2860(3) 0.4434(6) 0.3874(4) 0.0429 Uani
H1 H 0.2583 0.3857 0.3763 0.0520 Uiso
C5 C 0.6006(3) 0.0807(7) 0.1030(4) 0.0460 Uani
C6 C 0.0891(3) 0.4683(6) 0.5345(4) 0.0373 Uani
C7 C 0.6025(3) 0.1417(7) 0.0429(4) 0.0441 Uani
H2 H 0.5680 0.1861 0.0267 0.0530 Uiso
C8 C 0.5410(3) 0.0813(7) 0.1384(4) 0.0492 Uani
C9 C 0.6564(3) 0.2011(6) -0.0567(4) 0.0412 Uani
O15 O 0.4871(3) 0.0545(6) 0.1057(3) 0.0693 Uani
C10 C 0.4901(3) 0.1014(8) 0.2434(4) 0.0523 Uani
H3 H 0.4729 0.0283 0.2421 0.0630 Uiso
C11 C 0.2782(3) 0.5062(7) 0.4449(4) 0.0429 Uani
C12 C 0.3221(3) 0.5856(7) 0.4636(4) 0.0430 Uani
H4 H 0.3176 0.6272 0.5023 0.0520 Uiso
C13 C 0.3788(3) 0.5482(6) 0.3667(4) 0.0420 Uani
H5 H 0.4115 0.5639 0.3399 0.0510 Uiso
C14 C 0.3423(3) 0.3987(6) 0.2826(3) 0.0368 Uani
C15 C 0.7060(3) 0.0075(7) 0.0906(4) 0.0435 Uani
C16 C 0.3349(3) 0.4656(6) 0.3461(3) 0.0389 Uani
C17 C 0.6506(3) 0.0137(7) 0.1241(4) 0.0515 Uani
H6 H 0.6480 -0.0298 0.1624 0.0620 Uiso
C18 C 0.2268(3) 0.4772(7) 0.4904(4) 0.0437 Uani
C19 C 0.7601(3) -0.0668(7) 0.1180(4) 0.0423 Uani
C20 C 0.7079(3) 0.0713(7) 0.0314(4) 0.0451 Uani
H7 H 0.7443 0.0700 0.0083 0.0540 Uiso
C21 C 0.1475(3) 0.5378(6) 0.5621(4) 0.0460 Uani
H8 H 0.1707 0.5044 0.6035 0.0550 Uiso
C22 C 0.3742(3) 0.6062(6) 0.4255(4) 0.0397 Uani
C23 C 0.6189(3) 0.8198(8) 0.3383(4) 0.0598 Uani
H9 H 0.6473 0.8249 0.3791 0.0720 Uiso
C24 C 0.6029(3) 0.1556(9) 0.2473(4) 0.0679 Uani
H10 H 0.6429 0.1213 0.2385 0.0820 Uiso
H11 H 0.6058 0.2318 0.2387 0.0820 Uiso
C25 C 0.1908(4) 0.6713(7) 0.4898(5) 0.0619 Uani
H12 H 0.1904 0.6764 0.4401 0.0740 Uiso
H13 H 0.2276 0.7110 0.5125 0.0740 Uiso
C26 C 0.6018(4) 0.7973(9) 0.2160(5) 0.0736 Uani
H14 H 0.6174 0.7858 0.1740 0.0880 Uiso
C27 C 0.5157(4) 0.8201(8) 0.2824(4) 0.0605 Uani
H15 H 0.4713 0.8234 0.2846 0.0730 Uiso
C28 C 0.5196(4) 0.1300(10) 0.3177(4) 0.0735 Uani
H16 H 0.5032 0.1985 0.3313 0.0880 Uiso
H17 H 0.5086 0.0758 0.3499 0.0880 Uiso
C29 C 0.1262(4) 0.6484(8) 0.5795(6) 0.0796 Uani
H18 H 0.1554 0.6792 0.6171 0.0960 Uiso
H19 H 0.0826 0.6475 0.5923 0.0960 Uiso
C30 C 0.6442(4) 0.8041(9) 0.2759(5) 0.0783 Uani
H20 H 0.6887 0.7983 0.2751 0.0940 Uiso
C31 C 0.5176(4) 0.4068(10) 0.0962(5) 0.0785 Uani
H21 H 0.5160 0.3326 0.0996 0.0940 Uiso
C32 C 0.1286(4) 0.7115(9) 0.5113(6) 0.0837 Uani
H22 H 0.0919 0.6944 0.4772 0.1000 Uiso
H23 H 0.1300 0.7882 0.5193 0.1000 Uiso
C33 C 0.5714(5) 0.4527(15) 0.0706(7) 0.1121 Uani
H24 H 0.6043 0.4102 0.0571 0.1340 Uiso
C34 C 0.5368(5) 0.8075(9) 0.2185(4) 0.0716 Uani
H25 H 0.5075 0.8061 0.1782 0.0860 Uiso
C35 C 0.4705(5) 0.5691(10) 0.1097(6) 0.0954 Uani
H26 H 0.4379 0.6105 0.1248 0.1150 Uiso
C36 C 0.5221(8) 0.6212(13) 0.0796(8) 0.1492 Uani
H27 H 0.5197 0.6940 0.0697 0.1790 Uiso
C37 C 0.5896(5) 0.1350(18) 0.3180(6) 0.1588 Uani
H28 H 0.6092 0.0678 0.3345 0.1920 Uiso
H29 H 0.6077 0.1918 0.3484 0.1920 Uiso
C38 C 0.5738(7) 0.5640(14) 0.0660(8) 0.1289 Uani
H30 H 0.6104 0.5981 0.0538 0.1550 Uiso
Cu1A Cu 0.69722(4) 0.23703(8) -0.18793(5) 0.0330 Uani
Cu1B Cu 0.80278(4) -0.26297(8) 0.18793(5) 0.0330 Uani
Cu2A Cu 0.60931(4) 0.37236(8) -0.14997(5) 0.0340 Uani
Cu2B Cu 0.89069(4) -0.12764(8) 0.14997(5) 0.0340 Uani
Cu3A Cu 0.48004(4) 0.83561(8) 0.56293(5) 0.0331 Uani
Cu3B Cu 0.01996(4) 0.33561(8) 0.43707(5) 0.0331 Uani
Cu3C Cu -0.01996(4) 0.33561(8) 0.56293(5) 0.0331 Uani
O2C O 0.4433(2) 0.9332(4) 0.4208(2) 0.0407 Uani
O6B O 0.5779(2) 0.9517(4) 0.4695(2) 0.0400 Uani
O7A O 0.58082(19) 0.7315(4) 0.4898(2) 0.0384 Uani
O8A O 0.38179(19) 0.2781(4) 0.0677(2) 0.0415 Uani
O9B O 0.3177(2) 0.4588(5) 0.1080(3) 0.0484 Uani
O11B O 0.2438(2) 0.3507(4) 0.1488(2) 0.0464 Uani
O13A O 0.3013(2) 0.1734(5) 0.0970(2) 0.0492 Uani
O16 O 0.6500(5) 0.5232(11) 0.2906(5) 0.1570 Uani
C39 C 0.5449(10) 0.494(3) 0.3140(15) 0.2452 Uani
H31 H 0.5145 0.4354 0.3050 0.2960 Uiso
H32 H 0.5205 0.5596 0.3178 0.2960 Uiso
C40 C 0.5823(9) 0.503(2) 0.2607(13) 0.2192 Uani
H33 H 0.5666 0.5614 0.2303 0.2650 Uiso
H34 H 0.5797 0.4373 0.2339 0.2650 Uiso
C41 C 0.6540(10) 0.509(2) 0.3601(8) 0.2313 Uani
H35 H 0.6672 0.5755 0.3839 0.2810 Uiso
H36 H 0.6856 0.4544 0.3752 0.2810 Uiso
C42 C 0.5865(11) 0.476(2) 0.3761(9) 0.2190 Uani
H37 H 0.5861 0.4005 0.3889 0.2630 Uiso
H38 H 0.5734 0.5181 0.4136 0.2630 Uiso
O17 O 0.5000 -0.1075(15) 0.0000 0.0971 Uani
loop_
_atom_site_aniso_label
_atom_site_aniso_U_11
_atom_site_aniso_U_22
_atom_site_aniso_U_33
_atom_site_aniso_U_23
_atom_site_aniso_U_13
_atom_site_aniso_U_12
Cu1 0.0287(4) 0.0370(5) 0.0360(5) -0.0021(5) 0.0151(4) 0.0011(4)
Cu2 0.0293(4) 0.0388(6) 0.0364(5) 0.0007(5) 0.0143(4) 0.0024(4)
Cu3 0.0252(4) 0.0393(6) 0.0378(5) -0.0008(5) 0.0160(3) -0.0021(4)
O1 0.040(2) 0.053(3) 0.049(3) -0.020(3) 0.020(2) -0.015(2)
O2 0.038(2) 0.045(3) 0.043(3) -0.005(2) 0.020(2) -0.015(2)
O3 0.037(2) 0.055(3) 0.046(3) 0.012(3) 0.018(2) 0.010(2)
O4 0.036(2) 0.047(3) 0.053(3) -0.008(3) 0.024(2) -0.003(2)
O5 0.046(2) 0.045(3) 0.038(3) -0.006(2) 0.015(2) -0.004(2)
O6 0.040(2) 0.043(3) 0.039(3) -0.002(2) 0.0123(19) -0.009(2)
N1 0.038(3) 0.050(3) 0.038(3) 0.002(3) 0.018(2) -0.009(3)
O7 0.038(2) 0.045(3) 0.035(2) -0.008(3) 0.0160(19) -0.009(2)
O8 0.040(2) 0.045(3) 0.042(3) 0.008(2) 0.015(2) 0.009(2)
O9 0.039(2) 0.057(3) 0.052(3) 0.012(3) 0.017(2) 0.022(3)
O10 0.045(3) 0.055(3) 0.060(3) 0.009(3) 0.023(2) 0.017(3)
O11 0.037(2) 0.052(4) 0.052(3) 0.013(3) 0.013(2) 0.009(2)
O12 0.077(4) 0.060(4) 0.126(6) -0.010(4) 0.057(4) -0.018(3)
N2 0.036(3) 0.041(3) 0.054(4) -0.010(3) 0.030(3) -0.012(3)
O13 0.047(3) 0.056(3) 0.048(3) 0.010(3) 0.019(2) 0.009(3)
O14 0.052(3) 0.053(3) 0.079(4) -0.002(3) 0.030(3) -0.014(3)
N3 0.038(3) 0.064(4) 0.048(3) 0.009(3) 0.026(3) 0.017(3)
C1 0.033(3) 0.045(4) 0.038(4) 0.005(4) 0.020(3) 0.008(3)
C2 0.032(3) 0.051(5) 0.036(4) 0.015(4) 0.013(3) 0.004(3)
N4 0.056(4) 0.057(5) 0.054(4) 0.003(4) 0.015(3) -0.019(3)
C3 0.023(3) 0.043(4) 0.060(4) -0.007(4) 0.021(3) -0.004(3)
C4 0.030(3) 0.048(4) 0.052(4) -0.016(4) 0.010(3) -0.012(3)
C5 0.043(4) 0.063(5) 0.035(4) 0.007(4) 0.017(3) 0.013(4)
C6 0.032(3) 0.032(4) 0.051(4) 0.000(3) 0.017(3) -0.017(3)
C7 0.038(3) 0.055(5) 0.042(4) 0.002(4) 0.015(3) 0.012(3)
C8 0.041(4) 0.061(5) 0.048(4) 0.017(4) 0.015(3) 0.015(4)
C9 0.027(3) 0.053(5) 0.046(4) 0.013(4) 0.014(3) -0.005(3)
O15 0.048(3) 0.099(5) 0.065(4) 0.005(4) 0.023(3) 0.010(3)
C10 0.040(4) 0.061(5) 0.061(5) 0.023(4) 0.026(3) 0.019(4)
C11 0.029(3) 0.059(5) 0.044(4) -0.009(4) 0.017(3) -0.006(3)
C12 0.033(3) 0.054(5) 0.047(4) -0.010(4) 0.024(3) -0.008(3)
C13 0.037(3) 0.047(4) 0.045(4) -0.006(4) 0.017(3) -0.005(3)
C14 0.028(3) 0.046(5) 0.036(4) -0.003(3) 0.003(3) 0.005(3)
C15 0.038(3) 0.052(5) 0.044(4) 0.006(4) 0.019(3) 0.013(3)
C16 0.038(3) 0.041(4) 0.039(4) -0.004(3) 0.010(3) -0.001(3)
C17 0.054(4) 0.066(6) 0.038(4) 0.013(4) 0.019(3) 0.018(4)
C18 0.038(3) 0.057(5) 0.039(4) -0.005(4) 0.016(3) -0.015(4)
C19 0.039(4) 0.050(5) 0.040(4) -0.008(4) 0.013(3) 0.011(3)
C20 0.042(3) 0.057(5) 0.041(4) 0.012(4) 0.023(3) 0.011(4)
C21 0.043(3) 0.054(5) 0.046(4) -0.025(4) 0.025(3) -0.026(3)
C22 0.034(3) 0.043(4) 0.045(4) -0.009(4) 0.016(3) -0.005(3)
C23 0.042(4) 0.084(7) 0.059(5) -0.025(5) 0.028(3) -0.016(4)
C24 0.037(4) 0.103(8) 0.067(5) -0.009(6) 0.019(4) 0.000(5)
C25 0.053(4) 0.060(6) 0.079(6) -0.007(5) 0.033(4) -0.005(4)
C26 0.087(6) 0.085(8) 0.060(5) -0.015(5) 0.053(5) -0.018(6)
C27 0.049(4) 0.081(6) 0.054(5) 0.001(5) 0.016(3) 0.000(4)
C28 0.068(5) 0.115(9) 0.041(4) 0.011(5) 0.020(4) 0.028(6)
C29 0.072(6) 0.077(7) 0.101(8) -0.027(7) 0.054(6) -0.030(5)
C30 0.063(5) 0.102(9) 0.080(6) -0.035(6) 0.048(5) -0.032(5)
C31 0.050(4) 0.096(8) 0.096(7) -0.002(7) 0.034(5) -0.004(5)
C32 0.064(5) 0.066(7) 0.130(9) -0.016(7) 0.047(6) -0.004(5)
C33 0.066(6) 0.162(15) 0.118(10) 0.016(11) 0.049(6) -0.006(8)
C34 0.093(6) 0.085(8) 0.039(4) -0.001(5) 0.017(4) -0.017(6)
C35 0.098(8) 0.076(8) 0.116(10) -0.020(7) 0.028(7) -0.030(7)
C36 0.178(14) 0.112(12) 0.182(16) -0.004(12) 0.117(13) -0.068(12)
C37 0.080(7) 0.34(3) 0.063(7) -0.051(11) 0.035(6) -0.051(11)
C38 0.118(11) 0.132(14) 0.154(14) -0.021(12) 0.084(10) -0.049(11)
Cu1A 0.0287 0.037 0.036 0.0021 0.0151 -0.0011
Cu1B 0.0287 0.037 0.036 -0.0021 0.0151 0.0011
Cu2A 0.0293 0.0388 0.0364 -0.0007 0.0143 -0.0024
Cu2B 0.0293 0.0388 0.0364 0.0007 0.0143 0.0024
Cu3A 0.0252 0.0393 0.0378 0.0008 0.016 0.0021
Cu3B 0.0252 0.0393 0.0378 -0.0008 0.016 -0.0021
Cu3C 0.0252 0.0393 0.0378 0.0008 0.016 0.0021
O2C 0.038 0.045 0.043 0.005 0.02 0.015
O6B 0.04 0.043 0.039 -0.002 0.0123 -0.009
O7A 0.038 0.045 0.035 0.008 0.016 0.009
O8A 0.04 0.045 0.042 -0.008 0.015 -0.009
O9B 0.039 0.057 0.052 0.012 0.017 0.022
O11B 0.037 0.052 0.052 0.013 0.013 0.009
O13A 0.047 0.056 0.048 -0.01 0.019 -0.009
O16 0.153(9) 0.216(14) 0.112(7) 0.021(8) 0.056(7) -0.032(9)
C39 0.132(17) 0.34(4) 0.28(3) -0.12(3) 0.090(19) -0.06(2)
C40 0.155(17) 0.18(2) 0.29(3) 0.02(2) -0.097(19) -0.084(18)
C41 0.23(2) 0.36(4) 0.083(11) 0.065(17) -0.061(12) -0.08(2)
C42 0.23(2) 0.31(3) 0.124(15) 0.007(19) 0.050(15) -0.17(2)
O17 0.162(19) 0.052(12) 0.067(12) 0.000 -0.025(12) 0.000
loop_
_geom_bond_atom_site_label_1
_geom_bond_atom_site_label_2
_geom_bond_site_symmetry_1
_geom_bond_site_symmetry_2
Cu1 Cu2 1_555 1_555
Cu2 O3 1_555 1_555
Cu3 O1 1_555 1_555
O1 C3 1_555 1_555
O2 C6 1_555 1_555
O3 C1 1_555 1_555
O4 Cu2 1_555 1_555
O5 Cu1 1_555 1_555
O6 C6 1_555 1_555
N1 Cu3 1_555 1_555
O7 C3 1_555 1_555
O8 C9 1_555 1_555
O9 C19 1_555 1_555
O10 Cu1 1_555 1_555
O11 C19 1_555 1_555
O12 Cu1 1_555 1_555
N2 C18 1_555 1_555
O13 C9 1_555 1_555
O14 C18 1_555 1_555
N3 C8 1_555 1_555
C1 O10 1_555 1_555
C2 C7 1_555 1_555
N4 Cu2 1_555 1_555
C3 C22 1_555 1_555
C4 H1 1_555 1_555
C5 C7 1_555 1_555
C6 C21 1_555 1_555
C7 H2 1_555 1_555
C8 C5 1_555 1_555
C9 C2 1_555 1_555
O15 C8 1_555 1_555
C10 N3 1_555 1_555
H3 C10 1_555 1_555
C11 C4 1_555 1_555
C12 C11 1_555 1_555
H4 C12 1_555 1_555
C13 H5 1_555 1_555
C14 O4 1_555 1_555
C15 C17 1_555 1_555
C16 C4 1_555 1_555
C17 C5 1_555 1_555
H6 C17 1_555 1_555
C18 C11 1_555 1_555
C19 C15 1_555 1_555
C20 C2 1_555 1_555
H7 C20 1_555 1_555
C21 N2 1_555 1_555
H8 C21 1_555 1_555
C22 C12 1_555 1_555
C23 N1 1_555 1_555
H9 C23 1_555 1_555
C24 N3 1_555 1_555
H10 C24 1_555 1_555
H11 C24 1_555 1_555
C25 N2 1_555 1_555
H12 C25 1_555 1_555
H13 C25 1_555 1_555
C26 H14 1_555 1_555
C27 N1 1_555 1_555
H15 C27 1_555 1_555
C28 C10 1_555 1_555
H16 C28 1_555 1_555
H17 C28 1_555 1_555
C29 C21 1_555 1_555
H18 C29 1_555 1_555
H19 C29 1_555 1_555
C30 C23 1_555 1_555
H20 C30 1_555 1_555
C31 N4 1_555 1_555
H21 C31 1_555 1_555
C32 C25 1_555 1_555
H22 C32 1_555 1_555
H23 C32 1_555 1_555
C33 C31 1_555 1_555
H24 C33 1_555 1_555
C34 C26 1_555 1_555
H25 C34 1_555 1_555
C35 N4 1_555 1_555
H26 C35 1_555 1_555
C36 C35 1_555 1_555
H27 C36 1_555 1_555
C37 C24 1_555 1_555
H28 C37 1_555 1_555
H29 C37 1_555 1_555
C38 C33 1_555 1_555
H30 C38 1_555 1_555
O16 C40 1_555 1_555
C39 H31 1_555 1_555
H32 C39 1_555 1_555
C40 C39 1_555 1_555
H33 C40 1_555 1_555
H34 C40 1_555 1_555
C41 O16 1_555 1_555
H35 C41 1_555 1_555
H36 C41 1_555 1_555
C42 C39 1_555 1_555
H37 C42 1_555 1_555
H38 C42 1_555 1_555
Cu1A O13 1_555 1_555
Cu1B O11 1_555 1_555
Cu2A O8 1_555 1_555
Cu2B O9 1_555 1_555
Cu3A Cu3 1_555 1_555
Cu3B O6 1_555 1_555
Cu3C O2 1_555 1_555
O2C Cu3 1_555 1_555
O6B Cu3 1_555 1_555
O7A Cu3 1_555 1_555
O8A Cu2 1_555 1_555
O9B Cu2 1_555 1_555
O11B Cu1 1_555 1_555
O13A Cu1 1_555 1_555
O5 C14 1_555 1_555
O7 Cu3A 1_555 1_555
C1 C10 1_555 1_555
C13 C16 1_555 1_555
C13 C22 1_555 1_555
C14 C16 1_555 1_555
C15 C20 1_555 1_555
C26 C30 1_555 1_555
C27 C34 1_555 1_555
C28 C37 1_555 1_555
C29 C32 1_555 1_555
C36 C38 1_555 1_555
C41 C42 1_555 1_555
Cu1A Cu2A 1_555 1_555
Cu1B Cu2B 1_555 1_555
Cu3B Cu3C 1_555 1_555

#END
