
#######################################################################
#
#                 Cambridge Crystallographic Data Centre
#                                CCDC 
#
#######################################################################
#
# If this CIF has been generated from an entry in the Cambridge 
# Structural Database, then it will include bibliographic, chemical, 
# crystal, experimental, refinement or atomic coordinate data resulting 
# from the CCDC's data processing and validation procedures.
#
#######################################################################

data_DAMRAN
_chemical_formula_moiety         'C64 H56 Fe11 N30 O3'
_symmetry_cell_setting           orthorhombic
_symmetry_space_group_name_H-M   'C m m m'
_symmetry_Int_Tables_number      65
_space_group_name_Hall           '-C 2 2'
loop_
_symmetry_equiv_pos_site_id
_symmetry_equiv_pos_as_xyz
1 x,y,z
2 1/2+x,1/2+y,z
3 x,-y,-z
4 1/2+x,1/2-y,-z
5 -x,y,-z
6 1/2-x,1/2+y,-z
7 -x,-y,z
8 1/2-x,1/2-y,z
9 -x,-y,-z
10 1/2-x,1/2-y,-z
11 -x,y,z
12 1/2-x,1/2+y,z
13 x,-y,z
14 1/2+x,1/2-y,z
15 x,y,-z
16 1/2+x,1/2+y,-z
_cell_length_a                   7.160(2)
_cell_length_b                   34.398(11)
_cell_length_c                   19.626(4)
_cell_angle_alpha                90
_cell_angle_beta                 90
_cell_angle_gamma                90
_cell_volume                     4833.68
loop_
_atom_site_label
_atom_site_type_symbol
_atom_site_fract_x
_atom_site_fract_y
_atom_site_fract_z
Fe1 Fe 0.5000 0.5000 0.5000
N1 N 0.5000 0.5000 0.6027(3)
C1 C 0.5000 0.53205(16) 0.6449(3)
C2 C 0.5000 0.57031(17) 0.6238(3)
C3 C 0.5000 0.58246(15) 0.5563(3)
N2 N 0.5000 0.55841(16) 0.5000
C4 C 0.500000(7) 0.62266(17) 0.5338(3)
C5 C 0.5000 0.60101(18) 0.6786(3)
C6 C 0.6615(10) 0.6144(2) 0.7051(3)
C7 C 0.6611(11) 0.6407(2) 0.7576(3)
C8 C 0.5000 0.6543(2) 0.7848(4)
C9 C 0.5000 0.6816(2) 0.8425(3)
N3 N 0.6545(9) 0.69478(12) 0.8728(2)
N4 N 0.5932(8) 0.71766(11) 0.92308(18)
Fe2 Fe 0.7500 0.7500 1.0000
O1 O 1.0000 0.7131(4) 1.0000
C10 C 0.500000(7) 0.51936(17) 0.7151(3)
N5 N 0.1834(10) 0.5000 0.5000
C11 C -0.107(3) 0.4574(5) 0.500000(10)
C12 C 0.108(2) 0.500000(10) 0.4273(9)
C13 C 0.103(2) 0.4710(5) 0.4570(8)
H1 H 0.7756 0.6042 0.6886
H2 H 0.7754 0.6496 0.7763
H3 H 0.5000 0.5359 0.7542
H4 H 0.5000 0.6450 0.5624
H5 H 0.1502 0.5226 0.4039
H6 H 0.1569 0.4789 0.4023
H7 H 0.1513 0.4465 0.4589
H8 H -0.1465 0.4443 0.5399
C6J C 0.3385(10) 0.6144(2) 0.7051(3)
C7J C 0.3389(11) 0.6407(2) 0.7576(3)
N3J N 0.3455(9) 0.69478(12) 0.8728(2)
N4J N 0.4068(8) 0.71766(11) 0.92308(18)
H1J H 0.2244 0.6042 0.6886
H2J H 0.2246 0.6496 0.7763
C1L C 0.5000 0.46795(16) 0.6449(3)
C2L C 0.5000 0.42969(17) 0.6238(3)
C3L C 0.5000 0.41754(15) 0.5563(3)
N2H N 0.5000 0.44159(16) 0.5000
C4L C 0.500000(7) 0.37734(17) 0.5338(3)
C5L C 0.5000 0.39899(18) 0.6786(3)
C6L C 0.6615(10) 0.3856(2) 0.7051(3)
C7L C 0.6611(11) 0.3593(2) 0.7576(3)
C8L C 0.5000 0.3457(2) 0.7848(4)
C9L C 0.5000 0.3184(2) 0.8425(3)
N3L N 0.6545(9) 0.30522(12) 0.8728(2)
N4L N 0.5932(8) 0.28234(11) 0.92308(18)
C10L C 0.500000(7) 0.48064(17) 0.7151(3)
H1L H 0.7756 0.3958 0.6886
H2L H 0.7754 0.3504 0.7763
H3L H 0.5000 0.4641 0.7542
H4L H 0.5000 0.3550 0.5624
N1H N 0.5000 0.5000 0.3973(3)
C1D C 0.5000 0.53205(16) 0.3551(3)
C2D C 0.5000 0.57031(17) 0.3762(3)
C3D C 0.5000 0.58246(15) 0.4437(3)
C4D C 0.500000(7) 0.62266(17) 0.4662(3)
C5D C 0.5000 0.60101(18) 0.3214(3)
C6D C 0.3385(10) 0.6144(2) 0.2949(3)
C7D C 0.3389(11) 0.6407(2) 0.2424(3)
C8D C 0.5000 0.6543(2) 0.2152(4)
C9D C 0.5000 0.6816(2) 0.1575(3)
N3D N 0.3455(9) 0.69478(12) 0.1272(2)
N4D N 0.4068(8) 0.71766(11) 0.07692(18)
C10D C 0.500000(7) 0.51936(17) 0.2849(3)
H1D H 0.2244 0.6042 0.3114
H2D H 0.2246 0.6496 0.2237
H3D H 0.5000 0.5359 0.2458
H4D H 0.5000 0.6450 0.4376
C6F C 0.3385(10) 0.3856(2) 0.7051(3)
C7F C 0.3389(11) 0.3593(2) 0.7576(3)
N3F N 0.3455(9) 0.30522(12) 0.8728(2)
N4F N 0.4068(8) 0.28234(11) 0.92308(18)
H1F H 0.2244 0.3958 0.6886
H2F H 0.2246 0.3504 0.7763
C6N C 0.6615(10) 0.6144(2) 0.2949(3)
C7N C 0.6611(11) 0.6407(2) 0.2424(3)
N3N N 0.6545(9) 0.69478(12) 0.1272(2)
N4N N 0.5932(8) 0.71766(11) 0.07692(18)
H1N H 0.7756 0.6042 0.3114
H2N H 0.7754 0.6496 0.2237
C1H C 0.5000 0.46795(16) 0.3551(3)
C2H C 0.5000 0.42969(17) 0.3762(3)
C3H C 0.5000 0.41754(15) 0.4437(3)
C4H C 0.500000(7) 0.37734(17) 0.4662(3)
C5H C 0.5000 0.39899(18) 0.3214(3)
C6H C 0.3385(10) 0.3856(2) 0.2949(3)
C7H C 0.3389(11) 0.3593(2) 0.2424(3)
C8H C 0.5000 0.3457(2) 0.2152(4)
C9H C 0.5000 0.3184(2) 0.1575(3)
N3H N 0.3455(9) 0.30522(12) 0.1272(2)
N4H N 0.4068(8) 0.28234(11) 0.07692(18)
C10H C 0.500000(7) 0.48064(17) 0.2849(3)
H1H H 0.2244 0.3958 0.3114
H2H H 0.2246 0.3504 0.2237
H3H H 0.5000 0.4641 0.2458
H4H H 0.5000 0.3550 0.4376
C6B C 0.6615(10) 0.3856(2) 0.2949(3)
C7B C 0.6611(11) 0.3593(2) 0.2424(3)
N3B N 0.6545(9) 0.30522(12) 0.1272(2)
N4B N 0.5932(8) 0.28234(11) 0.07692(18)
H1B H 0.7756 0.3958 0.3114
H2B H 0.7754 0.3504 0.2237
N5H N -0.1834(10) 0.5000 0.5000
C11H C 0.107(3) 0.5426(5) 0.500000(10)
C12H C -0.108(2) 0.500000(10) 0.5727(9)
C13H C -0.103(2) 0.5290(5) 0.5430(8)
H5H H -0.1502 0.4774 0.5961
H6H H -0.1569 0.5211 0.5977
H7H H -0.1513 0.5535 0.5411
H8H H 0.1465 0.5557 0.4601
C11J C 0.107(3) 0.4574(5) 0.500000(10)
C12J C -0.108(2) 0.500000(10) 0.4273(9)
C13J C -0.103(2) 0.4710(5) 0.4570(8)
H5J H -0.1502 0.5226 0.4039
H6J H -0.1569 0.4789 0.4023
H7J H -0.1513 0.4465 0.4589
H8J H 0.1465 0.4443 0.5399
C11B C -0.107(3) 0.5426(5) 0.500000(10)
C12B C 0.108(2) 0.500000(10) 0.5727(9)
C13B C 0.103(2) 0.5290(5) 0.5430(8)
H5B H 0.1502 0.4774 0.5961
H6B H 0.1569 0.5211 0.5977
H7B H 0.1513 0.5535 0.5411
H8B H -0.1465 0.5557 0.4601
C13L C 0.103(2) 0.5290(5) 0.4570(8)
H5L H 0.1502 0.4774 0.4039
H6L H 0.1569 0.5211 0.4023
H7L H 0.1513 0.5535 0.4589
H8L H -0.1465 0.5557 0.5399
C13D C -0.103(2) 0.4710(5) 0.5430(8)
H5D H -0.1502 0.5226 0.5961
H6D H -0.1569 0.4789 0.5977
H7D H -0.1513 0.4465 0.5411
H8D H 0.1465 0.4443 0.4601
C13F C -0.103(2) 0.5290(5) 0.4570(8)
H5F H -0.1502 0.4774 0.4039
H6F H -0.1569 0.5211 0.4023
H7F H -0.1513 0.5535 0.4589
H8F H 0.1465 0.5557 0.5399
C13N C 0.103(2) 0.4710(5) 0.5430(8)
H5N H 0.1502 0.5226 0.5961
H6N H 0.1569 0.4789 0.5977
H7N H 0.1513 0.4465 0.5411
H8N H -0.1465 0.4443 0.4601
Fe2J Fe 1.2500 0.7500 1.0000
O1I O 0.5000 0.7869(4) 1.0000
Fe1_2 Fe -0.5000 0.5000 0.5000
N4I N 0.9068(8) 0.78234(11) 1.07692(18)
N4J_2 N 1.4068(8) 0.71766(11) 0.92308(18)
N4C N 1.0932(8) 0.78234(11) 1.07692(18)
N4D_2 N 1.4068(8) 0.71766(11) 1.07692(18)
N4M N 1.0932(8) 0.78234(11) 0.92308(18)
N4N_2 N 0.5932(8) 0.71766(11) 1.07692(18)
N4G N 0.9068(8) 0.78234(11) 0.92308(18)
Fe2_2 Fe 0.7500 0.7500 0.0000
Fe2H Fe 0.2500 0.2500 0.0000
Fe2H_2 Fe 0.2500 0.2500 1.0000
Fe2J_2 Fe 0.2500 0.7500 0.0000
Fe2J_3 Fe 0.2500 0.7500 1.0000
Fe2B Fe 0.7500 0.2500 0.0000
Fe2B_2 Fe 0.7500 0.2500 1.0000
O1I_2 O 1.5000 0.7869(4) 1.0000
N5H_2 N 0.8166(10) 0.5000 0.5000
loop_
_geom_bond_atom_site_label_1
_geom_bond_atom_site_label_2
_geom_bond_site_symmetry_1
_geom_bond_site_symmetry_2
Fe1 N1 1_555 1_555
N1 C1 1_555 1_555
C1 C2 1_555 1_555
C2 C3 1_555 1_555
C3 N2 1_555 1_555
N2 Fe1 1_555 1_555
C4 C3 1_555 1_555
C5 C2 1_555 1_555
C6 C5 1_555 1_555
C7 C6 1_555 1_555
C8 C7 1_555 1_555
C9 C8 1_555 1_555
N3 C9 1_555 1_555
N4 N3 1_555 1_555
Fe2 N4 1_555 1_555
O1 Fe2 1_555 1_555
C10 C1 1_555 1_555
N5 Fe1 1_555 1_555
C11 H8 1_555 1_555
C12 N5 1_555 1_555
C13 N5 1_555 1_555
H1 C6 1_555 1_555
H2 C7 1_555 1_555
H3 C10 1_555 1_555
H4 C4 1_555 1_555
H5 C12 1_555 1_555
H6 C12 1_555 1_555
H7 C13 1_555 1_555
H8 C13D 1_555 1_555
C6J C5 1_555 1_555
C7J C8 1_555 1_555
N3J C9 1_555 1_555
N4J N4 1_555 1_555
H1J C6J 1_555 1_555
H2J C7J 1_555 1_555
C1L N1 1_555 1_555
C2L C1L 1_555 1_555
C3L C2L 1_555 1_555
N2H Fe1 1_555 1_555
C4L C3L 1_555 1_555
C5L C2L 1_555 1_555
C6L C5L 1_555 1_555
C7L C6L 1_555 1_555
C8L C7L 1_555 1_555
C9L C8L 1_555 1_555
N3L C9L 1_555 1_555
N4L N3L 1_555 1_555
C10L C10 1_555 1_555
H1L C6L 1_555 1_555
H2L C7L 1_555 1_555
H3L C10L 1_555 1_555
H4L C4L 1_555 1_555
N1H Fe1 1_555 1_555
C1D N1H 1_555 1_555
C2D C1D 1_555 1_555
C3D N2 1_555 1_555
C4D C4 1_555 1_555
C5D C2D 1_555 1_555
C6D C5D 1_555 1_555
C7D C6D 1_555 1_555
C8D C7D 1_555 1_555
C9D C8D 1_555 1_555
N3D C9D 1_555 1_555
N4D N3D 1_555 1_555
C10D C1D 1_555 1_555
H1D C6D 1_555 1_555
H2D C7D 1_555 1_555
H3D C10D 1_555 1_555
H4D C4D 1_555 1_555
C6F C5L 1_555 1_555
C7F C8L 1_555 1_555
N3F C9L 1_555 1_555
N4F N4L 1_555 1_555
H1F C6F 1_555 1_555
H2F C7F 1_555 1_555
C6N C5D 1_555 1_555
C7N C8D 1_555 1_555
N3N C9D 1_555 1_555
N4N N4D 1_555 1_555
H1N C6N 1_555 1_555
H2N C7N 1_555 1_555
C1H N1H 1_555 1_555
C2H C1H 1_555 1_555
C3H N2H 1_555 1_555
C4H C4L 1_555 1_555
C5H C2H 1_555 1_555
C6H C5H 1_555 1_555
C7H C6H 1_555 1_555
C8H C7H 1_555 1_555
C9H C8H 1_555 1_555
N3H C9H 1_555 1_555
N4H N3H 1_555 1_555
C10H C10D 1_555 1_555
H1H C6H 1_555 1_555
H2H C7H 1_555 1_555
H3H C10H 1_555 1_555
H4H C4H 1_555 1_555
C6B C5H 1_555 1_555
C7B C8H 1_555 1_555
N3B C9H 1_555 1_555
N4B N4H 1_555 1_555
H1B C6B 1_555 1_555
H2B C7B 1_555 1_555
N5H C12H 1_555 1_555
C11H H8H 1_555 1_555
C12H C13H 1_555 1_555
C13H N5H 1_555 1_555
H5H C12H 1_555 1_555
H6H C12H 1_555 1_555
H7H C13H 1_555 1_555
H8H C13L 1_555 1_555
C11J C11 1_555 1_555
C12J C12 1_555 1_555
C13J C13 1_555 1_555
H5J C12J 1_555 1_555
H6J C12J 1_555 1_555
H7J C11 1_555 1_555
H8J C11J 1_555 1_555
C11B C11H 1_555 1_555
C12B N5 1_555 1_555
C13B N5 1_555 1_555
H5B C12B 1_555 1_555
H6B C12B 1_555 1_555
H7B C11H 1_555 1_555
H8B C11B 1_555 1_555
C13L N5 1_555 1_555
H5L C12 1_555 1_555
H6L C12 1_555 1_555
H7L C11H 1_555 1_555
H8L C13H 1_555 1_555
C13D N5H 1_555 1_555
H5D C12H 1_555 1_555
H6D C12H 1_555 1_555
H7D C11 1_555 1_555
H8D C13 1_555 1_555
C13F N5H 1_555 1_555
H5F C12J 1_555 1_555
H6F C12J 1_555 1_555
H7F C11B 1_555 1_555
H8F C11H 1_555 1_555
C13N N5 1_555 1_555
H5N C12B 1_555 1_555
H6N C12B 1_555 1_555
H7N C11J 1_555 1_555
H8N C11 1_555 1_555
Fe2J O1 1_555 1_555
O1I Fe2 1_555 1_555
Fe1_2 N5H 1_555 1_555
N4I Fe2 1_555 1_555
N4J_2 Fe2J 1_555 1_555
N4C Fe2J 1_555 1_555
N4D_2 Fe2J 1_555 1_555
N4M Fe2J 1_555 1_555
N4N_2 Fe2 1_555 1_555
N4G Fe2 1_555 1_555
Fe2_2 N4N 1_555 1_555
Fe2H N4H 1_555 1_555
Fe2H_2 N4F 1_555 1_555
Fe2J_2 N4D 1_555 1_555
Fe2J_3 N4J 1_555 1_555
Fe2B N4B 1_555 1_555
Fe2B_2 N4L 1_555 1_555
O1I_2 Fe2J 1_555 1_555
N5H_2 Fe1 1_555 1_555
C12 C13 1_555 1_555
C12 C13L 1_555 1_555
C13 H6 1_555 1_555
C13 H5L 1_555 1_555
C13 C13N 1_555 1_555
H5 C13L 1_555 1_555
H7 C11J 1_555 1_555
C6J C7J 1_555 1_555
N3J N4J 1_555 1_555
C1L C10L 1_555 1_555
C3L N2H 1_555 1_555
C2D C3D 1_555 1_555
C3D C4D 1_555 1_555
C6F C7F 1_555 1_555
N3F N4F 1_555 1_555
C6N C7N 1_555 1_555
N3N N4N 1_555 1_555
C1H C10H 1_555 1_555
C2H C3H 1_555 1_555
C3H C4H 1_555 1_555
C6B C7B 1_555 1_555
N3B N4B 1_555 1_555
N5H C12J 1_555 1_555
N5H C13J 1_555 1_555
C12H C12B 1_555 1_555
C12H C13D 1_555 1_555
C13H H6H 1_555 1_555
C13H C13B 1_555 1_555
C13H H5D 1_555 1_555
C13H C13F 1_555 1_555
H5H C13D 1_555 1_555
H7H C11B 1_555 1_555
C11J H8D 1_555 1_555
C12J C13J 1_555 1_555
C12J C13F 1_555 1_555
C13J H6J 1_555 1_555
C13J H7J 1_555 1_555
C13J C13D 1_555 1_555
C13J H5F 1_555 1_555
C13J H8N 1_555 1_555
H5J C13F 1_555 1_555
H8J C13N 1_555 1_555
C11B H8L 1_555 1_555
C12B C13B 1_555 1_555
C12B C13N 1_555 1_555
C13B H6B 1_555 1_555
C13B H7B 1_555 1_555
C13B C13L 1_555 1_555
C13B H8F 1_555 1_555
C13B H5N 1_555 1_555
H5B C13N 1_555 1_555
H8B C13F 1_555 1_555
C13L H6L 1_555 1_555
C13L H7L 1_555 1_555
C13L C13F 1_555 1_555
C13D H6D 1_555 1_555
C13D H7D 1_555 1_555
C13D C13N 1_555 1_555
C13F H6F 1_555 1_555
C13F H7F 1_555 1_555
C13N H6N 1_555 1_555
C13N H7N 1_555 1_555
O1I Fe2J_3 1_555 1_555
N4I N4C 1_555 1_555
N4M N4G 1_555 1_555

#END
