
#######################################################################
#
#                 Cambridge Crystallographic Data Centre
#                                CCDC 
#
#######################################################################
#
# If this CIF has been generated from an entry in the Cambridge 
# Structural Database, then it will include bibliographic, chemical, 
# crystal, experimental, refinement or atomic coordinate data resulting 
# from the CCDC's data processing and validation procedures.
#
#######################################################################

data_DAMRER
_chemical_formula_moiety         'C56 H28 Fe10 N29 O4'
_symmetry_cell_setting           orthorhombic
_symmetry_space_group_name_H-M   'C m m m'
_symmetry_Int_Tables_number      65
_space_group_name_Hall           '-C 2 2'
loop_
_symmetry_equiv_pos_site_id
_symmetry_equiv_pos_as_xyz
1 x,y,z
2 1/2+x,1/2+y,z
3 x,-y,-z
4 1/2+x,1/2-y,-z
5 -x,y,-z
6 1/2-x,1/2+y,-z
7 -x,-y,z
8 1/2-x,1/2-y,z
9 -x,-y,-z
10 1/2-x,1/2-y,-z
11 -x,y,z
12 1/2-x,1/2+y,z
13 x,-y,z
14 1/2+x,1/2-y,z
15 x,y,-z
16 1/2+x,1/2+y,-z
_cell_length_a                   6.7530(2)
_cell_length_b                   35.2750(11)
_cell_length_c                   19.2653(9)
_cell_angle_alpha                90
_cell_angle_beta                 90
_cell_angle_gamma                90
_cell_volume                     4589.23
loop_
_atom_site_label
_atom_site_type_symbol
_atom_site_fract_x
_atom_site_fract_y
_atom_site_fract_z
C1 C 0.0000 0.46922(14) 0.3531(3)
C2 C -0.000000(7) 0.48079(15) 0.2815(3)
C3 C 0.0000 0.43117(14) 0.3749(3)
C4 C 0.0000 0.41998(13) 0.4443(3)
C5 C 0.0000 0.38027(14) 0.4659(3)
C6 C 0.0000 0.40175(14) 0.3199(3)
C7 C 0.1714(8) 0.38780(15) 0.2916(3)
C8 C 0.1725(8) 0.36105(15) 0.2393(3)
C9 C 0.0000 0.34800(15) 0.2119(3)
C10 C 0.0000 0.32070(16) 0.1548(3)
C11 C 0.3992(10) 0.52254(16) 0.5414(4)
N1 N 0.0000 0.44355(14) 0.5000
N2 N 0.0000 0.5000 0.3965(3)
N3 N 0.2908(8) 0.5000 0.5000
N4 N 0.1640(6) 0.30694(9) 0.12591(17)
N5 N 0.0981(5) 0.28366(8) 0.07610(18)
Fe1 Fe -0.0000 0.5000 0.5000
Fe2 Fe 0.2500 0.2500 0.0000
O1 O 0.0000 0.21867(15) 0.0000
H1 H 0.2920 0.3518 0.2221
H2 H 0.0000 0.4649 0.2430
H3 H 0.3172 0.5383 0.5706
H4 H 0.2912 0.3968 0.3088
C7J C -0.1714(8) 0.38780(15) 0.2916(3)
C8J C -0.1725(8) 0.36105(15) 0.2393(3)
N4J N -0.1640(6) 0.30694(9) 0.12591(17)
N5J N -0.0981(5) 0.28366(8) 0.07610(18)
H1J H -0.2920 0.3518 0.2221
H4J H -0.2912 0.3968 0.3088
C1L C 0.0000 0.53078(14) 0.3531(3)
C2L C 0.000000(7) 0.51921(15) 0.2815(3)
C3L C -0.0000 0.56883(14) 0.3749(3)
C4L C 0.0000 0.58002(13) 0.4443(3)
C5L C 0.0000 0.61973(14) 0.4659(3)
C6L C -0.0000 0.59825(14) 0.3199(3)
C7L C 0.1714(8) 0.61220(15) 0.2916(3)
C8L C 0.1725(8) 0.63895(15) 0.2393(3)
C9L C 0.0000 0.65200(15) 0.2119(3)
C10L C 0.0000 0.67930(16) 0.1548(3)
N1H N -0.0000 0.55645(14) 0.5000
N4L N 0.1640(6) 0.69306(9) 0.12591(17)
N5L N 0.0981(5) 0.71634(8) 0.07610(18)
H1L H 0.2920 0.6482 0.2221
H2L H 0.0000 0.5351 0.2430
H4L H 0.2912 0.6032 0.3088
C1D C 0.0000 0.46922(14) 0.6469(3)
C2D C 0.000000(7) 0.48079(15) 0.7185(3)
C3D C 0.0000 0.43117(14) 0.6251(3)
C4D C 0.0000 0.41998(13) 0.5557(3)
C5D C 0.0000 0.38027(14) 0.5341(3)
C6D C 0.0000 0.40175(14) 0.6801(3)
C7D C -0.1714(8) 0.38780(15) 0.7084(3)
C8D C -0.1725(8) 0.36105(15) 0.7607(3)
C9D C 0.0000 0.34800(15) 0.7881(3)
C10D C 0.0000 0.32070(16) 0.8452(3)
N2H N 0.0000 0.5000 0.6035(3)
N4D N -0.1640(6) 0.30694(9) 0.87409(17)
N5D N -0.0981(5) 0.28366(8) 0.92390(18)
H1D H -0.2920 0.3518 0.7779
H2D H 0.0000 0.4649 0.7570
H4D H -0.2912 0.3968 0.6912
C7F C -0.1714(8) 0.61220(15) 0.2916(3)
C8F C -0.1725(8) 0.63895(15) 0.2393(3)
N4F N -0.1640(6) 0.69306(9) 0.12591(17)
N5F N -0.0981(5) 0.71634(8) 0.07610(18)
H1F H -0.2920 0.6482 0.2221
H4F H -0.2912 0.6032 0.3088
C7N C 0.1714(8) 0.38780(15) 0.7084(3)
C8N C 0.1725(8) 0.36105(15) 0.7607(3)
N4N N 0.1640(6) 0.30694(9) 0.87409(17)
N5N N 0.0981(5) 0.28366(8) 0.92390(18)
H1N H 0.2920 0.3518 0.7779
H4N H 0.2912 0.3968 0.6912
C1H C -0.0000 0.53078(14) 0.6469(3)
C2H C 0.000000(7) 0.51921(15) 0.7185(3)
C3H C 0.0000 0.56883(14) 0.6251(3)
C4H C 0.0000 0.58002(13) 0.5557(3)
C5H C 0.0000 0.61973(14) 0.5341(3)
C6H C 0.0000 0.59825(14) 0.6801(3)
C7H C -0.1714(8) 0.61220(15) 0.7084(3)
C8H C -0.1725(8) 0.63895(15) 0.7607(3)
C9H C 0.0000 0.65200(15) 0.7881(3)
C10H C 0.0000 0.67930(16) 0.8452(3)
N4H N -0.1640(6) 0.69306(9) 0.87409(17)
N5H N -0.0981(5) 0.71634(8) 0.92390(18)
H1H H -0.2920 0.6482 0.7779
H2H H -0.0000 0.5351 0.7570
H4H H -0.2912 0.6032 0.6912
C7B C 0.1714(8) 0.61220(15) 0.7084(3)
C8B C 0.1725(8) 0.63895(15) 0.7607(3)
N4B N 0.1640(6) 0.69306(9) 0.87409(17)
N5B N 0.0981(5) 0.71634(8) 0.92390(18)
H1B H 0.2920 0.6482 0.7779
H4B H 0.2912 0.6032 0.6912
C11J C 0.6008(10) 0.52254(16) 0.5414(4)
N3H N 0.7092(8) 0.5000 0.5000
H3J H 0.6828 0.5383 0.5706
C11B C 0.3992(10) 0.47746(16) 0.4586(4)
H3B H 0.3172 0.4617 0.4294
C11L C 0.3992(10) 0.47746(16) 0.5414(4)
H3L H 0.3172 0.4617 0.5706
C11D C 0.6008(10) 0.52254(16) 0.4586(4)
H3D H 0.6828 0.5383 0.4294
C11F C 0.6008(10) 0.47746(16) 0.5414(4)
H3F H 0.6828 0.4617 0.5706
C11N C 0.3992(10) 0.52254(16) 0.4586(4)
H3N H 0.3172 0.5383 0.4294
C11H C 0.6008(10) 0.47746(16) 0.4586(4)
H3H H 0.6828 0.4617 0.4294
Fe2H Fe -0.2500 0.7500 0.0000
O1H O 0.0000 0.78133(15) 0.0000
N3H_2 N -0.2908(8) 0.5000 0.5000
N5H_2 N -0.0981(5) 0.71634(8) -0.07610(18)
N5A N -0.4019(5) 0.78366(8) 0.07610(18)
N5I N 0.4019(5) 0.21634(8) -0.07610(18)
N5N_2 N 0.0981(5) 0.28366(8) -0.07610(18)
N5G N 0.4019(5) 0.21634(8) 0.07610(18)
N5O N -0.4019(5) 0.78366(8) -0.07610(18)
Fe1_2 Fe 1.0000 0.5000 0.5000
Fe2_2 Fe 0.2500 0.2500 1.0000
Fe2H_2 Fe -0.2500 0.7500 1.0000
Fe2J Fe -0.2500 0.2500 0.0000
Fe2J_2 Fe -0.2500 0.2500 1.0000
Fe2B Fe 0.2500 0.7500 0.0000
Fe2B_2 Fe 0.2500 0.7500 1.0000
O1A O -0.5000 0.71867(15) 0.0000
O1I O 0.5000 0.28133(15) 0.0000
loop_
_geom_bond_atom_site_label_1
_geom_bond_atom_site_label_2
_geom_bond_site_symmetry_1
_geom_bond_site_symmetry_2
C1 C2 1_555 1_555
C2 H2 1_555 1_555
C3 C1 1_555 1_555
C4 C3 1_555 1_555
C5 C4 1_555 1_555
C6 C3 1_555 1_555
C7 C6 1_555 1_555
C8 C7 1_555 1_555
C9 C8 1_555 1_555
C10 C9 1_555 1_555
C11 N3 1_555 1_555
N1 C4 1_555 1_555
N2 C1 1_555 1_555
N3 Fe1 1_555 1_555
N4 C10 1_555 1_555
N5 N4 1_555 1_555
Fe1 N1 1_555 1_555
Fe2 N5 1_555 1_555
O1 Fe2 1_555 1_555
H1 C8 1_555 1_555
H3 C11 1_555 1_555
H4 C7 1_555 1_555
C7J C6 1_555 1_555
C8J C9 1_555 1_555
N4J C10 1_555 1_555
N5J N5 1_555 1_555
H1J C8J 1_555 1_555
H4J C7J 1_555 1_555
C1L N2 1_555 1_555
C2L C2 1_555 1_555
C3L C1L 1_555 1_555
C4L C3L 1_555 1_555
C5L C4L 1_555 1_555
C6L C3L 1_555 1_555
C7L C6L 1_555 1_555
C8L C7L 1_555 1_555
C9L C8L 1_555 1_555
C10L C9L 1_555 1_555
N1H Fe1 1_555 1_555
N4L C10L 1_555 1_555
N5L N4L 1_555 1_555
H1L C8L 1_555 1_555
H2L C2L 1_555 1_555
H4L C7L 1_555 1_555
C1D C2D 1_555 1_555
C2D H2D 1_555 1_555
C3D C1D 1_555 1_555
C4D N1 1_555 1_555
C5D C5 1_555 1_555
C6D C3D 1_555 1_555
C7D C6D 1_555 1_555
C8D C7D 1_555 1_555
C9D C8D 1_555 1_555
C10D C9D 1_555 1_555
N2H Fe1 1_555 1_555
N4D C10D 1_555 1_555
N5D N4D 1_555 1_555
H1D C8D 1_555 1_555
H4D C7D 1_555 1_555
C7F C6L 1_555 1_555
C8F C9L 1_555 1_555
N4F C10L 1_555 1_555
N5F N5L 1_555 1_555
H1F C8F 1_555 1_555
H4F C7F 1_555 1_555
C7N C6D 1_555 1_555
C8N C9D 1_555 1_555
N4N C10D 1_555 1_555
N5N N5D 1_555 1_555
H1N C8N 1_555 1_555
H4N C7N 1_555 1_555
C1H N2H 1_555 1_555
C2H C2D 1_555 1_555
C3H C1H 1_555 1_555
C4H N1H 1_555 1_555
C5H C5L 1_555 1_555
C6H C3H 1_555 1_555
C7H C6H 1_555 1_555
C8H C7H 1_555 1_555
C9H C8H 1_555 1_555
C10H C9H 1_555 1_555
N4H C10H 1_555 1_555
N5H N4H 1_555 1_555
H1H C8H 1_555 1_555
H2H C2H 1_555 1_555
H4H C7H 1_555 1_555
C7B C6H 1_555 1_555
C8B C9H 1_555 1_555
N4B C10H 1_555 1_555
N5B N5H 1_555 1_555
H1B C8B 1_555 1_555
H4B C7B 1_555 1_555
C11J C11 1_555 1_555
N3H C11J 1_555 1_555
H3J C11J 1_555 1_555
C11B N3 1_555 1_555
H3B C11B 1_555 1_555
C11L C11 1_555 1_555
H3L C11L 1_555 1_555
C11D C11J 1_555 1_555
H3D C11D 1_555 1_555
C11F C11J 1_555 1_555
H3F C11F 1_555 1_555
C11N C11 1_555 1_555
H3N C11N 1_555 1_555
C11H N3H 1_555 1_555
H3H C11H 1_555 1_555
Fe2H N5F 1_555 1_555
O1H Fe2H 1_555 1_555
N3H_2 Fe1 1_555 1_555
N5H_2 Fe2H 1_555 1_555
N5A Fe2H 1_555 1_555
N5I Fe2 1_555 1_555
N5N_2 Fe2 1_555 1_555
N5G Fe2 1_555 1_555
N5O Fe2H 1_555 1_555
Fe1_2 N3H 1_555 1_555
Fe2_2 N5N 1_555 1_555
Fe2H_2 N5H 1_555 1_555
Fe2J O1 1_555 1_555
Fe2J_2 N5D 1_555 1_555
Fe2B N5L 1_555 1_555
Fe2B_2 N5B 1_555 1_555
O1A Fe2H 1_555 1_555
O1I Fe2 1_555 1_555
N2 Fe1 1_555 1_555
N3 C11L 1_555 1_555
N3 C11N 1_555 1_555
C7J C8J 1_555 1_555
N4J N5J 1_555 1_555
N5J Fe2J 1_555 1_555
C1L C2L 1_555 1_555
C4L N1H 1_555 1_555
C1D N2H 1_555 1_555
C3D C4D 1_555 1_555
C4D C5D 1_555 1_555
C7F C8F 1_555 1_555
N4F N5F 1_555 1_555
C7N C8N 1_555 1_555
N4N N5N 1_555 1_555
C1H C2H 1_555 1_555
C3H C4H 1_555 1_555
C4H C5H 1_555 1_555
C7B C8B 1_555 1_555
N4B N5B 1_555 1_555
N3H C11D 1_555 1_555
N3H C11F 1_555 1_555
C11B C11L 1_555 1_555
C11B C11N 1_555 1_555
C11B C11H 1_555 1_555
C11L C11F 1_555 1_555
C11D C11N 1_555 1_555
C11D C11H 1_555 1_555
C11F C11H 1_555 1_555
O1H Fe2B 1_555 1_555

#END
