
#######################################################################
#
#                 Cambridge Crystallographic Data Centre
#                                CCDC 
#
#######################################################################
#
# If this CIF has been generated from an entry in the Cambridge 
# Structural Database, then it will include bibliographic, chemical, 
# crystal, experimental, refinement or atomic coordinate data resulting 
# from the CCDC's data processing and validation procedures.
#
#######################################################################

data_WAFKEU08
_chemical_formula_moiety         'C32 H32 N2 O28 Zn7'
_symmetry_cell_setting           tetragonal
_symmetry_space_group_name_H-M   'P 4/m m m'
_symmetry_Int_Tables_number      123
_space_group_name_Hall           '-P 4 2'
loop_
_symmetry_equiv_pos_site_id
_symmetry_equiv_pos_as_xyz
1 x,y,z
2 -x,-y,z
3 -y,x,z
4 y,-x,z
5 -x,y,-z
6 x,-y,-z
7 y,x,-z
8 -y,-x,-z
9 -x,-y,-z
10 x,y,-z
11 y,-x,-z
12 -y,x,-z
13 x,-y,z
14 -x,y,z
15 -y,-x,z
16 y,x,z
_cell_length_a                   10.9399(4)
_cell_length_b                   10.9399(4)
_cell_length_c                   9.6140(3)
_cell_angle_alpha                90
_cell_angle_beta                 90
_cell_angle_gamma                90
_cell_volume                     1150.62
loop_
_atom_site_label
_atom_site_type_symbol
_atom_site_fract_x
_atom_site_fract_y
_atom_site_fract_z
Zn1 Zn -0.0000 1.0000 0.34992(3)
O1 O 0.18272(13) 1.0166(7) 0.38486(16)
N1 N -0.0000 1.0000 0.1337(2)
C1 C 0.2353(2) 1.0000 0.5000
C2 C 0.3728(2) 1.0000 0.5000
C3 C 0.43672(17) 1.0000 0.6214(2)
H1 H 0.3948 1.0000 0.7055
C4 C 0.0482(5) 1.1140(4) 0.0799(3)
H2 H 0.1310 1.1256 0.1135
H3 H -0.0012 1.1815 0.1135
O1A O 0.81728(13) 0.9834(7) 0.38486(16)
C1A C 0.7647(2) 1.0000 0.5000
C2A C 0.6272(2) 1.0000 0.5000
C3A C 0.56328(17) 1.0000 0.6214(2)
H1A H 0.6052 1.0000 0.7055
O1D O 0.81728(13) 1.0166(7) 0.61514(16)
C3D C 0.56328(17) 1.0000 0.3786(2)
H1D H 0.6052 1.0000 0.2945
O1E O 0.18272(13) 0.9834(7) 0.61514(16)
C3E C 0.43672(17) 1.0000 0.3786(2)
H1E H 0.3948 1.0000 0.2945
O1H O 0.81728(13) 0.9834(7) 0.61514(16)
O1I O 0.18272(13) 1.0166(7) 0.61514(16)
O1L O 0.18272(13) 0.9834(7) 0.38486(16)
O1M O 0.81728(13) 1.0166(7) 0.38486(16)
C4A C -0.0482(5) 0.8860(4) 0.0799(3)
H2A H -0.1310 0.8744 0.1135
H3A H 0.0012 0.8185 0.1135
C4B C -0.1140(4) 1.0482(5) 0.0799(3)
H2B H -0.1256 1.1310 0.1135
H3B H -0.1815 0.9988 0.1135
C4C C 0.1140(4) 0.9518(5) 0.0799(3)
H2C H 0.1256 0.8690 0.1135
H3C H 0.1815 1.0012 0.1135
N1D N -0.0000 1.0000 -0.1337(2)
C4H C -0.0482(5) 0.8860(4) -0.0799(3)
H2H H -0.1310 0.8744 -0.1135
H3E H -0.0012 0.8185 -0.1135
C4I C 0.0482(5) 1.1140(4) -0.0799(3)
H2I H 0.1310 1.1256 -0.1135
H3D H 0.0012 1.1815 -0.1135
C4J C 0.1140(4) 0.9518(5) -0.0799(3)
H2J H 0.1256 0.8690 -0.1135
H3F H 0.1815 0.9988 -0.1135
C4K C -0.1140(4) 1.0482(5) -0.0799(3)
H2K H -0.1256 1.1310 -0.1135
H3G H -0.1815 1.0012 -0.1135
C4L C 0.0482(5) 0.8860(4) 0.0799(3)
H2L H 0.1310 0.8744 0.1135
C4M C -0.0482(5) 1.1140(4) 0.0799(3)
H2M H -0.1310 1.1256 0.1135
C4N C -0.1140(4) 0.9518(5) 0.0799(3)
H2N H -0.1256 0.8690 0.1135
C4O C 0.1140(4) 1.0482(5) 0.0799(3)
H2O H 0.1256 1.1310 0.1135
C4D C -0.0482(5) 1.1140(4) -0.0799(3)
H2D H -0.1310 1.1256 -0.1135
C4E C 0.0482(5) 0.8860(4) -0.0799(3)
H2E H 0.1310 0.8744 -0.1135
C4F C 0.1140(4) 1.0482(5) -0.0799(3)
H2F H 0.1256 1.1310 -0.1135
C4G C -0.1140(4) 0.9518(5) -0.0799(3)
H2G H -0.1256 0.8690 -0.1135
O1A_2 O -0.18272(13) 0.9834(7) 0.38486(16)
C1A_2 C -0.2353(2) 1.0000 0.5000
C2A_2 C -0.3728(2) 1.0000 0.5000
C3A_2 C -0.43672(17) 1.0000 0.6214(2)
H1A_2 H -0.3948 1.0000 0.7055
O1_2 O -0.81728(13) 1.0166(7) 0.38486(16)
C1_2 C -0.7647(2) 1.0000 0.5000
C2_2 C -0.6272(2) 1.0000 0.5000
C3_2 C -0.56328(17) 1.0000 0.6214(2)
H1_2 H -0.6052 1.0000 0.7055
O1E_2 O -0.81728(13) 0.9834(7) 0.61514(16)
C3E_2 C -0.56328(17) 1.0000 0.3786(2)
H1E_2 H -0.6052 1.0000 0.2945
O1D_2 O -0.18272(13) 1.0166(7) 0.61514(16)
C3D_2 C -0.43672(17) 1.0000 0.3786(2)
H1D_2 H -0.3948 1.0000 0.2945
O1I_2 O -0.81728(13) 1.0166(7) 0.61514(16)
O1H_2 O -0.18272(13) 0.9834(7) 0.61514(16)
O1M_2 O -0.18272(13) 1.0166(7) 0.38486(16)
O1L_2 O -0.81728(13) 0.9834(7) 0.38486(16)
Zn1D Zn -0.0000 1.0000 -0.34992(3)
Zn1_2 Zn -1.0000 1.0000 0.34992(3)
Zn1_3 Zn 1.0000 1.0000 0.34992(3)
Zn1D_2 Zn -1.0000 1.0000 0.65008(3)
Zn1D_3 Zn -0.0000 1.0000 0.65008(3)
Zn1D_4 Zn 1.0000 1.0000 0.65008(3)
O1B O -0.0166(7) 1.18272(13) 0.38486(16)
O1C O 0.0166(7) 0.81728(13) 0.38486(16)
O1D_3 O -0.18272(13) 1.0166(7) -0.38486(16)
O1E_3 O 0.18272(13) 0.9834(7) -0.38486(16)
O1F O 0.0166(7) 1.18272(13) -0.38486(16)
O1G O -0.0166(7) 0.81728(13) -0.38486(16)
O1H_3 O -0.18272(13) 0.9834(7) -0.38486(16)
O1I_3 O 0.18272(13) 1.0166(7) -0.38486(16)
O1J O 0.0166(7) 0.81728(13) -0.38486(16)
O1K O -0.0166(7) 1.18272(13) -0.38486(16)
O1N O -0.0166(7) 0.81728(13) 0.38486(16)
O1O O 0.0166(7) 1.18272(13) 0.38486(16)
loop_
_geom_bond_atom_site_label_1
_geom_bond_atom_site_label_2
_geom_bond_site_symmetry_1
_geom_bond_site_symmetry_2
Zn1 O1 1_555 1_555
O1 C1 1_555 1_555
N1 Zn1 1_555 1_555
C1 C2 1_555 1_555
C2 C3 1_555 1_555
C3 H1 1_555 1_555
C4 N1 1_555 1_555
H2 C4 1_555 1_555
H3 C4 1_555 1_555
O1A C1A 1_555 1_555
C1A C2A 1_555 1_555
C2A C3A 1_555 1_555
C3A C3 1_555 1_555
H1A C3A 1_555 1_555
O1D C1A 1_555 1_555
C3D C2A 1_555 1_555
H1D C3D 1_555 1_555
O1E C1 1_555 1_555
C3E C2 1_555 1_555
H1E C3E 1_555 1_555
O1H C1A 1_555 1_555
O1I C1 1_555 1_555
O1L Zn1 1_555 1_555
O1M C1A 1_555 1_555
C4A N1 1_555 1_555
H2A C4A 1_555 1_555
H3A C4A 1_555 1_555
C4B N1 1_555 1_555
H2B C4B 1_555 1_555
H3B C4B 1_555 1_555
C4C N1 1_555 1_555
H2C C4C 1_555 1_555
H3C C4C 1_555 1_555
N1D C4H 1_555 1_555
C4H C4A 1_555 1_555
H2H C4H 1_555 1_555
H3E C4H 1_555 1_555
C4I C4 1_555 1_555
H2I C4I 1_555 1_555
H3D C4I 1_555 1_555
C4J C4C 1_555 1_555
H2J C4J 1_555 1_555
H3F C4J 1_555 1_555
C4K C4B 1_555 1_555
H2K C4K 1_555 1_555
H3G C4K 1_555 1_555
C4L N1 1_555 1_555
H2L C4C 1_555 1_555
C4M N1 1_555 1_555
H2M C4B 1_555 1_555
C4N N1 1_555 1_555
H2N C4A 1_555 1_555
C4O N1 1_555 1_555
H2O C4 1_555 1_555
C4D N1D 1_555 1_555
H2D C4K 1_555 1_555
C4E N1D 1_555 1_555
H2E C4J 1_555 1_555
C4F N1D 1_555 1_555
H2F C4I 1_555 1_555
C4G N1D 1_555 1_555
H2G C4H 1_555 1_555
O1A_2 Zn1 1_555 1_555
C1A_2 O1A_2 1_555 1_555
C2A_2 C1A_2 1_555 1_555
C3A_2 C2A_2 1_555 1_555
H1A_2 C3A_2 1_555 1_555
O1_2 C1_2 1_555 1_555
C1_2 C2_2 1_555 1_555
C2_2 C3_2 1_555 1_555
C3_2 C3A_2 1_555 1_555
H1_2 C3_2 1_555 1_555
O1E_2 C1_2 1_555 1_555
C3E_2 C2_2 1_555 1_555
H1E_2 C3E_2 1_555 1_555
O1D_2 C1A_2 1_555 1_555
C3D_2 C2A_2 1_555 1_555
H1D_2 C3D_2 1_555 1_555
O1I_2 C1_2 1_555 1_555
O1H_2 C1A_2 1_555 1_555
O1M_2 Zn1 1_555 1_555
O1L_2 C1_2 1_555 1_555
Zn1D N1D 1_555 1_555
Zn1_2 O1_2 1_555 1_555
Zn1_3 O1A 1_555 1_555
Zn1D_2 O1E_2 1_555 1_555
Zn1D_3 O1E 1_555 1_555
Zn1D_4 O1D 1_555 1_555
O1B Zn1 1_555 1_555
O1C Zn1 1_555 1_555
O1D_3 Zn1D 1_555 1_555
O1E_3 Zn1D 1_555 1_555
O1F Zn1D 1_555 1_555
O1G Zn1D 1_555 1_555
O1H_3 Zn1D 1_555 1_555
O1I_3 Zn1D 1_555 1_555
O1J Zn1D 1_555 1_555
O1K Zn1D 1_555 1_555
O1N Zn1 1_555 1_555
O1O Zn1 1_555 1_555
C1 O1L 1_555 1_555
C4 C4M 1_555 1_555
C4 C4O 1_555 1_555
H2 C4O 1_555 1_555
H3 C4M 1_555 1_555
C3D C3E 1_555 1_555
O1H Zn1D_4 1_555 1_555
O1I Zn1D_3 1_555 1_555
O1M Zn1_3 1_555 1_555
C4A C4L 1_555 1_555
C4A C4N 1_555 1_555
H2A C4N 1_555 1_555
H3A C4L 1_555 1_555
C4B C4M 1_555 1_555
C4B C4N 1_555 1_555
H2B C4M 1_555 1_555
H3B C4N 1_555 1_555
C4C C4L 1_555 1_555
C4C C4O 1_555 1_555
H2C C4L 1_555 1_555
H3C C4O 1_555 1_555
N1D C4I 1_555 1_555
N1D C4J 1_555 1_555
N1D C4K 1_555 1_555
C4H C4E 1_555 1_555
C4H C4G 1_555 1_555
H2H C4G 1_555 1_555
H3E C4E 1_555 1_555
C4I C4D 1_555 1_555
C4I C4F 1_555 1_555
H2I C4F 1_555 1_555
H3D C4D 1_555 1_555
C4J C4E 1_555 1_555
C4J C4F 1_555 1_555
H2J C4E 1_555 1_555
H3F C4F 1_555 1_555
C4K C4D 1_555 1_555
C4K C4G 1_555 1_555
H2K C4D 1_555 1_555
H3G C4G 1_555 1_555
C4L H2L 1_555 1_555
C4L C4E 1_555 1_555
C4M H2M 1_555 1_555
C4M C4D 1_555 1_555
C4N H2N 1_555 1_555
C4N C4G 1_555 1_555
C4O H2O 1_555 1_555
C4O C4F 1_555 1_555
C4D H2D 1_555 1_555
C4E H2E 1_555 1_555
C4F H2F 1_555 1_555
C4G H2G 1_555 1_555
C1A_2 O1M_2 1_555 1_555
C3E_2 C3D_2 1_555 1_555
O1D_2 Zn1D_3 1_555 1_555
O1I_2 Zn1D_2 1_555 1_555
O1H_2 Zn1D_3 1_555 1_555
O1L_2 Zn1_2 1_555 1_555

#END
