
#######################################################################
#
#                 Cambridge Crystallographic Data Centre
#                                CCDC 
#
#######################################################################
#
# If this CIF has been generated from an entry in the Cambridge 
# Structural Database, then it will include bibliographic, chemical, 
# crystal, experimental, refinement or atomic coordinate data resulting 
# from the CCDC's data processing and validation procedures.
#
#######################################################################

data_ANAWIX
_chemical_formula_moiety         '(C19 H13 F8 In2 N1 O13)n'
_symmetry_cell_setting           monoclinic
_symmetry_space_group_name_H-M   'C 2/c'
_symmetry_Int_Tables_number      15
_space_group_name_Hall           '-C 2yc'
loop_
_symmetry_equiv_pos_site_id
_symmetry_equiv_pos_as_xyz
1 x,y,z
2 -x,y,1/2-z
3 1/2+x,1/2+y,z
4 1/2-x,1/2+y,1/2-z
5 -x,-y,-z
6 x,-y,1/2+z
7 1/2-x,1/2-y,-z
8 1/2+x,1/2-y,1/2+z
_cell_length_a                   16.264(3)
_cell_length_b                   15.110(2)
_cell_length_c                   14.376(3)
_cell_angle_alpha                90
_cell_angle_beta                 115.148(7)
_cell_angle_gamma                90
_cell_volume                     3198.02
loop_
_atom_site_label
_atom_site_type_symbol
_atom_site_fract_x
_atom_site_fract_y
_atom_site_fract_z
C1 C 0.6861(3) 0.4043(3) 0.5672(4)
C2 C 0.7433(3) 0.3257(3) 0.6237(4)
C3 C 0.7073(3) 0.2414(3) 0.6046(4)
C4 C 0.7569(4) 0.1691(3) 0.6604(4)
C5 C 0.8445(3) 0.1796(3) 0.7365(3)
C6 C 0.8800(3) 0.2641(3) 0.7557(4)
C7 C 0.8306(4) 0.3360(3) 0.6991(4)
C8 C 0.8980(3) 0.1003(3) 0.7937(4)
O1 O 0.6116(2) 0.4098(2) 0.5774(3)
O2 O 0.7126(3) 0.4536(3) 0.5181(3)
O3 O 0.9337(2) 0.1047(2) 0.8892(3)
O4 O 0.9014(3) 0.0370(2) 0.7383(3)
O5 O 0.4400(2) 0.4442(2) 0.5896(2)
H1 H 0.390(3) 0.469(4) 0.576(5)
O6 O 0.5899(3) 0.3370(2) 0.7382(3)
H2 H 0.596(4) 0.346(4) 0.683(3)
H3 H 0.644(2) 0.335(4) 0.786(3)
F1 F 0.6237(2) 0.2270(2) 0.5314(3)
F2 F 0.7171(2) 0.08970(19) 0.6410(3)
F3 F 0.9643(2) 0.2778(2) 0.8283(2)
F4 F 0.8680(2) 0.4164(2) 0.7230(3)
In1 In 0.5000 0.5000 0.5000
In2 In 0.5000 0.43551(2) 0.7500
O5A O 0.5600(2) 0.4442(2) 0.9104(2)
H1A H 0.610(3) 0.469(4) 0.924(5)
O6A O 0.4101(3) 0.3370(2) 0.7618(3)
H2A H 0.404(4) 0.346(4) 0.817(3)
H3A H 0.356(2) 0.335(4) 0.714(3)
C1D C 0.3139(3) 0.5957(3) 0.4328(4)
C2D C 0.2567(3) 0.6743(3) 0.3763(4)
C3D C 0.2927(3) 0.7586(3) 0.3954(4)
C4D C 0.2431(4) 0.8309(3) 0.3396(4)
C5D C 0.1555(3) 0.8204(3) 0.2635(3)
C6D C 0.1200(3) 0.7359(3) 0.2443(4)
C7D C 0.1694(4) 0.6640(3) 0.3009(4)
C8D C 0.1020(3) 0.8997(3) 0.2063(4)
O1D O 0.3884(2) 0.5902(2) 0.4226(3)
O2D O 0.2874(3) 0.5464(3) 0.4819(3)
O3D O 0.0663(2) 0.8953(2) 0.1108(3)
O4D O 0.0986(3) 0.9630(2) 0.2617(3)
F1D F 0.3763(2) 0.7730(2) 0.4686(3)
F2D F 0.2829(2) 0.91030(19) 0.3590(3)
F3D F 0.0357(2) 0.7222(2) 0.1717(2)
F4D F 0.1320(2) 0.5836(2) 0.2770(3)
O3C O 0.5663(2) 0.6047(2) 0.6108(3)
O3G O 0.4337(2) 0.3953(2) 0.3892(3)
O4B O 0.4014(3) 0.5370(2) 0.7383(3)
O4C O 0.5986(3) 0.5370(2) 0.7617(3)
O5D O 0.5600(2) 0.5558(2) 0.4104(2)
In1A In 0.5000 0.5000 1.0000
In1C In 0.0000 1.0000 0.0000
In1C_2 In 1.0000 0.0000 1.0000
In2B In 1.0000 -0.06449(2) 0.7500
In2F In 0.0000 1.06449(2) 0.2500
C9 C 0.7899(5) 0.3711(4) 0.9333(5)
H4 H 0.7647 0.4288 0.9170
C10 C 0.9140(5) 0.2777(4) 1.0410(6)
H5 H 0.8739 0.2320 0.9963
H6 H 0.9267 0.2649 1.1127
H7 H 0.9711 0.2786 1.0334
C11 C 0.9191(7) 0.4390(6) 1.0701(9)
H8 H 0.9797 0.4406 1.0712
H9 H 0.9247 0.4352 1.1406
H10 H 0.8858 0.4929 1.0375
O7 O 0.7462(3) 0.3098(3) 0.8798(4)
N1 N 0.8704(4) 0.3626(4) 1.0127(4)
loop_
_geom_bond_atom_site_label_1
_geom_bond_atom_site_label_2
_geom_bond_site_symmetry_1
_geom_bond_site_symmetry_2
C1 C2 1_555 1_555
C2 C3 1_555 1_555
C3 C4 1_555 1_555
C4 C5 1_555 1_555
C5 C6 1_555 1_555
C6 C7 1_555 1_555
C7 C2 1_555 1_555
C8 C5 1_555 1_555
O1 C1 1_555 1_555
O2 C1 1_555 1_555
O3 C8 1_555 1_555
O4 C8 1_555 1_555
O5 H1 1_555 1_555
O6 H2 1_555 1_555
H3 O6 1_555 1_555
F1 C3 1_555 1_555
F2 C4 1_555 1_555
F3 C6 1_555 1_555
F4 C7 1_555 1_555
In1 O1 1_555 1_555
In2 O5 1_555 1_555
C9 H4 1_555 1_555
C10 H5 1_555 1_555
H6 C10 1_555 1_555
H7 C10 1_555 1_555
C11 H8 1_555 1_555
H9 C11 1_555 1_555
H10 C11 1_555 1_555
O7 C9 1_555 1_555
N1 C9 1_555 1_555
O5A In2 1_555 1_555
H1A O5A 1_555 1_555
O6A In2 1_555 1_555
H2A O6A 1_555 1_555
H3A O6A 1_555 1_555
C1D C2D 1_555 1_555
C2D C3D 1_555 1_555
C3D C4D 1_555 1_555
C4D C5D 1_555 1_555
C5D C6D 1_555 1_555
C6D C7D 1_555 1_555
C7D C2D 1_555 1_555
C8D C5D 1_555 1_555
O1D In1 1_555 1_555
O2D C1D 1_555 1_555
O3D C8D 1_555 1_555
O4D C8D 1_555 1_555
F1D C3D 1_555 1_555
F2D C4D 1_555 1_555
F3D C6D 1_555 1_555
F4D C7D 1_555 1_555
O3C In1 1_555 1_555
O3G In1 1_555 1_555
O4B In2 1_555 1_555
O4C In2 1_555 1_555
O5D In1 1_555 1_555
In1A O5A 1_555 1_555
In1C O3D 1_555 1_555
In1C_2 O3 1_555 1_555
In2B O4 1_555 1_555
In2F O4D 1_555 1_555
O5 In1 1_555 1_555
O6 In2 1_555 1_555
C10 N1 1_555 1_555
C11 N1 1_555 1_555
C1D O1D 1_555 1_555

#END
