
#######################################################################
#
#                 Cambridge Crystallographic Data Centre
#                                CCDC 
#
#######################################################################
#
# If this CIF has been generated from an entry in the Cambridge 
# Structural Database, then it will include bibliographic, chemical, 
# crystal, experimental, refinement or atomic coordinate data resulting 
# from the CCDC's data processing and validation procedures.
#
#######################################################################

data_ANAWOD
_chemical_formula_moiety         '(C36 H15 F12 In3 O15)n'
_symmetry_cell_setting           orthorhombic
_symmetry_space_group_name_H-M   'P n n a'
_symmetry_Int_Tables_number      52
_space_group_name_Hall           '-P 2a 2bc'
loop_
_symmetry_equiv_pos_site_id
_symmetry_equiv_pos_as_xyz
1 x,y,z
2 1/2-x,-y,z
3 x,1/2-y,1/2-z
4 1/2-x,1/2+y,1/2-z
5 -x,-y,-z
6 1/2+x,y,-z
7 -x,1/2+y,1/2+z
8 1/2+x,1/2-y,1/2+z
_cell_length_a                   16.9789(13)
_cell_length_b                   21.612(2)
_cell_length_c                   13.8905(11)
_cell_angle_alpha                90
_cell_angle_beta                 90
_cell_angle_gamma                90
_cell_volume                     5097.09
loop_
_atom_site_label
_atom_site_type_symbol
_atom_site_fract_x
_atom_site_fract_y
_atom_site_fract_z
C1 C 0.3580(6) 0.1684(5) 0.6193(9)
C2 C 0.4256(6) 0.1661(5) 0.5478(8)
C3 C 0.4392(7) 0.2143(5) 0.4840(11)
C4 C 0.5037(7) 0.2130(5) 0.4211(10)
C5 C 0.5557(6) 0.1652(5) 0.4215(8)
C6 C 0.5426(7) 0.1161(6) 0.4850(11)
C7 C 0.4777(8) 0.1172(6) 0.5483(11)
C8 C 0.6271(6) 0.1647(5) 0.3575(8)
C9 C 0.1351(7) -0.0033(5) 0.8714(9)
C10 C 0.0658(7) -0.0019(5) 0.9383(9)
C11 C 0.0176(8) 0.0491(6) 0.9406(10)
C12 C -0.0488(8) 0.0501(6) 1.0016(12)
F1 F 0.3896(5) 0.2629(3) 0.4787(6)
F2 F 0.5117(5) 0.2614(3) 0.3612(6)
F3 F 0.5915(5) 0.0673(3) 0.4917(7)
F4 F 0.4692(5) 0.0683(3) 0.6083(7)
F5 F 0.0284(6) 0.0968(4) 0.8810(8)
F6 F -0.0957(5) 0.0999(4) 0.9964(7)
In1 In 0.25044(5) 0.2500 0.7500
In2 In 0.25003(4) 0.08327(3) 0.75091(4)
O1 O 0.3445(5) 0.2201(4) 0.6537(7)
O2 O 0.3244(5) 0.1181(4) 0.6376(6)
O3 O 0.6627(5) 0.2151(4) 0.3447(7)
O4 O 0.6456(5) 0.1127(4) 0.3229(7)
O5 O 0.1730(5) 0.0453(4) 0.8619(6)
O6 O 0.1483(5) -0.0549(3) 0.8296(6)
O7 O 0.2546(5) 0.1667(3) 0.8267(5)
H1 H 0.278(6) 0.1669(7) 0.880(3)
O8 O 0.2500 0.0000 0.6752(7)
H2 H 0.2500 0.0000 0.6157(15)
C9D C -0.1351(7) 0.0033(5) 1.1286(9)
C10D C -0.0658(7) 0.0019(5) 1.0617(9)
C11D C -0.0176(8) -0.0491(6) 1.0594(10)
C12D C 0.0488(8) -0.0501(6) 0.9984(12)
F5D F -0.0284(6) -0.0968(4) 1.1190(8)
F6D F 0.0957(5) -0.0999(4) 1.0036(7)
O5D O -0.1730(5) -0.0453(4) 1.1381(6)
O6D O -0.1483(5) 0.0549(3) 1.1704(6)
C1A C 0.1420(6) -0.1684(5) 0.6193(9)
C2A C 0.0744(6) -0.1661(5) 0.5478(8)
C3A C 0.0608(7) -0.2143(5) 0.4840(11)
C4A C -0.0037(7) -0.2130(5) 0.4211(10)
C5A C -0.0557(6) -0.1652(5) 0.4215(8)
C6A C -0.0426(7) -0.1161(6) 0.4850(11)
C7A C 0.0223(8) -0.1172(6) 0.5483(11)
C8A C -0.1271(6) -0.1647(5) 0.3575(8)
F1A F 0.1104(5) -0.2629(3) 0.4787(6)
F2A F -0.0117(5) -0.2614(3) 0.3612(6)
F3A F -0.0915(5) -0.0673(3) 0.4917(7)
F4A F 0.0308(5) -0.0683(3) 0.6083(7)
In2A In 0.24997(4) -0.08327(3) 0.75091(4)
O1A O 0.1555(5) -0.2201(4) 0.6537(7)
O2A O 0.1756(5) -0.1181(4) 0.6376(6)
O3A O -0.1627(5) -0.2151(4) 0.3447(7)
O4A O -0.1456(5) -0.1127(4) 0.3229(7)
O7A O 0.2454(5) -0.1667(3) 0.8267(5)
H1A H 0.222(6) -0.1669(7) 0.880(3)
In1A In 0.24956(5) -0.2500 0.7500
In1D In -0.25044(5) -0.2500 0.2500
In1E In 0.75044(5) 0.2500 0.2500
In2D In -0.25003(4) -0.08327(3) 0.24909(4)
In2D_2 In -0.25003(4) -0.08327(3) 1.24909(4)
In2E In -0.24997(4) 0.08327(3) 1.24909(4)
In2E_2 In 0.75003(4) 0.08327(3) 0.24909(4)
O1B O 0.3445(5) 0.2799(4) 0.8463(7)
O3E O 0.1627(5) 0.2151(4) 0.6553(7)
O3G O 0.1627(5) 0.2849(4) 0.8447(7)
O4D O 0.3544(5) -0.1127(4) 0.6771(7)
O4E O 0.1456(5) 0.1127(4) 0.6771(7)
O5A O 0.3270(5) -0.0453(4) 0.8619(6)
O6A O 0.3517(5) 0.0549(3) 0.8296(6)
O7B O 0.2546(5) 0.3333(3) 0.6733(5)
C13 C 0.344(2) 0.0616(14) 0.362(2)
H3 H 0.3630 0.0212 0.3757
C14 C 0.281(2) 0.0819(15) 0.411(2)
H4 H 0.2584 0.0575 0.4607
C15 C 0.251(2) 0.137(2) 0.389(2)
H5 H 0.2058 0.1504 0.4228
C16 C 0.281(2) 0.1751(19) 0.321(3)
H6 H 0.2591 0.2145 0.3078
C17 C 0.347(2) 0.153(2) 0.2715(19)
H7 H 0.3691 0.1769 0.2211
C18 C 0.383(2) 0.0956(17) 0.294(3)
H8 H 0.4299 0.0818 0.2634
C19 C 0.158(3) 0.078(2) 0.151(3)
H9 H 0.1870 0.0410 0.1614
C20 C 0.093(2) 0.0906(19) 0.200(3)
H10 H 0.0769 0.0618 0.2476
C21 C 0.0475(19) 0.141(2) 0.187(2)
H11 H 0.0002 0.1473 0.2222
C22 C 0.074(3) 0.184(3) 0.120(3)
H12 H 0.0429 0.2202 0.1101
C23 C 0.139(2) 0.177(2) 0.067(2)
H13 H 0.1552 0.2076 0.0217
C24 C 0.183(2) 0.121(2) 0.084(2)
H14 H 0.2293 0.1133 0.0484
loop_
_geom_bond_atom_site_label_1
_geom_bond_atom_site_label_2
_geom_bond_site_symmetry_1
_geom_bond_site_symmetry_2
C1 C2 1_555 1_555
C2 C3 1_555 1_555
C3 C4 1_555 1_555
C4 C5 1_555 1_555
C5 C6 1_555 1_555
C6 C7 1_555 1_555
C7 C2 1_555 1_555
C8 C5 1_555 1_555
C9 C10 1_555 1_555
C10 C11 1_555 1_555
C11 C12 1_555 1_555
C12 F6 1_555 1_555
F1 C3 1_555 1_555
F2 C4 1_555 1_555
F3 C6 1_555 1_555
F4 C7 1_555 1_555
F5 C11 1_555 1_555
In1 O1 1_555 1_555
In2 O2 1_555 1_555
O1 C1 1_555 1_555
O2 C1 1_555 1_555
O3 C8 1_555 1_555
O4 C8 1_555 1_555
O5 C9 1_555 1_555
O6 C9 1_555 1_555
O7 In1 1_555 1_555
H1 O7 1_555 1_555
O8 In2 1_555 1_555
H2 O8 1_555 1_555
C13 H3 1_555 1_555
C14 C13 1_555 1_555
H4 C14 1_555 1_555
C15 C14 1_555 1_555
H5 C15 1_555 1_555
C16 C15 1_555 1_555
H6 C16 1_555 1_555
C17 C16 1_555 1_555
H7 C17 1_555 1_555
C18 C13 1_555 1_555
H8 C18 1_555 1_555
C19 H9 1_555 1_555
C20 C19 1_555 1_555
H10 C20 1_555 1_555
C21 C20 1_555 1_555
H11 C21 1_555 1_555
C22 C21 1_555 1_555
H12 C22 1_555 1_555
C23 C22 1_555 1_555
H13 C23 1_555 1_555
C24 C19 1_555 1_555
H14 C24 1_555 1_555
C9D C10D 1_555 1_555
C10D C12 1_555 1_555
C11D C10D 1_555 1_555
C12D C10 1_555 1_555
F5D C11D 1_555 1_555
F6D C12D 1_555 1_555
O5D C9D 1_555 1_555
O6D C9D 1_555 1_555
C1A C2A 1_555 1_555
C2A C3A 1_555 1_555
C3A C4A 1_555 1_555
C4A C5A 1_555 1_555
C5A C6A 1_555 1_555
C6A C7A 1_555 1_555
C7A C2A 1_555 1_555
C8A C5A 1_555 1_555
F1A C3A 1_555 1_555
F2A C4A 1_555 1_555
F3A C6A 1_555 1_555
F4A C7A 1_555 1_555
In2A O6 1_555 1_555
O1A C1A 1_555 1_555
O2A C1A 1_555 1_555
O3A C8A 1_555 1_555
O4A C8A 1_555 1_555
O7A In2A 1_555 1_555
H1A O7A 1_555 1_555
In1A O1A 1_555 1_555
In1D O3A 1_555 1_555
In1E O3 1_555 1_555
In2D O4A 1_555 1_555
In2D_2 O5D 1_555 1_555
In2E O6D 1_555 1_555
In2E_2 O4 1_555 1_555
O1B In1 1_555 1_555
O3E In1 1_555 1_555
O3G In1 1_555 1_555
O4D In2A 1_555 1_555
O4E In2 1_555 1_555
O5A In2A 1_555 1_555
O6A In2 1_555 1_555
O7B In1 1_555 1_555
In2 O5 1_555 1_555
In2 O7 1_555 1_555
O8 In2A 1_555 1_555
C17 C18 1_555 1_555
C23 C24 1_555 1_555
C11D C12D 1_555 1_555
In2A O2A 1_555 1_555
O7A In1A 1_555 1_555

#END
