
#######################################################################
#
#                 Cambridge Crystallographic Data Centre
#                                CCDC 
#
#######################################################################
#
# If this CIF has been generated from an entry in the Cambridge 
# Structural Database, then it will include bibliographic, chemical, 
# crystal, experimental, refinement or atomic coordinate data resulting 
# from the CCDC's data processing and validation procedures.
#
#######################################################################

data_MUPLOA
_chemical_formula_moiety         'C108 H128 Eu19 O63 S36'
_symmetry_cell_setting           trigonal
_symmetry_space_group_name_H-M   'P -3'
_symmetry_Int_Tables_number      147
_space_group_name_Hall           '-P 3'
loop_
_symmetry_equiv_pos_site_id
_symmetry_equiv_pos_as_xyz
1 x,y,z
2 -y,x-y,z
3 -x+y,-x,z
4 -x,-y,-z
5 y,-x+y,-z
6 x-y,x,-z
_cell_length_a                   19.8319(12)
_cell_length_b                   19.8319(12)
_cell_length_c                   15.2208(19)
_cell_angle_alpha                90
_cell_angle_beta                 90
_cell_angle_gamma                120
_cell_volume                     5184.38
loop_
_atom_site_label
_atom_site_type_symbol
_atom_site_fract_x
_atom_site_fract_y
_atom_site_fract_z
Eu1 Eu 0.44228(2) 0.66051(2) 0.21252(2)
O1 O 0.4824(3) 0.6223(3) 0.3390(3)
O2 O 0.3257(2) 0.5834(2) 0.3011(2)
O3 O 0.3333 0.6667 0.1520(4)
O4 O 0.5707(3) 0.7742(3) 0.2647(3)
O5 O 0.3792(3) 0.5436(3) 0.1292(4)
O6 O 0.4952(2) 0.7517(3) 0.0966(3)
O7 O 0.5444(16) 0.639(2) 0.1679(17)
C1 C 0.4614(4) 0.6065(4) 0.4166(5)
Eu2 Eu 0.3333 0.6667 0.41665(3)
H1 H 0.3226 0.5345 0.3235
H2 H 0.3333 0.6667 0.0863
H3 H 0.598(3) 0.8226(11) 0.2685(17)
H4 H 0.6010(18) 0.7561(18) 0.272(5)
C2 C 0.3192(4) 0.5068(4) 0.0854(4)
C3 C 0.6121(6) 0.6588(6) 0.1767(6)
C4 C 0.4810(3) 0.5510(4) 0.4622(4)
O8 O 0.4245(3) 0.6314(3) 0.4590(3)
C5 C 0.3268(6) 0.4600(5) 0.0142(5)
C6 C 0.6396(4) 0.6179(4) 0.1150(4)
O9 O 0.6558(7) 0.7041(8) 0.2336(8)
C7 C 0.4297(3) 0.4715(4) 0.4548(4)
C8 C 0.5512(4) 0.5804(4) 0.5063(4)
C9 C 0.3077(6) 0.3831(5) 0.0272(4)
C10 C 0.3627(5) 0.4980(3) -0.0634(5)
C11 C 0.6755(5) 0.6559(3) 0.0374(5)
C12 C 0.6206(4) 0.5410(4) 0.1280(4)
S1 S 0.34209(10) 0.43902(10) 0.39451(12)
S2 S 0.61332(15) 0.68241(12) 0.5131(2)
S3 S 0.2578(4) 0.3357(5) 0.1226(5)
S4 S 0.3868(3) 0.5962(3) -0.0732(3)
S5 S 0.6939(3) 0.7531(2) 0.0205(3)
S6 S 0.5741(3) 0.4908(3) 0.2258(3)
C13 C 0.2752(5) 0.4281(7) 0.4809(7)
C14 C 0.5832(13) 0.7051(8) 0.6108(9)
C15 C 0.3344(10) 0.3417(15) 0.1892(10)
C16 C 0.4894(7) 0.6454(9) -0.0643(11)
C17 C 0.7919(10) 0.8081(10) 0.055(2)
C18 C 0.627(2) 0.5551(18) 0.3096(10)
H5 H 0.2229 0.4074 0.4563
H6 H 0.2919 0.4789 0.5080
H7 H 0.2745 0.3921 0.5255
H8 H 0.6056 0.7617 0.6150
H9 H 0.6009 0.6868 0.6607
H10 H 0.5263 0.6797 0.6116
H11 H 0.3665 0.3269 0.1544
H12 H 0.3122 0.3063 0.2393
H13 H 0.3665 0.3952 0.2105
H14 H 0.5100 0.7017 -0.0689
H15 H 0.5041 0.6334 -0.0074
H16 H 0.5109 0.6284 -0.1117
H17 H 0.8098 0.8637 0.0495
H18 H 0.8245 0.7949 0.0190
H19 H 0.7958 0.7961 0.1170
H20 H 0.6041 0.5312 0.3665
H21 H 0.6243 0.6030 0.3028
H22 H 0.6809 0.5674 0.3070
O2A O 0.4166(2) 0.7423(3) 0.3011(2)
Eu1B Eu 0.21823(3) 0.55772(2) 0.21252(2)
Eu1A Eu 0.33949(2) 0.78177(3) 0.21252(2)
H1A H 0.4655 0.7881 0.3235
C2A C 0.4932(4) 0.8124(6) 0.0854(4)
O8A O 0.3686(3) 0.7931(4) 0.4590(3)
O8B O 0.2069(4) 0.5755(3) 0.4590(3)
O2B O 0.2577(3) 0.6743(2) 0.3011(2)
O6B O 0.2565(4) 0.5048(2) 0.0966(3)
O1B O 0.1399(4) 0.5176(3) 0.3390(3)
O4B O 0.2035(4) 0.4293(3) 0.2647(3)
O5B O 0.1644(4) 0.6208(3) 0.1292(4)
O7B O 0.0946(26) 0.4556(16) 0.1679(17)
O1A O 0.3777(3) 0.8601(4) 0.3390(3)
O4A O 0.2258(3) 0.7965(4) 0.2647(3)
O5A O 0.4564(3) 0.8356(4) 0.1292(4)
O6A O 0.2483(3) 0.7435(4) 0.0966(3)
O7A O 0.361(2) 0.9054(26) 0.1679(17)
C5A C 0.5400(5) 0.8668(8) 0.0142(5)
C1A C 0.3935(4) 0.8549(6) 0.4166(5)
C1B C 0.1451(6) 0.5386(4) 0.4166(5)
H1B H 0.2119 0.6774 0.3235
H3B H 0.2246(32) 0.402(3) 0.2685(17)
H4B H 0.1551(25) 0.3990(18) 0.272(5)
C2B C 0.1876(6) 0.6808(4) 0.0854(4)
C3B C 0.0467(8) 0.3879(6) 0.1767(6)
H3A H 0.1774(11) 0.7754(32) 0.2685(17)
H4A H 0.2439(18) 0.8449(25) 0.272(5)
C9A C 0.6169(5) 0.9246(8) 0.0272(4)
C10A C 0.5020(3) 0.8647(6) -0.0634(5)
C8C C 0.4488(4) 0.4196(4) 0.4937(4)
C7C C 0.5703(3) 0.5285(4) 0.5452(4)
C4A C 0.4490(4) 0.9300(5) 0.4622(4)
C4B C 0.0700(5) 0.5190(3) 0.4622(4)
C5B C 0.1332(8) 0.6732(6) 0.0142(5)
C6B C -0.0217(6) 0.3604(4) 0.1150(4)
O9B O 0.0483(11) 0.3442(7) 0.2336(8)
C11C C 0.3245(5) 0.3441(3) -0.0374(5)
C12C C 0.3794(4) 0.4590(4) -0.1280(4)
C11D C 0.6559(3) 0.9804(6) -0.0374(5)
S3A S 0.6643(5) 0.9221(6) 0.1226(5)
C12D C 0.5410(4) 0.9204(6) -0.1280(4)
S4A S 0.4038(3) 0.7906(4) -0.0732(3)
C9C C 0.6923(6) 0.6169(5) -0.0272(4)
C10C C 0.6373(5) 0.5020(3) 0.0634(5)
C4C C 0.5190(3) 0.4490(4) 0.5378(4)
S2C S 0.38668(15) 0.31759(12) 0.4869(2)
S1C S 0.65791(10) 0.56098(10) 0.60549(12)
C7A C 0.5285(4) 0.9582(5) 0.4548(4)
C8A C 0.4196(4) 0.9708(6) 0.5063(4)
C7B C 0.0418(5) 0.5703(3) 0.4548(4)
C8B C 0.0292(6) 0.4488(4) 0.5063(4)
C9B C 0.0754(8) 0.6923(6) 0.0272(4)
C10B C 0.1353(6) 0.6373(5) -0.0634(5)
C11B C -0.0196(6) 0.3245(5) 0.0374(5)
C12B C -0.0796(6) 0.3794(4) 0.1280(4)
C6C C 0.3604(4) 0.3821(4) -0.1150(4)
S5C S 0.3061(3) 0.2469(2) -0.0205(3)
S6C S 0.4259(3) 0.5092(3) -0.2258(3)
C6D C 0.6179(4) 0.9783(6) -0.1150(4)
S5D S 0.7531(2) 1.0592(4) -0.0205(3)
C15A C 0.6583(15) 0.9927(18) 0.1892(10)
S6D S 0.4908(3) 0.9167(4) -0.2258(3)
C16A C 0.3546(9) 0.8440(11) -0.0643(11)
C5C C 0.6732(6) 0.5400(5) -0.0142(5)
S3C S 0.7422(4) 0.6643(5) -0.1226(5)
S4C S 0.6132(3) 0.4038(3) 0.0732(3)
C1C C 0.5386(4) 0.3935(4) 0.5834(5)
C14C C 0.4168(13) 0.2949(8) 0.3892(9)
C13C C 0.7248(5) 0.5719(7) 0.5191(7)
S1A S 0.56098(10) 0.90307(14) 0.39451(12)
C8D C 0.5804(4) 1.0292(6) 0.4937(4)
S2A S 0.31759(12) 0.93091(19) 0.5131(2)
C7D C 0.4715(4) 1.0418(5) 0.5452(4)
S1B S 0.09693(14) 0.65791(10) 0.39451(12)
C8E C -0.0292(6) 0.5512(4) 0.4937(4)
S2B S 0.06909(19) 0.38668(15) 0.5131(2)
C7E C -0.0418(5) 0.4297(3) 0.5452(4)
C11E C 0.0196(6) 0.6755(5) -0.0374(5)
S3B S 0.0779(6) 0.7422(4) 0.1226(5)
C12E C 0.0796(6) 0.6206(4) -0.1280(4)
S4B S 0.2094(4) 0.6132(3) -0.0732(3)
C9E C -0.0754(8) 0.3077(6) -0.0272(4)
S5B S 0.0592(4) 0.3061(3) 0.0205(3)
C10E C -0.1353(6) 0.3627(5) 0.0634(5)
S6B S -0.0833(4) 0.4259(3) 0.2258(3)
C3C C 0.3879(6) 0.3412(6) -0.1767(6)
C17C C 0.2081(10) 0.1919(10) -0.055(2)
C18C C 0.373(2) 0.4449(18) -0.3096(10)
C3D C 0.6588(6) 1.0467(8) -0.1767(6)
C17D C 0.8081(10) 1.0162(14) -0.055(2)
H11A H 0.6731 1.0396 0.1544
H12A H 0.6937 1.0059 0.2393
H13A H 0.6048 0.9713 0.2105
C18D C 0.5551(18) 0.9281(27) -0.3096(10)
H14A H 0.2983 0.8083 -0.0689
H15A H 0.3666 0.8707 -0.0074
H16A H 0.3716 0.8825 -0.1117
C2C C 0.6808(4) 0.4932(4) -0.0854(4)
C15C C 0.6656(10) 0.6583(15) -0.1892(10)
C16C C 0.5106(7) 0.3546(9) 0.0643(11)
O1C O 0.5176(3) 0.3777(3) 0.6610(3)
O8C O 0.5755(3) 0.3686(3) 0.5410(3)
H8C H 0.3944 0.2383 0.3850
H9C H 0.3991 0.3132 0.3393
H10C H 0.4737 0.3203 0.3884
H5C H 0.7771 0.5926 0.5437
H6C H 0.7081 0.5211 0.4920
H7C H 0.7255 0.6079 0.4745
C13A C 0.5719(7) 0.8471(9) 0.4809(7)
C4D C 0.5510(4) 1.0700(5) 0.5378(4)
S2D S 0.68241(12) 1.06909(19) 0.4869(2)
C14A C 0.2949(8) 0.8781(15) 0.6108(9)
S1D S 0.43902(10) 1.09693(14) 0.60549(12)
C13B C 0.1529(9) 0.7248(5) 0.4809(7)
C4E C -0.0700(5) 0.4810(3) 0.5378(4)
S2E S -0.06909(19) 0.61332(15) 0.4869(2)
C14B C 0.1219(15) 0.4168(13) 0.6108(9)
S1E S -0.09693(14) 0.34209(10) 0.60549(12)
C6E C 0.0217(6) 0.6396(4) -0.1150(4)
S5E S -0.0592(4) 0.6939(3) -0.0205(3)
C15B C 0.0073(18) 0.6656(10) 0.1892(10)
S6E S 0.0833(4) 0.5741(3) -0.2258(3)
C16B C 0.1560(11) 0.5106(7) -0.0643(11)
C5E C -0.1332(8) 0.3268(6) -0.0142(5)
S3E S -0.0779(6) 0.2578(4) -0.1226(5)
C17B C 0.0162(14) 0.2081(10) 0.055(2)
S4E S -0.2094(4) 0.3868(3) 0.0732(3)
C18B C -0.0719(27) 0.373(2) 0.3096(10)
O9C O 0.3442(7) 0.2959(8) -0.2336(8)
O7C O 0.4556(16) 0.361(2) -0.1679(17)
H17C H 0.1902 0.1363 -0.0495
H18C H 0.1755 0.2051 -0.0190
H19C H 0.2042 0.2039 -0.1170
H20C H 0.3959 0.4688 -0.3665
H21C H 0.3757 0.3970 -0.3028
H22C H 0.3191 0.4326 -0.3070
O9D O 0.7041(8) 1.0483(11) -0.2336(8)
O7D O 0.639(2) 1.0946(26) -0.1679(17)
H17D H 0.8637 1.0539 -0.0495
H18D H 0.7949 0.9704 -0.0190
H19D H 0.7961 1.0003 -0.1170
H20D H 0.5312 0.9271 -0.3665
H21D H 0.6030 0.9787 -0.3028
H22D H 0.5674 0.8865 -0.3070
O6E O 0.7435(4) 0.4952(2) -0.0966(3)
O5C O 0.6208(3) 0.4564(3) -0.1292(4)
H11C H 0.6335 0.6731 -0.1544
H12C H 0.6878 0.6937 -0.2393
H13C H 0.6335 0.6048 -0.2105
H14C H 0.4900 0.2983 0.0689
H15C H 0.4959 0.3666 0.0074
H16C H 0.4891 0.3716 0.1117
Eu1C Eu 0.55772(2) 0.33949(2) 0.78748(2)
Eu2C Eu 0.6667 0.3333 0.58335(3)
H5A H 0.5926 0.8155 0.4563
H6A H 0.5211 0.8130 0.5080
H7A H 0.6079 0.8824 0.5255
C1D C 0.6065(4) 1.1451(6) 0.5834(5)
C14D C 0.7051(8) 1.1219(15) 0.3892(9)
H8A H 0.2383 0.8439 0.6150
H9A H 0.3132 0.9141 0.6607
H10A H 0.3203 0.8466 0.6116
C13D C 0.4281(7) 1.1529(9) 0.5191(7)
H5B H 0.1845 0.7771 0.4563
H6B H 0.1870 0.7081 0.5080
H7B H 0.1176 0.7255 0.5255
C1E C -0.1451(6) 0.4614(4) 0.5834(5)
C14E C -0.1219(15) 0.5832(13) 0.3892(9)
H8B H 0.1561 0.3944 0.6150
H9B H 0.0859 0.3991 0.6607
H10B H 0.1534 0.4737 0.6116
C13E C -0.1529(9) 0.2752(5) 0.5191(7)
C3E C -0.0467(8) 0.6121(6) -0.1767(6)
C17E C -0.0162(14) 0.7919(10) -0.055(2)
H11B H -0.0396 0.6335 0.1544
H12B H -0.0059 0.6878 0.2393
H13B H 0.0287 0.6335 0.2105
C18E C 0.0719(27) 0.627(2) -0.3096(10)
H14B H 0.1917 0.4900 -0.0689
H15B H 0.1293 0.4959 -0.0074
H16B H 0.1175 0.4891 -0.1117
C2E C -0.1876(6) 0.3192(4) -0.0854(4)
C15E C -0.0073(18) 0.3344(10) -0.1892(10)
H17B H 0.0539 0.1902 0.0495
H18B H -0.0296 0.1755 0.0190
H19B H 0.0003 0.2042 0.1170
C16E C -0.1560(11) 0.4894(7) 0.0643(11)
H20B H -0.0729 0.3959 0.3665
H21B H -0.0213 0.3757 0.3028
H22B H -0.1135 0.3191 0.3070
Eu1C_2 Eu 0.55772(2) 0.33949(2) -0.21252(2)
Eu1D Eu 0.66051(2) 1.21823(3) -0.21252(2)
Eu1E Eu 0.78177(3) 0.44228(2) -0.21252(2)
O1D O 0.6223(3) 1.1399(4) 0.6610(3)
O8D O 0.6314(3) 1.2069(4) 0.5410(3)
H8D H 0.7617 1.1561 0.3850
H9D H 0.6868 1.0859 0.3393
H10D H 0.6797 1.1534 0.3884
H5D H 0.4074 1.1845 0.5437
H6D H 0.4789 1.1870 0.4920
H7D H 0.3921 1.1176 0.4745
O1E O -0.1399(4) 0.4824(3) 0.6610(3)
O8E O -0.2069(4) 0.4245(3) 0.5410(3)
H8E H -0.1561 0.6056 0.3850
H9E H -0.0859 0.6009 0.3393
H10E H -0.1534 0.5263 0.3884
H5E H -0.1845 0.2229 0.5437
H6E H -0.1870 0.2919 0.4920
H7E H -0.1176 0.2745 0.4745
O9E O -0.0483(11) 0.6558(7) -0.2336(8)
O7E O -0.0946(26) 0.5444(16) -0.1679(17)
H17E H -0.0539 0.8098 -0.0495
H18E H 0.0296 0.8245 -0.0190
H19E H -0.0003 0.7958 -0.1170
H20E H 0.0729 0.6041 -0.3665
H21E H 0.0213 0.6243 -0.3028
H22E H 0.1135 0.6809 -0.3070
O6D O -0.2483(3) 0.2565(4) -0.0966(3)
O5E O -0.1644(4) 0.3792(3) -0.1292(4)
H11E H 0.0396 0.3665 -0.1544
H12E H 0.0059 0.3122 -0.2393
H13E H -0.0287 0.3665 -0.2105
H14E H -0.1917 0.5100 0.0689
H15E H -0.1293 0.5041 0.0074
H16E H -0.1175 0.5109 0.1117
O2C O 0.6743(2) 0.4166(2) -0.3011(2)
O3C O 0.6667 0.3333 -0.1520(4)
O4C O 0.4293(3) 0.2258(3) -0.2647(3)
O2D O 0.5834(2) 0.2577(3) -0.3011(2)
O6C O 0.5048(2) 0.2483(3) -0.0966(3)
O1C_2 O 0.5176(3) 0.3777(3) -0.3390(3)
O2E O 0.7423(3) 0.3257(2) -0.3011(2)
Eu1D_2 Eu 0.66051(2) 1.21823(3) 0.78748(2)
Eu2C_2 Eu 0.6667 1.3333 0.58335(3)
Eu1E_2 Eu -0.21823(3) 0.44228(2) 0.78748(2)
Eu2C_3 Eu -0.3333 0.3333 0.58335(3)
Eu1E_3 Eu -0.21823(3) 0.44228(2) -0.21252(2)
Eu1D_3 Eu -0.33949(2) 0.21823(3) -0.21252(2)
Eu2C_4 Eu 0.6667 0.3333 -0.41665(3)
H1C H 0.6774 0.4655 -0.3235
H2C H 0.6667 0.3333 -0.0863
Eu1D_4 Eu 0.66051(2) 0.21823(3) -0.21252(2)
H3C H 0.402(3) 0.1774(11) -0.2685(17)
H4C H 0.3990(18) 0.2439(18) -0.272(5)
H1D H 0.5345 0.2119 -0.3235
C2D C 0.5068(4) 0.1876(6) -0.0854(4)
O2E_2 O -0.2577(3) 0.3257(2) -0.3011(2)
O4E O -0.2035(4) 0.5707(3) -0.2647(3)
O1E_2 O -0.1399(4) 0.4824(3) -0.3390(3)
O2C_2 O -0.3257(2) 0.4166(2) -0.3011(2)
O3C_2 O -0.3333 0.3333 -0.1520(4)
O6E_2 O -0.2565(4) 0.4952(2) -0.0966(3)
O8C_2 O 0.5755(3) 0.3686(3) -0.4590(3)
O8D_2 O 0.6314(3) 0.2069(4) -0.4590(3)
O8E_2 O 0.7931(4) 0.4245(3) -0.4590(3)
O4D O 0.7742(3) 0.2035(4) -0.2647(3)
O5D O 0.5436(3) 0.1644(4) -0.1292(4)
O7D_2 O 0.639(2) 0.0946(26) -0.1679(17)
O1D_2 O 0.6223(3) 0.1399(4) -0.3390(3)
O6D_2 O 0.7517(3) 0.2565(4) -0.0966(3)
C5D C 0.4600(5) 0.1332(8) -0.0142(5)
H1E H -0.2119 0.3226 -0.3235
Eu2C_5 Eu -0.3333 0.3333 -0.41665(3)
H3E H -0.2246(32) 0.598(3) -0.2685(17)
H4E H -0.1551(25) 0.6010(18) -0.272(5)
H3D H 0.8226(11) 0.2246(32) -0.2685(17)
H4D H 0.7561(18) 0.1551(25) -0.272(5)
C9D C 0.3831(5) 0.0754(8) -0.0272(4)
C10D C 0.4980(3) 0.1353(6) 0.0634(5)
C11A C 0.3441(3) 0.0196(6) 0.0374(5)
S3D S 0.3357(5) 0.0779(6) -0.1226(5)
C12A C 0.4590(4) 0.0796(6) 0.1280(4)
S4D S 0.5962(3) 0.2094(4) 0.0732(3)
C6A C 0.3821(4) 0.0217(6) 0.1150(4)
S5A S 0.2469(2) -0.0592(4) 0.0205(3)
C15D C 0.3417(15) 0.0073(18) -0.1892(10)
S6A S 0.5092(3) 0.0833(4) 0.2258(3)
C16D C 0.6454(9) 0.1560(11) 0.0643(11)
C3A C 0.3412(6) -0.0467(8) 0.1767(6)
C17A C 0.1919(10) -0.0162(14) 0.055(2)
H11D H 0.3269 -0.0396 -0.1544
H12D H 0.3063 -0.0059 -0.2393
H13D H 0.3952 0.0287 -0.2105
C18A C 0.4449(18) 0.0719(27) 0.3096(10)
H14D H 0.7017 0.1917 0.0689
H15D H 0.6334 0.1293 0.0074
H16D H 0.6284 0.1175 0.1117
O9A O 0.2959(8) -0.0483(11) 0.2336(8)
O7A_2 O 0.361(2) -0.0946(26) 0.1679(17)
H17A H 0.1363 -0.0539 0.0495
H18A H 0.2051 0.0296 0.0190
H19A H 0.2039 -0.0003 0.1170
H20A H 0.4688 0.0729 0.3665
H21A H 0.3970 0.0213 0.3028
H22A H 0.4326 0.1135 0.3070
Eu1A_2 Eu 0.33949(2) -0.21823(3) 0.21252(2)
loop_
_geom_bond_atom_site_label_1
_geom_bond_atom_site_label_2
_geom_bond_site_symmetry_1
_geom_bond_site_symmetry_2
Eu1 O1 1_555 1_555
O1 C1 1_555 1_555
O2 Eu1 1_555 1_555
O3 Eu1 1_555 1_555
O4 Eu1 1_555 1_555
O5 Eu1 1_555 1_555
O6 Eu1 1_555 1_555
O7 Eu1 1_555 1_555
C1 C4 1_555 1_555
Eu2 O2 1_555 1_555
H1 O2 1_555 1_555
H2 O3 1_555 1_555
H3 O4 1_555 1_555
H4 O4 1_555 1_555
C2 O5 1_555 1_555
C3 O7 1_555 1_555
C4 C7 1_555 1_555
O8 C1 1_555 1_555
C5 C2 1_555 1_555
C6 C3 1_555 1_555
O9 C3 1_555 1_555
C7 S1 1_555 1_555
C8 C4 1_555 1_555
C9 C5 1_555 1_555
C10 C5 1_555 1_555
C11 C6 1_555 1_555
C12 C6 1_555 1_555
S1 C13 1_555 1_555
S2 C8 1_555 1_555
S3 C9 1_555 1_555
S4 C10 1_555 1_555
S5 C11 1_555 1_555
S6 C12 1_555 1_555
C13 H5 1_555 1_555
C14 S2 1_555 1_555
C15 S3 1_555 1_555
C16 S4 1_555 1_555
C17 S5 1_555 1_555
C18 S6 1_555 1_555
H6 C13 1_555 1_555
H7 C13 1_555 1_555
H8 C14 1_555 1_555
H9 C14 1_555 1_555
H10 C14 1_555 1_555
H11 C15 1_555 1_555
H12 C15 1_555 1_555
H13 C15 1_555 1_555
H14 C16 1_555 1_555
H15 C16 1_555 1_555
H16 C16 1_555 1_555
H17 C17 1_555 1_555
H18 C17 1_555 1_555
H19 C17 1_555 1_555
H20 C18 1_555 1_555
H21 C18 1_555 1_555
H22 C18 1_555 1_555
O2A Eu1 1_555 1_555
Eu1B O2 1_555 1_555
Eu1A O3 1_555 1_555
H1A O2A 1_555 1_555
C2A O6 1_555 1_555
O8A Eu2 1_555 1_555
O8B Eu2 1_555 1_555
O2B Eu2 1_555 1_555
O6B C2 1_555 1_555
O1B Eu1B 1_555 1_555
O4B Eu1B 1_555 1_555
O5B Eu1B 1_555 1_555
O7B Eu1B 1_555 1_555
O1A Eu1A 1_555 1_555
O4A Eu1A 1_555 1_555
O5A Eu1A 1_555 1_555
O6A Eu1A 1_555 1_555
O7A Eu1A 1_555 1_555
C5A C2A 1_555 1_555
C1A O8A 1_555 1_555
C1B O8B 1_555 1_555
H1B O2B 1_555 1_555
H3B O4B 1_555 1_555
H4B O4B 1_555 1_555
C2B O5B 1_555 1_555
C3B O7B 1_555 1_555
H3A O4A 1_555 1_555
H4A O4A 1_555 1_555
C9A C5A 1_555 1_555
C10A C5A 1_555 1_555
C8C C7 1_555 1_555
C7C C8 1_555 1_555
C4A C1A 1_555 1_555
C4B C1B 1_555 1_555
C5B C2B 1_555 1_555
C6B C3B 1_555 1_555
O9B C3B 1_555 1_555
C11C C9 1_555 1_555
C12C C10 1_555 1_555
C11D C9A 1_555 1_555
S3A C9A 1_555 1_555
C12D C10A 1_555 1_555
S4A C10A 1_555 1_555
C9C C11 1_555 1_555
C10C C12 1_555 1_555
C4C C8C 1_555 1_555
S2C C8C 1_555 1_555
S1C C7C 1_555 1_555
C7A C4A 1_555 1_555
C8A C4A 1_555 1_555
C7B C4B 1_555 1_555
C8B C4B 1_555 1_555
C9B C5B 1_555 1_555
C10B C5B 1_555 1_555
C11B C6B 1_555 1_555
C12B C6B 1_555 1_555
C6C C11C 1_555 1_555
S5C C11C 1_555 1_555
S6C C12C 1_555 1_555
C6D C11D 1_555 1_555
S5D C11D 1_555 1_555
C15A S3A 1_555 1_555
S6D C12D 1_555 1_555
C16A S4A 1_555 1_555
C5C C9C 1_555 1_555
S3C C9C 1_555 1_555
S4C C10C 1_555 1_555
C1C C4C 1_555 1_555
C14C S2C 1_555 1_555
C13C S1C 1_555 1_555
S1A C7A 1_555 1_555
C8D C7A 1_555 1_555
S2A C8A 1_555 1_555
C7D C8A 1_555 1_555
S1B C7B 1_555 1_555
C8E C7B 1_555 1_555
S2B C8B 1_555 1_555
C7E C8B 1_555 1_555
C11E C9B 1_555 1_555
S3B C9B 1_555 1_555
C12E C10B 1_555 1_555
S4B C10B 1_555 1_555
C9E C11B 1_555 1_555
S5B C11B 1_555 1_555
C10E C12B 1_555 1_555
S6B C12B 1_555 1_555
C3C C6C 1_555 1_555
C17C S5C 1_555 1_555
C18C S6C 1_555 1_555
C3D C6D 1_555 1_555
C17D S5D 1_555 1_555
H11A C15A 1_555 1_555
H12A C15A 1_555 1_555
H13A C15A 1_555 1_555
C18D S6D 1_555 1_555
H14A C16A 1_555 1_555
H15A C16A 1_555 1_555
H16A C16A 1_555 1_555
C2C C5C 1_555 1_555
C15C S3C 1_555 1_555
C16C S4C 1_555 1_555
O1C C1C 1_555 1_555
O8C C1C 1_555 1_555
H8C C14C 1_555 1_555
H9C C14C 1_555 1_555
H10C C14C 1_555 1_555
H5C C13C 1_555 1_555
H6C C13C 1_555 1_555
H7C C13C 1_555 1_555
C13A S1A 1_555 1_555
C4D C8D 1_555 1_555
S2D C8D 1_555 1_555
C14A S2A 1_555 1_555
S1D C7D 1_555 1_555
C13B S1B 1_555 1_555
C4E C8E 1_555 1_555
S2E C8E 1_555 1_555
C14B S2B 1_555 1_555
S1E C7E 1_555 1_555
C6E C11E 1_555 1_555
S5E C11E 1_555 1_555
C15B S3B 1_555 1_555
S6E C12E 1_555 1_555
C16B S4B 1_555 1_555
C5E C9E 1_555 1_555
S3E C9E 1_555 1_555
C17B S5B 1_555 1_555
S4E C10E 1_555 1_555
C18B S6B 1_555 1_555
O9C C3C 1_555 1_555
O7C C3C 1_555 1_555
H17C C17C 1_555 1_555
H18C C17C 1_555 1_555
H19C C17C 1_555 1_555
H20C C18C 1_555 1_555
H21C C18C 1_555 1_555
H22C C18C 1_555 1_555
O9D C3D 1_555 1_555
O7D C3D 1_555 1_555
H17D C17D 1_555 1_555
H18D C17D 1_555 1_555
H19D C17D 1_555 1_555
H20D C18D 1_555 1_555
H21D C18D 1_555 1_555
H22D C18D 1_555 1_555
O6E C2C 1_555 1_555
O5C C2C 1_555 1_555
H11C C15C 1_555 1_555
H12C C15C 1_555 1_555
H13C C15C 1_555 1_555
H14C C16C 1_555 1_555
H15C C16C 1_555 1_555
H16C C16C 1_555 1_555
Eu1C O1C 1_555 1_555
Eu2C O8C 1_555 1_555
H5A C13A 1_555 1_555
H6A C13A 1_555 1_555
H7A C13A 1_555 1_555
C1D C4D 1_555 1_555
C14D S2D 1_555 1_555
H8A C14A 1_555 1_555
H9A C14A 1_555 1_555
H10A C14A 1_555 1_555
C13D S1D 1_555 1_555
H5B C13B 1_555 1_555
H6B C13B 1_555 1_555
H7B C13B 1_555 1_555
C1E C4E 1_555 1_555
C14E S2E 1_555 1_555
H8B C14B 1_555 1_555
H9B C14B 1_555 1_555
H10B C14B 1_555 1_555
C13E S1E 1_555 1_555
C3E C6E 1_555 1_555
C17E S5E 1_555 1_555
H11B C15B 1_555 1_555
H12B C15B 1_555 1_555
H13B C15B 1_555 1_555
C18E S6E 1_555 1_555
H14B C16B 1_555 1_555
H15B C16B 1_555 1_555
H16B C16B 1_555 1_555
C2E C5E 1_555 1_555
C15E S3E 1_555 1_555
H17B C17B 1_555 1_555
H18B C17B 1_555 1_555
H19B C17B 1_555 1_555
C16E S4E 1_555 1_555
H20B C18B 1_555 1_555
H21B C18B 1_555 1_555
H22B C18B 1_555 1_555
Eu1C_2 O7C 1_555 1_555
Eu1D O7D 1_555 1_555
Eu1E O6E 1_555 1_555
O1D C1D 1_555 1_555
O8D C1D 1_555 1_555
H8D C14D 1_555 1_555
H9D C14D 1_555 1_555
H10D C14D 1_555 1_555
H5D C13D 1_555 1_555
H6D C13D 1_555 1_555
H7D C13D 1_555 1_555
O1E C1E 1_555 1_555
O8E C1E 1_555 1_555
H8E C14E 1_555 1_555
H9E C14E 1_555 1_555
H10E C14E 1_555 1_555
H5E C13E 1_555 1_555
H6E C13E 1_555 1_555
H7E C13E 1_555 1_555
O9E C3E 1_555 1_555
O7E C3E 1_555 1_555
H17E C17E 1_555 1_555
H18E C17E 1_555 1_555
H19E C17E 1_555 1_555
H20E C18E 1_555 1_555
H21E C18E 1_555 1_555
H22E C18E 1_555 1_555
O6D C2E 1_555 1_555
O5E C2E 1_555 1_555
H11E C15E 1_555 1_555
H12E C15E 1_555 1_555
H13E C15E 1_555 1_555
H14E C16E 1_555 1_555
H15E C16E 1_555 1_555
H16E C16E 1_555 1_555
O2C Eu1C_2 1_555 1_555
O3C Eu1C_2 1_555 1_555
O4C Eu1C_2 1_555 1_555
O2D Eu1C_2 1_555 1_555
O6C Eu1C_2 1_555 1_555
O1C_2 Eu1C_2 1_555 1_555
O2E Eu1E 1_555 1_555
Eu1D_2 O1D 1_555 1_555
Eu2C_2 O8D 1_555 1_555
Eu1E_2 O1E 1_555 1_555
Eu2C_3 O8E 1_555 1_555
Eu1E_3 O7E 1_555 1_555
Eu1D_3 O6D 1_555 1_555
Eu2C_4 O2C 1_555 1_555
H1C O2C 1_555 1_555
H2C O3C 1_555 1_555
Eu1D_4 O3C 1_555 1_555
H3C O4C 1_555 1_555
H4C O4C 1_555 1_555
H1D O2D 1_555 1_555
C2D O6C 1_555 1_555
O2E_2 Eu1E_3 1_555 1_555
O4E Eu1E_3 1_555 1_555
O1E_2 Eu1E_3 1_555 1_555
O2C_2 Eu1E_3 1_555 1_555
O3C_2 Eu1E_3 1_555 1_555
O6E_2 Eu1E_3 1_555 1_555
O8C_2 Eu2C_4 1_555 1_555
O8D_2 Eu2C_4 1_555 1_555
O8E_2 Eu2C_4 1_555 1_555
O4D Eu1D_4 1_555 1_555
O5D Eu1D_4 1_555 1_555
O7D_2 Eu1D_4 1_555 1_555
O1D_2 Eu1D_4 1_555 1_555
O6D_2 Eu1D_4 1_555 1_555
C5D C2D 1_555 1_555
H1E O2E_2 1_555 1_555
Eu2C_5 O2E_2 1_555 1_555
H3E O4E 1_555 1_555
H4E O4E 1_555 1_555
H3D O4D 1_555 1_555
H4D O4D 1_555 1_555
C9D C5D 1_555 1_555
C10D C5D 1_555 1_555
C11A C9D 1_555 1_555
S3D C9D 1_555 1_555
C12A C10D 1_555 1_555
S4D C10D 1_555 1_555
C6A C11A 1_555 1_555
S5A C11A 1_555 1_555
C15D S3D 1_555 1_555
S6A C12A 1_555 1_555
C16D S4D 1_555 1_555
C3A C6A 1_555 1_555
C17A S5A 1_555 1_555
H11D C15D 1_555 1_555
H12D C15D 1_555 1_555
H13D C15D 1_555 1_555
C18A S6A 1_555 1_555
H14D C16D 1_555 1_555
H15D C16D 1_555 1_555
H16D C16D 1_555 1_555
O9A C3A 1_555 1_555
O7A_2 C3A 1_555 1_555
H17A C17A 1_555 1_555
H18A C17A 1_555 1_555
H19A C17A 1_555 1_555
H20A C18A 1_555 1_555
H21A C18A 1_555 1_555
H22A C18A 1_555 1_555
Eu1A_2 O7A_2 1_555 1_555
O3 Eu1B 1_555 1_555
Eu2 O8 1_555 1_555
Eu2 O2A 1_555 1_555
O2A Eu1A 1_555 1_555
Eu1B O2B 1_555 1_555
Eu1B O6B 1_555 1_555
Eu1A O2B 1_555 1_555
C2A O5A 1_555 1_555
O1B C1B 1_555 1_555
O1A C1A 1_555 1_555
O6A C2B 1_555 1_555
C7C C4C 1_555 1_555
C12C C6C 1_555 1_555
C12D C6D 1_555 1_555
C10C C5C 1_555 1_555
C7D C4D 1_555 1_555
C7E C4E 1_555 1_555
C12E C6E 1_555 1_555
C10E C5E 1_555 1_555
O5C Eu1C_2 1_555 1_555
Eu1E O2C 1_555 1_555
Eu1E O3C 1_555 1_555
O5E Eu1E_3 1_555 1_555
O2D Eu2C_4 1_555 1_555
O2D Eu1D_4 1_555 1_555
O2E Eu2C_4 1_555 1_555
O2E Eu1D_4 1_555 1_555
Eu1D_3 O2E_2 1_555 1_555
Eu1D_3 O3C_2 1_555 1_555
C2D O5D 1_555 1_555
O2C_2 Eu2C_5 1_555 1_555
C12A C6A 1_555 1_555

#END
