
#######################################################################
#
#                 Cambridge Crystallographic Data Centre
#                                CCDC 
#
#######################################################################
#
# If this CIF has been generated from an entry in the Cambridge 
# Structural Database, then it will include bibliographic, chemical, 
# crystal, experimental, refinement or atomic coordinate data resulting 
# from the CCDC's data processing and validation procedures.
#
#######################################################################

data_MUTVUT
_chemical_formula_moiety         '(C52 H56 Cd2 N8 O12)n'
_symmetry_cell_setting           orthorhombic
_symmetry_space_group_name_H-M   'C 2 2 21'
_symmetry_Int_Tables_number      20
_space_group_name_Hall           'C 2c 2'
loop_
_symmetry_equiv_pos_site_id
_symmetry_equiv_pos_as_xyz
1 x,y,z
2 -x,-y,1/2+z
3 x,-y,-z
4 -x,y,1/2-z
5 1/2+x,1/2+y,z
6 1/2-x,1/2-y,1/2+z
7 1/2+x,1/2-y,-z
8 1/2-x,1/2+y,1/2-z
_cell_length_a                   9.3345(9)
_cell_length_b                   22.203(2)
_cell_length_c                   27.514(3)
_cell_angle_alpha                90
_cell_angle_beta                 90
_cell_angle_gamma                90
_cell_volume                     5702.38
loop_
_atom_site_label
_atom_site_type_symbol
_atom_site_fract_x
_atom_site_fract_y
_atom_site_fract_z
_atom_site_U_iso_or_equiv
_atom_site_thermal_displace_type
Cd1 Cd 0.35084(7) 0.0000 -0.5000 0.0635 Uani
Cd2 Cd -1.0000 0.25596(3) -0.2500 0.0542 Uani
N1 N -0.9404(6) 0.3167(3) -0.1857(2) 0.0563 Uani
N2 N -0.8026(6) 0.3760(3) -0.1422(2) 0.0543 Uani
N3 N -0.1631(6) 0.4443(3) -0.1096(2) 0.0610 Uani
N4 N -0.0009(6) 0.4862(3) -0.06264(19) 0.0610 Uani
O1 O 0.2464(5) 0.0973(3) -0.5028(2) 0.0793 Uani
O2 O 0.1764(7) 0.0373(3) -0.4447(3) 0.1110 Uani
O3 O -0.3392(6) 0.2207(2) -0.44188(19) 0.0830 Uani
O4 O -0.8887(5) 0.1901(3) -0.3080(2) 0.0760 Uani
O5 O -0.7508(6) 0.2486(4) -0.2619(2) 0.1010 Uani
C1 C 0.1603(8) 0.0830(4) -0.4692(3) 0.0697 Uani
C2 C 0.0308(7) 0.1225(3) -0.4596(3) 0.0560 Uani
C3 C 0.0061(9) 0.1735(3) -0.4855(2) 0.0637 Uani
H1 H 0.0712 0.1859 -0.5090 0.0760 Uiso
C4 C -0.1160(8) 0.2068(4) -0.4768(3) 0.0687 Uani
H2 H -0.1316 0.2423 -0.4939 0.0830 Uiso
C5 C -0.2138(8) 0.1881(3) -0.4434(3) 0.0583 Uani
C6 C -0.1923(8) 0.1366(3) -0.4164(2) 0.0570 Uani
H3 H -0.2590 0.1242 -0.3934 0.0680 Uiso
C7 C -0.0667(8) 0.1036(3) -0.4248(3) 0.0623 Uani
H4 H -0.0486 0.0689 -0.4069 0.0750 Uiso
C8 C -0.4372(9) 0.2117(3) -0.4042(3) 0.0617 Uani
C9 C -0.5713(9) 0.1908(4) -0.4161(3) 0.0677 Uani
H5 H -0.5904 0.1771 -0.4474 0.0820 Uiso
C10 C -0.6764(9) 0.1902(4) -0.3815(3) 0.0687 Uani
H6 H -0.7678 0.1769 -0.3896 0.0820 Uiso
C11 C -0.6487(7) 0.2090(3) -0.3349(2) 0.0560 Uani
C12 C -0.5127(8) 0.2274(4) -0.3227(3) 0.0683 Uani
H7 H -0.4923 0.2397 -0.2911 0.0820 Uiso
C13 C -0.4060(8) 0.2274(4) -0.3579(3) 0.0703 Uani
H8 H -0.3129 0.2383 -0.3496 0.0840 Uiso
C14 C -0.7696(8) 0.2157(4) -0.2988(3) 0.0707 Uani
C15 C -0.7977(13) 0.3921(5) -0.2327(3) 0.1023 Uani
H9 H -0.8598 0.3812 -0.2591 0.1540 Uiso
H10 H -0.7011 0.3806 -0.2403 0.1540 Uiso
H11 H -0.8019 0.4348 -0.2276 0.1540 Uiso
C16 C -0.8446(8) 0.3605(3) -0.1876(2) 0.0593 Uani
C17 C -0.9573(7) 0.3023(3) -0.1375(2) 0.0553 Uani
H12 H -1.0177 0.2724 -0.1257 0.0660 Uiso
C18 C -0.8729(8) 0.3381(3) -0.1100(3) 0.0613 Uani
H13 H -0.8639 0.3375 -0.0763 0.0740 Uiso
C19 C -0.6905(8) 0.4178(4) -0.1296(3) 0.0620 Uani
H14 H -0.7059 0.4320 -0.0966 0.0740 Uiso
H15 H -0.6957 0.4524 -0.1511 0.0740 Uiso
C20 C -0.5448(7) 0.3906(4) -0.1330(3) 0.0707 Uani
H16 H -0.5278 0.3781 -0.1663 0.0850 Uiso
H17 H -0.5411 0.3550 -0.1127 0.0850 Uiso
C21 C -0.4266(8) 0.4338(4) -0.1176(3) 0.0673 Uani
H18 H -0.4393 0.4443 -0.0836 0.0810 Uiso
H19 H -0.4330 0.4705 -0.1366 0.0810 Uiso
C22 C -0.2795(9) 0.4056(4) -0.1246(4) 0.0787 Uani
H20 H -0.2748 0.3684 -0.1062 0.0950 Uiso
H21 H -0.2672 0.3955 -0.1587 0.0950 Uiso
C23 C -0.0970(8) 0.4876(4) -0.1362(3) 0.0730 Uani
H22 H -0.1159 0.4976 -0.1684 0.0870 Uiso
C24 C 0.0012(9) 0.5131(3) -0.1070(3) 0.0683 Uani
H23 H 0.0616 0.5446 -0.1158 0.0820 Uiso
C25 C -0.1015(7) 0.4446(4) -0.0649(3) 0.0617 Uani
C26 C -0.1428(11) 0.4037(5) -0.0247(3) 0.0970 Uani
H24 H -0.1194 0.4222 0.0059 0.1460 Uiso
H25 H -0.0918 0.3664 -0.0278 0.1460 Uiso
H26 H -0.2440 0.3961 -0.0261 0.1460 Uiso
Cd1E Cd 0.14916(7) 0.5000 0.0000 0.0635 Uani
Cd1D Cd -2.14916(7) 0.5000 -0.5000 0.0635 Uani
Cd1A Cd -2.35084(7) 0.0000 0.0000 0.0635 Uani
N1C N -1.0596(6) 0.3167(3) -0.3143(2) 0.0563 Uani
N2C N -1.1974(6) 0.3760(3) -0.3578(2) 0.0543 Uani
N3C N -1.8369(6) 0.4443(3) -0.3904(2) 0.0610 Uani
N4G N 0.5009(6) -0.0138(3) -0.43736(19) 0.0610 Uani
N4E N 0.5009(6) 0.0138(3) -0.56264(19) 0.0610 Uani
N4C N -1.9991(6) 0.4862(3) -0.43736(19) 0.0610 Uani
O1B O 0.2464(5) -0.0973(3) -0.4972(2) 0.0793 Uani
O1C O -2.2464(5) 0.0973(3) 0.0028(2) 0.0793 Uani
O2B O 0.1764(7) -0.0373(3) -0.5553(3) 0.1110 Uani
O2C O -2.1764(7) 0.0373(3) -0.0553(3) 0.1110 Uani
O3C O -1.6608(6) 0.2207(2) -0.05812(19) 0.0830 Uani
O4C O -1.1113(5) 0.1901(3) -0.1920(2) 0.0760 Uani
O5C O -1.2492(6) 0.2486(4) -0.2381(2) 0.1010 Uani
C1C C -2.1603(8) 0.0830(4) -0.0308(3) 0.0697 Uani
C2C C -2.0308(7) 0.1225(3) -0.0404(3) 0.0560 Uani
C3C C -2.0061(9) 0.1735(3) -0.0145(2) 0.0637 Uani
H1C H -2.0712 0.1859 0.0090 0.0760 Uiso
C4C C -1.8840(8) 0.2068(4) -0.0232(3) 0.0687 Uani
H2C H -1.8684 0.2423 -0.0061 0.0830 Uiso
C5C C -1.7862(8) 0.1881(3) -0.0566(3) 0.0583 Uani
C6C C -1.8077(8) 0.1366(3) -0.0836(2) 0.0570 Uani
H3C H -1.7410 0.1242 -0.1066 0.0680 Uiso
C7C C -1.9333(8) 0.1036(3) -0.0752(3) 0.0623 Uani
H4C H -1.9514 0.0689 -0.0931 0.0750 Uiso
C8C C -1.5628(9) 0.2117(3) -0.0958(3) 0.0617 Uani
C9C C -1.4287(9) 0.1908(4) -0.0839(3) 0.0677 Uani
H5C H -1.4096 0.1771 -0.0526 0.0820 Uiso
C10C C -1.3236(9) 0.1902(4) -0.1185(3) 0.0687 Uani
H6C H -1.2322 0.1769 -0.1104 0.0820 Uiso
C11C C -1.3513(7) 0.2090(3) -0.1651(2) 0.0560 Uani
C12C C -1.4873(8) 0.2274(4) -0.1773(3) 0.0683 Uani
H7C H -1.5077 0.2397 -0.2089 0.0820 Uiso
C13C C -1.5940(8) 0.2274(4) -0.1421(3) 0.0703 Uani
H8C H -1.6871 0.2383 -0.1504 0.0840 Uiso
C14C C -1.2304(8) 0.2157(4) -0.2012(3) 0.0707 Uani
C15C C -1.2023(13) 0.3921(5) -0.2673(3) 0.1023 Uani
H9C H -1.1402 0.3812 -0.2409 0.1540 Uiso
H10C H -1.2989 0.3806 -0.2597 0.1540 Uiso
H11C H -1.1981 0.4348 -0.2724 0.1540 Uiso
C16C C -1.1554(8) 0.3605(3) -0.3124(2) 0.0593 Uani
C17C C -1.0427(7) 0.3023(3) -0.3625(2) 0.0553 Uani
H12C H -0.9823 0.2724 -0.3743 0.0660 Uiso
C18C C -1.1271(8) 0.3381(3) -0.3900(3) 0.0613 Uani
H13C H -1.1361 0.3375 -0.4237 0.0740 Uiso
C19C C -1.3095(8) 0.4178(4) -0.3704(3) 0.0620 Uani
H14C H -1.2941 0.4320 -0.4034 0.0740 Uiso
H15C H -1.3043 0.4524 -0.3489 0.0740 Uiso
C20C C -1.4552(7) 0.3906(4) -0.3670(3) 0.0707 Uani
H16C H -1.4722 0.3781 -0.3337 0.0850 Uiso
H17C H -1.4589 0.3550 -0.3873 0.0850 Uiso
C21C C -1.5734(8) 0.4338(4) -0.3824(3) 0.0673 Uani
H18C H -1.5607 0.4443 -0.4164 0.0810 Uiso
H19C H -1.5670 0.4705 -0.3634 0.0810 Uiso
C22C C -1.7205(9) 0.4056(4) -0.3754(4) 0.0787 Uani
H20C H -1.7252 0.3684 -0.3938 0.0950 Uiso
H21C H -1.7328 0.3955 -0.3413 0.0950 Uiso
C23C C -1.9030(8) 0.4876(4) -0.3638(3) 0.0730 Uani
H22C H -1.8841 0.4976 -0.3316 0.0870 Uiso
C24C C -2.0012(9) 0.5131(3) -0.3930(3) 0.0683 Uani
H23C H -2.0616 0.5446 -0.3842 0.0820 Uiso
C25C C -1.8985(7) 0.4446(4) -0.4351(3) 0.0617 Uani
C26C C -1.8572(11) 0.4037(5) -0.4753(3) 0.0970 Uani
H24C H -1.8806 0.4222 -0.5059 0.1460 Uiso
H25C H -1.9082 0.3664 -0.4722 0.1460 Uiso
H26C H -1.7560 0.3961 -0.4739 0.1460 Uiso
O6 O -0.8517(13) 0.0682(4) -0.3265(5) 0.2037 Uani
O7 O -0.636(2) 0.0606(8) -0.2541(9) 0.3170 Uiso
loop_
_atom_site_aniso_label
_atom_site_aniso_U_11
_atom_site_aniso_U_22
_atom_site_aniso_U_33
_atom_site_aniso_U_23
_atom_site_aniso_U_13
_atom_site_aniso_U_12
Cd1 0.0337 0.0913 0.0656 0.0172 0 0
Cd2 0.0356 0.0756 0.0513 0 0.0006 0
N1 0.042 0.071 0.056 -0.001 -0.007 -0.005
N2 0.043 0.064 0.056 -0.006 -0.004 0
N3 0.039 0.084 0.06 -0.007 0.001 0.003
N4 0.04 0.084 0.059 -0.004 -0.002 -0.008
O1 0.055 0.115 0.068 0.003 0.015 -0.002
O2 0.066 0.124 0.143 0.063 0.032 0.039
O3 0.087 0.085 0.077 0.03 0.03 0.033
O4 0.049 0.087 0.092 -0.002 0.008 0.006
O5 0.058 0.147 0.098 -0.038 0.005 0.012
C1 0.042 0.091 0.076 0.009 -0.003 -0.003
C2 0.039 0.066 0.063 -0.002 -0.004 -0.001
C3 0.056 0.069 0.066 0.014 0.01 -0.006
C4 0.076 0.069 0.061 0.014 0.013 -0.002
C5 0.057 0.066 0.052 -0.001 0.012 0.003
C6 0.059 0.065 0.047 0.007 0.014 0.003
C7 0.061 0.065 0.061 0.019 0.001 -0.003
C8 0.064 0.066 0.055 0.011 0.015 0.018
C9 0.073 0.073 0.057 0.004 -0.002 0.01
C10 0.065 0.085 0.056 -0.008 -0.009 0.01
C11 0.045 0.067 0.056 0.001 0.013 0.009
C12 0.058 0.089 0.058 -0.012 0.003 -0.006
C13 0.061 0.075 0.075 -0.008 0.014 -0.007
C14 0.05 0.085 0.077 0.007 0.009 0.011
C15 0.12 0.122 0.065 0.012 -0.007 -0.049
C16 0.052 0.076 0.05 0.004 -0.006 -0.003
C17 0.042 0.069 0.055 -0.003 0.005 -0.002
C18 0.051 0.085 0.048 -0.002 0.002 0
C19 0.047 0.068 0.071 -0.007 -0.003 -0.005
C20 0.041 0.076 0.095 -0.024 -0.012 -0.002
C21 0.043 0.075 0.084 -0.011 -0.009 -0.006
C22 0.048 0.102 0.086 -0.032 -0.002 -0.016
C23 0.069 0.087 0.063 0.002 -0.01 0.008
C24 0.056 0.074 0.075 0.006 0 -0.002
C25 0.041 0.086 0.058 -0.003 0.003 -0.005
C26 0.077 0.128 0.086 0.028 -0.007 -0.027
Cd1E 0.0337 0.0913 0.0656 -0.0172 0 0
Cd1D 0.0337 0.0913 0.0656 0.0172 0 0
Cd1A 0.0337 0.0913 0.0656 -0.0172 0 0
N1C 0.042 0.071 0.056 0.001 -0.007 0.005
N2C 0.043 0.064 0.056 0.006 -0.004 0
N3C 0.039 0.084 0.06 0.007 0.001 -0.003
N4G 0.04 0.084 0.059 0.004 -0.002 0.008
N4E 0.04 0.084 0.059 0.004 0.002 -0.008
N4C 0.04 0.084 0.059 0.004 -0.002 0.008
O1B 0.055 0.115 0.068 0.003 -0.015 0.002
O1C 0.055 0.115 0.068 -0.003 0.015 0.002
O2B 0.066 0.124 0.143 0.063 -0.032 -0.039
O2C 0.066 0.124 0.143 -0.063 0.032 -0.039
O3C 0.087 0.085 0.077 -0.03 0.03 -0.033
O4C 0.049 0.087 0.092 0.002 0.008 -0.006
O5C 0.058 0.147 0.098 0.038 0.005 -0.012
C1C 0.042 0.091 0.076 -0.009 -0.003 0.003
C2C 0.039 0.066 0.063 0.002 -0.004 0.001
C3C 0.056 0.069 0.066 -0.014 0.01 0.006
C4C 0.076 0.069 0.061 -0.014 0.013 0.002
C5C 0.057 0.066 0.052 0.001 0.012 -0.003
C6C 0.059 0.065 0.047 -0.007 0.014 -0.003
C7C 0.061 0.065 0.061 -0.019 0.001 0.003
C8C 0.064 0.066 0.055 -0.011 0.015 -0.018
C9C 0.073 0.073 0.057 -0.004 -0.002 -0.01
C10C 0.065 0.085 0.056 0.008 -0.009 -0.01
C11C 0.045 0.067 0.056 -0.001 0.013 -0.009
C12C 0.058 0.089 0.058 0.012 0.003 0.006
C13C 0.061 0.075 0.075 0.008 0.014 0.007
C14C 0.05 0.085 0.077 -0.007 0.009 -0.011
C15C 0.12 0.122 0.065 -0.012 -0.007 0.049
C16C 0.052 0.076 0.05 -0.004 -0.006 0.003
C17C 0.042 0.069 0.055 0.003 0.005 0.002
C18C 0.051 0.085 0.048 0.002 0.002 0
C19C 0.047 0.068 0.071 0.007 -0.003 0.005
C20C 0.041 0.076 0.095 0.024 -0.012 0.002
C21C 0.043 0.075 0.084 0.011 -0.009 0.006
C22C 0.048 0.102 0.086 0.032 -0.002 0.016
C23C 0.069 0.087 0.063 -0.002 -0.01 -0.008
C24C 0.056 0.074 0.075 -0.006 0 0.002
C25C 0.041 0.086 0.058 0.003 0.003 0.005
C26C 0.077 0.128 0.086 -0.028 -0.007 0.027
O6 0.196 0.112 0.303 0.037 -0.075 -0.013
loop_
_geom_bond_atom_site_label_1
_geom_bond_atom_site_label_2
_geom_bond_site_symmetry_1
_geom_bond_site_symmetry_2
Cd1 O1 1_555 1_555
Cd2 N1 1_555 1_555
N1 C16 1_555 1_555
N2 C16 1_555 1_555
N3 C22 1_555 1_555
N4 C24 1_555 1_555
O1 C1 1_555 1_555
O2 Cd1 1_555 1_555
O3 C5 1_555 1_555
O4 Cd2 1_555 1_555
O5 Cd2 1_555 1_555
C1 O2 1_555 1_555
C2 C1 1_555 1_555
C3 C2 1_555 1_555
H1 C3 1_555 1_555
C4 C3 1_555 1_555
H2 C4 1_555 1_555
C5 C4 1_555 1_555
C6 C5 1_555 1_555
H3 C6 1_555 1_555
C7 C2 1_555 1_555
H4 C7 1_555 1_555
C8 O3 1_555 1_555
C9 C8 1_555 1_555
H5 C9 1_555 1_555
C10 C9 1_555 1_555
H6 C10 1_555 1_555
C11 C10 1_555 1_555
C12 C11 1_555 1_555
H7 C12 1_555 1_555
C13 C8 1_555 1_555
H8 C13 1_555 1_555
C14 O4 1_555 1_555
C15 H9 1_555 1_555
H10 C15 1_555 1_555
H11 C15 1_555 1_555
C16 C15 1_555 1_555
C17 N1 1_555 1_555
H12 C17 1_555 1_555
C18 N2 1_555 1_555
H13 C18 1_555 1_555
C19 N2 1_555 1_555
H14 C19 1_555 1_555
H15 C19 1_555 1_555
C20 C19 1_555 1_555
H16 C20 1_555 1_555
H17 C20 1_555 1_555
C21 C20 1_555 1_555
H18 C21 1_555 1_555
H19 C21 1_555 1_555
C22 C21 1_555 1_555
H20 C22 1_555 1_555
H21 C22 1_555 1_555
C23 N3 1_555 1_555
H22 C23 1_555 1_555
C24 C23 1_555 1_555
H23 C24 1_555 1_555
C25 N3 1_555 1_555
C26 C25 1_555 1_555
H24 C26 1_555 1_555
H25 C26 1_555 1_555
H26 C26 1_555 1_555
Cd1E N4 1_555 1_555
Cd1D N4C 1_555 1_555
Cd1A O1C 1_555 1_555
N1C Cd2 1_555 1_555
N2C C16C 1_555 1_555
N3C C22C 1_555 1_555
N4G Cd1 1_555 1_555
N4E Cd1 1_555 1_555
N4C C24C 1_555 1_555
O1B Cd1 1_555 1_555
O1C C1C 1_555 1_555
O2B Cd1 1_555 1_555
O2C Cd1A 1_555 1_555
O3C C5C 1_555 1_555
O4C Cd2 1_555 1_555
O5C Cd2 1_555 1_555
C1C O2C 1_555 1_555
C2C C1C 1_555 1_555
C3C C2C 1_555 1_555
H1C C3C 1_555 1_555
C4C C3C 1_555 1_555
H2C C4C 1_555 1_555
C5C C4C 1_555 1_555
C6C C5C 1_555 1_555
H3C C6C 1_555 1_555
C7C C2C 1_555 1_555
H4C C7C 1_555 1_555
C8C O3C 1_555 1_555
C9C C8C 1_555 1_555
H5C C9C 1_555 1_555
C10C C9C 1_555 1_555
H6C C10C 1_555 1_555
C11C C10C 1_555 1_555
C12C C11C 1_555 1_555
H7C C12C 1_555 1_555
C13C C8C 1_555 1_555
H8C C13C 1_555 1_555
C14C O4C 1_555 1_555
C15C H9C 1_555 1_555
H10C C15C 1_555 1_555
H11C C15C 1_555 1_555
C16C N1C 1_555 1_555
C17C N1C 1_555 1_555
H12C C17C 1_555 1_555
C18C N2C 1_555 1_555
H13C C18C 1_555 1_555
C19C N2C 1_555 1_555
H14C C19C 1_555 1_555
H15C C19C 1_555 1_555
C20C C19C 1_555 1_555
H16C C20C 1_555 1_555
H17C C20C 1_555 1_555
C21C C20C 1_555 1_555
H18C C21C 1_555 1_555
H19C C21C 1_555 1_555
C22C C21C 1_555 1_555
H20C C22C 1_555 1_555
H21C C22C 1_555 1_555
C23C N3C 1_555 1_555
H22C C23C 1_555 1_555
C24C C23C 1_555 1_555
H23C C24C 1_555 1_555
C25C N3C 1_555 1_555
C26C C25C 1_555 1_555
H24C C26C 1_555 1_555
H25C C26C 1_555 1_555
H26C C26C 1_555 1_555
N4 C25 1_555 1_555
O5 C14 1_555 1_555
C6 C7 1_555 1_555
C11 C14 1_555 1_555
C12 C13 1_555 1_555
C17 C18 1_555 1_555
N4C C25C 1_555 1_555
O5C C14C 1_555 1_555
C6C C7C 1_555 1_555
C11C C14C 1_555 1_555
C12C C13C 1_555 1_555
C15C C16C 1_555 1_555
C17C C18C 1_555 1_555

#END
