
#######################################################################
#
#                 Cambridge Crystallographic Data Centre
#                                CCDC 
#
#######################################################################
#
# If this CIF has been generated from an entry in the Cambridge 
# Structural Database, then it will include bibliographic, chemical, 
# crystal, experimental, refinement or atomic coordinate data resulting 
# from the CCDC's data processing and validation procedures.
#
#######################################################################

data_FECJUT
_chemical_formula_moiety         '(C495 H266 Cl24 N10 O118 Zn25)n'
_symmetry_cell_setting           monoclinic
_symmetry_space_group_name_H-M   'C 2'
_symmetry_Int_Tables_number      5
_space_group_name_Hall           'C 2y'
loop_
_symmetry_equiv_pos_site_id
_symmetry_equiv_pos_as_xyz
1 x,y,z
2 -x,y,-z
3 1/2+x,1/2+y,z
4 1/2-x,1/2+y,-z
_cell_length_a                   32.768(7)
_cell_length_b                   39.312(8)
_cell_length_c                   25.680(5)
_cell_angle_alpha                90.00
_cell_angle_beta                 95.79(3)
_cell_angle_gamma                90.00
_cell_volume                     32911.6
loop_
_atom_site_label
_atom_site_type_symbol
_atom_site_fract_x
_atom_site_fract_y
_atom_site_fract_z
Zn5 Zn 0.32711(7) -0.14900(6) -0.32783(8)
Zn6 Zn 0.42335(7) -0.15005(6) -0.31825(8)
Zn7 Zn 0.37194(7) -0.10662(5) -0.40541(8)
Zn8 Zn 0.37447(8) -0.18776(6) -0.41561(8)
Cl9 Cl 0.3780(12) -0.2577(7) -0.0005(15)
Cl10 Cl 0.1941(3) -0.1345(3) 0.2444(4)
Cl12 Cl 0.1362(5) -0.5257(4) -0.5196(6)
Cl14 Cl 0.3389(4) -0.4126(5) -0.3119(8)
Cl15 Cl 0.1542(9) 0.0354(8) -0.5658(9)
Cl17 Cl 0.1632(19) 0.2343(13) -0.297(2)
O20 O 0.3748(3) -0.1490(3) -0.3657(3)
O21 O 0.3441(4) -0.1302(4) -0.2562(5)
O22 O 0.4091(4) -0.1402(4) -0.2457(5)
O23 O 0.3658(8) -0.0676(6) 0.1030(10)
O24 O 0.3598(6) -0.1677(4) 0.5132(5)
O25 O 0.3683(6) -0.1108(4) 0.5208(6)
O26 O 0.4299(5) -0.1212(6) 0.1719(9)
O27 O -0.0394(4) -0.6114(3) -0.3321(6)
O28 O -0.0796(6) -0.5785(3) -0.3807(6)
O29 O 0.1069(5) -0.4077(5) -0.2691(7)
O30 O 0.3034(5) -0.1925(4) -0.3258(6)
O31 O 0.3211(6) -0.2101(5) -0.4033(6)
O32 O 0.1021(5) -0.3601(5) -0.3607(7)
O33 O 0.2861(5) -0.1149(4) -0.3501(6)
O34 O 0.3258(5) -0.0798(4) -0.3917(7)
O35 O 0.1309(16) 0.0629(15) -0.2558(11)
O36 O -0.0452(6) 0.3102(5) -0.3074(7)
O37 O -0.0948(8) 0.2802(6) -0.358(2)
O38 O 0.0313(11) 0.0690(7) -0.3504(16)
C115 C 0.3615(5) -0.1287(4) 0.1018(5)
C116 C 0.3646(5) -0.0982(3) 0.0753(7)
C117 C 0.3664(6) -0.0982(3) 0.0214(7)
C118 C 0.3651(5) -0.1288(4) -0.0059(5)
C119 C 0.3620(3) -0.1593(3) 0.0207(5)
C120 C 0.3602(3) -0.1593(3) 0.0745(5)
C121 C 0.3571(6) -0.1899(4) 0.1011(6)
C122 C 0.3558(7) -0.2204(3) 0.0738(9)
C123 C 0.3576(7) -0.2205(3) 0.0199(9)
C124 C 0.3607(6) -0.1899(4) -0.0066(6)
C125 C 0.3804(15) -0.0361(10) 0.0832(18)
C126 C 0.408(2) -0.0135(19) 0.123(3)
C127 C 0.3701(8) -0.1283(7) -0.0665(10)
C128 C 0.4017(9) -0.1413(7) -0.0864(13)
C129 C 0.4068(9) -0.1412(7) -0.1346(12)
C130 C 0.3776(6) -0.1298(6) -0.1730(8)
C131 C 0.3451(11) -0.1116(10) -0.1494(14)
C132 C 0.3406(3) -0.1130(3) -0.0975(5)
C133 C 0.3767(3) -0.1329(3) -0.2295(5)
C134 C 0.3559(3) -0.1260(3) 0.1618(5)
C135 C 0.3909(3) -0.1182(3) 0.1917(5)
C136 C 0.3878(3) -0.1219(3) 0.2490(5)
C137 C 0.3506(6) -0.1260(5) 0.2679(8)
C138 C 0.2781(7) -0.1290(6) 0.2580(10)
C139 C 0.2427(8) -0.1296(7) 0.2242(11)
C140 C 0.2472(11) -0.1302(9) 0.1619(13)
C141 C 0.2818(10) -0.1267(9) 0.1451(14)
C142 C 0.3194(7) -0.1250(6) 0.1803(9)
C143 C 0.3193(6) -0.1274(6) 0.2361(8)
C144 C 0.4616(15) -0.1054(14) 0.208(2)
C145 C 0.4937(15) -0.0919(14) 0.174(2)
C146 C 0.3532(7) -0.1307(5) 0.3255(9)
C147 C 0.3572(6) -0.1022(6) 0.3596(7)
C148 C 0.3606(6) -0.1027(5) 0.4146(7)
C149 C 0.3552(7) -0.1344(5) 0.4381(9)
C150 C 0.3506(9) -0.1634(7) 0.4054(9)
C151 C 0.3470(9) -0.1622(7) 0.3503(10)
C152 C 0.3619(6) -0.1383(5) 0.4935(8)
C153 C 0.1301(5) -0.4239(5) -0.3490(6)
C154 C 0.1046(5) -0.4315(5) -0.3106(7)
C155 C 0.0751(5) -0.4578(4) -0.3124(7)
C156 C 0.0741(6) -0.4807(6) -0.3553(7)
C157 C 0.1014(8) -0.4985(7) -0.4377(10)
C158 C 0.1261(9) -0.4948(7) -0.4754(9)
C159 C 0.1528(8) -0.4661(8) -0.4750(12)
C160 C 0.1585(7) -0.4455(7) -0.4324(9)
C161 C 0.1273(6) -0.4477(4) -0.3903(7)
C162 C 0.1022(5) -0.4771(5) -0.3934(7)
C163 C 0.0764(11) -0.4077(10) -0.2337(14)
C164 C 0.0724(13) -0.3742(10) -0.2032(16)
C165 C 0.0432(7) -0.5075(6) -0.3561(7)
C166 C 0.0523(8) -0.5381(8) -0.3463(8)
C167 C 0.0201(8) -0.5647(7) -0.3466(9)
C168 C -0.0156(5) -0.5575(5) -0.3551(6)
C169 C -0.0274(9) -0.5284(8) -0.3684(11)
C170 C 0.0064(9) -0.5004(8) -0.3665(10)
C171 C -0.0471(7) -0.5836(6) -0.3536(8)
C172 C 0.1614(6) -0.3978(6) -0.3426(6)
C173 C 0.1456(5) -0.3643(6) -0.3526(6)
C174 C 0.1718(7) -0.3348(7) -0.3524(8)
C175 C 0.2118(5) -0.3381(5) -0.3421(7)
C176 C 0.2691(7) -0.3765(6) -0.3236(8)
C177 C 0.2867(5) -0.4101(9) -0.3125(11)
C178 C 0.2618(9) -0.4365(9) -0.3113(11)
C179 C 0.2186(8) -0.4331(6) -0.3222(11)
C180 C 0.2015(7) -0.4013(6) -0.3368(9)
C181 C 0.2310(6) -0.3735(6) -0.3322(7)
C182 C 0.0831(9) -0.3278(7) -0.3574(15)
C183 C 0.0399(9) -0.3354(10) -0.3405(14)
C184 C 0.2379(6) -0.3080(6) -0.3475(7)
C185 C 0.2574(10) -0.3011(8) -0.3926(12)
C186 C 0.2780(7) -0.2700(6) -0.3945(9)
C187 C 0.2818(5) -0.2453(5) -0.3548(6)
C188 C 0.2620(6) -0.2533(5) -0.3103(7)
C189 C 0.2398(6) -0.2837(5) -0.3081(8)
C190 C 0.3033(6) -0.2155(6) -0.3617(7)
C191 C 0.1162(6) 0.0732(5) -0.3537(7)
C192 C 0.1351(7) 0.0562(6) -0.3103(6)
C193 C 0.1621(6) 0.0296(5) -0.3169(7)
C194 C 0.1702(6) 0.0200(5) -0.3669(8)
C195 C 0.1513(5) 0.0370(5) -0.4103(6)
C196 C 0.1243(5) 0.0636(4) -0.4037(6)
C197 C 0.1055(7) 0.0806(6) -0.4471(8)
C198 C 0.1135(9) 0.0710(8) -0.4972(7)
C199 C 0.1405(10) 0.0444(9) -0.5038(6)
C200 C 0.1594(8) 0.0274(7) -0.4604(7)
C201 C 0.110(7) 0.033(3) -0.237(4)
H1 H 0.1208 0.0309 -0.2009
C202 C 0.109(8) -0.003(2) -0.259(10)
C203 C 0.1998(8) -0.0077(7) -0.3712(10)
C204 C 0.2383(8) 0.0009(9) -0.3876(10)
C205 C 0.2666(14) -0.0263(7) -0.3857(13)
C206 C 0.2610(8) -0.0599(7) -0.3698(10)
C207 C 0.2234(8) -0.0660(7) -0.3550(10)
C208 C 0.1932(8) -0.0408(6) -0.3535(10)
C209 C 0.2922(6) -0.0856(6) -0.3715(8)
C210 C 0.0906(7) 0.1051(4) -0.3414(10)
C211 C 0.0488(7) 0.1018(5) -0.3374(10)
C212 C 0.0250(5) 0.1306(6) -0.3318(10)
C213 C 0.0430(5) 0.1627(5) -0.3302(10)
C214 C 0.0848(5) 0.1659(4) -0.3342(7)
C215 C 0.1086(5) 0.1372(4) -0.3398(7)
C216 C 0.1504(5) 0.1404(6) -0.3438(10)
C217 C 0.1684(6) 0.1725(7) -0.3422(10)
C218 C 0.1446(8) 0.2013(6) -0.3365(10)
C219 C 0.1028(8) 0.1980(4) -0.3325(10)
C220 C 0.014(2) 0.0618(19) -0.403(2)
C221 C -0.033(2) 0.067(3) -0.409(4)
C222 C 0.0137(6) 0.1935(4) -0.3430(7)
C223 C -0.0138(8) 0.2024(4) -0.3856(7)
C224 C -0.0372(7) 0.2318(4) -0.3839(8)
C225 C -0.0330(6) 0.2524(3) -0.3397(8)
C226 C -0.0054(6) 0.2435(3) -0.2971(8)
C227 C 0.0179(5) 0.2141(3) -0.2988(8)
C228 C -0.0593(6) 0.2839(3) -0.3296(9)
N3 N 0.3958(13) -0.2772(14) -0.498(3)
O41 O 0.3895(7) -0.2337(7) -0.4628(10)
C235 C 0.3614(13) -0.2516(10) -0.487(2)
C236 C 0.3711(16) -0.3109(10) -0.504(2)
C237 C 0.4433(15) -0.280(3) -0.487(4)
N5 N 0.5109(17) -0.1972(18) -0.433(2)
O42 O 0.4381(6) -0.1713(8) -0.4209(12)
C239 C 0.4649(16) -0.1905(17) -0.433(3)
C240 C 0.516(3) -0.163(2) -0.406(4)
C241 C 0.5531(19) -0.211(2) -0.440(3)
Zn5B Zn -0.17289(7) -0.64900(6) -0.32783(8)
Zn5B_2 Zn 0.82711(7) 0.35100(6) -0.32783(8)
Zn5B_3 Zn 0.82711(7) -0.64900(6) -0.32783(8)
Zn5_2 Zn 0.32711(7) -0.14900(6) -1.32783(8)
Zn6B Zn -0.07665(7) -0.65005(6) -0.31825(8)
Zn6B_2 Zn -0.07665(7) 0.34995(6) -0.31825(8)
Zn6_2 Zn 0.42335(7) -0.15005(6) -1.31825(8)
Zn7_2 Zn 0.37194(7) -0.10662(5) 0.59459(8)
Zn7B Zn -0.12806(7) -0.60662(5) -0.40541(8)
Zn7B_2 Zn 0.87194(7) -0.60662(5) -0.40541(8)
Zn8_2 Zn 0.37447(8) -0.18776(6) 0.58439(8)
Zn8B Zn -0.12553(8) 0.31224(6) -0.41561(8)
Zn8B_2 Zn 0.87447(8) 0.31224(6) -0.41561(8)
Zn8B_3 Zn -0.12553(8) -0.68776(6) -0.41561(8)
Cl9_2 Cl 0.3780(12) -0.2577(7) -1.0005(15)
Cl10_2 Cl 0.1941(3) -0.1345(3) -0.7556(4)
Cl12B Cl 0.6362(5) -0.0257(4) -0.5196(6)
Cl14B Cl 0.8389(4) 0.0874(5) -0.3119(8)
Cl15B Cl 0.6542(9) -0.4646(8) -0.5658(9)
Cl17B Cl 0.6632(19) -0.2657(13) -0.297(2)
O20B O -0.1252(3) -0.6490(3) -0.3657(3)
O20_2 O 0.3748(3) -0.1490(3) 0.6343(3)
O21_2 O 0.3441(4) -0.1302(4) -1.2562(5)
O21B O -0.1559(4) -0.6302(4) -0.2562(5)
O22_2 O 0.4091(4) -0.1402(4) -1.2457(5)
O22B O -0.0909(4) -0.6402(4) -0.2457(5)
O23_2 O 0.3658(8) -0.0676(6) -0.8970(10)
O24_2 O 0.3598(6) -0.1677(4) -0.4868(5)
O25_2 O 0.3683(6) -0.1108(4) -0.4792(6)
O26_2 O 0.4299(5) -0.1212(6) -0.8281(9)
O27B O 0.4606(4) -0.1114(3) -0.3321(6)
O28B O 0.4204(6) -0.0785(3) -0.3807(6)
O28B_2 O 0.4204(6) -0.0785(3) 0.6193(6)
O29B O 0.6069(5) 0.0923(5) -0.2691(7)
O30B O 0.8034(5) 0.3075(4) -0.3258(6)
O30B_2 O -0.1966(5) -0.6925(4) -0.3258(6)
O31B O 0.8211(6) 0.2899(5) -0.4033(6)
O31_2 O 0.3211(6) -0.2101(5) 0.5967(6)
O32B O 0.6021(5) 0.1399(5) -0.3607(7)
O33B O 0.7861(5) -0.6149(4) -0.3501(6)
O33B_2 O -0.2139(5) -0.6149(4) -0.3501(6)
O34B O 0.8258(5) -0.5798(4) -0.3917(7)
O34_2 O 0.3258(5) -0.0798(4) 0.6083(7)
O35B O 0.6309(16) -0.4371(15) -0.2558(11)
O36B O 0.4548(6) -0.1898(5) -0.3074(7)
O36_2 O -0.0452(6) -0.6898(5) -0.3074(7)
O37B O 0.4052(8) -0.2198(6) -0.358(2)
O37B_2 O 0.4052(8) -0.2198(6) 0.642(2)
O38B O 0.5313(11) -0.4310(7) -0.3504(16)
C115_2 C 0.3615(5) -0.1287(4) -0.8982(5)
C116_2 C 0.3646(5) -0.0982(3) -0.9247(7)
C117_2 C 0.3664(6) -0.0982(3) -0.9786(7)
C118_2 C 0.3651(5) -0.1288(4) -1.0059(5)
C119_2 C 0.3620(3) -0.1593(3) -0.9793(5)
C120_2 C 0.3602(3) -0.1593(3) -0.9255(5)
C121_2 C 0.3571(6) -0.1899(4) -0.8989(6)
C122_2 C 0.3558(7) -0.2204(3) -0.9262(9)
C123_2 C 0.3576(7) -0.2205(3) -0.9801(9)
C124_2 C 0.3607(6) -0.1899(4) -1.0066(6)
C125_2 C 0.3804(15) -0.0361(10) -0.9168(18)
C126_2 C 0.408(2) -0.0135(19) -0.877(3)
C127_2 C 0.3701(8) -0.1283(7) -1.0665(10)
C128_2 C 0.4017(9) -0.1413(7) -1.0864(13)
C129_2 C 0.4068(9) -0.1412(7) -1.1346(12)
C130_2 C 0.3776(6) -0.1298(6) -1.1730(8)
C131_2 C 0.3451(11) -0.1116(10) -1.1494(14)
C132_2 C 0.3406(3) -0.1130(3) -1.0975(5)
C133_2 C 0.3767(3) -0.1329(3) -1.2295(5)
C134_2 C 0.3559(3) -0.1260(3) -0.8382(5)
C135_2 C 0.3909(3) -0.1182(3) -0.8083(5)
C136_2 C 0.3878(3) -0.1219(3) -0.7510(5)
C137_2 C 0.3506(6) -0.1260(5) -0.7321(8)
C138_2 C 0.2781(7) -0.1290(6) -0.7420(10)
C139_2 C 0.2427(8) -0.1296(7) -0.7758(11)
C140_2 C 0.2472(11) -0.1302(9) -0.8381(13)
C141_2 C 0.2818(10) -0.1267(9) -0.8549(14)
C142_2 C 0.3194(7) -0.1250(6) -0.8197(9)
C143_2 C 0.3193(6) -0.1274(6) -0.7639(8)
C144_2 C 0.4616(15) -0.1054(14) -0.792(2)
C145_2 C 0.4937(15) -0.0919(14) -0.826(2)
C146_2 C 0.3532(7) -0.1307(5) -0.6745(9)
C147_2 C 0.3572(6) -0.1022(6) -0.6404(7)
C148_2 C 0.3606(6) -0.1027(5) -0.5854(7)
C149_2 C 0.3552(7) -0.1344(5) -0.5619(9)
C150_2 C 0.3506(9) -0.1634(7) -0.5946(9)
C151_2 C 0.3470(9) -0.1622(7) -0.6497(10)
C152_2 C 0.3619(6) -0.1383(5) -0.5065(8)
C153B C 0.6301(5) 0.0761(5) -0.3490(6)
C154B C 0.6046(5) 0.0685(5) -0.3106(7)
C155B C 0.5751(5) 0.0422(4) -0.3124(7)
C156B C 0.5741(6) 0.0193(6) -0.3553(7)
C157B C 0.6014(8) 0.0015(7) -0.4377(10)
C158B C 0.6261(9) 0.0052(7) -0.4754(9)
C159B C 0.6528(8) 0.0339(8) -0.4750(12)
C160B C 0.6585(7) 0.0545(7) -0.4324(9)
C161B C 0.6273(6) 0.0523(4) -0.3903(7)
C162B C 0.6022(5) 0.0229(5) -0.3934(7)
C163B C 0.5764(11) 0.0923(10) -0.2337(14)
C164B C 0.5724(13) 0.1258(10) -0.2032(16)
C165B C 0.5432(7) -0.0075(6) -0.3561(7)
C166B C 0.5523(8) -0.0381(8) -0.3463(8)
C167B C 0.5201(8) -0.0647(7) -0.3466(9)
C168B C 0.4844(5) -0.0575(5) -0.3551(6)
C169B C 0.4726(9) -0.0284(8) -0.3684(11)
C170B C 0.5064(9) -0.0004(8) -0.3665(10)
C171B C 0.4529(7) -0.0836(6) -0.3536(8)
C172B C 0.6614(6) 0.1022(6) -0.3426(6)
C173B C 0.6456(5) 0.1357(6) -0.3526(6)
C174B C 0.6718(7) 0.1652(7) -0.3524(8)
C175B C 0.7118(5) 0.1619(5) -0.3421(7)
C176B C 0.7691(7) 0.1235(6) -0.3236(8)
C177B C 0.7867(5) 0.0899(9) -0.3125(11)
C178B C 0.7618(9) 0.0635(9) -0.3113(11)
C179B C 0.7186(8) 0.0669(6) -0.3222(11)
C180B C 0.7015(7) 0.0987(6) -0.3368(9)
C181B C 0.7310(6) 0.1265(6) -0.3322(7)
C182B C 0.5831(9) 0.1722(7) -0.3574(15)
C183B C 0.5399(9) 0.1646(10) -0.3405(14)
C184B C 0.7379(6) 0.1920(6) -0.3475(7)
C185B C 0.7574(10) 0.1989(8) -0.3926(12)
C186B C 0.7780(7) 0.2300(6) -0.3945(9)
C187B C 0.7818(5) 0.2547(5) -0.3548(6)
C188B C 0.7620(6) 0.2467(5) -0.3103(7)
C189B C 0.7398(6) 0.2163(5) -0.3081(8)
C190B C 0.8033(6) 0.2845(6) -0.3617(7)
C191B C 0.6162(6) -0.4268(5) -0.3537(7)
C192B C 0.6351(7) -0.4438(6) -0.3103(6)
C193B C 0.6621(6) -0.4704(5) -0.3169(7)
C194B C 0.6702(6) -0.4800(5) -0.3669(8)
C195B C 0.6513(5) -0.4630(5) -0.4103(6)
C196B C 0.6243(5) -0.4364(4) -0.4037(6)
C197B C 0.6055(7) -0.4194(6) -0.4471(8)
C198B C 0.6135(9) -0.4290(8) -0.4972(7)
C199B C 0.6405(10) -0.4556(9) -0.5038(6)
C200B C 0.6594(8) -0.4726(7) -0.4604(7)
C201B C 0.610(7) -0.467(3) -0.237(4)
H1B H 0.6208 -0.4691 -0.2009
C202B C 0.609(8) -0.503(2) -0.259(10)
C203B C 0.6998(8) -0.5077(7) -0.3712(10)
C204B C 0.7383(8) -0.4991(9) -0.3876(10)
C205B C 0.7666(14) -0.5263(7) -0.3857(13)
C206B C 0.7610(8) -0.5599(7) -0.3698(10)
C207B C 0.7234(8) -0.5660(7) -0.3550(10)
C208B C 0.6932(8) -0.5408(6) -0.3535(10)
C209B C 0.7922(6) -0.5856(6) -0.3715(8)
C210B C 0.5906(7) -0.3949(4) -0.3414(10)
C211B C 0.5488(7) -0.3982(5) -0.3374(10)
C212B C 0.5250(5) -0.3694(6) -0.3318(10)
C213B C 0.5430(5) -0.3373(5) -0.3302(10)
C214B C 0.5848(5) -0.3341(4) -0.3342(7)
C215B C 0.6086(5) -0.3628(4) -0.3398(7)
C216B C 0.6504(5) -0.3596(6) -0.3438(10)
C217B C 0.6684(6) -0.3275(7) -0.3422(10)
C218B C 0.6446(8) -0.2987(6) -0.3365(10)
C219B C 0.6028(8) -0.3020(4) -0.3325(10)
C220B C 0.514(2) -0.4382(19) -0.403(2)
C221B C 0.467(2) -0.433(3) -0.409(4)
C222B C 0.5137(6) -0.3065(4) -0.3430(7)
C223B C 0.4862(8) -0.2976(4) -0.3856(7)
C224B C 0.4628(7) -0.2682(4) -0.3839(8)
C225B C 0.4670(6) -0.2476(3) -0.3397(8)
C226B C 0.4946(6) -0.2565(3) -0.2971(8)
C227B C 0.5179(5) -0.2859(3) -0.2988(8)
C228B C 0.4407(6) -0.2161(3) -0.3296(9)
N3_2 N 0.3958(13) -0.2772(14) 0.502(3)
O41_2 O 0.3895(7) -0.2337(7) 0.5372(10)
C235_2 C 0.3614(13) -0.2516(10) 0.513(2)
C236_2 C 0.3711(16) -0.3109(10) 0.496(2)
C237_2 C 0.4433(15) -0.280(3) 0.513(4)
N5_2 N 0.5109(17) -0.1972(18) 0.567(2)
O42_2 O 0.4381(6) -0.1713(8) 0.5791(12)
C239_2 C 0.4649(16) -0.1905(17) 0.567(3)
C240_2 C 0.516(3) -0.163(2) 0.594(4)
C241_2 C 0.5531(19) -0.211(2) 0.560(3)
N6 N 0.2255(14) 0.0995(12) -0.4895(19)
O43 O 0.2704(15) 0.0552(12) -0.470(2)
C242 C 0.2521(19) 0.0711(15) -0.5077(17)
C243 C 0.2199(19) 0.0987(17) -0.431(2)
C244 C 0.2039(18) 0.1252(14) -0.528(2)
N7 N 0.1213(14) -0.4408(13) 0.3529(18)
O44 O 0.0552(13) -0.4443(12) 0.2895(17)
C245 C 0.0929(15) -0.4429(17) 0.304(2)
C246 C 0.1645(15) -0.4287(16) 0.358(2)
C247 C 0.0991(17) -0.4405(17) 0.402(2)
O46 O 0.1960(15) 0.1766(13) 0.132(2)
C249 C 0.2203(15) 0.2079(13) 0.148(2)
O48 O 0.0067(10) -0.4602(9) 0.2138(13)
C251 C 0.0008(12) -0.4980(9) 0.2051(16)
O49 O 0.0129(12) -0.2437(11) 0.4618(15)
C252 C 0.0378(14) -0.2747(12) 0.4533(19)
O50 O 0.0487(16) -0.4097(14) 0.531(2)
C253 C 0.010(2) -0.408(2) 0.558(3)
O51 O -0.0803(15) -0.3608(14) 0.0300(19)
C254 C -0.083(2) -0.3992(14) 0.026(3)
O52 O -0.0000 -0.2488(8) 0.0000
C255 C 0.0000 -0.2109(9) 0.0000
O53 O 0.2509(17) -0.1614(15) 0.473(2)
C256 C 0.252(2) -0.1334(16) 0.513(3)
O54 O -0.2059(15) -0.5169(12) -0.037(2)
C257 C -0.2271(12) -0.5501(11) -0.0354(15)
O55 O 0.0677(18) -0.0917(17) -0.043(2)
C258 C 0.0350(18) -0.0994(16) -0.012(2)
O56 O 0.6184(17) -0.2313(15) 0.201(2)
O57 O -0.011(2) -0.4467(18) 0.107(3)
O58 O -0.6127(17) -0.3406(16) -0.326(2)
O59 O 0.693(3) -0.226(3) 0.165(4)
O60 O -0.5787(19) -0.3766(17) -0.400(2)
O61 O 0.7456(18) -0.0401(16) -0.423(2)
O62 O -0.0236(14) -0.1115(12) 0.2738(19)
O63 O 0.0273(13) -0.0719(12) 0.2784(18)
O64 O 0.0000 -0.160(3) -0.5000
O65 O 0.130(3) -0.140(3) -0.336(4)
O66 O -0.093(2) -0.0529(18) 0.299(3)
O67 O 0.2664(16) -0.2149(14) -0.554(2)
O68 O -0.0000 -0.3028(6) 0.0000
O69 O 0.135(3) 0.206(3) -0.203(4)
Zn1 Zn 0.09684(6) -0.28229(5) -0.11179(6)
Zn2 Zn 0.05839(5) -0.24150(5) -0.21049(6)
Zn3 Zn 0.10107(6) -0.20270(5) -0.11284(7)
Zn4 Zn 0.15707(6) -0.24743(5) -0.18246(6)
Cl1 Cl 0.2824(2) -0.2159(2) 0.2040(3)
Cl2 Cl 0.1697(3) -0.3659(3) 0.5054(4)
Cl3 Cl 0.3280(3) -0.6384(3) 0.0011(4)
Cl4 Cl 0.1453(7) -0.5074(6) -0.2716(9)
Cl5 Cl -0.2245(2) -0.3140(2) -0.2832(3)
Cl6 Cl -0.3284(7) -0.4755(6) -0.0313(7)
O1 O 0.1042(3) -0.2421(3) -0.1557(3)
O2 O 0.0973(4) -0.2723(3) -0.0387(4)
O3 O 0.1057(4) -0.2153(3) -0.0370(4)
O4 O 0.0688(4) -0.2598(4) 0.3220(5)
O5 O 0.0730(3) -0.2350(3) 0.7193(3)
O6 O 0.1386(4) -0.2440(4) 0.7389(4)
O7 O 0.1270(4) -0.1808(3) 0.3724(4)
O8 O 0.5184(4) -0.7066(3) -0.1990(5)
O9 O 0.5433(4) -0.6844(3) -0.1231(5)
O10 O 0.3445(8) -0.5170(8) -0.2481(12)
O11 O 0.1690(4) -0.2975(3) -0.1843(5)
O12 O 0.1348(4) -0.3192(4) -0.1201(4)
O13 O 0.3529(10) -0.4695(13) -0.0972(14)
O14 O 0.0427(4) -0.3036(3) -0.1305(5)
O15 O 0.0237(4) -0.2830(3) -0.2113(4)
O16 O -0.1309(4) -0.4846(4) -0.1385(6)
O17 O -0.3846(5) -0.6655(4) -0.1996(6)
O18 O -0.3593(5) -0.6652(3) -0.1174(5)
O19 O -0.1719(5) -0.5067(5) -0.2481(7)
C1 C 0.1367(5) -0.2405(5) 0.3193(7)
C2 C 0.1016(6) -0.2508(5) 0.2912(8)
C3 C 0.0950(5) -0.2500(5) 0.2393(6)
C4 C 0.1295(5) -0.2405(5) 0.2109(6)
C5 C 0.2048(8) -0.2290(7) 0.2101(12)
C6 C 0.2419(6) -0.2219(6) 0.2366(8)
C7 C 0.2435(8) -0.2175(7) 0.2931(10)
C8 C 0.2107(6) -0.2248(6) 0.3184(9)
C9 C 0.1698(5) -0.2331(5) 0.2935(7)
C10 C 0.1633(6) -0.2341(5) 0.2358(7)
C11 C 0.0304(7) -0.2419(7) 0.3124(10)
C12 C 0.0309(9) -0.2119(8) 0.3394(12)
C13 C 0.1229(5) -0.2420(6) 0.1515(7)
C14 C 0.1287(6) -0.2149(6) 0.1231(8)
C15 C 0.1219(5) -0.2148(5) 0.0688(7)
C16 C 0.1082(5) -0.2425(6) 0.0434(7)
C17 C 0.1045(5) -0.2715(5) 0.0719(7)
C18 C 0.1097(2) -0.2725(2) 0.1265(3)
C19 C 0.1043(2) -0.2454(2) -0.0144(3)
C20 C 0.1390(2) -0.2403(2) 0.3784(3)
C21 C 0.1319(2) -0.2094(2) 0.4054(3)
C22 C 0.1301(2) -0.2090(2) 0.4593(3)
C23 C 0.1349(5) -0.2367(5) 0.4870(7)
C24 C 0.1499(8) -0.2992(8) 0.4940(11)
C25 C 0.1613(6) -0.3290(6) 0.4682(9)
C26 C 0.1655(10) -0.3286(10) 0.4146(13)
C27 C 0.1575(7) -0.2975(6) 0.3867(10)
C28 C 0.1459(5) -0.2717(5) 0.4090(7)
C29 C 0.1454(7) -0.2689(6) 0.4668(9)
C30 C 0.1163(7) -0.1484(5) 0.3948(9)
C31 C 0.1095(9) -0.1228(8) 0.3522(12)
C32 C 0.1300(5) -0.2353(5) 0.5451(7)
C33 C 0.0912(5) -0.2325(5) 0.5604(7)
C34 C 0.0831(6) -0.2335(5) 0.6134(7)
C35 C 0.1144(4) -0.2363(4) 0.6506(6)
C36 C 0.1558(5) -0.2400(5) 0.6360(6)
C37 C 0.1617(5) -0.2389(5) 0.5835(6)
C38 C 0.1086(4) -0.2385(5) 0.7055(6)
C39 C 0.3328(5) -0.5329(3) -0.1606(6)
C40 C 0.3600(5) -0.5355(4) -0.1985(5)
C41 C 0.3866(4) -0.5631(4) -0.1983(5)
C42 C 0.3858(4) -0.5881(4) -0.1601(5)
C43 C 0.3586(3) -0.5855(3) -0.1222(4)
C44 C 0.3320(3) -0.5579(3) -0.1224(4)
C45 C 0.3048(4) -0.5552(4) -0.0845(6)
C46 C 0.3040(4) -0.5802(4) -0.0463(5)
C47 C 0.3305(5) -0.6078(4) -0.0460(5)
C48 C 0.3578(4) -0.6105(3) -0.0840(5)
C49 C 0.3536(14) -0.5269(18) -0.2984(16)
C50 C 0.3995(13) -0.5159(18) -0.288(2)
C51 C 0.4202(7) -0.6164(7) -0.1582(9)
C52 C 0.4469(6) -0.6188(6) -0.1166(9)
C53 C 0.4801(7) -0.6414(7) -0.1199(10)
C54 C 0.4831(6) -0.6642(5) -0.1616(7)
C55 C 0.4541(5) -0.6605(5) -0.2014(7)
C56 C 0.4194(7) -0.6391(6) -0.2007(9)
C57 C 0.5164(5) -0.6858(4) -0.1612(6)
C58 C 0.3058(5) -0.5006(5) -0.1621(8)
C59 C 0.3193(4) -0.4705(6) -0.1376(8)
C60 C 0.2928(6) -0.4429(5) -0.1368(7)
C61 C 0.2529(5) -0.4454(4) -0.1604(7)
C62 C 0.2393(4) -0.4754(4) -0.1848(5)
C63 C 0.2658(5) -0.5030(4) -0.1857(6)
C64 C 0.2523(7) -0.5331(4) -0.2101(8)
C65 C 0.2123(8) -0.5356(6) -0.2337(9)
C66 C 0.1859(6) -0.5080(7) -0.2329(9)
C67 C 0.1994(4) -0.4779(6) -0.2084(7)
C68 C 0.362(3) -0.4345(15) -0.086(4)
C69 C 0.351(3) -0.398(2) -0.100(4)
C70 C 0.2292(6) -0.4138(5) -0.1601(6)
C71 C 0.2061(6) -0.4059(7) -0.1203(10)
C72 C 0.1831(6) -0.3768(5) -0.1159(8)
C73 C 0.1846(5) -0.3540(4) -0.1557(5)
C74 C 0.2061(5) -0.3602(5) -0.1969(8)
C75 C 0.2281(3) -0.3892(2) -0.1980(3)
C76 C 0.1604(3) -0.3212(2) -0.1542(3)
C77 C -0.1757(3) -0.4493(2) -0.1934(3)
C78 C -0.1389(3) -0.4523(2) -0.1618(3)
C79 C -0.1086(3) -0.4260(2) -0.1606(3)
C80 C -0.1172(6) -0.3976(6) -0.1847(8)
C81 C -0.1695(9) -0.3575(8) -0.2339(11)
C82 C -0.2106(8) -0.3535(8) -0.2606(11)
C83 C -0.2380(11) -0.3807(10) -0.2619(14)
C84 C -0.2260(10) -0.4103(9) -0.2447(12)
C85 C -0.1856(8) -0.4195(7) -0.2128(10)
C86 C -0.1572(7) -0.3890(7) -0.2115(10)
C87 C -0.0905(6) -0.4918(6) -0.1132(9)
C88 C -0.0901(10) -0.5279(9) -0.0995(14)
C89 C -0.0827(6) -0.3692(5) -0.1814(8)
C90 C -0.0707(6) -0.3539(6) -0.2275(8)
C91 C -0.0384(5) -0.3311(5) -0.2234(8)
C92 C -0.0166(5) -0.3238(5) -0.1770(7)
C93 C -0.0324(5) -0.3406(5) -0.1304(7)
C94 C -0.0634(5) -0.3619(5) -0.1360(7)
C95 C 0.0170(5) -0.3016(5) -0.1731(7)
C96 C -0.2099(4) -0.4774(3) -0.1860(6)
C97 C -0.2048(4) -0.5060(4) -0.2165(5)
C98 C -0.2308(5) -0.5337(3) -0.2141(6)
C99 C -0.2619(4) -0.5329(3) -0.1811(7)
C100 C -0.2669(3) -0.5044(4) -0.1505(5)
C101 C -0.2409(4) -0.4766(3) -0.1529(5)
C102 C -0.2460(7) -0.4480(4) -0.1223(8)
C103 C -0.2771(8) -0.4472(6) -0.0893(8)
C104 C -0.3031(7) -0.4750(7) -0.0869(8)
C105 C -0.2980(5) -0.5036(6) -0.1175(7)
C106 C -0.1536(10) -0.5399(7) -0.2570(14)
C107 C -0.1093(10) -0.5329(10) -0.2720(14)
C108 C -0.2852(5) -0.5656(4) -0.1795(7)
C109 C -0.3175(6) -0.5728(4) -0.2172(6)
C110 C -0.3436(5) -0.5999(4) -0.2102(5)
C111 C -0.3374(4) -0.6198(3) -0.1653(4)
C112 C -0.3051(4) -0.6126(4) -0.1276(5)
C113 C -0.2790(4) -0.5855(4) -0.1346(6)
C114 C -0.3605(6) -0.6571(4) -0.1630(6)
N1 N 0.2102(7) -0.2404(4) -0.0129(6)
O39 O 0.1813(4) -0.2503(3) -0.0996(5)
C229 C 0.2006(4) -0.2299(4) -0.0704(6)
C230 C 0.2194(14) -0.2157(11) 0.0336(14)
C231 C 0.2079(14) -0.2796(6) -0.0035(19)
N2 N 0.2167(17) -0.1726(10) -0.246(2)
O40 O 0.2030(6) -0.2191(6) -0.1937(10)
C232 C 0.1977(16) -0.1890(7) -0.205(3)
C233 C 0.2630(16) -0.170(3) -0.229(4)
C234 C 0.222(3) -0.155(2) -0.299(3)
Zn1_2 Zn 0.09684(6) -0.28229(5) 0.88821(6)
Zn1_3 Zn 0.09684(6) -0.28229(5) -1.11179(6)
Zn1B Zn -0.40316(6) 0.21771(5) -0.11179(6)
Zn1B_2 Zn 0.59684(6) 0.21771(5) -0.11179(6)
Zn2_2 Zn 0.05839(5) -0.24150(5) 0.78951(6)
Zn2B Zn 0.55839(5) -0.74150(5) -0.21049(6)
Zn2B_2 Zn 0.55839(5) 0.25850(5) -0.21049(6)
Zn3B Zn 0.60107(6) -0.70270(5) -0.11284(7)
Zn3B_2 Zn -0.39893(6) -0.70270(5) -0.11284(7)
Zn3_2 Zn 0.10107(6) -0.20270(5) -1.11284(7)
Zn3_3 Zn 0.10107(6) -0.20270(5) 0.88716(7)
Zn4_2 Zn 0.15707(6) -0.24743(5) 0.81754(6)
Zn4B Zn -0.34293(6) 0.25257(5) -0.18246(6)
Cl1_2 Cl 0.2824(2) -0.2159(2) -0.7960(3)
Cl2_2 Cl 0.1697(3) -0.3659(3) -0.4946(4)
Cl3B Cl -0.1720(3) -0.1384(3) 0.0011(4)
Cl4B Cl -0.3547(7) -0.0074(6) -0.2716(9)
Cl5B Cl 0.2755(2) 0.1860(2) -0.2832(3)
Cl6B Cl 0.1716(7) 0.0245(6) -0.0313(7)
O1_2 O 0.1042(3) -0.2421(3) 0.8443(3)
O1B O 0.6042(3) -0.7421(3) -0.1557(3)
O2_2 O 0.0973(4) -0.2723(3) -1.0387(4)
O2_3 O 0.0973(4) -0.2723(3) 0.9613(4)
O3_2 O 0.1057(4) -0.2153(3) -1.0370(4)
O3B O 0.6057(4) -0.7153(3) -0.0370(4)
O4_2 O 0.0688(4) -0.2598(4) -0.6780(5)
O5_2 O 0.0730(3) -0.2350(3) -0.2807(3)
O6_2 O 0.1386(4) -0.2440(4) -0.2611(4)
O7_2 O 0.1270(4) -0.1808(3) -0.6276(4)
O8B O 0.0184(4) -0.2066(3) -0.1990(5)
O8B_2 O 0.0184(4) -0.2066(3) 0.8010(5)
O9B O 0.0433(4) -0.1844(3) -0.1231(5)
O10B O -0.1555(8) -0.0170(8) -0.2481(12)
O11B O -0.3310(4) 0.2025(3) -0.1843(5)
O11_2 O 0.1690(4) -0.2975(3) 0.8157(5)
O12B O -0.3652(4) 0.1808(4) -0.1201(4)
O12_2 O 0.1348(4) -0.3192(4) 0.8799(4)
O13B O -0.1471(10) 0.0305(13) -0.0972(14)
O14B O 0.5427(4) 0.1964(3) -0.1305(5)
O14_2 O 0.0427(4) -0.3036(3) 0.8695(5)
O15B O 0.5237(4) 0.2170(3) -0.2113(4)
O15_2 O 0.0237(4) -0.2830(3) 0.7887(4)
O16B O 0.3691(4) 0.0154(4) -0.1385(6)
O17B O 0.1154(5) -0.1655(4) -0.1996(6)
O18B O 0.1407(5) -0.1652(3) -0.1174(5)
O18_2 O 0.6407(5) -0.6652(3) -0.1174(5)
O19B O 0.3281(5) -0.0067(5) -0.2481(7)
C1_2 C 0.1367(5) -0.2405(5) -0.6807(7)
C2_2 C 0.1016(6) -0.2508(5) -0.7088(8)
C3_2 C 0.0950(5) -0.2500(5) -0.7607(6)
C4_2 C 0.1295(5) -0.2405(5) -0.7891(6)
C5_2 C 0.2048(8) -0.2290(7) -0.7899(12)
C6_2 C 0.2419(6) -0.2219(6) -0.7634(8)
C7_2 C 0.2435(8) -0.2175(7) -0.7069(10)
C8_2 C 0.2107(6) -0.2248(6) -0.6816(9)
C9_2 C 0.1698(5) -0.2331(5) -0.7065(7)
C10_2 C 0.1633(6) -0.2341(5) -0.7642(7)
C11_2 C 0.0304(7) -0.2419(7) -0.6876(10)
C12_2 C 0.0309(9) -0.2119(8) -0.6606(12)
C13_2 C 0.1229(5) -0.2420(6) -0.8485(7)
C14_2 C 0.1287(6) -0.2149(6) -0.8769(8)
C15_2 C 0.1219(5) -0.2148(5) -0.9312(7)
C16_2 C 0.1082(5) -0.2425(6) -0.9566(7)
C17_2 C 0.1045(5) -0.2715(5) -0.9281(7)
C18_2 C 0.1097(2) -0.2725(2) -0.8735(3)
C19_2 C 0.1043(2) -0.2454(2) -1.0144(3)
C20_2 C 0.1390(2) -0.2403(2) -0.6216(3)
C21_2 C 0.1319(2) -0.2094(2) -0.5946(3)
C22_2 C 0.1301(2) -0.2090(2) -0.5407(3)
C23_2 C 0.1349(5) -0.2367(5) -0.5130(7)
C24_2 C 0.1499(8) -0.2992(8) -0.5060(11)
C25_2 C 0.1613(6) -0.3290(6) -0.5318(9)
C26_2 C 0.1655(10) -0.3286(10) -0.5854(13)
C27_2 C 0.1575(7) -0.2975(6) -0.6133(10)
C28_2 C 0.1459(5) -0.2717(5) -0.5910(7)
C29_2 C 0.1454(7) -0.2689(6) -0.5332(9)
C30_2 C 0.1163(7) -0.1484(5) -0.6052(9)
C31_2 C 0.1095(9) -0.1228(8) -0.6478(12)
C32_2 C 0.1300(5) -0.2353(5) -0.4549(7)
C33_2 C 0.0912(5) -0.2325(5) -0.4396(7)
C34_2 C 0.0831(6) -0.2335(5) -0.3866(7)
C35_2 C 0.1144(4) -0.2363(4) -0.3494(6)
C36_2 C 0.1558(5) -0.2400(5) -0.3640(6)
C37_2 C 0.1617(5) -0.2389(5) -0.4165(6)
C38_2 C 0.1086(4) -0.2385(5) -0.2945(6)
C39B C -0.1672(5) -0.0329(3) -0.1606(6)
C40B C -0.1400(5) -0.0355(4) -0.1985(5)
C41B C -0.1134(4) -0.0631(4) -0.1983(5)
C42B C -0.1142(4) -0.0881(4) -0.1601(5)
C43B C -0.1414(3) -0.0855(3) -0.1222(4)
C44B C -0.1680(3) -0.0579(3) -0.1224(4)
C45B C -0.1952(4) -0.0552(4) -0.0845(6)
C46B C -0.1960(4) -0.0802(4) -0.0463(5)
C47B C -0.1695(5) -0.1078(4) -0.0460(5)
C48B C -0.1422(4) -0.1105(3) -0.0840(5)
C49B C -0.1464(14) -0.0269(18) -0.2984(16)
C50B C -0.1005(13) -0.0159(18) -0.288(2)
C51B C -0.0798(7) -0.1164(7) -0.1582(9)
C52B C -0.0531(6) -0.1188(6) -0.1166(9)
C53B C -0.0199(7) -0.1414(7) -0.1199(10)
C54B C -0.0169(6) -0.1642(5) -0.1616(7)
C55B C -0.0459(5) -0.1605(5) -0.2014(7)
C56B C -0.0806(7) -0.1391(6) -0.2007(9)
C57B C 0.0164(5) -0.1858(4) -0.1612(6)
C58B C -0.1942(5) -0.0006(5) -0.1621(8)
C59B C -0.1807(4) 0.0295(6) -0.1376(8)
C60B C -0.2072(6) 0.0571(5) -0.1368(7)
C61B C -0.2471(5) 0.0546(4) -0.1604(7)
C62B C -0.2607(4) 0.0246(4) -0.1848(5)
C63B C -0.2342(5) -0.0030(4) -0.1857(6)
C64B C -0.2477(7) -0.0331(4) -0.2101(8)
C65B C -0.2877(8) -0.0356(6) -0.2337(9)
C66B C -0.3141(6) -0.0080(7) -0.2329(9)
C67B C -0.3006(4) 0.0221(6) -0.2084(7)
C68B C -0.138(3) 0.0655(15) -0.086(4)
C69B C -0.149(3) 0.102(2) -0.100(4)
C70B C -0.2708(6) 0.0862(5) -0.1601(6)
C71B C -0.2939(6) 0.0941(7) -0.1203(10)
C72B C -0.3169(6) 0.1232(5) -0.1159(8)
C73B C -0.3154(5) 0.1460(4) -0.1557(5)
C74B C -0.2939(5) 0.1398(5) -0.1969(8)
C75B C -0.2719(3) 0.1108(2) -0.1980(3)
C76B C -0.3396(3) 0.1788(2) -0.1542(3)
C77B C 0.3243(3) 0.0507(2) -0.1934(3)
C78B C 0.3611(3) 0.0477(2) -0.1618(3)
C79B C 0.3914(3) 0.0740(2) -0.1606(3)
C80B C 0.3828(6) 0.1024(6) -0.1847(8)
C81B C 0.3305(9) 0.1425(8) -0.2339(11)
C82B C 0.2894(8) 0.1465(8) -0.2606(11)
C83B C 0.2620(11) 0.1193(10) -0.2619(14)
C84B C 0.2740(10) 0.0897(9) -0.2447(12)
C85B C 0.3144(8) 0.0805(7) -0.2128(10)
C86B C 0.3428(7) 0.1110(7) -0.2115(10)
C87B C 0.4095(6) 0.0082(6) -0.1132(9)
C88B C 0.4099(10) -0.0279(9) -0.0995(14)
C89B C 0.4173(6) 0.1308(5) -0.1814(8)
C90B C 0.4293(6) 0.1461(6) -0.2275(8)
C91B C 0.4616(5) 0.1689(5) -0.2234(8)
C92B C 0.4834(5) 0.1762(5) -0.1770(7)
C93B C 0.4676(5) 0.1594(5) -0.1304(7)
C94B C 0.4366(5) 0.1381(5) -0.1360(7)
C95B C 0.5170(5) 0.1984(5) -0.1731(7)
C96B C 0.2901(4) 0.0226(3) -0.1860(6)
C97B C 0.2952(4) -0.0060(4) -0.2165(5)
C98B C 0.2692(5) -0.0337(3) -0.2141(6)
C99B C 0.2381(4) -0.0329(3) -0.1811(7)
C100B C 0.2331(3) -0.0044(4) -0.1505(5)
C101B C 0.2591(4) 0.0234(3) -0.1529(5)
C102B C 0.2540(7) 0.0520(4) -0.1223(8)
C103B C 0.2229(8) 0.0528(6) -0.0893(8)
C104B C 0.1969(7) 0.0250(7) -0.0869(8)
C105B C 0.2020(5) -0.0036(6) -0.1175(7)
C106B C 0.3464(10) -0.0399(7) -0.2570(14)
C107B C 0.3907(10) -0.0329(10) -0.2720(14)
C108B C 0.2148(5) -0.0656(4) -0.1795(7)
C109B C 0.1825(6) -0.0728(4) -0.2172(6)
C110B C 0.1564(5) -0.0999(4) -0.2102(5)
C111B C 0.1626(4) -0.1198(3) -0.1653(4)
C112B C 0.1949(4) -0.1126(4) -0.1276(5)
C113B C 0.2210(4) -0.0855(4) -0.1346(6)
C114B C 0.1395(6) -0.1571(4) -0.1630(6)
N1_2 N 0.2102(7) -0.2404(4) 0.9871(6)
O39_2 O 0.1813(4) -0.2503(3) 0.9004(5)
C229_2 C 0.2006(4) -0.2299(4) 0.9296(6)
C230_2 C 0.2194(14) -0.2157(11) 1.0336(14)
C231_2 C 0.2079(14) -0.2796(6) 0.9965(19)
N2_2 N 0.2167(17) -0.1726(10) 0.754(2)
O40_2 O 0.2030(6) -0.2191(6) 0.8063(10)
C232_2 C 0.1977(16) -0.1890(7) 0.795(3)
C233_2 C 0.2630(16) -0.170(3) 0.771(4)
C234_2 C 0.222(3) -0.155(2) 0.701(3)
loop_
_geom_bond_atom_site_label_1
_geom_bond_atom_site_label_2
_geom_bond_site_symmetry_1
_geom_bond_site_symmetry_2
Zn1 O1 1_555 1_555
Zn2 O1 1_555 1_555
Zn3 O1 1_555 1_555
Zn4 O1 1_555 1_555
Zn5 O20 1_555 1_555
Zn6 O20 1_555 1_555
Zn7 O20 1_555 1_555
Zn8 O20 1_555 1_555
Cl1 C6 1_555 1_555
Cl2 C25 1_555 1_555
Cl3 C47 1_555 1_555
Cl4 C66 1_555 1_555
Cl5 C82 1_555 1_555
Cl6 C104 1_555 1_555
Cl9 C123 1_555 1_555
Cl10 C139 1_555 1_555
Cl12 C158 1_555 1_555
Cl14 C177 1_555 1_555
Cl15 C199 1_555 1_555
Cl17 C218 1_555 1_555
O2 Zn1 1_555 1_555
O3 Zn3 1_555 1_555
O4 C2 1_555 1_555
O5 C38 1_555 1_555
O6 C38 1_555 1_555
O7 C21 1_555 1_555
O8 C57 1_555 1_555
O9 C57 1_555 1_555
O10 C40 1_555 1_555
O11 Zn4 1_555 1_555
O12 Zn1 1_555 1_555
O13 C59 1_555 1_555
O14 Zn1 1_555 1_555
O15 Zn2 1_555 1_555
O16 C78 1_555 1_555
O17 C114 1_555 1_555
O18 C114 1_555 1_555
O19 C97 1_555 1_555
O21 Zn5 1_555 1_555
O22 Zn6 1_555 1_555
O23 C116 1_555 1_555
O24 C152 1_555 1_555
O25 C152 1_555 1_555
O26 C135 1_555 1_555
O27 C171 1_555 1_555
O28 C171 1_555 1_555
O29 C154 1_555 1_555
O30 Zn5 1_555 1_555
O31 Zn8 1_555 1_555
O32 C173 1_555 1_555
O33 Zn5 1_555 1_555
O34 Zn7 1_555 1_555
O35 C192 1_555 1_555
O36 C228 1_555 1_555
O37 C228 1_555 1_555
O38 C211 1_555 1_555
C1 C2 1_555 1_555
C2 C3 1_555 1_555
C3 C4 1_555 1_555
C4 C10 1_555 1_555
C5 C6 1_555 1_555
C6 C7 1_555 1_555
C7 C8 1_555 1_555
C8 C9 1_555 1_555
C9 C1 1_555 1_555
C10 C5 1_555 1_555
C11 O4 1_555 1_555
C12 C11 1_555 1_555
C13 C4 1_555 1_555
C14 C13 1_555 1_555
C15 C14 1_555 1_555
C16 C15 1_555 1_555
C17 C16 1_555 1_555
C18 C13 1_555 1_555
C19 O2 1_555 1_555
C20 C1 1_555 1_555
C21 C20 1_555 1_555
C22 C21 1_555 1_555
C23 C22 1_555 1_555
C24 C25 1_555 1_555
C25 C26 1_555 1_555
C26 C27 1_555 1_555
C27 C28 1_555 1_555
C28 C20 1_555 1_555
C29 C23 1_555 1_555
C30 O7 1_555 1_555
C31 C30 1_555 1_555
C32 C23 1_555 1_555
C33 C32 1_555 1_555
C34 C33 1_555 1_555
C35 C34 1_555 1_555
C36 C35 1_555 1_555
C37 C32 1_555 1_555
C38 C35 1_555 1_555
C39 C40 1_555 1_555
C40 C41 1_555 1_555
C41 C42 1_555 1_555
C42 C43 1_555 1_555
C43 C44 1_555 1_555
C44 C39 1_555 1_555
C45 C44 1_555 1_555
C46 C45 1_555 1_555
C47 C46 1_555 1_555
C48 C43 1_555 1_555
C49 O10 1_555 1_555
C50 C49 1_555 1_555
C51 C42 1_555 1_555
C52 C51 1_555 1_555
C53 C52 1_555 1_555
C54 C53 1_555 1_555
C55 C54 1_555 1_555
C56 C51 1_555 1_555
C57 C54 1_555 1_555
C58 C39 1_555 1_555
C59 C58 1_555 1_555
C60 C59 1_555 1_555
C61 C60 1_555 1_555
C62 C61 1_555 1_555
C63 C58 1_555 1_555
C64 C63 1_555 1_555
C65 C64 1_555 1_555
C66 C65 1_555 1_555
C67 C62 1_555 1_555
C68 O13 1_555 1_555
C69 C68 1_555 1_555
C70 C61 1_555 1_555
C71 C70 1_555 1_555
C72 C71 1_555 1_555
C73 C72 1_555 1_555
C74 C73 1_555 1_555
C75 C70 1_555 1_555
C76 O11 1_555 1_555
C77 C78 1_555 1_555
C78 C79 1_555 1_555
C79 C80 1_555 1_555
C80 C86 1_555 1_555
C81 C82 1_555 1_555
C82 C83 1_555 1_555
C83 C84 1_555 1_555
C84 C85 1_555 1_555
C85 C77 1_555 1_555
C86 C81 1_555 1_555
C87 O16 1_555 1_555
C88 C87 1_555 1_555
C89 C80 1_555 1_555
C90 C89 1_555 1_555
C91 C90 1_555 1_555
C92 C91 1_555 1_555
C93 C92 1_555 1_555
C94 C89 1_555 1_555
C95 O14 1_555 1_555
C96 C77 1_555 1_555
C97 C96 1_555 1_555
C98 C97 1_555 1_555
C99 C98 1_555 1_555
C100 C99 1_555 1_555
C101 C96 1_555 1_555
C102 C101 1_555 1_555
C103 C102 1_555 1_555
C104 C103 1_555 1_555
C105 C100 1_555 1_555
C106 O19 1_555 1_555
C107 C106 1_555 1_555
C108 C99 1_555 1_555
C109 C108 1_555 1_555
C110 C109 1_555 1_555
C111 C110 1_555 1_555
C112 C111 1_555 1_555
C113 C108 1_555 1_555
C114 C111 1_555 1_555
C115 C116 1_555 1_555
C116 C117 1_555 1_555
C117 C118 1_555 1_555
C118 C119 1_555 1_555
C119 C120 1_555 1_555
C120 C115 1_555 1_555
C121 C120 1_555 1_555
C122 C121 1_555 1_555
C123 C122 1_555 1_555
C124 C119 1_555 1_555
C125 O23 1_555 1_555
C126 C125 1_555 1_555
C127 C118 1_555 1_555
C128 C127 1_555 1_555
C129 C128 1_555 1_555
C130 C129 1_555 1_555
C131 C130 1_555 1_555
C132 C127 1_555 1_555
C133 O21 1_555 1_555
C134 C115 1_555 1_555
C135 C134 1_555 1_555
C136 C135 1_555 1_555
C137 C136 1_555 1_555
C138 C139 1_555 1_555
C139 C140 1_555 1_555
C140 C141 1_555 1_555
C141 C142 1_555 1_555
C142 C134 1_555 1_555
C143 C137 1_555 1_555
C144 O26 1_555 1_555
C145 C144 1_555 1_555
C146 C137 1_555 1_555
C147 C146 1_555 1_555
C148 C147 1_555 1_555
C149 C148 1_555 1_555
C150 C149 1_555 1_555
C151 C146 1_555 1_555
C152 C149 1_555 1_555
C153 C154 1_555 1_555
C154 C155 1_555 1_555
C155 C156 1_555 1_555
C156 C162 1_555 1_555
C157 C158 1_555 1_555
C158 C159 1_555 1_555
C159 C160 1_555 1_555
C160 C161 1_555 1_555
C161 C153 1_555 1_555
C162 C157 1_555 1_555
C163 O29 1_555 1_555
C164 C163 1_555 1_555
C165 C156 1_555 1_555
C166 C165 1_555 1_555
C167 C166 1_555 1_555
C168 C167 1_555 1_555
C169 C168 1_555 1_555
C170 C165 1_555 1_555
C171 C168 1_555 1_555
C172 C153 1_555 1_555
C173 C172 1_555 1_555
C174 C173 1_555 1_555
C175 C174 1_555 1_555
C176 C177 1_555 1_555
C177 C178 1_555 1_555
C178 C179 1_555 1_555
C179 C180 1_555 1_555
C180 C172 1_555 1_555
C181 C175 1_555 1_555
C182 O32 1_555 1_555
C183 C182 1_555 1_555
C184 C175 1_555 1_555
C185 C184 1_555 1_555
C186 C185 1_555 1_555
C187 C186 1_555 1_555
C188 C187 1_555 1_555
C189 C184 1_555 1_555
C190 O30 1_555 1_555
C191 C192 1_555 1_555
C192 C193 1_555 1_555
C193 C194 1_555 1_555
C194 C195 1_555 1_555
C195 C196 1_555 1_555
C196 C191 1_555 1_555
C197 C196 1_555 1_555
C198 C197 1_555 1_555
C199 C198 1_555 1_555
C200 C195 1_555 1_555
C201 O35 1_555 1_555
H1 C201 1_555 1_555
C202 C201 1_555 1_555
C203 C194 1_555 1_555
C204 C203 1_555 1_555
C205 C204 1_555 1_555
C206 C205 1_555 1_555
C207 C206 1_555 1_555
C208 C203 1_555 1_555
C209 O33 1_555 1_555
C210 C191 1_555 1_555
C211 C210 1_555 1_555
C212 C211 1_555 1_555
C213 C212 1_555 1_555
C214 C213 1_555 1_555
C215 C210 1_555 1_555
C216 C215 1_555 1_555
C217 C216 1_555 1_555
C218 C217 1_555 1_555
C219 C214 1_555 1_555
C220 O38 1_555 1_555
C221 C220 1_555 1_555
C222 C213 1_555 1_555
C223 C222 1_555 1_555
C224 C223 1_555 1_555
C225 C224 1_555 1_555
C226 C225 1_555 1_555
C227 C222 1_555 1_555
C228 C225 1_555 1_555
N1 C229 1_555 1_555
O39 Zn4 1_555 1_555
C229 O39 1_555 1_555
C230 N1 1_555 1_555
C231 N1 1_555 1_555
N2 C232 1_555 1_555
O40 Zn4 1_555 1_555
C232 O40 1_555 1_555
C233 N2 1_555 1_555
C234 N2 1_555 1_555
N3 C235 1_555 1_555
O41 Zn8 1_555 1_555
C235 O41 1_555 1_555
C236 N3 1_555 1_555
C237 N3 1_555 1_555
N5 C239 1_555 1_555
O42 Zn8 1_555 1_555
C239 O42 1_555 1_555
C240 N5 1_555 1_555
C241 N5 1_555 1_555
N6 C242 1_555 1_555
O43 C242 1_555 1_555
C243 N6 1_555 1_555
C244 N6 1_555 1_555
N7 C245 1_555 1_555
O44 C245 1_555 1_555
C246 N7 1_555 1_555
C247 N7 1_555 1_555
O46 C249 1_555 1_555
O48 C251 1_555 1_555
O49 C252 1_555 1_555
O50 C253 1_555 1_555
O51 C254 1_555 1_555
O52 C255 1_555 1_555
O53 C256 1_555 1_555
O54 C257 1_555 1_555
O55 C258 1_555 1_555
Zn1_2 O1_2 1_555 1_555
Zn1_3 O2_2 1_555 1_555
Zn1B O12B 1_555 1_555
Zn1B_2 O14B 1_555 1_555
Zn2_2 O5 1_555 1_555
Zn2B O8 1_555 1_555
Zn2B_2 O15B 1_555 1_555
Zn3B O9 1_555 1_555
Zn3B_2 O18 1_555 1_555
Zn3_2 O3_2 1_555 1_555
Zn3_3 O1_2 1_555 1_555
Zn4_2 O6 1_555 1_555
Zn4B O11B 1_555 1_555
Zn5B O20B 1_555 1_555
Zn5B_2 O30B 1_555 1_555
Zn5B_3 O33B 1_555 1_555
Zn5_2 O21_2 1_555 1_555
Zn6B O27 1_555 1_555
Zn6B_2 O36 1_555 1_555
Zn6_2 O22_2 1_555 1_555
Zn7_2 O25 1_555 1_555
Zn7B O28 1_555 1_555
Zn7B_2 O34B 1_555 1_555
Zn8_2 O24 1_555 1_555
Zn8B O37 1_555 1_555
Zn8B_2 O31B 1_555 1_555
Zn8B_3 O20B 1_555 1_555
Cl1_2 C6_2 1_555 1_555
Cl2_2 C25_2 1_555 1_555
Cl3B C47B 1_555 1_555
Cl4B C66B 1_555 1_555
Cl5B C82B 1_555 1_555
Cl6B C104B 1_555 1_555
Cl9_2 C123_2 1_555 1_555
Cl10_2 C139_2 1_555 1_555
Cl12B C158B 1_555 1_555
Cl14B C177B 1_555 1_555
Cl15B C199B 1_555 1_555
Cl17B C218B 1_555 1_555
O1_2 Zn2_2 1_555 1_555
O1B Zn2B 1_555 1_555
O2_2 C19_2 1_555 1_555
O2_3 Zn1_2 1_555 1_555
O3_2 C19_2 1_555 1_555
O3B Zn3B 1_555 1_555
O4_2 C2_2 1_555 1_555
O5_2 Zn2 1_555 1_555
O6_2 Zn4 1_555 1_555
O7_2 C21_2 1_555 1_555
O8B Zn2 1_555 1_555
O8B_2 Zn2_2 1_555 1_555
O9B Zn3 1_555 1_555
O10B C40B 1_555 1_555
O11B C76B 1_555 1_555
O11_2 Zn4_2 1_555 1_555
O12B C76B 1_555 1_555
O12_2 Zn1_2 1_555 1_555
O13B C59B 1_555 1_555
O14B C95B 1_555 1_555
O14_2 Zn1_2 1_555 1_555
O15B C95B 1_555 1_555
O15_2 Zn2_2 1_555 1_555
O16B C78B 1_555 1_555
O17B C114B 1_555 1_555
O18B Zn3 1_555 1_555
O18_2 Zn3B 1_555 1_555
O19B C97B 1_555 1_555
O20B Zn6B 1_555 1_555
O20_2 Zn7_2 1_555 1_555
O21_2 C133_2 1_555 1_555
O21B Zn5B 1_555 1_555
O22_2 C133_2 1_555 1_555
O22B Zn6B 1_555 1_555
O23_2 C116_2 1_555 1_555
O24_2 Zn8 1_555 1_555
O25_2 Zn7 1_555 1_555
O26_2 C135_2 1_555 1_555
O27B Zn6 1_555 1_555
O28B Zn7 1_555 1_555
O28B_2 Zn7_2 1_555 1_555
O29B C154B 1_555 1_555
O30B C190B 1_555 1_555
O30B_2 Zn5B 1_555 1_555
O31B C190B 1_555 1_555
O31_2 Zn8_2 1_555 1_555
O32B C173B 1_555 1_555
O33B C209B 1_555 1_555
O33B_2 Zn5B 1_555 1_555
O34B C209B 1_555 1_555
O34_2 Zn7_2 1_555 1_555
O35B C192B 1_555 1_555
O36B Zn6 1_555 1_555
O36_2 Zn6B 1_555 1_555
O37B Zn8 1_555 1_555
O37B_2 Zn8_2 1_555 1_555
O38B C211B 1_555 1_555
C1_2 C2_2 1_555 1_555
C2_2 C3_2 1_555 1_555
C3_2 C4_2 1_555 1_555
C4_2 C10_2 1_555 1_555
C5_2 C6_2 1_555 1_555
C6_2 C7_2 1_555 1_555
C7_2 C8_2 1_555 1_555
C8_2 C9_2 1_555 1_555
C9_2 C1_2 1_555 1_555
C10_2 C5_2 1_555 1_555
C11_2 O4_2 1_555 1_555
C12_2 C11_2 1_555 1_555
C13_2 C4_2 1_555 1_555
C14_2 C13_2 1_555 1_555
C15_2 C14_2 1_555 1_555
C16_2 C15_2 1_555 1_555
C17_2 C16_2 1_555 1_555
C18_2 C13_2 1_555 1_555
C19_2 C16_2 1_555 1_555
C20_2 C1_2 1_555 1_555
C21_2 C20_2 1_555 1_555
C22_2 C21_2 1_555 1_555
C23_2 C22_2 1_555 1_555
C24_2 C25_2 1_555 1_555
C25_2 C26_2 1_555 1_555
C26_2 C27_2 1_555 1_555
C27_2 C28_2 1_555 1_555
C28_2 C20_2 1_555 1_555
C29_2 C23_2 1_555 1_555
C30_2 O7_2 1_555 1_555
C31_2 C30_2 1_555 1_555
C32_2 C23_2 1_555 1_555
C33_2 C32_2 1_555 1_555
C34_2 C33_2 1_555 1_555
C35_2 C34_2 1_555 1_555
C36_2 C35_2 1_555 1_555
C37_2 C32_2 1_555 1_555
C38_2 O5_2 1_555 1_555
C39B C40B 1_555 1_555
C40B C41B 1_555 1_555
C41B C42B 1_555 1_555
C42B C43B 1_555 1_555
C43B C44B 1_555 1_555
C44B C39B 1_555 1_555
C45B C44B 1_555 1_555
C46B C45B 1_555 1_555
C47B C46B 1_555 1_555
C48B C43B 1_555 1_555
C49B O10B 1_555 1_555
C50B C49B 1_555 1_555
C51B C42B 1_555 1_555
C52B C51B 1_555 1_555
C53B C52B 1_555 1_555
C54B C53B 1_555 1_555
C55B C54B 1_555 1_555
C56B C51B 1_555 1_555
C57B O8B 1_555 1_555
C58B C39B 1_555 1_555
C59B C58B 1_555 1_555
C60B C59B 1_555 1_555
C61B C60B 1_555 1_555
C62B C61B 1_555 1_555
C63B C58B 1_555 1_555
C64B C63B 1_555 1_555
C65B C64B 1_555 1_555
C66B C65B 1_555 1_555
C67B C62B 1_555 1_555
C68B O13B 1_555 1_555
C69B C68B 1_555 1_555
C70B C61B 1_555 1_555
C71B C70B 1_555 1_555
C72B C71B 1_555 1_555
C73B C72B 1_555 1_555
C74B C73B 1_555 1_555
C75B C70B 1_555 1_555
C76B C73B 1_555 1_555
C77B C78B 1_555 1_555
C78B C79B 1_555 1_555
C79B C80B 1_555 1_555
C80B C86B 1_555 1_555
C81B C82B 1_555 1_555
C82B C83B 1_555 1_555
C83B C84B 1_555 1_555
C84B C85B 1_555 1_555
C85B C77B 1_555 1_555
C86B C81B 1_555 1_555
C87B O16B 1_555 1_555
C88B C87B 1_555 1_555
C89B C80B 1_555 1_555
C90B C89B 1_555 1_555
C91B C90B 1_555 1_555
C92B C91B 1_555 1_555
C93B C92B 1_555 1_555
C94B C89B 1_555 1_555
C95B C92B 1_555 1_555
C96B C77B 1_555 1_555
C97B C96B 1_555 1_555
C98B C97B 1_555 1_555
C99B C98B 1_555 1_555
C100B C99B 1_555 1_555
C101B C96B 1_555 1_555
C102B C101B 1_555 1_555
C103B C102B 1_555 1_555
C104B C103B 1_555 1_555
C105B C100B 1_555 1_555
C106B O19B 1_555 1_555
C107B C106B 1_555 1_555
C108B C99B 1_555 1_555
C109B C108B 1_555 1_555
C110B C109B 1_555 1_555
C111B C110B 1_555 1_555
C112B C111B 1_555 1_555
C113B C108B 1_555 1_555
C114B O18B 1_555 1_555
C115_2 C116_2 1_555 1_555
C116_2 C117_2 1_555 1_555
C117_2 C118_2 1_555 1_555
C118_2 C119_2 1_555 1_555
C119_2 C120_2 1_555 1_555
C120_2 C115_2 1_555 1_555
C121_2 C120_2 1_555 1_555
C122_2 C121_2 1_555 1_555
C123_2 C122_2 1_555 1_555
C124_2 C119_2 1_555 1_555
C125_2 O23_2 1_555 1_555
C126_2 C125_2 1_555 1_555
C127_2 C118_2 1_555 1_555
C128_2 C127_2 1_555 1_555
C129_2 C128_2 1_555 1_555
C130_2 C129_2 1_555 1_555
C131_2 C130_2 1_555 1_555
C132_2 C127_2 1_555 1_555
C133_2 C130_2 1_555 1_555
C134_2 C115_2 1_555 1_555
C135_2 C134_2 1_555 1_555
C136_2 C135_2 1_555 1_555
C137_2 C136_2 1_555 1_555
C138_2 C139_2 1_555 1_555
C139_2 C140_2 1_555 1_555
C140_2 C141_2 1_555 1_555
C141_2 C142_2 1_555 1_555
C142_2 C134_2 1_555 1_555
C143_2 C137_2 1_555 1_555
C144_2 O26_2 1_555 1_555
C145_2 C144_2 1_555 1_555
C146_2 C137_2 1_555 1_555
C147_2 C146_2 1_555 1_555
C148_2 C147_2 1_555 1_555
C149_2 C148_2 1_555 1_555
C150_2 C149_2 1_555 1_555
C151_2 C146_2 1_555 1_555
C152_2 O24_2 1_555 1_555
C153B C154B 1_555 1_555
C154B C155B 1_555 1_555
C155B C156B 1_555 1_555
C156B C162B 1_555 1_555
C157B C158B 1_555 1_555
C158B C159B 1_555 1_555
C159B C160B 1_555 1_555
C160B C161B 1_555 1_555
C161B C153B 1_555 1_555
C162B C157B 1_555 1_555
C163B O29B 1_555 1_555
C164B C163B 1_555 1_555
C165B C156B 1_555 1_555
C166B C165B 1_555 1_555
C167B C166B 1_555 1_555
C168B C167B 1_555 1_555
C169B C168B 1_555 1_555
C170B C165B 1_555 1_555
C171B O27B 1_555 1_555
C172B C153B 1_555 1_555
C173B C172B 1_555 1_555
C174B C173B 1_555 1_555
C175B C174B 1_555 1_555
C176B C177B 1_555 1_555
C177B C178B 1_555 1_555
C178B C179B 1_555 1_555
C179B C180B 1_555 1_555
C180B C172B 1_555 1_555
C181B C175B 1_555 1_555
C182B O32B 1_555 1_555
C183B C182B 1_555 1_555
C184B C175B 1_555 1_555
C185B C184B 1_555 1_555
C186B C185B 1_555 1_555
C187B C186B 1_555 1_555
C188B C187B 1_555 1_555
C189B C184B 1_555 1_555
C190B C187B 1_555 1_555
C191B C192B 1_555 1_555
C192B C193B 1_555 1_555
C193B C194B 1_555 1_555
C194B C195B 1_555 1_555
C195B C196B 1_555 1_555
C196B C191B 1_555 1_555
C197B C196B 1_555 1_555
C198B C197B 1_555 1_555
C199B C198B 1_555 1_555
C200B C195B 1_555 1_555
C201B O35B 1_555 1_555
H1B C201B 1_555 1_555
C202B C201B 1_555 1_555
C203B C194B 1_555 1_555
C204B C203B 1_555 1_555
C205B C204B 1_555 1_555
C206B C205B 1_555 1_555
C207B C206B 1_555 1_555
C208B C203B 1_555 1_555
C209B C206B 1_555 1_555
C210B C191B 1_555 1_555
C211B C210B 1_555 1_555
C212B C211B 1_555 1_555
C213B C212B 1_555 1_555
C214B C213B 1_555 1_555
C215B C210B 1_555 1_555
C216B C215B 1_555 1_555
C217B C216B 1_555 1_555
C218B C217B 1_555 1_555
C219B C214B 1_555 1_555
C220B O38B 1_555 1_555
C221B C220B 1_555 1_555
C222B C213B 1_555 1_555
C223B C222B 1_555 1_555
C224B C223B 1_555 1_555
C225B C224B 1_555 1_555
C226B C225B 1_555 1_555
C227B C222B 1_555 1_555
C228B O36B 1_555 1_555
N1_2 C229_2 1_555 1_555
O39_2 Zn4_2 1_555 1_555
C229_2 O39_2 1_555 1_555
C230_2 N1_2 1_555 1_555
C231_2 N1_2 1_555 1_555
N2_2 C232_2 1_555 1_555
O40_2 Zn4_2 1_555 1_555
C232_2 O40_2 1_555 1_555
C233_2 N2_2 1_555 1_555
C234_2 N2_2 1_555 1_555
N3_2 C235_2 1_555 1_555
O41_2 Zn8_2 1_555 1_555
C235_2 O41_2 1_555 1_555
C236_2 N3_2 1_555 1_555
C237_2 N3_2 1_555 1_555
N5_2 C239_2 1_555 1_555
O42_2 Zn8_2 1_555 1_555
C239_2 O42_2 1_555 1_555
C240_2 N5_2 1_555 1_555
C241_2 N5_2 1_555 1_555
O3 C19 1_555 1_555
O12 C76 1_555 1_555
O15 C95 1_555 1_555
O22 C133 1_555 1_555
O31 C190 1_555 1_555
O34 C209 1_555 1_555
C9 C10 1_555 1_555
C16 C19 1_555 1_555
C17 C18 1_555 1_555
C24 C29 1_555 1_555
C28 C29 1_555 1_555
C36 C37 1_555 1_555
C47 C48 1_555 1_555
C55 C56 1_555 1_555
C62 C63 1_555 1_555
C66 C67 1_555 1_555
C73 C76 1_555 1_555
C74 C75 1_555 1_555
C85 C86 1_555 1_555
C92 C95 1_555 1_555
C93 C94 1_555 1_555
C100 C101 1_555 1_555
C104 C105 1_555 1_555
C112 C113 1_555 1_555
C123 C124 1_555 1_555
C130 C133 1_555 1_555
C131 C132 1_555 1_555
C138 C143 1_555 1_555
C142 C143 1_555 1_555
C150 C151 1_555 1_555
C161 C162 1_555 1_555
C169 C170 1_555 1_555
C176 C181 1_555 1_555
C180 C181 1_555 1_555
C187 C190 1_555 1_555
C188 C189 1_555 1_555
C199 C200 1_555 1_555
C206 C209 1_555 1_555
C207 C208 1_555 1_555
C214 C215 1_555 1_555
C218 C219 1_555 1_555
C226 C227 1_555 1_555
Zn3B O1B 1_555 1_555
Zn4_2 O1_2 1_555 1_555
Zn7B O20B 1_555 1_555
Zn8_2 O20_2 1_555 1_555
O6_2 C38_2 1_555 1_555
O9B C57B 1_555 1_555
O25_2 C152_2 1_555 1_555
O28B C171B 1_555 1_555
O37B C228B 1_555 1_555
C9_2 C10_2 1_555 1_555
C17_2 C18_2 1_555 1_555
C24_2 C29_2 1_555 1_555
C28_2 C29_2 1_555 1_555
C35_2 C38_2 1_555 1_555
C36_2 C37_2 1_555 1_555
C47B C48B 1_555 1_555
C54B C57B 1_555 1_555
C55B C56B 1_555 1_555
C62B C63B 1_555 1_555
C66B C67B 1_555 1_555
C74B C75B 1_555 1_555
C85B C86B 1_555 1_555
C93B C94B 1_555 1_555
C100B C101B 1_555 1_555
C104B C105B 1_555 1_555
C111B C114B 1_555 1_555
C112B C113B 1_555 1_555
C123_2 C124_2 1_555 1_555
C131_2 C132_2 1_555 1_555
C138_2 C143_2 1_555 1_555
C142_2 C143_2 1_555 1_555
C149_2 C152_2 1_555 1_555
C150_2 C151_2 1_555 1_555
C161B C162B 1_555 1_555
C168B C171B 1_555 1_555
C169B C170B 1_555 1_555
C176B C181B 1_555 1_555
C180B C181B 1_555 1_555
C188B C189B 1_555 1_555
C199B C200B 1_555 1_555
C207B C208B 1_555 1_555
C214B C215B 1_555 1_555
C218B C219B 1_555 1_555
C225B C228B 1_555 1_555
C226B C227B 1_555 1_555

#END
