
#######################################################################
#
#                 Cambridge Crystallographic Data Centre
#                                CCDC 
#
#######################################################################
#
# If this CIF has been generated from an entry in the Cambridge 
# Structural Database, then it will include bibliographic, chemical, 
# crystal, experimental, refinement or atomic coordinate data resulting 
# from the CCDC's data processing and validation procedures.
#
#######################################################################

data_HICZIE
_chemical_formula_moiety         'C38 H34 Gd10 N1 O31 1+'
_symmetry_cell_setting           orthorhombic
_symmetry_space_group_name_H-M   'C 2 2 21'
_symmetry_Int_Tables_number      20
_space_group_name_Hall           'C 2c 2'
loop_
_symmetry_equiv_pos_site_id
_symmetry_equiv_pos_as_xyz
1 x,y,z
2 -x,-y,1/2+z
3 x,-y,-z
4 -x,y,1/2-z
5 1/2+x,1/2+y,z
6 1/2-x,1/2-y,1/2+z
7 1/2+x,1/2-y,-z
8 1/2-x,1/2+y,1/2-z
_cell_length_a                   14.6484(8)
_cell_length_b                   16.4358(7)
_cell_length_c                   16.5923(8)
_cell_angle_alpha                90
_cell_angle_beta                 90
_cell_angle_gamma                90
_cell_volume                     3994.73
loop_
_atom_site_label
_atom_site_type_symbol
_atom_site_fract_x
_atom_site_fract_y
_atom_site_fract_z
O9 O 0.0460(17) 0.5662(15) 0.6236(19)
H11 H 0.0162 0.6056 0.6341
H12 H 0.0951 0.5785 0.5992
O10 O -0.044(4) 0.5000 0.5000
H13 H -0.0149 0.5212 0.5387
H13B H -0.0149 0.4788 0.4613
O11 O -0.0000 0.472(4) 0.7500
H14 H 0.0141 0.4964 0.7141
H14C H -0.0141 0.4964 0.7859
N1 N 0.7872(17) 0.2946(15) 0.6401(17)
H15 H 0.7992 0.2625 0.6828
H16 H 0.7266 0.2936 0.6313
C19 C 0.836(3) 0.2626(17) 0.5678(19)
H17 H 0.8440 0.3010 0.5343
H18 H 0.7996 0.2207 0.5434
H19 H 0.8872 0.2431 0.5818
C20 C 0.817(2) 0.3794(16) 0.6580(19)
H20 H 0.8666 0.3936 0.6233
H21 H 0.8353 0.3813 0.7097
H22 H 0.7732 0.4130 0.6512
Gd1 Gd 0.83793(5) 1.0000 0.5000
Gd2 Gd 1.0000 0.83214(5) 0.7500
O1 O 0.9446(8) 0.9034(7) 0.5245(6)
O2 O 1.0435(6) 0.8563(5) 0.6156(5)
O3 O 1.2238(11) 0.5711(9) 0.4164(9)
O4 O 1.2349(10) 0.6164(8) 0.5348(8)
C1 C 1.0352(9) 0.7670(9) 0.2634(11)
H1 H 1.0644 0.7203 0.2400
H2 H 1.0644 0.8136 0.2401
O5 O 0.8687(6) 1.0337(5) 0.6353(5)
O6 O 0.8978(9) 0.9340(7) 0.7228(6)
O7 O 0.6431(7) 1.2524(7) 0.7242(6)
O8 O 0.5678(10) 1.2226(8) 0.8329(7)
C2 C 0.7605(10) 1.0297(9) 0.9858(10)
H3 H 0.7025 1.0516 1.0016
H4 H 0.8047 1.0588 1.0174
C3 C 1.0085(12) 0.8591(9) 0.5454(8)
C4 C 1.2011(10) 0.6196(11) 0.4660(10)
C5 C 1.0495(8) 0.8052(7) 0.4836(7)
C6 C 1.1095(7) 0.7427(7) 0.5052(11)
H5 H 1.1261 0.7354 0.5588
C7 C 1.1444(10) 0.6912(8) 0.4455(9)
C8 C 1.1216(12) 0.7054(12) 0.3671(11)
H6 H 1.1457 0.6722 0.3270
C9 C 1.0627(13) 0.7691(13) 0.3454(11)
C10 C 1.0240(9) 0.8148(10) 0.4036(9)
H7 H 0.9798 0.8530 0.3900
C11 C 0.8650(9) 1.0019(10) 0.7039(7)
C12 C 0.6274(10) 1.2070(7) 0.7868(8)
C13 C 0.8115(8) 1.0463(7) 0.7679(7)
C14 C 0.7540(8) 1.1081(6) 0.7473(10)
H8 H 0.7503 1.1257 0.6941
C15 C 0.7010(10) 1.1445(7) 0.8069(8)
C16 C 0.7097(13) 1.1195(11) 0.8872(10)
H9 H 0.6770 1.1399 0.9218
C17 C 0.7728(12) 1.0610(11) 0.9089(11)
C18 C 0.8195(13) 1.0175(12) 0.8464(9)
H10 H 0.8541 0.9715 0.8579
O1C O 1.0554(8) 0.9034(7) -0.0245(6)
O2C O 0.9565(6) 0.8563(5) -0.1156(5)
O3C O 0.7762(11) 0.5711(9) 0.0836(9)
O4C O 0.7651(10) 0.6164(8) -0.0348(8)
C1C C 0.9648(9) 0.7670(9) 0.2366(11)
H1C H 0.9356 0.7203 0.2600
H2C H 0.9356 0.8136 0.2599
C3C C 0.9915(12) 0.8591(9) -0.0454(8)
C4C C 0.7989(10) 0.6196(11) 0.0340(10)
C5C C 0.9505(8) 0.8052(7) 0.0164(7)
C6C C 0.8905(7) 0.7427(7) -0.0052(11)
H5C H 0.8739 0.7354 -0.0588
C7C C 0.8556(10) 0.6912(8) 0.0545(9)
C8C C 0.8784(12) 0.7054(12) 0.1329(11)
H6C H 0.8543 0.6722 0.1730
C9C C 0.9373(13) 0.7691(13) 0.1546(11)
C10C C 0.9760(9) 0.8148(10) 0.0964(9)
H7C H 1.0202 0.8530 0.1100
O5B O 0.8687(6) 0.9663(5) 1.3647(5)
O6B O 0.8978(9) 1.0660(7) 1.2772(6)
O7B O 0.6431(7) 0.7476(7) 1.2758(6)
O8B O 0.5678(10) 0.7774(8) 1.1671(7)
C2B C 0.7605(10) 0.9703(9) 1.0142(10)
H3B H 0.7025 0.9484 0.9984
H4B H 0.8047 0.9412 0.9826
C11B C 0.8650(9) 0.9981(10) 1.2961(7)
C12B C 0.6274(10) 0.7930(7) 1.2132(8)
C13B C 0.8115(8) 0.9537(7) 1.2321(7)
C14B C 0.7540(8) 0.8919(6) 1.2527(10)
H8B H 0.7503 0.8743 1.3059
C15B C 0.7010(10) 0.8555(7) 1.1931(8)
C16B C 0.7097(13) 0.8805(11) 1.1128(10)
H9B H 0.6770 0.8601 1.0782
C17B C 0.7728(12) 0.9390(11) 1.0911(11)
C18B C 0.8195(13) 0.9825(12) 1.1536(9)
H10B H 0.8541 1.0285 1.1421
Gd1_2 Gd 0.83793(5) 1.0000 1.5000
Gd1A Gd 1.16207(5) 1.0000 0.0000
Gd1D Gd 1.33793(5) 0.5000 0.5000
Gd1E Gd 0.66207(5) 0.5000 0.0000
Gd2_2 Gd 1.0000 0.83214(5) -0.2500
Gd2A Gd 1.0000 1.16786(5) 1.2500
Gd2D Gd 0.5000 1.33214(5) 0.7500
Gd2E Gd 0.5000 0.66786(5) 1.2500
O1B O 0.9446(8) 1.0966(7) 0.4755(6)
O2C_2 O 0.9565(6) 0.8563(5) 0.8844(5)
O3D O 0.7238(11) 1.0711(9) 0.4164(9)
O3F O 0.7238(11) 0.9289(9) 0.5836(9)
O4D O 0.7349(10) 1.1164(8) 0.5348(8)
O4F O 0.7349(10) 0.8836(8) 0.4652(8)
O5B_2 O 0.8687(6) 0.9663(5) 0.3647(5)
O6C O 1.1022(9) 0.9340(7) 0.7772(6)
O7D O 1.1431(7) 0.7524(7) 0.7242(6)
O7G O 0.8569(7) 0.7524(7) 0.7758(6)
O8D O 1.0678(10) 0.7226(8) 0.8329(7)
O8G O 0.9322(10) 0.7226(8) 0.6671(7)
loop_
_geom_bond_atom_site_label_1
_geom_bond_atom_site_label_2
_geom_bond_site_symmetry_1
_geom_bond_site_symmetry_2
Gd1 O1 1_555 1_555
Gd2 O2 1_555 1_555
O1 C3 1_555 1_555
O2 C3 1_555 1_555
O3 C4 1_555 1_555
O4 C4 1_555 1_555
C1 H1 1_555 1_555
H2 C1 1_555 1_555
O5 Gd1 1_555 1_555
O6 Gd2 1_555 1_555
O7 C12 1_555 1_555
O8 C12 1_555 1_555
C2 H3 1_555 1_555
H4 C2 1_555 1_555
C3 C5 1_555 1_555
C4 C7 1_555 1_555
C5 C6 1_555 1_555
C6 H5 1_555 1_555
C7 C6 1_555 1_555
C8 C7 1_555 1_555
H6 C8 1_555 1_555
C9 C1 1_555 1_555
C10 C5 1_555 1_555
H7 C10 1_555 1_555
C11 O5 1_555 1_555
C12 C15 1_555 1_555
C13 C11 1_555 1_555
C14 C13 1_555 1_555
H8 C14 1_555 1_555
C15 C14 1_555 1_555
C16 C15 1_555 1_555
H9 C16 1_555 1_555
C17 C2 1_555 1_555
C18 C13 1_555 1_555
H10 C18 1_555 1_555
O9 H11 1_555 1_555
H12 O9 1_555 1_555
O10 H13 1_555 1_555
O11 H14 1_555 1_555
N1 H15 1_555 1_555
H16 N1 1_555 1_555
C19 N1 1_555 1_555
H17 C19 1_555 1_555
H18 C19 1_555 1_555
H19 C19 1_555 1_555
C20 N1 1_555 1_555
H20 C20 1_555 1_555
H21 C20 1_555 1_555
H22 C20 1_555 1_555
O1C C3C 1_555 1_555
O2C C3C 1_555 1_555
O3C C4C 1_555 1_555
O4C C4C 1_555 1_555
C1C C1 1_555 1_555
H1C C1C 1_555 1_555
H2C C1C 1_555 1_555
C3C C5C 1_555 1_555
C4C C7C 1_555 1_555
C5C C6C 1_555 1_555
C6C H5C 1_555 1_555
C7C C6C 1_555 1_555
C8C C7C 1_555 1_555
H6C C8C 1_555 1_555
C9C C1C 1_555 1_555
C10C C5C 1_555 1_555
H7C C10C 1_555 1_555
O5B C11B 1_555 1_555
O6B C11B 1_555 1_555
O7B C12B 1_555 1_555
O8B C12B 1_555 1_555
C2B C2 1_555 1_555
H3B C2B 1_555 1_555
H4B C2B 1_555 1_555
C11B C13B 1_555 1_555
C12B C15B 1_555 1_555
C13B C14B 1_555 1_555
C14B H8B 1_555 1_555
C15B C14B 1_555 1_555
C16B C15B 1_555 1_555
H9B C16B 1_555 1_555
C17B C2B 1_555 1_555
C18B C13B 1_555 1_555
H10B C18B 1_555 1_555
Gd1_2 O5B 1_555 1_555
Gd1A O1C 1_555 1_555
Gd1D O3 1_555 1_555
Gd1E O3C 1_555 1_555
Gd2_2 O2C 1_555 1_555
Gd2A O6B 1_555 1_555
Gd2D O7 1_555 1_555
Gd2E O7B 1_555 1_555
O1B Gd1 1_555 1_555
O2C_2 Gd2 1_555 1_555
O3D Gd1 1_555 1_555
O3F Gd1 1_555 1_555
O4D Gd1 1_555 1_555
O4F Gd1 1_555 1_555
O5B_2 Gd1 1_555 1_555
O6C Gd2 1_555 1_555
O7D Gd2 1_555 1_555
O7G Gd2 1_555 1_555
O8D Gd2 1_555 1_555
O8G Gd2 1_555 1_555
H13B O10 1_555 1_555
H14C O11 1_555 1_555
O4 Gd1D 1_555 1_555
O6 C11 1_555 1_555
O8 Gd2D 1_555 1_555
C8 C9 1_555 1_555
C9 C10 1_555 1_555
C16 C17 1_555 1_555
C17 C18 1_555 1_555
O4C Gd1E 1_555 1_555
C8C C9C 1_555 1_555
C9C C10C 1_555 1_555
O8B Gd2E 1_555 1_555
C16B C17B 1_555 1_555
C17B C18B 1_555 1_555

#END
