
#######################################################################
#
#                 Cambridge Crystallographic Data Centre
#                                CCDC 
#
#######################################################################
#
# If this CIF has been generated from an entry in the Cambridge 
# Structural Database, then it will include bibliographic, chemical, 
# crystal, experimental, refinement or atomic coordinate data resulting 
# from the CCDC's data processing and validation procedures.
#
#######################################################################

data_TAFBIN
_chemical_formula_moiety         '(C12 H16 Cd1 N4 O6)n'
_symmetry_cell_setting           tetragonal
_symmetry_space_group_name_H-M   'I -4 2 d'
_symmetry_Int_Tables_number      122
_space_group_name_Hall           'I -4 2bw'
loop_
_symmetry_equiv_pos_site_id
_symmetry_equiv_pos_as_xyz
1 x,y,z
2 -x,-y,z
3 y,-x,-z
4 -y,x,-z
5 1/2-x,y,3/4-z
6 1/2+x,-y,3/4-z
7 1/2-y,-x,3/4+z
8 1/2+y,x,3/4+z
9 1/2+x,1/2+y,1/2+z
10 1/2-x,1/2-y,1/2+z
11 1/2+y,1/2-x,1/2-z
12 1/2-y,1/2+x,1/2-z
13 -x,1/2+y,1/4-z
14 x,1/2-y,1/4-z
15 -y,1/2-x,1/4+z
16 y,1/2+x,1/4+z
_cell_length_a                   16.0070(4)
_cell_length_b                   16.0070(4)
_cell_length_c                   24.1560(10)
_cell_angle_alpha                90
_cell_angle_beta                 90
_cell_angle_gamma                90
_cell_volume                     6189.35
loop_
_atom_site_label
_atom_site_type_symbol
_atom_site_fract_x
_atom_site_fract_y
_atom_site_fract_z
_atom_site_U_iso_or_equiv
_atom_site_thermal_displace_type
Cd1 Cd 0.175745(17) 0.374124(17) 0.090540(10) 0.0307 Uani
N1 N 0.1601(2) 0.6333(2) 0.32132(12) 0.0324 Uani
N2 N 0.1746(2) 0.63387(18) 0.23028(12) 0.0289 Uani
O1 O 0.2776(2) 0.4743(2) 0.10947(17) 0.0634 Uani
O2 O 0.1486(2) 0.5162(2) 0.11763(14) 0.0480 Uani
O3 O -0.0431(2) 0.8488(2) 0.18452(14) 0.0545 Uani
O4 O -0.1110(2) 0.9088(3) 0.25136(14) 0.0640 Uani
C1 C 0.1829(2) 0.6783(2) 0.27777(14) 0.0275 Uani
C2 C 0.1361(3) 0.5566(2) 0.30062(16) 0.0351 Uani
H1 H 0.1176 0.5118 0.3218 0.0420 Uiso
C3 C 0.1435(3) 0.5567(2) 0.24500(16) 0.0344 Uani
H2 H 0.1303 0.5131 0.2212 0.0410 Uiso
C4 C 0.1936(3) 0.6645(2) 0.17420(15) 0.0360 Uani
H3 H 0.2146 0.7212 0.1768 0.0430 Uiso
H4 H 0.1423 0.6661 0.1529 0.0430 Uiso
C5 C 0.2568(3) 0.6117(2) 0.14357(16) 0.0361 Uani
H5 H 0.3037 0.6012 0.1680 0.0430 Uiso
H6 H 0.2776 0.6436 0.1123 0.0430 Uiso
C6 C 0.2245(3) 0.5284(3) 0.12241(16) 0.0399 Uani
N3 N 0.2885(2) 0.7772(2) 0.30974(13) 0.0329 Uani
N4 N 0.1828(2) 0.8334(2) 0.26461(13) 0.0341 Uani
C7 C 0.2182(2) 0.7619(2) 0.28289(15) 0.0283 Uani
C8 C 0.2987(3) 0.8621(3) 0.3082(2) 0.0433 Uani
H7 H 0.3430 0.8913 0.3239 0.0520 Uiso
C9 C 0.2340(3) 0.8971(3) 0.2802(2) 0.0460 Uani
H8 H 0.2262 0.9536 0.2731 0.0550 Uiso
C10 C 0.1044(3) 0.8403(3) 0.23355(17) 0.0391 Uani
H9 H 0.0855 0.7846 0.2239 0.0470 Uiso
H10 H 0.1152 0.8701 0.1993 0.0470 Uiso
C11 C 0.0359(3) 0.8842(3) 0.26425(18) 0.0440 Uani
H11 H 0.0516 0.9419 0.2705 0.0530 Uiso
H12 H 0.0280 0.8579 0.3000 0.0530 Uiso
C12 C -0.0459(3) 0.8810(3) 0.23157(18) 0.0420 Uani
Cd1K Cd 0.125876(17) 0.675745(17) 0.409460(10) 0.0307 Uani
Cd1L Cd -0.175745(17) 0.874124(17) 0.159460(10) 0.0307 Uani
Cd1O Cd 0.374124(17) 0.675745(17) 0.340540(10) 0.0307 Uani
N1J N 0.1333(2) 0.3399(2) 0.17868(12) 0.0324 Uani
O3L O 0.0431(2) 0.3488(2) 0.06548(14) 0.0545 Uani
O4L O 0.1110(2) 0.4088(3) -0.00136(14) 0.0640 Uani
N3G N 0.2772(2) 0.2885(2) 0.05974(13) 0.0329 Uani
O5 O 0.7335(4) 0.8879(4) 0.3170(2) 0.1027 Uani
H13 H 0.7670 0.9078 0.2884 0.1230 Uiso
H14 H 0.7325 0.9247 0.3455 0.1230 Uiso
O6 O 0.5584(8) 0.9338(7) 0.3126(5) 0.2867 Uani
H15 H 0.5211 0.9735 0.3146 0.3440 Uiso
H16 H 0.6059 0.9196 0.3152 0.3440 Uiso
loop_
_atom_site_aniso_label
_atom_site_aniso_U_11
_atom_site_aniso_U_22
_atom_site_aniso_U_33
_atom_site_aniso_U_23
_atom_site_aniso_U_13
_atom_site_aniso_U_12
Cd1 0.03041(14) 0.03267(14) 0.02916(12) -0.00614(11) -0.00193(11) 0.00076(12)
N1 0.0384(17) 0.0302(15) 0.0285(14) 0.0003(13) -0.0010(12) 0.0000(14)
N2 0.0363(15) 0.0259(14) 0.0244(13) -0.0023(12) -0.0026(12) 0.0005(14)
O1 0.054(2) 0.0471(19) 0.089(3) -0.0312(19) 0.0067(19) -0.0015(17)
O2 0.052(2) 0.0411(17) 0.0508(17) -0.0094(14) -0.0123(15) -0.0048(14)
O3 0.0464(18) 0.059(2) 0.058(2) -0.0107(16) -0.0263(16) 0.0109(16)
O4 0.0373(18) 0.106(3) 0.0488(18) 0.0072(19) -0.0003(14) 0.011(2)
C1 0.0284(16) 0.0271(16) 0.0269(15) -0.0006(14) -0.0037(14) 0.0022(16)
C2 0.040(2) 0.0282(18) 0.037(2) 0.0028(15) 0.0032(17) -0.0084(17)
C3 0.042(2) 0.0270(18) 0.0343(19) -0.0045(15) -0.0004(16) -0.0063(16)
C4 0.049(2) 0.0285(18) 0.0305(19) 0.0003(15) -0.0003(16) -0.0004(17)
C5 0.046(2) 0.032(2) 0.0304(18) -0.0023(15) 0.0007(16) -0.0084(17)
C6 0.058(3) 0.034(2) 0.0277(18) -0.0050(16) 0.0019(18) -0.002(2)
N3 0.0340(16) 0.0276(16) 0.0372(17) 0.0015(13) -0.0075(14) 0.0005(13)
N4 0.0357(17) 0.0289(15) 0.0378(16) -0.0020(13) -0.0102(14) 0.0032(15)
C7 0.0293(18) 0.0290(18) 0.0265(17) -0.0007(14) -0.0011(14) 0.0016(15)
C8 0.039(2) 0.031(2) 0.060(3) 0.0002(19) -0.0136(19) -0.0076(17)
C9 0.048(2) 0.031(2) 0.059(3) 0.0046(19) -0.012(2) -0.0038(19)
C10 0.041(2) 0.041(2) 0.0352(19) -0.0019(17) -0.0127(17) 0.0063(17)
C11 0.035(2) 0.058(3) 0.039(2) -0.003(2) -0.0067(17) 0.007(2)
C12 0.036(2) 0.047(2) 0.043(2) 0.011(2) -0.0075(17) 0.0004(19)
Cd1K 0.03267 0.03041 0.02916 0.00193 -0.00614 -0.00076
Cd1L 0.03041 0.03267 0.02916 0.00614 -0.00193 -0.00076
Cd1O 0.03267 0.03041 0.02916 -0.00193 -0.00614 0.00076
N1J 0.0302 0.0384 0.0285 -0.001 -0.0003 0
O3L 0.0464 0.059 0.058 0.0107 -0.0263 -0.0109
O4L 0.0373 0.106 0.0488 -0.0072 -0.0003 -0.011
N3G 0.0276 0.034 0.0372 -0.0075 0.0015 0.0005
O5 0.111(4) 0.101(4) 0.096(3) 0.011(3) 0.026(3) -0.013(4)
O6 0.284(14) 0.163(9) 0.413(19) 0.061(11) -0.068(14) 0.098(9)
loop_
_geom_bond_atom_site_label_1
_geom_bond_atom_site_label_2
_geom_bond_site_symmetry_1
_geom_bond_site_symmetry_2
Cd1 O1 1_555 1_555
N1 C1 1_555 1_555
N2 C1 1_555 1_555
O1 C6 1_555 1_555
O2 Cd1 1_555 1_555
O3 C12 1_555 1_555
O4 C12 1_555 1_555
C1 C7 1_555 1_555
C2 N1 1_555 1_555
H1 C2 1_555 1_555
C3 N2 1_555 1_555
H2 C3 1_555 1_555
C4 N2 1_555 1_555
H3 C4 1_555 1_555
H4 C4 1_555 1_555
C5 C4 1_555 1_555
H5 C5 1_555 1_555
H6 C5 1_555 1_555
C6 O2 1_555 1_555
N3 C7 1_555 1_555
N4 C7 1_555 1_555
C8 N3 1_555 1_555
H7 C8 1_555 1_555
C9 N4 1_555 1_555
H8 C9 1_555 1_555
C10 N4 1_555 1_555
H9 C10 1_555 1_555
H10 C10 1_555 1_555
C11 C10 1_555 1_555
H11 C11 1_555 1_555
H12 C11 1_555 1_555
C12 C11 1_555 1_555
O5 H13 1_555 1_555
H14 O5 1_555 1_555
O6 H15 1_555 1_555
H16 O6 1_555 1_555
Cd1K N1 1_555 1_555
Cd1L O3 1_555 1_555
Cd1O N3 1_555 1_555
N1J Cd1 1_555 1_555
O3L Cd1 1_555 1_555
O4L Cd1 1_555 1_555
N3G Cd1 1_555 1_555
O4 Cd1L 1_555 1_555
C2 C3 1_555 1_555
C5 C6 1_555 1_555
C8 C9 1_555 1_555

#END
