
#######################################################################
#
#                 Cambridge Crystallographic Data Centre
#                                CCDC 
#
#######################################################################
#
# If this CIF has been generated from an entry in the Cambridge 
# Structural Database, then it will include bibliographic, chemical, 
# crystal, experimental, refinement or atomic coordinate data resulting 
# from the CCDC's data processing and validation procedures.
#
#######################################################################

data_RULBOQ
_chemical_formula_moiety         'C17 H19 Ag2 N8 O10 S3'
_symmetry_cell_setting           orthorhombic
_symmetry_space_group_name_H-M   'C m c 21'
_symmetry_Int_Tables_number      36
_space_group_name_Hall           'C 2c -2'
loop_
_symmetry_equiv_pos_site_id
_symmetry_equiv_pos_as_xyz
1 x,y,z
2 -x,-y,1/2+z
3 -x,y,z
4 x,-y,1/2+z
5 1/2+x,1/2+y,z
6 1/2-x,1/2-y,1/2+z
7 1/2-x,1/2+y,z
8 1/2+x,1/2-y,1/2+z
_cell_length_a                   20.916(5)
_cell_length_b                   12.296(5)
_cell_length_c                   11.204(3)
_cell_angle_alpha                90
_cell_angle_beta                 90
_cell_angle_gamma                90
_cell_volume                     2881.48
loop_
_atom_site_label
_atom_site_type_symbol
_atom_site_fract_x
_atom_site_fract_y
_atom_site_fract_z
_atom_site_U_iso_or_equiv
_atom_site_thermal_displace_type
Ag1 Ag 0.223535(19) 0.63250(3) 0.75593(5) 0.0283 Uani
Ag2 Ag 0.5000 0.83056(6) 0.63046(7) 0.0397 Uani
C1 C 0.5000 0.5190(8) 0.8736(11) 0.0643 Uani
H3 H 0.5000 0.4459 0.8523 0.0780 Uiso
C2 C 0.4438(4) 0.5749(6) 0.8898(7) 0.0540 Uani
C3 C 0.4413(3) 0.6838(6) 0.9189(6) 0.0393 Uani
C4 C 0.5000 0.7378(6) 0.9317(7) 0.0217 Uani
C5 C 0.3554(2) 0.7542(4) 0.6672(5) 0.0207 Uani
H4 H 0.3675 0.6862 0.6295 0.0250 Uiso
H5 H 0.3664 0.7495 0.7511 0.0250 Uiso
C6 C 0.2690(2) 0.7771(4) 0.5262(5) 0.0217 Uani
H6 H 0.2808 0.7096 0.4871 0.0260 Uiso
H7 H 0.2233 0.7871 0.5169 0.0260 Uiso
C7 C 0.3737(3) 0.8516(4) 0.4830(5) 0.0210 Uani
H8 H 0.3968 0.9109 0.4456 0.0250 Uiso
H9 H 0.3859 0.7846 0.4435 0.0250 Uiso
C8 C 0.2139(2) 0.5283(4) 1.0287(5) 0.0220 Uani
H10 H 0.1909 0.4684 0.9923 0.0260 Uiso
H11 H 0.2593 0.5150 1.0188 0.0260 Uiso
C9 C 0.2665(2) 0.8746(4) 0.7125(6) 0.0217 Uani
H12 H 0.2759 0.8710 0.7972 0.0270 Uiso
H13 H 0.2209 0.8860 0.7032 0.0270 Uiso
C10 C 0.3723(2) 0.9476(4) 0.6705(5) 0.0217 Uani
H14 H 0.3836 0.9442 0.7543 0.0260 Uiso
H15 H 0.3953 1.0080 0.6350 0.0260 Uiso
N1 N 0.39153(19) 0.8454(4) 0.6113(5) 0.0218 Uani
N2 N 0.28490(18) 0.7700(4) 0.6549(4) 0.0201 Uani
N3 N 0.1966(2) 0.6305(3) 0.9680(4) 0.0207 Uani
N4 N 0.1984(2) 0.4668(3) 0.6587(4) 0.0186 Uani
O2 O 0.3745(3) 0.4176(7) 0.9226(9) 0.1000 Uani
O3 O 0.3924(5) 0.4614(12) 0.6986(17) 0.0983 Uani
O4 O 0.3287(2) 0.5699(4) 0.8590(6) 0.0550 Uani
O5 O 0.3897(4) 0.7556(8) 0.9549(8) 0.0330 Uani
O6 O 0.5000 0.9319(5) 0.8426(6) 0.0447 Uani
O7 O 0.5000 0.9176(7) 1.0606(7) 0.0730 Uani
O8 O 0.4145(4) 0.8869(6) 0.9554(8) 0.0323 Uani
S1 S 0.38313(13) 0.4896(3) 0.8430(3) 0.0540 Uani
S2 S 0.48269(12) 0.8793(2) 0.9500(2) 0.0238 Uani
O9 O 0.5000 0.6206(8) 0.6036(11) 0.0860 Uani
O10 O 0.1179(3) 0.7252(5) 0.6919(5) 0.0467 Uani
H16 H 0.072(2) 0.728(8) 0.678(6) 0.0890 Uiso
H17 H 0.126(4) 0.725(9) 0.611(5) 0.0890 Uiso
H18 H 0.528(4) 0.577(7) 0.653(8) 0.0890 Uiso
C2B C 0.5562(4) 0.5749(6) 0.8898(7) 0.0540 Uani
C3B C 0.5587(3) 0.6838(6) 0.9189(6) 0.0393 Uani
C6E C 0.2310(2) 0.7229(4) 1.0262(5) 0.0217 Uani
C7E C 0.1263(3) 0.6484(4) 0.9830(5) 0.0210 Uani
C8C C 0.2139(2) 0.4717(4) 0.5287(5) 0.0220 Uani
C9F C 0.2335(2) 0.3746(4) 0.7125(6) 0.0217 Uani
C10F C 0.1277(2) 0.4476(4) 0.6705(5) 0.0217 Uani
N1B N 0.60847(19) 0.8454(4) 0.6113(5) 0.0218 Uani
N3E N 0.3034(2) 0.8695(3) 0.4680(4) 0.0207 Uani
N4C N 0.1984(2) 0.5332(3) 1.1587(4) 0.0186 Uani
N4F N 0.3016(2) 0.9668(3) 0.6587(4) 0.0186 Uani
S2B S 0.51731(12) 0.8793(2) 0.9500(2) 0.0238 Uani
H18B H 0.472(4) 0.577(7) 0.653(8) 0.0890 Uiso
O1 O 0.0000 0.6690(7) 0.8200(9) 0.0597 Uani
H1 H 0.0000 0.735(4) 0.813(8) 0.0890 Uiso
H2 H 0.0000 0.626(5) 0.762(7) 0.0900 Uiso
loop_
_atom_site_aniso_label
_atom_site_aniso_U_11
_atom_site_aniso_U_22
_atom_site_aniso_U_33
_atom_site_aniso_U_23
_atom_site_aniso_U_13
_atom_site_aniso_U_12
Ag1 0.0358(2) 0.02561(18) 0.02336(18) -0.0016(2) -0.0008(2) -0.00714(16)
Ag2 0.0151 0.0517 0.0523 -0.0072 0 0
C1 0.139 0.02 0.034 0.004 0 0
C2 0.068 0.041 0.053 0.025 -0.026 -0.04
C3 0.028 0.057 0.033 0.022 -0.01 -0.015
C4 0.022 0.016 0.027 0.001 0 0
C5 0.021 0.017 0.024 0.0036 -0.001 0.0001
C6 0.023 0.021 0.021 -0.0009 -0.006 -0.0024
C7 0.026 0.021 0.016 0 0.005 -0.0014
C8 0.026 0.02 0.02 -0.0004 0.006 0.0043
C9 0.021 0.024 0.02 0.0004 0.002 0.001
C10 0.02 0.024 0.021 -0.004 -0.002 0
N1 0.0193 0.023 0.023 -0.0058 -0.0011 -0.0013
N2 0.0194 0.023 0.018 -0.0003 0.0048 -0.0025
N3 0.027 0.022 0.013 -0.0012 0.0003 -0.0002
N4 0.0198(18) 0.019(2) 0.017(2) -0.0039(15) -0.0015(17) 0.0004(15)
O2 0.065 0.085 0.15 0.026 -0.017 -0.058
O3 0.04 0.087 0.168 -0.086 0.038 -0.03
O4 0.024 0.062 0.079 0.027 -0.011 -0.016
O5 0.023 0.048 0.028 -0.007 0.004 0.01
O6 0.072 0.025 0.037 0.006 0 0
O7 0.145 0.04 0.034 -0.015 0 0
O8 0.037 0.028 0.032 -0.009 -0.004 0.011
S1 0.031 0.0511 0.08 0.0202 -0.0111 -0.0129
S2 0.0263 0.0233 0.0219 -0.0054 0.0004 -0.0013
O9 0.114 0.067 0.077 -0.018 0 0
O10 0.048(3) 0.052(3) 0.040(3) -0.001(2) -0.012(2) 0.001(2)
C2B 0.068 0.041 0.053 0.025 0.026 0.04
C3B 0.028 0.057 0.033 0.022 0.01 0.015
C6E 0.023 0.021 0.021 0.0009 0.006 -0.0024
C7E 0.026 0.021 0.016 0 -0.005 -0.0014
C8C 0.026(3) 0.020(3) 0.020(3) 0.0004(18) 0.006(2) -0.0043(19)
C9F 0.021(2) 0.024(3) 0.020(2) 0.0004(19) -0.002(2) -0.0010(19)
C10F 0.020(2) 0.024(3) 0.021(2) -0.004(2) 0.002(2) 0.0000(19)
N1B 0.0193 0.023 0.023 -0.0058 0.0011 0.0013
N3E 0.027 0.022 0.013 0.0012 -0.0003 -0.0002
N4C 0.0198 0.019 0.017 0.0039 -0.0015 -0.0004
N4F 0.0198 0.019 0.017 -0.0039 0.0015 -0.0004
S2B 0.0263 0.0233 0.0219 -0.0054 -0.0004 0.0013
O1 0.054(5) 0.064(6) 0.061(6) -0.002(5) 0.000 0.000
loop_
_geom_bond_atom_site_label_1
_geom_bond_atom_site_label_2
_geom_bond_site_symmetry_1
_geom_bond_site_symmetry_2
O1 H1 1_555 1_555
H2 O1 1_555 1_555
Ag1 N2 1_555 1_555
Ag2 N1 1_555 1_555
C1 H3 1_555 1_555
C2 C1 1_555 1_555
C3 C2 1_555 1_555
C4 C3 1_555 1_555
C5 H4 1_555 1_555
H5 C5 1_555 1_555
C6 H6 1_555 1_555
H7 C6 1_555 1_555
C7 H8 1_555 1_555
H9 C7 1_555 1_555
C8 H10 1_555 1_555
H11 C8 1_555 1_555
C9 H12 1_555 1_555
H13 C9 1_555 1_555
C10 H14 1_555 1_555
H15 C10 1_555 1_555
N1 C5 1_555 1_555
N2 C5 1_555 1_555
N3 Ag1 1_555 1_555
N4 Ag1 1_555 1_555
O2 S1 1_555 1_555
O3 S1 1_555 1_555
O4 Ag1 1_555 1_555
O5 C3 1_555 1_555
O6 Ag2 1_555 1_555
O7 S2 1_555 1_555
O8 O5 1_555 1_555
S1 C2 1_555 1_555
S2 C4 1_555 1_555
O9 Ag2 1_555 1_555
O10 Ag1 1_555 1_555
H16 O10 1_555 1_555
H17 O10 1_555 1_555
H18 O9 1_555 1_555
C2B C1 1_555 1_555
C3B C4 1_555 1_555
C6E N3 1_555 1_555
C7E N3 1_555 1_555
C8C N4 1_555 1_555
C9F N4 1_555 1_555
C10F N4 1_555 1_555
N1B Ag2 1_555 1_555
N3E C6 1_555 1_555
N4C C8 1_555 1_555
N4F C9 1_555 1_555
S2B C4 1_555 1_555
H18B O9 1_555 1_555
C6 N2 1_555 1_555
C7 N1 1_555 1_555
C7 N3E 1_555 1_555
C8 N3 1_555 1_555
C9 N2 1_555 1_555
C10 N1 1_555 1_555
C10 N4F 1_555 1_555
O4 S1 1_555 1_555
O6 S2 1_555 1_555
O6 S2B 1_555 1_555
O7 S2B 1_555 1_555
O8 S2 1_555 1_555
S2 S2B 1_555 1_555
C2B C3B 1_555 1_555

#END
