
#######################################################################
#
#                 Cambridge Crystallographic Data Centre
#                                CCDC 
#
#######################################################################
#
# If this CIF has been generated from an entry in the Cambridge 
# Structural Database, then it will include bibliographic, chemical, 
# crystal, experimental, refinement or atomic coordinate data resulting 
# from the CCDC's data processing and validation procedures.
#
#######################################################################

data_QANSUV
_chemical_formula_moiety         '(C84 H66 Cl3 Cu18 N36 O39)n'
_symmetry_cell_setting           rhombohedral
_symmetry_space_group_name_H-M   'R -3 c'
_symmetry_Int_Tables_number      167
_space_group_name_Hall           '-R 3 2"c'
loop_
_symmetry_equiv_pos_site_id
_symmetry_equiv_pos_as_xyz
1 x,y,z
2 -y,x-y,z
3 -x+y,-x,z
4 y,x,1/2-z
5 x-y,-y,1/2-z
6 -x,-x+y,1/2-z
7 2/3+x,1/3+y,1/3+z
8 2/3-y,1/3+x-y,1/3+z
9 2/3-x+y,1/3-x,1/3+z
10 2/3+y,1/3+x,5/6-z
11 2/3+x-y,1/3-y,5/6-z
12 2/3-x,1/3-x+y,5/6-z
13 1/3+x,2/3+y,2/3+z
14 1/3-y,2/3+x-y,2/3+z
15 1/3-x+y,2/3-x,2/3+z
16 1/3+y,2/3+x,1/6-z
17 1/3+x-y,2/3-y,1/6-z
18 1/3-x,2/3-x+y,1/6-z
19 -x,-y,-z
20 y,-x+y,-z
21 x-y,x,-z
22 -y,-x,1/2+z
23 -x+y,y,1/2+z
24 x,x-y,1/2+z
25 1/3-x,2/3-y,2/3-z
26 1/3+y,2/3-x+y,2/3-z
27 1/3+x-y,2/3+x,2/3-z
28 1/3-y,2/3-x,1/6+z
29 1/3-x+y,2/3+y,1/6+z
30 1/3+x,2/3+x-y,1/6+z
31 2/3-x,1/3-y,1/3-z
32 2/3+y,1/3-x+y,1/3-z
33 2/3+x-y,1/3+x,1/3-z
34 2/3-y,1/3-x,5/6+z
35 2/3-x+y,1/3+y,5/6+z
36 2/3+x,1/3+x-y,5/6+z
_cell_length_a                   23.9647(10)
_cell_length_b                   23.9647(10)
_cell_length_c                   40.979(3)
_cell_angle_alpha                90
_cell_angle_beta                 90
_cell_angle_gamma                120
_cell_volume                     20381.5
loop_
_atom_site_label
_atom_site_type_symbol
_atom_site_fract_x
_atom_site_fract_y
_atom_site_fract_z
Cu1 Cu 0.69691(4) -0.04880(4) 0.28268(2)
Cu2 Cu 0.76632(4) 0.20178(6) 0.23235(2)
Cu3 Cu 0.6666 -0.1666 0.3334
Cl1 Cl 0.7999(2) 0.0000 0.2500
N1 N 0.6936(4) 0.0333(3) 0.28438(14)
N2 N 0.7202(4) 0.0734(3) 0.25935(14)
N3 N 0.7218(3) 0.1289(3) 0.26416(14)
N4 N 0.7796(4) -0.0654(3) 0.36568(14)
N5 N 0.7356(3) -0.0797(3) 0.34300(14)
N6 N 0.7476(4) -0.0299(3) 0.32399(15)
O1 O 0.5604(4) 0.0112(3) 0.39245(17)
H1 H 0.5601 -0.0179 0.3805
O2 O 0.5940(4) 0.1146(3) 0.39922(13)
O3 O 1.0056(3) 0.1166(3) 0.40214(16)
O4 O 1.0212(3) 0.1962(3) 0.36968(14)
O5 O 0.6652(3) -0.1401(2) 0.28863(12)
H2 H 0.6900 -0.1489 0.2778
O6 O 0.7444(6) -0.1994(5) 0.3124(2)
H3 H 0.7805 -0.1765 0.3218
H4 H 0.7500 -0.1912 0.2921
C1 C 0.8830(6) 0.0370(4) 0.37733(19)
H5 H 0.8955 0.0219 0.3952
C2 C 0.9207(6) 0.0978(4) 0.3657(2)
C3 C 0.8993(6) 0.1222(4) 0.3397(2)
H6 H 0.9251 0.1648 0.3332
C4 C 0.8418(6) 0.0847(4) 0.3240(2)
H7 H 0.8284 0.1008 0.3069
C5 C 0.8046(6) 0.0212(4) 0.33485(18)
C6 C 0.8245(4) -0.0019(3) 0.36129(19)
C7 C 0.9866(4) 0.1390(4) 0.3805(2)
C8 C 0.6422(6) 0.0433(4) 0.33617(18)
H8 H 0.6284 0.0023 0.3445
C9 C 0.6304(6) 0.0866(4) 0.35228(19)
C10 C 0.6509(6) 0.1487(4) 0.3395(2)
H9 H 0.6426 0.1768 0.3514
C11 C 0.6821(6) 0.1689(4) 0.3105(2)
H10 H 0.6950 0.2098 0.3023
C12 C 0.6940(6) 0.1246(4) 0.29348(18)
C13 C 0.6757(6) 0.0636(4) 0.30663(18)
C14 C 0.5920(6) 0.0682(4) 0.3840(2)
Cu1D Cu 0.74571(6) 0.04880(4) 0.21732(2)
Cu1Z Cu 1.07904(6) 0.36358(4) 0.38399(2)
Cu1GA Cu 0.71547(4) -0.36358(4) 0.11601(2)
Cu1BA Cu 0.58762(6) -0.38213(4) 0.44935(2)
Cu1I Cu 0.61787(4) 0.03024(4) 0.55065(2)
Cu1HA Cu 0.92096(6) 0.28453(4) 0.11601(2)
Cu1CA Cu 1.03024(4) 0.41238(6) 0.44935(2)
Cu1IA Cu 0.36358(4) 0.07904(6) 0.11601(2)
Cu1X Cu 0.63642(4) -0.28453(4) 0.38399(2)
Cu1EA Cu 0.61787(4) -0.41238(6) 0.05065(2)
Cu1Y Cu 0.28453(4) -0.07904(6) 0.38399(2)
Cu1G Cu 0.71547(4) 0.07904(6) 0.61601(2)
Cu1AA Cu 0.38213(4) -0.03024(4) 0.44935(2)
Cu1FA Cu 0.41238(6) 0.03024(4) 0.05065(2)
Cu2D Cu 0.56454(7) -0.20178(6) 0.26765(2)
Cu2BA Cu 0.76879(7) -0.13155(6) 0.39902(2)
Cu2Y Cu 0.53511(6) 0.10213(7) 0.43432(2)
Cu2IA Cu 0.43299(4) -0.10213(7) 0.06568(2)
Cu2CA Cu 1.09965(4) 0.23121(7) 0.39902(2)
Cu2A Cu 0.79822(6) 0.56454(7) 0.23235(2)
Cu2Z Cu 0.89787(7) 0.43299(4) 0.43432(2)
Cu2B Cu 0.43546(7) 0.23368(4) 0.23235(2)
Cu2E Cu 0.23368(4) -0.56454(7) 0.26765(2)
Cu2DA Cu 0.90035(4) 0.13155(6) 0.10098(2)
Cu2EA Cu 0.86845(6) -0.23121(7) 0.10098(2)
Cu2GA Cu 0.46489(6) -0.43299(4) 0.06568(2)
Cu2C Cu 0.20178(6) -0.23368(4) 0.26765(2)
Cu2K Cu 0.90035(4) -0.23121(7) 0.60098(2)
Cu2I Cu 0.86845(6) 0.09965(4) 0.60098(2)
Cu3HA Cu 0.8335 0.1667 0.1667
Cu3IA Cu 0.3333 0.1665 0.1667
Cu3Y Cu 0.1667 -0.1665 0.3333
Cu3I Cu 0.5001 -0.0001 0.4999
Cu3N Cu 0.5001 0.0001 0.0001
Cu3B Cu 1.1668 0.3334 0.3334
Cl1Z Cl 1.1332(2) 0.4666(2) 0.4167
Cl1EA Cl 0.6667 -0.4666(2) 0.0833
Cl1X Cl 0.5334(2) -0.3333 0.4167
Cl1G Cl 0.6667 0.1332(2) 0.5833
N1D N 0.6603(5) -0.0333(3) 0.21562(14)
N1Z N 0.9936(5) 0.3603(4) 0.38229(14)
N1GA N 0.6334(3) -0.3603(4) 0.11771(14)
N1BA N 0.6730(5) -0.3000(3) 0.45105(14)
N1I N 0.7000(3) 0.0269(4) 0.54895(14)
N2D N 0.6468(5) -0.0734(3) 0.24065(14)
N2Z N 0.9801(5) 0.3869(4) 0.40732(14)
N2GA N 0.5933(3) -0.3869(4) 0.09268(14)
N2BA N 0.6865(5) -0.2599(3) 0.42602(14)
N2I N 0.7401(3) 0.0535(4) 0.57398(14)
N2CA N 1.0535(4) 0.3135(5) 0.42602(14)
N2EA N 0.7401(3) -0.3135(5) 0.07398(14)
N2X N 0.6131(4) -0.4067(3) 0.40732(14)
N2G N 0.5933(3) -0.0199(5) 0.59268(14)
N3D N 0.5929(4) -0.1289(3) 0.23584(14)
N3Z N 0.9262(4) 0.3885(3) 0.40251(14)
N3GA N 0.5378(3) -0.3885(3) 0.09749(14)
N3BA N 0.7404(4) -0.2044(3) 0.43083(14)
N3I N 0.7956(3) 0.0551(3) 0.56917(14)
N3Y N 0.4622(3) 0.0738(4) 0.40251(14)
N3IA N 0.3885(3) -0.0738(4) 0.09749(14)
N3CA N 1.0551(3) 0.2596(4) 0.43083(14)
N4HA N 0.8217(5) 0.2679(3) 0.19901(14)
N4IA N 0.4463(4) 0.1783(5) 0.19901(14)
N4X N 0.5537(4) -0.2679(3) 0.30099(14)
N4D N 0.8450(5) 0.0654(3) 0.13432(14)
N4Y N 0.2679(3) -0.1783(5) 0.30099(14)
N4I N 0.6013(3) 0.1129(4) 0.46765(14)
N4N N 0.4883(5) -0.1129(4) 0.03235(14)
N4B N 1.1550(5) 0.2204(4) 0.36568(14)
N5HA N 0.8514(4) 0.2536(3) 0.17633(14)
N5IA N 0.4023(3) 0.1486(4) 0.17633(14)
N5X N 0.5977(3) -0.2536(3) 0.32367(14)
N5D N 0.8153(4) 0.0797(3) 0.15700(14)
N5Y N 0.2536(3) -0.1486(4) 0.32367(14)
N5E N 0.2644(3) 0.1847(4) 0.15700(14)
N5A N 0.0797(3) -0.1847(4) 0.34300(14)
N5I N 0.5870(3) 0.0689(3) 0.49033(14)
N5AA N 0.4130(3) -0.0689(3) 0.50967(14)
N5N N 0.5180(4) -0.0689(3) 0.00967(14)
N5FA N 0.4820(4) 0.0689(3) -0.00967(14)
N6HA N 0.8892(5) 0.3034(3) 0.15732(15)
N6IA N 0.4143(4) 0.1108(5) 0.15732(15)
N6X N 0.5857(4) -0.3034(3) 0.34268(15)
N6D N 0.7775(5) 0.0299(3) 0.17601(15)
N6Y N 0.3034(3) -0.1108(5) 0.34268(15)
N6Z N 1.1108(5) 0.4143(4) 0.34268(15)
N6GA N 0.6966(3) -0.4143(4) 0.15732(15)
N6BA N 0.5558(5) -0.3632(3) 0.49066(15)
N6I N 0.6368(3) 0.0809(4) 0.50934(15)
O1D O 0.5492(5) -0.0112(3) 0.10755(17)
O1Z O 0.8825(5) 0.2271(4) 0.27422(17)
O1GA O 0.6555(3) -0.2271(4) 0.22578(17)
O1BA O 0.7841(5) -0.3221(3) 0.55912(17)
O1I O 0.6779(3) -0.1063(4) 0.44088(17)
H1D H 0.5780 0.0179 0.1195
H1Z H 0.9113 0.2268 0.2862
H1GA H 0.6846 -0.2268 0.2138
H1BA H 0.7553 -0.3512 0.5472
H1I H 0.6488 -0.1066 0.4528
O2D O 0.4794(5) -0.1146(3) 0.10078(13)
O2Z O 0.8127(5) 0.2607(4) 0.26745(13)
O2GA O 0.5521(3) -0.2607(4) 0.23255(13)
O2BA O 0.8539(5) -0.2187(3) 0.56589(13)
O2I O 0.7813(3) -0.0727(4) 0.43411(13)
O2J O 1.1461(5) 0.2187(3) 0.43411(13)
O3HA O 0.7777(4) 0.4499(3) 0.23547(16)
O3IA O 0.6723(3) 0.2223(4) 0.23547(16)
O3X O 0.3277(3) -0.4499(3) 0.26453(16)
O3D O 0.8890(4) -0.1166(3) 0.09786(16)
O3Y O 0.4499(3) -0.2223(4) 0.26453(16)
O3A O 0.8834(3) -0.1110(4) 0.40214(16)
O3J O 0.5557(4) 0.2167(3) 0.43119(16)
O3L O 0.3389(3) -0.2167(3) 0.06881(16)
O4HA O 0.8417(4) 0.5295(3) 0.20301(14)
O4IA O 0.6879(3) 0.1583(4) 0.20301(14)
O4X O 0.3121(3) -0.5295(3) 0.29699(14)
O4D O 0.8250(4) -0.1962(3) 0.13032(14)
O4Y O 0.5295(3) -0.1583(4) 0.29699(14)
O4A O 0.8038(3) -0.1750(4) 0.36968(14)
O4J O 0.4917(4) 0.1371(3) 0.46365(14)
O4L O 0.3545(3) -0.1371(3) 0.03635(14)
O5D O 0.8053(4) 0.1401(2) 0.21137(12)
O5X O 0.6681(3) -0.1932(2) 0.37804(12)
O5AA O 0.4734(2) 0.0015(3) 0.45530(12)
O5FA O 0.4720(4) -0.0015(3) 0.04470(12)
O5Z O 1.1386(4) 0.3319(3) 0.37804(12)
O5GA O 0.8068(2) -0.3319(3) 0.12196(12)
O5BA O 0.5280(4) -0.4734(2) 0.45530(12)
O5I O 0.5266(2) -0.0015(3) 0.54470(12)
O5HA O 0.8614(4) 0.1932(2) 0.12196(12)
O5E O 0.3348(3) 0.1947(4) 0.21137(12)
O5IA O 0.3319(3) 0.1386(4) 0.12196(12)
O5A O 0.1401(2) -0.1947(4) 0.28863(12)
O5Y O 0.1932(2) -0.1386(4) 0.37804(12)
O5N O 0.5280(4) 0.0015(3) -0.04470(12)
H2D H 0.8389 0.1489 0.2222
H2X H 0.6433 -0.1844 0.3889
H2AA H 0.4822 -0.0233 0.4445
H2FA H 0.5056 0.0233 0.0555
H2Z H 1.1722 0.3567 0.3889
H2GA H 0.8156 -0.3567 0.1111
H2BA H 0.4944 -0.4822 0.4445
H2I H 0.5178 0.0233 0.5555
H2HA H 0.8278 0.1844 0.1111
H2E H 0.3100 0.1611 0.2222
H2IA H 0.3567 0.1722 0.1111
H2A H 0.1489 -0.1611 0.2778
H2Y H 0.1844 -0.1722 0.3889
H2N H 0.4944 -0.0233 -0.0555
O6X O 0.5889(6) -0.1339(5) 0.3543(2)
O6HA O 0.7229(8) 0.1339(5) 0.1457(2)
O6D O 0.9438(8) 0.1994(5) 0.1876(2)
O6IA O 0.4111(6) 0.2771(8) 0.1457(2)
O6E O 0.2556(6) 0.0562(8) 0.1876(2)
O6Y O 0.1339(5) -0.2771(8) 0.3543(2)
O6A O 0.1994(5) -0.0562(8) 0.3124(2)
O6I O 0.4673(5) 0.0777(6) 0.5209(2)
O6AA O 0.5327(5) -0.0777(6) 0.4791(2)
O6N O 0.3895(8) -0.0777(6) -0.0209(2)
O6FA O 0.6105(8) 0.0777(6) 0.0209(2)
H3X H 0.5528 -0.1568 0.3449
H3HA H 0.7097 0.1568 0.1551
H3D H 0.9570 0.1765 0.1782
H3IA H 0.4472 0.2903 0.1551
H3E H 0.2195 0.0430 0.1782
H3Y H 0.1568 -0.2903 0.3449
H3A H 0.1765 -0.0430 0.3218
H3I H 0.4902 0.1138 0.5115
H3AA H 0.5098 -0.1138 0.4885
H3N H 0.3763 -0.1138 -0.0115
H3FA H 0.6237 0.1138 0.0115
H4X H 0.5833 -0.1421 0.3746
H4HA H 0.7255 0.1421 0.1254
H4D H 0.9412 0.1912 0.2079
H4IA H 0.4167 0.2745 0.1254
H4E H 0.2500 0.0588 0.2079
H4Y H 0.1421 -0.2745 0.3746
H4A H 0.1912 -0.0588 0.2921
H4I H 0.4755 0.0833 0.5412
H4AA H 0.5245 -0.0833 0.4588
H4N H 0.3921 -0.0833 -0.0412
H4FA H 0.6079 0.0833 0.0412
C1HA C 0.8207(7) 0.3703(4) 0.21066(19)
C1IA C 0.5497(6) 0.1793(7) 0.21066(19)
C1X C 0.4503(6) -0.3703(4) 0.28934(19)
C1D C 0.8460(7) -0.0370(4) 0.12267(19)
C1Y C 0.3703(4) -0.1793(7) 0.28934(19)
H5HA H 0.7931 0.3552 0.2285
H5IA H 0.5622 0.2069 0.2285
H5X H 0.4378 -0.3552 0.2715
H5D H 0.8736 -0.0219 0.1048
H5Y H 0.3552 -0.2069 0.2715
C2HA C 0.8438(7) 0.4311(4) 0.1990(2)
C2IA C 0.5874(6) 0.1562(7) 0.1990(2)
C2X C 0.4126(6) -0.4311(4) 0.3010(2)
C2D C 0.8229(7) -0.0978(4) 0.1343(2)
C2Y C 0.4311(4) -0.1562(7) 0.3010(2)
C3HA C 0.8896(7) 0.4555(4) 0.1730(2)
C3IA C 0.5660(6) 0.1104(7) 0.1730(2)
C3X C 0.4340(6) -0.4555(4) 0.3270(2)
C3D C 0.7771(7) -0.1222(4) 0.1603(2)
C3Y C 0.4555(4) -0.1104(7) 0.3270(2)
H6HA H 0.9064 0.4981 0.1665
H6IA H 0.5918 0.0936 0.1665
H6X H 0.4082 -0.4981 0.3335
H6D H 0.7603 -0.1648 0.1668
H6Y H 0.4981 -0.0936 0.3335
C4HA C 0.9096(7) 0.4180(4) 0.1573(2)
C4IA C 0.5085(6) 0.0904(7) 0.1573(2)
C4X C 0.4915(6) -0.4180(4) 0.3427(2)
C4D C 0.7571(7) -0.0847(4) 0.1760(2)
C4Y C 0.4180(4) -0.0904(7) 0.3427(2)
H7HA H 0.9391 0.4341 0.1402
H7IA H 0.4951 0.0609 0.1402
H7X H 0.5049 -0.4341 0.3598
H7D H 0.7276 -0.1008 0.1931
H7Y H 0.4341 -0.0609 0.3598
C5HA C 0.8833(7) 0.3545(4) 0.16818(18)
C5IA C 0.4713(6) 0.1167(7) 0.16818(18)
C5X C 0.5287(6) -0.3545(4) 0.33182(18)
C5D C 0.7834(7) -0.0212(4) 0.16515(18)
C5Y C 0.3545(4) -0.1167(7) 0.33182(18)
C6HA C 0.8403(5) 0.3314(3) 0.19462(19)
C6IA C 0.4912(4) 0.1597(5) 0.19462(19)
C6X C 0.5088(4) -0.3314(3) 0.30538(19)
C6D C 0.8264(5) 0.0019(3) 0.13871(19)
C6Y C 0.3314(3) -0.1597(5) 0.30538(19)
C7HA C 0.8191(6) 0.4723(4) 0.2138(2)
C7IA C 0.6533(4) 0.1809(6) 0.2138(2)
C7X C 0.3467(4) -0.4723(4) 0.2862(2)
C7D C 0.8476(6) -0.1390(4) 0.1195(2)
C7Y C 0.4723(4) -0.1809(6) 0.2862(2)
C8D C 0.5989(7) -0.0433(4) 0.16383(18)
C8Z C 0.9322(7) 0.3089(6) 0.33050(18)
C8GA C 0.6234(4) -0.3089(6) 0.16950(18)
C8BA C 0.7344(7) -0.2900(4) 0.50284(18)
C8I C 0.7100(4) -0.0245(6) 0.49716(18)
H8D H 0.6261 -0.0023 0.1555
H8Z H 0.9594 0.2951 0.3222
H8GA H 0.6644 -0.2951 0.1778
H8BA H 0.7072 -0.3310 0.5112
H8I H 0.6690 -0.0383 0.4888
C9D C 0.5438(7) -0.0866(4) 0.14772(19)
C9Z C 0.8771(7) 0.2971(6) 0.31439(19)
C9GA C 0.5801(4) -0.2971(6) 0.18561(19)
C9BA C 0.7895(7) -0.2467(4) 0.51895(19)
C9I C 0.7533(4) -0.0363(6) 0.48105(19)
C10D C 0.5022(7) -0.1487(4) 0.1605(2)
C10Z C 0.8355(7) 0.3176(6) 0.3272(2)
C10GA C 0.5180(4) -0.3176(6) 0.1728(2)
C10BA C 0.8311(7) -0.1846(4) 0.5062(2)
C10I C 0.8154(4) -0.0158(6) 0.4938(2)
H9D H 0.4658 -0.1768 0.1486
H9Z H 0.7991 0.3093 0.3153
H9GA H 0.4899 -0.3093 0.1847
H9BA H 0.8675 -0.1565 0.5181
H9I H 0.8435 -0.0241 0.4819
C11D C 0.5132(7) -0.1689(4) 0.1895(2)
C11Z C 0.8465(7) 0.3488(6) 0.3562(2)
C11GA C 0.4978(4) -0.3488(6) 0.1438(2)
C11BA C 0.8201(7) -0.1644(4) 0.4772(2)
C11I C 0.8356(4) 0.0154(6) 0.5228(2)
H10D H 0.4852 -0.2098 0.1977
H10Z H 0.8185 0.3617 0.3644
H10GA H 0.4569 -0.3617 0.1356
H10BA H 0.8481 -0.1235 0.4690
H10I H 0.8765 0.0283 0.5310
C12D C 0.5694(7) -0.1246(4) 0.20652(18)
C12Z C 0.9027(7) 0.3607(6) 0.37319(18)
C12GA C 0.5421(4) -0.3607(6) 0.12681(18)
C12BA C 0.7639(7) -0.2087(4) 0.46015(18)
C12I C 0.7913(4) 0.0273(6) 0.53985(18)
C13D C 0.6121(7) -0.0636(4) 0.19337(18)
C13Z C 0.9454(7) 0.3424(6) 0.36004(18)
C13GA C 0.6031(4) -0.3424(6) 0.13996(18)
C13BA C 0.7212(7) -0.2697(4) 0.47330(18)
C13I C 0.7303(4) 0.0090(6) 0.52670(18)
C14D C 0.5238(7) -0.0682(4) 0.1160(2)
C14Z C 0.8571(7) 0.2587(6) 0.2827(2)
C14GA C 0.5985(4) -0.2587(6) 0.2173(2)
C14BA C 0.8095(7) -0.2651(4) 0.5507(2)
C14I C 0.7349(4) -0.0747(6) 0.4493(2)
O7 O 0.3333 -0.3333 0.1667
O8 O 1.0000 0.0000 0.4252(4)
O9 O 0.6667 0.0821(7) 0.0833
loop_
_geom_bond_atom_site_label_1
_geom_bond_atom_site_label_2
_geom_bond_site_symmetry_1
_geom_bond_site_symmetry_2
Cu1 Cl1 1_555 1_555
Cu2 N3 1_555 1_555
Cu3 N5 1_555 1_555
Cl1 Cu1D 1_555 1_555
N1 Cu1 1_555 1_555
N2 N1 1_555 1_555
N3 N2 1_555 1_555
N4 N5 1_555 1_555
N5 N6 1_555 1_555
N6 Cu1 1_555 1_555
O1 H1 1_555 1_555
O2 C14 1_555 1_555
O3 C7 1_555 1_555
O4 C7 1_555 1_555
O5 Cu1 1_555 1_555
H2 O5 1_555 1_555
O6 Cu3 1_555 1_555
H3 O6 1_555 1_555
H4 O6 1_555 1_555
C1 H5 1_555 1_555
C2 C1 1_555 1_555
C3 C2 1_555 1_555
H6 C3 1_555 1_555
C4 C3 1_555 1_555
H7 C4 1_555 1_555
C5 N6 1_555 1_555
C6 N4 1_555 1_555
C7 C2 1_555 1_555
C8 H8 1_555 1_555
C9 C8 1_555 1_555
C10 C9 1_555 1_555
H9 C10 1_555 1_555
C11 C10 1_555 1_555
H10 C11 1_555 1_555
C12 N3 1_555 1_555
C13 N1 1_555 1_555
C14 O1 1_555 1_555
Cu1D N2 1_555 1_555
Cu1Z Cl1Z 1_555 1_555
Cu1GA Cl1EA 1_555 1_555
Cu1BA Cl1X 1_555 1_555
Cu1I Cl1G 1_555 1_555
Cu1HA N6HA 1_555 1_555
Cu1CA Cl1Z 1_555 1_555
Cu1IA N6IA 1_555 1_555
Cu1X Cl1X 1_555 1_555
Cu1EA Cl1EA 1_555 1_555
Cu1Y N6Y 1_555 1_555
Cu1G Cl1G 1_555 1_555
Cu1AA O5AA 1_555 1_555
Cu1FA O5FA 1_555 1_555
Cu2D O5 1_555 1_555
Cu2BA N4 1_555 1_555
Cu2Y O2 1_555 1_555
Cu2IA N3IA 1_555 1_555
Cu2CA O3 1_555 1_555
Cu2A O3HA 1_555 1_555
Cu2Z N3Z 1_555 1_555
Cu2B N4IA 1_555 1_555
Cu2E O3X 1_555 1_555
Cu2DA N4D 1_555 1_555
Cu2EA O3D 1_555 1_555
Cu2GA N3GA 1_555 1_555
Cu2C N4Y 1_555 1_555
Cu2K O2BA 1_555 1_555
Cu2I N3I 1_555 1_555
Cu3HA N5HA 1_555 1_555
Cu3IA N5IA 1_555 1_555
Cu3Y N5Y 1_555 1_555
Cu3I N5I 1_555 1_555
Cu3N N5N 1_555 1_555
Cu3B O5Z 1_555 1_555
N1D Cu1D 1_555 1_555
N1Z Cu1Z 1_555 1_555
N1GA Cu1GA 1_555 1_555
N1BA Cu1BA 1_555 1_555
N1I Cu1I 1_555 1_555
N2D Cu1 1_555 1_555
N2Z Cu1CA 1_555 1_555
N2GA Cu1EA 1_555 1_555
N2BA Cu1X 1_555 1_555
N2I Cu1G 1_555 1_555
N2CA Cu1Z 1_555 1_555
N2EA Cu1GA 1_555 1_555
N2X Cu1BA 1_555 1_555
N2G Cu1I 1_555 1_555
N3D Cu2D 1_555 1_555
N3Z N2Z 1_555 1_555
N3GA N2GA 1_555 1_555
N3BA Cu2BA 1_555 1_555
N3I N2I 1_555 1_555
N3Y Cu2Y 1_555 1_555
N3CA Cu2CA 1_555 1_555
N4HA Cu2 1_555 1_555
N4IA N5IA 1_555 1_555
N4X Cu2D 1_555 1_555
N4D N5D 1_555 1_555
N4Y N5Y 1_555 1_555
N4I Cu2Y 1_555 1_555
N4N Cu2IA 1_555 1_555
N4B Cu2CA 1_555 1_555
N5HA N4HA 1_555 1_555
N5IA N6IA 1_555 1_555
N5X Cu3 1_555 1_555
N5D Cu3HA 1_555 1_555
N5Y N6Y 1_555 1_555
N5E Cu3IA 1_555 1_555
N5A Cu3Y 1_555 1_555
N5I N4I 1_555 1_555
N5AA Cu3I 1_555 1_555
N5N N4N 1_555 1_555
N5FA Cu3N 1_555 1_555
N6HA N5HA 1_555 1_555
N6IA C5IA 1_555 1_555
N6X Cu1X 1_555 1_555
N6D Cu1D 1_555 1_555
N6Y C5Y 1_555 1_555
N6Z Cu1Z 1_555 1_555
N6GA Cu1GA 1_555 1_555
N6BA Cu1BA 1_555 1_555
N6I Cu1I 1_555 1_555
O1D H1D 1_555 1_555
O1Z H1Z 1_555 1_555
O1GA H1GA 1_555 1_555
O1BA H1BA 1_555 1_555
O1I H1I 1_555 1_555
O2D Cu2IA 1_555 1_555
O2Z Cu2 1_555 1_555
O2GA Cu2D 1_555 1_555
O2BA C14BA 1_555 1_555
O2I Cu2BA 1_555 1_555
O2J Cu2CA 1_555 1_555
O3HA C7HA 1_555 1_555
O3IA Cu2 1_555 1_555
O3X C7X 1_555 1_555
O3D C7D 1_555 1_555
O3Y Cu2D 1_555 1_555
O3A Cu2BA 1_555 1_555
O3J Cu2Y 1_555 1_555
O3L Cu2IA 1_555 1_555
O4HA Cu2A 1_555 1_555
O4IA Cu2 1_555 1_555
O4X Cu2E 1_555 1_555
O4D Cu2EA 1_555 1_555
O4Y Cu2D 1_555 1_555
O4A Cu2BA 1_555 1_555
O4J Cu2Y 1_555 1_555
O4L Cu2IA 1_555 1_555
O5D Cu2 1_555 1_555
O5X Cu3 1_555 1_555
O5AA Cu2Y 1_555 1_555
O5FA Cu2IA 1_555 1_555
O5Z Cu1Z 1_555 1_555
O5GA Cu1GA 1_555 1_555
O5BA Cu1BA 1_555 1_555
O5I Cu1I 1_555 1_555
O5HA Cu1HA 1_555 1_555
O5E Cu2B 1_555 1_555
O5IA Cu1IA 1_555 1_555
O5A Cu2C 1_555 1_555
O5Y Cu1Y 1_555 1_555
O5N Cu3N 1_555 1_555
H2D O5D 1_555 1_555
H2X O5X 1_555 1_555
H2AA O5AA 1_555 1_555
H2FA O5FA 1_555 1_555
H2Z O5Z 1_555 1_555
H2GA O5GA 1_555 1_555
H2BA O5BA 1_555 1_555
H2I O5I 1_555 1_555
H2HA O5HA 1_555 1_555
H2E O5E 1_555 1_555
H2IA O5IA 1_555 1_555
H2A O5A 1_555 1_555
H2Y O5Y 1_555 1_555
H2N O5N 1_555 1_555
O6X Cu3 1_555 1_555
O6HA Cu3HA 1_555 1_555
O6D Cu3HA 1_555 1_555
O6IA Cu3IA 1_555 1_555
O6E Cu3IA 1_555 1_555
O6Y Cu3Y 1_555 1_555
O6A Cu3Y 1_555 1_555
O6I Cu3I 1_555 1_555
O6AA Cu3I 1_555 1_555
O6N Cu3N 1_555 1_555
O6FA Cu3N 1_555 1_555
H3X O6X 1_555 1_555
H3HA O6HA 1_555 1_555
H3D O6D 1_555 1_555
H3IA O6IA 1_555 1_555
H3E O6E 1_555 1_555
H3Y O6Y 1_555 1_555
H3A O6A 1_555 1_555
H3I O6I 1_555 1_555
H3AA O6AA 1_555 1_555
H3N O6N 1_555 1_555
H3FA O6FA 1_555 1_555
H4X O6X 1_555 1_555
H4HA O6HA 1_555 1_555
H4D O6D 1_555 1_555
H4IA O6IA 1_555 1_555
H4E O6E 1_555 1_555
H4Y O6Y 1_555 1_555
H4A O6A 1_555 1_555
H4I O6I 1_555 1_555
H4AA O6AA 1_555 1_555
H4N O6N 1_555 1_555
H4FA O6FA 1_555 1_555
C1HA H5HA 1_555 1_555
C1IA H5IA 1_555 1_555
C1X H5X 1_555 1_555
C1D H5D 1_555 1_555
C1Y H5Y 1_555 1_555
C2HA C1HA 1_555 1_555
C2IA C1IA 1_555 1_555
C2X C1X 1_555 1_555
C2D C1D 1_555 1_555
C2Y C1Y 1_555 1_555
C3HA C2HA 1_555 1_555
C3IA C2IA 1_555 1_555
C3X C2X 1_555 1_555
C3D C2D 1_555 1_555
C3Y C2Y 1_555 1_555
H6HA C3HA 1_555 1_555
H6IA C3IA 1_555 1_555
H6X C3X 1_555 1_555
H6D C3D 1_555 1_555
H6Y C3Y 1_555 1_555
C4HA C3HA 1_555 1_555
C4IA C3IA 1_555 1_555
C4X C3X 1_555 1_555
C4D C3D 1_555 1_555
C4Y C3Y 1_555 1_555
H7HA C4HA 1_555 1_555
H7IA C4IA 1_555 1_555
H7X C4X 1_555 1_555
H7D C4D 1_555 1_555
H7Y C4Y 1_555 1_555
C5HA N6HA 1_555 1_555
C5IA C4IA 1_555 1_555
C5X N6X 1_555 1_555
C5D N6D 1_555 1_555
C5Y C4Y 1_555 1_555
C6HA N4HA 1_555 1_555
C6IA N4IA 1_555 1_555
C6X N4X 1_555 1_555
C6D N4D 1_555 1_555
C6Y N4Y 1_555 1_555
C7HA O4HA 1_555 1_555
C7IA O3IA 1_555 1_555
C7X O4X 1_555 1_555
C7D O4D 1_555 1_555
C7Y O3Y 1_555 1_555
C8D H8D 1_555 1_555
C8Z H8Z 1_555 1_555
C8GA H8GA 1_555 1_555
C8BA H8BA 1_555 1_555
C8I H8I 1_555 1_555
C9D C8D 1_555 1_555
C9Z C8Z 1_555 1_555
C9GA C8GA 1_555 1_555
C9BA C8BA 1_555 1_555
C9I C8I 1_555 1_555
C10D C9D 1_555 1_555
C10Z C9Z 1_555 1_555
C10GA C9GA 1_555 1_555
C10BA C9BA 1_555 1_555
C10I C9I 1_555 1_555
H9D C10D 1_555 1_555
H9Z C10Z 1_555 1_555
H9GA C10GA 1_555 1_555
H9BA C10BA 1_555 1_555
H9I C10I 1_555 1_555
C11D C10D 1_555 1_555
C11Z C10Z 1_555 1_555
C11GA C10GA 1_555 1_555
C11BA C10BA 1_555 1_555
C11I C10I 1_555 1_555
H10D C11D 1_555 1_555
H10Z C11Z 1_555 1_555
H10GA C11GA 1_555 1_555
H10BA C11BA 1_555 1_555
H10I C11I 1_555 1_555
C12D N3D 1_555 1_555
C12Z N3Z 1_555 1_555
C12GA N3GA 1_555 1_555
C12BA N3BA 1_555 1_555
C12I N3I 1_555 1_555
C13D N1D 1_555 1_555
C13Z N1Z 1_555 1_555
C13GA N1GA 1_555 1_555
C13BA N1BA 1_555 1_555
C13I N1I 1_555 1_555
C14D O1D 1_555 1_555
C14Z O1Z 1_555 1_555
C14GA O1GA 1_555 1_555
C14BA O1BA 1_555 1_555
C14I O1I 1_555 1_555
Cu3 O5 1_555 1_555
O4 Cu2CA 1_555 1_555
C1 C6 1_555 1_555
C4 C5 1_555 1_555
C5 C6 1_555 1_555
C8 C13 1_555 1_555
C9 C14 1_555 1_555
C11 C12 1_555 1_555
C12 C13 1_555 1_555
Cu1D O5D 1_555 1_555
Cu1X O5X 1_555 1_555
Cu2BA O5X 1_555 1_555
Cu2CA O5Z 1_555 1_555
Cu2DA O5HA 1_555 1_555
Cu2EA O5GA 1_555 1_555
Cu3HA O5D 1_555 1_555
Cu3HA O5HA 1_555 1_555
Cu3IA O5E 1_555 1_555
Cu3IA O5IA 1_555 1_555
Cu3Y O5A 1_555 1_555
Cu3Y O5Y 1_555 1_555
Cu3I O5AA 1_555 1_555
Cu3I O5I 1_555 1_555
Cu3N O5FA 1_555 1_555
N1D N2D 1_555 1_555
N1Z N2Z 1_555 1_555
N1GA N2GA 1_555 1_555
N1BA N2BA 1_555 1_555
N1I N2I 1_555 1_555
N2D N3D 1_555 1_555
N2BA N3BA 1_555 1_555
N2CA N3CA 1_555 1_555
N4X N5X 1_555 1_555
N5X N6X 1_555 1_555
N5D N6D 1_555 1_555
N5I N6I 1_555 1_555
O2D C14D 1_555 1_555
O2Z C14Z 1_555 1_555
O2GA C14GA 1_555 1_555
O2I C14I 1_555 1_555
O4IA C7IA 1_555 1_555
O4Y C7Y 1_555 1_555
C1HA C6HA 1_555 1_555
C1IA C6IA 1_555 1_555
C1X C6X 1_555 1_555
C1D C6D 1_555 1_555
C1Y C6Y 1_555 1_555
C2HA C7HA 1_555 1_555
C2IA C7IA 1_555 1_555
C2X C7X 1_555 1_555
C2D C7D 1_555 1_555
C2Y C7Y 1_555 1_555
C4HA C5HA 1_555 1_555
C4X C5X 1_555 1_555
C4D C5D 1_555 1_555
C5HA C6HA 1_555 1_555
C5IA C6IA 1_555 1_555
C5X C6X 1_555 1_555
C5D C6D 1_555 1_555
C5Y C6Y 1_555 1_555
C8D C13D 1_555 1_555
C8Z C13Z 1_555 1_555
C8GA C13GA 1_555 1_555
C8BA C13BA 1_555 1_555
C8I C13I 1_555 1_555
C9D C14D 1_555 1_555
C9Z C14Z 1_555 1_555
C9GA C14GA 1_555 1_555
C9BA C14BA 1_555 1_555
C9I C14I 1_555 1_555
C11D C12D 1_555 1_555
C11Z C12Z 1_555 1_555
C11GA C12GA 1_555 1_555
C11BA C12BA 1_555 1_555
C11I C12I 1_555 1_555
C12D C13D 1_555 1_555
C12Z C13Z 1_555 1_555
C12GA C13GA 1_555 1_555
C12BA C13BA 1_555 1_555
C12I C13I 1_555 1_555

#END
