
#######################################################################
#
#                 Cambridge Crystallographic Data Centre
#                                CCDC 
#
#######################################################################
#
# If this CIF has been generated from an entry in the Cambridge 
# Structural Database, then it will include bibliographic, chemical, 
# crystal, experimental, refinement or atomic coordinate data resulting 
# from the CCDC's data processing and validation procedures.
#
#######################################################################

data_TOCJEC
_chemical_formula_moiety         '(C52 H32 N16 O13 Zn4)n'
_symmetry_cell_setting           cubic
_symmetry_space_group_name_H-M   'I a -3 d'
_symmetry_Int_Tables_number      230
_space_group_name_Hall           '-I 4bd 2c 3'
loop_
_symmetry_equiv_pos_site_id
_symmetry_equiv_pos_as_xyz
1 x,y,z
2 1/2-x,-y,1/2+z
3 -x,1/2+y,1/2-z
4 1/2+x,1/2-y,-z
5 z,x,y
6 1/2+z,1/2-x,-y
7 1/2-z,-x,1/2+y
8 -z,1/2+x,1/2-y
9 y,z,x
10 -y,1/2+z,1/2-x
11 1/2+y,1/2-z,-x
12 1/2-y,-z,1/2+x
13 3/4+y,1/4+x,1/4-z
14 3/4-y,3/4-x,3/4-z
15 1/4+y,1/4-x,3/4+z
16 1/4-y,3/4+x,1/4+z
17 3/4+x,1/4+z,1/4-y
18 1/4-x,3/4+z,1/4+y
19 3/4-x,3/4-z,3/4-y
20 1/4+x,1/4-z,3/4+y
21 3/4+z,1/4+y,1/4-x
22 1/4+z,1/4-y,3/4+x
23 1/4-z,3/4+y,1/4+x
24 3/4-z,3/4-y,3/4-x
25 1/2+x,1/2+y,1/2+z
26 -x,1/2-y,z
27 1/2-x,y,-z
28 x,-y,1/2-z
29 1/2+z,1/2+x,1/2+y
30 z,-x,1/2-y
31 -z,1/2-x,y
32 1/2-z,x,-y
33 1/2+y,1/2+z,1/2+x
34 1/2-y,z,-x
35 y,-z,1/2-x
36 -y,1/2-z,x
37 1/4+y,3/4+x,3/4-z
38 1/4-y,1/4-x,1/4-z
39 3/4+y,3/4-x,1/4+z
40 3/4-y,1/4+x,3/4+z
41 1/4+x,3/4+z,3/4-y
42 3/4-x,1/4+z,3/4+y
43 1/4-x,1/4-z,1/4-y
44 3/4+x,3/4-z,1/4+y
45 1/4+z,3/4+y,3/4-x
46 3/4+z,3/4-y,1/4+x
47 3/4-z,1/4+y,3/4+x
48 1/4-z,1/4-y,1/4-x
49 -x,-y,-z
50 1/2+x,y,1/2-z
51 x,1/2-y,1/2+z
52 1/2-x,1/2+y,z
53 -z,-x,-y
54 1/2-z,1/2+x,y
55 1/2+z,x,1/2-y
56 z,1/2-x,1/2+y
57 -y,-z,-x
58 y,1/2-z,1/2+x
59 1/2-y,1/2+z,x
60 1/2+y,z,1/2-x
61 1/4-y,3/4-x,3/4+z
62 1/4+y,1/4+x,1/4+z
63 3/4-y,3/4+x,1/4-z
64 3/4+y,1/4-x,3/4-z
65 1/4-x,3/4-z,3/4+y
66 3/4+x,1/4-z,3/4-y
67 1/4+x,1/4+z,1/4+y
68 3/4-x,3/4+z,1/4-y
69 1/4-z,3/4-y,3/4+x
70 3/4-z,3/4+y,1/4-x
71 3/4+z,1/4-y,3/4-x
72 1/4+z,1/4+y,1/4+x
73 1/2-x,1/2-y,1/2-z
74 x,1/2+y,-z
75 1/2+x,-y,z
76 -x,y,1/2+z
77 1/2-z,1/2-x,1/2-y
78 -z,x,1/2+y
79 z,1/2+x,-y
80 1/2+z,-x,y
81 1/2-y,1/2-z,1/2-x
82 1/2+y,-z,x
83 -y,z,1/2+x
84 y,1/2+z,-x
85 3/4-y,1/4-x,1/4+z
86 3/4+y,3/4+x,3/4+z
87 1/4-y,1/4+x,3/4-z
88 1/4+y,3/4-x,1/4-z
89 3/4-x,1/4-z,1/4+y
90 1/4+x,3/4-z,1/4-y
91 3/4+x,3/4+z,3/4+y
92 1/4-x,1/4+z,3/4-y
93 3/4-z,1/4-y,1/4+x
94 1/4-z,1/4+y,3/4-x
95 1/4+z,3/4-y,1/4-x
96 3/4+z,3/4+y,3/4+x
_cell_length_a                   75.2379(13)
_cell_length_b                   75.2379(13)
_cell_length_c                   75.2379(13)
_cell_angle_alpha                90
_cell_angle_beta                 90
_cell_angle_gamma                90
_cell_volume                     425902
loop_
_atom_site_label
_atom_site_type_symbol
_atom_site_fract_x
_atom_site_fract_y
_atom_site_fract_z
_atom_site_U_iso_or_equiv
_atom_site_thermal_displace_type
O1 O 0.4616(4) 0.6734(4) 0.4023(3) 0.2580 Uiso
C1 C 0.4490(5) 0.6815(4) 0.3954(4) 0.2710 Uiso
O2 O 0.4541(4) 0.6915(3) 0.3833(4) 0.2280 Uiso
C2 C 0.4317(5) 0.6777(7) 0.4009(7) 0.2830 Uiso
C3 C 0.4297(7) 0.6659(6) 0.4140(6) 0.2790 Uiso
H1 H 0.4395 0.6602 0.4190 0.3350 Uiso
C4 C 0.4120(10) 0.6624(5) 0.4201(5) 0.3300 Uiso
H2 H 0.4098 0.6553 0.4300 0.3910 Uiso
C5 C 0.3986(6) 0.6699(8) 0.4109(8) 0.3230 Uiso
C6 C 0.4006(7) 0.6823(6) 0.3985(6) 0.2740 Uiso
H3 H 0.3909 0.6883 0.3938 0.3290 Uiso
C7 C 0.4185(9) 0.6862(4) 0.3928(4) 0.2710 Uiso
H4 H 0.4208 0.6944 0.3837 0.3250 Uiso
N1 N 0.3818(5) 0.6644(6) 0.4176(6) 0.3600 Uiso
O3 O 0.5537(4) 0.5366(5) 0.2706(4) 0.2680 Uiso
C8 C 0.5608(5) 0.5507(5) 0.2758(5) 0.3100 Uiso
O4 O 0.5774(4) 0.5509(3) 0.2738(3) 0.2470 Uiso
C9 C 0.5536(11) 0.5650(7) 0.2851(5) 0.3360 Uiso
C10 C 0.5357(11) 0.5631(6) 0.2877(6) 0.4300 Uiso
H5 H 0.5299 0.5529 0.2836 0.5200 Uiso
C11 C 0.5261(5) 0.5760(11) 0.2964(7) 0.4600 Uiso
H6 H 0.5139 0.5747 0.2981 0.5530 Uiso
C12 C 0.5346(11) 0.5910(8) 0.3026(4) 0.4200 Uiso
C13 C 0.5525(11) 0.5929(6) 0.3001(6) 0.3400 Uiso
H7 H 0.5583 0.6030 0.3043 0.4090 Uiso
C14 C 0.5620(4) 0.5801(11) 0.2912(7) 0.3300 Uiso
H8 H 0.5741 0.5816 0.2894 0.3980 Uiso
N2 N 0.5210(8) 0.6113(6) 0.3176(6) 0.4000 Uiso
O5 O 0.4925(4) 0.6754(4) 0.3653(4) 0.2470 Uiso
C15 C 0.4871(5) 0.6652(5) 0.3532(5) 0.3100 Uiso
O6 O 0.4706(5) 0.6671(4) 0.3522(4) 0.3020 Uiso
C16 C 0.4946(11) 0.6508(5) 0.3443(6) 0.3200 Uiso
C17 C 0.5122(11) 0.6488(7) 0.3463(5) 0.3100 Uiso
H9 H 0.5184 0.6563 0.3539 0.3750 Uiso
C18 C 0.5208(4) 0.6360(10) 0.3374(9) 0.3400 Uiso
H10 H 0.5330 0.6346 0.3389 0.4140 Uiso
C19 C 0.5119(12) 0.6252(6) 0.3264(7) 0.3900 Uiso
C20 C 0.4942(11) 0.6270(7) 0.3247(5) 0.4100 Uiso
H11 H 0.4879 0.6192 0.3174 0.4870 Uiso
C21 C 0.4857(4) 0.6398(10) 0.3334(9) 0.3800 Uiso
H12 H 0.4735 0.6412 0.3320 0.4510 Uiso
N3 N 0.5275(9) 0.6057(7) 0.3119(6) 0.4300 Uiso
C22 C 0.52165(19) 0.72012(15) 0.39708(17) 0.2360 Uiso
N4 N 0.5385(2) 0.7269(2) 0.3966(2) 0.2120 Uiso
C23 C 0.5383(3) 0.7383(2) 0.4098(3) 0.2380 Uiso
H13 H 0.5482 0.7451 0.4127 0.2860 Uiso
N5 N 0.5233(4) 0.7396(2) 0.4188(2) 0.2300 Uiso
C24 C 0.5126(3) 0.72787(18) 0.41067(17) 0.2260 Uiso
N6 N 0.4959(3) 0.7241(3) 0.4153(2) 0.2180 Uiso
C25 C 0.4890(2) 0.7118(3) 0.4052(3) 0.2160 Uiso
H14 H 0.4774 0.7085 0.4080 0.2590 Uiso
N7 N 0.4962(2) 0.7035(2) 0.3918(3) 0.2390 Uiso
C26 C 0.5129(2) 0.70742(16) 0.38721(19) 0.2440 Uiso
N8 N 0.5198(3) 0.6989(2) 0.3736(2) 0.2090 Uiso
H15 H 0.5136 0.6911 0.3680 0.2510 Uiso
H16 H 0.5306 0.7011 0.3704 0.2510 Uiso
Zn1 Zn 0.47706(8) 0.69225(8) 0.37470(9) 0.2273 Uani
Zn2 Zn 0.48137(9) 0.74071(9) 0.43422(10) 0.2343 Uani
O7 O 0.5000 0.7500 0.4488(5) 0.2000 Uani
O1OA O 0.2884(4) 0.6523(3) 0.4234(4) 0.2580 Uiso
C1OA C 0.3010(5) 0.6454(4) 0.4315(4) 0.2710 Uiso
O2OA O 0.2959(4) 0.6333(4) 0.4415(3) 0.2280 Uiso
C2OA C 0.3183(5) 0.6509(7) 0.4277(7) 0.2830 Uiso
C3OA C 0.3203(7) 0.6640(6) 0.4159(6) 0.2790 Uiso
H1OA H 0.3105 0.6690 0.4102 0.3350 Uiso
C4OA C 0.3380(10) 0.6701(5) 0.4124(5) 0.3300 Uiso
H2OA H 0.3402 0.6800 0.4053 0.3910 Uiso
C5OA C 0.3514(6) 0.6609(8) 0.4199(8) 0.3230 Uiso
C6OA C 0.3494(7) 0.6485(6) 0.4323(6) 0.2740 Uiso
H3OA H 0.3591 0.6438 0.4383 0.3290 Uiso
C7OA C 0.3315(9) 0.6428(4) 0.4362(4) 0.2710 Uiso
H4OA H 0.3292 0.6337 0.4444 0.3250 Uiso
N1OA N 0.3682(5) 0.6676(6) 0.4144(6) 0.3600 Uiso
O3Y O 0.4463(4) 0.9634(5) 0.2706(4) 0.2680 Uiso
C8Y C 0.4392(5) 0.9493(5) 0.2758(5) 0.3100 Uiso
O4Y O 0.4226(4) 0.9491(3) 0.2738(3) 0.2470 Uiso
C9Y C 0.4464(11) 0.9350(7) 0.2851(5) 0.3360 Uiso
C10Y C 0.4643(11) 0.9369(6) 0.2877(6) 0.4300 Uiso
H5Y H 0.4701 0.9471 0.2836 0.5200 Uiso
C11Y C 0.4739(5) 0.9240(11) 0.2964(7) 0.4600 Uiso
H6Y H 0.4861 0.9253 0.2981 0.5530 Uiso
C12Y C 0.4654(11) 0.9090(8) 0.3026(4) 0.4200 Uiso
C13Y C 0.4475(11) 0.9071(6) 0.3001(6) 0.3400 Uiso
H7Y H 0.4417 0.8970 0.3043 0.4090 Uiso
C14Y C 0.4380(4) 0.9199(11) 0.2912(7) 0.3300 Uiso
H8Y H 0.4259 0.9184 0.2894 0.3980 Uiso
N2Y N 0.4790(8) 0.8887(6) 0.3176(6) 0.4000 Uiso
O5Y O 0.5075(4) 0.8246(4) 0.3653(4) 0.2470 Uiso
C15Y C 0.5129(5) 0.8348(5) 0.3532(5) 0.3100 Uiso
O6Y O 0.5294(5) 0.8329(4) 0.3522(4) 0.3020 Uiso
C16Y C 0.5054(11) 0.8492(5) 0.3443(6) 0.3200 Uiso
C17Y C 0.4878(11) 0.8512(7) 0.3463(5) 0.3100 Uiso
H9Y H 0.4816 0.8437 0.3539 0.3750 Uiso
C18Y C 0.4792(4) 0.8640(10) 0.3374(9) 0.3400 Uiso
H10Y H 0.4670 0.8654 0.3389 0.4140 Uiso
C19Y C 0.4881(12) 0.8748(6) 0.3264(7) 0.3900 Uiso
C20Y C 0.5058(11) 0.8730(7) 0.3247(5) 0.4100 Uiso
H11Y H 0.5121 0.8808 0.3174 0.4870 Uiso
C21Y C 0.5143(4) 0.8602(10) 0.3334(9) 0.3800 Uiso
H12Y H 0.5265 0.8588 0.3320 0.4510 Uiso
N3Y N 0.4725(9) 0.8943(7) 0.3119(6) 0.4300 Uiso
C22Y C 0.47835(19) 0.77988(15) 0.39708(17) 0.2360 Uiso
N4Y N 0.4615(2) 0.7731(2) 0.3966(2) 0.2120 Uiso
C23Y C 0.4617(3) 0.7617(2) 0.4098(3) 0.2380 Uiso
H13Y H 0.4518 0.7549 0.4127 0.2860 Uiso
N5Y N 0.4767(4) 0.7604(2) 0.4188(2) 0.2300 Uiso
C24Y C 0.4874(3) 0.77213(18) 0.41067(17) 0.2260 Uiso
N6Y N 0.5041(3) 0.7759(3) 0.4153(2) 0.2180 Uiso
C25Y C 0.5110(2) 0.7882(3) 0.4052(3) 0.2160 Uiso
H14Y H 0.5226 0.7915 0.4080 0.2590 Uiso
N7Y N 0.5038(2) 0.7965(2) 0.3918(3) 0.2390 Uiso
C26Y C 0.4871(2) 0.79258(16) 0.38721(19) 0.2440 Uiso
N8Y N 0.4802(3) 0.8011(2) 0.3736(2) 0.2090 Uiso
H15Y H 0.4864 0.8089 0.3680 0.2510 Uiso
H16Y H 0.4694 0.7989 0.3704 0.2510 Uiso
Zn1Y Zn 0.52294(8) 0.80775(8) 0.37470(9) 0.2273 Uani
Zn2Y Zn 0.51863(9) 0.75929(9) 0.43422(10) 0.2343 Uani
O2Y O 0.5459(4) 0.8085(3) 0.3833(4) 0.2280 Uiso
O3DB O 0.4634(5) 0.7294(4) 0.4463(4) 0.2680 Uiso
O3EC O 0.5366(5) 0.7706(4) 0.4463(4) 0.2680 Uiso
N4KB N 0.4769(2) 0.7115(2) 0.3534(2) 0.2120 Uiso
N4HC N 0.5231(2) 0.7885(2) 0.3534(2) 0.2120 Uiso
Zn1OA Zn 0.27294(8) 0.62470(9) 0.44225(8) 0.2273 Uani
Zn1KB Zn 0.44225(8) 0.77294(8) 0.37530(9) 0.2273 Uani
Zn1HC Zn 0.55775(8) 0.72706(8) 0.37530(9) 0.2273 Uani
Zn2ZA Zn 0.56578(10) 0.51863(9) 0.25929(9) 0.2343 Uani
Zn2ZB Zn 0.43422(10) 0.98137(9) 0.25929(9) 0.2343 Uani
loop_
_atom_site_aniso_label
_atom_site_aniso_U_11
_atom_site_aniso_U_22
_atom_site_aniso_U_33
_atom_site_aniso_U_23
_atom_site_aniso_U_13
_atom_site_aniso_U_12
Zn1 0.161(8) 0.187(8) 0.334(9) -0.016(6) 0.038(6) 0.008(5)
Zn2 0.173(9) 0.234(8) 0.296(10) 0.017(7) 0.009(7) -0.020(7)
O7 0.16(4) 0.19(4) 0.25(5) 0.000 0.000 0.06(2)
Zn1Y 0.161 0.187 0.334 0.016 -0.038 0.008
Zn2Y 0.173 0.234 0.296 -0.017 -0.009 -0.02
Zn1OA 0.161 0.334 0.187 -0.016 -0.008 -0.038
Zn1KB 0.187 0.161 0.334 0.038 0.016 -0.008
Zn1HC 0.187 0.161 0.334 -0.038 -0.016 -0.008
Zn2ZA 0.296 0.173 0.234 -0.02 0.017 0.009
Zn2ZB 0.296 0.173 0.234 0.02 -0.017 0.009
loop_
_geom_bond_atom_site_label_1
_geom_bond_atom_site_label_2
_geom_bond_site_symmetry_1
_geom_bond_site_symmetry_2
O1 C1 1_555 1_555
C1 O2 1_555 1_555
O2 Zn1 1_555 1_555
C2 C1 1_555 1_555
C3 C2 1_555 1_555
H1 C3 1_555 1_555
C4 C3 1_555 1_555
H2 C4 1_555 1_555
C5 C4 1_555 1_555
C6 C5 1_555 1_555
H3 C6 1_555 1_555
C7 C2 1_555 1_555
H4 C7 1_555 1_555
N1 C5 1_555 1_555
O3 C8 1_555 1_555
C8 O4 1_555 1_555
C9 C8 1_555 1_555
C10 C9 1_555 1_555
H5 C10 1_555 1_555
C11 C10 1_555 1_555
H6 C11 1_555 1_555
C12 C11 1_555 1_555
C13 C12 1_555 1_555
H7 C13 1_555 1_555
C14 C9 1_555 1_555
H8 C14 1_555 1_555
N2 C19 1_555 1_555
O5 C15 1_555 1_555
C15 O6 1_555 1_555
C16 C15 1_555 1_555
C17 C16 1_555 1_555
H9 C17 1_555 1_555
C18 C17 1_555 1_555
H10 C18 1_555 1_555
C19 C18 1_555 1_555
C20 C19 1_555 1_555
H11 C20 1_555 1_555
C21 C16 1_555 1_555
H12 C21 1_555 1_555
N3 C12 1_555 1_555
C22 N4 1_555 1_555
N4 C23 1_555 1_555
C23 H13 1_555 1_555
N5 C23 1_555 1_555
C24 C22 1_555 1_555
N6 C24 1_555 1_555
C25 N6 1_555 1_555
H14 C25 1_555 1_555
N7 C25 1_555 1_555
C26 C22 1_555 1_555
N8 C26 1_555 1_555
H15 N8 1_555 1_555
H16 N8 1_555 1_555
Zn1 O5 1_555 1_555
Zn2 N6 1_555 1_555
O7 Zn2 1_555 1_555
O1OA C1OA 1_555 1_555
C1OA O2OA 1_555 1_555
O2OA Zn1OA 1_555 1_555
C2OA C1OA 1_555 1_555
C3OA C2OA 1_555 1_555
H1OA C3OA 1_555 1_555
C4OA C3OA 1_555 1_555
H2OA C4OA 1_555 1_555
C5OA C4OA 1_555 1_555
C6OA C5OA 1_555 1_555
H3OA C6OA 1_555 1_555
C7OA C2OA 1_555 1_555
H4OA C7OA 1_555 1_555
N1OA N1 1_555 1_555
O3Y C8Y 1_555 1_555
C8Y O4Y 1_555 1_555
C9Y C8Y 1_555 1_555
C10Y C9Y 1_555 1_555
H5Y C10Y 1_555 1_555
C11Y C10Y 1_555 1_555
H6Y C11Y 1_555 1_555
C12Y C11Y 1_555 1_555
C13Y C12Y 1_555 1_555
H7Y C13Y 1_555 1_555
C14Y C9Y 1_555 1_555
H8Y C14Y 1_555 1_555
N2Y C19Y 1_555 1_555
O5Y C15Y 1_555 1_555
C15Y O6Y 1_555 1_555
C16Y C15Y 1_555 1_555
C17Y C16Y 1_555 1_555
H9Y C17Y 1_555 1_555
C18Y C17Y 1_555 1_555
H10Y C18Y 1_555 1_555
C19Y C18Y 1_555 1_555
C20Y C19Y 1_555 1_555
H11Y C20Y 1_555 1_555
C21Y C16Y 1_555 1_555
H12Y C21Y 1_555 1_555
N3Y C12Y 1_555 1_555
C22Y N4Y 1_555 1_555
N4Y C23Y 1_555 1_555
C23Y H13Y 1_555 1_555
N5Y Zn2 1_555 1_555
C24Y C22Y 1_555 1_555
N6Y C24Y 1_555 1_555
C25Y N6Y 1_555 1_555
H14Y C25Y 1_555 1_555
N7Y C25Y 1_555 1_555
C26Y C22Y 1_555 1_555
N8Y C26Y 1_555 1_555
H15Y N8Y 1_555 1_555
H16Y N8Y 1_555 1_555
Zn1Y O5Y 1_555 1_555
Zn2Y N5 1_555 1_555
O2Y Zn1Y 1_555 1_555
O3DB Zn2 1_555 1_555
O3EC Zn2Y 1_555 1_555
N4KB Zn1 1_555 1_555
N4HC Zn1Y 1_555 1_555
Zn1KB N4Y 1_555 1_555
Zn1HC N4 1_555 1_555
Zn2ZA O3 1_555 1_555
Zn2ZB O3Y 1_555 1_555
C6 C7 1_555 1_555
C13 C14 1_555 1_555
N2 N3 1_555 1_555
C20 C21 1_555 1_555
N5 C24 1_555 1_555
N7 C26 1_555 1_555
N7 Zn1 1_555 1_555
O7 Zn2Y 1_555 1_555
C5OA N1OA 1_555 1_555
C6OA C7OA 1_555 1_555
C13Y C14Y 1_555 1_555
N2Y N3Y 1_555 1_555
C20Y C21Y 1_555 1_555
C23Y N5Y 1_555 1_555
N5Y C24Y 1_555 1_555
N6Y Zn2Y 1_555 1_555
N7Y C26Y 1_555 1_555
N7Y Zn1Y 1_555 1_555

#END
