
#######################################################################
#
#                 Cambridge Crystallographic Data Centre
#                                CCDC 
#
#######################################################################
#
# If this CIF has been generated from an entry in the Cambridge 
# Structural Database, then it will include bibliographic, chemical, 
# crystal, experimental, refinement or atomic coordinate data resulting 
# from the CCDC's data processing and validation procedures.
#
#######################################################################

data_KASDOA
_chemical_formula_moiety         '(C74 H38 N12 O24 Zn6 4-)n'
_symmetry_cell_setting           tetragonal
_symmetry_space_group_name_H-M   'P -4 21 m'
_symmetry_Int_Tables_number      113
_space_group_name_Hall           'P -4 2ab'
loop_
_symmetry_equiv_pos_site_id
_symmetry_equiv_pos_as_xyz
1 x,y,z
2 y,-x,-z
3 -x,-y,z
4 -y,x,-z
5 1/2+x,1/2-y,-z
6 1/2-x,1/2+y,-z
7 1/2-y,1/2-x,z
8 1/2+y,1/2+x,z
_cell_length_a                   26.6257(4)
_cell_length_b                   26.6257(4)
_cell_length_c                   20.2942(6)
_cell_angle_alpha                90
_cell_angle_beta                 90
_cell_angle_gamma                90
_cell_volume                     14387.1
loop_
_atom_site_label
_atom_site_type_symbol
_atom_site_fract_x
_atom_site_fract_y
_atom_site_fract_z
Zn1 Zn 0.31151(2) 0.28915(2) 0.17089(3)
Zn2 Zn 0.33431(2) 0.16569(2) -0.07553(5)
Zn3 Zn 0.19605(3) 0.30395(3) 0.42489(5)
Zn4 Zn 0.30546(2) 0.29531(2) 0.68567(3)
N1 N 0.31125(17) 0.18875(17) 0.0140(3)
N2 N 0.2173(2) 0.2827(2) 0.5163(3)
N3 N 0.30251(16) 0.23342(15) 0.1035(2)
N4 N 0.26638(17) 0.26974(18) 0.2481(2)
O1 O 0.38836(15) 0.25323(18) -0.0735(2)
N5 N 0.25561(17) 0.28076(17) 0.6117(2)
O2 O 0.37946(14) 0.2834(2) 0.2053(3)
N6 N 0.2276(2) 0.2724(2) 0.3438(3)
O3 O 0.40794(16) 0.17342(18) -0.0877(3)
C1 C 0.3277(2) 0.2268(2) 0.0494(3)
H1 H 0.3546 0.2469 0.0369
C2 C 0.4190(2) 0.2206(3) -0.0871(3)
C3 C 0.2636(2) 0.2920(2) 0.3050(3)
H2 H 0.2843 0.3185 0.3175
C4 C 0.2527(2) 0.3024(2) 0.5539(3)
H3 H 0.2733 0.3288 0.5407
O4 O 0.4045(2) 0.3058(3) 0.1063(3)
C5 C 0.4133(2) 0.2941(3) 0.1647(4)
C6 C 0.4750(2) 0.2852(3) 0.2545(4)
H4 H 0.4476 0.2850 0.2830
C7 C 0.4816(3) 0.2848(3) -0.1153(6)
H5 H 0.4568 0.3090 -0.1103
C8 C 0.4719(3) 0.2350(3) -0.1042(4)
C9 C 0.5310(3) 0.2980(3) -0.1346(6)
H6 H 0.5381 0.3314 -0.1439
C10 C 0.5086(2) 0.1991(2) -0.1098(4)
H7 H 0.5007 0.1657 -0.1018
C11 C 0.4662(3) 0.2892(4) 0.1889(4)
C12 C 0.5583(3) 0.2123(3) -0.1274(4)
C13 C 0.5227(3) 0.2815(4) 0.2812(4)
C14 C 0.5060(3) 0.2907(6) 0.1451(5)
H8 H 0.5010 0.2941 0.1000
C15 C 0.6330(2) 0.1702(2) -0.1807(4)
H9 H 0.620(3) 0.182(3) -0.223(4)
C16 C 0.5971(2) 0.1727(2) -0.1301(4)
C17 C 0.5996(3) 0.1376(3) -0.0796(5)
H10 H 0.5763 0.1387 -0.0455
C18 C 0.5270(3) 0.2783(4) 0.3538(4)
C19 C 0.5486(4) 0.2377(5) 0.4568(5)
H11 H 0.5667 0.2125 0.4780
C20 C 0.5683(3) 0.2636(3) -0.1400(5)
C21 C 0.5630(3) 0.2822(5) 0.2383(5)
O5 O 0.6233(2) 0.3060(3) -0.2160(4)
C22 C 0.6194(3) 0.2845(3) -0.1618(6)
O6 O 0.6531(2) 0.2787(2) -0.1221(4)
C23 C 0.5506(4) 0.2411(5) 0.3858(6)
H12 H 0.5685 0.2172 0.3620
O7 O 0.36946(19) 0.2799(2) 0.6404(3)
O8 O 0.3991(2) 0.2939(3) 0.7398(4)
C24 C 0.5141(3) 0.2637(4) 0.5639(4)
C25 C 0.4051(3) 0.2817(3) 0.6811(5)
C26 C 0.4573(3) 0.2692(4) 0.6547(5)
C27 C 0.5529(3) 0.2518(4) 0.6079(4)
C28 C 0.4668(3) 0.2696(4) 0.5898(4)
H13 H 0.4400 0.2742 0.5609
C29 C 0.5224(3) 0.2684(4) 0.4915(4)
O9 O 0.6326(2) 0.2806(3) 0.5711(4)
C30 C 0.6067(3) 0.2459(4) 0.5867(4)
C31 C 0.4941(3) 0.2576(5) 0.6977(5)
H14 H 0.4872 0.2556 0.7425
C32 C 0.5018(4) 0.3115(6) 0.4590(6)
H15 H 0.4874 0.3371 0.4838
C33 C 0.5417(3) 0.2487(6) 0.6749(5)
H16 H 0.5670 0.2405 0.7046
C34 C 0.5032(5) 0.3151(6) 0.3910(6)
H17 H 0.4881 0.3423 0.3701
C35 C 0.5540(3) 0.2870(7) 0.1720(6)
H18 H 0.5814 0.2877 0.1435
O10 O 0.62334(18) 0.2009(3) 0.5909(3)
O11 O 0.6335(2) 0.3057(3) 0.2967(4)
O12 O 0.6435(4) 0.2385(6) 0.2415(9)
C36 C 0.6172(4) 0.2778(8) 0.2615(6)
N7 N 0.2920(2) 0.24402(18) 0.7559(2)
C37 C 0.3178(3) 0.2372(2) 0.8105(3)
H19 H 0.3448 0.2572 0.8230
N8 N 0.3012(2) 0.1988(2) 0.8456(3)
N3F N 0.26658(15) 0.19749(16) 0.1035(2)
C1F C 0.2732(2) 0.1723(2) 0.0494(3)
H1F H 0.2531 0.1454 0.0369
N5F N 0.21924(17) 0.24439(17) 0.6117(2)
C4F C 0.1976(2) 0.2473(2) 0.5539(3)
H3F H 0.1712 0.2267 0.5407
N4F N 0.23026(18) 0.23362(17) 0.2481(2)
C3F C 0.2080(2) 0.2364(2) 0.3050(3)
H2F H 0.1815 0.2157 0.3175
O1G O 0.75323(18) -0.11164(15) -0.0735(2)
O3G O 0.67342(18) -0.09206(16) -0.0877(3)
C2G C 0.7206(3) -0.0810(2) -0.0871(3)
C7G C 0.7848(3) -0.0184(3) -0.1153(6)
H5G H 0.8090 -0.0432 -0.1103
C8G C 0.7350(3) -0.0281(3) -0.1042(4)
C9G C 0.7980(3) 0.0310(3) -0.1346(6)
H6G H 0.8314 0.0381 -0.1439
C10G C 0.6991(2) 0.0086(2) -0.1098(4)
H7G H 0.6657 0.0007 -0.1018
C12G C 0.7123(3) 0.0583(3) -0.1274(4)
C15G C 0.6702(2) 0.1330(2) -0.1807(4)
H9G H 0.682(3) 0.120(3) -0.223(4)
C16G C 0.6727(2) 0.0971(2) -0.1301(4)
C17G C 0.6376(3) 0.0996(3) -0.0796(5)
H10G H 0.6387 0.0763 -0.0455
C20G C 0.7636(3) 0.0683(3) -0.1400(5)
O5G O 0.8060(3) 0.1233(2) -0.2160(4)
C22G C 0.7845(3) 0.1194(3) -0.1618(6)
O6G O 0.7787(2) 0.1531(2) -0.1221(4)
N7F N 0.25598(18) 0.2080(2) 0.7559(2)
C37F C 0.2628(2) 0.1822(3) 0.8105(3)
H19F H 0.2428 0.1552 0.8230
Zn1A Zn 0.28915(2) 0.68849(2) 0.82911(3)
Zn4A Zn 0.29531(2) 0.69454(2) 0.31433(3)
O2A O 0.2834(2) 0.62054(14) 0.7947(3)
O4A O 0.3058(3) 0.5955(2) 0.8937(3)
C5A C 0.2941(3) 0.5867(2) 0.8353(4)
C6A C 0.2852(3) 0.5250(2) 0.7455(4)
H4A H 0.2850 0.5524 0.7170
C11A C 0.2892(4) 0.5338(3) 0.8111(4)
C13A C 0.2815(4) 0.4773(3) 0.7188(4)
C14A C 0.2907(6) 0.4940(3) 0.8549(5)
H8A H 0.2941 0.4990 0.9000
C18A C 0.2783(4) 0.4730(3) 0.6462(4)
C19A C 0.2377(5) 0.4514(4) 0.5432(5)
H11A H 0.2125 0.4333 0.5220
C21A C 0.2822(5) 0.4370(3) 0.7617(5)
C23A C 0.2411(5) 0.4494(4) 0.6142(6)
H12A H 0.2172 0.4315 0.6380
O7A O 0.2799(2) 0.63054(19) 0.3596(3)
O8A O 0.2939(3) 0.6009(2) 0.2602(4)
C24A C 0.2637(4) 0.4859(3) 0.4361(4)
C25A C 0.2817(3) 0.5949(3) 0.3189(5)
C26A C 0.2692(4) 0.5427(3) 0.3453(5)
C27A C 0.2518(4) 0.4471(3) 0.3921(4)
C28A C 0.2696(4) 0.5332(3) 0.4102(4)
H13A H 0.2742 0.5600 0.4391
C29A C 0.2684(4) 0.4776(3) 0.5085(4)
O9A O 0.2806(3) 0.3674(2) 0.4289(4)
C30A C 0.2459(4) 0.3933(3) 0.4133(4)
C31A C 0.2576(5) 0.5059(3) 0.3023(5)
H14A H 0.2556 0.5128 0.2575
C32A C 0.3115(6) 0.4982(4) 0.5410(6)
H15A H 0.3371 0.5126 0.5162
C33A C 0.2487(6) 0.4583(3) 0.3251(5)
H16A H 0.2405 0.4330 0.2954
C34A C 0.3151(6) 0.4968(5) 0.6090(6)
H17A H 0.3423 0.5119 0.6299
C35A C 0.2870(7) 0.4460(3) 0.8280(6)
H18A H 0.2877 0.4186 0.8565
O10A O 0.2009(3) 0.37666(18) 0.4091(3)
O11A O 0.3057(3) 0.3665(2) 0.7033(4)
O12A O 0.2385(6) 0.3565(4) 0.7585(9)
C36A C 0.2778(8) 0.3828(4) 0.7385(6)
Zn1C Zn 0.71085(2) 0.31151(2) -0.17089(3)
Zn1D Zn 0.81151(2) 0.21085(2) -0.17089(3)
Zn1F Zn 0.21085(2) 0.18849(2) 0.17089(3)
Zn2_2 Zn 0.33431(2) 0.16569(2) 0.92447(5)
Zn2B Zn 0.66569(2) -0.16569(2) -0.07553(5)
Zn3C Zn 0.69605(3) 0.19605(3) 0.57511(5)
Zn4C Zn 0.70469(2) 0.30546(2) 0.31433(3)
Zn4F Zn 0.20469(2) 0.19454(2) 0.68567(3)
N3A N 0.23342(15) 0.69749(16) 0.8965(2)
N4A N 0.26974(18) 0.73362(17) 0.7519(2)
N5A N 0.28076(17) 0.74439(17) 0.3883(2)
O3F O 0.32658(18) 0.09206(16) -0.0877(3)
O5A O 0.3060(3) 0.3767(2) 0.2160(4)
O5B O 0.3767(2) 0.6940(3) 0.7840(4)
O6A O 0.2787(2) 0.3469(2) 0.1221(4)
O6B O 0.3469(2) 0.7213(2) 0.8779(4)
O10D O 0.12334(18) 0.2991(3) 0.4091(3)
O11B O 0.3665(2) 0.6943(3) 0.2967(4)
N7A N 0.24402(18) 0.7080(2) 0.2441(2)
N8_2 N 0.3012(2) 0.1988(2) -0.1544(3)
loop_
_geom_bond_atom_site_label_1
_geom_bond_atom_site_label_2
_geom_bond_site_symmetry_1
_geom_bond_site_symmetry_2
Zn1 N3 1_555 1_555
Zn2 N1 1_555 1_555
Zn3 N2 1_555 1_555
Zn4 N5 1_555 1_555
N1 C1 1_555 1_555
N2 C4 1_555 1_555
N3 C1 1_555 1_555
N4 Zn1 1_555 1_555
O1 C2 1_555 1_555
N5 C4 1_555 1_555
O2 Zn1 1_555 1_555
N6 Zn3 1_555 1_555
O3 Zn2 1_555 1_555
C1 H1 1_555 1_555
C2 O3 1_555 1_555
C3 N4 1_555 1_555
H2 C3 1_555 1_555
C4 H3 1_555 1_555
O4 C5 1_555 1_555
C5 O2 1_555 1_555
C6 H4 1_555 1_555
C7 H5 1_555 1_555
C8 C2 1_555 1_555
C9 C7 1_555 1_555
H6 C9 1_555 1_555
C10 C8 1_555 1_555
H7 C10 1_555 1_555
C11 C5 1_555 1_555
C12 C10 1_555 1_555
C13 C6 1_555 1_555
C14 C11 1_555 1_555
H8 C14 1_555 1_555
C15 H9 1_555 1_555
C16 C12 1_555 1_555
C17 C16 1_555 1_555
H10 C17 1_555 1_555
C18 C13 1_555 1_555
C19 H11 1_555 1_555
C20 C9 1_555 1_555
C21 C13 1_555 1_555
O5 C22 1_555 1_555
C22 C20 1_555 1_555
O6 C22 1_555 1_555
C23 C18 1_555 1_555
H12 C23 1_555 1_555
O7 Zn4 1_555 1_555
O8 C25 1_555 1_555
C24 C27 1_555 1_555
C25 O7 1_555 1_555
C26 C25 1_555 1_555
C27 C30 1_555 1_555
C28 C24 1_555 1_555
H13 C28 1_555 1_555
C29 C19 1_555 1_555
O9 C30 1_555 1_555
C30 O10 1_555 1_555
C31 C26 1_555 1_555
H14 C31 1_555 1_555
C32 C29 1_555 1_555
H15 C32 1_555 1_555
C33 C27 1_555 1_555
H16 C33 1_555 1_555
C34 C18 1_555 1_555
H17 C34 1_555 1_555
C35 C14 1_555 1_555
H18 C35 1_555 1_555
O10 Zn3C 1_555 1_555
O11 C36 1_555 1_555
O12 C36 1_555 1_555
C36 C21 1_555 1_555
N7 Zn4 1_555 1_555
C37 N7 1_555 1_555
H19 C37 1_555 1_555
N8 C37 1_555 1_555
N3F N3 1_555 1_555
C1F N1 1_555 1_555
H1F C1F 1_555 1_555
N5F N5 1_555 1_555
C4F N2 1_555 1_555
H3F C4F 1_555 1_555
N4F N4 1_555 1_555
C3F N6 1_555 1_555
H2F C3F 1_555 1_555
O1G C2G 1_555 1_555
O3G C2G 1_555 1_555
C2G C8G 1_555 1_555
C7G H5G 1_555 1_555
C8G C7G 1_555 1_555
C9G C7G 1_555 1_555
H6G C9G 1_555 1_555
C10G C8G 1_555 1_555
H7G C10G 1_555 1_555
C12G C10G 1_555 1_555
C15G C15 1_555 1_555
H9G C15G 1_555 1_555
C16G C12G 1_555 1_555
C17G C17 1_555 1_555
H10G C17G 1_555 1_555
C20G C9G 1_555 1_555
O5G C22G 1_555 1_555
C22G C20G 1_555 1_555
O6G C22G 1_555 1_555
N7F N7 1_555 1_555
C37F N8 1_555 1_555
H19F C37F 1_555 1_555
Zn1A O2A 1_555 1_555
Zn4A O7A 1_555 1_555
O2A C5A 1_555 1_555
O4A C5A 1_555 1_555
C5A C11A 1_555 1_555
C6A H4A 1_555 1_555
C11A C6A 1_555 1_555
C13A C6A 1_555 1_555
C14A C11A 1_555 1_555
H8A C14A 1_555 1_555
C18A C13A 1_555 1_555
C19A H11A 1_555 1_555
C21A C13A 1_555 1_555
C23A C18A 1_555 1_555
H12A C23A 1_555 1_555
O7A C25A 1_555 1_555
O8A C25A 1_555 1_555
C24A C27A 1_555 1_555
C25A C26A 1_555 1_555
C26A C28A 1_555 1_555
C27A C30A 1_555 1_555
C28A C24A 1_555 1_555
H13A C28A 1_555 1_555
C29A C19A 1_555 1_555
O9A C30A 1_555 1_555
C30A O10A 1_555 1_555
C31A C26A 1_555 1_555
H14A C31A 1_555 1_555
C32A C29A 1_555 1_555
H15A C32A 1_555 1_555
C33A C27A 1_555 1_555
H16A C33A 1_555 1_555
C34A C18A 1_555 1_555
H17A C34A 1_555 1_555
C35A C14A 1_555 1_555
H18A C35A 1_555 1_555
O10A Zn3 1_555 1_555
O11A Zn4 1_555 1_555
O12A C36A 1_555 1_555
C36A C21A 1_555 1_555
Zn1C O5 1_555 1_555
Zn1D O5G 1_555 1_555
Zn1F N3F 1_555 1_555
Zn2_2 N8 1_555 1_555
Zn2B O3G 1_555 1_555
Zn4C O11 1_555 1_555
Zn4F N5F 1_555 1_555
N3A Zn1A 1_555 1_555
N4A Zn1A 1_555 1_555
N5A Zn4A 1_555 1_555
O3F Zn2 1_555 1_555
O5A Zn1 1_555 1_555
O5B Zn1A 1_555 1_555
O6A Zn1 1_555 1_555
O6B Zn1A 1_555 1_555
O10D Zn3 1_555 1_555
O11B Zn4A 1_555 1_555
N7A Zn4A 1_555 1_555
N8_2 Zn2 1_555 1_555
N6 C3 1_555 1_555
C6 C11 1_555 1_555
C7 C8 1_555 1_555
C12 C20 1_555 1_555
C15 C16 1_555 1_555
C19 C23 1_555 1_555
C21 C35 1_555 1_555
O6 Zn1C 1_555 1_555
C24 C29 1_555 1_555
C26 C28 1_555 1_555
C31 C33 1_555 1_555
C32 C34 1_555 1_555
N3F C1F 1_555 1_555
N5F C4F 1_555 1_555
N4F C3F 1_555 1_555
N4F Zn1F 1_555 1_555
C12G C20G 1_555 1_555
C15G C16G 1_555 1_555
C16G C17G 1_555 1_555
O6G Zn1D 1_555 1_555
N7F C37F 1_555 1_555
N7F Zn4F 1_555 1_555
C19A C23A 1_555 1_555
C21A C35A 1_555 1_555
C24A C29A 1_555 1_555
C31A C33A 1_555 1_555
C32A C34A 1_555 1_555
O11A C36A 1_555 1_555

#END
