
#######################################################################
#
#                 Cambridge Crystallographic Data Centre
#                                CCDC 
#
#######################################################################
#
# If this CIF has been generated from an entry in the Cambridge 
# Structural Database, then it will include bibliographic, chemical, 
# crystal, experimental, refinement or atomic coordinate data resulting 
# from the CCDC's data processing and validation procedures.
#
#######################################################################

data_ADUWON
_chemical_formula_moiety         '(C108 H84 Ni3 O42 6-)n'
_symmetry_cell_setting           cubic
_symmetry_space_group_name_H-M   'I m -3 m'
_symmetry_Int_Tables_number      229
_space_group_name_Hall           '-I 4 2 3'
loop_
_symmetry_equiv_pos_site_id
_symmetry_equiv_pos_as_xyz
1 x,y,z
2 -x,-y,z
3 x,-y,-z
4 -x,y,-z
5 z,x,y
6 y,z,x
7 -z,-x,y
8 -y,z,-x
9 z,-x,-y
10 -y,-z,x
11 -z,x,-y
12 y,-z,-x
13 -y,-x,-z
14 y,x,-z
15 y,-x,z
16 -y,x,z
17 -x,-z,-y
18 -z,-y,-x
19 x,z,-y
20 -z,y,x
21 x,-z,y
22 z,y,-x
23 -x,z,y
24 z,-y,x
25 1/2+x,1/2+y,1/2+z
26 1/2-x,1/2-y,1/2+z
27 1/2+x,1/2-y,1/2-z
28 1/2-x,1/2+y,1/2-z
29 1/2+z,1/2+x,1/2+y
30 1/2+y,1/2+z,1/2+x
31 1/2-z,1/2-x,1/2+y
32 1/2-y,1/2+z,1/2-x
33 1/2+z,1/2-x,1/2-y
34 1/2-y,1/2-z,1/2+x
35 1/2-z,1/2+x,1/2-y
36 1/2+y,1/2-z,1/2-x
37 1/2-y,1/2-x,1/2-z
38 1/2+y,1/2+x,1/2-z
39 1/2+y,1/2-x,1/2+z
40 1/2-y,1/2+x,1/2+z
41 1/2-x,1/2-z,1/2-y
42 1/2-z,1/2-y,1/2-x
43 1/2+x,1/2+z,1/2-y
44 1/2-z,1/2+y,1/2+x
45 1/2+x,1/2-z,1/2+y
46 1/2+z,1/2+y,1/2-x
47 1/2-x,1/2+z,1/2+y
48 1/2+z,1/2-y,1/2+x
49 -x,-y,-z
50 x,y,-z
51 -x,y,z
52 x,-y,z
53 -z,-x,-y
54 -y,-z,-x
55 z,x,-y
56 y,-z,x
57 -z,x,y
58 y,z,-x
59 z,-x,y
60 -y,z,x
61 y,x,z
62 -y,-x,z
63 -y,x,-z
64 y,-x,-z
65 x,z,y
66 z,y,x
67 -x,-z,y
68 z,-y,-x
69 -x,z,-y
70 -z,-y,x
71 x,-z,-y
72 -z,y,-x
73 1/2-x,1/2-y,1/2-z
74 1/2+x,1/2+y,1/2-z
75 1/2-x,1/2+y,1/2+z
76 1/2+x,1/2-y,1/2+z
77 1/2-z,1/2-x,1/2-y
78 1/2-y,1/2-z,1/2-x
79 1/2+z,1/2+x,1/2-y
80 1/2+y,1/2-z,1/2+x
81 1/2-z,1/2+x,1/2+y
82 1/2+y,1/2+z,1/2-x
83 1/2+z,1/2-x,1/2+y
84 1/2-y,1/2+z,1/2+x
85 1/2+y,1/2+x,1/2+z
86 1/2-y,1/2-x,1/2+z
87 1/2-y,1/2+x,1/2-z
88 1/2+y,1/2-x,1/2-z
89 1/2+x,1/2+z,1/2+y
90 1/2+z,1/2+y,1/2+x
91 1/2-x,1/2-z,1/2+y
92 1/2+z,1/2-y,1/2-x
93 1/2-x,1/2+z,1/2-y
94 1/2-z,1/2-y,1/2+x
95 1/2+x,1/2-z,1/2-y
96 1/2-z,1/2+y,1/2-x
_cell_length_a                   30.0140(4)
_cell_length_b                   30.0140(4)
_cell_length_c                   30.0140(4)
_cell_angle_alpha                90
_cell_angle_beta                 90
_cell_angle_gamma                90
_cell_volume                     27037.8
loop_
_atom_site_label
_atom_site_type_symbol
_atom_site_fract_x
_atom_site_fract_y
_atom_site_fract_z
Ni1 Ni 0.0000 -0.0000 0.37657(6)
C1 C 0.06793(18) 0.06793(18) 0.3518(3)
C2 C 0.10191(14) 0.10191(14) 0.3686(2)
C3 C 0.1099(2) 0.1099(2) 0.4108(2)
H1 H 0.0938 0.0938 0.4319
C4 C 0.1374(2) 0.1374(2) 0.4242(2)
H2 H 0.1410 0.1410 0.4548
C5 C 0.1641(2) 0.1641(2) 0.3950(2)
H3 H 0.1847 0.1847 0.4055
C6 C 0.15711(14) 0.15711(14) 0.3501(2)
C7 C 0.12524(13) 0.12524(13) 0.3352(2)
H4 H 0.1201 0.1201 0.3051
C8 C 0.21207(13) 0.21207(13) 0.33140(18)
H5 H 0.2353 0.1982 0.3491
C9 C 0.23111(12) 0.23111(12) 0.28973(14)
O1 O 0.06390(12) 0.06390(12) 0.31089(18)
O2 O 0.04748(11) 0.04748(11) 0.38002(17)
O3 O 0.17918(9) 0.17918(9) 0.31775(12)
O4 O 0.0000 0.0000 0.3079(3)
O5 O -0.0000 -0.0000 0.4450(2)
C1NA C 0.43207(18) 0.1482(3) 0.43207(18)
C2NA C 0.39809(14) 0.1314(2) 0.39809(14)
C3NA C 0.3901(2) 0.0892(2) 0.3901(2)
H1NA H 0.4062 0.0681 0.4062
C4NA C 0.3626(2) 0.0758(2) 0.3626(2)
H2NA H 0.3590 0.0452 0.3590
C5NA C 0.3359(2) 0.1050(2) 0.3359(2)
H3NA H 0.3153 0.0945 0.3153
C6NA C 0.34289(14) 0.1499(2) 0.34289(14)
C7NA C 0.37476(13) 0.1648(2) 0.37476(13)
H4NA H 0.3799 0.1949 0.3799
C8NA C 0.28793(13) 0.16860(18) 0.28793(13)
H5NA H 0.2647 0.1509 0.3018
C9NA C 0.26889(12) 0.21027(14) 0.26889(12)
O1NA O 0.43610(12) 0.18911(18) 0.43610(12)
O2NA O 0.45252(11) 0.11998(17) 0.45252(11)
O3NA O 0.32082(9) 0.18225(12) 0.32082(9)
C1OA C 0.1482(3) 0.43207(18) 0.43207(18)
C2OA C 0.1314(2) 0.39809(14) 0.39809(14)
C3OA C 0.0892(2) 0.3901(2) 0.3901(2)
H1OA H 0.0681 0.4062 0.4062
C4OA C 0.0758(2) 0.3626(2) 0.3626(2)
H2OA H 0.0452 0.3590 0.3590
C5OA C 0.1050(2) 0.3359(2) 0.3359(2)
H3OA H 0.0945 0.3153 0.3153
C6OA C 0.1499(2) 0.34289(14) 0.34289(14)
C7OA C 0.1648(2) 0.37476(13) 0.37476(13)
H4OA H 0.1949 0.3799 0.3799
C8OA C 0.16860(18) 0.28793(13) 0.28793(13)
H5OA H 0.1509 0.3018 0.2647
C9OA C 0.21027(14) 0.26889(12) 0.26889(12)
O1OA O 0.18911(18) 0.43610(12) 0.43610(12)
O2OA O 0.11998(17) 0.45252(11) 0.45252(11)
O3OA O 0.18225(12) 0.32082(9) 0.32082(9)
H5HB H 0.1982 0.2353 0.3491
C1E C 0.06793(18) 0.3518(3) 0.06793(18)
C2E C 0.10191(14) 0.3686(2) 0.10191(14)
C3E C 0.1099(2) 0.4108(2) 0.1099(2)
H1E H 0.0938 0.4319 0.0938
C4E C 0.1374(2) 0.4242(2) 0.1374(2)
H2E H 0.1410 0.4548 0.1410
C5E C 0.1641(2) 0.3950(2) 0.1641(2)
H3E H 0.1847 0.4055 0.1847
C6E C 0.15711(14) 0.3501(2) 0.15711(14)
C7E C 0.12524(13) 0.3352(2) 0.12524(13)
H4E H 0.1201 0.3051 0.1201
C8E C 0.21207(13) 0.33140(18) 0.21207(13)
H5LB H 0.2353 0.3491 0.1982
C9E C 0.23111(12) 0.28973(14) 0.23111(12)
O1E O 0.06390(12) 0.31089(18) 0.06390(12)
O2E O 0.04748(11) 0.38002(17) 0.04748(11)
O3E O 0.17918(9) 0.31775(12) 0.17918(9)
C1D C 0.3518(3) 0.06793(18) 0.06793(18)
C2D C 0.3686(2) 0.10191(14) 0.10191(14)
C3D C 0.4108(2) 0.1099(2) 0.1099(2)
H1D H 0.4319 0.0938 0.0938
C4D C 0.4242(2) 0.1374(2) 0.1374(2)
H2D H 0.4548 0.1410 0.1410
C5D C 0.3950(2) 0.1641(2) 0.1641(2)
H3D H 0.4055 0.1847 0.1847
C6D C 0.3501(2) 0.15711(14) 0.15711(14)
C7D C 0.3352(2) 0.12524(13) 0.12524(13)
H4D H 0.3051 0.1201 0.1201
C8D C 0.33140(18) 0.21207(13) 0.21207(13)
H5MB H 0.3491 0.1982 0.2353
C9D C 0.28973(14) 0.23111(12) 0.23111(12)
O1D O 0.31089(18) 0.06390(12) 0.06390(12)
O2D O 0.38002(17) 0.04748(11) 0.04748(11)
O3D O 0.31775(12) 0.17918(9) 0.17918(9)
H5XB H 0.1509 0.2647 0.3018
H5YB H 0.3018 0.1509 0.2647
H5D H 0.3491 0.2353 0.1982
H5E H 0.1982 0.3491 0.2353
C1JA C 0.43207(18) 0.43207(18) 0.1482(3)
C2JA C 0.39809(14) 0.39809(14) 0.1314(2)
C3JA C 0.3901(2) 0.3901(2) 0.0892(2)
H1JA H 0.4062 0.4062 0.0681
C4JA C 0.3626(2) 0.3626(2) 0.0758(2)
H2JA H 0.3590 0.3590 0.0452
C5JA C 0.3359(2) 0.3359(2) 0.1050(2)
H3JA H 0.3153 0.3153 0.0945
C6JA C 0.34289(14) 0.34289(14) 0.1499(2)
C7JA C 0.37476(13) 0.37476(13) 0.1648(2)
H4JA H 0.3799 0.3799 0.1949
C8JA C 0.28793(13) 0.28793(13) 0.16860(18)
H5JA H 0.3018 0.2647 0.1509
C9JA C 0.26889(12) 0.26889(12) 0.21027(14)
O1JA O 0.43610(12) 0.43610(12) 0.18911(18)
O2JA O 0.45252(11) 0.45252(11) 0.11998(17)
O3JA O 0.32082(9) 0.32082(9) 0.18225(12)
H5TB H 0.2647 0.3018 0.1509
C1A C -0.06793(18) -0.06793(18) 0.3518(3)
C2A C -0.10191(14) -0.10191(14) 0.3686(2)
C3A C -0.1099(2) -0.1099(2) 0.4108(2)
H1A H -0.0938 -0.0938 0.4319
C4A C -0.1374(2) -0.1374(2) 0.4242(2)
H2A H -0.1410 -0.1410 0.4548
C5A C -0.1641(2) -0.1641(2) 0.3950(2)
H3A H -0.1847 -0.1847 0.4055
C6A C -0.15711(14) -0.15711(14) 0.3501(2)
C7A C -0.12524(13) -0.12524(13) 0.3352(2)
H4A H -0.1201 -0.1201 0.3051
C8A C -0.21207(13) -0.21207(13) 0.33140(18)
H5A H -0.2353 -0.1982 0.3491
C9A C -0.23111(12) -0.23111(12) 0.28973(14)
O1A O -0.06390(12) -0.06390(12) 0.31089(18)
O2A O -0.04748(11) -0.04748(11) 0.38002(17)
O3A O -0.17918(9) -0.17918(9) 0.31775(12)
C1PA C -0.43207(18) -0.1482(3) 0.43207(18)
C2PA C -0.39809(14) -0.1314(2) 0.39809(14)
C3PA C -0.3901(2) -0.0892(2) 0.3901(2)
H1PA H -0.4062 -0.0681 0.4062
C4PA C -0.3626(2) -0.0758(2) 0.3626(2)
H2PA H -0.3590 -0.0452 0.3590
C5PA C -0.3359(2) -0.1050(2) 0.3359(2)
H3PA H -0.3153 -0.0945 0.3153
C6PA C -0.34289(14) -0.1499(2) 0.34289(14)
C7PA C -0.37476(13) -0.1648(2) 0.37476(13)
H4PA H -0.3799 -0.1949 0.3799
C8PA C -0.28793(13) -0.16860(18) 0.28793(13)
H5PA H -0.2647 -0.1509 0.3018
C9PA C -0.26889(12) -0.21027(14) 0.26889(12)
O1PA O -0.43610(12) -0.18911(18) 0.43610(12)
O2PA O -0.45252(11) -0.11998(17) 0.45252(11)
O3PA O -0.32082(9) -0.18225(12) 0.32082(9)
C1SA C -0.1482(3) -0.43207(18) 0.43207(18)
C2SA C -0.1314(2) -0.39809(14) 0.39809(14)
C3SA C -0.0892(2) -0.3901(2) 0.3901(2)
H1SA H -0.0681 -0.4062 0.4062
C4SA C -0.0758(2) -0.3626(2) 0.3626(2)
H2SA H -0.0452 -0.3590 0.3590
C5SA C -0.1050(2) -0.3359(2) 0.3359(2)
H3SA H -0.0945 -0.3153 0.3153
C6SA C -0.1499(2) -0.34289(14) 0.34289(14)
C7SA C -0.1648(2) -0.37476(13) 0.37476(13)
H4SA H -0.1949 -0.3799 0.3799
C8SA C -0.16860(18) -0.28793(13) 0.28793(13)
H5SA H -0.1509 -0.3018 0.2647
C9SA C -0.21027(14) -0.26889(12) 0.26889(12)
O1SA O -0.18911(18) -0.43610(12) 0.43610(12)
O2SA O -0.11998(17) -0.45252(11) 0.45252(11)
O3SA O -0.18225(12) -0.32082(9) 0.32082(9)
H5IB H -0.1982 -0.2353 0.3491
C1I C -0.06793(18) -0.3518(3) 0.06793(18)
C2I C -0.10191(14) -0.3686(2) 0.10191(14)
C3I C -0.1099(2) -0.4108(2) 0.1099(2)
H1I H -0.0938 -0.4319 0.0938
C4I C -0.1374(2) -0.4242(2) 0.1374(2)
H2I H -0.1410 -0.4548 0.1410
C5I C -0.1641(2) -0.3950(2) 0.1641(2)
H3I H -0.1847 -0.4055 0.1847
C6I C -0.15711(14) -0.3501(2) 0.15711(14)
C7I C -0.12524(13) -0.3352(2) 0.12524(13)
H4I H -0.1201 -0.3051 0.1201
C8I C -0.21207(13) -0.33140(18) 0.21207(13)
H5NB H -0.2353 -0.3491 0.1982
C9I C -0.23111(12) -0.28973(14) 0.23111(12)
O1I O -0.06390(12) -0.31089(18) 0.06390(12)
O2I O -0.04748(11) -0.38002(17) 0.04748(11)
O3I O -0.17918(9) -0.31775(12) 0.17918(9)
C1F C -0.3518(3) -0.06793(18) 0.06793(18)
C2F C -0.3686(2) -0.10191(14) 0.10191(14)
C3F C -0.4108(2) -0.1099(2) 0.1099(2)
H1F H -0.4319 -0.0938 0.0938
C4F C -0.4242(2) -0.1374(2) 0.1374(2)
H2F H -0.4548 -0.1410 0.1410
C5F C -0.3950(2) -0.1641(2) 0.1641(2)
H3F H -0.4055 -0.1847 0.1847
C6F C -0.3501(2) -0.15711(14) 0.15711(14)
C7F C -0.3352(2) -0.12524(13) 0.12524(13)
H4F H -0.3051 -0.1201 0.1201
C8F C -0.33140(18) -0.21207(13) 0.21207(13)
H5QB H -0.3491 -0.1982 0.2353
C9F C -0.28973(14) -0.23111(12) 0.23111(12)
O1F O -0.31089(18) -0.06390(12) 0.06390(12)
O2F O -0.38002(17) -0.04748(11) 0.04748(11)
O3F O -0.31775(12) -0.17918(9) 0.17918(9)
H5ZB H -0.1509 -0.2647 0.3018
H5CC H -0.3018 -0.1509 0.2647
H5F H -0.3491 -0.2353 0.1982
H5I H -0.1982 -0.3491 0.2353
C1KA C -0.43207(18) -0.43207(18) 0.1482(3)
C2KA C -0.39809(14) -0.39809(14) 0.1314(2)
C3KA C -0.3901(2) -0.3901(2) 0.0892(2)
H1KA H -0.4062 -0.4062 0.0681
C4KA C -0.3626(2) -0.3626(2) 0.0758(2)
H2KA H -0.3590 -0.3590 0.0452
C5KA C -0.3359(2) -0.3359(2) 0.1050(2)
H3KA H -0.3153 -0.3153 0.0945
C6KA C -0.34289(14) -0.34289(14) 0.1499(2)
C7KA C -0.37476(13) -0.37476(13) 0.1648(2)
H4KA H -0.3799 -0.3799 0.1949
C8KA C -0.28793(13) -0.28793(13) 0.16860(18)
H5KA H -0.3018 -0.2647 0.1509
C9KA C -0.26889(12) -0.26889(12) 0.21027(14)
O1KA O -0.43610(12) -0.43610(12) 0.18911(18)
O2KA O -0.45252(11) -0.45252(11) 0.11998(17)
O3KA O -0.32082(9) -0.32082(9) 0.18225(12)
H5UB H -0.2647 -0.3018 0.1509
Ni1D Ni 0.37657(6) 0.0000 0.0000
O4D O 0.3079(3) 0.0000 0.0000
O5D O 0.4450(2) 0.0000 0.0000
Ni1E Ni -0.0000 0.37657(6) 0.0000
O4E O 0.0000 0.3079(3) 0.0000
O5E O -0.0000 0.4450(2) 0.0000
Ni1F Ni -0.37657(6) 0.0000 0.0000
Ni1I Ni 0.0000 -0.37657(6) 0.0000
Ni1Z Ni -0.5000 -0.5000 0.12343(6)
Ni1Z_2 Ni 0.5000 0.5000 0.12343(6)
Ni1BA Ni -0.12343(6) -0.5000 0.5000
Ni1CA Ni -0.5000 -0.12343(6) 0.5000
Ni1DA Ni 0.12343(6) 0.5000 0.5000
Ni1GA Ni 0.5000 0.12343(6) 0.5000
O2G O -0.04748(11) 0.38002(17) -0.04748(11)
O2H O 0.38002(17) -0.04748(11) -0.04748(11)
O2N O 0.04748(11) -0.04748(11) 0.38002(17)
O2O O -0.04748(11) 0.04748(11) 0.38002(17)
O2R O 0.04748(11) 0.38002(17) -0.04748(11)
O2U O 0.38002(17) 0.04748(11) -0.04748(11)
O2V O -0.04748(11) 0.38002(17) 0.04748(11)
O2W O 0.38002(17) -0.04748(11) 0.04748(11)
loop_
_geom_bond_atom_site_label_1
_geom_bond_atom_site_label_2
_geom_bond_site_symmetry_1
_geom_bond_site_symmetry_2
Ni1 O2 1_555 1_555
C1 C2 1_555 1_555
C2 C3 1_555 1_555
C3 H1 1_555 1_555
C4 C3 1_555 1_555
H2 C4 1_555 1_555
C5 C4 1_555 1_555
H3 C5 1_555 1_555
C6 C5 1_555 1_555
C7 C2 1_555 1_555
H4 C7 1_555 1_555
C8 H5 1_555 1_555
C9 C8 1_555 1_555
O1 C1 1_555 1_555
O2 C1 1_555 1_555
O3 C6 1_555 1_555
O4 Ni1 1_555 1_555
O5 Ni1 1_555 1_555
C1NA C2NA 1_555 1_555
C2NA C3NA 1_555 1_555
C3NA H1NA 1_555 1_555
C4NA C3NA 1_555 1_555
H2NA C4NA 1_555 1_555
C5NA C4NA 1_555 1_555
H3NA C5NA 1_555 1_555
C6NA C5NA 1_555 1_555
C7NA C2NA 1_555 1_555
H4NA C7NA 1_555 1_555
C8NA H5NA 1_555 1_555
C9NA C9 1_555 1_555
O1NA C1NA 1_555 1_555
O2NA C1NA 1_555 1_555
O3NA C6NA 1_555 1_555
C1OA C2OA 1_555 1_555
C2OA C3OA 1_555 1_555
C3OA H1OA 1_555 1_555
C4OA C3OA 1_555 1_555
H2OA C4OA 1_555 1_555
C5OA C4OA 1_555 1_555
H3OA C5OA 1_555 1_555
C6OA C5OA 1_555 1_555
C7OA C2OA 1_555 1_555
H4OA C7OA 1_555 1_555
C8OA H5OA 1_555 1_555
C9OA C9 1_555 1_555
O1OA C1OA 1_555 1_555
O2OA C1OA 1_555 1_555
O3OA C6OA 1_555 1_555
H5HB C8 1_555 1_555
C1E C2E 1_555 1_555
C2E C3E 1_555 1_555
C3E H1E 1_555 1_555
C4E C3E 1_555 1_555
H2E C4E 1_555 1_555
C5E C4E 1_555 1_555
H3E C5E 1_555 1_555
C6E C5E 1_555 1_555
C7E C2E 1_555 1_555
H4E C7E 1_555 1_555
C8E H5LB 1_555 1_555
C9E C9OA 1_555 1_555
O1E C1E 1_555 1_555
O2E C1E 1_555 1_555
O3E C6E 1_555 1_555
C1D C2D 1_555 1_555
C2D C3D 1_555 1_555
C3D H1D 1_555 1_555
C4D C3D 1_555 1_555
H2D C4D 1_555 1_555
C5D C4D 1_555 1_555
H3D C5D 1_555 1_555
C6D C5D 1_555 1_555
C7D C2D 1_555 1_555
H4D C7D 1_555 1_555
C8D H5MB 1_555 1_555
C9D C9NA 1_555 1_555
O1D C1D 1_555 1_555
O2D C1D 1_555 1_555
O3D C6D 1_555 1_555
H5XB C8OA 1_555 1_555
H5YB C8NA 1_555 1_555
H5D C8D 1_555 1_555
H5E C8E 1_555 1_555
C1JA C2JA 1_555 1_555
C2JA C3JA 1_555 1_555
C3JA H1JA 1_555 1_555
C4JA C3JA 1_555 1_555
H2JA C4JA 1_555 1_555
C5JA C4JA 1_555 1_555
H3JA C5JA 1_555 1_555
C6JA C5JA 1_555 1_555
C7JA C2JA 1_555 1_555
H4JA C7JA 1_555 1_555
C8JA H5JA 1_555 1_555
C9JA C9E 1_555 1_555
O1JA C1JA 1_555 1_555
O2JA C1JA 1_555 1_555
O3JA C6JA 1_555 1_555
H5TB C8JA 1_555 1_555
C1A C2A 1_555 1_555
C2A C3A 1_555 1_555
C3A H1A 1_555 1_555
C4A C3A 1_555 1_555
H2A C4A 1_555 1_555
C5A C4A 1_555 1_555
H3A C5A 1_555 1_555
C6A C5A 1_555 1_555
C7A C2A 1_555 1_555
H4A C7A 1_555 1_555
C8A H5A 1_555 1_555
C9A C8A 1_555 1_555
O1A C1A 1_555 1_555
O2A Ni1 1_555 1_555
O3A C6A 1_555 1_555
C1PA C2PA 1_555 1_555
C2PA C3PA 1_555 1_555
C3PA H1PA 1_555 1_555
C4PA C3PA 1_555 1_555
H2PA C4PA 1_555 1_555
C5PA C4PA 1_555 1_555
H3PA C5PA 1_555 1_555
C6PA C5PA 1_555 1_555
C7PA C2PA 1_555 1_555
H4PA C7PA 1_555 1_555
C8PA H5PA 1_555 1_555
C9PA C9A 1_555 1_555
O1PA C1PA 1_555 1_555
O2PA C1PA 1_555 1_555
O3PA C6PA 1_555 1_555
C1SA C2SA 1_555 1_555
C2SA C3SA 1_555 1_555
C3SA H1SA 1_555 1_555
C4SA C3SA 1_555 1_555
H2SA C4SA 1_555 1_555
C5SA C4SA 1_555 1_555
H3SA C5SA 1_555 1_555
C6SA C5SA 1_555 1_555
C7SA C2SA 1_555 1_555
H4SA C7SA 1_555 1_555
C8SA H5SA 1_555 1_555
C9SA C9A 1_555 1_555
O1SA C1SA 1_555 1_555
O2SA C1SA 1_555 1_555
O3SA C6SA 1_555 1_555
H5IB C8A 1_555 1_555
C1I C2I 1_555 1_555
C2I C3I 1_555 1_555
C3I H1I 1_555 1_555
C4I C3I 1_555 1_555
H2I C4I 1_555 1_555
C5I C4I 1_555 1_555
H3I C5I 1_555 1_555
C6I C5I 1_555 1_555
C7I C2I 1_555 1_555
H4I C7I 1_555 1_555
C8I H5NB 1_555 1_555
C9I C9SA 1_555 1_555
O1I C1I 1_555 1_555
O2I C1I 1_555 1_555
O3I C6I 1_555 1_555
C1F C2F 1_555 1_555
C2F C3F 1_555 1_555
C3F H1F 1_555 1_555
C4F C3F 1_555 1_555
H2F C4F 1_555 1_555
C5F C4F 1_555 1_555
H3F C5F 1_555 1_555
C6F C5F 1_555 1_555
C7F C2F 1_555 1_555
H4F C7F 1_555 1_555
C8F H5QB 1_555 1_555
C9F C9PA 1_555 1_555
O1F C1F 1_555 1_555
O2F C1F 1_555 1_555
O3F C6F 1_555 1_555
H5ZB C8SA 1_555 1_555
H5CC C8PA 1_555 1_555
H5F C8F 1_555 1_555
H5I C8I 1_555 1_555
C1KA C2KA 1_555 1_555
C2KA C3KA 1_555 1_555
C3KA H1KA 1_555 1_555
C4KA C3KA 1_555 1_555
H2KA C4KA 1_555 1_555
C5KA C4KA 1_555 1_555
H3KA C5KA 1_555 1_555
C6KA C5KA 1_555 1_555
C7KA C2KA 1_555 1_555
H4KA C7KA 1_555 1_555
C8KA H5KA 1_555 1_555
C9KA C9I 1_555 1_555
O1KA C1KA 1_555 1_555
O2KA C1KA 1_555 1_555
O3KA C6KA 1_555 1_555
H5UB C8KA 1_555 1_555
Ni1D O2D 1_555 1_555
O4D Ni1D 1_555 1_555
O5D Ni1D 1_555 1_555
Ni1E O2E 1_555 1_555
O4E Ni1E 1_555 1_555
O5E Ni1E 1_555 1_555
Ni1F O2F 1_555 1_555
Ni1I O2I 1_555 1_555
Ni1Z O2KA 1_555 1_555
Ni1Z_2 O2JA 1_555 1_555
Ni1BA O2SA 1_555 1_555
Ni1CA O2PA 1_555 1_555
Ni1DA O2OA 1_555 1_555
Ni1GA O2NA 1_555 1_555
O2G Ni1E 1_555 1_555
O2H Ni1D 1_555 1_555
O2N Ni1 1_555 1_555
O2O Ni1 1_555 1_555
O2R Ni1E 1_555 1_555
O2U Ni1D 1_555 1_555
O2V Ni1E 1_555 1_555
O2W Ni1D 1_555 1_555
C6 C7 1_555 1_555
C8 O3 1_555 1_555
C6NA C7NA 1_555 1_555
C8NA C9NA 1_555 1_555
C8NA O3NA 1_555 1_555
C6OA C7OA 1_555 1_555
C8OA C9OA 1_555 1_555
C8OA O3OA 1_555 1_555
C6E C7E 1_555 1_555
C8E C9E 1_555 1_555
C8E O3E 1_555 1_555
C6D C7D 1_555 1_555
C8D C9D 1_555 1_555
C8D O3D 1_555 1_555
C9D C9JA 1_555 1_555
C6JA C7JA 1_555 1_555
C8JA C9JA 1_555 1_555
C8JA O3JA 1_555 1_555
C1A O2A 1_555 1_555
C6A C7A 1_555 1_555
C8A O3A 1_555 1_555
C6PA C7PA 1_555 1_555
C8PA C9PA 1_555 1_555
C8PA O3PA 1_555 1_555
C6SA C7SA 1_555 1_555
C8SA C9SA 1_555 1_555
C8SA O3SA 1_555 1_555
C6I C7I 1_555 1_555
C8I C9I 1_555 1_555
C8I O3I 1_555 1_555
C6F C7F 1_555 1_555
C8F C9F 1_555 1_555
C8F O3F 1_555 1_555
C9F C9KA 1_555 1_555
C6KA C7KA 1_555 1_555
C8KA C9KA 1_555 1_555
C8KA O3KA 1_555 1_555

#END
