
#######################################################################
#
#                 Cambridge Crystallographic Data Centre
#                                CCDC 
#
#######################################################################
#
# If this CIF has been generated from an entry in the Cambridge 
# Structural Database, then it will include bibliographic, chemical, 
# crystal, experimental, refinement or atomic coordinate data resulting 
# from the CCDC's data processing and validation procedures.
#
#######################################################################

data_MAYFUN
_chemical_formula_moiety         '(C9 H22 Fe4 N2 O31 P4)n'
_symmetry_cell_setting           monoclinic
_symmetry_space_group_name_H-M   'P 21/n'
_symmetry_Int_Tables_number      14
_space_group_name_Hall           '-P 2yn'
loop_
_symmetry_equiv_pos_site_id
_symmetry_equiv_pos_as_xyz
1 x,y,z
2 1/2-x,1/2+y,1/2-z
3 -x,-y,-z
4 1/2+x,1/2-y,1/2+z
_cell_length_a                   9.2137(9)
_cell_length_b                   15.2014(15)
_cell_length_c                   12.0457(11)
_cell_angle_alpha                90
_cell_angle_beta                 101.893(2)
_cell_angle_gamma                90
_cell_volume                     1650.92
loop_
_atom_site_label
_atom_site_type_symbol
_atom_site_fract_x
_atom_site_fract_y
_atom_site_fract_z
P1 P 0.8945(2) 0.1073(2) 0.8908(2)
P2 P 0.4488(2) 0.0030(2) 0.8167(2)
O1 O 0.5195(7) 0.0829(4) 0.7747(5)
O2 O 0.8243(6) 0.1005(4) 0.7643(5)
O3 O 0.6001(7) 0.2432(4) 0.6906(5)
O4 O 0.6675(6) -0.0074(4) 0.5978(5)
O5 O 0.7383(6) 0.1693(4) 0.5436(5)
O6 O 0.4441(6) 0.1046(4) 0.5347(5)
O7 O 0.8153(7) 0.0521(4) 0.9634(5)
O8 O 0.3183(6) 0.0318(4) 0.8670(5)
O9 O 0.5578(6) -0.0532(4) 0.8981(5)
O10 O 1.0540(6) 0.0849(4) 0.8996(5)
O11 O 0.7936(7) 0.3031(4) 0.4834(5)
O12 O 0.6571(6) 0.3786(4) 0.6337(5)
O13 O 0.8828(8) 0.2041(4) 0.9319(6)
H1 H 0.9197(8) 0.2375(4) 0.8920(6)
O14 O 0.3830(7) -0.0540(4) 0.7100(5)
H2 H 0.3406(7) -0.0970(4) 0.7295(5)
C1 C 0.5648(10) -0.0324(6) 0.5183(8)
C2 C 0.7386(9) 0.2520(6) 0.5448(7)
C3 C 0.6578(9) 0.2957(6) 0.6311(7)
Fe1 Fe 0.63476(13) 0.11255(8) 0.66452(10)
Fe2 Fe 0.75220(13) -0.06193(8) 0.99795(10)
C1B C 0.4352(10) 0.0324(6) 0.4817(8)
Fe2B Fe 0.24780(13) 0.06193(8) 1.00205(10)
Fe2B_2 Fe 1.24780(13) 0.06193(8) 1.00205(10)
Fe2A Fe 0.74780(13) 0.43807(8) 0.50205(10)
O6B O 0.5559(6) -0.1046(4) 0.4653(5)
O8B O 0.6817(6) -0.0318(4) 1.1330(5)
O10B O 0.9460(6) -0.0849(4) 1.1004(5)
O11A O 0.7064(7) -0.1969(4) 1.0166(5)
O12A O 0.8429(6) -0.1214(4) 0.8663(5)
O4B O 0.3325(6) 0.0074(4) 0.4022(5)
Fe1B Fe 0.36524(13) -0.11255(8) 0.33548(10)
P2B P 0.5512(2) -0.0030(2) 1.1833(2)
P1B P 1.1055(2) -0.1073(2) 1.1092(2)
C2A C 0.7614(9) -0.2480(6) 0.9552(7)
C3A C 0.8422(9) -0.2043(6) 0.8689(7)
O1B O 0.4805(7) -0.0829(4) 1.2253(5)
O9B O 0.4422(6) 0.0532(4) 1.1019(5)
O14B O 0.6170(7) 0.0540(4) 1.2900(5)
O2B O 1.1757(6) -0.1005(4) 1.2357(5)
O7B O 1.1847(7) -0.0521(4) 1.0366(5)
O13B O 1.1172(8) -0.2041(4) 1.0681(6)
O5A O 0.7617(6) -0.3307(4) 0.9564(5)
O3A O 0.8999(7) -0.2568(4) 0.8094(5)
Fe1B_2 Fe 0.36524(13) -0.11255(8) 1.33548(10)
H2B H 0.6594(7) 0.0970(4) 1.2705(5)
Fe1B_3 Fe 1.36524(13) -0.11255(8) 1.33548(10)
H1B H 1.0803(8) -0.2375(4) 1.1080(6)
Fe1A Fe 0.86524(13) -0.38745(8) 0.83548(10)
O7B_2 O 0.1847(7) -0.0521(4) 1.0366(5)
O7A O 0.6847(7) 0.5521(4) 0.5366(5)
O8C O 0.8183(6) 0.4682(4) 0.3670(5)
O9A O 0.9422(6) 0.4468(4) 0.6019(5)
O10C O 0.5540(6) 0.4151(4) 0.3996(5)
O1B_2 O 0.4805(7) -0.0829(4) 0.2253(5)
O2B_2 O 0.1757(6) -0.1005(4) 0.2357(5)
O3B O 0.3999(7) -0.2432(4) 0.3094(5)
O5B O 0.2617(6) -0.1693(4) 0.4564(5)
O15 O 1.5052(13) 0.2098(6) 1.2736(8)
O16 O 0.6432(11) 0.2231(8) 1.0239(10)
O17 O 1.3122(42) 0.2458(24) 0.7633(26)
N1 N 1.0318(15) -0.0363(9) 0.7045(11)
C4 C 1.0000 0.0000 0.5000
C5 C 1.0521(35) 0.0352(13) 0.6199(9)
C5B C 0.9479(35) -0.0352(13) 0.3801(9)
N1B N 0.9682(15) 0.0363(9) 0.2955(11)
loop_
_geom_bond_atom_site_label_1
_geom_bond_atom_site_label_2
_geom_bond_site_symmetry_1
_geom_bond_site_symmetry_2
P1 O2 1_555 1_555
P2 O1 1_555 1_555
O1 Fe1 1_555 1_555
O2 Fe1 1_555 1_555
O3 C3 1_555 1_555
O4 C1 1_555 1_555
O5 C2 1_555 1_555
O6 Fe1 1_555 1_555
O7 P1 1_555 1_555
O8 P2 1_555 1_555
O9 P2 1_555 1_555
O10 P1 1_555 1_555
O11 C2 1_555 1_555
O12 C3 1_555 1_555
O13 P1 1_555 1_555
H1 O13 1_555 1_555
O14 P2 1_555 1_555
H2 O14 1_555 1_555
C1 C1B 1_555 1_555
C2 C3 1_555 1_555
Fe1 O3 1_555 1_555
Fe2 O7 1_555 1_555
N1 C5 1_555 1_555
C4 C5 1_555 1_555
C1B O6 1_555 1_555
Fe2B O8 1_555 1_555
Fe2B_2 O10 1_555 1_555
Fe2A O11 1_555 1_555
O6B C1 1_555 1_555
O8B Fe2 1_555 1_555
O10B Fe2 1_555 1_555
O11A Fe2 1_555 1_555
O12A Fe2 1_555 1_555
O4B C1B 1_555 1_555
Fe1B O6B 1_555 1_555
P2B O8B 1_555 1_555
P1B O10B 1_555 1_555
C2A O11A 1_555 1_555
C3A O12A 1_555 1_555
O1B P2B 1_555 1_555
O9B Fe2B 1_555 1_555
O14B P2B 1_555 1_555
O2B P1B 1_555 1_555
O7B Fe2B_2 1_555 1_555
O13B P1B 1_555 1_555
O5A C2A 1_555 1_555
O3A C3A 1_555 1_555
Fe1B_2 O1B 1_555 1_555
H2B O14B 1_555 1_555
Fe1B_3 O2B 1_555 1_555
H1B O13B 1_555 1_555
Fe1A O5A 1_555 1_555
O7B_2 Fe2B 1_555 1_555
O7A Fe2A 1_555 1_555
O8C Fe2A 1_555 1_555
O9A Fe2A 1_555 1_555
O10C Fe2A 1_555 1_555
O1B_2 Fe1B 1_555 1_555
O2B_2 Fe1B 1_555 1_555
O3B Fe1B 1_555 1_555
O5B Fe1B 1_555 1_555
C5B C4 1_555 1_555
N1B C5B 1_555 1_555
O4 Fe1 1_555 1_555
O5 Fe1 1_555 1_555
O9 Fe2 1_555 1_555
O12 Fe2A 1_555 1_555
O4B Fe1B 1_555 1_555
P2B O9B 1_555 1_555
P1B O7B 1_555 1_555
C2A C3A 1_555 1_555
O3A Fe1A 1_555 1_555

#END
