
#######################################################################
#
#                 Cambridge Crystallographic Data Centre
#                                CCDC 
#
#######################################################################
#
# If this CIF has been generated from an entry in the Cambridge 
# Structural Database, then it will include bibliographic, chemical, 
# crystal, experimental, refinement or atomic coordinate data resulting 
# from the CCDC's data processing and validation procedures.
#
#######################################################################

data_MAYGAU
_chemical_formula_moiety         'C19 H20 Fe16 N2 O126 P14'
_symmetry_cell_setting           monoclinic
_symmetry_space_group_name_H-M   'P 21/n'
_symmetry_Int_Tables_number      14
_space_group_name_Hall           '-P 2yn'
loop_
_symmetry_equiv_pos_site_id
_symmetry_equiv_pos_as_xyz
1 x,y,z
2 1/2-x,1/2+y,1/2-z
3 -x,-y,-z
4 1/2+x,1/2-y,1/2+z
_cell_length_a                   9.2664(6)
_cell_length_b                   15.2043(10)
_cell_length_c                   11.9840(9)
_cell_angle_alpha                90
_cell_angle_beta                 102.167(2)
_cell_angle_gamma                90
_cell_volume                     1650.49
loop_
_atom_site_label
_atom_site_type_symbol
_atom_site_fract_x
_atom_site_fract_y
_atom_site_fract_z
O2 O 0.6473(17) 0.2261(11) 1.0208(16)
O3 O 0.2133(59) 0.2126(37) 0.7259(47)
O4 O 0.5276(23) 0.4415(14) 1.0761(18)
N1 N 0.4631(26) 0.4731(16) 0.7944(22)
C1 C 0.5000 0.5000 1.0000
C2 C 0.5088(49) 0.4143(31) 0.8881(39)
O4B O 0.4724(23) 0.5585(14) 0.9239(18)
C2B C 0.4912(49) 0.5857(31) 1.1119(39)
N1B N 0.5369(26) 0.5269(16) 1.2056(22)
P1 P 0.8945(4) 0.1080(2) 0.8904(3)
P2 P 0.4492(3) 0.0027(2) 0.8163(3)
O5 O 0.5184(10) 0.0838(6) 0.7735(8)
O6 O 0.8209(9) 0.1024(6) 0.7645(7)
O7 O 0.5996(9) 0.2454(5) 0.6903(7)
O8 O 0.6663(9) -0.0065(6) 0.5983(7)
O9 O 0.7381(10) 0.1705(5) 0.5442(8)
O10 O 0.4438(9) 0.1048(6) 0.5338(8)
O11 O 0.8194(10) 0.0523(6) 0.9648(7)
O12 O 0.3160(9) 0.0308(6) 0.8632(7)
O13 O 0.5565(9) -0.0520(6) 0.9011(7)
O14 O 1.0547(9) 0.0867(6) 0.8983(7)
O15 O 0.7950(10) 0.3034(6) 0.4825(8)
O16 O 0.6590(9) 0.3782(5) 0.6332(7)
O17 O 0.8861(11) 0.2038(6) 0.9341(9)
H1 H 0.9225(11) 0.2375(6) 0.8942(9)
O18 O 0.3880(9) -0.0548(6) 0.7080(7)
H2 H 0.3457(9) -0.0981(6) 0.7265(7)
C3 C 0.5633(14) -0.0311(9) 0.5188(12)
C4 C 0.7382(13) 0.2538(9) 0.5444(10)
C5 C 0.6591(12) 0.2967(9) 0.6309(10)
Fe1 Fe 0.6320(2) 0.11428(12) 0.6652(2)
Fe2 Fe 0.7520(2) -0.06164(12) 0.9998(2)
Fe2B Fe 0.2480(2) 0.06164(12) 1.0002(2)
O11B O 0.1806(10) -0.0523(6) 1.0352(7)
P1B P 0.1055(4) -0.1080(2) 1.1096(3)
O6B O 0.1791(9) -0.1024(6) 1.2355(7)
Fe1B Fe 0.3680(2) -0.11428(12) 1.3348(2)
O5B O 0.4816(10) -0.0838(6) 1.2265(8)
P2B P 0.5508(3) -0.0027(2) 1.1837(3)
O12B O 0.6840(9) -0.0308(6) 1.1368(7)
Fe2B_2 Fe 1.2480(2) 0.06164(12) 1.0002(2)
O11B_2 O 1.1806(10) -0.0523(6) 1.0352(7)
O12_2 O 1.3160(9) 0.0308(6) 0.8632(7)
O13B O 1.4435(9) 0.0520(6) 1.0989(7)
P2B_2 P 1.5508(3) -0.0027(2) 1.1837(3)
O5B_2 O 1.4816(10) -0.0838(6) 1.2265(8)
O12B_2 O 1.6840(9) -0.0308(6) 1.1368(7)
O18B O 1.6120(9) 0.0548(6) 1.2920(7)
H2B H 1.6543(9) 0.0981(6) 1.2735(7)
O15C O 1.2950(10) 0.1966(6) 0.9825(8)
C4C C 1.2382(13) 0.2462(9) 1.0444(10)
O9C O 1.2381(10) 0.3295(5) 1.0442(8)
Fe1C Fe 1.1320(2) 0.38572(12) 1.1652(2)
O5C O 1.0184(10) 0.4162(6) 1.2735(8)
P2C P 0.9492(3) 0.4973(2) 1.3163(3)
O12C O 0.8160(9) 0.4692(6) 1.3632(7)
Fe2A Fe 0.7480(2) 0.43836(12) 1.5002(2)
O11A O 0.6806(10) 0.5523(6) 1.5352(7)
P1A P 0.6055(4) 0.6080(2) 1.6096(3)
O6A O 0.6791(9) 0.6024(6) 1.7355(7)
Fe1A Fe 0.8680(2) 0.61428(12) 1.8348(2)
O5A O 0.9816(10) 0.5838(6) 1.7265(8)
P2A P 1.0508(3) 0.5027(2) 1.6837(3)
O12A O 1.1840(9) 0.5308(6) 1.6368(7)
Fe2C Fe 1.2520(2) 0.56164(12) 1.4998(2)
O11C O 1.3194(10) 0.4477(6) 1.4648(7)
P1C P 1.3945(4) 0.3920(2) 1.3904(3)
O6C O 1.3209(9) 0.3976(6) 1.2645(7)
O7C O 1.0996(9) 0.2546(5) 1.1903(7)
C5C C 1.1591(12) 0.2033(9) 1.1309(10)
O16C O 1.1590(9) 0.1218(5) 1.1332(7)
O8C O 1.1663(9) 0.5065(6) 1.0983(7)
C3C C 1.0633(14) 0.5311(9) 1.0188(12)
O10A O 1.0562(9) 0.6048(6) 0.9662(8)
Fe1A_2 Fe 0.8680(2) 0.61428(12) 0.8348(2)
O5A_2 O 0.9816(10) 0.5838(6) 0.7265(8)
O6A_2 O 0.6791(9) 0.6024(6) 0.7355(7)
O7A O 0.9004(9) 0.7454(5) 0.8097(7)
C5A C 0.8409(12) 0.7967(9) 0.8691(10)
O16A O 0.8410(9) 0.8782(5) 0.8668(7)
Fe2_2 Fe 0.7520(2) 0.93836(12) 0.9998(2)
O11_2 O 0.8194(10) 1.0523(6) 0.9648(7)
O12B_3 O 0.6840(9) 0.9692(6) 1.1368(7)
O13_2 O 0.5565(9) 0.9480(6) 0.9011(7)
P2_2 P 0.4492(3) 1.0027(2) 0.8163(3)
O5_2 O 0.5184(10) 1.0838(6) 0.7735(8)
O12_3 O 0.3160(9) 1.0308(6) 0.8632(7)
O18_2 O 0.3880(9) 0.9452(6) 0.7080(7)
H2_2 H 0.3457(9) 0.9019(6) 0.7265(7)
O14B O 0.9453(9) 0.9133(6) 1.1017(7)
P1B_2 P 1.1055(4) 0.8920(2) 1.1096(3)
O6B_2 O 1.1791(9) 0.8976(6) 1.2355(7)
O11B_3 O 1.1806(10) 0.9477(6) 1.0352(7)
O17B O 1.1139(11) 0.7962(6) 1.0659(9)
H1B H 1.0775(11) 0.7625(6) 1.1058(9)
O15A O 0.7050(10) 0.8034(6) 1.0175(8)
C4A C 0.7618(13) 0.7538(9) 0.9556(10)
O9A O 0.7619(10) 0.6705(5) 0.9558(8)
O8A O 0.8337(9) 0.4935(6) 0.9017(7)
C3A C 0.9367(14) 0.4689(9) 0.9812(12)
O10C O 0.9438(9) 0.3952(6) 1.0338(8)
O14C O 1.5547(9) 0.4133(6) 1.3983(7)
Fe2A_2 Fe 1.7480(2) 0.43836(12) 1.5002(2)
O11A_2 O 1.6806(10) 0.5523(6) 1.5352(7)
O12C_2 O 1.8160(9) 0.4692(6) 1.3632(7)
O13A O 1.9435(9) 0.4480(6) 1.5989(7)
P2A_2 P 2.0508(3) 0.5027(2) 1.6837(3)
O5A_3 O 1.9816(10) 0.5838(6) 1.7265(8)
O12A_2 O 2.1840(9) 0.5308(6) 1.6368(7)
O18A O 2.1120(9) 0.4452(6) 1.7920(7)
H2A H 2.1543(9) 0.4019(6) 1.7735(7)
O15_2 O 1.7950(10) 0.3034(6) 1.4825(8)
C4_2 C 1.7382(13) 0.2538(9) 1.5444(10)
O9_2 O 1.7381(10) 0.1705(5) 1.5442(8)
Fe1_2 Fe 1.6320(2) 0.11428(12) 1.6652(2)
O5_3 O 1.5184(10) 0.0838(6) 1.7735(8)
O6_2 O 1.8209(9) 0.1024(6) 1.7645(7)
O7_2 O 1.5996(9) 0.2454(5) 1.6903(7)
C5_2 C 1.6591(12) 0.2967(9) 1.6309(10)
O16_2 O 1.6590(9) 0.3782(5) 1.6332(7)
O8_2 O 1.6663(9) -0.0065(6) 1.5983(7)
C3_2 C 1.5633(14) -0.0311(9) 1.5188(12)
O10B O 1.5562(9) -0.1048(6) 1.4662(8)
Fe1B_2 Fe 1.3680(2) -0.11428(12) 1.3348(2)
O6B_3 O 1.1791(9) -0.1024(6) 1.2355(7)
O7B O 1.4004(9) -0.2454(5) 1.3097(7)
C5B C 1.3409(12) -0.2967(9) 1.3691(10)
O16B O 1.3410(9) -0.3782(5) 1.3668(7)
Fe2C_2 Fe 1.2520(2) -0.43836(12) 1.4998(2)
O11C_2 O 1.3194(10) -0.5523(6) 1.4648(7)
O12A_3 O 1.1840(9) -0.4692(6) 1.6368(7)
O13C O 1.0565(9) -0.4480(6) 1.4011(7)
P2C_2 P 0.9492(3) -0.5027(2) 1.3163(3)
O5C_2 O 1.0184(10) -0.5838(6) 1.2735(8)
O12C_3 O 0.8160(9) -0.5308(6) 1.3632(7)
O18C O 0.8880(9) -0.4452(6) 1.2080(7)
H2C H 0.8457(9) -0.4019(6) 1.2265(7)
O14A O 1.4453(9) -0.4133(6) 1.6017(7)
P1A_2 P 1.6055(4) -0.3920(2) 1.6096(3)
O6A_3 O 1.6791(9) -0.3976(6) 1.7355(7)
O11A_3 O 1.6806(10) -0.4477(6) 1.5352(7)
O17A O 1.6139(11) -0.2962(6) 1.5659(9)
H1A H 1.5775(11) -0.2625(6) 1.6058(9)
O15B O 1.2050(10) -0.3034(6) 1.5175(8)
C4B C 1.2618(13) -0.2538(9) 1.4556(10)
O9B O 1.2619(10) -0.1705(5) 1.4558(8)
O8B O 1.3337(9) 0.0065(6) 1.4017(7)
C3B C 1.4367(14) 0.0311(9) 1.4812(12)
O10_2 O 1.4438(9) 0.1048(6) 1.5338(8)
O17C O 1.3861(11) 0.2962(6) 1.4341(9)
H1C H 1.4225(11) 0.2625(6) 1.3942(9)
O13C_2 O 1.0565(9) 0.5520(6) 1.4011(7)
O14A_2 O 1.4453(9) 0.5867(6) 1.6017(7)
O15B_2 O 1.2050(10) 0.6966(6) 1.5175(8)
O16B_2 O 1.3410(9) 0.6218(5) 1.3668(7)
O13A_2 O 0.9435(9) 0.4480(6) 1.5989(7)
O18A_2 O 1.1120(9) 0.4452(6) 1.7920(7)
H2A_2 H 1.1543(9) 0.4019(6) 1.7735(7)
O7A_2 O 0.9004(9) 0.7454(5) 1.8097(7)
O8A_2 O 0.8337(9) 0.4935(6) 1.9017(7)
O9A_2 O 0.7619(10) 0.6705(5) 1.9558(8)
O10A_2 O 1.0562(9) 0.6048(6) 1.9662(8)
O14A_3 O 0.4453(9) 0.5867(6) 1.6017(7)
O17A_2 O 0.6139(11) 0.7038(6) 1.5659(9)
H1A_2 H 0.5775(11) 0.7375(6) 1.6058(9)
O14C_2 O 0.5547(9) 0.4133(6) 1.3983(7)
O15_3 O 0.7950(10) 0.3034(6) 1.4825(8)
O16_3 O 0.6590(9) 0.3782(5) 1.6332(7)
O18C_2 O 0.8880(9) 0.5548(6) 1.2080(7)
H2C_2 H 0.8457(9) 0.5981(6) 1.2265(7)
O14B_2 O 0.9453(9) -0.0867(6) 1.1017(7)
O15A_2 O 0.7050(10) -0.1966(6) 1.0175(8)
O16A_2 O 0.8410(9) -0.1218(5) 0.8668(7)
O13B_2 O 0.4435(9) 0.0520(6) 1.0989(7)
O18B_2 O 0.6120(9) 0.0548(6) 1.2920(7)
H2B_2 H 0.6543(9) 0.0981(6) 1.2735(7)
O7B_2 O 0.4004(9) -0.2454(5) 1.3097(7)
O8B_2 O 0.3337(9) 0.0065(6) 1.4017(7)
O9B_2 O 0.2619(10) -0.1705(5) 1.4558(8)
O10B_2 O 0.5562(9) -0.1048(6) 1.4662(8)
O14B_3 O -0.0547(9) -0.0867(6) 1.1017(7)
O17B_2 O 0.1139(11) -0.2038(6) 1.0659(9)
H1B_2 H 0.0775(11) -0.2375(6) 1.1058(9)
O14_2 O 0.0547(9) 0.0867(6) 0.8983(7)
O15C_2 O 0.2950(10) 0.1966(6) 0.9825(8)
O16C_2 O 0.1590(9) 0.1218(5) 1.1332(7)
C3B_2 C 0.4367(14) 0.0311(9) 0.4812(12)
Fe2A_3 Fe 0.7480(2) 0.43836(12) 0.5002(2)
O10B_3 O 0.5562(9) -0.1048(6) 0.4662(8)
O8B_3 O 0.3337(9) 0.0065(6) 0.4017(7)
O1 O 0.0080(25) 0.2911(10) 0.7736(14)
loop_
_geom_bond_atom_site_label_1
_geom_bond_atom_site_label_2
_geom_bond_site_symmetry_1
_geom_bond_site_symmetry_2
O4 C1 1_555 1_555
N1 C2 1_555 1_555
C1 C2 1_555 1_555
P1 O6 1_555 1_555
P2 O5 1_555 1_555
O5 Fe1 1_555 1_555
O6 Fe1 1_555 1_555
O7 C5 1_555 1_555
O8 C3 1_555 1_555
O9 C4 1_555 1_555
O10 Fe1 1_555 1_555
O11 P1 1_555 1_555
O12 P2 1_555 1_555
O13 P2 1_555 1_555
O14 P1 1_555 1_555
O15 C4 1_555 1_555
O16 C5 1_555 1_555
O17 P1 1_555 1_555
H1 O17 1_555 1_555
O18 P2 1_555 1_555
H2 O18 1_555 1_555
C3 C3B_2 1_555 1_555
C4 C5 1_555 1_555
Fe1 O7 1_555 1_555
Fe2 O11 1_555 1_555
O4B C1 1_555 1_555
C2B C1 1_555 1_555
N1B C2B 1_555 1_555
Fe2B O12 1_555 1_555
O11B Fe2B 1_555 1_555
P1B O11B 1_555 1_555
O6B P1B 1_555 1_555
Fe1B O6B 1_555 1_555
O5B Fe1B 1_555 1_555
P2B O5B 1_555 1_555
O12B Fe2 1_555 1_555
Fe2B_2 O14 1_555 1_555
O11B_2 Fe2B_2 1_555 1_555
O12_2 Fe2B_2 1_555 1_555
O13B Fe2B_2 1_555 1_555
P2B_2 O13B 1_555 1_555
O5B_2 P2B_2 1_555 1_555
O12B_2 P2B_2 1_555 1_555
O18B P2B_2 1_555 1_555
H2B O18B 1_555 1_555
O15C Fe2B_2 1_555 1_555
C4C O15C 1_555 1_555
O9C C4C 1_555 1_555
Fe1C O9C 1_555 1_555
O5C Fe1C 1_555 1_555
P2C O5C 1_555 1_555
O12C P2C 1_555 1_555
Fe2A O12C 1_555 1_555
O11A Fe2A 1_555 1_555
P1A O11A 1_555 1_555
O6A P1A 1_555 1_555
Fe1A O6A 1_555 1_555
O5A Fe1A 1_555 1_555
P2A O5A 1_555 1_555
O12A P2A 1_555 1_555
Fe2C O12A 1_555 1_555
O11C Fe2C 1_555 1_555
P1C O11C 1_555 1_555
O6C Fe1C 1_555 1_555
O7C Fe1C 1_555 1_555
C5C C4C 1_555 1_555
O16C Fe2B_2 1_555 1_555
O8C Fe1C 1_555 1_555
C3C O8C 1_555 1_555
O10A C3C 1_555 1_555
Fe1A_2 O10A 1_555 1_555
O5A_2 Fe1A_2 1_555 1_555
O6A_2 Fe1A_2 1_555 1_555
O7A Fe1A_2 1_555 1_555
C5A O7A 1_555 1_555
O16A C5A 1_555 1_555
Fe2_2 O16A 1_555 1_555
O11_2 Fe2_2 1_555 1_555
O12B_3 Fe2_2 1_555 1_555
O13_2 Fe2_2 1_555 1_555
P2_2 O13_2 1_555 1_555
O5_2 P2_2 1_555 1_555
O12_3 P2_2 1_555 1_555
O18_2 P2_2 1_555 1_555
H2_2 O18_2 1_555 1_555
O14B Fe2_2 1_555 1_555
P1B_2 O14B 1_555 1_555
O6B_2 P1B_2 1_555 1_555
O11B_3 P1B_2 1_555 1_555
O17B P1B_2 1_555 1_555
H1B O17B 1_555 1_555
O15A Fe2_2 1_555 1_555
C4A C5A 1_555 1_555
O9A Fe1A_2 1_555 1_555
O8A Fe1A_2 1_555 1_555
C3A C3C 1_555 1_555
O10C Fe1C 1_555 1_555
O14C P1C 1_555 1_555
Fe2A_2 O14C 1_555 1_555
O11A_2 Fe2A_2 1_555 1_555
O12C_2 Fe2A_2 1_555 1_555
O13A Fe2A_2 1_555 1_555
P2A_2 O13A 1_555 1_555
O5A_3 P2A_2 1_555 1_555
O12A_2 P2A_2 1_555 1_555
O18A P2A_2 1_555 1_555
H2A O18A 1_555 1_555
O15_2 Fe2A_2 1_555 1_555
C4_2 O15_2 1_555 1_555
O9_2 C4_2 1_555 1_555
Fe1_2 O9_2 1_555 1_555
O5_3 Fe1_2 1_555 1_555
O6_2 Fe1_2 1_555 1_555
O7_2 Fe1_2 1_555 1_555
C5_2 C4_2 1_555 1_555
O16_2 Fe2A_2 1_555 1_555
O8_2 Fe1_2 1_555 1_555
C3_2 O8_2 1_555 1_555
O10B C3_2 1_555 1_555
Fe1B_2 O5B_2 1_555 1_555
O6B_3 Fe1B_2 1_555 1_555
O7B Fe1B_2 1_555 1_555
C5B O7B 1_555 1_555
O16B C5B 1_555 1_555
Fe2C_2 O16B 1_555 1_555
O11C_2 Fe2C_2 1_555 1_555
O12A_3 Fe2C_2 1_555 1_555
O13C Fe2C_2 1_555 1_555
P2C_2 O13C 1_555 1_555
O5C_2 P2C_2 1_555 1_555
O12C_3 P2C_2 1_555 1_555
O18C P2C_2 1_555 1_555
H2C O18C 1_555 1_555
O14A Fe2C_2 1_555 1_555
P1A_2 O14A 1_555 1_555
O6A_3 P1A_2 1_555 1_555
O11A_3 P1A_2 1_555 1_555
O17A P1A_2 1_555 1_555
H1A O17A 1_555 1_555
O15B Fe2C_2 1_555 1_555
C4B C5B 1_555 1_555
O9B Fe1B_2 1_555 1_555
O8B Fe1B_2 1_555 1_555
C3B C3_2 1_555 1_555
O10_2 Fe1_2 1_555 1_555
O17C P1C 1_555 1_555
H1C O17C 1_555 1_555
O13C_2 P2C 1_555 1_555
O14A_2 Fe2C 1_555 1_555
O15B_2 Fe2C 1_555 1_555
O16B_2 Fe2C 1_555 1_555
O13A_2 Fe2A 1_555 1_555
O18A_2 P2A 1_555 1_555
H2A_2 O18A_2 1_555 1_555
O7A_2 Fe1A 1_555 1_555
O8A_2 Fe1A 1_555 1_555
O9A_2 Fe1A 1_555 1_555
O10A_2 Fe1A 1_555 1_555
O14A_3 P1A 1_555 1_555
O17A_2 P1A 1_555 1_555
H1A_2 O17A_2 1_555 1_555
O14C_2 Fe2A 1_555 1_555
O15_3 Fe2A 1_555 1_555
O16_3 Fe2A 1_555 1_555
O18C_2 P2C 1_555 1_555
H2C_2 O18C_2 1_555 1_555
O14B_2 Fe2 1_555 1_555
O15A_2 Fe2 1_555 1_555
O16A_2 Fe2 1_555 1_555
O13B_2 Fe2B 1_555 1_555
O18B_2 P2B 1_555 1_555
H2B_2 O18B_2 1_555 1_555
O7B_2 Fe1B 1_555 1_555
O8B_2 Fe1B 1_555 1_555
O9B_2 Fe1B 1_555 1_555
O10B_2 Fe1B 1_555 1_555
O14B_3 P1B 1_555 1_555
O17B_2 P1B 1_555 1_555
H1B_2 O17B_2 1_555 1_555
O14_2 Fe2B 1_555 1_555
O15C_2 Fe2B 1_555 1_555
O16C_2 Fe2B 1_555 1_555
C3B_2 O10 1_555 1_555
Fe2A_3 O15 1_555 1_555
O10B_3 C3 1_555 1_555
O8B_3 C3B_2 1_555 1_555
O8 Fe1 1_555 1_555
O9 Fe1 1_555 1_555
O13 Fe2 1_555 1_555
O16 Fe2A_3 1_555 1_555
P2B O12B 1_555 1_555
P2B O13B_2 1_555 1_555
P2A O13A_2 1_555 1_555
Fe2C O13C_2 1_555 1_555
P1C O6C 1_555 1_555
O7C C5C 1_555 1_555
C5C O16C 1_555 1_555
O15A C4A 1_555 1_555
C4A O9A 1_555 1_555
O8A C3A 1_555 1_555
C3A O10C 1_555 1_555
O7_2 C5_2 1_555 1_555
C5_2 O16_2 1_555 1_555
O10B Fe1B_2 1_555 1_555
O15B C4B 1_555 1_555
C4B O9B 1_555 1_555
O8B C3B 1_555 1_555
C3B O10_2 1_555 1_555

#END
