
#######################################################################
#
#                 Cambridge Crystallographic Data Centre
#                                CCDC 
#
#######################################################################
#
# If this CIF has been generated from an entry in the Cambridge 
# Structural Database, then it will include bibliographic, chemical, 
# crystal, experimental, refinement or atomic coordinate data resulting 
# from the CCDC's data processing and validation procedures.
#
#######################################################################

data_SUPLOF
_chemical_formula_moiety         '(C30 H40 N6 O10 Zn1)n'
_symmetry_cell_setting           tetragonal
_symmetry_space_group_name_H-M   'P -4 21 c'
_symmetry_Int_Tables_number      114
_space_group_name_Hall           'P -4 2n'
loop_
_symmetry_equiv_pos_site_id
_symmetry_equiv_pos_as_xyz
1 x,y,z
2 -x,-y,z
3 1/2+x,1/2-y,1/2-z
4 1/2-x,1/2+y,1/2-z
5 1/2+y,1/2+x,1/2+z
6 1/2-y,1/2-x,1/2+z
7 -y,x,-z
8 y,-x,-z
_cell_length_a                   17.48(2)
_cell_length_b                   17.48(2)
_cell_length_c                   22.69(2)
_cell_angle_alpha                90
_cell_angle_beta                 90
_cell_angle_gamma                90
_cell_volume                     6932.94
loop_
_atom_site_label
_atom_site_type_symbol
_atom_site_fract_x
_atom_site_fract_y
_atom_site_fract_z
_atom_site_U_iso_or_equiv
_atom_site_thermal_displace_type
Zn1 Zn 0.43167(3) 0.91705(3) 0.20296(3) 0.0292 Uani
N1 N 0.4330(2) 0.9214(2) 0.2991(2) 0.0310 Uani
N2 N 0.4169(3) 0.9322(3) 0.6097(2) 0.0353 Uani
C1 C 0.4184(4) 0.9242(3) 0.4864(2) 0.0353 Uani
C2 C 0.4225(4) 0.9227(4) 0.4214(3) 0.0403 Uani
O1 O 0.3779(2) 1.0186(2) 0.2027(2) 0.0417 Uani
C3 C 0.3931(3) 1.0875(3) 0.2097(2) 0.0287 Uani
C4 C 0.3841(4) 0.9850(4) 0.5165(3) 0.0490 Uani
H1 H 0.3601 1.0251 0.4950 0.0590 Uiso
O2 O 0.4116(2) 1.2531(2) 0.2363(2) 0.0527 Uani
H2 H 0.4455 1.2209 0.2280 0.0790 Uiso
C5 C 0.3300(3) 1.1404(3) 0.2268(2) 0.0310 Uani
C6 C 0.2819(4) 1.2628(4) 0.2564(3) 0.0423 Uani
H3 H 0.2904 1.3152 0.2654 0.0500 Uiso
C7 C 0.3432(3) 1.2180(3) 0.2392(3) 0.0367 Uani
C8 C 0.2082(3) 1.2333(4) 0.2611(3) 0.0370 Uani
C9 C 0.4887(3) 0.8935(4) 0.3329(3) 0.0373 Uani
H4 H 0.5326 0.8728 0.3141 0.0450 Uiso
O3 O 0.1240(2) 1.1236(3) 0.2508(3) 0.0700 Uani
H5 H 0.0914 1.1581 0.2572 0.1050 Uiso
C10 C 0.4471(4) 0.8722(4) 0.5813(3) 0.0453 Uani
H6 H 0.4680 0.8314 0.6038 0.0540 Uiso
C11 C 0.3713(4) 0.9494(4) 0.3264(3) 0.0423 Uani
H7 H 0.3307 0.9690 0.3030 0.0510 Uiso
C12 C 0.3851(4) 0.9870(4) 0.5762(3) 0.0453 Uani
H8 H 0.3620 1.0295 0.5954 0.0550 Uiso
C13 C 0.4490(4) 0.8674(4) 0.5212(3) 0.0477 Uani
H9 H 0.4719 0.8240 0.5031 0.0570 Uiso
C14 C 0.1958(3) 1.1555(4) 0.2486(3) 0.0437 Uani
C15 C 0.4862(4) 0.8930(4) 0.3930(3) 0.0400 Uani
H10 H 0.5276 0.8726 0.4151 0.0480 Uiso
C16 C 0.2560(3) 1.1104(3) 0.2320(3) 0.0367 Uani
H11 H 0.2474 1.0578 0.2239 0.0440 Uiso
C17 C 0.3640(4) 0.9513(4) 0.3868(3) 0.0450 Uani
H12 H 0.3193 0.9721 0.4045 0.0540 Uiso
O4 O 0.4589(2) 1.1170(2) 0.2051(2) 0.0383 Uani
O5 O 0.1615(2) 1.3521(3) 0.2918(2) 0.0533 Uani
O6 O 0.0773(3) 1.2596(3) 0.2789(2) 0.0657 Uani
C19 C 0.1451(4) 1.2847(5) 0.2787(3) 0.0520 Uani
Zn1D Zn 0.41705(3) 0.93167(3) 0.70296(3) 0.0292 Uani
Zn1A Zn 0.56833(3) 1.08295(3) 0.20296(3) 0.0292 Uani
Zn1C Zn 0.06833(3) 1.41705(3) 0.29704(3) 0.0292 Uani
N2D N 0.4322(3) 0.9169(3) 0.1097(2) 0.0353 Uani
O4A O 0.5411(2) 0.8830(2) 0.2051(2) 0.0383 Uani
O5C O 0.3385(2) 0.8521(3) 0.2082(2) 0.0533 Uani
N3 N 0.7358(4) 0.2885(5) 0.0766(3) 0.0747 Uani
C18 C 0.7724(8) 0.2174(8) 0.0781(5) 0.1203 Uani
H13 H 0.8278 0.2251 0.0817 0.1810 Uiso
H14 H 0.7613 0.1894 0.0417 0.1810 Uiso
H15 H 0.7538 0.1880 0.1120 0.1810 Uiso
C20 C 0.6550(6) 0.2846(8) 0.0688(5) 0.1237 Uani
H16 H 0.6338 0.3365 0.0680 0.1860 Uiso
H17 H 0.6322 0.2560 0.1016 0.1860 Uiso
H18 H 0.6434 0.2587 0.0316 0.1860 Uiso
O7 O 0.8406(6) 0.3538(7) 0.0874(8) 0.2080 Uani
C21 C 0.7723(7) 0.3562(7) 0.0822(7) 0.1360 Uani
H19 H 0.7453 0.4033 0.0820 0.1630 Uiso
N4 N 0.9097(7) 0.0812(6) 0.1124(5) 0.1210 Uani
O8 O 0.8375(7) 0.0280(6) 0.0372(5) 0.1543 Uani
C22 C 0.8955(9) 0.0674(9) 0.0567(6) 0.1377 Uani
H20 H 0.9301 0.0876 0.0284 0.1650 Uiso
C24 C 0.8667(10) 0.0455(9) 0.1585(6) 0.1630 Uani
H22 H 0.8439 0.0849 0.1837 0.2440 Uiso
H23 H 0.9007 0.0132 0.1821 0.2440 Uiso
H24 H 0.8261 0.0140 0.1412 0.2440 Uiso
C27 C 0.9688(8) 0.1347(11) 0.1275(8) 0.1777 Uani
H31 H 0.9934 0.1533 0.0915 0.2680 Uiso
H32 H 1.0068 0.1093 0.1525 0.2680 Uiso
H33 H 0.9463 0.1779 0.1489 0.2680 Uiso
N5 N 0.4141(5) 0.4211(5) 0.1120(4) 0.0960 Uani
C23 C 0.3876(8) 0.4399(8) 0.0591(6) 0.1223 Uani
H21 H 0.4147 0.4241 0.0249 0.1470 Uiso
O9 O 0.3263(6) 0.4787(7) 0.0536(4) 0.1603 Uani
C25 C 0.3780(10) 0.4432(9) 0.1650(6) 0.1663 Uani
H25 H 0.3456 0.4880 0.1577 0.2480 Uiso
H26 H 0.4169 0.4560 0.1944 0.2480 Uiso
H27 H 0.3464 0.4010 0.1795 0.2480 Uiso
C26 C 0.4794(8) 0.3724(9) 0.1153(7) 0.1523 Uani
H28 H 0.5253 0.4034 0.1219 0.2280 Uiso
H29 H 0.4847 0.3440 0.0783 0.2280 Uiso
H30 H 0.4730 0.3363 0.1480 0.2280 Uiso
N6 N 0.2394(6) 0.2056(5) 0.0819(3) 0.0893 Uani
C28 C 0.1613(9) 0.2123(12) 0.0948(6) 0.1883 Uani
H34 H 0.1534 0.2056 0.1373 0.2800 Uiso
H35 H 0.1328 0.1729 0.0733 0.2800 Uiso
H36 H 0.1432 0.2630 0.0829 0.2800 Uiso
C29 C 0.2895(19) 0.2634(9) 0.0870(6) 0.2590 Uani
H37 H 0.2827 0.3155 0.0979 0.3110 Uiso
C30 C 0.2764(15) 0.1377(10) 0.0675(6) 0.1910 Uani
H38 H 0.2406 0.1035 0.0472 0.2870 Uiso
H39 H 0.2948 0.1129 0.1036 0.2870 Uiso
H40 H 0.3199 0.1487 0.0416 0.2870 Uiso
O10 O 0.3656(9) 0.216(2) 0.0686(8) 0.3743 Uani
loop_
_atom_site_aniso_label
_atom_site_aniso_U_11
_atom_site_aniso_U_22
_atom_site_aniso_U_33
_atom_site_aniso_U_23
_atom_site_aniso_U_13
_atom_site_aniso_U_12
Zn1 0.0247(3) 0.0259(3) 0.0369(4) -0.0024(3) -0.0043(3) -0.0030(2)
N1 0.027 0.036 0.03 -0.001 -0.001 -0.007
N2 0.03 0.032 0.044 -0.002 -0.003 0.007
C1 0.031 0.041 0.034 -0.005 -0.001 0.004
C2 0.044 0.036 0.041 -0.004 -0.002 0.001
O1 0.039(2) 0.032(2) 0.054(3) -0.011(2) -0.013(2) 0.0084(18)
C3 0.029(3) 0.033(3) 0.024(3) 0.001(3) -0.004(2) 0.006(3)
C4 0.053 0.053 0.041 -0.007 -0.01 0.014
O2 0.033(2) 0.034(2) 0.091(4) 0.004(2) 0.002(2) -0.005(2)
C5 0.033(3) 0.032(3) 0.028(3) 0.003(2) -0.003(2) 0.001(2)
C6 0.048(4) 0.034(3) 0.045(4) 0.001(3) -0.010(3) 0.011(3)
C7 0.032(3) 0.032(3) 0.046(4) 0.006(3) -0.003(3) -0.001(3)
C8 0.026(3) 0.049(4) 0.036(4) 0.010(3) -0.002(3) 0.006(3)
C9 0.026 0.044 0.042 -0.003 -0.004 0.002
O3 0.029(2) 0.057(3) 0.124(4) 0.013(3) 0.006(3) 0.002(2)
C10 0.06 0.036 0.04 0 -0.004 0.012
C11 0.034 0.047 0.046 -0.006 -0.006 0.012
C12 0.042 0.048 0.046 -0.013 -0.006 0.017
C13 0.057 0.048 0.038 -0.008 -0.001 0.012
C14 0.029(3) 0.042(4) 0.060(4) 0.010(3) 0.001(3) -0.001(3)
C15 0.026 0.047 0.047 -0.002 -0.011 0
C16 0.028(3) 0.035(3) 0.047(4) 0.003(3) -0.007(3) 0.002(3)
C17 0.029 0.059 0.047 -0.006 -0.004 0.014
O4 0.026 0.046 0.043 0.004 0.003 0.002
O5 0.051 0.063 0.046 -0.002 -0.005 0.031
O6 0.035(3) 0.082(3) 0.080(4) 0.014(3) 0.003(2) 0.026(3)
C19 0.051(5) 0.063(5) 0.042(4) 0.011(3) -0.005(3) 0.024(4)
Zn1D 0.0259 0.0247 0.0369 -0.0043 -0.0024 -0.003
Zn1A 0.0247 0.0259 0.0369 0.0024 0.0043 -0.003
Zn1C 0.0247 0.0259 0.0369 0.0024 -0.0043 0.003
N2D 0.032(3) 0.030(3) 0.044(3) -0.003(2) -0.002(2) 0.007(3)
O4A 0.026 0.046 0.043 -0.004 -0.003 0.002
O5C 0.051 0.063 0.046 0.002 -0.005 -0.031
N3 0.063(4) 0.088(5) 0.073(5) 0.024(4) 0.005(4) -0.017(4)
C18 0.141(11) 0.142(12) 0.078(7) 0.006(7) 0.014(7) 0.040(9)
C20 0.075(7) 0.174(12) 0.122(9) 0.053(9) 0.002(7) -0.046(8)
O7 0.093(7) 0.201(12) 0.33(2) -0.018(11) 0.012(8) -0.072(8)
C21 0.066(7) 0.103(9) 0.239(16) 0.020(9) 0.003(8) -0.043(7)
N4 0.136(9) 0.125(8) 0.102(7) -0.001(7) 0.019(7) 0.020(7)
O8 0.157(9) 0.117(7) 0.189(10) -0.033(7) 0.036(7) -0.022(7)
C22 0.161(14) 0.132(12) 0.120(11) -0.025(9) 0.045(9) -0.045(11)
C24 0.233(18) 0.141(12) 0.115(10) 0.043(9) 0.066(11) 0.048(12)
C27 0.094(10) 0.24(2) 0.199(17) -0.001(14) -0.044(10) -0.028(12)
N5 0.095(6) 0.105(6) 0.088(6) 0.033(5) -0.018(5) -0.020(6)
C23 0.109(10) 0.139(11) 0.119(10) 0.018(9) -0.014(8) 0.013(9)
O9 0.139(8) 0.177(10) 0.165(9) 0.021(7) -0.003(7) 0.052(8)
C25 0.26(2) 0.142(12) 0.097(9) -0.006(9) 0.029(11) -0.046(13)
C26 0.120(11) 0.160(13) 0.177(14) 0.059(11) -0.036(10) -0.014(10)
N6 0.126(8) 0.074(6) 0.068(5) 0.015(4) -0.038(5) 0.005(5)
C28 0.134(13) 0.32(3) 0.111(11) 0.072(13) -0.003(9) 0.087(15)
C29 0.58(5) 0.114(11) 0.083(10) 0.047(8) -0.138(18) -0.16(2)
C30 0.34(3) 0.132(13) 0.101(10) 0.039(10) 0.010(14) 0.095(17)
O10 0.139(12) 0.75(5) 0.234(18) -0.03(2) -0.019(11) 0.23(2)
loop_
_geom_bond_atom_site_label_1
_geom_bond_atom_site_label_2
_geom_bond_site_symmetry_1
_geom_bond_site_symmetry_2
Zn1 N1 1_555 1_555
N1 C9 1_555 1_555
N2 C10 1_555 1_555
C1 C2 1_555 1_555
C2 C15 1_555 1_555
O1 Zn1 1_555 1_555
C3 O1 1_555 1_555
C4 C1 1_555 1_555
H1 C4 1_555 1_555
O2 H2 1_555 1_555
C5 C3 1_555 1_555
C6 H3 1_555 1_555
C7 O2 1_555 1_555
C8 C6 1_555 1_555
C9 H4 1_555 1_555
O3 H5 1_555 1_555
C10 H6 1_555 1_555
C11 N1 1_555 1_555
H7 C11 1_555 1_555
C12 N2 1_555 1_555
H8 C12 1_555 1_555
C13 C1 1_555 1_555
H9 C13 1_555 1_555
C14 C8 1_555 1_555
C15 C9 1_555 1_555
H10 C15 1_555 1_555
C16 C5 1_555 1_555
H11 C16 1_555 1_555
C17 C2 1_555 1_555
H12 C17 1_555 1_555
O4 C3 1_555 1_555
O5 C19 1_555 1_555
O6 C19 1_555 1_555
N3 C18 1_555 1_555
C18 H13 1_555 1_555
H14 C18 1_555 1_555
H15 C18 1_555 1_555
C19 C8 1_555 1_555
C20 N3 1_555 1_555
H16 C20 1_555 1_555
H17 C20 1_555 1_555
H18 C20 1_555 1_555
O7 C21 1_555 1_555
C21 N3 1_555 1_555
H19 C21 1_555 1_555
N4 C22 1_555 1_555
N5 C23 1_555 1_555
O8 C22 1_555 1_555
C22 H20 1_555 1_555
C23 H21 1_555 1_555
O9 C23 1_555 1_555
C24 N4 1_555 1_555
H22 C24 1_555 1_555
H23 C24 1_555 1_555
H24 C24 1_555 1_555
C25 N5 1_555 1_555
H25 C25 1_555 1_555
H26 C25 1_555 1_555
H27 C25 1_555 1_555
C26 N5 1_555 1_555
H28 C26 1_555 1_555
H29 C26 1_555 1_555
H30 C26 1_555 1_555
C27 N4 1_555 1_555
H31 C27 1_555 1_555
H32 C27 1_555 1_555
H33 C27 1_555 1_555
N6 C28 1_555 1_555
C28 H34 1_555 1_555
H35 C28 1_555 1_555
H36 C28 1_555 1_555
C29 N6 1_555 1_555
H37 C29 1_555 1_555
C30 N6 1_555 1_555
H38 C30 1_555 1_555
H39 C30 1_555 1_555
H40 C30 1_555 1_555
O10 C29 1_555 1_555
Zn1D N2 1_555 1_555
Zn1A O4 1_555 1_555
Zn1C O5 1_555 1_555
N2D Zn1 1_555 1_555
O4A Zn1 1_555 1_555
O5C Zn1 1_555 1_555
C4 C12 1_555 1_555
C5 C7 1_555 1_555
C6 C7 1_555 1_555
O3 C14 1_555 1_555
C10 C13 1_555 1_555
C11 C17 1_555 1_555
C14 C16 1_555 1_555

#END
