
#######################################################################
#
#                 Cambridge Crystallographic Data Centre
#                                CCDC 
#
#######################################################################
#
# If this CIF has been generated from an entry in the Cambridge 
# Structural Database, then it will include bibliographic, chemical, 
# crystal, experimental, refinement or atomic coordinate data resulting 
# from the CCDC's data processing and validation procedures.
#
#######################################################################

data_VATYAR
_chemical_formula_moiety         '(C8 H20 N4 Nd2 O21)n'
_symmetry_cell_setting           triclinic
_symmetry_space_group_name_H-M   'P -1'
_symmetry_Int_Tables_number      2
_space_group_name_Hall           '-P 1'
loop_
_symmetry_equiv_pos_site_id
_symmetry_equiv_pos_as_xyz
1 x,y,z
2 -x,-y,-z
_cell_length_a                   8.507(3)
_cell_length_b                   9.762(4)
_cell_length_c                   10.249(4)
_cell_angle_alpha                62.378(5)
_cell_angle_beta                 76.681(5)
_cell_angle_gamma                73.858(5)
_cell_volume                     719.227
loop_
_atom_site_label
_atom_site_type_symbol
_atom_site_fract_x
_atom_site_fract_y
_atom_site_fract_z
Nd1 Nd 0.33386(3) 0.36924(3) 0.83930(2)
O1 O 0.0757(4) 0.3105(4) 1.0111(4)
O2 O 0.3142(4) 0.0909(4) 0.9246(4)
O3 O 0.5313(5) 0.3111(4) 0.6447(4)
O4 O 0.5417(5) 0.5155(5) 0.8200(4)
O5 O 0.4265(4) -0.1656(4) 1.0374(4)
O6 O -0.1302(4) 0.3963(4) 1.1519(4)
O7 O 0.6534(5) 0.6106(5) 0.9281(4)
O8 O 0.6525(4) 0.4015(4) 0.4108(4)
O9 O 0.1322(5) 0.3717(6) 0.6930(5)
C1 C -0.0158(6) 0.4154(5) 1.0472(5)
C2 C 0.4255(5) -0.0216(5) 0.9891(5)
C3 C 0.5531(5) 0.4171(5) 0.5158(5)
C4 C 0.5571(6) 0.5375(5) 0.9266(5)
Nd1A Nd -0.33386(3) 0.63076(3) 1.16070(2)
Nd1A_2 Nd 0.66614(3) -0.36924(3) 1.16070(2)
Nd1A_3 Nd 0.66614(3) 0.63076(3) 1.16070(2)
Nd1A_4 Nd 0.66614(3) 0.63076(3) 0.16070(2)
O1A O -0.0757(4) 0.6895(4) 0.9889(4)
O2A O 0.6858(4) -0.0909(4) 1.0754(4)
O2A_2 O -0.3142(4) 0.9091(4) 1.0754(4)
O3A O 0.4687(5) 0.6889(4) 0.3553(4)
O3A_2 O -0.5313(5) 0.6889(4) 1.3553(4)
O4A O 0.4583(5) 0.4845(5) 1.1800(4)
O4A_2 O -0.5417(5) 0.4845(5) 1.1800(4)
O5A O 0.5735(4) 0.1656(4) 0.9626(4)
O5_2 O -0.5735(4) 0.8344(4) 1.0374(4)
O6A O 0.1302(4) 0.6037(4) 0.8481(4)
O7A O 0.3466(5) 0.3894(5) 1.0719(4)
O7_2 O -0.3466(5) 0.6106(5) 0.9281(4)
O8A O 0.3475(4) 0.5985(4) 0.5892(4)
O8_2 O -0.3475(4) 0.4015(4) 1.4108(4)
O9A O -0.1322(5) 0.6283(6) 1.3070(5)
C1A C 0.0158(6) 0.5846(5) 0.9528(5)
C2A C 0.5745(5) 0.0216(5) 1.0109(5)
C3A C 0.4469(5) 0.5829(5) 0.4842(5)
C4A C 0.4429(6) 0.4625(5) 1.0734(5)
O10 O -0.021(2) 0.8095(19) 0.565(2)
O11 O 0.2224(14) 0.8929(12) 0.7715(12)
N1 N 0.614(4) -0.029(4) 0.696(4)
N2 N 0.484(3) 0.024(3) 0.605(3)
N3 N -0.143(2) 0.1281(19) 0.7108(19)
N4 N -0.099(3) 0.191(2) 0.793(2)
O12 O -0.1755(12) 0.5738(12) 0.6090(11)
loop_
_geom_bond_atom_site_label_1
_geom_bond_atom_site_label_2
_geom_bond_site_symmetry_1
_geom_bond_site_symmetry_2
Nd1 O1 1_555 1_555
O1 C1 1_555 1_555
O2 Nd1 1_555 1_555
O3 Nd1 1_555 1_555
O4 Nd1 1_555 1_555
O5 C2 1_555 1_555
O6 C1 1_555 1_555
O7 C4 1_555 1_555
O8 C3 1_555 1_555
O9 Nd1 1_555 1_555
C1 C1A 1_555 1_555
C2 O2 1_555 1_555
C3 O3 1_555 1_555
C4 O4 1_555 1_555
N1 N2 1_555 1_555
N3 N4 1_555 1_555
Nd1A O6 1_555 1_555
Nd1A_2 O5 1_555 1_555
Nd1A_3 O7 1_555 1_555
Nd1A_4 O8 1_555 1_555
O1A Nd1A 1_555 1_555
O2A Nd1A_2 1_555 1_555
O2A_2 Nd1A 1_555 1_555
O3A Nd1A_4 1_555 1_555
O3A_2 Nd1A 1_555 1_555
O4A Nd1A_3 1_555 1_555
O4A_2 Nd1A 1_555 1_555
O5A Nd1 1_555 1_555
O5_2 Nd1A 1_555 1_555
O6A Nd1 1_555 1_555
O7A Nd1 1_555 1_555
O7_2 Nd1A 1_555 1_555
O8A Nd1 1_555 1_555
O8_2 Nd1A 1_555 1_555
O9A Nd1A 1_555 1_555
C1A O1A 1_555 1_555
C2A C2 1_555 1_555
C3A C3 1_555 1_555
C4A C4 1_555 1_555
O2A C2A 1_555 1_555
O3A C3A 1_555 1_555
O4A C4A 1_555 1_555
O5A C2A 1_555 1_555
O6A C1A 1_555 1_555
O7A C4A 1_555 1_555
O8A C3A 1_555 1_555

#END
