
#######################################################################
#
#                 Cambridge Crystallographic Data Centre
#                                CCDC 
#
#######################################################################
#
# If this CIF has been generated from an entry in the Cambridge 
# Structural Database, then it will include bibliographic, chemical, 
# crystal, experimental, refinement or atomic coordinate data resulting 
# from the CCDC's data processing and validation procedures.
#
#######################################################################

data_BIDPAH
_chemical_formula_moiety         '(C24 H15 In1 N1 O8 1-)n'
_symmetry_cell_setting           rhombohedral
_symmetry_space_group_name_H-M   'R -3 c'
_symmetry_Int_Tables_number      167
_space_group_name_Hall           '-R 3 2"c'
loop_
_symmetry_equiv_pos_site_id
_symmetry_equiv_pos_as_xyz
1 x,y,z
2 -y,x-y,z
3 -x+y,-x,z
4 y,x,1/2-z
5 x-y,-y,1/2-z
6 -x,-x+y,1/2-z
7 2/3+x,1/3+y,1/3+z
8 2/3-y,1/3+x-y,1/3+z
9 2/3-x+y,1/3-x,1/3+z
10 2/3+y,1/3+x,5/6-z
11 2/3+x-y,1/3-y,5/6-z
12 2/3-x,1/3-x+y,5/6-z
13 1/3+x,2/3+y,2/3+z
14 1/3-y,2/3+x-y,2/3+z
15 1/3-x+y,2/3-x,2/3+z
16 1/3+y,2/3+x,1/6-z
17 1/3+x-y,2/3-y,1/6-z
18 1/3-x,2/3-x+y,1/6-z
19 -x,-y,-z
20 y,-x+y,-z
21 x-y,x,-z
22 -y,-x,1/2+z
23 -x+y,y,1/2+z
24 x,x-y,1/2+z
25 1/3-x,2/3-y,2/3-z
26 1/3+y,2/3-x+y,2/3-z
27 1/3+x-y,2/3+x,2/3-z
28 1/3-y,2/3-x,1/6+z
29 1/3-x+y,2/3+y,1/6+z
30 1/3+x,2/3+x-y,1/6+z
31 2/3-x,1/3-y,1/3-z
32 2/3+y,1/3-x+y,1/3-z
33 2/3+x-y,1/3+x,1/3-z
34 2/3-y,1/3-x,5/6+z
35 2/3-x+y,1/3+y,5/6+z
36 2/3+x,1/3+x-y,5/6+z
_cell_length_a                   38.2369(10)
_cell_length_b                   38.2369(10)
_cell_length_c                   22.7356(12)
_cell_angle_alpha                90
_cell_angle_beta                 90
_cell_angle_gamma                120
_cell_volume                     28787.4
loop_
_atom_site_label
_atom_site_type_symbol
_atom_site_fract_x
_atom_site_fract_y
_atom_site_fract_z
_atom_site_U_iso_or_equiv
_atom_site_thermal_displace_type
In1 In 0.411383(7) 0.078050(7) 0.0833 0.0779 Uani
N1 N 0.6667 0.11489(10) 0.0833 0.0972 Uani
O1 O 0.46590(6) 0.07451(6) 0.11442(11) 0.0982 Uani
O2 O 0.46951(6) 0.10389(6) 0.03052(10) 0.1055 Uani
O3 O 0.62293(6) -0.05040(7) -0.00306(9) 0.1057 Uani
O4 O 0.60590(7) -0.01060(7) -0.04566(10) 0.1166 Uani
C1 C 0.48486(10) 0.09212(9) 0.07065(19) 0.0922 Uani
C2 C 0.52770(9) 0.10145(9) 0.06055(17) 0.0932 Uani
C3 C 0.54957(10) 0.12221(10) 0.01211(17) 0.1177 Uani
H1 H 0.5379 0.1308 -0.0162 0.1410 Uiso
C4 C 0.58938(10) 0.13056(10) 0.00518(17) 0.1209 Uani
H2 H 0.6043 0.1456 -0.0271 0.1450 Uiso
C5 C 0.60677(8) 0.11705(8) 0.04489(17) 0.0872 Uani
C6 C 0.58417(9) 0.09582(9) 0.09221(16) 0.1034 Uani
H3 H 0.5953 0.0862 0.1197 0.1240 Uiso
C7 C 0.54528(9) 0.08821(8) 0.10053(15) 0.1047 Uani
H4 H 0.5309 0.0740 0.1336 0.1260 Uiso
C8 C 0.64917(8) 0.12698(9) 0.03513(15) 0.1048 Uani
H5 H 0.6503 0.1139 -0.0008 0.1260 Uiso
H6 H 0.6657 0.1559 0.0293 0.1260 Uiso
C9 C 0.6667 0.07817(12) 0.0833 0.0828 Uani
C10 C 0.64557(7) 0.04864(9) 0.04156(13) 0.0871 Uani
H7 H 0.6308 0.0531 0.0130 0.1040 Uiso
C11 C 0.64596(8) 0.01348(9) 0.04137(14) 0.0785 Uani
C12 C 0.6667 0.00575(11) 0.0833 0.0790 Uani
H8 H 0.6667 -0.0186 0.0833 0.0950 Uiso
C13 C 0.62341(9) -0.01672(11) -0.00542(17) 0.0917 Uani
O1Q O 0.86743(6) 0.27528(8) 0.05225(11) 0.0982 Uani
O2Q O 0.86382(6) 0.30105(8) 0.13615(10) 0.1055 Uani
O3Q O 0.71040(6) -0.00666(9) 0.16973(9) 0.1057 Uani
O4Q O 0.72743(7) 0.05017(10) 0.21233(10) 0.1166 Uani
C1Q C 0.84847(10) 0.27393(13) 0.09602(19) 0.0922 Uani
C2Q C 0.80563(9) 0.24042(13) 0.10612(17) 0.0932 Uani
C3Q C 0.78376(10) 0.23931(14) 0.15456(17) 0.1177 Uani
H1Q H 0.7954 0.2596 0.1829 0.1410 Uiso
C4Q C 0.74395(10) 0.20785(14) 0.16149(17) 0.1209 Uani
H2Q H 0.7290 0.2080 0.1938 0.1450 Uiso
C5Q C 0.72656(8) 0.17695(11) 0.12178(17) 0.0872 Uani
C6Q C 0.74916(9) 0.17832(13) 0.07446(16) 0.1034 Uani
H3Q H 0.7380 0.1576 0.0470 0.1240 Uiso
C7Q C 0.78805(9) 0.20960(12) 0.06614(15) 0.1047 Uani
H4Q H 0.8024 0.2098 0.0331 0.1260 Uiso
C8Q C 0.68416(8) 0.14448(12) 0.13154(15) 0.1048 Uani
H5Q H 0.6830 0.1303 0.1675 0.1260 Uiso
H6Q H 0.6676 0.1569 0.1374 0.1260 Uiso
C10Q C 0.68776(7) 0.06974(11) 0.12511(13) 0.0871 Uani
H7Q H 0.7025 0.0890 0.1537 0.1040 Uiso
C11Q C 0.68737(8) 0.03419(12) 0.12530(14) 0.0785 Uani
C13Q C 0.70992(9) 0.02654(14) 0.17209(17) 0.0917 Uani
In1A In 0.921950(7) 0.333333(10) 0.0833 0.0779 Uani
In1R In 0.588617(7) -0.078050(7) -0.0833 0.0779 Uani
In1EA In 0.744717(7) 0.000000(10) 0.2500 0.0779 Uani
O1O O 0.40784(6) 0.13257(6) 0.05225(11) 0.0982 Uani
O2O O 0.43722(6) 0.13618(6) 0.13615(10) 0.1055 Uani
O3R O 0.37707(6) 0.05040(7) 0.00306(9) 0.1057 Uani
O3AA O 0.38373(7) 0.04374(6) 0.16361(9) 0.1057 Uani
O4R O 0.39410(7) 0.01060(7) 0.04566(10) 0.1166 Uani
O4AA O 0.34393(7) 0.06077(7) 0.12101(10) 0.1166 Uani
loop_
_atom_site_aniso_label
_atom_site_aniso_U_11
_atom_site_aniso_U_22
_atom_site_aniso_U_33
_atom_site_aniso_U_23
_atom_site_aniso_U_13
_atom_site_aniso_U_12
In1 0.06661(15) 0.06661(15) 0.1043(2) 0.00543(9) -0.00543(9) 0.03608(17)
N1 0.052(2) 0.0694(19) 0.164(4) 0.0009(11) 0.002(2) 0.0258(10)
O1 0.0637(14) 0.0958(16) 0.133(2) 0.0181(13) 0.0093(13) 0.0382(12)
O2 0.0753(14) 0.1036(16) 0.144(2) 0.0042(14) -0.0039(13) 0.0495(13)
O3 0.0887(15) 0.1015(16) 0.1253(18) -0.0211(14) -0.0204(13) 0.0464(13)
O4 0.1196(18) 0.1101(18) 0.1113(19) -0.0048(14) -0.0324(15) 0.0508(15)
C1 0.064(3) 0.071(2) 0.140(4) -0.008(2) -0.015(2) 0.0325(19)
C2 0.062(2) 0.084(2) 0.134(3) 0.023(2) 0.006(2) 0.0369(18)
C3 0.085(3) 0.139(3) 0.145(3) 0.046(3) 0.018(2) 0.068(2)
C4 0.078(2) 0.130(3) 0.156(4) 0.045(2) 0.024(2) 0.053(2)
C5 0.0516(19) 0.068(2) 0.138(3) 0.0147(19) 0.006(2) 0.0269(17)
C6 0.058(2) 0.097(2) 0.153(3) 0.028(2) -0.003(2) 0.0370(18)
C7 0.066(2) 0.098(2) 0.144(3) 0.036(2) 0.008(2) 0.0364(19)
C8 0.060(2) 0.078(2) 0.169(3) 0.019(2) 0.011(2) 0.0289(17)
C9 0.039(2) 0.065(2) 0.136(4) -0.0019(13) -0.004(3) 0.0197(12)
C10 0.0519(18) 0.069(2) 0.126(3) 0.011(2) -0.0060(17) 0.0195(16)
C11 0.0611(19) 0.067(2) 0.095(2) -0.016(2) -0.0167(17) 0.0227(16)
C12 0.065(3) 0.077(2) 0.091(3) -0.0018(12) -0.004(2) 0.0324(13)
C13 0.070(2) 0.093(3) 0.111(3) 0.016(3) 0.020(2) 0.040(2)
O1Q 0.0637 0.0831 0.133 -0.0088 0.0093 0.0255
O2Q 0.0753 0.0799 0.144 -0.0081 -0.0039 0.0258
O3Q 0.0887 0.0974 0.1253 0.0007 -0.0204 0.0423
O4Q 0.1196 0.1281 0.1113 -0.0276 -0.0324 0.0688
C1Q 0.064 0.07 0.14 -0.007 -0.015 0.0315
C2Q 0.062 0.0722 0.134 -0.017 0.006 0.0251
C3Q 0.085 0.088 0.145 -0.028 0.018 0.017
C4Q 0.078 0.102 0.156 -0.021 0.024 0.025
C5Q 0.0516 0.0658 0.138 -0.0087 0.006 0.0247
C6Q 0.058 0.081 0.153 -0.031 -0.003 0.021
C7Q 0.066 0.0912 0.144 -0.028 0.008 0.0296
C8Q 0.06 0.0802 0.169 -0.008 0.011 0.0311
C10Q 0.0519 0.0819 0.126 -0.017 -0.006 0.0324
C11Q 0.0611 0.0827 0.095 -0.0007 -0.0167 0.0384
C13Q 0.07 0.083 0.111 0.004 0.02 0.03
In1A 0.06661 0.06106 0.1043 -0.01086 -0.00543 0.03053
In1R 0.06661 0.06661 0.1043 0.00543 -0.00543 0.03608
In1EA 0.06661 0.06106 0.1043 -0.01086 -0.00543 0.03053
O1O 0.0958 0.0637 0.133 -0.0093 -0.0181 0.0382
O2O 0.1036 0.0753 0.144 0.0039 -0.0042 0.0495
O3R 0.0887 0.1015 0.1253 -0.0211 -0.0204 0.0464
O3AA 0.1015 0.0887 0.1253 0.0204 0.0211 0.0464
O4R 0.1196 0.1101 0.1113 -0.0048 -0.0324 0.0508
O4AA 0.1101 0.1196 0.1113 0.0324 0.0048 0.0508
loop_
_geom_bond_atom_site_label_1
_geom_bond_atom_site_label_2
_geom_bond_site_symmetry_1
_geom_bond_site_symmetry_2
In1 O1 1_555 1_555
N1 C8 1_555 1_555
O1 C1 1_555 1_555
O2 In1 1_555 1_555
O3 C13 1_555 1_555
O4 C13 1_555 1_555
C1 O2 1_555 1_555
C2 C1 1_555 1_555
C3 C2 1_555 1_555
H1 C3 1_555 1_555
C4 C3 1_555 1_555
H2 C4 1_555 1_555
C5 C4 1_555 1_555
C6 C5 1_555 1_555
H3 C6 1_555 1_555
C7 C2 1_555 1_555
H4 C7 1_555 1_555
C8 C5 1_555 1_555
H5 C8 1_555 1_555
H6 C8 1_555 1_555
C9 N1 1_555 1_555
C10 C9 1_555 1_555
H7 C10 1_555 1_555
C11 C10 1_555 1_555
C12 C11 1_555 1_555
H8 C12 1_555 1_555
C13 C11 1_555 1_555
O1Q C1Q 1_555 1_555
O2Q C1Q 1_555 1_555
O3Q C13Q 1_555 1_555
O4Q C13Q 1_555 1_555
C1Q C2Q 1_555 1_555
C2Q C3Q 1_555 1_555
C3Q H1Q 1_555 1_555
C4Q C3Q 1_555 1_555
H2Q C4Q 1_555 1_555
C5Q C4Q 1_555 1_555
C6Q C5Q 1_555 1_555
H3Q C6Q 1_555 1_555
C7Q C2Q 1_555 1_555
H4Q C7Q 1_555 1_555
C8Q N1 1_555 1_555
H5Q C8Q 1_555 1_555
H6Q C8Q 1_555 1_555
C10Q C9 1_555 1_555
H7Q C10Q 1_555 1_555
C11Q C12 1_555 1_555
C13Q C11Q 1_555 1_555
In1A O1Q 1_555 1_555
In1R O3 1_555 1_555
In1EA O3Q 1_555 1_555
O1O In1 1_555 1_555
O2O In1 1_555 1_555
O3R In1 1_555 1_555
O3AA In1 1_555 1_555
O4R In1 1_555 1_555
O4AA In1 1_555 1_555
O4 In1R 1_555 1_555
C6 C7 1_555 1_555
O2Q In1A 1_555 1_555
O4Q In1EA 1_555 1_555
C5Q C8Q 1_555 1_555
C6Q C7Q 1_555 1_555
C10Q C11Q 1_555 1_555

#END
