
#######################################################################
#
#                 Cambridge Crystallographic Data Centre
#                                CCDC 
#
#######################################################################
#
# If this CIF has been generated from an entry in the Cambridge 
# Structural Database, then it will include bibliographic, chemical, 
# crystal, experimental, refinement or atomic coordinate data resulting 
# from the CCDC's data processing and validation procedures.
#
#######################################################################

data_GOYPER
_chemical_formula_moiety         '(C4 H8 Fe1 N2 O6)n'
_symmetry_cell_setting           orthorhombic
_symmetry_space_group_name_H-M   'P n n a'
_symmetry_Int_Tables_number      52
_space_group_name_Hall           '-P 2a 2bc'
loop_
_symmetry_equiv_pos_site_id
_symmetry_equiv_pos_as_xyz
1 x,y,z
2 1/2-x,-y,z
3 1/2-x,1/2+y,1/2-z
4 x,1/2-y,1/2-z
5 -x,-y,-z
6 1/2+x,y,-z
7 1/2+x,1/2-y,1/2+z
8 -x,1/2+y,1/2+z
_cell_length_a                   8.8246(2)
_cell_length_b                   11.7336(3)
_cell_length_c                   8.3258(2)
_cell_angle_alpha                90
_cell_angle_beta                 90
_cell_angle_gamma                90
_cell_volume                     862.089
loop_
_atom_site_label
_atom_site_type_symbol
_atom_site_fract_x
_atom_site_fract_y
_atom_site_fract_z
Fe1 Fe 0.23846(2) 0.2500 0.2500
O1 O 0.58295(10) 0.32212(7) 0.58916(10)
O2 O 0.23851(8) 0.09409(7) 0.38752(9)
O3 O 0.41520(9) 0.31665(7) 0.39495(10)
C1 C 0.2500 0.0000 0.3191(2)
H1 H 0.2500 -0.0000 0.2074
C2 C 0.46995(14) 0.28163(10) 0.52333(14)
H2 H 0.4243(14) 0.2172(10) 0.5675(15)
O2A O 0.26149(8) -0.09409(7) 0.38752(9)
O1E O 0.08295(10) 0.32212(7) 0.41084(10)
O3E O -0.08480(9) 0.31665(7) 0.60505(10)
C2E C -0.03005(14) 0.28163(10) 0.47667(14)
H2E H -0.0757(14) 0.2172(10) 0.4325(15)
Fe1A Fe 0.26154(2) -0.2500 0.2500
Fe1E Fe -0.26154(2) 0.2500 0.7500
Fe1E_2 Fe 0.73846(2) 0.2500 0.7500
O1F O 0.08295(10) 0.17788(7) 0.08916(10)
O2C O 0.23851(8) 0.40591(7) 0.11248(9)
O3C O 0.41520(9) 0.18335(7) 0.10505(10)
C3 C 0.7500 0.5000 0.2979(3)
H3 H 0.7500 0.5000 0.4096
N1 N 0.65168(17) 0.43667(12) 0.22492(16)
H4 H 0.589(2) 0.4021(13) 0.2797(18)
H5 H 0.6589(19) 0.4300(14) 0.1230(19)
N1A N 0.84832(17) 0.56333(12) 0.22492(16)
H4A H 0.911(2) 0.5979(13) 0.2797(18)
H5A H 0.8411(19) 0.5700(14) 0.1230(19)
loop_
_geom_bond_atom_site_label_1
_geom_bond_atom_site_label_2
_geom_bond_site_symmetry_1
_geom_bond_site_symmetry_2
Fe1 O2 1_555 1_555
O1 C2 1_555 1_555
O2 C1 1_555 1_555
O3 Fe1 1_555 1_555
C1 H1 1_555 1_555
C2 O3 1_555 1_555
H2 C2 1_555 1_555
C3 H3 1_555 1_555
N1 C3 1_555 1_555
H4 N1 1_555 1_555
H5 N1 1_555 1_555
O2A C1 1_555 1_555
O1E Fe1 1_555 1_555
O3E C2E 1_555 1_555
C2E O1E 1_555 1_555
H2E C2E 1_555 1_555
Fe1A O2A 1_555 1_555
Fe1E O3E 1_555 1_555
Fe1E_2 O1 1_555 1_555
O1F Fe1 1_555 1_555
O2C Fe1 1_555 1_555
O3C Fe1 1_555 1_555
N1A C3 1_555 1_555
H4A N1A 1_555 1_555
H5A N1A 1_555 1_555

#END
