
#######################################################################
#
#                 Cambridge Crystallographic Data Centre
#                                CCDC 
#
#######################################################################
#
# If this CIF has been generated from an entry in the Cambridge 
# Structural Database, then it will include bibliographic, chemical, 
# crystal, experimental, refinement or atomic coordinate data resulting 
# from the CCDC's data processing and validation procedures.
#
#######################################################################

data_OKIZIT
_chemical_formula_moiety         '(C60 H36 Co3 N6 O13)n'
_symmetry_cell_setting           hexagonal
_symmetry_space_group_name_H-M   'P 63/m m c'
_symmetry_Int_Tables_number      194
_space_group_name_Hall           '-P 6c 2c'
loop_
_symmetry_equiv_pos_site_id
_symmetry_equiv_pos_as_xyz
1 x,y,z
2 -y,x-y,z
3 -x+y,-x,z
4 -x,-y,1/2+z
5 y,-x+y,1/2+z
6 x-y,x,1/2+z
7 y,x,-z
8 x-y,-y,-z
9 -x,-x+y,-z
10 -y,-x,1/2-z
11 -x+y,y,1/2-z
12 x,x-y,1/2-z
13 -x,-y,-z
14 y,-x+y,-z
15 x-y,x,-z
16 x,y,1/2-z
17 -y,x-y,1/2-z
18 -x+y,-x,1/2-z
19 -y,-x,z
20 -x+y,y,z
21 x,x-y,z
22 y,x,1/2+z
23 x-y,-y,1/2+z
24 -x,-x+y,1/2+z
_cell_length_a                   16.834(3)
_cell_length_b                   16.834(3)
_cell_length_c                   25.705(6)
_cell_angle_alpha                90
_cell_angle_beta                 90
_cell_angle_gamma                120
_cell_volume                     6308.45
loop_
_atom_site_label
_atom_site_type_symbol
_atom_site_fract_x
_atom_site_fract_y
_atom_site_fract_z
Co1 Co 0.736108(19) 0.263892(19) 0.2500
O1 O 0.6667 0.3333 0.2500
O2 O 0.82382(18) 0.34506(18) 0.30697(10)
N1 N 1.04683(19) 0.0937(4) 0.2500
N2 N 0.80904(15) 0.19096(15) 0.2500
C1 C 0.8401(5) 0.4200(2) 0.3258(2)
C2 C 0.9016(3) 0.2359(3) 0.2500
H1 H 0.9333 0.2997 0.2500
C3 C 0.9507(3) 0.1907(3) 0.2500
H2 H 1.0145 0.2235 0.2500
C4 C 0.9041(2) 0.0959(2) 0.2500
C5 C 0.9552(2) 0.0448(2) 0.2500
C6 C 0.8838(12) 0.4419(6) 0.3813(6)
C7 C 0.8866(6) 0.3739(6) 0.4099(3)
H3 H 0.8582 0.3137 0.3981
C8 C 0.9336(6) 0.3990(5) 0.4570(3)
H4 H 0.9293 0.3546 0.4802
C9 C 0.9885(9) 0.4942(4) 0.4690(5)
O2H O 1.17618(18) 0.52124(25) 0.69303(10)
C1H C 1.1599(5) 0.5799(5) 0.6742(2)
C6H C 1.1162(12) 0.5581(13) 0.6187(6)
C7H C 1.1134(6) 0.4873(8) 0.5901(3)
H3H H 1.1418 0.4555 0.6019
C8H C 1.0664(6) 0.4654(8) 0.5430(3)
H4H H 1.0707 0.4253 0.5198
C9H C 1.0115(9) 0.5057(10) 0.5310(5)
O2L O 1.17618(18) 0.65494(18) 0.69303(10)
C7L C 1.1134(6) 0.6261(6) 0.5901(3)
H3L H 1.1418 0.6863 0.6019
C8L C 1.0664(6) 0.6010(5) 0.5430(3)
H4L H 1.0707 0.6454 0.5198
O2T O 0.82382(18) 0.47876(25) 0.30697(10)
C7T C 0.8866(6) 0.5127(8) 0.4099(3)
H3T H 0.8582 0.5445 0.3981
C8T C 0.9336(6) 0.5346(8) 0.4570(3)
H4T H 0.9293 0.5747 0.4802
N1A N 0.9063(4) -0.04687(44) 0.2500
N2A N 0.80904(15) -0.38192(21) 0.2500
C2A C 0.7641(3) -0.3343(4) 0.2500
H1A H 0.7003 -0.3664 0.2500
C3A C 0.8093(3) -0.2400(4) 0.2500
H2A H 0.7765 -0.2090 0.2500
C4A C 0.9041(2) -0.1918(3) 0.2500
C5A C 0.9552(2) -0.0896(3) 0.2500
N1B N 1.04687(44) -0.04683(19) 0.2500
N2B N 1.38192(21) 0.19096(15) 0.2500
C2B C 1.3343(4) 0.0984(3) 0.2500
H1B H 1.3664 0.0667 0.2500
C3B C 1.2400(4) 0.0493(3) 0.2500
H2B H 1.2090 -0.0145 0.2500
C4B C 1.1918(3) 0.0959(2) 0.2500
C5B C 1.0896(3) 0.0448(2) 0.2500
C2I C 0.7641(3) 0.0984(3) 0.2500
H1I H 0.7003 0.0667 0.2500
C3I C 0.8093(3) 0.0493(3) 0.2500
H2I H 0.7765 -0.0145 0.2500
C2J C 1.3343(4) 0.2359(3) 0.2500
H1J H 1.3664 0.2997 0.2500
C3J C 1.2400(4) 0.1907(3) 0.2500
H2J H 1.2090 0.2235 0.2500
C2K C 0.9016(3) -0.3343(4) 0.2500
H1K H 0.9333 -0.3664 0.2500
C3K C 0.9507(3) -0.2400(4) 0.2500
H2K H 1.0145 -0.2090 0.2500
Co1A Co 0.736108(19) -0.527784(27) 0.2500
O2A O 0.65494(18) -0.52124(25) 0.30697(10)
C1A C 0.5800(2) -0.5799(5) 0.3258(2)
C6A C 0.5581(6) -0.5581(13) 0.3813(6)
C7A C 0.6261(6) -0.4873(8) 0.4099(3)
H3A H 0.6863 -0.4555 0.3981
C8A C 0.6010(5) -0.4654(8) 0.4570(3)
H4A H 0.6454 -0.4253 0.4802
C9A C 0.5058(4) -0.5057(10) 0.4690(5)
O2G O 0.47876(25) -0.34506(18) 0.69303(10)
C1G C 0.4201(5) -0.4200(2) 0.6742(2)
C6G C 0.4419(13) -0.4419(6) 0.6187(6)
C7G C 0.5127(8) -0.3739(6) 0.5901(3)
H3G H 0.5445 -0.3137 0.6019
C8G C 0.5346(8) -0.3990(5) 0.5430(3)
H4G H 0.5747 -0.3546 0.5198
C9G C 0.4943(10) -0.4942(4) 0.5310(5)
O2M O 0.34506(18) -0.47876(25) 0.69303(10)
C7M C 0.3739(6) -0.5127(8) 0.5901(3)
H3M H 0.3137 -0.5445 0.6019
C8M C 0.3990(5) -0.5346(8) 0.5430(3)
H4M H 0.3546 -0.5747 0.5198
O2S O 0.52124(25) -0.65494(18) 0.30697(10)
C7S C 0.4873(8) -0.6261(6) 0.4099(3)
H3S H 0.4555 -0.6863 0.3981
C8S C 0.4654(8) -0.6010(5) 0.4570(3)
H4S H 0.4253 -0.6454 0.4802
Co1B Co 0.527784(27) 0.263892(19) 0.2500
O2B O 0.52124(25) 0.17618(18) 0.30697(10)
C1B C 0.5799(5) 0.1599(5) 0.3258(2)
C6B C 0.5581(13) 0.1162(12) 0.3813(6)
C7B C 0.4873(8) 0.1134(6) 0.4099(3)
H3B H 0.4555 0.1418 0.3981
C8B C 0.4654(8) 0.0664(6) 0.4570(3)
H4B H 0.4253 0.0707 0.4802
C9B C 0.5057(10) 0.0115(9) 0.4690(5)
O2F O 0.34506(18) -0.17618(18) 0.69303(10)
C1F C 0.4200(2) -0.1599(5) 0.6742(2)
C6F C 0.4419(6) -0.1162(12) 0.6187(6)
C7F C 0.3739(6) -0.1134(6) 0.5901(3)
H3F H 0.3137 -0.1418 0.6019
C8F C 0.3990(5) -0.0664(6) 0.5430(3)
H4F H 0.3546 -0.0707 0.5198
C9F C 0.4942(4) -0.0115(9) 0.5310(5)
O2N O 0.47876(25) -0.17618(18) 0.69303(10)
C7N C 0.5127(8) -0.1134(6) 0.5901(3)
H3N H 0.5445 -0.1418 0.6019
C8N C 0.5346(8) -0.0664(6) 0.5430(3)
H4N H 0.5747 -0.0707 0.5198
O2R O 0.65494(18) 0.17618(18) 0.30697(10)
C7R C 0.6261(6) 0.1134(6) 0.4099(3)
H3R H 0.6863 0.1418 0.3981
C8R C 0.6010(5) 0.0664(6) 0.4570(3)
H4R H 0.6454 0.0707 0.4802
Co1A_2 Co 0.736108(19) 0.472216(27) 0.2500
Co1B_2 Co 0.527784(27) -0.736108(19) 0.2500
Co1B_3 Co 1.527784(27) 0.263892(19) 0.2500
Co1C Co 0.263892(19) -0.263892(19) 0.7500
Co1C_2 Co 1.263892(19) 0.736108(19) 0.7500
Co1D Co 0.263892(19) -0.472216(27) 0.7500
Co1D_2 Co 1.263892(19) 0.527784(27) 0.7500
Co1E Co 0.472216(27) -0.263892(19) 0.7500
O1_2 O 0.6667 -0.6667 0.2500
O2I O 0.65494(18) 0.17618(18) 0.19303(10)
O2J O 0.52124(25) 0.34506(18) 0.19303(10)
O2K O 0.82382(18) -0.52124(25) 0.19303(10)
O2O O 0.82382(18) 0.34506(18) 0.19303(10)
O2P O 0.65494(18) -0.52124(25) 0.19303(10)
O2Q O 0.52124(25) 0.17618(18) 0.19303(10)
O2S_2 O 0.52124(25) 0.34506(18) 0.30697(10)
O2T_2 O 0.82382(18) -0.52124(25) 0.30697(10)
N2B_2 N 0.38192(21) 0.19096(15) 0.2500
loop_
_geom_bond_atom_site_label_1
_geom_bond_atom_site_label_2
_geom_bond_site_symmetry_1
_geom_bond_site_symmetry_2
Co1 O1 1_555 1_555
O1 Co1B 1_555 1_555
O2 Co1 1_555 1_555
N1 C5 1_555 1_555
N2 Co1 1_555 1_555
C1 O2 1_555 1_555
C2 N2 1_555 1_555
H1 C2 1_555 1_555
C3 C2 1_555 1_555
H2 C3 1_555 1_555
C4 C3 1_555 1_555
C5 C4 1_555 1_555
C6 C1 1_555 1_555
C7 C6 1_555 1_555
H3 C7 1_555 1_555
C8 C7 1_555 1_555
H4 C8 1_555 1_555
C9 C8 1_555 1_555
O2H C1H 1_555 1_555
C1H C6H 1_555 1_555
C6H C7H 1_555 1_555
C7H H3H 1_555 1_555
C8H C7H 1_555 1_555
H4H C8H 1_555 1_555
C9H C9 1_555 1_555
O2L C1H 1_555 1_555
C7L C6H 1_555 1_555
H3L C7L 1_555 1_555
C8L C9H 1_555 1_555
H4L C8L 1_555 1_555
O2T C1 1_555 1_555
C7T C6 1_555 1_555
H3T C7T 1_555 1_555
C8T C9 1_555 1_555
H4T C8T 1_555 1_555
N1A C5 1_555 1_555
N2A C2A 1_555 1_555
C2A H1A 1_555 1_555
C3A C2A 1_555 1_555
H2A C3A 1_555 1_555
C4A C3A 1_555 1_555
C5A N1A 1_555 1_555
N1B C5A 1_555 1_555
N2B C2B 1_555 1_555
C2B H1B 1_555 1_555
C3B C2B 1_555 1_555
H2B C3B 1_555 1_555
C4B C3B 1_555 1_555
C5B N1 1_555 1_555
C2I N2 1_555 1_555
H1I C2I 1_555 1_555
C3I C4 1_555 1_555
H2I C3I 1_555 1_555
C2J N2B 1_555 1_555
H1J C2J 1_555 1_555
C3J C4B 1_555 1_555
H2J C3J 1_555 1_555
C2K N2A 1_555 1_555
H1K C2K 1_555 1_555
C3K C4A 1_555 1_555
H2K C3K 1_555 1_555
Co1A N2A 1_555 1_555
O2A Co1A 1_555 1_555
C1A O2A 1_555 1_555
C6A C1A 1_555 1_555
C7A C6A 1_555 1_555
H3A C7A 1_555 1_555
C8A C7A 1_555 1_555
H4A C8A 1_555 1_555
C9A C8A 1_555 1_555
O2G C1G 1_555 1_555
C1G C6G 1_555 1_555
C6G C7G 1_555 1_555
C7G H3G 1_555 1_555
C8G C7G 1_555 1_555
H4G C8G 1_555 1_555
C9G C9A 1_555 1_555
O2M C1G 1_555 1_555
C7M C6G 1_555 1_555
H3M C7M 1_555 1_555
C8M C9G 1_555 1_555
H4M C8M 1_555 1_555
O2S C1A 1_555 1_555
C7S C6A 1_555 1_555
H3S C7S 1_555 1_555
C8S C9A 1_555 1_555
H4S C8S 1_555 1_555
Co1B O2B 1_555 1_555
O2B C1B 1_555 1_555
C1B C6B 1_555 1_555
C6B C7B 1_555 1_555
C7B H3B 1_555 1_555
C8B C7B 1_555 1_555
H4B C8B 1_555 1_555
C9B C8B 1_555 1_555
O2F C1F 1_555 1_555
C1F C6F 1_555 1_555
C6F C7F 1_555 1_555
C7F H3F 1_555 1_555
C8F C7F 1_555 1_555
H4F C8F 1_555 1_555
C9F C9B 1_555 1_555
O2N C1F 1_555 1_555
C7N C6F 1_555 1_555
H3N C7N 1_555 1_555
C8N C9F 1_555 1_555
H4N C8N 1_555 1_555
O2R Co1 1_555 1_555
C7R C6B 1_555 1_555
H3R C7R 1_555 1_555
C8R C9B 1_555 1_555
H4R C8R 1_555 1_555
Co1A_2 O1 1_555 1_555
Co1B_2 O2S 1_555 1_555
Co1B_3 N2B 1_555 1_555
Co1C O2F 1_555 1_555
Co1C_2 O2L 1_555 1_555
Co1D O2M 1_555 1_555
Co1D_2 O2H 1_555 1_555
Co1E O2G 1_555 1_555
O1_2 Co1A 1_555 1_555
O2I Co1 1_555 1_555
O2J Co1B 1_555 1_555
O2K Co1A 1_555 1_555
O2O Co1 1_555 1_555
O2P Co1A 1_555 1_555
O2Q Co1B 1_555 1_555
O2S_2 Co1B 1_555 1_555
O2T_2 Co1A 1_555 1_555
N2B_2 Co1B 1_555 1_555
C8H C9H 1_555 1_555
C7L C8L 1_555 1_555
O2T Co1A_2 1_555 1_555
C7T C8T 1_555 1_555
C4A C5A 1_555 1_555
N1B C5B 1_555 1_555
C4B C5B 1_555 1_555
C2I C3I 1_555 1_555
C2J C3J 1_555 1_555
C2K C3K 1_555 1_555
C8G C9G 1_555 1_555
C7M C8M 1_555 1_555
C7S C8S 1_555 1_555
C1B O2R 1_555 1_555
C8F C9F 1_555 1_555
O2N Co1E 1_555 1_555
C7N C8N 1_555 1_555
C7R C8R 1_555 1_555
Co1B_2 O1_2 1_555 1_555

#END
