
#######################################################################
#
#                 Cambridge Crystallographic Data Centre
#                                CCDC 
#
#######################################################################
#
# If this CIF has been generated from an entry in the Cambridge 
# Structural Database, then it will include bibliographic, chemical, 
# crystal, experimental, refinement or atomic coordinate data resulting 
# from the CCDC's data processing and validation procedures.
#
#######################################################################

data_EROJUS06
_chemical_formula_moiety         '(C13 H12 Cd1 N2 O2)n'
_symmetry_cell_setting           tetragonal
_symmetry_space_group_name_H-M   'I 41/a'
_symmetry_Int_Tables_number      88
_space_group_name_Hall           '-I 4ad'
loop_
_symmetry_equiv_pos_site_id
_symmetry_equiv_pos_as_xyz
1 x,y,z
2 3/4-y,1/4+x,1/4+z
3 -x,1/2-y,z
4 1/4+y,1/4-x,1/4+z
5 1/2+x,1/2+y,1/2+z
6 1/4-y,3/4+x,3/4+z
7 1/2-x,-y,1/2+z
8 3/4+y,3/4-x,3/4+z
9 -x,-y,-z
10 1/4+y,3/4-x,3/4-z
11 x,1/2+y,-z
12 3/4-y,3/4+x,3/4-z
13 1/2-x,1/2-y,1/2-z
14 3/4+y,1/4-x,1/4-z
15 1/2+x,y,1/2-z
16 1/4-y,1/4+x,1/4-z
_cell_length_a                   24.0666(7)
_cell_length_b                   24.0666(7)
_cell_length_c                   10.5856(11)
_cell_angle_alpha                90
_cell_angle_beta                 90
_cell_angle_gamma                90
_cell_volume                     6131.19
loop_
_atom_site_label
_atom_site_type_symbol
_atom_site_fract_x
_atom_site_fract_y
_atom_site_fract_z
_atom_site_U_iso_or_equiv
_atom_site_thermal_displace_type
Cd1 Cd 0.26627(3) 0.94006(3) -0.03824(7) 0.0338 Uani
N1 N 0.2085(3) 0.8801(3) 0.0439(8) 0.0347 Uani
O1 O 0.2004(3) 1.0110(3) -0.0032(7) 0.0377 Uani
O2 O 0.2775(3) 1.0445(3) -0.0892(6) 0.0360 Uani
N2 N 0.3501(3) 0.9265(3) -0.1099(8) 0.0350 Uani
C1 C 0.1980(4) 0.9780(4) -0.2987(8) 0.0297 Uani
C2 C 0.1436(4) 0.9504(4) -0.3103(10) 0.0347 Uani
C3 C 0.1331(5) 0.9034(5) -0.2402(14) 0.0647 Uani
C4 C 0.1028(4) 0.9698(4) -0.3923(11) 0.0423 Uani
H1 H 0.1603 0.8895 -0.1834 0.0780 Uiso
C5 C 0.0820(5) 0.8762(5) -0.2534(14) 0.0607 Uani
C6 C 0.0535(4) 0.9420(4) -0.4054(11) 0.0450 Uani
H2 H 0.1093 1.0026 -0.4397 0.0510 Uiso
H3 H 0.0747 0.8439 -0.2045 0.0730 Uiso
C7 C 0.0422(4) 0.8953(4) -0.3361(12) 0.0463 Uani
H4 H 0.0266 0.9555 -0.4637 0.0540 Uiso
C8 C -0.0124(4) 0.8631(4) -0.3485(14) 0.0543 Uani
C9 C -0.0646(4) 0.8983(4) -0.3487(12) 0.0447 Uani
H5 H -0.0148 0.8362 -0.2779 0.0650 Uiso
H6 H -0.0112 0.8414 -0.4280 0.0650 Uiso
C10 C -0.0781(4) 0.9421(4) -0.2685(10) 0.0380 Uani
C11 C -0.1101(4) 0.8891(4) -0.4233(11) 0.0443 Uani
C12 C -0.0456(5) 0.9703(4) -0.1684(11) 0.0480 Uani
C13 C -0.1210(5) 0.8480(5) -0.5277(13) 0.0587 Uani
H7 H -0.0702 0.9947 -0.1198 0.0720 Uiso
H8 H -0.0293 0.9424 -0.1121 0.0720 Uiso
H9 H -0.0160 0.9924 -0.2072 0.0720 Uiso
H10 H -0.0913 0.8505 -0.5907 0.0880 Uiso
H11 H -0.1222 0.8104 -0.4926 0.0880 Uiso
H12 H -0.1568 0.8566 -0.5678 0.0880 Uiso
O1E O 0.2390(3) 0.9504(3) -0.2532(7) 0.0377 Uani
O2C O 0.2945(3) 0.9725(3) 0.1608(6) 0.0360 Uani
Cd1E Cd 0.30994(3) 1.01627(3) -0.28824(7) 0.0338 Uani
O2E O 0.2055(3) 1.0275(3) -0.3392(6) 0.0360 Uani
Cd1F Cd 0.23373(3) 1.05994(3) -0.53824(7) 0.0338 Uani
N1K N -0.1301(3) 0.9585(3) -0.2939(8) 0.0347 Uani
N2N N -0.1499(3) 0.9265(3) -0.3901(8) 0.0350 Uani
Cd1K Cd -0.19006(3) 1.01627(3) -0.21176(7) 0.0338 Uani
Cd1N Cd -0.23373(3) 0.94006(3) -0.46176(7) 0.0338 Uani
loop_
_atom_site_aniso_label
_atom_site_aniso_U_11
_atom_site_aniso_U_22
_atom_site_aniso_U_33
_atom_site_aniso_U_23
_atom_site_aniso_U_13
_atom_site_aniso_U_12
Cd1 0.0318 0.0323 0.0372 0.0006 0.001 0.0019
N1 0.03 0.03 0.044 -0.001 0.001 -0.002
O1 0.035 0.033 0.045 -0.001 -0.001 0.001
O2 0.035 0.037 0.036 -0.009 0.001 0.005
N2 0.041 0.027 0.037 -0.002 -0.004 -0.002
C1 0.036(5) 0.030(5) 0.023(4) -0.001(4) -0.003(4) 0.007(4)
C2 0.032(5) 0.031(5) 0.041(6) -0.002(4) 0.000(5) 0.003(4)
C3 0.062(8) 0.042(7) 0.090(11) 0.024(7) 0.020(7) 0.002(5)
C4 0.046(6) 0.030(5) 0.051(7) -0.002(5) 0.004(5) 0.001(4)
C5 0.047(7) 0.046(7) 0.089(10) 0.013(7) 0.025(7) 0.010(5)
C6 0.049(6) 0.032(5) 0.054(7) 0.007(5) 0.014(6) -0.008(4)
C7 0.042(6) 0.031(5) 0.066(8) 0.008(5) 0.001(6) -0.001(4)
C8 0.043(6) 0.026(5) 0.094(10) 0.003(6) -0.002(6) -0.002(4)
C9 0.035(6) 0.027(5) 0.072(8) -0.002(5) 0.006(5) 0.001(4)
C10 0.037(5) 0.030(5) 0.047(6) 0.005(5) 0.005(5) 0.005(4)
C11 0.037(6) 0.041(6) 0.055(7) -0.008(5) -0.003(5) -0.003(4)
C12 0.056(7) 0.033(6) 0.055(7) 0.006(5) -0.005(6) 0.003(4)
C13 0.053(7) 0.044(6) 0.079(9) 0.004(6) -0.019(7) -0.010(5)
O1E 0.033 0.035 0.045 -0.001 0.001 -0.001
O2C 0.037 0.035 0.036 -0.001 -0.009 -0.005
Cd1E 0.0323 0.0318 0.0372 -0.001 0.0006 -0.0019
O2E 0.035 0.037 0.036 0.009 -0.001 0.005
Cd1F 0.0323 0.0318 0.0372 -0.001 0.0006 -0.0019
N1K 0.03 0.03 0.044 -0.001 0.001 -0.002
N2N 0.027 0.041 0.037 0.004 -0.002 0.002
Cd1K 0.0318 0.0323 0.0372 0.0006 0.001 0.0019
Cd1N 0.0323 0.0318 0.0372 -0.001 0.0006 -0.0019
loop_
_geom_bond_atom_site_label_1
_geom_bond_atom_site_label_2
_geom_bond_site_symmetry_1
_geom_bond_site_symmetry_2
Cd1 N1 1_555 1_555
O1 Cd1 1_555 1_555
O2 Cd1 1_555 1_555
N2 Cd1 1_555 1_555
C1 C2 1_555 1_555
C2 C3 1_555 1_555
C3 H1 1_555 1_555
C4 C2 1_555 1_555
C5 C3 1_555 1_555
C6 C4 1_555 1_555
H2 C4 1_555 1_555
H3 C5 1_555 1_555
C7 C5 1_555 1_555
H4 C6 1_555 1_555
C8 C7 1_555 1_555
C9 C8 1_555 1_555
H5 C8 1_555 1_555
H6 C8 1_555 1_555
C10 C9 1_555 1_555
C11 C9 1_555 1_555
C12 C10 1_555 1_555
C13 C11 1_555 1_555
H7 C12 1_555 1_555
H8 C12 1_555 1_555
H9 C12 1_555 1_555
H10 C13 1_555 1_555
H11 C13 1_555 1_555
H12 C13 1_555 1_555
O1E Cd1 1_555 1_555
O2C Cd1 1_555 1_555
Cd1E O2 1_555 1_555
O2E C1 1_555 1_555
Cd1F O2E 1_555 1_555
N1K C10 1_555 1_555
N2N C11 1_555 1_555
Cd1K N1K 1_555 1_555
Cd1N N2N 1_555 1_555
C1 O1E 1_555 1_555
C6 C7 1_555 1_555
O1E Cd1E 1_555 1_555
Cd1E O2E 1_555 1_555
N1K N2N 1_555 1_555

#END
