
#######################################################################
#
#                 Cambridge Crystallographic Data Centre
#                                CCDC 
#
#######################################################################
#
# If this CIF has been generated from an entry in the Cambridge 
# Structural Database, then it will include bibliographic, chemical, 
# crystal, experimental, refinement or atomic coordinate data resulting 
# from the CCDC's data processing and validation procedures.
#
#######################################################################

data_YODJEI
_chemical_formula_moiety         '(C24 N66 Zn7)n'
_symmetry_cell_setting           cubic
_symmetry_space_group_name_H-M   'I -4 3 m'
_symmetry_Int_Tables_number      217
_space_group_name_Hall           'I -4 2 3'
loop_
_symmetry_equiv_pos_site_id
_symmetry_equiv_pos_as_xyz
1 x,y,z
2 -x,-y,z
3 x,-y,-z
4 -x,y,-z
5 z,x,y
6 y,z,x
7 -z,-x,y
8 -y,z,-x
9 z,-x,-y
10 -y,-z,x
11 -z,x,-y
12 y,-z,-x
13 y,x,z
14 -y,-x,z
15 -y,x,-z
16 y,-x,-z
17 x,z,y
18 z,y,x
19 -x,-z,y
20 z,-y,-x
21 -x,z,-y
22 -z,-y,x
23 x,-z,-y
24 -z,y,-x
25 1/2+x,1/2+y,1/2+z
26 1/2-x,1/2-y,1/2+z
27 1/2+x,1/2-y,1/2-z
28 1/2-x,1/2+y,1/2-z
29 1/2+z,1/2+x,1/2+y
30 1/2+y,1/2+z,1/2+x
31 1/2-z,1/2-x,1/2+y
32 1/2-y,1/2+z,1/2-x
33 1/2+z,1/2-x,1/2-y
34 1/2-y,1/2-z,1/2+x
35 1/2-z,1/2+x,1/2-y
36 1/2+y,1/2-z,1/2-x
37 1/2+y,1/2+x,1/2+z
38 1/2-y,1/2-x,1/2+z
39 1/2-y,1/2+x,1/2-z
40 1/2+y,1/2-x,1/2-z
41 1/2+x,1/2+z,1/2+y
42 1/2+z,1/2+y,1/2+x
43 1/2-x,1/2-z,1/2+y
44 1/2+z,1/2-y,1/2-x
45 1/2-x,1/2+z,1/2-y
46 1/2-z,1/2-y,1/2+x
47 1/2+x,1/2-z,1/2-y
48 1/2-z,1/2+y,1/2-x
_cell_length_a                   30.502(5)
_cell_length_b                   30.502(5)
_cell_length_c                   30.502(5)
_cell_angle_alpha                90
_cell_angle_beta                 90
_cell_angle_gamma                90
_cell_volume                     28378.2
loop_
_atom_site_label
_atom_site_type_symbol
_atom_site_fract_x
_atom_site_fract_y
_atom_site_fract_z
_atom_site_U_iso_or_equiv
_atom_site_thermal_displace_type
Zn1 Zn 0.71548(2) 0.28452(2) 0.28452(2) 0.0522 Uani
Zn2 Zn 0.65417(3) 0.20001(2) 0.20001(2) 0.0800 Uani
Zn3 Zn 0.46982(3) 0.24626(3) 0.24626(3) 0.1022 Uani
N1 N 0.6466(2) 0.27984(14) 0.27984(14) 0.0700 Uani
N2 N 0.63002(18) 0.25122(13) 0.25122(13) 0.0663 Uani
C1 C 0.5773(2) 0.28399(19) 0.28399(19) 0.0820 Uani
N3 N 0.61511(19) 0.29986(14) 0.29986(14) 0.0700 Uani
C2 C 0.5867(2) 0.25382(18) 0.25382(18) 0.0650 Uani
N4 N 0.69982(15) 0.18350(14) 0.25175(16) 0.0787 Uani
N5 N 0.5876(2) 0.19826(18) 0.19826(18) 0.0940 Uani
N6 N 0.72094(16) 0.2091(2) 0.27906(16) 0.0827 Uani
C3 C 0.6946(2) 0.11127(18) 0.2259(2) 0.0783 Uani
N7 N 0.6759(3) 0.0545(2) 0.1897(2) 0.1390 Uani
C4 C 0.71305(17) 0.14229(16) 0.25507(18) 0.0753 Uani
C5 C 0.5367(3) 0.3002(2) 0.3002(2) 0.1177 Uani
N8 N 0.5210(2) 0.21806(18) 0.21806(18) 0.0967 Uani
N9 N 0.4956(2) 0.2881(2) 0.2881(2) 0.1180 Uani
C6 C 0.5627(2) 0.22424(19) 0.22424(19) 0.0737 Uani
N10 N 0.5188(3) 0.1864(2) 0.1864(2) 0.1263 Uani
N11 N 0.6648(2) 0.1233(2) 0.1976(2) 0.1150 Uani
N12 N 0.5316(3) 0.3339(2) 0.3339(2) 0.1787 Uani
N13 N 0.6532(2) 0.0869(3) 0.1756(2) 0.1403 Uani
N14 N 0.70287(16) 0.06837(16) 0.22310(17) 0.0880 Uani
N15 N 0.4669(4) 0.3102(3) 0.3102(3) 0.1670 Uani
N16 N 0.5580(3) 0.17421(17) 0.17421(17) 0.1213 Uani
N17 N 0.4864(4) 0.3363(4) 0.3363(4) 0.2530 Uani
N4W N 0.74825(16) 0.18350(14) 0.30018(15) 0.0787 Uani
C3W C 0.7741(2) 0.11127(18) 0.3054(2) 0.0783 Uani
N7W N 0.8103(2) 0.0545(2) 0.3241(3) 0.1390 Uani
C4W C 0.74493(18) 0.14229(16) 0.28695(17) 0.0753 Uani
N11W N 0.8024(2) 0.1233(2) 0.3352(2) 0.1150 Uani
N13W N 0.8244(2) 0.0869(3) 0.3468(2) 0.1403 Uani
N14W N 0.77690(17) 0.06837(16) 0.29713(16) 0.0880 Uani
Zn2F Zn 0.79999(2) 0.34583(3) 0.20001(2) 0.0800 Uani
Zn3F Zn 0.75374(3) 0.53018(3) 0.24626(3) 0.1022 Uani
N1F N 0.72016(14) 0.3534(2) 0.27984(14) 0.0700 Uani
N2F N 0.74878(13) 0.36998(18) 0.25122(13) 0.0663 Uani
C1F C 0.71601(19) 0.4227(2) 0.28399(19) 0.0820 Uani
N3F N 0.70014(14) 0.38489(19) 0.29986(14) 0.0700 Uani
C2F C 0.74618(18) 0.4133(2) 0.25382(18) 0.0650 Uani
N4F N 0.74825(16) 0.30018(15) 0.18350(14) 0.0787 Uani
N5F N 0.80174(18) 0.4124(2) 0.19826(18) 0.0940 Uani
N6F N 0.72094(16) 0.27906(16) 0.2091(2) 0.0827 Uani
C3F C 0.7741(2) 0.3054(2) 0.11127(18) 0.0783 Uani
N7F N 0.8103(2) 0.3241(3) 0.0545(2) 0.1390 Uani
C4F C 0.74493(18) 0.28695(17) 0.14229(16) 0.0753 Uani
C5F C 0.6998(2) 0.4633(3) 0.3002(2) 0.1177 Uani
N8F N 0.78194(18) 0.4790(2) 0.21806(18) 0.0967 Uani
N9F N 0.7119(2) 0.5044(2) 0.2881(2) 0.1180 Uani
C6F C 0.77576(19) 0.4373(2) 0.22424(19) 0.0737 Uani
N10F N 0.8136(2) 0.4812(3) 0.1864(2) 0.1263 Uani
N11F N 0.8024(2) 0.3352(2) 0.1233(2) 0.1150 Uani
N12F N 0.6661(2) 0.4684(3) 0.3339(2) 0.1787 Uani
N13F N 0.8244(2) 0.3468(2) 0.0869(3) 0.1403 Uani
N14F N 0.77690(17) 0.29713(16) 0.06837(16) 0.0880 Uani
N15F N 0.6898(3) 0.5331(4) 0.3102(3) 0.1670 Uani
N16F N 0.82579(17) 0.4420(3) 0.17421(17) 0.1213 Uani
N17F N 0.6637(4) 0.5136(4) 0.3363(4) 0.2530 Uani
N4P N 0.69982(15) 0.25175(16) 0.18350(14) 0.0787 Uani
C3P C 0.6946(2) 0.2259(2) 0.11127(18) 0.0783 Uani
N7P N 0.6759(3) 0.1897(2) 0.0545(2) 0.1390 Uani
C4P C 0.71305(17) 0.25507(18) 0.14229(16) 0.0753 Uani
N11P N 0.6648(2) 0.1976(2) 0.1233(2) 0.1150 Uani
N13P N 0.6532(2) 0.1756(2) 0.0869(3) 0.1403 Uani
N14P N 0.70287(16) 0.22310(17) 0.06837(16) 0.0880 Uani
Zn2G Zn 0.79999(2) 0.20001(2) 0.34583(3) 0.0800 Uani
Zn3G Zn 0.75374(3) 0.24626(3) 0.53018(3) 0.1022 Uani
N1G N 0.72016(14) 0.27984(14) 0.3534(2) 0.0700 Uani
N2G N 0.74878(13) 0.25122(13) 0.36998(18) 0.0663 Uani
C1G C 0.71601(19) 0.28399(19) 0.4227(2) 0.0820 Uani
N3G N 0.70014(14) 0.29986(14) 0.38489(19) 0.0700 Uani
C2G C 0.74618(18) 0.25382(18) 0.4133(2) 0.0650 Uani
N4G N 0.81650(14) 0.25175(16) 0.30018(15) 0.0787 Uani
N5G N 0.80174(18) 0.19826(18) 0.4124(2) 0.0940 Uani
N6G N 0.7909(2) 0.27906(16) 0.27906(16) 0.0827 Uani
C3G C 0.88873(18) 0.2259(2) 0.3054(2) 0.0783 Uani
N7G N 0.9455(2) 0.1897(2) 0.3241(3) 0.1390 Uani
C4G C 0.85771(16) 0.25507(18) 0.28695(17) 0.0753 Uani
C5G C 0.6998(2) 0.3002(2) 0.4633(3) 0.1177 Uani
N8G N 0.78194(18) 0.21806(18) 0.4790(2) 0.0967 Uani
N9G N 0.7119(2) 0.2881(2) 0.5044(2) 0.1180 Uani
C6G C 0.77576(19) 0.22424(19) 0.4373(2) 0.0737 Uani
N10G N 0.8136(2) 0.1864(2) 0.4812(3) 0.1263 Uani
N11G N 0.8767(2) 0.1976(2) 0.3352(2) 0.1150 Uani
N12G N 0.6661(2) 0.3339(2) 0.4684(3) 0.1787 Uani
N13G N 0.9131(3) 0.1756(2) 0.3468(2) 0.1403 Uani
N14G N 0.93163(16) 0.22310(17) 0.29713(16) 0.0880 Uani
N15G N 0.6898(3) 0.3102(3) 0.5331(4) 0.1670 Uani
N16G N 0.82579(17) 0.17421(17) 0.4420(3) 0.1213 Uani
N17G N 0.6637(4) 0.3363(4) 0.5136(4) 0.2530 Uani
N4M N 0.81650(14) 0.30018(15) 0.25175(16) 0.0787 Uani
C3M C 0.88873(18) 0.3054(2) 0.2259(2) 0.0783 Uani
N7M N 0.9455(2) 0.3241(3) 0.1897(2) 0.1390 Uani
C4M C 0.85771(16) 0.28695(17) 0.25507(18) 0.0753 Uani
N11M N 0.8767(2) 0.3352(2) 0.1976(2) 0.1150 Uani
N13M N 0.9131(3) 0.3468(2) 0.1756(2) 0.1403 Uani
N14M N 0.93163(16) 0.29713(16) 0.22310(17) 0.0880 Uani
Zn3Z Zn 0.96982(3) 0.25374(3) 0.25374(3) 0.1022 Uani
Zn3FA Zn 0.74626(3) 0.03018(3) 0.25374(3) 0.1022 Uani
Zn3IA Zn 0.74626(3) 0.25374(3) 0.03018(3) 0.1022 Uani
N14AA N 0.79713(16) 0.56837(16) 0.27690(17) 0.0880 Uani
N14BA N 0.72310(17) 0.20287(16) 0.56837(16) 0.0880 Uani
N14GA N 0.43163(16) 0.27690(17) 0.20287(16) 0.0880 Uani
N14LA N 0.43163(16) 0.20287(16) 0.27690(17) 0.0880 Uani
N14OA N 0.72310(17) 0.56837(16) 0.20287(16) 0.0880 Uani
N14PA N 0.79713(16) 0.27690(17) 0.56837(16) 0.0880 Uani
loop_
_atom_site_aniso_label
_atom_site_aniso_U_11
_atom_site_aniso_U_22
_atom_site_aniso_U_33
_atom_site_aniso_U_23
_atom_site_aniso_U_13
_atom_site_aniso_U_12
Zn1 0.0522(3) 0.0522(3) 0.0522(3) 0.0003(4) -0.0003(4) -0.0003(4)
Zn2 0.0613(5) 0.0893(4) 0.0893(4) -0.0176(6) -0.0062(3) -0.0062(3)
Zn3 0.0482(5) 0.1292(6) 0.1292(6) 0.0006(8) -0.0071(4) -0.0071(4)
N1 0.082(4) 0.064(2) 0.064(2) -0.015(3) -0.002(2) -0.002(2)
N2 0.067(4) 0.066(2) 0.066(2) -0.008(4) 0.005(2) 0.005(2)
C1 0.052(5) 0.097(4) 0.097(4) -0.025(5) 0.008(3) 0.008(3)
N3 0.046(3) 0.082(3) 0.082(3) -0.016(4) 0.009(2) 0.009(2)
C2 0.037(4) 0.079(3) 0.079(3) -0.011(5) 0.005(3) 0.005(3)
N4 0.087(3) 0.053(3) 0.096(3) 0.014(3) 0.012(3) -0.002(3)
N5 0.068(4) 0.107(3) 0.107(3) -0.013(5) -0.025(3) -0.025(3)
N6 0.103(3) 0.042(4) 0.103(3) -0.005(3) -0.002(4) 0.005(3)
C3 0.096(4) 0.049(3) 0.090(5) -0.005(3) 0.009(4) 0.004(3)
N7 0.168(6) 0.107(5) 0.142(6) -0.023(4) -0.052(5) -0.016(5)
C4 0.088(4) 0.047(3) 0.091(4) -0.005(3) 0.020(3) 0.005(3)
C5 0.093(7) 0.130(5) 0.130(5) -0.038(7) -0.019(4) -0.019(4)
N8 0.054(4) 0.118(4) 0.118(4) -0.024(5) 0.000(3) 0.000(3)
N9 0.056(4) 0.149(4) 0.149(4) -0.034(5) 0.002(3) 0.002(3)
C6 0.041(4) 0.090(4) 0.090(4) -0.010(5) 0.004(3) 0.004(3)
N10 0.083(5) 0.148(4) 0.148(4) -0.026(5) -0.016(3) -0.016(3)
N11 0.118(5) 0.116(5) 0.111(5) 0.019(4) -0.008(4) 0.010(4)
N12 0.072(6) 0.232(7) 0.232(7) -0.101(10) 0.016(4) 0.016(4)
N13 0.133(6) 0.145(7) 0.143(6) -0.016(5) -0.032(5) -0.016(5)
N14 0.094(4) 0.068(3) 0.102(4) 0.000(3) -0.017(3) -0.005(3)
N15 0.137(6) 0.182(5) 0.182(5) -0.047(5) -0.002(4) -0.002(4)
N16 0.068(5) 0.148(5) 0.148(5) -0.065(6) -0.001(3) -0.001(3)
N17 0.123(10) 0.318(12) 0.318(12) -0.051(15) 0.096(8) 0.096(8)
N4W 0.096 0.053 0.087 0.002 0.012 -0.014
C3W 0.09 0.049 0.096 -0.004 0.009 0.005
N7W 0.142 0.107 0.168 0.016 -0.052 0.023
C4W 0.091 0.047 0.088 -0.005 0.02 0.005
N11W 0.111 0.116 0.118 -0.01 -0.008 -0.019
N13W 0.143 0.145 0.133 0.016 -0.032 0.016
N14W 0.102 0.068 0.094 0.005 -0.017 0
Zn2F 0.0893 0.0613 0.0893 0.0062 0.0176 -0.0062
Zn3F 0.1292 0.0482 0.1292 0.0071 -0.0006 -0.0071
N1F 0.064 0.082 0.064 0.002 0.015 -0.002
N2F 0.066 0.067 0.066 -0.005 0.008 0.005
C1F 0.097 0.052 0.097 -0.008 0.025 0.008
N3F 0.082 0.046 0.082 -0.009 0.016 0.009
C2F 0.079 0.037 0.079 -0.005 0.011 0.005
N4F 0.096 0.087 0.053 0.002 -0.014 0.012
N5F 0.107 0.068 0.107 0.025 0.013 -0.025
N6F 0.103 0.103 0.042 -0.005 0.005 -0.002
C3F 0.09 0.096 0.049 -0.004 0.005 0.009
N7F 0.142 0.168 0.107 0.016 0.023 -0.052
C4F 0.091 0.088 0.047 -0.005 0.005 0.02
C5F 0.13 0.093 0.13 0.019 0.038 -0.019
N8F 0.118 0.054 0.118 0 0.024 0
N9F 0.149 0.056 0.149 -0.002 0.034 0.002
C6F 0.09 0.041 0.09 -0.004 0.01 0.004
N10F 0.148 0.083 0.148 0.016 0.026 -0.016
N11F 0.111 0.118 0.116 -0.01 -0.019 -0.008
N12F 0.232 0.072 0.232 -0.016 0.101 0.016
N13F 0.143 0.133 0.145 0.016 0.016 -0.032
N14F 0.102 0.094 0.068 0.005 0 -0.017
N15F 0.182 0.137 0.182 0.002 0.047 -0.002
N16F 0.148 0.068 0.148 0.001 0.065 -0.001
N17F 0.318 0.123 0.318 -0.096 0.051 0.096
N4P 0.087 0.096 0.053 0.014 -0.002 0.012
C3P 0.096 0.09 0.049 -0.005 0.004 0.009
N7P 0.168 0.142 0.107 -0.023 -0.016 -0.052
C4P 0.088 0.091 0.047 -0.005 0.005 0.02
N11P 0.118 0.111 0.116 0.019 0.01 -0.008
N13P 0.133 0.143 0.145 -0.016 -0.016 -0.032
N14P 0.094 0.102 0.068 0 -0.005 -0.017
Zn2G 0.0893 0.0893 0.0613 0.0062 -0.0062 0.0176
Zn3G 0.1292 0.1292 0.0482 0.0071 -0.0071 -0.0006
N1G 0.064 0.064 0.082 0.002 -0.002 0.015
N2G 0.066 0.066 0.067 -0.005 0.005 0.008
C1G 0.097 0.097 0.052 -0.008 0.008 0.025
N3G 0.082 0.082 0.046 -0.009 0.009 0.016
C2G 0.079 0.079 0.037 -0.005 0.005 0.011
N4G 0.053 0.096 0.087 -0.012 -0.002 -0.014
N5G 0.107 0.107 0.068 0.025 -0.025 0.013
N6G 0.042 0.103 0.103 0.002 0.005 0.005
C3G 0.049 0.09 0.096 -0.009 0.004 0.005
N7G 0.107 0.142 0.168 0.052 -0.016 0.023
C4G 0.047 0.091 0.088 -0.02 0.005 0.005
C5G 0.13 0.13 0.093 0.019 -0.019 0.038
N8G 0.118 0.118 0.054 0 0 0.024
N9G 0.149 0.149 0.056 -0.002 0.002 0.034
C6G 0.09 0.09 0.041 -0.004 0.004 0.01
N10G 0.148 0.148 0.083 0.016 -0.016 0.026
N11G 0.116 0.111 0.118 0.008 0.01 -0.019
N12G 0.232 0.232 0.072 -0.016 0.016 0.101
N13G 0.145 0.143 0.133 0.032 -0.016 0.016
N14G 0.068 0.102 0.094 0.017 -0.005 0
N15G 0.182 0.182 0.137 0.002 -0.002 0.047
N16G 0.148 0.148 0.068 0.001 -0.001 0.065
N17G 0.318 0.318 0.123 -0.096 0.096 0.051
N4M 0.053 0.087 0.096 -0.012 -0.014 -0.002
C3M 0.049 0.096 0.09 -0.009 0.005 0.004
N7M 0.107 0.168 0.142 0.052 0.023 -0.016
C4M 0.047 0.088 0.091 -0.02 0.005 0.005
N11M 0.116 0.118 0.111 0.008 -0.019 0.01
N13M 0.145 0.133 0.143 0.032 0.016 -0.016
N14M 0.068 0.094 0.102 0.017 0 -0.005
Zn3Z 0.0482 0.1292 0.1292 0.0006 0.0071 0.0071
Zn3FA 0.1292 0.0482 0.1292 -0.0071 -0.0006 0.0071
Zn3IA 0.1292 0.1292 0.0482 -0.0071 0.0071 -0.0006
N14AA 0.094 0.068 0.102 0 -0.017 0.005
N14BA 0.102 0.094 0.068 -0.005 0 -0.017
N14GA 0.068 0.102 0.094 0.017 0.005 0
N14LA 0.068 0.094 0.102 0.017 0 0.005
N14OA 0.102 0.068 0.094 -0.005 -0.017 0
N14PA 0.094 0.102 0.068 0 0.005 -0.017
loop_
_geom_bond_atom_site_label_1
_geom_bond_atom_site_label_2
_geom_bond_site_symmetry_1
_geom_bond_site_symmetry_2
Zn1 N1 1_555 1_555
Zn2 N2 1_555 1_555
Zn3 N8 1_555 1_555
N1 N2 1_555 1_555
N2 C2 1_555 1_555
C1 N3 1_555 1_555
N3 N1 1_555 1_555
C2 C1 1_555 1_555
N4 Zn2 1_555 1_555
N5 Zn2 1_555 1_555
N6 Zn1 1_555 1_555
C3 C4 1_555 1_555
N7 N13 1_555 1_555
C4 N4 1_555 1_555
C5 C1 1_555 1_555
N8 C6 1_555 1_555
N9 Zn3 1_555 1_555
C6 C2 1_555 1_555
N10 N8 1_555 1_555
N11 Zn2 1_555 1_555
N12 C5 1_555 1_555
N13 N11 1_555 1_555
N14 C3 1_555 1_555
N15 N9 1_555 1_555
N16 N5 1_555 1_555
N17 N12 1_555 1_555
N4W N6 1_555 1_555
C3W C4W 1_555 1_555
N7W N13W 1_555 1_555
C4W C4 1_555 1_555
N11W C3W 1_555 1_555
N13W N11W 1_555 1_555
N14W C3W 1_555 1_555
Zn2F N2F 1_555 1_555
Zn3F N8F 1_555 1_555
N1F Zn1 1_555 1_555
N2F N1F 1_555 1_555
C1F N3F 1_555 1_555
N3F N1F 1_555 1_555
C2F N2F 1_555 1_555
N4F Zn2F 1_555 1_555
N5F Zn2F 1_555 1_555
N6F Zn1 1_555 1_555
C3F C4F 1_555 1_555
N7F N13F 1_555 1_555
C4F N4F 1_555 1_555
C5F C1F 1_555 1_555
N8F C6F 1_555 1_555
N9F Zn3F 1_555 1_555
C6F C2F 1_555 1_555
N10F N8F 1_555 1_555
N11F Zn2F 1_555 1_555
N12F C5F 1_555 1_555
N13F N11F 1_555 1_555
N14F C3F 1_555 1_555
N15F N9F 1_555 1_555
N16F N5F 1_555 1_555
N17F N12F 1_555 1_555
N4P Zn2 1_555 1_555
C3P C4P 1_555 1_555
N7P N13P 1_555 1_555
C4P C4F 1_555 1_555
N11P Zn2 1_555 1_555
N13P N11P 1_555 1_555
N14P C3P 1_555 1_555
Zn2G N4W 1_555 1_555
Zn3G N8G 1_555 1_555
N1G Zn1 1_555 1_555
N2G Zn2G 1_555 1_555
C1G N3G 1_555 1_555
N3G N1G 1_555 1_555
C2G N2G 1_555 1_555
N4G Zn2G 1_555 1_555
N5G Zn2G 1_555 1_555
N6G Zn1 1_555 1_555
C3G C4G 1_555 1_555
N7G N13G 1_555 1_555
C4G N4G 1_555 1_555
C5G C1G 1_555 1_555
N8G C6G 1_555 1_555
N9G Zn3G 1_555 1_555
C6G C2G 1_555 1_555
N10G N8G 1_555 1_555
N11G Zn2G 1_555 1_555
N12G C5G 1_555 1_555
N13G N11G 1_555 1_555
N14G C3G 1_555 1_555
N15G N9G 1_555 1_555
N16G N5G 1_555 1_555
N17G N12G 1_555 1_555
N4M Zn2F 1_555 1_555
C3M C4M 1_555 1_555
N7M N13M 1_555 1_555
C4M C4G 1_555 1_555
N11M Zn2F 1_555 1_555
N13M N11M 1_555 1_555
N14M C3M 1_555 1_555
Zn3Z N14G 1_555 1_555
Zn3FA N14 1_555 1_555
Zn3IA N14F 1_555 1_555
N14AA Zn3F 1_555 1_555
N14BA Zn3G 1_555 1_555
N14GA Zn3 1_555 1_555
N14LA Zn3 1_555 1_555
N14OA Zn3F 1_555 1_555
N14PA Zn3G 1_555 1_555
N4 N6 1_555 1_555
N5 C6 1_555 1_555
C3 N11 1_555 1_555
N7 N14 1_555 1_555
C5 N9 1_555 1_555
N10 N16 1_555 1_555
N15 N17 1_555 1_555
N4W C4W 1_555 1_555
N7W N14W 1_555 1_555
N11W Zn2G 1_555 1_555
N14W Zn3FA 1_555 1_555
C1F C2F 1_555 1_555
N4F N6F 1_555 1_555
N5F C6F 1_555 1_555
N6F N4P 1_555 1_555
C3F N11F 1_555 1_555
N7F N14F 1_555 1_555
C5F N9F 1_555 1_555
N10F N16F 1_555 1_555
N15F N17F 1_555 1_555
N4P C4P 1_555 1_555
C3P N11P 1_555 1_555
N7P N14P 1_555 1_555
N14P Zn3IA 1_555 1_555
N1G N2G 1_555 1_555
C1G C2G 1_555 1_555
N4G N6G 1_555 1_555
N5G C6G 1_555 1_555
N6G N4M 1_555 1_555
C3G N11G 1_555 1_555
N7G N14G 1_555 1_555
C5G N9G 1_555 1_555
N10G N16G 1_555 1_555
N15G N17G 1_555 1_555
N4M C4M 1_555 1_555
C3M N11M 1_555 1_555
N7M N14M 1_555 1_555
N14M Zn3Z 1_555 1_555

#END
