
#######################################################################
#
#                 Cambridge Crystallographic Data Centre
#                                CCDC 
#
#######################################################################
#
# If this CIF has been generated from an entry in the Cambridge 
# Structural Database, then it will include bibliographic, chemical, 
# crystal, experimental, refinement or atomic coordinate data resulting 
# from the CCDC's data processing and validation procedures.
#
#######################################################################

data_KAVTEI
_chemical_formula_moiety         '(C53 H51 Cd3 N5 O15)n'
_symmetry_cell_setting           monoclinic
_symmetry_space_group_name_H-M   'C 2/c'
_symmetry_Int_Tables_number      15
_space_group_name_Hall           '-C 2yc'
loop_
_symmetry_equiv_pos_site_id
_symmetry_equiv_pos_as_xyz
1 x,y,z
2 -x,y,1/2-z
3 1/2+x,1/2+y,z
4 1/2-x,1/2+y,1/2-z
5 -x,-y,-z
6 x,-y,1/2+z
7 1/2-x,1/2-y,-z
8 1/2+x,1/2-y,1/2+z
_cell_length_a                   32.207(6)
_cell_length_b                   13.378(3)
_cell_length_c                   15.871(3)
_cell_angle_alpha                90
_cell_angle_beta                 91.05(3)
_cell_angle_gamma                90
_cell_volume                     6837.11
loop_
_atom_site_label
_atom_site_type_symbol
_atom_site_fract_x
_atom_site_fract_y
_atom_site_fract_z
Cd1 Cd 0.606010(13) 0.69508(3) 0.23557(3)
Cd2 Cd 0.5000 0.77497(4) 0.2500
O1 O 0.55887(13) 0.7705(3) 0.3423(3)
O2 O 0.62626(14) 0.8015(3) 0.3467(3)
O3 O 0.53108(14) 1.1165(3) 0.6672(3)
O4 O 0.59681(14) 1.1680(4) 0.6541(3)
O5 O 0.59067(13) 0.5867(3) 0.1230(3)
O6 O 0.53544(14) 0.6471(3) 0.1852(3)
N1 N 0.61699(18) 0.5566(4) 0.3215(3)
N2 N 0.82423(17) 0.1989(4) 0.3017(4)
C1 C 0.58404(19) 0.8900(5) 0.4434(4)
C2 C 0.6162(2) 0.9545(5) 0.4667(4)
H1 H 0.6422 0.9496 0.4395
C3 C 0.61085(19) 1.0251(5) 0.5283(4)
H2 H 0.6329 1.0697 0.5422
C4 C 0.57333(19) 1.0320(5) 0.5708(4)
C5 C 0.54208(19) 0.9649(5) 0.5502(4)
H3 H 0.5169 0.9667 0.5804
C6 C 0.54670(19) 0.8940(5) 0.4854(4)
H4 H 0.5246 0.8498 0.4707
C7 C 0.5902(2) 0.8161(4) 0.3730(4)
C8 C 0.56661(19) 1.1130(5) 0.6364(4)
C9 C 0.52497(18) 0.5478(5) 0.0609(4)
C10 C 0.54218(19) 0.4831(5) 0.0040(4)
H5 H 0.5713 0.4712 0.0068
C11 C 0.48180(19) 0.5658(5) 0.0579(4)
H6 H 0.4693 0.6099 0.0968
C12 C 0.55159(18) 0.5971(4) 0.1263(4)
C13 C 0.6436(2) 0.5590(6) 0.3879(5)
H7 H 0.6564 0.6207 0.4027
C14 C 0.6532(2) 0.4741(6) 0.4358(5)
H8 H 0.6729 0.4783 0.4809
C15 C 0.6340(2) 0.3842(6) 0.4180(4)
C16 C 0.6057(3) 0.3833(6) 0.3525(5)
H9 H 0.5907 0.3240 0.3393
C17 C 0.5991(3) 0.4701(6) 0.3052(5)
H10 H 0.5804 0.4664 0.2583
C18 C 0.8053(3) 0.2870(7) 0.3038(6)
H11 H 0.8209 0.3460 0.2934
C19 C 0.7639(3) 0.2948(7) 0.3207(7)
H12 H 0.7508 0.3584 0.3185
C20 C 0.7406(2) 0.2104(7) 0.3413(6)
C21 C 0.7618(3) 0.1201(7) 0.3425(7)
H13 H 0.7480 0.0598 0.3567
C22 C 0.8027(2) 0.1195(6) 0.3230(6)
H14 H 0.8168 0.0571 0.3249
C23 C 0.6442(2) 0.2903(6) 0.4671(5)
H15 H 0.6251 0.2360 0.4491
H16 H 0.6402 0.3025 0.5279
C24 C 0.6894(2) 0.2578(7) 0.4526(5)
H17 H 0.7082 0.3151 0.4631
H18 H 0.6971 0.2040 0.4928
C25 C 0.6947(2) 0.2205(8) 0.3631(6)
H19 H 0.6811 0.2678 0.3233
H20 H 0.6810 0.1548 0.3566
Cd1A Cd 0.393990(13) 0.69508(3) 0.26443(3)
Cd1E Cd 0.606010(13) 1.30492(3) 0.73557(3)
Cd1C Cd 0.893990(13) 0.19508(3) 0.26443(3)
Cd1D Cd 0.393990(13) 0.30492(3) -0.23557(3)
Cd1D_2 Cd 0.393990(13) 1.30492(3) -0.23557(3)
Cd1C_2 Cd 0.893990(13) 1.19508(3) 0.26443(3)
Cd2D Cd 0.5000 1.22503(4) 0.7500
Cd2D_2 Cd 0.5000 0.22503(4) -0.2500
Cd2D_3 Cd 0.5000 1.22503(4) -0.2500
O1A O 0.44113(13) 0.7705(3) 0.1577(3)
O2A O 0.37374(14) 0.8015(3) 0.1533(3)
O3A O 0.46892(14) 1.1165(3) -0.1672(3)
O3D O 0.46892(14) 0.8835(3) 0.3328(3)
O3E O 0.53108(14) 0.8835(3) 0.1672(3)
O4A O 0.40319(14) 1.1680(4) -0.1541(3)
O4E O 0.59681(14) 0.8320(4) 0.1541(3)
O4D O 0.40319(14) 0.8320(4) 0.3459(3)
O5D O 0.40933(13) 0.4133(3) -0.1230(3)
O5A O 0.40933(13) 0.5867(3) 0.3770(3)
O6D O 0.46456(14) 0.3529(3) -0.1852(3)
O6A O 0.46456(14) 0.6471(3) 0.3148(3)
N1C N 0.88301(18) 1.0566(4) 0.1785(3)
N1A N 0.38301(18) 0.5566(4) 0.1785(3)
N2C N 0.67577(17) 0.6989(4) 0.1983(4)
N2B N 0.32423(17) 0.6989(4) 0.3017(4)
C1A C 0.41596(19) 0.8900(5) 0.0566(4)
C2A C 0.3838(2) 0.9545(5) 0.0333(4)
H1A H 0.3578 0.9496 0.0605
C3A C 0.38915(19) 1.0251(5) -0.0283(4)
H2A H 0.3671 1.0697 -0.0422
C4A C 0.42667(19) 1.0320(5) -0.0708(4)
C5A C 0.45792(19) 0.9649(5) -0.0502(4)
H3A H 0.4831 0.9667 -0.0804
C6A C 0.45330(19) 0.8940(5) 0.0146(4)
H4A H 0.4754 0.8498 0.0293
C7A C 0.4098(2) 0.8161(4) 0.1270(4)
C8A C 0.43339(19) 1.1130(5) -0.1364(4)
C9D C 0.47503(18) 0.4522(5) -0.0609(4)
C10D C 0.45782(19) 0.5169(5) -0.0040(4)
H5D H 0.4287 0.5288 -0.0068
C11D C 0.51820(19) 0.4342(5) -0.0579(4)
H6D H 0.5307 0.3901 -0.0968
C12D C 0.44841(18) 0.4029(4) -0.1263(4)
C13C C 0.8564(2) 1.0590(6) 0.1121(5)
H7C H 0.8436 1.1207 0.0973
C14C C 0.8468(2) 0.9741(6) 0.0642(5)
H8C H 0.8271 0.9783 0.0191
C15C C 0.8660(2) 0.8842(6) 0.0820(4)
C16C C 0.8943(3) 0.8833(6) 0.1475(5)
H9C H 0.9093 0.8240 0.1607
C17C C 0.9009(3) 0.9701(6) 0.1948(5)
H10C H 0.9196 0.9664 0.2417
C18C C 0.6947(3) 0.7870(7) 0.1962(6)
H11C H 0.6791 0.8460 0.2066
C19C C 0.7361(3) 0.7948(7) 0.1793(7)
H12C H 0.7492 0.8584 0.1815
C20C C 0.7594(2) 0.7104(7) 0.1587(6)
C21C C 0.7382(3) 0.6201(7) 0.1575(7)
H13C H 0.7520 0.5598 0.1433
C22C C 0.6973(2) 0.6195(6) 0.1770(6)
H14C H 0.6832 0.5571 0.1751
C23C C 0.8558(2) 0.7903(6) 0.0329(5)
H15C H 0.8749 0.7360 0.0509
H16C H 0.8598 0.8025 -0.0279
C24C C 0.8106(2) 0.7578(7) 0.0474(5)
H17C H 0.7918 0.8151 0.0369
H18C H 0.8029 0.7040 0.0072
C25C C 0.8053(2) 0.7205(8) 0.1369(6)
H19C H 0.8189 0.7678 0.1767
H20C H 0.8190 0.6548 0.1434
C26 C 0.5654(5) 0.9147(12) 0.7852(10)
H21 H 0.5454 0.8606 0.7751
H22 H 0.5533 0.9783 0.7666
H23 H 0.5723 0.9183 0.8455
N3 N 0.6033(5) 0.8948(14) 0.7380(10)
C27 C 0.6100(7) 0.8081(15) 0.6787(14)
H24 H 0.5857 0.7642 0.6791
H25 H 0.6346 0.7705 0.6972
H26 H 0.6140 0.8335 0.6215
C28 C 0.6326(6) 0.9606(15) 0.7458(12)
H27 H 0.6277 1.0168 0.7808
O7 O 0.6664(5) 0.9554(12) 0.7109(10)
O8 O 0.4956(11) 0.698(2) 0.643(2)
O9 O 0.7298(12) 0.968(3) 0.541(2)
loop_
_geom_bond_atom_site_label_1
_geom_bond_atom_site_label_2
_geom_bond_site_symmetry_1
_geom_bond_site_symmetry_2
Cd1 O2 1_555 1_555
Cd2 O1 1_555 1_555
O1 C7 1_555 1_555
O2 C7 1_555 1_555
O3 C8 1_555 1_555
O4 C8 1_555 1_555
O5 Cd1 1_555 1_555
O6 Cd1 1_555 1_555
N1 Cd1 1_555 1_555
N2 C18 1_555 1_555
C1 C2 1_555 1_555
C2 H1 1_555 1_555
C3 C2 1_555 1_555
H2 C3 1_555 1_555
C4 C3 1_555 1_555
C5 C4 1_555 1_555
H3 C5 1_555 1_555
C6 C1 1_555 1_555
H4 C6 1_555 1_555
C7 C1 1_555 1_555
C8 C4 1_555 1_555
C9 C10 1_555 1_555
C10 H5 1_555 1_555
C11 C9 1_555 1_555
H6 C11 1_555 1_555
C12 O5 1_555 1_555
C13 N1 1_555 1_555
H7 C13 1_555 1_555
C14 C13 1_555 1_555
H8 C14 1_555 1_555
C15 C14 1_555 1_555
C16 C15 1_555 1_555
H9 C16 1_555 1_555
C17 N1 1_555 1_555
H10 C17 1_555 1_555
C18 H11 1_555 1_555
C19 C18 1_555 1_555
H12 C19 1_555 1_555
C20 C19 1_555 1_555
C21 C20 1_555 1_555
H13 C21 1_555 1_555
C22 N2 1_555 1_555
H14 C22 1_555 1_555
C23 C15 1_555 1_555
H15 C23 1_555 1_555
H16 C23 1_555 1_555
C24 C23 1_555 1_555
H17 C24 1_555 1_555
H18 C24 1_555 1_555
C25 C20 1_555 1_555
H19 C25 1_555 1_555
H20 C25 1_555 1_555
C26 H21 1_555 1_555
H22 C26 1_555 1_555
H23 C26 1_555 1_555
N3 C26 1_555 1_555
C27 N3 1_555 1_555
H24 C27 1_555 1_555
H25 C27 1_555 1_555
H26 C27 1_555 1_555
C28 N3 1_555 1_555
H27 C28 1_555 1_555
O7 C28 1_555 1_555
Cd1A O2A 1_555 1_555
Cd1E O4 1_555 1_555
Cd1C N2 1_555 1_555
Cd1D O5D 1_555 1_555
Cd1D_2 O4A 1_555 1_555
Cd1C_2 N1C 1_555 1_555
Cd2D O3 1_555 1_555
Cd2D_2 O6D 1_555 1_555
Cd2D_3 O3A 1_555 1_555
O1A Cd2 1_555 1_555
O2A C7A 1_555 1_555
O3A C8A 1_555 1_555
O3D Cd2 1_555 1_555
O3E Cd2 1_555 1_555
O4A C8A 1_555 1_555
O4E Cd1 1_555 1_555
O4D Cd1A 1_555 1_555
O5D C12D 1_555 1_555
O5A Cd1A 1_555 1_555
O6D Cd1D 1_555 1_555
O6A Cd2 1_555 1_555
N1C C13C 1_555 1_555
N1A Cd1A 1_555 1_555
N2C Cd1 1_555 1_555
N2B Cd1A 1_555 1_555
C1A C2A 1_555 1_555
C2A H1A 1_555 1_555
C3A C2A 1_555 1_555
H2A C3A 1_555 1_555
C4A C3A 1_555 1_555
C5A C4A 1_555 1_555
H3A C5A 1_555 1_555
C6A C1A 1_555 1_555
H4A C6A 1_555 1_555
C7A O1A 1_555 1_555
C8A C4A 1_555 1_555
C9D C10D 1_555 1_555
C10D C11 1_555 1_555
H5D C10D 1_555 1_555
C11D C10 1_555 1_555
H6D C11D 1_555 1_555
C12D O6D 1_555 1_555
C13C H7C 1_555 1_555
C14C C13C 1_555 1_555
H8C C14C 1_555 1_555
C15C C14C 1_555 1_555
C16C C15C 1_555 1_555
H9C C16C 1_555 1_555
C17C N1C 1_555 1_555
H10C C17C 1_555 1_555
C18C N2C 1_555 1_555
H11C C18C 1_555 1_555
C19C C18C 1_555 1_555
H12C C19C 1_555 1_555
C20C C19C 1_555 1_555
C21C C20C 1_555 1_555
H13C C21C 1_555 1_555
C22C N2C 1_555 1_555
H14C C22C 1_555 1_555
C23C C15C 1_555 1_555
H15C C23C 1_555 1_555
H16C C23C 1_555 1_555
C24C C23C 1_555 1_555
H17C C24C 1_555 1_555
H18C C24C 1_555 1_555
C25C C20C 1_555 1_555
H19C C25C 1_555 1_555
H20C C25C 1_555 1_555
Cd2 O6 1_555 1_555
O6 C12 1_555 1_555
C5 C6 1_555 1_555
C9 C12 1_555 1_555
C16 C17 1_555 1_555
C21 C22 1_555 1_555
C24 C25 1_555 1_555
Cd1A O6A 1_555 1_555
C1A C7A 1_555 1_555
C5A C6A 1_555 1_555
C9D C11D 1_555 1_555
C9D C12D 1_555 1_555
C16C C17C 1_555 1_555
C21C C22C 1_555 1_555
C24C C25C 1_555 1_555

#END
