
#######################################################################
#
#                 Cambridge Crystallographic Data Centre
#                                CCDC 
#
#######################################################################
#
# If this CIF has been generated from an entry in the Cambridge 
# Structural Database, then it will include bibliographic, chemical, 
# crystal, experimental, refinement or atomic coordinate data resulting 
# from the CCDC's data processing and validation procedures.
#
#######################################################################

data_FANNUG
_chemical_formula_moiety         '(C36 H20 Cd4 N20 O16)n'
_symmetry_cell_setting           monoclinic
_symmetry_space_group_name_H-M   'C 2/c'
_symmetry_Int_Tables_number      15
_space_group_name_Hall           '-C 2yc'
loop_
_symmetry_equiv_pos_site_id
_symmetry_equiv_pos_as_xyz
1 x,y,z
2 -x,y,1/2-z
3 1/2+x,1/2+y,z
4 1/2-x,1/2+y,1/2-z
5 -x,-y,-z
6 x,-y,1/2+z
7 1/2-x,1/2-y,-z
8 1/2+x,1/2-y,1/2+z
_cell_length_a                   22.552(5)
_cell_length_b                   22.119(4)
_cell_length_c                   19.125(4)
_cell_angle_alpha                90
_cell_angle_beta                 114.67(3)
_cell_angle_gamma                90
_cell_volume                     8669.33
loop_
_atom_site_label
_atom_site_type_symbol
_atom_site_fract_x
_atom_site_fract_y
_atom_site_fract_z
C1 C 0.1705(6) 0.5370(5) 0.8555(8)
C2 C 0.3415(5) 0.5748(5) 1.1165(6)
N1 N 0.1482(4) 0.5569(4) 0.7859(5)
N2 N 0.0918(4) 0.5267(4) 0.7472(5)
N3 N 0.0810(4) 0.4919(4) 0.7944(6)
N4 N 0.1314(4) 0.4949(4) 0.8681(6)
N5 N 0.2308(6) 0.5548(6) 0.9143(6)
H1 H 0.254839 0.575742 0.898394
O1 O -0.0022(5) 0.3830(4) 0.8630(5)
O2 O -0.0706(4) 0.3503(4) 0.7533(5)
C3 C -0.0457(6) 0.3478(5) 0.8234(8)
O3 O -0.2318(4) 0.1937(4) 0.7389(5)
O4 O -0.2260(4) 0.1517(4) 0.8472(4)
C4 C -0.2038(5) 0.1872(5) 0.8114(7)
C5 C -0.1459(6) 0.2231(5) 0.8552(7)
C6 C -0.1255(6) 0.2648(5) 0.8193(6)
H2 H -0.146646 0.270677 0.766415
C7 C -0.0668(6) 0.3016(6) 0.8685(7)
O5 O 0.4198(4) 0.6509(4) 1.1288(4)
O6 O 0.4223(4) 0.6111(3) 1.2331(5)
C8 C 0.3969(6) 0.6121(5) 1.1637(7)
Cd1 Cd 0.18920(3) 0.38094(3) 1.22429(4)
Cd2 Cd -0.000000 0.18521(5) 1.250000
Cd3 Cd 0.000000 0.42498(5) 0.750000
C9 C 0.2359(6) 0.4562(6) 1.1473(7)
N6 N 0.1032(4) 0.3164(4) 1.1811(5)
N7 N 0.0389(5) 0.2515(4) 1.1894(5)
O7 O 0.2638(4) 0.4548(4) 1.2222(5)
C10 C 0.2645(6) 0.4970(5) 1.1108(6)
C11 C 0.0205(5) 0.2631(6) 1.1131(6)
N8 N 0.0928(4) 0.2849(4) 1.2303(5)
O8 O 0.1875(4) 0.4247(4) 1.1104(5)
N9 N 0.0626(4) 0.3054(5) 1.1068(5)
C12 C -0.0572(6) 0.2455(6) 0.9786(6)
C13 C -0.0378(6) 0.2928(6) 0.9432(6)
H3 H -0.003983 0.318313 0.973313
C14 C 0.3163(5) 0.5324(5) 1.1502(6)
H4 H 0.336462 0.528160 1.203410
N10 N -0.0275(5) 0.2344(6) 1.0579(6)
H5 H -0.043128 0.204113 1.072865
C15 C 0.2583(6) 0.5447(6) 0.9927(6)
C16 C 0.3108(6) 0.5804(6) 1.0363(7)
H6 H 0.326130 0.608778 1.012019
C17 C 0.2319(5) 0.5024(6) 1.0306(7)
H7 H 0.194716 0.479813 1.002612
C18 C -0.1098(5) 0.2112(5) 0.9350(6)
H8 H -0.122384 0.179503 0.957772
C1A C -0.1705(6) 0.5370(5) 0.6445(8)
C2A C -0.3415(5) 0.5748(5) 0.3835(6)
N1A N -0.1482(4) 0.5569(4) 0.7141(5)
N2A N -0.0918(4) 0.5267(4) 0.7528(5)
N3A N -0.0810(4) 0.4919(4) 0.7056(6)
N4A N -0.1314(4) 0.4949(4) 0.6319(6)
N5A N -0.2308(6) 0.5548(6) 0.5857(6)
H1A H -0.254839 0.575742 0.601606
O1A O 0.0022(5) 0.3830(4) 0.6370(5)
O2A O 0.0706(4) 0.3503(4) 0.7467(5)
C3A C 0.0457(6) 0.3478(5) 0.6766(8)
O3A O 0.2318(4) 0.1937(4) 0.7611(5)
O4A O 0.2260(4) 0.1517(4) 0.6528(4)
C4A C 0.2038(5) 0.1872(5) 0.6886(7)
C5A C 0.1459(6) 0.2231(5) 0.6448(7)
C6A C 0.1255(6) 0.2648(5) 0.6807(6)
H2A H 0.146646 0.270677 0.733585
C7A C 0.0668(6) 0.3016(6) 0.6315(7)
O5A O -0.4198(4) 0.6509(4) 0.3712(4)
O6A O -0.4223(4) 0.6111(3) 0.2669(5)
C8A C -0.3969(6) 0.6121(5) 0.3363(7)
Cd1A Cd -0.18920(3) 0.38094(3) 0.27571(4)
C9A C -0.2359(6) 0.4562(6) 0.3527(7)
N6A N -0.1032(4) 0.3164(4) 0.3189(5)
N7A N -0.0389(5) 0.2515(4) 0.3106(5)
O7A O -0.2638(4) 0.4548(4) 0.2778(5)
C10A C -0.2645(6) 0.4970(5) 0.3892(6)
C11A C -0.0205(5) 0.2631(6) 0.3869(6)
N8A N -0.0928(4) 0.2849(4) 0.2697(5)
O8A O -0.1875(4) 0.4247(4) 0.3896(5)
N9A N -0.0626(4) 0.3054(5) 0.3932(5)
C12A C 0.0572(6) 0.2455(6) 0.5214(6)
C13A C 0.0378(6) 0.2928(6) 0.5568(6)
H3A H 0.003983 0.318313 0.526687
C14A C -0.3163(5) 0.5324(5) 0.3498(6)
H4A H -0.336462 0.528160 0.296590
N10A N 0.0275(5) 0.2344(6) 0.4421(6)
H5A H 0.043128 0.204113 0.427135
C15A C -0.2583(6) 0.5447(6) 0.5073(6)
C16A C -0.3108(6) 0.5804(6) 0.4637(7)
H6A H -0.326130 0.608778 0.487981
C17A C -0.2319(5) 0.5024(6) 0.4694(7)
H7A H -0.194716 0.479813 0.497388
C18A C 0.1098(5) 0.2112(5) 0.5650(6)
H8A H 0.122384 0.179503 0.542228
N1D N -0.1482(4) 0.4431(4) 0.2141(5)
N1E N 0.1482(4) 0.4431(4) 1.2859(5)
O3F O -0.2682(4) 0.3063(4) 0.2611(5)
O3G O 0.2682(4) 0.3063(4) 1.2389(5)
O4F O -0.2740(4) 0.3483(4) 0.1528(4)
O4G O 0.2740(4) 0.3483(4) 1.3472(4)
O5B O -0.0802(4) 0.1509(4) 1.1288(4)
O5C O 0.0802(4) 0.1509(4) 1.3712(4)
O6B O -0.0777(4) 0.1111(3) 1.2331(5)
O6C O 0.0777(4) 0.1111(3) 1.2669(5)
Cd1D Cd -0.18920(3) 0.61906(3) 0.77571(4)
Cd1E Cd 0.18920(3) 0.61906(3) 0.72429(4)
Cd1F Cd 0.31080(3) 0.11906(3) 0.77571(4)
Cd1G Cd -0.31080(3) 0.11906(3) 0.72429(4)
Cd2_2 Cd -0.000000 0.18521(5) 0.250000
Cd2B Cd -0.500000 0.68521(5) 0.250000
Cd2B_2 Cd 0.500000 0.68521(5) 1.250000
N7A_2 N -0.0389(5) 0.2515(4) 1.3106(5)
loop_
_geom_bond_atom_site_label_1
_geom_bond_atom_site_label_2
_geom_bond_site_symmetry_1
_geom_bond_site_symmetry_2
C1 N1 1_555 1_555
C2 C8 1_555 1_555
N1 N2 1_555 1_555
N2 N3 1_555 1_555
N3 N4 1_555 1_555
N4 C1 1_555 1_555
N5 C1 1_555 1_555
H1 N5 1_555 1_555
O1 C3 1_555 1_555
O2 C3 1_555 1_555
C3 C7 1_555 1_555
O3 C4 1_555 1_555
O4 C4 1_555 1_555
C4 C5 1_555 1_555
C5 C6 1_555 1_555
C6 H2 1_555 1_555
C7 C6 1_555 1_555
O5 C8 1_555 1_555
O6 C8 1_555 1_555
Cd1 N6 1_555 1_555
Cd2 N7 1_555 1_555
Cd3 N3 1_555 1_555
C9 O7 1_555 1_555
N6 N8 1_555 1_555
N7 C11 1_555 1_555
O7 Cd1 1_555 1_555
C10 C9 1_555 1_555
C11 N9 1_555 1_555
N8 N7 1_555 1_555
O8 Cd1 1_555 1_555
N9 N6 1_555 1_555
C12 C13 1_555 1_555
C13 C7 1_555 1_555
H3 C13 1_555 1_555
C14 C2 1_555 1_555
H4 C14 1_555 1_555
N10 C11 1_555 1_555
H5 N10 1_555 1_555
C15 N5 1_555 1_555
C16 C2 1_555 1_555
H6 C16 1_555 1_555
C17 C10 1_555 1_555
H7 C17 1_555 1_555
C18 C5 1_555 1_555
H8 C18 1_555 1_555
C1A N1A 1_555 1_555
C2A C8A 1_555 1_555
N1A N2A 1_555 1_555
N2A N3A 1_555 1_555
N3A Cd3 1_555 1_555
N4A C1A 1_555 1_555
N5A C1A 1_555 1_555
H1A N5A 1_555 1_555
O1A Cd3 1_555 1_555
O2A Cd3 1_555 1_555
C3A O1A 1_555 1_555
O3A C4A 1_555 1_555
O4A C4A 1_555 1_555
C4A C5A 1_555 1_555
C5A C6A 1_555 1_555
C6A H2A 1_555 1_555
C7A C3A 1_555 1_555
O5A C8A 1_555 1_555
O6A C8A 1_555 1_555
Cd1A N6A 1_555 1_555
C9A O7A 1_555 1_555
N6A N8A 1_555 1_555
N7A C11A 1_555 1_555
O7A Cd1A 1_555 1_555
C10A C9A 1_555 1_555
C11A N9A 1_555 1_555
N8A N7A 1_555 1_555
O8A Cd1A 1_555 1_555
N9A N6A 1_555 1_555
C12A C13A 1_555 1_555
C13A C7A 1_555 1_555
H3A C13A 1_555 1_555
C14A C2A 1_555 1_555
H4A C14A 1_555 1_555
N10A C11A 1_555 1_555
H5A N10A 1_555 1_555
C15A N5A 1_555 1_555
C16A C2A 1_555 1_555
H6A C16A 1_555 1_555
C17A C10A 1_555 1_555
H7A C17A 1_555 1_555
C18A C5A 1_555 1_555
H8A C18A 1_555 1_555
N1D Cd1A 1_555 1_555
N1E Cd1 1_555 1_555
O3F Cd1A 1_555 1_555
O3G Cd1 1_555 1_555
O4F Cd1A 1_555 1_555
O4G Cd1 1_555 1_555
O5B Cd2 1_555 1_555
O5C Cd2 1_555 1_555
O6B Cd2 1_555 1_555
O6C Cd2 1_555 1_555
Cd1D N1A 1_555 1_555
Cd1E N1 1_555 1_555
Cd1F O3A 1_555 1_555
Cd1G O3 1_555 1_555
Cd2_2 N7A 1_555 1_555
Cd2B O5A 1_555 1_555
Cd2B_2 O5 1_555 1_555
N7A_2 Cd2 1_555 1_555
O1 Cd3 1_555 1_555
O2 Cd3 1_555 1_555
O4 Cd1G 1_555 1_555
O6 Cd2B_2 1_555 1_555
C9 O8 1_555 1_555
C10 C14 1_555 1_555
C12 N10 1_555 1_555
C12 C18 1_555 1_555
C15 C16 1_555 1_555
C15 C17 1_555 1_555
N3A N4A 1_555 1_555
O2A C3A 1_555 1_555
O4A Cd1F 1_555 1_555
C6A C7A 1_555 1_555
O6A Cd2B 1_555 1_555
C9A O8A 1_555 1_555
C10A C14A 1_555 1_555
C12A N10A 1_555 1_555
C12A C18A 1_555 1_555
C15A C16A 1_555 1_555
C15A C17A 1_555 1_555

#END
