
#######################################################################
#
#                 Cambridge Crystallographic Data Centre
#                                CCDC 
#
#######################################################################
#
# If this CIF has been generated from an entry in the Cambridge 
# Structural Database, then it will include bibliographic, chemical, 
# crystal, experimental, refinement or atomic coordinate data resulting 
# from the CCDC's data processing and validation procedures.
#
#######################################################################

data_DUQRUD
_chemical_formula_moiety         '(C128 H88 Cd4 N24 O16)n'
_symmetry_cell_setting           monoclinic
_symmetry_space_group_name_H-M   'C 2/c'
_symmetry_Int_Tables_number      15
_space_group_name_Hall           '-C 2yc'
loop_
_symmetry_equiv_pos_site_id
_symmetry_equiv_pos_as_xyz
1 x,y,z
2 -x,y,1/2-z
3 1/2+x,1/2+y,z
4 1/2-x,1/2+y,1/2-z
5 -x,-y,-z
6 x,-y,1/2+z
7 1/2-x,1/2-y,-z
8 1/2+x,1/2-y,1/2+z
_cell_length_a                   20.542(5)
_cell_length_b                   28.488(7)
_cell_length_c                   20.519(5)
_cell_angle_alpha                90
_cell_angle_beta                 99.776(5)
_cell_angle_gamma                90
_cell_volume                     11833.4
loop_
_atom_site_label
_atom_site_type_symbol
_atom_site_fract_x
_atom_site_fract_y
_atom_site_fract_z
_atom_site_U_iso_or_equiv
_atom_site_thermal_displace_type
Cd1 Cd 0.69783(3) 0.881904(18) 0.41284(3) 0.0546 Uani
Cd2 Cd 0.81652(4) 0.91770(2) 0.65610(3) 0.0797 Uani
N1 N 0.7655(4) 0.8283(2) 0.3703(3) 0.0657 Uani
N2 N 0.6337(3) 0.8209(2) 0.3643(3) 0.0605 Uani
N3 N 0.6621(3) 0.9272(2) 0.3144(3) 0.0571 Uani
N4 N 0.7624(3) 0.9491(2) 0.4135(3) 0.0508 Uani
N5 N 0.7410(4) 0.9746(2) 0.6099(3) 0.0661 Uani
N6 N 0.8415(5) 0.9906(3) 0.7117(4) 0.0832 Uani
C1 C 0.8303(5) 0.8327(4) 0.3746(5) 0.0794 Uani
H1 H 0.8506 0.8596 0.3942 0.0950 Uiso
C2 C 0.8688(6) 0.7993(4) 0.3511(6) 0.0981 Uani
H2 H 0.9142 0.8034 0.3544 0.1180 Uiso
C3 C 0.8373(8) 0.7586(5) 0.3219(6) 0.1164 Uani
H3 H 0.8621 0.7349 0.3070 0.1390 Uiso
C4 C 0.7716(6) 0.7542(3) 0.3156(5) 0.0903 Uani
H4 H 0.7503 0.7282 0.2946 0.1080 Uiso
C5 C 0.7354(5) 0.7891(3) 0.3410(4) 0.0738 Uani
C6 C 0.6640(5) 0.7863(3) 0.3381(4) 0.0709 Uani
C7 C 0.6172(6) 0.7522(3) 0.3125(4) 0.0880 Uani
H5 H 0.6251 0.7245 0.2912 0.1050 Uiso
C8 C 0.5573(6) 0.7679(3) 0.3251(4) 0.0839 Uani
H6 H 0.5166 0.7530 0.3147 0.1010 Uiso
N7 N 0.5705(4) 0.8098(2) 0.3559(3) 0.0705 Uani
H7 H 0.5408 0.8273 0.3685 0.0850 Uiso
C9 C 0.6129(4) 0.9166(3) 0.2662(4) 0.0669 Uani
H8 H 0.5930 0.8874 0.2676 0.0800 Uiso
C10 C 0.5891(5) 0.9455(3) 0.2143(4) 0.0737 Uani
H9 H 0.5531 0.9368 0.1827 0.0890 Uiso
C11 C 0.6197(4) 0.9873(3) 0.2104(4) 0.0733 Uani
H10 H 0.6062 1.0072 0.1748 0.0870 Uiso
C12 C 0.6707(4) 1.0001(3) 0.2591(3) 0.0581 Uani
H11 H 0.6911 1.0292 0.2578 0.0700 Uiso
C13 C 0.6911(4) 0.9694(3) 0.3098(3) 0.0520 Uani
C14 C 0.7458(4) 0.9808(3) 0.3647(3) 0.0544 Uani
C15 C 0.7848(5) 1.0201(3) 0.3758(4) 0.0756 Uani
H12 H 0.7832 1.0470 0.3499 0.0910 Uiso
C16 C 0.8258(5) 1.0110(3) 0.4327(4) 0.0819 Uani
H13 H 0.8588 1.0310 0.4531 0.0990 Uiso
N8 N 0.8123(3) 0.9694(2) 0.4553(3) 0.0571 Uani
H14 H 0.8323 0.9571 0.4915 0.0690 Uiso
C17 C 0.7686(4) 0.8441(3) 0.5565(4) 0.0562 Uani
C18 C 0.7590(4) 0.7953(2) 0.5272(4) 0.0589 Uani
C19 C 0.6949(4) 0.7759(2) 0.5153(4) 0.0552 Uani
C20 C 0.6383(4) 0.7998(3) 0.5304(4) 0.0637 Uani
H15 H 0.6432 0.8296 0.5493 0.0770 Uiso
C21 C 0.5766(4) 0.7795(3) 0.5174(4) 0.0710 Uani
H16 H 0.5403 0.7957 0.5275 0.0850 Uiso
C22 C 0.5681(4) 0.7358(3) 0.4897(5) 0.0772 Uani
H17 H 0.5260 0.7227 0.4812 0.0930 Uiso
C23 C 0.6206(4) 0.7111(3) 0.4744(4) 0.0643 Uani
H18 H 0.6134 0.6814 0.4555 0.0770 Uiso
C24 C 0.8142(4) 0.7705(2) 0.5135(4) 0.0569 Uani
C25 C 0.5594(4) 0.9205(3) 0.4424(4) 0.0561 Uani
C26 C 0.5275(3) 0.9618(2) 0.4722(4) 0.0509 Uani
C27 C 0.5221(3) 1.0046(3) 0.4391(4) 0.0532 Uani
C28 C 0.5461(4) 1.0119(3) 0.3773(4) 0.0705 Uani
H19 H 0.5643 0.9868 0.3577 0.0850 Uiso
C29 C 0.5424(5) 1.0547(4) 0.3475(5) 0.0859 Uani
H20 H 0.5583 1.0589 0.3081 0.1030 Uiso
C30 C 0.5143(5) 1.0924(3) 0.3771(5) 0.0851 Uani
H21 H 0.5114 1.1216 0.3565 0.1020 Uiso
C31 C 0.4914(4) 1.0875(3) 0.4345(5) 0.0706 Uani
H22 H 0.4732 1.1134 0.4526 0.0840 Uiso
C32 C 0.5056(4) 0.9556(2) 0.5325(4) 0.0534 Uani
C33 C 0.9374(4) 0.9493(3) 0.5966(5) 0.0704 Uani
C34 C 0.9702(4) 0.9747(3) 0.5464(4) 0.0674 Uani
C35 C 0.9734(4) 1.0248(3) 0.5493(4) 0.0696 Uani
C36 C 0.9457(5) 1.0517(4) 0.5966(5) 0.0831 Uani
H23 H 0.9248 1.0361 0.6271 0.1000 Uiso
C37 C 0.9489(5) 1.0992(4) 0.5983(6) 0.0904 Uani
H24 H 0.9303 1.1159 0.6295 0.1090 Uiso
C38 C 0.9805(6) 1.1228(4) 0.5528(6) 0.1051 Uani
H25 H 0.9845 1.1553 0.5555 0.1260 Uiso
C39 C 1.0054(5) 1.0999(4) 0.5051(6) 0.0936 Uani
H26 H 1.0238 1.1171 0.4742 0.1120 Uiso
C40 C 0.9958(4) 0.9505(3) 0.4991(5) 0.0729 Uani
N9 N 0.6914(4) 0.9779(3) 0.5575(4) 0.0758 Uani
H27 H 0.6738 0.9543 0.5348 0.0910 Uiso
C41 C 0.6738(5) 1.0213(4) 0.5458(6) 0.1005 Uani
H28 H 0.6404 1.0315 0.5124 0.1210 Uiso
C42 C 0.7115(6) 1.0493(4) 0.5898(6) 0.0993 Uani
H29 H 0.7099 1.0818 0.5929 0.1190 Uiso
C43 C 0.7531(4) 1.0188(3) 0.6293(5) 0.0735 Uani
C44 C 0.8069(5) 1.0275(3) 0.6868(5) 0.0744 Uani
C45 C 0.8197(6) 1.0726(4) 0.7091(6) 0.1032 Uani
H30 H 0.7948 1.0978 0.6898 0.1240 Uiso
C46 C 0.8700(8) 1.0790(6) 0.7605(6) 0.1254 Uani
H31 H 0.8809 1.1091 0.7763 0.1510 Uiso
C47 C 0.9059(8) 1.0402(6) 0.7899(6) 0.1275 Uani
H32 H 0.9390 1.0436 0.8266 0.1530 Uiso
C48 C 0.8898(6) 0.9970(4) 0.7620(5) 0.0988 Uani
H33 H 0.9141 0.9711 0.7795 0.1180 Uiso
O1 O 0.7510(2) 0.87884(14) 0.5204(2) 0.0507 Uani
O2 O 0.7962(3) 0.84620(19) 0.6153(3) 0.0778 Uani
O3 O 0.6213(2) 0.91632(17) 0.4633(2) 0.0565 Uani
O4 O 0.5268(3) 0.8948(2) 0.4019(3) 0.0835 Uani
O5 O 0.8770(2) 0.93859(19) 0.5779(3) 0.0610 Uani
O6 O 0.9697(3) 0.9420(3) 0.6536(3) 0.1088 Uani
N10 N 0.8836(5) 0.8796(3) 0.7461(4) 0.1415 Uani
N11 N 0.9504(5) 0.8710(3) 0.7666(5) 0.1668 Uani
H34 H 0.9819 0.8809 0.7475 0.2000 Uiso
C49 C 0.9573(5) 0.8436(4) 0.8232(6) 0.1609 Uani
H35 H 0.9969 0.8328 0.8472 0.1930 Uiso
C50 C 0.8948(6) 0.8353(4) 0.8377(5) 0.1543 Uani
H36 H 0.8852 0.8179 0.8732 0.1850 Uiso
C51 C 0.8493(4) 0.8575(3) 0.7901(5) 0.1466 Uani
N12 N 0.7452(4) 0.8865(3) 0.7285(4) 0.1131 Uani
C52 C 0.7773(3) 0.8603(3) 0.7816(5) 0.1396 Uani
C53 C 0.7410(5) 0.8322(3) 0.8176(4) 0.1572 Uani
H37 H 0.7625 0.8147 0.8531 0.1880 Uiso
C54 C 0.6726(5) 0.8303(3) 0.8006(5) 0.1633 Uani
H38 H 0.6483 0.8115 0.8248 0.1960 Uiso
C55 C 0.6405(3) 0.8565(4) 0.7476(5) 0.1386 Uani
H39 H 0.5947 0.8552 0.7362 0.1660 Uiso
C56 C 0.6768(4) 0.8846(3) 0.7115(4) 0.1212 Uani
H40 H 0.6553 0.9021 0.6760 0.1460 Uiso
Cd1F Cd 0.80217(3) 0.618096(18) 0.58716(3) 0.0546 Uani
Cd1D Cd 0.30217(3) 1.118096(18) 0.58716(3) 0.0546 Uani
Cd2F Cd 0.68348(4) 0.58230(2) 0.34390(3) 0.0797 Uani
Cd2D Cd 1.18348(4) 1.08230(2) 0.34390(3) 0.0797 Uani
N1F N 0.7345(4) 0.6717(2) 0.6297(3) 0.0657 Uani
N2F N 0.8663(3) 0.6791(2) 0.6357(3) 0.0605 Uani
N3F N 0.8379(3) 0.5728(2) 0.6856(3) 0.0571 Uani
N4F N 0.7376(3) 0.5509(2) 0.5865(3) 0.0508 Uani
N5F N 0.7590(4) 0.5254(2) 0.3901(3) 0.0661 Uani
N6F N 0.6585(5) 0.5094(3) 0.2883(4) 0.0832 Uani
C1F C 0.6697(5) 0.6673(4) 0.6254(5) 0.0794 Uani
H1F H 0.6494 0.6404 0.6058 0.0950 Uiso
C2F C 0.6312(6) 0.7007(4) 0.6489(6) 0.0981 Uani
H2F H 0.5858 0.6966 0.6456 0.1180 Uiso
C3F C 0.6627(8) 0.7414(5) 0.6781(6) 0.1164 Uani
H3F H 0.6379 0.7651 0.6930 0.1390 Uiso
C4F C 0.7284(6) 0.7458(3) 0.6844(5) 0.0903 Uani
H4F H 0.7497 0.7718 0.7054 0.1080 Uiso
C5F C 0.7646(5) 0.7109(3) 0.6590(4) 0.0738 Uani
C6F C 0.8360(5) 0.7137(3) 0.6619(4) 0.0709 Uani
C7F C 0.8828(6) 0.7478(3) 0.6875(4) 0.0880 Uani
H5F H 0.8749 0.7755 0.7088 0.1050 Uiso
C8F C 0.9427(6) 0.7321(3) 0.6749(4) 0.0839 Uani
H6F H 0.9834 0.7470 0.6853 0.1010 Uiso
N7F N 0.9295(4) 0.6902(2) 0.6441(3) 0.0705 Uani
H7F H 0.9592 0.6727 0.6315 0.0850 Uiso
C9F C 0.8871(4) 0.5834(3) 0.7338(4) 0.0669 Uani
H8F H 0.9070 0.6126 0.7324 0.0800 Uiso
C10F C 0.9109(5) 0.5545(3) 0.7857(4) 0.0737 Uani
H9F H 0.9469 0.5632 0.8173 0.0890 Uiso
C11F C 0.8803(4) 0.5127(3) 0.7896(4) 0.0733 Uani
H10F H 0.8938 0.4928 0.8252 0.0870 Uiso
C12F C 0.8293(4) 0.4999(3) 0.7409(3) 0.0581 Uani
H11F H 0.8089 0.4708 0.7422 0.0700 Uiso
C13F C 0.8089(4) 0.5306(3) 0.6902(3) 0.0520 Uani
C14F C 0.7542(4) 0.5192(3) 0.6353(3) 0.0544 Uani
C15F C 0.7152(5) 0.4799(3) 0.6242(4) 0.0756 Uani
H12F H 0.7168 0.4530 0.6501 0.0910 Uiso
C16F C 0.6742(5) 0.4890(3) 0.5673(4) 0.0819 Uani
H13F H 0.6412 0.4690 0.5469 0.0990 Uiso
N8F N 0.6877(3) 0.5306(2) 0.5447(3) 0.0571 Uani
H14F H 0.6677 0.5429 0.5085 0.0690 Uiso
C17F C 0.7314(4) 0.6559(3) 0.4435(4) 0.0562 Uani
C18F C 0.7410(4) 0.7047(2) 0.4728(4) 0.0589 Uani
C19F C 0.8051(4) 0.7241(2) 0.4847(4) 0.0552 Uani
C20F C 0.8617(4) 0.7002(3) 0.4696(4) 0.0637 Uani
H15F H 0.8568 0.6704 0.4507 0.0770 Uiso
C21F C 0.9234(4) 0.7205(3) 0.4826(4) 0.0710 Uani
H16F H 0.9597 0.7043 0.4725 0.0850 Uiso
C22F C 0.9319(4) 0.7642(3) 0.5103(5) 0.0772 Uani
H17F H 0.9740 0.7773 0.5188 0.0930 Uiso
C23F C 0.8794(4) 0.7889(3) 0.5256(4) 0.0643 Uani
H18F H 0.8866 0.8186 0.5445 0.0770 Uiso
C24F C 0.6858(4) 0.7295(2) 0.4865(4) 0.0569 Uani
C25D C 0.4406(4) 1.0795(3) 0.5576(4) 0.0561 Uani
C26D C 0.4725(3) 1.0382(2) 0.5278(4) 0.0509 Uani
C27D C 0.4779(3) 0.9954(3) 0.5609(4) 0.0532 Uani
C28D C 0.4539(4) 0.9881(3) 0.6227(4) 0.0705 Uani
H19D H 0.4357 1.0132 0.6423 0.0850 Uiso
C29D C 0.4576(5) 0.9453(4) 0.6525(5) 0.0859 Uani
H20D H 0.4417 0.9411 0.6919 0.1030 Uiso
C30D C 0.4857(5) 0.9076(3) 0.6229(5) 0.0851 Uani
H21D H 0.4886 0.8784 0.6435 0.1020 Uiso
C31D C 0.5086(4) 0.9125(3) 0.5655(5) 0.0706 Uani
H22D H 0.5268 0.8866 0.5474 0.0840 Uiso
C32D C 0.4944(4) 1.0444(2) 0.4675(4) 0.0534 Uani
C33D C 1.0626(4) 1.0507(3) 0.4034(5) 0.0704 Uani
C34D C 1.0298(4) 1.0253(3) 0.4536(4) 0.0674 Uani
C35D C 1.0266(4) 0.9752(3) 0.4507(4) 0.0696 Uani
C36D C 1.0543(5) 0.9483(4) 0.4034(5) 0.0831 Uani
H23D H 1.0752 0.9639 0.3729 0.1000 Uiso
C37D C 1.0511(5) 0.9008(4) 0.4017(6) 0.0904 Uani
H24D H 1.0697 0.8841 0.3705 0.1090 Uiso
C38D C 1.0195(6) 0.8772(4) 0.4472(6) 0.1051 Uani
H25D H 1.0155 0.8447 0.4445 0.1260 Uiso
C39D C 0.9946(5) 0.9001(4) 0.4949(6) 0.0936 Uani
H26D H 0.9762 0.8829 0.5258 0.1120 Uiso
C40D C 1.0042(4) 1.0495(3) 0.5009(5) 0.0729 Uani
N9F N 0.8086(4) 0.5221(3) 0.4425(4) 0.0758 Uani
H27F H 0.8262 0.5457 0.4652 0.0910 Uiso
C41F C 0.8262(5) 0.4787(4) 0.4542(6) 0.1005 Uani
H28F H 0.8596 0.4685 0.4876 0.1210 Uiso
C42F C 0.7885(6) 0.4507(4) 0.4102(6) 0.0993 Uani
H29F H 0.7901 0.4182 0.4071 0.1190 Uiso
C43F C 0.7469(4) 0.4812(3) 0.3707(5) 0.0735 Uani
C44F C 0.6931(5) 0.4725(3) 0.3132(5) 0.0744 Uani
C45F C 0.6803(6) 0.4274(4) 0.2909(6) 0.1032 Uani
H30F H 0.7052 0.4022 0.3102 0.1240 Uiso
C46F C 0.6300(8) 0.4210(6) 0.2395(6) 0.1254 Uani
H31F H 0.6191 0.3909 0.2237 0.1510 Uiso
C47F C 0.5941(8) 0.4598(6) 0.2101(6) 0.1275 Uani
H32F H 0.5610 0.4564 0.1734 0.1530 Uiso
C48F C 0.6102(6) 0.5030(4) 0.2380(5) 0.0988 Uani
H33F H 0.5859 0.5289 0.2205 0.1180 Uiso
O1F O 0.7490(2) 0.62116(14) 0.4796(2) 0.0507 Uani
O2F O 0.7038(3) 0.65380(19) 0.3847(3) 0.0778 Uani
O3D O 0.3787(2) 1.08368(17) 0.5367(2) 0.0565 Uani
O3F O 0.8787(2) 0.58368(17) 0.5367(2) 0.0565 Uani
O4D O 0.4732(3) 1.1052(2) 0.5981(3) 0.0835 Uani
O5D O 1.1230(2) 1.06141(19) 0.4221(3) 0.0610 Uani
O5F O 0.6230(2) 0.56141(19) 0.4221(3) 0.0610 Uani
O6D O 1.0303(3) 1.0580(3) 0.3464(3) 0.1088 Uani
N10F N 0.6164(5) 0.6204(3) 0.2539(4) 0.1415 Uani
N11F N 0.5496(5) 0.6290(3) 0.2334(5) 0.1668 Uani
H34F H 0.5181 0.6191 0.2525 0.2000 Uiso
C49F C 0.5427(5) 0.6564(4) 0.1768(6) 0.1609 Uani
H35F H 0.5031 0.6672 0.1528 0.1930 Uiso
C50F C 0.6052(6) 0.6647(4) 0.1623(5) 0.1543 Uani
H36F H 0.6148 0.6821 0.1268 0.1850 Uiso
C51F C 0.6507(4) 0.6425(3) 0.2099(5) 0.1466 Uani
N12F N 0.7548(4) 0.6135(3) 0.2715(4) 0.1131 Uani
C52F C 0.7227(3) 0.6397(3) 0.2184(5) 0.1396 Uani
C53F C 0.7590(5) 0.6678(3) 0.1824(4) 0.1572 Uani
H37F H 0.7375 0.6853 0.1469 0.1880 Uiso
C54F C 0.8274(5) 0.6697(3) 0.1994(5) 0.1633 Uani
H38F H 0.8517 0.6885 0.1752 0.1960 Uiso
C55F C 0.8595(3) 0.6435(4) 0.2524(5) 0.1386 Uani
H39F H 0.9053 0.6448 0.2638 0.1660 Uiso
C56F C 0.8232(4) 0.6154(3) 0.2885(4) 0.1212 Uani
H40F H 0.8447 0.5979 0.3240 0.1460 Uiso
O7 O 0.5785(7) 0.7440(8) 0.9104(9) 0.3499 Uani
O8 O 0.5773(7) 0.7431(9) 1.0157(11) 0.3854 Uani
C57 C 0.6079(4) 0.7443(4) 0.9686(9) 0.3211 Uani
C58 C 0.6820(3) 0.7462(3) 0.9828(5) 0.2914 Uani
C59 C 0.7195(4) 0.7061(2) 0.9976(6) 0.2708 Uani
C60 C 0.6892(7) 0.6626(3) 0.9996(7) 0.2634 Uani
H41 H 0.6434 0.6602 0.9910 0.3160 Uiso
C61 C 0.7275(9) 0.6230(5) 1.0144(9) 0.2579 Uani
H42 H 0.7077 0.5935 1.0098 0.3090 Uiso
C62 C 0.7953(9) 0.6265(4) 1.0363(9) 0.2945 Uani
H43 H 0.8199 0.6002 1.0521 0.3530 Uiso
C63 C 0.8261(6) 0.6702(4) 1.0341(7) 0.2957 Uani
H44 H 0.8719 0.6725 1.0425 0.3550 Uiso
C64 C 0.7125(4) 0.7899(2) 0.9808(7) 0.2919 Uani
O7F O 0.9215(7) 0.7560(8) 1.0896(9) 0.3499 Uani
O8F O 0.9227(7) 0.7569(9) 0.9843(11) 0.3854 Uani
C57F C 0.8921(4) 0.7557(4) 1.0314(9) 0.3211 Uani
C58F C 0.8180(3) 0.7538(3) 1.0172(5) 0.2914 Uani
C59F C 0.7805(4) 0.7939(2) 1.0024(6) 0.2708 Uani
C60F C 0.8108(7) 0.8374(3) 1.0004(7) 0.2634 Uani
H41F H 0.8566 0.8398 1.0090 0.3160 Uiso
C61F C 0.7725(9) 0.8770(5) 0.9856(9) 0.2579 Uani
H42F H 0.7923 0.9065 0.9902 0.3090 Uiso
C62F C 0.7047(9) 0.8735(4) 0.9637(9) 0.2945 Uani
H43F H 0.6801 0.8998 0.9479 0.3530 Uiso
C63F C 0.6739(6) 0.8298(4) 0.9659(7) 0.2957 Uani
H44F H 0.6281 0.8275 0.9575 0.3550 Uiso
C64F C 0.7875(4) 0.7101(2) 1.0192(7) 0.2919 Uani
loop_
_atom_site_aniso_label
_atom_site_aniso_U_11
_atom_site_aniso_U_22
_atom_site_aniso_U_33
_atom_site_aniso_U_23
_atom_site_aniso_U_13
_atom_site_aniso_U_12
Cd1 0.0668(4) 0.0405(3) 0.0576(4) 0.0020(2) 0.0133(3) 0.0100(2)
Cd2 0.1318(7) 0.0506(4) 0.0630(4) 0.0024(3) 0.0342(4) -0.0088(4)
N1 0.085(5) 0.058(4) 0.058(4) 0.013(3) 0.023(3) 0.020(4)
N2 0.077(5) 0.041(3) 0.064(4) -0.006(3) 0.013(3) 0.000(3)
N3 0.067(4) 0.056(4) 0.048(3) -0.003(3) 0.009(3) 0.011(3)
N4 0.054(3) 0.051(4) 0.048(3) 0.007(3) 0.010(3) 0.006(3)
N5 0.079(5) 0.052(4) 0.074(4) -0.017(3) 0.032(4) -0.013(3)
N6 0.121(7) 0.075(6) 0.058(4) -0.005(4) 0.028(4) -0.027(5)
C1 0.090(7) 0.075(6) 0.079(6) 0.006(5) 0.031(5) 0.020(5)
C2 0.103(8) 0.092(8) 0.108(8) 0.016(7) 0.043(7) 0.024(7)
C3 0.142(12) 0.098(9) 0.124(9) 0.003(7) 0.065(9) 0.050(8)
C4 0.122(9) 0.059(6) 0.100(7) -0.007(5) 0.048(6) 0.019(6)
C5 0.116(8) 0.046(5) 0.067(5) 0.015(4) 0.037(5) 0.022(5)
C6 0.119(8) 0.038(4) 0.056(4) 0.001(3) 0.016(5) 0.014(4)
C7 0.150(10) 0.046(5) 0.074(6) -0.008(4) 0.036(6) 0.012(6)
C8 0.126(9) 0.052(5) 0.074(6) -0.004(4) 0.018(6) -0.007(5)
N7 0.088(5) 0.051(4) 0.072(4) -0.004(3) 0.012(4) 0.009(4)
C9 0.084(6) 0.063(5) 0.053(4) 0.003(4) 0.010(4) -0.008(4)
C10 0.078(6) 0.075(6) 0.064(5) 0.010(4) 0.000(4) -0.008(5)
C11 0.079(6) 0.084(6) 0.056(5) 0.015(4) 0.009(4) 0.004(5)
C12 0.073(5) 0.055(5) 0.047(4) 0.011(3) 0.012(4) 0.000(4)
C13 0.059(4) 0.050(4) 0.052(4) 0.003(3) 0.024(3) 0.009(3)
C14 0.061(4) 0.052(4) 0.052(4) 0.005(3) 0.015(3) 0.009(3)
C15 0.094(6) 0.059(5) 0.066(5) 0.013(4) -0.009(4) -0.023(5)
C16 0.099(7) 0.063(6) 0.075(6) 0.013(4) -0.010(5) -0.021(5)
N8 0.065(4) 0.054(4) 0.052(3) 0.010(3) 0.009(3) -0.002(3)
C17 0.063(5) 0.047(4) 0.063(5) 0.007(3) 0.023(4) -0.004(3)
C18 0.082(5) 0.031(4) 0.067(5) 0.007(3) 0.022(4) 0.002(4)
C19 0.063(5) 0.039(4) 0.065(4) 0.018(3) 0.015(3) -0.001(3)
C20 0.074(5) 0.046(4) 0.072(5) 0.019(4) 0.015(4) 0.010(4)
C21 0.065(5) 0.058(5) 0.094(6) 0.021(4) 0.025(4) 0.002(4)
C22 0.066 0.057 0.108 0.025 0.013 -0.007
C23 0.071 0.039 0.083 0.017 0.013 -0.009
C24 0.076(5) 0.035(4) 0.064(4) 0.014(3) 0.024(4) -0.004(3)
C25 0.058(5) 0.049(4) 0.059(4) -0.005(3) 0.003(3) 0.005(3)
C26 0.045(4) 0.046(4) 0.061(4) -0.003(3) 0.007(3) 0.004(3)
C27 0.047(4) 0.053(4) 0.060(4) -0.001(3) 0.010(3) -0.001(3)
C28 0.082(6) 0.073(6) 0.060(5) -0.004(4) 0.022(4) 0.007(4)
C29 0.112(8) 0.086(7) 0.067(5) 0.011(5) 0.036(5) 0.021(6)
C30 0.109 0.066 0.088 0.025 0.039 0.019
C31 0.08 0.043 0.094 0.008 0.03 0.011
C32 0.056(4) 0.044(4) 0.061(4) 0.000(3) 0.012(3) 0.016(3)
C33 0.064(5) 0.064(5) 0.085(6) 0.008(4) 0.018(4) -0.010(4)
C34 0.061(5) 0.074(6) 0.065(5) 0.002(4) 0.004(4) -0.008(4)
C35 0.061(5) 0.082(6) 0.065(5) 0.005(4) 0.008(4) -0.011(4)
C36 0.076(6) 0.097(8) 0.079(6) 0.007(5) 0.021(5) -0.005(5)
C37 0.099(7) 0.071(7) 0.112(8) 0.001(6) 0.049(6) -0.005(6)
C38 0.112 0.094 0.123 -0.007 0.059 -0.004
C39 0.085 0.083 0.118 0.009 0.032 -0.016
C40 0.066(5) 0.075(6) 0.077(5) 0.006(5) 0.010(4) -0.013(4)
N9 0.065(4) 0.072(5) 0.095(5) -0.027(4) 0.027(4) -0.007(4)
C41 0.074(6) 0.076(7) 0.142(10) -0.030(7) -0.009(6) 0.006(5)
C42 0.104(8) 0.051(6) 0.135(9) -0.022(6) -0.002(7) -0.004(5)
C43 0.071(5) 0.062(6) 0.092(6) -0.009(5) 0.027(5) -0.003(4)
C44 0.090(6) 0.058(5) 0.084(6) -0.014(5) 0.040(5) -0.015(5)
C45 0.108(8) 0.092(8) 0.111(8) -0.045(7) 0.023(7) -0.014(6)
C46 0.152(12) 0.132(12) 0.087(8) -0.047(8) 0.005(8) -0.029(10)
C47 0.148(12) 0.151(13) 0.070(7) -0.014(8) -0.020(7) -0.046(10)
C48 0.140(10) 0.084(7) 0.072(6) -0.004(5) 0.017(6) -0.022(7)
O1 0.060(3) 0.029(2) 0.063(3) 0.005(2) 0.010(2) 0.002(2)
O2 0.121(5) 0.046(3) 0.065(4) 0.014(3) 0.012(3) 0.004(3)
O3 0.059(3) 0.048(3) 0.062(3) -0.006(2) 0.009(2) 0.011(2)
O4 0.074(4) 0.072(4) 0.095(4) -0.033(3) -0.013(3) 0.025(3)
O5 0.050(3) 0.065(3) 0.067(3) 0.011(3) 0.007(2) -0.015(2)
O6 0.074(4) 0.175(8) 0.072(4) 0.031(5) -0.003(3) -0.021(5)
N10 0.156(6) 0.130(6) 0.134(6) 0.007(5) 0.012(5) 0.005(5)
N11 0.178(6) 0.158(6) 0.161(6) 0.010(5) 0.019(6) -0.002(6)
C49 0.175(7) 0.153(7) 0.149(6) 0.007(6) 0.011(6) 0.005(6)
C50 0.175(7) 0.148(6) 0.136(6) 0.006(6) 0.015(6) 0.008(6)
C51 0.164(6) 0.142(6) 0.132(5) -0.004(5) 0.020(5) 0.006(5)
N12 0.132(5) 0.109(5) 0.108(5) 0.008(4) 0.048(4) 0.010(4)
C52 0.157(6) 0.141(6) 0.127(5) -0.005(5) 0.042(5) -0.010(5)
C53 0.175(7) 0.155(6) 0.145(6) 0.000(6) 0.037(6) -0.020(6)
C54 0.171(7) 0.160(7) 0.162(6) -0.014(6) 0.037(6) -0.015(6)
C55 0.151(6) 0.125(6) 0.146(6) -0.016(5) 0.043(5) -0.009(5)
C56 0.138(6) 0.106(6) 0.127(6) -0.010(5) 0.044(5) -0.001(5)
Cd1F 0.0668 0.0405 0.0576 0.002 0.0133 0.01
Cd1D 0.0668 0.0405 0.0576 0.002 0.0133 0.01
Cd2F 0.1318 0.0506 0.063 0.0024 0.0342 -0.0088
Cd2D 0.1318 0.0506 0.063 0.0024 0.0342 -0.0088
N1F 0.085 0.058 0.058 0.013 0.023 0.02
N2F 0.077 0.041 0.064 -0.006 0.013 0
N3F 0.067 0.056 0.048 -0.003 0.009 0.011
N4F 0.054 0.051 0.048 0.007 0.01 0.006
N5F 0.079 0.052 0.074 -0.017 0.032 -0.013
N6F 0.121 0.075 0.058 -0.005 0.028 -0.027
C1F 0.09 0.075 0.079 0.006 0.031 0.02
C2F 0.103 0.092 0.108 0.016 0.043 0.024
C3F 0.142 0.098 0.124 0.003 0.065 0.05
C4F 0.122 0.059 0.1 -0.007 0.048 0.019
C5F 0.116 0.046 0.067 0.015 0.037 0.022
C6F 0.119 0.038 0.056 0.001 0.016 0.014
C7F 0.15 0.046 0.074 -0.008 0.036 0.012
C8F 0.126 0.052 0.074 -0.004 0.018 -0.007
N7F 0.088 0.051 0.072 -0.004 0.012 0.009
C9F 0.084 0.063 0.053 0.003 0.01 -0.008
C10F 0.078 0.075 0.064 0.01 0 -0.008
C11F 0.079 0.084 0.056 0.015 0.009 0.004
C12F 0.073 0.055 0.047 0.011 0.012 0
C13F 0.059 0.05 0.052 0.003 0.024 0.009
C14F 0.061 0.052 0.052 0.005 0.015 0.009
C15F 0.094 0.059 0.066 0.013 -0.009 -0.023
C16F 0.099 0.063 0.075 0.013 -0.01 -0.021
N8F 0.065 0.054 0.052 0.01 0.009 -0.002
C17F 0.063 0.047 0.063 0.007 0.023 -0.004
C18F 0.082 0.031 0.067 0.007 0.022 0.002
C19F 0.063 0.039 0.065 0.018 0.015 -0.001
C20F 0.074 0.046 0.072 0.019 0.015 0.01
C21F 0.065 0.058 0.094 0.021 0.025 0.002
C22F 0.066(5) 0.057(5) 0.108(7) 0.025(5) 0.013(5) -0.007(4)
C23F 0.071(5) 0.039(4) 0.083(5) 0.017(4) 0.013(4) -0.009(4)
C24F 0.076 0.035 0.064 0.014 0.024 -0.004
C25D 0.058 0.049 0.059 -0.005 0.003 0.005
C26D 0.045 0.046 0.061 -0.003 0.007 0.004
C27D 0.047 0.053 0.06 -0.001 0.01 -0.001
C28D 0.082 0.073 0.06 -0.004 0.022 0.007
C29D 0.112 0.086 0.067 0.011 0.036 0.021
C30D 0.109(7) 0.066(6) 0.088(6) 0.025(5) 0.039(6) 0.019(5)
C31D 0.080(6) 0.043(4) 0.094(6) 0.008(4) 0.030(5) 0.011(4)
C32D 0.056 0.044 0.061 0 0.012 0.016
C33D 0.064 0.064 0.085 0.008 0.018 -0.01
C34D 0.061 0.074 0.065 0.002 0.004 -0.008
C35D 0.061 0.082 0.065 0.005 0.008 -0.011
C36D 0.076 0.097 0.079 0.007 0.021 -0.005
C37D 0.099 0.071 0.112 0.001 0.049 -0.005
C38D 0.112(9) 0.094(8) 0.123(9) -0.007(7) 0.059(8) -0.004(6)
C39D 0.085(7) 0.083(7) 0.118(8) 0.009(6) 0.032(6) -0.016(6)
C40D 0.066 0.075 0.077 0.006 0.01 -0.013
N9F 0.065 0.072 0.095 -0.027 0.027 -0.007
C41F 0.074 0.076 0.142 -0.03 -0.009 0.006
C42F 0.104 0.051 0.135 -0.022 -0.002 -0.004
C43F 0.071 0.062 0.092 -0.009 0.027 -0.003
C44F 0.09 0.058 0.084 -0.014 0.04 -0.015
C45F 0.108 0.092 0.111 -0.045 0.023 -0.014
C46F 0.152 0.132 0.087 -0.047 0.005 -0.029
C47F 0.148 0.151 0.07 -0.014 -0.02 -0.046
C48F 0.14 0.084 0.072 -0.004 0.017 -0.022
O1F 0.06 0.029 0.063 0.005 0.01 0.002
O2F 0.121 0.046 0.065 0.014 0.012 0.004
O3D 0.059 0.048 0.062 -0.006 0.009 0.011
O3F 0.059 0.048 0.062 -0.006 0.009 0.011
O4D 0.074 0.072 0.095 -0.033 -0.013 0.025
O5D 0.05 0.065 0.067 0.011 0.007 -0.015
O5F 0.05 0.065 0.067 0.011 0.007 -0.015
O6D 0.074 0.175 0.072 0.031 -0.003 -0.021
N10F 0.156 0.13 0.134 0.007 0.012 0.005
N11F 0.178 0.158 0.161 0.01 0.019 -0.002
C49F 0.175 0.153 0.149 0.007 0.011 0.005
C50F 0.175 0.148 0.136 0.006 0.015 0.008
C51F 0.164 0.142 0.132 -0.004 0.02 0.006
N12F 0.132 0.109 0.108 0.008 0.048 0.01
C52F 0.157 0.141 0.127 -0.005 0.042 -0.01
C53F 0.175 0.155 0.145 0 0.037 -0.02
C54F 0.171 0.16 0.162 -0.014 0.037 -0.015
C55F 0.151 0.125 0.146 -0.016 0.043 -0.009
C56F 0.138 0.106 0.127 -0.01 0.044 -0.001
O7 0.341(12) 0.354(12) 0.352(12) -0.003(9) 0.051(9) -0.007(9)
O8 0.378(12) 0.390(12) 0.390(12) -0.005(9) 0.070(9) 0.002(9)
C57 0.318(9) 0.326(9) 0.321(9) 0.002(7) 0.059(7) -0.011(7)
C58 0.287(8) 0.293(8) 0.295(8) 0.003(6) 0.052(6) -0.005(6)
C59 0.270(8) 0.269(9) 0.275(8) 0.002(7) 0.051(7) -0.012(7)
C60 0.258(9) 0.266(9) 0.268(9) 0.003(7) 0.050(7) -0.014(7)
C61 0.254(10) 0.261(10) 0.262(10) 0.001(8) 0.053(8) -0.013(8)
C62 0.3 0.291 0.292 0 0.049 -0.001
C63 0.3 0.289 0.296 -0.001 0.045 0.003
C64 0.293(9) 0.288(9) 0.294(8) 0.001(7) 0.048(7) 0.002(7)
O7F 0.341 0.354 0.352 -0.003 0.051 -0.007
O8F 0.378 0.39 0.39 -0.005 0.07 0.002
C57F 0.318 0.326 0.321 0.002 0.059 -0.011
C58F 0.287 0.293 0.295 0.003 0.052 -0.005
C59F 0.27 0.269 0.275 0.002 0.051 -0.012
C60F 0.258 0.266 0.268 0.003 0.05 -0.014
C61F 0.254 0.261 0.262 0.001 0.053 -0.013
C62F 0.300(11) 0.291(11) 0.292(11) 0.000(8) 0.049(8) -0.001(8)
C63F 0.300(9) 0.289(10) 0.296(9) -0.001(7) 0.045(7) 0.003(7)
C64F 0.293 0.288 0.294 0.001 0.048 0.002
loop_
_geom_bond_atom_site_label_1
_geom_bond_atom_site_label_2
_geom_bond_site_symmetry_1
_geom_bond_site_symmetry_2
Cd1 N1 1_555 1_555
Cd2 N5 1_555 1_555
N1 C1 1_555 1_555
N2 Cd1 1_555 1_555
N3 Cd1 1_555 1_555
N4 Cd1 1_555 1_555
N5 N9 1_555 1_555
N6 Cd2 1_555 1_555
C1 H1 1_555 1_555
C2 C1 1_555 1_555
H2 C2 1_555 1_555
C3 C2 1_555 1_555
H3 C3 1_555 1_555
C4 C3 1_555 1_555
H4 C4 1_555 1_555
C5 N1 1_555 1_555
C6 N2 1_555 1_555
C7 C6 1_555 1_555
H5 C7 1_555 1_555
C8 C7 1_555 1_555
H6 C8 1_555 1_555
N7 N2 1_555 1_555
H7 N7 1_555 1_555
C9 N3 1_555 1_555
H8 C9 1_555 1_555
C10 C9 1_555 1_555
H9 C10 1_555 1_555
C11 C10 1_555 1_555
H10 C11 1_555 1_555
C12 C11 1_555 1_555
H11 C12 1_555 1_555
C13 N3 1_555 1_555
C14 N4 1_555 1_555
C15 C14 1_555 1_555
H12 C15 1_555 1_555
C16 C15 1_555 1_555
H13 C16 1_555 1_555
N8 N4 1_555 1_555
H14 N8 1_555 1_555
C17 C18 1_555 1_555
C18 C19 1_555 1_555
C19 C20 1_555 1_555
C20 H15 1_555 1_555
C21 C20 1_555 1_555
H16 C21 1_555 1_555
C22 C21 1_555 1_555
H17 C22 1_555 1_555
C23 C22 1_555 1_555
H18 C23 1_555 1_555
C24 C18 1_555 1_555
C25 C26 1_555 1_555
C26 C27 1_555 1_555
C27 C28 1_555 1_555
C28 H19 1_555 1_555
C29 C28 1_555 1_555
H20 C29 1_555 1_555
C30 C29 1_555 1_555
H21 C30 1_555 1_555
C31 C30 1_555 1_555
H22 C31 1_555 1_555
C32 C26 1_555 1_555
C33 C34 1_555 1_555
C34 C35 1_555 1_555
C35 C36 1_555 1_555
C36 H23 1_555 1_555
C37 C36 1_555 1_555
H24 C37 1_555 1_555
C38 C37 1_555 1_555
H25 C38 1_555 1_555
C39 C38 1_555 1_555
H26 C39 1_555 1_555
C40 C34 1_555 1_555
N9 H27 1_555 1_555
C41 N9 1_555 1_555
H28 C41 1_555 1_555
C42 C41 1_555 1_555
H29 C42 1_555 1_555
C43 N5 1_555 1_555
C44 N6 1_555 1_555
C45 C44 1_555 1_555
H30 C45 1_555 1_555
C46 C45 1_555 1_555
H31 C46 1_555 1_555
C47 C46 1_555 1_555
H32 C47 1_555 1_555
C48 N6 1_555 1_555
H33 C48 1_555 1_555
O1 Cd1 1_555 1_555
O2 Cd2 1_555 1_555
O3 Cd1 1_555 1_555
O4 C25 1_555 1_555
O5 Cd2 1_555 1_555
O6 C33 1_555 1_555
N10 Cd2 1_555 1_555
N11 N10 1_555 1_555
H34 N11 1_555 1_555
C49 N11 1_555 1_555
H35 C49 1_555 1_555
C50 C49 1_555 1_555
H36 C50 1_555 1_555
C51 N10 1_555 1_555
N12 Cd2 1_555 1_555
C52 C51 1_555 1_555
C53 C52 1_555 1_555
H37 C53 1_555 1_555
C54 C53 1_555 1_555
H38 C54 1_555 1_555
C55 C54 1_555 1_555
H39 C55 1_555 1_555
C56 N12 1_555 1_555
H40 C56 1_555 1_555
O7 C57 1_555 1_555
O8 C57 1_555 1_555
C57 C58 1_555 1_555
C58 C59 1_555 1_555
C59 C60 1_555 1_555
C60 H41 1_555 1_555
C61 C60 1_555 1_555
H42 C61 1_555 1_555
C62 C61 1_555 1_555
H43 C62 1_555 1_555
C63 C62 1_555 1_555
H44 C63 1_555 1_555
C64 C58 1_555 1_555
Cd1F N1F 1_555 1_555
Cd1D O3D 1_555 1_555
Cd2F N5F 1_555 1_555
Cd2D O5D 1_555 1_555
N1F C1F 1_555 1_555
N2F Cd1F 1_555 1_555
N3F Cd1F 1_555 1_555
N4F Cd1F 1_555 1_555
N5F N9F 1_555 1_555
N6F Cd2F 1_555 1_555
C1F H1F 1_555 1_555
C2F C1F 1_555 1_555
H2F C2F 1_555 1_555
C3F C2F 1_555 1_555
H3F C3F 1_555 1_555
C4F C3F 1_555 1_555
H4F C4F 1_555 1_555
C5F N1F 1_555 1_555
C6F N2F 1_555 1_555
C7F C6F 1_555 1_555
H5F C7F 1_555 1_555
C8F C7F 1_555 1_555
H6F C8F 1_555 1_555
N7F N2F 1_555 1_555
H7F N7F 1_555 1_555
C9F N3F 1_555 1_555
H8F C9F 1_555 1_555
C10F C9F 1_555 1_555
H9F C10F 1_555 1_555
C11F C10F 1_555 1_555
H10F C11F 1_555 1_555
C12F C11F 1_555 1_555
H11F C12F 1_555 1_555
C13F N3F 1_555 1_555
C14F N4F 1_555 1_555
C15F C14F 1_555 1_555
H12F C15F 1_555 1_555
C16F C15F 1_555 1_555
H13F C16F 1_555 1_555
N8F N4F 1_555 1_555
H14F N8F 1_555 1_555
C17F C18F 1_555 1_555
C18F C19F 1_555 1_555
C19F C24 1_555 1_555
C20F C19F 1_555 1_555
H15F C20F 1_555 1_555
C21F C20F 1_555 1_555
H16F C21F 1_555 1_555
C22F C21F 1_555 1_555
H17F C22F 1_555 1_555
C23F C24 1_555 1_555
H18F C23F 1_555 1_555
C24F C19 1_555 1_555
C25D C26D 1_555 1_555
C26D C27D 1_555 1_555
C27D C32 1_555 1_555
C28D C27D 1_555 1_555
H19D C28D 1_555 1_555
C29D C28D 1_555 1_555
H20D C29D 1_555 1_555
C30D C29D 1_555 1_555
H21D C30D 1_555 1_555
C31D C32 1_555 1_555
H22D C31D 1_555 1_555
C32D C27 1_555 1_555
C33D C34D 1_555 1_555
C34D C35D 1_555 1_555
C35D C40 1_555 1_555
C36D C35D 1_555 1_555
H23D C36D 1_555 1_555
C37D C36D 1_555 1_555
H24D C37D 1_555 1_555
C38D C37D 1_555 1_555
H25D C38D 1_555 1_555
C39D C40 1_555 1_555
H26D C39D 1_555 1_555
C40D C35 1_555 1_555
N9F H27F 1_555 1_555
C41F N9F 1_555 1_555
H28F C41F 1_555 1_555
C42F C41F 1_555 1_555
H29F C42F 1_555 1_555
C43F N5F 1_555 1_555
C44F N6F 1_555 1_555
C45F C44F 1_555 1_555
H30F C45F 1_555 1_555
C46F C45F 1_555 1_555
H31F C46F 1_555 1_555
C47F C46F 1_555 1_555
H32F C47F 1_555 1_555
C48F N6F 1_555 1_555
H33F C48F 1_555 1_555
O1F Cd1F 1_555 1_555
O2F Cd2F 1_555 1_555
O3D C25D 1_555 1_555
O3F Cd1F 1_555 1_555
O4D C25D 1_555 1_555
O5D C33D 1_555 1_555
O5F Cd2F 1_555 1_555
O6D C33D 1_555 1_555
N10F Cd2F 1_555 1_555
N11F N10F 1_555 1_555
H34F N11F 1_555 1_555
C49F N11F 1_555 1_555
H35F C49F 1_555 1_555
C50F C49F 1_555 1_555
H36F C50F 1_555 1_555
C51F N10F 1_555 1_555
N12F Cd2F 1_555 1_555
C52F C51F 1_555 1_555
C53F C52F 1_555 1_555
H37F C53F 1_555 1_555
C54F C53F 1_555 1_555
H38F C54F 1_555 1_555
C55F C54F 1_555 1_555
H39F C55F 1_555 1_555
C56F N12F 1_555 1_555
H40F C56F 1_555 1_555
O7F C57F 1_555 1_555
O8F C57F 1_555 1_555
C57F C58F 1_555 1_555
C58F C59F 1_555 1_555
C59F C64 1_555 1_555
C60F C59F 1_555 1_555
H41F C60F 1_555 1_555
C61F C60F 1_555 1_555
H42F C61F 1_555 1_555
C62F C61F 1_555 1_555
H43F C62F 1_555 1_555
C63F C64 1_555 1_555
H44F C63F 1_555 1_555
C64F C59 1_555 1_555
C4 C5 1_555 1_555
C5 C6 1_555 1_555
C8 N7 1_555 1_555
C12 C13 1_555 1_555
C13 C14 1_555 1_555
C16 N8 1_555 1_555
C17 O1 1_555 1_555
C17 O2 1_555 1_555
C23 C24F 1_555 1_555
C25 O3 1_555 1_555
C31 C32D 1_555 1_555
C33 O5 1_555 1_555
C39 C40D 1_555 1_555
C42 C43 1_555 1_555
C43 C44 1_555 1_555
C47 C48 1_555 1_555
C50 C51 1_555 1_555
N12 C52 1_555 1_555
C55 C56 1_555 1_555
C63 C64F 1_555 1_555
C4F C5F 1_555 1_555
C5F C6F 1_555 1_555
C8F N7F 1_555 1_555
C12F C13F 1_555 1_555
C13F C14F 1_555 1_555
C16F N8F 1_555 1_555
C17F O1F 1_555 1_555
C17F O2F 1_555 1_555
C18F C24F 1_555 1_555
C22F C23F 1_555 1_555
C26D C32D 1_555 1_555
C30D C31D 1_555 1_555
C34D C40D 1_555 1_555
C38D C39D 1_555 1_555
C42F C43F 1_555 1_555
C43F C44F 1_555 1_555
C47F C48F 1_555 1_555
C50F C51F 1_555 1_555
N12F C52F 1_555 1_555
C55F C56F 1_555 1_555
C58F C64F 1_555 1_555
C62F C63F 1_555 1_555

#END
