
#######################################################################
#
#                 Cambridge Crystallographic Data Centre
#                                CCDC 
#
#######################################################################
#
# If this CIF has been generated from an entry in the Cambridge 
# Structural Database, then it will include bibliographic, chemical, 
# crystal, experimental, refinement or atomic coordinate data resulting 
# from the CCDC's data processing and validation procedures.
#
#######################################################################

data_KIPJUQ
_chemical_formula_moiety         '(C57 H52 Er4 F18 O41)n'
_symmetry_cell_setting           triclinic
_symmetry_space_group_name_H-M   'P -1'
_symmetry_Int_Tables_number      2
_space_group_name_Hall           '-P 1'
loop_
_symmetry_equiv_pos_site_id
_symmetry_equiv_pos_as_xyz
1 x,y,z
2 -x,-y,-z
_cell_length_a                   8.0722(2)
_cell_length_b                   21.2247(7)
_cell_length_c                   22.7899(8)
_cell_angle_alpha                82.622(2)
_cell_angle_beta                 82.404(2)
_cell_angle_gamma                80.079(2)
_cell_volume                     3790.07
loop_
_atom_site_label
_atom_site_type_symbol
_atom_site_fract_x
_atom_site_fract_y
_atom_site_fract_z
Er1 Er 0.197641(17) 0.575463(7) 0.715769(6)
Er2 Er 0.613484(17) 0.528900(7) 0.566902(6)
Er3 Er 0.535606(18) 0.750947(8) 0.904282(7)
Er4 Er 0.760403(18) 0.906389(8) 0.963611(7)
O1 O 0.2041(3) 0.46564(13) 0.70424(12)
O2 O 0.4308(3) 0.49892(12) 0.65658(10)
O3 O 0.4358(3) 0.46230(12) 0.54172(10)
O4 O 0.3072(3) 0.39153(12) 0.51070(10)
O5 O 0.3502(3) 0.19276(13) 1.02302(10)
O6 O 0.5228(3) 0.26200(15) 0.98832(11)
O7 O 0.0557(3) 0.16899(14) 0.98635(12)
O8 O -0.0470(3) 0.27321(14) 0.97838(12)
O9 O 0.3880(3) 0.64430(12) 0.68610(10)
O10 O 0.6214(3) 0.60291(12) 0.63073(11)
O11 O 0.5010(3) 0.73011(13) 0.81297(11)
O12 O 0.6273(3) 0.63928(13) 0.77604(11)
O13 O 1.1424(3) 0.60690(12) 0.62102(10)
O14 O 1.3712(3) 0.60337(12) 0.55293(10)
O15 O 1.2512(3) 0.57880(12) 0.39781(10)
O16 O 1.1745(3) 0.53923(12) 0.48985(10)
O17 O 0.4410(3) 0.85763(13) 0.87908(11)
O18 O 0.4904(3) 0.93187(13) 0.93352(11)
O19 O 0.3890(3) 1.07858(13) 0.93963(11)
O20 O 0.1651(3) 1.03021(13) 0.96514(11)
O21 O -0.2365(3) 0.78449(12) 0.84353(11)
O22 O -0.1602(3) 0.86907(13) 0.87606(11)
O23 O 0.0677(3) 0.66702(13) 0.75321(11)
O24 O 0.0802(3) 0.69832(13) 0.84209(11)
O25 O 0.4150(3) 0.54948(14) 0.77876(12)
H1 H 0.4843 0.5833 0.7813
H2 H 0.4955 0.5217 0.7718
O26 O 0.0971(3) 0.52725(15) 0.81214(12)
H3 H -0.0155 0.5416 0.8140
H4 H 0.1171 0.5572 0.8344
O27 O -0.0905(3) 0.56902(13) 0.71586(11)
H5 H -0.1713 0.5913 0.7310
H6 H -0.1199 0.5319 0.7101
O28 O 0.8983(3) 0.53734(13) 0.58407(10)
H7 H 0.8940 0.5713 0.6074
H8 H 0.9507 0.5324 0.5528
O29 O 0.2426(3) 0.75649(15) 0.91489(12)
H9 H 0.1755 0.7448 0.9474
H10 H 0.2129 0.7372 0.8888
O30 O 0.7885(3) 0.68232(15) 0.92157(13)
H11 H 0.8890 0.6976 0.9113
H12 H 0.8085 0.6523 0.9487
O31 O 0.4886(4) 0.64287(15) 0.93013(14)
H13 H 0.5660 0.6084 0.9420
H14 H 0.4108 0.6216 0.9305
O32 O 1.0309(3) 0.93404(14) 0.93173(11)
H15 H 1.0643 0.9714 0.9351
H16 H 1.0907 0.9093 0.9006
O33 O 0.7189(3) 1.01308(14) 0.91872(12)
H17 H 0.6151 1.0150 0.9144
H18 H 0.7248 1.0533 0.9197
F1 F 0.8433(3) 0.24906(15) 0.71340(10)
F2 F 0.8266(3) 0.19868(13) 0.80164(10)
F3 F 0.7323(3) 0.30013(12) 0.78794(10)
F4 F 0.7143(3) 0.14247(12) 0.70456(10)
F5 F 0.4447(3) 0.14690(11) 0.72759(10)
F6 F 0.6112(3) 0.12007(12) 0.79566(10)
F7 F 0.5666(3) 0.80407(11) 0.48986(10)
F8 F 0.5374(3) 0.89067(12) 0.53174(10)
F9 F 0.6953(3) 0.88135(12) 0.44852(10)
F10 F 0.9906(3) 0.88823(12) 0.48298(10)
F11 F 0.8190(3) 0.92843(11) 0.55392(10)
F12 F 1.0285(3) 0.85472(11) 0.57399(10)
F13 F 0.3763(3) 1.03543(11) 0.64858(10)
F14 F 0.4634(2) 0.93498(11) 0.66857(10)
F15 F 0.3028(3) 0.96761(12) 0.59861(9)
F16 F 0.0431(3) 1.07288(11) 0.65079(10)
F17 F -0.1136(3) 1.02047(11) 0.71647(10)
F18 F -0.0302(3) 0.98618(12) 0.63096(11)
C1 C 0.5660(4) 0.23151(18) 0.75622(15)
C2 C 0.5088(4) 0.27654(17) 0.70212(15)
C3 C 0.4496(4) 0.34139(17) 0.70915(14)
H19 H 0.4385 0.3551 0.7468
C4 C 0.4073(4) 0.38567(17) 0.66114(14)
C5 C 0.4151(4) 0.36441(17) 0.60470(14)
C6 C 0.4678(4) 0.29986(18) 0.59860(15)
H20 H 0.4701 0.2855 0.5616
C7 C 0.5172(5) 0.25617(18) 0.64552(16)
H21 H 0.5559 0.2133 0.6397
C8 C 0.3455(4) 0.45443(17) 0.67317(14)
C9 C 0.3798(4) 0.40847(18) 0.54995(15)
C10 C 0.4378(4) 0.23933(17) 0.81179(15)
C11 C 0.4848(4) 0.23308(17) 0.86961(15)
H22 H 0.5983 0.2298 0.8750
C12 C 0.3635(4) 0.23167(18) 0.91890(15)
C13 C 0.1937(4) 0.23568(17) 0.91196(15)
C14 C 0.1447(4) 0.24634(19) 0.85454(16)
H23 H 0.0304 0.2525 0.8493
C15 C 0.2655(4) 0.24775(18) 0.80513(15)
H24 H 0.2313 0.2544 0.7671
C16 C 0.4173(4) 0.22762(18) 0.97917(15)
C17 C 0.0586(4) 0.2266(2) 0.96336(16)
C18 C 0.7421(5) 0.2455(2) 0.76497(17)
C19 C 0.5850(5) 0.15923(19) 0.74581(17)
C20 C 0.8022(4) 0.82088(17) 0.53631(15)
C21 C 0.7273(4) 0.79477(17) 0.59886(15)
C22 C 0.6639(4) 0.73733(18) 0.60349(15)
H25 H 0.6616 0.7185 0.5690
C23 C 0.6037(4) 0.70698(17) 0.65819(14)
C24 C 0.6089(4) 0.73563(17) 0.71042(14)
C25 C 0.6648(4) 0.79352(18) 0.70529(15)
H26 H 0.6622 0.8133 0.7396
C26 C 0.7258(4) 0.82432(18) 0.65073(15)
H27 H 0.7645 0.8634 0.6488
C27 C 0.5322(4) 0.64601(17) 0.65878(14)
C28 C 0.5753(4) 0.69898(18) 0.77100(15)
C29 C 0.9169(4) 0.76442(17) 0.50818(15)
C30 C 1.0178(4) 0.72129(17) 0.54571(15)
H28 H 1.0214 0.7302 0.5844
C31 C 1.1128(4) 0.66539(17) 0.52601(15)
C32 C 1.1068(4) 0.65149(17) 0.46817(15)
C33 C 1.0167(4) 0.69635(18) 0.42941(15)
H29 H 1.0192 0.6885 0.3901
C34 C 0.9230(4) 0.75280(18) 0.44844(15)
H30 H 0.8647 0.7827 0.4219
C35 C 1.2182(4) 0.62124(16) 0.56961(15)
C36 C 1.1812(4) 0.58682(17) 0.45026(15)
C37 C 0.6490(4) 0.85012(19) 0.50080(16)
C38 C 0.9097(5) 0.87396(19) 0.53711(16)
C39 C 0.1740(4) 0.97220(17) 0.69920(15)
C40 C 0.2153(4) 0.99573(18) 0.75665(15)
C41 C 0.3104(4) 0.95129(17) 0.79444(15)
H31 H 0.3515 0.9104 0.7831
C42 C 0.3456(4) 0.96615(18) 0.84859(15)
C43 C 0.2839(4) 1.02854(18) 0.86485(15)
C44 C 0.1934(5) 1.07386(19) 0.82636(16)
H32 H 0.1549 1.1152 0.8368
C45 C 0.1602(5) 1.05761(19) 0.77232(17)
H33 H 0.1009 1.0883 0.7466
C46 C 0.4336(4) 0.91464(18) 0.88964(15)
C47 C 0.2841(4) 1.04590(18) 0.92683(15)
C48 C 0.1355(4) 0.90297(18) 0.71528(15)
C49 C 0.0210(4) 0.89257(18) 0.76539(15)
H34 H -0.0347 0.9277 0.7846
C50 C -0.0131(4) 0.83159(18) 0.78768(15)
C51 C 0.0712(4) 0.77801(17) 0.75888(15)
C52 C 0.1768(4) 0.78863(18) 0.70647(15)
H35 H 0.2264 0.7540 0.6856
C53 C 0.2102(4) 0.85021(17) 0.68440(15)
H36 H 0.2816 0.8562 0.6493
C54 C -0.1443(4) 0.82641(17) 0.83989(15)
C55 C 0.0703(4) 0.70918(18) 0.78657(16)
C56 C 0.3299(5) 0.97761(18) 0.65293(16)
C57 C 0.0184(5) 1.01360(19) 0.67392(17)
Er1_2 Er 1.197641(17) 0.575463(7) 0.715769(6)
Er2_2 Er 1.613484(17) 0.528900(7) 0.566902(6)
Er2A Er 0.386516(17) 0.471100(7) 0.433098(6)
Er2A_2 Er 1.386516(17) 0.471100(7) 0.433098(6)
Er3_2 Er -0.464394(18) 0.750947(8) 0.904282(7)
Er3A Er 0.464394(18) 0.249053(8) 1.095718(7)
Er4_2 Er -0.239597(18) 0.906389(8) 0.963611(7)
Er4A Er 0.239597(18) 0.093611(8) 1.036389(7)
Er4A_2 Er 0.239597(18) 1.093611(8) 1.036389(7)
O3A O 0.5642(3) 0.53770(12) 0.45828(10)
O4A O 0.6928(3) 0.60847(12) 0.48930(10)
O5A O 0.6498(3) 0.80724(13) 0.97698(10)
O6A O 0.4772(3) 0.73800(15) 1.01168(11)
O7A O 0.9443(3) 0.83101(14) 1.01365(12)
O13_2 O 0.1424(3) 0.60690(12) 0.62102(10)
O14_2 O 0.3712(3) 0.60337(12) 0.55293(10)
O15A O 0.7488(3) 0.42120(12) 0.60219(10)
O16A O 0.8255(3) 0.46077(12) 0.51015(10)
O19A O 0.6110(3) 0.92142(13) 1.06037(11)
O20A O 0.8349(3) 0.96979(13) 1.03486(11)
O21_2 O 0.7635(3) 0.78449(12) 0.84353(11)
O22_2 O 0.8398(3) 0.86907(13) 0.87606(11)
O34 O -0.2403(4) 0.12403(16) 0.96070(14)
O35 O 0.7638(4) 0.5507(2) 0.86189(16)
O36 O 0.2116(4) 0.59180(17) 0.90946(18)
O37 O 1.1327(4) 0.56209(18) 0.29091(14)
O38 O 0.6406(5) 0.4438(2) 0.80843(18)
O39 O -0.0687(14) 0.3942(5) 0.9416(6)
O41 O 0.5792(10) 0.3765(3) 0.9193(3)
O42 O 0.2527(12) 0.4548(5) 0.9067(4)
loop_
_geom_bond_atom_site_label_1
_geom_bond_atom_site_label_2
_geom_bond_site_symmetry_1
_geom_bond_site_symmetry_2
Er1 O1 1_555 1_555
Er2 O2 1_555 1_555
Er3 O11 1_555 1_555
Er4 O18 1_555 1_555
O1 C8 1_555 1_555
O2 Er1 1_555 1_555
O3 Er2 1_555 1_555
O4 C9 1_555 1_555
O5 C16 1_555 1_555
O6 C16 1_555 1_555
O7 C17 1_555 1_555
O8 C17 1_555 1_555
O9 Er1 1_555 1_555
O10 Er2 1_555 1_555
O11 C28 1_555 1_555
O12 C28 1_555 1_555
O13 C35 1_555 1_555
O14 C35 1_555 1_555
O15 C36 1_555 1_555
O16 C36 1_555 1_555
O17 Er3 1_555 1_555
O18 C46 1_555 1_555
O19 C47 1_555 1_555
O20 C47 1_555 1_555
O21 C54 1_555 1_555
O22 C54 1_555 1_555
O23 Er1 1_555 1_555
O24 C55 1_555 1_555
O25 Er1 1_555 1_555
H1 O25 1_555 1_555
H2 O25 1_555 1_555
O26 Er1 1_555 1_555
H3 O26 1_555 1_555
H4 O26 1_555 1_555
O27 Er1 1_555 1_555
H5 O27 1_555 1_555
H6 O27 1_555 1_555
O28 Er2 1_555 1_555
H7 O28 1_555 1_555
H8 O28 1_555 1_555
O29 Er3 1_555 1_555
H9 O29 1_555 1_555
H10 O29 1_555 1_555
O30 Er3 1_555 1_555
H11 O30 1_555 1_555
H12 O30 1_555 1_555
O31 Er3 1_555 1_555
H13 O31 1_555 1_555
H14 O31 1_555 1_555
O32 Er4 1_555 1_555
H15 O32 1_555 1_555
H16 O32 1_555 1_555
O33 Er4 1_555 1_555
H17 O33 1_555 1_555
H18 O33 1_555 1_555
F1 C18 1_555 1_555
F2 C18 1_555 1_555
F3 C18 1_555 1_555
F4 C19 1_555 1_555
F5 C19 1_555 1_555
F6 C19 1_555 1_555
F7 C37 1_555 1_555
F8 C37 1_555 1_555
F9 C37 1_555 1_555
F10 C38 1_555 1_555
F11 C38 1_555 1_555
F12 C38 1_555 1_555
F13 C56 1_555 1_555
F14 C56 1_555 1_555
F15 C56 1_555 1_555
F16 C57 1_555 1_555
F17 C57 1_555 1_555
F18 C57 1_555 1_555
C1 C2 1_555 1_555
C2 C3 1_555 1_555
C3 H19 1_555 1_555
C4 C3 1_555 1_555
C5 C4 1_555 1_555
C6 C5 1_555 1_555
H20 C6 1_555 1_555
C7 C2 1_555 1_555
H21 C7 1_555 1_555
C8 O2 1_555 1_555
C9 O3 1_555 1_555
C10 C1 1_555 1_555
C11 C10 1_555 1_555
H22 C11 1_555 1_555
C12 C11 1_555 1_555
C13 C12 1_555 1_555
C14 C13 1_555 1_555
H23 C14 1_555 1_555
C15 C10 1_555 1_555
H24 C15 1_555 1_555
C16 C12 1_555 1_555
C17 C13 1_555 1_555
C18 C1 1_555 1_555
C19 C1 1_555 1_555
C20 C21 1_555 1_555
C21 C22 1_555 1_555
C22 H25 1_555 1_555
C23 C22 1_555 1_555
C24 C23 1_555 1_555
C25 C24 1_555 1_555
H26 C25 1_555 1_555
C26 C21 1_555 1_555
H27 C26 1_555 1_555
C27 O9 1_555 1_555
C28 C24 1_555 1_555
C29 C20 1_555 1_555
C30 C29 1_555 1_555
H28 C30 1_555 1_555
C31 C30 1_555 1_555
C32 C31 1_555 1_555
C33 C32 1_555 1_555
H29 C33 1_555 1_555
C34 C29 1_555 1_555
H30 C34 1_555 1_555
C35 C31 1_555 1_555
C36 C32 1_555 1_555
C37 C20 1_555 1_555
C38 C20 1_555 1_555
C39 C40 1_555 1_555
C40 C41 1_555 1_555
C41 H31 1_555 1_555
C42 C41 1_555 1_555
C43 C42 1_555 1_555
C44 C43 1_555 1_555
H32 C44 1_555 1_555
C45 C40 1_555 1_555
H33 C45 1_555 1_555
C46 O17 1_555 1_555
C47 C43 1_555 1_555
C48 C39 1_555 1_555
C49 C48 1_555 1_555
H34 C49 1_555 1_555
C50 C49 1_555 1_555
C51 C50 1_555 1_555
C52 C51 1_555 1_555
H35 C52 1_555 1_555
C53 C48 1_555 1_555
H36 C53 1_555 1_555
C54 C50 1_555 1_555
C55 O23 1_555 1_555
C56 C39 1_555 1_555
C57 C39 1_555 1_555
Er1_2 O13 1_555 1_555
Er2_2 O14 1_555 1_555
Er2A O3 1_555 1_555
Er2A_2 O15 1_555 1_555
Er3_2 O21 1_555 1_555
Er3A O5 1_555 1_555
Er4_2 O22 1_555 1_555
Er4A O5 1_555 1_555
Er4A_2 O19 1_555 1_555
O3A Er2 1_555 1_555
O4A Er2 1_555 1_555
O5A Er3 1_555 1_555
O6A Er3 1_555 1_555
O7A Er4 1_555 1_555
O13_2 Er1 1_555 1_555
O14_2 Er2 1_555 1_555
O15A Er2 1_555 1_555
O16A Er2 1_555 1_555
O19A Er4 1_555 1_555
O20A Er4 1_555 1_555
O21_2 Er3 1_555 1_555
O22_2 Er4 1_555 1_555
Er4 O5A 1_555 1_555
O4 Er2A 1_555 1_555
O6 Er3A 1_555 1_555
O7 Er4A 1_555 1_555
O10 C27 1_555 1_555
O16 Er2A_2 1_555 1_555
O20 Er4A_2 1_555 1_555
C4 C8 1_555 1_555
C5 C9 1_555 1_555
C6 C7 1_555 1_555
C14 C15 1_555 1_555
C23 C27 1_555 1_555
C25 C26 1_555 1_555
C33 C34 1_555 1_555
C42 C46 1_555 1_555
C44 C45 1_555 1_555
C51 C55 1_555 1_555
C52 C53 1_555 1_555
Er2A O3A 1_555 1_555

#END
