
#######################################################################
#
#                 Cambridge Crystallographic Data Centre
#                                CCDC 
#
#######################################################################
#
# If this CIF has been generated from an entry in the Cambridge 
# Structural Database, then it will include bibliographic, chemical, 
# crystal, experimental, refinement or atomic coordinate data resulting 
# from the CCDC's data processing and validation procedures.
#
#######################################################################

data_KIPKEB
_chemical_formula_moiety         '(C57 H52 F18 O41 Y4)n'
_symmetry_cell_setting           triclinic
_symmetry_space_group_name_H-M   'P -1'
_symmetry_Int_Tables_number      2
_space_group_name_Hall           '-P 1'
loop_
_symmetry_equiv_pos_site_id
_symmetry_equiv_pos_as_xyz
1 x,y,z
2 -x,-y,-z
_cell_length_a                   8.0954(3)
_cell_length_b                   21.2590(12)
_cell_length_c                   22.8149(12)
_cell_angle_alpha                82.520(2)
_cell_angle_beta                 82.394(3)
_cell_angle_gamma                79.972(3)
_cell_volume                     3809.29
loop_
_atom_site_label
_atom_site_type_symbol
_atom_site_fract_x
_atom_site_fract_y
_atom_site_fract_z
Y1 Y 0.19793(3) 0.575399(14) 0.715999(13)
Y2 Y 0.61357(3) 0.528824(13) 0.566907(12)
Y3 Y 0.53567(3) 0.750907(14) 0.904392(13)
Y4 Y 0.76043(3) 0.906597(14) 0.963649(13)
O1 O 0.2052(3) 0.46508(11) 0.70473(11)
O2 O 0.4307(2) 0.49879(10) 0.65672(9)
O3 O 0.4359(2) 0.46191(10) 0.54196(9)
O4 O 0.3073(3) 0.39131(10) 0.51134(9)
O5 O 0.3507(3) 0.19304(10) 1.02259(9)
O6 O 0.5219(3) 0.26209(12) 0.98820(10)
O7 O 0.0563(3) 0.16901(11) 0.98636(10)
O8 O -0.0465(3) 0.27315(12) 0.97766(11)
O9 O 0.3883(2) 0.64439(10) 0.68620(9)
O10 O 0.6209(2) 0.60292(10) 0.63070(9)
O11 O 0.5022(3) 0.72919(11) 0.81296(10)
O12 O 0.6284(3) 0.63886(10) 0.77577(10)
O13 O 1.1428(2) 0.60695(10) 0.62081(9)
O14 O 1.3699(2) 0.60373(10) 0.55298(9)
O15 O 1.2505(2) 0.57942(10) 0.39787(9)
O16 O 1.1739(2) 0.53946(10) 0.48996(9)
O17 O 0.4402(3) 0.85792(10) 0.87935(10)
O18 O 0.4906(3) 0.93228(11) 0.93331(10)
O19 O 0.3875(3) 1.07877(10) 0.93875(9)
O20 O 0.1656(3) 1.03035(11) 0.96461(10)
O21 O -0.2361(2) 0.78502(10) 0.84372(10)
O22 O -0.1597(3) 0.86881(11) 0.87571(10)
O23 O 0.0686(3) 0.66745(10) 0.75355(10)
O24 O 0.0793(3) 0.69921(11) 0.84245(10)
O25 O 0.4169(3) 0.54873(11) 0.77897(10)
H1 H 0.4862 0.5825 0.7815
H2 H 0.4974 0.5209 0.7720
O26 O 0.0986(3) 0.52670(12) 0.81278(11)
H3 H -0.0140 0.5411 0.8147
H4 H 0.1185 0.5566 0.8351
O27 O -0.0911(3) 0.56887(11) 0.71534(10)
H5 H -0.1719 0.5911 0.7305
H6 H -0.1205 0.5318 0.7096
O28 O 0.8988(2) 0.53755(10) 0.58374(10)
H7 H 0.8945 0.5715 0.6071
H8 H 0.9512 0.5326 0.5525
O29 O 0.2430(3) 0.75632(12) 0.91601(10)
H9 H 0.1760 0.7446 0.9485
H10 H 0.2134 0.7371 0.8899
O30 O 0.7893(3) 0.68203(12) 0.92186(11)
H11 H 0.8899 0.6973 0.9115
H12 H 0.8094 0.6520 0.9489
O31 O 0.4900(3) 0.64197(12) 0.93094(12)
H13 H 0.5674 0.6075 0.9428
H14 H 0.4122 0.6207 0.9313
O32 O 1.0297(3) 0.93353(11) 0.93201(10)
H15 H 1.0610 0.9653 0.9394
H16 H 1.0452 0.9395 0.8912
O33 O 0.7173(3) 1.01348(11) 0.91919(11)
H17 H 0.6092 1.0388 0.9172
H18 H 0.7822 1.0412 0.9286
F1 F 0.8429(2) 0.24834(12) 0.71361(9)
F2 F 0.8254(2) 0.19831(11) 0.80178(9)
F3 F 0.7312(2) 0.29955(10) 0.78829(9)
F4 F 0.7138(3) 0.14233(10) 0.70464(9)
F5 F 0.4454(3) 0.14664(9) 0.72725(9)
F6 F 0.6112(3) 0.12002(10) 0.79548(9)
F7 F 0.5675(2) 0.80366(9) 0.48994(9)
F8 F 0.5380(2) 0.89036(10) 0.53198(9)
F9 F 0.6950(2) 0.88137(9) 0.44896(9)
F10 F 0.9895(3) 0.88751(10) 0.48344(9)
F11 F 0.8172(3) 0.92797(9) 0.55409(9)
F12 F 1.0269(2) 0.85422(9) 0.57427(9)
F13 F 0.3753(2) 1.03535(9) 0.64840(9)
F14 F 0.4630(2) 0.93449(9) 0.66882(9)
F15 F 0.3035(3) 0.96723(10) 0.59856(8)
F16 F 0.0444(2) 1.07237(9) 0.65043(9)
F17 F -0.1129(2) 1.02027(9) 0.71598(9)
F18 F -0.0305(3) 0.98568(10) 0.63110(10)
C1 C 0.5662(4) 0.23111(15) 0.75602(14)
C2 C 0.5088(4) 0.27616(14) 0.70204(13)
C3 C 0.4509(4) 0.34069(14) 0.70895(13)
H19 H 0.4408 0.3541 0.7466
C4 C 0.4076(3) 0.38562(14) 0.66123(13)
C5 C 0.4156(4) 0.36442(14) 0.60504(13)
C6 C 0.4666(4) 0.29990(15) 0.59883(14)
H20 H 0.4666 0.2855 0.5621
C7 C 0.5168(4) 0.25682(16) 0.64544(14)
H21 H 0.5569 0.2142 0.6394
C8 C 0.3460(4) 0.45392(15) 0.67362(13)
C9 C 0.3800(3) 0.40870(14) 0.55025(14)
C10 C 0.4370(4) 0.23903(15) 0.81197(14)
C11 C 0.4844(4) 0.23322(15) 0.86921(13)
H22 H 0.5974 0.2306 0.8745
C12 C 0.3627(4) 0.23141(15) 0.91858(14)
C13 C 0.1937(4) 0.23560(15) 0.91148(14)
C14 C 0.1455(4) 0.24600(15) 0.85402(14)
H23 H 0.0316 0.2521 0.8487
C15 C 0.2660(4) 0.24725(15) 0.80500(14)
H24 H 0.2323 0.2537 0.7670
C16 C 0.4170(4) 0.22774(15) 0.97921(14)
C17 C 0.0586(4) 0.22651(16) 0.96297(14)
C18 C 0.7424(4) 0.24443(17) 0.76522(15)
C19 C 0.5843(5) 0.15866(16) 0.74601(15)
C20 C 0.8014(4) 0.82037(14) 0.53649(13)
C21 C 0.7276(4) 0.79459(14) 0.59898(14)
C22 C 0.6637(3) 0.73663(15) 0.60364(14)
H25 H 0.6612 0.7177 0.5693
C23 C 0.6047(3) 0.70722(14) 0.65794(14)
C24 C 0.6095(3) 0.73504(14) 0.71053(13)
C25 C 0.6655(4) 0.79365(15) 0.70558(14)
H26 H 0.6634 0.8136 0.7397
C26 C 0.7251(4) 0.82352(15) 0.65067(14)
H27 H 0.7631 0.8627 0.6485
C27 C 0.5332(4) 0.64608(14) 0.65891(13)
C28 C 0.5754(3) 0.69816(16) 0.77086(14)
C29 C 0.9166(4) 0.76424(14) 0.50826(14)
C30 C 1.0173(3) 0.72076(14) 0.54535(14)
H28 H 1.0202 0.7294 0.5841
C31 C 1.1127(3) 0.66536(14) 0.52598(13)
C32 C 1.1067(3) 0.65180(14) 0.46790(13)
C33 C 1.0160(4) 0.69671(15) 0.42964(14)
H29 H 1.0181 0.6891 0.3903
C34 C 0.9217(4) 0.75295(15) 0.44897(14)
H30 H 0.8625 0.7828 0.4226
C35 C 1.2183(3) 0.62159(14) 0.56921(13)
C36 C 1.1805(3) 0.58729(15) 0.45009(13)
C37 C 0.6504(4) 0.84951(15) 0.50122(15)
C38 C 0.9084(4) 0.87336(16) 0.53706(14)
C39 C 0.1741(4) 0.97165(14) 0.69945(13)
C40 C 0.2146(4) 0.99526(14) 0.75628(13)
C41 C 0.3094(4) 0.95123(15) 0.79424(13)
H31 H 0.3508 0.9103 0.7832
C42 C 0.3445(4) 0.96660(15) 0.84868(13)
C43 C 0.2834(4) 1.02862(15) 0.86464(14)
C44 C 0.1941(4) 1.07296(15) 0.82604(15)
H32 H 0.1556 1.1144 0.8363
C45 C 0.1605(4) 1.05704(16) 0.77232(15)
H33 H 0.1012 1.0879 0.7468
C46 C 0.4321(4) 0.91475(15) 0.88947(14)
C47 C 0.2833(4) 1.04590(15) 0.92646(14)
C48 C 0.1356(3) 0.90286(15) 0.71501(13)
C49 C 0.0217(4) 0.89222(15) 0.76555(13)
H34 H -0.0326 0.9271 0.7851
C50 C -0.0130(4) 0.83165(15) 0.78742(13)
C51 C 0.0715(3) 0.77805(15) 0.75899(13)
C52 C 0.1764(4) 0.78902(15) 0.70668(13)
H35 H 0.2259 0.7544 0.6859
C53 C 0.2099(4) 0.85018(15) 0.68447(14)
H36 H 0.2814 0.8560 0.6495
C54 C -0.1452(4) 0.82689(15) 0.84018(14)
C55 C 0.0699(3) 0.71006(15) 0.78700(14)
C56 C 0.3290(4) 0.97736(15) 0.65297(15)
C57 C 0.0179(4) 1.01324(16) 0.67357(15)
Y1_2 Y 1.19793(3) 0.575399(14) 0.715999(13)
Y2_2 Y 1.61357(3) 0.528824(13) 0.566907(12)
Y2A Y 0.38643(3) 0.471176(13) 0.433093(12)
Y2A_2 Y 1.38643(3) 0.471176(13) 0.433093(12)
Y3_2 Y -0.46433(3) 0.750907(14) 0.904392(13)
Y3A Y 0.46433(3) 0.249093(14) 1.095608(13)
Y4_2 Y -0.23957(3) 0.906597(14) 0.963649(13)
Y4A Y 0.23957(3) 0.093403(14) 1.036351(13)
Y4A_2 Y 0.23957(3) 1.093403(14) 1.036351(13)
O3A O 0.5641(2) 0.53809(10) 0.45804(9)
O4A O 0.6927(3) 0.60869(10) 0.48866(9)
O5A O 0.6493(3) 0.80696(10) 0.97741(9)
O6A O 0.4781(3) 0.73791(12) 1.01180(10)
O7A O 0.9437(3) 0.83099(11) 1.01364(10)
O13_2 O 0.1428(2) 0.60695(10) 0.62081(9)
O14_2 O 0.3699(2) 0.60373(10) 0.55298(9)
O15A O 0.7495(2) 0.42058(10) 0.60213(9)
O16A O 0.8261(2) 0.46054(10) 0.51004(9)
O19A O 0.6125(3) 0.92123(10) 1.06125(9)
O20A O 0.8344(3) 0.96965(11) 1.03539(10)
O21_2 O 0.7639(2) 0.78502(10) 0.84372(10)
O22_2 O 0.8403(3) 0.86881(11) 0.87571(10)
O34 O -0.2398(3) 0.12399(13) 0.96062(13)
O35 O 0.7666(4) 0.5514(2) 0.86276(15)
O36 O 0.2211(4) 0.59191(14) 0.90630(17)
O37 O 1.1312(3) 0.56232(15) 0.29098(12)
O38 O 0.6429(5) 0.44301(18) 0.80819(18)
O39 O 0.5511(17) 0.3795(3) 0.9178(3)
O41 O -0.0655(18) 0.3948(7) 0.9377(8)
O43 O 0.2456(19) 0.4025(6) 0.8560(6)
loop_
_geom_bond_atom_site_label_1
_geom_bond_atom_site_label_2
_geom_bond_site_symmetry_1
_geom_bond_site_symmetry_2
Y1 O1 1_555 1_555
Y2 O2 1_555 1_555
Y3 O11 1_555 1_555
Y4 O18 1_555 1_555
O1 C8 1_555 1_555
O2 Y1 1_555 1_555
O3 Y2 1_555 1_555
O4 C9 1_555 1_555
O5 C16 1_555 1_555
O6 C16 1_555 1_555
O7 C17 1_555 1_555
O8 C17 1_555 1_555
O9 Y1 1_555 1_555
O10 Y2 1_555 1_555
O11 C28 1_555 1_555
O12 C28 1_555 1_555
O13 C35 1_555 1_555
O14 C35 1_555 1_555
O15 C36 1_555 1_555
O16 C36 1_555 1_555
O17 Y3 1_555 1_555
O18 C46 1_555 1_555
O19 C47 1_555 1_555
O20 C47 1_555 1_555
O21 C54 1_555 1_555
O22 C54 1_555 1_555
O23 Y1 1_555 1_555
O24 C55 1_555 1_555
O25 Y1 1_555 1_555
H1 O25 1_555 1_555
H2 O25 1_555 1_555
O26 Y1 1_555 1_555
H3 O26 1_555 1_555
H4 O26 1_555 1_555
O27 Y1 1_555 1_555
H5 O27 1_555 1_555
H6 O27 1_555 1_555
O28 Y2 1_555 1_555
H7 O28 1_555 1_555
H8 O28 1_555 1_555
O29 Y3 1_555 1_555
H9 O29 1_555 1_555
H10 O29 1_555 1_555
O30 Y3 1_555 1_555
H11 O30 1_555 1_555
H12 O30 1_555 1_555
O31 Y3 1_555 1_555
H13 O31 1_555 1_555
H14 O31 1_555 1_555
O32 Y4 1_555 1_555
H15 O32 1_555 1_555
H16 O32 1_555 1_555
O33 Y4 1_555 1_555
H17 O33 1_555 1_555
H18 O33 1_555 1_555
F1 C18 1_555 1_555
F2 C18 1_555 1_555
F3 C18 1_555 1_555
F4 C19 1_555 1_555
F5 C19 1_555 1_555
F6 C19 1_555 1_555
F7 C37 1_555 1_555
F8 C37 1_555 1_555
F9 C37 1_555 1_555
F10 C38 1_555 1_555
F11 C38 1_555 1_555
F12 C38 1_555 1_555
F13 C56 1_555 1_555
F14 C56 1_555 1_555
F15 C56 1_555 1_555
F16 C57 1_555 1_555
F17 C57 1_555 1_555
F18 C57 1_555 1_555
C1 C2 1_555 1_555
C2 C3 1_555 1_555
C3 H19 1_555 1_555
C4 C3 1_555 1_555
C5 C4 1_555 1_555
C6 C5 1_555 1_555
H20 C6 1_555 1_555
C7 C2 1_555 1_555
H21 C7 1_555 1_555
C8 O2 1_555 1_555
C9 O3 1_555 1_555
C10 C1 1_555 1_555
C11 C10 1_555 1_555
H22 C11 1_555 1_555
C12 C11 1_555 1_555
C13 C12 1_555 1_555
C14 C13 1_555 1_555
H23 C14 1_555 1_555
C15 C10 1_555 1_555
H24 C15 1_555 1_555
C16 C12 1_555 1_555
C17 C13 1_555 1_555
C18 C1 1_555 1_555
C19 C1 1_555 1_555
C20 C21 1_555 1_555
C21 C22 1_555 1_555
C22 H25 1_555 1_555
C23 C22 1_555 1_555
C24 C23 1_555 1_555
C25 C24 1_555 1_555
H26 C25 1_555 1_555
C26 C21 1_555 1_555
H27 C26 1_555 1_555
C27 O9 1_555 1_555
C28 C24 1_555 1_555
C29 C20 1_555 1_555
C30 C29 1_555 1_555
H28 C30 1_555 1_555
C31 C30 1_555 1_555
C32 C31 1_555 1_555
C33 C32 1_555 1_555
H29 C33 1_555 1_555
C34 C29 1_555 1_555
H30 C34 1_555 1_555
C35 C31 1_555 1_555
C36 C32 1_555 1_555
C37 C20 1_555 1_555
C38 C20 1_555 1_555
C39 C40 1_555 1_555
C40 C41 1_555 1_555
C41 H31 1_555 1_555
C42 C41 1_555 1_555
C43 C42 1_555 1_555
C44 C43 1_555 1_555
H32 C44 1_555 1_555
C45 C40 1_555 1_555
H33 C45 1_555 1_555
C46 O17 1_555 1_555
C47 C43 1_555 1_555
C48 C39 1_555 1_555
C49 C48 1_555 1_555
H34 C49 1_555 1_555
C50 C49 1_555 1_555
C51 C50 1_555 1_555
C52 C51 1_555 1_555
H35 C52 1_555 1_555
C53 C48 1_555 1_555
H36 C53 1_555 1_555
C54 C50 1_555 1_555
C55 O23 1_555 1_555
C56 C39 1_555 1_555
C57 C39 1_555 1_555
Y1_2 O13 1_555 1_555
Y2_2 O14 1_555 1_555
Y2A O3 1_555 1_555
Y2A_2 O15 1_555 1_555
Y3_2 O21 1_555 1_555
Y3A O5 1_555 1_555
Y4_2 O22 1_555 1_555
Y4A O5 1_555 1_555
Y4A_2 O19 1_555 1_555
O3A Y2 1_555 1_555
O4A Y2 1_555 1_555
O5A Y3 1_555 1_555
O6A Y3 1_555 1_555
O7A Y4 1_555 1_555
O13_2 Y1 1_555 1_555
O14_2 Y2 1_555 1_555
O15A Y2 1_555 1_555
O16A Y2 1_555 1_555
O19A Y4 1_555 1_555
O20A Y4 1_555 1_555
O21_2 Y3 1_555 1_555
O22_2 Y4 1_555 1_555
Y4 O5A 1_555 1_555
O4 Y2A 1_555 1_555
O6 Y3A 1_555 1_555
O7 Y4A 1_555 1_555
O10 C27 1_555 1_555
O16 Y2A_2 1_555 1_555
O20 Y4A_2 1_555 1_555
C4 C8 1_555 1_555
C5 C9 1_555 1_555
C6 C7 1_555 1_555
C14 C15 1_555 1_555
C23 C27 1_555 1_555
C25 C26 1_555 1_555
C33 C34 1_555 1_555
C42 C46 1_555 1_555
C44 C45 1_555 1_555
C51 C55 1_555 1_555
C52 C53 1_555 1_555
Y2A O3A 1_555 1_555

#END
