
#######################################################################
#
#                 Cambridge Crystallographic Data Centre
#                                CCDC 
#
#######################################################################
#
# If this CIF has been generated from an entry in the Cambridge 
# Structural Database, then it will include bibliographic, chemical, 
# crystal, experimental, refinement or atomic coordinate data resulting 
# from the CCDC's data processing and validation procedures.
#
#######################################################################

data_SEQTEP
_chemical_formula_moiety         '(C85 H95 Mn4 N5 O27)n'
_symmetry_cell_setting           triclinic
_symmetry_space_group_name_H-M   'P -1'
_symmetry_Int_Tables_number      2
_space_group_name_Hall           '-P 1'
loop_
_symmetry_equiv_pos_site_id
_symmetry_equiv_pos_as_xyz
1 x,y,z
2 -x,-y,-z
_cell_length_a                   16.4674(11)
_cell_length_b                   18.1705(18)
_cell_length_c                   20.4456(14)
_cell_angle_alpha                64.167(8)
_cell_angle_beta                 70.668(6)
_cell_angle_gamma                70.119(8)
_cell_volume                     5055.94
loop_
_atom_site_label
_atom_site_type_symbol
_atom_site_fract_x
_atom_site_fract_y
_atom_site_fract_z
Mn1 Mn 1.35956(7) 0.26113(7) 0.42044(6)
Mn2 Mn 1.12131(7) 0.33133(7) 0.41362(6)
Mn3 Mn 0.90969(7) 0.27948(7) 0.37851(6)
Mn4 Mn 0.67386(7) 0.30190(7) 0.45047(6)
O1 O 1.4021(3) 0.3092(3) -0.5185(2)
O2 O 1.5432(3) 0.2889(3) -0.5233(2)
O3 O 1.1756(4) -0.5626(3) 0.3540(3)
O4 O 1.3351(4) 0.2007(3) 0.3607(3)
O5 O 1.1972(4) 0.2581(4) 0.3474(3)
O6 O 1.3212(4) -0.6161(3) 0.3409(3)
O7 O 1.4262(3) 0.0650(3) -0.1864(2)
O8 O 1.3191(3) 0.0587(3) 0.1321(3)
O9 O 1.3143(3) -0.2437(3) 0.1130(3)
O10 O 0.9012(3) 0.0473(3) 0.8287(2)
O11 O 0.8479(4) 0.2227(4) 1.3466(4)
O12 O 0.8161(4) -0.2594(3) 1.1374(4)
O13 O 0.7896(4) -0.6212(3) 1.3794(3)
O14 O 0.8793(3) 0.2478(3) 0.4930(3)
O15 O 0.7074(4) 0.2198(3) 1.3905(3)
O16 O 0.6608(4) -0.5777(3) 1.3518(3)
O17 O 0.8205(3) 0.0336(3) 1.1640(3)
O18 O 0.7460(3) 0.2189(3) 0.5353(2)
O19 O 1.4172(4) 0.1327(3) 0.4954(3)
O20 O 1.0152(4) 0.1642(4) 0.3937(3)
O21 O 0.6247(5) 0.3824(6) 0.5152(5)
O22 O 1.4906(4) 0.2531(4) 0.3463(3)
O23 O 1.0145(5) 0.4020(5) 0.4758(5)
O24 O 1.0188(3) 0.3555(3) 0.3551(3)
O25 O 0.9839(4) 0.3417(4) 0.2681(3)
O26 O 1.2268(3) 0.2633(3) 0.4925(3)
O27 O 1.1087(4) 0.2191(4) 0.5175(3)
N1 N 1.5296(4) 0.0420(4) 0.5498(4)
N2 N 1.0960(5) 0.0490(5) 0.4658(5)
N3 N 1.5654(6) 0.3344(6) 0.2412(4)
N4 N 0.8792(8) 0.4895(8) 0.4731(7)
N5 N 0.5800(5) 0.4240(5) 0.6105(4)
C1 C 1.4677(5) 0.2793(4) -0.4886(4)
C2 C 1.2060(6) -0.4016(5) 0.2609(5)
H1 H 1.1506 -0.4040 0.2927
C3 C 1.2218(6) -0.3269(5) 0.2103(6)
H2 H 1.1778 -0.2780 0.2078
C4 C 1.3525(5) -0.4701(5) 0.2191(4)
H3 H 1.3972 -0.5188 0.2234
C5 C 1.3049(6) -0.3230(5) 0.1613(5)
C6 C 1.3698(6) -0.3947(5) 0.1653(4)
H4 H 1.4246 -0.3929 0.1324
C7 C 1.2158(5) 0.1710(5) 0.2580(4)
H5 H 1.1587 0.1958 0.2773
C8 C 1.3715(5) -0.1308(5) -0.0871(4)
H6 H 1.3815 -0.1906 -0.0616
H7 H 1.4163 -0.1179 -0.1319
H8 H 1.3144 -0.1094 -0.0994
C9 C 1.5251(5) 0.1813(4) -0.3734(3)
H9 H 1.5818 0.1867 -0.4010
C10 C 1.4004(5) -0.2342(4) 0.0651(4)
H10 H 1.4131 -0.2559 0.0261
H11 H 1.4464 -0.2638 0.0934
C11 C 1.5139(5) 0.1278(5) -0.3004(4)
H12 H 1.5628 0.0965 -0.2792
C12 C 1.2560(6) -0.5598(5) 0.3253(4)
C13 C 1.3560(5) 0.1283(4) -0.0454(4)
H13 H 1.3413 0.1536 -0.0934
H14 H 1.4091 0.1420 -0.0490
H15 H 1.3085 0.1492 -0.0108
C14 C 1.2286(5) 0.1321(5) 0.2099(4)
H16 H 1.1802 0.1298 0.1975
C15 C 1.3705(5) 0.1379(5) 0.2469(4)
H17 H 1.4188 0.1393 0.2601
C16 C 1.3707(5) 0.2197(5) -0.3648(4)
H18 H 1.3221 0.2507 -0.3865
C17 C 1.3579(5) 0.1663(5) -0.2905(4)
H19 H 1.3010 0.1617 -0.2629
C18 C 1.2715(6) -0.4751(5) 0.2662(4)
C19 C 1.4211(5) -0.1611(5) 0.1544(4)
H20 H 1.4253 -0.1278 0.1785
H21 H 1.4758 -0.2019 0.1496
H22 H 1.3739 -0.1893 0.1837
C20 C 1.2866(5) 0.1740(4) 0.2783(4)
C21 C 1.4293(4) 0.1202(4) -0.2579(3)
C22 C 1.3856(5) 0.1003(4) 0.1977(4)
H23 H 1.4429 0.0780 0.1765
C23 C 1.2733(6) 0.2142(5) 0.3336(4)
C24 C 1.3131(4) 0.0963(4) 0.1798(4)
C25 C 1.4054(4) 0.0231(5) 0.0963(4)
H24 H 1.4388 -0.0186 0.1333
H25 H 1.4376 0.0667 0.0645
C26 C 1.3753(4) -0.0908(5) -0.0377(4)
C27 C 1.3703(4) 0.0337(4) -0.0184(3)
C28 C 1.4541(4) 0.2271(4) -0.4065(3)
C29 C 1.3942(4) -0.1405(4) 0.0325(4)
C30 C 1.3617(4) -0.0029(4) -0.0623(3)
C31 C 1.3425(4) 0.0523(4) -0.1378(3)
H26 H 1.3155 0.0253 -0.1542
H27 H 1.3028 0.1055 -0.1369
C32 C 1.3931(4) -0.0168(4) 0.0511(3)
C33 C 1.4025(4) -0.1041(4) 0.0774(3)
C34 C 0.7208(8) -0.3471(7) 1.2047(9)
H28 H 0.6772 -0.3024 1.1837
C35 C 0.8020(6) -0.3370(5) 1.1857(5)
C36 C 0.8869(6) -0.1642(5) 0.9468(5)
H29 H 0.8993 -0.2235 0.9752
H30 H 0.9319 -0.1521 0.9021
H31 H 0.8304 -0.1473 0.9342
C37 C 0.8331(4) 0.0192(5) 0.8923(3)
H32 H 0.8082 -0.0170 0.8847
H33 H 0.7861 0.0673 0.8976
C38 C 0.8853(4) -0.1162(5) 0.9929(4)
C39 C 0.9059(5) -0.2512(5) 1.1023(5)
H34 H 0.9314 -0.2788 1.0663
H35 H 0.9420 -0.2760 1.1390
C40 C 0.8677(4) -0.0280(5) 0.9627(3)
C41 C 0.8622(5) 0.1106(5) 0.9659(4)
H36 H 0.8500 0.1298 0.9175
H37 H 0.9149 0.1258 0.9610
H38 H 0.8134 0.1362 0.9966
C42 C 0.9000(4) -0.1589(4) 1.0646(3)
C43 C 0.9134(6) -0.1596(6) 1.1854(4)
H39 H 0.9127 -0.1196 1.2045
H40 H 0.9687 -0.2005 1.1871
H41 H 0.8658 -0.1873 1.2151
C44 C 0.8752(4) 0.0161(4) 1.0013(3)
C45 C 0.9023(4) -0.1144(5) 1.1050(4)
C46 C 0.8942(4) -0.0272(5) 1.0722(3)
C47 C 0.9039(4) 0.0170(5) 1.1140(4)
H42 H 0.9498 -0.0174 1.1420
H43 H 0.9206 0.0694 1.0798
C48 C 0.8160(5) 0.0725(5) 1.2096(4)
C49 C 0.8759(4) 0.0897(5) 0.7617(3)
C50 C 0.8867(5) 0.0926(6) 1.2144(5)
H44 H 0.9428 0.0782 1.1865
C51 C 0.7344(5) 0.0922(5) 1.2532(4)
H45 H 0.6866 0.0777 1.2510
C52 C 0.9352(5) 0.1317(5) 0.7016(4)
H46 H 0.9887 0.1307 0.7085
C53 C 0.7975(5) 0.0915(5) 0.7503(4)
H47 H 0.7573 0.0637 0.7898
C54 C 0.8740(5) 0.1338(6) 1.2603(5)
H48 H 0.9222 0.1472 1.2629
C55 C 0.7222(5) 0.1326(5) 1.2995(4)
H49 H 0.6666 0.1445 1.3291
C56 C 0.9158(5) 0.1739(5) 0.6336(4)
H50 H 0.9561 0.2021 0.5945
C57 C 0.7780(5) 0.1341(5) 0.6809(4)
H51 H 0.7246 0.1349 0.6741
C58 C 0.7920(5) 0.1563(5) 1.3030(4)
C59 C 0.8375(4) 0.1764(4) 0.6204(3)
C60 C 0.7574(5) -0.4855(5) 1.2868(5)
C61 C 0.8175(5) 0.2169(4) 0.5446(4)
C62 C 0.7345(6) -0.5672(5) 1.3427(4)
C63 C 0.8600(7) -0.3996(6) 1.2193(8)
H52 H 0.9176 -0.3940 1.2085
C64 C 0.8384(7) -0.4733(6) 1.2699(7)
H53 H 0.8815 -0.5162 1.2934
C65 C 0.7803(6) 0.2034(5) 1.3498(4)
C66 C 0.6981(7) -0.4213(7) 1.2543(8)
H54 H 0.6403 -0.4262 1.2651
C67 C 1.4741(6) -0.0070(5) 0.6146(4)
H55 H 1.4138 0.0142 0.6093
H56 H 1.4785 -0.0027 0.6585
H57 H 1.4933 -0.0648 0.6190
C68 C 1.4953(6) 0.1071(5) 0.4979(4)
H58 H 1.5341 0.1371 0.4589
C69 C 1.6238(6) 0.0168(6) 0.5503(6)
H59 H 1.6552 0.0513 0.5047
H60 H 1.6461 -0.0410 0.5548
H61 H 1.6319 0.0234 0.5916
C70 C 1.1251(8) 0.0046(8) 0.5371(8)
H62 H 1.1014 0.0400 0.5659
H63 H 1.1885 -0.0089 0.5276
H64 H 1.1042 -0.0462 0.5642
C71 C 1.1223(9) 0.0044(7) 0.4163(7)
H65 H 1.0996 0.0398 0.3722
H66 H 1.0992 -0.0452 0.4405
H67 H 1.1857 -0.0112 0.4031
C72 C 1.0465(6) 0.1248(6) 0.4494(6)
H68 H 1.0336 0.1513 0.4828
C73 C 1.5451(11) 0.3020(10) 0.1964(6)
H69 H 1.5093 0.2620 0.2281
H70 H 1.5990 0.2751 0.1709
H71 H 1.5134 0.3475 0.1607
C74 C 1.5302(6) 0.3038(7) 0.3161(6)
H72 H 1.5395 0.3267 0.3451
C75 C 1.6197(10) 0.3950(9) 0.2096(7)
H73 H 1.6251 0.4081 0.2484
H74 H 1.5927 0.4452 0.1739
H75 H 1.6773 0.3717 0.1854
C76 C 1.0280(5) 0.3689(6) 0.2870(5)
C77 C 1.0938(7) 0.4188(7) 0.2288(5)
H76 H 1.0924 0.4243 0.1803
H77 H 1.1521 0.3902 0.2379
H78 H 1.0787 0.4736 0.2312
C78 C 1.1795(5) 0.2108(5) 0.5334(4)
C79 C 1.2066(7) 0.1411(7) 0.6009(5)
H79 H 1.1647 0.1062 0.6248
H80 H 1.2085 0.1639 0.6346
H81 H 1.2641 0.1081 0.5869
C80 C 0.9546(13) 0.4480(16) 0.4660(13)
H82 H 0.9745 0.4777 0.4158
C81 C 0.8222(16) 0.4353(18) 0.5305(15)
H83 H 0.8575 0.3802 0.5515
H84 H 0.7804 0.4320 0.5090
H85 H 0.7910 0.4582 0.5688
C82 C 0.8297(19) 0.5680(14) 0.4461(15)
H86 H 0.7687 0.5690 0.4703
H87 H 0.8364 0.5846 0.3934
H88 H 0.8490 0.6062 0.4553
C83 C 0.6025(9) 0.3966(15) 0.5573(9)
H89 H 0.5644 0.3603 0.5807
C84 C 0.5735(18) 0.3702(13) 0.6871(10)
H90 H 0.5894 0.3127 0.6912
H91 H 0.5139 0.3830 0.7142
H92 H 0.6129 0.3789 0.7074
C85 C 0.5566(10) 0.5057(8) 0.6111(12)
H93 H 0.5677 0.5451 0.5610
H94 H 0.5911 0.5087 0.6392
H95 H 0.4949 0.5191 0.6335
Mn1_2 Mn 1.35956(7) -0.73887(7) 0.42044(6)
Mn1_3 Mn 1.35956(7) 0.26113(7) -0.57956(6)
Mn2_2 Mn 1.12131(7) -0.66867(7) 0.41362(6)
Mn3_2 Mn 0.90969(7) -0.72052(7) 1.37851(6)
Mn3_3 Mn 0.90969(7) 0.27948(7) 1.37851(6)
Mn4_2 Mn 0.67386(7) -0.69810(7) 1.45047(6)
Mn4_3 Mn 0.67386(7) 0.30190(7) 1.45047(6)
Mn4_4 Mn 1.67386(7) 0.30190(7) -0.54953(6)
O1_2 O 1.4021(3) 0.3092(3) 0.4815(2)
O2_2 O 0.5432(3) 0.2889(3) 0.4767(2)
O3_2 O 1.1756(4) 0.4374(3) 0.3540(3)
O6_2 O 1.3212(4) 0.3839(3) 0.3409(3)
O11_2 O 0.8479(4) 0.2227(4) 0.3466(4)
O13_2 O 0.7896(4) 0.3788(3) 0.3794(3)
O15_2 O 0.7074(4) 0.2198(3) 0.3905(3)
O16_2 O 0.6608(4) 0.4223(3) 0.3518(3)
loop_
_geom_bond_atom_site_label_1
_geom_bond_atom_site_label_2
_geom_bond_site_symmetry_1
_geom_bond_site_symmetry_2
Mn1 O4 1_555 1_555
Mn2 O5 1_555 1_555
Mn3 O14 1_555 1_555
Mn4 O18 1_555 1_555
O1 C1 1_555 1_555
O2 C1 1_555 1_555
O3 C12 1_555 1_555
O4 C23 1_555 1_555
O5 C23 1_555 1_555
O6 C12 1_555 1_555
O7 C21 1_555 1_555
O8 C24 1_555 1_555
O9 C5 1_555 1_555
O10 C37 1_555 1_555
O11 C65 1_555 1_555
O12 C35 1_555 1_555
O13 C62 1_555 1_555
O14 C61 1_555 1_555
O15 C65 1_555 1_555
O16 C62 1_555 1_555
O17 C47 1_555 1_555
O18 C61 1_555 1_555
O19 Mn1 1_555 1_555
O20 Mn3 1_555 1_555
O21 Mn4 1_555 1_555
O22 Mn1 1_555 1_555
O23 Mn2 1_555 1_555
O24 Mn2 1_555 1_555
O25 Mn3 1_555 1_555
O26 Mn1 1_555 1_555
O27 Mn2 1_555 1_555
N1 C67 1_555 1_555
N2 C70 1_555 1_555
N3 C73 1_555 1_555
N4 C80 1_555 1_555
N5 C83 1_555 1_555
C1 C28 1_555 1_555
C2 H1 1_555 1_555
C3 C2 1_555 1_555
H2 C3 1_555 1_555
C4 H3 1_555 1_555
C5 C3 1_555 1_555
C6 C4 1_555 1_555
H4 C6 1_555 1_555
C7 H5 1_555 1_555
C8 H6 1_555 1_555
H7 C8 1_555 1_555
H8 C8 1_555 1_555
C9 H9 1_555 1_555
C10 O9 1_555 1_555
H10 C10 1_555 1_555
H11 C10 1_555 1_555
C11 C9 1_555 1_555
H12 C11 1_555 1_555
C12 C18 1_555 1_555
C13 H13 1_555 1_555
H14 C13 1_555 1_555
H15 C13 1_555 1_555
C14 C7 1_555 1_555
H16 C14 1_555 1_555
C15 H17 1_555 1_555
C16 H18 1_555 1_555
C17 C16 1_555 1_555
H19 C17 1_555 1_555
C18 C2 1_555 1_555
C19 H20 1_555 1_555
H21 C19 1_555 1_555
H22 C19 1_555 1_555
C20 C7 1_555 1_555
C21 C11 1_555 1_555
C22 C15 1_555 1_555
H23 C22 1_555 1_555
C23 C20 1_555 1_555
C24 C14 1_555 1_555
C25 O8 1_555 1_555
H24 C25 1_555 1_555
H25 C25 1_555 1_555
C26 C8 1_555 1_555
C27 C13 1_555 1_555
C28 C9 1_555 1_555
C29 C10 1_555 1_555
C30 C26 1_555 1_555
C31 O7 1_555 1_555
H26 C31 1_555 1_555
H27 C31 1_555 1_555
C32 C25 1_555 1_555
C33 C19 1_555 1_555
C34 H28 1_555 1_555
C35 C34 1_555 1_555
C36 H29 1_555 1_555
H30 C36 1_555 1_555
H31 C36 1_555 1_555
C37 H32 1_555 1_555
H33 C37 1_555 1_555
C38 C36 1_555 1_555
C39 O12 1_555 1_555
H34 C39 1_555 1_555
H35 C39 1_555 1_555
C40 C37 1_555 1_555
C41 H36 1_555 1_555
H37 C41 1_555 1_555
H38 C41 1_555 1_555
C42 C38 1_555 1_555
C43 H39 1_555 1_555
H40 C43 1_555 1_555
H41 C43 1_555 1_555
C44 C40 1_555 1_555
C45 C42 1_555 1_555
C46 C44 1_555 1_555
C47 C46 1_555 1_555
H42 C47 1_555 1_555
H43 C47 1_555 1_555
C48 O17 1_555 1_555
C49 O10 1_555 1_555
C50 C48 1_555 1_555
H44 C50 1_555 1_555
C51 C48 1_555 1_555
H45 C51 1_555 1_555
C52 C49 1_555 1_555
H46 C52 1_555 1_555
C53 C49 1_555 1_555
H47 C53 1_555 1_555
C54 C50 1_555 1_555
H48 C54 1_555 1_555
C55 C51 1_555 1_555
H49 C55 1_555 1_555
C56 C52 1_555 1_555
H50 C56 1_555 1_555
C57 C53 1_555 1_555
H51 C57 1_555 1_555
C58 C54 1_555 1_555
C59 C56 1_555 1_555
C60 C62 1_555 1_555
C61 C59 1_555 1_555
C63 C35 1_555 1_555
H52 C63 1_555 1_555
C64 C60 1_555 1_555
H53 C64 1_555 1_555
C65 C58 1_555 1_555
C66 C34 1_555 1_555
H54 C66 1_555 1_555
C67 H55 1_555 1_555
H56 C67 1_555 1_555
H57 C67 1_555 1_555
C68 O19 1_555 1_555
H58 C68 1_555 1_555
C69 N1 1_555 1_555
H59 C69 1_555 1_555
H60 C69 1_555 1_555
H61 C69 1_555 1_555
C70 H62 1_555 1_555
H63 C70 1_555 1_555
H64 C70 1_555 1_555
C71 N2 1_555 1_555
H65 C71 1_555 1_555
H66 C71 1_555 1_555
H67 C71 1_555 1_555
C72 O20 1_555 1_555
H68 C72 1_555 1_555
C73 H69 1_555 1_555
H70 C73 1_555 1_555
H71 C73 1_555 1_555
C74 O22 1_555 1_555
H72 C74 1_555 1_555
C75 N3 1_555 1_555
H73 C75 1_555 1_555
H74 C75 1_555 1_555
H75 C75 1_555 1_555
C76 O24 1_555 1_555
C77 C76 1_555 1_555
H76 C77 1_555 1_555
H77 C77 1_555 1_555
H78 C77 1_555 1_555
C78 O26 1_555 1_555
C79 C78 1_555 1_555
H79 C79 1_555 1_555
H80 C79 1_555 1_555
H81 C79 1_555 1_555
C80 O23 1_555 1_555
H82 C80 1_555 1_555
C81 N4 1_555 1_555
H83 C81 1_555 1_555
H84 C81 1_555 1_555
H85 C81 1_555 1_555
C82 N4 1_555 1_555
H86 C82 1_555 1_555
H87 C82 1_555 1_555
H88 C82 1_555 1_555
C83 O21 1_555 1_555
H89 C83 1_555 1_555
C84 N5 1_555 1_555
H90 C84 1_555 1_555
H91 C84 1_555 1_555
H92 C84 1_555 1_555
C85 N5 1_555 1_555
H93 C85 1_555 1_555
H94 C85 1_555 1_555
H95 C85 1_555 1_555
Mn1_2 O6 1_555 1_555
Mn1_3 O1 1_555 1_555
Mn2_2 O3 1_555 1_555
Mn3_2 O13 1_555 1_555
Mn3_3 O11 1_555 1_555
Mn4_2 O13 1_555 1_555
Mn4_3 O15 1_555 1_555
Mn4_4 O2 1_555 1_555
O1_2 Mn1 1_555 1_555
O2_2 Mn4 1_555 1_555
O3_2 Mn2 1_555 1_555
O6_2 Mn1 1_555 1_555
O11_2 Mn3 1_555 1_555
O13_2 Mn3 1_555 1_555
O15_2 Mn4 1_555 1_555
O16_2 Mn4 1_555 1_555
Mn2 O26 1_555 1_555
Mn3 O24 1_555 1_555
Mn4 O13_2 1_555 1_555
O16 Mn4_2 1_555 1_555
O25 C76 1_555 1_555
O27 C78 1_555 1_555
N1 C68 1_555 1_555
N2 C72 1_555 1_555
N3 C74 1_555 1_555
C4 C18 1_555 1_555
C5 C6 1_555 1_555
C15 C20 1_555 1_555
C16 C28 1_555 1_555
C17 C21 1_555 1_555
C22 C24 1_555 1_555
C26 C29 1_555 1_555
C27 C30 1_555 1_555
C27 C32 1_555 1_555
C29 C33 1_555 1_555
C30 C31 1_555 1_555
C32 C33 1_555 1_555
C38 C40 1_555 1_555
C39 C42 1_555 1_555
C41 C44 1_555 1_555
C43 C45 1_555 1_555
C45 C46 1_555 1_555
C55 C58 1_555 1_555
C57 C59 1_555 1_555
C60 C66 1_555 1_555
C63 C64 1_555 1_555

#END
