
#######################################################################
#
#                 Cambridge Crystallographic Data Centre
#                                CCDC 
#
#######################################################################
#
# If this CIF has been generated from an entry in the Cambridge 
# Structural Database, then it will include bibliographic, chemical, 
# crystal, experimental, refinement or atomic coordinate data resulting 
# from the CCDC's data processing and validation procedures.
#
#######################################################################

data_MIHLOF
_chemical_formula_moiety         '(C48 H31 N4 O10 Sm1)n'
_symmetry_cell_setting           triclinic
_symmetry_space_group_name_H-M   'P -1'
_symmetry_Int_Tables_number      2
_space_group_name_Hall           '-P 1'
loop_
_symmetry_equiv_pos_site_id
_symmetry_equiv_pos_as_xyz
1 x,y,z
2 -x,-y,-z
_cell_length_a                   9.6187(3)
_cell_length_b                   13.8934(6)
_cell_length_c                   17.2345(7)
_cell_angle_alpha                98.058(2)
_cell_angle_beta                 90.457(2)
_cell_angle_gamma                90.599(3)
_cell_volume                     2280.19
loop_
_atom_site_label
_atom_site_type_symbol
_atom_site_fract_x
_atom_site_fract_y
_atom_site_fract_z
Sm1 Sm 0.22966(2) 0.099549(17) -0.014284(12)
C1 C 0.2222(4) 0.3951(3) 0.5647(2)
C2 C 0.2788(4) 0.2978(3) 0.5505(3)
H1 H 0.2710 0.2487 0.5834
C3 C 0.3451(4) 0.2913(3) 0.4810(3)
H2 H 0.3914 0.2359 0.4551
C4 C 0.3323(4) 0.3848(3) 0.4533(2)
C5 C 0.3898(4) 0.4064(3) 0.3833(2)
C6 C 0.3970(4) 0.5000(3) 0.3612(2)
C7 C 0.4803(5) 0.5258(3) 0.2992(2)
H3 H 0.5292 0.4823 0.2618
C8 C 0.4770(4) 0.6254(3) 0.3035(3)
H4 H 0.5263 0.6634 0.2709
C9 C 0.3858(4) 0.6617(3) 0.3660(2)
C10 C 0.3530(4) 0.7594(3) 0.3902(2)
C11 C 0.2614(4) 0.7914(3) 0.4510(2)
C12 C 0.2152(4) 0.8908(3) 0.4681(2)
H5 H 0.2428 0.9438 0.4422
C13 C 0.1240(4) 0.8935(3) 0.5286(2)
H6 H 0.0744 0.9485 0.5525
C14 C 0.1181(4) 0.7964(3) 0.5491(2)
C15 C 0.0452(4) 0.7712(3) 0.6139(2)
C16 C 0.0441(4) 0.6790(3) 0.6384(2)
C17 C -0.0287(5) 0.6517(3) 0.7048(3)
H7 H -0.0857 0.6931 0.7394
C18 C -0.0025(5) 0.5578(3) 0.7097(3)
H8 H -0.0371 0.5216 0.7484
C19 C 0.0872(4) 0.5220(3) 0.6461(3)
C20 C 0.1416(4) 0.4281(3) 0.6298(2)
N1 N 0.2576(4) 0.4480(3) 0.5059(2)
N2 N 0.3393(4) 0.5828(2) 0.3997(2)
N3 N 0.2006(3) 0.7348(3) 0.5007(2)
N4 N 0.1123(3) 0.5971(2) 0.6034(2)
C21 C 0.4508(4) 0.3253(3) 0.3280(2)
C22 C 0.5659(4) 0.2742(3) 0.3490(2)
H9 H 0.6101 0.2931 0.3984
C23 C 0.6166(4) 0.1963(3) 0.2987(3)
H10 H 0.6953 0.1622 0.3137
C24 C 0.5522(4) 0.1676(3) 0.2260(2)
H11 H 0.5852 0.1129 0.1922
C25 C 0.4401(4) 0.2194(3) 0.2034(2)
C26 C 0.3902(4) 0.2984(3) 0.2540(2)
H12 H 0.3142 0.3343 0.2380
C27 C 0.3685(4) 0.1856(3) 0.1273(2)
O1 O 0.4207(3) 0.1167(2) 0.08121(17)
O2 O 0.2564(3) 0.2244(2) 0.10918(17)
C28 C 0.4291(2) 0.83302(19) 0.34857(13)
C29 C 0.5319(3) 0.8902(2) 0.38996(10)
H13 H 0.5393 0.8928 0.4452
C30 C 0.6240(3) 0.9435(2) 0.35050(14)
H14 H 0.6943 0.9825 0.3788
C31 C 0.6132(2) 0.9396(2) 0.26965(14)
H15 H 0.6761 0.9760 0.2427
C32 C 0.5103(3) 0.8825(2) 0.22826(10)
C33 C 0.4182(2) 0.82918(19) 0.26772(13)
H16 H 0.3479 0.7901 0.2394
C34 C 0.4962(4) 0.8809(3) 0.1412(2)
O3 O 0.5942(3) 0.9167(2) 0.10616(18)
O4 O 0.3875(3) 0.8446(2) 0.10730(18)
C35 C -0.0344(4) 0.8475(3) 0.6639(2)
C36 C -0.1610(4) 0.8808(3) 0.6364(2)
H17 H -0.1896 0.8611 0.5836
C37 C -0.2449(4) 0.9429(3) 0.6867(2)
H18 H -0.3307 0.9645 0.6680
C38 C -0.2032(4) 0.9731(3) 0.7637(2)
H19 H -0.2620 1.0127 0.7985
C39 C -0.0742(4) 0.9446(3) 0.7892(2)
C40 C 0.0087(4) 0.8834(3) 0.7400(2)
H20 H 0.0967 0.8653 0.7582
C41 C -0.0270(4) 0.9812(3) 0.8713(2)
O5 O 0.0980(3) 1.0040(2) 0.88284(17)
O6 O -0.1182(3) 0.9890(2) 0.92492(17)
C42 C 0.1120(4) 0.3581(3) 0.6857(2)
C43 C 0.0299(5) 0.2751(3) 0.6624(3)
H21 H -0.0145 0.2667 0.6124
C44 C 0.0128(5) 0.2049(4) 0.7120(3)
H22 H -0.0416 0.1483 0.6951
C45 C 0.0742(5) 0.2169(3) 0.7851(3)
H23 H 0.0630 0.1682 0.8182
C46 C 0.1528(5) 0.3003(3) 0.8107(3)
C47 C 0.1693(4) 0.3702(3) 0.7606(3)
H24 H 0.2212 0.4278 0.7784
C48 C 0.2184(5) 0.3139(4) 0.8912(3)
O7 O 0.2661(5) 0.3959(3) 0.9190(2)
O8 O 0.2185(4) 0.2432(3) 0.92930(19)
O9 O 0.3227(3) -0.0661(2) -0.02115(16)
H25 H 0.4072 -0.0826 -0.0401
H26 H 0.3451 -0.0962 0.0217
O10 O -0.0094(3) 0.1643(2) 0.0041(2)
H27 H -0.0666 0.2045 -0.0256
H28 H -0.0480 0.1041 -0.0237
Sm1A Sm 0.77034(2) 0.900451(17) 0.014284(12)
Sm1_2 Sm 0.22966(2) 1.099549(17) 0.985716(12)
Sm1A_2 Sm -0.22966(2) 0.900451(17) 1.014284(12)
Sm1_3 Sm 0.22966(2) 0.099549(17) 0.985716(12)
O3A O 0.4058(3) 0.0833(2) -0.10616(18)
O5_2 O 0.0980(3) 0.0040(2) -0.11716(17)
O6A O 0.1182(3) 0.0110(2) 0.07508(17)
O8_2 O 0.2185(4) 0.2432(3) -0.07070(19)
loop_
_geom_bond_atom_site_label_1
_geom_bond_atom_site_label_2
_geom_bond_site_symmetry_1
_geom_bond_site_symmetry_2
Sm1 O1 1_555 1_555
C1 C2 1_555 1_555
C2 H1 1_555 1_555
C3 C2 1_555 1_555
H2 C3 1_555 1_555
C4 C3 1_555 1_555
C5 C4 1_555 1_555
C6 C5 1_555 1_555
C7 C6 1_555 1_555
H3 C7 1_555 1_555
C8 C7 1_555 1_555
H4 C8 1_555 1_555
C9 C8 1_555 1_555
C10 C9 1_555 1_555
C11 C10 1_555 1_555
C12 C11 1_555 1_555
H5 C12 1_555 1_555
C13 C12 1_555 1_555
H6 C13 1_555 1_555
C14 C13 1_555 1_555
C15 C14 1_555 1_555
C16 C15 1_555 1_555
C17 C16 1_555 1_555
H7 C17 1_555 1_555
C18 C17 1_555 1_555
H8 C18 1_555 1_555
C19 C18 1_555 1_555
C20 C1 1_555 1_555
N1 C1 1_555 1_555
N2 C6 1_555 1_555
N3 C11 1_555 1_555
N4 C16 1_555 1_555
C21 C5 1_555 1_555
C22 C21 1_555 1_555
H9 C22 1_555 1_555
C23 C22 1_555 1_555
H10 C23 1_555 1_555
C24 C23 1_555 1_555
H11 C24 1_555 1_555
C25 C24 1_555 1_555
C26 C21 1_555 1_555
H12 C26 1_555 1_555
C27 C25 1_555 1_555
O1 C27 1_555 1_555
O2 Sm1 1_555 1_555
C28 C10 1_555 1_555
C29 C28 1_555 1_555
H13 C29 1_555 1_555
C30 C29 1_555 1_555
H14 C30 1_555 1_555
C31 C30 1_555 1_555
H15 C31 1_555 1_555
C32 C31 1_555 1_555
C33 C28 1_555 1_555
H16 C33 1_555 1_555
C34 C32 1_555 1_555
O3 C34 1_555 1_555
O4 C34 1_555 1_555
C35 C15 1_555 1_555
C36 C35 1_555 1_555
H17 C36 1_555 1_555
C37 C36 1_555 1_555
H18 C37 1_555 1_555
C38 C37 1_555 1_555
H19 C38 1_555 1_555
C39 C38 1_555 1_555
C40 C35 1_555 1_555
H20 C40 1_555 1_555
C41 C39 1_555 1_555
O5 C41 1_555 1_555
O6 C41 1_555 1_555
C42 C20 1_555 1_555
C43 C42 1_555 1_555
H21 C43 1_555 1_555
C44 C43 1_555 1_555
H22 C44 1_555 1_555
C45 C44 1_555 1_555
H23 C45 1_555 1_555
C46 C45 1_555 1_555
C47 C42 1_555 1_555
H24 C47 1_555 1_555
C48 C46 1_555 1_555
O7 C48 1_555 1_555
O8 C48 1_555 1_555
O9 Sm1 1_555 1_555
H25 O9 1_555 1_555
H26 O9 1_555 1_555
O10 Sm1 1_555 1_555
H27 O10 1_555 1_555
H28 O10 1_555 1_555
Sm1A O3 1_555 1_555
Sm1_2 O5 1_555 1_555
Sm1A_2 O6 1_555 1_555
Sm1_3 O8 1_555 1_555
O3A Sm1 1_555 1_555
O5_2 Sm1 1_555 1_555
O6A Sm1 1_555 1_555
O8_2 Sm1 1_555 1_555
C4 N1 1_555 1_555
C9 N2 1_555 1_555
C14 N3 1_555 1_555
C19 C20 1_555 1_555
C19 N4 1_555 1_555
C25 C26 1_555 1_555
C27 O2 1_555 1_555
C32 C33 1_555 1_555
C39 C40 1_555 1_555
C46 C47 1_555 1_555

#END
