
#######################################################################
#
#                 Cambridge Crystallographic Data Centre
#                                CCDC 
#
#######################################################################
#
# If this CIF has been generated from an entry in the Cambridge 
# Structural Database, then it will include bibliographic, chemical, 
# crystal, experimental, refinement or atomic coordinate data resulting 
# from the CCDC's data processing and validation procedures.
#
#######################################################################

data_MIHLEV
_chemical_formula_moiety         '(C50 H32 N4 O14 Pr2)n'
_symmetry_cell_setting           triclinic
_symmetry_space_group_name_H-M   'P -1'
_symmetry_Int_Tables_number      2
_space_group_name_Hall           '-P 1'
loop_
_symmetry_equiv_pos_site_id
_symmetry_equiv_pos_as_xyz
1 x,y,z
2 -x,-y,-z
_cell_length_a                   7.45950(10)
_cell_length_b                   11.4740(3)
_cell_length_c                   16.4767(4)
_cell_angle_alpha                98.9511(11)
_cell_angle_beta                 90.9863(14)
_cell_angle_gamma                91.3109(14)
_cell_volume                     1392.4
loop_
_atom_site_label
_atom_site_type_symbol
_atom_site_fract_x
_atom_site_fract_y
_atom_site_fract_z
Pr1 Pr 0.24085(2) 0.423564(16) -0.004946(10)
C1 C -0.4232(5) 0.7720(3) 0.5694(2)
C2 C -0.3053(6) 0.6744(3) 0.5608(2)
H1 H -0.3128 0.6087 0.5893
C3 C -0.1809(6) 0.6927(3) 0.5046(2)
H2 H -0.0869 0.6412 0.4862
C4 C -0.2160(5) 0.8033(3) 0.4779(2)
C5 C -0.1230(5) 0.8541(3) 0.4190(2)
C6 C -0.1642(5) 0.9629(3) 0.3946(2)
C7 C -0.0560(6) 1.0211(4) 0.3397(2)
H3 H 0.0531 0.9940 0.3155
C8 C -0.1389(6) 1.1205(4) 0.3296(2)
H4 H -0.1001 1.1769 0.2967
C9 C -0.2986(5) 1.1253(3) 0.3783(2)
C10 C -0.5775(5) 0.7834(3) 0.6169(2)
N1 N -0.3619(4) 0.8493(3) 0.51943(17)
H5 H -0.4093 0.9176 0.5149
N2 N -0.3102(4) 1.0290(3) 0.41782(18)
C11 C 0.0225(5) 0.7851(3) 0.3738(2)
C12 C 0.1803(6) 0.7567(4) 0.4129(2)
H7 H 0.2002 0.7842 0.4698
C13 C 0.3082(6) 0.6882(4) 0.3683(3)
H8 H 0.4146 0.6686 0.3951
C14 C 0.2804(6) 0.6489(4) 0.2855(3)
H9 H 0.3679 0.6022 0.2556
C15 C 0.1252(5) 0.6771(3) 0.2456(2)
C16 C -0.0023(5) 0.7463(3) 0.2900(2)
H10 H -0.1072 0.7671 0.2626
C17 C 0.0891(5) 0.6297(4) 0.1560(2)
O1 O 0.2113(4) 0.5740(3) 0.11698(18)
O2 O -0.0631(3) 0.6511(2) 0.12642(15)
C18 C -0.6202(5) 0.6872(3) 0.6658(2)
C19 C -0.7519(7) 0.6014(4) 0.6371(3)
H11 H -0.8084 0.6016 0.5850
C20 C -0.8007(8) 0.5162(4) 0.6842(3)
H12 H -0.8904 0.4582 0.6641
C21 C -0.7197(6) 0.5149(3) 0.7603(2)
H13 H -0.7543 0.4569 0.7928
C22 C -0.5875(5) 0.5991(3) 0.7888(2)
C23 C -0.5375(5) 0.6841(3) 0.7415(2)
H14 H -0.4457 0.7408 0.7611
C24 C -0.4952(5) 0.5997(3) 0.8701(2)
O3 O -0.5496(3) 0.5310(2) 0.91934(15)
O4 O -0.3618(4) 0.6671(3) 0.88820(19)
O5 O 0.0434(4) 0.2343(3) 0.0216(2)
C25 C -0.0825(5) 0.2987(4) 0.0432(3)
H15 H -0.1912 0.2630 0.0576
O6 O -0.0751(3) 0.4102(2) 0.04743(16)
O7 O 0.4176(4) 0.2623(3) -0.0713(2)
H16 H 0.5245 0.2542 -0.0384
H17 H 0.4531 0.2779 -0.1250
Pr1A Pr -1.24085(2) 1.576436(16) 1.004946(10)
Pr1A_2 Pr -0.24085(2) 0.576436(16) 0.004946(10)
Pr1_2 Pr -0.75915(2) 0.423564(16) 0.995054(10)
Pr1A_3 Pr -0.24085(2) 0.576436(16) 1.004946(10)
Pr1_3 Pr -0.75915(2) 1.423564(16) 0.995054(10)
Pr1_4 Pr -0.75915(2) 1.423564(16) -0.004946(10)
Pr1A_4 Pr -0.24085(2) 1.576436(16) 0.004946(10)
C1A C -0.5768(5) 1.2280(3) 0.4306(2)
C2A C -0.6947(6) 1.3256(3) 0.4392(2)
H1A H -0.6872 1.3913 0.4107
C3A C -0.8191(6) 1.3073(3) 0.4954(2)
H2A H -0.9131 1.3588 0.5138
C4A C -0.7840(5) 1.1967(3) 0.5221(2)
C5A C -0.8770(5) 1.1459(3) 0.5810(2)
C6A C -0.8358(5) 1.0371(3) 0.6054(2)
C7A C -0.9440(6) 0.9789(4) 0.6603(2)
H3A H -1.0531 1.0060 0.6845
C8A C -0.8611(6) 0.8795(4) 0.6704(2)
H4A H -0.8999 0.8231 0.7033
C9A C -0.7014(5) 0.8747(3) 0.6217(2)
C10A C -0.4225(5) 1.2166(3) 0.3831(2)
N1A N -0.6381(4) 1.1507(3) 0.48057(17)
H5A H -0.5907 1.0824 0.4851
N2A N -0.6898(4) 0.9710(3) 0.58218(18)
C11A C -1.0225(5) 1.2149(3) 0.6262(2)
C12A C -1.1803(6) 1.2433(4) 0.5871(2)
H7A H -1.2002 1.2158 0.5302
C13A C -1.3082(6) 1.3118(4) 0.6317(3)
H8A H -1.4146 1.3314 0.6049
C14A C -1.2804(6) 1.3511(4) 0.7145(3)
H9A H -1.3679 1.3978 0.7444
C15A C -1.1252(5) 1.3229(3) 0.7544(2)
C16A C -0.9977(5) 1.2537(3) 0.7100(2)
H10A H -0.8928 1.2329 0.7374
C17A C -1.0891(5) 1.3703(4) 0.8440(2)
O1A O -1.2113(4) 1.4260(3) 0.88302(18)
O2A O -0.9369(3) 1.3489(2) 0.87358(15)
O2A_2 O 0.0631(3) 0.3489(2) -0.12642(15)
O2_2 O -1.0631(3) 1.6511(2) 1.12642(15)
C18A C -0.3798(5) 1.3128(3) 0.3342(2)
C19A C -0.2481(7) 1.3986(4) 0.3629(3)
H11A H -0.1916 1.3984 0.4150
C20A C -0.1993(8) 1.4838(4) 0.3158(3)
H12A H -0.1096 1.5418 0.3359
C21A C -0.2803(6) 1.4851(3) 0.2397(2)
H13A H -0.2457 1.5431 0.2072
C22A C -0.4125(5) 1.4009(3) 0.2112(2)
C23A C -0.4625(5) 1.3159(3) 0.2585(2)
H14A H -0.5543 1.2592 0.2389
C24A C -0.5048(5) 1.4003(3) 0.1299(2)
O3A O -0.4504(3) 1.4690(2) 0.08066(15)
O3_2 O 0.4504(3) 0.5310(2) -0.08066(15)
O3A_2 O 0.5496(3) 0.4690(2) 0.08066(15)
O3_3 O -1.5496(3) 1.5310(2) 0.91934(15)
O3A_3 O -1.4504(3) 1.4690(2) 1.08066(15)
O4A O -0.6382(4) 1.3329(3) 0.11180(19)
O4A_2 O 0.3618(4) 0.3329(3) 0.11180(19)
O4_2 O -1.3618(4) 1.6671(3) 0.88820(19)
O5A O -0.0434(4) 0.7657(3) -0.0216(2)
O5A_2 O -1.0434(4) 1.7657(3) 0.9784(2)
C25A C 0.0825(5) 0.7013(4) -0.0432(3)
H15A H 0.1912 0.7370 -0.0576
O6A O 0.0751(3) 0.5898(2) -0.04743(16)
O6_2 O -1.0751(3) 1.4102(2) 1.04743(16)
O6A_2 O -0.9249(3) 1.5898(2) 0.95257(16)
O7A O -1.4176(4) 1.7377(3) 1.0713(2)
H16A H -1.5245 1.7458 1.0384
H17A H -1.4531 1.7221 1.1250
loop_
_geom_bond_atom_site_label_1
_geom_bond_atom_site_label_2
_geom_bond_site_symmetry_1
_geom_bond_site_symmetry_2
Pr1 O1 1_555 1_555
C1 C2 1_555 1_555
C2 H1 1_555 1_555
C3 C2 1_555 1_555
H2 C3 1_555 1_555
C4 C3 1_555 1_555
C5 C4 1_555 1_555
C6 C5 1_555 1_555
C7 C6 1_555 1_555
H3 C7 1_555 1_555
C8 C7 1_555 1_555
H4 C8 1_555 1_555
C9 C8 1_555 1_555
C10 C1 1_555 1_555
N1 C1 1_555 1_555
H5 N1 1_555 1_555
N2 C6 1_555 1_555
C11 C5 1_555 1_555
C12 C11 1_555 1_555
H7 C12 1_555 1_555
C13 C12 1_555 1_555
H8 C13 1_555 1_555
C14 C13 1_555 1_555
H9 C14 1_555 1_555
C15 C14 1_555 1_555
C16 C11 1_555 1_555
H10 C16 1_555 1_555
C17 C15 1_555 1_555
O1 C17 1_555 1_555
O2 C17 1_555 1_555
C18 C10 1_555 1_555
C19 C18 1_555 1_555
H11 C19 1_555 1_555
C20 C19 1_555 1_555
H12 C20 1_555 1_555
C21 C20 1_555 1_555
H13 C21 1_555 1_555
C22 C21 1_555 1_555
C23 C18 1_555 1_555
H14 C23 1_555 1_555
C24 C22 1_555 1_555
O3 C24 1_555 1_555
O4 C24 1_555 1_555
O5 Pr1 1_555 1_555
C25 O5 1_555 1_555
H15 C25 1_555 1_555
O6 Pr1 1_555 1_555
O7 Pr1 1_555 1_555
H16 O7 1_555 1_555
H17 O7 1_555 1_555
Pr1A O1A 1_555 1_555
Pr1A_2 O2 1_555 1_555
Pr1_2 O3 1_555 1_555
Pr1A_3 O3 1_555 1_555
Pr1_3 O2A 1_555 1_555
Pr1_4 O3A 1_555 1_555
Pr1A_4 O3A 1_555 1_555
C1A C2A 1_555 1_555
C2A H1A 1_555 1_555
C3A C2A 1_555 1_555
H2A C3A 1_555 1_555
C4A C3A 1_555 1_555
C5A C4A 1_555 1_555
C6A C5A 1_555 1_555
C7A C6A 1_555 1_555
H3A C7A 1_555 1_555
C8A C7A 1_555 1_555
H4A C8A 1_555 1_555
C9A C10 1_555 1_555
C10A C9 1_555 1_555
N1A C1A 1_555 1_555
H5A N1A 1_555 1_555
N2A C6A 1_555 1_555
C11A C5A 1_555 1_555
C12A C11A 1_555 1_555
H7A C12A 1_555 1_555
C13A C12A 1_555 1_555
H8A C13A 1_555 1_555
C14A C13A 1_555 1_555
H9A C14A 1_555 1_555
C15A C14A 1_555 1_555
C16A C11A 1_555 1_555
H10A C16A 1_555 1_555
C17A C15A 1_555 1_555
O1A C17A 1_555 1_555
O2A C17A 1_555 1_555
O2A_2 Pr1 1_555 1_555
O2_2 Pr1A 1_555 1_555
C18A C10A 1_555 1_555
C19A C18A 1_555 1_555
H11A C19A 1_555 1_555
C20A C19A 1_555 1_555
H12A C20A 1_555 1_555
C21A C20A 1_555 1_555
H13A C21A 1_555 1_555
C22A C21A 1_555 1_555
C23A C18A 1_555 1_555
H14A C23A 1_555 1_555
C24A C22A 1_555 1_555
O3A C24A 1_555 1_555
O3_2 Pr1 1_555 1_555
O3A_2 Pr1 1_555 1_555
O3_3 Pr1A 1_555 1_555
O3A_3 Pr1A 1_555 1_555
O4A Pr1_4 1_555 1_555
O4A_2 Pr1 1_555 1_555
O4_2 Pr1A 1_555 1_555
O5A Pr1A_2 1_555 1_555
O5A_2 Pr1A 1_555 1_555
C25A O5A 1_555 1_555
H15A C25A 1_555 1_555
O6A Pr1 1_555 1_555
O6_2 Pr1A 1_555 1_555
O6A_2 Pr1A 1_555 1_555
O7A Pr1A 1_555 1_555
H16A O7A 1_555 1_555
H17A O7A 1_555 1_555
C4 N1 1_555 1_555
C9 N2 1_555 1_555
C15 C16 1_555 1_555
C22 C23 1_555 1_555
O4 Pr1A_3 1_555 1_555
C25 O6 1_555 1_555
O6 Pr1A_2 1_555 1_555
Pr1A_2 O6A 1_555 1_555
Pr1_3 O6_2 1_555 1_555
Pr1_3 O6A_2 1_555 1_555
C1A C10A 1_555 1_555
C4A N1A 1_555 1_555
C8A C9A 1_555 1_555
C9A N2A 1_555 1_555
C15A C16A 1_555 1_555
C22A C23A 1_555 1_555
C24A O4A 1_555 1_555
C25A O6A 1_555 1_555

#END
