
#######################################################################
#
#                 Cambridge Crystallographic Data Centre
#                                CCDC 
#
#######################################################################
#
# If this CIF has been generated from an entry in the Cambridge 
# Structural Database, then it will include bibliographic, chemical, 
# crystal, experimental, refinement or atomic coordinate data resulting 
# from the CCDC's data processing and validation procedures.
#
#######################################################################

data_KALQEV
_chemical_formula_moiety         'C8 H14 Cr1 Mn1 N3 O19 3+'
_symmetry_cell_setting           hexagonal
_symmetry_space_group_name_H-M   'P 65 2 2'
_symmetry_Int_Tables_number      179
_space_group_name_Hall           'P 65 2 (0 0 1)'
loop_
_symmetry_equiv_pos_site_id
_symmetry_equiv_pos_as_xyz
1 x,y,z
2 x-y,x,5/6+z
3 -y,x-y,2/3+z
4 -x,-y,1/2+z
5 -x+y,-x,1/3+z
6 y,-x+y,1/6+z
7 -y,-x,1/6-z
8 x-y,-y,-z
9 x,x-y,5/6-z
10 y,x,2/3-z
11 -x+y,y,1/2-z
12 -x,-x+y,1/3-z
_cell_length_a                   19.411(2)
_cell_length_b                   19.411(2)
_cell_length_c                   16.0339(12)
_cell_angle_alpha                90
_cell_angle_beta                 90
_cell_angle_gamma                120
_cell_volume                     5231.97
loop_
_atom_site_label
_atom_site_type_symbol
_atom_site_fract_x
_atom_site_fract_y
_atom_site_fract_z
N1 N 0.0783(3) 0.3708(4) 0.1998(3)
N2 N 0.3281(5) 0.0000 0.0000
N3 N 0.1306(2) 0.2612(5) 0.2500
O15 O 0.0000 -0.0155(11) 0.1667
Mn1 Mn 0.48521(3) 0.51479(3) 0.0833
Cr1 Cr 0.64000(6) 0.83107(4) 0.17485(5)
O1 O 0.62704(18) 0.76978(18) 0.0720(2)
O2 O 0.5523(2) 0.7277(2) 0.2163(2)
O3 O 0.5564(2) 0.64511(19) 0.0236(2)
O4 O 0.4847(2) 0.59972(19) 0.1771(2)
O5 O 0.6343(2) 0.88600(28) 0.2770(2)
O6 O 0.56460(19) 0.86318(25) 0.1305(2)
O7 O 0.6212(2) 0.5833(2) 0.1507(2)
O8 O 0.57355(18) 0.5109(2) -0.0019(3)
O9 O 0.7209(2) 0.8084(2) 0.2191(2)
O10 O 0.7335(2) 0.92890(18) 0.1348(2)
O11 O 0.8510(3) 0.8551(3) 0.2152(3)
O12 O 0.8656(2) 0.9969(3) 0.1534(3)
C1 C 0.5758(2) 0.6966(3) 0.0787(3)
C2 C 0.5330(3) 0.6709(3) 0.1644(3)
C3 C 0.6710(3) 0.5918(3) 0.0995(3)
C4 C 0.6455(3) 0.5523(3) 0.0144(3)
C5 C 0.7929(3) 0.8608(4) 0.2018(3)
C6 C 0.8001(3) 0.9366(3) 0.1579(4)
O3F O 0.35489(19) 0.4436(2) 0.1431(2)
O4F O 0.40028(19) 0.5153(2) -0.0104(2)
O5A O 0.74830(34) 0.6343(2) 0.1103(2)
O6A O 0.70142(31) 0.56460(19) -0.0362(2)
O7F O 0.4167(2) 0.3788(2) 0.0160(2)
O8F O 0.4891(2) 0.42645(18) 0.1686(3)
C3E C 0.5918(3) 0.9208(4) 0.2662(3)
C4E C 0.5523(3) 0.9068(4) 0.1811(3)
loop_
_geom_bond_atom_site_label_1
_geom_bond_atom_site_label_2
_geom_bond_site_symmetry_1
_geom_bond_site_symmetry_2
Mn1 O3 1_555 1_555
Cr1 O1 1_555 1_555
O1 C1 1_555 1_555
O2 Cr1 1_555 1_555
O3 C1 1_555 1_555
O4 Mn1 1_555 1_555
O5 Cr1 1_555 1_555
O6 Cr1 1_555 1_555
O7 Mn1 1_555 1_555
O8 Mn1 1_555 1_555
O9 Cr1 1_555 1_555
O10 Cr1 1_555 1_555
O11 C5 1_555 1_555
O12 C6 1_555 1_555
C1 C2 1_555 1_555
C2 O2 1_555 1_555
C3 O7 1_555 1_555
C4 O8 1_555 1_555
C5 O9 1_555 1_555
C6 O10 1_555 1_555
O3F Mn1 1_555 1_555
O4F Mn1 1_555 1_555
O5A C3 1_555 1_555
O6A C4 1_555 1_555
O7F Mn1 1_555 1_555
O8F Mn1 1_555 1_555
C3E O5 1_555 1_555
C4E O6 1_555 1_555
O4 C2 1_555 1_555
C3 C4 1_555 1_555
C5 C6 1_555 1_555
C3E C4E 1_555 1_555

#END
