
#######################################################################
#
#                 Cambridge Crystallographic Data Centre
#                                CCDC 
#
#######################################################################
#
# If this CIF has been generated from an entry in the Cambridge 
# Structural Database, then it will include bibliographic, chemical, 
# crystal, experimental, refinement or atomic coordinate data resulting 
# from the CCDC's data processing and validation procedures.
#
#######################################################################

data_NEVJOP
_chemical_formula_moiety         '(C54 H44 N8 O20 Zn6 2+)n'
_symmetry_cell_setting           monoclinic
_symmetry_space_group_name_H-M   'P 2/n'
_symmetry_Int_Tables_number      13
_space_group_name_Hall           '-P 2yac'
loop_
_symmetry_equiv_pos_site_id
_symmetry_equiv_pos_as_xyz
1 x,y,z
2 1/2-x,y,1/2-z
3 -x,-y,-z
4 1/2+x,-y,1/2+z
_cell_length_a                   15.7991(12)
_cell_length_b                   11.4257(6)
_cell_length_c                   18.7582(12)
_cell_angle_alpha                90
_cell_angle_beta                 103.367(4)
_cell_angle_gamma                90
_cell_volume                     3294.42
loop_
_atom_site_label
_atom_site_type_symbol
_atom_site_fract_x
_atom_site_fract_y
_atom_site_fract_z
Zn1 Zn 0.578982(19) 0.68356(3) 0.193965(16)
Zn2 Zn 0.773749(19) 0.80838(3) 0.170126(16)
Zn3 Zn 0.582956(18) 1.09088(3) -0.000345(15)
O1 O 0.4350(2) 1.0683(3) 0.15127(14)
O2 O 0.51453(13) 1.20479(16) -0.07389(10)
O3 O 0.45451(13) 1.38014(17) -0.09296(10)
O4 O 0.64041(12) 1.01903(16) 0.09969(10)
O5 O 0.77018(12) 0.99103(17) 0.17200(10)
O6 O 0.87804(13) 1.55106(18) 0.24218(11)
O7 O 0.76215(13) 1.62597(17) 0.16366(11)
O8 O 0.69669(15) 0.79786(19) 0.06180(11)
N1 N 0.58381(14) 1.25067(19) 0.07509(11)
N2 N 1.29582(16) 0.8878(2) 0.03091(13)
N3 N 0.89142(15) 0.8248(2) 0.13143(14)
N4 N 0.46241(16) 0.7020(2) 0.22267(14)
C1 C 0.71241(16) 1.0564(2) 0.13721(12)
C2 C 0.73172(17) 1.1861(2) 0.14186(14)
C3 C 0.81675(18) 1.2161(2) 0.17775(15)
H1 H 0.8579 1.1553 0.1932
C4 C 0.84304(18) 1.3309(2) 0.19149(16)
H2 H 0.9012 1.3488 0.2161
C5 C 0.78297(17) 1.4194(2) 0.16865(13)
C6 C 0.69947(17) 1.3932(2) 0.12995(13)
H3 H 0.6596 1.4550 0.1133
C7 C 0.67270(16) 1.2778(2) 0.11497(12)
C8 C 0.80908(16) 1.5427(2) 0.19198(13)
C9 C 0.53107(18) 1.2132(3) 0.12761(15)
H4 H 0.4952 1.2806 0.1361
H5 H 0.5715 1.1946 0.1750
C10 C 0.47107(18) 1.1088(2) 0.10530(15)
C11 C 0.54125(19) 1.3457(2) 0.02571(15)
C12 C 0.50007(17) 1.3052(2) -0.05164(15)
C13 C 1.2611(2) 0.7831(3) 0.03943(18)
H6 H 1.2941 0.7154 0.0343
C14 C 1.1818(2) 0.7674(3) 0.05493(18)
H7 H 1.1603 0.6908 0.0597
C15 C 1.1322(2) 0.8662(3) 0.06372(17)
C16 C 1.1674(2) 0.9737(3) 0.0553(2)
H8 H 1.1362 1.0429 0.0609
C17 C 1.2476(2) 0.9815(3) 0.03882(19)
H9 H 1.2700 1.0571 0.0327
C18 C 1.04709(19) 0.8531(3) 0.08440(18)
C19 C 0.9946(2) 0.7559(4) 0.0651(2)
H10 H 1.0105 0.6966 0.0352
C20 C 0.9182(2) 0.7454(3) 0.0899(2)
H11 H 0.8835 0.6775 0.0764
C21 C 0.9421(2) 0.9202(3) 0.1479(2)
H12 H 0.9242 0.9793 0.1769
C22 C 1.0180(2) 0.9376(3) 0.1255(2)
H13 H 1.0504 1.0076 0.1383
C23 C 0.4144(2) 0.8002(3) 0.21059(17)
H14 H 0.4387 0.8678 0.1937
C24 C 0.3320(2) 0.8065(3) 0.22169(18)
H15 H 0.3003 0.8778 0.2132
C25 C 0.29515(19) 0.7085(3) 0.24533(18)
C26 C 0.3453(2) 0.6075(4) 0.2594(3)
H16 H 0.3212 0.5383 0.2746
C27 C 0.42860(8) 0.60713(10) 0.25147(7)
H17 H 0.4640 0.5402 0.2661
H18 H 0.4993 1.3794 0.0519
H19 H 0.5819 1.4016 0.0243
O9 O 0.66100(8) 0.81008(10) 0.21680(7)
O10 O 0.46111(8) 1.07168(10) 0.03900(7)
N4A N 0.03759(16) 0.7020(2) 0.27733(14)
C23A C 0.0856(2) 0.8002(3) 0.28941(17)
H14A H 0.0613 0.8678 0.3063
C24A C 0.1680(2) 0.8065(3) 0.27831(18)
H15A H 0.1997 0.8778 0.2868
C25A C 0.20485(19) 0.7085(3) 0.25467(18)
C26A C 0.1547(2) 0.6075(4) 0.2406(3)
H16A H 0.1788 0.5383 0.2254
C27A C 0.07140(8) 0.60713(10) 0.24853(7)
H17A H 0.0360 0.5402 0.2339
Zn1A Zn -0.078982(19) 0.68356(3) 0.306035(16)
Zn2A Zn -0.273749(19) 0.80838(3) 0.329874(16)
Zn3A Zn -0.082956(18) 1.09088(3) 0.500345(15)
O1A O 0.0650(2) 1.0683(3) 0.34873(14)
O2A O -0.01453(13) 1.20479(16) 0.57389(10)
O3A O 0.04549(13) 1.38014(17) 0.59296(10)
O4A O -0.14041(12) 1.01903(16) 0.40031(10)
O5A O -0.27018(12) 0.99103(17) 0.32800(10)
O6A O -0.37804(13) 1.55106(18) 0.25782(11)
O7A O -0.26215(13) 1.62597(17) 0.33634(11)
O8A O -0.19669(15) 0.79786(19) 0.43820(11)
N1A N -0.08381(14) 1.25067(19) 0.42491(11)
N2A N -0.79582(16) 0.8878(2) 0.46909(13)
N3A N -0.39142(15) 0.8248(2) 0.36857(14)
C1A C -0.21241(16) 1.0564(2) 0.36279(12)
C2A C -0.23172(17) 1.1861(2) 0.35814(14)
C3A C -0.31675(18) 1.2161(2) 0.32225(15)
H1A H -0.3579 1.1553 0.3068
C4A C -0.34304(18) 1.3309(2) 0.30851(16)
H2A H -0.4012 1.3488 0.2839
C5A C -0.28297(17) 1.4194(2) 0.33135(13)
C6A C -0.19947(17) 1.3932(2) 0.37005(13)
H3A H -0.1596 1.4550 0.3867
C7A C -0.17270(16) 1.2778(2) 0.38503(12)
C8A C -0.30908(16) 1.5427(2) 0.30802(13)
C9A C -0.03107(18) 1.2132(3) 0.37239(15)
H4A H 0.0048 1.2806 0.3639
H5A H -0.0715 1.1946 0.3250
C10A C 0.02893(18) 1.1088(2) 0.39470(15)
C11A C -0.04125(19) 1.3457(2) 0.47429(15)
C12A C -0.00007(17) 1.3052(2) 0.55164(15)
C13A C -0.7611(2) 0.7831(3) 0.46057(18)
H6A H -0.7941 0.7154 0.4657
C14A C -0.6818(2) 0.7674(3) 0.44507(18)
H7A H -0.6603 0.6908 0.4403
C15A C -0.6322(2) 0.8662(3) 0.43628(17)
C16A C -0.6674(2) 0.9737(3) 0.4447(2)
H8A H -0.6362 1.0429 0.4391
C17A C -0.7476(2) 0.9815(3) 0.46118(19)
H9A H -0.7700 1.0571 0.4673
C18A C -0.54709(19) 0.8531(3) 0.41560(18)
C19A C -0.4946(2) 0.7559(4) 0.4349(2)
H10A H -0.5105 0.6966 0.4648
C20A C -0.4182(2) 0.7454(3) 0.4101(2)
H11A H -0.3835 0.6775 0.4236
C21A C -0.4421(2) 0.9202(3) 0.3521(2)
H12A H -0.4242 0.9793 0.3231
C22A C -0.5180(2) 0.9376(3) 0.3745(2)
H13A H -0.5504 1.0076 0.3617
H18A H 0.0007 1.3794 0.4481
H19A H -0.0819 1.4016 0.4757
O9A O -0.16100(8) 0.81008(10) 0.28320(7)
O10A O 0.03889(8) 1.07168(10) 0.46100(7)
Zn1_2 Zn -0.421018(19) 1.68356(3) 0.193965(16)
Zn1A_2 Zn 0.921018(19) 1.68356(3) 0.306035(16)
Zn1B Zn 0.421018(19) 1.31644(3) -0.193965(16)
Zn1C Zn 0.078982(19) 1.31644(3) 0.693965(16)
Zn2_2 Zn -0.226251(19) 0.80838(3) 0.170126(16)
Zn2_3 Zn 0.773749(19) 1.80838(3) 0.170126(16)
Zn2A_2 Zn -0.273749(19) 1.80838(3) 0.329874(16)
Zn2A_3 Zn 0.726251(19) 0.80838(3) 0.329874(16)
Zn3B Zn 0.417044(18) 0.90912(3) 0.000345(15)
Zn3B_2 Zn 1.417044(18) 0.90912(3) 0.000345(15)
Zn3C Zn -0.917044(18) 0.90912(3) 0.499655(15)
Zn3C_2 Zn 0.082956(18) 0.90912(3) 0.499655(15)
O3B O 0.54549(13) 0.61986(17) 0.09296(10)
O3C O -0.04549(13) 0.61986(17) 0.40704(10)
O6_2 O -0.12196(13) 0.55106(18) 0.24218(11)
O6A_2 O 0.62196(13) 0.55106(18) 0.25782(11)
O7_2 O 0.76215(13) 0.62597(17) 0.16366(11)
O7A_2 O -0.26215(13) 0.62597(17) 0.33634(11)
N2B N 0.70418(16) 1.1122(2) -0.03091(13)
N2C N -0.20418(16) 1.1122(2) 0.53091(13)
O9_2 O -0.33900(8) 0.81008(10) 0.21680(7)
O9A_2 O 0.83900(8) 0.81008(10) 0.28320(7)
O10B O 0.53889(8) 0.92832(10) -0.03900(7)
O10C O -0.03889(8) 0.92832(10) 0.53900(7)
loop_
_geom_bond_atom_site_label_1
_geom_bond_atom_site_label_2
_geom_bond_site_symmetry_1
_geom_bond_site_symmetry_2
Zn1 N4 1_555 1_555
Zn2 O5 1_555 1_555
Zn3 O2 1_555 1_555
O1 C10 1_555 1_555
O2 C12 1_555 1_555
O3 C12 1_555 1_555
O4 Zn3 1_555 1_555
O5 C1 1_555 1_555
O6 C8 1_555 1_555
O7 C8 1_555 1_555
O8 Zn2 1_555 1_555
N1 Zn3 1_555 1_555
N2 C13 1_555 1_555
N3 Zn2 1_555 1_555
N4 C23 1_555 1_555
C1 O4 1_555 1_555
C2 C1 1_555 1_555
C3 C2 1_555 1_555
H1 C3 1_555 1_555
C4 C3 1_555 1_555
H2 C4 1_555 1_555
C5 C4 1_555 1_555
C6 C5 1_555 1_555
H3 C6 1_555 1_555
C7 N1 1_555 1_555
C8 C5 1_555 1_555
C9 N1 1_555 1_555
H4 C9 1_555 1_555
H5 C9 1_555 1_555
C10 C9 1_555 1_555
C11 N1 1_555 1_555
C12 C11 1_555 1_555
C13 H6 1_555 1_555
C14 C13 1_555 1_555
H7 C14 1_555 1_555
C15 C14 1_555 1_555
C16 C15 1_555 1_555
H8 C16 1_555 1_555
C17 N2 1_555 1_555
H9 C17 1_555 1_555
C18 C15 1_555 1_555
C19 C18 1_555 1_555
H10 C19 1_555 1_555
C20 N3 1_555 1_555
H11 C20 1_555 1_555
C21 N3 1_555 1_555
H12 C21 1_555 1_555
C22 C18 1_555 1_555
H13 C22 1_555 1_555
C23 H14 1_555 1_555
C24 C23 1_555 1_555
H15 C24 1_555 1_555
C25 C24 1_555 1_555
C26 C25 1_555 1_555
H16 C26 1_555 1_555
C27 N4 1_555 1_555
H17 C27 1_555 1_555
H18 C11 1_555 1_555
H19 C11 1_555 1_555
O9 Zn1 1_555 1_555
O10 Zn3 1_555 1_555
N4A C23A 1_555 1_555
C23A H14A 1_555 1_555
C24A C23A 1_555 1_555
H15A C24A 1_555 1_555
C25A C25 1_555 1_555
C26A C25A 1_555 1_555
H16A C26A 1_555 1_555
C27A N4A 1_555 1_555
H17A C27A 1_555 1_555
Zn1A N4A 1_555 1_555
Zn2A O5A 1_555 1_555
Zn3A O2A 1_555 1_555
O1A C10A 1_555 1_555
O2A C12A 1_555 1_555
O3A C12A 1_555 1_555
O4A Zn3A 1_555 1_555
O5A C1A 1_555 1_555
O6A C8A 1_555 1_555
O7A C8A 1_555 1_555
O8A Zn2A 1_555 1_555
N1A Zn3A 1_555 1_555
N2A C13A 1_555 1_555
N3A Zn2A 1_555 1_555
C1A O4A 1_555 1_555
C2A C1A 1_555 1_555
C3A C2A 1_555 1_555
H1A C3A 1_555 1_555
C4A C3A 1_555 1_555
H2A C4A 1_555 1_555
C5A C4A 1_555 1_555
C6A C5A 1_555 1_555
H3A C6A 1_555 1_555
C7A N1A 1_555 1_555
C8A C5A 1_555 1_555
C9A N1A 1_555 1_555
H4A C9A 1_555 1_555
H5A C9A 1_555 1_555
C10A C9A 1_555 1_555
C11A N1A 1_555 1_555
C12A C11A 1_555 1_555
C13A H6A 1_555 1_555
C14A C13A 1_555 1_555
H7A C14A 1_555 1_555
C15A C14A 1_555 1_555
C16A C15A 1_555 1_555
H8A C16A 1_555 1_555
C17A N2A 1_555 1_555
H9A C17A 1_555 1_555
C18A C15A 1_555 1_555
C19A C18A 1_555 1_555
H10A C19A 1_555 1_555
C20A N3A 1_555 1_555
H11A C20A 1_555 1_555
C21A N3A 1_555 1_555
H12A C21A 1_555 1_555
C22A C18A 1_555 1_555
H13A C22A 1_555 1_555
H18A C11A 1_555 1_555
H19A C11A 1_555 1_555
O9A Zn1A 1_555 1_555
O10A Zn3A 1_555 1_555
Zn1_2 O6A 1_555 1_555
Zn1A_2 O6 1_555 1_555
Zn1B O3 1_555 1_555
Zn1C O3A 1_555 1_555
Zn2_2 O9A 1_555 1_555
Zn2_3 O7 1_555 1_555
Zn2A_2 O7A 1_555 1_555
Zn2A_3 O9 1_555 1_555
Zn3B O10 1_555 1_555
Zn3B_2 N2 1_555 1_555
Zn3C N2A 1_555 1_555
Zn3C_2 O10A 1_555 1_555
O3B Zn1 1_555 1_555
O3C Zn1A 1_555 1_555
O6_2 Zn1A 1_555 1_555
O6A_2 Zn1 1_555 1_555
O7_2 Zn2 1_555 1_555
O7A_2 Zn2A 1_555 1_555
N2B Zn3 1_555 1_555
N2C Zn3A 1_555 1_555
O9_2 Zn2A 1_555 1_555
O9A_2 Zn2 1_555 1_555
O10B Zn3 1_555 1_555
O10C Zn3A 1_555 1_555
Zn2 O9 1_555 1_555
C2 C7 1_555 1_555
C6 C7 1_555 1_555
C10 O10 1_555 1_555
C16 C17 1_555 1_555
C19 C20 1_555 1_555
C21 C22 1_555 1_555
C26 C27 1_555 1_555
C24A C25A 1_555 1_555
C26A C27A 1_555 1_555
Zn2A O9A 1_555 1_555
C2A C7A 1_555 1_555
C6A C7A 1_555 1_555
C10A O10A 1_555 1_555
C16A C17A 1_555 1_555
C19A C20A 1_555 1_555
C21A C22A 1_555 1_555
Zn2_2 O9_2 1_555 1_555
Zn2A_3 O9A_2 1_555 1_555
Zn3B O10B 1_555 1_555
Zn3C_2 O10C 1_555 1_555

#END
