
#######################################################################
#
#                 Cambridge Crystallographic Data Centre
#                                CCDC 
#
#######################################################################
#
# If this CIF has been generated from an entry in the Cambridge 
# Structural Database, then it will include bibliographic, chemical, 
# crystal, experimental, refinement or atomic coordinate data resulting 
# from the CCDC's data processing and validation procedures.
#
#######################################################################

data_OTAVUB
_chemical_formula_moiety         '(C31 H28 Eu1 N2 O10)n'
_symmetry_cell_setting           orthorhombic
_symmetry_space_group_name_H-M   'P c c n'
_symmetry_Int_Tables_number      56
_space_group_name_Hall           '-P 2ab 2ac'
loop_
_symmetry_equiv_pos_site_id
_symmetry_equiv_pos_as_xyz
1 x,y,z
2 1/2-x,1/2-y,z
3 -x,1/2+y,1/2-z
4 1/2+x,-y,1/2-z
5 -x,-y,-z
6 1/2+x,1/2+y,-z
7 x,1/2-y,1/2+z
8 1/2-x,y,1/2+z
_cell_length_a                   17.7412(8)
_cell_length_b                   19.8116(7)
_cell_length_c                   10.0546(3)
_cell_angle_alpha                90
_cell_angle_beta                 90
_cell_angle_gamma                90
_cell_volume                     3534.01
loop_
_atom_site_label
_atom_site_type_symbol
_atom_site_fract_x
_atom_site_fract_y
_atom_site_fract_z
_atom_site_U_iso_or_equiv
_atom_site_thermal_displace_type
Eu1 Eu 0.2500 0.2500 0.468408(19) 0.0231 Uani
O1 O 0.19754(15) 0.15958(12) 0.3429(2) 0.0426 Uani
O2 O 0.14386(14) 0.30597(11) 0.3508(2) 0.0343 Uani
N1 N 0.10342(15) 0.35915(13) 0.3907(3) 0.0290 Uani
C1 C 0.20427(19) 0.13590(16) 0.2280(3) 0.0281 Uani
C2 C 0.1923(2) 0.06180(16) 0.2064(3) 0.0316 Uani
C3 C 0.1412(3) -0.0457(2) 0.2683(5) 0.0587 Uani
H2 H 0.1143 -0.0721 0.3284 0.0700 Uiso
C4 C 0.1540(2) 0.02241(19) 0.2958(4) 0.0440 Uani
H3 H 0.1365 0.0411 0.3748 0.0530 Uiso
C5 C 0.2191(2) 0.03255(19) 0.0888(4) 0.0443 Uani
H4 H 0.2445 0.0589 0.0267 0.0530 Uiso
C6 C 0.2079(3) -0.0353(2) 0.0646(5) 0.0600 Uani
H5 H 0.2275 -0.0549 -0.0120 0.0720 Uiso
C7 C 0.1680(3) -0.0738(2) 0.1536(5) 0.0620 Uani
H6 H 0.1592 -0.1192 0.1357 0.0740 Uiso
C15 C 0.02103(19) 0.47020(16) 0.4761(3) 0.0298 Uani
C16 C 0.0624(2) 0.35512(18) 0.5029(3) 0.0373 Uani
H12 H 0.0614 0.3151 0.5513 0.0450 Uiso
C17 C 0.1021(2) 0.41571(18) 0.3174(3) 0.0383 Uani
H13 H 0.1292 0.4175 0.2382 0.0460 Uiso
C18 C 0.0616(2) 0.47069(18) 0.3577(4) 0.0413 Uani
H14 H 0.0612 0.5092 0.3049 0.0500 Uiso
C19 C 0.0221(2) 0.41008(18) 0.5462(4) 0.0387 Uani
H15 H -0.0053 0.4068 0.6249 0.0460 Uiso
O5 O 0.13242(15) 0.21566(14) 0.5799(3) 0.0341 Uani
O6 O 0.21970(15) 0.17027(12) 0.1281(2) 0.0425 Uani
H16 H 0.132(2) 0.2139(19) 0.658(4) 0.0380 Uiso
H17 H 0.104(2) 0.1843(19) 0.553(4) 0.0370 Uiso
Eu1D Eu -0.2500 0.7500 0.531592(19) 0.0231 Uani
Eu1F Eu 0.2500 0.2500 -0.031592(19) 0.0231 Uani
O1A O 0.30246(15) 0.34042(12) 0.3429(2) 0.0426 Uani
O2D O -0.14386(14) 0.69403(11) 0.6492(2) 0.0343 Uani
O2A O 0.35614(14) 0.19403(11) 0.3508(2) 0.0343 Uani
N1D N -0.10342(15) 0.64085(13) 0.6093(3) 0.0290 Uani
C1A C 0.29573(19) 0.36410(16) 0.2280(3) 0.0281 Uani
C2A C 0.3077(2) 0.43820(16) 0.2064(3) 0.0316 Uani
C3A C 0.3588(3) 0.5457(2) 0.2683(5) 0.0587 Uani
H2A H 0.3857 0.5721 0.3284 0.0700 Uiso
C4A C 0.3460(2) 0.47759(19) 0.2958(4) 0.0440 Uani
H3A H 0.3635 0.4589 0.3748 0.0530 Uiso
C5A C 0.2809(2) 0.46745(19) 0.0888(4) 0.0443 Uani
H4A H 0.2555 0.4411 0.0267 0.0530 Uiso
C6A C 0.2921(3) 0.5353(2) 0.0646(5) 0.0600 Uani
H5A H 0.2725 0.5549 -0.0120 0.0720 Uiso
C7A C 0.3320(3) 0.5738(2) 0.1536(5) 0.0620 Uani
H6A H 0.3408 0.6192 0.1357 0.0740 Uiso
C15D C -0.02103(19) 0.52980(16) 0.5239(3) 0.0298 Uani
C16D C -0.0624(2) 0.64488(18) 0.4971(3) 0.0373 Uani
H12D H -0.0614 0.6849 0.4487 0.0450 Uiso
C17D C -0.1021(2) 0.58429(18) 0.6826(3) 0.0383 Uani
H13D H -0.1292 0.5825 0.7618 0.0460 Uiso
C18D C -0.0616(2) 0.52931(18) 0.6423(4) 0.0413 Uani
H14D H -0.0612 0.4908 0.6951 0.0500 Uiso
C19D C -0.0221(2) 0.58992(18) 0.4538(4) 0.0387 Uani
H15D H 0.0053 0.5932 0.3751 0.0460 Uiso
O5A O 0.36758(15) 0.28434(14) 0.5799(3) 0.0341 Uani
O6A O 0.28030(15) 0.32973(12) 0.1281(2) 0.0425 Uani
O6F O 0.21970(15) 0.32973(12) 0.6281(2) 0.0425 Uani
O6G O 0.28030(15) 0.17027(12) 0.6281(2) 0.0425 Uani
H16A H 0.368(2) 0.2861(19) 0.658(4) 0.0380 Uiso
H17A H 0.396(2) 0.3157(19) 0.553(4) 0.0370 Uiso
O3 O 0.96143(17) 0.03968(14) 0.4343(3) 0.0591 Uani
H1 H 0.9855 0.0153 0.4848 0.0890 Uiso
O4 O 1.0361(2) 0.11784(16) 0.5192(3) 0.0691 Uani
C8 C 0.9847(3) 0.1006(2) 0.4454(4) 0.0473 Uani
C9 C 0.9451(2) 0.1507(2) 0.3580(4) 0.0480 Uani
C10 C 0.9811(3) 0.2099(2) 0.3214(4) 0.0573 Uani
H7 H 1.0287 0.2195 0.3552 0.0690 Uiso
C11 C 0.8386(3) 0.1830(3) 0.2243(7) 0.0933 Uani
H8 H 0.7903 0.1744 0.1928 0.1120 Uiso
C12 C 0.8731(3) 0.1378(2) 0.3084(5) 0.0673 Uani
H9 H 0.8483 0.0983 0.3325 0.0810 Uiso
C13 C 0.9473(3) 0.2547(3) 0.2354(5) 0.0710 Uani
H10 H 0.9722 0.2939 0.2101 0.0850 Uiso
C14 C 0.8759(3) 0.2410(3) 0.1868(6) 0.0883 Uani
H11 H 0.8530 0.2711 0.1285 0.1060 Uiso
loop_
_atom_site_aniso_label
_atom_site_aniso_U_11
_atom_site_aniso_U_22
_atom_site_aniso_U_33
_atom_site_aniso_U_23
_atom_site_aniso_U_13
_atom_site_aniso_U_12
Eu1 0.03197(13) 0.01912(11) 0.01824(11) 0.000 0.000 0.00210(13)
O1 0.0510(17) 0.0373(14) 0.0395(14) -0.0161(12) 0.0028(13) -0.0076(13)
O2 0.0422(15) 0.0316(13) 0.0291(12) -0.0016(11) 0.0003(11) 0.0164(12)
N1 0.0322(17) 0.0287(16) 0.0262(15) -0.0016(12) -0.0026(12) 0.0059(13)
C1 0.0265(19) 0.0272(18) 0.0307(17) 0.0013(16) -0.0012(15) -0.0015(15)
C2 0.037(2) 0.0253(18) 0.0325(19) 0.0009(15) -0.0020(16) -0.0025(16)
C3 0.075(3) 0.034(2) 0.067(3) 0.009(2) 0.005(3) -0.013(2)
C4 0.052(3) 0.036(2) 0.044(2) 0.0031(17) 0.0044(19) -0.0039(19)
C5 0.055(3) 0.035(2) 0.043(2) -0.0083(18) 0.0012(19) -0.0030(18)
C6 0.070(3) 0.048(3) 0.062(3) -0.019(2) 0.004(2) 0.005(2)
C7 0.072(3) 0.029(2) 0.085(3) -0.008(2) -0.008(3) -0.002(2)
C15 0.0299(19) 0.0319(19) 0.0276(17) -0.0008(15) -0.0022(15) 0.0041(15)
C16 0.041(2) 0.030(2) 0.041(2) 0.0105(16) 0.0081(17) 0.0067(17)
C17 0.047(2) 0.038(2) 0.030(2) 0.0062(15) 0.0101(16) 0.0085(18)
C18 0.058(3) 0.031(2) 0.035(2) 0.0077(16) 0.0080(19) 0.0134(18)
C19 0.042(2) 0.040(2) 0.034(2) 0.0068(16) 0.0123(17) 0.0097(18)
O5 0.0406(16) 0.0358(15) 0.0259(14) 0.0015(12) 0.0000(12) -0.0085(12)
O6 0.0524(17) 0.0349(14) 0.0403(15) 0.0159(11) 0.0041(12) -0.0032(12)
Eu1D 0.03197 0.01912 0.01824 0 0 0.0021
Eu1F 0.03197 0.01912 0.01824 0 0 -0.0021
O1A 0.051 0.0373 0.0395 0.0161 -0.0028 -0.0076
O2D 0.0422 0.0316 0.0291 -0.0016 0.0003 0.0164
O2A 0.0422 0.0316 0.0291 0.0016 -0.0003 0.0164
N1D 0.0322 0.0287 0.0262 -0.0016 -0.0026 0.0059
C1A 0.0265 0.0272 0.0307 -0.0013 0.0012 -0.0015
C2A 0.037 0.0253 0.0325 -0.0009 0.002 -0.0025
C3A 0.075 0.034 0.067 -0.009 -0.005 -0.013
C4A 0.052 0.036 0.044 -0.0031 -0.0044 -0.0039
C5A 0.055 0.035 0.043 0.0083 -0.0012 -0.003
C6A 0.07 0.048 0.062 0.019 -0.004 0.005
C7A 0.072 0.029 0.085 0.008 0.008 -0.002
C15D 0.0299 0.0319 0.0276 -0.0008 -0.0022 0.0041
C16D 0.041 0.03 0.041 0.0105 0.0081 0.0067
C17D 0.047 0.038 0.03 0.0062 0.0101 0.0085
C18D 0.058 0.031 0.035 0.0077 0.008 0.0134
C19D 0.042 0.04 0.034 0.0068 0.0123 0.0097
O5A 0.0406 0.0358 0.0259 -0.0015 0 -0.0085
O6A 0.0524 0.0349 0.0403 -0.0159 -0.0041 -0.0032
O6F 0.0524 0.0349 0.0403 -0.0159 0.0041 0.0032
O6G 0.0524 0.0349 0.0403 0.0159 -0.0041 0.0032
O3 0.071(2) 0.0442(17) 0.0621(19) -0.0048(14) -0.0126(16) -0.0187(15)
O4 0.090(3) 0.0563(19) 0.061(2) -0.0020(16) -0.0202(18) -0.0324(18)
C8 0.059(3) 0.049(3) 0.034(2) -0.0127(18) 0.0120(19) -0.018(2)
C9 0.051(3) 0.046(2) 0.047(2) -0.012(2) 0.012(2) -0.008(2)
C10 0.063(3) 0.051(3) 0.058(3) -0.005(2) 0.007(2) -0.007(2)
C11 0.051(4) 0.079(4) 0.150(6) 0.004(4) -0.010(3) 0.006(3)
C12 0.050(3) 0.054(3) 0.098(4) -0.009(3) 0.011(3) -0.005(2)
C13 0.073(3) 0.055(3) 0.085(3) 0.007(3) 0.012(3) -0.007(3)
C14 0.076(4) 0.074(4) 0.115(5) 0.017(4) -0.002(3) 0.017(4)
loop_
_geom_bond_atom_site_label_1
_geom_bond_atom_site_label_2
_geom_bond_site_symmetry_1
_geom_bond_site_symmetry_2
Eu1 O1 1_555 1_555
O1 C1 1_555 1_555
O2 Eu1 1_555 1_555
O3 H1 1_555 1_555
O4 C8 1_555 1_555
N1 O2 1_555 1_555
C1 C2 1_555 1_555
C2 C4 1_555 1_555
C3 H2 1_555 1_555
C4 C3 1_555 1_555
H3 C4 1_555 1_555
C5 C2 1_555 1_555
H4 C5 1_555 1_555
C6 C5 1_555 1_555
H5 C6 1_555 1_555
C7 C3 1_555 1_555
H6 C7 1_555 1_555
C8 O3 1_555 1_555
C9 C8 1_555 1_555
C10 C9 1_555 1_555
H7 C10 1_555 1_555
C11 H8 1_555 1_555
C12 C9 1_555 1_555
H9 C12 1_555 1_555
C13 C10 1_555 1_555
H10 C13 1_555 1_555
C14 C11 1_555 1_555
H11 C14 1_555 1_555
C15 C18 1_555 1_555
C16 N1 1_555 1_555
H12 C16 1_555 1_555
C17 N1 1_555 1_555
H13 C17 1_555 1_555
C18 C17 1_555 1_555
H14 C18 1_555 1_555
C19 C15 1_555 1_555
H15 C19 1_555 1_555
O5 Eu1 1_555 1_555
O6 C1 1_555 1_555
H16 O5 1_555 1_555
H17 O5 1_555 1_555
Eu1D O2D 1_555 1_555
Eu1F O6 1_555 1_555
O1A Eu1 1_555 1_555
O2D N1D 1_555 1_555
O2A Eu1 1_555 1_555
N1D C16D 1_555 1_555
C1A O1A 1_555 1_555
C2A C1A 1_555 1_555
C3A H2A 1_555 1_555
C4A C2A 1_555 1_555
H3A C4A 1_555 1_555
C5A C2A 1_555 1_555
H4A C5A 1_555 1_555
C6A C5A 1_555 1_555
H5A C6A 1_555 1_555
C7A C3A 1_555 1_555
H6A C7A 1_555 1_555
C15D C15 1_555 1_555
C16D H12D 1_555 1_555
C17D N1D 1_555 1_555
H13D C17D 1_555 1_555
C18D C15D 1_555 1_555
H14D C18D 1_555 1_555
C19D C15D 1_555 1_555
H15D C19D 1_555 1_555
O5A Eu1 1_555 1_555
O6A Eu1F 1_555 1_555
O6F Eu1 1_555 1_555
O6G Eu1 1_555 1_555
H16A O5A 1_555 1_555
H17A O5A 1_555 1_555
C6 C7 1_555 1_555
C11 C12 1_555 1_555
C13 C14 1_555 1_555
C16 C19 1_555 1_555
C1A O6A 1_555 1_555
C3A C4A 1_555 1_555
C6A C7A 1_555 1_555
C16D C19D 1_555 1_555
C17D C18D 1_555 1_555

#END
