
#######################################################################
#
#                 Cambridge Crystallographic Data Centre
#                                CCDC 
#
#######################################################################
#
# If this CIF has been generated from an entry in the Cambridge 
# Structural Database, then it will include bibliographic, chemical, 
# crystal, experimental, refinement or atomic coordinate data resulting 
# from the CCDC's data processing and validation procedures.
#
#######################################################################

data_OTAVAH
_chemical_formula_moiety         '(C31 H28 Gd1 N2 O10)n'
_symmetry_cell_setting           orthorhombic
_symmetry_space_group_name_H-M   'P n a a'
_symmetry_Int_Tables_number      56
_space_group_name_Hall           '-P 2ac 2bc'
loop_
_symmetry_equiv_pos_site_id
_symmetry_equiv_pos_as_xyz
1 x,y,z
2 1/2-x,-y,1/2+z
3 x,1/2-y,1/2-z
4 1/2-x,1/2+y,-z
5 -x,-y,-z
6 1/2+x,y,1/2-z
7 -x,1/2+y,1/2+z
8 1/2+x,1/2-y,z
_cell_length_a                   10.040
_cell_length_b                   17.788
_cell_length_c                   19.786
_cell_angle_alpha                90
_cell_angle_beta                 90
_cell_angle_gamma                90
_cell_volume                     3533.61
loop_
_atom_site_label
_atom_site_type_symbol
_atom_site_fract_x
_atom_site_fract_y
_atom_site_fract_z
_atom_site_U_iso_or_equiv
_atom_site_thermal_displace_type
C1 C 0.7701(5) 0.7956(3) 0.6369(3) 0.0340 Uani
O1 O 0.6475(3) 0.8551(2) 0.80575(17) 0.0408 Uani
O2 O 0.6550(4) 0.8018(2) 0.65915(17) 0.0453 Uani
C2 C 0.5235(6) 0.9786(3) 0.9692(3) 0.0443 Uani
O3 O 0.8703(4) 0.7802(2) 0.67189(18) 0.0457 Uani
N1 N 0.6070(5) 0.8974(3) 0.8585(2) 0.0447 Uani
C3 C 0.7939(5) 0.8070(3) 0.5618(3) 0.0337 Uani
C4 C 0.7300(7) 0.8583(4) 0.4546(3) 0.0583 Uani
H1 H 0.6698 0.8851 0.4283 0.0700 Uiso
C5 C 0.6823(6) 0.8982(4) 0.9165(3) 0.0523 Uani
H2 H 0.7614 0.8710 0.9185 0.0630 Uiso
C6 C 0.6421(7) 0.9378(3) 0.9700(3) 0.0553 Uani
H3 H 0.6945 0.9382 1.0088 0.0660 Uiso
C7 C 0.7028(6) 0.8458(3) 0.5223(3) 0.0457 Uani
H4 H 0.6239 0.8634 0.5411 0.0550 Uiso
C8 C 0.9349(7) 0.7930(4) 0.4646(3) 0.0603 Uani
H5 H 1.0129 0.7749 0.4451 0.0720 Uiso
C9 C 0.9102(6) 0.7809(3) 0.5331(3) 0.0450 Uani
H6 H 0.9721 0.7552 0.5594 0.0540 Uiso
C10 C 0.8447(8) 0.8314(4) 0.4259(3) 0.0657 Uani
H7 H 0.8613 0.8393 0.3802 0.0790 Uiso
Gd1 Gd 0.53047(3) 0.7500 0.7500 0.0304 Uani
C15 C 0.4546(6) 0.9784(3) 0.9099(3) 0.0513 Uani
H10 H 0.3768 1.0066 0.9064 0.0620 Uiso
C16 C 0.4974(6) 0.9374(3) 0.8550(3) 0.0510 Uani
H11 H 0.4483 0.9381 0.8151 0.0610 Uiso
O6 O 0.4189(5) 0.8664(3) 0.7156(2) 0.0423 Uani
H15 H 0.325(8) 0.868(4) 0.708(4) 0.0900 Uiso
H16 H 0.440(5) 0.886(3) 0.690(2) 0.0130 Uiso
C1B C 0.7701(5) 0.7044(3) 0.8631(3) 0.0340 Uani
O1D O 0.3525(3) 1.1449(2) 1.19425(17) 0.0408 Uani
O1B O 0.6475(3) 0.6449(2) 0.69425(17) 0.0408 Uani
O2B O 0.6550(4) 0.6982(2) 0.84085(17) 0.0453 Uani
C2D C 0.4765(6) 1.0214(3) 1.0308(3) 0.0443 Uani
O3B O 0.8703(4) 0.7198(2) 0.82811(18) 0.0457 Uani
O3E O 0.3703(4) 0.7802(2) 0.82811(18) 0.0457 Uani
O3G O 0.3703(4) 0.7198(2) 0.67189(18) 0.0457 Uani
N1D N 0.3930(5) 1.1026(3) 1.1415(2) 0.0447 Uani
C3B C 0.7939(5) 0.6930(3) 0.9382(3) 0.0337 Uani
C4B C 0.7300(7) 0.6417(4) 1.0454(3) 0.0583 Uani
H1B H 0.6698 0.6149 1.0717 0.0700 Uiso
C5D C 0.3177(6) 1.1018(4) 1.0835(3) 0.0523 Uani
H2D H 0.2386 1.1290 1.0815 0.0630 Uiso
C6D C 0.3579(7) 1.0622(3) 1.0300(3) 0.0553 Uani
H3D H 0.3055 1.0618 0.9912 0.0660 Uiso
C7B C 0.7028(6) 0.6542(3) 0.9777(3) 0.0457 Uani
H4B H 0.6239 0.6366 0.9589 0.0550 Uiso
C8B C 0.9349(7) 0.7070(4) 1.0354(3) 0.0603 Uani
H5B H 1.0129 0.7251 1.0549 0.0720 Uiso
C9B C 0.9102(6) 0.7191(3) 0.9669(3) 0.0450 Uani
H6B H 0.9721 0.7448 0.9406 0.0540 Uiso
C10B C 0.8447(8) 0.6686(4) 1.0741(3) 0.0657 Uani
H7B H 0.8613 0.6607 1.1198 0.0790 Uiso
Gd1E Gd 1.03047(3) 0.7500 0.7500 0.0304 Uani
Gd1D Gd 0.46953(3) 1.2500 1.2500 0.0304 Uani
C15D C 0.5454(6) 1.0216(3) 1.0901(3) 0.0513 Uani
H10D H 0.6232 0.9934 1.0936 0.0620 Uiso
C16D C 0.5026(6) 1.0626(3) 1.1450(3) 0.0510 Uani
H11D H 0.5517 1.0619 1.1849 0.0610 Uiso
O6B O 0.4189(5) 0.6336(3) 0.7844(2) 0.0423 Uani
H15B H 0.325(8) 0.632(4) 0.792(4) 0.0900 Uiso
H16B H 0.440(5) 0.614(3) 0.810(2) 0.0130 Uiso
O4 O 1.0179(5) 0.4639(3) 0.3815(2) 0.0760 Uani
C11 C 0.8551(7) 0.5551(3) 0.3493(3) 0.0537 Uani
C12 C 0.9437(6) 0.5156(4) 0.3990(3) 0.0560 Uani
O5 O 0.9343(4) 0.5381(3) 0.4613(2) 0.0653 Uani
C13 C 0.7344(8) 0.5527(5) 0.2457(4) 0.0760 Uani
H8 H 0.7098 0.5276 0.2065 0.0910 Uiso
C14 C 0.8195(7) 0.5190(4) 0.2901(3) 0.0640 Uani
H9 H 0.8536 0.4716 0.2806 0.0770 Uiso
C17 C 0.8068(8) 0.6262(4) 0.3620(4) 0.0773 Uani
H12 H 0.8313 0.6509 0.4015 0.0930 Uiso
C18 C 0.6842(10) 0.6238(5) 0.2583(4) 0.0937 Uani
H13 H 0.6256 0.6463 0.2281 0.1120 Uiso
C19 C 0.7229(10) 0.6609(5) 0.3171(5) 0.1000 Uani
H14 H 0.6919 0.7091 0.3259 0.1200 Uiso
loop_
_atom_site_aniso_label
_atom_site_aniso_U_11
_atom_site_aniso_U_22
_atom_site_aniso_U_33
_atom_site_aniso_U_23
_atom_site_aniso_U_13
_atom_site_aniso_U_12
C1 0.035(3) 0.033(3) 0.034(3) 0.000(2) -0.002(3) -0.003(2)
O1 0.029(2) 0.057(2) 0.0363(19) -0.0170(18) 0.0004(16) 0.0005(18)
O2 0.033(2) 0.063(3) 0.040(2) 0.0124(19) 0.0118(18) 0.001(2)
C2 0.040(4) 0.050(4) 0.043(3) -0.006(3) 0.004(3) 0.002(3)
O3 0.034(3) 0.066(2) 0.037(2) 0.0005(18) -0.0113(17) 0.0047(18)
N1 0.034(3) 0.053(3) 0.047(3) 0.001(2) 0.002(2) -0.003(2)
C3 0.027(3) 0.043(3) 0.031(3) -0.001(2) -0.002(2) -0.005(2)
C4 0.062(5) 0.074(5) 0.039(4) 0.014(3) -0.011(3) 0.003(4)
C5 0.039(4) 0.070(4) 0.048(4) -0.005(3) -0.002(3) 0.005(3)
C6 0.051(4) 0.074(4) 0.041(3) -0.010(3) -0.010(3) 0.008(3)
C7 0.037(4) 0.058(4) 0.042(3) 0.003(3) -0.001(2) 0.001(3)
C8 0.056(5) 0.073(5) 0.052(4) -0.007(4) 0.020(3) 0.008(4)
C9 0.037(4) 0.058(3) 0.040(3) -0.002(3) 0.001(3) 0.007(3)
C10 0.076(5) 0.085(5) 0.036(3) 0.001(3) 0.011(4) -0.002(4)
Gd1 0.0214(2) 0.0459(2) 0.02390(19) -0.00052(19) 0.000 0.000
C15 0.055(4) 0.051(4) 0.048(4) -0.013(3) -0.011(3) 0.018(3)
C16 0.046(4) 0.060(4) 0.047(4) -0.003(3) -0.007(3) 0.003(3)
O6 0.031(3) 0.054(3) 0.042(3) 0.011(2) 0.001(2) 0.000(2)
C1B 0.035 0.033 0.034 0 0.002 0.003
O1D 0.029 0.057 0.0363 -0.017 0.0004 0.0005
O1B 0.029 0.057 0.0363 -0.017 -0.0004 -0.0005
O2B 0.033 0.063 0.04 0.0124 -0.0118 -0.001
C2D 0.04 0.05 0.043 -0.006 0.004 0.002
O3B 0.034 0.066 0.037 0.0005 0.0113 -0.0047
O3E 0.034 0.066 0.037 -0.0005 0.0113 0.0047
O3G 0.034 0.066 0.037 -0.0005 -0.0113 -0.0047
N1D 0.034 0.053 0.047 0.001 0.002 -0.003
C3B 0.027 0.043 0.031 -0.001 0.002 0.005
C4B 0.062 0.074 0.039 0.014 0.011 -0.003
C5D 0.039 0.07 0.048 -0.005 -0.002 0.005
C6D 0.051 0.074 0.041 -0.01 -0.01 0.008
C7B 0.037 0.058 0.042 0.003 0.001 -0.001
C8B 0.056 0.073 0.052 -0.007 -0.02 -0.008
C9B 0.037 0.058 0.04 -0.002 -0.001 -0.007
C10B 0.076 0.085 0.036 0.001 -0.011 0.002
Gd1E 0.0214 0.0459 0.0239 0.00052 0 0
Gd1D 0.0214 0.0459 0.0239 -0.00052 0 0
C15D 0.055 0.051 0.048 -0.013 -0.011 0.018
C16D 0.046 0.06 0.047 -0.003 -0.007 0.003
O6B 0.031 0.054 0.042 0.011 -0.001 0
O4 0.060(3) 0.098(4) 0.070(3) -0.030(3) 0.004(2) 0.018(3)
C11 0.056(4) 0.054(4) 0.051(4) -0.006(3) 0.010(3) -0.012(3)
C12 0.040(4) 0.063(4) 0.065(5) -0.019(4) 0.013(3) -0.011(3)
O5 0.065(3) 0.079(3) 0.052(3) -0.024(2) 0.008(2) 0.006(2)
C13 0.087(6) 0.081(5) 0.060(5) -0.007(4) -0.006(4) -0.006(4)
C14 0.062(5) 0.070(5) 0.060(5) -0.006(4) 0.007(4) -0.006(4)
C17 0.102(7) 0.066(5) 0.064(5) -0.005(4) 0.001(4) -0.008(4)
C18 0.118(8) 0.085(6) 0.078(6) 0.018(5) -0.017(5) 0.004(5)
C19 0.156(9) 0.061(5) 0.083(7) 0.009(5) 0.001(6) 0.014(5)
loop_
_geom_bond_atom_site_label_1
_geom_bond_atom_site_label_2
_geom_bond_site_symmetry_1
_geom_bond_site_symmetry_2
C1 O2 1_555 1_555
O1 N1 1_555 1_555
O2 Gd1 1_555 1_555
C2 C6 1_555 1_555
O3 C1 1_555 1_555
N1 C5 1_555 1_555
C3 C1 1_555 1_555
C4 H1 1_555 1_555
C5 H2 1_555 1_555
C6 C5 1_555 1_555
H3 C6 1_555 1_555
C7 C3 1_555 1_555
H4 C7 1_555 1_555
C8 H5 1_555 1_555
C9 C3 1_555 1_555
H6 C9 1_555 1_555
C10 C4 1_555 1_555
H7 C10 1_555 1_555
O4 C12 1_555 1_555
C11 C12 1_555 1_555
C12 O5 1_555 1_555
C13 H8 1_555 1_555
C14 C11 1_555 1_555
H9 C14 1_555 1_555
Gd1 O1 1_555 1_555
C15 C2 1_555 1_555
H10 C15 1_555 1_555
C16 N1 1_555 1_555
H11 C16 1_555 1_555
O6 Gd1 1_555 1_555
C17 C11 1_555 1_555
H12 C17 1_555 1_555
C18 C13 1_555 1_555
H13 C18 1_555 1_555
C19 C17 1_555 1_555
H14 C19 1_555 1_555
H15 O6 1_555 1_555
H16 O6 1_555 1_555
C1B O2B 1_555 1_555
O1D N1D 1_555 1_555
O1B Gd1 1_555 1_555
O2B Gd1 1_555 1_555
C2D C2 1_555 1_555
O3B C1B 1_555 1_555
O3E Gd1 1_555 1_555
O3G Gd1 1_555 1_555
N1D C5D 1_555 1_555
C3B C1B 1_555 1_555
C4B H1B 1_555 1_555
C5D H2D 1_555 1_555
C6D C2D 1_555 1_555
H3D C6D 1_555 1_555
C7B C3B 1_555 1_555
H4B C7B 1_555 1_555
C8B H5B 1_555 1_555
C9B C3B 1_555 1_555
H6B C9B 1_555 1_555
C10B C4B 1_555 1_555
H7B C10B 1_555 1_555
Gd1E O3 1_555 1_555
Gd1D O1D 1_555 1_555
C15D C2D 1_555 1_555
H10D C15D 1_555 1_555
C16D N1D 1_555 1_555
H11D C16D 1_555 1_555
O6B Gd1 1_555 1_555
H15B O6B 1_555 1_555
H16B O6B 1_555 1_555
C4 C7 1_555 1_555
C8 C9 1_555 1_555
C8 C10 1_555 1_555
C13 C14 1_555 1_555
C15 C16 1_555 1_555
C18 C19 1_555 1_555
O3B Gd1E 1_555 1_555
C4B C7B 1_555 1_555
C5D C6D 1_555 1_555
C8B C9B 1_555 1_555
C8B C10B 1_555 1_555
C15D C16D 1_555 1_555

#END
