
#######################################################################
#
#                 Cambridge Crystallographic Data Centre
#                                CCDC 
#
#######################################################################
#
# If this CIF has been generated from an entry in the Cambridge 
# Structural Database, then it will include bibliographic, chemical, 
# crystal, experimental, refinement or atomic coordinate data resulting 
# from the CCDC's data processing and validation procedures.
#
#######################################################################

data_OTAVOV
_chemical_formula_moiety         '(C31 H28 La1 N2 O10)n'
_symmetry_cell_setting           orthorhombic
_symmetry_space_group_name_H-M   'P n a a'
_symmetry_Int_Tables_number      56
_space_group_name_Hall           '-P 2ac 2bc'
loop_
_symmetry_equiv_pos_site_id
_symmetry_equiv_pos_as_xyz
1 x,y,z
2 1/2-x,-y,1/2+z
3 x,1/2-y,1/2-z
4 1/2-x,1/2+y,-z
5 -x,-y,-z
6 1/2+x,y,1/2-z
7 -x,1/2+y,1/2+z
8 1/2+x,1/2-y,z
_cell_length_a                   10.139
_cell_length_b                   17.804
_cell_length_c                   20.010
_cell_angle_alpha                90
_cell_angle_beta                 90
_cell_angle_gamma                90
_cell_volume                     3612.1
loop_
_atom_site_label
_atom_site_type_symbol
_atom_site_fract_x
_atom_site_fract_y
_atom_site_fract_z
_atom_site_U_iso_or_equiv
_atom_site_thermal_displace_type
La1 La 1.03061(8) 0.2500 0.2500 0.0276 Uani
O1 O 1.1483(7) 0.1403(4) 0.3069(4) 0.0423 Uani
O2 O 0.8627(7) 0.2184(4) 0.3302(4) 0.0453 Uani
N1 N 1.1098(9) 0.0994(5) 0.3597(5) 0.0370 Uani
O3 O 0.6484(7) 0.1956(5) 0.3481(4) 0.0513 Uani
C1 C 0.7925(10) 0.1923(6) 0.4406(5) 0.0337 Uani
C2 C 0.9981(10) 0.0607(7) 0.3562(6) 0.0440 Uani
H1 H 0.9502 0.0598 0.3166 0.0520 Uiso
C3 C 0.7046(12) 0.1529(7) 0.4803(6) 0.0463 Uani
H2 H 0.6256 0.1349 0.4629 0.0560 Uiso
C4 C 1.0241(11) 0.0211(6) 0.4707(6) 0.0367 Uani
C5 C 1.1413(11) 0.0601(7) 0.4699(6) 0.0460 Uani
H3 H 1.1939 0.0593 0.5080 0.0550 Uiso
C6 C 0.9526(11) 0.0214(7) 0.4118(6) 0.0437 Uani
H4 H 0.8735 -0.0049 0.4093 0.0520 Uiso
C7 C 0.9120(11) 0.2198(7) 0.4680(6) 0.0450 Uani
H5 H 0.9714 0.2461 0.4414 0.0540 Uiso
C8 C 0.7380(14) 0.1412(8) 0.5470(7) 0.0623 Uani
H6 H 0.6812 0.1144 0.5746 0.0750 Uiso
C9 C 1.1833(11) 0.0997(7) 0.4159(6) 0.0440 Uani
H7 H 1.2617 0.1267 0.4177 0.0530 Uiso
C10 C 0.8549(15) 0.1690(9) 0.5726(7) 0.0673 Uani
H8 H 0.8753 0.1608 0.6173 0.0810 Uiso
C11 C 0.9390(13) 0.2074(9) 0.5345(7) 0.0630 Uani
H9 H 1.0167 0.2258 0.5530 0.0750 Uiso
H11 H 0.8341 0.1281 0.2188 0.0980 Uiso
H12 H 0.9431 0.1131 0.1803 0.0980 Uiso
C19 C 0.7644(9) 0.2028(6) 0.3672(6) 0.0310 Uani
O6 O 0.9151(7) 0.1277(5) 0.2159(4) 0.0430 Uani
La1D La 0.96939(8) -0.2500 0.7500 0.0276 Uani
La1E La 0.53061(8) 0.2500 0.2500 0.0276 Uani
O1D O 0.8517(7) -0.1403(4) 0.6931(4) 0.0423 Uani
O1B O 1.1483(7) 0.3597(4) 0.1931(4) 0.0423 Uani
O2B O 0.8627(7) 0.2816(4) 0.1698(4) 0.0453 Uani
N1D N 0.8902(9) -0.0994(5) 0.6403(5) 0.0370 Uani
O3B O 0.6484(7) 0.3044(5) 0.1519(4) 0.0513 Uani
O3E O 1.1484(7) 0.1956(5) 0.1519(4) 0.0513 Uani
O3G O 1.1484(7) 0.3044(5) 0.3481(4) 0.0513 Uani
C1B C 0.7925(10) 0.3077(6) 0.0594(5) 0.0337 Uani
C2D C 1.0019(10) -0.0607(7) 0.6438(6) 0.0440 Uani
H1D H 1.0498 -0.0598 0.6834 0.0520 Uiso
C3B C 0.7046(12) 0.3471(7) 0.0197(6) 0.0463 Uani
H2B H 0.6256 0.3651 0.0371 0.0560 Uiso
C4D C 0.9759(11) -0.0211(6) 0.5293(6) 0.0367 Uani
C5D C 0.8587(11) -0.0601(7) 0.5301(6) 0.0460 Uani
H3D H 0.8061 -0.0593 0.4920 0.0550 Uiso
C6D C 1.0474(11) -0.0214(7) 0.5882(6) 0.0437 Uani
H4D H 1.1265 0.0049 0.5907 0.0520 Uiso
C7B C 0.9120(11) 0.2802(7) 0.0320(6) 0.0450 Uani
H5B H 0.9714 0.2539 0.0586 0.0540 Uiso
C8B C 0.7380(14) 0.3588(8) -0.0470(7) 0.0623 Uani
H6B H 0.6812 0.3856 -0.0746 0.0750 Uiso
C9D C 0.8167(11) -0.0997(7) 0.5841(6) 0.0440 Uani
H7D H 0.7383 -0.1267 0.5823 0.0530 Uiso
C10B C 0.8549(15) 0.3310(9) -0.0726(7) 0.0673 Uani
H8B H 0.8753 0.3392 -0.1173 0.0810 Uiso
C11B C 0.9390(13) 0.2926(9) -0.0345(7) 0.0630 Uani
H9B H 1.0167 0.2742 -0.0530 0.0750 Uiso
H11B H 0.8341 0.3719 0.2812 0.0980 Uiso
H12B H 0.9431 0.3869 0.3197 0.0980 Uiso
C19B C 0.7644(9) 0.2972(6) 0.1328(6) 0.0310 Uani
O6B O 0.9151(7) 0.3723(5) 0.2841(4) 0.0430 Uani
O4 O 0.0659(9) 0.5386(6) 0.4608(4) 0.0657 Uani
H10 H 0.0381 0.5063 0.4864 0.0980 Uiso
O5 O -0.0204(9) 0.4658(6) 0.3838(5) 0.0763 Uani
C12 C 0.1772(13) 0.5215(8) 0.2922(7) 0.0583 Uani
H13 H 0.1443 0.4740 0.2826 0.0700 Uiso
C13 C 0.0534(11) 0.5161(8) 0.4008(7) 0.0507 Uani
C14 C 0.1408(13) 0.5561(8) 0.3517(7) 0.0567 Uani
C15 C 0.2608(16) 0.5555(10) 0.2467(9) 0.0827 Uani
H14 H 0.2829 0.5317 0.2068 0.0990 Uiso
C16 C 0.1895(17) 0.6263(9) 0.3645(8) 0.0783 Uani
H15 H 0.1663 0.6508 0.4038 0.0940 Uiso
C17 C 0.274(2) 0.6615(10) 0.3191(10) 0.1050 Uani
H16 H 0.3045 0.7097 0.3281 0.1240 Uiso
C18 C 0.311(2) 0.6264(11) 0.2620(9) 0.0960 Uani
H17 H 0.3703 0.6495 0.2331 0.1150 Uiso
loop_
_atom_site_aniso_label
_atom_site_aniso_U_11
_atom_site_aniso_U_22
_atom_site_aniso_U_33
_atom_site_aniso_U_23
_atom_site_aniso_U_13
_atom_site_aniso_U_12
La1 0.0229(4) 0.0390(5) 0.0209(4) 0.0028(6) 0.000 0.000
O1 0.032(4) 0.044(5) 0.051(6) 0.006(4) -0.002(4) 0.003(4)
O2 0.035(4) 0.059(5) 0.042(5) -0.001(4) 0.009(4) -0.012(4)
N1 0.038(5) 0.043(6) 0.030(6) 0.008(5) 0.003(4) 0.004(4)
O3 0.041(5) 0.075(7) 0.038(5) 0.009(5) -0.006(4) -0.012(5)
C1 0.037(6) 0.040(7) 0.024(6) -0.002(5) -0.001(5) 0.009(5)
C2 0.026(6) 0.060(8) 0.046(8) 0.002(7) -0.007(5) -0.006(5)
C3 0.047(7) 0.055(9) 0.037(7) 0.008(6) 0.005(6) -0.011(6)
C4 0.038(6) 0.036(7) 0.036(7) 0.007(5) -0.006(6) -0.001(6)
C5 0.036(6) 0.071(9) 0.031(7) 0.010(6) -0.010(5) -0.012(6)
C6 0.042(7) 0.041(7) 0.048(8) 0.021(6) -0.011(6) -0.014(6)
C7 0.037(6) 0.060(8) 0.038(7) 0.003(6) 0.002(6) -0.005(6)
C8 0.074(10) 0.063(10) 0.050(9) 0.021(8) 0.009(8) 0.000(8)
C9 0.038(7) 0.054(9) 0.040(8) 0.016(7) -0.008(6) -0.006(6)
C10 0.082(11) 0.096(13) 0.024(7) 0.003(8) -0.009(8) 0.015(10)
C11 0.062(9) 0.084(11) 0.043(9) -0.003(8) -0.019(7) -0.012(8)
C19 0.022(5) 0.035(7) 0.036(7) 0.005(5) 0.004(5) -0.002(5)
O6 0.035(4) 0.060(6) 0.034(5) 0.004(4) -0.006(4) -0.010(4)
La1D 0.0229 0.039 0.0209 0.0028 0 0
La1E 0.0229 0.039 0.0209 -0.0028 0 0
O1D 0.032 0.044 0.051 0.006 -0.002 0.003
O1B 0.032 0.044 0.051 0.006 0.002 -0.003
O2B 0.035 0.059 0.042 -0.001 -0.009 0.012
N1D 0.038 0.043 0.03 0.008 0.003 0.004
O3B 0.041 0.075 0.038 0.009 0.006 0.012
O3E 0.041 0.075 0.038 -0.009 0.006 -0.012
O3G 0.041 0.075 0.038 -0.009 -0.006 0.012
C1B 0.037 0.04 0.024 -0.002 0.001 -0.009
C2D 0.026 0.06 0.046 0.002 -0.007 -0.006
C3B 0.047 0.055 0.037 0.008 -0.005 0.011
C4D 0.038 0.036 0.036 0.007 -0.006 -0.001
C5D 0.036 0.071 0.031 0.01 -0.01 -0.012
C6D 0.042 0.041 0.048 0.021 -0.011 -0.014
C7B 0.037 0.06 0.038 0.003 -0.002 0.005
C8B 0.074 0.063 0.05 0.021 -0.009 0
C9D 0.038 0.054 0.04 0.016 -0.008 -0.006
C10B 0.082 0.096 0.024 0.003 0.009 -0.015
C11B 0.062 0.084 0.043 -0.003 0.019 0.012
C19B 0.022 0.035 0.036 0.005 -0.004 0.002
O6B 0.035 0.06 0.034 0.004 0.006 0.01
O4 0.068(6) 0.085(7) 0.044(6) -0.017(5) -0.013(5) -0.016(5)
O5 0.059(6) 0.110(9) 0.060(7) -0.041(6) -0.008(5) -0.019(6)
C12 0.066(9) 0.056(9) 0.053(10) -0.012(8) -0.002(7) 0.001(7)
C13 0.035(7) 0.060(9) 0.057(9) -0.026(8) -0.006(6) 0.007(6)
C14 0.062(8) 0.051(9) 0.057(10) -0.016(8) -0.014(8) 0.013(7)
C15 0.100(12) 0.086(12) 0.062(10) -0.001(11) 0.019(10) 0.013(10)
C16 0.126(15) 0.066(12) 0.043(9) 0.000(9) -0.008(10) 0.016(10)
C17 0.18(2) 0.055(12) 0.080(14) -0.004(11) -0.011(14) -0.010(12)
C18 0.149(18) 0.075(12) 0.064(15) 0.004(11) 0.009(11) -0.015(12)
loop_
_geom_bond_atom_site_label_1
_geom_bond_atom_site_label_2
_geom_bond_site_symmetry_1
_geom_bond_site_symmetry_2
La1 O1 1_555 1_555
O1 N1 1_555 1_555
O2 La1 1_555 1_555
N1 C2 1_555 1_555
O3 C19 1_555 1_555
C1 C3 1_555 1_555
C2 H1 1_555 1_555
C3 H2 1_555 1_555
C4 C5 1_555 1_555
C5 H3 1_555 1_555
C6 C2 1_555 1_555
H4 C6 1_555 1_555
C7 C1 1_555 1_555
H5 C7 1_555 1_555
C8 C3 1_555 1_555
H6 C8 1_555 1_555
C9 N1 1_555 1_555
H7 C9 1_555 1_555
C10 C8 1_555 1_555
H8 C10 1_555 1_555
C11 C7 1_555 1_555
H9 C11 1_555 1_555
O4 H10 1_555 1_555
H11 O6 1_555 1_555
H12 O6 1_555 1_555
O5 C13 1_555 1_555
C12 H13 1_555 1_555
C13 O4 1_555 1_555
C14 C12 1_555 1_555
C15 C12 1_555 1_555
H14 C15 1_555 1_555
C16 C14 1_555 1_555
H15 C16 1_555 1_555
C17 C16 1_555 1_555
H16 C17 1_555 1_555
C18 C15 1_555 1_555
H17 C18 1_555 1_555
C19 O2 1_555 1_555
O6 La1 1_555 1_555
La1D O1D 1_555 1_555
La1E O3 1_555 1_555
O1D N1D 1_555 1_555
O1B La1 1_555 1_555
O2B La1 1_555 1_555
N1D C2D 1_555 1_555
O3B La1E 1_555 1_555
O3E La1 1_555 1_555
O3G La1 1_555 1_555
C1B C3B 1_555 1_555
C2D H1D 1_555 1_555
C3B H2B 1_555 1_555
C4D C4 1_555 1_555
C5D C4D 1_555 1_555
H3D C5D 1_555 1_555
C6D C2D 1_555 1_555
H4D C6D 1_555 1_555
C7B C1B 1_555 1_555
H5B C7B 1_555 1_555
C8B C3B 1_555 1_555
H6B C8B 1_555 1_555
C9D N1D 1_555 1_555
H7D C9D 1_555 1_555
C10B C8B 1_555 1_555
H8B C10B 1_555 1_555
C11B C7B 1_555 1_555
H9B C11B 1_555 1_555
H11B O6B 1_555 1_555
H12B O6B 1_555 1_555
C19B O2B 1_555 1_555
O6B La1 1_555 1_555
C1 C19 1_555 1_555
C4 C6 1_555 1_555
C5 C9 1_555 1_555
C10 C11 1_555 1_555
C13 C14 1_555 1_555
C17 C18 1_555 1_555
O3B C19B 1_555 1_555
C1B C19B 1_555 1_555
C4D C6D 1_555 1_555
C5D C9D 1_555 1_555
C10B C11B 1_555 1_555

#END
