
#######################################################################
#
#                 Cambridge Crystallographic Data Centre
#                                CCDC 
#
#######################################################################
#
# If this CIF has been generated from an entry in the Cambridge 
# Structural Database, then it will include bibliographic, chemical, 
# crystal, experimental, refinement or atomic coordinate data resulting 
# from the CCDC's data processing and validation procedures.
#
#######################################################################

data_FIMYUX
_chemical_formula_moiety         '(C16 H23 Cu2 N3 O9)n'
_symmetry_cell_setting           cubic
_symmetry_space_group_name_H-M   'P a -3'
_symmetry_Int_Tables_number      205
_space_group_name_Hall           '-P 2ac 2ab 3'
loop_
_symmetry_equiv_pos_site_id
_symmetry_equiv_pos_as_xyz
1 x,y,z
2 1/2-x,-y,1/2+z
3 1/2+x,1/2-y,-z
4 -x,1/2+y,1/2-z
5 z,x,y
6 1/2-z,-x,1/2+y
7 1/2+z,1/2-x,-y
8 -z,1/2+x,1/2-y
9 y,z,x
10 1/2+y,1/2-z,-x
11 -y,1/2+z,1/2-x
12 1/2-y,-z,1/2+x
13 -x,-y,-z
14 1/2+x,y,1/2-z
15 1/2-x,1/2+y,z
16 x,1/2-y,1/2+z
17 -z,-x,-y
18 1/2+z,x,1/2-y
19 1/2-z,1/2+x,y
20 z,1/2-x,1/2+y
21 -y,-z,-x
22 1/2-y,1/2+z,x
23 y,1/2-z,1/2+x
24 1/2+y,z,1/2-x
_cell_length_a                   24.427(3)
_cell_length_b                   24.427(3)
_cell_length_c                   24.427(3)
_cell_angle_alpha                90
_cell_angle_beta                 90
_cell_angle_gamma                90
_cell_volume                     14575.1
loop_
_atom_site_label
_atom_site_type_symbol
_atom_site_fract_x
_atom_site_fract_y
_atom_site_fract_z
_atom_site_U_iso_or_equiv
_atom_site_thermal_displace_type
Cu1 Cu 0.05912(2) 0.21592(3) 0.38543(2) 0.0200 Uani
Cu2 Cu 0.14849(2) 0.20257(3) 0.48689(2) 0.0205 Uani
O1 O -0.16982(15) 0.05669(14) 0.37102(15) 0.0253 Uani
O2 O 0.07903(14) 0.18629(17) 0.45479(14) 0.0281 Uani
O3 O -0.01764(14) 0.19405(15) 0.39290(15) 0.0235 Uani
O4 O -0.28928(16) 0.25755(16) 0.48015(18) 0.0350 Uani
O5 O -0.23258(16) 0.32553(15) 0.45656(17) 0.0311 Uani
O6 O -0.03857(19) 0.2764(2) 0.4264(3) 0.0553 Uani
O7 O -0.2475(2) 0.0734(2) 0.4122(3) 0.0877 Uani
N1 N 0.13800(18) 0.2264(2) 0.37199(18) 0.0283 Uani
N2 N 0.17311(19) 0.2234(2) 0.41436(19) 0.0283 Uani
C1 C 0.1670(3) 0.2316(3) 0.3259(3) 0.0447 Uani
H1 H 0.1523 0.2349 0.2909 0.0540 Uiso
C2 C 0.2240(3) 0.2266(3) 0.3941(3) 0.0453 Uani
H2 H 0.2559 0.2258 0.4149 0.0550 Uiso
C3 C -0.1104(2) 0.2121(2) 0.4174(2) 0.0233 Uani
C4 C 0.2221(3) 0.2314(4) 0.3381(3) 0.0547 Uani
H3 H 0.2513 0.2339 0.3138 0.0660 Uiso
C5 C -0.2449(2) 0.2761(2) 0.4615(2) 0.0247 Uani
C6 C -0.2019(2) 0.0880(2) 0.3983(3) 0.0340 Uani
C7 C -0.1810(2) 0.1435(2) 0.4126(2) 0.0283 Uani
C8 C -0.2029(2) 0.2346(2) 0.4435(2) 0.0220 Uani
C9 C -0.0515(2) 0.2296(2) 0.4117(2) 0.0253 Uani
C10 C -0.1272(2) 0.1585(2) 0.4052(2) 0.0230 Uani
H4 H -0.1019 0.1332 0.3921 0.0270 Uiso
C11 C -0.1491(2) 0.2498(2) 0.4360(2) 0.0233 Uani
H5 H -0.1384 0.2856 0.4434 0.0280 Uiso
C12 C -0.2191(2) 0.1812(2) 0.4323(2) 0.0277 Uani
H6 H -0.2552 0.1706 0.4381 0.0330 Uiso
Cu1Q Cu -0.11457(2) 0.05912(2) 0.28408(3) 0.0200 Uani
Cu1W Cu -0.28408(3) 0.38543(2) 0.44088(2) 0.0200 Uani
Cu2B Cu -0.35151(2) 0.29743(3) 0.51311(2) 0.0205 Uani
Cu2J Cu -0.20257(3) -0.01311(2) 0.35151(2) 0.0205 Uani
Cu2Q Cu -0.01311(2) 0.14849(2) 0.29743(3) 0.0205 Uani
O1E O 0.12898(15) 0.16982(15) 0.55669(14) 0.0253 Uani
O1V O 0.05669(14) 0.12898(15) 0.33018(15) 0.0253 Uani
O3V O 0.19405(15) 0.10710(15) 0.48236(14) 0.0235 Uani
O4B O 0.21072(16) 0.24245(16) 0.51985(18) 0.0350 Uani
O5R O 0.04344(17) 0.26742(16) 0.32553(15) 0.0311 Uani
O8 O 0.0500(5) 0.3153(4) 0.4853(6) 0.1603 Uani
O9 O -0.0053(6) 0.0849(5) 0.4461(5) 0.1940 Uani
N3 N 0.1634(8) 0.4034(5) 0.4142(5) 0.1520 Uani
C13 C 0.1868(10) 0.3738(9) 0.4607(7) 0.2153 Uani
H7 H 0.1586 0.3536 0.4790 0.3220 Uiso
H8 H 0.2029 0.3995 0.4858 0.3220 Uiso
H9 H 0.2145 0.3490 0.4479 0.3220 Uiso
C14 C 0.1454(9) 0.3664(6) 0.3776(7) 0.3030 Uani
H10 H 0.1130 0.3489 0.3914 0.4590 Uiso
H11 H 0.1733 0.3394 0.3715 0.4590 Uiso
H12 H 0.1371 0.3845 0.3437 0.4590 Uiso
C15 C 0.2183(9) 0.4281(6) 0.3922(7) 0.4733 Uani
H13 H 0.2109 0.4499 0.3604 0.7090 Uiso
H14 H 0.2346 0.4506 0.4200 0.7090 Uiso
H15 H 0.2429 0.3990 0.3828 0.7090 Uiso
C16 C 0.1339(9) 0.4537(6) 0.4245(7) 0.4133 Uani
H16 H 0.0980 0.4462 0.4387 0.6200 Uiso
H17 H 0.1541 0.4751 0.4505 0.6200 Uiso
H18 H 0.1307 0.4736 0.3908 0.6200 Uiso
loop_
_atom_site_aniso_label
_atom_site_aniso_U_11
_atom_site_aniso_U_22
_atom_site_aniso_U_33
_atom_site_aniso_U_23
_atom_site_aniso_U_13
_atom_site_aniso_U_12
Cu1 0.0187(3) 0.0260(3) 0.0153(3) 0.0045(2) 0.0004(2) -0.0031(2)
Cu2 0.0185(3) 0.0251(3) 0.0179(3) 0.0009(2) -0.0033(2) -0.0042(2)
O1 0.0282(19) 0.0157(16) 0.032(2) -0.0007(14) 0.0055(15) -0.0004(14)
O2 0.0186(17) 0.047(2) 0.0186(17) 0.0099(16) -0.0038(14) -0.0098(16)
O3 0.0154(16) 0.0274(18) 0.0276(19) 0.0004(15) 0.0027(14) 0.0023(14)
O4 0.032(2) 0.027(2) 0.046(2) -0.0033(18) 0.0158(18) 0.0089(17)
O5 0.029(2) 0.0214(19) 0.043(2) 0.0008(16) 0.0010(17) 0.0112(15)
O6 0.036(3) 0.037(3) 0.093(4) -0.027(3) 0.018(3) -0.010(2)
O7 0.055(3) 0.044(3) 0.164(7) -0.042(4) 0.070(4) -0.025(3)
N1 0.024(2) 0.038(3) 0.023(2) 0.0099(19) 0.0050(17) -0.0027(19)
N2 0.023(2) 0.036(3) 0.026(2) 0.0083(19) 0.0015(18) -0.0061(19)
C1 0.035(3) 0.069(5) 0.030(3) 0.019(3) 0.010(3) 0.000(3)
C2 0.021(3) 0.073(5) 0.042(4) 0.017(3) 0.004(3) -0.003(3)
C3 0.022(2) 0.022(2) 0.026(3) -0.0004(19) 0.0017(19) -0.0014(19)
C4 0.033(3) 0.080(5) 0.051(4) 0.026(4) 0.020(3) 0.004(3)
C5 0.029(3) 0.025(3) 0.020(2) -0.0001(19) 0.002(2) 0.011(2)
C6 0.027(3) 0.022(3) 0.053(4) -0.006(2) 0.014(3) 0.000(2)
C7 0.027(3) 0.023(3) 0.035(3) -0.006(2) 0.005(2) 0.002(2)
C8 0.026(3) 0.021(2) 0.019(2) -0.0009(18) 0.0012(19) 0.0072(19)
C9 0.023(3) 0.026(3) 0.027(3) -0.004(2) 0.001(2) -0.002(2)
C10 0.023(2) 0.017(2) 0.029(3) -0.0023(19) 0.007(2) 0.0006(18)
C11 0.026(2) 0.016(2) 0.028(3) -0.0015(19) 0.001(2) 0.0030(19)
C12 0.021(2) 0.025(3) 0.037(3) -0.003(2) 0.013(2) 0.003(2)
Cu1Q 0.0153 0.0187 0.026 0.0031 -0.0045 0.0004
Cu1W 0.026 0.0153 0.0187 -0.0004 0.0031 0.0045
Cu2B 0.0185 0.0251 0.0179 0.0009 0.0033 0.0042
Cu2J 0.0251 0.0179 0.0185 0.0033 -0.0042 -0.0009
Cu2Q 0.0179 0.0185 0.0251 0.0042 -0.0009 -0.0033
O1E 0.032 0.0282 0.0157 0.0004 0.0007 0.0055
O1V 0.0157 0.032 0.0282 -0.0055 -0.0004 0.0007
O3V 0.0274 0.0276 0.0154 -0.0027 0.0023 -0.0004
O4B 0.032 0.027 0.046 -0.0033 -0.0158 -0.0089
O5R 0.043 0.029 0.0214 0.0112 -0.0008 -0.001
O8 0.162(10) 0.097(7) 0.222(14) 0.016(8) -0.052(9) -0.020(7)
O9 0.250(15) 0.164(11) 0.168(11) 0.105(9) -0.107(11) -0.115(11)
N3 0.29(2) 0.065(6) 0.101(9) 0.004(6) -0.022(11) -0.025(9)
C13 0.32(3) 0.21(2) 0.116(14) 0.083(15) -0.094(18) -0.05(2)
C14 0.56(6) 0.119(16) 0.23(3) 0.015(17) -0.24(3) -0.09(3)
C15 0.53(8) 0.40(6) 0.49(7) 0.07(5) 0.16(6) -0.31(6)
C16 0.74(10) 0.16(2) 0.34(5) -0.01(3) 0.03(6) 0.20(4)
loop_
_geom_bond_atom_site_label_1
_geom_bond_atom_site_label_2
_geom_bond_site_symmetry_1
_geom_bond_site_symmetry_2
Cu1 O2 1_555 1_555
Cu2 O2 1_555 1_555
O1 C6 1_555 1_555
O3 Cu1 1_555 1_555
O4 C5 1_555 1_555
O5 C5 1_555 1_555
O6 C9 1_555 1_555
O7 C6 1_555 1_555
N1 Cu1 1_555 1_555
N2 Cu2 1_555 1_555
C1 N1 1_555 1_555
H1 C1 1_555 1_555
C2 N2 1_555 1_555
H2 C2 1_555 1_555
C3 C9 1_555 1_555
C4 C1 1_555 1_555
H3 C4 1_555 1_555
C5 C8 1_555 1_555
C6 C7 1_555 1_555
C7 C10 1_555 1_555
C8 C11 1_555 1_555
C9 O3 1_555 1_555
C10 C3 1_555 1_555
H4 C10 1_555 1_555
C11 C3 1_555 1_555
H5 C11 1_555 1_555
C12 C7 1_555 1_555
H6 C12 1_555 1_555
N3 C13 1_555 1_555
C13 H7 1_555 1_555
H8 C13 1_555 1_555
H9 C13 1_555 1_555
C14 N3 1_555 1_555
H10 C14 1_555 1_555
H11 C14 1_555 1_555
H12 C14 1_555 1_555
C15 N3 1_555 1_555
H13 C15 1_555 1_555
H14 C15 1_555 1_555
H15 C15 1_555 1_555
C16 N3 1_555 1_555
H16 C16 1_555 1_555
H17 C16 1_555 1_555
H18 C16 1_555 1_555
Cu1Q O1 1_555 1_555
Cu1W O5 1_555 1_555
Cu2B O4 1_555 1_555
Cu2J O1 1_555 1_555
Cu2Q O3 1_555 1_555
O1E Cu2 1_555 1_555
O1V Cu1 1_555 1_555
O3V Cu2 1_555 1_555
O4B Cu2 1_555 1_555
O5R Cu1 1_555 1_555
N1 N2 1_555 1_555
C2 C4 1_555 1_555
C8 C12 1_555 1_555
Cu2Q O1V 1_555 1_555

#END
