
#######################################################################
#
#                 Cambridge Crystallographic Data Centre
#                                CCDC 
#
#######################################################################
#
# If this CIF has been generated from an entry in the Cambridge 
# Structural Database, then it will include bibliographic, chemical, 
# crystal, experimental, refinement or atomic coordinate data resulting 
# from the CCDC's data processing and validation procedures.
#
#######################################################################

data_FIMZAE
_chemical_formula_moiety         '(C17 H27 Cu2 N3 O10)n'
_symmetry_cell_setting           cubic
_symmetry_space_group_name_H-M   'P a -3'
_symmetry_Int_Tables_number      205
_space_group_name_Hall           '-P 2ac 2ab 3'
loop_
_symmetry_equiv_pos_site_id
_symmetry_equiv_pos_as_xyz
1 x,y,z
2 1/2-x,-y,1/2+z
3 -x,1/2+y,1/2-z
4 1/2+x,1/2-y,-z
5 z,x,y
6 1/2+z,1/2-x,-y
7 1/2-z,-x,1/2+y
8 -z,1/2+x,1/2-y
9 y,z,x
10 -y,1/2+z,1/2-x
11 1/2+y,1/2-z,-x
12 1/2-y,-z,1/2+x
13 -x,-y,-z
14 1/2+x,y,1/2-z
15 x,1/2-y,1/2+z
16 1/2-x,1/2+y,z
17 -z,-x,-y
18 1/2-z,1/2+x,y
19 1/2+z,x,1/2-y
20 z,1/2-x,1/2+y
21 -y,-z,-x
22 y,1/2-z,1/2+x
23 1/2-y,1/2+z,x
24 1/2+y,z,1/2-x
_cell_length_a                   24.494(11)
_cell_length_b                   24.494(11)
_cell_length_c                   24.494(11)
_cell_angle_alpha                90
_cell_angle_beta                 90
_cell_angle_gamma                90
_cell_volume                     14695.3
loop_
_atom_site_label
_atom_site_type_symbol
_atom_site_fract_x
_atom_site_fract_y
_atom_site_fract_z
_atom_site_U_iso_or_equiv
_atom_site_thermal_displace_type
Cu1 Cu 0.202663(19) 0.484101(18) 0.146121(18) 0.0241 Uani
Cu2 Cu 0.214023(19) 0.383052(17) 0.056308(18) 0.0230 Uani
N1 N 0.22397(14) 0.41168(14) 0.17034(13) 0.0309 Uani
N2 N 0.22575(15) 0.36941(13) 0.13500(13) 0.0307 Uani
O1 O 0.19413(11) 0.39076(11) -0.02115(10) 0.0286 Uani
O2 O 0.05523(10) 0.37149(11) -0.17202(11) 0.0290 Uani
O3 O 0.18256(12) 0.45166(10) 0.07731(11) 0.0302 Uani
O4 O 0.32260(11) 0.46008(12) -0.23478(11) 0.0333 Uani
O5 O 0.25486(12) 0.48298(13) -0.29217(12) 0.0370 Uani
O6 O 0.27609(13) 0.42498(17) -0.04237(13) 0.0525 Uani
O7 O 0.06857(14) 0.41850(19) -0.24786(15) 0.0634 Uani
C1 C 0.21007(15) 0.41754(16) -0.11340(15) 0.0266 Uani
C2 C 0.15677(15) 0.40590(16) -0.12936(16) 0.0262 Uani
C3 C 0.27274(15) 0.46477(15) -0.24770(16) 0.0259 Uani
C4 C 0.14101(15) 0.41467(16) -0.18340(16) 0.0284 Uani
C5 C 0.23157(15) 0.44588(16) -0.20599(15) 0.0258 Uani
C6 C 0.17841(16) 0.43580(17) -0.22134(17) 0.0297 Uani
C7 C 0.24760(16) 0.43662(16) -0.15224(16) 0.0271 Uani
C8 C 0.22918(17) 0.41054(17) -0.05491(15) 0.0294 Uani
C9 C 0.2303(2) 0.3232(2) 0.1640(2) 0.0490 Uani
H1 H 0.2323 0.2883 0.1494 0.0580 Uiso
C10 C 0.08406(16) 0.40111(18) -0.20305(16) 0.0325 Uani
C11 C 0.2313(3) 0.3356(2) 0.2191(2) 0.0607 Uani
H2 H 0.2341 0.3114 0.2482 0.0730 Uiso
C12 C 0.2273(2) 0.3914(2) 0.22122(18) 0.0477 Uani
H3 H 0.2270 0.4121 0.2531 0.0570 Uiso
C13 C 0.1426(4) 0.4778(4) 0.0424(4) 0.1117 Uani
H4 H 0.1373 0.4563 0.0101 0.1680 Uiso
H5 H 0.1554 0.5135 0.0324 0.1680 Uiso
H6 H 0.1086 0.4811 0.0616 0.1680 Uiso
H7 H 0.1340(17) 0.3921(16) -0.1064(17) 0.0190 Uiso
H8 H 0.2856(17) 0.4409(16) -0.1426(16) 0.0200 Uiso
H9 H 0.167(2) 0.444(2) -0.258(2) 0.0480 Uiso
Cu1A Cu 0.297337(19) 0.515899(18) -0.353879(18) 0.0241 Uani
Cu1J Cu -0.015899(18) 0.353879(18) -0.202663(19) 0.0241 Uani
Cu1S Cu 0.146121(18) 0.297337(19) -0.015899(18) 0.0241 Uani
Cu2S Cu 0.056308(18) 0.285977(19) -0.116948(17) 0.0230 Uani
Cu2U Cu 0.383052(17) 0.443692(18) -0.285977(19) 0.0230 Uani
O1V O 0.10924(11) 0.47885(10) 0.19413(11) 0.0286 Uani
O2G O 0.17202(11) 0.55523(10) 0.12851(11) 0.0290 Uani
O2V O 0.12851(11) 0.32798(11) 0.05523(10) 0.0290 Uani
O4R O 0.26522(11) 0.32260(11) 0.03992(12) 0.0333 Uani
O5A O 0.24514(12) 0.51702(13) 0.20783(12) 0.0370 Uani
N3 N 0.4121(3) 0.3422(3) -0.0946(2) 0.0897 Uani
C14 C 0.4608(4) 0.3219(5) -0.1224(5) 0.1357 Uani
H10 H 0.4893 0.3162 -0.0962 0.2040 Uiso
H11 H 0.4725 0.3482 -0.1490 0.2040 Uiso
H12 H 0.4524 0.2881 -0.1403 0.2040 Uiso
C15 C 0.3718(5) 0.3532(7) -0.1348(5) 0.1900 Uani
H13 H 0.3389 0.3654 -0.1174 0.2870 Uiso
H14 H 0.3645 0.3205 -0.1552 0.2870 Uiso
H15 H 0.3848 0.3811 -0.1591 0.2870 Uiso
C16 C 0.3922(7) 0.3063(9) -0.0566(7) 0.2820 Uani
H16 H 0.3606 0.3217 -0.0393 0.4210 Uiso
H17 H 0.4198 0.2993 -0.0296 0.4210 Uiso
H18 H 0.3824 0.2727 -0.0742 0.4210 Uiso
C17 C 0.4205(9) 0.3897(9) -0.0676(10) 0.3233 Uani
H19 H 0.3876 0.4001 -0.0489 0.4860 Uiso
H20 H 0.4303 0.4177 -0.0932 0.4860 Uiso
H21 H 0.4494 0.3850 -0.0416 0.4860 Uiso
O8 O 0.3139(2) 0.4801(3) 0.0479(3) 0.1163 Uani
O9 O 0.5000 0.5000 0.0000 0.5000 Uani
O10 O 0.3608(7) 0.6392(7) 0.1392(7) 0.2750 Uani
loop_
_atom_site_aniso_label
_atom_site_aniso_U_11
_atom_site_aniso_U_22
_atom_site_aniso_U_33
_atom_site_aniso_U_23
_atom_site_aniso_U_13
_atom_site_aniso_U_12
Cu1 0.0286(3) 0.0209(2) 0.0227(2) -0.00329(17) -0.00295(17) 0.00102(17)
Cu2 0.0288(3) 0.0190(2) 0.0213(2) -0.00024(16) -0.00276(17) 0.00302(17)
N1 0.0398(19) 0.0315(17) 0.0214(16) 0.0008(13) -0.0066(14) 0.0041(14)
N2 0.042(2) 0.0246(16) 0.0255(16) 0.0008(13) -0.0021(14) 0.0053(14)
O1 0.0308(14) 0.0348(15) 0.0201(13) 0.0020(11) 0.0012(11) -0.0011(11)
O2 0.0198 0.0345 0.0327 0.0054 0 -0.0009
O3 0.0425(16) 0.0231(13) 0.0250(13) -0.0035(11) -0.0080(12) 0.0078(12)
O4 0.023 0.0435 0.0335 0.0006 0.0064 -0.0002
O5 0.0322 0.0456 0.0331 0.0169 0.007 -0.0038
O6 0.0372(18) 0.089(3) 0.0314(17) 0.0093(17) -0.0088(14) -0.0238(18)
O7 0.0332 0.112 0.045 0.037 -0.0101 -0.0179
C1 0.0279(19) 0.0267(19) 0.0251(19) 0.0029(15) 0.0000(15) -0.0004(15)
C2 0.0218(18) 0.031(2) 0.0258(19) 0.0028(15) 0.0051(15) -0.0025(15)
C3 0.0271 0.0224 0.0281 0.0017 0.0081 -0.0015
C4 0.0236(19) 0.034(2) 0.0275(19) 0.0058(16) 0.0013(15) -0.0024(15)
C5 0.0232 0.0277 0.0264 0.0043 0.0054 0.0002
C6 0.027 0.035 0.027 0.0074 0.0015 0.001
C7 0.0225(19) 0.029(2) 0.0297(19) 0.0045(16) 0.0002(15) -0.0027(15)
C8 0.031(2) 0.034(2) 0.0233(19) -0.0007(16) 0.0005(15) 0.0012(16)
C9 0.072(3) 0.034(2) 0.041(3) 0.009(2) -0.001(2) 0.016(2)
C10 0.0234 0.045 0.029 0.0065 -0.0014 -0.0018
C11 0.097(5) 0.050(3) 0.035(3) 0.018(2) 0.006(3) 0.031(3)
C12 0.068(3) 0.052(3) 0.023(2) 0.003(2) -0.004(2) 0.019(3)
C13 0.157(9) 0.096(6) 0.082(6) -0.014(5) -0.037(6) 0.027(6)
Cu1A 0.0286 0.0209 0.0227 0.00329 0.00295 0.00102
Cu1J 0.0209 0.0227 0.0286 -0.00295 -0.00102 0.00329
Cu1S 0.0227 0.0286 0.0209 -0.00102 -0.00329 0.00295
Cu2S 0.0213 0.0288 0.019 -0.00302 -0.00024 0.00276
Cu2U 0.019 0.0213 0.0288 0.00276 0.00302 0.00024
O1V 0.0348 0.0201 0.0308 0.0012 0.0011 -0.002
O2G 0.0327 0.0198 0.0345 0.0009 0.0054 0
O2V 0.0345 0.0327 0.0198 0 0.0009 -0.0054
O4R 0.0335 0.023 0.0435 0.0002 -0.0006 0.0064
O5A 0.0322 0.0456 0.0331 -0.0169 -0.007 -0.0038
N3 0.079(4) 0.133(6) 0.057(3) 0.012(4) 0.011(3) 0.015(4)
C14 0.085(6) 0.154(10) 0.168(11) 0.013(8) 0.041(7) 0.036(7)
C15 0.162(12) 0.31(2) 0.098(8) 0.015(10) -0.010(8) 0.134(13)
C16 0.171(15) 0.44(3) 0.235(18) 0.24(2) 0.082(14) 0.061(18)
C17 0.26(2) 0.29(3) 0.42(4) -0.23(3) 0.18(2) -0.08(2)
O8 0.074(3) 0.150(6) 0.125(5) -0.073(4) -0.032(3) 0.040(4)
O9 0.50(4) 0.50(4) 0.50(4) -0.16(3) 0.16(3) 0.16(3)
O10 0.275(12) 0.275(12) 0.275(12) 0.067(15) -0.067(15) -0.067(15)
loop_
_geom_bond_atom_site_label_1
_geom_bond_atom_site_label_2
_geom_bond_site_symmetry_1
_geom_bond_site_symmetry_2
Cu1 N1 1_555 1_555
Cu2 N2 1_555 1_555
N1 N2 1_555 1_555
N2 C9 1_555 1_555
O1 Cu2 1_555 1_555
O2 C10 1_555 1_555
O3 Cu1 1_555 1_555
O4 C3 1_555 1_555
O5 C3 1_555 1_555
O6 C8 1_555 1_555
O7 C10 1_555 1_555
C1 C2 1_555 1_555
C2 C4 1_555 1_555
C3 C5 1_555 1_555
C4 C6 1_555 1_555
C5 C6 1_555 1_555
C6 H9 1_555 1_555
C7 C1 1_555 1_555
C8 O1 1_555 1_555
C9 H1 1_555 1_555
C10 C4 1_555 1_555
C11 C9 1_555 1_555
H2 C11 1_555 1_555
C12 N1 1_555 1_555
H3 C12 1_555 1_555
C13 O3 1_555 1_555
H4 C13 1_555 1_555
H5 C13 1_555 1_555
H6 C13 1_555 1_555
H7 C2 1_555 1_555
H8 C7 1_555 1_555
N3 C14 1_555 1_555
C14 H10 1_555 1_555
H11 C14 1_555 1_555
H12 C14 1_555 1_555
C15 N3 1_555 1_555
H13 C15 1_555 1_555
H14 C15 1_555 1_555
H15 C15 1_555 1_555
C16 N3 1_555 1_555
H16 C16 1_555 1_555
H17 C16 1_555 1_555
H18 C16 1_555 1_555
C17 N3 1_555 1_555
H19 C17 1_555 1_555
H20 C17 1_555 1_555
H21 C17 1_555 1_555
Cu1A O5 1_555 1_555
Cu1J O2 1_555 1_555
Cu1S O1 1_555 1_555
Cu2S O2 1_555 1_555
Cu2U O4 1_555 1_555
O1V Cu1 1_555 1_555
O2G Cu1 1_555 1_555
O2V Cu2 1_555 1_555
O4R Cu2 1_555 1_555
O5A Cu1 1_555 1_555
Cu2 O3 1_555 1_555
C1 C8 1_555 1_555
C5 C7 1_555 1_555
C11 C12 1_555 1_555
Cu1S O2V 1_555 1_555

#END
