
#######################################################################
#
#                 Cambridge Crystallographic Data Centre
#                                CCDC 
#
#######################################################################
#
# If this CIF has been generated from an entry in the Cambridge 
# Structural Database, then it will include bibliographic, chemical, 
# crystal, experimental, refinement or atomic coordinate data resulting 
# from the CCDC's data processing and validation procedures.
#
#######################################################################

data_BICPOT
_chemical_formula_moiety         '(C7 H17 Al8 F2 N2 O35 P8 1-)n'
_symmetry_cell_setting           monoclinic
_symmetry_space_group_name_H-M   'C 2/c'
_symmetry_Int_Tables_number      15
_space_group_name_Hall           '-C 2yc'
loop_
_symmetry_equiv_pos_site_id
_symmetry_equiv_pos_as_xyz
1 x,y,z
2 1/2+x,1/2+y,z
3 -x,y,1/2-z
4 1/2-x,1/2+y,1/2-z
5 -x,-y,-z
6 1/2-x,1/2-y,-z
7 x,-y,1/2+z
8 1/2+x,1/2-y,1/2+z
_cell_length_a                   21.759(3)
_cell_length_b                   13.8214(18)
_cell_length_c                   14.2237(18)
_cell_angle_alpha                90
_cell_angle_beta                 98.849(4)
_cell_angle_gamma                90
_cell_volume                     4226.72
loop_
_atom_site_label
_atom_site_type_symbol
_atom_site_fract_x
_atom_site_fract_y
_atom_site_fract_z
P1 P 0.05959(6) 0.12051(8) 0.01465(9)
P2 P 0.17164(6) -0.21536(7) -0.10591(8)
P3 P 0.26241(6) 0.11092(7) 0.06219(8)
P4 P 0.15797(6) 0.11435(8) -0.29507(8)
Al1 Al 0.16167(7) 0.20348(9) -0.09108(9)
Al2 Al 0.08374(7) -0.10027(9) 0.00792(10)
Al3 Al 0.24608(7) -0.10860(9) 0.05953(10)
Al4 Al 0.16015(7) 0.10872(9) 0.19667(10)
F1 F 0.16788(14) -0.04470(18) 0.0268(2)
O1 O 0.22897(16) -0.1626(2) -0.0550(2)
O2 O 0.06186(19) 0.0180(2) -0.0248(3)
O3 O 0.22339(16) 0.1355(2) -0.0337(2)
O4 O 0.11318(17) -0.1871(2) -0.0648(2)
O5 O 0.22535(17) 0.1317(2) 0.1424(2)
O6 O 0.09876(17) 0.1272(2) -0.3674(2)
O7 O -0.00718(16) 0.1541(2) 0.0104(2)
O8 O 0.28447(17) 0.00570(19) 0.0636(2)
O9 O 0.15195(17) 0.1788(2) -0.2107(2)
O10 O 0.32118(16) 0.17338(19) 0.0764(2)
O11 O 0.18042(16) -0.3253(2) -0.0945(2)
O12 O 0.09318(17) 0.1886(2) -0.0449(3)
O13 O 0.16196(17) -0.1915(2) -0.2119(2)
O14 O 0.21551(17) 0.1449(2) -0.3366(2)
O15 O 0.09222(19) 0.1252(3) 0.1172(3)
O16 O 0.16478(18) 0.0090(2) -0.2600(2)
P3E P 0.23759(6) 0.38908(7) -0.06219(8)
O3E O 0.27661(16) 0.3645(2) 0.0337(2)
O5E O 0.27465(17) 0.3683(2) -0.1424(2)
O8E O 0.21553(17) 0.49430(19) -0.0636(2)
O10E O 0.17882(16) 0.32662(19) -0.0764(2)
Al1E Al 0.33833(7) 0.29652(9) 0.09108(9)
Al2F Al 0.08374(7) 0.10027(9) -0.49208(10)
Al3E Al 0.25392(7) 0.60860(9) -0.05953(10)
Al4E Al 0.33985(7) 0.39128(9) -0.19667(10)
P4F P 0.15797(6) -0.11435(8) 0.20493(8)
O6F O 0.09876(17) -0.1272(2) 0.1326(2)
O9F O 0.15195(17) -0.1788(2) 0.2893(2)
O14F O 0.21551(17) -0.1449(2) 0.1634(2)
O16F O 0.16478(18) -0.0090(2) 0.2400(2)
P1D P -0.05959(6) -0.12051(8) -0.01465(9)
O2D O -0.06186(19) -0.0180(2) 0.0248(3)
O7D O 0.00718(16) -0.1541(2) -0.0104(2)
O12D O -0.09318(17) -0.1886(2) 0.0449(3)
O15D O -0.09222(19) -0.1252(3) -0.1172(3)
P2E P 0.32836(6) -0.28464(7) 0.10591(8)
O1E O 0.27103(16) -0.3374(2) 0.0550(2)
O4E O 0.38682(17) -0.3129(2) 0.0648(2)
O11E O 0.31958(16) -0.1747(2) 0.0945(2)
O13E O 0.33804(17) -0.3085(2) 0.2119(2)
F1F F 0.16788(14) 0.04470(18) -0.4732(2)
O13F O 0.16196(17) 0.1915(2) 0.2881(2)
Al2D Al -0.08374(7) 0.10027(9) -0.00792(10)
Al3E_2 Al 0.25392(7) -0.39140(9) -0.05953(10)
Al4F Al 0.16015(7) -0.10872(9) -0.30333(10)
Al3F Al 0.24608(7) 0.10860(9) -0.44047(10)
O9E O 0.34805(17) 0.3212(2) 0.2107(2)
O12E O 0.40682(17) 0.3114(2) 0.0449(3)
O2F O 0.06186(19) -0.0180(2) -0.5248(3)
O4F O 0.11318(17) 0.1871(2) -0.5648(2)
O7B O 0.00718(16) 0.1541(2) -0.5104(2)
F1E F 0.33212(14) 0.54470(18) -0.0268(2)
O1E_2 O 0.27103(16) 0.6626(2) 0.0550(2)
O11_2 O 0.18042(16) 0.6747(2) -0.0945(2)
O14C O 0.28449(17) 0.6449(2) -0.1634(2)
O13C O 0.33804(17) 0.3085(2) -0.2881(2)
O15E O 0.40778(19) 0.3748(3) -0.1172(3)
O16C O 0.33522(18) 0.5090(2) -0.2400(2)
Al1F Al 0.16167(7) -0.20348(9) 0.40892(9)
Al1D Al -0.16167(7) -0.20348(9) 0.09108(9)
Al4D Al -0.16015(7) -0.10872(9) -0.19667(10)
Al2E Al 0.41626(7) -0.39973(9) -0.00792(10)
Al4C Al 0.33985(7) -0.39128(9) 0.30333(10)
N1 N 0.5645(3) 0.0736(4) 0.8922(4)
H1 H 0.603 0.0952 0.9014
C1 C 0.5183(3) 0.1371(4) 0.8795(5)
H2 H 0.5273 0.2044 0.8815
C2 C 0.4587(3) 0.1067(4) 0.8638(5)
H3 H 0.426 0.1529 0.8536
C3 C 0.4440(3) 0.0056(3) 0.8622(4)
C4 C 0.4951(3) -0.0583(4) 0.8771(4)
H4 H 0.4881 -0.1261 0.8772
C5 C 0.5548(3) -0.0236(5) 0.8915(5)
H5 H 0.5891 -0.067 0.9008
N2 N 0.3847(3) -0.0218(4) 0.8470(4)
C6 C 0.3332(3) 0.0453(5) 0.8325(5)
H6 H 0.3378 0.0925 0.8845
H7 H 0.2941 0.0098 0.8312
H8 H 0.3328 0.0791 0.7718
C7 C 0.3698(4) -0.1260(5) 0.8446(6)
H9 H 0.3974 -0.1602 0.8075
H10 H 0.3265 -0.1354 0.8151
H11 H 0.3756 -0.1515 0.9097
O17 O 0.50000 -0.2701(9) 0.75000
O18 O 0.50000 -0.413(3) 0.75000
O19 O 0.50000 0.311(3) 0.75000
loop_
_geom_bond_atom_site_label_1
_geom_bond_atom_site_label_2
_geom_bond_site_symmetry_1
_geom_bond_site_symmetry_2
P1 O2 1_555 1_555
P2 O1 1_555 1_555
P3 O3 1_555 1_555
P4 O6 1_555 1_555
Al1 O3 1_555 1_555
Al2 F1 1_555 1_555
Al3 F1 1_555 1_555
Al4 O5 1_555 1_555
O1 Al3 1_555 1_555
O2 Al2 1_555 1_555
O4 P2 1_555 1_555
O5 P3 1_555 1_555
O6 Al2F 1_555 1_555
O7 P1 1_555 1_555
O8 P3 1_555 1_555
O9 P4 1_555 1_555
O10 P3 1_555 1_555
O11 P2 1_555 1_555
O12 P1 1_555 1_555
O13 P2 1_555 1_555
O14 P4 1_555 1_555
O15 P1 1_555 1_555
O16 P4 1_555 1_555
N1 H1 1_555 1_555
C1 N1 1_555 1_555
H2 C1 1_555 1_555
C2 C1 1_555 1_555
H3 C2 1_555 1_555
C3 C2 1_555 1_555
C4 C3 1_555 1_555
H4 C4 1_555 1_555
C5 N1 1_555 1_555
H5 C5 1_555 1_555
N2 C3 1_555 1_555
C6 N2 1_555 1_555
H6 C6 1_555 1_555
H7 C6 1_555 1_555
H8 C6 1_555 1_555
C7 N2 1_555 1_555
H9 C7 1_555 1_555
H10 C7 1_555 1_555
H11 C7 1_555 1_555
P3E O3E 1_555 1_555
O3E Al1E 1_555 1_555
O5E P3E 1_555 1_555
O8E P3E 1_555 1_555
O10E Al1 1_555 1_555
Al1E O10 1_555 1_555
Al2F F1F 1_555 1_555
Al3E O8E 1_555 1_555
Al4E O5E 1_555 1_555
P4F O6F 1_555 1_555
O6F Al2 1_555 1_555
O9F P4F 1_555 1_555
O14F Al3 1_555 1_555
O16F Al4 1_555 1_555
P1D O2D 1_555 1_555
O2D Al2D 1_555 1_555
O7D Al2 1_555 1_555
O12D P1D 1_555 1_555
O15D P1D 1_555 1_555
P2E O1E 1_555 1_555
O1E Al3E_2 1_555 1_555
O4E P2E 1_555 1_555
O11E Al3 1_555 1_555
O13E P2E 1_555 1_555
F1F Al3F 1_555 1_555
O13F Al4 1_555 1_555
Al2D O7 1_555 1_555
Al3E_2 O11 1_555 1_555
Al4F O13 1_555 1_555
Al3F O14 1_555 1_555
O9E Al1E 1_555 1_555
O12E Al1E 1_555 1_555
O2F Al2F 1_555 1_555
O4F Al2F 1_555 1_555
O7B Al2F 1_555 1_555
F1E Al3E 1_555 1_555
O1E_2 Al3E 1_555 1_555
O11_2 Al3E 1_555 1_555
O14C Al3E 1_555 1_555
O13C Al4E 1_555 1_555
O15E Al4E 1_555 1_555
O16C Al4E 1_555 1_555
Al1F O9F 1_555 1_555
Al1D O12D 1_555 1_555
Al4D O15D 1_555 1_555
Al2E O4E 1_555 1_555
Al4C O13E 1_555 1_555
Al1 O9 1_555 1_555
Al1 O12 1_555 1_555
Al2 O4 1_555 1_555
Al3 O8 1_555 1_555
Al4 O15 1_555 1_555
O16 Al4F 1_555 1_555
C4 C5 1_555 1_555
P3E O10E 1_555 1_555
P4F O14F 1_555 1_555
P4F O16F 1_555 1_555
P1D O7D 1_555 1_555
P2E O11E 1_555 1_555

#END
