
#######################################################################
#
#                 Cambridge Crystallographic Data Centre
#                                CCDC 
#
#######################################################################
#
# If this CIF has been generated from an entry in the Cambridge 
# Structural Database, then it will include bibliographic, chemical, 
# crystal, experimental, refinement or atomic coordinate data resulting 
# from the CCDC's data processing and validation procedures.
#
#######################################################################

data_BAMMOU
_chemical_formula_moiety         '(C36 H60 Cu8 N18 O12 2+)n'
_symmetry_cell_setting           hexagonal
_symmetry_space_group_name_H-M   'P 63 2 2'
_symmetry_Int_Tables_number      182
_space_group_name_Hall           'P 6c 2c'
loop_
_symmetry_equiv_pos_site_id
_symmetry_equiv_pos_as_xyz
1 x,y,z
2 -x,-y,1/2+z
3 -y,x-y,z
4 -x+y,-x,z
5 x-y,x,1/2+z
6 y,-x+y,1/2+z
7 x-y,-y,-z
8 -x,-x+y,-z
9 y,x,-z
10 -y,-x,1/2-z
11 x,x-y,1/2-z
12 -x+y,y,1/2-z
_cell_length_a                   19.6977(13)
_cell_length_b                   19.6977(13)
_cell_length_c                   13.8757(10)
_cell_angle_alpha                90
_cell_angle_beta                 90
_cell_angle_gamma                120
_cell_volume                     4662.48
loop_
_atom_site_label
_atom_site_type_symbol
_atom_site_fract_x
_atom_site_fract_y
_atom_site_fract_z
C1 C 0.8391(5) 0.4312(7) 0.5381(6)
C2 C 0.8768(6) 0.5214(6) 0.6359(6)
C3 C 0.8305(8) 0.3738(8) 0.4595(9)
H1 H 0.775776 0.331790 0.454263
O1 O 0.8804(9) 0.3416(8) 0.4715(9)
H2 H 0.912508 0.356598 0.427580
N1 N 0.8054(3) 0.4748(4) 0.6564(4)
N2 N 0.7782(4) 0.4133(4) 0.5935(5)
N3 N 0.9026(4) 0.4977(5) 0.5619(5)
Cu1 Cu 0.73939(4) 0.47879(7) 0.750000
Cu2 Cu 0.666667 0.333333 0.59178(11)
Cu3 Cu 1.000000 0.54366(10) 0.500000
C4 C 0.8555(11) 0.4233(9) 0.3685(9)
H3 H 0.822419 0.445684 0.358964
H4 H 0.908943 0.464539 0.374738
H5 H 0.850738 0.391016 0.314176
C5 C 0.9321(7) 0.6001(8) 0.6860(8)
H6 H 0.965345 0.639341 0.638164
O2 O 0.9792(8) 0.5936(8) 0.7588(11)
H7 H 0.965575 0.601139 0.811739
C6 C 0.8780(8) 0.6244(10) 0.7338(15)
H8 H 0.845617 0.629154 0.685734
H9 H 0.845535 0.585398 0.780145
H10 H 0.908834 0.673829 0.765610
C1B C 0.5688(7) 0.4079(9) 0.5381(6)
C2B C 0.4786(6) 0.3554(8) 0.6359(6)
C3B C 0.6262(8) 0.4567(11) 0.4595(9)
H1B H 0.668210 0.443986 0.454263
O1B O 0.6584(8) 0.5388(12) 0.4715(9)
H2B H 0.643402 0.555910 0.427580
N1B N 0.5252(4) 0.3306(5) 0.6564(4)
N2B N 0.5867(4) 0.3649(6) 0.5935(5)
N3B N 0.5023(5) 0.4049(6) 0.5619(5)
Cu1B Cu 0.52121(7) 0.26060(8) 0.750000
Cu3B Cu 0.45634(10) 0.45634(10) 0.500000
C4B C 0.5767(9) 0.4322(14) 0.3685(9)
H3B H 0.554316 0.376735 0.358964
H4B H 0.535461 0.444404 0.374738
H5B H 0.608984 0.459722 0.314176
C5B C 0.3999(8) 0.3320(11) 0.6860(8)
H6B H 0.360659 0.326004 0.638164
O2B O 0.4064(8) 0.3856(11) 0.7588(11)
H7B H 0.398861 0.364436 0.811739
C6B C 0.3756(10) 0.2536(13) 0.7338(15)
H8B H 0.370846 0.216463 0.685734
H9B H 0.414602 0.260137 0.780145
H10B H 0.326171 0.235005 0.765610
C1C C 0.5921(9) 0.1609(5) 0.5381(6)
C2C C 0.6446(8) 0.1232(6) 0.6359(6)
C3C C 0.5433(11) 0.1695(8) 0.4595(9)
H1C H 0.556014 0.224224 0.454263
O1C O 0.4612(12) 0.1196(9) 0.4715(9)
H2C H 0.444090 0.087492 0.427580
N1C N 0.6694(5) 0.1946(3) 0.6564(4)
N2C N 0.6351(6) 0.2218(4) 0.5935(5)
N3C N 0.5951(6) 0.0974(4) 0.5619(5)
Cu1C Cu 0.73940(8) 0.26061(4) 0.750000
Cu3C Cu 0.54366(10) 0.000000 0.500000
C4C C 0.5678(14) 0.1445(11) 0.3685(9)
H3C H 0.623265 0.177581 0.358964
H4C H 0.555596 0.091057 0.374738
H5C H 0.540278 0.149262 0.314176
C5C C 0.6680(11) 0.0679(7) 0.6860(8)
H6C H 0.673996 0.034655 0.638164
O2C O 0.6144(11) 0.0208(8) 0.7588(11)
H7C H 0.635564 0.034425 0.811739
C6C C 0.7464(13) 0.1220(8) 0.7338(15)
H8C H 0.783537 0.154383 0.685734
H9C H 0.739863 0.154465 0.780145
H10C H 0.764995 0.091166 0.765610
C1I C 0.5688(7) 0.1609(5) 0.9619(6)
C2I C 0.4786(6) 0.1232(6) 0.8641(6)
C3I C 0.6262(8) 0.1695(8) 1.0405(9)
H1I H 0.668210 0.224224 1.045737
O1I O 0.6584(8) 0.1196(9) 1.0285(9)
H2I H 0.643402 0.087492 1.072420
N1I N 0.5252(4) 0.1946(3) 0.8436(4)
N2I N 0.5867(4) 0.2218(4) 0.9065(5)
N3I N 0.5023(5) 0.0974(4) 0.9381(5)
Cu2I Cu 0.666667 0.333333 0.90822(11)
C4I C 0.5767(9) 0.1445(11) 1.1315(9)
H3I H 0.554316 0.177581 1.141036
H4I H 0.535461 0.091057 1.125262
H5I H 0.608984 0.149262 1.185824
C5I C 0.3999(8) 0.0679(7) 0.8140(8)
H6I H 0.360659 0.034655 0.861836
O2I O 0.4064(8) 0.0208(8) 0.7412(11)
H7I H 0.398861 0.034425 0.688261
C6I C 0.3756(10) 0.1220(8) 0.7662(15)
H8I H 0.370846 0.154383 0.814266
H9I H 0.414602 0.154465 0.719855
H10I H 0.326171 0.091166 0.734390
C1J C 0.8391(5) 0.4079(9) 0.9619(6)
C2J C 0.8768(6) 0.3554(8) 0.8641(6)
C3J C 0.8305(8) 0.4567(11) 1.0405(9)
H1J H 0.775776 0.443986 1.045737
O1J O 0.8804(9) 0.5388(12) 1.0285(9)
H2J H 0.912508 0.555910 1.072420
N1J N 0.8054(3) 0.3306(5) 0.8436(4)
N2J N 0.7782(4) 0.3649(6) 0.9065(5)
N3J N 0.9026(4) 0.4049(6) 0.9381(5)
C4J C 0.8555(11) 0.4322(14) 1.1315(9)
H3J H 0.822419 0.376735 1.141036
H4J H 0.908943 0.444404 1.125262
H5J H 0.850738 0.459722 1.185824
C5J C 0.9321(7) 0.3320(11) 0.8140(8)
H6J H 0.965345 0.326004 0.861836
O2J O 0.9792(8) 0.3856(11) 0.7412(11)
H7J H 0.965575 0.364436 0.688261
C6J C 0.8780(8) 0.2536(13) 0.7662(15)
H8J H 0.845617 0.216463 0.814266
H9J H 0.845535 0.260137 0.719855
H10J H 0.908834 0.235005 0.734390
C1K C 0.5921(9) 0.4312(7) 0.9619(6)
C2K C 0.6446(8) 0.5214(6) 0.8641(6)
C3K C 0.5433(11) 0.3738(8) 1.0405(9)
H1K H 0.556014 0.331790 1.045737
O1K O 0.4612(12) 0.3416(8) 1.0285(9)
H2K H 0.444090 0.356598 1.072420
N1K N 0.6694(5) 0.4748(4) 0.8436(4)
N2K N 0.6351(6) 0.4133(4) 0.9065(5)
N3K N 0.5951(6) 0.4977(5) 0.9381(5)
C4K C 0.5678(14) 0.4233(9) 1.1315(9)
H3K H 0.623265 0.445684 1.141036
H4K H 0.555596 0.464539 1.125262
H5K H 0.540278 0.391016 1.185824
C5K C 0.6680(11) 0.6001(8) 0.8140(8)
H6K H 0.673996 0.639341 0.861836
O2K O 0.6144(11) 0.5936(8) 0.7412(11)
H7K H 0.635564 0.601139 0.688261
C6K C 0.7464(13) 0.6244(10) 0.7662(15)
H8K H 0.783537 0.629154 0.814266
H9K H 0.739863 0.585398 0.719855
H10K H 0.764995 0.673829 0.734390
N3F N 0.4049(6) 0.5023(5) 0.4381(5)
N3G N 1.0974(4) 0.5951(6) 0.4381(5)
N3H N 0.4977(5) -0.0974(4) 0.4381(5)
Cu3A Cu 1.000000 0.45634(10) 1.000000
Cu3D Cu 0.45634(10) 0.000000 1.000000
Cu3E Cu 0.54366(10) 0.54366(10) 1.000000
loop_
_geom_bond_atom_site_label_1
_geom_bond_atom_site_label_2
_geom_bond_site_symmetry_1
_geom_bond_site_symmetry_2
C1 C3 1_555 1_555
C2 N1 1_555 1_555
C3 H1 1_555 1_555
O1 C3 1_555 1_555
H2 O1 1_555 1_555
N1 N2 1_555 1_555
N2 C1 1_555 1_555
N3 C1 1_555 1_555
Cu1 N1 1_555 1_555
Cu2 N2 1_555 1_555
Cu3 N3 1_555 1_555
C4 C3 1_555 1_555
H3 C4 1_555 1_555
H4 C4 1_555 1_555
H5 C4 1_555 1_555
C5 C2 1_555 1_555
H6 C5 1_555 1_555
O2 C5 1_555 1_555
H7 O2 1_555 1_555
C6 C5 1_555 1_555
H8 C6 1_555 1_555
H9 C6 1_555 1_555
H10 C6 1_555 1_555
C1B C3B 1_555 1_555
C2B N1B 1_555 1_555
C3B H1B 1_555 1_555
O1B C3B 1_555 1_555
H2B O1B 1_555 1_555
N1B N2B 1_555 1_555
N2B Cu2 1_555 1_555
N3B C1B 1_555 1_555
Cu1B N1B 1_555 1_555
Cu3B N3B 1_555 1_555
C4B C3B 1_555 1_555
H3B C4B 1_555 1_555
H4B C4B 1_555 1_555
H5B C4B 1_555 1_555
C5B C2B 1_555 1_555
H6B C5B 1_555 1_555
O2B C5B 1_555 1_555
H7B O2B 1_555 1_555
C6B C5B 1_555 1_555
H8B C6B 1_555 1_555
H9B C6B 1_555 1_555
H10B C6B 1_555 1_555
C1C C3C 1_555 1_555
C2C N1C 1_555 1_555
C3C H1C 1_555 1_555
O1C C3C 1_555 1_555
H2C O1C 1_555 1_555
N1C N2C 1_555 1_555
N2C Cu2 1_555 1_555
N3C C1C 1_555 1_555
Cu1C N1C 1_555 1_555
Cu3C N3C 1_555 1_555
C4C C3C 1_555 1_555
H3C C4C 1_555 1_555
H4C C4C 1_555 1_555
H5C C4C 1_555 1_555
C5C C2C 1_555 1_555
H6C C5C 1_555 1_555
O2C C5C 1_555 1_555
H7C O2C 1_555 1_555
C6C C5C 1_555 1_555
H8C C6C 1_555 1_555
H9C C6C 1_555 1_555
H10C C6C 1_555 1_555
C1I C3I 1_555 1_555
C2I N1I 1_555 1_555
C3I H1I 1_555 1_555
O1I C3I 1_555 1_555
H2I O1I 1_555 1_555
N1I Cu1B 1_555 1_555
N2I C1I 1_555 1_555
N3I C1I 1_555 1_555
Cu2I N2I 1_555 1_555
C4I C3I 1_555 1_555
H3I C4I 1_555 1_555
H4I C4I 1_555 1_555
H5I C4I 1_555 1_555
C5I C2I 1_555 1_555
H6I C5I 1_555 1_555
O2I C5I 1_555 1_555
H7I O2I 1_555 1_555
C6I C5I 1_555 1_555
H8I C6I 1_555 1_555
H9I C6I 1_555 1_555
H10I C6I 1_555 1_555
C1J C3J 1_555 1_555
C2J N1J 1_555 1_555
C3J H1J 1_555 1_555
O1J C3J 1_555 1_555
H2J O1J 1_555 1_555
N1J Cu1C 1_555 1_555
N2J Cu2I 1_555 1_555
N3J C1J 1_555 1_555
C4J C3J 1_555 1_555
H3J C4J 1_555 1_555
H4J C4J 1_555 1_555
H5J C4J 1_555 1_555
C5J C2J 1_555 1_555
H6J C5J 1_555 1_555
O2J C5J 1_555 1_555
H7J O2J 1_555 1_555
C6J C5J 1_555 1_555
H8J C6J 1_555 1_555
H9J C6J 1_555 1_555
H10J C6J 1_555 1_555
C1K C3K 1_555 1_555
C2K N1K 1_555 1_555
C3K H1K 1_555 1_555
O1K C3K 1_555 1_555
H2K O1K 1_555 1_555
N1K Cu1 1_555 1_555
N2K Cu2I 1_555 1_555
N3K C1K 1_555 1_555
C4K C3K 1_555 1_555
H3K C4K 1_555 1_555
H4K C4K 1_555 1_555
H5K C4K 1_555 1_555
C5K C2K 1_555 1_555
H6K C5K 1_555 1_555
O2K C5K 1_555 1_555
H7K O2K 1_555 1_555
C6K C5K 1_555 1_555
H8K C6K 1_555 1_555
H9K C6K 1_555 1_555
H10K C6K 1_555 1_555
N3F Cu3B 1_555 1_555
N3G Cu3 1_555 1_555
N3H Cu3C 1_555 1_555
Cu3A N3J 1_555 1_555
Cu3D N3I 1_555 1_555
Cu3E N3K 1_555 1_555
C2 N3 1_555 1_555
C1B N2B 1_555 1_555
C2B N3B 1_555 1_555
C1C N2C 1_555 1_555
C2C N3C 1_555 1_555
C2I N3I 1_555 1_555
N1I N2I 1_555 1_555
C1J N2J 1_555 1_555
C2J N3J 1_555 1_555
N1J N2J 1_555 1_555
C1K N2K 1_555 1_555
C2K N3K 1_555 1_555
N1K N2K 1_555 1_555

#END
