
#######################################################################
#
#                 Cambridge Crystallographic Data Centre
#                                CCDC 
#
#######################################################################
#
# If this CIF has been generated from an entry in the Cambridge 
# Structural Database, then it will include bibliographic, chemical, 
# crystal, experimental, refinement or atomic coordinate data resulting 
# from the CCDC's data processing and validation procedures.
#
#######################################################################

data_CEXHET
_chemical_formula_moiety         '(C292 H216 Ag6 F18 Fe6 N56 O18 S6)n'
_symmetry_cell_setting           monoclinic
_symmetry_space_group_name_H-M   'C 2/c'
_symmetry_Int_Tables_number      15
_space_group_name_Hall           '-C 2yc'
loop_
_symmetry_equiv_pos_site_id
_symmetry_equiv_pos_as_xyz
1 x,y,z
2 1/2+x,1/2+y,z
3 -x,y,1/2-z
4 1/2-x,1/2+y,1/2-z
5 -x,-y,-z
6 1/2-x,1/2-y,-z
7 x,-y,1/2+z
8 1/2+x,1/2-y,1/2+z
_cell_length_a                   33.186(5)
_cell_length_b                   66.054(10)
_cell_length_c                   14.882(2)
_cell_angle_alpha                90
_cell_angle_beta                 110.699(2)
_cell_angle_gamma                90
_cell_volume                     30516.6
loop_
_atom_site_label
_atom_site_type_symbol
_atom_site_fract_x
_atom_site_fract_y
_atom_site_fract_z
Ag1 Ag 0.34545(2) 1.123730(9) 0.41401(4)
Fe1 Fe 0.35319(4) 0.974060(16) 0.38890(9)
C1 C 0.2840(3) 0.94935(12) 0.2490(6)
H1 H 0.2616 0.9578 0.2537
C2 C 0.2769(4) 0.93129(14) 0.1965(7)
H2 H 0.2497 0.9254 0.1611
C3 C 0.3166(4) 0.92372(14) 0.2060(7)
H3 H 0.3225 0.9116 0.1787
C4 C 0.3471(3) 0.93764(12) 0.2649(6)
C5 C 0.3916(3) 0.93765(12) 0.2873(6)
C6 C 0.4197(3) 0.95308(13) 0.3298(6)
C7 C 0.4650(3) 0.95516(15) 0.3470(7)
H4 H 0.4824 0.9453 0.3313
C8 C 0.4789(3) 0.97315(14) 0.3886(7)
H5 H 0.5072 0.9785 0.4056
C9 C 0.4431(3) 0.98246(13) 0.4021(7)
H6 H 0.4439 0.9953 0.4311
C10 C 0.4105(3) 0.91879(13) 0.2617(7)
C11 C 0.4122(3) 0.90173(13) 0.3162(8)
H7 H 0.4003 0.9017 0.3656
C12 C 0.4317(3) 0.88477(15) 0.2970(9)
H8 H 0.4335 0.8732 0.3362
C13 C 0.4468(7) 0.8998(2) 0.1795(11)
H9 H 0.4595 0.8995 0.1314
C14 C 0.4282(6) 0.91746(19) 0.1942(10)
H10 H 0.4279 0.9289 0.1555
C15 C 0.0925(3) 0.44244(13) -0.0189(7)
H11 H 0.0663 0.4480 -0.0178
C16 C 0.0964(3) 0.42348(13) -0.0625(6)
H12 H 0.0735 0.4146 -0.0958
C17 C 0.1385(3) 0.42072(13) -0.0474(7)
H13 H 0.1510 0.4093 -0.0665
C18 C 0.1608(3) 0.43814(12) 0.0025(6)
C19 C 0.2035(3) 0.44276(12) 0.0239(6)
C20 C 0.2224(3) 0.46108(12) 0.0609(6)
C21 C 0.2647(3) 0.46799(14) 0.0717(7)
H14 H 0.2863 0.4607 0.0572
C22 C 0.2678(3) 0.48771(14) 0.1080(6)
H15 H 0.2921 0.4964 0.1231
C23 C 0.2291(3) 0.49207(12) 0.1176(6)
H16 H 0.2227 0.5046 0.1404
C24 C 0.2316(3) 0.42654(12) 0.0079(6)
C25 C 0.2429(3) 0.41017(13) 0.0685(7)
H17 H 0.2330 0.4093 0.1210
C26 C 0.2684(3) 0.39503(14) 0.0540(7)
H18 H 0.2765 0.3842 0.0989
C27 C 0.2740(3) 0.41118(15) -0.0762(7)
H19 H 0.2858 0.4120 -0.1257
C28 C 0.2485(3) 0.42719(15) -0.0653(7)
H20 H 0.2427 0.4385 -0.1076
C29 C 0.3980(3) 0.99058(13) 0.5824(6)
H21 H 0.4032 0.9774 0.6092
C30 C 0.4095(3) 1.00841(12) 0.6368(7)
H22 H 0.4243 1.0095 0.7042
C31 C 0.3951(3) 1.02391(12) 0.5729(7)
H23 H 0.3973 1.0380 0.5876
C32 C 0.3759(3) 1.01513(12) 0.4801(6)
C33 C 0.3588(2) 1.02553(12) 0.3931(6)
C34 C 0.3423(3) 1.01631(12) 0.3032(7)
C35 C 0.3275(3) 1.02548(12) 0.2113(6)
H24 H 0.3270 1.0396 0.1986
C36 C 0.3143(3) 1.01079(13) 0.1454(7)
H25 H 0.3028 1.0125 0.0776
C37 C 0.3207(3) 0.99234(13) 0.1961(6)
H26 H 0.3139 0.9794 0.1665
C38 C 0.3586(3) 1.04777(12) 0.3959(6)
C39 C 0.3188(3) 1.05773(13) 0.3630(8)
H27 H 0.2926 1.0504 0.3361
C40 C 0.3188(3) 1.07853(13) 0.3709(8)
H28 H 0.2915 1.0850 0.3506
C41 C 0.3908(3) 1.08052(12) 0.4276(7)
H29 H 0.4163 1.0885 0.4471
C42 C 0.3945(3) 1.06009(12) 0.4255(7)
H30 H 0.4223 1.0541 0.4449
N1 N 0.3254(2) 0.95329(9) 0.2911(5)
N2 N 0.4077(2) 0.97063(10) 0.3682(5)
N3 N 0.4479(4) 0.88323(13) 0.2301(7)
N4 N 0.1306(2) 0.45092(9) 0.0193(5)
N5 N 0.2012(2) 0.47645(10) 0.0909(4)
N6 N 0.2823(2) 0.39477(10) -0.0199(5)
N7 N 0.3790(2) 0.99424(9) 0.4892(5)
N8 N 0.3374(2) 0.99524(9) 0.2900(5)
N9 N 0.3525(2) 1.09009(10) 0.4033(5)
Ag2 Ag 0.33111(2) 0.370830(10) -0.02280(5)
Fe2 Fe 0.33391(3) 0.221249(15) -0.09316(7)
C43 C 0.2633(2) 0.19146(12) -0.1854(6)
H31 H 0.2545 0.1982 -0.2457
C44 C 0.2471(3) 0.17254(11) -0.1690(6)
H32 H 0.2257 0.1646 -0.2148
C45 C 0.2678(2) 0.16808(11) -0.0756(6)
H33 H 0.2642 0.1561 -0.0440
C46 C 0.2963(2) 0.18450(11) -0.0320(6)
C47 C 0.3213(2) 0.18704(12) 0.0629(6)
C48 C 0.3455(3) 0.20468(11) 0.1017(5)
C49 C 0.3684(3) 0.20877(13) 0.1992(6)
H34 H 0.3705 0.2004 0.2525
C50 C 0.3875(2) 0.22763(12) 0.2016(6)
H35 H 0.4049 0.2346 0.2575
C51 C 0.3763(2) 0.23432(12) 0.1077(6)
H36 H 0.3850 0.2469 0.0893
C52 C 0.3228(3) 0.17066(12) 0.1323(6)
C53 C 0.2873(3) 0.16413(12) 0.1509(6)
H37 H 0.2599 0.1699 0.1170
C54 C 0.2911(3) 0.14911(12) 0.2193(6)
H38 H 0.2662 0.1449 0.2317
C55 C 0.3642(3) 0.14624(14) 0.2465(7)
H39 H 0.3911 0.1398 0.2783
C56 C 0.3626(3) 0.16128(14) 0.1797(7)
H40 H 0.3876 0.1651 0.1666
C57 C 0.2918(2) 0.23472(12) -0.2923(6)
H41 H 0.2820 0.2468 -0.2721
C58 C 0.2813(2) 0.22893(12) -0.3880(6)
H42 H 0.2639 0.2362 -0.4430
C59 C 0.3009(2) 0.21066(12) -0.3870(5)
H43 H 0.2992 0.2026 -0.4412
C60 C 0.3244(2) 0.20608(11) -0.2891(6)
C61 C 0.3497(2) 0.18909(11) -0.2540(5)
C62 C 0.3748(2) 0.18604(11) -0.1586(6)
C63 C 0.4053(3) 0.17011(11) -0.1195(6)
H44 H 0.4110 0.1589 -0.1534
C64 C 0.4247(3) 0.17423(12) -0.0222(6)
H45 H 0.4463 0.1664 0.0239
C65 C 0.4063(2) 0.19203(11) -0.0057(6)
H46 H 0.4141 0.1983 0.0557
C66 C 0.3510(3) 0.17325(10) -0.3242(5)
C67 C 0.3174(3) 0.15981(13) -0.3612(6)
H47 H 0.2930 0.1605 -0.3421
C68 C 0.3195(3) 0.14539(13) -0.4256(7)
H48 H 0.2962 0.1361 -0.4483
C69 C 0.3842(3) 0.15641(13) -0.4217(7)
H49 H 0.4081 0.1552 -0.4426
C70 C 0.3857(3) 0.17146(12) -0.3553(6)
H50 H 0.4098 0.1803 -0.3318
C71 C 0.4173(2) 0.23968(11) -0.0721(5)
H51 H 0.4294 0.2268 -0.0753
C72 C 0.4409(3) 0.25762(12) -0.0545(6)
H52 H 0.4707 0.2591 -0.0437
C73 C 0.4124(2) 0.27259(11) -0.0560(5)
H53 H 0.4188 0.2866 -0.0464
C74 C 0.3716(2) 0.26357(11) -0.0743(5)
C75 C 0.3344(2) 0.27291(11) -0.0786(5)
C76 C 0.2954(2) 0.26287(11) -0.0914(5)
C77 C 0.2542(2) 0.27145(11) -0.1052(5)
H54 H 0.2481 0.2855 -0.1039
C78 C 0.2250(3) 0.25619(12) -0.1207(5)
H55 H 0.1951 0.2574 -0.1322
C79 C 0.2487(2) 0.23815(12) -0.1160(5)
H56 H 0.2366 0.2250 -0.1238
C80 C 0.3346(2) 0.29530(11) -0.0657(6)
C81 C 0.3362(3) 0.30838(11) -0.1373(6)
H57 H 0.3381 0.3031 -0.1951
C82 C 0.3350(2) 0.32882(12) -0.1248(6)
H58 H 0.3363 0.3375 -0.1746
C83 C 0.3319(3) 0.32452(12) 0.0255(6)
H59 H 0.3314 0.3299 0.0843
C84 C 0.3324(2) 0.30388(12) 0.0152(6)
H60 H 0.3313 0.2954 0.0659
N10 N 0.2927(2) 0.19866(9) -0.1051(4)
N11 N 0.35126(19) 0.22050(9) 0.0458(4)
N12 N 0.3301(2) 0.14023(10) 0.2690(5)
N13 N 0.3171(2) 0.22118(9) -0.2331(4)
N14 N 0.37670(18) 0.19953(9) -0.0847(4)
N15 N 0.3512(2) 0.14348(9) -0.4584(5)
N16 N 0.37629(17) 0.24242(9) -0.0838(4)
N17 N 0.29029(18) 0.24194(9) -0.0995(4)
N18 N 0.33205(19) 0.33731(10) -0.0435(5)
Ag3 Ag 0.5000 0.617230(14) -0.2500
Fe3 Fe 0.5000 0.46712(2) -0.2500
C85 C 0.4116(3) 0.40285(12) 0.0189(7)
H61 H 0.4134 0.4023 0.0840
C86 C 0.4349(3) 0.41766(13) -0.0068(6)
H62 H 0.4519 0.4270 0.0397
C87 C 0.4332(3) 0.41871(12) -0.0998(6)
C88 C 0.4082(3) 0.40442(14) -0.1643(7)
H63 H 0.4062 0.4044 -0.2296
C89 C 0.3865(3) 0.39034(13) -0.1312(7)
H64 H 0.3700 0.3805 -0.1757
C90 C 0.4552(3) 0.43461(11) -0.1362(6)
C91 C 0.4306(3) 0.45162(12) -0.1820(6)
C92 C 0.3875(3) 0.45564(12) -0.1926(6)
H65 H 0.3694 0.4475 -0.1704
C93 C 0.3769(3) 0.47336(13) -0.2403(7)
H66 H 0.3501 0.4802 -0.2565
C94 C 0.4131(3) 0.47980(13) -0.2618(6)
H67 H 0.4138 0.4917 -0.2972
C95 C 0.4993(3) 0.43200(12) -0.1214(6)
C96 C 0.5269(3) 0.41649(13) -0.0660(7)
H68 H 0.5186 0.4054 -0.0356
C97 C 0.5671(3) 0.42057(13) -0.0650(7)
H69 H 0.5926 0.4131 -0.0329
C98 C 0.5637(3) 0.43819(13) -0.1212(7)
H70 H 0.5872 0.4443 -0.1331
C99 C 0.4585(3) 0.48429(14) -0.4442(6)
H71 H 0.4519 0.4712 -0.4721
C100 C 0.4484(3) 0.50297(13) -0.4968(7)
H72 H 0.4348 0.5045 -0.5643
C101 C 0.4621(3) 0.51789(13) -0.4305(6)
H73 H 0.4590 0.5320 -0.4431
C102 C 0.4821(3) 0.50878(12) -0.3386(6)
C103 C 0.5000 0.51827(16) -0.2500
C104 C 0.5000 0.54142(18) -0.2500
C105 C 0.5270(3) 0.55191(12) -0.2863(7)
H74 H 0.5455 0.5450 -0.3123
C106 C 0.5260(3) 0.57280(13) -0.2833(6)
H75 H 0.5451 0.5801 -0.3064
N19 N 0.3868(2) 0.38927(10) -0.0427(5)
N20 N 0.4465(2) 0.46681(10) -0.2251(5)
N21 N 0.5235(2) 0.44505(10) -0.1551(5)
N22 N 0.4789(2) 0.48793(10) -0.3493(5)
N23 N 0.5000 0.58344(15) -0.2500
Ag4 Ag 0.5000 0.859381(15) 0.2500
Fe4 Fe 0.5000 0.71044(2) 0.2500
C107 C 0.5495(3) 0.64920(13) -0.0891(7)
H76 H 0.5693 0.6500 -0.1220
C108 C 0.5522(3) 0.66325(12) -0.0173(6)
H77 H 0.5735 0.6736 -0.0023
C109 C 0.5243(3) 0.66221(12) 0.0315(6)
C110 C 0.4955(3) 0.64632(13) 0.0113(7)
H78 H 0.4768 0.6446 0.0466
C111 C 0.4942(3) 0.63276(13) -0.0620(6)
H79 H 0.4744 0.6218 -0.0761
C112 C 0.5712(3) 0.68153(12) 0.3521(6)
H80 H 0.5765 0.6877 0.4128
C113 C 0.5926(3) 0.66385(12) 0.3370(6)
H81 H 0.6142 0.6563 0.3845
C114 C 0.5759(3) 0.65990(12) 0.2414(6)
H82 H 0.5834 0.6488 0.2100
C115 C 0.5453(3) 0.67525(11) 0.1962(6)
C116 C 0.5228(3) 0.67837(12) 0.1011(6)
C117 C 0.4969(3) 0.69451(11) 0.0593(5)
C118 C 0.4747(2) 0.69841(12) -0.0391(6)
H83 H 0.4749 0.6901 -0.0910
C119 C 0.4531(3) 0.71606(13) -0.0468(6)
H84 H 0.4362 0.7227 -0.1046
C120 C 0.4606(2) 0.72288(12) 0.0486(5)
H85 H 0.4485 0.7348 0.0646
C121 C 0.5864(3) 0.72779(12) 0.2860(6)
H86 H 0.5988 0.7147 0.2889
C122 C 0.6100(2) 0.74613(12) 0.3029(5)
H87 H 0.6402 0.7476 0.3191
C123 C 0.5808(2) 0.76125(12) 0.2914(5)
H88 H 0.5872 0.7753 0.2981
C124 C 0.5387(2) 0.75237(11) 0.2674(5)
C125 C 0.5000 0.76177(15) 0.2500
C126 C 0.5000 0.78428(17) 0.2500
C127 C 0.5052(2) 0.79523(11) 0.1750(6)
H89 H 0.5091 0.7883 0.1227
C128 C 0.5048(2) 0.81588(13) 0.1761(6)
H90 H 0.5079 0.8231 0.1238
N24 N 0.5202(3) 0.63477(10) -0.1127(5)
N25 N 0.54266(19) 0.68830(9) 0.2687(4)
N26 N 0.4866(2) 0.71026(9) 0.1117(4)
N27 N 0.54409(18) 0.73125(9) 0.2654(4)
N28 N 0.5000 0.82633(13) 0.2500
S1 S 0.47529(9) 1.12855(5) 0.4785(2)
C129 C 0.4903(5) 1.1275(2) 0.3733(12)
F1 F 0.4718(3) 1.11306(15) 0.3194(8)
F2 F 0.5344(3) 1.12448(14) 0.4098(9)
F3 F 0.4828(3) 1.14578(13) 0.3346(6)
O1 O 0.4889(3) 1.10553(14) 0.5114(7)
O2 O 0.4303(2) 1.12965(11) 0.4461(5)
O3 O 0.4991(2) 1.14261(9) 0.5455(5)
S2 S 0.38363(9) 0.36711(4) 0.24360(18)
C130 C 0.3633(4) 0.37148(15) 0.3400(8)
F4 F 0.3928(2) 0.37411(12) 0.4232(4)
F5 F 0.3375(2) 0.35653(10) 0.3482(5)
F6 F 0.3385(2) 0.38795(10) 0.3250(5)
O4 O 0.3452(2) 0.36578(12) 0.1604(5)
O5 O 0.4060(2) 0.34824(10) 0.2697(5)
O6 O 0.4099(2) 0.38403(10) 0.2486(5)
S3 S 0.21798(8) 1.11705(3) 0.33689(17)
C131 C 0.1924(4) 1.11803(17) 0.4248(9)
F7 F 0.1995(2) 1.13550(11) 0.4717(5)
F8 F 0.1493(2) 1.11634(10) 0.3842(5)
F9 F 0.2064(3) 1.10406(12) 0.4905(5)
O7 O 0.1991(2) 1.13327(9) 0.2741(5)
O8 O 0.2629(2) 1.12010(10) 0.3931(4)
O9 O 0.2070(2) 1.09696(9) 0.2965(5)
Ag1B Ag 0.65455(2) 1.123730(9) 0.08599(4)
Ag1_2 Ag 0.34545(2) 0.123730(9) 0.41401(4)
Ag1_3 Ag 0.34545(2) 0.123730(9) -0.58599(4)
Ag1B_2 Ag 0.65455(2) 0.123730(9) -0.91401(4)
Ag1B_3 Ag 0.65455(2) 0.123730(9) 0.08599(4)
Fe1B Fe 0.64681(4) 0.974060(16) 0.11110(9)
Fe1C Fe 0.14681(4) 0.474060(16) 0.11110(9)
Fe1A Fe 0.85319(4) 0.474060(16) -0.61110(9)
C1B C 0.7160(3) 0.94935(12) 0.2510(6)
H1B H 0.7384 0.9578 0.2463
C2B C 0.7231(4) 0.93129(14) 0.3035(7)
H2B H 0.7503 0.9254 0.3389
C3B C 0.6834(4) 0.92372(14) 0.2940(7)
H3B H 0.6775 0.9116 0.3213
C4B C 0.6529(3) 0.93764(12) 0.2351(6)
C5B C 0.6084(3) 0.93765(12) 0.2127(6)
C6B C 0.5803(3) 0.95308(13) 0.1702(6)
C7B C 0.5350(3) 0.95516(15) 0.1530(7)
H4B H 0.5176 0.9453 0.1687
C8B C 0.5211(3) 0.97315(14) 0.1114(7)
H5B H 0.4928 0.9785 0.0944
C9B C 0.5569(3) 0.98246(13) 0.0979(7)
H6B H 0.5561 0.9953 0.0689
C10B C 0.5895(3) 0.91879(13) 0.2383(7)
C11B C 0.5878(3) 0.90173(13) 0.1838(8)
H7B H 0.5997 0.9017 0.1344
C12B C 0.5683(3) 0.88477(15) 0.2030(9)
H8B H 0.5665 0.8732 0.1638
C13B C 0.5532(7) 0.8998(2) 0.3205(11)
H9B H 0.5405 0.8995 0.3686
C14B C 0.5718(6) 0.91746(19) 0.3058(10)
H10B H 0.5721 0.9289 0.3445
C15B C 0.9075(3) 0.44244(13) -0.4811(7)
H11B H 0.9337 0.4480 -0.4822
C16B C 0.9036(3) 0.42348(13) -0.4375(6)
H12B H 0.9265 0.4146 -0.4042
C17B C 0.8615(3) 0.42072(13) -0.4526(7)
H13B H 0.8490 0.4093 -0.4335
C18B C 0.8392(3) 0.43814(12) -0.5025(6)
C19B C 0.7965(3) 0.44276(12) -0.5239(6)
C20B C 0.7776(3) 0.46108(12) -0.5609(6)
C21B C 0.7353(3) 0.46799(14) -0.5717(7)
H14B H 0.7137 0.4607 -0.5572
C22B C 0.7322(3) 0.48771(14) -0.6080(6)
H15B H 0.7079 0.4964 -0.6231
C23B C 0.7709(3) 0.49207(12) -0.6176(6)
H16B H 0.7773 0.5046 -0.6404
C24B C 0.7684(3) 0.42654(12) -0.5079(6)
C25B C 0.7571(3) 0.41017(13) -0.5685(7)
H17B H 0.7670 0.4093 -0.6210
C26B C 0.7316(3) 0.39503(14) -0.5540(7)
H18B H 0.7235 0.3842 -0.5989
C27B C 0.7260(3) 0.41118(15) -0.4238(7)
H19B H 0.7142 0.4120 -0.3743
C28B C 0.7515(3) 0.42719(15) -0.4347(7)
H20B H 0.7573 0.4385 -0.3924
C29B C 0.6020(3) 0.99058(13) -0.0824(6)
H21B H 0.5968 0.9774 -0.1092
C30B C 0.5905(3) 1.00841(12) -0.1368(7)
H22B H 0.5757 1.0095 -0.2042
C31B C 0.6049(3) 1.02391(12) -0.0729(7)
H23B H 0.6027 1.0380 -0.0876
C32B C 0.6241(3) 1.01513(12) 0.0199(6)
C33B C 0.6412(2) 1.02553(12) 0.1069(6)
C34B C 0.6577(3) 1.01631(12) 0.1968(7)
C35B C 0.6725(3) 1.02548(12) 0.2887(6)
H24B H 0.6730 1.0396 0.3014
C36B C 0.6857(3) 1.01079(13) 0.3546(7)
H25B H 0.6972 1.0125 0.4224
C37B C 0.6793(3) 0.99234(13) 0.3039(6)
H26B H 0.6861 0.9794 0.3335
C38B C 0.6414(3) 1.04777(12) 0.1041(6)
C39B C 0.6812(3) 1.05773(13) 0.1370(8)
H27B H 0.7074 1.0504 0.1639
C40B C 0.6812(3) 1.07853(13) 0.1291(8)
H28B H 0.7085 1.0850 0.1494
C41B C 0.6092(3) 1.08052(12) 0.0724(7)
H29B H 0.5837 1.0885 0.0529
C42B C 0.6055(3) 1.06009(12) 0.0745(7)
H30B H 0.5777 1.0541 0.0551
N1B N 0.6746(2) 0.95329(9) 0.2089(5)
N2B N 0.5923(2) 0.97063(10) 0.1318(5)
N3B N 0.5521(4) 0.88323(13) 0.2699(7)
N4B N 0.8694(2) 0.45092(9) -0.5193(5)
N4C N 0.3694(2) 0.95092(9) 0.4807(5)
N4A N 0.6306(2) 0.95092(9) 0.0193(5)
N5B N 0.7988(2) 0.47645(10) -0.5909(4)
N5C N 0.2988(2) 0.97645(10) 0.4091(4)
N5A N 0.7012(2) 0.97645(10) 0.0909(4)
N6B N 0.7177(2) 0.39477(10) -0.4801(5)
N7B N 0.6210(2) 0.99424(9) 0.0108(5)
N8B N 0.6626(2) 0.99524(9) 0.2100(5)
N9B N 0.6475(2) 1.09009(10) 0.0967(5)
Ag2B Ag 0.66889(2) 0.370830(10) -0.47720(5)
Fe2B Fe 0.66609(3) 0.221249(15) -0.40684(7)
C43B C 0.7367(2) 0.19146(12) -0.3146(6)
H31B H 0.7455 0.1982 -0.2543
C44B C 0.7529(3) 0.17254(11) -0.3310(6)
H32B H 0.7743 0.1646 -0.2852
C45B C 0.7322(2) 0.16808(11) -0.4244(6)
H33B H 0.7358 0.1561 -0.4560
C46B C 0.7037(2) 0.18450(11) -0.4680(6)
C47B C 0.6787(2) 0.18704(12) -0.5629(6)
C48B C 0.6545(3) 0.20468(11) -0.6017(5)
C49B C 0.6316(3) 0.20877(13) -0.6992(6)
H34B H 0.6295 0.2004 -0.7525
C50B C 0.6125(2) 0.22763(12) -0.7016(6)
H35B H 0.5951 0.2346 -0.7575
C51B C 0.6237(2) 0.23432(12) -0.6077(6)
H36B H 0.6150 0.2469 -0.5893
C52B C 0.6772(3) 0.17066(12) -0.6323(6)
C53B C 0.7127(3) 0.16413(12) -0.6509(6)
H37B H 0.7401 0.1699 -0.6170
C54B C 0.7089(3) 0.14911(12) -0.7193(6)
H38B H 0.7338 0.1449 -0.7317
C55B C 0.6358(3) 0.14624(14) -0.7465(7)
H39B H 0.6089 0.1398 -0.7783
C56B C 0.6374(3) 0.16128(14) -0.6797(7)
H40B H 0.6124 0.1651 -0.6666
C57B C 0.7082(2) 0.23472(12) -0.2077(6)
H41B H 0.7180 0.2468 -0.2279
C58B C 0.7187(2) 0.22893(12) -0.1120(6)
H42B H 0.7361 0.2362 -0.0570
C59B C 0.6991(2) 0.21066(12) -0.1130(5)
H43B H 0.7008 0.2026 -0.0588
C60B C 0.6756(2) 0.20608(11) -0.2109(6)
C61B C 0.6503(2) 0.18909(11) -0.2460(5)
C62B C 0.6252(2) 0.18604(11) -0.3414(6)
C63B C 0.5947(3) 0.17011(11) -0.3805(6)
H44B H 0.5890 0.1589 -0.3466
C64B C 0.5753(3) 0.17423(12) -0.4778(6)
H45B H 0.5537 0.1664 -0.5239
C65B C 0.5937(2) 0.19203(11) -0.4943(6)
H46B H 0.5859 0.1983 -0.5557
C66B C 0.6490(3) 0.17325(10) -0.1758(5)
C67B C 0.6826(3) 0.15981(13) -0.1388(6)
H47B H 0.7070 0.1605 -0.1579
C68B C 0.6805(3) 0.14539(13) -0.0744(7)
H48B H 0.7038 0.1361 -0.0517
C69B C 0.6158(3) 0.15641(13) -0.0783(7)
H49B H 0.5919 0.1552 -0.0574
C70B C 0.6143(3) 0.17146(12) -0.1447(6)
H50B H 0.5902 0.1803 -0.1682
C71B C 0.5827(2) 0.23968(11) -0.4279(5)
H51B H 0.5706 0.2268 -0.4247
C72B C 0.5591(3) 0.25762(12) -0.4455(6)
H52B H 0.5293 0.2591 -0.4563
C73B C 0.5876(2) 0.27259(11) -0.4440(5)
H53B H 0.5812 0.2866 -0.4536
C74B C 0.6284(2) 0.26357(11) -0.4257(5)
C75B C 0.6656(2) 0.27291(11) -0.4214(5)
C76B C 0.7046(2) 0.26287(11) -0.4086(5)
C77B C 0.7458(2) 0.27145(11) -0.3948(5)
H54B H 0.7519 0.2855 -0.3961
C78B C 0.7750(3) 0.25619(12) -0.3793(5)
H55B H 0.8049 0.2574 -0.3678
C79B C 0.7513(2) 0.23815(12) -0.3840(5)
H56B H 0.7634 0.2250 -0.3762
C80B C 0.6654(2) 0.29530(11) -0.4343(6)
C81B C 0.6638(3) 0.30838(11) -0.3627(6)
H57B H 0.6619 0.3031 -0.3049
C82B C 0.6650(2) 0.32882(12) -0.3752(6)
H58B H 0.6637 0.3375 -0.3254
C83B C 0.6681(3) 0.32452(12) -0.5255(6)
H59B H 0.6686 0.3299 -0.5843
C84B C 0.6676(2) 0.30388(12) -0.5152(6)
H60B H 0.6687 0.2954 -0.5659
N10B N 0.7073(2) 0.19866(9) -0.3949(4)
N11B N 0.64874(19) 0.22050(9) -0.5458(4)
N12B N 0.6699(2) 0.14023(10) -0.7690(5)
N12_2 N 0.3301(2) 1.14023(10) 0.2690(5)
N12B_2 N 0.6699(2) 1.14023(10) 0.2310(5)
N13B N 0.6829(2) 0.22118(9) -0.2669(4)
N14B N 0.62330(18) 0.19953(9) -0.4153(4)
N15B N 0.6488(2) 0.14348(9) -0.0416(5)
N15_2 N 0.3512(2) 1.14348(9) 0.5416(5)
N15B_2 N 0.6488(2) 1.14348(9) -0.0416(5)
N16B N 0.62371(17) 0.24242(9) -0.4162(4)
N17B N 0.70971(18) 0.24194(9) -0.4005(4)
N18B N 0.66795(19) 0.33731(10) -0.4565(5)
C85B C 0.5884(3) 0.40285(12) -0.5189(7)
H61B H 0.5866 0.4023 -0.5840
C86B C 0.5651(3) 0.41766(13) -0.4932(6)
H62B H 0.5481 0.4270 -0.5397
C87B C 0.5668(3) 0.41871(12) -0.4002(6)
C88B C 0.5918(3) 0.40442(14) -0.3357(7)
H63B H 0.5938 0.4044 -0.2704
C89B C 0.6135(3) 0.39034(13) -0.3688(7)
H64B H 0.6300 0.3805 -0.3243
C90B C 0.5448(3) 0.43461(11) -0.3638(6)
C91B C 0.5694(3) 0.45162(12) -0.3180(6)
C92B C 0.6125(3) 0.45564(12) -0.3074(6)
H65B H 0.6306 0.4475 -0.3296
C93B C 0.6231(3) 0.47336(13) -0.2597(7)
H66B H 0.6499 0.4802 -0.2435
C94B C 0.5869(3) 0.47980(13) -0.2382(6)
H67B H 0.5862 0.4917 -0.2028
C95B C 0.5007(3) 0.43200(12) -0.3786(6)
C96B C 0.4731(3) 0.41649(13) -0.4340(7)
H68B H 0.4814 0.4054 -0.4644
C97B C 0.4329(3) 0.42057(13) -0.4350(7)
H69B H 0.4074 0.4131 -0.4671
C98B C 0.4363(3) 0.43819(13) -0.3788(7)
H70B H 0.4128 0.4443 -0.3669
C99B C 0.5415(3) 0.48429(14) -0.0558(6)
H71B H 0.5481 0.4712 -0.0279
C100B C 0.5516(3) 0.50297(13) -0.0032(7)
H72B H 0.5652 0.5045 0.0643
C101B C 0.5379(3) 0.51789(13) -0.0695(6)
H73B H 0.5410 0.5320 -0.0569
C102B C 0.5179(3) 0.50878(12) -0.1614(6)
C105B C 0.4730(3) 0.55191(12) -0.2137(7)
H74B H 0.4545 0.5450 -0.1877
C106B C 0.4740(3) 0.57280(13) -0.2167(6)
H75B H 0.4549 0.5801 -0.1936
N19B N 0.6132(2) 0.38927(10) -0.4573(5)
N20B N 0.5535(2) 0.46681(10) -0.2749(5)
N21B N 0.4765(2) 0.44505(10) -0.3449(5)
N22B N 0.5211(2) 0.48793(10) -0.1507(5)
Fe4_2 Fe 0.5000 0.71044(2) -0.7500
C107B C 0.4505(3) 0.64920(13) -0.4109(7)
H76B H 0.4307 0.6500 -0.3780
C108B C 0.4478(3) 0.66325(12) -0.4827(6)
H77B H 0.4265 0.6736 -0.4977
C109B C 0.4757(3) 0.66221(12) -0.5315(6)
C110B C 0.5045(3) 0.64632(13) -0.5113(7)
H78B H 0.5232 0.6446 -0.5466
C111B C 0.5058(3) 0.63276(13) -0.4380(6)
H79B H 0.5256 0.6218 -0.4239
C112B C 0.4288(3) 0.68153(12) -0.8521(6)
H80B H 0.4235 0.6877 -0.9128
C113B C 0.4074(3) 0.66385(12) -0.8370(6)
H81B H 0.3858 0.6563 -0.8845
C114B C 0.4241(3) 0.65990(12) -0.7414(6)
H82B H 0.4166 0.6488 -0.7100
C115B C 0.4547(3) 0.67525(11) -0.6962(6)
C116B C 0.4772(3) 0.67837(12) -0.6011(6)
C117B C 0.5031(3) 0.69451(11) -0.5593(5)
C118B C 0.5253(2) 0.69841(12) -0.4609(6)
H83B H 0.5251 0.6901 -0.4090
C119B C 0.5469(3) 0.71606(13) -0.4532(6)
H84B H 0.5638 0.7227 -0.3954
C120B C 0.5394(2) 0.72288(12) -0.5486(5)
H85B H 0.5515 0.7348 -0.5646
C121B C 0.4136(3) 0.72779(12) 0.2140(6)
H86B H 0.4012 0.7147 0.2111
C122B C 0.3900(2) 0.74613(12) 0.1971(5)
H87B H 0.3598 0.7476 0.1809
C123B C 0.4192(2) 0.76125(12) 0.2086(5)
H88B H 0.4128 0.7753 0.2019
C124B C 0.4613(2) 0.75237(11) 0.2326(5)
C127B C 0.4948(2) 0.79523(11) 0.3250(6)
H89B H 0.4909 0.7883 0.3773
C128B C 0.4952(2) 0.81588(13) 0.3239(6)
H90B H 0.4921 0.8231 0.3762
N24B N 0.4798(3) 0.63477(10) -0.3873(5)
N25B N 0.45734(19) 0.68830(9) -0.7687(4)
N25B_2 N 0.45734(19) 0.68830(9) 0.2313(4)
N26B N 0.5134(2) 0.71026(9) -0.6117(4)
N26B_2 N 0.5134(2) 0.71026(9) 0.3883(4)
N27B N 0.45591(18) 0.73125(9) 0.2346(4)
S1B S 0.52471(9) 1.12855(5) 0.0215(2)
C129B C 0.5097(5) 1.1275(2) 0.1267(12)
F1B F 0.5282(3) 1.11306(15) 0.1806(8)
F2B F 0.4656(3) 1.12448(14) 0.0902(9)
F3B F 0.5172(3) 1.14578(13) 0.1654(6)
O1B O 0.5111(3) 1.10553(14) -0.0114(7)
O2B O 0.5697(2) 1.12965(11) 0.0539(5)
O3B O 0.5009(2) 1.14261(9) -0.0455(5)
S2B S 0.61637(9) 0.36711(4) -0.74360(18)
C130B C 0.6367(4) 0.37148(15) -0.8400(8)
F4B F 0.6072(2) 0.37411(12) -0.9232(4)
F5B F 0.6625(2) 0.35653(10) -0.8482(5)
F6B F 0.6615(2) 0.38795(10) -0.8250(5)
O4B O 0.6548(2) 0.36578(12) -0.6604(5)
O5B O 0.5940(2) 0.34824(10) -0.7697(5)
O6B O 0.5901(2) 0.38403(10) -0.7486(5)
S3B S 0.78202(8) 1.11705(3) 0.16311(17)
C131B C 0.8076(4) 1.11803(17) 0.0752(9)
F7B F 0.8005(2) 1.13550(11) 0.0283(5)
F8B F 0.8507(2) 1.11634(10) 0.1158(5)
F9B F 0.7936(3) 1.10406(12) 0.0095(5)
O7B O 0.8009(2) 1.13327(9) 0.2259(5)
O8B O 0.7371(2) 1.12010(10) 0.1069(4)
O9B O 0.7930(2) 1.09696(9) 0.2035(5)
N29 N 0.3297(4) 0.4561(2) 0.4876(8)
C132 C 0.3073(5) 0.4515(2) 0.5274(9)
C133 C 0.2784(5) 0.4461(2) 0.5760(10)
H91 H 0.2942 0.4385 0.6347
H92 H 0.2552 0.4376 0.5338
H93 H 0.2661 0.4584 0.5928
N30 N 0.2785(3) 0.46407(16) 0.7987(8)
C134 C 0.2903(4) 0.47881(19) 0.8384(9)
C135 C 0.3046(4) 0.49863(19) 0.8936(10)
H94 H 0.3031 0.5096 0.8483
H95 H 0.3343 0.4973 0.9387
H96 H 0.2855 0.5017 0.9293
C136 C 0.2971(5) 0.18597(17) 0.3768(7)
H97 H 0.3205 0.1775 0.3789
C137 C 0.3007(4) 0.20659(17) 0.3647(7)
H98 H 0.3258 0.2125 0.3591
C138 C 0.2659(3) 0.21795(15) 0.3612(6)
H99 H 0.2674 0.2320 0.3495
C139 C 0.2292(4) 0.21119(16) 0.3729(7)
H100 H 0.2067 0.2201 0.3732
C140 C 0.2270(4) 0.18974(19) 0.3844(7)
H101 H 0.2021 0.1839 0.3912
C141 C 0.2616(4) 0.17737(15) 0.3858(7)
H102 H 0.2602 0.1631 0.3929
C142 C 0.1601(4) 0.2093(2) 0.5510(10)
H103 H 0.1627 0.2056 0.4916
C143 C 0.1635(3) 0.22908(18) 0.5749(8)
H104 H 0.1694 0.2389 0.5345
C144 C 0.1580(3) 0.23495(17) 0.6611(7)
H105 H 0.1583 0.2488 0.6781
C145 C 0.1522(3) 0.22013(16) 0.7190(8)
H106 H 0.1509 0.2238 0.7796
C146 C 0.1484(3) 0.20025(19) 0.6928(10)
H107 H 0.1423 0.1904 0.7327
C147 C 0.1534(3) 0.19440(18) 0.6057(10)
H108 H 0.1521 0.1806 0.5869
C148 C 0.3726(3) 0.46970(18) 0.2420(9)
H109 H 0.3787 0.4826 0.2724
C149 C 0.3751(3) 0.46736(16) 0.1505(8)
H110 H 0.3813 0.4787 0.1184
C150 C 0.3686(4) 0.4484(2) 0.1063(12)
H111 H 0.3709 0.4464 0.0451
C151 C 0.3583(4) 0.4322(2) 0.1562(13)
H112 H 0.3535 0.4192 0.1278
C152 C 0.3552(5) 0.4351(2) 0.2469(13)
H113 H 0.3486 0.4240 0.2799
C153 C 0.3618(4) 0.45421(19) 0.2879(10)
H114 H 0.3588 0.4564 0.3482
C154 C 0.4608(4) 0.77159(18) 0.9341(8)
H115 H 0.4685 0.7577 0.9349
C155 C 0.4819(4) 0.78572(19) 0.9029(9)
H116 H 0.5048 0.7819 0.8822
C156 C 0.4704(6) 0.8057(3) 0.9012(12)
H117 H 0.4861 0.8155 0.8806
C157 C 0.4383(6) 0.8117(2) 0.9272(13)
H118 H 0.4305 0.8256 0.9221
C158 C 0.4154(5) 0.7978(2) 0.9622(9)
H119 H 0.3928 0.8022 0.9829
C159 C 0.4270(4) 0.77741(19) 0.9656(8)
H120 H 0.4122 0.7675 0.9889
C160 C 0.5000 0.9344(2) 0.7500
H121 H 0.5000 0.9200 0.7500
C161 C 0.5219(4) 0.94526(19) 0.7018(8)
H122 H 0.5369 0.9384 0.6672
C162 C 0.5218(4) 0.96622(18) 0.7046(10)
H123 H 0.5377 0.9735 0.6732
C163 C 0.5000 0.9766(3) 0.7500
H124 H 0.5000 0.9910 0.7500
C161B C 0.4781(4) 0.94526(19) 0.7982(8)
H122B H 0.4631 0.9384 0.8328
C162B C 0.4782(4) 0.96622(18) 0.7954(10)
H123B H 0.4623 0.9735 0.8268
loop_
_geom_bond_atom_site_label_1
_geom_bond_atom_site_label_2
_geom_bond_site_symmetry_1
_geom_bond_site_symmetry_2
Ag1 N9 1_555 1_555
Fe1 N1 1_555 1_555
C1 H1 1_555 1_555
C2 C1 1_555 1_555
H2 C2 1_555 1_555
C3 C2 1_555 1_555
H3 C3 1_555 1_555
C4 C3 1_555 1_555
C5 C4 1_555 1_555
C6 C5 1_555 1_555
C7 C6 1_555 1_555
H4 C7 1_555 1_555
C8 C7 1_555 1_555
H5 C8 1_555 1_555
C9 C8 1_555 1_555
H6 C9 1_555 1_555
C10 C5 1_555 1_555
C11 C10 1_555 1_555
H7 C11 1_555 1_555
C12 C11 1_555 1_555
H8 C12 1_555 1_555
C13 H9 1_555 1_555
C14 C10 1_555 1_555
H10 C14 1_555 1_555
C15 H11 1_555 1_555
C16 C15 1_555 1_555
H12 C16 1_555 1_555
C17 C16 1_555 1_555
H13 C17 1_555 1_555
C18 C17 1_555 1_555
C19 C18 1_555 1_555
C20 C19 1_555 1_555
C21 C20 1_555 1_555
H14 C21 1_555 1_555
C22 C21 1_555 1_555
H15 C22 1_555 1_555
C23 C22 1_555 1_555
H16 C23 1_555 1_555
C24 C19 1_555 1_555
C25 C24 1_555 1_555
H17 C25 1_555 1_555
C26 C25 1_555 1_555
H18 C26 1_555 1_555
C27 H19 1_555 1_555
C28 C24 1_555 1_555
H20 C28 1_555 1_555
C29 H21 1_555 1_555
C30 C29 1_555 1_555
H22 C30 1_555 1_555
C31 C30 1_555 1_555
H23 C31 1_555 1_555
C32 C31 1_555 1_555
C33 C32 1_555 1_555
C34 C33 1_555 1_555
C35 C34 1_555 1_555
H24 C35 1_555 1_555
C36 C35 1_555 1_555
H25 C36 1_555 1_555
C37 C36 1_555 1_555
H26 C37 1_555 1_555
C38 C33 1_555 1_555
C39 C38 1_555 1_555
H27 C39 1_555 1_555
C40 C39 1_555 1_555
H28 C40 1_555 1_555
C41 H29 1_555 1_555
C42 C38 1_555 1_555
H30 C42 1_555 1_555
N1 C1 1_555 1_555
N2 Fe1 1_555 1_555
N3 C12 1_555 1_555
N4 C15 1_555 1_555
N5 C20 1_555 1_555
N6 C26 1_555 1_555
N7 Fe1 1_555 1_555
N8 Fe1 1_555 1_555
N9 C40 1_555 1_555
Ag2 N6 1_555 1_555
Fe2 N10 1_555 1_555
C43 H31 1_555 1_555
C44 C43 1_555 1_555
H32 C44 1_555 1_555
C45 C44 1_555 1_555
H33 C45 1_555 1_555
C46 C45 1_555 1_555
C47 C46 1_555 1_555
C48 C47 1_555 1_555
C49 C48 1_555 1_555
H34 C49 1_555 1_555
C50 C49 1_555 1_555
H35 C50 1_555 1_555
C51 C50 1_555 1_555
H36 C51 1_555 1_555
C52 C47 1_555 1_555
C53 C52 1_555 1_555
H37 C53 1_555 1_555
C54 C53 1_555 1_555
H38 C54 1_555 1_555
C55 H39 1_555 1_555
C56 C52 1_555 1_555
H40 C56 1_555 1_555
C57 H41 1_555 1_555
C58 C57 1_555 1_555
H42 C58 1_555 1_555
C59 C58 1_555 1_555
H43 C59 1_555 1_555
C60 C59 1_555 1_555
C61 C60 1_555 1_555
C62 C61 1_555 1_555
C63 C62 1_555 1_555
H44 C63 1_555 1_555
C64 C63 1_555 1_555
H45 C64 1_555 1_555
C65 C64 1_555 1_555
H46 C65 1_555 1_555
C66 C61 1_555 1_555
C67 C66 1_555 1_555
H47 C67 1_555 1_555
C68 C67 1_555 1_555
H48 C68 1_555 1_555
C69 H49 1_555 1_555
C70 C66 1_555 1_555
H50 C70 1_555 1_555
C71 H51 1_555 1_555
C72 C71 1_555 1_555
H52 C72 1_555 1_555
C73 C72 1_555 1_555
H53 C73 1_555 1_555
C74 C73 1_555 1_555
C75 C74 1_555 1_555
C76 C75 1_555 1_555
C77 C76 1_555 1_555
H54 C77 1_555 1_555
C78 C77 1_555 1_555
H55 C78 1_555 1_555
C79 C78 1_555 1_555
H56 C79 1_555 1_555
C80 C75 1_555 1_555
C81 C80 1_555 1_555
H57 C81 1_555 1_555
C82 C81 1_555 1_555
H58 C82 1_555 1_555
C83 H59 1_555 1_555
C84 C80 1_555 1_555
H60 C84 1_555 1_555
N10 C43 1_555 1_555
N11 Fe2 1_555 1_555
N12 C54 1_555 1_555
N13 Fe2 1_555 1_555
N14 Fe2 1_555 1_555
N15 C68 1_555 1_555
N16 Fe2 1_555 1_555
N17 Fe2 1_555 1_555
N18 Ag2 1_555 1_555
Ag3 N23 1_555 1_555
Fe3 N20 1_555 1_555
C85 H61 1_555 1_555
C86 C85 1_555 1_555
H62 C86 1_555 1_555
C87 C86 1_555 1_555
C88 C87 1_555 1_555
H63 C88 1_555 1_555
C89 C88 1_555 1_555
H64 C89 1_555 1_555
C90 C87 1_555 1_555
C91 C90 1_555 1_555
C92 C91 1_555 1_555
H65 C92 1_555 1_555
C93 C92 1_555 1_555
H66 C93 1_555 1_555
C94 C93 1_555 1_555
H67 C94 1_555 1_555
C95 C90 1_555 1_555
C96 C95 1_555 1_555
H68 C96 1_555 1_555
C97 C96 1_555 1_555
H69 C97 1_555 1_555
C98 C97 1_555 1_555
H70 C98 1_555 1_555
C99 H71 1_555 1_555
C100 C99 1_555 1_555
H72 C100 1_555 1_555
C101 C100 1_555 1_555
H73 C101 1_555 1_555
C102 C101 1_555 1_555
C103 C102 1_555 1_555
C104 C103 1_555 1_555
C105 C104 1_555 1_555
H74 C105 1_555 1_555
C106 C105 1_555 1_555
H75 C106 1_555 1_555
N19 Ag2 1_555 1_555
N20 C91 1_555 1_555
N21 Fe3 1_555 1_555
N22 Fe3 1_555 1_555
N23 C106 1_555 1_555
Ag4 N3 1_555 1_555
Fe4 N25 1_555 1_555
C107 H76 1_555 1_555
C108 C107 1_555 1_555
H77 C108 1_555 1_555
C109 C108 1_555 1_555
C110 C109 1_555 1_555
H78 C110 1_555 1_555
C111 C110 1_555 1_555
H79 C111 1_555 1_555
C112 H80 1_555 1_555
C113 C112 1_555 1_555
H81 C113 1_555 1_555
C114 C113 1_555 1_555
H82 C114 1_555 1_555
C115 C114 1_555 1_555
C116 C109 1_555 1_555
C117 C116 1_555 1_555
C118 C117 1_555 1_555
H83 C118 1_555 1_555
C119 C118 1_555 1_555
H84 C119 1_555 1_555
C120 C119 1_555 1_555
H85 C120 1_555 1_555
C121 H86 1_555 1_555
C122 C121 1_555 1_555
H87 C122 1_555 1_555
C123 C122 1_555 1_555
H88 C123 1_555 1_555
C124 C123 1_555 1_555
C125 C124 1_555 1_555
C126 C125 1_555 1_555
C127 C126 1_555 1_555
H89 C127 1_555 1_555
C128 C127 1_555 1_555
H90 C128 1_555 1_555
N24 Ag3 1_555 1_555
N25 C112 1_555 1_555
N26 Fe4 1_555 1_555
N27 Fe4 1_555 1_555
N28 Ag4 1_555 1_555
S1 C129 1_555 1_555
C129 F1 1_555 1_555
F2 C129 1_555 1_555
F3 C129 1_555 1_555
O1 S1 1_555 1_555
O2 Ag1 1_555 1_555
O3 S1 1_555 1_555
S2 C130 1_555 1_555
C130 F4 1_555 1_555
F5 C130 1_555 1_555
F6 C130 1_555 1_555
O4 Ag2 1_555 1_555
O5 S2 1_555 1_555
O6 S2 1_555 1_555
S3 C131 1_555 1_555
C131 F7 1_555 1_555
F8 C131 1_555 1_555
F9 C131 1_555 1_555
O7 S3 1_555 1_555
O8 Ag1 1_555 1_555
O9 S3 1_555 1_555
N29 C132 1_555 1_555
C132 C133 1_555 1_555
C133 H91 1_555 1_555
H92 C133 1_555 1_555
H93 C133 1_555 1_555
N30 C134 1_555 1_555
C134 C135 1_555 1_555
C135 H94 1_555 1_555
H95 C135 1_555 1_555
H96 C135 1_555 1_555
C136 H97 1_555 1_555
C137 C136 1_555 1_555
H98 C137 1_555 1_555
C138 C137 1_555 1_555
H99 C138 1_555 1_555
C139 C138 1_555 1_555
H100 C139 1_555 1_555
C140 C139 1_555 1_555
H101 C140 1_555 1_555
C141 C136 1_555 1_555
H102 C141 1_555 1_555
C142 H103 1_555 1_555
C143 C142 1_555 1_555
H104 C143 1_555 1_555
C144 C143 1_555 1_555
H105 C144 1_555 1_555
C145 C144 1_555 1_555
H106 C145 1_555 1_555
C146 C145 1_555 1_555
H107 C146 1_555 1_555
C147 C142 1_555 1_555
H108 C147 1_555 1_555
C148 H109 1_555 1_555
C149 C148 1_555 1_555
H110 C149 1_555 1_555
C150 C149 1_555 1_555
H111 C150 1_555 1_555
C151 C150 1_555 1_555
H112 C151 1_555 1_555
C152 C151 1_555 1_555
H113 C152 1_555 1_555
C153 C148 1_555 1_555
H114 C153 1_555 1_555
C154 H115 1_555 1_555
C155 C154 1_555 1_555
H116 C155 1_555 1_555
C156 C155 1_555 1_555
H117 C156 1_555 1_555
C157 C156 1_555 1_555
H118 C157 1_555 1_555
C158 C157 1_555 1_555
H119 C158 1_555 1_555
C159 C154 1_555 1_555
H120 C159 1_555 1_555
C160 H121 1_555 1_555
C161 C160 1_555 1_555
H122 C161 1_555 1_555
C162 C161 1_555 1_555
H123 C162 1_555 1_555
C163 C162 1_555 1_555
H124 C163 1_555 1_555
Ag1B N9B 1_555 1_555
Ag1_2 N12 1_555 1_555
Ag1_3 N15 1_555 1_555
Ag1B_2 N12B 1_555 1_555
Ag1B_3 N15B 1_555 1_555
Fe1B N1B 1_555 1_555
Fe1C N4 1_555 1_555
Fe1A N4B 1_555 1_555
C1B H1B 1_555 1_555
C2B C1B 1_555 1_555
H2B C2B 1_555 1_555
C3B C2B 1_555 1_555
H3B C3B 1_555 1_555
C4B C3B 1_555 1_555
C5B C4B 1_555 1_555
C6B C5B 1_555 1_555
C7B C6B 1_555 1_555
H4B C7B 1_555 1_555
C8B C7B 1_555 1_555
H5B C8B 1_555 1_555
C9B C8B 1_555 1_555
H6B C9B 1_555 1_555
C10B C5B 1_555 1_555
C11B C10B 1_555 1_555
H7B C11B 1_555 1_555
C12B C11B 1_555 1_555
H8B C12B 1_555 1_555
C13B H9B 1_555 1_555
C14B C10B 1_555 1_555
H10B C14B 1_555 1_555
C15B H11B 1_555 1_555
C16B C15B 1_555 1_555
H12B C16B 1_555 1_555
C17B C16B 1_555 1_555
H13B C17B 1_555 1_555
C18B C17B 1_555 1_555
C19B C18B 1_555 1_555
C20B C19B 1_555 1_555
C21B C20B 1_555 1_555
H14B C21B 1_555 1_555
C22B C21B 1_555 1_555
H15B C22B 1_555 1_555
C23B C22B 1_555 1_555
H16B C23B 1_555 1_555
C24B C19B 1_555 1_555
C25B C24B 1_555 1_555
H17B C25B 1_555 1_555
C26B C25B 1_555 1_555
H18B C26B 1_555 1_555
C27B H19B 1_555 1_555
C28B C24B 1_555 1_555
H20B C28B 1_555 1_555
C29B H21B 1_555 1_555
C30B C29B 1_555 1_555
H22B C30B 1_555 1_555
C31B C30B 1_555 1_555
H23B C31B 1_555 1_555
C32B C31B 1_555 1_555
C33B C32B 1_555 1_555
C34B C33B 1_555 1_555
C35B C34B 1_555 1_555
H24B C35B 1_555 1_555
C36B C35B 1_555 1_555
H25B C36B 1_555 1_555
C37B C36B 1_555 1_555
H26B C37B 1_555 1_555
C38B C33B 1_555 1_555
C39B C38B 1_555 1_555
H27B C39B 1_555 1_555
C40B C39B 1_555 1_555
H28B C40B 1_555 1_555
C41B H29B 1_555 1_555
C42B C38B 1_555 1_555
H30B C42B 1_555 1_555
N1B C1B 1_555 1_555
N2B Fe1B 1_555 1_555
N3B Ag4 1_555 1_555
N4B C15B 1_555 1_555
N4C Fe1 1_555 1_555
N4A Fe1B 1_555 1_555
N5B Fe1A 1_555 1_555
N5C Fe1 1_555 1_555
N5A Fe1B 1_555 1_555
N6B C26B 1_555 1_555
N7B Fe1B 1_555 1_555
N8B Fe1B 1_555 1_555
N9B C40B 1_555 1_555
Ag2B N6B 1_555 1_555
Fe2B N10B 1_555 1_555
C43B H31B 1_555 1_555
C44B C43B 1_555 1_555
H32B C44B 1_555 1_555
C45B C44B 1_555 1_555
H33B C45B 1_555 1_555
C46B C45B 1_555 1_555
C47B C46B 1_555 1_555
C48B C47B 1_555 1_555
C49B C48B 1_555 1_555
H34B C49B 1_555 1_555
C50B C49B 1_555 1_555
H35B C50B 1_555 1_555
C51B C50B 1_555 1_555
H36B C51B 1_555 1_555
C52B C47B 1_555 1_555
C53B C52B 1_555 1_555
H37B C53B 1_555 1_555
C54B C53B 1_555 1_555
H38B C54B 1_555 1_555
C55B H39B 1_555 1_555
C56B C52B 1_555 1_555
H40B C56B 1_555 1_555
C57B H41B 1_555 1_555
C58B C57B 1_555 1_555
H42B C58B 1_555 1_555
C59B C58B 1_555 1_555
H43B C59B 1_555 1_555
C60B C59B 1_555 1_555
C61B C60B 1_555 1_555
C62B C61B 1_555 1_555
C63B C62B 1_555 1_555
H44B C63B 1_555 1_555
C64B C63B 1_555 1_555
H45B C64B 1_555 1_555
C65B C64B 1_555 1_555
H46B C65B 1_555 1_555
C66B C61B 1_555 1_555
C67B C66B 1_555 1_555
H47B C67B 1_555 1_555
C68B C67B 1_555 1_555
H48B C68B 1_555 1_555
C69B H49B 1_555 1_555
C70B C66B 1_555 1_555
H50B C70B 1_555 1_555
C71B H51B 1_555 1_555
C72B C71B 1_555 1_555
H52B C72B 1_555 1_555
C73B C72B 1_555 1_555
H53B C73B 1_555 1_555
C74B C73B 1_555 1_555
C75B C74B 1_555 1_555
C76B C75B 1_555 1_555
C77B C76B 1_555 1_555
H54B C77B 1_555 1_555
C78B C77B 1_555 1_555
H55B C78B 1_555 1_555
C79B C78B 1_555 1_555
H56B C79B 1_555 1_555
C80B C75B 1_555 1_555
C81B C80B 1_555 1_555
H57B C81B 1_555 1_555
C82B C81B 1_555 1_555
H58B C82B 1_555 1_555
C83B H59B 1_555 1_555
C84B C80B 1_555 1_555
H60B C84B 1_555 1_555
N10B C43B 1_555 1_555
N11B Fe2B 1_555 1_555
N12B C54B 1_555 1_555
N12_2 Ag1 1_555 1_555
N12B_2 Ag1B 1_555 1_555
N13B Fe2B 1_555 1_555
N14B Fe2B 1_555 1_555
N15B C68B 1_555 1_555
N15_2 Ag1 1_555 1_555
N15B_2 Ag1B 1_555 1_555
N16B Fe2B 1_555 1_555
N17B Fe2B 1_555 1_555
N18B Ag2B 1_555 1_555
C85B H61B 1_555 1_555
C86B C85B 1_555 1_555
H62B C86B 1_555 1_555
C87B C86B 1_555 1_555
C88B C87B 1_555 1_555
H63B C88B 1_555 1_555
C89B C88B 1_555 1_555
H64B C89B 1_555 1_555
C90B C87B 1_555 1_555
C91B C90B 1_555 1_555
C92B C91B 1_555 1_555
H65B C92B 1_555 1_555
C93B C92B 1_555 1_555
H66B C93B 1_555 1_555
C94B C93B 1_555 1_555
H67B C94B 1_555 1_555
C95B C90B 1_555 1_555
C96B C95B 1_555 1_555
H68B C96B 1_555 1_555
C97B C96B 1_555 1_555
H69B C97B 1_555 1_555
C98B C97B 1_555 1_555
H70B C98B 1_555 1_555
C99B H71B 1_555 1_555
C100B C99B 1_555 1_555
H72B C100B 1_555 1_555
C101B C100B 1_555 1_555
H73B C101B 1_555 1_555
C102B C103 1_555 1_555
C105B C104 1_555 1_555
H74B C105B 1_555 1_555
C106B N23 1_555 1_555
H75B C106B 1_555 1_555
N19B Ag2B 1_555 1_555
N20B Fe3 1_555 1_555
N21B Fe3 1_555 1_555
N22B Fe3 1_555 1_555
Fe4_2 N25B 1_555 1_555
C107B H76B 1_555 1_555
C108B C107B 1_555 1_555
H77B C108B 1_555 1_555
C109B C108B 1_555 1_555
C110B C109B 1_555 1_555
H78B C110B 1_555 1_555
C111B C110B 1_555 1_555
H79B C111B 1_555 1_555
C112B H80B 1_555 1_555
C113B C112B 1_555 1_555
H81B C113B 1_555 1_555
C114B C113B 1_555 1_555
H82B C114B 1_555 1_555
C115B C114B 1_555 1_555
C116B C109B 1_555 1_555
C117B C116B 1_555 1_555
C118B C117B 1_555 1_555
H83B C118B 1_555 1_555
C119B C118B 1_555 1_555
H84B C119B 1_555 1_555
C120B C119B 1_555 1_555
H85B C120B 1_555 1_555
C121B H86B 1_555 1_555
C122B C121B 1_555 1_555
H87B C122B 1_555 1_555
C123B C122B 1_555 1_555
H88B C123B 1_555 1_555
C124B C125 1_555 1_555
C127B C126 1_555 1_555
H89B C127B 1_555 1_555
C128B N28 1_555 1_555
H90B C128B 1_555 1_555
N24B Ag3 1_555 1_555
N25B C112B 1_555 1_555
N25B_2 Fe4 1_555 1_555
N26B Fe4_2 1_555 1_555
N26B_2 Fe4 1_555 1_555
N27B Fe4 1_555 1_555
S1B C129B 1_555 1_555
C129B F1B 1_555 1_555
F2B C129B 1_555 1_555
F3B C129B 1_555 1_555
O1B S1B 1_555 1_555
O2B Ag1B 1_555 1_555
O3B S1B 1_555 1_555
S2B C130B 1_555 1_555
C130B F4B 1_555 1_555
F5B C130B 1_555 1_555
F6B C130B 1_555 1_555
O4B Ag2B 1_555 1_555
O5B S2B 1_555 1_555
O6B S2B 1_555 1_555
S3B C131B 1_555 1_555
C131B F7B 1_555 1_555
F8B C131B 1_555 1_555
F9B C131B 1_555 1_555
O7B S3B 1_555 1_555
O8B Ag1B 1_555 1_555
O9B S3B 1_555 1_555
C161B C160 1_555 1_555
H122B C161B 1_555 1_555
C162B C163 1_555 1_555
H123B C162B 1_555 1_555
C4 N1 1_555 1_555
C6 N2 1_555 1_555
C9 N2 1_555 1_555
C13 C14 1_555 1_555
C13 N3 1_555 1_555
C18 N4 1_555 1_555
C23 N5 1_555 1_555
C27 C28 1_555 1_555
C27 N6 1_555 1_555
C29 N7 1_555 1_555
C32 N7 1_555 1_555
C34 N8 1_555 1_555
C37 N8 1_555 1_555
C41 C42 1_555 1_555
C41 N9 1_555 1_555
N5 Fe1C 1_555 1_555
C46 N10 1_555 1_555
C48 N11 1_555 1_555
C51 N11 1_555 1_555
C55 C56 1_555 1_555
C55 N12 1_555 1_555
C57 N13 1_555 1_555
C60 N13 1_555 1_555
C62 N14 1_555 1_555
C65 N14 1_555 1_555
C69 C70 1_555 1_555
C69 N15 1_555 1_555
C71 N16 1_555 1_555
C74 N16 1_555 1_555
C76 N17 1_555 1_555
C79 N17 1_555 1_555
C82 N18 1_555 1_555
C83 C84 1_555 1_555
C83 N18 1_555 1_555
C85 N19 1_555 1_555
C89 N19 1_555 1_555
C94 N20 1_555 1_555
C95 N21 1_555 1_555
C98 N21 1_555 1_555
C99 N22 1_555 1_555
C102 N22 1_555 1_555
C107 N24 1_555 1_555
C111 N24 1_555 1_555
C115 C116 1_555 1_555
C115 N25 1_555 1_555
C117 N26 1_555 1_555
C120 N26 1_555 1_555
C121 N27 1_555 1_555
C124 N27 1_555 1_555
C128 N28 1_555 1_555
S1 O2 1_555 1_555
S2 O4 1_555 1_555
S3 O8 1_555 1_555
C140 C141 1_555 1_555
C146 C147 1_555 1_555
C152 C153 1_555 1_555
C158 C159 1_555 1_555
C4B N1B 1_555 1_555
C6B N2B 1_555 1_555
C9B N2B 1_555 1_555
C12B N3B 1_555 1_555
C13B C14B 1_555 1_555
C13B N3B 1_555 1_555
C18B N4B 1_555 1_555
C20B N5B 1_555 1_555
C23B N5B 1_555 1_555
C27B C28B 1_555 1_555
C27B N6B 1_555 1_555
C29B N7B 1_555 1_555
C32B N7B 1_555 1_555
C34B N8B 1_555 1_555
C37B N8B 1_555 1_555
C41B C42B 1_555 1_555
C41B N9B 1_555 1_555
C46B N10B 1_555 1_555
C48B N11B 1_555 1_555
C51B N11B 1_555 1_555
C55B C56B 1_555 1_555
C55B N12B 1_555 1_555
C57B N13B 1_555 1_555
C60B N13B 1_555 1_555
C62B N14B 1_555 1_555
C65B N14B 1_555 1_555
C69B C70B 1_555 1_555
C69B N15B 1_555 1_555
C71B N16B 1_555 1_555
C74B N16B 1_555 1_555
C76B N17B 1_555 1_555
C79B N17B 1_555 1_555
C82B N18B 1_555 1_555
C83B C84B 1_555 1_555
C83B N18B 1_555 1_555
C85B N19B 1_555 1_555
C89B N19B 1_555 1_555
C91B N20B 1_555 1_555
C94B N20B 1_555 1_555
C95B N21B 1_555 1_555
C98B N21B 1_555 1_555
C99B N22B 1_555 1_555
C101B C102B 1_555 1_555
C102B N22B 1_555 1_555
C105B C106B 1_555 1_555
C107B N24B 1_555 1_555
C111B N24B 1_555 1_555
C115B C116B 1_555 1_555
C115B N25B 1_555 1_555
C117B N26B 1_555 1_555
C120B N26B 1_555 1_555
C121B N27B 1_555 1_555
C123B C124B 1_555 1_555
C124B N27B 1_555 1_555
C127B C128B 1_555 1_555
S1B O2B 1_555 1_555
S2B O4B 1_555 1_555
S3B O8B 1_555 1_555
C161B C162B 1_555 1_555

#END
