
#######################################################################
#
#                 Cambridge Crystallographic Data Centre
#                                CCDC 
#
#######################################################################
#
# If this CIF has been generated from an entry in the Cambridge 
# Structural Database, then it will include bibliographic, chemical, 
# crystal, experimental, refinement or atomic coordinate data resulting 
# from the CCDC's data processing and validation procedures.
#
#######################################################################

data_OXUPUT
_chemical_formula_moiety         '(C6 H8 F2 O10 P2 U1)n'
_symmetry_cell_setting           tetragonal
_symmetry_space_group_name_H-M   'P 42/n m c'
_symmetry_Int_Tables_number      137
_space_group_name_Hall           '-P 4ac 2a'
loop_
_symmetry_equiv_pos_site_id
_symmetry_equiv_pos_as_xyz
1 x,y,z
2 1/2-x,1/2-y,z
3 1/2-y,x,1/2+z
4 y,1/2-x,1/2+z
5 -x,1/2+y,-z
6 1/2+x,-y,-z
7 1/2+y,1/2+x,1/2-z
8 -y,-x,1/2-z
9 -x,-y,-z
10 1/2+x,1/2+y,-z
11 1/2+y,-x,1/2-z
12 -y,1/2+x,1/2-z
13 x,1/2-y,z
14 1/2-x,y,z
15 1/2-y,1/2-x,1/2+z
16 y,x,1/2+z
_cell_length_a                   20.3539(16)
_cell_length_b                   20.3539(16)
_cell_length_c                   7.8010(6)
_cell_angle_alpha                90
_cell_angle_beta                 90
_cell_angle_gamma                90
_cell_volume                     3231.81
loop_
_atom_site_label
_atom_site_type_symbol
_atom_site_fract_x
_atom_site_fract_y
_atom_site_fract_z
_atom_site_U_iso_or_equiv
_atom_site_thermal_displace_type
U1 U 0.402575(18) 0.2500 0.20838(5) 0.0199 Uani
O1 O 0.4824(4) 0.2500 0.1132(11) 0.0353 Uani
O2 O 0.3220(4) 0.2500 0.3001(10) 0.0283 Uani
O3 O 0.3659(4) 0.2500 -0.1057(11) 0.0363 Uani
O4 O 0.4394(3) 0.1799(3) 0.4185(7) 0.0303 Uani
P1 P 0.42561(10) 0.13573(10) 0.5685(3) 0.0221 Uani
O5 O 0.3549(3) 0.1217(3) 0.6016(8) 0.0353 Uani
O6 O 0.4566(3) 0.1664(3) 0.7337(8) 0.0403 Uani
C1 C 0.4679(4) 0.0593(4) 0.5329(10) 0.0227 Uani
C2 C 0.5339(4) 0.0580(4) 0.4895(13) 0.0333 Uani
C3 C 0.4357(4) 0.0015(4) 0.5462(12) 0.0337 Uani
H1 H 0.3910 0.0015 0.5810 0.0410 Uiso
F1 F 0.5828(3) 0.1265(3) 0.4828(13) 0.0837 Uani
U1C U 0.2500 0.097425(18) 0.70838(5) 0.0199 Uani
U1D U 0.597425(18) -0.2500 0.79162(5) 0.0199 Uani
U1F U 0.7500 -0.097425(18) 0.29162(5) 0.0199 Uani
O4H O 0.5606(3) -0.1799(3) 0.5815(7) 0.0303 Uani
O4L O 0.4394(3) 0.3201(3) 0.4185(7) 0.0303 Uani
P1H P 0.57439(10) -0.13573(10) 0.4315(3) 0.0221 Uani
O5H O 0.6451(3) -0.1217(3) 0.3984(8) 0.0353 Uani
O5B O 0.3783(3) 0.3549(3) 0.1016(8) 0.0353 Uani
O5N O 0.3783(3) 0.1451(3) 0.1016(8) 0.0353 Uani
O6H O 0.5434(3) -0.1664(3) 0.2663(8) 0.0403 Uani
C1H C 0.5321(4) -0.0593(4) 0.4671(10) 0.0227 Uani
C2H C 0.4661(4) -0.0580(4) 0.5105(13) 0.0333 Uani
C3H C 0.5643(4) -0.0015(4) 0.4538(12) 0.0337 Uani
H1H H 0.6090 -0.0015 0.4190 0.0410 Uiso
F1H F 0.4172(3) -0.1265(3) 0.5172(13) 0.0837 Uani
O7 O 0.5608(10) 0.2500 0.741(3) 0.0627 Uani
loop_
_atom_site_aniso_label
_atom_site_aniso_U_11
_atom_site_aniso_U_22
_atom_site_aniso_U_33
_atom_site_aniso_U_23
_atom_site_aniso_U_13
_atom_site_aniso_U_12
U1 0.0171(2) 0.0165(2) 0.0261(2) 0.000 0.00345(16) 0.000
O1 0.027(4) 0.043(5) 0.036(5) 0.000 0.003(4) 0.000
O2 0.029(4) 0.019(4) 0.037(5) 0.000 0.011(4) 0.000
O3 0.034(5) 0.039(5) 0.036(5) 0.000 -0.007(4) 0.000
O4 0.033(3) 0.023(3) 0.035(3) 0.007(2) 0.008(3) 0.007(2)
P1 0.0195(9) 0.0221(10) 0.0247(10) 0.0008(8) 0.0018(8) 0.0053(8)
O5 0.026(3) 0.029(3) 0.051(4) 0.003(3) 0.010(3) 0.005(3)
O6 0.046(4) 0.040(4) 0.035(3) -0.009(3) -0.007(3) 0.012(3)
C1 0.018(4) 0.022(4) 0.028(4) 0.002(3) 0.000(3) 0.003(3)
C2 0.016(4) 0.021(4) 0.063(6) 0.002(4) 0.011(4) -0.002(3)
C3 0.019(4) 0.031(4) 0.051(6) 0.001(4) 0.006(4) 0.000(3)
F1 0.033(3) 0.027(3) 0.191(8) -0.016(4) 0.036(5) -0.008(2)
U1C 0.0165 0.0171 0.0261 -0.00345 0 0
U1D 0.0171 0.0165 0.0261 0 0.00345 0
U1F 0.0165 0.0171 0.0261 -0.00345 0 0
O4H 0.033 0.023 0.035 0.007 0.008 0.007
O4L 0.033 0.023 0.035 -0.007 0.008 -0.007
P1H 0.0195 0.0221 0.0247 0.0008 0.0018 0.0053
O5H 0.026 0.029 0.051 0.003 0.01 0.005
O5B 0.029 0.026 0.051 0.01 -0.003 -0.005
O5N 0.029 0.026 0.051 -0.01 -0.003 0.005
O6H 0.046 0.04 0.035 -0.009 -0.007 0.012
C1H 0.018 0.022 0.028 0.002 0 0.003
C2H 0.016 0.021 0.063 0.002 0.011 -0.002
C3H 0.019 0.031 0.051 0.001 0.006 0
F1H 0.033 0.027 0.191 -0.016 0.036 -0.008
O7 0.031(11) 0.083(17) 0.074(15) 0.000 -0.012(11) 0.000
loop_
_geom_bond_atom_site_label_1
_geom_bond_atom_site_label_2
_geom_bond_site_symmetry_1
_geom_bond_site_symmetry_2
U1 O1 1_555 1_555
O2 U1 1_555 1_555
O3 U1 1_555 1_555
O4 U1 1_555 1_555
P1 O4 1_555 1_555
O5 P1 1_555 1_555
O6 P1 1_555 1_555
C1 P1 1_555 1_555
C2 C1 1_555 1_555
C3 C1 1_555 1_555
H1 C3 1_555 1_555
F1 C2 1_555 1_555
U1C O5 1_555 1_555
U1D O4H 1_555 1_555
U1F O5H 1_555 1_555
O4H P1H 1_555 1_555
O4L U1 1_555 1_555
P1H O5H 1_555 1_555
O5B U1 1_555 1_555
O5N U1 1_555 1_555
O6H P1H 1_555 1_555
C1H P1H 1_555 1_555
C2H C3 1_555 1_555
C3H C2 1_555 1_555
H1H C3H 1_555 1_555
F1H C2H 1_555 1_555
C1H C2H 1_555 1_555
C1H C3H 1_555 1_555

#END
