
#######################################################################
#
#                 Cambridge Crystallographic Data Centre
#                                CCDC 
#
#######################################################################
#
# If this CIF has been generated from an entry in the Cambridge 
# Structural Database, then it will include bibliographic, chemical, 
# crystal, experimental, refinement or atomic coordinate data resulting 
# from the CCDC's data processing and validation procedures.
#
#######################################################################

data_BEWCUD
_chemical_formula_moiety         'C100 H52 N4 O34 Zn18'
_symmetry_cell_setting           tetragonal
_symmetry_space_group_name_H-M   'I 4/m c m'
_symmetry_Int_Tables_number      140
_space_group_name_Hall           '-I 4 2c'
loop_
_symmetry_equiv_pos_site_id
_symmetry_equiv_pos_as_xyz
1 x,y,z
2 -y,x,z
3 -x,-y,z
4 y,-x,z
5 x,-y,1/2-z
6 y,x,1/2-z
7 -x,y,1/2-z
8 -y,-x,1/2-z
9 1/2+x,1/2+y,1/2+z
10 1/2-y,1/2+x,1/2+z
11 1/2-x,1/2-y,1/2+z
12 1/2+y,1/2-x,1/2+z
13 1/2+x,1/2-y,-z
14 1/2+y,1/2+x,-z
15 1/2-x,1/2+y,-z
16 1/2-y,1/2-x,-z
17 -x,-y,-z
18 y,-x,-z
19 x,y,-z
20 -y,x,-z
21 -x,y,1/2+z
22 -y,-x,1/2+z
23 x,-y,1/2+z
24 y,x,1/2+z
25 1/2-x,1/2-y,1/2-z
26 1/2+y,1/2-x,1/2-z
27 1/2+x,1/2+y,1/2-z
28 1/2-y,1/2+x,1/2-z
29 1/2-x,1/2+y,z
30 1/2-y,1/2-x,z
31 1/2+x,1/2-y,z
32 1/2+y,1/2+x,z
_cell_length_a                   30.701(4)
_cell_length_b                   30.701(4)
_cell_length_c                   28.957(5)
_cell_angle_alpha                90
_cell_angle_beta                 90
_cell_angle_gamma                90
_cell_volume                     27293.5
loop_
_atom_site_label
_atom_site_type_symbol
_atom_site_fract_x
_atom_site_fract_y
_atom_site_fract_z
_atom_site_U_iso_or_equiv
_atom_site_thermal_displace_type
Zn1 Zn 0.32512(3) 0.17488(3) 0.0000 0.1108 Uani
Zn2 Zn 0.39350(3) 0.10650(3) 0.0000 0.1141 Uani
Zn3 Zn -0.0000 0.0000 0.23781(10) 0.0799 Uani
O1 O 0.30158(15) 0.13417(16) 0.04806(16) 0.1527 Uani
O2 O 0.35413(16) 0.08234(15) 0.04844(14) 0.1370 Uani
O3 O 0.2780(2) 0.2220(2) 0.0000 0.1720 Uani
O4 O 0.43780(19) 0.06220(19) 0.0000 0.1553 Uani
O5 O 0.0000 0.0000 0.1615(4) 0.1250 Uani
N1 N 0.04779(14) -0.04779(14) 0.2500 0.0883 Uani
C1 C 0.3205(3) 0.0986(3) 0.0623(3) 0.1453 Uani
C2 C 0.2945(3) 0.0785(2) 0.1006(2) 0.1270 Uani
C3 C 0.2566(2) 0.0954(2) 0.1180(2) 0.1383 Uani
H1 H 0.2456 0.1208 0.1050 0.1660 Uiso
C4 C 0.2342(2) 0.0765(2) 0.1535(2) 0.1490 Uani
H2 H 0.2079 0.0879 0.1638 0.1790 Uiso
C5 C 0.2526(2) 0.0383(2) 0.1746(2) 0.1277 Uani
C6 C 0.2907(2) 0.0208(2) 0.1571(2) 0.1437 Uani
H3 H 0.3020 -0.0046 0.1700 0.1720 Uiso
C7 C 0.3123(2) 0.0406(2) 0.1205(2) 0.1367 Uani
H4 H 0.3382 0.0290 0.1093 0.1640 Uiso
C8 C 0.2273(2) 0.0165(2) 0.2138(2) 0.1230 Uani
C9 C 0.2498(3) 0.0000 0.2500 0.1127 Uani
H5 H 0.2801 0.0000 0.2500 0.1350 Uiso
C10 C 0.1839(2) 0.0165(2) 0.2143(2) 0.1290 Uani
H6 H 0.1692 0.0282 0.1892 0.1550 Uiso
C11 C 0.1601(2) 0.0000 0.2500 0.1007 Uani
C12 C 0.1133(2) 0.0000 0.2500 0.0880 Uani
C13 C 0.09058(18) -0.03889(19) 0.25069(19) 0.0963 Uani
C14 C 0.11263(16) -0.08113(17) 0.2502(2) 0.1117 Uani
H7 H 0.1426 -0.0857 0.2502 0.1340 Uiso
O1D O 0.30158(15) -0.13417(16) 0.45194(16) 0.1527 Uani
O2D O 0.35413(16) -0.08234(15) 0.45156(14) 0.1370 Uani
N1A N 0.04779(14) 0.04779(14) 0.2500 0.0883 Uani
C1D C 0.3205(3) -0.0986(3) 0.4377(3) 0.1453 Uani
C2D C 0.2945(3) -0.0785(2) 0.3994(2) 0.1270 Uani
C3D C 0.2566(2) -0.0954(2) 0.3820(2) 0.1383 Uani
H1D H 0.2456 -0.1208 0.3950 0.1660 Uiso
C4D C 0.2342(2) -0.0765(2) 0.3465(2) 0.1490 Uani
H2D H 0.2079 -0.0879 0.3362 0.1790 Uiso
C5D C 0.2526(2) -0.0383(2) 0.3254(2) 0.1277 Uani
C6D C 0.2907(2) -0.0208(2) 0.3429(2) 0.1437 Uani
H3D H 0.3020 0.0046 0.3300 0.1720 Uiso
C7D C 0.3123(2) -0.0406(2) 0.3795(2) 0.1367 Uani
H4D H 0.3382 -0.0290 0.3907 0.1640 Uiso
C8D C 0.2273(2) -0.0165(2) 0.2862(2) 0.1230 Uani
C10D C 0.1839(2) -0.0165(2) 0.2857(2) 0.1290 Uani
H6D H 0.1692 -0.0282 0.3108 0.1550 Uiso
C13D C 0.09058(18) 0.03889(19) 0.24931(19) 0.0963 Uani
C14D C 0.11263(16) 0.08113(17) 0.2498(2) 0.1117 Uani
H7D H 0.1426 0.0857 0.2498 0.1340 Uiso
O1G O -0.13417(16) -0.30158(15) 0.45194(16) 0.1527 Uani
O2G O -0.08234(15) -0.35413(16) 0.45156(14) 0.1370 Uani
C1G C -0.0986(3) -0.3205(3) 0.4377(3) 0.1453 Uani
C2G C -0.0785(2) -0.2945(3) 0.3994(2) 0.1270 Uani
C3G C -0.0954(2) -0.2566(2) 0.3820(2) 0.1383 Uani
H1G H -0.1208 -0.2456 0.3950 0.1660 Uiso
C4G C -0.0765(2) -0.2342(2) 0.3465(2) 0.1490 Uani
H2G H -0.0879 -0.2079 0.3362 0.1790 Uiso
C5G C -0.0383(2) -0.2526(2) 0.3254(2) 0.1277 Uani
C6G C -0.0208(2) -0.2907(2) 0.3429(2) 0.1437 Uani
H3G H 0.0046 -0.3020 0.3300 0.1720 Uiso
C7G C -0.0406(2) -0.3123(2) 0.3795(2) 0.1367 Uani
H4G H -0.0290 -0.3382 0.3907 0.1640 Uiso
C8G C -0.0165(2) -0.2273(2) 0.2862(2) 0.1230 Uani
C9C C 0.0000 -0.2498(3) 0.2500 0.1127 Uani
H5C H 0.0000 -0.2801 0.2500 0.1350 Uiso
C10G C -0.0165(2) -0.1839(2) 0.2857(2) 0.1290 Uani
H6G H -0.0282 -0.1692 0.3108 0.1550 Uiso
C11C C 0.0000 -0.1601(2) 0.2500 0.1007 Uani
C12C C 0.0000 -0.1133(2) 0.2500 0.0880 Uani
C13G C 0.03889(19) -0.09058(18) 0.24931(19) 0.0963 Uani
C14G C 0.08113(17) -0.11263(16) 0.2498(2) 0.1117 Uani
H7G H 0.0857 -0.1426 0.2498 0.1340 Uiso
O1A O -0.13417(16) 0.30158(15) 0.04806(16) 0.1527 Uani
O2A O -0.08234(15) 0.35413(16) 0.04844(14) 0.1370 Uani
C1A C -0.0986(3) 0.3205(3) 0.0623(3) 0.1453 Uani
C2A C -0.0785(2) 0.2945(3) 0.1006(2) 0.1270 Uani
C3A C -0.0954(2) 0.2566(2) 0.1180(2) 0.1383 Uani
H1A H -0.1208 0.2456 0.1050 0.1660 Uiso
C4A C -0.0765(2) 0.2342(2) 0.1535(2) 0.1490 Uani
H2A H -0.0879 0.2079 0.1638 0.1790 Uiso
C5A C -0.0383(2) 0.2526(2) 0.1746(2) 0.1277 Uani
C6A C -0.0208(2) 0.2907(2) 0.1571(2) 0.1437 Uani
H3A H 0.0046 0.3020 0.1700 0.1720 Uiso
C7A C -0.0406(2) 0.3123(2) 0.1205(2) 0.1367 Uani
H4A H -0.0290 0.3382 0.1093 0.1640 Uiso
C8A C -0.0165(2) 0.2273(2) 0.2138(2) 0.1230 Uani
C9A C 0.0000 0.2498(3) 0.2500 0.1127 Uani
H5A H -0.0000 0.2801 0.2500 0.1350 Uiso
C10A C -0.0165(2) 0.1839(2) 0.2143(2) 0.1290 Uani
H6A H -0.0282 0.1692 0.1892 0.1550 Uiso
C11A C 0.0000 0.1601(2) 0.2500 0.1007 Uani
C12A C 0.0000 0.1133(2) 0.2500 0.0880 Uani
C13A C 0.03889(19) 0.09058(18) 0.25069(19) 0.0963 Uani
C14A C 0.08113(17) 0.11263(16) 0.2502(2) 0.1117 Uani
H7A H 0.0857 0.1426 0.2502 0.1340 Uiso
O1C O 0.13417(16) -0.30158(15) 0.04806(16) 0.1527 Uani
O2C O 0.08234(15) -0.35413(16) 0.04844(14) 0.1370 Uani
N1C N -0.04779(14) -0.04779(14) 0.2500 0.0883 Uani
C1C C 0.0986(3) -0.3205(3) 0.0623(3) 0.1453 Uani
C2C C 0.0785(2) -0.2945(3) 0.1006(2) 0.1270 Uani
C3C C 0.0954(2) -0.2566(2) 0.1180(2) 0.1383 Uani
H1C H 0.1208 -0.2456 0.1050 0.1660 Uiso
C4C C 0.0765(2) -0.2342(2) 0.1535(2) 0.1490 Uani
H2C H 0.0879 -0.2079 0.1638 0.1790 Uiso
C5C C 0.0383(2) -0.2526(2) 0.1746(2) 0.1277 Uani
C6C C 0.0208(2) -0.2907(2) 0.1571(2) 0.1437 Uani
H3C H -0.0046 -0.3020 0.1700 0.1720 Uiso
C7C C 0.0406(2) -0.3123(2) 0.1205(2) 0.1367 Uani
H4C H 0.0290 -0.3382 0.1093 0.1640 Uiso
C8C C 0.0165(2) -0.2273(2) 0.2138(2) 0.1230 Uani
C10C C 0.0165(2) -0.1839(2) 0.2143(2) 0.1290 Uani
H6C H 0.0282 -0.1692 0.1892 0.1550 Uiso
C13C C -0.03889(19) -0.09058(18) 0.25069(19) 0.0963 Uani
C14C C -0.08113(17) -0.11263(16) 0.2502(2) 0.1117 Uani
H7C H -0.0857 -0.1426 0.2502 0.1340 Uiso
O1E O 0.13417(16) 0.30158(15) 0.45194(16) 0.1527 Uani
O2E O 0.08234(15) 0.35413(16) 0.45156(14) 0.1370 Uani
N1B N -0.04779(14) 0.04779(14) 0.2500 0.0883 Uani
C1E C 0.0986(3) 0.3205(3) 0.4377(3) 0.1453 Uani
C2E C 0.0785(2) 0.2945(3) 0.3994(2) 0.1270 Uani
C3E C 0.0954(2) 0.2566(2) 0.3820(2) 0.1383 Uani
H1E H 0.1208 0.2456 0.3950 0.1660 Uiso
C4E C 0.0765(2) 0.2342(2) 0.3465(2) 0.1490 Uani
H2E H 0.0879 0.2079 0.3362 0.1790 Uiso
C5E C 0.0383(2) 0.2526(2) 0.3254(2) 0.1277 Uani
C6E C 0.0208(2) 0.2907(2) 0.3429(2) 0.1437 Uani
H3E H -0.0046 0.3020 0.3300 0.1720 Uiso
C7E C 0.0406(2) 0.3123(2) 0.3795(2) 0.1367 Uani
H4E H 0.0290 0.3382 0.3907 0.1640 Uiso
C8E C 0.0165(2) 0.2273(2) 0.2862(2) 0.1230 Uani
C10E C 0.0165(2) 0.1839(2) 0.2857(2) 0.1290 Uani
H6E H 0.0282 0.1692 0.3108 0.1550 Uiso
C13E C -0.03889(19) 0.09058(18) 0.24931(19) 0.0963 Uani
C14E C -0.08113(17) 0.11263(16) 0.2498(2) 0.1117 Uani
H7E H -0.0857 0.1426 0.2498 0.1340 Uiso
O1F O -0.30158(15) 0.13417(16) 0.45194(16) 0.1527 Uani
O2F O -0.35413(16) 0.08234(15) 0.45156(14) 0.1370 Uani
C1F C -0.3205(3) 0.0986(3) 0.4377(3) 0.1453 Uani
C2F C -0.2945(3) 0.0785(2) 0.3994(2) 0.1270 Uani
C3F C -0.2566(2) 0.0954(2) 0.3820(2) 0.1383 Uani
H1F H -0.2456 0.1208 0.3950 0.1660 Uiso
C4F C -0.2342(2) 0.0765(2) 0.3465(2) 0.1490 Uani
H2F H -0.2079 0.0879 0.3362 0.1790 Uiso
C5F C -0.2526(2) 0.0383(2) 0.3254(2) 0.1277 Uani
C6F C -0.2907(2) 0.0208(2) 0.3429(2) 0.1437 Uani
H3F H -0.3020 -0.0046 0.3300 0.1720 Uiso
C7F C -0.3123(2) 0.0406(2) 0.3795(2) 0.1367 Uani
H4F H -0.3382 0.0290 0.3907 0.1640 Uiso
C8F C -0.2273(2) 0.0165(2) 0.2862(2) 0.1230 Uani
C9B C -0.2498(3) 0.0000 0.2500 0.1127 Uani
H5B H -0.2801 0.0000 0.2500 0.1350 Uiso
C10F C -0.1839(2) 0.0165(2) 0.2857(2) 0.1290 Uani
H6F H -0.1692 0.0282 0.3108 0.1550 Uiso
C11B C -0.1601(2) 0.0000 0.2500 0.1007 Uani
C12B C -0.1133(2) 0.0000 0.2500 0.0880 Uani
C13F C -0.09058(18) -0.03889(19) 0.24931(19) 0.0963 Uani
C14F C -0.11263(16) -0.08113(17) 0.2498(2) 0.1117 Uani
H7F H -0.1426 -0.0857 0.2498 0.1340 Uiso
O1B O -0.30158(15) -0.13417(16) 0.04806(16) 0.1527 Uani
O2B O -0.35413(16) -0.08234(15) 0.04844(14) 0.1370 Uani
C1B C -0.3205(3) -0.0986(3) 0.0623(3) 0.1453 Uani
C2B C -0.2945(3) -0.0785(2) 0.1006(2) 0.1270 Uani
C3B C -0.2566(2) -0.0954(2) 0.1180(2) 0.1383 Uani
H1B H -0.2456 -0.1208 0.1050 0.1660 Uiso
C4B C -0.2342(2) -0.0765(2) 0.1535(2) 0.1490 Uani
H2B H -0.2079 -0.0879 0.1638 0.1790 Uiso
C5B C -0.2526(2) -0.0383(2) 0.1746(2) 0.1277 Uani
C6B C -0.2907(2) -0.0208(2) 0.1571(2) 0.1437 Uani
H3B H -0.3020 0.0046 0.1700 0.1720 Uiso
C7B C -0.3123(2) -0.0406(2) 0.1205(2) 0.1367 Uani
H4B H -0.3382 -0.0290 0.1093 0.1640 Uiso
C8B C -0.2273(2) -0.0165(2) 0.2138(2) 0.1230 Uani
C10B C -0.1839(2) -0.0165(2) 0.2143(2) 0.1290 Uani
H6B H -0.1692 -0.0282 0.1892 0.1550 Uiso
C13B C -0.09058(18) 0.03889(19) 0.25069(19) 0.0963 Uani
C14B C -0.11263(16) 0.08113(17) 0.2502(2) 0.1117 Uani
H7B H -0.1426 0.0857 0.2502 0.1340 Uiso
Zn1A Zn -0.17488(3) 0.32512(3) 0.0000 0.1108 Uani
Zn2A Zn -0.10650(3) 0.39350(3) 0.0000 0.1141 Uani
O3A O -0.2220(2) 0.2780(2) 0.0000 0.1720 Uani
O4A O -0.06220(19) 0.43780(19) 0.0000 0.1553 Uani
Zn3D Zn -0.0000 -0.0000 0.26219(10) 0.0799 Uani
O5D O 0.0000 0.0000 0.3385(4) 0.1250 Uani
Zn1B Zn -0.32512(3) -0.17488(3) 0.0000 0.1108 Uani
Zn1C Zn 0.17488(3) -0.32512(3) 0.0000 0.1108 Uani
Zn1D Zn 0.32512(3) -0.17488(3) 0.5000 0.1108 Uani
Zn1E Zn 0.17488(3) 0.32512(3) 0.5000 0.1108 Uani
Zn1F Zn -0.32512(3) 0.17488(3) 0.5000 0.1108 Uani
Zn1G Zn -0.17488(3) -0.32512(3) 0.5000 0.1108 Uani
Zn2B Zn -0.39350(3) -0.10650(3) 0.0000 0.1141 Uani
Zn2C Zn 0.10650(3) -0.39350(3) 0.0000 0.1141 Uani
Zn2D Zn 0.39350(3) -0.10650(3) 0.5000 0.1141 Uani
Zn2E Zn 0.10650(3) 0.39350(3) 0.5000 0.1141 Uani
Zn2F Zn -0.39350(3) 0.10650(3) 0.5000 0.1141 Uani
Zn2G Zn -0.10650(3) -0.39350(3) 0.5000 0.1141 Uani
O1L O -0.19842(15) 0.36583(16) -0.04806(16) 0.1527 Uani
O1O O 0.36583(16) 0.19842(15) -0.04806(16) 0.1527 Uani
O1R O 0.30158(15) 0.13417(16) -0.04806(16) 0.1527 Uani
O1S O -0.13417(16) 0.30158(15) -0.04806(16) 0.1527 Uani
O1CA O 0.36583(16) 0.19842(15) 0.04806(16) 0.1527 Uani
O1DA O -0.19842(15) 0.36583(16) 0.04806(16) 0.1527 Uani
O2L O -0.14587(16) 0.41766(15) -0.04844(14) 0.1370 Uani
O2O O 0.41766(15) 0.14587(16) -0.04844(14) 0.1370 Uani
O2R O 0.35413(16) 0.08234(15) -0.04844(14) 0.1370 Uani
O2S O -0.08234(15) 0.35413(16) -0.04844(14) 0.1370 Uani
O2CA O 0.41766(15) 0.14587(16) 0.04844(14) 0.1370 Uani
O2DA O -0.14587(16) 0.41766(15) 0.04844(14) 0.1370 Uani
loop_
_atom_site_aniso_label
_atom_site_aniso_U_11
_atom_site_aniso_U_22
_atom_site_aniso_U_33
_atom_site_aniso_U_23
_atom_site_aniso_U_13
_atom_site_aniso_U_12
Zn1 0.1309(8) 0.1309(8) 0.0705(10) 0.000 0.000 -0.0262(9)
Zn2 0.1345(8) 0.1345(8) 0.0732(10) 0.000 0.000 -0.0221(10)
Zn3 0.0944(9) 0.0944(9) 0.051(4) 0.000 0.000 0.000
O1 0.159(4) 0.167(4) 0.132(3) 0.025(3) 0.027(3) -0.027(3)
O2 0.146(4) 0.164(4) 0.101(3) 0.006(3) 0.010(3) -0.035(3)
O3 0.172(4) 0.172(4) 0.172(8) 0.000 0.000 0.014(5)
O4 0.161(4) 0.161(4) 0.144(7) 0.000 0.000 0.005(5)
O5 0.167(8) 0.167(8) 0.041(6) 0.000 0.000 0.000
N1 0.090(2) 0.090(2) 0.085(4) 0.014(3) 0.014(3) -0.025(3)
C1 0.154(5) 0.162(5) 0.120(4) 0.025(4) 0.021(4) -0.023(4)
C2 0.131(5) 0.146(6) 0.104(5) 0.019(4) 0.004(4) -0.014(5)
C3 0.140(6) 0.151(6) 0.124(6) 0.052(5) 0.026(4) 0.001(5)
C4 0.132(5) 0.179(6) 0.136(6) 0.080(5) 0.019(4) 0.013(5)
C5 0.103(5) 0.166(6) 0.114(5) 0.052(4) 0.010(4) -0.008(4)
C6 0.110(5) 0.194(7) 0.127(6) 0.055(5) 0.035(4) 0.013(5)
C7 0.120(5) 0.157(6) 0.133(6) 0.025(5) 0.030(4) -0.004(4)
C8 0.071(4) 0.189(6) 0.109(5) 0.056(4) 0.012(4) 0.008(4)
C9 0.084(6) 0.146(7) 0.108(7) 0.064(6) 0.000 0.000
C10 0.076(4) 0.196(6) 0.115(5) 0.050(5) 0.005(4) -0.002(4)
C11 0.055(4) 0.138(6) 0.109(6) 0.043(6) 0.000 0.000
C12 0.051(4) 0.126(6) 0.087(5) 0.051(6) 0.000 0.000
C13 0.083(4) 0.112(5) 0.094(4) 0.035(4) 0.012(4) -0.003(3)
C14 0.089(4) 0.122(4) 0.124(5) 0.023(5) 0.014(4) 0.007(3)
O1D 0.159 0.167 0.132 0.025 -0.027 0.027
O2D 0.146 0.164 0.101 0.006 -0.01 0.035
N1A 0.09 0.09 0.085 0.014 -0.014 0.025
C1D 0.154 0.162 0.12 0.025 -0.021 0.023
C2D 0.131 0.146 0.104 0.019 -0.004 0.014
C3D 0.14 0.151 0.124 0.052 -0.026 -0.001
C4D 0.132 0.179 0.136 0.08 -0.019 -0.013
C5D 0.103 0.166 0.114 0.052 -0.01 0.008
C6D 0.11 0.194 0.127 0.055 -0.035 -0.013
C7D 0.12 0.157 0.133 0.025 -0.03 0.004
C8D 0.071 0.189 0.109 0.056 -0.012 -0.008
C10D 0.076 0.196 0.115 0.05 -0.005 0.002
C13D 0.083 0.112 0.094 0.035 -0.012 0.003
C14D 0.089 0.122 0.124 0.023 -0.014 -0.007
O1G 0.167 0.159 0.132 0.027 0.025 -0.027
O2G 0.164 0.146 0.101 0.01 0.006 -0.035
C1G 0.162 0.154 0.12 0.021 0.025 -0.023
C2G 0.146 0.131 0.104 0.004 0.019 -0.014
C3G 0.151 0.14 0.124 0.026 0.052 0.001
C4G 0.179 0.132 0.136 0.019 0.08 0.013
C5G 0.166 0.103 0.114 0.01 0.052 -0.008
C6G 0.194 0.11 0.127 0.035 0.055 0.013
C7G 0.157 0.12 0.133 0.03 0.025 -0.004
C8G 0.189 0.071 0.109 0.012 0.056 0.008
C9C 0.146 0.084 0.108 0 0.064 0
C10G 0.196 0.076 0.115 0.005 0.05 -0.002
C11C 0.138 0.055 0.109 0 0.043 0
C12C 0.126 0.051 0.087 0 0.051 0
C13G 0.112 0.083 0.094 0.012 0.035 -0.003
C14G 0.122 0.089 0.124 0.014 0.023 0.007
O1A 0.167 0.159 0.132 0.027 -0.025 0.027
O2A 0.164 0.146 0.101 0.01 -0.006 0.035
C1A 0.162 0.154 0.12 0.021 -0.025 0.023
C2A 0.146 0.131 0.104 0.004 -0.019 0.014
C3A 0.151 0.14 0.124 0.026 -0.052 -0.001
C4A 0.179 0.132 0.136 0.019 -0.08 -0.013
C5A 0.166 0.103 0.114 0.01 -0.052 0.008
C6A 0.194 0.11 0.127 0.035 -0.055 -0.013
C7A 0.157 0.12 0.133 0.03 -0.025 0.004
C8A 0.189 0.071 0.109 0.012 -0.056 -0.008
C9A 0.146 0.084 0.108 0 -0.064 0
C10A 0.196 0.076 0.115 0.005 -0.05 0.002
C11A 0.138 0.055 0.109 0 -0.043 0
C12A 0.126 0.051 0.087 0 -0.051 0
C13A 0.112 0.083 0.094 0.012 -0.035 0.003
C14A 0.122 0.089 0.124 0.014 -0.023 -0.007
O1C 0.167 0.159 0.132 -0.027 0.025 0.027
O2C 0.164 0.146 0.101 -0.01 0.006 0.035
N1C 0.09 0.09 0.085 -0.014 0.014 0.025
C1C 0.162 0.154 0.12 -0.021 0.025 0.023
C2C 0.146 0.131 0.104 -0.004 0.019 0.014
C3C 0.151 0.14 0.124 -0.026 0.052 -0.001
C4C 0.179 0.132 0.136 -0.019 0.08 -0.013
C5C 0.166 0.103 0.114 -0.01 0.052 0.008
C6C 0.194 0.11 0.127 -0.035 0.055 -0.013
C7C 0.157 0.12 0.133 -0.03 0.025 0.004
C8C 0.189 0.071 0.109 -0.012 0.056 -0.008
C10C 0.196 0.076 0.115 -0.005 0.05 0.002
C13C 0.112 0.083 0.094 -0.012 0.035 0.003
C14C 0.122 0.089 0.124 -0.014 0.023 -0.007
O1E 0.167 0.159 0.132 -0.027 -0.025 -0.027
O2E 0.164 0.146 0.101 -0.01 -0.006 -0.035
N1B 0.09 0.09 0.085 -0.014 -0.014 -0.025
C1E 0.162 0.154 0.12 -0.021 -0.025 -0.023
C2E 0.146 0.131 0.104 -0.004 -0.019 -0.014
C3E 0.151 0.14 0.124 -0.026 -0.052 0.001
C4E 0.179 0.132 0.136 -0.019 -0.08 0.013
C5E 0.166 0.103 0.114 -0.01 -0.052 -0.008
C6E 0.194 0.11 0.127 -0.035 -0.055 0.013
C7E 0.157 0.12 0.133 -0.03 -0.025 -0.004
C8E 0.189 0.071 0.109 -0.012 -0.056 0.008
C10E 0.196 0.076 0.115 -0.005 -0.05 -0.002
C13E 0.112 0.083 0.094 -0.012 -0.035 -0.003
C14E 0.122 0.089 0.124 -0.014 -0.023 0.007
O1F 0.159 0.167 0.132 -0.025 0.027 0.027
O2F 0.146 0.164 0.101 -0.006 0.01 0.035
C1F 0.154 0.162 0.12 -0.025 0.021 0.023
C2F 0.131 0.146 0.104 -0.019 0.004 0.014
C3F 0.14 0.151 0.124 -0.052 0.026 -0.001
C4F 0.132 0.179 0.136 -0.08 0.019 -0.013
C5F 0.103 0.166 0.114 -0.052 0.01 0.008
C6F 0.11 0.194 0.127 -0.055 0.035 -0.013
C7F 0.12 0.157 0.133 -0.025 0.03 0.004
C8F 0.071 0.189 0.109 -0.056 0.012 -0.008
C9B 0.084 0.146 0.108 -0.064 0 0
C10F 0.076 0.196 0.115 -0.05 0.005 0.002
C11B 0.055 0.138 0.109 -0.043 0 0
C12B 0.051 0.126 0.087 -0.051 0 0
C13F 0.083 0.112 0.094 -0.035 0.012 0.003
C14F 0.089 0.122 0.124 -0.023 0.014 -0.007
O1B 0.159 0.167 0.132 -0.025 -0.027 -0.027
O2B 0.146 0.164 0.101 -0.006 -0.01 -0.035
C1B 0.154 0.162 0.12 -0.025 -0.021 -0.023
C2B 0.131 0.146 0.104 -0.019 -0.004 -0.014
C3B 0.14 0.151 0.124 -0.052 -0.026 0.001
C4B 0.132 0.179 0.136 -0.08 -0.019 0.013
C5B 0.103 0.166 0.114 -0.052 -0.01 -0.008
C6B 0.11 0.194 0.127 -0.055 -0.035 0.013
C7B 0.12 0.157 0.133 -0.025 -0.03 -0.004
C8B 0.071 0.189 0.109 -0.056 -0.012 0.008
C10B 0.076 0.196 0.115 -0.05 -0.005 -0.002
C13B 0.083 0.112 0.094 -0.035 -0.012 -0.003
C14B 0.089 0.122 0.124 -0.023 -0.014 0.007
Zn1A 0.1309 0.1309 0.0705 0 0 0.0262
Zn2A 0.1345 0.1345 0.0732 0 0 0.0221
O3A 0.172 0.172 0.172 0 0 -0.014
O4A 0.161 0.161 0.144 0 0 -0.005
Zn3D 0.0944 0.0944 0.051 0 0 0
O5D 0.167 0.167 0.041 0 0 0
Zn1B 0.1309 0.1309 0.0705 0 0 -0.0262
Zn1C 0.1309 0.1309 0.0705 0 0 0.0262
Zn1D 0.1309 0.1309 0.0705 0 0 0.0262
Zn1E 0.1309 0.1309 0.0705 0 0 -0.0262
Zn1F 0.1309 0.1309 0.0705 0 0 0.0262
Zn1G 0.1309 0.1309 0.0705 0 0 -0.0262
Zn2B 0.1345 0.1345 0.0732 0 0 -0.0221
Zn2C 0.1345 0.1345 0.0732 0 0 0.0221
Zn2D 0.1345 0.1345 0.0732 0 0 0.0221
Zn2E 0.1345 0.1345 0.0732 0 0 -0.0221
Zn2F 0.1345 0.1345 0.0732 0 0 0.0221
Zn2G 0.1345 0.1345 0.0732 0 0 -0.0221
O1L 0.159 0.167 0.132 0.025 -0.027 0.027
O1O 0.167 0.159 0.132 0.027 0.025 -0.027
O1R 0.159 0.167 0.132 -0.025 -0.027 -0.027
O1S 0.167 0.159 0.132 -0.027 0.025 0.027
O1CA 0.167 0.159 0.132 -0.027 -0.025 -0.027
O1DA 0.159 0.167 0.132 -0.025 0.027 0.027
O2L 0.146 0.164 0.101 0.006 -0.01 0.035
O2O 0.164 0.146 0.101 0.01 0.006 -0.035
O2R 0.146 0.164 0.101 -0.006 -0.01 -0.035
O2S 0.164 0.146 0.101 -0.01 0.006 0.035
O2CA 0.164 0.146 0.101 -0.01 -0.006 -0.035
O2DA 0.146 0.164 0.101 -0.006 0.01 0.035
loop_
_geom_bond_atom_site_label_1
_geom_bond_atom_site_label_2
_geom_bond_site_symmetry_1
_geom_bond_site_symmetry_2
Zn1 O1 1_555 1_555
Zn2 O2 1_555 1_555
Zn3 O5 1_555 1_555
O1 C1 1_555 1_555
O2 C1 1_555 1_555
O3 Zn1 1_555 1_555
O4 Zn2 1_555 1_555
N1 Zn3 1_555 1_555
C1 C2 1_555 1_555
C2 C3 1_555 1_555
C3 H1 1_555 1_555
C4 C3 1_555 1_555
H2 C4 1_555 1_555
C5 C4 1_555 1_555
C6 C5 1_555 1_555
H3 C6 1_555 1_555
C7 C2 1_555 1_555
H4 C7 1_555 1_555
C8 C5 1_555 1_555
C9 C8 1_555 1_555
H5 C9 1_555 1_555
C10 C8 1_555 1_555
H6 C10 1_555 1_555
C11 C10 1_555 1_555
C12 C11 1_555 1_555
C13 N1 1_555 1_555
C14 C13 1_555 1_555
H7 C14 1_555 1_555
O1D C1D 1_555 1_555
O2D C1D 1_555 1_555
N1A Zn3 1_555 1_555
C1D C2D 1_555 1_555
C2D C3D 1_555 1_555
C3D H1D 1_555 1_555
C4D C3D 1_555 1_555
H2D C4D 1_555 1_555
C5D C4D 1_555 1_555
C6D C5D 1_555 1_555
H3D C6D 1_555 1_555
C7D C2D 1_555 1_555
H4D C7D 1_555 1_555
C8D C9 1_555 1_555
C10D C11 1_555 1_555
H6D C10D 1_555 1_555
C13D C12 1_555 1_555
C14D C13D 1_555 1_555
H7D C14D 1_555 1_555
O1G C1G 1_555 1_555
O2G C1G 1_555 1_555
C1G C2G 1_555 1_555
C2G C3G 1_555 1_555
C3G H1G 1_555 1_555
C4G C3G 1_555 1_555
H2G C4G 1_555 1_555
C5G C4G 1_555 1_555
C6G C5G 1_555 1_555
H3G C6G 1_555 1_555
C7G C2G 1_555 1_555
H4G C7G 1_555 1_555
C8G C5G 1_555 1_555
C9C C8G 1_555 1_555
H5C C9C 1_555 1_555
C10G C8G 1_555 1_555
H6G C10G 1_555 1_555
C11C C10G 1_555 1_555
C12C C11C 1_555 1_555
C13G N1 1_555 1_555
C14G C14 1_555 1_555
H7G C14G 1_555 1_555
O1A C1A 1_555 1_555
O2A C1A 1_555 1_555
C1A C2A 1_555 1_555
C2A C3A 1_555 1_555
C3A H1A 1_555 1_555
C4A C3A 1_555 1_555
H2A C4A 1_555 1_555
C5A C4A 1_555 1_555
C6A C5A 1_555 1_555
H3A C6A 1_555 1_555
C7A C2A 1_555 1_555
H4A C7A 1_555 1_555
C8A C5A 1_555 1_555
C9A C8A 1_555 1_555
H5A C9A 1_555 1_555
C10A C8A 1_555 1_555
H6A C10A 1_555 1_555
C11A C10A 1_555 1_555
C12A C11A 1_555 1_555
C13A N1A 1_555 1_555
C14A C14D 1_555 1_555
H7A C14A 1_555 1_555
O1C C1C 1_555 1_555
O2C C1C 1_555 1_555
N1C Zn3 1_555 1_555
C1C C2C 1_555 1_555
C2C C3C 1_555 1_555
C3C H1C 1_555 1_555
C4C C3C 1_555 1_555
H2C C4C 1_555 1_555
C5C C4C 1_555 1_555
C6C C5C 1_555 1_555
H3C C6C 1_555 1_555
C7C C2C 1_555 1_555
H4C C7C 1_555 1_555
C8C C9C 1_555 1_555
C10C C11C 1_555 1_555
H6C C10C 1_555 1_555
C13C C12C 1_555 1_555
C14C C13C 1_555 1_555
H7C C14C 1_555 1_555
O1E C1E 1_555 1_555
O2E C1E 1_555 1_555
N1B Zn3 1_555 1_555
C1E C2E 1_555 1_555
C2E C3E 1_555 1_555
C3E H1E 1_555 1_555
C4E C3E 1_555 1_555
H2E C4E 1_555 1_555
C5E C4E 1_555 1_555
C6E C5E 1_555 1_555
H3E C6E 1_555 1_555
C7E C2E 1_555 1_555
H4E C7E 1_555 1_555
C8E C9A 1_555 1_555
C10E C11A 1_555 1_555
H6E C10E 1_555 1_555
C13E C12A 1_555 1_555
C14E C13E 1_555 1_555
H7E C14E 1_555 1_555
O1F C1F 1_555 1_555
O2F C1F 1_555 1_555
C1F C2F 1_555 1_555
C2F C3F 1_555 1_555
C3F H1F 1_555 1_555
C4F C3F 1_555 1_555
H2F C4F 1_555 1_555
C5F C4F 1_555 1_555
C6F C5F 1_555 1_555
H3F C6F 1_555 1_555
C7F C2F 1_555 1_555
H4F C7F 1_555 1_555
C8F C5F 1_555 1_555
C9B C8F 1_555 1_555
H5B C9B 1_555 1_555
C10F C8F 1_555 1_555
H6F C10F 1_555 1_555
C11B C10F 1_555 1_555
C12B C11B 1_555 1_555
C13F N1C 1_555 1_555
C14F C14C 1_555 1_555
H7F C14F 1_555 1_555
O1B C1B 1_555 1_555
O2B C1B 1_555 1_555
C1B C2B 1_555 1_555
C2B C3B 1_555 1_555
C3B H1B 1_555 1_555
C4B C3B 1_555 1_555
H2B C4B 1_555 1_555
C5B C4B 1_555 1_555
C6B C5B 1_555 1_555
H3B C6B 1_555 1_555
C7B C2B 1_555 1_555
H4B C7B 1_555 1_555
C8B C9B 1_555 1_555
C10B C11B 1_555 1_555
H6B C10B 1_555 1_555
C13B N1B 1_555 1_555
C14B C14E 1_555 1_555
H7B C14B 1_555 1_555
Zn1A O1A 1_555 1_555
Zn2A O2A 1_555 1_555
O3A Zn1A 1_555 1_555
O4A Zn2A 1_555 1_555
Zn3D Zn3 1_555 1_555
O5D Zn3D 1_555 1_555
Zn1B O1B 1_555 1_555
Zn1C O1C 1_555 1_555
Zn1D O1D 1_555 1_555
Zn1E O1E 1_555 1_555
Zn1F O1F 1_555 1_555
Zn1G O1G 1_555 1_555
Zn2B O2B 1_555 1_555
Zn2C O2C 1_555 1_555
Zn2D O2D 1_555 1_555
Zn2E O2E 1_555 1_555
Zn2F O2F 1_555 1_555
Zn2G O2G 1_555 1_555
O1L Zn1A 1_555 1_555
O1O Zn1 1_555 1_555
O1R Zn1 1_555 1_555
O1S Zn1A 1_555 1_555
O1CA Zn1 1_555 1_555
O1DA Zn1A 1_555 1_555
O2L Zn2A 1_555 1_555
O2O Zn2 1_555 1_555
O2R Zn2 1_555 1_555
O2S Zn2A 1_555 1_555
O2CA Zn2 1_555 1_555
O2DA Zn2A 1_555 1_555
N1 Zn3D 1_555 1_555
C6 C7 1_555 1_555
C12 C13 1_555 1_555
N1A C13D 1_555 1_555
N1A Zn3D 1_555 1_555
C5D C8D 1_555 1_555
C6D C7D 1_555 1_555
C8D C10D 1_555 1_555
C6G C7G 1_555 1_555
C12C C13G 1_555 1_555
C13G C14G 1_555 1_555
C6A C7A 1_555 1_555
C12A C13A 1_555 1_555
C13A C14A 1_555 1_555
N1C C13C 1_555 1_555
N1C Zn3D 1_555 1_555
C5C C8C 1_555 1_555
C6C C7C 1_555 1_555
C8C C10C 1_555 1_555
N1B C13E 1_555 1_555
N1B Zn3D 1_555 1_555
C5E C8E 1_555 1_555
C6E C7E 1_555 1_555
C8E C10E 1_555 1_555
C6F C7F 1_555 1_555
C12B C13F 1_555 1_555
C12B C13B 1_555 1_555
C13F C14F 1_555 1_555
C5B C8B 1_555 1_555
C6B C7B 1_555 1_555
C8B C10B 1_555 1_555
C13B C14B 1_555 1_555

#END
