
#######################################################################
#
#                 Cambridge Crystallographic Data Centre
#                                CCDC 
#
#######################################################################
#
# If this CIF has been generated from an entry in the Cambridge 
# Structural Database, then it will include bibliographic, chemical, 
# crystal, experimental, refinement or atomic coordinate data resulting 
# from the CCDC's data processing and validation procedures.
#
#######################################################################

data_OGAGIN
_chemical_formula_moiety         '(C19 H22 N2 O8 P2 Zn2)n'
_symmetry_cell_setting           monoclinic
_symmetry_space_group_name_H-M   'P 21/c'
_symmetry_Int_Tables_number      14
_space_group_name_Hall           '-P 2ybc'
loop_
_symmetry_equiv_pos_site_id
_symmetry_equiv_pos_as_xyz
1 x,y,z
2 -x,1/2+y,1/2-z
3 -x,-y,-z
4 x,1/2-y,1/2+z
_cell_length_a                   22.9229(14)
_cell_length_b                   9.9797(6)
_cell_length_c                   9.7714(6)
_cell_angle_alpha                90
_cell_angle_beta                 91.535(5)
_cell_angle_gamma                90
_cell_volume                     2234.54
loop_
_atom_site_label
_atom_site_type_symbol
_atom_site_fract_x
_atom_site_fract_y
_atom_site_fract_z
_atom_site_U_iso_or_equiv
_atom_site_thermal_displace_type
C1 C 0.39184(8) 0.67336(18) 0.4762(2) 0.0179 Uani
H1 H 0.3919 0.5783 0.4806 0.0210 Uiso
C2 C 0.35180(8) 0.73525(19) 0.38891(19) 0.0194 Uani
H2 H 0.3246 0.6831 0.3369 0.0230 Uiso
C3 C 0.35148(7) 0.87468(18) 0.37741(18) 0.0147 Uani
C4 C 0.39195(8) 0.94413(18) 0.45939(18) 0.0147 Uani
H3 H 0.3932 1.0392 0.4559 0.0180 Uiso
C5 C 0.43035(8) 0.87579(18) 0.54586(18) 0.0149 Uani
H4 H 0.4574 0.9257 0.6007 0.0180 Uiso
C6 C 0.31056(8) 0.94845(18) 0.28044(19) 0.0175 Uani
H5 H 0.3321 0.9716 0.1973 0.0210 Uiso
H6 H 0.2992 1.0336 0.3243 0.0210 Uiso
C7 C 0.25507(7) 0.87385(19) 0.23645(19) 0.0179 Uani
H7 H 0.2656 0.7875 0.1938 0.0220 Uiso
H8 H 0.2318 0.8542 0.318 0.0220 Uiso
C8 C 0.21839(8) 0.95615(19) 0.1349(2) 0.0191 Uani
H9 H 0.2093 1.0431 0.1781 0.0230 Uiso
H10 H 0.2423 0.9752 0.0543 0.0230 Uiso
C9 C 0.16191(8) 0.89327(18) 0.08516(18) 0.0158 Uani
C10 C 0.14326(8) 0.76790(19) 0.1276(2) 0.0209 Uani
H11 H 0.1659 0.7187 0.1931 0.0250 Uiso
C11 C 0.09170(8) 0.71468(19) 0.0746(2) 0.0200 Uani
H12 H 0.0798 0.6289 0.1053 0.0240 Uiso
C12 C 0.12551(8) 0.9610(2) -0.00772(19) 0.0198 Uani
H13 H 0.1357 1.0483 -0.0373 0.0240 Uiso
C13 C 0.07461(8) 0.90219(19) -0.05727(19) 0.0180 Uani
H14 H 0.0506 0.9504 -0.121 0.0220 Uiso
O1 O -0.06909(6) 0.62301(14) 0.02115(14) 0.0217 Uani
O2 O 0.56117(5) 0.65276(12) 0.52551(12) 0.0136 Uani
O3 O 0.52521(6) 0.79316(12) 0.32607(12) 0.0166 Uani
O4 O 0.52349(6) 0.54160(13) 0.30687(13) 0.0210 Uani
O5 O -0.05027(6) 0.70861(14) 0.25984(15) 0.0293 Uani
O6 O -0.01308(6) 0.48194(14) 0.19595(14) 0.0244 Uani
P1 P 0.55381(2) 0.66294(4) 0.36902(4) 0.0113 Uani
H19 H 0.6053(8) 0.66485(5) 0.3215(7) 0.0140 Uiso
P2 P -0.05985(2) 0.58749(5) 0.17224(5) 0.0129 Uani
H20 H -0.1083(7) 0.5343(8) 0.2108(6) 0.0160 Uiso
Zn1 Zn -0.010873(9) 0.68204(2) -0.10752(2) 0.0125 Uani
Zn2 Zn 0.496303(9) 0.64117(2) 0.65362(2) 0.0116 Uani
N1 N 0.43079(6) 0.74091(15) 0.55513(15) 0.0137 Uani
N2 N 0.05778(6) 0.77861(15) -0.01817(15) 0.0148 Uani
O3C O 0.52521(6) 0.70684(12) 0.82607(12) 0.0166 Uani
O4B O 0.47651(6) 0.45840(13) 0.69313(13) 0.0210 Uani
O5C O -0.05027(6) 0.79139(14) -0.24016(15) 0.0293 Uani
O6B O 0.01308(6) 0.51806(14) -0.19595(14) 0.0244 Uani
Zn1C Zn -0.010873(9) 0.81796(2) 0.39248(2) 0.0125 Uani
Zn1B Zn 0.010873(9) 0.31796(2) 0.10752(2) 0.0125 Uani
Zn2C Zn 0.496303(9) 0.85883(2) 0.15362(2) 0.0116 Uani
Zn2B Zn 0.503697(9) 0.35883(2) 0.34638(2) 0.0116 Uani
C14 C 0.78667(8) 0.57355(18) 0.86088(19) 0.0171 Uani
C15 C 0.80614(8) 0.66723(19) 0.7683(2) 0.0200 Uani
H15 H 0.8456 0.6967 0.773 0.0240 Uiso
C16 C 0.76794(8) 0.7183(2) 0.6682(2) 0.0218 Uani
H16 H 0.7815 0.7819 0.604 0.0260 Uiso
C17 C 0.71006(8) 0.67685(18) 0.6618(2) 0.0183 Uani
C18 C 0.69070(8) 0.58234(19) 0.75430(19) 0.0182 Uani
H17 H 0.6512 0.5534 0.7506 0.0220 Uiso
C19 C 0.72942(8) 0.53020(19) 0.85237(19) 0.0188 Uani
H18 H 0.7164 0.464 0.9143 0.0230 Uiso
O7 O 0.67407(6) 0.73405(15) 0.56442(16) 0.0287 Uani
O8 O 0.82141(6) 0.52310(15) 0.96498(15) 0.0236 Uani
H21 H 0.8539(11) 0.565(2) 0.965(3) 0.0370 Uiso
H22 H 0.6371(12) 0.702(3) 0.576(3) 0.0420 Uiso
loop_
_atom_site_aniso_label
_atom_site_aniso_U_11
_atom_site_aniso_U_22
_atom_site_aniso_U_33
_atom_site_aniso_U_23
_atom_site_aniso_U_13
_atom_site_aniso_U_12
C1 0.0158(9) 0.0144(9) 0.0231(10) 0.0005(7) -0.0064(7) -0.0013(7)
C2 0.0188(9) 0.0153(9) 0.0234(10) -0.0018(7) -0.0112(7) -0.0025(7)
C3 0.0105(8) 0.0182(9) 0.0151(8) 0.0003(7) -0.0033(6) 0.0007(6)
C4 0.0131(8) 0.0136(9) 0.0171(8) -0.0008(7) -0.0046(7) -0.0001(6)
C5 0.0133(8) 0.0172(9) 0.0138(8) -0.0038(7) -0.0045(6) 0.0005(7)
C6 0.0140(9) 0.0175(9) 0.0206(9) 0.0034(7) -0.0085(7) -0.0012(7)
C7 0.0133(9) 0.0191(9) 0.0209(9) 0.0026(7) -0.0087(7) -0.0027(7)
C8 0.0149(9) 0.0191(9) 0.0228(9) 0.0043(7) -0.0095(7) -0.0030(7)
C9 0.0146(8) 0.0174(9) 0.0152(8) -0.0014(7) -0.0060(7) -0.0018(7)
C10 0.0175(9) 0.0177(9) 0.0268(10) 0.0044(8) -0.0123(8) -0.0011(7)
C11 0.0168(9) 0.0155(9) 0.0273(10) 0.0025(8) -0.0096(7) -0.0031(7)
C12 0.0199(9) 0.0198(9) 0.0191(9) 0.0050(7) -0.0080(7) -0.0046(7)
C13 0.0160(9) 0.0195(9) 0.0179(9) 0.0033(7) -0.0085(7) -0.0020(7)
O1 0.0160(7) 0.0340(8) 0.0149(6) 0.0036(6) -0.0049(5) -0.0067(6)
O2 0.0125(6) 0.0171(6) 0.0111(6) 0.0012(5) -0.0032(5) 0.0013(5)
O3 0.0239 0.0151 0.0105 0.0012 -0.0051 0.004
O4 0.033 0.0141 0.0152 0.0018 -0.0097 -0.0059
O5 0.0282 0.0255 0.0331 -0.0167 -0.0192 0.0089
O6 0.0235 0.0213 0.0275 -0.0099 -0.0135 0.0075
P1 0.0120(2) 0.0123(2) 0.00932(19) 0.00078(16) -0.00268(16) 0.00005(16)
P2 0.0122(2) 0.0148(2) 0.0116(2) -0.00200(17) -0.00338(16) -0.00099(17)
Zn1 0.01237(10) 0.01257(10) 0.01213(10) 0.00015(7) -0.00536(7) -0.00109(7)
Zn2 0.01300(10) 0.01197(10) 0.00948(9) 0.00014(7) -0.00460(7) 0.00018(7)
N1 0.0115(7) 0.0163(8) 0.0130(7) -0.0001(6) -0.0036(5) 0.0017(6)
N2 0.0130(7) 0.0161(7) 0.0151(7) -0.0012(6) -0.0044(6) -0.0005(6)
O3C 0.0239 0.0151 0.0105 -0.0012 -0.0051 -0.004
O4B 0.033 0.0141 0.0152 0.0018 -0.0097 -0.0059
O5C 0.0282 0.0255 0.0331 0.0167 -0.0192 -0.0089
O6B 0.0235 0.0213 0.0275 -0.0099 -0.0135 0.0075
Zn1C 0.01237 0.01257 0.01213 -0.00015 -0.00536 0.00109
Zn1B 0.01237 0.01257 0.01213 0.00015 -0.00536 -0.00109
Zn2C 0.013 0.01197 0.00948 -0.00014 -0.0046 -0.00018
Zn2B 0.013 0.01197 0.00948 0.00014 -0.0046 0.00018
C14 0.0136(8) 0.0197(9) 0.0177(9) -0.0041(7) -0.0054(7) 0.0022(7)
C15 0.0122(9) 0.0235(10) 0.0242(10) -0.0026(8) -0.0038(7) -0.0036(7)
C16 0.0211(10) 0.0212(10) 0.0230(10) 0.0050(8) -0.0037(8) -0.0040(8)
C17 0.0185(9) 0.0177(9) 0.0183(9) -0.0013(7) -0.0075(7) 0.0000(7)
C18 0.0125(8) 0.0203(9) 0.0215(9) -0.0033(7) -0.0035(7) -0.0018(7)
C19 0.0168(9) 0.0209(9) 0.0186(9) 0.0018(7) -0.0020(7) -0.0018(7)
O7 0.0207(8) 0.0324(8) 0.0322(8) 0.0127(7) -0.0143(6) -0.0062(6)
O8 0.0161(7) 0.0294(8) 0.0247(7) 0.0039(6) -0.0089(6) 0.0002(6)
loop_
_geom_bond_atom_site_label_1
_geom_bond_atom_site_label_2
_geom_bond_site_symmetry_1
_geom_bond_site_symmetry_2
C1 H1 1_555 1_555
C2 C1 1_555 1_555
H2 C2 1_555 1_555
C3 C2 1_555 1_555
C4 C3 1_555 1_555
H3 C4 1_555 1_555
C5 C4 1_555 1_555
H4 C5 1_555 1_555
C6 C3 1_555 1_555
H5 C6 1_555 1_555
H6 C6 1_555 1_555
C7 C6 1_555 1_555
H7 C7 1_555 1_555
H8 C7 1_555 1_555
C8 C7 1_555 1_555
H9 C8 1_555 1_555
H10 C8 1_555 1_555
C9 C8 1_555 1_555
C10 C9 1_555 1_555
H11 C10 1_555 1_555
C11 C10 1_555 1_555
H12 C11 1_555 1_555
C12 C9 1_555 1_555
H13 C12 1_555 1_555
C13 C12 1_555 1_555
H14 C13 1_555 1_555
C14 C15 1_555 1_555
C15 H15 1_555 1_555
C16 C15 1_555 1_555
H16 C16 1_555 1_555
C17 C16 1_555 1_555
C18 C17 1_555 1_555
H17 C18 1_555 1_555
C19 C14 1_555 1_555
H18 C19 1_555 1_555
O1 P2 1_555 1_555
O2 P1 1_555 1_555
O3 P1 1_555 1_555
O4 P1 1_555 1_555
O5 P2 1_555 1_555
O6 P2 1_555 1_555
O7 C17 1_555 1_555
O8 C14 1_555 1_555
P1 H19 1_555 1_555
P2 H20 1_555 1_555
Zn1 O1 1_555 1_555
Zn2 O2 1_555 1_555
N1 C1 1_555 1_555
N2 C11 1_555 1_555
H21 O8 1_555 1_555
H22 O7 1_555 1_555
O3C Zn2 1_555 1_555
O4B Zn2 1_555 1_555
O5C Zn1 1_555 1_555
O6B Zn1 1_555 1_555
Zn1C O5 1_555 1_555
Zn1B O6 1_555 1_555
Zn2C O3 1_555 1_555
Zn2B O4 1_555 1_555
C5 N1 1_555 1_555
C13 N2 1_555 1_555
C18 C19 1_555 1_555
Zn1 N2 1_555 1_555
Zn2 N1 1_555 1_555

#END
