
#######################################################################
#
#                 Cambridge Crystallographic Data Centre
#                                CCDC 
#
#######################################################################
#
# If this CIF has been generated from an entry in the Cambridge 
# Structural Database, then it will include bibliographic, chemical, 
# crystal, experimental, refinement or atomic coordinate data resulting 
# from the CCDC's data processing and validation procedures.
#
#######################################################################

data_GUJREK
_chemical_formula_moiety         '(C48 H36 Cl1 Cu4 N12 O10 S2 1+)n'
_symmetry_cell_setting           orthorhombic
_symmetry_space_group_name_H-M   'I 21 21 21'
_symmetry_Int_Tables_number      24
_space_group_name_Hall           'I 2b 2c'
loop_
_symmetry_equiv_pos_site_id
_symmetry_equiv_pos_as_xyz
1 x,y,z
2 -x,1/2-y,z
3 x,-y,1/2-z
4 -x,1/2+y,1/2-z
5 1/2+x,1/2+y,1/2+z
6 1/2-x,-y,1/2+z
7 1/2+x,1/2-y,-z
8 1/2-x,y,-z
_cell_length_a                   12.3588(10)
_cell_length_b                   15.5011(12)
_cell_length_c                   34.305(3)
_cell_angle_alpha                90
_cell_angle_beta                 90
_cell_angle_gamma                90
_cell_volume                     6571.98
loop_
_atom_site_label
_atom_site_type_symbol
_atom_site_fract_x
_atom_site_fract_y
_atom_site_fract_z
Cu1 Cu 0.65009(8) 0.64229(7) 0.51370(3)
Cu2 Cu 1.0000 0.2500 0.26001(4)
Cu3 Cu 1.00537(13) 0.5000 0.2500
S1 S 0.88049(15) 0.62863(14) 0.30933(7)
C1 C 0.8154(10) 0.2317(6) 0.3333(4)
H1 H 0.8771 0.1938 0.3281
H2 H 0.7503 0.2079 0.3211
H3 H 0.8041 0.2360 0.3616
C2 C 0.8374(8) 0.3184(5) 0.3172(3)
C3 C 0.8256(7) 0.4572(5) 0.3066(3)
C4 C 0.7893(7) 0.5464(5) 0.3061(3)
C5 C 0.6881(8) 0.5752(6) 0.2988(3)
H4 H 0.6269 0.5387 0.2958
C6 C 0.6843(8) 0.6666(5) 0.2960(3)
H5 H 0.6196 0.6982 0.2916
C7 C 0.7827(8) 0.7038(5) 0.3004(3)
C8 C 0.8140(7) 0.7943(5) 0.2956(3)
C9 C 0.8175(7) 0.9339(5) 0.3023(3)
C10 C 0.7955(9) 1.0219(5) 0.3164(3)
H6 H 0.8396 1.0631 0.3017
H7 H 0.8136 1.0257 0.3442
H8 H 0.7187 1.0353 0.3127
C11 C 0.7023(7) 0.4019(5) 0.3583(3)
C12 C 0.6007(8) 0.3628(6) 0.3563(3)
H9 H 0.5806 0.3290 0.3344
C13 C 0.5296(8) 0.3748(7) 0.3875(3)
H10 H 0.4617 0.3461 0.3876
C14 C 0.5579(8) 0.4290(6) 0.4185(3)
H11 H 0.5073 0.4397 0.4387
C15 C 0.6612(8) 0.4680(5) 0.4198(3)
C16 C 0.7306(7) 0.4535(5) 0.3892(3)
H12 H 0.8000 0.4799 0.3894
C17 C 0.6922(8) 0.5278(6) 0.4508(3)
C18 C 0.6975(7) 0.8537(5) 0.3488(2)
C19 C 0.5938(7) 0.8878(6) 0.3468(3)
H13 H 0.5683 0.9144 0.3236
C20 C 0.5289(8) 0.8818(6) 0.3793(3)
H14 H 0.4588 0.9069 0.3788
C21 C 0.5634(8) 0.8401(6) 0.4130(3)
H15 H 0.5167 0.8352 0.4348
C22 C 0.6676(8) 0.8056(5) 0.4141(3)
C23 C 0.7349(8) 0.8123(5) 0.3816(3)
H16 H 0.8058 0.7886 0.3820
C24 C 0.7020(8) 0.7536(7) 0.4483(2)
N1 N 0.7796(6) 0.3912(4) 0.3270(2)
N2 N 0.9134(6) 0.3382(4) 0.2923(2)
N3 N 0.9081(6) 0.4272(4) 0.2859(2)
N4 N 0.7684(5) 0.8616(4) 0.31556(19)
N5 N 0.8899(6) 0.8230(4) 0.2718(2)
N6 N 0.8913(6) 0.9128(4) 0.2756(2)
O1 O 0.6188(5) 0.5554(4) 0.47413(19)
O2 O 0.7903(5) 0.5530(5) 0.4521(2)
O3 O 0.6333(5) 0.7328(4) 0.47364(18)
O4 O 0.8012(6) 0.7302(4) 0.4490(2)
O5 O 0.4865(5) 0.6410(5) 0.5359(2)
Cu1A Cu 1.34991(8) -0.14229(7) 0.51370(3)
S1A S 1.11951(15) -0.12863(14) 0.30933(7)
C1A C 1.1846(10) 0.2683(6) 0.3333(4)
H1A H 1.1229 0.3062 0.3281
H2A H 1.2497 0.2921 0.3211
H3A H 1.1959 0.2640 0.3616
C2A C 1.1626(8) 0.1816(5) 0.3172(3)
C3A C 1.1744(7) 0.0428(5) 0.3066(3)
C4A C 1.2107(7) -0.0464(5) 0.3061(3)
C5A C 1.3119(8) -0.0752(6) 0.2988(3)
H4A H 1.3731 -0.0387 0.2958
C6A C 1.3157(8) -0.1666(5) 0.2960(3)
H5A H 1.3804 -0.1982 0.2916
C7A C 1.2173(8) -0.2038(5) 0.3004(3)
C8A C 1.1860(7) -0.2943(5) 0.2956(3)
C9A C 1.1825(7) -0.4339(5) 0.3023(3)
C10A C 1.2045(9) -0.5219(5) 0.3164(3)
H6A H 1.1604 -0.5631 0.3017
H7A H 1.1864 -0.5257 0.3442
H8A H 1.2813 -0.5353 0.3127
C11A C 1.2977(7) 0.0981(5) 0.3583(3)
C12A C 1.3993(8) 0.1372(6) 0.3563(3)
H9A H 1.4194 0.1710 0.3344
C13A C 1.4704(8) 0.1252(7) 0.3875(3)
H10A H 1.5383 0.1539 0.3876
C14A C 1.4421(8) 0.0710(6) 0.4185(3)
H11A H 1.4927 0.0603 0.4387
C15A C 1.3388(8) 0.0320(5) 0.4198(3)
C16A C 1.2694(7) 0.0465(5) 0.3892(3)
H12A H 1.2000 0.0201 0.3894
C17A C 1.3078(8) -0.0278(6) 0.4508(3)
C18A C 1.3025(7) -0.3537(5) 0.3488(2)
C19A C 1.4062(7) -0.3878(6) 0.3468(3)
H13A H 1.4317 -0.4144 0.3236
C20A C 1.4711(8) -0.3818(6) 0.3793(3)
H14A H 1.5412 -0.4069 0.3788
C21A C 1.4366(8) -0.3401(6) 0.4130(3)
H15A H 1.4833 -0.3352 0.4348
C22A C 1.3324(8) -0.3056(5) 0.4141(3)
C23A C 1.2651(8) -0.3123(5) 0.3816(3)
H16A H 1.1942 -0.2886 0.3820
C24A C 1.2980(8) -0.2536(7) 0.4483(2)
N1A N 1.2204(6) 0.1088(4) 0.3270(2)
N2A N 1.0866(6) 0.1618(4) 0.2923(2)
N3A N 1.0919(6) 0.0728(4) 0.2859(2)
N4A N 1.2316(5) -0.3616(4) 0.31556(19)
N5A N 1.1101(6) -0.3230(4) 0.2718(2)
N6A N 1.1087(6) -0.4128(4) 0.2756(2)
O1A O 1.3812(5) -0.0554(4) 0.47413(19)
O2A O 1.2097(5) -0.0530(5) 0.4521(2)
O3A O 1.3667(5) -0.2328(4) 0.47364(18)
O4A O 1.1988(6) -0.2302(4) 0.4490(2)
O5A O 1.5135(5) -0.1410(5) 0.5359(2)
Cu1F Cu 1.15009(8) -0.14229(7) 0.48630(3)
Cu1G Cu 0.84991(8) 0.64229(7) 0.48630(3)
Cu2B Cu 1.0000 -0.2500 0.23999(4)
Cu2B_2 Cu 1.0000 0.7500 0.23999(4)
Cu3_2 Cu 1.00537(13) -0.5000 0.2500
Cu3A Cu 0.99463(13) 0.0000 0.2500
Cu3A_2 Cu 0.99463(13) 1.0000 0.2500
N3B N 0.9081(6) 0.5728(4) 0.2141(2)
N5B N 0.8899(6) 0.1770(4) 0.2282(2)
N5C N 1.1101(6) 0.3230(4) 0.2282(2)
N6A_2 N 1.1087(6) 0.5872(4) 0.2756(2)
N6C N 1.1087(6) 0.4128(4) 0.2244(2)
O2F O 1.2903(5) -0.0530(5) 0.5479(2)
O2G O 0.7097(5) 0.5530(5) 0.5479(2)
O4F O 1.3012(6) -0.2302(4) 0.5510(2)
O4G O 0.6988(6) 0.7302(4) 0.5510(2)
Cl1 Cl 0.5667(3) 1.0000 0.2500
loop_
_geom_bond_atom_site_label_1
_geom_bond_atom_site_label_2
_geom_bond_site_symmetry_1
_geom_bond_site_symmetry_2
Cu1 O1 1_555 1_555
Cu2 N2 1_555 1_555
Cu3 N3 1_555 1_555
S1 C4 1_555 1_555
C1 H1 1_555 1_555
H2 C1 1_555 1_555
H3 C1 1_555 1_555
C2 C1 1_555 1_555
C3 C4 1_555 1_555
C4 C5 1_555 1_555
C5 H4 1_555 1_555
C6 C5 1_555 1_555
H5 C6 1_555 1_555
C7 S1 1_555 1_555
C8 C7 1_555 1_555
C9 C10 1_555 1_555
C10 H6 1_555 1_555
H7 C10 1_555 1_555
H8 C10 1_555 1_555
C11 C12 1_555 1_555
C12 H9 1_555 1_555
C13 C12 1_555 1_555
H10 C13 1_555 1_555
C14 C13 1_555 1_555
H11 C14 1_555 1_555
C15 C14 1_555 1_555
C16 C11 1_555 1_555
H12 C16 1_555 1_555
C17 C15 1_555 1_555
C18 C19 1_555 1_555
C19 H13 1_555 1_555
C20 C19 1_555 1_555
H14 C20 1_555 1_555
C21 C20 1_555 1_555
H15 C21 1_555 1_555
C22 C21 1_555 1_555
C23 C18 1_555 1_555
H16 C23 1_555 1_555
C24 C22 1_555 1_555
N1 C2 1_555 1_555
N2 C2 1_555 1_555
N3 C3 1_555 1_555
N4 C8 1_555 1_555
N5 C8 1_555 1_555
N6 C9 1_555 1_555
O1 C17 1_555 1_555
O2 C17 1_555 1_555
O3 Cu1 1_555 1_555
O4 C24 1_555 1_555
O5 Cu1 1_555 1_555
Cu1A O1A 1_555 1_555
S1A C4A 1_555 1_555
C1A H1A 1_555 1_555
H2A C1A 1_555 1_555
H3A C1A 1_555 1_555
C2A C1A 1_555 1_555
C3A C4A 1_555 1_555
C4A C5A 1_555 1_555
C5A H4A 1_555 1_555
C6A C5A 1_555 1_555
H5A C6A 1_555 1_555
C7A S1A 1_555 1_555
C8A C7A 1_555 1_555
C9A C10A 1_555 1_555
C10A H6A 1_555 1_555
H7A C10A 1_555 1_555
H8A C10A 1_555 1_555
C11A C12A 1_555 1_555
C12A H9A 1_555 1_555
C13A C12A 1_555 1_555
H10A C13A 1_555 1_555
C14A C13A 1_555 1_555
H11A C14A 1_555 1_555
C15A C14A 1_555 1_555
C16A C11A 1_555 1_555
H12A C16A 1_555 1_555
C17A C15A 1_555 1_555
C18A C19A 1_555 1_555
C19A H13A 1_555 1_555
C20A C19A 1_555 1_555
H14A C20A 1_555 1_555
C21A C20A 1_555 1_555
H15A C21A 1_555 1_555
C22A C21A 1_555 1_555
C23A C18A 1_555 1_555
H16A C23A 1_555 1_555
C24A C22A 1_555 1_555
N1A C2A 1_555 1_555
N2A Cu2 1_555 1_555
N3A C3A 1_555 1_555
N4A C8A 1_555 1_555
N5A C8A 1_555 1_555
N6A C9A 1_555 1_555
O1A C17A 1_555 1_555
O2A C17A 1_555 1_555
O3A Cu1A 1_555 1_555
O4A C24A 1_555 1_555
O5A Cu1A 1_555 1_555
Cu1F O2A 1_555 1_555
Cu1G O2 1_555 1_555
Cu2B N5A 1_555 1_555
Cu2B_2 N5 1_555 1_555
Cu3_2 N6A 1_555 1_555
Cu3A N3A 1_555 1_555
Cu3A_2 N6 1_555 1_555
N3B Cu3 1_555 1_555
N5B Cu2 1_555 1_555
N5C Cu2 1_555 1_555
N6A_2 Cu3 1_555 1_555
N6C Cu3 1_555 1_555
O2F Cu1A 1_555 1_555
O2G Cu1 1_555 1_555
O4F Cu1A 1_555 1_555
O4G Cu1 1_555 1_555
C3 N1 1_555 1_555
C6 C7 1_555 1_555
C9 N4 1_555 1_555
C11 N1 1_555 1_555
C15 C16 1_555 1_555
C18 N4 1_555 1_555
C22 C23 1_555 1_555
C24 O3 1_555 1_555
N2 N3 1_555 1_555
N5 N6 1_555 1_555
O4 Cu1G 1_555 1_555
C2A N2A 1_555 1_555
C3A N1A 1_555 1_555
C6A C7A 1_555 1_555
C9A N4A 1_555 1_555
C11A N1A 1_555 1_555
C15A C16A 1_555 1_555
C18A N4A 1_555 1_555
C22A C23A 1_555 1_555
C24A O3A 1_555 1_555
N2A N3A 1_555 1_555
N5A N6A 1_555 1_555
O4A Cu1F 1_555 1_555
N5C N6C 1_555 1_555

#END
