
#######################################################################
#
#                 Cambridge Crystallographic Data Centre
#                                CCDC 
#
#######################################################################
#
# If this CIF has been generated from an entry in the Cambridge 
# Structural Database, then it will include bibliographic, chemical, 
# crystal, experimental, refinement or atomic coordinate data resulting 
# from the CCDC's data processing and validation procedures.
#
#######################################################################

data_QIYCEI
_chemical_formula_moiety         '(C55 H72 Ag2 F12 N8 O1 P2 Si4)n'
_symmetry_cell_setting           orthorhombic
_symmetry_space_group_name_H-M   'P 21 21 21'
_symmetry_Int_Tables_number      19
_space_group_name_Hall           'P 2ac 2ab'
loop_
_symmetry_equiv_pos_site_id
_symmetry_equiv_pos_as_xyz
1 x,y,z
2 1/2-x,-y,1/2+z
3 -x,1/2+y,1/2-z
4 1/2+x,1/2-y,-z
_cell_length_a                   17.9304(5)
_cell_length_b                   18.8321(5)
_cell_length_c                   20.2922(6)
_cell_angle_alpha                90
_cell_angle_beta                 90
_cell_angle_gamma                90
_cell_volume                     6852.01
loop_
_atom_site_label
_atom_site_type_symbol
_atom_site_fract_x
_atom_site_fract_y
_atom_site_fract_z
_atom_site_U_iso_or_equiv
_atom_site_thermal_displace_type
Ag1 Ag 0.16479(4) -1.36702(3) -0.84807(3) 0.0646 Uani
Si1 Si 0.55284(14) -1.32544(13) -0.87014(12) 0.0629 Uani
Si2 Si 0.02887(18) -1.17630(14) -0.57683(14) 0.0764 Uani
N1 N 0.2931(4) -1.3595(3) -0.8605(4) 0.0600 Uani
N2 N 0.6216(5) -1.2059(5) -1.0648(5) 0.0860 Uani
N3 N 0.1321(5) -1.2957(4) -0.7584(4) 0.0680 Uani
N4 N -0.1031(4) -0.9719(4) -0.6429(4) 0.0657 Uani
C1 C 0.3248(5) -1.2955(4) -0.8574(5) 0.0663 Uani
H1 H 0.2928 -1.2557 -0.8527 0.0800 Uiso
C2 C 0.4004(5) -1.2828(4) -0.8605(5) 0.0647 Uani
H2 H 0.4188 -1.2356 -0.8573 0.0770 Uiso
C3 C 0.4497(5) -1.3393(4) -0.8685(4) 0.0567 Uani
C4 C 0.4167(5) -1.4053(4) -0.8762(4) 0.0627 Uani
H3 H 0.4465 -1.4459 -0.8849 0.0750 Uiso
C5 C 0.3382(5) -1.4118(4) -0.8710(4) 0.0673 Uani
H4 H 0.3172 -1.4579 -0.8756 0.0810 Uiso
C6 C 0.6016(7) -1.4154(7) -0.8674(8) 0.1243 Uani
H5 H 0.5857 -1.4440 -0.9052 0.1490 Uiso
H6 H 0.5883 -1.4399 -0.8264 0.1490 Uiso
H7 H 0.6557 -1.4084 -0.8690 0.1490 Uiso
C7 C 0.5805(6) -1.2638(7) -0.8008(5) 0.0877 Uani
H8 H 0.6246 -1.2362 -0.8152 0.1050 Uiso
H9 H 0.5393 -1.2296 -0.7937 0.1050 Uiso
C8 C 0.5965(16) -1.2938(14) -0.7434(11) 0.3367 Uani
H10 H 0.5838 -1.2611 -0.7075 0.4070 Uiso
H11 H 0.6499 -1.3048 -0.7416 0.4070 Uiso
H12 H 0.5677 -1.3377 -0.7385 0.4070 Uiso
C9 C 0.5768(5) -1.2791(5) -0.9503(5) 0.0657 Uani
C10 C 0.6527(6) -1.2752(7) -0.9707(6) 0.0967 Uani
H13 H 0.6914 -1.2963 -0.9454 0.1160 Uiso
C11 C 0.6674(7) -1.2406(8) -1.0267(6) 0.1090 Uani
H14 H 0.7179 -1.2414 -1.0406 0.1310 Uiso
C12 C 0.5501(7) -1.2077(7) -1.0448(6) 0.1053 Uani
H15 H 0.5138 -1.1830 -1.0701 0.1260 Uiso
C13 C 0.5269(6) -1.2445(7) -0.9883(6) 0.0950 Uani
H16 H 0.4755 -1.2451 -0.9767 0.1140 Uiso
C14 C 0.0745(8) -1.2481(7) -0.7667(5) 0.1110 Uani
H17 H 0.0543 -1.2408 -0.8095 0.1330 Uiso
C15 C 0.0460(8) -1.2114(7) -0.7146(5) 0.1120 Uani
H18 H 0.0067 -1.1787 -0.7227 0.1350 Uiso
C16 C 0.0712(5) -1.2194(4) -0.6511(4) 0.0650 Uani
C17 C 0.1337(6) -1.2648(6) -0.6463(6) 0.0887 Uani
H19 H 0.1568 -1.2721 -0.6048 0.1070 Uiso
C18 C 0.1618(6) -1.2989(6) -0.7019(5) 0.0873 Uani
H20 H 0.2060 -1.3262 -0.6971 0.1050 Uiso
C19 C 0.1012(8) -1.1499(7) -0.5182(7) 0.1047 Uani
H21 H 0.1330 -1.1913 -0.5075 0.1250 Uiso
H22 H 0.1331 -1.1127 -0.5380 0.1250 Uiso
C20 C 0.0631(16) -1.1204(15) -0.4529(13) 0.2603 Uani
H23 H 0.1018 -1.1057 -0.4216 0.3140 Uiso
H24 H 0.0323 -1.1577 -0.4330 0.3140 Uiso
H25 H 0.0316 -1.0795 -0.4638 0.3140 Uiso
C21 C -0.0368(9) -1.2405(7) -0.5361(7) 0.1157 Uani
H26 H -0.0064 -1.2790 -0.5166 0.1380 Uiso
H27 H -0.0613 -1.2153 -0.4991 0.1380 Uiso
C22 C -0.1010(12) -1.2767(12) -0.5794(11) 0.2603 Uani
H28 H -0.1298 -1.3095 -0.5518 0.3140 Uiso
H29 H -0.0783 -1.3030 -0.6159 0.3140 Uiso
H30 H -0.1341 -1.2399 -0.5969 0.3140 Uiso
C23 C -0.0224(6) -1.0938(5) -0.6032(5) 0.0720 Uani
C24 C -0.0997(5) -1.0953(5) -0.6209(7) 0.0870 Uani
H31 H -0.1266 -1.1387 -0.6199 0.1050 Uiso
C25 C -0.1334(5) -1.0356(4) -0.6388(6) 0.0797 Uani
H32 H -0.1848 -1.0391 -0.6498 0.0960 Uiso
C26 C -0.0296(5) -0.9698(5) -0.6289(6) 0.0793 Uani
H33 H -0.0038 -0.9260 -0.6332 0.0950 Uiso
C27 C 0.0104(5) -1.0303(5) -0.6082(6) 0.0793 Uani
H34 H 0.0618 -1.0258 -0.5975 0.0950 Uiso
Ag1B Ag -0.16479(4) -0.86702(3) -0.65193(3) 0.0646 Uani
Ag1C Ag 0.66479(4) -1.13298(3) -1.15193(3) 0.0646 Uani
N2C N 0.1216(5) -1.2941(5) -0.9352(5) 0.0860 Uani
N4B N 0.1031(4) -1.4719(4) -0.8571(4) 0.0657 Uani
Ag2 Ag -0.34221(5) -1.62606(4) -0.84065(4) 0.0809 Uani
Si3 Si -0.04233(19) -1.5236(2) -0.63790(17) 0.0996 Uani
Si4 Si -0.64392(18) -1.49869(16) -0.64638(17) 0.0878 Uani
N5 N -0.4426(5) -1.5942(5) -0.7678(4) 0.0857 Uani
N6 N -0.6418(4) -1.2492(4) -0.6463(4) 0.0670 Uani
N7 N -0.2431(5) -1.5868(4) -0.7792(4) 0.0743 Uani
N8 N -0.1322(5) -1.4143(5) -0.4458(4) 0.0763 Uani
C28 C -0.1967(8) -1.5345(7) -0.7939(6) 0.1027 Uani
H35 H -0.2019 -1.5124 -0.8357 0.1230 Uiso
C29 C -0.1411(8) -1.5097(8) -0.7524(8) 0.1300 Uani
H36 H -0.1138 -1.4683 -0.7642 0.1560 Uiso
C30 C -0.1243(7) -1.5452(7) -0.6927(6) 0.0900 Uani
C31 C -0.1713(7) -1.5992(8) -0.6788(5) 0.1053 Uani
H37 H -0.1645 -1.6259 -0.6395 0.1260 Uiso
C32 C -0.2294(6) -1.6163(7) -0.7211(5) 0.0933 Uani
H38 H -0.2625 -1.6526 -0.7071 0.1120 Uiso
C33 C 0.0201(7) -1.4579(13) -0.6830(5) 0.1657 Uani
H39 H 0.0631 -1.4462 -0.6553 0.2000 Uiso
H40 H -0.0082 -1.4146 -0.6927 0.2000 Uiso
H41 H 0.0374 -1.4792 -0.7244 0.2000 Uiso
C34 C 0.0050(8) -1.6042(10) -0.6161(7) 0.1453 Uani
H42 H -0.0324 -1.6384 -0.5992 0.1740 Uiso
H43 H 0.0269 -1.6249 -0.6566 0.1740 Uiso
C35 C 0.0713(17) -1.5958(16) -0.5609(17) 0.3367 Uani
H44 H 0.0957 -1.6419 -0.5541 0.4070 Uiso
H45 H 0.0497 -1.5795 -0.5192 0.4070 Uiso
H46 H 0.1081 -1.5612 -0.5763 0.4070 Uiso
C36 C -0.0805(6) -1.4798(7) -0.5624(5) 0.0857 Uani
C37 C -0.1572(6) -1.4802(8) -0.5439(5) 0.1047 Uani
H47 H -0.1939 -1.5029 -0.5703 0.1260 Uiso
C38 C -0.1766(7) -1.4445(8) -0.4831(6) 0.1040 Uani
H48 H -0.2277 -1.4443 -0.4708 0.1250 Uiso
C39 C -0.0609(6) -1.4126(5) -0.4627(5) 0.0747 Uani
H49 H -0.0259 -1.3928 -0.4327 0.0900 Uiso
C40 C -0.0356(6) -1.4384(6) -0.5222(5) 0.0887 Uani
H50 H 0.0137 -1.4275 -0.5360 0.1060 Uiso
C41 C -0.4338(7) -1.5604(8) -0.7083(6) 0.1117 Uani
H51 H -0.3853 -1.5563 -0.6900 0.1340 Uiso
C42 C -0.4922(8) -1.5329(7) -0.6752(5) 0.1033 Uani
H52 H -0.4823 -1.5100 -0.6344 0.1240 Uiso
C43 C -0.5642(6) -1.5355(5) -0.6960(5) 0.0713 Uani
C44 C -0.5724(6) -1.5677(6) -0.7535(5) 0.0803 Uani
H53 H -0.6208 -1.5690 -0.7724 0.0970 Uiso
C45 C -0.5150(6) -1.5991(6) -0.7873(5) 0.0780 Uani
H54 H -0.5263 -1.6254 -0.8259 0.0940 Uiso
C46 C -0.6380(10) -1.5364(10) -0.5607(8) 0.1480 Uani
H55 H -0.6892 -1.5377 -0.5425 0.1780 Uiso
H56 H -0.6209 -1.5863 -0.5645 0.1780 Uiso
C47 C -0.5862(13) -1.4981(12) -0.5080(6) 0.2603 Uani
H57 H -0.5371 -1.5211 -0.5074 0.3140 Uiso
H58 H -0.6090 -1.5017 -0.4643 0.3140 Uiso
H59 H -0.5804 -1.4480 -0.5199 0.3140 Uiso
C48 C -0.7370(8) -1.5157(8) -0.6937(10) 0.1490 Uani
H60 H -0.7609 -1.4782 -0.7168 0.1800 Uiso
C49 C -0.770(2) -1.5882(19) -0.6931(19) 0.3200 Uani
H61 H -0.8171 -1.5879 -0.7178 0.3850 Uiso
H62 H -0.7797 -1.6028 -0.6475 0.3850 Uiso
H63 H -0.7353 -1.6217 -0.7137 0.3850 Uiso
C50 C -0.6391(5) -1.3984(5) -0.6451(4) 0.0647 Uani
C51 C -0.6770(5) -1.3600(6) -0.5958(4) 0.0767 Uani
H64 H -0.7032 -1.3839 -0.5616 0.0920 Uiso
C52 C -0.6750(5) -1.2872(6) -0.5986(5) 0.0753 Uani
H65 H -0.6990 -1.2617 -0.5641 0.0910 Uiso
C53 C -0.6049(7) -1.2856(5) -0.6894(5) 0.0853 Uani
H66 H -0.5777 -1.2605 -0.7221 0.1030 Uiso
C54 C -0.6028(7) -1.3607(6) -0.6907(5) 0.0897 Uani
H67 H -0.5753 -1.3844 -0.7241 0.1080 Uiso
Ag2A Ag -0.15779(5) -1.37394(4) -0.34065(4) 0.0809 Uani
Ag2B Ag -0.65779(5) -1.12606(4) -0.65935(4) 0.0809 Uani
N6B N -0.3582(4) -1.7492(4) -0.8537(4) 0.0670 Uani
N8A N -0.3678(5) -1.5857(5) -0.9458(4) 0.0763 Uani
P1 P -0.17033(14) -0.86512(17) -0.06133(15) 0.0814 Uani
F1 F -0.1417(4) -0.8649(5) 0.0124(4) 0.1387 Uani
F2 F -0.1075(4) -0.8107(4) -0.0858(5) 0.1317 Uani
F3 F -0.1148(4) -0.9298(4) -0.0773(4) 0.1053 Uani
F4 F -0.2023(4) -0.8670(6) -0.1335(4) 0.1490 Uani
F5 F -0.2248(5) -0.8050(5) -0.0417(4) 0.1467 Uani
F6 F -0.2345(4) -0.9180(5) -0.0396(4) 0.1417 Uani
P2 P -0.15653(18) -0.39759(18) -0.0138(2) 0.0975 Uani
F7 F -0.1600(5) -0.4719(4) -0.0515(7) 0.1800 Uani
F8 F -0.1552(5) -0.3204(6) 0.0162(5) 0.1577 Uani
F9 F -0.1425(14) -0.3657(7) -0.0789(6) 0.2723 Uani
F10 F -0.0781(5) -0.4095(8) -0.0069(10) 0.2623 Uani
F11 F -0.1862(11) -0.4304(12) 0.0440(6) 0.3523 Uani
F12 F -0.2366(7) -0.3879(7) -0.0352(10) 0.2400 Uani
O1 O -0.1230(16) -1.311(3) -0.8242(10) 0.6627 Uani
H68 H -0.0819 -1.3067 -0.8436 0.7960 Uiso
C55 C -0.111(4) -1.312(4) -0.7575(14) 0.7100 Uani
H69 H -0.1575 -1.3264 -0.7352 0.8510 Uiso
H70 H -0.0970 -1.2645 -0.7427 0.8510 Uiso
H71 H -0.0717 -1.3459 -0.7470 0.8510 Uiso
loop_
_atom_site_aniso_label
_atom_site_aniso_U_11
_atom_site_aniso_U_22
_atom_site_aniso_U_33
_atom_site_aniso_U_23
_atom_site_aniso_U_13
_atom_site_aniso_U_12
Ag1 0.0654(4) 0.0605(3) 0.0678(4) 0.0000(3) -0.0054(3) -0.0081(3)
Si1 0.0630(14) 0.0604(13) 0.0653(15) 0.0078(12) 0.0075(12) 0.0030(11)
Si2 0.101(2) 0.0548(14) 0.0733(16) 0.0025(13) -0.0002(15) 0.0183(15)
N1 0.055(4) 0.053(4) 0.072(4) -0.001(4) -0.002(3) -0.005(3)
N2 0.075(5) 0.090(6) 0.093(6) 0.038(5) 0.037(5) 0.027(5)
N3 0.077(5) 0.066(4) 0.061(4) -0.009(4) -0.003(4) 0.017(4)
N4 0.059(4) 0.054(4) 0.084(5) 0.007(4) 0.010(4) 0.008(3)
C1 0.055(5) 0.048(4) 0.096(7) -0.003(4) 0.004(5) 0.007(4)
C2 0.058(5) 0.046(4) 0.090(7) -0.009(5) 0.000(5) -0.003(4)
C3 0.060(5) 0.064(5) 0.046(4) 0.001(4) 0.004(4) 0.003(4)
C4 0.083(6) 0.046(4) 0.059(5) -0.005(4) 0.020(4) -0.001(4)
C5 0.069(6) 0.057(4) 0.076(6) -0.011(4) 0.006(5) -0.008(5)
C6 0.087(8) 0.105(9) 0.181(15) 0.071(10) 0.026(9) 0.032(7)
C7 0.062(6) 0.118(9) 0.083(7) -0.010(7) -0.011(5) -0.019(6)
C8 0.32(3) 0.22(2) 0.47(4) -0.08(2) -0.30(3) 0.06(2)
C9 0.055(5) 0.065(5) 0.077(6) 0.007(5) 0.022(4) 0.015(4)
C10 0.055(6) 0.140(10) 0.095(7) 0.053(7) 0.032(6) 0.039(6)
C11 0.071(7) 0.145(11) 0.111(9) 0.059(9) 0.015(7) 0.043(8)
C12 0.079(8) 0.123(10) 0.114(9) 0.070(8) -0.001(7) 0.013(7)
C13 0.073(7) 0.119(9) 0.093(8) 0.051(7) 0.021(6) 0.004(6)
C14 0.136(10) 0.141(11) 0.056(6) 0.020(7) 0.005(6) 0.085(9)
C15 0.137(11) 0.131(10) 0.068(6) 0.010(7) 0.012(7) 0.096(9)
C16 0.080(6) 0.054(4) 0.061(5) 0.000(4) -0.004(5) 0.021(4)
C17 0.092(7) 0.096(7) 0.078(6) -0.025(6) -0.029(6) 0.030(6)
C18 0.092(7) 0.092(7) 0.078(6) -0.027(5) -0.027(6) 0.054(6)
C19 0.123(8) 0.084(6) 0.107(7) 0.005(6) -0.019(6) 0.000(6)
C20 0.29(2) 0.253(19) 0.238(18) 0.118(15) 0.055(14) 0.099(17)
C21 0.145(13) 0.090(8) 0.112(10) 0.026(8) -0.001(9) -0.010(8)
C22 0.29(2) 0.253(19) 0.238(18) 0.118(15) 0.055(14) 0.099(17)
C23 0.086(7) 0.063(5) 0.067(6) 0.004(5) 0.011(5) 0.004(5)
C24 0.062(6) 0.051(5) 0.148(11) 0.009(6) -0.023(6) -0.009(4)
C25 0.056(5) 0.053(4) 0.130(9) 0.008(6) -0.012(6) -0.005(4)
C26 0.059(5) 0.056(5) 0.123(9) 0.003(5) 0.007(5) 0.009(4)
C27 0.056(5) 0.056(5) 0.126(8) -0.012(5) 0.004(5) 0.007(4)
Ag1B 0.0654 0.0605 0.0678 0 -0.0054 0.0081
Ag1C 0.0654 0.0605 0.0678 0 0.0054 0.0081
N2C 0.075 0.09 0.093 0.038 -0.037 -0.027
N4B 0.059 0.054 0.084 -0.007 0.01 -0.008
Ag2 0.0875(5) 0.0875(5) 0.0676(4) -0.0031(4) -0.0162(4) 0.0032(5)
Si3 0.085(2) 0.135(3) 0.0789(19) -0.020(2) -0.0025(17) -0.019(2)
Si4 0.089(2) 0.0773(16) 0.097(2) 0.0133(17) 0.0290(18) 0.0006(15)
N5 0.083(6) 0.113(7) 0.061(5) -0.012(5) -0.014(4) 0.004(5)
N6 0.077(5) 0.073(4) 0.051(4) -0.008(4) 0.004(4) 0.004(4)
N7 0.076(5) 0.065(5) 0.082(6) -0.002(4) 0.001(4) -0.003(4)
N8 0.075(5) 0.097(6) 0.057(4) -0.012(4) 0.019(4) -0.037(5)
C28 0.132(10) 0.091(8) 0.085(7) 0.009(6) 0.025(7) -0.021(8)
C29 0.140(13) 0.114(10) 0.136(12) -0.009(9) -0.023(10) -0.071(10)
C30 0.093(8) 0.100(8) 0.077(7) -0.012(7) 0.002(6) -0.010(7)
C31 0.083(7) 0.164(12) 0.069(6) 0.019(7) 0.004(5) -0.044(8)
C32 0.080(7) 0.127(10) 0.073(6) 0.022(7) -0.022(5) -0.040(7)
C33 0.077(8) 0.36(3) 0.060(6) -0.038(12) 0.022(6) -0.049(12)
C34 0.107(10) 0.222(18) 0.107(9) -0.078(11) -0.042(8) 0.078(11)
C35 0.32(3) 0.22(2) 0.47(4) -0.08(2) -0.30(3) 0.06(2)
C36 0.074(7) 0.108(8) 0.075(7) -0.007(6) 0.006(5) -0.029(6)
C37 0.076(7) 0.167(12) 0.071(6) -0.033(7) 0.010(6) -0.052(8)
C38 0.080(8) 0.144(11) 0.088(7) -0.038(8) 0.009(6) -0.036(8)
C39 0.083(7) 0.073(6) 0.068(6) -0.006(5) -0.003(5) -0.017(5)
C40 0.081(7) 0.105(8) 0.080(7) -0.024(6) 0.027(6) -0.034(6)
C41 0.081(8) 0.167(13) 0.087(8) -0.063(9) -0.021(6) 0.021(8)
C42 0.116(10) 0.123(10) 0.071(6) -0.044(7) -0.008(7) 0.003(8)
C43 0.087(7) 0.066(6) 0.061(6) -0.002(5) -0.002(5) -0.002(5)
C44 0.081(7) 0.095(7) 0.065(6) 0.014(6) -0.003(5) -0.008(6)
C45 0.083(7) 0.096(7) 0.055(5) -0.010(5) 0.000(5) -0.009(6)
C46 0.157(8) 0.150(8) 0.137(8) 0.012(6) 0.026(6) 0.011(6)
C47 0.29(2) 0.253(19) 0.238(18) 0.118(15) 0.055(14) 0.099(17)
C48 0.099(9) 0.098(9) 0.25(2) -0.039(11) 0.054(12) -0.049(8)
C49 0.32(2) 0.33(2) 0.31(2) -0.006(10) -0.001(10) 0.000(10)
C50 0.062(5) 0.071(5) 0.061(5) 0.007(4) -0.002(4) 0.002(4)
C51 0.065(6) 0.104(7) 0.061(5) 0.003(5) 0.012(4) 0.006(6)
C52 0.062(6) 0.088(7) 0.076(6) 0.007(5) 0.004(5) 0.007(5)
C53 0.126(9) 0.066(6) 0.064(6) 0.003(5) 0.038(6) -0.019(6)
C54 0.122(9) 0.095(8) 0.052(5) -0.003(6) 0.035(6) 0.003(7)
Ag2A 0.0875 0.0875 0.0676 0.0031 0.0162 0.0032
Ag2B 0.0875 0.0875 0.0676 0.0031 -0.0162 -0.0032
N6B 0.077 0.073 0.051 0.008 0.004 -0.004
N8A 0.075 0.097 0.057 0.012 -0.019 -0.037
P1 0.0563(13) 0.0981(19) 0.0899(17) -0.0384(16) 0.0123(13) -0.0082(15)
F1 0.101(5) 0.195(9) 0.120(5) -0.083(6) -0.029(4) 0.028(6)
F2 0.101(5) 0.092(5) 0.202(9) -0.055(5) 0.051(5) -0.031(4)
F3 0.101(5) 0.092(4) 0.123(5) -0.041(4) 0.044(4) -0.026(4)
F4 0.113(5) 0.254(11) 0.080(4) -0.050(6) 0.001(4) -0.004(6)
F5 0.125(6) 0.175(8) 0.140(7) -0.051(6) 0.035(5) 0.050(6)
F6 0.091(5) 0.201(9) 0.133(6) -0.046(6) 0.040(5) -0.061(5)
P2 0.0694(18) 0.095(2) 0.128(3) 0.035(2) -0.0071(18) -0.0021(17)
F7 0.114(6) 0.071(4) 0.355(16) -0.002(7) 0.053(9) 0.001(4)
F8 0.119(6) 0.184(9) 0.170(8) -0.077(7) 0.011(6) -0.018(7)
F9 0.53(3) 0.139(9) 0.148(9) 0.013(8) 0.045(15) -0.079(15)
F10 0.074(6) 0.203(11) 0.51(3) 0.015(15) -0.081(10) -0.010(7)
F11 0.41(2) 0.52(3) 0.127(8) 0.079(13) 0.022(12) -0.33(2)
F12 0.166(10) 0.174(10) 0.38(2) -0.130(13) -0.147(13) 0.070(9)
O1 0.30(3) 1.52(16) 0.168(17) 0.20(4) -0.102(19) -0.36(6)
C55 0.71(7) 0.71(7) 0.71(7) -0.002(10) 0.000(10) -0.002(10)
loop_
_geom_bond_atom_site_label_1
_geom_bond_atom_site_label_2
_geom_bond_site_symmetry_1
_geom_bond_site_symmetry_2
Ag1 N1 1_555 1_555
Si1 C3 1_555 1_555
Si2 C16 1_555 1_555
N1 C1 1_555 1_555
N2 C11 1_555 1_555
N3 Ag1 1_555 1_555
N4 C25 1_555 1_555
C1 H1 1_555 1_555
C2 C1 1_555 1_555
H2 C2 1_555 1_555
C3 C2 1_555 1_555
C4 C3 1_555 1_555
H3 C4 1_555 1_555
C5 N1 1_555 1_555
H4 C5 1_555 1_555
C6 Si1 1_555 1_555
H5 C6 1_555 1_555
H6 C6 1_555 1_555
H7 C6 1_555 1_555
C7 Si1 1_555 1_555
H8 C7 1_555 1_555
H9 C7 1_555 1_555
C8 C7 1_555 1_555
H10 C8 1_555 1_555
H11 C8 1_555 1_555
H12 C8 1_555 1_555
C9 Si1 1_555 1_555
C10 C9 1_555 1_555
H13 C10 1_555 1_555
C11 C10 1_555 1_555
H14 C11 1_555 1_555
C12 N2 1_555 1_555
H15 C12 1_555 1_555
C13 C9 1_555 1_555
H16 C13 1_555 1_555
C14 N3 1_555 1_555
H17 C14 1_555 1_555
C15 C14 1_555 1_555
H18 C15 1_555 1_555
C16 C15 1_555 1_555
C17 C16 1_555 1_555
H19 C17 1_555 1_555
C18 N3 1_555 1_555
H20 C18 1_555 1_555
C19 Si2 1_555 1_555
H21 C19 1_555 1_555
H22 C19 1_555 1_555
C20 C19 1_555 1_555
H23 C20 1_555 1_555
H24 C20 1_555 1_555
H25 C20 1_555 1_555
C21 Si2 1_555 1_555
H26 C21 1_555 1_555
H27 C21 1_555 1_555
C22 C21 1_555 1_555
H28 C22 1_555 1_555
H29 C22 1_555 1_555
H30 C22 1_555 1_555
C23 Si2 1_555 1_555
C24 C23 1_555 1_555
H31 C24 1_555 1_555
C25 C24 1_555 1_555
H32 C25 1_555 1_555
C26 N4 1_555 1_555
H33 C26 1_555 1_555
C27 C23 1_555 1_555
H34 C27 1_555 1_555
Ag2 N5 1_555 1_555
Si3 C30 1_555 1_555
Si4 C43 1_555 1_555
N5 C41 1_555 1_555
N6 C52 1_555 1_555
N7 Ag2 1_555 1_555
N8 C38 1_555 1_555
C28 N7 1_555 1_555
H35 C28 1_555 1_555
C29 C28 1_555 1_555
H36 C29 1_555 1_555
C30 C29 1_555 1_555
C31 C30 1_555 1_555
H37 C31 1_555 1_555
C32 N7 1_555 1_555
H38 C32 1_555 1_555
C33 Si3 1_555 1_555
H39 C33 1_555 1_555
H40 C33 1_555 1_555
H41 C33 1_555 1_555
C34 Si3 1_555 1_555
H42 C34 1_555 1_555
H43 C34 1_555 1_555
C35 C34 1_555 1_555
H44 C35 1_555 1_555
H45 C35 1_555 1_555
H46 C35 1_555 1_555
C36 Si3 1_555 1_555
C37 C36 1_555 1_555
H47 C37 1_555 1_555
C38 C37 1_555 1_555
H48 C38 1_555 1_555
C39 N8 1_555 1_555
H49 C39 1_555 1_555
C40 C36 1_555 1_555
H50 C40 1_555 1_555
C41 H51 1_555 1_555
C42 C41 1_555 1_555
H52 C42 1_555 1_555
C43 C42 1_555 1_555
C44 C43 1_555 1_555
H53 C44 1_555 1_555
C45 N5 1_555 1_555
H54 C45 1_555 1_555
C46 Si4 1_555 1_555
H55 C46 1_555 1_555
H56 C46 1_555 1_555
C47 C46 1_555 1_555
H57 C47 1_555 1_555
H58 C47 1_555 1_555
H59 C47 1_555 1_555
C48 Si4 1_555 1_555
H60 C48 1_555 1_555
C49 C48 1_555 1_555
H61 C49 1_555 1_555
H62 C49 1_555 1_555
H63 C49 1_555 1_555
C50 Si4 1_555 1_555
C51 C50 1_555 1_555
H64 C51 1_555 1_555
C52 C51 1_555 1_555
H65 C52 1_555 1_555
C53 N6 1_555 1_555
H66 C53 1_555 1_555
C54 C50 1_555 1_555
H67 C54 1_555 1_555
P1 F1 1_555 1_555
F2 P1 1_555 1_555
F3 P1 1_555 1_555
F4 P1 1_555 1_555
F5 P1 1_555 1_555
F6 P1 1_555 1_555
P2 F7 1_555 1_555
F8 P2 1_555 1_555
F9 P2 1_555 1_555
F10 P2 1_555 1_555
F11 P2 1_555 1_555
F12 P2 1_555 1_555
O1 H68 1_555 1_555
C55 O1 1_555 1_555
H69 C55 1_555 1_555
H70 C55 1_555 1_555
H71 C55 1_555 1_555
Ag1B N4 1_555 1_555
Ag1C N2 1_555 1_555
N2C Ag1 1_555 1_555
N4B Ag1 1_555 1_555
Ag2A N8 1_555 1_555
Ag2B N6 1_555 1_555
N6B Ag2 1_555 1_555
N8A Ag2 1_555 1_555
C4 C5 1_555 1_555
C12 C13 1_555 1_555
C17 C18 1_555 1_555
C26 C27 1_555 1_555
C31 C32 1_555 1_555
C39 C40 1_555 1_555
C44 C45 1_555 1_555
C53 C54 1_555 1_555

#END
