
#######################################################################
#
#                 Cambridge Crystallographic Data Centre
#                                CCDC 
#
#######################################################################
#
# If this CIF has been generated from an entry in the Cambridge 
# Structural Database, then it will include bibliographic, chemical, 
# crystal, experimental, refinement or atomic coordinate data resulting 
# from the CCDC's data processing and validation procedures.
#
#######################################################################

data_QIYCOS
_chemical_formula_moiety         '(C54 H68 Ag2 F12 N8 O2 P2 Si4)n'
_symmetry_cell_setting           orthorhombic
_symmetry_space_group_name_H-M   'P 21 21 21'
_symmetry_Int_Tables_number      19
_space_group_name_Hall           'P 2ac 2ab'
loop_
_symmetry_equiv_pos_site_id
_symmetry_equiv_pos_as_xyz
1 x,y,z
2 1/2-x,-y,1/2+z
3 -x,1/2+y,1/2-z
4 1/2+x,1/2-y,-z
_cell_length_a                   18.094(2)
_cell_length_b                   18.445(3)
_cell_length_c                   20.183(3)
_cell_angle_alpha                90
_cell_angle_beta                 90
_cell_angle_gamma                90
_cell_volume                     6735.95
loop_
_atom_site_label
_atom_site_type_symbol
_atom_site_fract_x
_atom_site_fract_y
_atom_site_fract_z
_atom_site_U_iso_or_equiv
_atom_site_thermal_displace_type
Ag1 Ag 0.83987(4) 0.37616(4) 0.84512(4) 0.0641 Uani
Si1 Si 0.95793(18) 0.5164(2) 1.14705(19) 0.0877 Uani
Si2 Si 1.12919(19) 0.49597(17) 0.63461(16) 0.0723 Uani
N1 N 0.8699(5) 0.4204(5) 0.9463(4) 0.0647 Uani
N2 N 0.7612(4) 0.5874(5) 1.2861(4) 0.0517 Uani
N3 N 0.9386(5) 0.4066(5) 0.7685(4) 0.0547 Uani
N4 N 1.1427(4) 0.7507(4) 0.6418(4) 0.0540 Uani
C1 C 0.9363(7) 0.4142(7) 0.9644(5) 0.0837 Uani
H1 H 0.9695 0.3889 0.9363 0.1000 Uiso
C2 C 0.9637(6) 0.4430(7) 1.0245(5) 0.0863 Uani
H2 H 1.0145 0.4379 1.0355 0.1040 Uiso
C3 C 0.9171(6) 0.4780(7) 1.0665(5) 0.0647 Uani
C4 C 0.8488(8) 0.4802(8) 1.0465(6) 0.1083 Uani
H3 H 0.8139 0.5038 1.0743 0.1300 Uiso
C5 C 0.8241(6) 0.4518(7) 0.9897(5) 0.0790 Uani
H4 H 0.7728 0.4539 0.9800 0.0950 Uiso
C6 C 0.8747(6) 0.5411(7) 1.2021(5) 0.0633 Uani
C7 C 0.8333(6) 0.6029(6) 1.1878(5) 0.0800 Uani
H5 H 0.8422 0.6303 1.1487 0.0960 Uiso
C8 C 0.7791(5) 0.6231(7) 1.2320(5) 0.0710 Uani
H6 H 0.7525 0.6662 1.2227 0.0850 Uiso
C9 C 0.8006(6) 0.5287(6) 1.3002(5) 0.0640 Uani
H7 H 0.7909 0.5034 1.3403 0.0770 Uiso
C10 C 0.8546(6) 0.5038(6) 1.2589(5) 0.0690 Uani
H8 H 0.8791 0.4598 1.2694 0.0830 Uiso
C11 C 1.0180(6) 0.4482(5) 1.1850(5) 0.1093 Uani
H9 H 0.9954 0.4310 1.2268 0.1310 Uiso
H10 H 1.0226 0.4062 1.1548 0.1310 Uiso
C12 C 1.0898(8) 0.4769(9) 1.1986(11) 0.3867 Uani
H11 H 1.1205 0.4392 1.2189 0.5770 Uiso
H12 H 1.0855 0.5180 1.2290 0.5770 Uiso
H13 H 1.1127 0.4930 1.1572 0.5770 Uiso
C13 C 1.0173(6) 0.5937(5) 1.1257(6) 0.1720 Uani
H14 H 0.9905 0.6265 1.0960 0.2060 Uiso
H15 H 1.0621 0.5761 1.1036 0.2060 Uiso
H16 H 1.0310 0.6198 1.1662 0.2060 Uiso
C14 C 1.0070(6) 0.4012(6) 0.7878(5) 0.0613 Uani
H17 H 1.0176 0.3784 0.8290 0.0740 Uiso
C15 C 1.0664(6) 0.4283(6) 0.7489(5) 0.0603 Uani
H18 H 1.1158 0.4235 0.7644 0.0720 Uiso
C16 C 1.0533(6) 0.4610(5) 0.6895(5) 0.0487 Uani
C17 C 0.9796(8) 0.4642(6) 0.6719(6) 0.0770 Uani
H19 H 0.9663 0.4872 0.6316 0.0920 Uiso
C18 C 0.9261(6) 0.4359(6) 0.7097(5) 0.0647 Uani
H20 H 0.8768 0.4368 0.6936 0.0780 Uiso
C19 C 1.1285(5) 0.5981(5) 0.6374(5) 0.0517 Uani
C20 C 1.1010(6) 0.6376(6) 0.6874(5) 0.0733 Uani
H21 H 1.0768 0.6134 0.7229 0.0880 Uiso
C21 C 1.1067(6) 0.7127(7) 0.6891(5) 0.0700 Uani
H22 H 1.0845 0.7382 0.7248 0.0840 Uiso
C22 C 1.1721(6) 0.7131(6) 0.5923(5) 0.0550 Uani
H23 H 1.1970 0.7385 0.5580 0.0660 Uiso
C23 C 1.1679(6) 0.6385(6) 0.5889(4) 0.0637 Uani
H24 H 1.1917 0.6137 0.5536 0.0770 Uiso
C24 C 1.2186(4) 0.4621(8) 0.6658(7) 0.1710 Uani
H25 H 1.2532 0.5026 0.6743 0.2050 Uiso
H26 H 1.2120 0.4340 0.7072 0.2050 Uiso
C25 C 1.1254(8) 0.4634(7) 0.5484(3) 0.1113 Uani
H27 H 1.0843 0.4288 0.5411 0.1340 Uiso
H28 H 1.1221 0.5037 0.5162 0.1340 Uiso
C26 C 1.1962(13) 0.4284(18) 0.5470(8) 0.4733 Uani
H29 H 1.2273 0.4561 0.5156 0.5660 Uiso
H30 H 1.1886 0.3799 0.5272 0.5660 Uiso
C27 C 1.2448(18) 0.4168(18) 0.6132(11) 0.5533 Uani
H31 H 1.2419 0.3654 0.6271 0.6620 Uiso
H32 H 1.2971 0.4283 0.6038 0.6620 Uiso
Ag1A Ag 0.66013(4) 0.62384(4) 1.34512(4) 0.0641 Uani
Ag1B Ag 1.16013(4) 0.87616(4) 0.65488(4) 0.0641 Uani
N2A N 0.7388(4) 0.4126(5) 0.7861(4) 0.0517 Uani
N4B N 0.8573(4) 0.2507(4) 0.8582(4) 0.0540 Uani
Ag2 Ag 0.83315(4) 0.86723(4) 0.14911(4) 0.0583 Uani
Si3 Si 0.44860(16) 0.82810(16) 0.13283(14) 0.0540 Uani
Si4 Si 0.9621(2) 0.6764(2) 0.42688(17) 0.0723 Uani
N5 N 0.7072(4) 0.8588(5) 0.1372(4) 0.0520 Uani
N6 N 0.3823(6) 0.7097(5) -0.0646(4) 0.0687 Uani
N7 N 0.8688(5) 0.7987(5) 0.2388(4) 0.0553 Uani
N8 N 1.1020(4) 0.4715(4) 0.3603(4) 0.0513 Uani
C28 C 0.6753(5) 0.7944(5) 0.1406(5) 0.0467 Uani
H33 H 0.7062 0.7530 0.1447 0.0560 Uiso
C29 C 0.5981(6) 0.7834(5) 0.1386(5) 0.0503 Uani
H34 H 0.5787 0.7356 0.1400 0.0600 Uiso
C30 C 0.5506(5) 0.8418(5) 0.1347(5) 0.0450 Uani
C31 C 0.5848(6) 0.9082(5) 0.1286(5) 0.0540 Uani
H35 H 0.5554 0.9504 0.1228 0.0650 Uiso
C32 C 0.6612(7) 0.9150(6) 0.1309(5) 0.0647 Uani
H36 H 0.6819 0.9623 0.1278 0.0780 Uiso
C33 C 0.4272(6) 0.7826(6) 0.0519(5) 0.0490 Uani
C34 C 0.3543(9) 0.7763(7) 0.0356(6) 0.1173 Uani
H37 H 0.3175 0.7959 0.0640 0.1410 Uiso
C35 C 0.3332(8) 0.7400(7) -0.0246(7) 0.0977 Uani
H38 H 0.2823 0.7376 -0.0360 0.1170 Uiso
C36 C 0.4520(7) 0.7156(6) -0.0453(6) 0.0700 Uani
H39 H 0.4892 0.6946 -0.0725 0.0840 Uiso
C37 C 0.4733(7) 0.7494(7) 0.0104(6) 0.0830 Uani
H40 H 0.5245 0.7497 0.0209 0.1000 Uiso
C38 C 0.3971(5) 0.9092(4) 0.1575(5) 0.0853 Uani
H41 H 0.4303 0.9499 0.1694 0.1020 Uiso
H42 H 0.3619 0.9251 0.1229 0.1020 Uiso
C39 C 0.4203(6) 0.7700(5) 0.2020(4) 0.0853 Uani
H43 H 0.3904 0.7290 0.1854 0.1020 Uiso
H44 H 0.4644 0.7502 0.2246 0.1020 Uiso
C40 C 0.3777(12) 0.8124(10) 0.2476(8) 0.2423 Uani
H45 H 0.4065 0.8220 0.2884 0.2910 Uiso
H46 H 0.3318 0.7864 0.2599 0.2910 Uiso
C41 C 0.3601(11) 0.8793(9) 0.2146(8) 0.2527 Uani
H47 H 0.3628 0.9173 0.2492 0.3050 Uiso
H48 H 0.3074 0.8755 0.2020 0.3050 Uiso
C42 C 0.9311(7) 0.7626(7) 0.2378(6) 0.0797 Uani
H49 H 0.9598 0.7636 0.1984 0.0950 Uiso
C43 C 0.9573(6) 0.7231(7) 0.2911(7) 0.0913 Uani
H50 H 1.0018 0.6963 0.2864 0.1100 Uiso
C44 C 0.9206(6) 0.7216(5) 0.3506(6) 0.0520 Uani
C45 C 0.8601(5) 0.7635(5) 0.3510(6) 0.0617 Uani
H51 H 0.8340 0.7693 0.3915 0.0740 Uiso
C46 C 0.8353(6) 0.7968(5) 0.2981(5) 0.0670 Uani
H52 H 0.7896 0.8218 0.3021 0.0800 Uiso
C47 C 1.0201(7) 0.5963(6) 0.3983(5) 0.0657 Uani
C48 C 0.9883(6) 0.5285(6) 0.3929(5) 0.0653 Uani
H53 H 0.9371 0.5221 0.4015 0.0780 Uiso
C49 C 1.0326(6) 0.4690(6) 0.3746(5) 0.0643 Uani
H54 H 1.0093 0.4229 0.3725 0.0770 Uiso
C50 C 1.1338(6) 0.5391(7) 0.3660(5) 0.0710 Uani
H55 H 1.1853 0.5438 0.3579 0.0850 Uiso
C51 C 1.0944(7) 0.5998(7) 0.3828(5) 0.0713 Uani
H56 H 1.1187 0.6454 0.3839 0.0860 Uiso
C52 C 1.0245(6) 0.7390(6) 0.4698(7) 0.1600 Uani
H57 H 1.0637 0.7545 0.4394 0.1920 Uiso
H58 H 1.0466 0.7145 0.5081 0.1920 Uiso
H59 H 0.9967 0.7815 0.4849 0.1920 Uiso
C53 C 0.8936(5) 0.6480(8) 0.4883(5) 0.1463 Uani
H60 H 0.8549 0.6858 0.4908 0.1760 Uiso
H61 H 0.8696 0.6031 0.4720 0.1760 Uiso
C54 C 0.9204(8) 0.6347(10) 0.5540(5) 0.1903 Uani
H62 H 0.8791 0.6207 0.5827 0.2310 Uiso
H63 H 0.9436 0.6788 0.5714 0.2310 Uiso
H64 H 0.9569 0.5954 0.5529 0.2310 Uiso
Ag2B Ag 1.16685(4) 0.36723(4) 0.35089(4) 0.0583 Uani
Ag2C Ag 0.33315(4) 0.63277(4) -0.14911(4) 0.0583 Uani
N6C N 0.8823(6) 0.7903(5) 0.0646(4) 0.0687 Uani
N8B N 0.8980(4) 0.9715(4) 0.1397(4) 0.0513 Uani
P1 P 1.17132(19) 0.3653(2) 0.93364(16) 0.0737 Uani
F1 F 1.1383(4) 0.3547(4) 1.0060(3) 0.1217 Uani
F2 F 1.1177(4) 0.3042(4) 0.9047(4) 0.1210 Uani
F3 F 1.2023(3) 0.3741(4) 0.8605(3) 0.1177 Uani
F4 F 1.2271(4) 0.4253(4) 0.9585(3) 0.0963 Uani
F5 F 1.1131(4) 0.4268(4) 0.9194(3) 0.1040 Uani
F6 F 1.2305(4) 0.3076(5) 0.9478(4) 0.1390 Uani
P2 P 0.1597(3) 0.8908(2) -0.0079(2) 0.1010 Uani
F7 F 0.1599(4) 0.8085(4) 0.0145(4) 0.1183 Uani
F8 F 0.1593(5) 0.9737(4) -0.0292(6) 0.1873 Uani
F9 F 0.2166(6) 0.8775(6) -0.0577(5) 0.2270 Uani
F10 F 0.0939(6) 0.8797(6) -0.0492(5) 0.2220 Uani
F11 F 0.1015(6) 0.8927(7) 0.0608(5) 0.2637 Uani
F12 F 0.2103(7) 0.9098(7) 0.0422(7) 0.2527 Uani
O1 O 0.1294(7) 0.7870(8) 0.1804(7) 0.3247 Uani
H65 H 0.1027 0.8227 0.1770 0.3900 Uiso
H66 H 0.1267 0.7708 0.2181 0.3900 Uiso
O2 O 1.1907(8) 0.7967(10) 0.3372(9) 0.4007 Uani
H67 H 1.1931 0.7524 0.3342 0.4810 Uiso
H68 H 1.2323 0.8140 0.3343 0.4810 Uiso
loop_
_atom_site_aniso_label
_atom_site_aniso_U_11
_atom_site_aniso_U_22
_atom_site_aniso_U_33
_atom_site_aniso_U_23
_atom_site_aniso_U_13
_atom_site_aniso_U_12
Ag1 0.0699(6) 0.0716(6) 0.0509(5) 0.0045(6) -0.0078(6) 0.0056(6)
Si1 0.075(2) 0.121(3) 0.067(2) -0.035(3) -0.013(2) 0.034(2)
Si2 0.089(2) 0.059(2) 0.069(2) -0.001(2) 0.022(2) 0.0116(18)
N1 0.062(7) 0.081(7) 0.051(6) 0.008(6) -0.013(6) 0.017(6)
N2 0.040(5) 0.069(7) 0.046(6) 0.008(5) -0.010(5) 0.014(5)
N3 0.064(7) 0.051(6) 0.049(6) -0.001(5) -0.005(5) 0.006(5)
N4 0.058(6) 0.057(5) 0.047(5) 0.010(6) 0.024(5) -0.004(4)
C1 0.070(9) 0.131(13) 0.050(8) -0.030(8) -0.008(7) 0.033(9)
C2 0.062(9) 0.146(13) 0.051(8) -0.028(9) -0.007(7) 0.064(9)
C3 0.041(7) 0.102(10) 0.051(7) -0.019(7) -0.015(7) 0.001(8)
C4 0.071(11) 0.167(15) 0.087(10) -0.054(11) 0.015(9) 0.010(11)
C5 0.038(8) 0.145(12) 0.054(7) -0.040(8) -0.005(6) 0.014(8)
C6 0.063(8) 0.083(10) 0.044(7) -0.020(7) 0.013(6) 0.025(7)
C7 0.062(8) 0.115(11) 0.063(7) 0.027(7) 0.003(7) 0.037(9)
C8 0.065(8) 0.091(10) 0.057(7) 0.002(9) 0.007(6) 0.039(8)
C9 0.051(8) 0.073(9) 0.068(8) -0.004(7) 0.001(6) 0.019(7)
C10 0.065(10) 0.074(9) 0.068(8) 0.013(8) -0.002(7) 0.029(8)
C11 0.117(10) 0.145(11) 0.066(8) -0.025(8) -0.031(7) 0.060(9)
C12 0.27(2) 0.49(3) 0.40(2) -0.039(19) 0.007(18) -0.015(18)
C13 0.151(11) 0.148(12) 0.217(15) -0.056(12) -0.044(11) -0.087(10)
C14 0.053(7) 0.087(9) 0.044(6) 0.025(6) -0.009(6) -0.002(7)
C15 0.050(7) 0.090(9) 0.041(7) -0.005(7) -0.009(6) 0.015(7)
C16 0.069(8) 0.035(6) 0.042(7) -0.001(5) -0.016(6) -0.003(6)
C17 0.106(11) 0.075(9) 0.050(8) 0.018(7) -0.015(8) -0.017(8)
C18 0.068(9) 0.080(9) 0.046(7) 0.000(7) -0.006(7) -0.017(7)
C19 0.075(7) 0.049(7) 0.031(6) -0.002(6) 0.002(6) 0.022(6)
C20 0.097(9) 0.054(9) 0.069(8) 0.008(8) 0.032(7) -0.023(8)
C21 0.080(9) 0.084(10) 0.046(7) -0.007(7) 0.011(6) -0.018(8)
C22 0.054(7) 0.064(8) 0.047(7) -0.011(6) 0.010(6) -0.012(7)
C23 0.089(8) 0.062(8) 0.040(6) -0.003(6) 0.016(6) 0.004(9)
C24 0.106(10) 0.167(13) 0.240(15) 0.070(13) 0.088(11) -0.027(10)
C25 0.184(13) 0.102(10) 0.048(7) 0.000(8) 0.001(8) -0.014(10)
C26 0.51(3) 0.47(3) 0.44(3) -0.08(2) 0.02(2) -0.02(2)
C27 0.51(3) 0.54(4) 0.61(4) -0.01(2) -0.03(2) 0.02(2)
Ag1A 0.0699 0.0716 0.0509 -0.0045 0.0078 0.0056
Ag1B 0.0699 0.0716 0.0509 -0.0045 -0.0078 -0.0056
N2A 0.04 0.069 0.046 -0.008 0.01 0.014
N4B 0.058 0.057 0.047 -0.01 0.024 0.004
Ag2 0.0616(5) 0.0636(5) 0.0498(5) -0.0012(6) 0.0022(5) -0.0044(6)
Si3 0.060(2) 0.048(2) 0.054(2) -0.0070(18) -0.0012(17) 0.0006(16)
Si4 0.086(3) 0.069(3) 0.062(2) 0.000(2) -0.007(2) 0.036(2)
N5 0.045(5) 0.058(6) 0.053(5) 0.003(6) 0.000(5) 0.002(5)
N6 0.084(8) 0.071(8) 0.051(6) -0.012(6) 0.006(6) 0.027(7)
N7 0.042(6) 0.059(7) 0.065(6) -0.007(5) 0.005(5) 0.024(5)
N8 0.040(5) 0.067(6) 0.047(5) -0.008(5) -0.008(5) 0.001(5)
C28 0.058(7) 0.033(6) 0.049(7) 0.006(6) -0.005(6) -0.003(5)
C29 0.061(7) 0.053(7) 0.037(7) 0.000(6) 0.003(6) 0.003(6)
C30 0.054(7) 0.040(6) 0.041(7) -0.002(6) 0.011(6) 0.007(6)
C31 0.075(9) 0.034(7) 0.053(8) -0.006(6) -0.010(6) 0.009(6)
C32 0.069(8) 0.062(8) 0.063(8) 0.009(6) 0.000(8) -0.034(8)
C33 0.030(7) 0.059(8) 0.058(8) 0.015(7) -0.009(6) -0.011(6)
C34 0.145(15) 0.122(12) 0.085(10) -0.076(9) -0.045(10) 0.062(11)
C35 0.081(8) 0.111(8) 0.101(8) -0.005(7) -0.020(7) 0.016(8)
C36 0.042(8) 0.070(9) 0.098(11) -0.031(8) 0.000(8) 0.008(7)
C37 0.074(10) 0.107(11) 0.068(9) -0.065(8) -0.043(7) 0.051(8)
C38 0.091(7) 0.078(7) 0.087(7) -0.011(6) 0.006(6) 0.010(5)
C39 0.091(7) 0.078(7) 0.087(7) -0.011(6) 0.006(6) 0.010(5)
C40 0.27(2) 0.28(2) 0.177(16) 0.073(17) 0.055(15) 0.006(18)
C41 0.248(18) 0.26(2) 0.250(18) -0.109(17) 0.168(16) -0.037(17)
C42 0.089(11) 0.099(11) 0.051(8) 0.001(8) 0.035(8) 0.011(9)
C43 0.056(9) 0.127(13) 0.091(11) 0.012(10) -0.008(8) 0.059(9)
C44 0.059(7) 0.051(7) 0.046(7) 0.014(7) -0.001(8) 0.004(6)
C45 0.056(7) 0.079(8) 0.050(7) 0.002(8) 0.007(7) 0.017(6)
C46 0.062(8) 0.071(8) 0.068(8) 0.022(7) 0.029(8) 0.036(8)
C47 0.079(10) 0.071(10) 0.047(7) 0.021(7) -0.021(7) 0.014(8)
C48 0.057(8) 0.060(8) 0.079(9) 0.016(7) 0.007(7) -0.006(8)
C49 0.055(8) 0.064(8) 0.074(9) -0.005(7) -0.006(7) -0.007(7)
C50 0.057(8) 0.078(9) 0.078(9) -0.005(8) 0.016(7) -0.012(7)
C51 0.066(9) 0.074(10) 0.074(9) 0.009(8) -0.002(7) 0.004(8)
C52 0.158(13) 0.163(13) 0.159(13) -0.088(11) -0.062(11) 0.063(11)
C53 0.165(14) 0.106(14) 0.168(14) 0.047(12) 0.107(12) 0.058(11)
C54 0.32(2) 0.21(2) 0.041(8) 0.035(13) 0.019(11) 0.09(2)
Ag2B 0.0616 0.0636 0.0498 0.0012 0.0022 0.0044
Ag2C 0.0616 0.0636 0.0498 -0.0012 -0.0022 0.0044
N6C 0.084 0.071 0.051 -0.012 -0.006 -0.027
N8B 0.04 0.067 0.047 0.008 -0.008 -0.001
P1 0.058(2) 0.086(3) 0.077(2) 0.035(2) -0.016(2) -0.004(3)
F1 0.148(7) 0.129(7) 0.088(5) 0.046(5) 0.032(5) -0.004(6)
F2 0.140(7) 0.095(6) 0.128(7) 0.021(5) -0.049(5) -0.036(6)
F3 0.105(5) 0.184(7) 0.064(4) 0.027(6) -0.012(4) -0.044(5)
F4 0.086(5) 0.129(6) 0.074(5) 0.016(5) -0.018(4) -0.050(5)
F5 0.081(5) 0.104(6) 0.127(6) 0.044(5) -0.006(5) 0.010(5)
F6 0.133(7) 0.147(8) 0.137(8) 0.015(7) -0.030(6) 0.063(7)
P2 0.075(3) 0.083(4) 0.145(4) -0.037(3) -0.002(3) 0.000(3)
F7 0.108(6) 0.113(7) 0.134(6) 0.004(5) 0.017(6) -0.021(6)
F8 0.124(7) 0.075(5) 0.363(11) -0.010(7) -0.053(8) -0.005(6)
F9 0.285(10) 0.143(8) 0.253(9) 0.062(8) 0.193(9) 0.057(8)
F10 0.212(9) 0.133(8) 0.321(11) 0.092(9) -0.181(8) -0.051(7)
F11 0.171(8) 0.217(11) 0.403(13) -0.096(10) 0.118(9) 0.042(8)
F12 0.254(11) 0.219(11) 0.285(12) -0.038(10) -0.026(10) -0.123(9)
O1 0.300(15) 0.413(18) 0.261(14) -0.104(14) 0.032(12) -0.189(14)
O2 0.272(17) 0.55(3) 0.38(2) 0.23(3) 0.078(18) 0.031(18)
loop_
_geom_bond_atom_site_label_1
_geom_bond_atom_site_label_2
_geom_bond_site_symmetry_1
_geom_bond_site_symmetry_2
Ag1 N1 1_555 1_555
Si1 C3 1_555 1_555
Si2 C16 1_555 1_555
N1 C1 1_555 1_555
N2 C8 1_555 1_555
N3 Ag1 1_555 1_555
N4 C21 1_555 1_555
C1 H1 1_555 1_555
C2 C1 1_555 1_555
H2 C2 1_555 1_555
C3 C2 1_555 1_555
C4 C3 1_555 1_555
H3 C4 1_555 1_555
C5 N1 1_555 1_555
H4 C5 1_555 1_555
C6 Si1 1_555 1_555
C7 C6 1_555 1_555
H5 C7 1_555 1_555
C8 C7 1_555 1_555
H6 C8 1_555 1_555
C9 N2 1_555 1_555
H7 C9 1_555 1_555
C10 C6 1_555 1_555
H8 C10 1_555 1_555
C11 Si1 1_555 1_555
H9 C11 1_555 1_555
H10 C11 1_555 1_555
C12 C11 1_555 1_555
H11 C12 1_555 1_555
H12 C12 1_555 1_555
H13 C12 1_555 1_555
C13 Si1 1_555 1_555
H14 C13 1_555 1_555
H15 C13 1_555 1_555
H16 C13 1_555 1_555
C14 N3 1_555 1_555
H17 C14 1_555 1_555
C15 C14 1_555 1_555
H18 C15 1_555 1_555
C16 C15 1_555 1_555
C17 C16 1_555 1_555
H19 C17 1_555 1_555
C18 N3 1_555 1_555
H20 C18 1_555 1_555
C19 Si2 1_555 1_555
C20 C19 1_555 1_555
H21 C20 1_555 1_555
C21 C20 1_555 1_555
H22 C21 1_555 1_555
C22 N4 1_555 1_555
H23 C22 1_555 1_555
C23 C19 1_555 1_555
H24 C23 1_555 1_555
C24 Si2 1_555 1_555
H25 C24 1_555 1_555
H26 C24 1_555 1_555
C25 Si2 1_555 1_555
H27 C25 1_555 1_555
H28 C25 1_555 1_555
C26 C25 1_555 1_555
H29 C26 1_555 1_555
H30 C26 1_555 1_555
C27 C24 1_555 1_555
H31 C27 1_555 1_555
H32 C27 1_555 1_555
Ag2 N5 1_555 1_555
Si3 C30 1_555 1_555
Si4 C44 1_555 1_555
N5 C28 1_555 1_555
N6 C35 1_555 1_555
N7 Ag2 1_555 1_555
N8 C49 1_555 1_555
C28 H33 1_555 1_555
C29 C28 1_555 1_555
H34 C29 1_555 1_555
C30 C29 1_555 1_555
C31 C30 1_555 1_555
H35 C31 1_555 1_555
C32 N5 1_555 1_555
H36 C32 1_555 1_555
C33 Si3 1_555 1_555
C34 C33 1_555 1_555
H37 C34 1_555 1_555
C35 C34 1_555 1_555
H38 C35 1_555 1_555
C36 N6 1_555 1_555
H39 C36 1_555 1_555
C37 C33 1_555 1_555
H40 C37 1_555 1_555
C38 Si3 1_555 1_555
H41 C38 1_555 1_555
H42 C38 1_555 1_555
C39 Si3 1_555 1_555
H43 C39 1_555 1_555
H44 C39 1_555 1_555
C40 C39 1_555 1_555
H45 C40 1_555 1_555
H46 C40 1_555 1_555
C41 C38 1_555 1_555
H47 C41 1_555 1_555
H48 C41 1_555 1_555
C42 N7 1_555 1_555
H49 C42 1_555 1_555
C43 C42 1_555 1_555
H50 C43 1_555 1_555
C44 C43 1_555 1_555
C45 C44 1_555 1_555
H51 C45 1_555 1_555
C46 N7 1_555 1_555
H52 C46 1_555 1_555
C47 Si4 1_555 1_555
C48 C47 1_555 1_555
H53 C48 1_555 1_555
C49 C48 1_555 1_555
H54 C49 1_555 1_555
C50 N8 1_555 1_555
H55 C50 1_555 1_555
C51 C47 1_555 1_555
H56 C51 1_555 1_555
C52 Si4 1_555 1_555
H57 C52 1_555 1_555
H58 C52 1_555 1_555
H59 C52 1_555 1_555
C53 Si4 1_555 1_555
H60 C53 1_555 1_555
H61 C53 1_555 1_555
C54 C53 1_555 1_555
H62 C54 1_555 1_555
H63 C54 1_555 1_555
H64 C54 1_555 1_555
P1 F1 1_555 1_555
F2 P1 1_555 1_555
F3 P1 1_555 1_555
F4 P1 1_555 1_555
F5 P1 1_555 1_555
F6 P1 1_555 1_555
P2 F7 1_555 1_555
F8 P2 1_555 1_555
F9 P2 1_555 1_555
F10 P2 1_555 1_555
F11 P2 1_555 1_555
F12 P2 1_555 1_555
O1 H65 1_555 1_555
H66 O1 1_555 1_555
O2 H67 1_555 1_555
H68 O2 1_555 1_555
Ag1A N2 1_555 1_555
Ag1B N4 1_555 1_555
N2A Ag1 1_555 1_555
N4B Ag1 1_555 1_555
Ag2B N8 1_555 1_555
Ag2C N6 1_555 1_555
N6C Ag2 1_555 1_555
N8B Ag2 1_555 1_555
C4 C5 1_555 1_555
C9 C10 1_555 1_555
C17 C18 1_555 1_555
C22 C23 1_555 1_555
C26 C27 1_555 1_555
C31 C32 1_555 1_555
C36 C37 1_555 1_555
C40 C41 1_555 1_555
C45 C46 1_555 1_555
C50 C51 1_555 1_555

#END
