
#######################################################################
#
#                 Cambridge Crystallographic Data Centre
#                                CCDC 
#
#######################################################################
#
# If this CIF has been generated from an entry in the Cambridge 
# Structural Database, then it will include bibliographic, chemical, 
# crystal, experimental, refinement or atomic coordinate data resulting 
# from the CCDC's data processing and validation procedures.
#
#######################################################################

data_IMIDZB11
_chemical_formula_moiety         '(C12 H12 N8 Zn2)n'
_symmetry_cell_setting           orthorhombic
_symmetry_space_group_name_H-M   'P b c a'
_symmetry_Int_Tables_number      61
_space_group_name_Hall           '-P 2ac 2ab'
loop_
_symmetry_equiv_pos_site_id
_symmetry_equiv_pos_as_xyz
1 x,y,z
2 -x,1/2+y,1/2-z
3 1/2-x,-y,1/2+z
4 1/2+x,1/2-y,-z
5 -x,-y,-z
6 x,1/2-y,1/2+z
7 1/2+x,y,1/2-z
8 1/2-x,1/2+y,z
_cell_length_a                   15.50051(15)
_cell_length_b                   15.52013(14)
_cell_length_c                   18.05823(17)
_cell_angle_alpha                90
_cell_angle_beta                 90
_cell_angle_gamma                90
_cell_volume                     4344.27
loop_
_atom_site_label
_atom_site_type_symbol
_atom_site_fract_x
_atom_site_fract_y
_atom_site_fract_z
_atom_site_U_iso_or_equiv
_atom_site_thermal_displace_type
Zn1 Zn 0.3002(3) 0.3543(3) 0.0912(2) 0.0593 Uiso
Zn2 Zn -0.0054(3) 0.1562(3) 0.1877(2) 0.0593 Uiso
N1 N 0.175(2) 0.3291(18) 0.1199(13) 0.0633 Uiso
N2 N 0.0578(16) 0.263(3) 0.1601(17) 0.0633 Uiso
C1 C 0.1450(16) 0.2668(13) 0.1615(9) 0.0633 Uiso
C2 C 0.029(2) 0.321(3) 0.116(2) 0.0633 Uiso
C3 C 0.101(3) 0.366(2) 0.0886(18) 0.0633 Uiso
N3 N 0.329(4) 0.457(5) 0.1568(17) 0.0633 Uiso
N4 N 0.425(4) 0.558(3) 0.1851(14) 0.0633 Uiso
C4 C 0.3961(16) 0.5006(18) 0.1349(6) 0.0633 Uiso
C5 C 0.370(3) 0.550(4) 0.2490(12) 0.0633 Uiso
C6 C 0.311(4) 0.486(7) 0.2287(18) 0.0633 Uiso
N5 N 0.3648(18) 0.249(2) 0.1252(15) 0.0633 Uiso
N6 N 0.439(2) 0.1945(15) 0.220(2) 0.0633 Uiso
C7 C 0.4009(14) 0.2649(9) 0.1891(14) 0.0633 Uiso
C8 C 0.428(3) 0.1335(11) 0.173(4) 0.0633 Uiso
C9 C 0.381(3) 0.165(3) 0.112(3) 0.0633 Uiso
N7 N 0.317(3) 0.381(8) -0.0173(19) 0.0633 Uiso
N8 N 0.417(2) 0.367(3) -0.1038(13) 0.0633 Uiso
C10 C 0.3956(15) 0.3587(9) -0.0317(12) 0.0633 Uiso
C11 C 0.343(4) 0.402(5) -0.1404(18) 0.0633 Uiso
C12 C 0.281(5) 0.410(11) -0.084(3) 0.0633 Uiso
Zn2G Zn 0.5054(3) 0.6562(3) 0.1877(2) 0.0593 Uiso
Zn2C Zn 0.4946(3) 0.3438(3) -0.1877(2) 0.0593 Uiso
Zn2F Zn 0.4946(3) 0.1562(3) 0.3123(2) 0.0593 Uiso
N4G N 0.075(4) 0.058(3) 0.1851(14) 0.0633 Uiso
N6F N -0.061(2) 0.1945(15) 0.280(2) 0.0633 Uiso
N8C N -0.083(2) 0.133(3) 0.1038(13) 0.0633 Uiso
loop_
_geom_bond_atom_site_label_1
_geom_bond_atom_site_label_2
_geom_bond_site_symmetry_1
_geom_bond_site_symmetry_2
Zn1 N1 1_555 1_555
Zn2 N2 1_555 1_555
N1 C1 1_555 1_555
N2 C1 1_555 1_555
C2 N2 1_555 1_555
C3 N1 1_555 1_555
N3 Zn1 1_555 1_555
N4 C4 1_555 1_555
C4 N3 1_555 1_555
C5 N4 1_555 1_555
C6 N3 1_555 1_555
N5 Zn1 1_555 1_555
N6 C7 1_555 1_555
C7 N5 1_555 1_555
C8 N6 1_555 1_555
C9 N5 1_555 1_555
N7 Zn1 1_555 1_555
N8 C10 1_555 1_555
C10 N7 1_555 1_555
C11 N8 1_555 1_555
C12 N7 1_555 1_555
Zn2G N4 1_555 1_555
Zn2C N8 1_555 1_555
Zn2F N6 1_555 1_555
N4G Zn2 1_555 1_555
N6F Zn2 1_555 1_555
N8C Zn2 1_555 1_555
C2 C3 1_555 1_555
C5 C6 1_555 1_555
C8 C9 1_555 1_555
C11 C12 1_555 1_555

#END
