
#######################################################################
#
#                 Cambridge Crystallographic Data Centre
#                                CCDC 
#
#######################################################################
#
# If this CIF has been generated from an entry in the Cambridge 
# Structural Database, then it will include bibliographic, chemical, 
# crystal, experimental, refinement or atomic coordinate data resulting 
# from the CCDC's data processing and validation procedures.
#
#######################################################################

data_PUKVAU
_chemical_formula_moiety         '(C76 H80 Cl2 Cu6 N12 O25 S12)n'
_symmetry_cell_setting           triclinic
_symmetry_space_group_name_H-M   'P -1'
_symmetry_Int_Tables_number      2
_space_group_name_Hall           '-P 1'
loop_
_symmetry_equiv_pos_site_id
_symmetry_equiv_pos_as_xyz
1 x,y,z
2 -x,-y,-z
_cell_length_a                   10.3350(4)
_cell_length_b                   13.3823(5)
_cell_length_c                   22.6623(9)
_cell_angle_alpha                100.9032(9)
_cell_angle_beta                 91.3590(10)
_cell_angle_gamma                104.3307(9)
_cell_volume                     2973.78
loop_
_atom_site_label
_atom_site_type_symbol
_atom_site_fract_x
_atom_site_fract_y
_atom_site_fract_z
O13 O 0.9162(11) 0.3473(10) 0.1991(6)
Cu1 Cu 1.5000 0.0000 0.5000
Cu2 Cu 1.04941(7) 0.54785(6) 0.27955(4)
Cu3 Cu 0.41825(10) 1.06113(12) 0.04813(4)
Cu4 Cu 2.0000 0.0000 0.5000
S1 S 0.66134(11) 0.92606(8) 0.28119(5)
S2 S 0.50045(11) 0.69706(9) 0.24388(6)
S3 S 1.60407(11) 0.41311(8) 0.32361(5)
S4 S 1.45973(11) 0.19175(8) 0.25743(5)
S5 S -0.05894(12) 0.95000(10) -0.21898(5)
S6 S 0.07014(14) 1.18146(11) -0.16011(5)
Cl1 Cl 1.38324(11) -0.20533(8) 0.43846(5)
N1 N 0.5021(5) 1.0225(5) 0.1179(2)
N2 N 0.8802(4) 0.5919(3) 0.2694(2)
N3 N 1.2178(4) 0.5048(3) 0.28994(18)
N4 N 1.5008(4) 0.0520(3) 0.42229(16)
N5 N 0.3134(6) 1.0975(6) -0.0168(2)
N6 N -0.0119(4) 0.9855(3) -0.41327(17)
C1 C 0.4248(5) 0.9484(5) 0.1424(2)
H1 H 0.3359 0.9173 0.1251
C2 C 0.4664(5) 0.9145(4) 0.1914(2)
H2 H 0.4073 0.8610 0.2071
C3 C 0.5956(4) 0.9591(4) 0.21770(19)
C4 C 0.6778(5) 1.0370(4) 0.1924(2)
H3 H 0.7671 1.0693 0.2088
C5 C 0.6278(5) 1.0665(5) 0.1434(2)
H4 H 0.6841 1.1202 0.1269
C6 C 0.5261(5) 0.8212(4) 0.2958(2)
H5 H 0.5435 0.8101 0.3369
H6 H 0.4423 0.8442 0.2953
C7 C 0.6491(4) 0.6607(3) 0.2562(2)
C8 C 0.7316(5) 0.6941(4) 0.3097(2)
H7 H 0.7101 0.7414 0.3425
C9 C 0.8443(5) 0.6578(4) 0.3144(3)
H8 H 0.8990 0.6805 0.3512
C10 C 0.8006(5) 0.5585(4) 0.2188(2)
H9 H 0.8244 0.5109 0.1868
C11 C 0.6848(5) 0.5901(4) 0.2106(2)
H10 H 0.6302 0.5636 0.1739
C12 C 1.2900(5) 0.5350(4) 0.3433(2)
H11 H 1.2580 0.5765 0.3756
C13 C 1.4073(5) 0.5088(4) 0.3533(2)
H12 H 1.4555 0.5330 0.3917
C14 C 1.4557(4) 0.4469(3) 0.3074(2)
C15 C 1.3827(5) 0.4176(3) 0.2519(2)
H13 H 1.4130 0.3768 0.2186
C16 C 1.2669(5) 0.4480(3) 0.2454(2)
H14 H 1.2187 0.4274 0.2069
C17 C 1.6011(5) 0.3039(3) 0.2624(2)
H15 H 1.6021 0.3290 0.2240
H16 H 1.6841 0.2808 0.2670
C18 C 1.4862(4) 0.1419(3) 0.32136(19)
C19 C 1.6013(4) 0.1730(3) 0.3606(2)
H17 H 1.6766 0.2257 0.3537
C20 C 1.6042(4) 0.1261(3) 0.4095(2)
H18 H 1.6835 0.1474 0.4357
C21 C 1.3912(4) 0.0201(3) 0.38323(19)
H19 H 1.3182 -0.0339 0.3907
C22 C 1.3806(4) 0.0621(3) 0.33326(19)
H20 H 1.3017 0.0371 0.3068
C23 C 0.1873(6) 1.0415(6) -0.0320(3)
H21 H 0.1516 0.9851 -0.0124
C24 C 0.1063(6) 1.0619(5) -0.0751(2)
H22 H 0.0165 1.0207 -0.0845
C25 C 0.1585(6) 1.1443(5) -0.1048(2)
C26 C 0.2898(6) 1.2030(6) -0.0889(3)
H23 H 0.3286 1.2596 -0.1079
C27 C 0.3628(7) 1.1775(7) -0.0447(3)
H24 H 0.4521 1.2184 -0.0335
C28 C -0.0792(5) 1.0741(4) -0.1780(2)
H25 H -0.1445 1.0964 -0.2018
H26 H -0.1189 1.0622 -0.1398
C29 C -0.0330(4) 0.9719(4) -0.2922(2)
C30 C -0.0282(4) 1.0654(4) -0.3109(2)
H27 H -0.0321 1.1265 -0.2825
C31 C -0.0177(4) 1.0688(4) -0.3711(2)
H28 H -0.0145 1.1335 -0.3832
C32 C -0.0121(7) 0.8968(4) -0.3942(3)
H29 H -0.0046 0.8375 -0.4232
C33 C -0.0223(6) 0.8864(4) -0.3355(2)
H30 H -0.0220 0.8214 -0.3245
C34 C 1.1585(5) 0.6669(4) 0.1889(2)
H31 H 1.1742 0.6710 0.1482
C35 C 0.9368(5) 0.4046(4) 0.3546(3)
H32 H 0.9145 0.3882 0.3927
C36 C 1.7166(5) -0.1004(4) 0.4754(2)
H33 H 1.6456 -0.1619 0.4625
C37 C 0.7092(6) 1.1645(5) -0.0013(3)
H34 H 0.7132 1.2308 0.0237
O1 O 1.6851(3) -0.0159(2) 0.49057(14)
O2 O 1.8321(3) -0.1121(3) 0.47559(16)
O3 O 1.1459(3) 0.7215(2) 0.33833(15)
O4 O 2.0910(3) -0.1530(3) 0.48114(15)
O5 O 0.9880(3) 0.5004(3) 0.35396(17)
O6 O 0.9129(5) 0.3307(4) 0.3116(3)
O7 O 1.0982(3) 0.5779(3) 0.19825(16)
O8 O 1.1999(3) 0.7500(3) 0.22676(16)
O9 O 0.6081(4) 1.0899(4) 0.00134(17)
O10 O 0.8030(4) 1.1592(3) -0.03344(17)
O11 O 0.4255(7) 1.1786(10) 0.0882(5)
O12 O 0.2179(8) 1.1163(4) 0.1061(2)
C38 C 0.2914(12) 1.1880(7) 0.1134(3)
H35 H 0.2765 1.2526 0.1337
Cu2A Cu -0.04941(7) 1.45215(6) -0.27955(4)
Cu3A Cu 0.58175(10) 0.93887(12) -0.04813(4)
S1A S 0.33866(11) 1.07394(8) -0.28119(5)
S2A S 0.49955(11) 1.30294(9) -0.24388(6)
S3A S -0.60407(11) 1.58689(8) -0.32361(5)
S4A S -0.45973(11) 1.80825(8) -0.25743(5)
S5A S 1.05894(12) 1.05000(10) 0.21898(5)
S6A S 0.92986(14) 0.81854(11) 0.16011(5)
N1A N 0.4979(5) 0.9775(5) -0.1179(2)
N2A N 0.1198(4) 1.4081(3) -0.2694(2)
N3A N -0.2178(4) 1.4952(3) -0.28994(18)
N4A N -0.5008(4) 1.9480(3) -0.42229(16)
N5A N 0.6866(6) 0.9025(6) 0.0168(2)
N6A N 1.0119(4) 1.0145(3) 0.41327(17)
C1A C 0.5752(5) 1.0516(5) -0.1424(2)
H1A H 0.6641 1.0827 -0.1251
C2A C 0.5336(5) 1.0855(4) -0.1914(2)
H2A H 0.5927 1.1390 -0.2071
C3A C 0.4044(4) 1.0409(4) -0.21770(19)
C4A C 0.3222(5) 0.9630(4) -0.1924(2)
H3A H 0.2329 0.9307 -0.2088
C5A C 0.3722(5) 0.9335(5) -0.1434(2)
H4A H 0.3159 0.8798 -0.1269
C6A C 0.4739(5) 1.1788(4) -0.2958(2)
H5A H 0.4565 1.1899 -0.3369
H6A H 0.5577 1.1558 -0.2953
C7A C 0.3509(4) 1.3393(3) -0.2562(2)
C8A C 0.2684(5) 1.3059(4) -0.3097(2)
H7A H 0.2899 1.2586 -0.3425
C9A C 0.1557(5) 1.3422(4) -0.3144(3)
H8A H 0.1010 1.3195 -0.3512
C10A C 0.1994(5) 1.4415(4) -0.2188(2)
H9A H 0.1756 1.4891 -0.1868
C11A C 0.3152(5) 1.4099(4) -0.2106(2)
H10A H 0.3698 1.4364 -0.1739
C12A C -0.2900(5) 1.4650(4) -0.3433(2)
H11A H -0.2580 1.4235 -0.3756
C13A C -0.4073(5) 1.4912(4) -0.3533(2)
H12A H -0.4555 1.4670 -0.3917
C14A C -0.4557(4) 1.5531(3) -0.3074(2)
C15A C -0.3827(5) 1.5824(3) -0.2519(2)
H13A H -0.4130 1.6232 -0.2186
C16A C -0.2669(5) 1.5520(3) -0.2454(2)
H14A H -0.2187 1.5726 -0.2069
C17A C -0.6011(5) 1.6961(3) -0.2624(2)
H15A H -0.6021 1.6710 -0.2240
H16A H -0.6841 1.7192 -0.2670
C18A C -0.4862(4) 1.8581(3) -0.32136(19)
C19A C -0.6013(4) 1.8270(3) -0.3606(2)
H17A H -0.6766 1.7743 -0.3537
C20A C -0.6042(4) 1.8739(3) -0.4095(2)
H18A H -0.6835 1.8526 -0.4357
C21A C -0.3912(4) 1.9799(3) -0.38323(19)
H19A H -0.3182 2.0339 -0.3907
C22A C -0.3806(4) 1.9379(3) -0.33326(19)
H20A H -0.3017 1.9629 -0.3068
C23A C 0.8127(6) 0.9585(6) 0.0320(3)
H21A H 0.8484 1.0149 0.0124
C24A C 0.8937(6) 0.9381(5) 0.0751(2)
H22A H 0.9835 0.9793 0.0845
C25A C 0.8415(6) 0.8557(5) 0.1048(2)
C26A C 0.7102(6) 0.7970(6) 0.0889(3)
H23A H 0.6714 0.7404 0.1079
C27A C 0.6372(7) 0.8225(7) 0.0447(3)
H24A H 0.5479 0.7816 0.0335
C28A C 1.0792(5) 0.9259(4) 0.1780(2)
H25A H 1.1445 0.9036 0.2018
H26A H 1.1189 0.9378 0.1398
C29A C 1.0330(4) 1.0281(4) 0.2922(2)
C30A C 1.0282(4) 0.9346(4) 0.3109(2)
H27A H 1.0321 0.8735 0.2825
C31A C 1.0177(4) 0.9312(4) 0.3711(2)
H28A H 1.0145 0.8665 0.3832
C32A C 1.0121(7) 1.1032(4) 0.3942(3)
H29A H 1.0046 1.1625 0.4232
C33A C 1.0223(6) 1.1136(4) 0.3355(2)
H30A H 1.0220 1.1786 0.3245
C34A C -0.1585(5) 1.3331(4) -0.1889(2)
H31A H -0.1742 1.3290 -0.1482
C35A C 0.0632(5) 1.5954(4) -0.3546(3)
H32A H 0.0855 1.6118 -0.3927
C37A C 0.2908(6) 0.8355(5) 0.0013(3)
H34A H 0.2868 0.7692 -0.0237
O3A O -0.1459(3) 1.2785(2) -0.33833(15)
O5A O 0.0120(3) 1.4996(3) -0.35396(17)
O6A O 0.0871(5) 1.6693(4) -0.3116(3)
O7A O -0.0982(3) 1.4221(3) -0.19825(16)
O8A O -0.1999(3) 1.2500(3) -0.22676(16)
O9A O 0.3919(4) 0.9101(4) -0.00134(17)
O10A O 0.1970(4) 0.8408(3) 0.03344(17)
O11A O 0.5745(7) 0.8214(10) -0.0882(5)
O12A O 0.7821(8) 0.8837(4) -0.1061(2)
C38A C 0.7086(12) 0.8120(7) -0.1134(3)
H35A H 0.7235 0.7474 -0.1337
C36A C 1.2834(5) 0.1004(4) 0.5246(2)
H33A H 1.3544 0.1619 0.5375
O1A O 1.3149(3) 0.0159(2) 0.50943(14)
O2A O 1.1679(3) 0.1121(3) 0.52441(16)
Cl1A Cl 1.61676(11) 0.20533(8) 0.56154(5)
O4A O 1.9090(3) 0.1530(3) 0.51886(15)
Cu1_2 Cu -0.5000 2.0000 -0.5000
Cu4_2 Cu -0.0000 1.0000 -0.5000
Cu4_3 Cu 1.0000 0.0000 0.5000
Cu4_4 Cu 1.0000 1.0000 0.5000
N4A_2 N 1.4992(4) -0.0520(3) 0.57771(16)
N6_2 N 1.9881(4) -0.0145(3) 0.58673(17)
N6A_2 N 2.0119(4) 0.0145(3) 0.41327(17)
O2A_2 O 2.1679(3) 0.1121(3) 0.52441(16)
loop_
_geom_bond_atom_site_label_1
_geom_bond_atom_site_label_2
_geom_bond_site_symmetry_1
_geom_bond_site_symmetry_2
Cu1 Cl1 1_555 1_555
Cu2 N2 1_555 1_555
Cu3 N1 1_555 1_555
Cu4 O2 1_555 1_555
S1 C3 1_555 1_555
S2 C6 1_555 1_555
S3 C14 1_555 1_555
S4 C17 1_555 1_555
S5 C28 1_555 1_555
S6 C25 1_555 1_555
N1 C1 1_555 1_555
N2 C9 1_555 1_555
N3 Cu2 1_555 1_555
N4 Cu1 1_555 1_555
N5 Cu3 1_555 1_555
N6 C31 1_555 1_555
C1 H1 1_555 1_555
C2 C1 1_555 1_555
H2 C2 1_555 1_555
C3 C2 1_555 1_555
C4 C3 1_555 1_555
H3 C4 1_555 1_555
C5 N1 1_555 1_555
H4 C5 1_555 1_555
C6 S1 1_555 1_555
H5 C6 1_555 1_555
H6 C6 1_555 1_555
C7 S2 1_555 1_555
C8 C7 1_555 1_555
H7 C8 1_555 1_555
C9 C8 1_555 1_555
H8 C9 1_555 1_555
C10 N2 1_555 1_555
H9 C10 1_555 1_555
C11 C7 1_555 1_555
H10 C11 1_555 1_555
C12 N3 1_555 1_555
H11 C12 1_555 1_555
C13 C12 1_555 1_555
H12 C13 1_555 1_555
C14 C13 1_555 1_555
C15 C14 1_555 1_555
H13 C15 1_555 1_555
C16 N3 1_555 1_555
H14 C16 1_555 1_555
C17 S3 1_555 1_555
H15 C17 1_555 1_555
H16 C17 1_555 1_555
C18 S4 1_555 1_555
C19 C18 1_555 1_555
H17 C19 1_555 1_555
C20 N4 1_555 1_555
H18 C20 1_555 1_555
C21 N4 1_555 1_555
H19 C21 1_555 1_555
C22 C18 1_555 1_555
H20 C22 1_555 1_555
C23 N5 1_555 1_555
H21 C23 1_555 1_555
C24 C23 1_555 1_555
H22 C24 1_555 1_555
C25 C24 1_555 1_555
C26 C25 1_555 1_555
H23 C26 1_555 1_555
C27 N5 1_555 1_555
H24 C27 1_555 1_555
C28 S6 1_555 1_555
H25 C28 1_555 1_555
H26 C28 1_555 1_555
C29 S5 1_555 1_555
C30 C29 1_555 1_555
H27 C30 1_555 1_555
C31 C30 1_555 1_555
H28 C31 1_555 1_555
C32 N6 1_555 1_555
H29 C32 1_555 1_555
C33 C29 1_555 1_555
H30 C33 1_555 1_555
C34 H31 1_555 1_555
C35 H32 1_555 1_555
C36 H33 1_555 1_555
C37 H34 1_555 1_555
O1 Cu1 1_555 1_555
O2 C36 1_555 1_555
O3 Cu2 1_555 1_555
O4 Cu4 1_555 1_555
O5 Cu2 1_555 1_555
O6 C35 1_555 1_555
O7 Cu2 1_555 1_555
O8 C34 1_555 1_555
O9 Cu3 1_555 1_555
O10 C37 1_555 1_555
O11 Cu3 1_555 1_555
O12 Cu3 1_555 1_555
C38 O11 1_555 1_555
H35 C38 1_555 1_555
Cu2A N2A 1_555 1_555
Cu3A O9 1_555 1_555
S1A C3A 1_555 1_555
S2A C6A 1_555 1_555
S3A C14A 1_555 1_555
S4A C17A 1_555 1_555
S5A C28A 1_555 1_555
S6A C25A 1_555 1_555
N1A Cu3A 1_555 1_555
N2A C9A 1_555 1_555
N3A Cu2A 1_555 1_555
N4A C20A 1_555 1_555
N5A Cu3A 1_555 1_555
N6A C31A 1_555 1_555
C1A N1A 1_555 1_555
H1A C1A 1_555 1_555
C2A C1A 1_555 1_555
H2A C2A 1_555 1_555
C3A C2A 1_555 1_555
C4A C3A 1_555 1_555
H3A C4A 1_555 1_555
C5A N1A 1_555 1_555
H4A C5A 1_555 1_555
C6A S1A 1_555 1_555
H5A C6A 1_555 1_555
H6A C6A 1_555 1_555
C7A S2A 1_555 1_555
C8A C7A 1_555 1_555
H7A C8A 1_555 1_555
C9A C8A 1_555 1_555
H8A C9A 1_555 1_555
C10A N2A 1_555 1_555
H9A C10A 1_555 1_555
C11A C7A 1_555 1_555
H10A C11A 1_555 1_555
C12A N3A 1_555 1_555
H11A C12A 1_555 1_555
C13A C12A 1_555 1_555
H12A C13A 1_555 1_555
C14A C13A 1_555 1_555
C15A C14A 1_555 1_555
H13A C15A 1_555 1_555
C16A N3A 1_555 1_555
H14A C16A 1_555 1_555
C17A S3A 1_555 1_555
H15A C17A 1_555 1_555
H16A C17A 1_555 1_555
C18A S4A 1_555 1_555
C19A C18A 1_555 1_555
H17A C19A 1_555 1_555
C20A C19A 1_555 1_555
H18A C20A 1_555 1_555
C21A N4A 1_555 1_555
H19A C21A 1_555 1_555
C22A C18A 1_555 1_555
H20A C22A 1_555 1_555
C23A N5A 1_555 1_555
H21A C23A 1_555 1_555
C24A C23A 1_555 1_555
H22A C24A 1_555 1_555
C25A C24A 1_555 1_555
C26A C25A 1_555 1_555
H23A C26A 1_555 1_555
C27A N5A 1_555 1_555
H24A C27A 1_555 1_555
C28A S6A 1_555 1_555
H25A C28A 1_555 1_555
H26A C28A 1_555 1_555
C29A S5A 1_555 1_555
C30A C29A 1_555 1_555
H27A C30A 1_555 1_555
C31A C30A 1_555 1_555
H28A C31A 1_555 1_555
C32A N6A 1_555 1_555
H29A C32A 1_555 1_555
C33A C29A 1_555 1_555
H30A C33A 1_555 1_555
C34A H31A 1_555 1_555
C35A H32A 1_555 1_555
C37A H34A 1_555 1_555
O3A Cu2A 1_555 1_555
O5A Cu2A 1_555 1_555
O6A C35A 1_555 1_555
O7A Cu2A 1_555 1_555
O8A C34A 1_555 1_555
O9A Cu3 1_555 1_555
O10A C37A 1_555 1_555
O11A Cu3A 1_555 1_555
O12A Cu3A 1_555 1_555
C38A O11A 1_555 1_555
H35A C38A 1_555 1_555
C36A H33A 1_555 1_555
O1A Cu1 1_555 1_555
O2A C36A 1_555 1_555
Cl1A Cu1 1_555 1_555
O4A Cu4 1_555 1_555
Cu1_2 N4A 1_555 1_555
Cu4_2 N6 1_555 1_555
Cu4_3 O2A 1_555 1_555
Cu4_4 N6A 1_555 1_555
N4A_2 Cu1 1_555 1_555
N6_2 Cu4 1_555 1_555
N6A_2 Cu4 1_555 1_555
O2A_2 Cu4 1_555 1_555
C4 C5 1_555 1_555
C10 C11 1_555 1_555
C15 C16 1_555 1_555
C19 C20 1_555 1_555
C21 C22 1_555 1_555
C26 C27 1_555 1_555
C32 C33 1_555 1_555
C34 O7 1_555 1_555
C35 O5 1_555 1_555
C36 O1 1_555 1_555
C37 O9 1_555 1_555
O12 C38 1_555 1_555
Cu3A O9A 1_555 1_555
C4A C5A 1_555 1_555
C10A C11A 1_555 1_555
C15A C16A 1_555 1_555
C21A C22A 1_555 1_555
C26A C27A 1_555 1_555
C32A C33A 1_555 1_555
C34A O7A 1_555 1_555
C35A O5A 1_555 1_555
C37A O9A 1_555 1_555
O12A C38A 1_555 1_555
C36A O1A 1_555 1_555

#END
