
#######################################################################
#
#                 Cambridge Crystallographic Data Centre
#                                CCDC 
#
#######################################################################
#
# If this CIF has been generated from an entry in the Cambridge 
# Structural Database, then it will include bibliographic, chemical, 
# crystal, experimental, refinement or atomic coordinate data resulting 
# from the CCDC's data processing and validation procedures.
#
#######################################################################

data_JALTUL
_chemical_formula_moiety         '(C21 H41 Li2 N8 1+)n'
_symmetry_cell_setting           monoclinic
_symmetry_space_group_name_H-M   'P 21/c'
_symmetry_Int_Tables_number      14
_space_group_name_Hall           '-P 2ybc'
loop_
_symmetry_equiv_pos_site_id
_symmetry_equiv_pos_as_xyz
1 x,y,z
2 -x,1/2+y,1/2-z
3 -x,-y,-z
4 x,1/2-y,1/2+z
_cell_length_a                   14.724(3)
_cell_length_b                   8.561(2)
_cell_length_c                   13.267(3)
_cell_angle_alpha                90
_cell_angle_beta                 104.11(2)
_cell_angle_gamma                90
_cell_volume                     1621.88
loop_
_atom_site_label
_atom_site_type_symbol
_atom_site_fract_x
_atom_site_fract_y
_atom_site_fract_z
N1 N 0.2037(2) 0.1374(3) 0.3467(2)
N2 N 0.2951(2) 0.3394(3) 0.1333(2)
N3 N 0.1262(2) -0.0666(3) 0.5094(2)
N4 N 0.3732(2) -0.0652(3) 0.4855(2)
C1 C 0.2722(2) 0.1998(4) 0.2915(2)
C2 C 0.2275(2) 0.2662(4) 0.1848(2)
C3 C 0.0424(2) 0.0319(4) 0.4831(2)
C4 C 0.4558(2) 0.0357(4) 0.5098(2)
Li1 Li 0.2483(3) 0.0401(6) 0.4930(3)
H1 H 0.175(2) 0.045(4) 0.312(2)
H2 H 0.161(2) 0.214(4) 0.343(2)
H3 H 0.324(2) 0.427(4) 0.168(2)
H4 H 0.340(2) 0.264(4) 0.134(2)
H5 H 0.140(2) -0.101(4) 0.573(3)
H6 H 0.112(2) -0.165(4) 0.477(2)
H7 H 0.388(2) -0.155(4) 0.522(2)
H8 H 0.361(2) -0.105(4) 0.421(2)
H9 H 0.315(2) 0.291(4) 0.339(2)
H10 H 0.314(2) 0.105(4) 0.287(2)
H11 H 0.191(2) 0.177(4) 0.140(2)
H12 H 0.185(2) 0.355(4) 0.190(2)
H13 H 0.440(2) 0.146(4) 0.474(2)
H14 H 0.472(2) 0.062(4) 0.586(2)
H15 H 0.058(2) 0.142(4) 0.510(2)
H16 H 0.020(2) 0.045(4) 0.403(2)
C3B C -0.0424(2) -0.0319(4) 0.5169(2)
N3B N -0.1262(2) 0.0666(3) 0.4906(2)
H5B H -0.140(2) 0.101(4) 0.427(3)
H6B H -0.112(2) 0.165(4) 0.523(2)
H15B H -0.058(2) -0.142(4) 0.490(2)
H16B H -0.020(2) -0.045(4) 0.597(2)
C4B C 0.5442(2) -0.0357(4) 0.4902(2)
N4B N 0.6268(2) 0.0652(3) 0.5145(2)
H7B H 0.612(2) 0.155(4) 0.478(2)
H8B H 0.639(2) 0.105(4) 0.579(2)
H13B H 0.560(2) -0.146(4) 0.526(2)
H14B H 0.528(2) -0.062(4) 0.414(2)
N1C N 0.2037(2) 0.3626(3) 0.8467(2)
N2C N 0.2951(2) 0.1606(3) 0.6333(2)
C1C C 0.2722(2) 0.3002(4) 0.7915(2)
C2C C 0.2275(2) 0.2338(4) 0.6848(2)
H1C H 0.175(2) 0.455(4) 0.812(2)
H2C H 0.161(2) 0.286(4) 0.843(2)
H3C H 0.324(2) 0.073(4) 0.668(2)
H4C H 0.340(2) 0.236(4) 0.634(2)
H9C H 0.315(2) 0.209(4) 0.839(2)
H10C H 0.314(2) 0.395(4) 0.787(2)
H11C H 0.191(2) 0.323(4) 0.640(2)
H12C H 0.185(2) 0.145(4) 0.690(2)
Li1C Li 0.2483(3) 0.4599(6) 0.9930(3)
Li1C_2 Li 0.2483(3) 0.4599(6) -0.0070(3)
Li1B Li -0.2483(3) -0.0401(6) 0.5070(3)
Li1B_2 Li 0.7517(3) -0.0401(6) 0.5070(3)
N2_2 N 0.2951(2) 0.3394(3) 1.1333(2)
N3C N 0.1262(2) 0.5666(3) 1.0094(2)
N4C N 0.3732(2) 0.5652(3) 0.9855(2)
H3_2 H 0.324(2) 0.427(4) 1.168(2)
H4_2 H 0.340(2) 0.264(4) 1.134(2)
H5C H 0.140(2) 0.601(4) 1.073(3)
H6C H 0.112(2) 0.665(4) 0.977(2)
H7C H 0.388(2) 0.655(4) 1.022(2)
H8C H 0.361(2) 0.605(4) 0.921(2)
C5 C 0.1930(2) 0.7947(4) 0.2145(2)
C6 C 0.2875(2) 0.7521(4) 0.2394(2)
C7 C 0.3642(3) 0.7979(5) 0.1982(3)
C8 C 0.4502(3) 0.7343(5) 0.2377(3)
C9 C 0.4671(3) 0.6260(5) 0.3181(3)
C10 C 0.3943(2) 0.5793(4) 0.3621(3)
C11 C 0.3056(2) 0.6404(4) 0.3230(2)
C12 C 0.2174(2) 0.6145(4) 0.3483(2)
C13 C 0.1907(2) 0.5155(4) 0.4212(2)
C14 C 0.0978(3) 0.5092(4) 0.4237(2)
C15 C 0.0307(2) 0.6011(4) 0.3576(2)
C16 C 0.0543(2) 0.7016(4) 0.2873(2)
C17 C 0.1487(2) 0.7086(4) 0.2809(2)
H17 H 0.158(2) 0.862(4) 0.160(2)
H18 H 0.353(2) 0.879(4) 0.143(2)
H19 H 0.498(2) 0.775(4) 0.214(2)
H20 H 0.530(2) 0.585(4) 0.346(2)
H21 H 0.411(2) 0.492(4) 0.429(2)
H22 H 0.242(2) 0.454(4) 0.466(2)
H23 H 0.080(2) 0.436(4) 0.468(2)
H24 H -0.037(2) 0.597(4) 0.355(2)
H25 H 0.005(2) 0.775(4) 0.241(2)
loop_
_geom_bond_atom_site_label_1
_geom_bond_atom_site_label_2
_geom_bond_site_symmetry_1
_geom_bond_site_symmetry_2
N1 C1 1_555 1_555
N2 C2 1_555 1_555
N3 C3 1_555 1_555
N4 C4 1_555 1_555
C1 C2 1_555 1_555
C2 H11 1_555 1_555
C3 H15 1_555 1_555
C4 H13 1_555 1_555
Li1 N1 1_555 1_555
H1 N1 1_555 1_555
H2 N1 1_555 1_555
H3 N2 1_555 1_555
H4 N2 1_555 1_555
H5 N3 1_555 1_555
H6 N3 1_555 1_555
H7 N4 1_555 1_555
H8 N4 1_555 1_555
H9 C1 1_555 1_555
H10 C1 1_555 1_555
H12 C2 1_555 1_555
H14 C4 1_555 1_555
H16 C3 1_555 1_555
C5 C6 1_555 1_555
C6 C7 1_555 1_555
C7 C8 1_555 1_555
C8 C9 1_555 1_555
C9 C10 1_555 1_555
C10 C11 1_555 1_555
C11 C6 1_555 1_555
C12 C11 1_555 1_555
C13 C12 1_555 1_555
C14 C13 1_555 1_555
C15 C14 1_555 1_555
C16 C15 1_555 1_555
C17 C5 1_555 1_555
H17 C5 1_555 1_555
H18 C7 1_555 1_555
H19 C8 1_555 1_555
H20 C9 1_555 1_555
H21 C10 1_555 1_555
H22 C13 1_555 1_555
H23 C14 1_555 1_555
H24 C15 1_555 1_555
H25 C16 1_555 1_555
C3B C3 1_555 1_555
N3B C3B 1_555 1_555
H5B N3B 1_555 1_555
H6B N3B 1_555 1_555
H15B C3B 1_555 1_555
H16B C3B 1_555 1_555
C4B C4 1_555 1_555
N4B C4B 1_555 1_555
H7B N4B 1_555 1_555
H8B N4B 1_555 1_555
H13B C4B 1_555 1_555
H14B C4B 1_555 1_555
N1C C1C 1_555 1_555
N2C Li1 1_555 1_555
C1C C2C 1_555 1_555
C2C N2C 1_555 1_555
H1C N1C 1_555 1_555
H2C N1C 1_555 1_555
H3C N2C 1_555 1_555
H4C N2C 1_555 1_555
H9C C1C 1_555 1_555
H10C C1C 1_555 1_555
H11C C2C 1_555 1_555
H12C C2C 1_555 1_555
Li1C N1C 1_555 1_555
Li1C_2 N2 1_555 1_555
Li1B N3B 1_555 1_555
Li1B_2 N4B 1_555 1_555
N2_2 Li1C 1_555 1_555
N3C Li1C 1_555 1_555
N4C Li1C 1_555 1_555
H3_2 N2_2 1_555 1_555
H4_2 N2_2 1_555 1_555
H5C N3C 1_555 1_555
H6C N3C 1_555 1_555
H7C N4C 1_555 1_555
H8C N4C 1_555 1_555
N3 Li1 1_555 1_555
N4 Li1 1_555 1_555
C12 C17 1_555 1_555
C16 C17 1_555 1_555

#END
