
#######################################################################
#
#                 Cambridge Crystallographic Data Centre
#                                CCDC 
#
#######################################################################
#
# If this CIF has been generated from an entry in the Cambridge 
# Structural Database, then it will include bibliographic, chemical, 
# crystal, experimental, refinement or atomic coordinate data resulting 
# from the CCDC's data processing and validation procedures.
#
#######################################################################

data_RURQEB
_chemical_formula_moiety         '(C28 H20 F8 N18 O12 Zn5)n'
_symmetry_cell_setting           triclinic
_symmetry_space_group_name_H-M   'P -1'
_symmetry_Int_Tables_number      2
_space_group_name_Hall           '-P 1'
loop_
_symmetry_equiv_pos_site_id
_symmetry_equiv_pos_as_xyz
1 x,y,z
2 -x,-y,-z
_cell_length_a                   10.137(5)
_cell_length_b                   10.228(5)
_cell_length_c                   12.747(7)
_cell_angle_alpha                74.562(8)
_cell_angle_beta                 83.796(9)
_cell_angle_gamma                60.952(7)
_cell_volume                     1113.34
loop_
_atom_site_label
_atom_site_type_symbol
_atom_site_fract_x
_atom_site_fract_y
_atom_site_fract_z
Zn1 Zn 0.5000 0.5000 0.0000
Zn2 Zn 0.49213(9) 0.40457(9) 0.28511(6)
Zn3 Zn 1.15489(9) 0.11381(9) 0.15381(7)
C1 C 0.8383(8) 0.2257(8) 0.2528(6)
C2 C 0.8324(8) 0.2914(9) 0.0801(6)
C3 C 0.3023(8) 0.2699(9) 0.2336(6)
C4 C 0.3133(8) 0.3114(9) 0.0646(6)
H1 H 0.3007 0.3145 -0.0074
C5 C 0.3235(8) 0.7623(8) 0.2434(6)
C6 C 0.3303(8) 0.8226(8) 0.0730(5)
H2 H 0.3155 0.8798 0.0010
C7 C 0.4846(8) 0.2818(9) 0.5079(6)
C8 C 0.3940(8) 0.2609(9) 0.6072(6)
C9 C 0.3027(9) 0.3844(9) 0.6545(6)
C10 C 0.3925(8) 0.1242(9) 0.6555(6)
C11 C 0.2160(10) 0.3697(9) 0.7448(6)
C12 C 0.3055(10) 0.1119(9) 0.7445(6)
C13 C 0.2148(9) 0.2339(9) 0.7881(6)
C14 C 0.1152(9) 0.2205(8) 0.8806(5)
F1 F 0.3016(6) 0.5201(6) 0.6119(4)
F2 F 0.4706(6) 0.0035(6) 0.6104(4)
F3 F 0.1296(7) 0.4918(6) 0.7863(4)
F4 F 0.3061(7) -0.0259(6) 0.7863(4)
N1 N 0.6945(6) 0.3160(7) 0.2211(4)
N2 N 0.6902(6) 0.3571(7) 0.1094(5)
N3 N 0.9302(6) 0.2088(7) 0.1660(5)
N4 N 0.3782(7) 0.3449(7) 0.2043(5)
N5 N 0.3839(7) 0.3735(7) 0.0918(5)
N6 N 0.2589(7) 0.2412(7) 0.1490(5)
N7 N 0.4001(6) 0.6318(7) 0.2135(5)
N8 N 0.4049(7) 0.6712(7) 0.1013(5)
N9 N 0.2769(7) 0.8877(7) 0.1589(5)
O1 O 0.4055(6) 0.3880(6) 0.4275(4)
O2 O 0.6198(6) 0.1940(7) 0.5077(4)
O3 O -0.0238(7) 0.2698(9) 0.8522(5)
O4 O 0.1643(6) 0.1669(6) 0.9769(4)
O5 O 1.1631(6) 0.0581(7) 0.3437(4)
H3 H 0.868(7) 0.182(8) 0.326(2)
H4 H 0.871(7) 0.292(8) 0.010(3)
H5 H 0.281(8) 0.246(8) 0.305(2)
H6 H 0.309(8) 0.772(8) 0.315(3)
H7 H 1.102(8) 0.127(5) 0.372(2)
H8 H 1.208(8) -0.016(5) 0.394(4)
Zn2A Zn 0.50787(9) 0.59543(9) -0.28511(6)
Zn2_2 Zn 1.49213(9) 0.40457(9) -0.71489(6)
Zn3A Zn -0.15489(9) 0.88619(9) -0.15381(7)
Zn3_2 Zn 0.15489(9) 0.11381(9) 0.15381(7)
Zn3_3 Zn 0.15489(9) 1.11381(9) 0.15381(7)
Zn3_4 Zn 0.15489(9) 0.11381(9) 1.15381(7)
Zn3A_2 Zn 0.84511(9) 0.88619(9) -0.15381(7)
Zn3A_3 Zn 0.84511(9) -0.11381(9) -0.15381(7)
C1A C 0.1617(8) 0.7743(8) -0.2528(6)
C2A C 0.1676(8) 0.7086(9) -0.0801(6)
C3A C 0.6977(8) 0.7301(9) -0.2336(6)
C4A C 0.6867(8) 0.6886(9) -0.0646(6)
H1A H 0.6993 0.6855 0.0074
C5A C 0.6765(8) 0.2377(8) -0.2434(6)
C6A C 0.6697(8) 0.1774(8) -0.0730(5)
H2A H 0.6845 0.1202 -0.0010
C7_2 C 1.4846(8) 0.2818(9) -0.4921(6)
C8_2 C 1.3940(8) 0.2609(9) -0.3928(6)
C9_2 C 1.3027(9) 0.3844(9) -0.3455(6)
C10_2 C 1.3925(8) 0.1242(9) -0.3445(6)
C11_2 C 1.2160(10) 0.3697(9) -0.2552(6)
C12_2 C 1.3055(10) 0.1119(9) -0.2555(6)
C13_2 C 1.2148(9) 0.2339(9) -0.2119(6)
C14_2 C 1.1152(9) 0.2205(8) -0.1194(5)
F1_2 F 1.3016(6) 0.5201(6) -0.3881(4)
F2_2 F 1.4706(6) 0.0035(6) -0.3896(4)
F3_2 F 1.1296(7) 0.4918(6) -0.2137(4)
F4_2 F 1.3061(7) -0.0259(6) -0.2137(4)
N1A N 0.3055(6) 0.6840(7) -0.2211(4)
N2A N 0.3098(6) 0.6429(7) -0.1094(5)
N3A N 0.0698(6) 0.7912(7) -0.1660(5)
N4A N 0.6218(7) 0.6551(7) -0.2043(5)
N5A N 0.6161(7) 0.6265(7) -0.0918(5)
N6A N 0.7411(7) 0.7588(7) -0.1490(5)
N6_2 N 1.2589(7) 0.2412(7) 0.1490(5)
N6A_2 N -0.2589(7) 0.7588(7) -0.1490(5)
N7A N 0.5999(6) 0.3682(7) -0.2135(5)
N8A N 0.5951(7) 0.3288(7) -0.1013(5)
N9A N 0.7231(7) 0.1123(7) -0.1589(5)
N9_2 N 1.2769(7) -0.1123(7) 0.1589(5)
N9A_2 N -0.2769(7) 1.1123(7) -0.1589(5)
O1_2 O 1.4055(6) 0.3880(6) -0.5725(4)
O1A O 0.5945(6) 0.6120(6) -0.4275(4)
O2_2 O 1.6198(6) 0.1940(7) -0.4923(4)
O3_2 O 0.9762(7) 0.2698(9) -0.1478(5)
O4_2 O 1.1643(6) 0.1669(6) -0.0231(4)
O4A O -0.1643(6) 0.8331(6) 0.0231(4)
O5A O -0.1631(6) 0.9419(7) -0.3437(4)
H3A H 0.132(7) 0.818(8) -0.326(2)
H4A H 0.129(7) 0.708(8) -0.010(3)
H5A H 0.719(8) 0.754(8) -0.305(2)
H6A H 0.691(8) 0.228(8) -0.315(3)
H7A H -0.102(8) 0.873(5) -0.372(2)
H8A H -0.208(8) 1.016(5) -0.394(4)
O6 O 0.0877(8) 0.5914(9) 0.3702(6)
O7 O 0.0672(10) 0.2995(10) 0.4471(7)
loop_
_geom_bond_atom_site_label_1
_geom_bond_atom_site_label_2
_geom_bond_site_symmetry_1
_geom_bond_site_symmetry_2
Zn1 N2 1_555 1_555
Zn2 N1 1_555 1_555
Zn3 N3 1_555 1_555
C1 N1 1_555 1_555
C2 N2 1_555 1_555
C3 N4 1_555 1_555
C4 H1 1_555 1_555
C5 N7 1_555 1_555
C6 H2 1_555 1_555
C7 C8 1_555 1_555
C8 C9 1_555 1_555
C9 C11 1_555 1_555
C10 C8 1_555 1_555
C11 C13 1_555 1_555
C12 C10 1_555 1_555
C13 C12 1_555 1_555
C14 C13 1_555 1_555
F1 C9 1_555 1_555
F2 C10 1_555 1_555
F3 C11 1_555 1_555
F4 C12 1_555 1_555
N1 N2 1_555 1_555
N3 C1 1_555 1_555
N4 Zn2 1_555 1_555
N5 Zn1 1_555 1_555
N6 C3 1_555 1_555
N7 Zn2 1_555 1_555
N8 Zn1 1_555 1_555
N9 C5 1_555 1_555
O1 Zn2 1_555 1_555
O2 C7 1_555 1_555
O3 C14 1_555 1_555
O4 C14 1_555 1_555
O5 Zn3 1_555 1_555
H3 C1 1_555 1_555
H4 C2 1_555 1_555
H5 C3 1_555 1_555
H6 C5 1_555 1_555
H7 O5 1_555 1_555
H8 O5 1_555 1_555
Zn2A N1A 1_555 1_555
Zn2_2 O1_2 1_555 1_555
Zn3A N3A 1_555 1_555
Zn3_2 N6 1_555 1_555
Zn3_3 N9 1_555 1_555
Zn3_4 O4 1_555 1_555
Zn3A_2 N6A 1_555 1_555
Zn3A_3 N9A 1_555 1_555
C1A N1A 1_555 1_555
C2A N2A 1_555 1_555
C3A N4A 1_555 1_555
C4A H1A 1_555 1_555
C5A N7A 1_555 1_555
C6A H2A 1_555 1_555
C7_2 C8_2 1_555 1_555
C8_2 C9_2 1_555 1_555
C9_2 C11_2 1_555 1_555
C10_2 C8_2 1_555 1_555
C11_2 C13_2 1_555 1_555
C12_2 C10_2 1_555 1_555
C13_2 C12_2 1_555 1_555
C14_2 C13_2 1_555 1_555
F1_2 C9_2 1_555 1_555
F2_2 C10_2 1_555 1_555
F3_2 C11_2 1_555 1_555
F4_2 C12_2 1_555 1_555
N1A N2A 1_555 1_555
N2A Zn1 1_555 1_555
N3A C1A 1_555 1_555
N4A Zn2A 1_555 1_555
N5A Zn1 1_555 1_555
N6A C3A 1_555 1_555
N6_2 Zn3 1_555 1_555
N6A_2 Zn3A 1_555 1_555
N7A Zn2A 1_555 1_555
N8A Zn1 1_555 1_555
N9A C5A 1_555 1_555
N9_2 Zn3 1_555 1_555
N9A_2 Zn3A 1_555 1_555
O1_2 C7_2 1_555 1_555
O1A Zn2A 1_555 1_555
O2_2 C7_2 1_555 1_555
O3_2 C14_2 1_555 1_555
O4_2 Zn3 1_555 1_555
O4A Zn3A 1_555 1_555
O5A Zn3A 1_555 1_555
H3A C1A 1_555 1_555
H4A C2A 1_555 1_555
H5A C3A 1_555 1_555
H6A C5A 1_555 1_555
H7A O5A 1_555 1_555
H8A O5A 1_555 1_555
C2 N3 1_555 1_555
C4 N5 1_555 1_555
C4 N6 1_555 1_555
C6 N8 1_555 1_555
C6 N9 1_555 1_555
C7 O1 1_555 1_555
N4 N5 1_555 1_555
N7 N8 1_555 1_555
C2A N3A 1_555 1_555
C4A N5A 1_555 1_555
C4A N6A 1_555 1_555
C6A N8A 1_555 1_555
C6A N9A 1_555 1_555
C14_2 O4_2 1_555 1_555
N4A N5A 1_555 1_555
N7A N8A 1_555 1_555

#END
