
#######################################################################
#
#                 Cambridge Crystallographic Data Centre
#                                CCDC 
#
#######################################################################
#
# If this CIF has been generated from an entry in the Cambridge 
# Structural Database, then it will include bibliographic, chemical, 
# crystal, experimental, refinement or atomic coordinate data resulting 
# from the CCDC's data processing and validation procedures.
#
#######################################################################

data_BUWMIR
_chemical_formula_moiety         '(C19 H30 Ce2 Fe1 N8 O21)n'
_symmetry_cell_setting           monoclinic
_symmetry_space_group_name_H-M   'C c'
_symmetry_Int_Tables_number      9
_space_group_name_Hall           'C -2yc'
loop_
_symmetry_equiv_pos_site_id
_symmetry_equiv_pos_as_xyz
1 x,y,z
2 x,-y,1/2+z
3 1/2+x,1/2+y,z
4 1/2+x,1/2-y,1/2+z
_cell_length_a                   17.629(2)
_cell_length_b                   19.797(3)
_cell_length_c                   13.2566(18)
_cell_angle_alpha                90
_cell_angle_beta                 131.7000(10)
_cell_angle_gamma                90
_cell_volume                     3454.37
loop_
_atom_site_label
_atom_site_type_symbol
_atom_site_fract_x
_atom_site_fract_y
_atom_site_fract_z
_atom_site_U_iso_or_equiv
_atom_site_thermal_displace_type
Ce1 Ce 0.392367(11) 1.017377(9) 0.284683(13) 0.0157 Uani
Ce2 Ce 0.107518(11) 0.767378(9) 0.215200(14) 0.0157 Uani
O1 O 0.47184(18) 1.11577(14) 0.2593(2) 0.0290 Uani
O2 O 0.5607(2) 1.21254(15) 0.3324(3) 0.0385 Uani
O3 O 0.3979(2) 1.00464(14) 0.4808(3) 0.0308 Uani
O4 O 0.4427(2) 1.04140(16) 0.6745(3) 0.0383 Uani
O5 O 0.21291(18) 0.86543(14) 0.2410(2) 0.0308 Uani
O6 O 0.2285(2) 0.96230(15) 0.1674(3) 0.0388 Uani
O7 O -0.08288(18) 0.75488(14) 0.0187(3) 0.0296 Uani
O8 O -0.23211(19) 0.79146(16) -0.1749(3) 0.0376 Uani
N1 N 0.4853(2) 1.11131(15) 0.4712(3) 0.0181 Uani
N2 N 0.0139(2) 0.86069(15) 0.0282(3) 0.0183 Uani
C1 C 0.5306(2) 1.16279(17) 0.4649(3) 0.0191 Uani
C2 C 0.5831(3) 1.21266(18) 0.5638(4) 0.0247 Uani
H1 H 0.6164 1.2471 0.5590 0.0300 Uiso
C3 C 0.5848(3) 1.2099(2) 0.6697(4) 0.0275 Uani
H2 H 0.6179 1.2432 0.7360 0.0330 Uiso
C4 C 0.5362(3) 1.15661(19) 0.6755(3) 0.0249 Uani
H3 H 0.5355 1.1539 0.7449 0.0300 Uiso
C5 C 0.4891(2) 1.10782(17) 0.5757(3) 0.0198 Uani
C6 C 0.5199(2) 1.16391(18) 0.3418(3) 0.0237 Uani
C7 C 0.4393(3) 1.04646(18) 0.5773(3) 0.0234 Uani
C8 C 0.0661(2) 0.91237(17) 0.0352(3) 0.0187 Uani
C9 C 0.0194(3) 0.96290(19) -0.0639(3) 0.0261 Uani
H4 H 0.0574 0.9977 -0.0588 0.0310 Uiso
C10 C -0.0845(3) 0.9596(2) -0.1695(4) 0.0277 Uani
H5 H -0.1177 0.9927 -0.2362 0.0330 Uiso
C11 C -0.1389(3) 0.90679(19) -0.1755(3) 0.0244 Uani
H6 H -0.2091 0.9043 -0.2447 0.0290 Uiso
C12 C -0.0863(2) 0.85776(18) -0.0761(3) 0.0201 Uani
C13 C 0.1785(2) 0.91354(18) 0.1578(3) 0.0243 Uani
C14 C -0.1376(2) 0.79608(18) -0.0772(3) 0.0230 Uani
O9 O 0.2683(2) 1.10846(16) 0.2351(3) 0.0412 Uani
H7 H 0.2723 1.1195 0.2986 0.0620 Uiso
H8 H 0.2100 1.1135 0.1608 0.0620 Uiso
O10 O 0.2752(2) 1.05305(16) 0.0299(3) 0.0394 Uani
H9 H 0.2254 1.0387 0.0171 0.0590 Uiso
H10 H 0.2812 1.0350 -0.0207 0.0590 Uiso
O11 O 0.4173(2) 0.88951(14) 0.3544(3) 0.0380 Uani
H11 H 0.3862 0.8591 0.3566 0.0570 Uiso
H12 H 0.4773 0.8918 0.4264 0.0570 Uiso
O12 O 0.5825(2) 0.99273(16) 0.4660(3) 0.0429 Uani
H13 H 0.6330 1.0137 0.5315 0.0640 Uiso
H14 H 0.5990 0.9538 0.4631 0.0640 Uiso
O13 O 0.2446(2) 0.80273(16) 0.4700(3) 0.0384 Uani
H15 H 0.3022 0.7967 0.4973 0.0580 Uiso
H16 H 0.2468 0.8133 0.5324 0.0580 Uiso
O14 O 0.0337(2) 0.85875(16) 0.2654(3) 0.0413 Uani
H17 H -0.0237 0.8701 0.1953 0.0620 Uiso
H18 H 0.0387 0.8589 0.3318 0.0620 Uiso
O15 O 0.0624(2) 0.63946(15) 0.1451(3) 0.0382 Uani
H19 H 0.0797 0.6009 0.1425 0.0570 Uiso
H20 H 0.0417 0.6389 0.1863 0.0570 Uiso
O16 O 0.1154(2) 0.74248(16) 0.0327(3) 0.0421 Uani
H21 H 0.0823 0.7660 -0.0424 0.0630 Uiso
H22 H 0.1491 0.7076 0.0527 0.0630 Uiso
Ce1A Ce 0.392367(11) 0.982623(9) 0.784683(13) 0.0157 Uani
Ce2B Ce 0.607518(11) 1.267378(9) 0.215200(14) 0.0157 Uani
Ce2C Ce -0.392482(11) 0.732622(9) -0.284800(14) 0.0157 Uani
O2B O 0.0607(2) 0.71254(15) 0.3324(3) 0.0385 Uani
O4A O 0.4427(2) 0.95860(16) 0.1745(3) 0.0383 Uani
O8C O 0.26789(19) 0.70854(16) 0.3251(3) 0.0376 Uani
Fe1 Fe 0.87486(4) 0.87484(3) 0.49979(5) 0.0261 Uani
O17 O 1.0507(2) 0.8753(2) 0.4995(4) 0.0556 Uani
N3 N 1.0066(3) 0.8142(2) 0.7780(3) 0.0498 Uani
N4 N 0.9439(3) 1.0139(2) 0.6229(4) 0.0495 Uani
N5 N 0.7002(2) 0.8747(2) 0.5001(3) 0.0365 Uani
N6 N 0.7285(3) 0.9360(2) 0.2223(4) 0.0488 Uani
N7 N 0.8214(3) 0.73576(19) 0.3779(4) 0.0483 Uani
N8 N 0.9849(3) 0.8754(2) 0.4992(4) 0.0383 Uani
C15 C 0.9583(3) 0.8372(2) 0.6741(4) 0.0283 Uani
C16 C 0.9158(3) 0.9615(2) 0.5749(4) 0.0287 Uani
C17 C 0.7640(3) 0.8750(2) 0.5000(4) 0.0261 Uani
C18 C 0.7842(3) 0.9127(2) 0.3258(4) 0.0274 Uani
C19 C 0.8404(3) 0.7882(2) 0.4241(4) 0.0276 Uani
O18 O 0.1821(5) 0.9287(5) 0.8675(8) 0.2294 Uani
H23 H 0.2260 0.9411 0.9479 0.3450 Uiso
H24 H 0.1802 0.8859 0.8654 0.3450 Uiso
O19 O 0.3131(5) 0.6804(5) 0.6322(7) 0.2090 Uani
H25 H 0.3615 0.6557 0.6942 0.3130 Uiso
H26 H 0.2642 0.6545 0.5742 0.3130 Uiso
O20 O 0.2022(5) 0.5615(4) 0.4013(11) 0.2477 Uani
H27 H 0.1543 0.5890 0.3552 0.3700 Uiso
H28 H 0.2014 0.5348 0.3527 0.3700 Uiso
O21 O 0.3034(6) 0.8116(4) 0.1035(9) 0.2294 Uani
H29 H 0.2548 0.7875 0.0819 0.3450 Uiso
H30 H 0.3517 0.7776 0.1386 0.3450 Uiso
loop_
_atom_site_aniso_label
_atom_site_aniso_U_11
_atom_site_aniso_U_22
_atom_site_aniso_U_33
_atom_site_aniso_U_23
_atom_site_aniso_U_13
_atom_site_aniso_U_12
Ce1 0.01705(7) 0.01646(9) 0.01694(7) -0.00245(7) 0.01268(6) -0.00334(7)
Ce2 0.01288(7) 0.01660(9) 0.01676(7) 0.00236(7) 0.00945(6) -0.00003(7)
O1 0.0373(12) 0.0336(15) 0.0235(11) -0.0075(10) 0.0233(10) -0.0142(12)
O2 0.0547(14) 0.0329(16) 0.0435(14) -0.0028(12) 0.0392(12) -0.0173(13)
O3 0.0476(13) 0.0242(14) 0.0357(13) -0.0078(10) 0.0340(11) -0.0130(12)
O4 0.0593(14) 0.0424(18) 0.0332(13) -0.0074(12) 0.0391(11) -0.0148(14)
O5 0.0194(11) 0.0334(15) 0.0266(12) 0.0080(11) 0.0099(10) -0.0043(11)
O6 0.0253(13) 0.0347(16) 0.0428(15) 0.0059(13) 0.0169(12) -0.0139(12)
O7 0.0191(11) 0.0260(14) 0.0318(13) 0.0095(11) 0.0120(10) -0.0015(11)
O8 0.0142(12) 0.0392(17) 0.0337(15) 0.0084(13) 0.0052(11) -0.0050(12)
N1 0.0196(12) 0.0197(17) 0.0177(13) 0.0017(11) 0.0135(10) -0.0004(12)
N2 0.0166(12) 0.0203(18) 0.0182(13) -0.0022(11) 0.0116(11) -0.0034(12)
C1 0.0223(14) 0.0160(17) 0.0217(15) 0.0023(13) 0.0158(12) 0.0016(13)
C2 0.0230(15) 0.0200(17) 0.0301(17) -0.0005(14) 0.0172(14) -0.0026(14)
C3 0.0246(17) 0.027(2) 0.0232(17) -0.0080(15) 0.0127(14) -0.0009(16)
C4 0.0258(15) 0.0292(19) 0.0198(15) -0.0033(13) 0.0152(13) 0.0009(15)
C5 0.0194(14) 0.0196(18) 0.0184(15) -0.0010(13) 0.0117(12) 0.0013(13)
C6 0.0269(15) 0.0221(18) 0.0308(16) 0.0021(14) 0.0228(13) -0.0019(14)
C7 0.0294(15) 0.0244(18) 0.0240(15) 0.0009(13) 0.0210(13) -0.0006(15)
C8 0.0190(13) 0.0180(17) 0.0220(15) -0.0012(13) 0.0149(12) -0.0021(13)
C9 0.0321(16) 0.0234(18) 0.0286(16) 0.0019(14) 0.0226(14) -0.0001(15)
C10 0.0338(18) 0.025(2) 0.0250(17) 0.0114(15) 0.0199(15) 0.0081(17)
C11 0.0195(15) 0.0292(19) 0.0183(15) 0.0013(14) 0.0100(13) 0.0034(14)
C12 0.0171(14) 0.0221(19) 0.0181(15) -0.0014(13) 0.0105(12) -0.0007(13)
C13 0.0219(15) 0.0230(18) 0.0277(16) -0.0043(14) 0.0164(13) -0.0077(14)
C14 0.0198(14) 0.0246(18) 0.0227(15) -0.0026(14) 0.0133(13) -0.0047(14)
O9 0.0269(13) 0.0433(18) 0.0367(15) -0.0077(13) 0.0141(11) 0.0091(13)
O10 0.0398(14) 0.0452(18) 0.0312(13) 0.0077(12) 0.0228(12) 0.0043(14)
O11 0.0450(14) 0.0260(15) 0.0403(14) 0.0084(12) 0.0272(12) 0.0021(13)
O12 0.0257(14) 0.0390(17) 0.0394(16) -0.0131(13) 0.0114(13) 0.0055(13)
O13 0.0363(14) 0.0436(18) 0.0271(13) -0.0103(12) 0.0176(11) -0.0064(13)
O14 0.0558(15) 0.0434(18) 0.0346(13) 0.0118(12) 0.0342(12) 0.0212(15)
O15 0.0440(14) 0.0266(15) 0.0426(15) -0.0091(12) 0.0282(12) -0.0037(12)
O16 0.0608(16) 0.0414(17) 0.0361(14) 0.0131(13) 0.0373(13) 0.0209(15)
Ce1A 0.01705 0.01646 0.01694 0.00245 0.01268 0.00334
Ce2B 0.01288 0.0166 0.01676 0.00236 0.00945 -3e-05
Ce2C 0.01288 0.0166 0.01676 -0.00236 0.00945 3e-05
O2B 0.0547 0.0329 0.0435 -0.0028 0.0392 -0.0173
O4A 0.0593 0.0424 0.0332 0.0074 0.0391 0.0148
O8C 0.0142 0.0392 0.0337 -0.0084 0.0052 0.005
Fe1 0.0251(2) 0.0272(3) 0.0267(2) -0.0002(2) 0.01755(18) -0.0003(2)
O17 0.0538(15) 0.055(2) 0.075(2) 0.0073(16) 0.0500(15) 0.0052(16)
N3 0.060(2) 0.059(3) 0.0301(18) 0.0149(16) 0.0298(16) 0.0264(19)
N4 0.076(2) 0.037(2) 0.058(2) -0.0121(16) 0.0540(18) -0.0198(18)
N5 0.0327(16) 0.047(2) 0.0259(15) -0.0028(14) 0.0179(13) -0.0011(16)
N6 0.0295(18) 0.058(3) 0.0295(19) 0.0121(17) 0.0073(16) -0.0071(18)
N7 0.0365(19) 0.033(2) 0.056(2) -0.0135(17) 0.0227(18) 0.0023(16)
N8 0.0409(18) 0.0363(19) 0.0352(16) 0.0003(14) 0.0243(15) 0.0022(18)
C15 0.0265(16) 0.027(2) 0.0330(18) -0.0051(15) 0.0204(14) 0.0038(15)
C16 0.0350(17) 0.031(2) 0.0290(17) 0.0003(16) 0.0250(14) -0.0011(16)
C17 0.0283(18) 0.0249(18) 0.0235(16) 0.0004(13) 0.0166(15) -0.0007(16)
C18 0.0231(15) 0.030(2) 0.0276(17) -0.0039(15) 0.0162(14) -0.0096(15)
C19 0.0197(15) 0.029(2) 0.0291(17) 0.0002(16) 0.0141(14) 0.0020(15)
O18 0.159(4) 0.407(13) 0.188(5) -0.184(7) 0.143(4) -0.182(6)
O19 0.100(4) 0.355(11) 0.182(5) 0.179(7) 0.098(4) 0.073(6)
O20 0.145(4) 0.202(7) 0.428(11) 0.208(7) 0.204(6) 0.123(5)
O21 0.318(5) 0.186(7) 0.409(7) -0.193(6) 0.336(5) -0.141(6)
loop_
_geom_bond_atom_site_label_1
_geom_bond_atom_site_label_2
_geom_bond_site_symmetry_1
_geom_bond_site_symmetry_2
Ce1 O1 1_555 1_555
Ce2 O5 1_555 1_555
O1 C6 1_555 1_555
O2 C6 1_555 1_555
O3 Ce1 1_555 1_555
O4 C7 1_555 1_555
O5 C13 1_555 1_555
O6 Ce1 1_555 1_555
O7 Ce2 1_555 1_555
O8 C14 1_555 1_555
N1 Ce1 1_555 1_555
N2 Ce2 1_555 1_555
C1 N1 1_555 1_555
C2 C1 1_555 1_555
H1 C2 1_555 1_555
C3 C2 1_555 1_555
H2 C3 1_555 1_555
C4 C3 1_555 1_555
H3 C4 1_555 1_555
C5 N1 1_555 1_555
C6 C1 1_555 1_555
C7 O3 1_555 1_555
C8 N2 1_555 1_555
C9 C8 1_555 1_555
H4 C9 1_555 1_555
C10 C9 1_555 1_555
H5 C10 1_555 1_555
C11 C10 1_555 1_555
H6 C11 1_555 1_555
C12 N2 1_555 1_555
C13 O6 1_555 1_555
C14 O7 1_555 1_555
O9 Ce1 1_555 1_555
H7 O9 1_555 1_555
H8 O9 1_555 1_555
O10 Ce1 1_555 1_555
H9 O10 1_555 1_555
H10 O10 1_555 1_555
O11 Ce1 1_555 1_555
H11 O11 1_555 1_555
H12 O11 1_555 1_555
O12 Ce1 1_555 1_555
H13 O12 1_555 1_555
H14 O12 1_555 1_555
O13 Ce2 1_555 1_555
H15 O13 1_555 1_555
H16 O13 1_555 1_555
O14 Ce2 1_555 1_555
H17 O14 1_555 1_555
H18 O14 1_555 1_555
O15 Ce2 1_555 1_555
H19 O15 1_555 1_555
H20 O15 1_555 1_555
O16 Ce2 1_555 1_555
H21 O16 1_555 1_555
H22 O16 1_555 1_555
Fe1 N8 1_555 1_555
O17 N8 1_555 1_555
N3 C15 1_555 1_555
N4 C16 1_555 1_555
N5 C17 1_555 1_555
N6 C18 1_555 1_555
N7 C19 1_555 1_555
C15 Fe1 1_555 1_555
C16 Fe1 1_555 1_555
C17 Fe1 1_555 1_555
C18 Fe1 1_555 1_555
C19 Fe1 1_555 1_555
O18 H23 1_555 1_555
H24 O18 1_555 1_555
O19 H25 1_555 1_555
H26 O19 1_555 1_555
O20 H27 1_555 1_555
H28 O20 1_555 1_555
O21 H29 1_555 1_555
H30 O21 1_555 1_555
Ce1A O4 1_555 1_555
Ce2B O2 1_555 1_555
Ce2C O8 1_555 1_555
O2B Ce2 1_555 1_555
O4A Ce1 1_555 1_555
O8C Ce2 1_555 1_555
C4 C5 1_555 1_555
C5 C7 1_555 1_555
C8 C13 1_555 1_555
C11 C12 1_555 1_555
C12 C14 1_555 1_555

#END
