
#######################################################################
#
#                 Cambridge Crystallographic Data Centre
#                                CCDC 
#
#######################################################################
#
# If this CIF has been generated from an entry in the Cambridge 
# Structural Database, then it will include bibliographic, chemical, 
# crystal, experimental, refinement or atomic coordinate data resulting 
# from the CCDC's data processing and validation procedures.
#
#######################################################################

data_BUWMEN
_chemical_formula_moiety         '(C19 H30 Fe1 La2 N8 O21)n'
_symmetry_cell_setting           monoclinic
_symmetry_space_group_name_H-M   'C c'
_symmetry_Int_Tables_number      9
_space_group_name_Hall           'C -2yc'
loop_
_symmetry_equiv_pos_site_id
_symmetry_equiv_pos_as_xyz
1 x,y,z
2 x,-y,1/2+z
3 1/2+x,1/2+y,z
4 1/2+x,1/2-y,1/2+z
_cell_length_a                   17.755(2)
_cell_length_b                   19.838(3)
_cell_length_c                   13.3110(18)
_cell_angle_alpha                90
_cell_angle_beta                 131.8340(10)
_cell_angle_gamma                90
_cell_volume                     3493.27
loop_
_atom_site_label
_atom_site_type_symbol
_atom_site_fract_x
_atom_site_fract_y
_atom_site_fract_z
_atom_site_U_iso_or_equiv
_atom_site_thermal_displace_type
La1 La 0.891946(16) 0.266957(12) 0.283943(19) 0.0169 Uani
La2 La 0.608050(15) 0.516951(12) 0.216152(18) 0.0169 Uani
O1 O 0.7242(3) 0.5517(2) 0.4721(4) 0.0414 Uani
H1 H 0.7329 0.5930 0.4663 0.0630 Uiso
H2 H 0.7550 0.5412 0.5526 0.0630 Uiso
O2 O 0.5840(3) 0.3888(2) 0.1443(4) 0.0394 Uani
H3 H 0.5578 0.3861 0.1803 0.0590 Uiso
H4 H 0.6103 0.3500 0.1469 0.0590 Uiso
O3 O 0.7322(3) 0.6096(2) 0.2669(5) 0.0462 Uani
H5 H 0.7236 0.6390 0.2162 0.0690 Uiso
H6 H 0.7875 0.6130 0.3447 0.0690 Uiso
O4 O 0.4171(3) 0.4918(2) 0.0320(5) 0.0467 Uani
H7 H 0.3727 0.5120 -0.0394 0.0700 Uiso
H8 H 0.3952 0.4541 0.0320 0.0700 Uiso
O5 O 0.9651(4) 0.3586(2) 0.2332(4) 0.0463 Uani
H9 H 0.9696 0.3973 0.2608 0.0700 Uiso
H10 H 0.9435 0.3601 0.1550 0.0700 Uiso
O6 O 0.7515(3) 0.3021(2) 0.0270(4) 0.0415 Uani
H11 H 0.7662 0.3321 -0.0024 0.0620 Uiso
H12 H 0.7133 0.2733 -0.0327 0.0620 Uiso
O7 O 0.9389(3) 0.1388(2) 0.3543(4) 0.0397 Uani
H13 H 0.8944 0.1187 0.2810 0.0600 Uiso
H14 H 0.9626 0.1115 0.4183 0.0600 Uiso
O8 O 0.8849(4) 0.2415(2) 0.4681(4) 0.0473 Uani
H15 H 0.9258 0.2556 0.5475 0.0700 Uiso
H16 H 0.8648 0.2031 0.4655 0.0700 Uiso
O9 O 0.4388(4) 0.7125(2) 0.1653(4) 0.0424 Uani
O10 O 0.5276(3) 0.6162(2) 0.2400(4) 0.0337 Uani
O11 O 0.5562(4) 0.5425(2) -0.1750(4) 0.0408 Uani
O12 O 0.6004(3) 0.50535(19) 0.0174(4) 0.0331 Uani
O13 O 0.7885(3) 0.3666(2) 0.2603(4) 0.0330 Uani
O14 O 0.7728(3) 0.4624(2) 0.3345(5) 0.0422 Uani
O15 O 1.0837(3) 0.2551(2) 0.4828(4) 0.0338 Uani
O16 O 1.2316(3) 0.2921(2) 0.6751(4) 0.0405 Uani
N1 N 0.5142(3) 0.6112(2) 0.0278(4) 0.0198 Uani
N2 N 0.9856(3) 0.3611(2) 0.4713(4) 0.0202 Uani
C1 C 0.4794(4) 0.6638(2) 0.1565(5) 0.0258 Uani
C2 C 0.4695(3) 0.6630(2) 0.0347(5) 0.0213 Uani
C3 C 0.4167(4) 0.7130(2) -0.0646(5) 0.0273 Uani
H17 H 0.3839 0.7475 -0.0596 0.0330 Uiso
C4 C 0.4145(4) 0.7096(3) -0.1706(5) 0.0312 Uani
H18 H 0.3809 0.7425 -0.2375 0.0370 Uiso
C5 C 0.4628(4) 0.6569(3) -0.1761(5) 0.0282 Uani
H19 H 0.4638 0.6544 -0.2449 0.0340 Uiso
C6 C 0.5096(4) 0.6078(2) -0.0765(5) 0.0227 Uani
C7 C 0.5596(4) 0.5468(3) -0.0784(5) 0.0259 Uani
C8 C 0.8232(4) 0.4140(2) 0.3437(5) 0.0267 Uani
C9 C 0.9348(3) 0.4129(2) 0.4656(5) 0.0222 Uani
C10 C 0.9812(4) 0.4631(2) 0.5639(5) 0.0276 Uani
H20 H 0.9432 0.4976 0.5586 0.0320 Uiso
C11 C 1.0847(4) 0.4606(3) 0.6694(6) 0.0280 Uani
H21 H 1.1178 0.4940 0.7351 0.0340 Uiso
C12 C 1.1390(4) 0.4070(3) 0.6758(5) 0.0282 Uani
H22 H 1.2088 0.4043 0.7453 0.0340 Uiso
C13 C 1.0863(4) 0.3579(2) 0.5760(5) 0.0231 Uani
C14 C 1.1378(4) 0.2968(2) 0.5780(5) 0.0264 Uani
La1B La 0.391946(16) 0.766957(12) 0.283943(19) 0.0169 Uani
La1C La 1.391946(16) 0.233043(12) 0.783943(19) 0.0169 Uani
La2A La 0.608050(15) 0.483049(12) -0.283848(18) 0.0169 Uani
O9B O 0.9388(4) 0.2125(2) 0.1653(4) 0.0424 Uani
O11A O 0.5562(4) 0.4575(2) 0.3250(4) 0.0408 Uani
O16C O 0.7316(3) 0.2079(2) 0.1751(4) 0.0405 Uani
Fe1 Fe 0.12500(6) 0.62499(4) 0.50012(8) 0.0270 Uani
O17 O -0.0506(4) 0.6246(3) 0.4996(6) 0.0580 Uani
N3 N 0.0577(5) 0.4861(3) 0.3795(6) 0.0530 Uani
N4 N 0.2715(4) 0.5639(3) 0.7780(5) 0.0538 Uani
N5 N 0.2999(4) 0.6251(3) 0.5008(5) 0.0407 Uani
N6 N 0.1793(5) 0.7642(3) 0.6228(7) 0.0535 Uani
N7 N -0.0061(5) 0.6862(3) 0.2225(5) 0.0532 Uani
N8 N 0.0153(4) 0.6246(3) 0.4983(6) 0.0409 Uani
C15 C 0.0851(4) 0.5387(3) 0.4263(5) 0.0320 Uani
C16 C 0.2145(4) 0.5876(3) 0.6730(5) 0.0327 Uani
C17 C 0.2338(4) 0.6254(3) 0.4991(6) 0.0287 Uani
C18 C 0.1590(4) 0.7111(3) 0.5748(5) 0.0306 Uani
C19 C 0.0415(4) 0.6628(3) 0.3266(5) 0.0312 Uani
O18 O 0.8080(7) 0.0555(5) 0.1224(12) 0.1542 Uani
H23 H 0.8693 0.0384 0.1423 0.2310 Uiso
H24 H 0.7591 0.0775 0.0446 0.2310 Uiso
O19 O 0.7094(11) 0.3139(8) 0.4245(16) 0.2297 Uani
H25 H 0.6853 0.3398 0.3573 0.3440 Uiso
H26 H 0.7681 0.3171 0.4875 0.3440 Uiso
O20 O 0.8253(7) 0.4344(6) 0.6423(11) 0.1592 Uani
H27 H 0.8708 0.4074 0.7036 0.2390 Uiso
H28 H 0.7822 0.4280 0.6543 0.2390 Uiso
O21 O 0.6912(11) 0.1701(8) 0.8806(16) 0.2316 Uani
H29 H 0.7372 0.1845 0.9565 0.3480 Uiso
H30 H 0.7002 0.1457 0.8356 0.3480 Uiso
loop_
_atom_site_aniso_label
_atom_site_aniso_U_11
_atom_site_aniso_U_22
_atom_site_aniso_U_33
_atom_site_aniso_U_23
_atom_site_aniso_U_13
_atom_site_aniso_U_12
La1 0.01394(12) 0.01805(12) 0.01781(12) -0.00241(9) 0.01016(10) 0.00009(9)
La2 0.01854(12) 0.01802(12) 0.01790(12) 0.00240(9) 0.01377(11) 0.00337(10)
O1 0.049(3) 0.038(2) 0.0261(19) -0.0078(17) 0.0204(19) -0.0037(19)
O2 0.048(3) 0.027(2) 0.044(2) -0.0101(17) 0.031(2) -0.0038(17)
O3 0.029(2) 0.043(2) 0.047(2) 0.016(2) 0.0172(19) -0.0046(18)
O4 0.028(2) 0.044(2) 0.040(2) 0.016(2) 0.011(2) -0.0032(18)
O5 0.070(3) 0.041(2) 0.043(2) -0.0149(19) 0.044(3) -0.027(2)
O6 0.042(2) 0.040(2) 0.033(2) 0.0105(18) 0.021(2) 0.0061(18)
O7 0.045(2) 0.031(2) 0.036(2) 0.0086(17) 0.024(2) 0.0089(18)
O8 0.069(3) 0.049(3) 0.036(2) -0.017(2) 0.040(2) -0.030(2)
O9 0.062(3) 0.039(2) 0.043(2) 0.0075(19) 0.042(2) 0.025(2)
O10 0.043(2) 0.036(2) 0.0307(19) 0.0071(16) 0.0281(19) 0.0139(17)
O11 0.062(3) 0.045(2) 0.037(2) 0.0074(18) 0.042(2) 0.016(2)
O12 0.046(2) 0.0290(19) 0.037(2) 0.0082(16) 0.033(2) 0.0137(17)
O13 0.0176(17) 0.035(2) 0.0297(19) -0.0076(16) 0.0088(16) 0.0063(15)
O14 0.028(2) 0.039(2) 0.046(3) -0.0048(19) 0.019(2) 0.0143(18)
O15 0.0195(19) 0.0327(19) 0.036(2) -0.0090(16) 0.0130(18) 0.0048(15)
O16 0.0162(18) 0.046(2) 0.035(2) -0.0057(18) 0.0069(18) 0.0076(17)
N1 0.023(2) 0.018(2) 0.024(2) 0.0029(15) 0.018(2) 0.0032(16)
N2 0.015(2) 0.024(2) 0.017(2) -0.0007(15) 0.0087(18) 0.0017(16)
C1 0.030(3) 0.024(2) 0.029(2) -0.0016(19) 0.022(2) 0.0040(19)
C2 0.021(2) 0.019(2) 0.024(2) 0.0011(18) 0.015(2) 0.0024(17)
C3 0.030(3) 0.020(2) 0.035(3) 0.0033(19) 0.023(2) 0.0061(19)
C4 0.027(3) 0.033(3) 0.024(3) 0.011(2) 0.013(2) 0.004(2)
C5 0.030(3) 0.036(3) 0.021(2) 0.0001(19) 0.018(2) -0.002(2)
C6 0.022(2) 0.026(2) 0.020(2) -0.0014(18) 0.014(2) -0.0017(18)
C7 0.030(3) 0.029(2) 0.025(2) -0.0029(19) 0.021(2) 0.001(2)
C8 0.026(2) 0.025(2) 0.030(3) 0.0022(19) 0.019(2) 0.0062(19)
C9 0.021(2) 0.021(2) 0.023(2) 0.0010(18) 0.014(2) 0.0016(17)
C10 0.034(3) 0.018(2) 0.034(3) -0.0024(19) 0.024(2) 0.0010(19)
C11 0.030(3) 0.024(3) 0.030(3) -0.007(2) 0.020(3) -0.007(2)
C12 0.021(2) 0.033(3) 0.021(2) -0.0041(19) 0.010(2) -0.0043(19)
C13 0.019(2) 0.023(2) 0.020(2) 0.0003(17) 0.010(2) -0.0013(18)
C14 0.018(2) 0.027(2) 0.027(2) 0.0011(19) 0.012(2) 0.0038(18)
La1B 0.01394 0.01805 0.01781 -0.00241 0.01016 9e-05
La1C 0.01394 0.01805 0.01781 0.00241 0.01016 -9e-05
La2A 0.01854 0.01802 0.0179 -0.0024 0.01377 -0.00337
O9B 0.062 0.039 0.043 0.0075 0.042 0.025
O11A 0.062 0.045 0.037 -0.0074 0.042 -0.016
O16C 0.0162 0.046 0.035 0.0057 0.0069 -0.0076
Fe1 0.0270(4) 0.0271(3) 0.0269(3) 0.0003(3) 0.0180(3) 0.0002(3)
O17 0.056(3) 0.051(3) 0.075(3) 0.005(2) 0.047(3) 0.002(2)
N3 0.086(5) 0.036(3) 0.061(4) -0.012(3) 0.059(4) -0.017(3)
N4 0.033(3) 0.061(4) 0.032(3) 0.014(2) 0.007(2) -0.004(2)
N5 0.033(3) 0.053(3) 0.036(3) -0.006(2) 0.023(2) -0.004(2)
N6 0.041(3) 0.038(3) 0.063(4) -0.013(3) 0.027(3) 0.004(2)
N7 0.063(4) 0.066(4) 0.037(3) 0.016(3) 0.036(3) 0.027(3)
N8 0.041(3) 0.041(3) 0.035(2) 0.001(2) 0.023(2) 0.000(2)
C15 0.043(3) 0.033(3) 0.032(3) 0.002(2) 0.030(3) 0.001(2)
C16 0.031(3) 0.032(3) 0.031(3) -0.006(2) 0.019(2) -0.009(2)
C17 0.028(3) 0.023(2) 0.027(2) -0.0015(18) 0.015(2) 0.001(2)
C18 0.018(2) 0.033(3) 0.028(2) 0.004(2) 0.010(2) 0.004(2)
C19 0.034(3) 0.030(3) 0.032(3) -0.002(2) 0.023(2) 0.003(2)
O18 0.117(6) 0.156(7) 0.220(9) -0.096(7) 0.125(6) -0.049(5)
O19 0.234(10) 0.272(12) 0.267(11) 0.073(8) 0.202(9) 0.027(8)
O20 0.124(6) 0.231(9) 0.157(7) 0.080(7) 0.108(6) 0.077(6)
O21 0.208(10) 0.307(12) 0.250(11) -0.093(8) 0.182(9) 0.011(8)
loop_
_geom_bond_atom_site_label_1
_geom_bond_atom_site_label_2
_geom_bond_site_symmetry_1
_geom_bond_site_symmetry_2
La1 O5 1_555 1_555
La2 O1 1_555 1_555
O1 H1 1_555 1_555
H2 O1 1_555 1_555
O2 La2 1_555 1_555
H3 O2 1_555 1_555
H4 O2 1_555 1_555
O3 La2 1_555 1_555
H5 O3 1_555 1_555
H6 O3 1_555 1_555
O4 La2 1_555 1_555
H7 O4 1_555 1_555
H8 O4 1_555 1_555
O5 H9 1_555 1_555
H10 O5 1_555 1_555
O6 La1 1_555 1_555
H11 O6 1_555 1_555
H12 O6 1_555 1_555
O7 La1 1_555 1_555
H13 O7 1_555 1_555
H14 O7 1_555 1_555
O8 La1 1_555 1_555
H15 O8 1_555 1_555
H16 O8 1_555 1_555
O9 C1 1_555 1_555
O10 La2 1_555 1_555
O11 C7 1_555 1_555
O12 La2 1_555 1_555
O13 La1 1_555 1_555
O14 La2 1_555 1_555
O15 La1 1_555 1_555
O16 C14 1_555 1_555
N1 La2 1_555 1_555
N2 La1 1_555 1_555
C1 O10 1_555 1_555
C2 N1 1_555 1_555
C3 C2 1_555 1_555
H17 C3 1_555 1_555
C4 C3 1_555 1_555
H18 C4 1_555 1_555
C5 C4 1_555 1_555
H19 C5 1_555 1_555
C6 N1 1_555 1_555
C7 O12 1_555 1_555
C8 O13 1_555 1_555
C9 N2 1_555 1_555
C10 C9 1_555 1_555
H20 C10 1_555 1_555
C11 C10 1_555 1_555
H21 C11 1_555 1_555
C12 C11 1_555 1_555
H22 C12 1_555 1_555
C13 N2 1_555 1_555
C14 O15 1_555 1_555
Fe1 N8 1_555 1_555
O17 N8 1_555 1_555
N3 C15 1_555 1_555
N4 C16 1_555 1_555
N5 C17 1_555 1_555
N6 C18 1_555 1_555
N7 C19 1_555 1_555
C15 Fe1 1_555 1_555
C16 Fe1 1_555 1_555
C17 Fe1 1_555 1_555
C18 Fe1 1_555 1_555
C19 Fe1 1_555 1_555
O18 H23 1_555 1_555
H24 O18 1_555 1_555
O19 H25 1_555 1_555
H26 O19 1_555 1_555
O20 H27 1_555 1_555
H28 O20 1_555 1_555
O21 H29 1_555 1_555
H30 O21 1_555 1_555
La1B O9 1_555 1_555
La1C O16 1_555 1_555
La2A O11 1_555 1_555
O9B La1 1_555 1_555
O11A La2 1_555 1_555
O16C La1 1_555 1_555
O14 C8 1_555 1_555
C1 C2 1_555 1_555
C5 C6 1_555 1_555
C6 C7 1_555 1_555
C8 C9 1_555 1_555
C12 C13 1_555 1_555
C13 C14 1_555 1_555

#END
