
#######################################################################
#
#                 Cambridge Crystallographic Data Centre
#                                CCDC 
#
#######################################################################
#
# If this CIF has been generated from an entry in the Cambridge 
# Structural Database, then it will include bibliographic, chemical, 
# crystal, experimental, refinement or atomic coordinate data resulting 
# from the CCDC's data processing and validation procedures.
#
#######################################################################

data_UCOJED
_chemical_formula_moiety         '(C81 H81 I6 N13 O2 Zn3)n'
_symmetry_cell_setting           orthorhombic
_symmetry_space_group_name_H-M   'P b c a'
_symmetry_Int_Tables_number      61
_space_group_name_Hall           '-P 2ac 2ab'
loop_
_symmetry_equiv_pos_site_id
_symmetry_equiv_pos_as_xyz
1 x,y,z
2 1/2-x,-y,1/2+z
3 -x,1/2+y,1/2-z
4 1/2+x,1/2-y,-z
5 -x,-y,-z
6 1/2+x,y,1/2-z
7 x,1/2-y,1/2+z
8 1/2-x,1/2+y,z
_cell_length_a                   27.110(5)
_cell_length_b                   13.785(3)
_cell_length_c                   45.814(9)
_cell_angle_alpha                90
_cell_angle_beta                 90
_cell_angle_gamma                90
_cell_volume                     17121.2
loop_
_atom_site_label
_atom_site_type_symbol
_atom_site_fract_x
_atom_site_fract_y
_atom_site_fract_z
_atom_site_U_iso_or_equiv
_atom_site_thermal_displace_type
C1 C 0.2932(14) 0.956(2) 1.0290(5) 0.2117 Uani
H1 H 0.2915 0.9529 1.0505 0.2510 Uiso
H2 H 0.2904 1.0258 1.0236 0.2510 Uiso
C2 C 0.3452(12) 0.922(2) 1.0196(7) 0.1967 Uani
H3 H 0.3506 0.9345 0.9986 0.2380 Uiso
H4 H 0.3709 0.9562 1.0309 0.2380 Uiso
C3 C 0.3476(11) 0.823(2) 1.0251(7) 0.2033 Uani
H5 H 0.3482 0.8129 1.0465 0.2460 Uiso
H6 H 0.3790 0.7978 1.0171 0.2460 Uiso
C4 C 0.3022(11) 0.762(2) 1.0113(7) 0.1900 Uani
H7 H 0.3051 0.6922 1.0162 0.2280 Uiso
H8 H 0.3011 0.7691 0.9898 0.2280 Uiso
C5 C 0.2526(11) 0.811(2) 1.0268(7) 0.2033 Uani
H9 H 0.2229 0.7727 1.0216 0.2450 Uiso
H10 H 0.2562 0.8099 1.0483 0.2450 Uiso
C6 C 0.2480(12) 0.905(3) 1.0170(8) 0.2200 Uani
H11 H 0.2173 0.9347 1.0244 0.2640 Uiso
H12 H 0.2476 0.9067 0.9954 0.2640 Uiso
C7 C 0.0594(10) 0.6466(18) 0.1866(5) 0.1223 Uani
H13 H 0.0951 0.6311 0.1871 0.1470 Uiso
H14 H 0.0412 0.5860 0.1910 0.1470 Uiso
C8 C 0.0482(9) 0.7213(18) 0.2112(5) 0.1213 Uani
H15 H 0.0552 0.6923 0.2305 0.1460 Uiso
H16 H 0.0694 0.7793 0.2088 0.1460 Uiso
C9 C -0.0005(10) 0.7473(19) 0.2095(5) 0.1337 Uani
H17 H -0.0066 0.8005 0.2236 0.1620 Uiso
H18 H -0.0209 0.6912 0.2156 0.1620 Uiso
C10 C -0.0188(11) 0.7818(19) 0.1781(6) 0.1410 Uani
H19 H -0.0011 0.8408 0.1717 0.1720 Uiso
H20 H -0.0547 0.7949 0.1781 0.1720 Uiso
C11 C -0.0050(9) 0.686(2) 0.1565(6) 0.1403 Uani
H21 H -0.0195 0.6261 0.1646 0.1680 Uiso
H22 H -0.0184 0.6966 0.1366 0.1680 Uiso
C12 C 0.0460(8) 0.6793(16) 0.1555(4) 0.0993 Uani
H23 H 0.0612 0.7427 0.1509 0.1190 Uiso
H24 H 0.0567 0.6309 0.1409 0.1190 Uiso
C13 C 0.2286(17) 0.722(3) 0.9397(12) 0.3600 Uani
H25 H 0.2341 0.7877 0.9317 0.4330 Uiso
H26 H 0.2592 0.7026 0.9500 0.4330 Uiso
C14 C 0.1868(18) 0.729(3) 0.9626(11) 0.3467 Uani
H27 H 0.1962 0.7743 0.9783 0.4160 Uiso
H28 H 0.1562 0.7529 0.9534 0.4160 Uiso
C15 C 0.1790(15) 0.638(3) 0.9740(8) 0.3033 Uani
H29 H 0.1458 0.6376 0.9831 0.3610 Uiso
H30 H 0.2033 0.6278 0.9898 0.3610 Uiso
C16 C 0.1824(15) 0.549(3) 0.9519(9) 0.3033 Uani
H31 H 0.1502 0.5413 0.9421 0.3610 Uiso
H32 H 0.1892 0.4894 0.9631 0.3610 Uiso
C17 C 0.2254(14) 0.563(3) 0.9273(10) 0.2867 Uani
H33 H 0.2582 0.5577 0.9365 0.3430 Uiso
H34 H 0.2224 0.5116 0.9124 0.3430 Uiso
C18 C 0.2212(15) 0.652(3) 0.9140(8) 0.3133 Uani
H35 H 0.1883 0.6610 0.9050 0.3750 Uiso
H36 H 0.2470 0.6616 0.8989 0.3750 Uiso
C19 C 0.3323(5) 0.6955(10) 0.1640(3) 0.0623 Uani
C20 C 0.3807(5) 0.6910(10) 0.1763(3) 0.0697 Uani
H37 H 0.3855 0.7032 0.1965 0.0830 Uiso
C21 C 0.4205(6) 0.6686(11) 0.1585(4) 0.0757 Uani
C22 C 0.4149(6) 0.6556(11) 0.1286(3) 0.0660 Uani
H38 H 0.4429 0.6422 0.1168 0.0800 Uiso
C23 C 0.3692(5) 0.6622(11) 0.1163(3) 0.0687 Uani
H39 H 0.3654 0.6573 0.0958 0.0820 Uiso
C24 C 0.3263(5) 0.6769(10) 0.1348(3) 0.0637 Uani
C25 C 0.2769(6) 0.6694(10) 0.1225(4) 0.0797 Uani
C26 C 0.2669(6) 0.6517(12) 0.0928(4) 0.0963 Uani
H40 H 0.2941 0.6491 0.0798 0.1160 Uiso
C27 C 0.2211(9) 0.6379(18) 0.0816(5) 0.1377 Uani
H41 H 0.2163 0.6223 0.0616 0.1650 Uiso
C28 C 0.1815(8) 0.6477(15) 0.1005(5) 0.1167 Uani
H42 H 0.1493 0.6372 0.0930 0.1400 Uiso
C29 C 0.1860(7) 0.6701(12) 0.1274(4) 0.0993 Uani
H43 H 0.1577 0.6766 0.1395 0.1190 Uiso
C30 C 0.2364(6) 0.6857(10) 0.1395(4) 0.0810 Uani
C31 C 0.2411(6) 0.7137(12) 0.1689(4) 0.0897 Uani
C32 C 0.1989(7) 0.7347(14) 0.1880(4) 0.1117 Uani
H44 H 0.1664 0.7253 0.1808 0.1340 Uiso
C33 C 0.2055(9) 0.7672(17) 0.2155(5) 0.1193 Uani
H45 H 0.1779 0.7869 0.2268 0.1430 Uiso
C34 C 0.2511(8) 0.7718(11) 0.2268(4) 0.1057 Uani
H46 H 0.2548 0.7922 0.2465 0.1270 Uiso
C35 C 0.2936(7) 0.7476(11) 0.2109(4) 0.1023 Uani
H47 H 0.3250 0.7505 0.2200 0.1230 Uiso
C36 C 0.2899(6) 0.7184(10) 0.1807(3) 0.0720 Uani
C37 C 0.4698(7) 0.6598(13) 0.1742(6) 0.0990 Uani
H48 H 0.4944 0.6710 0.1582 0.1190 Uiso
C38 C 0.4837(9) 0.7291(14) 0.1959(5) 0.1093 Uani
H49 H 0.4611 0.7790 0.2009 0.1310 Uiso
C39 C 0.5272(9) 0.7260(18) 0.2092(7) 0.1337 Uani
H50 H 0.5380 0.7708 0.2237 0.1590 Uiso
C40 C 0.5572(11) 0.641(2) 0.1982(8) 0.1533 Uani
H51 H 0.5688 0.6556 0.1782 0.1840 Uiso
H52 H 0.5867 0.6332 0.2107 0.1840 Uiso
C41 C 0.4807(8) 0.5531(15) 0.1840(6) 0.1020 Uani
H53 H 0.4805 0.5098 0.1665 0.1220 Uiso
C42 C 0.5312(11) 0.552(2) 0.1976(7) 0.1370 Uani
H54 H 0.5518 0.5018 0.1876 0.1640 Uiso
C43 C 0.4455(7) 0.5151(10) 0.2059(4) 0.0760 Uani
C44 C 0.5208(8) 0.5191(13) 0.2285(6) 0.1080 Uani
C45 C 0.4390(11) 0.4713(18) 0.2600(5) 0.1340 Uani
H55 H 0.4609 0.4659 0.2769 0.2020 Uiso
H56 H 0.4236 0.4082 0.2561 0.2020 Uiso
H57 H 0.4133 0.5194 0.2640 0.2020 Uiso
N1 N 0.4703(7) 0.5044(10) 0.2320(4) 0.1013 Uani
O1 O 0.4008(4) 0.4970(8) 0.2035(3) 0.0820 Uani
O2 O 0.5498(7) 0.5086(12) 0.2479(5) 0.1530 Uani
Zn1 Zn 0.24344(8) 0.65442(11) 0.31134(4) 0.0599 Uani
Zn2 Zn -0.03271(6) 0.35688(11) 0.08311(5) 0.0607 Uani
Zn3 Zn 0.44897(5) 0.35381(11) 0.07401(3) 0.0442 Uani
I1 I 0.33636(6) 0.67180(11) 0.32062(3) 0.0908 Uani
I2 I 0.19083(6) 0.80873(7) 0.30503(3) 0.0836 Uani
I3 I -0.08519(5) 0.26389(10) 0.11872(5) 0.1171 Uani
I4 I -0.00860(4) 0.28958(9) 0.03317(3) 0.0873 Uani
I5 I 0.51659(3) 0.44655(8) 0.10070(2) 0.0608 Uani
I6 I 0.44458(5) 0.17235(8) 0.06485(3) 0.0781 Uani
C46 C 0.2726(5) 0.5489(9) 0.2583(3) 0.0473 Uani
H58 H 0.3046 0.5562 0.2666 0.0570 Uiso
C47 C 0.2688(5) 0.5143(8) 0.2295(3) 0.0387 Uani
H59 H 0.2972 0.4995 0.2181 0.0460 Uiso
C48 C 0.2213(4) 0.5026(7) 0.2183(3) 0.0373 Uani
C49 C 0.1812(5) 0.5229(9) 0.2353(3) 0.0520 Uani
H60 H 0.1489 0.5105 0.2282 0.0620 Uiso
C50 C 0.1881(6) 0.5604(10) 0.2619(3) 0.0543 Uani
H61 H 0.1600 0.5803 0.2727 0.0650 Uiso
C51 C 0.0334(4) 0.3999(9) 0.1337(4) 0.0517 Uani
H62 H 0.0035 0.3939 0.1444 0.0620 Uiso
C52 C 0.0780(5) 0.4172(9) 0.1489(3) 0.0480 Uani
H63 H 0.0781 0.4239 0.1695 0.0580 Uiso
C53 C 0.1209(4) 0.4240(7) 0.1333(3) 0.0393 Uani
C54 C 0.1177(5) 0.4163(10) 0.1037(3) 0.0517 Uani
H64 H 0.1469 0.4226 0.0924 0.0620 Uiso
C55 C 0.0739(5) 0.3998(10) 0.0897(3) 0.0540 Uani
H65 H 0.0732 0.3940 0.0690 0.0650 Uiso
C56 C 0.3407(5) 0.3844(9) 0.0837(2) 0.0413 Uani
H66 H 0.3399 0.3698 0.0634 0.0490 Uiso
C57 C 0.2975(4) 0.3980(8) 0.0971(2) 0.0360 Uani
H67 H 0.2671 0.3915 0.0870 0.0430 Uiso
C58 C 0.2993(4) 0.4230(7) 0.1273(2) 0.0300 Uani
C59 C 0.3449(4) 0.4315(7) 0.1411(2) 0.0320 Uani
H68 H 0.3478 0.4496 0.1610 0.0380 Uiso
C60 C 0.3851(4) 0.4121(7) 0.1241(2) 0.0323 Uani
H69 H 0.4163 0.4155 0.1335 0.0390 Uiso
C61 C 0.2158(4) 0.4725(7) 0.1869(2) 0.0307 Uani
C62 C 0.1703(4) 0.4382(7) 0.1480(3) 0.0370 Uani
C63 C 0.2533(4) 0.4388(7) 0.1440(2) 0.0273 Uani
C64 C 0.0597(6) 0.4806(11) 0.5328(3) 0.0620 Uani
H70 H 0.0462 0.4470 0.5490 0.0750 Uiso
C65 C 0.0718(6) 0.4266(10) 0.5085(3) 0.0567 Uani
H71 H 0.0646 0.3593 0.5075 0.0680 Uiso
C66 C 0.0951(4) 0.4745(9) 0.4853(2) 0.0400 Uani
C67 C 0.1008(6) 0.5746(10) 0.4871(3) 0.0550 Uani
H72 H 0.1144 0.6105 0.4714 0.0660 Uiso
C68 C 0.0859(5) 0.6211(10) 0.5128(2) 0.0463 Uani
H73 H 0.0908 0.6892 0.5142 0.0560 Uiso
C69 C 0.1985(6) 0.6196(10) 0.3678(3) 0.0593 Uani
H74 H 0.2038 0.6875 0.3693 0.0710 Uiso
C70 C 0.1776(7) 0.5690(10) 0.3917(3) 0.0680 Uani
H75 H 0.1694 0.6022 0.4092 0.0820 Uiso
C71 C 0.1695(5) 0.4723(9) 0.3892(3) 0.0493 Uani
C72 C 0.1851(8) 0.4258(11) 0.3655(3) 0.0793 Uani
H76 H 0.1822 0.3572 0.3645 0.0950 Uiso
C73 C 0.2054(7) 0.4761(10) 0.3427(4) 0.0767 Uani
H77 H 0.2160 0.4419 0.3258 0.0920 Uiso
C74 C 0.0858(6) 0.0370(10) 0.4011(3) 0.0590 Uani
H78 H 0.0893 0.0049 0.3829 0.0710 Uiso
C75 C 0.1039(6) 0.1301(10) 0.4040(3) 0.0620 Uani
H79 H 0.1197 0.1602 0.3879 0.0740 Uiso
C76 C 0.0993(4) 0.1797(9) 0.4296(3) 0.0400 Uani
C77 C 0.0760(5) 0.1343(10) 0.4531(3) 0.0493 Uani
H80 H 0.0711 0.1681 0.4710 0.0600 Uiso
C78 C 0.0597(5) 0.0372(11) 0.4500(4) 0.0627 Uani
H81 H 0.0459 0.0032 0.4661 0.0750 Uiso
C79 C 0.1122(5) 0.4199(9) 0.4587(3) 0.0460 Uani
C80 C 0.1465(4) 0.4200(9) 0.4151(2) 0.0407 Uani
C81 C 0.1136(5) 0.2836(9) 0.4332(3) 0.0473 Uani
N2 N 0.2339(4) 0.5717(7) 0.2744(2) 0.0433 Uani
N3 N 0.0320(4) 0.3919(7) 0.1051(3) 0.0510 Uani
N4 N 0.3855(3) 0.3896(7) 0.09661(18) 0.0327 Uani
N5 N 0.1704(3) 0.4609(6) 0.1761(2) 0.0377 Uani
N6 N 0.2093(3) 0.4235(7) 0.1308(2) 0.0390 Uani
N7 N 0.2579(3) 0.4633(6) 0.1725(2) 0.0317 Uani
N8 N 0.0654(4) 0.5761(8) 0.5352(2) 0.0483 Uani
N9 N 0.2108(6) 0.5748(8) 0.3438(3) 0.0713 Uani
N10 N 0.0643(3) -0.0081(8) 0.4224(3) 0.0487 Uani
N11 N 0.1357(4) 0.4709(7) 0.4386(2) 0.0400 Uani
N12 N 0.1367(4) 0.3256(7) 0.4109(2) 0.0470 Uani
N13 N 0.1011(4) 0.3285(7) 0.4579(2) 0.0417 Uani
Zn2B Zn 0.03271(6) -0.14312(11) 0.41689(5) 0.0607 Uani
Zn3A Zn 0.05103(5) 0.64619(11) 0.57401(3) 0.0442 Uani
N8A N 0.4346(4) 0.4239(8) 0.0352(2) 0.0483 Uani
N10B N -0.0643(3) 0.4919(8) 0.0776(3) 0.0487 Uani
loop_
_atom_site_aniso_label
_atom_site_aniso_U_11
_atom_site_aniso_U_22
_atom_site_aniso_U_33
_atom_site_aniso_U_23
_atom_site_aniso_U_13
_atom_site_aniso_U_12
C1 0.31(3) 0.27(3) 0.055(14) 0.006(18) 0.030(19) 0.09(3)
C2 0.26(3) 0.23(3) 0.100(18) 0.00(2) -0.04(2) 0.08(3)
C3 0.23(3) 0.26(3) 0.12(2) -0.10(2) -0.04(2) 0.07(3)
C4 0.17(2) 0.25(3) 0.15(2) -0.10(2) -0.068(18) 0.07(2)
C5 0.19(3) 0.25(3) 0.17(2) -0.04(2) -0.03(2) 0.09(3)
C6 0.26(3) 0.26(3) 0.14(2) -0.03(2) -0.01(2) 0.09(3)
C7 0.146(18) 0.116(17) 0.105(15) 0.023(14) 0.004(14) 0.027(14)
C8 0.147(19) 0.097(15) 0.120(17) 0.003(13) 0.026(16) 0.006(14)
C9 0.16(2) 0.109(16) 0.132(18) 0.015(14) 0.066(17) 0.029(15)
C10 0.16(2) 0.113(18) 0.15(2) -0.015(16) -0.005(18) 0.030(16)
C11 0.129(18) 0.15(2) 0.142(19) 0.017(17) -0.033(17) -0.022(16)
C12 0.124(15) 0.086(13) 0.088(13) -0.013(10) 0.011(12) 0.011(12)
C13 0.24(3) 0.34(5) 0.50(5) -0.04(4) 0.06(3) 0.11(4)
C14 0.21(3) 0.34(5) 0.49(5) -0.07(4) 0.07(3) 0.12(4)
C15 0.17(2) 0.27(4) 0.47(5) -0.02(4) 0.06(3) 0.12(3)
C16 0.17(3) 0.29(4) 0.45(5) -0.04(4) 0.05(3) 0.05(3)
C17 0.15(2) 0.26(4) 0.45(5) -0.04(4) 0.11(3) 0.07(3)
C18 0.17(3) 0.31(5) 0.46(5) -0.06(4) 0.07(3) 0.12(3)
C19 0.075(9) 0.033(6) 0.079(9) 0.017(6) 0.018(7) -0.006(6)
C20 0.091(10) 0.046(7) 0.072(9) 0.026(7) 0.024(8) 0.005(7)
C21 0.071(9) 0.043(7) 0.113(11) 0.013(8) -0.004(9) -0.012(7)
C22 0.070(9) 0.057(8) 0.071(9) 0.006(7) 0.009(7) 0.007(7)
C23 0.086(10) 0.044(7) 0.076(9) 0.004(7) 0.014(8) 0.010(7)
C24 0.082(9) 0.028(6) 0.081(9) 0.005(6) 0.002(8) 0.010(6)
C25 0.098(10) 0.027(6) 0.114(11) 0.015(7) -0.011(9) 0.003(7)
C26 0.112(12) 0.055(9) 0.122(12) 0.005(9) -0.041(10) 0.009(9)
C27 0.154(15) 0.083(12) 0.176(16) 0.021(12) -0.024(14) -0.001(12)
C28 0.131(14) 0.063(10) 0.156(15) 0.027(11) -0.027(12) 0.020(10)
C29 0.086(10) 0.042(8) 0.170(15) 0.025(10) -0.020(11) -0.011(8)
C30 0.073(9) 0.031(7) 0.139(12) 0.013(8) 0.002(9) 0.013(7)
C31 0.087(10) 0.041(8) 0.141(12) 0.019(9) 0.029(10) -0.005(7)
C32 0.111(12) 0.061(10) 0.163(15) 0.037(11) 0.032(12) 0.002(9)
C33 0.134(14) 0.094(12) 0.130(14) 0.026(11) 0.052(12) 0.005(11)
C34 0.137(13) 0.071(10) 0.109(12) 0.033(9) 0.044(11) 0.004(10)
C35 0.149(14) 0.067(10) 0.091(11) 0.016(9) 0.050(10) -0.007(10)
C36 0.092(10) 0.033(7) 0.091(10) 0.023(7) 0.009(8) 0.003(7)
C37 0.075(11) 0.067(11) 0.155(17) 0.026(11) -0.035(12) -0.011(9)
C38 0.117(15) 0.064(11) 0.147(17) 0.032(11) -0.064(13) -0.045(10)
C39 0.104(15) 0.087(14) 0.21(2) 0.016(15) -0.072(16) -0.037(12)
C40 0.117(18) 0.123(19) 0.22(2) 0.056(19) -0.044(18) -0.025(15)
C41 0.107(14) 0.067(11) 0.132(16) 0.015(11) -0.028(12) 0.004(10)
C42 0.123(16) 0.126(17) 0.162(18) 0.015(15) -0.055(15) -0.017(14)
C43 0.106(13) 0.048(8) 0.074(10) -0.006(7) -0.054(9) -0.003(8)
C44 0.098(13) 0.047(9) 0.179(18) 0.011(11) -0.079(14) -0.012(9)
C45 0.24(3) 0.090(16) 0.072(13) 0.016(12) -0.054(17) 0.003(18)
N1 0.134(13) 0.046(8) 0.124(13) -0.010(8) -0.077(11) 0.013(8)
O1 0.079(8) 0.051(6) 0.116(10) 0.010(6) -0.051(7) -0.012(5)
O2 0.140(14) 0.099(12) 0.22(2) -0.028(12) -0.124(15) 0.031(10)
Zn1 0.0996(14) 0.0372(9) 0.0430(9) -0.0050(7) 0.0221(9) -0.0024(8)
Zn2 0.0359(8) 0.0381(9) 0.1082(15) -0.0028(8) -0.0202(8) 0.0032(6)
Zn3 0.0497(8) 0.0439(8) 0.0389(8) 0.0030(6) 0.0081(6) 0.0092(6)
I1 0.1070(10) 0.0976(10) 0.0677(8) -0.0349(7) 0.0014(7) -0.0221(7)
I2 0.1357(12) 0.0369(6) 0.0781(8) -0.0025(5) 0.0254(7) 0.0076(6)
I3 0.0536(7) 0.0746(9) 0.223(2) 0.0506(10) 0.0024(9) -0.0101(6)
I4 0.0682(7) 0.0670(7) 0.1267(11) -0.0458(7) -0.0369(7) 0.0167(5)
I5 0.0415(5) 0.0844(8) 0.0564(6) -0.0011(5) 0.0057(4) 0.0021(4)
I6 0.1041(9) 0.0426(6) 0.0875(9) 0.0007(5) 0.0160(7) 0.0190(5)
C46 0.047(7) 0.040(7) 0.055(8) -0.009(6) -0.004(6) -0.007(6)
C47 0.046(7) 0.031(6) 0.039(6) -0.003(5) 0.008(5) -0.002(5)
C48 0.042(6) 0.024(5) 0.046(7) 0.007(5) -0.006(5) -0.003(5)
C49 0.046(7) 0.038(7) 0.072(9) 0.003(6) 0.024(7) -0.003(6)
C50 0.066(9) 0.053(8) 0.044(8) 0.007(6) 0.008(7) 0.000(7)
C51 0.025(6) 0.039(7) 0.091(11) 0.011(7) -0.002(6) 0.002(5)
C52 0.044(7) 0.036(7) 0.064(8) 0.000(6) 0.001(6) -0.003(5)
C53 0.022(5) 0.018(5) 0.078(9) 0.004(5) -0.004(5) 0.007(4)
C54 0.033(6) 0.058(8) 0.064(9) 0.020(7) -0.004(6) -0.019(6)
C55 0.053(8) 0.046(8) 0.063(9) 0.008(6) -0.020(7) 0.003(6)
C56 0.057(8) 0.041(7) 0.026(6) -0.005(5) -0.006(5) -0.003(6)
C57 0.039(6) 0.029(6) 0.040(6) 0.011(5) -0.004(5) 0.003(5)
C58 0.026(5) 0.019(5) 0.045(6) -0.002(4) -0.003(4) 0.003(4)
C59 0.042(6) 0.018(5) 0.036(6) 0.007(4) -0.006(5) -0.007(4)
C60 0.032(6) 0.026(5) 0.039(6) 0.008(5) -0.002(5) -0.003(4)
C61 0.037(6) 0.018(5) 0.037(6) 0.001(4) 0.001(5) -0.002(4)
C62 0.032(6) 0.015(5) 0.064(8) 0.005(5) -0.004(5) 0.000(4)
C63 0.030(5) 0.014(5) 0.038(6) 0.004(4) 0.000(4) 0.002(4)
C64 0.085 0.057 0.044 0.011 0.007 -0.009
C65 0.074 0.038 0.058 0 0.002 -0.009
C66 0.044 0.05 0.026 -0.001 -0.01 -0.011
C67 0.087 0.046 0.032 0.005 -0.015 -0.004
C68 0.067 0.044 0.028 0.004 0.005 -0.005
C69 0.085 0.036 0.057 -0.002 0.024 0.003
C70 0.116 0.044 0.044 -0.003 0.034 0.006
C71 0.064 0.037 0.047 0.001 0.014 0.002
C72 0.151 0.032 0.055 -0.001 0.03 0.001
C73 0.138 0.036 0.056 -0.001 0.026 0.01
C74 0.087 0.038 0.052 0.007 -0.011 0
C75 0.089 0.046 0.051 0.012 -0.001 -0.005
C76 0.042 0.045 0.033 0.006 -0.004 -0.011
C77 0.05 0.045 0.053 -0.016 0.005 -0.006
C78 0.055 0.05 0.083 0.008 0.009 -0.021
C79 0.063 0.041 0.034 -0.002 -0.021 0
C80 0.045 0.045 0.032 -0.004 0.008 -0.004
C81 0.057 0.041 0.044 0.001 0.008 0.013
N2 0.063(7) 0.036(5) 0.031(5) -0.001(4) 0.018(5) 0.009(5)
N3 0.027(5) 0.035(6) 0.091(9) 0.017(6) -0.009(5) 0.001(4)
N4 0.043(5) 0.035(5) 0.020(4) -0.002(4) 0.001(4) 0.003(4)
N5 0.036(5) 0.015(4) 0.062(7) 0.011(4) -0.002(5) 0.004(4)
N6 0.031(5) 0.028(5) 0.058(6) 0.008(4) -0.014(4) 0.002(4)
N7 0.032(5) 0.025(5) 0.038(5) 0.002(4) -0.001(4) 0.002(4)
N8 0.059 0.04 0.046 -0.002 -0.022 0.003
N9 0.126 0.039 0.049 -0.005 0.046 -0.002
N10 0.028 0.05 0.068 0.012 -0.014 -0.01
N11 0.045 0.034 0.041 0.002 -0.002 0
N12 0.057 0.033 0.051 0.006 0.004 0.005
N13 0.056 0.034 0.035 0.01 0.004 -0.004
Zn2B 0.0359 0.0381 0.1082 0.0028 -0.0202 -0.0032
Zn3A 0.0497 0.0439 0.0389 -0.003 -0.0081 0.0092
N8A 0.059(7) 0.040(6) 0.046(6) 0.002(5) 0.022(5) 0.003(5)
N10B 0.028 0.05 0.068 -0.012 -0.014 0.01
loop_
_geom_bond_atom_site_label_1
_geom_bond_atom_site_label_2
_geom_bond_site_symmetry_1
_geom_bond_site_symmetry_2
C1 H1 1_555 1_555
H2 C1 1_555 1_555
C2 C1 1_555 1_555
H3 C2 1_555 1_555
H4 C2 1_555 1_555
C3 C2 1_555 1_555
H5 C3 1_555 1_555
H6 C3 1_555 1_555
C4 C3 1_555 1_555
H7 C4 1_555 1_555
H8 C4 1_555 1_555
C5 C4 1_555 1_555
H9 C5 1_555 1_555
H10 C5 1_555 1_555
C6 C1 1_555 1_555
H11 C6 1_555 1_555
H12 C6 1_555 1_555
C7 H13 1_555 1_555
H14 C7 1_555 1_555
C8 C7 1_555 1_555
H15 C8 1_555 1_555
H16 C8 1_555 1_555
C9 C8 1_555 1_555
H17 C9 1_555 1_555
H18 C9 1_555 1_555
C10 C9 1_555 1_555
H19 C10 1_555 1_555
H20 C10 1_555 1_555
C11 C10 1_555 1_555
H21 C11 1_555 1_555
H22 C11 1_555 1_555
C12 C7 1_555 1_555
H23 C12 1_555 1_555
H24 C12 1_555 1_555
C13 H25 1_555 1_555
H26 C13 1_555 1_555
C14 C13 1_555 1_555
H27 C14 1_555 1_555
H28 C14 1_555 1_555
C15 C14 1_555 1_555
H29 C15 1_555 1_555
H30 C15 1_555 1_555
C16 C15 1_555 1_555
H31 C16 1_555 1_555
H32 C16 1_555 1_555
C17 C16 1_555 1_555
H33 C17 1_555 1_555
H34 C17 1_555 1_555
C18 C13 1_555 1_555
H35 C18 1_555 1_555
H36 C18 1_555 1_555
C19 C20 1_555 1_555
C20 H37 1_555 1_555
C21 C20 1_555 1_555
C22 C21 1_555 1_555
H38 C22 1_555 1_555
C23 C22 1_555 1_555
H39 C23 1_555 1_555
C24 C19 1_555 1_555
C25 C24 1_555 1_555
C26 C25 1_555 1_555
H40 C26 1_555 1_555
C27 C26 1_555 1_555
H41 C27 1_555 1_555
C28 C27 1_555 1_555
H42 C28 1_555 1_555
C29 C28 1_555 1_555
H43 C29 1_555 1_555
C30 C25 1_555 1_555
C31 C30 1_555 1_555
C32 C31 1_555 1_555
H44 C32 1_555 1_555
C33 C32 1_555 1_555
H45 C33 1_555 1_555
C34 C33 1_555 1_555
H46 C34 1_555 1_555
C35 C34 1_555 1_555
H47 C35 1_555 1_555
C36 C19 1_555 1_555
C37 C21 1_555 1_555
H48 C37 1_555 1_555
C38 C37 1_555 1_555
H49 C38 1_555 1_555
C39 C38 1_555 1_555
H50 C39 1_555 1_555
C40 C39 1_555 1_555
H51 C40 1_555 1_555
H52 C40 1_555 1_555
C41 C37 1_555 1_555
H53 C41 1_555 1_555
C42 C40 1_555 1_555
H54 C42 1_555 1_555
C43 C41 1_555 1_555
C44 C42 1_555 1_555
C45 H55 1_555 1_555
H56 C45 1_555 1_555
H57 C45 1_555 1_555
N1 C43 1_555 1_555
O1 C43 1_555 1_555
O2 C44 1_555 1_555
Zn1 I1 1_555 1_555
Zn2 I3 1_555 1_555
Zn3 I5 1_555 1_555
I2 Zn1 1_555 1_555
I4 Zn2 1_555 1_555
I6 Zn3 1_555 1_555
C46 H58 1_555 1_555
C47 C46 1_555 1_555
H59 C47 1_555 1_555
C48 C47 1_555 1_555
C49 C48 1_555 1_555
H60 C49 1_555 1_555
C50 C49 1_555 1_555
H61 C50 1_555 1_555
C51 H62 1_555 1_555
C52 C51 1_555 1_555
H63 C52 1_555 1_555
C53 C52 1_555 1_555
C54 C53 1_555 1_555
H64 C54 1_555 1_555
C55 C54 1_555 1_555
H65 C55 1_555 1_555
C56 H66 1_555 1_555
C57 C56 1_555 1_555
H67 C57 1_555 1_555
C58 C57 1_555 1_555
C59 C58 1_555 1_555
H68 C59 1_555 1_555
C60 C59 1_555 1_555
H69 C60 1_555 1_555
C61 C48 1_555 1_555
C62 C53 1_555 1_555
C63 C58 1_555 1_555
C64 H70 1_555 1_555
C65 C64 1_555 1_555
H71 C65 1_555 1_555
C66 C65 1_555 1_555
C67 C66 1_555 1_555
H72 C67 1_555 1_555
C68 C67 1_555 1_555
H73 C68 1_555 1_555
C69 H74 1_555 1_555
C70 C69 1_555 1_555
H75 C70 1_555 1_555
C71 C70 1_555 1_555
C72 C71 1_555 1_555
H76 C72 1_555 1_555
C73 C72 1_555 1_555
H77 C73 1_555 1_555
C74 H78 1_555 1_555
C75 C74 1_555 1_555
H79 C75 1_555 1_555
C76 C75 1_555 1_555
C77 C76 1_555 1_555
H80 C77 1_555 1_555
C78 C77 1_555 1_555
H81 C78 1_555 1_555
C79 C66 1_555 1_555
C80 C71 1_555 1_555
C81 C76 1_555 1_555
N2 Zn1 1_555 1_555
N3 Zn2 1_555 1_555
N4 Zn3 1_555 1_555
N5 C61 1_555 1_555
N6 C62 1_555 1_555
N7 C61 1_555 1_555
N8 C64 1_555 1_555
N9 Zn1 1_555 1_555
N10 C74 1_555 1_555
N11 C79 1_555 1_555
N12 C80 1_555 1_555
N13 C79 1_555 1_555
Zn2B N10 1_555 1_555
Zn3A N8 1_555 1_555
N8A Zn3 1_555 1_555
N10B Zn2 1_555 1_555
C5 C6 1_555 1_555
C11 C12 1_555 1_555
C17 C18 1_555 1_555
C23 C24 1_555 1_555
C29 C30 1_555 1_555
C31 C36 1_555 1_555
C35 C36 1_555 1_555
C41 C42 1_555 1_555
C44 N1 1_555 1_555
C45 N1 1_555 1_555
C46 N2 1_555 1_555
C50 N2 1_555 1_555
C51 N3 1_555 1_555
C55 N3 1_555 1_555
C56 N4 1_555 1_555
C60 N4 1_555 1_555
C62 N5 1_555 1_555
C63 N6 1_555 1_555
C63 N7 1_555 1_555
C68 N8 1_555 1_555
C69 N9 1_555 1_555
C73 N9 1_555 1_555
C78 N10 1_555 1_555
C80 N11 1_555 1_555
C81 N12 1_555 1_555
C81 N13 1_555 1_555

#END
