
#######################################################################
#
#                 Cambridge Crystallographic Data Centre
#                                CCDC 
#
#######################################################################
#
# If this CIF has been generated from an entry in the Cambridge 
# Structural Database, then it will include bibliographic, chemical, 
# crystal, experimental, refinement or atomic coordinate data resulting 
# from the CCDC's data processing and validation procedures.
#
#######################################################################

data_ELELEN
_chemical_formula_moiety         'C195 H206 Cu21 Mo94 N172 O249'
_symmetry_cell_setting           triclinic
_symmetry_space_group_name_H-M   'P -1'
_symmetry_Int_Tables_number      2
_space_group_name_Hall           '-P 1'
loop_
_symmetry_equiv_pos_site_id
_symmetry_equiv_pos_as_xyz
1 x,y,z
2 -x,-y,-z
_cell_length_a                   12.481(3)
_cell_length_b                   12.862(4)
_cell_length_c                   13.332(4)
_cell_angle_alpha                100.001(2)
_cell_angle_beta                 105.253(2)
_cell_angle_gamma                111.736(3)
_cell_volume                     1828.14
loop_
_atom_site_label
_atom_site_type_symbol
_atom_site_fract_x
_atom_site_fract_y
_atom_site_fract_z
Mo1 Mo 0.48872(4) 0.62622(3) 0.57642(3)
Mo2 Mo 0.43940(4) 0.58942(4) 0.28269(3)
Mo3 Mo 0.26798(4) 1.31306(4) -0.44849(3)
Mo4 Mo 0.20027(4) 0.38954(4) 0.32256(4)
Cu1 Cu 0.5000 0.5000 0.0000
Cu2 Cu -0.0000 1.0000 -0.5000
O1 O 0.1053(3) 0.2484(4) 0.2500(3)
O2 O 0.1190(4) 0.4658(4) 0.2923(3)
O3 O 0.3135(3) 0.4350(3) 0.2499(3)
O4 O 0.1588(3) 1.1716(3) -0.5140(3)
O5 O 0.2041(3) 1.3958(3) -0.5332(3)
O6 O 0.3925(3) 0.5865(3) 0.4383(3)
O7 O 0.5913(3) 0.7132(3) 0.3860(3)
O8 O 0.2344(3) 1.3502(3) -0.3361(3)
O9 O 0.3596(3) 0.6666(3) 0.2476(3)
O10 O 0.4710(4) 0.7321(3) 0.6552(3)
O11 O 0.5568(3) 0.5002(3) 0.3764(3)
O12 O 0.4851(3) 0.5601(3) 0.1753(3)
O13 O 0.6464(3) 0.6761(3) 0.5874(3)
N1 N -0.0958(5) 1.1088(4) -0.2331(4)
N2 N 0.7820(5) 0.8402(4) 0.1272(4)
N3 N 0.7713(4) 0.8154(4) 0.0218(4)
N4 N 0.3075(4) 0.9985(5) -0.2930(5)
N5 N 0.7392(5) 0.3456(5) 0.0805(4)
N6 N 0.6117(4) 0.4294(3) 0.0629(3)
N7 N 0.1313(4) 0.9768(3) -0.3942(3)
N8 N -0.0684(4) 1.2039(3) -0.2699(4)
N9 N 0.2233(5) 0.9180(5) -0.2643(5)
N10 N 0.6447(4) 0.6553(3) 0.0346(3)
N11 N 0.7192(4) 0.3685(4) 0.1739(3)
N12 N -0.0321(4) 1.0827(3) -0.3744(3)
C1 C 0.4926(7) 0.9888(9) -0.1814(9)
H1 H 0.4477 0.9554 -0.1367
H2 H 0.4778 0.9236 -0.2408
C2 C 0.6257(6) 1.0432(8) -0.1144(7)
H3 H 0.6403 1.0942 -0.0445
H4 H 0.6727 1.0908 -0.1507
C3 C 0.6897(5) 0.7062(5) -0.0317(5)
H5 H 0.6672 0.6704 -0.1057
C4 C 0.4399(8) 1.0537(9) -0.2261(10)
H6 H 0.4542 1.1186 -0.1667
H7 H 0.4848 1.0873 -0.2707
C5 C 0.1199(5) 0.9083(5) -0.3283(5)
H8 H 0.0436 0.8579 -0.3287
C6 C 0.9473(5) 0.4426(5) 0.4605(4)
H9 H 0.9793 0.3862 0.4441
H10 H 0.8878 0.4111 0.4945
C7 C 0.7827(5) 0.3456(5) 0.2714(4)
H11 H 0.7235 0.3064 0.3031
H12 H 0.8190 0.2942 0.2509
C8 C 0.7067(6) 0.7419(5) 0.1316(5)
H13 H 0.6956 0.7311 0.1959
C9 C 0.2516(5) 1.0324(5) -0.3686(5)
H14 H 0.2908 1.0875 -0.3997
C10 C 0.6667(6) 0.9546(7) -0.0973(7)
H15 H 0.6136 0.9032 -0.0674
H16 H 0.6565 0.9077 -0.1674
C11 C -0.0114(6) 1.3655(5) -0.1033(5)
H17 H -0.0297 1.3112 -0.0611
H18 H 0.0750 1.3928 -0.0948
C12 C 0.6728(6) 0.3826(6) 0.0164(5)
H19 H 0.6683 0.3770 -0.0553
C13 C 0.8411(6) 0.9072(5) -0.0204(6)
H20 H 0.9279 0.9429 0.0249
H21 H 0.8331 0.8706 -0.0937
C14 C -0.0350(6) 1.4697(5) -0.0604(4)
H22 H -0.1227 1.4427 -0.0749
H23 H -0.0112 1.5260 -0.0997
C15 C -0.0719(6) 1.0374(5) -0.2990(5)
H24 H -0.0814 0.9635 -0.2940
C16 C -0.0316(4) 1.1862(4) -0.3522(4)
H25 H -0.0082 1.2401 -0.3898
C17 C 0.7983(5) 1.0007(5) -0.0228(5)
H26 H 0.8063 1.0376 0.0505
H27 H 0.8510 1.0604 -0.0464
C18 C 0.6432(5) 0.4176(5) 0.1626(4)
H28 H 0.6153 0.4410 0.2165
C19 C 0.8828(5) 0.4597(5) 0.3546(4)
H29 H 0.9437 0.4963 0.3234
H30 H 0.8466 0.5125 0.3709
C20 C -0.0903(5) 1.3034(5) -0.2213(5)
H31 H -0.0746 1.3594 -0.2621
H32 H -0.1765 1.2743 -0.2286
C14A C 0.0350(6) 1.5303(5) 0.0604(4)
C11A C 0.0114(6) 1.6345(5) 0.1033(5)
C20A C 0.0903(5) 1.6966(5) 0.2213(5)
N8A N 0.0684(4) 1.7961(3) 0.2699(4)
N1A N 0.0958(5) 1.8912(4) 0.2331(4)
C15A C 0.0719(6) 1.9626(5) 0.2990(5)
N12A N 0.0321(4) 1.9173(3) 0.3744(3)
C16A C 0.0316(4) 1.8138(4) 0.3522(4)
H25A H 0.0082 1.7599 0.3898
H24A H 0.0814 2.0365 0.2940
H31A H 0.0746 1.6406 0.2621
H32A H 0.1765 1.7257 0.2286
H17A H 0.0297 1.6888 0.0611
H18A H -0.0750 1.6072 0.0948
H22A H 0.1227 1.5573 0.0749
H23A H 0.0112 1.4740 0.0997
C6A C 1.0527(5) 0.5574(5) 0.5395(4)
C19A C 1.1172(5) 0.5403(5) 0.6454(4)
C7A C 1.2173(5) 0.6544(5) 0.7286(4)
N11A N 1.2808(4) 0.6315(4) 0.8261(3)
N5A N 1.2608(5) 0.6544(5) 0.9195(4)
C12A C 1.3272(6) 0.6174(6) 0.9836(5)
N6A N 1.3883(4) 0.5706(3) 0.9371(3)
C18A C 1.3568(5) 0.5824(5) 0.8374(4)
H28A H 1.3847 0.5590 0.7835
H19A H 1.3317 0.6230 1.0553
H11A H 1.2765 0.6936 0.6969
H12A H 1.1810 0.7058 0.7491
H29A H 1.0563 0.5037 0.6766
H30A H 1.1534 0.4875 0.6291
H9A H 1.0207 0.6138 0.5559
H10A H 1.1122 0.5889 0.5055
O12A O 0.5149(3) 0.4399(3) -0.1753(3)
N2A N 0.2180(5) 0.1598(4) -0.1272(4)
N3A N 0.2287(4) 0.1846(4) -0.0218(4)
N4A N 0.6925(4) 0.0015(5) 0.2930(5)
N7A N 0.8687(4) 0.0232(3) 0.3942(3)
N9A N 0.7767(5) 0.0820(5) 0.2643(5)
N10A N 0.3553(4) 0.3447(3) -0.0346(3)
C1A C 0.5074(7) 0.0112(9) 0.1814(9)
H1A H 0.5523 0.0446 0.1367
H2A H 0.5222 0.0764 0.2408
C2A C 0.3743(6) -0.0432(8) 0.1144(7)
H3A H 0.3597 -0.0942 0.0445
H4A H 0.3273 -0.0908 0.1507
C3A C 0.3103(5) 0.2938(5) 0.0317(5)
H5A H 0.3328 0.3296 0.1057
C4A C 0.5601(8) -0.0537(9) 0.2261(10)
H6A H 0.5458 -0.1186 0.1667
H7A H 0.5152 -0.0873 0.2707
C5A C 0.8801(5) 0.0917(5) 0.3283(5)
H8A H 0.9564 0.1421 0.3287
C8A C 0.2933(6) 0.2581(5) -0.1316(5)
H13A H 0.3044 0.2689 -0.1959
C9A C 0.7484(5) -0.0324(5) 0.3686(5)
H14A H 0.7092 -0.0875 0.3997
C10A C 0.3333(6) 0.0454(7) 0.0973(7)
H15A H 0.3864 0.0968 0.0674
H16A H 0.3435 0.0923 0.1674
C13A C 0.1589(6) 0.0928(5) 0.0204(6)
H20A H 0.0721 0.0571 -0.0249
H21A H 0.1669 0.1294 0.0937
C17A C 0.2017(5) -0.0007(5) 0.0228(5)
H26A H 0.1937 -0.0376 -0.0505
H27A H 0.1490 -0.0604 0.0464
Mo2A Mo 0.56060(4) 0.41058(4) -0.28269(3)
O4A O -0.1588(3) 0.8284(3) -0.4860(3)
O3A O 0.6865(3) 0.5650(3) -0.2499(3)
O6A O 0.6075(3) 0.4135(3) -0.4383(3)
O7A O 0.4087(3) 0.2868(3) -0.3860(3)
O9A O 0.6404(3) 0.3334(3) -0.2476(3)
O11A O 0.4432(3) 0.4998(3) -0.3764(3)
Mo1A Mo 0.51128(4) 0.37378(3) -0.57642(3)
Mo3A Mo -0.26798(4) 0.68694(4) -0.55151(3)
Mo4A Mo 0.79973(4) 0.61046(4) -0.32256(4)
O13A O 0.3536(3) 1.3239(3) -0.5874(3)
O5_2 O 0.2041(3) 0.3958(3) 0.4668(3)
O10A O 0.5290(4) 0.2679(3) -0.6552(3)
O8A O -0.2344(3) 0.6498(3) -0.6639(3)
O1A O 0.8947(3) 0.7516(4) -0.2500(3)
O2A O 0.8810(4) 0.5342(4) -0.2923(3)
O11A_2 O 0.4432(3) 0.4998(3) 0.6236(3)
O7A_2 O 0.4087(3) 1.2868(3) -0.3860(3)
O11A_3 O 0.4432(3) 1.4998(3) -0.3764(3)
O13A_2 O 0.3536(3) 0.3239(3) 0.4126(3)
N6A_2 N 0.3883(4) 0.5706(3) -0.0629(3)
N7A_2 N -0.1313(4) 1.0232(3) -0.6058(3)
N12A_2 N 0.0321(4) 0.9173(3) -0.6256(3)
Mo4_2 Mo 0.20027(4) 1.38954(4) -0.67744(4)
Mo3A_2 Mo 0.73202(4) 0.68694(4) 0.44849(3)
Mo1A_2 Mo 0.51128(4) 0.37378(3) 0.42358(3)
Mo4A_2 Mo 0.79973(4) 0.61046(4) 0.67744(4)
Cu2_2 Cu -0.0000 2.0000 0.5000
Cu1_2 Cu 1.5000 0.5000 1.0000
Cu2_3 Cu 1.0000 0.0000 0.5000
Mo3_2 Mo 0.26798(4) 0.31306(4) -0.44849(3)
Mo1_2 Mo 0.48872(4) 0.62622(3) -0.42358(3)
O11_2 O 0.5568(3) 0.5002(3) -0.6236(3)
O13A_3 O 0.3536(3) 0.3239(3) -0.5874(3)
O7_2 O -0.4087(3) 0.7132(3) -0.6140(3)
O11_3 O -0.4432(3) 0.5002(3) -0.6236(3)
O5A O -0.2041(3) 0.6042(3) -0.4668(3)
O13_2 O -0.3536(3) 0.6761(3) -0.4126(3)
O5A_2 O 0.7959(3) 0.6042(3) -0.4668(3)
O13_3 O 0.6464(3) 0.6761(3) -0.4126(3)
Mo1A_3 Mo 0.51128(4) 1.37378(3) -0.57642(3)
Mo3_3 Mo 0.26798(4) 0.31306(4) 0.55151(3)
Mo2A_2 Mo 0.56060(4) 0.41058(4) 0.71731(3)
Mo2A_3 Mo 0.56060(4) 1.41058(4) -0.28269(3)
Mo1_3 Mo 0.48872(4) 1.62622(3) -0.42358(3)
C12A_2 C 0.3272(6) 0.6174(6) -0.0164(5)
C18A_2 C 0.3568(5) 0.5824(5) -0.1626(4)
C5A_2 C -0.1199(5) 1.0917(5) -0.6717(5)
C9A_2 C -0.2516(5) 0.9676(5) -0.6314(5)
C15A_2 C 0.0719(6) 0.9626(5) -0.7010(5)
C16A_2 C 0.0316(4) 0.8138(4) -0.6478(4)
O1_2 O 0.1053(3) 1.2484(4) -0.7500(3)
O2_2 O 0.1190(4) 1.4658(4) -0.7077(3)
O3_2 O 0.3135(3) 1.4350(3) -0.7501(3)
O4A_2 O 0.8412(3) 0.8284(3) 0.5140(3)
O5A_3 O 0.7959(3) 0.6042(3) 0.5332(3)
O8A_2 O 0.7656(3) 0.6498(3) 0.3361(3)
O6A_2 O 0.6075(3) 0.4135(3) 0.5617(3)
O10A_2 O 0.5290(4) 0.2679(3) 0.3448(3)
O1A_2 O 0.8947(3) 0.7516(4) 0.7500(3)
O2A_2 O 0.8810(4) 0.5342(4) 0.7077(3)
O3A_2 O 0.6865(3) 0.5650(3) 0.7501(3)
O4_2 O 0.1588(3) 2.1716(3) 0.4860(3)
O4A_3 O -0.1588(3) 1.8284(3) 0.5140(3)
N7_2 N 0.1313(4) 1.9768(3) 0.6058(3)
N7A_3 N -0.1313(4) 2.0232(3) 0.3942(3)
N12_2 N -0.0321(4) 2.0827(3) 0.6256(3)
O12_2 O 1.4851(3) 0.5601(3) 1.1753(3)
O12A_2 O 1.5149(3) 0.4399(3) 0.8247(3)
N6_2 N 1.6117(4) 0.4294(3) 1.0629(3)
N10_2 N 1.6447(4) 0.6553(3) 1.0346(3)
N10A_2 N 1.3553(4) 0.3447(3) 0.9654(3)
O4_3 O 1.1588(3) 0.1716(3) 0.4860(3)
O4A_4 O 0.8412(3) -0.1716(3) 0.5140(3)
N7_3 N 1.1313(4) -0.0232(3) 0.6058(3)
N12_3 N 0.9679(4) 0.0827(3) 0.6256(3)
N12A_3 N 1.0321(4) -0.0827(3) 0.3744(3)
O4_4 O 0.1588(3) 0.1716(3) -0.5140(3)
O5_3 O 0.2041(3) 0.3958(3) -0.5332(3)
O8_2 O 0.2344(3) 0.3502(3) -0.3361(3)
O6_2 O 0.3925(3) 0.5865(3) -0.5617(3)
O10_2 O 0.4710(4) 0.7321(3) -0.3448(3)
Mo2_2 Mo 0.43940(4) 0.58942(4) -0.71731(3)
Mo3A_3 Mo 0.73202(4) 0.68694(4) -0.55151(3)
Mo4_3 Mo 0.20027(4) 0.38954(4) -0.67744(4)
Mo2_3 Mo -0.56060(4) 0.58942(4) -0.71731(3)
Mo1A_4 Mo -0.48872(4) 0.37378(3) -0.57642(3)
Mo4A_3 Mo -0.20027(4) 0.61046(4) -0.32256(4)
Mo1_4 Mo -0.51128(4) 0.62622(3) -0.42358(3)
O6A_3 O 0.6075(3) 1.4135(3) -0.4383(3)
O10A_3 O 0.5290(4) 1.2679(3) -0.6552(3)
O11_4 O 0.5568(3) 1.5002(3) -0.6236(3)
O4_5 O 0.1588(3) 0.1716(3) 0.4860(3)
O7A_3 O 0.4087(3) 0.2868(3) 0.6140(3)
O8_3 O 0.2344(3) 0.3502(3) 0.6639(3)
O9A_2 O 0.6404(3) 0.3334(3) 0.7524(3)
O12A_3 O 0.5149(3) 0.4399(3) 0.8247(3)
O3A_3 O 0.6865(3) 1.5650(3) -0.2499(3)
O9A_3 O 0.6404(3) 1.3334(3) -0.2476(3)
O12A_4 O 0.5149(3) 1.4399(3) -0.1753(3)
O6_3 O 0.3925(3) 1.5865(3) -0.5617(3)
O10_3 O 0.4710(4) 1.7321(3) -0.3448(3)
O13_4 O 0.6464(3) 1.6761(3) -0.4126(3)
N5A_2 N 0.2608(5) 0.6544(5) -0.0805(4)
H19A_2 H 0.3317 0.6230 0.0553
N11A_2 N 0.2808(4) 0.6315(4) -0.1739(3)
H28A_2 H 0.3847 0.5590 -0.2165
N9A_2 N -0.2233(5) 1.0820(5) -0.7357(5)
H8A_2 H -0.0436 1.1421 -0.6713
N4A_2 N -0.3075(4) 1.0015(5) -0.7070(5)
H14A_2 H -0.2908 0.9125 -0.6003
N1A_2 N 0.0958(5) 0.8912(4) -0.7669(4)
H24A_2 H 0.0814 1.0365 -0.7060
N8A_2 N 0.0684(4) 0.7961(3) -0.7301(4)
H25A_2 H 0.0082 0.7599 -0.6102
Mo2_4 Mo 0.43940(4) 1.58942(4) -0.71731(3)
Cu2_4 Cu 1.0000 1.0000 0.5000
Mo3_4 Mo 0.26798(4) 2.31306(4) 0.55151(3)
Mo3A_4 Mo -0.26798(4) 1.68694(4) 0.44849(3)
C5_2 C 0.1199(5) 1.9083(5) 0.6717(5)
C9_2 C 0.2516(5) 2.0324(5) 0.6314(5)
C5A_3 C -0.1199(5) 2.0917(5) 0.3283(5)
C9A_3 C -0.2516(5) 1.9676(5) 0.3686(5)
C15_2 C -0.0719(6) 2.0374(5) 0.7010(5)
C16_2 C -0.0316(4) 2.1862(4) 0.6478(4)
Mo2_5 Mo 1.43940(4) 0.58942(4) 1.28269(3)
Mo2A_4 Mo 1.56060(4) 0.41058(4) 0.71731(3)
C12_2 C 1.6728(6) 0.3826(6) 1.0164(5)
C18_2 C 1.6432(5) 0.4176(5) 1.1626(4)
C3_2 C 1.6897(5) 0.7062(5) 0.9683(5)
C8_2 C 1.7067(6) 0.7419(5) 1.1316(5)
C3A_2 C 1.3103(5) 0.2938(5) 1.0317(5)
C8A_2 C 1.2933(6) 0.2581(5) 0.8684(5)
Mo3_5 Mo 1.26798(4) 0.31306(4) 0.55151(3)
Mo3A_5 Mo 0.73202(4) -0.31306(4) 0.44849(3)
C5_3 C 1.1199(5) -0.0917(5) 0.6717(5)
C9_3 C 1.2516(5) 0.0324(5) 0.6314(5)
C15_3 C 0.9281(6) 0.0374(5) 0.7010(5)
C16_3 C 0.9684(4) 0.1862(4) 0.6478(4)
C15A_3 C 1.0719(6) -0.0374(5) 0.2990(5)
C16A_3 C 1.0316(4) -0.1862(4) 0.3522(4)
Cu2_5 Cu 0.0000 0.0000 -0.5000
O3_3 O 0.3135(3) 0.4350(3) -0.7501(3)
O7_3 O 0.5913(3) 0.7132(3) -0.6140(3)
O9_2 O 0.3596(3) 0.6666(3) -0.7524(3)
O12_3 O 0.4851(3) 0.5601(3) -0.8247(3)
O4A_5 O 0.8412(3) 0.8284(3) -0.4860(3)
O8A_3 O 0.7656(3) 0.6498(3) -0.6639(3)
O1_3 O 0.1053(3) 0.2484(4) -0.7500(3)
O2_3 O 0.1190(4) 0.4658(4) -0.7077(3)
O3_4 O -0.6865(3) 0.4350(3) -0.7501(3)
O6_4 O -0.6075(3) 0.5865(3) -0.5617(3)
O9_3 O -0.6404(3) 0.6666(3) -0.7524(3)
O12_4 O -0.5149(3) 0.5601(3) -0.8247(3)
O6A_4 O -0.3925(3) 0.4135(3) -0.4383(3)
O10A_4 O -0.4710(4) 0.2679(3) -0.6552(3)
O13A_4 O -0.6464(3) 0.3239(3) -0.5874(3)
O1A_3 O -0.1053(3) 0.7516(4) -0.2500(3)
O2A_3 O -0.1190(4) 0.5342(4) -0.2923(3)
O3A_4 O -0.3135(3) 0.5650(3) -0.2499(3)
O10_4 O -0.5290(4) 0.7321(3) -0.3448(3)
O11A_4 O -0.5568(3) 0.4998(3) -0.3764(3)
Mo3A_6 Mo 0.73202(4) 1.68694(4) -0.55151(3)
Cu2_6 Cu 0.0000 0.0000 0.5000
Cu1_3 Cu 0.5000 0.5000 1.0000
Mo4A_4 Mo 0.79973(4) 1.61046(4) -0.32256(4)
Cu1_4 Cu 0.5000 1.5000 0.0000
C7A_2 C 0.2173(5) 0.6544(5) -0.2714(4)
C4A_2 C -0.4399(8) 0.9463(9) -0.7739(10)
C20A_2 C 0.0903(5) 0.6966(5) -0.7787(5)
O7_4 O 0.5913(3) 1.7132(3) -0.6140(3)
O9_4 O 0.3596(3) 1.6666(3) -0.7524(3)
O12_5 O 0.4851(3) 1.5601(3) -0.8247(3)
O4_6 O 1.1588(3) 1.1716(3) 0.4860(3)
N7_4 N 1.1313(4) 0.9768(3) 0.6058(3)
N7A_4 N 0.8687(4) 1.0232(3) 0.3942(3)
N12_4 N 0.9679(4) 1.0827(3) 0.6256(3)
N12A_4 N 1.0321(4) 0.9173(3) 0.3744(3)
O5_4 O 0.2041(3) 2.3958(3) 0.4668(3)
O7A_4 O 0.4087(3) 2.2868(3) 0.6140(3)
O8_4 O 0.2344(3) 2.3502(3) 0.6639(3)
O11A_5 O 0.4432(3) 2.4998(3) 0.6236(3)
O13A_5 O 0.3536(3) 2.3239(3) 0.4126(3)
O5A_4 O -0.2041(3) 1.6042(3) 0.5332(3)
O7_5 O -0.4087(3) 1.7132(3) 0.3860(3)
O8A_4 O -0.2344(3) 1.6498(3) 0.3361(3)
O11_5 O -0.4432(3) 1.5002(3) 0.3764(3)
O13_5 O -0.3536(3) 1.6761(3) 0.5874(3)
N9_2 N 0.2233(5) 1.9180(5) 0.7357(5)
H8_2 H 0.0436 1.8579 0.6713
N4_2 N 0.3075(4) 1.9985(5) 0.7070(5)
H14_2 H 0.2908 2.0875 0.6003
N9A_3 N -0.2233(5) 2.0820(5) 0.2643(5)
H8A_3 H -0.0436 2.1421 0.3287
N4A_3 N -0.3075(4) 2.0015(5) 0.2930(5)
H14A_3 H -0.2908 1.9125 0.3997
N1_2 N -0.0958(5) 2.1088(4) 0.7669(4)
H24_2 H -0.0814 1.9635 0.7060
N8_2 N -0.0684(4) 2.2039(3) 0.7301(4)
H25_2 H -0.0082 2.2401 0.6102
O3_5 O 1.3135(3) 0.4350(3) 1.2499(3)
O6_5 O 1.3925(3) 0.5865(3) 1.4383(3)
O7_6 O 1.5913(3) 0.7132(3) 1.3860(3)
O9_5 O 1.3596(3) 0.6666(3) 1.2476(3)
O11_6 O 1.5568(3) 0.5002(3) 1.3764(3)
O3A_5 O 1.6865(3) 0.5650(3) 0.7501(3)
O6A_5 O 1.6075(3) 0.4135(3) 0.5617(3)
O7A_5 O 1.4087(3) 0.2868(3) 0.6140(3)
O9A_4 O 1.6404(3) 0.3334(3) 0.7524(3)
O11A_6 O 1.4432(3) 0.4998(3) 0.6236(3)
N5_2 N 1.7392(5) 0.3456(5) 1.0805(4)
H19_2 H 1.6683 0.3770 0.9447
N11_2 N 1.7192(4) 0.3685(4) 1.1739(3)
H28_2 H 1.6153 0.4410 1.2165
N3_2 N 1.7713(4) 0.8154(4) 1.0218(4)
H5_2 H 1.6672 0.6704 0.8943
N2_2 N 1.7820(5) 0.8402(4) 1.1272(4)
H13_2 H 1.6956 0.7311 1.1959
N3A_2 N 1.2287(4) 0.1846(4) 0.9782(4)
H5A_2 H 1.3328 0.3296 1.1057
N2A_2 N 1.2180(5) 0.1598(4) 0.8728(4)
H13A_2 H 1.3044 0.2689 0.8041
O5_5 O 1.2041(3) 0.3958(3) 0.4668(3)
O8_5 O 1.2344(3) 0.3502(3) 0.6639(3)
O13A_6 O 1.3536(3) 0.3239(3) 0.4126(3)
O5A_5 O 0.7959(3) -0.3958(3) 0.5332(3)
O7_7 O 0.5913(3) -0.2868(3) 0.3860(3)
O8A_5 O 0.7656(3) -0.3502(3) 0.3361(3)
O11_7 O 0.5568(3) -0.4998(3) 0.3764(3)
O13_6 O 0.6464(3) -0.3239(3) 0.5874(3)
N9_3 N 1.2233(5) -0.0820(5) 0.7357(5)
H8_3 H 1.0436 -0.1421 0.6713
N4_3 N 1.3075(4) -0.0015(5) 0.7070(5)
H14_3 H 1.2908 0.0875 0.6003
N1_3 N 0.9042(5) 0.1088(4) 0.7669(4)
H24_3 H 0.9186 -0.0365 0.7060
N8_3 N 0.9316(4) 0.2039(3) 0.7301(4)
H25_3 H 0.9918 0.2401 0.6102
N1A_3 N 1.0958(5) -0.1088(4) 0.2331(4)
H24A_3 H 1.0814 0.0365 0.2940
N8A_3 N 1.0684(4) -0.2039(3) 0.2699(4)
H25A_3 H 1.0082 -0.2401 0.3898
O4A_6 O -0.1588(3) -0.1716(3) -0.4860(3)
N7_5 N 0.1313(4) -0.0232(3) -0.3942(3)
N7A_5 N -0.1313(4) 0.0232(3) -0.6058(3)
N12_5 N -0.0321(4) 0.0827(3) -0.3744(3)
N12A_5 N 0.0321(4) -0.0827(3) -0.6256(3)
Cu1_5 Cu 0.5000 0.5000 -1.0000
Cu2_7 Cu 1.0000 1.0000 -0.5000
Mo4_4 Mo -0.79973(4) 0.38954(4) -0.67744(4)
Cu1_6 Cu -0.5000 0.5000 -1.0000
Mo2A_5 Mo -0.43940(4) 0.41058(4) -0.28269(3)
Mo3_6 Mo -0.73202(4) 0.31306(4) -0.44849(3)
O4A_7 O 0.8412(3) 1.8284(3) -0.4860(3)
O5A_6 O 0.7959(3) 1.6042(3) -0.4668(3)
O8A_6 O 0.7656(3) 1.6498(3) -0.6639(3)
O4A_8 O -0.1588(3) -0.1716(3) 0.5140(3)
N7_6 N 0.1313(4) -0.0232(3) 0.6058(3)
N7A_6 N -0.1313(4) 0.0232(3) 0.3942(3)
N12_6 N -0.0321(4) 0.0827(3) 0.6256(3)
N12A_6 N 0.0321(4) -0.0827(3) 0.3744(3)
O12_6 O 0.4851(3) 0.5601(3) 1.1753(3)
N6_3 N 0.6117(4) 0.4294(3) 1.0629(3)
N6A_3 N 0.3883(4) 0.5706(3) 0.9371(3)
N10_3 N 0.6447(4) 0.6553(3) 1.0346(3)
N10A_3 N 0.3553(4) 0.3447(3) 0.9654(3)
O1A_4 O 0.8947(3) 1.7516(4) -0.2500(3)
O2A_4 O 0.8810(4) 1.5342(4) -0.2923(3)
O12_7 O 0.4851(3) 1.5601(3) 0.1753(3)
N6_4 N 0.6117(4) 1.4294(3) 0.0629(3)
N6A_4 N 0.3883(4) 1.5706(3) -0.0629(3)
N10_4 N 0.6447(4) 1.6553(3) 0.0346(3)
N10A_4 N 0.3553(4) 1.3447(3) -0.0346(3)
H11A_2 H 0.2765 0.6936 -0.3031
H12A_2 H 0.1810 0.7058 -0.2509
C19A_2 C 0.1172(5) 0.5403(5) -0.3546(4)
C1A_2 C -0.4926(7) 1.0112(9) -0.8186(9)
H6A_2 H -0.4542 0.8814 -0.8333
H7A_2 H -0.4848 0.9127 -0.7293
C11A_2 C 0.0114(6) 0.6345(5) -0.8967(5)
H31A_2 H 0.0746 0.6406 -0.7379
H32A_2 H 0.1765 0.7257 -0.7714
Cu1_7 Cu 0.5000 1.5000 -1.0000
Mo3_7 Mo 1.26798(4) 1.31306(4) 0.55151(3)
C5_4 C 1.1199(5) 0.9083(5) 0.6717(5)
C9_4 C 1.2516(5) 1.0324(5) 0.6314(5)
C5A_4 C 0.8801(5) 1.0917(5) 0.3283(5)
C9A_4 C 0.7484(5) 0.9676(5) 0.3686(5)
C15_4 C 0.9281(6) 1.0374(5) 0.7010(5)
C16_4 C 0.9684(4) 1.1862(4) 0.6478(4)
C15A_4 C 1.0719(6) 0.9626(5) 0.2990(5)
C16A_4 C 1.0316(4) 0.8138(4) 0.3522(4)
Mo4_5 Mo 0.20027(4) 2.38954(4) 0.32256(4)
Mo2A_6 Mo 0.56060(4) 2.41058(4) 0.71731(3)
Mo1_5 Mo 0.48872(4) 2.62622(3) 0.57642(3)
Mo1A_5 Mo 0.51128(4) 2.37378(3) 0.42358(3)
Mo4A_5 Mo -0.20027(4) 1.61046(4) 0.67744(4)
Mo2_6 Mo -0.56060(4) 1.58942(4) 0.28269(3)
Mo1A_6 Mo -0.48872(4) 1.37378(3) 0.42358(3)
Mo1_6 Mo -0.51128(4) 1.62622(3) 0.57642(3)
C4_2 C 0.4399(8) 2.0537(9) 0.7739(10)
C4A_3 C -0.4399(8) 1.9463(9) 0.2261(10)
C20_2 C -0.0903(5) 2.3034(5) 0.7787(5)
Mo4_6 Mo 1.20027(4) 0.38954(4) 1.32256(4)
Mo1_7 Mo 1.48872(4) 0.62622(3) 1.57642(3)
Mo3A_7 Mo 1.73202(4) 0.68694(4) 1.44849(3)
Mo1A_7 Mo 1.51128(4) 0.37378(3) 1.42358(3)
Mo4A_6 Mo 1.79973(4) 0.61046(4) 0.67744(4)
Mo1A_8 Mo 1.51128(4) 0.37378(3) 0.42358(3)
Mo1_8 Mo 1.48872(4) 0.62622(3) 0.57642(3)
C7_2 C 1.7827(5) 0.3456(5) 1.2714(4)
C13_2 C 1.8411(6) 0.9072(5) 0.9796(6)
C13A_2 C 1.1589(6) 0.0928(5) 1.0204(6)
Mo4_7 Mo 1.20027(4) 0.38954(4) 0.32256(4)
Mo4A_7 Mo 0.79973(4) -0.38954(4) 0.67744(4)
Mo2_7 Mo 0.43940(4) -0.41058(4) 0.28269(3)
Mo1A_9 Mo 0.51128(4) -0.62622(3) 0.42358(3)
Mo1_9 Mo 0.48872(4) -0.37378(3) 0.57642(3)
C4_3 C 1.4399(8) 0.0537(9) 0.7739(10)
C20_3 C 0.9097(5) 0.3034(5) 0.7787(5)
C20A_3 C 1.0903(5) -0.3034(5) 0.2213(5)
Mo3A_8 Mo -0.26798(4) -0.31306(4) -0.55151(3)
C5_5 C 0.1199(5) -0.0917(5) -0.3283(5)
C9_5 C 0.2516(5) 0.0324(5) -0.3686(5)
C5A_5 C -0.1199(5) 0.0917(5) -0.6717(5)
C9A_5 C -0.2516(5) -0.0324(5) -0.6314(5)
C15_5 C -0.0719(6) 0.0374(5) -0.2990(5)
C16_5 C -0.0316(4) 0.1862(4) -0.3522(4)
C15A_5 C 0.0719(6) -0.0374(5) -0.7010(5)
C16A_5 C 0.0316(4) -0.1862(4) -0.6478(4)
O12A_5 O 0.5149(3) 0.4399(3) -1.1753(3)
N6_5 N 0.6117(4) 0.4294(3) -0.9371(3)
N6A_5 N 0.3883(4) 0.5706(3) -1.0629(3)
N10_5 N 0.6447(4) 0.6553(3) -0.9654(3)
N10A_5 N 0.3553(4) 0.3447(3) -1.0346(3)
O4_7 O 1.1588(3) 1.1716(3) -0.5140(3)
N7_7 N 1.1313(4) 0.9768(3) -0.3942(3)
N7A_7 N 0.8687(4) 1.0232(3) -0.6058(3)
N12_7 N 0.9679(4) 1.0827(3) -0.3744(3)
N12A_7 N 1.0321(4) 0.9173(3) -0.6256(3)
O1_4 O -0.8947(3) 0.2484(4) -0.7500(3)
O2_4 O -0.8810(4) 0.4658(4) -0.7077(3)
O5_6 O -0.7959(3) 0.3958(3) -0.5332(3)
O12A_6 O -0.4851(3) 0.4399(3) -1.1753(3)
N6_6 N -0.3883(4) 0.4294(3) -0.9371(3)
N6A_6 N -0.6117(4) 0.5706(3) -1.0629(3)
N10_6 N -0.3553(4) 0.6553(3) -0.9654(3)
N10A_6 N -0.6447(4) 0.3447(3) -1.0346(3)
O7A_6 O -0.5913(3) 0.2868(3) -0.3860(3)
O9A_5 O -0.3596(3) 0.3334(3) -0.2476(3)
O12A_7 O -0.4851(3) 0.4399(3) -0.1753(3)
O4_8 O -0.8412(3) 0.1716(3) -0.5140(3)
O8_6 O -0.7656(3) 0.3502(3) -0.3361(3)
Cu2_8 Cu 1.0000 2.0000 -0.5000
Mo3A_9 Mo -0.26798(4) -0.31306(4) 0.44849(3)
C5_6 C 0.1199(5) -0.0917(5) 0.6717(5)
C9_6 C 0.2516(5) 0.0324(5) 0.6314(5)
C5A_6 C -0.1199(5) 0.0917(5) 0.3283(5)
C9A_6 C -0.2516(5) -0.0324(5) 0.3686(5)
C15_6 C -0.0719(6) 0.0374(5) 0.7010(5)
C16_6 C -0.0316(4) 0.1862(4) 0.6478(4)
C15A_6 C 0.0719(6) -0.0374(5) 0.2990(5)
C16A_6 C 0.0316(4) -0.1862(4) 0.3522(4)
Mo2_8 Mo 0.43940(4) 0.58942(4) 1.28269(3)
C12_3 C 0.6728(6) 0.3826(6) 1.0164(5)
C18_3 C 0.6432(5) 0.4176(5) 1.1626(4)
C12A_3 C 0.3272(6) 0.6174(6) 0.9836(5)
C18A_3 C 0.3568(5) 0.5824(5) 0.8374(4)
C3_3 C 0.6897(5) 0.7062(5) 0.9683(5)
C8_3 C 0.7067(6) 0.7419(5) 1.1316(5)
C3A_3 C 0.3103(5) 0.2938(5) 1.0317(5)
C8A_3 C 0.2933(6) 0.2581(5) 0.8684(5)
Mo2_9 Mo 0.43940(4) 1.58942(4) 0.28269(3)
C12_4 C 0.6728(6) 1.3826(6) 0.0164(5)
C18_4 C 0.6432(5) 1.4176(5) 0.1626(4)
C12A_4 C 0.3272(6) 1.6174(6) -0.0164(5)
C18A_4 C 0.3568(5) 1.5824(5) -0.1626(4)
C3_4 C 0.6897(5) 1.7062(5) -0.0317(5)
C8_4 C 0.7067(6) 1.7419(5) 0.1316(5)
C3A_4 C 0.3103(5) 1.2938(5) 0.0317(5)
C8A_4 C 0.2933(6) 1.2581(5) -0.1316(5)
C6A_2 C 0.0527(5) 0.5574(5) -0.4605(4)
H29A_2 H 0.0563 0.5037 -0.3234
H30A_2 H 0.1534 0.4875 -0.3709
H1A_2 H -0.4477 1.0446 -0.8633
H2A_2 H -0.4778 1.0764 -0.7592
C2A_2 C -0.6257(6) 0.9568(8) -0.8856(7)
H17A_2 H 0.0297 0.6888 -0.9389
H18A_2 H -0.0750 0.6072 -0.9052
C14A_2 C 0.0350(6) 0.5303(5) -0.9396(4)
O12A_8 O 0.5149(3) 1.4399(3) -1.1753(3)
N6_7 N 0.6117(4) 1.4294(3) -0.9371(3)
N6A_7 N 0.3883(4) 1.5706(3) -1.0629(3)
N10_7 N 0.6447(4) 1.6553(3) -0.9654(3)
N10A_7 N 0.3553(4) 1.3447(3) -1.0346(3)
O5_7 O 1.2041(3) 1.3958(3) 0.4668(3)
O7A_7 O 1.4087(3) 1.2868(3) 0.6140(3)
O8_7 O 1.2344(3) 1.3502(3) 0.6639(3)
O11A_7 O 1.4432(3) 1.4998(3) 0.6236(3)
O13A_7 O 1.3536(3) 1.3239(3) 0.4126(3)
N9_4 N 1.2233(5) 0.9180(5) 0.7357(5)
H8_4 H 1.0436 0.8579 0.6713
N4_4 N 1.3075(4) 0.9985(5) 0.7070(5)
H14_4 H 1.2908 1.0875 0.6003
N9A_4 N 0.7767(5) 1.0820(5) 0.2643(5)
H8A_4 H 0.9564 1.1421 0.3287
N4A_4 N 0.6925(4) 1.0015(5) 0.2930(5)
H14A_4 H 0.7092 0.9125 0.3997
N1_4 N 0.9042(5) 1.1088(4) 0.7669(4)
H24_4 H 0.9186 0.9635 0.7060
N8_4 N 0.9316(4) 1.2039(3) 0.7301(4)
H25_4 H 0.9918 1.2401 0.6102
N1A_4 N 1.0958(5) 0.8912(4) 0.2331(4)
H24A_4 H 1.0814 1.0365 0.2940
N8A_4 N 1.0684(4) 0.7961(3) 0.2699(4)
H25A_4 H 1.0082 0.7599 0.3898
O1_5 O 0.1053(3) 2.2484(4) 0.2500(3)
O2_5 O 0.1190(4) 2.4658(4) 0.2923(3)
O3_6 O 0.3135(3) 2.4350(3) 0.2499(3)
O3A_6 O 0.6865(3) 2.5650(3) 0.7501(3)
O6A_6 O 0.6075(3) 2.4135(3) 0.5617(3)
O9A_6 O 0.6404(3) 2.3334(3) 0.7524(3)
O12A_9 O 0.5149(3) 2.4399(3) 0.8247(3)
O6_6 O 0.3925(3) 2.5865(3) 0.4383(3)
O10_5 O 0.4710(4) 2.7321(3) 0.6552(3)
O13_7 O 0.6464(3) 2.6761(3) 0.5874(3)
O10A_5 O 0.5290(4) 2.2679(3) 0.3448(3)
O11_8 O 0.5568(3) 2.5002(3) 0.3764(3)
O1A_5 O -0.1053(3) 1.7516(4) 0.7500(3)
O2A_5 O -0.1190(4) 1.5342(4) 0.7077(3)
O3A_7 O -0.3135(3) 1.5650(3) 0.7501(3)
O3_7 O -0.6865(3) 1.4350(3) 0.2499(3)
O6_7 O -0.6075(3) 1.5865(3) 0.4383(3)
O9_6 O -0.6404(3) 1.6666(3) 0.2476(3)
O12_8 O -0.5149(3) 1.5601(3) 0.1753(3)
O6A_7 O -0.3925(3) 1.4135(3) 0.5617(3)
O10A_6 O -0.4710(4) 1.2679(3) 0.3448(3)
O13A_8 O -0.6464(3) 1.3239(3) 0.4126(3)
O10_6 O -0.5290(4) 1.7321(3) 0.6552(3)
O11A_8 O -0.5568(3) 1.4998(3) 0.6236(3)
C1_2 C 0.4926(7) 1.9888(9) 0.8186(9)
H6_2 H 0.4542 2.1186 0.8333
H7_2 H 0.4848 2.0873 0.7293
C1A_3 C -0.4926(7) 2.0112(9) 0.1814(9)
H6A_3 H -0.4542 1.8814 0.1667
H7A_3 H -0.4848 1.9127 0.2707
C11_2 C -0.0114(6) 2.3655(5) 0.8967(5)
H31_2 H -0.0746 2.3594 0.7379
H32_2 H -0.1765 2.2743 0.7714
O1_6 O 1.1053(3) 0.2484(4) 1.2500(3)
O2_6 O 1.1190(4) 0.4658(4) 1.2923(3)
O5_8 O 1.2041(3) 0.3958(3) 1.4668(3)
O13A_9 O 1.3536(3) 0.3239(3) 1.4126(3)
O10_7 O 1.4710(4) 0.7321(3) 1.6552(3)
O11A_9 O 1.4432(3) 0.4998(3) 1.6236(3)
O13_8 O 1.6464(3) 0.6761(3) 1.5874(3)
O4A_9 O 1.8412(3) 0.8284(3) 1.5140(3)
O5A_7 O 1.7959(3) 0.6042(3) 1.5332(3)
O8A_7 O 1.7656(3) 0.6498(3) 1.3361(3)
O6A_8 O 1.6075(3) 0.4135(3) 1.5617(3)
O10A_7 O 1.5290(4) 0.2679(3) 1.3448(3)
O1A_6 O 1.8947(3) 0.7516(4) 0.7500(3)
O2A_6 O 1.8810(4) 0.5342(4) 0.7077(3)
O5A_8 O 1.7959(3) 0.6042(3) 0.5332(3)
O13_9 O 1.6464(3) 0.6761(3) 0.5874(3)
O10A_8 O 1.5290(4) 0.2679(3) 0.3448(3)
O11_9 O 1.5568(3) 0.5002(3) 0.3764(3)
O6_8 O 1.3925(3) 0.5865(3) 0.4383(3)
O10_8 O 1.4710(4) 0.7321(3) 0.6552(3)
H11_2 H 1.7235 0.3064 1.3031
H12_2 H 1.8190 0.2942 1.2509
C19_2 C 1.8828(5) 0.4597(5) 1.3546(4)
H20_2 H 1.9279 0.9429 1.0249
H21_2 H 1.8331 0.8706 0.9063
C17_2 C 1.7983(5) 1.0007(5) 0.9772(5)
H20A_2 H 1.0721 0.0571 0.9751
H21A_2 H 1.1669 0.1294 1.0937
C17A_2 C 1.2017(5) -0.0007(5) 1.0228(5)
O1_7 O 1.1053(3) 0.2484(4) 0.2500(3)
O2_7 O 1.1190(4) 0.4658(4) 0.2923(3)
O3_8 O 1.3135(3) 0.4350(3) 0.2499(3)
O1A_7 O 0.8947(3) -0.2484(4) 0.7500(3)
O2A_7 O 0.8810(4) -0.4658(4) 0.7077(3)
O3A_8 O 0.6865(3) -0.4350(3) 0.7501(3)
O3_9 O 0.3135(3) -0.5650(3) 0.2499(3)
O6_9 O 0.3925(3) -0.4135(3) 0.4383(3)
O9_7 O 0.3596(3) -0.3334(3) 0.2476(3)
O12_9 O 0.4851(3) -0.4399(3) 0.1753(3)
O6A_9 O 0.6075(3) -0.5865(3) 0.5617(3)
O10A_9 O 0.5290(4) -0.7321(3) 0.3448(3)
O13A_10 O 0.3536(3) -0.6761(3) 0.4126(3)
O10_9 O 0.4710(4) -0.2679(3) 0.6552(3)
O11A_10 O 0.4432(3) -0.5002(3) 0.6236(3)
C1_3 C 1.4926(7) -0.0112(9) 0.8186(9)
H6_3 H 1.4542 0.1186 0.8333
H7_3 H 1.4848 0.0873 0.7293
C11_3 C 0.9886(6) 0.3655(5) 0.8967(5)
H31_3 H 0.9254 0.3594 0.7379
H32_3 H 0.8235 0.2743 0.7714
C11A_3 C 1.0114(6) -0.3655(5) 0.1033(5)
H31A_3 H 1.0746 -0.3594 0.2621
H32A_3 H 1.1765 -0.2743 0.2286
O5A_9 O -0.2041(3) -0.3958(3) -0.4668(3)
O7_8 O -0.4087(3) -0.2868(3) -0.6140(3)
O8A_8 O -0.2344(3) -0.3502(3) -0.6639(3)
O11_10 O -0.4432(3) -0.4998(3) -0.6236(3)
O13_10 O -0.3536(3) -0.3239(3) -0.4126(3)
N9_5 N 0.2233(5) -0.0820(5) -0.2643(5)
H8_5 H 0.0436 -0.1421 -0.3287
N4_5 N 0.3075(4) -0.0015(5) -0.2930(5)
H14_5 H 0.2908 0.0875 -0.3997
N9A_5 N -0.2233(5) 0.0820(5) -0.7357(5)
H8A_5 H -0.0436 0.1421 -0.6713
N4A_5 N -0.3075(4) 0.0015(5) -0.7070(5)
H14A_5 H -0.2908 -0.0875 -0.6003
N1_5 N -0.0958(5) 0.1088(4) -0.2331(4)
H24_5 H -0.0814 -0.0365 -0.2940
N8_5 N -0.0684(4) 0.2039(3) -0.2699(4)
H25_5 H -0.0082 0.2401 -0.3898
N1A_5 N 0.0958(5) -0.1088(4) -0.7669(4)
H24A_5 H 0.0814 0.0365 -0.7060
N8A_5 N 0.0684(4) -0.2039(3) -0.7301(4)
H25A_5 H 0.0082 -0.2401 -0.6102
Mo2A_7 Mo 0.56060(4) 0.41058(4) -1.28269(3)
C12_5 C 0.6728(6) 0.3826(6) -0.9836(5)
C18_5 C 0.6432(5) 0.4176(5) -0.8374(4)
C12A_5 C 0.3272(6) 0.6174(6) -1.0164(5)
C18A_5 C 0.3568(5) 0.5824(5) -1.1626(4)
C3_5 C 0.6897(5) 0.7062(5) -1.0317(5)
C8_5 C 0.7067(6) 0.7419(5) -0.8684(5)
C3A_5 C 0.3103(5) 0.2938(5) -0.9683(5)
C8A_5 C 0.2933(6) 0.2581(5) -1.1316(5)
Mo3_8 Mo 1.26798(4) 1.31306(4) -0.44849(3)
C5_7 C 1.1199(5) 0.9083(5) -0.3283(5)
C9_7 C 1.2516(5) 1.0324(5) -0.3686(5)
C5A_7 C 0.8801(5) 1.0917(5) -0.6717(5)
C9A_7 C 0.7484(5) 0.9676(5) -0.6314(5)
C15_7 C 0.9281(6) 1.0374(5) -0.2990(5)
C16_7 C 0.9684(4) 1.1862(4) -0.3522(4)
C15A_7 C 1.0719(6) 0.9626(5) -0.7010(5)
C16A_7 C 1.0316(4) 0.8138(4) -0.6478(4)
Mo2A_8 Mo -0.43940(4) 0.41058(4) -1.28269(3)
C12_6 C -0.3272(6) 0.3826(6) -0.9836(5)
C18_6 C -0.3568(5) 0.4176(5) -0.8374(4)
C12A_6 C -0.6728(6) 0.6174(6) -1.0164(5)
C18A_6 C -0.6432(5) 0.5824(5) -1.1626(4)
C3_6 C -0.3103(5) 0.7062(5) -1.0317(5)
C8_6 C -0.2933(6) 0.7419(5) -0.8684(5)
C3A_6 C -0.6897(5) 0.2938(5) -0.9683(5)
C8A_6 C -0.7067(6) 0.2581(5) -1.1316(5)
Cu1_8 Cu -0.5000 0.5000 0.0000
Cu2_9 Cu -1.0000 0.0000 -0.5000
O4_9 O 1.1588(3) 2.1716(3) -0.5140(3)
N7_8 N 1.1313(4) 1.9768(3) -0.3942(3)
N7A_8 N 0.8687(4) 2.0232(3) -0.6058(3)
N12_8 N 0.9679(4) 2.0827(3) -0.3744(3)
N12A_8 N 1.0321(4) 1.9173(3) -0.6256(3)
O5A_10 O -0.2041(3) -0.3958(3) 0.5332(3)
O7_9 O -0.4087(3) -0.2868(3) 0.3860(3)
O8A_9 O -0.2344(3) -0.3502(3) 0.3361(3)
O11_11 O -0.4432(3) -0.4998(3) 0.3764(3)
O13_11 O -0.3536(3) -0.3239(3) 0.5874(3)
N9_6 N 0.2233(5) -0.0820(5) 0.7357(5)
H8_6 H 0.0436 -0.1421 0.6713
N4_6 N 0.3075(4) -0.0015(5) 0.7070(5)
H14_6 H 0.2908 0.0875 0.6003
N9A_6 N -0.2233(5) 0.0820(5) 0.2643(5)
H8A_6 H -0.0436 0.1421 0.3287
N4A_6 N -0.3075(4) 0.0015(5) 0.2930(5)
H14A_6 H -0.2908 -0.0875 0.3997
N1_6 N -0.0958(5) 0.1088(4) 0.7669(4)
H24_6 H -0.0814 -0.0365 0.7060
N8_6 N -0.0684(4) 0.2039(3) 0.7301(4)
H25_6 H -0.0082 0.2401 0.6102
N1A_6 N 0.0958(5) -0.1088(4) 0.2331(4)
H24A_6 H 0.0814 0.0365 0.2940
N8A_6 N 0.0684(4) -0.2039(3) 0.2699(4)
H25A_6 H 0.0082 -0.2401 0.3898
O3_10 O 0.3135(3) 0.4350(3) 1.2499(3)
O6_10 O 0.3925(3) 0.5865(3) 1.4383(3)
O7_10 O 0.5913(3) 0.7132(3) 1.3860(3)
O9_8 O 0.3596(3) 0.6666(3) 1.2476(3)
O11_12 O 0.5568(3) 0.5002(3) 1.3764(3)
N5_3 N 0.7392(5) 0.3456(5) 1.0805(4)
H19_3 H 0.6683 0.3770 0.9447
N11_3 N 0.7192(4) 0.3685(4) 1.1739(3)
H28_3 H 0.6153 0.4410 1.2165
N5A_3 N 0.2608(5) 0.6544(5) 0.9195(4)
H19A_3 H 0.3317 0.6230 1.0553
N11A_3 N 0.2808(4) 0.6315(4) 0.8261(3)
H28A_3 H 0.3847 0.5590 0.7835
N3_3 N 0.7713(4) 0.8154(4) 1.0218(4)
H5_3 H 0.6672 0.6704 0.8943
N2_3 N 0.7820(5) 0.8402(4) 1.1272(4)
H13_3 H 0.6956 0.7311 1.1959
N3A_3 N 0.2287(4) 0.1846(4) 0.9782(4)
H5A_3 H 0.3328 0.3296 1.1057
N2A_3 N 0.2180(5) 0.1598(4) 0.8728(4)
H13A_3 H 0.3044 0.2689 0.8041
O3_11 O 0.3135(3) 1.4350(3) 0.2499(3)
O6_11 O 0.3925(3) 1.5865(3) 0.4383(3)
O7_11 O 0.5913(3) 1.7132(3) 0.3860(3)
O9_9 O 0.3596(3) 1.6666(3) 0.2476(3)
O11_13 O 0.5568(3) 1.5002(3) 0.3764(3)
N5_4 N 0.7392(5) 1.3456(5) 0.0805(4)
H19_4 H 0.6683 1.3770 -0.0553
N11_4 N 0.7192(4) 1.3685(4) 0.1739(3)
H28_4 H 0.6153 1.4410 0.2165
N5A_4 N 0.2608(5) 1.6544(5) -0.0805(4)
H19A_4 H 0.3317 1.6230 0.0553
N11A_4 N 0.2808(4) 1.6315(4) -0.1739(3)
H28A_4 H 0.3847 1.5590 -0.2165
N3_4 N 0.7713(4) 1.8154(4) 0.0218(4)
H5_4 H 0.6672 1.6704 -0.1057
N2_4 N 0.7820(5) 1.8402(4) 0.1272(4)
H13_4 H 0.6956 1.7311 0.1959
N3A_4 N 0.2287(4) 1.1846(4) -0.0218(4)
H5A_4 H 0.3328 1.3296 0.1057
N2A_4 N 0.2180(5) 1.1598(4) -0.1272(4)
H13A_4 H 0.3044 1.2689 -0.1959
C6_2 C -0.0527(5) 0.4426(5) -0.5395(4)
H9A_2 H 0.0207 0.6138 -0.4441
H10A_2 H 0.1122 0.5889 -0.4945
H3A_2 H -0.6403 0.9058 -0.9555
H4A_2 H -0.6727 0.9092 -0.8493
C10A_2 C -0.6667(6) 1.0454(7) -0.9027(7)
C14_2 C -0.0350(6) 0.4697(5) -1.0604(4)
H22A_2 H 0.1227 0.5573 -0.9251
H23A_2 H 0.0112 0.4740 -0.9003
Mo2A_9 Mo 0.56060(4) 1.41058(4) -1.28269(3)
C12_7 C 0.6728(6) 1.3826(6) -0.9836(5)
C18_7 C 0.6432(5) 1.4176(5) -0.8374(4)
C12A_7 C 0.3272(6) 1.6174(6) -1.0164(5)
C18A_7 C 0.3568(5) 1.5824(5) -1.1626(4)
C3_7 C 0.6897(5) 1.7062(5) -1.0317(5)
C8_7 C 0.7067(6) 1.7419(5) -0.8684(5)
C3A_7 C 0.3103(5) 1.2938(5) -0.9683(5)
C8A_7 C 0.2933(6) 1.2581(5) -1.1316(5)
Mo4_8 Mo 1.20027(4) 1.38954(4) 0.32256(4)
Mo2A_10 Mo 1.56060(4) 1.41058(4) 0.71731(3)
Mo1_10 Mo 1.48872(4) 1.62622(3) 0.57642(3)
Mo1A_10 Mo 1.51128(4) 1.37378(3) 0.42358(3)
C4_4 C 1.4399(8) 1.0537(9) 0.7739(10)
C4A_4 C 0.5601(8) 0.9463(9) 0.2261(10)
C20_4 C 0.9097(5) 1.3034(5) 0.7787(5)
C20A_4 C 1.0903(5) 0.6966(5) 0.2213(5)
Mo2_10 Mo 0.43940(4) 2.58942(4) 0.28269(3)
Mo4A_8 Mo 0.79973(4) 2.61046(4) 0.67744(4)
Cu1_9 Cu 0.5000 2.5000 1.0000
Mo3A_10 Mo 0.73202(4) 2.68694(4) 0.44849(3)
Mo2A_11 Mo -0.43940(4) 1.41058(4) 0.71731(3)
Mo4_9 Mo -0.79973(4) 1.38954(4) 0.32256(4)
Cu1_10 Cu -0.5000 1.5000 0.0000
Mo3_9 Mo -0.73202(4) 1.31306(4) 0.55151(3)
H1_2 H 0.4477 1.9554 0.8633
H2_2 H 0.4778 1.9236 0.7592
C2_2 C 0.6257(6) 2.0432(8) 0.8856(7)
H1A_3 H -0.4477 2.0446 0.1367
H2A_3 H -0.4778 2.0764 0.2408
C2A_3 C -0.6257(6) 1.9568(8) 0.1144(7)
H17_2 H -0.0297 2.3112 0.9389
H18_2 H 0.0750 2.3928 0.9052
C14_3 C -0.0350(6) 2.4697(5) 0.9396(4)
Mo3_10 Mo 1.26798(4) 0.31306(4) 1.55151(3)
Mo2A_12 Mo 1.56060(4) 0.41058(4) 1.71731(3)
Mo4A_9 Mo 1.79973(4) 0.61046(4) 1.67744(4)
Cu2_10 Cu 2.0000 1.0000 1.5000
Mo3A_11 Mo 1.73202(4) 0.68694(4) 0.44849(3)
Mo2_11 Mo 1.43940(4) 0.58942(4) 0.28269(3)
C6_3 C 1.9473(5) 0.4426(5) 1.4605(4)
H29_2 H 1.9437 0.4963 1.3234
H30_2 H 1.8466 0.5125 1.3709
C10_2 C 1.6667(6) 0.9546(7) 0.9027(7)
H26_2 H 1.8063 1.0376 1.0505
H27_2 H 1.8510 1.0604 0.9536
C10A_3 C 1.3333(6) 0.0454(7) 1.0973(7)
H26A_2 H 1.1937 -0.0376 0.9495
H27A_2 H 1.1490 -0.0604 1.0464
Mo2A_13 Mo 0.56060(4) -0.58942(4) 0.71731(3)
Mo4_10 Mo 0.20027(4) -0.61046(4) 0.32256(4)
Cu1_11 Cu 0.5000 -0.5000 0.0000
Mo3_11 Mo 0.26798(4) -0.68694(4) 0.55151(3)
H1_3 H 1.4477 -0.0446 0.8633
H2_3 H 1.4778 -0.0764 0.7592
C2_3 C 1.6257(6) 0.0432(8) 0.8856(7)
H17_3 H 0.9703 0.3112 0.9389
H18_3 H 1.0750 0.3928 0.9052
C14_4 C 0.9650(6) 0.4697(5) 0.9396(4)
H17A_3 H 1.0297 -0.3112 0.0611
H18A_3 H 0.9250 -0.3928 0.0948
C14A_3 C 1.0350(6) -0.4697(5) 0.0604(4)
Mo4A_10 Mo -0.20027(4) -0.38954(4) -0.32256(4)
Mo2_12 Mo -0.56060(4) -0.41058(4) -0.71731(3)
Mo1A_11 Mo -0.48872(4) -0.62622(3) -0.57642(3)
Mo1_11 Mo -0.51128(4) -0.37378(3) -0.42358(3)
C4_5 C 0.4399(8) 0.0537(9) -0.2261(10)
C4A_5 C -0.4399(8) -0.0537(9) -0.7739(10)
C20_5 C -0.0903(5) 0.3034(5) -0.2213(5)
C20A_5 C 0.0903(5) -0.3034(5) -0.7787(5)
O3A_9 O 0.6865(3) 0.5650(3) -1.2499(3)
O6A_10 O 0.6075(3) 0.4135(3) -1.4383(3)
O7A_8 O 0.4087(3) 0.2868(3) -1.3860(3)
O9A_7 O 0.6404(3) 0.3334(3) -1.2476(3)
O11A_11 O 0.4432(3) 0.4998(3) -1.3764(3)
N5_5 N 0.7392(5) 0.3456(5) -0.9195(4)
H19_5 H 0.6683 0.3770 -1.0553
N11_5 N 0.7192(4) 0.3685(4) -0.8261(3)
H28_5 H 0.6153 0.4410 -0.7835
N5A_5 N 0.2608(5) 0.6544(5) -1.0805(4)
H19A_5 H 0.3317 0.6230 -0.9447
N11A_5 N 0.2808(4) 0.6315(4) -1.1739(3)
H28A_5 H 0.3847 0.5590 -1.2165
N3_5 N 0.7713(4) 0.8154(4) -0.9782(4)
H5_5 H 0.6672 0.6704 -1.1057
N2_5 N 0.7820(5) 0.8402(4) -0.8728(4)
H13_5 H 0.6956 0.7311 -0.8041
N3A_5 N 0.2287(4) 0.1846(4) -1.0218(4)
H5A_5 H 0.3328 0.3296 -0.8943
N2A_5 N 0.2180(5) 0.1598(4) -1.1272(4)
H13A_5 H 0.3044 0.2689 -1.1959
O5_9 O 1.2041(3) 1.3958(3) -0.5332(3)
O7A_9 O 1.4087(3) 1.2868(3) -0.3860(3)
O8_8 O 1.2344(3) 1.3502(3) -0.3361(3)
O11A_12 O 1.4432(3) 1.4998(3) -0.3764(3)
O13A_11 O 1.3536(3) 1.3239(3) -0.5874(3)
N9_7 N 1.2233(5) 0.9180(5) -0.2643(5)
H8_7 H 1.0436 0.8579 -0.3287
N4_7 N 1.3075(4) 0.9985(5) -0.2930(5)
H14_7 H 1.2908 1.0875 -0.3997
N9A_7 N 0.7767(5) 1.0820(5) -0.7357(5)
H8A_7 H 0.9564 1.1421 -0.6713
N4A_7 N 0.6925(4) 1.0015(5) -0.7070(5)
H14A_7 H 0.7092 0.9125 -0.6003
N1_7 N 0.9042(5) 1.1088(4) -0.2331(4)
H24_7 H 0.9186 0.9635 -0.2940
N8_7 N 0.9316(4) 1.2039(3) -0.2699(4)
H25_7 H 0.9918 1.2401 -0.3898
N1A_7 N 1.0958(5) 0.8912(4) -0.7669(4)
H24A_7 H 1.0814 1.0365 -0.7060
N8A_7 N 1.0684(4) 0.7961(3) -0.7301(4)
H25A_7 H 1.0082 0.7599 -0.6102
O3A_10 O -0.3135(3) 0.5650(3) -1.2499(3)
O6A_11 O -0.3925(3) 0.4135(3) -1.4383(3)
O7A_10 O -0.5913(3) 0.2868(3) -1.3860(3)
O9A_8 O -0.3596(3) 0.3334(3) -1.2476(3)
O11A_13 O -0.5568(3) 0.4998(3) -1.3764(3)
N5_6 N -0.2608(5) 0.3456(5) -0.9195(4)
H19_6 H -0.3317 0.3770 -1.0553
N11_6 N -0.2808(4) 0.3685(4) -0.8261(3)
H28_6 H -0.3847 0.4410 -0.7835
N5A_6 N -0.7392(5) 0.6544(5) -1.0805(4)
H19A_6 H -0.6683 0.6230 -0.9447
N11A_6 N -0.7192(4) 0.6315(4) -1.1739(3)
H28A_6 H -0.6153 0.5590 -1.2165
N3_6 N -0.2287(4) 0.8154(4) -0.9782(4)
H5_6 H -0.3328 0.6704 -1.1057
N2_6 N -0.2180(5) 0.8402(4) -0.8728(4)
H13_6 H -0.3044 0.7311 -0.8041
N3A_6 N -0.7713(4) 0.1846(4) -1.0218(4)
H5A_6 H -0.6672 0.3296 -0.8943
N2A_6 N -0.7820(5) 0.1598(4) -1.1272(4)
H13A_6 H -0.6956 0.2689 -1.1959
O12_10 O -0.5149(3) 0.5601(3) 0.1753(3)
N6_8 N -0.3883(4) 0.4294(3) 0.0629(3)
N6A_8 N -0.6117(4) 0.5706(3) -0.0629(3)
N10_8 N -0.3553(4) 0.6553(3) 0.0346(3)
N10A_8 N -0.6447(4) 0.3447(3) -0.0346(3)
O4A_10 O -1.1588(3) -0.1716(3) -0.4860(3)
N7_9 N -0.8687(4) -0.0232(3) -0.3942(3)
N7A_9 N -1.1313(4) 0.0232(3) -0.6058(3)
N12_9 N -1.0321(4) 0.0827(3) -0.3744(3)
N12A_9 N -0.9679(4) -0.0827(3) -0.6256(3)
Mo3_12 Mo 1.26798(4) 2.31306(4) -0.44849(3)
C5_8 C 1.1199(5) 1.9083(5) -0.3283(5)
C9_8 C 1.2516(5) 2.0324(5) -0.3686(5)
C5A_8 C 0.8801(5) 2.0917(5) -0.6717(5)
C9A_8 C 0.7484(5) 1.9676(5) -0.6314(5)
C15_8 C 0.9281(6) 2.0374(5) -0.2990(5)
C16_8 C 0.9684(4) 2.1862(4) -0.3522(4)
C15A_8 C 1.0719(6) 1.9626(5) -0.7010(5)
C16A_8 C 1.0316(4) 1.8138(4) -0.6478(4)
Mo4A_11 Mo -0.20027(4) -0.38954(4) 0.67744(4)
Mo2_13 Mo -0.56060(4) -0.41058(4) 0.28269(3)
Mo1A_12 Mo -0.48872(4) -0.62622(3) 0.42358(3)
Mo1_12 Mo -0.51128(4) -0.37378(3) 0.57642(3)
C4_6 C 0.4399(8) 0.0537(9) 0.7739(10)
C4A_6 C -0.4399(8) -0.0537(9) 0.2261(10)
C20_6 C -0.0903(5) 0.3034(5) 0.7787(5)
C20A_6 C 0.0903(5) -0.3034(5) 0.2213(5)
loop_
_geom_bond_atom_site_label_1
_geom_bond_atom_site_label_2
_geom_bond_site_symmetry_1
_geom_bond_site_symmetry_2
Mo1 O6 1_555 1_555
Mo2 O3 1_555 1_555
Mo3 O4 1_555 1_555
Mo4 O1 1_555 1_555
Cu1 O12 1_555 1_555
Cu2 O4 1_555 1_555
O2 Mo4 1_555 1_555
O3 Mo4 1_555 1_555
O5 Mo3 1_555 1_555
O6 Mo2 1_555 1_555
O7 Mo2 1_555 1_555
O8 Mo3 1_555 1_555
O9 Mo2 1_555 1_555
O10 Mo1 1_555 1_555
O11 Mo2 1_555 1_555
O12 Mo2 1_555 1_555
O13 Mo1 1_555 1_555
N1 N8 1_555 1_555
N2 N3 1_555 1_555
N3 C3 1_555 1_555
N4 N9 1_555 1_555
N5 N11 1_555 1_555
N6 Cu1 1_555 1_555
N7 Cu2 1_555 1_555
N8 C16 1_555 1_555
N9 C5 1_555 1_555
N10 Cu1 1_555 1_555
N11 C7 1_555 1_555
N12 Cu2 1_555 1_555
C1 H1 1_555 1_555
H2 C1 1_555 1_555
C2 C1 1_555 1_555
H3 C2 1_555 1_555
H4 C2 1_555 1_555
C3 N10 1_555 1_555
H5 C3 1_555 1_555
C4 N4 1_555 1_555
H6 C4 1_555 1_555
H7 C4 1_555 1_555
C5 N7 1_555 1_555
H8 C5 1_555 1_555
C6 H9 1_555 1_555
H10 C6 1_555 1_555
C7 H11 1_555 1_555
H12 C7 1_555 1_555
C8 N2 1_555 1_555
H13 C8 1_555 1_555
C9 N4 1_555 1_555
H14 C9 1_555 1_555
C10 C2 1_555 1_555
H15 C10 1_555 1_555
H16 C10 1_555 1_555
C11 H17 1_555 1_555
H18 C11 1_555 1_555
C12 N5 1_555 1_555
H19 C12 1_555 1_555
C13 N3 1_555 1_555
H20 C13 1_555 1_555
H21 C13 1_555 1_555
C14 C11 1_555 1_555
H22 C14 1_555 1_555
H23 C14 1_555 1_555
C15 N1 1_555 1_555
H24 C15 1_555 1_555
C16 N12 1_555 1_555
H25 C16 1_555 1_555
C17 C10 1_555 1_555
H26 C17 1_555 1_555
H27 C17 1_555 1_555
C18 N6 1_555 1_555
H28 C18 1_555 1_555
C19 C6 1_555 1_555
H29 C19 1_555 1_555
H30 C19 1_555 1_555
C20 N8 1_555 1_555
H31 C20 1_555 1_555
H32 C20 1_555 1_555
C14A C14 1_555 1_555
C11A C14A 1_555 1_555
C20A C11A 1_555 1_555
N8A C20A 1_555 1_555
N1A N8A 1_555 1_555
C15A N1A 1_555 1_555
N12A C15A 1_555 1_555
C16A N8A 1_555 1_555
H25A C16A 1_555 1_555
H24A C15A 1_555 1_555
H31A C20A 1_555 1_555
H32A C20A 1_555 1_555
H17A C11A 1_555 1_555
H18A C11A 1_555 1_555
H22A C14A 1_555 1_555
H23A C14A 1_555 1_555
C6A C6 1_555 1_555
C19A C6A 1_555 1_555
C7A C19A 1_555 1_555
N11A C7A 1_555 1_555
N5A N11A 1_555 1_555
C12A N5A 1_555 1_555
N6A C12A 1_555 1_555
C18A N11A 1_555 1_555
H28A C18A 1_555 1_555
H19A C12A 1_555 1_555
H11A C7A 1_555 1_555
H12A C7A 1_555 1_555
H29A C19A 1_555 1_555
H30A C19A 1_555 1_555
H9A C6A 1_555 1_555
H10A C6A 1_555 1_555
O12A Cu1 1_555 1_555
N2A N3A 1_555 1_555
N3A C3A 1_555 1_555
N4A N9A 1_555 1_555
N7A C5A 1_555 1_555
N9A C5A 1_555 1_555
N10A Cu1 1_555 1_555
C1A H1A 1_555 1_555
H2A C1A 1_555 1_555
C2A C1A 1_555 1_555
H3A C2A 1_555 1_555
H4A C2A 1_555 1_555
C3A N10A 1_555 1_555
H5A C3A 1_555 1_555
C4A N4A 1_555 1_555
H6A C4A 1_555 1_555
H7A C4A 1_555 1_555
C5A H8A 1_555 1_555
C8A N2A 1_555 1_555
H13A C8A 1_555 1_555
C9A N4A 1_555 1_555
H14A C9A 1_555 1_555
C10A C2A 1_555 1_555
H15A C10A 1_555 1_555
H16A C10A 1_555 1_555
C13A N3A 1_555 1_555
H20A C13A 1_555 1_555
H21A C13A 1_555 1_555
C17A C10A 1_555 1_555
H26A C17A 1_555 1_555
H27A C17A 1_555 1_555
Mo2A O12A 1_555 1_555
O4A Cu2 1_555 1_555
O3A Mo2A 1_555 1_555
O6A Mo2A 1_555 1_555
O7A Mo2A 1_555 1_555
O9A Mo2A 1_555 1_555
O11A Mo2A 1_555 1_555
Mo1A O6A 1_555 1_555
Mo3A O4A 1_555 1_555
Mo4A O3A 1_555 1_555
O13A Mo3 1_555 1_555
O5_2 Mo4 1_555 1_555
O10A Mo1A 1_555 1_555
O8A Mo3A 1_555 1_555
O1A Mo4A 1_555 1_555
O2A Mo4A 1_555 1_555
O11A_2 Mo1 1_555 1_555
O7A_2 Mo3 1_555 1_555
O11A_3 Mo3 1_555 1_555
O13A_2 Mo4 1_555 1_555
N6A_2 Cu1 1_555 1_555
N7A_2 Cu2 1_555 1_555
N12A_2 Cu2 1_555 1_555
Mo4_2 O5 1_555 1_555
Mo3A_2 O7 1_555 1_555
Mo1A_2 O11 1_555 1_555
Mo4A_2 O13 1_555 1_555
Cu2_2 N12A 1_555 1_555
Cu1_2 N6A 1_555 1_555
Cu2_3 N7A 1_555 1_555
Mo3_2 O7A 1_555 1_555
Mo1_2 O11A 1_555 1_555
O11_2 Mo1A 1_555 1_555
O13A_3 Mo1A 1_555 1_555
O7_2 Mo3A 1_555 1_555
O11_3 Mo3A 1_555 1_555
O5A Mo3A 1_555 1_555
O13_2 Mo3A 1_555 1_555
O5A_2 Mo4A 1_555 1_555
O13_3 Mo4A 1_555 1_555
Mo1A_3 O13A 1_555 1_555
Mo3_3 O5_2 1_555 1_555
Mo2A_2 O11A_2 1_555 1_555
Mo2A_3 O7A_2 1_555 1_555
Mo1_3 O11A_3 1_555 1_555
C12A_2 N6A_2 1_555 1_555
C18A_2 N6A_2 1_555 1_555
C5A_2 N7A_2 1_555 1_555
C9A_2 N7A_2 1_555 1_555
C15A_2 N12A_2 1_555 1_555
C16A_2 N12A_2 1_555 1_555
O1_2 Mo4_2 1_555 1_555
O2_2 Mo4_2 1_555 1_555
O3_2 Mo4_2 1_555 1_555
O4A_2 Mo3A_2 1_555 1_555
O5A_3 Mo3A_2 1_555 1_555
O8A_2 Mo3A_2 1_555 1_555
O6A_2 Mo1A_2 1_555 1_555
O10A_2 Mo1A_2 1_555 1_555
O1A_2 Mo4A_2 1_555 1_555
O2A_2 Mo4A_2 1_555 1_555
O3A_2 Mo4A_2 1_555 1_555
O4_2 Cu2_2 1_555 1_555
O4A_3 Cu2_2 1_555 1_555
N7_2 Cu2_2 1_555 1_555
N7A_3 Cu2_2 1_555 1_555
N12_2 Cu2_2 1_555 1_555
O12_2 Cu1_2 1_555 1_555
O12A_2 Cu1_2 1_555 1_555
N6_2 Cu1_2 1_555 1_555
N10_2 Cu1_2 1_555 1_555
N10A_2 Cu1_2 1_555 1_555
O4_3 Cu2_3 1_555 1_555
O4A_4 Cu2_3 1_555 1_555
N7_3 Cu2_3 1_555 1_555
N12_3 Cu2_3 1_555 1_555
N12A_3 Cu2_3 1_555 1_555
O4_4 Mo3_2 1_555 1_555
O5_3 Mo3_2 1_555 1_555
O8_2 Mo3_2 1_555 1_555
O6_2 Mo1_2 1_555 1_555
O10_2 Mo1_2 1_555 1_555
Mo2_2 O11_2 1_555 1_555
Mo3A_3 O11_2 1_555 1_555
Mo4_3 O13A_3 1_555 1_555
Mo2_3 O7_2 1_555 1_555
Mo1A_4 O11_3 1_555 1_555
Mo4A_3 O5A 1_555 1_555
Mo1_4 O13_2 1_555 1_555
O6A_3 Mo1A_3 1_555 1_555
O10A_3 Mo1A_3 1_555 1_555
O11_4 Mo1A_3 1_555 1_555
O4_5 Mo3_3 1_555 1_555
O7A_3 Mo3_3 1_555 1_555
O8_3 Mo3_3 1_555 1_555
O9A_2 Mo2A_2 1_555 1_555
O12A_3 Mo2A_2 1_555 1_555
O3A_3 Mo2A_3 1_555 1_555
O9A_3 Mo2A_3 1_555 1_555
O12A_4 Mo2A_3 1_555 1_555
O6_3 Mo1_3 1_555 1_555
O10_3 Mo1_3 1_555 1_555
O13_4 Mo1_3 1_555 1_555
N5A_2 C12A_2 1_555 1_555
H19A_2 C12A_2 1_555 1_555
N11A_2 C18A_2 1_555 1_555
H28A_2 C18A_2 1_555 1_555
N9A_2 C5A_2 1_555 1_555
H8A_2 C5A_2 1_555 1_555
N4A_2 C9A_2 1_555 1_555
H14A_2 C9A_2 1_555 1_555
N1A_2 C15A_2 1_555 1_555
H24A_2 C15A_2 1_555 1_555
N8A_2 C16A_2 1_555 1_555
H25A_2 C16A_2 1_555 1_555
Mo2_4 O3_2 1_555 1_555
Cu2_4 O4A_2 1_555 1_555
Mo3_4 O4_2 1_555 1_555
Mo3A_4 O4A_3 1_555 1_555
C5_2 N7_2 1_555 1_555
C9_2 N7_2 1_555 1_555
C5A_3 N7A_3 1_555 1_555
C9A_3 N7A_3 1_555 1_555
C15_2 N12_2 1_555 1_555
C16_2 N12_2 1_555 1_555
Mo2_5 O12_2 1_555 1_555
Mo2A_4 O12A_2 1_555 1_555
C12_2 N6_2 1_555 1_555
C18_2 N6_2 1_555 1_555
C3_2 N10_2 1_555 1_555
C8_2 N10_2 1_555 1_555
C3A_2 N10A_2 1_555 1_555
C8A_2 N10A_2 1_555 1_555
Mo3_5 O4_3 1_555 1_555
Mo3A_5 O4A_4 1_555 1_555
C5_3 N7_3 1_555 1_555
C9_3 N7_3 1_555 1_555
C15_3 N12_3 1_555 1_555
C16_3 N12_3 1_555 1_555
C15A_3 N12A_3 1_555 1_555
C16A_3 N12A_3 1_555 1_555
Cu2_5 O4_4 1_555 1_555
O3_3 Mo2_2 1_555 1_555
O7_3 Mo2_2 1_555 1_555
O9_2 Mo2_2 1_555 1_555
O12_3 Mo2_2 1_555 1_555
O4A_5 Mo3A_3 1_555 1_555
O8A_3 Mo3A_3 1_555 1_555
O1_3 Mo4_3 1_555 1_555
O2_3 Mo4_3 1_555 1_555
O3_4 Mo2_3 1_555 1_555
O6_4 Mo2_3 1_555 1_555
O9_3 Mo2_3 1_555 1_555
O12_4 Mo2_3 1_555 1_555
O6A_4 Mo1A_4 1_555 1_555
O10A_4 Mo1A_4 1_555 1_555
O13A_4 Mo1A_4 1_555 1_555
O1A_3 Mo4A_3 1_555 1_555
O2A_3 Mo4A_3 1_555 1_555
O3A_4 Mo4A_3 1_555 1_555
O10_4 Mo1_4 1_555 1_555
O11A_4 Mo1_4 1_555 1_555
Mo3A_6 O11_4 1_555 1_555
Cu2_6 O4_5 1_555 1_555
Cu1_3 O12A_3 1_555 1_555
Mo4A_4 O3A_3 1_555 1_555
Cu1_4 O12A_4 1_555 1_555
C7A_2 N11A_2 1_555 1_555
C4A_2 N4A_2 1_555 1_555
C20A_2 N8A_2 1_555 1_555
O7_4 Mo2_4 1_555 1_555
O9_4 Mo2_4 1_555 1_555
O12_5 Mo2_4 1_555 1_555
O4_6 Cu2_4 1_555 1_555
N7_4 Cu2_4 1_555 1_555
N7A_4 Cu2_4 1_555 1_555
N12_4 Cu2_4 1_555 1_555
N12A_4 Cu2_4 1_555 1_555
O5_4 Mo3_4 1_555 1_555
O7A_4 Mo3_4 1_555 1_555
O8_4 Mo3_4 1_555 1_555
O11A_5 Mo3_4 1_555 1_555
O13A_5 Mo3_4 1_555 1_555
O5A_4 Mo3A_4 1_555 1_555
O7_5 Mo3A_4 1_555 1_555
O8A_4 Mo3A_4 1_555 1_555
O11_5 Mo3A_4 1_555 1_555
O13_5 Mo3A_4 1_555 1_555
N9_2 C5_2 1_555 1_555
H8_2 C5_2 1_555 1_555
N4_2 C9_2 1_555 1_555
H14_2 C9_2 1_555 1_555
N9A_3 C5A_3 1_555 1_555
H8A_3 C5A_3 1_555 1_555
N4A_3 C9A_3 1_555 1_555
H14A_3 C9A_3 1_555 1_555
N1_2 C15_2 1_555 1_555
H24_2 C15_2 1_555 1_555
N8_2 C16_2 1_555 1_555
H25_2 C16_2 1_555 1_555
O3_5 Mo2_5 1_555 1_555
O6_5 Mo2_5 1_555 1_555
O7_6 Mo2_5 1_555 1_555
O9_5 Mo2_5 1_555 1_555
O11_6 Mo2_5 1_555 1_555
O3A_5 Mo2A_4 1_555 1_555
O6A_5 Mo2A_4 1_555 1_555
O7A_5 Mo2A_4 1_555 1_555
O9A_4 Mo2A_4 1_555 1_555
O11A_6 Mo2A_4 1_555 1_555
N5_2 C12_2 1_555 1_555
H19_2 C12_2 1_555 1_555
N11_2 C18_2 1_555 1_555
H28_2 C18_2 1_555 1_555
N3_2 C3_2 1_555 1_555
H5_2 C3_2 1_555 1_555
N2_2 C8_2 1_555 1_555
H13_2 C8_2 1_555 1_555
N3A_2 C3A_2 1_555 1_555
H5A_2 C3A_2 1_555 1_555
N2A_2 C8A_2 1_555 1_555
H13A_2 C8A_2 1_555 1_555
O5_5 Mo3_5 1_555 1_555
O8_5 Mo3_5 1_555 1_555
O13A_6 Mo3_5 1_555 1_555
O5A_5 Mo3A_5 1_555 1_555
O7_7 Mo3A_5 1_555 1_555
O8A_5 Mo3A_5 1_555 1_555
O11_7 Mo3A_5 1_555 1_555
O13_6 Mo3A_5 1_555 1_555
N9_3 C5_3 1_555 1_555
H8_3 C5_3 1_555 1_555
N4_3 C9_3 1_555 1_555
H14_3 C9_3 1_555 1_555
N1_3 C15_3 1_555 1_555
H24_3 C15_3 1_555 1_555
N8_3 C16_3 1_555 1_555
H25_3 C16_3 1_555 1_555
N1A_3 C15A_3 1_555 1_555
H24A_3 C15A_3 1_555 1_555
N8A_3 C16A_3 1_555 1_555
H25A_3 C16A_3 1_555 1_555
O4A_6 Cu2_5 1_555 1_555
N7_5 Cu2_5 1_555 1_555
N7A_5 Cu2_5 1_555 1_555
N12_5 Cu2_5 1_555 1_555
N12A_5 Cu2_5 1_555 1_555
Cu1_5 O12_3 1_555 1_555
Cu2_7 O4A_5 1_555 1_555
Mo4_4 O3_4 1_555 1_555
Cu1_6 O12_4 1_555 1_555
Mo2A_5 O6A_4 1_555 1_555
Mo3_6 O13A_4 1_555 1_555
O4A_7 Mo3A_6 1_555 1_555
O5A_6 Mo3A_6 1_555 1_555
O8A_6 Mo3A_6 1_555 1_555
O4A_8 Cu2_6 1_555 1_555
N7_6 Cu2_6 1_555 1_555
N7A_6 Cu2_6 1_555 1_555
N12_6 Cu2_6 1_555 1_555
N12A_6 Cu2_6 1_555 1_555
O12_6 Cu1_3 1_555 1_555
N6_3 Cu1_3 1_555 1_555
N6A_3 Cu1_3 1_555 1_555
N10_3 Cu1_3 1_555 1_555
N10A_3 Cu1_3 1_555 1_555
O1A_4 Mo4A_4 1_555 1_555
O2A_4 Mo4A_4 1_555 1_555
O12_7 Cu1_4 1_555 1_555
N6_4 Cu1_4 1_555 1_555
N6A_4 Cu1_4 1_555 1_555
N10_4 Cu1_4 1_555 1_555
N10A_4 Cu1_4 1_555 1_555
H11A_2 C7A_2 1_555 1_555
H12A_2 C7A_2 1_555 1_555
C19A_2 C7A_2 1_555 1_555
C1A_2 C4A_2 1_555 1_555
H6A_2 C4A_2 1_555 1_555
H7A_2 C4A_2 1_555 1_555
C11A_2 C20A_2 1_555 1_555
H31A_2 C20A_2 1_555 1_555
H32A_2 C20A_2 1_555 1_555
Cu1_7 O12_5 1_555 1_555
Mo3_7 O4_6 1_555 1_555
C5_4 N7_4 1_555 1_555
C9_4 N7_4 1_555 1_555
C5A_4 N7A_4 1_555 1_555
C9A_4 N7A_4 1_555 1_555
C15_4 N12_4 1_555 1_555
C16_4 N12_4 1_555 1_555
C15A_4 N12A_4 1_555 1_555
C16A_4 N12A_4 1_555 1_555
Mo4_5 O5_4 1_555 1_555
Mo2A_6 O7A_4 1_555 1_555
Mo1_5 O11A_5 1_555 1_555
Mo1A_5 O13A_5 1_555 1_555
Mo4A_5 O5A_4 1_555 1_555
Mo2_6 O7_5 1_555 1_555
Mo1A_6 O11_5 1_555 1_555
Mo1_6 O13_5 1_555 1_555
C4_2 N4_2 1_555 1_555
C4A_3 N4A_3 1_555 1_555
C20_2 N8_2 1_555 1_555
Mo4_6 O3_5 1_555 1_555
Mo1_7 O6_5 1_555 1_555
Mo3A_7 O7_6 1_555 1_555
Mo1A_7 O11_6 1_555 1_555
Mo4A_6 O3A_5 1_555 1_555
Mo1A_8 O6A_5 1_555 1_555
Mo1_8 O11A_6 1_555 1_555
C7_2 N11_2 1_555 1_555
C13_2 N3_2 1_555 1_555
C13A_2 N3A_2 1_555 1_555
Mo4_7 O5_5 1_555 1_555
Mo4A_7 O5A_5 1_555 1_555
Mo2_7 O7_7 1_555 1_555
Mo1A_9 O11_7 1_555 1_555
Mo1_9 O13_6 1_555 1_555
C4_3 N4_3 1_555 1_555
C20_3 N8_3 1_555 1_555
C20A_3 N8A_3 1_555 1_555
Mo3A_8 O4A_6 1_555 1_555
C5_5 N7_5 1_555 1_555
C9_5 N7_5 1_555 1_555
C5A_5 N7A_5 1_555 1_555
C9A_5 N7A_5 1_555 1_555
C15_5 N12_5 1_555 1_555
C16_5 N12_5 1_555 1_555
C15A_5 N12A_5 1_555 1_555
C16A_5 N12A_5 1_555 1_555
O12A_5 Cu1_5 1_555 1_555
N6_5 Cu1_5 1_555 1_555
N6A_5 Cu1_5 1_555 1_555
N10_5 Cu1_5 1_555 1_555
N10A_5 Cu1_5 1_555 1_555
O4_7 Cu2_7 1_555 1_555
N7_7 Cu2_7 1_555 1_555
N7A_7 Cu2_7 1_555 1_555
N12_7 Cu2_7 1_555 1_555
N12A_7 Cu2_7 1_555 1_555
O1_4 Mo4_4 1_555 1_555
O2_4 Mo4_4 1_555 1_555
O5_6 Mo4_4 1_555 1_555
O12A_6 Cu1_6 1_555 1_555
N6_6 Cu1_6 1_555 1_555
N6A_6 Cu1_6 1_555 1_555
N10_6 Cu1_6 1_555 1_555
N10A_6 Cu1_6 1_555 1_555
O7A_6 Mo2A_5 1_555 1_555
O9A_5 Mo2A_5 1_555 1_555
O12A_7 Mo2A_5 1_555 1_555
O4_8 Mo3_6 1_555 1_555
O8_6 Mo3_6 1_555 1_555
Cu2_8 O4A_7 1_555 1_555
Mo3A_9 O4A_8 1_555 1_555
C5_6 N7_6 1_555 1_555
C9_6 N7_6 1_555 1_555
C5A_6 N7A_6 1_555 1_555
C9A_6 N7A_6 1_555 1_555
C15_6 N12_6 1_555 1_555
C16_6 N12_6 1_555 1_555
C15A_6 N12A_6 1_555 1_555
C16A_6 N12A_6 1_555 1_555
Mo2_8 O12_6 1_555 1_555
C12_3 N6_3 1_555 1_555
C18_3 N6_3 1_555 1_555
C12A_3 N6A_3 1_555 1_555
C18A_3 N6A_3 1_555 1_555
C3_3 N10_3 1_555 1_555
C8_3 N10_3 1_555 1_555
C3A_3 N10A_3 1_555 1_555
C8A_3 N10A_3 1_555 1_555
Mo2_9 O12_7 1_555 1_555
C12_4 N6_4 1_555 1_555
C18_4 N6_4 1_555 1_555
C12A_4 N6A_4 1_555 1_555
C18A_4 N6A_4 1_555 1_555
C3_4 N10_4 1_555 1_555
C8_4 N10_4 1_555 1_555
C3A_4 N10A_4 1_555 1_555
C8A_4 N10A_4 1_555 1_555
C6A_2 C19A_2 1_555 1_555
H29A_2 C19A_2 1_555 1_555
H30A_2 C19A_2 1_555 1_555
H1A_2 C1A_2 1_555 1_555
H2A_2 C1A_2 1_555 1_555
C2A_2 C1A_2 1_555 1_555
H17A_2 C11A_2 1_555 1_555
H18A_2 C11A_2 1_555 1_555
C14A_2 C11A_2 1_555 1_555
O12A_8 Cu1_7 1_555 1_555
N6_7 Cu1_7 1_555 1_555
N6A_7 Cu1_7 1_555 1_555
N10_7 Cu1_7 1_555 1_555
N10A_7 Cu1_7 1_555 1_555
O5_7 Mo3_7 1_555 1_555
O7A_7 Mo3_7 1_555 1_555
O8_7 Mo3_7 1_555 1_555
O11A_7 Mo3_7 1_555 1_555
O13A_7 Mo3_7 1_555 1_555
N9_4 C5_4 1_555 1_555
H8_4 C5_4 1_555 1_555
N4_4 C9_4 1_555 1_555
H14_4 C9_4 1_555 1_555
N9A_4 C5A_4 1_555 1_555
H8A_4 C5A_4 1_555 1_555
N4A_4 C9A_4 1_555 1_555
H14A_4 C9A_4 1_555 1_555
N1_4 C15_4 1_555 1_555
H24_4 C15_4 1_555 1_555
N8_4 C16_4 1_555 1_555
H25_4 C16_4 1_555 1_555
N1A_4 C15A_4 1_555 1_555
H24A_4 C15A_4 1_555 1_555
N8A_4 C16A_4 1_555 1_555
H25A_4 C16A_4 1_555 1_555
O1_5 Mo4_5 1_555 1_555
O2_5 Mo4_5 1_555 1_555
O3_6 Mo4_5 1_555 1_555
O3A_6 Mo2A_6 1_555 1_555
O6A_6 Mo2A_6 1_555 1_555
O9A_6 Mo2A_6 1_555 1_555
O12A_9 Mo2A_6 1_555 1_555
O6_6 Mo1_5 1_555 1_555
O10_5 Mo1_5 1_555 1_555
O13_7 Mo1_5 1_555 1_555
O10A_5 Mo1A_5 1_555 1_555
O11_8 Mo1A_5 1_555 1_555
O1A_5 Mo4A_5 1_555 1_555
O2A_5 Mo4A_5 1_555 1_555
O3A_7 Mo4A_5 1_555 1_555
O3_7 Mo2_6 1_555 1_555
O6_7 Mo2_6 1_555 1_555
O9_6 Mo2_6 1_555 1_555
O12_8 Mo2_6 1_555 1_555
O6A_7 Mo1A_6 1_555 1_555
O10A_6 Mo1A_6 1_555 1_555
O13A_8 Mo1A_6 1_555 1_555
O10_6 Mo1_6 1_555 1_555
O11A_8 Mo1_6 1_555 1_555
C1_2 C4_2 1_555 1_555
H6_2 C4_2 1_555 1_555
H7_2 C4_2 1_555 1_555
C1A_3 C4A_3 1_555 1_555
H6A_3 C4A_3 1_555 1_555
H7A_3 C4A_3 1_555 1_555
C11_2 C20_2 1_555 1_555
H31_2 C20_2 1_555 1_555
H32_2 C20_2 1_555 1_555
O1_6 Mo4_6 1_555 1_555
O2_6 Mo4_6 1_555 1_555
O5_8 Mo4_6 1_555 1_555
O13A_9 Mo4_6 1_555 1_555
O10_7 Mo1_7 1_555 1_555
O11A_9 Mo1_7 1_555 1_555
O13_8 Mo1_7 1_555 1_555
O4A_9 Mo3A_7 1_555 1_555
O5A_7 Mo3A_7 1_555 1_555
O8A_7 Mo3A_7 1_555 1_555
O6A_8 Mo1A_7 1_555 1_555
O10A_7 Mo1A_7 1_555 1_555
O1A_6 Mo4A_6 1_555 1_555
O2A_6 Mo4A_6 1_555 1_555
O5A_8 Mo4A_6 1_555 1_555
O13_9 Mo4A_6 1_555 1_555
O10A_8 Mo1A_8 1_555 1_555
O11_9 Mo1A_8 1_555 1_555
O6_8 Mo1_8 1_555 1_555
O10_8 Mo1_8 1_555 1_555
H11_2 C7_2 1_555 1_555
H12_2 C7_2 1_555 1_555
C19_2 C7_2 1_555 1_555
H20_2 C13_2 1_555 1_555
H21_2 C13_2 1_555 1_555
C17_2 C13_2 1_555 1_555
H20A_2 C13A_2 1_555 1_555
H21A_2 C13A_2 1_555 1_555
C17A_2 C13A_2 1_555 1_555
O1_7 Mo4_7 1_555 1_555
O2_7 Mo4_7 1_555 1_555
O3_8 Mo4_7 1_555 1_555
O1A_7 Mo4A_7 1_555 1_555
O2A_7 Mo4A_7 1_555 1_555
O3A_8 Mo4A_7 1_555 1_555
O3_9 Mo2_7 1_555 1_555
O6_9 Mo2_7 1_555 1_555
O9_7 Mo2_7 1_555 1_555
O12_9 Mo2_7 1_555 1_555
O6A_9 Mo1A_9 1_555 1_555
O10A_9 Mo1A_9 1_555 1_555
O13A_10 Mo1A_9 1_555 1_555
O10_9 Mo1_9 1_555 1_555
O11A_10 Mo1_9 1_555 1_555
C1_3 C4_3 1_555 1_555
H6_3 C4_3 1_555 1_555
H7_3 C4_3 1_555 1_555
C11_3 C20_3 1_555 1_555
H31_3 C20_3 1_555 1_555
H32_3 C20_3 1_555 1_555
C11A_3 C20A_3 1_555 1_555
H31A_3 C20A_3 1_555 1_555
H32A_3 C20A_3 1_555 1_555
O5A_9 Mo3A_8 1_555 1_555
O7_8 Mo3A_8 1_555 1_555
O8A_8 Mo3A_8 1_555 1_555
O11_10 Mo3A_8 1_555 1_555
O13_10 Mo3A_8 1_555 1_555
N9_5 C5_5 1_555 1_555
H8_5 C5_5 1_555 1_555
N4_5 C9_5 1_555 1_555
H14_5 C9_5 1_555 1_555
N9A_5 C5A_5 1_555 1_555
H8A_5 C5A_5 1_555 1_555
N4A_5 C9A_5 1_555 1_555
H14A_5 C9A_5 1_555 1_555
N1_5 C15_5 1_555 1_555
H24_5 C15_5 1_555 1_555
N8_5 C16_5 1_555 1_555
H25_5 C16_5 1_555 1_555
N1A_5 C15A_5 1_555 1_555
H24A_5 C15A_5 1_555 1_555
N8A_5 C16A_5 1_555 1_555
H25A_5 C16A_5 1_555 1_555
Mo2A_7 O12A_5 1_555 1_555
C12_5 N6_5 1_555 1_555
C18_5 N6_5 1_555 1_555
C12A_5 N6A_5 1_555 1_555
C18A_5 N6A_5 1_555 1_555
C3_5 N10_5 1_555 1_555
C8_5 N10_5 1_555 1_555
C3A_5 N10A_5 1_555 1_555
C8A_5 N10A_5 1_555 1_555
Mo3_8 O4_7 1_555 1_555
C5_7 N7_7 1_555 1_555
C9_7 N7_7 1_555 1_555
C5A_7 N7A_7 1_555 1_555
C9A_7 N7A_7 1_555 1_555
C15_7 N12_7 1_555 1_555
C16_7 N12_7 1_555 1_555
C15A_7 N12A_7 1_555 1_555
C16A_7 N12A_7 1_555 1_555
Mo2A_8 O12A_6 1_555 1_555
C12_6 N6_6 1_555 1_555
C18_6 N6_6 1_555 1_555
C12A_6 N6A_6 1_555 1_555
C18A_6 N6A_6 1_555 1_555
C3_6 N10_6 1_555 1_555
C8_6 N10_6 1_555 1_555
C3A_6 N10A_6 1_555 1_555
C8A_6 N10A_6 1_555 1_555
Cu1_8 O12A_7 1_555 1_555
Cu2_9 O4_8 1_555 1_555
O4_9 Cu2_8 1_555 1_555
N7_8 Cu2_8 1_555 1_555
N7A_8 Cu2_8 1_555 1_555
N12_8 Cu2_8 1_555 1_555
N12A_8 Cu2_8 1_555 1_555
O5A_10 Mo3A_9 1_555 1_555
O7_9 Mo3A_9 1_555 1_555
O8A_9 Mo3A_9 1_555 1_555
O11_11 Mo3A_9 1_555 1_555
O13_11 Mo3A_9 1_555 1_555
N9_6 C5_6 1_555 1_555
H8_6 C5_6 1_555 1_555
N4_6 C9_6 1_555 1_555
H14_6 C9_6 1_555 1_555
N9A_6 C5A_6 1_555 1_555
H8A_6 C5A_6 1_555 1_555
N4A_6 C9A_6 1_555 1_555
H14A_6 C9A_6 1_555 1_555
N1_6 C15_6 1_555 1_555
H24_6 C15_6 1_555 1_555
N8_6 C16_6 1_555 1_555
H25_6 C16_6 1_555 1_555
N1A_6 C15A_6 1_555 1_555
H24A_6 C15A_6 1_555 1_555
N8A_6 C16A_6 1_555 1_555
H25A_6 C16A_6 1_555 1_555
O3_10 Mo2_8 1_555 1_555
O6_10 Mo2_8 1_555 1_555
O7_10 Mo2_8 1_555 1_555
O9_8 Mo2_8 1_555 1_555
O11_12 Mo2_8 1_555 1_555
N5_3 C12_3 1_555 1_555
H19_3 C12_3 1_555 1_555
N11_3 C18_3 1_555 1_555
H28_3 C18_3 1_555 1_555
N5A_3 C12A_3 1_555 1_555
H19A_3 C12A_3 1_555 1_555
N11A_3 C18A_3 1_555 1_555
H28A_3 C18A_3 1_555 1_555
N3_3 C3_3 1_555 1_555
H5_3 C3_3 1_555 1_555
N2_3 C8_3 1_555 1_555
H13_3 C8_3 1_555 1_555
N3A_3 C3A_3 1_555 1_555
H5A_3 C3A_3 1_555 1_555
N2A_3 C8A_3 1_555 1_555
H13A_3 C8A_3 1_555 1_555
O3_11 Mo2_9 1_555 1_555
O6_11 Mo2_9 1_555 1_555
O7_11 Mo2_9 1_555 1_555
O9_9 Mo2_9 1_555 1_555
O11_13 Mo2_9 1_555 1_555
N5_4 C12_4 1_555 1_555
H19_4 C12_4 1_555 1_555
N11_4 C18_4 1_555 1_555
H28_4 C18_4 1_555 1_555
N5A_4 C12A_4 1_555 1_555
H19A_4 C12A_4 1_555 1_555
N11A_4 C18A_4 1_555 1_555
H28A_4 C18A_4 1_555 1_555
N3_4 C3_4 1_555 1_555
H5_4 C3_4 1_555 1_555
N2_4 C8_4 1_555 1_555
H13_4 C8_4 1_555 1_555
N3A_4 C3A_4 1_555 1_555
H5A_4 C3A_4 1_555 1_555
N2A_4 C8A_4 1_555 1_555
H13A_4 C8A_4 1_555 1_555
C6_2 C6A_2 1_555 1_555
H9A_2 C6A_2 1_555 1_555
H10A_2 C6A_2 1_555 1_555
H3A_2 C2A_2 1_555 1_555
H4A_2 C2A_2 1_555 1_555
C10A_2 C2A_2 1_555 1_555
C14_2 C14A_2 1_555 1_555
H22A_2 C14A_2 1_555 1_555
H23A_2 C14A_2 1_555 1_555
Mo2A_9 O12A_8 1_555 1_555
C12_7 N6_7 1_555 1_555
C18_7 N6_7 1_555 1_555
C12A_7 N6A_7 1_555 1_555
C18A_7 N6A_7 1_555 1_555
C3_7 N10_7 1_555 1_555
C8_7 N10_7 1_555 1_555
C3A_7 N10A_7 1_555 1_555
C8A_7 N10A_7 1_555 1_555
Mo4_8 O5_7 1_555 1_555
Mo2A_10 O7A_7 1_555 1_555
Mo1_10 O11A_7 1_555 1_555
Mo1A_10 O13A_7 1_555 1_555
C4_4 N4_4 1_555 1_555
C4A_4 N4A_4 1_555 1_555
C20_4 N8_4 1_555 1_555
C20A_4 N8A_4 1_555 1_555
Mo2_10 O3_6 1_555 1_555
Mo4A_8 O3A_6 1_555 1_555
Cu1_9 O12A_9 1_555 1_555
Mo3A_10 O13_7 1_555 1_555
Mo2A_11 O3A_7 1_555 1_555
Mo4_9 O3_7 1_555 1_555
Cu1_10 O12_8 1_555 1_555
Mo3_9 O13A_8 1_555 1_555
H1_2 C1_2 1_555 1_555
H2_2 C1_2 1_555 1_555
C2_2 C1_2 1_555 1_555
H1A_3 C1A_3 1_555 1_555
H2A_3 C1A_3 1_555 1_555
C2A_3 C1A_3 1_555 1_555
H17_2 C11_2 1_555 1_555
H18_2 C11_2 1_555 1_555
C14_3 C11_2 1_555 1_555
Mo3_10 O5_8 1_555 1_555
Mo2A_12 O11A_9 1_555 1_555
Mo4A_9 O13_8 1_555 1_555
Cu2_10 O4A_9 1_555 1_555
Mo3A_11 O5A_8 1_555 1_555
Mo2_11 O11_9 1_555 1_555
C6_3 C19_2 1_555 1_555
H29_2 C19_2 1_555 1_555
H30_2 C19_2 1_555 1_555
C10_2 C17_2 1_555 1_555
H26_2 C17_2 1_555 1_555
H27_2 C17_2 1_555 1_555
C10A_3 C17A_2 1_555 1_555
H26A_2 C17A_2 1_555 1_555
H27A_2 C17A_2 1_555 1_555
Mo2A_13 O3A_8 1_555 1_555
Mo4_10 O3_9 1_555 1_555
Cu1_11 O12_9 1_555 1_555
Mo3_11 O13A_10 1_555 1_555
H1_3 C1_3 1_555 1_555
H2_3 C1_3 1_555 1_555
C2_3 C1_3 1_555 1_555
H17_3 C11_3 1_555 1_555
H18_3 C11_3 1_555 1_555
C14_4 C11_3 1_555 1_555
H17A_3 C11A_3 1_555 1_555
H18A_3 C11A_3 1_555 1_555
C14A_3 C11A_3 1_555 1_555
Mo4A_10 O5A_9 1_555 1_555
Mo2_12 O7_8 1_555 1_555
Mo1A_11 O11_10 1_555 1_555
Mo1_11 O13_10 1_555 1_555
C4_5 N4_5 1_555 1_555
C4A_5 N4A_5 1_555 1_555
C20_5 N8_5 1_555 1_555
C20A_5 N8A_5 1_555 1_555
O3A_9 Mo2A_7 1_555 1_555
O6A_10 Mo2A_7 1_555 1_555
O7A_8 Mo2A_7 1_555 1_555
O9A_7 Mo2A_7 1_555 1_555
O11A_11 Mo2A_7 1_555 1_555
N5_5 C12_5 1_555 1_555
H19_5 C12_5 1_555 1_555
N11_5 C18_5 1_555 1_555
H28_5 C18_5 1_555 1_555
N5A_5 C12A_5 1_555 1_555
H19A_5 C12A_5 1_555 1_555
N11A_5 C18A_5 1_555 1_555
H28A_5 C18A_5 1_555 1_555
N3_5 C3_5 1_555 1_555
H5_5 C3_5 1_555 1_555
N2_5 C8_5 1_555 1_555
H13_5 C8_5 1_555 1_555
N3A_5 C3A_5 1_555 1_555
H5A_5 C3A_5 1_555 1_555
N2A_5 C8A_5 1_555 1_555
H13A_5 C8A_5 1_555 1_555
O5_9 Mo3_8 1_555 1_555
O7A_9 Mo3_8 1_555 1_555
O8_8 Mo3_8 1_555 1_555
O11A_12 Mo3_8 1_555 1_555
O13A_11 Mo3_8 1_555 1_555
N9_7 C5_7 1_555 1_555
H8_7 C5_7 1_555 1_555
N4_7 C9_7 1_555 1_555
H14_7 C9_7 1_555 1_555
N9A_7 C5A_7 1_555 1_555
H8A_7 C5A_7 1_555 1_555
N4A_7 C9A_7 1_555 1_555
H14A_7 C9A_7 1_555 1_555
N1_7 C15_7 1_555 1_555
H24_7 C15_7 1_555 1_555
N8_7 C16_7 1_555 1_555
H25_7 C16_7 1_555 1_555
N1A_7 C15A_7 1_555 1_555
H24A_7 C15A_7 1_555 1_555
N8A_7 C16A_7 1_555 1_555
H25A_7 C16A_7 1_555 1_555
O3A_10 Mo2A_8 1_555 1_555
O6A_11 Mo2A_8 1_555 1_555
O7A_10 Mo2A_8 1_555 1_555
O9A_8 Mo2A_8 1_555 1_555
O11A_13 Mo2A_8 1_555 1_555
N5_6 C12_6 1_555 1_555
H19_6 C12_6 1_555 1_555
N11_6 C18_6 1_555 1_555
H28_6 C18_6 1_555 1_555
N5A_6 C12A_6 1_555 1_555
H19A_6 C12A_6 1_555 1_555
N11A_6 C18A_6 1_555 1_555
H28A_6 C18A_6 1_555 1_555
N3_6 C3_6 1_555 1_555
H5_6 C3_6 1_555 1_555
N2_6 C8_6 1_555 1_555
H13_6 C8_6 1_555 1_555
N3A_6 C3A_6 1_555 1_555
H5A_6 C3A_6 1_555 1_555
N2A_6 C8A_6 1_555 1_555
H13A_6 C8A_6 1_555 1_555
O12_10 Cu1_8 1_555 1_555
N6_8 Cu1_8 1_555 1_555
N6A_8 Cu1_8 1_555 1_555
N10_8 Cu1_8 1_555 1_555
N10A_8 Cu1_8 1_555 1_555
O4A_10 Cu2_9 1_555 1_555
N7_9 Cu2_9 1_555 1_555
N7A_9 Cu2_9 1_555 1_555
N12_9 Cu2_9 1_555 1_555
N12A_9 Cu2_9 1_555 1_555
Mo3_12 O4_9 1_555 1_555
C5_8 N7_8 1_555 1_555
C9_8 N7_8 1_555 1_555
C5A_8 N7A_8 1_555 1_555
C9A_8 N7A_8 1_555 1_555
C15_8 N12_8 1_555 1_555
C16_8 N12_8 1_555 1_555
C15A_8 N12A_8 1_555 1_555
C16A_8 N12A_8 1_555 1_555
Mo4A_11 O5A_10 1_555 1_555
Mo2_13 O7_9 1_555 1_555
Mo1A_12 O11_11 1_555 1_555
Mo1_12 O13_11 1_555 1_555
C4_6 N4_6 1_555 1_555
C4A_6 N4A_6 1_555 1_555
C20_6 N8_6 1_555 1_555
C20A_6 N8A_6 1_555 1_555
O11 Mo3A_2 1_555 1_555
O13 Mo3A_2 1_555 1_555
N6 C12 1_555 1_555
N7 C9 1_555 1_555
N10 C8 1_555 1_555
N11 C18 1_555 1_555
N12 C15 1_555 1_555
C1 C4 1_555 1_555
C7 C19 1_555 1_555
C11 C20 1_555 1_555
C13 C17 1_555 1_555
N12A C16A 1_555 1_555
N6A C18A 1_555 1_555
N7A C9A 1_555 1_555
N10A C8A 1_555 1_555
C1A C4A 1_555 1_555
C13A C17A 1_555 1_555
O11A Mo3_2 1_555 1_555
O13A Mo4_2 1_555 1_555
O11A_2 Mo3_3 1_555 1_555
O11A_3 Mo2A_3 1_555 1_555
O13A_2 Mo1A_2 1_555 1_555
O13A_2 Mo3_3 1_555 1_555
Mo4A_2 O5A_3 1_555 1_555
Mo3_2 O13A_3 1_555 1_555
Mo1_2 O13_3 1_555 1_555
O11_3 Mo2_3 1_555 1_555
O13_2 Mo4A_3 1_555 1_555
O5A_2 Mo3A_3 1_555 1_555
O13_3 Mo3A_3 1_555 1_555
Mo2A_2 O6A_2 1_555 1_555
Mo2A_2 O3A_2 1_555 1_555
Mo2A_2 O7A_3 1_555 1_555
Mo2A_3 O6A_3 1_555 1_555
O5_3 Mo4_3 1_555 1_555
O6_2 Mo2_2 1_555 1_555
Mo3A_3 O7_3 1_555 1_555
Mo4_3 O3_3 1_555 1_555
Mo1_4 O6_4 1_555 1_555
O11_4 Mo2_4 1_555 1_555
O6_3 Mo2_4 1_555 1_555
O13_4 Mo3A_6 1_555 1_555
O13_4 Mo4A_4 1_555 1_555
N5A_2 N11A_2 1_555 1_555
N9A_2 N4A_2 1_555 1_555
N1A_2 N8A_2 1_555 1_555
Mo3_5 O7A_5 1_555 1_555
Mo3_5 O11A_6 1_555 1_555
O13A_4 Mo4_4 1_555 1_555
O3A_4 Mo2A_5 1_555 1_555
O11A_4 Mo2A_5 1_555 1_555
O11A_4 Mo3_6 1_555 1_555
Mo3A_6 O7_4 1_555 1_555
Mo4A_4 O5A_6 1_555 1_555
O11A_5 Mo2A_6 1_555 1_555
O13A_5 Mo4_5 1_555 1_555
O11_5 Mo2_6 1_555 1_555
O13_5 Mo4A_5 1_555 1_555
N9_2 N4_2 1_555 1_555
N9A_3 N4A_3 1_555 1_555
N1_2 N8_2 1_555 1_555
O11_6 Mo3A_7 1_555 1_555
N5_2 N11_2 1_555 1_555
N3_2 N2_2 1_555 1_555
N3A_2 N2A_2 1_555 1_555
O13A_6 Mo1A_8 1_555 1_555
O13A_6 Mo4_7 1_555 1_555
O11_7 Mo2_7 1_555 1_555
O13_6 Mo4A_7 1_555 1_555
N9_3 N4_3 1_555 1_555
N1_3 N8_3 1_555 1_555
N1A_3 N8A_3 1_555 1_555
Mo3_6 O5_6 1_555 1_555
Mo3_6 O7A_6 1_555 1_555
Mo1A_5 O6A_6 1_555 1_555
Mo1_6 O6_7 1_555 1_555
Mo3A_7 O13_8 1_555 1_555
Mo1A_7 O13A_9 1_555 1_555
Mo1_8 O13_9 1_555 1_555
Mo1_9 O6_9 1_555 1_555
O11A_7 Mo2A_10 1_555 1_555
O13A_7 Mo4_8 1_555 1_555
N9_4 N4_4 1_555 1_555
N9A_4 N4A_4 1_555 1_555
N1_4 N8_4 1_555 1_555
N1A_4 N8A_4 1_555 1_555
O6_6 Mo2_10 1_555 1_555
O13_7 Mo4A_8 1_555 1_555
O11_8 Mo2_10 1_555 1_555
O11_8 Mo3A_10 1_555 1_555
O6A_7 Mo2A_11 1_555 1_555
O13A_8 Mo4_9 1_555 1_555
O11A_8 Mo2A_11 1_555 1_555
O11A_8 Mo3_9 1_555 1_555
O13A_9 Mo3_10 1_555 1_555
O11A_9 Mo3_10 1_555 1_555
O5A_7 Mo4A_9 1_555 1_555
O6A_8 Mo2A_12 1_555 1_555
O13_9 Mo3A_11 1_555 1_555
O11_9 Mo3A_11 1_555 1_555
O6_8 Mo2_11 1_555 1_555
O3_8 Mo2_11 1_555 1_555
O6A_9 Mo2A_13 1_555 1_555
O13A_10 Mo4_10 1_555 1_555
O11A_10 Mo2A_13 1_555 1_555
O11A_10 Mo3_11 1_555 1_555
O11_10 Mo2_12 1_555 1_555
O13_10 Mo4A_10 1_555 1_555
N9_5 N4_5 1_555 1_555
N9A_5 N4A_5 1_555 1_555
N1_5 N8_5 1_555 1_555
N1A_5 N8A_5 1_555 1_555
O11_11 Mo2_13 1_555 1_555
O13_11 Mo4A_11 1_555 1_555
N9_6 N4_6 1_555 1_555
N9A_6 N4A_6 1_555 1_555
N1_6 N8_6 1_555 1_555
N1A_6 N8A_6 1_555 1_555
N5_3 N11_3 1_555 1_555
N5A_3 N11A_3 1_555 1_555
N3_3 N2_3 1_555 1_555
N3A_3 N2A_3 1_555 1_555
N5_4 N11_4 1_555 1_555
N5A_4 N11A_4 1_555 1_555
N3_4 N2_4 1_555 1_555
N3A_4 N2A_4 1_555 1_555

#END
