
#######################################################################
#
#                 Cambridge Crystallographic Data Centre
#                                CCDC 
#
#######################################################################
#
# If this CIF has been generated from an entry in the Cambridge 
# Structural Database, then it will include bibliographic, chemical, 
# crystal, experimental, refinement or atomic coordinate data resulting 
# from the CCDC's data processing and validation procedures.
#
#######################################################################

data_ESEVIH
_chemical_formula_moiety         '(C28 H8 N4 O14 Zn4)n'
_symmetry_cell_setting           tetragonal
_symmetry_space_group_name_H-M   'P 4/m n c'
_symmetry_Int_Tables_number      128
_space_group_name_Hall           '-P 4 2n'
loop_
_symmetry_equiv_pos_site_id
_symmetry_equiv_pos_as_xyz
1 x,y,z
2 -y,x,z
3 y,-x,z
4 1/2+y,1/2+x,1/2-z
5 x,y,-z
6 1/2+x,1/2-y,1/2+z
7 1/2-x,1/2+y,1/2+z
8 1/2+y,1/2+x,1/2+z
9 -x,-y,-z
10 y,-x,-z
11 -y,x,-z
12 1/2-y,1/2-x,1/2+z
13 -x,-y,z
14 1/2-x,1/2+y,1/2-z
15 1/2+x,1/2-y,1/2-z
16 1/2-y,1/2-x,1/2-z
_cell_length_a                   16.3235(9)
_cell_length_b                   16.3235(9)
_cell_length_c                   11.6695(9)
_cell_angle_alpha                90
_cell_angle_beta                 90
_cell_angle_gamma                90
_cell_volume                     3109.42
loop_
_atom_site_label
_atom_site_type_symbol
_atom_site_fract_x
_atom_site_fract_y
_atom_site_fract_z
N1 N 0.5706(6) 0.7964(5) -0.0733(9)
C7 C 0.6171(8) 0.8599(7) -0.1072(18)
C8 C 0.5907(9) 0.9400(8) -0.096(2)
C9 C 0.5159(7) 0.9569(7) 0.0000
N1D N 0.5706(6) 0.7964(5) 0.0733(9)
C7D C 0.6171(8) 0.8599(7) 0.1072(18)
C8D C 0.5907(9) 0.9400(8) 0.096(2)
C9H C 0.4841(7) 1.0431(7) 0.0000
C8H C 0.4093(9) 1.0600(8) 0.096(2)
C7H C 0.3829(8) 1.1401(7) 0.1072(18)
N1H N 0.4294(6) 1.2036(5) 0.0733(9)
N1L N 0.4294(6) 1.2036(5) -0.0733(9)
C7L C 0.3829(8) 1.1401(7) -0.1072(18)
C8L C 0.4093(9) 1.0600(8) -0.096(2)
Zn1 Zn 0.61390(4) 0.65257(5) -0.13561(5)
O1 O 0.5690(3) 0.6045(3) 0.0000
O2 O 0.7201(2) 0.6999(2) -0.0957(3)
O3 O 0.9578(3) 0.8341(2) -0.3011(3)
O4 O 1.0743(2) 0.8101(3) -0.2154(3)
C1 C 0.8358(4) 0.7504(4) 0.0000
C2 C 0.8750(3) 0.7672(3) -0.1028(4)
C3 C 0.9547(3) 0.7972(3) -0.1035(4)
C4 C 0.9952(4) 0.8102(4) 0.0000
C5 C 0.7516(4) 0.7147(4) 0.0000
C6 C 0.9974(3) 0.8153(3) -0.2143(4)
H1 H 0.517(6) 0.599(5) 0.0000
H2 H 0.848(3) 0.760(3) -0.172(5)
H3 H 1.050(5) 0.829(4) 0.0000
O2D O 0.7201(2) 0.6999(2) 0.0957(3)
C3D C 0.9547(3) 0.7972(3) 0.1035(4)
C2D C 0.8750(3) 0.7672(3) 0.1028(4)
H2D H 0.848(3) 0.760(3) 0.172(5)
C6D C 0.9974(3) 0.8153(3) 0.2143(4)
O3D O 0.9578(3) 0.8341(2) 0.3011(3)
O4D O 1.0743(2) 0.8101(3) 0.2154(3)
O2O O 0.8001(2) 0.7799(2) -0.4043(3)
O3O O 0.6659(2) 0.5422(3) -0.1989(3)
O4O O 0.6899(3) 0.4257(2) -0.2846(3)
C1O C 0.7496(4) 0.6642(4) -0.5000
C2O C 0.7328(3) 0.6250(3) -0.3972(4)
C3O C 0.7028(3) 0.5453(3) -0.3965(4)
C4O C 0.6898(4) 0.5048(4) -0.5000
C5O C 0.7853(4) 0.7484(4) -0.5000
C6O C 0.6847(3) 0.5026(3) -0.2857(4)
H2O H 0.740(3) 0.652(3) -0.328(5)
H3O H 0.671(4) 0.450(5) -0.5000
O2K O 0.8001(2) 0.7799(2) -0.5957(3)
C3K C 0.7028(3) 0.5453(3) -0.6035(4)
C2K C 0.7328(3) 0.6250(3) -0.6028(4)
H2K H 0.740(3) 0.652(3) -0.672(5)
C6K C 0.6847(3) 0.5026(3) -0.7143(4)
O3K O 0.6659(2) 0.5422(3) -0.8011(3)
O4K O 0.6899(3) 0.4257(2) -0.7154(3)
Zn1D Zn 0.61390(4) 0.65257(5) 0.13561(5)
Zn1O Zn 0.84743(5) 0.88610(4) -0.36439(5)
Zn1K Zn 0.84743(5) 0.88610(4) -0.63561(5)
O1O O 0.8955(3) 0.9310(3) -0.5000
H1O H 0.901(5) 0.983(6) -0.5000
O4N O 0.5743(2) 0.6899(3) -0.2846(3)
Zn1N Zn 1.11390(4) 0.84743(5) -0.36439(5)
Zn1K_2 Zn 0.84743(5) 0.88610(4) 0.36439(5)
Zn1E Zn 1.11390(4) 0.84743(5) 0.36439(5)
Zn1B Zn 0.65257(5) 0.38610(4) -0.13561(5)
Zn1D_2 Zn 0.61390(4) 0.65257(5) -0.86439(5)
Zn1I Zn 0.65257(5) 0.38610(4) -0.86439(5)
O3K_2 O 0.6659(2) 0.5422(3) 0.1989(3)
O4E O 0.5743(2) 0.6899(3) 0.2846(3)
O4B O 0.8101(3) 0.9257(2) -0.2154(3)
O3D_2 O 0.9578(3) 0.8341(2) -0.6989(3)
O4I O 0.8101(3) 0.9257(2) -0.7846(3)
loop_
_geom_bond_atom_site_label_1
_geom_bond_atom_site_label_2
_geom_bond_site_symmetry_1
_geom_bond_site_symmetry_2
Zn1 O1 1_555 1_555
O1 H1 1_555 1_555
O2 Zn1 1_555 1_555
O3 C6 1_555 1_555
O4 C6 1_555 1_555
N1 C7 1_555 1_555
C1 C2 1_555 1_555
C2 C3 1_555 1_555
C3 C4 1_555 1_555
C4 H3 1_555 1_555
C5 O2 1_555 1_555
C6 C3 1_555 1_555
C7 C8 1_555 1_555
C8 C9 1_555 1_555
C9 C8D 1_555 1_555
H2 C2 1_555 1_555
O2D C5 1_555 1_555
C3D C4 1_555 1_555
C2D C1 1_555 1_555
H2D C2D 1_555 1_555
C6D C3D 1_555 1_555
O3D C6D 1_555 1_555
O4D C6D 1_555 1_555
N1D N1 1_555 1_555
C7D N1D 1_555 1_555
C8D C7D 1_555 1_555
C9H C9 1_555 1_555
C8H C9H 1_555 1_555
C7H C8H 1_555 1_555
N1H C7H 1_555 1_555
N1L N1H 1_555 1_555
C7L N1L 1_555 1_555
C8L C9H 1_555 1_555
O2O C5O 1_555 1_555
O3O Zn1 1_555 1_555
O4O C6O 1_555 1_555
C1O C2O 1_555 1_555
C2O C3O 1_555 1_555
C3O C4O 1_555 1_555
C4O H3O 1_555 1_555
C5O C1O 1_555 1_555
C6O O3O 1_555 1_555
H2O C2O 1_555 1_555
O2K C5O 1_555 1_555
C3K C4O 1_555 1_555
C2K C1O 1_555 1_555
H2K C2K 1_555 1_555
C6K C3K 1_555 1_555
O3K C6K 1_555 1_555
O4K C6K 1_555 1_555
Zn1D O1 1_555 1_555
Zn1O O3 1_555 1_555
Zn1K O2K 1_555 1_555
O1O Zn1O 1_555 1_555
H1O O1O 1_555 1_555
O4N Zn1 1_555 1_555
Zn1N O4 1_555 1_555
Zn1K_2 O3D 1_555 1_555
Zn1E O4D 1_555 1_555
Zn1B O4O 1_555 1_555
Zn1D_2 O3K 1_555 1_555
Zn1I O4K 1_555 1_555
O3K_2 Zn1D 1_555 1_555
O4E Zn1D 1_555 1_555
O4B Zn1O 1_555 1_555
O3D_2 Zn1K 1_555 1_555
O4I Zn1K 1_555 1_555
C1 C5 1_555 1_555
O2D Zn1D 1_555 1_555
C3D C2D 1_555 1_555
C7L C8L 1_555 1_555
O2O Zn1O 1_555 1_555
C3O C6O 1_555 1_555
C3K C2K 1_555 1_555
Zn1K O1O 1_555 1_555

#END
