
#######################################################################
#
#                 Cambridge Crystallographic Data Centre
#                                CCDC 
#
#######################################################################
#
# If this CIF has been generated from an entry in the Cambridge 
# Structural Database, then it will include bibliographic, chemical, 
# crystal, experimental, refinement or atomic coordinate data resulting 
# from the CCDC's data processing and validation procedures.
#
#######################################################################

data_OQEZUH
_chemical_formula_moiety         '(C24 H22 N4 O4 Zn1)n'
_symmetry_cell_setting           tetragonal
_symmetry_space_group_name_H-M   'P 4 n c'
_symmetry_Int_Tables_number      104
_space_group_name_Hall           'P 4 -2n'
loop_
_symmetry_equiv_pos_site_id
_symmetry_equiv_pos_as_xyz
1 x,y,z
2 -y,x,z
3 -x,-y,z
4 y,-x,z
5 1/2-x,1/2+y,1/2+z
6 1/2-y,1/2-x,1/2+z
7 1/2+x,1/2-y,1/2+z
8 1/2+y,1/2+x,1/2+z
_cell_length_a                   14.106(3)
_cell_length_b                   14.106(3)
_cell_length_c                   13.972(3)
_cell_angle_alpha                90
_cell_angle_beta                 90
_cell_angle_gamma                90
_cell_volume                     2780.14
loop_
_atom_site_label
_atom_site_type_symbol
_atom_site_fract_x
_atom_site_fract_y
_atom_site_fract_z
Zn1 Zn 0.0000 0.5000 0.05758(12)
O1 O 0.40004(19) 0.18319(19) 0.58485(16)
O2 O 0.45348(13) 0.09529(14) 0.46614(14)
N1 N 0.11726(16) 0.45396(16) 0.12433(17)
N2 N 0.22276(17) 0.38868(18) 0.21609(17)
C1 C 0.2056(2) 0.4706(3) 0.0861(3)
H1 H 0.2181 0.5052 0.0309
C2 C 0.2697(2) 0.4295(3) 0.1408(3)
H2 H 0.3347 0.4283 0.1302
C3 C 0.1299(2) 0.4046(2) 0.2026(2)
C4 C 0.0520(2) 0.3677(3) 0.2668(3)
H3 H 0.0625 0.3914 0.3311
H4 H -0.0081 0.3931 0.2446
C5 C 0.0448(4) 0.2640(3) 0.2706(6)
H5 H 0.0346 0.2396 0.2073
H6 H -0.0074 0.2463 0.3110
H7 H 0.1025 0.2382 0.2962
C6 C 0.2668(2) 0.3328(2) 0.28926(19)
C7 C 0.2588(3) 0.3558(2) 0.3847(2)
H8 H 0.2232 0.4082 0.4030
C8 C 0.3028(2) 0.3018(2) 0.4527(3)
H9 H 0.2948 0.3160 0.5172
C9 C 0.3595(2) 0.2259(2) 0.4258(2)
C10 C 0.3674(2) 0.2044(2) 0.3297(2)
H10 H 0.4041 0.1529 0.3109
C11 C 0.3225(2) 0.2570(2) 0.2625(2)
H11 H 0.3293 0.2419 0.1981
C12 C 0.4078(2) 0.1649(2) 0.4991(2)
O1B O -0.40004(19) 0.81681(19) 0.58485(16)
O2B O -0.45348(13) 0.90471(14) 0.46614(14)
N1B N -0.11726(16) 0.54604(16) 0.12433(17)
N2B N -0.22276(17) 0.61132(18) 0.21609(17)
C1B C -0.2056(2) 0.5294(3) 0.0861(3)
H1B H -0.2181 0.4948 0.0309
C2B C -0.2697(2) 0.5705(3) 0.1408(3)
H2B H -0.3347 0.5717 0.1302
C3B C -0.1299(2) 0.5954(2) 0.2026(2)
C4B C -0.0520(2) 0.6323(3) 0.2668(3)
H3B H -0.0625 0.6086 0.3311
H4B H 0.0081 0.6069 0.2446
C5B C -0.0448(4) 0.7360(3) 0.2706(6)
H5B H -0.0346 0.7604 0.2073
H6B H 0.0074 0.7537 0.3110
H7B H -0.1025 0.7618 0.2962
C6B C -0.2668(2) 0.6672(2) 0.28926(19)
C7B C -0.2588(3) 0.6442(2) 0.3847(2)
H8B H -0.2232 0.5918 0.4030
C8B C -0.3028(2) 0.6982(2) 0.4527(3)
H9B H -0.2948 0.6840 0.5172
C9B C -0.3595(2) 0.7741(2) 0.4258(2)
C10B C -0.3674(2) 0.7956(2) 0.3297(2)
H10B H -0.4041 0.8471 0.3109
C11B C -0.3225(2) 0.7430(2) 0.2625(2)
H11B H -0.3293 0.7581 0.1981
C12B C -0.4078(2) 0.8351(2) 0.4991(2)
Zn1D Zn -0.5000 1.0000 0.55758(12)
Zn1D_2 Zn 0.5000 -0.0000 0.55758(12)
O2D O 0.04652(13) 0.59529(14) -0.03386(14)
O2F O -0.04652(13) 0.40471(14) -0.03386(14)
loop_
_geom_bond_atom_site_label_1
_geom_bond_atom_site_label_2
_geom_bond_site_symmetry_1
_geom_bond_site_symmetry_2
Zn1 N1 1_555 1_555
O1 C12 1_555 1_555
O2 C12 1_555 1_555
N1 C1 1_555 1_555
N2 C2 1_555 1_555
C1 H1 1_555 1_555
C2 C1 1_555 1_555
H2 C2 1_555 1_555
C3 N1 1_555 1_555
C4 C3 1_555 1_555
H3 C4 1_555 1_555
H4 C4 1_555 1_555
C5 C4 1_555 1_555
H5 C5 1_555 1_555
H6 C5 1_555 1_555
H7 C5 1_555 1_555
C6 N2 1_555 1_555
C7 C6 1_555 1_555
H8 C7 1_555 1_555
C8 C7 1_555 1_555
H9 C8 1_555 1_555
C9 C8 1_555 1_555
C10 C9 1_555 1_555
H10 C10 1_555 1_555
C11 C6 1_555 1_555
H11 C11 1_555 1_555
C12 C9 1_555 1_555
O1B C12B 1_555 1_555
O2B C12B 1_555 1_555
N1B Zn1 1_555 1_555
N2B C2B 1_555 1_555
C1B N1B 1_555 1_555
H1B C1B 1_555 1_555
C2B C1B 1_555 1_555
H2B C2B 1_555 1_555
C3B N1B 1_555 1_555
C4B C3B 1_555 1_555
H3B C4B 1_555 1_555
H4B C4B 1_555 1_555
C5B C4B 1_555 1_555
H5B C5B 1_555 1_555
H6B C5B 1_555 1_555
H7B C5B 1_555 1_555
C6B N2B 1_555 1_555
C7B C6B 1_555 1_555
H8B C7B 1_555 1_555
C8B C7B 1_555 1_555
H9B C8B 1_555 1_555
C9B C8B 1_555 1_555
C10B C9B 1_555 1_555
H10B C10B 1_555 1_555
C11B C6B 1_555 1_555
H11B C11B 1_555 1_555
C12B C9B 1_555 1_555
Zn1D O2B 1_555 1_555
Zn1D_2 O2 1_555 1_555
O2D Zn1 1_555 1_555
O2F Zn1 1_555 1_555
N2 C3 1_555 1_555
C10 C11 1_555 1_555
N2B C3B 1_555 1_555
C10B C11B 1_555 1_555

#END
