
#######################################################################
#
#                 Cambridge Crystallographic Data Centre
#                                CCDC 
#
#######################################################################
#
# If this CIF has been generated from an entry in the Cambridge 
# Structural Database, then it will include bibliographic, chemical, 
# crystal, experimental, refinement or atomic coordinate data resulting 
# from the CCDC's data processing and validation procedures.
#
#######################################################################

data_PUFQOY
_chemical_formula_moiety         '(C78 H46 N5 O34 Zn8 1-)n'
_symmetry_cell_setting           monoclinic
_symmetry_space_group_name_H-M   'P 21/c'
_symmetry_Int_Tables_number      14
_space_group_name_Hall           '-P 2ybc'
loop_
_symmetry_equiv_pos_site_id
_symmetry_equiv_pos_as_xyz
1 x,y,z
2 -x,1/2+y,1/2-z
3 -x,-y,-z
4 x,1/2-y,1/2+z
_cell_length_a                   10.298(3)
_cell_length_b                   31.469(8)
_cell_length_c                   32.722(8)
_cell_angle_alpha                90
_cell_angle_beta                 106.720(8)
_cell_angle_gamma                90
_cell_volume                     10155.8
loop_
_atom_site_label
_atom_site_type_symbol
_atom_site_fract_x
_atom_site_fract_y
_atom_site_fract_z
C1 C 1.0050(2) 0.60473(7) 0.28536(7)
C2 C 0.8737(2) 0.58141(7) 0.27724(7)
C3 C 0.7619(2) 0.60414(7) 0.27819(7)
H1 H 0.7667 0.6336 0.2810
C4 C 0.6390(2) 0.58278(7) 0.27490(7)
C5 C 0.6281(2) 0.54005(7) 0.26669(7)
H2 H 0.5460 0.5262 0.2634
C6 C 0.7420(2) 0.51735(7) 0.26324(7)
C7 C 0.8657(2) 0.53846(7) 0.26890(7)
H3 H 0.9418 0.5236 0.2670
C8 C 0.5292(2) 0.60624(7) 0.28259(7)
C9 C 0.6331(2) 0.44967(7) 0.24674(7)
C10 C 0.6576(2) 0.40425(7) 0.23574(7)
C11 C 0.5476(2) 0.37732(7) 0.23680(7)
H4 H 0.4730 0.3878 0.2442
C12 C 0.5556(2) 0.33481(7) 0.22646(7)
H5 H 0.4851 0.3164 0.2264
C13 C 0.6703(2) 0.31976(7) 0.21609(7)
C14 C 0.7758(2) 0.34457(7) 0.21409(7)
H6 H 0.8505 0.3341 0.2067
C15 C 0.7629(3) 0.38633(8) 0.22397(8)
H7 H 0.8329 0.4044 0.2226
C16 C 0.6789(2) 0.27574(7) 0.20565(6)
C17 C 0.9023(2) 0.21085(7) 0.11297(7)
C18 C 1.0042(2) 0.21855(7) 0.08888(7)
C19 C 0.9630(2) 0.22696(7) 0.04503(7)
H8 H 0.8712 0.2291 0.0305
C20 C 1.0594(2) 0.23205(7) 0.02333(7)
C21 C 1.1966(2) 0.22782(7) 0.04471(7)
H9 H 1.2610 0.2308 0.0300
C22 C 1.2368(2) 0.21923(7) 0.08801(7)
C23 C 1.1414(2) 0.21444(7) 0.11000(7)
H10 H 1.1692 0.2084 0.1391
C24 C 1.3804(2) 0.20713(7) 0.11115(7)
C25 C 0.9170(2) 0.26868(7) -0.04435(7)
C26 C 0.9030(2) 0.27724(7) -0.09058(7)
C27 C 0.7791(2) 0.29192(7) -0.11628(7)
H11 H 0.7092 0.2976 -0.1043
C28 C 0.7589(2) 0.29823(8) -0.15965(7)
H12 H 0.6762 0.3086 -0.1765
C29 C 0.8621(2) 0.28911(7) -0.17800(7)
C30 C 0.9866(2) 0.27402(7) -0.15287(7)
H13 H 1.0557 0.2680 -0.1651
C31 C 1.0068(2) 0.26804(7) -0.10914(7)
H14 H 1.0897 0.2579 -0.0922
C32 C 0.8302(2) 0.29910(7) -0.21802(7)
C33 C 0.6148(2) 0.08730(7) 0.09113(7)
C34 C 0.5715(2) 0.05474(7) 0.05594(8)
C35 C 0.4970(2) 0.07648(7) 0.01910(7)
H15 H 0.4864 0.1058 0.0195
C36 C 0.4389(2) 0.05318(7) -0.01820(7)
H16 H 0.3882 0.0671 -0.0427
C37 C 0.4566(2) 0.00975(7) -0.01879(7)
C38 C 0.5898(2) 0.01124(7) 0.05499(7)
H17 H 0.6347 -0.0032 0.0798
N1 N 0.72850(19) 0.47525(6) 0.25290(6)
H18 H 0.8016 0.4641 0.2500
H19 H 1.0702 0.2328 -0.0333
N2 N 1.01959(18) 0.24366(6) -0.01914(6)
O1 O 0.69548(16) 0.16684(5) 0.17038(5)
O2 O 1.00598(15) 0.64285(5) 0.29155(5)
O3 O 1.11115(15) 0.58202(5) 0.29096(5)
O4 O 0.53171(15) 0.64519(5) 0.28067(5)
O5 O 0.43368(15) 0.58563(5) 0.28892(5)
O6 O 0.58854(16) 0.25415(5) 0.21596(5)
O7 O 0.76694(15) 0.26577(5) 0.18860(5)
O8 O 0.51739(14) 0.45653(5) 0.24872(5)
O9 O 0.94519(16) 0.21172(5) 0.15174(5)
O10 O 0.78376(16) 0.20549(5) 0.09122(5)
O11 O 1.41126(16) 0.20009(5) 0.14881(5)
O12 O 1.46459(16) 0.20659(5) 0.08951(5)
O13 O 0.92371(15) 0.28845(5) -0.24336(5)
O14 O 0.72238(16) 0.31568(5) -0.23413(5)
O15 O 0.83675(16) 0.28503(5) -0.03126(5)
O16 O 0.64804(16) 0.07559(5) 0.12889(5)
O17 O 0.60426(15) 0.12673(5) 0.07873(5)
Zn1 Zn 0.86763(3) 0.194270(8) 0.198432(8)
Zn2 Zn 0.70849(3) 0.106261(8) 0.182841(8)
Zn3 Zn 0.57754(3) 0.190964(8) 0.201298(8)
Zn4 Zn 0.64179(3) 0.178848(9) 0.111568(8)
C33B C 0.3852(2) -0.08730(7) -0.09113(7)
C34B C 0.4285(2) -0.05474(7) -0.05594(8)
C35B C 0.5030(2) -0.07648(7) -0.01910(7)
H15B H 0.5136 -0.1058 -0.0195
C36B C 0.5611(2) -0.05318(7) 0.01820(7)
H16B H 0.6118 -0.0671 0.0427
C37B C 0.5434(2) -0.00975(7) 0.01879(7)
C38B C 0.4102(2) -0.01124(7) -0.05499(7)
H17B H 0.3653 0.0032 -0.0798
O16B O 0.35196(16) -0.07559(5) -0.12889(5)
O17B O 0.39574(15) -0.12673(5) -0.07873(5)
C1B C -0.0050(2) -0.60473(7) -0.28536(7)
C2B C 0.1263(2) -0.58141(7) -0.27724(7)
C3B C 0.2381(2) -0.60414(7) -0.27819(7)
H1B H 0.2333 -0.6336 -0.2810
C4B C 0.3610(2) -0.58278(7) -0.27490(7)
C5B C 0.3719(2) -0.54005(7) -0.26669(7)
H2B H 0.4540 -0.5262 -0.2634
C6B C 0.2580(2) -0.51735(7) -0.26324(7)
C7B C 0.1343(2) -0.53846(7) -0.26890(7)
H3B H 0.0582 -0.5236 -0.2670
C8B C 0.4708(2) -0.60624(7) -0.28259(7)
C9B C 0.3669(2) -0.44967(7) -0.24674(7)
C10B C 0.3424(2) -0.40425(7) -0.23574(7)
C11B C 0.4524(2) -0.37732(7) -0.23680(7)
H4B H 0.5270 -0.3878 -0.2442
C12B C 0.4444(2) -0.33481(7) -0.22646(7)
H5B H 0.5149 -0.3164 -0.2264
C13B C 0.3297(2) -0.31976(7) -0.21609(7)
C14B C 0.2242(2) -0.34457(7) -0.21409(7)
H6B H 0.1495 -0.3341 -0.2067
C15B C 0.2371(3) -0.38633(8) -0.22397(8)
H7B H 0.1671 -0.4044 -0.2226
C16B C 0.3211(2) -0.27574(7) -0.20565(6)
C17B C 0.0977(2) -0.21085(7) -0.11297(7)
C18B C -0.0042(2) -0.21855(7) -0.08888(7)
C19B C 0.0370(2) -0.22696(7) -0.04503(7)
H8B H 0.1288 -0.2291 -0.0305
C20B C -0.0594(2) -0.23205(7) -0.02333(7)
C21B C -0.1966(2) -0.22782(7) -0.04471(7)
H9B H -0.2610 -0.2308 -0.0300
C22B C -0.2368(2) -0.21923(7) -0.08801(7)
C23B C -0.1414(2) -0.21444(7) -0.11000(7)
H10B H -0.1692 -0.2084 -0.1391
C24B C -0.3804(2) -0.20713(7) -0.11115(7)
C25B C 0.0830(2) -0.26868(7) 0.04435(7)
C26B C 0.0970(2) -0.27724(7) 0.09058(7)
C27B C 0.2209(2) -0.29192(7) 0.11628(7)
H11B H 0.2908 -0.2976 0.1043
C28B C 0.2411(2) -0.29823(8) 0.15965(7)
H12B H 0.3238 -0.3086 0.1765
C29B C 0.1379(2) -0.28911(7) 0.17800(7)
C30B C 0.0134(2) -0.27402(7) 0.15287(7)
H13B H -0.0557 -0.2680 0.1651
C31B C -0.0068(2) -0.26804(7) 0.10914(7)
H14B H -0.0897 -0.2579 0.0922
C32B C 0.1698(2) -0.29910(7) 0.21802(7)
N1B N 0.27150(19) -0.47525(6) -0.25290(6)
H18B H 0.1984 -0.4641 -0.2500
H19B H -0.0702 -0.2328 0.0333
N2B N -0.01959(18) -0.24366(6) 0.01914(6)
O1B O 0.30452(16) -0.16684(5) -0.17038(5)
O2B O -0.00598(15) -0.64285(5) -0.29155(5)
O3B O -0.11115(15) -0.58202(5) -0.29096(5)
O4B O 0.46829(15) -0.64519(5) -0.28067(5)
O5B O 0.56632(15) -0.58563(5) -0.28892(5)
O6B O 0.41146(16) -0.25415(5) -0.21596(5)
O7B O 0.23306(15) -0.26577(5) -0.18860(5)
O8B O 0.48261(14) -0.45653(5) -0.24872(5)
O9B O 0.05481(16) -0.21172(5) -0.15174(5)
O10B O 0.21624(16) -0.20549(5) -0.09122(5)
O11B O -0.41126(16) -0.20009(5) -0.14881(5)
O12B O -0.46459(16) -0.20659(5) -0.08951(5)
O13B O 0.07629(15) -0.28845(5) 0.24336(5)
O14B O 0.27762(16) -0.31568(5) 0.23413(5)
O15B O 0.16325(16) -0.28503(5) 0.03126(5)
Zn1B Zn 0.13237(3) -0.194270(8) -0.198432(8)
Zn2B Zn 0.29151(3) -0.106261(8) -0.182841(8)
Zn3B Zn 0.42246(3) -0.190964(8) -0.201298(8)
Zn4B Zn 0.35821(3) -0.178848(9) -0.111568(8)
O2A O 0.99402(15) 0.14285(5) 0.20845(5)
O2C O 0.00598(15) -0.14285(5) -0.20845(5)
O3A O 0.88885(15) 0.08202(5) 0.20904(5)
O3C O 0.11115(15) -0.08202(5) -0.20904(5)
O4A O 0.46829(15) 0.14519(5) 0.21933(5)
O4C O 0.53171(15) -0.14519(5) -0.21933(5)
O5A O 0.56632(15) 0.08563(5) 0.21108(5)
O5C O 0.43368(15) -0.08563(5) -0.21108(5)
O11_2 O 0.41126(16) 0.20009(5) 0.14881(5)
O11B_2 O 0.58874(16) -0.20009(5) -0.14881(5)
O12_2 O 0.46459(16) 0.20659(5) 0.08951(5)
O12B_2 O 0.53541(16) -0.20659(5) -0.08951(5)
O13A O 0.07629(15) -0.21155(5) -0.25664(5)
O13C O 0.92371(15) 0.21155(5) 0.25664(5)
O14A O 0.27762(16) -0.18432(5) -0.26587(5)
O14C O 0.72238(16) 0.18432(5) 0.26587(5)
Zn1A Zn 0.13237(3) -0.305730(8) 0.301568(8)
Zn1A_2 Zn 1.13237(3) 0.694270(8) 0.301568(8)
Zn1C Zn -0.13237(3) -0.694270(8) -0.301568(8)
Zn1C_2 Zn 0.86763(3) 0.305730(8) -0.301568(8)
Zn2A Zn 0.29151(3) 0.606261(8) 0.317159(8)
Zn2A_2 Zn 1.29151(3) 0.606261(8) 0.317159(8)
Zn2C Zn -0.29151(3) -0.606261(8) -0.317159(8)
Zn2C_2 Zn 0.70849(3) -0.606261(8) -0.317159(8)
Zn3_2 Zn 1.57754(3) 0.190964(8) 0.201298(8)
Zn3A Zn 0.42246(3) -0.309036(8) 0.298702(8)
Zn3A_2 Zn 0.42246(3) 0.690964(8) 0.298702(8)
Zn3B_2 Zn -0.57754(3) -0.190964(8) -0.201298(8)
Zn3C Zn 0.57754(3) -0.690964(8) -0.298702(8)
Zn3C_2 Zn 0.57754(3) 0.309036(8) -0.298702(8)
Zn4_2 Zn 1.64179(3) 0.178848(9) 0.111568(8)
Zn4B_2 Zn -0.64179(3) -0.178848(9) -0.111568(8)
C39 C -0.0192(2) 0.09965(8) 0.09108(7)
H20 H -0.0586 0.0718 0.0869
H21 H -0.0756 0.1190 0.0709
H22 H -0.0119 0.1091 0.1195
C40 C 0.2330(2) 0.09653(7) 0.12325(7)
H23 H 0.2029 0.1043 0.1474
H24 H 0.3021 0.1159 0.1207
H25 H 0.2691 0.0682 0.1271
N3 N 0.1189(2) 0.09827(6) 0.08466(6)
H26 H 0.1231 0.0754 0.0686
H27 H 0.1287 0.1214 0.0697
loop_
_geom_bond_atom_site_label_1
_geom_bond_atom_site_label_2
_geom_bond_site_symmetry_1
_geom_bond_site_symmetry_2
C1 C2 1_555 1_555
C2 C3 1_555 1_555
C3 H1 1_555 1_555
C4 C3 1_555 1_555
C5 C4 1_555 1_555
H2 C5 1_555 1_555
C6 C5 1_555 1_555
C7 C2 1_555 1_555
H3 C7 1_555 1_555
C8 C4 1_555 1_555
C9 C10 1_555 1_555
C10 C11 1_555 1_555
C11 H4 1_555 1_555
C12 C11 1_555 1_555
H5 C12 1_555 1_555
C13 C12 1_555 1_555
C14 C13 1_555 1_555
H6 C14 1_555 1_555
C15 C10 1_555 1_555
H7 C15 1_555 1_555
C16 C13 1_555 1_555
C17 C18 1_555 1_555
C18 C19 1_555 1_555
C19 H8 1_555 1_555
C20 C19 1_555 1_555
C21 C20 1_555 1_555
H9 C21 1_555 1_555
C22 C21 1_555 1_555
C23 C18 1_555 1_555
H10 C23 1_555 1_555
C24 C22 1_555 1_555
C25 C26 1_555 1_555
C26 C27 1_555 1_555
C27 H11 1_555 1_555
C28 C27 1_555 1_555
H12 C28 1_555 1_555
C29 C28 1_555 1_555
C30 C29 1_555 1_555
H13 C30 1_555 1_555
C31 C26 1_555 1_555
H14 C31 1_555 1_555
C32 C29 1_555 1_555
C33 C34 1_555 1_555
C34 C35 1_555 1_555
C35 H15 1_555 1_555
C36 C35 1_555 1_555
H16 C36 1_555 1_555
C37 C36 1_555 1_555
C38 C34 1_555 1_555
H17 C38 1_555 1_555
N1 C6 1_555 1_555
H18 N1 1_555 1_555
H19 N2 1_555 1_555
N2 C20 1_555 1_555
O1 Zn1 1_555 1_555
O2 C1 1_555 1_555
O3 C1 1_555 1_555
O4 C8 1_555 1_555
O5 C8 1_555 1_555
O6 C16 1_555 1_555
O7 C16 1_555 1_555
O8 C9 1_555 1_555
O9 C17 1_555 1_555
O10 C17 1_555 1_555
O11 C24 1_555 1_555
O12 C24 1_555 1_555
O13 C32 1_555 1_555
O14 C32 1_555 1_555
O15 C25 1_555 1_555
O16 C33 1_555 1_555
O17 C33 1_555 1_555
Zn1 O7 1_555 1_555
Zn2 O1 1_555 1_555
Zn3 O1 1_555 1_555
Zn4 O1 1_555 1_555
C39 H20 1_555 1_555
H21 C39 1_555 1_555
H22 C39 1_555 1_555
C40 H23 1_555 1_555
H24 C40 1_555 1_555
H25 C40 1_555 1_555
N3 C39 1_555 1_555
H26 N3 1_555 1_555
H27 N3 1_555 1_555
C33B C34B 1_555 1_555
C34B C35B 1_555 1_555
C35B H15B 1_555 1_555
C36B C35B 1_555 1_555
H16B C36B 1_555 1_555
C37B C37 1_555 1_555
C38B C37 1_555 1_555
H17B C38B 1_555 1_555
O16B C33B 1_555 1_555
O17B C33B 1_555 1_555
C1B C2B 1_555 1_555
C2B C3B 1_555 1_555
C3B H1B 1_555 1_555
C4B C3B 1_555 1_555
C5B C4B 1_555 1_555
H2B C5B 1_555 1_555
C6B C5B 1_555 1_555
C7B C2B 1_555 1_555
H3B C7B 1_555 1_555
C8B C4B 1_555 1_555
C9B C10B 1_555 1_555
C10B C11B 1_555 1_555
C11B H4B 1_555 1_555
C12B C11B 1_555 1_555
H5B C12B 1_555 1_555
C13B C12B 1_555 1_555
C14B C13B 1_555 1_555
H6B C14B 1_555 1_555
C15B C10B 1_555 1_555
H7B C15B 1_555 1_555
C16B C13B 1_555 1_555
C17B C18B 1_555 1_555
C18B C19B 1_555 1_555
C19B H8B 1_555 1_555
C20B C19B 1_555 1_555
C21B C20B 1_555 1_555
H9B C21B 1_555 1_555
C22B C21B 1_555 1_555
C23B C18B 1_555 1_555
H10B C23B 1_555 1_555
C24B C22B 1_555 1_555
C25B C26B 1_555 1_555
C26B C27B 1_555 1_555
C27B H11B 1_555 1_555
C28B C27B 1_555 1_555
H12B C28B 1_555 1_555
C29B C28B 1_555 1_555
C30B C29B 1_555 1_555
H13B C30B 1_555 1_555
C31B C26B 1_555 1_555
H14B C31B 1_555 1_555
C32B C29B 1_555 1_555
N1B C6B 1_555 1_555
H18B N1B 1_555 1_555
H19B N2B 1_555 1_555
N2B C20B 1_555 1_555
O1B Zn1B 1_555 1_555
O2B C1B 1_555 1_555
O3B C1B 1_555 1_555
O4B C8B 1_555 1_555
O5B C8B 1_555 1_555
O6B C16B 1_555 1_555
O7B C16B 1_555 1_555
O8B C9B 1_555 1_555
O9B C17B 1_555 1_555
O10B C17B 1_555 1_555
O11B C24B 1_555 1_555
O12B C24B 1_555 1_555
O13B C32B 1_555 1_555
O14B C32B 1_555 1_555
O15B C25B 1_555 1_555
Zn1B O7B 1_555 1_555
Zn2B O16B 1_555 1_555
Zn3B O1B 1_555 1_555
Zn4B O17B 1_555 1_555
O2A Zn1 1_555 1_555
O2C Zn1B 1_555 1_555
O3A Zn2 1_555 1_555
O3C Zn2B 1_555 1_555
O4A Zn3 1_555 1_555
O4C Zn3B 1_555 1_555
O5A Zn2 1_555 1_555
O5C Zn2B 1_555 1_555
O11_2 Zn3 1_555 1_555
O11B_2 Zn3B 1_555 1_555
O12_2 Zn4 1_555 1_555
O12B_2 Zn4B 1_555 1_555
O13A Zn1B 1_555 1_555
O13C Zn1 1_555 1_555
O14A Zn3B 1_555 1_555
O14C Zn3 1_555 1_555
Zn1A O13B 1_555 1_555
Zn1A_2 O2 1_555 1_555
Zn1C O2B 1_555 1_555
Zn1C_2 O13 1_555 1_555
Zn2A O5 1_555 1_555
Zn2A_2 O3 1_555 1_555
Zn2C O3B 1_555 1_555
Zn2C_2 O5B 1_555 1_555
Zn3_2 O11 1_555 1_555
Zn3A O14B 1_555 1_555
Zn3A_2 O4 1_555 1_555
Zn3B_2 O11B 1_555 1_555
Zn3C O4B 1_555 1_555
Zn3C_2 O14 1_555 1_555
Zn4_2 O12 1_555 1_555
Zn4B_2 O12B 1_555 1_555
C6 C7 1_555 1_555
C9 N1 1_555 1_555
C14 C15 1_555 1_555
C22 C23 1_555 1_555
C25 N2 1_555 1_555
C30 C31 1_555 1_555
C38 C37B 1_555 1_555
O6 Zn3 1_555 1_555
O9 Zn1 1_555 1_555
O10 Zn4 1_555 1_555
O16 Zn2 1_555 1_555
O17 Zn4 1_555 1_555
C40 N3 1_555 1_555
C34B C38B 1_555 1_555
C36B C37B 1_555 1_555
C6B C7B 1_555 1_555
C9B N1B 1_555 1_555
C14B C15B 1_555 1_555
C22B C23B 1_555 1_555
C25B N2B 1_555 1_555
C30B C31B 1_555 1_555
O1B Zn2B 1_555 1_555
O1B Zn4B 1_555 1_555
O6B Zn3B 1_555 1_555
O9B Zn1B 1_555 1_555
O10B Zn4B 1_555 1_555

#END
