
#######################################################################
#
#                 Cambridge Crystallographic Data Centre
#                                CCDC 
#
#######################################################################
#
# If this CIF has been generated from an entry in the Cambridge 
# Structural Database, then it will include bibliographic, chemical, 
# crystal, experimental, refinement or atomic coordinate data resulting 
# from the CCDC's data processing and validation procedures.
#
#######################################################################

data_PUGSUH
_chemical_formula_moiety         '(C74 H42 N1 O30 Zn8 1-)n'
_symmetry_cell_setting           monoclinic
_symmetry_space_group_name_H-M   'P 21/n'
_symmetry_Int_Tables_number      14
_space_group_name_Hall           '-P 2yn'
loop_
_symmetry_equiv_pos_site_id
_symmetry_equiv_pos_as_xyz
1 x,y,z
2 1/2-x,1/2+y,1/2-z
3 -x,-y,-z
4 1/2+x,1/2-y,1/2+z
_cell_length_a                   10.364(2)
_cell_length_b                   26.746(5)
_cell_length_c                   27.804(6)
_cell_angle_alpha                90
_cell_angle_beta                 93.91(3)
_cell_angle_gamma                90
_cell_volume                     7689.21
loop_
_atom_site_label
_atom_site_type_symbol
_atom_site_fract_x
_atom_site_fract_y
_atom_site_fract_z
C1 C 0.9636(7) 0.3710(3) 0.0715(3)
C2 C 0.9703(7) 0.4169(3) 0.0379(3)
C3 C 0.9556(10) 0.4083(4) -0.0124(4)
H1 H 0.9373 0.3758 -0.0240
C4 C 0.9916(8) 0.4620(3) 0.0560(3)
H2 H 0.9967 0.4669 0.0895
C5 C 1.0071(8) 0.5040(3) 0.0238(3)
C6 C 1.0322(11) 0.5527(4) 0.0448(4)
H3 H 1.0399 0.5577 0.0783
C7 C 1.2451(6) 0.3358(2) 0.2064(2)
C8 C 1.3673(5) 0.3633(2) 0.2152(2)
C9 C 1.4856(5) 0.3403(2) 0.2066(2)
H4 H 1.4869 0.3067 0.1968
C10 C 1.5985(5) 0.3665(2) 0.2125(2)
C11 C 1.5994(6) 0.4153(2) 0.2280(2)
H5 H 1.6782 0.4328 0.2319
C12 C 1.4846(6) 0.4392(2) 0.2380(3)
C13 C 1.3692(6) 0.4125(2) 0.2307(3)
H6 H 1.2908 0.4283 0.2366
C14 C 1.7215(6) 0.3412(2) 0.1979(2)
C15 C 1.4868(6) 0.4918(2) 0.2552(3)
C16 C 1.5908(7) 0.5129(3) 0.2804(3)
H7 H 1.6646 0.4931 0.2874
C17 C 1.5923(7) 0.5613(3) 0.2960(3)
H8 H 1.6659 0.5739 0.3136
C18 C 1.4845(6) 0.5927(2) 0.2858(2)
C19 C 1.3784(7) 0.5730(3) 0.2592(3)
H9 H 1.3063 0.5934 0.2511
C20 C 1.3779(6) 0.5231(3) 0.2443(3)
H10 H 1.3045 0.5100 0.2269
C21 C 1.4874(6) 0.6456(2) 0.3008(2)
C22 C 0.6918(5) 0.2223(2) 0.0819(2)
C23 C 0.5648(5) 0.2193(2) 0.0537(2)
C24 C 0.4523(5) 0.2186(2) 0.0785(2)
H11 H 0.4568 0.2163 0.1123
C25 C 0.3322(5) 0.2215(2) 0.0521(2)
C26 C 0.3249(5) 0.2248(3) 0.0023(2)
H12 H 0.2436 0.2269 -0.0147
C27 C 0.4365(6) 0.2248(2) -0.0230(2)
C28 C 0.5589(5) 0.2244(2) 0.0038(2)
H13 H 0.6354 0.2275 -0.0122
C29 C 0.2126(5) 0.2250(2) 0.0788(2)
C30 C 0.4309(6) 0.2294(3) -0.0757(2)
C31 C 0.3326(7) 0.2550(3) -0.1011(3)
H14 H 0.2658 0.2692 -0.0844
C32 C 0.3306(7) 0.2601(3) -0.1503(2)
H15 H 0.2599 0.2760 -0.1669
C33 C 0.4293(6) 0.2424(3) -0.1755(2)
C34 C 0.5257(7) 0.2174(4) -0.1499(3)
H16 H 0.5936 0.2043 -0.1668
C35 C 0.5296(8) 0.2100(4) -0.1004(3)
H17 H 0.5979 0.1923 -0.0843
C36 C 0.4291(6) 0.2497(3) -0.2294(2)
O1 O 0.9705(3) 0.26971(13) 0.15053(12)
O2 O 0.9476(5) 0.3297(2) 0.05093(19)
O3 O 0.9690(5) 0.3801(2) 0.1151(2)
O4 O 1.2562(4) 0.28814(17) 0.20118(17)
O5 O 1.1419(4) 0.36016(15) 0.20333(15)
O6 O 1.7114(4) 0.29980(17) 0.17835(17)
O7 O 1.8277(4) 0.36491(16) 0.20625(16)
O8 O 1.5874(5) 0.66140(17) 0.32335(18)
O9 O 1.3852(4) 0.67106(17) 0.29198(17)
O10 O 0.6955(3) 0.21220(14) 0.12588(13)
O11 O 0.7906(4) 0.23381(17) 0.05919(14)
O12 O 0.2217(4) 0.21736(17) 0.12337(14)
O13 O 0.1068(4) 0.23408(18) 0.05397(15)
O14 O 0.3300(4) 0.2674(2) -0.25177(16)
O15 O 0.5230(6) 0.2327(3) -0.2489(2)
Zn1 Zn 1.12219(6) 0.23806(2) 0.18285(2)
Zn2 Zn 0.82782(6) 0.23343(2) 0.17772(2)
Zn3 Zn 0.95543(6) 0.26408(3) 0.08185(2)
Zn4 Zn 0.97311(6) 0.33657(2) 0.17495(2)
C1B C 1.0364(7) 0.6290(3) -0.0715(3)
C2B C 1.0297(7) 0.5831(3) -0.0379(3)
C3B C 1.0444(10) 0.5917(4) 0.0124(4)
H1B H 1.0627 0.6242 0.0240
C4B C 1.0084(8) 0.5380(3) -0.0560(3)
H2B H 1.0033 0.5331 -0.0895
C5B C 0.9929(8) 0.4960(3) -0.0238(3)
C6B C 0.9678(11) 0.4473(4) -0.0448(4)
H3B H 0.9601 0.4423 -0.0783
O2B O 1.0524(5) 0.6703(2) -0.05093(19)
O3B O 1.0310(5) 0.6199(2) -0.1151(2)
C7B C 0.7549(6) 0.6642(2) -0.2064(2)
C8B C 0.6327(5) 0.6367(2) -0.2152(2)
C9B C 0.5144(5) 0.6597(2) -0.2066(2)
H4B H 0.5131 0.6933 -0.1968
C10B C 0.4015(5) 0.6335(2) -0.2125(2)
C11B C 0.4006(6) 0.5847(2) -0.2280(2)
H5B H 0.3218 0.5672 -0.2319
C12B C 0.5154(6) 0.5608(2) -0.2380(3)
C13B C 0.6308(6) 0.5875(2) -0.2307(3)
H6B H 0.7092 0.5717 -0.2366
C14B C 0.2785(6) 0.6588(2) -0.1979(2)
C15B C 0.5132(6) 0.5082(2) -0.2552(3)
C16B C 0.4092(7) 0.4871(3) -0.2804(3)
H7B H 0.3354 0.5069 -0.2874
C17B C 0.4077(7) 0.4387(3) -0.2960(3)
H8B H 0.3341 0.4261 -0.3136
C18B C 0.5155(6) 0.4073(2) -0.2858(2)
C19B C 0.6216(7) 0.4270(3) -0.2592(3)
H9B H 0.6937 0.4066 -0.2511
C20B C 0.6221(6) 0.4769(3) -0.2443(3)
H10B H 0.6955 0.4900 -0.2269
C21B C 0.5126(6) 0.3544(2) -0.3008(2)
C22B C 1.3082(5) 0.7777(2) -0.0819(2)
C23B C 1.4352(5) 0.7807(2) -0.0537(2)
C24B C 1.5477(5) 0.7814(2) -0.0785(2)
H11B H 1.5432 0.7837 -0.1123
C25B C 1.6678(5) 0.7785(2) -0.0521(2)
C26B C 1.6751(5) 0.7752(3) -0.0023(2)
H12B H 1.7564 0.7731 0.0147
C27B C 1.5635(6) 0.7752(2) 0.0230(2)
C28B C 1.4411(5) 0.7756(2) -0.0038(2)
H13B H 1.3646 0.7725 0.0122
C29B C 1.7874(5) 0.7750(2) -0.0788(2)
C30B C 1.5691(6) 0.7706(3) 0.0757(2)
C31B C 1.6674(7) 0.7450(3) 0.1011(3)
H14B H 1.7342 0.7308 0.0844
C32B C 1.6694(7) 0.7399(3) 0.1503(2)
H15B H 1.7401 0.7240 0.1669
C33B C 1.5707(6) 0.7576(3) 0.1755(2)
C34B C 1.4743(7) 0.7826(4) 0.1499(3)
H16B H 1.4064 0.7957 0.1668
C35B C 1.4704(8) 0.7900(4) 0.1004(3)
H17B H 1.4021 0.8077 0.0843
C36B C 1.5709(6) 0.7503(3) 0.2294(2)
O1B O 1.0295(3) 0.73029(13) -0.15053(12)
O4B O 0.7438(4) 0.71186(17) -0.20118(17)
O5B O 0.8581(4) 0.63984(15) -0.20333(15)
O6B O 0.2886(4) 0.70020(17) -0.17835(17)
O7B O 0.1723(4) 0.63509(16) -0.20625(16)
O8B O 0.4126(5) 0.33860(17) -0.32335(18)
O9B O 0.6148(4) 0.32894(17) -0.29198(17)
O10B O 1.3045(3) 0.78780(14) -0.12588(13)
O11B O 1.2094(4) 0.76619(17) -0.05919(14)
O12B O 1.7783(4) 0.78264(17) -0.12337(14)
O13B O 1.8932(4) 0.76592(18) -0.05397(15)
O14B O 1.6700(4) 0.7326(2) 0.25177(16)
O15B O 1.4770(6) 0.7673(3) 0.2489(2)
Zn1B Zn 0.87781(6) 0.76194(2) -0.18285(2)
Zn2B Zn 1.17218(6) 0.76657(2) -0.17772(2)
Zn3B Zn 1.04457(6) 0.73592(3) -0.08185(2)
Zn4B Zn 1.02689(6) 0.66343(2) -0.17495(2)
O6_2 O 0.7114(4) 0.29980(17) 0.17835(17)
O6B_2 O 1.2886(4) 0.70020(17) -0.17835(17)
O7_2 O 0.8277(4) 0.36491(16) 0.20625(16)
O7B_2 O 1.1723(4) 0.63509(16) -0.20625(16)
O8A O 0.9126(5) 0.16140(17) 0.17665(18)
O8C O 1.0874(5) 0.83860(17) -0.17665(18)
O9A O 1.1148(4) 0.17106(17) 0.20802(17)
O9C O 0.8852(4) 0.82894(17) -0.20802(17)
O12_2 O 1.2217(4) 0.21736(17) 0.12337(14)
O12B_2 O 0.7783(4) 0.78264(17) -0.12337(14)
O13_2 O 1.1068(4) 0.23408(18) 0.05397(15)
O13B_2 O 0.8932(4) 0.76592(18) -0.05397(15)
O14A O 1.1700(4) 0.7674(2) -0.24823(16)
O14C O 0.8300(4) 0.2326(2) 0.24823(16)
O15A O 0.9770(6) 0.7327(3) -0.2511(2)
O15C O 1.0230(6) 0.2673(3) 0.2511(2)
Zn1_2 Zn 0.12219(6) 0.23806(2) 0.18285(2)
Zn1A Zn 1.37781(6) 0.73806(2) 0.31715(2)
Zn1B_2 Zn 1.87781(6) 0.76194(2) -0.18285(2)
Zn1C Zn 0.62219(6) 0.26194(2) -0.31715(2)
Zn2_2 Zn 1.82782(6) 0.23343(2) 0.17772(2)
Zn2A Zn 1.67218(6) 0.73343(2) 0.32228(2)
Zn2B_2 Zn 0.17218(6) 0.76657(2) -0.17772(2)
Zn2C Zn 0.32782(6) 0.26657(2) -0.32228(2)
Zn3_2 Zn -0.04457(6) 0.26408(3) 0.08185(2)
Zn3B_2 Zn 2.04457(6) 0.73592(3) -0.08185(2)
Zn4_2 Zn 1.97311(6) 0.33657(2) 0.17495(2)
Zn4B_2 Zn 0.02689(6) 0.66343(2) -0.17495(2)
C37 C 0.5846(6) 0.3606(3) 0.9476(2)
H18 H 0.6645 0.3769 0.9590
H19 H 0.5559 0.3737 0.9161
H20 H 0.5991 0.3248 0.9452
C38 C 0.4745(6) 0.3633(3) 1.0371(2)
H21 H 0.5319 0.3364 1.0481
H22 H 0.3865 0.3550 1.0440
H23 H 0.5005 0.3939 1.0537
N1 N 0.4818(6) 0.3704(3) 0.9828(2)
H24 H 0.4118 0.3533 0.9699
H25 H 0.4621 0.4032 0.9781
loop_
_geom_bond_atom_site_label_1
_geom_bond_atom_site_label_2
_geom_bond_site_symmetry_1
_geom_bond_site_symmetry_2
C1 C2 1_555 1_555
C2 C3 1_555 1_555
C3 H1 1_555 1_555
C4 C2 1_555 1_555
H2 C4 1_555 1_555
C5 C4 1_555 1_555
C6 C5 1_555 1_555
H3 C6 1_555 1_555
C7 C8 1_555 1_555
C8 C9 1_555 1_555
C9 H4 1_555 1_555
C10 C9 1_555 1_555
C11 C10 1_555 1_555
H5 C11 1_555 1_555
C12 C11 1_555 1_555
C13 C8 1_555 1_555
H6 C13 1_555 1_555
C14 C10 1_555 1_555
C15 C12 1_555 1_555
C16 C15 1_555 1_555
H7 C16 1_555 1_555
C17 C16 1_555 1_555
H8 C17 1_555 1_555
C18 C17 1_555 1_555
C19 C18 1_555 1_555
H9 C19 1_555 1_555
C20 C15 1_555 1_555
H10 C20 1_555 1_555
C21 C18 1_555 1_555
C22 C23 1_555 1_555
C23 C24 1_555 1_555
C24 H11 1_555 1_555
C25 C24 1_555 1_555
C26 C25 1_555 1_555
H12 C26 1_555 1_555
C27 C26 1_555 1_555
C28 C23 1_555 1_555
H13 C28 1_555 1_555
C29 C25 1_555 1_555
C30 C27 1_555 1_555
C31 C30 1_555 1_555
H14 C31 1_555 1_555
C32 C31 1_555 1_555
H15 C32 1_555 1_555
C33 C32 1_555 1_555
C34 C33 1_555 1_555
H16 C34 1_555 1_555
C35 C30 1_555 1_555
H17 C35 1_555 1_555
C36 C33 1_555 1_555
O1 Zn1 1_555 1_555
O2 C1 1_555 1_555
O3 C1 1_555 1_555
O4 C7 1_555 1_555
O5 C7 1_555 1_555
O6 C14 1_555 1_555
O7 C14 1_555 1_555
O8 C21 1_555 1_555
O9 C21 1_555 1_555
O10 C22 1_555 1_555
O11 C22 1_555 1_555
O12 C29 1_555 1_555
O13 C29 1_555 1_555
O14 C36 1_555 1_555
O15 C36 1_555 1_555
Zn1 O4 1_555 1_555
Zn2 O1 1_555 1_555
Zn3 O1 1_555 1_555
Zn4 O1 1_555 1_555
C37 H18 1_555 1_555
H19 C37 1_555 1_555
H20 C37 1_555 1_555
C38 H21 1_555 1_555
H22 C38 1_555 1_555
H23 C38 1_555 1_555
N1 C37 1_555 1_555
H24 N1 1_555 1_555
H25 N1 1_555 1_555
C1B C2B 1_555 1_555
C2B C3B 1_555 1_555
C3B C6 1_555 1_555
H1B C3B 1_555 1_555
C4B C2B 1_555 1_555
H2B C4B 1_555 1_555
C5B C5 1_555 1_555
C6B C3 1_555 1_555
H3B C6B 1_555 1_555
O2B C1B 1_555 1_555
O3B C1B 1_555 1_555
C7B C8B 1_555 1_555
C8B C9B 1_555 1_555
C9B H4B 1_555 1_555
C10B C9B 1_555 1_555
C11B C10B 1_555 1_555
H5B C11B 1_555 1_555
C12B C11B 1_555 1_555
C13B C8B 1_555 1_555
H6B C13B 1_555 1_555
C14B C10B 1_555 1_555
C15B C12B 1_555 1_555
C16B C15B 1_555 1_555
H7B C16B 1_555 1_555
C17B C16B 1_555 1_555
H8B C17B 1_555 1_555
C18B C17B 1_555 1_555
C19B C18B 1_555 1_555
H9B C19B 1_555 1_555
C20B C15B 1_555 1_555
H10B C20B 1_555 1_555
C21B C18B 1_555 1_555
C22B C23B 1_555 1_555
C23B C24B 1_555 1_555
C24B H11B 1_555 1_555
C25B C24B 1_555 1_555
C26B C25B 1_555 1_555
H12B C26B 1_555 1_555
C27B C26B 1_555 1_555
C28B C23B 1_555 1_555
H13B C28B 1_555 1_555
C29B C25B 1_555 1_555
C30B C27B 1_555 1_555
C31B C30B 1_555 1_555
H14B C31B 1_555 1_555
C32B C31B 1_555 1_555
H15B C32B 1_555 1_555
C33B C32B 1_555 1_555
C34B C33B 1_555 1_555
H16B C34B 1_555 1_555
C35B C30B 1_555 1_555
H17B C35B 1_555 1_555
C36B C33B 1_555 1_555
O1B Zn1B 1_555 1_555
O4B C7B 1_555 1_555
O5B C7B 1_555 1_555
O6B C14B 1_555 1_555
O7B C14B 1_555 1_555
O8B C21B 1_555 1_555
O9B C21B 1_555 1_555
O10B C22B 1_555 1_555
O11B C22B 1_555 1_555
O12B C29B 1_555 1_555
O13B C29B 1_555 1_555
O14B C36B 1_555 1_555
O15B C36B 1_555 1_555
Zn1B O4B 1_555 1_555
Zn2B O1B 1_555 1_555
Zn3B O2B 1_555 1_555
Zn4B O3B 1_555 1_555
O6_2 Zn2 1_555 1_555
O6B_2 Zn2B 1_555 1_555
O7_2 Zn4 1_555 1_555
O7B_2 Zn4B 1_555 1_555
O8A Zn2 1_555 1_555
O8C Zn2B 1_555 1_555
O9A Zn1 1_555 1_555
O9C Zn1B 1_555 1_555
O12_2 Zn1 1_555 1_555
O12B_2 Zn1B 1_555 1_555
O13_2 Zn3 1_555 1_555
O13B_2 Zn3B 1_555 1_555
O14A Zn2B 1_555 1_555
O14C Zn2 1_555 1_555
O15A Zn1B 1_555 1_555
O15C Zn1 1_555 1_555
Zn1_2 O12 1_555 1_555
Zn1A O9 1_555 1_555
Zn1B_2 O12B 1_555 1_555
Zn1C O15 1_555 1_555
Zn2_2 O6 1_555 1_555
Zn2A O8 1_555 1_555
Zn2B_2 O6B 1_555 1_555
Zn2C O14 1_555 1_555
Zn3_2 O13 1_555 1_555
Zn3B_2 O13B 1_555 1_555
Zn4_2 O7 1_555 1_555
Zn4B_2 O7B 1_555 1_555
C12 C13 1_555 1_555
C19 C20 1_555 1_555
C27 C28 1_555 1_555
C34 C35 1_555 1_555
O2 Zn3 1_555 1_555
O3 Zn4 1_555 1_555
O5 Zn4 1_555 1_555
O10 Zn2 1_555 1_555
O11 Zn3 1_555 1_555
C38 N1 1_555 1_555
C4B C5B 1_555 1_555
C5B C6B 1_555 1_555
C12B C13B 1_555 1_555
C19B C20B 1_555 1_555
C27B C28B 1_555 1_555
C34B C35B 1_555 1_555
O1B Zn3B 1_555 1_555
O1B Zn4B 1_555 1_555
O5B Zn4B 1_555 1_555
O8B Zn2C 1_555 1_555
O9B Zn1C 1_555 1_555
O10B Zn2B 1_555 1_555
O11B Zn3B 1_555 1_555
O14B Zn2A 1_555 1_555
O15B Zn1A 1_555 1_555

#END
