
#######################################################################
#
#                 Cambridge Crystallographic Data Centre
#                                CCDC 
#
#######################################################################
#
# If this CIF has been generated from an entry in the Cambridge 
# Structural Database, then it will include bibliographic, chemical, 
# crystal, experimental, refinement or atomic coordinate data resulting 
# from the CCDC's data processing and validation procedures.
#
#######################################################################

data_IPIFAP
_chemical_formula_moiety         '(C18 H37 Ag3 N8 O11)n'
_symmetry_cell_setting           orthorhombic
_symmetry_space_group_name_H-M   'C m c 21'
_symmetry_Int_Tables_number      36
_space_group_name_Hall           'C 2c -2'
loop_
_symmetry_equiv_pos_site_id
_symmetry_equiv_pos_as_xyz
1 x,y,z
2 -x,-y,1/2+z
3 -x,y,z
4 x,-y,1/2+z
5 1/2+x,1/2+y,z
6 1/2-x,1/2-y,1/2+z
7 1/2-x,1/2+y,z
8 1/2+x,1/2-y,1/2+z
_cell_length_a                   20.837(5)
_cell_length_b                   11.759(5)
_cell_length_c                   11.346(5)
_cell_angle_alpha                90
_cell_angle_beta                 90
_cell_angle_gamma                90
_cell_volume                     2780.02
loop_
_atom_site_label
_atom_site_type_symbol
_atom_site_fract_x
_atom_site_fract_y
_atom_site_fract_z
_atom_site_U_iso_or_equiv
_atom_site_thermal_displace_type
C1 C 0.22760(17) -0.2352(3) 0.2264(4) 0.0143 Uani
H1 H 0.2143 -0.3011 0.1812 0.0170 Uiso
H2 H 0.2741 -0.2319 0.2249 0.0170 Uiso
C2 C 0.22489(16) -0.1472(3) 0.4170(4) 0.0130 Uani
H3 H 0.2714 -0.1423 0.4188 0.0160 Uiso
H4 H 0.2099 -0.1550 0.4975 0.0160 Uiso
C3 C 0.13526(15) -0.2538(3) 0.3486(3) 0.0130 Uani
H5 H 0.1199 -0.2620 0.4288 0.0160 Uiso
H6 H 0.1217 -0.3202 0.3044 0.0160 Uiso
C4 C 0.12783(15) -0.0498(3) 0.3661(3) 0.0132 Uani
H7 H 0.1095 0.0193 0.3336 0.0160 Uiso
H8 H 0.1126 -0.0578 0.4465 0.0160 Uiso
C5 C 0.13052(15) -0.1382(3) 0.1736(4) 0.0136 Uani
H9 H 0.1125 -0.0703 0.1380 0.0160 Uiso
H10 H 0.1167 -0.2031 0.1274 0.0160 Uiso
C6 C 0.22102(16) -0.0316(3) 0.2424(3) 0.0123 Uani
H11 H 0.2036 0.0371 0.2075 0.0150 Uiso
H12 H 0.2674 -0.0256 0.2416 0.0150 Uiso
C7 C 0.12367(17) -0.4771(3) 0.5640(5) 0.0349 Uani
C8 C 0.05898(15) -0.4939(4) 0.6236(4) 0.0270 Uani
H13 H 0.0550 -0.4382 0.6862 0.0320 Uiso
H14 H 0.0587 -0.5686 0.6601 0.0320 Uiso
C9 C -0.0000 -0.4844(5) 0.5440(6) 0.0183 Uani
C10 C 0.0000 -0.3680(4) 0.4767(7) 0.0133 Uani
N1 N 0.20578(12) -0.2481(2) 0.3491(3) 0.0117 Uani
N2 N 0.10620(12) -0.14958(18) 0.2949(3) 0.0114 Uani
N3 N 0.19850(13) -0.0411(2) 0.3658(3) 0.0127 Uani
N4 N 0.20125(13) -0.1310(2) 0.1708(3) 0.0128 Uani
O1 O 0.0000 -0.2787(3) 0.5366(4) 0.0246 Uani
O2 O 0.0000 -0.3736(3) 0.3666(4) 0.0220 Uani
O4 O 0.1456(2) -0.5499(4) 0.5052(9) 0.1707 Uani
O6 O 0.15280(13) -0.3878(3) 0.5817(3) 0.0278 Uani
O8 O -0.0000 -0.5727(3) 0.4607(5) 0.0420 Uani
Ag1 Ag 0.253690(11) -0.39482(2) 0.47508(4) 0.0161 Uani
Ag2 Ag -0.0000 -0.17392(3) 0.29824(4) 0.0183 Uani
H17 H -0.0000 -0.5526 0.3891 0.0270 Uiso
C1B C -0.22760(17) -0.2352(3) 0.2264(4) 0.0143 Uani
H1B H -0.2143 -0.3011 0.1812 0.0170 Uiso
H2B H -0.2741 -0.2319 0.2249 0.0170 Uiso
C2B C -0.22489(16) -0.1472(3) 0.4170(4) 0.0130 Uani
H3B H -0.2714 -0.1423 0.4188 0.0160 Uiso
H4B H -0.2099 -0.1550 0.4975 0.0160 Uiso
C3B C -0.13526(15) -0.2538(3) 0.3486(3) 0.0130 Uani
H5B H -0.1199 -0.2620 0.4288 0.0160 Uiso
H6B H -0.1217 -0.3202 0.3044 0.0160 Uiso
C4B C -0.12783(15) -0.0498(3) 0.3661(3) 0.0132 Uani
H7B H -0.1095 0.0193 0.3336 0.0160 Uiso
H8B H -0.1126 -0.0578 0.4465 0.0160 Uiso
C5B C -0.13052(15) -0.1382(3) 0.1736(4) 0.0136 Uani
H9B H -0.1125 -0.0703 0.1380 0.0160 Uiso
H10B H -0.1167 -0.2031 0.1274 0.0160 Uiso
C6B C -0.22102(16) -0.0316(3) 0.2424(3) 0.0123 Uani
H11B H -0.2036 0.0371 0.2075 0.0150 Uiso
H12B H -0.2674 -0.0256 0.2416 0.0150 Uiso
C7B C -0.12367(17) -0.4771(3) 0.5640(5) 0.0349 Uani
C8B C -0.05898(15) -0.4939(4) 0.6236(4) 0.0270 Uani
H13B H -0.0550 -0.4382 0.6862 0.0320 Uiso
H14B H -0.0587 -0.5686 0.6601 0.0320 Uiso
N1B N -0.20578(12) -0.2481(2) 0.3491(3) 0.0117 Uani
N2B N -0.10620(12) -0.14958(18) 0.2949(3) 0.0114 Uani
N3B N -0.19850(13) -0.0411(2) 0.3658(3) 0.0127 Uani
N3F N 0.30150(13) -0.5411(2) 0.3658(3) 0.0127 Uani
N3D N -0.30150(13) -0.5411(2) 0.3658(3) 0.0127 Uani
N4B N -0.20125(13) -0.1310(2) 0.1708(3) 0.0128 Uani
N4E N 0.29875(13) -0.3690(2) 0.6708(3) 0.0128 Uani
N4G N -0.29875(13) -0.3690(2) 0.6708(3) 0.0128 Uani
O4B O -0.1456(2) -0.5499(4) 0.5052(9) 0.1707 Uani
O6B O -0.15280(13) -0.3878(3) 0.5817(3) 0.0278 Uani
Ag1B Ag -0.253690(11) -0.39482(2) 0.47508(4) 0.0161 Uani
Ag1F Ag 0.246310(11) 0.10518(2) 0.47508(4) 0.0161 Uani
Ag1E Ag 0.246310(11) -0.10518(2) -0.02492(4) 0.0161 Uani
Ag1D Ag -0.246310(11) 0.10518(2) 0.47508(4) 0.0161 Uani
Ag1G Ag -0.246310(11) -0.10518(2) -0.02492(4) 0.0161 Uani
O3 O -0.0000 -0.8508(4) 0.5101(6) 0.0557 Uani
H15 H 0.0332 -0.8235 0.4768 0.0270 Uiso
H15B H -0.0332 -0.8235 0.4768 0.0270 Uiso
O5 O -0.0000 -0.0613(4) 0.6040(4) 0.0347 Uani
H16 H 0.0000 0.0080 0.5822 0.0270 Uiso
H18 H 0.0000 -0.1218 0.5629 0.0270 Uiso
O7 O 0.11604(14) -0.1900(3) 0.6799(3) 0.0336 Uani
H19 H 0.0807 -0.1599 0.6594 0.0270 Uiso
H20 H 0.1164 -0.2614 0.6679 0.0270 Uiso
O9 O 0.11562(14) -0.2371(2) -0.0796(3) 0.0293 Uani
H21 H 0.1165 -0.3091 -0.0725 0.0270 Uiso
H22 H 0.1170 -0.2352 -0.1545 0.0270 Uiso
loop_
_atom_site_aniso_label
_atom_site_aniso_U_11
_atom_site_aniso_U_22
_atom_site_aniso_U_33
_atom_site_aniso_U_23
_atom_site_aniso_U_13
_atom_site_aniso_U_12
C1 0.0138(16) 0.0129(17) 0.0161(18) -0.0004(14) 0.0031(15) -0.0001(14)
C2 0.0103(15) 0.0130(16) 0.0158(19) 0.0005(14) -0.0022(14) -0.0012(12)
C3 0.0094(15) 0.0098(15) 0.0197(18) 0.0037(13) 0.0026(14) 0.0008(12)
C4 0.0121(15) 0.0114(16) 0.0162(19) -0.0060(14) 0.0018(13) 0.0010(12)
C5 0.0123(15) 0.0147(15) 0.0138(19) -0.0005(14) -0.0011(13) -0.0001(13)
C6 0.0114(15) 0.0117(16) 0.0137(17) 0.0013(13) 0.0004(13) -0.0031(13)
C7 0.0097(16) 0.021(2) 0.074(4) 0.008(2) 0.002(2) 0.0032(14)
C8 0.0110(16) 0.031(2) 0.039(3) 0.0186(19) -0.0032(16) 0.0008(14)
C9 0.014(2) 0.017(3) 0.024(3) 0.009(2) 0.000 0.000
C10 0.0070(18) 0.011(2) 0.022(3) 0.001(2) 0.000 0.000
N1 0.0097(13) 0.0110(13) 0.0145(15) 0.0007(11) -0.0004(11) 0.0003(10)
N2 0.0089(11) 0.0113(12) 0.0141(14) 0.0001(14) 0.0000(14) -0.0011(9)
N3 0.0110(12) 0.0128(14) 0.0142(16) 0.0010(11) -0.0014(11) -0.0013(11)
N4 0.0109(12) 0.0127(13) 0.0149(17) -0.0008(12) -0.0011(12) -0.0006(11)
O1 0.028(2) 0.0167(17) 0.029(2) -0.0023(16) 0.000 0.000
O2 0.028(2) 0.0230(19) 0.015(2) 0.0041(16) 0.000 0.000
O4 0.057(3) 0.082(4) 0.373(13) -0.141(6) 0.123(5) -0.043(3)
O6 0.0178(13) 0.0410(17) 0.0246(18) -0.0009(13) 0.0013(12) -0.0104(12)
O8 0.081(3) 0.0111(17) 0.034(3) -0.001(2) 0.000 0.000
Ag1 0.01822(12) 0.01550(13) 0.01465(13) -0.00209(13) -0.00048(11) 0.00520(9)
Ag2 0.00740(15) 0.02097(16) 0.0264(2) 0.00506(19) 0.000 0.000
C1B 0.0138 0.0129 0.0161 -0.0004 -0.0031 0.0001
C2B 0.0103 0.013 0.0158 0.0005 0.0022 0.0012
C3B 0.0094 0.0098 0.0197 0.0037 -0.0026 -0.0008
C4B 0.0121 0.0114 0.0162 -0.006 -0.0018 -0.001
C5B 0.0123 0.0147 0.0138 -0.0005 0.0011 0.0001
C6B 0.0114 0.0117 0.0137 0.0013 -0.0004 0.0031
C7B 0.0097 0.021 0.074 0.008 -0.002 -0.0032
C8B 0.011 0.031 0.039 0.0186 0.0032 -0.0008
N1B 0.0097 0.011 0.0145 0.0007 0.0004 -0.0003
N2B 0.0089 0.0113 0.0141 0.0001 0 0.0011
N3B 0.011 0.0128 0.0142 0.001 0.0014 0.0013
N3F 0.011 0.0128 0.0142 0.001 0.0014 0.0013
N3D 0.011 0.0128 0.0142 0.001 -0.0014 -0.0013
N4B 0.0109 0.0127 0.0149 -0.0008 0.0011 0.0006
N4E 0.0109 0.0127 0.0149 0.0008 0.0011 -0.0006
N4G 0.0109 0.0127 0.0149 0.0008 -0.0011 0.0006
O4B 0.057 0.082 0.373 -0.141 -0.123 0.043
O6B 0.0178 0.041 0.0246 -0.0009 -0.0013 0.0104
Ag1B 0.01822 0.0155 0.01465 -0.00209 0.00048 -0.0052
Ag1F 0.01822 0.0155 0.01465 -0.00209 0.00048 -0.0052
Ag1E 0.01822 0.0155 0.01465 0.00209 0.00048 0.0052
Ag1D 0.01822 0.0155 0.01465 -0.00209 -0.00048 0.0052
Ag1G 0.01822 0.0155 0.01465 0.00209 -0.00048 -0.0052
O3 0.019(2) 0.051(3) 0.097(6) 0.043(3) 0.000 0.000
O5 0.051(3) 0.024(2) 0.029(2) -0.0041(19) 0.000 0.000
O7 0.0238(14) 0.042(2) 0.035(2) -0.0080(16) -0.0097(13) 0.0018(13)
O9 0.0423(18) 0.0220(15) 0.0237(16) 0.0008(13) 0.0083(14) 0.0046(12)
loop_
_geom_bond_atom_site_label_1
_geom_bond_atom_site_label_2
_geom_bond_site_symmetry_1
_geom_bond_site_symmetry_2
C1 H1 1_555 1_555
H2 C1 1_555 1_555
C2 H3 1_555 1_555
H4 C2 1_555 1_555
C3 H5 1_555 1_555
H6 C3 1_555 1_555
C4 H7 1_555 1_555
H8 C4 1_555 1_555
C5 H9 1_555 1_555
H10 C5 1_555 1_555
C6 H11 1_555 1_555
H12 C6 1_555 1_555
C7 C8 1_555 1_555
C8 H13 1_555 1_555
H14 C8 1_555 1_555
C9 C8 1_555 1_555
C10 C9 1_555 1_555
N1 C1 1_555 1_555
N2 C3 1_555 1_555
N3 C2 1_555 1_555
N4 C1 1_555 1_555
O1 C10 1_555 1_555
O2 C10 1_555 1_555
O3 H15 1_555 1_555
O4 C7 1_555 1_555
O5 H16 1_555 1_555
O6 C7 1_555 1_555
O7 H19 1_555 1_555
O8 C9 1_555 1_555
O9 H21 1_555 1_555
Ag1 N1 1_555 1_555
Ag2 N2 1_555 1_555
H17 O8 1_555 1_555
H18 O5 1_555 1_555
H20 O7 1_555 1_555
H22 O9 1_555 1_555
C1B H1B 1_555 1_555
H2B C1B 1_555 1_555
C2B H3B 1_555 1_555
H4B C2B 1_555 1_555
C3B H5B 1_555 1_555
H6B C3B 1_555 1_555
C4B H7B 1_555 1_555
H8B C4B 1_555 1_555
C5B H9B 1_555 1_555
H10B C5B 1_555 1_555
C6B H11B 1_555 1_555
H12B C6B 1_555 1_555
C7B C8B 1_555 1_555
C8B C9 1_555 1_555
H13B C8B 1_555 1_555
H14B C8B 1_555 1_555
N1B C1B 1_555 1_555
N2B Ag2 1_555 1_555
N3B C2B 1_555 1_555
N3F Ag1 1_555 1_555
N3D Ag1B 1_555 1_555
N4B C1B 1_555 1_555
N4E Ag1 1_555 1_555
N4G Ag1B 1_555 1_555
O4B C7B 1_555 1_555
O6B C7B 1_555 1_555
Ag1B N1B 1_555 1_555
Ag1F N3 1_555 1_555
Ag1E N4 1_555 1_555
Ag1D N3B 1_555 1_555
Ag1G N4B 1_555 1_555
H15B O3 1_555 1_555
C2 N1 1_555 1_555
C3 N1 1_555 1_555
C4 N2 1_555 1_555
C4 N3 1_555 1_555
C5 N2 1_555 1_555
C5 N4 1_555 1_555
C6 N3 1_555 1_555
C6 N4 1_555 1_555
O2 Ag2 1_555 1_555
O6 Ag1 1_555 1_555
C2B N1B 1_555 1_555
C3B N1B 1_555 1_555
C3B N2B 1_555 1_555
C4B N2B 1_555 1_555
C4B N3B 1_555 1_555
C5B N2B 1_555 1_555
C5B N4B 1_555 1_555
C6B N3B 1_555 1_555
C6B N4B 1_555 1_555
O6B Ag1B 1_555 1_555

#END
