
#######################################################################
#
#                 Cambridge Crystallographic Data Centre
#                                CCDC 
#
#######################################################################
#
# If this CIF has been generated from an entry in the Cambridge 
# Structural Database, then it will include bibliographic, chemical, 
# crystal, experimental, refinement or atomic coordinate data resulting 
# from the CCDC's data processing and validation procedures.
#
#######################################################################

data_CILFIN
_chemical_formula_moiety         'C13 H9 N1 O6 Zn2'
_symmetry_cell_setting           tetragonal
_symmetry_space_group_name_H-M   'P 4/n b m'
_symmetry_Int_Tables_number      125
_space_group_name_Hall           '-P 4a 2b'
loop_
_symmetry_equiv_pos_site_id
_symmetry_equiv_pos_as_xyz
1 x,y,z
2 1/2-y,x,z
3 y,1/2-x,z
4 y,x,-z
5 1/2-x,1/2-y,z
6 1/2-x,y,-z
7 x,1/2-y,-z
8 1/2-y,1/2-x,-z
9 -x,-y,-z
10 1/2+y,-x,-z
11 -y,1/2+x,-z
12 -y,-x,z
13 1/2+x,1/2+y,-z
14 1/2+x,-y,z
15 -x,1/2+y,z
16 1/2+y,1/2+x,z
_cell_length_a                   15.387(2)
_cell_length_b                   15.387(2)
_cell_length_c                   9.5846(19)
_cell_angle_alpha                90
_cell_angle_beta                 90
_cell_angle_gamma                90
_cell_volume                     2269.25
loop_
_atom_site_label
_atom_site_type_symbol
_atom_site_fract_x
_atom_site_fract_y
_atom_site_fract_z
_atom_site_U_iso_or_equiv
_atom_site_thermal_displace_type
C1 C 0.3331(16) 0.2331(16) 0.577(2) 0.0000 Uiso
O2 O 0.1719(2) 0.1468(2) 0.8861(4) 0.0411 Uani
Zn1 Zn 0.2500 0.2500 0.84938(9) 0.0255 Uani
N1 N 0.2500 0.2500 0.6337(7) 0.0233 Uani
C3 C 0.1331(3) 0.1331(3) 1.0000 0.0363 Uani
C4 C 0.0637(3) 0.0637(3) 1.0000 0.0397 Uani
C5 C 0.0073(4) 0.0545(4) 1.1114(6) 0.0563 Uani
H5 H 0.0122 0.0921 1.1883 0.0670 Uiso
C1F C 0.3331(16) 0.2669(16) 0.423(2) 0.0000 Uiso
C1B C 0.2331(16) 0.1669(16) 0.577(2) 0.0000 Uiso
C1A C 0.2669(16) 0.3331(16) 0.577(2) 0.0000 Uiso
C1D C 0.1669(16) 0.2669(16) 0.577(2) 0.0000 Uiso
O2B O 0.1468(2) 0.3281(2) 0.8861(4) 0.0411 Uani
O2A O 0.3532(2) 0.1719(2) 0.8861(4) 0.0411 Uani
O2D O 0.3281(2) 0.3532(2) 0.8861(4) 0.0411 Uani
O2C O 0.1468(2) 0.1719(2) 1.1139(4) 0.0411 Uani
Zn1C Zn 0.2500 0.2500 1.15062(9) 0.0255 Uani
C5C C 0.0545(4) 0.0073(4) 0.8886(6) 0.0563 Uani
C5K C -0.0545(4) -0.0073(4) 1.1114(6) 0.0563 Uani
O1 O 0.9401(16) 0.0599(16) 0.526(4) 0.6700 Uiso
C6 C 0.878(2) 0.122(2) 0.576(8) 0.8000 Uiso
C7 C 0.821(3) 0.071(3) 0.675(4) 0.5000 Uiso
C7K C 0.929(3) 0.179(3) 0.675(4) 0.5000 Uiso
loop_
_atom_site_aniso_label
_atom_site_aniso_U_11
_atom_site_aniso_U_22
_atom_site_aniso_U_33
_atom_site_aniso_U_23
_atom_site_aniso_U_13
_atom_site_aniso_U_12
O2 0.050(2) 0.041(2) 0.0324(19) -0.0004(16) 0.0055(17) -0.0178(17)
Zn1 0.0304(5) 0.0304(5) 0.0156(6) 0.000 0.000 0.000
N1 0.027(2) 0.027(2) 0.016(3) 0.000 0.000 0.000
C3 0.040(2) 0.040(2) 0.029(3) -0.002(2) 0.002(2) -0.013(3)
C4 0.047(3) 0.047(3) 0.025(3) 0.002(2) -0.002(2) -0.019(3)
C5 0.074(4) 0.065(4) 0.030(3) -0.019(3) 0.024(3) -0.039(3)
O2B 0.041 0.05 0.0324 -0.0055 -0.0004 0.0178
O2A 0.041 0.05 0.0324 0.0055 0.0004 0.0178
O2D 0.05 0.041 0.0324 0.0004 -0.0055 -0.0178
O2C 0.041 0.05 0.0324 -0.0055 0.0004 -0.0178
Zn1C 0.0304 0.0304 0.0156 0 0 0
C5C 0.065 0.074 0.03 -0.024 0.019 -0.039
C5K 0.065 0.074 0.03 -0.024 0.019 -0.039
loop_
_geom_bond_atom_site_label_1
_geom_bond_atom_site_label_2
_geom_bond_site_symmetry_1
_geom_bond_site_symmetry_2
O1 C6 1_555 1_555
C1 N1 1_555 1_555
O2 Zn1 1_555 1_555
Zn1 N1 1_555 1_555
N1 C1B 1_555 1_555
C3 O2 1_555 1_555
C4 C3 1_555 1_555
C5 C4 1_555 1_555
H5 C5 1_555 1_555
C6 C7 1_555 1_555
C1F C1 1_555 1_555
C1A N1 1_555 1_555
C1D N1 1_555 1_555
O2B Zn1 1_555 1_555
O2A Zn1 1_555 1_555
O2D Zn1 1_555 1_555
O2C C3 1_555 1_555
Zn1C Zn1 1_555 1_555
C5C C4 1_555 1_555
C5K C5 1_555 1_555
C7K C6 1_555 1_555
O2C Zn1C 1_555 1_555

#END
