
#######################################################################
#
#                 Cambridge Crystallographic Data Centre
#                                CCDC 
#
#######################################################################
#
# If this CIF has been generated from an entry in the Cambridge 
# Structural Database, then it will include bibliographic, chemical, 
# crystal, experimental, refinement or atomic coordinate data resulting 
# from the CCDC's data processing and validation procedures.
#
#######################################################################

data_LUJPUC
_chemical_formula_moiety         '(C20 H30 Li1 Ni3 O29 1-)n'
_symmetry_cell_setting           monoclinic
_symmetry_space_group_name_H-M   'C 2/m'
_symmetry_Int_Tables_number      12
_space_group_name_Hall           '-C 2y'
loop_
_symmetry_equiv_pos_site_id
_symmetry_equiv_pos_as_xyz
1 x,y,z
2 -x,y,-z
3 1/2+x,1/2+y,z
4 1/2-x,1/2+y,-z
5 -x,-y,-z
6 x,-y,z
7 1/2-x,1/2-y,-z
8 1/2+x,1/2-y,z
_cell_length_a                   9.540(2)
_cell_length_b                   19.812(5)
_cell_length_c                   11.151(3)
_cell_angle_alpha                90
_cell_angle_beta                 113.684(10)
_cell_angle_gamma                90
_cell_volume                     1930.1
loop_
_atom_site_label
_atom_site_type_symbol
_atom_site_fract_x
_atom_site_fract_y
_atom_site_fract_z
Ni1 Ni -0.0000 -0.5000 0.0000
Ni2 Ni 0.2500 -0.2500 0.5000
O1 O -0.3451(6) -0.0726(3) 0.0060(6)
O2 O -0.2593(7) -0.1091(3) 0.2095(6)
O3 O 0.0497(6) -0.2505(3) 0.3311(5)
O4 O 0.0614(6) -0.1531(3) 0.2369(6)
O5 O -0.0676(9) -0.5000 -0.2007(7)
H1 H -0.1466 -0.5284 -0.2385
O6 O 0.1549(6) -0.3152(3) 0.5900(6)
H2 H 0.0673 -0.3024 0.5943
H3 H 0.2099 -0.3307 0.6679
O7 O 0.1647(6) -0.1665(3) 0.5553(5)
H4 H 0.1660 -0.1276 0.5227
H5 H 0.1740 -0.1618 0.6353
C1 C -0.3656(9) -0.2080(4) -0.0727(8)
H6 H -0.4442 -0.1791 -0.1224
C2 C -0.2563(9) -0.1839(4) 0.0480(9)
C3 C -0.1368(8) -0.2287(4) 0.1210(8)
C4 C -0.2862(9) -0.1166(4) 0.0916(10)
C5 C 0.0020(9) -0.2078(4) 0.2368(8)
Ni1B Ni -0.5000 0.0000 0.0000
Ni1B_2 Ni 0.5000 0.0000 0.0000
Ni2A Ni 0.7500 -0.2500 0.5000
Ni2A_2 Ni -0.2500 -0.2500 -0.5000
Ni2_2 Ni -0.7500 -0.2500 -0.5000
O1F O -0.1549(6) -0.4274(3) -0.0060(6)
O1G O 0.1549(6) -0.4274(3) 0.0060(6)
O1A O 0.3451(6) -0.0726(3) -0.0060(6)
O1B O 0.1549(6) -0.5726(3) 0.0060(6)
O1C O -0.1549(6) -0.5726(3) -0.0060(6)
O2G O 0.2407(7) -0.3909(3) 0.2095(6)
O2A O 0.2593(7) -0.1091(3) -0.2095(6)
O2F O -0.2407(7) -0.3909(3) -0.2095(6)
O3F O 0.4503(6) -0.2495(3) 0.6689(5)
O3G O 0.5497(6) -0.2495(3) 0.3311(5)
O3A O -0.0497(6) -0.2505(3) -0.3311(5)
O3F_2 O -0.5497(6) -0.2495(3) -0.3311(5)
O3G_2 O -0.4503(6) -0.2495(3) -0.6689(5)
O4G O 0.5614(6) -0.3469(3) 0.2369(6)
O4A O -0.0614(6) -0.1531(3) -0.2369(6)
O4F O -0.5614(6) -0.3469(3) -0.2369(6)
O5A O 0.0676(9) -0.5000 0.2007(7)
H1E H -0.1466 -0.4716 -0.2385
H1A H 0.1466 -0.5284 0.2385
H1D H 0.1466 -0.4716 0.2385
O6F O 0.3451(6) -0.1848(3) 0.4100(6)
O6A O -0.1549(6) -0.3152(3) -0.5900(6)
O6G O -0.3451(6) -0.1848(3) -0.4100(6)
H2F H 0.4327 -0.1976 0.4057
H2A H -0.0673 -0.3024 -0.5943
H2G H -0.4327 -0.1976 -0.4057
H3F H 0.2901 -0.1693 0.3321
H3A H -0.2099 -0.3307 -0.6679
H3G H -0.2901 -0.1693 -0.3321
O7F O 0.3353(6) -0.3335(3) 0.4447(5)
O7A O -0.1647(6) -0.1665(3) -0.5553(5)
O7G O -0.3353(6) -0.3335(3) -0.4447(5)
H4F H 0.3340 -0.3724 0.4773
H4A H -0.1660 -0.1276 -0.5227
H4G H -0.3340 -0.3724 -0.4773
H5F H 0.3260 -0.3382 0.3647
H5A H -0.1740 -0.1618 -0.6353
H5G H -0.3260 -0.3382 -0.3647
C1F C -0.1344(9) -0.2920(4) 0.0727(8)
C1G C 0.1344(9) -0.2920(4) -0.0727(8)
C1A C 0.3656(9) -0.2080(4) 0.0727(8)
H6F H -0.0558 -0.3209 0.1224
H6G H 0.0558 -0.3209 -0.1224
H6A H 0.4442 -0.1791 0.1224
C2F C -0.2437(9) -0.3161(4) -0.0480(9)
C2G C 0.2437(9) -0.3161(4) 0.0480(9)
C2A C 0.2563(9) -0.1839(4) -0.0480(9)
C3F C -0.3632(8) -0.2713(4) -0.1210(8)
C3A C 0.1368(8) -0.2287(4) -0.1210(8)
C3G C 0.3632(8) -0.2713(4) 0.1210(8)
C4F C -0.2138(9) -0.3834(4) -0.0916(10)
C4G C 0.2138(9) -0.3834(4) 0.0916(10)
C4A C 0.2862(9) -0.1166(4) -0.0916(10)
C5G C 0.5020(9) -0.2922(4) 0.2368(8)
C5A C -0.0020(9) -0.2078(4) -0.2368(8)
C5F C -0.5020(9) -0.2922(4) -0.2368(8)
Li1 Li -1.015(2) -1.0000 -0.748(2)
O8 O -1.0000 -0.9276(6) -1.0000
O9 O -0.827(5) -1.0000 -0.504(4)
O10 O -0.729(3) -1.0000 -0.785(3)
loop_
_geom_bond_atom_site_label_1
_geom_bond_atom_site_label_2
_geom_bond_site_symmetry_1
_geom_bond_site_symmetry_2
Ni1 O5 1_555 1_555
Ni2 O3 1_555 1_555
O1 C4 1_555 1_555
O2 C4 1_555 1_555
O3 C5 1_555 1_555
O4 C5 1_555 1_555
O5 H1 1_555 1_555
O6 Ni2 1_555 1_555
H2 O6 1_555 1_555
H3 O6 1_555 1_555
O7 Ni2 1_555 1_555
H4 O7 1_555 1_555
H5 O7 1_555 1_555
C1 H6 1_555 1_555
C2 C1 1_555 1_555
C3 C2 1_555 1_555
C4 C2 1_555 1_555
C5 C3 1_555 1_555
Ni1B O1 1_555 1_555
Ni1B_2 O1A 1_555 1_555
Ni2A O3G 1_555 1_555
Ni2A_2 O3A 1_555 1_555
Ni2_2 O3F_2 1_555 1_555
O1F Ni1 1_555 1_555
O1G Ni1 1_555 1_555
O1A C4A 1_555 1_555
O1B Ni1 1_555 1_555
O1C Ni1 1_555 1_555
O2G C4G 1_555 1_555
O2A C4A 1_555 1_555
O2F C4F 1_555 1_555
O3F Ni2 1_555 1_555
O3G C5G 1_555 1_555
O3A C5A 1_555 1_555
O3F_2 C5F 1_555 1_555
O3G_2 Ni2A_2 1_555 1_555
O4G C5G 1_555 1_555
O4A C5A 1_555 1_555
O4F C5F 1_555 1_555
O5A Ni1 1_555 1_555
H1E O5 1_555 1_555
H1A O5A 1_555 1_555
H1D O5A 1_555 1_555
O6F Ni2 1_555 1_555
O6A Ni2A_2 1_555 1_555
O6G Ni2A_2 1_555 1_555
H2F O6F 1_555 1_555
H2A O6A 1_555 1_555
H2G O6G 1_555 1_555
H3F O6F 1_555 1_555
H3A O6A 1_555 1_555
H3G O6G 1_555 1_555
O7F Ni2 1_555 1_555
O7A Ni2A_2 1_555 1_555
O7G Ni2A_2 1_555 1_555
H4F O7F 1_555 1_555
H4A O7A 1_555 1_555
H4G O7G 1_555 1_555
H5F O7F 1_555 1_555
H5A O7A 1_555 1_555
H5G O7G 1_555 1_555
C1F C3 1_555 1_555
C1G H6G 1_555 1_555
C1A H6A 1_555 1_555
H6F C1F 1_555 1_555
C2F C1F 1_555 1_555
C2G C1G 1_555 1_555
C2A C1A 1_555 1_555
C3F C1 1_555 1_555
C3A C1G 1_555 1_555
C3G C1A 1_555 1_555
C4F O1F 1_555 1_555
C4G O1G 1_555 1_555
C4A C2A 1_555 1_555
C5G C3G 1_555 1_555
C5A C3A 1_555 1_555
C5F C3F 1_555 1_555
C2F C3F 1_555 1_555
C2F C4F 1_555 1_555
C2G C3G 1_555 1_555
C2G C4G 1_555 1_555
C2A C3A 1_555 1_555

#END
