
#######################################################################
#
#                 Cambridge Crystallographic Data Centre
#                                CCDC 
#
#######################################################################
#
# If this CIF has been generated from an entry in the Cambridge 
# Structural Database, then it will include bibliographic, chemical, 
# crystal, experimental, refinement or atomic coordinate data resulting 
# from the CCDC's data processing and validation procedures.
#
#######################################################################

data_BAFKUR
_chemical_formula_moiety         '(C50 H42 Co2 N14 O11)n'
_symmetry_cell_setting           triclinic
_symmetry_space_group_name_H-M   'P -1'
_symmetry_Int_Tables_number      2
_space_group_name_Hall           '-P 1'
loop_
_symmetry_equiv_pos_site_id
_symmetry_equiv_pos_as_xyz
1 x,y,z
2 -x,-y,-z
_cell_length_a                   9.666(5)
_cell_length_b                   11.358(5)
_cell_length_c                   13.671(5)
_cell_angle_alpha                69.701(5)
_cell_angle_beta                 70.792(5)
_cell_angle_gamma                81.668(5)
_cell_volume                     1328.51
loop_
_atom_site_label
_atom_site_type_symbol
_atom_site_fract_x
_atom_site_fract_y
_atom_site_fract_z
Co1 Co 0.5000 0.5000 0.5000
Co2 Co 0.0000 -0.0000 1.0000
O1 O 0.3004(2) 0.42392(19) 0.61810(16)
O2 O 0.1587(2) 0.1163(2) 0.97996(16)
N1 N -0.0413(3) 0.1644(2) 0.87735(19)
N2 N 0.2990(3) -0.0775(2) 0.7105(2)
N3 N 0.7488(3) 0.1493(2) 0.5626(2)
O3 O 0.2795(3) 0.2874(2) 0.86748(19)
C1 C 0.0658(3) 0.2474(3) 0.8370(2)
N4 N 0.4178(3) 0.4588(2) 0.22551(19)
C2 C 0.0746(3) 0.3514(3) 0.7434(2)
N5 N 0.5937(3) 0.3128(2) 0.55405(19)
C3 C 0.1784(3) 0.2169(3) 0.8986(2)
C4 C 0.8757(3) 0.0737(3) 0.5306(2)
N6 N 0.4266(3) 0.4602(2) 0.38416(19)
O4 O 0.1747(3) 0.5400(2) 0.7233(2)
C5 C 0.4005(3) -0.0379(3) 0.6034(2)
C6 C 0.4925(4) 0.4948(3) 0.2777(2)
H1 H 0.5790 0.5384 0.2431
C7 C 0.5458(3) 0.2223(3) 0.6548(2)
H2 H 0.4616 0.2297 0.7105
C8 C 0.1949(3) 0.4460(3) 0.6926(2)
C9 C 0.2960(4) 0.3988(3) 0.3032(3)
H3 H 0.2238 0.3641 0.2915
N7 N 0.1457(3) -0.0676(3) 0.8685(2)
C10 C 0.4595(4) 0.4807(3) 0.1105(2)
C11 C 0.6397(3) 0.1214(3) 0.6603(3)
H4 H 0.6317 0.0475 0.7190
C12 C 0.3024(3) 0.4006(3) 0.4009(2)
H5 H 0.2336 0.3668 0.4684
C13 C 0.2287(4) -0.0039(3) 0.7718(3)
H6 H 0.2380 0.0826 0.7483
C14 C 0.2551(4) -0.1978(3) 0.7723(3)
H7 H 0.2838 -0.2699 0.7520
C15 C -0.0333(4) 0.3682(3) 0.6929(3)
H8 H -0.0297 0.4353 0.6293
C16 C 0.7155(3) 0.2661(3) 0.5011(2)
H9 H 0.7720 0.3076 0.4305
C17 C 0.1620(4) -0.1902(3) 0.8683(3)
H10 H 0.1153 -0.2580 0.9261
C18 C -0.1462(4) 0.1834(3) 0.8289(3)
H11 H -0.2210 0.1266 0.8578
C19 C -0.1460(4) 0.2854(4) 0.7369(3)
H12 H -0.2208 0.2981 0.7051
C20 C 0.9152(5) -0.0287(4) 0.6077(3)
H13 H 0.8591 -0.0484 0.6807
C21 C 0.4825(4) 0.1155(3) 0.4268(3)
H14 H 0.4703 0.1939 0.3777
C22 C 0.3827(4) 0.0777(3) 0.5302(3)
H15 H 0.3035 0.1305 0.5502
C23 C 0.6471(4) 0.5014(4) -0.0595(3)
H16 H 0.7457 0.5020 -0.0997
C24 C 0.6067(4) 0.4824(4) 0.0520(3)
H17 H 0.6777 0.4711 0.0870
C25 C 1.0384(4) -0.1027(4) 0.5771(3)
H18 H 1.0632 -0.1724 0.6297
N2A N 0.7010(3) 0.0775(2) 0.2895(2)
C5A C 0.5995(3) 0.0379(3) 0.3966(2)
N7A N 0.8543(3) 0.0676(3) 0.1315(2)
C13A C 0.7713(4) 0.0039(3) 0.2282(3)
H6A H 0.7620 -0.0826 0.2517
C14A C 0.7449(4) 0.1978(3) 0.2277(3)
H7A H 0.7162 0.2699 0.2480
C17A C 0.8380(4) 0.1902(3) 0.1317(3)
H10A H 0.8847 0.2580 0.0739
C21A C 0.5175(4) -0.1155(3) 0.5732(3)
H14A H 0.5297 -0.1939 0.6223
C22A C 0.6173(4) -0.0777(3) 0.4698(3)
H15A H 0.6965 -0.1305 0.4498
N3A N 1.2512(3) -0.1493(2) 0.4374(2)
N5A N 1.4063(3) -0.3128(2) 0.44595(19)
C4A C 1.1243(3) -0.0737(3) 0.4694(2)
C7A C 1.4542(3) -0.2223(3) 0.3452(2)
H2A H 1.5384 -0.2297 0.2895
C11A C 1.3603(3) -0.1214(3) 0.3397(3)
H4A H 1.3683 -0.0475 0.2810
C16A C 1.2845(3) -0.2661(3) 0.4989(2)
H9A H 1.2280 -0.3076 0.5695
C20A C 1.0848(5) 0.0287(4) 0.3923(3)
H13A H 1.1409 0.0484 0.3193
C25A C 0.9616(4) 0.1027(4) 0.4229(3)
H18A H 0.9368 0.1724 0.3703
N4A N 0.5822(3) 0.5412(2) -0.22551(19)
N6A N 0.5734(3) 0.5398(2) -0.38416(19)
C6A C 0.5075(4) 0.5052(3) -0.2777(2)
H1A H 0.4210 0.4616 -0.2431
C9A C 0.7040(4) 0.6012(3) -0.3032(3)
H3A H 0.7762 0.6359 -0.2915
C10A C 0.5405(4) 0.5193(3) -0.1105(2)
C12A C 0.6976(3) 0.5994(3) -0.4009(2)
H5A H 0.7664 0.6332 -0.4684
C23A C 0.3529(4) 0.4986(4) 0.0595(3)
H16A H 0.2543 0.4980 0.0997
C24A C 0.3933(4) 0.5176(4) -0.0520(3)
H17A H 0.3223 0.5289 -0.0870
O1A O -0.3004(2) -0.42392(19) 1.38190(16)
O2A O -0.1587(2) -0.1163(2) 1.02004(16)
N1A N 0.0413(3) -0.1644(2) 1.12265(19)
O3A O -0.2795(3) -0.2874(2) 1.13252(19)
C1A C -0.0658(3) -0.2474(3) 1.1630(2)
C2A C -0.0746(3) -0.3514(3) 1.2566(2)
C3A C -0.1784(3) -0.2169(3) 1.1014(2)
O4A O -0.1747(3) -0.5400(2) 1.2767(2)
C8A C -0.1949(3) -0.4460(3) 1.3074(2)
C15A C 0.0333(4) -0.3682(3) 1.3071(3)
H8A H 0.0297 -0.4353 1.3707
C18A C 0.1462(4) -0.1834(3) 1.1711(3)
H11A H 0.2210 -0.1266 1.1422
C19A C 0.1460(4) -0.2854(4) 1.2631(3)
H12A H 0.2208 -0.2981 1.2949
Co1_2 Co -0.5000 -0.5000 1.5000
Co1_3 Co 0.5000 0.5000 -0.5000
Co1_4 Co 1.5000 -0.5000 0.5000
Co2_2 Co 1.0000 0.0000 0.0000
O1A_2 O 0.6996(2) 0.57608(19) 0.38190(16)
N5A_2 N 0.4063(3) 0.6872(2) 0.44595(19)
N6A_2 N 0.5734(3) 0.5398(2) 0.61584(19)
N7A_2 N -0.1457(3) 0.0676(3) 1.1315(2)
O5 O -0.0286(6) 0.5597(7) 0.9071(5)
H19 H -0.0871 0.6143 0.8795
H20 H 0.0457 0.5483 0.8564
O6 O 0.8028(7) 0.7932(6) 0.8568(4)
H21 H 0.8287 0.8371 0.8867
H22 H 0.7143 0.8123 0.8572
O7 O 0.5119(12) 0.8347(12) 0.923(3)
H23 H 0.5986 0.8389 0.8798
H24 H 0.4706 0.7723 0.9253
loop_
_geom_bond_atom_site_label_1
_geom_bond_atom_site_label_2
_geom_bond_site_symmetry_1
_geom_bond_site_symmetry_2
Co1 O1 1_555 1_555
Co2 O2 1_555 1_555
O1 C8 1_555 1_555
O2 C3 1_555 1_555
N1 Co2 1_555 1_555
N2 C5 1_555 1_555
N3 C4 1_555 1_555
O3 C3 1_555 1_555
C1 N1 1_555 1_555
N4 C6 1_555 1_555
C2 C1 1_555 1_555
N5 Co1 1_555 1_555
C3 C1 1_555 1_555
C4 C20 1_555 1_555
N6 Co1 1_555 1_555
O4 C8 1_555 1_555
C5 C22 1_555 1_555
C6 N6 1_555 1_555
H1 C6 1_555 1_555
C7 N5 1_555 1_555
H2 C7 1_555 1_555
C8 C2 1_555 1_555
C9 N4 1_555 1_555
H3 C9 1_555 1_555
N7 Co2 1_555 1_555
C10 N4 1_555 1_555
C11 N3 1_555 1_555
H4 C11 1_555 1_555
C12 N6 1_555 1_555
H5 C12 1_555 1_555
C13 N2 1_555 1_555
H6 C13 1_555 1_555
C14 N2 1_555 1_555
H7 C14 1_555 1_555
C15 C2 1_555 1_555
H8 C15 1_555 1_555
C16 N3 1_555 1_555
H9 C16 1_555 1_555
C17 N7 1_555 1_555
H10 C17 1_555 1_555
C18 N1 1_555 1_555
H11 C18 1_555 1_555
C19 C15 1_555 1_555
H12 C19 1_555 1_555
C20 H13 1_555 1_555
C21 H14 1_555 1_555
C22 C21 1_555 1_555
H15 C22 1_555 1_555
C23 H16 1_555 1_555
C24 C10 1_555 1_555
H17 C24 1_555 1_555
C25 C20 1_555 1_555
H18 C25 1_555 1_555
O5 H19 1_555 1_555
H20 O5 1_555 1_555
O6 H21 1_555 1_555
H22 O6 1_555 1_555
O7 H23 1_555 1_555
H24 O7 1_555 1_555
N2A C5A 1_555 1_555
C5A C21 1_555 1_555
N7A C13A 1_555 1_555
C13A N2A 1_555 1_555
H6A C13A 1_555 1_555
C14A N2A 1_555 1_555
H7A C14A 1_555 1_555
C17A N7A 1_555 1_555
H10A C17A 1_555 1_555
C21A C5 1_555 1_555
H14A C21A 1_555 1_555
C22A C5A 1_555 1_555
H15A C22A 1_555 1_555
N3A C4A 1_555 1_555
N5A C7A 1_555 1_555
C4A C25 1_555 1_555
C7A H2A 1_555 1_555
C11A N3A 1_555 1_555
H4A C11A 1_555 1_555
C16A N3A 1_555 1_555
H9A C16A 1_555 1_555
C20A C4A 1_555 1_555
H13A C20A 1_555 1_555
C25A C4 1_555 1_555
H18A C25A 1_555 1_555
N4A C6A 1_555 1_555
N6A C6A 1_555 1_555
C6A H1A 1_555 1_555
C9A N4A 1_555 1_555
H3A C9A 1_555 1_555
C10A C23 1_555 1_555
C12A N6A 1_555 1_555
H5A C12A 1_555 1_555
C23A C10 1_555 1_555
H16A C23A 1_555 1_555
C24A C10A 1_555 1_555
H17A C24A 1_555 1_555
O1A C8A 1_555 1_555
O2A Co2 1_555 1_555
N1A Co2 1_555 1_555
O3A C3A 1_555 1_555
C1A N1A 1_555 1_555
C2A C1A 1_555 1_555
C3A O2A 1_555 1_555
O4A C8A 1_555 1_555
C8A C2A 1_555 1_555
C15A C2A 1_555 1_555
H8A C15A 1_555 1_555
C18A N1A 1_555 1_555
H11A C18A 1_555 1_555
C19A C15A 1_555 1_555
H12A C19A 1_555 1_555
Co1_2 O1A 1_555 1_555
Co1_3 N6A 1_555 1_555
Co1_4 N5A 1_555 1_555
Co2_2 N7A 1_555 1_555
O1A_2 Co1 1_555 1_555
N5A_2 Co1 1_555 1_555
N6A_2 Co1 1_555 1_555
N7A_2 Co2 1_555 1_555
N5 C16 1_555 1_555
C7 C11 1_555 1_555
C9 C12 1_555 1_555
N7 C13 1_555 1_555
C14 C17 1_555 1_555
C18 C19 1_555 1_555
C23 C24 1_555 1_555
C14A C17A 1_555 1_555
C21A C22A 1_555 1_555
N5A C16A 1_555 1_555
C7A C11A 1_555 1_555
C20A C25A 1_555 1_555
N4A C10A 1_555 1_555
C9A C12A 1_555 1_555
C23A C24A 1_555 1_555
C1A C3A 1_555 1_555
C18A C19A 1_555 1_555

#END
