
#######################################################################
#
#                 Cambridge Crystallographic Data Centre
#                                CCDC 
#
#######################################################################
#
# If this CIF has been generated from an entry in the Cambridge 
# Structural Database, then it will include bibliographic, chemical, 
# crystal, experimental, refinement or atomic coordinate data resulting 
# from the CCDC's data processing and validation procedures.
#
#######################################################################

data_ATULIM
_chemical_formula_moiety         '(C14 H10 N2 O6 Zn2)n'
_symmetry_cell_setting           orthorhombic
_symmetry_space_group_name_H-M   'P b a 2'
_symmetry_Int_Tables_number      32
_space_group_name_Hall           'P 2 -2ab'
loop_
_symmetry_equiv_pos_site_id
_symmetry_equiv_pos_as_xyz
1 x,y,z
2 -x,-y,z
3 1/2+x,1/2-y,z
4 1/2-x,1/2+y,z
_cell_length_a                   15.9827(10)
_cell_length_b                   16.3994(10)
_cell_length_c                   6.2418(4)
_cell_angle_alpha                90
_cell_angle_beta                 90
_cell_angle_gamma                90
_cell_volume                     1636.02
loop_
_atom_site_label
_atom_site_type_symbol
_atom_site_fract_x
_atom_site_fract_y
_atom_site_fract_z
Zn1 Zn 0.89522(2) 0.64911(2) 0.95446(10)
Zn2 Zn 0.84513(2) 0.59721(2) 0.45540(9)
O1 O 0.92960(16) 0.60448(17) 1.2335(4)
O2 O 1.2367(2) 0.8474(2) 1.3905(6)
O3 O 1.2613(2) 0.89156(19) 1.0609(6)
O4 O 0.89376(17) 0.56608(16) 0.7346(4)
O5 O 0.6673(2) 0.2505(2) 0.8859(6)
O6 O 0.6189(2) 0.22806(18) 0.5578(6)
N1 N 1.01468(19) 0.70583(18) 0.9787(7)
N2 N 0.79597(19) 0.47756(18) 0.4788(7)
C1 C 1.0110(2) 0.6237(2) 1.3012(7)
H1 H 1.0460 0.5756 1.2889
H2 H 1.0096 0.6396 1.4509
C2 C 1.0487(2) 0.6922(2) 1.1702(7)
C3 C 1.1161(2) 0.7389(3) 1.2446(8)
H3 H 1.1380 0.7300 1.3806
C4 C 1.1493(2) 0.7980(3) 1.1141(8)
C5 C 1.1169(3) 0.8086(3) 0.9086(7)
H4 H 1.1410 0.8455 0.8137
C6 C 1.0482(3) 0.7630(3) 0.8502(7)
H5 H 1.0241 0.7721 0.7167
C7 C 1.2214(2) 0.8503(2) 1.1916(8)
C8 C 0.8801(3) 0.4850(2) 0.8013(7)
H6 H 0.8638 0.4847 0.9510
H7 H 0.9319 0.4545 0.7884
C9 C 0.8132(2) 0.4439(2) 0.6703(7)
C10 C 0.7715(3) 0.3742(2) 0.7402(7)
H8 H 0.7834 0.3519 0.8736
C11 C 0.7124(3) 0.3389(2) 0.6093(7)
C12 C 0.6973(3) 0.3718(3) 0.4071(7)
H9 H 0.6595 0.3473 0.3135
C13 C 0.7399(3) 0.4416(3) 0.3500(7)
H10 H 0.7293 0.4647 0.2167
C14 C 0.6626(2) 0.2661(2) 0.6874(8)
Zn1B Zn 1.39522(2) 0.85089(2) 0.95446(10)
Zn1C Zn 0.60478(2) 0.14911(2) 0.95446(10)
Zn2_2 Zn 0.84513(2) 0.59721(2) 1.45540(9)
Zn2B Zn 1.34513(2) 0.90279(2) 1.45540(9)
Zn2C Zn 0.65487(2) 0.09721(2) 0.45540(9)
O1_2 O 0.92960(16) 0.60448(17) 0.2335(4)
O2B O 0.7367(2) 0.6526(2) 0.3905(6)
O3B O 0.7613(2) 0.60844(19) 1.0609(6)
O5C O 0.8327(2) 0.7505(2) 0.8859(6)
O6C O 0.8811(2) 0.72806(18) 0.5578(6)
loop_
_geom_bond_atom_site_label_1
_geom_bond_atom_site_label_2
_geom_bond_site_symmetry_1
_geom_bond_site_symmetry_2
Zn1 O1 1_555 1_555
Zn2 O4 1_555 1_555
O1 C1 1_555 1_555
O2 C7 1_555 1_555
O3 C7 1_555 1_555
O4 Zn1 1_555 1_555
O5 C14 1_555 1_555
O6 C14 1_555 1_555
N1 Zn1 1_555 1_555
N2 Zn2 1_555 1_555
C1 H1 1_555 1_555
H2 C1 1_555 1_555
C2 N1 1_555 1_555
C3 C2 1_555 1_555
H3 C3 1_555 1_555
C4 C3 1_555 1_555
C5 C4 1_555 1_555
H4 C5 1_555 1_555
C6 N1 1_555 1_555
H5 C6 1_555 1_555
C7 C4 1_555 1_555
C8 O4 1_555 1_555
H6 C8 1_555 1_555
H7 C8 1_555 1_555
C9 N2 1_555 1_555
C10 C9 1_555 1_555
H8 C10 1_555 1_555
C11 C10 1_555 1_555
C12 C11 1_555 1_555
H9 C12 1_555 1_555
C13 N2 1_555 1_555
H10 C13 1_555 1_555
C14 C11 1_555 1_555
Zn1B O3 1_555 1_555
Zn1C O5 1_555 1_555
Zn2_2 O1 1_555 1_555
Zn2B O2 1_555 1_555
Zn2C O6 1_555 1_555
O1_2 Zn2 1_555 1_555
O2B Zn2 1_555 1_555
O3B Zn1 1_555 1_555
O5C Zn1 1_555 1_555
O6C Zn2 1_555 1_555
C1 C2 1_555 1_555
C5 C6 1_555 1_555
C8 C9 1_555 1_555
C12 C13 1_555 1_555

#END
