
#######################################################################
#
#                 Cambridge Crystallographic Data Centre
#                                CCDC 
#
#######################################################################
#
# If this CIF has been generated from an entry in the Cambridge 
# Structural Database, then it will include bibliographic, chemical, 
# crystal, experimental, refinement or atomic coordinate data resulting 
# from the CCDC's data processing and validation procedures.
#
#######################################################################

data_QAJJUH
_chemical_formula_moiety         '(C10 H36 F4 In15 N4 O48 P8)n'
_symmetry_cell_setting           monoclinic
_symmetry_space_group_name_H-M   'P 21/n'
_symmetry_Int_Tables_number      14
_space_group_name_Hall           '-P 2yn'
loop_
_symmetry_equiv_pos_site_id
_symmetry_equiv_pos_as_xyz
1 x,y,z
2 1/2+x,1/2-y,1/2+z
3 -x,-y,-z
4 1/2-x,1/2+y,1/2-z
_cell_length_a                   18.4673(6)
_cell_length_b                   12.7117(5)
_cell_length_c                   20.4705(7)
_cell_angle_alpha                90
_cell_angle_beta                 108.566(2)
_cell_angle_gamma                90
_cell_volume                     4555.38
loop_
_atom_site_label
_atom_site_type_symbol
_atom_site_fract_x
_atom_site_fract_y
_atom_site_fract_z
N1 N 0.1135(5) 0.7408(8) 0.0945(4)
H1 H 0.1531 0.7579 0.0790
N2 N -0.0050(11) 0.741(2) -0.0290(6)
H2 H -0.0483 0.7237 -0.0202
H3 H -0.0172 0.7511 -0.0747
C1 C 0.0561(10) 0.8287(12) 0.0778(11)
H7 H 0.0156 0.8119 0.0968
H8 H 0.0808 0.8926 0.0999
C2 C 0.0241(12) 0.847(2) 0.0075(12)
H9 H 0.0621 0.8773 -0.0106
H10 H -0.0180 0.8965 -0.0007
C3 C 0.0431(14) 0.661(3) -0.0113(15)
H11 H 0.0840 0.6713 -0.0308
H12 H 0.0162 0.5969 -0.0315
C4 C 0.0735(8) 0.6465(11) 0.0564(11)
H13 H 0.1095 0.5886 0.0646
H14 H 0.0332 0.6265 0.0750
C5 C 0.1416(10) 0.720(2) 0.1646(8)
H15 H 0.1678 0.7806 0.1885
H16 H 0.1764 0.6615 0.1725
H17 H 0.1000 0.7026 0.1812
N3 N 0.3768(4) 0.2473(8) -0.0630(4)
H4 H 0.3299 0.2628 -0.0599
N4 N 0.5366(4) 0.2505(7) 0.0173(4)
H5 H 0.5856 0.2387 0.0204
H6 H 0.5359 0.2760 0.0581
C6 C 0.4129(5) 0.1691(10) -0.0054(6)
H18 H 0.4082 0.1957 0.0374
H19 H 0.3855 0.1029 -0.0157
C7 C 0.4943(5) 0.1505(9) 0.0032(6)
H20 H 0.5157 0.1021 0.0411
H21 H 0.4992 0.1190 -0.0383
C8 C 0.5041(6) 0.3288(9) -0.0364(6)
H22 H 0.5324 0.3940 -0.0242
H23 H 0.5094 0.3042 -0.0796
C9 C 0.4234(6) 0.3484(9) -0.0457(6)
H24 H 0.4035 0.3990 -0.0825
H25 H 0.4185 0.3784 -0.0037
C10 C 0.3645(7) 0.2107(12) -0.1315(6)
H26 H 0.3418 0.2658 -0.1635
H27 H 0.3310 0.1510 -0.1403
H28 H 0.4125 0.1907 -0.1368
In1 In 0.26916(3) 0.91849(4) 0.01361(2)
In2 In 0.12451(3) 0.97908(4) -0.16065(2)
In3 In 0.28526(3) 0.61234(4) -0.12326(2)
In4 In 0.21583(3) 0.42041(4) -0.01794(2)
In5 In 0.37055(3) 0.47616(4) 0.15239(2)
In6 In 0.20766(3) 1.11310(4) 0.11886(2)
In7 In 0.42363(3) 0.85061(5) 0.27046(2)
In8 In 0.57093(3) 1.14684(5) 0.22071(3)
P1 P 0.30358(11) 0.87940(16) -0.13287(9)
P2 P 0.19154(11) 0.37737(16) 0.13105(9)
P3 P 0.05691(10) 1.09066(17) -0.32534(9)
P4 P -0.06010(10) 0.91287(17) -0.18472(9)
P5 P 0.38974(10) 1.04068(16) 0.14832(9)
P6 P 0.19560(11) 1.15496(16) -0.04111(9)
P7 P 0.28785(11) 0.65584(16) 0.03702(9)
P8 P 0.10291(11) 0.54275(16) -0.15563(9)
F1 F 0.1600(2) 0.8998(3) -0.06393(19)
F2 F 0.3284(2) 0.4022(4) 0.05391(19)
F3 F 0.2767(2) 0.4574(4) -0.0883(2)
F4 F 0.2094(2) 0.9560(4) 0.08391(19)
O1 O 0.3265(3) 0.6581(4) -0.0192(2)
O2 O 0.2573(3) 0.4552(4) 0.1576(2)
O3 O 0.1025(3) 0.4941(4) -0.2244(2)
O4 O 0.1142(3) 0.4540(4) -0.1008(2)
O5 O 0.1266(3) 0.4091(4) 0.1585(2)
O6 O -0.1148(3) 0.9457(5) -0.2543(3)
O7 O 0.3748(3) 0.9518(4) 0.0931(2)
O8 O 0.4664(3) 1.0926(4) 0.1552(3)
O9 O 0.2762(3) 0.7684(4) -0.1614(2)
O10 O 0.0316(3) 1.2068(4) -0.3273(3)
O11 O 0.0271(3) 0.5979(5) -0.1634(3)
O12 O 0.2202(3) 0.2662(4) 0.1577(2)
O13 O 0.3485(3) 0.6274(4) 0.1061(2)
O14 O 0.1593(3) 0.3785(4) 0.0522(2)
O15 O 0.1077(3) 1.0627(5) -0.2532(2)
O16 O 0.3262(3) 1.1237(4) 0.1279(2)
O17 O 0.3913(3) 0.9939(4) 0.2175(2)
O18 O -0.0150(3) 1.0220(4) -0.3496(3)
O19 O 0.2227(3) 0.5755(4) 0.0195(2)
O20 O 0.0112(3) 0.9819(4) -0.1623(3)
O21 O 0.2301(3) 1.2640(4) -0.0470(2)
O22 O 0.1667(3) 0.6247(4) -0.1344(2)
O23 O 0.3723(3) 0.9123(4) -0.1543(2)
O24 O 0.2565(3) 1.0585(5) 0.2266(3)
O25 O 0.2381(3) 0.5637(5) -0.2311(2)
O26 O -0.0347(3) 0.7980(4) -0.1874(3)
O27 O 0.3111(4) 0.7717(6) 0.2174(3)
O28 O 0.3293(3) 0.8784(4) -0.0541(2)
O29 O 0.5479(3) 1.2063(5) 0.3157(3)
O30 O 0.4441(4) 0.7927(5) 0.1729(3)
O31 O 0.3925(3) 0.3138(5) 0.1911(3)
O32 O 0.6833(3) 1.2244(5) 0.2773(3)
O33 O 0.2385(3) 0.9585(4) -0.1631(2)
O34 O -0.1002(3) 0.9199(5) -0.1300(2)
O35 O 0.1054(3) 0.8177(5) -0.2050(3)
O36 O 0.2557(3) 0.7640(4) 0.0466(2)
O37 O 0.2600(3) 1.0748(4) -0.0238(2)
O38 O 0.1374(3) 1.1286(4) -0.1122(2)
O39 O 0.1551(3) 1.1550(4) 0.0138(2)
O40 O 0.1020(3) 1.0793(5) -0.3765(2)
O40C O 0.3980(3) 0.5793(5) -0.1235(2)
O21_2 O 0.2301(3) 0.2640(4) -0.0470(2)
O6A O 0.3852(3) 0.5543(5) 0.2457(3)
O18A O 0.4850(3) 0.4780(4) 0.1504(3)
O12_2 O 0.2202(3) 1.2662(4) 0.1577(2)
O34B O 0.1002(3) 1.0801(5) 0.1300(2)
O5C O 0.3734(3) 0.9091(4) 0.3415(2)
O11A O 0.5271(3) 0.9021(5) 0.3366(3)
O26A O 0.4653(3) 0.7020(4) 0.3126(3)
O3A O 0.6025(3) 1.0059(4) 0.2756(2)
O10A O 0.5316(3) 1.2932(4) 0.1727(3)
O23B O 0.6277(3) 1.0877(4) 0.1543(2)
In8A In 0.07093(3) 0.35316(5) -0.27929(3)
In7C In 0.07637(3) 0.35061(5) 0.22954(2)
In5A In -0.12945(3) 1.02384(4) -0.34761(2)
In8A_2 In 0.07093(3) 1.35316(5) -0.27929(3)
In7A In -0.07637(3) 0.64939(5) -0.22954(2)
In6_2 In 0.20766(3) 0.11310(4) 0.11886(2)
In4_2 In 0.21583(3) 1.42041(4) -0.01794(2)
In8B In 0.42907(3) 0.85316(5) -0.22071(3)
In6B In -0.20766(3) 0.88690(4) -0.11886(2)
In3C In 0.21474(3) 1.11234(4) -0.37674(2)
loop_
_geom_bond_atom_site_label_1
_geom_bond_atom_site_label_2
_geom_bond_site_symmetry_1
_geom_bond_site_symmetry_2
In1 F1 1_555 1_555
In2 F1 1_555 1_555
In3 F3 1_555 1_555
In4 F2 1_555 1_555
In5 F2 1_555 1_555
In6 F4 1_555 1_555
In7 O17 1_555 1_555
In8 O8 1_555 1_555
P1 O9 1_555 1_555
P2 O2 1_555 1_555
P3 O10 1_555 1_555
P4 O6 1_555 1_555
P5 O7 1_555 1_555
P6 O21 1_555 1_555
P7 O1 1_555 1_555
P8 O3 1_555 1_555
F3 In4 1_555 1_555
F4 In1 1_555 1_555
O1 In3 1_555 1_555
O2 In5 1_555 1_555
O3 In8A 1_555 1_555
O4 In4 1_555 1_555
O5 P2 1_555 1_555
O6 In5A 1_555 1_555
O7 In1 1_555 1_555
O8 P5 1_555 1_555
O9 In3 1_555 1_555
O10 In8A_2 1_555 1_555
O11 P8 1_555 1_555
O12 P2 1_555 1_555
O13 In5 1_555 1_555
O14 In4 1_555 1_555
O15 In2 1_555 1_555
O16 In6 1_555 1_555
O17 P5 1_555 1_555
O18 P3 1_555 1_555
O19 In4 1_555 1_555
O20 In2 1_555 1_555
O21 In4_2 1_555 1_555
O22 In3 1_555 1_555
O23 P1 1_555 1_555
O24 In6 1_555 1_555
O25 In3 1_555 1_555
O26 P4 1_555 1_555
O27 In7 1_555 1_555
O28 In1 1_555 1_555
O29 In8 1_555 1_555
O30 In7 1_555 1_555
O31 In5 1_555 1_555
O32 In8 1_555 1_555
O33 In2 1_555 1_555
O34 P4 1_555 1_555
O35 In2 1_555 1_555
O36 In1 1_555 1_555
O37 In1 1_555 1_555
O38 In2 1_555 1_555
O39 In6 1_555 1_555
O40 P3 1_555 1_555
N1 H1 1_555 1_555
N2 H2 1_555 1_555
H3 N2 1_555 1_555
N3 H4 1_555 1_555
N4 H5 1_555 1_555
H6 N4 1_555 1_555
C1 N1 1_555 1_555
H7 C1 1_555 1_555
H8 C1 1_555 1_555
C2 N2 1_555 1_555
H9 C2 1_555 1_555
H10 C2 1_555 1_555
C3 N2 1_555 1_555
H11 C3 1_555 1_555
H12 C3 1_555 1_555
C4 N1 1_555 1_555
H13 C4 1_555 1_555
H14 C4 1_555 1_555
C5 N1 1_555 1_555
H15 C5 1_555 1_555
H16 C5 1_555 1_555
H17 C5 1_555 1_555
C6 N3 1_555 1_555
H18 C6 1_555 1_555
H19 C6 1_555 1_555
C7 N4 1_555 1_555
H20 C7 1_555 1_555
H21 C7 1_555 1_555
C8 N4 1_555 1_555
H22 C8 1_555 1_555
H23 C8 1_555 1_555
C9 N3 1_555 1_555
H24 C9 1_555 1_555
H25 C9 1_555 1_555
C10 N3 1_555 1_555
H26 C10 1_555 1_555
H27 C10 1_555 1_555
H28 C10 1_555 1_555
O40C In3 1_555 1_555
O21_2 In4 1_555 1_555
O6A In5 1_555 1_555
O18A In5 1_555 1_555
O12_2 In6 1_555 1_555
O34B In6 1_555 1_555
O5C In7 1_555 1_555
O11A In7 1_555 1_555
O26A In7 1_555 1_555
O3A In8 1_555 1_555
O10A In8 1_555 1_555
O23B In8 1_555 1_555
In7C O5 1_555 1_555
In5A O18 1_555 1_555
In7A O11 1_555 1_555
In6_2 O12 1_555 1_555
In8B O23 1_555 1_555
In6B O34 1_555 1_555
In3C O40 1_555 1_555
P1 O28 1_555 1_555
P1 O33 1_555 1_555
P2 O14 1_555 1_555
P3 O15 1_555 1_555
P4 O20 1_555 1_555
P5 O16 1_555 1_555
P6 O37 1_555 1_555
P6 O38 1_555 1_555
P6 O39 1_555 1_555
P7 O13 1_555 1_555
P7 O19 1_555 1_555
P7 O36 1_555 1_555
P8 O4 1_555 1_555
P8 O22 1_555 1_555
O26 In7A 1_555 1_555
C1 C2 1_555 1_555
C3 C4 1_555 1_555
C6 C7 1_555 1_555
C8 C9 1_555 1_555

#END
