
#######################################################################
#
#                 Cambridge Crystallographic Data Centre
#                                CCDC 
#
#######################################################################
#
# If this CIF has been generated from an entry in the Cambridge 
# Structural Database, then it will include bibliographic, chemical, 
# crystal, experimental, refinement or atomic coordinate data resulting 
# from the CCDC's data processing and validation procedures.
#
#######################################################################

data_FOCYUT
_chemical_formula_moiety         '(C34 H19 Nd1 O8)n'
_symmetry_cell_setting           triclinic
_symmetry_space_group_name_H-M   'P -1'
_symmetry_Int_Tables_number      2
_space_group_name_Hall           '-P 1'
loop_
_symmetry_equiv_pos_site_id
_symmetry_equiv_pos_as_xyz
1 x,y,z
2 -x,-y,-z
_cell_length_a                   9.3093(11)
_cell_length_b                   11.9578(14)
_cell_length_c                   15.8071(19)
_cell_angle_alpha                81.178(4)
_cell_angle_beta                 73.671(4)
_cell_angle_gamma                71.162(4)
_cell_volume                     1594.4
loop_
_atom_site_label
_atom_site_type_symbol
_atom_site_fract_x
_atom_site_fract_y
_atom_site_fract_z
Nd1 Nd 1.18421(4) 0.02866(3) 0.01953(2)
O1 O 1.2762(5) 0.1085(4) 0.1199(3)
O2 O 1.4057(5) 0.2410(4) 0.1053(3)
H1 H 1.4650 0.2005 0.0630
O3 O 1.0914(6) 0.9458(4) 0.1721(3)
O4 O 0.9970(5) 0.8915(4) 0.0764(3)
O5 O 0.2437(5) 0.8938(4) 0.9092(3)
O6 O 0.0498(5) 0.8235(4) 0.9077(3)
O7 O 0.3686(5) 0.1174(4) 0.9165(3)
O8 O 0.5737(5) 0.1231(4) 0.9630(3)
C1 C 0.8432(8) 0.4435(6) 0.4392(4)
C2 C 0.7872(7) 0.5673(5) 0.4355(4)
C3 C 0.6736(8) 0.6215(5) 0.5074(4)
H2 H 0.6341 0.7055 0.5035
C4 C 0.6139(7) 0.5602(5) 0.5853(4)
C5 C 0.6721(8) 0.4360(6) 0.5891(4)
C6 C 0.7806(8) 0.3811(6) 0.5163(4)
H3 H 0.8145 0.2970 0.5186
C7 C 0.9649(8) 0.3741(6) 0.3668(4)
C8 C 0.9536(8) 0.2708(6) 0.3436(4)
H4 H 0.8703 0.2406 0.3769
C9 C 1.0612(8) 0.2101(6) 0.2729(4)
H5 H 1.0518 0.1395 0.2574
C10 C 1.1837(8) 0.2556(6) 0.2250(4)
C11 C 1.1994(8) 0.3562(6) 0.2490(4)
H6 H 1.2835 0.3858 0.2162
C12 C 1.0934(8) 0.4144(6) 0.3208(4)
H7 H 1.1075 0.4815 0.3388
C13 C 1.2921(8) 0.1948(6) 0.1455(4)
C14 C 0.8444(7) 0.6472(5) 0.3612(4)
C15 C 0.8485(8) 0.6386(6) 0.2731(4)
H8 H 0.8151 0.5782 0.2588
C16 C 0.9010(8) 0.7174(6) 0.2055(4)
H9 H 0.9030 0.7105 0.1461
C17 C 0.9503(7) 0.8059(5) 0.2259(4)
C18 C 0.9450(8) 0.8166(6) 0.3134(4)
H10 H 0.9783 0.8771 0.3275
C19 C 0.8911(8) 0.7391(5) 0.3799(4)
H11 H 0.8858 0.7484 0.4394
C20 C 1.0148(8) 0.8863(5) 0.1550(4)
C21 C 0.4981(8) 0.6288(5) 0.6589(4)
C22 C 0.5078(8) 0.7391(6) 0.6728(4)
H12 H 0.5855 0.7700 0.6329
C23 C 0.4072(8) 0.8040(6) 0.7428(4)
H13 H 0.4158 0.8787 0.7503
C24 C 0.2932(8) 0.7596(6) 0.8024(4)
C25 C 0.2773(8) 0.6538(6) 0.7871(4)
H14 H 0.1952 0.6257 0.8251
C26 C 0.3788(8) 0.5878(6) 0.7175(4)
H15 H 0.3673 0.5143 0.7094
C27 C 0.1850(9) 0.8300(6) 0.8796(4)
C28 C 0.6311(7) 0.3568(5) 0.6706(4)
C29 C 0.6629(7) 0.3682(6) 0.7489(4)
H16 H 0.7122 0.4255 0.7513
C30 C 0.6227(8) 0.2955(5) 0.8244(4)
H17 H 0.6483 0.3015 0.8773
C31 C 0.5453(7) 0.2147(5) 0.8221(4)
C32 C 0.5138(8) 0.2029(6) 0.7435(4)
H18 H 0.4604 0.1481 0.7416
C33 C 0.5606(8) 0.2718(6) 0.6675(4)
H19 H 0.5442 0.2604 0.6131
C34 C 0.4923(8) 0.1452(5) 0.9056(4)
Nd1_2 Nd 0.18421(4) 0.02866(3) 1.01953(2)
Nd1_3 Nd 0.18421(4) 1.02866(3) 1.01953(2)
Nd1_4 Nd 1.18421(4) 1.02866(3) 0.01953(2)
Nd1A Nd -0.18421(4) 0.97134(3) 0.98047(2)
Nd1A_2 Nd 0.81579(4) -0.02866(3) 0.98047(2)
Nd1A_3 Nd 0.81579(4) 0.97134(3) -0.01953(2)
O3_2 O 1.0914(6) -0.0542(4) 0.1721(3)
O4_2 O 0.9970(5) -0.1085(4) 0.0764(3)
O4A O 1.0030(5) 0.1085(4) -0.0764(3)
O5_2 O 1.2437(5) -0.1062(4) -0.0908(3)
O6A O 0.9502(5) 0.1765(4) 0.0923(3)
O7_2 O 1.3686(5) 0.1174(4) -0.0835(3)
O8A O 1.4263(5) -0.1231(4) 0.0370(3)
loop_
_geom_bond_atom_site_label_1
_geom_bond_atom_site_label_2
_geom_bond_site_symmetry_1
_geom_bond_site_symmetry_2
Nd1 O1 1_555 1_555
O1 C13 1_555 1_555
O2 H1 1_555 1_555
O3 C20 1_555 1_555
O4 C20 1_555 1_555
O5 C27 1_555 1_555
O6 C27 1_555 1_555
O7 C34 1_555 1_555
O8 C34 1_555 1_555
C1 C2 1_555 1_555
C2 C3 1_555 1_555
C3 H2 1_555 1_555
C4 C3 1_555 1_555
C5 C4 1_555 1_555
C6 C1 1_555 1_555
H3 C6 1_555 1_555
C7 C1 1_555 1_555
C8 C7 1_555 1_555
H4 C8 1_555 1_555
C9 C8 1_555 1_555
H5 C9 1_555 1_555
C10 C9 1_555 1_555
C11 C10 1_555 1_555
H6 C11 1_555 1_555
C12 C7 1_555 1_555
H7 C12 1_555 1_555
C13 O2 1_555 1_555
C14 C2 1_555 1_555
C15 C14 1_555 1_555
H8 C15 1_555 1_555
C16 C15 1_555 1_555
H9 C16 1_555 1_555
C17 C16 1_555 1_555
C18 C17 1_555 1_555
H10 C18 1_555 1_555
C19 C14 1_555 1_555
H11 C19 1_555 1_555
C20 C17 1_555 1_555
C21 C4 1_555 1_555
C22 C21 1_555 1_555
H12 C22 1_555 1_555
C23 C22 1_555 1_555
H13 C23 1_555 1_555
C24 C23 1_555 1_555
C25 C24 1_555 1_555
H14 C25 1_555 1_555
C26 C21 1_555 1_555
H15 C26 1_555 1_555
C27 C24 1_555 1_555
C28 C5 1_555 1_555
C29 C28 1_555 1_555
H16 C29 1_555 1_555
C30 C29 1_555 1_555
H17 C30 1_555 1_555
C31 C30 1_555 1_555
C32 C31 1_555 1_555
H18 C32 1_555 1_555
C33 C28 1_555 1_555
H19 C33 1_555 1_555
C34 C31 1_555 1_555
Nd1_2 O7 1_555 1_555
Nd1_3 O5 1_555 1_555
Nd1_4 O3 1_555 1_555
Nd1A O6 1_555 1_555
Nd1A_2 O8 1_555 1_555
Nd1A_3 O4 1_555 1_555
O3_2 Nd1 1_555 1_555
O4_2 Nd1 1_555 1_555
O4A Nd1 1_555 1_555
O5_2 Nd1 1_555 1_555
O6A Nd1 1_555 1_555
O7_2 Nd1 1_555 1_555
O8A Nd1 1_555 1_555
O4 Nd1_4 1_555 1_555
C5 C6 1_555 1_555
C10 C13 1_555 1_555
C11 C12 1_555 1_555
C18 C19 1_555 1_555
C25 C26 1_555 1_555
C32 C33 1_555 1_555

#END
