
#######################################################################
#
#                 Cambridge Crystallographic Data Centre
#                                CCDC 
#
#######################################################################
#
# If this CIF has been generated from an entry in the Cambridge 
# Structural Database, then it will include bibliographic, chemical, 
# crystal, experimental, refinement or atomic coordinate data resulting 
# from the CCDC's data processing and validation procedures.
#
#######################################################################

data_FOCZAA
_chemical_formula_moiety         '(C50 H39 Nd1 O8)n'
_symmetry_cell_setting           triclinic
_symmetry_space_group_name_H-M   'P -1'
_symmetry_Int_Tables_number      2
_space_group_name_Hall           '-P 1'
loop_
_symmetry_equiv_pos_site_id
_symmetry_equiv_pos_as_xyz
1 x,y,z
2 -x,-y,-z
_cell_length_a                   9.5256(5)
_cell_length_b                   12.1272(6)
_cell_length_c                   15.8886(8)
_cell_angle_alpha                88.508(2)
_cell_angle_beta                 74.677(2)
_cell_angle_gamma                70.379(2)
_cell_volume                     1663.42
loop_
_atom_site_label
_atom_site_type_symbol
_atom_site_fract_x
_atom_site_fract_y
_atom_site_fract_z
Nd1 Nd 0.29541(2) 0.97580(2) 0.01839(2)
O1 O 0.1311(3) 0.8829(2) 0.11647(18)
O2 O 0.0127(3) 0.7588(2) 0.09793(18)
H1 H -0.0126 0.8048 0.0598
O3 O 0.2368(3) 0.0654(2) 0.16480(17)
O4 O 0.4471(3) 0.0953(2) 0.08481(17)
O5 O 0.5357(3) 0.1666(2) 0.91133(18)
O6 O 0.3181(3) 0.1271(2) 0.92602(18)
O7 O 0.2080(3) 0.8922(2) 0.91378(17)
O8 O -0.0310(3) 0.8818(2) 0.96142(16)
C1 C 0.2242(4) 0.5509(3) 0.4403(2)
C2 C 0.2731(4) 0.4275(3) 0.4413(2)
C3 C 0.3025(5) 0.3765(3) 0.5169(2)
H2 H 0.3369 0.2934 0.5167
C4 C 0.2843(4) 0.4409(3) 0.5935(2)
C5 C 0.2328(4) 0.5641(3) 0.5930(2)
C6 C 0.2070(4) 0.6152(3) 0.5163(2)
H3 H 0.1761 0.6983 0.5157
C7 C 0.1864(4) 0.6150(3) 0.3634(2)
C8 C 0.2195(5) 0.7185(3) 0.3433(2)
H4 H 0.2646 0.7484 0.3800
C9 C 0.1880(5) 0.7780(3) 0.2713(3)
H5 H 0.2120 0.8476 0.2588
C10 C 0.1205(5) 0.7356(3) 0.2169(2)
C11 C 0.0856(5) 0.6335(3) 0.2366(3)
H6 H 0.0411 0.6036 0.1996
C12 C 0.1153(5) 0.5755(3) 0.3093(2)
H7 H 0.0871 0.5077 0.3230
C13 C 0.0900(5) 0.7985(3) 0.1394(2)
C14 C 0.2944(4) 0.3458(3) 0.3668(2)
C15 C 0.4044(5) 0.3368(3) 0.2872(3)
H8 H 0.4659 0.3858 0.2787
C16 C 0.4251(5) 0.2566(3) 0.2199(3)
H9 H 0.5045 0.2481 0.1671
C17 C 0.3295(4) 0.1889(3) 0.2299(2)
C18 C 0.2194(5) 0.1985(3) 0.3087(2)
H10 H 0.1535 0.1531 0.3158
C19 C 0.2040(5) 0.2735(3) 0.3773(2)
H11 H 0.1316 0.2760 0.4320
C20 C 0.3388(5) 0.1114(3) 0.1558(2)
C21 C 0.3208(4) 0.3745(3) 0.6695(2)
C22 C 0.2765(5) 0.2756(3) 0.6894(2)
H12 H 0.2257 0.2511 0.6533
C23 C 0.3056(5) 0.2133(3) 0.7605(3)
H13 H 0.2720 0.1478 0.7737
C24 C 0.3839(5) 0.2455(3) 0.8132(2)
C25 C 0.4332(5) 0.3414(3) 0.7920(2)
H14 H 0.4901 0.3627 0.8257
C26 C 0.3997(5) 0.4053(3) 0.7222(2)
H15 H 0.4311 0.4719 0.7099
C27 C 0.4152(5) 0.1754(3) 0.8896(3)
C28 C 0.1942(4) 0.6433(3) 0.6724(2)
C29 C 0.0962(5) 0.6303(3) 0.7511(2)
H16 H 0.0537 0.5693 0.7545
C30 C 0.0589(5) 0.7045(3) 0.8249(2)
H17 H -0.0118 0.6962 0.8774
C31 C 0.1257(4) 0.7907(3) 0.8216(2)
C32 C 0.2218(5) 0.8063(3) 0.7433(2)
H18 H 0.2661 0.8662 0.7406
C33 C 0.2541(5) 0.7345(3) 0.6684(2)
H19 H 0.3168 0.7477 0.6145
C34 C 0.0987(5) 0.8617(3) 0.9038(2)
Nd1_2 Nd 0.29541(2) -0.02420(2) 0.01839(2)
Nd1_3 Nd 0.29541(2) -0.02420(2) 1.01839(2)
Nd1_4 Nd 0.29541(2) 0.97580(2) 1.01839(2)
Nd1A Nd -0.29541(2) 1.02420(2) 0.98161(2)
Nd1A_2 Nd 0.70459(2) 0.02420(2) -0.01839(2)
Nd1A_3 Nd 0.70459(2) 0.02420(2) 0.98161(2)
O3_2 O 0.2368(3) 1.0654(2) 0.16480(17)
O4_2 O 0.4471(3) 1.0953(2) 0.08481(17)
O4A O 0.5529(3) 0.9047(2) -0.08481(17)
O5A O 0.4643(3) 0.8334(2) 0.08867(18)
O6_2 O 0.3181(3) 1.1271(2) -0.07398(18)
O7_2 O 0.2080(3) 0.8922(2) -0.08622(17)
O8A O 0.0310(3) 1.1182(2) 0.03858(16)
C35 C 0.1889(10) 0.9985(6) 0.5045(6)
H20 H 0.1593 0.9456 0.5479
H21 H 0.1896 0.9719 0.4466
H22 H 0.1142 1.0782 0.5203
C36 C 0.3516(9) 0.9981(5) 0.5025(4)
C37 C 0.3912(10) 1.0041(5) 0.5781(4)
H23 H 0.3186 1.0064 0.6327
C38 C 0.5384(10) 1.0070(5) 0.5765(4)
H24 H 0.5631 1.0124 0.6301
C35A C 0.8111(10) 1.0015(6) 0.4955(6)
H20A H 0.8407 1.0544 0.4521
H21A H 0.8104 1.0281 0.5534
H22A H 0.8858 0.9218 0.4797
C36A C 0.6484(9) 1.0019(5) 0.4975(4)
C37A C 0.6088(10) 0.9959(5) 0.4219(4)
H23A H 0.6814 0.9936 0.3673
C38A C 0.4616(10) 0.9930(5) 0.4235(4)
H24A H 0.4369 0.9876 0.3699
C39 C 0.2036(7) 0.4828(5) -0.0040(4)
H25 H 0.1193 0.5450 0.0355
H26 H 0.1995 0.4061 0.0150
H27 H 0.1925 0.4912 -0.0636
C40 C 0.3562(6) 0.4918(4) -0.0023(3)
C41 C 0.4608(7) 0.4053(4) 0.0301(3)
H28 H 0.4353 0.3386 0.0513
C42 C 0.6010(7) 0.4121(4) 0.0330(4)
H29 H 0.6693 0.3506 0.0562
C39A C 0.7964(7) 0.5172(5) 0.0040(4)
H25A H 0.8807 0.4550 -0.0355
H26A H 0.8005 0.5939 -0.0150
H27A H 0.8075 0.5088 0.0636
C40A C 0.6438(6) 0.5082(4) 0.0023(3)
C41A C 0.5392(7) 0.5947(4) -0.0301(3)
H28A H 0.5647 0.6614 -0.0513
C42A C 0.3990(7) 0.5879(4) -0.0330(4)
H29A H 0.3307 0.6494 -0.0562
loop_
_geom_bond_atom_site_label_1
_geom_bond_atom_site_label_2
_geom_bond_site_symmetry_1
_geom_bond_site_symmetry_2
Nd1 O1 1_555 1_555
O1 C13 1_555 1_555
O2 H1 1_555 1_555
O3 C20 1_555 1_555
O4 C20 1_555 1_555
O5 C27 1_555 1_555
O6 C27 1_555 1_555
O7 C34 1_555 1_555
O8 C34 1_555 1_555
C1 C2 1_555 1_555
C2 C3 1_555 1_555
C3 H2 1_555 1_555
C4 C3 1_555 1_555
C5 C4 1_555 1_555
C6 C1 1_555 1_555
H3 C6 1_555 1_555
C7 C1 1_555 1_555
C8 C7 1_555 1_555
H4 C8 1_555 1_555
C9 C8 1_555 1_555
H5 C9 1_555 1_555
C10 C9 1_555 1_555
C11 C10 1_555 1_555
H6 C11 1_555 1_555
C12 C7 1_555 1_555
H7 C12 1_555 1_555
C13 O2 1_555 1_555
C14 C2 1_555 1_555
C15 C14 1_555 1_555
H8 C15 1_555 1_555
C16 C15 1_555 1_555
H9 C16 1_555 1_555
C17 C16 1_555 1_555
C18 C17 1_555 1_555
H10 C18 1_555 1_555
C19 C14 1_555 1_555
H11 C19 1_555 1_555
C20 C17 1_555 1_555
C21 C4 1_555 1_555
C22 C21 1_555 1_555
H12 C22 1_555 1_555
C23 C22 1_555 1_555
H13 C23 1_555 1_555
C24 C23 1_555 1_555
C25 C24 1_555 1_555
H14 C25 1_555 1_555
C26 C21 1_555 1_555
H15 C26 1_555 1_555
C27 C24 1_555 1_555
C28 C5 1_555 1_555
C29 C28 1_555 1_555
H16 C29 1_555 1_555
C30 C29 1_555 1_555
H17 C30 1_555 1_555
C31 C30 1_555 1_555
C32 C31 1_555 1_555
H18 C32 1_555 1_555
C33 C28 1_555 1_555
H19 C33 1_555 1_555
C34 C31 1_555 1_555
C35 H20 1_555 1_555
H21 C35 1_555 1_555
H22 C35 1_555 1_555
C36 C35 1_555 1_555
C37 C36 1_555 1_555
H23 C37 1_555 1_555
C38 C37 1_555 1_555
H24 C38 1_555 1_555
C39 H25 1_555 1_555
H26 C39 1_555 1_555
H27 C39 1_555 1_555
C40 C39 1_555 1_555
C41 C40 1_555 1_555
H28 C41 1_555 1_555
C42 C41 1_555 1_555
H29 C42 1_555 1_555
Nd1_2 O3 1_555 1_555
Nd1_3 O6 1_555 1_555
Nd1_4 O7 1_555 1_555
Nd1A O8 1_555 1_555
Nd1A_2 O4 1_555 1_555
Nd1A_3 O5 1_555 1_555
O3_2 Nd1 1_555 1_555
O4_2 Nd1 1_555 1_555
O4A Nd1 1_555 1_555
O5A Nd1 1_555 1_555
O6_2 Nd1 1_555 1_555
O7_2 Nd1 1_555 1_555
O8A Nd1 1_555 1_555
C35A H20A 1_555 1_555
H21A C35A 1_555 1_555
H22A C35A 1_555 1_555
C36A C38 1_555 1_555
C37A C36A 1_555 1_555
H23A C37A 1_555 1_555
C38A C36 1_555 1_555
H24A C38A 1_555 1_555
C39A H25A 1_555 1_555
H26A C39A 1_555 1_555
H27A C39A 1_555 1_555
C40A C42 1_555 1_555
C41A C40A 1_555 1_555
H28A C41A 1_555 1_555
C42A C40 1_555 1_555
H29A C42A 1_555 1_555
O4 Nd1_2 1_555 1_555
C5 C6 1_555 1_555
C10 C13 1_555 1_555
C11 C12 1_555 1_555
C18 C19 1_555 1_555
C25 C26 1_555 1_555
C32 C33 1_555 1_555
C35A C36A 1_555 1_555
C37A C38A 1_555 1_555
C39A C40A 1_555 1_555
C41A C42A 1_555 1_555

#END
