
#######################################################################
#
#                 Cambridge Crystallographic Data Centre
#                                CCDC 
#
#######################################################################
#
# If this CIF has been generated from an entry in the Cambridge 
# Structural Database, then it will include bibliographic, chemical, 
# crystal, experimental, refinement or atomic coordinate data resulting 
# from the CCDC's data processing and validation procedures.
#
#######################################################################

data_FOFCIO
_chemical_formula_moiety         '(C34 H19 Ce1 O8)n'
_symmetry_cell_setting           triclinic
_symmetry_space_group_name_H-M   'P -1'
_symmetry_Int_Tables_number      2
_space_group_name_Hall           '-P 1'
loop_
_symmetry_equiv_pos_site_id
_symmetry_equiv_pos_as_xyz
1 x,y,z
2 -x,-y,-z
_cell_length_a                   9.7441(6)
_cell_length_b                   12.3318(7)
_cell_length_c                   15.7737(9)
_cell_angle_alpha                88.979(2)
_cell_angle_beta                 77.399(2)
_cell_angle_gamma                69.498(2)
_cell_volume                     1729.02
loop_
_atom_site_label
_atom_site_type_symbol
_atom_site_fract_x
_atom_site_fract_y
_atom_site_fract_z
Ce1 Ce 0.79883(4) 0.47203(3) 0.015592(19)
O1 O 0.6567(5) 0.3657(4) 0.1078(3)
O2 O 0.5148(5) 0.2620(4) 0.0937(3)
H1 H 0.4929 0.3075 0.0544
O3 O 0.7541(5) -0.4479(4) 0.1661(3)
O4 O 0.9535(5) -0.4154(4) 0.0914(3)
O5 O 1.0161(5) -0.3233(3) 0.9226(3)
O6 O 0.8063(4) -0.3651(4) 0.9336(3)
O7 O 0.6953(5) 0.4036(3) 0.9082(2)
O8 O 0.4689(4) 0.3873(3) 0.9558(2)
C1 C 0.7284(6) 0.0442(5) 0.4379(3)
C2 C 0.7694(6) -0.0759(5) 0.4426(4)
C3 C 0.7917(6) -0.1243(5) 0.5219(4)
H2 H 0.8222 -0.2062 0.5245
C4 C 0.7711(6) -0.0570(5) 0.5975(3)
C5 C 0.7259(6) 0.0634(5) 0.5935(4)
C6 C 0.7077(6) 0.1113(5) 0.5132(4)
H3 H 0.6801 0.1929 0.5102
C7 C 0.6989(6) 0.1058(5) 0.3574(3)
C8 C 0.6209(7) 0.0729(5) 0.3044(4)
H4 H 0.5879 0.0095 0.3187
C9 C 0.5913(7) 0.1316(5) 0.2313(4)
H5 H 0.5373 0.1088 0.1961
C10 C 0.6396(6) 0.2234(5) 0.2089(4)
C11 C 0.7180(7) 0.2573(5) 0.2611(4)
H6 H 0.7508 0.3207 0.2466
C12 C 0.7477(7) 0.1976(5) 0.3344(4)
H7 H 0.8023 0.2201 0.3694
C13 C 0.6042(7) 0.2906(5) 0.1325(4)
C14 C 0.7934(6) -0.1590(5) 0.3684(3)
C15 C 0.9016(7) -0.1700(5) 0.2920(4)
H8 H 0.9602 -0.1216 0.2851
C16 C 0.9245(7) -0.2519(5) 0.2257(4)
H9 H 1.0021 -0.2614 0.1750
C17 C 0.8359(7) -0.3194(5) 0.2327(4)
C18 C 0.7266(7) -0.3078(5) 0.3089(4)
H10 H 0.6642 -0.3531 0.3143
C19 C 0.7082(7) -0.2309(5) 0.3767(4)
H11 H 0.6370 -0.2268 0.4295
C20 C 0.8494(7) -0.3996(5) 0.1598(4)
C21 C 0.8024(6) -0.1211(5) 0.6766(3)
C22 C 0.7581(7) -0.2161(5) 0.6960(4)
H12 H 0.7075 -0.2391 0.6586
C23 C 0.7858(7) -0.2777(5) 0.7680(4)
H13 H 0.7511 -0.3404 0.7810
C24 C 0.8651(6) -0.2477(5) 0.8219(4)
C25 C 0.9140(6) -0.1555(5) 0.8020(4)
H14 H 0.9703 -0.1357 0.8372
C26 C 0.8813(7) -0.0919(5) 0.7309(4)
H15 H 0.9131 -0.0275 0.7191
C27 C 0.8992(7) -0.3171(5) 0.8993(4)
C28 C 0.6875(6) 0.1446(5) 0.6712(4)
C29 C 0.5875(7) 0.1379(5) 0.7472(4)
H16 H 0.5436 0.0798 0.7503
C30 C 0.5513(6) 0.2150(5) 0.8182(4)
H17 H 0.4791 0.2118 0.8687
C31 C 0.6192(6) 0.2965(5) 0.8164(3)
C32 C 0.7169(7) 0.3054(5) 0.7425(4)
H18 H 0.7632 0.3619 0.7410
C33 C 0.7490(7) 0.2314(5) 0.6687(4)
H19 H 0.8133 0.2404 0.6165
C34 C 0.5929(7) 0.3689(5) 0.8984(4)
Ce1_2 Ce 0.79883(4) -0.52797(3) 0.015592(19)
Ce1_3 Ce 0.79883(4) -0.52797(3) 1.015592(19)
Ce1_4 Ce 0.79883(4) 0.47203(3) 1.015592(19)
Ce1A Ce 0.20117(4) 0.52797(3) 0.984408(19)
Ce1A_2 Ce 1.20117(4) -0.47203(3) -0.015592(19)
Ce1A_3 Ce 1.20117(4) -0.47203(3) 0.984408(19)
O3_2 O 0.7541(5) 0.5521(4) 0.1661(3)
O4_2 O 0.9535(5) 0.5846(4) 0.0914(3)
O4A O 1.0465(5) 0.4154(4) -0.0914(3)
O5A O 0.9839(5) 0.3233(3) 0.0774(3)
O6_2 O 0.8063(4) 0.6349(4) -0.0664(3)
O7_2 O 0.6953(5) 0.4036(3) -0.0918(2)
O8A O 0.5311(4) 0.6127(3) 0.0442(2)
loop_
_geom_bond_atom_site_label_1
_geom_bond_atom_site_label_2
_geom_bond_site_symmetry_1
_geom_bond_site_symmetry_2
Ce1 O1 1_555 1_555
O1 C13 1_555 1_555
O2 H1 1_555 1_555
O3 C20 1_555 1_555
O4 C20 1_555 1_555
O5 C27 1_555 1_555
O6 C27 1_555 1_555
O7 C34 1_555 1_555
O8 C34 1_555 1_555
C1 C2 1_555 1_555
C2 C3 1_555 1_555
C3 H2 1_555 1_555
C4 C3 1_555 1_555
C5 C4 1_555 1_555
C6 C1 1_555 1_555
H3 C6 1_555 1_555
C7 C1 1_555 1_555
C8 C7 1_555 1_555
H4 C8 1_555 1_555
C9 C8 1_555 1_555
H5 C9 1_555 1_555
C10 C9 1_555 1_555
C11 C10 1_555 1_555
H6 C11 1_555 1_555
C12 C7 1_555 1_555
H7 C12 1_555 1_555
C13 O2 1_555 1_555
C14 C2 1_555 1_555
C15 C14 1_555 1_555
H8 C15 1_555 1_555
C16 C15 1_555 1_555
H9 C16 1_555 1_555
C17 C16 1_555 1_555
C18 C17 1_555 1_555
H10 C18 1_555 1_555
C19 C14 1_555 1_555
H11 C19 1_555 1_555
C20 C17 1_555 1_555
C21 C4 1_555 1_555
C22 C21 1_555 1_555
H12 C22 1_555 1_555
C23 C22 1_555 1_555
H13 C23 1_555 1_555
C24 C23 1_555 1_555
C25 C24 1_555 1_555
H14 C25 1_555 1_555
C26 C21 1_555 1_555
H15 C26 1_555 1_555
C27 C24 1_555 1_555
C28 C5 1_555 1_555
C29 C28 1_555 1_555
H16 C29 1_555 1_555
C30 C29 1_555 1_555
H17 C30 1_555 1_555
C31 C30 1_555 1_555
C32 C31 1_555 1_555
H18 C32 1_555 1_555
C33 C28 1_555 1_555
H19 C33 1_555 1_555
C34 C31 1_555 1_555
Ce1_2 O3 1_555 1_555
Ce1_3 O6 1_555 1_555
Ce1_4 O7 1_555 1_555
Ce1A O8 1_555 1_555
Ce1A_2 O4 1_555 1_555
Ce1A_3 O5 1_555 1_555
O3_2 Ce1 1_555 1_555
O4_2 Ce1 1_555 1_555
O4A Ce1 1_555 1_555
O5A Ce1 1_555 1_555
O6_2 Ce1 1_555 1_555
O7_2 Ce1 1_555 1_555
O8A Ce1 1_555 1_555
O4 Ce1_2 1_555 1_555
C5 C6 1_555 1_555
C10 C13 1_555 1_555
C11 C12 1_555 1_555
C18 C19 1_555 1_555
C25 C26 1_555 1_555
C32 C33 1_555 1_555

#END
