
#######################################################################
#
#                 Cambridge Crystallographic Data Centre
#                                CCDC 
#
#######################################################################
#
# If this CIF has been generated from an entry in the Cambridge 
# Structural Database, then it will include bibliographic, chemical, 
# crystal, experimental, refinement or atomic coordinate data resulting 
# from the CCDC's data processing and validation procedures.
#
#######################################################################

data_FOFCOU
_chemical_formula_moiety         '(C50 H39 Ce1 O8)n'
_symmetry_cell_setting           triclinic
_symmetry_space_group_name_H-M   'P -1'
_symmetry_Int_Tables_number      2
_space_group_name_Hall           '-P 1'
loop_
_symmetry_equiv_pos_site_id
_symmetry_equiv_pos_as_xyz
1 x,y,z
2 -x,-y,-z
_cell_length_a                   9.5603(4)
_cell_length_b                   12.1386(5)
_cell_length_c                   15.9458(6)
_cell_angle_alpha                88.4550(10)
_cell_angle_beta                 74.4170(10)
_cell_angle_gamma                70.2330(10)
_cell_volume                     1673.27
loop_
_atom_site_label
_atom_site_type_symbol
_atom_site_fract_x
_atom_site_fract_y
_atom_site_fract_z
Ce1 Ce 0.29554(3) 0.97447(2) 0.018287(14)
O1 O 0.1254(3) 0.8835(3) 0.11778(18)
O2 O 0.0109(3) 0.7575(3) 0.09946(19)
H1 H -0.0082 0.7998 0.0585
O3 O 0.2369(3) 0.0628(3) 0.16735(18)
O4 O 0.4412(3) 0.0982(3) 0.08460(17)
O5 O 0.5342(3) 0.1692(3) 0.90960(18)
O6 O 0.3213(3) 0.1240(3) 0.92131(19)
O7 O 0.2063(3) 0.8906(3) 0.91296(17)
O8 O -0.0303(3) 0.8783(2) 0.96102(17)
C1 C 0.2238(4) 0.5511(4) 0.4396(2)
C2 C 0.2730(4) 0.4281(4) 0.4405(2)
C3 C 0.3044(5) 0.3764(4) 0.5155(2)
H2 H 0.3398 0.2932 0.5149
C4 C 0.2867(5) 0.4405(4) 0.5917(2)
C5 C 0.2332(4) 0.5644(4) 0.5921(2)
C6 C 0.2074(4) 0.6150(4) 0.5155(2)
H3 H 0.1769 0.6980 0.5149
C7 C 0.1839(5) 0.6161(4) 0.3636(2)
C8 C 0.1127(4) 0.5760(4) 0.3106(3)
H4 H 0.0851 0.5082 0.3246
C9 C 0.0823(5) 0.6338(4) 0.2384(3)
H5 H 0.0373 0.6039 0.2021
C10 C 0.1171(5) 0.7354(4) 0.2181(3)
C11 C 0.1839(5) 0.7789(4) 0.2715(3)
H6 H 0.2070 0.8488 0.2586
C12 C 0.2162(5) 0.7196(4) 0.3432(3)
H7 H 0.2612 0.7496 0.3795
C13 C 0.0860(5) 0.7989(4) 0.1408(3)
C14 C 0.2940(5) 0.3463(4) 0.3661(3)
C15 C 0.4027(5) 0.3371(4) 0.2867(3)
H8 H 0.4647 0.3855 0.2777
C16 C 0.4215(5) 0.2573(4) 0.2200(3)
H9 H 0.4997 0.2490 0.1668
C17 C 0.3276(5) 0.1901(4) 0.2302(3)
C18 C 0.2182(5) 0.1991(4) 0.3102(3)
H10 H 0.1535 0.1528 0.3181
C19 C 0.2030(5) 0.2744(4) 0.3779(3)
H11 H 0.1306 0.2777 0.4327
C20 C 0.3365(5) 0.1122(4) 0.1575(2)
C21 C 0.3222(5) 0.3741(4) 0.6679(2)
C22 C 0.2799(5) 0.2752(4) 0.6873(3)
H12 H 0.2301 0.2504 0.6511
C23 C 0.3086(5) 0.2127(4) 0.7578(3)
H13 H 0.2749 0.1474 0.7711
C24 C 0.3871(5) 0.2445(4) 0.8099(2)
C25 C 0.4347(5) 0.3407(4) 0.7898(3)
H14 H 0.4903 0.3623 0.8238
C26 C 0.4011(5) 0.4053(4) 0.7197(2)
H15 H 0.4325 0.4717 0.7070
C27 C 0.4170(5) 0.1751(4) 0.8864(3)
C28 C 0.1952(4) 0.6430(4) 0.6713(2)
C29 C 0.0964(5) 0.6295(4) 0.7495(2)
H16 H 0.0533 0.5691 0.7525
C30 C 0.0600(5) 0.7032(4) 0.8232(3)
H17 H -0.0106 0.6947 0.8755
C31 C 0.1266(4) 0.7895(4) 0.8206(2)
C32 C 0.2241(5) 0.8043(4) 0.7428(3)
H18 H 0.2698 0.8630 0.7406
C33 C 0.2556(5) 0.7337(4) 0.6680(3)
H19 H 0.3185 0.7472 0.6144
C34 C 0.0992(5) 0.8591(4) 0.9025(3)
Ce1_2 Ce 0.29554(3) -0.02553(2) 0.018287(14)
Ce1_3 Ce 0.29554(3) -0.02553(2) 1.018287(14)
Ce1_4 Ce 0.29554(3) 0.97447(2) 1.018287(14)
Ce1A Ce -0.29554(3) 1.02553(2) 0.981713(14)
Ce1A_2 Ce 0.70446(3) 0.02553(2) -0.018287(14)
Ce1A_3 Ce 0.70446(3) 0.02553(2) 0.981713(14)
O3_2 O 0.2369(3) 1.0628(3) 0.16735(18)
O4_2 O 0.4412(3) 1.0982(3) 0.08460(17)
O4A O 0.5588(3) 0.9018(3) -0.08460(17)
O5A O 0.4658(3) 0.8308(3) 0.09040(18)
O6_2 O 0.3213(3) 1.1240(3) -0.07869(19)
O7_2 O 0.2063(3) 0.8906(3) -0.08704(17)
O8A O 0.0303(3) 1.1217(2) 0.03898(17)
C35 C 0.1913(9) 0.9980(6) 0.5045(5)
H20 H 0.1152 1.0772 0.5208
H21 H 0.1635 0.9443 0.5475
H22 H 0.1926 0.9714 0.4467
C36 C 0.3524(9) 0.9996(5) 0.5021(4)
C37 C 0.4613(9) 0.9956(5) 0.4240(4)
H23 H 0.4365 0.9913 0.3706
C38 C 0.6079(9) 0.9978(5) 0.4223(4)
H24 H 0.6799 0.9974 0.3680
C35A C 0.8087(9) 1.0020(6) 0.4955(5)
H20A H 0.8848 0.9228 0.4792
H21A H 0.8365 1.0557 0.4525
H22A H 0.8074 1.0286 0.5533
C36A C 0.6476(9) 1.0004(5) 0.4979(4)
C37A C 0.5387(9) 1.0044(5) 0.5760(4)
H23A H 0.5635 1.0087 0.6294
C38A C 0.3921(9) 1.0022(5) 0.5777(4)
H24A H 0.3201 1.0026 0.6320
C39 C 0.2043(7) 0.4824(5) -0.0058(4)
H25 H 0.1193 0.5426 0.0352
H26 H 0.2016 0.4045 0.0104
H27 H 0.1932 0.4942 -0.0650
C40 C 0.3571(6) 0.4914(4) -0.0026(3)
C41 C 0.4614(7) 0.4049(5) 0.0303(4)
H28 H 0.4366 0.3380 0.0513
C42 C 0.6007(8) 0.4132(5) 0.0335(4)
H29 H 0.6687 0.3525 0.0572
C39A C 0.7957(7) 0.5176(5) 0.0058(4)
H25A H 0.8807 0.4574 -0.0352
H26A H 0.7984 0.5955 -0.0104
H27A H 0.8068 0.5058 0.0650
C40A C 0.6429(6) 0.5086(4) 0.0026(3)
C41A C 0.5386(7) 0.5951(5) -0.0303(4)
H28A H 0.5634 0.6620 -0.0513
C42A C 0.3993(8) 0.5868(5) -0.0335(4)
H29A H 0.3313 0.6475 -0.0572
loop_
_geom_bond_atom_site_label_1
_geom_bond_atom_site_label_2
_geom_bond_site_symmetry_1
_geom_bond_site_symmetry_2
Ce1 O1 1_555 1_555
O1 C13 1_555 1_555
O2 H1 1_555 1_555
O3 C20 1_555 1_555
O4 C20 1_555 1_555
O5 C27 1_555 1_555
O6 C27 1_555 1_555
O7 C34 1_555 1_555
O8 C34 1_555 1_555
C1 C2 1_555 1_555
C2 C3 1_555 1_555
C3 H2 1_555 1_555
C4 C3 1_555 1_555
C5 C4 1_555 1_555
C6 C1 1_555 1_555
H3 C6 1_555 1_555
C7 C1 1_555 1_555
C8 C7 1_555 1_555
H4 C8 1_555 1_555
C9 C8 1_555 1_555
H5 C9 1_555 1_555
C10 C9 1_555 1_555
C11 C10 1_555 1_555
H6 C11 1_555 1_555
C12 C7 1_555 1_555
H7 C12 1_555 1_555
C13 O2 1_555 1_555
C14 C2 1_555 1_555
C15 C14 1_555 1_555
H8 C15 1_555 1_555
C16 C15 1_555 1_555
H9 C16 1_555 1_555
C17 C16 1_555 1_555
C18 C17 1_555 1_555
H10 C18 1_555 1_555
C19 C14 1_555 1_555
H11 C19 1_555 1_555
C20 C17 1_555 1_555
C21 C4 1_555 1_555
C22 C21 1_555 1_555
H12 C22 1_555 1_555
C23 C22 1_555 1_555
H13 C23 1_555 1_555
C24 C23 1_555 1_555
C25 C24 1_555 1_555
H14 C25 1_555 1_555
C26 C21 1_555 1_555
H15 C26 1_555 1_555
C27 C24 1_555 1_555
C28 C5 1_555 1_555
C29 C28 1_555 1_555
H16 C29 1_555 1_555
C30 C29 1_555 1_555
H17 C30 1_555 1_555
C31 C30 1_555 1_555
C32 C31 1_555 1_555
H18 C32 1_555 1_555
C33 C28 1_555 1_555
H19 C33 1_555 1_555
C34 C31 1_555 1_555
C35 H20 1_555 1_555
H21 C35 1_555 1_555
H22 C35 1_555 1_555
C36 C35 1_555 1_555
C37 C36 1_555 1_555
H23 C37 1_555 1_555
C38 C37 1_555 1_555
H24 C38 1_555 1_555
C39 H25 1_555 1_555
H26 C39 1_555 1_555
H27 C39 1_555 1_555
C40 C39 1_555 1_555
C41 C40 1_555 1_555
H28 C41 1_555 1_555
C42 C41 1_555 1_555
H29 C42 1_555 1_555
Ce1_2 O3 1_555 1_555
Ce1_3 O6 1_555 1_555
Ce1_4 O7 1_555 1_555
Ce1A O8 1_555 1_555
Ce1A_2 O4 1_555 1_555
Ce1A_3 O5 1_555 1_555
O3_2 Ce1 1_555 1_555
O4_2 Ce1 1_555 1_555
O4A Ce1 1_555 1_555
O5A Ce1 1_555 1_555
O6_2 Ce1 1_555 1_555
O7_2 Ce1 1_555 1_555
O8A Ce1 1_555 1_555
C35A H20A 1_555 1_555
H21A C35A 1_555 1_555
H22A C35A 1_555 1_555
C36A C38 1_555 1_555
C37A C36A 1_555 1_555
H23A C37A 1_555 1_555
C38A C36 1_555 1_555
H24A C38A 1_555 1_555
C39A H25A 1_555 1_555
H26A C39A 1_555 1_555
H27A C39A 1_555 1_555
C40A C42 1_555 1_555
C41A C40A 1_555 1_555
H28A C41A 1_555 1_555
C42A C40 1_555 1_555
H29A C42A 1_555 1_555
O4 Ce1_2 1_555 1_555
C5 C6 1_555 1_555
C10 C13 1_555 1_555
C11 C12 1_555 1_555
C18 C19 1_555 1_555
C25 C26 1_555 1_555
C32 C33 1_555 1_555
C35A C36A 1_555 1_555
C37A C38A 1_555 1_555
C39A C40A 1_555 1_555
C41A C42A 1_555 1_555

#END
