
#######################################################################
#
#                 Cambridge Crystallographic Data Centre
#                                CCDC 
#
#######################################################################
#
# If this CIF has been generated from an entry in the Cambridge 
# Structural Database, then it will include bibliographic, chemical, 
# crystal, experimental, refinement or atomic coordinate data resulting 
# from the CCDC's data processing and validation procedures.
#
#######################################################################

data_FOFCUA
_chemical_formula_moiety         '(C34 H19 Ce1 O8)n'
_symmetry_cell_setting           triclinic
_symmetry_space_group_name_H-M   'P -1'
_symmetry_Int_Tables_number      2
_space_group_name_Hall           '-P 1'
loop_
_symmetry_equiv_pos_site_id
_symmetry_equiv_pos_as_xyz
1 x,y,z
2 -x,-y,-z
_cell_length_a                   9.2989(11)
_cell_length_b                   11.4163(13)
_cell_length_c                   15.2492(17)
_cell_angle_alpha                93.756(5)
_cell_angle_beta                 90.263(6)
_cell_angle_gamma                93.814(6)
_cell_volume                     1611.72
loop_
_atom_site_label
_atom_site_type_symbol
_atom_site_fract_x
_atom_site_fract_y
_atom_site_fract_z
Ce1 Ce 0.20843(5) 0.03014(4) 0.97945(3)
O1 O 0.3943(6) 0.1185(5) 0.8861(3)
O2 O 0.5802(6) 0.2522(5) 0.9123(3)
H1 H 0.5851 0.2188 0.9595
O3 O 0.3840(6) 0.8775(4) 0.9531(3)
O4 O 0.6146(6) 0.8872(5) 0.9104(3)
O5 O -0.0761(6) 0.8226(5) 0.0953(3)
O6 O 0.1521(6) 0.8926(5) 0.0909(3)
O7 O -0.1422(6) 0.0502(5) 0.1740(3)
O8 O 0.0180(6) 0.1080(5) 0.0778(3)
C1 C 0.3096(8) 0.4624(6) 0.5715(5)
C2 C 0.3103(8) 0.5889(7) 0.5751(5)
C3 C 0.2686(9) 0.6399(7) 0.4992(5)
H2 H 0.2787 0.7232 0.4986
C4 C 0.2127(8) 0.5762(6) 0.4238(5)
C5 C 0.2057(8) 0.4524(7) 0.4213(5)
C6 C 0.2569(9) 0.4035(6) 0.4957(5)
H3 H 0.2551 0.3201 0.4937
C7 C 0.3540(9) 0.3965(7) 0.6482(4)
C8 C 0.4723(9) 0.4401(7) 0.7027(5)
H4 H 0.5277 0.5098 0.6900
C9 C 0.5045(9) 0.3798(7) 0.7736(5)
H5 H 0.5784 0.4116 0.8131
C10 C 0.4324(9) 0.2730(8) 0.7896(5)
C11 C 0.3189(8) 0.2269(7) 0.7336(4)
H6 H 0.2682 0.1544 0.7446
C12 C 0.2821(9) 0.2881(7) 0.6624(5)
H7 H 0.2077 0.2564 0.6231
C13 C 0.4627(10) 0.2085(8) 0.8668(5)
C14 C 0.3539(8) 0.6638(6) 0.6552(5)
C15 C 0.2788(9) 0.6508(7) 0.7320(5)
H8 H 0.1982 0.5951 0.7318
C16 C 0.3168(9) 0.7159(7) 0.8095(5)
H9 H 0.2611 0.7069 0.8610
C17 C 0.4386(9) 0.7953(7) 0.8108(5)
C18 C 0.5176(8) 0.8103(6) 0.7357(5)
H10 H 0.6017 0.8624 0.7366
C19 C 0.4703(9) 0.7463(7) 0.6575(5)
H11 H 0.5200 0.7603 0.6045
C20 C 0.4807(9) 0.8607(7) 0.8968(5)
C21 C 0.1664(9) 0.6431(7) 0.3485(5)
C22 C 0.2466(9) 0.7454(7) 0.3276(5)
H12 H 0.3267 0.7747 0.3633
C23 C 0.2095(9) 0.8041(7) 0.2547(5)
H13 H 0.2676 0.8709 0.2388
C24 C 0.0855(9) 0.7652(7) 0.2040(5)
C25 C 0.0049(9) 0.6685(7) 0.2266(5)
H14 H -0.0767 0.6406 0.1917
C26 C 0.0397(9) 0.6097(6) 0.2997(5)
H15 H -0.0227 0.5462 0.3170
C27 C 0.0516(9) 0.8305(7) 0.1249(5)
C28 C 0.1480(8) 0.3684(6) 0.3493(5)
C29 C 0.1901(8) 0.3732(6) 0.2630(5)
H16 H 0.2566 0.4349 0.2471
C30 C 0.1365(9) 0.2890(7) 0.1986(5)
H17 H 0.1658 0.2929 0.1392
C31 C 0.0376(8) 0.1976(7) 0.2233(5)
C32 C -0.0052(9) 0.1917(8) 0.3096(5)
H18 H -0.0713 0.1302 0.3263
C33 C 0.0507(9) 0.2778(7) 0.3715(5)
H19 H 0.0213 0.2746 0.4309
C34 C -0.0322(10) 0.1133(7) 0.1558(5)
Ce1_2 Ce 0.20843(5) 0.03014(4) -0.02055(3)
Ce1_3 Ce 0.20843(5) 1.03014(4) -0.02055(3)
Ce1_4 Ce 0.20843(5) 1.03014(4) 0.97945(3)
Ce1A Ce -0.20843(5) -0.03014(4) 0.02055(3)
Ce1A_2 Ce -0.20843(5) 0.96986(4) 0.02055(3)
Ce1A_3 Ce 0.79157(5) 0.96986(4) 1.02055(3)
O3_2 O 0.3840(6) -0.1225(4) 0.9531(3)
O4A O 0.3854(6) 0.1128(5) 1.0896(3)
O5A O 0.0761(6) 0.1774(5) 0.9047(3)
O6_2 O 0.1521(6) -0.1074(5) 1.0909(3)
O7A O 0.1422(6) -0.0502(5) 0.8260(3)
O8_2 O 0.0180(6) 0.1080(5) 1.0778(3)
O8A O -0.0180(6) -0.1080(5) 0.9222(3)
loop_
_geom_bond_atom_site_label_1
_geom_bond_atom_site_label_2
_geom_bond_site_symmetry_1
_geom_bond_site_symmetry_2
Ce1 O1 1_555 1_555
O1 C13 1_555 1_555
O2 H1 1_555 1_555
O3 C20 1_555 1_555
O4 C20 1_555 1_555
O5 C27 1_555 1_555
O6 C27 1_555 1_555
O7 C34 1_555 1_555
O8 C34 1_555 1_555
C1 C2 1_555 1_555
C2 C3 1_555 1_555
C3 H2 1_555 1_555
C4 C3 1_555 1_555
C5 C4 1_555 1_555
C6 C1 1_555 1_555
H3 C6 1_555 1_555
C7 C1 1_555 1_555
C8 C7 1_555 1_555
H4 C8 1_555 1_555
C9 C8 1_555 1_555
H5 C9 1_555 1_555
C10 C9 1_555 1_555
C11 C10 1_555 1_555
H6 C11 1_555 1_555
C12 C7 1_555 1_555
H7 C12 1_555 1_555
C13 O2 1_555 1_555
C14 C2 1_555 1_555
C15 C14 1_555 1_555
H8 C15 1_555 1_555
C16 C15 1_555 1_555
H9 C16 1_555 1_555
C17 C16 1_555 1_555
C18 C17 1_555 1_555
H10 C18 1_555 1_555
C19 C14 1_555 1_555
H11 C19 1_555 1_555
C20 C17 1_555 1_555
C21 C4 1_555 1_555
C22 C21 1_555 1_555
H12 C22 1_555 1_555
C23 C22 1_555 1_555
H13 C23 1_555 1_555
C24 C23 1_555 1_555
C25 C24 1_555 1_555
H14 C25 1_555 1_555
C26 C21 1_555 1_555
H15 C26 1_555 1_555
C27 C24 1_555 1_555
C28 C5 1_555 1_555
C29 C28 1_555 1_555
H16 C29 1_555 1_555
C30 C29 1_555 1_555
H17 C30 1_555 1_555
C31 C30 1_555 1_555
C32 C31 1_555 1_555
H18 C32 1_555 1_555
C33 C28 1_555 1_555
H19 C33 1_555 1_555
C34 C31 1_555 1_555
Ce1_2 O8 1_555 1_555
Ce1_3 O6 1_555 1_555
Ce1_4 O3 1_555 1_555
Ce1A O7 1_555 1_555
Ce1A_2 O5 1_555 1_555
Ce1A_3 O4 1_555 1_555
O3_2 Ce1 1_555 1_555
O4A Ce1 1_555 1_555
O5A Ce1 1_555 1_555
O6_2 Ce1 1_555 1_555
O7A Ce1 1_555 1_555
O8_2 Ce1 1_555 1_555
O8A Ce1 1_555 1_555
O8 Ce1A 1_555 1_555
C5 C6 1_555 1_555
C10 C13 1_555 1_555
C11 C12 1_555 1_555
C18 C19 1_555 1_555
C25 C26 1_555 1_555
C32 C33 1_555 1_555

#END
