
#######################################################################
#
#                 Cambridge Crystallographic Data Centre
#                                CCDC 
#
#######################################################################
#
# If this CIF has been generated from an entry in the Cambridge 
# Structural Database, then it will include bibliographic, chemical, 
# crystal, experimental, refinement or atomic coordinate data resulting 
# from the CCDC's data processing and validation procedures.
#
#######################################################################

data_IJEXIF
_chemical_formula_moiety         '(C34 H45 N1 O14 Zn3)n'
_symmetry_cell_setting           orthorhombic
_symmetry_space_group_name_H-M   'P b c a'
_symmetry_Int_Tables_number      61
_space_group_name_Hall           '-P 2ac 2ab'
loop_
_symmetry_equiv_pos_site_id
_symmetry_equiv_pos_as_xyz
1 x,y,z
2 1/2-x,-y,1/2+z
3 1/2+x,1/2-y,-z
4 -x,1/2+y,1/2-z
5 -x,-y,-z
6 1/2+x,y,1/2-z
7 1/2-x,1/2+y,z
8 x,1/2-y,1/2+z
_cell_length_a                   16.3790(5)
_cell_length_b                   16.3610(5)
_cell_length_c                   28.9990(9)
_cell_angle_alpha                90
_cell_angle_beta                 90
_cell_angle_gamma                90
_cell_volume                     7771.06
loop_
_atom_site_label
_atom_site_type_symbol
_atom_site_fract_x
_atom_site_fract_y
_atom_site_fract_z
_atom_site_U_iso_or_equiv
_atom_site_thermal_displace_type
O1 O 0.8348(7) 0.1357(8) 0.8853(4) 0.1007 Uani
H44 H 0.8633 0.0971 0.8786 0.0570 Uiso
H45 H 0.8141 0.1564 0.8615 0.0570 Uiso
N1 N 0.57116(15) 0.33902(17) 0.63586(10) 0.0438 Uani
C18 C 0.62644(19) 0.3483(2) 0.67783(11) 0.0445 Uani
H7 H 0.6130 0.3051 0.6995 0.0540 Uiso
H8 H 0.6823 0.3395 0.6680 0.0540 Uiso
C19 C 0.4834(2) 0.3556(2) 0.64908(14) 0.0610 Uani
H9 H 0.4495 0.3481 0.6220 0.0730 Uiso
H10 H 0.4788 0.4123 0.6584 0.0730 Uiso
C20 C 0.6227(2) 0.4286(2) 0.70311(13) 0.0520 Uani
H11 H 0.5673 0.4386 0.7134 0.0620 Uiso
H12 H 0.6382 0.4725 0.6824 0.0620 Uiso
C21 C 0.6930(2) 0.4497(2) 0.53964(13) 0.0597 Uani
H13 H 0.6861 0.5038 0.5528 0.0710 Uiso
H14 H 0.6524 0.4433 0.5156 0.0710 Uiso
C22 C 0.5569(4) 0.1425(3) 0.56148(19) 0.1250 Uani
H15 H 0.6155 0.1404 0.5565 0.1500 Uiso
H16 H 0.5440 0.1052 0.5864 0.1500 Uiso
C23 C 0.5944(2) 0.3999(2) 0.59839(12) 0.0460 Uani
H17 H 0.5535 0.3977 0.5743 0.0550 Uiso
H18 H 0.5930 0.4545 0.6115 0.0550 Uiso
C24 C 0.3269(3) 0.2551(3) 0.7286(2) 0.1287 Uani
H19 H 0.2694 0.2647 0.7317 0.1930 Uiso
H20 H 0.3530 0.2623 0.7580 0.1930 Uiso
H21 H 0.3359 0.2003 0.7179 0.1930 Uiso
C25 C 0.6773(2) 0.3869(2) 0.57668(12) 0.0467 Uani
H22 H 0.7192 0.3908 0.6002 0.0560 Uiso
H23 H 0.6798 0.3325 0.5634 0.0560 Uiso
C26 C 0.4499(2) 0.3018(3) 0.68789(15) 0.0763 Uani
H24 H 0.4602 0.2448 0.6805 0.0910 Uiso
H25 H 0.4786 0.3143 0.7163 0.0910 Uiso
C27 C 0.5806(2) 0.2518(2) 0.61897(13) 0.0533 Uani
H26 H 0.5640 0.2153 0.6436 0.0640 Uiso
H27 H 0.6381 0.2419 0.6131 0.0640 Uiso
C28 C 0.7769(2) 0.4443(3) 0.51823(15) 0.0820 Uani
H28 H 0.7826 0.4861 0.4952 0.1230 Uiso
H29 H 0.7838 0.3916 0.5042 0.1230 Uiso
H30 H 0.8176 0.4519 0.5417 0.1230 Uiso
C29 C 0.6795(2) 0.4280(2) 0.74443(13) 0.0630 Uani
H31 H 0.7352 0.4210 0.7337 0.0760 Uiso
H32 H 0.6662 0.3816 0.7638 0.0760 Uiso
C30 C 0.3616(3) 0.3136(3) 0.69511(18) 0.0997 Uani
H33 H 0.3335 0.3074 0.6659 0.1200 Uiso
H34 H 0.3520 0.3688 0.7060 0.1200 Uiso
C31 C 0.6746(2) 0.5056(3) 0.77322(14) 0.0847 Uani
H35 H 0.7115 0.5015 0.7988 0.1270 Uiso
H36 H 0.6199 0.5124 0.7844 0.1270 Uiso
H37 H 0.6893 0.5517 0.7545 0.1270 Uiso
C32 C 0.5330(3) 0.2295(2) 0.57590(14) 0.0700 Uani
H38 H 0.5456 0.2676 0.5513 0.0850 Uiso
H39 H 0.4749 0.2321 0.5821 0.0850 Uiso
C33 C 0.5154(4) 0.1150(4) 0.5196(3) 0.1950 Uani
H40 H 0.5323 0.0602 0.5124 0.2930 Uiso
H41 H 0.5293 0.1506 0.4945 0.2930 Uiso
H42 H 0.4574 0.1161 0.5244 0.2930 Uiso
O2 O 0.41471(11) 0.71506(11) 0.72163(7) 0.0299 Uani
C1 C 0.44061(17) 0.64204(18) 0.72849(10) 0.0275 Uani
C2 C 0.39975(16) 0.59785(17) 0.76793(10) 0.0249 Uani
C3 C 0.29652(16) 0.59312(17) 0.82711(10) 0.0254 Uani
C4 C 0.42830(15) 0.52215(17) 0.78220(10) 0.0257 Uani
H1 H 0.4725 0.4984 0.7671 0.0310 Uiso
C5 C 0.32515(16) 0.51764(17) 0.84116(10) 0.0256 Uani
H2 H 0.3001 0.4908 0.8656 0.0310 Uiso
C6 C 0.39151(16) 0.48150(17) 0.81880(10) 0.0235 Uani
C7 C 0.42168(17) 0.39983(17) 0.83397(10) 0.0254 Uani
O3 O 0.48483(11) 0.37227(12) 0.81348(7) 0.0315 Uani
O4 O 0.38343(12) 0.36317(11) 0.86509(7) 0.0321 Uani
O5 O 0.17972(13) 0.59221(13) 0.87606(8) 0.0458 Uani
Zn1 Zn 0.540268(18) 0.159908(19) 0.920011(11) 0.0227 Uani
Zn2 Zn 0.549475(18) 0.277501(19) 0.830717(11) 0.0204 Uani
Zn3 Zn 0.372893(18) 0.24667(2) 0.882339(11) 0.0221 Uani
O6 O 0.35022(11) 0.24145(12) 0.94835(7) 0.0316 Uani
O7 O 0.21953(11) 0.71053(12) 0.84632(7) 0.0339 Uani
O8 O 0.48011(10) 0.19942(10) 0.86589(6) 0.0204 Uani
O9 O 0.42905(12) -0.04939(12) 1.07404(8) 0.0392 Uani
C8 C 0.23347(16) 0.16516(17) 1.07123(10) 0.0250 Uani
O10 O 0.46100(11) 0.17183(12) 0.97040(7) 0.0360 Uani
C9 C 0.26333(16) 0.09348(17) 1.09137(10) 0.0266 Uani
H3 H 0.2363 0.0706 1.1164 0.0320 Uiso
C10 C 0.34413(15) 0.16251(17) 1.01659(9) 0.0219 Uani
C11 C 0.27319(16) 0.19836(17) 1.03324(9) 0.0256 Uani
H4 H 0.2522 0.2447 1.0189 0.0310 Uiso
C12 C 0.37360(16) 0.09270(17) 1.03740(9) 0.0234 Uani
H5 H 0.4217 0.0694 1.0266 0.0280 Uiso
C13 C 0.38813(17) 0.19515(17) 0.97512(10) 0.0251 Uani
C14 C 0.33329(16) 0.05636(17) 1.07406(10) 0.0239 Uani
O11 O 0.49426(13) 0.60692(13) 0.70655(8) 0.0445 Uani
C15 C 0.33400(16) 0.63245(17) 0.79061(10) 0.0265 Uani
H6 H 0.3146 0.6832 0.7811 0.0320 Uiso
O12 O 0.32675(16) -0.05999(16) 1.12317(9) 0.0750 Uani
C16 C 0.22637(17) 0.63272(19) 0.85205(10) 0.0289 Uani
C17 C 0.36361(18) -0.02418(19) 1.09318(11) 0.0338 Uani
C34 C 0.15954(16) 0.20638(18) 1.09106(11) 0.0265 Uani
O13 O 0.12666(11) 0.26130(12) 1.06701(7) 0.0360 Uani
O14 O 0.13613(12) 0.18309(12) 1.13019(7) 0.0378 Uani
H43 H 0.4810 0.1653 0.8447 0.0570 Uiso
O2C O 0.58529(11) 0.21506(11) 0.77837(7) 0.0299 Uani
Zn1D Zn 0.459732(18) -0.159908(19) 1.079989(11) 0.0227 Uani
Zn1B Zn 0.040268(18) 0.340092(19) 1.079989(11) 0.0227 Uani
Zn2C Zn 0.450525(18) 0.777501(19) 0.669283(11) 0.0204 Uani
Zn2B Zn 0.049475(18) 0.222499(19) 1.169283(11) 0.0204 Uani
Zn3F Zn 0.127107(18) 0.74667(2) 0.882339(11) 0.0221 Uani
O7F O 0.28047(11) 0.21053(12) 0.84632(7) 0.0339 Uani
O9D O 0.57095(12) 0.04939(12) 0.92596(8) 0.0392 Uani
O13B O 0.62666(11) 0.23870(12) 0.93299(7) 0.0360 Uani
O14B O 0.63613(12) 0.31691(12) 0.86981(7) 0.0378 Uani
loop_
_atom_site_aniso_label
_atom_site_aniso_U_11
_atom_site_aniso_U_22
_atom_site_aniso_U_33
_atom_site_aniso_U_23
_atom_site_aniso_U_13
_atom_site_aniso_U_12
O1 0.083(9) 0.105(10) 0.114(11) -0.028(9) 0.018(8) -0.050(8)
N1 0.0385(16) 0.0465(18) 0.0464(18) 0.0109(15) -0.0047(14) 0.0071(14)
C18 0.0386(19) 0.051(2) 0.044(2) 0.0131(18) -0.0068(17) 0.0076(18)
C19 0.038(2) 0.073(3) 0.072(3) 0.020(2) -0.0055(19) 0.013(2)
C20 0.047(2) 0.053(2) 0.056(3) 0.004(2) -0.0022(19) 0.0074(19)
C21 0.074(3) 0.058(3) 0.047(2) 0.011(2) -0.001(2) 0.009(2)
C22 0.159(4) 0.099(3) 0.117(4) -0.020(3) -0.077(3) 0.003(3)
C23 0.053(2) 0.044(2) 0.041(2) 0.0112(18) -0.0069(18) 0.0091(18)
C24 0.105(3) 0.123(4) 0.158(4) 0.049(3) 0.035(3) -0.002(3)
C25 0.047(2) 0.044(2) 0.049(2) 0.0043(18) -0.0055(18) -0.0031(18)
C26 0.051(2) 0.094(3) 0.084(3) 0.031(2) 0.003(2) 0.002(2)
C27 0.054(2) 0.044(2) 0.062(3) 0.012(2) -0.014(2) 0.0031(19)
C28 0.083(3) 0.089(4) 0.074(3) 0.023(3) 0.019(3) -0.001(3)
C29 0.058(3) 0.075(3) 0.056(3) 0.006(2) 0.001(2) -0.002(2)
C30 0.071(3) 0.117(3) 0.111(3) 0.035(3) 0.023(3) 0.010(3)
C31 0.079(3) 0.107(4) 0.068(3) -0.021(3) 0.001(3) -0.017(3)
C32 0.079(3) 0.060(3) 0.071(3) 0.000(2) -0.025(2) 0.000(2)
C33 0.213(5) 0.171(5) 0.201(5) -0.012(4) -0.027(4) -0.003(4)
O2 0.0372(12) 0.0203(11) 0.0322(12) 0.0079(9) 0.0110(10) 0.0049(10)
C1 0.0289(17) 0.0268(18) 0.0267(17) 0.0068(14) 0.0045(13) 0.0029(14)
C2 0.0266(15) 0.0211(16) 0.0269(17) 0.0053(13) 0.0064(13) 0.0040(13)
C3 0.0241(15) 0.0231(17) 0.0291(18) 0.0014(14) 0.0037(13) 0.0012(13)
C4 0.0229(15) 0.0264(17) 0.0279(18) 0.0027(14) 0.0062(13) 0.0067(13)
C5 0.0267(16) 0.0249(17) 0.0251(17) 0.0066(13) 0.0053(13) -0.0001(13)
C6 0.0237(15) 0.0211(16) 0.0256(17) 0.0038(13) 0.0022(13) 0.0022(12)
C7 0.0264(16) 0.0239(17) 0.0258(17) -0.0007(14) -0.0031(14) -0.0022(13)
O3 0.0305(11) 0.0297(12) 0.0342(13) 0.0102(10) 0.0080(10) 0.0097(10)
O4 0.0400(12) 0.0211(11) 0.0351(12) 0.0098(10) 0.0118(10) 0.0027(10)
O5 0.0392(13) 0.0355(13) 0.0627(17) 0.0130(12) 0.0281(12) 0.0056(11)
Zn1 0.01802(16) 0.02222(18) 0.02773(19) 0.00613(14) 0.00170(14) 0.00097(15)
Zn2 0.01981(16) 0.02003(18) 0.02123(17) -0.00051(14) -0.00058(14) 0.00020(14)
Zn3 0.01797(16) 0.02383(18) 0.02462(18) 0.00493(15) -0.00110(14) -0.00075(14)
O6 0.0376(12) 0.0318(12) 0.0254(12) 0.0079(10) 0.0091(9) 0.0114(10)
O7 0.0309(11) 0.0247(12) 0.0462(14) 0.0061(10) 0.0120(10) 0.0059(10)
O8 0.0201(9) 0.0194(10) 0.0217(10) -0.0040(9) -0.0010(8) -0.0007(8)
O9 0.0327(12) 0.0282(12) 0.0568(15) 0.0110(11) 0.0084(11) 0.0130(10)
C8 0.0231(15) 0.0268(17) 0.0252(17) 0.0014(14) 0.0025(12) 0.0057(13)
O10 0.0262(11) 0.0499(14) 0.0319(12) 0.0071(10) 0.0110(10) 0.0075(11)
C9 0.0261(16) 0.0302(18) 0.0235(17) 0.0046(14) 0.0043(13) 0.0011(14)
C10 0.0205(14) 0.0233(16) 0.0220(16) 0.0014(13) 0.0053(12) 0.0019(13)
C11 0.0291(16) 0.0238(17) 0.0239(17) 0.0060(13) 0.0014(13) 0.0080(13)
C12 0.0201(14) 0.0258(17) 0.0244(16) -0.0043(13) 0.0007(13) 0.0064(13)
C13 0.0274(16) 0.0221(17) 0.0258(17) -0.0010(13) 0.0041(13) 0.0013(13)
C14 0.0234(15) 0.0234(17) 0.0249(17) 0.0002(13) 0.0000(13) 0.0066(13)
O11 0.0486(14) 0.0397(14) 0.0453(15) 0.0209(11) 0.0272(12) 0.0231(11)
C15 0.0258(15) 0.0220(17) 0.0318(18) 0.0038(14) 0.0017(14) 0.0022(13)
O12 0.083(2) 0.0621(19) 0.080(2) 0.0461(16) 0.0442(16) 0.0320(16)
C16 0.0219(16) 0.0317(19) 0.0332(19) 0.0025(15) 0.0024(14) 0.0031(14)
C17 0.0313(18) 0.0312(19) 0.039(2) 0.0048(16) 0.0003(15) 0.0070(15)
C34 0.0223(15) 0.0257(18) 0.0315(18) -0.0012(14) 0.0035(13) 0.0029(13)
O13 0.0300(11) 0.0401(14) 0.0380(13) 0.0108(11) 0.0079(10) 0.0180(10)
O14 0.0377(12) 0.0423(14) 0.0335(13) 0.0099(11) 0.0186(10) 0.0173(10)
O2C 0.0372 0.0203 0.0322 -0.0079 0.011 -0.0049
Zn1D 0.01802 0.02222 0.02773 0.00613 0.0017 0.00097
Zn1B 0.01802 0.02222 0.02773 0.00613 -0.0017 -0.00097
Zn2C 0.01981 0.02003 0.02123 0.00051 -0.00058 -0.0002
Zn2B 0.01981 0.02003 0.02123 -0.00051 0.00058 -0.0002
Zn3F 0.01797 0.02383 0.02462 0.00493 0.0011 0.00075
O7F 0.0309 0.0247 0.0462 0.0061 -0.012 -0.0059
O9D 0.0327 0.0282 0.0568 0.011 0.0084 0.013
O13B 0.03 0.0401 0.038 0.0108 -0.0079 -0.018
O14B 0.0377 0.0423 0.0335 0.0099 -0.0186 -0.0173
loop_
_geom_bond_atom_site_label_1
_geom_bond_atom_site_label_2
_geom_bond_site_symmetry_1
_geom_bond_site_symmetry_2
O1 H44 1_555 1_555
N1 C18 1_555 1_555
O2 C1 1_555 1_555
C1 C2 1_555 1_555
C2 C4 1_555 1_555
C3 C5 1_555 1_555
C4 H1 1_555 1_555
C5 H2 1_555 1_555
C6 C4 1_555 1_555
C7 C6 1_555 1_555
O3 C7 1_555 1_555
O4 C7 1_555 1_555
O5 C16 1_555 1_555
Zn1 O8 1_555 1_555
Zn2 O3 1_555 1_555
Zn3 O4 1_555 1_555
O6 Zn3 1_555 1_555
O7 C16 1_555 1_555
O8 Zn2 1_555 1_555
O9 C17 1_555 1_555
C8 C9 1_555 1_555
O10 Zn1 1_555 1_555
C9 H3 1_555 1_555
C10 C11 1_555 1_555
C11 C8 1_555 1_555
H4 C11 1_555 1_555
C12 C10 1_555 1_555
H5 C12 1_555 1_555
C13 O6 1_555 1_555
C14 C9 1_555 1_555
O11 C1 1_555 1_555
C15 C2 1_555 1_555
H6 C15 1_555 1_555
O12 C17 1_555 1_555
C16 C3 1_555 1_555
C17 C14 1_555 1_555
C18 H7 1_555 1_555
H8 C18 1_555 1_555
C19 N1 1_555 1_555
H9 C19 1_555 1_555
H10 C19 1_555 1_555
C20 C18 1_555 1_555
H11 C20 1_555 1_555
H12 C20 1_555 1_555
C21 H13 1_555 1_555
H14 C21 1_555 1_555
C22 H15 1_555 1_555
H16 C22 1_555 1_555
C23 N1 1_555 1_555
H17 C23 1_555 1_555
H18 C23 1_555 1_555
C24 H19 1_555 1_555
H20 C24 1_555 1_555
H21 C24 1_555 1_555
C25 C21 1_555 1_555
H22 C25 1_555 1_555
H23 C25 1_555 1_555
C26 C19 1_555 1_555
H24 C26 1_555 1_555
H25 C26 1_555 1_555
C27 N1 1_555 1_555
H26 C27 1_555 1_555
H27 C27 1_555 1_555
C28 C21 1_555 1_555
H28 C28 1_555 1_555
H29 C28 1_555 1_555
H30 C28 1_555 1_555
C29 C20 1_555 1_555
H31 C29 1_555 1_555
H32 C29 1_555 1_555
C30 C24 1_555 1_555
H33 C30 1_555 1_555
H34 C30 1_555 1_555
C31 C29 1_555 1_555
H35 C31 1_555 1_555
H36 C31 1_555 1_555
H37 C31 1_555 1_555
C32 C22 1_555 1_555
H38 C32 1_555 1_555
H39 C32 1_555 1_555
C33 C22 1_555 1_555
H40 C33 1_555 1_555
H41 C33 1_555 1_555
H42 C33 1_555 1_555
C34 C8 1_555 1_555
O13 C34 1_555 1_555
O14 C34 1_555 1_555
H43 O8 1_555 1_555
H45 O1 1_555 1_555
O2C Zn2 1_555 1_555
Zn1D O9 1_555 1_555
Zn1B O13 1_555 1_555
Zn2C O2 1_555 1_555
Zn2B O14 1_555 1_555
Zn3F O7 1_555 1_555
O7F Zn3 1_555 1_555
O9D Zn1 1_555 1_555
O13B Zn1 1_555 1_555
O14B Zn2 1_555 1_555
C3 C15 1_555 1_555
C5 C6 1_555 1_555
Zn3 O8 1_555 1_555
O10 C13 1_555 1_555
C10 C13 1_555 1_555
C12 C14 1_555 1_555
C23 C25 1_555 1_555
C26 C30 1_555 1_555
C27 C32 1_555 1_555

#END
