
#######################################################################
#
#                 Cambridge Crystallographic Data Centre
#                                CCDC 
#
#######################################################################
#
# If this CIF has been generated from an entry in the Cambridge 
# Structural Database, then it will include bibliographic, chemical, 
# crystal, experimental, refinement or atomic coordinate data resulting 
# from the CCDC's data processing and validation procedures.
#
#######################################################################

data_ZILBIH
_chemical_formula_moiety         '(C27 H34 Co1 N2 O10)n'
_symmetry_cell_setting           tetragonal
_symmetry_space_group_name_H-M   'P 4 21 2'
_symmetry_Int_Tables_number      90
_space_group_name_Hall           'P 4ab 2ab'
loop_
_symmetry_equiv_pos_site_id
_symmetry_equiv_pos_as_xyz
1 x,y,z
2 1/2-y,1/2+x,z
3 -x,-y,z
4 1/2+y,1/2-x,z
5 1/2+x,1/2-y,-z
6 1/2-x,1/2+y,-z
7 y,x,-z
8 -y,-x,-z
_cell_length_a                   22.6591(11)
_cell_length_b                   22.6591(11)
_cell_length_c                   12.7035(12)
_cell_angle_alpha                90
_cell_angle_beta                 90
_cell_angle_gamma                90
_cell_volume                     6522.42
loop_
_atom_site_label
_atom_site_type_symbol
_atom_site_fract_x
_atom_site_fract_y
_atom_site_fract_z
_atom_site_U_iso_or_equiv
_atom_site_thermal_displace_type
Co1 Co 0.25688(2) 0.26245(2) 0.24712(4) 0.0249 Uani
O1 O 0.28321(16) 0.31553(14) 0.1260(2) 0.0322 Uani
O2 O 0.20525(14) 0.24737(17) 0.3771(2) 0.0351 Uani
O3 O 0.16078(14) 0.29198(16) 0.2454(3) 0.0388 Uani
C1 C 0.1598(2) 0.2719(2) 0.3371(3) 0.0303 Uani
N1 N -0.16428(16) 0.26085(19) 0.6832(3) 0.0293 Uani
O4 O 0.27737(18) 0.36030(15) 0.2789(3) 0.0372 Uani
C2 C 0.1044(2) 0.2762(2) 0.4024(3) 0.0317 Uani
N2 N 0.26044(18) 0.68707(17) -0.1604(3) 0.0288 Uani
C3 C 0.2889(2) 0.4200(2) 0.1246(3) 0.0320 Uani
C4 C 0.0002(2) 0.2768(2) 0.5182(3) 0.0337 Uani
C5 C 0.1016(2) 0.2464(2) 0.4986(4) 0.0393 Uani
H1 H 0.1351 0.2259 0.5246 0.0470 Uiso
C6 C 0.2839(2) 0.3624(2) 0.1793(3) 0.0293 Uani
C7 C 0.2862(3) 0.5279(2) 0.0162(4) 0.0363 Uani
C8 C 0.2788(2) 0.5843(2) -0.0429(3) 0.0337 Uani
C9 C -0.0568(2) 0.2741(2) 0.5762(4) 0.0327 Uani
C10 C -0.1100(2) 0.2737(2) 0.5228(3) 0.0340 Uani
H2 H -0.1107 0.2780 0.4484 0.0410 Uiso
C11 C 0.2429(2) 0.6291(2) -0.0055(4) 0.0347 Uani
H3 H 0.2242 0.6255 0.0611 0.0410 Uiso
C12 C 0.0496(2) 0.2471(3) 0.5556(4) 0.0407 Uani
H4 H 0.0476 0.2271 0.6212 0.0490 Uiso
C13 C 0.2976(3) 0.4744(2) -0.0361(4) 0.0397 Uani
H5 H 0.3046 0.4748 -0.1098 0.0470 Uiso
C14 C 0.2959(2) 0.6443(2) -0.1952(3) 0.0347 Uani
H6 H 0.3144 0.6492 -0.2617 0.0420 Uiso
C15 C -0.1623(2) 0.2670(2) 0.5785(4) 0.0327 Uani
H7 H -0.1984 0.2668 0.5405 0.0390 Uiso
C16 C 0.0562(2) 0.3071(2) 0.3666(4) 0.0373 Uani
H8 H 0.0584 0.3281 0.3020 0.0440 Uiso
C17 C 0.2348(2) 0.6789(2) -0.0654(4) 0.0323 Uani
H9 H 0.2098 0.7091 -0.0388 0.0390 Uiso
C18 C -0.1127(2) 0.2638(3) 0.7354(4) 0.0430 Uani
H10 H -0.1134 0.2616 0.8100 0.0510 Uiso
C19 C -0.0590(2) 0.2698(3) 0.6859(4) 0.0453 Uani
H11 H -0.0237 0.2710 0.7261 0.0550 Uiso
C20 C 0.0045(2) 0.3077(3) 0.4245(4) 0.0387 Uani
H12 H -0.0285 0.3295 0.3997 0.0470 Uiso
C21 C 0.2803(3) 0.4730(2) 0.1787(4) 0.0410 Uani
H13 H 0.2754 0.4725 0.2530 0.0490 Uiso
C22 C 0.2787(3) 0.5262(2) 0.1255(4) 0.0423 Uani
H14 H 0.2725 0.5619 0.1633 0.0510 Uiso
C23 C 0.2987(2) 0.4218(2) 0.0167(4) 0.0367 Uani
H15 H 0.3062 0.3862 -0.0207 0.0440 Uiso
C24 C 0.3069(3) 0.5934(2) -0.1397(4) 0.0400 Uani
H16 H 0.3334 0.5646 -0.1668 0.0480 Uiso
Co1D Co -0.24312(2) 0.23755(2) 0.75288(4) 0.0249 Uani
Co1E Co 0.24312(2) 0.76245(2) -0.24712(4) 0.0249 Uani
N1D N 0.33572(16) 0.23915(19) 0.3168(3) 0.0293 Uani
N2E N 0.23956(18) 0.18707(17) 0.1604(3) 0.0288 Uani
O5 O 0.3801(3) 0.3941(4) 0.3917(5) 0.0467 Uani
O6 O 0.1014(4) 0.0875(4) 0.3863(6) 0.1210 Uiso
C25 C 0.0529(6) 0.1145(6) 0.3460(10) 0.1190 Uiso
O7 O 0.8874(4) 0.0169(4) 0.2774(7) 0.1360 Uiso
C26 C 0.9205(5) 0.0501(5) 0.2040(9) 0.1110 Uiso
O8 O 0.121(2) 0.409(2) 0.159(3) 0.0790 Uiso
O9 O 0.1176(7) 0.5597(7) -0.1960(12) 0.1130 Uiso
C27 C 0.1104(10) 0.5544(10) -0.0695(18) 0.1050 Uiso
O10 O 1.0000 0.0000 0.1608(15) 0.1130 Uiso
loop_
_atom_site_aniso_label
_atom_site_aniso_U_11
_atom_site_aniso_U_22
_atom_site_aniso_U_33
_atom_site_aniso_U_23
_atom_site_aniso_U_13
_atom_site_aniso_U_12
Co1 0.0250(3) 0.0280(3) 0.0216(3) -0.0003(2) 0.0002(2) -0.0015(2)
O1 0.0422(19) 0.0254(15) 0.0289(15) -0.0010(12) 0.0036(13) -0.0054(14)
O2 0.0259(16) 0.051(2) 0.0283(15) -0.0028(14) 0.0018(12) 0.0023(15)
O3 0.0324(17) 0.055(2) 0.0290(15) 0.0056(17) 0.0044(15) 0.0046(14)
C1 0.030(2) 0.034(2) 0.027(2) -0.0058(18) 0.0006(17) -0.0033(19)
N1 0.0247(18) 0.037(2) 0.0263(17) 0.0021(15) 0.0026(14) 0.0007(16)
O4 0.052(2) 0.0333(18) 0.0263(15) -0.0001(12) 0.0069(14) 0.0033(16)
C2 0.026(2) 0.039(3) 0.030(2) -0.0037(18) -0.0009(17) -0.0020(19)
N2 0.033(2) 0.0278(18) 0.0256(17) -0.0016(14) -0.0015(15) -0.0008(16)
C3 0.036(3) 0.032(2) 0.028(2) 0.0024(18) -0.0011(18) 0.0018(19)
C4 0.029(2) 0.042(3) 0.030(2) 0.0005(19) 0.0030(17) -0.002(2)
C5 0.032(2) 0.054(3) 0.032(2) 0.005(3) 0.004(2) 0.002(2)
C6 0.033(2) 0.029(2) 0.026(2) 0.0019(17) -0.0010(18) 0.0005(19)
C7 0.051(3) 0.028(2) 0.030(2) 0.0018(18) -0.002(2) 0.003(2)
C8 0.048(3) 0.026(2) 0.027(2) -0.0001(17) -0.001(2) 0.003(2)
C9 0.027(2) 0.042(3) 0.029(2) 0.0017(19) 0.0023(17) -0.003(2)
C10 0.029(2) 0.047(3) 0.026(2) 0.0007(18) 0.0001(16) 0.000(2)
C11 0.045(3) 0.032(2) 0.027(2) -0.0005(18) 0.005(2) 0.003(2)
C12 0.032(2) 0.061(4) 0.029(2) 0.009(2) 0.0013(18) 0.003(2)
C13 0.063(4) 0.032(3) 0.024(2) -0.0017(18) 0.005(2) 0.003(2)
C14 0.044(3) 0.034(2) 0.026(2) 0.0026(18) 0.005(2) 0.002(2)
C15 0.027(2) 0.044(3) 0.027(2) 0.0015(19) -0.0028(17) 0.000(2)
C16 0.033(3) 0.044(3) 0.035(2) 0.009(2) 0.003(2) 0.005(2)
C17 0.040(3) 0.029(2) 0.028(2) -0.0010(17) 0.0051(19) 0.003(2)
C18 0.031(2) 0.072(4) 0.026(2) 0.002(2) 0.0008(18) -0.004(2)
C19 0.028(2) 0.081(4) 0.027(2) 0.002(2) -0.0021(18) -0.006(3)
C20 0.028(2) 0.051(3) 0.037(2) 0.009(2) 0.002(2) 0.005(2)
C21 0.069(4) 0.030(2) 0.024(2) 0.0006(17) 0.000(2) 0.000(2)
C22 0.068(4) 0.028(2) 0.031(2) -0.0039(19) 0.004(2) 0.002(2)
C23 0.053(3) 0.028(2) 0.029(2) -0.0028(17) 0.003(2) 0.004(2)
C24 0.054(3) 0.033(3) 0.033(2) 0.0021(19) 0.009(2) 0.013(2)
Co1D 0.025 0.028 0.0216 -0.0003 -0.0002 0.0015
Co1E 0.025 0.028 0.0216 0.0003 0.0002 0.0015
N1D 0.0247 0.037 0.0263 0.0021 -0.0026 -0.0007
N2E 0.033 0.0278 0.0256 0.0016 -0.0015 0.0008
O5 0.039(4) 0.065(5) 0.036(3) 0.008(3) -0.013(3) -0.018(4)
loop_
_geom_bond_atom_site_label_1
_geom_bond_atom_site_label_2
_geom_bond_site_symmetry_1
_geom_bond_site_symmetry_2
Co1 O1 1_555 1_555
O1 C6 1_555 1_555
O2 Co1 1_555 1_555
O3 Co1 1_555 1_555
C1 O2 1_555 1_555
N1 C15 1_555 1_555
O4 Co1 1_555 1_555
C2 C1 1_555 1_555
N2 C14 1_555 1_555
C3 C6 1_555 1_555
C4 C9 1_555 1_555
C5 C2 1_555 1_555
H1 C5 1_555 1_555
C6 O4 1_555 1_555
C7 C8 1_555 1_555
C8 C11 1_555 1_555
C9 C10 1_555 1_555
C10 H2 1_555 1_555
C11 H3 1_555 1_555
C12 C4 1_555 1_555
H4 C12 1_555 1_555
C13 C7 1_555 1_555
H5 C13 1_555 1_555
C14 H6 1_555 1_555
C15 C10 1_555 1_555
H7 C15 1_555 1_555
C16 C2 1_555 1_555
H8 C16 1_555 1_555
C17 N2 1_555 1_555
H9 C17 1_555 1_555
C18 N1 1_555 1_555
H10 C18 1_555 1_555
C19 C9 1_555 1_555
H11 C19 1_555 1_555
C20 C4 1_555 1_555
H12 C20 1_555 1_555
C21 C3 1_555 1_555
H13 C21 1_555 1_555
C22 C7 1_555 1_555
H14 C22 1_555 1_555
C23 C3 1_555 1_555
H15 C23 1_555 1_555
C24 C8 1_555 1_555
H16 C24 1_555 1_555
O6 C25 1_555 1_555
O7 C26 1_555 1_555
O9 C27 1_555 1_555
Co1D N1 1_555 1_555
Co1E N2 1_555 1_555
N1D Co1 1_555 1_555
N2E Co1 1_555 1_555
O3 C1 1_555 1_555
C5 C12 1_555 1_555
C11 C17 1_555 1_555
C13 C23 1_555 1_555
C14 C24 1_555 1_555
C16 C20 1_555 1_555
C18 C19 1_555 1_555
C21 C22 1_555 1_555

#END
