
#######################################################################
#
#                 Cambridge Crystallographic Data Centre
#                                CCDC 
#
#######################################################################
#
# If this CIF has been generated from an entry in the Cambridge 
# Structural Database, then it will include bibliographic, chemical, 
# crystal, experimental, refinement or atomic coordinate data resulting 
# from the CCDC's data processing and validation procedures.
#
#######################################################################

data_ZILBAZ
_chemical_formula_moiety         '(C28 H36 Co1 N2 O10)n'
_symmetry_cell_setting           trigonal
_symmetry_space_group_name_H-M   'P 32'
_symmetry_Int_Tables_number      145
_space_group_name_Hall           'P 32'
loop_
_symmetry_equiv_pos_site_id
_symmetry_equiv_pos_as_xyz
1 x,y,z
2 -y,x-y,2/3+z
3 -x+y,-x,1/3+z
_cell_length_a                   10.7022(4)
_cell_length_b                   10.7022(4)
_cell_length_c                   22.8742(19)
_cell_angle_alpha                90
_cell_angle_beta                 90
_cell_angle_gamma                120
_cell_volume                     2268.94
loop_
_atom_site_label
_atom_site_type_symbol
_atom_site_fract_x
_atom_site_fract_y
_atom_site_fract_z
Co1 Co 0.3553(2) 0.6450(2) 0.3225(2)
N1 N 0.2118(15) 0.6643(18) 0.2627(5)
C1 C 0.2512(18) 0.733(2) 0.2120(8)
H1 H 0.3493 0.7699 0.2013
C2 C 0.1728(17) 0.755(2) 0.1752(7)
H2 H 0.2151 0.8119 0.1412
C3 C 0.0264(18) 0.6959(16) 0.1859(6)
C4 C -0.020(3) 0.614(3) 0.2332(10)
H3 H -0.1211 0.5579 0.2400
C5 C 0.073(3) 0.608(4) 0.2726(13)
H4 H 0.0352 0.5610 0.3089
C6 C -0.0666(16) 0.724(2) 0.1466(6)
C7 C -0.007(4) 0.850(4) 0.1136(13)
H5 H 0.0913 0.9211 0.1178
C8 C -0.096(3) 0.870(3) 0.0737(14)
H6 H -0.0537 0.9506 0.0481
C9 C -0.2467(18) 0.773(2) 0.0706(7)
C10 C -0.298(2) 0.668(3) 0.1083(11)
H7 H -0.4000 0.6111 0.1111
C11 C -0.2175(9) 0.6333(9) 0.1445(4)
H8 H -0.2632 0.5487 0.1679
C12 C -0.3421(9) 0.8058(9) 0.0310(4)
O1 O -0.2782(9) 0.9157(9) -0.0025(4)
N2 N 0.3422(9) 0.7893(9) 0.3831(4)
C13 C 0.403(2) 0.932(2) 0.3742(9)
H9 H 0.4638 0.9724 0.3410
C14 C 0.383(2) 1.022(2) 0.4101(8)
H10 H 0.4278 1.1213 0.4003
C15 C 0.3011(13) 0.9745(17) 0.4596(5)
C16 C 0.246(2) 0.8317(19) 0.4689(7)
H11 H 0.1926 0.7907 0.5037
C17 C 0.263(2) 0.7437(19) 0.4310(8)
H12 H 0.2160 0.6434 0.4395
C18 C 0.274(2) 1.0659(18) 0.4989(7)
C19 C 0.361(3) 1.210(2) 0.4987(10)
H13 H 0.4401 1.2525 0.4723
C20 C 0.337(3) 1.297(2) 0.5369(9)
H14 H 0.4031 1.3981 0.5370
C21 C 0.224(2) 1.2454(19) 0.5734(8)
C22 C 0.130(3) 1.096(3) 0.5734(12)
H15 H 0.0478 1.0543 0.5981
C23 C 0.157(3) 1.008(3) 0.5378(9)
H16 H 0.0946 0.9069 0.5395
C24 C 0.198(2) 1.339(2) 0.6144(8)
O2 O 0.2893(14) 1.4727(13) 0.6141(5)
O3 O 0.087(2) 1.2778(15) 0.6470(9)
C25 C 0.497(4) 0.510(3) 0.4072(14)
H17 H 0.3951 0.4427 0.4159
H18 H 0.5522 0.5389 0.4437
H19 H 0.5344 0.4636 0.3815
O4 O 0.5097(16) 0.6368(15) 0.3786(5)
C26 C 0.486(4) 0.510(4) 0.2400(15)
H20 H 0.4851 0.5298 0.1982
H21 H 0.4917 0.4220 0.2450
H22 H 0.5705 0.5914 0.2584
O5 O 0.3650(13) 0.4928(16) 0.2653(5)
O6 O -0.4731(12) 0.7132(13) 0.0313(5)
Co1A Co -0.6450(2) 0.7103(3) -0.0108(2)
Co1B Co 0.2897(3) 1.6447(2) 0.6558(2)
O2A O 0.5273(13) 0.8166(19) 0.2808(5)
O6B O 0.1863(18) 0.4731(12) 0.3646(5)
O7 O -0.176(7) 1.057(4) 0.6997(19)
C27 C -0.319(8) 0.340(8) 0.303(4)
O8 O -0.247(7) 0.268(7) 0.322(3)
O9 O -0.275(7) 1.174(7) 0.779(3)
O10 O -0.169(5) 0.764(5) 0.6094(18)
C28 C -0.145(9) 0.847(8) 0.660(3)
loop_
_geom_bond_atom_site_label_1
_geom_bond_atom_site_label_2
_geom_bond_site_symmetry_1
_geom_bond_site_symmetry_2
Co1 N1 1_555 1_555
N1 C1 1_555 1_555
C1 H1 1_555 1_555
C2 C1 1_555 1_555
H2 C2 1_555 1_555
C3 C2 1_555 1_555
C4 C3 1_555 1_555
H3 C4 1_555 1_555
C5 N1 1_555 1_555
H4 C5 1_555 1_555
C6 C3 1_555 1_555
C7 C6 1_555 1_555
H5 C7 1_555 1_555
C8 C7 1_555 1_555
H6 C8 1_555 1_555
C9 C8 1_555 1_555
C10 C9 1_555 1_555
H7 C10 1_555 1_555
C11 C6 1_555 1_555
H8 C11 1_555 1_555
C12 C9 1_555 1_555
O1 C12 1_555 1_555
N2 Co1 1_555 1_555
C13 N2 1_555 1_555
H9 C13 1_555 1_555
C14 C13 1_555 1_555
H10 C14 1_555 1_555
C15 C14 1_555 1_555
C16 C15 1_555 1_555
H11 C16 1_555 1_555
C17 N2 1_555 1_555
H12 C17 1_555 1_555
C18 C15 1_555 1_555
C19 C18 1_555 1_555
H13 C19 1_555 1_555
C20 C19 1_555 1_555
H14 C20 1_555 1_555
C21 C20 1_555 1_555
C22 C21 1_555 1_555
H15 C22 1_555 1_555
C23 C18 1_555 1_555
H16 C23 1_555 1_555
C24 C21 1_555 1_555
O2 C24 1_555 1_555
O3 C24 1_555 1_555
C25 H17 1_555 1_555
H18 C25 1_555 1_555
H19 C25 1_555 1_555
O4 Co1 1_555 1_555
C26 H20 1_555 1_555
H21 C26 1_555 1_555
H22 C26 1_555 1_555
O5 Co1 1_555 1_555
O6 C12 1_555 1_555
C27 O8 1_555 1_555
O10 C28 1_555 1_555
Co1A O6 1_555 1_555
Co1B O2 1_555 1_555
O2A Co1 1_555 1_555
O6B Co1 1_555 1_555
C4 C5 1_555 1_555
C10 C11 1_555 1_555
C16 C17 1_555 1_555
C22 C23 1_555 1_555
C25 O4 1_555 1_555
C26 O5 1_555 1_555

#END
