
#######################################################################
#
#                 Cambridge Crystallographic Data Centre
#                                CCDC 
#
#######################################################################
#
# If this CIF has been generated from an entry in the Cambridge 
# Structural Database, then it will include bibliographic, chemical, 
# crystal, experimental, refinement or atomic coordinate data resulting 
# from the CCDC's data processing and validation procedures.
#
#######################################################################

data_NIMVEL
_chemical_formula_moiety         '(C28 H18 Cu2 La2 N4 O17)n'
_symmetry_cell_setting           monoclinic
_symmetry_space_group_name_H-M   'C 2/c'
_symmetry_Int_Tables_number      15
_space_group_name_Hall           '-C 2yc'
loop_
_symmetry_equiv_pos_site_id
_symmetry_equiv_pos_as_xyz
1 x,y,z
2 1/2+x,1/2+y,z
3 -x,y,1/2-z
4 1/2-x,1/2+y,1/2-z
5 -x,-y,-z
6 1/2-x,1/2-y,-z
7 x,-y,1/2+z
8 1/2+x,1/2-y,1/2+z
_cell_length_a                   21.0349(19)
_cell_length_b                   9.3939(7)
_cell_length_c                   17.5535(11)
_cell_angle_alpha                90
_cell_angle_beta                 106.785(3)
_cell_angle_gamma                90
_cell_volume                     3320.79
loop_
_atom_site_label
_atom_site_type_symbol
_atom_site_fract_x
_atom_site_fract_y
_atom_site_fract_z
La1 La 0.014330(7) 0.682910(15) 0.073318(9)
Cu1 Cu 0.33497(3) 0.43009(8) -0.13784(4)
C1 C -0.04279(14) 0.3466(3) 0.11632(17)
C2 C -0.07606(14) 0.2785(3) 0.17261(16)
C3 C -0.10050(19) 0.3607(4) 0.2227(2)
H1 H -0.0976 0.4595 0.2215
C4 C -0.1293(2) 0.2950(4) 0.2748(2)
H2 H -0.1465 0.3516 0.3077
C5 C -0.1117(2) 0.0755(4) 0.2301(3)
H3 H -0.1158 -0.0229 0.2318
C6 C -0.0828(2) 0.1333(4) 0.1754(3)
H4 H -0.0683 0.0747 0.1411
C7 C 0.13111(14) 0.5212(3) 0.05146(17)
C8 C 0.18552(14) 0.4892(3) 0.01361(18)
C9 C 0.17809(17) 0.3832(5) -0.0422(3)
H5 H 0.1424 0.3206 -0.0515
C10 C 0.22400(18) 0.3703(5) -0.0841(3)
H6 H 0.2174 0.3001 -0.1230
C11 C 0.2870(2) 0.5491(5) -0.0139(3)
H7 H 0.3252 0.6045 -0.0023
C12 C 0.24241(19) 0.5700(5) 0.0299(3)
H8 H 0.2510 0.6381 0.0701
C13 C 0.03651(13) 1.0168(3) 0.02379(16)
C14 C 0.03800(13) 0.7440(3) 0.26823(16)
N1 N -0.13373(15) 0.1540(4) 0.28018(19)
N2 N 0.27738(15) 0.4533(4) -0.07185(19)
O1 O -0.01985(12) 0.4694(2) 0.13402(13)
O2 O -0.04132(13) 0.2764(2) 0.05634(13)
O3 O 0.13921(11) 0.6214(3) 0.10001(14)
O4 O 0.07726(10) 0.4515(2) 0.02908(13)
O5 O 0.06520(10) 0.9305(2) 0.07701(12)
O6 O 0.06154(10) 1.1271(2) 0.00488(13)
O7 O 0.07213(10) 0.7259(2) 0.22086(12)
O8 O 0.05913(10) 0.7652(2) 0.34153(12)
La1D La -0.014330(7) 0.317090(15) -0.073318(9)
La1D_2 La -0.014330(7) 1.317090(15) -0.073318(9)
La1B La -0.014330(7) 0.682910(15) 0.426682(9)
Cu1C Cu 0.16503(3) 0.93009(8) -0.36216(4)
Cu1G Cu -0.16503(3) 0.06991(8) 0.36216(4)
Cu1D Cu -0.33497(3) 0.56991(8) 0.13784(4)
C1D C 0.04279(14) 0.6534(3) -0.11632(17)
C2D C 0.07606(14) 0.7215(3) -0.17261(16)
C3D C 0.10050(19) 0.6393(4) -0.2227(2)
H1D H 0.0976 0.5405 -0.2215
C4D C 0.1293(2) 0.7050(4) -0.2748(2)
H2D H 0.1465 0.6484 -0.3077
C5D C 0.1117(2) 0.9245(4) -0.2301(3)
H3D H 0.1158 1.0229 -0.2318
C6D C 0.0828(2) 0.8667(4) -0.1754(3)
H4D H 0.0683 0.9253 -0.1411
C7D C -0.13111(14) 0.4788(3) -0.05146(17)
C8D C -0.18552(14) 0.5108(3) -0.01361(18)
C9D C -0.17809(17) 0.6168(5) 0.0422(3)
H5D H -0.1424 0.6794 0.0515
C10D C -0.22400(18) 0.6297(5) 0.0841(3)
H6D H -0.2174 0.6999 0.1230
C11D C -0.2870(2) 0.4509(5) 0.0139(3)
H7D H -0.3252 0.3955 0.0023
C12D C -0.24241(19) 0.4300(5) -0.0299(3)
H8D H -0.2510 0.3619 -0.0701
C13D C -0.03651(13) 0.9832(3) -0.02379(16)
C14B C -0.03800(13) 0.7440(3) 0.23177(16)
N1D N 0.13373(15) 0.8460(4) -0.28018(19)
N1G N 0.36627(15) 0.3460(4) -0.21982(19)
N1C N -0.36627(15) 0.6540(4) 0.21982(19)
N2D N -0.27738(15) 0.5467(4) 0.07185(19)
O1D O 0.01985(12) 0.5306(2) -0.13402(13)
O1B O 0.01985(12) 0.4694(2) 0.36598(13)
O2D O 0.04132(13) 0.7236(2) -0.05634(13)
O2F O -0.04132(13) 0.7236(2) 0.55634(13)
O3D O -0.13921(11) 0.3786(3) -0.10001(14)
O3B O -0.13921(11) 0.6214(3) 0.39999(14)
O4D O -0.07726(10) 0.5485(2) -0.02908(13)
O4F O 0.07726(10) 0.5485(2) 0.52908(13)
O4B O -0.07726(10) 0.4515(2) 0.47092(13)
O5D O -0.06520(10) 1.0695(2) -0.07701(12)
O5B O -0.06520(10) 0.9305(2) 0.42299(12)
O6D O -0.06154(10) 0.8729(2) -0.00488(13)
O6F O 0.06154(10) 0.8729(2) 0.50488(13)
O7B O -0.07213(10) 0.7259(2) 0.27914(12)
O8B O -0.05913(10) 0.7652(2) 0.15847(12)
O9 O -0.2054(2) -0.1891(5) 0.2672(3)
loop_
_geom_bond_atom_site_label_1
_geom_bond_atom_site_label_2
_geom_bond_site_symmetry_1
_geom_bond_site_symmetry_2
La1 O1 1_555 1_555
Cu1 N2 1_555 1_555
C1 C2 1_555 1_555
C2 C3 1_555 1_555
C3 H1 1_555 1_555
C4 C3 1_555 1_555
H2 C4 1_555 1_555
C5 H3 1_555 1_555
C6 C2 1_555 1_555
H4 C6 1_555 1_555
C7 C8 1_555 1_555
C8 C9 1_555 1_555
C9 H5 1_555 1_555
C10 C9 1_555 1_555
H6 C10 1_555 1_555
C11 H7 1_555 1_555
C12 C8 1_555 1_555
H8 C12 1_555 1_555
C13 O5 1_555 1_555
C14 O7 1_555 1_555
N1 C4 1_555 1_555
N2 C10 1_555 1_555
O1 C1 1_555 1_555
O2 C1 1_555 1_555
O3 La1 1_555 1_555
O4 La1 1_555 1_555
O5 La1 1_555 1_555
O6 C13 1_555 1_555
O7 La1 1_555 1_555
O8 C14 1_555 1_555
La1D O2 1_555 1_555
La1D_2 O6 1_555 1_555
La1B O8 1_555 1_555
Cu1C N1D 1_555 1_555
Cu1G N1 1_555 1_555
Cu1D N1C 1_555 1_555
C1D C2D 1_555 1_555
C2D C3D 1_555 1_555
C3D H1D 1_555 1_555
C4D C3D 1_555 1_555
H2D C4D 1_555 1_555
C5D H3D 1_555 1_555
C6D C2D 1_555 1_555
H4D C6D 1_555 1_555
C7D C8D 1_555 1_555
C8D C9D 1_555 1_555
C9D H5D 1_555 1_555
C10D C9D 1_555 1_555
H6D C10D 1_555 1_555
C11D H7D 1_555 1_555
C12D C8D 1_555 1_555
H8D C12D 1_555 1_555
C13D C13 1_555 1_555
C14B C14 1_555 1_555
N1D C4D 1_555 1_555
N1G Cu1 1_555 1_555
N2D Cu1D 1_555 1_555
O1D La1D 1_555 1_555
O1B La1B 1_555 1_555
O2D La1 1_555 1_555
O2F La1B 1_555 1_555
O3D La1D 1_555 1_555
O3B La1B 1_555 1_555
O4D La1 1_555 1_555
O4F La1B 1_555 1_555
O4B La1B 1_555 1_555
O5D La1D_2 1_555 1_555
O5B La1B 1_555 1_555
O6D La1 1_555 1_555
O6F La1B 1_555 1_555
O7B La1B 1_555 1_555
O8B La1 1_555 1_555
C5 C6 1_555 1_555
C5 N1 1_555 1_555
C7 O3 1_555 1_555
C7 O4 1_555 1_555
C11 C12 1_555 1_555
C11 N2 1_555 1_555
O4 La1D 1_555 1_555
La1D O4D 1_555 1_555
C1D O1D 1_555 1_555
C1D O2D 1_555 1_555
C5D C6D 1_555 1_555
C5D N1D 1_555 1_555
C7D O3D 1_555 1_555
C7D O4D 1_555 1_555
C10D N2D 1_555 1_555
C11D C12D 1_555 1_555
C11D N2D 1_555 1_555
C13D O5D 1_555 1_555
C13D O6D 1_555 1_555
C14B O7B 1_555 1_555
C14B O8B 1_555 1_555

#END
