
#######################################################################
#
#                 Cambridge Crystallographic Data Centre
#                                CCDC 
#
#######################################################################
#
# If this CIF has been generated from an entry in the Cambridge 
# Structural Database, then it will include bibliographic, chemical, 
# crystal, experimental, refinement or atomic coordinate data resulting 
# from the CCDC's data processing and validation procedures.
#
#######################################################################

data_QOQBII
_chemical_formula_moiety         'C253 H129 N16 O28 Zn20'
_symmetry_cell_setting           tetragonal
_symmetry_space_group_name_H-M   'I 4/m m m'
_symmetry_Int_Tables_number      139
_space_group_name_Hall           '-I 4 2'
loop_
_symmetry_equiv_pos_site_id
_symmetry_equiv_pos_as_xyz
1 x,y,z
2 -y,x,z
3 y,-x,z
4 y,x,-z
5 1/2+x,1/2+y,1/2+z
6 1/2-y,1/2+x,1/2+z
7 1/2+y,1/2-x,1/2+z
8 1/2+y,1/2+x,1/2-z
9 -x,-y,z
10 -x,y,-z
11 x,-y,-z
12 -y,-x,-z
13 1/2-x,1/2-y,1/2+z
14 1/2-x,1/2+y,1/2-z
15 1/2+x,1/2-y,1/2-z
16 1/2-y,1/2-x,1/2-z
17 -x,-y,-z
18 y,-x,-z
19 -y,x,-z
20 -y,-x,z
21 1/2-x,1/2-y,1/2-z
22 1/2+y,1/2-x,1/2-z
23 1/2-y,1/2+x,1/2-z
24 1/2-y,1/2-x,1/2+z
25 x,y,-z
26 x,-y,z
27 -x,y,z
28 y,x,z
29 1/2+x,1/2+y,1/2-z
30 1/2+x,1/2-y,1/2+z
31 1/2-x,1/2+y,1/2+z
32 1/2+y,1/2+x,1/2+z
_cell_length_a                   16.7122(2)
_cell_length_b                   16.7122(2)
_cell_length_c                   54.2436(14)
_cell_angle_alpha                90
_cell_angle_beta                 90
_cell_angle_gamma                90
_cell_volume                     15150.1
loop_
_atom_site_label
_atom_site_type_symbol
_atom_site_fract_x
_atom_site_fract_y
_atom_site_fract_z
Zn1 Zn 0.0000 -0.0000 0.135680(6)
Zn2 Zn 0.5000 0.5000 0.156609(5)
Zn3 Zn 0.5000 0.5000 0.102529(5)
O1 O 0.41521(4) 0.41521(4) 0.15002(2)
O2 O 0.41525(4) 0.41525(4) 0.10906(2)
N1 N 0.12218(7) 0.0000 0.12980(2)
C1 C 0.17109(6) 0.06572(6) 0.129351(18)
C2 C 0.25348(6) 0.04027(7) 0.12862(2)
H1 H 0.2982 0.0733 0.1282
C3 C 0.14574(6) 0.14574(6) 0.12943(3)
C4 C 0.20909(6) 0.20909(6) 0.12938(3)
C5 C 0.32743(6) 0.32743(6) 0.12941(3)
C6 C 0.39121(6) 0.39121(6) 0.12939(3)
C7 C 0.2284(2) 0.2497(2) 0.10797(4)
H2 H 0.2021 0.2373 0.0934
C8 C 0.2871(2) 0.3091(2) 0.10813(4)
H3 H 0.2989 0.3365 0.0937
C9 C 0.3079(3) 0.2874(3) 0.15075(4)
H4 H 0.3342 0.3000 0.1654
C10 C 0.2495(3) 0.2286(3) 0.15075(4)
H5 H 0.2374 0.2019 0.1653
N2 N 0.0000 -0.0000 0.17559(5)
N3 N 0.5000 0.5000 0.19441(5)
C11 C 0.0000 -0.0000 0.22715(6)
C12 C 0.0000 -0.0000 0.25433(6)
C13 C 0.0209(4) 0.0632(2) 0.18827(7)
H6 H 0.0353 0.1088 0.1795
C14 C 0.0231(4) 0.0675(3) 0.21376(7)
H7 H 0.0395 0.1140 0.2217
C15 C 0.0642(3) 0.0277(3) 0.26757(6)
H8 H 0.1092 0.0472 0.2594
C16 C 0.5266(2) 0.5618(2) 0.20708(7)
H9 H 0.5455 0.6059 0.1984
N4 N 0.5000 0.5000 0.06528(5)
C17 C 0.4735(4) 0.4386(5) 0.05249(7)
H10 H 0.4537 0.3947 0.0611
C18 C 0.4733(3) 0.4354(3) 0.02656(7)
H11 H 0.4552 0.3900 0.0184
C19 C 0.5000 0.5000 0.01379(6)
Zn1G Zn 0.5000 0.5000 0.364320(6)
Zn1C Zn 0.0000 0.0000 -0.135680(6)
Zn2G Zn 0.0000 -0.0000 0.343391(5)
Zn2_2 Zn -0.5000 -0.5000 0.156609(5)
Zn2_3 Zn -0.5000 0.5000 0.156609(5)
Zn2_4 Zn 0.5000 -0.5000 0.156609(5)
Zn2C Zn 0.5000 0.5000 -0.156609(5)
Zn2C_2 Zn -0.5000 0.5000 -0.156609(5)
Zn2C_3 Zn 0.5000 -0.5000 -0.156609(5)
Zn2C_4 Zn -0.5000 -0.5000 -0.156609(5)
Zn3_2 Zn -0.5000 -0.5000 0.102529(5)
Zn3_3 Zn -0.5000 0.5000 0.102529(5)
Zn3C Zn 0.5000 0.5000 -0.102529(5)
Zn3_4 Zn 0.5000 -0.5000 0.102529(5)
Zn3C_2 Zn -0.5000 0.5000 -0.102529(5)
Zn3C_3 Zn 0.5000 -0.5000 -0.102529(5)
Zn3C_4 Zn -0.5000 -0.5000 -0.102529(5)
O1A O 0.58479(4) 0.41521(4) 0.15002(2)
O1B O 0.41521(4) 0.58479(4) 0.15002(2)
O1S O 0.58479(4) 0.58479(4) 0.15002(2)
O1A_2 O -0.41521(4) 0.41521(4) 0.15002(2)
O1S_2 O -0.41521(4) -0.41521(4) 0.15002(2)
O1B_2 O 0.41521(4) -0.41521(4) 0.15002(2)
O1C O 0.41521(4) 0.41521(4) -0.15002(2)
O1Q O 0.41521(4) 0.58479(4) -0.15002(2)
O1R O -0.41521(4) 0.41521(4) -0.15002(2)
O1Q_2 O 0.41521(4) -0.41521(4) -0.15002(2)
O1P O -0.41521(4) -0.41521(4) -0.15002(2)
O1P_2 O 0.58479(4) 0.58479(4) -0.15002(2)
O1R_2 O 0.58479(4) 0.41521(4) -0.15002(2)
O2A O 0.58475(4) 0.41525(4) 0.10906(2)
O2B O 0.41525(4) 0.58475(4) 0.10906(2)
O2S O 0.58475(4) 0.58475(4) 0.10906(2)
O2A_2 O -0.41525(4) 0.41525(4) 0.10906(2)
O2S_2 O -0.41525(4) -0.41525(4) 0.10906(2)
O2B_2 O 0.41525(4) -0.41525(4) 0.10906(2)
O2C O 0.41525(4) 0.41525(4) -0.10906(2)
O2P O 0.58475(4) 0.58475(4) -0.10906(2)
O2Q O 0.41525(4) 0.58475(4) -0.10906(2)
O2R O 0.58475(4) 0.41525(4) -0.10906(2)
O2R_2 O -0.41525(4) 0.41525(4) -0.10906(2)
O2Q_2 O 0.41525(4) -0.41525(4) -0.10906(2)
O2P_2 O -0.41525(4) -0.41525(4) -0.10906(2)
N1A N 0.0000 0.12218(7) 0.12980(2)
N1B N 0.0000 -0.12218(7) 0.12980(2)
N1Z N -0.12218(7) 0.0000 0.12980(2)
N1X N 0.12218(7) 0.0000 -0.12980(2)
N1C N 0.0000 0.12218(7) -0.12980(2)
N1P N -0.12218(7) 0.0000 -0.12980(2)
N1Q N -0.0000 -0.12218(7) -0.12980(2)
C1Y C 0.17109(6) -0.06572(6) 0.129351(18)
C1AA C 0.06572(6) 0.17109(6) 0.129351(18)
C1A C -0.06572(6) 0.17109(6) 0.129351(18)
C1B C 0.06572(6) -0.17109(6) 0.129351(18)
C1Z C -0.17109(6) 0.06572(6) 0.129351(18)
C1H C -0.17109(6) -0.06572(6) 0.129351(18)
C1S C -0.06572(6) -0.17109(6) 0.129351(18)
C1C C 0.06572(6) 0.17109(6) -0.129351(18)
C1X C 0.17109(6) 0.06572(6) -0.129351(18)
C1J C 0.17109(6) -0.06572(6) -0.129351(18)
C1R C -0.06572(6) 0.17109(6) -0.129351(18)
C1I C -0.17109(6) 0.06572(6) -0.129351(18)
C1Q C 0.06572(6) -0.17109(6) -0.129351(18)
C1K C -0.06572(6) -0.17109(6) -0.129351(18)
C1P C -0.17109(6) -0.06572(6) -0.129351(18)
C2Y C 0.25348(6) -0.04027(7) 0.12862(2)
C2AA C 0.04027(7) 0.25348(6) 0.12862(2)
C2A C -0.04027(7) 0.25348(6) 0.12862(2)
C2B C 0.04027(7) -0.25348(6) 0.12862(2)
C2S C -0.04027(7) -0.25348(6) 0.12862(2)
C2Z C -0.25348(6) 0.04027(7) 0.12862(2)
C2H C -0.25348(6) -0.04027(7) 0.12862(2)
C2X C 0.25348(6) 0.04027(7) -0.12862(2)
C2C C 0.04027(7) 0.25348(6) -0.12862(2)
C2J C 0.25348(6) -0.04027(7) -0.12862(2)
C2R C -0.04027(7) 0.25348(6) -0.12862(2)
C2Q C 0.04027(7) -0.25348(6) -0.12862(2)
C2K C -0.04027(7) -0.25348(6) -0.12862(2)
C2P C -0.25348(6) -0.04027(7) -0.12862(2)
H1Y H 0.2982 -0.0733 0.1282
H1AA H 0.0733 0.2982 0.1282
H1A H -0.0733 0.2982 0.1282
H1B H 0.0733 -0.2982 0.1282
H1S H -0.0733 -0.2982 0.1282
H1Z H -0.2982 0.0733 0.1282
H1X H 0.2982 0.0733 -0.1282
H1C H 0.0733 0.2982 -0.1282
H1J H 0.2982 -0.0733 -0.1282
H1R H -0.0733 0.2982 -0.1282
H1Q H 0.0733 -0.2982 -0.1282
H1K H -0.0733 -0.2982 -0.1282
C3B C 0.14574(6) -0.14574(6) 0.12943(3)
C3A C -0.14574(6) 0.14574(6) 0.12943(3)
C3S C -0.14574(6) -0.14574(6) 0.12943(3)
C3C C 0.14574(6) 0.14574(6) -0.12943(3)
C3Q C 0.14574(6) -0.14574(6) -0.12943(3)
C3R C -0.14574(6) 0.14574(6) -0.12943(3)
C3P C -0.14574(6) -0.14574(6) -0.12943(3)
C4B C 0.20909(6) -0.20909(6) 0.12938(3)
C4A C -0.20909(6) 0.20909(6) 0.12938(3)
C4S C -0.20909(6) -0.20909(6) 0.12938(3)
C4C C 0.20909(6) 0.20909(6) -0.12938(3)
C4R C -0.20909(6) 0.20909(6) -0.12938(3)
C4Q C 0.20909(6) -0.20909(6) -0.12938(3)
C4P C -0.20909(6) -0.20909(6) -0.12938(3)
C5B C 0.32743(6) -0.32743(6) 0.12941(3)
C5A C -0.32743(6) 0.32743(6) 0.12941(3)
C5S C -0.32743(6) -0.32743(6) 0.12941(3)
C5C C 0.32743(6) 0.32743(6) -0.12941(3)
C5Q C 0.32743(6) 0.67257(6) -0.12941(3)
C5Q_2 C 0.32743(6) -0.32743(6) -0.12941(3)
C5R C -0.32743(6) 0.32743(6) -0.12941(3)
C5P C -0.32743(6) -0.32743(6) -0.12941(3)
C6A C -0.39121(6) 0.39121(6) 0.12939(3)
C6S C -0.39121(6) -0.39121(6) 0.12939(3)
C6B C 0.39121(6) -0.39121(6) 0.12939(3)
C6C C 0.39121(6) 0.39121(6) -0.12939(3)
C6Q C 0.39121(6) 0.60879(6) -0.12939(3)
C6Q_2 C 0.39121(6) -0.39121(6) -0.12939(3)
C6R C -0.39121(6) 0.39121(6) -0.12939(3)
C6P C -0.39121(6) -0.39121(6) -0.12939(3)
C7AA C 0.2497(2) 0.2284(2) 0.10797(4)
C7B C 0.2497(2) -0.2284(2) 0.10797(4)
C7Y C 0.2284(2) -0.2497(2) 0.10797(4)
C7A C -0.2497(2) 0.2284(2) 0.10797(4)
C7Z C -0.2284(2) 0.2497(2) 0.10797(4)
C7S C -0.2497(2) -0.2284(2) 0.10797(4)
C7H C -0.2284(2) -0.2497(2) 0.10797(4)
C7C C 0.2497(2) 0.2284(2) -0.10797(4)
C7X C 0.2284(2) 0.2497(2) -0.10797(4)
C7Q C 0.2497(2) -0.2284(2) -0.10797(4)
C7J C 0.2284(2) -0.2497(2) -0.10797(4)
C7P C -0.2284(2) -0.2497(2) -0.10797(4)
C7K C -0.2497(2) -0.2284(2) -0.10797(4)
C7R C -0.2497(2) 0.2284(2) -0.10797(4)
C7I C -0.2284(2) 0.2497(2) -0.10797(4)
H2AA H 0.2373 0.2021 0.0934
H2B H 0.2373 -0.2021 0.0934
H2Y H 0.2021 -0.2373 0.0934
H2A H -0.2373 0.2021 0.0934
H2Z H -0.2021 0.2373 0.0934
H2S H -0.2373 -0.2021 0.0934
H2H H -0.2021 -0.2373 0.0934
H2C H 0.2373 0.2021 -0.0934
H2X H 0.2021 0.2373 -0.0934
H2Q H 0.2373 -0.2021 -0.0934
H2J H 0.2021 -0.2373 -0.0934
H2R H -0.2373 0.2021 -0.0934
H2I H -0.2021 0.2373 -0.0934
H2P H -0.2021 -0.2373 -0.0934
H2K H -0.2373 -0.2021 -0.0934
C8AA C 0.3091(2) 0.2871(2) 0.10813(4)
C8B C 0.3091(2) -0.2871(2) 0.10813(4)
C8Y C 0.2871(2) -0.3091(2) 0.10813(4)
C8A C -0.3091(2) 0.2871(2) 0.10813(4)
C8Z C -0.2871(2) 0.3091(2) 0.10813(4)
C8S C -0.3091(2) -0.2871(2) 0.10813(4)
C8H C -0.2871(2) -0.3091(2) 0.10813(4)
C8Q C 0.3091(2) 0.7129(2) -0.10813(4)
C8J C 0.2871(2) 0.6909(2) -0.10813(4)
C8C C 0.3091(2) 0.2871(2) -0.10813(4)
C8X C 0.2871(2) 0.3091(2) -0.10813(4)
C8Q_2 C 0.3091(2) -0.2871(2) -0.10813(4)
C8J_2 C 0.2871(2) -0.3091(2) -0.10813(4)
C8R C -0.3091(2) 0.2871(2) -0.10813(4)
C8I C -0.2871(2) 0.3091(2) -0.10813(4)
C8P C -0.2871(2) -0.3091(2) -0.10813(4)
C8K C -0.3091(2) -0.2871(2) -0.10813(4)
H3AA H 0.3365 0.2989 0.0937
H3B H 0.3365 -0.2989 0.0937
H3Y H 0.2989 -0.3365 0.0937
H3A H -0.3365 0.2989 0.0937
H3Z H -0.2989 0.3365 0.0937
H3S H -0.3365 -0.2989 0.0937
H3H H -0.2989 -0.3365 0.0937
H3C H 0.3365 0.2989 -0.0937
H3X H 0.2989 0.3365 -0.0937
H3Q H 0.3365 -0.2989 -0.0937
H3J H 0.2989 -0.3365 -0.0937
H3R H -0.3365 0.2989 -0.0937
H3I H -0.2989 0.3365 -0.0937
H3P H -0.2989 -0.3365 -0.0937
H3K H -0.3365 -0.2989 -0.0937
C9AA C 0.2874(3) 0.3079(3) 0.15075(4)
C9B C 0.2874(3) -0.3079(3) 0.15075(4)
C9Y C 0.3079(3) -0.2874(3) 0.15075(4)
C9A C -0.2874(3) 0.3079(3) 0.15075(4)
C9Z C -0.3079(3) 0.2874(3) 0.15075(4)
C9S C -0.2874(3) -0.3079(3) 0.15075(4)
C9H C -0.3079(3) -0.2874(3) 0.15075(4)
C9Q C 0.2874(3) 0.6921(3) -0.15075(4)
C9J C 0.3079(3) 0.7126(3) -0.15075(4)
C9C C 0.2874(3) 0.3079(3) -0.15075(4)
C9X C 0.3079(3) 0.2874(3) -0.15075(4)
C9P C -0.3079(3) -0.2874(3) -0.15075(4)
C9K C -0.2874(3) -0.3079(3) -0.15075(4)
C9Q_2 C 0.2874(3) -0.3079(3) -0.15075(4)
C9J_2 C 0.3079(3) -0.2874(3) -0.15075(4)
C9R C -0.2874(3) 0.3079(3) -0.15075(4)
C9I C -0.3079(3) 0.2874(3) -0.15075(4)
H4AA H 0.3000 0.3342 0.1654
H4B H 0.3000 -0.3342 0.1654
H4Y H 0.3342 -0.3000 0.1654
H4A H -0.3000 0.3342 0.1654
H4Z H -0.3342 0.3000 0.1654
H4S H -0.3000 -0.3342 0.1654
H4H H -0.3342 -0.3000 0.1654
H4C H 0.3000 0.3342 -0.1654
H4X H 0.3342 0.3000 -0.1654
H4R H -0.3000 0.3342 -0.1654
H4I H -0.3342 0.3000 -0.1654
H4Q H 0.3000 -0.3342 -0.1654
H4J H 0.3342 -0.3000 -0.1654
H4P H -0.3342 -0.3000 -0.1654
H4K H -0.3000 -0.3342 -0.1654
C10AA C 0.2286(3) 0.2495(3) 0.15075(4)
C10B C 0.2286(3) -0.2495(3) 0.15075(4)
C10Y C 0.2495(3) -0.2286(3) 0.15075(4)
C10A C -0.2286(3) 0.2495(3) 0.15075(4)
C10Z C -0.2495(3) 0.2286(3) 0.15075(4)
C10S C -0.2286(3) -0.2495(3) 0.15075(4)
C10H C -0.2495(3) -0.2286(3) 0.15075(4)
C10C C 0.2286(3) 0.2495(3) -0.15075(4)
C10X C 0.2495(3) 0.2286(3) -0.15075(4)
C10Q C 0.2286(3) -0.2495(3) -0.15075(4)
C10J C 0.2495(3) -0.2286(3) -0.15075(4)
C10P C -0.2495(3) -0.2286(3) -0.15075(4)
C10K C -0.2286(3) -0.2495(3) -0.15075(4)
C10R C -0.2286(3) 0.2495(3) -0.15075(4)
C10I C -0.2495(3) 0.2286(3) -0.15075(4)
H5AA H 0.2019 0.2374 0.1653
H5B H 0.2019 -0.2374 0.1653
H5Y H 0.2374 -0.2019 0.1653
H5A H -0.2019 0.2374 0.1653
H5Z H -0.2374 0.2019 0.1653
H5S H -0.2019 -0.2374 0.1653
H5H H -0.2374 -0.2019 0.1653
H5C H 0.2019 0.2374 -0.1653
H5X H 0.2374 0.2019 -0.1653
H5P H -0.2374 -0.2019 -0.1653
H5K H -0.2019 -0.2374 -0.1653
H5R H -0.2019 0.2374 -0.1653
H5I H -0.2374 0.2019 -0.1653
H5Q H 0.2019 -0.2374 -0.1653
H5J H 0.2374 -0.2019 -0.1653
N2G N 0.5000 0.5000 0.32441(5)
N2C N 0.0000 0.0000 -0.17559(5)
N3G N 0.0000 -0.0000 0.30559(5)
N3C N 0.5000 0.5000 -0.19441(5)
C11G C 0.5000 0.5000 0.27285(6)
C11C C -0.0000 0.0000 -0.22715(6)
C12G C 0.5000 0.5000 0.24567(6)
C12C C 0.0000 0.0000 -0.25433(6)
C13A C -0.0632(2) 0.0209(4) 0.18827(7)
C13B C 0.0632(2) -0.0209(4) 0.18827(7)
C13Y C 0.0209(4) -0.0632(2) 0.18827(7)
C13Z C -0.0209(4) 0.0632(2) 0.18827(7)
C13AA C 0.0632(2) 0.0209(4) 0.18827(7)
C13S C -0.0632(2) -0.0209(4) 0.18827(7)
C13H C -0.0209(4) -0.0632(2) 0.18827(7)
C13G C 0.5632(2) 0.5209(4) 0.31173(7)
C13BA C 0.5209(4) 0.5632(2) 0.31173(7)
C13U C 0.5632(2) 0.4791(4) 0.31173(7)
C13V C 0.4368(2) 0.5209(4) 0.31173(7)
C13M C 0.4791(4) 0.5632(2) 0.31173(7)
C13O C 0.4368(2) 0.4791(4) 0.31173(7)
C13T C 0.4791(4) 0.4368(2) 0.31173(7)
C13N C 0.5209(4) 0.4368(2) 0.31173(7)
C13C C 0.0632(2) 0.0209(4) -0.18827(7)
C13X C 0.0209(4) 0.0632(2) -0.18827(7)
C13P C -0.0209(4) -0.0632(2) -0.18827(7)
C13Q C 0.0632(2) -0.0209(4) -0.18827(7)
C13R C -0.0632(2) 0.0209(4) -0.18827(7)
C13I C -0.0209(4) 0.0632(2) -0.18827(7)
C13J C 0.0209(4) -0.0632(2) -0.18827(7)
C13K C -0.0632(2) -0.0209(4) -0.18827(7)
H6Z H -0.0353 0.1088 0.1795
H6V H 0.3912 0.5353 0.3205
H6O H 0.3912 0.4647 0.3205
H6T H 0.4647 0.3912 0.3205
H6N H 0.5353 0.3912 0.3205
H6BA H 0.5353 0.6088 0.3205
H6M H 0.4647 0.6088 0.3205
H6G H 0.6088 0.5353 0.3205
H6U H 0.6088 0.4647 0.3205
H6P H -0.0353 -0.1088 -0.1795
H6J H 0.0353 -0.1088 -0.1795
H6R H -0.1088 0.0353 -0.1795
H6K H -0.1088 -0.0353 -0.1795
H6X H 0.0353 0.1088 -0.1795
H6I H -0.0353 0.1088 -0.1795
C14A C -0.0675(3) 0.0231(4) 0.21376(7)
C14B C 0.0675(3) -0.0231(4) 0.21376(7)
C14Y C 0.0231(4) -0.0675(3) 0.21376(7)
C14Z C -0.0231(4) 0.0675(3) 0.21376(7)
C14AA C 0.0675(3) 0.0231(4) 0.21376(7)
C14S C -0.0675(3) -0.0231(4) 0.21376(7)
C14H C -0.0231(4) -0.0675(3) 0.21376(7)
C14G C 0.5675(3) 0.5231(4) 0.28624(7)
C14BA C 0.5231(4) 0.5675(3) 0.28624(7)
C14T C 0.4769(4) 0.4325(3) 0.28624(7)
C14U C 0.5675(3) 0.4769(4) 0.28624(7)
C14V C 0.4325(3) 0.5231(4) 0.28624(7)
C14M C 0.4769(4) 0.5675(3) 0.28624(7)
C14N C 0.5231(4) 0.4325(3) 0.28624(7)
C14O C 0.4325(3) 0.4769(4) 0.28624(7)
C14P C -0.0231(4) -0.0675(3) -0.21376(7)
C14J C 0.0231(4) -0.0675(3) -0.21376(7)
C14K C -0.0675(3) -0.0231(4) -0.21376(7)
C14R C -0.0675(3) 0.0231(4) -0.21376(7)
C14I C -0.0231(4) 0.0675(3) -0.21376(7)
C14X C 0.0231(4) 0.0675(3) -0.21376(7)
C14C C 0.0675(3) 0.0231(4) -0.21376(7)
C14Q C 0.0675(3) -0.0231(4) -0.21376(7)
H7G H 0.6140 0.5395 0.2783
H7M H 0.4605 0.6140 0.2783
H7V H 0.3860 0.5395 0.2783
H7T H 0.4605 0.3860 0.2783
H7X H 0.0395 0.1140 -0.2217
H7I H -0.0395 0.1140 -0.2217
H7R H -0.1140 0.0395 -0.2217
H7K H -0.1140 -0.0395 -0.2217
H7P H -0.0395 -0.1140 -0.2217
C15A C -0.0277(3) 0.0642(3) 0.26757(6)
C15B C 0.0277(3) -0.0642(3) 0.26757(6)
C15Y C 0.0642(3) -0.0277(3) 0.26757(6)
C15Z C -0.0642(3) 0.0277(3) 0.26757(6)
C15AA C 0.0277(3) 0.0642(3) 0.26757(6)
C15S C -0.0277(3) -0.0642(3) 0.26757(6)
C15H C -0.0642(3) -0.0277(3) 0.26757(6)
C15G C 0.5277(3) 0.5642(3) 0.23243(6)
C15V C 0.4723(3) 0.5642(3) 0.23243(6)
C15BA C 0.5642(3) 0.5277(3) 0.23243(6)
C15T C 0.4358(3) 0.4723(3) 0.23243(6)
C15U C 0.5277(3) 0.4358(3) 0.23243(6)
C15O C 0.4723(3) 0.4358(3) 0.23243(6)
C15M C 0.4358(3) 0.5277(3) 0.23243(6)
C15N C 0.5642(3) 0.4723(3) 0.23243(6)
H8S H -0.0472 -0.1092 0.2594
H8H H -0.1092 -0.0472 0.2594
H8G H 0.5472 0.6092 0.2406
H8V H 0.4528 0.6092 0.2406
H8T H 0.3908 0.4528 0.2406
C16B C 0.5618(2) 0.4734(2) 0.20708(7)
C16A C 0.4382(2) 0.5266(2) 0.20708(7)
C16Z C 0.4734(2) 0.5618(2) 0.20708(7)
C16Y C 0.5266(2) 0.4382(2) 0.20708(7)
C16AA C 0.5618(2) 0.5266(2) 0.20708(7)
C16S C 0.4382(2) 0.4734(2) 0.20708(7)
C16H C 0.4734(2) 0.4382(2) 0.20708(7)
C16G C 0.0618(2) 0.0266(2) 0.29292(7)
C16U C 0.0618(2) -0.0266(2) 0.29292(7)
C16BA C 0.0266(2) 0.0618(2) 0.29292(7)
C16T C -0.0266(2) -0.0618(2) 0.29292(7)
C16N C 0.0266(2) -0.0618(2) 0.29292(7)
C16O C -0.0618(2) -0.0266(2) 0.29292(7)
C16V C -0.0618(2) 0.0266(2) 0.29292(7)
C16M C -0.0266(2) 0.0618(2) 0.29292(7)
H9U H 0.1059 -0.0455 0.3016
H9BA H 0.0455 0.1059 0.3016
H9T H -0.0455 -0.1059 0.3016
H9O H -0.1059 -0.0455 0.3016
H9H H 0.4545 0.3941 0.1984
H9Y H 0.5455 0.3941 0.1984
N4C N 0.5000 0.5000 -0.06528(5)
C17A C 0.5614(5) 0.4735(4) 0.05249(7)
C17B C 0.4386(5) 0.5265(4) 0.05249(7)
C17Y C 0.4735(4) 0.5614(5) 0.05249(7)
C17Z C 0.5265(4) 0.4386(5) 0.05249(7)
C17AA C 0.4386(5) 0.4735(4) 0.05249(7)
C17S C 0.5614(5) 0.5265(4) 0.05249(7)
C17H C 0.5265(4) 0.5614(5) 0.05249(7)
C17P C 0.5265(4) 0.5614(5) -0.05249(7)
C17R C 0.5614(5) 0.4735(4) -0.05249(7)
C17K C 0.5614(5) 0.5265(4) -0.05249(7)
C17J C 0.4735(4) 0.5614(5) -0.05249(7)
C17Q C 0.4386(5) 0.5265(4) -0.05249(7)
C17C C 0.4386(5) 0.4735(4) -0.05249(7)
C17X C 0.4735(4) 0.4386(5) -0.05249(7)
C17I C 0.5265(4) 0.4386(5) -0.05249(7)
H10P H 0.5463 0.6053 -0.0611
H10J H 0.4537 0.6053 -0.0611
H10Q H 0.3947 0.5463 -0.0611
H10C H 0.3947 0.4537 -0.0611
H10X H 0.4537 0.3947 -0.0611
C18Z C 0.5267(3) 0.4354(3) 0.02656(7)
C18AA C 0.4354(3) 0.4733(3) 0.02656(7)
C18A C 0.5646(3) 0.4733(3) 0.02656(7)
C18B C 0.4354(3) 0.5267(3) 0.02656(7)
C18Y C 0.4733(3) 0.5646(3) 0.02656(7)
C18S C 0.5646(3) 0.5267(3) 0.02656(7)
C18H C 0.5267(3) 0.5646(3) 0.02656(7)
C18C C 0.4354(3) 0.4733(3) -0.02656(7)
C18X C 0.4733(3) 0.4354(3) -0.02656(7)
C18P C 0.5267(3) 0.5646(3) -0.02656(7)
C18Q C 0.4354(3) 0.5267(3) -0.02656(7)
C18R C 0.5646(3) 0.4733(3) -0.02656(7)
C18I C 0.5267(3) 0.4354(3) -0.02656(7)
C18J C 0.4733(3) 0.5646(3) -0.02656(7)
C18K C 0.5646(3) 0.5267(3) -0.02656(7)
H11K H 0.6100 0.5448 -0.0184
H11P H 0.5448 0.6100 -0.0184
H11J H 0.4552 0.6100 -0.0184
H11Q H 0.3900 0.5448 -0.0184
H11C H 0.3900 0.4552 -0.0184
H11X H 0.4552 0.3900 -0.0184
C19C C 0.5000 0.5000 -0.01379(6)
loop_
_geom_bond_atom_site_label_1
_geom_bond_atom_site_label_2
_geom_bond_site_symmetry_1
_geom_bond_site_symmetry_2
Zn1 N1 1_555 1_555
Zn2 O1 1_555 1_555
Zn3 O2 1_555 1_555
O1 C6 1_555 1_555
O2 C6 1_555 1_555
N1 C1 1_555 1_555
C1 C2 1_555 1_555
C2 H1 1_555 1_555
C3 C1 1_555 1_555
C4 C3 1_555 1_555
C5 C6 1_555 1_555
C7 C4 1_555 1_555
H2 C7 1_555 1_555
C8 C5 1_555 1_555
H3 C8 1_555 1_555
C9 C5 1_555 1_555
H4 C9 1_555 1_555
C10 C4 1_555 1_555
H5 C10 1_555 1_555
N2 Zn1 1_555 1_555
N3 Zn2 1_555 1_555
C11 C12 1_555 1_555
C12 C15 1_555 1_555
C13 N2 1_555 1_555
H6 C13 1_555 1_555
C14 C11 1_555 1_555
H7 C14 1_555 1_555
C15 H8 1_555 1_555
C16 N3 1_555 1_555
H9 C16 1_555 1_555
N4 Zn3 1_555 1_555
C17 N4 1_555 1_555
H10 C17 1_555 1_555
C18 C17 1_555 1_555
H11 C18 1_555 1_555
C19 C18 1_555 1_555
Zn1G N2G 1_555 1_555
Zn1C N1X 1_555 1_555
Zn2G N3G 1_555 1_555
Zn2_2 O1S_2 1_555 1_555
Zn2_3 O1A_2 1_555 1_555
Zn2_4 O1B_2 1_555 1_555
Zn2C O1C 1_555 1_555
Zn2C_2 O1R 1_555 1_555
Zn2C_3 O1Q_2 1_555 1_555
Zn2C_4 O1P 1_555 1_555
Zn3_2 O2S_2 1_555 1_555
Zn3_3 O2A_2 1_555 1_555
Zn3C O2C 1_555 1_555
Zn3_4 O2B_2 1_555 1_555
Zn3C_2 O2R_2 1_555 1_555
Zn3C_3 O2Q_2 1_555 1_555
Zn3C_4 O2P_2 1_555 1_555
O1A Zn2 1_555 1_555
O1B Zn2 1_555 1_555
O1S Zn2 1_555 1_555
O1A_2 C6A 1_555 1_555
O1S_2 C6S 1_555 1_555
O1B_2 C6B 1_555 1_555
O1C C6C 1_555 1_555
O1Q Zn2C 1_555 1_555
O1R C6R 1_555 1_555
O1Q_2 C6Q_2 1_555 1_555
O1P C6P 1_555 1_555
O1P_2 Zn2C 1_555 1_555
O1R_2 Zn2C 1_555 1_555
O2A Zn3 1_555 1_555
O2B Zn3 1_555 1_555
O2S Zn3 1_555 1_555
O2A_2 C6A 1_555 1_555
O2S_2 C6S 1_555 1_555
O2B_2 C6B 1_555 1_555
O2C C6C 1_555 1_555
O2P Zn3C 1_555 1_555
O2Q Zn3C 1_555 1_555
O2R Zn3C 1_555 1_555
O2R_2 C6R 1_555 1_555
O2Q_2 C6Q_2 1_555 1_555
O2P_2 C6P 1_555 1_555
N1A Zn1 1_555 1_555
N1B Zn1 1_555 1_555
N1Z Zn1 1_555 1_555
N1X C1X 1_555 1_555
N1C Zn1C 1_555 1_555
N1P Zn1C 1_555 1_555
N1Q Zn1C 1_555 1_555
C1Y N1 1_555 1_555
C1AA C3 1_555 1_555
C1A N1A 1_555 1_555
C1B N1B 1_555 1_555
C1Z N1Z 1_555 1_555
C1H N1Z 1_555 1_555
C1S N1B 1_555 1_555
C1C N1C 1_555 1_555
C1X C2X 1_555 1_555
C1J N1X 1_555 1_555
C1R N1C 1_555 1_555
C1I N1P 1_555 1_555
C1Q N1Q 1_555 1_555
C1K N1Q 1_555 1_555
C1P N1P 1_555 1_555
C2Y C2 1_555 1_555
C2AA C1AA 1_555 1_555
C2A C1A 1_555 1_555
C2B C1B 1_555 1_555
C2S C1S 1_555 1_555
C2Z C1Z 1_555 1_555
C2H C1H 1_555 1_555
C2X C2J 1_555 1_555
C2C C1C 1_555 1_555
C2J C1J 1_555 1_555
C2R C1R 1_555 1_555
C2Q C1Q 1_555 1_555
C2K C1K 1_555 1_555
C2P C1P 1_555 1_555
H1Y C2Y 1_555 1_555
H1AA C2AA 1_555 1_555
H1A C2A 1_555 1_555
H1B C2B 1_555 1_555
H1S C2S 1_555 1_555
H1Z C2Z 1_555 1_555
H1X C2X 1_555 1_555
H1C C2C 1_555 1_555
H1J C2J 1_555 1_555
H1R C2R 1_555 1_555
H1Q C2Q 1_555 1_555
H1K C2K 1_555 1_555
C3B C1Y 1_555 1_555
C3A C1A 1_555 1_555
C3S C1H 1_555 1_555
C3C C1C 1_555 1_555
C3Q C1J 1_555 1_555
C3R C1R 1_555 1_555
C3P C1K 1_555 1_555
C4B C3B 1_555 1_555
C4A C3A 1_555 1_555
C4S C3S 1_555 1_555
C4C C3C 1_555 1_555
C4R C3R 1_555 1_555
C4Q C3Q 1_555 1_555
C4P C3P 1_555 1_555
C5B C6B 1_555 1_555
C5A C6A 1_555 1_555
C5S C6S 1_555 1_555
C5C C6C 1_555 1_555
C5Q C6Q 1_555 1_555
C5Q_2 C6Q_2 1_555 1_555
C5R C6R 1_555 1_555
C5P C6P 1_555 1_555
C6Q O1Q 1_555 1_555
C7AA C4 1_555 1_555
C7B C4B 1_555 1_555
C7Y C4B 1_555 1_555
C7A C4A 1_555 1_555
C7Z C4A 1_555 1_555
C7S C4S 1_555 1_555
C7H C4S 1_555 1_555
C7C C4C 1_555 1_555
C7X C4C 1_555 1_555
C7Q C4Q 1_555 1_555
C7J C4Q 1_555 1_555
C7P C4P 1_555 1_555
C7K C4P 1_555 1_555
C7R C4R 1_555 1_555
C7I C4R 1_555 1_555
H2AA C7 1_555 1_555
H2B C7Y 1_555 1_555
H2Y C7Y 1_555 1_555
H2A C7A 1_555 1_555
H2Z C7A 1_555 1_555
H2S C7S 1_555 1_555
H2H C7S 1_555 1_555
H2C C7C 1_555 1_555
H2X C7C 1_555 1_555
H2Q C7Q 1_555 1_555
H2J C7Q 1_555 1_555
H2R C7R 1_555 1_555
H2I C7R 1_555 1_555
H2P C7P 1_555 1_555
H2K C7P 1_555 1_555
C8AA C5 1_555 1_555
C8B C5B 1_555 1_555
C8Y C5B 1_555 1_555
C8A C5A 1_555 1_555
C8Z C5A 1_555 1_555
C8S C5S 1_555 1_555
C8H C5S 1_555 1_555
C8Q C5Q 1_555 1_555
C8J C5Q 1_555 1_555
C8C C5C 1_555 1_555
C8X C5C 1_555 1_555
C8Q_2 C5Q_2 1_555 1_555
C8J_2 C5Q_2 1_555 1_555
C8R C5R 1_555 1_555
C8I C5R 1_555 1_555
C8P C5P 1_555 1_555
C8K C5P 1_555 1_555
H3AA C8 1_555 1_555
H3B C8B 1_555 1_555
H3Y C8B 1_555 1_555
H3A C8A 1_555 1_555
H3Z C8A 1_555 1_555
H3S C8S 1_555 1_555
H3H C8S 1_555 1_555
H3C C8C 1_555 1_555
H3X C8C 1_555 1_555
H3Q C8J_2 1_555 1_555
H3J C8J_2 1_555 1_555
H3R C8R 1_555 1_555
H3I C8R 1_555 1_555
H3P C8P 1_555 1_555
H3K C8P 1_555 1_555
C9AA C5 1_555 1_555
C9B C5B 1_555 1_555
C9Y C5B 1_555 1_555
C9A C5A 1_555 1_555
C9Z C5A 1_555 1_555
C9S C5S 1_555 1_555
C9H C5S 1_555 1_555
C9Q C5Q 1_555 1_555
C9J C5Q 1_555 1_555
C9C C5C 1_555 1_555
C9X C5C 1_555 1_555
C9P C5P 1_555 1_555
C9K C5P 1_555 1_555
C9Q_2 C5Q_2 1_555 1_555
C9J_2 C5Q_2 1_555 1_555
C9R C5R 1_555 1_555
C9I C5R 1_555 1_555
H4AA C9 1_555 1_555
H4B C9B 1_555 1_555
H4Y C9B 1_555 1_555
H4A C9A 1_555 1_555
H4Z C9A 1_555 1_555
H4S C9S 1_555 1_555
H4H C9S 1_555 1_555
H4C C9C 1_555 1_555
H4X C9C 1_555 1_555
H4R C9R 1_555 1_555
H4I C9R 1_555 1_555
H4Q C9Q_2 1_555 1_555
H4J C9Q_2 1_555 1_555
H4P C9P 1_555 1_555
H4K C9P 1_555 1_555
C10AA C4 1_555 1_555
C10B C4B 1_555 1_555
C10Y C4B 1_555 1_555
C10A C4A 1_555 1_555
C10Z C4A 1_555 1_555
C10S C4S 1_555 1_555
C10H C4S 1_555 1_555
C10C C4C 1_555 1_555
C10X C4C 1_555 1_555
C10Q C4Q 1_555 1_555
C10J C4Q 1_555 1_555
C10P C4P 1_555 1_555
C10K C4P 1_555 1_555
C10R C4R 1_555 1_555
C10I C4R 1_555 1_555
H5AA C10 1_555 1_555
H5B C10B 1_555 1_555
H5Y C10B 1_555 1_555
H5A C10A 1_555 1_555
H5Z C10A 1_555 1_555
H5S C10S 1_555 1_555
H5H C10S 1_555 1_555
H5C C10C 1_555 1_555
H5X C10C 1_555 1_555
H5P C10K 1_555 1_555
H5K C10K 1_555 1_555
H5R C10R 1_555 1_555
H5I C10R 1_555 1_555
H5Q C10Q 1_555 1_555
H5J C10Q 1_555 1_555
N2G C13G 1_555 1_555
N2C Zn1C 1_555 1_555
N3G C16G 1_555 1_555
N3C Zn2C 1_555 1_555
C11G C12G 1_555 1_555
C11C C12C 1_555 1_555
C12G C15G 1_555 1_555
C13A N2 1_555 1_555
C13B N2 1_555 1_555
C13Y N2 1_555 1_555
C13Z N2 1_555 1_555
C13AA N2 1_555 1_555
C13S N2 1_555 1_555
C13H N2 1_555 1_555
C13G C13BA 1_555 1_555
C13BA N2G 1_555 1_555
C13U N2G 1_555 1_555
C13V N2G 1_555 1_555
C13M N2G 1_555 1_555
C13O N2G 1_555 1_555
C13T N2G 1_555 1_555
C13N N2G 1_555 1_555
C13C N2C 1_555 1_555
C13X N2C 1_555 1_555
C13P N2C 1_555 1_555
C13Q N2C 1_555 1_555
C13R N2C 1_555 1_555
C13I N2C 1_555 1_555
C13J N2C 1_555 1_555
C13K N2C 1_555 1_555
H6Z C13 1_555 1_555
H6V C13O 1_555 1_555
H6O C13O 1_555 1_555
H6T C13N 1_555 1_555
H6N C13N 1_555 1_555
H6BA C13BA 1_555 1_555
H6M C13BA 1_555 1_555
H6G C13G 1_555 1_555
H6U C13G 1_555 1_555
H6P C13P 1_555 1_555
H6J C13P 1_555 1_555
H6R C13R 1_555 1_555
H6K C13R 1_555 1_555
H6X C13X 1_555 1_555
H6I C13X 1_555 1_555
C14A C11 1_555 1_555
C14B C11 1_555 1_555
C14Y C11 1_555 1_555
C14Z C11 1_555 1_555
C14AA C11 1_555 1_555
C14S C11 1_555 1_555
C14H C11 1_555 1_555
C14G C11G 1_555 1_555
C14BA C11G 1_555 1_555
C14T C11G 1_555 1_555
C14U C11G 1_555 1_555
C14V C11G 1_555 1_555
C14M C11G 1_555 1_555
C14N C11G 1_555 1_555
C14O C11G 1_555 1_555
C14P C11C 1_555 1_555
C14J C11C 1_555 1_555
C14K C11C 1_555 1_555
C14R C11C 1_555 1_555
C14I C11C 1_555 1_555
C14X C11C 1_555 1_555
C14C C11C 1_555 1_555
C14Q C11C 1_555 1_555
H7G C14G 1_555 1_555
H7M C14M 1_555 1_555
H7V C14V 1_555 1_555
H7T C14T 1_555 1_555
H7X C14X 1_555 1_555
H7I C14I 1_555 1_555
H7R C14R 1_555 1_555
H7K C14K 1_555 1_555
H7P C14P 1_555 1_555
C15A C12 1_555 1_555
C15B C12 1_555 1_555
C15Y C12 1_555 1_555
C15Z C12 1_555 1_555
C15AA C12 1_555 1_555
C15S C12 1_555 1_555
C15H C12 1_555 1_555
C15G C16 1_555 1_555
C15V C16 1_555 1_555
C15BA C16 1_555 1_555
C15T C12G 1_555 1_555
C15U C12G 1_555 1_555
C15O C12G 1_555 1_555
C15M C12G 1_555 1_555
C15N C12G 1_555 1_555
H8S C15S 1_555 1_555
H8H C15H 1_555 1_555
H8G C15G 1_555 1_555
H8V C15V 1_555 1_555
H8T C15T 1_555 1_555
C16B N3 1_555 1_555
C16A N3 1_555 1_555
C16Z N3 1_555 1_555
C16Y N3 1_555 1_555
C16AA N3 1_555 1_555
C16S N3 1_555 1_555
C16H N3 1_555 1_555
C16G C15 1_555 1_555
C16U C15 1_555 1_555
C16BA C15 1_555 1_555
C16T N3G 1_555 1_555
C16N N3G 1_555 1_555
C16O N3G 1_555 1_555
C16V N3G 1_555 1_555
C16M N3G 1_555 1_555
H9U C16U 1_555 1_555
H9BA C16BA 1_555 1_555
H9T C16T 1_555 1_555
H9O C16O 1_555 1_555
H9H C16H 1_555 1_555
H9Y C16Y 1_555 1_555
N4C Zn3C 1_555 1_555
C17A N4 1_555 1_555
C17B N4 1_555 1_555
C17Y N4 1_555 1_555
C17Z N4 1_555 1_555
C17AA N4 1_555 1_555
C17S N4 1_555 1_555
C17H N4 1_555 1_555
C17P N4C 1_555 1_555
C17R N4C 1_555 1_555
C17K N4C 1_555 1_555
C17J N4C 1_555 1_555
C17Q N4C 1_555 1_555
C17C N4C 1_555 1_555
C17X N4C 1_555 1_555
C17I N4C 1_555 1_555
H10P C17P 1_555 1_555
H10J C17J 1_555 1_555
H10Q C17Q 1_555 1_555
H10C C17C 1_555 1_555
H10X C17X 1_555 1_555
C18Z C17 1_555 1_555
C18AA C17 1_555 1_555
C18A C18 1_555 1_555
C18B C18 1_555 1_555
C18Y C19 1_555 1_555
C18S C19 1_555 1_555
C18H C19 1_555 1_555
C18C C17Q 1_555 1_555
C18X C17C 1_555 1_555
C18P C17P 1_555 1_555
C18Q C17J 1_555 1_555
C18R C18X 1_555 1_555
C18I C17X 1_555 1_555
C18J C17P 1_555 1_555
C18K C17P 1_555 1_555
H11K C18K 1_555 1_555
H11P C18P 1_555 1_555
H11J C18J 1_555 1_555
H11Q C18Q 1_555 1_555
H11C C18C 1_555 1_555
H11X C18X 1_555 1_555
C19C C19 1_555 1_555
C7 C8 1_555 1_555
C7 C7AA 1_555 1_555
C7 C8AA 1_555 1_555
H2 C7AA 1_555 1_555
H2 H2AA 1_555 1_555
C8 C7AA 1_555 1_555
C8 C8AA 1_555 1_555
H3 C8AA 1_555 1_555
C9 C10 1_555 1_555
C9 C9AA 1_555 1_555
C9 C10AA 1_555 1_555
H4 C9AA 1_555 1_555
H4 H4AA 1_555 1_555
C10 C9AA 1_555 1_555
C10 C10AA 1_555 1_555
H5 C10AA 1_555 1_555
H5 H5AA 1_555 1_555
C13 C14 1_555 1_555
C13 C13A 1_555 1_555
C13 C13B 1_555 1_555
C13 C13Z 1_555 1_555
C13 C13AA 1_555 1_555
C13 C14Z 1_555 1_555
C13 C14AA 1_555 1_555
H6 C13Z 1_555 1_555
C14 C13Z 1_555 1_555
C14 C13AA 1_555 1_555
C14 C14A 1_555 1_555
C14 C14B 1_555 1_555
C14 C14Z 1_555 1_555
C14 C14AA 1_555 1_555
C15 C15A 1_555 1_555
C15 C15B 1_555 1_555
C15 C15Y 1_555 1_555
C15 C15AA 1_555 1_555
C16 C16B 1_555 1_555
C16 C16A 1_555 1_555
C16 C16Z 1_555 1_555
C16 C16AA 1_555 1_555
C17 C17A 1_555 1_555
C17 C17B 1_555 1_555
C17 C17Z 1_555 1_555
C17 C17AA 1_555 1_555
C18 C17Z 1_555 1_555
C18 C17AA 1_555 1_555
C18 C18Z 1_555 1_555
C18 C18AA 1_555 1_555
C19 C18Z 1_555 1_555
C19 C18AA 1_555 1_555
C19 C18A 1_555 1_555
C19 C18B 1_555 1_555
O2Q C6Q 1_555 1_555
N1A C1AA 1_555 1_555
C1Y C2Y 1_555 1_555
C1B C3B 1_555 1_555
C1Z C3A 1_555 1_555
C1S C3S 1_555 1_555
C1X C3C 1_555 1_555
C1I C3R 1_555 1_555
C1Q C3Q 1_555 1_555
C1P C3P 1_555 1_555
C2AA C2A 1_555 1_555
C2B C2S 1_555 1_555
C2Z C2H 1_555 1_555
C2C C2R 1_555 1_555
C2Q C2K 1_555 1_555
C7AA H2AA 1_555 1_555
C7AA C8AA 1_555 1_555
C7B C7Y 1_555 1_555
C7B C8B 1_555 1_555
C7B C8Y 1_555 1_555
C7Y C8B 1_555 1_555
C7Y C8Y 1_555 1_555
C7A C7Z 1_555 1_555
C7A C8A 1_555 1_555
C7A C8Z 1_555 1_555
C7Z H2A 1_555 1_555
C7Z H2Z 1_555 1_555
C7Z C8A 1_555 1_555
C7Z C8Z 1_555 1_555
C7S C7H 1_555 1_555
C7S C8S 1_555 1_555
C7S C8H 1_555 1_555
C7H H2S 1_555 1_555
C7H H2H 1_555 1_555
C7H C8S 1_555 1_555
C7H C8H 1_555 1_555
C7C C7X 1_555 1_555
C7C C8C 1_555 1_555
C7C C8X 1_555 1_555
C7X H2C 1_555 1_555
C7X H2X 1_555 1_555
C7X C8C 1_555 1_555
C7X C8X 1_555 1_555
C7Q C7J 1_555 1_555
C7Q C8Q_2 1_555 1_555
C7Q C8J_2 1_555 1_555
C7J H2Q 1_555 1_555
C7J H2J 1_555 1_555
C7J C8Q_2 1_555 1_555
C7J C8J_2 1_555 1_555
C7P C7K 1_555 1_555
C7P C8P 1_555 1_555
C7P C8K 1_555 1_555
C7K H2P 1_555 1_555
C7K H2K 1_555 1_555
C7K C8P 1_555 1_555
C7K C8K 1_555 1_555
C7R C7I 1_555 1_555
C7R C8R 1_555 1_555
C7R C8I 1_555 1_555
C7I H2R 1_555 1_555
C7I H2I 1_555 1_555
C7I C8R 1_555 1_555
C7I C8I 1_555 1_555
C8AA H3AA 1_555 1_555
C8B C8Y 1_555 1_555
C8Y H3B 1_555 1_555
C8Y H3Y 1_555 1_555
C8A C8Z 1_555 1_555
C8Z H3A 1_555 1_555
C8Z H3Z 1_555 1_555
C8S C8H 1_555 1_555
C8H H3S 1_555 1_555
C8H H3H 1_555 1_555
C8C C8X 1_555 1_555
C8X H3C 1_555 1_555
C8X H3X 1_555 1_555
C8Q_2 C8J_2 1_555 1_555
C8R C8I 1_555 1_555
C8I H3R 1_555 1_555
C8I H3I 1_555 1_555
C8P C8K 1_555 1_555
C8K H3P 1_555 1_555
C8K H3K 1_555 1_555
C9AA H4AA 1_555 1_555
C9AA C10AA 1_555 1_555
C9B C9Y 1_555 1_555
C9B C10B 1_555 1_555
C9B C10Y 1_555 1_555
C9Y H4B 1_555 1_555
C9Y H4Y 1_555 1_555
C9Y C10B 1_555 1_555
C9Y C10Y 1_555 1_555
C9A C9Z 1_555 1_555
C9A C10A 1_555 1_555
C9A C10Z 1_555 1_555
C9Z H4A 1_555 1_555
C9Z H4Z 1_555 1_555
C9Z C10A 1_555 1_555
C9Z C10Z 1_555 1_555
C9S C9H 1_555 1_555
C9S C10S 1_555 1_555
C9S C10H 1_555 1_555
C9H C10S 1_555 1_555
C9H C10H 1_555 1_555
C9C C9X 1_555 1_555
C9C C10C 1_555 1_555
C9C C10X 1_555 1_555
C9X H4C 1_555 1_555
C9X H4X 1_555 1_555
C9X C10C 1_555 1_555
C9X C10X 1_555 1_555
C9P C9K 1_555 1_555
C9P C10P 1_555 1_555
C9P C10K 1_555 1_555
C9K H4P 1_555 1_555
C9K H4K 1_555 1_555
C9K C10P 1_555 1_555
C9K C10K 1_555 1_555
C9Q_2 C9J_2 1_555 1_555
C9Q_2 C10Q 1_555 1_555
C9Q_2 C10J 1_555 1_555
C9J_2 H4Q 1_555 1_555
C9J_2 H4J 1_555 1_555
C9J_2 C10Q 1_555 1_555
C9J_2 C10J 1_555 1_555
C9R C9I 1_555 1_555
C9R C10R 1_555 1_555
C9R C10I 1_555 1_555
C9I H4R 1_555 1_555
C9I H4I 1_555 1_555
C9I C10R 1_555 1_555
C9I C10I 1_555 1_555
H4A H4Z 1_555 1_555
C10AA H5AA 1_555 1_555
C10B C10Y 1_555 1_555
C10Y H5B 1_555 1_555
C10Y H5Y 1_555 1_555
C10A C10Z 1_555 1_555
C10S C10H 1_555 1_555
C10H H5S 1_555 1_555
C10H H5H 1_555 1_555
C10C C10X 1_555 1_555
C10Q C10J 1_555 1_555
C10J H5Q 1_555 1_555
C10J H5J 1_555 1_555
C10P C10K 1_555 1_555
C10R C10I 1_555 1_555
C10I H5R 1_555 1_555
C10I H5I 1_555 1_555
N3G C16U 1_555 1_555
N3G C16BA 1_555 1_555
C12G C15V 1_555 1_555
C12G C15BA 1_555 1_555
C13A C13Z 1_555 1_555
C13A C13S 1_555 1_555
C13A C13H 1_555 1_555
C13A C14A 1_555 1_555
C13A C14Z 1_555 1_555
C13A C14S 1_555 1_555
C13B C13Y 1_555 1_555
C13B C13AA 1_555 1_555
C13B C13H 1_555 1_555
C13B C14B 1_555 1_555
C13B C14Y 1_555 1_555
C13B C14AA 1_555 1_555
C13Y C13AA 1_555 1_555
C13Y C13S 1_555 1_555
C13Y C13H 1_555 1_555
C13Y C14B 1_555 1_555
C13Y C14Y 1_555 1_555
C13Y C14H 1_555 1_555
C13Z C13AA 1_555 1_555
C13Z C13S 1_555 1_555
C13Z H6Z 1_555 1_555
C13Z C14A 1_555 1_555
C13Z C14Z 1_555 1_555
C13AA C14B 1_555 1_555
C13AA C14AA 1_555 1_555
C13S C13H 1_555 1_555
C13S C14A 1_555 1_555
C13S C14S 1_555 1_555
C13S C14H 1_555 1_555
C13H C14Y 1_555 1_555
C13H C14S 1_555 1_555
C13H C14H 1_555 1_555
C13G C13U 1_555 1_555
C13G C13M 1_555 1_555
C13G C13N 1_555 1_555
C13G C14G 1_555 1_555
C13G C14BA 1_555 1_555
C13G C14U 1_555 1_555
C13BA C13U 1_555 1_555
C13BA C13V 1_555 1_555
C13BA C13M 1_555 1_555
C13BA C14G 1_555 1_555
C13BA C14BA 1_555 1_555
C13BA C14M 1_555 1_555
C13U C13T 1_555 1_555
C13U C13N 1_555 1_555
C13U H6G 1_555 1_555
C13U H6U 1_555 1_555
C13U C14G 1_555 1_555
C13U C14U 1_555 1_555
C13U C14N 1_555 1_555
C13V C13M 1_555 1_555
C13V C13O 1_555 1_555
C13V C14V 1_555 1_555
C13V C14M 1_555 1_555
C13M C13O 1_555 1_555
C13M H6BA 1_555 1_555
C13M H6M 1_555 1_555
C13M C14BA 1_555 1_555
C13M C14V 1_555 1_555
C13M C14M 1_555 1_555
C13O C13T 1_555 1_555
C13O C13N 1_555 1_555
C13O C14T 1_555 1_555
C13O C14V 1_555 1_555
C13O C14O 1_555 1_555
C13T C13N 1_555 1_555
C13T C14T 1_555 1_555
C13N C14T 1_555 1_555
C13N C14U 1_555 1_555
C13N C14N 1_555 1_555
C13C C13X 1_555 1_555
C13C C13I 1_555 1_555
C13C C14X 1_555 1_555
C13X C13Q 1_555 1_555
C13X C13R 1_555 1_555
C13X C13I 1_555 1_555
C13X C14I 1_555 1_555
C13X C14X 1_555 1_555
C13X C14C 1_555 1_555
C13P C13Q 1_555 1_555
C13P C13R 1_555 1_555
C13P C13J 1_555 1_555
C13P C13K 1_555 1_555
C13P C14P 1_555 1_555
C13P C14J 1_555 1_555
C13P C14K 1_555 1_555
C13R C13I 1_555 1_555
C13R C13K 1_555 1_555
C13R C14K 1_555 1_555
C13R C14R 1_555 1_555
C13R C14I 1_555 1_555
C13I C13K 1_555 1_555
C13I H6X 1_555 1_555
C13I H6I 1_555 1_555
C13I C14R 1_555 1_555
C13I C14I 1_555 1_555
C13I C14X 1_555 1_555
C13J C13K 1_555 1_555
C13J C14P 1_555 1_555
C13K H6R 1_555 1_555
C13K H6K 1_555 1_555
C13K C14P 1_555 1_555
C13K C14K 1_555 1_555
C13K C14R 1_555 1_555
C14A C14Z 1_555 1_555
C14A C14S 1_555 1_555
C14A C14H 1_555 1_555
C14B C14Y 1_555 1_555
C14B C14AA 1_555 1_555
C14B C14H 1_555 1_555
C14Y C14AA 1_555 1_555
C14Y C14S 1_555 1_555
C14Y C14H 1_555 1_555
C14Z C14AA 1_555 1_555
C14Z C14S 1_555 1_555
C14S C14H 1_555 1_555
C14G C14BA 1_555 1_555
C14G C14U 1_555 1_555
C14G C14M 1_555 1_555
C14G C14N 1_555 1_555
C14BA C14V 1_555 1_555
C14BA C14M 1_555 1_555
C14T C14U 1_555 1_555
C14T C14V 1_555 1_555
C14T C14N 1_555 1_555
C14T C14O 1_555 1_555
C14V C14M 1_555 1_555
C14V C14O 1_555 1_555
C14M C14O 1_555 1_555
C14P C14J 1_555 1_555
C14P C14K 1_555 1_555
C14P C14R 1_555 1_555
C14P C14Q 1_555 1_555
C14J C14K 1_555 1_555
C14K C14R 1_555 1_555
C14K C14I 1_555 1_555
C14R C14I 1_555 1_555
C14R C14X 1_555 1_555
C14I C14X 1_555 1_555
C14I C14C 1_555 1_555
C14X C14C 1_555 1_555
C14X C14Q 1_555 1_555
C15A C15Z 1_555 1_555
C15A C15AA 1_555 1_555
C15A C15H 1_555 1_555
C15A C16BA 1_555 1_555
C15B C15Y 1_555 1_555
C15B C15S 1_555 1_555
C15B C15H 1_555 1_555
C15B C16U 1_555 1_555
C15B C16T 1_555 1_555
C15Y C15AA 1_555 1_555
C15Y C15S 1_555 1_555
C15Y C16G 1_555 1_555
C15Y C16U 1_555 1_555
C15Z C15AA 1_555 1_555
C15Z C15S 1_555 1_555
C15Z C15H 1_555 1_555
C15Z C16O 1_555 1_555
C15AA C16G 1_555 1_555
C15AA C16BA 1_555 1_555
C15S C15H 1_555 1_555
C15S C16T 1_555 1_555
C15S C16N 1_555 1_555
C15S C16O 1_555 1_555
C15H C16T 1_555 1_555
C15H C16O 1_555 1_555
C15H C16V 1_555 1_555
C15G C15V 1_555 1_555
C15G C15BA 1_555 1_555
C15G C15M 1_555 1_555
C15G C15N 1_555 1_555
C15G C16Z 1_555 1_555
C15G C16AA 1_555 1_555
C15V C15BA 1_555 1_555
C15V C15T 1_555 1_555
C15V C15M 1_555 1_555
C15V C16A 1_555 1_555
C15V C16Z 1_555 1_555
C15BA C16B 1_555 1_555
C15BA C16AA 1_555 1_555
C15T C15U 1_555 1_555
C15T C15O 1_555 1_555
C15T C15M 1_555 1_555
C15T C16A 1_555 1_555
C15T C16S 1_555 1_555
C15T C16H 1_555 1_555
C15U C16Y 1_555 1_555
C15U C16H 1_555 1_555
C15O C16Y 1_555 1_555
C15O C16H 1_555 1_555
C15N C16Y 1_555 1_555
C16B C16Y 1_555 1_555
C16B C16AA 1_555 1_555
C16B C16H 1_555 1_555
C16A C16Z 1_555 1_555
C16A C16S 1_555 1_555
C16A C16H 1_555 1_555
C16Z C16AA 1_555 1_555
C16Z C16S 1_555 1_555
C16Y C16AA 1_555 1_555
C16Y C16S 1_555 1_555
C16Y C16H 1_555 1_555
C16S C16H 1_555 1_555
C16G C16U 1_555 1_555
C16G C16BA 1_555 1_555
C16U C16BA 1_555 1_555
C16U C16T 1_555 1_555
C16U C16N 1_555 1_555
C16BA C16V 1_555 1_555
C16BA C16M 1_555 1_555
C16T C16N 1_555 1_555
C16T C16O 1_555 1_555
C16T C16V 1_555 1_555
C16N C16O 1_555 1_555
C16O C16V 1_555 1_555
C16O C16M 1_555 1_555
C17A C17Z 1_555 1_555
C17A C17S 1_555 1_555
C17A C17H 1_555 1_555
C17A C18Z 1_555 1_555
C17A C18A 1_555 1_555
C17A C18S 1_555 1_555
C17B C17Y 1_555 1_555
C17B C17AA 1_555 1_555
C17B C17H 1_555 1_555
C17B C18AA 1_555 1_555
C17B C18B 1_555 1_555
C17B C18Y 1_555 1_555
C17Y C17AA 1_555 1_555
C17Y C17S 1_555 1_555
C17Y C17H 1_555 1_555
C17Y C18B 1_555 1_555
C17Y C18Y 1_555 1_555
C17Y C18H 1_555 1_555
C17Z C17AA 1_555 1_555
C17Z C17S 1_555 1_555
C17Z C18Z 1_555 1_555
C17Z C18A 1_555 1_555
C17AA C18AA 1_555 1_555
C17AA C18B 1_555 1_555
C17S C17H 1_555 1_555
C17S C18A 1_555 1_555
C17S C18S 1_555 1_555
C17S C18H 1_555 1_555
C17H C18Y 1_555 1_555
C17H C18S 1_555 1_555
C17H C18H 1_555 1_555
C17P C17R 1_555 1_555
C17P C17K 1_555 1_555
C17P C17J 1_555 1_555
C17P C17Q 1_555 1_555
C17R C17X 1_555 1_555
C17R C18K 1_555 1_555
C17K C17J 1_555 1_555
C17K C18P 1_555 1_555
C17K C18K 1_555 1_555
C17J C17Q 1_555 1_555
C17J C17C 1_555 1_555
C17J C18P 1_555 1_555
C17J C18J 1_555 1_555
C17Q C17C 1_555 1_555
C17Q C17X 1_555 1_555
C17Q C18Q 1_555 1_555
C17Q C18J 1_555 1_555
C17C C17X 1_555 1_555
C17C C17I 1_555 1_555
C17C C18C 1_555 1_555
C17C C18Q 1_555 1_555
C17X C17I 1_555 1_555
C17X C18C 1_555 1_555
C17X C18X 1_555 1_555
C17I C18X 1_555 1_555
C18Z C18AA 1_555 1_555
C18Z C18A 1_555 1_555
C18Z C18S 1_555 1_555
C18AA C18B 1_555 1_555
C18AA C18Y 1_555 1_555
C18A C18S 1_555 1_555
C18A C18H 1_555 1_555
C18B C18Y 1_555 1_555
C18B C18H 1_555 1_555
C18Y C18S 1_555 1_555
C18Y C18H 1_555 1_555
C18S C18H 1_555 1_555
C18C C18X 1_555 1_555
C18C C18Q 1_555 1_555
C18C C18I 1_555 1_555
C18C C18J 1_555 1_555
C18C C19C 1_555 1_555
C18X C18Q 1_555 1_555
C18X C18I 1_555 1_555
C18X C19C 1_555 1_555
C18P C18Q 1_555 1_555
C18P C18R 1_555 1_555
C18P C18J 1_555 1_555
C18P C18K 1_555 1_555
C18P C19C 1_555 1_555
C18Q C18J 1_555 1_555
C18Q C19C 1_555 1_555
C18R C18K 1_555 1_555
C18R C19C 1_555 1_555
C18I C18K 1_555 1_555
C18I C19C 1_555 1_555
C18J C18K 1_555 1_555
C18J C19C 1_555 1_555
C18K C19C 1_555 1_555

#END
