
#######################################################################
#
#                 Cambridge Crystallographic Data Centre
#                                CCDC 
#
#######################################################################
#
# If this CIF has been generated from an entry in the Cambridge 
# Structural Database, then it will include bibliographic, chemical, 
# crystal, experimental, refinement or atomic coordinate data resulting 
# from the CCDC's data processing and validation procedures.
#
#######################################################################

data_OMOVUJ
_chemical_formula_moiety         '(C54 H30 N18 O24 S3 Zn8 2-)n'
_symmetry_cell_setting           trigonal
_symmetry_space_group_name_H-M   'P -3 c 1'
_symmetry_Int_Tables_number      165
_space_group_name_Hall           '-P 3 2"c'
loop_
_symmetry_equiv_pos_site_id
_symmetry_equiv_pos_as_xyz
1 x,y,z
2 -y,x-y,z
3 -x+y,-x,z
4 x-y,-y,1/2-z
5 -x,-x+y,1/2-z
6 y,x,1/2-z
7 -x,-y,-z
8 y,-x+y,-z
9 x-y,x,-z
10 -x+y,y,1/2+z
11 x,x-y,1/2+z
12 -y,-x,1/2+z
_cell_length_a                   16.2940(9)
_cell_length_b                   16.2940(9)
_cell_length_c                   31.7520(18)
_cell_angle_alpha                90
_cell_angle_beta                 90
_cell_angle_gamma                120
_cell_volume                     7300.58
loop_
_atom_site_label
_atom_site_type_symbol
_atom_site_fract_x
_atom_site_fract_y
_atom_site_fract_z
_atom_site_U_iso_or_equiv
_atom_site_thermal_displace_type
C1 C 0.8230(5) 0.9996(5) 0.33392(18) 0.0486 Uani
C2 C 0.7973(5) 1.0000(6) 0.28837(19) 0.0584 Uani
C3 C 0.7225(7) 1.0003(10) 0.2721(2) 0.1123 Uani
H1 H 0.6752 1.0009 0.2883 0.1350 Uiso
C4 C 0.9509(6) 1.1892(5) 0.4540(2) 0.0618 Uani
H2 H 0.9116 1.2079 0.4668 0.0740 Uiso
C5 C 1.0483(6) 1.2383(5) 0.4540(2) 0.0624 Uani
H3 H 1.0873 1.2967 0.4667 0.0750 Uiso
C6 C 1.3463(11) 1.3456(11) 0.4581(3) 0.1307 Uani
C7 C 1.4242(8) 1.4248(8) 0.4802(3) 0.1076 Uani
C8 C 1.5041(11) 1.4169(11) 0.4907(4) 0.1516 Uani
C9 C 1.4168(11) 1.5050(11) 0.4908(4) 0.1556 Uani
N1 N 0.9999(3) 1.1092(3) 0.41900(14) 0.0383 Uani
N2 N 1.0763(4) 1.1866(4) 0.43250(15) 0.0442 Uani
N3 N 0.9237(4) 1.1104(4) 0.43244(15) 0.0442 Uani
O1 O 0.7661(4) 1.0000(4) 0.35995(14) 0.0706 Uani
O2 O 0.8978(3) 1.0000(3) 0.34113(13) 0.0479 Uani
O3 O 1.2742(7) 1.3459(8) 0.4493(3) 0.1648 Uani
O4 O 1.3469(8) 1.2730(7) 0.4493(3) 0.1593 Uani
S1 S 0.87130(12) 1.0000 0.2500 0.0413 Uani
Zn1 Zn 1.0000 1.0000 0.38053(3) 0.0300 Uani
Zn2 Zn 1.20831(5) 1.20827(5) 0.42003(2) 0.0443 Uani
C1C C 0.8234(7) 1.0004(5) 0.16608(18) 0.0486 Uani
C2C C 0.7973(8) 1.0000(6) 0.21163(19) 0.0584 Uani
C3C C 0.7222(12) 0.9997(10) 0.2279(2) 0.1123 Uani
H1C H 0.6743 0.9991 0.2117 0.1350 Uiso
O1C O 0.7661(6) 1.0000(4) 0.14005(14) 0.0706 Uani
O2C O 0.8978(4) 1.0000(3) 0.15887(13) 0.0479 Uani
C6F C 1.6537(11) 1.6544(11) 0.5419(3) 0.1307 Uani
C7F C 1.5758(8) 1.5752(8) 0.5198(3) 0.1076 Uani
C8F C 1.4959(11) 1.5831(11) 0.5093(4) 0.1516 Uani
C9F C 1.5832(11) 1.4950(11) 0.5092(4) 0.1556 Uani
O3F O 1.7258(7) 1.6541(8) 0.5507(3) 0.1648 Uani
O4F O 1.6531(8) 1.7270(7) 0.5507(3) 0.1593 Uani
C1A C 1.0004(5) 0.8234(7) 0.33392(18) 0.0486 Uani
C2A C 1.0000(6) 0.7973(8) 0.28837(19) 0.0584 Uani
C3A C 0.9997(10) 0.7222(12) 0.2721(2) 0.1123 Uani
H1A H 0.9991 0.6743 0.2883 0.1350 Uiso
C4A C 0.8108(5) 0.7617(8) 0.4540(2) 0.0618 Uani
H2A H 0.7921 0.7037 0.4668 0.0740 Uiso
C5A C 0.7617(5) 0.8100(8) 0.4540(2) 0.0624 Uani
H3A H 0.7033 0.7906 0.4667 0.0750 Uiso
C6A C 0.6544(11) 1.0007(16) 0.4581(3) 0.1307 Uani
C7A C 0.5752(8) 0.9994(11) 0.4802(3) 0.1076 Uani
C8A C 0.5831(11) 1.0872(16) 0.4907(4) 0.1516 Uani
C9A C 0.4950(11) 0.9118(16) 0.4908(4) 0.1556 Uani
N1A N 0.8908(3) 0.8907(4) 0.41900(14) 0.0383 Uani
N2A N 0.8134(4) 0.8897(6) 0.43250(15) 0.0442 Uani
N3A N 0.8896(4) 0.8133(6) 0.43244(15) 0.0442 Uani
O1A O 1.0000(4) 0.7661(6) 0.35995(14) 0.0706 Uani
O2A O 1.0000(3) 0.8978(4) 0.34113(13) 0.0479 Uani
O3A O 0.6541(8) 0.9283(11) 0.4493(3) 0.1648 Uani
O4A O 0.7270(7) 1.0739(11) 0.4493(3) 0.1593 Uani
S1A S 1.0000 0.87130(12) 0.2500 0.0413 Uani
Zn2A Zn 0.79173(5) 1.00004(7) 0.42003(2) 0.0443 Uani
C1E C 0.9996(5) 0.8230(5) 0.16608(18) 0.0486 Uani
C2E C 1.0000(6) 0.7973(5) 0.21163(19) 0.0584 Uani
C3E C 1.0003(10) 0.7225(7) 0.2279(2) 0.1123 Uani
H1E H 1.0009 0.6752 0.2117 0.1350 Uiso
O1E O 1.0000(4) 0.7661(4) 0.14005(14) 0.0706 Uani
O2E O 1.0000(3) 0.8978(3) 0.15887(13) 0.0479 Uani
C6G C 0.3456(11) 0.9993(16) 0.5419(3) 0.1307 Uani
C7G C 0.4248(8) 1.0006(11) 0.5198(3) 0.1076 Uani
C8G C 0.4169(11) 0.9128(16) 0.5093(4) 0.1516 Uani
C9G C 0.5050(11) 1.0882(16) 0.5092(4) 0.1556 Uani
O3G O 0.3459(8) 1.0717(11) 0.5507(3) 0.1648 Uani
O4G O 0.2730(7) 0.9261(11) 0.5507(3) 0.1593 Uani
C1B C 1.1766(7) 1.1770(5) 0.33392(18) 0.0486 Uani
C2B C 1.2027(8) 1.2027(5) 0.28837(19) 0.0584 Uani
C3B C 1.2778(12) 1.2775(7) 0.2721(2) 0.1123 Uani
H1B H 1.3257 1.3248 0.2883 0.1350 Uiso
C4B C 1.2383(8) 1.0491(6) 0.4540(2) 0.0618 Uani
H2B H 1.2963 1.0884 0.4668 0.0740 Uiso
C5B C 1.1900(8) 0.9517(6) 0.4540(2) 0.0624 Uani
H3B H 1.2094 0.9127 0.4667 0.0750 Uiso
C6B C 0.9993(16) 0.6537(11) 0.4581(3) 0.1307 Uani
C7B C 1.0006(11) 0.5758(8) 0.4802(3) 0.1076 Uani
C8B C 0.9128(16) 0.4959(11) 0.4907(4) 0.1516 Uani
C9B C 1.0882(16) 0.5832(11) 0.4908(4) 0.1556 Uani
N1B N 1.1093(4) 1.0001(3) 0.41900(14) 0.0383 Uani
N2B N 1.1103(6) 0.9237(4) 0.43250(15) 0.0442 Uani
N3B N 1.1867(6) 1.0763(4) 0.43244(15) 0.0442 Uani
O1B O 1.2339(6) 1.2339(4) 0.35995(14) 0.0706 Uani
O2B O 1.1022(4) 1.1022(3) 0.34113(13) 0.0479 Uani
O3B O 1.0717(11) 0.7258(7) 0.4493(3) 0.1648 Uani
O4B O 0.9261(11) 0.6531(8) 0.4493(3) 0.1593 Uani
S1B S 1.12870(12) 1.12870(12) 0.2500 0.0413 Uani
Zn2B Zn 0.99996(7) 0.79169(5) 0.42003(2) 0.0443 Uani
C1D C 1.1770(5) 1.1766(7) 0.16608(18) 0.0486 Uani
C2D C 1.2027(5) 1.2027(8) 0.21163(19) 0.0584 Uani
C3D C 1.2775(7) 1.2778(12) 0.2279(2) 0.1123 Uani
H1D H 1.3248 1.3257 0.2117 0.1350 Uiso
O1D O 1.2339(4) 1.2339(6) 0.14005(14) 0.0706 Uani
O2D O 1.1022(3) 1.1022(4) 0.15887(13) 0.0479 Uani
C6H C 1.0007(16) 0.3463(11) 0.5419(3) 0.1307 Uani
C7H C 0.9994(11) 0.4242(8) 0.5198(3) 0.1076 Uani
C8H C 1.0872(16) 0.5041(11) 0.5093(4) 0.1516 Uani
C9H C 0.9118(16) 0.4168(11) 0.5092(4) 0.1556 Uani
O3H O 0.9283(11) 0.2742(7) 0.5507(3) 0.1648 Uani
O4H O 1.0739(11) 0.3469(8) 0.5507(3) 0.1593 Uani
C4C C 0.7617(8) 0.8108(5) 0.0460(2) 0.0618 Uani
H2C H 0.7037 0.7921 0.0332 0.0740 Uiso
C5C C 0.8100(8) 0.7617(5) 0.0460(2) 0.0624 Uani
H3C H 0.7906 0.7033 0.0333 0.0750 Uiso
N1C N 0.8907(4) 0.8908(3) 0.08100(14) 0.0383 Uani
N2C N 0.8897(6) 0.8134(4) 0.06750(15) 0.0442 Uani
N3C N 0.8133(6) 0.8896(4) 0.06756(15) 0.0442 Uani
Zn1C Zn 1.0000 1.0000 0.11947(3) 0.0300 Uani
Zn2C Zn 1.00004(7) 0.79173(5) 0.07997(2) 0.0443 Uani
C4D C 1.0491(6) 1.2383(8) 0.0460(2) 0.0618 Uani
H2D H 1.0884 1.2963 0.0332 0.0740 Uiso
C5D C 0.9517(6) 1.1900(8) 0.0460(2) 0.0624 Uani
H3D H 0.9127 1.2094 0.0333 0.0750 Uiso
N1D N 1.0001(3) 1.1093(4) 0.08100(14) 0.0383 Uani
N2D N 0.9237(4) 1.1103(6) 0.06750(15) 0.0442 Uani
N3D N 1.0763(4) 1.1867(6) 0.06756(15) 0.0442 Uani
Zn2D Zn 0.79169(5) 0.99996(7) 0.07997(2) 0.0443 Uani
C4E C 1.1892(5) 0.9509(6) 0.0460(2) 0.0618 Uani
H2E H 1.2079 0.9116 0.0332 0.0740 Uiso
C5E C 1.2383(5) 1.0483(6) 0.0460(2) 0.0624 Uani
H3E H 1.2967 1.0873 0.0333 0.0750 Uiso
N1E N 1.1092(3) 0.9999(3) 0.08100(14) 0.0383 Uani
N2E N 1.1866(4) 1.0763(4) 0.06750(15) 0.0442 Uani
N3E N 1.1104(4) 0.9237(4) 0.06756(15) 0.0442 Uani
Zn2E Zn 1.20827(5) 1.20831(5) 0.07997(2) 0.0443 Uani
O3C O 0.9283(11) 0.6541(8) 0.0507(3) 0.1648 Uani
O3D O 0.7258(7) 1.0717(11) 0.0507(3) 0.1648 Uani
O3E O 1.3459(8) 1.2742(7) 0.0507(3) 0.1648 Uani
O4C O 1.0739(11) 0.7270(7) 0.0507(3) 0.1593 Uani
O4D O 0.6531(8) 0.9261(11) 0.0507(3) 0.1593 Uani
O4E O 1.2730(7) 1.3469(8) 0.0507(3) 0.1593 Uani
Zn2F Zn 1.79169(5) 1.79173(5) 0.57997(2) 0.0443 Uani
Zn2G Zn 0.20827(5) 0.99996(7) 0.57997(2) 0.0443 Uani
Zn2H Zn 1.00004(7) 0.20831(5) 0.57997(2) 0.0443 Uani
loop_
_atom_site_aniso_label
_atom_site_aniso_U_11
_atom_site_aniso_U_22
_atom_site_aniso_U_33
_atom_site_aniso_U_23
_atom_site_aniso_U_13
_atom_site_aniso_U_12
C1 0.053(4) 0.073(5) 0.027(3) -0.001(3) -0.001(3) 0.037(4)
C2 0.058(4) 0.117(7) 0.022(3) -0.001(3) 0.002(3) 0.060(4)
C3 0.092(6) 0.272(14) 0.037(4) 0.000(6) 0.004(4) 0.139(9)
C4 0.083(5) 0.067(5) 0.048(4) -0.014(3) 0.003(4) 0.047(4)
C5 0.092(6) 0.052(4) 0.050(4) -0.019(3) -0.005(4) 0.041(4)
C6 0.106(9) 0.112(10) 0.036(5) 0.000(5) -0.002(5) -0.049(8)
C7 0.090(7) 0.090(7) 0.052(5) 0.002(5) -0.004(5) -0.023(6)
C8 0.135(12) 0.141(12) 0.104(10) -0.029(9) -0.031(9) 0.013(10)
C9 0.152(13) 0.125(11) 0.104(10) -0.028(8) -0.034(9) 0.005(10)
N1 0.046(3) 0.042(3) 0.027(2) -0.0051(19) 0.000(2) 0.022(2)
N2 0.050(3) 0.044(3) 0.034(3) -0.010(2) -0.005(2) 0.020(2)
N3 0.051(3) 0.053(3) 0.034(3) -0.006(2) 0.005(2) 0.030(3)
O1 0.071(3) 0.138(5) 0.025(2) 0.000(3) 0.003(2) 0.069(4)
O2 0.049(3) 0.068(3) 0.033(2) -0.0014(19) -0.0106(18) 0.034(2)
O3 0.113(7) 0.156(9) 0.073(5) -0.033(5) -0.013(5) -0.047(7)
O4 0.155(9) 0.109(7) 0.078(5) -0.018(5) -0.031(5) -0.036(7)
S1 0.0389(8) 0.0683(14) 0.0266(10) 0.0000(9) 0.0000(5) 0.0342(7)
Zn1 0.0347(4) 0.0347(4) 0.0206(5) 0.000 0.000 0.0173(2)
Zn2 0.0445(5) 0.0446(5) 0.0258(5) -0.0063(3) -0.0061(3) 0.0088(3)
C1C 0.052 0.073 0.027 -0.001 0 0.036
C2C 0.055 0.117 0.022 -0.001 -0.003 0.057
C3C 0.086 0.272 0.037 0 -0.004 0.133
O1C 0.071 0.138 0.025 0 -0.003 0.069
O2C 0.049 0.068 0.033 -0.0014 0.0092 0.034
C6F 0.106 0.112 0.036 0 -0.002 -0.049
C7F 0.09 0.09 0.052 0.002 -0.004 -0.023
C8F 0.135 0.141 0.104 -0.029 -0.031 0.013
C9F 0.152 0.125 0.104 -0.028 -0.034 0.005
O3F 0.113 0.156 0.073 -0.033 -0.013 -0.047
O4F 0.155 0.109 0.078 -0.018 -0.031 -0.036
C1A 0.073 0.052 0.027 0 0.001 0.036
C2A 0.117 0.055 0.022 0.003 0.001 0.057
C3A 0.272 0.086 0.037 0.004 0 0.133
C4A 0.067 0.056 0.048 0.017 0.014 0.02
C5A 0.052 0.062 0.05 0.014 0.019 0.011
C6A 0.112 0.316 0.036 -0.002 0 0.161
C7A 0.09 0.226 0.052 -0.006 -0.002 0.113
C8A 0.141 0.25 0.104 -0.002 0.029 0.128
C9A 0.125 0.267 0.104 -0.006 0.028 0.12
N1A 0.042 0.044 0.027 0.0051 0.0051 0.02
N2A 0.044 0.054 0.034 0.005 0.01 0.024
N3A 0.053 0.044 0.034 0.011 0.006 0.023
O1A 0.138 0.071 0.025 0.003 0 0.069
O2A 0.068 0.049 0.033 -0.0092 0.0014 0.034
O3A 0.156 0.363 0.073 0.02 0.033 0.203
O4A 0.109 0.336 0.078 -0.013 0.018 0.145
S1A 0.0683 0.0388 0.0266 0 0 0.0341
Zn2A 0.0446 0.0715 0.0258 0.0002 0.0063 0.0358
C1E 0.073 0.053 0.027 0.001 0.001 0.037
C2E 0.117 0.058 0.022 -0.002 0.001 0.06
C3E 0.272 0.092 0.037 -0.004 0 0.139
O1E 0.138 0.071 0.025 -0.003 0 0.069
O2E 0.068 0.049 0.033 0.0106 0.0014 0.034
C6G 0.112 0.316 0.036 -0.002 0 0.161
C7G 0.09 0.226 0.052 -0.006 -0.002 0.113
C8G 0.141 0.25 0.104 -0.002 0.029 0.128
C9G 0.125 0.267 0.104 -0.006 0.028 0.12
O3G 0.156 0.363 0.073 0.02 0.033 0.203
O4G 0.109 0.336 0.078 -0.013 0.018 0.145
C1B 0.052 0.053 0.027 0.001 0 0.016
C2B 0.055 0.058 0.022 -0.002 -0.003 -0.002
C3B 0.086 0.092 0.037 -0.004 -0.004 -0.047
C4B 0.056 0.083 0.048 -0.003 -0.017 0.036
C5B 0.062 0.092 0.05 0.005 -0.014 0.051
C6B 0.316 0.106 0.036 0.002 0.002 0.155
C7B 0.226 0.09 0.052 0.004 0.006 0.113
C8B 0.25 0.135 0.104 0.031 0.002 0.122
C9B 0.267 0.152 0.104 0.034 0.006 0.147
N1B 0.044 0.046 0.027 0 -0.0051 0.024
N2B 0.054 0.05 0.034 0.005 -0.005 0.03
N3B 0.044 0.051 0.034 -0.005 -0.011 0.021
O1B 0.071 0.071 0.025 -0.003 -0.003 0.002
O2B 0.049 0.049 0.033 0.0106 0.0092 0.015
O3B 0.363 0.113 0.073 0.013 -0.02 0.16
O4B 0.336 0.155 0.078 0.031 0.013 0.191
S1B 0.0388 0.0389 0.0266 0 0 0.0047
Zn2B 0.0715 0.0445 0.0258 0.0061 -0.0002 0.0357
C1D 0.053 0.052 0.027 0 -0.001 0.016
C2D 0.058 0.055 0.022 0.003 0.002 -0.002
C3D 0.092 0.086 0.037 0.004 0.004 -0.047
O1D 0.071 0.071 0.025 0.003 0.003 0.002
O2D 0.049 0.049 0.033 -0.0092 -0.0106 0.015
C6H 0.316 0.106 0.036 0.002 0.002 0.155
C7H 0.226 0.09 0.052 0.004 0.006 0.113
C8H 0.25 0.135 0.104 0.031 0.002 0.122
C9H 0.267 0.152 0.104 0.034 0.006 0.147
O3H 0.363 0.113 0.073 0.013 -0.02 0.16
O4H 0.336 0.155 0.078 0.031 0.013 0.191
C4C 0.056 0.067 0.048 -0.014 -0.017 0.02
C5C 0.062 0.052 0.05 -0.019 -0.014 0.011
N1C 0.044 0.042 0.027 -0.0051 -0.0051 0.02
N2C 0.054 0.044 0.034 -0.01 -0.005 0.024
N3C 0.044 0.053 0.034 -0.006 -0.011 0.023
Zn1C 0.0348 0.0347 0.0206 0 0 0.0174
Zn2C 0.0715 0.0446 0.0258 -0.0063 -0.0002 0.0358
C4D 0.083 0.056 0.048 0.017 0.003 0.036
C5D 0.092 0.062 0.05 0.014 -0.005 0.051
N1D 0.046 0.044 0.027 0.0051 0 0.024
N2D 0.05 0.054 0.034 0.005 -0.005 0.03
N3D 0.051 0.044 0.034 0.011 0.005 0.021
Zn2D 0.0445 0.0715 0.0258 0.0002 -0.0061 0.0357
C4E 0.067 0.083 0.048 -0.003 0.014 0.047
C5E 0.052 0.092 0.05 0.005 0.019 0.041
N1E 0.042 0.046 0.027 0 0.0051 0.022
N2E 0.044 0.05 0.034 0.005 0.01 0.02
N3E 0.053 0.051 0.034 -0.005 0.006 0.03
Zn2E 0.0446 0.0445 0.0258 0.0061 0.0063 0.0088
O3C 0.363 0.156 0.073 -0.033 -0.02 0.203
O3D 0.113 0.363 0.073 0.02 -0.013 0.16
O3E 0.156 0.113 0.073 0.013 0.033 -0.047
O4C 0.336 0.109 0.078 -0.018 0.013 0.145
O4D 0.155 0.336 0.078 -0.013 -0.031 0.191
O4E 0.109 0.155 0.078 0.031 0.018 -0.036
Zn2F 0.0445 0.0446 0.0258 -0.0063 -0.0061 0.0088
Zn2G 0.0446 0.0715 0.0258 0.0002 0.0063 0.0358
Zn2H 0.0715 0.0445 0.0258 0.0061 -0.0002 0.0357
loop_
_geom_bond_atom_site_label_1
_geom_bond_atom_site_label_2
_geom_bond_site_symmetry_1
_geom_bond_site_symmetry_2
C1 C2 1_555 1_555
C2 C3 1_555 1_555
C3 H1 1_555 1_555
C4 H2 1_555 1_555
C5 C4 1_555 1_555
H3 C5 1_555 1_555
C6 C7 1_555 1_555
C7 C8 1_555 1_555
C8 C9F 1_555 1_555
C9 C7 1_555 1_555
N1 N2 1_555 1_555
N2 C5 1_555 1_555
N3 C4 1_555 1_555
O1 C1 1_555 1_555
O2 C1 1_555 1_555
O3 C6 1_555 1_555
O4 C6 1_555 1_555
S1 C2 1_555 1_555
Zn1 N1 1_555 1_555
Zn2 N2 1_555 1_555
C1C C2C 1_555 1_555
C2C S1 1_555 1_555
C3C C3 1_555 1_555
H1C C3C 1_555 1_555
O1C C1C 1_555 1_555
O2C C1C 1_555 1_555
C6F C7F 1_555 1_555
C7F C8F 1_555 1_555
C8F C9 1_555 1_555
C9F C7F 1_555 1_555
O3F C6F 1_555 1_555
O4F C6F 1_555 1_555
C1A C2A 1_555 1_555
C2A C3A 1_555 1_555
C3A H1A 1_555 1_555
C4A H2A 1_555 1_555
C5A C4A 1_555 1_555
H3A C5A 1_555 1_555
C6A C7A 1_555 1_555
C7A C8A 1_555 1_555
C8A C9G 1_555 1_555
C9A C7A 1_555 1_555
N1A Zn1 1_555 1_555
N2A C5A 1_555 1_555
N3A C4A 1_555 1_555
O1A C1A 1_555 1_555
O2A Zn1 1_555 1_555
O3A C6A 1_555 1_555
O4A C6A 1_555 1_555
S1A C2A 1_555 1_555
Zn2A N3 1_555 1_555
C1E C2E 1_555 1_555
C2E S1A 1_555 1_555
C3E C3A 1_555 1_555
H1E C3E 1_555 1_555
O1E C1E 1_555 1_555
O2E C1E 1_555 1_555
C6G C7G 1_555 1_555
C7G C8G 1_555 1_555
C8G C9A 1_555 1_555
C9G C7G 1_555 1_555
O3G C6G 1_555 1_555
O4G C6G 1_555 1_555
C1B C2B 1_555 1_555
C2B C3B 1_555 1_555
C3B H1B 1_555 1_555
C4B H2B 1_555 1_555
C5B C4B 1_555 1_555
H3B C5B 1_555 1_555
C6B C7B 1_555 1_555
C7B C8B 1_555 1_555
C8B C9H 1_555 1_555
C9B C7B 1_555 1_555
N1B Zn1 1_555 1_555
N2B C5B 1_555 1_555
N3B Zn2 1_555 1_555
O1B Zn2 1_555 1_555
O2B Zn1 1_555 1_555
O3B C6B 1_555 1_555
O4B C6B 1_555 1_555
S1B C2B 1_555 1_555
Zn2B N3A 1_555 1_555
C1D C2D 1_555 1_555
C2D S1B 1_555 1_555
C3D C3B 1_555 1_555
H1D C3D 1_555 1_555
O1D C1D 1_555 1_555
O2D C1D 1_555 1_555
C6H C7H 1_555 1_555
C7H C8H 1_555 1_555
C8H C9B 1_555 1_555
C9H C7H 1_555 1_555
O3H C6H 1_555 1_555
O4H C6H 1_555 1_555
C4C H2C 1_555 1_555
C5C C4C 1_555 1_555
H3C C5C 1_555 1_555
N1C N2C 1_555 1_555
N2C C5C 1_555 1_555
N3C C4C 1_555 1_555
Zn1C O2C 1_555 1_555
Zn2C O1E 1_555 1_555
C4D H2D 1_555 1_555
C5D C4D 1_555 1_555
H3D C5D 1_555 1_555
N1D Zn1C 1_555 1_555
N2D C5D 1_555 1_555
N3D C4D 1_555 1_555
Zn2D O1C 1_555 1_555
C4E H2E 1_555 1_555
C5E C4E 1_555 1_555
H3E C5E 1_555 1_555
N1E Zn1C 1_555 1_555
N2E C5E 1_555 1_555
N3E Zn2C 1_555 1_555
Zn2E O1D 1_555 1_555
O3C Zn2C 1_555 1_555
O3D Zn2D 1_555 1_555
O3E Zn2E 1_555 1_555
O4C Zn2C 1_555 1_555
O4D Zn2D 1_555 1_555
O4E Zn2E 1_555 1_555
Zn2F O3F 1_555 1_555
Zn2G O3G 1_555 1_555
Zn2H O3H 1_555 1_555
N1 N3 1_555 1_555
O1 Zn2A 1_555 1_555
O2 Zn1 1_555 1_555
O3 Zn2 1_555 1_555
O4 Zn2 1_555 1_555
C2C C3C 1_555 1_555
O4F Zn2F 1_555 1_555
C1A O2A 1_555 1_555
N1A N2A 1_555 1_555
N1A N3A 1_555 1_555
N2A Zn2A 1_555 1_555
O1A Zn2B 1_555 1_555
O3A Zn2A 1_555 1_555
O4A Zn2A 1_555 1_555
C2E C3E 1_555 1_555
O2E Zn1C 1_555 1_555
O4G Zn2G 1_555 1_555
C1B O1B 1_555 1_555
C1B O2B 1_555 1_555
C4B N3B 1_555 1_555
N1B N2B 1_555 1_555
N1B N3B 1_555 1_555
N2B Zn2B 1_555 1_555
O3B Zn2B 1_555 1_555
O4B Zn2B 1_555 1_555
C2D C3D 1_555 1_555
O2D Zn1C 1_555 1_555
O4H Zn2H 1_555 1_555
N1C N3C 1_555 1_555
N1C Zn1C 1_555 1_555
N2C Zn2C 1_555 1_555
N3C Zn2D 1_555 1_555
N1D N2D 1_555 1_555
N1D N3D 1_555 1_555
N2D Zn2D 1_555 1_555
N3D Zn2E 1_555 1_555
C4E N3E 1_555 1_555
N1E N2E 1_555 1_555
N1E N3E 1_555 1_555
N2E Zn2E 1_555 1_555

#END
