
#######################################################################
#
#                 Cambridge Crystallographic Data Centre
#                                CCDC 
#
#######################################################################
#
# If this CIF has been generated from an entry in the Cambridge 
# Structural Database, then it will include bibliographic, chemical, 
# crystal, experimental, refinement or atomic coordinate data resulting 
# from the CCDC's data processing and validation procedures.
#
#######################################################################

data_OMOVIX
_chemical_formula_moiety         '(C48 H24 N18 O24 S6 Zn8 2-)n'
_symmetry_cell_setting           hexagonal
_symmetry_space_group_name_H-M   'P 6/m c c'
_symmetry_Int_Tables_number      192
_space_group_name_Hall           '-P 6 2c'
loop_
_symmetry_equiv_pos_site_id
_symmetry_equiv_pos_as_xyz
1 x,y,z
2 x-y,x,z
3 -y,x-y,z
4 -x,-y,z
5 -x+y,-x,z
6 y,-x+y,z
7 -y,-x,1/2-z
8 x-y,-y,1/2-z
9 x,x-y,1/2-z
10 y,x,1/2-z
11 -x+y,y,1/2-z
12 -x,-x+y,1/2-z
13 -x,-y,-z
14 -x+y,-x,-z
15 y,-x+y,-z
16 x,y,-z
17 x-y,x,-z
18 -y,x-y,-z
19 y,x,1/2+z
20 -x+y,y,1/2+z
21 -x,-x+y,1/2+z
22 -y,-x,1/2+z
23 x-y,-y,1/2+z
24 x,x-y,1/2+z
_cell_length_a                   24.7750(16)
_cell_length_b                   24.7750(16)
_cell_length_c                   31.869(2)
_cell_angle_alpha                90
_cell_angle_beta                 90
_cell_angle_gamma                120
_cell_volume                     16940.5
loop_
_atom_site_label
_atom_site_type_symbol
_atom_site_fract_x
_atom_site_fract_y
_atom_site_fract_z
_atom_site_U_iso_or_equiv
_atom_site_thermal_displace_type
C1 C 0.4414(3) 0.1076(2) -0.20730(13) 0.0949 Uani
C2 C 0.3935(2) 0.04965(18) -0.23034(13) 0.0889 Uani
C3 C 0.3305(3) 0.0277(2) -0.2386(2) 0.2088 Uani
H1 H 0.3093 0.0480 -0.2299 0.2500 Uiso
C4 C 0.5558(2) 0.2149(2) -0.08321(11) 0.0603 Uani
C5 C 0.53909(16) 0.19644(16) -0.03871(10) 0.0626 Uani
C6 C 0.48913(18) 0.14280(18) -0.02171(10) 0.0974 Uani
H2 H 0.4590 0.1105 -0.0378 0.1160 Uiso
C7 C 0.7063(2) 0.2125(2) -0.20272(12) 0.0748 Uani
H3 H 0.7328 0.2005 -0.2149 0.0900 Uiso
C8 C 0.6427(2) 0.17956(19) -0.20329(12) 0.0783 Uani
H4 H 0.6182 0.1413 -0.2163 0.0940 Uiso
N1 N 0.62168(14) 0.21158(15) -0.18196(9) 0.0609 Uani
N2 N 0.67203(16) 0.26383(14) -0.16862(8) 0.0565 Uani
N3 N 0.72346(14) 0.26490(15) -0.18161(9) 0.0627 Uani
O1 O 0.42186(17) 0.14449(16) -0.19686(12) 0.1452 Uani
O2 O 0.49219(15) 0.11613(15) -0.20151(9) 0.0970 Uani
O3 O 0.51815(11) 0.17481(11) -0.10977(7) 0.0775 Uani
O4 O 0.60201(11) 0.26435(12) -0.09088(7) 0.0633 Uani
S1 S 0.41617(6) 0.0000 -0.2500 0.0705 Uani
S2 S 0.58489(6) 0.24585(6) 0.0000 0.0580 Uani
Zn1 Zn 0.6667 0.3333 -0.129557(17) 0.0482 Uani
Zn2 Zn 0.533935(19) 0.193523(18) -0.169076(12) 0.0592 Uani
C1G C 0.3338(4) -0.1076(2) -0.29270(13) 0.0949 Uani
C2G C 0.34385(27) -0.04965(18) -0.26966(13) 0.0889 Uani
C3G C 0.3028(4) -0.0277(2) -0.2614(2) 0.2088 Uani
H1G H 0.2613 -0.0480 -0.2701 0.2500 Uiso
O1G O 0.27737(23) -0.14449(16) -0.30314(12) 0.1452 Uani
O2G O 0.37606(21) -0.11613(15) -0.29849(9) 0.0970 Uani
C4O C 0.5558(2) 0.2149(2) 0.08321(11) 0.0603 Uani
C5O C 0.53909(16) 0.19644(16) 0.03871(10) 0.0626 Uani
C6O C 0.48913(18) 0.14280(18) 0.02171(10) 0.0974 Uani
H2O H 0.4590 0.1105 0.0378 0.1160 Uiso
O3O O 0.51815(11) 0.17481(11) 0.10977(7) 0.0775 Uani
O4O O 0.60201(11) 0.26435(12) 0.09088(7) 0.0633 Uani
C1B C 0.8924(2) 0.3338(4) -0.20730(13) 0.0949 Uani
C2B C 0.95035(18) 0.34385(27) -0.23034(13) 0.0889 Uani
C3B C 0.9723(2) 0.3028(4) -0.2386(2) 0.2088 Uani
H1B H 0.9520 0.2613 -0.2299 0.2500 Uiso
C4B C 0.7851(2) 0.3409(3) -0.08321(11) 0.0603 Uani
C5B C 0.80356(16) 0.34265(23) -0.03871(10) 0.0626 Uani
C6B C 0.85720(18) 0.34633(25) -0.02171(10) 0.0974 Uani
H2B H 0.8895 0.3485 -0.0378 0.1160 Uiso
C7B C 0.7875(2) 0.4938(3) -0.20272(12) 0.0748 Uani
H3B H 0.7995 0.5323 -0.2149 0.0900 Uiso
C8B C 0.82044(19) 0.46314(28) -0.20329(12) 0.0783 Uani
H4B H 0.8587 0.4769 -0.2163 0.0940 Uiso
N1B N 0.78842(15) 0.41010(21) -0.18196(9) 0.0609 Uani
N2B N 0.73617(14) 0.40820(21) -0.16862(8) 0.0565 Uani
N3B N 0.73510(15) 0.45856(21) -0.18161(9) 0.0627 Uani
O1B O 0.85551(16) 0.27737(23) -0.19686(12) 0.1452 Uani
O2B O 0.88387(15) 0.37606(21) -0.20151(9) 0.0970 Uani
O3B O 0.82519(11) 0.34334(16) -0.10977(7) 0.0775 Uani
O4B O 0.73565(12) 0.33766(16) -0.09088(7) 0.0633 Uani
S1B S 1.0000 0.41617(6) -0.2500 0.0705 Uani
S2B S 0.75415(6) 0.33904(8) 0.0000 0.0580 Uani
Zn2B Zn 0.806477(18) 0.340412(26) -0.169076(12) 0.0592 Uani
C1I C 1.1076(2) 0.4414(3) -0.29270(13) 0.0949 Uani
C2I C 1.04965(18) 0.3935(2) -0.26966(13) 0.0889 Uani
C3I C 1.0277(2) 0.3305(3) -0.2614(2) 0.2088 Uani
H1I H 1.0480 0.3093 -0.2701 0.2500 Uiso
O1I O 1.14449(16) 0.42186(17) -0.30314(12) 0.1452 Uani
O2I O 1.11613(15) 0.49219(15) -0.29849(9) 0.0970 Uani
C4Q C 0.7851(2) 0.3409(3) 0.08321(11) 0.0603 Uani
C5Q C 0.80356(16) 0.34265(23) 0.03871(10) 0.0626 Uani
C6Q C 0.85720(18) 0.34633(25) 0.02171(10) 0.0974 Uani
H2Q H 0.8895 0.3485 0.0378 0.1160 Uiso
O3Q O 0.82519(11) 0.34334(16) 0.10977(7) 0.0775 Uani
O4Q O 0.73565(12) 0.33766(16) 0.09088(7) 0.0633 Uani
C1D C 0.6662(4) 0.5586(3) -0.20730(13) 0.0949 Uani
C2D C 0.65615(27) 0.6065(2) -0.23034(13) 0.0889 Uani
C3D C 0.6972(4) 0.6695(3) -0.2386(2) 0.2088 Uani
H1D H 0.7387 0.6907 -0.2299 0.2500 Uiso
C4D C 0.6591(3) 0.4442(2) -0.08321(11) 0.0603 Uani
C5D C 0.65735(23) 0.46091(16) -0.03871(10) 0.0626 Uani
C6D C 0.65367(25) 0.51087(18) -0.02171(10) 0.0974 Uani
H2D H 0.6515 0.5410 -0.0378 0.1160 Uiso
C7D C 0.5062(3) 0.2937(2) -0.20272(12) 0.0748 Uani
H3D H 0.4677 0.2672 -0.2149 0.0900 Uiso
C8D C 0.53686(28) 0.3573(2) -0.20329(12) 0.0783 Uani
H4D H 0.5231 0.3818 -0.2163 0.0940 Uiso
N1D N 0.58990(21) 0.37832(14) -0.18196(9) 0.0609 Uani
N2D N 0.59180(21) 0.32797(16) -0.16862(8) 0.0565 Uani
N3D N 0.54144(21) 0.27654(14) -0.18161(9) 0.0627 Uani
O1D O 0.72263(23) 0.57814(17) -0.19686(12) 0.1452 Uani
O2D O 0.62394(21) 0.50781(15) -0.20151(9) 0.0970 Uani
O3D O 0.65666(16) 0.48185(11) -0.10977(7) 0.0775 Uani
O4D O 0.66234(16) 0.39799(11) -0.09088(7) 0.0633 Uani
S1D S 0.58383(6) 0.58383(6) -0.2500 0.0705 Uani
S2D S 0.66096(8) 0.41511(6) 0.0000 0.0580 Uani
Zn2D Zn 0.659588(26) 0.466065(19) -0.169076(12) 0.0592 Uani
C1K C 0.5586(3) 0.6662(4) -0.29270(13) 0.0949 Uani
C2K C 0.6065(2) 0.65615(27) -0.26966(13) 0.0889 Uani
C3K C 0.6695(3) 0.6972(4) -0.2614(2) 0.2088 Uani
H1K H 0.6907 0.7387 -0.2701 0.2500 Uiso
O1K O 0.57814(17) 0.72263(23) -0.30314(12) 0.1452 Uani
O2K O 0.50781(15) 0.62394(21) -0.29849(9) 0.0970 Uani
C4M C 0.6591(3) 0.4442(2) 0.08321(11) 0.0603 Uani
C5M C 0.65735(23) 0.46091(16) 0.03871(10) 0.0626 Uani
C6M C 0.65367(25) 0.51087(18) 0.02171(10) 0.0974 Uani
H2M H 0.6515 0.5410 0.0378 0.1160 Uiso
O3M O 0.65666(16) 0.48185(11) 0.10977(7) 0.0775 Uani
O4M O 0.66234(16) 0.39799(11) 0.09088(7) 0.0633 Uani
C7M C 0.5062(3) 0.2937(2) 0.20272(12) 0.0748 Uani
H3M H 0.4677 0.2672 0.2149 0.0900 Uiso
C8M C 0.53686(28) 0.3573(2) 0.20329(12) 0.0783 Uani
H4M H 0.5231 0.3818 0.2163 0.0940 Uiso
N1M N 0.58990(21) 0.37832(14) 0.18196(9) 0.0609 Uani
N2M N 0.59180(21) 0.32797(16) 0.16862(8) 0.0565 Uani
N3M N 0.54144(21) 0.27654(14) 0.18161(9) 0.0627 Uani
Zn1M Zn 0.6666 0.3333 0.129557(17) 0.0482 Uani
Zn2M Zn 0.659588(26) 0.466065(19) 0.169076(12) 0.0592 Uani
C7O C 0.7063(2) 0.2125(2) 0.20272(12) 0.0748 Uani
H3O H 0.7328 0.2005 0.2149 0.0900 Uiso
C8O C 0.6427(2) 0.17956(19) 0.20329(12) 0.0783 Uani
H4O H 0.6182 0.1413 0.2163 0.0940 Uiso
N1O N 0.62168(14) 0.21158(15) 0.18196(9) 0.0609 Uani
N2O N 0.67203(16) 0.26383(14) 0.16862(8) 0.0565 Uani
N3O N 0.72346(14) 0.26490(15) 0.18161(9) 0.0627 Uani
Zn2O Zn 0.533935(19) 0.193523(18) 0.169076(12) 0.0592 Uani
C7Q C 0.7875(2) 0.4938(3) 0.20272(12) 0.0748 Uani
H3Q H 0.7995 0.5323 0.2149 0.0900 Uiso
C8Q C 0.82044(19) 0.46314(28) 0.20329(12) 0.0783 Uani
H4Q H 0.8587 0.4769 0.2163 0.0940 Uiso
N1Q N 0.78842(15) 0.41010(21) 0.18196(9) 0.0609 Uani
N2Q N 0.73617(14) 0.40820(21) 0.16862(8) 0.0565 Uani
N3Q N 0.73510(15) 0.45856(21) 0.18161(9) 0.0627 Uani
Zn2Q Zn 0.806477(18) 0.340412(26) 0.169076(12) 0.0592 Uani
O1M O 0.72263(23) 0.57814(17) 0.19686(12) 0.1452 Uani
O1O O 0.42186(17) 0.14449(16) 0.19686(12) 0.1452 Uani
O1Q O 0.85551(16) 0.27737(23) 0.19686(12) 0.1452 Uani
O2M O 0.62394(21) 0.50781(15) 0.20151(9) 0.0970 Uani
O2O O 0.49219(15) 0.11613(15) 0.20151(9) 0.0970 Uani
O2Q O 0.88387(15) 0.37606(21) 0.20151(9) 0.0970 Uani
Zn2G Zn 0.340412(26) -0.193523(18) -0.330924(12) 0.0592 Uani
Zn2I Zn 1.193523(18) 0.533935(19) -0.330924(12) 0.0592 Uani
Zn2K Zn 0.466065(19) 0.659588(26) -0.330924(12) 0.0592 Uani
loop_
_atom_site_aniso_label
_atom_site_aniso_U_11
_atom_site_aniso_U_22
_atom_site_aniso_U_33
_atom_site_aniso_U_23
_atom_site_aniso_U_13
_atom_site_aniso_U_12
C1 0.135(5) 0.051(3) 0.050(3) -0.027(2) 0.009(3) 0.010(4)
C2 0.109(4) 0.071(3) 0.084(3) -0.037(2) -0.002(3) 0.043(3)
C3 0.119(5) 0.180(7) 0.349(10) -0.190(6) -0.090(6) 0.091(5)
C4 0.076(3) 0.074(3) 0.037(2) -0.006(2) -0.001(2) 0.042(3)
C5 0.064(3) 0.064(3) 0.0371(19) -0.0091(18) -0.0087(18) 0.015(2)
C6 0.095(3) 0.084(3) 0.043(2) -0.013(2) -0.007(2) -0.008(3)
C7 0.081(4) 0.074(3) 0.067(3) -0.015(2) 0.013(3) 0.037(3)
C8 0.097(4) 0.063(3) 0.067(3) -0.024(2) 0.008(3) 0.034(3)
N1 0.067(2) 0.056(2) 0.0493(19) -0.0101(16) -0.0013(16) 0.023(2)
N2 0.064(2) 0.063(2) 0.0418(16) -0.0027(16) 0.0038(18) 0.0312(19)
N3 0.063(2) 0.077(3) 0.0499(18) -0.0056(18) 0.0097(17) 0.0364(19)
O1 0.162(4) 0.104(3) 0.153(3) -0.075(3) -0.016(2) 0.054(3)
O2 0.078(2) 0.097(3) 0.0603(19) -0.0187(16) -0.0060(19) 0.002(2)
O3 0.084(2) 0.0803(19) 0.0397(13) -0.0068(13) -0.0014(14) 0.0197(16)
O4 0.0651(18) 0.0622(18) 0.0440(14) 0.0053(14) 0.0059(13) 0.0179(15)
S1 0.0813(8) 0.0745(10) 0.0533(8) -0.0173(8) -0.0087(4) 0.0372(5)
S2 0.0611(9) 0.0550(9) 0.0400(7) 0.000 0.000 0.0157(7)
Zn1 0.0558(3) 0.0558(3) 0.0329(4) 0.000 0.000 0.02790(14)
Zn2 0.0662(3) 0.0615(3) 0.0399(2) -0.0111(2) -0.0047(2) 0.0245(2)
C1G 0.166 0.051 0.05 -0.027 -0.036 0.041
C2G 0.094 0.071 0.084 -0.037 -0.035 0.028
C3G 0.117 0.18 0.349 -0.19 -0.1 0.089
O1G 0.158 0.104 0.153 -0.075 -0.059 0.05
O2G 0.171 0.097 0.0603 -0.0187 -0.0127 0.095
C4O 0.076 0.074 0.037 0.006 0.001 0.042
C5O 0.064 0.064 0.0371 0.0091 0.0087 0.015
C6O 0.095 0.084 0.043 0.013 0.007 -0.008
O3O 0.084 0.0803 0.0397 0.0068 0.0014 0.0197
O4O 0.0651 0.0622 0.044 -0.0053 -0.0059 0.0179
C1B 0.051 0.166 0.05 0.036 0.027 0.041
C2B 0.071 0.094 0.084 0.035 0.037 0.028
C3B 0.18 0.117 0.349 0.1 0.19 0.089
C4B 0.074 0.066 0.037 0.005 0.006 0.032
C5B 0.064 0.098 0.0371 0.0004 0.0091 0.049
C6B 0.084 0.195 0.043 0.006 0.013 0.092
C7B 0.074 0.081 0.067 0.028 0.015 0.037
C8B 0.063 0.092 0.067 0.032 0.024 0.029
N1B 0.056 0.077 0.0493 0.0088 0.0101 0.033
N2B 0.063 0.0646 0.0418 0.0065 0.0027 0.0318
N3B 0.077 0.0672 0.0499 0.0153 0.0056 0.0406
O1B 0.104 0.158 0.153 0.059 0.075 0.05
O2B 0.097 0.171 0.0603 0.0127 0.0187 0.095
O3B 0.0803 0.1249 0.0397 0.0054 0.0068 0.0606
O4B 0.0622 0.0915 0.044 0.0006 -0.0053 0.0443
S1B 0.0745 0.0814 0.0533 0.0086 0.0173 0.0373
S2B 0.055 0.0847 0.04 0 0 0.0393
Zn2B 0.0615 0.0787 0.0399 0.0064 0.0111 0.037
C1I 0.051 0.135 0.05 -0.009 0.027 0.01
C2I 0.071 0.109 0.084 0.002 0.037 0.043
C3I 0.18 0.119 0.349 0.09 0.19 0.091
O1I 0.104 0.162 0.153 0.016 0.075 0.054
O2I 0.097 0.078 0.0603 0.006 0.0187 0.002
C4Q 0.074 0.066 0.037 -0.005 -0.006 0.032
C5Q 0.064 0.098 0.0371 -0.0004 -0.0091 0.049
C6Q 0.084 0.195 0.043 -0.006 -0.013 0.092
O3Q 0.0803 0.1249 0.0397 -0.0054 -0.0068 0.0606
O4Q 0.0622 0.0915 0.044 -0.0006 0.0053 0.0443
C1D 0.166 0.135 0.05 -0.009 -0.036 0.125
C2D 0.094 0.109 0.084 0.002 -0.035 0.066
C3D 0.117 0.119 0.349 0.09 -0.1 0.028
C4D 0.066 0.076 0.037 0.001 -0.005 0.034
C5D 0.098 0.064 0.0371 0.0087 -0.0004 0.049
C6D 0.195 0.095 0.043 0.007 -0.006 0.103
C7D 0.081 0.081 0.067 -0.013 -0.028 0.044
C8D 0.092 0.097 0.067 -0.008 -0.032 0.063
N1D 0.077 0.067 0.0493 0.0013 -0.0088 0.044
N2D 0.0646 0.064 0.0418 -0.0038 -0.0065 0.0328
N3D 0.0672 0.063 0.0499 -0.0097 -0.0153 0.0266
O1D 0.158 0.162 0.153 0.016 -0.059 0.108
O2D 0.171 0.078 0.0603 0.006 -0.0127 0.076
O3D 0.1249 0.084 0.0397 0.0014 -0.0054 0.0643
O4D 0.0915 0.0651 0.044 -0.0059 -0.0006 0.0472
S1D 0.0814 0.0813 0.0533 0.0087 -0.0086 0.0441
S2D 0.0847 0.0611 0.04 0 0 0.0454
Zn2D 0.0787 0.0662 0.0399 0.0047 -0.0064 0.0417
C1K 0.135 0.166 0.05 0.036 0.009 0.125
C2K 0.109 0.094 0.084 0.035 -0.002 0.066
C3K 0.119 0.117 0.349 0.1 -0.09 0.028
O1K 0.162 0.158 0.153 0.059 -0.016 0.108
O2K 0.078 0.171 0.0603 0.0127 -0.006 0.076
C4M 0.066 0.076 0.037 -0.001 0.005 0.034
C5M 0.098 0.064 0.0371 -0.0087 0.0004 0.049
C6M 0.195 0.095 0.043 -0.007 0.006 0.103
O3M 0.1249 0.084 0.0397 -0.0014 0.0054 0.0643
O4M 0.0915 0.0651 0.044 0.0059 0.0006 0.0472
C7M 0.081 0.081 0.067 0.013 0.028 0.044
C8M 0.092 0.097 0.067 0.008 0.032 0.063
N1M 0.077 0.067 0.0493 -0.0013 0.0088 0.044
N2M 0.0646 0.064 0.0418 0.0038 0.0065 0.0328
N3M 0.0672 0.063 0.0499 0.0097 0.0153 0.0266
Zn1M 0.0558 0.0558 0.0329 0 0 0.0279
Zn2M 0.0787 0.0662 0.0399 -0.0047 0.0064 0.0417
C7O 0.081 0.074 0.067 0.015 -0.013 0.037
C8O 0.097 0.063 0.067 0.024 -0.008 0.034
N1O 0.067 0.056 0.0493 0.0101 0.0013 0.023
N2O 0.064 0.063 0.0418 0.0027 -0.0038 0.0312
N3O 0.063 0.077 0.0499 0.0056 -0.0097 0.0364
Zn2O 0.0662 0.0615 0.0399 0.0111 0.0047 0.0245
C7Q 0.074 0.081 0.067 -0.028 -0.015 0.037
C8Q 0.063 0.092 0.067 -0.032 -0.024 0.029
N1Q 0.056 0.077 0.0493 -0.0088 -0.0101 0.033
N2Q 0.063 0.0646 0.0418 -0.0065 -0.0027 0.0318
N3Q 0.077 0.0672 0.0499 -0.0153 -0.0056 0.0406
Zn2Q 0.0615 0.0787 0.0399 -0.0064 -0.0111 0.037
O1M 0.158 0.162 0.153 -0.016 0.059 0.108
O1O 0.162 0.104 0.153 0.075 0.016 0.054
O1Q 0.104 0.158 0.153 -0.059 -0.075 0.05
O2M 0.171 0.078 0.0603 -0.006 0.0127 0.076
O2O 0.078 0.097 0.0603 0.0187 0.006 0.002
O2Q 0.097 0.171 0.0603 -0.0127 -0.0187 0.095
Zn2G 0.0787 0.0615 0.0399 -0.0111 -0.0064 0.037
Zn2I 0.0615 0.0662 0.0399 0.0047 0.0111 0.0245
Zn2K 0.0662 0.0787 0.0399 0.0064 -0.0047 0.0417
loop_
_geom_bond_atom_site_label_1
_geom_bond_atom_site_label_2
_geom_bond_site_symmetry_1
_geom_bond_site_symmetry_2
C1 C2 1_555 1_555
C2 C3 1_555 1_555
C3 H1 1_555 1_555
C4 C5 1_555 1_555
C5 C6 1_555 1_555
C6 H2 1_555 1_555
C7 H3 1_555 1_555
C8 C7 1_555 1_555
H4 C8 1_555 1_555
N1 C8 1_555 1_555
N2 N1 1_555 1_555
N3 C7 1_555 1_555
O1 C1 1_555 1_555
O2 C1 1_555 1_555
O3 C4 1_555 1_555
O4 C4 1_555 1_555
S1 C2 1_555 1_555
S2 C5 1_555 1_555
Zn1 N2 1_555 1_555
Zn2 N1 1_555 1_555
C1G C2G 1_555 1_555
C2G S1 1_555 1_555
C3G C3 1_555 1_555
H1G C3G 1_555 1_555
O1G C1G 1_555 1_555
O2G C1G 1_555 1_555
C4O C5O 1_555 1_555
C5O S2 1_555 1_555
C6O C6 1_555 1_555
H2O C6O 1_555 1_555
O3O C4O 1_555 1_555
O4O C4O 1_555 1_555
C1B C2B 1_555 1_555
C2B C3B 1_555 1_555
C3B H1B 1_555 1_555
C4B C5B 1_555 1_555
C5B C6B 1_555 1_555
C6B H2B 1_555 1_555
C7B H3B 1_555 1_555
C8B C7B 1_555 1_555
H4B C8B 1_555 1_555
N1B C8B 1_555 1_555
N2B Zn1 1_555 1_555
N3B C7B 1_555 1_555
O1B C1B 1_555 1_555
O2B C1B 1_555 1_555
O3B C4B 1_555 1_555
O4B Zn1 1_555 1_555
S1B C2B 1_555 1_555
S2B C5B 1_555 1_555
Zn2B N3 1_555 1_555
C1I C2I 1_555 1_555
C2I S1B 1_555 1_555
C3I C3B 1_555 1_555
H1I C3I 1_555 1_555
O1I C1I 1_555 1_555
O2I C1I 1_555 1_555
C4Q C5Q 1_555 1_555
C5Q S2B 1_555 1_555
C6Q C6B 1_555 1_555
H2Q C6Q 1_555 1_555
O3Q C4Q 1_555 1_555
O4Q C4Q 1_555 1_555
C1D C2D 1_555 1_555
C2D C3D 1_555 1_555
C3D H1D 1_555 1_555
C4D C5D 1_555 1_555
C5D C6D 1_555 1_555
C6D H2D 1_555 1_555
C7D H3D 1_555 1_555
C8D C7D 1_555 1_555
H4D C8D 1_555 1_555
N1D C8D 1_555 1_555
N2D Zn1 1_555 1_555
N3D Zn2 1_555 1_555
O1D C1D 1_555 1_555
O2D C1D 1_555 1_555
O3D C4D 1_555 1_555
O4D Zn1 1_555 1_555
S1D C2D 1_555 1_555
S2D C5D 1_555 1_555
Zn2D N3B 1_555 1_555
C1K C2K 1_555 1_555
C2K S1D 1_555 1_555
C3K C3D 1_555 1_555
H1K C3K 1_555 1_555
O1K C1K 1_555 1_555
O2K C1K 1_555 1_555
C4M C5M 1_555 1_555
C5M S2D 1_555 1_555
C6M C6D 1_555 1_555
H2M C6M 1_555 1_555
O3M C4M 1_555 1_555
O4M C4M 1_555 1_555
C7M H3M 1_555 1_555
C8M C7M 1_555 1_555
H4M C8M 1_555 1_555
N1M C8M 1_555 1_555
N2M N1M 1_555 1_555
N3M C7M 1_555 1_555
Zn1M O4O 1_555 1_555
Zn2M O3M 1_555 1_555
C7O H3O 1_555 1_555
C8O C7O 1_555 1_555
H4O C8O 1_555 1_555
N1O C8O 1_555 1_555
N2O Zn1M 1_555 1_555
N3O C7O 1_555 1_555
Zn2O O3O 1_555 1_555
C7Q H3Q 1_555 1_555
C8Q C7Q 1_555 1_555
H4Q C8Q 1_555 1_555
N1Q C8Q 1_555 1_555
N2Q Zn1M 1_555 1_555
N3Q Zn2M 1_555 1_555
Zn2Q O3Q 1_555 1_555
O1M Zn2M 1_555 1_555
O1O Zn2O 1_555 1_555
O1Q Zn2Q 1_555 1_555
O2M Zn2M 1_555 1_555
O2O Zn2O 1_555 1_555
O2Q Zn2Q 1_555 1_555
Zn2G O1G 1_555 1_555
Zn2I O1I 1_555 1_555
Zn2K O1K 1_555 1_555
N2 N3 1_555 1_555
O1 Zn2 1_555 1_555
O2 Zn2 1_555 1_555
O3 Zn2 1_555 1_555
O4 Zn1 1_555 1_555
C2G C3G 1_555 1_555
O2G Zn2G 1_555 1_555
C5O C6O 1_555 1_555
C4B O4B 1_555 1_555
N1B N2B 1_555 1_555
N1B Zn2B 1_555 1_555
N2B N3B 1_555 1_555
O1B Zn2B 1_555 1_555
O2B Zn2B 1_555 1_555
O3B Zn2B 1_555 1_555
C2I C3I 1_555 1_555
O2I Zn2I 1_555 1_555
C5Q C6Q 1_555 1_555
O4Q Zn1M 1_555 1_555
C4D O4D 1_555 1_555
C7D N3D 1_555 1_555
N1D N2D 1_555 1_555
N1D Zn2D 1_555 1_555
N2D N3D 1_555 1_555
O1D Zn2D 1_555 1_555
O2D Zn2D 1_555 1_555
O3D Zn2D 1_555 1_555
C2K C3K 1_555 1_555
O2K Zn2K 1_555 1_555
C5M C6M 1_555 1_555
O4M Zn1M 1_555 1_555
N1M Zn2M 1_555 1_555
N2M N3M 1_555 1_555
N2M Zn1M 1_555 1_555
N3M Zn2O 1_555 1_555
N1O N2O 1_555 1_555
N1O Zn2O 1_555 1_555
N2O N3O 1_555 1_555
N3O Zn2Q 1_555 1_555
C7Q N3Q 1_555 1_555
N1Q N2Q 1_555 1_555
N1Q Zn2Q 1_555 1_555
N2Q N3Q 1_555 1_555

#END
