
#######################################################################
#
#                 Cambridge Crystallographic Data Centre
#                                CCDC 
#
#######################################################################
#
# If this CIF has been generated from an entry in the Cambridge 
# Structural Database, then it will include bibliographic, chemical, 
# crystal, experimental, refinement or atomic coordinate data resulting 
# from the CCDC's data processing and validation procedures.
#
#######################################################################

data_OMOWAQ
_chemical_formula_moiety         'C96 H84 N18 O30 S21 Zn11'
_symmetry_cell_setting           trigonal
_symmetry_space_group_name_H-M   'P -3 c 1'
_symmetry_Int_Tables_number      165
_space_group_name_Hall           '-P 3 2"c'
loop_
_symmetry_equiv_pos_site_id
_symmetry_equiv_pos_as_xyz
1 x,y,z
2 -y,x-y,z
3 -x+y,-x,z
4 x-y,-y,1/2-z
5 -x,-x+y,1/2-z
6 y,x,1/2-z
7 -x,-y,-z
8 y,-x+y,-z
9 x-y,x,-z
10 -x+y,y,1/2+z
11 x,x-y,1/2+z
12 -y,-x,1/2+z
_cell_length_a                   18.2130(6)
_cell_length_b                   18.2130(6)
_cell_length_c                   31.7057(12)
_cell_angle_alpha                90
_cell_angle_beta                 90
_cell_angle_gamma                120
_cell_volume                     9108.17
loop_
_atom_site_label
_atom_site_type_symbol
_atom_site_fract_x
_atom_site_fract_y
_atom_site_fract_z
_atom_site_U_iso_or_equiv
_atom_site_thermal_displace_type
C1 C 0.8289(3) 1.0418(4) 0.04563(16) 0.0552 Uani
H1 H 0.8111 1.0764 0.0330 0.0670 Uiso
C2 C 0.7868(3) 0.9573(4) 0.04538(16) 0.0571 Uani
H2 H 0.7348 0.9226 0.0324 0.0680 Uiso
C3 C 0.8207(3) 0.8203(3) 0.21147(14) 0.0523 Uani
C4 C 0.7506(4) 0.7508(4) 0.22830(16) 0.1150 Uani
H3 H 0.7077 0.7087 0.2121 0.1380 Uiso
C5 C 0.8429(3) 0.8431(3) 0.16668(13) 0.0436 Uani
N1 N 0.8326(2) 0.9311(2) 0.06715(11) 0.0404 Uani
N2 N 0.9028(2) 1.0000(2) 0.08017(10) 0.0363 Uani
N3 N 0.9011(2) 1.0685(2) 0.06716(11) 0.0403 Uani
O1 O 0.90824(19) 0.90850(19) 0.15844(9) 0.0466 Uani
O2 O 0.7907(2) 0.7910(2) 0.13978(10) 0.0647 Uani
S1 S 0.88483(8) 0.88483(8) 0.2500 0.0396 Uani
Zn1 Zn 1.0000 1.0000 0.11916(2) 0.0281 Uani
Zn2 Zn 0.81369(3) 0.81371(3) 0.079595(15) 0.0398 Uani
C6 C 0.6867(6) 0.7031(7) 0.0447(3) 0.0760 Uiso
O3 O 0.7499(5) 0.7047(5) 0.0491(2) 0.0660 Uiso
O4 O 0.6682(6) 0.7586(5) 0.0535(3) 0.0840 Uiso
S2 S 0.5217(6) 0.6177(6) 0.0292(3) 0.1060 Uiso
C7 C 0.6055(9) 0.5448(8) 0.0123(4) 0.0600 Uiso
C8 C 0.4894(14) 0.6478(13) 0.0312(6) 0.0800 Uiso
H4 H 0.5246 0.7030 0.0432 0.1210 Uiso
H5 H 0.4405 0.6161 0.0487 0.1210 Uiso
H6 H 0.4715 0.6536 0.0035 0.1210 Uiso
C9 C 0.6695(12) 0.5154(13) 0.0057(6) 0.0860 Uiso
H7 H 0.7271 0.5504 0.0148 0.1290 Uiso
H8 H 0.6419 0.4660 0.0233 0.1290 Uiso
H9 H 0.6687 0.4985 -0.0230 0.1290 Uiso
S3 S 0.3796(5) 0.4848(5) -0.0262(3) 0.0920 Uiso
C10 C 0.3771(7) 0.3928(8) -0.0254(4) 0.0540 Uiso
C11 C 0.4430(8) 0.3916(9) -0.0094(4) 0.0540 Uiso
H10 H 0.6977 0.5470 0.0479 0.1930 Uiso
H11 H 0.6611 0.4686 0.0176 0.1930 Uiso
C12 C 0.4693(16) 0.3259(13) -0.0029(7) 0.1130 Uiso
H12 H 0.4230 0.2737 -0.0132 0.1690 Uiso
H13 H 0.4717 0.3235 0.0273 0.1690 Uiso
H14 H 0.5215 0.3343 -0.0147 0.1690 Uiso
S4 S 0.6387(6) 0.5484(5) 0.0079(3) 0.0970 Uiso
C13 C 0.6158(8) 0.6213(7) 0.0249(3) 0.0820 Uiso
C14 C 0.5381(9) 0.6022(9) 0.0208(3) 0.0650 Uiso
C15 C 0.4870(8) 0.5130(8) 0.0009(4) 0.0470 Uiso
C16 C 0.5375(8) 0.4798(8) -0.0077(4) 0.0600 Uiso
C3E C 0.8203(3) 0.8207(3) 0.28853(14) 0.0523 Uani
C4E C 0.7508(4) 0.7506(4) 0.27170(16) 0.1150 Uani
H3E H 0.7087 0.7077 0.2879 0.1380 Uiso
C5E C 0.8431(3) 0.8429(3) 0.33332(13) 0.0436 Uani
O1E O 0.90850(19) 0.90824(19) 0.34156(9) 0.0466 Uani
O2E O 0.7910(2) 0.7907(2) 0.36022(10) 0.0647 Uani
C6F C 0.3133(6) 0.2969(7) -0.0447(3) 0.0760 Uiso
O3F O 0.2501(5) 0.2953(5) -0.0491(2) 0.0660 Uiso
O4F O 0.3318(6) 0.2414(5) -0.0535(3) 0.0840 Uiso
S2F S 0.4783(6) 0.3823(6) -0.0292(3) 0.1060 Uiso
C7F C 0.3945(9) 0.4552(8) -0.0123(4) 0.0600 Uiso
C8F C 0.5106(14) 0.3522(13) -0.0312(6) 0.0800 Uiso
H4F H 0.4754 0.2970 -0.0432 0.1210 Uiso
H5F H 0.5595 0.3839 -0.0487 0.1210 Uiso
H6F H 0.5285 0.3464 -0.0035 0.1210 Uiso
C9F C 0.3305(12) 0.4846(13) -0.0057(6) 0.0860 Uiso
H7F H 0.2729 0.4496 -0.0148 0.1290 Uiso
H8F H 0.3581 0.5340 -0.0233 0.1290 Uiso
H9F H 0.3313 0.5015 0.0230 0.1290 Uiso
S3F S 0.6204(5) 0.5152(5) 0.0262(3) 0.0920 Uiso
C10F C 0.6229(7) 0.6072(8) 0.0254(4) 0.0540 Uiso
C11F C 0.5570(8) 0.6084(9) 0.0094(4) 0.0540 Uiso
H10F H 0.3023 0.4530 -0.0479 0.1930 Uiso
H11F H 0.3389 0.5314 -0.0176 0.1930 Uiso
C12F C 0.5307(16) 0.6741(13) 0.0029(7) 0.1130 Uiso
H12F H 0.5770 0.7263 0.0132 0.1690 Uiso
H13F H 0.5283 0.6765 -0.0273 0.1690 Uiso
H14F H 0.4785 0.6657 0.0147 0.1690 Uiso
S4F S 0.3613(6) 0.4516(5) -0.0079(3) 0.0970 Uiso
C13F C 0.3842(8) 0.3787(7) -0.0249(3) 0.0820 Uiso
C14F C 0.4619(9) 0.3978(9) -0.0208(3) 0.0650 Uiso
C15F C 0.5130(8) 0.4870(8) -0.0009(4) 0.0470 Uiso
C16F C 0.4625(8) 0.5202(8) 0.0077(4) 0.0600 Uiso
C1A C 0.9582(4) 0.7871(5) 0.04563(16) 0.0552 Uani
H1A H 0.9236 0.7347 0.0330 0.0670 Uiso
C2A C 1.0427(4) 0.8295(5) 0.04538(16) 0.0571 Uani
H2A H 1.0774 0.8122 0.0324 0.0680 Uiso
C3A C 1.1797(3) 1.0004(4) 0.21147(14) 0.0523 Uani
C4A C 1.2492(4) 0.9998(6) 0.22830(16) 0.1150 Uani
H3A H 1.2913 0.9990 0.2121 0.1380 Uiso
C5A C 1.1569(3) 0.9998(4) 0.16668(13) 0.0436 Uani
N1A N 1.0689(2) 0.9015(3) 0.06715(11) 0.0404 Uani
N2A N 1.0000(2) 0.9028(3) 0.08017(10) 0.0363 Uani
N3A N 0.9315(2) 0.8326(3) 0.06716(11) 0.0403 Uani
O1A O 1.09150(19) 0.99974(27) 0.15844(9) 0.0466 Uani
O2A O 1.2090(2) 0.9997(3) 0.13978(10) 0.0647 Uani
S1A S 1.11517(8) 1.00000(11) 0.2500 0.0396 Uani
Zn2A Zn 1.18629(3) 0.99998(4) 0.079595(15) 0.0398 Uani
C6A C 1.2969(7) 0.9836(9) 0.0447(3) 0.0760 Uiso
O3A O 1.2953(5) 1.0452(7) 0.0491(2) 0.0660 Uiso
O4A O 1.2414(5) 0.9096(8) 0.0535(3) 0.0840 Uiso
S2A S 1.3823(6) 0.9040(8) 0.0292(3) 0.1060 Uiso
C7A C 1.4552(8) 1.0607(12) 0.0123(4) 0.0600 Uiso
C8A C 1.3522(13) 0.8416(19) 0.0312(6) 0.0800 Uiso
H4A H 1.2970 0.8216 0.0432 0.1210 Uiso
H5A H 1.3839 0.8244 0.0487 0.1210 Uiso
H6A H 1.3464 0.8179 0.0035 0.1210 Uiso
C9A C 1.4846(13) 1.1541(18) 0.0057(6) 0.0860 Uiso
H7A H 1.4496 1.1767 0.0148 0.1290 Uiso
H8A H 1.5340 1.1759 0.0233 0.1290 Uiso
H9A H 1.5015 1.1702 -0.0230 0.1290 Uiso
S3A S 1.5152(5) 0.8948(7) -0.0262(3) 0.0920 Uiso
C10A C 1.6072(8) 0.9843(11) -0.0254(4) 0.0540 Uiso
C11A C 1.6084(9) 1.0514(12) -0.0094(4) 0.0540 Uiso
H10A H 1.4530 1.1507 0.0479 0.1930 Uiso
H11A H 1.5314 1.1925 0.0176 0.1930 Uiso
C12A C 1.6741(13) 1.1434(21) -0.0029(7) 0.1130 Uiso
H12A H 1.7263 1.1493 -0.0132 0.1690 Uiso
H13A H 1.6765 1.1482 0.0273 0.1690 Uiso
H14A H 1.6657 1.1872 -0.0147 0.1690 Uiso
S4A S 1.4516(5) 1.0903(8) 0.0079(3) 0.0970 Uiso
C13A C 1.3787(7) 0.9945(11) 0.0249(3) 0.0820 Uiso
C14A C 1.3978(9) 0.9359(13) 0.0208(3) 0.0650 Uiso
C15A C 1.4870(8) 0.9740(11) 0.0009(4) 0.0470 Uiso
C16A C 1.5202(8) 1.0577(11) -0.0077(4) 0.0600 Uiso
C3D C 1.1793(3) 0.9996(4) 0.28853(14) 0.0523 Uani
C4D C 1.2494(4) 1.0002(6) 0.27170(16) 0.1150 Uani
H3D H 1.2923 1.0010 0.2879 0.1380 Uiso
C5D C 1.1571(3) 1.0002(4) 0.33332(13) 0.0436 Uani
O1D O 1.09176(19) 1.00026(27) 0.34156(9) 0.0466 Uani
O2D O 1.2093(2) 1.0003(3) 0.36022(10) 0.0647 Uani
C6G C 1.7031(7) 1.0164(9) -0.0447(3) 0.0760 Uiso
O3G O 1.7047(5) 0.9548(7) -0.0491(2) 0.0660 Uiso
O4G O 1.7586(5) 1.0904(8) -0.0535(3) 0.0840 Uiso
S2G S 1.6177(6) 1.0960(8) -0.0292(3) 0.1060 Uiso
C7G C 1.5448(8) 0.9393(12) -0.0123(4) 0.0600 Uiso
C8G C 1.6478(13) 1.1584(19) -0.0312(6) 0.0800 Uiso
H4G H 1.7030 1.1784 -0.0432 0.1210 Uiso
H5G H 1.6161 1.1756 -0.0487 0.1210 Uiso
H6G H 1.6536 1.1821 -0.0035 0.1210 Uiso
C9G C 1.5154(13) 0.8459(18) -0.0057(6) 0.0860 Uiso
H7G H 1.5504 0.8233 -0.0148 0.1290 Uiso
H8G H 1.4660 0.8241 -0.0233 0.1290 Uiso
H9G H 1.4985 0.8298 0.0230 0.1290 Uiso
S3G S 1.4848(5) 1.1052(7) 0.0262(3) 0.0920 Uiso
C10G C 1.3928(8) 1.0157(11) 0.0254(4) 0.0540 Uiso
C11G C 1.3916(9) 0.9486(12) 0.0094(4) 0.0540 Uiso
H10G H 1.5470 0.8493 -0.0479 0.1930 Uiso
H11G H 1.4686 0.8075 -0.0176 0.1930 Uiso
C12G C 1.3259(13) 0.8566(21) 0.0029(7) 0.1130 Uiso
H12G H 1.2737 0.8507 0.0132 0.1690 Uiso
H13G H 1.3235 0.8518 -0.0273 0.1690 Uiso
H14G H 1.3343 0.8128 0.0147 0.1690 Uiso
S4G S 1.5484(5) 0.9097(8) -0.0079(3) 0.0970 Uiso
C13G C 1.6213(7) 1.0055(11) -0.0249(3) 0.0820 Uiso
C14G C 1.6022(9) 1.0641(13) -0.0208(3) 0.0650 Uiso
C15G C 1.5130(8) 1.0260(11) -0.0009(4) 0.0470 Uiso
C16G C 1.4798(8) 0.9423(11) 0.0077(4) 0.0600 Uiso
C1B C 1.2129(5) 1.1711(3) 0.04563(16) 0.0552 Uani
H1B H 1.2653 1.1889 0.0330 0.0670 Uiso
C2B C 1.1705(5) 1.2132(3) 0.04538(16) 0.0571 Uani
H2B H 1.1878 1.2652 0.0324 0.0680 Uiso
C3B C 0.9996(4) 1.1793(3) 0.21147(14) 0.0523 Uani
C4B C 1.0002(6) 1.2494(4) 0.22830(16) 0.1150 Uani
H3B H 1.0010 1.2923 0.2121 0.1380 Uiso
C5B C 1.0002(4) 1.1571(3) 0.16668(13) 0.0436 Uani
N1B N 1.0985(3) 1.1674(2) 0.06715(11) 0.0404 Uani
N2B N 1.0972(3) 1.0972(2) 0.08017(10) 0.0363 Uani
N3B N 1.1674(3) 1.0989(2) 0.06716(11) 0.0403 Uani
O1B O 1.00026(27) 1.09176(19) 0.15844(9) 0.0466 Uani
O2B O 1.0003(3) 1.2093(2) 0.13978(10) 0.0647 Uani
S1B S 1.00000(11) 1.11517(8) 0.2500 0.0396 Uani
Zn2B Zn 1.00002(4) 1.18631(3) 0.079595(15) 0.0398 Uani
C6B C 1.0164(9) 1.3133(6) 0.0447(3) 0.0760 Uiso
O3B O 0.9548(7) 1.2501(5) 0.0491(2) 0.0660 Uiso
O4B O 1.0904(8) 1.3318(6) 0.0535(3) 0.0840 Uiso
S2B S 1.0960(8) 1.4783(6) 0.0292(3) 0.1060 Uiso
C7B C 0.9393(12) 1.3945(9) 0.0123(4) 0.0600 Uiso
C8B C 1.1584(19) 1.5106(14) 0.0312(6) 0.0800 Uiso
H4B H 1.1784 1.4754 0.0432 0.1210 Uiso
H5B H 1.1756 1.5595 0.0487 0.1210 Uiso
H6B H 1.1821 1.5285 0.0035 0.1210 Uiso
C9B C 0.8459(18) 1.3305(12) 0.0057(6) 0.0860 Uiso
H7B H 0.8233 1.2729 0.0148 0.1290 Uiso
H8B H 0.8241 1.3581 0.0233 0.1290 Uiso
H9B H 0.8298 1.3313 -0.0230 0.1290 Uiso
S3B S 1.1052(7) 1.6204(5) -0.0262(3) 0.0920 Uiso
C10B C 1.0157(11) 1.6229(7) -0.0254(4) 0.0540 Uiso
C11B C 0.9486(12) 1.5570(8) -0.0094(4) 0.0540 Uiso
H10B H 0.8493 1.3023 0.0479 0.1930 Uiso
H11B H 0.8075 1.3389 0.0176 0.1930 Uiso
C12B C 0.8566(21) 1.5307(16) -0.0029(7) 0.1130 Uiso
H12B H 0.8507 1.5770 -0.0132 0.1690 Uiso
H13B H 0.8518 1.5283 0.0273 0.1690 Uiso
H14B H 0.8128 1.4785 -0.0147 0.1690 Uiso
S4B S 0.9097(8) 1.3613(6) 0.0079(3) 0.0970 Uiso
C13B C 1.0055(11) 1.3842(8) 0.0249(3) 0.0820 Uiso
C14B C 1.0641(13) 1.4619(9) 0.0208(3) 0.0650 Uiso
C15B C 1.0260(11) 1.5130(8) 0.0009(4) 0.0470 Uiso
C16B C 0.9423(11) 1.4625(8) -0.0077(4) 0.0600 Uiso
C3C C 1.0004(4) 1.1797(3) 0.28853(14) 0.0523 Uani
C4C C 0.9998(6) 1.2492(4) 0.27170(16) 0.1150 Uani
H3C H 0.9990 1.2913 0.2879 0.1380 Uiso
C5C C 0.9998(4) 1.1569(3) 0.33332(13) 0.0436 Uani
O1C O 0.99974(27) 1.09150(19) 0.34156(9) 0.0466 Uani
O2C O 0.9997(3) 1.2090(2) 0.36022(10) 0.0647 Uani
C6H C 0.9836(9) 1.6867(6) -0.0447(3) 0.0760 Uiso
O3H O 1.0452(7) 1.7499(5) -0.0491(2) 0.0660 Uiso
O4H O 0.9096(8) 1.6682(6) -0.0535(3) 0.0840 Uiso
S2H S 0.9040(8) 1.5217(6) -0.0292(3) 0.1060 Uiso
C7H C 1.0607(12) 1.6055(9) -0.0123(4) 0.0600 Uiso
C8H C 0.8416(19) 1.4894(14) -0.0312(6) 0.0800 Uiso
H4H H 0.8216 1.5246 -0.0432 0.1210 Uiso
H5H H 0.8244 1.4405 -0.0487 0.1210 Uiso
H6H H 0.8179 1.4715 -0.0035 0.1210 Uiso
C9H C 1.1541(18) 1.6695(12) -0.0057(6) 0.0860 Uiso
H7H H 1.1767 1.7271 -0.0148 0.1290 Uiso
H8H H 1.1759 1.6419 -0.0233 0.1290 Uiso
H9H H 1.1702 1.6687 0.0230 0.1290 Uiso
S3H S 0.8948(7) 1.3796(5) 0.0262(3) 0.0920 Uiso
C10H C 0.9843(11) 1.3771(7) 0.0254(4) 0.0540 Uiso
C11H C 1.0514(12) 1.4430(8) 0.0094(4) 0.0540 Uiso
H10H H 1.1507 1.6977 -0.0479 0.1930 Uiso
H11H H 1.1925 1.6611 -0.0176 0.1930 Uiso
C12H C 1.1434(21) 1.4693(16) 0.0029(7) 0.1130 Uiso
H12H H 1.1493 1.4230 0.0132 0.1690 Uiso
H13H H 1.1482 1.4717 -0.0273 0.1690 Uiso
H14H H 1.1872 1.5215 0.0147 0.1690 Uiso
S4H S 1.0903(8) 1.6387(6) -0.0079(3) 0.0970 Uiso
C13H C 0.9945(11) 1.6158(8) -0.0249(3) 0.0820 Uiso
C14H C 0.9359(13) 1.5381(9) -0.0208(3) 0.0650 Uiso
C15H C 0.9740(11) 1.4870(8) -0.0009(4) 0.0470 Uiso
C16H C 1.0577(11) 1.5375(8) 0.0077(4) 0.0600 Uiso
C1C C 0.7871(5) 0.9582(4) 0.45437(16) 0.0552 Uani
H1C H 0.7347 0.9236 0.4670 0.0670 Uiso
C2C C 0.8295(5) 1.0427(4) 0.45462(16) 0.0571 Uani
H2C H 0.8122 1.0774 0.4676 0.0680 Uiso
N1C N 0.9015(3) 1.0689(2) 0.43285(11) 0.0404 Uani
N2C N 0.9028(3) 1.0000(2) 0.41983(10) 0.0363 Uani
N3C N 0.8326(3) 0.9315(2) 0.43284(11) 0.0403 Uani
Zn1C Zn 1.0000 1.0000 0.38084(2) 0.0281 Uani
Zn2C Zn 0.99998(4) 1.18629(3) 0.420405(15) 0.0398 Uani
C1D C 1.1711(3) 1.2129(5) 0.45437(16) 0.0552 Uani
H1D H 1.1889 1.2653 0.4670 0.0670 Uiso
C2D C 1.2132(3) 1.1705(5) 0.45462(16) 0.0571 Uani
H2D H 1.2652 1.1878 0.4676 0.0680 Uiso
N1D N 1.1674(2) 1.0985(3) 0.43285(11) 0.0404 Uani
N2D N 1.0972(2) 1.0972(3) 0.41983(10) 0.0363 Uani
N3D N 1.0989(2) 1.1674(3) 0.43284(11) 0.0403 Uani
Zn2D Zn 1.18631(3) 1.00002(4) 0.420405(15) 0.0398 Uani
C1E C 1.0418(4) 0.8289(3) 0.45437(16) 0.0552 Uani
H1E H 1.0764 0.8111 0.4670 0.0670 Uiso
C2E C 0.9573(4) 0.7868(3) 0.45462(16) 0.0571 Uani
H2E H 0.9226 0.7348 0.4676 0.0680 Uiso
N1E N 0.9311(2) 0.8326(2) 0.43285(11) 0.0404 Uani
N2E N 1.0000(2) 0.9028(2) 0.41983(10) 0.0363 Uani
N3E N 1.0685(2) 0.9011(2) 0.43284(11) 0.0403 Uani
Zn2E Zn 0.81371(3) 0.81369(3) 0.420405(15) 0.0398 Uani
Zn2F Zn 0.18631(3) 0.18629(3) -0.079595(15) 0.0398 Uani
Zn2G Zn 1.81371(3) 1.00002(4) -0.079595(15) 0.0398 Uani
Zn2H Zn 0.99998(4) 1.81369(3) -0.079595(15) 0.0398 Uani
O3C O 1.0452(7) 1.2953(5) 0.4509(2) 0.0660 Uiso
O3D O 1.2501(5) 0.9548(7) 0.4509(2) 0.0660 Uiso
O3E O 0.7047(5) 0.7499(5) 0.4509(2) 0.0660 Uiso
O4C O 0.9096(8) 1.2414(5) 0.4465(3) 0.0840 Uiso
O4D O 1.3318(6) 1.0904(8) 0.4465(3) 0.0840 Uiso
O4E O 0.7586(5) 0.6682(6) 0.4465(3) 0.0840 Uiso
loop_
_atom_site_aniso_label
_atom_site_aniso_U_11
_atom_site_aniso_U_22
_atom_site_aniso_U_33
_atom_site_aniso_U_23
_atom_site_aniso_U_13
_atom_site_aniso_U_12
C1 0.057(3) 0.068(4) 0.051(3) 0.004(3) -0.016(2) 0.039(3)
C2 0.053(3) 0.070(4) 0.050(3) -0.009(3) -0.024(2) 0.032(3)
C3 0.044(3) 0.050(3) 0.029(3) -0.001(2) -0.0025(19) -0.002(2)
C4 0.093(5) 0.092(5) 0.037(3) -0.001(3) -0.006(3) -0.046(4)
C5 0.049(3) 0.047(3) 0.028(2) 0.001(2) 0.003(2) 0.019(2)
N1 0.0346(19) 0.042(2) 0.0372(19) -0.0065(16) -0.0080(16) 0.0136(17)
N2 0.039(2) 0.0357(19) 0.0336(19) 0.0004(15) -0.0049(15) 0.0183(17)
N3 0.046(2) 0.043(2) 0.0385(19) 0.0050(16) -0.0049(16) 0.0271(18)
O1 0.0435(18) 0.0437(19) 0.0374(17) 0.0058(14) 0.0057(14) 0.0104(16)
O2 0.062(2) 0.064(2) 0.0324(18) -0.0032(16) -0.0049(16) 0.0047(19)
S1 0.0351(6) 0.0351(6) 0.0305(8) -0.0002(3) 0.0002(3) 0.0040(7)
Zn1 0.0301(3) 0.0301(3) 0.0242(4) 0.000 0.000 0.01506(14)
Zn2 0.0376(3) 0.0380(3) 0.0306(3) -0.0057(2) -0.0058(2) 0.0089(2)
C3E 0.05 0.044 0.029 0.0025 0.001 -0.002
C4E 0.092 0.093 0.037 0.006 0.001 -0.046
C5E 0.047 0.049 0.028 -0.003 -0.001 0.019
O1E 0.0437 0.0435 0.0374 -0.0057 -0.0058 0.0104
O2E 0.064 0.062 0.0324 0.0049 0.0032 0.0047
C1A 0.068 0.047 0.051 -0.02 -0.004 0.029
C2A 0.07 0.059 0.05 -0.015 0.009 0.038
C3A 0.05 0.098 0.029 -0.0015 0.001 0.052
C4A 0.092 0.277 0.037 -0.005 0.001 0.138
C5A 0.047 0.058 0.028 0.002 -0.001 0.028
N1A 0.042 0.0494 0.0372 -0.0015 0.0065 0.0284
N2A 0.0357 0.0381 0.0336 -0.0053 -0.0004 0.0174
N3A 0.043 0.0348 0.0385 -0.0099 -0.005 0.0159
O1A 0.0437 0.0664 0.0374 -0.0001 -0.0058 0.0333
O2A 0.064 0.1166 0.0324 -0.0017 0.0032 0.0593
S1A 0.0351 0.0622 0.0305 0.0004 0.0002 0.0311
Zn2A 0.038 0.0578 0.0306 -0.0001 0.0057 0.0291
C3D 0.044 0.098 0.029 -0.0015 -0.0025 0.046
C4D 0.093 0.277 0.037 -0.005 -0.006 0.139
C5D 0.049 0.058 0.028 0.002 0.003 0.03
O1D 0.0435 0.0664 0.0374 -0.0001 0.0057 0.0331
O2D 0.062 0.1166 0.0324 -0.0017 -0.0049 0.0573
C1B 0.047 0.057 0.051 0.016 0.02 0.018
C2B 0.059 0.053 0.05 0.024 0.015 0.021
C3B 0.098 0.044 0.029 0.0025 0.0015 0.046
C4B 0.277 0.093 0.037 0.006 0.005 0.139
C5B 0.058 0.049 0.028 -0.003 -0.002 0.03
N1B 0.0494 0.0346 0.0372 0.008 0.0015 0.021
N2B 0.0381 0.039 0.0336 0.0049 0.0053 0.0207
N3B 0.0348 0.046 0.0385 0.0049 0.0099 0.0189
O1B 0.0664 0.0435 0.0374 -0.0057 0.0001 0.0331
O2B 0.1166 0.062 0.0324 0.0049 0.0017 0.0573
S1B 0.0622 0.0351 0.0305 -0.0002 -0.0004 0.0311
Zn2B 0.0578 0.0376 0.0306 0.0058 0.0001 0.0287
C3C 0.098 0.05 0.029 -0.001 0.0015 0.052
C4C 0.277 0.092 0.037 -0.001 0.005 0.138
C5C 0.058 0.047 0.028 0.001 -0.002 0.028
O1C 0.0664 0.0437 0.0374 0.0058 0.0001 0.0333
O2C 0.1166 0.064 0.0324 -0.0032 0.0017 0.0593
C1C 0.047 0.068 0.051 0.004 0.02 0.029
C2C 0.059 0.07 0.05 -0.009 0.015 0.038
N1C 0.0494 0.042 0.0372 -0.0065 0.0015 0.0284
N2C 0.0381 0.0357 0.0336 0.0004 0.0053 0.0174
N3C 0.0348 0.043 0.0385 0.005 0.0099 0.0159
Zn1C 0.03008 0.0301 0.0242 0 0 0.01504
Zn2C 0.0578 0.038 0.0306 -0.0057 0.0001 0.0291
C1D 0.057 0.047 0.051 -0.02 -0.016 0.018
C2D 0.053 0.059 0.05 -0.015 -0.024 0.021
N1D 0.0346 0.0494 0.0372 -0.0015 -0.008 0.021
N2D 0.039 0.0381 0.0336 -0.0053 -0.0049 0.0207
N3D 0.046 0.0348 0.0385 -0.0099 -0.0049 0.0189
Zn2D 0.0376 0.0578 0.0306 -0.0001 -0.0058 0.0287
C1E 0.068 0.057 0.051 0.016 -0.004 0.039
C2E 0.07 0.053 0.05 0.024 0.009 0.032
N1E 0.042 0.0346 0.0372 0.008 0.0065 0.0136
N2E 0.0357 0.039 0.0336 0.0049 -0.0004 0.0183
N3E 0.043 0.046 0.0385 0.0049 -0.005 0.0271
Zn2E 0.038 0.0376 0.0306 0.0058 0.0057 0.0089
Zn2F 0.0376 0.038 0.0306 -0.0057 -0.0058 0.0089
Zn2G 0.038 0.0578 0.0306 -0.0001 0.0057 0.0291
Zn2H 0.0578 0.0376 0.0306 0.0058 0.0001 0.0287
loop_
_geom_bond_atom_site_label_1
_geom_bond_atom_site_label_2
_geom_bond_site_symmetry_1
_geom_bond_site_symmetry_2
C1 H1 1_555 1_555
C2 C1 1_555 1_555
H2 C2 1_555 1_555
C3 C4 1_555 1_555
C4 H3 1_555 1_555
C5 C3 1_555 1_555
N1 C2 1_555 1_555
N2 N1 1_555 1_555
N3 C1 1_555 1_555
O1 C5 1_555 1_555
O2 C5 1_555 1_555
S1 C3 1_555 1_555
Zn1 N2 1_555 1_555
Zn2 N1 1_555 1_555
C6 O3 1_555 1_555
O3 Zn2 1_555 1_555
O4 Zn2 1_555 1_555
S2 C8 1_555 1_555
C7 C9 1_555 1_555
C8 H4 1_555 1_555
H4 S2 1_555 1_555
H5 S2 1_555 1_555
H6 S2 1_555 1_555
C9 H7 1_555 1_555
H7 S4 1_555 1_555
H8 C9 1_555 1_555
H9 C9 1_555 1_555
S3 C10 1_555 1_555
C10 C11 1_555 1_555
C11 C12 1_555 1_555
H10 S4 1_555 1_555
H11 C9 1_555 1_555
C12 H12 1_555 1_555
H13 C12 1_555 1_555
H14 C12 1_555 1_555
S4 C7 1_555 1_555
C13 C6 1_555 1_555
C14 S2 1_555 1_555
C15 S3 1_555 1_555
C16 C7 1_555 1_555
C3E S1 1_555 1_555
C4E C4 1_555 1_555
H3E C4E 1_555 1_555
C5E C3E 1_555 1_555
O1E C5E 1_555 1_555
O2E C5E 1_555 1_555
C6F C10 1_555 1_555
O3F C6F 1_555 1_555
O4F C6F 1_555 1_555
S2F C10 1_555 1_555
C7F S3 1_555 1_555
C8F C12 1_555 1_555
H4F S2F 1_555 1_555
H5F S2F 1_555 1_555
H6F C12 1_555 1_555
C9F S3 1_555 1_555
H7F C9F 1_555 1_555
H8F S3 1_555 1_555
H9F C9F 1_555 1_555
S3F C7 1_555 1_555
C10F C6 1_555 1_555
C11F S2 1_555 1_555
H10F S3 1_555 1_555
H11F S3 1_555 1_555
C12F S2 1_555 1_555
H12F C12F 1_555 1_555
H13F C12F 1_555 1_555
H14F S2 1_555 1_555
S4F S3 1_555 1_555
C13F S3 1_555 1_555
C14F C10 1_555 1_555
C15F C7 1_555 1_555
C16F S2 1_555 1_555
C1A H1A 1_555 1_555
C2A C1A 1_555 1_555
H2A C2A 1_555 1_555
C3A C4A 1_555 1_555
C4A H3A 1_555 1_555
C5A C3A 1_555 1_555
N1A C2A 1_555 1_555
N2A Zn1 1_555 1_555
N3A Zn2 1_555 1_555
O1A Zn1 1_555 1_555
O2A C5A 1_555 1_555
S1A C3A 1_555 1_555
Zn2A N1A 1_555 1_555
C6A O3A 1_555 1_555
O3A Zn2A 1_555 1_555
O4A Zn2A 1_555 1_555
S2A C8A 1_555 1_555
C7A C9A 1_555 1_555
C8A H4A 1_555 1_555
H4A S2A 1_555 1_555
H5A S2A 1_555 1_555
H6A S2A 1_555 1_555
C9A H7A 1_555 1_555
H7A S4A 1_555 1_555
H8A C9A 1_555 1_555
H9A C9A 1_555 1_555
S3A C10A 1_555 1_555
C10A C11A 1_555 1_555
C11A C12A 1_555 1_555
H10A S4A 1_555 1_555
H11A C9A 1_555 1_555
C12A H12A 1_555 1_555
H13A C12A 1_555 1_555
H14A C12A 1_555 1_555
S4A C7A 1_555 1_555
C13A C6A 1_555 1_555
C14A S2A 1_555 1_555
C15A S3A 1_555 1_555
C16A C7A 1_555 1_555
C3D S1A 1_555 1_555
C4D C4A 1_555 1_555
H3D C4D 1_555 1_555
C5D C3D 1_555 1_555
O1D C5D 1_555 1_555
O2D C5D 1_555 1_555
C6G C10A 1_555 1_555
O3G C6G 1_555 1_555
O4G C6G 1_555 1_555
S2G C10A 1_555 1_555
C7G S3A 1_555 1_555
C8G C12A 1_555 1_555
H4G S2G 1_555 1_555
H5G S2G 1_555 1_555
H6G C12A 1_555 1_555
C9G S3A 1_555 1_555
H7G C9G 1_555 1_555
H8G S3A 1_555 1_555
H9G C9G 1_555 1_555
S3G C7A 1_555 1_555
C10G C6A 1_555 1_555
C11G S2A 1_555 1_555
H10G S3A 1_555 1_555
H11G S3A 1_555 1_555
C12G S2A 1_555 1_555
H12G C12G 1_555 1_555
H13G C12G 1_555 1_555
H14G S2A 1_555 1_555
S4G S3A 1_555 1_555
C13G S3A 1_555 1_555
C14G C10A 1_555 1_555
C15G C7A 1_555 1_555
C16G S2A 1_555 1_555
C1B H1B 1_555 1_555
C2B C1B 1_555 1_555
H2B C2B 1_555 1_555
C3B C4B 1_555 1_555
C4B H3B 1_555 1_555
C5B C3B 1_555 1_555
N1B C2B 1_555 1_555
N2B Zn1 1_555 1_555
N3B Zn2A 1_555 1_555
O1B Zn1 1_555 1_555
O2B C5B 1_555 1_555
S1B C3B 1_555 1_555
Zn2B N3 1_555 1_555
C6B O3B 1_555 1_555
O3B Zn2B 1_555 1_555
O4B Zn2B 1_555 1_555
S2B C8B 1_555 1_555
C7B C9B 1_555 1_555
C8B H4B 1_555 1_555
H4B S2B 1_555 1_555
H5B S2B 1_555 1_555
H6B S2B 1_555 1_555
C9B H7B 1_555 1_555
H7B S4B 1_555 1_555
H8B C9B 1_555 1_555
H9B C9B 1_555 1_555
S3B C10B 1_555 1_555
C10B C11B 1_555 1_555
C11B C12B 1_555 1_555
H10B S4B 1_555 1_555
H11B C9B 1_555 1_555
C12B H12B 1_555 1_555
H13B C12B 1_555 1_555
H14B C12B 1_555 1_555
S4B C7B 1_555 1_555
C13B C6B 1_555 1_555
C14B S2B 1_555 1_555
C15B S3B 1_555 1_555
C16B C7B 1_555 1_555
C3C S1B 1_555 1_555
C4C C4B 1_555 1_555
H3C C4C 1_555 1_555
C5C C3C 1_555 1_555
O1C C5C 1_555 1_555
O2C C5C 1_555 1_555
C6H C10B 1_555 1_555
O3H C6H 1_555 1_555
O4H C6H 1_555 1_555
S2H C10B 1_555 1_555
C7H S3B 1_555 1_555
C8H C12B 1_555 1_555
H4H S2H 1_555 1_555
H5H S2H 1_555 1_555
H6H C12B 1_555 1_555
C9H S3B 1_555 1_555
H7H C9H 1_555 1_555
H8H S3B 1_555 1_555
H9H C9H 1_555 1_555
S3H C7B 1_555 1_555
C10H C6B 1_555 1_555
C11H S2B 1_555 1_555
H10H S3B 1_555 1_555
H11H S3B 1_555 1_555
C12H S2B 1_555 1_555
H12H C12H 1_555 1_555
H13H C12H 1_555 1_555
H14H S2B 1_555 1_555
S4H S3B 1_555 1_555
C13H S3B 1_555 1_555
C14H C10B 1_555 1_555
C15H C7B 1_555 1_555
C16H S2B 1_555 1_555
C1C H1C 1_555 1_555
C2C C1C 1_555 1_555
H2C C2C 1_555 1_555
N1C C2C 1_555 1_555
N2C N1C 1_555 1_555
N3C C1C 1_555 1_555
Zn1C O1E 1_555 1_555
Zn2C O2C 1_555 1_555
C1D H1D 1_555 1_555
C2D C1D 1_555 1_555
H2D C2D 1_555 1_555
N1D C2D 1_555 1_555
N2D Zn1C 1_555 1_555
N3D Zn2C 1_555 1_555
Zn2D O2D 1_555 1_555
C1E H1E 1_555 1_555
C2E C1E 1_555 1_555
H2E C2E 1_555 1_555
N1E C2E 1_555 1_555
N2E Zn1C 1_555 1_555
N3E Zn2D 1_555 1_555
Zn2E O2E 1_555 1_555
Zn2F O3F 1_555 1_555
Zn2G O3G 1_555 1_555
Zn2H O3H 1_555 1_555
O3C Zn2C 1_555 1_555
O3D Zn2D 1_555 1_555
O3E Zn2E 1_555 1_555
O4C Zn2C 1_555 1_555
O4D Zn2D 1_555 1_555
O4E Zn2E 1_555 1_555
N2 N3 1_555 1_555
O1 Zn1 1_555 1_555
O2 Zn2 1_555 1_555
C6 O4 1_555 1_555
S2 C13 1_555 1_555
S2 C10F 1_555 1_555
C7 C13 1_555 1_555
C7 C10F 1_555 1_555
C7 C11F 1_555 1_555
C8 H5 1_555 1_555
C8 H6 1_555 1_555
C8 C14 1_555 1_555
C8 C12F 1_555 1_555
C8 H14F 1_555 1_555
H6 C12F 1_555 1_555
C9 S4 1_555 1_555
C9 S3F 1_555 1_555
H8 S4 1_555 1_555
H8 S3F 1_555 1_555
H9 S4 1_555 1_555
S3 C16F 1_555 1_555
C10 C7F 1_555 1_555
C10 S4F 1_555 1_555
C11 S2F 1_555 1_555
C11 C7F 1_555 1_555
C11 C13F 1_555 1_555
C11 C15F 1_555 1_555
H10 S3F 1_555 1_555
H11 S3F 1_555 1_555
C12 S2F 1_555 1_555
C12 C14F 1_555 1_555
H14 S2F 1_555 1_555
H14 C8F 1_555 1_555
S4 C13 1_555 1_555
S4 C16 1_555 1_555
S4 S3F 1_555 1_555
S4 C10F 1_555 1_555
C13 C14 1_555 1_555
C13 S3F 1_555 1_555
C13 C11F 1_555 1_555
C14 C15 1_555 1_555
C14 C10F 1_555 1_555
C14 C12F 1_555 1_555
C14 C16F 1_555 1_555
C15 C16 1_555 1_555
C15 C7F 1_555 1_555
C15 C11F 1_555 1_555
C15 C15F 1_555 1_555
C15 C16F 1_555 1_555
C16 S2F 1_555 1_555
C16 S3F 1_555 1_555
C16 C14F 1_555 1_555
C16 C15F 1_555 1_555
C3E C4E 1_555 1_555
C6F C13F 1_555 1_555
O4F Zn2F 1_555 1_555
S2F C8F 1_555 1_555
S2F H6F 1_555 1_555
S2F C13F 1_555 1_555
S2F C14F 1_555 1_555
C7F C9F 1_555 1_555
C7F S4F 1_555 1_555
C7F C13F 1_555 1_555
C7F C16F 1_555 1_555
C8F H4F 1_555 1_555
C8F H5F 1_555 1_555
C8F H6F 1_555 1_555
C8F C14F 1_555 1_555
C9F H8F 1_555 1_555
C9F H11F 1_555 1_555
C9F S4F 1_555 1_555
H7F S4F 1_555 1_555
H8F S4F 1_555 1_555
H9F S4F 1_555 1_555
S3F C10F 1_555 1_555
S3F C15F 1_555 1_555
C10F C11F 1_555 1_555
C11F C12F 1_555 1_555
H10F S4F 1_555 1_555
C12F H14F 1_555 1_555
S4F C13F 1_555 1_555
S4F C16F 1_555 1_555
C13F C14F 1_555 1_555
C14F C15F 1_555 1_555
C15F C16F 1_555 1_555
C1A N3A 1_555 1_555
C5A O1A 1_555 1_555
N1A N2A 1_555 1_555
N2A N3A 1_555 1_555
O2A Zn2A 1_555 1_555
C6A O4A 1_555 1_555
S2A C13A 1_555 1_555
S2A C10G 1_555 1_555
C7A C13A 1_555 1_555
C7A C10G 1_555 1_555
C7A C11G 1_555 1_555
C8A H5A 1_555 1_555
C8A H6A 1_555 1_555
C8A C14A 1_555 1_555
C8A C12G 1_555 1_555
C8A H14G 1_555 1_555
H6A C12G 1_555 1_555
C9A S4A 1_555 1_555
C9A S3G 1_555 1_555
H8A S4A 1_555 1_555
H8A S3G 1_555 1_555
H9A S4A 1_555 1_555
S3A C16G 1_555 1_555
C10A C7G 1_555 1_555
C10A S4G 1_555 1_555
C11A S2G 1_555 1_555
C11A C7G 1_555 1_555
C11A C13G 1_555 1_555
C11A C15G 1_555 1_555
H10A S3G 1_555 1_555
H11A S3G 1_555 1_555
C12A S2G 1_555 1_555
C12A C14G 1_555 1_555
H14A S2G 1_555 1_555
H14A C8G 1_555 1_555
S4A C13A 1_555 1_555
S4A C16A 1_555 1_555
S4A S3G 1_555 1_555
S4A C10G 1_555 1_555
C13A C14A 1_555 1_555
C13A S3G 1_555 1_555
C13A C11G 1_555 1_555
C14A C15A 1_555 1_555
C14A C10G 1_555 1_555
C14A C12G 1_555 1_555
C14A C16G 1_555 1_555
C15A C16A 1_555 1_555
C15A C7G 1_555 1_555
C15A C11G 1_555 1_555
C15A C15G 1_555 1_555
C15A C16G 1_555 1_555
C16A S2G 1_555 1_555
C16A S3G 1_555 1_555
C16A C14G 1_555 1_555
C16A C15G 1_555 1_555
C3D C4D 1_555 1_555
O1D Zn1C 1_555 1_555
C6G C13G 1_555 1_555
O4G Zn2G 1_555 1_555
S2G C8G 1_555 1_555
S2G H6G 1_555 1_555
S2G C13G 1_555 1_555
S2G C14G 1_555 1_555
C7G C9G 1_555 1_555
C7G S4G 1_555 1_555
C7G C13G 1_555 1_555
C7G C16G 1_555 1_555
C8G H4G 1_555 1_555
C8G H5G 1_555 1_555
C8G H6G 1_555 1_555
C8G C14G 1_555 1_555
C9G H8G 1_555 1_555
C9G H11G 1_555 1_555
C9G S4G 1_555 1_555
H7G S4G 1_555 1_555
H8G S4G 1_555 1_555
H9G S4G 1_555 1_555
S3G C10G 1_555 1_555
S3G C15G 1_555 1_555
C10G C11G 1_555 1_555
C11G C12G 1_555 1_555
H10G S4G 1_555 1_555
C12G H14G 1_555 1_555
S4G C13G 1_555 1_555
S4G C16G 1_555 1_555
C13G C14G 1_555 1_555
C14G C15G 1_555 1_555
C15G C16G 1_555 1_555
C1B N3B 1_555 1_555
C5B O1B 1_555 1_555
N1B N2B 1_555 1_555
N1B Zn2B 1_555 1_555
N2B N3B 1_555 1_555
O2B Zn2B 1_555 1_555
C6B O4B 1_555 1_555
S2B C13B 1_555 1_555
S2B C10H 1_555 1_555
C7B C13B 1_555 1_555
C7B C10H 1_555 1_555
C7B C11H 1_555 1_555
C8B H5B 1_555 1_555
C8B H6B 1_555 1_555
C8B C14B 1_555 1_555
C8B C12H 1_555 1_555
C8B H14H 1_555 1_555
H6B C12H 1_555 1_555
C9B S4B 1_555 1_555
C9B S3H 1_555 1_555
H8B S4B 1_555 1_555
H8B S3H 1_555 1_555
H9B S4B 1_555 1_555
S3B C16H 1_555 1_555
C10B C7H 1_555 1_555
C10B S4H 1_555 1_555
C11B S2H 1_555 1_555
C11B C7H 1_555 1_555
C11B C13H 1_555 1_555
C11B C15H 1_555 1_555
H10B S3H 1_555 1_555
H11B S3H 1_555 1_555
C12B S2H 1_555 1_555
C12B C14H 1_555 1_555
H14B S2H 1_555 1_555
H14B C8H 1_555 1_555
S4B C13B 1_555 1_555
S4B C16B 1_555 1_555
S4B S3H 1_555 1_555
S4B C10H 1_555 1_555
C13B C14B 1_555 1_555
C13B S3H 1_555 1_555
C13B C11H 1_555 1_555
C14B C15B 1_555 1_555
C14B C10H 1_555 1_555
C14B C12H 1_555 1_555
C14B C16H 1_555 1_555
C15B C16B 1_555 1_555
C15B C7H 1_555 1_555
C15B C11H 1_555 1_555
C15B C15H 1_555 1_555
C15B C16H 1_555 1_555
C16B S2H 1_555 1_555
C16B S3H 1_555 1_555
C16B C14H 1_555 1_555
C16B C15H 1_555 1_555
C3C C4C 1_555 1_555
O1C Zn1C 1_555 1_555
C6H C13H 1_555 1_555
O4H Zn2H 1_555 1_555
S2H C8H 1_555 1_555
S2H H6H 1_555 1_555
S2H C13H 1_555 1_555
S2H C14H 1_555 1_555
C7H C9H 1_555 1_555
C7H S4H 1_555 1_555
C7H C13H 1_555 1_555
C7H C16H 1_555 1_555
C8H H4H 1_555 1_555
C8H H5H 1_555 1_555
C8H H6H 1_555 1_555
C8H C14H 1_555 1_555
C9H H8H 1_555 1_555
C9H H11H 1_555 1_555
C9H S4H 1_555 1_555
H7H S4H 1_555 1_555
H8H S4H 1_555 1_555
H9H S4H 1_555 1_555
S3H C10H 1_555 1_555
S3H C15H 1_555 1_555
C10H C11H 1_555 1_555
C11H C12H 1_555 1_555
H10H S4H 1_555 1_555
C12H H14H 1_555 1_555
S4H C13H 1_555 1_555
S4H C16H 1_555 1_555
C13H C14H 1_555 1_555
C14H C15H 1_555 1_555
C15H C16H 1_555 1_555
N1C Zn2C 1_555 1_555
N2C N3C 1_555 1_555
N2C Zn1C 1_555 1_555
N3C Zn2E 1_555 1_555
C1D N3D 1_555 1_555
N1D N2D 1_555 1_555
N1D Zn2D 1_555 1_555
N2D N3D 1_555 1_555
C1E N3E 1_555 1_555
N1E N2E 1_555 1_555
N1E Zn2E 1_555 1_555
N2E N3E 1_555 1_555

#END
