
#######################################################################
#
#                 Cambridge Crystallographic Data Centre
#                                CCDC 
#
#######################################################################
#
# If this CIF has been generated from an entry in the Cambridge 
# Structural Database, then it will include bibliographic, chemical, 
# crystal, experimental, refinement or atomic coordinate data resulting 
# from the CCDC's data processing and validation procedures.
#
#######################################################################

data_OMUKUE
_chemical_formula_moiety         '(C72 H42 N20 O24 S3 Zn8 2-)n'
_symmetry_cell_setting           monoclinic
_symmetry_space_group_name_H-M   'C 2/m'
_symmetry_Int_Tables_number      12
_space_group_name_Hall           '-C 2y'
loop_
_symmetry_equiv_pos_site_id
_symmetry_equiv_pos_as_xyz
1 x,y,z
2 -x,y,-z
3 1/2+x,1/2+y,z
4 1/2-x,1/2+y,-z
5 -x,-y,-z
6 x,-y,z
7 1/2-x,1/2-y,-z
8 1/2+x,1/2-y,z
_cell_length_a                   34.858(5)
_cell_length_b                   38.935(5)
_cell_length_c                   19.106(3)
_cell_angle_alpha                90
_cell_angle_beta                 121.613(2)
_cell_angle_gamma                90
_cell_volume                     22082.7
loop_
_atom_site_label
_atom_site_type_symbol
_atom_site_fract_x
_atom_site_fract_y
_atom_site_fract_z
C1 C 0.3717(2) 0.16725(14) 1.2051(3)
H1 H 0.3659 0.1781 1.2420
C2 C 0.41151(19) 0.16749(12) 1.2083(3)
H2 H 0.4379 0.1784 1.2477
C3 C 0.41437(14) 0.16248(10) 0.9275(3)
H3 H 0.4415 0.1717 0.9378
C4 C 0.37528(15) 0.16338(10) 0.8557(3)
H4 H 0.3706 0.1736 0.8079
C5 C 0.21842(16) 0.16900(13) 0.8440(3)
H5 H 0.1986 0.1805 0.7955
C6 C 0.21688(17) 0.16842(13) 0.9145(3)
H6 H 0.1955 0.1789 0.9224
C7 C 0.18831(12) 0.22177(9) 1.2893(2)
C8 C 0.19289(13) 0.18753(10) 1.2802(2)
H7 H 0.1835 0.1715 1.3043
C9 C 0.21182(14) 0.17624(10) 1.2344(3)
H8 H 0.2150 0.1529 1.2284
C10 C 0.22543(12) 0.20020(11) 1.1987(2)
C11 C 0.22022(13) 0.23435(10) 1.2074(2)
H9 H 0.2291 0.2505 1.1829
C12 C 0.20184(13) 0.24496(9) 1.2525(2)
H10 H 0.1985 0.2683 1.2580
C13 C 0.24708(15) 0.18707(14) 1.1519(3)
C14 C 0.13225(13) 0.25566(9) 1.2992(2)
C15 C 0.09962(13) 0.25327(9) 1.2161(2)
H11 H 0.1019 0.2367 1.1834
C16 C 0.06271(13) 0.27649(12) 1.1816(3)
H12 H 0.0408 0.2750 1.1260
C17 C 0.05875(15) 0.30155(11) 1.2302(3)
C18 C 0.08952(16) 0.30223(11) 1.3089(3)
H13 H 0.0864 0.3179 1.3424
C19 C 0.12655(13) 0.28032(10) 1.3442(2)
H14 H 0.1481 0.2825 1.3998
C20 C 0.01816(19) 0.32503(13) 1.1878(4)
C21 C 0.18460(14) 0.21830(9) 1.4132(2)
C22 C 0.22908(14) 0.21078(9) 1.4656(2)
H15 H 0.2496 0.2160 1.4501
C23 C 0.24424(14) 0.19561(10) 1.5407(2)
H16 H 0.2747 0.1906 1.5752
C24 C 0.21456(18) 0.18785(10) 1.5645(3)
C25 C 0.17023(17) 0.19504(11) 1.5130(3)
H17 H 0.1498 0.1897 1.5287
C26 C 0.15507(14) 0.21022(11) 1.4377(2)
H18 H 0.1246 0.2150 1.4032
C27 C 0.2328(2) 0.17042(11) 1.6484(3)
C28 C 0.25253(18) 0.01814(10) 1.1127(3)
H19 H 0.2375 0.0315 1.1312
C29 C 0.27729(13) 0.03132(9) 1.0821(2)
C30 C 0.28459(14) 0.06778(10) 1.0720(2)
C31 C 0.48780(12) 0.01792(8) 1.1586(2)
H20 H 0.5136 0.0312 1.1888
C32 C 0.44560(11) 0.03139(7) 1.1091(2)
C33 C 0.43135(14) 0.06766(9) 1.0924(2)
C34 C 0.25751(14) 0.01794(8) 0.7126(2)
H21 H 0.2444 0.0311 0.6649
C35 C 0.27858(11) 0.03162(8) 0.78936(19)
C36 C 0.28455(11) 0.06798(9) 0.8136(3)
N1 N 0.34210(11) 0.14865(8) 1.1394(2)
N2 N 0.36426(11) 0.13820(6) 1.10303(16)
N3 N 0.40591(11) 0.14911(8) 1.1438(2)
N4 N 0.40801(10) 0.14597(7) 0.98244(17)
N5 N 0.36487(10) 0.13693(6) 0.94230(17)
N6 N 0.34404(9) 0.14719(7) 0.86376(17)
N7 N 0.25353(10) 0.15009(8) 0.85795(19)
N8 N 0.27438(9) 0.13853(7) 0.93445(18)
N9 N 0.25259(12) 0.14965(8) 0.96991(19)
N10 N 0.16880(10) 0.23270(8) 1.33514(18)
O1 O 0.24932(11) 0.15561(8) 1.14690(19)
O2 O 0.26040(14) 0.20774(10) 1.1220(2)
O3 O 0.01113(12) 0.34245(10) 1.2353(3)
O4 O -0.00504(11) 0.32641(10) 1.1149(2)
O5 O 0.27248(12) 0.16454(7) 1.69176(16)
O6 O 0.20447(14) 0.16196(10) 1.6667(2)
O7 O 0.26825(10) 0.08995(7) 1.09797(18)
O8 O 0.30680(8) 0.07365(5) 1.03979(14)
O9 O 0.39126(8) 0.07435(5) 1.04770(14)
O10 O 0.46269(8) 0.08949(6) 1.12522(15)
O11 O 0.30587(7) 0.07436(5) 0.88915(14)
O12 O 0.26848(8) 0.09015(6) 0.75660(14)
Zn1 Zn 0.334249(12) 0.105938(9) 0.99281(2)
Zn2 Zn 0.276485(16) 0.139082(11) 1.08951(3)
Zn3 Zn 0.449322(14) 0.138667(10) 1.10585(2)
Zn4 Zn 0.276994(13) 0.138712(10) 0.78423(2)
S1 S 0.29875(4) 0.0000 1.05212(8)
S2 S 0.40567(4) -0.0000 1.06204(7)
S3 S 0.29884(4) 0.0000 0.86219(7)
C28E C 0.25253(18) -0.01814(10) 1.1127(3)
H19E H 0.2375 -0.0315 1.1312
C29E C 0.27729(13) -0.03132(9) 1.0821(2)
C30E C 0.28459(14) -0.06778(10) 1.0720(2)
O7E O 0.26825(10) -0.08995(7) 1.09797(18)
O8E O 0.30680(8) -0.07365(5) 1.03979(14)
C31E C 0.48780(12) -0.01792(8) 1.1586(2)
H20E H 0.5136 -0.0312 1.1888
C32E C 0.44560(11) -0.03139(7) 1.1091(2)
C33E C 0.43135(14) -0.06766(9) 1.0924(2)
O9E O 0.39126(8) -0.07435(5) 1.04770(14)
O10E O 0.46269(8) -0.08949(6) 1.12522(15)
C34E C 0.25751(14) -0.01794(8) 0.7126(2)
H21E H 0.2444 -0.0311 0.6649
C35E C 0.27858(11) -0.03162(8) 0.78936(19)
C36E C 0.28455(11) -0.06798(9) 0.8136(3)
O11E O 0.30587(7) -0.07436(5) 0.88915(14)
O12E O 0.26848(8) -0.09015(6) 0.75660(14)
C1E C 0.3717(2) -0.16725(14) 1.2051(3)
H1E H 0.3659 -0.1781 1.2420
C2E C 0.41151(19) -0.16749(12) 1.2083(3)
H2E H 0.4379 -0.1784 1.2477
C3E C 0.41437(14) -0.16248(10) 0.9275(3)
H3E H 0.4415 -0.1717 0.9378
C4E C 0.37528(15) -0.16338(10) 0.8557(3)
H4E H 0.3706 -0.1736 0.8079
C5E C 0.21842(16) -0.16900(13) 0.8440(3)
H5E H 0.1986 -0.1805 0.7955
C6E C 0.21688(17) -0.16842(13) 0.9145(3)
H6E H 0.1955 -0.1789 0.9224
C7E C 0.18831(12) -0.22177(9) 1.2893(2)
C8E C 0.19289(13) -0.18753(10) 1.2802(2)
H7E H 0.1835 -0.1715 1.3043
C9E C 0.21182(14) -0.17624(10) 1.2344(3)
H8E H 0.2150 -0.1529 1.2284
C10E C 0.22543(12) -0.20020(11) 1.1987(2)
C11E C 0.22022(13) -0.23435(10) 1.2074(2)
H9E H 0.2291 -0.2505 1.1829
C12E C 0.20184(13) -0.24496(9) 1.2525(2)
H10E H 0.1985 -0.2683 1.2580
C13E C 0.24708(15) -0.18707(14) 1.1519(3)
C14E C 0.13225(13) -0.25566(9) 1.2992(2)
C15E C 0.09962(13) -0.25327(9) 1.2161(2)
H11E H 0.1019 -0.2367 1.1834
C16E C 0.06271(13) -0.27649(12) 1.1816(3)
H12E H 0.0408 -0.2750 1.1260
C17E C 0.05875(15) -0.30155(11) 1.2302(3)
C18E C 0.08952(16) -0.30223(11) 1.3089(3)
H13E H 0.0864 -0.3179 1.3424
C19E C 0.12655(13) -0.28032(10) 1.3442(2)
H14E H 0.1481 -0.2825 1.3998
C20E C 0.01816(19) -0.32503(13) 1.1878(4)
C21E C 0.18460(14) -0.21830(9) 1.4132(2)
C22E C 0.22908(14) -0.21078(9) 1.4656(2)
H15E H 0.2496 -0.2160 1.4501
C23E C 0.24424(14) -0.19561(10) 1.5407(2)
H16E H 0.2747 -0.1906 1.5752
C24E C 0.21456(18) -0.18785(10) 1.5645(3)
C25E C 0.17023(17) -0.19504(11) 1.5130(3)
H17E H 0.1498 -0.1897 1.5287
C26E C 0.15507(14) -0.21022(11) 1.4377(2)
H18E H 0.1246 -0.2150 1.4032
C27E C 0.2328(2) -0.17042(11) 1.6484(3)
N1E N 0.34210(11) -0.14865(8) 1.1394(2)
N2E N 0.36426(11) -0.13820(6) 1.10303(16)
N3E N 0.40591(11) -0.14911(8) 1.1438(2)
N4E N 0.40801(10) -0.14597(7) 0.98244(17)
N5E N 0.36487(10) -0.13693(6) 0.94230(17)
N6E N 0.34404(9) -0.14719(7) 0.86376(17)
N7E N 0.25353(10) -0.15009(8) 0.85795(19)
N8E N 0.27438(9) -0.13853(7) 0.93445(18)
N9E N 0.25259(12) -0.14965(8) 0.96991(19)
N10E N 0.16880(10) -0.23270(8) 1.33514(18)
O1E O 0.24932(11) -0.15561(8) 1.14690(19)
O2E O 0.26040(14) -0.20774(10) 1.1220(2)
O3E O 0.01113(12) -0.34245(10) 1.2353(3)
O4E O -0.00504(11) -0.32641(10) 1.1149(2)
O5E O 0.27248(12) -0.16454(7) 1.69176(16)
O6E O 0.20447(14) -0.16196(10) 1.6667(2)
Zn1E Zn 0.334249(12) -0.105938(9) 0.99281(2)
Zn2E Zn 0.276485(16) -0.139082(11) 1.08951(3)
Zn3E Zn 0.449322(14) -0.138667(10) 1.10585(2)
Zn4E Zn 0.276994(13) -0.138712(10) 0.78423(2)
O3B O 0.51113(12) -0.15755(10) 1.2353(3)
O3G O 0.51113(12) 0.15755(10) 1.2353(3)
O4B O 0.49496(11) -0.17359(10) 1.1149(2)
O4G O 0.49496(11) 0.17359(10) 1.1149(2)
O5_2 O 0.27248(12) 0.16454(7) 0.69176(16)
O5E_2 O 0.27248(12) -0.16454(7) 0.69176(16)
O6_2 O 0.20447(14) 0.16196(10) 0.6667(2)
O6E_2 O 0.20447(14) -0.16196(10) 0.6667(2)
Zn3B Zn -0.050678(14) -0.361333(10) 1.10585(2)
Zn3G Zn -0.050678(14) 0.361333(10) 1.10585(2)
Zn4_2 Zn 0.276994(13) 0.138712(10) 1.78423(2)
Zn4E_2 Zn 0.276994(13) -0.138712(10) 1.78423(2)
loop_
_geom_bond_atom_site_label_1
_geom_bond_atom_site_label_2
_geom_bond_site_symmetry_1
_geom_bond_site_symmetry_2
C1 H1 1_555 1_555
C2 C1 1_555 1_555
H2 C2 1_555 1_555
C3 H3 1_555 1_555
C4 C3 1_555 1_555
H4 C4 1_555 1_555
C5 H5 1_555 1_555
C6 C5 1_555 1_555
H6 C6 1_555 1_555
C7 C8 1_555 1_555
C8 H7 1_555 1_555
C9 C8 1_555 1_555
H8 C9 1_555 1_555
C10 C9 1_555 1_555
C11 C10 1_555 1_555
H9 C11 1_555 1_555
C12 C7 1_555 1_555
H10 C12 1_555 1_555
C13 C10 1_555 1_555
C14 C15 1_555 1_555
C15 H11 1_555 1_555
C16 C15 1_555 1_555
H12 C16 1_555 1_555
C17 C16 1_555 1_555
C18 C17 1_555 1_555
H13 C18 1_555 1_555
C19 C14 1_555 1_555
H14 C19 1_555 1_555
C20 C17 1_555 1_555
C21 C22 1_555 1_555
C22 H15 1_555 1_555
C23 C22 1_555 1_555
H16 C23 1_555 1_555
C24 C23 1_555 1_555
C25 C24 1_555 1_555
H17 C25 1_555 1_555
C26 C21 1_555 1_555
H18 C26 1_555 1_555
C27 C24 1_555 1_555
C28 H19 1_555 1_555
C29 C28 1_555 1_555
C30 C29 1_555 1_555
C31 H20 1_555 1_555
C32 C31 1_555 1_555
C33 C32 1_555 1_555
C34 H21 1_555 1_555
C35 C34 1_555 1_555
C36 C35 1_555 1_555
N1 C1 1_555 1_555
N2 N1 1_555 1_555
N3 C2 1_555 1_555
N4 C3 1_555 1_555
N5 N4 1_555 1_555
N6 C4 1_555 1_555
N7 C5 1_555 1_555
N8 N7 1_555 1_555
N9 C6 1_555 1_555
N10 C7 1_555 1_555
O1 C13 1_555 1_555
O2 C13 1_555 1_555
O3 C20 1_555 1_555
O4 C20 1_555 1_555
O5 C27 1_555 1_555
O6 C27 1_555 1_555
O7 C30 1_555 1_555
O8 C30 1_555 1_555
O9 C33 1_555 1_555
O10 C33 1_555 1_555
O11 C36 1_555 1_555
O12 C36 1_555 1_555
Zn1 N2 1_555 1_555
Zn2 N1 1_555 1_555
Zn3 N3 1_555 1_555
Zn4 N6 1_555 1_555
S1 C29 1_555 1_555
S2 C32 1_555 1_555
S3 C35 1_555 1_555
C28E C28 1_555 1_555
H19E C28E 1_555 1_555
C29E S1 1_555 1_555
C30E C29E 1_555 1_555
O7E C30E 1_555 1_555
O8E C30E 1_555 1_555
C31E C31 1_555 1_555
H20E C31E 1_555 1_555
C32E S2 1_555 1_555
C33E C32E 1_555 1_555
O9E C33E 1_555 1_555
O10E C33E 1_555 1_555
C34E C34 1_555 1_555
H21E C34E 1_555 1_555
C35E S3 1_555 1_555
C36E C35E 1_555 1_555
O11E C36E 1_555 1_555
O12E C36E 1_555 1_555
C1E H1E 1_555 1_555
C2E C1E 1_555 1_555
H2E C2E 1_555 1_555
C3E H3E 1_555 1_555
C4E C3E 1_555 1_555
H4E C4E 1_555 1_555
C5E H5E 1_555 1_555
C6E C5E 1_555 1_555
H6E C6E 1_555 1_555
C7E C8E 1_555 1_555
C8E H7E 1_555 1_555
C9E C8E 1_555 1_555
H8E C9E 1_555 1_555
C10E C9E 1_555 1_555
C11E C10E 1_555 1_555
H9E C11E 1_555 1_555
C12E C7E 1_555 1_555
H10E C12E 1_555 1_555
C13E C10E 1_555 1_555
C14E C15E 1_555 1_555
C15E H11E 1_555 1_555
C16E C15E 1_555 1_555
H12E C16E 1_555 1_555
C17E C16E 1_555 1_555
C18E C17E 1_555 1_555
H13E C18E 1_555 1_555
C19E C14E 1_555 1_555
H14E C19E 1_555 1_555
C20E C17E 1_555 1_555
C21E C22E 1_555 1_555
C22E H15E 1_555 1_555
C23E C22E 1_555 1_555
H16E C23E 1_555 1_555
C24E C23E 1_555 1_555
C25E C24E 1_555 1_555
H17E C25E 1_555 1_555
C26E C21E 1_555 1_555
H18E C26E 1_555 1_555
C27E C24E 1_555 1_555
N1E C1E 1_555 1_555
N2E N1E 1_555 1_555
N3E C2E 1_555 1_555
N4E C3E 1_555 1_555
N5E N4E 1_555 1_555
N6E C4E 1_555 1_555
N7E C5E 1_555 1_555
N8E N7E 1_555 1_555
N9E C6E 1_555 1_555
N10E C7E 1_555 1_555
O1E C13E 1_555 1_555
O2E C13E 1_555 1_555
O3E C20E 1_555 1_555
O4E C20E 1_555 1_555
O5E C27E 1_555 1_555
O6E C27E 1_555 1_555
Zn1E O8E 1_555 1_555
Zn2E O7E 1_555 1_555
Zn3E O10E 1_555 1_555
Zn4E O12E 1_555 1_555
O3B Zn3E 1_555 1_555
O3G Zn3 1_555 1_555
O4B Zn3E 1_555 1_555
O4G Zn3 1_555 1_555
O5_2 Zn4 1_555 1_555
O5E_2 Zn4E 1_555 1_555
O6_2 Zn4 1_555 1_555
O6E_2 Zn4E 1_555 1_555
Zn3B O3E 1_555 1_555
Zn3G O3 1_555 1_555
Zn4_2 O5 1_555 1_555
Zn4E_2 O5E 1_555 1_555
C11 C12 1_555 1_555
C14 N10 1_555 1_555
C18 C19 1_555 1_555
C21 N10 1_555 1_555
C25 C26 1_555 1_555
N2 N3 1_555 1_555
N4 Zn3 1_555 1_555
N5 N6 1_555 1_555
N5 Zn1 1_555 1_555
N7 Zn4 1_555 1_555
N8 N9 1_555 1_555
N8 Zn1 1_555 1_555
N9 Zn2 1_555 1_555
O1 Zn2 1_555 1_555
O4 Zn3G 1_555 1_555
O6 Zn4_2 1_555 1_555
O7 Zn2 1_555 1_555
O8 Zn1 1_555 1_555
O9 Zn1 1_555 1_555
O10 Zn3 1_555 1_555
O11 Zn1 1_555 1_555
O12 Zn4 1_555 1_555
C28E C29E 1_555 1_555
C31E C32E 1_555 1_555
O9E Zn1E 1_555 1_555
C34E C35E 1_555 1_555
O11E Zn1E 1_555 1_555
C11E C12E 1_555 1_555
C14E N10E 1_555 1_555
C18E C19E 1_555 1_555
C21E N10E 1_555 1_555
C25E C26E 1_555 1_555
N1E Zn2E 1_555 1_555
N2E N3E 1_555 1_555
N2E Zn1E 1_555 1_555
N3E Zn3E 1_555 1_555
N4E Zn3E 1_555 1_555
N5E N6E 1_555 1_555
N5E Zn1E 1_555 1_555
N6E Zn4E 1_555 1_555
N7E Zn4E 1_555 1_555
N8E N9E 1_555 1_555
N8E Zn1E 1_555 1_555
N9E Zn2E 1_555 1_555
O1E Zn2E 1_555 1_555
O4E Zn3B 1_555 1_555
O6E Zn4E_2 1_555 1_555

#END
