
#######################################################################
#
#                 Cambridge Crystallographic Data Centre
#                                CCDC 
#
#######################################################################
#
# If this CIF has been generated from an entry in the Cambridge 
# Structural Database, then it will include bibliographic, chemical, 
# crystal, experimental, refinement or atomic coordinate data resulting 
# from the CCDC's data processing and validation procedures.
#
#######################################################################

data_OMIPEH
_chemical_formula_moiety         '(C54 H42 Cu12 N24 O78 P4 W12 2+)n'
_symmetry_cell_setting           cubic
_symmetry_space_group_name_H-M   'F m -3 m'
_symmetry_Int_Tables_number      225
_space_group_name_Hall           '-F 4 2 3'
loop_
_symmetry_equiv_pos_site_id
_symmetry_equiv_pos_as_xyz
1 x,y,z
2 x,-z,y
3 x,z,-y
4 z,y,-x
5 -z,y,x
6 -y,x,z
7 y,-x,z
8 z,x,y
9 y,z,x
10 -y,-z,x
11 z,-x,-y
12 -y,z,-x
13 -z,-x,y
14 -z,x,-y
15 y,-z,-x
16 x,-y,-z
17 -x,y,-z
18 -x,-y,z
19 y,x,-z
20 -y,-x,-z
21 z,-y,x
22 -z,-y,-x
23 -x,z,y
24 -x,-z,-y
25 x,1/2+y,1/2+z
26 x,1/2-z,1/2+y
27 x,1/2+z,1/2-y
28 z,1/2+y,1/2-x
29 -z,1/2+y,1/2+x
30 -y,1/2+x,1/2+z
31 y,1/2-x,1/2+z
32 z,1/2+x,1/2+y
33 y,1/2+z,1/2+x
34 -y,1/2-z,1/2+x
35 z,1/2-x,1/2-y
36 -y,1/2+z,1/2-x
37 -z,1/2-x,1/2+y
38 -z,1/2+x,1/2-y
39 y,1/2-z,1/2-x
40 x,1/2-y,1/2-z
41 -x,1/2+y,1/2-z
42 -x,1/2-y,1/2+z
43 y,1/2+x,1/2-z
44 -y,1/2-x,1/2-z
45 z,1/2-y,1/2+x
46 -z,1/2-y,1/2-x
47 -x,1/2+z,1/2+y
48 -x,1/2-z,1/2-y
49 1/2+x,y,1/2+z
50 1/2+x,-z,1/2+y
51 1/2+x,z,1/2-y
52 1/2+z,y,1/2-x
53 1/2-z,y,1/2+x
54 1/2-y,x,1/2+z
55 1/2+y,-x,1/2+z
56 1/2+z,x,1/2+y
57 1/2+y,z,1/2+x
58 1/2-y,-z,1/2+x
59 1/2+z,-x,1/2-y
60 1/2-y,z,1/2-x
61 1/2-z,-x,1/2+y
62 1/2-z,x,1/2-y
63 1/2+y,-z,1/2-x
64 1/2+x,-y,1/2-z
65 1/2-x,y,1/2-z
66 1/2-x,-y,1/2+z
67 1/2+y,x,1/2-z
68 1/2-y,-x,1/2-z
69 1/2+z,-y,1/2+x
70 1/2-z,-y,1/2-x
71 1/2-x,z,1/2+y
72 1/2-x,-z,1/2-y
73 1/2+x,1/2+y,z
74 1/2+x,1/2-z,y
75 1/2+x,1/2+z,-y
76 1/2+z,1/2+y,-x
77 1/2-z,1/2+y,x
78 1/2-y,1/2+x,z
79 1/2+y,1/2-x,z
80 1/2+z,1/2+x,y
81 1/2+y,1/2+z,x
82 1/2-y,1/2-z,x
83 1/2+z,1/2-x,-y
84 1/2-y,1/2+z,-x
85 1/2-z,1/2-x,y
86 1/2-z,1/2+x,-y
87 1/2+y,1/2-z,-x
88 1/2+x,1/2-y,-z
89 1/2-x,1/2+y,-z
90 1/2-x,1/2-y,z
91 1/2+y,1/2+x,-z
92 1/2-y,1/2-x,-z
93 1/2+z,1/2-y,x
94 1/2-z,1/2-y,-x
95 1/2-x,1/2+z,y
96 1/2-x,1/2-z,-y
97 -x,-y,-z
98 -x,z,-y
99 -x,-z,y
100 -z,-y,x
101 z,-y,-x
102 y,-x,-z
103 -y,x,-z
104 -z,-x,-y
105 -y,-z,-x
106 y,z,-x
107 -z,x,y
108 y,-z,x
109 z,x,-y
110 z,-x,y
111 -y,z,x
112 -x,y,z
113 x,-y,z
114 x,y,-z
115 -y,-x,z
116 y,x,z
117 -z,y,-x
118 z,y,x
119 x,-z,-y
120 x,z,y
121 -x,1/2-y,1/2-z
122 -x,1/2+z,1/2-y
123 -x,1/2-z,1/2+y
124 -z,1/2-y,1/2+x
125 z,1/2-y,1/2-x
126 y,1/2-x,1/2-z
127 -y,1/2+x,1/2-z
128 -z,1/2-x,1/2-y
129 -y,1/2-z,1/2-x
130 y,1/2+z,1/2-x
131 -z,1/2+x,1/2+y
132 y,1/2-z,1/2+x
133 z,1/2+x,1/2-y
134 z,1/2-x,1/2+y
135 -y,1/2+z,1/2+x
136 -x,1/2+y,1/2+z
137 x,1/2-y,1/2+z
138 x,1/2+y,1/2-z
139 -y,1/2-x,1/2+z
140 y,1/2+x,1/2+z
141 -z,1/2+y,1/2-x
142 z,1/2+y,1/2+x
143 x,1/2-z,1/2-y
144 x,1/2+z,1/2+y
145 1/2-x,-y,1/2-z
146 1/2-x,z,1/2-y
147 1/2-x,-z,1/2+y
148 1/2-z,-y,1/2+x
149 1/2+z,-y,1/2-x
150 1/2+y,-x,1/2-z
151 1/2-y,x,1/2-z
152 1/2-z,-x,1/2-y
153 1/2-y,-z,1/2-x
154 1/2+y,z,1/2-x
155 1/2-z,x,1/2+y
156 1/2+y,-z,1/2+x
157 1/2+z,x,1/2-y
158 1/2+z,-x,1/2+y
159 1/2-y,z,1/2+x
160 1/2-x,y,1/2+z
161 1/2+x,-y,1/2+z
162 1/2+x,y,1/2-z
163 1/2-y,-x,1/2+z
164 1/2+y,x,1/2+z
165 1/2-z,y,1/2-x
166 1/2+z,y,1/2+x
167 1/2+x,-z,1/2-y
168 1/2+x,z,1/2+y
169 1/2-x,1/2-y,-z
170 1/2-x,1/2+z,-y
171 1/2-x,1/2-z,y
172 1/2-z,1/2-y,x
173 1/2+z,1/2-y,-x
174 1/2+y,1/2-x,-z
175 1/2-y,1/2+x,-z
176 1/2-z,1/2-x,-y
177 1/2-y,1/2-z,-x
178 1/2+y,1/2+z,-x
179 1/2-z,1/2+x,y
180 1/2+y,1/2-z,x
181 1/2+z,1/2+x,-y
182 1/2+z,1/2-x,y
183 1/2-y,1/2+z,x
184 1/2-x,1/2+y,z
185 1/2+x,1/2-y,z
186 1/2+x,1/2+y,-z
187 1/2-y,1/2-x,z
188 1/2+y,1/2+x,z
189 1/2-z,1/2+y,-x
190 1/2+z,1/2+y,x
191 1/2+x,1/2-z,-y
192 1/2+x,1/2+z,y
_cell_length_a                   44.4742(7)
_cell_length_b                   44.4742(7)
_cell_length_c                   44.4742(7)
_cell_angle_alpha                90
_cell_angle_beta                 90
_cell_angle_gamma                90
_cell_volume                     87967.9
loop_
_atom_site_label
_atom_site_type_symbol
_atom_site_fract_x
_atom_site_fract_y
_atom_site_fract_z
W1 W 0.30507(8) 0.19493(8) 0.24721(11)
O7 O 0.2638(4) 0.2638(4) 0.2638(4)
P1 P 0.2334(4) 0.2666(4) 0.2666(4)
O8 O 0.2813(3) 0.1698(4) 0.2187(3)
O9 O 0.3394(3) 0.1606(3) 0.2618(8)
O10 O 0.1976(6) 0.2780(3) 0.2780(3)
P1G P 0.2666(4) 0.2334(4) 0.2666(4)
O10G O 0.2780(3) 0.1976(6) 0.2780(3)
P1H P 0.2666(4) 0.2666(4) 0.2334(4)
O10H O 0.2780(3) 0.2780(3) 0.1976(6)
O7HA O 0.2638(4) 0.2362(4) 0.2362(4)
O10HA O 0.2780(3) 0.3024(6) 0.2220(3)
O10LA O 0.2780(3) 0.2220(3) 0.3024(6)
P1MA P 0.2334(4) 0.2334(4) 0.2334(4)
O10MA O 0.1976(6) 0.2220(3) 0.2220(3)
O7GB O 0.2362(4) 0.2638(4) 0.2362(4)
O10GB O 0.2220(3) 0.2780(3) 0.3024(6)
O10IB O 0.2220(3) 0.1976(6) 0.2220(3)
O10LB O 0.3024(6) 0.2780(3) 0.2220(3)
O7CC O 0.2362(4) 0.2362(4) 0.2638(4)
O10CC O 0.2220(3) 0.2220(3) 0.1976(6)
O10FC O 0.2220(3) 0.3024(6) 0.2780(3)
O10KC O 0.3024(6) 0.2220(3) 0.2780(3)
W1G W 0.24721(11) 0.30507(8) 0.19493(8)
O8G O 0.2187(3) 0.2813(3) 0.1698(4)
O9G O 0.2618(8) 0.3394(3) 0.1606(3)
W1H W 0.19493(8) 0.24721(11) 0.30507(8)
O8H O 0.1698(4) 0.2187(3) 0.2813(3)
O9H O 0.1606(3) 0.2618(8) 0.3394(3)
W1KD W 0.19493(8) 0.30507(8) 0.24721(11)
O8KD O 0.1698(4) 0.2813(3) 0.2187(3)
O9KD O 0.1606(3) 0.3394(3) 0.2618(8)
W1MD W 0.24721(11) 0.19493(8) 0.30507(8)
O8MD O 0.2187(3) 0.1698(4) 0.2813(3)
O9MD O 0.2618(8) 0.1606(3) 0.3394(3)
W1OD W 0.30507(8) 0.24721(11) 0.19493(8)
O8OD O 0.2813(3) 0.2187(3) 0.1698(4)
O9OD O 0.3394(3) 0.2618(8) 0.1606(3)
O8HA O 0.2187(3) 0.2187(3) 0.3302(4)
W1LA W 0.19493(8) 0.25279(11) 0.19493(8)
O9LA O 0.1606(3) 0.2382(8) 0.1606(3)
W1MA W 0.30507(8) 0.30507(8) 0.25279(11)
O8MA O 0.2813(3) 0.3302(4) 0.2813(3)
O9MA O 0.3394(3) 0.3394(3) 0.2382(8)
O8TD O 0.2187(3) 0.3302(4) 0.2187(3)
W1UD W 0.19493(8) 0.19493(8) 0.25279(11)
O9UD O 0.1606(3) 0.1606(3) 0.2382(8)
W1LE W 0.30507(8) 0.25279(11) 0.30507(8)
O8LE O 0.2813(3) 0.2813(3) 0.3302(4)
O9LE O 0.3394(3) 0.2382(8) 0.3394(3)
O8GB O 0.3302(4) 0.2187(3) 0.2187(3)
W1IB W 0.25279(11) 0.30507(8) 0.30507(8)
O9IB O 0.2382(8) 0.3394(3) 0.3394(3)
O8TE O 0.3302(4) 0.2813(3) 0.2813(3)
W1HF W 0.25279(11) 0.19493(8) 0.19493(8)
O9HF O 0.2382(8) 0.1606(3) 0.1606(3)
Cu1 Cu 0.168668(17) 0.168668(17) 0.000
Cu2 Cu 0.126563(18) 0.126563(18) 0.000
Cu3 Cu 0.32504(5) 0.17496(5) 0.12195(6)
O1 O 0.0928(3) 0.0928(3) 0.000
O2 O 0.20274(16) 0.20274(16) 0.000
O3 O 0.15180(9) 0.10747(9) 0.03080(9)
O4 O 0.18716(10) 0.14352(10) 0.03059(10)
O5 O 0.3393(2) 0.1607(2) 0.1607(2)
O6 O 0.3042(3) 0.1958(3) 0.0891(5)
N1 N 0.27094(17) 0.13891(19) 0.10352(18)
N2 N 0.29256(17) 0.14567(16) 0.12575(16)
C1 C 0.2560(3) 0.11874(18) 0.11874(18)
C2 C 0.2281(2) 0.10390(17) 0.10390(17)
C3 C 0.21645(15) 0.11625(16) 0.07728(16)
H1 H 0.22654(15) 0.13161(16) 0.06731(16)
C4 C 0.19021(13) 0.10528(12) 0.06648(12)
C5 C 0.17745(18) 0.08043(13) 0.08043(13)
H2 H 0.15955(18) 0.07278(13) 0.07278(13)
C6 C 0.17482(14) 0.12091(13) 0.04004(14)
O3OD O 0.15180(9) 0.03080(9) 0.10747(9)
O4OD O 0.18716(10) 0.03059(10) 0.14352(10)
N1OD N 0.27094(17) 0.10352(18) 0.13891(19)
N2OD N 0.29256(17) 0.12575(16) 0.14567(16)
C3OD C 0.21645(15) 0.07728(16) 0.11625(16)
H1OD H 0.22654(15) 0.06731(16) 0.13161(16)
C4OD C 0.19021(13) 0.06648(12) 0.10528(12)
C6OD C 0.17482(14) 0.04004(14) 0.12091(13)
Cu1A Cu 0.168668(17) 0.000 0.168668(17)
Cu2A Cu 0.126563(18) -0.000 0.126563(18)
Cu3A Cu 0.32504(5) -0.12195(6) 0.17496(5)
O1A O 0.0928(3) -0.000 0.0928(3)
O2A O 0.20274(16) -0.000 0.20274(16)
O3A O 0.15180(9) -0.03080(9) 0.10747(9)
O4A O 0.18716(10) -0.03059(10) 0.14352(10)
O5A O 0.3393(2) -0.1607(2) 0.1607(2)
O6A O 0.3042(3) -0.0891(5) 0.1958(3)
N1A N 0.27094(17) -0.10352(18) 0.13891(19)
N2A N 0.29256(17) -0.12575(16) 0.14567(16)
C1A C 0.2560(3) -0.11874(18) 0.11874(18)
C2A C 0.2281(2) -0.10390(17) 0.10390(17)
C3A C 0.21645(15) -0.07728(16) 0.11625(16)
H1A H 0.22654(15) -0.06731(16) 0.13161(16)
C4A C 0.19021(13) -0.06648(12) 0.10528(12)
C5A C 0.17745(18) -0.08043(13) 0.08043(13)
H2A H 0.15955(18) -0.07278(13) 0.07278(13)
C6A C 0.17482(14) -0.04004(14) 0.12091(13)
O3HD O 0.15180(9) -0.10747(9) 0.03080(9)
O4HD O 0.18716(10) -0.14352(10) 0.03059(10)
N1HD N 0.27094(17) -0.13891(19) 0.10352(18)
N2HD N 0.29256(17) -0.14567(16) 0.12575(16)
C3HD C 0.21645(15) -0.11625(16) 0.07728(16)
H1HD H 0.22654(15) -0.13161(16) 0.06731(16)
C4HD C 0.19021(13) -0.10528(12) 0.06648(12)
C6HD C 0.17482(14) -0.12091(13) 0.04004(14)
Cu1B Cu 0.168668(17) 0.000 -0.168668(17)
Cu2B Cu 0.126563(18) 0.000 -0.126563(18)
Cu3B Cu 0.32504(5) 0.12195(6) -0.17496(5)
O1B O 0.0928(3) 0.000 -0.0928(3)
O2B O 0.20274(16) 0.000 -0.20274(16)
O3B O 0.15180(9) 0.03080(9) -0.10747(9)
O4B O 0.18716(10) 0.03059(10) -0.14352(10)
O6B O 0.3042(3) 0.0891(5) -0.1958(3)
N1B N 0.27094(17) 0.10352(18) -0.13891(19)
N2B N 0.29256(17) 0.12575(16) -0.14567(16)
C1B C 0.2560(3) 0.11874(18) -0.11874(18)
C2B C 0.2281(2) 0.10390(17) -0.10390(17)
C3B C 0.21645(15) 0.07728(16) -0.11625(16)
H1B H 0.22654(15) 0.06731(16) -0.13161(16)
C4B C 0.19021(13) 0.06648(12) -0.10528(12)
C5B C 0.17745(18) 0.08043(13) -0.08043(13)
H2B H 0.15955(18) 0.07278(13) -0.07278(13)
C6B C 0.17482(14) 0.04004(14) -0.12091(13)
O3ID O 0.15180(9) 0.10747(9) -0.03080(9)
O4ID O 0.18716(10) 0.14352(10) -0.03059(10)
N1ID N 0.27094(17) 0.13891(19) -0.10352(18)
N2ID N 0.29256(17) 0.14567(16) -0.12575(16)
C3ID C 0.21645(15) 0.11625(16) -0.07728(16)
H1ID H 0.22654(15) 0.13161(16) -0.06731(16)
C4ID C 0.19021(13) 0.10528(12) -0.06648(12)
C6ID C 0.17482(14) 0.12091(13) -0.04004(14)
Cu3G Cu 0.12195(6) 0.32504(5) 0.17496(5)
O3G O 0.03080(9) 0.15180(9) 0.10747(9)
O4G O 0.03059(10) 0.18716(10) 0.14352(10)
O6G O 0.0891(5) 0.3042(3) 0.1958(3)
N1G N 0.10352(18) 0.27094(17) 0.13891(19)
N2G N 0.12575(16) 0.29256(17) 0.14567(16)
C1G C 0.11874(18) 0.2560(3) 0.11874(18)
C2G C 0.10390(17) 0.2281(2) 0.10390(17)
C3G C 0.07728(16) 0.21645(15) 0.11625(16)
H1G H 0.06731(16) 0.22654(15) 0.13161(16)
C4G C 0.06648(12) 0.19021(13) 0.10528(12)
C5G C 0.08043(13) 0.17745(18) 0.08043(13)
H2G H 0.07278(13) 0.15955(18) 0.07278(13)
C6G C 0.04004(14) 0.17482(14) 0.12091(13)
O3KD O 0.10747(9) 0.15180(9) 0.03080(9)
O4KD O 0.14352(10) 0.18716(10) 0.03059(10)
N1KD N 0.13891(19) 0.27094(17) 0.10352(18)
N2KD N 0.14567(16) 0.29256(17) 0.12575(16)
C3KD C 0.11625(16) 0.21645(15) 0.07728(16)
H1KD H 0.13161(16) 0.22654(15) 0.06731(16)
C4KD C 0.10528(12) 0.19021(13) 0.06648(12)
C6KD C 0.12091(13) 0.17482(14) 0.04004(14)
Cu3H Cu 0.17496(5) 0.12195(6) 0.32504(5)
O3H O 0.10747(9) 0.03080(9) 0.15180(9)
O4H O 0.14352(10) 0.03059(10) 0.18716(10)
O6H O 0.1958(3) 0.0891(5) 0.3042(3)
N1H N 0.13891(19) 0.10352(18) 0.27094(17)
N2H N 0.14567(16) 0.12575(16) 0.29256(17)
C1H C 0.11874(18) 0.11874(18) 0.2560(3)
C2H C 0.10390(17) 0.10390(17) 0.2281(2)
C3H C 0.11625(16) 0.07728(16) 0.21645(15)
H1H H 0.13161(16) 0.06731(16) 0.22654(15)
C4H C 0.10528(12) 0.06648(12) 0.19021(13)
C5H C 0.08043(13) 0.08043(13) 0.17745(18)
H2H H 0.07278(13) 0.07278(13) 0.15955(18)
C6H C 0.12091(13) 0.04004(14) 0.17482(14)
O3MD O 0.03080(9) 0.10747(9) 0.15180(9)
O4MD O 0.03059(10) 0.14352(10) 0.18716(10)
N1MD N 0.10352(18) 0.13891(19) 0.27094(17)
N2MD N 0.12575(16) 0.14567(16) 0.29256(17)
C3MD C 0.07728(16) 0.11625(16) 0.21645(15)
H1MD H 0.06731(16) 0.13161(16) 0.22654(15)
C4MD C 0.06648(12) 0.10528(12) 0.19021(13)
C6MD C 0.04004(14) 0.12091(13) 0.17482(14)
Cu3R Cu 0.17496(5) 0.32504(5) -0.12195(6)
O3R O 0.10747(9) 0.15180(9) -0.03080(9)
O4R O 0.14352(10) 0.18716(10) -0.03059(10)
O6R O 0.1958(3) 0.3042(3) -0.0891(5)
N1R N 0.13891(19) 0.27094(17) -0.10352(18)
N2R N 0.14567(16) 0.29256(17) -0.12575(16)
C1R C 0.11874(18) 0.2560(3) -0.11874(18)
C2R C 0.10390(17) 0.2281(2) -0.10390(17)
C3R C 0.11625(16) 0.21645(15) -0.07728(16)
H1R H 0.13161(16) 0.22654(15) -0.06731(16)
C4R C 0.10528(12) 0.19021(13) -0.06648(12)
C5R C 0.08043(13) 0.17745(18) -0.08043(13)
H2R H 0.07278(13) 0.15955(18) -0.07278(13)
C6R C 0.12091(13) 0.17482(14) -0.04004(14)
O3DD O 0.03080(9) 0.15180(9) -0.10747(9)
O4DD O 0.03059(10) 0.18716(10) -0.14352(10)
N1DD N 0.10352(18) 0.27094(17) -0.13891(19)
N2DD N 0.12575(16) 0.29256(17) -0.14567(16)
C3DD C 0.07728(16) 0.21645(15) -0.11625(16)
H1DD H 0.06731(16) 0.22654(15) -0.13161(16)
C4DD C 0.06648(12) 0.19021(13) -0.10528(12)
C6DD C 0.04004(14) 0.17482(14) -0.12091(13)
Cu1C Cu 0.000 0.168668(17) -0.168668(17)
Cu1D Cu -0.000 0.168668(17) 0.168668(17)
Cu1F Cu 0.168668(17) -0.168668(17) 0.000
Cu2C Cu 0.000 0.126563(18) -0.126563(18)
Cu2D Cu -0.000 0.126563(18) 0.126563(18)
Cu2F Cu 0.126563(18) -0.126563(18) 0.000
Cu3DD Cu 0.12195(6) 0.32504(5) -0.17496(5)
Cu3HD Cu 0.32504(5) -0.17496(5) 0.12195(6)
Cu3ID Cu 0.32504(5) 0.17496(5) -0.12195(6)
Cu3KD Cu 0.17496(5) 0.32504(5) 0.12195(6)
Cu3MD Cu 0.12195(6) 0.17496(5) 0.32504(5)
Cu3OD Cu 0.32504(5) 0.12195(6) 0.17496(5)
Cu3QB Cu 0.37805(6) -0.17496(5) 0.17496(5)
Cu3HF Cu 0.37805(6) 0.17496(5) 0.17496(5)
O3N O 0.10747(9) -0.03080(9) -0.15180(9)
O3AD O 0.10747(9) 0.03080(9) -0.15180(9)
O3CD O 0.10747(9) -0.03080(9) 0.15180(9)
O3ND O 0.15180(9) -0.03080(9) -0.10747(9)
O4N O 0.14352(10) -0.03059(10) -0.18716(10)
O4AD O 0.14352(10) 0.03059(10) -0.18716(10)
O4CD O 0.14352(10) -0.03059(10) 0.18716(10)
O4ND O 0.18716(10) -0.03059(10) -0.14352(10)
O5B O 0.3393(2) 0.1607(2) -0.1607(2)
O5G O 0.1607(2) 0.3393(2) 0.1607(2)
O5H O 0.1607(2) 0.1607(2) 0.3393(2)
O5R O 0.1607(2) 0.3393(2) -0.1607(2)
N2TD N 0.12575(16) 0.35433(16) 0.20744(17)
N2OE N 0.20744(17) 0.12575(16) 0.35433(16)
N2VE N 0.35433(16) -0.12575(16) 0.20744(17)
N2BF N 0.35433(16) 0.12575(16) -0.20744(17)
N2LF N 0.20744(17) 0.35433(16) -0.12575(16)
N2DG N 0.35433(16) 0.20744(17) 0.12575(16)
loop_
_geom_bond_atom_site_label_1
_geom_bond_atom_site_label_2
_geom_bond_site_symmetry_1
_geom_bond_site_symmetry_2
Cu1 Cu2 1_555 1_555
Cu2 O1 1_555 1_555
Cu3 O5 1_555 1_555
O2 Cu1 1_555 1_555
O3 Cu2 1_555 1_555
O4 Cu1 1_555 1_555
O5 Cu3OD 1_555 1_555
O6 Cu3 1_555 1_555
N1 N2 1_555 1_555
N2 Cu3 1_555 1_555
C1 N1 1_555 1_555
C2 C1 1_555 1_555
C3 C2 1_555 1_555
H1 C3 1_555 1_555
C4 C3 1_555 1_555
C5 C4 1_555 1_555
H2 C5 1_555 1_555
C6 O3 1_555 1_555
W1 O8 1_555 1_555
O7 P1 1_555 1_555
P1 O10 1_555 1_555
O8 W1HF 1_555 1_555
O9 W1 1_555 1_555
O10 O10GB 1_555 1_555
O3OD C6OD 1_555 1_555
O4OD C6OD 1_555 1_555
N1OD C1 1_555 1_555
N2OD N2 1_555 1_555
C3OD C2 1_555 1_555
H1OD C3OD 1_555 1_555
C4OD C5 1_555 1_555
C6OD C4OD 1_555 1_555
Cu1A O4OD 1_555 1_555
Cu2A O3OD 1_555 1_555
Cu3A O5A 1_555 1_555
O1A Cu2A 1_555 1_555
O2A Cu1A 1_555 1_555
O3A Cu2A 1_555 1_555
O4A Cu1A 1_555 1_555
O5A Cu3HD 1_555 1_555
O6A Cu3A 1_555 1_555
N1A N2A 1_555 1_555
N2A Cu3A 1_555 1_555
C1A N1A 1_555 1_555
C2A C1A 1_555 1_555
C3A C2A 1_555 1_555
H1A C3A 1_555 1_555
C4A C3A 1_555 1_555
C5A C4A 1_555 1_555
H2A C5A 1_555 1_555
C6A O3A 1_555 1_555
O3HD C6HD 1_555 1_555
O4HD C6HD 1_555 1_555
N1HD C1A 1_555 1_555
N2HD N2A 1_555 1_555
C3HD C2A 1_555 1_555
H1HD C3HD 1_555 1_555
C4HD C5A 1_555 1_555
C6HD C4HD 1_555 1_555
Cu1B Cu2B 1_555 1_555
Cu2B O1B 1_555 1_555
Cu3B O6B 1_555 1_555
O2B Cu1B 1_555 1_555
O3B Cu2B 1_555 1_555
O4B Cu1B 1_555 1_555
N1B N2B 1_555 1_555
N2B Cu3B 1_555 1_555
C1B N1B 1_555 1_555
C2B C1B 1_555 1_555
C3B C2B 1_555 1_555
H1B C3B 1_555 1_555
C4B C3B 1_555 1_555
C5B C4B 1_555 1_555
H2B C5B 1_555 1_555
C6B O3B 1_555 1_555
O3ID Cu2 1_555 1_555
O4ID Cu1 1_555 1_555
N1ID C1B 1_555 1_555
N2ID N2B 1_555 1_555
C3ID C2B 1_555 1_555
H1ID C3ID 1_555 1_555
C4ID C5B 1_555 1_555
C6ID O3ID 1_555 1_555
Cu3G O6G 1_555 1_555
O3G C6G 1_555 1_555
O4G C6G 1_555 1_555
N1G N2G 1_555 1_555
N2G Cu3G 1_555 1_555
C1G N1G 1_555 1_555
C2G C1G 1_555 1_555
C3G C2G 1_555 1_555
H1G C3G 1_555 1_555
C4G C3G 1_555 1_555
C5G C4G 1_555 1_555
H2G C5G 1_555 1_555
C6G C4G 1_555 1_555
O3KD Cu2 1_555 1_555
O4KD Cu1 1_555 1_555
N1KD C1G 1_555 1_555
N2KD N2G 1_555 1_555
C3KD C2G 1_555 1_555
H1KD C3KD 1_555 1_555
C4KD C5G 1_555 1_555
C6KD O3KD 1_555 1_555
Cu3H O6H 1_555 1_555
O3H Cu2A 1_555 1_555
O4H Cu1A 1_555 1_555
N1H N2H 1_555 1_555
N2H Cu3H 1_555 1_555
C1H N1H 1_555 1_555
C2H C1H 1_555 1_555
C3H C2H 1_555 1_555
H1H C3H 1_555 1_555
C4H C3H 1_555 1_555
C5H C4H 1_555 1_555
H2H C5H 1_555 1_555
C6H O3H 1_555 1_555
O3MD C6MD 1_555 1_555
O4MD C6MD 1_555 1_555
N1MD C1H 1_555 1_555
N2MD N2H 1_555 1_555
C3MD C2H 1_555 1_555
H1MD C3MD 1_555 1_555
C4MD C5H 1_555 1_555
C6MD C4MD 1_555 1_555
Cu3R O6R 1_555 1_555
O3R Cu2 1_555 1_555
O4R Cu1 1_555 1_555
N1R N2R 1_555 1_555
N2R Cu3R 1_555 1_555
C1R N1R 1_555 1_555
C2R C1R 1_555 1_555
C3R C2R 1_555 1_555
H1R C3R 1_555 1_555
C4R C3R 1_555 1_555
C5R C4R 1_555 1_555
H2R C5R 1_555 1_555
C6R O3R 1_555 1_555
O3DD C6DD 1_555 1_555
O4DD C6DD 1_555 1_555
N1DD C1R 1_555 1_555
N2DD N2R 1_555 1_555
C3DD C2R 1_555 1_555
H1DD C3DD 1_555 1_555
C4DD C5R 1_555 1_555
C6DD C4DD 1_555 1_555
Cu1C O4DD 1_555 1_555
Cu1D O4G 1_555 1_555
Cu1F O4HD 1_555 1_555
Cu2C O3DD 1_555 1_555
Cu2D O3G 1_555 1_555
Cu2F O3HD 1_555 1_555
Cu3DD N2DD 1_555 1_555
Cu3HD N2HD 1_555 1_555
Cu3ID N2ID 1_555 1_555
Cu3KD N2KD 1_555 1_555
Cu3MD N2MD 1_555 1_555
Cu3OD N2OD 1_555 1_555
Cu3QB O5A 1_555 1_555
Cu3HF O5 1_555 1_555
O3N Cu2B 1_555 1_555
O3AD Cu2B 1_555 1_555
O3CD Cu2A 1_555 1_555
O3ND Cu2B 1_555 1_555
O4N Cu1B 1_555 1_555
O4AD Cu1B 1_555 1_555
O4CD Cu1A 1_555 1_555
O4ND Cu1B 1_555 1_555
O5B Cu3B 1_555 1_555
O5G Cu3G 1_555 1_555
O5H Cu3H 1_555 1_555
O5R Cu3R 1_555 1_555
N2TD Cu3G 1_555 1_555
N2OE Cu3H 1_555 1_555
N2VE Cu3A 1_555 1_555
N2BF Cu3B 1_555 1_555
N2LF Cu3R 1_555 1_555
N2DG Cu3 1_555 1_555
P1G W1 1_555 1_555
O10G W1 1_555 1_555
P1H O7 1_555 1_555
O10H P1H 1_555 1_555
O7HA P1G 1_555 1_555
O10HA P1H 1_555 1_555
O10LA P1G 1_555 1_555
P1MA O7HA 1_555 1_555
O10MA P1MA 1_555 1_555
O7GB P1 1_555 1_555
O10GB P1 1_555 1_555
O10IB P1MA 1_555 1_555
O10LB P1H 1_555 1_555
O7CC P1 1_555 1_555
O10CC P1MA 1_555 1_555
O10FC P1 1_555 1_555
O10KC W1 1_555 1_555
W1G P1H 1_555 1_555
O8G W1G 1_555 1_555
O9G W1G 1_555 1_555
W1H P1 1_555 1_555
O8H W1H 1_555 1_555
O9H W1H 1_555 1_555
W1KD P1 1_555 1_555
O8KD W1KD 1_555 1_555
O9KD W1KD 1_555 1_555
W1MD P1G 1_555 1_555
O8MD W1MD 1_555 1_555
O9MD W1MD 1_555 1_555
W1OD P1H 1_555 1_555
O8OD W1OD 1_555 1_555
O9OD W1OD 1_555 1_555
O8HA W1H 1_555 1_555
W1LA P1MA 1_555 1_555
O9LA W1LA 1_555 1_555
W1MA P1H 1_555 1_555
O8MA W1MA 1_555 1_555
O9MA W1MA 1_555 1_555
O8TD W1G 1_555 1_555
W1UD P1MA 1_555 1_555
O9UD W1UD 1_555 1_555
W1LE P1G 1_555 1_555
O8LE W1LE 1_555 1_555
O9LE W1LE 1_555 1_555
O8GB W1 1_555 1_555
W1IB P1 1_555 1_555
O9IB W1IB 1_555 1_555
O8TE W1MA 1_555 1_555
W1HF P1MA 1_555 1_555
O9HF W1HF 1_555 1_555
O4 C6 1_555 1_555
C4 C6 1_555 1_555
O7 P1G 1_555 1_555
O10 O10FC 1_555 1_555
O10 W1H 1_555 1_555
O10 W1KD 1_555 1_555
N1OD N2OD 1_555 1_555
C3OD C4OD 1_555 1_555
Cu1A Cu2A 1_555 1_555
O4A C6A 1_555 1_555
C4A C6A 1_555 1_555
N1HD N2HD 1_555 1_555
C3HD C4HD 1_555 1_555
O4B C6B 1_555 1_555
C4B C6B 1_555 1_555
O4ID C6ID 1_555 1_555
N1ID N2ID 1_555 1_555
C3ID C4ID 1_555 1_555
C4ID C6ID 1_555 1_555
O4KD C6KD 1_555 1_555
N1KD N2KD 1_555 1_555
C3KD C4KD 1_555 1_555
C4KD C6KD 1_555 1_555
O4H C6H 1_555 1_555
C4H C6H 1_555 1_555
O3MD Cu2D 1_555 1_555
O4MD Cu1D 1_555 1_555
N1MD N2MD 1_555 1_555
C3MD C4MD 1_555 1_555
O4R C6R 1_555 1_555
C4R C6R 1_555 1_555
N1DD N2DD 1_555 1_555
C3DD C4DD 1_555 1_555
Cu1C Cu2C 1_555 1_555
Cu1D Cu2D 1_555 1_555
Cu1F Cu2F 1_555 1_555
Cu3DD O5R 1_555 1_555
Cu3ID O5B 1_555 1_555
Cu3KD O5G 1_555 1_555
Cu3MD O5H 1_555 1_555
P1G O10G 1_555 1_555
P1G O7CC 1_555 1_555
P1G O10KC 1_555 1_555
O10G O10LA 1_555 1_555
O10G O10KC 1_555 1_555
O10G W1MD 1_555 1_555
P1H O7HA 1_555 1_555
P1H O7GB 1_555 1_555
O10H O10HA 1_555 1_555
O10H O10LB 1_555 1_555
O10H W1G 1_555 1_555
O10H W1OD 1_555 1_555
O10HA O10LB 1_555 1_555
O10HA W1G 1_555 1_555
O10HA W1MA 1_555 1_555
O10LA O10KC 1_555 1_555
O10LA W1MD 1_555 1_555
O10LA W1LE 1_555 1_555
P1MA O7GB 1_555 1_555
P1MA O7CC 1_555 1_555
O10MA O10IB 1_555 1_555
O10MA O10CC 1_555 1_555
O10MA W1LA 1_555 1_555
O10MA W1UD 1_555 1_555
O10GB O10FC 1_555 1_555
O10GB W1H 1_555 1_555
O10GB W1IB 1_555 1_555
O10IB O10CC 1_555 1_555
O10IB W1UD 1_555 1_555
O10IB W1HF 1_555 1_555
O10LB W1OD 1_555 1_555
O10LB W1MA 1_555 1_555
O10CC W1LA 1_555 1_555
O10CC W1HF 1_555 1_555
O10FC W1KD 1_555 1_555
O10FC W1IB 1_555 1_555
O10KC W1LE 1_555 1_555
O8G W1LA 1_555 1_555
O8H W1UD 1_555 1_555
W1KD O8TD 1_555 1_555
O8KD W1LA 1_555 1_555
W1MD O8HA 1_555 1_555
O8MD W1UD 1_555 1_555
W1OD O8GB 1_555 1_555
O8OD W1HF 1_555 1_555
O8MA W1IB 1_555 1_555
W1LE O8TE 1_555 1_555
O8LE W1IB 1_555 1_555

#END
