
#######################################################################
#
#                 Cambridge Crystallographic Data Centre
#                                CCDC 
#
#######################################################################
#
# If this CIF has been generated from an entry in the Cambridge 
# Structural Database, then it will include bibliographic, chemical, 
# crystal, experimental, refinement or atomic coordinate data resulting 
# from the CCDC's data processing and validation procedures.
#
#######################################################################

data_EXAHOC
_chemical_formula_moiety         'C36 H16 Cd2 N4 O8'
_symmetry_cell_setting           orthorhombic
_symmetry_space_group_name_H-M   'F d d 2'
_symmetry_Int_Tables_number      43
_space_group_name_Hall           'F 2 -2d'
loop_
_symmetry_equiv_pos_site_id
_symmetry_equiv_pos_as_xyz
1 x,y,z
2 -x,-y,z
3 1/4-x,1/4+y,1/4+z
4 1/4+x,1/4-y,1/4+z
5 x,1/2+y,1/2+z
6 -x,1/2-y,1/2+z
7 1/4-x,3/4+y,3/4+z
8 1/4+x,3/4-y,3/4+z
9 1/2+x,y,1/2+z
10 1/2-x,-y,1/2+z
11 3/4-x,1/4+y,3/4+z
12 3/4+x,1/4-y,3/4+z
13 1/2+x,1/2+y,z
14 1/2-x,1/2-y,z
15 3/4-x,3/4+y,1/4+z
16 3/4+x,3/4-y,1/4+z
_cell_length_a                   15.775(6)
_cell_length_b                   16.035(6)
_cell_length_c                   33.845(14)
_cell_angle_alpha                90
_cell_angle_beta                 90
_cell_angle_gamma                90
_cell_volume                     8561.16
loop_
_atom_site_label
_atom_site_type_symbol
_atom_site_fract_x
_atom_site_fract_y
_atom_site_fract_z
_atom_site_U_iso_or_equiv
_atom_site_thermal_displace_type
O1 O 0.1579(9) 0.8582(6) 0.2138(4) 0.0760 Uani
O2 O 0.1383(7) 0.8354(8) 0.2725(4) 0.0687 Uani
C1 C 0.1265(11) 0.8750(9) 0.2444(6) 0.0620 Uani
C2 C 0.0676(10) 0.9463(9) 0.2469(5) 0.0807 Uani
C3 C 0.0341(4) 0.9727(5) 0.2110(6) 0.0923 Uani
H1 H 0.0572 0.9540 0.1874 0.1110 Uiso
C4 C 0.0346(4) 0.9729(5) 0.2834(5) 0.0930 Uani
C5 C 0.0907(16) 0.992(2) 0.3205(6) 0.0773 Uani
C6 C 0.216(2) 0.9899(19) 0.3605(8) 0.0690 Uani
H2 H 0.2744 0.9854 0.3615 0.0820 Uiso
C7 C 0.1741(15) 0.9924(17) 0.3972(8) 0.0680 Uani
H3 H 0.2019 0.9966 0.4213 0.0820 Uiso
C8 C 0.0497(18) 0.997(2) 0.3576(7) 0.0730 Uani
N1 N 0.0894(15) 0.9880(15) 0.3933(9) 0.0640 Uani
C9 C 0.1804(15) 0.9933(17) 0.3226(9) 0.0710 Uani
H4 H 0.2140 0.9961 0.3001 0.0850 Uiso
O1A O -0.1579(9) 1.1418(6) 0.2138(4) 0.0760 Uani
O2A O -0.1383(7) 1.1646(8) 0.2725(4) 0.0687 Uani
C1A C -0.1265(11) 1.1250(9) 0.2444(6) 0.0620 Uani
C2A C -0.0676(10) 1.0537(9) 0.2469(5) 0.0807 Uani
C3A C -0.0341(4) 1.0273(5) 0.2110(6) 0.0923 Uani
H1A H -0.0572 1.0460 0.1874 0.1110 Uiso
C4A C -0.0346(4) 1.0271(5) 0.2834(5) 0.0930 Uani
C5A C -0.0907(16) 1.008(2) 0.3205(6) 0.0773 Uani
C6A C -0.216(2) 1.0101(19) 0.3605(8) 0.0690 Uani
H2A H -0.2744 1.0146 0.3615 0.0820 Uiso
C7A C -0.1741(15) 1.0076(17) 0.3972(8) 0.0680 Uani
H3A H -0.2019 1.0034 0.4213 0.0820 Uiso
C8A C -0.0497(18) 1.003(2) 0.3576(7) 0.0730 Uani
N1A N -0.0894(15) 1.0120(15) 0.3933(9) 0.0640 Uani
C9A C -0.1804(15) 1.0067(17) 0.3226(9) 0.0710 Uani
H4A H -0.2140 1.0039 0.3001 0.0850 Uiso
O3 O 0.3286(6) 0.8627(6) 0.2896(4) 0.0583 Uani
O4 O 0.3536(6) 0.8340(6) 0.2233(4) 0.0523 Uani
C10 C 0.3658(7) 0.8723(7) 0.2569(5) 0.0453 Uani
C11 C 0.4345(6) 0.9397(7) 0.2567(4) 0.0477 Uani
C12 C 0.4680(4) 0.9703(4) 0.2916(4) 0.0660 Uani
H5 H 0.4471 0.9506 0.3155 0.0790 Uiso
C13 C 0.4676(4) 0.9706(4) 0.2215(4) 0.0630 Uani
C14 C 0.4148(10) 0.9833(14) 0.1842(4) 0.0413 Uani
C15 C 0.3266(11) 0.9792(14) 0.1783(6) 0.0397 Uani
H6 H 0.2933 0.9772 0.2010 0.0480 Uiso
C16 C 0.2835(13) 0.9779(15) 0.1425(5) 0.0373 Uani
H7 H 0.2247 0.9761 0.1412 0.0450 Uiso
C17 C 0.3343(10) 0.9793(12) 0.1084(6) 0.0343 Uani
H8 H 0.3088 0.9774 0.0837 0.0410 Uiso
C18 C 0.4561(13) 0.9817(11) 0.1476(4) 0.0317 Uani
N2 N 0.4190(10) 0.9835(9) 0.1111(5) 0.0273 Uani
O3A O 0.6714(6) 1.1373(6) 0.2896(4) 0.0583 Uani
O4A O 0.6464(6) 1.1660(6) 0.2233(4) 0.0523 Uani
C10A C 0.6342(7) 1.1277(7) 0.2569(5) 0.0453 Uani
C11A C 0.5655(6) 1.0603(7) 0.2567(4) 0.0477 Uani
C12A C 0.5320(4) 1.0297(4) 0.2916(4) 0.0660 Uani
H5A H 0.5529 1.0494 0.3155 0.0790 Uiso
C13A C 0.5324(4) 1.0294(4) 0.2215(4) 0.0630 Uani
C14A C 0.5852(10) 1.0167(14) 0.1842(4) 0.0413 Uani
C15A C 0.6734(11) 1.0208(14) 0.1783(6) 0.0397 Uani
H6A H 0.7067 1.0228 0.2010 0.0480 Uiso
C16A C 0.7165(13) 1.0221(15) 0.1425(5) 0.0373 Uani
H7A H 0.7753 1.0239 0.1412 0.0450 Uiso
C17A C 0.6657(10) 1.0207(12) 0.1084(6) 0.0343 Uani
H8A H 0.6912 1.0226 0.0837 0.0410 Uiso
C18A C 0.5439(13) 1.0183(11) 0.1476(4) 0.0317 Uani
N2A N 0.5810(10) 1.0165(9) 0.1111(5) 0.0273 Uani
Cd1 Cd 0.2500 0.7500 0.30141(4) 0.0476 Uani
Cd2 Cd 0.2500 0.7500 0.19969(4) 0.0421 Uani
loop_
_atom_site_aniso_label
_atom_site_aniso_U_11
_atom_site_aniso_U_22
_atom_site_aniso_U_33
_atom_site_aniso_U_23
_atom_site_aniso_U_13
_atom_site_aniso_U_12
O1 0.121(10) 0.039(5) 0.068(9) 0.007(5) 0.001(7) -0.011(6)
O2 0.073(7) 0.085(7) 0.048(7) -0.014(6) -0.028(6) -0.015(6)
C1 0.076(8) 0.059(7) 0.051(9) -0.003(7) 0.012(8) -0.019(6)
C2 0.093(7) 0.087(7) 0.062(7) 0.004(7) 0.009(7) -0.006(6)
C3 0.115(10) 0.104(9) 0.058(9) 0.021(8) 0.000(9) 0.013(9)
C4 0.096(8) 0.111(8) 0.072(8) -0.003(8) 0.021(8) 0.025(7)
C5 0.086(9) 0.072(8) 0.074(9) -0.013(8) 0.030(8) 0.006(8)
C6 0.065(10) 0.054(9) 0.088(11) -0.010(9) 0.034(9) 0.020(8)
C7 0.067(9) 0.052(9) 0.085(11) -0.011(8) 0.029(9) 0.016(8)
C8 0.085(9) 0.062(9) 0.072(10) -0.019(8) 0.033(9) 0.005(8)
N1 0.071(8) 0.052(7) 0.069(8) -0.014(7) 0.030(7) 0.016(6)
C9 0.074(10) 0.057(9) 0.082(11) -0.018(9) 0.036(9) 0.007(8)
O1A 0.121 0.039 0.068 -0.007 -0.001 -0.011
O2A 0.073 0.085 0.048 0.014 0.028 -0.015
C1A 0.076 0.059 0.051 0.003 -0.012 -0.019
C2A 0.093 0.087 0.062 -0.004 -0.009 -0.006
C3A 0.115 0.104 0.058 -0.021 0 0.013
C4A 0.096 0.111 0.072 0.003 -0.021 0.025
C5A 0.086 0.072 0.074 0.013 -0.03 0.006
C6A 0.065 0.054 0.088 0.01 -0.034 0.02
C7A 0.067 0.052 0.085 0.011 -0.029 0.016
C8A 0.085 0.062 0.072 0.019 -0.033 0.005
N1A 0.071 0.052 0.069 0.014 -0.03 0.016
C9A 0.074 0.057 0.082 0.018 -0.036 0.007
O3 0.032(4) 0.069(6) 0.074(9) -0.009(5) 0.029(5) -0.029(4)
O4 0.044(5) 0.049(5) 0.064(6) -0.003(4) -0.012(4) -0.030(4)
C10 0.037(4) 0.047(5) 0.052(7) 0.000(5) -0.010(5) -0.027(4)
C11 0.037(4) 0.056(4) 0.050(5) 0.000(4) -0.008(4) -0.034(4)
C12 0.064(7) 0.076(7) 0.058(8) 0.009(7) 0.001(7) -0.047(7)
C13 0.051(6) 0.090(6) 0.048(6) -0.012(6) -0.012(6) -0.045(6)
C14 0.050(7) 0.037(6) 0.037(7) 0.001(6) -0.005(6) -0.019(6)
C15 0.043(8) 0.036(7) 0.040(8) 0.008(7) 0.004(7) -0.002(7)
C16 0.039(8) 0.030(7) 0.043(8) 0.000(7) -0.002(7) 0.004(7)
C17 0.050(8) 0.016(6) 0.037(7) -0.003(6) -0.003(7) 0.008(6)
C18 0.052(8) 0.017(6) 0.026(7) 0.003(6) -0.004(7) -0.006(6)
N2 0.046(6) 0.007(5) 0.029(6) -0.004(5) 0.008(5) -0.001(5)
O3A 0.032 0.069 0.074 0.009 -0.029 -0.029
O4A 0.044 0.049 0.064 0.003 0.012 -0.03
C10A 0.037 0.047 0.052 0 0.01 -0.027
C11A 0.037 0.056 0.05 0 0.008 -0.034
C12A 0.064 0.076 0.058 -0.009 -0.001 -0.047
C13A 0.051 0.09 0.048 0.012 0.012 -0.045
C14A 0.05 0.037 0.037 -0.001 0.005 -0.019
C15A 0.043 0.036 0.04 -0.008 -0.004 -0.002
C16A 0.039 0.03 0.043 0 0.002 0.004
C17A 0.05 0.016 0.037 0.003 0.003 0.008
C18A 0.052 0.017 0.026 -0.003 0.004 -0.006
N2A 0.046 0.007 0.029 0.004 -0.008 -0.001
Cd1 0.0416(9) 0.0611(11) 0.0402(12) 0.000 0.000 -0.0349(5)
Cd2 0.0556(11) 0.0346(6) 0.0361(10) 0.000 0.000 -0.0270(5)
loop_
_geom_bond_atom_site_label_1
_geom_bond_atom_site_label_2
_geom_bond_site_symmetry_1
_geom_bond_site_symmetry_2
O1 C1 1_555 1_555
O2 C1 1_555 1_555
C1 C2 1_555 1_555
C2 C3 1_555 1_555
C3 H1 1_555 1_555
C4 C2 1_555 1_555
C5 C4 1_555 1_555
C6 H2 1_555 1_555
C7 C6 1_555 1_555
H3 C7 1_555 1_555
C8 C5 1_555 1_555
N1 C7 1_555 1_555
C9 C5 1_555 1_555
H4 C9 1_555 1_555
O3 C10 1_555 1_555
O4 C10 1_555 1_555
C10 C11 1_555 1_555
C11 C12 1_555 1_555
C12 H5 1_555 1_555
C13 C11 1_555 1_555
C14 C13 1_555 1_555
C15 C14 1_555 1_555
H6 C15 1_555 1_555
C16 C15 1_555 1_555
H7 C16 1_555 1_555
C17 C16 1_555 1_555
H8 C17 1_555 1_555
C18 C14 1_555 1_555
N2 C17 1_555 1_555
O1A C1A 1_555 1_555
O2A C1A 1_555 1_555
C1A C2A 1_555 1_555
C2A C3A 1_555 1_555
C3A C3 1_555 1_555
H1A C3A 1_555 1_555
C4A C4 1_555 1_555
C5A C4A 1_555 1_555
C6A H2A 1_555 1_555
C7A C6A 1_555 1_555
H3A C7A 1_555 1_555
C8A C8 1_555 1_555
N1A C7A 1_555 1_555
C9A C5A 1_555 1_555
H4A C9A 1_555 1_555
O3A C10A 1_555 1_555
O4A C10A 1_555 1_555
C10A C11A 1_555 1_555
C11A C12A 1_555 1_555
C12A C12 1_555 1_555
H5A C12A 1_555 1_555
C13A C13 1_555 1_555
C14A C13A 1_555 1_555
C15A C14A 1_555 1_555
H6A C15A 1_555 1_555
C16A C15A 1_555 1_555
H7A C16A 1_555 1_555
C17A C16A 1_555 1_555
H8A C17A 1_555 1_555
C18A C18 1_555 1_555
N2A C17A 1_555 1_555
C6 C9 1_555 1_555
C8 N1 1_555 1_555
C18 N2 1_555 1_555
C2A C4A 1_555 1_555
C5A C8A 1_555 1_555
C6A C9A 1_555 1_555
C8A N1A 1_555 1_555
C11A C13A 1_555 1_555
C14A C18A 1_555 1_555
C18A N2A 1_555 1_555

#END
