
#######################################################################
#
#                 Cambridge Crystallographic Data Centre
#                                CCDC 
#
#######################################################################
#
# If this CIF has been generated from an entry in the Cambridge 
# Structural Database, then it will include bibliographic, chemical, 
# crystal, experimental, refinement or atomic coordinate data resulting 
# from the CCDC's data processing and validation procedures.
#
#######################################################################

data_PEJRIH
_chemical_formula_moiety         '(C204 H152 Co8 N16 O48)n'
_symmetry_cell_setting           monoclinic
_symmetry_space_group_name_H-M   'C 2/c'
_symmetry_Int_Tables_number      15
_space_group_name_Hall           '-C 2yc'
loop_
_symmetry_equiv_pos_site_id
_symmetry_equiv_pos_as_xyz
1 x,y,z
2 1/2+x,1/2+y,z
3 -x,y,1/2-z
4 1/2-x,1/2+y,1/2-z
5 -x,-y,-z
6 1/2-x,1/2-y,-z
7 x,-y,1/2+z
8 1/2+x,1/2-y,1/2+z
_cell_length_a                   20.930(2)
_cell_length_b                   52.180(5)
_cell_length_c                   30.679(3)
_cell_angle_alpha                90
_cell_angle_beta                 104.625(2)
_cell_angle_gamma                90
_cell_volume                     32419.8
loop_
_atom_site_label
_atom_site_type_symbol
_atom_site_fract_x
_atom_site_fract_y
_atom_site_fract_z
Co1 Co 0.43824(4) 0.136419(17) 0.51529(2)
Co2 Co 0.31379(4) 0.113816(17) 0.48965(2)
O1 O 0.3904(2) 0.16191(8) 0.46806(14)
O2 O 0.4610(2) 0.11626(8) 0.46521(13)
N1 N 0.5205(2) 0.15866(9) 0.54065(15)
O3 O 0.1074(2) 0.34775(9) 0.43867(14)
O4 O 0.5382(2) -0.10618(8) 0.44293(14)
O5 O 0.2904(2) 0.14371(8) 0.44694(13)
O6 O 0.3597(2) 0.09812(8) 0.44414(13)
N2 N 0.2327(2) 0.09134(9) 0.46455(15)
O7 O 0.2080(2) 0.36544(8) 0.45983(13)
O8 O 0.6377(3) -0.08805(8) 0.46219(15)
C1 C 0.3348(4) 0.16069(12) 0.4438(2)
C2 C 0.4181(4) 0.10184(12) 0.4394(2)
C3 C 0.5333(3) 0.16912(13) 0.58295(19)
C4 C 0.5568(3) 0.17176(13) 0.5184(2)
C5 C 0.1635(4) 0.35077(14) 0.4348(2)
C6 C 0.1949(3) 0.07895(12) 0.4857(2)
C7 C 0.2170(3) 0.08110(14) 0.4216(2)
C8 C 0.3126(4) 0.18002(12) 0.4064(2)
C9 C 0.4363(4) 0.08836(11) 0.4015(2)
H1 H 0.5134 0.1642 0.6055
C10 C 0.5798(3) 0.18783(13) 0.58688(19)
N3 N 0.5966(2) 0.18831(10) 0.54599(16)
H2 H 0.5549 0.1697 0.4880
C11 C 0.1841(3) 0.33711(13) 0.3977(2)
N4 N 0.1566(3) 0.06162(10) 0.45839(16)
H3 H 0.1945 0.0817 0.5156
H4 H 0.2358 0.0865 0.3988
C12 C 0.1722(4) 0.06285(14) 0.4167(2)
C13 C 0.3575(4) 0.19846(13) 0.3996(2)
C14 C 0.2490(4) 0.18026(14) 0.3787(2)
C15 C 0.3887(4) 0.07367(13) 0.3712(2)
C16 C 0.4985(4) 0.09060(16) 0.3964(3)
H5 H 0.5968 0.1981 0.6118
C17 C 0.6412(4) 0.20584(15) 0.5330(2)
C18 C 0.2479(4) 0.33933(17) 0.3937(3)
C19 C 0.1419(4) 0.32356(14) 0.3661(2)
C20 C 0.1084(4) 0.04446(14) 0.4696(2)
H6 H 0.1548 0.0530 0.3912
C21 C 0.3391(4) 0.21564(13) 0.3651(2)
H7 H 0.3999 0.1990 0.4185
H8 H 0.2181 0.1686 0.3840
C22 C 0.2308(4) 0.19715(13) 0.3439(2)
H9 H 0.3464 0.0724 0.3755
C23 C 0.4036(4) 0.06110(13) 0.3352(2)
H10 H 0.5297 0.1003 0.4167
C24 C 0.5156(4) 0.07830(16) 0.3609(3)
C25 C 0.6707(4) 0.20006(14) 0.5000(3)
C26 C 0.6533(4) 0.22906(13) 0.5543(2)
C27 C 0.2673(5) 0.32544(19) 0.3601(3)
H11 H 0.2778 0.3499 0.4131
C28 C 0.1603(4) 0.31083(16) 0.3322(3)
H12 H 0.0980 0.3227 0.3672
C29 C 0.0831(5) 0.05037(16) 0.5046(3)
C30 C 0.0991(4) 0.02083(15) 0.4475(2)
C31 C 0.2778(4) 0.21540(13) 0.3364(2)
H13 H 0.3695 0.2279 0.3611
H14 H 0.1882 0.1968 0.3251
C32 C 0.4677(5) 0.06293(14) 0.3313(2)
H15 H 0.3717 0.0518 0.3146
H16 H 0.5577 0.0801 0.3565
H17 H 0.6621 0.1842 0.4859
C33 C 0.7130(4) 0.21654(14) 0.4863(2)
C34 C 0.6967(4) 0.24539(16) 0.5409(3)
H18 H 0.6331 0.2337 0.5768
C35 C 0.2240(4) 0.31115(14) 0.3294(2)
H19 H 0.3113 0.3261 0.3588
H20 H 0.1288 0.3019 0.3108
H21 H 0.0950 0.0653 0.5212
C36 C 0.0369(4) 0.03253(13) 0.5151(3)
C37 C 0.0535(4) 0.00397(12) 0.4597(2)
H22 H 0.1215 0.0164 0.4260
O9 O 0.2527(2) 0.23120(9) 0.30065(14)
O10 O 0.4925(3) 0.05205(9) 0.29844(16)
H23 H 0.7319 0.2116 0.4633
C38 C 0.7276(4) 0.23993(16) 0.5059(3)
H24 H 0.7063 0.2610 0.5559
O11 O 0.2509(3) 0.29907(9) 0.29970(15)
H25 H 0.0159 0.0368 0.5374
C39 C 0.0224(3) 0.00923(11) 0.4932(2)
H26 H 0.0441 -0.0115 0.4443
C40 C 0.2993(4) 0.24802(13) 0.2877(2)
C41 C 0.4523(4) 0.03338(12) 0.2685(2)
C42 C 0.2116(4) 0.28204(12) 0.2685(2)
C43 C 0.2592(3) 0.26515(14) 0.24991(19)
H27 H 0.3317 0.2382 0.2770
H28 H 0.3223 0.2584 0.3131
C44 C 0.5000 0.01753(18) 0.2500
H29 H 0.4285 0.0226 0.2849
H30 H 0.4206 0.0419 0.2443
H31 H 0.1824 0.2915 0.2443
H32 H 0.1850 0.2715 0.2832
C45 C 0.2182(3) 0.24966(12) 0.21112(19)
C46 C 0.3077(4) 0.28209(13) 0.2339(2)
C47 C 0.5421(4) 0.00061(13) 0.2868(2)
O12 O 0.2631(3) 0.23360(8) 0.19566(15)
H33 H 0.1860 0.2394 0.2211
H34 H 0.1950 0.2609 0.1872
O13 O 0.2683(3) 0.30000(9) 0.20364(16)
H35 H 0.3368 0.2909 0.2591
H36 H 0.3344 0.2720 0.2186
O14 O 0.4967(3) -0.01606(9) 0.30096(15)
H37 H 0.5663 0.0110 0.3118
H38 H 0.5735 -0.0092 0.2752
C48 C 0.2343(4) 0.21794(12) 0.1592(2)
C49 C 0.2981(5) 0.31135(14) 0.1736(2)
C50 C 0.5197(4) -0.03375(14) 0.3355(2)
C51 C 0.1692(3) 0.21710(12) 0.1349(2)
C52 C 0.2811(4) 0.20118(14) 0.1475(2)
C53 C 0.3634(4) 0.31081(16) 0.1732(2)
C54 C 0.2546(4) 0.32428(15) 0.1416(3)
C55 C 0.4742(4) -0.05135(14) 0.3406(2)
C56 C 0.5855(4) -0.03334(13) 0.3614(2)
C57 C 0.1504(4) 0.19993(12) 0.1009(2)
H39 H 0.1384 0.2282 0.1418
H40 H 0.3252 0.2018 0.1634
C58 C 0.2603(4) 0.18400(12) 0.1122(2)
H41 H 0.3939 0.3024 0.1960
C59 C 0.3840(4) 0.32269(14) 0.1391(2)
C60 C 0.2731(4) 0.33739(16) 0.1066(2)
H42 H 0.2106 0.3246 0.1426
C61 C 0.4968(4) -0.06935(13) 0.3759(2)
H43 H 0.4314 -0.0516 0.3222
H44 H 0.6161 -0.0218 0.3554
C62 C 0.6027(4) -0.05102(14) 0.3967(2)
C63 C 0.1927(4) 0.18241(13) 0.0897(2)
H45 H 0.1066 0.2000 0.0842
H46 H 0.2909 0.1736 0.1035
H47 H 0.4284 0.3221 0.1392
C64 C 0.3406(4) 0.33530(12) 0.1053(2)
H48 H 0.2429 0.3470 0.0854
C65 C 0.5602(4) -0.06934(13) 0.4034(2)
H49 H 0.4674 -0.0818 0.3807
H50 H 0.6447 -0.0502 0.4162
C66 C 0.1686(4) 0.16265(11) 0.0538(2)
C67 C 0.3625(5) 0.34859(14) 0.0674(2)
C68 C 0.5785(4) -0.08962(14) 0.4385(2)
O15 O 0.1105(2) 0.16360(8) 0.03215(13)
O16 O 0.2114(2) 0.14550(8) 0.05056(13)
O17 O 0.4198(3) 0.34394(9) 0.06448(15)
O18 O 0.3200(3) 0.36324(9) 0.04201(13)
Co3 Co 0.06255(5) 0.136604(17) -0.01119(2)
Co4 Co 0.18690(5) 0.112920(17) 0.01368(3)
O19 O 0.0360(2) 0.10430(8) -0.04930(14)
N5 N -0.0309(2) 0.14825(9) -0.01046(15)
O20 O 0.0715(3) -0.11269(9) -0.45530(14)
O21 O 0.1353(3) 0.08635(8) -0.03036(14)
N6 N 0.2801(2) 0.10128(9) 0.01183(14)
O22 O 0.1700(2) -0.09403(9) -0.43326(14)
C69 C 0.0751(4) 0.08748(15) -0.0536(2)
C70 C -0.0525(4) 0.17207(14) -0.0097(2)
C71 C -0.0824(3) 0.13318(13) -0.0067(3)
C72 C 0.3028(3) 0.07777(12) 0.0108(2)
C73 C 0.3287(3) 0.11690(12) 0.0080(2)
C74 C 0.0539(4) 0.06716(12) -0.0896(2)
N7 N -0.1140(3) 0.17230(10) -0.00578(19)
H51 H -0.0278 0.1866 -0.0118
H52 H -0.0824 0.1154 -0.0068
C75 C -0.1337(4) 0.14809(15) -0.0026(3)
N8 N 0.3645(2) 0.07755(9) 0.00620(16)
H53 H 0.2787 0.0631 0.0131
H54 H 0.3269 0.1347 0.0081
C76 C 0.3822(3) 0.10257(12) 0.0040(3)
C77 C 0.0989(4) 0.05113(13) -0.1000(2)
C78 C -0.0114(4) 0.06651(13) -0.1142(2)
C79 C -0.1539(4) 0.19516(15) -0.0042(3)
H55 H -0.1741 0.1426 0.0016
C80 C 0.4041(4) 0.05511(14) 0.0040(3)
H56 H 0.4223 0.1087 0.0005
C81 C 0.0830(4) 0.03421(13) -0.1367(2)
H57 H 0.1420 0.0514 -0.0821
H58 H -0.0419 0.0776 -0.1069
C82 C -0.0317(4) 0.04940(13) -0.1494(2)
C83 C -0.1948(5) 0.19437(19) 0.0214(4)
C84 C -0.1505(4) 0.21511(13) -0.0313(3)
C85 C 0.4011(4) 0.03504(14) 0.0322(3)
C86 C 0.4481(4) 0.05569(14) -0.0203(3)
C87 C 0.0160(4) 0.03388(14) -0.1599(2)
H59 H 0.1144 0.0240 -0.1450
H60 H -0.0757 0.0484 -0.1655
H61 H -0.1996 0.1795 0.0370
C88 C -0.2311(6) 0.2159(2) 0.0250(5)
C89 C -0.1886(4) 0.23611(12) -0.0292(2)
H62 H -0.1231 0.2146 -0.0508
H63 H 0.3747 0.0360 0.0524
C90 C 0.4393(4) 0.01285(14) 0.0300(3)
H64 H 0.4544 0.0704 -0.0357
C91 C 0.4851(5) 0.03344(15) -0.0222(4)
O23 O -0.0080(3) 0.01787(9) -0.19711(14)
H65 H -0.2567 0.2161 0.0457
C92 C -0.2303(5) 0.23656(18) -0.0005(4)
H66 H -0.1865 0.2503 -0.0472
H67 H 0.4355 -0.0011 0.0479
C93 C 0.4803(4) 0.01121(12) 0.0031(3)
H68 H 0.5139 0.0333 -0.0408
C94 C 0.0395(4) 0.00193(13) -0.2123(2)
C95 C 0.0000 -0.01488(18) -0.2500
H69 H 0.0643 -0.0086 -0.1877
H70 H 0.0702 0.0126 -0.2231
C96 C 0.0509(4) -0.03094(12) -0.2657(2)
O24 O 0.0128(3) -0.04862(10) -0.29912(18)
H71 H 0.0786 -0.0201 -0.2790
H72 H 0.0787 -0.0403 -0.2407
C97 C 0.0417(4) -0.06027(14) -0.3286(2)
C98 C 0.1076(4) -0.05958(12) -0.3260(2)
C99 C -0.0013(4) -0.07461(15) -0.3625(3)
H73 H 0.1361 -0.0507 -0.3027
C100 C 0.1318(4) -0.07210(12) -0.3582(2)
C101 C 0.0237(4) -0.08612(14) -0.3953(2)
H74 H -0.0456 -0.0763 -0.3629
H75 H 0.1769 -0.0718 -0.3561
C102 C 0.0900(4) -0.08515(14) -0.3936(2)
H76 H -0.0048 -0.0947 -0.4189
C103 C 0.1133(4) -0.09809(13) -0.4297(2)
O2B O 0.5390(2) 0.11626(8) 0.03479(13)
O6B O 0.6403(2) 0.09812(8) 0.05586(13)
C2B C 0.5819(4) 0.10184(12) 0.0606(2)
C9B C 0.5637(4) 0.08836(11) 0.0985(2)
C15B C 0.6113(4) 0.07367(13) 0.1288(2)
C16B C 0.5015(4) 0.09060(16) 0.1036(3)
H9B H 0.6536 0.0724 0.1245
C23B C 0.5964(4) 0.06110(13) 0.1648(2)
H10B H 0.4703 0.1003 0.0833
C24B C 0.4844(4) 0.07830(16) 0.1391(3)
C32B C 0.5323(5) 0.06293(14) 0.1687(2)
H15B H 0.6283 0.0518 0.1854
H16B H 0.4423 0.0801 0.1435
O10B O 0.5075(3) 0.05205(9) 0.20156(16)
C41B C 0.5477(4) 0.03338(12) 0.2315(2)
H29B H 0.5715 0.0226 0.2151
H30B H 0.5794 0.0419 0.2557
C47B C 0.4579(4) 0.00061(13) 0.2132(2)
O14B O 0.5033(3) -0.01606(9) 0.19904(15)
H37B H 0.4337 0.0110 0.1882
H38B H 0.4265 -0.0092 0.2248
C50B C 0.4803(4) -0.03375(14) 0.1645(2)
C55B C 0.5258(4) -0.05135(14) 0.1594(2)
C56B C 0.4145(4) -0.03334(13) 0.1386(2)
C61B C 0.5032(4) -0.06935(13) 0.1241(2)
H43B H 0.5686 -0.0516 0.1778
H44B H 0.3839 -0.0218 0.1446
C62B C 0.3973(4) -0.05102(14) 0.1033(2)
C65B C 0.4398(4) -0.06934(13) 0.0966(2)
H49B H 0.5326 -0.0818 0.1193
H50B H 0.3553 -0.0502 0.0838
C68B C 0.4215(4) -0.08962(14) 0.0615(2)
O4B O 0.4618(2) -0.10618(8) 0.05707(14)
O8B O 0.3623(3) -0.08805(8) 0.03781(15)
N1E N 0.9795(2) 0.34134(9) 0.45935(15)
C3E C 0.9667(3) 0.33088(13) 0.41705(19)
C4E C 0.9432(3) 0.32824(13) 0.4816(2)
H1E H 0.9866 0.3358 0.3945
C10E C 0.9202(3) 0.31217(13) 0.41312(19)
N3E N 0.9034(2) 0.31169(10) 0.45401(16)
H2E H 0.9451 0.3303 0.5120
H5E H 0.9032 0.3019 0.3882
C17E C 0.8588(4) 0.29416(15) 0.4670(2)
C25E C 0.8293(4) 0.29994(14) 0.5000(3)
C26E C 0.8467(4) 0.27094(13) 0.4457(2)
H17E H 0.8379 0.3158 0.5141
C33E C 0.7870(4) 0.28346(14) 0.5137(2)
C34E C 0.8033(4) 0.25461(16) 0.4591(3)
H18E H 0.8669 0.2663 0.4232
H23E H 0.7681 0.2884 0.5367
C38E C 0.7724(4) 0.26007(16) 0.4941(3)
H24E H 0.7937 0.2390 0.4441
N2D N -0.2327(2) -0.09134(9) 0.53545(15)
C6D C -0.1949(3) -0.07895(12) 0.5143(2)
C7D C -0.2170(3) -0.08110(14) 0.5784(2)
N4D N -0.1566(3) -0.06162(10) 0.54161(16)
H3D H -0.1945 -0.0817 0.4844
H4D H -0.2358 -0.0865 0.6012
C12D C -0.1722(4) -0.06285(14) 0.5833(2)
C20D C -0.1084(4) -0.04446(14) 0.5304(2)
H6D H -0.1548 -0.0530 0.6088
C29D C -0.0831(5) -0.05037(16) 0.4954(3)
C30D C -0.0991(4) -0.02083(15) 0.5525(2)
H21D H -0.0950 -0.0653 0.4788
C36D C -0.0369(4) -0.03253(13) 0.4849(3)
C37D C -0.0535(4) -0.00397(12) 0.5403(2)
H22D H -0.1215 -0.0164 0.5740
H25D H -0.0159 -0.0368 0.4626
C39D C -0.0224(3) -0.00923(11) 0.5068(2)
H26D H -0.0441 0.0115 0.5557
O19B O -0.0360(2) 0.10430(8) -0.45070(14)
O21B O -0.1353(3) 0.08635(8) -0.46964(14)
C69B C -0.0751(4) 0.08748(15) -0.4464(2)
C74B C -0.0539(4) 0.06716(12) -0.4104(2)
C77B C -0.0989(4) 0.05113(13) -0.4000(2)
C78B C 0.0114(4) 0.06651(13) -0.3858(2)
C81B C -0.0830(4) 0.03421(13) -0.3633(2)
H57B H -0.1420 0.0514 -0.4179
H58B H 0.0419 0.0776 -0.3931
C82B C 0.0317(4) 0.04940(13) -0.3506(2)
C87B C -0.0160(4) 0.03388(14) -0.3401(2)
H59B H -0.1144 0.0240 -0.3550
H60B H 0.0757 0.0484 -0.3345
O23B O 0.0080(3) 0.01787(9) -0.30289(14)
C94B C -0.0395(4) 0.00193(13) -0.2877(2)
H69B H -0.0643 -0.0086 -0.3123
H70B H -0.0702 0.0126 -0.2769
C96B C -0.0509(4) -0.03094(12) -0.2343(2)
O24B O -0.0128(3) -0.04862(10) -0.20088(18)
H71B H -0.0786 -0.0201 -0.2210
H72B H -0.0787 -0.0403 -0.2593
C97B C -0.0417(4) -0.06027(14) -0.1714(2)
C98B C -0.1076(4) -0.05958(12) -0.1740(2)
C99B C 0.0013(4) -0.07461(15) -0.1375(3)
H73B H -0.1361 -0.0507 -0.1973
C100B C -0.1318(4) -0.07210(12) -0.1418(2)
C101B C -0.0237(4) -0.08612(14) -0.1047(2)
H74B H 0.0456 -0.0763 -0.1371
H75B H -0.1769 -0.0718 -0.1439
C102B C -0.0900(4) -0.08515(14) -0.1064(2)
H76B H 0.0048 -0.0947 -0.0811
C103B C -0.1133(4) -0.09809(13) -0.0703(2)
O20B O -0.0715(3) -0.11269(9) -0.04470(14)
O22B O -0.1700(2) -0.09403(9) -0.06674(14)
N5E N -0.4691(2) 0.35175(9) 0.01046(15)
C70E C -0.4475(4) 0.32793(14) 0.0097(2)
C71E C -0.4176(3) 0.36682(13) 0.0067(3)
N7E N -0.3860(3) 0.32770(10) 0.00578(19)
H51E H -0.4722 0.3134 0.0118
H52E H -0.4176 0.3846 0.0068
C75E C -0.3663(4) 0.35191(15) 0.0026(3)
C79E C -0.3461(4) 0.30484(15) 0.0042(3)
H55E H -0.3259 0.3574 -0.0016
C83E C -0.3052(5) 0.30563(19) -0.0214(4)
C84E C -0.3495(4) 0.28489(13) 0.0313(3)
H61E H -0.3004 0.3205 -0.0370
C88E C -0.2689(6) 0.2841(2) -0.0250(5)
C89E C -0.3114(4) 0.26389(12) 0.0292(2)
H62E H -0.3769 0.2854 0.0508
H65E H -0.2433 0.2839 -0.0457
C92E C -0.2697(5) 0.26344(18) 0.0005(4)
H66E H -0.3135 0.2497 0.0472
N6D N 0.7199(2) -0.10128(9) -0.01183(14)
C72D C 0.6972(3) -0.07777(12) -0.0108(2)
C73D C 0.6713(3) -0.11690(12) -0.0080(2)
N8D N 0.6355(2) -0.07755(9) -0.00620(16)
H53D H 0.7213 -0.0631 -0.0131
H54D H 0.6731 -0.1347 -0.0081
C76D C 0.6178(3) -0.10257(12) -0.0040(3)
C80D C 0.5959(4) -0.05511(14) -0.0040(3)
H56D H 0.5777 -0.1087 -0.0005
C85D C 0.5989(4) -0.03504(14) -0.0322(3)
C86D C 0.5519(4) -0.05569(14) 0.0203(3)
H63D H 0.6253 -0.0360 -0.0524
C90D C 0.5607(4) -0.01285(14) -0.0300(3)
H64D H 0.5456 -0.0704 0.0357
C91D C 0.5149(5) -0.03344(15) 0.0222(4)
H67D H 0.5645 0.0011 -0.0479
C93D C 0.5197(4) -0.01121(12) -0.0031(3)
H68D H 0.4861 -0.0333 0.0408
Co1B Co -0.43824(4) 0.136419(17) -1.01529(2)
Co2B Co -0.31379(4) 0.113816(17) -0.98965(2)
O1B O -0.3904(2) 0.16191(8) -0.96806(14)
O3B O -0.1074(2) 0.34775(9) -0.93867(14)
O5B O -0.2904(2) 0.14371(8) -0.94694(13)
O7B O -0.2080(2) 0.36544(8) -0.95983(13)
C1B C -0.3348(4) 0.16069(12) -0.9438(2)
C5B C -0.1635(4) 0.35077(14) -0.9348(2)
C8B C -0.3126(4) 0.18002(12) -0.9064(2)
C11B C -0.1841(3) 0.33711(13) -0.8977(2)
C13B C -0.3575(4) 0.19846(13) -0.8996(2)
C14B C -0.2490(4) 0.18026(14) -0.8787(2)
C18B C -0.2479(4) 0.33933(17) -0.8937(3)
C19B C -0.1419(4) 0.32356(14) -0.8661(2)
C21B C -0.3391(4) 0.21564(13) -0.8651(2)
H7B H -0.3999 0.1990 -0.9185
H8B H -0.2181 0.1686 -0.8840
C22B C -0.2308(4) 0.19715(13) -0.8439(2)
C27B C -0.2673(5) 0.32544(19) -0.8601(3)
H11B H -0.2778 0.3499 -0.9131
C28B C -0.1603(4) 0.31083(16) -0.8322(3)
H12B H -0.0980 0.3227 -0.8672
C31B C -0.2778(4) 0.21540(13) -0.8364(2)
H13B H -0.3695 0.2279 -0.8611
H14B H -0.1882 0.1968 -0.8251
C35B C -0.2240(4) 0.31115(14) -0.8294(2)
H19B H -0.3113 0.3261 -0.8588
H20B H -0.1288 0.3019 -0.8108
O9B O -0.2527(2) 0.23120(9) -0.80065(14)
O11B O -0.2509(3) 0.29907(9) -0.79970(15)
C40B C -0.2993(4) 0.24802(13) -0.7877(2)
C42B C -0.2116(4) 0.28204(12) -0.7685(2)
C43B C -0.2592(3) 0.26515(14) -0.74991(19)
H27B H -0.3317 0.2382 -0.7770
H28B H -0.3223 0.2584 -0.8131
H31B H -0.1824 0.2915 -0.7443
H32B H -0.1850 0.2715 -0.7832
C45B C -0.2182(3) 0.24966(12) -0.71112(19)
C46B C -0.3077(4) 0.28209(13) -0.7339(2)
O12B O -0.2631(3) 0.23360(8) -0.69566(15)
H33B H -0.1860 0.2394 -0.7211
H34B H -0.1950 0.2609 -0.6872
O13B O -0.2683(3) 0.30000(9) -0.70364(16)
H35B H -0.3368 0.2909 -0.7591
H36B H -0.3344 0.2720 -0.7186
C48B C -0.2343(4) 0.21794(12) -0.6592(2)
C49B C -0.2981(5) 0.31135(14) -0.6736(2)
C51B C -0.1692(3) 0.21710(12) -0.6349(2)
C52B C -0.2811(4) 0.20118(14) -0.6475(2)
C53B C -0.3634(4) 0.31081(16) -0.6732(2)
C54B C -0.2546(4) 0.32428(15) -0.6416(3)
C57B C -0.1504(4) 0.19993(12) -0.6009(2)
H39B H -0.1384 0.2282 -0.6418
H40B H -0.3252 0.2018 -0.6634
C58B C -0.2603(4) 0.18400(12) -0.6122(2)
H41B H -0.3939 0.3024 -0.6960
C59B C -0.3840(4) 0.32269(14) -0.6391(2)
C60B C -0.2731(4) 0.33739(16) -0.6066(2)
H42B H -0.2106 0.3246 -0.6426
C63B C -0.1927(4) 0.18241(13) -0.5897(2)
H45B H -0.1066 0.2000 -0.5842
H46B H -0.2909 0.1736 -0.6035
H47B H -0.4284 0.3221 -0.6392
C64B C -0.3406(4) 0.33530(12) -0.6053(2)
H48B H -0.2429 0.3470 -0.5854
C66B C -0.1686(4) 0.16265(11) -0.5538(2)
C67B C -0.3625(5) 0.34859(14) -0.5674(2)
O15B O -0.1105(2) 0.16360(8) -0.53215(13)
O16B O -0.2114(2) 0.14550(8) -0.55056(13)
O17B O -0.4198(3) 0.34394(9) -0.56448(15)
O18B O -0.3200(3) 0.36324(9) -0.54201(13)
Co3B Co -0.06255(5) 0.136604(17) -0.48881(2)
Co4B Co -0.18690(5) 0.112920(17) -0.51368(3)
Co1B_2 Co 0.56176(4) 0.136419(17) -0.01529(2)
Co1D Co 0.56176(4) -0.136419(17) 0.48471(2)
Co1E Co 0.06176(4) 0.363581(17) 0.48471(2)
Co1E_2 Co 1.06176(4) 0.363581(17) 0.48471(2)
Co1F Co 0.43824(4) -0.136419(17) 0.01529(2)
Co1G Co -0.06176(4) 0.363581(17) -0.98471(2)
Co2B_2 Co 0.68621(4) 0.113816(17) 0.01035(2)
Co2D Co -0.31379(4) -0.113816(17) 0.51035(2)
Co2D_2 Co 0.68621(4) -0.113816(17) 0.51035(2)
Co2E Co 0.18621(4) 0.386184(17) 0.51035(2)
Co2F Co 0.31379(4) -0.113816(17) -0.01035(2)
Co2G Co -0.18621(4) 0.386184(17) -1.01035(2)
O2B_2 O -0.4610(2) 0.11626(8) -0.96521(13)
N1B N -0.5205(2) 0.15866(9) -1.04065(15)
O3E O 0.3926(2) 0.15225(9) 0.56133(14)
O3G O -0.3926(2) 0.15225(9) -1.06133(14)
O4D O 0.4618(2) 0.10618(8) 0.55707(14)
O4F O -0.4618(2) 0.10618(8) -1.05707(14)
O6B_2 O -0.3597(2) 0.09812(8) -0.94414(13)
N2B N -0.2327(2) 0.09134(9) -0.96455(15)
O7E O 0.2920(2) 0.13456(8) 0.54017(13)
O7G O -0.2920(2) 0.13456(8) -1.04017(13)
O8D O 0.3623(3) 0.08805(8) 0.53781(15)
O8F O -0.3623(3) 0.08805(8) -1.03781(15)
O17E O 0.0802(3) 0.15606(9) -0.06448(15)
O17G O -0.0802(3) 0.15606(9) -0.43552(15)
O18E O 0.1800(3) 0.13676(9) -0.04201(13)
O18G O -0.1800(3) 0.13676(9) -0.45799(13)
Co3D Co -0.06255(5) -0.136604(17) 0.01119(2)
Co3E Co -0.56255(5) 0.363396(17) 0.01119(2)
Co3E_2 Co 0.43745(5) 0.363396(17) 0.01119(2)
Co3F Co 0.06255(5) -0.136604(17) -0.51119(2)
Co3G Co -0.43745(5) 0.363396(17) -0.51119(2)
Co4D Co -0.18690(5) -0.112920(17) -0.01368(3)
Co4D_2 Co 0.81310(5) -0.112920(17) -0.01368(3)
Co4E Co 0.31310(5) 0.387080(17) -0.01368(3)
Co4F Co 0.18690(5) -0.112920(17) -0.48632(3)
Co4G Co -0.31310(5) 0.387080(17) -0.48632(3)
N5B N 0.0309(2) 0.14825(9) -0.48954(15)
O20D O -0.0715(3) 0.11269(9) -0.54470(14)
O20F O 0.0715(3) 0.11269(9) 0.04470(14)
N6B N -0.2801(2) 0.10128(9) -0.51183(14)
O22D O -0.1700(2) 0.09403(9) -0.56674(14)
O22F O 0.1700(2) 0.09403(9) 0.06674(14)
loop_
_geom_bond_atom_site_label_1
_geom_bond_atom_site_label_2
_geom_bond_site_symmetry_1
_geom_bond_site_symmetry_2
Co1 O1 1_555 1_555
Co2 O5 1_555 1_555
O1 C1 1_555 1_555
O2 Co1 1_555 1_555
N1 Co1 1_555 1_555
O3 C5 1_555 1_555
O4 C68 1_555 1_555
O5 C1 1_555 1_555
O6 Co2 1_555 1_555
N2 Co2 1_555 1_555
O7 C5 1_555 1_555
O8 C68 1_555 1_555
C1 C8 1_555 1_555
C2 O2 1_555 1_555
C3 N1 1_555 1_555
C4 N1 1_555 1_555
C5 C11 1_555 1_555
C6 N2 1_555 1_555
C7 N2 1_555 1_555
C8 C13 1_555 1_555
C9 C2 1_555 1_555
H1 C3 1_555 1_555
C10 C3 1_555 1_555
N3 C4 1_555 1_555
H2 C4 1_555 1_555
C11 C18 1_555 1_555
N4 C6 1_555 1_555
H3 C6 1_555 1_555
H4 C7 1_555 1_555
C12 C7 1_555 1_555
C13 C21 1_555 1_555
C14 C8 1_555 1_555
C15 C9 1_555 1_555
C16 C9 1_555 1_555
H5 C10 1_555 1_555
C17 N3 1_555 1_555
C18 C27 1_555 1_555
C19 C11 1_555 1_555
C20 N4 1_555 1_555
H6 C12 1_555 1_555
C21 C31 1_555 1_555
H7 C13 1_555 1_555
H8 C14 1_555 1_555
C22 C14 1_555 1_555
H9 C15 1_555 1_555
C23 C15 1_555 1_555
H10 C16 1_555 1_555
C24 C16 1_555 1_555
C25 C17 1_555 1_555
C26 C17 1_555 1_555
C27 C35 1_555 1_555
H11 C18 1_555 1_555
C28 C19 1_555 1_555
H12 C19 1_555 1_555
C29 C20 1_555 1_555
C30 C20 1_555 1_555
C31 C22 1_555 1_555
H13 C21 1_555 1_555
H14 C22 1_555 1_555
C32 C23 1_555 1_555
H15 C23 1_555 1_555
H16 C24 1_555 1_555
H17 C25 1_555 1_555
C33 C25 1_555 1_555
C34 C26 1_555 1_555
H18 C26 1_555 1_555
C35 C28 1_555 1_555
H19 C27 1_555 1_555
H20 C28 1_555 1_555
H21 C29 1_555 1_555
C36 C29 1_555 1_555
C37 C30 1_555 1_555
H22 C30 1_555 1_555
O9 C31 1_555 1_555
O10 C32 1_555 1_555
H23 C33 1_555 1_555
C38 C33 1_555 1_555
H24 C34 1_555 1_555
O11 C35 1_555 1_555
H25 C36 1_555 1_555
C39 C36 1_555 1_555
H26 C37 1_555 1_555
C40 O9 1_555 1_555
C41 O10 1_555 1_555
C42 O11 1_555 1_555
C43 C40 1_555 1_555
H27 C40 1_555 1_555
H28 C40 1_555 1_555
C44 C41 1_555 1_555
H29 C41 1_555 1_555
H30 C41 1_555 1_555
H31 C42 1_555 1_555
H32 C42 1_555 1_555
C45 C43 1_555 1_555
C46 C43 1_555 1_555
C47 C44 1_555 1_555
O12 C45 1_555 1_555
H33 C45 1_555 1_555
H34 C45 1_555 1_555
O13 C46 1_555 1_555
H35 C46 1_555 1_555
H36 C46 1_555 1_555
O14 C47 1_555 1_555
H37 C47 1_555 1_555
H38 C47 1_555 1_555
C48 O12 1_555 1_555
C49 O13 1_555 1_555
C50 O14 1_555 1_555
C51 C48 1_555 1_555
C52 C48 1_555 1_555
C53 C49 1_555 1_555
C54 C49 1_555 1_555
C55 C50 1_555 1_555
C56 C50 1_555 1_555
C57 C51 1_555 1_555
H39 C51 1_555 1_555
H40 C52 1_555 1_555
C58 C52 1_555 1_555
H41 C53 1_555 1_555
C59 C53 1_555 1_555
C60 C54 1_555 1_555
H42 C54 1_555 1_555
C61 C55 1_555 1_555
H43 C55 1_555 1_555
H44 C56 1_555 1_555
C62 C56 1_555 1_555
C63 C57 1_555 1_555
H45 C57 1_555 1_555
H46 C58 1_555 1_555
H47 C59 1_555 1_555
C64 C59 1_555 1_555
H48 C60 1_555 1_555
C65 C61 1_555 1_555
H49 C61 1_555 1_555
H50 C62 1_555 1_555
C66 C63 1_555 1_555
C67 C64 1_555 1_555
C68 C65 1_555 1_555
O15 C66 1_555 1_555
O16 C66 1_555 1_555
O17 C67 1_555 1_555
O18 C67 1_555 1_555
Co3 O15 1_555 1_555
Co4 O16 1_555 1_555
O19 Co3 1_555 1_555
N5 Co3 1_555 1_555
O20 C103 1_555 1_555
O21 Co4 1_555 1_555
N6 Co4 1_555 1_555
O22 C103 1_555 1_555
C69 O19 1_555 1_555
C70 N5 1_555 1_555
C71 N5 1_555 1_555
C72 N6 1_555 1_555
C73 N6 1_555 1_555
C74 C69 1_555 1_555
N7 C70 1_555 1_555
H51 C70 1_555 1_555
H52 C71 1_555 1_555
C75 C71 1_555 1_555
N8 C72 1_555 1_555
H53 C72 1_555 1_555
H54 C73 1_555 1_555
C76 C73 1_555 1_555
C77 C74 1_555 1_555
C78 C74 1_555 1_555
C79 N7 1_555 1_555
H55 C75 1_555 1_555
C80 N8 1_555 1_555
H56 C76 1_555 1_555
C81 C77 1_555 1_555
H57 C77 1_555 1_555
H58 C78 1_555 1_555
C82 C78 1_555 1_555
C83 C79 1_555 1_555
C84 C79 1_555 1_555
C85 C80 1_555 1_555
C86 C80 1_555 1_555
C87 C81 1_555 1_555
H59 C81 1_555 1_555
H60 C82 1_555 1_555
H61 C83 1_555 1_555
C88 C83 1_555 1_555
C89 C84 1_555 1_555
H62 C84 1_555 1_555
H63 C85 1_555 1_555
C90 C85 1_555 1_555
H64 C86 1_555 1_555
C91 C86 1_555 1_555
O23 C87 1_555 1_555
H65 C88 1_555 1_555
C92 C88 1_555 1_555
H66 C89 1_555 1_555
H67 C90 1_555 1_555
C93 C90 1_555 1_555
H68 C91 1_555 1_555
C94 O23 1_555 1_555
C95 C94 1_555 1_555
H69 C94 1_555 1_555
H70 C94 1_555 1_555
C96 C95 1_555 1_555
O24 C96 1_555 1_555
H71 C96 1_555 1_555
H72 C96 1_555 1_555
C97 O24 1_555 1_555
C98 C97 1_555 1_555
C99 C97 1_555 1_555
H73 C98 1_555 1_555
C100 C98 1_555 1_555
C101 C99 1_555 1_555
H74 C99 1_555 1_555
H75 C100 1_555 1_555
C102 C100 1_555 1_555
H76 C101 1_555 1_555
C103 C102 1_555 1_555
O2B C2B 1_555 1_555
O6B C2B 1_555 1_555
C2B C9B 1_555 1_555
C9B C15B 1_555 1_555
C15B H9B 1_555 1_555
C16B C9B 1_555 1_555
C23B C15B 1_555 1_555
H10B C16B 1_555 1_555
C24B C16B 1_555 1_555
C32B C23B 1_555 1_555
H15B C23B 1_555 1_555
H16B C24B 1_555 1_555
O10B C32B 1_555 1_555
C41B C44 1_555 1_555
H29B C41B 1_555 1_555
H30B C41B 1_555 1_555
C47B C44 1_555 1_555
O14B C47B 1_555 1_555
H37B C47B 1_555 1_555
H38B C47B 1_555 1_555
C50B O14B 1_555 1_555
C55B C50B 1_555 1_555
C56B C50B 1_555 1_555
C61B C55B 1_555 1_555
H43B C55B 1_555 1_555
H44B C56B 1_555 1_555
C62B C56B 1_555 1_555
C65B C61B 1_555 1_555
H49B C61B 1_555 1_555
H50B C62B 1_555 1_555
C68B C65B 1_555 1_555
O4B C68B 1_555 1_555
O8B C68B 1_555 1_555
N1E C3E 1_555 1_555
C3E H1E 1_555 1_555
C4E N1E 1_555 1_555
C10E C3E 1_555 1_555
N3E C4E 1_555 1_555
H2E C4E 1_555 1_555
H5E C10E 1_555 1_555
C17E N3E 1_555 1_555
C25E C17E 1_555 1_555
C26E C17E 1_555 1_555
H17E C25E 1_555 1_555
C33E C25E 1_555 1_555
C34E C26E 1_555 1_555
H18E C26E 1_555 1_555
H23E C33E 1_555 1_555
C38E C38 1_555 1_555
H24E C34E 1_555 1_555
N2D C6D 1_555 1_555
C6D N4D 1_555 1_555
C7D N2D 1_555 1_555
N4D C12D 1_555 1_555
H3D C6D 1_555 1_555
H4D C7D 1_555 1_555
C12D C7D 1_555 1_555
C20D N4D 1_555 1_555
H6D C12D 1_555 1_555
C29D C20D 1_555 1_555
C30D C20D 1_555 1_555
H21D C29D 1_555 1_555
C36D C29D 1_555 1_555
C37D C30D 1_555 1_555
H22D C30D 1_555 1_555
H25D C36D 1_555 1_555
C39D C39 1_555 1_555
H26D C37D 1_555 1_555
O19B C69B 1_555 1_555
O21B C69B 1_555 1_555
C69B C74B 1_555 1_555
C74B C77B 1_555 1_555
C77B C81B 1_555 1_555
C78B C74B 1_555 1_555
C81B C87B 1_555 1_555
H57B C77B 1_555 1_555
H58B C78B 1_555 1_555
C82B C78B 1_555 1_555
C87B C82B 1_555 1_555
H59B C81B 1_555 1_555
H60B C82B 1_555 1_555
O23B C87B 1_555 1_555
C94B C95 1_555 1_555
H69B C94B 1_555 1_555
H70B C94B 1_555 1_555
C96B C95 1_555 1_555
O24B C96B 1_555 1_555
H71B C96B 1_555 1_555
H72B C96B 1_555 1_555
C97B O24B 1_555 1_555
C98B C97B 1_555 1_555
C99B C97B 1_555 1_555
H73B C98B 1_555 1_555
C100B C98B 1_555 1_555
C101B C99B 1_555 1_555
H74B C99B 1_555 1_555
H75B C100B 1_555 1_555
C102B C100B 1_555 1_555
H76B C101B 1_555 1_555
C103B C102B 1_555 1_555
O20B C103B 1_555 1_555
O22B C103B 1_555 1_555
N5E C70E 1_555 1_555
C70E N7E 1_555 1_555
C71E N5E 1_555 1_555
N7E C75E 1_555 1_555
H51E C70E 1_555 1_555
H52E C71E 1_555 1_555
C75E C71E 1_555 1_555
C79E N7E 1_555 1_555
H55E C75E 1_555 1_555
C83E C79E 1_555 1_555
C84E C79E 1_555 1_555
H61E C83E 1_555 1_555
C88E C83E 1_555 1_555
C89E C84E 1_555 1_555
H62E C84E 1_555 1_555
H65E C88E 1_555 1_555
C92E C92 1_555 1_555
H66E C89E 1_555 1_555
N6D C72D 1_555 1_555
C72D N8D 1_555 1_555
C73D N6D 1_555 1_555
N8D C76D 1_555 1_555
H53D C72D 1_555 1_555
H54D C73D 1_555 1_555
C76D C73D 1_555 1_555
C80D N8D 1_555 1_555
H56D C76D 1_555 1_555
C85D C80D 1_555 1_555
C86D C80D 1_555 1_555
H63D C85D 1_555 1_555
C90D C85D 1_555 1_555
H64D C86D 1_555 1_555
C91D C86D 1_555 1_555
H67D C90D 1_555 1_555
C93D C93 1_555 1_555
H68D C91D 1_555 1_555
Co1B O1B 1_555 1_555
Co2B O5B 1_555 1_555
O1B C1B 1_555 1_555
O3B C5B 1_555 1_555
O5B C1B 1_555 1_555
O7B C5B 1_555 1_555
C1B C8B 1_555 1_555
C5B C11B 1_555 1_555
C8B C13B 1_555 1_555
C11B C18B 1_555 1_555
C13B C21B 1_555 1_555
C14B C8B 1_555 1_555
C18B C27B 1_555 1_555
C19B C11B 1_555 1_555
C21B C31B 1_555 1_555
H7B C13B 1_555 1_555
H8B C14B 1_555 1_555
C22B C14B 1_555 1_555
C27B C35B 1_555 1_555
H11B C18B 1_555 1_555
C28B C19B 1_555 1_555
H12B C19B 1_555 1_555
C31B C22B 1_555 1_555
H13B C21B 1_555 1_555
H14B C22B 1_555 1_555
C35B C28B 1_555 1_555
H19B C27B 1_555 1_555
H20B C28B 1_555 1_555
O9B C31B 1_555 1_555
O11B C35B 1_555 1_555
C40B O9B 1_555 1_555
C42B O11B 1_555 1_555
C43B C40B 1_555 1_555
H27B C40B 1_555 1_555
H28B C40B 1_555 1_555
H31B C42B 1_555 1_555
H32B C42B 1_555 1_555
C45B C43B 1_555 1_555
C46B C43B 1_555 1_555
O12B C45B 1_555 1_555
H33B C45B 1_555 1_555
H34B C45B 1_555 1_555
O13B C46B 1_555 1_555
H35B C46B 1_555 1_555
H36B C46B 1_555 1_555
C48B O12B 1_555 1_555
C49B O13B 1_555 1_555
C51B C48B 1_555 1_555
C52B C48B 1_555 1_555
C53B C49B 1_555 1_555
C54B C49B 1_555 1_555
C57B C51B 1_555 1_555
H39B C51B 1_555 1_555
H40B C52B 1_555 1_555
C58B C52B 1_555 1_555
H41B C53B 1_555 1_555
C59B C53B 1_555 1_555
C60B C54B 1_555 1_555
H42B C54B 1_555 1_555
C63B C57B 1_555 1_555
H45B C57B 1_555 1_555
H46B C58B 1_555 1_555
H47B C59B 1_555 1_555
C64B C59B 1_555 1_555
H48B C60B 1_555 1_555
C66B C63B 1_555 1_555
C67B C64B 1_555 1_555
O15B C66B 1_555 1_555
O16B C66B 1_555 1_555
O17B C67B 1_555 1_555
O18B C67B 1_555 1_555
Co3B O19B 1_555 1_555
Co4B O21B 1_555 1_555
Co1B_2 O2B 1_555 1_555
Co1D O4 1_555 1_555
Co1E O3 1_555 1_555
Co1E_2 N1E 1_555 1_555
Co1F O4B 1_555 1_555
Co1G O3B 1_555 1_555
Co2B_2 O6B 1_555 1_555
Co2D N2D 1_555 1_555
Co2D_2 O8 1_555 1_555
Co2E O7 1_555 1_555
Co2F O8B 1_555 1_555
Co2G O7B 1_555 1_555
O2B_2 Co1B 1_555 1_555
N1B Co1B 1_555 1_555
O3E Co1 1_555 1_555
O3G Co1B 1_555 1_555
O4D Co1 1_555 1_555
O4F Co1B 1_555 1_555
O6B_2 Co2B 1_555 1_555
N2B Co2B 1_555 1_555
O7E Co2 1_555 1_555
O7G Co2B 1_555 1_555
O8D Co2 1_555 1_555
O8F Co2B 1_555 1_555
O17E Co3 1_555 1_555
O17G Co3B 1_555 1_555
O18E Co4 1_555 1_555
O18G Co4B 1_555 1_555
Co3D O20B 1_555 1_555
Co3E N5E 1_555 1_555
Co3E_2 O17 1_555 1_555
Co3F O20 1_555 1_555
Co3G O17B 1_555 1_555
Co4D O22B 1_555 1_555
Co4D_2 N6D 1_555 1_555
Co4E O18 1_555 1_555
Co4F O22 1_555 1_555
Co4G O18B 1_555 1_555
N5B Co3B 1_555 1_555
O20D Co3B 1_555 1_555
O20F Co3 1_555 1_555
N6B Co4B 1_555 1_555
O22D Co4B 1_555 1_555
O22F Co4 1_555 1_555
O6 C2 1_555 1_555
C10 N3 1_555 1_555
N4 C12 1_555 1_555
C24 C32 1_555 1_555
C34 C38 1_555 1_555
C37 C39 1_555 1_555
C42 C43 1_555 1_555
C58 C63 1_555 1_555
C60 C64 1_555 1_555
C62 C65 1_555 1_555
O21 C69 1_555 1_555
N7 C75 1_555 1_555
N8 C76 1_555 1_555
C82 C87 1_555 1_555
C89 C92 1_555 1_555
C91 C93 1_555 1_555
C101 C102 1_555 1_555
C24B C32B 1_555 1_555
O10B C41B 1_555 1_555
C62B C65B 1_555 1_555
C10E N3E 1_555 1_555
C33E C38E 1_555 1_555
C34E C38E 1_555 1_555
C36D C39D 1_555 1_555
C37D C39D 1_555 1_555
O23B C94B 1_555 1_555
C101B C102B 1_555 1_555
C88E C92E 1_555 1_555
C89E C92E 1_555 1_555
C90D C93D 1_555 1_555
C91D C93D 1_555 1_555
C42B C43B 1_555 1_555
C58B C63B 1_555 1_555
C60B C64B 1_555 1_555
O15B Co3B 1_555 1_555
O16B Co4B 1_555 1_555

#END
