
#######################################################################
#
#                 Cambridge Crystallographic Data Centre
#                                CCDC 
#
#######################################################################
#
# If this CIF has been generated from an entry in the Cambridge 
# Structural Database, then it will include bibliographic, chemical, 
# crystal, experimental, refinement or atomic coordinate data resulting 
# from the CCDC's data processing and validation procedures.
#
#######################################################################

data_ZIMTAS
_chemical_formula_moiety         'C56 H32 Cl2 Cu15 N42 O4 Si2'
_symmetry_cell_setting           tetragonal
_symmetry_space_group_name_H-M   'P 42/m n m'
_symmetry_Int_Tables_number      136
_space_group_name_Hall           '-P 4n 2n'
loop_
_symmetry_equiv_pos_site_id
_symmetry_equiv_pos_as_xyz
1 x,y,z
2 -x,-y,z
3 1/2-y,1/2+x,1/2+z
4 1/2+y,1/2-x,1/2+z
5 1/2-x,1/2+y,1/2-z
6 1/2+x,1/2-y,1/2-z
7 y,x,-z
8 -y,-x,-z
9 -x,-y,-z
10 x,y,-z
11 1/2+y,1/2-x,1/2-z
12 1/2-y,1/2+x,1/2-z
13 1/2+x,1/2-y,1/2+z
14 1/2-x,1/2+y,1/2+z
15 -y,-x,z
16 y,x,z
_cell_length_a                   18.5153(3)
_cell_length_b                   18.5153(3)
_cell_length_c                   25.0576(7)
_cell_angle_alpha                90
_cell_angle_beta                 90
_cell_angle_gamma                90
_cell_volume                     8590.15
loop_
_atom_site_label
_atom_site_type_symbol
_atom_site_fract_x
_atom_site_fract_y
_atom_site_fract_z
Cu1 Cu 0.596657(19) 0.403343(19) 0.5000
Cu2 Cu 0.5000 0.5000 0.60161(2)
Cl1 Cl 0.5000 0.5000 0.5000
Si1 Si 0.5000 0.0000 0.7500
N1 N 0.54008(9) 0.35418(9) 0.55896(6)
N2 N 0.50400(8) 0.38932(9) 0.59720(6)
N3 N 0.48204(9) 0.34305(10) 0.63408(7)
C1 C 0.50646(11) 0.27883(11) 0.61688(8)
N4 N 0.54226(9) 0.28425(9) 0.57060(6)
C2 C 0.50005(11) 0.21064(11) 0.64668(8)
C3 C 0.46093(16) 0.20716(13) 0.69337(10)
H1 H 0.4348 0.2482 0.7054
C4 C 0.45961(15) 0.14374(14) 0.72290(10)
H2 H 0.4324 0.1423 0.7550
C5 C 0.49678(10) 0.08257(10) 0.70696(7)
C6 C 0.53441(16) 0.08696(12) 0.65940(9)
H3 H 0.5597 0.0457 0.6467
C7 C 0.53606(16) 0.15046(13) 0.62962(9)
H4 H 0.5625 0.1520 0.5971
O1 O 0.68297(12) 0.31703(12) 0.5000
O2 O 0.5000 0.5000 0.69037(14)
N1A N 0.45992(9) -0.35418(9) 0.55896(6)
N2A N 0.49600(8) -0.38932(9) 0.59720(6)
N3A N 0.51796(9) -0.34305(10) 0.63408(7)
C1A C 0.49354(11) -0.27883(11) 0.61688(8)
N4A N 0.45774(9) -0.28425(9) 0.57060(6)
C2A C 0.49995(11) -0.21064(11) 0.64668(8)
C3A C 0.53907(16) -0.20716(13) 0.69337(10)
H1A H 0.5652 -0.2482 0.7054
C4A C 0.54039(15) -0.14374(14) 0.72290(10)
H2A H 0.5676 -0.1423 0.7550
C5A C 0.50322(10) -0.08257(10) 0.70696(7)
C6A C 0.46559(16) -0.08696(12) 0.65940(9)
H3A H 0.4403 -0.0457 0.6467
C7A C 0.46394(16) -0.15046(13) 0.62962(9)
H4A H 0.4375 -0.1520 0.5971
N1J N 0.85418(9) -0.04008(9) 0.94104(6)
N2J N 0.88932(9) -0.00400(8) 0.90280(6)
N3J N 0.84305(10) 0.01796(9) 0.86592(7)
C1J C 0.77883(11) -0.00646(11) 0.88312(8)
N4J N 0.78425(9) -0.04226(9) 0.92940(6)
C2J C 0.71064(11) -0.00005(11) 0.85332(8)
C3J C 0.70716(13) 0.03907(16) 0.80663(10)
H1J H 0.7482 0.0652 0.7946
C4J C 0.64374(14) 0.04039(15) 0.77710(10)
H2J H 0.6423 0.0676 0.7450
C5J C 0.58257(10) 0.00322(10) 0.79304(7)
C6J C 0.58696(12) -0.03441(16) 0.84060(9)
H3J H 0.5457 -0.0597 0.8533
C7J C 0.65046(13) -0.03606(16) 0.87038(9)
H4J H 0.6520 -0.0625 0.9029
N1K N 0.14582(9) 0.04008(9) 0.94104(6)
N2K N 0.11068(9) 0.00400(8) 0.90280(6)
N3K N 0.15695(10) -0.01796(9) 0.86592(7)
C1K C 0.22117(11) 0.00646(11) 0.88312(8)
N4K N 0.21575(9) 0.04226(9) 0.92940(6)
C2K C 0.28936(11) 0.00005(11) 0.85332(8)
C3K C 0.29284(13) -0.03907(16) 0.80663(10)
H1K H 0.2518 -0.0652 0.7946
C4K C 0.35626(14) -0.04039(15) 0.77710(10)
H2K H 0.3577 -0.0676 0.7450
C5K C 0.41743(10) -0.00322(10) 0.79304(7)
C6K C 0.41304(12) 0.03441(16) 0.84060(9)
H3K H 0.4543 0.0597 0.8533
C7K C 0.34954(13) 0.03606(16) 0.87038(9)
H4K H 0.3480 0.0625 0.9029
Cu1A Cu 0.403343(19) -0.403343(19) 0.5000
O1A O 0.31703(12) -0.31703(12) 0.5000
Si1B Si 0.5000 -0.0000 0.2500
N1H N 0.45992(9) -0.35418(9) 0.44104(6)
N2H N 0.49600(8) -0.38932(9) 0.40280(6)
N3H N 0.51796(9) -0.34305(10) 0.36592(7)
C1H C 0.49354(11) -0.27883(11) 0.38312(8)
N4H N 0.45774(9) -0.28425(9) 0.42940(6)
C2H C 0.49995(11) -0.21064(11) 0.35332(8)
C3H C 0.53907(16) -0.20716(13) 0.30663(10)
H1H H 0.5652 -0.2482 0.2946
C4H C 0.54039(15) -0.14374(14) 0.27710(10)
H2H H 0.5676 -0.1423 0.2450
C5H C 0.50322(10) -0.08257(10) 0.29304(7)
C6H C 0.46559(16) -0.08696(12) 0.34060(9)
H3H H 0.4403 -0.0457 0.3533
C7H C 0.46394(16) -0.15046(13) 0.37038(9)
H4H H 0.4375 -0.1520 0.4029
N1I N 0.54008(9) 0.35418(9) 0.44104(6)
N2I N 0.50400(8) 0.38932(9) 0.40280(6)
N3I N 0.48204(9) 0.34305(10) 0.36592(7)
C1I C 0.50646(11) 0.27883(11) 0.38312(8)
N4I N 0.54226(9) 0.28425(9) 0.42940(6)
C2I C 0.50005(11) 0.21064(11) 0.35332(8)
C3I C 0.46093(16) 0.20716(13) 0.30663(10)
H1I H 0.4348 0.2482 0.2946
C4I C 0.45961(15) 0.14374(14) 0.27710(10)
H2I H 0.4324 0.1423 0.2450
C5I C 0.49678(10) 0.08257(10) 0.29304(7)
C6I C 0.53441(16) 0.08696(12) 0.34060(9)
H3I H 0.5597 0.0457 0.3533
C7I C 0.53606(16) 0.15046(13) 0.37038(9)
H4I H 0.5625 0.1520 0.4029
N1B N 0.14582(9) 0.04008(9) 0.05896(6)
N2B N 0.11068(9) 0.00400(8) 0.09720(6)
N3B N 0.15695(10) -0.01796(9) 0.13408(7)
C1B C 0.22117(11) 0.00646(11) 0.11688(8)
N4B N 0.21575(9) 0.04226(9) 0.07060(6)
C2B C 0.28936(11) 0.00005(11) 0.14668(8)
C3B C 0.29284(13) -0.03907(16) 0.19337(10)
H1B H 0.2518 -0.0652 0.2054
C4B C 0.35626(14) -0.04039(15) 0.22290(10)
H2B H 0.3577 -0.0676 0.2550
C5B C 0.41743(10) -0.00322(10) 0.20696(7)
C6B C 0.41304(12) 0.03441(16) 0.15940(9)
H3B H 0.4543 0.0597 0.1467
C7B C 0.34954(13) 0.03606(16) 0.12962(9)
H4B H 0.3480 0.0625 0.0971
N1C N 0.85418(9) -0.04008(9) 0.05896(6)
N2C N 0.88932(9) -0.00400(8) 0.09720(6)
N3C N 0.84305(10) 0.01796(9) 0.13408(7)
C1C C 0.77883(11) -0.00646(11) 0.11688(8)
N4C N 0.78425(9) -0.04226(9) 0.07060(6)
C2C C 0.71064(11) -0.00005(11) 0.14668(8)
C3C C 0.70716(13) 0.03907(16) 0.19337(10)
H1C H 0.7482 0.0652 0.2054
C4C C 0.64374(14) 0.04039(15) 0.22290(10)
H2C H 0.6423 0.0676 0.2550
C5C C 0.58257(10) 0.00322(10) 0.20696(7)
C6C C 0.58696(12) -0.03441(16) 0.15940(9)
H3C H 0.5457 -0.0597 0.1467
C7C C 0.65046(13) -0.03606(16) 0.12962(9)
H4C H 0.6520 -0.0625 0.0971
Cu2F Cu 0.5000 0.5000 0.39839(2)
O2F O 0.5000 0.5000 0.30963(14)
Cu1A_2 Cu 0.403343(19) 0.596657(19) 0.5000
Cu1B Cu 0.096657(19) 0.096657(19) 0.0000
Cu1B_2 Cu 0.096657(19) 0.096657(19) 1.0000
Cu1C Cu 0.903343(19) -0.096657(19) 0.0000
Cu1C_2 Cu 0.903343(19) -0.096657(19) 1.0000
Cu2_2 Cu 0.5000 -0.5000 0.60161(2)
Cu2B Cu 0.0000 -0.0000 0.10161(2)
Cu2B_2 Cu 1.0000 -0.0000 0.10161(2)
Cu2D Cu 0.0000 0.0000 0.89839(2)
Cu2D_2 Cu 1.0000 0.0000 0.89839(2)
Cu2F_2 Cu 0.5000 -0.5000 0.39839(2)
Cl1_2 Cl 0.5000 -0.5000 0.5000
N1F N 0.35418(9) -0.45992(9) 0.44104(6)
N1G N 0.64582(9) 0.45992(9) 0.44104(6)
N1N N 0.64582(9) 0.45992(9) 0.55896(6)
N1O N 0.35418(9) -0.45992(9) 0.55896(6)
N2A_2 N 0.49600(8) 0.61068(9) 0.59720(6)
N2F N 0.38932(9) 0.50400(8) 0.40280(6)
N2G N 0.61068(9) 0.49600(8) 0.40280(6)
N2H_2 N 0.49600(8) 0.61068(9) 0.40280(6)
N2N N 0.61068(9) 0.49600(8) 0.59720(6)
N2O N 0.38932(9) 0.50400(8) 0.59720(6)
loop_
_geom_bond_atom_site_label_1
_geom_bond_atom_site_label_2
_geom_bond_site_symmetry_1
_geom_bond_site_symmetry_2
Cu1 Cl1 1_555 1_555
Cu2 Cl1 1_555 1_555
Cl1 Cu2F 1_555 1_555
Si1 C5 1_555 1_555
N1 Cu1 1_555 1_555
N2 Cu2 1_555 1_555
N3 N2 1_555 1_555
C1 N3 1_555 1_555
N4 N1 1_555 1_555
C2 C1 1_555 1_555
C3 C2 1_555 1_555
H1 C3 1_555 1_555
C4 C3 1_555 1_555
H2 C4 1_555 1_555
C5 C4 1_555 1_555
C6 C5 1_555 1_555
H3 C6 1_555 1_555
C7 C2 1_555 1_555
H4 C7 1_555 1_555
O1 Cu1 1_555 1_555
O2 Cu2 1_555 1_555
N1A N2A 1_555 1_555
N2A N3A 1_555 1_555
N3A C1A 1_555 1_555
C1A N4A 1_555 1_555
N4A N1A 1_555 1_555
C2A C1A 1_555 1_555
C3A C2A 1_555 1_555
H1A C3A 1_555 1_555
C4A C3A 1_555 1_555
H2A C4A 1_555 1_555
C5A Si1 1_555 1_555
C6A C5A 1_555 1_555
H3A C6A 1_555 1_555
C7A C2A 1_555 1_555
H4A C7A 1_555 1_555
N1J N2J 1_555 1_555
N2J N3J 1_555 1_555
N3J C1J 1_555 1_555
C1J N4J 1_555 1_555
N4J N1J 1_555 1_555
C2J C1J 1_555 1_555
C3J C2J 1_555 1_555
H1J C3J 1_555 1_555
C4J C3J 1_555 1_555
H2J C4J 1_555 1_555
C5J Si1 1_555 1_555
C6J C5J 1_555 1_555
H3J C6J 1_555 1_555
C7J C2J 1_555 1_555
H4J C7J 1_555 1_555
N1K N2K 1_555 1_555
N2K N3K 1_555 1_555
N3K C1K 1_555 1_555
C1K N4K 1_555 1_555
N4K N1K 1_555 1_555
C2K C1K 1_555 1_555
C3K C2K 1_555 1_555
H1K C3K 1_555 1_555
C4K C3K 1_555 1_555
H2K C4K 1_555 1_555
C5K Si1 1_555 1_555
C6K C5K 1_555 1_555
H3K C6K 1_555 1_555
C7K C2K 1_555 1_555
H4K C7K 1_555 1_555
Cu1A N1A 1_555 1_555
O1A Cu1A 1_555 1_555
Si1B C5H 1_555 1_555
N1H Cu1A 1_555 1_555
N2H N1H 1_555 1_555
N3H N2H 1_555 1_555
C1H N3H 1_555 1_555
N4H N1H 1_555 1_555
C2H C1H 1_555 1_555
C3H C2H 1_555 1_555
H1H C3H 1_555 1_555
C4H C3H 1_555 1_555
H2H C4H 1_555 1_555
C5H C4H 1_555 1_555
C6H C5H 1_555 1_555
H3H C6H 1_555 1_555
C7H C2H 1_555 1_555
H4H C7H 1_555 1_555
N1I Cu1 1_555 1_555
N2I N1I 1_555 1_555
N3I N2I 1_555 1_555
C1I N3I 1_555 1_555
N4I N1I 1_555 1_555
C2I C1I 1_555 1_555
C3I C2I 1_555 1_555
H1I C3I 1_555 1_555
C4I C3I 1_555 1_555
H2I C4I 1_555 1_555
C5I Si1B 1_555 1_555
C6I C5I 1_555 1_555
H3I C6I 1_555 1_555
C7I C2I 1_555 1_555
H4I C7I 1_555 1_555
N1B N2B 1_555 1_555
N2B N3B 1_555 1_555
N3B C1B 1_555 1_555
C1B N4B 1_555 1_555
N4B N1B 1_555 1_555
C2B C1B 1_555 1_555
C3B C2B 1_555 1_555
H1B C3B 1_555 1_555
C4B C3B 1_555 1_555
H2B C4B 1_555 1_555
C5B Si1B 1_555 1_555
C6B C5B 1_555 1_555
H3B C6B 1_555 1_555
C7B C2B 1_555 1_555
H4B C7B 1_555 1_555
N1C N2C 1_555 1_555
N2C N3C 1_555 1_555
N3C C1C 1_555 1_555
C1C N4C 1_555 1_555
N4C N1C 1_555 1_555
C2C C1C 1_555 1_555
C3C C2C 1_555 1_555
H1C C3C 1_555 1_555
C4C C3C 1_555 1_555
H2C C4C 1_555 1_555
C5C Si1B 1_555 1_555
C6C C5C 1_555 1_555
H3C C6C 1_555 1_555
C7C C2C 1_555 1_555
H4C C7C 1_555 1_555
Cu2F N2I 1_555 1_555
O2F Cu2F 1_555 1_555
Cu1A_2 Cl1 1_555 1_555
Cu1B N1B 1_555 1_555
Cu1B_2 N1K 1_555 1_555
Cu1C N1C 1_555 1_555
Cu1C_2 N1J 1_555 1_555
Cu2_2 N2A 1_555 1_555
Cu2B N2B 1_555 1_555
Cu2B_2 N2C 1_555 1_555
Cu2D N2K 1_555 1_555
Cu2D_2 N2J 1_555 1_555
Cu2F_2 N2H 1_555 1_555
Cl1_2 Cu1A 1_555 1_555
N1F Cu1A 1_555 1_555
N1G Cu1 1_555 1_555
N1N Cu1 1_555 1_555
N1O Cu1A 1_555 1_555
N2A_2 Cu2 1_555 1_555
N2F Cu2F 1_555 1_555
N2G Cu2F 1_555 1_555
N2H_2 Cu2F 1_555 1_555
N2N Cu2 1_555 1_555
N2O Cu2 1_555 1_555
N1 N2 1_555 1_555
C1 N4 1_555 1_555
C6 C7 1_555 1_555
C4A C5A 1_555 1_555
C6A C7A 1_555 1_555
C4J C5J 1_555 1_555
C6J C7J 1_555 1_555
C4K C5K 1_555 1_555
C6K C7K 1_555 1_555
C1H N4H 1_555 1_555
C6H C7H 1_555 1_555
C1I N4I 1_555 1_555
C4I C5I 1_555 1_555
C6I C7I 1_555 1_555
C4B C5B 1_555 1_555
C6B C7B 1_555 1_555
C4C C5C 1_555 1_555
C6C C7C 1_555 1_555
Cu2_2 Cl1_2 1_555 1_555
Cu2F_2 Cl1_2 1_555 1_555
N1G N2G 1_555 1_555
N1N N2N 1_555 1_555

#END
