
#######################################################################
#
#                 Cambridge Crystallographic Data Centre
#                                CCDC 
#
#######################################################################
#
# If this CIF has been generated from an entry in the Cambridge 
# Structural Database, then it will include bibliographic, chemical, 
# crystal, experimental, refinement or atomic coordinate data resulting 
# from the CCDC's data processing and validation procedures.
#
#######################################################################

data_JOSNAG
_chemical_formula_moiety         '(C18 H38 La2 O19)n'
_symmetry_cell_setting           triclinic
_symmetry_space_group_name_H-M   'P -1'
_symmetry_Int_Tables_number      2
_space_group_name_Hall           '-P 1'
loop_
_symmetry_equiv_pos_site_id
_symmetry_equiv_pos_as_xyz
1 x,y,z
2 -x,-y,-z
_cell_length_a                   9.239(2)
_cell_length_b                   9.790(2)
_cell_length_c                   10.709(1)
_cell_angle_alpha                68.04(2)
_cell_angle_beta                 84.49(1)
_cell_angle_gamma                62.01(1)
_cell_volume                     789.523
loop_
_atom_site_label
_atom_site_type_symbol
_atom_site_fract_x
_atom_site_fract_y
_atom_site_fract_z
O1 O -0.0220(1) 0.5318(1) -0.1346(1)
O2 O 0.1275(2) 0.6342(2) -0.2663(1)
O3 O 0.4990(1) 0.4490(1) -0.1102(1)
O4 O 0.5780(1) -0.2656(1) -0.1730(1)
O5 O 0.7476(1) 0.3780(2) -0.1768(1)
O6 O 0.6915(1) -0.2329(1) -0.0227(1)
C1 C 0.0133(2) 0.5947(2) -0.2520(1)
C2 C -0.0746(2) 0.6163(2) -0.3748(2)
C3 C 0.0424(2) 0.4948(2) -0.4398(2)
C4 C 0.5998(2) 0.4120(2) -0.1948(1)
C5 C 0.5436(2) 0.4114(2) -0.3219(1)
C6 C 0.4630(2) 0.2994(2) -0.2950(2)
C7 C 0.5772(2) 0.1161(2) -0.2152(2)
C8 C 0.4854(2) 0.0148(2) -0.1905(2)
C9 C 0.5926(2) -0.1712(2) -0.1250(1)
O7 O -0.0371(2) 0.8118(2) -0.0380(2)
O8 O 0.2548(2) 0.8011(2) -0.1498(2)
H1 H -0.1130(3) 0.7320(3) -0.4360(3)
H2 H -0.1700(3) 0.5980(3) -0.3480(2)
H3 H 0.1330(3) 0.5170(3) -0.4680(2)
H4 H 0.0850(3) 0.3810(3) -0.3710(3)
H5 H 0.6390(2) 0.3810(3) -0.3740(2)
H6 H 0.4620(3) 0.5270(3) -0.3740(2)
H7 H 0.3660(3) 0.3390(3) -0.2480(2)
H8 H 0.4230(3) 0.3130(3) -0.3860(2)
H9 H 0.6190(3) 0.1020(3) -0.1280(2)
H10 H 0.6750(3) 0.0760(3) -0.2630(2)
H11 H 0.4330(3) 0.0420(3) -0.2760(2)
H12 H 0.4020(3) 0.0430(3) -0.1250(2)
H13 H -0.1220(3) 0.8140(3) -0.0320(3)
H14 H -0.0570(3) 0.9060(3) -0.0950(3)
H15 H 0.1860(3) 0.9000(4) -0.1870(3)
H16 H 0.3390(4) 0.7960(4) -0.1640(3)
La1 La 0.2247(1) 0.5438(1) -0.0159(1)
C3A C -0.0424(2) 0.5052(2) -0.5602(2)
C2A C 0.0746(2) 0.3837(2) -0.6252(2)
C1A C -0.0133(2) 0.4053(2) -0.7480(1)
O1A O 0.0220(1) 0.4682(1) -0.8654(1)
O2A O -0.1275(2) 0.3658(2) -0.7337(1)
H1A H 0.1130(3) 0.2680(3) -0.5640(3)
H2A H 0.1700(3) 0.4020(3) -0.6520(2)
H3A H -0.1330(3) 0.4830(3) -0.5320(2)
H4A H -0.0850(3) 0.6190(3) -0.6290(3)
O3A O 0.5010(1) -0.4490(1) 0.1102(1)
O4A O 0.4220(1) 0.2656(1) 0.1730(1)
O5A O 0.2524(1) -0.3780(2) 0.1768(1)
O6A O 0.3085(1) 0.2329(1) 0.0227(1)
C4A C 0.4002(2) -0.4120(2) 0.1948(1)
C5A C 0.4564(2) -0.4114(2) 0.3219(1)
C6A C 0.5370(2) -0.2994(2) 0.2950(2)
C7A C 0.4228(2) -0.1161(2) 0.2152(2)
C8A C 0.5146(2) -0.0148(2) 0.1905(2)
C9A C 0.4074(2) 0.1712(2) 0.1250(1)
H5A H 0.3610(2) -0.3810(3) 0.3740(2)
H6A H 0.5380(3) -0.5270(3) 0.3740(2)
H7A H 0.6340(3) -0.3390(3) 0.2480(2)
H8A H 0.5770(3) -0.3130(3) 0.3860(2)
H9A H 0.3810(3) -0.1020(3) 0.1280(2)
H10A H 0.3250(3) -0.0760(3) 0.2630(2)
H11A H 0.5670(3) -0.0420(3) 0.2760(2)
H12A H 0.5980(3) -0.0430(3) 0.1250(2)
La1A La -0.2247(1) 0.4562(1) -0.9841(1)
O7A O 0.0371(2) 0.1882(2) -0.9620(2)
H13A H 0.1220(3) 0.1860(3) -0.9680(3)
H14A H 0.0570(3) 0.0940(3) -0.9050(3)
O8A O -0.2548(2) 0.1989(2) -0.8502(2)
H15A H -0.1860(3) 0.1000(4) -0.8130(3)
H16A H -0.3390(4) 0.2040(4) -0.8360(3)
La1A_2 La -0.2247(1) 0.4562(1) 0.0159(1)
La1A_3 La 0.7753(1) -0.5438(1) 0.0159(1)
La1A_4 La 0.7753(1) 0.4562(1) 0.0159(1)
O1A_2 O 0.0220(1) 0.4682(1) 0.1346(1)
O5A_2 O 0.2524(1) 0.6220(2) 0.1768(1)
La1_2 La 0.2247(1) 0.5438(1) -1.0159(1)
La1_3 La 0.2247(1) -0.4562(1) -0.0159(1)
O1_2 O -0.0220(1) 0.5318(1) -1.1346(1)
O3A_2 O -0.4990(1) 0.5510(1) -0.8898(1)
O4_2 O -0.4220(1) 0.7344(1) -1.1730(1)
O5_2 O -0.2524(1) 0.3780(2) -1.1768(1)
O6_2 O -0.3085(1) 0.7671(1) -1.0227(1)
O9 O -0.0273(2) 0.0983(2) -0.2434(2)
H17 H -0.0670(4) 0.1190(4) -0.3220(4)
H18 H -0.0760(4) 0.1790(4) -0.2190(3)
O10 O 0.1505(2) -0.1384(2) -0.5030(2)
H19 H 0.1470(3) -0.2150(4) -0.4290(3)
H20 H 0.0550(8) -0.0610(8) -0.5000(7)
O11 O 0.5547(4) 0.1230(3) 0.4528(2)
H22 H 0.5210(5) 0.1730(5) 0.3790(4)
H23 H 0.5210(9) 0.0480(8) 0.4980(7)
loop_
_geom_bond_atom_site_label_1
_geom_bond_atom_site_label_2
_geom_bond_site_symmetry_1
_geom_bond_site_symmetry_2
O1 C1 1_555 1_555
O2 C1 1_555 1_555
O3 C4 1_555 1_555
O4 C9 1_555 1_555
O5 C4 1_555 1_555
O6 C9 1_555 1_555
C1 C2 1_555 1_555
C2 C3 1_555 1_555
C3 H3 1_555 1_555
C4 C5 1_555 1_555
C5 C6 1_555 1_555
C6 C7 1_555 1_555
C7 C8 1_555 1_555
C8 C9 1_555 1_555
O7 H13 1_555 1_555
O8 H15 1_555 1_555
O9 H17 1_555 1_555
O10 H19 1_555 1_555
O11 H22 1_555 1_555
H1 C2 1_555 1_555
H2 C2 1_555 1_555
H4 C3 1_555 1_555
H5 C5 1_555 1_555
H6 C5 1_555 1_555
H7 C6 1_555 1_555
H8 C6 1_555 1_555
H9 C7 1_555 1_555
H10 C7 1_555 1_555
H11 C8 1_555 1_555
H12 C8 1_555 1_555
H14 O7 1_555 1_555
H16 O8 1_555 1_555
H18 O9 1_555 1_555
H20 O10 1_555 1_555
H23 O11 1_555 1_555
La1 O1 1_555 1_555
C3A C3 1_555 1_555
C2A C3A 1_555 1_555
C1A C2A 1_555 1_555
O1A C1A 1_555 1_555
O2A C1A 1_555 1_555
H1A C2A 1_555 1_555
H2A C2A 1_555 1_555
H3A C3A 1_555 1_555
H4A C3A 1_555 1_555
O3A C4A 1_555 1_555
O4A La1 1_555 1_555
O5A C4A 1_555 1_555
O6A La1 1_555 1_555
C4A C5A 1_555 1_555
C5A C6A 1_555 1_555
C6A C7A 1_555 1_555
C7A C8A 1_555 1_555
C8A C9A 1_555 1_555
C9A O4A 1_555 1_555
H5A C5A 1_555 1_555
H6A C5A 1_555 1_555
H7A C6A 1_555 1_555
H8A C6A 1_555 1_555
H9A C7A 1_555 1_555
H10A C7A 1_555 1_555
H11A C8A 1_555 1_555
H12A C8A 1_555 1_555
La1A O1A 1_555 1_555
O7A La1A 1_555 1_555
H13A O7A 1_555 1_555
H14A O7A 1_555 1_555
O8A La1A 1_555 1_555
H15A O8A 1_555 1_555
H16A O8A 1_555 1_555
La1A_2 O1 1_555 1_555
La1A_3 O4 1_555 1_555
La1A_4 O5 1_555 1_555
O1A_2 La1 1_555 1_555
O5A_2 La1 1_555 1_555
La1_2 O1A 1_555 1_555
La1_3 O5A 1_555 1_555
O1_2 La1A 1_555 1_555
O3A_2 La1A 1_555 1_555
O4_2 La1A 1_555 1_555
O5_2 La1A 1_555 1_555
O6_2 La1A 1_555 1_555
O2 La1 1_555 1_555
O3 La1 1_555 1_555
O6 La1A_3 1_555 1_555
O7 La1 1_555 1_555
O8 La1 1_555 1_555
O2A La1A 1_555 1_555
O3A La1A_3 1_555 1_555
O6A C9A 1_555 1_555
La1A_2 O1A_2 1_555 1_555
La1_2 O1_2 1_555 1_555

#END
