
#######################################################################
#
#                 Cambridge Crystallographic Data Centre
#                                CCDC 
#
#######################################################################
#
# If this CIF has been generated from an entry in the Cambridge 
# Structural Database, then it will include bibliographic, chemical, 
# crystal, experimental, refinement or atomic coordinate data resulting 
# from the CCDC's data processing and validation procedures.
#
#######################################################################

data_HADQUA
_chemical_formula_moiety         '(C156 H86 N48 O1 Zn7)n'
_symmetry_cell_setting           cubic
_symmetry_space_group_name_H-M   'I -4 3 d'
_symmetry_Int_Tables_number      220
_space_group_name_Hall           'I -4bd 2c 3'
loop_
_symmetry_equiv_pos_site_id
_symmetry_equiv_pos_as_xyz
1 x,y,z
2 1/2-x,-y,1/2+z
3 -x,1/2+y,1/2-z
4 1/2+x,1/2-y,-z
5 z,x,y
6 1/2+z,1/2-x,-y
7 1/2-z,-x,1/2+y
8 -z,1/2+x,1/2-y
9 y,z,x
10 -y,1/2+z,1/2-x
11 1/2+y,1/2-z,-x
12 1/2-y,-z,1/2+x
13 1/4+y,1/4+x,1/4+z
14 1/4-y,3/4-x,3/4+z
15 3/4+y,1/4-x,3/4-z
16 3/4-y,3/4+x,1/4-z
17 1/4+x,1/4+z,1/4+y
18 3/4-x,3/4+z,1/4-y
19 1/4-x,3/4-z,3/4+y
20 3/4+x,1/4-z,3/4-y
21 1/4+z,1/4+y,1/4+x
22 3/4+z,1/4-y,3/4-x
23 3/4-z,3/4+y,1/4-x
24 1/4-z,3/4-y,3/4+x
25 1/2+x,1/2+y,1/2+z
26 -x,1/2-y,z
27 1/2-x,y,-z
28 x,-y,1/2-z
29 1/2+z,1/2+x,1/2+y
30 z,-x,1/2-y
31 -z,1/2-x,y
32 1/2-z,x,-y
33 1/2+y,1/2+z,1/2+x
34 1/2-y,z,-x
35 y,-z,1/2-x
36 -y,1/2-z,x
37 3/4+y,3/4+x,3/4+z
38 3/4-y,1/4-x,1/4+z
39 1/4+y,3/4-x,1/4-z
40 1/4-y,1/4+x,3/4-z
41 3/4+x,3/4+z,3/4+y
42 1/4-x,1/4+z,3/4-y
43 3/4-x,1/4-z,1/4+y
44 1/4+x,3/4-z,1/4-y
45 3/4+z,3/4+y,3/4+x
46 1/4+z,3/4-y,1/4-x
47 1/4-z,1/4+y,3/4-x
48 3/4-z,1/4-y,1/4+x
_cell_length_a                   27.1704(19)
_cell_length_b                   27.1704(19)
_cell_length_c                   27.1704(19)
_cell_angle_alpha                90
_cell_angle_beta                 90
_cell_angle_gamma                90
_cell_volume                     20058
loop_
_atom_site_label
_atom_site_type_symbol
_atom_site_fract_x
_atom_site_fract_y
_atom_site_fract_z
_atom_site_U_iso_or_equiv
_atom_site_thermal_displace_type
Zn1 Zn 0.36293(3) 0.36293(3) 0.36293(3) 0.0683 Uani
Zn2 Zn 0.5000 0.2500 0.1250 0.0787 Uani
N1 N 0.38942(18) 0.31017(17) 0.30901(18) 0.0653 Uani
N2 N 0.42554(18) 0.39897(17) 0.33219(19) 0.0670 Uani
N3 N 0.5012(2) 0.31100(19) 0.16471(17) 0.0753 Uani
N4 N 0.53460(19) 0.3848(2) 0.1882(2) 0.0773 Uani
C1 C 0.3708(2) 0.2663(2) 0.2987(2) 0.0760 Uani
H1 H 0.3470 0.2527 0.3203 0.0910 Uiso
C2 C 0.3846(2) 0.2394(2) 0.2575(3) 0.0807 Uani
H2 H 0.3698 0.2084 0.2511 0.0970 Uiso
C3 C 0.4189(2) 0.2572(3) 0.2266(2) 0.0803 Uani
H3 H 0.4280 0.2390 0.1982 0.0970 Uiso
C4 C 0.44160(19) 0.3034(2) 0.2363(2) 0.0607 Uani
C5 C 0.4242(2) 0.3289(2) 0.2796(2) 0.0623 Uani
C6 C 0.4446(2) 0.4426(2) 0.3455(2) 0.0757 Uani
H4 H 0.4305 0.4593 0.3728 0.0910 Uiso
C7 C 0.4841(3) 0.4649(2) 0.3213(3) 0.0860 Uani
H5 H 0.4974 0.4949 0.3331 0.1030 Uiso
C8 C 0.5035(2) 0.4424(2) 0.2797(2) 0.0687 Uani
H6 H 0.5299 0.4570 0.2620 0.0820 Uiso
C9 C 0.48301(19) 0.3971(2) 0.2645(2) 0.0603 Uani
C10 C 0.44489(19) 0.37603(19) 0.2920(2) 0.0590 Uani
C11 C 0.5338(3) 0.3482(3) 0.1558(3) 0.0843 Uani
H7 H 0.5549 0.3478 0.1279 0.1010 Uiso
C12 C 0.4995(2) 0.3708(2) 0.2218(2) 0.0637 Uani
C13 C 0.4783(2) 0.3268(2) 0.2080(2) 0.0687 Uani
Zn1O Zn 0.38707(3) 0.11293(3) -0.11293(3) 0.0683 Uani
Zn1Y Zn 0.63707(3) 0.13707(3) 0.36293(3) 0.0683 Uani
Zn1LA Zn 0.61293(3) 0.38707(3) -0.11293(3) 0.0683 Uani
Zn2D Zn 0.1250 0.5000 0.2500 0.0787 Uani
Zn2H Zn 0.2500 0.1250 0.5000 0.0787 Uani
Zn2K Zn 0.2500 -0.1250 0.0000 0.0787 Uani
Zn2E Zn 0.6250 0.0000 -0.2500 0.0787 Uani
Zn2G Zn 0.8750 -0.0000 0.2500 0.0787 Uani
Zn2J Zn 0.7500 0.3750 0.5000 0.0787 Uani
Zn2I Zn 0.7500 0.6250 0.0000 0.0787 Uani
Zn2F Zn 0.3750 0.5000 -0.2500 0.0787 Uani
N1O N 0.43983(17) 0.13942(18) -0.05901(18) 0.0653 Uani
N1Y N 0.61058(18) 0.18983(17) 0.30901(18) 0.0653 Uani
N1LA N 0.56017(17) 0.36058(18) -0.05901(18) 0.0653 Uani
N1D N 0.30901(18) 0.38942(18) 0.31017(17) 0.0653 Uani
N1H N 0.31017(17) 0.30901(18) 0.38942(18) 0.0653 Uani
N1Q N 0.36058(18) 0.05901(18) -0.06017(17) 0.0653 Uani
N1V N 0.44099(18) 0.06017(17) -0.13942(18) 0.0653 Uani
N1DA N 0.69099(18) 0.11058(18) 0.31017(17) 0.0653 Uani
N1IA N 0.68983(17) 0.19099(18) 0.38942(18) 0.0653 Uani
N1QA N 0.63942(18) 0.44099(18) -0.06017(17) 0.0653 Uani
N1SA N 0.55901(18) 0.43983(17) -0.13942(18) 0.0653 Uani
N2O N 0.35103(17) 0.17554(18) -0.08219(19) 0.0670 Uani
N2Y N 0.57446(18) 0.10103(17) 0.33219(19) 0.0670 Uani
N2LA N 0.64897(17) 0.32446(18) -0.08219(19) 0.0670 Uani
N2D N 0.33219(19) 0.42554(18) 0.39897(17) 0.0670 Uani
N2H N 0.39897(17) 0.33219(19) 0.42554(18) 0.0670 Uani
N2Q N 0.32446(18) 0.08219(19) -0.14897(17) 0.0670 Uani
N2V N 0.41781(19) 0.14897(17) -0.17554(18) 0.0670 Uani
N2DA N 0.66781(19) 0.07446(18) 0.39897(17) 0.0670 Uani
N2IA N 0.60103(17) 0.16781(19) 0.42554(18) 0.0670 Uani
N2QA N 0.67554(18) 0.41781(19) -0.14897(17) 0.0670 Uani
N2SA N 0.58219(19) 0.35103(17) -0.17554(18) 0.0670 Uani
N3O N 0.43900(19) 0.2512(2) 0.08529(17) 0.0753 Uani
N3Y N 0.4988(2) 0.18900(19) 0.16471(17) 0.0753 Uani
N3LA N 0.56100(19) 0.2488(2) 0.08529(17) 0.0753 Uani
N3D N 0.16471(17) 0.5012(2) 0.31100(19) 0.0753 Uani
N3H N 0.31100(19) 0.16471(17) 0.5012(2) 0.0753 Uani
N3Q N 0.2488(2) -0.08529(17) -0.06100(19) 0.0753 Uani
N3V N 0.58529(17) 0.06100(19) -0.2512(2) 0.0753 Uani
N3DA N 0.83529(17) -0.0012(2) 0.31100(19) 0.0753 Uani
N3IA N 0.68900(19) 0.33529(17) 0.5012(2) 0.0753 Uani
N3QA N 0.7512(2) 0.58529(17) -0.06100(19) 0.0753 Uani
N3SA N 0.41471(17) 0.43900(19) -0.2512(2) 0.0753 Uani
N3W N 0.08529(17) 0.43900(19) 0.2512(2) 0.0753 Uani
N3CA N 0.16471(17) 0.4988(2) 0.18900(19) 0.0753 Uani
N3TA N 0.08529(17) 0.56100(19) 0.2488(2) 0.0753 Uani
N3S N 0.2512(2) 0.08529(17) 0.43900(19) 0.0753 Uani
N3GA N 0.18900(19) 0.16471(17) 0.4988(2) 0.0753 Uani
N3PA N 0.2488(2) 0.08529(17) 0.56100(19) 0.0753 Uani
N4O N 0.3652(2) 0.28460(19) 0.0618(2) 0.0773 Uani
N4Y N 0.46540(19) 0.1152(2) 0.1882(2) 0.0773 Uani
N4LA N 0.6348(2) 0.21540(19) 0.0618(2) 0.0773 Uani
N4D N 0.1882(2) 0.53460(19) 0.3848(2) 0.0773 Uani
N4H N 0.3848(2) 0.1882(2) 0.53460(19) 0.0773 Uani
N4Q N 0.21540(19) -0.0618(2) -0.1348(2) 0.0773 Uani
N4V N 0.5618(2) 0.1348(2) -0.28460(19) 0.0773 Uani
N4DA N 0.8118(2) -0.03460(19) 0.3848(2) 0.0773 Uani
N4IA N 0.6152(2) 0.3118(2) 0.53460(19) 0.0773 Uani
N4QA N 0.78460(19) 0.5618(2) -0.1348(2) 0.0773 Uani
N4SA N 0.4382(2) 0.3652(2) -0.28460(19) 0.0773 Uani
C1O C 0.4837(2) 0.1208(2) -0.0487(2) 0.0760 Uani
C1Y C 0.6292(2) 0.2337(2) 0.2987(2) 0.0760 Uani
C1LA C 0.5163(2) 0.3792(2) -0.0487(2) 0.0760 Uani
C1D C 0.2987(2) 0.3708(2) 0.2663(2) 0.0760 Uani
C1H C 0.2663(2) 0.2987(2) 0.3708(2) 0.0760 Uani
C1Q C 0.3792(2) 0.0487(2) -0.0163(2) 0.0760 Uani
C1V C 0.4513(2) 0.0163(2) -0.1208(2) 0.0760 Uani
C1DA C 0.7013(2) 0.1292(2) 0.2663(2) 0.0760 Uani
C1IA C 0.7337(2) 0.2013(2) 0.3708(2) 0.0760 Uani
C1QA C 0.6208(2) 0.4513(2) -0.0163(2) 0.0760 Uani
C1SA C 0.5487(2) 0.4837(2) -0.1208(2) 0.0760 Uani
H1O H 0.4973 0.0970 -0.0703 0.0910 Uiso
H1Y H 0.6530 0.2473 0.3203 0.0910 Uiso
H1LA H 0.5027 0.4030 -0.0703 0.0910 Uiso
H1D H 0.3203 0.3470 0.2527 0.0910 Uiso
H1H H 0.2527 0.3203 0.3470 0.0910 Uiso
H1Q H 0.4030 0.0703 -0.0027 0.0910 Uiso
H1V H 0.4297 0.0027 -0.0970 0.0910 Uiso
H1DA H 0.6797 0.1530 0.2527 0.0910 Uiso
H1IA H 0.7473 0.1797 0.3470 0.0910 Uiso
H1QA H 0.5970 0.4297 -0.0027 0.0910 Uiso
H1SA H 0.5703 0.4973 -0.0970 0.0910 Uiso
C2O C 0.5106(2) 0.1346(2) -0.0075(3) 0.0807 Uani
C2Y C 0.6154(2) 0.2606(2) 0.2575(3) 0.0807 Uani
C2LA C 0.4894(2) 0.3654(2) -0.0075(3) 0.0807 Uani
C2D C 0.2575(3) 0.3846(2) 0.2394(2) 0.0807 Uani
C2H C 0.2394(2) 0.2575(3) 0.3846(2) 0.0807 Uani
C2Q C 0.3654(2) 0.0075(3) 0.0106(2) 0.0807 Uani
C2V C 0.4925(3) -0.0106(2) -0.1346(2) 0.0807 Uani
C2DA C 0.7425(3) 0.1154(2) 0.2394(2) 0.0807 Uani
C2IA C 0.7606(2) 0.2425(3) 0.3846(2) 0.0807 Uani
C2QA C 0.6346(2) 0.4925(3) 0.0106(2) 0.0807 Uani
C2SA C 0.5075(3) 0.5106(2) -0.1346(2) 0.0807 Uani
H2O H 0.5416 0.1198 -0.0011 0.0970 Uiso
H2Y H 0.6302 0.2916 0.2511 0.0970 Uiso
H2LA H 0.4584 0.3802 -0.0011 0.0970 Uiso
H2D H 0.2511 0.3698 0.2084 0.0970 Uiso
H2H H 0.2084 0.2511 0.3698 0.0970 Uiso
H2Q H 0.3802 0.0011 0.0416 0.0970 Uiso
H2V H 0.4989 -0.0416 -0.1198 0.0970 Uiso
H2DA H 0.7489 0.1302 0.2084 0.0970 Uiso
H2IA H 0.7916 0.2489 0.3698 0.0970 Uiso
H2QA H 0.6198 0.4989 0.0416 0.0970 Uiso
H2SA H 0.5011 0.5416 -0.1198 0.0970 Uiso
C3O C 0.4928(3) 0.1689(2) 0.0234(2) 0.0803 Uani
C3Y C 0.5811(2) 0.2428(3) 0.2266(2) 0.0803 Uani
C3LA C 0.5072(3) 0.3311(2) 0.0234(2) 0.0803 Uani
C3D C 0.2266(2) 0.4189(2) 0.2572(3) 0.0803 Uani
C3H C 0.2572(3) 0.2266(2) 0.4189(2) 0.0803 Uani
C3Q C 0.3311(2) -0.0234(2) -0.0072(3) 0.0803 Uani
C3V C 0.5234(2) 0.0072(3) -0.1689(2) 0.0803 Uani
C3DA C 0.7734(2) 0.0811(2) 0.2572(3) 0.0803 Uani
C3IA C 0.7428(3) 0.2734(2) 0.4189(2) 0.0803 Uani
C3QA C 0.6689(2) 0.5234(2) -0.0072(3) 0.0803 Uani
C3SA C 0.4766(2) 0.4928(3) -0.1689(2) 0.0803 Uani
H3O H 0.5110 0.1780 0.0518 0.0970 Uiso
H3Y H 0.5720 0.2610 0.1982 0.0970 Uiso
H3LA H 0.4890 0.3220 0.0518 0.0970 Uiso
H3D H 0.1982 0.4280 0.2390 0.0970 Uiso
H3H H 0.2390 0.1982 0.4280 0.0970 Uiso
H3Q H 0.3220 -0.0518 0.0110 0.0970 Uiso
H3V H 0.5518 -0.0110 -0.1780 0.0970 Uiso
H3DA H 0.8018 0.0720 0.2390 0.0970 Uiso
H3IA H 0.7610 0.3018 0.4280 0.0970 Uiso
H3QA H 0.6780 0.5518 0.0110 0.0970 Uiso
H3SA H 0.4482 0.5110 -0.1780 0.0970 Uiso
C4O C 0.4466(2) 0.19160(19) 0.0137(2) 0.0607 Uani
C4Y C 0.55840(19) 0.1966(2) 0.2363(2) 0.0607 Uani
C4LA C 0.5534(2) 0.30840(19) 0.0137(2) 0.0607 Uani
C4D C 0.2363(2) 0.44160(19) 0.3034(2) 0.0607 Uani
C4H C 0.3034(2) 0.2363(2) 0.44160(19) 0.0607 Uani
C4Q C 0.30840(19) -0.0137(2) -0.0534(2) 0.0607 Uani
C4V C 0.5137(2) 0.0534(2) -0.19160(19) 0.0607 Uani
C4DA C 0.7637(2) 0.05840(19) 0.3034(2) 0.0607 Uani
C4IA C 0.6966(2) 0.2637(2) 0.44160(19) 0.0607 Uani
C4QA C 0.69160(19) 0.5137(2) -0.0534(2) 0.0607 Uani
C4SA C 0.4863(2) 0.4466(2) -0.19160(19) 0.0607 Uani
C5O C 0.4211(2) 0.1742(2) -0.0296(2) 0.0623 Uani
C5Y C 0.5758(2) 0.1711(2) 0.2796(2) 0.0623 Uani
C5LA C 0.5789(2) 0.3258(2) -0.0296(2) 0.0623 Uani
C5D C 0.2796(2) 0.4242(2) 0.3289(2) 0.0623 Uani
C5H C 0.3289(2) 0.2796(2) 0.4242(2) 0.0623 Uani
C5Q C 0.3258(2) 0.0296(2) -0.0789(2) 0.0623 Uani
C5V C 0.4704(2) 0.0789(2) -0.1742(2) 0.0623 Uani
C5DA C 0.7204(2) 0.0758(2) 0.3289(2) 0.0623 Uani
C5IA C 0.6711(2) 0.2204(2) 0.4242(2) 0.0623 Uani
C5QA C 0.6742(2) 0.4704(2) -0.0789(2) 0.0623 Uani
C5SA C 0.5296(2) 0.4211(2) -0.1742(2) 0.0623 Uani
C6O C 0.3074(2) 0.1946(2) -0.0955(2) 0.0757 Uani
C6Y C 0.5554(2) 0.0574(2) 0.3455(2) 0.0757 Uani
C6LA C 0.6926(2) 0.3054(2) -0.0955(2) 0.0757 Uani
C6D C 0.3455(2) 0.4446(2) 0.4426(2) 0.0757 Uani
C6H C 0.4426(2) 0.3455(2) 0.4446(2) 0.0757 Uani
C6Q C 0.3054(2) 0.0955(2) -0.1926(2) 0.0757 Uani
C6V C 0.4045(2) 0.1926(2) -0.1946(2) 0.0757 Uani
C6DA C 0.6545(2) 0.0554(2) 0.4426(2) 0.0757 Uani
C6IA C 0.5574(2) 0.1545(2) 0.4446(2) 0.0757 Uani
C6QA C 0.6946(2) 0.4045(2) -0.1926(2) 0.0757 Uani
C6SA C 0.5955(2) 0.3074(2) -0.1946(2) 0.0757 Uani
H4O H 0.2907 0.1805 -0.1228 0.0910 Uiso
H4Y H 0.5695 0.0407 0.3728 0.0910 Uiso
H4LA H 0.7093 0.3195 -0.1228 0.0910 Uiso
H4D H 0.3728 0.4305 0.4593 0.0910 Uiso
H4H H 0.4593 0.3728 0.4305 0.0910 Uiso
H4Q H 0.3195 0.1228 -0.2093 0.0910 Uiso
H4V H 0.3772 0.2093 -0.1805 0.0910 Uiso
H4DA H 0.6272 0.0695 0.4593 0.0910 Uiso
H4IA H 0.5407 0.1272 0.4305 0.0910 Uiso
H4QA H 0.6805 0.3772 -0.2093 0.0910 Uiso
H4SA H 0.6228 0.2907 -0.1805 0.0910 Uiso
C7O C 0.2851(2) 0.2341(3) -0.0713(3) 0.0860 Uani
C7Y C 0.5159(3) 0.0351(2) 0.3213(3) 0.0860 Uani
C7LA C 0.7149(2) 0.2659(3) -0.0713(3) 0.0860 Uani
C7D C 0.3213(3) 0.4841(3) 0.4649(2) 0.0860 Uani
C7H C 0.4649(2) 0.3213(3) 0.4841(3) 0.0860 Uani
C7Q C 0.2659(3) 0.0713(3) -0.2149(2) 0.0860 Uani
C7V C 0.4287(3) 0.2149(2) -0.2341(3) 0.0860 Uani
C7DA C 0.6787(3) 0.0159(3) 0.4649(2) 0.0860 Uani
C7IA C 0.5351(2) 0.1787(3) 0.4841(3) 0.0860 Uani
C7QA C 0.7341(3) 0.4287(3) -0.2149(2) 0.0860 Uani
C7SA C 0.5713(3) 0.2851(2) -0.2341(3) 0.0860 Uani
H5O H 0.2551 0.2474 -0.0831 0.1030 Uiso
H5Y H 0.5026 0.0051 0.3331 0.1030 Uiso
H5LA H 0.7449 0.2526 -0.0831 0.1030 Uiso
H5D H 0.3331 0.4974 0.4949 0.1030 Uiso
H5H H 0.4949 0.3331 0.4974 0.1030 Uiso
H5Q H 0.2526 0.0831 -0.2449 0.1030 Uiso
H5V H 0.4169 0.2449 -0.2474 0.1030 Uiso
H5DA H 0.6669 0.0026 0.4949 0.1030 Uiso
H5IA H 0.5051 0.1669 0.4974 0.1030 Uiso
H5QA H 0.7474 0.4169 -0.2449 0.1030 Uiso
H5SA H 0.5831 0.2551 -0.2474 0.1030 Uiso
C8O C 0.3076(2) 0.2535(2) -0.0297(2) 0.0687 Uani
C8Y C 0.4965(2) 0.0576(2) 0.2797(2) 0.0687 Uani
C8LA C 0.6924(2) 0.2465(2) -0.0297(2) 0.0687 Uani
C8D C 0.2797(2) 0.5035(2) 0.4424(2) 0.0687 Uani
C8H C 0.4424(2) 0.2797(2) 0.5035(2) 0.0687 Uani
C8Q C 0.2465(2) 0.0297(2) -0.1924(2) 0.0687 Uani
C8V C 0.4703(2) 0.1924(2) -0.2535(2) 0.0687 Uani
C8DA C 0.7203(2) -0.0035(2) 0.4424(2) 0.0687 Uani
C8IA C 0.5576(2) 0.2203(2) 0.5035(2) 0.0687 Uani
C8QA C 0.7535(2) 0.4703(2) -0.1924(2) 0.0687 Uani
C8SA C 0.5297(2) 0.3076(2) -0.2535(2) 0.0687 Uani
H6O H 0.2930 0.2799 -0.0120 0.0820 Uiso
H6Y H 0.4701 0.0430 0.2620 0.0820 Uiso
H6LA H 0.7070 0.2201 -0.0120 0.0820 Uiso
H6D H 0.2620 0.5299 0.4570 0.0820 Uiso
H6H H 0.4570 0.2620 0.5299 0.0820 Uiso
H6Q H 0.2201 0.0120 -0.2070 0.0820 Uiso
H6V H 0.4880 0.2070 -0.2799 0.0820 Uiso
H6DA H 0.7380 -0.0299 0.4570 0.0820 Uiso
H6IA H 0.5430 0.2380 0.5299 0.0820 Uiso
H6QA H 0.7799 0.4880 -0.2070 0.0820 Uiso
H6SA H 0.5120 0.2930 -0.2799 0.0820 Uiso
C9O C 0.3529(2) 0.23301(19) -0.0145(2) 0.0603 Uani
C9Y C 0.51699(19) 0.1029(2) 0.2645(2) 0.0603 Uani
C9LA C 0.6471(2) 0.26699(19) -0.0145(2) 0.0603 Uani
C9D C 0.2645(2) 0.48301(19) 0.3971(2) 0.0603 Uani
C9H C 0.3971(2) 0.2645(2) 0.48301(19) 0.0603 Uani
C9Q C 0.26699(19) 0.0145(2) -0.1471(2) 0.0603 Uani
C9V C 0.4855(2) 0.1471(2) -0.23301(19) 0.0603 Uani
C9DA C 0.7355(2) 0.01699(19) 0.3971(2) 0.0603 Uani
C9IA C 0.6029(2) 0.2355(2) 0.48301(19) 0.0603 Uani
C9QA C 0.73301(19) 0.4855(2) -0.1471(2) 0.0603 Uani
C9SA C 0.5145(2) 0.3529(2) -0.23301(19) 0.0603 Uani
C10O C 0.37397(19) 0.19489(19) -0.0420(2) 0.0590 Uani
C10Y C 0.55511(19) 0.12397(19) 0.2920(2) 0.0590 Uani
C10LA C 0.62603(19) 0.30511(19) -0.0420(2) 0.0590 Uani
C10D C 0.2920(2) 0.44489(19) 0.37603(19) 0.0590 Uani
C10H C 0.37603(19) 0.2920(2) 0.44489(19) 0.0590 Uani
C10Q C 0.30511(19) 0.0420(2) -0.12603(19) 0.0590 Uani
C10V C 0.4580(2) 0.12603(19) -0.19489(19) 0.0590 Uani
C10DA C 0.7080(2) 0.05511(19) 0.37603(19) 0.0590 Uani
C10IA C 0.62397(19) 0.2080(2) 0.44489(19) 0.0590 Uani
C10QA C 0.69489(19) 0.4580(2) -0.12603(19) 0.0590 Uani
C10SA C 0.5420(2) 0.37397(19) -0.19489(19) 0.0590 Uani
C11O C 0.4018(3) 0.2838(3) 0.0942(3) 0.0843 Uani
C11Y C 0.4662(3) 0.1518(3) 0.1558(3) 0.0843 Uani
C11LA C 0.5982(3) 0.2162(3) 0.0942(3) 0.0843 Uani
C11D C 0.1558(3) 0.5338(3) 0.3482(3) 0.0843 Uani
C11H C 0.3482(3) 0.1558(3) 0.5338(3) 0.0843 Uani
C11Q C 0.2162(3) -0.0942(3) -0.0982(3) 0.0843 Uani
C11V C 0.5942(3) 0.0982(3) -0.2838(3) 0.0843 Uani
C11DA C 0.8442(3) -0.0338(3) 0.3482(3) 0.0843 Uani
C11IA C 0.6518(3) 0.3442(3) 0.5338(3) 0.0843 Uani
C11QA C 0.7838(3) 0.5942(3) -0.0982(3) 0.0843 Uani
C11SA C 0.4058(3) 0.4018(3) -0.2838(3) 0.0843 Uani
H7O H 0.4022 0.3049 0.1221 0.1010 Uiso
H7Y H 0.4451 0.1522 0.1279 0.1010 Uiso
H7LA H 0.5978 0.1951 0.1221 0.1010 Uiso
H7D H 0.1279 0.5549 0.3478 0.1010 Uiso
H7H H 0.3478 0.1279 0.5549 0.1010 Uiso
H7Q H 0.1951 -0.1221 -0.0978 0.1010 Uiso
H7V H 0.6221 0.0978 -0.3049 0.1010 Uiso
H7DA H 0.8721 -0.0549 0.3478 0.1010 Uiso
H7IA H 0.6522 0.3721 0.5549 0.1010 Uiso
H7QA H 0.8049 0.6221 -0.0978 0.1010 Uiso
H7SA H 0.3779 0.4022 -0.3049 0.1010 Uiso
C12O C 0.3792(2) 0.2495(2) 0.0282(2) 0.0637 Uani
C12Y C 0.5005(2) 0.1292(2) 0.2218(2) 0.0637 Uani
C12LA C 0.6208(2) 0.2505(2) 0.0282(2) 0.0637 Uani
C12D C 0.2218(2) 0.4995(2) 0.3708(2) 0.0637 Uani
C12H C 0.3708(2) 0.2218(2) 0.4995(2) 0.0637 Uani
C12Q C 0.2505(2) -0.0282(2) -0.1208(2) 0.0637 Uani
C12V C 0.5282(2) 0.1208(2) -0.2495(2) 0.0637 Uani
C12DA C 0.7782(2) 0.0005(2) 0.3708(2) 0.0637 Uani
C12IA C 0.6292(2) 0.2782(2) 0.4995(2) 0.0637 Uani
C12QA C 0.7495(2) 0.5282(2) -0.1208(2) 0.0637 Uani
C12SA C 0.4718(2) 0.3792(2) -0.2495(2) 0.0637 Uani
C13O C 0.4232(2) 0.2283(2) 0.0420(2) 0.0687 Uani
C13Y C 0.5217(2) 0.1732(2) 0.2080(2) 0.0687 Uani
C13LA C 0.5768(2) 0.2717(2) 0.0420(2) 0.0687 Uani
C13D C 0.2080(2) 0.4783(2) 0.3268(2) 0.0687 Uani
C13H C 0.3268(2) 0.2080(2) 0.4783(2) 0.0687 Uani
C13Q C 0.2717(2) -0.0420(2) -0.0768(2) 0.0687 Uani
C13V C 0.5420(2) 0.0768(2) -0.2283(2) 0.0687 Uani
C13DA C 0.7920(2) 0.0217(2) 0.3268(2) 0.0687 Uani
C13IA C 0.6732(2) 0.2920(2) 0.4783(2) 0.0687 Uani
C13QA C 0.7283(2) 0.5420(2) -0.0768(2) 0.0687 Uani
C13SA C 0.4580(2) 0.4232(2) -0.2283(2) 0.0687 Uani
O1 O 0.5936(6) 0.4551(6) 0.1468(6) 0.1880 Uiso
loop_
_atom_site_aniso_label
_atom_site_aniso_U_11
_atom_site_aniso_U_22
_atom_site_aniso_U_33
_atom_site_aniso_U_23
_atom_site_aniso_U_13
_atom_site_aniso_U_12
Zn1 0.0683(4) 0.0683(4) 0.0683(4) 0.0009(3) 0.0009(3) 0.0009(3)
Zn2 0.0893(7) 0.0893(7) 0.0574(9) 0.000 0.000 0.000
N1 0.063(3) 0.055(3) 0.078(3) -0.001(2) 0.003(2) -0.005(2)
N2 0.072(3) 0.051(3) 0.078(3) 0.002(2) -0.009(2) -0.005(2)
N3 0.081(3) 0.084(3) 0.061(3) 0.004(3) 0.005(3) -0.002(3)
N4 0.071(3) 0.079(3) 0.082(3) 0.006(3) 0.013(3) -0.011(3)
C1 0.070(4) 0.064(4) 0.094(5) -0.003(3) 0.017(3) -0.016(3)
C2 0.084(4) 0.069(4) 0.089(4) -0.009(3) 0.016(4) -0.030(3)
C3 0.091(4) 0.079(4) 0.071(4) -0.018(3) 0.005(3) -0.010(4)
C4 0.061(3) 0.061(3) 0.060(3) -0.004(3) -0.002(3) -0.006(3)
C5 0.053(3) 0.062(3) 0.072(4) 0.006(3) -0.009(3) -0.004(3)
C6 0.083(4) 0.060(4) 0.084(5) -0.006(3) -0.009(3) -0.002(3)
C7 0.092(5) 0.067(4) 0.099(5) 0.001(4) -0.018(4) -0.023(4)
C8 0.062(3) 0.056(3) 0.088(4) 0.011(3) -0.004(3) -0.009(3)
C9 0.059(3) 0.058(3) 0.064(4) 0.010(3) -0.015(2) -0.007(2)
C10 0.063(3) 0.052(3) 0.062(3) 0.001(3) -0.002(3) -0.004(3)
C11 0.093(5) 0.087(5) 0.073(4) 0.013(4) 0.022(4) -0.017(4)
C12 0.058(3) 0.064(4) 0.069(3) 0.014(3) -0.009(3) -0.011(3)
C13 0.068(4) 0.077(4) 0.061(3) -0.003(3) -0.006(3) 0.000(3)
Zn1O 0.0683 0.0683 0.0683 -0.0009 0.0009 -0.0009
Zn1Y 0.0683 0.0683 0.0683 -0.0009 -0.0009 0.0009
Zn1LA 0.0683 0.0683 0.0683 0.0009 -0.0009 -0.0009
Zn2D 0.0574 0.0893 0.0893 0 0 0
Zn2H 0.0893 0.0574 0.0893 0 0 0
Zn2K 0.0893 0.0574 0.0893 0 0 0
Zn2E 0.0574 0.0893 0.0893 0 0 0
Zn2G 0.0574 0.0893 0.0893 0 0 0
Zn2J 0.0893 0.0574 0.0893 0 0 0
Zn2I 0.0893 0.0574 0.0893 0 0 0
Zn2F 0.0574 0.0893 0.0893 0 0 0
N1O 0.055 0.063 0.078 -0.003 -0.001 0.005
N1Y 0.063 0.055 0.078 0.001 -0.003 -0.005
N1LA 0.055 0.063 0.078 0.003 0.001 0.005
N1D 0.078 0.063 0.055 -0.005 -0.001 0.003
N1H 0.055 0.078 0.063 0.003 -0.005 -0.001
N1Q 0.063 0.078 0.055 0.001 -0.005 -0.003
N1V 0.078 0.055 0.063 0.005 0.003 0.001
N1DA 0.078 0.063 0.055 0.005 0.001 0.003
N1IA 0.055 0.078 0.063 -0.003 0.005 -0.001
N1QA 0.063 0.078 0.055 -0.001 0.005 -0.003
N1SA 0.078 0.055 0.063 -0.005 -0.003 0.001
N2O 0.051 0.072 0.078 0.009 0.002 0.005
N2Y 0.072 0.051 0.078 -0.002 0.009 -0.005
N2LA 0.051 0.072 0.078 -0.009 -0.002 0.005
N2D 0.078 0.072 0.051 -0.005 0.002 -0.009
N2H 0.051 0.078 0.072 -0.009 -0.005 0.002
N2Q 0.072 0.078 0.051 -0.002 -0.005 0.009
N2V 0.078 0.051 0.072 0.005 -0.009 -0.002
N2DA 0.078 0.072 0.051 0.005 -0.002 -0.009
N2IA 0.051 0.078 0.072 0.009 0.005 0.002
N2QA 0.072 0.078 0.051 0.002 0.005 0.009
N2SA 0.078 0.051 0.072 -0.005 0.009 -0.002
N3O 0.084 0.081 0.061 -0.005 0.004 0.002
N3Y 0.081 0.084 0.061 -0.004 -0.005 -0.002
N3LA 0.084 0.081 0.061 0.005 -0.004 0.002
N3D 0.061 0.081 0.084 -0.002 0.004 0.005
N3H 0.084 0.061 0.081 0.005 -0.002 0.004
N3Q 0.081 0.061 0.084 -0.004 -0.002 -0.005
N3V 0.061 0.084 0.081 0.002 0.005 -0.004
N3DA 0.061 0.081 0.084 0.002 -0.004 0.005
N3IA 0.084 0.061 0.081 -0.005 0.002 0.004
N3QA 0.081 0.061 0.084 0.004 0.002 -0.005
N3SA 0.061 0.084 0.081 -0.002 -0.005 -0.004
N3W 0.061 0.084 0.081 0.002 -0.005 0.004
N3CA 0.061 0.081 0.084 -0.002 -0.004 -0.005
N3TA 0.061 0.084 0.081 0.002 0.005 -0.004
N3S 0.081 0.061 0.084 0.004 0.002 -0.005
N3GA 0.084 0.061 0.081 -0.005 -0.002 -0.004
N3PA 0.081 0.061 0.084 -0.004 0.002 0.005
N4O 0.079 0.071 0.082 -0.013 0.006 0.011
N4Y 0.071 0.079 0.082 -0.006 -0.013 -0.011
N4LA 0.079 0.071 0.082 0.013 -0.006 0.011
N4D 0.082 0.071 0.079 -0.011 0.006 0.013
N4H 0.079 0.082 0.071 0.013 -0.011 0.006
N4Q 0.071 0.082 0.079 -0.006 -0.011 -0.013
N4V 0.082 0.079 0.071 0.011 0.013 -0.006
N4DA 0.082 0.071 0.079 0.011 -0.006 0.013
N4IA 0.079 0.082 0.071 -0.013 0.011 0.006
N4QA 0.071 0.082 0.079 0.006 0.011 -0.013
N4SA 0.082 0.079 0.071 -0.011 -0.013 -0.006
C1O 0.064 0.07 0.094 -0.017 -0.003 0.016
C1Y 0.07 0.064 0.094 0.003 -0.017 -0.016
C1LA 0.064 0.07 0.094 0.017 0.003 0.016
C1D 0.094 0.07 0.064 -0.016 -0.003 0.017
C1H 0.064 0.094 0.07 0.017 -0.016 -0.003
C1Q 0.07 0.094 0.064 0.003 -0.016 -0.017
C1V 0.094 0.064 0.07 0.016 0.017 0.003
C1DA 0.094 0.07 0.064 0.016 0.003 0.017
C1IA 0.064 0.094 0.07 -0.017 0.016 -0.003
C1QA 0.07 0.094 0.064 -0.003 0.016 -0.017
C1SA 0.094 0.064 0.07 -0.016 -0.017 0.003
C2O 0.069 0.084 0.089 -0.016 -0.009 0.03
C2Y 0.084 0.069 0.089 0.009 -0.016 -0.03
C2LA 0.069 0.084 0.089 0.016 0.009 0.03
C2D 0.089 0.084 0.069 -0.03 -0.009 0.016
C2H 0.069 0.089 0.084 0.016 -0.03 -0.009
C2Q 0.084 0.089 0.069 0.009 -0.03 -0.016
C2V 0.089 0.069 0.084 0.03 0.016 0.009
C2DA 0.089 0.084 0.069 0.03 0.009 0.016
C2IA 0.069 0.089 0.084 -0.016 0.03 -0.009
C2QA 0.084 0.089 0.069 -0.009 0.03 -0.016
C2SA 0.089 0.069 0.084 -0.03 -0.016 0.009
C3O 0.079 0.091 0.071 -0.005 -0.018 0.01
C3Y 0.091 0.079 0.071 0.018 -0.005 -0.01
C3LA 0.079 0.091 0.071 0.005 0.018 0.01
C3D 0.071 0.091 0.079 -0.01 -0.018 0.005
C3H 0.079 0.071 0.091 0.005 -0.01 -0.018
C3Q 0.091 0.071 0.079 0.018 -0.01 -0.005
C3V 0.071 0.079 0.091 0.01 0.005 0.018
C3DA 0.071 0.091 0.079 0.01 0.018 0.005
C3IA 0.079 0.071 0.091 -0.005 0.01 -0.018
C3QA 0.091 0.071 0.079 -0.018 0.01 -0.005
C3SA 0.071 0.079 0.091 -0.01 -0.005 0.018
C4O 0.061 0.061 0.06 0.002 -0.004 0.006
C4Y 0.061 0.061 0.06 0.004 0.002 -0.006
C4LA 0.061 0.061 0.06 -0.002 0.004 0.006
C4D 0.06 0.061 0.061 -0.006 -0.004 -0.002
C4H 0.061 0.06 0.061 -0.002 -0.006 -0.004
C4Q 0.061 0.06 0.061 0.004 -0.006 0.002
C4V 0.06 0.061 0.061 0.006 -0.002 0.004
C4DA 0.06 0.061 0.061 0.006 0.004 -0.002
C4IA 0.061 0.06 0.061 0.002 0.006 -0.004
C4QA 0.061 0.06 0.061 -0.004 0.006 0.002
C4SA 0.06 0.061 0.061 -0.006 0.002 0.004
C5O 0.062 0.053 0.072 0.009 0.006 0.004
C5Y 0.053 0.062 0.072 -0.006 0.009 -0.004
C5LA 0.062 0.053 0.072 -0.009 -0.006 0.004
C5D 0.072 0.053 0.062 -0.004 0.006 -0.009
C5H 0.062 0.072 0.053 -0.009 -0.004 0.006
C5Q 0.053 0.072 0.062 -0.006 -0.004 0.009
C5V 0.072 0.062 0.053 0.004 -0.009 -0.006
C5DA 0.072 0.053 0.062 0.004 -0.006 -0.009
C5IA 0.062 0.072 0.053 0.009 0.004 0.006
C5QA 0.053 0.072 0.062 0.006 0.004 0.009
C5SA 0.072 0.062 0.053 -0.004 0.009 -0.006
C6O 0.06 0.083 0.084 0.009 -0.006 0.002
C6Y 0.083 0.06 0.084 0.006 0.009 -0.002
C6LA 0.06 0.083 0.084 -0.009 0.006 0.002
C6D 0.084 0.083 0.06 -0.002 -0.006 -0.009
C6H 0.06 0.084 0.083 -0.009 -0.002 -0.006
C6Q 0.083 0.084 0.06 0.006 -0.002 0.009
C6V 0.084 0.06 0.083 0.002 -0.009 0.006
C6DA 0.084 0.083 0.06 0.002 0.006 -0.009
C6IA 0.06 0.084 0.083 0.009 0.002 -0.006
C6QA 0.083 0.084 0.06 -0.006 0.002 0.009
C6SA 0.084 0.06 0.083 -0.002 0.009 0.006
C7O 0.067 0.092 0.099 0.018 0.001 0.023
C7Y 0.092 0.067 0.099 -0.001 0.018 -0.023
C7LA 0.067 0.092 0.099 -0.018 -0.001 0.023
C7D 0.099 0.092 0.067 -0.023 0.001 -0.018
C7H 0.067 0.099 0.092 -0.018 -0.023 0.001
C7Q 0.092 0.099 0.067 -0.001 -0.023 0.018
C7V 0.099 0.067 0.092 0.023 -0.018 -0.001
C7DA 0.099 0.092 0.067 0.023 -0.001 -0.018
C7IA 0.067 0.099 0.092 0.018 0.023 0.001
C7QA 0.092 0.099 0.067 0.001 0.023 0.018
C7SA 0.099 0.067 0.092 -0.023 0.018 -0.001
C8O 0.056 0.062 0.088 0.004 0.011 0.009
C8Y 0.062 0.056 0.088 -0.011 0.004 -0.009
C8LA 0.056 0.062 0.088 -0.004 -0.011 0.009
C8D 0.088 0.062 0.056 -0.009 0.011 -0.004
C8H 0.056 0.088 0.062 -0.004 -0.009 0.011
C8Q 0.062 0.088 0.056 -0.011 -0.009 0.004
C8V 0.088 0.056 0.062 0.009 -0.004 -0.011
C8DA 0.088 0.062 0.056 0.009 -0.011 -0.004
C8IA 0.056 0.088 0.062 0.004 0.009 0.011
C8QA 0.062 0.088 0.056 0.011 0.009 0.004
C8SA 0.088 0.056 0.062 -0.009 0.004 -0.011
C9O 0.058 0.059 0.064 0.015 0.01 0.007
C9Y 0.059 0.058 0.064 -0.01 0.015 -0.007
C9LA 0.058 0.059 0.064 -0.015 -0.01 0.007
C9D 0.064 0.059 0.058 -0.007 0.01 -0.015
C9H 0.058 0.064 0.059 -0.015 -0.007 0.01
C9Q 0.059 0.064 0.058 -0.01 -0.007 0.015
C9V 0.064 0.058 0.059 0.007 -0.015 -0.01
C9DA 0.064 0.059 0.058 0.007 -0.01 -0.015
C9IA 0.058 0.064 0.059 0.015 0.007 0.01
C9QA 0.059 0.064 0.058 0.01 0.007 0.015
C9SA 0.064 0.058 0.059 -0.007 0.015 -0.01
C10O 0.052 0.063 0.062 0.002 0.001 0.004
C10Y 0.063 0.052 0.062 -0.001 0.002 -0.004
C10LA 0.052 0.063 0.062 -0.002 -0.001 0.004
C10D 0.062 0.063 0.052 -0.004 0.001 -0.002
C10H 0.052 0.062 0.063 -0.002 -0.004 0.001
C10Q 0.063 0.062 0.052 -0.001 -0.004 0.002
C10V 0.062 0.052 0.063 0.004 -0.002 -0.001
C10DA 0.062 0.063 0.052 0.004 -0.001 -0.002
C10IA 0.052 0.062 0.063 0.002 0.004 0.001
C10QA 0.063 0.062 0.052 0.001 0.004 0.002
C10SA 0.062 0.052 0.063 -0.004 0.002 -0.001
C11O 0.087 0.093 0.073 -0.022 0.013 0.017
C11Y 0.093 0.087 0.073 -0.013 -0.022 -0.017
C11LA 0.087 0.093 0.073 0.022 -0.013 0.017
C11D 0.073 0.093 0.087 -0.017 0.013 0.022
C11H 0.087 0.073 0.093 0.022 -0.017 0.013
C11Q 0.093 0.073 0.087 -0.013 -0.017 -0.022
C11V 0.073 0.087 0.093 0.017 0.022 -0.013
C11DA 0.073 0.093 0.087 0.017 -0.013 0.022
C11IA 0.087 0.073 0.093 -0.022 0.017 0.013
C11QA 0.093 0.073 0.087 0.013 0.017 -0.022
C11SA 0.073 0.087 0.093 -0.017 -0.022 -0.013
C12O 0.064 0.058 0.069 0.009 0.014 0.011
C12Y 0.058 0.064 0.069 -0.014 0.009 -0.011
C12LA 0.064 0.058 0.069 -0.009 -0.014 0.011
C12D 0.069 0.058 0.064 -0.011 0.014 -0.009
C12H 0.064 0.069 0.058 -0.009 -0.011 0.014
C12Q 0.058 0.069 0.064 -0.014 -0.011 0.009
C12V 0.069 0.064 0.058 0.011 -0.009 -0.014
C12DA 0.069 0.058 0.064 0.011 -0.014 -0.009
C12IA 0.064 0.069 0.058 0.009 0.011 0.014
C12QA 0.058 0.069 0.064 0.014 0.011 0.009
C12SA 0.069 0.064 0.058 -0.011 0.009 -0.014
C13O 0.077 0.068 0.061 0.006 -0.003 0
C13Y 0.068 0.077 0.061 0.003 0.006 0
C13LA 0.077 0.068 0.061 -0.006 0.003 0
C13D 0.061 0.068 0.077 0 -0.003 -0.006
C13H 0.077 0.061 0.068 -0.006 0 -0.003
C13Q 0.068 0.061 0.077 0.003 0 0.006
C13V 0.061 0.077 0.068 0 -0.006 0.003
C13DA 0.061 0.068 0.077 0 0.003 -0.006
C13IA 0.077 0.061 0.068 0.006 0 -0.003
C13QA 0.068 0.061 0.077 -0.003 0 0.006
C13SA 0.061 0.077 0.068 0 0.006 0.003
loop_
_geom_bond_atom_site_label_1
_geom_bond_atom_site_label_2
_geom_bond_site_symmetry_1
_geom_bond_site_symmetry_2
Zn1 N1 1_555 1_555
Zn2 N3 1_555 1_555
N1 C1 1_555 1_555
N2 Zn1 1_555 1_555
N3 C11 1_555 1_555
N4 C11 1_555 1_555
C1 H1 1_555 1_555
C2 C1 1_555 1_555
H2 C2 1_555 1_555
C3 C2 1_555 1_555
H3 C3 1_555 1_555
C4 C3 1_555 1_555
C5 N1 1_555 1_555
C6 N2 1_555 1_555
H4 C6 1_555 1_555
C7 C6 1_555 1_555
H5 C7 1_555 1_555
C8 C7 1_555 1_555
H6 C8 1_555 1_555
C9 C8 1_555 1_555
C10 N2 1_555 1_555
C11 H7 1_555 1_555
C12 N4 1_555 1_555
C13 N3 1_555 1_555
Zn1O N1O 1_555 1_555
Zn1Y N1Y 1_555 1_555
Zn1LA N1LA 1_555 1_555
Zn2D N3D 1_555 1_555
Zn2H N3H 1_555 1_555
Zn2K N3Q 1_555 1_555
Zn2E N3V 1_555 1_555
Zn2G N3DA 1_555 1_555
Zn2J N3IA 1_555 1_555
Zn2I N3QA 1_555 1_555
Zn2F N3SA 1_555 1_555
N1O C1O 1_555 1_555
N1Y C1Y 1_555 1_555
N1LA C1LA 1_555 1_555
N1D Zn1 1_555 1_555
N1H Zn1 1_555 1_555
N1Q Zn1O 1_555 1_555
N1V Zn1O 1_555 1_555
N1DA Zn1Y 1_555 1_555
N1IA Zn1Y 1_555 1_555
N1QA Zn1LA 1_555 1_555
N1SA Zn1LA 1_555 1_555
N2O Zn1O 1_555 1_555
N2Y Zn1Y 1_555 1_555
N2LA Zn1LA 1_555 1_555
N2D Zn1 1_555 1_555
N2H Zn1 1_555 1_555
N2Q Zn1O 1_555 1_555
N2V Zn1O 1_555 1_555
N2DA Zn1Y 1_555 1_555
N2IA Zn1Y 1_555 1_555
N2QA Zn1LA 1_555 1_555
N2SA Zn1LA 1_555 1_555
N3O Zn2 1_555 1_555
N3Y Zn2 1_555 1_555
N3LA Zn2 1_555 1_555
N3D C11D 1_555 1_555
N3H C11H 1_555 1_555
N3Q C11Q 1_555 1_555
N3V C11V 1_555 1_555
N3DA C11DA 1_555 1_555
N3IA C11IA 1_555 1_555
N3QA C11QA 1_555 1_555
N3SA C11SA 1_555 1_555
N3W Zn2D 1_555 1_555
N3CA Zn2D 1_555 1_555
N3TA Zn2D 1_555 1_555
N3S Zn2H 1_555 1_555
N3GA Zn2H 1_555 1_555
N3PA Zn2H 1_555 1_555
N4O C11O 1_555 1_555
N4Y C11Y 1_555 1_555
N4LA C11LA 1_555 1_555
N4D C11D 1_555 1_555
N4H C11H 1_555 1_555
N4Q C11Q 1_555 1_555
N4V C11V 1_555 1_555
N4DA C11DA 1_555 1_555
N4IA C11IA 1_555 1_555
N4QA C11QA 1_555 1_555
N4SA C11SA 1_555 1_555
C1O H1O 1_555 1_555
C1Y H1Y 1_555 1_555
C1LA H1LA 1_555 1_555
C1D N1D 1_555 1_555
C1H N1H 1_555 1_555
C1Q N1Q 1_555 1_555
C1V N1V 1_555 1_555
C1DA N1DA 1_555 1_555
C1IA N1IA 1_555 1_555
C1QA N1QA 1_555 1_555
C1SA N1SA 1_555 1_555
H1D C1D 1_555 1_555
H1H C1H 1_555 1_555
H1Q C1Q 1_555 1_555
H1V C1V 1_555 1_555
H1DA C1DA 1_555 1_555
H1IA C1IA 1_555 1_555
H1QA C1QA 1_555 1_555
H1SA C1SA 1_555 1_555
C2O C1O 1_555 1_555
C2Y C1Y 1_555 1_555
C2LA C1LA 1_555 1_555
C2D C1D 1_555 1_555
C2H C1H 1_555 1_555
C2Q C1Q 1_555 1_555
C2V C1V 1_555 1_555
C2DA C1DA 1_555 1_555
C2IA C1IA 1_555 1_555
C2QA C1QA 1_555 1_555
C2SA C1SA 1_555 1_555
H2O C2O 1_555 1_555
H2Y C2Y 1_555 1_555
H2LA C2LA 1_555 1_555
H2D C2D 1_555 1_555
H2H C2H 1_555 1_555
H2Q C2Q 1_555 1_555
H2V C2V 1_555 1_555
H2DA C2DA 1_555 1_555
H2IA C2IA 1_555 1_555
H2QA C2QA 1_555 1_555
H2SA C2SA 1_555 1_555
C3O C2O 1_555 1_555
C3Y C2Y 1_555 1_555
C3LA C2LA 1_555 1_555
C3D C2D 1_555 1_555
C3H C2H 1_555 1_555
C3Q C2Q 1_555 1_555
C3V C2V 1_555 1_555
C3DA C2DA 1_555 1_555
C3IA C2IA 1_555 1_555
C3QA C2QA 1_555 1_555
C3SA C2SA 1_555 1_555
H3O C3O 1_555 1_555
H3Y C3Y 1_555 1_555
H3LA C3LA 1_555 1_555
H3D C3D 1_555 1_555
H3H C3H 1_555 1_555
H3Q C3Q 1_555 1_555
H3V C3V 1_555 1_555
H3DA C3DA 1_555 1_555
H3IA C3IA 1_555 1_555
H3QA C3QA 1_555 1_555
H3SA C3SA 1_555 1_555
C4O C3O 1_555 1_555
C4Y C3Y 1_555 1_555
C4LA C3LA 1_555 1_555
C4D C3D 1_555 1_555
C4H C3H 1_555 1_555
C4Q C3Q 1_555 1_555
C4V C3V 1_555 1_555
C4DA C3DA 1_555 1_555
C4IA C3IA 1_555 1_555
C4QA C3QA 1_555 1_555
C4SA C3SA 1_555 1_555
C5O N1O 1_555 1_555
C5Y N1Y 1_555 1_555
C5LA N1LA 1_555 1_555
C5D N1D 1_555 1_555
C5H N1H 1_555 1_555
C5Q N1Q 1_555 1_555
C5V N1V 1_555 1_555
C5DA N1DA 1_555 1_555
C5IA N1IA 1_555 1_555
C5QA N1QA 1_555 1_555
C5SA N1SA 1_555 1_555
C6O N2O 1_555 1_555
C6Y N2Y 1_555 1_555
C6LA N2LA 1_555 1_555
C6D N2D 1_555 1_555
C6H N2H 1_555 1_555
C6Q N2Q 1_555 1_555
C6V N2V 1_555 1_555
C6DA N2DA 1_555 1_555
C6IA N2IA 1_555 1_555
C6QA N2QA 1_555 1_555
C6SA N2SA 1_555 1_555
H4O C6O 1_555 1_555
H4Y C6Y 1_555 1_555
H4LA C6LA 1_555 1_555
H4D C6D 1_555 1_555
H4H C6H 1_555 1_555
H4Q C6Q 1_555 1_555
H4V C6V 1_555 1_555
H4DA C6DA 1_555 1_555
H4IA C6IA 1_555 1_555
H4QA C6QA 1_555 1_555
H4SA C6SA 1_555 1_555
C7O C6O 1_555 1_555
C7Y C6Y 1_555 1_555
C7LA C6LA 1_555 1_555
C7D C6D 1_555 1_555
C7H C6H 1_555 1_555
C7Q C6Q 1_555 1_555
C7V C6V 1_555 1_555
C7DA C6DA 1_555 1_555
C7IA C6IA 1_555 1_555
C7QA C6QA 1_555 1_555
C7SA C6SA 1_555 1_555
H5O C7O 1_555 1_555
H5Y C7Y 1_555 1_555
H5LA C7LA 1_555 1_555
H5D C7D 1_555 1_555
H5H C7H 1_555 1_555
H5Q C7Q 1_555 1_555
H5V C7V 1_555 1_555
H5DA C7DA 1_555 1_555
H5IA C7IA 1_555 1_555
H5QA C7QA 1_555 1_555
H5SA C7SA 1_555 1_555
C8O C7O 1_555 1_555
C8Y C7Y 1_555 1_555
C8LA C7LA 1_555 1_555
C8D C7D 1_555 1_555
C8H C7H 1_555 1_555
C8Q C7Q 1_555 1_555
C8V C7V 1_555 1_555
C8DA C7DA 1_555 1_555
C8IA C7IA 1_555 1_555
C8QA C7QA 1_555 1_555
C8SA C7SA 1_555 1_555
H6O C8O 1_555 1_555
H6Y C8Y 1_555 1_555
H6LA C8LA 1_555 1_555
H6D C8D 1_555 1_555
H6H C8H 1_555 1_555
H6Q C8Q 1_555 1_555
H6V C8V 1_555 1_555
H6DA C8DA 1_555 1_555
H6IA C8IA 1_555 1_555
H6QA C8QA 1_555 1_555
H6SA C8SA 1_555 1_555
C9O C8O 1_555 1_555
C9Y C8Y 1_555 1_555
C9LA C8LA 1_555 1_555
C9D C8D 1_555 1_555
C9H C8H 1_555 1_555
C9Q C8Q 1_555 1_555
C9V C8V 1_555 1_555
C9DA C8DA 1_555 1_555
C9IA C8IA 1_555 1_555
C9QA C8QA 1_555 1_555
C9SA C8SA 1_555 1_555
C10O N2O 1_555 1_555
C10Y N2Y 1_555 1_555
C10LA N2LA 1_555 1_555
C10D N2D 1_555 1_555
C10H N2H 1_555 1_555
C10Q N2Q 1_555 1_555
C10V N2V 1_555 1_555
C10DA N2DA 1_555 1_555
C10IA N2IA 1_555 1_555
C10QA N2QA 1_555 1_555
C10SA N2SA 1_555 1_555
C11O N3O 1_555 1_555
C11Y N3Y 1_555 1_555
C11LA N3LA 1_555 1_555
C11D H7D 1_555 1_555
C11H H7H 1_555 1_555
C11Q H7Q 1_555 1_555
C11V H7V 1_555 1_555
C11DA H7DA 1_555 1_555
C11IA H7IA 1_555 1_555
C11QA H7QA 1_555 1_555
C11SA H7SA 1_555 1_555
H7O C11O 1_555 1_555
H7Y C11Y 1_555 1_555
H7LA C11LA 1_555 1_555
C12O N4O 1_555 1_555
C12Y N4Y 1_555 1_555
C12LA N4LA 1_555 1_555
C12D N4D 1_555 1_555
C12H N4H 1_555 1_555
C12Q N4Q 1_555 1_555
C12V N4V 1_555 1_555
C12DA N4DA 1_555 1_555
C12IA N4IA 1_555 1_555
C12QA N4QA 1_555 1_555
C12SA N4SA 1_555 1_555
C13O N3O 1_555 1_555
C13Y N3Y 1_555 1_555
C13LA N3LA 1_555 1_555
C13D N3D 1_555 1_555
C13H N3H 1_555 1_555
C13Q N3Q 1_555 1_555
C13V N3V 1_555 1_555
C13DA N3DA 1_555 1_555
C13IA N3IA 1_555 1_555
C13QA N3QA 1_555 1_555
C13SA N3SA 1_555 1_555
C4 C5 1_555 1_555
C4 C13 1_555 1_555
C5 C10 1_555 1_555
C9 C10 1_555 1_555
C9 C12 1_555 1_555
C12 C13 1_555 1_555
C4O C5O 1_555 1_555
C4O C13O 1_555 1_555
C4Y C5Y 1_555 1_555
C4Y C13Y 1_555 1_555
C4LA C5LA 1_555 1_555
C4LA C13LA 1_555 1_555
C4D C5D 1_555 1_555
C4D C13D 1_555 1_555
C4H C5H 1_555 1_555
C4H C13H 1_555 1_555
C4Q C5Q 1_555 1_555
C4Q C13Q 1_555 1_555
C4V C5V 1_555 1_555
C4V C13V 1_555 1_555
C4DA C5DA 1_555 1_555
C4DA C13DA 1_555 1_555
C4IA C5IA 1_555 1_555
C4IA C13IA 1_555 1_555
C4QA C5QA 1_555 1_555
C4QA C13QA 1_555 1_555
C4SA C5SA 1_555 1_555
C4SA C13SA 1_555 1_555
C5O C10O 1_555 1_555
C5Y C10Y 1_555 1_555
C5LA C10LA 1_555 1_555
C5D C10D 1_555 1_555
C5H C10H 1_555 1_555
C5Q C10Q 1_555 1_555
C5V C10V 1_555 1_555
C5DA C10DA 1_555 1_555
C5IA C10IA 1_555 1_555
C5QA C10QA 1_555 1_555
C5SA C10SA 1_555 1_555
C9O C10O 1_555 1_555
C9O C12O 1_555 1_555
C9Y C10Y 1_555 1_555
C9Y C12Y 1_555 1_555
C9LA C10LA 1_555 1_555
C9LA C12LA 1_555 1_555
C9D C10D 1_555 1_555
C9D C12D 1_555 1_555
C9H C10H 1_555 1_555
C9H C12H 1_555 1_555
C9Q C10Q 1_555 1_555
C9Q C12Q 1_555 1_555
C9V C10V 1_555 1_555
C9V C12V 1_555 1_555
C9DA C10DA 1_555 1_555
C9DA C12DA 1_555 1_555
C9IA C10IA 1_555 1_555
C9IA C12IA 1_555 1_555
C9QA C10QA 1_555 1_555
C9QA C12QA 1_555 1_555
C9SA C10SA 1_555 1_555
C9SA C12SA 1_555 1_555
C12O C13O 1_555 1_555
C12Y C13Y 1_555 1_555
C12LA C13LA 1_555 1_555
C12D C13D 1_555 1_555
C12H C13H 1_555 1_555
C12Q C13Q 1_555 1_555
C12V C13V 1_555 1_555
C12DA C13DA 1_555 1_555
C12IA C13IA 1_555 1_555
C12QA C13QA 1_555 1_555
C12SA C13SA 1_555 1_555

#END
