
#######################################################################
#
#                 Cambridge Crystallographic Data Centre
#                                CCDC 
#
#######################################################################
#
# If this CIF has been generated from an entry in the Cambridge 
# Structural Database, then it will include bibliographic, chemical, 
# crystal, experimental, refinement or atomic coordinate data resulting 
# from the CCDC's data processing and validation procedures.
#
#######################################################################

data_TACPAP
_chemical_formula_moiety         '(C12 H22 O19 Zn2)n'
_symmetry_cell_setting           tetragonal
_symmetry_space_group_name_H-M   'P 41 21 2'
_symmetry_Int_Tables_number      92
_space_group_name_Hall           'P 4abw 2nw'
loop_
_symmetry_equiv_pos_site_id
_symmetry_equiv_pos_as_xyz
1 x,y,z
2 -x,-y,1/2+z
3 1/2-y,1/2+x,1/4+z
4 1/2+y,1/2-x,3/4+z
5 1/2-x,1/2+y,1/4-z
6 1/2+x,1/2-y,3/4-z
7 y,x,-z
8 -y,-x,1/2-z
_cell_length_a                   19.0513(12)
_cell_length_b                   19.0513(12)
_cell_length_c                   5.8265(8)
_cell_angle_alpha                90
_cell_angle_beta                 90
_cell_angle_gamma                90
_cell_volume                     2114.74
loop_
_atom_site_label
_atom_site_type_symbol
_atom_site_fract_x
_atom_site_fract_y
_atom_site_fract_z
Zn1 Zn 0.27239(4) 0.72761(4) 0.7500
Zn2 Zn 0.22435(4) 0.77565(4) 1.2500
O1 O 0.3162(2) 0.7570(3) 1.0607(8)
O2 O 0.4154(3) 0.7682(4) 1.2614(10)
C1 C 0.3825(4) 0.7581(4) 1.0815(13)
O3 O 0.3779(3) 0.7332(3) 0.6756(9)
H1 H 0.376(5) 0.761(4) 0.594(15)
C2 C 0.4779(4) 0.6875(4) 0.8864(13)
H2 H 0.5070 0.6965 1.0220
O4 O 0.4399(3) 0.6254(3) 0.9246(10)
O5 O 0.5708(3) 0.6209(3) 0.7123(10)
C3 C 0.5706(4) 0.7437(4) 0.6303(13)
H3 H 0.5400 0.7836 0.5948
O6 O 0.6148(3) 0.7285(3) 0.4332(9)
H4 H 0.610(4) 0.750(4) 0.314(13)
C4 C 0.6175(4) 0.7624(4) 0.8308(13)
O7 O 0.6842(2) 0.7531(2) 0.8058(8)
O8 O 0.5914(3) 0.7864(3) 1.0089(10)
C5 C 0.4250(4) 0.7496(4) 0.8598(12)
H5 H 0.4504 0.7931 0.8258
C6 C 0.5260(4) 0.6798(4) 0.6808(13)
H6 H 0.4967 0.6706 0.5458
O1G O 0.2430(3) 0.6838(2) 0.4393(8)
O2G O 0.2318(4) 0.5846(3) 0.2386(10)
C1G C 0.2419(4) 0.6175(4) 0.4185(13)
O3G O 0.2668(3) 0.6221(3) 0.8244(9)
H1G H 0.239(4) 0.624(5) 0.906(15)
C2G C 0.3125(4) 0.5221(4) 0.6136(13)
H2G H 0.3035 0.4930 0.4780
O4G O 0.3746(3) 0.5601(3) 0.5754(10)
O5G O 0.3791(3) 0.4292(3) 0.7877(10)
C3G C 0.2563(4) 0.4294(4) 0.8697(13)
H3G H 0.2164 0.4600 0.9052
O6G O 0.2715(3) 0.3852(3) 1.0668(9)
H4G H 0.250(4) 0.390(4) 1.186(13)
C4G C 0.2376(4) 0.3825(4) 0.6692(13)
O7G O 0.2469(2) 0.3158(2) 0.6942(8)
O8G O 0.2136(3) 0.4086(3) 0.4911(10)
C5G C 0.2504(4) 0.5750(4) 0.6402(12)
H5G H 0.2069 0.5496 0.6742
C6G C 0.3202(4) 0.4740(4) 0.8192(13)
H6G H 0.3294 0.5033 0.9542
O7C O 0.2531(2) 0.8158(2) 0.5558(8)
O7E O 0.1842(2) 0.7469(2) 0.9442(8)
O1G_2 O 0.2430(3) 0.6838(2) 1.4393(8)
O6C O 0.2285(3) 0.8852(3) 1.1832(9)
O6E O 0.1148(3) 0.7715(3) 1.3168(9)
O7C_2 O 0.2531(2) 0.8158(2) 1.5558(8)
Zn2B Zn 0.72435(4) 0.72435(4) 0.5000
Zn1B Zn 0.77239(4) 0.77239(4) 1.0000
Zn2_2 Zn 0.22435(4) 0.77565(4) 0.2500
Zn2C Zn 0.27565(4) 0.27565(4) 1.0000
Zn1C Zn 0.22761(4) 0.22761(4) 0.5000
H4C H 0.250(4) 0.890(4) 1.064(13)
H4E H 0.110(4) 0.750(4) 1.436(13)
O9 O 0.4744(3) 0.5256(3) 1.2500
O10 O 0.4000(15) 0.9940(14) 1.083(6)
O11 O 0.4661(16) 0.9057(16) 0.621(6)
loop_
_geom_bond_atom_site_label_1
_geom_bond_atom_site_label_2
_geom_bond_site_symmetry_1
_geom_bond_site_symmetry_2
Zn1 O1 1_555 1_555
Zn2 O1 1_555 1_555
O1 C1 1_555 1_555
O2 C1 1_555 1_555
C1 C5 1_555 1_555
O3 Zn1 1_555 1_555
H1 O3 1_555 1_555
C2 H2 1_555 1_555
O4 C2 1_555 1_555
O5 C6 1_555 1_555
C3 H3 1_555 1_555
O6 C3 1_555 1_555
H4 O6 1_555 1_555
C4 C3 1_555 1_555
O7 C4 1_555 1_555
O8 C4 1_555 1_555
C5 O3 1_555 1_555
H5 C5 1_555 1_555
C6 C2 1_555 1_555
H6 C6 1_555 1_555
O1G Zn1 1_555 1_555
O2G C1G 1_555 1_555
C1G O1G 1_555 1_555
O3G Zn1 1_555 1_555
H1G O3G 1_555 1_555
C2G H2G 1_555 1_555
O4G C2G 1_555 1_555
O5G C6G 1_555 1_555
C3G H3G 1_555 1_555
O6G C3G 1_555 1_555
H4G O6G 1_555 1_555
C4G C3G 1_555 1_555
O7G C4G 1_555 1_555
O8G C4G 1_555 1_555
C5G C1G 1_555 1_555
H5G C5G 1_555 1_555
C6G C2G 1_555 1_555
H6G C6G 1_555 1_555
O7C Zn1 1_555 1_555
O7E Zn1 1_555 1_555
O1G_2 Zn2 1_555 1_555
O6C Zn2 1_555 1_555
O6E Zn2 1_555 1_555
O7C_2 Zn2 1_555 1_555
Zn2B O6 1_555 1_555
Zn1B O7 1_555 1_555
Zn2_2 O1G 1_555 1_555
Zn2C O6G 1_555 1_555
Zn1C O7G 1_555 1_555
H4C O6C 1_555 1_555
H4E O6E 1_555 1_555
Zn2 O7E 1_555 1_555
C2 C5 1_555 1_555
C3 C6 1_555 1_555
O7 Zn2B 1_555 1_555
O3G C5G 1_555 1_555
C2G C5G 1_555 1_555
C3G C6G 1_555 1_555
O7G Zn2C 1_555 1_555
O7C Zn2_2 1_555 1_555

#END
