
#######################################################################
#
#                 Cambridge Crystallographic Data Centre
#                                CCDC 
#
#######################################################################
#
# If this CIF has been generated from an entry in the Cambridge 
# Structural Database, then it will include bibliographic, chemical, 
# crystal, experimental, refinement or atomic coordinate data resulting 
# from the CCDC's data processing and validation procedures.
#
#######################################################################

data_DUDKIY
_chemical_formula_moiety         'C40 H38 N6 O31 Zn13'
_symmetry_cell_setting           monoclinic
_symmetry_space_group_name_H-M   'P 21/c'
_symmetry_Int_Tables_number      14
_space_group_name_Hall           '-P 2ybc'
loop_
_symmetry_equiv_pos_site_id
_symmetry_equiv_pos_as_xyz
1 x,y,z
2 -x,1/2+y,1/2-z
3 -x,-y,-z
4 x,1/2-y,1/2+z
_cell_length_a                   10.1591(5)
_cell_length_b                   17.6487(7)
_cell_length_c                   22.6853(10)
_cell_angle_alpha                90
_cell_angle_beta                 99.592(5)
_cell_angle_gamma                90
_cell_volume                     4010.49
loop_
_atom_site_label
_atom_site_type_symbol
_atom_site_fract_x
_atom_site_fract_y
_atom_site_fract_z
Zn1 Zn 0.49309(5) 0.80775(3) 0.83316(2)
Zn2 Zn 0.67370(10) 0.72506(5) 0.72779(3)
O1 O 0.5118(3) 0.69960(19) 0.84742(15)
O2 O 0.5254(4) 0.3758(2) 0.73484(19)
O3 O 0.5744(5) 0.6521(2) 0.76595(16)
O4 O 0.4477(6) 0.3063(2) 0.80261(19)
O5 O -0.3270(3) 0.8414(2) 0.87182(18)
O6 O -0.2379(4) 0.7834(3) 0.8018(2)
O7 O 0.2560(3) 0.7900(2) 0.81397(18)
O8 O 0.3771(3) 0.8531(2) 0.88675(15)
O9 O 0.6626(10) 0.6924(6) 0.6446(4)
O10 O 0.8501(8) 0.6596(5) 0.7489(4)
H1 H 0.8552 0.6033 0.7522
H2 H 0.9441 0.6782 0.7575
N1 N 0.4938(5) 0.4716(2) 0.98352(18)
N2 N 0.0528(4) 0.9874(3) 0.9934(3)
N3 N 0.6137(11) 0.6458(7) 0.5534(5)
C1 C 0.5395(5) 0.6455(3) 0.8162(2)
C2 C 0.5272(5) 0.5683(3) 0.8401(2)
C3 C 0.5179(6) 0.5597(3) 0.9002(2)
H3 H 0.5204 0.6017 0.9251
C4 C 0.5046(6) 0.4863(3) 0.9227(2)
C5 C 0.4948(6) 0.4252(3) 0.8850(3)
H4 H 0.4797 0.3773 0.8997
C6 C 0.5069(5) 0.4333(3) 0.8259(2)
C7 C 0.5233(5) 0.5054(3) 0.8046(2)
H5 H 0.5321 0.5115 0.7647
C8 C 0.4935(6) 0.3670(3) 0.7844(3)
C9 C -0.2318(5) 0.8237(3) 0.8476(3)
C10 C -0.0968(5) 0.8527(3) 0.8750(3)
C11 C -0.0879(5) 0.9044(4) 0.9212(3)
H6 H -0.1649 0.9210 0.9343
C12 C 0.2638(5) 0.8310(3) 0.8582(3)
C13 C 0.1423(5) 0.8564(3) 0.8809(3)
C14 C 0.1508(5) 0.9079(3) 0.9270(3)
H7 H 0.2336 0.9271 0.9442
C15 C 0.0359(5) 0.9317(4) 0.9481(3)
C16 C 0.0172(5) 0.8305(3) 0.8534(3)
H8 H 0.0103 0.7982 0.8206
C17 C 0.6250(13) 0.6399(8) 0.6104(6)
C18 C 0.6436(18) 0.5618(9) 0.6387(6)
H9 H 0.6480 0.5661 0.6811
H10 H 0.7249 0.5398 0.6303
H11 H 0.5695 0.5301 0.6224
C19 C 0.5955(17) 0.5796(10) 0.5106(8)
H12 H 0.6813 0.5615 0.5044
H13 H 0.5447 0.5954 0.4731
H14 H 0.5488 0.5396 0.5271
C20 C 0.6015(18) 0.7192(11) 0.5307(8)
H15 H 0.6698 0.7506 0.5527
H16 H 0.5153 0.7391 0.5344
H17 H 0.6110 0.7186 0.4893
O11 O 0.8346(14) 0.7995(9) 0.6937(7)
H18 H 0.8825 0.8547 0.7145
H19 H 0.8835 0.7907 0.6521
O1B O 0.4882(3) 0.30040(19) 1.15258(15)
O2B O 0.4746(4) 0.6242(2) 1.26516(19)
O3B O 0.4256(5) 0.3479(2) 1.23405(16)
O4B O 0.5523(6) 0.6937(2) 1.19739(19)
N1B N 0.5062(5) 0.5284(2) 1.01648(18)
C1B C 0.4605(5) 0.3545(3) 1.1838(2)
C2B C 0.4728(5) 0.4317(3) 1.1599(2)
C3B C 0.4821(6) 0.4403(3) 1.0998(2)
H3B H 0.4796 0.3983 1.0749
C4B C 0.4954(6) 0.5137(3) 1.0773(2)
C5B C 0.5052(6) 0.5748(3) 1.1150(3)
H4B H 0.5203 0.6227 1.1003
C6B C 0.4931(5) 0.5667(3) 1.1741(2)
C7B C 0.4767(5) 0.4946(3) 1.1954(2)
H5B H 0.4679 0.4885 1.2353
C8B C 0.5065(6) 0.6330(3) 1.2156(3)
O5B O 0.3270(3) 1.1586(2) 1.12818(18)
O6B O 0.2379(4) 1.2166(3) 1.1982(2)
O7B O -0.2560(3) 1.2100(2) 1.18603(18)
O8B O -0.3771(3) 1.1469(2) 1.11325(15)
N2B N -0.0528(4) 1.0126(3) 1.0066(3)
C9B C 0.2318(5) 1.1763(3) 1.1524(3)
C10B C 0.0968(5) 1.1473(3) 1.1250(3)
C11B C 0.0879(5) 1.0956(4) 1.0788(3)
H6B H 0.1649 1.0790 1.0657
C12B C -0.2638(5) 1.1690(3) 1.1418(3)
C13B C -0.1423(5) 1.1436(3) 1.1191(3)
C14B C -0.1508(5) 1.0921(3) 1.0730(3)
H7B H -0.2336 1.0729 1.0558
C15B C -0.0359(5) 1.0683(4) 1.0519(3)
C16B C -0.0172(5) 1.1695(3) 1.1466(3)
H8B H -0.0103 1.2018 1.1794
Zn1B Zn -0.49309(5) 1.19225(3) 1.16684(2)
Zn2A Zn 0.32630(10) 0.22506(5) 0.77221(3)
O9A O 0.3374(10) 0.1924(6) 0.8554(4)
O10A O 0.1499(8) 0.1596(5) 0.7511(4)
H1A H 0.1448 0.1033 0.7478
H2A H 0.0559 0.1782 0.7425
N3A N 0.3863(11) 0.1458(7) 0.9466(5)
C17A C 0.3750(13) 0.1399(8) 0.8896(6)
C18A C 0.3564(18) 0.0618(9) 0.8613(6)
H9A H 0.3520 0.0661 0.8189
H10A H 0.2751 0.0398 0.8697
H11A H 0.4305 0.0301 0.8776
C19A C 0.4045(17) 0.0796(10) 0.9894(8)
H12A H 0.3187 0.0615 0.9956
H13A H 0.4553 0.0954 1.0269
H14A H 0.4512 0.0396 0.9729
C20A C 0.3985(18) 0.2192(11) 0.9693(8)
H15A H 0.3302 0.2506 0.9473
H16A H 0.4847 0.2391 0.9656
H17A H 0.3890 0.2186 1.0107
O11A O 0.1654(14) 0.2995(9) 0.8063(7)
H18A H 0.1175 0.3547 0.7855
H19A H 0.1165 0.2907 0.8479
Zn1_2 Zn -0.50691(5) 0.80775(3) 0.83316(2)
Zn1A Zn 0.50691(5) 0.30775(3) 0.66684(2)
Zn1B_2 Zn 0.50691(5) 0.19225(3) 1.16684(2)
Zn1B_3 Zn 0.50691(5) 1.19225(3) 1.16684(2)
Zn1C Zn 0.49309(5) 0.69225(3) 1.33316(2)
Zn2_2 Zn -0.32630(10) 0.72506(5) 0.72779(3)
Zn2B Zn 0.32630(10) 0.27494(5) 1.27221(3)
Zn2B_2 Zn 0.32630(10) 1.27494(5) 1.27221(3)
Zn2C Zn 0.67370(10) 0.77494(5) 1.22779(3)
O1B_2 O -0.5118(3) 1.30040(19) 1.15258(15)
O2A O 0.4746(4) 0.8758(2) 0.76516(19)
O2C O -0.4746(4) 1.1242(2) 1.23484(19)
O3A O 0.4256(5) 0.1521(2) 0.73405(16)
O4A O 0.5523(6) 0.8063(2) 0.69739(19)
O5_2 O 0.6730(3) 0.8414(2) 0.87182(18)
O5B_2 O -0.6730(3) 1.1586(2) 1.12818(18)
O6_2 O 0.7621(4) 0.7834(3) 0.8018(2)
O6A O 0.2379(4) 0.2834(3) 0.6982(2)
loop_
_geom_bond_atom_site_label_1
_geom_bond_atom_site_label_2
_geom_bond_site_symmetry_1
_geom_bond_site_symmetry_2
Zn1 O1 1_555 1_555
Zn2 O3 1_555 1_555
O1 C1 1_555 1_555
O2 C8 1_555 1_555
O3 C1 1_555 1_555
O4 C8 1_555 1_555
O5 C9 1_555 1_555
O6 C9 1_555 1_555
O7 Zn1 1_555 1_555
O8 Zn1 1_555 1_555
O9 Zn2 1_555 1_555
O10 Zn2 1_555 1_555
H1 O10 1_555 1_555
H2 O10 1_555 1_555
N1 C4 1_555 1_555
N2 C15 1_555 1_555
N3 C17 1_555 1_555
C1 C2 1_555 1_555
C2 C3 1_555 1_555
C3 H3 1_555 1_555
C4 C3 1_555 1_555
C5 C4 1_555 1_555
H4 C5 1_555 1_555
C6 C5 1_555 1_555
C7 C2 1_555 1_555
H5 C7 1_555 1_555
C8 C6 1_555 1_555
C9 C10 1_555 1_555
C10 C11 1_555 1_555
C11 H6 1_555 1_555
C12 O7 1_555 1_555
C13 C12 1_555 1_555
C14 C13 1_555 1_555
H7 C14 1_555 1_555
C15 C11 1_555 1_555
C16 C10 1_555 1_555
H8 C16 1_555 1_555
C17 O9 1_555 1_555
C18 C17 1_555 1_555
H9 C18 1_555 1_555
H10 C18 1_555 1_555
H11 C18 1_555 1_555
C19 N3 1_555 1_555
H12 C19 1_555 1_555
H13 C19 1_555 1_555
H14 C19 1_555 1_555
C20 N3 1_555 1_555
H15 C20 1_555 1_555
H16 C20 1_555 1_555
H17 C20 1_555 1_555
O11 Zn2 1_555 1_555
H18 O11 1_555 1_555
H19 O11 1_555 1_555
O1B C1B 1_555 1_555
O2B C8B 1_555 1_555
O3B C1B 1_555 1_555
O4B C8B 1_555 1_555
N1B N1 1_555 1_555
C1B C2B 1_555 1_555
C2B C3B 1_555 1_555
C3B H3B 1_555 1_555
C4B N1B 1_555 1_555
C5B C4B 1_555 1_555
H4B C5B 1_555 1_555
C6B C5B 1_555 1_555
C7B C2B 1_555 1_555
H5B C7B 1_555 1_555
C8B C6B 1_555 1_555
O5B C9B 1_555 1_555
O6B C9B 1_555 1_555
O7B C12B 1_555 1_555
O8B C12B 1_555 1_555
N2B N2 1_555 1_555
C9B C10B 1_555 1_555
C10B C11B 1_555 1_555
C11B H6B 1_555 1_555
C12B C13B 1_555 1_555
C13B C14B 1_555 1_555
C14B H7B 1_555 1_555
C15B N2B 1_555 1_555
C16B C10B 1_555 1_555
H8B C16B 1_555 1_555
Zn1B O7B 1_555 1_555
Zn2A O4 1_555 1_555
O9A Zn2A 1_555 1_555
O10A Zn2A 1_555 1_555
H1A O10A 1_555 1_555
H2A O10A 1_555 1_555
N3A C17A 1_555 1_555
C17A O9A 1_555 1_555
C18A C17A 1_555 1_555
H9A C18A 1_555 1_555
H10A C18A 1_555 1_555
H11A C18A 1_555 1_555
C19A N3A 1_555 1_555
H12A C19A 1_555 1_555
H13A C19A 1_555 1_555
H14A C19A 1_555 1_555
C20A N3A 1_555 1_555
H15A C20A 1_555 1_555
H16A C20A 1_555 1_555
H17A C20A 1_555 1_555
O11A Zn2A 1_555 1_555
H18A O11A 1_555 1_555
H19A O11A 1_555 1_555
Zn1_2 O5 1_555 1_555
Zn1A O2 1_555 1_555
Zn1B_2 O1B 1_555 1_555
Zn1B_3 O5B 1_555 1_555
Zn1C O2B 1_555 1_555
Zn2_2 O6 1_555 1_555
Zn2B O3B 1_555 1_555
Zn2B_2 O6B 1_555 1_555
Zn2C O4B 1_555 1_555
O1B_2 Zn1B 1_555 1_555
O2A Zn1 1_555 1_555
O2C Zn1B 1_555 1_555
O3A Zn2A 1_555 1_555
O4A Zn2 1_555 1_555
O5_2 Zn1 1_555 1_555
O5B_2 Zn1B 1_555 1_555
O6_2 Zn2 1_555 1_555
O6A Zn2A 1_555 1_555
O8 C12 1_555 1_555
C6 C7 1_555 1_555
C13 C16 1_555 1_555
C14 C15 1_555 1_555
C3B C4B 1_555 1_555
C6B C7B 1_555 1_555
O8B Zn1B 1_555 1_555
C11B C15B 1_555 1_555
C13B C16B 1_555 1_555
C14B C15B 1_555 1_555

#END
