
#######################################################################
#
#                 Cambridge Crystallographic Data Centre
#                                CCDC 
#
#######################################################################
#
# If this CIF has been generated from an entry in the Cambridge 
# Structural Database, then it will include bibliographic, chemical, 
# crystal, experimental, refinement or atomic coordinate data resulting 
# from the CCDC's data processing and validation procedures.
#
#######################################################################

data_DUDKUK
_chemical_formula_moiety         '(C56 H66 Cd4 N10 O22)n'
_symmetry_cell_setting           monoclinic
_symmetry_space_group_name_H-M   'P 21/c'
_symmetry_Int_Tables_number      14
_space_group_name_Hall           '-P 2ybc'
loop_
_symmetry_equiv_pos_site_id
_symmetry_equiv_pos_as_xyz
1 x,y,z
2 -x,1/2+y,1/2-z
3 -x,-y,-z
4 x,1/2-y,1/2+z
_cell_length_a                   14.4225(4)
_cell_length_b                   14.2601(4)
_cell_length_c                   22.5106(7)
_cell_angle_alpha                90
_cell_angle_beta                 100.154(3)
_cell_angle_gamma                90
_cell_volume                     4557.16
loop_
_atom_site_label
_atom_site_type_symbol
_atom_site_fract_x
_atom_site_fract_y
_atom_site_fract_z
Cd1 Cd 0.25605(3) 0.75113(3) 0.24017(2)
Cd2 Cd 0.18455(4) 0.62409(4) 0.36043(2)
O1 O 0.0976(4) 0.6033(4) 0.2680(2)
O2 O 0.3155(3) 0.6525(3) 0.3169(2)
O3 O 0.2592(5) 0.6538(5) 0.4532(3)
O4 O 0.6169(3) 0.3606(4) 0.2487(2)
O5 O -0.1524(4) 0.3579(4) 0.2379(3)
O6 O 0.6939(4) 0.3214(3) 0.3391(2)
O7 O 0.3755(4) 0.6182(4) 0.2363(2)
O8 O -0.1785(4) 0.2832(4) 0.1505(3)
N1 N 0.5235(5) 0.4710(5) 0.4880(3)
N2 N -0.0279(5) 0.4735(5) 0.0097(3)
C1 C 0.6297(5) 0.3660(5) 0.3055(3)
C2 C 0.0322(5) 0.5426(5) 0.1727(3)
C3 C 0.4394(5) 0.5398(5) 0.3275(3)
C4 C 0.5120(5) 0.4795(5) 0.4236(3)
C5 C 0.4991(5) 0.4841(5) 0.2997(3)
H1 H 0.4942 0.4854 0.2580
C6 C 0.5723(5) 0.4251(5) 0.3967(3)
H2 H 0.6171 0.3873 0.4202
C7 C 0.4449(5) 0.5367(5) 0.3895(3)
H3 H 0.4042 0.5724 0.4081
C8 C -0.0243(6) 0.4795(6) 0.0735(3)
C9 C -0.0807(6) 0.4170(6) 0.0975(3)
H4 H -0.1182 0.3748 0.0725
C10 C 0.5655(5) 0.4273(5) 0.3339(3)
C11 C -0.0252(5) 0.4800(5) 0.1966(3)
H5 H -0.0260 0.4802 0.2378
C12 C 0.0322(6) 0.5428(6) 0.1111(3)
H6 H 0.0700 0.5851 0.0948
C13 C 0.0976(5) 0.6087(5) 0.2127(3)
C14 C -0.0814(5) 0.4172(5) 0.1593(4)
C15 C 0.3727(5) 0.6053(5) 0.2898(3)
C16 C -0.1418(5) 0.3468(6) 0.1842(4)
N3 N 0.2549(8) 0.7694(7) 0.5186(4)
C17 C 0.3847(10) 0.7661(9) 0.4604(6)
H7 H 0.4337 0.7201 0.4702
H8 H 0.4031 0.8228 0.4823
H9 H 0.3746 0.7787 0.4179
C18 C 0.2906(8) 0.7275(7) 0.4783(4)
O9 O 0.2185(9) 0.4688(9) 0.3636(6)
C19 C 0.1705(10) 0.7334(10) 0.5328(5)
H10 H 0.1528 0.6779 0.5094
H11 H 0.1216 0.7796 0.5237
H12 H 0.1797 0.7182 0.5750
O10 O 0.1462(4) 0.6623(4) 0.1876(2)
C20 C 0.2983(14) 0.8513(9) 0.5537(6)
H13 H 0.3589 0.8339 0.5759
H14 H 0.2584 0.8713 0.5812
H15 H 0.3056 0.9017 0.5266
C21 C 0.2149(16) 0.4019(12) 0.3908(10)
C22 C 0.257(2) 0.411(2) 0.4567(10)
H16 H 0.2837 0.4730 0.4642
H17 H 0.3059 0.3653 0.4673
H18 H 0.2092 0.4020 0.4807
N4 N 0.1701(18) 0.3244(14) 0.3724(10)
C23 C 0.155(3) 0.237(2) 0.4083(16)
H19 H 0.1984 0.2376 0.4461
H20 H 0.1669 0.1821 0.3858
H21 H 0.0919 0.2355 0.4157
C24 C 0.123(2) 0.320(2) 0.3080(10)
H22 H 0.1606 0.3512 0.2832
H23 H 0.0621 0.3491 0.3036
H24 H 0.1150 0.2551 0.2958
O1B O -0.0976(4) 0.3967(4) -0.2680(2)
N2B N 0.0279(5) 0.5265(5) -0.0097(3)
C2B C -0.0322(5) 0.4574(5) -0.1727(3)
C8B C 0.0243(6) 0.5205(6) -0.0735(3)
C9B C 0.0807(6) 0.5830(6) -0.0975(3)
H4B H 0.1182 0.6252 -0.0725
C11B C 0.0252(5) 0.5200(5) -0.1966(3)
H5B H 0.0260 0.5198 -0.2378
C12B C -0.0322(6) 0.4572(6) -0.1111(3)
H6B H -0.0700 0.4149 -0.0948
C13B C -0.0976(5) 0.3913(5) -0.2127(3)
C14B C 0.0814(5) 0.5828(5) -0.1593(4)
O10B O -0.1462(4) 0.3377(4) -0.1876(2)
O5B O 0.1524(4) 0.6421(4) -0.2379(3)
O8B O 0.1785(4) 0.7168(4) -0.1505(3)
C16B C 0.1418(5) 0.6532(6) -0.1842(4)
O2B O 0.6845(3) 0.3475(3) 0.6831(2)
O4B O 0.3831(3) 0.6394(4) 0.7513(2)
O6B O 0.3061(4) 0.6786(3) 0.6609(2)
O7B O 0.6245(4) 0.3818(4) 0.7637(2)
N1B N 0.4765(5) 0.5290(5) 0.5120(3)
C1B C 0.3703(5) 0.6340(5) 0.6945(3)
C3B C 0.5606(5) 0.4602(5) 0.6725(3)
C4B C 0.4880(5) 0.5205(5) 0.5764(3)
C5B C 0.5009(5) 0.5159(5) 0.7003(3)
H1B H 0.5058 0.5146 0.7420
C6B C 0.4277(5) 0.5749(5) 0.6033(3)
H2B H 0.3829 0.6127 0.5798
C7B C 0.5551(5) 0.4633(5) 0.6105(3)
H3B H 0.5958 0.4276 0.5919
C10B C 0.4345(5) 0.5727(5) 0.6661(3)
C15B C 0.6273(5) 0.3947(5) 0.7102(3)
Cd1B Cd -0.25605(3) 0.24887(3) -0.24017(2)
Cd2B Cd -0.18455(4) 0.37591(4) -0.36043(2)
O3B O -0.2592(5) 0.3462(5) -0.4532(3)
N3B N -0.2549(8) 0.2306(7) -0.5186(4)
C17B C -0.3847(10) 0.2339(9) -0.4604(6)
H7B H -0.4337 0.2799 -0.4702
H8B H -0.4031 0.1772 -0.4823
H9B H -0.3746 0.2213 -0.4179
C18B C -0.2906(8) 0.2725(7) -0.4783(4)
O9B O -0.2185(9) 0.5312(9) -0.3636(6)
C19B C -0.1705(10) 0.2666(10) -0.5328(5)
H10B H -0.1528 0.3221 -0.5094
H11B H -0.1216 0.2204 -0.5237
H12B H -0.1797 0.2818 -0.5750
C20B C -0.2983(14) 0.1487(9) -0.5537(6)
H13B H -0.3589 0.1661 -0.5759
H14B H -0.2584 0.1287 -0.5812
H15B H -0.3056 0.0983 -0.5266
C21B C -0.2149(16) 0.5981(12) -0.3908(10)
C22B C -0.257(2) 0.589(2) -0.4567(10)
H16B H -0.2837 0.5270 -0.4642
H17B H -0.3059 0.6347 -0.4673
H18B H -0.2092 0.5980 -0.4807
N4B N -0.1701(18) 0.6756(14) -0.3724(10)
C23B C -0.155(3) 0.763(2) -0.4083(16)
H19B H -0.1984 0.7624 -0.4461
H20B H -0.1669 0.8179 -0.3858
H21B H -0.0919 0.7645 -0.4157
C24B C -0.123(2) 0.680(2) -0.3080(10)
H22B H -0.1606 0.6488 -0.2832
H23B H -0.0621 0.6509 -0.3036
H24B H -0.1150 0.7449 -0.2958
Cd1A Cd -0.25605(3) 0.25113(3) 0.25983(2)
Cd1A_2 Cd 0.74395(3) 0.25113(3) 0.25983(2)
Cd1B_2 Cd 0.74395(3) 0.24887(3) 0.75983(2)
Cd1C Cd 0.25605(3) 0.74887(3) -0.25983(2)
Cd1C_2 Cd 0.25605(3) 0.74887(3) 0.74017(2)
Cd2A Cd -0.18455(4) 0.12409(4) 0.13957(2)
Cd2B_2 Cd 0.81545(4) 0.37591(4) 0.63957(2)
Cd2C Cd 0.18455(4) 0.87591(4) -0.13957(2)
O2B_2 O -0.3155(3) 0.3475(3) -0.3169(2)
O4A O 0.3831(3) 0.8606(4) 0.2513(2)
O4C O -0.3831(3) 0.1394(4) -0.2513(2)
O5A O 0.1524(4) 0.8579(4) 0.2621(3)
O5C O -0.1524(4) 0.1421(4) -0.2621(3)
O6A O 0.3061(4) 0.8214(3) 0.1609(2)
O6C O -0.3061(4) 0.1786(3) -0.1609(2)
O7B_2 O -0.3755(4) 0.3818(4) -0.2363(2)
O8A O 0.1785(4) 0.7832(4) 0.3495(3)
O8C O -0.1785(4) 0.2168(4) -0.3495(3)
O12 O 0.7249(9) 0.7584(9) 0.3129(7)
C29 C 0.5831(11) 0.9292(11) 0.3721(7)
H34 H 0.5248 0.9039 0.3510
H35 H 0.5864 0.9948 0.3631
H36 H 0.5863 0.9212 0.4148
N6 N 0.6600(12) 0.8814(11) 0.3536(9)
C30 C 0.5719(12) 0.7426(13) 0.3425(9)
H37 H 0.5749 0.6811 0.3256
H38 H 0.5182 0.7754 0.3209
H39 H 0.5660 0.7371 0.3842
C31 C 0.6592(12) 0.7952(11) 0.3377(10)
C32 C 0.7527(16) 0.9323(16) 0.3477(11)
H40 H 0.7435 0.9988 0.3494
H41 H 0.7704 0.9161 0.3098
H42 H 0.8016 0.9135 0.3801
C33 C 0.3212(18) 0.0862(18) 0.2946(11)
H43 H 0.3553 0.0468 0.2714
H44 H 0.2957 0.1389 0.2706
H45 H 0.2709 0.0510 0.3067
O13 O 0.3364(19) 0.0046(18) 0.4062(18)
N7 N 0.3874(17) 0.1209(17) 0.3504(11)
C34 C 0.4599(19) 0.113(3) 0.4440(10)
H46 H 0.4375 0.1269 0.4806
H47 H 0.4865 0.1679 0.4294
H48 H 0.5073 0.0646 0.4517
C35 C 0.3807(19) 0.0789(19) 0.3980(11)
C36 C 0.442(2) 0.2104(19) 0.3406(14)
H49 H 0.4634 0.2064 0.3028
H50 H 0.4944 0.2173 0.3728
H51 H 0.4006 0.2637 0.3401
loop_
_geom_bond_atom_site_label_1
_geom_bond_atom_site_label_2
_geom_bond_site_symmetry_1
_geom_bond_site_symmetry_2
Cd1 O2 1_555 1_555
Cd2 O1 1_555 1_555
O1 C13 1_555 1_555
O2 Cd2 1_555 1_555
O3 Cd2 1_555 1_555
O4 C1 1_555 1_555
O5 C16 1_555 1_555
O6 C1 1_555 1_555
O7 Cd1 1_555 1_555
O8 C16 1_555 1_555
N1 C4 1_555 1_555
N2 C8 1_555 1_555
C1 C10 1_555 1_555
C2 C11 1_555 1_555
C3 C5 1_555 1_555
C4 C6 1_555 1_555
C5 H1 1_555 1_555
C6 H2 1_555 1_555
C7 C3 1_555 1_555
H3 C7 1_555 1_555
C8 C9 1_555 1_555
C9 H4 1_555 1_555
C10 C5 1_555 1_555
C11 H5 1_555 1_555
C12 C2 1_555 1_555
H6 C12 1_555 1_555
C13 C2 1_555 1_555
C14 C9 1_555 1_555
C15 O2 1_555 1_555
C16 C14 1_555 1_555
N3 C18 1_555 1_555
C17 H7 1_555 1_555
H8 C17 1_555 1_555
H9 C17 1_555 1_555
C18 O3 1_555 1_555
O9 Cd2 1_555 1_555
C19 N3 1_555 1_555
H10 C19 1_555 1_555
H11 C19 1_555 1_555
H12 C19 1_555 1_555
O10 Cd1 1_555 1_555
C20 N3 1_555 1_555
H13 C20 1_555 1_555
H14 C20 1_555 1_555
H15 C20 1_555 1_555
C21 O9 1_555 1_555
C22 C21 1_555 1_555
H16 C22 1_555 1_555
H17 C22 1_555 1_555
H18 C22 1_555 1_555
N4 C21 1_555 1_555
C23 N4 1_555 1_555
H19 C23 1_555 1_555
H20 C23 1_555 1_555
H21 C23 1_555 1_555
C24 N4 1_555 1_555
H22 C24 1_555 1_555
H23 C24 1_555 1_555
H24 C24 1_555 1_555
O12 C31 1_555 1_555
C29 H34 1_555 1_555
H35 C29 1_555 1_555
H36 C29 1_555 1_555
N6 C29 1_555 1_555
C30 H37 1_555 1_555
H38 C30 1_555 1_555
H39 C30 1_555 1_555
C31 N6 1_555 1_555
C32 N6 1_555 1_555
H40 C32 1_555 1_555
H41 C32 1_555 1_555
H42 C32 1_555 1_555
C33 H43 1_555 1_555
H44 C33 1_555 1_555
H45 C33 1_555 1_555
O13 C35 1_555 1_555
N7 C33 1_555 1_555
C34 H46 1_555 1_555
H47 C34 1_555 1_555
H48 C34 1_555 1_555
C35 N7 1_555 1_555
C36 N7 1_555 1_555
H49 C36 1_555 1_555
H50 C36 1_555 1_555
H51 C36 1_555 1_555
O1B C13B 1_555 1_555
N2B N2 1_555 1_555
C2B C11B 1_555 1_555
C8B N2B 1_555 1_555
C9B C8B 1_555 1_555
H4B C9B 1_555 1_555
C11B H5B 1_555 1_555
C12B C2B 1_555 1_555
H6B C12B 1_555 1_555
C13B C2B 1_555 1_555
C14B C9B 1_555 1_555
O10B C13B 1_555 1_555
O5B C16B 1_555 1_555
O8B C16B 1_555 1_555
C16B C14B 1_555 1_555
O2B C15B 1_555 1_555
O4B C1B 1_555 1_555
O6B C1B 1_555 1_555
O7B C15B 1_555 1_555
N1B N1 1_555 1_555
C1B C10B 1_555 1_555
C3B C5B 1_555 1_555
C4B N1B 1_555 1_555
C5B H1B 1_555 1_555
C6B C4B 1_555 1_555
H2B C6B 1_555 1_555
C7B C3B 1_555 1_555
H3B C7B 1_555 1_555
C10B C5B 1_555 1_555
C15B C3B 1_555 1_555
Cd1B O10B 1_555 1_555
Cd2B O1B 1_555 1_555
O3B Cd2B 1_555 1_555
N3B C18B 1_555 1_555
C17B H7B 1_555 1_555
H8B C17B 1_555 1_555
H9B C17B 1_555 1_555
C18B O3B 1_555 1_555
O9B Cd2B 1_555 1_555
C19B N3B 1_555 1_555
H10B C19B 1_555 1_555
H11B C19B 1_555 1_555
H12B C19B 1_555 1_555
C20B N3B 1_555 1_555
H13B C20B 1_555 1_555
H14B C20B 1_555 1_555
H15B C20B 1_555 1_555
C21B O9B 1_555 1_555
C22B C21B 1_555 1_555
H16B C22B 1_555 1_555
H17B C22B 1_555 1_555
H18B C22B 1_555 1_555
N4B C21B 1_555 1_555
C23B N4B 1_555 1_555
H19B C23B 1_555 1_555
H20B C23B 1_555 1_555
H21B C23B 1_555 1_555
C24B N4B 1_555 1_555
H22B C24B 1_555 1_555
H23B C24B 1_555 1_555
H24B C24B 1_555 1_555
Cd1A O5 1_555 1_555
Cd1A_2 O4 1_555 1_555
Cd1B_2 O2B 1_555 1_555
Cd1C O5B 1_555 1_555
Cd1C_2 O4B 1_555 1_555
Cd2A O8 1_555 1_555
Cd2B_2 O2B 1_555 1_555
Cd2C O8B 1_555 1_555
O2B_2 Cd1B 1_555 1_555
O4A Cd1 1_555 1_555
O4C Cd1B 1_555 1_555
O5A Cd1 1_555 1_555
O5C Cd1B 1_555 1_555
O6A Cd1 1_555 1_555
O6C Cd1B 1_555 1_555
O7B_2 Cd1B 1_555 1_555
O8A Cd2 1_555 1_555
O8C Cd2B 1_555 1_555
O6 Cd1A_2 1_555 1_555
O7 C15 1_555 1_555
C3 C15 1_555 1_555
C4 C7 1_555 1_555
C6 C10 1_555 1_555
C8 C12 1_555 1_555
C11 C14 1_555 1_555
C13 O10 1_555 1_555
C17 C18 1_555 1_555
C30 C31 1_555 1_555
C34 C35 1_555 1_555
C8B C12B 1_555 1_555
C11B C14B 1_555 1_555
O6B Cd1C_2 1_555 1_555
O7B Cd1B_2 1_555 1_555
C4B C7B 1_555 1_555
C6B C10B 1_555 1_555
Cd2B O2B_2 1_555 1_555
C17B C18B 1_555 1_555

#END
