
#######################################################################
#
#                 Cambridge Crystallographic Data Centre
#                                CCDC 
#
#######################################################################
#
# If this CIF has been generated from an entry in the Cambridge 
# Structural Database, then it will include bibliographic, chemical, 
# crystal, experimental, refinement or atomic coordinate data resulting 
# from the CCDC's data processing and validation procedures.
#
#######################################################################

data_QUCZIZ
_chemical_formula_moiety         '(C20 H22 Cd1 N3 O7)n'
_symmetry_cell_setting           orthorhombic
_symmetry_space_group_name_H-M   'P 21 21 21'
_symmetry_Int_Tables_number      19
_space_group_name_Hall           'P 2ac 2ab'
loop_
_symmetry_equiv_pos_site_id
_symmetry_equiv_pos_as_xyz
1 x,y,z
2 1/2-x,-y,1/2+z
3 -x,1/2+y,1/2-z
4 1/2+x,1/2-y,-z
_cell_length_a                   12.9705(10)
_cell_length_b                   12.9057(11)
_cell_length_c                   23.0960(12)
_cell_angle_alpha                90
_cell_angle_beta                 90
_cell_angle_gamma                90
_cell_volume                     3866.12
loop_
_atom_site_label
_atom_site_type_symbol
_atom_site_fract_x
_atom_site_fract_y
_atom_site_fract_z
_atom_site_U_iso_or_equiv
_atom_site_thermal_displace_type
Cd1 Cd 0.871561(13) 0.136779(14) 0.143404(6) 0.0559 Uani
O1 O 0.85345(13) 0.13588(15) 0.33758(8) 0.0766 Uani
O2 O 0.99838(16) -0.30910(16) 0.43115(8) 0.0895 Uani
C1 C 0.86737(19) -0.07881(19) 0.37911(9) 0.0592 Uani
H1 H 0.8992 -0.0755 0.3431 0.0710 Uiso
O3 O 0.74473(13) -0.17528(18) 0.57294(7) 0.0821 Uani
C2 C 0.97184(19) -0.2415(2) 0.39736(10) 0.0611 Uani
O4 O 1.01132(14) -0.23248(16) 0.34848(7) 0.0775 Uani
N1 N 0.97822(15) 0.00432(17) 0.17660(8) 0.0585 Uani
O5 O 0.67875(15) -0.02282(16) 0.56403(7) 0.0841 Uani
O6 O 0.74315(15) 0.07295(18) 0.21456(9) 0.0852 Uani
C3 C 0.72981(17) -0.0940(2) 0.54510(10) 0.0591 Uani
C4 C 0.77961(17) 0.0833(2) 0.35418(10) 0.0581 Uani
C5 C 0.5923(2) 0.0469(3) 0.34918(16) 0.1174 Uani
H2 H 0.5847 0.0412 0.3908 0.1410 Uiso
H3 H 0.5893 -0.0217 0.3320 0.1410 Uiso
C6 C 1.0285(2) 0.0362(3) 0.23378(11) 0.0746 Uani
H4 H 1.0683 0.0990 0.2280 0.0890 Uiso
H5 H 0.9754 0.0506 0.2622 0.0890 Uiso
C7 C 0.79737(17) -0.0016(2) 0.39411(9) 0.0559 Uani
N2 N 0.68592(15) 0.1003(2) 0.33359(9) 0.0771 Uani
C8 C 0.89139(16) -0.15991(16) 0.41549(9) 0.0514 Uani
O7 O 0.78823(13) 0.23341(15) 0.21752(7) 0.0694 Uani
C9 C 0.75447(16) -0.0068(2) 0.45086(10) 0.0613 Uani
H6 H 0.7108 0.0453 0.4640 0.0740 Uiso
C10 C 0.73977(18) 0.1599(3) 0.23663(10) 0.0731 Uani
C11 C 0.77847(18) -0.0903(2) 0.48627(9) 0.0606 Uani
C12 C 0.84584(17) -0.1635(2) 0.46916(10) 0.0589 Uani
H7 H 0.8619 -0.2176 0.4942 0.0710 Uiso
C13 C 0.9866(2) -0.1801(2) 0.21114(13) 0.0797 Uani
H8 H 0.9628 -0.2043 0.2486 0.0960 Uiso
H9 H 0.9840 -0.2376 0.1841 0.0960 Uiso
C14 C 1.1329(2) -0.1068(2) 0.15661(12) 0.0908 Uani
H10 H 1.2038 -0.0832 0.1592 0.1090 Uiso
H11 H 1.1299 -0.1645 0.1298 0.1090 Uiso
N3 N 1.09416(18) -0.1398(2) 0.21581(9) 0.0851 Uani
C15 C 1.0961(2) -0.0459(2) 0.25531(12) 0.0823 Uani
H12 H 1.0741 -0.0661 0.2938 0.0990 Uiso
H13 H 1.1660 -0.0198 0.2580 0.0990 Uiso
C16 C 0.66901(19) 0.1807(3) 0.29004(12) 0.0774 Uani
H14 H 0.6823 0.2496 0.3063 0.0930 Uiso
C17 C 0.9166(2) -0.0895(2) 0.18926(13) 0.0709 Uani
H15 H 0.8805 -0.1111 0.1545 0.0850 Uiso
H16 H 0.8654 -0.0734 0.2185 0.0850 Uiso
C18 C 0.5554(3) 0.1695(3) 0.27267(17) 0.1039 Uiso
H17 H 0.5255 0.2366 0.2640 0.1250 Uiso
H18 H 0.5485 0.1253 0.2389 0.1250 Uiso
C19 C 1.0639(3) -0.0197(3) 0.13614(12) 0.1007 Uani
H19 H 1.1053 0.0422 0.1308 0.1210 Uiso
H20 H 1.0350 -0.0382 0.0988 0.1210 Uiso
C20 C 0.5063(3) 0.1242(4) 0.3212(2) 0.1446 Uiso
H21 H 0.4455 0.0858 0.3095 0.1740 Uiso
H22 H 0.4860 0.1770 0.3489 0.1740 Uiso
Cd1A Cd 0.628439(13) -0.136779(14) 0.643404(6) 0.0559 Uani
Cd1B Cd 1.128439(13) -0.363221(14) 0.356596(6) 0.0559 Uani
O2B O 1.00162(16) 0.19090(16) 0.06885(8) 0.0895 Uani
O3A O 0.75527(13) 0.17528(18) 0.07294(7) 0.0821 Uani
O4B O 0.98868(14) 0.26752(16) 0.15152(7) 0.0775 Uani
O5A O 0.82125(15) 0.02282(16) 0.06403(7) 0.0841 Uani
loop_
_atom_site_aniso_label
_atom_site_aniso_U_11
_atom_site_aniso_U_22
_atom_site_aniso_U_33
_atom_site_aniso_U_23
_atom_site_aniso_U_13
_atom_site_aniso_U_12
Cd1 0.08068(9) 0.05413(9) 0.03279(7) 0.00163(7) -0.01098(7) -0.00338(9)
O1 0.0791(9) 0.0707(11) 0.0801(10) 0.0189(10) -0.0082(8) 0.0009(10)
O2 0.1402(15) 0.0749(12) 0.0533(10) 0.0091(10) 0.0164(11) 0.0365(11)
C1 0.0773(13) 0.0645(14) 0.0359(9) 0.0031(10) 0.0127(11) 0.0018(13)
O3 0.0887(11) 0.1108(15) 0.0468(8) 0.0152(10) 0.0204(8) 0.0093(11)
C2 0.0845(14) 0.0537(14) 0.0452(12) -0.0024(12) 0.0061(12) 0.0048(13)
O4 0.0977(10) 0.0840(13) 0.0507(9) 0.0074(9) 0.0282(9) 0.0180(10)
N1 0.0778(11) 0.0601(12) 0.0376(9) 0.0151(9) -0.0032(9) -0.0027(10)
O5 0.1201(13) 0.0746(13) 0.0577(10) -0.0060(10) 0.0353(9) -0.0021(11)
O6 0.0983(12) 0.0901(14) 0.0673(11) -0.0030(11) 0.0047(10) -0.0073(11)
C3 0.0657(12) 0.0638(15) 0.0479(12) 0.0021(12) 0.0124(11) 0.0020(11)
C4 0.0635(11) 0.0623(14) 0.0486(11) -0.0012(12) 0.0196(11) 0.0001(11)
C5 0.0662(15) 0.149(3) 0.137(3) 0.045(3) 0.0150(18) -0.0058(19)
C6 0.0745(15) 0.088(2) 0.0613(15) -0.0051(15) -0.0045(13) 0.0005(14)
C7 0.0599(11) 0.0638(15) 0.0441(11) 0.0047(11) 0.0127(10) -0.0007(11)
N2 0.0627(11) 0.0987(18) 0.0698(12) 0.0245(13) 0.0208(10) -0.0002(11)
C8 0.0714(12) 0.0424(12) 0.0403(10) -0.0064(9) 0.0114(10) 0.0041(10)
O7 0.0779(9) 0.0822(12) 0.0480(9) 0.0040(9) 0.0007(8) -0.0164(9)
C9 0.0573(11) 0.0737(17) 0.0528(13) -0.0062(13) 0.0048(11) 0.0092(12)
C10 0.0600(12) 0.112(2) 0.0472(12) 0.0149(15) -0.0072(11) 0.0037(14)
C11 0.0737(13) 0.0707(16) 0.0373(11) 0.0034(12) 0.0094(10) -0.0070(12)
C12 0.0746(13) 0.0587(15) 0.0435(11) 0.0053(11) 0.0045(11) -0.0061(11)
C13 0.0823(15) 0.0783(18) 0.0784(17) 0.0226(16) 0.0115(15) 0.0012(14)
C14 0.118(2) 0.0763(18) 0.0781(16) 0.0304(14) 0.0320(16) 0.0208(17)
N3 0.0999(13) 0.0947(16) 0.0607(11) 0.0311(13) 0.0054(11) 0.0225(14)
C15 0.0989(18) 0.0761(18) 0.0719(16) 0.0209(15) -0.0216(15) -0.0133(15)
C16 0.0694(13) 0.0884(19) 0.0744(16) 0.0296(15) 0.0120(13) 0.0101(13)
C17 0.0769(14) 0.0518(14) 0.0839(17) 0.0074(15) -0.0040(14) -0.0051(13)
C19 0.150(2) 0.100(2) 0.0522(15) 0.0182(16) 0.0304(16) 0.040(2)
Cd1A 0.08068 0.05413 0.03279 -0.00163 0.01098 -0.00338
Cd1B 0.08068 0.05413 0.03279 -0.00163 -0.01098 0.00338
O2B 0.1402 0.0749 0.0533 -0.0091 0.0164 -0.0365
O3A 0.0887 0.1108 0.0468 -0.0152 -0.0204 0.0093
O4B 0.0977 0.084 0.0507 -0.0074 0.0282 -0.018
O5A 0.1201 0.0746 0.0577 0.006 -0.0353 -0.0021
loop_
_geom_bond_atom_site_label_1
_geom_bond_atom_site_label_2
_geom_bond_site_symmetry_1
_geom_bond_site_symmetry_2
Cd1 N1 1_555 1_555
O1 C4 1_555 1_555
O2 C2 1_555 1_555
C1 H1 1_555 1_555
O3 C3 1_555 1_555
C2 O4 1_555 1_555
O4 Cd1B 1_555 1_555
N1 C6 1_555 1_555
O5 C3 1_555 1_555
O6 Cd1 1_555 1_555
C3 C11 1_555 1_555
C4 C7 1_555 1_555
C5 H2 1_555 1_555
H3 C5 1_555 1_555
C6 H4 1_555 1_555
H5 C6 1_555 1_555
C7 C1 1_555 1_555
N2 C4 1_555 1_555
C8 C1 1_555 1_555
O7 Cd1 1_555 1_555
C9 C7 1_555 1_555
H6 C9 1_555 1_555
C10 O6 1_555 1_555
C11 C9 1_555 1_555
C12 C8 1_555 1_555
H7 C12 1_555 1_555
C13 H8 1_555 1_555
H9 C13 1_555 1_555
C14 H10 1_555 1_555
H11 C14 1_555 1_555
N3 C13 1_555 1_555
C15 C6 1_555 1_555
H12 C15 1_555 1_555
H13 C15 1_555 1_555
C16 N2 1_555 1_555
H14 C16 1_555 1_555
C17 N1 1_555 1_555
H15 C17 1_555 1_555
H16 C17 1_555 1_555
C18 C16 1_555 1_555
H17 C18 1_555 1_555
H18 C18 1_555 1_555
C19 N1 1_555 1_555
H19 C19 1_555 1_555
H20 C19 1_555 1_555
C20 C5 1_555 1_555
H21 C20 1_555 1_555
H22 C20 1_555 1_555
Cd1A O3 1_555 1_555
Cd1B O2 1_555 1_555
O2B Cd1 1_555 1_555
O3A Cd1 1_555 1_555
O4B Cd1 1_555 1_555
O5A Cd1 1_555 1_555
C2 C8 1_555 1_555
O5 Cd1A 1_555 1_555
C5 N2 1_555 1_555
O7 C10 1_555 1_555
C10 C16 1_555 1_555
C11 C12 1_555 1_555
C13 C17 1_555 1_555
C14 N3 1_555 1_555
C14 C19 1_555 1_555
N3 C15 1_555 1_555
C18 C20 1_555 1_555

#END
