
#######################################################################
#
#                 Cambridge Crystallographic Data Centre
#                                CCDC 
#
#######################################################################
#
# If this CIF has been generated from an entry in the Cambridge 
# Structural Database, then it will include bibliographic, chemical, 
# crystal, experimental, refinement or atomic coordinate data resulting 
# from the CCDC's data processing and validation procedures.
#
#######################################################################

data_MIZKOW
_chemical_formula_moiety         '(C28 H20 Cu2 La2 N4 O18)n'
_symmetry_cell_setting           monoclinic
_symmetry_space_group_name_H-M   'P 21/c'
_symmetry_Int_Tables_number      14
_space_group_name_Hall           '-P 2ybc'
loop_
_symmetry_equiv_pos_site_id
_symmetry_equiv_pos_as_xyz
1 x,y,z
2 -x,1/2+y,1/2-z
3 -x,-y,-z
4 x,1/2-y,1/2+z
_cell_length_a                   9.6773(5)
_cell_length_b                   21.6939(9)
_cell_length_c                   9.3825(6)
_cell_angle_alpha                90
_cell_angle_beta                 115.312(2)
_cell_angle_gamma                90
_cell_volume                     1780.64
loop_
_atom_site_label
_atom_site_type_symbol
_atom_site_fract_x
_atom_site_fract_y
_atom_site_fract_z
La1 La 0.638322(19) 0.008571(8) 0.87795(2)
Cu1 Cu -0.30874(5) 0.14390(2) 0.54358(7)
C1 C -0.1279(5) 0.13077(19) 0.3724(5)
H1 H -0.2068 0.1535 0.2970
C2 C -0.0079(5) 0.1140(2) 0.3403(5)
H2 H -0.0073 0.1238 0.2441
C3 C 0.1129(4) 0.08194(18) 0.4541(5)
H3 H 0.1971 0.0708 0.4366
C4 C 0.1062(4) 0.06686(15) 0.5946(4)
C5 C -0.0217(4) 0.08396(17) 0.6148(5)
H4 H -0.0277 0.0726 0.7076
C6 C 0.2365(4) 0.03352(16) 0.7241(4)
C7 C 0.4447(5) 0.30439(18) 1.1031(5)
H5 H 0.4256 0.3449 1.1220
C8 C 0.3558(5) 0.2584(2) 1.1206(6)
H6 H 0.2787 0.2678 1.1513
C9 C 0.3818(5) 0.19776(18) 1.0920(5)
H7 H 0.3234 0.1659 1.1039
C10 C 0.4969(4) 0.18587(15) 1.0454(4)
C11 C 0.5811(4) 0.23519(15) 1.0302(5)
H8 H 0.6576 0.2272 0.9977
C12 C 0.5353(4) 0.12303(15) 1.0075(4)
C13 C 0.5232(4) 0.03395(14) 0.4963(4)
C14 C 1.0080(4) 0.03574(15) 1.0127(4)
N1 N -0.1381(3) 0.11629(14) 0.5067(4)
N2 N 0.5576(4) 0.29356(13) 1.0601(4)
O1 O 0.3611(3) 0.03281(14) 0.7133(3)
O3 O 0.2115(3) 0.01015(12) 0.8325(3)
O5 O 0.6192(3) 0.11986(12) 0.9374(4)
O6 O 0.4821(3) 0.07635(11) 1.0459(3)
O7 O 0.6182(3) 0.05712(11) 0.6239(3)
O8 O 0.4645(3) 0.06039(11) 0.3659(3)
O9 O 0.8873(3) 0.06614(11) 0.9491(3)
O10 O 1.1392(3) 0.05662(12) 1.0933(3)
La1B La 0.361678(19) -0.008571(8) 1.12205(2)
La1B_2 La 0.361678(19) -0.008571(8) 0.12205(2)
La1B_3 La 1.361678(19) -0.008571(8) 1.12205(2)
Cu1B Cu 1.30874(5) -0.14390(2) 1.45642(7)
Cu1C Cu 0.69126(5) 0.35610(2) 1.04358(7)
Cu1_2 Cu 0.69126(5) 0.14390(2) 0.54358(7)
Cu1B_2 Cu 0.30874(5) -0.14390(2) 0.45642(7)
Cu1A Cu 0.30874(5) -0.35610(2) 0.95642(7)
C1B C 1.1279(5) -0.13077(19) 1.6276(5)
H1B H 1.2068 -0.1535 1.7030
C2B C 1.0079(5) -0.1140(2) 1.6597(5)
H2B H 1.0073 -0.1238 1.7559
C3B C 0.8871(4) -0.08194(18) 1.5459(5)
H3B H 0.8029 -0.0708 1.5634
C4B C 0.8938(4) -0.06686(15) 1.4054(4)
C5B C 1.0217(4) -0.08396(17) 1.3852(5)
H4B H 1.0277 -0.0726 1.2924
C6B C 0.7635(4) -0.03352(16) 1.2759(4)
C7B C 0.5553(5) -0.30439(18) 0.8969(5)
H5B H 0.5744 -0.3449 0.8780
C8B C 0.6442(5) -0.2584(2) 0.8794(6)
H6B H 0.7213 -0.2678 0.8487
C9B C 0.6182(5) -0.19776(18) 0.9080(5)
H7B H 0.6766 -0.1659 0.8961
C10B C 0.5031(4) -0.18587(15) 0.9546(4)
C11B C 0.4189(4) -0.23519(15) 0.9698(5)
H8B H 0.3424 -0.2272 1.0023
C12B C 0.4647(4) -0.12303(15) 0.9925(4)
C13B C 0.4768(4) -0.03395(14) 0.5037(4)
C14B C 0.9920(4) -0.03574(15) 0.9873(4)
N1B N 1.1381(3) -0.11629(14) 1.4933(4)
N2B N 0.4424(4) -0.29356(13) 0.9399(4)
N2C N -0.4424(4) 0.20644(13) 0.5601(4)
N2A N 1.4424(4) -0.20644(13) 1.4399(4)
O1B O 0.6389(3) -0.03281(14) 1.2867(3)
O3B O 0.7885(3) -0.01015(12) 1.1675(3)
O5B O 0.3808(3) -0.11986(12) 1.0626(4)
O6B O 0.5179(3) -0.07635(11) 0.9541(3)
O7B O 0.3818(3) -0.05712(11) 0.3761(3)
O7_2 O -0.3818(3) 0.05712(11) 0.6239(3)
O7B_2 O 0.3818(3) -0.05712(11) 1.3761(3)
O7B_3 O 1.3818(3) -0.05712(11) 1.3761(3)
O8B O 0.5355(3) -0.06039(11) 0.6341(3)
O8_2 O 0.4645(3) 0.06039(11) 1.3659(3)
O9B O 1.1127(3) -0.06614(11) 1.0509(3)
O9B_2 O 0.1127(3) -0.06614(11) 1.0509(3)
O10B O 0.8608(3) -0.05662(12) 0.9067(3)
O10_2 O 0.1392(3) 0.05662(12) 1.0933(3)
O2 O 1.0443(7) 0.2628(3) 1.2389(7)
O4 O 0.9076(6) 0.2017(2) 0.9494(6)
loop_
_geom_bond_atom_site_label_1
_geom_bond_atom_site_label_2
_geom_bond_site_symmetry_1
_geom_bond_site_symmetry_2
La1 O1 1_555 1_555
Cu1 N1 1_555 1_555
C1 H1 1_555 1_555
C2 C1 1_555 1_555
H2 C2 1_555 1_555
C3 C2 1_555 1_555
H3 C3 1_555 1_555
C4 C3 1_555 1_555
C5 C4 1_555 1_555
H4 C5 1_555 1_555
C6 C4 1_555 1_555
C7 H5 1_555 1_555
C8 C7 1_555 1_555
H6 C8 1_555 1_555
C9 C8 1_555 1_555
H7 C9 1_555 1_555
C10 C9 1_555 1_555
C11 C10 1_555 1_555
H8 C11 1_555 1_555
C12 C10 1_555 1_555
C13 O7 1_555 1_555
C14 O9 1_555 1_555
N1 C1 1_555 1_555
N2 C7 1_555 1_555
O1 C6 1_555 1_555
O3 C6 1_555 1_555
O5 La1 1_555 1_555
O6 La1 1_555 1_555
O7 La1 1_555 1_555
O8 C13 1_555 1_555
O9 La1 1_555 1_555
O10 C14 1_555 1_555
La1B O3 1_555 1_555
La1B_2 O8 1_555 1_555
La1B_3 O10 1_555 1_555
Cu1B N1B 1_555 1_555
Cu1C N2 1_555 1_555
Cu1_2 O7 1_555 1_555
Cu1B_2 O7B 1_555 1_555
Cu1A N2B 1_555 1_555
C1B H1B 1_555 1_555
C2B C1B 1_555 1_555
H2B C2B 1_555 1_555
C3B C2B 1_555 1_555
H3B C3B 1_555 1_555
C4B C3B 1_555 1_555
C5B C4B 1_555 1_555
H4B C5B 1_555 1_555
C6B C4B 1_555 1_555
C7B H5B 1_555 1_555
C8B C7B 1_555 1_555
H6B C8B 1_555 1_555
C9B C8B 1_555 1_555
H7B C9B 1_555 1_555
C10B C9B 1_555 1_555
C11B C10B 1_555 1_555
H8B C11B 1_555 1_555
C12B C10B 1_555 1_555
C13B C13 1_555 1_555
C14B C14 1_555 1_555
N1B C1B 1_555 1_555
N2B C7B 1_555 1_555
N2C Cu1 1_555 1_555
N2A Cu1B 1_555 1_555
O1B La1B 1_555 1_555
O3B La1 1_555 1_555
O5B La1B 1_555 1_555
O6B La1 1_555 1_555
O7B La1B_2 1_555 1_555
O7_2 Cu1 1_555 1_555
O7B_2 La1B 1_555 1_555
O7B_3 La1B_3 1_555 1_555
O8B La1 1_555 1_555
O8_2 La1B 1_555 1_555
O9B La1B_3 1_555 1_555
O9B_2 La1B 1_555 1_555
O10B La1 1_555 1_555
O10_2 La1B 1_555 1_555
C5 N1 1_555 1_555
C11 N2 1_555 1_555
C12 O5 1_555 1_555
C12 O6 1_555 1_555
O6 La1B 1_555 1_555
La1B O6B 1_555 1_555
Cu1B O7B_3 1_555 1_555
C5B N1B 1_555 1_555
C6B O1B 1_555 1_555
C6B O3B 1_555 1_555
C11B N2B 1_555 1_555
C12B O5B 1_555 1_555
C12B O6B 1_555 1_555
C13B O7B 1_555 1_555
C13B O8B 1_555 1_555
C14B O9B 1_555 1_555
C14B O10B 1_555 1_555

#END
