
#######################################################################
#
#                 Cambridge Crystallographic Data Centre
#                                CCDC 
#
#######################################################################
#
# If this CIF has been generated from an entry in the Cambridge 
# Structural Database, then it will include bibliographic, chemical, 
# crystal, experimental, refinement or atomic coordinate data resulting 
# from the CCDC's data processing and validation procedures.
#
#######################################################################

data_LOLQIM
_chemical_formula_moiety         '(C6 H15 Ge1 N2 O12 P3 Zn1)n'
_symmetry_cell_setting           triclinic
_symmetry_space_group_name_H-M   'P -1'
_symmetry_Int_Tables_number      2
_space_group_name_Hall           '-P 1'
loop_
_symmetry_equiv_pos_site_id
_symmetry_equiv_pos_as_xyz
1 x,y,z
2 -x,-y,-z
_cell_length_a                   9.982(6)
_cell_length_b                   10.000(1)
_cell_length_c                   9.576(4)
_cell_angle_alpha                97.96(3)
_cell_angle_beta                 114.87(3)
_cell_angle_gamma                107.67(2)
_cell_volume                     786.183
loop_
_atom_site_label
_atom_site_type_symbol
_atom_site_fract_x
_atom_site_fract_y
_atom_site_fract_z
Ge1 Ge -0.96694(8) -0.88455(7) -0.13641(8)
Zn1 Zn -0.20884(8) -0.65898(7) 0.31218(8)
P1 P -0.5998(2) -0.7709(2) 0.1746(2)
P2 P 0.0284(2) -0.3405(2) 0.3362(2)
P3 P -0.0301(2) -0.8071(2) 0.1539(2)
O1 O -0.4427(5) -0.7126(5) 0.1695(5)
O2 O -0.6045(6) -0.6662(5) 0.3021(6)
O3 O -0.7362(5) -0.8057(5) 0.0052(5)
O4 O -0.6159(6) -0.9214(6) 0.2199(6)
O5 O -0.1125(6) -0.4514(5) 0.3392(7)
O6 O -0.0028(6) -0.2046(5) 0.3046(5)
O7 O 0.1864(6) -0.2978(6) 0.4937(6)
O8 O 0.0473(6) -0.4085(5) 0.1887(6)
O9 O -0.1593(6) -0.7788(5) 0.1787(6)
O10 O 0.1175(5) -0.6519(5) 0.2204(6)
O11 O 0.0364(6) -0.9067(5) 0.2445(6)
O12 O -0.0939(6) -0.8706(5) -0.0283(5)
H1 H 0.0776 -0.4973 0.1922
H2 H 0.2055 -0.5594 0.2601
H3 H -0.6076 -0.6005 0.3816
Ge1A Ge -0.03306(8) -0.11545(7) 0.13641(8)
O6A O -0.9972(6) -0.7954(5) -0.3046(5)
O7A O -0.1864(6) -0.7022(6) 0.5063(6)
Ge1A_2 Ge -0.03306(8) -1.11545(7) 0.13641(8)
O11A O -1.0364(6) -1.0933(5) -0.2445(6)
O12_2 O -1.0939(6) -0.8706(5) -0.0283(5)
Ge1_2 Ge 0.03306(8) -0.88455(7) -0.13641(8)
Zn1A Zn 0.20884(8) -0.34102(7) 0.68782(8)
N1 N -0.3984(7) -0.2273(6) 0.4437(7)
N2 N -0.4800(7) -0.2544(6) 0.1520(7)
C1 C -0.3946(8) -0.3489(7) 0.2051(8)
C2 C -0.324(1) -0.3159(9) 0.3873(9)
C3 C -0.3429(10) -0.0776(9) 0.4260(10)
C4 C -0.3686(9) -0.0943(8) 0.2540(10)
C5 C -0.6290(9) -0.2985(9) 0.1705(10)
C6 C -0.5796(10) -0.305(1) 0.341(1)
H4 H -0.4672 -0.4497 0.1523
H5 H -0.3098 -0.3295 0.1793
H6 H -0.3474 -0.4064 0.4131
H7 H -0.2107 -0.2624 0.4403
H8 H -0.2316 -0.0237 0.5023
H9 H -0.4033 -0.0270 0.4446
H10 H -0.4168 -0.0312 0.2099
H11 H -0.2683 -0.0709 0.2559
H12 H -0.7066 -0.3915 0.0945
H13 H -0.6738 -0.2263 0.1522
H14 H -0.6282 -0.2574 0.3861
H15 H -0.6127 -0.4048 0.3402
loop_
_geom_bond_atom_site_label_1
_geom_bond_atom_site_label_2
_geom_bond_site_symmetry_1
_geom_bond_site_symmetry_2
Ge1 O3 1_555 1_555
Zn1 O1 1_555 1_555
P1 O1 1_555 1_555
P2 O5 1_555 1_555
P3 O9 1_555 1_555
O2 P1 1_555 1_555
O3 P1 1_555 1_555
O4 P1 1_555 1_555
O5 Zn1 1_555 1_555
O6 P2 1_555 1_555
O7 P2 1_555 1_555
O8 P2 1_555 1_555
O9 Zn1 1_555 1_555
O10 P3 1_555 1_555
O11 P3 1_555 1_555
O12 P3 1_555 1_555
N1 C2 1_555 1_555
N2 C1 1_555 1_555
C1 C2 1_555 1_555
C2 H6 1_555 1_555
C3 N1 1_555 1_555
C4 N2 1_555 1_555
C5 N2 1_555 1_555
C6 N1 1_555 1_555
H1 O8 1_555 1_555
H2 O10 1_555 1_555
H3 O2 1_555 1_555
H4 C1 1_555 1_555
H5 C1 1_555 1_555
H7 C2 1_555 1_555
H8 C3 1_555 1_555
H9 C3 1_555 1_555
H10 C4 1_555 1_555
H11 C4 1_555 1_555
H12 C5 1_555 1_555
H13 C5 1_555 1_555
H14 C6 1_555 1_555
H15 C6 1_555 1_555
Ge1A O6 1_555 1_555
O6A Ge1 1_555 1_555
O7A Zn1 1_555 1_555
Ge1A_2 O11 1_555 1_555
O11A Ge1 1_555 1_555
O12_2 Ge1 1_555 1_555
Ge1_2 O12 1_555 1_555
Zn1A O7 1_555 1_555
C3 C4 1_555 1_555
C5 C6 1_555 1_555

#END
