
#######################################################################
#
#                 Cambridge Crystallographic Data Centre
#                                CCDC 
#
#######################################################################
#
# If this CIF has been generated from an entry in the Cambridge 
# Structural Database, then it will include bibliographic, chemical, 
# crystal, experimental, refinement or atomic coordinate data resulting 
# from the CCDC's data processing and validation procedures.
#
#######################################################################

data_VIXCUB
_chemical_formula_moiety         '(C28 H36 Cl2 Cu3 N8 O8)n'
_symmetry_cell_setting           tetragonal
_symmetry_space_group_name_H-M   'I 41/a'
_symmetry_Int_Tables_number      88
_space_group_name_Hall           '-I 4ad'
loop_
_symmetry_equiv_pos_site_id
_symmetry_equiv_pos_as_xyz
1 x,y,z
2 3/4-y,1/4+x,1/4+z
3 1/2+x,1/2+y,1/2+z
4 1/4-y,3/4+x,3/4+z
5 1/4+y,1/4-x,1/4+z
6 1/2-x,-y,1/2+z
7 3/4+y,3/4-x,3/4+z
8 -x,1/2-y,z
9 -x,-y,-z
10 1/4+y,3/4-x,3/4-z
11 1/2-x,1/2-y,1/2-z
12 3/4+y,1/4-x,1/4-z
13 3/4-y,3/4+x,3/4-z
14 1/2+x,y,1/2-z
15 1/4-y,1/4+x,1/4-z
16 x,1/2+y,-z
_cell_length_a                   24.616(2)
_cell_length_b                   24.616(2)
_cell_length_c                   11.6525(10)
_cell_angle_alpha                90
_cell_angle_beta                 90
_cell_angle_gamma                90
_cell_volume                     7060.8
loop_
_atom_site_label
_atom_site_type_symbol
_atom_site_fract_x
_atom_site_fract_y
_atom_site_fract_z
_atom_site_U_iso_or_equiv
_atom_site_thermal_displace_type
Cu1 Cu 1.0000 0.5000 0.0000 0.0193 Uani
Cu2 Cu 0.831098(11) 0.573671(13) 0.15871(2) 0.0186 Uani
Cl1 Cl 0.95976(3) 0.45224(4) -0.14420(7) 0.0485 Uani
O1 O 0.89205(7) 0.53782(8) 0.08045(16) 0.0216 Uani
O2 O 0.82567(7) 0.50503(8) 0.24516(15) 0.0209 Uani
N1 N 0.94955(8) 0.46672(8) 0.11123(18) 0.0176 Uani
C1 C 0.90471(9) 0.49384(10) 0.1334(2) 0.0167 Uani
C2 C 0.86709(9) 0.47527(10) 0.2248(2) 0.0161 Uani
N2 N 0.87708(9) 0.43051(8) 0.28321(18) 0.0186 Uani
C3 C 0.92255(12) 0.40033(10) 0.2547(2) 0.0226 Uani
C4 C 0.93215(17) 0.35071(12) 0.3099(3) 0.0397 Uani
H1 H 0.9069 0.3371 0.3645 0.0480 Uiso
C5 C 0.97810(19) 0.32198(14) 0.2845(3) 0.0509 Uani
H2 H 0.9844 0.2883 0.3221 0.0610 Uiso
C6 C 1.01615(16) 0.34069(14) 0.2048(3) 0.0447 Uani
H3 H 1.0484 0.3206 0.1908 0.0540 Uiso
C7 C 1.00654(12) 0.38857(12) 0.1463(3) 0.0301 Uani
H4 H 1.0315 0.4010 0.0900 0.0360 Uiso
C8 C 0.95947(10) 0.41883(10) 0.1708(2) 0.0202 Uani
O3 O 0.89053(9) 0.60957(10) 0.29533(19) 0.0344 Uani
C9 C 0.93192(13) 0.58699(15) 0.3308(3) 0.0363 Uani
H5 H 0.9405 0.5523 0.2999 0.0440 Uiso
N3 N 0.96522(13) 0.60714(14) 0.4083(3) 0.0464 Uani
C10 C 1.01328(16) 0.5771(2) 0.4470(4) 0.0589 Uani
H6 H 1.0079 0.5652 0.5264 0.0880 Uiso
H7 H 1.0453 0.6007 0.4427 0.0880 Uiso
H8 H 1.0188 0.5453 0.3977 0.0880 Uiso
C11 C 0.9521(2) 0.66010(19) 0.4623(6) 0.0853 Uani
H9 H 0.9759 0.6883 0.4308 0.1280 Uiso
H10 H 0.9575 0.6575 0.5454 0.1280 Uiso
H11 H 0.9142 0.6695 0.4462 0.1280 Uiso
O4 O 0.77103(8) 0.60460(9) 0.25214(15) 0.0257 Uani
C12 C 0.76849(11) 0.59037(13) 0.3552(2) 0.0289 Uani
H12 H 0.7979 0.5698 0.3854 0.0350 Uiso
N4 N 0.72824(10) 0.60180(11) 0.4240(2) 0.0290 Uani
C13 C 0.68224(19) 0.6334(2) 0.3853(4) 0.0636 Uani
H13 H 0.6851 0.6395 0.3024 0.0950 Uiso
H14 H 0.6818 0.6684 0.4252 0.0950 Uiso
H15 H 0.6486 0.6137 0.4020 0.0950 Uiso
C14 C 0.72658(17) 0.58290(18) 0.5423(3) 0.0507 Uani
H16 H 0.7600 0.5629 0.5597 0.0760 Uiso
H17 H 0.6952 0.5589 0.5528 0.0760 Uiso
H18 H 0.7235 0.6142 0.5940 0.0760 Uiso
Cu2H Cu 1.168902(11) 0.426329(13) -0.15871(2) 0.0186 Uani
Cu2D Cu 0.823671(13) 0.418902(11) 0.40871(2) 0.0186 Uani
Cu2L Cu 1.176329(13) 0.581098(11) -0.40871(2) 0.0186 Uani
Cl1H Cl 1.04024(3) 0.54776(4) 0.14420(7) 0.0485 Uani
O1H O 1.10795(7) 0.46218(8) -0.08045(16) 0.0216 Uani
O2H O 1.17433(7) 0.49497(8) -0.24516(15) 0.0209 Uani
N1H N 1.05045(8) 0.53328(8) -0.11123(18) 0.0176 Uani
C1H C 1.09529(9) 0.50616(10) -0.1334(2) 0.0167 Uani
C2H C 1.13291(9) 0.52473(10) -0.2248(2) 0.0161 Uani
N2H N 1.12292(9) 0.56949(8) -0.28321(18) 0.0186 Uani
N2C N 0.81949(8) 0.62708(9) 0.03321(18) 0.0186 Uani
N2K N 1.18051(8) 0.37292(9) -0.03321(18) 0.0186 Uani
C3H C 1.07745(12) 0.59967(10) -0.2547(2) 0.0226 Uani
C4H C 1.06785(17) 0.64929(12) -0.3099(3) 0.0397 Uani
H1H H 1.0931 0.6629 -0.3645 0.0480 Uiso
C5H C 1.02190(19) 0.67802(14) -0.2845(3) 0.0509 Uani
H2H H 1.0156 0.7117 -0.3221 0.0610 Uiso
C6H C 0.98385(16) 0.65931(14) -0.2048(3) 0.0447 Uani
H3H H 0.9516 0.6794 -0.1908 0.0540 Uiso
C7H C 0.99346(12) 0.61143(12) -0.1463(3) 0.0301 Uani
H4H H 0.9685 0.5990 -0.0900 0.0360 Uiso
C8H C 1.04053(10) 0.58117(10) -0.1708(2) 0.0202 Uani
O3H O 1.10947(9) 0.39043(10) -0.29533(19) 0.0344 Uani
C9H C 1.06808(13) 0.41301(15) -0.3308(3) 0.0363 Uani
H5H H 1.0595 0.4477 -0.2999 0.0440 Uiso
N3H N 1.03478(13) 0.39286(14) -0.4083(3) 0.0464 Uani
C10H C 0.98672(16) 0.4229(2) -0.4470(4) 0.0589 Uani
H6H H 0.9921 0.4348 -0.5264 0.0880 Uiso
H7H H 0.9547 0.3993 -0.4427 0.0880 Uiso
H8H H 0.9812 0.4547 -0.3977 0.0880 Uiso
C11H C 1.0479(2) 0.33990(19) -0.4623(6) 0.0853 Uani
H9H H 1.0241 0.3117 -0.4308 0.1280 Uiso
H10H H 1.0425 0.3425 -0.5454 0.1280 Uiso
H11H H 1.0858 0.3305 -0.4462 0.1280 Uiso
O4H O 1.22897(8) 0.39540(9) -0.25214(15) 0.0257 Uani
C12H C 1.23151(11) 0.40963(13) -0.3552(2) 0.0289 Uani
H12H H 1.2021 0.4302 -0.3854 0.0350 Uiso
N4H N 1.27176(10) 0.39820(11) -0.4240(2) 0.0290 Uani
C13H C 1.31776(19) 0.3666(2) -0.3853(4) 0.0636 Uani
H13H H 1.3149 0.3605 -0.3024 0.0950 Uiso
H14H H 1.3182 0.3316 -0.4252 0.0950 Uiso
H15H H 1.3514 0.3863 -0.4020 0.0950 Uiso
C14H C 1.27342(17) 0.41710(18) -0.5423(3) 0.0507 Uani
H16H H 1.2400 0.4371 -0.5597 0.0760 Uiso
H17H H 1.3048 0.4411 -0.5528 0.0760 Uiso
H18H H 1.2765 0.3858 -0.5940 0.0760 Uiso
loop_
_atom_site_aniso_label
_atom_site_aniso_U_11
_atom_site_aniso_U_22
_atom_site_aniso_U_33
_atom_site_aniso_U_23
_atom_site_aniso_U_13
_atom_site_aniso_U_12
Cu1 0.0123(2) 0.0241(2) 0.0215(2) 0.00056(16) 0.00673(14) -0.00024(14)
Cu2 0.01482(16) 0.03019(19) 0.01082(18) 0.00483(11) 0.00142(10) 0.00843(11)
Cl1 0.0385(4) 0.0728(6) 0.0343(4) -0.0190(4) 0.0117(3) -0.0270(4)
O1 0.0192(8) 0.0248(9) 0.0207(9) 0.0103(7) 0.0070(6) 0.0086(7)
O2 0.0141(8) 0.0331(9) 0.0154(9) 0.0057(7) 0.0031(6) 0.0023(7)
N1 0.0142(8) 0.0195(9) 0.0191(10) 0.0029(7) 0.0025(7) 0.0015(7)
C1 0.0142(9) 0.0212(10) 0.0146(11) 0.0054(8) 0.0011(8) -0.0007(8)
C2 0.0138(9) 0.0223(10) 0.0121(10) 0.0024(8) 0.0000(7) -0.0056(8)
N2 0.0261(10) 0.0177(9) 0.0119(9) 0.0003(7) 0.0011(7) -0.0062(7)
C3 0.0408(14) 0.0128(10) 0.0141(11) -0.0014(8) -0.0015(9) 0.0012(9)
C4 0.0697(19) 0.0219(12) 0.0274(14) 0.0038(10) 0.0084(13) 0.0101(12)
C5 0.082(2) 0.0314(14) 0.0392(16) 0.0061(13) 0.0053(16) 0.0243(15)
C6 0.0587(18) 0.0356(14) 0.0399(17) -0.0051(13) -0.0049(14) 0.0268(13)
C7 0.0308(14) 0.0275(13) 0.0320(15) -0.0045(11) -0.0042(11) 0.0127(11)
C8 0.0248(11) 0.0175(10) 0.0182(12) -0.0008(8) -0.0037(9) 0.0023(9)
O3 0.0325(11) 0.0470(13) 0.0238(11) -0.0008(9) -0.0056(8) 0.0013(9)
C9 0.0319(15) 0.0524(18) 0.0247(15) -0.0028(13) -0.0051(11) -0.0025(13)
N3 0.0387(15) 0.0560(18) 0.0446(18) 0.0135(14) -0.0176(12) -0.0154(13)
C10 0.0347(18) 0.089(3) 0.053(2) 0.012(2) -0.0193(17) -0.0086(19)
C11 0.096(4) 0.048(2) 0.112(5) 0.000(3) -0.057(4) -0.016(2)
O4 0.0227(9) 0.0392(11) 0.0151(9) 0.0023(7) 0.0028(7) 0.0105(8)
C12 0.0244(12) 0.0438(16) 0.0186(13) -0.0002(11) 0.0022(10) 0.0090(11)
N4 0.0290(11) 0.0356(12) 0.0223(12) -0.0017(9) 0.0074(9) 0.0022(10)
C13 0.0539(19) 0.082(2) 0.055(2) 0.0053(18) 0.0166(17) 0.0323(18)
C14 0.058(2) 0.068(2) 0.0262(17) 0.0085(16) 0.0178(16) 0.0120(19)
Cu2H 0.01482 0.03019 0.01082 0.00483 0.00142 0.00843
Cu2D 0.03019 0.01482 0.01082 -0.00142 0.00483 -0.00843
Cu2L 0.03019 0.01482 0.01082 -0.00142 0.00483 -0.00843
Cl1H 0.0385 0.0728 0.0343 -0.019 0.0117 -0.027
O1H 0.0192 0.0248 0.0207 0.0103 0.007 0.0086
O2H 0.0141 0.0331 0.0154 0.0057 0.0031 0.0023
N1H 0.0142 0.0195 0.0191 0.0029 0.0025 0.0015
C1H 0.0142 0.0212 0.0146 0.0054 0.0011 -0.0007
C2H 0.0138 0.0223 0.0121 0.0024 0 -0.0056
N2H 0.0261 0.0177 0.0119 0.0003 0.0011 -0.0062
N2C 0.0177 0.0261 0.0119 0.0011 -0.0003 0.0062
N2K 0.0177 0.0261 0.0119 0.0011 -0.0003 0.0062
C3H 0.0408 0.0128 0.0141 -0.0014 -0.0015 0.0012
C4H 0.0697 0.0219 0.0274 0.0038 0.0084 0.0101
C5H 0.082 0.0314 0.0392 0.0061 0.0053 0.0243
C6H 0.0587 0.0356 0.0399 -0.0051 -0.0049 0.0268
C7H 0.0308 0.0275 0.032 -0.0045 -0.0042 0.0127
C8H 0.0248 0.0175 0.0182 -0.0008 -0.0037 0.0023
O3H 0.0325 0.047 0.0238 -0.0008 -0.0056 0.0013
C9H 0.0319 0.0524 0.0247 -0.0028 -0.0051 -0.0025
N3H 0.0387 0.056 0.0446 0.0135 -0.0176 -0.0154
C10H 0.0347 0.089 0.053 0.012 -0.0193 -0.0086
C11H 0.096 0.048 0.112 0 -0.057 -0.016
O4H 0.0227 0.0392 0.0151 0.0023 0.0028 0.0105
C12H 0.0244 0.0438 0.0186 -0.0002 0.0022 0.009
N4H 0.029 0.0356 0.0223 -0.0017 0.0074 0.0022
C13H 0.0539 0.082 0.055 0.0053 0.0166 0.0323
C14H 0.058 0.068 0.0262 0.0085 0.0178 0.012
loop_
_geom_bond_atom_site_label_1
_geom_bond_atom_site_label_2
_geom_bond_site_symmetry_1
_geom_bond_site_symmetry_2
Cu1 Cl1 1_555 1_555
Cu2 O1 1_555 1_555
O1 C1 1_555 1_555
O2 Cu2 1_555 1_555
N1 Cu1 1_555 1_555
C1 N1 1_555 1_555
C2 O2 1_555 1_555
N2 C2 1_555 1_555
C3 N2 1_555 1_555
C4 C3 1_555 1_555
H1 C4 1_555 1_555
C5 C4 1_555 1_555
H2 C5 1_555 1_555
C6 C5 1_555 1_555
H3 C6 1_555 1_555
C7 C6 1_555 1_555
H4 C7 1_555 1_555
C8 N1 1_555 1_555
O3 Cu2 1_555 1_555
C9 O3 1_555 1_555
H5 C9 1_555 1_555
N3 C9 1_555 1_555
C10 N3 1_555 1_555
H6 C10 1_555 1_555
H7 C10 1_555 1_555
H8 C10 1_555 1_555
C11 N3 1_555 1_555
H9 C11 1_555 1_555
H10 C11 1_555 1_555
H11 C11 1_555 1_555
O4 Cu2 1_555 1_555
C12 O4 1_555 1_555
H12 C12 1_555 1_555
N4 C12 1_555 1_555
C13 N4 1_555 1_555
H13 C13 1_555 1_555
H14 C13 1_555 1_555
H15 C13 1_555 1_555
C14 N4 1_555 1_555
H16 C14 1_555 1_555
H17 C14 1_555 1_555
H18 C14 1_555 1_555
Cu2H O1H 1_555 1_555
Cu2D N2 1_555 1_555
Cu2L N2H 1_555 1_555
Cl1H Cu1 1_555 1_555
O1H C1H 1_555 1_555
O2H Cu2H 1_555 1_555
N1H Cu1 1_555 1_555
C1H N1H 1_555 1_555
C2H O2H 1_555 1_555
N2H C2H 1_555 1_555
N2C Cu2 1_555 1_555
N2K Cu2H 1_555 1_555
C3H N2H 1_555 1_555
C4H C3H 1_555 1_555
H1H C4H 1_555 1_555
C5H C4H 1_555 1_555
H2H C5H 1_555 1_555
C6H C5H 1_555 1_555
H3H C6H 1_555 1_555
C7H C6H 1_555 1_555
H4H C7H 1_555 1_555
C8H N1H 1_555 1_555
O3H Cu2H 1_555 1_555
C9H O3H 1_555 1_555
H5H C9H 1_555 1_555
N3H C9H 1_555 1_555
C10H N3H 1_555 1_555
H6H C10H 1_555 1_555
H7H C10H 1_555 1_555
H8H C10H 1_555 1_555
C11H N3H 1_555 1_555
H9H C11H 1_555 1_555
H10H C11H 1_555 1_555
H11H C11H 1_555 1_555
O4H Cu2H 1_555 1_555
C12H O4H 1_555 1_555
H12H C12H 1_555 1_555
N4H C12H 1_555 1_555
C13H N4H 1_555 1_555
H13H C13H 1_555 1_555
H14H C13H 1_555 1_555
H15H C13H 1_555 1_555
C14H N4H 1_555 1_555
H16H C14H 1_555 1_555
H17H C14H 1_555 1_555
H18H C14H 1_555 1_555
C1 C2 1_555 1_555
C3 C8 1_555 1_555
C7 C8 1_555 1_555
C1H C2H 1_555 1_555
C3H C8H 1_555 1_555
C7H C8H 1_555 1_555

#END
