
#######################################################################
#
#                 Cambridge Crystallographic Data Centre
#                                CCDC 
#
#######################################################################
#
# If this CIF has been generated from an entry in the Cambridge 
# Structural Database, then it will include bibliographic, chemical, 
# crystal, experimental, refinement or atomic coordinate data resulting 
# from the CCDC's data processing and validation procedures.
#
#######################################################################

data_OVEHUT
_chemical_formula_moiety         '(C18 H17 Cd1 N1 O9)n'
_symmetry_cell_setting           monoclinic
_symmetry_space_group_name_H-M   'P 21/c'
_symmetry_Int_Tables_number      14
_space_group_name_Hall           '-P 2ybc'
loop_
_symmetry_equiv_pos_site_id
_symmetry_equiv_pos_as_xyz
1 x,y,z
2 -x,1/2+y,1/2-z
3 -x,-y,-z
4 x,1/2-y,1/2+z
_cell_length_a                   10.094(2)
_cell_length_b                   13.699(3)
_cell_length_c                   13.723(3)
_cell_angle_alpha                90
_cell_angle_beta                 107.92(3)
_cell_angle_gamma                90
_cell_volume                     1805.53
loop_
_atom_site_label
_atom_site_type_symbol
_atom_site_fract_x
_atom_site_fract_y
_atom_site_fract_z
Cd1 Cd 0.67340(3) 0.55723(2) 0.08155(2)
O1 O 0.8529(3) 0.4563(2) 0.2181(3)
O2 O 0.6273(3) 0.4292(2) 0.1780(2)
O3 O 0.6045(3) 0.0597(2) 0.4557(2)
O4 O 0.4552(3) 0.1493(2) 0.3373(2)
O5 O 1.1665(3) 0.1821(2) 0.3605(2)
O6 O 1.1180(3) 0.0767(2) 0.4670(2)
O7 O 0.5784(3) 0.6751(2) -0.0554(2)
H1 H 0.5100 0.6496 -0.1008
H2 H 0.6088 0.7327 -0.0574
C1 C 0.7524(4) 0.4055(3) 0.2238(3)
C2 C 0.5782(4) 0.1250(3) 0.3870(3)
C3 C 1.0842(4) 0.1473(3) 0.4051(3)
C13 C 0.8326(4) 0.1415(3) 0.4017(3)
H14 H 0.8511 0.0858 0.4424
C14 C 0.9410(4) 0.1898(3) 0.3787(3)
C15 C 0.9133(4) 0.2771(3) 0.3241(3)
H15 H 0.9862 0.3114 0.3120
C16 C 0.7799(4) 0.3135(3) 0.2876(3)
C17 C 0.6707(4) 0.2615(3) 0.3055(3)
H16 H 0.5798 0.2838 0.2782
C18 C 0.6969(4) 0.1764(3) 0.3639(3)
Cd1A Cd 0.32660(3) 0.05723(2) 0.41845(2)
Cd1C Cd 0.67340(3) -0.05723(2) 0.58155(2)
Cd1A_2 Cd 1.32660(3) 0.05723(2) 0.41845(2)
O3A O 0.3955(3) 0.5597(2) 0.0443(2)
O3C O 0.6045(3) 0.4403(2) -0.0443(2)
O4A O 0.5448(3) 0.6493(2) 0.1627(2)
O5A O 0.8335(3) 0.6821(2) 0.1395(2)
O6A O 0.8820(3) 0.5767(2) 0.0330(2)
N1 N 0.5139(4) 0.8365(3) 0.0414(3)
C4 C 0.3862(5) 0.8814(3) 0.0092(3)
C5 C 0.2783(6) 0.8431(4) -0.0731(4)
H7 H 0.2919 0.7861 -0.1055
C6 C 0.1539(6) 0.8903(4) -0.1045(4)
H8 H 0.0821 0.8649 -0.1585
C7 C 0.1324(5) 0.9765(4) -0.0567(4)
H9 H 0.0474 1.0088 -0.0804
C8 C 0.2355(5) 1.0136(4) 0.0249(4)
H10 H 0.2198 1.0705 0.0567
C9 C 0.3646(5) 0.9663(3) 0.0604(4)
C10 C 0.4761(5) 0.9987(3) 0.1448(4)
H11 H 0.4649 1.0543 0.1804
C11 C 0.5993(5) 0.9498(3) 0.1747(4)
H12 H 0.6711 0.9711 0.2312
C12 C 0.6169(5) 0.8682(3) 0.1204(4)
H13 H 0.7017 0.8355 0.1396
H17 H 0.522(6) 0.777(4) 0.014(4)
O8 O 0.7411(3) 0.7614(2) 0.8437(2)
H3 H 0.7601 0.8157 0.8750
H4 H 0.6537 0.7519 0.8255
O9 O 0.9129(3) 0.6034(3) 0.8365(3)
H5 H 0.9276 0.6532 0.8754
H6 H 0.8289 0.5850 0.8243
loop_
_geom_bond_atom_site_label_1
_geom_bond_atom_site_label_2
_geom_bond_site_symmetry_1
_geom_bond_site_symmetry_2
Cd1 O1 1_555 1_555
N1 C4 1_555 1_555
O1 C1 1_555 1_555
O2 Cd1 1_555 1_555
O3 C2 1_555 1_555
O4 C2 1_555 1_555
O5 C3 1_555 1_555
O6 C3 1_555 1_555
O7 Cd1 1_555 1_555
H1 O7 1_555 1_555
H2 O7 1_555 1_555
O8 H3 1_555 1_555
H4 O8 1_555 1_555
O9 H5 1_555 1_555
H6 O9 1_555 1_555
C1 O2 1_555 1_555
C2 C18 1_555 1_555
C3 C14 1_555 1_555
C4 C5 1_555 1_555
C5 H7 1_555 1_555
C6 C5 1_555 1_555
H8 C6 1_555 1_555
C7 C6 1_555 1_555
H9 C7 1_555 1_555
C8 C7 1_555 1_555
H10 C8 1_555 1_555
C9 C4 1_555 1_555
C10 C9 1_555 1_555
H11 C10 1_555 1_555
C11 C10 1_555 1_555
H12 C11 1_555 1_555
C12 N1 1_555 1_555
H13 C12 1_555 1_555
C13 H14 1_555 1_555
C14 C13 1_555 1_555
C15 C14 1_555 1_555
H15 C15 1_555 1_555
C16 C1 1_555 1_555
C17 C16 1_555 1_555
H16 C17 1_555 1_555
C18 C13 1_555 1_555
H17 N1 1_555 1_555
Cd1A O3 1_555 1_555
Cd1C O3 1_555 1_555
Cd1A_2 O5 1_555 1_555
O3A Cd1 1_555 1_555
O3C Cd1 1_555 1_555
O4A Cd1 1_555 1_555
O5A Cd1 1_555 1_555
O6A Cd1 1_555 1_555
O4 Cd1A 1_555 1_555
O6 Cd1A_2 1_555 1_555
C8 C9 1_555 1_555
C11 C12 1_555 1_555
C15 C16 1_555 1_555
C17 C18 1_555 1_555

#END
