
#######################################################################
#
#                 Cambridge Crystallographic Data Centre
#                                CCDC 
#
#######################################################################
#
# If this CIF has been generated from an entry in the Cambridge 
# Structural Database, then it will include bibliographic, chemical, 
# crystal, experimental, refinement or atomic coordinate data resulting 
# from the CCDC's data processing and validation procedures.
#
#######################################################################

data_LIVTIT
_chemical_formula_moiety         '(C28 H20 Cu2 F12 N8 O2 P2)n'
_symmetry_cell_setting           monoclinic
_symmetry_space_group_name_H-M   'P 21/c'
_symmetry_Int_Tables_number      14
_space_group_name_Hall           '-P 2ybc'
loop_
_symmetry_equiv_pos_site_id
_symmetry_equiv_pos_as_xyz
1 x,y,z
2 -x,1/2+y,1/2-z
3 -x,-y,-z
4 x,1/2-y,1/2+z
_cell_length_a                   21.617(2)
_cell_length_b                   11.127(3)
_cell_length_c                   16.294(2)
_cell_angle_alpha                90
_cell_angle_beta                 111.61(2)
_cell_angle_gamma                90
_cell_volume                     3643.76
loop_
_atom_site_label
_atom_site_type_symbol
_atom_site_fract_x
_atom_site_fract_y
_atom_site_fract_z
Cu1 Cu -0.02464(5) 0.00637(10) -0.32211(7)
Cu2 Cu -0.47971(5) 0.00792(10) -0.30334(7)
C1 C -0.1763(4) 0.3347(7) -0.2563(5)
C2 C -0.1795(4) 0.2076(7) -0.2625(5)
C3 C -0.2379(4) 0.1491(7) -0.2782(5)
C4 C -0.2949(4) 0.2148(7) -0.2893(5)
C5 C -0.2930(4) 0.3406(7) -0.2869(5)
C6 C -0.2336(4) 0.3999(7) -0.2679(5)
C7 C -0.1133(4) 0.3941(7) -0.2374(5)
N1 N -0.0623(4) 0.4359(6) -0.2193(5)
C8 C -0.1205(4) 0.1415(7) -0.2586(6)
N2 N -0.0753(4) 0.0893(6) -0.2599(5)
C9 C -0.3569(4) 0.1519(8) -0.3056(6)
N3 N -0.4059(4) 0.1036(7) -0.3172(5)
C10 C -0.3540(4) 0.4065(8) -0.3002(6)
N4 N -0.4031(4) 0.4551(8) -0.3141(7)
C11 C -0.2082(4) -0.2020(7) -0.4902(5)
C12 C -0.2085(4) -0.3269(7) -0.4941(5)
C13 C -0.2660(4) -0.3873(7) -0.5415(5)
C14 C -0.3238(4) -0.3239(7) -0.5836(6)
C15 C -0.3243(4) -0.1982(7) -0.5775(5)
C16 C -0.2662(4) -0.1371(7) -0.5308(5)
N5 N -0.0980(4) -0.0915(7) -0.4058(5)
C17 C -0.1462(4) -0.1392(8) -0.4424(6)
C18 C -0.1482(5) -0.3933(8) -0.4489(6)
N6 N -0.0989(5) -0.4431(9) -0.4146(6)
C19 C -0.3833(5) -0.3853(7) -0.6400(6)
N7 N -0.4290(4) -0.4325(7) -0.6882(5)
C20 C -0.3854(4) -0.1315(7) -0.6206(6)
N8 N -0.4345(4) -0.0833(6) -0.6525(5)
O1 O -0.4918(3) -0.1433(6) -0.3867(5)
C21 C -0.4615(9) -0.1637(13) -0.4463(11)
C22 C -0.4728(7) -0.2886(11) -0.4794(9)
C23 C -0.5280(7) -0.3296(11) -0.4516(9)
C24 C -0.5225(8) -0.2496(13) -0.3780(10)
O2 O -0.0106(4) 0.1527(6) -0.3967(5)
C25 C -0.0391(9) 0.1711(15) -0.4865(10)
C26 C -0.0274(8) 0.2931(14) -0.5092(10)
C27 C 0.0256(8) 0.3397(12) -0.4271(10)
C28 C 0.0233(10) 0.2565(15) -0.3595(10)
N1A N 0.0623(4) -0.0641(6) -0.2807(5)
Cu2C Cu -0.47971(5) -0.50792(10) -0.80334(7)
N7C N -0.4290(4) -0.0675(7) -0.1882(5)
N8B N -0.5655(4) 0.0833(6) -0.3475(5)
Cu1A Cu 0.02464(5) 0.50637(10) -0.17789(7)
Cu2B Cu -0.52029(5) -0.00792(10) -0.69666(7)
P1 P 0.24565(17) -0.7754(2) -0.72766(19)
F7 F 0.2939(7) -0.753(4) -0.6307(10)
F8 F 0.1971(10) -0.6814(11) -0.7106(15)
F9 F 0.2869(15) -0.8747(14) -0.752(2)
F10 F 0.2889(14) -0.6805(16) -0.7494(19)
F11 F 0.2093(13) -0.8705(10) -0.692(2)
F12 F 0.1985(7) -0.773(4) -0.8259(8)
P2 P 0.74379(17) -0.7631(2) -0.53029(19)
F19 F 0.7908(6) -0.759(3) -0.5824(10)
F20 F 0.7837(11) -0.8621(10) -0.4652(13)
F21 F 0.7857(13) -0.6685(13) -0.4651(11)
F22 F 0.6985(11) -0.6692(11) -0.5952(12)
F23 F 0.7022(11) -0.8616(10) -0.5957(10)
F24 F 0.6946(7) -0.763(4) -0.4800(12)
loop_
_geom_bond_atom_site_label_1
_geom_bond_atom_site_label_2
_geom_bond_site_symmetry_1
_geom_bond_site_symmetry_2
Cu1 N2 1_555 1_555
Cu2 N3 1_555 1_555
C1 C2 1_555 1_555
C2 C3 1_555 1_555
C3 C4 1_555 1_555
C4 C5 1_555 1_555
C5 C6 1_555 1_555
C6 C1 1_555 1_555
C7 C1 1_555 1_555
N1 C7 1_555 1_555
C8 C2 1_555 1_555
N2 C8 1_555 1_555
C9 C4 1_555 1_555
N3 C9 1_555 1_555
C10 C5 1_555 1_555
N4 C10 1_555 1_555
C11 C12 1_555 1_555
C12 C13 1_555 1_555
C13 C14 1_555 1_555
C14 C15 1_555 1_555
C15 C16 1_555 1_555
C16 C11 1_555 1_555
N5 Cu1 1_555 1_555
C17 C11 1_555 1_555
C18 C12 1_555 1_555
N6 C18 1_555 1_555
C19 C14 1_555 1_555
N7 C19 1_555 1_555
C20 C15 1_555 1_555
N8 C20 1_555 1_555
O1 Cu2 1_555 1_555
C21 O1 1_555 1_555
C22 C21 1_555 1_555
C23 C22 1_555 1_555
C24 O1 1_555 1_555
O2 Cu1 1_555 1_555
C25 O2 1_555 1_555
C26 C25 1_555 1_555
C27 C26 1_555 1_555
C28 O2 1_555 1_555
P1 F7 1_555 1_555
F8 P1 1_555 1_555
F9 P1 1_555 1_555
F10 P1 1_555 1_555
F11 P1 1_555 1_555
F12 P1 1_555 1_555
P2 F19 1_555 1_555
F20 P2 1_555 1_555
F21 P2 1_555 1_555
F22 P2 1_555 1_555
F23 P2 1_555 1_555
F24 P2 1_555 1_555
N1A Cu1 1_555 1_555
Cu2C N7 1_555 1_555
N7C Cu2 1_555 1_555
N8B Cu2 1_555 1_555
Cu1A N1 1_555 1_555
Cu2B N8 1_555 1_555
N5 C17 1_555 1_555
C23 C24 1_555 1_555
C27 C28 1_555 1_555

#END
