
#######################################################################
#
#                 Cambridge Crystallographic Data Centre
#                                CCDC 
#
#######################################################################
#
# If this CIF has been generated from an entry in the Cambridge 
# Structural Database, then it will include bibliographic, chemical, 
# crystal, experimental, refinement or atomic coordinate data resulting 
# from the CCDC's data processing and validation procedures.
#
#######################################################################

data_KUXLUL
_chemical_formula_moiety         'C16 H3 Cu3 N2 O11 S1'
_symmetry_cell_setting           orthorhombic
_symmetry_space_group_name_H-M   'P n n m'
_symmetry_Int_Tables_number      58
_space_group_name_Hall           '-P 2 2n'
loop_
_symmetry_equiv_pos_site_id
_symmetry_equiv_pos_as_xyz
1 x,y,z
2 -x,-y,z
3 1/2-x,1/2+y,1/2-z
4 1/2+x,1/2-y,1/2-z
5 -x,-y,-z
6 x,y,-z
7 1/2+x,1/2-y,1/2+z
8 1/2-x,1/2+y,1/2+z
_cell_length_a                   11.5537(5)
_cell_length_b                   16.7793(8)
_cell_length_c                   10.8908(5)
_cell_angle_alpha                90
_cell_angle_beta                 90
_cell_angle_gamma                90
_cell_volume                     2111.32
loop_
_atom_site_label
_atom_site_type_symbol
_atom_site_fract_x
_atom_site_fract_y
_atom_site_fract_z
_atom_site_U_iso_or_equiv
_atom_site_thermal_displace_type
Cu1 Cu 0.17862(9) 0.13534(5) 1.0000 0.0164 Uani
Cu2 Cu 0.0000 0.0000 0.86202(8) 0.0263 Uani
O1 O 0.1016(5) 0.0329(3) 1.0000 0.0137 Uani
H1 H 0.160(5) 0.003(4) 1.0000 0.0160 Uiso
S1 S -0.10047(16) 0.17428(10) 1.0000 0.0135 Uani
O2 O -0.0859(4) -0.0517(2) 0.7295(4) 0.0241 Uani
O3 O 0.2030(4) 0.1383(3) 0.8249(4) 0.0281 Uani
O4 O -0.1216(5) 0.1298(3) 0.8893(4) 0.0343 Uani
O5 O 0.0137(6) 0.2104(4) 1.0000 0.0537 Uani
C1 C -0.3411(6) 0.3895(4) 1.0000 0.0113 Uani
H2 H -0.3906 0.4346 1.0000 0.0140 Uiso
C2 C -0.3053(4) 0.3568(3) 0.8887(4) 0.0123 Uani
C3 C -0.2323(5) 0.2907(3) 0.8893(4) 0.0123 Uani
H3 H -0.2066 0.2684 0.8139 0.0150 Uiso
C4 C -0.1970(6) 0.2573(4) 1.0000 0.0110 Uani
C5 C -0.1567(4) -0.1075(3) 0.7317(5) 0.0123 Uani
O6 O 0.2654(6) 0.2353(4) 1.0000 0.0370 Uani
C6 C 0.2374(17) 0.2913(9) 0.9394(16) 0.0717 Uani
N1 N 0.2801(16) 0.3607(7) 0.9513(13) 0.0717 Uani
C7 C 0.356(2) 0.3780(11) 1.065(2) 0.0897 Uani
C8 C 0.300(2) 0.4260(10) 0.869(2) 0.0897 Uani
Cu2D Cu 0.0000 0.0000 1.13798(8) 0.0263 Uani
O1A O -0.1016(5) -0.0329(3) 1.0000 0.0137 Uani
O2A O 0.0859(4) 0.0517(2) 0.7295(4) 0.0241 Uani
O3E O 0.2030(4) 0.1383(3) 1.1751(4) 0.0281 Uani
O3A O -0.2030(4) -0.1383(3) 0.8249(4) 0.0281 Uani
O4E O -0.1216(5) 0.1298(3) 1.1107(4) 0.0343 Uani
C2E C -0.3053(4) 0.3568(3) 1.1113(4) 0.0123 Uani
C2B C -0.1947(4) -0.1432(3) 0.6113(4) 0.0123 Uani
C3E C -0.2323(5) 0.2907(3) 1.1107(4) 0.0123 Uani
C5A C 0.1567(4) 0.1075(3) 0.7317(5) 0.0123 Uani
C5B C -0.3433(4) 0.3925(3) 0.7683(5) 0.0123 Uani
C6E C 0.2374(17) 0.2913(9) 1.0606(16) 0.0717 Uani
N1E N 0.2801(16) 0.3607(7) 1.0487(13) 0.0717 Uani
C7E C 0.356(2) 0.3780(11) 0.935(2) 0.0897 Uani
C8E C 0.300(2) 0.4260(10) 1.131(2) 0.0897 Uani
loop_
_atom_site_aniso_label
_atom_site_aniso_U_11
_atom_site_aniso_U_22
_atom_site_aniso_U_33
_atom_site_aniso_U_23
_atom_site_aniso_U_13
_atom_site_aniso_U_12
Cu1 0.0264(6) 0.0186(5) 0.0043(5) 0.000 0.000 -0.0137(4)
Cu2 0.0393(7) 0.0368(6) 0.0028(5) 0.000 0.000 -0.0303(5)
O1 0.018(3) 0.011(2) 0.012(3) 0.000 0.000 -0.003(2)
S1 0.0182 0.0111 0.0112 0 0 0.008
O2 0.034(2) 0.029(2) 0.0094(18) -0.0004(16) -0.0005(17) -0.0217(18)
O3 0.047 0.036 0.0012 0.0005 0.0002 -0.028
O4 0.064 0.026 0.013 -0.0119 -0.014 0.029
O5 0.02 0.019 0.122 0 0 0.005
C1 0.014 0.012 0.008 0 0 0.006
C2 0.017 0.018 0.002 0 -0.0021 0.004
C3 0.019 0.013 0.005 -0.0016 0.0008 0.0044
C4 0.012 0.007 0.014 0 0 0.009
C5 0.018(2) 0.013(2) 0.006(2) -0.0029(18) -0.0036(19) -0.0044(19)
O6 0.047(4) 0.029(4) 0.035(4) 0.000 0.000 -0.025(3)
C6 0.106(10) 0.032(5) 0.077(9) -0.015(5) 0.059(8) -0.037(6)
N1 0.106(10) 0.032(5) 0.077(9) -0.015(5) 0.059(8) -0.037(6)
C7 0.118(14) 0.035(7) 0.116(15) -0.025(8) -0.032(12) 0.006(8)
C8 0.118(14) 0.035(7) 0.116(15) -0.025(8) -0.032(12) 0.006(8)
Cu2D 0.0393 0.0368 0.0028 0 0 -0.0303
O1A 0.018 0.011 0.012 0 0 -0.003
O2A 0.034 0.029 0.0094 0.0004 0.0005 -0.0217
O3E 0.047 0.036 0.0012 -0.0005 -0.0002 -0.028
O3A 0.047(3) 0.036(2) 0.0012(18) -0.0005(16) -0.0002(18) -0.028(2)
O4E 0.064 0.026 0.013 0.0119 0.014 0.029
C2E 0.017 0.018 0.002 0 0.0021 0.004
C2B 0.017(3) 0.018(2) 0.002(2) 0.0000(18) -0.0021(18) -0.004(2)
C3E 0.019 0.013 0.005 0.0016 -0.0008 0.0044
C5A 0.018 0.013 0.006 0.0029 0.0036 -0.0044
C5B 0.018 0.013 0.006 0.0029 -0.0036 0.0044
C6E 0.106 0.032 0.077 0.015 -0.059 -0.037
N1E 0.106 0.032 0.077 0.015 -0.059 -0.037
C7E 0.118 0.035 0.116 0.025 0.032 0.006
C8E 0.118 0.035 0.116 0.025 0.032 0.006
loop_
_geom_bond_atom_site_label_1
_geom_bond_atom_site_label_2
_geom_bond_site_symmetry_1
_geom_bond_site_symmetry_2
Cu1 O1 1_555 1_555
Cu2 O1 1_555 1_555
O1 H1 1_555 1_555
S1 O4 1_555 1_555
O2 Cu2 1_555 1_555
O3 Cu1 1_555 1_555
O5 Cu1 1_555 1_555
C1 H2 1_555 1_555
C2 C1 1_555 1_555
C3 C2 1_555 1_555
H3 C3 1_555 1_555
C4 S1 1_555 1_555
C5 O2 1_555 1_555
O6 Cu1 1_555 1_555
C6 O6 1_555 1_555
N1 C6 1_555 1_555
C7 N1 1_555 1_555
C8 N1 1_555 1_555
Cu2D O1 1_555 1_555
O1A Cu2 1_555 1_555
O2A Cu2 1_555 1_555
O3E Cu1 1_555 1_555
O3A C5 1_555 1_555
O4E S1 1_555 1_555
C2E C1 1_555 1_555
C2B C5 1_555 1_555
C3E C4 1_555 1_555
C5A O3 1_555 1_555
C5B C2 1_555 1_555
C6E O6 1_555 1_555
N1E C6 1_555 1_555
C7E N1 1_555 1_555
C8E C7 1_555 1_555
S1 O5 1_555 1_555
C3 C4 1_555 1_555
C6 C6E 1_555 1_555
N1 C6E 1_555 1_555
N1 N1E 1_555 1_555
C7 N1E 1_555 1_555
C7 C7E 1_555 1_555
C8 C7E 1_555 1_555
Cu2D O1A 1_555 1_555
O2A C5A 1_555 1_555
C2E C3E 1_555 1_555
C6E N1E 1_555 1_555
N1E C7E 1_555 1_555
N1E C8E 1_555 1_555

#END
