
#######################################################################
#
#                 Cambridge Crystallographic Data Centre
#                                CCDC 
#
#######################################################################
#
# If this CIF has been generated from an entry in the Cambridge 
# Structural Database, then it will include bibliographic, chemical, 
# crystal, experimental, refinement or atomic coordinate data resulting 
# from the CCDC's data processing and validation procedures.
#
#######################################################################

data_BAKYOE
_chemical_formula_moiety         'C16 H22 Mg7 N5 O22'
_symmetry_cell_setting           orthorhombic
_symmetry_space_group_name_H-M   'P n c a'
_symmetry_Int_Tables_number      60
_space_group_name_Hall           '-P 2a 2n'
loop_
_symmetry_equiv_pos_site_id
_symmetry_equiv_pos_as_xyz
1 x,y,z
2 1/2-x,-y,z
3 -x,1/2+y,1/2-z
4 1/2+x,1/2-y,1/2-z
5 -x,-y,-z
6 1/2+x,y,-z
7 x,1/2-y,1/2+z
8 1/2-x,1/2+y,1/2+z
_cell_length_a                   12.474(3)
_cell_length_b                   15.248(3)
_cell_length_c                   16.899(3)
_cell_angle_alpha                90
_cell_angle_beta                 90
_cell_angle_gamma                90
_cell_volume                     3214.25
loop_
_atom_site_label
_atom_site_type_symbol
_atom_site_fract_x
_atom_site_fract_y
_atom_site_fract_z
O7 O 0.1370(5) 0.4995(4) 0.9999(4)
O8 O 0.2500 0.5000 0.8561(6)
O9 O 0.2500 0.5000 0.1849(4)
O10 O 0.0469(10) 0.6075(7) 0.8691(8)
O11 O 0.2871(9) 0.2608(7) 0.4700(6)
Mg1 Mg 0.2500 0.5000 0.39148(11)
Mg2 Mg 0.5000 0.5000 0.5000
O1 O 0.6321(3) 0.9509(2) 0.1771(2)
C1 C 0.5486(4) 0.9092(3) 0.1581(3)
O2 O 0.4961(3) 0.9136(2) 0.0952(2)
O3 O 0.3383(3) 0.4865(2) 0.5036(2)
N1 N 0.2500 0.5000 0.5420(4)
O4 O 0.2500 0.5000 0.6216(4)
O5 O 0.4842(3) 0.6039(2) 0.4258(2)
C2 C 0.4170(4) 0.6405(3) 0.3846(3)
O6 O 0.3194(3) 0.6216(2) 0.3847(2)
C3 C 0.4521(4) 0.7121(3) 0.3287(3)
C4 C 0.5555(4) 0.7506(4) 0.3326(4)
N2 N 0.6203(7) 0.7322(6) 0.3972(6)
H1 H 0.6785 0.7613 0.4044
H2 H 0.6022 0.6917 0.4300
C5 C 0.5830(5) 0.8163(4) 0.2783(3)
H3 H 0.6490 0.8443 0.2827
C6 C 0.5130(4) 0.8405(4) 0.2175(3)
C7 C 0.4161(5) 0.7962(4) 0.2089(4)
C8 C 0.3846(4) 0.7334(4) 0.2650(4)
H4 H 0.3185 0.7056 0.2599
N3 N 0.3551(8) 0.8057(7) 0.1411(7)
H5 H 0.3769 0.8393 0.1035
H6 H 0.2953 0.7780 0.1365
O3A O 0.1617(3) 0.5135(2) 0.5036(2)
O1A O -0.1321(3) 0.0491(2) 0.1771(2)
C1A C -0.0486(4) 0.0908(3) 0.1581(3)
O2A O 0.0039(3) 0.0864(2) 0.0952(2)
O5A O 0.0158(3) 0.3961(2) 0.4258(2)
C2A C 0.0830(4) 0.3595(3) 0.3846(3)
O6A O 0.1806(3) 0.3784(2) 0.3847(2)
C3A C 0.0479(4) 0.2879(3) 0.3287(3)
C4A C -0.0555(4) 0.2494(4) 0.3326(4)
N2A N -0.1203(7) 0.2678(6) 0.3972(6)
H1A H -0.1785 0.2387 0.4044
H2A H -0.1022 0.3083 0.4300
C5A C -0.0830(5) 0.1837(4) 0.2783(3)
H3A H -0.1490 0.1557 0.2827
C6A C -0.0130(4) 0.1595(4) 0.2175(3)
C7A C 0.0839(5) 0.2038(4) 0.2089(4)
C8A C 0.1154(4) 0.2666(4) 0.2650(4)
H4A H 0.1815 0.2944 0.2599
N3A N 0.1449(8) 0.1943(7) 0.1411(7)
H5A H 0.1231 0.1607 0.1035
H6A H 0.2047 0.2220 0.1365
Mg1B Mg -0.2500 0.0000 0.10852(11)
Mg1B_2 Mg 0.7500 1.0000 0.10852(11)
Mg2G Mg 0.0000 0.0000 0.0000
Mg2A Mg -0.0000 0.5000 0.5000
Mg2B Mg 0.5000 1.0000 0.0000
O1B O 0.3679(3) 0.4509(2) 0.3229(2)
O1C O 0.1321(3) 0.5491(2) 0.3229(2)
O2B O 0.5039(3) 0.4136(2) 0.4048(2)
O2F O 0.4961(3) 0.5864(2) 0.5952(2)
O3D O 0.6617(3) 0.5135(2) 0.4964(2)
O5D O 0.5158(3) 0.3961(2) 0.5742(2)
loop_
_geom_bond_atom_site_label_1
_geom_bond_atom_site_label_2
_geom_bond_site_symmetry_1
_geom_bond_site_symmetry_2
Mg1 O3 1_555 1_555
Mg2 O3 1_555 1_555
O1 C1 1_555 1_555
C1 O2 1_555 1_555
O2 Mg2B 1_555 1_555
O3 N1 1_555 1_555
N1 O4 1_555 1_555
O5 Mg2 1_555 1_555
C2 O5 1_555 1_555
O6 Mg1 1_555 1_555
C3 C2 1_555 1_555
C4 C3 1_555 1_555
N2 C4 1_555 1_555
H1 N2 1_555 1_555
H2 N2 1_555 1_555
C5 C4 1_555 1_555
H3 C5 1_555 1_555
C6 C1 1_555 1_555
C7 C6 1_555 1_555
C8 C3 1_555 1_555
H4 C8 1_555 1_555
N3 C7 1_555 1_555
H5 N3 1_555 1_555
H6 N3 1_555 1_555
O3A Mg1 1_555 1_555
O1A C1A 1_555 1_555
C1A O2A 1_555 1_555
O2A Mg2G 1_555 1_555
O5A C2A 1_555 1_555
C2A O6A 1_555 1_555
O6A Mg1 1_555 1_555
C3A C2A 1_555 1_555
C4A C3A 1_555 1_555
N2A C4A 1_555 1_555
H1A N2A 1_555 1_555
H2A N2A 1_555 1_555
C5A C4A 1_555 1_555
H3A C5A 1_555 1_555
C6A C1A 1_555 1_555
C7A C6A 1_555 1_555
C8A C3A 1_555 1_555
H4A C8A 1_555 1_555
N3A C7A 1_555 1_555
H5A N3A 1_555 1_555
H6A N3A 1_555 1_555
Mg1B O1A 1_555 1_555
Mg1B_2 O1 1_555 1_555
Mg2A O3A 1_555 1_555
O1B Mg1 1_555 1_555
O1C Mg1 1_555 1_555
O2B Mg2 1_555 1_555
O2F Mg2 1_555 1_555
O3D Mg2 1_555 1_555
O5D Mg2 1_555 1_555
N1 O3A 1_555 1_555
C2 O6 1_555 1_555
C5 C6 1_555 1_555
C7 C8 1_555 1_555
O5A Mg2A 1_555 1_555
C5A C6A 1_555 1_555
C7A C8A 1_555 1_555

#END
