
#######################################################################
#
#                 Cambridge Crystallographic Data Centre
#                                CCDC 
#
#######################################################################
#
# If this CIF has been generated from an entry in the Cambridge 
# Structural Database, then it will include bibliographic, chemical, 
# crystal, experimental, refinement or atomic coordinate data resulting 
# from the CCDC's data processing and validation procedures.
#
#######################################################################

data_GUXPOF
_chemical_formula_moiety         '(C69 H76 Co4 N4 O21 S2)n'
_symmetry_cell_setting           triclinic
_symmetry_space_group_name_H-M   'P -1'
_symmetry_Int_Tables_number      2
_space_group_name_Hall           '-P 1'
loop_
_symmetry_equiv_pos_site_id
_symmetry_equiv_pos_as_xyz
1 x,y,z
2 -x,-y,-z
_cell_length_a                   9.5384(5)
_cell_length_b                   12.1759(6)
_cell_length_c                   19.3130(13)
_cell_angle_alpha                101.1520(10)
_cell_angle_beta                 100.3510(10)
_cell_angle_gamma                105.3040(10)
_cell_volume                     2058.54
loop_
_atom_site_label
_atom_site_type_symbol
_atom_site_fract_x
_atom_site_fract_y
_atom_site_fract_z
C1 C 0.7986(6) 0.7034(5) 0.7027(3)
H1 H 0.8471 0.7425 0.7528
H2 H 0.8705 0.6824 0.6781
H3 H 0.7198 0.6336 0.6998
C2 C 0.8639(6) 0.8971(4) 0.6744(3)
H4 H 0.8267 0.9544 0.6558
H5 H 0.9327 0.8763 0.6476
H6 H 0.9145 0.9297 0.7249
C3 C 0.6206(5) 0.8190(5) 0.7051(3)
H7 H 0.6700 0.8587 0.7550
H8 H 0.5427 0.7489 0.7029
H9 H 0.5778 0.8701 0.6823
Co1 Co 1.00406(4) 0.57730(3) 0.353389(19)
Co2 Co 1.0000 0.5000 0.5000
Co3 Co 1.5000 1.0000 1.0000
S1 S 1.13855(11) 0.87699(11) 0.10920(6)
O1 O 0.93775(19) 0.63118(16) 0.44838(10)
O2 O 0.7602(2) 0.5980(2) 0.35074(11)
O3 O 0.2259(2) 0.59804(18) 0.38929(10)
O4 O 0.21250(19) 0.57840(17) 0.50110(10)
O5 O 1.1223(2) 0.58604(17) 0.72034(11)
O6 O 1.0426(2) 0.59004(17) 0.60804(10)
O7 O 1.4772(2) 0.95646(18) 0.89135(10)
O8 O 1.5076(3) 1.12700(19) 0.86072(12)
O9 O 1.6080(3) 1.1784(2) 1.00621(13)
H10 H 1.5984 1.1886 0.9651
H11 H 1.6674 1.2357 1.0377
N1 N 1.0430(3) 0.6883(2) 0.28540(13)
N2 N 0.7143(3) 0.9643(2) 0.02276(14)
C4 C 0.6983(3) 0.6463(2) 0.46540(15)
C5 C 0.5445(3) 0.6163(2) 0.43517(15)
H17 H 0.5052 0.5836 0.3855
C6 C 0.4515(3) 0.6362(2) 0.48044(14)
C7 C 0.5126(3) 0.6897(2) 0.55453(15)
H18 H 0.4487 0.7020 0.5843
C8 C 0.6663(3) 0.7253(3) 0.58521(15)
C9 C 0.7575(3) 0.6995(2) 0.53921(15)
H19 H 0.8600 0.7185 0.5585
C10 C 0.8009(3) 0.6230(2) 0.41777(15)
C11 C 0.2840(3) 0.6006(2) 0.45416(14)
C12 C 0.7321(3) 0.7867(3) 0.66610(17)
C13 C 1.2132(3) 0.7679(2) 0.68725(14)
C14 C 1.2943(3) 0.8304(2) 0.75729(15)
H20 H 1.2980 0.7929 0.7949
C15 C 1.3699(3) 0.9497(2) 0.77067(15)
C16 C 1.3632(3) 1.0049(2) 0.71408(15)
H21 H 1.4106 1.0854 0.7239
C17 C 1.2867(3) 0.9421(2) 0.64267(15)
C18 C 1.2124(3) 0.8234(2) 0.63046(15)
H22 H 1.1608 0.7797 0.5834
C19 C 1.1235(3) 0.6420(2) 0.67149(15)
C20 C 1.4588(3) 1.0182(3) 0.84669(15)
C21 C 1.2826(4) 1.0057(3) 0.58129(17)
C22 C 1.1775(5) 1.0800(4) 0.5894(3)
H23 H 1.2156 1.1381 0.6352
H24 H 1.1711 1.1184 0.5505
H25 H 1.0797 1.0302 0.5876
C23 C 1.4386(5) 1.0873(4) 0.5864(2)
H26 H 1.5084 1.0431 0.5866
H27 H 1.4356 1.1209 0.5453
H28 H 1.4698 1.1491 0.6304
C24 C 1.2267(5) 0.9181(4) 0.50556(19)
H29 H 1.1258 0.8699 0.4999
H30 H 1.2291 0.9608 0.4687
H31 H 1.2903 0.8691 0.5009
C25 C 0.9354(4) 0.7203(3) 0.24800(19)
H32 H 0.8421 0.7020 0.2587
C26 C 0.9549(4) 0.7789(4) 0.1944(2)
H33 H 0.8766 0.8000 0.1702
C27 C 1.0923(3) 0.8058(3) 0.17702(18)
C28 C 1.2055(4) 0.7752(3) 0.2165(2)
H34 H 1.3001 0.7935 0.2071
C29 C 1.1777(3) 0.7182(3) 0.26916(19)
H35 H 1.2556 0.6990 0.2953
C30 C 0.9714(4) 0.9090(3) 0.07549(19)
C31 C 0.8549(5) 0.8288(4) 0.0215(3)
H36 H 0.8604 0.7546 0.0017
C32 C 0.7294(4) 0.8606(3) -0.0029(2)
H37 H 0.6513 0.8058 -0.0395
C33 C 0.8299(4) 1.0418(3) 0.0734(2)
H38 H 0.8231 1.1162 0.0917
C34 C 0.9593(4) 1.0177(4) 0.1003(2)
H39 H 1.0378 1.0753 0.1351
C1A C 1.2014(6) 0.2966(5) 0.2973(3)
H1A H 1.1529 0.2575 0.2472
H2A H 1.1295 0.3176 0.3219
H3A H 1.2802 0.3664 0.3002
C2A C 1.1361(6) 0.1029(4) 0.3256(3)
H4A H 1.1733 0.0456 0.3442
H5A H 1.0673 0.1237 0.3524
H6A H 1.0855 0.0703 0.2751
C3A C 1.3794(5) 0.1810(5) 0.2949(3)
H7A H 1.3300 0.1413 0.2450
H8A H 1.4573 0.2511 0.2971
H9A H 1.4222 0.1299 0.3177
Co1A Co 0.99594(4) 0.42270(3) 0.646611(19)
Co1_2 Co 0.00406(4) 0.57730(3) 0.353389(19)
Co1A_2 Co 1.99594(4) 0.42270(3) 0.646611(19)
Co1A_3 Co 0.99594(4) 1.42270(3) 0.646611(19)
Co2_2 Co 0.0000 0.5000 0.5000
Co2_3 Co 2.0000 0.5000 0.5000
Co3_2 Co 0.5000 1.0000 0.0000
Co3_3 Co 0.5000 0.0000 0.0000
S1A S 0.86145(11) 1.12301(11) 0.89080(6)
O1A O 1.06225(19) 0.36882(16) 0.55162(10)
O2A O 1.2398(2) 0.4020(2) 0.64926(11)
O3A O 1.7741(2) 0.40196(18) 0.61071(10)
O3_2 O 1.2259(2) 0.59804(18) 0.38929(10)
O3A_2 O 0.7741(2) 0.40196(18) 0.61071(10)
O4A O 1.78750(19) 0.42160(17) 0.49890(10)
O4_2 O 1.21250(19) 0.57840(17) 0.50110(10)
O4A_2 O 0.78750(19) 0.42160(17) 0.49890(10)
O5A O 0.8777(2) 0.41396(17) 0.27966(11)
O6A O 0.9574(2) 0.40996(17) 0.39196(10)
O7A O 0.5228(2) 0.04354(18) 0.10865(10)
O7A_2 O 1.5228(2) 1.04354(18) 1.10865(10)
O8A O 0.4924(3) -0.12700(19) 0.13928(12)
O9A O 1.3920(3) 0.8216(2) 0.99379(13)
H10A H 1.4016 0.8114 1.0349
H11A H 1.3326 0.7643 0.9623
N1A N 0.9570(3) 1.3117(2) 0.71460(13)
N1A_2 N 0.9570(3) 0.3117(2) 0.71460(13)
N2A N 1.2857(3) 1.0357(2) 0.97724(14)
N2_2 N 1.7143(3) 0.9643(2) 1.02276(14)
C4A C 1.3017(3) 0.3537(2) 0.53460(15)
C5A C 1.4555(3) 0.3837(2) 0.56483(15)
H17A H 1.4948 0.4164 0.6145
C6A C 1.5485(3) 0.3638(2) 0.51956(14)
C7A C 1.4874(3) 0.3103(2) 0.44547(15)
H18A H 1.5513 0.2980 0.4157
C8A C 1.3337(3) 0.2747(3) 0.41479(15)
C9A C 1.2425(3) 0.3005(2) 0.46079(15)
H19A H 1.1400 0.2815 0.4415
C10A C 1.1991(3) 0.3770(2) 0.58223(15)
C11A C 1.7160(3) 0.3994(2) 0.54584(14)
C12A C 1.2679(3) 0.2133(3) 0.33390(17)
C13A C 0.7868(3) 0.2321(2) 0.31275(14)
C14A C 0.7057(3) 0.1696(2) 0.24271(15)
H20A H 0.7020 0.2071 0.2051
C15A C 0.6301(3) 0.0503(2) 0.22933(15)
C16A C 0.6368(3) -0.0049(2) 0.28592(15)
H21A H 0.5894 -0.0854 0.2761
C17A C 0.7133(3) 0.0579(2) 0.35733(15)
C18A C 0.7876(3) 0.1766(2) 0.36954(15)
H22A H 0.8392 0.2203 0.4166
C19A C 0.8765(3) 0.3580(2) 0.32851(15)
C20A C 0.5412(3) -0.0182(3) 0.15331(15)
C21A C 0.7174(4) -0.0057(3) 0.41871(17)
C22A C 0.8225(5) -0.0800(4) 0.4106(3)
H23A H 0.7844 -0.1381 0.3648
H24A H 0.8289 -0.1184 0.4495
H25A H 0.9203 -0.0302 0.4124
C23A C 0.5614(5) -0.0873(4) 0.4136(2)
H26A H 0.4916 -0.0431 0.4134
H27A H 0.5644 -0.1209 0.4547
H28A H 0.5302 -0.1491 0.3696
C24A C 0.7733(5) 0.0819(4) 0.49444(19)
H29A H 0.8742 0.1301 0.5001
H30A H 0.7709 0.0392 0.5313
H31A H 0.7097 0.1309 0.4991
C25A C 1.0646(4) 1.2797(3) 0.75200(19)
H32A H 1.1579 1.2980 0.7413
C26A C 1.0451(4) 1.2211(4) 0.8056(2)
H33A H 1.1234 1.2000 0.8298
C27A C 0.9077(3) 1.1942(3) 0.82298(18)
C28A C 0.7945(4) 1.2248(3) 0.7835(2)
H34A H 0.6999 1.2065 0.7929
C29A C 0.8223(3) 1.2818(3) 0.73084(19)
H35A H 0.7444 1.3010 0.7047
C30A C 1.0286(4) 1.0910(3) 0.92451(19)
C31A C 1.1451(5) 1.1712(4) 0.9785(3)
H36A H 1.1396 1.2454 0.9983
C32A C 1.2706(4) 1.1394(3) 1.0029(2)
H37A H 1.3487 1.1942 1.0395
C33A C 1.1701(4) 0.9582(3) 0.9266(2)
H38A H 1.1769 0.8838 0.9083
C34A C 1.0407(4) 0.9823(4) 0.8997(2)
H39A H 0.9622 0.9247 0.8649
O10 O 0.8149(10) 0.3517(5) 0.1212(3)
H12 H 0.8212 0.3631 0.1650
C35 C 0.9553(16) 0.4275(11) 0.1083(7)
H40 H 0.9749 0.5078 0.1343
H41 H 0.9424 0.4225 0.0572
H42 H 1.0381 0.4007 0.1251
O11 O 0.5593(12) 0.6604(10) 0.1433(8)
H13 H 0.5385 0.7234 0.1407
O12 O 0.5042(14) 0.5366(19) 0.2048(9)
H15 H 0.5368 0.4901 0.1746
H16 H 0.5725 0.5514 0.2439
loop_
_geom_bond_atom_site_label_1
_geom_bond_atom_site_label_2
_geom_bond_site_symmetry_1
_geom_bond_site_symmetry_2
C1 H1 1_555 1_555
H2 C1 1_555 1_555
H3 C1 1_555 1_555
C2 H4 1_555 1_555
H5 C2 1_555 1_555
H6 C2 1_555 1_555
C3 H7 1_555 1_555
H8 C3 1_555 1_555
H9 C3 1_555 1_555
Co1 O1 1_555 1_555
Co2 O1 1_555 1_555
Co3 O7 1_555 1_555
S1 C27 1_555 1_555
O1 C10 1_555 1_555
O2 Co1 1_555 1_555
O3 C11 1_555 1_555
O4 C11 1_555 1_555
O5 C19 1_555 1_555
O6 Co2 1_555 1_555
O7 C20 1_555 1_555
O8 C20 1_555 1_555
O9 Co3 1_555 1_555
H10 O9 1_555 1_555
H11 O9 1_555 1_555
O10 H12 1_555 1_555
O11 H13 1_555 1_555
O12 H15 1_555 1_555
H16 O12 1_555 1_555
N1 Co1 1_555 1_555
N2 C32 1_555 1_555
C4 C5 1_555 1_555
C5 H17 1_555 1_555
C6 C5 1_555 1_555
C7 C6 1_555 1_555
H18 C7 1_555 1_555
C8 C7 1_555 1_555
C9 C4 1_555 1_555
H19 C9 1_555 1_555
C10 O2 1_555 1_555
C11 C6 1_555 1_555
C12 C1 1_555 1_555
C13 C14 1_555 1_555
C14 H20 1_555 1_555
C15 C14 1_555 1_555
C16 C15 1_555 1_555
H21 C16 1_555 1_555
C17 C16 1_555 1_555
C18 C13 1_555 1_555
H22 C18 1_555 1_555
C19 O6 1_555 1_555
C20 C15 1_555 1_555
C21 C17 1_555 1_555
C22 C21 1_555 1_555
H23 C22 1_555 1_555
H24 C22 1_555 1_555
H25 C22 1_555 1_555
C23 C21 1_555 1_555
H26 C23 1_555 1_555
H27 C23 1_555 1_555
H28 C23 1_555 1_555
C24 C21 1_555 1_555
H29 C24 1_555 1_555
H30 C24 1_555 1_555
H31 C24 1_555 1_555
C25 N1 1_555 1_555
H32 C25 1_555 1_555
C26 C25 1_555 1_555
H33 C26 1_555 1_555
C27 C26 1_555 1_555
C28 C27 1_555 1_555
H34 C28 1_555 1_555
C29 N1 1_555 1_555
H35 C29 1_555 1_555
C30 S1 1_555 1_555
C31 C30 1_555 1_555
H36 C31 1_555 1_555
C32 C31 1_555 1_555
H37 C32 1_555 1_555
C33 N2 1_555 1_555
H38 C33 1_555 1_555
C34 C30 1_555 1_555
H39 C34 1_555 1_555
C35 O10 1_555 1_555
H40 C35 1_555 1_555
H41 C35 1_555 1_555
H42 C35 1_555 1_555
C1A H1A 1_555 1_555
H2A C1A 1_555 1_555
H3A C1A 1_555 1_555
C2A H4A 1_555 1_555
H5A C2A 1_555 1_555
H6A C2A 1_555 1_555
C3A H7A 1_555 1_555
H8A C3A 1_555 1_555
H9A C3A 1_555 1_555
Co1A O5 1_555 1_555
Co1_2 O3 1_555 1_555
Co1A_2 O3A 1_555 1_555
Co1A_3 N1A 1_555 1_555
Co2_2 O4 1_555 1_555
Co2_3 O4A 1_555 1_555
Co3_2 N2 1_555 1_555
Co3_3 O7A 1_555 1_555
S1A C27A 1_555 1_555
O1A Co2 1_555 1_555
O2A Co1A 1_555 1_555
O3A C11A 1_555 1_555
O3_2 Co1 1_555 1_555
O3A_2 Co1A 1_555 1_555
O4A C11A 1_555 1_555
O4_2 Co2 1_555 1_555
O4A_2 Co2 1_555 1_555
O5A Co1 1_555 1_555
O6A Co1 1_555 1_555
O7A C20A 1_555 1_555
O7A_2 Co3 1_555 1_555
O8A C20A 1_555 1_555
O9A Co3 1_555 1_555
H10A O9A 1_555 1_555
H11A O9A 1_555 1_555
N1A C25A 1_555 1_555
N1A_2 Co1A 1_555 1_555
N2A Co3 1_555 1_555
N2_2 Co3 1_555 1_555
C4A C5A 1_555 1_555
C5A H17A 1_555 1_555
C6A C5A 1_555 1_555
C7A C6A 1_555 1_555
H18A C7A 1_555 1_555
C8A C7A 1_555 1_555
C9A C4A 1_555 1_555
H19A C9A 1_555 1_555
C10A O1A 1_555 1_555
C11A C6A 1_555 1_555
C12A C1A 1_555 1_555
C13A C14A 1_555 1_555
C14A H20A 1_555 1_555
C15A C14A 1_555 1_555
C16A C15A 1_555 1_555
H21A C16A 1_555 1_555
C17A C16A 1_555 1_555
C18A C13A 1_555 1_555
H22A C18A 1_555 1_555
C19A O5A 1_555 1_555
C20A C15A 1_555 1_555
C21A C17A 1_555 1_555
C22A C21A 1_555 1_555
H23A C22A 1_555 1_555
H24A C22A 1_555 1_555
H25A C22A 1_555 1_555
C23A C21A 1_555 1_555
H26A C23A 1_555 1_555
H27A C23A 1_555 1_555
H28A C23A 1_555 1_555
C24A C21A 1_555 1_555
H29A C24A 1_555 1_555
H30A C24A 1_555 1_555
H31A C24A 1_555 1_555
C25A H32A 1_555 1_555
C26A C25A 1_555 1_555
H33A C26A 1_555 1_555
C27A C26A 1_555 1_555
C28A C27A 1_555 1_555
H34A C28A 1_555 1_555
C29A N1A 1_555 1_555
H35A C29A 1_555 1_555
C30A S1A 1_555 1_555
C31A C30A 1_555 1_555
H36A C31A 1_555 1_555
C32A N2A 1_555 1_555
H37A C32A 1_555 1_555
C33A N2A 1_555 1_555
H38A C33A 1_555 1_555
C34A C30A 1_555 1_555
H39A C34A 1_555 1_555
C2 C12 1_555 1_555
C3 C12 1_555 1_555
Co2 O6A 1_555 1_555
O6 Co1A 1_555 1_555
C4 C10 1_555 1_555
C8 C9 1_555 1_555
C8 C12 1_555 1_555
C13 C19 1_555 1_555
C17 C18 1_555 1_555
C28 C29 1_555 1_555
C33 C34 1_555 1_555
C2A C12A 1_555 1_555
C3A C12A 1_555 1_555
Co1A O1A 1_555 1_555
O2A C10A 1_555 1_555
O6A C19A 1_555 1_555
C4A C10A 1_555 1_555
C8A C9A 1_555 1_555
C8A C12A 1_555 1_555
C13A C19A 1_555 1_555
C17A C18A 1_555 1_555
C28A C29A 1_555 1_555
C31A C32A 1_555 1_555
C33A C34A 1_555 1_555

#END
