
#######################################################################
#
#                 Cambridge Crystallographic Data Centre
#                                CCDC 
#
#######################################################################
#
# If this CIF has been generated from an entry in the Cambridge 
# Structural Database, then it will include bibliographic, chemical, 
# crystal, experimental, refinement or atomic coordinate data resulting 
# from the CCDC's data processing and validation procedures.
#
#######################################################################

data_IMUKUW
_chemical_formula_moiety         'C312 H228 N24 O37 Zn30'
_symmetry_cell_setting           cubic
_symmetry_space_group_name_H-M   'F d -3'
_symmetry_Int_Tables_number      203
_space_group_name_Hall           '-F 2uv 2vw 3'
loop_
_symmetry_equiv_pos_site_id
_symmetry_equiv_pos_as_xyz
1 x,y,z
2 1/4-x,1/4-y,z
3 1/4-x,y,1/4-z
4 x,1/4-y,1/4-z
5 z,x,y
6 z,1/4-x,1/4-y
7 1/4-z,1/4-x,y
8 1/4-z,x,1/4-y
9 y,z,x
10 1/4-y,z,1/4-x
11 y,1/4-z,1/4-x
12 1/4-y,1/4-z,x
13 x,1/2+y,1/2+z
14 z,1/2+x,1/2+y
15 y,1/2+z,1/2+x
16 1/2+x,y,1/2+z
17 1/2+z,x,1/2+y
18 1/2+y,z,1/2+x
19 1/2+x,1/2+y,z
20 1/2+z,1/2+x,y
21 1/2+y,1/2+z,x
22 1/4-x,3/4-y,1/2+z
23 1/4-x,1/2+y,3/4-z
24 x,3/4-y,3/4-z
25 z,3/4-x,3/4-y
26 1/4-z,3/4-x,1/2+y
27 1/4-z,1/2+x,3/4-y
28 1/4-y,1/2+z,3/4-x
29 y,3/4-z,3/4-x
30 1/4-y,3/4-z,1/2+x
31 3/4-x,1/4-y,1/2+z
32 3/4-x,y,3/4-z
33 1/2+x,1/4-y,3/4-z
34 1/2+z,1/4-x,3/4-y
35 3/4-z,1/4-x,1/2+y
36 3/4-z,x,3/4-y
37 3/4-y,z,3/4-x
38 1/2+y,1/4-z,3/4-x
39 3/4-y,1/4-z,1/2+x
40 3/4-x,3/4-y,z
41 3/4-x,1/2+y,1/4-z
42 1/2+x,3/4-y,1/4-z
43 1/2+z,3/4-x,1/4-y
44 3/4-z,3/4-x,y
45 3/4-z,1/2+x,1/4-y
46 3/4-y,1/2+z,1/4-x
47 1/2+y,3/4-z,1/4-x
48 3/4-y,3/4-z,x
49 -x,-y,-z
50 3/4+x,3/4+y,-z
51 3/4+x,-y,3/4+z
52 -x,3/4+y,3/4+z
53 -z,-x,-y
54 -z,3/4+x,3/4+y
55 3/4+z,3/4+x,-y
56 3/4+z,-x,3/4+y
57 -y,-z,-x
58 3/4+y,-z,3/4+x
59 -y,3/4+z,3/4+x
60 3/4+y,3/4+z,-x
61 -x,1/2-y,1/2-z
62 -z,1/2-x,1/2-y
63 -y,1/2-z,1/2-x
64 1/2-x,-y,1/2-z
65 1/2-z,-x,1/2-y
66 1/2-y,-z,1/2-x
67 1/2-x,1/2-y,-z
68 1/2-z,1/2-x,-y
69 1/2-y,1/2-z,-x
70 3/4+x,1/4+y,1/2-z
71 3/4+x,1/2-y,1/4+z
72 -x,1/4+y,1/4+z
73 -z,1/4+x,1/4+y
74 3/4+z,1/4+x,1/2-y
75 3/4+z,1/2-x,1/4+y
76 3/4+y,1/2-z,1/4+x
77 -y,1/4+z,1/4+x
78 3/4+y,1/4+z,1/2-x
79 1/4+x,3/4+y,1/2-z
80 1/4+x,-y,1/4+z
81 1/2-x,3/4+y,1/4+z
82 1/2-z,3/4+x,1/4+y
83 1/4+z,3/4+x,1/2-y
84 1/4+z,-x,1/4+y
85 1/4+y,-z,1/4+x
86 1/2-y,3/4+z,1/4+x
87 1/4+y,3/4+z,1/2-x
88 1/4+x,1/4+y,-z
89 1/4+x,1/2-y,3/4+z
90 1/2-x,1/4+y,3/4+z
91 1/2-z,1/4+x,3/4+y
92 1/4+z,1/4+x,-y
93 1/4+z,1/2-x,3/4+y
94 1/4+y,1/2-z,3/4+x
95 1/2-y,1/4+z,3/4+x
96 1/4+y,1/4+z,-x
_cell_length_a                   51.1237(12)
_cell_length_b                   51.1237(12)
_cell_length_c                   51.1237(12)
_cell_angle_alpha                90
_cell_angle_beta                 90
_cell_angle_gamma                90
_cell_volume                     133619
loop_
_atom_site_label
_atom_site_type_symbol
_atom_site_fract_x
_atom_site_fract_y
_atom_site_fract_z
_atom_site_U_iso_or_equiv
_atom_site_thermal_displace_type
O1 O 0.3750 0.8750 0.3750 0.0410 Uiso
Zn1 Zn 0.35328(6) 0.89672(6) 0.39672(6) 0.0510 Uiso
O2 O -0.1250 0.8750 0.3750 0.0700 Uiso
Zn2 Zn -0.10308(6) 0.85308(6) 0.35308(6) 0.0530 Uiso
Zn3 Zn 0.12515(12) 0.8707(3) 0.3676(2) 0.1240 Uiso
C1 C 0.19180(17) 0.8750 0.3750 0.2820 Uiso
N1 N 0.15345(16) 0.90295(13) 0.36333(9) 0.2820 Uiso
C2 C 0.18070(16) 0.89800(13) 0.36536(9) 0.2820 Uiso
C3 C 0.19420(15) 0.92041(14) 0.35608(11) 0.2820 Uiso
H1 H 0.2123 0.9224 0.3552 0.3390 Uiso
C4 C 0.17530(17) 0.93921(13) 0.34831(12) 0.2820 Uiso
H2 H 0.1788 0.9557 0.3415 0.3390 Uiso
C5 C 0.15012(16) 0.92842(14) 0.35280(10) 0.2820 Uiso
C6 C 0.12509(2) 0.93859(18) 0.34860(13) 0.2820 Uiso
N2 N 0.09672(16) 0.90283(15) 0.36341(11) 0.2820 Uiso
C7 C 0.10020(17) 0.92829(15) 0.35290(13) 0.2820 Uiso
C8 C 0.07508(18) 0.93922(14) 0.34841(14) 0.2820 Uiso
H3 H 0.0717 0.9557 0.3416 0.3390 Uiso
C9 C 0.05607(16) 0.92052(14) 0.35614(14) 0.2820 Uiso
H4 H 0.0380 0.9226 0.3553 0.3390 Uiso
C10 C 0.06945(16) 0.89803(13) 0.36542(12) 0.2820 Uiso
C11 C 0.05843(18) 0.8750 0.3750 0.2820 Uiso
C12 C 0.22105(14) 0.8750 0.3750 0.1100 Uiso
C13 C 0.23475(14) 0.8903(3) 0.3928(3) 0.1100 Uiso
H5 H 0.2257 0.9005 0.4048 0.1320 Uiso
C14 C 0.26193(14) 0.8902(3) 0.3927(3) 0.1100 Uiso
H6 H 0.2711 0.9004 0.4047 0.1320 Uiso
C15 C 0.27540(14) 0.87485(5) 0.37484(5) 0.1100 Uiso
C16 C 0.3048(2) 0.8750 0.3750 0.1100 Uiso
O3 O 0.31699(14) 0.8893(2) 0.3907(2) 0.1100 Uiso
C17 C 0.02908(15) 0.8750 0.3750 0.1550 Uiso
C18 C 0.01559(15) 0.8629(4) 0.3548(2) 0.1550 Uiso
H7 H 0.0247 0.8548 0.3413 0.1860 Uiso
C19 C -0.01159(15) 0.8628(4) 0.3547(2) 0.1550 Uiso
H8 H -0.0206 0.8547 0.3411 0.1860 Uiso
C20 C -0.02527(15) 0.87492(5) 0.37491(5) 0.1550 Uiso
C21 C -0.0547(2) 0.8750 0.3750 0.1550 Uiso
O4 O -0.06687(15) 0.8608(3) 0.3591(3) 0.1550 Uiso
C22 C 0.12508(3) 0.96565(19) 0.33741(16) 0.4900 Uiso
C23 C 0.12800(7) 0.9693(2) 0.31065(17) 0.4900 Uiso
C24 C 0.12800(7) 0.9944(2) 0.30028(19) 0.4900 Uiso
H9 H 0.1300 0.9969 0.2824 0.5900 Uiso
C25 C 0.12507(4) 1.0159(2) 0.3167(2) 0.4900 Uiso
C26 C 0.12215(8) 1.01224(19) 0.3435(2) 0.4900 Uiso
H10 H 0.1202 1.0266 0.3544 0.5900 Uiso
C27 C 0.12216(7) 0.9871(2) 0.35383(18) 0.4900 Uiso
C28 C 0.13117(14) 0.9460(2) 0.29282(16) 0.4900 Uiso
H11 H 0.1329 0.9519 0.2751 0.7370 Uiso
H12 H 0.1161 0.9349 0.2943 0.7370 Uiso
H13 H 0.1465 0.9364 0.2978 0.7370 Uiso
C29 C 0.12506(4) 1.0432(2) 0.3054(3) 0.4900 Uiso
H14 H 0.1272 1.0423 0.2868 0.7370 Uiso
H15 H 0.1392 1.0531 0.3129 0.7370 Uiso
H16 H 0.1087 1.0516 0.3094 0.7370 Uiso
C30 C 0.11899(14) 0.9832(2) 0.38291(18) 0.4900 Uiso
H17 H 0.1172 0.9998 0.3913 0.7370 Uiso
H18 H 0.1341 0.9743 0.3897 0.7370 Uiso
H19 H 0.1037 0.9728 0.3862 0.7370 Uiso
C10W C 0.06945(16) 0.85197(13) 0.38458(12) 0.2820 Uiso
N2W N 0.09672(16) 0.84717(15) 0.38659(11) 0.2820 Uiso
C7W C 0.10020(17) 0.82171(15) 0.39710(13) 0.2820 Uiso
C6W C 0.12509(2) 0.81141(18) 0.40140(13) 0.2820 Uiso
C5W C 0.15012(16) 0.82158(14) 0.39720(10) 0.2820 Uiso
N1W N 0.15345(16) 0.84705(13) 0.38667(9) 0.2820 Uiso
C2W C 0.18070(16) 0.85200(13) 0.38464(9) 0.2820 Uiso
C14W C 0.26193(14) 0.8598(3) 0.3573(3) 0.1100 Uiso
C13W C 0.23475(14) 0.8597(3) 0.3572(3) 0.1100 Uiso
H5W H 0.2257 0.8495 0.3452 0.1320 Uiso
H6W H 0.2711 0.8496 0.3453 0.1320 Uiso
O3W O 0.31699(14) 0.8607(2) 0.3593(2) 0.1100 Uiso
C3W C 0.19420(15) 0.82959(14) 0.39392(11) 0.2820 Uiso
H1W H 0.2123 0.8276 0.3948 0.3390 Uiso
C4W C 0.17530(17) 0.81079(13) 0.40169(12) 0.2820 Uiso
H2W H 0.1788 0.7943 0.4085 0.3390 Uiso
C22W C 0.12508(3) 0.78435(19) 0.41259(16) 0.4900 Uiso
C23W C 0.12800(7) 0.7807(2) 0.43935(17) 0.4900 Uiso
C24W C 0.12800(7) 0.7556(2) 0.44972(19) 0.4900 Uiso
H9W H 0.1300 0.7531 0.4676 0.5900 Uiso
C25W C 0.12507(4) 0.7341(2) 0.4333(2) 0.4900 Uiso
C26W C 0.12215(8) 0.73776(19) 0.4065(2) 0.4900 Uiso
H10W H 0.1202 0.7234 0.3956 0.5900 Uiso
C27W C 0.12216(7) 0.7629(2) 0.39617(18) 0.4900 Uiso
C30W C 0.11899(14) 0.7668(2) 0.36709(18) 0.4900 Uiso
H17W H 0.1172 0.7502 0.3587 0.7370 Uiso
H18W H 0.1341 0.7757 0.3603 0.7370 Uiso
H19W H 0.1037 0.7772 0.3638 0.7370 Uiso
C29W C 0.12506(4) 0.7068(2) 0.4446(3) 0.4900 Uiso
H14W H 0.1272 0.7077 0.4632 0.7370 Uiso
H15W H 0.1392 0.6969 0.4371 0.7370 Uiso
H16W H 0.1087 0.6984 0.4406 0.7370 Uiso
C28W C 0.13117(14) 0.8040(2) 0.45718(16) 0.4900 Uiso
H11W H 0.1329 0.7981 0.4749 0.7370 Uiso
H12W H 0.1161 0.8151 0.4557 0.7370 Uiso
H13W H 0.1465 0.8136 0.4522 0.7370 Uiso
C8W C 0.07508(18) 0.81078(14) 0.40159(14) 0.2820 Uiso
H3W H 0.0717 0.7943 0.4084 0.3390 Uiso
C9W C 0.05607(16) 0.82948(14) 0.39386(14) 0.2820 Uiso
H4W H 0.0380 0.8274 0.3947 0.3390 Uiso
C19W C -0.01159(15) 0.8872(4) 0.3953(2) 0.1550 Uiso
C18W C 0.01559(15) 0.8871(4) 0.3952(2) 0.1550 Uiso
H7W H 0.0247 0.8952 0.4087 0.1860 Uiso
H8W H -0.0206 0.8953 0.4089 0.1860 Uiso
O4W O -0.06687(15) 0.8892(3) 0.3909(3) 0.1550 Uiso
C1AA C 0.3750 0.8750 0.55820(17) 0.2820 Uiso
N1AA N 0.34705(13) 0.86333(9) 0.59655(16) 0.2820 Uiso
C2AA C 0.35200(13) 0.86536(9) 0.56930(16) 0.2820 Uiso
C3AA C 0.32959(14) 0.85608(11) 0.55580(15) 0.2820 Uiso
H1AA H 0.3276 0.8552 0.5377 0.3390 Uiso
C4AA C 0.31079(13) 0.84831(12) 0.57470(17) 0.2820 Uiso
H2AA H 0.2943 0.8415 0.5712 0.3390 Uiso
C5AA C 0.32158(14) 0.85280(10) 0.59988(16) 0.2820 Uiso
C6AA C 0.31141(18) 0.84860(13) 0.62491(2) 0.2820 Uiso
N2AA N 0.34717(15) 0.86341(11) 0.65328(16) 0.2820 Uiso
C7AA C 0.32171(15) 0.85290(13) 0.64980(17) 0.2820 Uiso
C8AA C 0.31078(14) 0.84841(14) 0.67492(18) 0.2820 Uiso
H3AA H 0.2943 0.8416 0.6783 0.3390 Uiso
C9AA C 0.32948(14) 0.85614(14) 0.69393(16) 0.2820 Uiso
H4AA H 0.3274 0.8553 0.7120 0.3390 Uiso
C10AA C 0.35197(13) 0.86542(12) 0.68055(16) 0.2820 Uiso
C11AA C 0.3750 0.8750 0.69157(18) 0.2820 Uiso
C12AA C 0.3750 0.8750 0.52895(14) 0.1100 Uiso
C13AA C 0.3597(3) 0.8928(3) 0.51525(14) 0.1100 Uiso
H5AA H 0.3495 0.9048 0.5243 0.1320 Uiso
C14AA C 0.3598(3) 0.8927(3) 0.48807(14) 0.1100 Uiso
H6AA H 0.3496 0.9047 0.4789 0.1320 Uiso
C15AA C 0.37515(5) 0.87484(5) 0.47460(14) 0.1100 Uiso
C16AA C 0.3750 0.8750 0.4452(2) 0.1100 Uiso
O3AA O 0.3607(2) 0.8907(2) 0.43301(14) 0.1100 Uiso
C17AA C 0.3750 0.8750 0.72092(15) 0.1550 Uiso
C18AA C 0.3871(4) 0.8548(2) 0.73441(15) 0.1550 Uiso
H7AA H 0.3952 0.8413 0.7253 0.1860 Uiso
C19AA C 0.3872(4) 0.8547(2) 0.76159(15) 0.1550 Uiso
H8AA H 0.3953 0.8411 0.7706 0.1860 Uiso
C20AA C 0.37508(5) 0.87491(5) 0.77527(15) 0.1550 Uiso
C21AA C 0.3750 0.8750 0.8047(2) 0.1550 Uiso
O4AA O 0.3892(3) 0.8591(3) 0.81687(15) 0.1550 Uiso
C22AA C 0.28435(19) 0.83741(16) 0.62492(3) 0.4900 Uiso
C23AA C 0.2807(2) 0.81065(17) 0.62200(7) 0.4900 Uiso
C24AA C 0.2556(2) 0.80028(19) 0.62200(7) 0.4900 Uiso
H9AA H 0.2531 0.7824 0.6200 0.5900 Uiso
C25AA C 0.2341(2) 0.8167(2) 0.62493(4) 0.4900 Uiso
C26AA C 0.23776(19) 0.8435(2) 0.62785(8) 0.4900 Uiso
H10AA H 0.2234 0.8544 0.6298 0.5900 Uiso
C27AA C 0.2629(2) 0.85383(18) 0.62784(7) 0.4900 Uiso
C28AA C 0.3040(2) 0.79282(16) 0.61883(14) 0.4900 Uiso
H11AA H 0.2981 0.7751 0.6171 0.7370 Uiso
H12AA H 0.3151 0.7943 0.6339 0.7370 Uiso
H13AA H 0.3136 0.7978 0.6035 0.7370 Uiso
C29AA C 0.2068(2) 0.8054(3) 0.62494(4) 0.4900 Uiso
H14AA H 0.2077 0.7868 0.6228 0.7370 Uiso
H15AA H 0.1969 0.8129 0.6108 0.7370 Uiso
H16AA H 0.1984 0.8094 0.6413 0.7370 Uiso
C30AA C 0.2668(2) 0.88291(18) 0.63101(14) 0.4900 Uiso
H17AA H 0.2502 0.8913 0.6328 0.7370 Uiso
H18AA H 0.2757 0.8897 0.6159 0.7370 Uiso
H19AA H 0.2772 0.8862 0.6463 0.7370 Uiso
C10KA C 0.39803(13) 0.88458(12) 0.68055(16) 0.2820 Uiso
N2KA N 0.40283(15) 0.88659(11) 0.65328(16) 0.2820 Uiso
C7KA C 0.42829(15) 0.89710(13) 0.64980(17) 0.2820 Uiso
C6KA C 0.43859(18) 0.90140(13) 0.62491(2) 0.2820 Uiso
C5KA C 0.42842(14) 0.89720(10) 0.59988(16) 0.2820 Uiso
N1KA N 0.40295(13) 0.88667(9) 0.59655(16) 0.2820 Uiso
C2KA C 0.39800(13) 0.88464(9) 0.56930(16) 0.2820 Uiso
C14KA C 0.3902(3) 0.8573(3) 0.48807(14) 0.1100 Uiso
C13KA C 0.3903(3) 0.8572(3) 0.51525(14) 0.1100 Uiso
H5KA H 0.4005 0.8452 0.5243 0.1320 Uiso
H6KA H 0.4004 0.8453 0.4789 0.1320 Uiso
O3KA O 0.3893(2) 0.8593(2) 0.43301(14) 0.1100 Uiso
C3KA C 0.42041(14) 0.89392(11) 0.55580(15) 0.2820 Uiso
H1KA H 0.4224 0.8948 0.5377 0.3390 Uiso
C4KA C 0.43921(13) 0.90169(12) 0.57470(17) 0.2820 Uiso
H2KA H 0.4557 0.9085 0.5712 0.3390 Uiso
C22KA C 0.46565(19) 0.91259(16) 0.62492(3) 0.4900 Uiso
C23KA C 0.4693(2) 0.93935(17) 0.62200(7) 0.4900 Uiso
C24KA C 0.4944(2) 0.94972(19) 0.62200(7) 0.4900 Uiso
H9KA H 0.4969 0.9676 0.6200 0.5900 Uiso
C25KA C 0.5159(2) 0.9333(2) 0.62493(4) 0.4900 Uiso
C26KA C 0.51224(19) 0.9065(2) 0.62785(8) 0.4900 Uiso
H10KA H 0.5266 0.8956 0.6298 0.5900 Uiso
C27KA C 0.4871(2) 0.89617(18) 0.62784(7) 0.4900 Uiso
C30KA C 0.4832(2) 0.86709(18) 0.63101(14) 0.4900 Uiso
H17KA H 0.4998 0.8587 0.6328 0.7370 Uiso
H18KA H 0.4743 0.8603 0.6159 0.7370 Uiso
H19KA H 0.4728 0.8638 0.6463 0.7370 Uiso
C29KA C 0.5432(2) 0.9446(3) 0.62494(4) 0.4900 Uiso
H14KA H 0.5423 0.9632 0.6228 0.7370 Uiso
H15KA H 0.5531 0.9371 0.6108 0.7370 Uiso
H16KA H 0.5516 0.9406 0.6413 0.7370 Uiso
C28KA C 0.4460(2) 0.95718(16) 0.61883(14) 0.4900 Uiso
H11KA H 0.4519 0.9749 0.6171 0.7370 Uiso
H12KA H 0.4349 0.9557 0.6339 0.7370 Uiso
H13KA H 0.4364 0.9522 0.6035 0.7370 Uiso
C8KA C 0.43922(14) 0.90159(14) 0.67492(18) 0.2820 Uiso
H3KA H 0.4557 0.9084 0.6783 0.3390 Uiso
C9KA C 0.42052(14) 0.89386(14) 0.69393(16) 0.2820 Uiso
H4KA H 0.4226 0.8947 0.7120 0.3390 Uiso
C19KA C 0.3628(4) 0.8953(2) 0.76159(15) 0.1550 Uiso
C18KA C 0.3629(4) 0.8952(2) 0.73441(15) 0.1550 Uiso
H7KA H 0.3548 0.9087 0.7253 0.1860 Uiso
H8KA H 0.3547 0.9089 0.7706 0.1860 Uiso
O4KA O 0.3608(3) 0.8909(3) 0.81687(15) 0.1550 Uiso
C1HA C 0.3750 1.05820(17) 0.3750 0.2820 Uiso
N1HA N 0.38667(9) 1.09655(16) 0.40295(13) 0.2820 Uiso
C2HA C 0.38464(9) 1.06930(16) 0.39800(13) 0.2820 Uiso
C3HA C 0.39392(11) 1.05580(15) 0.42041(14) 0.2820 Uiso
H1HA H 0.3948 1.0377 0.4224 0.3390 Uiso
C4HA C 0.40169(12) 1.07470(17) 0.43921(13) 0.2820 Uiso
H2HA H 0.4085 1.0712 0.4557 0.3390 Uiso
C5HA C 0.39720(10) 1.09988(16) 0.42842(14) 0.2820 Uiso
C6HA C 0.40140(13) 1.12491(2) 0.43859(18) 0.2820 Uiso
N2HA N 0.38659(11) 1.15328(16) 0.40283(15) 0.2820 Uiso
C7HA C 0.39710(13) 1.14980(17) 0.42829(15) 0.2820 Uiso
C8HA C 0.40159(14) 1.17492(18) 0.43922(14) 0.2820 Uiso
H3HA H 0.4084 1.1783 0.4557 0.3390 Uiso
C9HA C 0.39386(14) 1.19393(16) 0.42052(14) 0.2820 Uiso
H4HA H 0.3947 1.2120 0.4226 0.3390 Uiso
C10HA C 0.38458(12) 1.18055(16) 0.39803(13) 0.2820 Uiso
C11HA C 0.3750 1.19157(18) 0.3750 0.2820 Uiso
C12HA C 0.3750 1.02895(14) 0.3750 0.1100 Uiso
C13HA C 0.3572(3) 1.01525(14) 0.3903(3) 0.1100 Uiso
H5HA H 0.3452 1.0243 0.4005 0.1320 Uiso
C14HA C 0.3573(3) 0.98807(14) 0.3902(3) 0.1100 Uiso
H6HA H 0.3453 0.9789 0.4004 0.1320 Uiso
C15HA C 0.37516(5) 0.97460(14) 0.37485(5) 0.1100 Uiso
C16HA C 0.3750 0.9452(2) 0.3750 0.1100 Uiso
O3HA O 0.3593(2) 0.93301(14) 0.3893(2) 0.1100 Uiso
C17HA C 0.3750 1.22092(15) 0.3750 0.1550 Uiso
C18HA C 0.3952(2) 1.23441(15) 0.3629(4) 0.1550 Uiso
H7HA H 0.4087 1.2253 0.3548 0.1860 Uiso
C19HA C 0.3953(2) 1.26159(15) 0.3628(4) 0.1550 Uiso
H8HA H 0.4089 1.2706 0.3547 0.1860 Uiso
C20HA C 0.37509(5) 1.27527(15) 0.37492(5) 0.1550 Uiso
C21HA C 0.3750 1.3047(2) 0.3750 0.1550 Uiso
O4HA O 0.3909(3) 1.31687(15) 0.3608(3) 0.1550 Uiso
C22HA C 0.41259(16) 1.12492(3) 0.46565(19) 0.4900 Uiso
C23HA C 0.43935(17) 1.12200(7) 0.4693(2) 0.4900 Uiso
C24HA C 0.44972(19) 1.12200(7) 0.4944(2) 0.4900 Uiso
H9HA H 0.4676 1.1200 0.4969 0.5900 Uiso
C25HA C 0.4333(2) 1.12493(4) 0.5159(2) 0.4900 Uiso
C26HA C 0.4065(2) 1.12785(8) 0.51224(19) 0.4900 Uiso
H10HA H 0.3956 1.1298 0.5266 0.5900 Uiso
C27HA C 0.39617(18) 1.12784(7) 0.4871(2) 0.4900 Uiso
C28HA C 0.45718(16) 1.11883(14) 0.4460(2) 0.4900 Uiso
H11HA H 0.4749 1.1171 0.4519 0.7370 Uiso
H12HA H 0.4557 1.1339 0.4349 0.7370 Uiso
H13HA H 0.4522 1.1035 0.4364 0.7370 Uiso
C29HA C 0.4446(3) 1.12494(4) 0.5432(2) 0.4900 Uiso
H14HA H 0.4632 1.1228 0.5423 0.7370 Uiso
H15HA H 0.4371 1.1108 0.5531 0.7370 Uiso
H16HA H 0.4406 1.1413 0.5516 0.7370 Uiso
C30HA C 0.36709(18) 1.13101(14) 0.4832(2) 0.4900 Uiso
H17HA H 0.3587 1.1328 0.4998 0.7370 Uiso
H18HA H 0.3603 1.1159 0.4743 0.7370 Uiso
H19HA H 0.3638 1.1463 0.4728 0.7370 Uiso
C10E C 0.36542(12) 1.18055(16) 0.35197(13) 0.2820 Uiso
N2E N 0.36341(11) 1.15328(16) 0.34717(15) 0.2820 Uiso
C7E C 0.35290(13) 1.14980(17) 0.32171(15) 0.2820 Uiso
C6E C 0.34860(13) 1.12491(2) 0.31141(18) 0.2820 Uiso
C5E C 0.35280(10) 1.09988(16) 0.32158(14) 0.2820 Uiso
N1E N 0.36333(9) 1.09655(16) 0.34705(13) 0.2820 Uiso
C2E C 0.36536(9) 1.06930(16) 0.35200(13) 0.2820 Uiso
C14E C 0.3927(3) 0.98807(14) 0.3598(3) 0.1100 Uiso
C13E C 0.3928(3) 1.01525(14) 0.3597(3) 0.1100 Uiso
H5E H 0.4048 1.0243 0.3495 0.1320 Uiso
H6E H 0.4047 0.9789 0.3496 0.1320 Uiso
O3E O 0.3907(2) 0.93301(14) 0.3607(2) 0.1100 Uiso
C3E C 0.35608(11) 1.05580(15) 0.32959(14) 0.2820 Uiso
H1E H 0.3552 1.0377 0.3276 0.3390 Uiso
C4E C 0.34831(12) 1.07470(17) 0.31079(13) 0.2820 Uiso
H2E H 0.3415 1.0712 0.2943 0.3390 Uiso
C22E C 0.33741(16) 1.12492(3) 0.28435(19) 0.4900 Uiso
C23E C 0.31065(17) 1.12200(7) 0.2807(2) 0.4900 Uiso
C24E C 0.30028(19) 1.12200(7) 0.2556(2) 0.4900 Uiso
H9E H 0.2824 1.1200 0.2531 0.5900 Uiso
C25E C 0.3167(2) 1.12493(4) 0.2341(2) 0.4900 Uiso
C26E C 0.3435(2) 1.12785(8) 0.23776(19) 0.4900 Uiso
H10E H 0.3544 1.1298 0.2234 0.5900 Uiso
C27E C 0.35383(18) 1.12784(7) 0.2629(2) 0.4900 Uiso
C30E C 0.38291(18) 1.13101(14) 0.2668(2) 0.4900 Uiso
H17E H 0.3913 1.1328 0.2502 0.7370 Uiso
H18E H 0.3897 1.1159 0.2757 0.7370 Uiso
H19E H 0.3862 1.1463 0.2772 0.7370 Uiso
C29E C 0.3054(3) 1.12494(4) 0.2068(2) 0.4900 Uiso
H14E H 0.2868 1.1228 0.2077 0.7370 Uiso
H15E H 0.3129 1.1108 0.1969 0.7370 Uiso
H16E H 0.3094 1.1413 0.1984 0.7370 Uiso
C28E C 0.29282(16) 1.11883(14) 0.3040(2) 0.4900 Uiso
H11E H 0.2751 1.1171 0.2981 0.7370 Uiso
H12E H 0.2943 1.1339 0.3151 0.7370 Uiso
H13E H 0.2978 1.1035 0.3136 0.7370 Uiso
C8E C 0.34841(14) 1.17492(18) 0.31078(14) 0.2820 Uiso
H3E H 0.3416 1.1783 0.2943 0.3390 Uiso
C9E C 0.35614(14) 1.19393(16) 0.32948(14) 0.2820 Uiso
H4E H 0.3553 1.2120 0.3274 0.3390 Uiso
C19E C 0.3547(2) 1.26159(15) 0.3872(4) 0.1550 Uiso
C18E C 0.3548(2) 1.23441(15) 0.3871(4) 0.1550 Uiso
H7E H 0.3413 1.2253 0.3952 0.1860 Uiso
H8E H 0.3411 1.2706 0.3953 0.1860 Uiso
O4E O 0.3591(3) 1.31687(15) 0.3892(3) 0.1550 Uiso
Zn1K Zn 0.35328(6) 0.85328(6) 0.35328(6) 0.0510 Uiso
Zn1E Zn 0.39672(6) 0.89672(6) 0.35328(6) 0.0510 Uiso
Zn1M Zn 0.39672(6) 0.85328(6) 0.39672(6) 0.0510 Uiso
Zn2W Zn -0.10308(6) 0.89692(6) 0.39692(6) 0.0530 Uiso
Zn2AA Zn 0.39692(6) 0.85308(6) 0.85308(6) 0.0530 Uiso
Zn2KA Zn 0.35308(6) 0.89692(6) 0.85308(6) 0.0530 Uiso
Zn3W Zn 0.12515(12) 0.8793(3) 0.3824(2) 0.1240 Uiso
Zn3AA Zn 0.3793(3) 0.8676(2) 0.62485(12) 0.1240 Uiso
Zn3KA Zn 0.3707(3) 0.8824(2) 0.62485(12) 0.1240 Uiso
Zn3HA Zn 0.3824(2) 1.12485(12) 0.3707(3) 0.1240 Uiso
Zn3E Zn 0.3676(2) 1.12485(12) 0.3793(3) 0.1240 Uiso
C1Y C -0.1250 0.55820(17) 0.3750 0.2820 Uiso
N1Y N -0.11333(9) 0.59655(16) 0.40295(13) 0.2820 Uiso
C2Y C -0.11536(9) 0.56930(16) 0.39800(13) 0.2820 Uiso
C3Y C -0.10608(11) 0.55580(15) 0.42041(14) 0.2820 Uiso
H1Y H -0.1052 0.5377 0.4224 0.3390 Uiso
C4Y C -0.09831(12) 0.57470(17) 0.43921(13) 0.2820 Uiso
H2Y H -0.0915 0.5712 0.4557 0.3390 Uiso
C5Y C -0.10280(10) 0.59988(16) 0.42842(14) 0.2820 Uiso
C6Y C -0.09860(13) 0.62491(2) 0.43859(18) 0.2820 Uiso
N2Y N -0.11341(11) 0.65328(16) 0.40283(15) 0.2820 Uiso
C7Y C -0.10290(13) 0.64980(17) 0.42829(15) 0.2820 Uiso
C8Y C -0.09841(14) 0.67492(18) 0.43922(14) 0.2820 Uiso
H3Y H -0.0916 0.6783 0.4557 0.3390 Uiso
C9Y C -0.10614(14) 0.69393(16) 0.42052(14) 0.2820 Uiso
H4Y H -0.1053 0.7120 0.4226 0.3390 Uiso
C10Y C -0.11542(12) 0.68055(16) 0.39803(13) 0.2820 Uiso
C11Y C -0.1250 0.69157(18) 0.3750 0.2820 Uiso
C12Y C -0.1250 0.52895(14) 0.3750 0.1100 Uiso
C13Y C -0.1428(3) 0.51525(14) 0.3903(3) 0.1100 Uiso
H5Y H -0.1548 0.5243 0.4005 0.1320 Uiso
C14Y C -0.1427(3) 0.48807(14) 0.3902(3) 0.1100 Uiso
H6Y H -0.1547 0.4789 0.4004 0.1320 Uiso
C15Y C -0.12484(5) 0.47460(14) 0.37485(5) 0.1100 Uiso
C16Y C -0.1250 0.4452(2) 0.3750 0.1100 Uiso
O3Y O -0.1407(2) 0.43301(14) 0.3893(2) 0.1100 Uiso
C17Y C -0.1250 0.72092(15) 0.3750 0.1550 Uiso
C18Y C -0.1048(2) 0.73441(15) 0.3629(4) 0.1550 Uiso
H7Y H -0.0913 0.7253 0.3548 0.1860 Uiso
C19Y C -0.1047(2) 0.76159(15) 0.3628(4) 0.1550 Uiso
H8Y H -0.0911 0.7706 0.3547 0.1860 Uiso
C20Y C -0.12491(5) 0.77527(15) 0.37492(5) 0.1550 Uiso
C21Y C -0.1250 0.8047(2) 0.3750 0.1550 Uiso
O4Y O -0.1091(3) 0.81687(15) 0.3608(3) 0.1550 Uiso
C22Y C -0.08741(16) 0.62492(3) 0.46565(19) 0.4900 Uiso
C23Y C -0.06065(17) 0.62200(7) 0.4693(2) 0.4900 Uiso
C24Y C -0.05028(19) 0.62200(7) 0.4944(2) 0.4900 Uiso
H9Y H -0.0324 0.6200 0.4969 0.5900 Uiso
C25Y C -0.0667(2) 0.62493(4) 0.5159(2) 0.4900 Uiso
C26Y C -0.0935(2) 0.62785(8) 0.51224(19) 0.4900 Uiso
H10Y H -0.1044 0.6298 0.5266 0.5900 Uiso
C27Y C -0.10383(18) 0.62784(7) 0.4871(2) 0.4900 Uiso
C28Y C -0.04282(16) 0.61883(14) 0.4460(2) 0.4900 Uiso
H11Y H -0.0251 0.6171 0.4519 0.7370 Uiso
H12Y H -0.0443 0.6339 0.4349 0.7370 Uiso
H13Y H -0.0478 0.6035 0.4364 0.7370 Uiso
C29Y C -0.0554(3) 0.62494(4) 0.5432(2) 0.4900 Uiso
H14Y H -0.0368 0.6228 0.5423 0.7370 Uiso
H15Y H -0.0629 0.6108 0.5531 0.7370 Uiso
H16Y H -0.0594 0.6413 0.5516 0.7370 Uiso
C30Y C -0.13291(18) 0.63101(14) 0.4832(2) 0.4900 Uiso
H17Y H -0.1413 0.6328 0.4998 0.7370 Uiso
H18Y H -0.1397 0.6159 0.4743 0.7370 Uiso
H19Y H -0.1362 0.6463 0.4728 0.7370 Uiso
C10PA C -0.13458(12) 0.68055(16) 0.35197(13) 0.2820 Uiso
N2PA N -0.13659(11) 0.65328(16) 0.34717(15) 0.2820 Uiso
C7PA C -0.14710(13) 0.64980(17) 0.32171(15) 0.2820 Uiso
C6PA C -0.15140(13) 0.62491(2) 0.31141(18) 0.2820 Uiso
C5PA C -0.14720(10) 0.59988(16) 0.32158(14) 0.2820 Uiso
N1PA N -0.13667(9) 0.59655(16) 0.34705(13) 0.2820 Uiso
C2PA C -0.13464(9) 0.56930(16) 0.35200(13) 0.2820 Uiso
C14PA C -0.1073(3) 0.48807(14) 0.3598(3) 0.1100 Uiso
C13PA C -0.1072(3) 0.51525(14) 0.3597(3) 0.1100 Uiso
H5PA H -0.0952 0.5243 0.3495 0.1320 Uiso
H6PA H -0.0953 0.4789 0.3496 0.1320 Uiso
O3PA O -0.1093(2) 0.43301(14) 0.3607(2) 0.1100 Uiso
C3PA C -0.14392(11) 0.55580(15) 0.32959(14) 0.2820 Uiso
H1PA H -0.1448 0.5377 0.3276 0.3390 Uiso
C4PA C -0.15169(12) 0.57470(17) 0.31079(13) 0.2820 Uiso
H2PA H -0.1585 0.5712 0.2943 0.3390 Uiso
C22PA C -0.16259(16) 0.62492(3) 0.28435(19) 0.4900 Uiso
C23PA C -0.18935(17) 0.62200(7) 0.2807(2) 0.4900 Uiso
C24PA C -0.19972(19) 0.62200(7) 0.2556(2) 0.4900 Uiso
H9PA H -0.2176 0.6200 0.2531 0.5900 Uiso
C25PA C -0.1833(2) 0.62493(4) 0.2341(2) 0.4900 Uiso
C26PA C -0.1565(2) 0.62785(8) 0.23776(19) 0.4900 Uiso
H10PA H -0.1456 0.6298 0.2234 0.5900 Uiso
C27PA C -0.14617(18) 0.62784(7) 0.2629(2) 0.4900 Uiso
C30PA C -0.11709(18) 0.63101(14) 0.2668(2) 0.4900 Uiso
H17PA H -0.1087 0.6328 0.2502 0.7370 Uiso
H18PA H -0.1103 0.6159 0.2757 0.7370 Uiso
H19PA H -0.1138 0.6463 0.2772 0.7370 Uiso
C29PA C -0.1946(3) 0.62494(4) 0.2068(2) 0.4900 Uiso
H14PA H -0.2132 0.6228 0.2077 0.7370 Uiso
H15PA H -0.1871 0.6108 0.1969 0.7370 Uiso
H16PA H -0.1906 0.6413 0.1984 0.7370 Uiso
C28PA C -0.20718(16) 0.61883(14) 0.3040(2) 0.4900 Uiso
H11PA H -0.2249 0.6171 0.2981 0.7370 Uiso
H12PA H -0.2057 0.6339 0.3151 0.7370 Uiso
H13PA H -0.2022 0.6035 0.3136 0.7370 Uiso
C8PA C -0.15159(14) 0.67492(18) 0.31078(14) 0.2820 Uiso
H3PA H -0.1584 0.6783 0.2943 0.3390 Uiso
C9PA C -0.14386(14) 0.69393(16) 0.32948(14) 0.2820 Uiso
H4PA H -0.1447 0.7120 0.3274 0.3390 Uiso
C19PA C -0.1453(2) 0.76159(15) 0.3872(4) 0.1550 Uiso
C18PA C -0.1452(2) 0.73441(15) 0.3871(4) 0.1550 Uiso
H7PA H -0.1587 0.7253 0.3952 0.1860 Uiso
H8PA H -0.1589 0.7706 0.3953 0.1860 Uiso
O4PA O -0.1409(3) 0.81687(15) 0.3892(3) 0.1550 Uiso
C1SA C -0.1250 0.8750 0.05820(17) 0.2820 Uiso
N1SA N -0.15295(13) 0.86333(9) 0.09655(16) 0.2820 Uiso
C2SA C -0.14800(13) 0.86536(9) 0.06930(16) 0.2820 Uiso
C3SA C -0.17041(14) 0.85608(11) 0.05580(15) 0.2820 Uiso
H1SA H -0.1724 0.8552 0.0377 0.3390 Uiso
C4SA C -0.18921(13) 0.84831(12) 0.07470(17) 0.2820 Uiso
H2SA H -0.2057 0.8415 0.0712 0.3390 Uiso
C5SA C -0.17842(14) 0.85280(10) 0.09988(16) 0.2820 Uiso
C6SA C -0.18859(18) 0.84860(13) 0.12491(2) 0.2820 Uiso
N2SA N -0.15283(15) 0.86341(11) 0.15328(16) 0.2820 Uiso
C7SA C -0.17829(15) 0.85290(13) 0.14980(17) 0.2820 Uiso
C8SA C -0.18922(14) 0.84841(14) 0.17492(18) 0.2820 Uiso
H3SA H -0.2057 0.8416 0.1783 0.3390 Uiso
C9SA C -0.17052(14) 0.85614(14) 0.19393(16) 0.2820 Uiso
H4SA H -0.1726 0.8553 0.2120 0.3390 Uiso
C10SA C -0.14803(13) 0.86542(12) 0.18055(16) 0.2820 Uiso
C11SA C -0.1250 0.8750 0.19157(18) 0.2820 Uiso
C12SA C -0.1250 0.8750 0.02895(14) 0.1100 Uiso
C13SA C -0.1403(3) 0.8928(3) 0.01525(14) 0.1100 Uiso
H5SA H -0.1505 0.9048 0.0243 0.1320 Uiso
C14SA C -0.1402(3) 0.8927(3) -0.01193(14) 0.1100 Uiso
H6SA H -0.1504 0.9047 -0.0211 0.1320 Uiso
C15SA C -0.12485(5) 0.87484(5) -0.02540(14) 0.1100 Uiso
C16SA C -0.1250 0.8750 -0.0548(2) 0.1100 Uiso
O3SA O -0.1393(2) 0.8907(2) -0.06699(14) 0.1100 Uiso
C17SA C -0.1250 0.8750 0.22092(15) 0.1550 Uiso
C18SA C -0.1129(4) 0.8548(2) 0.23441(15) 0.1550 Uiso
H7SA H -0.1048 0.8413 0.2253 0.1860 Uiso
C19SA C -0.1128(4) 0.8547(2) 0.26159(15) 0.1550 Uiso
H8SA H -0.1047 0.8411 0.2706 0.1860 Uiso
C20SA C -0.12492(5) 0.87491(5) 0.27527(15) 0.1550 Uiso
C21SA C -0.1250 0.8750 0.3047(2) 0.1550 Uiso
O4SA O -0.1108(3) 0.8591(3) 0.31687(15) 0.1550 Uiso
C22SA C -0.21565(19) 0.83741(16) 0.12492(3) 0.4900 Uiso
C23SA C -0.2193(2) 0.81065(17) 0.12200(7) 0.4900 Uiso
C24SA C -0.2444(2) 0.80028(19) 0.12200(7) 0.4900 Uiso
H9SA H -0.2469 0.7824 0.1200 0.5900 Uiso
C25SA C -0.2659(2) 0.8167(2) 0.12493(4) 0.4900 Uiso
C26SA C -0.26224(19) 0.8435(2) 0.12785(8) 0.4900 Uiso
H10SA H -0.2766 0.8544 0.1298 0.5900 Uiso
C27SA C -0.2371(2) 0.85383(18) 0.12784(7) 0.4900 Uiso
C28SA C -0.1960(2) 0.79282(16) 0.11883(14) 0.4900 Uiso
H11SA H -0.2019 0.7751 0.1171 0.7370 Uiso
H12SA H -0.1849 0.7943 0.1339 0.7370 Uiso
H13SA H -0.1864 0.7978 0.1035 0.7370 Uiso
C29SA C -0.2932(2) 0.8054(3) 0.12494(4) 0.4900 Uiso
H14SA H -0.2923 0.7868 0.1228 0.7370 Uiso
H15SA H -0.3031 0.8129 0.1108 0.7370 Uiso
H16SA H -0.3016 0.8094 0.1413 0.7370 Uiso
C30SA C -0.2332(2) 0.88291(18) 0.13101(14) 0.4900 Uiso
H17SA H -0.2498 0.8913 0.1328 0.7370 Uiso
H18SA H -0.2243 0.8897 0.1159 0.7370 Uiso
H19SA H -0.2228 0.8862 0.1463 0.7370 Uiso
C10J C -0.10197(13) 0.88458(12) 0.18055(16) 0.2820 Uiso
N2J N -0.09717(15) 0.88659(11) 0.15328(16) 0.2820 Uiso
C7J C -0.07171(15) 0.89710(13) 0.14980(17) 0.2820 Uiso
C6J C -0.06141(18) 0.90140(13) 0.12491(2) 0.2820 Uiso
C5J C -0.07158(14) 0.89720(10) 0.09988(16) 0.2820 Uiso
N1J N -0.09705(13) 0.88667(9) 0.09655(16) 0.2820 Uiso
C2J C -0.10200(13) 0.88464(9) 0.06930(16) 0.2820 Uiso
C14J C -0.1098(3) 0.8573(3) -0.01193(14) 0.1100 Uiso
C13J C -0.1097(3) 0.8572(3) 0.01525(14) 0.1100 Uiso
H5J H -0.0995 0.8452 0.0243 0.1320 Uiso
H6J H -0.0996 0.8453 -0.0211 0.1320 Uiso
O3J O -0.1107(2) 0.8593(2) -0.06699(14) 0.1100 Uiso
C3J C -0.07959(14) 0.89392(11) 0.05580(15) 0.2820 Uiso
H1J H -0.0776 0.8948 0.0377 0.3390 Uiso
C4J C -0.06079(13) 0.90169(12) 0.07470(17) 0.2820 Uiso
H2J H -0.0443 0.9085 0.0712 0.3390 Uiso
C22J C -0.03435(19) 0.91259(16) 0.12492(3) 0.4900 Uiso
C23J C -0.0307(2) 0.93935(17) 0.12200(7) 0.4900 Uiso
C24J C -0.0056(2) 0.94972(19) 0.12200(7) 0.4900 Uiso
H9J H -0.0031 0.9676 0.1200 0.5900 Uiso
C25J C 0.0159(2) 0.9333(2) 0.12493(4) 0.4900 Uiso
C26J C 0.01224(19) 0.9065(2) 0.12785(8) 0.4900 Uiso
H10J H 0.0266 0.8956 0.1298 0.5900 Uiso
C27J C -0.0129(2) 0.89617(18) 0.12784(7) 0.4900 Uiso
C30J C -0.0168(2) 0.86709(18) 0.13101(14) 0.4900 Uiso
H17J H -0.0002 0.8587 0.1328 0.7370 Uiso
H18J H -0.0257 0.8603 0.1159 0.7370 Uiso
H19J H -0.0272 0.8638 0.1463 0.7370 Uiso
C29J C 0.0432(2) 0.9446(3) 0.12494(4) 0.4900 Uiso
H14J H 0.0423 0.9632 0.1228 0.7370 Uiso
H15J H 0.0531 0.9371 0.1108 0.7370 Uiso
H16J H 0.0516 0.9406 0.1413 0.7370 Uiso
C28J C -0.0540(2) 0.95718(16) 0.11883(14) 0.4900 Uiso
H11J H -0.0481 0.9749 0.1171 0.7370 Uiso
H12J H -0.0651 0.9557 0.1339 0.7370 Uiso
H13J H -0.0636 0.9522 0.1035 0.7370 Uiso
C8J C -0.06078(14) 0.90159(14) 0.17492(18) 0.2820 Uiso
H3J H -0.0443 0.9084 0.1783 0.3390 Uiso
C9J C -0.07948(14) 0.89386(14) 0.19393(16) 0.2820 Uiso
H4J H -0.0774 0.8947 0.2120 0.3390 Uiso
C19J C -0.1372(4) 0.8953(2) 0.26159(15) 0.1550 Uiso
C18J C -0.1371(4) 0.8952(2) 0.23441(15) 0.1550 Uiso
H7J H -0.1452 0.9087 0.2253 0.1860 Uiso
H8J H -0.1453 0.9089 0.2706 0.1860 Uiso
O4J O -0.1392(3) 0.8909(3) 0.31687(15) 0.1550 Uiso
C1K C 0.3750 0.8750 0.19180(17) 0.2820 Uiso
N1K N 0.34705(13) 0.88667(9) 0.15345(16) 0.2820 Uiso
C2K C 0.35200(13) 0.88464(9) 0.18070(16) 0.2820 Uiso
C3K C 0.32959(14) 0.89392(11) 0.19420(15) 0.2820 Uiso
H1K H 0.3276 0.8948 0.2123 0.3390 Uiso
C4K C 0.31079(13) 0.90169(12) 0.17530(17) 0.2820 Uiso
H2K H 0.2943 0.9085 0.1788 0.3390 Uiso
C5K C 0.32158(14) 0.89720(10) 0.15012(16) 0.2820 Uiso
C6K C 0.31141(18) 0.90140(13) 0.12509(2) 0.2820 Uiso
N2K N 0.34717(15) 0.88659(11) 0.09672(16) 0.2820 Uiso
C7K C 0.32171(15) 0.89710(13) 0.10020(17) 0.2820 Uiso
C8K C 0.31078(14) 0.90159(14) 0.07508(18) 0.2820 Uiso
H3K H 0.2943 0.9084 0.0717 0.3390 Uiso
C9K C 0.32948(14) 0.89386(14) 0.05607(16) 0.2820 Uiso
H4K H 0.3274 0.8947 0.0380 0.3390 Uiso
C10K C 0.35197(13) 0.88458(12) 0.06945(16) 0.2820 Uiso
C11K C 0.3750 0.8750 0.05843(18) 0.2820 Uiso
C12K C 0.3750 0.8750 0.22105(14) 0.1100 Uiso
C13K C 0.3597(3) 0.8572(3) 0.23475(14) 0.1100 Uiso
H5K H 0.3495 0.8452 0.2257 0.1320 Uiso
C14K C 0.3598(3) 0.8573(3) 0.26193(14) 0.1100 Uiso
H6K H 0.3496 0.8453 0.2711 0.1320 Uiso
C15K C 0.37515(5) 0.87516(5) 0.27540(14) 0.1100 Uiso
C16K C 0.3750 0.8750 0.3048(2) 0.1100 Uiso
O3K O 0.3607(2) 0.8593(2) 0.31699(14) 0.1100 Uiso
C17K C 0.3750 0.8750 0.02908(15) 0.1550 Uiso
C18K C 0.3871(4) 0.8952(2) 0.01559(15) 0.1550 Uiso
H7K H 0.3952 0.9087 0.0247 0.1860 Uiso
C19K C 0.3872(4) 0.8953(2) -0.01159(15) 0.1550 Uiso
H8K H 0.3953 0.9089 -0.0206 0.1860 Uiso
C20K C 0.37508(5) 0.87509(5) -0.02527(15) 0.1550 Uiso
C21K C 0.3750 0.8750 -0.0547(2) 0.1550 Uiso
O4K O 0.3892(3) 0.8909(3) -0.06687(15) 0.1550 Uiso
C22K C 0.28435(19) 0.91259(16) 0.12508(3) 0.4900 Uiso
C23K C 0.2807(2) 0.93935(17) 0.12800(7) 0.4900 Uiso
C24K C 0.2556(2) 0.94972(19) 0.12800(7) 0.4900 Uiso
H9K H 0.2531 0.9676 0.1300 0.5900 Uiso
C25K C 0.2341(2) 0.9333(2) 0.12507(4) 0.4900 Uiso
C26K C 0.23776(19) 0.9065(2) 0.12215(8) 0.4900 Uiso
H10K H 0.2234 0.8956 0.1202 0.5900 Uiso
C27K C 0.2629(2) 0.89617(18) 0.12216(7) 0.4900 Uiso
C28K C 0.3040(2) 0.95718(16) 0.13117(14) 0.4900 Uiso
H11K H 0.2981 0.9749 0.1329 0.7370 Uiso
H12K H 0.3151 0.9557 0.1161 0.7370 Uiso
H13K H 0.3136 0.9522 0.1465 0.7370 Uiso
C29K C 0.2068(2) 0.9446(3) 0.12506(4) 0.4900 Uiso
H14K H 0.2077 0.9632 0.1272 0.7370 Uiso
H15K H 0.1969 0.9371 0.1392 0.7370 Uiso
H16K H 0.1984 0.9406 0.1087 0.7370 Uiso
C30K C 0.2668(2) 0.86709(18) 0.11899(14) 0.4900 Uiso
H17K H 0.2502 0.8587 0.1172 0.7370 Uiso
H18K H 0.2757 0.8603 0.1341 0.7370 Uiso
H19K H 0.2772 0.8638 0.1037 0.7370 Uiso
C10T C 0.39803(13) 0.86542(12) 0.06945(16) 0.2820 Uiso
N2T N 0.40283(15) 0.86341(11) 0.09672(16) 0.2820 Uiso
C7T C 0.42829(15) 0.85290(13) 0.10020(17) 0.2820 Uiso
C6T C 0.43859(18) 0.84860(13) 0.12509(2) 0.2820 Uiso
C5T C 0.42842(14) 0.85280(10) 0.15012(16) 0.2820 Uiso
N1T N 0.40295(13) 0.86333(9) 0.15345(16) 0.2820 Uiso
C2T C 0.39800(13) 0.86536(9) 0.18070(16) 0.2820 Uiso
C14T C 0.3902(3) 0.8927(3) 0.26193(14) 0.1100 Uiso
C13T C 0.3903(3) 0.8928(3) 0.23475(14) 0.1100 Uiso
H5T H 0.4005 0.9048 0.2257 0.1320 Uiso
H6T H 0.4004 0.9047 0.2711 0.1320 Uiso
O3T O 0.3893(2) 0.8907(2) 0.31699(14) 0.1100 Uiso
C3T C 0.42041(14) 0.85608(11) 0.19420(15) 0.2820 Uiso
H1T H 0.4224 0.8552 0.2123 0.3390 Uiso
C4T C 0.43921(13) 0.84831(12) 0.17530(17) 0.2820 Uiso
H2T H 0.4557 0.8415 0.1788 0.3390 Uiso
C22T C 0.46565(19) 0.83741(16) 0.12508(3) 0.4900 Uiso
C23T C 0.4693(2) 0.81065(17) 0.12800(7) 0.4900 Uiso
C24T C 0.4944(2) 0.80028(19) 0.12800(7) 0.4900 Uiso
H9T H 0.4969 0.7824 0.1300 0.5900 Uiso
C25T C 0.5159(2) 0.8167(2) 0.12507(4) 0.4900 Uiso
C26T C 0.51224(19) 0.8435(2) 0.12215(8) 0.4900 Uiso
H10T H 0.5266 0.8544 0.1202 0.5900 Uiso
C27T C 0.4871(2) 0.85383(18) 0.12216(7) 0.4900 Uiso
C30T C 0.4832(2) 0.88291(18) 0.11899(14) 0.4900 Uiso
H17T H 0.4998 0.8913 0.1172 0.7370 Uiso
H18T H 0.4743 0.8897 0.1341 0.7370 Uiso
H19T H 0.4728 0.8862 0.1037 0.7370 Uiso
C29T C 0.5432(2) 0.8054(3) 0.12506(4) 0.4900 Uiso
H14T H 0.5423 0.7868 0.1272 0.7370 Uiso
H15T H 0.5531 0.8129 0.1392 0.7370 Uiso
H16T H 0.5516 0.8094 0.1087 0.7370 Uiso
C28T C 0.4460(2) 0.79282(16) 0.13117(14) 0.4900 Uiso
H11T H 0.4519 0.7751 0.1329 0.7370 Uiso
H12T H 0.4349 0.7943 0.1161 0.7370 Uiso
H13T H 0.4364 0.7978 0.1465 0.7370 Uiso
C8T C 0.43922(14) 0.84841(14) 0.07508(18) 0.2820 Uiso
H3T H 0.4557 0.8416 0.0717 0.3390 Uiso
C9T C 0.42052(14) 0.85614(14) 0.05607(16) 0.2820 Uiso
H4T H 0.4226 0.8553 0.0380 0.3390 Uiso
C19T C 0.3628(4) 0.8547(2) -0.01159(15) 0.1550 Uiso
C18T C 0.3629(4) 0.8548(2) 0.01559(15) 0.1550 Uiso
H7T H 0.3548 0.8413 0.0247 0.1860 Uiso
H8T H 0.3547 0.8411 -0.0206 0.1860 Uiso
O4T O 0.3608(3) 0.8591(3) -0.06687(15) 0.1550 Uiso
Zn3Y Zn -0.1176(2) 0.62485(12) 0.3707(3) 0.1240 Uiso
Zn3PA Zn -0.1324(2) 0.62485(12) 0.3793(3) 0.1240 Uiso
Zn3SA Zn -0.1207(3) 0.8676(2) 0.12485(12) 0.1240 Uiso
Zn3J Zn -0.1293(3) 0.8824(2) 0.12485(12) 0.1240 Uiso
Zn3K Zn 0.3793(3) 0.8824(2) 0.12515(12) 0.1240 Uiso
Zn3T Zn 0.3707(3) 0.8676(2) 0.12515(12) 0.1240 Uiso
Zn2J Zn -0.14692(6) 0.89692(6) 0.35308(6) 0.0530 Uiso
Zn2N Zn -0.14692(6) 0.85308(6) 0.39692(6) 0.0530 Uiso
Zn2I Zn 0.39692(6) 1.35308(6) 0.35308(6) 0.0530 Uiso
Zn2E Zn 0.35308(6) 1.35308(6) 0.39692(6) 0.0530 Uiso
O3RA O 0.3593(2) 0.81699(14) 0.3607(2) 0.1100 Uiso
O3EA O 0.43301(14) 0.8893(2) 0.3593(2) 0.1100 Uiso
O3M O 0.3907(2) 0.81699(14) 0.3893(2) 0.1100 Uiso
O3MA O 0.43301(14) 0.8607(2) 0.3907(2) 0.1100 Uiso
O4G O -0.1091(3) 0.93313(15) 0.3892(3) 0.1550 Uiso
O4LA O -0.1108(3) 0.8909(3) 0.43313(15) 0.1550 Uiso
O2B O 0.3750 0.8750 0.8750 0.0700 Uiso
O4O O 0.43313(15) 0.8608(3) 0.8591(3) 0.1550 Uiso
O4QA O 0.3909(3) 0.81687(15) 0.8608(3) 0.1550 Uiso
O4D O 0.3591(3) 0.93313(15) 0.8608(3) 0.1550 Uiso
O4U O 0.31687(15) 0.8892(3) 0.8591(3) 0.1550 Uiso
Zn1R Zn -0.14672(6) 0.39672(6) 0.39672(6) 0.0510 Uiso
Zn1H Zn -0.10328(6) 0.39672(6) 0.35328(6) 0.0510 Uiso
Zn1F Zn -0.14672(6) 0.89672(6) -0.10328(6) 0.0510 Uiso
Zn1J Zn -0.10328(6) 0.85328(6) -0.10328(6) 0.0510 Uiso
Zn2K Zn 0.39692(6) 0.89692(6) -0.10308(6) 0.0530 Uiso
Zn2B Zn 0.35308(6) 0.85308(6) -0.10308(6) 0.0530 Uiso
loop_
_geom_bond_atom_site_label_1
_geom_bond_atom_site_label_2
_geom_bond_site_symmetry_1
_geom_bond_site_symmetry_2
O1 Zn1 1_555 1_555
Zn1 O3 1_555 1_555
O2 Zn2 1_555 1_555
Zn2 O4 1_555 1_555
Zn3 N1 1_555 1_555
C1 C2 1_555 1_555
N1 C2 1_555 1_555
C2 C3 1_555 1_555
C3 H1 1_555 1_555
C4 C3 1_555 1_555
H2 C4 1_555 1_555
C5 N1 1_555 1_555
C6 C5 1_555 1_555
N2 Zn3 1_555 1_555
C7 C6 1_555 1_555
C8 C7 1_555 1_555
H3 C8 1_555 1_555
C9 C8 1_555 1_555
H4 C9 1_555 1_555
C10 N2 1_555 1_555
C11 C10 1_555 1_555
C12 C1 1_555 1_555
C13 C12 1_555 1_555
H5 C13 1_555 1_555
C14 C13 1_555 1_555
H6 C14 1_555 1_555
C15 C14 1_555 1_555
C16 C15 1_555 1_555
O3 C16 1_555 1_555
C17 C11 1_555 1_555
C18 C17 1_555 1_555
H7 C18 1_555 1_555
C19 C18 1_555 1_555
H8 C19 1_555 1_555
C20 C19 1_555 1_555
C21 C20 1_555 1_555
O4 C21 1_555 1_555
C22 C6 1_555 1_555
C23 C22 1_555 1_555
C24 C23 1_555 1_555
H9 C24 1_555 1_555
C25 C24 1_555 1_555
C26 C25 1_555 1_555
H10 C26 1_555 1_555
C27 C22 1_555 1_555
C28 C23 1_555 1_555
H11 C28 1_555 1_555
H12 C28 1_555 1_555
H13 C28 1_555 1_555
C29 C25 1_555 1_555
H14 C29 1_555 1_555
H15 C29 1_555 1_555
H16 C29 1_555 1_555
C30 C27 1_555 1_555
H17 C30 1_555 1_555
H18 C30 1_555 1_555
H19 C30 1_555 1_555
C10W C11 1_555 1_555
N2W Zn3 1_555 1_555
C7W N2W 1_555 1_555
C6W C7W 1_555 1_555
C5W C6W 1_555 1_555
N1W Zn3 1_555 1_555
C2W C1 1_555 1_555
C14W C15 1_555 1_555
C13W C12 1_555 1_555
H5W C13W 1_555 1_555
H6W C14W 1_555 1_555
O3W C16 1_555 1_555
C3W C2W 1_555 1_555
H1W C3W 1_555 1_555
C4W C5W 1_555 1_555
H2W C4W 1_555 1_555
C22W C6W 1_555 1_555
C23W C22W 1_555 1_555
C24W C23W 1_555 1_555
H9W C24W 1_555 1_555
C25W C24W 1_555 1_555
C26W C25W 1_555 1_555
H10W C26W 1_555 1_555
C27W C22W 1_555 1_555
C30W C27W 1_555 1_555
H17W C30W 1_555 1_555
H18W C30W 1_555 1_555
H19W C30W 1_555 1_555
C29W C25W 1_555 1_555
H14W C29W 1_555 1_555
H15W C29W 1_555 1_555
H16W C29W 1_555 1_555
C28W C23W 1_555 1_555
H11W C28W 1_555 1_555
H12W C28W 1_555 1_555
H13W C28W 1_555 1_555
C8W C7W 1_555 1_555
H3W C8W 1_555 1_555
C9W C10W 1_555 1_555
H4W C9W 1_555 1_555
C19W C20 1_555 1_555
C18W C17 1_555 1_555
H7W C18W 1_555 1_555
H8W C19W 1_555 1_555
O4W C21 1_555 1_555
C1AA C2AA 1_555 1_555
N1AA C2AA 1_555 1_555
C2AA C3AA 1_555 1_555
C3AA H1AA 1_555 1_555
C4AA C3AA 1_555 1_555
H2AA C4AA 1_555 1_555
C5AA N1AA 1_555 1_555
C6AA C5AA 1_555 1_555
N2AA C7AA 1_555 1_555
C7AA C6AA 1_555 1_555
C8AA C7AA 1_555 1_555
H3AA C8AA 1_555 1_555
C9AA C8AA 1_555 1_555
H4AA C9AA 1_555 1_555
C10AA N2AA 1_555 1_555
C11AA C10AA 1_555 1_555
C12AA C1AA 1_555 1_555
C13AA C12AA 1_555 1_555
H5AA C13AA 1_555 1_555
C14AA C13AA 1_555 1_555
H6AA C14AA 1_555 1_555
C15AA C14AA 1_555 1_555
C16AA C15AA 1_555 1_555
O3AA Zn1 1_555 1_555
C17AA C11AA 1_555 1_555
C18AA C17AA 1_555 1_555
H7AA C18AA 1_555 1_555
C19AA C18AA 1_555 1_555
H8AA C19AA 1_555 1_555
C20AA C19AA 1_555 1_555
C21AA C20AA 1_555 1_555
O4AA C21AA 1_555 1_555
C22AA C6AA 1_555 1_555
C23AA C22AA 1_555 1_555
C24AA C23AA 1_555 1_555
H9AA C24AA 1_555 1_555
C25AA C24AA 1_555 1_555
C26AA C25AA 1_555 1_555
H10AA C26AA 1_555 1_555
C27AA C22AA 1_555 1_555
C28AA C23AA 1_555 1_555
H11AA C28AA 1_555 1_555
H12AA C28AA 1_555 1_555
H13AA C28AA 1_555 1_555
C29AA C25AA 1_555 1_555
H14AA C29AA 1_555 1_555
H15AA C29AA 1_555 1_555
H16AA C29AA 1_555 1_555
C30AA C27AA 1_555 1_555
H17AA C30AA 1_555 1_555
H18AA C30AA 1_555 1_555
H19AA C30AA 1_555 1_555
C10KA C11AA 1_555 1_555
N2KA C10KA 1_555 1_555
C7KA N2KA 1_555 1_555
C6KA C7KA 1_555 1_555
C5KA C6KA 1_555 1_555
N1KA C5KA 1_555 1_555
C2KA C1AA 1_555 1_555
C14KA C15AA 1_555 1_555
C13KA C12AA 1_555 1_555
H5KA C13KA 1_555 1_555
H6KA C14KA 1_555 1_555
O3KA C16AA 1_555 1_555
C3KA C2KA 1_555 1_555
H1KA C3KA 1_555 1_555
C4KA C5KA 1_555 1_555
H2KA C4KA 1_555 1_555
C22KA C6KA 1_555 1_555
C23KA C22KA 1_555 1_555
C24KA C23KA 1_555 1_555
H9KA C24KA 1_555 1_555
C25KA C24KA 1_555 1_555
C26KA C25KA 1_555 1_555
H10KA C26KA 1_555 1_555
C27KA C22KA 1_555 1_555
C30KA C27KA 1_555 1_555
H17KA C30KA 1_555 1_555
H18KA C30KA 1_555 1_555
H19KA C30KA 1_555 1_555
C29KA C25KA 1_555 1_555
H14KA C29KA 1_555 1_555
H15KA C29KA 1_555 1_555
H16KA C29KA 1_555 1_555
C28KA C23KA 1_555 1_555
H11KA C28KA 1_555 1_555
H12KA C28KA 1_555 1_555
H13KA C28KA 1_555 1_555
C8KA C7KA 1_555 1_555
H3KA C8KA 1_555 1_555
C9KA C10KA 1_555 1_555
H4KA C9KA 1_555 1_555
C19KA C20AA 1_555 1_555
C18KA C17AA 1_555 1_555
H7KA C18KA 1_555 1_555
H8KA C19KA 1_555 1_555
O4KA C21AA 1_555 1_555
C1HA C2HA 1_555 1_555
N1HA C2HA 1_555 1_555
C2HA C3HA 1_555 1_555
C3HA H1HA 1_555 1_555
C4HA C3HA 1_555 1_555
H2HA C4HA 1_555 1_555
C5HA N1HA 1_555 1_555
C6HA C5HA 1_555 1_555
N2HA C7HA 1_555 1_555
C7HA C6HA 1_555 1_555
C8HA C7HA 1_555 1_555
H3HA C8HA 1_555 1_555
C9HA C8HA 1_555 1_555
H4HA C9HA 1_555 1_555
C10HA N2HA 1_555 1_555
C11HA C10HA 1_555 1_555
C12HA C1HA 1_555 1_555
C13HA C12HA 1_555 1_555
H5HA C13HA 1_555 1_555
C14HA C13HA 1_555 1_555
H6HA C14HA 1_555 1_555
C15HA C14HA 1_555 1_555
C16HA C15HA 1_555 1_555
O3HA Zn1 1_555 1_555
C17HA C11HA 1_555 1_555
C18HA C17HA 1_555 1_555
H7HA C18HA 1_555 1_555
C19HA C18HA 1_555 1_555
H8HA C19HA 1_555 1_555
C20HA C19HA 1_555 1_555
C21HA C20HA 1_555 1_555
O4HA C21HA 1_555 1_555
C22HA C6HA 1_555 1_555
C23HA C22HA 1_555 1_555
C24HA C23HA 1_555 1_555
H9HA C24HA 1_555 1_555
C25HA C24HA 1_555 1_555
C26HA C25HA 1_555 1_555
H10HA C26HA 1_555 1_555
C27HA C22HA 1_555 1_555
C28HA C23HA 1_555 1_555
H11HA C28HA 1_555 1_555
H12HA C28HA 1_555 1_555
H13HA C28HA 1_555 1_555
C29HA C25HA 1_555 1_555
H14HA C29HA 1_555 1_555
H15HA C29HA 1_555 1_555
H16HA C29HA 1_555 1_555
C30HA C27HA 1_555 1_555
H17HA C30HA 1_555 1_555
H18HA C30HA 1_555 1_555
H19HA C30HA 1_555 1_555
C10E C11HA 1_555 1_555
N2E C10E 1_555 1_555
C7E N2E 1_555 1_555
C6E C7E 1_555 1_555
C5E C6E 1_555 1_555
N1E C5E 1_555 1_555
C2E C1HA 1_555 1_555
C14E C15HA 1_555 1_555
C13E C12HA 1_555 1_555
H5E C13E 1_555 1_555
H6E C14E 1_555 1_555
O3E C16HA 1_555 1_555
C3E C2E 1_555 1_555
H1E C3E 1_555 1_555
C4E C5E 1_555 1_555
H2E C4E 1_555 1_555
C22E C6E 1_555 1_555
C23E C22E 1_555 1_555
C24E C23E 1_555 1_555
H9E C24E 1_555 1_555
C25E C24E 1_555 1_555
C26E C25E 1_555 1_555
H10E C26E 1_555 1_555
C27E C22E 1_555 1_555
C30E C27E 1_555 1_555
H17E C30E 1_555 1_555
H18E C30E 1_555 1_555
H19E C30E 1_555 1_555
C29E C25E 1_555 1_555
H14E C29E 1_555 1_555
H15E C29E 1_555 1_555
H16E C29E 1_555 1_555
C28E C23E 1_555 1_555
H11E C28E 1_555 1_555
H12E C28E 1_555 1_555
H13E C28E 1_555 1_555
C8E C7E 1_555 1_555
H3E C8E 1_555 1_555
C9E C10E 1_555 1_555
H4E C9E 1_555 1_555
C19E C20HA 1_555 1_555
C18E C17HA 1_555 1_555
H7E C18E 1_555 1_555
H8E C19E 1_555 1_555
O4E C21HA 1_555 1_555
Zn1K O1 1_555 1_555
Zn1E O1 1_555 1_555
Zn1M O1 1_555 1_555
Zn2W O2 1_555 1_555
Zn2AA O4AA 1_555 1_555
Zn2KA O4KA 1_555 1_555
Zn3W Zn3 1_555 1_555
Zn3AA N1AA 1_555 1_555
Zn3KA N1AA 1_555 1_555
Zn3HA N1HA 1_555 1_555
Zn3E N1HA 1_555 1_555
C1Y C2Y 1_555 1_555
N1Y C2Y 1_555 1_555
C2Y C3Y 1_555 1_555
C3Y H1Y 1_555 1_555
C4Y C3Y 1_555 1_555
H2Y C4Y 1_555 1_555
C5Y N1Y 1_555 1_555
C6Y C5Y 1_555 1_555
N2Y C7Y 1_555 1_555
C7Y C6Y 1_555 1_555
C8Y C7Y 1_555 1_555
H3Y C8Y 1_555 1_555
C9Y C8Y 1_555 1_555
H4Y C9Y 1_555 1_555
C10Y N2Y 1_555 1_555
C11Y C10Y 1_555 1_555
C12Y C1Y 1_555 1_555
C13Y C12Y 1_555 1_555
H5Y C13Y 1_555 1_555
C14Y C13Y 1_555 1_555
H6Y C14Y 1_555 1_555
C15Y C14Y 1_555 1_555
C16Y C15Y 1_555 1_555
O3Y C16Y 1_555 1_555
C17Y C11Y 1_555 1_555
C18Y C17Y 1_555 1_555
H7Y C18Y 1_555 1_555
C19Y C18Y 1_555 1_555
H8Y C19Y 1_555 1_555
C20Y C19Y 1_555 1_555
C21Y C20Y 1_555 1_555
O4Y Zn2 1_555 1_555
C22Y C6Y 1_555 1_555
C23Y C22Y 1_555 1_555
C24Y C23Y 1_555 1_555
H9Y C24Y 1_555 1_555
C25Y C24Y 1_555 1_555
C26Y C25Y 1_555 1_555
H10Y C26Y 1_555 1_555
C27Y C22Y 1_555 1_555
C28Y C23Y 1_555 1_555
H11Y C28Y 1_555 1_555
H12Y C28Y 1_555 1_555
H13Y C28Y 1_555 1_555
C29Y C25Y 1_555 1_555
H14Y C29Y 1_555 1_555
H15Y C29Y 1_555 1_555
H16Y C29Y 1_555 1_555
C30Y C27Y 1_555 1_555
H17Y C30Y 1_555 1_555
H18Y C30Y 1_555 1_555
H19Y C30Y 1_555 1_555
C10PA C11Y 1_555 1_555
N2PA C10PA 1_555 1_555
C7PA N2PA 1_555 1_555
C6PA C7PA 1_555 1_555
C5PA C6PA 1_555 1_555
N1PA C5PA 1_555 1_555
C2PA C1Y 1_555 1_555
C14PA C15Y 1_555 1_555
C13PA C12Y 1_555 1_555
H5PA C13PA 1_555 1_555
H6PA C14PA 1_555 1_555
O3PA C16Y 1_555 1_555
C3PA C2PA 1_555 1_555
H1PA C3PA 1_555 1_555
C4PA C5PA 1_555 1_555
H2PA C4PA 1_555 1_555
C22PA C6PA 1_555 1_555
C23PA C22PA 1_555 1_555
C24PA C23PA 1_555 1_555
H9PA C24PA 1_555 1_555
C25PA C24PA 1_555 1_555
C26PA C25PA 1_555 1_555
H10PA C26PA 1_555 1_555
C27PA C22PA 1_555 1_555
C30PA C27PA 1_555 1_555
H17PA C30PA 1_555 1_555
H18PA C30PA 1_555 1_555
H19PA C30PA 1_555 1_555
C29PA C25PA 1_555 1_555
H14PA C29PA 1_555 1_555
H15PA C29PA 1_555 1_555
H16PA C29PA 1_555 1_555
C28PA C23PA 1_555 1_555
H11PA C28PA 1_555 1_555
H12PA C28PA 1_555 1_555
H13PA C28PA 1_555 1_555
C8PA C7PA 1_555 1_555
H3PA C8PA 1_555 1_555
C9PA C10PA 1_555 1_555
H4PA C9PA 1_555 1_555
C19PA C20Y 1_555 1_555
C18PA C17Y 1_555 1_555
H7PA C18PA 1_555 1_555
H8PA C19PA 1_555 1_555
O4PA C21Y 1_555 1_555
C1SA C2SA 1_555 1_555
N1SA C2SA 1_555 1_555
C2SA C3SA 1_555 1_555
C3SA H1SA 1_555 1_555
C4SA C3SA 1_555 1_555
H2SA C4SA 1_555 1_555
C5SA N1SA 1_555 1_555
C6SA C5SA 1_555 1_555
N2SA C7SA 1_555 1_555
C7SA C6SA 1_555 1_555
C8SA C7SA 1_555 1_555
H3SA C8SA 1_555 1_555
C9SA C8SA 1_555 1_555
H4SA C9SA 1_555 1_555
C10SA N2SA 1_555 1_555
C11SA C10SA 1_555 1_555
C12SA C1SA 1_555 1_555
C13SA C12SA 1_555 1_555
H5SA C13SA 1_555 1_555
C14SA C13SA 1_555 1_555
H6SA C14SA 1_555 1_555
C15SA C14SA 1_555 1_555
C16SA C15SA 1_555 1_555
O3SA C16SA 1_555 1_555
C17SA C11SA 1_555 1_555
C18SA C17SA 1_555 1_555
H7SA C18SA 1_555 1_555
C19SA C18SA 1_555 1_555
H8SA C19SA 1_555 1_555
C20SA C19SA 1_555 1_555
C21SA C20SA 1_555 1_555
O4SA Zn2 1_555 1_555
C22SA C6SA 1_555 1_555
C23SA C22SA 1_555 1_555
C24SA C23SA 1_555 1_555
H9SA C24SA 1_555 1_555
C25SA C24SA 1_555 1_555
C26SA C25SA 1_555 1_555
H10SA C26SA 1_555 1_555
C27SA C22SA 1_555 1_555
C28SA C23SA 1_555 1_555
H11SA C28SA 1_555 1_555
H12SA C28SA 1_555 1_555
H13SA C28SA 1_555 1_555
C29SA C25SA 1_555 1_555
H14SA C29SA 1_555 1_555
H15SA C29SA 1_555 1_555
H16SA C29SA 1_555 1_555
C30SA C27SA 1_555 1_555
H17SA C30SA 1_555 1_555
H18SA C30SA 1_555 1_555
H19SA C30SA 1_555 1_555
C10J C11SA 1_555 1_555
N2J C10J 1_555 1_555
C7J N2J 1_555 1_555
C6J C7J 1_555 1_555
C5J C6J 1_555 1_555
N1J C5J 1_555 1_555
C2J C1SA 1_555 1_555
C14J C15SA 1_555 1_555
C13J C12SA 1_555 1_555
H5J C13J 1_555 1_555
H6J C14J 1_555 1_555
O3J C16SA 1_555 1_555
C3J C2J 1_555 1_555
H1J C3J 1_555 1_555
C4J C5J 1_555 1_555
H2J C4J 1_555 1_555
C22J C6J 1_555 1_555
C23J C22J 1_555 1_555
C24J C23J 1_555 1_555
H9J C24J 1_555 1_555
C25J C24J 1_555 1_555
C26J C25J 1_555 1_555
H10J C26J 1_555 1_555
C27J C22J 1_555 1_555
C30J C27J 1_555 1_555
H17J C30J 1_555 1_555
H18J C30J 1_555 1_555
H19J C30J 1_555 1_555
C29J C25J 1_555 1_555
H14J C29J 1_555 1_555
H15J C29J 1_555 1_555
H16J C29J 1_555 1_555
C28J C23J 1_555 1_555
H11J C28J 1_555 1_555
H12J C28J 1_555 1_555
H13J C28J 1_555 1_555
C8J C7J 1_555 1_555
H3J C8J 1_555 1_555
C9J C10J 1_555 1_555
H4J C9J 1_555 1_555
C19J C20SA 1_555 1_555
C18J C17SA 1_555 1_555
H7J C18J 1_555 1_555
H8J C19J 1_555 1_555
O4J C21SA 1_555 1_555
C1K C2K 1_555 1_555
N1K C2K 1_555 1_555
C2K C3K 1_555 1_555
C3K H1K 1_555 1_555
C4K C3K 1_555 1_555
H2K C4K 1_555 1_555
C5K N1K 1_555 1_555
C6K C5K 1_555 1_555
N2K C7K 1_555 1_555
C7K C6K 1_555 1_555
C8K C7K 1_555 1_555
H3K C8K 1_555 1_555
C9K C8K 1_555 1_555
H4K C9K 1_555 1_555
C10K N2K 1_555 1_555
C11K C10K 1_555 1_555
C12K C1K 1_555 1_555
C13K C12K 1_555 1_555
H5K C13K 1_555 1_555
C14K C13K 1_555 1_555
H6K C14K 1_555 1_555
C15K C14K 1_555 1_555
C16K C15K 1_555 1_555
O3K Zn1K 1_555 1_555
C17K C11K 1_555 1_555
C18K C17K 1_555 1_555
H7K C18K 1_555 1_555
C19K C18K 1_555 1_555
H8K C19K 1_555 1_555
C20K C19K 1_555 1_555
C21K C20K 1_555 1_555
O4K C21K 1_555 1_555
C22K C6K 1_555 1_555
C23K C22K 1_555 1_555
C24K C23K 1_555 1_555
H9K C24K 1_555 1_555
C25K C24K 1_555 1_555
C26K C25K 1_555 1_555
H10K C26K 1_555 1_555
C27K C22K 1_555 1_555
C28K C23K 1_555 1_555
H11K C28K 1_555 1_555
H12K C28K 1_555 1_555
H13K C28K 1_555 1_555
C29K C25K 1_555 1_555
H14K C29K 1_555 1_555
H15K C29K 1_555 1_555
H16K C29K 1_555 1_555
C30K C27K 1_555 1_555
H17K C30K 1_555 1_555
H18K C30K 1_555 1_555
H19K C30K 1_555 1_555
C10T C11K 1_555 1_555
N2T C10T 1_555 1_555
C7T N2T 1_555 1_555
C6T C7T 1_555 1_555
C5T C6T 1_555 1_555
N1T C5T 1_555 1_555
C2T C1K 1_555 1_555
C14T C15K 1_555 1_555
C13T C12K 1_555 1_555
H5T C13T 1_555 1_555
H6T C14T 1_555 1_555
O3T Zn1E 1_555 1_555
C3T C2T 1_555 1_555
H1T C3T 1_555 1_555
C4T C5T 1_555 1_555
H2T C4T 1_555 1_555
C22T C6T 1_555 1_555
C23T C22T 1_555 1_555
C24T C23T 1_555 1_555
H9T C24T 1_555 1_555
C25T C24T 1_555 1_555
C26T C25T 1_555 1_555
H10T C26T 1_555 1_555
C27T C22T 1_555 1_555
C30T C27T 1_555 1_555
H17T C30T 1_555 1_555
H18T C30T 1_555 1_555
H19T C30T 1_555 1_555
C29T C25T 1_555 1_555
H14T C29T 1_555 1_555
H15T C29T 1_555 1_555
H16T C29T 1_555 1_555
C28T C23T 1_555 1_555
H11T C28T 1_555 1_555
H12T C28T 1_555 1_555
H13T C28T 1_555 1_555
C8T C7T 1_555 1_555
H3T C8T 1_555 1_555
C9T C10T 1_555 1_555
H4T C9T 1_555 1_555
C19T C20K 1_555 1_555
C18T C17K 1_555 1_555
H7T C18T 1_555 1_555
H8T C19T 1_555 1_555
O4T C21K 1_555 1_555
Zn3Y N1Y 1_555 1_555
Zn3PA N1Y 1_555 1_555
Zn3SA N1SA 1_555 1_555
Zn3J N1SA 1_555 1_555
Zn3K N1K 1_555 1_555
Zn3T N1K 1_555 1_555
Zn2J O2 1_555 1_555
Zn2N O2 1_555 1_555
Zn2I O4HA 1_555 1_555
Zn2E O4E 1_555 1_555
O3RA Zn1K 1_555 1_555
O3EA Zn1E 1_555 1_555
O3M Zn1M 1_555 1_555
O3MA Zn1M 1_555 1_555
O4G Zn2W 1_555 1_555
O4LA Zn2W 1_555 1_555
O2B Zn2AA 1_555 1_555
O4O Zn2AA 1_555 1_555
O4QA Zn2AA 1_555 1_555
O4D Zn2KA 1_555 1_555
O4U Zn2KA 1_555 1_555
Zn1R O3Y 1_555 1_555
Zn1H O3PA 1_555 1_555
Zn1F O3SA 1_555 1_555
Zn1J O3J 1_555 1_555
Zn2K O4K 1_555 1_555
Zn2B O4T 1_555 1_555
N1 Zn3W 1_555 1_555
C4 C5 1_555 1_555
N2 C7 1_555 1_555
N2 Zn3W 1_555 1_555
C9 C10 1_555 1_555
C26 C27 1_555 1_555
C10W N2W 1_555 1_555
N2W Zn3W 1_555 1_555
C5W N1W 1_555 1_555
N1W C2W 1_555 1_555
N1W Zn3W 1_555 1_555
C14W C13W 1_555 1_555
O3W Zn1K 1_555 1_555
C3W C4W 1_555 1_555
C26W C27W 1_555 1_555
C8W C9W 1_555 1_555
C19W C18W 1_555 1_555
O4W Zn2W 1_555 1_555
C4AA C5AA 1_555 1_555
N2AA Zn3AA 1_555 1_555
N2AA Zn3KA 1_555 1_555
C9AA C10AA 1_555 1_555
C16AA O3AA 1_555 1_555
C26AA C27AA 1_555 1_555
N2KA Zn3AA 1_555 1_555
N2KA Zn3KA 1_555 1_555
N1KA C2KA 1_555 1_555
N1KA Zn3AA 1_555 1_555
N1KA Zn3KA 1_555 1_555
C14KA C13KA 1_555 1_555
O3KA Zn1M 1_555 1_555
C3KA C4KA 1_555 1_555
C26KA C27KA 1_555 1_555
C8KA C9KA 1_555 1_555
C19KA C18KA 1_555 1_555
C4HA C5HA 1_555 1_555
N2HA Zn3HA 1_555 1_555
N2HA Zn3E 1_555 1_555
C9HA C10HA 1_555 1_555
C16HA O3HA 1_555 1_555
C26HA C27HA 1_555 1_555
N2E Zn3HA 1_555 1_555
N2E Zn3E 1_555 1_555
N1E C2E 1_555 1_555
N1E Zn3HA 1_555 1_555
N1E Zn3E 1_555 1_555
C14E C13E 1_555 1_555
O3E Zn1E 1_555 1_555
C3E C4E 1_555 1_555
C26E C27E 1_555 1_555
C8E C9E 1_555 1_555
C19E C18E 1_555 1_555
Zn2KA O2B 1_555 1_555
Zn3AA Zn3KA 1_555 1_555
Zn3HA Zn3E 1_555 1_555
C4Y C5Y 1_555 1_555
N2Y Zn3Y 1_555 1_555
N2Y Zn3PA 1_555 1_555
C9Y C10Y 1_555 1_555
C21Y O4Y 1_555 1_555
C26Y C27Y 1_555 1_555
N2PA Zn3Y 1_555 1_555
N2PA Zn3PA 1_555 1_555
N1PA C2PA 1_555 1_555
N1PA Zn3Y 1_555 1_555
N1PA Zn3PA 1_555 1_555
C14PA C13PA 1_555 1_555
C3PA C4PA 1_555 1_555
C26PA C27PA 1_555 1_555
C8PA C9PA 1_555 1_555
C19PA C18PA 1_555 1_555
O4PA Zn2N 1_555 1_555
C4SA C5SA 1_555 1_555
N2SA Zn3SA 1_555 1_555
N2SA Zn3J 1_555 1_555
C9SA C10SA 1_555 1_555
C21SA O4SA 1_555 1_555
C26SA C27SA 1_555 1_555
N2J Zn3SA 1_555 1_555
N2J Zn3J 1_555 1_555
N1J C2J 1_555 1_555
N1J Zn3SA 1_555 1_555
N1J Zn3J 1_555 1_555
C14J C13J 1_555 1_555
C3J C4J 1_555 1_555
C26J C27J 1_555 1_555
C8J C9J 1_555 1_555
C19J C18J 1_555 1_555
O4J Zn2J 1_555 1_555
C4K C5K 1_555 1_555
N2K Zn3K 1_555 1_555
N2K Zn3T 1_555 1_555
C9K C10K 1_555 1_555
C16K O3K 1_555 1_555
C16K O3T 1_555 1_555
C26K C27K 1_555 1_555
N2T Zn3K 1_555 1_555
N2T Zn3T 1_555 1_555
N1T C2T 1_555 1_555
N1T Zn3K 1_555 1_555
N1T Zn3T 1_555 1_555
C14T C13T 1_555 1_555
C3T C4T 1_555 1_555
C26T C27T 1_555 1_555
C8T C9T 1_555 1_555
C19T C18T 1_555 1_555
Zn3Y Zn3PA 1_555 1_555
Zn3SA Zn3J 1_555 1_555
Zn3K Zn3T 1_555 1_555

#END
