
#######################################################################
#
#                 Cambridge Crystallographic Data Centre
#                                CCDC 
#
#######################################################################
#
# If this CIF has been generated from an entry in the Cambridge 
# Structural Database, then it will include bibliographic, chemical, 
# crystal, experimental, refinement or atomic coordinate data resulting 
# from the CCDC's data processing and validation procedures.
#
#######################################################################

data_EFILUA
_chemical_formula_moiety         '(C6 H2 Ga6 N4 O26 P6 2-)n'
_symmetry_cell_setting           orthorhombic
_symmetry_space_group_name_H-M   'A b a 2'
_symmetry_Int_Tables_number      41
_space_group_name_Hall           'A 2 -2ab'
loop_
_symmetry_equiv_pos_site_id
_symmetry_equiv_pos_as_xyz
1 x,y,z
2 -x,-y,z
3 1/2-x,1/2+y,z
4 1/2+x,1/2-y,z
5 x,1/2+y,1/2+z
6 -x,1/2-y,1/2+z
7 1/2-x,y,1/2+z
8 1/2+x,-y,1/2+z
_cell_length_a                   18.035(18)
_cell_length_b                   10.513(11)
_cell_length_c                   14.293(11)
_cell_angle_alpha                90
_cell_angle_beta                 90
_cell_angle_gamma                90
_cell_volume                     2709.98
loop_
_atom_site_label
_atom_site_type_symbol
_atom_site_fract_x
_atom_site_fract_y
_atom_site_fract_z
Ga1 Ga 0.7028(1) 0.8079(1) 0.6485(1)
Ga2 Ga 0.8150(1) 0.6245(1) 0.8747(1)
Ga3 Ga 0.8907(1) 0.8536(1) 0.5575(1)
P1 P 0.5751(2) 0.6424(3) 0.5444(3)
P2 P 0.7042(2) 0.8395(3) 0.8747(3)
P3 P 0.8307(2) 0.6134(3) 0.6598(3)
O1 O 0.7504(5) 0.6424(6) 0.6360(7)
O2 O 0.8475(5) 0.6624(6) 0.7579(8)
O3 O 0.7915(5) 0.8881(8) 0.6106(7)
O4 O 0.6328(5) 0.8392(8) 0.9300(7)
O5 O 0.6026(5) 0.6193(1) 0.4447(8)
O6 O 0.6183(4) 0.7513(8) 0.5884(7)
O7 O 0.8844(4) 0.6854(8) 0.5947(7)
O8 O 0.7614(5) 0.7562(8) 0.9239(7)
O9 O 0.6884(5) 0.7862(7) 0.7782(8)
O10 O 0.7361(4) 0.9743(7) 0.8716(7)
O11 O 0.5859(4) 0.5186(7) 0.5991(7)
O12 O 0.4943(5) 0.6813(7) 0.5379(7)
O13 O 0.8444(4) 0.4719(7) 0.6511(7)
P3B P 0.6693(2) 1.1134(3) 0.6598(3)
O1B O 0.7496(5) 1.1424(6) 0.6360(7)
O2B O 0.6525(5) 1.1624(6) 0.7579(8)
O7B O 0.6156(4) 1.1854(8) 0.5947(7)
O13B O 0.6556(4) 0.9719(7) 0.6511(7)
Ga1B Ga 0.7972(1) 1.3079(1) 0.6485(1)
Ga2B Ga 0.6850(1) 1.1245(1) 0.8747(1)
Ga3F Ga 0.6093(1) 0.8536(1) 1.0575(1)
P1F P 0.9249(2) 0.6424(3) 1.0444(3)
O5F O 0.8974(5) 0.6193(1) 0.9447(8)
O6F O 0.8817(4) 0.7513(8) 1.0884(7)
O11F O 0.9141(4) 0.5186(7) 1.0991(7)
O12F O 1.0057(5) 0.6813(7) 1.0379(7)
P2B P 0.7958(2) 0.3395(3) 0.8747(3)
O4B O 0.8672(5) 0.3392(8) 0.9300(7)
O8B O 0.7386(5) 0.2562(8) 0.9239(7)
O9B O 0.8116(5) 0.2862(7) 0.7782(8)
O10B O 0.7639(4) 0.4743(7) 0.8716(7)
O3B O 0.7085(5) 1.3881(8) 0.6106(7)
O4F O 0.8672(5) 0.8392(8) 0.4300(7)
O11B O 0.9141(4) 1.0186(7) 0.5991(7)
O12C O 0.9943(5) 0.8187(7) 0.5379(7)
Ga2F Ga 0.6850(1) 0.6245(1) 0.3747(1)
Ga3B Ga 0.6093(1) 0.3536(1) 0.5575(1)
Ga3C Ga 0.3907(1) 0.6464(1) 0.5575(1)
Ga1B_2 Ga 0.7972(1) 0.3079(1) 0.6485(1)
Ga3B_2 Ga 0.6093(1) 1.3536(1) 0.5575(1)
O6B O 0.8817(4) 1.2513(8) 0.5884(7)
O9B_2 O 0.8116(5) 1.2862(7) 0.7782(8)
O13_2 O 0.8444(4) 1.4719(7) 0.6511(7)
O5D O 0.6026(5) 1.1193(1) 0.9447(8)
O8B_2 O 0.7386(5) 1.2562(8) 0.9239(7)
O3F O 0.7085(5) 0.8881(8) 1.1106(7)
O7F O 0.6156(4) 0.6854(8) 1.0947(7)
O11D O 0.5859(4) 1.0186(7) 1.0991(7)
O12E O 0.5057(5) 0.8187(7) 1.0379(7)
Ga1F Ga 0.7972(1) 0.8079(1) 1.1485(1)
Ga3D Ga 0.8907(1) 0.3536(1) 1.0575(1)
Ga3E Ga 1.1093(1) 0.6464(1) 1.0575(1)
Ga2B_2 Ga 0.6850(1) 0.1245(1) 0.8747(1)
N1 N 0.5081(14) 0.6298(29) 0.8495(46)
N2 N 0.5061(15) 0.6144(31) 0.9167(45)
C1 C 0.4378(10) 0.5807(21) 0.8604(31)
C2 C 0.5713(10) 0.5571(20) 0.8831(29)
C3 C 0.5184(27) 0.7308(86) 0.7812(79)
C1A C 0.5622(10) 0.4193(21) 0.8604(31)
N1A N 0.4919(14) 0.3702(29) 0.8495(46)
N2A N 0.4939(15) 0.3856(31) 0.9167(45)
C2A C 0.4287(10) 0.4429(20) 0.8831(29)
C3A C 0.4816(27) 0.2692(86) 0.7812(79)
loop_
_geom_bond_atom_site_label_1
_geom_bond_atom_site_label_2
_geom_bond_site_symmetry_1
_geom_bond_site_symmetry_2
N1 N2 1_555 1_555
N2 C1 1_555 1_555
C1 N1 1_555 1_555
C2 N1 1_555 1_555
C3 N1 1_555 1_555
Ga1 O1 1_555 1_555
Ga2 O2 1_555 1_555
Ga3 O3 1_555 1_555
P1 O5 1_555 1_555
P2 O4 1_555 1_555
P3 O1 1_555 1_555
O2 P3 1_555 1_555
O3 Ga1 1_555 1_555
O4 Ga3F 1_555 1_555
O5 Ga2F 1_555 1_555
O6 Ga1 1_555 1_555
O7 Ga3 1_555 1_555
O8 Ga2 1_555 1_555
O9 Ga1 1_555 1_555
O10 P2 1_555 1_555
O11 P1 1_555 1_555
O12 P1 1_555 1_555
O13 P3 1_555 1_555
C1A C2 1_555 1_555
N1A C1A 1_555 1_555
N2A C1A 1_555 1_555
C2A C1 1_555 1_555
C3A N1A 1_555 1_555
P3B O1B 1_555 1_555
O1B Ga1B 1_555 1_555
O2B P3B 1_555 1_555
O7B P3B 1_555 1_555
O13B Ga1 1_555 1_555
Ga1B O3B 1_555 1_555
Ga2B O10 1_555 1_555
Ga3F O3F 1_555 1_555
P1F O5F 1_555 1_555
O5F Ga2 1_555 1_555
O6F P1F 1_555 1_555
O11F P1F 1_555 1_555
O12F P1F 1_555 1_555
P2B O4B 1_555 1_555
O4B Ga3D 1_555 1_555
O8B P2B 1_555 1_555
O9B P2B 1_555 1_555
O10B Ga2 1_555 1_555
O3B Ga3B_2 1_555 1_555
O4F Ga3 1_555 1_555
O11B Ga3 1_555 1_555
O12C Ga3 1_555 1_555
Ga3B O11 1_555 1_555
Ga3C O12 1_555 1_555
Ga1B_2 O13 1_555 1_555
Ga3B_2 O7B 1_555 1_555
O6B Ga1B 1_555 1_555
O9B_2 Ga1B 1_555 1_555
O13_2 Ga1B 1_555 1_555
O5D Ga2B 1_555 1_555
O8B_2 Ga2B 1_555 1_555
O3F Ga1F 1_555 1_555
O7F Ga3F 1_555 1_555
O11D Ga3F 1_555 1_555
O12E Ga3F 1_555 1_555
Ga1F O6F 1_555 1_555
Ga3D O11F 1_555 1_555
Ga3E O12F 1_555 1_555
Ga2B_2 O8B 1_555 1_555
N2 C2 1_555 1_555
P1 O6 1_555 1_555
P2 O8 1_555 1_555
P2 O9 1_555 1_555
P3 O7 1_555 1_555
N1A N2A 1_555 1_555
N1A C2A 1_555 1_555
N2A C2A 1_555 1_555
P3B O13B 1_555 1_555
O2B Ga2B 1_555 1_555
P2B O10B 1_555 1_555
O9B Ga1B_2 1_555 1_555

#END
