
#######################################################################
#
#                 Cambridge Crystallographic Data Centre
#                                CCDC 
#
#######################################################################
#
# If this CIF has been generated from an entry in the Cambridge 
# Structural Database, then it will include bibliographic, chemical, 
# crystal, experimental, refinement or atomic coordinate data resulting 
# from the CCDC's data processing and validation procedures.
#
#######################################################################

data_XALDAQ
_chemical_formula_moiety         '(C57 H71 Mn3 N10 O11)n'
_symmetry_cell_setting           tetragonal
_symmetry_space_group_name_H-M   'I 41/a'
_symmetry_Int_Tables_number      88
_space_group_name_Hall           '-I 4ad'
loop_
_symmetry_equiv_pos_site_id
_symmetry_equiv_pos_as_xyz
1 x,y,z
2 3/4-y,1/4+x,1/4+z
3 1/2+x,1/2+y,1/2+z
4 1/4-y,3/4+x,3/4+z
5 1/4+y,1/4-x,1/4+z
6 1/2-x,-y,1/2+z
7 3/4+y,3/4-x,3/4+z
8 -x,1/2-y,z
9 -x,-y,-z
10 1/4+y,3/4-x,3/4-z
11 1/2-x,1/2-y,1/2-z
12 3/4+y,1/4-x,1/4-z
13 3/4-y,3/4+x,3/4-z
14 1/2+x,y,1/2-z
15 1/4-y,1/4+x,1/4-z
16 x,1/2+y,-z
_cell_length_a                   40.792(6)
_cell_length_b                   40.792(6)
_cell_length_c                   17.442(4)
_cell_angle_alpha                90
_cell_angle_beta                 90
_cell_angle_gamma                90
_cell_volume                     29023.3
loop_
_atom_site_label
_atom_site_type_symbol
_atom_site_fract_x
_atom_site_fract_y
_atom_site_fract_z
_atom_site_U_iso_or_equiv
_atom_site_thermal_displace_type
Mn1 Mn 0.219944(15) 0.636424(15) 0.27451(4) 0.0350 Uani
O2 O 0.24171(7) 0.60066(7) 0.31488(17) 0.0426 Uani
O3 O 0.29824(7) 0.63183(6) 0.12264(17) 0.0393 Uani
O4 O 0.20261(6) 0.67397(7) 0.22115(17) 0.0391 Uani
N2 N 0.25480(8) 0.64318(8) 0.19977(19) 0.0318 Uani
N3 N 0.25063(8) 0.67136(8) 0.1537(2) 0.0363 Uani
N4 N 0.19179(9) 0.60406(9) 0.1900(2) 0.0437 Uani
C4 C 0.26610(10) 0.58332(10) 0.2844(2) 0.0357 Uani
C5 C 0.27379(12) 0.55336(11) 0.3190(3) 0.0503 Uani
H8 H 0.2616 0.5465 0.3626 0.0610 Uiso
C6 C 0.29813(12) 0.53371(12) 0.2921(3) 0.0553 Uani
H9 H 0.3026 0.5134 0.3168 0.0660 Uiso
C7 C 0.31659(11) 0.54308(11) 0.2286(3) 0.0470 Uani
H10 H 0.3336 0.5294 0.2094 0.0560 Uiso
C8 C 0.30956(10) 0.57243(10) 0.1947(3) 0.0390 Uani
H11 H 0.3222 0.5791 0.1517 0.0470 Uiso
C9 C 0.28477(9) 0.59296(10) 0.2201(3) 0.0343 Uani
C10 C 0.27943(10) 0.62430(10) 0.1786(3) 0.0327 Uani
C11 C 0.22268(10) 0.68524(10) 0.1693(3) 0.0370 Uani
C12 C 0.21167(12) 0.71462(11) 0.1241(3) 0.0570 Uani
H12 H 0.2306 0.7241 0.0964 0.0680 Uiso
H13 H 0.2029 0.7315 0.1593 0.0680 Uiso
C13 C 0.18398(16) 0.70429(16) 0.0641(4) 0.1090 Uani
H14 H 0.1933 0.6891 0.0255 0.1310 Uiso
H15 H 0.1659 0.6929 0.0910 0.1310 Uiso
C14 C 0.1710(4) 0.7348(3) 0.0250(7) 0.2183 Uani
H16 H 0.1535 0.7443 0.0573 0.2620 Uiso
H17 H 0.1890 0.7511 0.0221 0.2620 Uiso
C15 C 0.1601(5) 0.7307(4) -0.0394(9) 0.3057 Uani
H18 H 0.1416 0.7150 -0.0366 0.3690 Uiso
H19 H 0.1774 0.7206 -0.0716 0.3690 Uiso
C16 C 0.1472(3) 0.7649(3) -0.0815(8) 0.2903 Uani
H20 H 0.1330 0.7770 -0.0462 0.4330 Uiso
H21 H 0.1349 0.7593 -0.1279 0.4330 Uiso
H22 H 0.1662 0.7785 -0.0952 0.4330 Uiso
C17 C 0.17131(11) 0.58079(11) 0.2133(3) 0.0483 Uani
H23 H 0.1689 0.5771 0.2668 0.0580 Uiso
C18 C 0.15344(12) 0.56177(13) 0.1632(3) 0.0620 Uani
H24 H 0.1397 0.5448 0.1823 0.0750 Uiso
C19 C 0.15545(13) 0.56728(15) 0.0862(3) 0.0743 Uani
C20 C 0.17734(14) 0.59128(14) 0.0624(3) 0.0797 Uani
H25 H 0.1802 0.5954 0.0092 0.0950 Uiso
C21 C 0.19470(12) 0.60896(13) 0.1144(3) 0.0607 Uani
H26 H 0.2094 0.6253 0.0966 0.0730 Uiso
C22 C 0.13430(19) 0.5470(2) 0.0314(4) 0.1313 Uani
H27 H 0.1359 0.5237 0.0472 0.1580 Uiso
H28 H 0.1112 0.5538 0.0384 0.1580 Uiso
Mn2 Mn 0.291024(15) 0.673347(15) 0.06719(4) 0.0358 Uani
O5 O 0.26368(7) 0.65541(7) -0.00736(18) 0.0449 Uani
O6 O 0.27582(7) 0.75563(7) -0.06767(16) 0.0403 Uani
O7 O 0.31741(6) 0.69848(6) 0.13759(16) 0.0364 Uani
O8 O 0.33607(8) 0.66155(7) -0.00061(19) 0.0530 Uani
N5 N 0.28690(8) 0.71624(8) 0.0208(2) 0.0329 Uani
N6 N 0.30219(8) 0.74192(8) 0.0625(2) 0.0322 Uani
N7 N 0.39040(11) 0.65097(11) -0.0086(3) 0.0763 Uani
C23 C 0.25095(11) 0.66902(11) -0.0697(3) 0.0430 Uani
C24 C 0.23109(12) 0.64931(13) -0.1160(3) 0.0590 Uani
H29 H 0.2264 0.6275 -0.1007 0.0710 Uiso
C25 C 0.21830(14) 0.66113(16) -0.1833(4) 0.0750 Uani
H30 H 0.2048 0.6472 -0.2134 0.0900 Uiso
C26 C 0.22454(14) 0.69292(16) -0.2087(3) 0.0747 Uani
H31 H 0.2165 0.7005 -0.2566 0.0890 Uiso
C27 C 0.24275(13) 0.71289(13) -0.1618(3) 0.0593 Uani
H32 H 0.2462 0.7350 -0.1768 0.0710 Uiso
C28 C 0.25641(10) 0.70204(11) -0.0930(3) 0.0390 Uani
C29 C 0.27374(10) 0.72572(11) -0.0451(3) 0.0357 Uani
C30 C 0.31685(10) 0.73013(10) 0.1222(2) 0.0337 Uani
C31 C 0.33439(11) 0.75266(10) 0.1769(3) 0.0433 Uani
H33 H 0.3243 0.7508 0.2283 0.0520 Uiso
H34 H 0.3317 0.7756 0.1593 0.0520 Uiso
C32 C 0.37079(12) 0.74474(11) 0.1828(3) 0.0587 Uani
H35 H 0.3734 0.7215 0.1976 0.0710 Uiso
H36 H 0.3806 0.7583 0.2239 0.0710 Uiso
C33 C 0.38943(12) 0.75078(14) 0.1084(4) 0.0730 Uani
H37 H 0.3806 0.7361 0.0683 0.0880 Uiso
H38 H 0.3855 0.7736 0.0917 0.0880 Uiso
C34 C 0.42600(15) 0.74522(17) 0.1150(5) 0.1113 Uani
H39 H 0.4300 0.7224 0.1319 0.1330 Uiso
H40 H 0.4350 0.7601 0.1546 0.1330 Uiso
C35 C 0.44383(17) 0.7512(2) 0.0396(6) 0.1487 Uani
H41 H 0.4353 0.7363 0.0004 0.2230 Uiso
H42 H 0.4673 0.7473 0.0466 0.2230 Uiso
H43 H 0.4404 0.7739 0.0233 0.2230 Uiso
C36 C 0.36308(13) 0.66120(12) 0.0263(3) 0.0583 Uani
H44 H 0.3653 0.6690 0.0774 0.0700 Uiso
C37 C 0.38949(17) 0.63889(17) -0.0849(5) 0.1160 Uani
H45 H 0.3670 0.6401 -0.1044 0.1740 Uiso
H46 H 0.3969 0.6161 -0.0856 0.1740 Uiso
H47 H 0.4039 0.6522 -0.1173 0.1740 Uiso
C38 C 0.42133(14) 0.64947(19) 0.0297(5) 0.1283 Uani
H48 H 0.4369 0.6642 0.0042 0.1930 Uiso
H49 H 0.4297 0.6270 0.0280 0.1930 Uiso
H50 H 0.4186 0.6563 0.0833 0.1930 Uiso
Mn3 Mn 0.211750(15) 0.709840(15) 0.49300(4) 0.0341 Uani
O9 O 0.17026(7) 0.70150(7) 0.53195(17) 0.0431 Uani
O10 O 0.18291(6) 0.63458(7) 0.34763(16) 0.0357 Uani
O11 O 0.25349(6) 0.71295(6) 0.44134(16) 0.0347 Uani
N8 N 0.20600(8) 0.67544(7) 0.41672(19) 0.0309 Uani
N9 N 0.23347(8) 0.67167(8) 0.36828(19) 0.0330 Uani
N10 N 0.07429(10) 0.48778(9) -0.1729(2) 0.0460 Uani
C39 C 0.14940(10) 0.67767(10) 0.5148(3) 0.0380 Uani
C40 C 0.12114(12) 0.67522(11) 0.5603(3) 0.0530 Uani
H51 H 0.1176 0.6905 0.6006 0.0630 Uiso
C41 C 0.09855(12) 0.65106(12) 0.5475(3) 0.0607 Uani
H52 H 0.0795 0.6501 0.5787 0.0730 Uiso
C42 C 0.10281(11) 0.62802(12) 0.4905(3) 0.0573 Uani
H53 H 0.0873 0.6109 0.4832 0.0690 Uiso
C43 C 0.12986(10) 0.63048(11) 0.4447(3) 0.0473 Uani
H54 H 0.1328 0.6151 0.4045 0.0560 Uiso
C44 C 0.15344(9) 0.65500(10) 0.4554(2) 0.0317 Uani
C45 C 0.18174(9) 0.65496(9) 0.4033(2) 0.0297 Uani
C46 C 0.25662(10) 0.69145(10) 0.3861(3) 0.0353 Uani
C47 C 0.28937(10) 0.69021(11) 0.3469(3) 0.0490 Uani
H55 H 0.2876 0.6769 0.2996 0.0590 Uiso
H56 H 0.2961 0.7127 0.3322 0.0590 Uiso
C48 C 0.31533(12) 0.67521(14) 0.4001(3) 0.0700 Uani
H57 H 0.3154 0.6874 0.4492 0.0840 Uiso
H58 H 0.3372 0.6780 0.3764 0.0840 Uiso
C49 C 0.30986(15) 0.63952(15) 0.4163(4) 0.0887 Uani
H59 H 0.2881 0.6370 0.4406 0.1070 Uiso
H60 H 0.3093 0.6276 0.3669 0.1070 Uiso
C50 C 0.33538(16) 0.62344(19) 0.4677(4) 0.1130 Uani
H61 H 0.3356 0.6350 0.5177 0.1360 Uiso
H62 H 0.3573 0.6263 0.4441 0.1360 Uiso
C51 C 0.3297(2) 0.5874(2) 0.4819(6) 0.1847 Uani
H63 H 0.3324 0.5753 0.4338 0.2770 Uiso
H64 H 0.3456 0.5794 0.5197 0.2770 Uiso
H65 H 0.3074 0.5841 0.5014 0.2770 Uiso
C52 C 0.06605(14) 0.51788(13) -0.1500(3) 0.0633 Uani
H66 H 0.0447 0.5258 -0.1617 0.0760 Uiso
C53 C 0.08732(15) 0.53807(16) -0.1096(3) 0.0800 Uani
H67 H 0.0806 0.5595 -0.0949 0.0960 Uiso
C54 C 0.11834(17) 0.52681(14) -0.0911(4) 0.0790 Uani
C55 C 0.12564(17) 0.49547(13) -0.1132(3) 0.0800 Uani
H68 H 0.1461 0.4862 -0.0993 0.0960 Uiso
C56 C 0.10379(13) 0.47742(12) -0.1549(3) 0.0570 Uani
H69 H 0.1103 0.4562 -0.1717 0.0690 Uiso
C57 C 0.1415(2) 0.54870(16) -0.0464(4) 0.1163 Uani
H70 H 0.1393 0.5716 -0.0643 0.1400 Uiso
H71 H 0.1644 0.5416 -0.0552 0.1400 Uiso
O6J O 0.22418(7) 0.74437(7) 0.56767(16) 0.0403 Uani
N6J N 0.19781(8) 0.75808(8) 0.4375(2) 0.0322 Uani
Mn3J Mn 0.288250(15) 0.790160(15) 0.00700(4) 0.0341 Uani
Mn3A Mn 0.040160(15) 0.461750(15) -0.25700(4) 0.0341 Uani
N10F N 0.23778(9) 0.67571(10) 0.5771(2) 0.0460 Uani
O1 O 0.4030(3) 0.7528(4) 0.7574(11) 0.3730 Uani
N1 N 0.3652(3) 0.7385(3) 0.8287(6) 0.1740 Uani
C1 C 0.4015(7) 0.7215(7) 0.806(2) 0.5633 Uani
H1 H 0.4143 0.7026 0.8172 0.6740 Uiso
C2 C 0.3362(3) 0.7514(4) 0.7901(7) 0.2950 Uani
H2 H 0.3204 0.7336 0.7820 0.4440 Uiso
H3 H 0.3425 0.7607 0.7405 0.4440 Uiso
H4 H 0.3261 0.7685 0.8219 0.4440 Uiso
C3 C 0.3604(3) 0.7240(3) 0.8859(8) 0.2260 Uani
H5 H 0.3814 0.7191 0.9108 0.3390 Uiso
H6 H 0.3490 0.7034 0.8741 0.3390 Uiso
H7 H 0.3468 0.7372 0.9202 0.3390 Uiso
loop_
_atom_site_aniso_label
_atom_site_aniso_U_11
_atom_site_aniso_U_22
_atom_site_aniso_U_33
_atom_site_aniso_U_23
_atom_site_aniso_U_13
_atom_site_aniso_U_12
Mn1 0.0331(4) 0.0347(4) 0.0372(4) -0.0043(3) 0.0028(3) -0.0019(3)
O2 0.0397(17) 0.0422(18) 0.046(2) 0.0018(15) 0.0101(15) 0.0034(15)
O3 0.0384(17) 0.0316(16) 0.048(2) 0.0014(14) 0.0122(15) 0.0039(13)
O4 0.0318(16) 0.0431(18) 0.0423(19) 0.0029(15) 0.0044(14) 0.0033(14)
N2 0.0296(19) 0.0258(18) 0.040(2) -0.0005(16) -0.0026(16) -0.0020(15)
N3 0.034(2) 0.032(2) 0.043(2) -0.0016(17) 0.0055(17) 0.0033(17)
N4 0.044(2) 0.047(2) 0.040(3) -0.0060(19) 0.0010(19) -0.0144(19)
C4 0.033(2) 0.040(3) 0.034(3) -0.004(2) 0.001(2) 0.002(2)
C5 0.057(3) 0.043(3) 0.051(3) 0.008(2) 0.013(3) 0.011(2)
C6 0.063(3) 0.043(3) 0.060(4) 0.015(3) 0.006(3) 0.013(3)
C7 0.045(3) 0.040(3) 0.056(3) 0.000(2) 0.002(2) 0.011(2)
C8 0.036(3) 0.038(3) 0.043(3) -0.004(2) 0.002(2) -0.003(2)
C9 0.029(2) 0.034(2) 0.040(3) -0.009(2) -0.002(2) 0.0030(19)
C10 0.026(2) 0.033(2) 0.039(3) -0.005(2) -0.003(2) -0.0027(19)
C11 0.036(3) 0.034(2) 0.041(3) -0.002(2) -0.001(2) -0.002(2)
C12 0.051(3) 0.050(3) 0.070(4) 0.014(3) 0.016(3) 0.019(3)
C13 0.090(5) 0.107(5) 0.130(7) 0.065(5) -0.026(5) 0.025(4)
C14 0.320(16) 0.137(9) 0.198(13) 0.004(9) -0.178(13) 0.027(9)
C15 0.46(3) 0.263(17) 0.194(16) -0.030(14) -0.078(17) 0.191(18)
C16 0.332(18) 0.199(12) 0.34(2) 0.085(12) -0.181(15) 0.035(12)
C17 0.049(3) 0.054(3) 0.042(3) -0.004(2) 0.002(2) -0.013(2)
C18 0.066(4) 0.070(4) 0.050(4) -0.007(3) 0.009(3) -0.041(3)
C19 0.070(4) 0.108(5) 0.045(4) -0.008(3) 0.002(3) -0.052(4)
C20 0.093(4) 0.107(5) 0.039(3) -0.003(3) -0.003(3) -0.059(4)
C21 0.065(3) 0.072(4) 0.045(3) 0.001(3) 0.000(3) -0.033(3)
C22 0.166(7) 0.183(8) 0.045(4) -0.006(5) 0.000(5) -0.132(6)
Mn2 0.0348(4) 0.0305(4) 0.0421(4) -0.0004(3) 0.0042(3) 0.0005(3)
O5 0.0498(19) 0.0350(17) 0.050(2) -0.0072(15) -0.0032(16) -0.0019(14)
O6 0.0555(19) 0.0362(17) 0.0293(17) -0.0010(14) -0.0016(15) -0.0012(15)
O7 0.0370(17) 0.0314(16) 0.0409(19) 0.0067(14) 0.0018(14) 0.0037(13)
O8 0.046(2) 0.050(2) 0.063(2) -0.0015(17) 0.0124(18) 0.0064(17)
N5 0.0319(19) 0.0309(19) 0.036(2) -0.0074(16) -0.0006(17) -0.0018(15)
N6 0.0337(19) 0.0320(19) 0.031(2) -0.0021(16) -0.0036(16) -0.0008(16)
N7 0.055(3) 0.068(3) 0.106(5) 0.009(3) 0.027(3) 0.010(3)
C23 0.039(3) 0.041(3) 0.049(3) -0.015(2) 0.001(2) 0.002(2)
C24 0.054(3) 0.050(3) 0.073(4) -0.021(3) -0.013(3) -0.002(3)
C25 0.064(4) 0.083(5) 0.078(5) -0.036(4) -0.012(3) -0.014(3)
C26 0.077(4) 0.087(5) 0.060(4) -0.015(4) -0.028(3) 0.000(4)
C27 0.073(4) 0.053(3) 0.052(4) -0.010(3) -0.013(3) 0.009(3)
C28 0.034(2) 0.042(3) 0.041(3) -0.013(2) -0.006(2) 0.003(2)
C29 0.029(2) 0.039(3) 0.039(3) -0.006(2) 0.004(2) 0.002(2)
C30 0.031(2) 0.037(3) 0.033(3) -0.001(2) 0.004(2) 0.001(2)
C31 0.055(3) 0.037(3) 0.038(3) 0.002(2) -0.008(2) -0.001(2)
C32 0.058(3) 0.040(3) 0.078(4) 0.004(3) -0.029(3) -0.008(3)
C33 0.048(3) 0.066(4) 0.105(5) -0.001(4) 0.000(3) -0.001(3)
C34 0.058(4) 0.101(6) 0.175(9) -0.002(5) 0.003(5) 0.000(4)
C35 0.069(5) 0.162(8) 0.215(11) -0.001(8) 0.035(6) -0.005(5)
C36 0.053(3) 0.053(3) 0.069(4) 0.008(3) 0.015(3) 0.006(3)
C37 0.099(5) 0.101(6) 0.148(8) -0.041(5) 0.063(5) -0.008(4)
C38 0.040(4) 0.164(7) 0.181(8) 0.071(6) 0.022(4) 0.028(4)
Mn3 0.0391 0.0314 0.0319 0.0005 0.0013 0.0007
O9 0.0458 0.0374 0.046 -0.0043 0.0136 -0.0035
O10 0.0339 0.0358 0.0373 -0.0042 0.0029 -0.0067
O11 0.0356 0.0334 0.035 -0.0031 -0.0016 -0.0045
N8 0.0321 0.0276 0.033 0.002 0.0029 0.0024
N9 0.025 0.037 0.037 -0.0061 0.0082 -0.0017
N10 0.043 0.061 0.034 -0.008 -0.0063 0.001
C39 0.038 0.033 0.043 0.007 0.011 0.006
C40 0.061 0.044 0.054 -0.001 0.024 0.002
C41 0.051 0.058 0.073 -0.004 0.032 -0.007
C42 0.038 0.049 0.085 -0.009 0.021 -0.006
C43 0.036 0.048 0.058 -0.012 0.01 0.005
C44 0.028 0.029 0.038 0.0034 0.0026 0.0002
C45 0.029 0.024 0.036 0.0073 -0.0032 0.002
C46 0.037 0.032 0.037 -0.002 0.005 -0.001
C47 0.04 0.049 0.058 -0.02 0.01 -0.014
C48 0.036 0.088 0.086 -0.039 -0.001 0
C49 0.072 0.08 0.114 -0.031 -0.033 0.021
C50 0.083 0.134 0.122 -0.038 -0.039 0.052
C51 0.23 0.105 0.219 -0.02 -0.134 0.091
C52 0.058 0.073 0.059 -0.011 -0.017 0.002
C53 0.093 0.077 0.07 -0.027 -0.014 -0.008
C54 0.052 0.107 0.078 -0.037 -0.007 -0.015
C55 0.045 0.117 0.078 -0.037 -0.013 0.006
C56 0.042 0.077 0.052 -0.022 -0.015 0.002
C57 0.08 0.167 0.102 -0.073 -0.001 -0.046
O6J 0.0555 0.0362 0.0293 -0.001 -0.0016 -0.0012
N6J 0.0337 0.032 0.031 -0.0021 -0.0036 -0.0008
Mn3J 0.0391(4) 0.0314(4) 0.0319(4) 0.0005(3) 0.0013(3) 0.0007(3)
Mn3A 0.0314 0.0391 0.0319 0.0013 -0.0005 -0.0007
N10F 0.061 0.043 0.034 0.0063 -0.008 -0.001
O1 0.169(9) 0.41(2) 0.54(3) -0.117(18) -0.025(13) 0.042(11)
N1 0.200(10) 0.188(9) 0.134(9) 0.028(7) -0.018(8) 0.025(8)
C1 0.43(4) 0.44(4) 0.82(7) 0.21(4) 0.41(4) 0.10(3)
C2 0.168(12) 0.57(3) 0.147(12) 0.007(15) -0.001(10) 0.085(15)
C3 0.259(15) 0.214(13) 0.205(15) 0.114(11) 0.048(12) 0.084(11)
loop_
_geom_bond_atom_site_label_1
_geom_bond_atom_site_label_2
_geom_bond_site_symmetry_1
_geom_bond_site_symmetry_2
O1 C1 1_555 1_555
N1 C1 1_555 1_555
C1 H1 1_555 1_555
C2 N1 1_555 1_555
H2 C2 1_555 1_555
H3 C2 1_555 1_555
H4 C2 1_555 1_555
C3 N1 1_555 1_555
H5 C3 1_555 1_555
H6 C3 1_555 1_555
H7 C3 1_555 1_555
Mn1 O2 1_555 1_555
O2 C4 1_555 1_555
O3 C10 1_555 1_555
O4 Mn1 1_555 1_555
N2 Mn1 1_555 1_555
N3 N2 1_555 1_555
N4 Mn1 1_555 1_555
C4 C5 1_555 1_555
C5 H8 1_555 1_555
C6 C5 1_555 1_555
H9 C6 1_555 1_555
C7 C6 1_555 1_555
H10 C7 1_555 1_555
C8 C7 1_555 1_555
H11 C8 1_555 1_555
C9 C4 1_555 1_555
C10 N2 1_555 1_555
C11 O4 1_555 1_555
C12 C11 1_555 1_555
H12 C12 1_555 1_555
H13 C12 1_555 1_555
C13 C12 1_555 1_555
H14 C13 1_555 1_555
H15 C13 1_555 1_555
C14 C13 1_555 1_555
H16 C14 1_555 1_555
H17 C14 1_555 1_555
C15 C14 1_555 1_555
H18 C15 1_555 1_555
H19 C15 1_555 1_555
C16 C15 1_555 1_555
H20 C16 1_555 1_555
H21 C16 1_555 1_555
H22 C16 1_555 1_555
C17 N4 1_555 1_555
H23 C17 1_555 1_555
C18 C17 1_555 1_555
H24 C18 1_555 1_555
C19 C18 1_555 1_555
C20 C19 1_555 1_555
H25 C20 1_555 1_555
C21 N4 1_555 1_555
H26 C21 1_555 1_555
C22 C19 1_555 1_555
H27 C22 1_555 1_555
H28 C22 1_555 1_555
Mn2 O3 1_555 1_555
O5 Mn2 1_555 1_555
O6 C29 1_555 1_555
O7 Mn2 1_555 1_555
O8 Mn2 1_555 1_555
N5 Mn2 1_555 1_555
N6 N5 1_555 1_555
N7 C36 1_555 1_555
C23 O5 1_555 1_555
C24 C23 1_555 1_555
H29 C24 1_555 1_555
C25 C24 1_555 1_555
H30 C25 1_555 1_555
C26 C25 1_555 1_555
H31 C26 1_555 1_555
C27 C26 1_555 1_555
H32 C27 1_555 1_555
C28 C23 1_555 1_555
C29 N5 1_555 1_555
C30 O7 1_555 1_555
C31 C30 1_555 1_555
H33 C31 1_555 1_555
H34 C31 1_555 1_555
C32 C31 1_555 1_555
H35 C32 1_555 1_555
H36 C32 1_555 1_555
C33 C32 1_555 1_555
H37 C33 1_555 1_555
H38 C33 1_555 1_555
C34 C33 1_555 1_555
H39 C34 1_555 1_555
H40 C34 1_555 1_555
C35 C34 1_555 1_555
H41 C35 1_555 1_555
H42 C35 1_555 1_555
H43 C35 1_555 1_555
C36 O8 1_555 1_555
H44 C36 1_555 1_555
C37 N7 1_555 1_555
H45 C37 1_555 1_555
H46 C37 1_555 1_555
H47 C37 1_555 1_555
C38 N7 1_555 1_555
H48 C38 1_555 1_555
H49 C38 1_555 1_555
H50 C38 1_555 1_555
Mn3 O9 1_555 1_555
O9 C39 1_555 1_555
O10 Mn1 1_555 1_555
O11 Mn3 1_555 1_555
N8 Mn3 1_555 1_555
N9 Mn1 1_555 1_555
N10 C52 1_555 1_555
C39 C40 1_555 1_555
C40 H51 1_555 1_555
C41 C40 1_555 1_555
H52 C41 1_555 1_555
C42 C41 1_555 1_555
H53 C42 1_555 1_555
C43 C42 1_555 1_555
H54 C43 1_555 1_555
C44 C39 1_555 1_555
C45 O10 1_555 1_555
C46 O11 1_555 1_555
C47 C46 1_555 1_555
H55 C47 1_555 1_555
H56 C47 1_555 1_555
C48 C47 1_555 1_555
H57 C48 1_555 1_555
H58 C48 1_555 1_555
C49 C48 1_555 1_555
H59 C49 1_555 1_555
H60 C49 1_555 1_555
C50 C49 1_555 1_555
H61 C50 1_555 1_555
H62 C50 1_555 1_555
C51 C50 1_555 1_555
H63 C51 1_555 1_555
H64 C51 1_555 1_555
H65 C51 1_555 1_555
C52 H66 1_555 1_555
C53 C52 1_555 1_555
H67 C53 1_555 1_555
C54 C53 1_555 1_555
C55 C54 1_555 1_555
H68 C55 1_555 1_555
C56 N10 1_555 1_555
H69 C56 1_555 1_555
C57 C22 1_555 1_555
H70 C57 1_555 1_555
H71 C57 1_555 1_555
O6J Mn3 1_555 1_555
N6J Mn3 1_555 1_555
Mn3J O6 1_555 1_555
Mn3A N10 1_555 1_555
N10F Mn3 1_555 1_555
N3 C11 1_555 1_555
N3 Mn2 1_555 1_555
C8 C9 1_555 1_555
C9 C10 1_555 1_555
C20 C21 1_555 1_555
N6 C30 1_555 1_555
N6 Mn3J 1_555 1_555
C27 C28 1_555 1_555
C28 C29 1_555 1_555
N8 N9 1_555 1_555
N8 C45 1_555 1_555
N9 C46 1_555 1_555
C43 C44 1_555 1_555
C44 C45 1_555 1_555
C54 C57 1_555 1_555
C55 C56 1_555 1_555

#END
