
#######################################################################
#
#                 Cambridge Crystallographic Data Centre
#                                CCDC 
#
#######################################################################
#
# If this CIF has been generated from an entry in the Cambridge 
# Structural Database, then it will include bibliographic, chemical, 
# crystal, experimental, refinement or atomic coordinate data resulting 
# from the CCDC's data processing and validation procedures.
#
#######################################################################

data_OWITIY
_chemical_formula_moiety         '(C18 H6 Mn2 O12 2-)n'
_symmetry_cell_setting           tetragonal
_symmetry_space_group_name_H-M   'I 41/a c d'
_symmetry_Int_Tables_number      142
_space_group_name_Hall           'I 4bw 2aw -1bw'
loop_
_symmetry_equiv_pos_site_id
_symmetry_equiv_pos_as_xyz
1 x,y,z
2 1/2+x,-y,1/4-z
3 -x,1/2-y,1/4-z
4 1/2-x,1/2-y,1/2+z
5 -x,1/2+y,3/4-z
6 1/2+x,y,3/4-z
7 1/2-x,1/2+y,z
8 x,-y,1/2+z
9 -y,1/2+x,1/4+z
10 y,x,1/2-z
11 1/2-y,1/2-x,-z
12 -y,x,-z
13 1/2+y,1/2-x,1/2-z
14 y,1/2+x,3/4+z
15 1/2+y,-x,3/4+z
16 1/2-y,-x,1/4+z
17 1/2+x,1/2+y,1/2+z
18 x,1/2-y,3/4-z
19 1/2-x,-y,3/4-z
20 -x,-y,z
21 1/2-x,y,1/4-z
22 x,1/2+y,1/4-z
23 -x,y,1/2+z
24 1/2+x,1/2-y,z
25 1/2-y,x,3/4+z
26 1/2+y,1/2+x,-z
27 -y,-x,1/2-z
28 1/2-y,1/2+x,1/2-z
29 y,-x,-z
30 1/2+y,x,1/4+z
31 y,1/2-x,1/4+z
32 -y,1/2-x,3/4+z
_cell_length_a                   23.4246(6)
_cell_length_b                   23.4246(6)
_cell_length_c                   21.3264(12)
_cell_angle_alpha                90
_cell_angle_beta                 90
_cell_angle_gamma                90
_cell_volume                     11702
loop_
_atom_site_label
_atom_site_type_symbol
_atom_site_fract_x
_atom_site_fract_y
_atom_site_fract_z
_atom_site_U_iso_or_equiv
_atom_site_thermal_displace_type
C1 C 0.4863(2) 0.94292(17) 0.0012(2) 0.0509 Uani
C2 C 0.54418(16) 0.95582(16) 0.0000 0.0465 Uani
H1 H 0.5723 0.9277 0.0000 0.0560 Uiso
C3 C 0.3107(2) 0.8769(2) 0.11192(19) 0.0453 Uani
C4 C 0.2680(2) 0.8791(2) 0.0610(2) 0.0527 Uani
C5 C 0.2924(2) 0.8761(2) 0.1752(2) 0.0627 Uani
H2 H 0.3189 0.8736 0.2075 0.0750 Uiso
O1 O 0.46891(17) 0.89070(16) 0.0065(2) 0.0723 Uani
O2 O 0.36018(19) 0.87643(19) 0.09960(19) 0.0717 Uani
O3 O 0.2875(2) 0.8825(2) 0.00638(17) 0.0763 Uani
Mn1 Mn 0.37919(4) 0.87919(4) 0.0000 0.0670 Uani
C1J C 0.55708(17) 1.0137(2) -0.0012(2) 0.0509 Uani
C1Y C 0.44292(17) 0.9863(2) -0.0012(2) 0.0509 Uani
C1S C 0.5137(2) 1.05708(17) 0.0012(2) 0.0509 Uani
C2S C 0.45582(16) 1.04418(16) 0.0000 0.0465 Uani
H1S H 0.4277 1.0723 0.0000 0.0560 Uiso
C3T C 0.1893(2) 0.8769(2) 0.13808(19) 0.0453 Uani
C3Y C 0.3769(2) 0.8107(2) -0.11192(19) 0.0453 Uani
C3N C 0.3769(2) 0.6893(2) -0.13808(19) 0.0453 Uani
C4T C 0.2320(2) 0.8791(2) 0.1890(2) 0.0527 Uani
C4Y C 0.3791(2) 0.7680(2) -0.0610(2) 0.0527 Uani
C4N C 0.3791(2) 0.7320(2) -0.1890(2) 0.0527 Uani
C5T C 0.2076(2) 0.8761(2) 0.0748(2) 0.0627 Uani
C5Y C 0.3761(2) 0.7924(2) -0.1752(2) 0.0627 Uani
C5N C 0.3761(2) 0.7076(2) -0.0748(2) 0.0627 Uani
H2T H 0.1811 0.8736 0.0425 0.0750 Uiso
H2Y H 0.3736 0.8189 -0.2075 0.0750 Uiso
H2N H 0.3736 0.6811 -0.0425 0.0750 Uiso
O1J O 0.60930(16) 1.03109(17) -0.0065(2) 0.0723 Uani
O1Y O 0.39070(16) 0.96891(17) -0.0065(2) 0.0723 Uani
O1S O 0.53109(17) 1.10930(16) 0.0065(2) 0.0723 Uani
O2T O 0.13982(19) 0.87643(19) 0.15040(19) 0.0717 Uani
O2Y O 0.37643(19) 0.86018(19) -0.09960(19) 0.0717 Uani
O2N O 0.37643(19) 0.63982(19) -0.15040(19) 0.0717 Uani
O2S O 0.63982(19) 1.12357(19) 0.09960(19) 0.0717 Uani
O2J O 0.62357(19) 1.13982(19) -0.09960(19) 0.0717 Uani
O3T O 0.2125(2) 0.8825(2) 0.24362(17) 0.0763 Uani
O3Y O 0.3825(2) 0.7875(2) -0.00638(17) 0.0763 Uani
O3N O 0.3825(2) 0.7125(2) -0.24362(17) 0.0763 Uani
O3S O 0.7125(2) 1.1175(2) 0.00638(17) 0.0763 Uani
O3J O 0.6175(2) 1.2125(2) -0.00638(17) 0.0763 Uani
Mn1J Mn 0.62081(4) 1.12081(4) 0.0000 0.0670 Uani
Mn1H Mn 0.12081(4) 0.87919(4) 0.2500 0.0670 Uani
Mn1N Mn 0.37919(4) 0.62081(4) -0.2500 0.0670 Uani
loop_
_atom_site_aniso_label
_atom_site_aniso_U_11
_atom_site_aniso_U_22
_atom_site_aniso_U_33
_atom_site_aniso_U_23
_atom_site_aniso_U_13
_atom_site_aniso_U_12
C1 0.058(3) 0.0217(17) 0.073(3) 0.0117(19) 0.046(2) -0.0007(18)
C2 0.0323(18) 0.0323(18) 0.075(4) 0.015(2) 0.015(2) 0.013(2)
C3 0.041(2) 0.058(3) 0.037(2) 0.0021(19) -0.0169(18) -0.0139(19)
C4 0.061 0.061 0.036 -0.015 -0.016 -0.012
C5 0.051(3) 0.088(4) 0.049(3) -0.014(3) -0.018(2) -0.015(3)
O1 0.057(2) 0.0418(19) 0.118(3) 0.009(2) 0.004(2) -0.0063(16)
O2 0.057(2) 0.103(3) 0.055(2) -0.0064(19) -0.0141(18) -0.005(2)
O3 0.07 0.107 0.052 0.024 -0.0075 -0.03
Mn1 0.0660(7) 0.0660(7) 0.0690(9) 0.0049(5) -0.0049(5) -0.0227(6)
C1J 0.0217 0.058 0.073 0.046 0.0117 -0.0007
C1Y 0.0217 0.058 0.073 -0.046 -0.0117 -0.0007
C1S 0.058 0.0217 0.073 -0.0117 -0.046 -0.0007
C2S 0.0323 0.0323 0.075 -0.015 -0.015 0.013
C3T 0.041 0.058 0.037 -0.0021 -0.0169 0.0139
C3Y 0.058 0.041 0.037 0.0169 -0.0021 -0.0139
C3N 0.058 0.041 0.037 0.0169 0.0021 0.0139
C4T 0.061 0.061 0.036 0.015 -0.016 0.012
C4Y 0.061 0.061 0.036 0.016 0.015 -0.012
C4N 0.061 0.061 0.036 0.016 -0.015 0.012
C5T 0.051 0.088 0.049 0.014 -0.018 0.015
C5Y 0.088 0.051 0.049 0.018 0.014 -0.015
C5N 0.088 0.051 0.049 0.018 -0.014 0.015
O1J 0.0418 0.057 0.118 0.004 0.009 -0.0063
O1Y 0.0418 0.057 0.118 -0.004 -0.009 -0.0063
O1S 0.057 0.0418 0.118 -0.009 -0.004 -0.0063
O2T 0.057 0.103 0.055 0.0064 -0.0141 0.005
O2Y 0.103 0.057 0.055 0.0141 0.0064 -0.005
O2N 0.103 0.057 0.055 0.0141 -0.0064 0.005
O2S 0.057 0.103 0.055 0.0064 0.0141 -0.005
O2J 0.103 0.057 0.055 -0.0141 -0.0064 -0.005
O3T 0.07 0.107 0.052 -0.024 -0.0075 0.03
O3Y 0.107 0.07 0.052 0.0075 -0.024 -0.03
O3N 0.107 0.07 0.052 0.0075 0.024 0.03
O3S 0.07 0.107 0.052 -0.024 0.0075 -0.03
O3J 0.107 0.07 0.052 -0.0075 0.024 -0.03
Mn1J 0.066 0.066 0.069 -0.0049 0.0049 -0.0227
Mn1H 0.066 0.066 0.069 -0.0049 -0.0049 0.0227
Mn1N 0.066 0.066 0.069 0.0049 0.0049 0.0227
loop_
_geom_bond_atom_site_label_1
_geom_bond_atom_site_label_2
_geom_bond_site_symmetry_1
_geom_bond_site_symmetry_2
C1 C2 1_555 1_555
C2 H1 1_555 1_555
C3 C4 1_555 1_555
C4 O3 1_555 1_555
C5 C3 1_555 1_555
H2 C5 1_555 1_555
O1 C1 1_555 1_555
O2 C3 1_555 1_555
O3 Mn1 1_555 1_555
Mn1 O1 1_555 1_555
C1J C2 1_555 1_555
C1Y C1 1_555 1_555
C1S C1J 1_555 1_555
C2S C1Y 1_555 1_555
H1S C2S 1_555 1_555
C3T C4T 1_555 1_555
C3Y C4Y 1_555 1_555
C3N C4N 1_555 1_555
C4T C5 1_555 1_555
C4Y C5N 1_555 1_555
C4N C5Y 1_555 1_555
C5T C4 1_555 1_555
C5Y C3Y 1_555 1_555
C5N C3N 1_555 1_555
H2T C5T 1_555 1_555
H2Y C5Y 1_555 1_555
H2N C5N 1_555 1_555
O1J C1J 1_555 1_555
O1Y Mn1 1_555 1_555
O1S C1S 1_555 1_555
O2T C3T 1_555 1_555
O2Y Mn1 1_555 1_555
O2N C3N 1_555 1_555
O2S Mn1J 1_555 1_555
O2J Mn1J 1_555 1_555
O3T C4T 1_555 1_555
O3Y Mn1 1_555 1_555
O3N C4N 1_555 1_555
O3S Mn1J 1_555 1_555
O3J Mn1J 1_555 1_555
Mn1J O1J 1_555 1_555
Mn1H O2T 1_555 1_555
Mn1N O2N 1_555 1_555
O2 Mn1 1_555 1_555
C1Y O1Y 1_555 1_555
C1S C2S 1_555 1_555
C3T C5T 1_555 1_555
C3Y O2Y 1_555 1_555
C4Y O3Y 1_555 1_555
O1S Mn1J 1_555 1_555
O3T Mn1H 1_555 1_555
O3N Mn1N 1_555 1_555

#END
