
#######################################################################
#
#                 Cambridge Crystallographic Data Centre
#                                CCDC 
#
#######################################################################
#
# If this CIF has been generated from an entry in the Cambridge 
# Structural Database, then it will include bibliographic, chemical, 
# crystal, experimental, refinement or atomic coordinate data resulting 
# from the CCDC's data processing and validation procedures.
#
#######################################################################

data_OWITEU
_chemical_formula_moiety         '(C18 H6 Co2 O12 2-)n'
_symmetry_cell_setting           cubic
_symmetry_space_group_name_H-M   'I a -3 d'
_symmetry_Int_Tables_number      230
_space_group_name_Hall           '-I 4bd 2c 3'
loop_
_symmetry_equiv_pos_site_id
_symmetry_equiv_pos_as_xyz
1 x,y,z
2 x,-y,1/2-z
3 1/2-x,-y,1/2+z
4 1/2-x,y,-z
5 1/4-y,3/4+x,1/4+z
6 1/4+y,3/4+x,3/4-z
7 1/4+y,1/4-x,3/4+z
8 1/4-y,1/4-x,1/4-z
9 y,z,x
10 1/2-y,-z,1/2+x
11 y,-z,1/2-x
12 1/2-y,z,-x
13 1/4-z,3/4+y,1/4+x
14 1/4-z,1/4-y,1/4-x
15 1/4+z,1/4-y,3/4+x
16 1/4+z,3/4+y,3/4-x
17 z,x,y
18 -z,1/2+x,1/2-y
19 -z,1/2-x,y
20 z,-x,1/2-y
21 1/4-x,1/4-z,1/4-y
22 1/4-x,3/4+z,1/4+y
23 3/4+x,3/4-z,1/4+y
24 1/4+x,3/4+z,3/4-y
25 1/2+x,1/2+y,1/2+z
26 1/2+x,1/2-y,-z
27 -x,1/2-y,z
28 -x,1/2+y,1/2-z
29 3/4-y,1/4+x,3/4+z
30 3/4+y,1/4+x,1/4-z
31 3/4+y,3/4-x,1/4+z
32 3/4-y,3/4-x,3/4-z
33 1/2+y,1/2+z,1/2+x
34 -y,1/2-z,x
35 1/2+y,1/2-z,-x
36 -y,1/2+z,1/2-x
37 3/4-z,1/4+y,3/4+x
38 3/4-z,3/4-y,3/4-x
39 3/4+z,3/4-y,1/4+x
40 3/4+z,1/4+y,1/4-x
41 1/2+z,1/2+x,1/2+y
42 1/2-z,x,-y
43 1/2-z,-x,1/2+y
44 1/2+z,1/2-x,-y
45 3/4-x,3/4-z,3/4-y
46 3/4-x,1/4+z,3/4+y
47 1/4+x,1/4-z,3/4+y
48 3/4+x,1/4+z,1/4-y
49 -x,-y,-z
50 -x,y,1/2+z
51 1/2+x,y,1/2-z
52 1/2+x,-y,z
53 3/4+y,1/4-x,3/4-z
54 3/4-y,1/4-x,1/4+z
55 3/4-y,3/4+x,1/4-z
56 3/4+y,3/4+x,3/4+z
57 -y,-z,-x
58 1/2+y,z,1/2-x
59 -y,z,1/2+x
60 1/2+y,-z,x
61 3/4+z,1/4-y,3/4-x
62 3/4+z,3/4+y,3/4+x
63 3/4-z,3/4+y,1/4-x
64 3/4-z,1/4-y,1/4+x
65 -z,-x,-y
66 z,1/2-x,1/2+y
67 z,1/2+x,-y
68 -z,x,1/2+y
69 3/4+x,3/4+z,3/4+y
70 3/4+x,1/4-z,3/4-y
71 1/4-x,1/4+z,3/4-y
72 3/4-x,1/4-z,1/4+y
73 1/2-x,1/2-y,1/2-z
74 1/2-x,1/2+y,z
75 x,1/2+y,-z
76 x,1/2-y,1/2+z
77 1/4+y,3/4-x,1/4-z
78 1/4-y,3/4-x,3/4+z
79 1/4-y,1/4+x,3/4-z
80 1/4+y,1/4+x,1/4+z
81 1/2-y,1/2-z,1/2-x
82 y,1/2+z,-x
83 1/2-y,1/2+z,x
84 y,1/2-z,1/2+x
85 1/4+z,3/4-y,1/4-x
86 1/4+z,1/4+y,1/4+x
87 1/4-z,1/4+y,3/4-x
88 1/4-z,3/4-y,3/4+x
89 1/2-z,1/2-x,1/2-y
90 1/2+z,-x,y
91 1/2+z,x,1/2-y
92 1/2-z,1/2+x,y
93 1/4+x,1/4+z,1/4+y
94 1/4+x,3/4-z,1/4-y
95 3/4-x,3/4+z,1/4-y
96 1/4-x,3/4-z,3/4+y
_cell_length_a                   22.2434(11)
_cell_length_b                   22.2434(11)
_cell_length_c                   22.2434(11)
_cell_angle_alpha                90
_cell_angle_beta                 90
_cell_angle_gamma                90
_cell_volume                     11005.3
loop_
_atom_site_label
_atom_site_type_symbol
_atom_site_fract_x
_atom_site_fract_y
_atom_site_fract_z
_atom_site_U_iso_or_equiv
_atom_site_thermal_displace_type
Co1 Co 0.6250 0.6250 0.6250 0.0614 Uani
O1 O 0.63467(18) 0.6260(2) 0.5328(2) 0.0653 Uani
C1 C 0.6866(3) 0.6237(3) 0.5163(3) 0.0563 Uani
C2 C 0.7028(2) 0.6250 0.4528(2) 0.0610 Uani
H1 H 0.6732 0.6250 0.4232 0.0730 Uiso
Co1C Co 0.8750 0.6250 0.3750 0.0614 Uani
Co1A Co 0.6250 0.3750 0.8750 0.0614 Uani
Co1R Co 0.3750 0.8750 0.6250 0.0614 Uani
O1N O 0.7828(2) 0.6240(2) 0.38467(18) 0.0653 Uani
O1C O 0.86533(18) 0.6260(2) 0.4672(2) 0.0653 Uani
O1M O 0.7172(2) 0.6240(2) 0.61533(18) 0.0653 Uani
O1G O 0.6240(2) 0.61533(18) 0.7172(2) 0.0653 Uani
O1J O 0.6260(2) 0.4672(2) 0.86533(18) 0.0653 Uani
O1D O 0.6240(2) 0.38467(18) 0.7828(2) 0.0653 Uani
O1H O 0.6260(2) 0.5328(2) 0.63467(18) 0.0653 Uani
O1P O 0.5328(2) 0.63467(18) 0.6260(2) 0.0653 Uani
O1UA O 0.38467(18) 0.7828(2) 0.6240(2) 0.0653 Uani
O1R O 0.4672(2) 0.86533(18) 0.6260(2) 0.0653 Uani
O1T O 0.61533(18) 0.7172(2) 0.6240(2) 0.0653 Uani
O1U O 0.61533(18) 0.2828(2) 0.8760(2) 0.0653 Uani
O1S O 0.5328(2) 0.36533(18) 0.8740(2) 0.0653 Uani
O1A O 0.63467(18) 0.3740(2) 0.9672(2) 0.0653 Uani
O1L O 0.7172(2) 0.3760(2) 0.88467(18) 0.0653 Uani
C1N C 0.7663(3) 0.6263(3) 0.4366(3) 0.0563 Uani
C1C C 0.8134(3) 0.6237(3) 0.4837(3) 0.0563 Uani
C1M C 0.7337(3) 0.6263(3) 0.5634(3) 0.0563 Uani
C1G C 0.6263(3) 0.5634(3) 0.7337(3) 0.0563 Uani
C1J C 0.6237(3) 0.4837(3) 0.8134(3) 0.0563 Uani
C1D C 0.6263(3) 0.4366(3) 0.7663(3) 0.0563 Uani
C1H C 0.6237(3) 0.5163(3) 0.6866(3) 0.0563 Uani
C1P C 0.5163(3) 0.6866(3) 0.6237(3) 0.0563 Uani
C1UA C 0.4366(3) 0.7663(3) 0.6263(3) 0.0563 Uani
C1R C 0.4837(3) 0.8134(3) 0.6237(3) 0.0563 Uani
C1T C 0.5634(3) 0.7337(3) 0.6263(3) 0.0563 Uani
C2C C 0.7972(2) 0.6250 0.5472(2) 0.0610 Uani
C2G C 0.6250 0.5472(2) 0.7972(2) 0.0610 Uani
C2D C 0.6250 0.4528(2) 0.7028(2) 0.0610 Uani
C2P C 0.4528(2) 0.7028(2) 0.6250 0.0610 Uani
C2R C 0.5472(2) 0.7972(2) 0.6250 0.0610 Uani
H1C H 0.8268 0.6250 0.5768 0.0730 Uiso
H1G H 0.6250 0.5768 0.8268 0.0730 Uiso
H1D H 0.6250 0.4232 0.6732 0.0730 Uiso
H1P H 0.4232 0.6732 0.6250 0.0730 Uiso
H1R H 0.5768 0.8268 0.6250 0.0730 Uiso
loop_
_atom_site_aniso_label
_atom_site_aniso_U_11
_atom_site_aniso_U_22
_atom_site_aniso_U_33
_atom_site_aniso_U_23
_atom_site_aniso_U_13
_atom_site_aniso_U_12
Co1 0.0614(11) 0.0614(11) 0.0614(11) 0.0171(8) 0.0171(8) 0.0171(8)
O1 0.037(2) 0.094(4) 0.065(3) 0.026(2) 0.0030(19) -0.010(2)
C1 0.054(3) 0.073(4) 0.042(3) 0.003(3) 0.004(3) 0.002(3)
C2 0.037(3) 0.109(8) 0.037(3) -0.013(3) -0.014(3) 0.013(3)
Co1C 0.0614 0.0614 0.0614 -0.0171 0.0171 -0.0171
Co1A 0.0614 0.0614 0.0614 0.0171 -0.0171 -0.0171
Co1R 0.0614 0.0614 0.0614 -0.0171 -0.0171 0.0171
O1N 0.065 0.094 0.037 0.01 0.003 -0.026
O1C 0.037 0.094 0.065 -0.026 0.003 0.01
O1M 0.065 0.094 0.037 -0.01 0.003 0.026
O1G 0.094 0.037 0.065 0.003 0.026 -0.01
O1J 0.094 0.065 0.037 0.003 0.01 -0.026
O1D 0.094 0.037 0.065 0.003 -0.026 0.01
O1H 0.094 0.065 0.037 0.003 -0.01 0.026
O1P 0.065 0.037 0.094 -0.01 0.026 0.003
O1UA 0.037 0.065 0.094 -0.026 0.01 0.003
O1R 0.065 0.037 0.094 0.01 -0.026 0.003
O1T 0.037 0.065 0.094 0.026 -0.01 0.003
O1U 0.037 0.065 0.094 0.026 0.01 -0.003
O1S 0.065 0.037 0.094 -0.01 -0.026 -0.003
O1A 0.037 0.094 0.065 0.026 -0.003 0.01
O1L 0.065 0.094 0.037 -0.01 -0.003 -0.026
C1N 0.042 0.073 0.054 -0.002 0.004 -0.003
C1C 0.054 0.073 0.042 -0.003 0.004 -0.002
C1M 0.042 0.073 0.054 0.002 0.004 0.003
C1G 0.073 0.054 0.042 0.004 0.003 0.002
C1J 0.073 0.042 0.054 0.004 -0.002 -0.003
C1D 0.073 0.054 0.042 0.004 -0.003 -0.002
C1H 0.073 0.042 0.054 0.004 0.002 0.003
C1P 0.042 0.054 0.073 0.002 0.003 0.004
C1UA 0.054 0.042 0.073 -0.003 -0.002 0.004
C1R 0.042 0.054 0.073 -0.002 -0.003 0.004
C1T 0.054 0.042 0.073 0.003 0.002 0.004
C2C 0.037 0.109 0.037 0.013 -0.014 -0.013
C2G 0.109 0.037 0.037 -0.014 -0.013 0.013
C2D 0.109 0.037 0.037 -0.014 0.013 -0.013
C2P 0.037 0.037 0.109 0.013 -0.013 -0.014
C2R 0.037 0.037 0.109 -0.013 0.013 -0.014
loop_
_geom_bond_atom_site_label_1
_geom_bond_atom_site_label_2
_geom_bond_site_symmetry_1
_geom_bond_site_symmetry_2
Co1 O1 1_555 1_555
O1 C1 1_555 1_555
C1 C2 1_555 1_555
C2 H1 1_555 1_555
Co1C O1N 1_555 1_555
Co1A O1J 1_555 1_555
Co1R O1UA 1_555 1_555
O1N C1N 1_555 1_555
O1C Co1C 1_555 1_555
O1M Co1 1_555 1_555
O1G Co1 1_555 1_555
O1J C1J 1_555 1_555
O1D Co1A 1_555 1_555
O1H Co1 1_555 1_555
O1P Co1 1_555 1_555
O1UA C1UA 1_555 1_555
O1R Co1R 1_555 1_555
O1T Co1 1_555 1_555
O1U Co1A 1_555 1_555
O1S Co1A 1_555 1_555
O1A Co1A 1_555 1_555
O1L Co1A 1_555 1_555
C1N C2 1_555 1_555
C1C O1C 1_555 1_555
C1M C1 1_555 1_555
C1G O1G 1_555 1_555
C1J C1D 1_555 1_555
C1D O1D 1_555 1_555
C1H O1H 1_555 1_555
C1P O1P 1_555 1_555
C1UA C1R 1_555 1_555
C1R O1R 1_555 1_555
C1T O1T 1_555 1_555
C2C C1C 1_555 1_555
C2G C1G 1_555 1_555
C2D C1D 1_555 1_555
C2P C1P 1_555 1_555
C2R C1R 1_555 1_555
H1C C2C 1_555 1_555
H1G C2G 1_555 1_555
H1D C2D 1_555 1_555
H1P C2P 1_555 1_555
H1R C2R 1_555 1_555
O1M C1M 1_555 1_555
C1N C1C 1_555 1_555
C1M C2C 1_555 1_555
C1G C1H 1_555 1_555
C1J C2G 1_555 1_555
C1H C2D 1_555 1_555
C1P C1T 1_555 1_555
C1UA C2P 1_555 1_555
C1T C2R 1_555 1_555

#END
