
#######################################################################
#
#                 Cambridge Crystallographic Data Centre
#                                CCDC 
#
#######################################################################
#
# If this CIF has been generated from an entry in the Cambridge 
# Structural Database, then it will include bibliographic, chemical, 
# crystal, experimental, refinement or atomic coordinate data resulting 
# from the CCDC's data processing and validation procedures.
#
#######################################################################

data_OWITUK
_chemical_formula_moiety         '(C18 H6 Fe2 O12 2-)n'
_symmetry_cell_setting           cubic
_symmetry_space_group_name_H-M   'I a -3 d'
_symmetry_Int_Tables_number      230
_space_group_name_Hall           '-I 4bd 2c 3'
loop_
_symmetry_equiv_pos_site_id
_symmetry_equiv_pos_as_xyz
1 x,y,z
2 x,-y,1/2-z
3 1/2-x,-y,1/2+z
4 1/2-x,y,-z
5 1/4-y,3/4+x,1/4+z
6 1/4+y,3/4+x,3/4-z
7 1/4+y,1/4-x,3/4+z
8 1/4-y,1/4-x,1/4-z
9 y,z,x
10 1/2-y,-z,1/2+x
11 y,-z,1/2-x
12 1/2-y,z,-x
13 1/4-z,3/4+y,1/4+x
14 1/4-z,1/4-y,1/4-x
15 1/4+z,1/4-y,3/4+x
16 1/4+z,3/4+y,3/4-x
17 z,x,y
18 -z,1/2+x,1/2-y
19 -z,1/2-x,y
20 z,-x,1/2-y
21 1/4-x,1/4-z,1/4-y
22 1/4-x,3/4+z,1/4+y
23 3/4+x,3/4-z,1/4+y
24 1/4+x,3/4+z,3/4-y
25 1/2+x,1/2+y,1/2+z
26 1/2+x,1/2-y,-z
27 -x,1/2-y,z
28 -x,1/2+y,1/2-z
29 3/4-y,1/4+x,3/4+z
30 3/4+y,1/4+x,1/4-z
31 3/4+y,3/4-x,1/4+z
32 3/4-y,3/4-x,3/4-z
33 1/2+y,1/2+z,1/2+x
34 -y,1/2-z,x
35 1/2+y,1/2-z,-x
36 -y,1/2+z,1/2-x
37 3/4-z,1/4+y,3/4+x
38 3/4-z,3/4-y,3/4-x
39 3/4+z,3/4-y,1/4+x
40 3/4+z,1/4+y,1/4-x
41 1/2+z,1/2+x,1/2+y
42 1/2-z,x,-y
43 1/2-z,-x,1/2+y
44 1/2+z,1/2-x,-y
45 3/4-x,3/4-z,3/4-y
46 3/4-x,1/4+z,3/4+y
47 1/4+x,1/4-z,3/4+y
48 3/4+x,1/4+z,1/4-y
49 -x,-y,-z
50 -x,y,1/2+z
51 1/2+x,y,1/2-z
52 1/2+x,-y,z
53 3/4+y,1/4-x,3/4-z
54 3/4-y,1/4-x,1/4+z
55 3/4-y,3/4+x,1/4-z
56 3/4+y,3/4+x,3/4+z
57 -y,-z,-x
58 1/2+y,z,1/2-x
59 -y,z,1/2+x
60 1/2+y,-z,x
61 3/4+z,1/4-y,3/4-x
62 3/4+z,3/4+y,3/4+x
63 3/4-z,3/4+y,1/4-x
64 3/4-z,1/4-y,1/4+x
65 -z,-x,-y
66 z,1/2-x,1/2+y
67 z,1/2+x,-y
68 -z,x,1/2+y
69 3/4+x,3/4+z,3/4+y
70 3/4+x,1/4-z,3/4-y
71 1/4-x,1/4+z,3/4-y
72 3/4-x,1/4-z,1/4+y
73 1/2-x,1/2-y,1/2-z
74 1/2-x,1/2+y,z
75 x,1/2+y,-z
76 x,1/2-y,1/2+z
77 1/4+y,3/4-x,1/4-z
78 1/4-y,3/4-x,3/4+z
79 1/4-y,1/4+x,3/4-z
80 1/4+y,1/4+x,1/4+z
81 1/2-y,1/2-z,1/2-x
82 y,1/2+z,-x
83 1/2-y,1/2+z,x
84 y,1/2-z,1/2+x
85 1/4+z,3/4-y,1/4-x
86 1/4+z,1/4+y,1/4+x
87 1/4-z,1/4+y,3/4-x
88 1/4-z,3/4-y,3/4+x
89 1/2-z,1/2-x,1/2-y
90 1/2+z,-x,y
91 1/2+z,x,1/2-y
92 1/2-z,1/2+x,y
93 1/4+x,1/4+z,1/4+y
94 1/4+x,3/4-z,1/4-y
95 3/4-x,3/4+z,1/4-y
96 1/4-x,3/4-z,3/4+y
_cell_length_a                   22.1408(10)
_cell_length_b                   22.1408(10)
_cell_length_c                   22.1408(10)
_cell_angle_alpha                90
_cell_angle_beta                 90
_cell_angle_gamma                90
_cell_volume                     10853.8
loop_
_atom_site_label
_atom_site_type_symbol
_atom_site_fract_x
_atom_site_fract_y
_atom_site_fract_z
_atom_site_U_iso_or_equiv
_atom_site_thermal_displace_type
Fe1 Fe 0.8750 0.3750 0.1250 0.0446 Uani
O1 O 0.88404(15) 0.28434(17) 0.12822(17) 0.0508 Uani
C1 C 0.93782(18) 0.26524(17) 0.12655(18) 0.0381 Uani
C2 C 0.95388(18) 0.20388(18) 0.1250 0.0499 Uani
H1 H 0.9242 0.1742 0.1250 0.0600 Uiso
Fe1K Fe 1.1250 0.1250 0.1250 0.0446 Uani
Fe1A Fe 0.8750 0.6250 0.3750 0.0446 Uani
Fe1C Fe 0.6250 0.3750 -0.1250 0.0446 Uani
O1CA O 1.03434(17) 0.13404(15) 0.12178(17) 0.0508 Uani
O1Z O 1.11596(15) 0.21566(17) 0.12822(17) 0.0508 Uani
O1G O 0.96566(17) 0.36596(15) 0.12178(17) 0.0508 Uani
O1LA O 0.87822(17) 0.46566(17) 0.13404(15) 0.0508 Uani
O1R O 0.87178(17) 0.61596(15) 0.28434(17) 0.0508 Uani
O1MA O 0.87822(17) 0.53434(17) 0.36596(15) 0.0508 Uani
O1Q O 0.87178(17) 0.38404(15) 0.21566(17) 0.0508 Uani
O1SA O 0.86596(15) 0.37822(17) 0.03434(17) 0.0508 Uani
O1GA O 0.71566(17) 0.37178(17) -0.11596(15) 0.0508 Uani
O1UA O 0.63404(15) 0.37822(17) -0.03434(17) 0.0508 Uani
O1HA O 0.78434(17) 0.37178(17) 0.11596(15) 0.0508 Uani
O1RA O 0.86596(15) 0.62178(17) 0.46566(17) 0.0508 Uani
O1FA O 0.78434(17) 0.62822(17) 0.38404(15) 0.0508 Uani
O1D O 0.96566(17) 0.63404(15) 0.37822(17) 0.0508 Uani
O1A O 0.88404(15) 0.71566(17) 0.37178(17) 0.0508 Uani
C1CA C 1.01524(17) 0.18782(18) 0.12345(18) 0.0381 Uani
C1Z C 1.06218(18) 0.23476(17) 0.12655(18) 0.0381 Uani
C1G C 0.98476(17) 0.31218(18) 0.12345(18) 0.0381 Uani
C1LA C 0.87655(18) 0.48476(17) 0.18782(18) 0.0381 Uani
C1R C 0.87345(18) 0.56218(18) 0.26524(17) 0.0381 Uani
C1MA C 0.87655(18) 0.51524(17) 0.31218(18) 0.0381 Uani
C1Q C 0.87345(18) 0.43782(18) 0.23476(17) 0.0381 Uani
C1SA C 0.81218(18) 0.37655(18) 0.01524(17) 0.0381 Uani
C1GA C 0.73476(17) 0.37345(18) -0.06218(18) 0.0381 Uani
C1UA C 0.68782(18) 0.37655(18) -0.01524(17) 0.0381 Uani
C1HA C 0.76524(17) 0.37345(18) 0.06218(18) 0.0381 Uani
C2G C 1.04612(18) 0.29612(18) 0.1250 0.0499 Uani
C2R C 0.8750 0.54612(18) 0.20388(18) 0.0499 Uani
C2Q C 0.8750 0.45388(18) 0.29612(18) 0.0499 Uani
C2GA C 0.79612(18) 0.3750 -0.04612(18) 0.0499 Uani
C2HA C 0.70388(18) 0.3750 0.04612(18) 0.0499 Uani
H1G H 1.0758 0.3258 0.1250 0.0600 Uiso
H1R H 0.8750 0.5758 0.1742 0.0600 Uiso
H1Q H 0.8750 0.4242 0.3258 0.0600 Uiso
H1GA H 0.8258 0.3750 -0.0758 0.0600 Uiso
H1HA H 0.6742 0.3750 0.0758 0.0600 Uiso
loop_
_atom_site_aniso_label
_atom_site_aniso_U_11
_atom_site_aniso_U_22
_atom_site_aniso_U_33
_atom_site_aniso_U_23
_atom_site_aniso_U_13
_atom_site_aniso_U_12
Fe1 0.0446(7) 0.0446(7) 0.0446(7) -0.0058(4) -0.0058(4) 0.0058(4)
O1 0.0317(15) 0.0437(19) 0.077(3) -0.0135(15) 0.0039(14) 0.0054(13)
C1 0.0317(19) 0.0296(19) 0.053(2) -0.0020(15) 0.0021(17) -0.0006(16)
C2 0.0313(18) 0.0313(18) 0.087(5) 0.014(2) -0.014(2) -0.010(2)
Fe1K 0.0446 0.0446 0.0446 0.0058 0.0058 0.0058
Fe1A 0.0446 0.0446 0.0446 -0.0058 0.0058 -0.0058
Fe1C 0.0446 0.0446 0.0446 0.0058 -0.0058 -0.0058
O1CA 0.0437 0.0317 0.077 -0.0039 0.0135 0.0054
O1Z 0.0317 0.0437 0.077 0.0135 -0.0039 0.0054
O1G 0.0437 0.0317 0.077 0.0039 -0.0135 0.0054
O1LA 0.077 0.0437 0.0317 -0.0054 0.0039 0.0135
O1R 0.077 0.0317 0.0437 -0.0054 0.0135 0.0039
O1MA 0.077 0.0437 0.0317 -0.0054 -0.0039 -0.0135
O1Q 0.077 0.0317 0.0437 -0.0054 -0.0135 -0.0039
O1SA 0.0317 0.077 0.0437 -0.0135 -0.0054 -0.0039
O1GA 0.0437 0.077 0.0317 -0.0039 -0.0054 -0.0135
O1UA 0.0317 0.077 0.0437 0.0135 -0.0054 0.0039
O1HA 0.0437 0.077 0.0317 0.0039 -0.0054 0.0135
O1RA 0.0317 0.077 0.0437 -0.0135 0.0054 0.0039
O1FA 0.0437 0.077 0.0317 0.0039 0.0054 -0.0135
O1D 0.0437 0.0317 0.077 0.0039 0.0135 -0.0054
O1A 0.0317 0.0437 0.077 -0.0135 -0.0039 -0.0054
C1CA 0.0296 0.0317 0.053 -0.0021 0.002 -0.0006
C1Z 0.0317 0.0296 0.053 0.002 -0.0021 -0.0006
C1G 0.0296 0.0317 0.053 0.0021 -0.002 -0.0006
C1LA 0.053 0.0296 0.0317 0.0006 0.0021 0.002
C1R 0.053 0.0317 0.0296 0.0006 0.002 0.0021
C1MA 0.053 0.0296 0.0317 0.0006 -0.0021 -0.002
C1Q 0.053 0.0317 0.0296 0.0006 -0.002 -0.0021
C1SA 0.0317 0.053 0.0296 -0.002 0.0006 -0.0021
C1GA 0.0296 0.053 0.0317 -0.0021 0.0006 -0.002
C1UA 0.0317 0.053 0.0296 0.002 0.0006 0.0021
C1HA 0.0296 0.053 0.0317 0.0021 0.0006 0.002
C2G 0.0313 0.0313 0.087 -0.014 0.014 -0.01
C2R 0.087 0.0313 0.0313 0.01 -0.014 -0.014
C2Q 0.087 0.0313 0.0313 0.01 0.014 0.014
C2GA 0.0313 0.087 0.0313 0.014 0.01 0.014
C2HA 0.0313 0.087 0.0313 -0.014 0.01 -0.014
loop_
_geom_bond_atom_site_label_1
_geom_bond_atom_site_label_2
_geom_bond_site_symmetry_1
_geom_bond_site_symmetry_2
Fe1 O1 1_555 1_555
O1 C1 1_555 1_555
C1 C2 1_555 1_555
C2 H1 1_555 1_555
Fe1K O1CA 1_555 1_555
Fe1A O1R 1_555 1_555
Fe1C O1GA 1_555 1_555
O1CA C1CA 1_555 1_555
O1Z Fe1K 1_555 1_555
O1G Fe1 1_555 1_555
O1LA Fe1 1_555 1_555
O1R C1R 1_555 1_555
O1MA Fe1A 1_555 1_555
O1Q Fe1 1_555 1_555
O1SA Fe1 1_555 1_555
O1GA C1GA 1_555 1_555
O1UA Fe1C 1_555 1_555
O1HA Fe1 1_555 1_555
O1RA Fe1A 1_555 1_555
O1FA Fe1A 1_555 1_555
O1D Fe1A 1_555 1_555
O1A Fe1A 1_555 1_555
C1CA C2 1_555 1_555
C1Z O1Z 1_555 1_555
C1G C1 1_555 1_555
C1LA O1LA 1_555 1_555
C1R C1MA 1_555 1_555
C1MA O1MA 1_555 1_555
C1Q O1Q 1_555 1_555
C1SA O1SA 1_555 1_555
C1GA C1UA 1_555 1_555
C1UA O1UA 1_555 1_555
C1HA O1HA 1_555 1_555
C2G C1Z 1_555 1_555
C2R C1LA 1_555 1_555
C2Q C1MA 1_555 1_555
C2GA C1SA 1_555 1_555
C2HA C1UA 1_555 1_555
H1G C2G 1_555 1_555
H1R C2R 1_555 1_555
H1Q C2Q 1_555 1_555
H1GA C2GA 1_555 1_555
H1HA C2HA 1_555 1_555
O1G C1G 1_555 1_555
C1CA C1Z 1_555 1_555
C1G C2G 1_555 1_555
C1LA C1Q 1_555 1_555
C1R C2R 1_555 1_555
C1Q C2Q 1_555 1_555
C1SA C1HA 1_555 1_555
C1GA C2GA 1_555 1_555
C1HA C2HA 1_555 1_555

#END
