
#######################################################################
#
#                 Cambridge Crystallographic Data Centre
#                                CCDC 
#
#######################################################################
#
# If this CIF has been generated from an entry in the Cambridge 
# Structural Database, then it will include bibliographic, chemical, 
# crystal, experimental, refinement or atomic coordinate data resulting 
# from the CCDC's data processing and validation procedures.
#
#######################################################################

data_OWIVAS
_chemical_formula_moiety         '(C18 H6 O12 Zn2 2-)n'
_symmetry_cell_setting           cubic
_symmetry_space_group_name_H-M   'I a -3 d'
_symmetry_Int_Tables_number      230
_space_group_name_Hall           '-I 4bd 2c 3'
loop_
_symmetry_equiv_pos_site_id
_symmetry_equiv_pos_as_xyz
1 x,y,z
2 1/2-x,-y,1/2+z
3 -x,1/2+y,1/2-z
4 1/2+x,1/2-y,-z
5 z,x,y
6 1/2+z,1/2-x,-y
7 1/2-z,-x,1/2+y
8 -z,1/2+x,1/2-y
9 y,z,x
10 -y,1/2+z,1/2-x
11 1/2+y,1/2-z,-x
12 1/2-y,-z,1/2+x
13 3/4+y,1/4+x,1/4-z
14 3/4-y,3/4-x,3/4-z
15 1/4+y,1/4-x,3/4+z
16 1/4-y,3/4+x,1/4+z
17 3/4+x,1/4+z,1/4-y
18 1/4-x,3/4+z,1/4+y
19 3/4-x,3/4-z,3/4-y
20 1/4+x,1/4-z,3/4+y
21 3/4+z,1/4+y,1/4-x
22 1/4+z,1/4-y,3/4+x
23 1/4-z,3/4+y,1/4+x
24 3/4-z,3/4-y,3/4-x
25 1/2+x,1/2+y,1/2+z
26 -x,1/2-y,z
27 1/2-x,y,-z
28 x,-y,1/2-z
29 1/2+z,1/2+x,1/2+y
30 z,-x,1/2-y
31 -z,1/2-x,y
32 1/2-z,x,-y
33 1/2+y,1/2+z,1/2+x
34 1/2-y,z,-x
35 y,-z,1/2-x
36 -y,1/2-z,x
37 1/4+y,3/4+x,3/4-z
38 1/4-y,1/4-x,1/4-z
39 3/4+y,3/4-x,1/4+z
40 3/4-y,1/4+x,3/4+z
41 1/4+x,3/4+z,3/4-y
42 3/4-x,1/4+z,3/4+y
43 1/4-x,1/4-z,1/4-y
44 3/4+x,3/4-z,1/4+y
45 1/4+z,3/4+y,3/4-x
46 3/4+z,3/4-y,1/4+x
47 3/4-z,1/4+y,3/4+x
48 1/4-z,1/4-y,1/4-x
49 -x,-y,-z
50 1/2+x,y,1/2-z
51 x,1/2-y,1/2+z
52 1/2-x,1/2+y,z
53 -z,-x,-y
54 1/2-z,1/2+x,y
55 1/2+z,x,1/2-y
56 z,1/2-x,1/2+y
57 -y,-z,-x
58 y,1/2-z,1/2+x
59 1/2-y,1/2+z,x
60 1/2+y,z,1/2-x
61 1/4-y,3/4-x,3/4+z
62 1/4+y,1/4+x,1/4+z
63 3/4-y,3/4+x,1/4-z
64 3/4+y,1/4-x,3/4-z
65 1/4-x,3/4-z,3/4+y
66 3/4+x,1/4-z,3/4-y
67 1/4+x,1/4+z,1/4+y
68 3/4-x,3/4+z,1/4-y
69 1/4-z,3/4-y,3/4+x
70 3/4-z,3/4+y,1/4-x
71 3/4+z,1/4-y,3/4-x
72 1/4+z,1/4+y,1/4+x
73 1/2-x,1/2-y,1/2-z
74 x,1/2+y,-z
75 1/2+x,-y,z
76 -x,y,1/2+z
77 1/2-z,1/2-x,1/2-y
78 -z,x,1/2+y
79 z,1/2+x,-y
80 1/2+z,-x,y
81 1/2-y,1/2-z,1/2-x
82 1/2+y,-z,x
83 -y,z,1/2+x
84 y,1/2+z,-x
85 3/4-y,1/4-x,1/4+z
86 3/4+y,3/4+x,3/4+z
87 1/4-y,1/4+x,3/4-z
88 1/4+y,3/4-x,1/4-z
89 3/4-x,1/4-z,1/4+y
90 1/4+x,3/4-z,1/4-y
91 3/4+x,3/4+z,3/4+y
92 1/4-x,1/4+z,3/4-y
93 3/4-z,1/4-y,1/4+x
94 1/4-z,1/4+y,3/4-x
95 1/4+z,3/4-y,1/4-x
96 3/4+z,3/4+y,3/4+x
_cell_length_a                   22.215(3)
_cell_length_b                   22.215(3)
_cell_length_c                   22.215(3)
_cell_angle_alpha                90
_cell_angle_beta                 90
_cell_angle_gamma                90
_cell_volume                     10963.2
loop_
_atom_site_label
_atom_site_type_symbol
_atom_site_fract_x
_atom_site_fract_y
_atom_site_fract_z
_atom_site_U_iso_or_equiv
_atom_site_thermal_displace_type
Zn1 Zn 0.1250 0.1250 0.1250 0.0715 Uani
O1 O 0.1375(3) 0.1233(4) 0.0326(3) 0.0853 Uani
C1 C 0.1875(5) 0.1230(5) 0.0145(4) 0.0747 Uani
C2 C 0.2037(5) 0.1250 -0.0463(5) 0.0940 Uani
H1 H 0.1735 0.1250 -0.0765 0.1120 Uiso
Zn1N Zn 0.3750 0.1250 -0.1250 0.0715 Uani
Zn1O Zn 0.1250 -0.1250 0.3750 0.0715 Uani
Zn1L Zn -0.1250 0.3750 0.1250 0.0715 Uani
O1U O 0.2826(3) 0.1267(4) -0.1125(3) 0.0853 Uani
O1Z O 0.3625(3) 0.1233(4) -0.0326(3) 0.0853 Uani
O1UA O 0.2174(3) 0.1267(4) 0.1125(3) 0.0853 Uani
O1H O 0.1233(4) 0.0326(3) 0.1375(3) 0.0853 Uani
O1O O 0.1267(4) -0.1125(3) 0.2826(3) 0.0853 Uani
O1HA O 0.1233(4) -0.0326(3) 0.3625(3) 0.0853 Uani
O1KA O 0.1267(4) 0.1125(3) 0.2174(3) 0.0853 Uani
O1D O 0.0326(3) 0.1375(3) 0.1233(4) 0.0853 Uani
O1P O -0.1125(3) 0.2826(3) 0.1267(4) 0.0853 Uani
O1DA O -0.0326(3) 0.3625(3) 0.1233(4) 0.0853 Uani
O1PA O 0.1125(3) 0.2174(3) 0.1267(4) 0.0853 Uani
O1V O 0.2174(3) -0.1267(4) 0.3875(3) 0.0853 Uani
O1AA O 0.1375(3) -0.1233(4) 0.4674(3) 0.0853 Uani
O1Q O 0.1125(3) -0.2174(3) 0.3733(4) 0.0853 Uani
O1CA O 0.0326(3) -0.1375(3) 0.3767(4) 0.0853 Uani
C1U C 0.2645(4) 0.1270(5) -0.0625(5) 0.0747 Uani
C1Z C 0.3125(5) 0.1230(5) -0.0145(4) 0.0747 Uani
C1UA C 0.2355(4) 0.1270(5) 0.0625(5) 0.0747 Uani
C1H C 0.1230(5) 0.0145(4) 0.1875(5) 0.0747 Uani
C1O C 0.1270(5) -0.0625(5) 0.2645(4) 0.0747 Uani
C1HA C 0.1230(5) -0.0145(4) 0.3125(5) 0.0747 Uani
C1KA C 0.1270(5) 0.0625(5) 0.2355(4) 0.0747 Uani
C1D C 0.0145(4) 0.1875(5) 0.1230(5) 0.0747 Uani
C1P C -0.0625(5) 0.2645(4) 0.1270(5) 0.0747 Uani
C1DA C -0.0145(4) 0.3125(5) 0.1230(5) 0.0747 Uani
C1PA C 0.0625(5) 0.2355(4) 0.1270(5) 0.0747 Uani
C2Z C 0.2963(5) 0.1250 0.0463(5) 0.0940 Uani
C2H C 0.1250 -0.0463(5) 0.2037(5) 0.0940 Uani
C2HA C 0.1250 0.0463(5) 0.2963(5) 0.0940 Uani
C2D C -0.0463(5) 0.2037(5) 0.1250 0.0940 Uani
C2DA C 0.0463(5) 0.2963(5) 0.1250 0.0940 Uani
H1Z H 0.3265 0.1250 0.0765 0.1120 Uiso
H1H H 0.1250 -0.0765 0.1735 0.1120 Uiso
H1HA H 0.1250 0.0765 0.3265 0.1120 Uiso
H1D H -0.0765 0.1735 0.1250 0.1120 Uiso
H1DA H 0.0765 0.3265 0.1250 0.1120 Uiso
loop_
_atom_site_aniso_label
_atom_site_aniso_U_11
_atom_site_aniso_U_22
_atom_site_aniso_U_33
_atom_site_aniso_U_23
_atom_site_aniso_U_13
_atom_site_aniso_U_12
Zn1 0.0715(13) 0.0715(13) 0.0715(13) 0.0110(13) 0.0110(13) 0.0110(13)
O1 0.054(4) 0.128(6) 0.074(4) -0.010(4) 0.014(4) -0.066(4)
C1 0.080(8) 0.080(7) 0.064(6) 0.010(9) 0.014(5) -0.035(9)
C2 0.065(6) 0.152(16) 0.065(6) -0.017(9) 0.008(9) 0.017(9)
Zn1N 0.0715 0.0715 0.0715 -0.011 0.011 -0.011
Zn1O 0.0715 0.0715 0.0715 0.011 -0.011 -0.011
Zn1L 0.0715 0.0715 0.0715 -0.011 -0.011 0.011
O1U 0.074 0.128 0.054 0.066 0.014 0.01
O1Z 0.054 0.128 0.074 0.01 0.014 0.066
O1UA 0.074 0.128 0.054 -0.066 0.014 -0.01
O1H 0.128 0.074 0.054 0.014 -0.066 -0.01
O1O 0.128 0.054 0.074 0.014 0.01 0.066
O1HA 0.128 0.074 0.054 0.014 0.066 0.01
O1KA 0.128 0.054 0.074 0.014 -0.01 -0.066
O1D 0.074 0.054 0.128 -0.066 -0.01 0.014
O1P 0.054 0.074 0.128 0.01 0.066 0.014
O1DA 0.074 0.054 0.128 0.066 0.01 0.014
O1PA 0.054 0.074 0.128 -0.01 -0.066 0.014
O1V 0.074 0.128 0.054 -0.066 -0.014 0.01
O1AA 0.054 0.128 0.074 -0.01 -0.014 0.066
O1Q 0.054 0.074 0.128 -0.01 0.066 -0.014
O1CA 0.074 0.054 0.128 -0.066 0.01 -0.014
C1U 0.064 0.08 0.08 0.035 0.014 -0.01
C1Z 0.08 0.08 0.064 -0.01 0.014 0.035
C1UA 0.064 0.08 0.08 -0.035 0.014 0.01
C1H 0.08 0.064 0.08 0.014 -0.035 0.01
C1O 0.08 0.08 0.064 0.014 -0.01 0.035
C1HA 0.08 0.064 0.08 0.014 0.035 -0.01
C1KA 0.08 0.08 0.064 0.014 0.01 -0.035
C1D 0.064 0.08 0.08 -0.035 0.01 0.014
C1P 0.08 0.064 0.08 -0.01 0.035 0.014
C1DA 0.064 0.08 0.08 0.035 -0.01 0.014
C1PA 0.08 0.064 0.08 0.01 -0.035 0.014
C2Z 0.065 0.152 0.065 0.017 0.008 -0.017
C2H 0.152 0.065 0.065 0.008 0.017 -0.017
C2HA 0.152 0.065 0.065 0.008 -0.017 0.017
C2D 0.065 0.065 0.152 0.017 -0.017 0.008
C2DA 0.065 0.065 0.152 -0.017 0.017 0.008
loop_
_geom_bond_atom_site_label_1
_geom_bond_atom_site_label_2
_geom_bond_site_symmetry_1
_geom_bond_site_symmetry_2
Zn1 O1 1_555 1_555
O1 C1 1_555 1_555
C1 C2 1_555 1_555
C2 H1 1_555 1_555
Zn1N O1U 1_555 1_555
Zn1O O1O 1_555 1_555
Zn1L O1P 1_555 1_555
O1U C1U 1_555 1_555
O1Z Zn1N 1_555 1_555
O1UA Zn1 1_555 1_555
O1H Zn1 1_555 1_555
O1O C1O 1_555 1_555
O1HA Zn1O 1_555 1_555
O1KA Zn1 1_555 1_555
O1D Zn1 1_555 1_555
O1P C1P 1_555 1_555
O1DA Zn1L 1_555 1_555
O1PA Zn1 1_555 1_555
O1V Zn1O 1_555 1_555
O1AA Zn1O 1_555 1_555
O1Q Zn1O 1_555 1_555
O1CA Zn1O 1_555 1_555
C1U C2 1_555 1_555
C1Z O1Z 1_555 1_555
C1UA C1 1_555 1_555
C1H O1H 1_555 1_555
C1O C1HA 1_555 1_555
C1HA O1HA 1_555 1_555
C1KA O1KA 1_555 1_555
C1D O1D 1_555 1_555
C1P C1DA 1_555 1_555
C1DA O1DA 1_555 1_555
C1PA O1PA 1_555 1_555
C2Z C1Z 1_555 1_555
C2H C1H 1_555 1_555
C2HA C1HA 1_555 1_555
C2D C1D 1_555 1_555
C2DA C1DA 1_555 1_555
H1Z C2Z 1_555 1_555
H1H C2H 1_555 1_555
H1HA C2HA 1_555 1_555
H1D C2D 1_555 1_555
H1DA C2DA 1_555 1_555
O1UA C1UA 1_555 1_555
C1U C1Z 1_555 1_555
C1UA C2Z 1_555 1_555
C1H C1KA 1_555 1_555
C1O C2H 1_555 1_555
C1KA C2HA 1_555 1_555
C1D C1PA 1_555 1_555
C1P C2D 1_555 1_555
C1PA C2DA 1_555 1_555

#END
