
#######################################################################
#
#                 Cambridge Crystallographic Data Centre
#                                CCDC 
#
#######################################################################
#
# If this CIF has been generated from an entry in the Cambridge 
# Structural Database, then it will include bibliographic, chemical, 
# crystal, experimental, refinement or atomic coordinate data resulting 
# from the CCDC's data processing and validation procedures.
#
#######################################################################

data_LUXMAT
_chemical_formula_moiety         '(C32 H34 Co1 Mo14 N7 O49 P1 1+)n'
_symmetry_cell_setting           cubic
_symmetry_space_group_name_H-M   'I m -3'
_symmetry_Int_Tables_number      204
_space_group_name_Hall           '-I 2 2 3'
loop_
_symmetry_equiv_pos_site_id
_symmetry_equiv_pos_as_xyz
1 x,y,z
2 -x,-y,z
3 -x,y,-z
4 x,-y,-z
5 z,x,y
6 z,-x,-y
7 -z,-x,y
8 -z,x,-y
9 y,z,x
10 -y,z,-x
11 y,-z,-x
12 -y,-z,x
13 1/2+x,1/2+y,1/2+z
14 1/2-x,1/2-y,1/2+z
15 1/2-x,1/2+y,1/2-z
16 1/2+x,1/2-y,1/2-z
17 1/2+z,1/2+x,1/2+y
18 1/2+z,1/2-x,1/2-y
19 1/2-z,1/2-x,1/2+y
20 1/2-z,1/2+x,1/2-y
21 1/2+y,1/2+z,1/2+x
22 1/2-y,1/2+z,1/2-x
23 1/2+y,1/2-z,1/2-x
24 1/2-y,1/2-z,1/2+x
25 -x,-y,-z
26 x,y,-z
27 x,-y,z
28 -x,y,z
29 -z,-x,-y
30 -z,x,y
31 z,x,-y
32 z,-x,y
33 -y,-z,-x
34 y,-z,x
35 -y,z,x
36 y,z,-x
37 1/2-x,1/2-y,1/2-z
38 1/2+x,1/2+y,1/2-z
39 1/2+x,1/2-y,1/2+z
40 1/2-x,1/2+y,1/2+z
41 1/2-z,1/2-x,1/2-y
42 1/2-z,1/2+x,1/2+y
43 1/2+z,1/2+x,1/2-y
44 1/2+z,1/2-x,1/2+y
45 1/2-y,1/2-z,1/2-x
46 1/2+y,1/2-z,1/2+x
47 1/2-y,1/2+z,1/2+x
48 1/2+y,1/2+z,1/2-x
_cell_length_a                   23.2292(11)
_cell_length_b                   23.2292(11)
_cell_length_c                   23.2292(11)
_cell_angle_alpha                90
_cell_angle_beta                 90
_cell_angle_gamma                90
_cell_volume                     12534.4
loop_
_atom_site_label
_atom_site_type_symbol
_atom_site_fract_x
_atom_site_fract_y
_atom_site_fract_z
_atom_site_U_iso_or_equiv
_atom_site_thermal_displace_type
Co1 Co 0.2500 0.7500 1.2500 0.0291 Uani
O8 O 0.32389(7) 0.77616(7) 1.29122(7) 0.0264 Uani
N1 N 0.32328(8) 0.77993(9) 1.34916(8) 0.0250 Uani
C1 C 0.36175(11) 0.74742(10) 1.37870(12) 0.0306 Uani
H1 H 0.3863 0.7228 1.3588 0.0370 Uiso
C2 C 0.36472(11) 0.75036(11) 1.43613(12) 0.0333 Uani
H2 H 0.3923 0.7287 1.4555 0.0400 Uiso
C3 C 0.32679(10) 0.78576(10) 1.46813(10) 0.0269 Uani
C4 C 0.28952(10) 0.81860(11) 1.43733(11) 0.0279 Uani
H3 H 0.2641 0.8428 1.4566 0.0330 Uiso
C5 C 0.28857(11) 0.81667(10) 1.37673(9) 0.0246 Uani
H4 H 0.2641 0.8407 1.3561 0.0300 Uiso
Co1M Co 0.2500 0.7500 1.7500 0.0291 Uani
Co1O Co 0.7500 0.7500 1.2500 0.0291 Uani
Co1N Co 0.2500 0.2500 1.2500 0.0291 Uani
O8Y O 0.32389(7) 0.77616(7) 1.70878(7) 0.0264 Uani
O8E O 0.29122(7) 0.67611(7) 1.22384(7) 0.0264 Uani
O8BA O 0.70878(7) 0.67611(7) 1.22384(7) 0.0264 Uani
O8K O 0.22384(7) 0.70878(7) 1.32389(7) 0.0264 Uani
O8HA O 0.22384(7) 0.29122(7) 1.32389(7) 0.0264 Uani
O8JA O 0.17611(7) 0.72384(7) 1.20878(7) 0.0264 Uani
O8OA O 0.20878(7) 0.82389(7) 1.27616(7) 0.0264 Uani
O8UA O 0.27616(7) 0.79122(7) 1.17611(7) 0.0264 Uani
N1Y N 0.32328(8) 0.77993(9) 1.65084(8) 0.0250 Uani
N1E N 0.34916(8) 0.67672(8) 1.22007(9) 0.0250 Uani
N1BA N 0.65084(8) 0.67672(8) 1.22007(9) 0.0250 Uani
N1K N 0.22007(9) 0.65084(8) 1.32328(8) 0.0250 Uani
N1HA N 0.22007(9) 0.34916(8) 1.32328(8) 0.0250 Uani
C1Y C 0.36175(11) 0.74742(10) 1.62130(12) 0.0306 Uani
C1E C 0.37870(12) 0.63825(11) 1.25258(10) 0.0306 Uani
C1BA C 0.62130(12) 0.63825(11) 1.25258(10) 0.0306 Uani
C1K C 0.25258(10) 0.62130(12) 1.36175(11) 0.0306 Uani
C1HA C 0.25258(10) 0.37870(12) 1.36175(11) 0.0306 Uani
H1Y H 0.3863 0.7228 1.6412 0.0370 Uiso
H1E H 0.3588 0.6137 1.2772 0.0370 Uiso
H1BA H 0.6412 0.6137 1.2772 0.0370 Uiso
H1K H 0.2772 0.6412 1.3863 0.0370 Uiso
H1HA H 0.2772 0.3588 1.3863 0.0370 Uiso
C2Y C 0.36472(11) 0.75036(11) 1.56387(12) 0.0333 Uani
C2E C 0.43613(12) 0.63528(11) 1.24964(11) 0.0333 Uani
C2BA C 0.56387(12) 0.63528(11) 1.24964(11) 0.0333 Uani
C2K C 0.24964(11) 0.56387(12) 1.36472(11) 0.0333 Uani
C2HA C 0.24964(11) 0.43613(12) 1.36472(11) 0.0333 Uani
H2Y H 0.3923 0.7287 1.5445 0.0400 Uiso
H2E H 0.4555 0.6077 1.2713 0.0400 Uiso
H2BA H 0.5445 0.6077 1.2713 0.0400 Uiso
H2K H 0.2713 0.5445 1.3923 0.0400 Uiso
H2HA H 0.2713 0.4555 1.3923 0.0400 Uiso
C3Y C 0.32679(10) 0.78576(10) 1.53187(10) 0.0269 Uani
C3E C 0.46813(10) 0.67321(10) 1.21424(10) 0.0269 Uani
C3BA C 0.53187(10) 0.67321(10) 1.21424(10) 0.0269 Uani
C3K C 0.21424(10) 0.53187(10) 1.32679(10) 0.0269 Uani
C3HA C 0.21424(10) 0.46813(10) 1.32679(10) 0.0269 Uani
C4Y C 0.28952(10) 0.81860(11) 1.56267(11) 0.0279 Uani
C4E C 0.43733(11) 0.71048(10) 1.18140(11) 0.0279 Uani
C4BA C 0.56267(11) 0.71048(10) 1.18140(11) 0.0279 Uani
C4K C 0.18140(11) 0.56267(11) 1.28952(10) 0.0279 Uani
C4HA C 0.18140(11) 0.43733(11) 1.28952(10) 0.0279 Uani
H3Y H 0.2641 0.8428 1.5434 0.0330 Uiso
H3E H 0.4566 0.7359 1.1572 0.0330 Uiso
H3BA H 0.5434 0.7359 1.1572 0.0330 Uiso
H3K H 0.1572 0.5434 1.2641 0.0330 Uiso
H3HA H 0.1572 0.4566 1.2641 0.0330 Uiso
C5Y C 0.28857(11) 0.81667(10) 1.62327(9) 0.0246 Uani
C5E C 0.37673(9) 0.71143(11) 1.18333(10) 0.0246 Uani
C5BA C 0.62327(9) 0.71143(11) 1.18333(10) 0.0246 Uani
C5K C 0.18333(10) 0.62327(9) 1.28857(11) 0.0246 Uani
C5HA C 0.18333(10) 0.37673(9) 1.28857(11) 0.0246 Uani
H4Y H 0.2641 0.8407 1.6439 0.0300 Uiso
H4E H 0.3561 0.7359 1.1593 0.0300 Uiso
H4BA H 0.6439 0.7359 1.1593 0.0300 Uiso
H4K H 0.1593 0.6439 1.2641 0.0300 Uiso
H4HA H 0.1593 0.3561 1.2641 0.0300 Uiso
N2 N 0.0000 0.26787(14) 0.17650(12) 0.0337 Uani
C6 C -0.0000 0.30175(17) 0.20986(14) 0.0312 Uani
C7 C -0.0000 0.34967(15) 0.25447(16) 0.0312 Uani
H5 H 0.0250 0.3801 0.2420 0.0370 Uiso
H5AA H -0.0250 0.3801 0.2420 0.0370 Uiso
O9 O -0.0000 0.16633(14) 0.10561(12) 0.0418 Uani
H6 H -0.0000 0.2065(19) 0.1147(18) 0.0390 Uiso
H7 H 0.038(3) 0.154(3) 0.121(3) 0.0530 Uiso
H7AA H -0.038(3) 0.154(3) 0.121(3) 0.0530 Uiso
O10 O 0.10617(10) 0.10617(10) 0.10617(10) 0.0329 Uani
H8 H 0.085(4) 0.085(4) 0.085(4) 0.0700 Uiso
O11 O 0.04023(19) 0.1469(2) 0.0000 0.0257 Uani
P1 P -0.0000 0.5000 0.5000 0.0291 Uani
O12 O 0.0551(2) 0.5339(2) 0.5000 0.0309 Uiso
O12C O 0.0551(2) 0.4661(2) 0.5000 0.0309 Uiso
O12A O -0.0551(2) 0.4661(2) 0.5000 0.0309 Uiso
O12B O -0.0551(2) 0.5339(2) 0.5000 0.0309 Uiso
Mo1 Mo -0.152408(19) 0.5000 0.5000 0.0317 Uani
Mo2 Mo -0.076119(10) 0.392097(10) 0.423209(10) 0.0313 Uani
Mo3 Mo 0.01135(2) 0.5000 0.34685(2) 0.0272 Uani
O1 O -0.22354(14) 0.5000 0.5000 0.0311 Uani
O2 O -0.11127(8) 0.34009(8) 0.38888(8) 0.0378 Uani
O3 O -0.0000 0.5000 0.27381(15) 0.0412 Uani
O4 O -0.14738(14) 0.43866(13) 0.44362(13) 0.0196 Uiso
O5 O -0.05607(12) 0.45546(13) 0.37217(13) 0.0185 Uiso
O6 O 0.0000 0.37981(19) 0.43007(18) 0.0215 Uiso
O7 O -0.07923(10) 0.36400(12) 0.5000 0.0357 Uani
Mo1A Mo 0.152408(19) 0.5000 0.5000 0.0317 Uani
Mo2C Mo -0.076119(10) 0.607903(10) 0.576791(10) 0.0313 Uani
Mo2Y Mo -0.076119(10) 0.392097(10) 0.576791(10) 0.0313 Uani
Mo2Z Mo -0.076119(10) 0.607903(10) 0.423209(10) 0.0313 Uani
Mo2AA Mo 0.076119(10) 0.392097(10) 0.423209(10) 0.0313 Uani
Mo2X Mo 0.076119(10) 0.607903(10) 0.576791(10) 0.0313 Uani
Mo2B Mo 0.076119(10) 0.392097(10) 0.576791(10) 0.0313 Uani
Mo2A Mo 0.076119(10) 0.607903(10) 0.423209(10) 0.0313 Uani
Mo3C Mo 0.01135(2) 0.5000 0.65315(2) 0.0272 Uani
Mo3A Mo -0.01135(2) 0.5000 0.34685(2) 0.0272 Uani
Mo3B Mo -0.01135(2) 0.5000 0.65315(2) 0.0272 Uani
O1A O 0.22354(14) 0.5000 0.5000 0.0311 Uani
O2C O -0.11127(8) 0.65991(8) 0.61112(8) 0.0378 Uani
O2Y O -0.11127(8) 0.34009(8) 0.61112(8) 0.0378 Uani
O2Z O -0.11127(8) 0.65991(8) 0.38888(8) 0.0378 Uani
O2AA O 0.11127(8) 0.34009(8) 0.38888(8) 0.0378 Uani
O2X O 0.11127(8) 0.65991(8) 0.61112(8) 0.0378 Uani
O2B O 0.11127(8) 0.34009(8) 0.61112(8) 0.0378 Uani
O2A O 0.11127(8) 0.65991(8) 0.38888(8) 0.0378 Uani
O3B O -0.0000 0.5000 0.72619(15) 0.0412 Uani
O4C O -0.14738(14) 0.56134(13) 0.55638(13) 0.0196 Uiso
O4Y O -0.14738(14) 0.43866(13) 0.55638(13) 0.0196 Uiso
O4Z O -0.14738(14) 0.56134(13) 0.44362(13) 0.0196 Uiso
O4AA O 0.14738(14) 0.43866(13) 0.44362(13) 0.0196 Uiso
O4X O 0.14738(14) 0.56134(13) 0.55638(13) 0.0196 Uiso
O4B O 0.14738(14) 0.43866(13) 0.55638(13) 0.0196 Uiso
O4A O 0.14738(14) 0.56134(13) 0.44362(13) 0.0196 Uiso
O5C O -0.05607(12) 0.54454(13) 0.62783(13) 0.0185 Uiso
O5Y O -0.05607(12) 0.45546(13) 0.62783(13) 0.0185 Uiso
O5Z O -0.05607(12) 0.54454(13) 0.37217(13) 0.0185 Uiso
O5A O 0.05607(12) 0.54454(13) 0.37217(13) 0.0185 Uiso
O5AA O 0.05607(12) 0.45546(13) 0.37217(13) 0.0185 Uiso
O5B O 0.05607(12) 0.45546(13) 0.62783(13) 0.0185 Uiso
O5X O 0.05607(12) 0.54454(13) 0.62783(13) 0.0185 Uiso
O6C O -0.0000 0.62019(19) 0.56993(18) 0.0215 Uiso
O6B O -0.0000 0.37981(19) 0.56993(18) 0.0215 Uiso
O6A O -0.0000 0.62019(19) 0.43007(18) 0.0215 Uiso
O7C O -0.07923(10) 0.63600(12) 0.5000 0.0357 Uani
O7B O 0.07923(10) 0.36400(12) 0.5000 0.0357 Uani
O7A O 0.07923(10) 0.63600(12) 0.5000 0.0357 Uani
loop_
_atom_site_aniso_label
_atom_site_aniso_U_11
_atom_site_aniso_U_22
_atom_site_aniso_U_33
_atom_site_aniso_U_23
_atom_site_aniso_U_13
_atom_site_aniso_U_12
Co1 0.02912 0.02912 0.02912 0.00039 -0.00039 0.00039
O8 0.0198 0.0242 0.0351 0.0028 0.0012 0.0013
N1 0.0198 0.0355 0.0197 -0.006 0.0006 -0.0157
C1 0.0282 0.0228 0.0407 -0.0054 -0.0072 0.0026
C2 0.0254 0.034 0.0404 -0.0016 -0.0075 0.0047
C3 0.0286 0.0288 0.0233 0.0029 0.0019 -0.0138
C4 0.0236 0.0285 0.0315 0.0106 0.0006 0.0092
C5 0.0358 0.0214 0.0167 0.0105 -0.0027 -0.0035
Co1M 0.02912 0.02912 0.02912 -0.00039 0.00039 0.00039
Co1O 0.02912 0.02912 0.02912 0.00039 0.00039 -0.00039
Co1N 0.02912 0.02912 0.02912 -0.00039 -0.00039 -0.00039
O8Y 0.0198 0.0242 0.0351 -0.0028 -0.0012 0.0013
O8E 0.0351 0.0198 0.0242 0.0013 -0.0028 -0.0012
O8BA 0.0351 0.0198 0.0242 0.0013 0.0028 0.0012
O8K 0.0242 0.0351 0.0198 -0.0012 -0.0013 0.0028
O8HA 0.0242 0.0351 0.0198 0.0012 -0.0013 -0.0028
O8JA 0.0198 0.0242 0.0351 0.0028 0.0012 0.0013
O8OA 0.0351 0.0198 0.0242 0.0013 -0.0028 -0.0012
O8UA 0.0242 0.0351 0.0198 -0.0012 -0.0013 0.0028
N1Y 0.0198 0.0355 0.0197 0.006 -0.0006 -0.0157
N1E 0.0197 0.0198 0.0355 -0.0157 0.006 -0.0006
N1BA 0.0197 0.0198 0.0355 -0.0157 -0.006 0.0006
N1K 0.0355 0.0197 0.0198 -0.0006 0.0157 -0.006
N1HA 0.0355 0.0197 0.0198 0.0006 0.0157 0.006
C1Y 0.0282 0.0228 0.0407 0.0054 0.0072 0.0026
C1E 0.0407 0.0282 0.0228 0.0026 0.0054 0.0072
C1BA 0.0407 0.0282 0.0228 0.0026 -0.0054 -0.0072
C1K 0.0228 0.0407 0.0282 0.0072 -0.0026 -0.0054
C1HA 0.0228 0.0407 0.0282 -0.0072 -0.0026 0.0054
C2Y 0.0254 0.034 0.0404 0.0016 0.0075 0.0047
C2E 0.0404 0.0254 0.034 0.0047 0.0016 0.0075
C2BA 0.0404 0.0254 0.034 0.0047 -0.0016 -0.0075
C2K 0.034 0.0404 0.0254 0.0075 -0.0047 -0.0016
C2HA 0.034 0.0404 0.0254 -0.0075 -0.0047 0.0016
C3Y 0.0286 0.0288 0.0233 -0.0029 -0.0019 -0.0138
C3E 0.0233 0.0286 0.0288 -0.0138 -0.0029 -0.0019
C3BA 0.0233 0.0286 0.0288 -0.0138 0.0029 0.0019
C3K 0.0288 0.0233 0.0286 -0.0019 0.0138 0.0029
C3HA 0.0288 0.0233 0.0286 0.0019 0.0138 -0.0029
C4Y 0.0236 0.0285 0.0315 -0.0106 -0.0006 0.0092
C4E 0.0315 0.0236 0.0285 0.0092 -0.0106 -0.0006
C4BA 0.0315 0.0236 0.0285 0.0092 0.0106 0.0006
C4K 0.0285 0.0315 0.0236 -0.0006 -0.0092 0.0106
C4HA 0.0285 0.0315 0.0236 0.0006 -0.0092 -0.0106
C5Y 0.0358 0.0214 0.0167 -0.0105 0.0027 -0.0035
C5E 0.0167 0.0358 0.0214 -0.0035 -0.0105 0.0027
C5BA 0.0167 0.0358 0.0214 -0.0035 0.0105 -0.0027
C5K 0.0214 0.0167 0.0358 0.0027 0.0035 0.0105
C5HA 0.0214 0.0167 0.0358 -0.0027 0.0035 -0.0105
N2 0.0419(17) 0.0460(18) 0.0132(13) 0.0106(13) 0.000 0.000
C6 0.0293(17) 0.052(2) 0.0123(14) 0.0208(15) 0.000 0.000
C7 0.0312(18) 0.0308(18) 0.0316(18) 0.0120(15) 0.000 0.000
O9 0.0325(14) 0.0548(18) 0.0381(15) -0.0165(13) 0.000 0.000
O10 0.0329(7) 0.0329(7) 0.0329(7) 0.0129(9) 0.0129(9) 0.0129(9)
O11 0.018(2) 0.027(2) 0.032(2) 0.000 0.000 -0.0085(18)
P1 0.0246(8) 0.0323(9) 0.0303(9) 0.000 0.000 0.000
Mo1 0.0288 0.0257 0.0405 0 0 0
Mo2 0.03139 0.03248 0.03013 -0.0131 0.00234 -0.0142
Mo3 0.0225(6) 0.0360(3) 0.0230(2) 0.000 -0.0009(2) 0.000
O1 0.0152 0.0396 0.0384 0 0 0
O2 0.0469 0.0358 0.0307 -0.0168 -0.0129 0.0031
O3 0.051(2) 0.053(2) 0.0195(17) 0.000 0.000 0.000
O7 0.0268 0.0418 0.0386 0 0 0.028
Mo1A 0.0288(2) 0.0257(2) 0.0405(2) 0.000 0.000 0.000
Mo2C 0.03139 0.03248 0.03013 -0.0131 -0.00234 0.0142
Mo2Y 0.03139 0.03248 0.03013 0.0131 -0.00234 -0.0142
Mo2Z 0.03139 0.03248 0.03013 0.0131 0.00234 0.0142
Mo2AA 0.03139(11) 0.03248(12) 0.03013(11) -0.01310(9) -0.00234(9) 0.01420(9)
Mo2X 0.03139 0.03248 0.03013 -0.0131 0.00234 -0.0142
Mo2B 0.03139 0.03248 0.03013 0.0131 0.00234 0.0142
Mo2A 0.03139 0.03248 0.03013 0.0131 -0.00234 -0.0142
Mo3C 0.0225 0.036 0.023 0 0.0009 0
Mo3A 0.0225 0.036 0.023 0 0.0009 0
Mo3B 0.0225 0.036 0.023 0 -0.0009 0
O1A 0.0152(15) 0.0396(19) 0.0384(19) 0.000 0.000 0.000
O2C 0.0469 0.0358 0.0307 -0.0168 0.0129 -0.0031
O2Y 0.0469 0.0358 0.0307 0.0168 0.0129 0.0031
O2Z 0.0469 0.0358 0.0307 0.0168 -0.0129 -0.0031
O2AA 0.0469(10) 0.0358(10) 0.0307(9) -0.0168(8) 0.0129(8) -0.0031(9)
O2X 0.0469 0.0358 0.0307 -0.0168 -0.0129 0.0031
O2B 0.0469 0.0358 0.0307 0.0168 -0.0129 -0.0031
O2A 0.0469 0.0358 0.0307 0.0168 0.0129 0.0031
O3B 0.051 0.053 0.0195 0 0 0
O7C 0.0268 0.0418 0.0386 0 0 -0.028
O7B 0.0268(12) 0.0418(14) 0.0386(14) 0.000 0.000 -0.0280(11)
O7A 0.0268 0.0418 0.0386 0 0 0.028
loop_
_geom_bond_atom_site_label_1
_geom_bond_atom_site_label_2
_geom_bond_site_symmetry_1
_geom_bond_site_symmetry_2
Mo1 O1 1_555 1_555
Mo2 O2 1_555 1_555
Mo3 O3 1_555 1_555
O3 Mo3A 1_555 1_555
O4 Mo1 1_555 1_555
O5 Mo2 1_555 1_555
O6 Mo2 1_555 1_555
O7 Mo2 1_555 1_555
Co1 O8 1_555 1_555
O8 N1 1_555 1_555
N1 C1 1_555 1_555
C1 H1 1_555 1_555
C2 C1 1_555 1_555
H2 C2 1_555 1_555
C3 C2 1_555 1_555
C4 C3 1_555 1_555
H3 C4 1_555 1_555
C5 N1 1_555 1_555
H4 C5 1_555 1_555
N2 C6 1_555 1_555
C6 C7 1_555 1_555
C7 H5 1_555 1_555
O9 H6 1_555 1_555
H7 O9 1_555 1_555
O10 H8 1_555 1_555
P1 O12 1_555 1_555
O12 O12C 1_555 1_555
Mo1A O1A 1_555 1_555
Mo2C O2C 1_555 1_555
Mo2Y O7 1_555 1_555
Mo2Z O2Z 1_555 1_555
Mo2AA O6 1_555 1_555
Mo2X O2X 1_555 1_555
Mo2B O2B 1_555 1_555
Mo2A O2A 1_555 1_555
Mo3C Mo3B 1_555 1_555
Mo3A Mo3 1_555 1_555
Mo3B O3B 1_555 1_555
O2Y Mo2Y 1_555 1_555
O2AA Mo2AA 1_555 1_555
O3B Mo3C 1_555 1_555
O4C Mo1 1_555 1_555
O4Y Mo1 1_555 1_555
O4Z Mo1 1_555 1_555
O4AA Mo1A 1_555 1_555
O4X Mo1A 1_555 1_555
O4B Mo1A 1_555 1_555
O4A Mo1A 1_555 1_555
O5C Mo2C 1_555 1_555
O5Y Mo2Y 1_555 1_555
O5Z Mo3 1_555 1_555
O5A Mo3 1_555 1_555
O5AA Mo3 1_555 1_555
O5B Mo2B 1_555 1_555
O5X Mo2X 1_555 1_555
O6C Mo2C 1_555 1_555
O6B Mo2Y 1_555 1_555
O6A Mo2Z 1_555 1_555
O7C Mo2C 1_555 1_555
O7B Mo2AA 1_555 1_555
O7A Mo2X 1_555 1_555
Co1M O8Y 1_555 1_555
Co1O O8BA 1_555 1_555
Co1N O8HA 1_555 1_555
O8Y N1Y 1_555 1_555
O8E Co1 1_555 1_555
O8BA N1BA 1_555 1_555
O8K Co1 1_555 1_555
O8HA N1HA 1_555 1_555
O8JA Co1 1_555 1_555
O8OA Co1 1_555 1_555
O8UA Co1 1_555 1_555
N1Y C1Y 1_555 1_555
N1E O8E 1_555 1_555
N1BA C1BA 1_555 1_555
N1K O8K 1_555 1_555
N1HA C1HA 1_555 1_555
C1Y H1Y 1_555 1_555
C1E N1E 1_555 1_555
C1BA H1BA 1_555 1_555
C1K N1K 1_555 1_555
C1HA H1HA 1_555 1_555
H1E C1E 1_555 1_555
H1K C1K 1_555 1_555
C2Y C1Y 1_555 1_555
C2E C1E 1_555 1_555
C2BA C1BA 1_555 1_555
C2K C1K 1_555 1_555
C2HA C1HA 1_555 1_555
H2Y C2Y 1_555 1_555
H2E C2E 1_555 1_555
H2BA C2BA 1_555 1_555
H2K C2K 1_555 1_555
H2HA C2HA 1_555 1_555
C3Y C3 1_555 1_555
C3E C2E 1_555 1_555
C3BA C2BA 1_555 1_555
C3K C2K 1_555 1_555
C3HA C2HA 1_555 1_555
C4Y C3Y 1_555 1_555
C4E C3E 1_555 1_555
C4BA C3BA 1_555 1_555
C4K C3K 1_555 1_555
C4HA C3HA 1_555 1_555
H3Y C4Y 1_555 1_555
H3E C4E 1_555 1_555
H3BA C4BA 1_555 1_555
H3K C4K 1_555 1_555
H3HA C4HA 1_555 1_555
C5Y N1Y 1_555 1_555
C5E N1E 1_555 1_555
C5BA N1BA 1_555 1_555
C5K N1K 1_555 1_555
C5HA N1HA 1_555 1_555
H4Y C5Y 1_555 1_555
H4E C5E 1_555 1_555
H4BA C5BA 1_555 1_555
H4K C5K 1_555 1_555
H4HA C5HA 1_555 1_555
H5AA C7 1_555 1_555
H7AA O9 1_555 1_555
O12C P1 1_555 1_555
O12A P1 1_555 1_555
O12B P1 1_555 1_555
Mo2 O4 1_555 1_555
Mo3 O5 1_555 1_555
O5 Mo3A 1_555 1_555
C4 C5 1_555 1_555
Mo2C O4C 1_555 1_555
Mo2Y O4Y 1_555 1_555
Mo2Z O4Z 1_555 1_555
Mo2Z O5Z 1_555 1_555
Mo2Z O7C 1_555 1_555
Mo2AA O4AA 1_555 1_555
Mo2AA O5AA 1_555 1_555
Mo2X O4X 1_555 1_555
Mo2X O6C 1_555 1_555
Mo2B O4B 1_555 1_555
Mo2B O6B 1_555 1_555
Mo2B O7B 1_555 1_555
Mo2A O4A 1_555 1_555
Mo2A O5A 1_555 1_555
Mo2A O6A 1_555 1_555
Mo2A O7A 1_555 1_555
Mo3C O5C 1_555 1_555
Mo3C O5Y 1_555 1_555
Mo3C O5B 1_555 1_555
Mo3C O5X 1_555 1_555
Mo3A O5Z 1_555 1_555
Mo3A O5A 1_555 1_555
Mo3A O5AA 1_555 1_555
Mo3B O5C 1_555 1_555
Mo3B O5Y 1_555 1_555
Mo3B O5B 1_555 1_555
Mo3B O5X 1_555 1_555
C2Y C3Y 1_555 1_555
C3E C3BA 1_555 1_555
C3K C3HA 1_555 1_555
C4Y C5Y 1_555 1_555
C4E C5E 1_555 1_555
C4BA C5BA 1_555 1_555
C4K C5K 1_555 1_555
C4HA C5HA 1_555 1_555
O12A O12B 1_555 1_555

#END
