
#######################################################################
#
#                 Cambridge Crystallographic Data Centre
#                                CCDC 
#
#######################################################################
#
# If this CIF has been generated from an entry in the Cambridge 
# Structural Database, then it will include bibliographic, chemical, 
# crystal, experimental, refinement or atomic coordinate data resulting 
# from the CCDC's data processing and validation procedures.
#
#######################################################################

data_DUXKUD
_chemical_formula_moiety         '(C18 H38 N4 O14 U1)n'
_symmetry_cell_setting           monoclinic
_symmetry_space_group_name_H-M   'C 2/c'
_symmetry_Int_Tables_number      15
_space_group_name_Hall           '-C 2yc'
loop_
_symmetry_equiv_pos_site_id
_symmetry_equiv_pos_as_xyz
1 x,y,z
2 -x,y,1/2-z
3 1/2+x,1/2+y,z
4 1/2-x,1/2+y,1/2-z
5 -x,-y,-z
6 x,-y,1/2+z
7 1/2-x,1/2-y,-z
8 1/2+x,1/2-y,1/2+z
_cell_length_a                   21.3207(11)
_cell_length_b                   16.6570(9)
_cell_length_c                   10.1919(4)
_cell_angle_alpha                90
_cell_angle_beta                 97.853(3)
_cell_angle_gamma                90
_cell_volume                     3585.6
loop_
_atom_site_label
_atom_site_type_symbol
_atom_site_fract_x
_atom_site_fract_y
_atom_site_fract_z
_atom_site_U_iso_or_equiv
_atom_site_thermal_displace_type
U1 U 0.5000 0.148902(17) 0.2500 0.0200 Uani
O1 O 0.5480(2) 0.1517(2) 0.1221(4) 0.0273 Uani
O2 O 0.4174(2) 0.1917(3) 0.0849(4) 0.0328 Uani
O3 O 0.3189(2) 0.2052(3) -0.0142(4) 0.0424 Uani
O4 O 0.44608(19) -0.0328(3) 0.6562(4) 0.0296 Uani
O5 O 0.3495(2) -0.0454(3) 0.7194(4) 0.0328 Uani
O6 O 0.5000 0.2943(4) 0.2500 0.0621 Uani
H1 H 0.4908 0.3258 0.3122 0.0740 Uiso
N1 N 0.2821(2) 0.2818(3) 0.2057(5) 0.0314 Uani
N2 N 0.2981(2) 0.0760(3) 0.5711(5) 0.0284 Uani
H2 H 0.2807 0.0302 0.6009 0.0340 Uiso
C1 C 0.2598(3) 0.2023(4) 0.2551(6) 0.0287 Uani
H3 H 0.2666 0.1604 0.1925 0.0350 Uiso
H4 H 0.2146 0.2054 0.2593 0.0350 Uiso
C2 C 0.2941(3) 0.1799(4) 0.3919(6) 0.0312 Uani
H5 H 0.3388 0.1716 0.3872 0.0370 Uiso
H6 H 0.2901 0.2231 0.4541 0.0370 Uiso
C3 C 0.2652(3) 0.1037(4) 0.4382(6) 0.0310 Uani
H7 H 0.2678 0.0617 0.3733 0.0370 Uiso
H8 H 0.2208 0.1131 0.4444 0.0370 Uiso
C4 C 0.2951(3) 0.1351(4) 0.6840(6) 0.0294 Uani
H9 H 0.3132 0.1860 0.6625 0.0350 Uiso
H10 H 0.3198 0.1147 0.7641 0.0350 Uiso
C5 C 0.2733(4) 0.3524(4) 0.2922(7) 0.0353 Uani
H11 H 0.2995 0.3450 0.3770 0.0420 Uiso
H12 H 0.2879 0.4003 0.2517 0.0420 Uiso
C6 C 0.3503(3) 0.2776(4) 0.1860(6) 0.0327 Uani
H13 H 0.3753 0.2610 0.2683 0.0390 Uiso
H14 H 0.3645 0.3306 0.1640 0.0390 Uiso
C7 C 0.3615(3) 0.2190(4) 0.0766(6) 0.0320 Uani
C8 C 0.3667(3) 0.0545(4) 0.5633(6) 0.0281 Uani
H15 H 0.3713 0.0389 0.4734 0.0330 Uiso
H16 H 0.3934 0.1010 0.5864 0.0330 Uiso
C9 C 0.3878(3) -0.0139(4) 0.6568(5) 0.0241 Uani
U1D U 0.5000 -0.148902(17) 0.7500 0.0200 Uani
U1B U 0.0000 0.648902(17) 0.2500 0.0200 Uani
U1F U 0.0000 0.351098(17) 0.7500 0.0200 Uani
O1A O 0.4520(2) 0.1517(2) 0.3779(4) 0.0273 Uani
O2F O 0.0826(2) 0.3083(3) 0.9151(4) 0.0328 Uani
O2A O 0.5826(2) 0.1917(3) 0.4151(4) 0.0328 Uani
O3F O 0.1811(2) 0.2948(3) 1.0142(4) 0.0424 Uani
O4F O 0.05392(19) 0.5328(3) 0.3438(4) 0.0296 Uani
O4D O 0.55392(19) 0.0328(3) 0.3438(4) 0.0296 Uani
O4E O 0.44608(19) 0.0328(3) 0.1562(4) 0.0296 Uani
O5F O 0.1505(2) 0.5454(3) 0.2806(4) 0.0328 Uani
H1A H 0.5092 0.3258 0.1878 0.0740 Uiso
N1F N 0.2179(2) 0.2182(3) 0.7943(5) 0.0314 Uani
N2F N 0.2019(2) 0.4240(3) 0.4289(5) 0.0284 Uani
H2F H 0.2193 0.4698 0.3991 0.0340 Uiso
C1F C 0.2402(3) 0.2977(4) 0.7449(6) 0.0287 Uani
H3F H 0.2334 0.3396 0.8075 0.0350 Uiso
H4F H 0.2854 0.2946 0.7407 0.0350 Uiso
C2F C 0.2059(3) 0.3201(4) 0.6081(6) 0.0312 Uani
H5F H 0.1612 0.3284 0.6128 0.0370 Uiso
H6F H 0.2099 0.2769 0.5459 0.0370 Uiso
C3F C 0.2348(3) 0.3963(4) 0.5618(6) 0.0310 Uani
H7F H 0.2322 0.4383 0.6267 0.0370 Uiso
H8F H 0.2792 0.3869 0.5556 0.0370 Uiso
C4F C 0.2049(3) 0.3649(4) 0.3160(6) 0.0294 Uani
H9F H 0.1868 0.3140 0.3375 0.0350 Uiso
H10F H 0.1802 0.3853 0.2359 0.0350 Uiso
C5F C 0.2267(4) 0.1476(4) 0.7078(7) 0.0353 Uani
H11F H 0.2005 0.1550 0.6230 0.0420 Uiso
H12F H 0.2121 0.0997 0.7483 0.0420 Uiso
C6F C 0.1497(3) 0.2224(4) 0.8140(6) 0.0327 Uani
H13F H 0.1247 0.2390 0.7317 0.0390 Uiso
H14F H 0.1355 0.1694 0.8360 0.0390 Uiso
C7F C 0.1385(3) 0.2810(4) 0.9234(6) 0.0320 Uani
C8F C 0.1333(3) 0.4455(4) 0.4367(6) 0.0281 Uani
H15F H 0.1287 0.4611 0.5266 0.0330 Uiso
H16F H 0.1066 0.3990 0.4136 0.0330 Uiso
C9F C 0.1122(3) 0.5139(4) 0.3432(5) 0.0241 Uani
O7 O 0.4445(3) 0.0974(5) -0.1381(7) 0.0833 Uani
O8 O 0.1874(3) -0.0580(3) 0.5413(7) 0.0530 Uani
O9 O 0.1134(5) 0.1872(7) 0.4002(12) 0.1270 Uani
loop_
_atom_site_aniso_label
_atom_site_aniso_U_11
_atom_site_aniso_U_22
_atom_site_aniso_U_33
_atom_site_aniso_U_23
_atom_site_aniso_U_13
_atom_site_aniso_U_12
U1 0.01673(18) 0.01844(18) 0.02464(19) 0.000 0.00252(11) 0.000
O1 0.022(2) 0.031(2) 0.029(2) 0.0027(17) 0.0041(17) 0.0013(18)
O2 0.025(2) 0.045(3) 0.028(2) 0.0024(19) 0.0027(18) 0.014(2)
O3 0.028(3) 0.068(4) 0.031(2) 0.003(2) 0.003(2) 0.019(2)
O4 0.022(2) 0.030(2) 0.037(2) 0.0056(18) 0.0044(18) 0.0054(18)
O5 0.026(2) 0.038(3) 0.035(2) 0.015(2) 0.0064(18) 0.002(2)
O6 0.066(6) 0.014(3) 0.108(7) 0.000 0.018(5) 0.000
N1 0.025(3) 0.042(3) 0.028(3) 0.006(2) 0.006(2) 0.017(2)
N2 0.027(3) 0.038(3) 0.021(2) 0.008(2) 0.006(2) 0.013(2)
C1 0.025(3) 0.038(3) 0.023(3) 0.007(2) 0.003(2) 0.013(3)
C2 0.037(4) 0.035(3) 0.021(3) 0.007(3) 0.002(3) 0.015(3)
C3 0.033(3) 0.038(4) 0.022(3) 0.003(3) 0.004(3) 0.010(3)
C4 0.030(3) 0.038(4) 0.022(3) 0.005(2) 0.010(3) 0.017(3)
C5 0.035 0.035 0.038 0.009 0.013 0.01
C6 0.024(3) 0.041(4) 0.034(3) 0.008(3) 0.007(3) 0.013(3)
C7 0.032(3) 0.038(3) 0.027(3) 0.008(3) 0.008(3) 0.012(3)
C8 0.025(3) 0.034(3) 0.027(3) 0.006(3) 0.010(2) 0.013(3)
C9 0.026(3) 0.025(3) 0.021(3) -0.001(2) 0.002(2) 0.005(3)
U1D 0.01673 0.01844 0.02464 0 0.00252 0
U1B 0.01673 0.01844 0.02464 0 0.00252 0
U1F 0.01673 0.01844 0.02464 0 0.00252 0
O1A 0.022 0.031 0.029 -0.0027 0.0041 -0.0013
O2F 0.025 0.045 0.028 0.0024 0.0027 0.014
O2A 0.025 0.045 0.028 -0.0024 0.0027 -0.014
O3F 0.028 0.068 0.031 0.003 0.003 0.019
O4F 0.022 0.03 0.037 0.0056 0.0044 0.0054
O4D 0.022 0.03 0.037 0.0056 0.0044 0.0054
O4E 0.022 0.03 0.037 -0.0056 0.0044 -0.0054
O5F 0.026 0.038 0.035 0.015 0.0064 0.002
N1F 0.025 0.042 0.028 0.006 0.006 0.017
N2F 0.027 0.038 0.021 0.008 0.006 0.013
C1F 0.025 0.038 0.023 0.007 0.003 0.013
C2F 0.037 0.035 0.021 0.007 0.002 0.015
C3F 0.033 0.038 0.022 0.003 0.004 0.01
C4F 0.03 0.038 0.022 0.005 0.01 0.017
C5F 0.035(4) 0.035(4) 0.038(4) 0.009(3) 0.013(3) 0.010(3)
C6F 0.024 0.041 0.034 0.008 0.007 0.013
C7F 0.032 0.038 0.027 0.008 0.008 0.012
C8F 0.025 0.034 0.027 0.006 0.01 0.013
C9F 0.026 0.025 0.021 -0.001 0.002 0.005
O7 0.076(4) 0.111(6) 0.061(4) -0.022(4) 0.003(3) 0.010(4)
O8 0.063(4) 0.033(3) 0.053(4) -0.013(3) -0.028(3) 0.007(3)
O9 0.110(8) 0.105(8) 0.168(10) -0.014(7) 0.026(7) 0.007(7)
loop_
_geom_bond_atom_site_label_1
_geom_bond_atom_site_label_2
_geom_bond_site_symmetry_1
_geom_bond_site_symmetry_2
U1 O1 1_555 1_555
O2 U1 1_555 1_555
O3 C7 1_555 1_555
O4 C9 1_555 1_555
O5 C9 1_555 1_555
O6 U1 1_555 1_555
H1 O6 1_555 1_555
N1 C1 1_555 1_555
N2 H2 1_555 1_555
C1 H3 1_555 1_555
H4 C1 1_555 1_555
C2 C1 1_555 1_555
H5 C2 1_555 1_555
H6 C2 1_555 1_555
C3 N2 1_555 1_555
H7 C3 1_555 1_555
H8 C3 1_555 1_555
C4 N2 1_555 1_555
H9 C4 1_555 1_555
H10 C4 1_555 1_555
C5 N1 1_555 1_555
H11 C5 1_555 1_555
H12 C5 1_555 1_555
C6 N1 1_555 1_555
H13 C6 1_555 1_555
H14 C6 1_555 1_555
C7 O2 1_555 1_555
C8 N2 1_555 1_555
H15 C8 1_555 1_555
H16 C8 1_555 1_555
C9 C8 1_555 1_555
U1D O4 1_555 1_555
U1B O4F 1_555 1_555
U1F O2F 1_555 1_555
O1A U1 1_555 1_555
O2F C7F 1_555 1_555
O2A U1 1_555 1_555
O3F C7F 1_555 1_555
O4F C9F 1_555 1_555
O4D U1 1_555 1_555
O4E U1 1_555 1_555
O5F C9F 1_555 1_555
H1A O6 1_555 1_555
N1F C1F 1_555 1_555
N2F H2F 1_555 1_555
C1F H3F 1_555 1_555
H4F C1F 1_555 1_555
C2F C1F 1_555 1_555
H5F C2F 1_555 1_555
H6F C2F 1_555 1_555
C3F N2F 1_555 1_555
H7F C3F 1_555 1_555
H8F C3F 1_555 1_555
C4F C5 1_555 1_555
H9F C4F 1_555 1_555
H10F C4F 1_555 1_555
C5F C4 1_555 1_555
H11F C5F 1_555 1_555
H12F C5F 1_555 1_555
C6F N1F 1_555 1_555
H13F C6F 1_555 1_555
H14F C6F 1_555 1_555
C7F C6F 1_555 1_555
C8F N2F 1_555 1_555
H15F C8F 1_555 1_555
H16F C8F 1_555 1_555
C9F C8F 1_555 1_555
C2 C3 1_555 1_555
C6 C7 1_555 1_555
N1F C5F 1_555 1_555
N2F C4F 1_555 1_555
C2F C3F 1_555 1_555

#END
