
#######################################################################
#
#                 Cambridge Crystallographic Data Centre
#                                CCDC 
#
#######################################################################
#
# If this CIF has been generated from an entry in the Cambridge 
# Structural Database, then it will include bibliographic, chemical, 
# crystal, experimental, refinement or atomic coordinate data resulting 
# from the CCDC's data processing and validation procedures.
#
#######################################################################

data_AWEJIW
_chemical_formula_moiety         '(C46 H39 Cd3 N1 O17)n'
_symmetry_cell_setting           triclinic
_symmetry_space_group_name_H-M   'P -1'
_symmetry_Int_Tables_number      2
_space_group_name_Hall           '-P 1'
loop_
_symmetry_equiv_pos_site_id
_symmetry_equiv_pos_as_xyz
1 x,y,z
2 -x,-y,-z
_cell_length_a                   7.1422(16)
_cell_length_b                   21.211(5)
_cell_length_c                   22.181(5)
_cell_angle_alpha                62.412(4)
_cell_angle_beta                 81.392(4)
_cell_angle_gamma                89.538(4)
_cell_volume                     2937.46
loop_
_atom_site_label
_atom_site_type_symbol
_atom_site_fract_x
_atom_site_fract_y
_atom_site_fract_z
C43 C 0.4053(13) 0.1938(5) 0.6789(6)
H23 H 0.3557 0.1957 0.6402
H24 H 0.5397 0.1892 0.6728
H25 H 0.3807 0.2368 0.6821
C44 C 0.4383(11) 0.0754(5) 0.7718(4)
H26 H 0.5133 0.0858 0.7989
H27 H 0.5205 0.0720 0.7351
H28 H 0.3647 0.0310 0.8004
C45 C 0.1357(12) 0.1214(4) 0.7700(4)
C46 C 0.0207(12) 0.1803(4) 0.7335(4)
H29 H -0.0100 0.1778 0.6939
H30 H 0.0909 0.2248 0.7188
H31 H -0.0942 0.1771 0.7637
N1 N 0.3125(10) 0.1318(3) 0.7429(3)
O17 O 0.0705(8) 0.0722(3) 0.8260(3)
Cd1 Cd 0.83495(8) 0.30950(3) 0.43075(3)
Cd2 Cd 0.33641(8) 0.25340(3) 0.43035(3)
Cd3 Cd 1.74126(8) 0.09271(3) -0.01583(3)
C1 C 1.4736(10) 0.1024(3) 0.0764(3)
C2 C 1.3209(10) 0.1025(4) 0.1318(4)
C3 C 1.1361(12) 0.0951(5) 0.1265(4)
H1 H 1.1064 0.0911 0.0889
C4 C 0.9927(11) 0.0936(4) 0.1762(4)
H2 H 0.8669 0.0844 0.1746
C5 C 1.0390(11) 0.1061(4) 0.2294(3)
C6 C 1.2286(10) 0.1188(3) 0.2319(4)
H3 H 1.2616 0.1283 0.2660
C7 C 1.3702(11) 0.1167(4) 0.1801(3)
H4 H 1.4977 0.1253 0.1802
C8 C 0.8854(10) 0.1110(4) 0.2811(4)
C9 C 0.8966(10) 0.1614(3) 0.3030(3)
H5 H 1.0010 0.1945 0.2843
C10 C 0.7567(11) 0.1649(4) 0.3524(4)
C11 C 0.6066(10) 0.1128(4) 0.3813(3)
H6 H 0.5140 0.1131 0.4154
C12 C 0.5897(9) 0.0608(3) 0.3614(4)
C13 C 0.7317(10) 0.0621(4) 0.3101(4)
H7 H 0.7216 0.0282 0.2949
C14 C 0.4324(10) 0.0050(4) 0.3946(4)
C15 C 0.4587(11) -0.0643(4) 0.4059(4)
H8 H 0.5801 -0.0760 0.3946
C16 C 0.3106(10) -0.1167(4) 0.4332(3)
H9 H 0.3323 -0.1624 0.4393
C17 C 0.1311(11) -0.1002(4) 0.4514(3)
C18 C 0.0957(10) -0.0308(3) 0.4386(3)
H10 H -0.0273 -0.0191 0.4478
C19 C 0.2447(10) 0.0202(4) 0.4123(4)
H11 H 0.2216 0.0659 0.4059
C20 C -0.0250(10) -0.1586(4) 0.4825(3)
C21 C 0.7773(10) 0.2190(4) 0.3750(4)
C22 C 0.5286(11) 0.3328(4) 0.5098(4)
C23 C 0.3720(9) 0.3617(3) 0.5397(3)
C24 C 0.4064(11) 0.4149(4) 0.5562(3)
H12 H 0.5297 0.4344 0.5475
C25 C 0.2597(11) 0.4396(4) 0.5855(4)
H13 H 0.2841 0.4759 0.5962
C26 C 0.0722(11) 0.4098(3) 0.5994(3)
C27 C 0.0381(11) 0.3584(4) 0.5802(4)
H14 H -0.0856 0.3404 0.5866
C28 C 0.1861(10) 0.3334(4) 0.5514(4)
H15 H 0.1622 0.2978 0.5397
C29 C -0.0877(10) 0.4334(4) 0.6340(3)
C30 C -0.1064(10) 0.5052(3) 0.6199(3)
H16 H -0.0125 0.5392 0.5879
C31 C -0.2568(11) 0.5284(4) 0.6510(4)
C32 C -0.3995(10) 0.4745(4) 0.6969(3)
H17 H -0.5066 0.4875 0.7168
C33 C -0.3862(10) 0.4020(4) 0.7135(4)
C34 C -0.2262(11) 0.3817(4) 0.6828(4)
H18 H -0.2128 0.3339 0.6950
C35 C -0.2771(11) 0.6016(4) 0.6321(4)
C36 C -0.5381(10) 0.3480(4) 0.7636(4)
C37 C -0.4923(11) 0.2805(4) 0.8091(4)
H19 H -0.3660 0.2696 0.8098
C38 C -0.7310(11) 0.3656(4) 0.7645(4)
H20 H -0.7601 0.4116 0.7357
C39 C -0.8728(10) 0.3156(4) 0.8071(3)
H21 H -0.9985 0.3270 0.8050
C40 C -0.8312(11) 0.2454(3) 0.8551(4)
C41 C -0.6388(11) 0.2282(4) 0.8546(4)
H22 H -0.6088 0.1826 0.8842
C42 C -0.9861(10) 0.1941(4) 0.9031(3)
O1 O 1.4328(7) 0.0808(3) 0.0338(3)
O2 O 1.6421(8) 0.1187(3) 0.0758(3)
O3 O 0.9328(7) 0.2544(3) 0.3601(2)
O4 O 0.6448(7) 0.2284(3) 0.4115(3)
O5 O -0.0039(8) -0.2125(3) 0.4773(3)
O6 O -0.1691(8) -0.1544(3) 0.5202(3)
O7 O 0.6936(8) 0.3635(3) 0.4933(3)
O8 O 0.4923(7) 0.2823(3) 0.4982(3)
O9 O -0.1364(8) 0.6421(3) 0.6147(3)
O10 O -0.4387(7) 0.6263(3) 0.6294(3)
O11 O -1.1537(8) 0.2027(3) 0.8953(3)
O12 O -0.9470(7) 0.1337(2) 0.9488(3)
O13 O 1.7184(7) 0.0557(2) -0.0966(2)
H32 H 1.8285 0.0585 -0.1189
H33 H 1.6726 0.0127 -0.0764
O14 O 1.7750(7) -0.0218(3) 0.0585(3)
H34 H 1.8592 -0.0379 0.0389
H35 H 1.8091 -0.0246 0.0947
O15 O 0.3017(7) 0.2396(3) 0.3389(3)
H36 H 0.2473 0.2765 0.3145
H37 H 0.2172 0.2053 0.3550
O16 O 0.8016(7) 0.4116(3) 0.3346(3)
H38 H 0.7231 0.4330 0.3502
H39 H 0.7388 0.3966 0.3136
Cd1A Cd 0.16505(8) -0.30950(3) 0.56925(3)
Cd1A_2 Cd 0.16505(8) 0.69050(3) 0.56925(3)
Cd2A Cd -0.33641(8) -0.25340(3) 0.56965(3)
Cd2A_2 Cd -0.33641(8) 0.74660(3) 0.56965(3)
Cd3_2 Cd -1.25874(8) 0.09271(3) 0.98417(3)
O5A O 1.0039(8) 0.2125(3) 0.5227(3)
O6A O 0.1691(8) 0.1544(3) 0.4798(3)
O9A O 1.1364(8) 0.3579(3) 0.3853(3)
O9A_2 O 0.1364(8) 0.3579(3) 0.3853(3)
O10A O 0.4387(7) 0.3737(3) 0.3706(3)
O11_2 O 1.8463(8) 0.2027(3) -0.1047(3)
O12_2 O 2.0530(7) 0.1337(2) -0.0512(3)
loop_
_geom_bond_atom_site_label_1
_geom_bond_atom_site_label_2
_geom_bond_site_symmetry_1
_geom_bond_site_symmetry_2
Cd1 O3 1_555 1_555
Cd2 O4 1_555 1_555
Cd3 O1 1_555 1_555
C1 C2 1_555 1_555
C2 C3 1_555 1_555
C3 H1 1_555 1_555
C4 C3 1_555 1_555
H2 C4 1_555 1_555
C5 C4 1_555 1_555
C6 C5 1_555 1_555
H3 C6 1_555 1_555
C7 C2 1_555 1_555
H4 C7 1_555 1_555
C8 C5 1_555 1_555
C9 C8 1_555 1_555
H5 C9 1_555 1_555
C10 C9 1_555 1_555
C11 C10 1_555 1_555
H6 C11 1_555 1_555
C12 C11 1_555 1_555
C13 C8 1_555 1_555
H7 C13 1_555 1_555
C14 C12 1_555 1_555
C15 C14 1_555 1_555
H8 C15 1_555 1_555
C16 C15 1_555 1_555
H9 C16 1_555 1_555
C17 C16 1_555 1_555
C18 C17 1_555 1_555
H10 C18 1_555 1_555
C19 C14 1_555 1_555
H11 C19 1_555 1_555
C20 C17 1_555 1_555
C21 C10 1_555 1_555
C22 C23 1_555 1_555
C23 C24 1_555 1_555
C24 H12 1_555 1_555
C25 C24 1_555 1_555
H13 C25 1_555 1_555
C26 C25 1_555 1_555
C27 C26 1_555 1_555
H14 C27 1_555 1_555
C28 C23 1_555 1_555
H15 C28 1_555 1_555
C29 C26 1_555 1_555
C30 C29 1_555 1_555
H16 C30 1_555 1_555
C31 C30 1_555 1_555
C32 C31 1_555 1_555
H17 C32 1_555 1_555
C33 C32 1_555 1_555
C34 C29 1_555 1_555
H18 C34 1_555 1_555
C35 C31 1_555 1_555
C36 C33 1_555 1_555
C37 C36 1_555 1_555
H19 C37 1_555 1_555
C38 C36 1_555 1_555
H20 C38 1_555 1_555
C39 C38 1_555 1_555
H21 C39 1_555 1_555
C40 C39 1_555 1_555
C41 C37 1_555 1_555
H22 C41 1_555 1_555
C42 C40 1_555 1_555
C43 H23 1_555 1_555
H24 C43 1_555 1_555
H25 C43 1_555 1_555
C44 H26 1_555 1_555
H27 C44 1_555 1_555
H28 C44 1_555 1_555
C45 C46 1_555 1_555
C46 H29 1_555 1_555
H30 C46 1_555 1_555
H31 C46 1_555 1_555
N1 C43 1_555 1_555
O1 C1 1_555 1_555
O2 Cd3 1_555 1_555
O3 C21 1_555 1_555
O4 Cd1 1_555 1_555
O5 C20 1_555 1_555
O6 C20 1_555 1_555
O7 Cd1 1_555 1_555
O8 Cd1 1_555 1_555
O9 C35 1_555 1_555
O10 C35 1_555 1_555
O11 C42 1_555 1_555
O12 C42 1_555 1_555
O13 Cd3 1_555 1_555
H32 O13 1_555 1_555
H33 O13 1_555 1_555
O14 Cd3 1_555 1_555
H34 O14 1_555 1_555
H35 O14 1_555 1_555
O15 Cd2 1_555 1_555
H36 O15 1_555 1_555
H37 O15 1_555 1_555
O16 Cd1 1_555 1_555
H38 O16 1_555 1_555
H39 O16 1_555 1_555
O17 C45 1_555 1_555
Cd1A O5 1_555 1_555
Cd1A_2 O9 1_555 1_555
Cd2A O6 1_555 1_555
Cd2A_2 O9 1_555 1_555
Cd3_2 O11 1_555 1_555
O5A Cd1 1_555 1_555
O6A Cd2 1_555 1_555
O9A Cd1 1_555 1_555
O9A_2 Cd2 1_555 1_555
O10A Cd2 1_555 1_555
O11_2 Cd3 1_555 1_555
O12_2 Cd3 1_555 1_555
Cd2 O8 1_555 1_555
C1 O2 1_555 1_555
C6 C7 1_555 1_555
C12 C13 1_555 1_555
C18 C19 1_555 1_555
C21 O4 1_555 1_555
C22 O7 1_555 1_555
C22 O8 1_555 1_555
C27 C28 1_555 1_555
C33 C34 1_555 1_555
C40 C41 1_555 1_555
C44 N1 1_555 1_555
C45 N1 1_555 1_555
O10 Cd2A_2 1_555 1_555
O12 Cd3_2 1_555 1_555

#END
