
#######################################################################
#
#                 Cambridge Crystallographic Data Centre
#                                CCDC 
#
#######################################################################
#
# If this CIF has been generated from an entry in the Cambridge 
# Structural Database, then it will include bibliographic, chemical, 
# crystal, experimental, refinement or atomic coordinate data resulting 
# from the CCDC's data processing and validation procedures.
#
#######################################################################

data_AWEJES
_chemical_formula_moiety         'C126 H102 N4 O76 Zn29'
_symmetry_cell_setting           orthorhombic
_symmetry_space_group_name_H-M   'P n n m'
_symmetry_Int_Tables_number      58
_space_group_name_Hall           '-P 2 2n'
loop_
_symmetry_equiv_pos_site_id
_symmetry_equiv_pos_as_xyz
1 x,y,z
2 -x,-y,z
3 1/2+x,1/2-y,1/2-z
4 1/2-x,1/2+y,1/2-z
5 -x,-y,-z
6 x,y,-z
7 1/2-x,1/2+y,1/2+z
8 1/2+x,1/2-y,1/2+z
_cell_length_a                   21.209(2)
_cell_length_b                   22.825(2)
_cell_length_c                   18.1999(18)
_cell_angle_alpha                90
_cell_angle_beta                 90
_cell_angle_gamma                90
_cell_volume                     8810.49
loop_
_atom_site_label
_atom_site_type_symbol
_atom_site_fract_x
_atom_site_fract_y
_atom_site_fract_z
O20 O 0.8392(3) 0.1772(3) 0.4069(3)
H29 H 0.8496 0.1470 0.4315
H30 H 0.8673 0.1809 0.3739
O22 O 0.5443(4) 0.4018(4) 0.7028(4)
H33 H 0.5074 0.3945 0.7184
H34 H 0.5484 0.4385 0.6962
O23 O 0.8379(5) 0.0208(5) 0.2498(5)
H35 H 0.8678 0.0040 0.2728
H36 H 0.8117 -0.0049 0.2352
O24 O 0.8108(6) 0.0994(5) 0.0895(6)
H37 H 0.8268 0.0810 0.0534
H38 H 0.7713 0.1032 0.0829
O28 O 0.5604(4) 0.5231(3) 0.1587(5)
H45 H 0.5437 0.5162 0.2003
H46 H 0.5401 0.5502 0.1372
O29 O 0.5653(5) 0.3904(5) 0.0937(5)
H48 H 0.5876 0.3689 0.1217
C1 C 0.8919(2) 0.5455(2) -0.3477(2)
C2 C 0.9016(2) 0.5161(2) -0.2751(2)
C3 C 0.8835(2) 0.5451(2) -0.2090(2)
H1 H 0.8639 0.5815 -0.2105
C4 C 0.8958(2) 0.51786(19) -0.1424(2)
H2 H 0.8840 0.5372 -0.0996
C5 C 0.92465(19) 0.46326(19) -0.1357(2)
C6 C 0.9396(2) 0.4333(2) -0.2056(2)
H3 H 0.9570 0.3959 -0.2049
C7 C 0.9276(2) 0.46038(19) -0.2711(2)
H4 H 0.9373 0.4408 -0.3145
C8 C 0.9209(3) 0.4578(3) 0.0000
H5 H 0.8869 0.4837 0.0000
C9 C 0.9468(2) 0.4380(2) -0.0679(2)
C10 C 0.9954(2) 0.3982(2) -0.0669(2)
H6 H 1.0118 0.3837 -0.1107
C11 C 1.0198(3) 0.3796(3) 0.0000
C12 C 1.0776(3) 0.3407(3) 0.0000
C13 C 0.4882(2) 0.7985(2) -0.8369(2)
C14 C 0.5238(2) 0.7836(2) -0.7709(3)
C15 C 0.5866(2) 0.7919(2) -0.7654(3)
H7 H 0.6091 0.8055 -0.8058
C16 C 0.6186(2) 0.77998(19) -0.6987(2)
H8 H 0.6619 0.7854 -0.6956
C17 C 0.5856(2) 0.7604(2) -0.6384(3)
C18 C 0.5186(2) 0.7523(2) -0.6432(3)
H9 H 0.4948 0.7406 -0.6028
C19 C 0.4906(2) 0.7629(2) -0.7124(2)
H10 H 0.4478 0.7554 -0.7182
C20 C 0.5862(3) 0.7592(3) -0.5000
H11 H 0.5442 0.7711 -0.5000
C21 C 0.6168(2) 0.7506(2) -0.5672(2)
C22 C 0.6816(2) 0.7366(2) -0.5678(2)
H12 H 0.7031 0.7316 -0.6119
C23 C 0.7130(3) 0.7303(3) -0.5000
C24 C 0.7814(3) 0.7116(3) -0.5000
C25 C 1.2809(2) 0.6983(2) 0.3429(3)
C26 C 1.2769(2) 0.6666(2) 0.2711(3)
C27 C 1.3068(2) 0.6879(2) 0.2091(2)
H13 H 1.3321 0.7211 0.2125
C28 C 1.2995(2) 0.6599(2) 0.1417(3)
H14 H 1.3193 0.6747 0.1001
C29 C 1.2624(2) 0.6098(2) 0.1368(2)
C30 C 1.2319(2) 0.5881(2) 0.1995(2)
H15 H 1.2069 0.5547 0.1965
C31 C 1.2393(2) 0.6170(2) 0.2663(2)
H16 H 1.2190 0.6029 0.3080
C32 C 1.2575(3) 0.6085(3) 0.0000
H17 H 1.2539 0.6491 0.0000
C33 C 1.2604(2) 0.5764(2) 0.0673(2)
C34 C 1.2524(2) 0.5142(2) 0.0632(3)
H18 H 1.2493 0.4932 0.1068
C35 C 1.2493(3) 0.4849(3) 0.0000
C36 C 1.2399(3) 0.4232(3) 0.0000
N1 N 1.1248(4) 0.5940(4) 0.5398(4)
O1 O 0.86726(14) 0.59601(14) -0.34560(17)
O2 O 0.91558(14) 0.52121(14) -0.40077(17)
O3 O 1.10247(14) 0.32639(13) -0.05949(17)
O4 O 0.43091(14) 0.78861(13) -0.84366(17)
O5 O 0.52091(14) 0.81396(14) -0.89051(17)
O6 O 0.80646(13) 0.70206(13) -0.43815(16)
O7 O 1.24722(15) 0.68660(14) 0.39252(18)
O8 O 1.32281(15) 0.73773(15) 0.34783(17)
O9 O 1.23237(14) 0.39472(13) -0.05943(17)
O10 O 0.92204(19) 0.63437(18) -0.5000
O12 O 1.1752(2) 0.6107(2) 0.5000
O13 O 1.2279(2) 0.2746(2) 0.0000
H19 H 1.2643 0.2900 0.0000
O14 O 1.0000 0.5000 -0.5000
O15 O 0.80265(19) 0.5129(2) -0.5000
H20 H 0.7992 0.4883 -0.4652
O16 O 1.32490(19) 0.65172(18) 0.5000
H22 H 1.3486 0.6668 0.4675
O17 O 1.1407(2) 0.73111(19) 0.5000
H23 H 1.1283 0.7359 0.5440
O18 O 1.23547(14) 0.35395(14) -0.16510(16)
H25 H 1.2607 0.3282 -0.1816
H26 H 1.2589 0.3787 -0.1434
Zn1 Zn 0.89925(4) 0.54996(3) -0.5000
Zn2 Zn 0.88305(2) 0.66359(2) -0.41089(3)
Zn3 Zn 1.00723(4) 0.66713(4) -0.5000
Zn4 Zn 1.23560(4) 0.69048(4) 0.5000
Zn5 Zn 1.19509(3) 0.31198(2) -0.08043(3)
C1E C 0.8919(2) 0.5455(2) 0.3477(2)
C1E_2 C 0.8919(2) 0.5455(2) -0.6523(2)
C1_2 C 0.8919(2) 0.5455(2) -1.3477(2)
C2E C 0.9016(2) 0.5161(2) 0.2751(2)
C2E_2 C 0.9016(2) 0.5161(2) -0.7249(2)
C2_2 C 0.9016(2) 0.5161(2) -1.2751(2)
C3E C 0.8835(2) 0.5451(2) 0.2090(2)
C3E_2 C 0.8835(2) 0.5451(2) -0.7910(2)
C3_2 C 0.8835(2) 0.5451(2) -1.2090(2)
H1E H 0.8639 0.5815 0.2105
H1E_2 H 0.8639 0.5815 -0.7895
H1_2 H 0.8639 0.5815 -1.2105
C4E C 0.8958(2) 0.51786(19) 0.1424(2)
C4E_2 C 0.8958(2) 0.51786(19) -0.8576(2)
C4_2 C 0.8958(2) 0.51786(19) -1.1424(2)
H2E H 0.8840 0.5372 0.0996
H2E_2 H 0.8840 0.5372 -0.9004
H2_2 H 0.8840 0.5372 -1.0996
C5E C 0.92465(19) 0.46326(19) 0.1357(2)
C5E_2 C 0.92465(19) 0.46326(19) -0.8643(2)
C5_2 C 0.92465(19) 0.46326(19) -1.1357(2)
C6E C 0.9396(2) 0.4333(2) 0.2056(2)
C6E_2 C 0.9396(2) 0.4333(2) -0.7944(2)
C6_2 C 0.9396(2) 0.4333(2) -1.2056(2)
H3E H 0.9570 0.3959 0.2049
H3E_2 H 0.9570 0.3959 -0.7951
H3_2 H 0.9570 0.3959 -1.2049
C7E C 0.9276(2) 0.46038(19) 0.2711(2)
C7E_2 C 0.9276(2) 0.46038(19) -0.7289(2)
C7_2 C 0.9276(2) 0.46038(19) -1.2711(2)
H4E H 0.9373 0.4408 0.3145
H4E_2 H 0.9373 0.4408 -0.6855
H4_2 H 0.9373 0.4408 -1.3145
C8_2 C 0.9209(3) 0.4578(3) -1.0000
H5_2 H 0.8869 0.4837 -1.0000
C9E C 0.9468(2) 0.4380(2) 0.0679(2)
C9E_2 C 0.9468(2) 0.4380(2) -0.9321(2)
C9_2 C 0.9468(2) 0.4380(2) -1.0679(2)
C10E C 0.9954(2) 0.3982(2) 0.0669(2)
C10E_2 C 0.9954(2) 0.3982(2) -0.9331(2)
C10_2 C 0.9954(2) 0.3982(2) -1.0669(2)
H6E H 1.0118 0.3837 0.1107
H6E_2 H 1.0118 0.3837 -0.8893
H6_2 H 1.0118 0.3837 -1.1107
C11_2 C 1.0198(3) 0.3796(3) -1.0000
C12_2 C 1.0776(3) 0.3407(3) -1.0000
C13E C 0.4882(2) 0.7985(2) -0.1631(2)
C13G C 0.9882(2) 0.7015(2) -0.3369(2)
C13B C 0.9882(2) 0.7015(2) 0.3369(2)
C14E C 0.5238(2) 0.7836(2) -0.2291(3)
C14G C 1.0238(2) 0.7164(2) -0.2709(3)
C14B C 1.0238(2) 0.7164(2) 0.2709(3)
C15E C 0.5866(2) 0.7919(2) -0.2346(3)
C15G C 1.0866(2) 0.7081(2) -0.2654(3)
C15B C 1.0866(2) 0.7081(2) 0.2654(3)
H7E H 0.6091 0.8055 -0.1942
H7G H 1.1091 0.6945 -0.3058
H7B H 1.1091 0.6945 0.3058
C16E C 0.6186(2) 0.77998(19) -0.3013(2)
C16G C 1.1186(2) 0.72002(19) -0.1987(2)
C16B C 1.1186(2) 0.72002(19) 0.1987(2)
H8E H 0.6619 0.7854 -0.3044
H8G H 1.1619 0.7146 -0.1956
H8B H 1.1619 0.7146 0.1956
C17E C 0.5856(2) 0.7604(2) -0.3616(3)
C17G C 1.0856(2) 0.7396(2) -0.1384(3)
C17B C 1.0856(2) 0.7396(2) 0.1384(3)
C18E C 0.5186(2) 0.7523(2) -0.3568(3)
C18G C 1.0186(2) 0.7477(2) -0.1432(3)
C18B C 1.0186(2) 0.7477(2) 0.1432(3)
H9E H 0.4948 0.7406 -0.3972
H9G H 0.9948 0.7594 -0.1028
H9B H 0.9948 0.7594 0.1028
C19E C 0.4906(2) 0.7629(2) -0.2876(2)
C19G C 0.9906(2) 0.7371(2) -0.2124(2)
C19B C 0.9906(2) 0.7371(2) 0.2124(2)
H10E H 0.4478 0.7554 -0.2818
H10G H 0.9478 0.7446 -0.2182
H10B H 0.9478 0.7446 0.2182
C20B C 1.0862(3) 0.7408(3) 0.0000
H11B H 1.0442 0.7289 0.0000
C21E C 0.6168(2) 0.7506(2) -0.4328(2)
C21G C 1.1168(2) 0.7494(2) -0.0672(2)
C21B C 1.1168(2) 0.7494(2) 0.0672(2)
C22E C 0.6816(2) 0.7366(2) -0.4322(2)
C22G C 1.1816(2) 0.7634(2) -0.0678(2)
C22B C 1.1816(2) 0.7634(2) 0.0678(2)
H12E H 0.7031 0.7316 -0.3881
H12G H 1.2031 0.7684 -0.1119
H12B H 1.2031 0.7684 0.1119
C23B C 1.2130(3) 0.7697(3) 0.0000
C24B C 1.2814(3) 0.7884(3) 0.0000
C25E C 1.2809(2) 0.6983(2) -0.3429(3)
C25F C 1.2191(2) 0.1983(2) -0.1571(3)
C25C C 1.2191(2) 0.1983(2) -0.8429(3)
C26E C 1.2769(2) 0.6666(2) -0.2711(3)
C26F C 1.2231(2) 0.1666(2) -0.2289(3)
C26C C 1.2231(2) 0.1666(2) -0.7711(3)
C27E C 1.3068(2) 0.6879(2) -0.2091(2)
C27F C 1.1932(2) 0.1879(2) -0.2909(2)
C27C C 1.1932(2) 0.1879(2) -0.7091(2)
H13E H 1.3321 0.7211 -0.2125
H13F H 1.1679 0.2211 -0.2875
H13C H 1.1679 0.2211 -0.7125
C28E C 1.2995(2) 0.6599(2) -0.1417(3)
C28F C 1.2005(2) 0.1599(2) -0.3583(3)
C28C C 1.2005(2) 0.1599(2) -0.6417(3)
H14E H 1.3193 0.6747 -0.1001
H14F H 1.1807 0.1747 -0.3999
H14C H 1.1807 0.1747 -0.6001
C29E C 1.2624(2) 0.6098(2) -0.1368(2)
C29F C 1.2376(2) 0.1098(2) -0.3632(2)
C29C C 1.2376(2) 0.1098(2) -0.6368(2)
C30E C 1.2319(2) 0.5881(2) -0.1995(2)
C30F C 1.2681(2) 0.0881(2) -0.3005(2)
C30C C 1.2681(2) 0.0881(2) -0.6995(2)
H15E H 1.2069 0.5547 -0.1965
H15F H 1.2931 0.0547 -0.3035
H15C H 1.2931 0.0547 -0.6965
C31E C 1.2393(2) 0.6170(2) -0.2663(2)
C31F C 1.2607(2) 0.1170(2) -0.2337(2)
C31C C 1.2607(2) 0.1170(2) -0.7663(2)
H16E H 1.2190 0.6029 -0.3080
H16F H 1.2810 0.1029 -0.1920
H16C H 1.2810 0.1029 -0.8080
C32C C 1.2425(3) 0.1085(3) -0.5000
H17C H 1.2461 0.1491 -0.5000
C33E C 1.2604(2) 0.5764(2) -0.0673(2)
C33F C 1.2396(2) 0.0764(2) -0.4327(2)
C33C C 1.2396(2) 0.0764(2) -0.5673(2)
C34E C 1.2524(2) 0.5142(2) -0.0632(3)
C34F C 1.2476(2) 0.0142(2) -0.4368(3)
C34C C 1.2476(2) 0.0142(2) -0.5632(3)
H18E H 1.2493 0.4932 -0.1068
H18F H 1.2507 -0.0068 -0.3932
H18C H 1.2507 -0.0068 -0.6068
C35C C 1.2507(3) -0.0151(3) -0.5000
C36C C 1.2601(3) -0.0768(3) -0.5000
N1E N 1.1248(4) 0.5940(4) 0.4602(4)
N1E_2 N 1.1248(4) 0.5940(4) -0.5398(4)
N1_2 N 1.1248(4) 0.5940(4) -0.4602(4)
O1E O 0.86726(14) 0.59601(14) 0.34560(17)
O1E_2 O 0.86726(14) 0.59601(14) -0.65440(17)
O1_2 O 0.86726(14) 0.59601(14) -1.34560(17)
O2E O 0.91558(14) 0.52121(14) 0.40077(17)
O2E_2 O 0.91558(14) 0.52121(14) -0.59923(17)
O2_2 O 0.91558(14) 0.52121(14) -1.40077(17)
O2_3 O 0.91558(14) 0.52121(14) 0.59923(17)
O3E O 1.10247(14) 0.32639(13) 0.05949(17)
O3E_2 O 1.10247(14) 0.32639(13) -0.94051(17)
O3_2 O 1.10247(14) 0.32639(13) -1.05949(17)
O4E O 0.43091(14) 0.78861(13) -0.15634(17)
O4G O 0.93091(14) 0.71139(13) -0.34366(17)
O4B O 0.93091(14) 0.71139(13) 0.34366(17)
O4B_2 O 0.93091(14) 0.71139(13) -0.65634(17)
O4G_2 O 0.93091(14) 0.71139(13) -1.34366(17)
O5E O 0.52091(14) 0.81396(14) -0.10949(17)
O5G O 1.02091(14) 0.68604(14) -0.39051(17)
O5B O 1.02091(14) 0.68604(14) 0.39051(17)
O5B_2 O 1.02091(14) 0.68604(14) -0.60949(17)
O5G_2 O 1.02091(14) 0.68604(14) 0.60949(17)
O6E O 0.80646(13) 0.70206(13) -0.56185(16)
O6G O 1.30646(13) 0.79794(13) 0.06185(16)
O6B O 1.30646(13) 0.79794(13) -0.06185(16)
O6E_2 O 0.80646(13) 0.70206(13) 0.43815(16)
O6_2 O 0.80646(13) 0.70206(13) -1.43815(16)
O7E O 1.24722(15) 0.68660(14) -0.39252(18)
O7F O 1.25278(15) 0.18660(14) -0.10748(18)
O7C O 1.25278(15) 0.18660(14) -0.89252(18)
O7E_2 O 1.24722(15) 0.68660(14) 0.60748(18)
O7_2 O 1.24722(15) 0.68660(14) -0.60748(18)
O8E O 1.32281(15) 0.73773(15) -0.34783(17)
O8F O 1.17719(15) 0.23773(15) -0.15217(17)
O8C O 1.17719(15) 0.23773(15) -0.84783(17)
O8C_2 O 1.17719(15) 0.23773(15) 0.15217(17)
O8F_2 O 1.17719(15) 0.23773(15) -1.15217(17)
O9E O 1.23237(14) 0.39472(13) 0.05943(17)
O9F O 1.26763(14) -0.10528(13) -0.55943(17)
O9C O 1.26763(14) -0.10528(13) -0.44057(17)
O9E_2 O 1.23237(14) 0.39472(13) -0.94057(17)
O9_2 O 1.23237(14) 0.39472(13) -1.05943(17)
O10_2 O 0.92204(19) 0.63437(18) 0.5000
O10_3 O 0.92204(19) 0.63437(18) -1.5000
O12_2 O 1.1752(2) 0.6107(2) -0.5000
O13_2 O 1.2279(2) 0.2746(2) -1.0000
O13C O 1.2721(2) 0.7746(2) 0.5000
O13C_2 O 1.2721(2) 0.7746(2) -0.5000
H19_2 H 1.2643 0.2900 -1.0000
H19C H 1.2357 0.7900 0.5000
H19C_2 H 1.2357 0.7900 -0.5000
O14_2 O 1.0000 0.5000 0.5000
O15_2 O 0.80265(19) 0.5129(2) 0.5000
H20E H 0.7992 0.4883 -0.5348
H20E_2 H 0.7992 0.4883 0.4652
H20_2 H 0.7992 0.4883 0.5348
O16_2 O 1.32490(19) 0.65172(18) -0.5000
H22E H 1.3486 0.6668 0.5325
H22E_2 H 1.3486 0.6668 -0.4675
H22_2 H 1.3486 0.6668 -0.5325
O17_2 O 1.1407(2) 0.73111(19) -0.5000
H23E H 1.1283 0.7359 0.4560
H23E_2 H 1.1283 0.7359 -0.5440
H23_2 H 1.1283 0.7359 -0.4560
O18E O 1.23547(14) 0.35395(14) 0.16510(16)
O18E_2 O 1.23547(14) 0.35395(14) -0.83490(16)
O18_2 O 1.23547(14) 0.35395(14) -1.16510(16)
H25E H 1.2607 0.3282 0.1816
H25E_2 H 1.2607 0.3282 -0.8184
H25_2 H 1.2607 0.3282 -1.1816
H26E H 1.2589 0.3787 0.1434
H26E_2 H 1.2589 0.3787 -0.8566
H26_2 H 1.2589 0.3787 -1.1434
Zn1_2 Zn 0.89925(4) 0.54996(3) 0.5000
Zn1A Zn 1.10075(4) 0.45004(3) -0.5000
Zn1_3 Zn 0.89925(4) 0.54996(3) -1.5000
Zn2E Zn 0.88305(2) 0.66359(2) 0.41089(3)
Zn2E_2 Zn 0.88305(2) 0.66359(2) -0.58911(3)
Zn2_2 Zn 0.88305(2) 0.66359(2) -1.41089(3)
Zn2G Zn 0.38305(2) 0.83641(2) -0.91089(3)
Zn2B Zn 0.38305(2) 0.83641(2) -0.08911(3)
Zn2G_2 Zn 1.38305(2) 0.83641(2) 0.08911(3)
Zn2B_2 Zn 1.38305(2) 0.83641(2) -0.08911(3)
Zn2_3 Zn 0.88305(2) 0.66359(2) 0.58911(3)
Zn3_2 Zn 1.00723(4) 0.66713(4) 0.5000
Zn3B Zn 0.50723(4) 0.83287(4) -1.0000
Zn3B_2 Zn 0.50723(4) 0.83287(4) 0.0000
Zn4_2 Zn 1.23560(4) 0.69048(4) -0.5000
Zn4C Zn 1.26440(4) 0.19048(4) 0.0000
Zn4C_2 Zn 1.26440(4) 0.19048(4) -1.0000
Zn5E Zn 1.19509(3) 0.31198(2) 0.08043(3)
Zn5E_2 Zn 1.19509(3) 0.31198(2) -0.91957(3)
Zn5_2 Zn 1.19509(3) 0.31198(2) -1.08043(3)
Zn5F Zn 1.30491(3) 0.81198(2) 0.41957(3)
Zn5C Zn 1.30491(3) 0.81198(2) -0.41957(3)
Zn5F_2 Zn 1.30491(3) -0.18802(2) -0.58043(3)
Zn5C_2 Zn 1.30491(3) -0.18802(2) -0.41957(3)
loop_
_geom_bond_atom_site_label_1
_geom_bond_atom_site_label_2
_geom_bond_site_symmetry_1
_geom_bond_site_symmetry_2
C1 C2 1_555 1_555
C2 C3 1_555 1_555
C3 H1 1_555 1_555
C4 C3 1_555 1_555
H2 C4 1_555 1_555
C5 C4 1_555 1_555
C6 C5 1_555 1_555
H3 C6 1_555 1_555
C7 C2 1_555 1_555
H4 C7 1_555 1_555
C8 H5 1_555 1_555
C9 C5 1_555 1_555
C10 C9 1_555 1_555
H6 C10 1_555 1_555
C11 C10 1_555 1_555
C12 C11 1_555 1_555
C13 C14 1_555 1_555
C14 C15 1_555 1_555
C15 H7 1_555 1_555
C16 C15 1_555 1_555
H8 C16 1_555 1_555
C17 C16 1_555 1_555
C18 C17 1_555 1_555
H9 C18 1_555 1_555
C19 C14 1_555 1_555
H10 C19 1_555 1_555
C20 H11 1_555 1_555
C21 C17 1_555 1_555
C22 C21 1_555 1_555
H12 C22 1_555 1_555
C23 C22 1_555 1_555
C24 C23 1_555 1_555
C25 C26 1_555 1_555
C26 C27 1_555 1_555
C27 H13 1_555 1_555
C28 C27 1_555 1_555
H14 C28 1_555 1_555
C29 C28 1_555 1_555
C30 C29 1_555 1_555
H15 C30 1_555 1_555
C31 C26 1_555 1_555
H16 C31 1_555 1_555
C32 H17 1_555 1_555
C33 C29 1_555 1_555
C34 C33 1_555 1_555
H18 C34 1_555 1_555
C35 C34 1_555 1_555
C36 C35 1_555 1_555
N1 O12 1_555 1_555
O1 C1 1_555 1_555
O2 C1 1_555 1_555
O3 C12 1_555 1_555
O4 C13 1_555 1_555
O5 C13 1_555 1_555
O6 C24 1_555 1_555
O7 C25 1_555 1_555
O8 C25 1_555 1_555
O9 C36 1_555 1_555
O10 Zn1 1_555 1_555
O12 Zn4 1_555 1_555
O13 H19 1_555 1_555
O14 Zn1 1_555 1_555
O15 H20 1_555 1_555
O16 H22 1_555 1_555
O17 H23 1_555 1_555
O18 H25 1_555 1_555
H26 O18 1_555 1_555
O20 H29 1_555 1_555
H30 O20 1_555 1_555
O22 H33 1_555 1_555
H34 O22 1_555 1_555
O23 H35 1_555 1_555
H36 O23 1_555 1_555
O24 H37 1_555 1_555
H38 O24 1_555 1_555
O28 H45 1_555 1_555
H46 O28 1_555 1_555
O29 H48 1_555 1_555
Zn1 O2 1_555 1_555
Zn2 O1 1_555 1_555
Zn3 O10 1_555 1_555
Zn4 O7 1_555 1_555
Zn5 O3 1_555 1_555
C1E C2E 1_555 1_555
C1E_2 C2E_2 1_555 1_555
C1_2 C2_2 1_555 1_555
C2E C3E 1_555 1_555
C2E_2 C3E_2 1_555 1_555
C2_2 C3_2 1_555 1_555
C3E H1E 1_555 1_555
C3E_2 H1E_2 1_555 1_555
C3_2 H1_2 1_555 1_555
C4E C3E 1_555 1_555
C4E_2 C3E_2 1_555 1_555
C4_2 C3_2 1_555 1_555
H2E C4E 1_555 1_555
H2E_2 C4E_2 1_555 1_555
H2_2 C4_2 1_555 1_555
C5E C4E 1_555 1_555
C5E_2 C4E_2 1_555 1_555
C5_2 C4_2 1_555 1_555
C6E C5E 1_555 1_555
C6E_2 C5E_2 1_555 1_555
C6_2 C5_2 1_555 1_555
H3E C6E 1_555 1_555
H3E_2 C6E_2 1_555 1_555
H3_2 C6_2 1_555 1_555
C7E C2E 1_555 1_555
C7E_2 C2E_2 1_555 1_555
C7_2 C2_2 1_555 1_555
H4E C7E 1_555 1_555
H4E_2 C7E_2 1_555 1_555
H4_2 C7_2 1_555 1_555
C8_2 H5_2 1_555 1_555
C9E C8 1_555 1_555
C9E_2 C5E_2 1_555 1_555
C9_2 C5_2 1_555 1_555
C10E C11 1_555 1_555
C10E_2 C9E_2 1_555 1_555
C10_2 C9_2 1_555 1_555
H6E C10E 1_555 1_555
H6E_2 C10E_2 1_555 1_555
H6_2 C10_2 1_555 1_555
C11_2 C10E_2 1_555 1_555
C12_2 C11_2 1_555 1_555
C13E C14E 1_555 1_555
C13G C14G 1_555 1_555
C13B C14B 1_555 1_555
C14E C15E 1_555 1_555
C14G C15G 1_555 1_555
C14B C15B 1_555 1_555
C15E H7E 1_555 1_555
C15G H7G 1_555 1_555
C15B H7B 1_555 1_555
C16E C15E 1_555 1_555
C16G C15G 1_555 1_555
C16B C15B 1_555 1_555
H8E C16E 1_555 1_555
H8G C16G 1_555 1_555
H8B C16B 1_555 1_555
C17E C16E 1_555 1_555
C17G C16G 1_555 1_555
C17B C16B 1_555 1_555
C18E C17E 1_555 1_555
C18G C17G 1_555 1_555
C18B C17B 1_555 1_555
H9E C18E 1_555 1_555
H9G C18G 1_555 1_555
H9B C18B 1_555 1_555
C19E C14E 1_555 1_555
C19G C14G 1_555 1_555
C19B C14B 1_555 1_555
H10E C19E 1_555 1_555
H10G C19G 1_555 1_555
H10B C19B 1_555 1_555
C20B H11B 1_555 1_555
C21E C20 1_555 1_555
C21G C17G 1_555 1_555
C21B C17B 1_555 1_555
C22E C23 1_555 1_555
C22G C21G 1_555 1_555
C22B C21B 1_555 1_555
H12E C22E 1_555 1_555
H12G C22G 1_555 1_555
H12B C22B 1_555 1_555
C23B C22G 1_555 1_555
C24B C23B 1_555 1_555
C25E C26E 1_555 1_555
C25F C26F 1_555 1_555
C25C C26C 1_555 1_555
C26E C27E 1_555 1_555
C26F C27F 1_555 1_555
C26C C27C 1_555 1_555
C27E H13E 1_555 1_555
C27F H13F 1_555 1_555
C27C H13C 1_555 1_555
C28E C27E 1_555 1_555
C28F C27F 1_555 1_555
C28C C27C 1_555 1_555
H14E C28E 1_555 1_555
H14F C28F 1_555 1_555
H14C C28C 1_555 1_555
C29E C28E 1_555 1_555
C29F C28F 1_555 1_555
C29C C28C 1_555 1_555
C30E C29E 1_555 1_555
C30F C29F 1_555 1_555
C30C C29C 1_555 1_555
H15E C30E 1_555 1_555
H15F C30F 1_555 1_555
H15C C30C 1_555 1_555
C31E C26E 1_555 1_555
C31F C26F 1_555 1_555
C31C C26C 1_555 1_555
H16E C31E 1_555 1_555
H16F C31F 1_555 1_555
H16C C31C 1_555 1_555
C32C H17C 1_555 1_555
C33E C32 1_555 1_555
C33F C29F 1_555 1_555
C33C C29C 1_555 1_555
C34E C35 1_555 1_555
C34F C33F 1_555 1_555
C34C C33C 1_555 1_555
H18E C34E 1_555 1_555
H18F C34F 1_555 1_555
H18C C34C 1_555 1_555
C35C C34F 1_555 1_555
C36C C35C 1_555 1_555
N1E N1 1_555 1_555
N1E_2 N1_2 1_555 1_555
N1_2 O12_2 1_555 1_555
O1E C1E 1_555 1_555
O1E_2 C1E_2 1_555 1_555
O1_2 C1_2 1_555 1_555
O2E C1E 1_555 1_555
O2E_2 Zn1 1_555 1_555
O2_2 C1_2 1_555 1_555
O2_3 Zn1_2 1_555 1_555
O3E C12 1_555 1_555
O3E_2 C12_2 1_555 1_555
O3_2 C12_2 1_555 1_555
O4E C13E 1_555 1_555
O4G Zn2 1_555 1_555
O4B C13B 1_555 1_555
O4B_2 Zn2E_2 1_555 1_555
O4G_2 Zn2_2 1_555 1_555
O5E C13E 1_555 1_555
O5G Zn3 1_555 1_555
O5B C13B 1_555 1_555
O5B_2 Zn3 1_555 1_555
O5G_2 Zn3_2 1_555 1_555
O6E C24 1_555 1_555
O6G C24B 1_555 1_555
O6B C24B 1_555 1_555
O6E_2 Zn2E 1_555 1_555
O6_2 Zn2_2 1_555 1_555
O7E C25E 1_555 1_555
O7F C25F 1_555 1_555
O7C C25C 1_555 1_555
O7E_2 Zn4 1_555 1_555
O7_2 Zn4_2 1_555 1_555
O8E C25E 1_555 1_555
O8F Zn5 1_555 1_555
O8C C25C 1_555 1_555
O8C_2 Zn5E 1_555 1_555
O8F_2 Zn5_2 1_555 1_555
O9E C36 1_555 1_555
O9F C36C 1_555 1_555
O9C C36C 1_555 1_555
O9E_2 Zn5E_2 1_555 1_555
O9_2 Zn5_2 1_555 1_555
O10_2 Zn1_2 1_555 1_555
O10_3 Zn1_3 1_555 1_555
O12_2 N1E_2 1_555 1_555
O13_2 H19_2 1_555 1_555
O13C Zn4 1_555 1_555
O13C_2 H19C_2 1_555 1_555
H19C O13C 1_555 1_555
O14_2 Zn1_2 1_555 1_555
O15_2 H20E_2 1_555 1_555
H20E O15 1_555 1_555
H20_2 O15_2 1_555 1_555
O16_2 H22E_2 1_555 1_555
H22E O16 1_555 1_555
H22_2 O16_2 1_555 1_555
O17_2 H23E_2 1_555 1_555
H23E O17 1_555 1_555
H23_2 O17_2 1_555 1_555
O18E H25E 1_555 1_555
O18E_2 H25E_2 1_555 1_555
O18_2 H25_2 1_555 1_555
H26E O18E 1_555 1_555
H26E_2 O18E_2 1_555 1_555
H26_2 O18_2 1_555 1_555
Zn1_2 O2E 1_555 1_555
Zn1A O14 1_555 1_555
Zn1_3 O2_2 1_555 1_555
Zn2E O1E 1_555 1_555
Zn2E_2 O10 1_555 1_555
Zn2_2 O1_2 1_555 1_555
Zn2G O4 1_555 1_555
Zn2B O4E 1_555 1_555
Zn2G_2 O6G 1_555 1_555
Zn2B_2 O6B 1_555 1_555
Zn2_3 O10_2 1_555 1_555
Zn3_2 O5B 1_555 1_555
Zn3B O5 1_555 1_555
Zn3B_2 O5E 1_555 1_555
Zn4_2 O7E 1_555 1_555
Zn4C O13 1_555 1_555
Zn4C_2 O7C 1_555 1_555
Zn5E O13 1_555 1_555
Zn5E_2 O3E_2 1_555 1_555
Zn5_2 O3_2 1_555 1_555
Zn5F O8 1_555 1_555
Zn5C O8E 1_555 1_555
Zn5F_2 O9F 1_555 1_555
Zn5C_2 O9C 1_555 1_555
C6 C7 1_555 1_555
C8 C9 1_555 1_555
C18 C19 1_555 1_555
C20 C21 1_555 1_555
C30 C31 1_555 1_555
C32 C33 1_555 1_555
O6 Zn2 1_555 1_555
O9 Zn5 1_555 1_555
O10 Zn2 1_555 1_555
O12 N1E 1_555 1_555
O13 Zn5 1_555 1_555
O15 Zn1 1_555 1_555
O16 Zn4 1_555 1_555
O17 Zn4 1_555 1_555
O18 Zn5 1_555 1_555
C1E_2 O2E_2 1_555 1_555
C5E C9E 1_555 1_555
C6E C7E 1_555 1_555
C6E_2 C7E_2 1_555 1_555
C6_2 C7_2 1_555 1_555
C8_2 C9E_2 1_555 1_555
C8_2 C9_2 1_555 1_555
C9E C10E 1_555 1_555
C10_2 C11_2 1_555 1_555
C13G O4G 1_555 1_555
C13G O5G 1_555 1_555
C17E C21E 1_555 1_555
C18E C19E 1_555 1_555
C18G C19G 1_555 1_555
C18B C19B 1_555 1_555
C20B C21G 1_555 1_555
C20B C21B 1_555 1_555
C21E C22E 1_555 1_555
C22B C23B 1_555 1_555
C25F O8F 1_555 1_555
C29E C33E 1_555 1_555
C30E C31E 1_555 1_555
C30F C31F 1_555 1_555
C30C C31C 1_555 1_555
C32C C33F 1_555 1_555
C32C C33C 1_555 1_555
C33E C34E 1_555 1_555
C34C C35C 1_555 1_555
O1E_2 Zn2E_2 1_555 1_555
O3E Zn5E 1_555 1_555
O4B Zn2E 1_555 1_555
O6E Zn2E_2 1_555 1_555
O7F Zn4C 1_555 1_555
O8C Zn5E_2 1_555 1_555
O9E Zn5E 1_555 1_555
O10_2 Zn2E 1_555 1_555
O10_2 Zn3_2 1_555 1_555
O10_3 Zn2_2 1_555 1_555
O12_2 Zn4_2 1_555 1_555
O13_2 Zn4C_2 1_555 1_555
O13_2 Zn5E_2 1_555 1_555
O13_2 Zn5_2 1_555 1_555
O13C Zn5F 1_555 1_555
O13C_2 Zn4_2 1_555 1_555
O13C_2 Zn5C 1_555 1_555
O15_2 Zn1_2 1_555 1_555
O16_2 Zn4_2 1_555 1_555
O17_2 Zn4_2 1_555 1_555
O18E Zn5E 1_555 1_555
O18E_2 Zn5E_2 1_555 1_555
O18_2 Zn5_2 1_555 1_555

#END
