
#######################################################################
#
#                 Cambridge Crystallographic Data Centre
#                                CCDC 
#
#######################################################################
#
# If this CIF has been generated from an entry in the Cambridge 
# Structural Database, then it will include bibliographic, chemical, 
# crystal, experimental, refinement or atomic coordinate data resulting 
# from the CCDC's data processing and validation procedures.
#
#######################################################################

data_IROROY
_chemical_formula_moiety         '(C48 H44 Cd4 N8 O24)n'
_symmetry_cell_setting           monoclinic
_symmetry_space_group_name_H-M   'P 21/c'
_symmetry_Int_Tables_number      14
_space_group_name_Hall           '-P 2ybc'
loop_
_symmetry_equiv_pos_site_id
_symmetry_equiv_pos_as_xyz
1 x,y,z
2 -x,1/2+y,1/2-z
3 -x,-y,-z
4 x,1/2-y,1/2+z
_cell_length_a                   7.6297(2)
_cell_length_b                   26.8079(5)
_cell_length_c                   15.0922(3)
_cell_angle_alpha                90
_cell_angle_beta                 90.8380(10)
_cell_angle_gamma                90
_cell_volume                     3086.57
loop_
_atom_site_label
_atom_site_type_symbol
_atom_site_fract_x
_atom_site_fract_y
_atom_site_fract_z
C1 C 0.0127(5) 0.09409(15) 0.5273(3)
C2 C -0.1308(5) 0.10645(14) 0.4606(3)
C3 C -0.0944(5) 0.12350(14) 0.3765(3)
C4 C -0.2340(5) 0.13665(16) 0.3217(3)
H1 H -0.2094 0.1470 0.2644
C5 C -0.4360(5) 0.11952(16) 0.4284(3)
H2 H -0.5517 0.1186 0.4470
C6 C -0.3052(5) 0.10455(16) 0.4863(3)
H3 H -0.3333 0.0932 0.5426
C7 C 0.0881(5) 0.12841(16) 0.3391(3)
C8 C 0.0568(5) 0.19894(15) 0.7210(3)
H4 H 0.1715 0.2107 0.7210
C9 C -0.0787(5) 0.23294(15) 0.7221(3)
H5 H -0.0546 0.2669 0.7243
C10 C -0.2510(5) 0.21644(15) 0.7200(3)
C11 C -0.2804(5) 0.16507(14) 0.7218(3)
C12 C -0.1358(5) 0.13369(15) 0.7227(3)
H6 H -0.1551 0.0995 0.7255
C13 C -0.4565(5) 0.14023(15) 0.7126(3)
C14 C -0.3949(5) 0.25499(15) 0.7210(3)
C15 C 0.1489(8) 0.07596(18) 0.8697(3)
H7 H 0.1899 0.1086 0.8669
C16 C 0.0895(7) 0.05893(18) 0.9496(3)
H8 H 0.0886 0.0799 0.9987
C17 C 0.0305(5) 0.00989(17) 0.9565(3)
C18 C 0.0369(8) -0.0188(2) 0.8808(3)
H9 H 0.0018 -0.0520 0.8822
C19 C 0.0958(8) 0.00199(19) 0.8025(3)
H10 H 0.0964 -0.0177 0.7518
C20 C 0.4338(7) 0.05095(17) 0.1783(3)
H11 H 0.4091 0.0440 0.2372
C21 C 0.4525(7) 0.01151(17) 0.1203(3)
H12 H 0.4381 -0.0211 0.1401
C22 C 0.4929(5) 0.02064(15) 0.0323(3)
C23 C 0.5162(7) 0.07010(18) 0.0083(3)
H13 H 0.5472 0.0782 -0.0493
C24 C 0.4931(7) 0.10726(17) 0.0706(3)
H14 H 0.5091 0.1402 0.0532
N1 N -0.4023(4) 0.13547(13) 0.3460(2)
N2 N 0.0297(4) 0.14996(12) 0.7198(2)
N3 N 0.1514(5) 0.04888(13) 0.7968(2)
N4 N 0.4493(5) 0.09846(13) 0.1540(3)
O1 O -0.0158(4) 0.06084(12) 0.58419(19)
O2 O 0.1507(4) 0.11913(13) 0.5255(2)
O3 O 0.3705(4) 0.02352(13) 0.6020(2)
H15 H 0.4860 0.0270 0.6017
H16 H 0.3349 0.0206 0.5459
O4 O 0.1749(4) 0.09084(12) 0.3241(2)
O5 O 0.2206(5) 0.19375(15) 0.1235(3)
H17 H 0.1588 0.1695 0.0990
H18 H 0.2901 0.2060 0.0828
O6 O 0.1376(4) 0.17181(13) 0.3216(3)
O7 O -0.3798(4) 0.29175(11) 0.6710(2)
O8 O -0.5162(4) 0.25106(12) 0.7746(3)
O9 O -0.4843(5) 0.10133(14) 0.7545(3)
O10 O -0.5634(4) 0.15744(13) 0.6584(2)
Cd1 Cd 0.24169(3) 0.090308(10) 0.670636(17)
Cd2 Cd 0.38320(3) 0.164737(10) 0.244873(19)
C15B C -0.1489(8) -0.07596(18) 1.1303(3)
H7B H -0.1899 -0.1086 1.1331
C16B C -0.0895(7) -0.05893(18) 1.0504(3)
H8B H -0.0886 -0.0799 1.0013
C17B C -0.0305(5) -0.00989(17) 1.0435(3)
C18B C -0.0369(8) 0.0188(2) 1.1192(3)
H9B H -0.0018 0.0520 1.1178
C19B C -0.0958(8) -0.00199(19) 1.1975(3)
H10B H -0.0964 0.0177 1.2482
N3B N -0.1514(5) -0.04888(13) 1.2032(2)
C20B C 0.5662(7) -0.05095(17) -0.1783(3)
H11B H 0.5909 -0.0440 -0.2372
C21B C 0.5475(7) -0.01151(17) -0.1203(3)
H12B H 0.5619 0.0211 -0.1401
C22B C 0.5071(5) -0.02064(15) -0.0323(3)
C23B C 0.4838(7) -0.07010(18) -0.0083(3)
H13B H 0.4528 -0.0782 0.0493
C24B C 0.5069(7) -0.10726(17) -0.0706(3)
H14B H 0.4909 -0.1402 -0.0532
N4B N 0.5507(5) -0.09846(13) -0.1540(3)
C1B C -0.0127(5) -0.09409(15) 1.4727(3)
C2B C 0.1308(5) -0.10645(14) 1.5394(3)
C3B C 0.0944(5) -0.12350(14) 1.6235(3)
C4B C 0.2340(5) -0.13665(16) 1.6783(3)
H1B H 0.2094 -0.1470 1.7356
C5B C 0.4360(5) -0.11952(16) 1.5716(3)
H2B H 0.5517 -0.1186 1.5530
C6B C 0.3052(5) -0.10455(16) 1.5137(3)
H3B H 0.3333 -0.0932 1.4574
C7B C -0.0881(5) -0.12841(16) 1.6609(3)
C8B C -0.0568(5) -0.19894(15) 1.2790(3)
H4B H -0.1715 -0.2107 1.2790
C9B C 0.0787(5) -0.23294(15) 1.2779(3)
H5B H 0.0546 -0.2669 1.2757
C10B C 0.2510(5) -0.21644(15) 1.2800(3)
C11B C 0.2804(5) -0.16507(14) 1.2782(3)
C12B C 0.1358(5) -0.13369(15) 1.2773(3)
H6B H 0.1551 -0.0995 1.2745
C13B C 0.4565(5) -0.14023(15) 1.2874(3)
C14B C 0.3949(5) -0.25499(15) 1.2790(3)
N1B N 0.4023(4) -0.13547(13) 1.6540(2)
N2B N -0.0297(4) -0.14996(12) 1.2802(2)
O1B O 0.0158(4) -0.06084(12) 1.41581(19)
O2B O -0.1507(4) -0.11913(13) 1.4745(2)
O3B O -0.3705(4) -0.02352(13) 1.3980(2)
H15B H -0.4860 -0.0270 1.3983
H16B H -0.3349 -0.0206 1.4541
O4B O -0.1749(4) -0.09084(12) 1.6759(2)
O5B O -0.2206(5) -0.19375(15) 1.8765(3)
H17B H -0.1588 -0.1695 1.9010
H18B H -0.2901 -0.2060 1.9172
O6B O -0.1376(4) -0.17181(13) 1.6784(3)
O7B O 0.3798(4) -0.29175(11) 1.3290(2)
O8B O 0.5162(4) -0.25106(12) 1.2254(3)
O9B O 0.4843(5) -0.10133(14) 1.2455(3)
O10B O 0.5634(4) -0.15744(13) 1.3416(2)
Cd1B Cd -0.24169(3) -0.090308(10) 1.329364(17)
Cd2B Cd -0.38320(3) -0.164737(10) 1.755127(19)
N1_2 N 0.5977(4) 0.13547(13) 0.3460(2)
N1B_2 N -0.5977(4) -0.13547(13) 1.6540(2)
N4B_2 N -0.4493(5) -0.09846(13) 1.8460(3)
O7A O -0.6202(4) -0.20825(11) 1.8290(2)
O7C O 0.6202(4) 0.20825(11) 0.1710(2)
O8A O -0.4838(4) -0.24894(12) 1.7254(3)
O8C O 0.4838(4) 0.24894(12) 0.2746(3)
O9_2 O 0.5157(5) 0.10133(14) 0.7545(3)
O9B_2 O -0.5157(5) -0.10133(14) 1.2455(3)
O10_2 O 0.4366(4) 0.15744(13) 0.6584(2)
O10B_2 O -0.4366(4) -0.15744(13) 1.3416(2)
Cd1_2 Cd -0.75831(3) 0.090308(10) 0.670636(17)
Cd1B_2 Cd 0.75831(3) -0.090308(10) 1.329364(17)
Cd2_2 Cd -0.61680(3) 0.164737(10) 0.244873(19)
Cd2A Cd 0.61680(3) -0.335263(10) 1.255127(19)
Cd2B_2 Cd 0.61680(3) -0.164737(10) -0.244873(19)
Cd2B_3 Cd 0.61680(3) -0.164737(10) 1.755127(19)
Cd2C Cd -0.61680(3) 0.335263(10) 0.744873(19)
O11 O -0.2813(4) -0.00793(12) 0.5798(2)
O12 O -0.6777(8) 0.22311(18) 0.5282(3)
O13 O -0.1090(10) 0.1654(3) 0.0716(5)
O14 O 0.383(2) 0.1927(6) -0.0911(10)
loop_
_geom_bond_atom_site_label_1
_geom_bond_atom_site_label_2
_geom_bond_site_symmetry_1
_geom_bond_site_symmetry_2
C1 C2 1_555 1_555
C2 C3 1_555 1_555
C3 C4 1_555 1_555
C4 H1 1_555 1_555
C5 H2 1_555 1_555
C6 C2 1_555 1_555
H3 C6 1_555 1_555
C7 C3 1_555 1_555
C8 H4 1_555 1_555
C9 C8 1_555 1_555
H5 C9 1_555 1_555
C10 C9 1_555 1_555
C11 C10 1_555 1_555
C12 C11 1_555 1_555
H6 C12 1_555 1_555
C13 C11 1_555 1_555
C14 C10 1_555 1_555
C15 H7 1_555 1_555
C16 C15 1_555 1_555
H8 C16 1_555 1_555
C17 C16 1_555 1_555
C18 C17 1_555 1_555
H9 C18 1_555 1_555
C19 C18 1_555 1_555
H10 C19 1_555 1_555
C20 H11 1_555 1_555
C21 C20 1_555 1_555
H12 C21 1_555 1_555
C22 C21 1_555 1_555
C23 C22 1_555 1_555
H13 C23 1_555 1_555
C24 C23 1_555 1_555
H14 C24 1_555 1_555
N1 C4 1_555 1_555
N2 C8 1_555 1_555
N3 C15 1_555 1_555
N4 C20 1_555 1_555
O1 C1 1_555 1_555
O2 C1 1_555 1_555
O3 H15 1_555 1_555
H16 O3 1_555 1_555
O4 C7 1_555 1_555
O5 H17 1_555 1_555
H18 O5 1_555 1_555
O6 C7 1_555 1_555
O7 C14 1_555 1_555
O8 C14 1_555 1_555
O9 C13 1_555 1_555
O10 C13 1_555 1_555
Cd1 N2 1_555 1_555
Cd2 N4 1_555 1_555
C15B H7B 1_555 1_555
C16B C15B 1_555 1_555
H8B C16B 1_555 1_555
C17B C17 1_555 1_555
C18B C17B 1_555 1_555
H9B C18B 1_555 1_555
C19B C18B 1_555 1_555
H10B C19B 1_555 1_555
N3B C15B 1_555 1_555
C20B H11B 1_555 1_555
C21B C20B 1_555 1_555
H12B C21B 1_555 1_555
C22B C22 1_555 1_555
C23B C22B 1_555 1_555
H13B C23B 1_555 1_555
C24B C23B 1_555 1_555
H14B C24B 1_555 1_555
N4B C20B 1_555 1_555
C1B C2B 1_555 1_555
C2B C3B 1_555 1_555
C3B C4B 1_555 1_555
C4B H1B 1_555 1_555
C5B H2B 1_555 1_555
C6B C2B 1_555 1_555
H3B C6B 1_555 1_555
C7B C3B 1_555 1_555
C8B H4B 1_555 1_555
C9B C8B 1_555 1_555
H5B C9B 1_555 1_555
C10B C9B 1_555 1_555
C11B C10B 1_555 1_555
C12B C11B 1_555 1_555
H6B C12B 1_555 1_555
C13B C11B 1_555 1_555
C14B C10B 1_555 1_555
N1B C4B 1_555 1_555
N2B C8B 1_555 1_555
O1B C1B 1_555 1_555
O2B C1B 1_555 1_555
O3B H15B 1_555 1_555
H16B O3B 1_555 1_555
O4B C7B 1_555 1_555
O5B H17B 1_555 1_555
H18B O5B 1_555 1_555
O6B C7B 1_555 1_555
O7B C14B 1_555 1_555
O8B C14B 1_555 1_555
O9B C13B 1_555 1_555
O10B C13B 1_555 1_555
Cd1B N3B 1_555 1_555
Cd2B O4B 1_555 1_555
N1_2 Cd2 1_555 1_555
N1B_2 Cd2B 1_555 1_555
N4B_2 Cd2B 1_555 1_555
O7A Cd2B 1_555 1_555
O7C Cd2 1_555 1_555
O8A Cd2B 1_555 1_555
O8C Cd2 1_555 1_555
O9_2 Cd1 1_555 1_555
O9B_2 Cd1B 1_555 1_555
O10_2 Cd1 1_555 1_555
O10B_2 Cd1B 1_555 1_555
Cd1_2 O9 1_555 1_555
Cd1B_2 O9B 1_555 1_555
Cd2_2 N1 1_555 1_555
Cd2A O7B 1_555 1_555
Cd2B_2 N4B 1_555 1_555
Cd2B_3 N1B 1_555 1_555
Cd2C O7 1_555 1_555
C5 C6 1_555 1_555
C5 N1 1_555 1_555
C12 N2 1_555 1_555
C19 N3 1_555 1_555
C24 N4 1_555 1_555
N3 Cd1 1_555 1_555
O1 Cd1 1_555 1_555
O2 Cd1 1_555 1_555
O3 Cd1 1_555 1_555
O4 Cd2 1_555 1_555
O5 Cd2 1_555 1_555
O6 Cd2 1_555 1_555
O8 Cd2C 1_555 1_555
O10 Cd1_2 1_555 1_555
C16B C17B 1_555 1_555
C19B N3B 1_555 1_555
C21B C22B 1_555 1_555
C24B N4B 1_555 1_555
C5B C6B 1_555 1_555
C5B N1B 1_555 1_555
C12B N2B 1_555 1_555
N2B Cd1B 1_555 1_555
O1B Cd1B 1_555 1_555
O2B Cd1B 1_555 1_555
O3B Cd1B 1_555 1_555
O5B Cd2B 1_555 1_555
O6B Cd2B 1_555 1_555
O8B Cd2A 1_555 1_555
O10B Cd1B_2 1_555 1_555

#END
