
#######################################################################
#
#                 Cambridge Crystallographic Data Centre
#                                CCDC 
#
#######################################################################
#
# If this CIF has been generated from an entry in the Cambridge 
# Structural Database, then it will include bibliographic, chemical, 
# crystal, experimental, refinement or atomic coordinate data resulting 
# from the CCDC's data processing and validation procedures.
#
#######################################################################

data_IGUVIR
_chemical_formula_moiety         '(C28 H25 Cd1 N3 O5)n'
_symmetry_cell_setting           monoclinic
_symmetry_space_group_name_H-M   'P 21/c'
_symmetry_Int_Tables_number      14
_space_group_name_Hall           '-P 2ybc'
loop_
_symmetry_equiv_pos_site_id
_symmetry_equiv_pos_as_xyz
1 x,y,z
2 -x,1/2+y,1/2-z
3 -x,-y,-z
4 x,1/2-y,1/2+z
_cell_length_a                   9.72700(18)
_cell_length_b                   17.0204(3)
_cell_length_c                   15.2959(2)
_cell_angle_alpha                90
_cell_angle_beta                 96.8477(17)
_cell_angle_gamma                90
_cell_volume                     2514.29
loop_
_atom_site_label
_atom_site_type_symbol
_atom_site_fract_x
_atom_site_fract_y
_atom_site_fract_z
Cd1 Cd 0.866857(19) 0.580263(11) 0.519318(12)
O1 O 0.7446(2) 0.53890(13) 0.38993(13)
O2 O 0.6838(2) 0.66776(13) 0.53282(13)
O3 O 0.8455(2) 0.66152(13) 0.64735(13)
O4 O 0.9313(2) 0.46602(14) 0.40116(14)
N1 N 0.9966(3) 0.16606(15) 0.04835(16)
N2 N 0.2445(3) 0.98427(15) 0.90926(16)
C1 C 0.8138(3) 0.48267(17) 0.36599(18)
C2 C 0.7469(3) 0.43295(18) 0.29057(19)
C3 C 0.8232(3) 0.37753(18) 0.25005(19)
H1 H 0.9178 0.3693 0.2715
C4 C 0.7625(3) 0.33374(18) 0.1781(2)
C5 C 0.6215(3) 0.3455(2) 0.1489(2)
H2 H 0.5785 0.3162 0.1003
C6 C 0.5442(3) 0.3996(2) 0.1907(2)
H3 H 0.4485 0.4062 0.1712
C7 C 0.6064(3) 0.4441(2) 0.2608(2)
H4 H 0.5539 0.4819 0.2883
C8 C 1.0133(3) 0.17459(19) 0.1357(2)
H5 H 1.0793 0.1421 0.1692
C9 C 0.9405(3) 0.22767(19) 0.1804(2)
H6 H 0.9564 0.2310 0.2428
C10 C 0.8435(3) 0.27636(18) 0.13300(19)
C11 C 0.8258(3) 0.2673(2) 0.0417(2)
H7 H 0.7604 0.2990 0.0067
C12 C 0.9020(4) 0.2131(2) 0.0023(2)
H8 H 0.8879 0.2083 -0.0600
C13 C 0.7291(3) 0.68460(17) 0.61153(19)
C14 C 0.6408(3) 0.73380(18) 0.66350(19)
C15 C 0.5102(4) 0.7596(2) 0.6272(2)
H9 H 0.4752 0.7443 0.5690
C16 C 0.4312(3) 0.8072(2) 0.6749(2)
H10 H 0.3427 0.8243 0.6488
C17 C 0.4793(3) 0.83037(17) 0.76071(19)
C18 C 0.6090(3) 0.8026(2) 0.7974(2)
H11 H 0.6439 0.8169 0.8559
C19 C 0.6867(3) 0.7548(2) 0.7497(2)
H12 H 0.7736 0.7358 0.7763
C20 C 0.2154(3) 0.9763(2) 0.8220(2)
H13 H 0.1406 1.0059 0.7931
C21 C 0.2869(3) 0.92782(19) 0.7715(2)
H14 H 0.2621 0.9252 0.7096
C22 C 0.3966(3) 0.88240(17) 0.81185(19)
C23 C 0.4252(3) 0.8900(2) 0.90286(19)
H15 H 0.4977 0.8600 0.9338
C24 C 0.3498(3) 0.9401(2) 0.94801(19)
H16 H 0.3727 0.9442 1.0100
Cd1A Cd 0.133143(19) 1.080263(11) 0.980682(12)
Cd1A_2 Cd 1.133143(19) 0.080263(11) -0.019318(12)
Cd1B Cd 1.133143(19) 0.419737(11) 0.480682(12)
O4B O 1.0687(2) 0.53398(14) 0.59884(14)
N1A N 1.0034(3) 0.66606(15) 0.45165(16)
N2A N 0.7555(3) 0.48427(15) 0.59074(16)
O5 O 0.7951(4) 0.44649(16) -0.05356(18)
N3 N 0.7790(5) 0.5694(2) -0.0066(3)
C25 C 0.8325(5) 0.5159(3) -0.0554(3)
C26 C 0.9353(5) 0.5460(3) -0.1136(3)
H17 H 0.9720 0.5019 -0.1448
H18 H 1.0115 0.5725 -0.0774
H19 H 0.8895 0.5832 -0.1564
C27 C 0.6793(6) 0.5439(3) 0.0550(4)
H20 H 0.6562 0.4884 0.0448
H21 H 0.5949 0.5756 0.0448
H22 H 0.7216 0.5510 0.1160
C28 C 0.8104(6) 0.6532(3) -0.0053(4)
H23 H 0.8696 0.6662 0.0491
H24 H 0.7241 0.6833 -0.0082
H25 H 0.8586 0.6664 -0.0561
loop_
_geom_bond_atom_site_label_1
_geom_bond_atom_site_label_2
_geom_bond_site_symmetry_1
_geom_bond_site_symmetry_2
Cd1 O1 1_555 1_555
O1 C1 1_555 1_555
O2 Cd1 1_555 1_555
O3 Cd1 1_555 1_555
O4 C1 1_555 1_555
N1 C8 1_555 1_555
N2 C20 1_555 1_555
C1 C2 1_555 1_555
C2 C3 1_555 1_555
C3 H1 1_555 1_555
C4 C3 1_555 1_555
C5 C4 1_555 1_555
H2 C5 1_555 1_555
C6 C5 1_555 1_555
H3 C6 1_555 1_555
C7 C2 1_555 1_555
H4 C7 1_555 1_555
C8 H5 1_555 1_555
C9 C8 1_555 1_555
H6 C9 1_555 1_555
C10 C4 1_555 1_555
C11 C10 1_555 1_555
H7 C11 1_555 1_555
C12 N1 1_555 1_555
H8 C12 1_555 1_555
C13 O2 1_555 1_555
C14 C13 1_555 1_555
C15 C14 1_555 1_555
H9 C15 1_555 1_555
C16 C15 1_555 1_555
H10 C16 1_555 1_555
C17 C16 1_555 1_555
C18 C17 1_555 1_555
H11 C18 1_555 1_555
C19 C14 1_555 1_555
H12 C19 1_555 1_555
C20 H13 1_555 1_555
C21 C20 1_555 1_555
H14 C21 1_555 1_555
C22 C17 1_555 1_555
C23 C22 1_555 1_555
H15 C23 1_555 1_555
C24 N2 1_555 1_555
H16 C24 1_555 1_555
O5 C25 1_555 1_555
N3 C25 1_555 1_555
C25 C26 1_555 1_555
C26 H17 1_555 1_555
H18 C26 1_555 1_555
H19 C26 1_555 1_555
C27 N3 1_555 1_555
H20 C27 1_555 1_555
H21 C27 1_555 1_555
H22 C27 1_555 1_555
C28 N3 1_555 1_555
H23 C28 1_555 1_555
H24 C28 1_555 1_555
H25 C28 1_555 1_555
Cd1A N2 1_555 1_555
Cd1A_2 N1 1_555 1_555
Cd1B O4 1_555 1_555
O4B Cd1 1_555 1_555
N1A Cd1 1_555 1_555
N2A Cd1 1_555 1_555
O3 C13 1_555 1_555
C6 C7 1_555 1_555
C9 C10 1_555 1_555
C11 C12 1_555 1_555
C18 C19 1_555 1_555
C21 C22 1_555 1_555
C23 C24 1_555 1_555

#END
