
#######################################################################
#
#                 Cambridge Crystallographic Data Centre
#                                CCDC 
#
#######################################################################
#
# If this CIF has been generated from an entry in the Cambridge 
# Structural Database, then it will include bibliographic, chemical, 
# crystal, experimental, refinement or atomic coordinate data resulting 
# from the CCDC's data processing and validation procedures.
#
#######################################################################

data_IGUVIR01
_chemical_formula_moiety         '(C28 H25 Cd1 N3 O5)n'
_symmetry_cell_setting           monoclinic
_symmetry_space_group_name_H-M   'P 21/c'
_symmetry_Int_Tables_number      14
_space_group_name_Hall           '-P 2ybc'
loop_
_symmetry_equiv_pos_site_id
_symmetry_equiv_pos_as_xyz
1 x,y,z
2 -x,1/2+y,1/2-z
3 -x,-y,-z
4 x,1/2-y,1/2+z
_cell_length_a                   9.79040(15)
_cell_length_b                   17.3660(3)
_cell_length_c                   15.2569(2)
_cell_angle_alpha                90
_cell_angle_beta                 95.4829(13)
_cell_angle_gamma                90
_cell_volume                     2582.11
loop_
_atom_site_label
_atom_site_type_symbol
_atom_site_fract_x
_atom_site_fract_y
_atom_site_fract_z
Cd1 Cd 0.86450(2) 0.580849(11) 0.519287(12)
O1 O 0.7539(2) 0.53452(14) 0.39227(15)
O2 O 0.6783(3) 0.66685(17) 0.52914(17)
O3 O 0.8387(2) 0.66548(15) 0.64016(16)
O4 O 0.9368(3) 0.46188(16) 0.40215(17)
N1 N 0.9981(3) 0.16348(16) 0.05289(18)
N2 N 0.2478(3) 0.98740(16) 0.90510(18)
C1 C 0.8216(3) 0.47784(17) 0.36912(19)
C2 C 0.7533(3) 0.42788(18) 0.2965(2)
C3 C 0.8275(3) 0.37218(19) 0.2557(2)
H1 H 0.9192 0.3639 0.2752
C4 C 0.7657(3) 0.3286(2) 0.1859(2)
C5 C 0.6269(4) 0.3403(2) 0.1592(3)
H2 H 0.5847 0.3119 0.1125
C6 C 0.5514(4) 0.3937(3) 0.2018(3)
H3 H 0.4582 0.3998 0.1848
C7 C 0.6143(4) 0.4381(2) 0.2696(3)
H4 H 0.5638 0.4747 0.2972
C8 C 1.0133(4) 0.1713(2) 0.1397(2)
H5 H 1.0758 0.1394 0.1719
C9 C 0.9414(4) 0.2241(2) 0.1850(2)
H6 H 0.9576 0.2279 0.2459
C10 C 0.8457(3) 0.2712(2) 0.1398(2)
C11 C 0.8275(4) 0.2622(2) 0.0489(2)
H7 H 0.7632 0.2922 0.0155
C12 C 0.9045(4) 0.2092(2) 0.0083(2)
H8 H 0.8913 0.2047 -0.0526
C13 C 0.7236(3) 0.6867(2) 0.6054(2)
C14 C 0.6374(3) 0.7380(2) 0.6571(2)
C15 C 0.5080(4) 0.7623(3) 0.6227(3)
H9 H 0.4725 0.7458 0.5672
C16 C 0.4316(4) 0.8110(3) 0.6709(3)
H10 H 0.3456 0.8273 0.6467
C17 C 0.4803(3) 0.83583(19) 0.7540(2)
C18 C 0.6079(4) 0.8100(2) 0.7884(2)
H11 H 0.6426 0.8257 0.8445
C19 C 0.6847(4) 0.7611(2) 0.7406(3)
H12 H 0.7695 0.7437 0.7655
C20 C 0.2221(4) 0.9813(3) 0.8182(2)
H13 H 0.1523 1.0114 0.7904
C21 C 0.2928(4) 0.9329(2) 0.7668(2)
H14 H 0.2698 0.9306 0.7063
C22 C 0.3987(3) 0.88769(19) 0.8059(2)
C23 C 0.4250(4) 0.8943(2) 0.8965(2)
H15 H 0.4942 0.8650 0.9262
C24 C 0.3497(4) 0.9437(2) 0.9422(2)
H16 H 0.3706 0.9471 1.0028
Cd1A Cd 0.13550(2) 1.080849(11) 0.980713(12)
Cd1A_2 Cd 1.13550(2) 0.080849(11) -0.019287(12)
Cd1B Cd 1.13550(2) 0.419151(11) 0.480713(12)
O4B O 1.0632(3) 0.53812(16) 0.59785(17)
N1A N 1.0019(3) 0.66348(16) 0.44711(18)
N2A N 0.7522(3) 0.48740(16) 0.59490(18)
O5 O 0.7833(8) 0.4509(4) -0.0483(4)
N3 N 0.7877(12) 0.5693(5) 0.0042(8)
C25 C 0.8258(11) 0.5217(6) -0.0509(7)
C26 C 0.9251(11) 0.5554(6) -0.1109(6)
H17 H 1.0085 0.5699 -0.0766
H18 H 0.8847 0.6000 -0.1401
H19 H 0.9450 0.5178 -0.1539
C27 C 0.6843(14) 0.5396(7) 0.0625(9)
H20 H 0.6586 0.4880 0.0454
H21 H 0.6045 0.5720 0.0568
H22 H 0.7236 0.5398 0.1226
C28 C 0.8174(15) 0.6509(5) 0.0017(10)
H23 H 0.8961 0.6622 0.0421
H24 H 0.7399 0.6795 0.0181
H25 H 0.8359 0.6652 -0.0568
loop_
_geom_bond_atom_site_label_1
_geom_bond_atom_site_label_2
_geom_bond_site_symmetry_1
_geom_bond_site_symmetry_2
Cd1 O1 1_555 1_555
O1 C1 1_555 1_555
O2 Cd1 1_555 1_555
O3 Cd1 1_555 1_555
O4 C1 1_555 1_555
N1 C8 1_555 1_555
N2 C20 1_555 1_555
C1 C2 1_555 1_555
C2 C3 1_555 1_555
C3 H1 1_555 1_555
C4 C3 1_555 1_555
C5 C4 1_555 1_555
H2 C5 1_555 1_555
C6 C5 1_555 1_555
H3 C6 1_555 1_555
C7 C2 1_555 1_555
H4 C7 1_555 1_555
C8 H5 1_555 1_555
C9 C8 1_555 1_555
H6 C9 1_555 1_555
C10 C4 1_555 1_555
C11 C10 1_555 1_555
H7 C11 1_555 1_555
C12 N1 1_555 1_555
H8 C12 1_555 1_555
C13 O2 1_555 1_555
C14 C13 1_555 1_555
C15 C14 1_555 1_555
H9 C15 1_555 1_555
C16 C15 1_555 1_555
H10 C16 1_555 1_555
C17 C16 1_555 1_555
C18 C17 1_555 1_555
H11 C18 1_555 1_555
C19 C14 1_555 1_555
H12 C19 1_555 1_555
C20 H13 1_555 1_555
C21 C20 1_555 1_555
H14 C21 1_555 1_555
C22 C17 1_555 1_555
C23 C22 1_555 1_555
H15 C23 1_555 1_555
C24 N2 1_555 1_555
H16 C24 1_555 1_555
O5 C25 1_555 1_555
N3 C25 1_555 1_555
C25 C26 1_555 1_555
C26 H17 1_555 1_555
H18 C26 1_555 1_555
H19 C26 1_555 1_555
C27 N3 1_555 1_555
H20 C27 1_555 1_555
H21 C27 1_555 1_555
H22 C27 1_555 1_555
C28 N3 1_555 1_555
H23 C28 1_555 1_555
H24 C28 1_555 1_555
H25 C28 1_555 1_555
Cd1A N2 1_555 1_555
Cd1A_2 N1 1_555 1_555
Cd1B O4 1_555 1_555
O4B Cd1 1_555 1_555
N1A Cd1 1_555 1_555
N2A Cd1 1_555 1_555
O3 C13 1_555 1_555
C6 C7 1_555 1_555
C9 C10 1_555 1_555
C11 C12 1_555 1_555
C18 C19 1_555 1_555
C21 C22 1_555 1_555
C23 C24 1_555 1_555

#END
