
#######################################################################
#
#                 Cambridge Crystallographic Data Centre
#                                CCDC 
#
#######################################################################
#
# If this CIF has been generated from an entry in the Cambridge 
# Structural Database, then it will include bibliographic, chemical, 
# crystal, experimental, refinement or atomic coordinate data resulting 
# from the CCDC's data processing and validation procedures.
#
#######################################################################

data_QOMFEE
_chemical_formula_moiety         '(C68 H92 N12 O28 Zn4)n'
_symmetry_cell_setting           monoclinic
_symmetry_space_group_name_H-M   'P 21'
_symmetry_Int_Tables_number      4
_space_group_name_Hall           'P 2yb'
loop_
_symmetry_equiv_pos_site_id
_symmetry_equiv_pos_as_xyz
1 x,y,z
2 -x,1/2+y,-z
_cell_length_a                   8.7994(6)
_cell_length_b                   53.888(3)
_cell_length_c                   8.8039(6)
_cell_angle_alpha                90
_cell_angle_beta                 90.111(2)
_cell_angle_gamma                90
_cell_volume                     4174.64
loop_
_atom_site_label
_atom_site_type_symbol
_atom_site_fract_x
_atom_site_fract_y
_atom_site_fract_z
Zn1 Zn 0.26565(16) 0.253511(15) 0.17697(9)
Zn2 Zn 0.22756(17) 0.197880(15) 0.21188(9)
Zn3 Zn 0.56839(13) 0.451517(14) 0.33714(9)
Zn4 Zn 0.39622(12) 0.005930(14) 0.62912(9)
N1 N 0.3142(11) 0.29088(11) 0.1707(7)
N2 N 0.5261(9) 0.41544(12) 0.2923(7)
C1 C 0.3085(10) 0.30632(13) 0.0475(8)
C2 C 0.2340(14) 0.29528(15) -0.0845(10)
H1 H 0.1270 0.2931 -0.0619
H2 H 0.2771 0.2790 -0.1020
C3 C 0.2496(13) 0.31128(14) -0.2368(9)
H3 H 0.3484 0.3085 -0.2824
H4 H 0.1720 0.3064 -0.3091
C4 C 0.2318(11) 0.33786(14) -0.1978(8)
H5 H 0.1311 0.3403 -0.1529
C5 C 0.3527(10) 0.34693(15) -0.0841(8)
H6 H 0.3311 0.3642 -0.0561
C6 C 0.3548(10) 0.33098(12) 0.0583(7)
C7 C 0.4109(11) 0.34006(13) 0.1955(9)
C8 C 0.4198(12) 0.32362(15) 0.3183(9)
H7 H 0.4558 0.3291 0.4118
C9 C 0.3750(14) 0.29929(14) 0.3004(9)
H8 H 0.3873 0.2883 0.3811
C10 C 0.4275(13) 0.40249(15) 0.3805(9)
H9 H 0.3850 0.4103 0.4644
C11 C 0.3880(13) 0.37832(16) 0.3508(9)
H10 H 0.3190 0.3701 0.4129
C12 C 0.4532(11) 0.36604(13) 0.2248(8)
C13 C 0.5536(12) 0.37931(15) 0.1372(10)
H11 H 0.6007 0.3718 0.0547
C14 C 0.5845(13) 0.40376(16) 0.1720(10)
H12 H 0.6493 0.4126 0.1083
O1 O 0.2395(10) 0.35149(11) -0.3354(6)
H13 H 0.2299 0.3663 -0.3172
O2 O 0.5013(9) 0.34543(13) -0.1478(7)
H14 H 0.5050 0.3539 -0.2253
N3 N 0.2272(11) 0.16084(13) 0.2773(8)
N4 N 0.3557(10) 0.04165(11) 0.5672(7)
C15 C 0.1126(12) 0.14494(17) 0.2659(12)
C16 C -0.0133(16) 0.1535(3) 0.177(2)
H15 H 0.0030 0.1494 0.0708
H16 H -0.0225 0.1713 0.1856
C17 C -0.1709(16) 0.1400(2) 0.2378(17)
H17 H -0.1929 0.1446 0.3420
H18 H -0.2571 0.1443 0.1741
C18 C -0.1315(14) 0.1127(2) 0.2247(16)
H19 H -0.0949 0.1078 0.1240
C19 C -0.0171(14) 0.1064(2) 0.3583(13)
H20 H 0.0089 0.0888 0.3528
C20 C 0.1263(12) 0.12153(17) 0.3273(13)
C21 C 0.2560(12) 0.11416(14) 0.3996(9)
C22 C 0.3758(17) 0.1305(2) 0.4075(19)
H21 H 0.4704 0.1255 0.4440
C23 C 0.3493(19) 0.1550(2) 0.358(2)
H22 H 0.4192 0.1673 0.3822
C24 C 0.419(2) 0.0504(2) 0.4421(15)
H23 H 0.4699 0.0393 0.3795
C25 C 0.4137(17) 0.0754(2) 0.3979(13)
H24 H 0.4862 0.0829 0.3362
C26 C 0.2830(12) 0.08830(14) 0.4588(9)
C27 C 0.2167(12) 0.07943(17) 0.5864(11)
H25 H 0.1402 0.0884 0.6346
C28 C 0.2658(14) 0.05637(17) 0.6452(12)
H26 H 0.2338 0.0515 0.7413
O3 O -0.2672(14) 0.1007(3) 0.2687(18)
H27 H -0.2555 0.0856 0.2643
O4 O -0.0602(16) 0.1122(2) 0.5126(13)
H28 H -0.1371 0.1044 0.5348
O5 O 0.4824(12) 0.24364(12) 0.2070(8)
O6 O 0.4609(11) 0.20194(13) 0.1930(8)
O7 O 1.0420(10) 0.25418(12) 0.1570(7)
O8 O 1.0227(14) 0.21371(14) 0.2130(11)
C29 C 0.5390(15) 0.22160(16) 0.1981(11)
C30 C 0.7013(16) 0.2182(2) 0.2009(11)
H29 H 0.7403 0.2023 0.2091
C31 C 0.7977(16) 0.23737(18) 0.1919(11)
H30 H 0.7578 0.2533 0.1864
C32 C 0.9635(17) 0.2344(2) 0.1904(12)
O9 O 0.2759(11) 0.23661(12) -0.0313(7)
O10 O 0.2208(9) 0.19626(12) -0.0155(6)
O11 O 0.2427(10) 0.24973(12) -0.5924(6)
O12 O 0.2471(14) 0.20947(12) -0.5689(7)
C33 C 0.2446(13) 0.21603(14) -0.0882(9)
C34 C 0.2512(13) 0.21383(16) -0.2561(9)
H31 H 0.2615 0.1981 -0.2980
C35 C 0.2432(14) 0.23330(16) -0.3508(10)
H32 H 0.2347 0.2492 -0.3099
C36 C 0.2473(14) 0.23049(16) -0.5146(10)
O13 O 0.7968(10) 0.45298(14) 0.3474(11)
O14 O 0.8195(10) 0.49326(15) 0.3641(10)
O15 O 1.3519(11) 0.46474(14) 0.3469(11)
O16 O 1.3738(10) 0.50548(16) 0.3594(11)
C37 C 0.8666(13) 0.47205(17) 0.3582(10)
C38 C 1.0429(13) 0.46949(18) 0.3570(11)
H33 H 1.0853 0.4537 0.3539
C39 C 1.1306(13) 0.48811(17) 0.3601(12)
H34 H 1.0877 0.5038 0.3669
C40 C 1.2983(13) 0.48607(19) 0.3535(11)
O17 O 0.5818(12) 0.46478(14) 0.1229(7)
O18 O 0.6030(11) 0.50538(13) 0.1416(6)
O19 O 0.5648(10) 0.45112(12) -0.4333(6)
O20 O 0.5890(12) 0.49270(12) -0.4158(7)
C41 C 0.5966(12) 0.48574(17) 0.0695(9)
C42 C 0.5865(12) 0.48791(16) -0.1006(10)
H35 H 0.5819 0.5037 -0.1435
C43 C 0.5840(13) 0.46864(15) -0.1905(9)
H36 H 0.5815 0.4529 -0.1476
C44 C 0.5849(13) 0.47094(17) -0.3576(10)
Zn1_2 Zn 1.26565(16) 0.253511(15) 0.17697(9)
Zn1_3 Zn 0.26565(16) 0.253511(15) -0.82303(9)
Zn2_2 Zn 1.22756(17) 0.197880(15) 0.21188(9)
Zn2_3 Zn 0.22756(17) 0.197880(15) -0.78812(9)
Zn3_2 Zn 1.56839(13) 0.451517(14) 0.33714(9)
Zn3_3 Zn 0.56839(13) 0.451517(14) -0.66286(9)
Zn4A Zn 0.60378(12) 0.505930(14) 0.37088(9)
Zn4A_2 Zn 1.60378(12) 0.505930(14) 0.37088(9)
Zn4A_3 Zn 0.60378(12) 0.505930(14) -0.62912(9)
O7_2 O 0.0420(10) 0.25418(12) 0.1570(7)
O8_2 O 0.0227(14) 0.21371(14) 0.2130(11)
O11_2 O 0.2427(10) 0.24973(12) 0.4076(6)
O12_2 O 0.2471(14) 0.20947(12) 0.4311(7)
O14A O 0.1805(10) -0.00674(15) 0.6359(10)
O15_2 O 0.3519(11) 0.46474(14) 0.3469(11)
O16A O 0.6262(10) 0.00548(16) 0.6406(11)
O18A O 0.3970(11) 0.00538(13) 0.8584(6)
O19_2 O 0.5648(10) 0.45112(12) 0.5667(6)
O20A O 0.4110(12) -0.00730(12) 0.4158(7)
O21 O 0.6050(12) 0.39132(16) 0.7675(9)
N5 N 0.7950(12) 0.38402(17) 0.5948(12)
C45 C 0.6918(12) 0.3985(2) 0.6656(11)
H37 H 0.6853 0.4150 0.6358
C46 C 0.800(2) 0.3576(2) 0.623(2)
H38 H 0.8808 0.3504 0.5641
H39 H 0.7052 0.3503 0.5935
H40 H 0.8182 0.3546 0.7286
C47 C 0.8848(16) 0.3935(3) 0.4712(13)
H41 H 0.9516 0.3808 0.4349
H42 H 0.9437 0.4074 0.5060
H43 H 0.8188 0.3988 0.3903
O22 O -0.008(2) 0.3598(3) 0.1115(14)
N6 N -0.0602(16) 0.3241(2) 0.2335(15)
C48 C 0.019(2) 0.3460(3) 0.215(2)
H44 H 0.0953 0.3501 0.2845
C49 C -0.166(2) 0.3152(4) 0.120(2)
H45 H -0.2090 0.2997 0.1537
H46 H -0.1136 0.3127 0.0261
H47 H -0.2456 0.3272 0.1065
C50 C -0.039(3) 0.3096(4) 0.3676(19)
H48 H -0.1020 0.2951 0.3621
H49 H -0.0675 0.3193 0.4549
H50 H 0.0653 0.3048 0.3759
O23 O 0.657(3) 0.2967(4) 0.5346(15)
N7 N 0.661(3) 0.2684(3) 0.7069(16)
C51 C 0.651(3) 0.2937(3) 0.6719(19)
H51 H 0.6417 0.3064 0.7429
C52 C 0.666(3) 0.2519(4) 0.583(2)
H52 H 0.6769 0.2611 0.4904
H53 H 0.5740 0.2424 0.5797
H54 H 0.7513 0.2409 0.5946
C53 C 0.639(3) 0.2631(4) 0.8593(19)
H55 H 0.6400 0.2454 0.8737
H56 H 0.5426 0.2696 0.8910
H57 H 0.7186 0.2705 0.9185
O24 O 0.623(3) 0.2037(4) 0.856(2)
N8 N 0.7751(18) 0.1820(3) 0.6932(17)
C54 C 0.751(3) 0.1955(5) 0.823(2)
H58 H 0.8324 0.1987 0.8877
C55 C 0.656(2) 0.1776(5) 0.585(2)
H59 H 0.6965 0.1686 0.4997
H60 H 0.6158 0.1931 0.5502
H61 H 0.5769 0.1680 0.6314
C56 C 0.925(2) 0.1743(5) 0.659(3)
H62 H 0.9260 0.1658 0.5633
H63 H 0.9610 0.1633 0.7373
H64 H 0.9905 0.1885 0.6539
O25 O 0.285(2) 0.0927(2) -0.0011(15)
N9 N 0.386(2) 0.1303(3) -0.0590(17)
C57 C 0.400(3) 0.1049(4) -0.028(4)
H65 H 0.4949 0.0974 -0.0272
C58 C 0.494(3) 0.1477(5) 0.004(3)
H66 H 0.4742 0.1640 -0.0368
H67 H 0.5952 0.1427 -0.0220
H68 H 0.4835 0.1482 0.1125
C59 C 0.286(3) 0.1375(5) -0.176(3)
H69 H 0.2934 0.1551 -0.1909
H70 H 0.1836 0.1334 -0.1478
H71 H 0.3122 0.1291 -0.2681
O26 O 0.219(2) 0.5481(3) -0.262(2)
N10 N 0.102(3) 0.5112(4) -0.239(3)
C60 C 0.105(3) 0.5365(5) -0.225(5)
H72 H 0.0212 0.5449 -0.1868
C61 C 0.233(3) 0.4970(6) -0.189(4)
H73 H 0.2130 0.4796 -0.2006
H74 H 0.2539 0.5006 -0.0843
H75 H 0.3202 0.5014 -0.2494
C62 C -0.040(3) 0.4986(6) -0.226(4)
H76 H -0.0241 0.4810 -0.2310
H77 H -0.1057 0.5036 -0.3084
H78 H -0.0868 0.5028 -0.1313
O27 O 0.339(2) 0.5994(6) 0.377(3)
N11 N 0.3111(19) 0.5719(3) 0.1858(18)
C63 C 0.398(2) 0.5886(3) 0.2650(17)
H79 H 0.4975 0.5919 0.2367
C64 C 0.383(3) 0.5537(4) 0.087(3)
H80 H 0.3065 0.5433 0.0420
H81 H 0.4515 0.5436 0.1457
H82 H 0.4384 0.5621 0.0087
C65 C 0.157(2) 0.5672(6) 0.224(3)
H83 H 0.1149 0.5551 0.1558
H84 H 0.0994 0.5823 0.2172
H85 H 0.1513 0.5609 0.3265
O28 O 1.2025(13) 0.40173(15) 0.6892(10)
N12 N 1.1645(14) 0.4220(2) 0.9107(11)
C66 C 1.2525(18) 0.4128(3) 0.7955(15)
H86 H 1.3569 0.4153 0.8005
C67 C 1.234(2) 0.4344(3) 1.0350(16)
H87 H 1.1572 0.4401 1.1037
H88 H 1.2916 0.4483 0.9983
H89 H 1.3006 0.4231 1.0870
C68 C 1.013(2) 0.4130(5) 0.932(3)
H90 H 0.9670 0.4216 1.0156
H91 H 1.0167 0.3955 0.9537
H92 H 0.9550 0.4158 0.8415
loop_
_geom_bond_atom_site_label_1
_geom_bond_atom_site_label_2
_geom_bond_site_symmetry_1
_geom_bond_site_symmetry_2
Zn1 N1 1_555 1_555
Zn2 N3 1_555 1_555
Zn3 N2 1_555 1_555
Zn4 N4 1_555 1_555
N1 C1 1_555 1_555
N2 C10 1_555 1_555
C1 C2 1_555 1_555
C2 H1 1_555 1_555
H2 C2 1_555 1_555
C3 C2 1_555 1_555
H3 C3 1_555 1_555
H4 C3 1_555 1_555
C4 C3 1_555 1_555
H5 C4 1_555 1_555
C5 C4 1_555 1_555
H6 C5 1_555 1_555
C6 C1 1_555 1_555
C7 C6 1_555 1_555
C8 C7 1_555 1_555
H7 C8 1_555 1_555
C9 N1 1_555 1_555
H8 C9 1_555 1_555
C10 H9 1_555 1_555
C11 C10 1_555 1_555
H10 C11 1_555 1_555
C12 C7 1_555 1_555
C13 C12 1_555 1_555
H11 C13 1_555 1_555
C14 N2 1_555 1_555
H12 C14 1_555 1_555
O1 C4 1_555 1_555
H13 O1 1_555 1_555
O2 C5 1_555 1_555
H14 O2 1_555 1_555
N3 C15 1_555 1_555
N4 C24 1_555 1_555
C15 C16 1_555 1_555
C16 H15 1_555 1_555
H16 C16 1_555 1_555
C17 C16 1_555 1_555
H17 C17 1_555 1_555
H18 C17 1_555 1_555
C18 C17 1_555 1_555
H19 C18 1_555 1_555
C19 C18 1_555 1_555
H20 C19 1_555 1_555
C20 C15 1_555 1_555
C21 C20 1_555 1_555
C22 C21 1_555 1_555
H21 C22 1_555 1_555
C23 N3 1_555 1_555
H22 C23 1_555 1_555
C24 H23 1_555 1_555
C25 C24 1_555 1_555
H24 C25 1_555 1_555
C26 C21 1_555 1_555
C27 C26 1_555 1_555
H25 C27 1_555 1_555
C28 N4 1_555 1_555
H26 C28 1_555 1_555
O3 C18 1_555 1_555
H27 O3 1_555 1_555
O4 C19 1_555 1_555
H28 O4 1_555 1_555
O5 Zn1 1_555 1_555
O6 Zn2 1_555 1_555
O7 C32 1_555 1_555
O8 C32 1_555 1_555
C29 O5 1_555 1_555
C30 C29 1_555 1_555
H29 C30 1_555 1_555
C31 C30 1_555 1_555
H30 C31 1_555 1_555
C32 C31 1_555 1_555
O9 Zn1 1_555 1_555
O10 Zn2 1_555 1_555
O11 C36 1_555 1_555
O12 C36 1_555 1_555
C33 O9 1_555 1_555
C34 C33 1_555 1_555
H31 C34 1_555 1_555
C35 C34 1_555 1_555
H32 C35 1_555 1_555
C36 C35 1_555 1_555
O13 Zn3 1_555 1_555
O14 C37 1_555 1_555
O15 C40 1_555 1_555
O16 C40 1_555 1_555
C37 O13 1_555 1_555
C38 C37 1_555 1_555
H33 C38 1_555 1_555
C39 C38 1_555 1_555
H34 C39 1_555 1_555
C40 C39 1_555 1_555
O17 Zn3 1_555 1_555
O18 C41 1_555 1_555
O19 C44 1_555 1_555
O20 C44 1_555 1_555
C41 O17 1_555 1_555
C42 C41 1_555 1_555
H35 C42 1_555 1_555
C43 C42 1_555 1_555
H36 C43 1_555 1_555
C44 C43 1_555 1_555
O21 C45 1_555 1_555
N5 C45 1_555 1_555
C45 H37 1_555 1_555
C46 N5 1_555 1_555
H38 C46 1_555 1_555
H39 C46 1_555 1_555
H40 C46 1_555 1_555
C47 N5 1_555 1_555
H41 C47 1_555 1_555
H42 C47 1_555 1_555
H43 C47 1_555 1_555
O22 C48 1_555 1_555
N6 C48 1_555 1_555
C48 H44 1_555 1_555
C49 N6 1_555 1_555
H45 C49 1_555 1_555
H46 C49 1_555 1_555
H47 C49 1_555 1_555
C50 N6 1_555 1_555
H48 C50 1_555 1_555
H49 C50 1_555 1_555
H50 C50 1_555 1_555
O23 C51 1_555 1_555
N7 C51 1_555 1_555
C51 H51 1_555 1_555
C52 N7 1_555 1_555
H52 C52 1_555 1_555
H53 C52 1_555 1_555
H54 C52 1_555 1_555
C53 N7 1_555 1_555
H55 C53 1_555 1_555
H56 C53 1_555 1_555
H57 C53 1_555 1_555
O24 C54 1_555 1_555
N8 C54 1_555 1_555
C54 H58 1_555 1_555
C55 N8 1_555 1_555
H59 C55 1_555 1_555
H60 C55 1_555 1_555
H61 C55 1_555 1_555
C56 N8 1_555 1_555
H62 C56 1_555 1_555
H63 C56 1_555 1_555
H64 C56 1_555 1_555
O25 C57 1_555 1_555
N9 C57 1_555 1_555
C57 H65 1_555 1_555
C58 N9 1_555 1_555
H66 C58 1_555 1_555
H67 C58 1_555 1_555
H68 C58 1_555 1_555
C59 N9 1_555 1_555
H69 C59 1_555 1_555
H70 C59 1_555 1_555
H71 C59 1_555 1_555
O26 C60 1_555 1_555
N10 C60 1_555 1_555
C60 H72 1_555 1_555
C61 N10 1_555 1_555
H73 C61 1_555 1_555
H74 C61 1_555 1_555
H75 C61 1_555 1_555
C62 N10 1_555 1_555
H76 C62 1_555 1_555
H77 C62 1_555 1_555
H78 C62 1_555 1_555
O27 C63 1_555 1_555
N11 C63 1_555 1_555
C63 H79 1_555 1_555
C64 N11 1_555 1_555
H80 C64 1_555 1_555
H81 C64 1_555 1_555
H82 C64 1_555 1_555
C65 N11 1_555 1_555
H83 C65 1_555 1_555
H84 C65 1_555 1_555
H85 C65 1_555 1_555
O28 C66 1_555 1_555
N12 C66 1_555 1_555
C66 H86 1_555 1_555
C67 N12 1_555 1_555
H87 C67 1_555 1_555
H88 C67 1_555 1_555
H89 C67 1_555 1_555
C68 N12 1_555 1_555
H90 C68 1_555 1_555
H91 C68 1_555 1_555
H92 C68 1_555 1_555
Zn1_2 O7 1_555 1_555
Zn1_3 O11 1_555 1_555
Zn2_2 O8 1_555 1_555
Zn2_3 O12 1_555 1_555
Zn3_2 O15 1_555 1_555
Zn3_3 O19 1_555 1_555
Zn4A O14 1_555 1_555
Zn4A_2 O16 1_555 1_555
Zn4A_3 O20 1_555 1_555
O7_2 Zn1 1_555 1_555
O8_2 Zn2 1_555 1_555
O11_2 Zn1 1_555 1_555
O12_2 Zn2 1_555 1_555
O14A Zn4 1_555 1_555
O15_2 Zn3 1_555 1_555
O16A Zn4 1_555 1_555
O18A Zn4 1_555 1_555
O19_2 Zn3 1_555 1_555
O20A Zn4 1_555 1_555
C5 C6 1_555 1_555
C8 C9 1_555 1_555
C11 C12 1_555 1_555
C13 C14 1_555 1_555
C19 C20 1_555 1_555
C22 C23 1_555 1_555
C25 C26 1_555 1_555
C27 C28 1_555 1_555
O6 C29 1_555 1_555
O10 C33 1_555 1_555
O18 Zn4A 1_555 1_555

#END
