
#######################################################################
#
#                 Cambridge Crystallographic Data Centre
#                                CCDC 
#
#######################################################################
#
# If this CIF has been generated from an entry in the Cambridge 
# Structural Database, then it will include bibliographic, chemical, 
# crystal, experimental, refinement or atomic coordinate data resulting 
# from the CCDC's data processing and validation procedures.
#
#######################################################################

data_BEXSII
_chemical_formula_moiety         '(C34 H29 Cu3 N3 O17)n'
_symmetry_cell_setting           monoclinic
_symmetry_space_group_name_H-M   'P 21/n'
_symmetry_Int_Tables_number      14
_space_group_name_Hall           '-P 2yn'
loop_
_symmetry_equiv_pos_site_id
_symmetry_equiv_pos_as_xyz
1 x,y,z
2 1/2-x,1/2+y,1/2-z
3 -x,-y,-z
4 1/2+x,1/2-y,1/2+z
_cell_length_a                   11.6416(7)
_cell_length_b                   14.9517(9)
_cell_length_c                   16.6108(11)
_cell_angle_alpha                90
_cell_angle_beta                 93.893(3)
_cell_angle_gamma                90
_cell_volume                     2884.63
loop_
_atom_site_label
_atom_site_type_symbol
_atom_site_fract_x
_atom_site_fract_y
_atom_site_fract_z
Cu1 Cu 0.5000 0.5000 0.0000
O1 O 0.63587(15) 0.56395(12) 0.04215(12)
O2 O 0.5899(2) 0.48589(17) 0.14916(16)
C1 C 0.6548(2) 0.53673(18) 0.11540(18)
C2 C 0.7655(2) 0.56932(18) 0.15697(17)
C3 C 0.7964(2) 0.54130(17) 0.23561(17)
H1 H 0.7454 0.5053 0.2640
C4 C 0.9026(2) 0.56667(17) 0.27215(16)
C5 C 0.9754(2) 0.62052(18) 0.23039(16)
H2 H 1.0478 0.6377 0.2557
C6 C 0.9451(2) 0.64973(17) 0.15296(16)
C7 C 0.8388(2) 0.62371(17) 0.11594(17)
H3 H 0.8167 0.6432 0.0627
C8 C 0.9386(2) 0.53833(16) 0.35644(17)
O3 O 1.04062(18) 0.55737(15) 0.38094(12)
O4 O 0.86558(18) 0.49784(14) 0.39527(12)
C9 C 1.0302(2) 0.70108(18) 0.10850(18)
H4 H 0.9920 0.7321 0.0613
H5 H 1.0705 0.7459 0.1441
O5 O 1.10992(16) 0.63350(13) 0.08313(14)
C10 C 1.2164(2) 0.65903(18) 0.06480(17)
C11 C 1.2560(2) 0.74663(17) 0.06087(16)
H6 H 1.2073 0.7960 0.0701
C12 C 1.3707(2) 0.75891(17) 0.04275(15)
C13 C 1.4391(2) 0.68623(17) 0.02880(16)
H7 H 1.5171 0.6959 0.0176
N1 N 1.39908(19) 0.60212(15) 0.03051(14)
C14 C 1.2907(2) 0.58841(17) 0.04848(17)
H8 H 1.2627 0.5288 0.0503
C15 C 1.4179(2) 0.85112(17) 0.03448(15)
O6 O 1.52370(16) 0.85485(13) 0.02246(13)
O7 O 1.34980(16) 0.91482(12) 0.03825(13)
Cu2 Cu 1.60323(2) 0.963703(19) -0.008649(18)
O8 O 1.7682(2) 0.90424(17) -0.0184(2)
H9 H 1.7799 0.8559 -0.0488
H10 H 1.8244 0.9065 0.0210
O1B O 0.36413(15) 0.43605(12) -0.04215(12)
O2B O 0.4101(2) 0.51411(17) -0.14916(16)
C1B C 0.3452(2) 0.46327(18) -0.11540(18)
C2B C 0.2345(2) 0.43068(18) -0.15697(17)
C3B C 0.2036(2) 0.45870(17) -0.23561(17)
H1B H 0.2546 0.4947 -0.2640
C4B C 0.0974(2) 0.43333(17) -0.27215(16)
C5B C 0.0246(2) 0.37948(18) -0.23039(16)
H2B H -0.0478 0.3623 -0.2557
C6B C 0.0549(2) 0.35027(17) -0.15296(16)
C7B C 0.1612(2) 0.37629(17) -0.11594(17)
H3B H 0.1833 0.3568 -0.0627
C8B C 0.0614(2) 0.46167(16) -0.35644(17)
O3B O -0.04062(18) 0.44263(15) -0.38094(12)
O4B O 0.13442(18) 0.50216(14) -0.39527(12)
C9B C -0.0302(2) 0.29892(18) -0.10850(18)
H4B H 0.0080 0.2679 -0.0613
H5B H -0.0705 0.2541 -0.1441
O5B O -0.10992(16) 0.36650(13) -0.08313(14)
C10B C -0.2164(2) 0.34097(18) -0.06480(17)
C11B C -0.2560(2) 0.25337(17) -0.06087(16)
H6B H -0.2073 0.2040 -0.0701
C12B C -0.3707(2) 0.24109(17) -0.04275(15)
C13B C -0.4391(2) 0.31377(17) -0.02880(16)
H7B H -0.5171 0.3041 -0.0176
N1B N -0.39908(19) 0.39788(15) -0.03051(14)
C14B C -0.2907(2) 0.41159(17) -0.04848(17)
H8B H -0.2627 0.4712 -0.0503
C15B C -0.4179(2) 0.14888(17) -0.03448(15)
O6B O -0.52370(16) 0.14515(13) -0.02246(13)
O7B O -0.34980(16) 0.08518(12) -0.03825(13)
Cu2B Cu -0.60323(2) 0.036297(19) 0.008649(18)
O8B O -0.7682(2) 0.09576(17) 0.0184(2)
H9B H -0.7799 0.1441 0.0488
H10B H -0.8244 0.0935 -0.0210
Cu1_2 Cu -0.5000 0.5000 0.0000
Cu1_3 Cu 1.5000 0.5000 0.0000
O3A O -0.54062(18) 0.05737(15) 0.11906(12)
O3C O 1.54062(18) 0.94263(15) -0.11906(12)
O4A O 1.63442(18) 0.99784(14) 0.10473(12)
O4C O -0.63442(18) 0.00216(14) -0.10473(12)
N1_2 N 0.39908(19) 0.60212(15) 0.03051(14)
N1B_2 N 0.60092(19) 0.39788(15) -0.03051(14)
O7_2 O -0.65020(16) -0.08518(12) 0.03825(13)
O7B_2 O 1.65020(16) 1.08518(12) -0.03825(13)
Cu2_2 Cu -0.39677(2) -0.036297(19) -0.008649(18)
Cu2A Cu -0.10323(2) 0.463703(19) -0.491351(18)
Cu2A_2 Cu 0.89677(2) 0.463703(19) 0.508649(18)
Cu2B_2 Cu 1.39677(2) 1.036297(19) 0.008649(18)
Cu2C Cu 0.10323(2) 0.536297(19) -0.508649(18)
Cu2C_2 Cu 1.10323(2) 0.536297(19) 0.491351(18)
O9 O 0.1690(3) 0.2635(2) 0.06023(18)
C16 C 0.2144(5) 0.3108(4) 0.1170(3)
C17 C 0.3424(7) 0.2954(6) 0.1487(5)
H11 H 0.3823 0.2612 0.1086
H12 H 0.3447 0.2620 0.1995
H13 H 0.3806 0.3533 0.1576
N2 N 0.1486(4) 0.3756(3) 0.1479(3)
C18 C 0.0369(4) 0.3997(3) 0.1123(3)
H14 H 0.0383 0.4618 0.0937
H15 H -0.0204 0.3934 0.1526
H16 H 0.0165 0.3602 0.0665
C19 C 0.1990(7) 0.4337(6) 0.2178(5)
H17 H 0.1616 0.4187 0.2672
H18 H 0.1858 0.4970 0.2048
H19 H 0.2820 0.4226 0.2262
loop_
_geom_bond_atom_site_label_1
_geom_bond_atom_site_label_2
_geom_bond_site_symmetry_1
_geom_bond_site_symmetry_2
Cu1 O1 1_555 1_555
O1 C1 1_555 1_555
O2 Cu1 1_555 1_555
C1 O2 1_555 1_555
C2 C1 1_555 1_555
C3 C2 1_555 1_555
H1 C3 1_555 1_555
C4 C3 1_555 1_555
C5 C4 1_555 1_555
H2 C5 1_555 1_555
C6 C5 1_555 1_555
C7 C2 1_555 1_555
H3 C7 1_555 1_555
C8 C4 1_555 1_555
O3 C8 1_555 1_555
O4 C8 1_555 1_555
C9 C6 1_555 1_555
H4 C9 1_555 1_555
H5 C9 1_555 1_555
O5 C9 1_555 1_555
C10 O5 1_555 1_555
C11 C10 1_555 1_555
H6 C11 1_555 1_555
C12 C11 1_555 1_555
C13 C12 1_555 1_555
H7 C13 1_555 1_555
N1 C13 1_555 1_555
C14 C10 1_555 1_555
H8 C14 1_555 1_555
C15 C12 1_555 1_555
O6 C15 1_555 1_555
O7 C15 1_555 1_555
Cu2 O6 1_555 1_555
O8 Cu2 1_555 1_555
H9 O8 1_555 1_555
H10 O8 1_555 1_555
O9 C16 1_555 1_555
C16 C17 1_555 1_555
C17 H11 1_555 1_555
H12 C17 1_555 1_555
H13 C17 1_555 1_555
N2 C16 1_555 1_555
C18 N2 1_555 1_555
H14 C18 1_555 1_555
H15 C18 1_555 1_555
H16 C18 1_555 1_555
C19 N2 1_555 1_555
H17 C19 1_555 1_555
H18 C19 1_555 1_555
H19 C19 1_555 1_555
O1B Cu1 1_555 1_555
O2B Cu1 1_555 1_555
C1B O1B 1_555 1_555
C2B C1B 1_555 1_555
C3B C2B 1_555 1_555
H1B C3B 1_555 1_555
C4B C3B 1_555 1_555
C5B C4B 1_555 1_555
H2B C5B 1_555 1_555
C6B C5B 1_555 1_555
C7B C2B 1_555 1_555
H3B C7B 1_555 1_555
C8B C4B 1_555 1_555
O3B C8B 1_555 1_555
O4B C8B 1_555 1_555
C9B C6B 1_555 1_555
H4B C9B 1_555 1_555
H5B C9B 1_555 1_555
O5B C9B 1_555 1_555
C10B O5B 1_555 1_555
C11B C10B 1_555 1_555
H6B C11B 1_555 1_555
C12B C11B 1_555 1_555
C13B C12B 1_555 1_555
H7B C13B 1_555 1_555
N1B C13B 1_555 1_555
C14B C10B 1_555 1_555
H8B C14B 1_555 1_555
C15B C12B 1_555 1_555
O6B C15B 1_555 1_555
O7B C15B 1_555 1_555
Cu2B O6B 1_555 1_555
O8B Cu2B 1_555 1_555
H9B O8B 1_555 1_555
H10B O8B 1_555 1_555
Cu1_2 N1B 1_555 1_555
Cu1_3 N1 1_555 1_555
O3A Cu2B 1_555 1_555
O3C Cu2 1_555 1_555
O4A Cu2 1_555 1_555
O4C Cu2B 1_555 1_555
N1_2 Cu1 1_555 1_555
N1B_2 Cu1 1_555 1_555
O7_2 Cu2B 1_555 1_555
O7B_2 Cu2 1_555 1_555
Cu2_2 O7B 1_555 1_555
Cu2A O3B 1_555 1_555
Cu2A_2 O4 1_555 1_555
Cu2B_2 O7 1_555 1_555
Cu2C O4B 1_555 1_555
Cu2C_2 O3 1_555 1_555
C6 C7 1_555 1_555
N1 C14 1_555 1_555
O2B C1B 1_555 1_555
C6B C7B 1_555 1_555
N1B C14B 1_555 1_555

#END
