
#######################################################################
#
#                 Cambridge Crystallographic Data Centre
#                                CCDC 
#
#######################################################################
#
# If this CIF has been generated from an entry in the Cambridge 
# Structural Database, then it will include bibliographic, chemical, 
# crystal, experimental, refinement or atomic coordinate data resulting 
# from the CCDC's data processing and validation procedures.
#
#######################################################################

data_LAXJAX
_chemical_formula_moiety         '(C158 H99 Co6 N61 S13)n'
_symmetry_cell_setting           cubic
_symmetry_space_group_name_H-M   'F d -3 c'
_symmetry_Int_Tables_number      228
_space_group_name_Hall           '-F 4ud 2vw 3'
loop_
_symmetry_equiv_pos_site_id
_symmetry_equiv_pos_as_xyz
1 x,y,z
2 1/4-x,3/4-y,1/2+z
3 3/4-x,1/2+y,1/4-z
4 1/2+x,1/4-y,3/4-z
5 z,x,y
6 1/2+z,1/4-x,3/4-y
7 1/4-z,3/4-x,1/2+y
8 3/4-z,1/2+x,1/4-y
9 y,z,x
10 3/4-y,1/2+z,1/4-x
11 1/2+y,1/4-z,3/4-x
12 1/4-y,3/4-z,1/2+x
13 3/4+y,1/4+x,-z
14 1/2-y,1/2-x,1/2-z
15 1/4+y,-x,3/4+z
16 -y,3/4+x,1/4+z
17 3/4+x,1/4+z,-y
18 -x,3/4+z,1/4+y
19 1/2-x,1/2-z,1/2-y
20 1/4+x,-z,3/4+y
21 3/4+z,1/4+y,-x
22 1/4+z,-y,3/4+x
23 -z,3/4+y,1/4+x
24 1/2-z,1/2-y,1/2-x
25 x,1/2+y,1/2+z
26 1/4-x,1/4-y,z
27 3/4-x,y,3/4-z
28 1/2+x,3/4-y,1/4-z
29 z,1/2+x,1/2+y
30 1/2+z,3/4-x,1/4-y
31 1/4-z,1/4-x,y
32 3/4-z,x,3/4-y
33 y,1/2+z,1/2+x
34 3/4-y,z,3/4-x
35 1/2+y,3/4-z,1/4-x
36 1/4-y,1/4-z,x
37 3/4+y,3/4+x,1/2-z
38 1/2-y,-x,-z
39 1/4+y,1/2-x,1/4+z
40 -y,1/4+x,3/4+z
41 3/4+x,3/4+z,1/2-y
42 -x,1/4+z,3/4+y
43 1/2-x,-z,-y
44 1/4+x,1/2-z,1/4+y
45 3/4+z,3/4+y,1/2-x
46 1/4+z,1/2-y,1/4+x
47 -z,1/4+y,3/4+x
48 1/2-z,-y,-x
49 1/2+x,y,1/2+z
50 3/4-x,3/4-y,z
51 1/4-x,1/2+y,3/4-z
52 x,1/4-y,1/4-z
53 1/2+z,x,1/2+y
54 z,1/4-x,1/4-y
55 3/4-z,3/4-x,y
56 1/4-z,1/2+x,3/4-y
57 1/2+y,z,1/2+x
58 1/4-y,1/2+z,3/4-x
59 y,1/4-z,1/4-x
60 3/4-y,3/4-z,x
61 1/4+y,1/4+x,1/2-z
62 -y,1/2-x,-z
63 3/4+y,-x,1/4+z
64 1/2-y,3/4+x,3/4+z
65 1/4+x,1/4+z,1/2-y
66 1/2-x,3/4+z,3/4+y
67 -x,1/2-z,-y
68 3/4+x,-z,1/4+y
69 1/4+z,1/4+y,1/2-x
70 3/4+z,-y,1/4+x
71 1/2-z,3/4+y,3/4+x
72 -z,1/2-y,-x
73 1/2+x,1/2+y,z
74 3/4-x,1/4-y,1/2+z
75 1/4-x,y,1/4-z
76 x,3/4-y,3/4-z
77 1/2+z,1/2+x,y
78 z,3/4-x,3/4-y
79 3/4-z,1/4-x,1/2+y
80 1/4-z,x,1/4-y
81 1/2+y,1/2+z,x
82 1/4-y,z,1/4-x
83 y,3/4-z,3/4-x
84 3/4-y,1/4-z,1/2+x
85 1/4+y,3/4+x,-z
86 -y,-x,1/2-z
87 3/4+y,1/2-x,3/4+z
88 1/2-y,1/4+x,1/4+z
89 1/4+x,3/4+z,-y
90 1/2-x,1/4+z,1/4+y
91 -x,-z,1/2-y
92 3/4+x,1/2-z,3/4+y
93 1/4+z,3/4+y,-x
94 3/4+z,1/2-y,3/4+x
95 1/2-z,1/4+y,1/4+x
96 -z,-y,1/2-x
97 -x,-y,-z
98 3/4+x,1/4+y,1/2-z
99 1/4+x,1/2-y,3/4+z
100 1/2-x,3/4+y,1/4+z
101 -z,-x,-y
102 1/2-z,3/4+x,1/4+y
103 3/4+z,1/4+x,1/2-y
104 1/4+z,1/2-x,3/4+y
105 -y,-z,-x
106 1/4+y,1/2-z,3/4+x
107 1/2-y,3/4+z,1/4+x
108 3/4+y,1/4+z,1/2-x
109 1/4-y,3/4-x,z
110 1/2+y,1/2+x,1/2+z
111 3/4-y,x,1/4-z
112 y,1/4-x,3/4-z
113 1/4-x,3/4-z,y
114 x,1/4-z,3/4-y
115 1/2+x,1/2+z,1/2+y
116 3/4-x,z,1/4-y
117 1/4-z,3/4-y,x
118 3/4-z,y,1/4-x
119 z,1/4-y,3/4-x
120 1/2+z,1/2+y,1/2+x
121 -x,1/2-y,1/2-z
122 3/4+x,3/4+y,-z
123 1/4+x,-y,1/4+z
124 1/2-x,1/4+y,3/4+z
125 -z,1/2-x,1/2-y
126 1/2-z,1/4+x,3/4+y
127 3/4+z,3/4+x,-y
128 1/4+z,-x,1/4+y
129 -y,1/2-z,1/2-x
130 1/4+y,-z,1/4+x
131 1/2-y,1/4+z,3/4+x
132 3/4+y,3/4+z,-x
133 1/4-y,1/4-x,1/2+z
134 1/2+y,x,z
135 3/4-y,1/2+x,3/4-z
136 y,3/4-x,1/4-z
137 1/4-x,1/4-z,1/2+y
138 x,3/4-z,1/4-y
139 1/2+x,z,y
140 3/4-x,1/2+z,3/4-y
141 1/4-z,1/4-y,1/2+x
142 3/4-z,1/2+y,3/4-x
143 z,3/4-y,1/4-x
144 1/2+z,y,x
145 1/2-x,-y,1/2-z
146 1/4+x,1/4+y,-z
147 3/4+x,1/2-y,1/4+z
148 -x,3/4+y,3/4+z
149 1/2-z,-x,1/2-y
150 -z,3/4+x,3/4+y
151 1/4+z,1/4+x,-y
152 3/4+z,1/2-x,1/4+y
153 1/2-y,-z,1/2-x
154 3/4+y,1/2-z,1/4+x
155 -y,3/4+z,3/4+x
156 1/4+y,1/4+z,-x
157 3/4-y,3/4-x,1/2+z
158 y,1/2+x,z
159 1/4-y,x,3/4-z
160 1/2+y,1/4-x,1/4-z
161 3/4-x,3/4-z,1/2+y
162 1/2+x,1/4-z,1/4-y
163 x,1/2+z,y
164 1/4-x,z,3/4-y
165 3/4-z,3/4-y,1/2+x
166 1/4-z,y,3/4-x
167 1/2+z,1/4-y,1/4-x
168 z,1/2+y,x
169 1/2-x,1/2-y,-z
170 1/4+x,3/4+y,1/2-z
171 3/4+x,-y,3/4+z
172 -x,1/4+y,1/4+z
173 1/2-z,1/2-x,-y
174 -z,1/4+x,1/4+y
175 1/4+z,3/4+x,1/2-y
176 3/4+z,-x,3/4+y
177 1/2-y,1/2-z,-x
178 3/4+y,-z,3/4+x
179 -y,1/4+z,1/4+x
180 1/4+y,3/4+z,1/2-x
181 3/4-y,1/4-x,z
182 y,x,1/2+z
183 1/4-y,1/2+x,1/4-z
184 1/2+y,3/4-x,3/4-z
185 3/4-x,1/4-z,y
186 1/2+x,3/4-z,3/4-y
187 x,z,1/2+y
188 1/4-x,1/2+z,1/4-y
189 3/4-z,1/4-y,x
190 1/4-z,1/2+y,1/4-x
191 1/2+z,3/4-y,3/4-x
192 z,y,1/2+x
_cell_length_a                   64.058(3)
_cell_length_b                   64.058(3)
_cell_length_c                   64.058(3)
_cell_angle_alpha                90
_cell_angle_beta                 90
_cell_angle_gamma                90
_cell_volume                     262857
loop_
_atom_site_label
_atom_site_type_symbol
_atom_site_fract_x
_atom_site_fract_y
_atom_site_fract_z
N1 N 0.5944(3) 0.4008(4) 0.0795(3)
C1 C 0.60265(16) 0.4153(2) 0.06503(16)
H1 H 0.5916 0.4199 0.0555
H2 H 0.6139 0.4087 0.0570
H3 H 0.6082 0.4274 0.0725
C2 C 0.5873(4) 0.3896(4) 0.0919(3)
S1 S 0.57831(16) 0.37663(16) 0.11112(14)
Co1 Co 0.630239(13) 0.380239(13) 0.0000
Co2 Co 0.7478 0.375000(15) -0.1250
S2 S 0.67338(3) 0.33505(3) 0.04043(3)
S3 S 0.75374(4) 0.38014(4) -0.04995(7)
C3 C 0.65680(9) 0.35202(9) 0.03104(8)
C4 C 0.67893(10) 0.37624(11) -0.01080(11)
H4 H 0.6794 0.3668 0.0006
C5 C 0.69692(10) 0.37970(13) -0.02207(13)
H5 H 0.7096 0.3733 -0.0180
C6 C 0.69629(10) 0.39254(12) -0.03937(11)
H6 H 0.7082 0.3942 -0.0480
C7 C 0.67792(9) 0.40287(9) -0.04371(9)
C8 C 0.66069(8) 0.39920(8) -0.03116(8)
H7 H 0.6482 0.4067 -0.0340
C9 C 0.60922(10) 0.48483(10) -0.08479(10)
H8 H 0.5984 0.4949 -0.0859
C10 C 0.60990(11) 0.47252(12) -0.06714(12)
H9 H 0.5996 0.4739 -0.0566
C11 C 0.62594(10) 0.45803(10) -0.06497(11)
H10 H 0.6270 0.4496 -0.0528
C12 C 0.64036(9) 0.45621(9) -0.08104(9)
C13 C 0.63846(8) 0.46916(8) -0.09806(8)
H11 H 0.6486 0.4681 -0.1088
C14 C 0.65748(8) 0.44079(8) -0.07995(8)
C15 C 0.67541(9) 0.41620(8) -0.06235(9)
C16 C 0.68478(9) 0.42465(8) -0.09478(9)
C17 C 0.69772(10) 0.42032(9) -0.11334(10)
C18 C 0.71197(9) 0.40403(8) -0.11304(9)
H12 H 0.7131 0.3959 -0.1007
C19 C 0.72222(12) 0.41050(12) -0.14658(13)
H13 H 0.7306 0.4069 -0.1583
C20 C 0.70877(14) 0.42691(15) -0.14821(16)
H14 H 0.7084 0.4349 -0.1607
C21 C 0.69561(12) 0.43206(14) -0.13179(14)
H15 H 0.6856 0.4430 -0.1330
C22 C 0.75068(12) 0.37871(9) -0.07519(12)
C23 C 0.76695(12) 0.41746(11) -0.11237(10)
H16 H 0.7566 0.4163 -0.1018
C24 C 0.77819(13) 0.43525(12) -0.11339(12)
H17 H 0.7756 0.4464 -0.1039
C25 C 0.79363(12) 0.43705(12) -0.12850(11)
H18 H 0.8016 0.4495 -0.1296
C26 C 0.79718(10) 0.42050(9) -0.14187(9)
C27 C 0.78457(9) 0.40293(8) -0.14003(8)
H19 H 0.7867 0.3917 -0.1494
C28 C 0.81333(10) 0.42150(9) -0.15827(9)
N2 N 0.64558(7) 0.36371(7) 0.02337(6)
N3 N 0.66058(7) 0.38569(7) -0.01525(7)
N4 N 0.62292(7) 0.48329(7) -0.10042(7)
N5 N 0.65936(8) 0.42974(7) -0.06241(7)
N6 N 0.66958(8) 0.43895(7) -0.09680(8)
N7 N 0.68855(8) 0.41331(7) -0.07770(8)
N8 N 0.72410(8) 0.39920(7) -0.12901(8)
N9 N 0.74880(8) 0.37765(7) -0.09258(8)
N10 N 0.76957(7) 0.40127(7) -0.12549(7)
N11 N 0.81333(8) 0.40657(7) -0.17250(8)
Co1RE Co 0.5000 0.369761(13) 0.119761(13)
Co1FE Co 0.619761(13) 0.2500 -0.119761(13)
Co1XD Co 0.619761(13) 0.5000 -0.130239(13)
Co1HF Co 0.7500 0.369761(13) 0.130239(13)
Co1N Co 0.630239(13) 0.369761(13) -0.2500
Co1OA Co 0.369761(13) 0.2500 0.130239(13)
Co2O Co 0.625000(15) 0.4978 0.1250
Co2RE Co 0.6250 0.2522 0.125000(15)
Co2IA Co 0.875000(15) 0.3750 -0.2522
Co2AB Co 0.8750 0.5022 -0.125000(15)
Co2FE Co 0.5022 0.3750 -0.125000(15)
Co2J Co 0.875000(15) 0.3750 0.0022
Co2G Co 0.8750 0.2478 -0.125000(15)
Co2IF Co 0.3750 0.375000(15) 0.0022
S2FC S 0.58505(3) 0.42338(3) -0.04043(3)
S2RE S 0.45957(3) 0.32662(3) 0.16495(3)
S2HG S 0.54043(3) 0.41495(3) 0.07662(3)
S2FE S 0.57662(3) 0.20957(3) -0.16495(3)
S2VF S 0.66495(3) 0.29043(3) -0.07662(3)
S3WB S 0.75374(4) 0.36986(4) -0.20005(7)
S3FC S 0.63014(4) 0.50374(4) 0.04995(7)
S3O S 0.61986(4) 0.50374(4) 0.20005(7)
S3RE S 0.54995(7) 0.24626(4) 0.11986(4)
S3SF S 0.70005(7) 0.24626(4) 0.13014(4)
C3FC C 0.60202(9) 0.40680(9) -0.03104(8)
C3RE C 0.46896(8) 0.34320(9) 0.14798(9)
C3HG C 0.53104(8) 0.39798(9) 0.09320(9)
C3FE C 0.59320(9) 0.21896(8) -0.14798(9)
C3VF C 0.64798(9) 0.28104(8) -0.09320(9)
C4FC C 0.62624(11) 0.42893(10) 0.01080(11)
C4RE C 0.51080(11) 0.32107(10) 0.12376(11)
C4FE C 0.57107(10) 0.26080(11) -0.12376(11)
C4WB C 0.67893(10) 0.37376(11) -0.23920(11)
C4HG C 0.48920(11) 0.37376(11) 0.07107(10)
H4FC H 0.6168 0.4294 -0.0006
H4RE H 0.4994 0.3206 0.1332
H4FE H 0.5706 0.2494 -0.1332
H4WB H 0.6794 0.3832 -0.2506
H4HG H 0.5006 0.3832 0.0706
C5FC C 0.62970(13) 0.44692(10) 0.02207(13)
C5RE C 0.52207(13) 0.30308(10) 0.12030(13)
C5FE C 0.55308(10) 0.27207(13) -0.12030(13)
C5WB C 0.69692(10) 0.37030(13) -0.22793(13)
C5HG C 0.47793(13) 0.37030(13) 0.05308(10)
H5FC H 0.6233 0.4596 0.0180
H5RE H 0.5180 0.2904 0.1267
H5FE H 0.5404 0.2680 -0.1267
H5WB H 0.7096 0.3767 -0.2320
H5HG H 0.4820 0.3767 0.0404
C6FC C 0.64254(12) 0.44629(10) 0.03937(11)
C6RE C 0.53937(11) 0.30371(10) 0.10746(12)
C6FE C 0.55371(10) 0.28937(11) -0.10746(12)
C6WB C 0.69629(10) 0.35746(12) -0.21063(11)
C6HG C 0.46063(11) 0.35746(12) 0.05371(10)
H6FC H 0.6442 0.4582 0.0480
H6RE H 0.5480 0.2918 0.1058
H6FE H 0.5418 0.2980 -0.1058
H6WB H 0.7082 0.3558 -0.2020
H6HG H 0.4520 0.3558 0.0418
C7FC C 0.65287(9) 0.42792(9) 0.04371(9)
C7RE C 0.54371(9) 0.32208(9) 0.09713(9)
C7FE C 0.57208(9) 0.29371(9) -0.09713(9)
C7WB C 0.67792(9) 0.34713(9) -0.20629(9)
C7HG C 0.45629(9) 0.34713(9) 0.07208(9)
C8FC C 0.64920(8) 0.41069(8) 0.03116(8)
C8RE C 0.53116(8) 0.33931(8) 0.10080(8)
C8FE C 0.58931(8) 0.28116(8) -0.10080(8)
C8WB C 0.66069(8) 0.35080(8) -0.21884(8)
C8HG C 0.46884(8) 0.35080(8) 0.08931(8)
H7FC H 0.6567 0.3982 0.0340
H7RE H 0.5340 0.3518 0.0933
H7FE H 0.6018 0.2840 -0.0933
H7WB H 0.6482 0.3433 -0.2160
H7HG H 0.4660 0.3433 0.1018
C9FC C 0.73483(10) 0.35922(10) 0.08479(10)
C9RE C 0.58479(10) 0.39078(10) 0.01517(10)
C9FE C 0.64078(10) 0.33479(10) -0.01517(10)
C9WB C 0.60922(10) 0.26517(10) -0.16521(10)
C9HG C 0.41521(10) 0.26517(10) 0.14078(10)
H8FC H 0.7449 0.3484 0.0859
H8RE H 0.5859 0.4016 0.0051
H8FE H 0.6516 0.3359 -0.0051
H8WB H 0.5984 0.2551 -0.1641
H8HG H 0.4141 0.2551 0.1516
C10FC C 0.72252(12) 0.35990(11) 0.06714(12)
C10RE C 0.56714(12) 0.39010(11) 0.02748(12)
C10FE C 0.64010(11) 0.31714(12) -0.02748(12)
C10WB C 0.60990(11) 0.27748(12) -0.18286(12)
C10HG C 0.43286(12) 0.27748(12) 0.14010(11)
H9FC H 0.7239 0.3496 0.0566
H9RE H 0.5566 0.4004 0.0261
H9FE H 0.6504 0.3066 -0.0261
H9WB H 0.5996 0.2761 -0.1934
H9HG H 0.4434 0.2761 0.1504
C11FC C 0.70803(10) 0.37594(10) 0.06497(11)
C11RE C 0.56497(11) 0.37406(10) 0.04197(10)
C11FE C 0.62406(10) 0.31497(11) -0.04197(10)
C11WB C 0.62594(10) 0.29197(10) -0.18503(11)
C11HG C 0.43503(11) 0.29197(10) 0.12406(10)
H10FC H 0.6996 0.3770 0.0528
H10RE H 0.5528 0.3730 0.0504
H10FE H 0.6230 0.3028 -0.0504
H10WB H 0.6270 0.3004 -0.1972
H10HG H 0.4472 0.3004 0.1230
C12FC C 0.70621(9) 0.39036(9) 0.08104(9)
C12RE C 0.58104(9) 0.35964(9) 0.04379(9)
C12FE C 0.60964(9) 0.33104(9) -0.04379(9)
C12WB C 0.64036(9) 0.29379(9) -0.16896(9)
C12HG C 0.41896(9) 0.29379(9) 0.10964(9)
C13FC C 0.71916(8) 0.38846(8) 0.09806(8)
C13RE C 0.59806(8) 0.36154(8) 0.03084(8)
C13FE C 0.61154(8) 0.34806(8) -0.03084(8)
C13WB C 0.63846(8) 0.28084(8) -0.15194(8)
C13HG C 0.40194(8) 0.28084(8) 0.11154(8)
H11FC H 0.7181 0.3986 0.1088
H11RE H 0.6088 0.3514 0.0319
H11FE H 0.6014 0.3588 -0.0319
H11WB H 0.6486 0.2819 -0.1412
H11HG H 0.3912 0.2819 0.1014
C14FC C 0.69079(8) 0.40748(8) 0.07995(8)
C14RE C 0.57995(8) 0.34252(8) 0.05921(8)
C14FE C 0.59252(8) 0.32995(8) -0.05921(8)
C14WB C 0.65748(8) 0.30921(8) -0.17005(8)
C14HG C 0.42005(8) 0.30921(8) 0.09252(8)
C15FC C 0.66620(8) 0.42541(9) 0.06235(9)
C15RE C 0.56235(9) 0.32459(9) 0.08380(8)
C15FE C 0.57459(9) 0.31235(9) -0.08380(8)
C15WB C 0.67541(9) 0.33380(8) -0.18765(9)
C15HG C 0.43765(9) 0.33380(8) 0.07459(9)
C16FC C 0.67465(8) 0.43478(9) 0.09478(9)
C16RE C 0.59478(9) 0.31522(9) 0.07535(8)
C16FE C 0.56522(9) 0.34478(9) -0.07535(8)
C16WB C 0.68478(9) 0.32535(8) -0.15522(9)
C16HG C 0.40522(9) 0.32535(8) 0.06522(9)
C17FC C 0.67032(9) 0.44772(10) 0.11334(10)
C17RE C 0.61334(10) 0.30228(10) 0.07968(9)
C17FE C 0.55228(10) 0.36334(10) -0.07968(9)
C17WB C 0.69772(10) 0.32968(9) -0.13666(10)
C17HG C 0.38666(10) 0.32968(9) 0.05228(10)
C18FC C 0.65403(8) 0.46197(9) 0.11304(9)
C18RE C 0.61304(9) 0.28803(9) 0.09597(8)
C18FE C 0.53803(9) 0.36304(9) -0.09597(8)
C18WB C 0.71197(9) 0.34597(8) -0.13696(9)
C18HG C 0.38696(9) 0.34597(8) 0.03803(9)
H12FC H 0.6459 0.4631 0.1007
H12RE H 0.6007 0.2869 0.1041
H12FE H 0.5369 0.3507 -0.1041
H12WB H 0.7131 0.3541 -0.1493
H12HG H 0.3993 0.3541 0.0369
C19FC C 0.66050(12) 0.47222(12) 0.14658(13)
C19RE C 0.64658(13) 0.27778(12) 0.08950(12)
C19FE C 0.52778(12) 0.39658(13) -0.08950(12)
C19WB C 0.72222(12) 0.33950(12) -0.10342(13)
C19HG C 0.35342(13) 0.33950(12) 0.02778(12)
H13FC H 0.6569 0.4806 0.1583
H13RE H 0.6583 0.2694 0.0931
H13FE H 0.5194 0.4083 -0.0931
H13WB H 0.7306 0.3431 -0.0917
H13HG H 0.3417 0.3431 0.0194
C20FC C 0.67691(15) 0.45877(14) 0.14821(16)
C20RE C 0.64821(16) 0.29123(14) 0.07309(15)
C20FE C 0.54123(14) 0.39821(16) -0.07309(15)
C20WB C 0.70877(14) 0.32309(15) -0.10179(16)
C20HG C 0.35179(16) 0.32309(15) 0.04123(14)
H14FC H 0.6849 0.4584 0.1607
H14RE H 0.6607 0.2916 0.0651
H14FE H 0.5416 0.4107 -0.0651
H14WB H 0.7084 0.3151 -0.0893
H14HG H 0.3393 0.3151 0.0416
C21FC C 0.68206(14) 0.44561(12) 0.13179(14)
C21RE C 0.63179(14) 0.30439(12) 0.06794(14)
C21FE C 0.55439(12) 0.38179(14) -0.06794(14)
C21WB C 0.69561(12) 0.31794(14) -0.11821(14)
C21HG C 0.36821(14) 0.31794(14) 0.05439(12)
H15FC H 0.6930 0.4356 0.1330
H15RE H 0.6330 0.3144 0.0570
H15FE H 0.5644 0.3830 -0.0570
H15WB H 0.6856 0.3070 -0.1170
H15HG H 0.3670 0.3070 0.0644
C22WB C 0.75068(12) 0.37129(9) -0.17481(12)
C22FC C 0.62871(9) 0.50068(12) 0.07519(12)
C22O C 0.62129(9) 0.50068(12) 0.17481(12)
C22RE C 0.57519(12) 0.24932(12) 0.12129(9)
C22SF C 0.67481(12) 0.24932(12) 0.12871(9)
C23IA C 0.83254(11) 0.36237(10) -0.23305(12)
C23AB C 0.88763(10) 0.48305(12) -0.16746(11)
C23WB C 0.76695(12) 0.33254(11) -0.13763(10)
C23EB C 0.83254(11) 0.38763(10) -0.01695(12)
C23BA C 0.88763(10) 0.26695(12) -0.08254(11)
H16IA H 0.8337 0.3518 -0.2434
H16AB H 0.8982 0.4934 -0.1663
H16WB H 0.7566 0.3337 -0.1482
H16EB H 0.8337 0.3982 -0.0066
H16BA H 0.8982 0.2566 -0.0837
C24IA C 0.81475(12) 0.36339(12) -0.22181(13)
C24AB C 0.88661(12) 0.47181(13) -0.18525(12)
C24WB C 0.77819(13) 0.31475(12) -0.13661(12)
C24EB C 0.81475(12) 0.38661(12) -0.02819(13)
C24BA C 0.88661(12) 0.27819(13) -0.06475(12)
H17IA H 0.8036 0.3539 -0.2244
H17AB H 0.8961 0.4744 -0.1964
H17WB H 0.7756 0.3036 -0.1461
H17EB H 0.8036 0.3961 -0.0256
H17BA H 0.8961 0.2756 -0.0536
C25IA C 0.81295(12) 0.37850(11) -0.20637(12)
C25AB C 0.87150(11) 0.45637(12) -0.18705(12)
C25WB C 0.79363(12) 0.31295(12) -0.12150(11)
C25EB C 0.81295(12) 0.37150(11) -0.04363(12)
C25BA C 0.87150(11) 0.29363(12) -0.06295(12)
H18IA H 0.8005 0.3796 -0.1984
H18AB H 0.8704 0.4484 -0.1995
H18WB H 0.8016 0.3005 -0.1204
H18EB H 0.8005 0.3704 -0.0516
H18BA H 0.8704 0.3016 -0.0505
C26IA C 0.82950(9) 0.39187(9) -0.20282(10)
C26AB C 0.85813(9) 0.45282(10) -0.17050(9)
C26WB C 0.79718(10) 0.32950(9) -0.10813(9)
C26EB C 0.82950(9) 0.35813(9) -0.04718(10)
C26BA C 0.85813(9) 0.29718(10) -0.07950(9)
C27IA C 0.84707(8) 0.39003(8) -0.21543(9)
C27AB C 0.85997(8) 0.46543(9) -0.15293(8)
C27WB C 0.78457(9) 0.34707(8) -0.10997(8)
C27EB C 0.84707(8) 0.35997(8) -0.03457(9)
C27BA C 0.85997(8) 0.28457(9) -0.09707(8)
H19IA H 0.8583 0.3994 -0.2133
H19AB H 0.8506 0.4633 -0.1417
H19WB H 0.7867 0.3583 -0.1006
H19EB H 0.8583 0.3506 -0.0367
H19BA H 0.8506 0.2867 -0.1083
C28IA C 0.82850(9) 0.40827(9) -0.18667(10)
C28AB C 0.84173(9) 0.43667(10) -0.17150(9)
C28WB C 0.81333(10) 0.32850(9) -0.09173(9)
C28EB C 0.82850(9) 0.34173(9) -0.06333(10)
C28BA C 0.84173(9) 0.31333(10) -0.07850(9)
N2FC N 0.61371(7) 0.39558(7) -0.02337(6)
N2RE N 0.47663(6) 0.35442(7) 0.13629(7)
N2HG N 0.52337(6) 0.38629(7) 0.10442(7)
N2FE N 0.60442(7) 0.22663(6) -0.13629(7)
N2VF N 0.63629(7) 0.27337(6) -0.10442(7)
N3FC N 0.63569(7) 0.41058(7) 0.01525(7)
N3RE N 0.51525(7) 0.33942(7) 0.11431(7)
N3FE N 0.58942(7) 0.26525(7) -0.11431(7)
N3WB N 0.66058(7) 0.36431(7) -0.23475(7)
N3HG N 0.48475(7) 0.36431(7) 0.08942(7)
N3VF N 0.61431(7) 0.23475(7) -0.08942(7)
N4FC N 0.73329(7) 0.37292(7) 0.10042(7)
N4RE N 0.60042(7) 0.37708(7) 0.01671(7)
N4FE N 0.62708(7) 0.35042(7) -0.01671(7)
N4WB N 0.62292(7) 0.26671(7) -0.14958(7)
N4HG N 0.39958(7) 0.26671(7) 0.12708(7)
N4FA N 0.48329(7) 0.39958(7) 0.12292(7)
N4O N 0.51671(7) 0.37292(7) 0.14958(7)
N4RA N 0.64958(7) 0.23329(7) -0.12292(7)
N5FC N 0.67974(7) 0.40936(8) 0.06241(7)
N5RE N 0.56241(7) 0.34064(8) 0.07026(7)
N5FE N 0.59064(8) 0.31241(7) -0.07026(7)
N5WB N 0.65936(8) 0.32026(7) -0.18759(7)
N5HG N 0.43759(7) 0.32026(7) 0.09064(8)
N6FC N 0.68895(7) 0.41958(8) 0.09680(8)
N6RE N 0.59680(8) 0.33042(8) 0.06105(7)
N6FE N 0.58042(8) 0.34680(8) -0.06105(7)
N6WB N 0.66958(8) 0.31105(7) -0.15320(8)
N6HG N 0.40320(8) 0.31105(7) 0.08042(8)
N7FC N 0.66331(7) 0.43855(8) 0.07770(8)
N7RE N 0.57770(8) 0.31145(8) 0.08669(7)
N7FE N 0.56145(8) 0.32770(8) -0.08669(7)
N7WB N 0.68855(8) 0.33669(7) -0.17230(8)
N7HG N 0.42230(8) 0.33669(7) 0.06145(8)
N8FC N 0.64920(7) 0.47410(8) 0.12901(8)
N8RE N 0.62901(8) 0.27590(8) 0.10080(7)
N8FE N 0.52590(8) 0.37901(8) -0.10080(7)
N8WB N 0.72410(8) 0.35080(7) -0.12099(8)
N8HG N 0.37099(8) 0.35080(7) 0.02590(8)
N8O N 0.60080(7) 0.47410(8) 0.12099(8)
N8SF N 0.62099(8) 0.27590(8) 0.14920(7)
N9WB N 0.74880(8) 0.37235(7) -0.15742(8)
N9FC N 0.62765(7) 0.49880(8) 0.09258(8)
N9O N 0.62235(7) 0.49880(8) 0.15742(8)
N9RE N 0.59258(8) 0.25120(8) 0.12235(7)
N9SF N 0.65742(8) 0.25120(8) 0.12765(7)
N10IA N 0.84873(7) 0.37549(7) -0.23043(7)
N10AB N 0.87451(7) 0.48043(7) -0.15127(7)
N10WB N 0.76957(7) 0.34873(7) -0.12451(7)
N10EB N 0.84873(7) 0.37451(7) -0.01957(7)
N10BA N 0.87451(7) 0.26957(7) -0.09873(7)
N10FC N 0.65127(7) 0.51957(7) 0.12549(7)
N10O N 0.59873(7) 0.51957(7) 0.12451(7)
N10RE N 0.62549(7) 0.23043(7) 0.09873(7)
N10SF N 0.62451(7) 0.23043(7) 0.15127(7)
N11IA N 0.84343(7) 0.42250(8) -0.18667(8)
N11AB N 0.82750(8) 0.43667(8) -0.15657(7)
N11WB N 0.81333(8) 0.34343(7) -0.07750(8)
N11EB N 0.84343(7) 0.32750(8) -0.06333(8)
N11BA N 0.82750(8) 0.31333(8) -0.09343(7)
loop_
_geom_bond_atom_site_label_1
_geom_bond_atom_site_label_2
_geom_bond_site_symmetry_1
_geom_bond_site_symmetry_2
N1 C1 1_555 1_555
C1 H1 1_555 1_555
H2 C1 1_555 1_555
H3 C1 1_555 1_555
C2 N1 1_555 1_555
S1 C2 1_555 1_555
Co1 N2 1_555 1_555
Co2 N8 1_555 1_555
S2 C3 1_555 1_555
S3 C22 1_555 1_555
C3 N2 1_555 1_555
C4 H4 1_555 1_555
C5 C4 1_555 1_555
H5 C5 1_555 1_555
C6 C5 1_555 1_555
H6 C6 1_555 1_555
C7 C6 1_555 1_555
C8 C7 1_555 1_555
H7 C8 1_555 1_555
C9 H8 1_555 1_555
C10 C9 1_555 1_555
H9 C10 1_555 1_555
C11 C10 1_555 1_555
H10 C11 1_555 1_555
C12 C11 1_555 1_555
C13 C12 1_555 1_555
H11 C13 1_555 1_555
C14 C12 1_555 1_555
C15 C7 1_555 1_555
C16 C17 1_555 1_555
C17 C18 1_555 1_555
C18 H12 1_555 1_555
C19 H13 1_555 1_555
C20 C19 1_555 1_555
H14 C20 1_555 1_555
C21 C17 1_555 1_555
H15 C21 1_555 1_555
C22 N9 1_555 1_555
C23 H16 1_555 1_555
C24 C23 1_555 1_555
H17 C24 1_555 1_555
C25 C24 1_555 1_555
H18 C25 1_555 1_555
C26 C25 1_555 1_555
C27 C26 1_555 1_555
H19 C27 1_555 1_555
C28 C26 1_555 1_555
N3 Co1 1_555 1_555
N4 C9 1_555 1_555
N5 C14 1_555 1_555
N6 C14 1_555 1_555
N7 C15 1_555 1_555
N8 C18 1_555 1_555
N9 Co2 1_555 1_555
N10 Co2 1_555 1_555
N11 C28 1_555 1_555
Co1RE N2RE 1_555 1_555
Co1FE N2FE 1_555 1_555
Co1XD N4 1_555 1_555
Co1HF N4FC 1_555 1_555
Co1N N3WB 1_555 1_555
Co1OA N4HG 1_555 1_555
Co2O N8FC 1_555 1_555
Co2RE N8RE 1_555 1_555
Co2IA N10IA 1_555 1_555
Co2AB N10AB 1_555 1_555
Co2FE N8FE 1_555 1_555
Co2J N10EB 1_555 1_555
Co2G N10BA 1_555 1_555
Co2IF N8HG 1_555 1_555
S2FC C3FC 1_555 1_555
S2RE C3RE 1_555 1_555
S2HG C3HG 1_555 1_555
S2FE C3FE 1_555 1_555
S2VF C3VF 1_555 1_555
S3WB C22WB 1_555 1_555
S3FC C22FC 1_555 1_555
S3O C22O 1_555 1_555
S3RE C22RE 1_555 1_555
S3SF C22SF 1_555 1_555
C3FC N2FC 1_555 1_555
C3RE N2RE 1_555 1_555
C3HG N2HG 1_555 1_555
C3FE N2FE 1_555 1_555
C3VF N2VF 1_555 1_555
C4FC H4FC 1_555 1_555
C4RE H4RE 1_555 1_555
C4FE H4FE 1_555 1_555
C4WB H4WB 1_555 1_555
C4HG H4HG 1_555 1_555
C5FC C4FC 1_555 1_555
C5RE C4RE 1_555 1_555
C5FE C4FE 1_555 1_555
C5WB C4WB 1_555 1_555
C5HG C4HG 1_555 1_555
H5FC C5FC 1_555 1_555
H5RE C5RE 1_555 1_555
H5FE C5FE 1_555 1_555
H5WB C5WB 1_555 1_555
H5HG C5HG 1_555 1_555
C6FC C5FC 1_555 1_555
C6RE C5RE 1_555 1_555
C6FE C5FE 1_555 1_555
C6WB C5WB 1_555 1_555
C6HG C5HG 1_555 1_555
H6FC C6FC 1_555 1_555
H6RE C6RE 1_555 1_555
H6FE C6FE 1_555 1_555
H6WB C6WB 1_555 1_555
H6HG C6HG 1_555 1_555
C7FC C6FC 1_555 1_555
C7RE C6RE 1_555 1_555
C7FE C6FE 1_555 1_555
C7WB C6WB 1_555 1_555
C7HG C6HG 1_555 1_555
C8FC C7FC 1_555 1_555
C8RE C7RE 1_555 1_555
C8FE C7FE 1_555 1_555
C8WB C7WB 1_555 1_555
C8HG C7HG 1_555 1_555
H7FC C8FC 1_555 1_555
H7RE C8RE 1_555 1_555
H7FE C8FE 1_555 1_555
H7WB C8WB 1_555 1_555
H7HG C8HG 1_555 1_555
C9FC H8FC 1_555 1_555
C9RE H8RE 1_555 1_555
C9FE H8FE 1_555 1_555
C9WB H8WB 1_555 1_555
C9HG H8HG 1_555 1_555
C10FC C9FC 1_555 1_555
C10RE C9RE 1_555 1_555
C10FE C9FE 1_555 1_555
C10WB C9WB 1_555 1_555
C10HG C9HG 1_555 1_555
H9FC C10FC 1_555 1_555
H9RE C10RE 1_555 1_555
H9FE C10FE 1_555 1_555
H9WB C10WB 1_555 1_555
H9HG C10HG 1_555 1_555
C11FC C10FC 1_555 1_555
C11RE C10RE 1_555 1_555
C11FE C10FE 1_555 1_555
C11WB C10WB 1_555 1_555
C11HG C10HG 1_555 1_555
H10FC C11FC 1_555 1_555
H10RE C11RE 1_555 1_555
H10FE C11FE 1_555 1_555
H10WB C11WB 1_555 1_555
H10HG C11HG 1_555 1_555
C12FC C11FC 1_555 1_555
C12RE C11RE 1_555 1_555
C12FE C11FE 1_555 1_555
C12WB C11WB 1_555 1_555
C12HG C11HG 1_555 1_555
C13FC C12FC 1_555 1_555
C13RE C12RE 1_555 1_555
C13FE C12FE 1_555 1_555
C13WB C12WB 1_555 1_555
C13HG C12HG 1_555 1_555
H11FC C13FC 1_555 1_555
H11RE C13RE 1_555 1_555
H11FE C13FE 1_555 1_555
H11WB C13WB 1_555 1_555
H11HG C13HG 1_555 1_555
C14FC C12FC 1_555 1_555
C14RE C12RE 1_555 1_555
C14FE C12FE 1_555 1_555
C14WB C12WB 1_555 1_555
C14HG C12HG 1_555 1_555
C15FC C7FC 1_555 1_555
C15RE C7RE 1_555 1_555
C15FE C7FE 1_555 1_555
C15WB C7WB 1_555 1_555
C15HG C7HG 1_555 1_555
C16FC C17FC 1_555 1_555
C16RE C17RE 1_555 1_555
C16FE C17FE 1_555 1_555
C16WB C17WB 1_555 1_555
C16HG C17HG 1_555 1_555
C17FC C18FC 1_555 1_555
C17RE C18RE 1_555 1_555
C17FE C18FE 1_555 1_555
C17WB C18WB 1_555 1_555
C17HG C18HG 1_555 1_555
C18FC H12FC 1_555 1_555
C18RE H12RE 1_555 1_555
C18FE H12FE 1_555 1_555
C18WB H12WB 1_555 1_555
C18HG H12HG 1_555 1_555
C19FC H13FC 1_555 1_555
C19RE H13RE 1_555 1_555
C19FE H13FE 1_555 1_555
C19WB H13WB 1_555 1_555
C19HG H13HG 1_555 1_555
C20FC C19FC 1_555 1_555
C20RE C19RE 1_555 1_555
C20FE C19FE 1_555 1_555
C20WB C19WB 1_555 1_555
C20HG C19HG 1_555 1_555
H14FC C20FC 1_555 1_555
H14RE C20RE 1_555 1_555
H14FE C20FE 1_555 1_555
H14WB C20WB 1_555 1_555
H14HG C20HG 1_555 1_555
C21FC C17FC 1_555 1_555
C21RE C17RE 1_555 1_555
C21FE C17FE 1_555 1_555
C21WB C17WB 1_555 1_555
C21HG C17HG 1_555 1_555
H15FC C21FC 1_555 1_555
H15RE C21RE 1_555 1_555
H15FE C21FE 1_555 1_555
H15WB C21WB 1_555 1_555
H15HG C21HG 1_555 1_555
C22WB N9WB 1_555 1_555
C22FC N9FC 1_555 1_555
C22O N9O 1_555 1_555
C22RE N9RE 1_555 1_555
C22SF N9SF 1_555 1_555
C23IA H16IA 1_555 1_555
C23AB H16AB 1_555 1_555
C23WB H16WB 1_555 1_555
C23EB H16EB 1_555 1_555
C23BA H16BA 1_555 1_555
C24IA C23IA 1_555 1_555
C24AB C23AB 1_555 1_555
C24WB C23WB 1_555 1_555
C24EB C23EB 1_555 1_555
C24BA C23BA 1_555 1_555
H17IA C24IA 1_555 1_555
H17AB C24AB 1_555 1_555
H17WB C24WB 1_555 1_555
H17EB C24EB 1_555 1_555
H17BA C24BA 1_555 1_555
C25IA C24IA 1_555 1_555
C25AB C24AB 1_555 1_555
C25WB C24WB 1_555 1_555
C25EB C24EB 1_555 1_555
C25BA C24BA 1_555 1_555
H18IA C25IA 1_555 1_555
H18AB C25AB 1_555 1_555
H18WB C25WB 1_555 1_555
H18EB C25EB 1_555 1_555
H18BA C25BA 1_555 1_555
C26IA C25IA 1_555 1_555
C26AB C25AB 1_555 1_555
C26WB C25WB 1_555 1_555
C26EB C25EB 1_555 1_555
C26BA C25BA 1_555 1_555
C27IA C26IA 1_555 1_555
C27AB C26AB 1_555 1_555
C27WB C26WB 1_555 1_555
C27EB C26EB 1_555 1_555
C27BA C26BA 1_555 1_555
H19IA C27IA 1_555 1_555
H19AB C27AB 1_555 1_555
H19WB C27WB 1_555 1_555
H19EB C27EB 1_555 1_555
H19BA C27BA 1_555 1_555
C28IA N11 1_555 1_555
C28AB C26AB 1_555 1_555
C28WB C26WB 1_555 1_555
C28EB C26EB 1_555 1_555
C28BA C26BA 1_555 1_555
N2FC Co1 1_555 1_555
N2HG Co1RE 1_555 1_555
N2VF Co1FE 1_555 1_555
N3FC Co1 1_555 1_555
N3RE Co1RE 1_555 1_555
N3FE Co1FE 1_555 1_555
N3WB C4WB 1_555 1_555
N3HG Co1RE 1_555 1_555
N3VF Co1FE 1_555 1_555
N4FC C9FC 1_555 1_555
N4RE Co1 1_555 1_555
N4FE Co1 1_555 1_555
N4WB Co1FE 1_555 1_555
N4HG C9HG 1_555 1_555
N4FA Co1RE 1_555 1_555
N4O Co1RE 1_555 1_555
N4RA Co1FE 1_555 1_555
N5FC C14FC 1_555 1_555
N5RE C14RE 1_555 1_555
N5FE C14FE 1_555 1_555
N5WB C14WB 1_555 1_555
N5HG C14HG 1_555 1_555
N6FC C14FC 1_555 1_555
N6RE C14RE 1_555 1_555
N6FE C14FE 1_555 1_555
N6WB C14WB 1_555 1_555
N6HG C14HG 1_555 1_555
N7FC C15FC 1_555 1_555
N7RE C15RE 1_555 1_555
N7FE C15FE 1_555 1_555
N7WB C15WB 1_555 1_555
N7HG C15HG 1_555 1_555
N8FC C18FC 1_555 1_555
N8RE C18RE 1_555 1_555
N8FE C18FE 1_555 1_555
N8WB Co2 1_555 1_555
N8HG C18HG 1_555 1_555
N8O Co2O 1_555 1_555
N8SF Co2RE 1_555 1_555
N9WB Co2 1_555 1_555
N9FC Co2O 1_555 1_555
N9O Co2O 1_555 1_555
N9RE Co2RE 1_555 1_555
N9SF Co2RE 1_555 1_555
N10IA C23IA 1_555 1_555
N10AB C23AB 1_555 1_555
N10WB Co2 1_555 1_555
N10EB C23EB 1_555 1_555
N10BA C23BA 1_555 1_555
N10FC Co2O 1_555 1_555
N10O Co2O 1_555 1_555
N10RE Co2RE 1_555 1_555
N10SF Co2RE 1_555 1_555
N11IA C28IA 1_555 1_555
N11AB C28 1_555 1_555
N11WB C28WB 1_555 1_555
N11EB C28EB 1_555 1_555
N11BA C28WB 1_555 1_555
C4 N3 1_555 1_555
C8 N3 1_555 1_555
C13 N4 1_555 1_555
C15 N5 1_555 1_555
C16 N6 1_555 1_555
C16 N7 1_555 1_555
C19 N8 1_555 1_555
C20 C21 1_555 1_555
C23 N10 1_555 1_555
C27 N10 1_555 1_555
C4FC N3FC 1_555 1_555
C4RE N3RE 1_555 1_555
C4FE N3FE 1_555 1_555
C4HG N3HG 1_555 1_555
C8FC N3FC 1_555 1_555
C8RE N3RE 1_555 1_555
C8FE N3FE 1_555 1_555
C8WB N3WB 1_555 1_555
C8HG N3HG 1_555 1_555
C9RE N4RE 1_555 1_555
C9FE N4FE 1_555 1_555
C9WB N4WB 1_555 1_555
C13FC N4FC 1_555 1_555
C13RE N4RE 1_555 1_555
C13FE N4FE 1_555 1_555
C13WB N4WB 1_555 1_555
C13HG N4HG 1_555 1_555
C15FC N5FC 1_555 1_555
C15RE N5RE 1_555 1_555
C15FE N5FE 1_555 1_555
C15WB N5WB 1_555 1_555
C15HG N5HG 1_555 1_555
C16FC N6FC 1_555 1_555
C16FC N7FC 1_555 1_555
C16RE N6RE 1_555 1_555
C16RE N7RE 1_555 1_555
C16FE N6FE 1_555 1_555
C16FE N7FE 1_555 1_555
C16WB N6WB 1_555 1_555
C16WB N7WB 1_555 1_555
C16HG N6HG 1_555 1_555
C16HG N7HG 1_555 1_555
C18WB N8WB 1_555 1_555
C19FC N8FC 1_555 1_555
C19RE N8RE 1_555 1_555
C19FE N8FE 1_555 1_555
C19WB N8WB 1_555 1_555
C19HG N8HG 1_555 1_555
C20FC C21FC 1_555 1_555
C20RE C21RE 1_555 1_555
C20FE C21FE 1_555 1_555
C20WB C21WB 1_555 1_555
C20HG C21HG 1_555 1_555
C23WB N10WB 1_555 1_555
C26IA C28IA 1_555 1_555
C27IA N10IA 1_555 1_555
C27AB N10AB 1_555 1_555
C27WB N10WB 1_555 1_555
C27EB N10EB 1_555 1_555
C27BA N10BA 1_555 1_555
C28AB N11IA 1_555 1_555
C28AB N11AB 1_555 1_555
C28EB N11WB 1_555 1_555
C28BA N11EB 1_555 1_555
C28BA N11BA 1_555 1_555

#END
