
#######################################################################
#
#                 Cambridge Crystallographic Data Centre
#                                CCDC 
#
#######################################################################
#
# If this CIF has been generated from an entry in the Cambridge 
# Structural Database, then it will include bibliographic, chemical, 
# crystal, experimental, refinement or atomic coordinate data resulting 
# from the CCDC's data processing and validation procedures.
#
#######################################################################

data_HAJRES
_chemical_formula_moiety         '(C112 H120 Cu1 F12 N4 O3 P2 1-)n'
_symmetry_cell_setting           orthorhombic
_symmetry_space_group_name_H-M   'F d d 2'
_symmetry_Int_Tables_number      43
_space_group_name_Hall           'F 2 -2d'
loop_
_symmetry_equiv_pos_site_id
_symmetry_equiv_pos_as_xyz
1 x,y,z
2 -x,-y,z
3 1/4+x,1/4-y,1/4+z
4 1/4-x,1/4+y,1/4+z
5 x,1/2+y,1/2+z
6 -x,1/2-y,1/2+z
7 1/4+x,3/4-y,3/4+z
8 1/4-x,3/4+y,3/4+z
9 1/2+x,y,1/2+z
10 1/2-x,-y,1/2+z
11 3/4+x,1/4-y,3/4+z
12 3/4-x,1/4+y,3/4+z
13 1/2+x,1/2+y,z
14 1/2-x,1/2-y,z
15 3/4+x,3/4-y,1/4+z
16 3/4-x,3/4+y,1/4+z
_cell_length_a                   30.4380(14)
_cell_length_b                   44.985(2)
_cell_length_c                   30.3992(14)
_cell_angle_alpha                90
_cell_angle_beta                 90
_cell_angle_gamma                90
_cell_volume                     41624.2
loop_
_atom_site_label
_atom_site_type_symbol
_atom_site_fract_x
_atom_site_fract_y
_atom_site_fract_z
_atom_site_U_iso_or_equiv
_atom_site_thermal_displace_type
Cu1 Cu 0.49870(5) 0.25012(5) 0.61646(11) 0.0428 Uani
N1 N 0.2664(4) 0.4530(3) 0.4384(5) 0.0597 Uani
N2 N 0.4181(4) 0.2897(3) 0.5944(4) 0.0570 Uani
N3 N 0.5229(5) 0.2112(3) 0.5354(5) 0.0720 Uani
N4 N 0.6811(5) 0.0493(3) 0.3857(4) 0.0723 Uani
C1 C 0.2576(5) 0.4710(4) 0.4154(6) 0.0513 Uani
C2 C 0.2861(5) 0.4289(3) 0.4630(5) 0.0567 Uani
C3 C 0.3287(4) 0.4197(3) 0.4491(6) 0.0540 Uani
C4 C 0.3474(4) 0.3970(3) 0.4701(5) 0.0543 Uani
H1 H 0.3758 0.3906 0.4610 0.0650 Uiso
C5 C 0.3274(5) 0.3824(3) 0.5041(5) 0.0600 Uani
C6 C 0.2847(5) 0.3911(4) 0.5167(6) 0.0643 Uani
H2 H 0.2700 0.3801 0.5390 0.0770 Uiso
C7 C 0.2641(5) 0.4145(3) 0.4980(6) 0.0613 Uani
C8 C 0.2213(5) 0.4258(3) 0.5155(6) 0.0617 Uani
C9 C 0.2234(5) 0.4481(4) 0.5496(7) 0.0753 Uani
C10 C 0.1814(7) 0.4572(5) 0.5699(8) 0.0997 Uani
H3 H 0.1814 0.4713 0.5931 0.1190 Uiso
C11 C 0.1437(6) 0.4458(5) 0.5560(6) 0.0873 Uani
C12 C 0.1416(6) 0.4215(5) 0.5253(6) 0.0913 Uani
H4 H 0.1147 0.4124 0.5171 0.1100 Uiso
C13 C 0.1843(5) 0.4119(5) 0.5075(6) 0.0790 Uani
C14 C 0.1798(5) 0.3845(4) 0.4784(7) 0.0837 Uani
H5 H 0.1489 0.3782 0.4776 0.1260 Uiso
H6 H 0.1896 0.3893 0.4485 0.1260 Uiso
H7 H 0.1978 0.3684 0.4902 0.1260 Uiso
C15 C 0.2668(7) 0.4607(4) 0.5647(7) 0.0813 Uani
H8 H 0.2617 0.4754 0.5879 0.1220 Uiso
H9 H 0.2853 0.4447 0.5761 0.1220 Uiso
H10 H 0.2816 0.4703 0.5398 0.1220 Uiso
C16 C 0.0984(10) 0.4559(8) 0.5746(12) 0.1477 Uani
H11 H 0.0749 0.4448 0.5600 0.2170 Uiso
H12 H 0.0975 0.4521 0.6064 0.2170 Uiso
H13 H 0.0945 0.4772 0.5692 0.2170 Uiso
C17 C 0.3508(5) 0.4345(3) 0.4102(6) 0.0557 Uani
C18 C 0.3604(5) 0.4159(3) 0.3724(6) 0.0650 Uani
C19 C 0.3849(6) 0.4281(4) 0.3385(6) 0.0777 Uani
H14 H 0.3942 0.4156 0.3151 0.0930 Uiso
C20 C 0.3966(6) 0.4589(4) 0.3373(6) 0.0713 Uani
C21 C 0.3905(5) 0.4736(3) 0.3744(6) 0.0570 Uani
H15 H 0.4013 0.4933 0.3761 0.0680 Uiso
C22 C 0.3687(5) 0.4618(3) 0.4117(6) 0.0643 Uani
C23 C 0.3628(6) 0.4820(4) 0.4521(7) 0.0797 Uani
H16 H 0.3781 0.5009 0.4472 0.1200 Uiso
H17 H 0.3314 0.4858 0.4568 0.1200 Uiso
H18 H 0.3751 0.4722 0.4781 0.1200 Uiso
C24 C 0.4148(10) 0.4721(7) 0.2977(9) 0.1170 Uani
H19 H 0.4163 0.4570 0.2745 0.1750 Uiso
H20 H 0.3960 0.4885 0.2881 0.1750 Uiso
H21 H 0.4444 0.4796 0.3039 0.1750 Uiso
C25 C 0.3449(6) 0.3839(3) 0.3699(6) 0.0750 Uani
H22 H 0.3282 0.3790 0.3965 0.1120 Uiso
H23 H 0.3262 0.3813 0.3440 0.1120 Uiso
H24 H 0.3704 0.3707 0.3676 0.1120 Uiso
C26 C 0.3491(4) 0.3570(3) 0.5276(5) 0.0563 Uani
C27 C 0.3876(5) 0.3443(3) 0.5101(6) 0.0627 Uani
H25 H 0.3982 0.3508 0.4824 0.0750 Uiso
C28 C 0.4099(6) 0.3227(3) 0.5330(6) 0.0627 Uani
C29 C 0.3935(5) 0.3116(3) 0.5721(6) 0.0590 Uani
C30 C 0.3546(5) 0.3231(3) 0.5908(5) 0.0533 Uani
C31 C 0.3347(4) 0.3460(3) 0.5682(5) 0.0573 Uani
C32 C 0.3376(5) 0.3132(4) 0.6342(6) 0.0710 Uani
C33 C 0.3586(8) 0.3211(5) 0.6713(8) 0.1000 Uani
C34 C 0.3431(10) 0.3139(6) 0.7132(9) 0.1187 Uani
H26 H 0.3596 0.3193 0.7385 0.1430 Uiso
C35 C 0.3066(9) 0.3000(5) 0.7172(9) 0.1003 Uani
C36 C 0.2832(9) 0.2919(5) 0.6797(9) 0.1017 Uani
H27 H 0.2569 0.2808 0.6835 0.1220 Uiso
C37 C 0.2965(6) 0.2994(5) 0.6352(8) 0.0883 Uani
C38 C 0.2698(6) 0.2926(4) 0.5978(8) 0.0873 Uani
H28 H 0.2426 0.2829 0.6075 0.1310 Uiso
H29 H 0.2627 0.3109 0.5820 0.1310 Uiso
H30 H 0.2859 0.2791 0.5782 0.1310 Uiso
C39 C 0.4025(8) 0.3398(6) 0.6691(9) 0.1167 Uani
H31 H 0.4132 0.3435 0.6990 0.1750 Uiso
H32 H 0.4247 0.3286 0.6526 0.1750 Uiso
H33 H 0.3968 0.3588 0.6543 0.1750 Uiso
C40 C 0.2896(10) 0.2900(7) 0.7641(9) 0.1247 Uani
H34 H 0.2614 0.2797 0.7610 0.1860 Uiso
H35 H 0.3111 0.2765 0.7775 0.1860 Uiso
H36 H 0.2859 0.3075 0.7829 0.1860 Uiso
C41 C 0.4500(3) 0.2889(3) 0.4807(4) 0.0800 Uani
C42 C 0.4888(4) 0.2767(3) 0.4646(4) 0.0890 Uani
H37 H 0.4878 0.2624 0.4416 0.1070 Uiso
C43 C 0.5289(3) 0.2853(3) 0.4822(5) 0.0817 Uani
C44 C 0.5304(3) 0.3062(3) 0.5158(5) 0.0783 Uani
H38 H 0.5578 0.3122 0.5279 0.0940 Uiso
C45 C 0.4916(3) 0.3185(2) 0.5319(4) 0.0823 Uani
C46 C 0.4515(3) 0.3098(2) 0.5144(4) 0.0623 Uani
C47 C 0.4058(6) 0.2793(5) 0.4589(9) 0.1077 Uani
H39 H 0.3813 0.2895 0.4734 0.1610 Uiso
H40 H 0.4062 0.2845 0.4276 0.1610 Uiso
H41 H 0.4020 0.2577 0.4621 0.1610 Uiso
C48 C 0.5710(8) 0.2711(6) 0.4615(11) 0.1230 Uani
H42 H 0.5624 0.2570 0.4384 0.1850 Uiso
H43 H 0.5895 0.2867 0.4487 0.1850 Uiso
H44 H 0.5876 0.2606 0.4844 0.1850 Uiso
C49 C 0.4927(6) 0.3396(4) 0.5691(8) 0.0860 Uani
H45 H 0.4626 0.3460 0.5761 0.1290 Uiso
H46 H 0.5057 0.3299 0.5949 0.1290 Uiso
H47 H 0.5103 0.3570 0.5610 0.1290 Uiso
C50 C 0.4455(6) 0.2738(4) 0.6058(6) 0.0603 Uani
C51 C 0.5120(5) 0.2274(4) 0.5635(6) 0.0617 Uani
C52 C 0.5443(5) 0.1883(3) 0.5120(6) 0.0643 Uani
C53 C 0.5850(7) 0.1789(4) 0.5302(6) 0.0747 Uani
C54 C 0.6062(7) 0.1568(4) 0.5069(6) 0.0823 Uani
H48 H 0.6336 0.1499 0.5178 0.0990 Uiso
C55 C 0.5902(6) 0.1441(4) 0.4687(6) 0.0747 Uani
C56 C 0.5501(6) 0.1549(4) 0.4511(6) 0.0700 Uani
H49 H 0.5383 0.1468 0.4248 0.0840 Uiso
C57 C 0.5284(6) 0.1775(3) 0.4729(5) 0.0637 Uani
C58 C 0.4849(6) 0.1880(4) 0.4541(6) 0.0700 Uani
C59 C 0.4808(6) 0.2019(4) 0.4151(7) 0.0740 Uani
C60 C 0.4396(8) 0.2108(5) 0.3990(9) 0.0987 Uani
H50 H 0.4378 0.2226 0.3731 0.1190 Uiso
C61 C 0.4018(7) 0.2025(5) 0.4205(9) 0.0993 Uani
C62 C 0.4052(6) 0.1863(5) 0.4584(9) 0.0947 Uani
H51 H 0.3790 0.1805 0.4731 0.1140 Uiso
C63 C 0.4441(6) 0.1783(4) 0.4759(7) 0.0790 Uani
C64 C 0.4461(8) 0.1585(7) 0.5143(11) 0.1397 Uani
H52 H 0.4769 0.1551 0.5224 0.2070 Uiso
H53 H 0.4306 0.1677 0.5390 0.2070 Uiso
H54 H 0.4322 0.1395 0.5070 0.2070 Uiso
C65 C 0.5224(8) 0.2100(6) 0.3902(9) 0.1160 Uani
H55 H 0.5145 0.2199 0.3626 0.1740 Uiso
H56 H 0.5403 0.2234 0.4081 0.1740 Uiso
H57 H 0.5391 0.1919 0.3837 0.1740 Uiso
C66 C 0.3627(11) 0.2114(9) 0.3926(14) 0.1737 Uani
H58 H 0.3729 0.2231 0.3674 0.2570 Uiso
H59 H 0.3477 0.1935 0.3820 0.2570 Uiso
H60 H 0.3423 0.2232 0.4103 0.2570 Uiso
C67 C 0.6047(6) 0.1904(4) 0.5729(6) 0.0683 Uani
C68 C 0.5842(6) 0.1822(3) 0.6104(6) 0.0737 Uani
C69 C 0.5445(8) 0.1610(4) 0.6124(7) 0.0953 Uani
H61 H 0.5354 0.1584 0.6431 0.1430 Uiso
H62 H 0.5201 0.1695 0.5955 0.1430 Uiso
H63 H 0.5527 0.1417 0.5999 0.1430 Uiso
C70 C 0.6031(6) 0.1915(5) 0.6501(7) 0.0847 Uani
H64 H 0.5892 0.1865 0.6771 0.1020 Uiso
C71 C 0.6434(9) 0.2085(5) 0.6511(8) 0.0923 Uani
C72 C 0.6548(12) 0.2178(6) 0.6147(9) 0.1320 Uani
H65 H 0.6741 0.2344 0.6145 0.1600 Uiso
C73 C 0.6421(8) 0.2062(4) 0.5728(8) 0.0950 Uani
C74 C 0.6645(8) 0.2158(5) 0.5294(9) 0.1150 Uani
H66 H 0.6912 0.2271 0.5361 0.1740 Uiso
H67 H 0.6721 0.1982 0.5122 0.1740 Uiso
H68 H 0.6443 0.2283 0.5125 0.1740 Uiso
C75 C 0.6683(13) 0.2168(7) 0.6897(11) 0.1433 Uani
H69 H 0.6551 0.2077 0.7158 0.2200 Uiso
H70 H 0.6987 0.2099 0.6865 0.2200 Uiso
H71 H 0.6681 0.2385 0.6929 0.2200 Uiso
C76 C 0.6133(6) 0.1200(4) 0.4452(6) 0.0733 Uani
C77 C 0.6056(8) 0.1114(5) 0.4051(7) 0.1040 Uani
H72 H 0.5835 0.1220 0.3894 0.1250 Uiso
C78 C 0.6262(7) 0.0888(4) 0.3831(6) 0.0907 Uani
C79 C 0.6604(6) 0.0735(4) 0.4050(6) 0.0700 Uani
C80 C 0.6716(6) 0.0818(3) 0.4478(7) 0.0653 Uani
C81 C 0.6465(7) 0.1041(4) 0.4688(7) 0.0770 Uani
H73 H 0.6518 0.1085 0.4989 0.0930 Uiso
C82 C 0.7081(6) 0.0686(3) 0.4721(6) 0.0600 Uani
C83 C 0.7079(5) 0.0397(4) 0.4855(7) 0.0790 Uani
C84 C 0.7428(7) 0.0304(7) 0.5133(10) 0.1183 Uani
H74 H 0.7392 0.0128 0.5303 0.1420 Uiso
C85 C 0.7809(7) 0.0455(6) 0.5165(7) 0.0903 Uani
C86 C 0.7807(7) 0.0736(5) 0.5040(7) 0.0807 Uani
H75 H 0.8055 0.0855 0.5111 0.0970 Uiso
C87 C 0.7466(6) 0.0867(4) 0.4810(7) 0.0813 Uani
C88 C 0.7501(5) 0.1174(5) 0.4646(8) 0.0890 Uani
H76 H 0.7230 0.1228 0.4492 0.1330 Uiso
H77 H 0.7548 0.1309 0.4894 0.1330 Uiso
H78 H 0.7750 0.1188 0.4442 0.1330 Uiso
C89 C 0.6697(6) 0.0188(4) 0.4801(6) 0.0737 Uani
H79 H 0.6774 -0.0007 0.4922 0.1100 Uiso
H80 H 0.6441 0.0268 0.4957 0.1100 Uiso
H81 H 0.6627 0.0168 0.4487 0.1100 Uiso
C90 C 0.8242(7) 0.0317(5) 0.5387(7) 0.0877 Uani
H82 H 0.8189 0.0108 0.5460 0.1320 Uiso
H83 H 0.8488 0.0331 0.5180 0.1320 Uiso
H84 H 0.8313 0.0428 0.5655 0.1320 Uiso
C91 C 0.6071(7) 0.0782(5) 0.3398(5) 0.1317 Uani
C92 C 0.6167(6) 0.0919(4) 0.3000(6) 0.1403 Uani
C93 C 0.5971(8) 0.0819(5) 0.2614(5) 0.1553 Uani
H85 H 0.6037 0.0913 0.2342 0.1860 Uiso
C94 C 0.5679(8) 0.0582(5) 0.2627(6) 0.1697 Uani
C95 C 0.5583(8) 0.0445(5) 0.3025(8) 0.1697 Uani
H86 H 0.5383 0.0282 0.3034 0.2030 Uiso
C96 C 0.5779(8) 0.0545(5) 0.3410(6) 0.1697 Uani
C97 C 0.6448(9) 0.1185(6) 0.3015(8) 0.1357 Uani
H87 H 0.6381 0.1313 0.2763 0.2040 Uiso
H88 H 0.6757 0.1125 0.3003 0.2040 Uiso
H89 H 0.6393 0.1294 0.3289 0.2040 Uiso
C98 C 0.5674(14) 0.0376(8) 0.3809(9) 0.1787 Uani
H90 H 0.5558 0.0525 0.3984 0.2680 Uiso
H91 H 0.5462 0.0212 0.3753 0.2680 Uiso
H92 H 0.5937 0.0280 0.3954 0.2680 Uiso
C99 C 0.5471(14) 0.0491(9) 0.2176(12) 0.1843 Uani
H93 H 0.5271 0.0322 0.2221 0.2750 Uiso
H94 H 0.5307 0.0659 0.2055 0.2750 Uiso
H95 H 0.5704 0.0433 0.1971 0.2750 Uiso
C100 C 0.7050(6) 0.0297(4) 0.3774(5) 0.0650 Uani
Cu1G Cu 0.75130(5) 0.00012(5) 0.36646(11) 0.0428 Uani
Cu1K Cu 0.25130(5) 0.50012(5) 0.36646(11) 0.0428 Uani
C1O C 0.4924(5) 0.2210(4) 0.6654(6) 0.0513 Uani
C100C C 0.5450(6) 0.2797(4) 0.6274(5) 0.0650 Uani
P1 P 0.2687(4) 0.3060(3) 0.4475(4) 0.0983 Uani
F1 F 0.2708(10) 0.2914(8) 0.4050(11) 0.1567 Uani
F2 F 0.2271(11) 0.2846(7) 0.4571(10) 0.1383 Uani
F3 F 0.2470(9) 0.3326(9) 0.4228(11) 0.1500 Uani
F4 F 0.2566(6) 0.3237(5) 0.4857(8) 0.0853 Uani
F5 F 0.3105(7) 0.3236(4) 0.4339(8) 0.0997 Uani
F6 F 0.2861(12) 0.2830(6) 0.4709(13) 0.1487 Uani
P2 P 0.6729(6) 0.1978(5) 0.3867(8) 0.1623 Uani
F7 F 0.6378(9) 0.1796(9) 0.3725(12) 0.1453 Uani
F8 F 0.6443(11) 0.2174(10) 0.4063(12) 0.1690 Uani
F9 F 0.6667(12) 0.2160(10) 0.3428(12) 0.1783 Uani
F10 F 0.7095(13) 0.2200(10) 0.3947(16) 0.1810 Uani
F11 F 0.6810(9) 0.1789(9) 0.4255(14) 0.1520 Uani
F12 F 0.7031(11) 0.1757(9) 0.3669(17) 0.1790 Uani
O1 O 0.4418(6) 0.3718(6) 0.4225(8) 0.1400 Uani
C101 C 0.4741(10) 0.3864(9) 0.4444(15) 0.1870 Uani
H96 H 0.4690 0.3854 0.4765 0.2250 Uiso
H97 H 0.4747 0.4076 0.4355 0.2250 Uiso
C102 C 0.5197(8) 0.3705(5) 0.4318(9) 0.1180 Uani
H98 H 0.5436 0.3853 0.4285 0.1420 Uiso
H99 H 0.5283 0.3558 0.4545 0.1420 Uiso
C103 C 0.5097(9) 0.3550(7) 0.3874(11) 0.1397 Uani
H100 H 0.5265 0.3641 0.3630 0.1660 Uiso
H101 H 0.5164 0.3335 0.3887 0.1660 Uiso
C104 C 0.4657(9) 0.3599(6) 0.3828(11) 0.1303 Uani
H102 H 0.4517 0.3410 0.3741 0.1560 Uiso
H103 H 0.4615 0.3742 0.3583 0.1560 Uiso
O2 O 0.5226(18) 0.0448(9) 0.5039(14) 0.2967 Uani
C105 C 0.4979(19) 0.0761(11) 0.5018(15) 0.2300 Uani
H104 H 0.5045 0.0868 0.4740 0.2760 Uiso
H105 H 0.4657 0.0737 0.5048 0.2760 Uiso
C106 C 0.5176(17) 0.0919(9) 0.5414(14) 0.2133 Uani
H106 H 0.5296 0.1114 0.5324 0.2540 Uiso
H107 H 0.4948 0.0952 0.5640 0.2540 Uiso
C107 C 0.5521(17) 0.0736(8) 0.5589(15) 0.2203 Uani
H108 H 0.5560 0.0772 0.5908 0.2630 Uiso
H109 H 0.5802 0.0774 0.5437 0.2630 Uiso
C108 C 0.5364(19) 0.0415(8) 0.5506(16) 0.2133 Uani
H110 H 0.5605 0.0269 0.5540 0.2570 Uiso
H111 H 0.5116 0.0360 0.5699 0.2570 Uiso
C109 C 0.4837(11) 0.1020(11) 0.3762(9) 0.1853 Uani
H112 H 0.5090 0.1088 0.3940 0.2240 Uiso
H113 H 0.4823 0.0801 0.3772 0.2240 Uiso
C110 C 0.4878(12) 0.1129(14) 0.3286(11) 0.2317 Uani
H114 H 0.5082 0.1300 0.3271 0.2770 Uiso
H115 H 0.4993 0.0968 0.3097 0.2770 Uiso
O3 O 0.4453(6) 0.1217(6) 0.3139(7) 0.1250 Uani
C111 C 0.4232(9) 0.1307(6) 0.3512(8) 0.1243 Uani
H116 H 0.3916 0.1259 0.3480 0.1490 Uiso
H117 H 0.4258 0.1525 0.3543 0.1490 Uiso
C112 C 0.4408(9) 0.1157(8) 0.3933(9) 0.1520 Uani
H118 H 0.4464 0.1305 0.4169 0.1820 Uiso
H119 H 0.4204 0.1003 0.4044 0.1820 Uiso
loop_
_atom_site_aniso_label
_atom_site_aniso_U_11
_atom_site_aniso_U_22
_atom_site_aniso_U_33
_atom_site_aniso_U_23
_atom_site_aniso_U_13
_atom_site_aniso_U_12
Cu1 0.041(2) 0.0394(6) 0.048(2) -0.0012(7) -0.0017(11) 0.0007(6)
N1 0.041(6) 0.064(8) 0.074(9) 0.006(7) 0.003(6) 0.007(6)
N2 0.054(7) 0.067(8) 0.050(7) 0.014(6) 0.019(5) 0.021(6)
N3 0.095(11) 0.068(9) 0.053(9) -0.007(7) 0.000(7) 0.023(8)
N4 0.107(11) 0.064(8) 0.046(7) 0.001(6) 0.008(7) 0.052(8)
C1 0.053(8) 0.050(9) 0.051(9) 0.010(8) 0.004(6) 0.012(7)
C2 0.053(8) 0.067(9) 0.050(9) 0.009(7) 0.001(6) 0.016(7)
C3 0.035(7) 0.059(8) 0.068(10) -0.006(8) 0.005(6) 0.013(6)
C4 0.026(6) 0.067(8) 0.070(10) 0.006(8) 0.002(6) 0.007(6)
C5 0.052(8) 0.071(9) 0.057(9) 0.008(7) 0.005(7) 0.019(7)
C6 0.047(8) 0.080(10) 0.066(10) 0.021(8) 0.011(6) 0.000(7)
C7 0.046(7) 0.055(9) 0.083(11) 0.010(8) 0.018(7) 0.023(7)
C8 0.058(9) 0.058(8) 0.069(10) 0.009(8) 0.024(7) 0.012(7)
C9 0.061(9) 0.065(9) 0.100(13) 0.031(10) 0.026(8) 0.021(7)
C10 0.095(10) 0.107(12) 0.097(13) 0.017(10) 0.027(9) 0.033(9)
C11 0.078(8) 0.110(12) 0.074(10) 0.033(8) 0.024(7) 0.042(8)
C12 0.077(10) 0.122(12) 0.075(10) 0.021(9) 0.017(8) 0.034(9)
C13 0.053(9) 0.123(15) 0.061(10) 0.008(10) 0.001(7) 0.024(9)
C14 0.056(9) 0.103(13) 0.092(13) -0.005(11) 0.012(8) -0.005(8)
C15 0.106(13) 0.057(9) 0.081(12) 0.010(8) 0.004(10) 0.014(9)
C16 0.103(12) 0.18(2) 0.16(2) 0.001(19) 0.060(13) 0.046(13)
C17 0.045(7) 0.060(6) 0.062(8) 0.001(5) -0.004(5) 0.012(5)
C18 0.077(8) 0.057(6) 0.061(7) -0.002(5) 0.000(6) 0.018(5)
C19 0.075(9) 0.089(8) 0.069(8) 0.006(6) -0.001(7) 0.008(7)
C20 0.075(9) 0.072(7) 0.067(8) 0.016(6) -0.009(6) -0.001(7)
C21 0.052(6) 0.044(6) 0.075(7) 0.017(5) -0.011(5) 0.004(5)
C22 0.060(8) 0.053(6) 0.080(8) 0.008(5) 0.002(6) 0.015(5)
C23 0.082(10) 0.065(9) 0.092(10) 0.007(7) 0.009(8) 0.009(7)
C24 0.129(17) 0.134(16) 0.088(11) 0.028(11) -0.001(10) -0.037(14)
C25 0.086(10) 0.066(7) 0.073(10) -0.013(7) 0.004(8) 0.010(6)
C26 0.046(7) 0.067(9) 0.056(9) 0.022(7) 0.008(6) 0.031(7)
C27 0.055(9) 0.073(9) 0.060(10) -0.007(8) 0.007(7) 0.036(8)
C28 0.066(9) 0.056(8) 0.066(10) 0.007(8) 0.029(8) 0.018(7)
C29 0.043(8) 0.054(8) 0.080(12) 0.012(8) 0.007(7) 0.012(6)
C30 0.057(8) 0.043(7) 0.060(9) -0.002(7) 0.014(7) 0.019(6)
C31 0.051(7) 0.060(8) 0.061(9) 0.015(7) 0.006(6) 0.012(6)
C32 0.063(7) 0.081(10) 0.069(8) 0.026(7) 0.014(5) 0.027(6)
C33 0.097(10) 0.117(14) 0.086(9) 0.018(8) -0.004(7) 0.013(9)
C34 0.134(13) 0.137(17) 0.085(10) 0.028(10) 0.012(8) 0.002(11)
C35 0.120(12) 0.087(12) 0.094(10) 0.014(8) 0.035(8) 0.028(9)
C36 0.120(12) 0.079(11) 0.106(9) 0.012(8) 0.044(7) 0.006(10)
C37 0.072(8) 0.088(11) 0.105(9) 0.014(8) 0.022(6) 0.015(7)
C38 0.062(9) 0.082(11) 0.118(11) 0.009(9) 0.011(7) 0.002(8)
C39 0.107(11) 0.150(18) 0.093(14) 0.019(13) -0.022(10) -0.006(11)
C40 0.127(17) 0.15(2) 0.097(12) 0.031(12) 0.044(11) 0.014(15)
C41 0.058(6) 0.074(9) 0.108(11) -0.009(8) 0.038(6) 0.005(6)
C42 0.066(6) 0.079(10) 0.122(13) -0.015(10) 0.033(7) 0.010(6)
C43 0.060(7) 0.071(9) 0.114(12) 0.009(8) 0.030(7) 0.010(6)
C44 0.048(6) 0.079(9) 0.108(11) 0.015(7) 0.026(6) 0.008(6)
C45 0.059(6) 0.073(9) 0.115(11) 0.016(8) 0.023(6) 0.006(6)
C46 0.041(6) 0.060(7) 0.086(9) 0.011(6) 0.027(6) 0.019(5)
C47 0.077(8) 0.102(13) 0.144(17) -0.042(13) 0.026(9) 0.009(8)
C48 0.073(10) 0.126(17) 0.17(2) -0.049(17) 0.046(11) 0.019(10)
C49 0.059(8) 0.076(10) 0.123(12) 0.010(8) 0.022(8) 0.009(7)
C50 0.061(10) 0.061(9) 0.059(10) 0.016(8) 0.013(8) 0.008(8)
C51 0.047(8) 0.080(11) 0.058(10) -0.001(9) 0.004(7) 0.003(7)
C52 0.065(9) 0.060(9) 0.068(11) -0.013(8) -0.008(8) 0.016(8)
C53 0.092(12) 0.071(10) 0.061(11) -0.029(9) -0.003(8) 0.042(9)
C54 0.091(12) 0.094(12) 0.062(11) 0.001(10) -0.006(9) 0.052(11)
C55 0.084(12) 0.070(10) 0.070(12) 0.002(9) 0.011(9) 0.007(9)
C56 0.072(10) 0.071(10) 0.067(10) 0.008(9) -0.001(8) 0.010(8)
C57 0.084(10) 0.056(9) 0.051(9) 0.016(7) 0.024(8) 0.019(8)
C58 0.071(7) 0.056(8) 0.083(8) -0.018(6) 0.000(6) 0.002(6)
C59 0.082(8) 0.054(8) 0.086(9) -0.007(7) -0.010(6) -0.002(6)
C60 0.102(8) 0.088(11) 0.106(12) -0.011(9) -0.024(7) 0.022(7)
C61 0.088(9) 0.090(11) 0.120(11) -0.043(8) -0.019(7) 0.009(8)
C62 0.060(7) 0.101(12) 0.123(12) -0.024(9) 0.000(7) 0.020(7)
C63 0.071(7) 0.064(9) 0.102(10) -0.007(7) 0.011(6) 0.006(6)
C64 0.082(13) 0.18(2) 0.157(17) 0.067(18) 0.019(12) 0.007(13)
C65 0.104(11) 0.128(17) 0.116(16) 0.041(14) 0.009(10) 0.017(10)
C66 0.121(14) 0.20(3) 0.20(3) -0.01(2) -0.058(15) 0.017(15)
C67 0.070(10) 0.062(10) 0.073(12) -0.010(9) -0.012(8) 0.032(8)
C68 0.094(11) 0.039(7) 0.088(13) -0.015(8) -0.013(10) 0.029(7)
C69 0.133(16) 0.086(12) 0.067(11) 0.014(10) 0.009(11) 0.044(12)
C70 0.079(12) 0.102(14) 0.073(12) 0.000(10) -0.016(9) 0.030(10)
C71 0.124(18) 0.065(11) 0.088(15) -0.022(11) -0.030(12) 0.016(11)
C72 0.22(3) 0.094(15) 0.082(16) 0.025(14) -0.057(18) -0.057(18)
C73 0.124(17) 0.064(11) 0.097(16) 0.011(10) 0.007(13) 0.025(11)
C74 0.118(17) 0.107(15) 0.12(2) -0.002(14) -0.033(14) 0.021(13)
C75 0.21(4) 0.12(2) 0.10(2) -0.028(17) -0.05(2) 0.00(2)
C76 0.086(11) 0.076(10) 0.058(11) -0.011(9) -0.005(8) 0.030(9)
C77 0.130(17) 0.092(13) 0.090(14) -0.010(12) -0.013(12) 0.085(13)
C78 0.125(16) 0.083(12) 0.064(11) -0.005(10) 0.000(10) 0.054(11)
C79 0.082(11) 0.064(10) 0.064(11) 0.003(8) 0.017(8) 0.015(8)
C80 0.057(9) 0.051(8) 0.088(13) -0.007(9) 0.017(7) 0.017(7)
C81 0.094(13) 0.074(10) 0.063(11) -0.021(9) 0.015(9) -0.001(10)
C82 0.065(9) 0.052(8) 0.063(10) -0.005(7) 0.015(7) 0.014(7)
C83 0.057(9) 0.080(12) 0.100(15) 0.008(10) -0.009(9) 0.001(8)
C84 0.057(11) 0.18(3) 0.118(18) 0.071(18) -0.014(11) 0.004(13)
C85 0.085(13) 0.119(18) 0.067(12) -0.007(12) -0.005(9) -0.003(12)
C86 0.075(11) 0.093(13) 0.074(12) 0.009(10) 0.007(8) -0.002(9)
C87 0.082(12) 0.069(11) 0.093(14) 0.008(10) 0.014(9) 0.029(8)
C88 0.061(10) 0.087(13) 0.119(17) -0.014(12) 0.007(9) -0.011(8)
C89 0.092(11) 0.068(10) 0.061(10) 0.003(8) -0.003(8) -0.010(8)
C90 0.067(11) 0.110(14) 0.086(14) -0.018(11) 0.006(9) 0.014(10)
C91 0.164(14) 0.146(12) 0.085(9) -0.034(9) -0.030(9) 0.114(10)
C92 0.178(15) 0.159(13) 0.084(8) -0.036(9) -0.027(9) 0.094(11)
C93 0.202(17) 0.175(14) 0.089(10) -0.032(10) -0.040(10) 0.081(13)
C94 0.220(14) 0.184(12) 0.105(9) -0.031(9) -0.043(9) 0.067(11)
C95 0.220(14) 0.184(12) 0.105(9) -0.031(9) -0.043(9) 0.067(11)
C96 0.220(14) 0.184(12) 0.105(9) -0.031(9) -0.043(9) 0.067(11)
C97 0.160(15) 0.158(13) 0.089(14) -0.034(10) -0.022(10) 0.100(11)
C98 0.24(3) 0.180(19) 0.116(13) -0.029(13) -0.041(14) 0.063(18)
C99 0.24(3) 0.19(2) 0.123(14) -0.054(14) -0.072(16) 0.117(18)
C100 0.072(10) 0.085(11) 0.038(8) 0.008(8) 0.002(7) 0.019(9)
Cu1G 0.041 0.0394 0.048 -0.0012 0.0017 -0.0007
Cu1K 0.041 0.0394 0.048 -0.0012 0.0017 -0.0007
C1O 0.053 0.05 0.051 0.01 -0.004 -0.012
C100C 0.072 0.085 0.038 0.008 -0.002 -0.019
P1 0.089(6) 0.105(8) 0.101(8) -0.002(7) 0.014(5) -0.014(6)
F1 0.13(2) 0.21(3) 0.13(2) -0.09(2) 0.062(17) -0.06(2)
F2 0.17(2) 0.15(2) 0.095(18) -0.023(16) 0.009(17) -0.064(19)
F3 0.16(3) 0.18(3) 0.11(2) 0.04(2) 0.028(17) 0.04(2)
F4 0.086(12) 0.075(12) 0.095(14) 0.029(11) 0.029(10) 0.014(9)
F5 0.138(18) 0.063(10) 0.098(16) 0.006(10) 0.029(13) 0.001(11)
F6 0.18(3) 0.086(15) 0.18(3) 0.039(18) 0.05(2) -0.014(17)
P2 0.094(8) 0.210(14) 0.183(13) 0.047(10) -0.019(8) 0.037(8)
F7 0.089(11) 0.211(17) 0.136(17) 0.033(13) -0.022(11) 0.032(10)
F8 0.106(13) 0.213(18) 0.188(18) 0.033(14) -0.029(12) 0.038(12)
F9 0.133(18) 0.21(2) 0.192(16) 0.047(14) -0.025(12) 0.031(14)
F10 0.131(14) 0.202(17) 0.21(2) 0.047(15) -0.024(13) 0.014(12)
F11 0.087(13) 0.190(18) 0.179(15) 0.047(13) -0.039(11) 0.008(12)
F12 0.122(14) 0.211(18) 0.204(19) 0.053(14) -0.007(13) 0.045(12)
O1 0.114(11) 0.153(14) 0.153(15) -0.023(12) 0.003(8) -0.001(9)
C101 0.121(14) 0.21(3) 0.23(3) -0.09(2) -0.012(13) -0.018(13)
C102 0.120(12) 0.107(13) 0.127(14) 0.047(10) -0.009(10) -0.036(10)
C103 0.102(11) 0.16(2) 0.157(18) -0.038(16) -0.024(10) 0.018(12)
C104 0.110(11) 0.133(18) 0.148(16) -0.022(13) -0.019(10) 0.026(11)
O2 0.47(5) 0.22(2) 0.20(2) -0.017(19) -0.13(3) 0.02(3)
C105 0.35(5) 0.19(2) 0.15(3) 0.022(19) -0.11(3) -0.01(3)
C106 0.32(4) 0.18(2) 0.14(2) 0.025(17) -0.09(3) 0.01(2)
C107 0.34(4) 0.161(19) 0.16(3) 0.006(18) -0.11(3) 0.01(2)
C108 0.31(5) 0.150(18) 0.18(3) 0.001(17) -0.09(3) 0.01(2)
C109 0.185(19) 0.28(4) 0.091(15) -0.001(17) 0.011(12) 0.04(2)
C110 0.135(13) 0.45(6) 0.110(16) 0.05(2) 0.021(11) 0.08(2)
O3 0.106(10) 0.159(14) 0.110(10) -0.003(9) 0.003(6) -0.033(9)
C111 0.127(13) 0.124(16) 0.122(13) -0.030(11) 0.007(10) -0.039(11)
C112 0.162(18) 0.18(2) 0.114(13) -0.016(13) 0.027(11) -0.029(16)
loop_
_geom_bond_atom_site_label_1
_geom_bond_atom_site_label_2
_geom_bond_site_symmetry_1
_geom_bond_site_symmetry_2
Cu1 C50 1_555 1_555
N1 C1 1_555 1_555
N2 C29 1_555 1_555
N3 C51 1_555 1_555
N4 C79 1_555 1_555
C1 Cu1K 1_555 1_555
C2 N1 1_555 1_555
C3 C2 1_555 1_555
C4 C3 1_555 1_555
H1 C4 1_555 1_555
C5 C4 1_555 1_555
C6 C5 1_555 1_555
H2 C6 1_555 1_555
C7 C2 1_555 1_555
C8 C7 1_555 1_555
C9 C8 1_555 1_555
C10 C9 1_555 1_555
H3 C10 1_555 1_555
C11 C10 1_555 1_555
C12 C11 1_555 1_555
H4 C12 1_555 1_555
C13 C8 1_555 1_555
C14 C13 1_555 1_555
H5 C14 1_555 1_555
H6 C14 1_555 1_555
H7 C14 1_555 1_555
C15 C9 1_555 1_555
H8 C15 1_555 1_555
H9 C15 1_555 1_555
H10 C15 1_555 1_555
C16 C11 1_555 1_555
H11 C16 1_555 1_555
H12 C16 1_555 1_555
H13 C16 1_555 1_555
C17 C3 1_555 1_555
C18 C17 1_555 1_555
C19 C18 1_555 1_555
H14 C19 1_555 1_555
C20 C19 1_555 1_555
C21 C20 1_555 1_555
H15 C21 1_555 1_555
C22 C17 1_555 1_555
C23 C22 1_555 1_555
H16 C23 1_555 1_555
H17 C23 1_555 1_555
H18 C23 1_555 1_555
C24 C20 1_555 1_555
H19 C24 1_555 1_555
H20 C24 1_555 1_555
H21 C24 1_555 1_555
C25 C18 1_555 1_555
H22 C25 1_555 1_555
H23 C25 1_555 1_555
H24 C25 1_555 1_555
C26 C5 1_555 1_555
C27 C26 1_555 1_555
H25 C27 1_555 1_555
C28 C27 1_555 1_555
C29 C28 1_555 1_555
C30 C29 1_555 1_555
C31 C26 1_555 1_555
C32 C30 1_555 1_555
C33 C32 1_555 1_555
C34 C33 1_555 1_555
H26 C34 1_555 1_555
C35 C34 1_555 1_555
C36 C35 1_555 1_555
H27 C36 1_555 1_555
C37 C32 1_555 1_555
C38 C37 1_555 1_555
H28 C38 1_555 1_555
H29 C38 1_555 1_555
H30 C38 1_555 1_555
C39 C33 1_555 1_555
H31 C39 1_555 1_555
H32 C39 1_555 1_555
H33 C39 1_555 1_555
C40 C35 1_555 1_555
H34 C40 1_555 1_555
H35 C40 1_555 1_555
H36 C40 1_555 1_555
C41 C42 1_555 1_555
C42 H37 1_555 1_555
C43 C42 1_555 1_555
C44 C43 1_555 1_555
H38 C44 1_555 1_555
C45 C44 1_555 1_555
C46 C28 1_555 1_555
C47 C41 1_555 1_555
H39 C47 1_555 1_555
H40 C47 1_555 1_555
H41 C47 1_555 1_555
C48 C43 1_555 1_555
H42 C48 1_555 1_555
H43 C48 1_555 1_555
H44 C48 1_555 1_555
C49 C45 1_555 1_555
H45 C49 1_555 1_555
H46 C49 1_555 1_555
H47 C49 1_555 1_555
C50 N2 1_555 1_555
C51 Cu1 1_555 1_555
C52 N3 1_555 1_555
C53 C52 1_555 1_555
C54 C53 1_555 1_555
H48 C54 1_555 1_555
C55 C54 1_555 1_555
C56 C55 1_555 1_555
H49 C56 1_555 1_555
C57 C52 1_555 1_555
C58 C57 1_555 1_555
C59 C58 1_555 1_555
C60 C59 1_555 1_555
H50 C60 1_555 1_555
C61 C60 1_555 1_555
C62 C61 1_555 1_555
H51 C62 1_555 1_555
C63 C58 1_555 1_555
C64 C63 1_555 1_555
H52 C64 1_555 1_555
H53 C64 1_555 1_555
H54 C64 1_555 1_555
C65 C59 1_555 1_555
H55 C65 1_555 1_555
H56 C65 1_555 1_555
H57 C65 1_555 1_555
C66 C61 1_555 1_555
H58 C66 1_555 1_555
H59 C66 1_555 1_555
H60 C66 1_555 1_555
C67 C53 1_555 1_555
C68 C67 1_555 1_555
C69 C68 1_555 1_555
H61 C69 1_555 1_555
H62 C69 1_555 1_555
H63 C69 1_555 1_555
C70 C68 1_555 1_555
H64 C70 1_555 1_555
C71 C70 1_555 1_555
C72 C71 1_555 1_555
H65 C72 1_555 1_555
C73 C67 1_555 1_555
C74 C73 1_555 1_555
H66 C74 1_555 1_555
H67 C74 1_555 1_555
H68 C74 1_555 1_555
C75 C71 1_555 1_555
H69 C75 1_555 1_555
H70 C75 1_555 1_555
H71 C75 1_555 1_555
C76 C55 1_555 1_555
C77 C76 1_555 1_555
H72 C77 1_555 1_555
C78 C77 1_555 1_555
C79 C78 1_555 1_555
C80 C79 1_555 1_555
C81 C76 1_555 1_555
H73 C81 1_555 1_555
C82 C80 1_555 1_555
C83 C82 1_555 1_555
C84 C83 1_555 1_555
H74 C84 1_555 1_555
C85 C84 1_555 1_555
C86 C85 1_555 1_555
H75 C86 1_555 1_555
C87 C82 1_555 1_555
C88 C87 1_555 1_555
H76 C88 1_555 1_555
H77 C88 1_555 1_555
H78 C88 1_555 1_555
C89 C83 1_555 1_555
H79 C89 1_555 1_555
H80 C89 1_555 1_555
H81 C89 1_555 1_555
C90 C85 1_555 1_555
H82 C90 1_555 1_555
H83 C90 1_555 1_555
H84 C90 1_555 1_555
C91 C78 1_555 1_555
C92 C91 1_555 1_555
C93 C92 1_555 1_555
H85 C93 1_555 1_555
C94 C93 1_555 1_555
C95 C94 1_555 1_555
H86 C95 1_555 1_555
C96 C91 1_555 1_555
C97 C92 1_555 1_555
H87 C97 1_555 1_555
H88 C97 1_555 1_555
H89 C97 1_555 1_555
C98 C96 1_555 1_555
H90 C98 1_555 1_555
H91 C98 1_555 1_555
H92 C98 1_555 1_555
C99 C94 1_555 1_555
H93 C99 1_555 1_555
H94 C99 1_555 1_555
H95 C99 1_555 1_555
C100 N4 1_555 1_555
P1 F1 1_555 1_555
F2 P1 1_555 1_555
F3 P1 1_555 1_555
F4 P1 1_555 1_555
F5 P1 1_555 1_555
F6 P1 1_555 1_555
P2 F7 1_555 1_555
F8 P2 1_555 1_555
F9 P2 1_555 1_555
F10 P2 1_555 1_555
F11 P2 1_555 1_555
F12 P2 1_555 1_555
O1 C101 1_555 1_555
C101 H96 1_555 1_555
H97 C101 1_555 1_555
C102 C101 1_555 1_555
H98 C102 1_555 1_555
H99 C102 1_555 1_555
C103 C102 1_555 1_555
H100 C103 1_555 1_555
H101 C103 1_555 1_555
C104 O1 1_555 1_555
H102 C104 1_555 1_555
H103 C104 1_555 1_555
O2 C105 1_555 1_555
C105 H104 1_555 1_555
H105 C105 1_555 1_555
C106 C105 1_555 1_555
H106 C106 1_555 1_555
H107 C106 1_555 1_555
C107 C106 1_555 1_555
H108 C107 1_555 1_555
H109 C107 1_555 1_555
C108 O2 1_555 1_555
H110 C108 1_555 1_555
H111 C108 1_555 1_555
C109 H112 1_555 1_555
H113 C109 1_555 1_555
C110 C109 1_555 1_555
H114 C110 1_555 1_555
H115 C110 1_555 1_555
O3 C110 1_555 1_555
C111 O3 1_555 1_555
H116 C111 1_555 1_555
H117 C111 1_555 1_555
C112 C109 1_555 1_555
H118 C112 1_555 1_555
H119 C112 1_555 1_555
Cu1G C100 1_555 1_555
C1O Cu1 1_555 1_555
C100C Cu1 1_555 1_555
C6 C7 1_555 1_555
C12 C13 1_555 1_555
C21 C22 1_555 1_555
C30 C31 1_555 1_555
C36 C37 1_555 1_555
C41 C46 1_555 1_555
C45 C46 1_555 1_555
C56 C57 1_555 1_555
C62 C63 1_555 1_555
C72 C73 1_555 1_555
C80 C81 1_555 1_555
C86 C87 1_555 1_555
C95 C96 1_555 1_555
C103 C104 1_555 1_555
C107 C108 1_555 1_555
C111 C112 1_555 1_555

#END
