
#######################################################################
#
#                 Cambridge Crystallographic Data Centre
#                                CCDC 
#
#######################################################################
#
# If this CIF has been generated from an entry in the Cambridge 
# Structural Database, then it will include bibliographic, chemical, 
# crystal, experimental, refinement or atomic coordinate data resulting 
# from the CCDC's data processing and validation procedures.
#
#######################################################################

data_BUVXOG
_chemical_formula_moiety         '(C24 H22 Fe1 N10 O3)n'
_symmetry_cell_setting           rhombohedral
_symmetry_space_group_name_H-M   'R -3'
_symmetry_Int_Tables_number      148
_space_group_name_Hall           '-R 3'
loop_
_symmetry_equiv_pos_site_id
_symmetry_equiv_pos_as_xyz
1 x,y,z
2 -y,x-y,z
3 -x+y,-x,z
4 2/3+x,1/3+y,1/3+z
5 2/3-y,1/3+x-y,1/3+z
6 2/3-x+y,1/3-x,1/3+z
7 1/3+x,2/3+y,2/3+z
8 1/3-y,2/3+x-y,2/3+z
9 1/3-x+y,2/3-x,2/3+z
10 -x,-y,-z
11 y,-x+y,-z
12 x-y,x,-z
13 1/3-x,2/3-y,2/3-z
14 1/3+y,2/3-x+y,2/3-z
15 1/3+x-y,2/3+x,2/3-z
16 2/3-x,1/3-y,1/3-z
17 2/3+y,1/3-x+y,1/3-z
18 2/3+x-y,1/3+x,1/3-z
_cell_length_a                   27.608(4)
_cell_length_b                   27.608(4)
_cell_length_c                   8.937(3)
_cell_angle_alpha                90
_cell_angle_beta                 90
_cell_angle_gamma                120
_cell_volume                     5899.19
loop_
_atom_site_label
_atom_site_type_symbol
_atom_site_fract_x
_atom_site_fract_y
_atom_site_fract_z
_atom_site_U_iso_or_equiv
_atom_site_thermal_displace_type
Fe1 Fe 1.0000 0.5000 0.0000 0.0307 Uani
N1 N 0.9834(2) 0.5253(2) 0.1850(6) 0.0313 Uani
N2 N 0.9422(2) 0.5343(2) 0.2382(6) 0.0326 Uani
N3 N 1.0121(2) 0.5678(2) 0.4074(6) 0.0380 Uani
N4 N 1.0674(2) 0.5151(2) 0.1207(6) 0.0326 Uani
N5 N 0.8727(2) 0.6278(2) 0.5923(6) 0.0343 Uani
C1 C 1.0239(3) 0.5456(3) 0.2884(7) 0.0306 Uani
C2 C 0.9618(3) 0.5601(3) 0.3686(7) 0.0307 Uani
C3 C 1.0710(3) 0.5382(3) 0.2585(8) 0.0344 Uani
C4 C 1.1144(3) 0.5512(3) 0.3548(8) 0.0438 Uani
H1 H 1.1155 0.5675 0.4493 0.0530 Uiso
C5 C 1.1566(3) 0.5406(3) 0.3144(9) 0.0477 Uani
H2 H 1.1871 0.5496 0.3797 0.0570 Uiso
C6 C 1.1532(3) 0.5166(3) 0.1773(9) 0.0488 Uani
H3 H 1.1813 0.5084 0.1469 0.0580 Uiso
C7 C 1.1087(3) 0.5044(3) 0.0837(8) 0.0411 Uani
H4 H 1.1069 0.4878 -0.0106 0.0490 Uiso
C8 C 0.9304(3) 0.5800(3) 0.4536(7) 0.0307 Uani
C9 C 0.9549(3) 0.6204(3) 0.5646(7) 0.0368 Uani
H5 H 0.9920 0.6323 0.5960 0.0440 Uiso
C10 C 0.9259(3) 0.6427(3) 0.6282(8) 0.0391 Uani
H6 H 0.9441 0.6705 0.7028 0.0470 Uiso
C11 C 0.8482(3) 0.5863(3) 0.4903(7) 0.0306 Uani
H7 H 0.8100 0.5727 0.4668 0.0370 Uiso
C12 C 0.8750(3) 0.5629(3) 0.4193(8) 0.0361 Uani
H8 H 0.8558 0.5347 0.3461 0.0430 Uiso
Fe1E Fe 1.1667 0.3333 -0.6667 0.0307 Uani
Fe1H Fe 0.8333 0.6667 0.6667 0.0307 Uani
N1I N 1.0166(2) 0.4747(2) -0.1850(6) 0.0313 Uani
N2I N 1.0578(2) 0.4657(2) -0.2382(6) 0.0326 Uani
N3I N 0.9879(2) 0.4322(2) -0.4074(6) 0.0380 Uani
N4I N 0.9326(2) 0.4849(2) -0.1207(6) 0.0326 Uani
N5I N 1.1273(2) 0.3722(2) -0.5923(6) 0.0343 Uani
N5D N 1.0389(2) 0.5782(3) -0.0744(6) 0.0343 Uani
N5M N 0.9611(2) 0.4218(3) 0.0744(6) 0.0343 Uani
C1I C 0.9761(3) 0.4544(3) -0.2884(7) 0.0306 Uani
C2I C 1.0382(3) 0.4399(3) -0.3686(7) 0.0307 Uani
C3I C 0.9290(3) 0.4618(3) -0.2585(8) 0.0344 Uani
C4I C 0.8856(3) 0.4488(3) -0.3548(8) 0.0438 Uani
H1I H 0.8845 0.4325 -0.4493 0.0530 Uiso
C5I C 0.8434(3) 0.4594(3) -0.3144(9) 0.0477 Uani
H2I H 0.8129 0.4504 -0.3797 0.0570 Uiso
C6I C 0.8468(3) 0.4834(3) -0.1773(9) 0.0488 Uani
H3I H 0.8187 0.4916 -0.1469 0.0580 Uiso
C7I C 0.8913(3) 0.4956(3) -0.0837(8) 0.0411 Uani
H4I H 0.8931 0.5122 0.0106 0.0490 Uiso
C8I C 1.0696(3) 0.4200(3) -0.4536(7) 0.0307 Uani
C9I C 1.0451(3) 0.3796(3) -0.5646(7) 0.0368 Uani
H5I H 1.0080 0.3677 -0.5960 0.0440 Uiso
C10I C 1.0741(3) 0.3573(3) -0.6282(8) 0.0391 Uani
H6I H 1.0559 0.3295 -0.7028 0.0470 Uiso
C11I C 1.1518(3) 0.4137(3) -0.4903(7) 0.0306 Uani
H7I H 1.1900 0.4273 -0.4668 0.0370 Uiso
C12I C 1.1250(3) 0.4371(3) -0.4193(8) 0.0361 Uani
H8I H 1.1442 0.4653 -0.3461 0.0430 Uiso
O1 O 1.2635(13) 0.7056(13) 0.598(3) 0.2530 Uiso
O2 O 1.347(2) 0.7118(14) -0.018(4) 0.3400 Uiso
O3 O 1.3333 0.6667 0.1667 0.3000 Uiso
loop_
_atom_site_aniso_label
_atom_site_aniso_U_11
_atom_site_aniso_U_22
_atom_site_aniso_U_33
_atom_site_aniso_U_23
_atom_site_aniso_U_13
_atom_site_aniso_U_12
Fe1 0.0362(9) 0.0280(8) 0.0323(8) 0.0074(6) 0.0124(6) 0.0194(7)
N1 0.033(3) 0.028(3) 0.038(3) 0.008(3) 0.010(3) 0.019(3)
N2 0.039(3) 0.031(3) 0.035(3) 0.006(2) 0.014(3) 0.023(3)
N3 0.044(4) 0.036(3) 0.038(3) -0.003(3) 0.008(3) 0.023(3)
N4 0.039(3) 0.032(3) 0.031(3) 0.009(2) 0.018(3) 0.021(3)
N5 0.028(3) 0.037(3) 0.031(3) -0.009(2) -0.002(2) 0.011(3)
C1 0.031(4) 0.035(4) 0.033(4) 0.003(3) 0.009(3) 0.022(3)
C2 0.029(4) 0.030(4) 0.032(4) -0.001(3) 0.011(3) 0.014(3)
C3 0.037(4) 0.029(4) 0.038(4) 0.004(3) 0.005(3) 0.017(3)
C4 0.049(5) 0.042(4) 0.046(5) 0.001(4) 0.008(4) 0.027(4)
C5 0.038(4) 0.056(5) 0.055(5) 0.000(4) 0.002(4) 0.028(4)
C6 0.040(4) 0.064(5) 0.053(5) 0.001(4) 0.004(4) 0.034(4)
C7 0.049(5) 0.045(4) 0.042(4) 0.003(3) 0.017(4) 0.033(4)
C8 0.033(4) 0.032(4) 0.032(4) 0.001(3) 0.007(3) 0.020(3)
C9 0.030(4) 0.045(4) 0.041(4) -0.010(3) 0.001(3) 0.023(3)
C10 0.028(4) 0.048(4) 0.040(4) -0.019(3) -0.008(3) 0.018(3)
C11 0.025(3) 0.029(4) 0.033(4) -0.011(3) -0.002(3) 0.010(3)
C12 0.037(4) 0.033(4) 0.039(4) -0.009(3) -0.002(3) 0.018(3)
Fe1E 0.0254 0.0362 0.0323 -0.0124 -0.005 0.0168
Fe1H 0.0254 0.0362 0.0323 -0.0124 -0.005 0.0168
N1I 0.033 0.028 0.038 0.008 0.01 0.019
N2I 0.039 0.031 0.035 0.006 0.014 0.023
N3I 0.044 0.036 0.038 -0.003 0.008 0.023
N4I 0.039 0.032 0.031 0.009 0.018 0.021
N5I 0.028 0.037 0.031 -0.009 -0.002 0.011
N5D 0.037 0.043 0.031 0.007 0.009 0.026
N5M 0.037 0.043 0.031 0.007 0.009 0.026
C1I 0.031 0.035 0.033 0.003 0.009 0.022
C2I 0.029 0.03 0.032 -0.001 0.011 0.014
C3I 0.037 0.029 0.038 0.004 0.005 0.017
C4I 0.049 0.042 0.046 0.001 0.008 0.027
C5I 0.038 0.056 0.055 0 0.002 0.028
C6I 0.04 0.064 0.053 0.001 0.004 0.034
C7I 0.049 0.045 0.042 0.003 0.017 0.033
C8I 0.033 0.032 0.032 0.001 0.007 0.02
C9I 0.03 0.045 0.041 -0.01 0.001 0.023
C10I 0.028 0.048 0.04 -0.019 -0.008 0.018
C11I 0.025 0.029 0.033 -0.011 -0.002 0.01
C12I 0.037 0.033 0.039 -0.009 -0.002 0.018
loop_
_geom_bond_atom_site_label_1
_geom_bond_atom_site_label_2
_geom_bond_site_symmetry_1
_geom_bond_site_symmetry_2
Fe1 N1 1_555 1_555
N1 N2 1_555 1_555
N2 C2 1_555 1_555
N3 C1 1_555 1_555
N4 Fe1 1_555 1_555
N5 C10 1_555 1_555
C1 N1 1_555 1_555
C2 N3 1_555 1_555
C3 N4 1_555 1_555
C4 C3 1_555 1_555
H1 C4 1_555 1_555
C5 C4 1_555 1_555
H2 C5 1_555 1_555
C6 C5 1_555 1_555
H3 C6 1_555 1_555
C7 N4 1_555 1_555
H4 C7 1_555 1_555
C8 C2 1_555 1_555
C9 C8 1_555 1_555
H5 C9 1_555 1_555
C10 C9 1_555 1_555
H6 C10 1_555 1_555
C11 N5 1_555 1_555
H7 C11 1_555 1_555
C12 C8 1_555 1_555
H8 C12 1_555 1_555
Fe1E N5I 1_555 1_555
Fe1H N5 1_555 1_555
N1I Fe1 1_555 1_555
N2I N1I 1_555 1_555
N3I C1I 1_555 1_555
N4I Fe1 1_555 1_555
N5I C10I 1_555 1_555
N5D Fe1 1_555 1_555
N5M Fe1 1_555 1_555
C1I N1I 1_555 1_555
C2I N2I 1_555 1_555
C3I N4I 1_555 1_555
C4I C3I 1_555 1_555
H1I C4I 1_555 1_555
C5I C4I 1_555 1_555
H2I C5I 1_555 1_555
C6I C5I 1_555 1_555
H3I C6I 1_555 1_555
C7I N4I 1_555 1_555
H4I C7I 1_555 1_555
C8I C2I 1_555 1_555
C9I C8I 1_555 1_555
H5I C9I 1_555 1_555
C10I C9I 1_555 1_555
H6I C10I 1_555 1_555
C11I N5I 1_555 1_555
H7I C11I 1_555 1_555
C12I C8I 1_555 1_555
H8I C12I 1_555 1_555
C1 C3 1_555 1_555
C6 C7 1_555 1_555
C11 C12 1_555 1_555
N3I C2I 1_555 1_555
C1I C3I 1_555 1_555
C6I C7I 1_555 1_555
C11I C12I 1_555 1_555

#END
