
#######################################################################
#
#                 Cambridge Crystallographic Data Centre
#                                CCDC 
#
#######################################################################
#
# If this CIF has been generated from an entry in the Cambridge 
# Structural Database, then it will include bibliographic, chemical, 
# crystal, experimental, refinement or atomic coordinate data resulting 
# from the CCDC's data processing and validation procedures.
#
#######################################################################

data_BUVXOG01
_chemical_formula_moiety         '(C24 H16 Fe1 N10)n'
_symmetry_cell_setting           rhombohedral
_symmetry_space_group_name_H-M   'R -3'
_symmetry_Int_Tables_number      148
_space_group_name_Hall           '-R 3'
loop_
_symmetry_equiv_pos_site_id
_symmetry_equiv_pos_as_xyz
1 x,y,z
2 -y,x-y,z
3 -x+y,-x,z
4 2/3+x,1/3+y,1/3+z
5 2/3-y,1/3+x-y,1/3+z
6 2/3-x+y,1/3-x,1/3+z
7 1/3+x,2/3+y,2/3+z
8 1/3-y,2/3+x-y,2/3+z
9 1/3-x+y,2/3-x,2/3+z
10 -x,-y,-z
11 y,-x+y,-z
12 x-y,x,-z
13 1/3-x,2/3-y,2/3-z
14 1/3+y,2/3-x+y,2/3-z
15 1/3+x-y,2/3+x,2/3-z
16 2/3-x,1/3-y,1/3-z
17 2/3+y,1/3-x+y,1/3-z
18 2/3+x-y,1/3+x,1/3-z
_cell_length_a                   27.787(4)
_cell_length_b                   27.787(4)
_cell_length_c                   9.1222(14)
_cell_angle_alpha                90
_cell_angle_beta                 90
_cell_angle_gamma                120
_cell_volume                     6099.77
loop_
_atom_site_label
_atom_site_type_symbol
_atom_site_fract_x
_atom_site_fract_y
_atom_site_fract_z
_atom_site_U_iso_or_equiv
_atom_site_thermal_displace_type
Fe1 Fe 0.5000 1.0000 0.0000 0.0468 Uani
N1 N 0.47294(13) 1.01662(14) 0.1809(3) 0.0486 Uani
N2 N 0.46390(14) 1.05753(14) 0.2306(3) 0.0516 Uani
N3 N 0.43144(16) 0.98812(16) 0.4002(4) 0.0595 Uani
N4 N 0.48466(14) 0.93281(15) 0.1198(3) 0.0520 Uani
N5 N 0.37266(14) 1.12752(14) 0.5877(3) 0.0492 Uani
C1 C 0.45395(18) 0.97677(18) 0.2828(4) 0.0526 Uani
C2 C 0.43840(17) 1.03843(17) 0.3613(4) 0.0504 Uani
C3 C 0.46152(18) 0.92962(18) 0.2556(4) 0.0534 Uani
C4 C 0.4495(2) 0.8875(2) 0.3535(5) 0.0674 Uani
H1 H 0.4341 0.8869 0.4444 0.0810 Uiso
C5 C 0.4608(2) 0.8456(2) 0.3144(6) 0.0777 Uani
H2 H 0.4527 0.8162 0.3777 0.0930 Uiso
C6 C 0.4846(3) 0.8490(2) 0.1778(6) 0.0796 Uani
H3 H 0.4930 0.8219 0.1494 0.0950 Uiso
C7 C 0.4957(2) 0.8922(2) 0.0845(5) 0.0644 Uani
H4 H 0.5114 0.8934 -0.0064 0.0780 Uiso
C8 C 0.41829(17) 1.06930(17) 0.4455(4) 0.0480 Uani
C9 C 0.3805(2) 1.04587(19) 0.5579(5) 0.0649 Uani
H5 H 0.3701 1.0102 0.5901 0.0780 Uiso
C10 C 0.3580(2) 1.07505(19) 0.6233(5) 0.0666 Uani
H6 H 0.3313 1.0574 0.6958 0.0800 Uiso
C11 C 0.41183(19) 1.15105(18) 0.4829(5) 0.0578 Uani
H7 H 0.4240 1.1879 0.4582 0.0690 Uiso
C12 C 0.4348(2) 1.12427(19) 0.4107(5) 0.0622 Uani
H8 H 0.4614 1.1427 0.3385 0.0740 Uiso
Fe1D Fe 0.6667 0.8333 -0.6667 0.0468 Uani
Fe1G Fe 0.3333 1.1667 0.6667 0.0468 Uani
N1I N 0.52706(13) 0.98338(14) -0.1809(3) 0.0486 Uani
N2I N 0.53610(14) 0.94247(14) -0.2306(3) 0.0516 Uani
N3I N 0.56856(16) 1.01188(16) -0.4002(4) 0.0595 Uani
N4I N 0.51534(14) 1.06719(15) -0.1198(3) 0.0520 Uani
N5I N 0.62734(14) 0.87248(14) -0.5877(3) 0.0492 Uani
N5E N 0.42153(20) 0.96067(14) -0.0790(3) 0.0492 Uani
N5N N 0.57847(20) 1.03933(14) 0.0790(3) 0.0492 Uani
C1I C 0.54605(18) 1.02323(18) -0.2828(4) 0.0526 Uani
C2I C 0.56160(17) 0.96157(17) -0.3613(4) 0.0504 Uani
C3I C 0.53848(18) 1.07038(18) -0.2556(4) 0.0534 Uani
C4I C 0.5505(2) 1.1125(2) -0.3535(5) 0.0674 Uani
H1I H 0.5659 1.1131 -0.4444 0.0810 Uiso
C5I C 0.5392(2) 1.1544(2) -0.3144(6) 0.0777 Uani
H2I H 0.5473 1.1838 -0.3777 0.0930 Uiso
C6I C 0.5154(3) 1.1510(2) -0.1778(6) 0.0796 Uani
H3I H 0.5070 1.1781 -0.1494 0.0950 Uiso
C7I C 0.5043(2) 1.1078(2) -0.0845(5) 0.0644 Uani
H4I H 0.4886 1.1066 0.0064 0.0780 Uiso
C8I C 0.58171(17) 0.93070(17) -0.4455(4) 0.0480 Uani
C9I C 0.6195(2) 0.95413(19) -0.5579(5) 0.0649 Uani
H5I H 0.6299 0.9898 -0.5901 0.0780 Uiso
C10I C 0.6420(2) 0.92495(19) -0.6233(5) 0.0666 Uani
H6I H 0.6687 0.9426 -0.6958 0.0800 Uiso
C11I C 0.58817(19) 0.84895(18) -0.4829(5) 0.0578 Uani
H7I H 0.5760 0.8121 -0.4582 0.0690 Uiso
C12I C 0.5652(2) 0.87573(19) -0.4107(5) 0.0622 Uani
H8I H 0.5386 0.8573 -0.3385 0.0740 Uiso
loop_
_atom_site_aniso_label
_atom_site_aniso_U_11
_atom_site_aniso_U_22
_atom_site_aniso_U_33
_atom_site_aniso_U_23
_atom_site_aniso_U_13
_atom_site_aniso_U_12
Fe1 0.0452(5) 0.0545(6) 0.0463(5) -0.0126(3) -0.0066(3) 0.0292(4)
N1 0.0463(18) 0.055(2) 0.0494(16) -0.0107(15) -0.0045(15) 0.0291(16)
N2 0.056(2) 0.057(2) 0.0501(16) -0.0107(15) -0.0025(15) 0.0344(17)
N3 0.067(2) 0.065(2) 0.0546(18) -0.0044(17) 0.0062(17) 0.039(2)
N4 0.051(2) 0.060(2) 0.0534(17) -0.0164(16) -0.0066(15) 0.0340(17)
N5 0.056(2) 0.0446(18) 0.0483(16) 0.0052(14) 0.0090(15) 0.0261(16)
C1 0.054(2) 0.054(2) 0.055(2) -0.0122(19) -0.0043(19) 0.031(2)
C2 0.053(2) 0.056(2) 0.0472(19) -0.0081(18) -0.0009(18) 0.031(2)
C3 0.055(2) 0.056(2) 0.055(2) -0.0092(19) -0.0058(19) 0.032(2)
C4 0.080(3) 0.073(3) 0.061(2) 0.000(2) 0.004(2) 0.047(3)
C5 0.095(4) 0.071(3) 0.077(3) 0.003(3) 0.003(3) 0.049(3)
C6 0.102(4) 0.078(4) 0.084(3) -0.003(3) 0.011(3) 0.064(3)
C7 0.081(3) 0.066(3) 0.064(2) -0.005(2) 0.002(2) 0.050(3)
C8 0.051(2) 0.051(2) 0.0473(19) -0.0031(17) 0.0009(17) 0.0295(19)
C9 0.080(3) 0.053(3) 0.068(2) 0.003(2) 0.019(2) 0.038(2)
C10 0.087(3) 0.056(3) 0.065(2) 0.008(2) 0.026(2) 0.042(3)
C11 0.062(3) 0.050(2) 0.064(2) 0.012(2) 0.020(2) 0.030(2)
C12 0.065(3) 0.064(3) 0.064(2) 0.012(2) 0.025(2) 0.037(2)
Fe1D 0.0545 0.0413 0.0463 0.006 0.0126 0.0253
Fe1G 0.0545 0.0413 0.0463 0.006 0.0126 0.0253
N1I 0.0463 0.055 0.0494 -0.0107 -0.0045 0.0291
N2I 0.056 0.057 0.0501 -0.0107 -0.0025 0.0344
N3I 0.067 0.065 0.0546 -0.0044 0.0062 0.039
N4I 0.051 0.06 0.0534 -0.0164 -0.0066 0.034
N5I 0.056 0.0446 0.0483 0.0052 0.009 0.0261
N5E 0.0484 0.056 0.0483 -0.009 -0.0038 0.0299
N5N 0.0484 0.056 0.0483 -0.009 -0.0038 0.0299
C1I 0.054 0.054 0.055 -0.0122 -0.0043 0.031
C2I 0.053 0.056 0.0472 -0.0081 -0.0009 0.031
C3I 0.055 0.056 0.055 -0.0092 -0.0058 0.032
C4I 0.08 0.073 0.061 0 0.004 0.047
C5I 0.095 0.071 0.077 0.003 0.003 0.049
C6I 0.102 0.078 0.084 -0.003 0.011 0.064
C7I 0.081 0.066 0.064 -0.005 0.002 0.05
C8I 0.051 0.051 0.0473 -0.0031 0.0009 0.0295
C9I 0.08 0.053 0.068 0.003 0.019 0.038
C10I 0.087 0.056 0.065 0.008 0.026 0.042
C11I 0.062 0.05 0.064 0.012 0.02 0.03
C12I 0.065 0.064 0.064 0.012 0.025 0.037
loop_
_geom_bond_atom_site_label_1
_geom_bond_atom_site_label_2
_geom_bond_site_symmetry_1
_geom_bond_site_symmetry_2
Fe1 N1 1_555 1_555
N1 N2 1_555 1_555
N2 C2 1_555 1_555
N3 C1 1_555 1_555
N4 Fe1 1_555 1_555
N5 C10 1_555 1_555
C1 N1 1_555 1_555
C2 N3 1_555 1_555
C3 N4 1_555 1_555
C4 C3 1_555 1_555
H1 C4 1_555 1_555
C5 C4 1_555 1_555
H2 C5 1_555 1_555
C6 C5 1_555 1_555
H3 C6 1_555 1_555
C7 N4 1_555 1_555
H4 C7 1_555 1_555
C8 C2 1_555 1_555
C9 C8 1_555 1_555
H5 C9 1_555 1_555
C10 C9 1_555 1_555
H6 C10 1_555 1_555
C11 N5 1_555 1_555
H7 C11 1_555 1_555
C12 C8 1_555 1_555
H8 C12 1_555 1_555
Fe1D N5I 1_555 1_555
Fe1G N5 1_555 1_555
N1I Fe1 1_555 1_555
N2I N1I 1_555 1_555
N3I C1I 1_555 1_555
N4I Fe1 1_555 1_555
N5I C10I 1_555 1_555
N5E Fe1 1_555 1_555
N5N Fe1 1_555 1_555
C1I N1I 1_555 1_555
C2I N2I 1_555 1_555
C3I N4I 1_555 1_555
C4I C3I 1_555 1_555
H1I C4I 1_555 1_555
C5I C4I 1_555 1_555
H2I C5I 1_555 1_555
C6I C5I 1_555 1_555
H3I C6I 1_555 1_555
C7I N4I 1_555 1_555
H4I C7I 1_555 1_555
C8I C2I 1_555 1_555
C9I C8I 1_555 1_555
H5I C9I 1_555 1_555
C10I C9I 1_555 1_555
H6I C10I 1_555 1_555
C11I N5I 1_555 1_555
H7I C11I 1_555 1_555
C12I C8I 1_555 1_555
H8I C12I 1_555 1_555
C1 C3 1_555 1_555
C6 C7 1_555 1_555
C11 C12 1_555 1_555
N3I C2I 1_555 1_555
C1I C3I 1_555 1_555
C6I C7I 1_555 1_555
C11I C12I 1_555 1_555

#END
