
#######################################################################
#
#                 Cambridge Crystallographic Data Centre
#                                CCDC 
#
#######################################################################
#
# If this CIF has been generated from an entry in the Cambridge 
# Structural Database, then it will include bibliographic, chemical, 
# crystal, experimental, refinement or atomic coordinate data resulting 
# from the CCDC's data processing and validation procedures.
#
#######################################################################

data_BUVYEX
_chemical_formula_moiety         '(C24 H20 Fe1 N10 O2)n'
_symmetry_cell_setting           rhombohedral
_symmetry_space_group_name_H-M   'R -3 c'
_symmetry_Int_Tables_number      167
_space_group_name_Hall           '-R 3 2"c'
loop_
_symmetry_equiv_pos_site_id
_symmetry_equiv_pos_as_xyz
1 x,y,z
2 -y,x-y,z
3 -x+y,-x,z
4 y,x,1/2-z
5 x-y,-y,1/2-z
6 -x,-x+y,1/2-z
7 2/3+x,1/3+y,1/3+z
8 2/3-y,1/3+x-y,1/3+z
9 2/3-x+y,1/3-x,1/3+z
10 2/3+y,1/3+x,5/6-z
11 2/3+x-y,1/3-y,5/6-z
12 2/3-x,1/3-x+y,5/6-z
13 1/3+x,2/3+y,2/3+z
14 1/3-y,2/3+x-y,2/3+z
15 1/3-x+y,2/3-x,2/3+z
16 1/3+y,2/3+x,1/6-z
17 1/3+x-y,2/3-y,1/6-z
18 1/3-x,2/3-x+y,1/6-z
19 -x,-y,-z
20 y,-x+y,-z
21 x-y,x,-z
22 -y,-x,1/2+z
23 -x+y,y,1/2+z
24 x,x-y,1/2+z
25 1/3-x,2/3-y,2/3-z
26 1/3+y,2/3-x+y,2/3-z
27 1/3+x-y,2/3+x,2/3-z
28 1/3-y,2/3-x,1/6+z
29 1/3-x+y,2/3+y,1/6+z
30 1/3+x,2/3+x-y,1/6+z
31 2/3-x,1/3-y,1/3-z
32 2/3+y,1/3-x+y,1/3-z
33 2/3+x-y,1/3+x,1/3-z
34 2/3-y,1/3-x,5/6+z
35 2/3-x+y,1/3+y,5/6+z
36 2/3+x,1/3+x-y,5/6+z
_cell_length_a                   29.710(6)
_cell_length_b                   29.710(6)
_cell_length_c                   16.145(7)
_cell_angle_alpha                90
_cell_angle_beta                 90
_cell_angle_gamma                120
_cell_volume                     12341.7
loop_
_atom_site_label
_atom_site_type_symbol
_atom_site_fract_x
_atom_site_fract_y
_atom_site_fract_z
_atom_site_U_iso_or_equiv
_atom_site_thermal_displace_type
Fe1 Fe 0.3333 0.1667 0.1667 0.0410 Uani
N1 N 0.2870(3) 0.0960(2) 0.1286(4) 0.0513 Uani
N2 N 0.2873(2) 0.0617(2) 0.0745(4) 0.0497 Uani
N3 N 0.2097(3) 0.0233(3) 0.1357(5) 0.0757 Uani
N4 N 0.2708(2) 0.1491(2) 0.2368(4) 0.0482 Uani
N5 N 0.1945(2) -0.1109(2) -0.0796(4) 0.0478 Uani
C1 C 0.2395(4) 0.0718(3) 0.1637(5) 0.0626 Uani
C2 C 0.2417(4) 0.0195(3) 0.0810(5) 0.0598 Uani
C3 C 0.2294(3) 0.1020(3) 0.2246(5) 0.0594 Uani
C4 C 0.1818(4) 0.0839(3) 0.2648(6) 0.0840 Uani
H1 H 0.1541 0.0507 0.2545 0.1000 Uiso
C5 C 0.1769(4) 0.1158(4) 0.3190(7) 0.0941 Uani
H2 H 0.1456 0.1054 0.3463 0.1130 Uiso
C6 C 0.2204(4) 0.1653(4) 0.3329(7) 0.0944 Uani
H3 H 0.2183 0.1881 0.3701 0.1130 Uiso
C7 C 0.2657(3) 0.1797(3) 0.2913(5) 0.0643 Uani
H4 H 0.2942 0.2124 0.3017 0.0770 Uiso
C8 C 0.2262(3) -0.0267(3) 0.0296(5) 0.0569 Uani
C9 C 0.2547(3) -0.0242(3) -0.0373(6) 0.0761 Uani
H5 H 0.2860 0.0060 -0.0476 0.0910 Uiso
C10 C 0.2376(3) -0.0657(3) -0.0901(6) 0.0760 Uani
H6 H 0.2578 -0.0619 -0.1365 0.0910 Uiso
C11 C 0.1688(3) -0.1133(3) -0.0111(6) 0.0787 Uani
H7 H 0.1385 -0.1444 0.0002 0.0940 Uiso
C12 C 0.1833(4) -0.0737(3) 0.0437(6) 0.0836 Uani
H8 H 0.1637 -0.0789 0.0914 0.1000 Uiso
Fe1M Fe 0.1666 -0.1667 -0.1666 0.0410 Uani
Fe1Y Fe 0.5000 0.5001 0.5000 0.0410 Uani
N1DA N 0.3797(3) 0.2373(2) 0.2047(4) 0.0513 Uani
N2DA N 0.3794(2) 0.2716(2) 0.2588(4) 0.0497 Uani
N3DA N 0.4570(3) 0.3100(3) 0.1976(5) 0.0757 Uani
N4DA N 0.3959(2) 0.1842(2) 0.0965(4) 0.0482 Uani
N5DA N 0.4722(2) 0.4442(2) 0.4129(4) 0.0478 Uani
N5H N 0.3613(3) 0.1388(2) 0.2537(4) 0.0478 Uani
N5T N 0.3054(3) 0.1945(2) 0.0796(4) 0.0478 Uani
C1DA C 0.4272(4) 0.2615(3) 0.1696(5) 0.0626 Uani
C2DA C 0.4250(4) 0.3138(3) 0.2523(5) 0.0598 Uani
C3DA C 0.4373(3) 0.2313(3) 0.1087(5) 0.0594 Uani
C4DA C 0.4849(4) 0.2494(3) 0.0685(6) 0.0840 Uani
H1DA H 0.5126 0.2826 0.0788 0.1000 Uiso
C5DA C 0.4898(4) 0.2175(4) 0.0143(7) 0.0941 Uani
H2DA H 0.5211 0.2279 -0.0130 0.1130 Uiso
C6DA C 0.4463(4) 0.1680(4) 0.0004(7) 0.0944 Uani
H3DA H 0.4484 0.1452 -0.0368 0.1130 Uiso
C7DA C 0.4010(3) 0.1536(3) 0.0420(5) 0.0643 Uani
H4DA H 0.3725 0.1209 0.0316 0.0770 Uiso
C8DA C 0.4405(3) 0.3600(3) 0.3037(5) 0.0569 Uani
C9DA C 0.4120(3) 0.3575(3) 0.3706(6) 0.0761 Uani
H5DA H 0.3807 0.3273 0.3809 0.0910 Uiso
C10DA C 0.4291(3) 0.3990(3) 0.4234(6) 0.0760 Uani
H6DA H 0.4089 0.3952 0.4698 0.0910 Uiso
C11DA C 0.4979(3) 0.4466(3) 0.3444(6) 0.0787 Uani
H7DA H 0.5282 0.4777 0.3331 0.0940 Uiso
C12DA C 0.4834(4) 0.4070(3) 0.2896(6) 0.0836 Uani
H8DA H 0.5030 0.4122 0.2419 0.1000 Uiso
O1 O 0.1092(13) 0.0192(12) 0.063(2) 0.2790 Uiso
O2 O 0.0485(12) 0.0189(15) 0.154(3) 0.3350 Uiso
loop_
_atom_site_aniso_label
_atom_site_aniso_U_11
_atom_site_aniso_U_22
_atom_site_aniso_U_33
_atom_site_aniso_U_23
_atom_site_aniso_U_13
_atom_site_aniso_U_12
Fe1 0.0587(10) 0.0384(9) 0.0352(7) -0.0079(7) -0.0124(6) 0.0312(8)
N1 0.075(5) 0.045(4) 0.042(4) -0.014(3) -0.017(3) 0.036(4)
N2 0.065(4) 0.036(3) 0.045(4) -0.010(3) -0.011(3) 0.023(3)
N3 0.087(6) 0.058(5) 0.063(5) -0.025(4) -0.002(4) 0.022(4)
N4 0.066(4) 0.046(4) 0.042(3) -0.009(3) -0.009(3) 0.035(3)
N5 0.042(4) 0.043(4) 0.042(3) -0.005(3) 0.007(3) 0.009(3)
C1 0.071(6) 0.061(6) 0.061(5) -0.024(5) -0.010(5) 0.037(5)
C2 0.086(7) 0.058(6) 0.042(4) -0.009(4) -0.006(5) 0.041(5)
C3 0.067(6) 0.064(6) 0.049(5) -0.009(4) -0.004(4) 0.034(5)
C4 0.077(7) 0.061(6) 0.092(7) -0.021(5) 0.009(6) 0.018(5)
C5 0.089(8) 0.094(8) 0.097(8) -0.019(7) 0.020(6) 0.044(7)
C6 0.115(9) 0.075(7) 0.098(8) -0.025(6) 0.012(7) 0.051(7)
C7 0.070(6) 0.055(5) 0.065(6) -0.012(5) 0.006(5) 0.029(5)
C8 0.073(6) 0.047(5) 0.040(4) -0.004(4) 0.000(4) 0.022(5)
C9 0.057(6) 0.056(6) 0.083(7) -0.019(5) 0.009(5) 0.004(5)
C10 0.060(6) 0.053(5) 0.076(6) -0.028(5) 0.020(5) -0.001(5)
C11 0.074(6) 0.059(6) 0.072(6) -0.024(5) 0.020(5) 0.010(5)
C12 0.086(7) 0.066(6) 0.064(6) -0.022(5) 0.024(5) 0.012(5)
Fe1M 0.0384 0.0347 0.0352 -0.0045 0.0079 0.0072
Fe1Y 0.0384 0.0347 0.0352 -0.0045 0.0079 0.0072
N1DA 0.075 0.045 0.042 -0.014 -0.017 0.036
N2DA 0.065 0.036 0.045 -0.01 -0.011 0.023
N3DA 0.087 0.058 0.063 -0.025 -0.002 0.022
N4DA 0.066 0.046 0.042 -0.009 -0.009 0.035
N5DA 0.042 0.043 0.042 -0.005 0.007 0.009
N5H 0.067 0.042 0.042 -0.007 -0.012 0.033
N5T 0.067 0.042 0.042 -0.007 -0.012 0.033
C1DA 0.071 0.061 0.061 -0.024 -0.01 0.037
C2DA 0.086 0.058 0.042 -0.009 -0.006 0.041
C3DA 0.067 0.064 0.049 -0.009 -0.004 0.034
C4DA 0.077 0.061 0.092 -0.021 0.009 0.018
C5DA 0.089 0.094 0.097 -0.019 0.02 0.044
C6DA 0.115 0.075 0.098 -0.025 0.012 0.051
C7DA 0.07 0.055 0.065 -0.012 0.006 0.029
C8DA 0.073 0.047 0.04 -0.004 0 0.022
C9DA 0.057 0.056 0.083 -0.019 0.009 0.004
C10DA 0.06 0.053 0.076 -0.028 0.02 -0.001
C11DA 0.074 0.059 0.072 -0.024 0.02 0.01
C12DA 0.086 0.066 0.064 -0.022 0.024 0.012
loop_
_geom_bond_atom_site_label_1
_geom_bond_atom_site_label_2
_geom_bond_site_symmetry_1
_geom_bond_site_symmetry_2
Fe1 N1 1_555 1_555
N1 N2 1_555 1_555
N2 C2 1_555 1_555
N3 C1 1_555 1_555
N4 Fe1 1_555 1_555
N5 C10 1_555 1_555
C1 N1 1_555 1_555
C2 N3 1_555 1_555
C3 N4 1_555 1_555
C4 C3 1_555 1_555
H1 C4 1_555 1_555
C5 C4 1_555 1_555
H2 C5 1_555 1_555
C6 C5 1_555 1_555
H3 C6 1_555 1_555
C7 N4 1_555 1_555
H4 C7 1_555 1_555
C8 C2 1_555 1_555
C9 C8 1_555 1_555
H5 C9 1_555 1_555
C10 C9 1_555 1_555
H6 C10 1_555 1_555
C11 N5 1_555 1_555
H7 C11 1_555 1_555
C12 C8 1_555 1_555
H8 C12 1_555 1_555
Fe1M N5 1_555 1_555
Fe1Y N5DA 1_555 1_555
N1DA Fe1 1_555 1_555
N2DA N1DA 1_555 1_555
N3DA C1DA 1_555 1_555
N4DA Fe1 1_555 1_555
N5DA C10DA 1_555 1_555
N5H Fe1 1_555 1_555
N5T Fe1 1_555 1_555
C1DA N1DA 1_555 1_555
C2DA N2DA 1_555 1_555
C3DA N4DA 1_555 1_555
C4DA C3DA 1_555 1_555
H1DA C4DA 1_555 1_555
C5DA C4DA 1_555 1_555
H2DA C5DA 1_555 1_555
C6DA C5DA 1_555 1_555
H3DA C6DA 1_555 1_555
C7DA N4DA 1_555 1_555
H4DA C7DA 1_555 1_555
C8DA C2DA 1_555 1_555
C9DA C8DA 1_555 1_555
H5DA C9DA 1_555 1_555
C10DA C9DA 1_555 1_555
H6DA C10DA 1_555 1_555
C11DA N5DA 1_555 1_555
H7DA C11DA 1_555 1_555
C12DA C8DA 1_555 1_555
H8DA C12DA 1_555 1_555
C1 C3 1_555 1_555
C6 C7 1_555 1_555
C11 C12 1_555 1_555
N3DA C2DA 1_555 1_555
C1DA C3DA 1_555 1_555
C6DA C7DA 1_555 1_555
C11DA C12DA 1_555 1_555

#END
