
#######################################################################
#
#                 Cambridge Crystallographic Data Centre
#                                CCDC 
#
#######################################################################
#
# If this CIF has been generated from an entry in the Cambridge 
# Structural Database, then it will include bibliographic, chemical, 
# crystal, experimental, refinement or atomic coordinate data resulting 
# from the CCDC's data processing and validation procedures.
#
#######################################################################

data_FEJDII01
_chemical_formula_moiety         '(C3 H9 N2 O12 P4 Zn3 1-)n'
_symmetry_cell_setting           monoclinic
_symmetry_space_group_name_H-M   'C 2/c'
_symmetry_Int_Tables_number      15
_space_group_name_Hall           '-C 2yc'
loop_
_symmetry_equiv_pos_site_id
_symmetry_equiv_pos_as_xyz
1 x,y,z
2 1/2+x,1/2+y,z
3 -x,y,1/2-z
4 1/2-x,1/2+y,1/2-z
5 -x,-y,-z
6 1/2-x,1/2-y,-z
7 x,-y,1/2+z
8 1/2+x,1/2-y,1/2+z
_cell_length_a                   10.3397(6)
_cell_length_b                   14.7632(6)
_cell_length_c                   13.7726(7)
_cell_angle_alpha                90
_cell_angle_beta                 100.734(5)
_cell_angle_gamma                90
_cell_volume                     2065.56
loop_
_atom_site_label
_atom_site_type_symbol
_atom_site_fract_x
_atom_site_fract_y
_atom_site_fract_z
Zn1 Zn 0.05411(4) 0.92103(3) 1.39766(3)
Zn2 Zn 0.5000 0.78471(4) 1.2500
P1 P 0.21080(10) 0.84684(6) 1.23170(7)
H1 H 0.194(3) 0.758(2) 1.261(2)
P2 P 0.56456(10) 0.62075(6) 1.11604(6)
H2 H 0.660(3) 0.5992(18) 1.2026(19)
O1 O 0.1881(3) 0.9062(2) 1.3161(2)
O2 O 0.4554(3) 0.55201(19) 1.1076(2)
O3 O 0.1089(3) 0.8580(2) 1.1393(2)
O4 O 0.6348(3) 0.6205(2) 1.02884(19)
O5 O 0.5129(3) 0.71497(17) 1.13271(19)
O6 O 0.3492(3) 0.86151(19) 1.2123(2)
Zn1B Zn 0.94589(4) 0.92103(3) 1.10234(3)
Zn1C Zn 0.44589(4) 0.42103(3) 1.10234(3)
Zn1B_2 Zn -0.05411(4) 0.92103(3) 1.10234(3)
Zn1G Zn 0.55411(4) 0.57897(3) 0.89766(3)
Zn1A Zn 0.55411(4) 0.42103(3) 1.39766(3)
Zn1E Zn 0.44589(4) 0.57897(3) 1.60234(3)
Zn1_2 Zn 1.05411(4) 0.92103(3) 1.39766(3)
P1B P 0.78920(10) 0.84684(6) 1.26830(7)
H1B H 0.806(3) 0.758(2) 1.239(2)
P2B P 0.43544(10) 0.62075(6) 1.38396(6)
H2B H 0.340(3) 0.5992(18) 1.2974(19)
O1B O 0.8119(3) 0.9062(2) 1.1839(2)
O2B O 0.5446(3) 0.55201(19) 1.3924(2)
O2C O 0.0446(3) 1.05201(19) 1.3924(2)
O2A O 0.9554(3) 1.05201(19) 1.1076(2)
O3B O 0.8911(3) 0.8580(2) 1.3607(2)
O3B_2 O -0.1089(3) 0.8580(2) 1.3607(2)
O3_2 O 1.1089(3) 0.8580(2) 1.1393(2)
O4B O 0.3652(3) 0.6205(2) 1.47116(19)
O4G O 0.1348(3) 0.8795(2) 1.52884(19)
O4E O 0.8652(3) 0.8795(2) 0.97116(19)
O5B O 0.4871(3) 0.71497(17) 1.36729(19)
O6B O 0.6508(3) 0.86151(19) 1.2877(2)
C1 C 1.0462(5) 0.3824(4) 0.9355(4)
H3 H 1.1335 0.3644 0.9416
C2 C 0.9898(7) 0.4502(4) 0.8822(4)
H4 H 1.0310 0.4902 0.8456
C3 C 0.8398(5) 0.3877(4) 0.9481(4)
H5 H 0.7587 0.3747 0.9649
N1 N 0.9528(4) 0.3430(2) 0.9804(3)
H6 H 0.9437 0.2840 0.9643
H7 H 0.9758 0.3476 1.0466
N2 N 0.8626(5) 0.4518(3) 0.8896(3)
loop_
_geom_bond_atom_site_label_1
_geom_bond_atom_site_label_2
_geom_bond_site_symmetry_1
_geom_bond_site_symmetry_2
Zn1 O1 1_555 1_555
Zn2 O5 1_555 1_555
P1 H1 1_555 1_555
P2 H2 1_555 1_555
O1 P1 1_555 1_555
O2 P2 1_555 1_555
O3 P1 1_555 1_555
O4 P2 1_555 1_555
O5 P2 1_555 1_555
O6 Zn2 1_555 1_555
C1 H3 1_555 1_555
C2 C1 1_555 1_555
H4 C2 1_555 1_555
C3 H5 1_555 1_555
N1 C1 1_555 1_555
H6 N1 1_555 1_555
H7 N1 1_555 1_555
N2 C2 1_555 1_555
Zn1B O1B 1_555 1_555
Zn1C O2 1_555 1_555
Zn1B_2 O3 1_555 1_555
Zn1G O4 1_555 1_555
Zn1A O2B 1_555 1_555
Zn1E O4B 1_555 1_555
Zn1_2 O3B 1_555 1_555
P1B H1B 1_555 1_555
P2B H2B 1_555 1_555
O1B P1B 1_555 1_555
O2B P2B 1_555 1_555
O2C Zn1 1_555 1_555
O2A Zn1B 1_555 1_555
O3B P1B 1_555 1_555
O3B_2 Zn1 1_555 1_555
O3_2 Zn1B 1_555 1_555
O4B P2B 1_555 1_555
O4G Zn1 1_555 1_555
O4E Zn1B 1_555 1_555
O5B Zn2 1_555 1_555
O6B Zn2 1_555 1_555
P1 O6 1_555 1_555
C3 N1 1_555 1_555
C3 N2 1_555 1_555
P1B O6B 1_555 1_555
P2B O5B 1_555 1_555

#END
