
#######################################################################
#
#                 Cambridge Crystallographic Data Centre
#                                CCDC 
#
#######################################################################
#
# If this CIF has been generated from an entry in the Cambridge 
# Structural Database, then it will include bibliographic, chemical, 
# crystal, experimental, refinement or atomic coordinate data resulting 
# from the CCDC's data processing and validation procedures.
#
#######################################################################

data_IQOKIK
_chemical_formula_moiety         '(C174 H116 Mn9 N2 O52 Si6)n'
_symmetry_cell_setting           triclinic
_symmetry_space_group_name_H-M   'P -1'
_symmetry_Int_Tables_number      2
_space_group_name_Hall           '-P 1'
loop_
_symmetry_equiv_pos_site_id
_symmetry_equiv_pos_as_xyz
1 x,y,z
2 -x,-y,-z
_cell_length_a                   13.736(16)
_cell_length_b                   22.64(3)
_cell_length_c                   23.01(3)
_cell_angle_alpha                65.026(15)
_cell_angle_beta                 75.118(15)
_cell_angle_gamma                87.591(15)
_cell_volume                     6251.04
loop_
_atom_site_label
_atom_site_type_symbol
_atom_site_fract_x
_atom_site_fract_y
_atom_site_fract_z
Mn1 Mn 1.04356(15) -0.24855(10) 0.34270(10)
O1 O 1.0068(7) -0.2340(4) 0.4264(4)
O2 O 1.0896(7) -0.1555(4) 0.2742(5)
O3 O 0.9018(8) -0.2651(5) 0.3312(6)
O4 O 0.9516(8) -0.3539(4) 0.3964(6)
O5 O 1.1707(8) -0.2943(5) 0.3599(6)
C1 C 0.9509(13) -0.1908(8) 0.4320(8)
C2 C 1.0307(16) -0.1184(9) 0.2447(8)
Mn2 Mn 0.82175(17) -0.17598(10) 0.33290(11)
O6 O 0.8976(7) -0.1592(4) 0.3937(5)
C3 C 0.9530(8) -0.1727(5) 0.4879(4)
O7 O 0.9400(8) -0.1269(4) 0.2497(4)
C4 C 1.0830(7) -0.0499(3) 0.1946(4)
O8 O 0.7108(9) -0.2365(5) 0.4140(5)
O9 O 0.7390(7) -0.0853(4) 0.3276(5)
O10 O 0.7312(7) -0.1772(4) 0.2707(5)
C5 C 0.9076(7) -0.1174(4) 0.4902(4)
C6 C 0.9922(7) -0.2140(4) 0.5397(5)
C7 C 1.0408(6) -0.0156(5) 0.1420(5)
C8 C 1.1636(7) -0.0211(5) 0.2020(4)
C9 C 0.6219(16) -0.2489(9) 0.4351(10)
Mn3 Mn 0.58951(17) -0.11210(10) 0.33595(11)
H1 H 0.8808 -0.0892 0.4548
C10 C 0.9014(7) -0.1035(4) 0.5443(5)
C11 C 0.9860(7) -0.2000(4) 0.5938(4)
H2 H 1.0233 -0.2518 0.5382
H3 H 0.9858 -0.0353 0.1370
C12 C 1.0791(7) 0.0476(5) 0.0969(4)
C13 C 1.2018(6) 0.0422(5) 0.1569(5)
H4 H 1.1924 -0.0445 0.2379
O11 O 0.5562(7) -0.2039(5) 0.4126(5)
C14 C 0.5725(8) -0.3097(4) 0.4882(5)
O12 O 0.4343(8) -0.0926(5) 0.3590(6)
O13 O 0.5332(9) -0.0036(5) 0.2859(6)
O14 O 0.6181(8) -0.1093(5) 0.2441(5)
H5 H 0.8703 -0.0657 0.5458
C15 C 0.9406(8) -0.1448(5) 0.5961(4)
H6 H 1.0128 -0.2283 0.6292
H7 H 1.0502 0.0711 0.0610
C16 C 1.1596(7) 0.0765(3) 0.1043(4)
H8 H 1.2569 0.0619 0.1619
C17 C 0.6345(5) -0.3605(5) 0.5085(5)
C18 C 0.4687(7) -0.3203(4) 0.5163(5)
C19 C 0.4479(15) -0.0350(10) 0.3230(11)
Si1 Si 0.9244(3) -0.12756(19) 0.6714(2)
Si2 Si 1.2090(4) 0.1621(2) 0.0387(2)
H9 H 0.7054 -0.3533 0.4893
C20 C 0.5926(7) -0.4219(4) 0.5569(5)
C21 C 0.4269(5) -0.3817(5) 0.5647(5)
H10 H 0.4264 -0.2856 0.5025
C22 C 0.3577(6) 0.0068(5) 0.3190(5)
C23 C 0.8110(6) -0.0790(5) 0.6794(5)
C24 C 1.0367(6) -0.0772(3) 0.6639(5)
C25 C 0.9047(7) -0.2087(3) 0.7449(4)
C26 C 1.1095(6) 0.2221(4) 0.0371(4)
C27 C 1.2414(8) 0.1550(5) -0.0438(4)
C28 C 1.3257(6) 0.1894(4) 0.0517(5)
H11 H 0.6350 -0.4566 0.5708
C29 C 0.4888(8) -0.4324(4) 0.5850(5)
H12 H 0.3560 -0.3889 0.5839
C30 C 0.2628(8) -0.0245(3) 0.3566(4)
C31 C 0.3683(6) 0.0742(5) 0.2822(5)
C32 C 0.8216(6) -0.0116(5) 0.6426(5)
C33 C 0.7160(8) -0.1103(3) 0.7170(5)
C34 C 1.0268(5) -0.0466(4) 0.7062(4)
C35 C 1.1249(7) -0.0657(4) 0.6135(4)
C36 C 0.8284(6) -0.2536(4) 0.7557(4)
C37 C 0.9719(6) -0.2268(4) 0.7844(4)
C38 C 1.1438(5) 0.2878(4) 0.0033(4)
C39 C 1.0065(7) 0.2042(3) 0.0605(4)
C40 C 1.1953(7) 0.1945(4) -0.0926(5)
C41 C 1.3090(7) 0.1113(4) -0.0555(4)
C42 C 1.3201(6) 0.2015(4) 0.1069(4)
C43 C 1.4177(8) 0.1991(4) 0.0048(4)
Si3 Si 0.4392(3) -0.51504(19) 0.6561(2)
H13 H 0.2555 -0.0706 0.3817
H14 H 0.4332 0.0957 0.2565
H15 H 0.8864 0.0098 0.6169
H16 H 0.7088 -0.1564 0.7421
C44 C 1.1052(7) -0.0045(4) 0.6979(4)
H17 H 0.9665 -0.0545 0.7406
H18 H 1.1317 -0.0865 0.5847
C45 C 1.2033(5) -0.0236(4) 0.6053(4)
C46 C 0.8193(5) -0.3164(4) 0.8060(4)
H19 H 0.7825 -0.2412 0.7287
H20 H 1.0241 -0.1962 0.7770
C47 C 0.9628(6) -0.2897(4) 0.8347(4)
C48 C 1.0749(7) 0.3355(3) -0.0070(4)
H21 H 1.2142 0.3001 -0.0127
H22 H 0.9831 0.1593 0.0835
C49 C 0.9376(5) 0.2519(4) 0.0502(4)
C50 C 1.2167(7) 0.1903(4) -0.1531(4)
H23 H 1.1491 0.2243 -0.0845
H24 H 1.3406 0.0843 -0.0221
C51 C 1.3305(7) 0.1072(4) -0.1160(5)
C52 C 1.4065(8) 0.2233(4) 0.1151(4)
H25 H 1.2572 0.1948 0.1389
H26 H 1.4215 0.1908 -0.0329
C53 C 1.5041(6) 0.2209(4) 0.0131(4)
C54 C 0.3792(7) -0.5062(4) 0.7338(4)
C55 C 0.3451(6) -0.5612(4) 0.6396(5)
C56 C 0.5527(6) -0.5658(4) 0.6658(6)
C57 C 1.1935(6) 0.0070(3) 0.6475(5)
H27 H 1.0985 0.0163 0.7268
H28 H 1.2636 -0.0157 0.5708
C58 C 0.8866(6) -0.3345(3) 0.8456(4)
H29 H 0.7672 -0.3471 0.8134
H30 H 1.0088 -0.3020 0.8617
C59 C 0.9718(6) 0.3176(4) 0.0164(4)
H31 H 1.0983 0.3804 -0.0300
H32 H 0.8671 0.2396 0.0662
C60 C 1.2844(8) 0.1467(5) -0.1648(4)
H33 H 1.1852 0.2173 -0.1864
H34 H 1.3767 0.0773 -0.1240
C61 C 1.4985(6) 0.2330(4) 0.0682(5)
H35 H 1.4026 0.2315 0.1528
H36 H 1.5669 0.2276 -0.0190
C62 C 0.4256(5) -0.4664(4) 0.7527(4)
C63 C 0.2857(7) -0.5391(4) 0.7726(5)
C64 C 0.3349(6) -0.6289(4) 0.6743(4)
C65 C 0.2780(7) -0.5294(3) 0.6023(4)
C66 C 0.5927(8) -0.5883(5) 0.6177(5)
C67 C 0.5938(8) -0.5821(5) 0.7194(5)
C68 C 1.2775(14) 0.0538(8) 0.6376(9)
C69 C 0.8756(13) -0.4038(4) 0.8992(6)
C70 C 0.8939(12) 0.3696(8) 0.0037(7)
C71 C 1.3132(15) 0.1440(9) -0.2279(8)
C72 C 1.5942(10) 0.2568(7) 0.0754(10)
C73 C 0.3787(7) -0.4595(4) 0.8105(5)
H37 H 0.4895 -0.4438 0.7262
H38 H 0.2539 -0.5663 0.7597
C74 C 0.2387(5) -0.5323(4) 0.8304(4)
C75 C 0.2577(7) -0.6647(3) 0.6718(4)
H39 H 0.3808 -0.6506 0.6998
H40 H 0.2850 -0.4832 0.5785
C76 C 0.2008(6) -0.5653(4) 0.5998(4)
C77 C 0.6740(8) -0.6272(5) 0.6231(5)
H41 H 0.5646 -0.5772 0.5811
H42 H 0.5665 -0.5667 0.7523
C78 C 0.6751(8) -0.6210(5) 0.7249(4)
O15 O 1.3575(8) 0.0601(5) 0.5973(6)
O16 O 0.9587(7) -0.4211(4) 0.9191(4)
O17 O 0.8039(7) -0.4399(3) 0.9136(4)
O18 O 0.9275(6) 0.4282(4) -0.0192(4)
O19 O 0.8052(7) 0.3518(4) 0.0185(4)
O20 O 1.6685(8) 0.2765(4) 0.0228(6)
O21 O 1.5895(7) 0.2625(5) 0.1270(6)
C79 C 0.2852(7) -0.4925(4) 0.8493(4)
H43 H 0.4104 -0.4324 0.8235
H44 H 0.1748 -0.5548 0.8569
C80 C 0.1906(6) -0.6329(4) 0.6345(5)
H45 H 0.2507 -0.7110 0.6956
H46 H 0.1550 -0.5435 0.5743
C81 C 0.7151(6) -0.6436(4) 0.6767(6)
H47 H 0.7013 -0.6427 0.5902
H48 H 0.7032 -0.6322 0.7615
Mn4 Mn 1.0000 -0.5000 1.0000
Mn5 Mn 0.77215(17) -0.54075(11) 0.96885(12)
C82 C 0.2271(14) -0.4847(8) 0.9109(5)
C83 C 0.1053(13) -0.6769(9) 0.6371(8)
C84 C 0.8036(14) -0.6861(9) 0.6843(10)
O22 O 0.8315(9) -0.5526(5) 0.8694(5)
O23 O 0.6245(8) -0.5573(5) 0.9693(6)
O24 O 0.7219(6) -0.5399(4) 1.0624(4)
O25 O 0.8600(8) 0.5028(4) 0.0649(5)
O26 O 0.8456(8) -0.6982(5) 0.7269(6)
C85 C 0.5171(15) -0.5838(8) 1.0073(8)
N1 N 0.4738(9) -0.6002(6) 0.9688(8)
H49 H 0.4849 -0.5882 1.0509
C86 C 0.3729(10) -0.6209(7) 0.9960(8)
C87 C 0.5310(13) -0.5917(8) 0.9057(8)
H50 H 0.3523 -0.6248 1.0416
H51 H 0.3614 -0.6636 0.9964
H52 H 0.3330 -0.5892 0.9693
H53 H 0.6017 -0.5798 0.9000
H54 H 0.5050 -0.5567 0.8717
H55 H 0.5264 -0.6324 0.9009
C32A C 0.1784(6) 0.0116(5) 0.3574(5)
C33A C 0.2840(8) 0.1103(3) 0.2830(5)
C30A C 0.7372(8) 0.0245(3) 0.6434(4)
C31A C 0.6317(6) -0.0742(5) 0.7178(5)
H15A H 0.1136 -0.0098 0.3831
C23A C 0.1890(6) 0.0790(5) 0.3206(5)
H16A H 0.2912 0.1564 0.2579
C22A C 0.6423(6) -0.0068(5) 0.6810(5)
H13A H 0.7445 0.0706 0.6183
H14A H 0.5668 -0.0957 0.7435
Si1A Si 0.0756(3) 0.12756(19) 0.3286(2)
C19A C 0.5521(15) 0.0350(10) 0.6770(11)
C24A C -0.0367(6) 0.0772(3) 0.3361(5)
C15A C 0.0594(8) 0.1448(5) 0.4039(4)
C25A C 0.0953(7) 0.2087(3) 0.2551(4)
O12A O 0.5657(8) 0.0926(5) 0.6410(6)
O13A O 0.4668(9) 0.0036(5) 0.7141(6)
O9A O 1.2610(7) 0.0853(4) 0.6724(5)
O14A O 1.3819(8) 0.1093(5) -0.2441(5)
O10A O 1.2688(7) 0.1772(4) -0.2707(5)
C34A C -0.0268(5) 0.0466(4) 0.2938(4)
C35A C -0.1249(7) 0.0657(4) 0.3865(4)
C10A C 0.0986(7) 0.1035(4) 0.4557(5)
C11A C 0.0140(7) 0.2000(4) 0.4062(4)
C36A C 0.1716(6) 0.2536(4) 0.2443(4)
C37A C 0.0281(6) 0.2268(4) 0.2156(4)
Mn3A Mn 0.41049(17) 0.11210(10) 0.66405(11)
Mn3A_2 Mn 1.41049(17) 0.11210(10) 0.66405(11)
Mn2A Mn 1.17825(17) 0.17598(10) 0.66710(11)
Mn4_2 Mn 1.0000 0.5000 0.0000
Mn5_2 Mn 0.77215(17) 0.45925(11) -0.03115(12)
Mn3A_3 Mn 1.41049(17) 0.11210(10) -0.33595(11)
Mn2A_2 Mn 1.17825(17) 0.17598(10) -0.33290(11)
C44A C -0.1052(7) 0.0045(4) 0.3021(4)
H17A H 0.0335 0.0545 0.2594
H18A H -0.1317 0.0865 0.4153
C45A C -0.2033(5) 0.0236(4) 0.3947(4)
C5A C 0.0924(7) 0.1174(4) 0.5098(4)
H5A H 0.1297 0.0657 0.4542
H6A H -0.0128 0.2283 0.3708
C6A C 0.0078(7) 0.2140(4) 0.4603(5)
C46A C 0.1807(5) 0.3164(4) 0.1940(4)
H19A H 0.2175 0.2412 0.2713
H20A H -0.0241 0.1962 0.2230
C47A C 0.0372(6) 0.2897(4) 0.1653(4)
O11A O 0.4438(7) 0.2039(5) 0.5874(5)
O9A_2 O 0.2610(7) 0.0853(4) 0.6724(5)
O14A_2 O 0.3819(8) 0.1093(5) 0.7559(5)
O18_2 O 0.9275(6) -0.5718(4) 0.9808(4)
O19_2 O 0.8052(7) -0.6482(4) 1.0185(4)
O25A O 1.1400(8) 0.4972(4) -0.0649(5)
O16_2 O 0.9587(7) 0.5789(4) -0.0809(4)
O16A O 1.0413(7) 0.4211(4) 0.0809(4)
O18A O 1.0725(6) 0.5718(4) 0.0192(4)
O24_2 O 0.7219(6) 0.4601(4) 0.0624(4)
O25A_2 O 0.1400(8) -0.5028(4) 0.9351(5)
O24A O 0.2781(6) -0.4601(4) 0.9376(4)
O3A O 0.0982(8) -0.7349(5) 0.6688(6)
O4A O 0.0484(8) -0.6461(4) 0.6036(6)
O5A O 0.8293(8) -0.7057(5) 0.6401(6)
C57A C -0.1935(6) -0.0070(3) 0.3525(5)
H27A H -0.0985 -0.0163 0.2732
H28A H -0.2636 0.0157 0.4292
C3A C 0.0470(8) 0.1727(5) 0.5121(4)
H1A H 0.1192 0.0892 0.5452
H2A H -0.0233 0.2518 0.4618
C58A C 0.1134(6) 0.3345(3) 0.1544(4)
H29A H 0.2328 0.3471 0.1866
H30A H -0.0088 0.3020 0.1383
C9A C 0.3781(16) 0.2489(9) 0.5649(10)
Mn2A_3 Mn 0.17825(17) 0.17598(10) 0.66710(11)
C82A C 0.7729(14) 0.4847(8) 0.0891(5)
Mn4_3 Mn -0.0000 -0.5000 1.0000
Mn5A Mn 0.22785(17) -0.45925(11) 1.03115(12)
Mn1A Mn -0.04356(15) -0.75145(10) 0.65730(10)
Mn2A_4 Mn 0.17825(17) -0.82402(10) 0.66710(11)
Mn1A_2 Mn 0.95644(15) -0.75145(10) 0.65730(10)
C68A C -0.2775(14) -0.0538(8) 0.3624(9)
C1A C 0.0491(13) 0.1908(8) 0.5680(8)
C69A C 0.1244(13) 0.4038(4) 0.1008(6)
O8A O 0.2892(9) 0.2365(5) 0.5860(5)
C14A C 0.4275(8) 0.3097(4) 0.5118(5)
O6A O 0.1024(7) 0.1592(4) 0.6063(5)
O7A O 0.0600(8) 0.1269(4) 0.7503(4)
O3A_2 O 0.0982(8) 0.2651(5) 0.6688(6)
O10A_2 O 0.2688(7) 0.1772(4) 0.7293(5)
C79A C 0.7148(7) 0.4925(4) 0.1507(4)
O18A_2 O 0.0725(6) -0.4282(4) 1.0192(4)
O19A O 0.1948(7) -0.3518(4) 0.9815(4)
O9_2 O -0.2610(7) -0.0853(4) 0.3276(5)
O15A O -0.3575(8) -0.0601(5) 0.4027(6)
O1A O -0.0068(7) 0.2340(4) 0.5736(4)
O16A_2 O 0.0413(7) 0.4211(4) 0.0809(4)
O17A O 0.1961(7) 0.4399(3) 0.0864(4)
C17A C 0.3655(5) 0.3605(5) 0.4915(5)
C18A C 0.5313(7) 0.3203(4) 0.4837(5)
C2A C -0.0307(16) 0.1184(9) 0.7553(8)
Mn1A_3 Mn -0.04356(15) 0.24855(10) 0.65730(10)
C73A C 0.6213(7) 0.4595(4) 0.1895(5)
C74A C 0.7613(5) 0.5323(4) 0.1696(4)
C70A C 0.1061(12) -0.3696(8) 0.9963(7)
Mn3_2 Mn -0.41049(17) -0.11210(10) 0.33595(11)
Mn2_2 Mn -0.17825(17) -0.17598(10) 0.33290(11)
Mn4_4 Mn 0.0000 0.5000 0.0000
Mn5A_2 Mn 0.22785(17) 0.54075(11) 0.03115(12)
H9A H 0.2946 0.3533 0.5107
C20A C 0.4074(7) 0.4219(4) 0.4431(5)
C21A C 0.5731(5) 0.3817(5) 0.4353(5)
H10A H 0.5736 0.2856 0.4975
O2A O -0.0896(7) 0.1555(4) 0.7258(5)
C4A C -0.0830(7) 0.0499(3) 0.8054(4)
O4A_2 O 0.0484(8) 0.3539(4) 0.6036(6)
O5A_2 O -0.1707(8) 0.2943(5) 0.6401(6)
H43A H 0.5896 0.4324 0.1765
C62A C 0.5744(5) 0.4664(4) 0.2473(4)
C63A C 0.7143(7) 0.5391(4) 0.2274(5)
H44A H 0.8252 0.5548 0.1431
C59A C 0.0282(6) -0.3176(4) 0.9836(4)
O18A_3 O 0.0725(6) 0.5718(4) 0.0192(4)
O22A O 0.1685(9) 0.5526(5) 0.1306(5)
O23A O 0.3755(8) 0.5573(5) 0.0307(6)
O24A_2 O 0.2781(6) 0.5399(4) -0.0624(4)
O19A_2 O 0.1948(7) 0.6482(4) -0.0185(4)
H11A H 0.3650 0.4566 0.4292
C29A C 0.5112(8) 0.4324(4) 0.4150(5)
H12A H 0.6440 0.3889 0.4161
C7A C -0.0408(6) 0.0156(5) 0.8580(5)
C8A C -0.1636(7) 0.0211(5) 0.7980(4)
H37A H 0.5105 0.4438 0.2738
C54A C 0.6208(7) 0.5062(4) 0.2662(4)
H38A H 0.7461 0.5663 0.2403
C48A C -0.0749(7) -0.3355(3) 1.0070(4)
C49A C 0.0624(5) -0.2519(4) 0.9498(4)
C85A C 0.4829(15) 0.5838(8) -0.0073(8)
Si3A Si 0.5608(3) 0.51504(19) 0.3439(2)
H3A H 0.0142 0.0353 0.8630
C12A C -0.0791(7) -0.0476(5) 0.9031(4)
C13A C -0.2018(6) -0.0422(5) 0.8431(5)
H4A H -0.1924 0.0445 0.7621
H31A H -0.0983 -0.3804 1.0300
C38A C -0.1438(5) -0.2878(4) 0.9967(4)
C39A C -0.0065(7) -0.2042(3) 0.9395(4)
H32A H 0.1329 -0.2396 0.9338
N1A N 0.5262(9) 0.6002(6) 0.0312(8)
H49A H 0.5151 0.5882 -0.0509
C55A C 0.6549(6) 0.5612(4) 0.3604(5)
C56A C 0.4473(6) 0.5658(4) 0.3342(6)
H7A H -0.0502 -0.0711 0.9390
C16A C -0.1596(7) -0.0765(3) 0.8957(4)
H8A H -0.2569 -0.0619 0.8381
H21A H -0.2142 -0.3001 1.0127
C26A C -0.1095(6) -0.2221(4) 0.9629(4)
H22A H 0.0169 -0.1593 0.9165
C86A C 0.6271(10) 0.6209(7) 0.0040(8)
C87A C 0.4690(13) 0.5917(8) 0.0943(8)
C64A C 0.6651(6) 0.6289(4) 0.3257(4)
C65A C 0.7220(7) 0.5294(3) 0.3977(4)
C66A C 0.4073(8) 0.5883(5) 0.3823(5)
C67A C 0.4062(8) 0.5821(5) 0.2806(5)
Si2A Si -0.2090(4) -0.1621(2) 0.9613(2)
H50A H 0.6477 0.6248 -0.0416
H51A H 0.6386 0.6636 0.0036
H52A H 0.6670 0.5892 0.0307
H53A H 0.3983 0.5798 0.1000
H54A H 0.4950 0.5567 0.1283
H55A H 0.4736 0.6324 0.0991
C75A C 0.7423(7) 0.6647(3) 0.3282(4)
H39A H 0.6192 0.6506 0.3002
H40A H 0.7150 0.4832 0.4215
C76A C 0.7992(6) 0.5653(4) 0.4002(4)
C77A C 0.3260(8) 0.6272(5) 0.3769(5)
H41A H 0.4354 0.5772 0.4189
H42A H 0.4335 0.5667 0.2477
C78A C 0.3249(8) 0.6210(5) 0.2751(4)
C27A C -0.2414(8) -0.1550(5) 1.0438(4)
C28A C -0.3257(6) -0.1894(4) 0.9483(5)
C80A C 0.8094(6) 0.6329(4) 0.3655(5)
H45A H 0.7493 0.7110 0.3044
H46A H 0.8450 0.5435 0.4257
C81A C 0.2849(6) 0.6436(4) 0.3233(6)
H47A H 0.2987 0.6427 0.4098
H48A H 0.2968 0.6322 0.2385
C40A C -0.1953(7) -0.1945(4) 1.0926(5)
C41A C -0.3090(7) -0.1113(4) 1.0555(4)
C42A C -0.3201(6) -0.2015(4) 0.8931(4)
C43A C -0.4177(8) -0.1991(4) 0.9952(4)
C83A C 0.8947(13) 0.6769(9) 0.3629(8)
C84A C 0.1964(14) 0.6861(9) 0.3157(10)
C50A C -0.2167(7) -0.1903(4) 1.1531(4)
H23A H -0.1491 -0.2243 1.0845
H24A H -0.3406 -0.0843 1.0221
C51A C -0.3305(7) -0.1072(4) 1.1160(5)
C52A C -0.4065(8) -0.2233(4) 0.8849(4)
H25A H -0.2572 -0.1948 0.8611
H26A H -0.4215 -0.1908 1.0329
C53A C -0.5041(6) -0.2209(4) 0.9869(4)
O3_2 O 0.9018(8) 0.7349(5) 0.3312(6)
O4_2 O 0.9516(8) 0.6461(4) 0.3964(6)
O26A O 0.1544(8) 0.6982(5) 0.2731(6)
O5_2 O 0.1707(8) 0.7057(5) 0.3599(6)
C60A C -0.2844(8) -0.1467(5) 1.1648(4)
H33A H -0.1852 -0.2173 1.1864
H34A H -0.3767 -0.0773 1.1240
C61A C -0.4985(6) -0.2330(4) 0.9318(5)
H35A H -0.4026 -0.2315 0.8472
H36A H -0.5669 -0.2276 1.0190
Mn1_2 Mn 1.04356(15) 0.75145(10) 0.34270(10)
Mn2_3 Mn 0.82175(17) 0.82402(10) 0.33290(11)
Mn1_3 Mn 0.04356(15) 0.75145(10) 0.34270(10)
C71A C -0.3132(15) -0.1440(9) 1.2279(8)
C72A C -0.5942(10) -0.2568(7) 0.9246(10)
O14_2 O -0.3819(8) -0.1093(5) 1.2441(5)
O10_2 O -0.2688(7) -0.1772(4) 1.2707(5)
O20A O -0.6685(8) -0.2765(4) 0.9772(6)
O21A O -0.5895(7) -0.2625(5) 0.8730(6)
Mn3_3 Mn -0.41049(17) -0.11210(10) 1.33595(11)
Mn2_4 Mn -0.17825(17) -0.17598(10) 1.33290(11)
loop_
_geom_bond_atom_site_label_1
_geom_bond_atom_site_label_2
_geom_bond_site_symmetry_1
_geom_bond_site_symmetry_2
Mn1 O1 1_555 1_555
O1 C1 1_555 1_555
O2 Mn1 1_555 1_555
O3 Mn1 1_555 1_555
O4 Mn1 1_555 1_555
O5 Mn1 1_555 1_555
C1 O6 1_555 1_555
C2 O2 1_555 1_555
Mn2 O3 1_555 1_555
O6 Mn2 1_555 1_555
C3 C1 1_555 1_555
O7 C2 1_555 1_555
C4 C2 1_555 1_555
O8 Mn2 1_555 1_555
O9 Mn2 1_555 1_555
O10 Mn2 1_555 1_555
C5 C3 1_555 1_555
C6 C3 1_555 1_555
C7 C4 1_555 1_555
C8 C4 1_555 1_555
C9 O8 1_555 1_555
Mn3 O9 1_555 1_555
H1 C5 1_555 1_555
C10 C5 1_555 1_555
C11 C6 1_555 1_555
H2 C6 1_555 1_555
H3 C7 1_555 1_555
C12 C7 1_555 1_555
C13 C8 1_555 1_555
H4 C8 1_555 1_555
O11 C9 1_555 1_555
C14 C9 1_555 1_555
O12 Mn3 1_555 1_555
O13 Mn3 1_555 1_555
O14 Mn3 1_555 1_555
H5 C10 1_555 1_555
C15 C10 1_555 1_555
H6 C11 1_555 1_555
H7 C12 1_555 1_555
C16 C12 1_555 1_555
H8 C13 1_555 1_555
C17 C14 1_555 1_555
C18 C14 1_555 1_555
C19 O12 1_555 1_555
Si1 C15 1_555 1_555
Si2 C16 1_555 1_555
H9 C17 1_555 1_555
C20 C17 1_555 1_555
C21 C18 1_555 1_555
H10 C18 1_555 1_555
C22 C19 1_555 1_555
C23 Si1 1_555 1_555
C24 Si1 1_555 1_555
C25 Si1 1_555 1_555
C26 Si2 1_555 1_555
C27 Si2 1_555 1_555
C28 Si2 1_555 1_555
H11 C20 1_555 1_555
C29 C20 1_555 1_555
H12 C21 1_555 1_555
C30 C22 1_555 1_555
C31 C22 1_555 1_555
C32 C23 1_555 1_555
C33 C23 1_555 1_555
C34 C24 1_555 1_555
C35 C24 1_555 1_555
C36 C25 1_555 1_555
C37 C25 1_555 1_555
C38 C26 1_555 1_555
C39 C26 1_555 1_555
C40 C27 1_555 1_555
C41 C27 1_555 1_555
C42 C28 1_555 1_555
C43 C28 1_555 1_555
Si3 C29 1_555 1_555
H13 C30 1_555 1_555
H14 C31 1_555 1_555
H15 C32 1_555 1_555
H16 C33 1_555 1_555
C44 C34 1_555 1_555
H17 C34 1_555 1_555
H18 C35 1_555 1_555
C45 C35 1_555 1_555
C46 C36 1_555 1_555
H19 C36 1_555 1_555
H20 C37 1_555 1_555
C47 C37 1_555 1_555
C48 C38 1_555 1_555
H21 C38 1_555 1_555
H22 C39 1_555 1_555
C49 C39 1_555 1_555
C50 C40 1_555 1_555
H23 C40 1_555 1_555
H24 C41 1_555 1_555
C51 C41 1_555 1_555
C52 C42 1_555 1_555
H25 C42 1_555 1_555
H26 C43 1_555 1_555
C53 C43 1_555 1_555
C54 Si3 1_555 1_555
C55 Si3 1_555 1_555
C56 Si3 1_555 1_555
C57 C44 1_555 1_555
H27 C44 1_555 1_555
H28 C45 1_555 1_555
C58 C46 1_555 1_555
H29 C46 1_555 1_555
H30 C47 1_555 1_555
C59 C48 1_555 1_555
H31 C48 1_555 1_555
H32 C49 1_555 1_555
C60 C50 1_555 1_555
H33 C50 1_555 1_555
H34 C51 1_555 1_555
C61 C52 1_555 1_555
H35 C52 1_555 1_555
H36 C53 1_555 1_555
C62 C54 1_555 1_555
C63 C54 1_555 1_555
C64 C55 1_555 1_555
C65 C55 1_555 1_555
C66 C56 1_555 1_555
C67 C56 1_555 1_555
C68 C57 1_555 1_555
C69 C58 1_555 1_555
C70 C59 1_555 1_555
C71 C60 1_555 1_555
C72 C61 1_555 1_555
C73 C62 1_555 1_555
H37 C62 1_555 1_555
H38 C63 1_555 1_555
C74 C63 1_555 1_555
C75 C64 1_555 1_555
H39 C64 1_555 1_555
H40 C65 1_555 1_555
C76 C65 1_555 1_555
C77 C66 1_555 1_555
H41 C66 1_555 1_555
H42 C67 1_555 1_555
C78 C67 1_555 1_555
O15 C68 1_555 1_555
O16 C69 1_555 1_555
O17 C69 1_555 1_555
O18 C70 1_555 1_555
O19 C70 1_555 1_555
O20 C72 1_555 1_555
O21 C72 1_555 1_555
C79 C73 1_555 1_555
H43 C73 1_555 1_555
H44 C74 1_555 1_555
C80 C75 1_555 1_555
H45 C75 1_555 1_555
H46 C76 1_555 1_555
C81 C77 1_555 1_555
H47 C77 1_555 1_555
H48 C78 1_555 1_555
Mn4 O16 1_555 1_555
Mn5 O17 1_555 1_555
C82 C79 1_555 1_555
C83 C80 1_555 1_555
C84 C81 1_555 1_555
O22 Mn5 1_555 1_555
O23 Mn5 1_555 1_555
O24 Mn5 1_555 1_555
O25 Mn4_2 1_555 1_555
O26 C84 1_555 1_555
C85 O23 1_555 1_555
N1 C85 1_555 1_555
H49 C85 1_555 1_555
C86 N1 1_555 1_555
C87 N1 1_555 1_555
H50 C86 1_555 1_555
H51 C86 1_555 1_555
H52 C86 1_555 1_555
H53 C87 1_555 1_555
H54 C87 1_555 1_555
H55 C87 1_555 1_555
C32A C30 1_555 1_555
C33A C31 1_555 1_555
C30A C32 1_555 1_555
C31A C33 1_555 1_555
H15A C32A 1_555 1_555
C23A C32A 1_555 1_555
H16A C33A 1_555 1_555
C22A C30A 1_555 1_555
H13A C30A 1_555 1_555
H14A C31A 1_555 1_555
Si1A C23A 1_555 1_555
C19A C22A 1_555 1_555
C24A Si1A 1_555 1_555
C15A Si1A 1_555 1_555
C25A Si1A 1_555 1_555
O12A C19A 1_555 1_555
O13A C19A 1_555 1_555
O9A C68 1_555 1_555
O14A C71 1_555 1_555
O10A C71 1_555 1_555
C34A C24A 1_555 1_555
C35A C24A 1_555 1_555
C10A C15A 1_555 1_555
C11A C15A 1_555 1_555
C36A C25A 1_555 1_555
C37A C25A 1_555 1_555
Mn3A O12A 1_555 1_555
Mn3A_2 O9A 1_555 1_555
Mn2A O9A 1_555 1_555
Mn4_2 O18 1_555 1_555
Mn5_2 O18 1_555 1_555
Mn3A_3 O14A 1_555 1_555
Mn2A_2 O10A 1_555 1_555
C44A C34A 1_555 1_555
H17A C34A 1_555 1_555
H18A C35A 1_555 1_555
C45A C35A 1_555 1_555
C5A C10A 1_555 1_555
H5A C10A 1_555 1_555
H6A C11A 1_555 1_555
C6A C11A 1_555 1_555
C46A C36A 1_555 1_555
H19A C36A 1_555 1_555
H20A C37A 1_555 1_555
C47A C37A 1_555 1_555
O11A Mn3A 1_555 1_555
O9A_2 Mn3A 1_555 1_555
O14A_2 Mn3A 1_555 1_555
O18_2 Mn4 1_555 1_555
O19_2 Mn5 1_555 1_555
O25A Mn4_2 1_555 1_555
O16_2 Mn4_2 1_555 1_555
O16A Mn4_2 1_555 1_555
O18A Mn4_2 1_555 1_555
O24_2 Mn5_2 1_555 1_555
O25A_2 C82 1_555 1_555
O24A C82 1_555 1_555
O3A C83 1_555 1_555
O4A C83 1_555 1_555
O5A C84 1_555 1_555
C57A C44A 1_555 1_555
H27A C44A 1_555 1_555
H28A C45A 1_555 1_555
C3A C5A 1_555 1_555
H1A C5A 1_555 1_555
H2A C6A 1_555 1_555
C58A C46A 1_555 1_555
H29A C46A 1_555 1_555
H30A C47A 1_555 1_555
C9A O11A 1_555 1_555
Mn2A_3 O9A_2 1_555 1_555
C82A O25 1_555 1_555
Mn4_3 O25A_2 1_555 1_555
Mn5A O24A 1_555 1_555
Mn1A O3A 1_555 1_555
Mn2A_4 O3A 1_555 1_555
Mn1A_2 O5A 1_555 1_555
C68A C57A 1_555 1_555
C1A C3A 1_555 1_555
C69A C58A 1_555 1_555
O8A C9A 1_555 1_555
C14A C9A 1_555 1_555
O6A Mn2A_3 1_555 1_555
O7A Mn2A_3 1_555 1_555
O3A_2 Mn2A_3 1_555 1_555
O10A_2 Mn2A_3 1_555 1_555
C79A C82A 1_555 1_555
O18A_2 Mn4_3 1_555 1_555
O19A Mn5A 1_555 1_555
O9_2 C68A 1_555 1_555
O15A C68A 1_555 1_555
O1A C1A 1_555 1_555
O16A_2 C69A 1_555 1_555
O17A C69A 1_555 1_555
C17A C14A 1_555 1_555
C18A C14A 1_555 1_555
C2A O7A 1_555 1_555
Mn1A_3 O3A_2 1_555 1_555
C73A C79A 1_555 1_555
C74A C79A 1_555 1_555
C70A O18A_2 1_555 1_555
Mn3_2 O9_2 1_555 1_555
Mn2_2 O9_2 1_555 1_555
Mn4_4 O16A_2 1_555 1_555
Mn5A_2 O17A 1_555 1_555
H9A C17A 1_555 1_555
C20A C17A 1_555 1_555
C21A C18A 1_555 1_555
H10A C18A 1_555 1_555
O2A C2A 1_555 1_555
C4A C2A 1_555 1_555
O4A_2 Mn1A_3 1_555 1_555
O5A_2 Mn1A_3 1_555 1_555
H43A C73A 1_555 1_555
C62A C73A 1_555 1_555
C63A C74A 1_555 1_555
H44A C74A 1_555 1_555
C59A C70A 1_555 1_555
O18A_3 Mn4_4 1_555 1_555
O22A Mn5A_2 1_555 1_555
O23A Mn5A_2 1_555 1_555
O24A_2 Mn5A_2 1_555 1_555
O19A_2 Mn5A_2 1_555 1_555
H11A C20A 1_555 1_555
C29A C20A 1_555 1_555
H12A C21A 1_555 1_555
C7A C4A 1_555 1_555
C8A C4A 1_555 1_555
H37A C62A 1_555 1_555
C54A C62A 1_555 1_555
H38A C63A 1_555 1_555
C48A C59A 1_555 1_555
C49A C59A 1_555 1_555
C85A O23A 1_555 1_555
Si3A C29A 1_555 1_555
H3A C7A 1_555 1_555
C12A C7A 1_555 1_555
C13A C8A 1_555 1_555
H4A C8A 1_555 1_555
H31A C48A 1_555 1_555
C38A C48A 1_555 1_555
C39A C49A 1_555 1_555
H32A C49A 1_555 1_555
N1A C85A 1_555 1_555
H49A C85A 1_555 1_555
C55A Si3A 1_555 1_555
C56A Si3A 1_555 1_555
H7A C12A 1_555 1_555
C16A C12A 1_555 1_555
H8A C13A 1_555 1_555
H21A C38A 1_555 1_555
C26A C38A 1_555 1_555
H22A C39A 1_555 1_555
C86A N1A 1_555 1_555
C87A N1A 1_555 1_555
C64A C55A 1_555 1_555
C65A C55A 1_555 1_555
C66A C56A 1_555 1_555
C67A C56A 1_555 1_555
Si2A C16A 1_555 1_555
H50A C86A 1_555 1_555
H51A C86A 1_555 1_555
H52A C86A 1_555 1_555
H53A C87A 1_555 1_555
H54A C87A 1_555 1_555
H55A C87A 1_555 1_555
C75A C64A 1_555 1_555
H39A C64A 1_555 1_555
H40A C65A 1_555 1_555
C76A C65A 1_555 1_555
C77A C66A 1_555 1_555
H41A C66A 1_555 1_555
H42A C67A 1_555 1_555
C78A C67A 1_555 1_555
C27A Si2A 1_555 1_555
C28A Si2A 1_555 1_555
C80A C75A 1_555 1_555
H45A C75A 1_555 1_555
H46A C76A 1_555 1_555
C81A C77A 1_555 1_555
H47A C77A 1_555 1_555
H48A C78A 1_555 1_555
C40A C27A 1_555 1_555
C41A C27A 1_555 1_555
C42A C28A 1_555 1_555
C43A C28A 1_555 1_555
C83A C80A 1_555 1_555
C84A C81A 1_555 1_555
C50A C40A 1_555 1_555
H23A C40A 1_555 1_555
H24A C41A 1_555 1_555
C51A C41A 1_555 1_555
C52A C42A 1_555 1_555
H25A C42A 1_555 1_555
H26A C43A 1_555 1_555
C53A C43A 1_555 1_555
O3_2 C83A 1_555 1_555
O4_2 C83A 1_555 1_555
O26A C84A 1_555 1_555
O5_2 C84A 1_555 1_555
C60A C50A 1_555 1_555
H33A C50A 1_555 1_555
H34A C51A 1_555 1_555
C61A C52A 1_555 1_555
H35A C52A 1_555 1_555
H36A C53A 1_555 1_555
Mn1_2 O3_2 1_555 1_555
Mn2_3 O3_2 1_555 1_555
Mn1_3 O5_2 1_555 1_555
C71A C60A 1_555 1_555
C72A C61A 1_555 1_555
O14_2 C71A 1_555 1_555
O10_2 C71A 1_555 1_555
O20A C72A 1_555 1_555
O21A C72A 1_555 1_555
Mn3_3 O14_2 1_555 1_555
Mn2_4 O10_2 1_555 1_555
Mn2 O7 1_555 1_555
Mn3 O11 1_555 1_555
C11 C15 1_555 1_555
C13 C16 1_555 1_555
O13 C19 1_555 1_555
C21 C29 1_555 1_555
C45 C57 1_555 1_555
C47 C58 1_555 1_555
C49 C59 1_555 1_555
C51 C60 1_555 1_555
C53 C61 1_555 1_555
C74 C79 1_555 1_555
C76 C80 1_555 1_555
C78 C81 1_555 1_555
O19 Mn5_2 1_555 1_555
Mn5 O18_2 1_555 1_555
C33A C23A 1_555 1_555
C31A C22A 1_555 1_555
O13A Mn3A 1_555 1_555
C45A C57A 1_555 1_555
C6A C3A 1_555 1_555
C47A C58A 1_555 1_555
O24_2 C82A 1_555 1_555
O4A Mn1A 1_555 1_555
Mn2A_3 O8A 1_555 1_555
Mn5A O18A_2 1_555 1_555
C1A O6A 1_555 1_555
O19A C70A 1_555 1_555
O1A Mn1A_3 1_555 1_555
Mn1A_3 O2A 1_555 1_555
Mn5A_2 O18A_3 1_555 1_555
C21A C29A 1_555 1_555
C63A C54A 1_555 1_555
C54A Si3A 1_555 1_555
C13A C16A 1_555 1_555
C39A C26A 1_555 1_555
C26A Si2A 1_555 1_555
C76A C80A 1_555 1_555
C78A C81A 1_555 1_555
C51A C60A 1_555 1_555
C53A C61A 1_555 1_555
O4_2 Mn1_2 1_555 1_555

#END
