
#######################################################################
#
#                 Cambridge Crystallographic Data Centre
#                                CCDC 
#
#######################################################################
#
# If this CIF has been generated from an entry in the Cambridge 
# Structural Database, then it will include bibliographic, chemical, 
# crystal, experimental, refinement or atomic coordinate data resulting 
# from the CCDC's data processing and validation procedures.
#
#######################################################################

data_PARHAS
_chemical_formula_moiety         '(C22 H32 Ca2 N2 O12)n'
_symmetry_cell_setting           monoclinic
_symmetry_space_group_name_H-M   'P 21/c'
_symmetry_Int_Tables_number      14
_space_group_name_Hall           '-P 2ybc'
loop_
_symmetry_equiv_pos_site_id
_symmetry_equiv_pos_as_xyz
1 x,y,z
2 -x,1/2+y,1/2-z
3 -x,-y,-z
4 x,1/2-y,1/2+z
_cell_length_a                   14.855(2)
_cell_length_b                   15.339(3)
_cell_length_c                   7.7790(12)
_cell_angle_alpha                90
_cell_angle_beta                 98.631(6)
_cell_angle_gamma                90
_cell_volume                     1752.46
loop_
_atom_site_label
_atom_site_type_symbol
_atom_site_fract_x
_atom_site_fract_y
_atom_site_fract_z
Ca1 Ca -0.22053(3) 0.28071(3) -0.54889(6)
O1 O -0.15002(11) 0.18470(11) -0.7664(2)
O2 O -0.11907(11) 0.15228(11) -0.4893(2)
O3 O -0.33040(11) 0.15820(11) -0.6091(2)
O4 O -0.29559(11) 0.17862(11) -0.3274(2)
O5 O 0.32904(17) -0.38282(14) -0.5447(3)
O6 O 0.11072(16) -0.38214(14) -0.3624(3)
C1 C -0.12021(16) 0.13187(17) -0.6466(3)
C2 C -0.08792(18) 0.04460(17) -0.6957(3)
H1 H -0.0429 0.0533 -0.7725
H2 H -0.1390 0.0141 -0.7617
C3 C -0.04619(16) -0.01448(17) -0.5460(3)
H3 H 0.0878 0.0175 -0.5387
H4 H 0.0404 0.0728 -0.4089
C4 C -0.33156(16) 0.13372(17) -0.4541(3)
C5 C -0.37821(17) 0.04870(16) -0.4241(3)
H5 H -0.3789 0.0417 -0.3004
H6 H -0.3429 0.0011 -0.4617
C6 C -0.47632(16) 0.04220(16) -0.5196(3)
H7 H -0.5111 0.0913 -0.4864
H8 H -0.4755 0.0460 -0.6438
H17 H 0.390(2) -0.381(2) -0.496(4)
H18 H 0.331(2) -0.378(2) -0.635(4)
H19 H 0.1082(19) -0.376(2) -0.270(3)
H20 H 0.053(2) -0.386(2) -0.415(4)
Ca1C Ca -0.22053(3) 0.21929(3) -0.04889(6)
Ca1C_2 Ca -0.22053(3) 0.21929(3) -1.04889(6)
Ca1B Ca 0.22053(3) -0.28071(3) -0.45111(6)
Ca1A Ca 0.22053(3) -0.21929(3) 0.04889(6)
Ca1A_2 Ca -0.77947(3) -0.21929(3) -0.95111(6)
Ca1B_2 Ca -0.77947(3) -0.28071(3) -0.45111(6)
O1C O -0.15002(11) 0.31530(11) -0.2664(2)
O1B O 0.15002(11) -0.18470(11) -0.2336(2)
O1A O 0.15002(11) -0.31530(11) -0.7336(2)
O2B O 0.11907(11) -0.15228(11) -0.5107(2)
O3B O 0.33040(11) -0.15820(11) -0.3909(2)
O3B_2 O -0.66960(11) -0.15820(11) -0.3909(2)
O4B O 0.29559(11) -0.17862(11) -0.6726(2)
O4A O 0.29559(11) -0.32138(11) -0.1726(2)
O4C O -0.29559(11) 0.32138(11) -0.8274(2)
O4B_2 O -0.70441(11) -0.17862(11) -0.6726(2)
O5B O -0.32904(17) 0.38282(14) -0.4553(3)
O6B O -0.11072(16) 0.38214(14) -0.6376(3)
C1B C 0.12021(16) -0.13187(17) -0.3534(3)
C2B C 0.08792(18) -0.04460(17) -0.3043(3)
H1B H 0.0429 -0.0533 -0.2275
H2B H 0.1390 -0.0141 -0.2383
C3B C 0.04619(16) 0.01448(17) -0.4540(3)
H3B H -0.0878 -0.0175 -0.4613
H4B H -0.0404 -0.0728 -0.5911
C4B C -0.66844(16) -0.13372(17) -0.5459(3)
C5B C -0.62179(17) -0.04870(16) -0.5759(3)
H5B H -0.6211 -0.0417 -0.6996
H6B H -0.6571 -0.0011 -0.5383
C6B C -0.52368(16) -0.04220(16) -0.4804(3)
H7B H -0.4889 -0.0913 -0.5136
H8B H -0.5245 -0.0460 -0.3562
H17B H -0.390(2) 0.381(2) -0.504(4)
H18B H -0.331(2) 0.378(2) -0.365(4)
H19B H -0.1082(19) 0.376(2) -0.730(3)
H20B H -0.053(2) 0.386(2) -0.585(4)
N1 N -0.51475(17) 0.36419(18) 0.3745(3)
N2 N -0.92354(18) 0.1459(2) 0.0133(3)
C7 C -0.5148(2) 0.2830(2) 0.3128(4)
H9 H -0.4592 0.2546 0.3190
C8 C -0.59231(19) 0.2384(2) 0.2400(3)
H10 H -0.5879 0.1814 0.2015
C9 C -0.67643(19) 0.2789(2) 0.2249(3)
C10 C -0.6765(2) 0.3642(2) 0.2861(4)
H11 H -0.7309 0.3950 0.2781
C11 C -0.5961(2) 0.4027(2) 0.3586(4)
H12 H -0.5986 0.4596 0.3992
C12 C -0.76097(19) 0.2331(2) 0.1510(3)
C13 C -0.7714(2) 0.1439(2) 0.1690(4)
H13 H -0.7240 0.1109 0.2278
C14 C -0.8525(2) 0.1039(2) 0.0992(4)
H14 H -0.8574 0.0440 0.1136
C15 C -0.9131(2) 0.2310(3) -0.0050(4)
H15 H -0.9614 0.2622 -0.0654
C16 C -0.8344(2) 0.2766(2) 0.0602(4)
H16 H -0.8313 0.3364 0.0427
loop_
_geom_bond_atom_site_label_1
_geom_bond_atom_site_label_2
_geom_bond_site_symmetry_1
_geom_bond_site_symmetry_2
Ca1 O1 1_555 1_555
O1 C1 1_555 1_555
O2 Ca1 1_555 1_555
O3 Ca1 1_555 1_555
O4 Ca1 1_555 1_555
O5 H17 1_555 1_555
O6 H19 1_555 1_555
N1 C7 1_555 1_555
N2 C14 1_555 1_555
C1 O2 1_555 1_555
C2 C1 1_555 1_555
H1 C2 1_555 1_555
H2 C2 1_555 1_555
C3 C2 1_555 1_555
H3 C3B 1_555 1_555
H4 C3B 1_555 1_555
C4 O3 1_555 1_555
C5 C4 1_555 1_555
H5 C5 1_555 1_555
H6 C5 1_555 1_555
C6 C5 1_555 1_555
H7 C6 1_555 1_555
H8 C6 1_555 1_555
C7 H9 1_555 1_555
C8 C7 1_555 1_555
H10 C8 1_555 1_555
C9 C8 1_555 1_555
C10 C9 1_555 1_555
H11 C10 1_555 1_555
C11 N1 1_555 1_555
H12 C11 1_555 1_555
C12 C9 1_555 1_555
C13 C12 1_555 1_555
H13 C13 1_555 1_555
C14 C13 1_555 1_555
H14 C14 1_555 1_555
C15 N2 1_555 1_555
H15 C15 1_555 1_555
C16 C12 1_555 1_555
H16 C16 1_555 1_555
H18 O5 1_555 1_555
H20 O6 1_555 1_555
Ca1C O4 1_555 1_555
Ca1C_2 O1 1_555 1_555
Ca1B O5 1_555 1_555
Ca1A O1B 1_555 1_555
Ca1A_2 O4B_2 1_555 1_555
Ca1B_2 O3B_2 1_555 1_555
O1C Ca1 1_555 1_555
O1B Ca1B 1_555 1_555
O1A Ca1B 1_555 1_555
O2B Ca1B 1_555 1_555
O3B Ca1B 1_555 1_555
O3B_2 C4B 1_555 1_555
O4B Ca1B 1_555 1_555
O4A Ca1B 1_555 1_555
O4C Ca1 1_555 1_555
O4B_2 Ca1B_2 1_555 1_555
O5B Ca1 1_555 1_555
O6B Ca1 1_555 1_555
C1B O1B 1_555 1_555
C2B C1B 1_555 1_555
H1B C2B 1_555 1_555
H2B C2B 1_555 1_555
C3B C3 1_555 1_555
H3B C3 1_555 1_555
H4B C3 1_555 1_555
C4B O4B_2 1_555 1_555
C5B C4B 1_555 1_555
H5B C5B 1_555 1_555
H6B C5B 1_555 1_555
C6B C6 1_555 1_555
H7B C6B 1_555 1_555
H8B C6B 1_555 1_555
H17B O5B 1_555 1_555
H18B O5B 1_555 1_555
H19B O6B 1_555 1_555
H20B O6B 1_555 1_555
O4 C4 1_555 1_555
O6 Ca1B 1_555 1_555
C10 C11 1_555 1_555
C15 C16 1_555 1_555
Ca1C O1C 1_555 1_555
Ca1C_2 O4C 1_555 1_555
Ca1A O4A 1_555 1_555
O2B C1B 1_555 1_555
C2B C3B 1_555 1_555
C5B C6B 1_555 1_555

#END
