
#######################################################################
#
#                 Cambridge Crystallographic Data Centre
#                                CCDC 
#
#######################################################################
#
# If this CIF has been generated from an entry in the Cambridge 
# Structural Database, then it will include bibliographic, chemical, 
# crystal, experimental, refinement or atomic coordinate data resulting 
# from the CCDC's data processing and validation procedures.
#
#######################################################################

data_FUXXIH
_chemical_formula_moiety         '(C70 H70 N2 Ni6 O32)n'
_symmetry_cell_setting           monoclinic
_symmetry_space_group_name_H-M   'C 2'
_symmetry_Int_Tables_number      5
_space_group_name_Hall           'C 2y'
loop_
_symmetry_equiv_pos_site_id
_symmetry_equiv_pos_as_xyz
1 x,y,z
2 -x,y,-z
3 1/2+x,1/2+y,z
4 1/2-x,1/2+y,-z
_cell_length_a                   24.274(4)
_cell_length_b                   25.634(4)
_cell_length_c                   11.0898(15)
_cell_angle_alpha                90
_cell_angle_beta                 114.924(10)
_cell_angle_gamma                90
_cell_volume                     6257.85
loop_
_atom_site_label
_atom_site_type_symbol
_atom_site_fract_x
_atom_site_fract_y
_atom_site_fract_z
Ni1 Ni 0.74394(10) 0.42056(6) 1.02015(17)
Ni2 Ni 0.75579(9) 0.46172(6) 0.48234(17)
Ni3 Ni 0.74908(12) 0.43908(11) 0.7498(2)
O1 O 0.6992(4) 0.3773(3) 0.7137(7)
C1 C 0.5278(5) 0.0869(4) 0.6589(10)
H1 H 0.4869 0.0936 0.6353
C2 C 0.9769(5) 0.7123(4) 0.9489(11)
C3 C 0.5251(4) 0.1740(4) 0.5498(10)
C4 C 0.5543(5) 0.1225(4) 0.6173(11)
O2 O 0.8176(3) 0.4963(3) 0.7983(7)
C5 C 0.9433(5) 0.7573(4) 0.8741(11)
C6 C 0.5709(5) 0.2571(5) 0.5316(12)
H2 H 0.5511 0.2529 0.4399
C7 C 0.9256(5) 0.6221(4) 0.9684(11)
H3 H 0.9422 0.6257 1.0604
C8 C 0.5631(5) 0.2224(5) 0.6105(11)
C9 C 0.9789(5) 0.7933(4) 0.8350(11)
H4 H 1.0195 0.7891 0.8516
O3 O 0.6885(5) 0.3606(4) 0.9109(8)
C10 C 0.9114(5) 0.6541(4) 0.7482(10)
H5 H 0.9144 0.6797 0.6916
C11 C 0.6346(6) 0.3056(5) 0.7268(11)
C12 C 0.8850(6) 0.8458(5) 0.7313(11)
C13 C 0.9396(5) 0.6616(4) 0.8944(11)
C14 C 0.8645(5) 0.5704(4) 0.7787(8)
C15 C 0.5873(5) 0.2315(5) 0.7439(11)
H6 H 0.5772 0.2093 0.7978
C16 C 0.6273(6) 0.2738(5) 0.8036(12)
H7 H 0.6470 0.2776 0.8955
C17 C 0.8808(5) 0.6086(4) 0.6991(10)
H8 H 0.8694 0.6012 0.6097
C18 C 0.6120(6) 0.0294(5) 0.7607(12)
C19 C 0.8917(5) 0.5821(4) 0.9179(10)
H9 H 0.8845 0.5594 0.9752
O4 O 0.8091(4) 0.5148(4) 0.5974(7)
C20 C 0.6108(6) 0.3027(5) 0.5874(11)
H10 H 0.6192 0.3271 0.5355
O5 O 0.7100(3) 0.4701(3) 0.8712(6)
H11 H 0.7233 0.5055 0.8987
H12 H 0.6660 0.4688 0.8284
C21 C 0.9398(5) 0.8381(5) 0.7643(10)
H13 H 0.9597 0.8646 0.7410
C22 C 0.5482(5) 0.0406(4) 0.7314(10)
H14 H 0.5241 0.0195 0.7581
C23 C 0.6735(6) 0.3515(5) 0.7845(12)
C24 C 0.8555(6) 0.8087(5) 0.7710(11)
H15 H 0.8146 0.8127 0.7521
O6 O 0.6935(3) 0.4701(3) 0.5684(8)
H16 H 0.6832 0.5063 0.5745
H17 H 0.6568 0.4498 0.5227
O7 O 0.8021(3) 0.3991(3) 0.9305(7)
H18 H 0.8037 0.3617 0.9189
H19 H 0.8428 0.4132 0.9763
C25 C 0.6483(6) 0.0643(5) 0.7240(12)
H20 H 0.6887 0.0560 0.7465
C26 C 0.6224(4) 0.1146(5) 0.6492(10)
H21 H 0.6451 0.1382 0.6250
O8 O 0.7219(4) 0.5090(4) 0.3216(8)
H22 H 0.6932 0.5271 0.3248
H23 H 0.7085 0.4908 0.2509
N1 N 0.8174(4) 0.4286(4) 0.4322(9)
O9 O 0.7783(5) 0.3600(4) 1.1591(8)
H24 H 0.7503 0.3383 1.1495
H25 H 0.8067 0.3448 1.1471
O10 O 0.8275(4) 0.3314(4) 0.6713(8)
C27 C 0.8174(5) 0.3666(5) 0.6111(10)
O11 O 0.7845(4) 0.3998(4) 0.6389(8)
C28 C 0.8784(4) 0.4541(3) 0.4831(10)
H26 H 0.8772 0.4833 0.4265
H27 H 0.8894 0.4672 0.5724
C29 C 0.8851(5) 0.7681(4) 0.8350(10)
H28 H 0.8625 0.7433 0.8562
C30 C 0.9243(5) 0.4151(4) 0.4841(12)
H29 H 0.9653 0.4251 0.5439
H30 H 0.9221 0.4090 0.3958
C31 C 0.8336(5) 0.3764(5) 0.4943(11)
H31 H 0.8118 0.3505 0.4257
C32 C 0.9021(5) 0.3681(4) 0.5360(12)
H32 H 0.9235 0.3659 0.6320
H33 H 0.9089 0.3361 0.4977
C33 C 0.8246(6) 0.5239(5) 0.7232(12)
O12 O 0.6781(5) 0.4463(5) 1.0872(10)
H34 H 0.6587 0.4207 1.0990
H35 H 0.6531 0.4656 1.0266
O13 O 0.6214(3) -0.0400(3) 0.9037(8)
C34 C 0.6461(6) -0.0130(5) 0.8402(11)
O14 O 0.6853(4) -0.0295(3) 0.8484(7)
O15 O 0.8958(4) 0.9255(3) 0.6238(8)
C35 C 0.8643(6) 0.9009(5) 0.6502(12)
O16 O 0.7944(3) 0.9007(3) 0.6357(7)
O1A O 0.3008(4) 0.3773(3) 0.2863(7)
C1A C 0.4722(5) 0.0869(4) 0.3411(10)
H1A H 0.5131 0.0936 0.3647
C3A C 0.4749(4) 0.1740(4) 0.4502(10)
C4A C 0.4457(5) 0.1225(4) 0.3827(11)
C6A C 0.4291(5) 0.2571(5) 0.4684(12)
H2A H 0.4489 0.2529 0.5601
C8A C 0.4369(5) 0.2224(5) 0.3895(11)
O3A O 0.3115(5) 0.3606(4) 0.0891(8)
C11A C 0.3654(6) 0.3056(5) 0.2732(11)
C15A C 0.4127(5) 0.2315(5) 0.2561(11)
H6A H 0.4228 0.2093 0.2022
C16A C 0.3727(6) 0.2738(5) 0.1964(12)
H7A H 0.3530 0.2776 0.1045
C18A C 0.3880(6) 0.0294(5) 0.2393(12)
C20A C 0.3892(6) 0.3027(5) 0.4126(11)
H10A H 0.3808 0.3271 0.4645
C22A C 0.4518(5) 0.0406(4) 0.2686(10)
H14A H 0.4759 0.0195 0.2419
C23A C 0.3265(6) 0.3515(5) 0.2155(12)
C25A C 0.3517(6) 0.0643(5) 0.2760(12)
H20A H 0.3113 0.0560 0.2535
C26A C 0.3776(4) 0.1146(5) 0.3508(10)
H21A H 0.3549 0.1382 0.3750
O13A O 0.3786(3) -0.0400(3) 0.0963(8)
C34A C 0.3539(6) -0.0130(5) 0.1598(11)
O14A O 0.3147(4) -0.0295(3) 0.1516(7)
C2A C 1.0231(5) 0.7123(4) 1.0511(11)
O2A O 1.1824(3) 0.4963(3) 1.2017(7)
C5A C 1.0567(5) 0.7573(4) 1.1259(11)
C7A C 1.0744(5) 0.6221(4) 1.0316(11)
H3A H 1.0578 0.6257 0.9396
C9A C 1.0211(5) 0.7933(4) 1.1650(11)
H4A H 0.9805 0.7891 1.1484
C10A C 1.0886(5) 0.6541(4) 1.2518(10)
H5A H 1.0856 0.6797 1.3084
C12A C 1.1150(6) 0.8458(5) 1.2687(11)
C13A C 1.0604(5) 0.6616(4) 1.1056(11)
C14A C 1.1355(5) 0.5704(4) 1.2213(8)
C17A C 1.1192(5) 0.6086(4) 1.3009(10)
H8A H 1.1306 0.6012 1.3903
C19A C 1.1083(5) 0.5821(4) 1.0821(10)
H9A H 1.1155 0.5594 1.0248
O4A O 1.1909(4) 0.5148(4) 1.4026(7)
C21A C 1.0602(5) 0.8381(5) 1.2357(10)
H13A H 1.0403 0.8646 1.2590
C24A C 1.1445(6) 0.8087(5) 1.2290(11)
H15A H 1.1854 0.8127 1.2479
C29A C 1.1149(5) 0.7681(4) 1.1650(10)
H28A H 1.1375 0.7433 1.1438
C33A C 1.1754(6) 0.5239(5) 1.2768(12)
O15A O 1.1042(4) 0.9255(3) 1.3762(8)
C35A C 1.1357(6) 0.9009(5) 1.3498(12)
O16A O 1.2056(3) 0.9007(3) 1.3643(7)
Ni1A Ni 0.25606(10) 0.42056(6) -0.02015(17)
Ni2A Ni 0.24421(9) 0.46172(6) 0.51766(17)
Ni3A Ni 0.25092(12) 0.43908(11) 0.2502(2)
O5A O 0.2900(3) 0.4701(3) 0.1288(6)
H11A H 0.2767 0.5055 0.1013
H12A H 0.3340 0.4688 0.1716
O6A O 0.3065(3) 0.4701(3) 0.4316(8)
H16A H 0.3168 0.5063 0.4255
H17A H 0.3432 0.4498 0.4773
O7A O 0.1979(3) 0.3991(3) 0.0695(7)
H18A H 0.1963 0.3617 0.0811
H19A H 0.1572 0.4132 0.0237
O8A O 0.2781(4) 0.5090(4) 0.6784(8)
H22A H 0.3068 0.5271 0.6752
H23A H 0.2915 0.4908 0.7491
N1A N 0.1826(4) 0.4286(4) 0.5678(9)
O9A O 0.2217(5) 0.3600(4) -0.1591(8)
H24A H 0.2497 0.3383 -0.1495
H25A H 0.1933 0.3448 -0.1471
O10A O 0.1725(4) 0.3314(4) 0.3287(8)
C27A C 0.1826(5) 0.3666(5) 0.3889(10)
O11A O 0.2155(4) 0.3998(4) 0.3611(8)
C28A C 0.1216(4) 0.4541(3) 0.5169(10)
H26A H 0.1228 0.4833 0.5735
H27A H 0.1106 0.4672 0.4276
C30A C 0.0757(5) 0.4151(4) 0.5159(12)
H29A H 0.0347 0.4251 0.4561
H30A H 0.0779 0.4090 0.6042
C31A C 0.1664(5) 0.3764(5) 0.5057(11)
H31A H 0.1882 0.3505 0.5743
C32A C 0.0979(5) 0.3681(4) 0.4640(12)
H32A H 0.0765 0.3659 0.3680
H33A H 0.0911 0.3361 0.5023
O12A O 0.3219(5) 0.4463(5) -0.0872(10)
H34A H 0.3413 0.4207 -0.0990
H35A H 0.3469 0.4656 -0.0266
Ni1B Ni 0.24394(10) -0.07944(6) 0.02015(17)
Ni1C Ni 0.75606(10) -0.07944(6) 0.97985(17)
Ni2A_2 Ni 1.24421(9) 0.46172(6) 1.51766(17)
Ni2B Ni 1.25579(9) 0.96172(6) 1.48234(17)
Ni2C Ni 0.74421(9) 0.96172(6) 0.51766(17)
Ni3A_2 Ni 1.25092(12) 0.43908(11) 1.2502(2)
O2A_2 O 0.1824(3) 0.4963(3) 0.2017(7)
O4A_2 O 0.1909(4) 0.5148(4) 0.4026(7)
O14B O 0.1853(4) 0.4705(3) -0.1516(7)
O14C O 0.8147(4) 0.4705(3) 1.1516(7)
O16B O 0.2944(3) 0.4007(3) 0.6357(7)
O16C O 0.7056(3) 0.4007(3) 0.3643(7)
loop_
_geom_bond_atom_site_label_1
_geom_bond_atom_site_label_2
_geom_bond_site_symmetry_1
_geom_bond_site_symmetry_2
Ni1 O3 1_555 1_555
Ni2 O4 1_555 1_555
Ni3 O1 1_555 1_555
O1 C23 1_555 1_555
C1 H1 1_555 1_555
C2 C5 1_555 1_555
C3 C4 1_555 1_555
C4 C1 1_555 1_555
O2 Ni3 1_555 1_555
C5 C9 1_555 1_555
C6 H2 1_555 1_555
C7 H3 1_555 1_555
C8 C3 1_555 1_555
C9 H4 1_555 1_555
O3 C23 1_555 1_555
C10 H5 1_555 1_555
C11 C16 1_555 1_555
C12 C21 1_555 1_555
C13 C2 1_555 1_555
C14 C17 1_555 1_555
C15 C8 1_555 1_555
H6 C15 1_555 1_555
C16 C15 1_555 1_555
H7 C16 1_555 1_555
C17 C10 1_555 1_555
H8 C17 1_555 1_555
C18 C22 1_555 1_555
C19 C7 1_555 1_555
H9 C19 1_555 1_555
O4 C33 1_555 1_555
C20 C6 1_555 1_555
H10 C20 1_555 1_555
O5 Ni1 1_555 1_555
H11 O5 1_555 1_555
H12 O5 1_555 1_555
C21 C9 1_555 1_555
H13 C21 1_555 1_555
C22 C1 1_555 1_555
H14 C22 1_555 1_555
C23 C11 1_555 1_555
C24 C12 1_555 1_555
H15 C24 1_555 1_555
O6 Ni2 1_555 1_555
H16 O6 1_555 1_555
H17 O6 1_555 1_555
O7 Ni1 1_555 1_555
H18 O7 1_555 1_555
H19 O7 1_555 1_555
C25 C18 1_555 1_555
H20 C25 1_555 1_555
C26 C4 1_555 1_555
H21 C26 1_555 1_555
O8 Ni2 1_555 1_555
H22 O8 1_555 1_555
H23 O8 1_555 1_555
N1 Ni2 1_555 1_555
O9 Ni1 1_555 1_555
H24 O9 1_555 1_555
H25 O9 1_555 1_555
O10 C27 1_555 1_555
C27 O11 1_555 1_555
O11 Ni2 1_555 1_555
C28 N1 1_555 1_555
H26 C28 1_555 1_555
H27 C28 1_555 1_555
C29 C5 1_555 1_555
H28 C29 1_555 1_555
C30 C28 1_555 1_555
H29 C30 1_555 1_555
H30 C30 1_555 1_555
C31 N1 1_555 1_555
H31 C31 1_555 1_555
C32 C30 1_555 1_555
H32 C32 1_555 1_555
H33 C32 1_555 1_555
C33 O2 1_555 1_555
O12 Ni1 1_555 1_555
H34 O12 1_555 1_555
H35 O12 1_555 1_555
O13 C34 1_555 1_555
C34 C18 1_555 1_555
O14 C34 1_555 1_555
O15 C35 1_555 1_555
C35 C12 1_555 1_555
O16 C35 1_555 1_555
O1A C23A 1_555 1_555
C1A H1A 1_555 1_555
C3A C3 1_555 1_555
C4A C1A 1_555 1_555
C6A H2A 1_555 1_555
C8A C3A 1_555 1_555
O3A C23A 1_555 1_555
C11A C16A 1_555 1_555
C15A C8A 1_555 1_555
H6A C15A 1_555 1_555
C16A C15A 1_555 1_555
H7A C16A 1_555 1_555
C18A C22A 1_555 1_555
C20A C6A 1_555 1_555
H10A C20A 1_555 1_555
C22A C1A 1_555 1_555
H14A C22A 1_555 1_555
C23A C11A 1_555 1_555
C25A C18A 1_555 1_555
H20A C25A 1_555 1_555
C26A C4A 1_555 1_555
H21A C26A 1_555 1_555
O13A C34A 1_555 1_555
C34A C18A 1_555 1_555
O14A C34A 1_555 1_555
C2A C2 1_555 1_555
O2A C33A 1_555 1_555
C5A C2A 1_555 1_555
C7A H3A 1_555 1_555
C9A C5A 1_555 1_555
H4A C9A 1_555 1_555
C10A H5A 1_555 1_555
C12A C21A 1_555 1_555
C13A C2A 1_555 1_555
C14A C17A 1_555 1_555
C17A C10A 1_555 1_555
H8A C17A 1_555 1_555
C19A C7A 1_555 1_555
H9A C19A 1_555 1_555
O4A C33A 1_555 1_555
C21A C9A 1_555 1_555
H13A C21A 1_555 1_555
C24A C12A 1_555 1_555
H15A C24A 1_555 1_555
C29A C5A 1_555 1_555
H28A C29A 1_555 1_555
C33A C14A 1_555 1_555
O15A C35A 1_555 1_555
C35A C12A 1_555 1_555
O16A C35A 1_555 1_555
Ni1A O3A 1_555 1_555
Ni2A O6A 1_555 1_555
Ni3A O1A 1_555 1_555
O5A Ni1A 1_555 1_555
H11A O5A 1_555 1_555
H12A O5A 1_555 1_555
O6A Ni3A 1_555 1_555
H16A O6A 1_555 1_555
H17A O6A 1_555 1_555
O7A Ni1A 1_555 1_555
H18A O7A 1_555 1_555
H19A O7A 1_555 1_555
O8A Ni2A 1_555 1_555
H22A O8A 1_555 1_555
H23A O8A 1_555 1_555
N1A Ni2A 1_555 1_555
O9A Ni1A 1_555 1_555
H24A O9A 1_555 1_555
H25A O9A 1_555 1_555
O10A C27A 1_555 1_555
C27A O11A 1_555 1_555
O11A Ni2A 1_555 1_555
C28A N1A 1_555 1_555
H26A C28A 1_555 1_555
H27A C28A 1_555 1_555
C30A C28A 1_555 1_555
H29A C30A 1_555 1_555
H30A C30A 1_555 1_555
C31A N1A 1_555 1_555
H31A C31A 1_555 1_555
C32A C30A 1_555 1_555
H32A C32A 1_555 1_555
H33A C32A 1_555 1_555
O12A Ni1A 1_555 1_555
H34A O12A 1_555 1_555
H35A O12A 1_555 1_555
Ni1B O14A 1_555 1_555
Ni1C O14 1_555 1_555
Ni2A_2 O4A 1_555 1_555
Ni2B O16A 1_555 1_555
Ni2C O16 1_555 1_555
Ni3A_2 O2A 1_555 1_555
O2A_2 Ni3A 1_555 1_555
O4A_2 Ni2A 1_555 1_555
O14B Ni1A 1_555 1_555
O14C Ni1 1_555 1_555
O16B Ni2A 1_555 1_555
O16C Ni2 1_555 1_555
Ni3 O5 1_555 1_555
Ni3 O6 1_555 1_555
Ni3 O7 1_555 1_555
Ni3 O11 1_555 1_555
C6 C8 1_555 1_555
C7 C13 1_555 1_555
C10 C13 1_555 1_555
C11 C20 1_555 1_555
C14 C19 1_555 1_555
C14 C33 1_555 1_555
C24 C29 1_555 1_555
C25 C26 1_555 1_555
C27 C31 1_555 1_555
C31 C32 1_555 1_555
C3A C4A 1_555 1_555
C6A C8A 1_555 1_555
C11A C20A 1_555 1_555
C25A C26A 1_555 1_555
C7A C13A 1_555 1_555
C10A C13A 1_555 1_555
C14A C19A 1_555 1_555
C24A C29A 1_555 1_555
Ni3A O5A 1_555 1_555
Ni3A O7A 1_555 1_555
Ni3A O11A 1_555 1_555
C27A C31A 1_555 1_555
C31A C32A 1_555 1_555

#END
