
#######################################################################
#
#                 Cambridge Crystallographic Data Centre
#                                CCDC 
#
#######################################################################
#
# If this CIF has been generated from an entry in the Cambridge 
# Structural Database, then it will include bibliographic, chemical, 
# crystal, experimental, refinement or atomic coordinate data resulting 
# from the CCDC's data processing and validation procedures.
#
#######################################################################

data_CUWNIT
_chemical_formula_moiety         '(C91 H95 Co6 N7 O36)n'
_symmetry_cell_setting           monoclinic
_symmetry_space_group_name_H-M   'C 2/c'
_symmetry_Int_Tables_number      15
_space_group_name_Hall           '-C 2yc'
loop_
_symmetry_equiv_pos_site_id
_symmetry_equiv_pos_as_xyz
1 x,y,z
2 -x,y,1/2-z
3 1/2+x,1/2+y,z
4 1/2-x,1/2+y,1/2-z
5 -x,-y,-z
6 x,-y,1/2+z
7 1/2-x,1/2-y,-z
8 1/2+x,1/2-y,1/2+z
_cell_length_a                   28.834(3)
_cell_length_b                   16.381(2)
_cell_length_c                   23.199(2)
_cell_angle_alpha                90
_cell_angle_beta                 92.893(2)
_cell_angle_gamma                90
_cell_volume                     10943.6
loop_
_atom_site_label
_atom_site_type_symbol
_atom_site_fract_x
_atom_site_fract_y
_atom_site_fract_z
_atom_site_U_iso_or_equiv
_atom_site_thermal_displace_type
Co1 Co -0.201940(17) 0.71863(3) 0.03516(2) 0.0163 Uani
Co2 Co -0.204893(18) 0.60635(3) 0.15666(2) 0.0182 Uani
Co3 Co -0.29116(2) 0.75547(4) 0.12981(3) 0.0329 Uani
O1 O -0.16446(9) 0.61350(17) 0.02550(12) 0.0199 Uani
O2 O -0.18518(10) 0.52597(17) 0.09462(12) 0.0225 Uani
O3 O -0.04661(11) 0.3023(2) -0.03859(16) 0.0365 Uani
O4 O 0.16622(10) 0.23888(17) 0.03774(12) 0.0218 Uani
O5 O 0.14036(12) 0.2859(2) 0.11915(14) 0.0377 Uani
O6 O -0.16222(9) 0.78428(17) 0.09316(12) 0.0209 Uani
O7 O -0.14770(11) 0.68366(19) 0.15687(14) 0.0311 Uani
O8 O -0.0000 0.9433(3) 0.2500 0.0471 Uani
O9 O -0.24405(9) 0.82299(17) 0.02397(11) 0.0191 Uani
O10 O -0.26792(10) 0.87213(19) 0.10698(12) 0.0250 Uani
O11 O -0.18945(13) 1.1834(2) -0.02635(14) 0.0367 Uani
O12 O -0.27292(11) 1.2221(2) -0.28620(13) 0.0302 Uani
O13 O -0.22774(13) 1.3321(2) -0.27355(13) 0.0357 Uani
O14 O -0.24473(9) 0.67601(17) 0.09884(11) 0.0188 Uani
H1 H -0.2627 0.6421 0.0813 0.0280 Uiso
O15 O -0.32925(14) 0.6375(2) 0.14783(17) 0.0495 Uani
H2 H -0.3490 0.6385 0.1738 0.0740 Uiso
H3 H -0.3041 0.6140 0.1589 0.0740 Uiso
C1 C -0.16402(13) 0.5446(2) 0.05009(17) 0.0177 Uani
C2 C -0.13474(14) 0.4792(3) 0.02474(18) 0.0212 Uani
C3 C -0.13979(14) 0.3983(3) 0.03974(18) 0.0228 Uani
H4 H -0.1633 0.3831 0.0649 0.0270 Uiso
C4 C -0.11075(14) 0.3387(3) 0.0185(2) 0.0261 Uani
H5 H -0.1145 0.2830 0.0286 0.0310 Uiso
C5 C -0.07649(15) 0.3617(3) -0.0174(2) 0.0324 Uani
C6 C -0.07122(19) 0.4418(3) -0.0341(3) 0.0485 Uani
H6 H -0.0478 0.4567 -0.0595 0.0580 Uiso
C7 C -0.10088(18) 0.5006(3) -0.0130(3) 0.0424 Uani
H7 H -0.0979 0.5559 -0.0245 0.0510 Uiso
C8 C 0.13306(16) 0.2662(3) 0.06666(19) 0.0263 Uani
C9 C 0.08542(15) 0.2740(3) 0.0406(2) 0.0260 Uani
C10 C 0.05030(16) 0.3115(3) 0.0710(2) 0.0322 Uani
H8 H 0.0569 0.3298 0.1094 0.0390 Uiso
C11 C 0.00608(16) 0.3220(3) 0.0456(2) 0.0328 Uani
H9 H -0.0174 0.3481 0.0662 0.0390 Uiso
C12 C -0.00365(15) 0.2943(3) -0.0100(2) 0.0290 Uani
C13 C 0.03052(15) 0.2548(3) -0.0401(2) 0.0287 Uani
H10 H 0.0235 0.2341 -0.0778 0.0340 Uiso
C14 C 0.07467(15) 0.2457(3) -0.0149(2) 0.0269 Uani
H11 H 0.0980 0.2198 -0.0358 0.0320 Uiso
C15 C -0.14179(14) 0.7537(3) 0.13698(18) 0.0221 Uani
C16 C -0.10533(14) 0.8059(3) 0.16800(18) 0.0216 Uani
C17 C -0.08957(15) 0.8777(3) 0.14379(19) 0.0252 Uani
H12 H -0.1030 0.8955 0.1077 0.0300 Uiso
C18 C -0.05487(15) 0.9235(3) 0.1711(2) 0.0283 Uani
H13 H -0.0441 0.9720 0.1538 0.0340 Uiso
C19 C -0.03594(15) 0.8976(3) 0.2241(2) 0.0333 Uani
C20 C -0.05249(16) 0.8286(3) 0.2504(2) 0.0318 Uani
H14 H -0.0402 0.8126 0.2875 0.0380 Uiso
C21 C -0.08731(14) 0.7825(3) 0.2221(2) 0.0268 Uani
H15 H -0.0988 0.7349 0.2399 0.0320 Uiso
C22 C -0.24903(14) 0.8810(3) 0.05963(17) 0.0211 Uani
C23 C -0.23145(14) 0.9622(3) 0.04150(16) 0.0226 Uani
C24 C -0.25087(16) 1.0347(3) 0.05997(19) 0.0279 Uani
H16 H -0.2736 1.0336 0.0882 0.0340 Uiso
C25 C -0.23722(18) 1.1088(3) 0.0373(2) 0.0347 Uani
H17 H -0.2506 1.1585 0.0495 0.0420 Uiso
C26 C -0.20358(16) 1.1088(3) -0.00341(19) 0.0296 Uani
C27 C -0.18242(16) 1.0380(3) -0.0202(2) 0.0307 Uani
H18 H -0.1584 1.0398 -0.0467 0.0370 Uiso
C28 C -0.19647(14) 0.9639(3) 0.00186(18) 0.0248 Uani
H19 H -0.1824 0.9145 -0.0099 0.0300 Uiso
C29 C -0.24569(15) 1.2678(3) -0.25641(18) 0.0251 Uani
C30 C -0.23242(15) 1.2436(3) -0.19516(18) 0.0232 Uani
C31 C -0.25389(15) 1.1796(3) -0.16801(18) 0.0252 Uani
H20 H -0.2784 1.1510 -0.1880 0.0300 Uiso
C32 C -0.24019(15) 1.1564(3) -0.11209(19) 0.0268 Uani
H21 H -0.2549 1.1119 -0.0941 0.0320 Uiso
C33 C -0.20483(16) 1.1992(3) -0.08310(18) 0.0280 Uani
C34 C -0.18268(17) 1.2637(3) -0.1093(2) 0.0315 Uani
H22 H -0.1582 1.2922 -0.0891 0.0380 Uiso
C35 C -0.19665(16) 1.2859(3) -0.16518(19) 0.0286 Uani
H23 H -0.1818 1.3302 -0.1832 0.0340 Uiso
O16 O -0.16517(11) 0.53830(19) 0.21912(13) 0.0295 Uani
N1 N -0.13065(15) 0.4273(3) 0.25851(18) 0.0373 Uani
C36 C -0.14581(16) 0.4728(3) 0.2138(2) 0.0327 Uani
H24 H -0.1413 0.4532 0.1759 0.0390 Uiso
C37 C -0.1384(2) 0.4548(3) 0.3173(2) 0.0457 Uani
H25 H -0.1388 0.5146 0.3184 0.0690 Uiso
H26 H -0.1134 0.4344 0.3437 0.0690 Uiso
H27 H -0.1683 0.4338 0.3293 0.0690 Uiso
C38 C -0.1128(2) 0.3444(4) 0.2495(3) 0.0537 Uani
H28 H -0.1122 0.3335 0.2080 0.0810 Uiso
H29 H -0.1330 0.3046 0.2673 0.0810 Uiso
H30 H -0.0813 0.3400 0.2671 0.0810 Uiso
O17 O -0.26198(11) 0.5248(2) 0.17109(12) 0.0287 Uani
N2 N -0.30395(14) 0.4638(3) 0.23955(17) 0.0341 Uani
C39 C -0.26727(16) 0.5030(3) 0.22188(19) 0.0296 Uani
H31 H -0.2431 0.5156 0.2499 0.0350 Uiso
C40 C -0.34232(17) 0.4405(3) 0.2003(2) 0.0404 Uani
H32 H -0.3369 0.4610 0.1616 0.0600 Uiso
H33 H -0.3712 0.4637 0.2137 0.0600 Uiso
H34 H -0.3448 0.3808 0.1993 0.0600 Uiso
C41 C -0.3065(2) 0.4405(4) 0.3000(2) 0.0459 Uani
H35 H -0.2794 0.4621 0.3222 0.0690 Uiso
H36 H -0.3069 0.3808 0.3031 0.0690 Uiso
H37 H -0.3349 0.4628 0.3153 0.0690 Uiso
O6A O 0.16222(9) 0.78428(17) 0.40684(12) 0.0209 Uani
O7A O 0.14770(11) 0.68366(19) 0.34313(14) 0.0311 Uani
C15A C 0.14179(14) 0.7537(3) 0.36302(18) 0.0221 Uani
C16A C 0.10533(14) 0.8059(3) 0.33200(18) 0.0216 Uani
C17A C 0.08957(15) 0.8777(3) 0.35621(19) 0.0252 Uani
H12A H 0.1030 0.8955 0.3923 0.0300 Uiso
C18A C 0.05487(15) 0.9235(3) 0.3289(2) 0.0283 Uani
H13A H 0.0441 0.9720 0.3462 0.0340 Uiso
C19A C 0.03594(15) 0.8976(3) 0.2759(2) 0.0333 Uani
C20A C 0.05249(16) 0.8286(3) 0.2496(2) 0.0318 Uani
H14A H 0.0402 0.8126 0.2125 0.0380 Uiso
C21A C 0.08731(14) 0.7825(3) 0.2779(2) 0.0268 Uani
H15A H 0.0988 0.7349 0.2601 0.0320 Uiso
Co1A Co 0.201940(17) 0.71863(3) 0.46484(2) 0.0163 Uani
Co2A Co 0.204893(18) 0.60635(3) 0.34334(2) 0.0182 Uani
Co3A Co 0.29116(2) 0.75547(4) 0.37019(3) 0.0329 Uani
O1A O 0.16446(9) 0.61350(17) 0.47450(12) 0.0199 Uani
O2A O 0.18518(10) 0.52597(17) 0.40538(12) 0.0225 Uani
O3A O 0.04661(11) 0.3023(2) 0.53859(16) 0.0365 Uani
O4A O -0.16622(10) 0.23888(17) 0.46226(12) 0.0218 Uani
O5A O -0.14036(12) 0.2859(2) 0.38085(14) 0.0377 Uani
O9A O 0.24405(9) 0.82299(17) 0.47603(11) 0.0191 Uani
O10A O 0.26792(10) 0.87213(19) 0.39302(12) 0.0250 Uani
O11A O 0.18945(13) 1.1834(2) 0.52635(14) 0.0367 Uani
O12A O 0.27292(11) 1.2221(2) 0.78620(13) 0.0302 Uani
O13A O 0.22774(13) 1.3321(2) 0.77355(13) 0.0357 Uani
O14A O 0.24473(9) 0.67601(17) 0.40116(11) 0.0188 Uani
H1A H 0.2627 0.6421 0.4187 0.0280 Uiso
O15A O 0.32925(14) 0.6375(2) 0.35217(17) 0.0495 Uani
H2A H 0.3490 0.6385 0.3262 0.0740 Uiso
H3A H 0.3041 0.6140 0.3411 0.0740 Uiso
C1A C 0.16402(13) 0.5446(2) 0.44991(17) 0.0177 Uani
C2A C 0.13474(14) 0.4792(3) 0.47526(18) 0.0212 Uani
C3A C 0.13979(14) 0.3983(3) 0.46026(18) 0.0228 Uani
H4A H 0.1633 0.3831 0.4351 0.0270 Uiso
C4A C 0.11075(14) 0.3387(3) 0.4815(2) 0.0261 Uani
H5A H 0.1145 0.2830 0.4714 0.0310 Uiso
C5A C 0.07649(15) 0.3617(3) 0.5174(2) 0.0324 Uani
C6A C 0.07122(19) 0.4418(3) 0.5341(3) 0.0485 Uani
H6A H 0.0478 0.4567 0.5595 0.0580 Uiso
C7A C 0.10088(18) 0.5006(3) 0.5130(3) 0.0424 Uani
H7A H 0.0979 0.5559 0.5245 0.0510 Uiso
C8A C -0.13306(16) 0.2662(3) 0.43334(19) 0.0263 Uani
C9A C -0.08542(15) 0.2740(3) 0.4594(2) 0.0260 Uani
C10A C -0.05030(16) 0.3115(3) 0.4290(2) 0.0322 Uani
H8A H -0.0569 0.3298 0.3906 0.0390 Uiso
C11A C -0.00608(16) 0.3220(3) 0.4544(2) 0.0328 Uani
H9A H 0.0174 0.3481 0.4338 0.0390 Uiso
C12A C 0.00365(15) 0.2943(3) 0.5100(2) 0.0290 Uani
C13A C -0.03052(15) 0.2548(3) 0.5401(2) 0.0287 Uani
H10A H -0.0235 0.2341 0.5778 0.0340 Uiso
C14A C -0.07467(15) 0.2457(3) 0.5149(2) 0.0269 Uani
H11A H -0.0980 0.2198 0.5358 0.0320 Uiso
C22A C 0.24903(14) 0.8810(3) 0.44037(17) 0.0211 Uani
C23A C 0.23145(14) 0.9622(3) 0.45850(16) 0.0226 Uani
C24A C 0.25087(16) 1.0347(3) 0.44003(19) 0.0279 Uani
H16A H 0.2736 1.0336 0.4118 0.0340 Uiso
C25A C 0.23722(18) 1.1088(3) 0.4627(2) 0.0347 Uani
H17A H 0.2506 1.1585 0.4505 0.0420 Uiso
C26A C 0.20358(16) 1.1088(3) 0.50341(19) 0.0296 Uani
C27A C 0.18242(16) 1.0380(3) 0.5202(2) 0.0307 Uani
H18A H 0.1584 1.0398 0.5467 0.0370 Uiso
C28A C 0.19647(14) 0.9639(3) 0.49814(18) 0.0248 Uani
H19A H 0.1824 0.9145 0.5099 0.0300 Uiso
C29A C 0.24569(15) 1.2678(3) 0.75641(18) 0.0251 Uani
C30A C 0.23242(15) 1.2436(3) 0.69516(18) 0.0232 Uani
C31A C 0.25389(15) 1.1796(3) 0.66801(18) 0.0252 Uani
H20A H 0.2784 1.1510 0.6880 0.0300 Uiso
C32A C 0.24019(15) 1.1564(3) 0.61209(19) 0.0268 Uani
H21A H 0.2549 1.1119 0.5941 0.0320 Uiso
C33A C 0.20483(16) 1.1992(3) 0.58310(18) 0.0280 Uani
C34A C 0.18268(17) 1.2637(3) 0.6093(2) 0.0315 Uani
H22A H 0.1582 1.2922 0.5891 0.0380 Uiso
C35A C 0.19665(16) 1.2859(3) 0.66518(19) 0.0286 Uani
H23A H 0.1818 1.3302 0.6832 0.0340 Uiso
O16A O 0.16517(11) 0.53830(19) 0.28088(13) 0.0295 Uani
N1A N 0.13065(15) 0.4273(3) 0.24149(18) 0.0373 Uani
C36A C 0.14581(16) 0.4728(3) 0.2862(2) 0.0327 Uani
H24A H 0.1413 0.4532 0.3241 0.0390 Uiso
C37A C 0.1384(2) 0.4548(3) 0.1827(2) 0.0457 Uani
H25A H 0.1388 0.5146 0.1816 0.0690 Uiso
H26A H 0.1134 0.4344 0.1563 0.0690 Uiso
H27A H 0.1683 0.4338 0.1707 0.0690 Uiso
C38A C 0.1128(2) 0.3444(4) 0.2505(3) 0.0537 Uani
H28A H 0.1122 0.3335 0.2920 0.0810 Uiso
H29A H 0.1330 0.3046 0.2327 0.0810 Uiso
H30A H 0.0813 0.3400 0.2329 0.0810 Uiso
O17A O 0.26198(11) 0.5248(2) 0.32891(12) 0.0287 Uani
N2A N 0.30395(14) 0.4638(3) 0.26045(17) 0.0341 Uani
C39A C 0.26727(16) 0.5030(3) 0.27812(19) 0.0296 Uani
H31A H 0.2431 0.5156 0.2501 0.0350 Uiso
C40A C 0.34232(17) 0.4405(3) 0.2997(2) 0.0404 Uani
H32A H 0.3369 0.4610 0.3384 0.0600 Uiso
H33A H 0.3712 0.4637 0.2863 0.0600 Uiso
H34A H 0.3448 0.3808 0.3007 0.0600 Uiso
C41A C 0.3065(2) 0.4405(4) 0.2000(2) 0.0459 Uani
H35A H 0.2794 0.4621 0.1778 0.0690 Uiso
H36A H 0.3069 0.3808 0.1969 0.0690 Uiso
H37A H 0.3349 0.4628 0.1847 0.0690 Uiso
Co1D Co 0.201940(17) 0.28137(3) -0.03516(2) 0.0163 Uani
Co1E Co -0.201940(17) 0.28137(3) 0.53516(2) 0.0163 Uani
Co1F Co -0.298060(17) 0.78137(3) -0.03516(2) 0.0163 Uani
Co1G Co 0.298060(17) 0.78137(3) 0.53516(2) 0.0163 Uani
Co2D Co 0.204893(18) 1.39365(3) 0.84334(2) 0.0182 Uani
Co2E Co -0.204893(18) 1.39365(3) -0.34334(2) 0.0182 Uani
Co3B Co 0.20884(2) 0.25547(4) 0.12981(3) 0.0329 Uani
Co3C Co -0.20884(2) 0.25547(4) 0.37019(3) 0.0329 Uani
Co3D Co 0.29116(2) 1.24453(4) 0.87019(3) 0.0329 Uani
Co3E Co -0.29116(2) 1.24453(4) -0.37019(3) 0.0329 Uani
O4B O -0.33378(10) 0.73888(17) 0.03774(12) 0.0218 Uani
O4C O 0.33378(10) 0.73888(17) 0.46226(12) 0.0218 Uani
O4D O -0.16622(10) 0.76112(17) -0.03774(12) 0.0218 Uani
O4E O 0.16622(10) 0.76112(17) 0.53774(12) 0.0218 Uani
O5B O -0.35964(12) 0.7859(2) 0.11915(14) 0.0377 Uani
O5C O 0.35964(12) 0.7859(2) 0.38085(14) 0.0377 Uani
O9F O -0.25595(9) 0.67701(17) -0.02397(11) 0.0191 Uani
O9G O 0.25595(9) 0.67701(17) 0.52397(11) 0.0191 Uani
O12D O 0.27292(11) 0.7779(2) 0.28620(13) 0.0302 Uani
O12E O -0.27292(11) 0.7779(2) 0.21380(13) 0.0302 Uani
O13D O 0.22774(13) 0.6679(2) 0.27355(13) 0.0357 Uani
O13E O -0.22774(13) 0.6679(2) 0.22645(13) 0.0357 Uani
O18 O 0.05867(18) 1.0371(3) 0.4514(2) 0.0729 Uani
N3 N 0.05941(17) 1.0113(4) 0.5483(2) 0.0555 Uani
C42 C 0.0585(2) 0.9874(5) 0.4941(3) 0.0704 Uani
H38 H 0.0576 0.9305 0.4862 0.0840 Uiso
C43 C 0.0587(2) 1.0918(4) 0.5707(4) 0.0698 Uani
H39 H 0.0642 1.1309 0.5398 0.1050 Uiso
H40 H 0.0831 1.0975 0.6014 0.1050 Uiso
H41 H 0.0284 1.1025 0.5864 0.1050 Uiso
C44 C 0.0571(3) 0.9456(5) 0.5932(4) 0.0761 Uani
H42 H 0.0509 0.8930 0.5742 0.1140 Uiso
H43 H 0.0321 0.9580 0.6189 0.1140 Uiso
H44 H 0.0867 0.9429 0.6157 0.1140 Uiso
O19 O -0.0191(3) 0.5880(3) 0.6692(2) 0.0644 Uani
N4 N -0.0097(2) 0.4516(3) 0.6618(2) 0.0368 Uani
C45 C 0.0020(3) 0.5271(5) 0.6785(3) 0.0494 Uani
H45 H 0.0306 0.5325 0.7003 0.0590 Uiso
C46 C 0.0186(3) 0.3806(5) 0.6772(4) 0.0595 Uani
H46 H 0.0456 0.3976 0.7016 0.0900 Uiso
H47 H 0.0292 0.3549 0.6420 0.0900 Uiso
H48 H 0.0002 0.3414 0.6982 0.0900 Uiso
C47 C -0.0516(3) 0.4377(6) 0.6277(4) 0.0597 Uani
H49 H -0.0665 0.4902 0.6182 0.0890 Uiso
H50 H -0.0727 0.4041 0.6496 0.0890 Uiso
H51 H -0.0444 0.4094 0.5921 0.0890 Uiso
O20 O -0.1175(3) 0.1190(5) 0.2581(3) 0.0870 Uani
N5 N -0.0921(3) 0.1575(4) 0.1741(3) 0.0648 Uani
C48 C -0.0875(4) 0.1405(5) 0.2288(5) 0.0794 Uani
H52 H -0.0573 0.1457 0.2467 0.0950 Uiso
C49 C -0.0528(4) 0.1884(7) 0.1460(5) 0.0841 Uani
H53 H -0.0257 0.1890 0.1733 0.1260 Uiso
H54 H -0.0593 0.2440 0.1323 0.1260 Uiso
H55 H -0.0464 0.1534 0.1131 0.1260 Uiso
C50 C -0.1348(4) 0.1492(8) 0.1387(6) 0.0991 Uani
H56 H -0.1591 0.1266 0.1620 0.1480 Uiso
H57 H -0.1296 0.1125 0.1063 0.1480 Uiso
H58 H -0.1445 0.2029 0.1238 0.1480 Uiso
loop_
_atom_site_aniso_label
_atom_site_aniso_U_11
_atom_site_aniso_U_22
_atom_site_aniso_U_33
_atom_site_aniso_U_23
_atom_site_aniso_U_13
_atom_site_aniso_U_12
Co1 0.0151(3) 0.0194(3) 0.0146(3) 0.0028(2) 0.00204(19) 0.0073(2)
Co2 0.0199(3) 0.0195(3) 0.0151(3) 0.0022(2) -0.0006(2) 0.0039(2)
Co3 0.0393(4) 0.0419(4) 0.0184(3) 0.0105(3) 0.0113(3) 0.0275(3)
O1 0.0173(13) 0.0199(14) 0.0229(14) 0.0036(11) 0.0044(11) 0.0097(11)
O2 0.0245(15) 0.0228(15) 0.0206(14) 0.0035(12) 0.0056(12) 0.0054(12)
O3 0.0213(16) 0.0278(17) 0.061(2) -0.0154(16) 0.0084(15) 0.0057(13)
O4 0.0212(14) 0.0235(15) 0.0213(14) 0.0059(12) 0.0065(11) 0.0092(12)
O5 0.0353(18) 0.051(2) 0.0279(17) -0.0134(16) 0.0136(14) -0.0149(16)
O6 0.0189(14) 0.0249(15) 0.0186(14) 0.0006(12) -0.0015(11) 0.0061(12)
O7 0.0286(17) 0.0285(17) 0.0351(18) 0.0095(14) -0.0103(14) -0.0062(13)
O8 0.029(3) 0.023(2) 0.086(4) 0.000 -0.030(3) 0.000
O9 0.0197(14) 0.0235(15) 0.0142(13) 0.0028(11) 0.0012(11) 0.0094(11)
O10 0.0256(15) 0.0330(17) 0.0166(14) 0.0018(12) 0.0045(12) 0.0082(13)
O11 0.052(2) 0.0319(18) 0.0248(16) 0.0002(14) -0.0116(15) -0.0129(16)
O12 0.0381(18) 0.0337(17) 0.0189(15) -0.0048(13) 0.0037(13) -0.0139(14)
O13 0.054(2) 0.0299(18) 0.0231(16) 0.0011(13) 0.0004(15) -0.0160(16)
O14 0.0161(13) 0.0234(15) 0.0168(13) 0.0038(11) 0.0012(10) 0.0025(11)
O15 0.044(2) 0.052(2) 0.053(2) 0.0089(19) 0.0061(18) 0.0022(19)
C1 0.0118(17) 0.021(2) 0.0202(19) 0.0026(16) -0.0008(15) 0.0022(15)
C2 0.0158(19) 0.021(2) 0.027(2) -0.0004(17) 0.0020(16) 0.0044(16)
C3 0.0155(19) 0.025(2) 0.028(2) -0.0006(17) 0.0024(16) 0.0015(16)
C4 0.021(2) 0.017(2) 0.040(3) -0.0028(18) -0.0015(18) 0.0008(17)
C5 0.019(2) 0.025(2) 0.054(3) -0.010(2) 0.010(2) 0.0039(18)
C6 0.043(3) 0.027(3) 0.079(4) 0.004(3) 0.039(3) 0.007(2)
C7 0.038(3) 0.025(2) 0.067(4) 0.007(2) 0.029(3) 0.008(2)
C8 0.030(2) 0.022(2) 0.028(2) -0.0012(18) 0.0133(18) -0.0040(18)
C9 0.023(2) 0.018(2) 0.038(2) -0.0045(18) 0.0127(18) -0.0049(17)
C10 0.030(2) 0.027(2) 0.041(3) -0.015(2) 0.017(2) -0.0067(19)
C11 0.023(2) 0.028(2) 0.049(3) -0.010(2) 0.017(2) 0.0007(19)
C12 0.024(2) 0.017(2) 0.047(3) -0.0083(19) 0.011(2) -0.0011(17)
C13 0.026(2) 0.023(2) 0.038(3) -0.0070(19) 0.0092(19) 0.0045(18)
C14 0.026(2) 0.020(2) 0.036(2) -0.0070(18) 0.0132(19) 0.0037(17)
C15 0.0164(19) 0.027(2) 0.023(2) 0.0007(17) 0.0028(16) 0.0019(17)
C16 0.0148(19) 0.024(2) 0.026(2) -0.0009(17) 0.0011(16) 0.0035(16)
C17 0.023(2) 0.026(2) 0.027(2) 0.0026(18) 0.0058(17) 0.0055(17)
C18 0.021(2) 0.022(2) 0.042(3) 0.0030(19) 0.0015(19) 0.0016(17)
C19 0.018(2) 0.024(2) 0.057(3) -0.004(2) -0.008(2) 0.0019(18)
C20 0.025(2) 0.032(2) 0.037(3) 0.001(2) -0.0135(19) 0.0040(19)
C21 0.019(2) 0.028(2) 0.033(2) 0.0040(19) -0.0012(17) -0.0005(17)
C22 0.0187(19) 0.029(2) 0.0154(19) 0.0010(16) -0.0022(15) 0.0124(17)
C23 0.022(2) 0.033(2) 0.0125(18) 0.0006(16) -0.0028(15) 0.0070(18)
C24 0.036(2) 0.026(2) 0.022(2) -0.0001(18) 0.0032(18) 0.0063(19)
C25 0.048(3) 0.029(3) 0.027(2) -0.0051(19) 0.002(2) 0.005(2)
C26 0.036(3) 0.027(2) 0.025(2) 0.0011(18) -0.0052(19) -0.006(2)
C27 0.025(2) 0.040(3) 0.027(2) -0.001(2) 0.0006(18) -0.004(2)
C28 0.021(2) 0.030(2) 0.023(2) -0.0047(18) -0.0033(16) 0.0017(18)
C29 0.029(2) 0.024(2) 0.023(2) -0.0056(17) 0.0086(18) -0.0015(18)
C30 0.029(2) 0.021(2) 0.020(2) -0.0062(16) 0.0050(17) -0.0042(17)
C31 0.028(2) 0.028(2) 0.020(2) -0.0058(17) 0.0047(17) -0.0069(18)
C32 0.031(2) 0.024(2) 0.026(2) -0.0016(18) 0.0070(18) -0.0064(18)
C33 0.036(2) 0.030(2) 0.018(2) -0.0025(17) 0.0001(18) -0.0024(19)
C34 0.035(3) 0.030(2) 0.029(2) -0.0051(19) -0.0039(19) -0.011(2)
C35 0.035(2) 0.022(2) 0.029(2) -0.0016(18) 0.0047(19) -0.0087(19)
O16 0.0355(18) 0.0254(16) 0.0272(16) 0.0051(13) -0.0022(13) 0.0081(14)
N1 0.041(2) 0.035(2) 0.036(2) 0.0074(18) 0.0022(18) 0.0107(19)
C36 0.032(2) 0.034(3) 0.032(2) 0.004(2) 0.002(2) -0.001(2)
C37 0.062(4) 0.040(3) 0.035(3) 0.011(2) 0.001(3) 0.009(3)
C38 0.070(4) 0.039(3) 0.053(4) 0.013(3) 0.013(3) 0.021(3)
O17 0.0311(17) 0.0371(18) 0.0183(15) 0.0027(13) 0.0060(12) -0.0064(14)
N2 0.033(2) 0.041(2) 0.029(2) 0.0039(18) 0.0093(17) -0.0073(18)
C39 0.029(2) 0.032(2) 0.028(2) 0.0026(19) 0.0042(18) -0.0046(19)
C40 0.031(3) 0.047(3) 0.044(3) -0.002(2) 0.011(2) -0.012(2)
C41 0.046(3) 0.058(4) 0.035(3) 0.014(3) 0.014(2) -0.007(3)
O6A 0.0189 0.0249 0.0186 -0.0006 -0.0015 -0.0061
O7A 0.0286 0.0285 0.0351 -0.0095 -0.0103 0.0062
C15A 0.0164 0.027 0.023 -0.0007 0.0028 -0.0019
C16A 0.0148 0.024 0.026 0.0009 0.0011 -0.0035
C17A 0.023 0.026 0.027 -0.0026 0.0058 -0.0055
C18A 0.021 0.022 0.042 -0.003 0.0015 -0.0016
C19A 0.018 0.024 0.057 0.004 -0.008 -0.0019
C20A 0.025 0.032 0.037 -0.001 -0.0135 -0.004
C21A 0.019 0.028 0.033 -0.004 -0.0012 0.0005
Co1A 0.0151 0.0194 0.0146 -0.0028 0.00204 -0.0073
Co2A 0.0199 0.0195 0.0151 -0.0022 -0.0006 -0.0039
Co3A 0.0393 0.0419 0.0184 -0.0105 0.0113 -0.0275
O1A 0.0173 0.0199 0.0229 -0.0036 0.0044 -0.0097
O2A 0.0245 0.0228 0.0206 -0.0035 0.0056 -0.0054
O3A 0.0213 0.0278 0.061 0.0154 0.0084 -0.0057
O4A 0.0212 0.0235 0.0213 -0.0059 0.0065 -0.0092
O5A 0.0353 0.051 0.0279 0.0134 0.0136 0.0149
O9A 0.0197 0.0235 0.0142 -0.0028 0.0012 -0.0094
O10A 0.0256 0.033 0.0166 -0.0018 0.0045 -0.0082
O11A 0.052 0.0319 0.0248 -0.0002 -0.0116 0.0129
O12A 0.0381 0.0337 0.0189 0.0048 0.0037 0.0139
O13A 0.054 0.0299 0.0231 -0.0011 0.0004 0.016
O14A 0.0161 0.0234 0.0168 -0.0038 0.0012 -0.0025
O15A 0.044 0.052 0.053 -0.0089 0.0061 -0.0022
C1A 0.0118 0.021 0.0202 -0.0026 -0.0008 -0.0022
C2A 0.0158 0.021 0.027 0.0004 0.002 -0.0044
C3A 0.0155 0.025 0.028 0.0006 0.0024 -0.0015
C4A 0.021 0.017 0.04 0.0028 -0.0015 -0.0008
C5A 0.019 0.025 0.054 0.01 0.01 -0.0039
C6A 0.043 0.027 0.079 -0.004 0.039 -0.007
C7A 0.038 0.025 0.067 -0.007 0.029 -0.008
C8A 0.03 0.022 0.028 0.0012 0.0133 0.004
C9A 0.023 0.018 0.038 0.0045 0.0127 0.0049
C10A 0.03 0.027 0.041 0.015 0.017 0.0067
C11A 0.023 0.028 0.049 0.01 0.017 -0.0007
C12A 0.024 0.017 0.047 0.0083 0.011 0.0011
C13A 0.026 0.023 0.038 0.007 0.0092 -0.0045
C14A 0.026 0.02 0.036 0.007 0.0132 -0.0037
C22A 0.0187 0.029 0.0154 -0.001 -0.0022 -0.0124
C23A 0.022 0.033 0.0125 -0.0006 -0.0028 -0.007
C24A 0.036 0.026 0.022 0.0001 0.0032 -0.0063
C25A 0.048 0.029 0.027 0.0051 0.002 -0.005
C26A 0.036 0.027 0.025 -0.0011 -0.0052 0.006
C27A 0.025 0.04 0.027 0.001 0.0006 0.004
C28A 0.021 0.03 0.023 0.0047 -0.0033 -0.0017
C29A 0.029 0.024 0.023 0.0056 0.0086 0.0015
C30A 0.029 0.021 0.02 0.0062 0.005 0.0042
C31A 0.028 0.028 0.02 0.0058 0.0047 0.0069
C32A 0.031 0.024 0.026 0.0016 0.007 0.0064
C33A 0.036 0.03 0.018 0.0025 0.0001 0.0024
C34A 0.035 0.03 0.029 0.0051 -0.0039 0.011
C35A 0.035 0.022 0.029 0.0016 0.0047 0.0087
O16A 0.0355 0.0254 0.0272 -0.0051 -0.0022 -0.0081
N1A 0.041 0.035 0.036 -0.0074 0.0022 -0.0107
C36A 0.032 0.034 0.032 -0.004 0.002 0.001
C37A 0.062 0.04 0.035 -0.011 0.001 -0.009
C38A 0.07 0.039 0.053 -0.013 0.013 -0.021
O17A 0.0311 0.0371 0.0183 -0.0027 0.006 0.0064
N2A 0.033 0.041 0.029 -0.0039 0.0093 0.0073
C39A 0.029 0.032 0.028 -0.0026 0.0042 0.0046
C40A 0.031 0.047 0.044 0.002 0.011 0.012
C41A 0.046 0.058 0.035 -0.014 0.014 0.007
Co1D 0.0151 0.0194 0.0146 0.0028 0.00204 0.0073
Co1E 0.0151 0.0194 0.0146 -0.0028 0.00204 -0.0073
Co1F 0.0151 0.0194 0.0146 0.0028 0.00204 0.0073
Co1G 0.0151 0.0194 0.0146 -0.0028 0.00204 -0.0073
Co2D 0.0199 0.0195 0.0151 0.0022 -0.0006 0.0039
Co2E 0.0199 0.0195 0.0151 -0.0022 -0.0006 -0.0039
Co3B 0.0393 0.0419 0.0184 0.0105 0.0113 0.0275
Co3C 0.0393 0.0419 0.0184 -0.0105 0.0113 -0.0275
Co3D 0.0393 0.0419 0.0184 0.0105 0.0113 0.0275
Co3E 0.0393 0.0419 0.0184 -0.0105 0.0113 -0.0275
O4B 0.0212 0.0235 0.0213 0.0059 0.0065 0.0092
O4C 0.0212 0.0235 0.0213 -0.0059 0.0065 -0.0092
O4D 0.0212 0.0235 0.0213 0.0059 0.0065 0.0092
O4E 0.0212 0.0235 0.0213 -0.0059 0.0065 -0.0092
O5B 0.0353 0.051 0.0279 -0.0134 0.0136 -0.0149
O5C 0.0353 0.051 0.0279 0.0134 0.0136 0.0149
O9F 0.0197 0.0235 0.0142 0.0028 0.0012 0.0094
O9G 0.0197 0.0235 0.0142 -0.0028 0.0012 -0.0094
O12D 0.0381 0.0337 0.0189 -0.0048 0.0037 -0.0139
O12E 0.0381 0.0337 0.0189 0.0048 0.0037 0.0139
O13D 0.054 0.0299 0.0231 0.0011 0.0004 -0.016
O13E 0.054 0.0299 0.0231 -0.0011 0.0004 0.016
O18 0.071(3) 0.075(3) 0.072(3) 0.012(3) -0.002(3) -0.002(3)
N3 0.039(3) 0.075(4) 0.052(3) -0.021(3) -0.003(2) 0.011(3)
C42 0.061(4) 0.074(5) 0.076(5) -0.021(4) 0.002(4) -0.003(4)
C43 0.057(4) 0.048(4) 0.105(6) -0.012(4) 0.009(4) 0.010(3)
C44 0.074(5) 0.064(5) 0.090(6) 0.017(4) 0.000(4) 0.012(4)
O19 0.109(5) 0.039(3) 0.047(3) 0.005(3) 0.022(3) 0.001(3)
N4 0.040(3) 0.035(3) 0.036(3) 0.003(2) 0.007(2) -0.003(3)
C45 0.058(5) 0.045(5) 0.047(4) -0.003(4) 0.021(4) -0.009(4)
C46 0.073(6) 0.051(5) 0.055(5) 0.011(4) 0.009(4) 0.021(4)
C47 0.033(4) 0.066(6) 0.079(6) -0.029(5) -0.007(4) 0.005(4)
O20 0.095(4) 0.081(4) 0.090(4) -0.006(3) 0.054(3) -0.003(3)
N5 0.121(7) 0.030(3) 0.045(4) 0.000(3) 0.021(4) 0.002(4)
C48 0.117(9) 0.035(4) 0.092(8) -0.014(5) 0.063(7) -0.015(5)
C49 0.085(8) 0.062(6) 0.108(9) -0.014(6) 0.032(7) 0.003(6)
C50 0.084(8) 0.091(9) 0.125(11) 0.002(8) 0.033(8) -0.008(7)
loop_
_geom_bond_atom_site_label_1
_geom_bond_atom_site_label_2
_geom_bond_site_symmetry_1
_geom_bond_site_symmetry_2
Co1 O1 1_555 1_555
Co2 O2 1_555 1_555
Co3 O10 1_555 1_555
O1 C1 1_555 1_555
O2 C1 1_555 1_555
O3 C5 1_555 1_555
O4 C8 1_555 1_555
O5 C8 1_555 1_555
O6 Co1 1_555 1_555
O7 Co2 1_555 1_555
O8 C19 1_555 1_555
O9 Co1 1_555 1_555
O10 C22 1_555 1_555
O11 C26 1_555 1_555
O12 C29 1_555 1_555
O13 C29 1_555 1_555
O14 Co1 1_555 1_555
H1 O14 1_555 1_555
O15 Co3 1_555 1_555
H2 O15 1_555 1_555
H3 O15 1_555 1_555
C1 C2 1_555 1_555
C2 C3 1_555 1_555
C3 H4 1_555 1_555
C4 C3 1_555 1_555
H5 C4 1_555 1_555
C5 C4 1_555 1_555
C6 C5 1_555 1_555
H6 C6 1_555 1_555
C7 C2 1_555 1_555
H7 C7 1_555 1_555
C8 C9 1_555 1_555
C9 C10 1_555 1_555
C10 H8 1_555 1_555
C11 C10 1_555 1_555
H9 C11 1_555 1_555
C12 O3 1_555 1_555
C13 C12 1_555 1_555
H10 C13 1_555 1_555
C14 C9 1_555 1_555
H11 C14 1_555 1_555
C15 O6 1_555 1_555
C16 C15 1_555 1_555
C17 C16 1_555 1_555
H12 C17 1_555 1_555
C18 C17 1_555 1_555
H13 C18 1_555 1_555
C19 C18 1_555 1_555
C20 C19 1_555 1_555
H14 C20 1_555 1_555
C21 C16 1_555 1_555
H15 C21 1_555 1_555
C22 O9 1_555 1_555
C23 C22 1_555 1_555
C24 C23 1_555 1_555
H16 C24 1_555 1_555
C25 C24 1_555 1_555
H17 C25 1_555 1_555
C26 C25 1_555 1_555
C27 C26 1_555 1_555
H18 C27 1_555 1_555
C28 C23 1_555 1_555
H19 C28 1_555 1_555
C29 C30 1_555 1_555
C30 C31 1_555 1_555
C31 H20 1_555 1_555
C32 C31 1_555 1_555
H21 C32 1_555 1_555
C33 O11 1_555 1_555
C34 C33 1_555 1_555
H22 C34 1_555 1_555
C35 C30 1_555 1_555
H23 C35 1_555 1_555
O16 Co2 1_555 1_555
N1 C36 1_555 1_555
C36 O16 1_555 1_555
H24 C36 1_555 1_555
C37 N1 1_555 1_555
H25 C37 1_555 1_555
H26 C37 1_555 1_555
H27 C37 1_555 1_555
C38 N1 1_555 1_555
H28 C38 1_555 1_555
H29 C38 1_555 1_555
H30 C38 1_555 1_555
O17 Co2 1_555 1_555
N2 C39 1_555 1_555
C39 O17 1_555 1_555
H31 C39 1_555 1_555
C40 N2 1_555 1_555
H32 C40 1_555 1_555
H33 C40 1_555 1_555
H34 C40 1_555 1_555
C41 N2 1_555 1_555
H35 C41 1_555 1_555
H36 C41 1_555 1_555
H37 C41 1_555 1_555
O18 C42 1_555 1_555
N3 C42 1_555 1_555
C42 H38 1_555 1_555
C43 N3 1_555 1_555
H39 C43 1_555 1_555
H40 C43 1_555 1_555
H41 C43 1_555 1_555
C44 N3 1_555 1_555
H42 C44 1_555 1_555
H43 C44 1_555 1_555
H44 C44 1_555 1_555
O19 C45 1_555 1_555
N4 C45 1_555 1_555
C45 H45 1_555 1_555
C46 N4 1_555 1_555
H46 C46 1_555 1_555
H47 C46 1_555 1_555
H48 C46 1_555 1_555
C47 N4 1_555 1_555
H49 C47 1_555 1_555
H50 C47 1_555 1_555
H51 C47 1_555 1_555
O20 C48 1_555 1_555
N5 C48 1_555 1_555
C48 H52 1_555 1_555
C49 N5 1_555 1_555
H53 C49 1_555 1_555
H54 C49 1_555 1_555
H55 C49 1_555 1_555
C50 N5 1_555 1_555
H56 C50 1_555 1_555
H57 C50 1_555 1_555
H58 C50 1_555 1_555
O6A C15A 1_555 1_555
O7A C15A 1_555 1_555
C15A C16A 1_555 1_555
C16A C17A 1_555 1_555
C17A H12A 1_555 1_555
C18A C17A 1_555 1_555
H13A C18A 1_555 1_555
C19A O8 1_555 1_555
C20A C19A 1_555 1_555
H14A C20A 1_555 1_555
C21A C16A 1_555 1_555
H15A C21A 1_555 1_555
Co1A O6A 1_555 1_555
Co2A O7A 1_555 1_555
Co3A O10A 1_555 1_555
O1A Co1A 1_555 1_555
O2A Co2A 1_555 1_555
O3A C5A 1_555 1_555
O4A C8A 1_555 1_555
O5A C8A 1_555 1_555
O9A Co1A 1_555 1_555
O10A C22A 1_555 1_555
O11A C26A 1_555 1_555
O12A C29A 1_555 1_555
O13A C29A 1_555 1_555
O14A Co1A 1_555 1_555
H1A O14A 1_555 1_555
O15A Co3A 1_555 1_555
H2A O15A 1_555 1_555
H3A O15A 1_555 1_555
C1A O1A 1_555 1_555
C2A C1A 1_555 1_555
C3A C2A 1_555 1_555
H4A C3A 1_555 1_555
C4A C3A 1_555 1_555
H5A C4A 1_555 1_555
C5A C4A 1_555 1_555
C6A C5A 1_555 1_555
H6A C6A 1_555 1_555
C7A C2A 1_555 1_555
H7A C7A 1_555 1_555
C8A C9A 1_555 1_555
C9A C10A 1_555 1_555
C10A H8A 1_555 1_555
C11A C10A 1_555 1_555
H9A C11A 1_555 1_555
C12A O3A 1_555 1_555
C13A C12A 1_555 1_555
H10A C13A 1_555 1_555
C14A C9A 1_555 1_555
H11A C14A 1_555 1_555
C22A O9A 1_555 1_555
C23A C22A 1_555 1_555
C24A C23A 1_555 1_555
H16A C24A 1_555 1_555
C25A C24A 1_555 1_555
H17A C25A 1_555 1_555
C26A C25A 1_555 1_555
C27A C26A 1_555 1_555
H18A C27A 1_555 1_555
C28A C23A 1_555 1_555
H19A C28A 1_555 1_555
C29A C30A 1_555 1_555
C30A C31A 1_555 1_555
C31A H20A 1_555 1_555
C32A C31A 1_555 1_555
H21A C32A 1_555 1_555
C33A O11A 1_555 1_555
C34A C33A 1_555 1_555
H22A C34A 1_555 1_555
C35A C30A 1_555 1_555
H23A C35A 1_555 1_555
O16A Co2A 1_555 1_555
N1A C36A 1_555 1_555
C36A O16A 1_555 1_555
H24A C36A 1_555 1_555
C37A N1A 1_555 1_555
H25A C37A 1_555 1_555
H26A C37A 1_555 1_555
H27A C37A 1_555 1_555
C38A N1A 1_555 1_555
H28A C38A 1_555 1_555
H29A C38A 1_555 1_555
H30A C38A 1_555 1_555
O17A Co2A 1_555 1_555
N2A C39A 1_555 1_555
C39A O17A 1_555 1_555
H31A C39A 1_555 1_555
C40A N2A 1_555 1_555
H32A C40A 1_555 1_555
H33A C40A 1_555 1_555
H34A C40A 1_555 1_555
C41A N2A 1_555 1_555
H35A C41A 1_555 1_555
H36A C41A 1_555 1_555
H37A C41A 1_555 1_555
Co1D O4 1_555 1_555
Co1E O4A 1_555 1_555
Co1F O9 1_555 1_555
Co1G O9A 1_555 1_555
Co2D O13A 1_555 1_555
Co2E O13 1_555 1_555
Co3B O4 1_555 1_555
Co3C O4A 1_555 1_555
Co3D O12A 1_555 1_555
Co3E O12 1_555 1_555
O4B Co3 1_555 1_555
O4C Co3A 1_555 1_555
O4D Co1 1_555 1_555
O4E Co1A 1_555 1_555
O5B Co3 1_555 1_555
O5C Co3A 1_555 1_555
O9F Co1 1_555 1_555
O9G Co1A 1_555 1_555
O12D Co3A 1_555 1_555
O12E Co3 1_555 1_555
O13D Co2A 1_555 1_555
O13E Co2 1_555 1_555
Co2 O14 1_555 1_555
Co3 O14 1_555 1_555
O5 Co3B 1_555 1_555
O7 C15 1_555 1_555
C6 C7 1_555 1_555
C11 C12 1_555 1_555
C13 C14 1_555 1_555
C20 C21 1_555 1_555
C27 C28 1_555 1_555
C32 C33 1_555 1_555
C34 C35 1_555 1_555
C18A C19A 1_555 1_555
C20A C21A 1_555 1_555
Co2A O14A 1_555 1_555
Co3A O14A 1_555 1_555
O2A C1A 1_555 1_555
O5A Co3C 1_555 1_555
C6A C7A 1_555 1_555
C11A C12A 1_555 1_555
C13A C14A 1_555 1_555
C27A C28A 1_555 1_555
C32A C33A 1_555 1_555
C34A C35A 1_555 1_555
Co1F O4B 1_555 1_555
Co1F O9F 1_555 1_555
Co1G O4C 1_555 1_555
Co1G O9G 1_555 1_555

#END
