
#######################################################################
#
#                 Cambridge Crystallographic Data Centre
#                                CCDC 
#
#######################################################################
#
# If this CIF has been generated from an entry in the Cambridge 
# Structural Database, then it will include bibliographic, chemical, 
# crystal, experimental, refinement or atomic coordinate data resulting 
# from the CCDC's data processing and validation procedures.
#
#######################################################################

data_CUWNOZ
_chemical_formula_moiety         '(C103 H87 Co6 N8 O35 1-)n'
_symmetry_cell_setting           monoclinic
_symmetry_space_group_name_H-M   'P 21/c'
_symmetry_Int_Tables_number      14
_space_group_name_Hall           '-P 2ybc'
loop_
_symmetry_equiv_pos_site_id
_symmetry_equiv_pos_as_xyz
1 x,y,z
2 -x,1/2+y,1/2-z
3 -x,-y,-z
4 x,1/2-y,1/2+z
_cell_length_a                   15.8983(14)
_cell_length_b                   26.422(3)
_cell_length_c                   16.3418(15)
_cell_angle_alpha                90
_cell_angle_beta                 116.881(2)
_cell_angle_gamma                90
_cell_volume                     6122.88
loop_
_atom_site_label
_atom_site_type_symbol
_atom_site_fract_x
_atom_site_fract_y
_atom_site_fract_z
Co1 Co 0.23019(5) 0.50347(3) 0.52220(5)
Co2 Co 0.44686(5) 0.50841(3) 0.67991(5)
Co3 Co 0.39105(5) 0.52369(3) 0.44082(5)
N1 N 0.0877(3) 0.50248(16) 0.5015(3)
O1 O 0.3915(3) 0.44325(14) 0.7112(3)
O2 O 0.2426(3) 0.43873(14) 0.6015(3)
O3 O 0.2351(4) 0.25734(16) 0.8487(4)
O4 O 0.4861(2) 0.07336(13) 0.8400(2)
O5 O 0.4682(2) 0.05013(12) 0.9627(2)
O6 O 0.2588(3) 0.54857(15) 0.6394(3)
O7 O 0.4039(3) 0.55482(14) 0.7529(3)
O8 O 0.1716(3) 0.68748(14) 0.9068(3)
O9 O 0.2024(3) 0.92681(13) 0.9556(3)
O10 O 0.3352(2) 0.90765(12) 0.9464(2)
O11 O 0.4207(2) 0.54616(13) 0.3350(2)
O12 O 0.4264(2) 0.51052(14) 0.2156(2)
O13 O 0.0373(2) 0.62516(14) 0.0039(2)
O14 O -0.1838(2) 0.53981(13) -0.4034(2)
O15 O -0.2711(2) 0.50998(13) -0.3384(2)
O16 O 0.3697(2) 0.49622(15) 0.5462(2)
C1 C 0.3092(4) 0.42578(19) 0.6762(4)
C2 C 0.2892(4) 0.3837(2) 0.7262(4)
C3 C 0.1989(5) 0.3631(2) 0.6938(5)
H1 H 0.1483 0.3781 0.6421
C4 C 0.1811(5) 0.3220(2) 0.7346(5)
H2 H 0.1192 0.3084 0.7108
C5 C 0.2536(5) 0.3004(2) 0.8102(5)
C6 C 0.3424(5) 0.3198(2) 0.8467(4)
H3 H 0.3912 0.3050 0.9001
C7 C 0.3620(5) 0.3626(2) 0.8040(4)
H4 H 0.4238 0.3764 0.8285
C8 C 0.2900(5) 0.2147(2) 0.8582(5)
C9 C 0.3390(5) 0.2065(2) 0.8098(5)
H5 H 0.3376 0.2310 0.7666
C10 C 0.3906(4) 0.1633(2) 0.8228(4)
H6 H 0.4229 0.1581 0.7868
C11 C 0.3977(4) 0.1267(2) 0.8857(4)
C12 C 0.3434(5) 0.1348(2) 0.9317(5)
H7 H 0.3431 0.1099 0.9735
C13 C 0.2900(5) 0.1780(2) 0.9182(5)
H8 H 0.2532 0.1825 0.9501
C14 C 0.4557(4) 0.0802(2) 0.8964(4)
C15 C 0.3158(4) 0.56395(19) 0.7165(4)
C16 C 0.2809(4) 0.59591(19) 0.7696(4)
C17 C 0.1929(4) 0.6202(2) 0.7229(4)
H9 H 0.1568 0.6155 0.6586
C18 C 0.1589(4) 0.6505(2) 0.7693(5)
H10 H 0.1005 0.6676 0.7367
C19 C 0.2085(4) 0.6562(2) 0.8619(5)
C20 C 0.2945(4) 0.6321(2) 0.9107(4)
H11 H 0.3290 0.6362 0.9753
C21 C 0.3289(4) 0.6021(2) 0.8634(4)
H12 H 0.3874 0.5852 0.8965
C22 C 0.1903(5) 0.7387(2) 0.9098(4)
C23 C 0.1341(5) 0.7707(2) 0.9298(5)
H13 H 0.0817 0.7578 0.9364
C24 C 0.1546(4) 0.8223(2) 0.9403(4)
H14 H 0.1162 0.8445 0.9546
C25 C 0.2297(4) 0.8416(2) 0.9302(4)
C26 C 0.2845(5) 0.8087(2) 0.9095(5)
H15 H 0.3373 0.8215 0.9037
C27 C 0.2646(5) 0.7576(2) 0.8970(5)
H16 H 0.3014 0.7358 0.8797
C28 C 0.2580(4) 0.8973(2) 0.9454(3)
C29 C 0.3856(3) 0.53817(19) 0.2493(4)
C30 C 0.2935(3) 0.56237(19) 0.1836(3)
C31 C 0.2446(4) 0.59239(19) 0.2145(4)
H17 H 0.2698 0.5995 0.2782
C32 C 0.1581(4) 0.6129(2) 0.1537(4)
H18 H 0.1235 0.6336 0.1754
C33 C 0.1231(3) 0.60247(19) 0.0603(4)
C34 C 0.1717(4) 0.5722(2) 0.0288(4)
H19 H 0.1467 0.5647 -0.0348
C35 C 0.2584(4) 0.5526(2) 0.0908(4)
H20 H 0.2938 0.5324 0.0693
C36 C -0.0186(3) 0.6017(2) -0.0817(4)
C37 C -0.0596(4) 0.5555(2) -0.0813(4)
H21 H -0.0469 0.5389 -0.0253
C38 C -0.1202(4) 0.5343(2) -0.1657(4)
H22 H -0.1514 0.5033 -0.1673
C39 C -0.1356(3) 0.5574(2) -0.2466(4)
C40 C -0.0902(4) 0.6027(2) -0.2439(4)
H23 H -0.0988 0.6184 -0.2994
C41 C -0.0330(4) 0.6250(2) -0.1610(4)
H24 H -0.0036 0.6566 -0.1593
C42 C -0.2016(4) 0.53370(19) -0.3374(4)
C43 C 0.0407(4) 0.4591(2) 0.4872(4)
H25 H 0.056(4) 0.433(2) 0.475(4)
C44 C 0.0451(4) 0.5438(2) 0.5134(4)
H26 H 0.079(3) 0.5741(19) 0.521(3)
H27 H 0.387(5) 0.469(3) 0.551(5)
N1B N -0.0877(3) 0.49752(16) 0.4985(3)
C43B C -0.0407(4) 0.5409(2) 0.5128(4)
H25B H -0.056(4) 0.567(2) 0.525(4)
C44B C -0.0451(4) 0.4562(2) 0.4866(4)
H26B H -0.079(3) 0.4259(19) 0.479(3)
Co1B Co -0.23019(5) 0.49653(3) -0.52220(5)
Co2B Co -0.44686(5) 0.49159(3) -0.67991(5)
Co3B Co -0.39105(5) 0.47631(3) -0.44082(5)
O1B O -0.3915(3) 0.55675(14) -0.7112(3)
O2B O -0.2426(3) 0.56127(14) -0.6015(3)
O3B O -0.2351(4) 0.74266(16) -0.8487(4)
O4B O -0.4861(2) 0.92664(13) -0.8400(2)
O5B O -0.4682(2) 0.94987(12) -0.9627(2)
O6B O -0.2588(3) 0.45143(15) -0.6394(3)
O7B O -0.4039(3) 0.44518(14) -0.7529(3)
O8B O -0.1716(3) 0.31252(14) -0.9068(3)
O9B O -0.2024(3) 0.07319(13) -0.9556(3)
O10B O -0.3352(2) 0.09235(12) -0.9464(2)
O11B O -0.4207(2) 0.45384(13) -0.3350(2)
O12B O -0.4264(2) 0.48948(14) -0.2156(2)
O13B O -0.0373(2) 0.37484(14) -0.0039(2)
O14B O 0.1838(2) 0.46019(13) 0.4034(2)
O15B O 0.2711(2) 0.49002(13) 0.3384(2)
O16B O -0.3697(2) 0.50378(15) -0.5462(2)
C1B C -0.3092(4) 0.57422(19) -0.6762(4)
C2B C -0.2892(4) 0.6163(2) -0.7262(4)
C3B C -0.1989(5) 0.6369(2) -0.6938(5)
H1B H -0.1483 0.6219 -0.6421
C4B C -0.1811(5) 0.6780(2) -0.7346(5)
H2B H -0.1192 0.6916 -0.7108
C5B C -0.2536(5) 0.6996(2) -0.8102(5)
C6B C -0.3424(5) 0.6802(2) -0.8467(4)
H3B H -0.3912 0.6950 -0.9001
C7B C -0.3620(5) 0.6374(2) -0.8040(4)
H4B H -0.4238 0.6236 -0.8285
C8B C -0.2900(5) 0.7853(2) -0.8582(5)
C9B C -0.3390(5) 0.7935(2) -0.8098(5)
H5B H -0.3376 0.7690 -0.7666
C10B C -0.3906(4) 0.8367(2) -0.8228(4)
H6B H -0.4229 0.8419 -0.7868
C11B C -0.3977(4) 0.8733(2) -0.8857(4)
C12B C -0.3434(5) 0.8652(2) -0.9317(5)
H7B H -0.3431 0.8901 -0.9735
C13B C -0.2900(5) 0.8220(2) -0.9182(5)
H8B H -0.2532 0.8175 -0.9501
C14B C -0.4557(4) 0.9198(2) -0.8964(4)
C15B C -0.3158(4) 0.43605(19) -0.7165(4)
C16B C -0.2809(4) 0.40409(19) -0.7696(4)
C17B C -0.1929(4) 0.3798(2) -0.7229(4)
H9B H -0.1568 0.3845 -0.6586
C18B C -0.1589(4) 0.3495(2) -0.7693(5)
H10B H -0.1005 0.3324 -0.7367
C19B C -0.2085(4) 0.3438(2) -0.8619(5)
C20B C -0.2945(4) 0.3679(2) -0.9107(4)
H11B H -0.3290 0.3638 -0.9753
C21B C -0.3289(4) 0.3979(2) -0.8634(4)
H12B H -0.3874 0.4148 -0.8965
C22B C -0.1903(5) 0.2613(2) -0.9098(4)
C23B C -0.1341(5) 0.2293(2) -0.9298(5)
H13B H -0.0817 0.2422 -0.9364
C24B C -0.1546(4) 0.1777(2) -0.9403(4)
H14B H -0.1162 0.1555 -0.9546
C25B C -0.2297(4) 0.1584(2) -0.9302(4)
C26B C -0.2845(5) 0.1913(2) -0.9095(5)
H15B H -0.3373 0.1785 -0.9037
C27B C -0.2646(5) 0.2424(2) -0.8970(5)
H16B H -0.3014 0.2642 -0.8797
C28B C -0.2580(4) 0.1027(2) -0.9454(3)
C29B C -0.3856(3) 0.46183(19) -0.2493(4)
C30B C -0.2935(3) 0.43763(19) -0.1836(3)
C31B C -0.2446(4) 0.40761(19) -0.2145(4)
H17B H -0.2698 0.4005 -0.2782
C32B C -0.1581(4) 0.3871(2) -0.1537(4)
H18B H -0.1235 0.3664 -0.1754
C33B C -0.1231(3) 0.39753(19) -0.0603(4)
C34B C -0.1717(4) 0.4278(2) -0.0288(4)
H19B H -0.1467 0.4353 0.0348
C35B C -0.2584(4) 0.4474(2) -0.0908(4)
H20B H -0.2938 0.4676 -0.0693
C36B C 0.0186(3) 0.3983(2) 0.0817(4)
C37B C 0.0596(4) 0.4445(2) 0.0813(4)
H21B H 0.0469 0.4611 0.0253
C38B C 0.1202(4) 0.4657(2) 0.1657(4)
H22B H 0.1514 0.4967 0.1673
C39B C 0.1356(3) 0.4426(2) 0.2466(4)
C40B C 0.0902(4) 0.3973(2) 0.2439(4)
H23B H 0.0988 0.3816 0.2994
C41B C 0.0330(4) 0.3750(2) 0.1610(4)
H24B H 0.0036 0.3434 0.1593
C42B C 0.2016(4) 0.46630(19) 0.3374(4)
H27B H -0.387(5) 0.531(3) -0.551(5)
Co1A Co -0.23019(5) 0.00347(3) -1.02220(5)
Co1B_2 Co -0.23019(5) 0.49653(3) 0.47780(5)
Co1C Co 0.23019(5) 0.99653(3) 1.02220(5)
Co2_2 Co -0.55314(5) 0.50841(3) -0.32009(5)
Co2A Co 0.55314(5) 0.00841(3) 0.82009(5)
Co2B_2 Co 0.55314(5) 0.49159(3) 0.32009(5)
Co2C Co -0.55314(5) 0.99159(3) -0.82009(5)
Co3A Co -0.39105(5) 0.02369(3) -0.94082(5)
Co3A_2 Co -0.39105(5) 1.02369(3) -0.94082(5)
Co3A_3 Co 0.60895(5) 0.02369(3) 1.05918(5)
Co3C Co -0.60895(5) 0.97631(3) -1.05918(5)
Co3C_2 Co 0.39105(5) -0.02369(3) 0.94082(5)
Co3C_3 Co 0.39105(5) 0.97631(3) 0.94082(5)
N1B_2 N -0.0877(3) 0.49752(16) -0.5015(3)
O4A O 0.5139(2) 0.57336(13) 0.6600(2)
O4C O -0.5139(2) 0.42664(13) -0.6600(2)
O5A O -0.4682(2) 0.55013(12) -0.4627(2)
O5A_2 O 0.5318(2) 0.55013(12) 0.5373(2)
O5C O -0.5318(2) 0.44987(12) -0.5373(2)
O5C_2 O 0.4682(2) 0.44987(12) 0.4627(2)
O9A O -0.2024(3) 0.42681(13) -0.4556(3)
O9C O 0.2024(3) 0.57319(13) 0.4556(3)
O10A O -0.3352(2) 0.40765(12) -0.4464(2)
O10C O 0.3352(2) 0.59235(12) 0.4464(2)
O12_2 O -0.5736(2) 0.51052(14) -0.7844(2)
O12B_2 O 0.5736(2) 0.48948(14) 0.7844(2)
N2 N 0.5630(4) 0.5145(2) 0.9652(4)
C45 C 0.4938(5) 0.4797(3) 0.9225(5)
H28 H 0.4878 0.4638 0.8680
C46 C 0.5689(5) 0.5328(3) 1.0419(5)
H29 H 0.6184 0.5559 1.0754
N2B N 0.4370(4) 0.4855(2) 1.0348(4)
C45B C 0.5062(5) 0.5203(3) 1.0775(5)
H28B H 0.5122 0.5362 1.1320
C46B C 0.4311(5) 0.4672(3) 0.9581(5)
H29B H 0.3816 0.4441 0.9246
N3 N 0.0903(4) 0.4540(2) 0.7917(4)
O17 O 0.2165(5) 0.4333(4) 0.9199(5)
C47 C 0.1359(9) 0.4263(5) 0.8679(7)
C48 C 0.1180(10) 0.4966(4) 0.7619(8)
H30 H 0.1799 0.5076 0.8091
H31 H 0.0718 0.5236 0.7503
H32 H 0.1222 0.4889 0.7052
C49 C -0.0022(7) 0.4339(4) 0.7298(8)
H33 H -0.0158 0.4043 0.7578
H34 H -0.0028 0.4241 0.6717
H35 H -0.0503 0.4599 0.7182
N4 N 0.0694(6) 0.2505(3) 0.9538(6)
O18 O 0.0164(6) 0.1695(3) 0.9529(6)
C50 C 0.0738(8) 0.2037(5) 0.9838(7)
H36 H 0.1299 0.1955 1.0373
C51 C -0.0115(12) 0.2628(4) 0.8727(10)
H37 H -0.0530 0.2332 0.8513
H38 H 0.0070 0.2731 0.8256
H39 H -0.0450 0.2907 0.8849
C52 C 0.1406(8) 0.2893(4) 0.9978(8)
H40 H 0.1912 0.2758 1.0546
H41 H 0.1119 0.3186 1.0121
H42 H 0.1668 0.2996 0.9564
N5 N 0.4671(4) 0.2037(2) 0.1259(4)
O19 O 0.3578(5) 0.2551(2) 0.1327(5)
C53 C 0.4015(7) 0.2153(3) 0.1510(6)
H43 H 0.3873 0.1910 0.1857
C54 C 0.4925(6) 0.2389(3) 0.0722(6)
H44 H 0.4551 0.2699 0.0614
H45 H 0.4798 0.2234 0.0133
H46 H 0.5597 0.2472 0.1059
C55 C 0.5140(6) 0.1540(3) 0.1502(6)
H47 H 0.4902 0.1350 0.1869
H48 H 0.5822 0.1588 0.1858
H49 H 0.5008 0.1351 0.0940
N6 N 0.6139(4) 0.58737(18) 0.8599(3)
H50 H 0.5701 0.5877 0.7991
H51 H 0.6053 0.5580 0.8854
C56 C 0.5963(5) 0.6301(2) 0.9056(5)
H52 H 0.5319 0.6280 0.8989
H53 H 0.6036 0.6616 0.8779
H54 H 0.6413 0.6296 0.9709
C57 C 0.7085(4) 0.5866(3) 0.8651(5)
H55 H 0.7147 0.5569 0.8322
H56 H 0.7559 0.5849 0.9295
H57 H 0.7182 0.6174 0.8371
loop_
_geom_bond_atom_site_label_1
_geom_bond_atom_site_label_2
_geom_bond_site_symmetry_1
_geom_bond_site_symmetry_2
Co1 N1 1_555 1_555
Co2 O1 1_555 1_555
Co3 O11 1_555 1_555
N1 C43 1_555 1_555
O1 C1 1_555 1_555
O2 Co1 1_555 1_555
O3 C5 1_555 1_555
O4 C14 1_555 1_555
O5 C14 1_555 1_555
O6 Co1 1_555 1_555
O7 Co2 1_555 1_555
O8 C19 1_555 1_555
O9 C28 1_555 1_555
O10 C28 1_555 1_555
O11 C29 1_555 1_555
O12 C29 1_555 1_555
O13 C33 1_555 1_555
O14 C42 1_555 1_555
O15 C42 1_555 1_555
O16 Co1 1_555 1_555
C1 O2 1_555 1_555
C2 C1 1_555 1_555
C3 C2 1_555 1_555
H1 C3 1_555 1_555
C4 C3 1_555 1_555
H2 C4 1_555 1_555
C5 C4 1_555 1_555
C6 C5 1_555 1_555
H3 C6 1_555 1_555
C7 C2 1_555 1_555
H4 C7 1_555 1_555
C8 O3 1_555 1_555
C9 C8 1_555 1_555
H5 C9 1_555 1_555
C10 C9 1_555 1_555
H6 C10 1_555 1_555
C11 C10 1_555 1_555
C12 C11 1_555 1_555
H7 C12 1_555 1_555
C13 C8 1_555 1_555
H8 C13 1_555 1_555
C14 C11 1_555 1_555
C15 O6 1_555 1_555
C16 C15 1_555 1_555
C17 C16 1_555 1_555
H9 C17 1_555 1_555
C18 C17 1_555 1_555
H10 C18 1_555 1_555
C19 C18 1_555 1_555
C20 C19 1_555 1_555
H11 C20 1_555 1_555
C21 C16 1_555 1_555
H12 C21 1_555 1_555
C22 O8 1_555 1_555
C23 C22 1_555 1_555
H13 C23 1_555 1_555
C24 C23 1_555 1_555
H14 C24 1_555 1_555
C25 C24 1_555 1_555
C26 C25 1_555 1_555
H15 C26 1_555 1_555
C27 C22 1_555 1_555
H16 C27 1_555 1_555
C28 C25 1_555 1_555
C29 C30 1_555 1_555
C30 C31 1_555 1_555
C31 H17 1_555 1_555
C32 C31 1_555 1_555
H18 C32 1_555 1_555
C33 C32 1_555 1_555
C34 C33 1_555 1_555
H19 C34 1_555 1_555
C35 C30 1_555 1_555
H20 C35 1_555 1_555
C36 O13 1_555 1_555
C37 C36 1_555 1_555
H21 C37 1_555 1_555
C38 C37 1_555 1_555
H22 C38 1_555 1_555
C39 C38 1_555 1_555
C40 C39 1_555 1_555
H23 C40 1_555 1_555
C41 C36 1_555 1_555
H24 C41 1_555 1_555
C42 C39 1_555 1_555
C43 H25 1_555 1_555
C44 N1 1_555 1_555
H26 C44 1_555 1_555
H27 O16 1_555 1_555
N2 C45 1_555 1_555
C45 H28 1_555 1_555
C46 N2 1_555 1_555
H29 C46 1_555 1_555
N3 C47 1_555 1_555
O17 C47 1_555 1_555
C48 N3 1_555 1_555
H30 C48 1_555 1_555
H31 C48 1_555 1_555
H32 C48 1_555 1_555
C49 N3 1_555 1_555
H33 C49 1_555 1_555
H34 C49 1_555 1_555
H35 C49 1_555 1_555
N4 C50 1_555 1_555
O18 C50 1_555 1_555
C50 H36 1_555 1_555
C51 N4 1_555 1_555
H37 C51 1_555 1_555
H38 C51 1_555 1_555
H39 C51 1_555 1_555
C52 N4 1_555 1_555
H40 C52 1_555 1_555
H41 C52 1_555 1_555
H42 C52 1_555 1_555
N5 C53 1_555 1_555
O19 C53 1_555 1_555
C53 H43 1_555 1_555
C54 N5 1_555 1_555
H44 C54 1_555 1_555
H45 C54 1_555 1_555
H46 C54 1_555 1_555
C55 N5 1_555 1_555
H47 C55 1_555 1_555
H48 C55 1_555 1_555
H49 C55 1_555 1_555
N6 H50 1_555 1_555
H51 N6 1_555 1_555
C56 N6 1_555 1_555
H52 C56 1_555 1_555
H53 C56 1_555 1_555
H54 C56 1_555 1_555
C57 N6 1_555 1_555
H55 C57 1_555 1_555
H56 C57 1_555 1_555
H57 C57 1_555 1_555
N1B C43B 1_555 1_555
C43B C44 1_555 1_555
H25B C43B 1_555 1_555
C44B C43 1_555 1_555
H26B C44B 1_555 1_555
Co1B O14 1_555 1_555
Co2B O1B 1_555 1_555
Co3B O15 1_555 1_555
O1B C1B 1_555 1_555
O2B Co1B 1_555 1_555
O3B C5B 1_555 1_555
O4B C14B 1_555 1_555
O5B C14B 1_555 1_555
O6B Co1B 1_555 1_555
O7B Co2B 1_555 1_555
O8B C19B 1_555 1_555
O9B C28B 1_555 1_555
O10B C28B 1_555 1_555
O11B Co3B 1_555 1_555
O12B C29B 1_555 1_555
O13B C33B 1_555 1_555
O14B Co1 1_555 1_555
O15B Co3 1_555 1_555
O16B Co1B 1_555 1_555
C1B O2B 1_555 1_555
C2B C1B 1_555 1_555
C3B C2B 1_555 1_555
H1B C3B 1_555 1_555
C4B C3B 1_555 1_555
H2B C4B 1_555 1_555
C5B C4B 1_555 1_555
C6B C5B 1_555 1_555
H3B C6B 1_555 1_555
C7B C2B 1_555 1_555
H4B C7B 1_555 1_555
C8B O3B 1_555 1_555
C9B C8B 1_555 1_555
H5B C9B 1_555 1_555
C10B C9B 1_555 1_555
H6B C10B 1_555 1_555
C11B C10B 1_555 1_555
C12B C11B 1_555 1_555
H7B C12B 1_555 1_555
C13B C8B 1_555 1_555
H8B C13B 1_555 1_555
C14B C11B 1_555 1_555
C15B O6B 1_555 1_555
C16B C15B 1_555 1_555
C17B C16B 1_555 1_555
H9B C17B 1_555 1_555
C18B C17B 1_555 1_555
H10B C18B 1_555 1_555
C19B C18B 1_555 1_555
C20B C19B 1_555 1_555
H11B C20B 1_555 1_555
C21B C16B 1_555 1_555
H12B C21B 1_555 1_555
C22B O8B 1_555 1_555
C23B C22B 1_555 1_555
H13B C23B 1_555 1_555
C24B C23B 1_555 1_555
H14B C24B 1_555 1_555
C25B C24B 1_555 1_555
C26B C25B 1_555 1_555
H15B C26B 1_555 1_555
C27B C22B 1_555 1_555
H16B C27B 1_555 1_555
C28B C25B 1_555 1_555
C29B O11B 1_555 1_555
C30B C29B 1_555 1_555
C31B C30B 1_555 1_555
H17B C31B 1_555 1_555
C32B C31B 1_555 1_555
H18B C32B 1_555 1_555
C33B C32B 1_555 1_555
C34B C33B 1_555 1_555
H19B C34B 1_555 1_555
C35B C30B 1_555 1_555
H20B C35B 1_555 1_555
C36B O13B 1_555 1_555
C37B C36B 1_555 1_555
H21B C37B 1_555 1_555
C38B C37B 1_555 1_555
H22B C38B 1_555 1_555
C39B C38B 1_555 1_555
C40B C39B 1_555 1_555
H23B C40B 1_555 1_555
C41B C36B 1_555 1_555
H24B C41B 1_555 1_555
C42B O14B 1_555 1_555
H27B O16B 1_555 1_555
Co1A O9B 1_555 1_555
Co1B_2 N1B 1_555 1_555
Co1C O9 1_555 1_555
Co2_2 O12B 1_555 1_555
Co2A O4 1_555 1_555
Co2B_2 O12 1_555 1_555
Co2C O4B 1_555 1_555
Co3A O10B 1_555 1_555
Co3A_2 O5B 1_555 1_555
Co3A_3 O5 1_555 1_555
Co3C O5B 1_555 1_555
Co3C_2 O5 1_555 1_555
Co3C_3 O10 1_555 1_555
N1B_2 Co1B 1_555 1_555
O4A Co2 1_555 1_555
O4C Co2B 1_555 1_555
O5A Co3B 1_555 1_555
O5A_2 Co3 1_555 1_555
O5C Co3B 1_555 1_555
O5C_2 Co3 1_555 1_555
O9A Co1B 1_555 1_555
O9C Co1 1_555 1_555
O10A Co3B 1_555 1_555
O10C Co3 1_555 1_555
O12_2 Co2B 1_555 1_555
O12B_2 Co2 1_555 1_555
N2B C45B 1_555 1_555
C45B C46 1_555 1_555
H28B C45B 1_555 1_555
C46B C45 1_555 1_555
H29B C46B 1_555 1_555
Co2 O16 1_555 1_555
Co3 O16 1_555 1_555
O7 C15 1_555 1_555
C6 C7 1_555 1_555
C12 C13 1_555 1_555
C20 C21 1_555 1_555
C26 C27 1_555 1_555
C34 C35 1_555 1_555
C40 C41 1_555 1_555
N1B C44B 1_555 1_555
Co2B O16B 1_555 1_555
Co3B O16B 1_555 1_555
O7B C15B 1_555 1_555
O15B C42B 1_555 1_555
C6B C7B 1_555 1_555
C12B C13B 1_555 1_555
C20B C21B 1_555 1_555
C26B C27B 1_555 1_555
C34B C35B 1_555 1_555
C39B C42B 1_555 1_555
C40B C41B 1_555 1_555
N2B C46B 1_555 1_555

#END
