
#######################################################################
#
#                 Cambridge Crystallographic Data Centre
#                                CCDC 
#
#######################################################################
#
# If this CIF has been generated from an entry in the Cambridge 
# Structural Database, then it will include bibliographic, chemical, 
# crystal, experimental, refinement or atomic coordinate data resulting 
# from the CCDC's data processing and validation procedures.
#
#######################################################################

data_IZETUE
_chemical_formula_moiety         '(C19 H43 Cl9 Cu8 N12 O2)n'
_symmetry_cell_setting           rhombohedral
_symmetry_space_group_name_H-M   'R -3 m'
_symmetry_Int_Tables_number      166
_space_group_name_Hall           '-R 3 2"'
loop_
_symmetry_equiv_pos_site_id
_symmetry_equiv_pos_as_xyz
1 x,y,z
2 -y,x-y,z
3 -x+y,-x,z
4 y,x,-z
5 -x,-x+y,-z
6 x-y,-y,-z
7 2/3+x,1/3+y,1/3+z
8 2/3-y,1/3+x-y,1/3+z
9 2/3-x+y,1/3-x,1/3+z
10 2/3+y,1/3+x,1/3-z
11 2/3-x,1/3-x+y,1/3-z
12 2/3+x-y,1/3-y,1/3-z
13 1/3+x,2/3+y,2/3+z
14 1/3-y,2/3+x-y,2/3+z
15 1/3-x+y,2/3-x,2/3+z
16 1/3+y,2/3+x,2/3-z
17 1/3-x,2/3-x+y,2/3-z
18 1/3+x-y,2/3-y,2/3-z
19 -x,-y,-z
20 y,-x+y,-z
21 x-y,x,-z
22 -y,-x,z
23 x,x-y,z
24 -x+y,y,z
25 1/3-x,2/3-y,2/3-z
26 1/3+y,2/3-x+y,2/3-z
27 1/3+x-y,2/3+x,2/3-z
28 1/3-y,2/3-x,2/3+z
29 1/3+x,2/3+x-y,2/3+z
30 1/3-x+y,2/3+y,2/3+z
31 2/3-x,1/3-y,1/3-z
32 2/3+y,1/3-x+y,1/3-z
33 2/3+x-y,1/3+x,1/3-z
34 2/3-y,1/3-x,1/3+z
35 2/3+x,1/3+x-y,1/3+z
36 2/3-x+y,1/3+y,1/3+z
_cell_length_a                   9.4451(2)
_cell_length_b                   9.4451(2)
_cell_length_c                   74.309(4)
_cell_angle_alpha                90
_cell_angle_beta                 90
_cell_angle_gamma                120
_cell_volume                     5740.97
loop_
_atom_site_label
_atom_site_type_symbol
_atom_site_fract_x
_atom_site_fract_y
_atom_site_fract_z
Cu1 Cu -0.08998(14) 0.45501(7) 0.045971(15)
Cu2 Cu 0.08442(16) 0.54221(8) 0.15207(2)
Cu3 Cu -0.3333 0.3333 0.01922(2)
Cu4 Cu -0.3333 0.3333 0.08590(19)
Cl1 Cl -0.0583(3) 0.47087(13) 0.07595(3)
Cl2 Cl 0.0380(3) 0.51900(15) 0.18606(3)
Cl3 Cl -0.19724(12) 0.19724(12) 0.03031(3)
N1 N 0.3333 0.6667 0.00870(12)
N2 N -0.1609(7) 0.4195(4) 0.14176(8)
N3 N -0.3333 0.3333 0.11482(14)
N4 N 0.1618(7) 0.5809(3) 0.03567(7)
C1 C 0.1645(8) 0.5823(4) 0.01572(8)
H1 H 0.1080 0.4718 0.0114
C2 C -0.1641(9) 0.4180(4) 0.12182(9)
H2 H -0.1078 0.3642 0.1174
C3 C -0.2487(4) 0.5026(8) 0.14823(10)
H3 H -0.1930 0.6135 0.1441
H4 H -0.2482 0.5031 0.1611
C4 C 0.2489(4) 0.7511(4) 0.04209(9)
H5 H 0.2479 0.7523 0.0550
H6 H 0.1935 0.8067 0.0379
N4A N 0.4191(3) 0.5809(8) 0.03567(7)
C1A C 0.4177(4) 0.5822(9) 0.01572(8)
H1A H 0.5282 0.6362 0.0114
C4A C 0.2489(4) 0.4978(6) 0.04209(9)
H5A H 0.2477 0.4956 0.0550
H6A H 0.1933 0.3868 0.0379
N4B N 0.4191(8) 0.8382(7) 0.03567(7)
C1B C 0.4178(9) 0.8355(8) 0.01572(8)
H1B H 0.3638 0.8920 0.0114
C4B C 0.5022(6) 0.7511(4) 0.04209(9)
H5B H 0.5044 0.7521 0.0550
H6B H 0.6132 0.8065 0.0379
H1U H 0.5282 0.8920 0.0114
H1V H 0.1080 0.6362 0.0114
H1W H 0.3638 0.4718 0.0114
N2A N -0.4195(4) 0.4196(8) 0.14176(8)
C2A C -0.4180(4) 0.4179(10) 0.12182(9)
H2A H -0.3642 0.5280 0.1174
C3A C -0.5026(8) 0.2487(9) 0.14823(10)
H3A H -0.6135 0.1935 0.1441
H4A H -0.5031 0.2487 0.1611
N2B N -0.4196(8) 0.1609(7) 0.14176(8)
C2B C -0.4179(10) 0.1641(9) 0.12182(9)
H2B H -0.5280 0.1078 0.1174
C3B C -0.2487(9) 0.2487(4) 0.14823(10)
H3B H -0.1935 0.1930 0.1441
H4B H -0.2487 0.2482 0.1611
H2U H -0.3642 0.1078 0.1174
H2V H -0.1078 0.5280 0.1174
H2W H -0.5280 0.3642 0.1174
Cu1A Cu -0.45501(7) 0.45501(16) 0.045971(15)
Cu2A Cu -0.54221(8) 0.54221(18) 0.15207(2)
Cl1A Cl -0.47087(13) 0.47083(33) 0.07595(3)
Cl2A Cl -0.51900(15) 0.51900(34) 0.18606(3)
Cl3A Cl -0.19724(12) 0.60552(17) 0.03031(3)
Cu1B Cu -0.45501(16) 0.08998(14) 0.045971(15)
Cu2B Cu -0.54221(18) -0.08442(16) 0.15207(2)
Cl1B Cl -0.47083(33) 0.0583(3) 0.07595(3)
Cl2B Cl -0.51900(34) -0.0380(3) 0.18606(3)
Cl3B Cl -0.60552(17) 0.19724(12) 0.03031(3)
Cu1A_2 Cu 0.54499(7) 0.45501(16) 0.045971(15)
Cu1B_2 Cu 0.54499(16) 1.08998(14) 0.045971(15)
Cu2I Cu -0.79112(8) 0.41775(16) 0.18126(2)
Cu2I_2 Cu 0.20888(8) 0.41775(16) 0.18126(2)
Cu2J Cu -0.41775(16) -0.20888(18) 0.18126(2)
Cu2J_2 Cu -0.41775(16) 0.79112(18) 0.18126(2)
Cu2K Cu -0.79112(18) -0.20888(8) 0.18126(2)
Cu2K_2 Cu 0.20888(18) 0.79112(8) 0.18126(2)
Cu3C Cu 0.3333 0.6667 -0.01922(2)
Cl2I Cl -0.81433(15) 0.3713(3) 0.14727(3)
Cl2I_2 Cl 0.18567(15) 0.3713(3) 0.14727(3)
Cl2J Cl -0.3713(3) -0.18567(34) 0.14727(3)
Cl2J_2 Cl -0.3713(3) 0.81433(34) 0.14727(3)
Cl2K Cl -0.81433(34) -0.18567(15) 0.14727(3)
Cl2K_2 Cl 0.18567(34) 0.81433(15) 0.14727(3)
N1C N -0.3333 0.3333 -0.00870(12)
N4A_2 N -0.5809(3) 0.5809(8) 0.03567(7)
N4B_2 N -0.5809(8) -0.1618(7) 0.03567(7)
C5 C 0.0000 -0.0000 0.0533(3)
H7 H 0.0553 0.1107 0.0489
N5 N 0.0000 0.0000 0.07329(19)
N6 N -0.0835(8) 0.0835(8) 0.10034(19)
C6 C -0.0852(10) 0.0852(10) 0.0800(2)
H8 H -0.1960 0.0307 0.0757
C7 C 0.0807(14) 0.161(3) 0.1056(4)
H7A H -0.1107 -0.0554 0.0489
N6A N -0.0835(8) -0.1670(11) 0.10034(19)
C6A C -0.0852(10) -0.1704(14) 0.0800(2)
H8A H -0.0307 -0.2267 0.0757
C7A C -0.161(3) -0.0803(33) 0.1056(4)
H7B H 0.0554 -0.0553 0.0489
N6B N 0.1670(11) 0.0835(8) 0.10034(19)
C6B C 0.1704(14) 0.0852(10) 0.0800(2)
H8B H 0.2267 0.1960 0.0757
C7B C 0.0803(33) -0.0807(14) 0.1056(4)
H8U H -0.0307 0.1960 0.0757
H8V H -0.1960 -0.2267 0.0757
H8W H 0.2267 0.0307 0.0757
O1 O 0.3333 0.6667 0.1027(4)
O2 O 0.0000 0.0000 0.0000
loop_
_geom_bond_atom_site_label_1
_geom_bond_atom_site_label_2
_geom_bond_site_symmetry_1
_geom_bond_site_symmetry_2
Cu1 Cl1 1_555 1_555
Cu2 Cl2 1_555 1_555
Cu3 Cl3 1_555 1_555
Cu4 Cl1 1_555 1_555
Cl2 Cu2I_2 1_555 1_555
Cl3 Cu1 1_555 1_555
N1 C1 1_555 1_555
N2 Cu2 1_555 1_555
N3 Cu4 1_555 1_555
N4 Cu1 1_555 1_555
C1 N4 1_555 1_555
H1 C1 1_555 1_555
C2 N2 1_555 1_555
H2 C2 1_555 1_555
C3 N2 1_555 1_555
H3 C3 1_555 1_555
H4 C3 1_555 1_555
C4 N4 1_555 1_555
H5 C4 1_555 1_555
H6 C4 1_555 1_555
C5 H7 1_555 1_555
N5 C5 1_555 1_555
N6 C6 1_555 1_555
C6 N5 1_555 1_555
H8 C6 1_555 1_555
C7 N6 1_555 1_555
N4A C1A 1_555 1_555
C1A N1 1_555 1_555
H1A C1A 1_555 1_555
C4A N4 1_555 1_555
H5A C4A 1_555 1_555
H6A C4A 1_555 1_555
N4B C4 1_555 1_555
C1B N1 1_555 1_555
H1B C1B 1_555 1_555
C4B N4A 1_555 1_555
H5B C4B 1_555 1_555
H6B C4B 1_555 1_555
H1U C1B 1_555 1_555
H1V C1 1_555 1_555
H1W C1A 1_555 1_555
N2A C3 1_555 1_555
C2A N3 1_555 1_555
H2A C2A 1_555 1_555
C3A N2A 1_555 1_555
H3A C3A 1_555 1_555
H4A C3A 1_555 1_555
N2B C3A 1_555 1_555
C2B N3 1_555 1_555
H2B C2B 1_555 1_555
C3B N2 1_555 1_555
H3B C3B 1_555 1_555
H4B C3B 1_555 1_555
H2U C2B 1_555 1_555
H2V C2 1_555 1_555
H2W C2A 1_555 1_555
Cu1A Cl1A 1_555 1_555
Cu2A N2A 1_555 1_555
Cl1A Cu4 1_555 1_555
Cl2A Cu2A 1_555 1_555
Cl3A Cu1 1_555 1_555
Cu1B Cl3 1_555 1_555
Cu2B N2B 1_555 1_555
Cl1B Cu4 1_555 1_555
Cl2B Cu2B 1_555 1_555
Cl3B Cu3 1_555 1_555
Cu1A_2 N4A 1_555 1_555
Cu1B_2 N4B 1_555 1_555
Cu2I Cl2A 1_555 1_555
Cu2I_2 Cl2I_2 1_555 1_555
Cu2J Cl2B 1_555 1_555
Cu2J_2 Cl2A 1_555 1_555
Cu2K Cl2B 1_555 1_555
Cu2K_2 Cl2 1_555 1_555
Cu3C N1 1_555 1_555
Cl2I Cu2A 1_555 1_555
Cl2I_2 Cu2 1_555 1_555
Cl2J Cu2B 1_555 1_555
Cl2J_2 Cu2A 1_555 1_555
Cl2K Cu2B 1_555 1_555
Cl2K_2 Cu2 1_555 1_555
N1C Cu3 1_555 1_555
N4A_2 Cu1A 1_555 1_555
N4B_2 Cu1B 1_555 1_555
H7A C5 1_555 1_555
N6A C6A 1_555 1_555
C6A N5 1_555 1_555
H8A C6A 1_555 1_555
C7A N6 1_555 1_555
H7B C5 1_555 1_555
N6B C7 1_555 1_555
C6B N5 1_555 1_555
H8B C6B 1_555 1_555
C7B N6A 1_555 1_555
H8U C6 1_555 1_555
H8V C6A 1_555 1_555
H8W C6B 1_555 1_555
Cu3 Cl3A 1_555 1_555
N3 C2 1_555 1_555
N4A C4A 1_555 1_555
N4B C1B 1_555 1_555
N4B C4B 1_555 1_555
N2A C2A 1_555 1_555
N2B C2B 1_555 1_555
N2B C3B 1_555 1_555
Cu1A Cl3A 1_555 1_555
Cu1A Cl3B 1_555 1_555
Cu1B Cl1B 1_555 1_555
Cu1B Cl3B 1_555 1_555
Cu2I Cl2I 1_555 1_555
Cu2J Cl2J 1_555 1_555
Cu2J_2 Cl2J_2 1_555 1_555
Cu2K Cl2K 1_555 1_555
Cu2K_2 Cl2K_2 1_555 1_555
N6A C7A 1_555 1_555
N6B C6B 1_555 1_555
N6B C7B 1_555 1_555

#END
