
#######################################################################
#
#                 Cambridge Crystallographic Data Centre
#                                CCDC 
#
#######################################################################
#
# If this CIF has been generated from an entry in the Cambridge 
# Structural Database, then it will include bibliographic, chemical, 
# crystal, experimental, refinement or atomic coordinate data resulting 
# from the CCDC's data processing and validation procedures.
#
#######################################################################

data_IZEVAM
_chemical_formula_moiety         '(C12 H27 Cl6 Cu7 N8 O2)n'
_symmetry_cell_setting           hexagonal
_symmetry_space_group_name_H-M   'P 63 m c'
_symmetry_Int_Tables_number      186
_space_group_name_Hall           'P 6c -2c'
loop_
_symmetry_equiv_pos_site_id
_symmetry_equiv_pos_as_xyz
1 x,y,z
2 -y,x-y,z
3 -x+y,-x,z
4 -x,-y,1/2+z
5 y,-x+y,1/2+z
6 x-y,x,1/2+z
7 -y,-x,z
8 -x+y,y,z
9 x,x-y,z
10 y,x,1/2+z
11 x-y,-y,1/2+z
12 -x,-x+y,1/2+z
_cell_length_a                   9.4218(3)
_cell_length_b                   9.4218(3)
_cell_length_c                   15.6578(10)
_cell_angle_alpha                90
_cell_angle_beta                 90
_cell_angle_gamma                120
_cell_volume                     1203.73
loop_
_atom_site_label
_atom_site_type_symbol
_atom_site_fract_x
_atom_site_fract_y
_atom_site_fract_z
Cu1 Cu 0.5488(2) 0.0976(4) 0.2005(2)
Cu2 Cu 0.6667 0.3333 0.3902(5)
Cl1 Cl 0.5255(3) 0.0510(7) 0.3496(4)
Cl2 Cl 0.3828(9) 0.1914(4) 0.1427(5)
N1 N 0.4217(10) -0.157(2) 0.1572(10)
C1 C 0.2509(13) -0.2509(13) 0.1874(12)
H1 H 0.1918 -0.1945 0.1737
H2 H 0.2574 -0.2555 0.2485
C2 C 0.4171(9) -0.1657(19) 0.0611(10)
H3 H 0.5360 -0.1176 0.0582
N2 N 0.3333 -0.3333 0.028(2)
N1A N 0.157(2) -0.4213(22) 0.1572(10)
C1A C 0.2509(13) -0.4982(18) 0.1874(12)
H1A H 0.1945 -0.6137 0.1737
H2A H 0.2555 -0.4871 0.2485
C2A C 0.1657(19) -0.4172(21) 0.0611(10)
H3A H 0.1176 -0.3464 0.0582
N1B N 0.4213(22) -0.4217(10) 0.1572(10)
C1B C 0.4982(18) -0.2509(13) 0.1874(12)
H1B H 0.6137 -0.1918 0.1737
H2B H 0.4871 -0.2574 0.2485
C2B C 0.4172(21) -0.4171(9) 0.0611(10)
H3B H 0.3464 -0.5360 0.0582
H3F H 0.1176 -0.5360 0.0582
H3G H 0.3464 -0.1176 0.0582
H3H H 0.5360 -0.3464 0.0582
Cu1A Cu -0.0976(4) -0.5488(4) 0.2005(2)
Cl1A Cl -0.0510(7) -0.5255(8) 0.3496(4)
Cl2A Cl -0.1914(4) -0.8086(10) 0.1427(5)
Cu1B Cu -0.4512(4) -0.5488(2) 0.2005(2)
Cl1B Cl -0.4745(8) -0.5255(3) 0.3496(4)
Cl2B Cl -0.1914(10) -0.3828(9) 0.1427(5)
Cu1_2 Cu -0.4512(2) -0.9024(4) 0.2005(2)
Cu1B_2 Cu 0.5488(4) -0.5488(2) 0.2005(2)
Cu1B_3 Cu 0.5488(4) 0.4512(2) 0.2005(2)
Cu2_2 Cu -0.3333 -0.6667 0.3902(5)
Cu2C Cu 0.3333 -0.3333 -0.1098(5)
Cl1A_2 Cl 0.9490(7) 0.4745(8) 0.3496(4)
Cl1B_2 Cl 0.5255(8) 0.4745(3) 0.3496(4)
Cl2_2 Cl -0.6172(9) -0.8086(4) 0.1427(5)
Cl2A_2 Cl 0.8086(4) 0.1914(10) 0.1427(5)
N1B_2 N -0.5787(22) -0.4217(10) 0.1572(10)
N2C N 0.6667 0.3333 0.528(2)
O1 O 0.4058(19) 0.2029(9) 0.3103(13)
Cu3 Cu 0.2057(6) 0.7943(6) 0.4516(10)
O2 O 0.3333 0.6667 0.467(3)
C3 C -0.0837(12) 0.833(2) 0.453(2)
H4 H -0.0891 0.8209 0.5140
H5 H -0.1380 0.7230 0.4294
N3 N 0.0868(15) 0.9132(15) 0.4273(18)
C4 C 0.0850(11) 0.9150(11) 0.3288(15)
H6 H 0.0291 0.8054 0.3065
N4 N -0.0000 1.0000 0.309(3)
C3A C 0.167(2) 1.0833(23) 0.453(2)
H4A H 0.1791 1.0900 0.5140
H5A H 0.2770 1.1390 0.4294
N3A N 0.0868(15) 1.1736(21) 0.4273(18)
C4A C 0.0850(11) 1.1700(16) 0.3288(15)
H6A H 0.1946 1.2237 0.3065
C3B C -0.0833(23) 1.0837(12) 0.453(2)
H4B H -0.0900 1.0891 0.5140
H5B H -0.1390 1.1380 0.4294
N3B N -0.1736(21) 0.9132(15) 0.4273(18)
C4B C -0.1700(16) 0.9150(11) 0.3288(15)
H6B H -0.2237 0.9709 0.3065
H6F H 0.1946 0.9709 0.3065
H6G H -0.2237 0.8054 0.3065
H6H H 0.0291 1.2237 0.3065
Cu3A Cu 0.2057(6) 0.4114(8) 0.4516(10)
Cu3B Cu -0.4114(8) 0.7943(6) 0.4516(10)
Cu3A_2 Cu 0.2057(6) 1.4114(8) 0.4516(10)
Cu3B_2 Cu 0.5886(8) 0.7943(6) 0.4516(10)
O2_2 O -0.6667 0.6667 0.467(3)
N3A_2 N 0.0868(15) 0.1736(21) 0.4273(18)
loop_
_geom_bond_atom_site_label_1
_geom_bond_atom_site_label_2
_geom_bond_site_symmetry_1
_geom_bond_site_symmetry_2
Cu1 Cl1 1_555 1_555
Cu2 Cl1 1_555 1_555
Cl2 Cu1 1_555 1_555
N1 Cu1 1_555 1_555
C1 N1 1_555 1_555
H1 C1 1_555 1_555
H2 C1 1_555 1_555
C2 N1 1_555 1_555
H3 C2 1_555 1_555
N2 C2 1_555 1_555
Cu3 O2 1_555 1_555
O2 Cu3A 1_555 1_555
C3 H4 1_555 1_555
H5 C3 1_555 1_555
N3 Cu3 1_555 1_555
C4 N3 1_555 1_555
H6 C4 1_555 1_555
N4 C4 1_555 1_555
N1A C1 1_555 1_555
C1A N1A 1_555 1_555
H1A C1A 1_555 1_555
H2A C1A 1_555 1_555
C2A N2 1_555 1_555
H3A C2A 1_555 1_555
N1B C1A 1_555 1_555
C1B N1 1_555 1_555
H1B C1B 1_555 1_555
H2B C1B 1_555 1_555
C2B N2 1_555 1_555
H3B C2B 1_555 1_555
H3F C2A 1_555 1_555
H3G C2 1_555 1_555
H3H C2B 1_555 1_555
Cu1A N1A 1_555 1_555
Cl1A Cu1A 1_555 1_555
Cl2A Cu1A 1_555 1_555
Cu1B Cl1B 1_555 1_555
Cl1B Cu2_2 1_555 1_555
Cl2B Cu1A 1_555 1_555
Cu1_2 Cl2A 1_555 1_555
Cu1B_2 N1B 1_555 1_555
Cu1B_3 Cl2 1_555 1_555
Cu2_2 Cl1A 1_555 1_555
Cu2C N2 1_555 1_555
Cl1A_2 Cu2 1_555 1_555
Cl1B_2 Cu2 1_555 1_555
Cl2_2 Cu1B 1_555 1_555
Cl2A_2 Cu1 1_555 1_555
N1B_2 Cu1B 1_555 1_555
N2C Cu2 1_555 1_555
C3A N3 1_555 1_555
H4A C3A 1_555 1_555
H5A C3A 1_555 1_555
N3A C3A 1_555 1_555
C4A N4 1_555 1_555
H6A C4A 1_555 1_555
C3B N3A 1_555 1_555
H4B C3B 1_555 1_555
H5B C3B 1_555 1_555
N3B C3 1_555 1_555
C4B N4 1_555 1_555
H6B C4B 1_555 1_555
H6F C4 1_555 1_555
H6G C4B 1_555 1_555
H6H C4A 1_555 1_555
Cu3A N3A_2 1_555 1_555
Cu3B N3B 1_555 1_555
Cu3A_2 N3A 1_555 1_555
Cu3B_2 O2 1_555 1_555
O2_2 Cu3B 1_555 1_555
C3 N3 1_555 1_555
N1A C2A 1_555 1_555
N1B C1B 1_555 1_555
N1B C2B 1_555 1_555
Cu1B Cl2B 1_555 1_555
Cu1_2 Cl2_2 1_555 1_555
Cu1B_3 Cl1B_2 1_555 1_555
N3A C4A 1_555 1_555
C3B N3B 1_555 1_555
N3B C4B 1_555 1_555

#END
