
#######################################################################
#
#                 Cambridge Crystallographic Data Centre
#                                CCDC 
#
#######################################################################
#
# If this CIF has been generated from an entry in the Cambridge 
# Structural Database, then it will include bibliographic, chemical, 
# crystal, experimental, refinement or atomic coordinate data resulting 
# from the CCDC's data processing and validation procedures.
#
#######################################################################

data_EYOPOY
_chemical_formula_moiety         '(C20 H14 Cd1 N4 O4)n'
_symmetry_cell_setting           orthorhombic
_symmetry_space_group_name_H-M   'P c a 21'
_symmetry_Int_Tables_number      29
_space_group_name_Hall           'P 2c -2ac'
loop_
_symmetry_equiv_pos_site_id
_symmetry_equiv_pos_as_xyz
1 x,y,z
2 -x,-y,1/2+z
3 1/2+x,-y,z
4 1/2-x,y,1/2+z
_cell_length_a                   19.0367(16)
_cell_length_b                   8.2300(7)
_cell_length_c                   18.2963(15)
_cell_angle_alpha                90
_cell_angle_beta                 90
_cell_angle_gamma                90
_cell_volume                     2866.52
loop_
_atom_site_label
_atom_site_type_symbol
_atom_site_fract_x
_atom_site_fract_y
_atom_site_fract_z
_atom_site_U_iso_or_equiv
_atom_site_thermal_displace_type
Cd1 Cd 0.475830(10) 1.00444(3) 0.31786(5) 0.0377 Uani
C1 C 0.61752(17) 1.2295(4) 0.3279(2) 0.0422 Uani
H1 H 0.5943 1.3140 0.3514 0.0510 Uiso
C2 C 0.6386(2) 1.0026(5) 0.2717(3) 0.0727 Uani
H2 H 0.6324 0.9022 0.2493 0.0870 Uiso
C3 C 0.6977(2) 1.0904(6) 0.2734(3) 0.0717 Uani
H3 H 0.7407 1.0581 0.2541 0.0860 Uiso
C4 C 0.73278(16) 1.3653(4) 0.3148(4) 0.0444 Uani
C5 C 0.80286(19) 1.3306(4) 0.3267(4) 0.0507 Uani
H4 H 0.8179 1.2237 0.3318 0.0610 Uiso
C6 C 0.8506(2) 1.4586(4) 0.3310(3) 0.0485 Uani
H5 H 0.8974 1.4381 0.3421 0.0580 Uiso
C7 C 0.82788(18) 1.6191(4) 0.3184(3) 0.0468 Uani
C8 C 0.75838(19) 1.6489(4) 0.3077(4) 0.0527 Uani
H6 H 0.7432 1.7558 0.3026 0.0630 Uiso
C9 C 0.7094(2) 1.5238(4) 0.3041(3) 0.0495 Uani
H7 H 0.6623 1.5455 0.2948 0.0590 Uiso
C10 C 0.88133(18) 1.7558(4) 0.3205(3) 0.0457 Uani
C11 C 0.4681(2) 0.7730(5) 0.4586(2) 0.0460 Uani
H8 H 0.4952 0.6949 0.4351 0.0550 Uiso
C12 C 0.4103(2) 0.9899(5) 0.4800(2) 0.0553 Uani
H9 H 0.3890 1.0905 0.4732 0.0660 Uiso
C13 C 0.4072(2) 0.9018(5) 0.5416(2) 0.0517 Uani
H10 H 0.3852 0.9308 0.5851 0.0620 Uiso
C14 C 0.4546(2) 0.6281(5) 0.5771(2) 0.0460 Uani
C15 C 0.4681(2) 0.6617(6) 0.6501(2) 0.0517 Uani
H11 H 0.4693 0.7687 0.6664 0.0620 Uiso
C16 C 0.4797(2) 0.5349(5) 0.6985(3) 0.0520 Uani
H12 H 0.4860 0.5569 0.7479 0.0620 Uiso
C17 C 0.48215(19) 0.3771(6) 0.6743(2) 0.0447 Uani
C18 C 0.4711(2) 0.3457(5) 0.6004(3) 0.0543 Uani
H13 H 0.4732 0.2391 0.5837 0.0650 Uiso
C19 C 0.4568(2) 0.4711(5) 0.5504(3) 0.0520 Uani
H14 H 0.4492 0.4492 0.5012 0.0630 Uiso
C20 C 0.4976(2) 0.2431(5) 0.7254(2) 0.0490 Uani
N1 N 0.58836(13) 1.0907(3) 0.3098(2) 0.0498 Uani
N2 N 0.68547(14) 1.2332(3) 0.3077(2) 0.0480 Uani
N3 N 0.44888(17) 0.9113(5) 0.42952(17) 0.0454 Uani
N4 N 0.44317(17) 0.7590(4) 0.52735(17) 0.0465 Uani
O1 O 0.86356(13) 1.8936(4) 0.29802(15) 0.0619 Uani
O2 O 0.94198(14) 1.7254(3) 0.34441(16) 0.0611 Uani
O3 O 0.49370(16) 0.2699(4) 0.79208(16) 0.0624 Uani
O4 O 0.51451(15) 0.1049(4) 0.70060(17) 0.0619 Uani
Cd1B Cd 0.975830(10) 1.99556(3) 0.31786(5) 0.0377 Uani
Cd1A Cd 0.524170(10) -0.00444(3) 0.81786(5) 0.0377 Uani
O1B O 0.36356(13) 1.1064(4) 0.29802(15) 0.0619 Uani
O2B O 0.44198(14) 1.2746(3) 0.34441(16) 0.0611 Uani
O3A O 0.50630(16) 0.7301(4) 0.29208(16) 0.0624 Uani
O4A O 0.48549(15) 0.8951(4) 0.20060(17) 0.0619 Uani
loop_
_atom_site_aniso_label
_atom_site_aniso_U_11
_atom_site_aniso_U_22
_atom_site_aniso_U_33
_atom_site_aniso_U_23
_atom_site_aniso_U_13
_atom_site_aniso_U_12
Cd1 0.03773(13) 0.03164(13) 0.04377(14) 0.00216(15) -0.0001(2) -0.00001(11)
C1 0.0370(18) 0.0357(18) 0.054(3) 0.002(2) 0.007(2) 0.0039(15)
C2 0.043(3) 0.045(3) 0.130(5) -0.023(3) 0.013(3) 0.004(2)
C3 0.051(3) 0.052(3) 0.112(4) -0.018(3) 0.014(2) 0.005(2)
C4 0.0396(18) 0.0357(19) 0.058(2) -0.007(3) 0.005(3) -0.0049(15)
C5 0.044(2) 0.039(2) 0.069(3) 0.007(3) -0.005(3) -0.0006(16)
C6 0.0386(18) 0.045(2) 0.062(4) -0.003(2) -0.002(2) 0.0008(15)
C7 0.055(2) 0.0374(19) 0.048(2) 0.000(3) 0.002(3) -0.0041(16)
C8 0.044(2) 0.034(2) 0.080(4) 0.001(3) -0.001(3) 0.0008(16)
C9 0.0344(18) 0.043(2) 0.071(5) 0.005(2) -0.004(2) -0.0038(16)
C10 0.046(2) 0.045(2) 0.046(2) -0.011(3) 0.001(2) -0.0081(16)
C11 0.053(2) 0.042(3) 0.043(3) 0.0007(19) 0.0019(19) 0.0028(19)
C12 0.065(3) 0.045(3) 0.056(3) 0.009(2) 0.002(2) 0.021(2)
C13 0.060(3) 0.049(3) 0.046(2) -0.003(2) 0.0150(19) 0.009(2)
C14 0.052(2) 0.040(3) 0.046(3) 0.0003(19) 0.0073(19) -0.0051(19)
C15 0.074(3) 0.049(3) 0.032(2) -0.0024(19) 0.001(2) 0.001(2)
C16 0.057(3) 0.058(3) 0.041(3) 0.006(2) -0.0010(19) 0.0009(19)
C17 0.044(2) 0.050(3) 0.040(2) 0.002(2) -0.0066(17) -0.0039(18)
C18 0.065(3) 0.037(3) 0.061(3) 0.001(2) -0.004(2) -0.006(2)
C19 0.060(3) 0.053(3) 0.043(2) 0.001(2) -0.009(2) 0.001(2)
C20 0.046(2) 0.052(3) 0.049(3) 0.009(2) -0.001(2) -0.010(2)
N1 0.0355(14) 0.0348(16) 0.079(2) 0.002(2) 0.000(2) -0.0017(13)
N2 0.0400(16) 0.0341(16) 0.070(2) 0.0032(18) 0.0086(17) 0.0001(13)
N3 0.054(2) 0.041(2) 0.0413(19) 0.0030(16) 0.0003(16) 0.0044(18)
N4 0.058(2) 0.042(2) 0.0395(19) 0.0041(15) 0.0000(15) 0.0049(16)
O1 0.0574(16) 0.0492(18) 0.079(2) 0.0118(15) -0.0167(15) -0.0151(14)
O2 0.0413(16) 0.0450(17) 0.097(3) -0.0142(15) 0.0005(15) -0.0076(13)
O3 0.087(2) 0.0483(19) 0.052(2) 0.0078(13) -0.0130(16) -0.0151(16)
O4 0.073(2) 0.060(2) 0.0526(18) 0.0146(17) 0.0101(16) 0.0175(18)
Cd1B 0.03773 0.03164 0.04377 -0.00216 -0.0001 1e-05
Cd1A 0.03773 0.03164 0.04377 -0.00216 0.0001 -1e-05
O1B 0.0574 0.0492 0.079 -0.0118 -0.0167 0.0151
O2B 0.0413 0.045 0.097 0.0142 0.0005 0.0076
O3A 0.087 0.0483 0.052 -0.0078 0.013 -0.0151
O4A 0.073 0.06 0.0526 -0.0146 -0.0101 0.0175
loop_
_geom_bond_atom_site_label_1
_geom_bond_atom_site_label_2
_geom_bond_site_symmetry_1
_geom_bond_site_symmetry_2
Cd1 N1 1_555 1_555
C1 H1 1_555 1_555
C2 H2 1_555 1_555
C3 C2 1_555 1_555
H3 C3 1_555 1_555
C4 C5 1_555 1_555
C5 H4 1_555 1_555
C6 C5 1_555 1_555
H5 C6 1_555 1_555
C7 C6 1_555 1_555
C8 C7 1_555 1_555
H6 C8 1_555 1_555
C9 C4 1_555 1_555
H7 C9 1_555 1_555
C10 C7 1_555 1_555
C11 H8 1_555 1_555
C12 H9 1_555 1_555
C13 C12 1_555 1_555
H10 C13 1_555 1_555
C14 C15 1_555 1_555
C15 H11 1_555 1_555
C16 C15 1_555 1_555
H12 C16 1_555 1_555
C17 C16 1_555 1_555
C18 C17 1_555 1_555
H13 C18 1_555 1_555
C19 C14 1_555 1_555
H14 C19 1_555 1_555
C20 C17 1_555 1_555
N1 C1 1_555 1_555
N2 C1 1_555 1_555
N3 Cd1 1_555 1_555
N4 C11 1_555 1_555
O1 C10 1_555 1_555
O2 C10 1_555 1_555
O3 C20 1_555 1_555
O4 C20 1_555 1_555
Cd1B O1 1_555 1_555
Cd1A O3 1_555 1_555
O1B Cd1 1_555 1_555
O2B Cd1 1_555 1_555
O3A Cd1 1_555 1_555
O4A Cd1 1_555 1_555
C2 N1 1_555 1_555
C3 N2 1_555 1_555
C4 N2 1_555 1_555
C8 C9 1_555 1_555
C11 N3 1_555 1_555
C12 N3 1_555 1_555
C13 N4 1_555 1_555
C14 N4 1_555 1_555
C18 C19 1_555 1_555
O2 Cd1B 1_555 1_555
O4 Cd1A 1_555 1_555

#END
