
#######################################################################
#
#                 Cambridge Crystallographic Data Centre
#                                CCDC 
#
#######################################################################
#
# If this CIF has been generated from an entry in the Cambridge 
# Structural Database, then it will include bibliographic, chemical, 
# crystal, experimental, refinement or atomic coordinate data resulting 
# from the CCDC's data processing and validation procedures.
#
#######################################################################

data_EYOQAL
_chemical_formula_moiety         '(C22 H18 Co1 N4 O4)n'
_symmetry_cell_setting           tetragonal
_symmetry_space_group_name_H-M   'P 4 21 2'
_symmetry_Int_Tables_number      90
_space_group_name_Hall           'P 4ab 2ab'
loop_
_symmetry_equiv_pos_site_id
_symmetry_equiv_pos_as_xyz
1 x,y,z
2 -x,-y,z
3 1/2-y,1/2+x,z
4 1/2+y,1/2-x,z
5 1/2-x,1/2+y,-z
6 1/2+x,1/2-y,-z
7 y,x,-z
8 -y,-x,-z
_cell_length_a                   18.5718(9)
_cell_length_b                   18.5718(9)
_cell_length_c                   7.7776(8)
_cell_angle_alpha                90
_cell_angle_beta                 90
_cell_angle_gamma                90
_cell_volume                     2682.59
loop_
_atom_site_label
_atom_site_type_symbol
_atom_site_fract_x
_atom_site_fract_y
_atom_site_fract_z
_atom_site_U_iso_or_equiv
_atom_site_thermal_displace_type
Co1 Co -0.22345(2) 0.22345(2) -0.5000 0.0363 Uani
C1 C -0.1223(3) 0.2314(2) -0.2832(6) 0.0543 Uani
C2 C -0.0704(2) 0.2459(2) -0.1385(5) 0.0473 Uani
C3 C -0.0942(2) 0.2484(2) 0.0308(6) 0.0537 Uani
H1 H -0.1427 0.2405 0.0541 0.0640 Uiso
C4 C 0.0017(3) 0.2567(3) -0.1688(6) 0.0597 Uani
H2 H 0.0189 0.2535 -0.2809 0.0710 Uiso
C5 C -0.0479(2) 0.2622(3) 0.1648(6) 0.0530 Uani
H3 H -0.0647 0.2635 0.2774 0.0630 Uiso
C6 C 0.0492(2) 0.2720(3) -0.0376(6) 0.0620 Uani
H4 H 0.0975 0.2808 -0.0619 0.0750 Uiso
C7 C 0.0251(2) 0.2743(3) 0.1290(6) 0.0500 Uani
C8 C 0.0645(2) 0.3475(2) 0.3807(6) 0.0520 Uani
H5 H 0.0256 0.3789 0.3872 0.0630 Uiso
C9 C 0.1347(2) 0.2561(2) 0.3055(5) 0.0487 Uani
C10 C 0.1607(3) 0.1895(3) 0.2285(7) 0.0890 Uani
H6 H 0.1278 0.1741 0.1408 0.1340 Uiso
H7 H 0.1643 0.1529 0.3155 0.1340 Uiso
H8 H 0.2073 0.1975 0.1786 0.1340 Uiso
C11 C 0.1239(2) 0.3486(2) 0.4795(6) 0.0520 Uani
H9 H 0.1336 0.3823 0.5650 0.0630 Uiso
N1 N 0.07237(18) 0.2903(2) 0.2670(4) 0.0468 Uani
N2 N 0.16909(16) 0.29086(16) 0.4331(4) 0.0416 Uani
O1 O -0.10164(18) 0.22058(18) -0.4322(4) 0.0658 Uani
O2 O -0.18908(19) 0.23509(18) -0.2484(4) 0.0646 Uani
Co1B Co 0.27655(2) 0.27655(2) 0.5000 0.0363 Uani
Co1C Co -0.27655(2) -0.27655(2) -1.5000 0.0363 Uani
C1G C -0.2314(2) 0.1223(3) -0.7168(6) 0.0543 Uani
C2G C -0.2459(2) 0.0704(2) -0.8615(5) 0.0473 Uani
C3G C -0.2484(2) 0.0942(2) -1.0308(6) 0.0537 Uani
H1G H -0.2405 0.1427 -1.0541 0.0640 Uiso
C4G C -0.2567(3) -0.0017(3) -0.8312(6) 0.0597 Uani
H2G H -0.2535 -0.0189 -0.7191 0.0710 Uiso
C5G C -0.2622(3) 0.0479(2) -1.1648(6) 0.0530 Uani
H3G H -0.2635 0.0647 -1.2774 0.0630 Uiso
C6G C -0.2720(3) -0.0492(2) -0.9624(6) 0.0620 Uani
H4G H -0.2808 -0.0975 -0.9381 0.0750 Uiso
C7G C -0.2743(3) -0.0251(2) -1.1290(6) 0.0500 Uani
C8G C -0.3475(2) -0.0645(2) -1.3807(6) 0.0520 Uani
H5G H -0.3789 -0.0256 -1.3872 0.0630 Uiso
C9G C -0.2561(2) -0.1347(2) -1.3055(5) 0.0487 Uani
C10G C -0.1895(3) -0.1607(3) -1.2285(7) 0.0890 Uani
H6G H -0.1741 -0.1278 -1.1408 0.1340 Uiso
H7G H -0.1529 -0.1643 -1.3155 0.1340 Uiso
H8G H -0.1975 -0.2073 -1.1786 0.1340 Uiso
C11G C -0.3486(2) -0.1239(2) -1.4795(6) 0.0520 Uani
H9G H -0.3823 -0.1336 -1.5650 0.0630 Uiso
N1G N -0.2903(2) -0.07237(18) -1.2670(4) 0.0468 Uani
N2C N -0.20914(16) 0.33091(16) -0.5669(4) 0.0416 Uani
N2E N -0.33091(16) 0.20914(16) -0.4331(4) 0.0416 Uani
N2G N -0.29086(16) -0.16909(16) -1.4331(4) 0.0416 Uani
O1G O -0.22058(18) 0.10164(18) -0.5678(4) 0.0658 Uani
O2G O -0.23509(18) 0.18908(19) -0.7516(4) 0.0646 Uani
loop_
_atom_site_aniso_label
_atom_site_aniso_U_11
_atom_site_aniso_U_22
_atom_site_aniso_U_33
_atom_site_aniso_U_23
_atom_site_aniso_U_13
_atom_site_aniso_U_12
Co1 0.041 0.041 0.0269 0.0003 0.0003 -0.0037
C1 0.072(3) 0.045(3) 0.046(3) 0.013(2) -0.014(2) -0.010(2)
C2 0.049(2) 0.062(3) 0.031(2) 0.0060(19) -0.008(2) -0.008(2)
C3 0.048(2) 0.071(3) 0.042(3) 0.003(2) -0.0004(19) -0.008(2)
C4 0.065(3) 0.084(4) 0.030(2) 0.002(2) 0.010(2) -0.001(3)
C5 0.040(2) 0.086(3) 0.033(2) -0.001(2) -0.0044(18) -0.001(2)
C6 0.036(2) 0.107(4) 0.043(3) -0.005(3) -0.0011(18) -0.008(2)
C7 0.041(2) 0.067(3) 0.042(2) -0.006(3) -0.0051(18) -0.003(2)
C8 0.039(2) 0.068(3) 0.049(3) -0.011(2) -0.002(2) 0.003(2)
C9 0.049(2) 0.053(3) 0.044(2) -0.0106(19) -0.0058(19) 0.007(2)
C10 0.098(4) 0.089(4) 0.080(4) -0.046(3) -0.043(3) 0.031(3)
C11 0.042(2) 0.060(2) 0.054(3) -0.016(2) 0.000(2) 0.0038(18)
N1 0.0391(18) 0.063(2) 0.0382(19) -0.0055(18) -0.0031(15) -0.0009(16)
N2 0.0443(17) 0.0461(19) 0.0343(17) -0.0064(14) -0.0033(14) 0.0055(15)
O1 0.083(2) 0.075(2) 0.0395(18) -0.0062(16) -0.0134(16) 0.0072(19)
O2 0.060(2) 0.082(2) 0.0517(19) 0.0189(17) -0.0176(16) -0.0218(17)
Co1B 0.0410(3) 0.0410(3) 0.0269(4) 0.0003(3) -0.0003(3) 0.0037(3)
Co1C 0.041 0.041 0.0269 -0.0003 0.0003 0.0037
C1G 0.045 0.072 0.046 -0.014 0.013 -0.01
C2G 0.062 0.049 0.031 -0.008 0.006 -0.008
C3G 0.071 0.048 0.042 -0.0004 0.003 -0.008
C4G 0.084 0.065 0.03 0.01 0.002 -0.001
C5G 0.086 0.04 0.033 -0.0044 -0.001 -0.001
C6G 0.107 0.036 0.043 -0.0011 -0.005 -0.008
C7G 0.067 0.041 0.042 -0.0051 -0.006 -0.003
C8G 0.068 0.039 0.049 -0.002 -0.011 0.003
C9G 0.053 0.049 0.044 -0.0058 -0.0106 0.007
C10G 0.089 0.098 0.08 -0.043 -0.046 0.031
C11G 0.06 0.042 0.054 0 -0.016 0.0038
N1G 0.063 0.0391 0.0382 -0.0031 -0.0055 -0.0009
N2C 0.0461 0.0443 0.0343 0.0033 -0.0064 -0.0055
N2E 0.0443 0.0461 0.0343 -0.0064 0.0033 -0.0055
N2G 0.0461 0.0443 0.0343 -0.0033 -0.0064 0.0055
O1G 0.075 0.083 0.0395 -0.0134 -0.0062 0.0072
O2G 0.082 0.06 0.0517 -0.0176 0.0189 -0.0218
loop_
_geom_bond_atom_site_label_1
_geom_bond_atom_site_label_2
_geom_bond_site_symmetry_1
_geom_bond_site_symmetry_2
Co1 O1 1_555 1_555
C1 C2 1_555 1_555
C2 C3 1_555 1_555
C3 H1 1_555 1_555
C4 C2 1_555 1_555
H2 C4 1_555 1_555
C5 C3 1_555 1_555
H3 C5 1_555 1_555
C6 C4 1_555 1_555
H4 C6 1_555 1_555
C7 C5 1_555 1_555
C8 H5 1_555 1_555
C9 C10 1_555 1_555
C10 H6 1_555 1_555
H7 C10 1_555 1_555
H8 C10 1_555 1_555
C11 C8 1_555 1_555
H9 C11 1_555 1_555
N1 C7 1_555 1_555
N2 C9 1_555 1_555
O1 C1 1_555 1_555
O2 Co1 1_555 1_555
Co1B N2 1_555 1_555
Co1C N2G 1_555 1_555
C1G C2G 1_555 1_555
C2G C3G 1_555 1_555
C3G H1G 1_555 1_555
C4G C2G 1_555 1_555
H2G C4G 1_555 1_555
C5G C3G 1_555 1_555
H3G C5G 1_555 1_555
C6G C4G 1_555 1_555
H4G C6G 1_555 1_555
C7G C5G 1_555 1_555
C8G H5G 1_555 1_555
C9G C10G 1_555 1_555
C10G H6G 1_555 1_555
H7G C10G 1_555 1_555
H8G C10G 1_555 1_555
C11G C8G 1_555 1_555
H9G C11G 1_555 1_555
N1G C7G 1_555 1_555
N2C Co1 1_555 1_555
N2E Co1 1_555 1_555
N2G C9G 1_555 1_555
O1G Co1 1_555 1_555
O2G Co1 1_555 1_555
C1 O2 1_555 1_555
C6 C7 1_555 1_555
C8 N1 1_555 1_555
C9 N1 1_555 1_555
C11 N2 1_555 1_555
C1G O1G 1_555 1_555
C1G O2G 1_555 1_555
C6G C7G 1_555 1_555
C8G N1G 1_555 1_555
C9G N1G 1_555 1_555
C11G N2G 1_555 1_555

#END
