
#######################################################################
#
#                 Cambridge Crystallographic Data Centre
#                                CCDC 
#
#######################################################################
#
# If this CIF has been generated from an entry in the Cambridge 
# Structural Database, then it will include bibliographic, chemical, 
# crystal, experimental, refinement or atomic coordinate data resulting 
# from the CCDC's data processing and validation procedures.
#
#######################################################################

data_EYOQEP
_chemical_formula_moiety         '(C22 H18 Cd1 N4 O4)n'
_symmetry_cell_setting           orthorhombic
_symmetry_space_group_name_H-M   'A b a 2'
_symmetry_Int_Tables_number      41
_space_group_name_Hall           'A 2 -2ab'
loop_
_symmetry_equiv_pos_site_id
_symmetry_equiv_pos_as_xyz
1 x,y,z
2 -x,-y,z
3 1/2+x,1/2-y,z
4 1/2-x,1/2+y,z
5 x,1/2+y,1/2+z
6 -x,1/2-y,1/2+z
7 1/2+x,-y,1/2+z
8 1/2-x,y,1/2+z
_cell_length_a                   15.573(2)
_cell_length_b                   19.416(3)
_cell_length_c                   19.664(3)
_cell_angle_alpha                90
_cell_angle_beta                 90
_cell_angle_gamma                90
_cell_volume                     5945.71
loop_
_atom_site_label
_atom_site_type_symbol
_atom_site_fract_x
_atom_site_fract_y
_atom_site_fract_z
_atom_site_U_iso_or_equiv
_atom_site_thermal_displace_type
Cd1 Cd 0.49388(4) -0.22736(2) 0.05798(6) 0.0408 Uani
C1 C 0.6034(6) -0.1205(4) 0.0547(8) 0.0523 Uani
C2 C 0.6733(6) -0.0679(4) 0.0463(7) 0.0543 Uani
C3 C 0.7575(5) -0.0875(4) 0.0406(5) 0.0530 Uani
H1 H 0.7721 -0.1338 0.0430 0.0640 Uiso
C4 C 0.8207(6) -0.0386(4) 0.0313(5) 0.0587 Uani
H2 H 0.8779 -0.0519 0.0287 0.0700 Uiso
C5 C 0.7987(7) 0.0314(5) 0.0258(4) 0.0517 Uani
C6 C 0.7132(7) 0.0509(5) 0.0300(5) 0.0717 Uani
H3 H 0.6980 0.0970 0.0263 0.0860 Uiso
C7 C 0.6508(5) 0.0013(5) 0.0397(5) 0.0617 Uani
H4 H 0.5934 0.0141 0.0419 0.0740 Uiso
C8 C 0.8383(6) 0.1577(4) 0.1144(4) 0.0573 Uani
H5 H 0.8606 0.2007 0.1308 0.0860 Uiso
H6 H 0.8447 0.1231 0.1489 0.0860 Uiso
H7 H 0.7786 0.1629 0.1034 0.0860 Uiso
C9 C 0.8876(6) 0.1360(4) 0.0510(7) 0.0473 Uani
C10 C 0.9301(6) 0.0761(5) -0.0346(5) 0.0553 Uani
H8 H 0.9330 0.0426 -0.0684 0.0670 Uiso
C11 C 0.9844(6) 0.1267(5) -0.0264(4) 0.0513 Uani
H9 H 1.0333 0.1354 -0.0523 0.0620 Uiso
C12 C 0.3704(6) -0.2259(5) -0.0377(6) 0.0510 Uani
C13 C 0.3002(6) -0.2263(5) -0.0930(4) 0.0450 Uani
C14 C 0.3158(7) -0.2126(6) -0.1578(5) 0.0720 Uani
H10 H 0.3718 -0.2043 -0.1722 0.0860 Uiso
C15 C 0.2510(10) -0.2107(5) -0.2026(7) 0.0700 Uani
H11 H 0.2627 -0.1969 -0.2469 0.0840 Uiso
C16 C 0.1693(6) -0.2281(5) -0.1863(5) 0.0513 Uani
C17 C 0.1503(6) -0.2446(4) -0.1215(5) 0.0503 Uani
H12 H 0.0944 -0.2557 -0.1090 0.0610 Uiso
C18 C 0.2173(6) -0.2446(4) -0.0728(5) 0.0530 Uani
H13 H 0.2063 -0.2567 -0.0278 0.0630 Uiso
C19 C 0.1624(7) -0.3007(5) -0.3236(5) 0.0810 Uani
H14 H 0.1476 -0.3112 -0.3699 0.1220 Uiso
H15 H 0.1620 -0.3423 -0.2972 0.1220 Uiso
H16 H 0.2187 -0.2805 -0.3222 0.1220 Uiso
C20 C 0.0988(6) -0.2513(5) -0.2952(6) 0.0563 Uani
C21 C -0.0150(7) -0.1920(5) -0.2838(5) 0.0750 Uani
H17 H -0.0669 -0.1699 -0.2926 0.0900 Uiso
C22 C 0.0263(7) -0.1906(6) -0.2238(5) 0.0890 Uani
H18 H 0.0073 -0.1699 -0.1839 0.1070 Uiso
N1 N 0.9547(4) 0.1655(3) 0.0290(4) 0.0477 Uani
N2 N 0.8679(5) 0.0803(4) 0.0150(4) 0.0470 Uani
N3 N 0.0305(6) -0.2309(4) -0.3306(5) 0.0483 Uani
N4 N 0.0999(5) -0.2244(5) -0.2327(3) 0.0593 Uani
O1 O 0.6287(3) -0.1813(3) 0.0664(4) 0.0513 Uani
O2 O 0.5269(3) -0.1049(3) 0.0501(6) 0.0647 Uani
O3 O 0.3519(4) -0.2348(3) 0.0246(3) 0.0577 Uani
O4 O 0.4452(6) -0.2163(4) -0.0599(4) 0.0580 Uani
Cd1G Cd 0.00612(4) -0.22736(2) -0.44202(6) 0.0408 Uani
Cd1C Cd 1.00612(4) 0.27264(2) 0.05798(6) 0.0408 Uani
N1C N 0.5453(4) -0.3345(3) 0.0290(4) 0.0477 Uani
N3G N 0.4695(6) -0.2309(4) 0.1694(5) 0.0483 Uani
loop_
_atom_site_aniso_label
_atom_site_aniso_U_11
_atom_site_aniso_U_22
_atom_site_aniso_U_33
_atom_site_aniso_U_23
_atom_site_aniso_U_13
_atom_site_aniso_U_12
Cd1 0.0333 0.0483 0.0408 -0.0002 0.0013 0.0005
C1 0.051 0.048 0.058 -0.021 0.023 0.003
C2 0.052 0.025 0.086 0.01 -0.02 -0.006
C3 0.032 0.045 0.082 0.007 -0.001 -0.003
C4 0.044 0.035 0.097 0.005 -0.002 0.006
C5 0.051 0.052 0.052 -0.01 -0.002 -0.002
C6 0.044 0.04 0.131 0.004 -0.004 0.005
C7 0.037 0.065 0.083 -0.016 -0.001 -0.012
C8 0.06 0.048 0.064 -0.008 0.004 -0.01
C9 0.059 0.035 0.048 0.029 0.005 0.008
C10 0.056 0.052 0.058 -0.02 -0.002 0.011
C11 0.061 0.049 0.044 0.002 0.007 -0.007
C12 0.025 0.046 0.082 -0.01 -0.003 0.011
C13 0.029 0.06 0.046 -0.012 -0.007 0.003
C14 0.049 0.148 0.019 -0.011 -0.002 0.008
C15 0.051 0.112 0.047 0.001 0.002 -0.01
C16 0.051 0.066 0.037 0.015 -0.01 0.008
C17 0.029 0.065 0.057 0.009 -0.017 -0.002
C18 0.055 0.059 0.045 -0.005 0.01 -0.002
C19 0.093 0.087 0.063 0.004 0.003 0.034
C20 0.032 0.073 0.064 0.013 0.003 0.01
C21 0.054 0.099 0.072 -0.021 -0.011 0.024
C22 0.065 0.163 0.039 -0.023 -0.01 0.027
N1 0.024 0.055 0.064 0.005 -0.001 -0.007
N2 0.046 0.034 0.061 -0.011 0.01 -0.01
N3 0.042 0.056 0.047 -0.012 -0.007 -0.002
N4 0.044 0.104 0.03 -0.015 0.001 0.021
O1 0.035 0.058 0.061 -0.017 0.013 -0.002
O2 0.039 0.057 0.098 0.012 0.01 0
O3 0.049 0.087 0.037 0.001 -0.002 -0.007
O4 0.037 0.084 0.053 0.02 -0.006 0.001
Cd1G 0.0333 0.0483 0.0408 -0.0002 -0.0013 -0.0005
Cd1C 0.0333 0.0483 0.0408 -0.0002 -0.0013 -0.0005
N1C 0.024 0.055 0.064 0.005 0.001 0.007
N3G 0.042 0.056 0.047 -0.012 0.007 0.002
loop_
_geom_bond_atom_site_label_1
_geom_bond_atom_site_label_2
_geom_bond_site_symmetry_1
_geom_bond_site_symmetry_2
Cd1 O1 1_555 1_555
C1 C2 1_555 1_555
C2 C3 1_555 1_555
C3 H1 1_555 1_555
C4 C3 1_555 1_555
H2 C4 1_555 1_555
C5 C4 1_555 1_555
C6 C5 1_555 1_555
H3 C6 1_555 1_555
C7 C2 1_555 1_555
H4 C7 1_555 1_555
C8 H5 1_555 1_555
H6 C8 1_555 1_555
H7 C8 1_555 1_555
C9 C8 1_555 1_555
C10 H8 1_555 1_555
C11 C10 1_555 1_555
H9 C11 1_555 1_555
C12 C13 1_555 1_555
C13 C14 1_555 1_555
C14 H10 1_555 1_555
C15 C14 1_555 1_555
H11 C15 1_555 1_555
C16 C15 1_555 1_555
C17 C16 1_555 1_555
H12 C17 1_555 1_555
C18 C13 1_555 1_555
H13 C18 1_555 1_555
C19 H14 1_555 1_555
H15 C19 1_555 1_555
H16 C19 1_555 1_555
C20 C19 1_555 1_555
C21 H17 1_555 1_555
C22 C21 1_555 1_555
H18 C22 1_555 1_555
N1 C9 1_555 1_555
N2 C5 1_555 1_555
N3 C20 1_555 1_555
N4 C16 1_555 1_555
O1 C1 1_555 1_555
O2 Cd1 1_555 1_555
O3 Cd1 1_555 1_555
O4 Cd1 1_555 1_555
Cd1G N3 1_555 1_555
Cd1C N1 1_555 1_555
N1C Cd1 1_555 1_555
N3G Cd1 1_555 1_555
C1 O2 1_555 1_555
C6 C7 1_555 1_555
C9 N2 1_555 1_555
C10 N2 1_555 1_555
C11 N1 1_555 1_555
C12 O3 1_555 1_555
C12 O4 1_555 1_555
C17 C18 1_555 1_555
C20 N4 1_555 1_555
C21 N3 1_555 1_555
C22 N4 1_555 1_555

#END
