
#######################################################################
#
#                 Cambridge Crystallographic Data Centre
#                                CCDC 
#
#######################################################################
#
# If this CIF has been generated from an entry in the Cambridge 
# Structural Database, then it will include bibliographic, chemical, 
# crystal, experimental, refinement or atomic coordinate data resulting 
# from the CCDC's data processing and validation procedures.
#
#######################################################################

data_MIXYID
_chemical_formula_moiety         '(C102 H84 N12 Ni6 O36)n'
_symmetry_cell_setting           trigonal
_symmetry_space_group_name_H-M   'P 3'
_symmetry_Int_Tables_number      143
_space_group_name_Hall           'P 3'
loop_
_symmetry_equiv_pos_site_id
_symmetry_equiv_pos_as_xyz
1 x,y,z
2 -y,x-y,z
3 -x+y,-x,z
_cell_length_a                   16.634(2)
_cell_length_b                   16.634(2)
_cell_length_c                   18.194(4)
_cell_angle_alpha                90
_cell_angle_beta                 90
_cell_angle_gamma                120
_cell_volume                     4359.66
loop_
_atom_site_label
_atom_site_type_symbol
_atom_site_fract_x
_atom_site_fract_y
_atom_site_fract_z
Ni1 Ni 0.32095(9) 0.00005(9) 0.23170(5)
O1 O 0.2507(4) 0.0793(5) 0.2374(4)
O2 O 0.1720(5) -0.0781(5) 0.2351(4)
O3 O 0.3339(4) -0.1150(4) 0.2301(4)
O4 O 0.4812(4) -0.0808(5) 0.2401(5)
O5 O 0.5627(5) 0.0824(5) 0.2432(5)
O6 O 0.4491(4) 0.1150(4) 0.2311(4)
C1 C 0.1732(5) 0.0004(6) 0.2361(5)
C2 C 0.0842(5) 0.0000(6) 0.2380(4)
C3 C 0.0815(6) 0.0835(5) 0.2375(4)
H1 H 0.1382 0.1409 0.2368
C4 C 0.3945(7) -0.1404(7) 0.2352(5)
C5 C 0.3640(7) -0.2403(6) 0.2362(5)
C6 C 0.4255(6) -0.2689(6) 0.2379(5)
H2 H 0.4899 -0.2248 0.2404
C7 C 0.5318(8) 0.1375(6) 0.2377(7)
C8 C 0.6017(5) 0.2387(5) 0.2404(6)
C9 C 0.5731(6) 0.3053(6) 0.2421(6)
H3 H 0.5088 0.2856 0.2445
Ni2 Ni 0.32066(9) 0.00008(9) 0.85049(5)
O7 O 0.2511(4) 0.0782(4) 0.8453(4)
O8 O 0.1739(4) -0.0775(4) 0.8446(4)
O9 O 0.3343(4) -0.1145(4) 0.8526(4)
O10 O 0.4817(4) -0.0786(5) 0.8420(5)
O11 O 0.5626(5) 0.0817(5) 0.8391(6)
O12 O 0.4482(4) 0.1145(4) 0.8510(4)
C10 C 0.1736(6) 0.0001(6) 0.8442(4)
C11 C 0.0848(5) -0.0004(6) 0.8431(4)
C12 C 0.0816(6) 0.0841(6) 0.8435(4)
H4 H 0.1384 0.1416 0.8442
C13 C 0.3943(7) -0.1394(8) 0.8469(6)
C14 C 0.3631(6) -0.2385(6) 0.8453(5)
C15 C 0.4251(6) -0.2696(6) 0.8446(5)
H5 H 0.4895 -0.2252 0.8434
C16 C 0.5313(8) 0.1389(7) 0.8481(8)
C17 C 0.6012(6) 0.2381(6) 0.8417(6)
C18 C 0.5742(6) 0.3062(6) 0.8415(6)
H6 H 0.5098 0.2867 0.8412
N1 N 0.3257(5) 0.0010(5) 0.3436(6)
C19 C 0.3367(13) -0.0636(14) 0.3816(14)
H7 H 0.3444 -0.1079 0.3543
C20 C 0.3373(15) -0.0685(15) 0.4570(14)
H8 H 0.3453 -0.1136 0.4829
C21 C 0.3248(5) -0.0005(5) 0.4915(6)
C22 C 0.3143(14) 0.0671(14) 0.4574(12)
H9 H 0.3074 0.1120 0.4846
C23 C 0.3142(14) 0.0668(14) 0.3802(13)
H10 H 0.3063 0.1115 0.3537
N2 N 0.3260(4) -0.0002(4) 0.7324(5)
C24 C 0.3828(10) 0.0769(11) 0.6939(9)
H11 H 0.4228 0.1326 0.7196
C25 C 0.3842(11) 0.0770(10) 0.6189(8)
H12 H 0.4258 0.1331 0.5944
C26 C 0.3288(8) 0.0002(8) 0.5769(6)
C27 C 0.2697(11) -0.0806(11) 0.6195(8)
H13 H 0.2296 -0.1368 0.5944
C28 C 0.2682(10) -0.0806(11) 0.6956(9)
H14 H 0.2278 -0.1356 0.7219
N3 N 0.3224(4) 0.0003(4) 0.9663(6)
N4 N 0.3203(4) 0.0010(4) 1.1128(6)
C29 C 0.3252(10) 0.0842(7) 0.9997(6)
H15 H 0.3814 0.1403 0.9818
H16 H 0.2706 0.0875 0.9822
C30 C 0.3258(10) 0.0857(8) 1.0808(6)
H17 H 0.2724 0.0912 1.0985
H18 H 0.3833 0.1409 1.0981
C31 C 0.2402(7) -0.0816(8) 1.0008(6)
H19 H 0.1830 -0.0833 0.9832
H20 H 0.2383 -0.1390 0.9835
C32 C 0.2397(8) -0.0817(9) 1.0815(5)
H21 H 0.2397 -0.1380 1.0993
H22 H 0.1820 -0.0845 1.0990
C33 C 0.4017(9) -0.0003(12) 1.0010(6)
H23 H 0.4031 -0.0565 0.9849
H24 H 0.4598 0.0545 0.9840
C34 C 0.3985(9) 0.0008(11) 1.0803(7)
H25 H 0.4003 -0.0543 1.0988
H26 H 0.4555 0.0564 1.0979
O1A O -0.0793(5) 0.1714(6) 0.2374(4)
O2A O 0.0781(5) 0.2501(7) 0.2351(4)
C1A C -0.0004(6) 0.1728(8) 0.2361(5)
C2A C 0.0000(6) 0.0842(8) 0.2380(4)
C3A C -0.0835(5) -0.0020(8) 0.2375(4)
H1A H -0.1409 -0.0027 0.2368
O1B O -0.1714(6) -0.2507(4) 0.2374(4)
O2B O -0.2501(7) -0.1720(5) 0.2351(4)
C1B C -0.1728(8) -0.1732(5) 0.2361(5)
C2B C -0.0842(8) -0.0842(5) 0.2380(4)
C3B C 0.0020(8) -0.0815(6) 0.2375(4)
H1B H 0.0027 -0.1382 0.2368
O3A O 0.1150(4) -0.5511(6) 0.2301(4)
O4A O 0.0808(5) -0.4380(6) 0.2401(5)
C4A C 0.1404(7) -0.4651(10) 0.2352(5)
C5A C 0.2403(6) -0.3957(9) 0.2362(5)
C6A C 0.2689(6) -0.3056(8) 0.2379(5)
H2A H 0.2248 -0.2853 0.2404
O3B O 0.5511(6) -0.3339(4) 0.2301(4)
O4B O 0.4380(6) -0.4812(4) 0.2401(5)
C4B C 0.4651(10) -0.3945(7) 0.2352(5)
C5B C 0.3957(9) -0.3640(7) 0.2362(5)
C6B C 0.3056(8) -0.4255(6) 0.2379(5)
H2B H 0.2853 -0.4899 0.2404
O5A O 0.9176(5) 0.4803(7) 0.2432(5)
O6A O 0.8850(4) 0.3341(6) 0.2311(4)
C7A C 0.8625(6) 0.3943(10) 0.2377(7)
C8A C 0.7613(5) 0.3630(7) 0.2404(6)
C9A C 0.6947(6) 0.2678(8) 0.2421(6)
H3A H 0.7144 0.2232 0.2445
O5B O 0.5197(7) 0.4373(5) 0.2432(5)
O6B O 0.6659(6) 0.5509(4) 0.2311(4)
C7B C 0.6057(10) 0.4682(8) 0.2377(7)
C8B C 0.6370(7) 0.3983(5) 0.2404(6)
C9B C 0.7322(8) 0.4269(6) 0.2421(6)
H3B H 0.7768 0.4912 0.2445
O7A O -0.0782(4) 0.1729(6) 0.8453(4)
O8A O 0.0775(4) 0.2514(6) 0.8446(4)
C10A C -0.0001(6) 0.1735(8) 0.8442(4)
C11A C 0.0004(6) 0.0852(8) 0.8431(4)
C12A C -0.0841(6) -0.0025(8) 0.8435(4)
H4A H -0.1416 -0.0032 0.8442
O7B O -0.1729(6) -0.2511(4) 0.8453(4)
O8B O -0.2514(6) -0.1739(4) 0.8446(4)
C10B C -0.1735(8) -0.1736(6) 0.8442(4)
C11B C -0.0852(8) -0.0848(5) 0.8431(4)
C12B C 0.0025(8) -0.0816(6) 0.8435(4)
H4B H 0.0032 -0.1384 0.8442
O9A O 0.1145(4) -0.5512(6) 0.8526(4)
O10A O 0.0786(5) -0.4397(6) 0.8420(5)
C13A C 0.1394(8) -0.4663(11) 0.8469(6)
C14A C 0.2385(6) -0.3984(8) 0.8453(5)
C15A C 0.2696(6) -0.3053(8) 0.8446(5)
H5A H 0.2252 -0.2853 0.8434
O9B O 0.5512(6) -0.3343(4) 0.8526(4)
O10B O 0.4397(6) -0.4817(4) 0.8420(5)
C13B C 0.4663(11) -0.3943(7) 0.8469(6)
C14B C 0.3984(8) -0.3631(6) 0.8453(5)
C15B C 0.3053(8) -0.4251(6) 0.8446(5)
H5B H 0.2853 -0.4895 0.8434
O11A O 0.9183(5) 0.4809(7) 0.8391(6)
O12A O 0.8855(4) 0.3337(6) 0.8510(4)
C16A C 0.8611(7) 0.3924(11) 0.8481(8)
C17A C 0.7619(6) 0.3631(8) 0.8417(6)
C18A C 0.6938(6) 0.2680(8) 0.8415(6)
H6A H 0.7133 0.2231 0.8412
O11B O 0.5191(7) 0.4374(5) 0.8391(6)
O12B O 0.6663(6) 0.5518(4) 0.8510(4)
C16B C 0.6076(11) 0.4687(8) 0.8481(8)
C17B C 0.6369(8) 0.3988(6) 0.8417(6)
C18B C 0.7320(8) 0.4258(6) 0.8415(6)
H6B H 0.7769 0.4902 0.8412
Ni1A Ni -0.00005(9) -0.67910(13) 0.23170(5)
Ni2A Ni -0.00008(9) -0.67942(13) 0.85049(5)
N1A N -0.0010(5) -0.6753(7) 0.3436(6)
C19A C 0.0636(14) -0.5997(19) 0.3816(14)
H7A H 0.1079 -0.5477 0.3543
C20A C 0.0685(15) -0.5942(21) 0.4570(14)
H8A H 0.1136 -0.5411 0.4829
C21A C 0.0005(5) -0.6747(7) 0.4915(6)
C22A C -0.0671(14) -0.7528(20) 0.4574(12)
H9A H -0.1120 -0.8046 0.4846
C23A C -0.0668(14) -0.7526(20) 0.3802(13)
H10A H -0.1115 -0.8052 0.3537
N2A N 0.0002(4) -0.6738(6) 0.7324(5)
C24A C -0.0769(11) -0.6941(15) 0.6939(9)
H11A H -0.1326 -0.7098 0.7196
C25A C -0.0770(10) -0.6928(15) 0.6189(8)
H12A H -0.1331 -0.7073 0.5944
C26A C -0.0002(8) -0.6714(11) 0.5769(6)
C27A C 0.0806(11) -0.6497(16) 0.6195(8)
H13A H 0.1368 -0.6336 0.5944
C28A C 0.0806(11) -0.6512(15) 0.6956(9)
H14A H 0.1356 -0.6366 0.7219
N3A N -0.0003(4) -0.6779(6) 0.9663(6)
N4A N -0.0010(4) -0.6807(6) 1.1128(6)
C29A C -0.0842(7) -0.7590(12) 0.9997(6)
H15A H -0.1403 -0.7589 0.9818
H16A H -0.0875 -0.8169 0.9822
C30A C -0.0857(8) -0.7599(13) 1.0808(6)
H17A H -0.0912 -0.8188 1.0985
H18A H -0.1409 -0.7576 1.0981
C31A C 0.0816(8) -0.6782(11) 1.0008(6)
H19A H 0.0833 -0.7337 0.9832
H20A H 0.1390 -0.6227 0.9835
C32A C 0.0817(9) -0.6786(12) 1.0815(5)
H21A H 0.1380 -0.6223 1.0993
H22A H 0.0845 -0.7335 1.0990
C33A C 0.0003(12) -0.5980(15) 1.0010(6)
H23A H 0.0565 -0.5404 0.9849
H24A H -0.0545 -0.5947 0.9840
C34A C -0.0008(11) -0.6023(14) 1.0803(7)
H25A H 0.0543 -0.5454 1.0988
H26A H -0.0564 -0.6009 1.0979
Ni1_2 Ni 0.32095(9) 0.00005(9) -0.76830(5)
Ni2_2 Ni 0.32066(9) 0.00008(9) -0.14951(5)
N1_2 N 0.3257(5) 0.0010(5) -0.6564(6)
C19_2 C 0.3367(13) -0.0636(14) -0.6184(14)
H7_2 H 0.3444 -0.1079 -0.6457
C20_2 C 0.3373(15) -0.0685(15) -0.5430(14)
H8_2 H 0.3453 -0.1136 -0.5171
C21_2 C 0.3248(5) -0.0005(5) -0.5085(6)
C22_2 C 0.3143(14) 0.0671(14) -0.5426(12)
H9_2 H 0.3074 0.1120 -0.5154
C23_2 C 0.3142(14) 0.0668(14) -0.6198(13)
H10_2 H 0.3063 0.1115 -0.6463
N2_2 N 0.3260(4) -0.0002(4) -0.2676(5)
C24_2 C 0.3828(10) 0.0769(11) -0.3061(9)
H11_2 H 0.4228 0.1326 -0.2804
C25_2 C 0.3842(11) 0.0770(10) -0.3811(8)
H12_2 H 0.4258 0.1331 -0.4056
C26_2 C 0.3288(8) 0.0002(8) -0.4231(6)
C27_2 C 0.2697(11) -0.0806(11) -0.3805(8)
H13_2 H 0.2296 -0.1368 -0.4056
C28_2 C 0.2682(10) -0.0806(11) -0.3044(9)
H14_2 H 0.2278 -0.1356 -0.2781
N3_2 N 0.3224(4) 0.0003(4) -0.0337(6)
N4_2 N 0.3203(4) 0.0010(4) 0.1128(6)
C29_2 C 0.3252(10) 0.0842(7) -0.0003(6)
H15_2 H 0.3814 0.1403 -0.0182
H16_2 H 0.2706 0.0875 -0.0178
C30_2 C 0.3258(10) 0.0857(8) 0.0808(6)
H17_2 H 0.2724 0.0912 0.0985
H18_2 H 0.3833 0.1409 0.0981
C31_2 C 0.2402(7) -0.0816(8) 0.0008(6)
H19_2 H 0.1830 -0.0833 -0.0168
H20_2 H 0.2383 -0.1390 -0.0165
C32_2 C 0.2397(8) -0.0817(9) 0.0815(5)
H21_2 H 0.2397 -0.1380 0.0993
H22_2 H 0.1820 -0.0845 0.0990
C33_2 C 0.4017(9) -0.0003(12) 0.0010(6)
H23_2 H 0.4031 -0.0565 -0.0151
H24_2 H 0.4598 0.0545 -0.0160
C34_2 C 0.3985(9) 0.0008(11) 0.0803(7)
H25_2 H 0.4003 -0.0543 0.0988
H26_2 H 0.4555 0.0564 0.0979
Ni1_3 Ni 0.32095(9) 0.00005(9) 1.23170(5)
Ni1A_2 Ni -0.00005(9) -0.67910(13) 1.23170(5)
Ni1A_3 Ni -0.00005(9) 0.32090(13) 0.23170(5)
Ni1A_4 Ni 0.99995(9) 0.32090(13) 0.23170(5)
Ni1B Ni -0.32090(13) -0.32095(9) 0.23170(5)
Ni1B_2 Ni 0.67910(13) -0.32095(9) 0.23170(5)
Ni1B_3 Ni 0.67910(13) 0.67905(9) 0.23170(5)
O1_2 O 0.2507(4) 0.0793(5) -0.7626(4)
O1A_2 O -0.0793(5) -0.8286(6) 0.2374(4)
O2_2 O 0.1720(5) -0.0781(5) -0.7649(4)
O2A_2 O 0.0781(5) -0.7499(7) 0.2351(4)
O3_2 O 0.3339(4) -0.1150(4) -0.7699(4)
O6_2 O 0.4491(4) 0.1150(4) -0.7689(4)
O6A_2 O -0.1150(4) -0.6659(6) 0.2311(4)
Ni2A_2 Ni -0.00008(9) 0.32058(13) 0.85049(5)
Ni2A_3 Ni 0.99992(9) 0.32058(13) 0.85049(5)
Ni2B Ni -0.32058(13) -0.32066(9) 0.85049(5)
Ni2B_2 Ni 0.67942(13) -0.32066(9) 0.85049(5)
Ni2B_3 Ni 0.67942(13) 0.67934(9) 0.85049(5)
O7_2 O 0.2511(4) 0.0782(4) -0.1547(4)
O7A_2 O -0.0782(4) -0.8271(6) 0.8453(4)
O8_2 O 0.1739(4) -0.0775(4) -0.1554(4)
O8A_2 O 0.0775(4) -0.7486(6) 0.8446(4)
O9_2 O 0.3343(4) -0.1145(4) -0.1474(4)
O12_2 O 0.4482(4) 0.1145(4) -0.1490(4)
O12A_2 O -0.1145(4) -0.6663(6) 0.8510(4)
N4_3 N 0.3203(4) 0.0010(4) -0.8872(6)
N4A_2 N -0.0010(4) -0.6807(6) 0.1128(6)
loop_
_geom_bond_atom_site_label_1
_geom_bond_atom_site_label_2
_geom_bond_site_symmetry_1
_geom_bond_site_symmetry_2
Ni1 O1 1_555 1_555
O1 C1 1_555 1_555
O2 Ni1 1_555 1_555
O3 Ni1 1_555 1_555
O4 C4 1_555 1_555
O5 C7 1_555 1_555
O6 Ni1 1_555 1_555
C1 O2 1_555 1_555
C2 C1 1_555 1_555
C3 C2 1_555 1_555
H1 C3 1_555 1_555
C4 O3 1_555 1_555
C5 C4 1_555 1_555
C6 C5 1_555 1_555
H2 C6 1_555 1_555
C7 O6 1_555 1_555
C8 C7 1_555 1_555
C9 C8 1_555 1_555
H3 C9 1_555 1_555
Ni2 O7 1_555 1_555
O7 C10 1_555 1_555
O8 Ni2 1_555 1_555
O9 Ni2 1_555 1_555
O10 C13 1_555 1_555
O11 C16 1_555 1_555
O12 Ni2 1_555 1_555
C10 O8 1_555 1_555
C11 C10 1_555 1_555
C12 C11 1_555 1_555
H4 C12 1_555 1_555
C13 O9 1_555 1_555
C14 C13 1_555 1_555
C15 C14 1_555 1_555
H5 C15 1_555 1_555
C16 O12 1_555 1_555
C17 C16 1_555 1_555
C18 C17 1_555 1_555
H6 C18 1_555 1_555
N1 Ni1 1_555 1_555
C19 N1 1_555 1_555
H7 C19 1_555 1_555
C20 C19 1_555 1_555
H8 C20 1_555 1_555
C21 C20 1_555 1_555
C22 C21 1_555 1_555
H9 C22 1_555 1_555
C23 N1 1_555 1_555
H10 C23 1_555 1_555
N2 Ni2 1_555 1_555
C24 N2 1_555 1_555
H11 C24 1_555 1_555
C25 C24 1_555 1_555
H12 C25 1_555 1_555
C26 C21 1_555 1_555
C27 C26 1_555 1_555
H13 C27 1_555 1_555
C28 N2 1_555 1_555
H14 C28 1_555 1_555
N3 Ni2 1_555 1_555
N4 C30 1_555 1_555
C29 N3 1_555 1_555
H15 C29 1_555 1_555
H16 C29 1_555 1_555
C30 C29 1_555 1_555
H17 C30 1_555 1_555
H18 C30 1_555 1_555
C31 N3 1_555 1_555
H19 C31 1_555 1_555
H20 C31 1_555 1_555
C32 N4 1_555 1_555
H21 C32 1_555 1_555
H22 C32 1_555 1_555
C33 N3 1_555 1_555
H23 C33 1_555 1_555
H24 C33 1_555 1_555
C34 N4 1_555 1_555
H25 C34 1_555 1_555
H26 C34 1_555 1_555
O1A C1A 1_555 1_555
O2A C1A 1_555 1_555
C1A C2A 1_555 1_555
C2A C3 1_555 1_555
C3A C2A 1_555 1_555
H1A C3A 1_555 1_555
O1B C1B 1_555 1_555
O2B C1B 1_555 1_555
C1B C2B 1_555 1_555
C2B C3A 1_555 1_555
C3B C2 1_555 1_555
H1B C3B 1_555 1_555
O3A C4A 1_555 1_555
O4A C4A 1_555 1_555
C4A C5A 1_555 1_555
C5A C6A 1_555 1_555
C6A C5 1_555 1_555
H2A C6A 1_555 1_555
O3B C4B 1_555 1_555
O4B C4B 1_555 1_555
C4B C5B 1_555 1_555
C5B C6 1_555 1_555
C6B C5A 1_555 1_555
H2B C6B 1_555 1_555
O5A C7A 1_555 1_555
O6A C7A 1_555 1_555
C7A C8A 1_555 1_555
C8A C9A 1_555 1_555
C9A C8 1_555 1_555
H3A C9A 1_555 1_555
O5B C7B 1_555 1_555
O6B C7B 1_555 1_555
C7B C8B 1_555 1_555
C8B C9 1_555 1_555
C9B C8A 1_555 1_555
H3B C9B 1_555 1_555
O7A C10A 1_555 1_555
O8A C10A 1_555 1_555
C10A C11A 1_555 1_555
C11A C12 1_555 1_555
C12A C11A 1_555 1_555
H4A C12A 1_555 1_555
O7B C10B 1_555 1_555
O8B C10B 1_555 1_555
C10B C11B 1_555 1_555
C11B C12A 1_555 1_555
C12B C11 1_555 1_555
H4B C12B 1_555 1_555
O9A C13A 1_555 1_555
O10A C13A 1_555 1_555
C13A C14A 1_555 1_555
C14A C15A 1_555 1_555
C15A C14 1_555 1_555
H5A C15A 1_555 1_555
O9B C13B 1_555 1_555
O10B C13B 1_555 1_555
C13B C14B 1_555 1_555
C14B C15 1_555 1_555
C15B C14A 1_555 1_555
H5B C15B 1_555 1_555
O11A C16A 1_555 1_555
O12A C16A 1_555 1_555
C16A C17A 1_555 1_555
C17A C18A 1_555 1_555
C18A C17 1_555 1_555
H6A C18A 1_555 1_555
O11B C16B 1_555 1_555
O12B C16B 1_555 1_555
C16B C17B 1_555 1_555
C17B C18 1_555 1_555
C18B C17A 1_555 1_555
H6B C18B 1_555 1_555
Ni1A O3A 1_555 1_555
Ni2A O9A 1_555 1_555
N1A Ni1A 1_555 1_555
C19A N1A 1_555 1_555
H7A C19A 1_555 1_555
C20A C19A 1_555 1_555
H8A C20A 1_555 1_555
C21A C20A 1_555 1_555
C22A C21A 1_555 1_555
H9A C22A 1_555 1_555
C23A N1A 1_555 1_555
H10A C23A 1_555 1_555
N2A Ni2A 1_555 1_555
C24A N2A 1_555 1_555
H11A C24A 1_555 1_555
C25A C24A 1_555 1_555
H12A C25A 1_555 1_555
C26A C21A 1_555 1_555
C27A C26A 1_555 1_555
H13A C27A 1_555 1_555
C28A N2A 1_555 1_555
H14A C28A 1_555 1_555
N3A Ni2A 1_555 1_555
N4A C30A 1_555 1_555
C29A N3A 1_555 1_555
H15A C29A 1_555 1_555
H16A C29A 1_555 1_555
C30A C29A 1_555 1_555
H17A C30A 1_555 1_555
H18A C30A 1_555 1_555
C31A N3A 1_555 1_555
H19A C31A 1_555 1_555
H20A C31A 1_555 1_555
C32A N4A 1_555 1_555
H21A C32A 1_555 1_555
H22A C32A 1_555 1_555
C33A N3A 1_555 1_555
H23A C33A 1_555 1_555
H24A C33A 1_555 1_555
C34A N4A 1_555 1_555
H25A C34A 1_555 1_555
H26A C34A 1_555 1_555
Ni1_2 N1_2 1_555 1_555
Ni2_2 N2_2 1_555 1_555
N1_2 C19_2 1_555 1_555
C19_2 H7_2 1_555 1_555
C20_2 C19_2 1_555 1_555
H8_2 C20_2 1_555 1_555
C21_2 C20_2 1_555 1_555
C22_2 C21_2 1_555 1_555
H9_2 C22_2 1_555 1_555
C23_2 N1_2 1_555 1_555
H10_2 C23_2 1_555 1_555
N2_2 C24_2 1_555 1_555
C24_2 H11_2 1_555 1_555
C25_2 C24_2 1_555 1_555
H12_2 C25_2 1_555 1_555
C26_2 C21_2 1_555 1_555
C27_2 C26_2 1_555 1_555
H13_2 C27_2 1_555 1_555
C28_2 N2_2 1_555 1_555
H14_2 C28_2 1_555 1_555
N3_2 Ni2_2 1_555 1_555
N4_2 Ni1 1_555 1_555
C29_2 N3_2 1_555 1_555
H15_2 C29_2 1_555 1_555
H16_2 C29_2 1_555 1_555
C30_2 N4_2 1_555 1_555
H17_2 C30_2 1_555 1_555
H18_2 C30_2 1_555 1_555
C31_2 N3_2 1_555 1_555
H19_2 C31_2 1_555 1_555
H20_2 C31_2 1_555 1_555
C32_2 N4_2 1_555 1_555
H21_2 C32_2 1_555 1_555
H22_2 C32_2 1_555 1_555
C33_2 N3_2 1_555 1_555
H23_2 C33_2 1_555 1_555
H24_2 C33_2 1_555 1_555
C34_2 N4_2 1_555 1_555
H25_2 C34_2 1_555 1_555
H26_2 C34_2 1_555 1_555
Ni1_3 N4 1_555 1_555
Ni1A_2 N4A 1_555 1_555
Ni1A_3 O1A 1_555 1_555
Ni1A_4 O6A 1_555 1_555
Ni1B O1B 1_555 1_555
Ni1B_2 O3B 1_555 1_555
Ni1B_3 O6B 1_555 1_555
O1_2 Ni1_2 1_555 1_555
O1A_2 Ni1A 1_555 1_555
O2_2 Ni1_2 1_555 1_555
O2A_2 Ni1A 1_555 1_555
O3_2 Ni1_2 1_555 1_555
O6_2 Ni1_2 1_555 1_555
O6A_2 Ni1A 1_555 1_555
Ni2A_2 O7A 1_555 1_555
Ni2A_3 O12A 1_555 1_555
Ni2B O7B 1_555 1_555
Ni2B_2 O9B 1_555 1_555
Ni2B_3 O12B 1_555 1_555
O7_2 Ni2_2 1_555 1_555
O7A_2 Ni2A 1_555 1_555
O8_2 Ni2_2 1_555 1_555
O8A_2 Ni2A 1_555 1_555
O9_2 Ni2_2 1_555 1_555
O12_2 Ni2_2 1_555 1_555
O12A_2 Ni2A 1_555 1_555
N4_3 Ni1_2 1_555 1_555
N4A_2 Ni1A 1_555 1_555
C22 C23 1_555 1_555
C25 C26 1_555 1_555
C27 C28 1_555 1_555
C31 C32 1_555 1_555
C33 C34 1_555 1_555
O2A Ni1A_3 1_555 1_555
O2B Ni1B 1_555 1_555
C2B C3B 1_555 1_555
C5B C6B 1_555 1_555
C8B C9B 1_555 1_555
O8A Ni2A_2 1_555 1_555
O8B Ni2B 1_555 1_555
C11B C12B 1_555 1_555
C14B C15B 1_555 1_555
C17B C18B 1_555 1_555
C22A C23A 1_555 1_555
C25A C26A 1_555 1_555
C27A C28A 1_555 1_555
C31A C32A 1_555 1_555
C33A C34A 1_555 1_555
C22_2 C23_2 1_555 1_555
C25_2 C26_2 1_555 1_555
C27_2 C28_2 1_555 1_555
C29_2 C30_2 1_555 1_555
C31_2 C32_2 1_555 1_555
C33_2 C34_2 1_555 1_555

#END
