
#######################################################################
#
#                 Cambridge Crystallographic Data Centre
#                                CCDC 
#
#######################################################################
#
# If this CIF has been generated from an entry in the Cambridge 
# Structural Database, then it will include bibliographic, chemical, 
# crystal, experimental, refinement or atomic coordinate data resulting 
# from the CCDC's data processing and validation procedures.
#
#######################################################################

data_FUDGOC
_chemical_formula_moiety         '(C16 H6 In1 O9)n'
_symmetry_cell_setting           orthorhombic
_symmetry_space_group_name_H-M   'P n m a'
_symmetry_Int_Tables_number      62
_space_group_name_Hall           '-P 2ac 2n'
loop_
_symmetry_equiv_pos_site_id
_symmetry_equiv_pos_as_xyz
1 x,y,z
2 1/2-x,-y,1/2+z
3 -x,1/2+y,-z
4 1/2+x,1/2-y,1/2-z
5 -x,-y,-z
6 1/2+x,y,1/2-z
7 x,1/2-y,z
8 1/2-x,1/2+y,1/2+z
_cell_length_a                   17.303(4)
_cell_length_b                   9.925(2)
_cell_length_c                   22.410(5)
_cell_angle_alpha                90
_cell_angle_beta                 90
_cell_angle_gamma                90
_cell_volume                     3848.52
loop_
_atom_site_label
_atom_site_type_symbol
_atom_site_fract_x
_atom_site_fract_y
_atom_site_fract_z
In1 In 0.10587(3) -0.2500 0.82992(2)
O1 O 0.2220(3) -0.2500 0.5196(2)
O2 O 0.1207(3) -0.2500 0.7286(3)
O3 O 0.2228(4) -0.2500 0.7855(3)
O4 O 0.4844(3) -0.2500 0.6962(3)
O5 O 0.4993(4) -0.2500 0.6002(3)
O6 O 0.3434(3) 0.1096(4) 0.3957(2)
O7 O 0.3975(3) 0.0096(6) 0.3197(2)
C1 C 0.2583(4) -0.2500 0.5739(3)
C2 C 0.2105(4) -0.2500 0.6246(3)
H1 H 0.1570 -0.2500 0.6204
C3 C 0.2430(5) -0.2500 0.6802(3)
C4 C 0.3238(5) -0.2500 0.6873(4)
H2 H 0.3456 -0.2500 0.7252
C5 C 0.3702(5) -0.2500 0.6376(4)
C6 C 0.3387(5) -0.2500 0.5798(4)
H3 H 0.3705 -0.2500 0.5464
C7 C 0.1927(5) -0.2500 0.7340(4)
C8 C 0.4557(5) -0.2500 0.6444(4)
C9 C 0.2689(4) -0.2500 0.4688(3)
C10 C 0.2908(3) -0.1278(6) 0.4437(3)
H4 H 0.2747 -0.0468 0.4605
C11 C 0.3371(3) -0.1290(5) 0.3931(2)
C12 C 0.3596(5) -0.2500 0.3677(3)
H5 H 0.3899 -0.2500 0.3334
C13 C 0.3612(4) 0.0022(7) 0.3670(3)
O6F O 0.3434(3) -0.6096(4) 0.3957(2)
O7F O 0.3975(3) -0.5096(6) 0.3197(2)
C10F C 0.2908(3) -0.3722(6) 0.4437(3)
H4F H 0.2747 -0.4532 0.4605
C11F C 0.3371(3) -0.3710(5) 0.3931(2)
C13F C 0.3612(4) -0.5022(7) 0.3670(3)
In1A In 0.39413(3) -0.7500 0.32992(2)
In1A_2 In 0.39413(3) 0.2500 0.32992(2)
In1C In 0.60587(3) -0.2500 0.67008(2)
O4C O -0.0156(3) -0.2500 0.8038(3)
O5C O -0.0007(4) -0.2500 0.8998(3)
O6A O 0.1566(3) -0.1096(4) 0.8957(2)
O6G O 0.1566(3) -0.3904(4) 0.8957(2)
O7A O 0.1025(3) -0.0096(6) 0.8197(2)
O7G O 0.1025(3) -0.4904(6) 0.8197(2)
loop_
_geom_bond_atom_site_label_1
_geom_bond_atom_site_label_2
_geom_bond_site_symmetry_1
_geom_bond_site_symmetry_2
In1 O2 1_555 1_555
O1 C1 1_555 1_555
O2 C7 1_555 1_555
O3 In1 1_555 1_555
O4 C8 1_555 1_555
O5 C8 1_555 1_555
O6 C13 1_555 1_555
O7 C13 1_555 1_555
C1 C2 1_555 1_555
C2 H1 1_555 1_555
C3 C2 1_555 1_555
C4 C3 1_555 1_555
H2 C4 1_555 1_555
C5 C4 1_555 1_555
C6 C1 1_555 1_555
H3 C6 1_555 1_555
C7 O3 1_555 1_555
C8 C5 1_555 1_555
C9 O1 1_555 1_555
C10 C9 1_555 1_555
H4 C10 1_555 1_555
C11 C10 1_555 1_555
C12 C11 1_555 1_555
H5 C12 1_555 1_555
C13 C11 1_555 1_555
O6F C13F 1_555 1_555
O7F C13F 1_555 1_555
C10F C9 1_555 1_555
H4F C10F 1_555 1_555
C11F C12 1_555 1_555
C13F C11F 1_555 1_555
In1A O6F 1_555 1_555
In1A_2 O6 1_555 1_555
In1C O4 1_555 1_555
O4C In1 1_555 1_555
O5C In1 1_555 1_555
O6A In1 1_555 1_555
O6G In1 1_555 1_555
O7A In1 1_555 1_555
O7G In1 1_555 1_555
O5 In1C 1_555 1_555
O7 In1A_2 1_555 1_555
C3 C7 1_555 1_555
C5 C6 1_555 1_555
O7F In1A 1_555 1_555
C10F C11F 1_555 1_555

#END
