
#######################################################################
#
#                 Cambridge Crystallographic Data Centre
#                                CCDC 
#
#######################################################################
#
# If this CIF has been generated from an entry in the Cambridge 
# Structural Database, then it will include bibliographic, chemical, 
# crystal, experimental, refinement or atomic coordinate data resulting 
# from the CCDC's data processing and validation procedures.
#
#######################################################################

data_FUDHET
_chemical_formula_moiety         '(C36 H32 Co4 O24 S2)n'
_symmetry_cell_setting           monoclinic
_symmetry_space_group_name_H-M   'P 21/c'
_symmetry_Int_Tables_number      14
_space_group_name_Hall           '-P 2ybc'
loop_
_symmetry_equiv_pos_site_id
_symmetry_equiv_pos_as_xyz
1 x,y,z
2 -x,1/2+y,1/2-z
3 -x,-y,-z
4 x,1/2-y,1/2+z
_cell_length_a                   21.818(4)
_cell_length_b                   14.704(3)
_cell_length_c                   26.282(5)
_cell_angle_alpha                90
_cell_angle_beta                 126.84(3)
_cell_angle_gamma                90
_cell_volume                     6747.9
loop_
_atom_site_label
_atom_site_type_symbol
_atom_site_fract_x
_atom_site_fract_y
_atom_site_fract_z
_atom_site_U_iso_or_equiv
_atom_site_thermal_displace_type
Co1 Co 0.35252(5) 0.35684(7) 0.85780(4) 0.0235 Uani
Co2 Co 0.44070(6) 0.34273(7) 0.78265(5) 0.0245 Uani
Co3 Co -0.07371(6) 0.31097(7) 0.65916(5) 0.0290 Uani
Co4 Co -0.17963(6) 0.32545(7) 0.49178(5) 0.0304 Uani
O1 O 0.3870(3) 0.4877(4) 0.8553(3) 0.0354 Uani
O2 O 0.4191(4) 0.4733(4) 0.7887(3) 0.0457 Uani
O3 O 0.5217(4) 0.7253(4) 0.7420(3) 0.0395 Uani
O4 O 0.5269(4) 0.8608(4) 0.7776(3) 0.0372 Uani
O5 O 0.5502(3) 0.7013(4) 1.1332(3) 0.0345 Uani
O6 O 0.4486(3) 0.6659(5) 1.1274(3) 0.0422 Uani
O7 O 0.1850(3) 0.7739(4) 0.9354(3) 0.0343 Uani
O8 O 0.1772(3) 0.8114(5) 0.8510(3) 0.0445 Uani
O9 O 0.4423(4) 0.8272(4) 0.9147(3) 0.0355 Uani
O10 O 0.3330(3) 0.3015(5) 0.7156(3) 0.0433 Uani
O11 O 0.2758(3) 0.3366(5) 0.7603(3) 0.0399 Uani
O12 O 0.0006(3) 0.2758(6) 0.6402(3) 0.0531 Uani
O13 O -0.0709(3) 0.2732(6) 0.5347(3) 0.0500 Uani
O14 O -0.0018(4) 0.1684(4) 0.2593(3) 0.0411 Uani
O15 O -0.0401(4) 0.3049(4) 0.2222(3) 0.0411 Uani
O16 O 0.0821(5) 0.5583(5) 0.3652(3) 0.0594 Uani
O17 O 0.1357(4) 0.5476(4) 0.4686(3) 0.0446 Uani
O18 O 0.1242(3) 0.2029(4) 0.4949(3) 0.0342 Uani
C1 C 0.4461(4) 0.7663(5) 0.8777(4) 0.0288 Uani
C2 C 0.4264(4) 0.6735(5) 0.8725(4) 0.0279 Uani
H1 H 0.4083 0.6505 0.8942 0.1000 Uiso
C3 C 0.4344(4) 0.6176(5) 0.8347(4) 0.0267 Uani
C4 C 0.4634(5) 0.6504(6) 0.8035(4) 0.0347 Uani
H2 H 0.4696 0.6113 0.7791 0.1000 Uiso
C5 C 0.4827(4) 0.7392(5) 0.8086(4) 0.0292 Uani
C6 C 0.4752(4) 0.7979(5) 0.8470(4) 0.0300 Uani
H3 H 0.4901 0.8584 0.8516 0.1000 Uiso
C7 C 0.4126(5) 0.5171(5) 0.8260(4) 0.0307 Uani
C8 C 0.5129(5) 0.7765(6) 0.7743(4) 0.0336 Uani
C9 C 0.4114(5) 0.7961(5) 0.9457(4) 0.0299 Uani
C10 C 0.4598(5) 0.7661(5) 1.0074(4) 0.0313 Uani
H4 H 0.5125 0.7657 1.0286 0.1000 Uiso
C11 C 0.4290(4) 0.7367(5) 1.0378(4) 0.0286 Uani
C12 C 0.3477(4) 0.7442(6) 1.0053(3) 0.0290 Uani
H5 H 0.3261 0.7252 1.0251 0.1000 Uiso
C13 C 0.3022(4) 0.7793(5) 0.9452(3) 0.0275 Uani
C14 C 0.3337(5) 0.8054(6) 0.9144(4) 0.0356 Uani
H6 H 0.3028 0.8287 0.8733 0.1000 Uiso
C15 C 0.4768(4) 0.6996(6) 1.1011(3) 0.0293 Uani
C16 C 0.2161(4) 0.7885(5) 0.9079(4) 0.0314 Uani
C17 C 0.1263(4) 0.2357(5) 0.5455(3) 0.0291 Uani
C18 C 0.1980(5) 0.2576(6) 0.6025(4) 0.0365 Uani
H7 H 0.2427 0.2546 0.6056 0.1000 Uiso
C19 C 0.1992(4) 0.2843(6) 0.6545(4) 0.0341 Uani
C20 C 0.1343(4) 0.2883(6) 0.6501(3) 0.0313 Uani
H8 H 0.1368 0.3067 0.6852 0.1000 Uiso
C21 C 0.0640(5) 0.2652(6) 0.5941(4) 0.0330 Uani
C22 C 0.0594(4) 0.2424(6) 0.5408(3) 0.0369 Uani
H9 H 0.0120 0.2316 0.5022 0.1000 Uiso
C23 C 0.2754(5) 0.3111(6) 0.7153(4) 0.0377 Uani
C24 C -0.0085(4) 0.2739(6) 0.5900(4) 0.0346 Uani
C25 C 0.1001(4) 0.2639(6) 0.4465(3) 0.0285 Uani
C26 C 0.0624(5) 0.2298(6) 0.3852(4) 0.0357 Uani
H10 H 0.0539 0.1675 0.3781 0.1000 Uiso
C27 C 0.0375(4) 0.2876(6) 0.3344(3) 0.0298 Uani
C28 C 0.0493(5) 0.3797(6) 0.3443(3) 0.0341 Uani
H11 H 0.0319 0.4183 0.3101 0.1000 Uiso
C29 C 0.0872(4) 0.4158(5) 0.4052(4) 0.0276 Uani
C30 C 0.1122(4) 0.3575(6) 0.4575(3) 0.0284 Uani
H12 H 0.1361 0.3811 0.4981 0.1000 Uiso
C31 C -0.0045(5) 0.2530(7) 0.2675(4) 0.0366 Uani
C32 C 0.1028(5) 0.5177(6) 0.4138(4) 0.0377 Uani
O19 O 0.2596(4) 0.4171(5) 0.8519(4) 0.0703 Uani
S1 S 0.20933(18) 0.4885(2) 0.80462(17) 0.0703 Uani
C33 C 0.2260(7) 0.5929(8) 0.8392(7) 0.0703 Uani
H13 H 0.2776 0.6113 0.8578 0.1000 Uiso
H14 H 0.2186 0.5897 0.8717 0.1000 Uiso
H15 H 0.1910 0.6364 0.8076 0.1000 Uiso
C34 C 0.1207(7) 0.4582(8) 0.7733(7) 0.0703 Uani
H16 H 0.1103 0.4001 0.7529 0.1000 Uiso
H17 H 0.0860 0.5027 0.7425 0.1000 Uiso
H18 H 0.1140 0.4542 0.8061 0.1000 Uiso
O20 O -0.2884(5) 0.3828(7) 0.4457(5) 0.0831 Uani
S2 S -0.3356(2) 0.4275(3) 0.38407(18) 0.0831 Uani
C35 C -0.4246(8) 0.4413(11) 0.3657(7) 0.0831 Uani
H19 H -0.4489 0.3830 0.3569 0.1000 Uiso
H20 H -0.4548 0.4795 0.3289 0.1000 Uiso
H21 H -0.4200 0.4690 0.4009 0.1000 Uiso
C36 C -0.3054(8) 0.5384(11) 0.3992(7) 0.0831 Uani
H22 H -0.2547 0.5419 0.4106 0.1000 Uiso
H23 H -0.3051 0.5611 0.4336 0.1000 Uiso
H24 H -0.3396 0.5745 0.3619 0.1000 Uiso
O21 O 0.4067(4) 0.3637(5) 0.9574(3) 0.0417 Uani
O22 O 0.3312(4) 0.2223(4) 0.8689(4) 0.0489 Uani
O23 O -0.1789(4) 0.3706(6) 0.4153(3) 0.0556 Uani
O24 O -0.2307(5) 0.2029(5) 0.4420(4) 0.0673 Uani
Co1B Co 0.64748(5) 0.64316(7) 1.14220(4) 0.0235 Uani
Co2A Co 0.55930(6) 0.84273(7) 0.71735(5) 0.0245 Uani
Co2B Co 0.55930(6) 0.65727(7) 1.21735(5) 0.0245 Uani
Co3A Co 0.07371(6) 0.81097(7) 0.84084(5) 0.0290 Uani
Co3B Co 0.07371(6) 0.68903(7) 0.34084(5) 0.0290 Uani
Co3C Co -0.07371(6) 0.18903(7) 0.15916(5) 0.0290 Uani
Co4A Co 0.17963(6) 0.82545(7) 1.00822(5) 0.0304 Uani
Co4B Co 0.17963(6) 0.67455(7) 0.50822(5) 0.0304 Uani
O3A O 0.4783(4) 0.2253(4) 0.7580(3) 0.0395 Uani
O4A O 0.4731(4) 0.3608(4) 0.7224(3) 0.0372 Uani
O5B O 0.4498(3) 0.2987(4) 0.8668(3) 0.0345 Uani
O6B O 0.5514(3) 0.3341(5) 0.8726(3) 0.0422 Uani
O7A O -0.1850(3) 0.2739(4) 0.5646(3) 0.0343 Uani
O8A O -0.1772(3) 0.3114(5) 0.6490(3) 0.0445 Uani
O14C O -0.0018(4) 0.3316(4) 0.7593(3) 0.0411 Uani
O15C O -0.0401(4) 0.1951(4) 0.7222(3) 0.0411 Uani
O16B O -0.0821(5) 0.4417(5) 0.6348(3) 0.0594 Uani
O17B O -0.1357(4) 0.4524(4) 0.5314(3) 0.0446 Uani
loop_
_atom_site_aniso_label
_atom_site_aniso_U_11
_atom_site_aniso_U_22
_atom_site_aniso_U_33
_atom_site_aniso_U_23
_atom_site_aniso_U_13
_atom_site_aniso_U_12
Co1 0.0221(5) 0.0254(5) 0.0243(5) -0.0019(4) 0.0146(4) -0.0013(4)
Co2 0.0248(5) 0.0306(5) 0.0235(5) 0.0000(4) 0.0174(4) 0.0038(4)
Co3 0.0257(5) 0.0364(6) 0.0181(5) 0.0030(4) 0.0095(4) -0.0032(4)
Co4 0.0265(5) 0.0326(6) 0.0220(5) -0.0010(4) 0.0092(4) -0.0022(4)
O1 0.049(3) 0.032(3) 0.044(3) -0.012(2) 0.038(3) -0.014(3)
O2 0.069(4) 0.024(3) 0.073(4) 0.001(3) 0.058(4) 0.002(3)
O3 0.058(4) 0.034(3) 0.050(4) -0.005(3) 0.045(3) -0.011(3)
O4 0.054(4) 0.034(3) 0.052(4) -0.001(3) 0.047(3) -0.007(3)
O5 0.029(3) 0.046(3) 0.039(3) 0.004(3) 0.026(3) 0.007(2)
O6 0.020(3) 0.076(4) 0.034(3) 0.022(3) 0.018(3) 0.007(3)
O7 0.028(3) 0.044(3) 0.029(3) -0.006(2) 0.016(2) -0.004(2)
O8 0.025(3) 0.071(4) 0.033(3) 0.008(3) 0.015(3) 0.006(3)
O9 0.058(4) 0.026(3) 0.050(4) 0.003(2) 0.047(3) 0.002(2)
O10 0.020(3) 0.074(4) 0.035(3) -0.017(3) 0.016(3) -0.009(3)
O11 0.026(3) 0.061(4) 0.026(3) -0.016(3) 0.012(2) -0.005(3)
O12 0.026(3) 0.097(6) 0.039(4) 0.013(4) 0.021(3) 0.003(3)
O13 0.018(3) 0.093(5) 0.021(3) -0.008(3) 0.002(2) 0.001(3)
O14 0.051(4) 0.039(3) 0.021(3) -0.008(2) 0.015(3) 0.005(3)
O15 0.051(4) 0.044(3) 0.019(3) 0.001(2) 0.016(3) 0.002(3)
O16 0.089(5) 0.043(4) 0.024(3) 0.009(3) 0.022(3) -0.011(4)
O17 0.067(4) 0.037(3) 0.025(3) 0.000(2) 0.025(3) -0.016(3)
O18 0.045(3) 0.033(3) 0.026(3) -0.006(2) 0.022(3) -0.006(2)
C1 0.036(4) 0.031(4) 0.027(4) -0.004(3) 0.023(3) -0.006(3)
C2 0.027(4) 0.025(4) 0.031(4) 0.006(3) 0.017(3) 0.005(3)
C3 0.033(4) 0.026(4) 0.034(4) -0.002(3) 0.027(3) -0.001(3)
C4 0.037(4) 0.049(5) 0.033(4) 0.003(4) 0.029(4) -0.006(4)
C5 0.033(4) 0.030(4) 0.035(4) 0.001(3) 0.026(4) -0.002(3)
C6 0.031(4) 0.034(4) 0.030(4) -0.001(3) 0.021(3) -0.005(3)
C7 0.042(4) 0.025(4) 0.037(4) -0.006(3) 0.030(4) -0.009(3)
C8 0.034(4) 0.052(5) 0.026(4) -0.007(4) 0.024(4) -0.014(4)
C9 0.035(4) 0.029(4) 0.035(4) -0.004(3) 0.026(4) -0.002(3)
C10 0.048(5) 0.022(4) 0.040(4) 0.003(3) 0.035(4) 0.009(3)
C11 0.026(4) 0.033(4) 0.033(4) 0.001(3) 0.021(3) 0.007(3)
C12 0.026(4) 0.039(4) 0.024(4) -0.008(3) 0.016(3) -0.009(3)
C13 0.016(3) 0.039(4) 0.019(3) 0.000(3) 0.006(3) 0.007(3)
C14 0.035(4) 0.037(4) 0.030(4) -0.007(3) 0.017(4) 0.003(3)
C15 0.031(4) 0.043(4) 0.017(3) -0.011(3) 0.016(3) -0.011(3)
C16 0.029(4) 0.029(4) 0.032(4) -0.004(3) 0.016(3) 0.010(3)
C17 0.036(4) 0.029(4) 0.023(4) -0.001(3) 0.018(3) 0.004(3)
C18 0.035(4) 0.044(5) 0.031(4) -0.007(3) 0.020(4) -0.009(4)
C19 0.027(4) 0.042(5) 0.020(4) 0.003(3) 0.007(3) 0.006(3)
C20 0.028(4) 0.045(5) 0.019(3) -0.002(3) 0.013(3) 0.004(3)
C21 0.032(4) 0.035(4) 0.033(4) 0.000(3) 0.020(4) -0.001(3)
C22 0.027(4) 0.051(5) 0.016(3) -0.007(3) 0.004(3) -0.009(4)
C23 0.041(5) 0.052(5) 0.021(4) -0.016(3) 0.019(4) -0.012(4)
C24 0.023(4) 0.036(4) 0.030(4) 0.006(3) 0.008(3) -0.001(3)
C25 0.033(4) 0.041(4) 0.011(3) 0.000(3) 0.013(3) 0.007(3)
C26 0.042(4) 0.041(5) 0.022(4) -0.011(3) 0.018(4) -0.010(4)
C27 0.031(4) 0.037(4) 0.017(3) -0.003(3) 0.012(3) -0.006(3)
C28 0.033(4) 0.051(5) 0.013(3) 0.006(3) 0.011(3) 0.001(4)
C29 0.032(4) 0.024(4) 0.032(4) 0.002(3) 0.022(3) 0.002(3)
C30 0.021(3) 0.042(4) 0.015(3) 0.002(3) 0.007(3) 0.003(3)
C31 0.030(4) 0.057(6) 0.023(4) -0.006(4) 0.016(3) 0.001(4)
C32 0.040(4) 0.038(5) 0.032(4) 0.001(4) 0.020(4) -0.006(4)
O19 0.0535(14) 0.0520(15) 0.0796(18) 0.0069(13) 0.0261(13) 0.0146(11)
S1 0.0535(14) 0.0520(15) 0.0796(18) 0.0069(13) 0.0261(13) 0.0146(11)
C33 0.0535(14) 0.0520(15) 0.0796(18) 0.0069(13) 0.0261(13) 0.0146(11)
C34 0.0535(14) 0.0520(15) 0.0796(18) 0.0069(13) 0.0261(13) 0.0146(11)
O20 0.0592(16) 0.094(2) 0.080(2) 0.0385(18) 0.0331(15) 0.0211(15)
S2 0.0592(16) 0.094(2) 0.080(2) 0.0385(18) 0.0331(15) 0.0211(15)
C35 0.0592(16) 0.094(2) 0.080(2) 0.0385(18) 0.0331(15) 0.0211(15)
C36 0.0592(16) 0.094(2) 0.080(2) 0.0385(18) 0.0331(15) 0.0211(15)
O21 0.043(3) 0.059(4) 0.027(3) 0.001(3) 0.023(3) 0.018(3)
O22 0.045(3) 0.034(3) 0.080(5) 0.002(3) 0.044(4) -0.007(3)
O23 0.063(4) 0.081(5) 0.034(3) 0.012(3) 0.035(3) 0.009(4)
O24 0.084(6) 0.053(4) 0.069(5) -0.020(4) 0.048(5) -0.014(4)
Co1B 0.0221 0.0254 0.0243 -0.0019 0.0146 -0.0013
Co2A 0.0248 0.0306 0.0235 0 0.0174 -0.0038
Co2B 0.0248 0.0306 0.0235 0 0.0174 0.0038
Co3A 0.0257 0.0364 0.0181 -0.003 0.0095 0.0032
Co3B 0.0257 0.0364 0.0181 0.003 0.0095 -0.0032
Co3C 0.0257 0.0364 0.0181 -0.003 0.0095 0.0032
Co4A 0.0265 0.0326 0.022 0.001 0.0092 0.0022
Co4B 0.0265 0.0326 0.022 -0.001 0.0092 -0.0022
O3A 0.058 0.034 0.05 0.005 0.045 0.011
O4A 0.054 0.034 0.052 0.001 0.047 0.007
O5B 0.029 0.046 0.039 0.004 0.026 0.007
O6B 0.02 0.076 0.034 0.022 0.018 0.007
O7A 0.028 0.044 0.029 0.006 0.016 0.004
O8A 0.025 0.071 0.033 -0.008 0.015 -0.006
O14C 0.051 0.039 0.021 0.008 0.015 -0.005
O15C 0.051 0.044 0.019 -0.001 0.016 -0.002
O16B 0.089 0.043 0.024 0.009 0.022 -0.011
O17B 0.067 0.037 0.025 0 0.025 -0.016
loop_
_geom_bond_atom_site_label_1
_geom_bond_atom_site_label_2
_geom_bond_site_symmetry_1
_geom_bond_site_symmetry_2
Co1 O1 1_555 1_555
Co2 O2 1_555 1_555
Co3 O12 1_555 1_555
Co4 O13 1_555 1_555
O1 C7 1_555 1_555
O2 C7 1_555 1_555
O3 C8 1_555 1_555
O4 C8 1_555 1_555
O5 C15 1_555 1_555
O6 C15 1_555 1_555
O7 C16 1_555 1_555
O8 C16 1_555 1_555
O9 C1 1_555 1_555
O10 Co2 1_555 1_555
O11 Co1 1_555 1_555
O12 C24 1_555 1_555
O13 C24 1_555 1_555
O14 C31 1_555 1_555
O15 C31 1_555 1_555
O16 C32 1_555 1_555
O17 C32 1_555 1_555
O18 C17 1_555 1_555
C1 C2 1_555 1_555
C2 H1 1_555 1_555
C3 C2 1_555 1_555
C4 C3 1_555 1_555
H2 C4 1_555 1_555
C5 C4 1_555 1_555
C6 C1 1_555 1_555
H3 C6 1_555 1_555
C7 C3 1_555 1_555
C8 C5 1_555 1_555
C9 O9 1_555 1_555
C10 C9 1_555 1_555
H4 C10 1_555 1_555
C11 C10 1_555 1_555
C12 C11 1_555 1_555
H5 C12 1_555 1_555
C13 C12 1_555 1_555
C14 C9 1_555 1_555
H6 C14 1_555 1_555
C15 C11 1_555 1_555
C16 C13 1_555 1_555
C17 C18 1_555 1_555
C18 H7 1_555 1_555
C19 C18 1_555 1_555
C20 C19 1_555 1_555
H8 C20 1_555 1_555
C21 C20 1_555 1_555
C22 C17 1_555 1_555
H9 C22 1_555 1_555
C23 O10 1_555 1_555
C24 C21 1_555 1_555
C25 O18 1_555 1_555
C26 C25 1_555 1_555
H10 C26 1_555 1_555
C27 C26 1_555 1_555
C28 C27 1_555 1_555
H11 C28 1_555 1_555
C29 C28 1_555 1_555
C30 C25 1_555 1_555
H12 C30 1_555 1_555
C31 C27 1_555 1_555
C32 C29 1_555 1_555
O19 Co1 1_555 1_555
S1 O19 1_555 1_555
C33 S1 1_555 1_555
H13 C33 1_555 1_555
H14 C33 1_555 1_555
H15 C33 1_555 1_555
C34 S1 1_555 1_555
H16 C34 1_555 1_555
H17 C34 1_555 1_555
H18 C34 1_555 1_555
O20 Co4 1_555 1_555
S2 O20 1_555 1_555
C35 S2 1_555 1_555
H19 C35 1_555 1_555
H20 C35 1_555 1_555
H21 C35 1_555 1_555
C36 S2 1_555 1_555
H22 C36 1_555 1_555
H23 C36 1_555 1_555
H24 C36 1_555 1_555
O21 Co1 1_555 1_555
O22 Co1 1_555 1_555
O23 Co4 1_555 1_555
O24 Co4 1_555 1_555
Co1B O5 1_555 1_555
Co2A O3 1_555 1_555
Co2B O5 1_555 1_555
Co3A O7 1_555 1_555
Co3B O16 1_555 1_555
Co3C O14 1_555 1_555
Co4A O7 1_555 1_555
Co4B O17 1_555 1_555
O3A Co2 1_555 1_555
O4A Co2 1_555 1_555
O5B Co1 1_555 1_555
O6B Co2 1_555 1_555
O7A Co3 1_555 1_555
O8A Co3 1_555 1_555
O14C Co3 1_555 1_555
O15C Co3 1_555 1_555
O16B Co3 1_555 1_555
O17B Co4 1_555 1_555
Co2 O5B 1_555 1_555
Co4 O7A 1_555 1_555
O4 Co2A 1_555 1_555
O6 Co2B 1_555 1_555
O8 Co3A 1_555 1_555
O11 C23 1_555 1_555
O15 Co3C 1_555 1_555
C5 C6 1_555 1_555
C13 C14 1_555 1_555
C19 C23 1_555 1_555
C21 C22 1_555 1_555
C29 C30 1_555 1_555

#END
