
#######################################################################
#
#                 Cambridge Crystallographic Data Centre
#                                CCDC 
#
#######################################################################
#
# If this CIF has been generated from an entry in the Cambridge 
# Structural Database, then it will include bibliographic, chemical, 
# crystal, experimental, refinement or atomic coordinate data resulting 
# from the CCDC's data processing and validation procedures.
#
#######################################################################

data_PEBCAA
_chemical_formula_moiety         '(C12 H34 N4 O25 P6 Zn5)n'
_symmetry_cell_setting           triclinic
_symmetry_space_group_name_H-M   'P -1'
_symmetry_Int_Tables_number      2
_space_group_name_Hall           '-P 1'
loop_
_symmetry_equiv_pos_site_id
_symmetry_equiv_pos_as_xyz
1 x,y,z
2 -x,-y,-z
_cell_length_a                   9.366(1)
_cell_length_b                   9.882(1)
_cell_length_c                   19.183(2)
_cell_angle_alpha                85.406(5)
_cell_angle_beta                 85.029(5)
_cell_angle_gamma                114.485(5)
_cell_volume                     1596.5
loop_
_atom_site_label
_atom_site_type_symbol
_atom_site_fract_x
_atom_site_fract_y
_atom_site_fract_z
Zn1 Zn 0.7460(2) 0.4593(2) 0.66678(8)
Zn2 Zn 0.3608(2) 0.0603(2) 0.81849(7)
Zn3 Zn 0.1117(2) 0.1255(2) 0.56979(7)
Zn4 Zn 0.6670(2) 0.6649(2) 0.94415(8)
Zn5 Zn 0.7914(2) 0.8862(2) 0.73017(8)
P1 P 0.3902(3) 0.2411(4) 0.6745(2)
P2 P 0.4327(3) 0.3509(3) 0.8988(2)
P3 P 0.0010(3) -0.1840(4) 0.8407(2)
P4 P 0.8501(4) 0.1915(4) 0.6537(2)
P5 P 0.4794(3) -0.2107(4) 0.8493(2)
P6 P 0.8580(3) 0.7784(3) 0.5873(2)
O1 O 0.729(1) 0.513(1) 0.7641(5)
O2 O 0.864(1) 0.3398(9) 0.6744(5)
O3 O 0.8885(9) 0.6358(9) 0.6030(4)
O4 O 0.538(1) 0.376(1) 0.6382(5)
O5 O 0.133(1) -0.030(1) 0.8417(5)
O6 O 0.4419(9) 0.141(1) 0.7211(4)
O7 O 0.4583(9) 0.2106(9) 0.8822(5)
O8 O 0.421(1) -0.090(1) 0.8563(7)
O9 O 0.292(1) 0.162(1) 0.6215(4)
O10 O 0.958(1) 0.210(1) 0.5879(5)
O11 O 0.7705(9) 0.7609(9) 0.5221(4)
O12 O 1.0192(9) 0.9121(9) 0.5739(5)
O13 O 0.5811(9) 0.4589(9) 0.9256(5)
O14 O 0.2920(9) 0.304(1) 0.9576(4)
O15 O 0.543(2) -0.231(1) 0.9166(6)
O16 O -0.110(1) -0.227(1) 0.9070(6)
O17 O 0.7466(9) 0.784(1) 0.6488(4)
O18 O 0.875(1) 0.100(1) 0.7150(5)
O19 O -0.084(1) -0.202(1) 0.7767(5)
O20 O 0.588(2) -0.185(2) 0.7857(8)
O21 O 0.286(1) 0.298(1) 0.7220(5)
O22 O 0.398(1) 0.419(1) 0.8321(5)
O23 O 0.066(1) -0.307(1) 0.838(5)
O24 O 0.675(1) 0.104(1) 0.6342(5)
O25 O 0.328(1) -0.357(1) 0.8433(7)
H5 H 0.799(1) 0.620(1) 0.7687(5)
H6 H 0.617(1) 0.482(1) 0.7868(5)
H7 H 0.329(1) 0.345(1) 0.7644(5)
H8 H 0.163(1) -0.325(1) 0.840(1)
H9 H 0.592(1) 0.117(1) 0.6653(5)
H10 H 0.355(1) -0.444(1) 0.8389(7)
O10_2 O -0.042(1) 0.210(1) 0.5879(5)
O11A O 0.2295(9) 0.2391(9) 0.4779(4)
O12_2 O 0.0192(9) -0.0879(9) 0.5739(5)
O14A O 0.7080(9) 0.696(1) 1.0424(4)
O15_2 O 0.543(2) 0.769(1) 0.9166(6)
O16_2 O 0.890(1) 0.773(1) 0.9070(6)
O18_2 O 0.875(1) 1.100(1) 0.7150(5)
O19_2 O 0.916(1) 0.798(1) 0.7767(5)
O20_2 O 0.588(2) 0.815(2) 0.7857(8)
Zn3_2 Zn 1.1117(2) 0.1255(2) 0.56979(7)
Zn3A Zn 0.8883(2) 0.8745(2) 0.43021(7)
Zn3_3 Zn 1.1117(2) 1.1255(2) 0.56979(7)
Zn4A Zn 0.3330(2) 0.3351(2) 1.05585(8)
Zn4_2 Zn 0.6670(2) -0.3351(2) 0.94415(8)
Zn4_3 Zn -0.3330(2) -0.3351(2) 0.94415(8)
Zn5_2 Zn 0.7914(2) -0.1138(2) 0.73017(8)
Zn5_3 Zn -0.2086(2) -0.1138(2) 0.73017(8)
N1 N -0.000(1) 0.769(1) 0.0720(6)
N2 N 0.267(1) 0.781(1) 0.0830(6)
C1 C 0.020(2) 0.765(2) 0.1473(7)
C2 C 0.012(2) 0.638(2) 0.0427(8)
C3 C 0.123(1) 0.913(2) 0.0307(8)
C4 C 0.194(1) 0.795(2) 0.1532(7)
C5 C 0.170(2) 0.636(1) 0.0592(8)
C6 C 0.285(2) 0.907(2) 0.0286(8)
H1 H -0.108(1) 0.763(1) 0.0688(6)
H2 H 0.375(1) 0.787(1) 0.0888(6)
H11 H -0.004(2) 0.844(2) 0.1681(7)
H12 H -0.052(2) 0.664(2) 0.1730(7)
H13 H 0.011(2) 0.649(2) -0.0095(8)
H14 H -0.078(2) 0.543(2) 0.0650(8)
H15 H 0.126(1) 1.001(2) 0.0543(8)
H16 H 0.098(1) 0.923(2) -0.0184(8)
H17 H 0.253(1) 0.898(2) 0.1658(7)
H18 H 0.199(1) 0.719(2) 0.1902(7)
H19 H 0.227(2) 0.622(1) 0.0159(8)
H20 H 0.148(2) 0.552(1) 0.0973(8)
H21 H 0.367(2) 1.004(2) 0.0396(8)
H22 H 0.318(2) 0.887(2) -0.0191(8)
N3 N 0.542(1) 0.309(1) 0.4288(6)
N4 N 0.815(1) 0.328(1) 0.4144(6)
C7 C 0.541(1) 0.164(1) 0.4629(7)
C8 C 0.598(1) 0.330(2) 0.3518(7)
C9 C 0.642(1) 0.435(2) 0.4648(8)
C10 C 0.706(1) 0.170(1) 0.4428(8)
C11 C 0.776(2) 0.367(2) 0.3443(8)
C12 C 0.806(1) 0.430(2) 0.4649(8)
H3 H 0.433(1) 0.306(1) 0.4335(6)
H4 H 0.926(1) 0.338(1) 0.4080(6)
H23 H 0.517(1) 0.155(1) 0.5153(7)
H24 H 0.459(1) 0.076(1) 0.4451(7)
H25 H 0.581(2) 0.415(2) 0.3272(7)
H26 H 0.539(2) 0.236(2) 0.3309(7)
H27 H 0.592(1) 0.425(2) 0.5143(8)
H28 H 0.656(1) 0.532(2) 0.4387(8)
H29 H 0.743(1) 0.138(1) 0.4855(8)
H30 H 0.701(1) 0.103(1) 0.4062(8)
H31 H 0.839(2) 0.477(2) 0.3283(8)
H32 H 0.801(2) 0.308(2) 0.3091(8)
H33 H 0.816(1) 0.391(2) 0.5132(8)
H34 H 0.893(1) 0.532(2) 0.4503(8)
loop_
_geom_bond_atom_site_label_1
_geom_bond_atom_site_label_2
_geom_bond_site_symmetry_1
_geom_bond_site_symmetry_2
Zn1 O1 1_555 1_555
Zn2 O5 1_555 1_555
Zn3 O9 1_555 1_555
Zn4 O13 1_555 1_555
Zn5 O17 1_555 1_555
P1 O4 1_555 1_555
P2 O7 1_555 1_555
P3 O5 1_555 1_555
P4 O2 1_555 1_555
P5 O8 1_555 1_555
P6 O3 1_555 1_555
O1 H5 1_555 1_555
O2 Zn1 1_555 1_555
O3 Zn1 1_555 1_555
O4 Zn1 1_555 1_555
O6 Zn2 1_555 1_555
O7 Zn2 1_555 1_555
O8 Zn2 1_555 1_555
O9 P1 1_555 1_555
O10 P4 1_555 1_555
O11 P6 1_555 1_555
O12 P6 1_555 1_555
O13 P2 1_555 1_555
O14 P2 1_555 1_555
O15 P5 1_555 1_555
O16 P3 1_555 1_555
O17 P6 1_555 1_555
O18 P4 1_555 1_555
O19 P3 1_555 1_555
O20 P5 1_555 1_555
O21 P1 1_555 1_555
O22 P2 1_555 1_555
O23 P3 1_555 1_555
O24 P4 1_555 1_555
O25 P5 1_555 1_555
N1 C1 1_555 1_555
N2 C4 1_555 1_555
N3 C7 1_555 1_555
N4 C10 1_555 1_555
C1 C4 1_555 1_555
C2 N1 1_555 1_555
C3 N1 1_555 1_555
C4 H17 1_555 1_555
C5 N2 1_555 1_555
C6 N2 1_555 1_555
C7 C10 1_555 1_555
C8 N3 1_555 1_555
C9 N3 1_555 1_555
C10 H29 1_555 1_555
C11 N4 1_555 1_555
C12 N4 1_555 1_555
H1 N1 1_555 1_555
H2 N2 1_555 1_555
H3 N3 1_555 1_555
H4 N4 1_555 1_555
H6 O1 1_555 1_555
H7 O21 1_555 1_555
H8 O23 1_555 1_555
H9 O24 1_555 1_555
H10 O25 1_555 1_555
H11 C1 1_555 1_555
H12 C1 1_555 1_555
H13 C2 1_555 1_555
H14 C2 1_555 1_555
H15 C3 1_555 1_555
H16 C3 1_555 1_555
H18 C4 1_555 1_555
H19 C5 1_555 1_555
H20 C5 1_555 1_555
H21 C6 1_555 1_555
H22 C6 1_555 1_555
H23 C7 1_555 1_555
H24 C7 1_555 1_555
H25 C8 1_555 1_555
H26 C8 1_555 1_555
H27 C9 1_555 1_555
H28 C9 1_555 1_555
H30 C10 1_555 1_555
H31 C11 1_555 1_555
H32 C11 1_555 1_555
H33 C12 1_555 1_555
H34 C12 1_555 1_555
O10_2 Zn3 1_555 1_555
O11A Zn3 1_555 1_555
O12_2 Zn3 1_555 1_555
O14A Zn4 1_555 1_555
O15_2 Zn4 1_555 1_555
O16_2 Zn4 1_555 1_555
O18_2 Zn5 1_555 1_555
O19_2 Zn5 1_555 1_555
O20_2 Zn5 1_555 1_555
Zn3_2 O10 1_555 1_555
Zn3A O11 1_555 1_555
Zn3_3 O12 1_555 1_555
Zn4A O14 1_555 1_555
Zn4_2 O15 1_555 1_555
Zn4_3 O16 1_555 1_555
Zn5_2 O18 1_555 1_555
Zn5_3 O19 1_555 1_555
P1 O6 1_555 1_555
O20 Zn5_2 1_555 1_555
C2 C5 1_555 1_555
C3 C6 1_555 1_555
C8 C11 1_555 1_555
C9 C12 1_555 1_555

#END
