
#######################################################################
#
#                 Cambridge Crystallographic Data Centre
#                                CCDC 
#
#######################################################################
#
# If this CIF has been generated from an entry in the Cambridge 
# Structural Database, then it will include bibliographic, chemical, 
# crystal, experimental, refinement or atomic coordinate data resulting 
# from the CCDC's data processing and validation procedures.
#
#######################################################################

data_ODIMAQ
_chemical_formula_moiety         '(C48 H74 O73 Sm4 Zn6)n'
_symmetry_cell_setting           hexagonal
_symmetry_space_group_name_H-M   'P 6/m c c'
_symmetry_Int_Tables_number      192
_space_group_name_Hall           '-P 6 2c'
loop_
_symmetry_equiv_pos_site_id
_symmetry_equiv_pos_as_xyz
1 x,y,z
2 -y,x-y,z
3 -x+y,-x,z
4 y,-x+y,z
5 x-y,x,z
6 y,x,1/2-z
7 -x+y,y,1/2-z
8 x,x-y,1/2-z
9 -x,-y,z
10 x-y,-y,1/2-z
11 -x,-x+y,1/2-z
12 -y,-x,1/2-z
13 -x,-y,-z
14 y,-x+y,-z
15 x-y,x,-z
16 -y,x-y,-z
17 -x+y,-x,-z
18 -y,-x,1/2+z
19 x-y,-y,1/2+z
20 -x,-x+y,1/2+z
21 x,y,-z
22 -x+y,y,1/2+z
23 x,x-y,1/2+z
24 y,x,1/2+z
_cell_length_a                   14.8127(14)
_cell_length_b                   14.8127(14)
_cell_length_c                   15.613(3)
_cell_angle_alpha                90
_cell_angle_beta                 90
_cell_angle_gamma                120
_cell_volume                     2966.78
loop_
_atom_site_label
_atom_site_type_symbol
_atom_site_fract_x
_atom_site_fract_y
_atom_site_fract_z
Sm1 Sm 0.3333 0.6667 0.2500
Zn1 Zn 0.5000 1.0000 0.0000
O1 O 0.3850(4) 0.8052(4) 0.1446(3)
O2 O 0.3853(5) 0.9456(4) 0.0924(4)
O3 O 0.2354(3) 0.7646(3) 0.2500
O4 O 0.5074(6) 0.8589(5) 0.0000
H1 H 0.4770 0.8213 -0.0464
C1 C 0.3516(6) 0.8687(6) 0.1403(5)
C2 C 0.2621(7) 0.8489(7) 0.1962(6)
H2 H 0.2805 0.9105 0.2303
H3 H 0.2027 0.8351 0.1609
Sm1T Sm 0.3333 0.6667 -0.2500
Sm1W Sm 0.6667 1.3333 -0.2500
Sm1E Sm 0.6667 1.3333 0.2500
Sm1T_2 Sm 0.3333 0.6667 0.7500
Sm1W_2 Sm -0.3333 0.3333 0.7500
Sm1C Sm -0.3333 0.3334 0.2500
Sm1W_3 Sm -0.3333 0.3333 -0.2500
Zn1E Zn -0.0000 0.5000 0.5000
Zn1A Zn -0.0000 0.5000 0.0000
Zn1G Zn 0.5000 0.5000 0.5000
Zn1B Zn 0.5000 0.5000 0.0000
Zn1F Zn 0.5000 1.0000 0.5000
Zn1E_2 Zn -0.0000 0.5000 -0.5000
Zn1E_3 Zn 1.0000 1.5000 -0.5000
Zn1E_4 Zn 1.0000 1.5000 0.5000
Zn1_2 Zn 0.5000 1.0000 1.0000
Zn1_3 Zn -0.5000 0.0000 1.0000
Zn1_4 Zn -0.5000 0.0000 0.0000
Zn1G_2 Zn 0.5000 0.5000 -0.5000
Zn1G_3 Zn -0.5000 0.5000 -0.5000
Zn1G_4 Zn -0.5000 0.5000 0.5000
O1K O 0.1948(4) 0.6150(4) 0.3554(3)
O1A O 0.1948(4) 0.5798(6) 0.1446(3)
O1G O 0.3850(4) 0.5798(6) 0.3554(3)
O1B O 0.4202(6) 0.6150(4) 0.1446(3)
O1F O 0.4202(6) 0.8052(4) 0.3554(3)
O1T O 0.3850(4) 0.8052(4) -0.1446(3)
O1Q O 0.1948(4) 0.6150(4) -0.3554(3)
O1L O 0.6150(4) 1.1948(4) -0.1446(3)
O1W O 0.8052(4) 1.3850(4) -0.3554(3)
O1H O 0.6150(4) 1.1948(4) 0.1446(3)
O1E O 0.8052(4) 1.3850(4) 0.3554(3)
O1Q_2 O 0.1948(4) 0.6150(4) 0.6446(3)
O1T_2 O 0.3850(4) 0.8052(4) 0.8554(3)
O1W_2 O -0.1948(4) 0.3850(4) 0.6446(3)
O1L_2 O -0.3850(4) 0.1948(4) 0.8554(3)
O1E_2 O -0.1948(4) 0.3850(4) 0.3554(3)
O1H_2 O -0.3850(4) 0.1948(4) 0.1446(3)
O1O O 0.1948(4) 0.5798(6) -0.1446(3)
O1V O 0.3850(4) 0.5798(6) -0.3554(3)
O1M O -0.1948(4) 0.4202(6) -0.1446(3)
O1S O -0.3850(4) 0.4202(6) -0.3554(3)
O1C O -0.1948(4) 0.4202(6) 0.1446(3)
O1J O -0.3850(4) 0.4202(6) 0.3554(3)
O1U O 0.4202(6) 0.8052(4) -0.3554(3)
O1P O 0.4202(6) 0.6150(4) -0.1446(3)
O1U_2 O 0.4202(6) 0.8052(4) 0.6446(3)
O1V_2 O 0.3850(4) 0.5798(6) 0.6446(3)
O1O_2 O 0.1948(4) 0.5798(6) 0.8554(3)
O1P_2 O 0.4202(6) 0.6150(4) 0.8554(3)
O1D O -0.4202(6) 0.3850(4) 0.1446(3)
O1I O -0.4202(6) 0.1948(4) 0.3554(3)
O2K O 0.0544(4) 0.6147(5) 0.4076(4)
O2A O 0.0544(4) 0.4397(6) 0.0924(4)
O2G O 0.3853(5) 0.4397(6) 0.4076(4)
O2B O 0.5603(6) 0.6147(5) 0.0924(4)
O2F O 0.5603(6) 0.9456(4) 0.4076(4)
O2T O 0.3853(5) 0.9456(4) -0.0924(4)
O2Q O 0.0544(4) 0.6147(5) -0.4076(4)
O2L O 0.6147(5) 1.0544(4) -0.0924(4)
O2W O 0.9456(4) 1.3853(5) -0.4076(4)
O2H O 0.6147(5) 1.0544(4) 0.0924(4)
O2E O 0.9456(4) 1.3853(5) 0.4076(4)
O2Q_2 O 0.0544(4) 0.6147(5) 0.5924(4)
O2T_2 O 0.3853(5) 0.9456(4) 0.9076(4)
O2W_2 O -0.0544(4) 0.3853(5) 0.5924(4)
O2L_2 O -0.3853(5) 0.0544(4) 0.9076(4)
O2E_2 O -0.0544(4) 0.3853(5) 0.4076(4)
O2H_2 O -0.3853(5) 0.0544(4) 0.0924(4)
O2O O 0.0544(4) 0.4397(6) -0.0924(4)
O2V O 0.3853(5) 0.4397(6) -0.4076(4)
O2M O -0.0544(4) 0.5603(6) -0.0924(4)
O2S O -0.3853(5) 0.5603(6) -0.4076(4)
O2C O -0.0544(4) 0.5603(6) 0.0924(4)
O2J O -0.3853(5) 0.5603(6) 0.4076(4)
O2V_2 O 0.3853(5) 0.4397(6) 0.5924(4)
O2S_2 O 0.6147(5) 0.5603(6) 0.5924(4)
O2J_2 O 0.6147(5) 0.5603(6) 0.4076(4)
O2D O 0.4397(6) 0.3853(5) 0.0924(4)
O2N O 0.4397(6) 0.3853(5) -0.0924(4)
O2P O 0.5603(6) 0.6147(5) -0.0924(4)
O2U O 0.5603(6) 0.9456(4) 0.5924(4)
O2R O 0.4397(6) 1.0544(4) 0.5924(4)
O2I O 0.4397(6) 1.0544(4) 0.4076(4)
O3A O 0.2354(3) 0.4708(4) 0.2500
O3B O 0.5292(4) 0.7646(3) 0.2500
O3T O 0.2354(3) 0.7646(3) -0.2500
O3W O 0.7646(3) 1.2354(3) -0.2500
O3E O 0.7646(3) 1.2354(3) 0.2500
O3T_2 O 0.2354(3) 0.7646(3) 0.7500
O3W_2 O -0.2354(3) 0.2354(3) 0.7500
O3E_2 O -0.2354(3) 0.2354(3) 0.2500
O3V O 0.2354(3) 0.4708(4) -0.2500
O3M O -0.2354(3) 0.5292(4) -0.2500
O3C O -0.2354(3) 0.5292(4) 0.2500
O3U O 0.5292(4) 0.7646(3) -0.2500
O3U_2 O 0.5292(4) 0.7646(3) 0.7500
O3V_2 O 0.2354(3) 0.4708(4) 0.7500
O3D O -0.5292(4) 0.2354(3) 0.2500
O4L O 0.4926(6) 1.1411(5) 0.0000
O4Q O 0.1411(5) 0.4926(6) 0.5000
O4E O -0.1411(5) 0.5074(6) 0.5000
O4A O 0.1411(5) 0.6485(8) 0.0000
O4C O -0.1411(5) 0.3515(8) 0.0000
O4G O 0.5074(6) 0.6485(8) 0.5000
O4S O 0.4926(6) 0.3515(8) 0.5000
O4B O 0.3515(8) 0.4926(6) 0.0000
O4D O 0.6485(8) 0.5074(6) 0.0000
O4F O 0.3515(8) 0.8589(5) 0.5000
O4R O 0.6485(8) 1.1411(5) 0.5000
H1T H 0.4770 0.8213 0.0464
H1L H 0.5230 1.1787 0.0464
H1H H 0.5230 1.1787 -0.0464
H1K H 0.1787 0.5230 0.5464
H1Q H 0.1787 0.5230 0.4536
H1W H -0.1787 0.4770 0.4536
H1E H -0.1787 0.4770 0.5464
H1A H 0.1787 0.6557 -0.0464
H1O H 0.1787 0.6557 0.0464
H1M H -0.1787 0.3443 0.0464
H1C H -0.1787 0.3443 -0.0464
H1G H 0.4770 0.6557 0.5464
H1V H 0.4770 0.6557 0.4536
H1S H 0.5230 0.3443 0.4536
H1J H 0.5230 0.3443 0.5464
H1B H 0.3443 0.5230 -0.0464
H1P H 0.3443 0.5230 0.0464
H1N H 0.6557 0.4770 0.0464
H1D H 0.6557 0.4770 -0.0464
H1F H 0.3443 0.8213 0.5464
H1U H 0.3443 0.8213 0.4536
H1R H 0.6557 1.1787 0.4536
H1I H 0.6557 1.1787 0.5464
C1K C 0.1313(6) 0.6484(6) 0.3597(5)
C1A C 0.1313(6) 0.4829(8) 0.1403(5)
C1G C 0.3516(6) 0.4829(8) 0.3597(5)
C1B C 0.5171(8) 0.6484(6) 0.1403(5)
C1F C 0.5171(8) 0.8687(6) 0.3597(5)
C1T C 0.3516(6) 0.8687(6) -0.1403(5)
C1Q C 0.1313(6) 0.6484(6) -0.3597(5)
C1L C 0.6484(6) 1.1313(6) -0.1403(5)
C1W C 0.8687(6) 1.3516(6) -0.3597(5)
C1H C 0.6484(6) 1.1313(6) 0.1403(5)
C1E C 0.8687(6) 1.3516(6) 0.3597(5)
C1Q_2 C 0.1313(6) 0.6484(6) 0.6403(5)
C1T_2 C 0.3516(6) 0.8687(6) 0.8597(5)
C1W_2 C -0.1313(6) 0.3516(6) 0.6403(5)
C1L_2 C -0.3516(6) 0.1313(6) 0.8597(5)
C1E_2 C -0.1313(6) 0.3516(6) 0.3597(5)
C1H_2 C -0.3516(6) 0.1313(6) 0.1403(5)
C1O C 0.1313(6) 0.4829(8) -0.1403(5)
C1V C 0.3516(6) 0.4829(8) -0.3597(5)
C1M C -0.1313(6) 0.5171(8) -0.1403(5)
C1S C -0.3516(6) 0.5171(8) -0.3597(5)
C1C C -0.1313(6) 0.5171(8) 0.1403(5)
C1J C -0.3516(6) 0.5171(8) 0.3597(5)
C2K C 0.1511(7) 0.7379(7) 0.3038(6)
C2A C 0.1511(7) 0.4132(10) 0.1962(6)
C2G C 0.2621(7) 0.4132(10) 0.3038(6)
C2B C 0.5868(10) 0.7379(7) 0.1962(6)
C2F C 0.5868(10) 0.8489(7) 0.3038(6)
C2T C 0.2621(7) 0.8489(7) -0.1962(6)
C2Q C 0.1511(7) 0.7379(7) -0.3038(6)
C2L C 0.7379(7) 1.1511(7) -0.1962(6)
C2W C 0.8489(7) 1.2621(7) -0.3038(6)
C2H C 0.7379(7) 1.1511(7) 0.1962(6)
C2E C 0.8489(7) 1.2621(7) 0.3038(6)
C2Q_2 C 0.1511(7) 0.7379(7) 0.6962(6)
C2T_2 C 0.2621(7) 0.8489(7) 0.8038(6)
C2W_2 C -0.1511(7) 0.2621(7) 0.6962(6)
C2L_2 C -0.2621(7) 0.1511(7) 0.8038(6)
C2E_2 C -0.1511(7) 0.2621(7) 0.3038(6)
C2H_2 C -0.2621(7) 0.1511(7) 0.1962(6)
C2O C 0.1511(7) 0.4132(10) -0.1962(6)
C2V C 0.2621(7) 0.4132(10) -0.3038(6)
C2M C -0.1511(7) 0.5868(10) -0.1962(6)
C2S C -0.2621(7) 0.5868(10) -0.3038(6)
C2C C -0.1511(7) 0.5868(10) 0.1962(6)
C2J C -0.2621(7) 0.5868(10) 0.3038(6)
H2K H 0.0895 0.7195 0.2697
H2A H 0.0895 0.3700 0.2303
H2G H 0.2805 0.3700 0.2697
H2B H 0.6300 0.7195 0.2303
H2F H 0.6300 0.9105 0.2697
H2T H 0.2805 0.9105 -0.2303
H2Q H 0.0895 0.7195 -0.2697
H2L H 0.7195 1.0895 -0.2303
H2W H 0.9105 1.2805 -0.2697
H2H H 0.7195 1.0895 0.2303
H2E H 0.9105 1.2805 0.2697
H2Q_2 H 0.0895 0.7195 0.7303
H2T_2 H 0.2805 0.9105 0.7697
H2W_2 H -0.0895 0.2805 0.7303
H2L_2 H -0.2805 0.0895 0.7697
H2E_2 H -0.0895 0.2805 0.2697
H2H_2 H -0.2805 0.0895 0.2303
H2O H 0.0895 0.3700 -0.2303
H2V H 0.2805 0.3700 -0.2697
H2M H -0.0895 0.6300 -0.2303
H2S H -0.2805 0.6300 -0.2697
H2C H -0.0895 0.6300 0.2303
H2J H -0.2805 0.6300 0.2697
H3K H 0.1649 0.7973 0.3391
H3A H 0.1649 0.3676 0.1609
H3G H 0.2027 0.3676 0.3391
H3B H 0.6324 0.7973 0.1609
H3F H 0.6324 0.8351 0.3391
H3T H 0.2027 0.8351 -0.1609
H3Q H 0.1649 0.7973 -0.3391
H3L H 0.7973 1.1649 -0.1609
H3W H 0.8351 1.2027 -0.3391
H3H H 0.7973 1.1649 0.1609
H3E H 0.8351 1.2027 0.3391
H3Q_2 H 0.1649 0.7973 0.6609
H3T_2 H 0.2027 0.8351 0.8391
H3W_2 H -0.1649 0.2027 0.6609
H3L_2 H -0.2027 0.1649 0.8391
H3E_2 H -0.1649 0.2027 0.3391
H3H_2 H -0.2027 0.1649 0.1609
H3O H 0.1649 0.3676 -0.1609
H3V H 0.2027 0.3676 -0.3391
H3M H -0.1649 0.6324 -0.1609
H3S H -0.2027 0.6324 -0.3391
H3C H -0.1649 0.6324 0.1609
H3J H -0.2027 0.6324 0.3391
O5 O 0.257(6) 0.059(6) 0.0000
loop_
_geom_bond_atom_site_label_1
_geom_bond_atom_site_label_2
_geom_bond_site_symmetry_1
_geom_bond_site_symmetry_2
Sm1 O1 1_555 1_555
Zn1 O2 1_555 1_555
O1 C1 1_555 1_555
O2 C1 1_555 1_555
O3 Sm1 1_555 1_555
O4 Zn1 1_555 1_555
H1 O4 1_555 1_555
C1 C2 1_555 1_555
C2 O3 1_555 1_555
H2 C2 1_555 1_555
H3 C2 1_555 1_555
Sm1T O1T 1_555 1_555
Sm1W O1L 1_555 1_555
Sm1E O1H 1_555 1_555
Sm1T_2 O1Q_2 1_555 1_555
Sm1W_2 O1W_2 1_555 1_555
Sm1C O1E_2 1_555 1_555
Sm1W_3 O1M 1_555 1_555
Zn1E O2K 1_555 1_555
Zn1A O2A 1_555 1_555
Zn1G O2G 1_555 1_555
Zn1B O2B 1_555 1_555
Zn1F O2F 1_555 1_555
Zn1E_2 O2Q 1_555 1_555
Zn1E_3 O2W 1_555 1_555
Zn1E_4 O2E 1_555 1_555
Zn1_2 O2T_2 1_555 1_555
Zn1_3 O2L_2 1_555 1_555
Zn1_4 O2H_2 1_555 1_555
Zn1G_2 O2V 1_555 1_555
Zn1G_3 O2S 1_555 1_555
Zn1G_4 O2J 1_555 1_555
O1K Sm1 1_555 1_555
O1A Sm1 1_555 1_555
O1G Sm1 1_555 1_555
O1B Sm1 1_555 1_555
O1F Sm1 1_555 1_555
O1T C1T 1_555 1_555
O1Q Sm1T 1_555 1_555
O1L C1L 1_555 1_555
O1W Sm1W 1_555 1_555
O1H C1H 1_555 1_555
O1E Sm1E 1_555 1_555
O1Q_2 C1Q_2 1_555 1_555
O1T_2 Sm1T_2 1_555 1_555
O1W_2 C1W_2 1_555 1_555
O1L_2 Sm1W_2 1_555 1_555
O1E_2 C1E_2 1_555 1_555
O1H_2 Sm1C 1_555 1_555
O1O Sm1T 1_555 1_555
O1V Sm1T 1_555 1_555
O1M C1M 1_555 1_555
O1S Sm1W_3 1_555 1_555
O1C Sm1C 1_555 1_555
O1J Sm1C 1_555 1_555
O1U Sm1T 1_555 1_555
O1P Sm1T 1_555 1_555
O1U_2 Sm1T_2 1_555 1_555
O1V_2 Sm1T_2 1_555 1_555
O1O_2 Sm1T_2 1_555 1_555
O1P_2 Sm1T_2 1_555 1_555
O1D Sm1C 1_555 1_555
O1I Sm1C 1_555 1_555
O2K C1K 1_555 1_555
O2A C1A 1_555 1_555
O2G C1G 1_555 1_555
O2B C1B 1_555 1_555
O2F C1F 1_555 1_555
O2T Zn1 1_555 1_555
O2Q C1Q 1_555 1_555
O2L Zn1 1_555 1_555
O2W C1W 1_555 1_555
O2H Zn1 1_555 1_555
O2E C1E 1_555 1_555
O2Q_2 Zn1E 1_555 1_555
O2T_2 C1T_2 1_555 1_555
O2W_2 Zn1E 1_555 1_555
O2L_2 C1L_2 1_555 1_555
O2E_2 Zn1E 1_555 1_555
O2H_2 C1H_2 1_555 1_555
O2O Zn1A 1_555 1_555
O2V C1V 1_555 1_555
O2M Zn1A 1_555 1_555
O2S C1S 1_555 1_555
O2C Zn1A 1_555 1_555
O2J C1J 1_555 1_555
O2V_2 Zn1G 1_555 1_555
O2S_2 Zn1G 1_555 1_555
O2J_2 Zn1G 1_555 1_555
O2D Zn1B 1_555 1_555
O2N Zn1B 1_555 1_555
O2P Zn1B 1_555 1_555
O2U Zn1F 1_555 1_555
O2R Zn1F 1_555 1_555
O2I Zn1F 1_555 1_555
O3A Sm1 1_555 1_555
O3B Sm1 1_555 1_555
O3T Sm1T 1_555 1_555
O3W Sm1W 1_555 1_555
O3E Sm1E 1_555 1_555
O3T_2 Sm1T_2 1_555 1_555
O3W_2 Sm1W_2 1_555 1_555
O3E_2 Sm1C 1_555 1_555
O3V Sm1T 1_555 1_555
O3M Sm1W_3 1_555 1_555
O3C Sm1C 1_555 1_555
O3U Sm1T 1_555 1_555
O3U_2 Sm1T_2 1_555 1_555
O3V_2 Sm1T_2 1_555 1_555
O3D Sm1C 1_555 1_555
O4L Zn1 1_555 1_555
O4Q Zn1E 1_555 1_555
O4E Zn1E 1_555 1_555
O4A Zn1A 1_555 1_555
O4C Zn1A 1_555 1_555
O4G Zn1G 1_555 1_555
O4S Zn1G 1_555 1_555
O4B Zn1B 1_555 1_555
O4D Zn1B 1_555 1_555
O4F Zn1F 1_555 1_555
O4R Zn1F 1_555 1_555
H1T O4 1_555 1_555
H1L O4L 1_555 1_555
H1H O4L 1_555 1_555
H1K O4Q 1_555 1_555
H1Q O4Q 1_555 1_555
H1W O4E 1_555 1_555
H1E O4E 1_555 1_555
H1A O4A 1_555 1_555
H1O O4A 1_555 1_555
H1M O4C 1_555 1_555
H1C O4C 1_555 1_555
H1G O4G 1_555 1_555
H1V O4G 1_555 1_555
H1S O4S 1_555 1_555
H1J O4S 1_555 1_555
H1B O4B 1_555 1_555
H1P O4B 1_555 1_555
H1N O4D 1_555 1_555
H1D O4D 1_555 1_555
H1F O4F 1_555 1_555
H1U O4F 1_555 1_555
H1R O4R 1_555 1_555
H1I O4R 1_555 1_555
C1K O1K 1_555 1_555
C1A O1A 1_555 1_555
C1G O1G 1_555 1_555
C1B O1B 1_555 1_555
C1F O1F 1_555 1_555
C1T O2T 1_555 1_555
C1Q O1Q 1_555 1_555
C1L O2L 1_555 1_555
C1W O1W 1_555 1_555
C1H O2H 1_555 1_555
C1E O1E 1_555 1_555
C1Q_2 O2Q_2 1_555 1_555
C1T_2 O1T_2 1_555 1_555
C1W_2 O2W_2 1_555 1_555
C1L_2 O1L_2 1_555 1_555
C1E_2 O2E_2 1_555 1_555
C1H_2 O1H_2 1_555 1_555
C1O O1O 1_555 1_555
C1V O1V 1_555 1_555
C1M O2M 1_555 1_555
C1S O1S 1_555 1_555
C1C O1C 1_555 1_555
C1J O1J 1_555 1_555
C2K O3 1_555 1_555
C2A O3A 1_555 1_555
C2G O3A 1_555 1_555
C2B O3B 1_555 1_555
C2F O3B 1_555 1_555
C2T O3T 1_555 1_555
C2Q O3T 1_555 1_555
C2L O3W 1_555 1_555
C2W O3W 1_555 1_555
C2H O3E 1_555 1_555
C2E O3E 1_555 1_555
C2Q_2 O3T_2 1_555 1_555
C2T_2 O3T_2 1_555 1_555
C2W_2 O3W_2 1_555 1_555
C2L_2 O3W_2 1_555 1_555
C2E_2 O3E_2 1_555 1_555
C2H_2 O3E_2 1_555 1_555
C2O O3V 1_555 1_555
C2V O3V 1_555 1_555
C2M O3M 1_555 1_555
C2S O3M 1_555 1_555
C2C O3C 1_555 1_555
C2J O3C 1_555 1_555
H2K C2K 1_555 1_555
H2A C2A 1_555 1_555
H2G C2G 1_555 1_555
H2B C2B 1_555 1_555
H2F C2F 1_555 1_555
H2T C2T 1_555 1_555
H2Q C2Q 1_555 1_555
H2L C2L 1_555 1_555
H2W C2W 1_555 1_555
H2H C2H 1_555 1_555
H2E C2E 1_555 1_555
H2Q_2 C2Q_2 1_555 1_555
H2T_2 C2T_2 1_555 1_555
H2W_2 C2W_2 1_555 1_555
H2L_2 C2L_2 1_555 1_555
H2E_2 C2E_2 1_555 1_555
H2H_2 C2H_2 1_555 1_555
H2O C2O 1_555 1_555
H2V C2V 1_555 1_555
H2M C2M 1_555 1_555
H2S C2S 1_555 1_555
H2C C2C 1_555 1_555
H2J C2J 1_555 1_555
H3K C2K 1_555 1_555
H3A C2A 1_555 1_555
H3G C2G 1_555 1_555
H3B C2B 1_555 1_555
H3F C2F 1_555 1_555
H3T C2T 1_555 1_555
H3Q C2Q 1_555 1_555
H3L C2L 1_555 1_555
H3W C2W 1_555 1_555
H3H C2H 1_555 1_555
H3E C2E 1_555 1_555
H3Q_2 C2Q_2 1_555 1_555
H3T_2 C2T_2 1_555 1_555
H3W_2 C2W_2 1_555 1_555
H3L_2 C2L_2 1_555 1_555
H3E_2 C2E_2 1_555 1_555
H3H_2 C2H_2 1_555 1_555
H3O C2O 1_555 1_555
H3V C2V 1_555 1_555
H3M C2M 1_555 1_555
H3S C2S 1_555 1_555
H3C C2C 1_555 1_555
H3J C2J 1_555 1_555
O2O C1O 1_555 1_555
O2C C1C 1_555 1_555
C1K C2K 1_555 1_555
C1A C2A 1_555 1_555
C1G C2G 1_555 1_555
C1B C2B 1_555 1_555
C1F C2F 1_555 1_555
C1T C2T 1_555 1_555
C1Q C2Q 1_555 1_555
C1L C2L 1_555 1_555
C1W C2W 1_555 1_555
C1H C2H 1_555 1_555
C1E C2E 1_555 1_555
C1Q_2 C2Q_2 1_555 1_555
C1T_2 C2T_2 1_555 1_555
C1W_2 C2W_2 1_555 1_555
C1L_2 C2L_2 1_555 1_555
C1E_2 C2E_2 1_555 1_555
C1H_2 C2H_2 1_555 1_555
C1O C2O 1_555 1_555
C1V C2V 1_555 1_555
C1M C2M 1_555 1_555
C1S C2S 1_555 1_555
C1C C2C 1_555 1_555
C1J C2J 1_555 1_555

#END
