
#######################################################################
#
#                 Cambridge Crystallographic Data Centre
#                                CCDC 
#
#######################################################################
#
# If this CIF has been generated from an entry in the Cambridge 
# Structural Database, then it will include bibliographic, chemical, 
# crystal, experimental, refinement or atomic coordinate data resulting 
# from the CCDC's data processing and validation procedures.
#
#######################################################################

data_HUJVOX
_chemical_formula_moiety         '(C12 H22 Cl1 Cu1 N8 O8 1+)n'
_symmetry_cell_setting           tetragonal
_symmetry_space_group_name_H-M   'P 43 21 2'
_symmetry_Int_Tables_number      96
_space_group_name_Hall           'P 4nw 2abw'
loop_
_symmetry_equiv_pos_site_id
_symmetry_equiv_pos_as_xyz
1 x,y,z
2 1/2-y,1/2+x,3/4+z
3 -x,-y,1/2+z
4 1/2+y,1/2-x,1/4+z
5 1/2-x,1/2+y,3/4-z
6 y,x,-z
7 1/2+x,1/2-y,1/4-z
8 -y,-x,1/2-z
_cell_length_a                   9.032(1)
_cell_length_b                   9.032(1)
_cell_length_c                   31.322(5)
_cell_angle_alpha                90
_cell_angle_beta                 90
_cell_angle_gamma                90
_cell_volume                     2555.16
loop_
_atom_site_label
_atom_site_type_symbol
_atom_site_fract_x
_atom_site_fract_y
_atom_site_fract_z
_atom_site_U_iso_or_equiv
_atom_site_thermal_displace_type
Cu1 Cu 0.73262(5) 0.73262(5) 0.0000 0.0260 Uani
O1 O 0.9159(4) 0.5387(4) 0.00304(15) 0.0469 Uani
N1 N 0.6265(4) 0.6184(3) 0.04515(9) 0.0290 Uani
N2 N 0.6070(4) 0.4710(4) 0.04427(11) 0.0326 Uani
N3 N 0.3265(4) 0.6406(3) 0.2051(1) 0.0313 Uani
N4 N 0.3146(4) 0.4921(4) 0.20437(11) 0.0364 Uani
C1 C 0.5623(4) 0.6638(4) 0.08129(11) 0.0288 Uani
C2 C 0.5012(4) 0.5442(4) 0.10354(11) 0.0277 Uani
C3 C 0.5332(5) 0.4238(5) 0.07870(13) 0.0326 Uani
C4 C 0.3949(5) 0.6753(4) 0.16866(12) 0.0327 Uani
C5 C 0.4258(4) 0.5496(4) 0.14464(11) 0.0277 Uani
C6 C 0.3723(6) 0.4354(5) 0.16901(13) 0.0410 Uani
H1 H 0.560(6) 0.778(6) 0.0903(16) 0.0530 Uiso
H2 H 0.634(6) 0.421(6) 0.0234(17) 0.0530 Uiso
H3 H 0.523(5) 0.337(6) 0.0829(14) 0.0340 Uiso
H4 H 0.372(5) 0.341(6) 0.1635(14) 0.0370 Uiso
H5 H 0.932(8) 0.514(9) -0.017(3) 0.0700 Uiso
H6 H 0.964(8) 0.490(9) 0.025(3) 0.0800 Uiso
H7 H 0.289(6) 0.448(6) 0.2256(17) 0.0470 Uiso
H8 H 0.407(6) 0.780(6) 0.1619(15) 0.0470 Uiso
O1E O 0.5387(4) 0.9159(4) -0.00304(15) 0.0469 Uani
H5E H 0.514(9) 0.932(8) 0.017(3) 0.0700 Uiso
H6E H 0.490(9) 0.964(8) -0.025(3) 0.0800 Uiso
N1E N 0.6184(3) 0.6265(4) -0.04515(9) 0.0290 Uani
N2E N 0.4710(4) 0.6070(4) -0.04427(11) 0.0326 Uani
N3E N 0.6406(3) 0.3265(4) -0.2051(1) 0.0313 Uani
N4E N 0.4921(4) 0.3146(4) -0.20437(11) 0.0364 Uani
C1E C 0.6638(4) 0.5623(4) -0.08129(11) 0.0288 Uani
C2E C 0.5442(4) 0.5012(4) -0.10354(11) 0.0277 Uani
C3E C 0.4238(5) 0.5332(5) -0.07870(13) 0.0326 Uani
C4E C 0.6753(4) 0.3949(5) -0.16866(12) 0.0327 Uani
C5E C 0.5496(4) 0.4258(4) -0.14464(11) 0.0277 Uani
C6E C 0.4354(5) 0.3723(6) -0.16901(13) 0.0410 Uani
H1E H 0.778(6) 0.560(6) -0.0903(16) 0.0530 Uiso
H2E H 0.421(6) 0.634(6) -0.0234(17) 0.0530 Uiso
H3E H 0.337(6) 0.523(5) -0.0829(14) 0.0340 Uiso
H4E H 0.341(6) 0.372(5) -0.1635(14) 0.0370 Uiso
H7E H 0.448(6) 0.289(6) -0.2256(17) 0.0470 Uiso
H8E H 0.780(6) 0.407(6) -0.1619(15) 0.0470 Uiso
N3A N 0.8594(3) 0.8265(4) -0.0449(1) 0.0313 Uani
N3F N 0.8265(4) 0.8594(3) 0.0449(1) 0.0313 Uani
Cu1C Cu 0.23262(5) 0.76738(5) 0.2500 0.0260 Uani
Cu1A Cu 0.76738(5) 0.23262(5) -0.2500 0.0260 Uani
Cl1 Cl 0.32163(16) 0.02851(13) 0.09733(4) 0.0572 Uani
O2 O 0.2731(5) 0.1795(4) 0.09862(19) 0.0877 Uani
O3 O 0.4859(6) 0.0286(7) 0.1003(2) 0.1023 Uani
O4 O 0.2943(7) -0.0303(6) 0.05491(18) 0.1080 Uani
O5 O 0.7003(4) 0.2372(4) -0.01316(11) 0.0464 Uani
H9 H 0.776(9) 0.265(9) -0.037(3) 0.1100 Uiso
H10 H 0.653(7) 0.210(7) -0.030(2) 0.0580 Uiso
O6 O 1.1231(6) 0.4613(5) 0.06523(17) 0.0847 Uani
O7 O 0.2411(13) 0.2411(13) 0.0000 0.1957 Uani
loop_
_atom_site_aniso_label
_atom_site_aniso_U_11
_atom_site_aniso_U_22
_atom_site_aniso_U_33
_atom_site_aniso_U_23
_atom_site_aniso_U_13
_atom_site_aniso_U_12
Cu1 0.0318(3) 0.0318(3) 0.0145(4) -0.0001(2) 0.0001(2) -0.0065(3)
O1 0.0467(18) 0.050(2) 0.044(2) -0.0014(18) 0.0026(18) 0.0137(14)
N1 0.0384(17) 0.0267(15) 0.0220(16) -0.0042(12) 0.0039(14) -0.0023(12)
N2 0.0457(19) 0.0288(16) 0.0234(17) -0.0050(14) 0.0074(15) -0.0019(14)
N3 0.0391 0.0318 0.0231 0.0038 0.0044 0.0043
N4 0.053 0.0309 0.0254 0.0018 0.0124 -0.0014
C1 0.038(2) 0.0319(19) 0.0165(18) -0.0018(15) 0.0063(15) -0.0008(15)
C2 0.0329(19) 0.0335(19) 0.0167(19) -0.0002(13) 0.0066(14) 0.0009(16)
C3 0.046(2) 0.0277(19) 0.024(2) 0.0007(15) 0.0085(16) -0.0067(17)
C4 0.043 0.034 0.0211 0.0018 0.0077 0.0044
C5 0.0308 0.036 0.0162 0.0007 0.0052 0.0008
C6 0.061 0.032 0.03 -0.0054 0.014 -0.0023
O1E 0.05 0.0467 0.044 -0.0026 0.0014 0.0137
N1E 0.0267 0.0384 0.022 -0.0039 0.0042 -0.0023
N2E 0.0288 0.0457 0.0234 -0.0074 0.005 -0.0019
N3E 0.0318 0.0391 0.0231 -0.0044 -0.0038 0.0043
N4E 0.0309 0.053 0.0254 -0.0124 -0.0018 -0.0014
C1E 0.0319 0.038 0.0165 -0.0063 0.0018 -0.0008
C2E 0.0335 0.0329 0.0167 -0.0066 0.0002 0.0009
C3E 0.0277 0.046 0.024 -0.0085 -0.0007 -0.0067
C4E 0.034 0.043 0.0211 -0.0077 -0.0018 0.0044
C5E 0.036 0.0308 0.0162 -0.0052 -0.0007 0.0008
C6E 0.032 0.061 0.03 -0.014 0.0054 -0.0023
N3A 0.0318 0.0391 0.0231 0.0044 -0.0038 -0.0043
N3F 0.0391 0.0318 0.0231 0.0038 -0.0044 -0.0043
Cu1C 0.0318 0.0318 0.0145 -0.0001 -0.0001 0.0065
Cu1A 0.0318 0.0318 0.0145 0.0001 0.0001 0.0065
Cl1 0.0681(8) 0.0409(6) 0.0627(8) -0.0070(5) 0.0255(6) -0.0078(5)
O2 0.087(3) 0.044(2) 0.132(4) -0.015(2) 0.024(3) 0.003(2)
O3 0.065(3) 0.099(4) 0.143(5) -0.005(4) -0.012(3) 0.007(3)
O4 0.123(5) 0.100(4) 0.101(4) -0.054(3) 0.017(3) -0.024(3)
O5 0.059(2) 0.0442(17) 0.036(2) -0.0007(14) 0.0026(16) -0.0049(16)
O6 0.081(3) 0.070(3) 0.103(3) 0.018(3) -0.021(3) 0.014(2)
O7 0.21(1) 0.21(1) 0.167(12) 0.036(6) -0.036(6) 0.089(12)
loop_
_geom_bond_atom_site_label_1
_geom_bond_atom_site_label_2
_geom_bond_site_symmetry_1
_geom_bond_site_symmetry_2
Cu1 O1 1_555 1_555
Cl1 O2 1_555 1_555
O1 H5 1_555 1_555
O3 Cl1 1_555 1_555
O4 Cl1 1_555 1_555
O5 H9 1_555 1_555
N1 Cu1 1_555 1_555
N2 N1 1_555 1_555
N3 N4 1_555 1_555
N4 C6 1_555 1_555
C1 N1 1_555 1_555
C2 C1 1_555 1_555
C3 N2 1_555 1_555
C4 N3 1_555 1_555
C5 C2 1_555 1_555
C6 C5 1_555 1_555
H1 C1 1_555 1_555
H2 N2 1_555 1_555
H3 C3 1_555 1_555
H4 C6 1_555 1_555
H6 O1 1_555 1_555
H7 N4 1_555 1_555
H8 C4 1_555 1_555
H10 O5 1_555 1_555
O1E Cu1 1_555 1_555
H5E O1E 1_555 1_555
H6E O1E 1_555 1_555
N1E Cu1 1_555 1_555
N2E N1E 1_555 1_555
N3E N4E 1_555 1_555
N4E C6E 1_555 1_555
C1E N1E 1_555 1_555
C2E C1E 1_555 1_555
C3E N2E 1_555 1_555
C4E N3E 1_555 1_555
C5E C2E 1_555 1_555
C6E C5E 1_555 1_555
H1E C1E 1_555 1_555
H2E N2E 1_555 1_555
H3E C3E 1_555 1_555
H4E C6E 1_555 1_555
H7E N4E 1_555 1_555
H8E C4E 1_555 1_555
N3A Cu1 1_555 1_555
N3F Cu1 1_555 1_555
Cu1C N3 1_555 1_555
Cu1A N3E 1_555 1_555
C2 C3 1_555 1_555
C4 C5 1_555 1_555
C2E C3E 1_555 1_555
C4E C5E 1_555 1_555

#END
