
#######################################################################
#
#                 Cambridge Crystallographic Data Centre
#                                CCDC 
#
#######################################################################
#
# If this CIF has been generated from an entry in the Cambridge 
# Structural Database, then it will include bibliographic, chemical, 
# crystal, experimental, refinement or atomic coordinate data resulting 
# from the CCDC's data processing and validation procedures.
#
#######################################################################

data_MUSQIC
_chemical_formula_moiety         '(C53 H68 N12 Ni2 O8)n'
_symmetry_cell_setting           tetragonal
_symmetry_space_group_name_H-M   'P -4 b 2'
_symmetry_Int_Tables_number      117
_space_group_name_Hall           'P -4 -2ab'
loop_
_symmetry_equiv_pos_site_id
_symmetry_equiv_pos_as_xyz
1 x,y,z
2 y,-x,-z
3 -x,-y,z
4 -y,x,-z
5 1/2-x,1/2+y,z
6 1/2+y,1/2+x,-z
7 1/2+x,1/2-y,z
8 1/2-y,1/2-x,-z
_cell_length_a                   16.7806(6)
_cell_length_b                   16.7806(6)
_cell_length_c                   12.2501(13)
_cell_angle_alpha                90
_cell_angle_beta                 90
_cell_angle_gamma                90
_cell_volume                     3449.49
loop_
_atom_site_label
_atom_site_type_symbol
_atom_site_fract_x
_atom_site_fract_y
_atom_site_fract_z
_atom_site_U_iso_or_equiv
_atom_site_thermal_displace_type
Ni1 Ni 0.69405(3) 0.80595(3) 1.0000 0.0483 Uani
O1 O 0.63314(19) 0.74348(18) 0.8725(3) 0.0523 Uani
O2 O 0.5778(3) 0.8318(2) 0.7595(4) 0.0923 Uani
N1 N 0.7113(3) 0.6942(2) 1.0739(4) 0.0603 Uani
N2 N 0.5854(3) 0.6872(3) 1.1488(4) 0.0713 Uani
N3 N 0.5899(2) 0.8265(2) 1.0821(4) 0.0537 Uani
H1 H 0.6052 0.8509 1.1535 0.0640 Uiso
C1 C 0.5000 0.5000 0.5000 0.0353 Uani
C2 C 0.5239(2) 0.5702(2) 0.5749(4) 0.0347 Uani
C3 C 0.5016(3) 0.6481(3) 0.5534(4) 0.0480 Uani
H2 H 0.4707 0.6596 0.4903 0.0580 Uiso
C4 C 0.5699(3) 0.5568(3) 0.6681(3) 0.0380 Uani
H3 H 0.5857 0.5038 0.6848 0.0460 Uiso
C5 C 0.5929(3) 0.6162(3) 0.7356(4) 0.0447 Uani
H4 H 0.6247 0.6045 0.7977 0.0540 Uiso
C6 C 0.5697(3) 0.6954(3) 0.7143(4) 0.0447 Uani
C7 C 0.5237(3) 0.7090(3) 0.6226(4) 0.0570 Uani
H5 H 0.5069 0.7619 0.6068 0.0690 Uiso
C8 C 0.5957(3) 0.7620(3) 0.7865(5) 0.0537 Uani
C9 C 0.6401(4) 0.7048(4) 1.2417(6) 0.0817 Uani
H6 H 0.6318 0.6664 1.3019 0.0980 Uiso
H7 H 0.6310 0.7594 1.2697 0.0980 Uiso
C10 C 0.7241(4) 0.6968(3) 1.1947(5) 0.0717 Uani
H8 H 0.7575 0.7430 1.2154 0.0860 Uiso
H9 H 0.7500 0.6474 1.2207 0.0860 Uiso
C11 C 0.7767(3) 0.6593(3) 1.0116(6) 0.0757 Uani
H10 H 0.7561 0.6377 0.9418 0.0910 Uiso
H11 H 0.8006 0.6148 1.0534 0.0910 Uiso
C12 C 0.5490(3) 0.8898(3) 1.0190(5) 0.0533 Uani
H12 H 0.5084 0.9161 1.0653 0.0640 Uiso
H13 H 0.5218 0.8662 0.9550 0.0640 Uiso
C13 C 0.5407(3) 0.7558(3) 1.1095(5) 0.0667 Uani
H14 H 0.5015 0.7712 1.1661 0.0800 Uiso
H15 H 0.5105 0.7397 1.0437 0.0800 Uiso
C14 C 0.6347(3) 0.6488(3) 1.0699(5) 0.0680 Uani
H16 H 0.6105 0.6517 0.9963 0.0820 Uiso
H17 H 0.6432 0.5921 1.0892 0.0820 Uiso
O1A O 0.74348(18) 0.36686(19) 0.1275(3) 0.0523 Uani
O2A O 0.8318(2) 0.4222(3) 0.2405(4) 0.0923 Uani
C2A C 0.5702(2) 0.4761(2) 0.4251(4) 0.0347 Uani
C3A C 0.6481(3) 0.4984(3) 0.4466(4) 0.0480 Uani
H2A H 0.6596 0.5293 0.5097 0.0580 Uiso
C4A C 0.5568(3) 0.4301(3) 0.3319(3) 0.0380 Uani
H3A H 0.5038 0.4143 0.3152 0.0460 Uiso
C5A C 0.6162(3) 0.4071(3) 0.2644(4) 0.0447 Uani
H4A H 0.6045 0.3753 0.2023 0.0540 Uiso
C6A C 0.6954(3) 0.4303(3) 0.2857(4) 0.0447 Uani
C7A C 0.7090(3) 0.4763(3) 0.3774(4) 0.0570 Uani
H5A H 0.7619 0.4931 0.3932 0.0690 Uiso
C8A C 0.7620(3) 0.4043(3) 0.2135(5) 0.0537 Uani
O1B O 0.36686(19) 0.25652(18) 0.8725(3) 0.0523 Uani
O2B O 0.4222(3) 0.1682(2) 0.7595(4) 0.0923 Uani
C2B C 0.4761(2) 0.4298(2) 0.5749(4) 0.0347 Uani
C3B C 0.4984(3) 0.3519(3) 0.5534(4) 0.0480 Uani
H2B H 0.5293 0.3404 0.4903 0.0580 Uiso
C4B C 0.4301(3) 0.4432(3) 0.6681(3) 0.0380 Uani
H3B H 0.4143 0.4962 0.6848 0.0460 Uiso
C5B C 0.4071(3) 0.3838(3) 0.7356(4) 0.0447 Uani
H4B H 0.3753 0.3955 0.7977 0.0540 Uiso
C6B C 0.4303(3) 0.3046(3) 0.7143(4) 0.0447 Uani
C7B C 0.4763(3) 0.2910(3) 0.6226(4) 0.0570 Uani
H5B H 0.4931 0.2381 0.6068 0.0690 Uiso
C8B C 0.4043(3) 0.2380(3) 0.7865(5) 0.0537 Uani
O1C O 0.25652(18) 0.63314(19) 0.1275(3) 0.0523 Uani
O2C O 0.1682(2) 0.5778(3) 0.2405(4) 0.0923 Uani
C2C C 0.4298(2) 0.5239(2) 0.4251(4) 0.0347 Uani
C3C C 0.3519(3) 0.5016(3) 0.4466(4) 0.0480 Uani
H2C H 0.3404 0.4707 0.5097 0.0580 Uiso
C4C C 0.4432(3) 0.5699(3) 0.3319(3) 0.0380 Uani
H3C H 0.4962 0.5857 0.3152 0.0460 Uiso
C5C C 0.3838(3) 0.5929(3) 0.2644(4) 0.0447 Uani
H4C H 0.3955 0.6247 0.2023 0.0540 Uiso
C6C C 0.3046(3) 0.5697(3) 0.2857(4) 0.0447 Uani
C7C C 0.2910(3) 0.5237(3) 0.3774(4) 0.0570 Uani
H5C H 0.2381 0.5069 0.3932 0.0690 Uiso
C8C C 0.2380(3) 0.5957(3) 0.2135(5) 0.0537 Uani
N1G N 0.8058(2) 0.7887(3) 0.9261(4) 0.0603 Uani
N2G N 0.8128(3) 0.9146(3) 0.8512(4) 0.0713 Uani
C9G C 0.7952(4) 0.8599(4) 0.7583(6) 0.0817 Uani
H6G H 0.8336 0.8682 0.6981 0.0980 Uiso
H7G H 0.7406 0.8690 0.7303 0.0980 Uiso
C10G C 0.8032(3) 0.7759(4) 0.8053(5) 0.0717 Uani
H8G H 0.7570 0.7425 0.7846 0.0860 Uiso
H9G H 0.8526 0.7500 0.7793 0.0860 Uiso
C11G C 0.8407(3) 0.7233(3) 0.9884(6) 0.0757 Uani
H10G H 0.8623 0.7439 1.0582 0.0910 Uiso
H11G H 0.8852 0.6994 0.9466 0.0910 Uiso
C14G C 0.8512(3) 0.8653(3) 0.9301(5) 0.0680 Uani
H16G H 0.8483 0.8895 1.0037 0.0820 Uiso
H17G H 0.9079 0.8568 0.9108 0.0820 Uiso
N3G N 0.6735(2) 0.9101(2) 0.9179(4) 0.0537 Uani
H1G H 0.6491 0.8948 0.8465 0.0640 Uiso
C12G C 0.6102(3) 0.9510(3) 0.9810(5) 0.0533 Uani
H12G H 0.5839 0.9916 0.9347 0.0640 Uiso
H13G H 0.6338 0.9782 1.0450 0.0640 Uiso
C13G C 0.7442(3) 0.9593(3) 0.8905(5) 0.0667 Uani
H14G H 0.7288 0.9985 0.8339 0.0800 Uiso
H15G H 0.7603 0.9895 0.9563 0.0800 Uiso
Ni1A Ni 0.80595(3) 0.30595(3) 0.0000 0.0483 Uani
N1A N 0.6942(2) 0.2887(3) -0.0739(4) 0.0603 Uani
N2A N 0.6872(3) 0.4146(3) -0.1488(4) 0.0713 Uani
N3A N 0.8265(2) 0.4101(2) -0.0821(4) 0.0537 Uani
H1A H 0.8509 0.3948 -0.1535 0.0640 Uiso
C9A C 0.7048(4) 0.3599(4) -0.2417(6) 0.0817 Uani
H6A H 0.6664 0.3682 -0.3019 0.0980 Uiso
H7A H 0.7594 0.3690 -0.2697 0.0980 Uiso
C10A C 0.6968(3) 0.2759(4) -0.1947(5) 0.0717 Uani
H8A H 0.7430 0.2425 -0.2154 0.0860 Uiso
H9A H 0.6474 0.2500 -0.2207 0.0860 Uiso
C11A C 0.6593(3) 0.2233(3) -0.0116(6) 0.0757 Uani
H10A H 0.6377 0.2439 0.0582 0.0910 Uiso
H11A H 0.6148 0.1994 -0.0534 0.0910 Uiso
C12A C 0.8898(3) 0.4510(3) -0.0190(5) 0.0533 Uani
H12A H 0.9161 0.4916 -0.0653 0.0640 Uiso
H13A H 0.8662 0.4782 0.0450 0.0640 Uiso
C13A C 0.7558(3) 0.4593(3) -0.1095(5) 0.0667 Uani
H14A H 0.7712 0.4985 -0.1661 0.0800 Uiso
H15A H 0.7397 0.4895 -0.0437 0.0800 Uiso
C14A C 0.6488(3) 0.3653(3) -0.0699(5) 0.0680 Uani
H16A H 0.6517 0.3895 0.0037 0.0820 Uiso
H17A H 0.5921 0.3568 -0.0892 0.0820 Uiso
N1D N 0.7887(3) 0.1942(2) 0.0739(4) 0.0603 Uani
N2D N 0.9146(3) 0.1872(3) 0.1488(4) 0.0713 Uani
C9D C 0.8599(4) 0.2048(4) 0.2417(6) 0.0817 Uani
H6D H 0.8682 0.1664 0.3019 0.0980 Uiso
H7D H 0.8690 0.2594 0.2697 0.0980 Uiso
C10D C 0.7759(4) 0.1968(3) 0.1947(5) 0.0717 Uani
H8D H 0.7425 0.2430 0.2154 0.0860 Uiso
H9D H 0.7500 0.1474 0.2207 0.0860 Uiso
C11D C 0.7233(3) 0.1593(3) 0.0116(6) 0.0757 Uani
H10D H 0.7439 0.1377 -0.0582 0.0910 Uiso
H11D H 0.6994 0.1148 0.0534 0.0910 Uiso
C14D C 0.8653(3) 0.1488(3) 0.0699(5) 0.0680 Uani
H16D H 0.8895 0.1517 -0.0037 0.0820 Uiso
H17D H 0.8568 0.0921 0.0892 0.0820 Uiso
N3D N 0.9101(2) 0.3265(2) 0.0821(4) 0.0537 Uani
H1D H 0.8948 0.3509 0.1535 0.0640 Uiso
C12D C 0.9510(3) 0.3898(3) 0.0190(5) 0.0533 Uani
H12D H 0.9916 0.4161 0.0653 0.0640 Uiso
H13D H 0.9782 0.3662 -0.0450 0.0640 Uiso
C13D C 0.9593(3) 0.2558(3) 0.1095(5) 0.0667 Uani
H14D H 0.9985 0.2712 0.1661 0.0800 Uiso
H15D H 0.9895 0.2397 0.0437 0.0800 Uiso
Ni1B Ni 0.30595(3) 0.19405(3) 1.0000 0.0483 Uani
Ni1C Ni 0.19405(3) 0.69405(3) 0.0000 0.0483 Uani
O1D O 0.86686(19) 0.24348(18) -0.1275(3) 0.0523 Uani
O1G O 0.75652(18) 0.86686(19) 1.1275(3) 0.0523 Uani
loop_
_atom_site_aniso_label
_atom_site_aniso_U_11
_atom_site_aniso_U_22
_atom_site_aniso_U_33
_atom_site_aniso_U_23
_atom_site_aniso_U_13
_atom_site_aniso_U_12
Ni1 0.0359(3) 0.0359(3) 0.0732(6) -0.0153(4) -0.0153(4) 0.0047(3)
O1 0.056(2) 0.0350(19) 0.066(2) -0.0107(17) -0.0219(18) 0.0044(15)
O2 0.136(4) 0.033(2) 0.108(4) -0.007(2) -0.059(3) 0.004(2)
N1 0.065(3) 0.035(2) 0.081(3) -0.003(2) -0.034(3) 0.004(2)
N2 0.068(3) 0.065(3) 0.081(4) 0.015(3) -0.026(3) -0.013(3)
N3 0.039 0.05 0.072 -0.008 -0.017 -0.0013
C1 0.030(2) 0.030(2) 0.046(5) 0.000 0.000 0.000
C2 0.035(2) 0.030(2) 0.039(2) -0.002(2) 0.002(2) -0.0011(18)
C3 0.058(3) 0.034(3) 0.052(3) 0.004(2) -0.022(2) 0.001(2)
C4 0.045(3) 0.030(2) 0.039(2) 0.000(2) -0.009(2) 0.006(2)
C5 0.048(3) 0.036(3) 0.050(3) 0.002(2) -0.011(2) 0.009(2)
C6 0.046(3) 0.030(3) 0.058(3) -0.007(2) -0.009(2) -0.001(2)
C7 0.063(4) 0.037(3) 0.071(4) -0.001(3) -0.022(3) 0.008(2)
C8 0.057(3) 0.034(3) 0.070(4) -0.005(3) -0.020(3) 0.000(2)
C9 0.081(5) 0.078(5) 0.086(5) 0.013(4) -0.032(4) -0.006(3)
C10 0.070(4) 0.064(4) 0.081(4) 0.008(3) -0.032(3) 0.005(3)
C11 0.077(4) 0.053(3) 0.097(4) -0.028(4) -0.048(4) 0.026(2)
C12 0.038 0.046 0.076 -0.011 -0.015 0.0109
C13 0.043 0.076 0.081 -0.006 -0.011 -0.013
C14 0.067(4) 0.044(3) 0.093(4) 0.003(3) -0.033(4) -0.006(3)
O1A 0.035 0.056 0.066 -0.0219 0.0107 -0.0044
O2A 0.033 0.136 0.108 -0.059 0.007 -0.004
C2A 0.03 0.035 0.039 0.002 0.002 0.0011
C3A 0.034 0.058 0.052 -0.022 -0.004 -0.001
C4A 0.03 0.045 0.039 -0.009 0 -0.006
C5A 0.036 0.048 0.05 -0.011 -0.002 -0.009
C6A 0.03 0.046 0.058 -0.009 0.007 0.001
C7A 0.037 0.063 0.071 -0.022 0.001 -0.008
C8A 0.034 0.057 0.07 -0.02 0.005 0
O1B 0.056 0.035 0.066 0.0107 0.0219 0.0044
O2B 0.136 0.033 0.108 0.007 0.059 0.004
C2B 0.035 0.03 0.039 0.002 -0.002 -0.0011
C3B 0.058 0.034 0.052 -0.004 0.022 0.001
C4B 0.045 0.03 0.039 0 0.009 0.006
C5B 0.048 0.036 0.05 -0.002 0.011 0.009
C6B 0.046 0.03 0.058 0.007 0.009 -0.001
C7B 0.063 0.037 0.071 0.001 0.022 0.008
C8B 0.057 0.034 0.07 0.005 0.02 0
O1C 0.035 0.056 0.066 0.0219 -0.0107 -0.0044
O2C 0.033 0.136 0.108 0.059 -0.007 -0.004
C2C 0.03 0.035 0.039 -0.002 -0.002 0.0011
C3C 0.034 0.058 0.052 0.022 0.004 -0.001
C4C 0.03 0.045 0.039 0.009 0 -0.006
C5C 0.036 0.048 0.05 0.011 0.002 -0.009
C6C 0.03 0.046 0.058 0.009 -0.007 0.001
C7C 0.037 0.063 0.071 0.022 -0.001 -0.008
C8C 0.034 0.057 0.07 0.02 -0.005 0
N1G 0.035 0.065 0.081 -0.034 -0.003 0.004
N2G 0.065 0.068 0.081 -0.026 0.015 -0.013
C9G 0.078 0.081 0.086 -0.032 0.013 -0.006
C10G 0.064 0.07 0.081 -0.032 0.008 0.005
C11G 0.053 0.077 0.097 -0.048 -0.028 0.026
C14G 0.044 0.067 0.093 -0.033 0.003 -0.006
N3G 0.05 0.039 0.072 -0.017 -0.008 -0.0013
C12G 0.046 0.038 0.076 -0.015 -0.011 0.0109
C13G 0.076 0.043 0.081 -0.011 -0.006 -0.013
Ni1A 0.0359 0.0359 0.0732 -0.0153 0.0153 -0.0047
N1A 0.035 0.065 0.081 -0.034 0.003 -0.004
N2A 0.065 0.068 0.081 -0.026 -0.015 0.013
N3A 0.05 0.039 0.072 -0.017 0.008 0.0013
C9A 0.078 0.081 0.086 -0.032 -0.013 0.006
C10A 0.064 0.07 0.081 -0.032 -0.008 -0.005
C11A 0.053 0.077 0.097 -0.048 0.028 -0.026
C12A 0.046 0.038 0.076 -0.015 0.011 -0.0109
C13A 0.076 0.043 0.081 -0.011 0.006 0.013
C14A 0.044 0.067 0.093 -0.033 -0.003 0.006
N1D 0.065 0.035 0.081 -0.003 0.034 -0.004
N2D 0.068 0.065 0.081 0.015 0.026 0.013
C9D 0.081 0.078 0.086 0.013 0.032 0.006
C10D 0.07 0.064 0.081 0.008 0.032 -0.005
C11D 0.077 0.053 0.097 -0.028 0.048 -0.026
C14D 0.067 0.044 0.093 0.003 0.033 0.006
N3D 0.039 0.05 0.072 -0.008 0.017 0.0013
C12D 0.038 0.046 0.076 -0.011 0.015 -0.0109
C13D 0.043 0.076 0.081 -0.006 0.011 0.013
Ni1B 0.0359 0.0359 0.0732 0.0153 0.0153 0.0047
Ni1C 0.0359 0.0359 0.0732 0.0153 -0.0153 -0.0047
O1D 0.056 0.035 0.066 -0.0107 0.0219 -0.0044
O1G 0.035 0.056 0.066 -0.0219 -0.0107 0.0044
loop_
_geom_bond_atom_site_label_1
_geom_bond_atom_site_label_2
_geom_bond_site_symmetry_1
_geom_bond_site_symmetry_2
Ni1 O1 1_555 1_555
O1 C8 1_555 1_555
O2 C8 1_555 1_555
N1 Ni1 1_555 1_555
N2 C9 1_555 1_555
N3 Ni1 1_555 1_555
H1 N3 1_555 1_555
C1 C2 1_555 1_555
C2 C3 1_555 1_555
C3 H2 1_555 1_555
C4 C2 1_555 1_555
H3 C4 1_555 1_555
C5 C4 1_555 1_555
H4 C5 1_555 1_555
C6 C5 1_555 1_555
C7 C3 1_555 1_555
H5 C7 1_555 1_555
C8 C6 1_555 1_555
C9 H6 1_555 1_555
H7 C9 1_555 1_555
C10 N1 1_555 1_555
H8 C10 1_555 1_555
H9 C10 1_555 1_555
C11 N1 1_555 1_555
H10 C11 1_555 1_555
H11 C11 1_555 1_555
C12 N3 1_555 1_555
H12 C12 1_555 1_555
H13 C12 1_555 1_555
C13 N2 1_555 1_555
H14 C13 1_555 1_555
H15 C13 1_555 1_555
C14 N1 1_555 1_555
H16 C14 1_555 1_555
H17 C14 1_555 1_555
O1A C8A 1_555 1_555
O2A C8A 1_555 1_555
C2A C1 1_555 1_555
C3A C2A 1_555 1_555
H2A C3A 1_555 1_555
C4A C2A 1_555 1_555
H3A C4A 1_555 1_555
C5A C4A 1_555 1_555
H4A C5A 1_555 1_555
C6A C5A 1_555 1_555
C7A C3A 1_555 1_555
H5A C7A 1_555 1_555
C8A C6A 1_555 1_555
O1B C8B 1_555 1_555
O2B C8B 1_555 1_555
C2B C1 1_555 1_555
C3B C2B 1_555 1_555
H2B C3B 1_555 1_555
C4B C2B 1_555 1_555
H3B C4B 1_555 1_555
C5B C4B 1_555 1_555
H4B C5B 1_555 1_555
C6B C5B 1_555 1_555
C7B C3B 1_555 1_555
H5B C7B 1_555 1_555
C8B C6B 1_555 1_555
O1C C8C 1_555 1_555
O2C C8C 1_555 1_555
C2C C1 1_555 1_555
C3C C2C 1_555 1_555
H2C C3C 1_555 1_555
C4C C2C 1_555 1_555
H3C C4C 1_555 1_555
C5C C4C 1_555 1_555
H4C C5C 1_555 1_555
C6C C5C 1_555 1_555
C7C C3C 1_555 1_555
H5C C7C 1_555 1_555
C8C C6C 1_555 1_555
N1G Ni1 1_555 1_555
N2G C9G 1_555 1_555
C9G H6G 1_555 1_555
H7G C9G 1_555 1_555
C10G N1G 1_555 1_555
H8G C10G 1_555 1_555
H9G C10G 1_555 1_555
C11G C11 1_555 1_555
H10G C11G 1_555 1_555
H11G C11G 1_555 1_555
C14G N1G 1_555 1_555
H16G C14G 1_555 1_555
H17G C14G 1_555 1_555
N3G Ni1 1_555 1_555
H1G N3G 1_555 1_555
C12G C12 1_555 1_555
H12G C12G 1_555 1_555
H13G C12G 1_555 1_555
C13G N2G 1_555 1_555
H14G C13G 1_555 1_555
H15G C13G 1_555 1_555
Ni1A O1A 1_555 1_555
N1A Ni1A 1_555 1_555
N2A C9A 1_555 1_555
N3A Ni1A 1_555 1_555
H1A N3A 1_555 1_555
C9A H6A 1_555 1_555
H7A C9A 1_555 1_555
C10A N1A 1_555 1_555
H8A C10A 1_555 1_555
H9A C10A 1_555 1_555
C11A N1A 1_555 1_555
H10A C11A 1_555 1_555
H11A C11A 1_555 1_555
C12A N3A 1_555 1_555
H12A C12A 1_555 1_555
H13A C12A 1_555 1_555
C13A N2A 1_555 1_555
H14A C13A 1_555 1_555
H15A C13A 1_555 1_555
C14A N1A 1_555 1_555
H16A C14A 1_555 1_555
H17A C14A 1_555 1_555
N1D Ni1A 1_555 1_555
N2D C9D 1_555 1_555
C9D H6D 1_555 1_555
H7D C9D 1_555 1_555
C10D N1D 1_555 1_555
H8D C10D 1_555 1_555
H9D C10D 1_555 1_555
C11D C11A 1_555 1_555
H10D C11D 1_555 1_555
H11D C11D 1_555 1_555
C14D N1D 1_555 1_555
H16D C14D 1_555 1_555
H17D C14D 1_555 1_555
N3D Ni1A 1_555 1_555
H1D N3D 1_555 1_555
C12D C12A 1_555 1_555
H12D C12D 1_555 1_555
H13D C12D 1_555 1_555
C13D N2D 1_555 1_555
H14D C13D 1_555 1_555
H15D C13D 1_555 1_555
Ni1B O1B 1_555 1_555
Ni1C O1C 1_555 1_555
O1D Ni1A 1_555 1_555
O1G Ni1 1_555 1_555
N2 C14 1_555 1_555
N3 C13 1_555 1_555
C6 C7 1_555 1_555
C9 C10 1_555 1_555
C6A C7A 1_555 1_555
C6B C7B 1_555 1_555
C6C C7C 1_555 1_555
N1G C11G 1_555 1_555
N2G C14G 1_555 1_555
C9G C10G 1_555 1_555
N3G C12G 1_555 1_555
N3G C13G 1_555 1_555
N2A C14A 1_555 1_555
N3A C13A 1_555 1_555
C9A C10A 1_555 1_555
N1D C11D 1_555 1_555
N2D C14D 1_555 1_555
C9D C10D 1_555 1_555
N3D C12D 1_555 1_555
N3D C13D 1_555 1_555

#END
