
#######################################################################
#
#                 Cambridge Crystallographic Data Centre
#                                CCDC 
#
#######################################################################
#
# If this CIF has been generated from an entry in the Cambridge 
# Structural Database, then it will include bibliographic, chemical, 
# crystal, experimental, refinement or atomic coordinate data resulting 
# from the CCDC's data processing and validation procedures.
#
#######################################################################

data_EWUFAF
_chemical_formula_moiety         'C34 H39 Ca4 Cl15 Cu12 Hg10 N11 O41 S7'
_symmetry_cell_setting           hexagonal
_symmetry_space_group_name_H-M   'P 63'
_symmetry_Int_Tables_number      173
_space_group_name_Hall           'P 6c'
loop_
_symmetry_equiv_pos_site_id
_symmetry_equiv_pos_as_xyz
1 x,y,z
2 -y,x-y,z
3 -x+y,-x,z
4 -x,-y,1/2+z
5 y,-x+y,1/2+z
6 x-y,x,1/2+z
_cell_length_a                   17.492(11)
_cell_length_b                   17.492(11)
_cell_length_c                   13.242(7)
_cell_angle_alpha                90
_cell_angle_beta                 90
_cell_angle_gamma                120
_cell_volume                     3508.84
loop_
_atom_site_label
_atom_site_type_symbol
_atom_site_fract_x
_atom_site_fract_y
_atom_site_fract_z
Cu1 Cu 0.55764(18) 0.42464(18) -0.8614(18)
Cu2 Cu 0.55283(16) 0.41905(17) -0.6091(17)
Ca1 Ca 0.6667 0.3333 -0.7375(19)
O1 O 0.5315(7) 0.3613(7) -0.738(2)
N1 N 0.6041(16) 0.5098(14) -0.964(3)
N2 N 0.4055(14) 0.5033(16) -0.992(3)
O2 O 0.3246(10) 0.5608(10) -1.106(2)
O3 O 0.6770(10) 0.4419(13) -0.864(3)
O4 O 0.5524(12) 0.5709(12) -1.091(2)
O5 O 0.1992(26) 0.492(2) -1.018(3)
O6 O 0.8036(17) 0.5082(12) -0.950(2)
O7 O 0.4440(12) 0.4275(12) -0.885(2)
C1 C 0.5464(16) 0.5261(16) -1.010(3)
C2 C 0.457(2) 0.4814(18) -0.957(3)
C3 C 0.6966(16) 0.5482(16) -0.995(3)
H1 H 0.6962 0.5326 -1.0676
C4 C 0.7251(16) 0.4960(18) -0.938(3)
C5 C 0.3187(18) 0.475(2) -0.9573(19)
H2 H 0.2850 0.4086 -0.9604
C6 C 0.274(2) 0.512(2) -1.040(3)
C7 C 0.758(2) 0.6402(18) -0.986(3)
H3 H 0.7222 0.6685 -0.9961
H4 H 0.7950 0.6539 -1.0476
C8 C 0.8219 0.6945 -0.9074
H5 H 0.8779 0.7427 -0.9354
H6 H 0.8341 0.6592 -0.8582
C9 C 0.736(7) 0.804(7) -0.952(8)
H7 H 0.7414 0.7862 -1.0206
H8 H 0.7815 0.8657 -0.9411
H9 H 0.6777 0.7971 -0.9425
S1 S 0.7524 0.7321 -0.8583
C10 C 0.3130 0.5002 -0.8559
H10 H 0.3694 0.5168 -0.8214
H11 H 0.2660 0.4479 -0.8206
C11 C 0.2950 0.5722 -0.8432
H12 H 0.2472 0.5671 -0.8877
H13 H 0.3483 0.6311 -0.8504
S2 S 0.2593 0.5422 -0.7089
Hg1 Hg 0.7443(12) 0.7607(13) -0.675(2)
Cl1 Cl 0.5885 0.7326 -0.6109
Cl2 Cl 0.8984 0.7792 -0.6299
Cl3 Cl 0.8056 0.8619 -0.7728
O8 O 0.624(3) 0.577(3) -0.759(4)
Hg2 Hg 0.1931 0.3540 -0.7561
Cl4 Cl 0.331(3) 0.328(3) -0.755(5)
C12 C 0.3333 0.6667 -0.698(5)
N1A N 0.4902(14) 1.0943(21) -0.964(3)
N2A N 0.4967(16) 0.9022(21) -0.992(3)
O2A O 0.4392(10) 0.7638(14) -1.106(2)
O3A O 0.5581(13) 1.2351(16) -0.864(3)
O4A O 0.4291(12) 0.9815(17) -1.091(2)
O5A O 0.508(2) 0.7072(33) -1.018(3)
O6A O 0.4918(12) 1.2954(21) -0.950(2)
O7A O 0.5725(12) 1.0165(17) -0.885(2)
C1A C 0.4739(16) 1.0203(23) -1.010(3)
C2A C 0.5186(18) 0.9756(27) -0.957(3)
C3A C 0.4518(16) 1.1484(23) -0.995(3)
H1A H 0.4674 1.1636 -1.0676
C4A C 0.5040(18) 1.2291(24) -0.938(3)
C5A C 0.525(2) 0.8437(27) -0.9573(19)
H2A H 0.5914 0.8764 -0.9604
C6A C 0.488(2) 0.762(3) -1.040(3)
C7A C 0.3598(18) 1.1178(27) -0.986(3)
H3A H 0.3315 1.0537 -0.9961
H4A H 0.3461 1.1411 -1.0476
C8A C 0.3055 1.1274 -0.9074
H5A H 0.2573 1.1352 -0.9354
H6A H 0.3408 1.1749 -0.8582
C9A C 0.196(7) 0.932(10) -0.952(8)
H7A H 0.2138 0.9552 -1.0206
H8A H 0.1343 0.9158 -0.9411
H9A H 0.2029 0.8806 -0.9425
S1A S 0.2679 1.0203 -0.8583
C10A C 0.4998 0.8128 -0.8559
H10A H 0.4832 0.8526 -0.8214
H11A H 0.5521 0.8181 -0.8206
C11A C 0.4278 0.7228 -0.8432
H12A H 0.4329 0.6801 -0.8877
H13A H 0.3689 0.7172 -0.8504
S2A S 0.4578 0.7171 -0.7089
Cl3A Cl 0.1381 0.9437 -0.7728
N1B N -0.0943(21) 0.3959(16) -0.964(3)
N2B N 0.0978(21) 0.5945(14) -0.992(3)
O2B O 0.2362(14) 0.6754(10) -1.106(2)
O3B O -0.2351(16) 0.3230(10) -0.864(3)
O4B O 0.0185(17) 0.4476(12) -1.091(2)
O5B O 0.2928(33) 0.8008(26) -1.018(3)
O6B O -0.2954(21) 0.1964(17) -0.950(2)
O7B O -0.0165(17) 0.5560(12) -0.885(2)
C1B C -0.0203(23) 0.4536(16) -1.010(3)
C2B C 0.0244(27) 0.543(2) -0.957(3)
C3B C -0.1484(23) 0.3034(16) -0.995(3)
H1B H -0.1636 0.3038 -1.0676
C4B C -0.2291(24) 0.2749(16) -0.938(3)
C5B C 0.1563(27) 0.6813(18) -0.9573(19)
H2B H 0.1236 0.7150 -0.9604
C6B C 0.238(3) 0.726(2) -1.040(3)
C7B C -0.1178(27) 0.242(2) -0.986(3)
H3B H -0.0537 0.2778 -0.9961
H4B H -0.1411 0.2050 -1.0476
C8B C -0.1274 0.1781 -0.9074
H5B H -0.1352 0.1221 -0.9354
H6B H -0.1749 0.1659 -0.8582
C9B C 0.068(10) 0.264(7) -0.952(8)
H7B H 0.0448 0.2586 -1.0206
H8B H 0.0842 0.2185 -0.9411
H9B H 0.1194 0.3223 -0.9425
S1B S -0.0203 0.2476 -0.8583
C10B C 0.1872 0.6870 -0.8559
H10B H 0.1474 0.6306 -0.8214
H11B H 0.1819 0.7340 -0.8206
C11B C 0.2772 0.7050 -0.8432
H12B H 0.3199 0.7528 -0.8877
H13B H 0.2828 0.6517 -0.8504
S2B S 0.2829 0.7407 -0.7089
Cl3B Cl 0.0563 0.1944 -0.7728
Cu1A Cu -0.42464(18) 0.13300(25) -0.8614(18)
Cu2A Cu -0.41905(17) 0.13378(23) -0.6091(17)
O1A O -0.3613(7) 0.1702(10) -0.738(2)
Hg1A Hg -0.7607(13) -0.0164(18) -0.675(2)
Cl1A Cl -0.7326 -0.1441 -0.6109
Cl2A Cl -0.7792 0.1192 -0.6299
O8A O -0.577(3) 0.047(4) -0.759(4)
Hg2B Hg -0.8391 -0.1931 -0.7561
Cl4B Cl -1.003(4) -0.331(3) -0.755(5)
Cu1B Cu 0.86700(25) 0.44236(18) -0.8614(18)
Cu2B Cu 0.86622(23) 0.44717(16) -0.6091(17)
O1B O 0.8298(10) 0.4685(7) -0.738(2)
Hg1B Hg 1.0164(18) 0.2557(12) -0.675(2)
Cl1B Cl 1.1441 0.4115 -0.6109
Cl2B Cl 0.8808 0.1016 -0.6299
O8B O 0.953(4) 0.376(3) -0.759(4)
Hg2A Hg 0.6460 0.8391 -0.7561
Cl4A Cl 0.672(3) 1.003(4) -0.755(5)
Cu1_2 Cu 0.55764(18) 1.42464(18) -0.8614(18)
Cu1A_2 Cu 0.57536(18) 1.13300(25) -0.8614(18)
Cu1B_2 Cu -0.13300(25) 0.44236(18) -0.8614(18)
Cu2C Cu 0.44717(16) 0.58095(17) -1.1091(17)
Cu2D Cu 0.41905(17) 0.86622(23) -1.1091(17)
Cu2E Cu 0.13378(23) 0.55283(16) -1.1091(17)
Ca1_2 Ca -0.3333 0.3333 -0.7375(19)
Ca1_3 Ca 0.6667 1.3333 -0.7375(19)
Ca1C Ca 0.3333 0.6667 -1.2375(19)
O1A_2 O 0.6387(7) 0.1702(10) -0.738(2)
N1A_2 N -0.5098(14) 0.0943(21) -0.964(3)
N1B_2 N 0.9057(21) 0.3959(16) -0.964(3)
N2C N 0.5945(14) 0.4967(16) -0.492(3)
N2D N -0.4967(16) 0.0978(21) -0.492(3)
N2E N 0.9022(21) 0.4055(14) -0.492(3)
O2C O 0.6754(10) 0.4392(10) -0.606(2)
O2D O -0.4392(10) 0.2362(14) -0.606(2)
O2D_2 O 0.5608(10) 0.2362(14) -0.606(2)
O2E O 0.7638(14) 0.3246(10) -0.606(2)
O3A_2 O -0.4419(13) 0.2351(16) -0.864(3)
O3A_3 O 0.5581(13) 0.2351(16) -0.864(3)
O3B_2 O 0.7649(16) 0.3230(10) -0.864(3)
O4C O 0.4476(12) 0.4291(12) -0.591(2)
O4D O -0.4291(12) 0.0185(17) -0.591(2)
O4E O 0.9815(17) 0.5524(12) -0.591(2)
O5C O 0.8008(26) 0.508(2) -0.518(3)
O5D O 0.492(2) 0.2928(33) -0.518(3)
O5E O -0.2928(33) 0.1992(26) -0.518(3)
O6A_2 O 0.4918(12) 0.2954(21) -0.950(2)
O7A_2 O -0.4275(12) 0.0165(17) -0.885(2)
O7B_2 O 0.9835(17) 0.5560(12) -0.885(2)
S2B_2 S -0.7171 -0.2593 -0.7089
Hg1A_2 Hg 0.2393(13) 0.9836(18) -0.675(2)
Hg1B_2 Hg 0.0164(18) 0.2557(12) -0.675(2)
Cl1B_2 Cl 0.1441 0.4115 -0.6109
Cl3A_2 Cl -0.8619 -0.0563 -0.7728
Cl3B_2 Cl 1.0563 0.1944 -0.7728
Hg2_2 Hg 1.1931 0.3540 -0.7561
Hg2B_2 Hg 0.1609 0.8069 -0.7561
loop_
_geom_bond_atom_site_label_1
_geom_bond_atom_site_label_2
_geom_bond_site_symmetry_1
_geom_bond_site_symmetry_2
Cu1 O1 1_555 1_555
Cu2 O1 1_555 1_555
Ca1 O1 1_555 1_555
N1 Cu1 1_555 1_555
N2 C2 1_555 1_555
O2 C6 1_555 1_555
O3 Cu1 1_555 1_555
O4 C1 1_555 1_555
O5 C6 1_555 1_555
O6 C4 1_555 1_555
O7 Cu1 1_555 1_555
C1 N1 1_555 1_555
C2 O7 1_555 1_555
C3 N1 1_555 1_555
H1 C3 1_555 1_555
C4 O3 1_555 1_555
C5 N2 1_555 1_555
H2 C5 1_555 1_555
C6 C5 1_555 1_555
C7 C3 1_555 1_555
H3 C7 1_555 1_555
H4 C7 1_555 1_555
C8 C7 1_555 1_555
H5 C8 1_555 1_555
H6 C8 1_555 1_555
C9 H7 1_555 1_555
H8 C9 1_555 1_555
H9 C9 1_555 1_555
S1 C8 1_555 1_555
C10 C5 1_555 1_555
H10 C10 1_555 1_555
H11 C10 1_555 1_555
C11 C10 1_555 1_555
H12 C11 1_555 1_555
H13 C11 1_555 1_555
S2 C11 1_555 1_555
Hg1 Cl1 1_555 1_555
Cl1 Hg2A 1_555 1_555
Cl2 Hg1 1_555 1_555
Cl3 S1 1_555 1_555
O8 Cu1 1_555 1_555
Hg2 S2 1_555 1_555
Cl4 Hg2 1_555 1_555
C12 S2 1_555 1_555
N1A C1A 1_555 1_555
N2A C2A 1_555 1_555
O2A C6A 1_555 1_555
O3A C4A 1_555 1_555
O4A C1A 1_555 1_555
O5A C6A 1_555 1_555
O6A C4A 1_555 1_555
O7A C2A 1_555 1_555
C1A C2A 1_555 1_555
C3A N1A 1_555 1_555
H1A C3A 1_555 1_555
C4A C3A 1_555 1_555
C5A N2A 1_555 1_555
H2A C5A 1_555 1_555
C6A C5A 1_555 1_555
C7A C3A 1_555 1_555
H3A C7A 1_555 1_555
H4A C7A 1_555 1_555
C8A C7A 1_555 1_555
H5A C8A 1_555 1_555
H6A C8A 1_555 1_555
C9A H7A 1_555 1_555
H8A C9A 1_555 1_555
H9A C9A 1_555 1_555
S1A C8A 1_555 1_555
C10A C5A 1_555 1_555
H10A C10A 1_555 1_555
H11A C10A 1_555 1_555
C11A C10A 1_555 1_555
H12A C11A 1_555 1_555
H13A C11A 1_555 1_555
S2A C12 1_555 1_555
Cl3A S1A 1_555 1_555
N1B C1B 1_555 1_555
N2B C2B 1_555 1_555
O2B C6B 1_555 1_555
O3B C4B 1_555 1_555
O4B C1B 1_555 1_555
O5B C6B 1_555 1_555
O6B C4B 1_555 1_555
O7B C2B 1_555 1_555
C1B C2B 1_555 1_555
C3B N1B 1_555 1_555
H1B C3B 1_555 1_555
C4B C3B 1_555 1_555
C5B N2B 1_555 1_555
H2B C5B 1_555 1_555
C6B C5B 1_555 1_555
C7B C3B 1_555 1_555
H3B C7B 1_555 1_555
H4B C7B 1_555 1_555
C8B C7B 1_555 1_555
H5B C8B 1_555 1_555
H6B C8B 1_555 1_555
C9B H7B 1_555 1_555
H8B C9B 1_555 1_555
H9B C9B 1_555 1_555
S1B C8B 1_555 1_555
C10B C5B 1_555 1_555
H10B C10B 1_555 1_555
H11B C10B 1_555 1_555
C11B C10B 1_555 1_555
H12B C11B 1_555 1_555
H13B C11B 1_555 1_555
S2B C12 1_555 1_555
Cl3B Hg2 1_555 1_555
Cu1A O6B 1_555 1_555
Cu2A O1A 1_555 1_555
O1A Cu1A 1_555 1_555
Hg1A Cl1A 1_555 1_555
Cl1A Hg2B 1_555 1_555
Cl2A Hg1A 1_555 1_555
O8A Cu1A 1_555 1_555
Hg2B Cl4B 1_555 1_555
Cu1B O6 1_555 1_555
Cu2B O1B 1_555 1_555
O1B Ca1 1_555 1_555
Hg1B Cl1B 1_555 1_555
Cl1B Hg2_2 1_555 1_555
Cl2B Hg1B 1_555 1_555
O8B Cu1B 1_555 1_555
Hg2A Cl3 1_555 1_555
Cl4A Hg2A 1_555 1_555
Cu1_2 O6A 1_555 1_555
Cu1A_2 N1A 1_555 1_555
Cu1B_2 N1B 1_555 1_555
Cu2C N2 1_555 1_555
Cu2D N2A 1_555 1_555
Cu2E O5 1_555 1_555
Ca1_2 O3B 1_555 1_555
Ca1_3 O3A 1_555 1_555
Ca1C O2 1_555 1_555
O1A_2 Ca1 1_555 1_555
N1A_2 Cu1A 1_555 1_555
N1B_2 Cu1B 1_555 1_555
N2C Cu2 1_555 1_555
N2D Cu2A 1_555 1_555
N2E Cu2B 1_555 1_555
O2C Cu2 1_555 1_555
O2D Cu2A 1_555 1_555
O2D_2 Ca1 1_555 1_555
O2E Ca1 1_555 1_555
O3A_2 Cu1A 1_555 1_555
O3A_3 Ca1 1_555 1_555
O3B_2 Ca1 1_555 1_555
O4C Cu2 1_555 1_555
O4D Cu2A 1_555 1_555
O4E Cu2B 1_555 1_555
O5C Cu2B 1_555 1_555
O5D Cu2 1_555 1_555
O5E Cu2A 1_555 1_555
O6A_2 Cu1 1_555 1_555
O7A_2 Cu1A 1_555 1_555
O7B_2 Cu1B 1_555 1_555
S2B_2 Hg2B 1_555 1_555
Hg1A_2 Cl3A 1_555 1_555
Hg1B_2 Cl3B 1_555 1_555
Cl1B_2 Hg2 1_555 1_555
Cl3A_2 Hg1A 1_555 1_555
Cl3B_2 Hg1B 1_555 1_555
Hg2_2 Cl3B_2 1_555 1_555
Hg2B_2 Cl3A 1_555 1_555
Ca1 O3 1_555 1_555
Ca1 O2C 1_555 1_555
O2 Cu2C 1_555 1_555
O4 Cu2C 1_555 1_555
C1 C2 1_555 1_555
C3 C4 1_555 1_555
C9 S1 1_555 1_555
Hg1 Cl3 1_555 1_555
Hg1 O8 1_555 1_555
O2A Cu2D 1_555 1_555
O2A Ca1C 1_555 1_555
O3A Cu1A_2 1_555 1_555
O4A Cu2D 1_555 1_555
O5A Cu2C 1_555 1_555
O7A Cu1A_2 1_555 1_555
C9A S1A 1_555 1_555
C11A S2A 1_555 1_555
S2A Hg2A 1_555 1_555
N2B Cu2E 1_555 1_555
O2B Cu2E 1_555 1_555
O2B Ca1C 1_555 1_555
O3B Cu1B_2 1_555 1_555
O4B Cu2E 1_555 1_555
O5B Cu2D 1_555 1_555
O7B Cu1B_2 1_555 1_555
C9B S1B 1_555 1_555
S1B Cl3B 1_555 1_555
C11B S2B 1_555 1_555
S2B Hg2B_2 1_555 1_555
O1A Ca1_2 1_555 1_555
Hg1A O8A 1_555 1_555
Hg2B Cl3A_2 1_555 1_555
Cu1B O1B 1_555 1_555
Cu1B O3B_2 1_555 1_555
Cu2B O2E 1_555 1_555
Hg1B O8B 1_555 1_555
Ca1_2 O2D 1_555 1_555
Ca1_2 O3A_2 1_555 1_555
Hg1B_2 Cl1B_2 1_555 1_555

#END
