
#######################################################################
#
#                 Cambridge Crystallographic Data Centre
#                                CCDC 
#
#######################################################################
#
# If this CIF has been generated from an entry in the Cambridge 
# Structural Database, then it will include bibliographic, chemical, 
# crystal, experimental, refinement or atomic coordinate data resulting 
# from the CCDC's data processing and validation procedures.
#
#######################################################################

data_OSUWEF
_chemical_formula_moiety         '(C31 H23 N1 Na2 O13 S2 Zn1)n'
_symmetry_cell_setting           monoclinic
_symmetry_space_group_name_H-M   'P 21/c'
_symmetry_Int_Tables_number      14
_space_group_name_Hall           '-P 2ybc'
loop_
_symmetry_equiv_pos_site_id
_symmetry_equiv_pos_as_xyz
1 x,y,z
2 -x,1/2+y,1/2-z
3 -x,-y,-z
4 x,1/2-y,1/2+z
_cell_length_a                   24.704(5)
_cell_length_b                   5.7098(11)
_cell_length_c                   26.335(5)
_cell_angle_alpha                90
_cell_angle_beta                 114.87(3)
_cell_angle_gamma                90
_cell_volume                     3370.2
loop_
_atom_site_label
_atom_site_type_symbol
_atom_site_fract_x
_atom_site_fract_y
_atom_site_fract_z
Zn1 Zn 0.25723(3) 0.22360(15) 0.53989(3)
S1 S 0.10070(7) 0.0194(3) 0.72125(7)
S2 S 0.50656(6) 0.4639(2) 0.39274(6)
O1 O 0.24170(18) -0.1621(7) 0.55103(17)
O2 O 0.2203(2) -0.5204(7) 0.57097(19)
O3 O -0.1619(2) -0.4937(8) 0.5749(2)
O4 O -0.18311(18) -0.1402(8) 0.53735(18)
O5 O 0.1238(2) -0.1174(10) 0.77158(18)
O6 O 0.1037(2) 0.2715(9) 0.7247(2)
O7 O 0.30545(17) 0.4559(7) 0.50219(16)
O8 O 0.51896(19) 0.7117(7) 0.39648(17)
O9 O 0.55487(17) 0.2979(7) 0.41797(17)
O10 O 0.33230(18) 0.3518(7) 0.11687(16)
O11 O 0.3615(2) -0.0172(8) 0.13997(18)
O12 O 0.31928(17) 0.0733(7) 0.50006(16)
C1 C 0.2208(2) -0.3030(10) 0.5750(2)
C2 C 0.1931(2) -0.2107(10) 0.6127(2)
C3 C 0.1638(3) 0.0054(10) 0.6034(3)
H1 H 0.1638 0.1035 0.5752
C4 C 0.1356(3) 0.0723(11) 0.6354(3)
H2 H 0.1152 0.2140 0.6283
C5 C 0.1371(3) -0.0703(11) 0.6788(3)
C6 C 0.1670(3) -0.2830(11) 0.6891(3)
H3 H 0.1687 -0.3778 0.7184
C7 C 0.1938(3) -0.3508(12) 0.6560(3)
H4 H 0.2132 -0.4947 0.6625
C8 C 0.0251(3) -0.0612(11) 0.6814(3)
C9 C -0.0109(3) 0.0846(12) 0.6387(3)
H5 H 0.0034 0.2279 0.6328
C10 C -0.0679(3) 0.0151(12) 0.6052(3)
H6 H -0.0924 0.1129 0.5765
C11 C -0.0894(2) -0.1959(10) 0.6133(2)
C12 C -0.0535(3) -0.3417(11) 0.6566(3)
H7 H -0.0683 -0.4840 0.6624
C13 C 0.0044(3) -0.2751(12) 0.6912(3)
H8 H 0.0289 -0.3716 0.7202
C14 C -0.1508(3) -0.2858(11) 0.5713(3)
C15 C 0.3301(2) 0.2803(10) 0.4905(2)
C16 C 0.3733(2) 0.3251(10) 0.4660(2)
C17 C 0.3738(3) 0.5389(11) 0.4408(3)
H9 H 0.3464 0.6541 0.4387
C18 C 0.4144(3) 0.5808(11) 0.4192(3)
H10 H 0.4145 0.7243 0.4026
C19 C 0.4556(2) 0.4083(10) 0.4220(2)
C20 C 0.4560(3) 0.1962(11) 0.4460(3)
H11 H 0.4839 0.0824 0.4486
C21 C 0.4127(3) 0.1541(10) 0.4670(2)
H12 H 0.4109 0.0077 0.4817
C22 C 0.4667(2) 0.3885(10) 0.3221(2)
C23 C 0.4259(3) 0.5481(10) 0.2858(2)
H13 H 0.4207 0.6939 0.2988
C24 C 0.3934(3) 0.4883(10) 0.2303(2)
H14 H 0.3666 0.5951 0.2059
C25 C 0.4004(3) 0.2702(10) 0.2106(2)
C26 C 0.4426(3) 0.1156(10) 0.2472(2)
H15 H 0.4483 -0.0286 0.2338
C27 C 0.4761(3) 0.1706(10) 0.3028(2)
H16 H 0.5040 0.0658 0.3267
C28 C 0.3620(3) 0.1930(11) 0.1508(2)
Zn1_2 Zn 0.25723(3) -0.77640(15) 0.53989(3)
Zn1B Zn -0.25723(3) -0.22360(15) 0.46011(3)
Zn1C Zn 0.25723(3) 0.27640(15) 0.03989(3)
O2_2 O 0.2203(2) 0.4796(7) 0.57097(19)
O4B O 0.18311(18) 0.1402(8) 0.46265(18)
O10C O 0.33230(18) 0.1482(7) 0.61687(16)
Na1 Na 0.65016(10) 0.2163(4) 0.42502(9)
Na2 Na 0.22920(12) -0.2209(4) 0.45251(11)
O13 O 0.2321(4) -0.1443(19) 0.3681(4)
C29 C 0.2405(13) 0.130(6) 0.3501(13)
H17 H 0.2258 0.2598 0.3614
N1 N 0.2721(7) 0.146(3) 0.3159(7)
C30 C 0.2691(7) 0.354(3) 0.2937(7)
H18 H 0.2947 0.3590 0.2746
H19 H 0.2817 0.4705 0.3227
H20 H 0.2288 0.3852 0.2676
C31 C 0.3189(11) 0.011(3) 0.3110(9)
H21 H 0.3348 0.0959 0.2889
H22 H 0.3031 -0.1361 0.2933
H23 H 0.3501 -0.0169 0.3476
loop_
_geom_bond_atom_site_label_1
_geom_bond_atom_site_label_2
_geom_bond_site_symmetry_1
_geom_bond_site_symmetry_2
Zn1 O1 1_555 1_555
S1 O5 1_555 1_555
S2 O8 1_555 1_555
O1 C1 1_555 1_555
O2 C1 1_555 1_555
O3 C14 1_555 1_555
O4 C14 1_555 1_555
O6 S1 1_555 1_555
O7 Zn1 1_555 1_555
O9 S2 1_555 1_555
O10 C28 1_555 1_555
O11 C28 1_555 1_555
O12 Zn1 1_555 1_555
C1 C2 1_555 1_555
C2 C3 1_555 1_555
C3 H1 1_555 1_555
C4 C3 1_555 1_555
H2 C4 1_555 1_555
C5 S1 1_555 1_555
C6 C5 1_555 1_555
H3 C6 1_555 1_555
C7 C2 1_555 1_555
H4 C7 1_555 1_555
C8 S1 1_555 1_555
C9 C8 1_555 1_555
H5 C9 1_555 1_555
C10 C9 1_555 1_555
H6 C10 1_555 1_555
C11 C10 1_555 1_555
C12 C11 1_555 1_555
H7 C12 1_555 1_555
C13 C8 1_555 1_555
H8 C13 1_555 1_555
C14 C11 1_555 1_555
C15 O7 1_555 1_555
C16 C15 1_555 1_555
C17 C16 1_555 1_555
H9 C17 1_555 1_555
C18 C17 1_555 1_555
H10 C18 1_555 1_555
C19 S2 1_555 1_555
C20 C19 1_555 1_555
H11 C20 1_555 1_555
C21 C16 1_555 1_555
H12 C21 1_555 1_555
C22 S2 1_555 1_555
C23 C22 1_555 1_555
H13 C23 1_555 1_555
C24 C23 1_555 1_555
H14 C24 1_555 1_555
C25 C24 1_555 1_555
C26 C25 1_555 1_555
H15 C26 1_555 1_555
C27 C22 1_555 1_555
H16 C27 1_555 1_555
C28 C25 1_555 1_555
O13 C29 1_555 1_555
C29 H17 1_555 1_555
N1 C29 1_555 1_555
C30 N1 1_555 1_555
H18 C30 1_555 1_555
H19 C30 1_555 1_555
H20 C30 1_555 1_555
C31 N1 1_555 1_555
H21 C31 1_555 1_555
H22 C31 1_555 1_555
H23 C31 1_555 1_555
Zn1_2 O2 1_555 1_555
Zn1B O4 1_555 1_555
Zn1C O10 1_555 1_555
O2_2 Zn1 1_555 1_555
O4B Zn1 1_555 1_555
O10C Zn1 1_555 1_555
O12 C15 1_555 1_555
C4 C5 1_555 1_555
C6 C7 1_555 1_555
C12 C13 1_555 1_555
C18 C19 1_555 1_555
C20 C21 1_555 1_555
C26 C27 1_555 1_555

#END
