
#######################################################################
#
#                 Cambridge Crystallographic Data Centre
#                                CCDC 
#
#######################################################################
#
# If this CIF has been generated from an entry in the Cambridge 
# Structural Database, then it will include bibliographic, chemical, 
# crystal, experimental, refinement or atomic coordinate data resulting 
# from the CCDC's data processing and validation procedures.
#
#######################################################################

data_RUGYOJ
_chemical_formula_moiety         '(C84 H52 Cd5 N4 O26)n'
_symmetry_cell_setting           monoclinic
_symmetry_space_group_name_H-M   'P 21/c'
_symmetry_Int_Tables_number      14
_space_group_name_Hall           '-P 2ybc'
loop_
_symmetry_equiv_pos_site_id
_symmetry_equiv_pos_as_xyz
1 x,y,z
2 -x,1/2+y,1/2-z
3 -x,-y,-z
4 x,1/2-y,1/2+z
_cell_length_a                   14.6163(3)
_cell_length_b                   23.1639(4)
_cell_length_c                   15.7113(4)
_cell_angle_alpha                90
_cell_angle_beta                 108.061(2)
_cell_angle_gamma                90
_cell_volume                     5057.28
loop_
_atom_site_label
_atom_site_type_symbol
_atom_site_fract_x
_atom_site_fract_y
_atom_site_fract_z
Cd1 Cd 0.5000 0.5000 0.0000
Cd2 Cd 0.73518(2) 0.43898(2) 0.08513(2)
Cd3 Cd 0.76406(3) 0.30267(2) 0.20212(2)
O1 O 0.5464(3) 0.40770(13) 0.0172(2)
O2 O 0.3935(3) 0.48510(14) 0.0670(2)
O3 O -0.1699(2) 0.34513(16) 0.0994(2)
O4 O 0.2774(3) 0.54871(15) 0.0580(2)
O5 O 0.6503(2) 0.37831(14) 0.1416(3)
O6 O 0.3913(3) 0.01854(14) 0.3674(2)
O7 O 0.6697(3) 0.27775(16) 0.7031(2)
O8 O -0.1020(3) 0.42775(19) 0.1191(3)
C1 C 0.2840(3) 0.2130(2) 0.2304(4)
O9 O 0.2399(3) 0.02669(17) 0.3634(3)
O10 O 0.6543(3) 0.24323(17) 0.5696(2)
C2 C 0.3539(3) 0.1745(2) 0.2190(3)
H1 H 0.3914 0.1847 0.1831
C3 C 0.5061(3) 0.32680(19) 0.1989(3)
H2 H 0.5669 0.3300 0.2408
N1 N 0.2683(3) 0.26689(19) 0.1861(4)
O11 O 0.9065(3) 0.2552(2) 0.2749(3)
H3 H 0.9623 0.2640 0.3146
H4 H 0.9048 0.2167 0.2694
C4 C 0.5494(4) 0.3200(2) 0.5804(3)
N2 N 0.3476(3) 0.44841(18) 0.4544(3)
C5 C 0.4848(4) 0.3110(2) 0.4968(3)
H5 H 0.4880 0.2769 0.4665
C6 C 0.4895(3) 0.34954(18) 0.1133(3)
C7 C 0.4337(3) 0.29966(19) 0.2223(3)
H6 H 0.4459 0.2847 0.2797
C8 C 0.3385(3) 0.49457(19) 0.1919(3)
C9 C 0.4172(3) 0.46612(19) 0.2472(3)
H7 H 0.4681 0.4566 0.2261
C10 C 0.3167(4) 0.4909(3) 0.5058(3)
C11 C 0.4119(4) 0.4041(2) 0.5003(3)
C12 C 0.5419(4) 0.3703(2) 0.6247(3)
H8 H 0.5835 0.3763 0.6822
C13 C 0.3434(3) 0.2946(2) 0.1613(4)
C14 C 0.5657(3) 0.38094(17) 0.0882(3)
C15 C 0.4215(4) 0.4516(2) 0.3329(3)
H9 H 0.4765 0.4337 0.3699
O12 O 0.2627(3) 0.6704(3) 0.6645(3)
C16 C 0.2621(4) 0.5072(2) 0.2238(3)
H10 H 0.2094 0.5273 0.1875
C17 C 0.2296(4) 0.1980(2) 0.2860(4)
H11 H 0.1871 0.2242 0.2982
C18 C 0.3664(3) 0.12160(19) 0.2613(3)
H12 H 0.4152 0.0971 0.2571
C19 C 0.6296(4) 0.2778(2) 0.6204(3)
C20 C 0.3065(3) 0.1049(2) 0.3102(3)
C21 C 0.3362(3) 0.51127(19) 0.0989(3)
C22 C 0.0042(4) 0.2886(2) 0.1160(4)
H13 H -0.0514 0.2666 0.0941
C23 C 0.2632(4) 0.4902(2) 0.3088(3)
H14 H 0.2099 0.4968 0.3278
C24 C 0.3447(4) 0.4631(2) 0.3656(3)
C25 C -0.0025(4) 0.3464(2) 0.1317(4)
C26 C 0.3980(4) 0.3441(2) 0.0523(3)
H15 H 0.3854 0.3587 -0.0054
C27 C 0.3155(4) 0.0460(2) 0.3505(3)
C28 C 0.4739(4) 0.4119(2) 0.5857(3)
H16 H 0.4700 0.4453 0.6172
C29 C 0.2401(4) 0.1428(2) 0.3228(4)
H17 H 0.2012 0.1315 0.3568
C30 C 0.1775(4) 0.2943(2) 0.1662(4)
C31 C 0.3251(4) 0.3168(2) 0.0768(4)
H18 H 0.2638 0.3137 0.0358
C32 C 0.0934(4) 0.2628(2) 0.1327(4)
H19 H 0.0970 0.2236 0.1213
O13 O 0.1846(3) 0.6028(3) 0.7167(4)
C33 C 0.3300(4) 0.5497(2) 0.4952(4)
H20 H 0.3584 0.5619 0.4530
C34 C 0.4149(4) 0.3516(2) 0.4566(3)
H21 H 0.3703 0.3441 0.4010
C35 C 0.2757(4) 0.4733(3) 0.5708(3)
H22 H 0.2680 0.4343 0.5808
C36 C -0.0990(4) 0.3729(2) 0.1156(3)
C37 C 0.0824(4) 0.3789(2) 0.1630(4)
H23 H 0.0789 0.4184 0.1720
C38 C 0.3016(4) 0.5898(3) 0.5463(4)
H24 H 0.3101 0.6289 0.5374
C39 C 0.1718(4) 0.3525(2) 0.1806(5)
H25 H 0.2277 0.3743 0.2022
C40 C 0.2463(4) 0.5160(4) 0.6212(4)
H26 H 0.2163 0.5047 0.6628
C41 C 0.2609(4) 0.5732(3) 0.6103(4)
C42 C 0.2322(4) 0.6194(4) 0.6669(5)
Cd2B Cd 0.26482(2) 0.56102(2) -0.08513(2)
Cd3B Cd 0.23594(3) 0.69733(2) -0.20212(2)
O1B O 0.4536(3) 0.59230(13) -0.0172(2)
O2B O 0.6065(3) 0.51490(14) -0.0670(2)
O3B O 1.1699(2) 0.65487(16) -0.0994(2)
O4B O 0.7226(3) 0.45129(15) -0.0580(2)
O5B O 0.3497(2) 0.62169(14) -0.1416(3)
O6B O 0.6087(3) 0.98146(14) -0.3674(2)
O7B O 0.3303(3) 0.72225(16) -0.7031(2)
O8B O 1.1020(3) 0.57225(19) -0.1191(3)
C1B C 0.7160(3) 0.7870(2) -0.2304(4)
O9B O 0.7601(3) 0.97331(17) -0.3634(3)
O10B O 0.3457(3) 0.75677(17) -0.5696(2)
C2B C 0.6461(3) 0.8255(2) -0.2190(3)
H1B H 0.6086 0.8153 -0.1831
C3B C 0.4939(3) 0.67320(19) -0.1989(3)
H2B H 0.4331 0.6700 -0.2408
N1B N 0.7317(3) 0.73311(19) -0.1861(4)
O11B O 0.0935(3) 0.7448(2) -0.2749(3)
H3B H 0.0377 0.7360 -0.3146
H4B H 0.0952 0.7833 -0.2694
C4B C 0.4506(4) 0.6800(2) -0.5804(3)
N2B N 0.6524(3) 0.55159(18) -0.4544(3)
C5B C 0.5152(4) 0.6890(2) -0.4968(3)
H5B H 0.5120 0.7231 -0.4665
C6B C 0.5105(3) 0.65046(18) -0.1133(3)
C7B C 0.5663(3) 0.70034(19) -0.2223(3)
H6B H 0.5541 0.7153 -0.2797
C8B C 0.6615(3) 0.50543(19) -0.1919(3)
C9B C 0.5828(3) 0.53388(19) -0.2472(3)
H7B H 0.5319 0.5434 -0.2261
C10B C 0.6833(4) 0.5091(3) -0.5058(3)
C11B C 0.5881(4) 0.5959(2) -0.5003(3)
C12B C 0.4581(4) 0.6297(2) -0.6247(3)
H8B H 0.4165 0.6237 -0.6822
C13B C 0.6566(3) 0.7054(2) -0.1613(4)
C14B C 0.4343(3) 0.61906(17) -0.0882(3)
C15B C 0.5785(4) 0.5484(2) -0.3329(3)
H9B H 0.5235 0.5663 -0.3699
O12B O 0.7373(3) 0.3296(3) -0.6645(3)
C16B C 0.7379(4) 0.4928(2) -0.2238(3)
H10B H 0.7906 0.4727 -0.1875
C17B C 0.7704(4) 0.8020(2) -0.2860(4)
H11B H 0.8129 0.7758 -0.2982
C18B C 0.6336(3) 0.87840(19) -0.2613(3)
H12B H 0.5848 0.9029 -0.2571
C19B C 0.3704(4) 0.7222(2) -0.6204(3)
C20B C 0.6935(3) 0.8951(2) -0.3102(3)
C21B C 0.6638(3) 0.48873(19) -0.0989(3)
C22B C 0.9958(4) 0.7114(2) -0.1160(4)
H13B H 1.0514 0.7334 -0.0941
C23B C 0.7368(4) 0.5098(2) -0.3088(3)
H14B H 0.7901 0.5032 -0.3278
C24B C 0.6553(4) 0.5369(2) -0.3656(3)
C25B C 1.0025(4) 0.6536(2) -0.1317(4)
C26B C 0.6020(4) 0.6559(2) -0.0523(3)
H15B H 0.6146 0.6413 0.0054
C27B C 0.6845(4) 0.9540(2) -0.3505(3)
C28B C 0.5261(4) 0.5881(2) -0.5857(3)
H16B H 0.5300 0.5547 -0.6172
C29B C 0.7599(4) 0.8572(2) -0.3228(4)
H17B H 0.7988 0.8685 -0.3568
C30B C 0.8225(4) 0.7057(2) -0.1662(4)
C31B C 0.6749(4) 0.6832(2) -0.0768(4)
H18B H 0.7362 0.6863 -0.0358
C32B C 0.9066(4) 0.7372(2) -0.1327(4)
H19B H 0.9030 0.7764 -0.1213
O13B O 0.8154(3) 0.3972(3) -0.7167(4)
C33B C 0.6700(4) 0.4503(2) -0.4952(4)
H20B H 0.6416 0.4381 -0.4530
C34B C 0.5851(4) 0.6484(2) -0.4566(3)
H21B H 0.6297 0.6559 -0.4010
C35B C 0.7243(4) 0.5267(3) -0.5708(3)
H22B H 0.7320 0.5657 -0.5808
C36B C 1.0990(4) 0.6271(2) -0.1156(3)
C37B C 0.9176(4) 0.6211(2) -0.1630(4)
H23B H 0.9211 0.5816 -0.1720
C38B C 0.6984(4) 0.4102(3) -0.5463(4)
H24B H 0.6899 0.3711 -0.5374
C39B C 0.8282(4) 0.6475(2) -0.1806(5)
H25B H 0.7723 0.6257 -0.2022
C40B C 0.7537(4) 0.4840(4) -0.6212(4)
H26B H 0.7837 0.4953 -0.6628
C41B C 0.7391(4) 0.4268(3) -0.6103(4)
C42B C 0.7678(4) 0.3806(4) -0.6669(5)
Cd1A Cd 0.5000 0.0000 0.5000
Cd1A_2 Cd 0.5000 1.0000 -0.5000
Cd2_2 Cd -0.26482(2) 0.43898(2) 0.08513(2)
Cd2A Cd 0.26482(2) -0.06102(2) 0.41487(2)
Cd2B_2 Cd 1.26482(2) 0.56102(2) -0.08513(2)
Cd2C Cd 0.73518(2) 1.06102(2) -0.41487(2)
Cd3_2 Cd -0.23594(3) 0.30267(2) 0.20212(2)
Cd3_3 Cd 0.76406(3) 0.30267(2) -0.79788(2)
Cd3A Cd 0.23594(3) 0.80267(2) -0.70212(2)
Cd3B_2 Cd 0.23594(3) 0.69733(2) 0.79788(2)
Cd3B_3 Cd 1.23594(3) 0.69733(2) -0.20212(2)
Cd3C Cd 0.76406(3) 0.19733(2) 0.70212(2)
O3_2 O 0.8301(2) 0.34513(16) 0.0994(2)
O3B_2 O 0.1699(2) 0.65487(16) -0.0994(2)
O6A O 0.6087(3) 0.51854(14) 0.1326(2)
O6C O 0.3913(3) 0.48146(14) -0.1326(2)
O7A O 0.3303(3) 0.77775(16) -0.2031(2)
O7C O 0.6697(3) 0.22225(16) 0.2031(2)
O8_2 O 0.8980(3) 0.42775(19) 0.1191(3)
O8B_2 O 0.1020(3) 0.57225(19) -0.1191(3)
O9A O 0.7601(3) 0.52669(17) 0.1366(3)
O9C O 0.2399(3) 0.47331(17) -0.1366(3)
O10A O 0.3457(3) 0.74323(17) -0.0696(2)
O10C O 0.6543(3) 0.25677(17) 0.0696(2)
O12_2 O 0.2627(3) 0.6704(3) -0.3355(3)
O12B_2 O 0.7373(3) 0.3296(3) 0.3355(3)
O13_2 O 0.1846(3) 0.6028(3) -0.2833(4)
O13B_2 O 0.8154(3) 0.3972(3) 0.2833(4)
loop_
_geom_bond_atom_site_label_1
_geom_bond_atom_site_label_2
_geom_bond_site_symmetry_1
_geom_bond_site_symmetry_2
Cd1 O1 1_555 1_555
Cd2 O1 1_555 1_555
Cd3 O5 1_555 1_555
O1 C14 1_555 1_555
O2 Cd1 1_555 1_555
O3 C36 1_555 1_555
O4 C21 1_555 1_555
O5 Cd2 1_555 1_555
O6 C27 1_555 1_555
O7 C19 1_555 1_555
O8 C36 1_555 1_555
C1 C2 1_555 1_555
O9 C27 1_555 1_555
O10 C19 1_555 1_555
C2 H1 1_555 1_555
C3 H2 1_555 1_555
N1 C1 1_555 1_555
O11 Cd3 1_555 1_555
H3 O11 1_555 1_555
H4 O11 1_555 1_555
C4 C5 1_555 1_555
N2 C10 1_555 1_555
C5 H5 1_555 1_555
C6 C3 1_555 1_555
C7 C3 1_555 1_555
H6 C7 1_555 1_555
C8 C9 1_555 1_555
C9 H7 1_555 1_555
C10 C33 1_555 1_555
C11 N2 1_555 1_555
C12 C4 1_555 1_555
H8 C12 1_555 1_555
C13 N1 1_555 1_555
C14 O5 1_555 1_555
C15 C9 1_555 1_555
H9 C15 1_555 1_555
O12 C42 1_555 1_555
C16 C8 1_555 1_555
H10 C16 1_555 1_555
C17 C1 1_555 1_555
H11 C17 1_555 1_555
C18 C2 1_555 1_555
H12 C18 1_555 1_555
C19 C4 1_555 1_555
C20 C18 1_555 1_555
C21 O2 1_555 1_555
C22 H13 1_555 1_555
C23 C16 1_555 1_555
H14 C23 1_555 1_555
C24 N2 1_555 1_555
C25 C22 1_555 1_555
C26 C6 1_555 1_555
H15 C26 1_555 1_555
C27 C20 1_555 1_555
C28 C11 1_555 1_555
H16 C28 1_555 1_555
C29 C17 1_555 1_555
H17 C29 1_555 1_555
C30 N1 1_555 1_555
C31 C13 1_555 1_555
H18 C31 1_555 1_555
C32 C22 1_555 1_555
H19 C32 1_555 1_555
O13 C42 1_555 1_555
C33 H20 1_555 1_555
C34 C5 1_555 1_555
H21 C34 1_555 1_555
C35 C10 1_555 1_555
H22 C35 1_555 1_555
C36 C25 1_555 1_555
C37 C25 1_555 1_555
H23 C37 1_555 1_555
C38 C33 1_555 1_555
H24 C38 1_555 1_555
C39 C30 1_555 1_555
H25 C39 1_555 1_555
C40 C35 1_555 1_555
H26 C40 1_555 1_555
C41 C38 1_555 1_555
C42 C41 1_555 1_555
Cd2B O4 1_555 1_555
Cd3B O5B 1_555 1_555
O1B Cd1 1_555 1_555
O2B Cd1 1_555 1_555
O3B C36B 1_555 1_555
O4B Cd2 1_555 1_555
O5B Cd2B 1_555 1_555
O6B C27B 1_555 1_555
O7B C19B 1_555 1_555
O8B C36B 1_555 1_555
C1B C2B 1_555 1_555
O9B C27B 1_555 1_555
O10B C19B 1_555 1_555
C2B H1B 1_555 1_555
C3B H2B 1_555 1_555
N1B C1B 1_555 1_555
O11B Cd3B 1_555 1_555
H3B O11B 1_555 1_555
H4B O11B 1_555 1_555
C4B C5B 1_555 1_555
N2B C10B 1_555 1_555
C5B H5B 1_555 1_555
C6B C3B 1_555 1_555
C7B C3B 1_555 1_555
H6B C7B 1_555 1_555
C8B C9B 1_555 1_555
C9B H7B 1_555 1_555
C10B C33B 1_555 1_555
C11B N2B 1_555 1_555
C12B C4B 1_555 1_555
H8B C12B 1_555 1_555
C13B N1B 1_555 1_555
C14B O1B 1_555 1_555
C15B C9B 1_555 1_555
H9B C15B 1_555 1_555
O12B C42B 1_555 1_555
C16B C8B 1_555 1_555
H10B C16B 1_555 1_555
C17B C1B 1_555 1_555
H11B C17B 1_555 1_555
C18B C2B 1_555 1_555
H12B C18B 1_555 1_555
C19B C4B 1_555 1_555
C20B C18B 1_555 1_555
C21B O2B 1_555 1_555
C22B H13B 1_555 1_555
C23B C16B 1_555 1_555
H14B C23B 1_555 1_555
C24B N2B 1_555 1_555
C25B C22B 1_555 1_555
C26B C6B 1_555 1_555
H15B C26B 1_555 1_555
C27B C20B 1_555 1_555
C28B C11B 1_555 1_555
H16B C28B 1_555 1_555
C29B C17B 1_555 1_555
H17B C29B 1_555 1_555
C30B N1B 1_555 1_555
C31B C13B 1_555 1_555
H18B C31B 1_555 1_555
C32B C22B 1_555 1_555
H19B C32B 1_555 1_555
O13B C42B 1_555 1_555
C33B H20B 1_555 1_555
C34B C5B 1_555 1_555
H21B C34B 1_555 1_555
C35B C10B 1_555 1_555
H22B C35B 1_555 1_555
C36B C25B 1_555 1_555
C37B C25B 1_555 1_555
H23B C37B 1_555 1_555
C38B C33B 1_555 1_555
H24B C38B 1_555 1_555
C39B C30B 1_555 1_555
H25B C39B 1_555 1_555
C40B C35B 1_555 1_555
H26B C40B 1_555 1_555
C41B C38B 1_555 1_555
C42B C41B 1_555 1_555
Cd1A O6 1_555 1_555
Cd1A_2 O6B 1_555 1_555
Cd2_2 O3 1_555 1_555
Cd2A O9 1_555 1_555
Cd2B_2 O3B 1_555 1_555
Cd2C O9B 1_555 1_555
Cd3_2 O3 1_555 1_555
Cd3_3 O12B 1_555 1_555
Cd3A O7B 1_555 1_555
Cd3B_2 O12 1_555 1_555
Cd3B_3 O3B 1_555 1_555
Cd3C O7 1_555 1_555
O3_2 Cd2 1_555 1_555
O3B_2 Cd2B 1_555 1_555
O6A Cd1 1_555 1_555
O6C Cd1 1_555 1_555
O7A Cd3B 1_555 1_555
O7C Cd3 1_555 1_555
O8_2 Cd2 1_555 1_555
O8B_2 Cd2B 1_555 1_555
O9A Cd2 1_555 1_555
O9C Cd2B 1_555 1_555
O10A Cd3B 1_555 1_555
O10C Cd3 1_555 1_555
O12_2 Cd3B 1_555 1_555
O12B_2 Cd3 1_555 1_555
O13_2 Cd3B 1_555 1_555
O13B_2 Cd3 1_555 1_555
Cd3 O3_2 1_555 1_555
O8 Cd2_2 1_555 1_555
O10 Cd3C 1_555 1_555
C6 C14 1_555 1_555
C7 C13 1_555 1_555
C8 C21 1_555 1_555
C11 C34 1_555 1_555
C12 C28 1_555 1_555
C15 C24 1_555 1_555
C20 C29 1_555 1_555
C23 C24 1_555 1_555
C26 C31 1_555 1_555
C30 C32 1_555 1_555
O13 Cd3B_2 1_555 1_555
C37 C39 1_555 1_555
C40 C41 1_555 1_555
Cd2B O1B 1_555 1_555
Cd3B O3B_2 1_555 1_555
O4B C21B 1_555 1_555
O5B C14B 1_555 1_555
O8B Cd2B_2 1_555 1_555
O10B Cd3A 1_555 1_555
C6B C14B 1_555 1_555
C7B C13B 1_555 1_555
C8B C21B 1_555 1_555
C11B C34B 1_555 1_555
C12B C28B 1_555 1_555
C15B C24B 1_555 1_555
C20B C29B 1_555 1_555
C23B C24B 1_555 1_555
C26B C31B 1_555 1_555
C30B C32B 1_555 1_555
O13B Cd3_3 1_555 1_555
C37B C39B 1_555 1_555
C40B C41B 1_555 1_555

#END
