
#######################################################################
#
#                 Cambridge Crystallographic Data Centre
#                                CCDC 
#
#######################################################################
#
# If this CIF has been generated from an entry in the Cambridge 
# Structural Database, then it will include bibliographic, chemical, 
# crystal, experimental, refinement or atomic coordinate data resulting 
# from the CCDC's data processing and validation procedures.
#
#######################################################################

data_UDEPIE
_chemical_formula_moiety         '(C10 H6 N3 O5 Pb1)n'
_symmetry_cell_setting           tetragonal
_symmetry_space_group_name_H-M   'I 41/a'
_symmetry_Int_Tables_number      88
_space_group_name_Hall           '-I 4ad'
loop_
_symmetry_equiv_pos_site_id
_symmetry_equiv_pos_as_xyz
1 x,y,z
2 3/4-y,1/4+x,1/4+z
3 1/2-x,-y,1/2+z
4 3/4+y,3/4-x,3/4+z
5 1/2+x,1/2+y,1/2+z
6 1/4-y,3/4+x,3/4+z
7 -x,1/2-y,z
8 1/4+y,1/4-x,1/4+z
9 -x,-y,-z
10 1/4+y,3/4-x,3/4-z
11 1/2+x,y,1/2-z
12 1/4-y,1/4+x,1/4-z
13 1/2-x,1/2-y,1/2-z
14 3/4+y,1/4-x,1/4-z
15 x,1/2+y,-z
16 3/4-y,3/4+x,3/4-z
_cell_length_a                   17.262(8)
_cell_length_b                   17.262(8)
_cell_length_c                   21.956(10)
_cell_angle_alpha                90
_cell_angle_beta                 90
_cell_angle_gamma                90
_cell_volume                     6542.38
loop_
_atom_site_label
_atom_site_type_symbol
_atom_site_fract_x
_atom_site_fract_y
_atom_site_fract_z
_atom_site_U_iso_or_equiv
_atom_site_thermal_displace_type
Pb1 Pb 0.42030(2) 1.095219(19) 0.426282(15) 0.0396 Uani
C1 C 0.4131(8) 0.9026(6) 0.4190(5) 0.0603 Uani
C2 C 0.3933(6) 0.9092(5) 0.4843(4) 0.0437 Uani
C3 C 0.3804(6) 0.8511(5) 0.5263(4) 0.0393 Uani
C4 C 0.3687(5) 0.9612(5) 0.5697(4) 0.0357 Uani
C5 C 0.3866(6) 0.7663(6) 0.5259(5) 0.0507 Uani
C6 C 0.3563(6) 1.0145(6) 0.6199(4) 0.0450 Uani
C7 C 0.3672(10) 1.0933(7) 0.6146(5) 0.0763 Uani
H1 H 0.3796 1.1158 0.5773 0.0910 Uiso
C8 C 0.3587(13) 1.1390(8) 0.6682(7) 0.1140 Uani
H2 H 0.3647 1.1925 0.6667 0.1370 Uiso
C9 C 0.3414(13) 1.1026(9) 0.7224(6) 0.1123 Uani
H3 H 0.3368 1.1312 0.7581 0.1350 Uiso
C10 C 0.3310(10) 1.0242(8) 0.7233(6) 0.0830 Uani
H4 H 0.3178 1.0010 0.7601 0.0990 Uiso
N1 N 0.3863(5) 0.9784(4) 0.5114(3) 0.0450 Uani
N2 N 0.3637(4) 0.8856(4) 0.5803(3) 0.0367 Uani
N3 N 0.3385(6) 0.9795(5) 0.6749(4) 0.0510 Uani
O1 O 0.4209(6) 0.9594(4) 0.3873(3) 0.0753 Uani
O2 O 0.4221(7) 0.8326(4) 0.3971(4) 0.0843 Uani
O3 O 0.4033(6) 0.7323(4) 0.4775(3) 0.0723 Uani
O4 O 0.3756(5) 0.7333(4) 0.5764(3) 0.0637 Uani
Pb1G Pb 0.345219(19) 0.82970(2) 0.676282(15) 0.0396 Uani
Pb1N Pb 0.42030(2) 0.595219(19) 0.573718(15) 0.0396 Uani
N2E N 0.3644(4) 1.1137(4) 0.3303(3) 0.0367 Uani
N3E N 0.2705(5) 1.0885(6) 0.4249(4) 0.0510 Uani
O4E O 0.5167(4) 1.1256(5) 0.3264(3) 0.0637 Uani
O4N O 0.3756(5) 1.2333(4) 0.4236(3) 0.0637 Uani
O5 O 0.4217(19) 0.9092(18) 0.2140(17) 0.3233 Uani
loop_
_atom_site_aniso_label
_atom_site_aniso_U_11
_atom_site_aniso_U_22
_atom_site_aniso_U_33
_atom_site_aniso_U_23
_atom_site_aniso_U_13
_atom_site_aniso_U_12
Pb1 0.0463(3) 0.0354(2) 0.0370(3) 0.00293(14) -0.00700(14) 0.00056(14)
C1 0.104(10) 0.041(6) 0.036(6) -0.005(5) 0.004(6) 0.003(6)
C2 0.062(6) 0.038(5) 0.031(5) -0.006(4) -0.002(4) 0.004(4)
C3 0.052(6) 0.036(5) 0.030(5) -0.003(4) -0.004(4) -0.001(4)
C4 0.045(5) 0.029(4) 0.033(5) -0.005(3) -0.004(4) -0.001(4)
C5 0.068(7) 0.037(5) 0.047(6) 0.003(4) 0.006(5) -0.007(5)
C6 0.057(6) 0.047(5) 0.031(5) -0.006(4) -0.002(4) 0.002(4)
C7 0.144(13) 0.046(6) 0.039(6) -0.005(5) 0.010(7) 0.001(7)
C8 0.24(2) 0.039(7) 0.063(9) -0.013(6) 0.009(11) -0.018(10)
C9 0.23(2) 0.067(9) 0.040(7) -0.014(6) 0.022(10) -0.002(11)
C10 0.130(13) 0.082(10) 0.037(7) 0.000(6) 0.012(7) -0.006(9)
N1 0.074(6) 0.031(4) 0.030(4) 0.002(3) 0.000(4) -0.001(4)
N2 0.036(4) 0.037(4) 0.037(4) 0.002(3) 0.001(3) 0.002(3)
N3 0.071(6) 0.047(5) 0.035(4) 0.006(4) 0.002(4) 0.008(4)
O1 0.155(9) 0.043(4) 0.028(4) -0.002(3) 0.012(4) 0.004(5)
O2 0.165(10) 0.042(4) 0.046(5) -0.005(4) 0.018(5) 0.016(5)
O3 0.130(8) 0.039(4) 0.048(5) -0.011(3) 0.009(5) -0.003(4)
O4 0.101(7) 0.033(4) 0.057(5) 0.009(3) 0.024(4) -0.001(4)
Pb1G 0.0354 0.0463 0.037 0.007 0.00293 -0.00056
Pb1N 0.0463 0.0354 0.037 -0.00293 0.007 0.00056
N2E 0.037 0.036 0.037 0.001 -0.002 -0.002
N3E 0.047 0.071 0.035 0.002 -0.006 -0.008
O4E 0.033 0.101 0.057 0.024 -0.009 0.001
O4N 0.101 0.033 0.057 -0.009 -0.024 -0.001
O5 0.32(2) 0.32(2) 0.33(2) -0.005(17) 0.023(17) 0.047(16)
loop_
_geom_bond_atom_site_label_1
_geom_bond_atom_site_label_2
_geom_bond_site_symmetry_1
_geom_bond_site_symmetry_2
Pb1 N1 1_555 1_555
C1 C2 1_555 1_555
C2 C3 1_555 1_555
C3 C5 1_555 1_555
C4 C6 1_555 1_555
C5 O3 1_555 1_555
C6 C7 1_555 1_555
C7 H1 1_555 1_555
C8 C7 1_555 1_555
H2 C8 1_555 1_555
C9 C8 1_555 1_555
H3 C9 1_555 1_555
C10 C9 1_555 1_555
H4 C10 1_555 1_555
N1 C2 1_555 1_555
N2 C3 1_555 1_555
N3 C6 1_555 1_555
O1 Pb1 1_555 1_555
O2 C1 1_555 1_555
O4 C5 1_555 1_555
Pb1G N2 1_555 1_555
Pb1N O4 1_555 1_555
N2E Pb1 1_555 1_555
N3E Pb1 1_555 1_555
O4E Pb1 1_555 1_555
O4N Pb1 1_555 1_555
C1 O1 1_555 1_555
C4 N1 1_555 1_555
C4 N2 1_555 1_555
C10 N3 1_555 1_555
N3 Pb1G 1_555 1_555
O4 Pb1G 1_555 1_555

#END
