
#######################################################################
#
#                 Cambridge Crystallographic Data Centre
#                                CCDC 
#
#######################################################################
#
# If this CIF has been generated from an entry in the Cambridge 
# Structural Database, then it will include bibliographic, chemical, 
# crystal, experimental, refinement or atomic coordinate data resulting 
# from the CCDC's data processing and validation procedures.
#
#######################################################################

data_BEPVID
_chemical_formula_moiety         '(C24 H31 Cu3 N8 O2)n'
_symmetry_cell_setting           triclinic
_symmetry_space_group_name_H-M   'P -1'
_symmetry_Int_Tables_number      2
_space_group_name_Hall           '-P 1'
loop_
_symmetry_equiv_pos_site_id
_symmetry_equiv_pos_as_xyz
1 x,y,z
2 -x,-y,-z
_cell_length_a                   11.4723(7)
_cell_length_b                   11.4569(7)
_cell_length_c                   13.1199(8)
_cell_angle_alpha                64.295(6)
_cell_angle_beta                 89.824(5)
_cell_angle_gamma                110.147(6)
_cell_volume                     1434.83
loop_
_atom_site_label
_atom_site_type_symbol
_atom_site_fract_x
_atom_site_fract_y
_atom_site_fract_z
O1 O 1.1509(5) -0.2237(5) 0.8757(3)
N1 N 0.78041(15) 0.76990(15) 0.10310(12)
C1 C 0.5973(3) 0.4840(3) 0.3816(2)
H1 H 0.6607 0.4449 0.4010
H2 H 0.5215 0.4154 0.3796
H3 H 0.5799 0.5103 0.4384
Cu1 Cu 0.12028(2) 1.17083(2) 0.591077(17)
N2 N 0.75726(16) 0.65518(16) 0.20503(12)
H4 H 0.8099 0.6151 0.2281
C2 C 0.6435(2) 0.6106(2) 0.26627(16)
Cu2 Cu -0.04955(2) 0.86103(2) 1.004737(18)
N3 N 0.34412(14) 0.78515(13) 0.31273(11)
C3 C 0.58778(19) 0.69935(19) 0.20138(15)
Cu3 Cu 0.18393(2) 0.64504(2) 1.295807(17)
N4 N 0.12711(15) 0.90003(14) 0.63048(13)
H5 H 0.1051 0.8710 0.7027
C4 C 0.6767(2) 0.79754(19) 0.10029(17)
N5 N 0.15077(15) 1.03225(14) 0.54874(12)
C5 C 0.6676(3) 0.9214(2) -0.0011(2)
H6 H 0.7141 1.0056 0.0040
H7 H 0.5807 0.9100 -0.0011
H8 H 0.7022 0.9278 -0.0709
C6 C 0.4608(2) 0.6967(2) 0.23284(18)
H9 H 0.4067 0.6008 0.2860
H10 H 0.4240 0.7243 0.1639
N6 N 0.05570(18) 1.05242(16) 0.75345(12)
C7 C 0.45985(18) 0.78941(18) 0.28651(15)
N7 N 0.03235(16) 0.74494(16) 1.11408(13)
C8 C 0.5648(2) 0.8695(2) 0.3096(2)
H11 H 0.6437 0.8708 0.2913
N8 N 0.16642(18) 0.46710(16) 1.41946(14)
C9 C 0.5518(2) 0.9487(2) 0.3604(2)
H12 H 0.6221 1.0034 0.3772
C10 C 0.4350(2) 0.9461(2) 0.3859(2)
H13 H 0.4254 0.9999 0.4192
C11 C 0.33179(19) 0.86310(18) 0.36168(16)
C12 C 0.1995(2) 0.8548(2) 0.38385(18)
H14 H 0.1802 0.9123 0.3116
H15 H 0.1415 0.7587 0.4098
C13 C 0.1235(3) 0.6676(2) 0.6613(2)
H16 H 0.1658 0.6602 0.7255
H17 H 0.1579 0.6351 0.6169
H18 H 0.0350 0.6113 0.6889
C14 C 0.1418(2) 0.81948(19) 0.58654(18)
C15 C 0.17551(18) 0.90046(18) 0.47059(17)
C16 C 0.18030(18) 1.03329(18) 0.44991(15)
C17 C 0.2139(2) 1.1638(2) 0.33917(16)
H19 H 0.1932 1.2318 0.3511
H20 H 0.1676 1.1430 0.2843
H21 H 0.3028 1.2008 0.3106
C18 C 0.0145(2) 0.98338(19) 0.84877(15)
C19 C 0.09003(18) 0.70382(17) 1.18121(14)
C20 C 0.1515(2) 0.35645(18) 1.48797(15)
N1_2 N -0.21959(15) 0.76990(15) 1.10310(12)
Cu1_2 Cu 0.12028(2) 0.17083(2) 1.591077(17)
Cu2_2 Cu 0.95045(2) 0.86103(2) 0.004737(18)
N3_2 N 0.34412(14) 0.78515(13) 1.31273(11)
Cu3_2 Cu 0.18393(2) 0.64504(2) 0.295807(17)
C20_2 C 0.1515(2) 1.35645(18) 0.48797(15)
O2 O 1.2498(4) -0.3475(4) 0.9624(4)
C21 C 1.1990(4) -0.5028(5) 1.0364(6)
H22 H 1.1516 -0.5299 1.1098
H23 H 1.1459 -0.5518 0.9986
C22 C 1.3157(4) -0.5293(5) 1.0502(4)
H24 H 1.3017 -0.6217 1.0585
H25 H 1.3457 -0.5238 1.1177
C23 C 1.4079(4) -0.4200(6) 0.9455(5)
H26 H 1.4807 -0.3641 0.9645
H27 H 1.4362 -0.4618 0.9051
C24 C 1.3431(5) -0.3344(5) 0.8756(3)
H28 H 1.3016 -0.3698 0.8247
H29 H 1.4008 -0.2377 0.8301
loop_
_geom_bond_atom_site_label_1
_geom_bond_atom_site_label_2
_geom_bond_site_symmetry_1
_geom_bond_site_symmetry_2
N1 N2 1_555 1_555
C1 H1 1_555 1_555
H2 C1 1_555 1_555
H3 C1 1_555 1_555
Cu1 N5 1_555 1_555
N2 H4 1_555 1_555
C2 C1 1_555 1_555
Cu2 N7 1_555 1_555
N3 C7 1_555 1_555
C3 C2 1_555 1_555
Cu3 N8 1_555 1_555
N4 H5 1_555 1_555
C4 N1 1_555 1_555
N5 N4 1_555 1_555
C5 C4 1_555 1_555
H6 C5 1_555 1_555
H7 C5 1_555 1_555
H8 C5 1_555 1_555
C6 C3 1_555 1_555
H9 C6 1_555 1_555
H10 C6 1_555 1_555
N6 Cu1 1_555 1_555
C7 C6 1_555 1_555
N7 C19 1_555 1_555
C8 C7 1_555 1_555
H11 C8 1_555 1_555
N8 C20 1_555 1_555
C9 C8 1_555 1_555
H12 C9 1_555 1_555
C10 C9 1_555 1_555
H13 C10 1_555 1_555
C11 N3 1_555 1_555
C12 C11 1_555 1_555
H14 C12 1_555 1_555
H15 C12 1_555 1_555
C13 H16 1_555 1_555
H17 C13 1_555 1_555
H18 C13 1_555 1_555
C14 N4 1_555 1_555
C15 C12 1_555 1_555
C16 N5 1_555 1_555
C17 C16 1_555 1_555
H19 C17 1_555 1_555
H20 C17 1_555 1_555
H21 C17 1_555 1_555
C18 Cu2 1_555 1_555
C19 Cu3 1_555 1_555
C20 Cu1_2 1_555 1_555
O2 C21 1_555 1_555
C21 H22 1_555 1_555
H23 C21 1_555 1_555
C22 C21 1_555 1_555
H24 C22 1_555 1_555
H25 C22 1_555 1_555
C23 C22 1_555 1_555
H26 C23 1_555 1_555
H27 C23 1_555 1_555
C24 O2 1_555 1_555
H28 C24 1_555 1_555
H29 C24 1_555 1_555
N1_2 Cu2 1_555 1_555
Cu2_2 N1 1_555 1_555
N3_2 Cu3 1_555 1_555
Cu3_2 N3 1_555 1_555
C20_2 Cu1 1_555 1_555
N2 C2 1_555 1_555
C3 C4 1_555 1_555
N6 C18 1_555 1_555
C10 C11 1_555 1_555
C13 C14 1_555 1_555
C14 C15 1_555 1_555
C15 C16 1_555 1_555
C23 C24 1_555 1_555

#END
