
#######################################################################
#
#                 Cambridge Crystallographic Data Centre
#                                CCDC 
#
#######################################################################
#
# If this CIF has been generated from an entry in the Cambridge 
# Structural Database, then it will include bibliographic, chemical, 
# crystal, experimental, refinement or atomic coordinate data resulting 
# from the CCDC's data processing and validation procedures.
#
#######################################################################

data_JAVWUY
_chemical_formula_moiety         'C48 H75 Ag7 F12 N1 O12 S19'
_symmetry_cell_setting           orthorhombic
_symmetry_space_group_name_H-M   'P 21 21 21'
_symmetry_Int_Tables_number      19
_space_group_name_Hall           'P 2ac 2ab'
loop_
_symmetry_equiv_pos_site_id
_symmetry_equiv_pos_as_xyz
1 x,y,z
2 1/2+x,1/2-y,-z
3 -x,1/2+y,1/2-z
4 1/2-x,-y,1/2+z
_cell_length_a                   8.601(1)
_cell_length_b                   14.224(3)
_cell_length_c                   16.098(2)
_cell_angle_alpha                90
_cell_angle_beta                 90
_cell_angle_gamma                90
_cell_volume                     1969.44
loop_
_atom_site_label
_atom_site_type_symbol
_atom_site_fract_x
_atom_site_fract_y
_atom_site_fract_z
C11 C 0.2135(13) 0.1915(9) 0.2204(6)
C12 C 0.2374(12) 0.0915(8) 0.2282(7)
N1 N 0.1944(16) 0.2678(8) 0.2129(7)
H19 H 0.1311 0.0623 0.2454
H20 H 0.2486 0.0327 0.1717
H21 H 0.3029 0.0716 0.2844
Ag1 Ag 0.05855(6) 0.56958(3) 0.62550(3)
S1 S -0.1101(2) 0.7038(1) 0.6606(1)
S2 S 0.2689(2) 0.4718(1) 0.6853(1)
S3 S 0.1702(2) 0.5885(1) 0.47491(9)
S4 S -0.2129(2) 0.4351(1) 0.4969(1)
F1 F -0.4204(8) 0.3436(5) 0.5802(4)
F2 F -0.4094(8) 0.3044(5) 0.4568(4)
F3 F -0.2368(10) 0.2623(5) 0.5400(8)
O1 O -0.1366(9) 0.4555(5) 0.5730(4)
O2 O -0.1141(8) 0.4084(6) 0.4314(5)
O3 O -0.3289(10) 0.5011(5) 0.4731(6)
C1 C -0.2117(10) 0.6891(5) 0.7596(4)
C2 C -0.2947(9) 0.7778(5) 0.7859(5)
C3 C 0.1800(8) 0.3555(5) 0.6940(4)
C4 C 0.3160(9) 0.5010(5) 0.7923(4)
C5 C 0.1802(9) 0.5136(5) 0.8507(4)
C6 C 0.2635(9) 0.4806(6) 0.4401(4)
C7 C 0.3351(8) 0.6629(5) 0.4974(4)
C8 C 0.2863(9) 0.7650(6) 0.4972(5)
C9 C -0.2694(8) 0.6984(5) 0.5866(5)
C10 C -0.3199(10) 0.3310(6) 0.5210(6)
H1 H -0.2807 0.6330 0.7429
H2 H -0.1425 0.6680 0.8106
H3 H -0.3607 0.7936 0.7354
H4 H -0.3866 0.7746 0.8239
H5 H 0.1550 0.3420 0.6262
H6 H 0.0829 0.3575 0.7354
H7 H 0.3646 0.5661 0.7825
H8 H 0.3836 0.4500 0.8081
H9 H 0.1100 0.4484 0.8433
H10 H 0.1318 0.5770 0.8513
H11 H 0.1718 0.4320 0.4342
H12 H 0.3393 0.4741 0.4692
H13 H 0.4171 0.6405 0.5529
H14 H 0.4239 0.6536 0.4527
H15 H 0.2061 0.7907 0.5319
H16 H 0.3875 0.7995 0.5029
H17 H -0.2993 0.6298 0.5758
H18 H -0.3589 0.7316 0.6054
C3B C -0.1800(8) 0.8555(5) 0.8060(4)
C2B C 0.2947(9) 0.2778(5) 0.7141(5)
C6C C 0.2365(9) 0.5194(6) 0.9401(4)
C5C C 0.3198(9) 0.4864(5) 0.3507(4)
C9A C 0.2306(8) 0.8016(5) 0.4134(5)
C8A C -0.2137(9) 0.7350(6) 0.5028(5)
S2B S -0.2689(2) 0.9718(1) 0.8147(1)
H5B H -0.1550 0.8420 0.8738
H6B H -0.0829 0.8575 0.7646
C1B C 0.2117(10) 0.1891(5) 0.7404(4)
H3B H 0.3607 0.2936 0.7646
H4B H 0.3866 0.2746 0.6761
S3C S 0.3298(2) 0.4115(1) 0.97491(9)
H11C H 0.3282 0.5680 0.9342
H12C H 0.1607 0.5259 0.9692
C4C C 0.1840(9) 0.4990(5) 0.2923(4)
H9C H 0.3900 0.5516 0.3433
H10C H 0.3682 0.4230 0.3513
S1A S 0.3899(2) 0.7962(1) 0.3394(1)
H17A H 0.2007 0.8702 0.4242
H18A H 0.1411 0.7684 0.3946
C7A C -0.1649(8) 0.8371(5) 0.5026(4)
H15A H -0.2939 0.7093 0.4681
H16A H -0.1125 0.7005 0.4971
Ag1B Ag -0.05855(6) 1.06958(3) 0.87450(3)
C4B C -0.3160(9) 1.0010(5) 0.7077(4)
S1B S 0.1101(2) 0.2038(1) 0.8394(1)
H1B H 0.2807 0.1330 0.7571
H2B H 0.1425 0.1680 0.6894
Ag1C Ag 0.44145(6) 0.43042(3) 1.12550(3)
C7C C 0.1649(8) 0.3371(5) 0.9974(4)
S2C S 0.2311(2) 0.5282(1) 0.1853(1)
H7C H 0.1354 0.4339 0.2825
H8C H 0.1164 0.5500 0.3081
Ag1A Ag 0.55855(6) 0.93042(3) 0.37450(3)
C1A C 0.2883(10) 0.8109(5) 0.2404(4)
S3A S -0.3298(2) 0.9115(1) 0.52509(9)
H13A H -0.0829 0.8595 0.4471
H14A H -0.0761 0.8464 0.5473
S1B_2 S 0.1101(2) 1.2038(1) 0.8394(1)
S3B S -0.1702(2) 1.0885(1) 1.02509(9)
O1B O 0.1366(9) 0.9555(5) 0.9270(4)
C5B C -0.1802(9) 1.0136(5) 0.6493(4)
H7B H -0.3646 1.0661 0.7175
H8B H -0.3836 0.9500 0.6919
Ag1B_2 Ag -0.05855(6) 0.06958(3) 0.87450(3)
C9B C 0.2694(8) 0.1984(5) 0.9134(5)
S1C S 0.6101(2) 0.2962(1) 1.1606(1)
S2C_2 S 0.2311(2) 0.5282(1) 1.1853(1)
O1C O 0.6366(9) 0.5445(5) 1.0730(4)
C8C C 0.2137(9) 0.2350(6) 0.9972(5)
H13C H 0.0829 0.3595 1.0529
H14C H 0.0761 0.3464 0.9527
Ag1C_2 Ag 0.44145(6) 0.43042(3) 0.12550(3)
C3C C 0.3200(8) 0.6445(5) 0.1940(4)
S2A S 0.7689(2) 1.0282(1) 0.3147(1)
S3A_2 S 0.6702(2) 0.9115(1) 0.52509(9)
O1A O 0.3634(9) 1.0445(5) 0.4270(4)
C2A C 0.2053(9) 0.7222(5) 0.2141(5)
H1A H 0.2193 0.8670 0.2571
H2A H 0.3575 0.8320 0.1894
Ag1A_2 Ag -0.44145(6) 0.93042(3) 0.37450(3)
C6A C -0.2365(9) 1.0194(6) 0.5599(4)
C6B C -0.2635(9) 0.9806(6) 1.0599(4)
C7B C -0.3351(8) 1.1629(5) 1.0026(4)
S4B S 0.2129(2) 0.9351(1) 1.0031(1)
H9B H -0.1100 0.9484 0.6567
H10B H -0.1318 1.0770 0.6487
H17B H 0.2993 0.1298 0.9242
H18B H 0.3589 0.2316 0.8946
C1C C 0.7117(10) 0.3109(5) 1.2596(4)
C9C C 0.7694(8) 0.3016(5) 1.0866(5)
S4C S 0.7129(2) 0.5649(1) 0.9969(1)
H15C H 0.2939 0.2093 1.0319
H16C H 0.1125 0.2005 1.0029
H5C H 0.3450 0.6580 0.1262
H6C H 0.4171 0.6425 0.2354
C3A C 0.6800(8) 1.1445(5) 0.3060(4)
C4A C 0.8160(9) 0.9990(5) 0.2077(4)
S4A S 0.2871(2) 1.0649(1) 0.5031(1)
H3A H 0.1393 0.7064 0.2646
H4A H 0.1134 0.7254 0.1761
H11A H -0.3282 1.0680 0.5658
H12A H -0.1607 1.0259 0.5308
C5A C -0.3198(9) 0.9864(5) 1.1493(4)
H11B H -0.1718 0.9320 1.0658
H12B H -0.3393 0.9741 1.0308
C8B C -0.2863(9) 1.2650(6) 1.0028(5)
H13B H -0.4171 1.1405 0.9471
H14B H -0.4239 1.1536 1.0473
O2B O 0.1141(8) 0.9084(6) 1.0686(5)
O3B O 0.3289(10) 1.0011(5) 1.0269(6)
C10B C 0.3199(10) 0.8310(6) 0.9790(6)
C2C C 0.7947(9) 0.2222(5) 1.2859(5)
H1C H 0.7807 0.3670 1.2429
H2C H 0.6425 0.3320 1.3106
C8B_2 C 0.7137(9) 0.2650(6) 1.0028(5)
H17C H 0.7993 0.3702 1.0758
H18C H 0.8589 0.2684 1.1054
O2C O 0.6141(8) 0.5916(6) 0.9314(5)
O3C O 0.8289(10) 0.4989(5) 0.9731(6)
C10C C 0.8199(10) 0.6690(6) 1.0210(6)
C2C_2 C 0.7947(9) 1.2222(5) 0.2859(5)
H5A H 0.6550 1.1580 0.3738
H6A H 0.5829 1.1425 0.2646
C5A_2 C 0.6802(9) 0.9864(5) 0.1493(4)
H7A H 0.8646 0.9339 0.2175
H8A H 0.8836 1.0500 0.1919
O2A O 0.3859(8) 1.0916(6) 0.5686(5)
O3A O 0.1711(10) 0.9989(5) 0.5269(6)
C10A C 0.1801(10) 1.1690(6) 0.4790(6)
C4A_2 C -0.1840(9) 0.9990(5) 1.2077(4)
H9A H -0.3900 1.0516 1.1567
H10A H -0.3682 0.9230 1.1487
C9C_2 C -0.2306(8) 1.3016(5) 1.0866(5)
H15B H -0.2061 1.2907 0.9681
H16B H -0.3875 1.2995 0.9971
F1B F 0.4204(8) 0.8436(5) 0.9198(4)
F2B F 0.4094(8) 0.8044(5) 1.0432(4)
F3B F 0.2368(10) 0.7623(5) 0.9600(8)
C3A_2 C 0.6800(8) 0.1445(5) 1.3060(4)
H3C H 0.8607 0.2064 1.2354
H4C H 0.8866 0.2254 1.3239
F1C F 0.9204(8) 0.6564(5) 1.0802(4)
F2C F 0.9094(8) 0.6956(5) 0.9568(4)
F3C F 0.7368(10) 0.7377(5) 1.0400(8)
F1A F 0.0796(8) 1.1564(5) 0.4198(4)
F2A F 0.0906(8) 1.1956(5) 0.5432(4)
F3A F 0.2632(10) 1.2377(5) 0.4600(8)
loop_
_geom_bond_atom_site_label_1
_geom_bond_atom_site_label_2
_geom_bond_site_symmetry_1
_geom_bond_site_symmetry_2
Ag1 S1 1_555 1_555
S1 C1 1_555 1_555
S2 Ag1 1_555 1_555
S3 Ag1 1_555 1_555
S4 O1 1_555 1_555
F1 C10 1_555 1_555
F2 C10 1_555 1_555
F3 C10 1_555 1_555
O1 Ag1 1_555 1_555
O2 S4 1_555 1_555
O3 S4 1_555 1_555
C1 C2 1_555 1_555
C2 H3 1_555 1_555
C3 S2 1_555 1_555
C4 S2 1_555 1_555
C5 C4 1_555 1_555
C6 S3 1_555 1_555
C7 S3 1_555 1_555
C8 C7 1_555 1_555
C9 S1 1_555 1_555
C10 S4 1_555 1_555
C11 C12 1_555 1_555
C12 H19 1_555 1_555
N1 C11 1_555 1_555
H1 C1 1_555 1_555
H2 C1 1_555 1_555
H4 C2 1_555 1_555
H5 C3 1_555 1_555
H6 C3 1_555 1_555
H7 C4 1_555 1_555
H8 C4 1_555 1_555
H9 C5 1_555 1_555
H10 C5 1_555 1_555
H11 C6 1_555 1_555
H12 C6 1_555 1_555
H13 C7 1_555 1_555
H14 C7 1_555 1_555
H15 C8 1_555 1_555
H16 C8 1_555 1_555
H17 C9 1_555 1_555
H18 C9 1_555 1_555
H20 C12 1_555 1_555
H21 C12 1_555 1_555
C3B C2 1_555 1_555
C2B C3 1_555 1_555
C6C C5 1_555 1_555
C5C C6 1_555 1_555
C9A C8 1_555 1_555
C8A C9 1_555 1_555
S2B C3B 1_555 1_555
H5B C3B 1_555 1_555
H6B C3B 1_555 1_555
C1B C2B 1_555 1_555
H3B C2B 1_555 1_555
H4B C2B 1_555 1_555
S3C C6C 1_555 1_555
H11C C6C 1_555 1_555
H12C C6C 1_555 1_555
C4C C5C 1_555 1_555
H9C C5C 1_555 1_555
H10C C5C 1_555 1_555
S1A C9A 1_555 1_555
H17A C9A 1_555 1_555
H18A C9A 1_555 1_555
C7A C8A 1_555 1_555
H15A C8A 1_555 1_555
H16A C8A 1_555 1_555
Ag1B S2B 1_555 1_555
C4B S2B 1_555 1_555
S1B C1B 1_555 1_555
H1B C1B 1_555 1_555
H2B C1B 1_555 1_555
Ag1C S3C 1_555 1_555
C7C S3C 1_555 1_555
S2C C4C 1_555 1_555
H7C C4C 1_555 1_555
H8C C4C 1_555 1_555
Ag1A S1A 1_555 1_555
C1A S1A 1_555 1_555
S3A C7A 1_555 1_555
H13A C7A 1_555 1_555
H14A C7A 1_555 1_555
S1B_2 Ag1B 1_555 1_555
S3B Ag1B 1_555 1_555
O1B Ag1B 1_555 1_555
C5B C4B 1_555 1_555
H7B C4B 1_555 1_555
H8B C4B 1_555 1_555
Ag1B_2 S1B 1_555 1_555
C9B S1B 1_555 1_555
S1C Ag1C 1_555 1_555
S2C_2 Ag1C 1_555 1_555
O1C Ag1C 1_555 1_555
C8C C7C 1_555 1_555
H13C C7C 1_555 1_555
H14C C7C 1_555 1_555
Ag1C_2 S2C 1_555 1_555
C3C S2C 1_555 1_555
S2A Ag1A 1_555 1_555
S3A_2 Ag1A 1_555 1_555
O1A Ag1A 1_555 1_555
C2A C1A 1_555 1_555
H1A C1A 1_555 1_555
H2A C1A 1_555 1_555
Ag1A_2 S3A 1_555 1_555
C6A S3A 1_555 1_555
C6B S3B 1_555 1_555
C7B S3B 1_555 1_555
S4B O1B 1_555 1_555
H9B C5B 1_555 1_555
H10B C5B 1_555 1_555
H17B C9B 1_555 1_555
H18B C9B 1_555 1_555
C1C S1C 1_555 1_555
C9C S1C 1_555 1_555
S4C O1C 1_555 1_555
H15C C8C 1_555 1_555
H16C C8C 1_555 1_555
H5C C3C 1_555 1_555
H6C C3C 1_555 1_555
C3A S2A 1_555 1_555
C4A S2A 1_555 1_555
S4A O1A 1_555 1_555
H3A C2A 1_555 1_555
H4A C2A 1_555 1_555
H11A C6A 1_555 1_555
H12A C6A 1_555 1_555
C5A C6B 1_555 1_555
H11B C6B 1_555 1_555
H12B C6B 1_555 1_555
C8B C7B 1_555 1_555
H13B C7B 1_555 1_555
H14B C7B 1_555 1_555
O2B S4B 1_555 1_555
O3B S4B 1_555 1_555
C10B S4B 1_555 1_555
C2C C1C 1_555 1_555
H1C C1C 1_555 1_555
H2C C1C 1_555 1_555
C8B_2 C9C 1_555 1_555
H17C C9C 1_555 1_555
H18C C9C 1_555 1_555
O2C S4C 1_555 1_555
O3C S4C 1_555 1_555
C10C S4C 1_555 1_555
C2C_2 C3A 1_555 1_555
H5A C3A 1_555 1_555
H6A C3A 1_555 1_555
C5A_2 C4A 1_555 1_555
H7A C4A 1_555 1_555
H8A C4A 1_555 1_555
O2A S4A 1_555 1_555
O3A S4A 1_555 1_555
C10A S4A 1_555 1_555
C4A_2 C5A 1_555 1_555
H9A C5A 1_555 1_555
H10A C5A 1_555 1_555
C9C_2 C8B 1_555 1_555
H15B C8B 1_555 1_555
H16B C8B 1_555 1_555
F1B C10B 1_555 1_555
F2B C10B 1_555 1_555
F3B C10B 1_555 1_555
C3A_2 C2C 1_555 1_555
H3C C2C 1_555 1_555
H4C C2C 1_555 1_555
F1C C10C 1_555 1_555
F2C C10C 1_555 1_555
F3C C10C 1_555 1_555
F1A C10A 1_555 1_555
F2A C10A 1_555 1_555
F3A C10A 1_555 1_555
C5B C6A 1_555 1_555
C9B C8C 1_555 1_555
C3C C2A 1_555 1_555

#END
