
#######################################################################
#
#                 Cambridge Crystallographic Data Centre
#                                CCDC 
#
#######################################################################
#
# If this CIF has been generated from an entry in the Cambridge 
# Structural Database, then it will include bibliographic, chemical, 
# crystal, experimental, refinement or atomic coordinate data resulting 
# from the CCDC's data processing and validation procedures.
#
#######################################################################

data_ERIGER
_chemical_formula_moiety         '(C31 H30 Ag2 F3 N12 O5 S1 1+)n'
_symmetry_cell_setting           rhombohedral
_symmetry_space_group_name_H-M   'R -3'
_symmetry_Int_Tables_number      148
_space_group_name_Hall           '-R 3'
loop_
_symmetry_equiv_pos_site_id
_symmetry_equiv_pos_as_xyz
1 x,y,z
2 -y,x-y,z
3 -x+y,-x,z
4 2/3+x,1/3+y,1/3+z
5 2/3-y,1/3+x-y,1/3+z
6 2/3-x+y,1/3-x,1/3+z
7 1/3+x,2/3+y,2/3+z
8 2/3+y,1/3-x+y,1/3-z
9 2/3+x-y,1/3+x,1/3-z
10 -x,-y,-z
11 y,-x+y,-z
12 x-y,x,-z
13 1/3-x,2/3-y,2/3-z
14 1/3+y,2/3-x+y,2/3-z
15 1/3+x-y,2/3+x,2/3-z
16 2/3-x,1/3-y,1/3-z
17 1/3-y,2/3+x-y,2/3+z
18 1/3-x+y,2/3-x,2/3+z
_cell_length_a                   29.9011(10)
_cell_length_b                   29.9011(10)
_cell_length_c                   11.7415(6)
_cell_angle_alpha                90
_cell_angle_beta                 90
_cell_angle_gamma                120.00
_cell_volume                     9091.35
loop_
_atom_site_label
_atom_site_type_symbol
_atom_site_fract_x
_atom_site_fract_y
_atom_site_fract_z
_atom_site_U_iso_or_equiv
_atom_site_thermal_displace_type
Ag1 Ag 0.074854(10) 0.722462(10) 0.57835(2) 0.0331 Uani
C1 C 0.10099(11) 0.64835(11) 0.3886(2) 0.0242 Uani
C2 C 0.11554(12) 0.61963(12) 0.3005(2) 0.0286 Uani
H1 H 0.1449 0.6449 0.2537 0.0340 Uiso
H2 H 0.1264 0.5974 0.3403 0.0340 Uiso
C3 C 0.08392(13) 0.55629(13) 0.1596(3) 0.0342 Uani
H3 H 0.0881 0.5315 0.2080 0.0410 Uiso
H4 H 0.1165 0.5775 0.1174 0.0410 Uiso
C4 C 0.04025(12) 0.52746(12) 0.0771(3) 0.0275 Uani
C5 C 0.05042(12) 0.52685(11) -0.0382(3) 0.0287 Uani
H5 H 0.0850 0.5453 -0.0652 0.0340 Uiso
C6 C -0.01050(13) 0.50052(12) 0.1138(2) 0.0288 Uani
H6 H -0.0180 0.5009 0.1923 0.0350 Uiso
C7 C 0.19030(13) 0.67619(15) 0.4664(3) 0.0451 Uani
H7 H 0.2013 0.6598 0.4131 0.0540 Uiso
C8 C 0.21726(14) 0.70428(15) 0.5575(3) 0.0450 Uani
H8 H 0.2507 0.7118 0.5810 0.0540 Uiso
C9 C 0.18571(12) 0.71978(13) 0.6093(3) 0.0329 Uani
H9 H 0.1947 0.7403 0.6763 0.0390 Uiso
C10 C 0.08730(12) 0.69278(12) 0.2203(2) 0.0307 Uani
H10 H 0.1018 0.6822 0.1615 0.0370 Uiso
C11 C 0.06349(12) 0.72081(12) 0.2074(3) 0.0339 Uani
H11 H 0.0579 0.7338 0.1383 0.0410 Uiso
C12 C 0.04883(12) 0.72671(12) 0.3162(3) 0.0315 Uani
H12 H 0.0315 0.7452 0.3330 0.0380 Uiso
C13 C 0.05768(14) 0.59087(13) 0.5601(3) 0.0389 Uani
H13 H 0.0874 0.5990 0.6043 0.0470 Uiso
C14 C 0.00793(15) 0.55653(14) 0.5877(3) 0.0485 Uani
H14 H -0.0042 0.5359 0.6544 0.0580 Uiso
C15 C -0.02156(14) 0.55800(13) 0.4978(3) 0.0407 Uani
H15 H -0.0581 0.5380 0.4939 0.0490 Uiso
N1 N 0.14170(10) 0.70266(10) 0.5545(2) 0.0316 Uani
N2 N 0.14484(9) 0.67555(10) 0.4648(2) 0.0268 Uani
N3 N 0.06208(10) 0.70331(10) 0.3931(2) 0.0279 Uani
N4 N 0.08660(9) 0.68256(9) 0.3338(2) 0.0238 Uani
N5 N 0.00803(10) 0.59096(10) 0.4185(2) 0.0306 Uani
N6 N 0.05683(9) 0.61128(9) 0.45782(19) 0.0256 Uani
O4 O 0.07277(8) 0.58898(8) 0.22956(17) 0.0290 Uani
C6I C 0.01050(13) 0.49948(12) -0.1138(2) 0.0288 Uani
C4I C -0.04025(12) 0.47254(12) -0.0771(3) 0.0275 Uani
C3I C -0.08392(13) 0.44371(13) -0.1596(3) 0.0342 Uani
H3I H -0.0881 0.4685 -0.2080 0.0410 Uiso
H4I H -0.1165 0.4225 -0.1174 0.0410 Uiso
O4I O -0.07277(8) 0.41102(8) -0.22956(17) 0.0290 Uani
C2I C -0.11554(12) 0.38037(12) -0.3005(2) 0.0286 Uani
C1I C -0.10099(11) 0.35165(11) -0.3886(2) 0.0242 Uani
N2I N -0.14484(9) 0.32445(10) -0.4648(2) 0.0268 Uani
C7I C -0.19030(13) 0.32381(15) -0.4664(3) 0.0451 Uani
H7I H -0.2013 0.3402 -0.4131 0.0540 Uiso
C8I C -0.21726(14) 0.29572(15) -0.5575(3) 0.0450 Uani
H8I H -0.2507 0.2882 -0.5810 0.0540 Uiso
C9I C -0.18571(12) 0.28022(13) -0.6093(3) 0.0329 Uani
H9I H -0.1947 0.2597 -0.6763 0.0390 Uiso
N1I N -0.14170(10) 0.29734(10) -0.5545(2) 0.0316 Uani
N4I N -0.08660(9) 0.31744(9) -0.3338(2) 0.0238 Uani
C10I C -0.08730(12) 0.30722(12) -0.2203(2) 0.0307 Uani
H10I H -0.1018 0.3178 -0.1615 0.0370 Uiso
C11I C -0.06349(12) 0.27919(12) -0.2074(3) 0.0339 Uani
H11I H -0.0579 0.2662 -0.1383 0.0410 Uiso
C12I C -0.04883(12) 0.27329(12) -0.3162(3) 0.0315 Uani
H12I H -0.0315 0.2548 -0.3330 0.0380 Uiso
N3I N -0.06208(10) 0.29669(10) -0.3931(2) 0.0279 Uani
N6I N -0.05683(9) 0.38872(9) -0.45782(19) 0.0256 Uani
C13I C -0.05768(14) 0.40913(13) -0.5601(3) 0.0389 Uani
H13I H -0.0874 0.4010 -0.6043 0.0470 Uiso
C14I C -0.00793(15) 0.44347(14) -0.5877(3) 0.0485 Uani
H14I H 0.0042 0.4641 -0.6544 0.0580 Uiso
C15I C 0.02156(14) 0.44200(13) -0.4978(3) 0.0407 Uani
H15I H 0.0581 0.4620 -0.4939 0.0490 Uiso
N5I N -0.00803(10) 0.40904(10) -0.4185(2) 0.0306 Uani
H1I H -0.1449 0.3551 -0.2537 0.0340 Uiso
H2I H -0.1264 0.4026 -0.3403 0.0340 Uiso
C5I C -0.05042(12) 0.47315(11) 0.0382(3) 0.0287 Uani
H5I H -0.0850 0.4547 0.0652 0.0340 Uiso
H6I H 0.0180 0.4991 -0.1923 0.0350 Uiso
Ag1I Ag -0.074854(10) 0.277538(10) -0.57835(2) 0.0331 Uani
N5D N 0.07571(10) 0.75040(14) 0.7518(2) 0.0306 Uani
Ag1Q Ag -0.019059(14) 0.591813(10) 0.24502(2) 0.0331 Uani
Ag1H Ag 0.019059(14) 0.408187(10) -0.24502(2) 0.0331 Uani
N5M N -0.07571(10) 0.24960(14) -0.7518(2) 0.0306 Uani
S1 S 0.17941(4) 0.68267(4) 0.93192(7) 0.0384 Uani
C16 C 0.23256(18) 0.67305(17) 0.9734(4) 0.0566 Uani
F1 F 0.26106(11) 0.67598(12) 0.8850(3) 0.0912 Uani
F2 F 0.26316(11) 0.70858(11) 1.0470(3) 0.0895 Uani
F3 F 0.21559(11) 0.62678(10) 1.0199(2) 0.0826 Uani
O1 O 0.15312(13) 0.67641(13) 1.0373(2) 0.0750 Uani
O2 O 0.15134(11) 0.64366(10) 0.8495(2) 0.0603 Uani
O3 O 0.20570(10) 0.73458(9) 0.8890(2) 0.0445 Uani
loop_
_atom_site_aniso_label
_atom_site_aniso_U_11
_atom_site_aniso_U_22
_atom_site_aniso_U_33
_atom_site_aniso_U_23
_atom_site_aniso_U_13
_atom_site_aniso_U_12
Ag1 0.03802(16) 0.04218(17) 0.02457(12) -0.00595(11) 0.00159(11) 0.02414(14)
C1 0.0243(16) 0.0265(16) 0.0196(14) -0.0030(12) -0.0012(12) 0.0110(13)
C2 0.0313(18) 0.0323(18) 0.0255(16) -0.0092(13) -0.0044(13) 0.0184(15)
C3 0.041(2) 0.0348(19) 0.0322(17) -0.0098(15) -0.0034(15) 0.0230(17)
C4 0.0345(18) 0.0255(17) 0.0275(16) -0.0052(13) -0.0066(14) 0.0188(15)
C5 0.0299(17) 0.0231(16) 0.0325(17) -0.0013(13) 0.0012(14) 0.0127(14)
C6 0.0406 0.0279 0.0223 -0.0013 0.0022 0.0205
C7 0.032(2) 0.060(3) 0.047(2) -0.0216(19) -0.0057(17) 0.0258(19)
C8 0.033(2) 0.060(3) 0.044(2) -0.0147(19) -0.0131(17) 0.0247(19)
C9 0.0304(18) 0.0372(19) 0.0256(16) -0.0095(14) -0.0074(14) 0.0127(16)
C10 0.0339(18) 0.0295(17) 0.0215(15) -0.0029(13) -0.0004(13) 0.0105(15)
C11 0.040(2) 0.0334(18) 0.0274(16) 0.0028(15) -0.0034(14) 0.0176(17)
C12 0.0307(18) 0.0286(17) 0.0361(18) -0.0026(14) -0.0064(14) 0.0154(15)
C13 0.049(2) 0.039(2) 0.0305(18) 0.0057(15) -0.0051(16) 0.0233(18)
C14 0.057(3) 0.045(2) 0.0323(19) 0.0134(17) 0.0061(18) 0.017(2)
C15 0.036(2) 0.041(2) 0.0272(17) -0.0022(15) 0.0027(15) 0.0059(17)
N1 0.0364(16) 0.0398(16) 0.0212(13) -0.0131(12) -0.0075(11) 0.0210(14)
N2 0.0257(14) 0.0344(15) 0.0215(13) -0.0084(11) -0.0056(10) 0.0159(12)
N3 0.0294(15) 0.0281(14) 0.0278(14) -0.0032(11) -0.0007(11) 0.0155(12)
N4 0.0242(13) 0.0246(13) 0.0220(12) -0.0044(10) -0.0010(10) 0.0117(11)
N5 0.0260(14) 0.0349(15) 0.0213(13) -0.0023(11) -0.0007(11) 0.0080(12)
N6 0.0272(14) 0.0268(14) 0.0191(12) -0.0012(10) -0.0029(10) 0.0108(12)
O4 0.0326(12) 0.0328(12) 0.0251(11) -0.0125(9) -0.0077(9) 0.0189(10)
C6I 0.0406(19) 0.0279(17) 0.0223(15) -0.0013(13) 0.0022(14) 0.0205(15)
C4I 0.0345 0.0255 0.0275 -0.0052 -0.0066 0.0188
C3I 0.041 0.0348 0.0322 -0.0098 -0.0034 0.023
O4I 0.0326 0.0328 0.0251 -0.0125 -0.0077 0.0189
C2I 0.0313 0.0323 0.0255 -0.0092 -0.0044 0.0184
C1I 0.0243 0.0265 0.0196 -0.003 -0.0012 0.011
N2I 0.0257 0.0344 0.0215 -0.0084 -0.0056 0.0159
C7I 0.032 0.06 0.047 -0.0216 -0.0057 0.0258
C8I 0.033 0.06 0.044 -0.0147 -0.0131 0.0247
C9I 0.0304 0.0372 0.0256 -0.0095 -0.0074 0.0127
N1I 0.0364 0.0398 0.0212 -0.0131 -0.0075 0.021
N4I 0.0242 0.0246 0.022 -0.0044 -0.001 0.0117
C10I 0.0339 0.0295 0.0215 -0.0029 -0.0004 0.0105
C11I 0.04 0.0334 0.0274 0.0028 -0.0034 0.0176
C12I 0.0307 0.0286 0.0361 -0.0026 -0.0064 0.0154
N3I 0.0294 0.0281 0.0278 -0.0032 -0.0007 0.0155
N6I 0.0272 0.0268 0.0191 -0.0012 -0.0029 0.0108
C13I 0.049 0.039 0.0305 0.0057 -0.0051 0.0233
C14I 0.057 0.045 0.0323 0.0134 0.0061 0.017
C15I 0.036 0.041 0.0272 -0.0022 0.0027 0.0059
N5I 0.026 0.0349 0.0213 -0.0023 -0.0007 0.008
C5I 0.0299 0.0231 0.0325 -0.0013 0.0012 0.0127
Ag1I 0.03802 0.04218 0.02457 -0.00595 0.00159 0.02414
N5D 0.0349 0.0449 0.0213 0.0016 0.0023 0.0269
Ag1Q 0.03192 0.03802 0.02457 -0.00159 -0.00754 0.01388
Ag1H 0.03192 0.03802 0.02457 -0.00159 -0.00754 0.01388
N5M 0.0349 0.0449 0.0213 0.0016 0.0023 0.0269
S1 0.0418(5) 0.0426(5) 0.0339(5) 0.0036(4) 0.0068(4) 0.0235(4)
C16 0.064(3) 0.049(3) 0.067(3) -0.001(2) -0.004(2) 0.036(2)
F1 0.0693(19) 0.102(2) 0.122(2) 0.0019(19) 0.0278(18) 0.0576(18)
F2 0.099(2) 0.0713(19) 0.101(2) -0.0114(17) -0.0529(18) 0.0446(17)
F3 0.094(2) 0.0597(17) 0.108(2) 0.0136(15) -0.0103(17) 0.0488(16)
O1 0.091(2) 0.094(2) 0.0598(19) 0.0201(17) 0.0402(18) 0.061(2)
O2 0.0565(18) 0.0432(16) 0.0654(19) -0.0064(14) -0.0112(15) 0.0130(14)
O3 0.0530(16) 0.0381(14) 0.0407(14) 0.0010(11) -0.0103(12) 0.0216(13)
loop_
_geom_bond_atom_site_label_1
_geom_bond_atom_site_label_2
_geom_bond_site_symmetry_1
_geom_bond_site_symmetry_2
Ag1 N1 1_555 1_555
S1 C16 1_555 1_555
C1 C2 1_555 1_555
C2 H1 1_555 1_555
H2 C2 1_555 1_555
C3 H3 1_555 1_555
H4 C3 1_555 1_555
C4 C3 1_555 1_555
C5 C4 1_555 1_555
H5 C5 1_555 1_555
C6 C4 1_555 1_555
H6 C6 1_555 1_555
C7 H7 1_555 1_555
C8 C7 1_555 1_555
H8 C8 1_555 1_555
C9 C8 1_555 1_555
H9 C9 1_555 1_555
C10 H10 1_555 1_555
C11 C10 1_555 1_555
H11 C11 1_555 1_555
C12 C11 1_555 1_555
H12 C12 1_555 1_555
C13 H13 1_555 1_555
C14 C13 1_555 1_555
H14 C14 1_555 1_555
C15 C14 1_555 1_555
H15 C15 1_555 1_555
C16 F1 1_555 1_555
F2 C16 1_555 1_555
F3 C16 1_555 1_555
N1 C9 1_555 1_555
N2 C1 1_555 1_555
N3 Ag1 1_555 1_555
N4 C1 1_555 1_555
N5 C15 1_555 1_555
N6 C1 1_555 1_555
O1 S1 1_555 1_555
O2 S1 1_555 1_555
O3 S1 1_555 1_555
O4 C2 1_555 1_555
C6I C5 1_555 1_555
C4I C6I 1_555 1_555
C3I C4I 1_555 1_555
H3I C3I 1_555 1_555
H4I C3I 1_555 1_555
O4I C3I 1_555 1_555
C2I O4I 1_555 1_555
C1I C2I 1_555 1_555
N2I C1I 1_555 1_555
C7I N2I 1_555 1_555
H7I C7I 1_555 1_555
C8I C7I 1_555 1_555
H8I C8I 1_555 1_555
C9I C8I 1_555 1_555
H9I C9I 1_555 1_555
N1I N2I 1_555 1_555
N4I C1I 1_555 1_555
C10I N4I 1_555 1_555
H10I C10I 1_555 1_555
C11I C10I 1_555 1_555
H11I C11I 1_555 1_555
C12I C11I 1_555 1_555
H12I C12I 1_555 1_555
N3I N4I 1_555 1_555
N6I C1I 1_555 1_555
C13I N6I 1_555 1_555
H13I C13I 1_555 1_555
C14I C13I 1_555 1_555
H14I C14I 1_555 1_555
C15I C14I 1_555 1_555
H15I C15I 1_555 1_555
N5I N6I 1_555 1_555
H1I C2I 1_555 1_555
H2I C2I 1_555 1_555
C5I C6 1_555 1_555
H5I C5I 1_555 1_555
H6I C6I 1_555 1_555
Ag1I N1I 1_555 1_555
N5D Ag1 1_555 1_555
Ag1Q N5 1_555 1_555
Ag1H N5I 1_555 1_555
N5M Ag1I 1_555 1_555
C3 O4 1_555 1_555
C7 N2 1_555 1_555
C10 N4 1_555 1_555
C12 N3 1_555 1_555
C13 N6 1_555 1_555
N1 N2 1_555 1_555
N3 N4 1_555 1_555
N5 N6 1_555 1_555
C4I C5I 1_555 1_555
C9I N1I 1_555 1_555
C12I N3I 1_555 1_555
N3I Ag1I 1_555 1_555
C15I N5I 1_555 1_555

#END
