
#######################################################################
#
#                 Cambridge Crystallographic Data Centre
#                                CCDC 
#
#######################################################################
#
# If this CIF has been generated from an entry in the Cambridge 
# Structural Database, then it will include bibliographic, chemical, 
# crystal, experimental, refinement or atomic coordinate data resulting 
# from the CCDC's data processing and validation procedures.
#
#######################################################################

data_EBEWUG
_chemical_formula_moiety         '(H4 O12 P4 Zn3 2-)n'
_symmetry_cell_setting           rhombohedral
_symmetry_space_group_name_H-M   'R -3'
_symmetry_Int_Tables_number      148
_space_group_name_Hall           '-R 3'
loop_
_symmetry_equiv_pos_site_id
_symmetry_equiv_pos_as_xyz
1 x,y,z
2 -y,x-y,z
3 -x+y,-x,z
4 2/3+x,1/3+y,1/3+z
5 2/3-y,1/3+x-y,1/3+z
6 2/3-x+y,1/3-x,1/3+z
7 1/3+x,2/3+y,2/3+z
8 1/3-y,2/3+x-y,2/3+z
9 1/3-x+y,2/3-x,2/3+z
10 -x,-y,-z
11 y,-x+y,-z
12 x-y,x,-z
13 1/3-x,2/3-y,2/3-z
14 1/3+y,2/3-x+y,2/3-z
15 1/3+x-y,2/3+x,2/3-z
16 2/3-x,1/3-y,1/3-z
17 2/3+y,1/3-x+y,1/3-z
18 2/3+x-y,1/3+x,1/3-z
_cell_length_a                   33.2781(9)
_cell_length_b                   33.2781(9)
_cell_length_c                   13.5625(5)
_cell_angle_alpha                90
_cell_angle_beta                 90
_cell_angle_gamma                120
_cell_volume                     13007.3
loop_
_atom_site_label
_atom_site_type_symbol
_atom_site_fract_x
_atom_site_fract_y
_atom_site_fract_z
_atom_site_U_iso_or_equiv
_atom_site_thermal_displace_type
Zn1 Zn 0.340722(8) -0.034371(8) 0.754197(15) 0.0389 Uani
Zn2 Zn 0.336855(12) 0.110466(10) 0.630373(17) 0.0564 Uani
Zn3 Zn 0.170049(9) -0.168217(9) 0.997760(16) 0.0523 Uani
P1 P 0.29793(2) 0.00495(2) 0.59915(3) 0.0416 Uani
P2 P 0.239833(19) -0.105642(19) 0.82648(3) 0.0417 Uani
P3 P 0.40202(2) 0.14648(2) 0.44576(4) 0.0498 Uani
P4 P 0.38829(3) 0.18419(2) 0.80105(4) 0.0560 Uani
O1 O 0.31473(5) -0.02739(5) 0.63204(10) 0.0484 Uani
O2 O 0.31334(8) 0.04548(6) 0.66704(11) 0.0723 Uani
O3 O 0.30913(5) 0.01878(5) 0.49160(9) 0.0461 Uani
O4 O 0.29180(5) -0.08138(5) 0.83350(11) 0.0557 Uani
O5 O 0.22033(6) -0.14141(6) 0.90693(11) 0.0652 Uani
O6 O 0.22363(6) -0.12443(7) 0.72472(11) 0.0742 Uani
O7 O 0.39299(6) 0.13362(6) 0.55454(11) 0.0623 Uani
O8 O 0.38206(7) 0.17575(6) 0.41056(12) 0.0651 Uani
O9 O 0.38819(7) 0.10488(6) 0.38063(11) 0.0633 Uani
O10 O 0.35499(9) 0.13699(7) 0.76144(11) 0.0822 Uani
O11 O 0.38223(7) 0.22167(7) 0.75592(16) 0.0799 Uani
O12 O 0.38872(7) 0.18485(8) 0.91126(12) 0.0800 Uani
H1 H 0.2461 -0.0254 0.6033 0.0500 Uiso
H2 H 0.2250 -0.0710 0.8459 0.0500 Uiso
H3 H 0.4455 0.1686 0.4361 0.0500 Uiso
H4 H 0.4346 0.1977 0.7778 0.0500 Uiso
Zn1G Zn 0.367704(8) 0.041760(11) 0.420864(15) 0.0389 Uani
Zn2O Zn 0.329812(12) 0.222867(10) 0.702960(17) 0.0564 Uani
Zn3E Zn 0.328401(13) 0.163284(9) 0.331093(16) 0.0523 Uani
Zn3K Zn 0.338266(13) 0.170049(9) 1.002240(16) 0.0523 Uani
Zn3L Zn 0.163284(9) -0.165116(9) 0.668907(16) 0.0523 Uani
O3E O 0.37632(7) 0.02420(5) 0.82493(9) 0.0461 Uani
O6L O 0.10970(6) -0.20890(7) 0.94195(11) 0.0742 Uani
O8G O 0.15758(6) -0.12702(9) 1.07723(12) 0.0651 Uani
O9E O 0.38336(9) -0.05486(7) 0.71396(11) 0.0633 Uani
O11O O 0.28444(7) 0.11166(7) 0.57741(16) 0.0799 Uani
O12J O 0.18485(8) -0.20387(11) 1.08874(12) 0.0800 Uani
loop_
_atom_site_aniso_label
_atom_site_aniso_U_11
_atom_site_aniso_U_22
_atom_site_aniso_U_33
_atom_site_aniso_U_23
_atom_site_aniso_U_13
_atom_site_aniso_U_12
Zn1 0.03610(13) 0.04436(14) 0.02906(11) 0.00033(8) 0.00049(8) 0.01469(11)
Zn2 0.0983(2) 0.05676(18) 0.03191(13) -0.00030(10) 0.00184(12) 0.05205(17)
Zn3 0.04626(15) 0.05493(17) 0.02554(12) 0.00049(10) 0.00378(9) 0.00269(12)
P1 0.0524(3) 0.0480(3) 0.0303(2) 0.0053(2) 0.0058(2) 0.0296(3)
P2 0.0390(3) 0.0434(3) 0.0279(2) -0.00151(19) 0.00294(19) 0.0095(2)
P3 0.0594(4) 0.0477(3) 0.0412(3) 0.0028(2) -0.0022(2) 0.0260(3)
P4 0.0836(5) 0.0647(4) 0.0334(3) -0.0011(2) 0.0035(3) 0.0473(4)
O1 0.0675(10) 0.0463(8) 0.0372(7) -0.0016(6) -0.0086(7) 0.0329(8)
O2 0.1387(18) 0.0570(10) 0.0366(8) 0.0016(7) 0.0020(9) 0.0605(12)
O3 0.0481(8) 0.0667(10) 0.0305(6) 0.0056(6) 0.0029(6) 0.0340(8)
O4 0.0422(8) 0.0580(10) 0.0414(8) 0.0099(7) -0.0013(6) 0.0059(7)
O5 0.0688(11) 0.0599(10) 0.0459(8) 0.0125(7) 0.0235(8) 0.0165(9)
O6 0.0500(10) 0.0902(13) 0.0339(7) -0.0142(8) -0.0005(7) -0.0013(9)
O7 0.0772(12) 0.0745(12) 0.0392(8) -0.0007(7) -0.0052(7) 0.0409(10)
O8 0.0913(13) 0.0535(10) 0.0582(10) -0.0018(8) -0.0133(9) 0.0419(10)
O9 0.1000(14) 0.0554(10) 0.0411(8) 0.0045(7) 0.0041(8) 0.0439(10)
O10 0.1449(19) 0.0621(11) 0.0362(8) -0.0076(8) 0.0041(10) 0.0493(13)
O11 0.0866(14) 0.0682(12) 0.0940(14) 0.0212(11) 0.0074(11) 0.0456(11)
O12 0.0868(14) 0.1134(16) 0.0357(8) -0.0132(9) -0.0036(8) 0.0469(12)
Zn1G 0.04436 0.05108 0.02906 0.00016 -0.00033 0.02967
Zn2O 0.0983 0.05676 0.03191 -0.0003 0.00184 0.05205
Zn3E 0.09581 0.04626 0.02554 -0.00378 -0.00329 0.04357
Zn3K 0.09581 0.04626 0.02554 -0.00378 -0.00329 0.04357
Zn3L 0.04626 0.05493 0.02554 0.00049 0.00378 0.00269
O3E 0.0468 0.0481 0.0305 -0.0029 0.0027 0.0141
O6L 0.05 0.0902 0.0339 -0.0142 -0.0005 -0.0013
O8G 0.0535 0.061 0.0582 -0.0115 0.0018 0.0116
O9E 0.0676 0.1 0.0411 -0.0041 0.0004 0.0561
O11O 0.0866 0.0682 0.094 0.0212 0.0074 0.0456
O12J 0.1134 0.1064 0.0357 0.0096 0.0132 0.0665
loop_
_geom_bond_atom_site_label_1
_geom_bond_atom_site_label_2
_geom_bond_site_symmetry_1
_geom_bond_site_symmetry_2
Zn1 O1 1_555 1_555
Zn2 O2 1_555 1_555
Zn3 O5 1_555 1_555
P1 O1 1_555 1_555
P2 O4 1_555 1_555
P3 O7 1_555 1_555
P4 O10 1_555 1_555
O2 P1 1_555 1_555
O3 P1 1_555 1_555
O4 Zn1 1_555 1_555
O5 P2 1_555 1_555
O6 P2 1_555 1_555
O7 Zn2 1_555 1_555
O8 P3 1_555 1_555
O9 P3 1_555 1_555
O10 Zn2 1_555 1_555
O11 P4 1_555 1_555
O12 P4 1_555 1_555
H1 P1 1_555 1_555
H2 P2 1_555 1_555
H3 P3 1_555 1_555
H4 P4 1_555 1_555
Zn1G O3 1_555 1_555
Zn2O O11 1_555 1_555
Zn3E O8 1_555 1_555
Zn3K O12 1_555 1_555
Zn3L O6 1_555 1_555
O3E Zn1 1_555 1_555
O6L Zn3 1_555 1_555
O8G Zn3 1_555 1_555
O9E Zn1 1_555 1_555
O11O Zn2 1_555 1_555
O12J Zn3 1_555 1_555
O9 Zn1G 1_555 1_555

#END
