
#######################################################################
#
#                 Cambridge Crystallographic Data Centre
#                                CCDC 
#
#######################################################################
#
# If this CIF has been generated from an entry in the Cambridge 
# Structural Database, then it will include bibliographic, chemical, 
# crystal, experimental, refinement or atomic coordinate data resulting 
# from the CCDC's data processing and validation procedures.
#
#######################################################################

data_EBEXAN
_chemical_formula_moiety         '(H4 O12 P4 Zn3 2-)n'
_symmetry_cell_setting           rhombohedral
_symmetry_space_group_name_H-M   'R -3'
_symmetry_Int_Tables_number      148
_space_group_name_Hall           '-R 3'
loop_
_symmetry_equiv_pos_site_id
_symmetry_equiv_pos_as_xyz
1 x,y,z
2 -y,x-y,z
3 -x+y,-x,z
4 2/3+x,1/3+y,1/3+z
5 2/3-y,1/3+x-y,1/3+z
6 2/3-x+y,1/3-x,1/3+z
7 1/3+x,2/3+y,2/3+z
8 1/3-y,2/3+x-y,2/3+z
9 1/3-x+y,2/3-x,2/3+z
10 -x,-y,-z
11 y,-x+y,-z
12 x-y,x,-z
13 1/3-x,2/3-y,2/3-z
14 1/3+y,2/3-x+y,2/3-z
15 1/3+x-y,2/3+x,2/3-z
16 2/3-x,1/3-y,1/3-z
17 2/3+y,1/3-x+y,1/3-z
18 2/3+x-y,1/3+x,1/3-z
_cell_length_a                   33.1915(4)
_cell_length_b                   33.1915(4)
_cell_length_c                   13.3206(2)
_cell_angle_alpha                90
_cell_angle_beta                 90
_cell_angle_gamma                120
_cell_volume                     12708.9
loop_
_atom_site_label
_atom_site_type_symbol
_atom_site_fract_x
_atom_site_fract_y
_atom_site_fract_z
_atom_site_U_iso_or_equiv
_atom_site_thermal_displace_type
Zn1 Zn 0.299116(10) 0.008586(9) 0.909469(19) 0.0402 Uani
Zn2 Zn 0.443504(12) 0.004768(14) 1.02748(2) 0.0586 Uani
Zn3 Zn 0.164824(12) -0.164015(11) 0.66855(2) 0.0594 Uani
P1 P 0.33840(2) -0.03546(2) 1.06240(4) 0.0422 Uani
P2 P 0.22916(2) -0.09293(2) 0.84351(5) 0.0469 Uani
P3 P 0.48074(2) 0.06899(3) 1.21944(5) 0.0518 Uani
P4 P 0.52155(3) 0.05698(3) 0.86760(5) 0.0594 Uani
O1 O 0.30722(6) -0.01643(6) 1.03397(12) 0.0468 Uani
O2 O 0.37775(7) -0.02134(9) 0.98953(14) 0.0708 Uani
O3 O 0.35537(6) -0.02377(6) 1.17061(12) 0.0466 Uani
O4 O 0.25026(6) -0.04077(6) 0.83309(13) 0.0515 Uani
O5 O 0.19108(7) -0.11587(7) 0.76747(15) 0.0714 Uani
O6 O 0.21334(8) -0.10879(7) 0.95007(13) 0.0753 Uani
O7 O 0.46698(7) 0.05930(7) 1.10986(13) 0.0620 Uani
O8 O 0.51088(7) 0.04947(9) 1.25457(16) 0.0714 Uani
O9 O 0.43943(7) 0.05510(8) 1.28790(13) 0.0591 Uani
O10 O 0.47146(8) 0.02592(10) 0.89545(15) 0.0839 Uani
O11 O 0.52940(9) 0.05716(9) 0.75663(16) 0.0919 Uani
O12 O 0.55447(8) 0.04874(9) 0.9284(2) 0.0839 Uani
H1 H 0.3099 -0.0893 1.0594 0.0500 Uiso
H2 H 0.2652 -0.1078 0.8199 0.0500 Uiso
H3 H 0.5043 0.1109 1.2274 0.0500 Uiso
H4 H 0.5313 0.0993 0.8812 0.0500 Uiso
Zn1E Zn 0.376137(13) 0.034217(10) 1.242802(19) 0.0402 Uani
Zn2I Zn 0.556496(12) -0.004768(14) 0.97252(2) 0.0586 Uani
Zn3G Zn 0.497348(11) -0.004494(16) 1.33522(2) 0.0594 Uani
Zn3P Zn 0.502652(11) 0.004494(16) 0.66478(2) 0.0594 Uani
Zn3L Zn 0.168509(12) -0.169318(11) 0.99812(2) 0.0594 Uani
O3G O 0.35710(6) 0.04581(8) 0.83728(12) 0.0466 Uani
O6L O 0.11999(8) -0.22454(7) 0.71660(13) 0.0753 Uani
O8E O 0.20526(11) -0.17755(7) 0.58790(16) 0.0714 Uani
O9G O 0.27823(8) 0.05100(11) 0.95457(13) 0.0591 Uani
O11Q O 0.13891(13) -0.13727(9) 0.57670(16) 0.0919 Uani
O12I O 0.44553(8) -0.04874(9) 1.0716(2) 0.0839 Uani
loop_
_atom_site_aniso_label
_atom_site_aniso_U_11
_atom_site_aniso_U_22
_atom_site_aniso_U_33
_atom_site_aniso_U_23
_atom_site_aniso_U_13
_atom_site_aniso_U_12
Zn1 0.04650(16) 0.03711(15) 0.03031(14) -0.00160(10) -0.00042(10) 0.01582(12)
Zn2 0.0574(2) 0.1027(3) 0.03289(16) -0.00448(15) -0.00173(13) 0.0530(2)
Zn3 0.0608(2) 0.05073(19) 0.02642(16) -0.00527(12) -0.00004(12) -0.00231(14)
P1 0.0480(3) 0.0553(4) 0.0309(3) -0.0072(3) -0.0053(2) 0.0315(3)
P2 0.0495(4) 0.0421(3) 0.0271(3) -0.0039(2) 0.0037(2) 0.0064(3)
P3 0.0486(4) 0.0658(4) 0.0406(4) 0.0022(3) -0.0023(3) 0.0282(3)
P4 0.0671(5) 0.0893(6) 0.0365(3) -0.0025(3) 0.0010(3) 0.0501(4)
O1 0.0460(9) 0.0620(11) 0.0365(9) 0.0045(7) -0.0001(7) 0.0301(8)
O2 0.0599(12) 0.135(2) 0.0328(10) -0.0103(11) -0.0035(8) 0.0603(14)
O3 0.0664(11) 0.0510(10) 0.0310(8) -0.0056(7) -0.0077(7) 0.0359(9)
O4 0.0528(10) 0.0446(9) 0.0393(9) -0.0034(7) -0.0085(8) 0.0111(8)
O5 0.0622(12) 0.0695(13) 0.0442(11) -0.0228(9) -0.0060(9) 0.0043(10)
O6 0.0894(15) 0.0531(11) 0.0286(9) -0.0049(8) 0.0080(9) -0.0054(10)
O7 0.0733(13) 0.0779(13) 0.0356(10) 0.0041(9) -0.0002(9) 0.0384(11)
O8 0.0556(12) 0.1075(18) 0.0617(13) 0.0140(12) 0.0023(10) 0.0487(12)
O9 0.0576(11) 0.0953(15) 0.0333(9) -0.0023(9) -0.0043(8) 0.0450(11)
O10 0.0648(13) 0.153(2) 0.0358(11) -0.0059(12) 0.0058(9) 0.0558(15)
O11 0.0989(19) 0.1055(19) 0.0414(12) 0.0014(12) 0.0184(12) 0.0286(15)
O12 0.0779(15) 0.0944(17) 0.0936(18) -0.0174(14) -0.0310(13) 0.0538(14)
Zn1E 0.05197 0.0465 0.03031 0.00042 -0.00118 0.03068
Zn2I 0.0574 0.1027 0.03289 -0.00448 -0.00173 0.053
Zn3G 0.05073 0.11615 0.02642 0.00523 0.00527 0.05304
Zn3P 0.05073 0.11615 0.02642 0.00523 0.00527 0.05304
Zn3L 0.0608 0.05073 0.02642 -0.00527 -4e-05 -0.00231
O3G 0.051 0.0456 0.031 -0.0021 0.0056 0.0151
O6L 0.0894 0.0531 0.0286 -0.0049 0.008 -0.0054
O8E 0.0657 0.0556 0.0617 -0.0023 0.0117 0.0069
O9G 0.0953 0.0629 0.0333 -0.002 0.0023 0.0503
O11Q 0.1472 0.0989 0.0414 -0.0184 -0.017 0.0703
O12I 0.0779 0.0944 0.0936 -0.0174 -0.031 0.0538
loop_
_geom_bond_atom_site_label_1
_geom_bond_atom_site_label_2
_geom_bond_site_symmetry_1
_geom_bond_site_symmetry_2
Zn1 O1 1_555 1_555
Zn2 O2 1_555 1_555
Zn3 O5 1_555 1_555
P1 O1 1_555 1_555
P2 O4 1_555 1_555
P3 O7 1_555 1_555
P4 O10 1_555 1_555
O2 P1 1_555 1_555
O3 P1 1_555 1_555
O4 Zn1 1_555 1_555
O5 P2 1_555 1_555
O6 P2 1_555 1_555
O7 Zn2 1_555 1_555
O8 P3 1_555 1_555
O9 P3 1_555 1_555
O10 Zn2 1_555 1_555
O11 P4 1_555 1_555
O12 P4 1_555 1_555
H1 P1 1_555 1_555
H2 P2 1_555 1_555
H3 P3 1_555 1_555
H4 P4 1_555 1_555
Zn1E O3 1_555 1_555
Zn2I O12 1_555 1_555
Zn3G O8 1_555 1_555
Zn3P O11 1_555 1_555
Zn3L O6 1_555 1_555
O3G Zn1 1_555 1_555
O6L Zn3 1_555 1_555
O8E Zn3 1_555 1_555
O9G Zn1 1_555 1_555
O11Q Zn3 1_555 1_555
O12I Zn2 1_555 1_555
O9 Zn1E 1_555 1_555

#END
