
#######################################################################
#
#                 Cambridge Crystallographic Data Centre
#                                CCDC 
#
#######################################################################
#
# If this CIF has been generated from an entry in the Cambridge 
# Structural Database, then it will include bibliographic, chemical, 
# crystal, experimental, refinement or atomic coordinate data resulting 
# from the CCDC's data processing and validation procedures.
#
#######################################################################

data_EBEXOB
_chemical_formula_moiety         '(C12 H32 N2 O12 P4 Zn3)n'
_symmetry_cell_setting           rhombohedral
_symmetry_space_group_name_H-M   'R -3'
_symmetry_Int_Tables_number      148
_space_group_name_Hall           '-R 3'
loop_
_symmetry_equiv_pos_site_id
_symmetry_equiv_pos_as_xyz
1 x,y,z
2 -y,x-y,z
3 -x+y,-x,z
4 2/3+x,1/3+y,1/3+z
5 2/3-y,1/3+x-y,1/3+z
6 2/3-x+y,1/3-x,1/3+z
7 1/3+x,2/3+y,2/3+z
8 1/3-y,2/3+x-y,2/3+z
9 1/3-x+y,2/3-x,2/3+z
10 -x,-y,-z
11 y,-x+y,-z
12 x-y,x,-z
13 1/3-x,2/3-y,2/3-z
14 1/3+y,2/3-x+y,2/3-z
15 1/3+x-y,2/3+x,2/3-z
16 2/3-x,1/3-y,1/3-z
17 2/3+y,1/3-x+y,1/3-z
18 2/3+x-y,1/3+x,1/3-z
_cell_length_a                   32.4965(8)
_cell_length_b                   32.4965(8)
_cell_length_c                   13.1823(4)
_cell_angle_alpha                90
_cell_angle_beta                 90
_cell_angle_gamma                120
_cell_volume                     12055.8
loop_
_atom_site_label
_atom_site_type_symbol
_atom_site_fract_x
_atom_site_fract_y
_atom_site_fract_z
_atom_site_U_iso_or_equiv
_atom_site_thermal_displace_type
Zn1 Zn 0.709795(11) 0.010914(10) 0.90866(2) 0.0174 Uani
Zn2 Zn 0.663333(12) -0.108125(11) 0.35209(2) 0.0220 Uani
Zn3 Zn 0.669399(12) -0.165791(11) 0.66545(2) 0.0211 Uani
P1 P 0.66787(2) 0.04072(2) 0.72949(4) 0.0170 Uani
P2 P 0.67762(2) -0.09229(2) 0.84354(4) 0.0178 Uani
P3 P 0.59627(2) -0.14929(2) 0.54553(5) 0.0215 Uani
P4 P 0.72527(2) -0.14534(2) 0.46583(4) 0.0212 Uani
O1 O 0.68776(6) 0.04860(5) 0.83714(12) 0.0195 Uani
O2 O 0.63880(8) -0.01155(6) 0.70315(11) 0.0190 Uani
O3 O 0.70677(6) 0.06848(9) 0.65202(12) 0.0262 Uani
O4 O 0.70989(6) -0.03897(6) 0.82737(12) 0.0206 Uani
O5 O 0.69163(7) -0.11860(6) 0.76973(13) 0.0265 Uani
O6 O 0.67872(7) -0.10570(6) 0.95308(13) 0.0278 Uani
O7 O 0.61466(6) -0.18199(6) 0.57862(14) 0.0281 Uani
O8 O 0.60798(6) -0.13232(6) 0.43697(13) 0.0266 Uani
O9 O 0.61050(8) -0.10864(6) 0.61989(13) 0.0257 Uani
O10 O 0.72498(6) -0.13217(6) 0.57657(13) 0.0276 Uani
O11 O 0.71645(7) -0.11491(7) 0.39304(14) 0.0304 Uani
O12 O 0.69323(7) -0.19821(6) 0.44909(13) 0.0322 Uani
H1 H 0.6314 0.0514 0.7313 0.0500 Uiso
H2 H 0.6308 -0.1046 0.8268 0.0500 Uiso
H3 H 0.5505 -0.1750 0.5491 0.0500 Uiso
H4 H 0.7695 -0.1379 0.4540 0.0500 Uiso
Zn1H Zn 0.634452(15) -0.043128(11) 0.57533(2) 0.0174 Uani
Zn2D Zn 0.774792(11) 0.104791(16) 0.68542(2) 0.0220 Uani
Zn2L Zn 0.670000(12) -0.225208(11) 0.31458(2) 0.0220 Uani
Zn3L Zn 0.663934(12) -0.167542(11) 1.00122(2) 0.0211 Uani
O2D O 0.67822(6) -0.01632(10) 1.03648(11) 0.0190 Uani
O3H O 0.69504(11) -0.04010(6) 0.31869(12) 0.0262 Uani
O6L O 0.65461(7) -0.22763(6) 0.71359(13) 0.0278 Uani
O9D O 0.77531(6) 0.05247(10) 0.95322(13) 0.0257 Uani
O12L O 0.64010(7) -0.13512(6) 0.21758(13) 0.0322 Uani
N1 N 0.70194(7) 0.12308(7) 0.97056(15) 0.0229 Uani
C1 C 0.67680(8) 0.15090(8) 0.97598(19) 0.0227 Uani
C2 C 0.69769(11) 0.18612(10) 1.0626(2) 0.0319 Uani
C3 C 0.67346(13) 0.21586(12) 1.0698(3) 0.0481 Uani
C4 C 0.67795(12) 0.24170(11) 0.9703(3) 0.0461 Uani
C5 C 0.65822(11) 0.20699(11) 0.8827(3) 0.0410 Uani
C6 C 0.68112(10) 0.17574(10) 0.8755(2) 0.0309 Uani
H5 H 0.6906 0.1024 0.9294 0.0800 Uiso
H6 H 0.7338 0.1450 0.9566 0.0800 Uiso
H7 H 0.6997 0.1088 1.0315 0.0800 Uiso
H8 H 0.6425 0.1281 0.9909 0.0800 Uiso
H9 H 0.6861 0.2395 1.1285 0.0800 Uiso
H10 H 0.6938 0.1693 1.1219 0.0800 Uiso
H11 H 0.7321 0.2076 1.0486 0.0800 Uiso
H12 H 0.6377 0.1922 1.0899 0.0800 Uiso
H13 H 0.7125 0.2647 0.9562 0.0800 Uiso
H14 H 0.6635 0.2628 0.9737 0.0800 Uiso
H15 H 0.6211 0.1875 0.8913 0.0800 Uiso
H16 H 0.6633 0.2234 0.8196 0.0800 Uiso
H17 H 0.7160 0.1975 0.8624 0.0800 Uiso
H18 H 0.6693 0.1551 0.8230 0.0800 Uiso
N2 N 0.73271(8) -0.05616(8) 0.13853(16) 0.0294 Uani
C7 C 0.78514(10) -0.02648(10) 0.1369(2) 0.0316 Uani
C8 C 0.80547(10) -0.03351(11) 0.0395(2) 0.0350 Uani
C9 C 0.85925(12) -0.00228(14) 0.0375(3) 0.0546 Uani
C10 C 0.88121(12) -0.01218(16) 0.1307(3) 0.0639 Uani
C11 C 0.86030(13) -0.00708(16) 0.2295(3) 0.0646 Uani
C12 C 0.80606(12) -0.03710(15) 0.2286(2) 0.0522 Uani
H19 H 0.7205 -0.0496 0.0818 0.0800 Uiso
H20 H 0.7206 -0.0491 0.1907 0.0800 Uiso
H21 H 0.7233 -0.0918 0.1398 0.0800 Uiso
H22 H 0.7918 0.0081 0.1432 0.0800 Uiso
H23 H 0.7960 -0.0682 0.0302 0.0800 Uiso
H24 H 0.7908 -0.0243 -0.0203 0.0800 Uiso
H25 H 0.8699 -0.0095 -0.0322 0.0800 Uiso
H26 H 0.8706 0.0351 0.0369 0.0800 Uiso
H27 H 0.9179 0.0107 0.1288 0.0800 Uiso
H28 H 0.8718 -0.0495 0.1231 0.0800 Uiso
H29 H 0.8665 0.0282 0.2328 0.0800 Uiso
H30 H 0.8708 -0.0207 0.2905 0.0800 Uiso
H31 H 0.7930 -0.0340 0.2951 0.0800 Uiso
H32 H 0.7958 -0.0783 0.2270 0.0800 Uiso
loop_
_atom_site_aniso_label
_atom_site_aniso_U_11
_atom_site_aniso_U_22
_atom_site_aniso_U_33
_atom_site_aniso_U_23
_atom_site_aniso_U_13
_atom_site_aniso_U_12
Zn1 0.02430(17) 0.01756(15) 0.01107(16) -0.00010(11) 0.00057(11) 0.01107(13)
Zn2 0.03490(19) 0.02295(17) 0.01252(17) -0.00187(12) -0.00141(12) 0.01781(14)
Zn3 0.03411(19) 0.01874(16) 0.01096(17) -0.00214(11) -0.00104(12) 0.01355(14)
P1 0.0201(3) 0.0192(3) 0.0111(3) 0.0015(2) -0.0001(2) 0.0094(2)
P2 0.0251(3) 0.0180(3) 0.0106(3) -0.0017(2) -0.0015(2) 0.0109(2)
P3 0.0230(3) 0.0224(3) 0.0183(3) 0.0014(2) -0.0016(2) 0.0108(2)
P4 0.0284(3) 0.0246(3) 0.0139(3) -0.0026(2) -0.0002(2) 0.0158(3)
O1 0.0286(9) 0.0201(8) 0.0116(8) -0.0008(6) -0.0007(6) 0.0135(7)
O2 0.021 0.0214 0.0122 -0.0004 0.0007 0.0088
O3 0.0238 0.0288 0.0145 0.0032 -0.0002 0.0045
O4 0.0293(9) 0.0192(8) 0.0144(8) -0.0012(6) 0.0027(6) 0.0130(7)
O5 0.0416(10) 0.0227(9) 0.0158(9) -0.0058(7) -0.0013(7) 0.0166(8)
O6 0.052 0.0208 0.0126 -0.0022 -0.0015 0.0197
O7 0.0343(10) 0.0230(9) 0.0283(10) -0.0020(7) -0.0076(8) 0.0154(8)
O8 0.0298(9) 0.0323(9) 0.0185(9) 0.0004(7) -0.0023(7) 0.0161(8)
O9 0.0361 0.0259 0.0166 0.0028 -0.0004 0.0167
O10 0.0306(9) 0.0294(9) 0.0181(9) -0.0066(7) 0.0008(7) 0.0114(8)
O11 0.0332(10) 0.0337(10) 0.0292(10) 0.0079(8) 0.0043(8) 0.0204(8)
O12 0.0529 0.0254 0.0147 -0.0037 -0.0004 0.0168
Zn1H 0.01972 0.0243 0.01107 -0.00057 -0.00067 0.01323
Zn2D 0.02295 0.02223 0.01252 0.00046 0.00187 0.00514
Zn2L 0.0349 0.02295 0.01252 -0.00187 -0.00141 0.01781
Zn3L 0.03411 0.01874 0.01096 -0.00214 -0.00104 0.01355
O2D 0.0214 0.0248 0.0122 0.0011 0.0004 0.0126
O3H 0.0436 0.0238 0.0145 0.0002 0.0034 0.0193
O6L 0.052 0.0208 0.0126 -0.0022 -0.0015 0.0197
O9D 0.0259 0.0286 0.0166 -0.0032 -0.0028 0.0092
O12L 0.0529 0.0254 0.0147 -0.0037 -0.0004 0.0168
N1 0.0319(11) 0.0239(10) 0.0152(10) -0.0014(8) -0.0011(8) 0.0156(9)
C1 0.0226(12) 0.0233(12) 0.0223(13) 0.0012(10) 0.0018(10) 0.0115(10)
C2 0.0448(16) 0.0299(14) 0.0214(13) -0.0020(11) 0.0056(11) 0.0190(12)
C3 0.066(2) 0.0402(17) 0.0470(19) -0.0002(14) 0.0184(16) 0.0333(17)
C4 0.0501(18) 0.0312(15) 0.065(2) 0.0097(14) 0.0156(16) 0.0263(14)
C5 0.0382(16) 0.0392(16) 0.0508(19) 0.0136(14) 0.0002(14) 0.0232(14)
C6 0.0366(15) 0.0340(14) 0.0248(14) 0.0038(11) -0.0018(11) 0.0197(12)
N2 0.0311(12) 0.0407(13) 0.0203(11) -0.0061(9) -0.0017(9) 0.0208(10)
C7 0.0277(13) 0.0346(14) 0.0263(14) -0.0034(11) -0.0027(11) 0.0110(12)
C8 0.0341(15) 0.0411(16) 0.0269(15) 0.0057(12) 0.0060(11) 0.0167(13)
C9 0.0397(18) 0.068(2) 0.051(2) 0.0226(18) 0.0087(15) 0.0231(17)
C10 0.0297(16) 0.087(3) 0.071(3) 0.033(2) 0.0068(16) 0.0261(18)
C11 0.0357(18) 0.081(3) 0.056(2) 0.005(2) -0.0189(16) 0.0134(18)
C12 0.0371(17) 0.081(3) 0.0263(16) 0.0022(16) -0.0065(13) 0.0203(17)
loop_
_geom_bond_atom_site_label_1
_geom_bond_atom_site_label_2
_geom_bond_site_symmetry_1
_geom_bond_site_symmetry_2
Zn1 O1 1_555 1_555
Zn2 O8 1_555 1_555
Zn3 O5 1_555 1_555
P1 O1 1_555 1_555
P2 O4 1_555 1_555
P3 O7 1_555 1_555
P4 O10 1_555 1_555
O2 P1 1_555 1_555
O3 P1 1_555 1_555
O4 Zn1 1_555 1_555
O5 P2 1_555 1_555
O6 P2 1_555 1_555
O7 Zn3 1_555 1_555
O8 P3 1_555 1_555
O9 P3 1_555 1_555
O10 Zn3 1_555 1_555
O11 Zn2 1_555 1_555
O12 P4 1_555 1_555
H1 P1 1_555 1_555
H2 P2 1_555 1_555
H3 P3 1_555 1_555
H4 P4 1_555 1_555
N1 C1 1_555 1_555
C1 C2 1_555 1_555
C2 C3 1_555 1_555
C3 C4 1_555 1_555
C4 C5 1_555 1_555
C5 C6 1_555 1_555
C6 C1 1_555 1_555
H5 N1 1_555 1_555
H6 N1 1_555 1_555
H7 N1 1_555 1_555
H8 C1 1_555 1_555
H9 C3 1_555 1_555
H10 C2 1_555 1_555
H11 C2 1_555 1_555
H12 C3 1_555 1_555
H13 C4 1_555 1_555
H14 C4 1_555 1_555
H15 C5 1_555 1_555
H16 C5 1_555 1_555
H17 C6 1_555 1_555
H18 C6 1_555 1_555
N2 C7 1_555 1_555
C7 C8 1_555 1_555
C8 C9 1_555 1_555
C9 C10 1_555 1_555
C10 C11 1_555 1_555
C11 C12 1_555 1_555
C12 C7 1_555 1_555
H19 N2 1_555 1_555
H20 N2 1_555 1_555
H21 N2 1_555 1_555
H22 C7 1_555 1_555
H23 C8 1_555 1_555
H24 C8 1_555 1_555
H25 C9 1_555 1_555
H26 C9 1_555 1_555
H27 C10 1_555 1_555
H28 C10 1_555 1_555
H29 C11 1_555 1_555
H30 C11 1_555 1_555
H31 C12 1_555 1_555
H32 C12 1_555 1_555
Zn1H O2 1_555 1_555
Zn2D O3 1_555 1_555
Zn2L O12 1_555 1_555
Zn3L O6 1_555 1_555
O2D Zn1 1_555 1_555
O3H Zn2 1_555 1_555
O6L Zn3 1_555 1_555
O9D Zn1 1_555 1_555
O12L Zn2 1_555 1_555
P4 O11 1_555 1_555
O9 Zn1H 1_555 1_555

#END
