
#######################################################################
#
#                 Cambridge Crystallographic Data Centre
#                                CCDC 
#
#######################################################################
#
# If this CIF has been generated from an entry in the Cambridge 
# Structural Database, then it will include bibliographic, chemical, 
# crystal, experimental, refinement or atomic coordinate data resulting 
# from the CCDC's data processing and validation procedures.
#
#######################################################################

data_ATURIS
_chemical_formula_moiety         '(C27 H13 In1 N1 O8 1-)n'
_symmetry_cell_setting           orthorhombic
_symmetry_space_group_name_H-M   'P 21 21 21'
_symmetry_Int_Tables_number      19
_space_group_name_Hall           'P 2ac 2ab'
loop_
_symmetry_equiv_pos_site_id
_symmetry_equiv_pos_as_xyz
1 x,y,z
2 1/2-x,-y,1/2+z
3 -x,1/2+y,1/2-z
4 1/2+x,1/2-y,-z
_cell_length_a                   14.488(3)
_cell_length_b                   17.472(4)
_cell_length_c                   28.032(6)
_cell_angle_alpha                90
_cell_angle_beta                 90
_cell_angle_gamma                90
_cell_volume                     7095.86
loop_
_atom_site_label
_atom_site_type_symbol
_atom_site_fract_x
_atom_site_fract_y
_atom_site_fract_z
In1 In 0.575248(9) 0.632977(9) 0.200364(5)
O1 O 0.03656(10) 0.37461(10) 0.64449(5)
O2 O 0.45804(10) 0.61212(8) 0.25310(5)
C1 C 0.42262(16) 0.48901(12) 0.28513(7)
C2 C 0.07650(17) 0.48008(13) 0.47847(7)
C3 C -0.02287(17) 0.57515(17) 0.32672(8)
O3 O -0.27468(10) 0.59575(10) 0.20582(6)
C4 C -0.17659(16) 0.62717(17) 0.32242(8)
H1 H -0.2267 0.6499 0.3376
O4 O 0.54387(11) 0.51520(9) 0.23029(6)
C5 C 0.01862(15) 0.43976(14) 0.56961(8)
N1 N 0.03823(13) 0.53218(13) 0.40177(7)
O5 O 0.36062(11) 0.23451(9) 0.33678(6)
O6 O -0.33699(11) 0.65531(10) 0.26668(6)
O7 O -0.09590(11) 0.43106(10) 0.63036(5)
C6 C 0.41135(15) 0.27905(13) 0.31339(8)
C7 C 0.47719(15) 0.54334(12) 0.25471(8)
C8 C -0.26834(15) 0.62243(14) 0.24767(8)
O8 O 0.47416(11) 0.25378(9) 0.28700(5)
C9 C -0.01424(16) 0.41462(13) 0.61708(8)
C10 C 0.20846(15) 0.49470(14) 0.36230(8)
C11 C -0.09770(16) 0.61041(17) 0.34838(9)
H2 H -0.0949 0.6229 0.3806
C12 C 0.34591(15) 0.51612(14) 0.30969(7)
H3 H 0.3289 0.5672 0.3065
C13 C 0.32007(15) 0.39196(13) 0.34219(8)
H4 H 0.2870 0.3598 0.3624
C14 C 0.14066(16) 0.53094(14) 0.33455(9)
H5 H 0.1521 0.5438 0.3029
C15 C 0.18933(15) 0.47707(14) 0.40936(8)
H6 H 0.2328 0.4522 0.4282
C16 C 0.13379(17) 0.43782(17) 0.50800(9)
H7 H 0.1921 0.4235 0.4974
C17 C -0.18183(17) 0.61063(16) 0.27432(9)
C18 C 0.05515(15) 0.54723(14) 0.35578(8)
C19 C 0.29481(15) 0.46865(13) 0.33859(8)
C20 C 0.10352(16) 0.49746(15) 0.42789(8)
C21 C 0.10429(17) 0.41670(18) 0.55359(9)
H8 H 0.1422 0.3872 0.5731
C22 C 0.44543(14) 0.41240(13) 0.28792(7)
H9 H 0.4957 0.3940 0.2708
C23 C -0.00603(18) 0.50481(18) 0.49562(9)
H10 H -0.0435 0.5353 0.4765
C24 C 0.39409(14) 0.36222(14) 0.31604(7)
C25 C -0.03524(19) 0.48528(16) 0.54122(9)
H11 H -0.0916 0.5032 0.5525
C26 C -0.10745(19) 0.57595(19) 0.25312(9)
H12 H -0.1102 0.5629 0.2210
C27 C -0.02781(18) 0.5601(2) 0.27914(9)
H13 H 0.0229 0.5388 0.2637
In1_2 In -0.424752(9) 0.632977(9) 0.200364(5)
In1A In -0.075248(9) 0.367023(9) 0.700364(5)
In1B In 0.424752(9) 0.132977(9) 0.299636(5)
O1A O 0.46344(10) 0.62539(10) 0.14449(5)
O3_2 O 0.72532(10) 0.59575(10) 0.20582(6)
O5B O 0.63938(11) 0.73451(9) 0.16322(6)
O6_2 O 0.66301(11) 0.65531(10) 0.26668(6)
O7A O 0.59590(11) 0.56894(10) 0.13036(5)
O8B O 0.52584(11) 0.75378(9) 0.21300(5)
loop_
_geom_bond_atom_site_label_1
_geom_bond_atom_site_label_2
_geom_bond_site_symmetry_1
_geom_bond_site_symmetry_2
In1 O2 1_555 1_555
O1 C9 1_555 1_555
O2 C7 1_555 1_555
C1 C7 1_555 1_555
C2 C16 1_555 1_555
C3 C11 1_555 1_555
O3 C8 1_555 1_555
C4 H1 1_555 1_555
O4 In1 1_555 1_555
C5 C9 1_555 1_555
N1 C18 1_555 1_555
O5 C6 1_555 1_555
O6 C8 1_555 1_555
O7 C9 1_555 1_555
C6 O8 1_555 1_555
C7 O4 1_555 1_555
C8 C17 1_555 1_555
O8 In1B 1_555 1_555
C10 C14 1_555 1_555
C11 C4 1_555 1_555
H2 C11 1_555 1_555
C12 C1 1_555 1_555
H3 C12 1_555 1_555
C13 H4 1_555 1_555
C14 H5 1_555 1_555
C15 C10 1_555 1_555
H6 C15 1_555 1_555
C16 H7 1_555 1_555
C17 C4 1_555 1_555
C18 C3 1_555 1_555
C19 C10 1_555 1_555
C20 C2 1_555 1_555
C21 C5 1_555 1_555
H8 C21 1_555 1_555
C22 C1 1_555 1_555
H9 C22 1_555 1_555
C23 C2 1_555 1_555
H10 C23 1_555 1_555
C24 C6 1_555 1_555
C25 C5 1_555 1_555
H11 C25 1_555 1_555
C26 C17 1_555 1_555
H12 C26 1_555 1_555
C27 C3 1_555 1_555
H13 C27 1_555 1_555
In1_2 O3 1_555 1_555
In1A O1 1_555 1_555
In1B O5 1_555 1_555
O1A In1 1_555 1_555
O3_2 In1 1_555 1_555
O5B In1 1_555 1_555
O6_2 In1 1_555 1_555
O7A In1 1_555 1_555
O8B In1 1_555 1_555
N1 C20 1_555 1_555
O6 In1_2 1_555 1_555
O7 In1A 1_555 1_555
C12 C19 1_555 1_555
C13 C19 1_555 1_555
C13 C24 1_555 1_555
C14 C18 1_555 1_555
C15 C20 1_555 1_555
C16 C21 1_555 1_555
C22 C24 1_555 1_555
C23 C25 1_555 1_555
C26 C27 1_555 1_555

#END
