
#######################################################################
#
#                 Cambridge Crystallographic Data Centre
#                                CCDC 
#
#######################################################################
#
# If this CIF has been generated from an entry in the Cambridge 
# Structural Database, then it will include bibliographic, chemical, 
# crystal, experimental, refinement or atomic coordinate data resulting 
# from the CCDC's data processing and validation procedures.
#
#######################################################################

data_BADHUM
_chemical_formula_moiety         '(C26 H20 O12 Sc2)n'
_symmetry_cell_setting           orthorhombic
_symmetry_space_group_name_H-M   'F d d d'
_symmetry_Int_Tables_number      70
_space_group_name_Hall           '-F 2uv 2vw'
loop_
_symmetry_equiv_pos_site_id
_symmetry_equiv_pos_as_xyz
1 x,y,z
2 3/4-x,3/4-y,z
3 3/4-x,y,3/4-z
4 x,3/4-y,3/4-z
5 x,1/2+y,1/2+z
6 3/4-x,1/4-y,1/2+z
7 3/4-x,1/2+y,1/4-z
8 x,1/4-y,1/4-z
9 1/2+x,y,1/2+z
10 1/4-x,3/4-y,1/2+z
11 1/4-x,y,1/4-z
12 1/2+x,3/4-y,1/4-z
13 1/2+x,1/2+y,z
14 1/4-x,1/4-y,z
15 1/4-x,1/2+y,3/4-z
16 1/2+x,1/4-y,3/4-z
17 -x,-y,-z
18 1/4+x,1/4+y,-z
19 1/4+x,-y,1/4+z
20 -x,1/4+y,1/4+z
21 -x,1/2-y,1/2-z
22 1/4+x,3/4+y,1/2-z
23 1/4+x,1/2-y,3/4+z
24 -x,3/4+y,3/4+z
25 1/2-x,-y,1/2-z
26 3/4+x,1/4+y,1/2-z
27 3/4+x,-y,3/4+z
28 1/2-x,1/4+y,3/4+z
29 1/2-x,1/2-y,-z
30 3/4+x,3/4+y,-z
31 3/4+x,1/2-y,1/4+z
32 1/2-x,3/4+y,1/4+z
_cell_length_a                   8.8822(7)
_cell_length_b                   20.5861(12)
_cell_length_c                   33.922(2)
_cell_angle_alpha                90
_cell_angle_beta                 90
_cell_angle_gamma                90
_cell_volume                     6202.63
loop_
_atom_site_label
_atom_site_type_symbol
_atom_site_fract_x
_atom_site_fract_y
_atom_site_fract_z
Sc1 Sc 0.3750 0.3750 0.61408(3)
O1 O 0.7403(6) 0.3337(3) 0.67951(13)
O2 O 0.5054(7) 0.4575(2) 0.61493(17)
O3 O 0.5059(6) 0.3350(3) 0.65666(15)
C1 C 0.6063(9) 0.3208(4) 0.68223(18)
C2 C 0.5473(9) 0.2853(4) 0.7176(2)
C3 C 0.6250 0.5587(5) 0.6250
C4 C 0.6250 0.4851(4) 0.6250
C5 C 0.5995(9) 0.2329(4) 0.7791(2)
H1 H 0.6675 0.2212 0.7987
C6 C 0.6498(9) 0.2687(4) 0.74680(19)
H2 H 0.7501 0.2812 0.7449
C7 C 0.7599(11) 0.5905(3) 0.6254(3)
H3 H 0.8499 0.5675 0.6263
O1T O 0.2597(6) 0.1663(3) 0.82049(13)
O3T O 0.4941(6) 0.1650(3) 0.84334(15)
C1T C 0.3937(9) 0.1792(4) 0.81777(18)
C2T C 0.4527(9) 0.2147(4) 0.7824(2)
C5T C 0.4005(9) 0.2671(4) 0.7209(2)
H1T H 0.3325 0.2788 0.7013
C6T C 0.3502(9) 0.2313(4) 0.75320(19)
H2T H 0.2499 0.2188 0.7551
O2G O 0.5054(7) 0.7925(2) 0.63507(17)
C3G C 0.6250 0.6913(5) 0.6250
C4G C 0.6250 0.7649(4) 0.6250
C7G C 0.7599(11) 0.6595(3) 0.6246(3)
H3G H 0.8499 0.6825 0.6237
O2J O 0.7446(7) 0.4575(2) 0.63507(17)
C7J C 0.4901(11) 0.5905(3) 0.6246(3)
H3J H 0.4001 0.5675 0.6237
O2M O 0.7446(7) 0.7925(2) 0.61493(17)
C7M C 0.4901(11) 0.6595(3) 0.6254(3)
H3M H 0.4001 0.6825 0.6263
O1A O 0.0097(6) 0.4163(3) 0.67951(13)
O3A O 0.2441(6) 0.4150(3) 0.65666(15)
C1A C 0.1437(9) 0.4292(4) 0.68223(18)
C2A C 0.2027(9) 0.4647(4) 0.7176(2)
C5A C 0.1505(9) 0.5171(4) 0.7791(2)
H1A H 0.0825 0.5288 0.7987
C6A C 0.1002(9) 0.4813(4) 0.74680(19)
H2A H -0.0001 0.4688 0.7449
O1Y O 0.4903(6) 0.5837(3) 0.82049(13)
O3Y O 0.2559(6) 0.5850(3) 0.84334(15)
C1Y C 0.3563(9) 0.5708(4) 0.81777(18)
C2Y C 0.2973(9) 0.5353(4) 0.7824(2)
C5Y C 0.3495(9) 0.4829(4) 0.7209(2)
H1Y H 0.4175 0.4712 0.7013
C6Y C 0.3998(9) 0.5187(4) 0.75320(19)
H2Y H 0.5001 0.5312 0.7551
Sc1J Sc 0.8750 0.3750 0.63592(3)
Sc1F Sc 0.3750 0.8750 0.63592(3)
Sc1J_2 Sc -0.1250 0.3750 0.63592(3)
Sc1L Sc 0.8750 0.8750 0.61408(3)
Sc1R Sc 0.6250 0.6250 0.86408(3)
Sc1T Sc 0.6250 0.1250 0.88592(3)
Sc1X Sc 0.1250 0.6250 0.88592(3)
Sc1DA Sc 0.1250 0.1250 0.86408(3)
O1A_2 O 1.0097(6) 0.4163(3) 0.67951(13)
O1J O 0.5097(6) 0.3337(3) 0.57049(13)
O1K O 0.2403(6) 0.4163(3) 0.57049(13)
O2A O 0.2446(7) 0.2925(2) 0.61493(17)
O2K O 1.0054(7) 0.2925(2) 0.63507(17)
O3J O 0.7441(6) 0.3350(3) 0.59334(15)
O3K O 1.0059(6) 0.4150(3) 0.59334(15)
C8 C 1.1250 0.6250 0.6797(7)
H4 H 1.065(13) 0.657(5) 0.6921(14)
H5 H 1.182(12) 0.645(5) 0.659(2)
H4M H 1.185(13) 0.593(5) 0.6921(14)
H5M H 1.068(12) 0.605(5) 0.659(2)
C9 C 1.032(2) 0.3205(8) 0.7747(5)
H6 H 1.056(15) 0.323(5) 0.7474(10)
H7 H 0.938(7) 0.300(6) 0.778(4)
H8 H 1.108(10) 0.296(5) 0.788(3)
H9 H 1.028(16) 0.363(2) 0.786(3)
loop_
_geom_bond_atom_site_label_1
_geom_bond_atom_site_label_2
_geom_bond_site_symmetry_1
_geom_bond_site_symmetry_2
Sc1 O2 1_555 1_555
O1 C1 1_555 1_555
O2 C4 1_555 1_555
O3 Sc1 1_555 1_555
C1 O3 1_555 1_555
C2 C1 1_555 1_555
C3 C4 1_555 1_555
C4 O2J 1_555 1_555
C5 H1 1_555 1_555
C6 C2 1_555 1_555
H2 C6 1_555 1_555
C7 C3 1_555 1_555
H3 C7 1_555 1_555
C8 H4 1_555 1_555
H5 C8 1_555 1_555
C9 H6 1_555 1_555
H7 C9 1_555 1_555
H8 C9 1_555 1_555
H9 C9 1_555 1_555
O1T C1T 1_555 1_555
O3T C1T 1_555 1_555
C1T C2T 1_555 1_555
C2T C5 1_555 1_555
C5T C2 1_555 1_555
H1T C5T 1_555 1_555
C6T C2T 1_555 1_555
H2T C6T 1_555 1_555
O2G C4G 1_555 1_555
C3G C4G 1_555 1_555
C4G O2M 1_555 1_555
C7G C7 1_555 1_555
H3G C7G 1_555 1_555
O2J Sc1J 1_555 1_555
C7J C3 1_555 1_555
H3J C7J 1_555 1_555
O2M Sc1L 1_555 1_555
C7M C3G 1_555 1_555
H3M C7M 1_555 1_555
O1A C1A 1_555 1_555
O3A Sc1 1_555 1_555
C1A O3A 1_555 1_555
C2A C1A 1_555 1_555
C5A H1A 1_555 1_555
C6A C2A 1_555 1_555
H2A C6A 1_555 1_555
O1Y C1Y 1_555 1_555
O3Y C1Y 1_555 1_555
C1Y C2Y 1_555 1_555
C2Y C5A 1_555 1_555
C5Y C2A 1_555 1_555
H1Y C5Y 1_555 1_555
C6Y C2Y 1_555 1_555
H2Y C6Y 1_555 1_555
Sc1J O1 1_555 1_555
Sc1F O2G 1_555 1_555
Sc1J_2 O1A 1_555 1_555
Sc1R O1Y 1_555 1_555
Sc1T O3T 1_555 1_555
Sc1X O3Y 1_555 1_555
Sc1DA O1T 1_555 1_555
O1A_2 Sc1J 1_555 1_555
O1J Sc1 1_555 1_555
O1K Sc1 1_555 1_555
O2A Sc1 1_555 1_555
O2K Sc1J 1_555 1_555
O3J Sc1J 1_555 1_555
O3K Sc1J 1_555 1_555
H4M C8 1_555 1_555
H5M C8 1_555 1_555
C5 C6 1_555 1_555
C5T C6T 1_555 1_555
C3G C7G 1_555 1_555
C7J C7M 1_555 1_555
C5A C6A 1_555 1_555
C5Y C6Y 1_555 1_555

#END
