
#######################################################################
#
#                 Cambridge Crystallographic Data Centre
#                                CCDC 
#
#######################################################################
#
# If this CIF has been generated from an entry in the Cambridge 
# Structural Database, then it will include bibliographic, chemical, 
# crystal, experimental, refinement or atomic coordinate data resulting 
# from the CCDC's data processing and validation procedures.
#
#######################################################################

data_BADHIA
_chemical_formula_moiety         '(C26 H20 O12 Sc2)n'
_symmetry_cell_setting           orthorhombic
_symmetry_space_group_name_H-M   'F d d d'
_symmetry_Int_Tables_number      70
_space_group_name_Hall           '-F 2uv 2vw'
loop_
_symmetry_equiv_pos_site_id
_symmetry_equiv_pos_as_xyz
1 x,y,z
2 3/4-x,3/4-y,z
3 3/4-x,y,3/4-z
4 x,3/4-y,3/4-z
5 x,1/2+y,1/2+z
6 3/4-x,1/4-y,1/2+z
7 3/4-x,1/2+y,1/4-z
8 x,1/4-y,1/4-z
9 1/2+x,y,1/2+z
10 1/4-x,3/4-y,1/2+z
11 1/4-x,y,1/4-z
12 1/2+x,3/4-y,1/4-z
13 1/2+x,1/2+y,z
14 1/4-x,1/4-y,z
15 1/4-x,1/2+y,3/4-z
16 1/2+x,1/4-y,3/4-z
17 -x,-y,-z
18 1/4+x,1/4+y,-z
19 1/4+x,-y,1/4+z
20 -x,1/4+y,1/4+z
21 -x,1/2-y,1/2-z
22 1/4+x,3/4+y,1/2-z
23 1/4+x,1/2-y,3/4+z
24 -x,3/4+y,3/4+z
25 1/2-x,-y,1/2-z
26 3/4+x,1/4+y,1/2-z
27 3/4+x,-y,3/4+z
28 1/2-x,1/4+y,3/4+z
29 1/2-x,1/2-y,-z
30 3/4+x,3/4+y,-z
31 3/4+x,1/2-y,1/4+z
32 1/2-x,3/4+y,1/4+z
_cell_length_a                   8.8524(12)
_cell_length_b                   20.7005(19)
_cell_length_c                   34.194(3)
_cell_angle_alpha                90
_cell_angle_beta                 90
_cell_angle_gamma                90
_cell_volume                     6266.02
loop_
_atom_site_label
_atom_site_type_symbol
_atom_site_fract_x
_atom_site_fract_y
_atom_site_fract_z
Sc1 Sc 0.3750 0.3750 0.61411(3)
O1 O 0.7391(5) 0.33325(15) 0.67920(8)
O2 O 0.5055(5) 0.45792(14) 0.61500(10)
O3 O 0.5043(5) 0.33436(16) 0.65728(9)
C1 C 0.6046(7) 0.3202(2) 0.68237(13)
C2 C 0.5481(7) 0.2841(2) 0.71752(13)
C3 C 0.6250 0.5579(3) 0.6250
C4 C 0.6250 0.4858(3) 0.6250
C5 C 0.5996(7) 0.2309(3) 0.77811(14)
H1 H 0.6683 0.2179 0.7971
C6 C 0.6515(7) 0.2655(3) 0.74567(14)
H2 H 0.7532 0.2758 0.7431
C7 C 0.7584(8) 0.5913(2) 0.62551(18)
H3 H 0.8495 0.5690 0.6266
O1T O 0.2609(5) 0.16675(15) 0.82080(8)
O3T O 0.4957(5) 0.16564(16) 0.84272(9)
C1T C 0.3954(7) 0.1798(2) 0.81763(13)
C2T C 0.4519(7) 0.2159(2) 0.78248(13)
C5T C 0.4004(7) 0.2691(3) 0.72189(14)
H1T H 0.3317 0.2821 0.7029
C6T C 0.3485(7) 0.2345(3) 0.75433(14)
H2T H 0.2468 0.2242 0.7569
O2G O 0.5055(5) 0.79208(14) 0.63500(10)
C3G C 0.6250 0.6921(3) 0.6250
C4G C 0.6250 0.7642(3) 0.6250
C7G C 0.7584(8) 0.6587(2) 0.62449(18)
H3G H 0.8495 0.6810 0.6234
O2J O 0.7445(5) 0.45792(14) 0.63500(10)
C7J C 0.4916(8) 0.5913(2) 0.62449(18)
H3J H 0.4005 0.5690 0.6234
O2M O 0.7445(5) 0.79208(14) 0.61500(10)
C7M C 0.4916(8) 0.6587(2) 0.62551(18)
H3M H 0.4005 0.6810 0.6266
O1A O 0.0109(5) 0.41675(15) 0.67920(8)
O3A O 0.2457(5) 0.41564(16) 0.65728(9)
C1A C 0.1454(7) 0.4298(2) 0.68237(13)
C2A C 0.2019(7) 0.4659(2) 0.71752(13)
C5A C 0.1504(7) 0.5191(3) 0.77811(14)
H1A H 0.0817 0.5321 0.7971
C6A C 0.0985(7) 0.4845(3) 0.74567(14)
H2A H -0.0032 0.4742 0.7431
O1Y O 0.4891(5) 0.58325(15) 0.82080(8)
O3Y O 0.2543(5) 0.58436(16) 0.84272(9)
C1Y C 0.3546(7) 0.5702(2) 0.81763(13)
C2Y C 0.2981(7) 0.5341(2) 0.78248(13)
C5Y C 0.3496(7) 0.4809(3) 0.72189(14)
H1Y H 0.4183 0.4679 0.7029
C6Y C 0.4015(7) 0.5155(3) 0.75433(14)
H2Y H 0.5032 0.5258 0.7569
Sc1J Sc 0.8750 0.3750 0.63589(3)
Sc1F Sc 0.3750 0.8750 0.63589(3)
Sc1J_2 Sc -0.1250 0.3750 0.63589(3)
Sc1L Sc 0.8750 0.8750 0.61411(3)
Sc1R Sc 0.6250 0.6250 0.86411(3)
Sc1T Sc 0.6250 0.1250 0.88589(3)
Sc1X Sc 0.1250 0.6250 0.88589(3)
Sc1DA Sc 0.1250 0.1250 0.86411(3)
O1A_2 O 1.0109(5) 0.41675(15) 0.67920(8)
O1J O 0.5109(5) 0.33325(15) 0.57080(8)
O1K O 0.2391(5) 0.41675(15) 0.57080(8)
O2A O 0.2445(5) 0.29208(14) 0.61500(10)
O2K O 1.0055(5) 0.29208(14) 0.63500(10)
O3J O 0.7457(5) 0.33436(16) 0.59272(9)
O3K O 1.0043(5) 0.41564(16) 0.59272(9)
C8 C 1.1250 0.6250 0.6790(5)
H4 H 1.050(9) 0.632(5) 0.698(2)
H5 H 1.146(13) 0.664(2) 0.6656(15)
H4M H 1.200(9) 0.618(5) 0.698(2)
H5M H 1.104(13) 0.586(2) 0.6656(15)
C9 C 1.018(3) 0.3206(8) 0.7723(5)
H6 H 1.017(16) 0.315(6) 0.7448(7)
H7 H 1.017(16) 0.280(3) 0.785(3)
H8 H 1.107(9) 0.343(6) 0.780(4)
H9 H 0.932(9) 0.345(6) 0.780(3)
loop_
_geom_bond_atom_site_label_1
_geom_bond_atom_site_label_2
_geom_bond_site_symmetry_1
_geom_bond_site_symmetry_2
Sc1 O2 1_555 1_555
O1 C1 1_555 1_555
O2 C4 1_555 1_555
O3 Sc1 1_555 1_555
C1 O3 1_555 1_555
C2 C1 1_555 1_555
C3 C4 1_555 1_555
C4 O2J 1_555 1_555
C5 H1 1_555 1_555
C6 C2 1_555 1_555
H2 C6 1_555 1_555
C7 C3 1_555 1_555
H3 C7 1_555 1_555
C8 H4 1_555 1_555
H5 C8 1_555 1_555
C9 H6 1_555 1_555
H7 C9 1_555 1_555
H8 C9 1_555 1_555
H9 C9 1_555 1_555
O1T C1T 1_555 1_555
O3T C1T 1_555 1_555
C1T C2T 1_555 1_555
C2T C5 1_555 1_555
C5T C2 1_555 1_555
H1T C5T 1_555 1_555
C6T C2T 1_555 1_555
H2T C6T 1_555 1_555
O2G C4G 1_555 1_555
C3G C4G 1_555 1_555
C4G O2M 1_555 1_555
C7G C7 1_555 1_555
H3G C7G 1_555 1_555
O2J Sc1J 1_555 1_555
C7J C3 1_555 1_555
H3J C7J 1_555 1_555
O2M Sc1L 1_555 1_555
C7M C3G 1_555 1_555
H3M C7M 1_555 1_555
O1A C1A 1_555 1_555
O3A Sc1 1_555 1_555
C1A O3A 1_555 1_555
C2A C1A 1_555 1_555
C5A H1A 1_555 1_555
C6A C2A 1_555 1_555
H2A C6A 1_555 1_555
O1Y C1Y 1_555 1_555
O3Y C1Y 1_555 1_555
C1Y C2Y 1_555 1_555
C2Y C5A 1_555 1_555
C5Y C2A 1_555 1_555
H1Y C5Y 1_555 1_555
C6Y C2Y 1_555 1_555
H2Y C6Y 1_555 1_555
Sc1J O1 1_555 1_555
Sc1F O2G 1_555 1_555
Sc1J_2 O1A 1_555 1_555
Sc1R O1Y 1_555 1_555
Sc1T O3T 1_555 1_555
Sc1X O3Y 1_555 1_555
Sc1DA O1T 1_555 1_555
O1A_2 Sc1J 1_555 1_555
O1J Sc1 1_555 1_555
O1K Sc1 1_555 1_555
O2A Sc1 1_555 1_555
O2K Sc1J 1_555 1_555
O3J Sc1J 1_555 1_555
O3K Sc1J 1_555 1_555
H4M C8 1_555 1_555
H5M C8 1_555 1_555
C5 C6 1_555 1_555
C5T C6T 1_555 1_555
C3G C7G 1_555 1_555
C7J C7M 1_555 1_555
C5A C6A 1_555 1_555
C5Y C6Y 1_555 1_555

#END
