
#######################################################################
#
#                 Cambridge Crystallographic Data Centre
#                                CCDC 
#
#######################################################################
#
# If this CIF has been generated from an entry in the Cambridge 
# Structural Database, then it will include bibliographic, chemical, 
# crystal, experimental, refinement or atomic coordinate data resulting 
# from the CCDC's data processing and validation procedures.
#
#######################################################################

data_BADHUM01
_chemical_formula_moiety         '(C54 H48 O24 Sc4)n'
_symmetry_cell_setting           monoclinic
_symmetry_space_group_name_H-M   'P 21/c'
_symmetry_Int_Tables_number      14
_space_group_name_Hall           '-P 2ybc'
loop_
_symmetry_equiv_pos_site_id
_symmetry_equiv_pos_as_xyz
1 x,y,z
2 -x,1/2+y,1/2-z
3 -x,-y,-z
4 x,1/2-y,1/2+z
_cell_length_a                   8.887(3)
_cell_length_b                   32.456(8)
_cell_length_c                   10.6584(18)
_cell_angle_alpha                90
_cell_angle_beta                 112.051(11)
_cell_angle_gamma                90
_cell_volume                     2849.39
loop_
_atom_site_label
_atom_site_type_symbol
_atom_site_fract_x
_atom_site_fract_y
_atom_site_fract_z
Sc1 Sc 0.2699(9) 0.61437(17) 0.2554(6)
Sc2 Sc 0.7719(9) 0.63740(17) 0.2556(6)
O1 O 0.360(3) 0.6433(7) 0.128(2)
O2 O 0.399(4) 0.5641(7) 0.239(2)
O3 O 0.457(3) 0.6392(7) 0.423(2)
O4 O 0.635(3) 0.5844(7) 0.238(2)
O5 O -0.082(3) 0.8111(7) -0.212(2)
O6 O 1.182(4) 0.5844(7) 0.381(2)
O7 O 0.576(4) 0.6676(6) 0.104(2)
C1 C 0.440(5) 0.6688(9) 0.081(4)
C2 C 0.511(6) 0.5597(10) 0.202(3)
O8 O 0.959(3) 0.6078(7) 0.404(2)
O9 O 0.843(3) 0.6132(7) 1.114(2)
O10 O 0.133(3) 0.8348(6) -0.244(2)
O11 O 0.690(3) 0.6574(7) 0.400(2)
C3 C 0.611(5) 0.6450(9) 0.469(2)
O12 O 1.073(3) 0.5970(7) 1.079(2)
C4 C 0.936(2) 0.6196(7) 0.807(2)
H1 H 1.0469 0.6139 0.8425
C5 C 0.860(3) 0.6295(7) 0.670(2)
H2 H 0.9197 0.6304 0.6150
C6 C 0.695(3) 0.6379(7) 0.6167(15)
C7 C 0.605(2) 0.6365(7) 0.699(2)
H3 H 0.4947 0.6422 0.6636
C8 C 0.682(3) 0.6267(7) 0.836(2)
H4 H 0.6219 0.6257 0.8910
C9 C 0.847(3) 0.6182(7) 0.8893(14)
C10 C 0.927(5) 0.6094(9) 1.037(2)
C11 C 0.155(2) 0.7695(5) -0.149(2)
C12 C 0.0752(19) 0.7389(6) -0.107(2)
H5 H -0.0359 0.7409 -0.1271
C13 C 0.161(2) 0.7053(5) -0.034(2)
H6 H 0.1079 0.6849 -0.0054
C14 C 0.327(2) 0.7023(5) -0.003(2)
C15 C 0.4074(19) 0.7329(6) -0.045(2)
H7 H 0.5185 0.7308 -0.0247
C16 C 0.321(2) 0.7664(5) -0.118(2)
H8 H 0.3747 0.7869 -0.1464
C17 C 0.051(5) 0.8063(8) -0.210(3)
C18 C 0.505(4) 0.5289(9) 0.096(3)
C19 C 1.030(4) 0.5386(7) 0.457(3)
C20 C 1.144(4) 0.5068(7) 0.477(3)
H9 H 1.2409 0.5120 0.4655
C21 C 1.070(7) 0.5805(9) 0.417(4)
C22 C 1.114(4) 0.4675(8) 0.516(3)
H10 H 1.1853 0.4459 0.5229
C23 C 0.628(5) 0.5263(10) 0.046(3)
H11 H 0.7174 0.5435 0.0839
C24 C 0.626(5) 0.4998(10) -0.058(3)
H12 H 0.7031 0.5006 -0.0977
O2B O 0.601(4) 0.4359(7) -0.239(2)
O4B O 0.365(3) 0.4156(7) -0.238(2)
C2B C 0.489(6) 0.4403(10) -0.202(3)
C18B C 0.495(4) 0.4711(9) -0.096(3)
C23B C 0.372(5) 0.4737(10) -0.046(3)
H11B H 0.2826 0.4565 -0.0839
C24B C 0.374(5) 0.5002(10) 0.058(3)
H12B H 0.2969 0.4994 0.0977
O6B O 0.818(4) 0.4156(7) 0.619(2)
O8B O 1.041(3) 0.3922(7) 0.596(2)
C19B C 0.970(4) 0.4614(7) 0.543(3)
C20B C 0.856(4) 0.4932(7) 0.523(3)
H9B H 0.7591 0.4880 0.5345
C21B C 0.930(7) 0.4195(9) 0.583(4)
C22B C 0.886(4) 0.5325(8) 0.484(3)
H10B H 0.8147 0.5541 0.4771
Sc1B Sc 0.7301(9) 0.38563(17) -0.2554(6)
Sc2B Sc 0.2281(9) 0.36260(17) -0.2556(6)
O1B O 0.640(3) 0.3567(7) -0.128(2)
O3B O 0.543(3) 0.3608(7) -0.423(2)
O5B O 1.082(3) 0.1889(7) 0.212(2)
O7B O 0.424(4) 0.3324(6) -0.104(2)
C1B C 0.560(5) 0.3312(9) -0.081(4)
O9B O 0.157(3) 0.3868(7) -1.114(2)
O10B O 0.867(3) 0.1652(6) 0.244(2)
O11B O 0.310(3) 0.3426(7) -0.400(2)
C3B C 0.389(5) 0.3550(9) -0.469(2)
O12B O -0.073(3) 0.4030(7) -1.079(2)
C4B C 0.064(2) 0.3804(7) -0.807(2)
H1B H -0.0469 0.3861 -0.8425
C5B C 0.140(3) 0.3705(7) -0.670(2)
H2B H 0.0803 0.3696 -0.6150
C6B C 0.305(3) 0.3621(7) -0.6167(15)
C7B C 0.395(2) 0.3635(7) -0.699(2)
H3B H 0.5053 0.3578 -0.6636
C8B C 0.318(3) 0.3733(7) -0.836(2)
H4B H 0.3781 0.3743 -0.8910
C9B C 0.153(3) 0.3818(7) -0.8893(14)
C10B C 0.073(5) 0.3906(9) -1.037(2)
C11B C 0.845(2) 0.2305(5) 0.149(2)
C12B C 0.9248(19) 0.2611(6) 0.107(2)
H5B H 1.0359 0.2591 0.1271
C13B C 0.839(2) 0.2947(5) 0.034(2)
H6B H 0.8921 0.3151 0.0054
C14B C 0.673(2) 0.2977(5) 0.003(2)
C15B C 0.5926(19) 0.2671(6) 0.045(2)
H7B H 0.4815 0.2692 0.0247
C16B C 0.679(2) 0.2336(5) 0.118(2)
H8B H 0.6253 0.2131 0.1464
C17B C 0.949(5) 0.1937(8) 0.210(3)
Sc1_2 Sc 1.2699(9) 0.61437(17) 0.2554(6)
Sc1_3 Sc 1.2699(9) 0.61437(17) 1.2554(6)
Sc1A Sc 0.7301(9) 0.11437(17) 0.2446(6)
Sc1B_2 Sc -0.2699(9) 0.38563(17) -1.2554(6)
Sc1B_3 Sc 0.7301(9) 0.38563(17) 0.7446(6)
Sc1C Sc 0.2699(9) 0.88563(17) -0.2446(6)
Sc2_2 Sc 0.7719(9) 0.63740(17) 1.2556(6)
Sc2A Sc 1.2281(9) 0.13740(17) 0.2444(6)
Sc2B_2 Sc 0.2281(9) 0.36260(17) -1.2556(6)
Sc2B_3 Sc 1.2281(9) 0.36260(17) 0.7444(6)
Sc2C Sc -0.2281(9) 0.86260(17) -0.2444(6)
O5A O 0.082(3) 0.3111(7) -0.288(2)
O5C O 0.918(3) 0.6889(7) 0.288(2)
O6_2 O 0.182(4) 0.5844(7) 0.381(2)
O6B_2 O 0.818(4) 0.4156(7) -0.381(2)
O8B_2 O 0.041(3) 0.3922(7) -0.404(2)
O9_2 O 0.843(3) 0.6132(7) 0.114(2)
O9B_2 O 0.157(3) 0.3868(7) -0.114(2)
O10A O 0.867(3) 0.3348(6) -0.256(2)
O10C O 0.133(3) 0.6652(6) 0.256(2)
O12_2 O 0.073(3) 0.5970(7) 0.079(2)
O12B_2 O 0.927(3) 0.4030(7) -0.079(2)
C25 C 0.561(6) 0.5375(12) 0.621(4)
C26 C 0.213(8) 0.6818(16) 0.629(5)
C27 C 1.017(6) 0.4870(12) 0.161(4)
C28 C 0.840(8) 0.7341(15) 0.558(6)
C29 C 0.624(8) 0.7693(16) 0.244(6)
C30 C 1.305(7) 0.5813(14) 0.794(5)
loop_
_geom_bond_atom_site_label_1
_geom_bond_atom_site_label_2
_geom_bond_site_symmetry_1
_geom_bond_site_symmetry_2
Sc1 O1 1_555 1_555
Sc2 O4 1_555 1_555
O1 C1 1_555 1_555
O2 Sc1 1_555 1_555
O3 Sc1 1_555 1_555
O4 C2 1_555 1_555
O5 C17 1_555 1_555
O6 C21 1_555 1_555
O7 Sc2 1_555 1_555
C1 O7 1_555 1_555
C2 O2 1_555 1_555
O8 Sc2 1_555 1_555
O9 C10 1_555 1_555
O10 C17 1_555 1_555
O11 Sc2 1_555 1_555
C3 O3 1_555 1_555
O12 C10 1_555 1_555
C4 H1 1_555 1_555
C5 C4 1_555 1_555
H2 C5 1_555 1_555
C6 C3 1_555 1_555
C7 C6 1_555 1_555
H3 C7 1_555 1_555
C8 C7 1_555 1_555
H4 C8 1_555 1_555
C9 C4 1_555 1_555
C10 C9 1_555 1_555
C11 C12 1_555 1_555
C12 H5 1_555 1_555
C13 C12 1_555 1_555
H6 C13 1_555 1_555
C14 C1 1_555 1_555
C15 C14 1_555 1_555
H7 C15 1_555 1_555
C16 C11 1_555 1_555
H8 C16 1_555 1_555
C17 C11 1_555 1_555
C18 C2 1_555 1_555
C19 C20 1_555 1_555
C20 H9 1_555 1_555
C21 O8 1_555 1_555
C22 C20 1_555 1_555
H10 C22 1_555 1_555
C23 C18 1_555 1_555
H11 C23 1_555 1_555
C24 C23 1_555 1_555
H12 C24 1_555 1_555
O2B C2B 1_555 1_555
O4B C2B 1_555 1_555
C2B C18B 1_555 1_555
C18B C24 1_555 1_555
C23B C18B 1_555 1_555
H11B C23B 1_555 1_555
C24B C18 1_555 1_555
H12B C24B 1_555 1_555
O6B C21B 1_555 1_555
O8B C21B 1_555 1_555
C19B C22 1_555 1_555
C20B C19B 1_555 1_555
H9B C20B 1_555 1_555
C21B C19B 1_555 1_555
C22B C19 1_555 1_555
H10B C22B 1_555 1_555
Sc1B O2B 1_555 1_555
Sc2B O4B 1_555 1_555
O1B Sc1B 1_555 1_555
O3B Sc1B 1_555 1_555
O5B C17B 1_555 1_555
O7B Sc2B 1_555 1_555
C1B O1B 1_555 1_555
O9B C10B 1_555 1_555
O10B C17B 1_555 1_555
O11B Sc2B 1_555 1_555
C3B O3B 1_555 1_555
O12B C10B 1_555 1_555
C4B H1B 1_555 1_555
C5B C4B 1_555 1_555
H2B C5B 1_555 1_555
C6B C3B 1_555 1_555
C7B C6B 1_555 1_555
H3B C7B 1_555 1_555
C8B C7B 1_555 1_555
H4B C8B 1_555 1_555
C9B C4B 1_555 1_555
C10B C9B 1_555 1_555
C11B C12B 1_555 1_555
C12B H5B 1_555 1_555
C13B C12B 1_555 1_555
H6B C13B 1_555 1_555
C14B C1B 1_555 1_555
C15B C14B 1_555 1_555
H7B C15B 1_555 1_555
C16B C11B 1_555 1_555
H8B C16B 1_555 1_555
C17B C11B 1_555 1_555
Sc1_2 O6 1_555 1_555
Sc1_3 O12 1_555 1_555
Sc1A O10B 1_555 1_555
Sc1B_2 O12B 1_555 1_555
Sc1B_3 O6B 1_555 1_555
Sc1C O10 1_555 1_555
Sc2_2 O9 1_555 1_555
Sc2A O5B 1_555 1_555
Sc2B_2 O9B 1_555 1_555
Sc2B_3 O8B 1_555 1_555
Sc2C O5 1_555 1_555
O5A Sc2B 1_555 1_555
O5C Sc2 1_555 1_555
O6_2 Sc1 1_555 1_555
O6B_2 Sc1B 1_555 1_555
O8B_2 Sc2B 1_555 1_555
O9_2 Sc2 1_555 1_555
O9B_2 Sc2B 1_555 1_555
O10A Sc1B 1_555 1_555
O10C Sc1 1_555 1_555
O12_2 Sc1 1_555 1_555
O12B_2 Sc1B 1_555 1_555
O11 C3 1_555 1_555
C5 C6 1_555 1_555
C8 C9 1_555 1_555
C13 C14 1_555 1_555
C15 C16 1_555 1_555
C19 C21 1_555 1_555
C23B C24B 1_555 1_555
C20B C22B 1_555 1_555
O7B C1B 1_555 1_555
O11B C3B 1_555 1_555
C5B C6B 1_555 1_555
C8B C9B 1_555 1_555
C13B C14B 1_555 1_555
C15B C16B 1_555 1_555

#END
