
#######################################################################
#
#                 Cambridge Crystallographic Data Centre
#                                CCDC 
#
#######################################################################
#
# If this CIF has been generated from an entry in the Cambridge 
# Structural Database, then it will include bibliographic, chemical, 
# crystal, experimental, refinement or atomic coordinate data resulting 
# from the CCDC's data processing and validation procedures.
#
#######################################################################

data_BADJIC
_chemical_formula_moiety         '(C27 H12 O18 Sc2)n'
_symmetry_cell_setting           monoclinic
_symmetry_space_group_name_H-M   'C 2/c'
_symmetry_Int_Tables_number      15
_space_group_name_Hall           '-C 2yc'
loop_
_symmetry_equiv_pos_site_id
_symmetry_equiv_pos_as_xyz
1 x,y,z
2 -x,y,1/2-z
3 1/2+x,1/2+y,z
4 1/2-x,1/2+y,1/2-z
5 -x,-y,-z
6 x,-y,1/2+z
7 1/2-x,1/2-y,-z
8 1/2+x,1/2-y,1/2+z
_cell_length_a                   8.7509(16)
_cell_length_b                   34.339(5)
_cell_length_c                   11.0652(13)
_cell_angle_alpha                90
_cell_angle_beta                 110.917(10)
_cell_angle_gamma                90
_cell_volume                     3105.93
loop_
_atom_site_label
_atom_site_type_symbol
_atom_site_fract_x
_atom_site_fract_y
_atom_site_fract_z
Sc1 Sc 0.5000 0.36605(7) 0.2500
Sc2 Sc 1.0000 0.38725(7) 0.2500
O1 O 0.9281(11) 0.3873(3) 0.4068(7)
O2 O 0.6961(10) 0.3678(2) 0.4274(6)
O3 O 0.8314(9) 0.43148(19) 0.1558(7)
O4 O 0.6045(10) 0.4090(2) 0.1790(7)
O5 O 0.8371(11) 0.3445(2) 0.1579(9)
O6 O 0.6088(11) 0.3228(2) 0.1740(8)
C1 C 0.8433(15) 0.3783(3) 0.4722(9)
C2 C 0.9244(14) 0.3795(3) 0.6169(9)
C3 C 0.840(3) 0.3894(9) 0.6952(17)
H1 H 0.7297 0.3961 0.6578
C4 C 0.914(3) 0.3897(7) 0.8297(17)
H2 H 0.8557 0.3966 0.8818
C5 C 0.6826(14) 0.4338(3) 0.1379(10)
C6 C 0.5879(13) 0.4678(3) 0.0668(9)
C7 C 0.6607(14) 0.4923(3) 0.0000(10)
H3 H 0.7644 0.4871 -0.0014
C8 C 0.5697(13) 0.5250(3) -0.0648(10)
H4 H 0.6162 0.5421 -0.1070
C9 C 0.7294(15) 0.3197(3) 0.1397(11)
C10 C 0.7410(14) 0.2828(3) 0.0682(11)
C11 C 0.6211(18) 0.2539(3) 0.0482(15)
H5 H 0.5351 0.2566 0.0782
C12 C 0.6386(18) 0.2210(4) -0.0195(15)
H6 H 0.5640 0.2008 -0.0316
O1A O 1.0719(11) 0.3873(3) 1.0932(7)
O2A O 1.3039(10) 0.3678(2) 1.0726(6)
C1A C 1.1567(15) 0.3783(3) 1.0278(9)
C2A C 1.0756(14) 0.3795(3) 0.8831(9)
C3A C 1.160(3) 0.3894(9) 0.8048(17)
H1A H 1.2703 0.3961 0.8422
C4A C 1.086(3) 0.3897(7) 0.6703(17)
H2A H 1.1443 0.3966 0.6182
O3D O 0.1686(9) 0.56852(19) -0.1558(7)
O4D O 0.3955(10) 0.5910(2) -0.1790(7)
C5D C 0.3174(14) 0.5662(3) -0.1379(10)
C6D C 0.4121(13) 0.5322(3) -0.0668(9)
C7D C 0.3393(14) 0.5077(3) 0.0000(10)
H3D H 0.2356 0.5129 0.0014
C8D C 0.4303(13) 0.4750(3) 0.0648(10)
H4D H 0.3838 0.4579 0.1070
O5F O 0.6629(11) 0.1555(2) -0.1579(9)
O6F O 0.8912(11) 0.1772(2) -0.1740(8)
C9F C 0.7706(15) 0.1803(3) -0.1397(11)
C10F C 0.7590(14) 0.2172(3) -0.0682(11)
C11F C 0.8789(18) 0.2461(3) -0.0482(15)
H5F H 0.9649 0.2434 -0.0782
C12F C 0.8614(18) 0.2790(4) 0.0195(15)
H6F H 0.9360 0.2992 0.0316
Sc1_2 Sc 1.5000 0.36605(7) 1.2500
Sc1D Sc 0.5000 0.63395(7) -0.2500
Sc1F Sc 1.0000 0.13395(7) -0.2500
Sc2_2 Sc 1.0000 0.38725(7) 1.2500
Sc2D Sc 0.0000 0.61275(7) -0.2500
Sc2F Sc 0.5000 0.11275(7) -0.2500
O1A_2 O 1.0719(11) 0.3873(3) 0.0932(7)
O2A_2 O 0.3039(10) 0.3678(2) 0.0726(6)
O3A O 1.1686(9) 0.43148(19) 0.3442(7)
O4A O 0.3955(10) 0.4090(2) 0.3210(7)
O5A O 1.1629(11) 0.3445(2) 0.3421(9)
O6A O 0.3912(11) 0.3228(2) 0.3260(8)
C15 C 1.0000 0.5155(10) 0.2500
O7 O 1.0719(15) 0.5117(4) 0.1786(10)
O7A O 0.9281(15) 0.5117(4) 0.3214(10)
C16 C 0.684(3) 0.2969(10) 0.661(2)
O8 O 0.590(3) 0.3172(9) 0.687(3)
O9 O 0.774(3) 0.2774(9) 0.629(3)
C17 C 0.5000 0.4026(12) 0.7500
O10 O 0.451(5) 0.4010(10) 0.63589(10)
O10A O 0.549(5) 0.4010(10) 0.86411(10)
loop_
_geom_bond_atom_site_label_1
_geom_bond_atom_site_label_2
_geom_bond_site_symmetry_1
_geom_bond_site_symmetry_2
Sc1 O2 1_555 1_555
Sc2 O1 1_555 1_555
O1 C1 1_555 1_555
O2 C1 1_555 1_555
O3 Sc2 1_555 1_555
O4 Sc1 1_555 1_555
O5 Sc2 1_555 1_555
O6 Sc1 1_555 1_555
C1 C2 1_555 1_555
C2 C3 1_555 1_555
C3 H1 1_555 1_555
C4 C3 1_555 1_555
H2 C4 1_555 1_555
C5 O3 1_555 1_555
C6 C5 1_555 1_555
C7 C6 1_555 1_555
H3 C7 1_555 1_555
C8 C7 1_555 1_555
H4 C8 1_555 1_555
C9 O5 1_555 1_555
C10 C9 1_555 1_555
C11 C10 1_555 1_555
H5 C11 1_555 1_555
C12 C11 1_555 1_555
H6 C12 1_555 1_555
C15 O7 1_555 1_555
C16 O8 1_555 1_555
O9 C16 1_555 1_555
C17 O10 1_555 1_555
O1A C1A 1_555 1_555
O2A C1A 1_555 1_555
C1A C2A 1_555 1_555
C2A C4 1_555 1_555
C3A C2A 1_555 1_555
H1A C3A 1_555 1_555
C4A C2 1_555 1_555
H2A C4A 1_555 1_555
O3D C5D 1_555 1_555
O4D C5D 1_555 1_555
C5D C6D 1_555 1_555
C6D C8 1_555 1_555
C7D C6D 1_555 1_555
H3D C7D 1_555 1_555
C8D C6 1_555 1_555
H4D C8D 1_555 1_555
O5F C9F 1_555 1_555
O6F C9F 1_555 1_555
C9F C10F 1_555 1_555
C10F C12 1_555 1_555
C11F C10F 1_555 1_555
H5F C11F 1_555 1_555
C12F C10 1_555 1_555
H6F C12F 1_555 1_555
Sc1_2 O2A 1_555 1_555
Sc1D O4D 1_555 1_555
Sc1F O6F 1_555 1_555
Sc2_2 O1A 1_555 1_555
Sc2D O3D 1_555 1_555
Sc2F O5F 1_555 1_555
O1A_2 Sc2 1_555 1_555
O2A_2 Sc1 1_555 1_555
O3A Sc2 1_555 1_555
O4A Sc1 1_555 1_555
O5A Sc2 1_555 1_555
O6A Sc1 1_555 1_555
O7A C15 1_555 1_555
O10A C17 1_555 1_555
O4 C5 1_555 1_555
O6 C9 1_555 1_555
C3A C4A 1_555 1_555
C7D C8D 1_555 1_555
C11F C12F 1_555 1_555

#END
