
#######################################################################
#
#                 Cambridge Crystallographic Data Centre
#                                CCDC 
#
#######################################################################
#
# If this CIF has been generated from an entry in the Cambridge 
# Structural Database, then it will include bibliographic, chemical, 
# crystal, experimental, refinement or atomic coordinate data resulting 
# from the CCDC's data processing and validation procedures.
#
#######################################################################

data_LECFAC
_chemical_formula_moiety         '(C120 H76 Cu18 N36 O74 S4)n'
_symmetry_cell_setting           cubic
_symmetry_space_group_name_H-M   'I -4 3 m'
_symmetry_Int_Tables_number      217
_space_group_name_Hall           'I -4 2 3'
loop_
_symmetry_equiv_pos_site_id
_symmetry_equiv_pos_as_xyz
1 x,y,z
2 x,-y,-z
3 -x,-y,z
4 -x,y,-z
5 y,-x,-z
6 -y,-x,z
7 -y,x,-z
8 y,x,z
9 y,z,x
10 -y,-z,x
11 y,-z,-x
12 -y,z,-x
13 z,-y,-x
14 z,y,x
15 -z,y,-x
16 -z,-y,x
17 z,x,y
18 -z,x,-y
19 -z,-x,y
20 z,-x,-y
21 x,z,y
22 x,-z,-y
23 -x,z,-y
24 -x,-z,y
25 1/2+x,1/2+y,1/2+z
26 1/2+x,1/2-y,1/2-z
27 1/2-x,1/2-y,1/2+z
28 1/2-x,1/2+y,1/2-z
29 1/2+y,1/2-x,1/2-z
30 1/2-y,1/2-x,1/2+z
31 1/2-y,1/2+x,1/2-z
32 1/2+y,1/2+x,1/2+z
33 1/2+y,1/2+z,1/2+x
34 1/2-y,1/2-z,1/2+x
35 1/2+y,1/2-z,1/2-x
36 1/2-y,1/2+z,1/2-x
37 1/2+z,1/2-y,1/2-x
38 1/2+z,1/2+y,1/2+x
39 1/2-z,1/2+y,1/2-x
40 1/2-z,1/2-y,1/2+x
41 1/2+z,1/2+x,1/2+y
42 1/2-z,1/2+x,1/2-y
43 1/2-z,1/2-x,1/2+y
44 1/2+z,1/2-x,1/2-y
45 1/2+x,1/2+z,1/2+y
46 1/2+x,1/2-z,1/2-y
47 1/2-x,1/2+z,1/2-y
48 1/2-x,1/2-z,1/2+y
_cell_length_a                   25.8657(14)
_cell_length_b                   25.8657(14)
_cell_length_c                   25.8657(14)
_cell_angle_alpha                90
_cell_angle_beta                 90
_cell_angle_gamma                90
_cell_volume                     17305
loop_
_atom_site_label
_atom_site_type_symbol
_atom_site_fract_x
_atom_site_fract_y
_atom_site_fract_z
C1 C 0.18643(15) 0.6062(2) 0.81357(15)
C2 C 0.16650(14) 0.55521(19) 0.83350(14)
C3 C 0.12896(14) 0.55398(19) 0.87104(14)
H1 H 0.1152 0.5851 0.8848
C4 C 0.11053(11) 0.5037(2) 0.88947(11)
C5 C 0.13003(15) 0.45961(18) 0.86997(15)
H2 H 0.1183 0.4269 0.8817
C6 C 0.16889(14) 0.46353(18) 0.83111(14)
C7 C 0.18643(13) 0.5091(2) 0.81357(13)
H3 H 0.2124 0.5100 0.7876
C8 C 0.06949(12) 0.5038(2) 0.93051(12)
C9 C 0.23326(17) 0.39096(18) 0.82440(18)
H4 H 0.2544 0.4013 0.8526
N1 N 0.24194(12) 0.35019(13) 0.79509(14)
N2 N 0.19100(12) 0.41550(17) 0.80900(12)
O1 O 0.25583(14) 0.25583(14) 0.74417(14)
O2 O 0.16722(10) 0.64678(13) 0.83278(10)
O3 O 0.22079(13) 0.60767(18) 0.77921(13)
O4 O 0.05398(10) 0.45893(12) 0.94602(10)
O5 O 0.05321(9) 0.54596(11) 0.94679(9)
O6 O 0.33897(12) 0.33897(19) 0.72751(12)
O7 O 0.36068(15) 0.36068(15) 0.63932(15)
O8 O -0.0000 0.36521(16) 1.0000
S1 S 0.32772(6) 0.32772(6) 0.67228(6)
Cu1 Cu 0.298730(17) 0.29874(2) 0.793110(17)
Cu2 Cu 0.0000 0.44813(2) 1.0000
H5 H 0.2370(5) 0.2370(5) 0.7630(5)
C1A C 0.18643(15) 0.3938(2) 1.18643(15)
C1C C -0.18643(15) 0.6062(2) 1.18643(15)
C1B C -0.18643(15) 0.3938(2) 0.81357(15)
C1QA C 0.31357(15) 0.31357(15) 0.8938(2)
C1G C 0.6062(2) 0.18643(15) 0.81357(15)
C1BA C 0.1062(2) 0.31357(15) 0.68643(15)
C1Q C 0.18643(15) 0.18643(15) 0.3938(2)
C1NA C 0.31357(15) 0.68643(15) 1.1062(2)
C1D C 0.6062(2) 0.81357(15) 1.18643(15)
C1EA C 0.1062(2) 0.68643(15) 1.31357(15)
C1R C 0.18643(15) 0.81357(15) 1.6062(2)
C2A C 0.16650(14) 0.44479(19) 1.16650(14)
C2C C -0.16650(14) 0.55521(19) 1.16650(14)
C2B C -0.16650(14) 0.44479(19) 0.83350(14)
C2QA C 0.33350(14) 0.33350(14) 0.94479(19)
C2G C 0.55521(19) 0.16650(14) 0.83350(14)
C2BA C 0.05521(19) 0.33350(14) 0.66650(14)
C2Q C 0.16650(14) 0.16650(14) 0.44479(19)
C2NA C 0.33350(14) 0.66650(14) 1.05521(19)
C2D C 0.55521(19) 0.83350(14) 1.16650(14)
C2EA C 0.05521(19) 0.66650(14) 1.33350(14)
C2R C 0.16650(14) 0.83350(14) 1.55521(19)
C3A C 0.12896(14) 0.44602(19) 1.12896(14)
C3C C -0.12896(14) 0.55398(19) 1.12896(14)
C3B C -0.12896(14) 0.44602(19) 0.87104(14)
C3QA C 0.37104(14) 0.37104(14) 0.94602(19)
C3G C 0.55398(19) 0.12896(14) 0.87104(14)
C3BA C 0.05398(19) 0.37104(14) 0.62896(14)
C3Q C 0.12896(14) 0.12896(14) 0.44602(19)
C3NA C 0.37104(14) 0.62896(14) 1.05398(19)
C3D C 0.55398(19) 0.87104(14) 1.12896(14)
C3EA C 0.05398(19) 0.62896(14) 1.37104(14)
C3R C 0.12896(14) 0.87104(14) 1.55398(19)
H1A H 0.1152 0.4149 1.1152
H1C H -0.1152 0.5851 1.1152
H1B H -0.1152 0.4149 0.8848
H1QA H 0.3848 0.3848 0.9149
H1G H 0.5851 0.1152 0.8848
H1BA H 0.0851 0.3848 0.6152
H1Q H 0.1152 0.1152 0.4149
H1NA H 0.3848 0.6152 1.0851
H1D H 0.5851 0.8848 1.1152
H1EA H 0.0851 0.6152 1.3848
H1R H 0.1152 0.8848 1.5851
C4A C 0.11053(11) 0.4963(2) 1.11053(11)
C4C C -0.11053(11) 0.5037(2) 1.11053(11)
C4B C -0.11053(11) 0.4963(2) 0.88947(11)
C4QA C 0.38947(11) 0.38947(11) 0.9963(2)
C4G C 0.5037(2) 0.11053(11) 0.88947(11)
C4BA C 0.0037(2) 0.38947(11) 0.61053(11)
C4Q C 0.11053(11) 0.11053(11) 0.4963(2)
C4NA C 0.38947(11) 0.61053(11) 1.0037(2)
C4D C 0.5037(2) 0.88947(11) 1.11053(11)
C4EA C 0.0037(2) 0.61053(11) 1.38947(11)
C4R C 0.11053(11) 0.88947(11) 1.5037(2)
C5A C 0.13003(15) 0.54039(18) 1.13003(15)
C5C C -0.13003(15) 0.45961(18) 1.13003(15)
C5B C -0.13003(15) 0.54039(18) 0.86997(15)
C5QA C 0.36997(15) 0.36997(15) 1.04039(18)
C5G C 0.45961(18) 0.13003(15) 0.86997(15)
C5BA C -0.04039(18) 0.36997(15) 0.63003(15)
C5Q C 0.13003(15) 0.13003(15) 0.54039(18)
C5NA C 0.36997(15) 0.63003(15) 0.95961(18)
C5D C 0.45961(18) 0.86997(15) 1.13003(15)
C5EA C -0.04039(18) 0.63003(15) 1.36997(15)
C5R C 0.13003(15) 0.86997(15) 1.45961(18)
H2A H 0.1183 0.5731 1.1183
H2C H -0.1183 0.4269 1.1183
H2B H -0.1183 0.5731 0.8817
H2QA H 0.3817 0.3817 1.0731
H2G H 0.4269 0.1183 0.8817
H2BA H -0.0731 0.3817 0.6183
H2Q H 0.1183 0.1183 0.5731
H2NA H 0.3817 0.6183 0.9269
H2D H 0.4269 0.8817 1.1183
H2EA H -0.0731 0.6183 1.3817
H2R H 0.1183 0.8817 1.4269
C6A C 0.16889(14) 0.53647(18) 1.16889(14)
C6C C -0.16889(14) 0.46353(18) 1.16889(14)
C6B C -0.16889(14) 0.53647(18) 0.83111(14)
C6QA C 0.33111(14) 0.33111(14) 1.03647(18)
C6G C 0.46353(18) 0.16889(14) 0.83111(14)
C6BA C -0.03647(18) 0.33111(14) 0.66889(14)
C6Q C 0.16889(14) 0.16889(14) 0.53647(18)
C6NA C 0.33111(14) 0.66889(14) 0.96353(18)
C6D C 0.46353(18) 0.83111(14) 1.16889(14)
C6EA C -0.03647(18) 0.66889(14) 1.33111(14)
C6R C 0.16889(14) 0.83111(14) 1.46353(18)
C7A C 0.18643(13) 0.4909(2) 1.18643(13)
C7C C -0.18643(13) 0.5091(2) 1.18643(13)
C7B C -0.18643(13) 0.4909(2) 0.81357(13)
C7QA C 0.31357(13) 0.31357(13) 0.9909(2)
C7G C 0.5091(2) 0.18643(13) 0.81357(13)
C7BA C 0.0091(2) 0.31357(13) 0.68643(13)
C7Q C 0.18643(13) 0.18643(13) 0.4909(2)
C7NA C 0.31357(13) 0.68643(13) 1.0091(2)
C7D C 0.5091(2) 0.81357(13) 1.18643(13)
C7EA C 0.0091(2) 0.68643(13) 1.31357(13)
C7R C 0.18643(13) 0.81357(13) 1.5091(2)
H3A H 0.2124 0.4900 1.2124
H3C H -0.2124 0.5100 1.2124
H3B H -0.2124 0.4900 0.7876
H3QA H 0.2876 0.2876 0.9900
H3G H 0.5100 0.2124 0.7876
H3BA H 0.0100 0.2876 0.7124
H3Q H 0.2124 0.2124 0.4900
H3NA H 0.2876 0.7124 1.0100
H3D H 0.5100 0.7876 1.2124
H3EA H 0.0100 0.7124 1.2876
H3R H 0.2124 0.7876 1.5100
C8A C 0.06949(12) 0.4962(2) 1.06949(12)
C8C C -0.06949(12) 0.5038(2) 1.06949(12)
C8B C -0.06949(12) 0.4962(2) 0.93051(12)
C8QA C 0.43051(12) 0.43051(12) 0.9962(2)
C8G C 0.5038(2) 0.06949(12) 0.93051(12)
C8BA C 0.0038(2) 0.43051(12) 0.56949(12)
C8Q C 0.06949(12) 0.06949(12) 0.4962(2)
C8NA C 0.43051(12) 0.56949(12) 1.0038(2)
C8D C 0.5038(2) 0.93051(12) 1.06949(12)
C8EA C 0.0038(2) 0.56949(12) 1.43051(12)
C8R C 0.06949(12) 0.93051(12) 1.5038(2)
C9N C 0.17560(18) 0.39096(18) 0.76674(17)
C9A C 0.23326(17) 0.60904(18) 1.17560(18)
C9O C 0.17560(18) 0.60904(18) 1.23326(17)
C9C C -0.23326(17) 0.39096(18) 1.17560(18)
C9M C -0.17560(18) 0.39096(18) 1.23326(17)
C9B C -0.23326(17) 0.60904(18) 0.82440(18)
C9L C -0.17560(18) 0.60904(18) 0.76674(17)
C9QA C 0.32440(18) 0.26674(17) 1.10904(18)
C9TA C 0.26674(17) 0.32440(18) 1.10904(18)
C9G C 0.39096(18) 0.23326(17) 0.82440(18)
C9J C 0.39096(18) 0.17560(18) 0.76674(17)
C9BA C -0.10904(18) 0.26674(17) 0.67560(18)
C9FA C -0.10904(18) 0.32440(18) 0.73326(17)
C9Q C 0.17560(18) 0.23326(17) 0.60904(18)
C9U C 0.23326(17) 0.17560(18) 0.60904(18)
C9NA C 0.32440(18) 0.73326(17) 0.89096(18)
C9UA C 0.26674(17) 0.67560(18) 0.89096(18)
C9D C 0.39096(18) 0.76674(17) 1.17560(18)
C9H C 0.39096(18) 0.82440(18) 1.23326(17)
C9EA C -0.10904(18) 0.73326(17) 1.32440(18)
C9HA C -0.10904(18) 0.67560(18) 1.26674(17)
C9R C 0.17560(18) 0.76674(17) 1.39096(18)
C9T C 0.23326(17) 0.82440(18) 1.39096(18)
H4N H 0.1474 0.4013 0.7456
H4A H 0.2544 0.5987 1.1474
H4O H 0.1474 0.5987 1.2544
H4C H -0.2544 0.4013 1.1474
H4M H -0.1474 0.4013 1.2544
H4B H -0.2544 0.5987 0.8526
H4L H -0.1474 0.5987 0.7456
H4QA H 0.3526 0.2456 1.0987
H4TA H 0.2456 0.3526 1.0987
H4G H 0.4013 0.2544 0.8526
H4J H 0.4013 0.1474 0.7456
H4BA H -0.0987 0.2456 0.6474
H4FA H -0.0987 0.3526 0.7544
H4Q H 0.1474 0.2544 0.5987
H4U H 0.2544 0.1474 0.5987
H4NA H 0.3526 0.7544 0.9013
H4UA H 0.2456 0.6474 0.9013
H4D H 0.4013 0.7456 1.1474
H4H H 0.4013 0.8526 1.2544
H4EA H -0.0987 0.7544 1.3526
H4HA H -0.0987 0.6474 1.2456
H4R H 0.1474 0.7456 1.4013
H4T H 0.2544 0.8526 1.4013
N1N N 0.20491(14) 0.35019(13) 0.75806(12)
N1A N 0.24194(12) 0.64981(13) 1.20491(14)
N1O N 0.20491(14) 0.64981(13) 1.24194(12)
N1C N -0.24194(12) 0.35019(13) 1.20491(14)
N1M N -0.20491(14) 0.35019(13) 1.24194(12)
N1B N -0.24194(12) 0.64981(13) 0.79509(14)
N1L N -0.20491(14) 0.64981(13) 0.75806(12)
N1QA N 0.29509(14) 0.25806(12) 1.14981(13)
N1TA N 0.25806(12) 0.29509(14) 1.14981(13)
N1G N 0.35019(13) 0.24194(12) 0.79509(14)
N1J N 0.35019(13) 0.20491(14) 0.75806(12)
N1BA N -0.14981(13) 0.25806(12) 0.70491(14)
N1FA N -0.14981(13) 0.29509(14) 0.74194(12)
N1Q N 0.20491(14) 0.24194(12) 0.64981(13)
N1U N 0.24194(12) 0.20491(14) 0.64981(13)
N1NA N 0.29509(14) 0.74194(12) 0.85019(13)
N1UA N 0.25806(12) 0.70491(14) 0.85019(13)
N1D N 0.35019(13) 0.75806(12) 1.20491(14)
N1H N 0.35019(13) 0.79509(14) 1.24194(12)
N1EA N -0.14981(13) 0.74194(12) 1.29509(14)
N1HA N -0.14981(13) 0.70491(14) 1.25806(12)
N1R N 0.20491(14) 0.75806(12) 1.35019(13)
N1T N 0.24194(12) 0.79509(14) 1.35019(13)
N1F N -0.35019(13) 0.24194(12) 1.20491(14)
N1P N -0.20491(14) 0.24194(12) 1.35019(13)
N1E N -0.35019(13) 0.75806(12) 0.79509(14)
N1S N -0.20491(14) 0.75806(12) 0.64981(13)
N1GA N 0.14981(13) 0.70491(14) 0.74194(12)
N1IA N 0.14981(13) 0.29509(14) 1.25806(12)
N1SA N -0.25806(12) 0.70491(14) 1.14981(13)
N1RA N -0.25806(12) 0.29509(14) 0.85019(13)
N2A N 0.19100(12) 0.58450(17) 1.19100(12)
N2C N -0.19100(12) 0.41550(17) 1.19100(12)
N2B N -0.19100(12) 0.58450(17) 0.80900(12)
N2QA N 0.30900(12) 0.30900(12) 1.08450(17)
N2G N 0.41550(17) 0.19100(12) 0.80900(12)
N2BA N -0.08450(17) 0.30900(12) 0.69100(12)
N2Q N 0.19100(12) 0.19100(12) 0.58450(17)
N2NA N 0.30900(12) 0.69100(12) 0.91550(17)
N2D N 0.41550(17) 0.80900(12) 1.19100(12)
N2EA N -0.08450(17) 0.69100(12) 1.30900(12)
N2R N 0.19100(12) 0.80900(12) 1.41550(17)
O1A O 0.25583(14) 0.74417(14) 1.25583(14)
O1C O -0.25583(14) 0.25583(14) 1.25583(14)
O1B O -0.25583(14) 0.74417(14) 0.74417(14)
O1AA O 0.24417(14) 0.75583(14) 0.75583(14)
O1Z O 0.24417(14) 0.24417(14) 1.24417(14)
O1X O -0.24417(14) 0.75583(14) 1.24417(14)
O1Y O -0.24417(14) 0.24417(14) 0.75583(14)
O2A O 0.16722(10) 0.35322(13) 1.16722(10)
O2C O -0.16722(10) 0.64678(13) 1.16722(10)
O2B O -0.16722(10) 0.35322(13) 0.83278(10)
O2QA O 0.33278(10) 0.33278(10) 0.85322(13)
O2G O 0.64678(13) 0.16722(10) 0.83278(10)
O2BA O 0.14678(13) 0.33278(10) 0.66722(10)
O2Q O 0.16722(10) 0.16722(10) 0.35322(13)
O2NA O 0.33278(10) 0.66722(10) 1.14678(13)
O2D O 0.64678(13) 0.83278(10) 1.16722(10)
O2EA O 0.14678(13) 0.66722(10) 1.33278(10)
O2R O 0.16722(10) 0.83278(10) 1.64678(13)
O2PA O -0.33278(10) 0.33278(10) 1.14678(13)
O2CA O -0.14678(13) 0.33278(10) 1.33278(10)
O2OA O -0.33278(10) 0.66722(10) 0.85322(13)
O2DA O -0.14678(13) 0.66722(10) 0.66722(10)
O3A O 0.22079(13) 0.39233(18) 1.22079(13)
O3C O -0.22079(13) 0.60767(18) 1.22079(13)
O3B O -0.22079(13) 0.39233(18) 0.77921(13)
O3QA O 0.27921(13) 0.27921(13) 0.89233(18)
O3G O 0.60767(18) 0.22079(13) 0.77921(13)
O3BA O 0.10767(18) 0.27921(13) 0.72079(13)
O3Q O 0.22079(13) 0.22079(13) 0.39233(18)
O3NA O 0.27921(13) 0.72079(13) 1.10767(18)
O3D O 0.60767(18) 0.77921(13) 1.22079(13)
O3EA O 0.10767(18) 0.72079(13) 1.27921(13)
O3R O 0.22079(13) 0.77921(13) 1.60767(18)
O4A O 0.05398(10) 0.54107(12) 1.05398(10)
O4C O -0.05398(10) 0.45893(12) 1.05398(10)
O4B O -0.05398(10) 0.54107(12) 0.94602(10)
O4QA O 0.44602(10) 0.44602(10) 1.04107(12)
O4G O 0.45893(12) 0.05398(10) 0.94602(10)
O4BA O -0.04107(12) 0.44602(10) 0.55398(10)
O4Q O 0.05398(10) 0.05398(10) 0.54107(12)
O4NA O 0.44602(10) 0.55398(10) 0.95893(12)
O4D O 0.45893(12) 0.94602(10) 1.05398(10)
O4EA O -0.04107(12) 0.55398(10) 1.44602(10)
O4R O 0.05398(10) 0.94602(10) 1.45893(12)
O4OA O 0.55398(10) 0.55398(10) 1.04107(12)
O4D_2 O 0.45893(12) -0.05398(10) 1.05398(10)
O4EA_2 O -0.04107(12) 0.55398(10) 0.44602(10)
O4S O -0.05398(10) -0.05398(10) 0.54107(12)
O5A O 0.05321(9) 0.45404(11) 1.05321(9)
O5C O -0.05321(9) 0.54596(11) 1.05321(9)
O5B O -0.05321(9) 0.45404(11) 0.94679(9)
O5QA O 0.44679(9) 0.44679(9) 0.95404(11)
O5G O 0.54596(11) 0.05321(9) 0.94679(9)
O5BA O 0.04596(11) 0.44679(9) 0.55321(9)
O5Q O 0.05321(9) 0.05321(9) 0.45404(11)
O5NA O 0.44679(9) 0.55321(9) 1.04596(11)
O5D O 0.54596(11) 0.94679(9) 1.05321(9)
O5EA O 0.04596(11) 0.55321(9) 1.44679(9)
O5R O 0.05321(9) 0.94679(9) 1.54596(11)
O5PA O 0.55321(9) 0.44679(9) 1.04596(11)
O5F O 0.45404(11) 0.05321(9) 1.05321(9)
O5E O 0.45404(11) -0.05321(9) 0.94679(9)
O5CA O -0.04596(11) 0.44679(9) 0.44679(9)
O5DA O -0.04596(11) 0.55321(9) 0.55321(9)
O5P O -0.05321(9) 0.05321(9) 0.54596(11)
O5R_2 O 0.05321(9) -0.05321(9) 0.54596(11)
O6J O 0.33897(19) 0.27249(12) 0.66103(12)
O6N O 0.27249(12) 0.33897(19) 0.66103(12)
O6A O 0.33897(12) 0.66103(19) 1.27249(12)
O6H O 0.33897(19) 0.72751(12) 1.33897(12)
O6O O 0.27249(12) 0.66103(19) 1.33897(12)
O6C O -0.33897(12) 0.33897(19) 1.27249(12)
O6I O -0.33897(19) 0.27249(12) 1.33897(12)
O6M O -0.27249(12) 0.33897(19) 1.33897(12)
O6B O -0.33897(12) 0.66103(19) 0.72751(12)
O6K O -0.33897(19) 0.72751(12) 0.66103(12)
O6L O -0.27249(12) 0.66103(19) 0.66103(12)
O6GA O 0.16103(19) 0.77249(12) 0.83897(12)
O6IA O 0.16103(19) 0.22751(12) 1.16103(12)
O6HA O -0.16103(19) 0.77249(12) 1.16103(12)
O6FA O -0.16103(19) 0.22751(12) 0.83897(12)
O7A O 0.36068(15) 0.63932(15) 1.36068(15)
O7C O -0.36068(15) 0.36068(15) 1.36068(15)
O7B O -0.36068(15) 0.63932(15) 0.63932(15)
O8A O -0.0000 0.63479(16) 1.0000
O8OA O 0.5000 0.5000 1.13479(16)
O8D O 0.36521(16) 0.0000 1.0000
O8BA O -0.13479(16) 0.5000 0.5000
O8Q O 0.0000 0.0000 0.63479(16)
S1A S 0.32772(6) 0.67228(6) 1.32772(6)
S1C S -0.32772(6) 0.32772(6) 1.32772(6)
S1B S -0.32772(6) 0.67228(6) 0.67228(6)
Cu1N Cu 0.206890(17) 0.29874(2) 0.701270(17)
Cu1A Cu 0.298730(17) 0.70126(2) 1.206890(17)
Cu1O Cu 0.206890(17) 0.70126(2) 1.298730(17)
Cu1C Cu -0.298730(17) 0.29874(2) 1.206890(17)
Cu1M Cu -0.206890(17) 0.29874(2) 1.298730(17)
Cu1B Cu -0.298730(17) 0.70126(2) 0.793110(17)
Cu1L Cu -0.206890(17) 0.70126(2) 0.701270(17)
Cu1GA Cu 0.20126(2) 0.706890(17) 0.798730(17)
Cu1IA Cu 0.20126(2) 0.293110(17) 1.201270(17)
Cu1HA Cu -0.20126(2) 0.706890(17) 1.201270(17)
Cu1FA Cu -0.20126(2) 0.293110(17) 0.798730(17)
Cu1U Cu 0.298730(17) 0.206890(17) 0.70126(2)
Cu1QA Cu 0.293110(17) 0.201270(17) 1.20126(2)
Cu1MA Cu 0.706890(17) 0.20126(2) 0.798730(17)
Cu1BA Cu -0.20126(2) 0.201270(17) 0.706890(17)
Cu1Z Cu 0.201270(17) 0.20126(2) 0.293110(17)
Cu1NA Cu 0.293110(17) 0.798730(17) 0.79874(2)
Cu1T Cu 0.298730(17) 0.793110(17) 1.29874(2)
Cu1LA Cu 0.706890(17) 0.79874(2) 1.201270(17)
Cu1EA Cu -0.20126(2) 0.798730(17) 1.293110(17)
Cu1AA Cu 0.201270(17) 0.79874(2) 1.706890(17)
Cu1W Cu -0.298730(17) 0.206890(17) 1.29874(2)
Cu1V Cu -0.298730(17) 0.793110(17) 0.70126(2)
Cu2A Cu -0.0000 0.55187(2) 1.0000
Cu2OA Cu 0.5000 0.5000 1.05187(2)
Cu2D Cu 0.44813(2) 0.0000 1.0000
Cu2BA Cu -0.05187(2) 0.5000 0.5000
Cu2Q Cu -0.0000 -0.0000 0.55187(2)
Cu2NA Cu 0.5000 0.5000 0.94813(2)
Cu2E Cu 0.55187(2) 0.0000 1.0000
Cu2CA Cu 0.05187(2) 0.5000 0.5000
Cu2P Cu -0.0000 0.0000 0.44813(2)
Cu2D_2 Cu 0.44813(2) 1.0000 1.0000
Cu2E_2 Cu 0.55187(2) 1.0000 1.0000
Cu2BA_2 Cu -0.05187(2) 0.5000 1.5000
Cu2CA_2 Cu 0.05187(2) 0.5000 1.5000
Cu2P_2 Cu -0.0000 1.0000 1.44813(2)
Cu2Q_2 Cu 0.0000 1.0000 1.55187(2)
H5A H 0.2370(5) 0.7630(5) 1.2370(5)
H5C H -0.2370(5) 0.2370(5) 1.2370(5)
H5B H -0.2370(5) 0.7630(5) 0.7630(5)
H5AA H 0.2630(5) 0.7370(5) 0.7370(5)
H5Z H 0.2630(5) 0.2630(5) 1.2630(5)
H5X H -0.2630(5) 0.7370(5) 1.2630(5)
H5Y H -0.2630(5) 0.2630(5) 0.7370(5)
loop_
_geom_bond_atom_site_label_1
_geom_bond_atom_site_label_2
_geom_bond_site_symmetry_1
_geom_bond_site_symmetry_2
C1 C2 1_555 1_555
C2 C3 1_555 1_555
C3 H1 1_555 1_555
C4 C3 1_555 1_555
C5 C4 1_555 1_555
H2 C5 1_555 1_555
C6 C5 1_555 1_555
C7 C2 1_555 1_555
H3 C7 1_555 1_555
C8 C4 1_555 1_555
C9 H4 1_555 1_555
N1 C9 1_555 1_555
N2 C6 1_555 1_555
O1 Cu1 1_555 1_555
O2 C1 1_555 1_555
O3 C1 1_555 1_555
O4 C8 1_555 1_555
O5 C8 1_555 1_555
O6 S1 1_555 1_555
O7 S1 1_555 1_555
O8 Cu2 1_555 1_555
S1 O6J 1_555 1_555
Cu1 N1 1_555 1_555
Cu2 O4 1_555 1_555
H5 O1 1_555 1_555
C1A C2A 1_555 1_555
C1C C2C 1_555 1_555
C1B C2B 1_555 1_555
C1QA C2QA 1_555 1_555
C1G C2G 1_555 1_555
C1BA C2BA 1_555 1_555
C1Q C2Q 1_555 1_555
C1NA C2NA 1_555 1_555
C1D C2D 1_555 1_555
C1EA C2EA 1_555 1_555
C1R C2R 1_555 1_555
C2A C3A 1_555 1_555
C2C C3C 1_555 1_555
C2B C3B 1_555 1_555
C2QA C3QA 1_555 1_555
C2G C3G 1_555 1_555
C2BA C3BA 1_555 1_555
C2Q C3Q 1_555 1_555
C2NA C3NA 1_555 1_555
C2D C3D 1_555 1_555
C2EA C3EA 1_555 1_555
C2R C3R 1_555 1_555
C3A H1A 1_555 1_555
C3C H1C 1_555 1_555
C3B H1B 1_555 1_555
C3QA H1QA 1_555 1_555
C3G H1G 1_555 1_555
C3BA H1BA 1_555 1_555
C3Q H1Q 1_555 1_555
C3NA H1NA 1_555 1_555
C3D H1D 1_555 1_555
C3EA H1EA 1_555 1_555
C3R H1R 1_555 1_555
C4A C3A 1_555 1_555
C4C C3C 1_555 1_555
C4B C3B 1_555 1_555
C4QA C3QA 1_555 1_555
C4G C3G 1_555 1_555
C4BA C3BA 1_555 1_555
C4Q C3Q 1_555 1_555
C4NA C3NA 1_555 1_555
C4D C3D 1_555 1_555
C4EA C3EA 1_555 1_555
C4R C3R 1_555 1_555
C5A C4A 1_555 1_555
C5C C4C 1_555 1_555
C5B C4B 1_555 1_555
C5QA C4QA 1_555 1_555
C5G C4G 1_555 1_555
C5BA C4BA 1_555 1_555
C5Q C4Q 1_555 1_555
C5NA C4NA 1_555 1_555
C5D C4D 1_555 1_555
C5EA C4EA 1_555 1_555
C5R C4R 1_555 1_555
H2A C5A 1_555 1_555
H2C C5C 1_555 1_555
H2B C5B 1_555 1_555
H2QA C5QA 1_555 1_555
H2G C5G 1_555 1_555
H2BA C5BA 1_555 1_555
H2Q C5Q 1_555 1_555
H2NA C5NA 1_555 1_555
H2D C5D 1_555 1_555
H2EA C5EA 1_555 1_555
H2R C5R 1_555 1_555
C6A C5A 1_555 1_555
C6C C5C 1_555 1_555
C6B C5B 1_555 1_555
C6QA C5QA 1_555 1_555
C6G C5G 1_555 1_555
C6BA C5BA 1_555 1_555
C6Q C5Q 1_555 1_555
C6NA C5NA 1_555 1_555
C6D C5D 1_555 1_555
C6EA C5EA 1_555 1_555
C6R C5R 1_555 1_555
C7A C2A 1_555 1_555
C7C C2C 1_555 1_555
C7B C2B 1_555 1_555
C7QA C2QA 1_555 1_555
C7G C2G 1_555 1_555
C7BA C2BA 1_555 1_555
C7Q C2Q 1_555 1_555
C7NA C2NA 1_555 1_555
C7D C2D 1_555 1_555
C7EA C2EA 1_555 1_555
C7R C2R 1_555 1_555
H3A C7A 1_555 1_555
H3C C7C 1_555 1_555
H3B C7B 1_555 1_555
H3QA C7QA 1_555 1_555
H3G C7G 1_555 1_555
H3BA C7BA 1_555 1_555
H3Q C7Q 1_555 1_555
H3NA C7NA 1_555 1_555
H3D C7D 1_555 1_555
H3EA C7EA 1_555 1_555
H3R C7R 1_555 1_555
C8A C4A 1_555 1_555
C8C C4C 1_555 1_555
C8B C4B 1_555 1_555
C8QA C4QA 1_555 1_555
C8G C4G 1_555 1_555
C8BA C4BA 1_555 1_555
C8Q C4Q 1_555 1_555
C8NA C4NA 1_555 1_555
C8D C4D 1_555 1_555
C8EA C4EA 1_555 1_555
C8R C4R 1_555 1_555
C9N N2 1_555 1_555
C9A H4A 1_555 1_555
C9O H4O 1_555 1_555
C9C H4C 1_555 1_555
C9M H4M 1_555 1_555
C9B H4B 1_555 1_555
C9L H4L 1_555 1_555
C9QA H4QA 1_555 1_555
C9TA H4TA 1_555 1_555
C9G H4G 1_555 1_555
C9J H4J 1_555 1_555
C9BA H4BA 1_555 1_555
C9FA H4FA 1_555 1_555
C9Q H4Q 1_555 1_555
C9U H4U 1_555 1_555
C9NA H4NA 1_555 1_555
C9UA H4UA 1_555 1_555
C9D H4D 1_555 1_555
C9H H4H 1_555 1_555
C9EA H4EA 1_555 1_555
C9HA H4HA 1_555 1_555
C9R H4R 1_555 1_555
C9T H4T 1_555 1_555
H4N C9N 1_555 1_555
N1N N1 1_555 1_555
N1A C9A 1_555 1_555
N1O C9O 1_555 1_555
N1C C9C 1_555 1_555
N1M C9M 1_555 1_555
N1B C9B 1_555 1_555
N1L C9L 1_555 1_555
N1QA C9QA 1_555 1_555
N1TA C9TA 1_555 1_555
N1G Cu1 1_555 1_555
N1J C9J 1_555 1_555
N1BA C9BA 1_555 1_555
N1FA C9FA 1_555 1_555
N1Q C9Q 1_555 1_555
N1U C9U 1_555 1_555
N1NA C9NA 1_555 1_555
N1UA C9UA 1_555 1_555
N1D C9D 1_555 1_555
N1H C9H 1_555 1_555
N1EA C9EA 1_555 1_555
N1HA C9HA 1_555 1_555
N1R C9R 1_555 1_555
N1T C9T 1_555 1_555
N1F Cu1C 1_555 1_555
N1P Cu1M 1_555 1_555
N1E Cu1B 1_555 1_555
N1S Cu1L 1_555 1_555
N1GA Cu1GA 1_555 1_555
N1IA Cu1IA 1_555 1_555
N1SA Cu1HA 1_555 1_555
N1RA Cu1FA 1_555 1_555
N2A C6A 1_555 1_555
N2C C6C 1_555 1_555
N2B C6B 1_555 1_555
N2QA C6QA 1_555 1_555
N2G C6G 1_555 1_555
N2BA C6BA 1_555 1_555
N2Q C6Q 1_555 1_555
N2NA C6NA 1_555 1_555
N2D C6D 1_555 1_555
N2EA C6EA 1_555 1_555
N2R C6R 1_555 1_555
O1A Cu1A 1_555 1_555
O1C Cu1C 1_555 1_555
O1B Cu1B 1_555 1_555
O1AA Cu1GA 1_555 1_555
O1Z Cu1IA 1_555 1_555
O1X Cu1HA 1_555 1_555
O1Y Cu1FA 1_555 1_555
O2A C1A 1_555 1_555
O2C C1C 1_555 1_555
O2B C1B 1_555 1_555
O2QA Cu1 1_555 1_555
O2G C1G 1_555 1_555
O2BA C1BA 1_555 1_555
O2Q C1Q 1_555 1_555
O2NA C1NA 1_555 1_555
O2D C1D 1_555 1_555
O2EA C1EA 1_555 1_555
O2R C1R 1_555 1_555
O2PA Cu1C 1_555 1_555
O2CA Cu1M 1_555 1_555
O2OA Cu1B 1_555 1_555
O2DA Cu1L 1_555 1_555
O3A C1A 1_555 1_555
O3C C1C 1_555 1_555
O3B C1B 1_555 1_555
O3QA C1QA 1_555 1_555
O3G C1G 1_555 1_555
O3BA C1BA 1_555 1_555
O3Q C1Q 1_555 1_555
O3NA C1NA 1_555 1_555
O3D C1D 1_555 1_555
O3EA C1EA 1_555 1_555
O3R C1R 1_555 1_555
O4A C8A 1_555 1_555
O4C Cu2 1_555 1_555
O4B C8B 1_555 1_555
O4QA C8QA 1_555 1_555
O4G C8G 1_555 1_555
O4BA C8BA 1_555 1_555
O4Q C8Q 1_555 1_555
O4NA C8NA 1_555 1_555
O4D C8D 1_555 1_555
O4EA C8EA 1_555 1_555
O4R C8R 1_555 1_555
O4OA Cu2OA 1_555 1_555
O4D_2 Cu2D 1_555 1_555
O4EA_2 Cu2BA 1_555 1_555
O4S Cu2Q 1_555 1_555
O5A Cu2 1_555 1_555
O5C C8C 1_555 1_555
O5B Cu2 1_555 1_555
O5QA C8QA 1_555 1_555
O5G C8G 1_555 1_555
O5BA C8BA 1_555 1_555
O5Q C8Q 1_555 1_555
O5NA C8NA 1_555 1_555
O5D C8D 1_555 1_555
O5EA C8EA 1_555 1_555
O5R C8R 1_555 1_555
O5PA Cu2OA 1_555 1_555
O5F Cu2D 1_555 1_555
O5E Cu2D 1_555 1_555
O5CA Cu2BA 1_555 1_555
O5DA Cu2BA 1_555 1_555
O5P Cu2Q 1_555 1_555
O5R_2 Cu2Q 1_555 1_555
O6J Cu1U 1_555 1_555
O6N S1 1_555 1_555
O6A S1A 1_555 1_555
O6H S1A 1_555 1_555
O6O S1A 1_555 1_555
O6C S1C 1_555 1_555
O6I S1C 1_555 1_555
O6M S1C 1_555 1_555
O6B S1B 1_555 1_555
O6K S1B 1_555 1_555
O6L S1B 1_555 1_555
O6GA Cu1GA 1_555 1_555
O6IA Cu1IA 1_555 1_555
O6HA Cu1HA 1_555 1_555
O6FA Cu1FA 1_555 1_555
O7A S1A 1_555 1_555
O7C S1C 1_555 1_555
O7B S1B 1_555 1_555
O8A Cu2A 1_555 1_555
O8OA Cu2OA 1_555 1_555
O8D Cu2D 1_555 1_555
O8BA Cu2BA 1_555 1_555
O8Q Cu2Q 1_555 1_555
Cu1N O1 1_555 1_555
Cu1A N1A 1_555 1_555
Cu1O N1O 1_555 1_555
Cu1C N1C 1_555 1_555
Cu1M N1M 1_555 1_555
Cu1B N1B 1_555 1_555
Cu1L N1L 1_555 1_555
Cu1GA O2 1_555 1_555
Cu1IA N1TA 1_555 1_555
Cu1HA N1HA 1_555 1_555
Cu1FA N1FA 1_555 1_555
Cu1U O1 1_555 1_555
Cu1QA N1QA 1_555 1_555
Cu1MA O2G 1_555 1_555
Cu1BA N1BA 1_555 1_555
Cu1Z O2Q 1_555 1_555
Cu1NA N1NA 1_555 1_555
Cu1T N1H 1_555 1_555
Cu1LA O2D 1_555 1_555
Cu1EA N1EA 1_555 1_555
Cu1AA O2R 1_555 1_555
Cu1W O1C 1_555 1_555
Cu1V O1B 1_555 1_555
Cu2A O5 1_555 1_555
Cu2OA O4QA 1_555 1_555
Cu2D O4G 1_555 1_555
Cu2BA O4BA 1_555 1_555
Cu2Q O4Q 1_555 1_555
Cu2NA O4NA 1_555 1_555
Cu2E O5G 1_555 1_555
Cu2CA O5BA 1_555 1_555
Cu2P O5Q 1_555 1_555
Cu2D_2 O4D 1_555 1_555
Cu2E_2 O5D 1_555 1_555
Cu2BA_2 O4EA 1_555 1_555
Cu2CA_2 O5EA 1_555 1_555
Cu2P_2 O4R 1_555 1_555
Cu2Q_2 O5R 1_555 1_555
H5A O1A 1_555 1_555
H5C O1C 1_555 1_555
H5B O1B 1_555 1_555
H5AA O1AA 1_555 1_555
H5Z O1Z 1_555 1_555
H5X O1X 1_555 1_555
H5Y O1Y 1_555 1_555
C6 C7 1_555 1_555
C9 N2 1_555 1_555
O6 Cu1 1_555 1_555
C1QA O2QA 1_555 1_555
C6A C7A 1_555 1_555
C6C C7C 1_555 1_555
C6B C7B 1_555 1_555
C6QA C7QA 1_555 1_555
C6G C7G 1_555 1_555
C6BA C7BA 1_555 1_555
C6Q C7Q 1_555 1_555
C6NA C7NA 1_555 1_555
C6D C7D 1_555 1_555
C6EA C7EA 1_555 1_555
C6R C7R 1_555 1_555
C8A O5A 1_555 1_555
C8C O4C 1_555 1_555
C8B O5B 1_555 1_555
C9N N1N 1_555 1_555
C9A N2A 1_555 1_555
C9O N2A 1_555 1_555
C9C N2C 1_555 1_555
C9M N2C 1_555 1_555
C9B N2B 1_555 1_555
C9L N2B 1_555 1_555
C9QA N2QA 1_555 1_555
C9TA N2QA 1_555 1_555
C9G N1G 1_555 1_555
C9G N2G 1_555 1_555
C9J N2G 1_555 1_555
C9BA N2BA 1_555 1_555
C9FA N2BA 1_555 1_555
C9Q N2Q 1_555 1_555
C9U N2Q 1_555 1_555
C9NA N2NA 1_555 1_555
C9UA N2NA 1_555 1_555
C9D N2D 1_555 1_555
C9H N2D 1_555 1_555
C9EA N2EA 1_555 1_555
C9HA N2EA 1_555 1_555
C9R N2R 1_555 1_555
C9T N2R 1_555 1_555
N1N Cu1N 1_555 1_555
N1A N1O 1_555 1_555
N1C N1M 1_555 1_555
N1B N1L 1_555 1_555
N1QA N1TA 1_555 1_555
N1G N1J 1_555 1_555
N1J Cu1U 1_555 1_555
N1BA N1FA 1_555 1_555
N1Q N1U 1_555 1_555
N1Q Cu1N 1_555 1_555
N1U Cu1U 1_555 1_555
N1NA N1UA 1_555 1_555
N1UA Cu1GA 1_555 1_555
N1D N1H 1_555 1_555
N1D Cu1A 1_555 1_555
N1EA N1HA 1_555 1_555
N1R N1T 1_555 1_555
N1R Cu1O 1_555 1_555
N1T Cu1T 1_555 1_555
O1A Cu1O 1_555 1_555
O1A Cu1T 1_555 1_555
O1C Cu1M 1_555 1_555
O1B Cu1L 1_555 1_555
O1AA Cu1NA 1_555 1_555
O1Z Cu1QA 1_555 1_555
O1X Cu1EA 1_555 1_555
O1Y Cu1BA 1_555 1_555
O2A Cu1IA 1_555 1_555
O2C Cu1HA 1_555 1_555
O2B Cu1FA 1_555 1_555
O2BA Cu1N 1_555 1_555
O2NA Cu1A 1_555 1_555
O2EA Cu1O 1_555 1_555
O4A Cu2A 1_555 1_555
O4B Cu2A 1_555 1_555
O5C Cu2A 1_555 1_555
O5QA Cu2NA 1_555 1_555
O5NA Cu2OA 1_555 1_555
O6N Cu1N 1_555 1_555
O6A Cu1A 1_555 1_555
O6H Cu1T 1_555 1_555
O6O Cu1O 1_555 1_555
O6C Cu1C 1_555 1_555
O6I Cu1W 1_555 1_555
O6M Cu1M 1_555 1_555
O6B Cu1B 1_555 1_555
O6K Cu1V 1_555 1_555
O6L Cu1L 1_555 1_555

#END
