
#######################################################################
#
#                 Cambridge Crystallographic Data Centre
#                                CCDC 
#
#######################################################################
#
# If this CIF has been generated from an entry in the Cambridge 
# Structural Database, then it will include bibliographic, chemical, 
# crystal, experimental, refinement or atomic coordinate data resulting 
# from the CCDC's data processing and validation procedures.
#
#######################################################################

data_LECFEG
_chemical_formula_moiety         '(C120 H76 Cu18 N36 O74 Se4)n'
_symmetry_cell_setting           cubic
_symmetry_space_group_name_H-M   'I -4 3 m'
_symmetry_Int_Tables_number      217
_space_group_name_Hall           'I -4 2 3'
loop_
_symmetry_equiv_pos_site_id
_symmetry_equiv_pos_as_xyz
1 x,y,z
2 x,-y,-z
3 -x,-y,z
4 -x,y,-z
5 y,-x,-z
6 -y,-x,z
7 -y,x,-z
8 y,x,z
9 y,z,x
10 -y,-z,x
11 y,-z,-x
12 -y,z,-x
13 z,-y,-x
14 z,y,x
15 -z,y,-x
16 -z,-y,x
17 z,x,y
18 -z,x,-y
19 -z,-x,y
20 z,-x,-y
21 x,z,y
22 x,-z,-y
23 -x,z,-y
24 -x,-z,y
25 1/2+x,1/2+y,1/2+z
26 1/2+x,1/2-y,1/2-z
27 1/2-x,1/2-y,1/2+z
28 1/2-x,1/2+y,1/2-z
29 1/2+y,1/2-x,1/2-z
30 1/2-y,1/2-x,1/2+z
31 1/2-y,1/2+x,1/2-z
32 1/2+y,1/2+x,1/2+z
33 1/2+y,1/2+z,1/2+x
34 1/2-y,1/2-z,1/2+x
35 1/2+y,1/2-z,1/2-x
36 1/2-y,1/2+z,1/2-x
37 1/2+z,1/2-y,1/2-x
38 1/2+z,1/2+y,1/2+x
39 1/2-z,1/2+y,1/2-x
40 1/2-z,1/2-y,1/2+x
41 1/2+z,1/2+x,1/2+y
42 1/2-z,1/2+x,1/2-y
43 1/2-z,1/2-x,1/2+y
44 1/2+z,1/2-x,1/2-y
45 1/2+x,1/2+z,1/2+y
46 1/2+x,1/2-z,1/2-y
47 1/2-x,1/2+z,1/2-y
48 1/2-x,1/2-z,1/2+y
_cell_length_a                   25.7875(15)
_cell_length_b                   25.7875(15)
_cell_length_c                   25.7875(15)
_cell_angle_alpha                90
_cell_angle_beta                 90
_cell_angle_gamma                90
_cell_volume                     17148.6
loop_
_atom_site_label
_atom_site_type_symbol
_atom_site_fract_x
_atom_site_fract_y
_atom_site_fract_z
C1 C 0.18550(15) 0.6087(2) 0.81450(15)
C2 C 0.16648(16) 0.55682(19) 0.83352(16)
C3 C 0.12852(16) 0.5548(2) 0.87148(16)
H1 H 0.1142 0.5856 0.8858
C4 C 0.11145(13) 0.5045(2) 0.88855(13)
C5 C 0.13196(16) 0.4601(2) 0.86804(16)
H2 H 0.1207 0.4269 0.8793
C6 C 0.16967(16) 0.4654(2) 0.83033(16)
C7 C 0.18789(16) 0.5116(2) 0.81211(16)
H3 H 0.2139 0.5131 0.7861
C8 C 0.06956(15) 0.5038(2) 0.93044(15)
C9 C 0.2371(2) 0.39356(18) 0.82323(18)
H4 H 0.2583 0.4036 0.8516
N1 N 0.24473(14) 0.35382(14) 0.79238(16)
N2 N 0.19307(13) 0.41775(16) 0.80693(13)
O1 O 0.26037(14) 0.26037(14) 0.73963(14)
O2 O 0.16519(11) 0.64964(14) 0.83481(11)
O3 O 0.22053(15) 0.6122(2) 0.77947(15)
O4 O 0.05459(11) 0.45856(13) 0.94541(11)
O5 O 0.05363(11) 0.54633(13) 0.94637(11)
O6 O 0.34630(13) 0.34630(19) 0.72646(13)
O7 O 0.37119(17) 0.37119(17) 0.62881(17)
O8 O -0.0000 0.36354(19) 1.0000
Se1 Se 0.33440(2) 0.33440(2) 0.66560(2)
Cu1 Cu 0.302780(18) 0.30278(2) 0.789590(18)
Cu2 Cu -0.0000 0.44843(3) 1.0000
H5 H 0.2418(5) 0.2418(5) 0.7582(5)
C1A C 0.18550(15) 0.3913(2) 1.18550(15)
C1C C -0.18550(15) 0.6087(2) 1.18550(15)
C1B C -0.18550(15) 0.3913(2) 0.81450(15)
C1QA C 0.31450(15) 0.31450(15) 0.8913(2)
C1G C 0.6087(2) 0.18550(15) 0.81450(15)
C1BA C 0.1087(2) 0.31450(15) 0.68550(15)
C1Q C 0.18550(15) 0.18550(15) 0.3913(2)
C1NA C 0.31450(15) 0.68550(15) 1.1087(2)
C1D C 0.6087(2) 0.81450(15) 1.18550(15)
C1EA C 0.1087(2) 0.68550(15) 1.31450(15)
C1R C 0.18550(15) 0.81450(15) 1.6087(2)
C2A C 0.16648(16) 0.44318(19) 1.16648(16)
C2C C -0.16648(16) 0.55682(19) 1.16648(16)
C2B C -0.16648(16) 0.44318(19) 0.83352(16)
C2QA C 0.33352(16) 0.33352(16) 0.94318(19)
C2G C 0.55682(19) 0.16648(16) 0.83352(16)
C2BA C 0.05682(19) 0.33352(16) 0.66648(16)
C2Q C 0.16648(16) 0.16648(16) 0.44318(19)
C2NA C 0.33352(16) 0.66648(16) 1.05682(19)
C2D C 0.55682(19) 0.83352(16) 1.16648(16)
C2EA C 0.05682(19) 0.66648(16) 1.33352(16)
C2R C 0.16648(16) 0.83352(16) 1.55682(19)
C3A C 0.12852(16) 0.4452(2) 1.12852(16)
C3C C -0.12852(16) 0.5548(2) 1.12852(16)
C3B C -0.12852(16) 0.4452(2) 0.87148(16)
C3QA C 0.37148(16) 0.37148(16) 0.9452(2)
C3G C 0.5548(2) 0.12852(16) 0.87148(16)
C3BA C 0.0548(2) 0.37148(16) 0.62852(16)
C3Q C 0.12852(16) 0.12852(16) 0.4452(2)
C3NA C 0.37148(16) 0.62852(16) 1.0548(2)
C3D C 0.5548(2) 0.87148(16) 1.12852(16)
C3EA C 0.0548(2) 0.62852(16) 1.37148(16)
C3R C 0.12852(16) 0.87148(16) 1.5548(2)
H1A H 0.1142 0.4144 1.1142
H1C H -0.1142 0.5856 1.1142
H1B H -0.1142 0.4144 0.8858
H1QA H 0.3858 0.3858 0.9144
H1G H 0.5856 0.1142 0.8858
H1BA H 0.0856 0.3858 0.6142
H1Q H 0.1142 0.1142 0.4144
H1NA H 0.3858 0.6142 1.0856
H1D H 0.5856 0.8858 1.1142
H1EA H 0.0856 0.6142 1.3858
H1R H 0.1142 0.8858 1.5856
C4A C 0.11145(13) 0.4955(2) 1.11145(13)
C4C C -0.11145(13) 0.5045(2) 1.11145(13)
C4B C -0.11145(13) 0.4955(2) 0.88855(13)
C4QA C 0.38855(13) 0.38855(13) 0.9955(2)
C4G C 0.5045(2) 0.11145(13) 0.88855(13)
C4BA C 0.0045(2) 0.38855(13) 0.61145(13)
C4Q C 0.11145(13) 0.11145(13) 0.4955(2)
C4NA C 0.38855(13) 0.61145(13) 1.0045(2)
C4D C 0.5045(2) 0.88855(13) 1.11145(13)
C4EA C 0.0045(2) 0.61145(13) 1.38855(13)
C4R C 0.11145(13) 0.88855(13) 1.5045(2)
C5A C 0.13196(16) 0.5399(2) 1.13196(16)
C5C C -0.13196(16) 0.4601(2) 1.13196(16)
C5B C -0.13196(16) 0.5399(2) 0.86804(16)
C5QA C 0.36804(16) 0.36804(16) 1.0399(2)
C5G C 0.4601(2) 0.13196(16) 0.86804(16)
C5BA C -0.0399(2) 0.36804(16) 0.63196(16)
C5Q C 0.13196(16) 0.13196(16) 0.5399(2)
C5NA C 0.36804(16) 0.63196(16) 0.9601(2)
C5D C 0.4601(2) 0.86804(16) 1.13196(16)
C5EA C -0.0399(2) 0.63196(16) 1.36804(16)
C5R C 0.13196(16) 0.86804(16) 1.4601(2)
H2A H 0.1207 0.5731 1.1207
H2C H -0.1207 0.4269 1.1207
H2B H -0.1207 0.5731 0.8793
H2QA H 0.3793 0.3793 1.0731
H2G H 0.4269 0.1207 0.8793
H2BA H -0.0731 0.3793 0.6207
H2Q H 0.1207 0.1207 0.5731
H2NA H 0.3793 0.6207 0.9269
H2D H 0.4269 0.8793 1.1207
H2EA H -0.0731 0.6207 1.3793
H2R H 0.1207 0.8793 1.4269
C6A C 0.16967(16) 0.5346(2) 1.16967(16)
C6C C -0.16967(16) 0.4654(2) 1.16967(16)
C6B C -0.16967(16) 0.5346(2) 0.83033(16)
C6QA C 0.33033(16) 0.33033(16) 1.0346(2)
C6G C 0.4654(2) 0.16967(16) 0.83033(16)
C6BA C -0.0346(2) 0.33033(16) 0.66967(16)
C6Q C 0.16967(16) 0.16967(16) 0.5346(2)
C6NA C 0.33033(16) 0.66967(16) 0.9654(2)
C6D C 0.4654(2) 0.83033(16) 1.16967(16)
C6EA C -0.0346(2) 0.66967(16) 1.33033(16)
C6R C 0.16967(16) 0.83033(16) 1.4654(2)
C7A C 0.18789(16) 0.4884(2) 1.18789(16)
C7C C -0.18789(16) 0.5116(2) 1.18789(16)
C7B C -0.18789(16) 0.4884(2) 0.81211(16)
C7QA C 0.31211(16) 0.31211(16) 0.9884(2)
C7G C 0.5116(2) 0.18789(16) 0.81211(16)
C7BA C 0.0116(2) 0.31211(16) 0.68789(16)
C7Q C 0.18789(16) 0.18789(16) 0.4884(2)
C7NA C 0.31211(16) 0.68789(16) 1.0116(2)
C7D C 0.5116(2) 0.81211(16) 1.18789(16)
C7EA C 0.0116(2) 0.68789(16) 1.31211(16)
C7R C 0.18789(16) 0.81211(16) 1.5116(2)
H3A H 0.2139 0.4869 1.2139
H3C H -0.2139 0.5131 1.2139
H3B H -0.2139 0.4869 0.7861
H3QA H 0.2861 0.2861 0.9869
H3G H 0.5131 0.2139 0.7861
H3BA H 0.0131 0.2861 0.7139
H3Q H 0.2139 0.2139 0.4869
H3NA H 0.2861 0.7139 1.0131
H3D H 0.5131 0.7861 1.2139
H3EA H 0.0131 0.7139 1.2861
H3R H 0.2139 0.7861 1.5131
C8A C 0.06956(15) 0.4962(2) 1.06956(15)
C8C C -0.06956(15) 0.5038(2) 1.06956(15)
C8B C -0.06956(15) 0.4962(2) 0.93044(15)
C8QA C 0.43044(15) 0.43044(15) 0.9962(2)
C8G C 0.5038(2) 0.06956(15) 0.93044(15)
C8BA C 0.0038(2) 0.43044(15) 0.56956(15)
C8Q C 0.06956(15) 0.06956(15) 0.4962(2)
C8NA C 0.43044(15) 0.56956(15) 1.0038(2)
C8D C 0.5038(2) 0.93044(15) 1.06956(15)
C8EA C 0.0038(2) 0.56956(15) 1.43044(15)
C8R C 0.06956(15) 0.93044(15) 1.5038(2)
C9N C 0.17677(18) 0.39356(18) 0.7629(2)
C9A C 0.2371(2) 0.60644(18) 1.17677(18)
C9O C 0.17677(18) 0.60644(18) 1.2371(2)
C9C C -0.2371(2) 0.39356(18) 1.17677(18)
C9M C -0.17677(18) 0.39356(18) 1.2371(2)
C9B C -0.2371(2) 0.60644(18) 0.82323(18)
C9L C -0.17677(18) 0.60644(18) 0.7629(2)
C9QA C 0.32323(18) 0.2629(2) 1.10644(18)
C9TA C 0.2629(2) 0.32323(18) 1.10644(18)
C9G C 0.39356(18) 0.2371(2) 0.82323(18)
C9J C 0.39356(18) 0.17677(18) 0.7629(2)
C9BA C -0.10644(18) 0.2629(2) 0.67677(18)
C9FA C -0.10644(18) 0.32323(18) 0.7371(2)
C9Q C 0.17677(18) 0.2371(2) 0.60644(18)
C9U C 0.2371(2) 0.17677(18) 0.60644(18)
C9NA C 0.32323(18) 0.7371(2) 0.89356(18)
C9UA C 0.2629(2) 0.67677(18) 0.89356(18)
C9D C 0.39356(18) 0.7629(2) 1.17677(18)
C9H C 0.39356(18) 0.82323(18) 1.2371(2)
C9EA C -0.10644(18) 0.7371(2) 1.32323(18)
C9HA C -0.10644(18) 0.67677(18) 1.2629(2)
C9R C 0.17677(18) 0.7629(2) 1.39356(18)
C9T C 0.2371(2) 0.82323(18) 1.39356(18)
H4N H 0.1484 0.4036 0.7417
H4A H 0.2583 0.5964 1.1484
H4O H 0.1484 0.5964 1.2583
H4C H -0.2583 0.4036 1.1484
H4M H -0.1484 0.4036 1.2583
H4B H -0.2583 0.5964 0.8516
H4L H -0.1484 0.5964 0.7417
H4QA H 0.3516 0.2417 1.0964
H4TA H 0.2417 0.3516 1.0964
H4G H 0.4036 0.2583 0.8516
H4J H 0.4036 0.1484 0.7417
H4BA H -0.0964 0.2417 0.6484
H4FA H -0.0964 0.3516 0.7583
H4Q H 0.1484 0.2583 0.5964
H4U H 0.2583 0.1484 0.5964
H4NA H 0.3516 0.7583 0.9036
H4UA H 0.2417 0.6484 0.9036
H4D H 0.4036 0.7417 1.1484
H4H H 0.4036 0.8516 1.2583
H4EA H -0.0964 0.7583 1.3516
H4HA H -0.0964 0.6484 1.2417
H4R H 0.1484 0.7417 1.4036
H4T H 0.2583 0.8516 1.4036
N1N N 0.20762(16) 0.35382(14) 0.75527(14)
N1A N 0.24473(14) 0.64618(14) 1.20762(16)
N1O N 0.20762(16) 0.64618(14) 1.24473(14)
N1C N -0.24473(14) 0.35382(14) 1.20762(16)
N1M N -0.20762(16) 0.35382(14) 1.24473(14)
N1B N -0.24473(14) 0.64618(14) 0.79238(16)
N1L N -0.20762(16) 0.64618(14) 0.75527(14)
N1QA N 0.29238(16) 0.25527(14) 1.14618(14)
N1TA N 0.25527(14) 0.29238(16) 1.14618(14)
N1G N 0.35382(14) 0.24473(14) 0.79238(16)
N1J N 0.35382(14) 0.20762(16) 0.75527(14)
N1BA N -0.14618(14) 0.25527(14) 0.70762(16)
N1FA N -0.14618(14) 0.29238(16) 0.74473(14)
N1Q N 0.20762(16) 0.24473(14) 0.64618(14)
N1U N 0.24473(14) 0.20762(16) 0.64618(14)
N1NA N 0.29238(16) 0.74473(14) 0.85382(14)
N1UA N 0.25527(14) 0.70762(16) 0.85382(14)
N1D N 0.35382(14) 0.75527(14) 1.20762(16)
N1H N 0.35382(14) 0.79238(16) 1.24473(14)
N1EA N -0.14618(14) 0.74473(14) 1.29238(16)
N1HA N -0.14618(14) 0.70762(16) 1.25527(14)
N1R N 0.20762(16) 0.75527(14) 1.35382(14)
N1T N 0.24473(14) 0.79238(16) 1.35382(14)
N1F N -0.35382(14) 0.24473(14) 1.20762(16)
N1P N -0.20762(16) 0.24473(14) 1.35382(14)
N1E N -0.35382(14) 0.75527(14) 0.79238(16)
N1S N -0.20762(16) 0.75527(14) 0.64618(14)
N1GA N 0.14618(14) 0.70762(16) 0.74473(14)
N1IA N 0.14618(14) 0.29238(16) 1.25527(14)
N1SA N -0.25527(14) 0.70762(16) 1.14618(14)
N1RA N -0.25527(14) 0.29238(16) 0.85382(14)
N2A N 0.19307(13) 0.58225(16) 1.19307(13)
N2C N -0.19307(13) 0.41775(16) 1.19307(13)
N2B N -0.19307(13) 0.58225(16) 0.80693(13)
N2QA N 0.30693(13) 0.30693(13) 1.08225(16)
N2G N 0.41775(16) 0.19307(13) 0.80693(13)
N2BA N -0.08225(16) 0.30693(13) 0.69307(13)
N2Q N 0.19307(13) 0.19307(13) 0.58225(16)
N2NA N 0.30693(13) 0.69307(13) 0.91775(16)
N2D N 0.41775(16) 0.80693(13) 1.19307(13)
N2EA N -0.08225(16) 0.69307(13) 1.30693(13)
N2R N 0.19307(13) 0.80693(13) 1.41775(16)
O1A O 0.26037(14) 0.73963(14) 1.26037(14)
O1C O -0.26037(14) 0.26037(14) 1.26037(14)
O1B O -0.26037(14) 0.73963(14) 0.73963(14)
O1AA O 0.23963(14) 0.76037(14) 0.76037(14)
O1Z O 0.23963(14) 0.23963(14) 1.23963(14)
O1X O -0.23963(14) 0.76037(14) 1.23963(14)
O1Y O -0.23963(14) 0.23963(14) 0.76037(14)
O2A O 0.16519(11) 0.35036(14) 1.16519(11)
O2C O -0.16519(11) 0.64964(14) 1.16519(11)
O2B O -0.16519(11) 0.35036(14) 0.83481(11)
O2QA O 0.33481(11) 0.33481(11) 0.85036(14)
O2G O 0.64964(14) 0.16519(11) 0.83481(11)
O2BA O 0.14964(14) 0.33481(11) 0.66519(11)
O2Q O 0.16519(11) 0.16519(11) 0.35036(14)
O2NA O 0.33481(11) 0.66519(11) 1.14964(14)
O2D O 0.64964(14) 0.83481(11) 1.16519(11)
O2EA O 0.14964(14) 0.66519(11) 1.33481(11)
O2R O 0.16519(11) 0.83481(11) 1.64964(14)
O2PA O -0.33481(11) 0.33481(11) 1.14964(14)
O2CA O -0.14964(14) 0.33481(11) 1.33481(11)
O2OA O -0.33481(11) 0.66519(11) 0.85036(14)
O2DA O -0.14964(14) 0.66519(11) 0.66519(11)
O3A O 0.22053(15) 0.3878(2) 1.22053(15)
O3C O -0.22053(15) 0.6122(2) 1.22053(15)
O3B O -0.22053(15) 0.3878(2) 0.77947(15)
O3QA O 0.27947(15) 0.27947(15) 0.8878(2)
O3G O 0.6122(2) 0.22053(15) 0.77947(15)
O3BA O 0.1122(2) 0.27947(15) 0.72053(15)
O3Q O 0.22053(15) 0.22053(15) 0.3878(2)
O3NA O 0.27947(15) 0.72053(15) 1.1122(2)
O3D O 0.6122(2) 0.77947(15) 1.22053(15)
O3EA O 0.1122(2) 0.72053(15) 1.27947(15)
O3R O 0.22053(15) 0.77947(15) 1.6122(2)
O4A O 0.05459(11) 0.54144(13) 1.05459(11)
O4C O -0.05459(11) 0.45856(13) 1.05459(11)
O4B O -0.05459(11) 0.54144(13) 0.94541(11)
O4QA O 0.44541(11) 0.44541(11) 1.04144(13)
O4G O 0.45856(13) 0.05459(11) 0.94541(11)
O4BA O -0.04144(13) 0.44541(11) 0.55459(11)
O4Q O 0.05459(11) 0.05459(11) 0.54144(13)
O4NA O 0.44541(11) 0.55459(11) 0.95856(13)
O4D O 0.45856(13) 0.94541(11) 1.05459(11)
O4EA O -0.04144(13) 0.55459(11) 1.44541(11)
O4R O 0.05459(11) 0.94541(11) 1.45856(13)
O4OA O 0.55459(11) 0.55459(11) 1.04144(13)
O4D_2 O 0.45856(13) -0.05459(11) 1.05459(11)
O4EA_2 O -0.04144(13) 0.55459(11) 0.44541(11)
O4S O -0.05459(11) -0.05459(11) 0.54144(13)
O5A O 0.05363(11) 0.45367(13) 1.05363(11)
O5C O -0.05363(11) 0.54633(13) 1.05363(11)
O5B O -0.05363(11) 0.45367(13) 0.94637(11)
O5QA O 0.44637(11) 0.44637(11) 0.95367(13)
O5G O 0.54633(13) 0.05363(11) 0.94637(11)
O5BA O 0.04633(13) 0.44637(11) 0.55363(11)
O5Q O 0.05363(11) 0.05363(11) 0.45367(13)
O5NA O 0.44637(11) 0.55363(11) 1.04633(13)
O5D O 0.54633(13) 0.94637(11) 1.05363(11)
O5EA O 0.04633(13) 0.55363(11) 1.44637(11)
O5R O 0.05363(11) 0.94637(11) 1.54633(13)
O5PA O 0.55363(11) 0.44637(11) 1.04633(13)
O5F O 0.45367(13) 0.05363(11) 1.05363(11)
O5E O 0.45367(13) -0.05363(11) 0.94637(11)
O5CA O -0.04633(13) 0.44637(11) 0.44637(11)
O5DA O -0.04633(13) 0.55363(11) 0.55363(11)
O5P O -0.05363(11) 0.05363(11) 0.54633(13)
O5R_2 O 0.05363(11) -0.05363(11) 0.54633(13)
O6J O 0.34630(19) 0.27354(13) 0.65370(13)
O6N O 0.27354(13) 0.34630(19) 0.65370(13)
O6A O 0.34630(13) 0.65370(19) 1.27354(13)
O6H O 0.34630(19) 0.72646(13) 1.34630(13)
O6O O 0.27354(13) 0.65370(19) 1.34630(13)
O6C O -0.34630(13) 0.34630(19) 1.27354(13)
O6I O -0.34630(19) 0.27354(13) 1.34630(13)
O6M O -0.27354(13) 0.34630(19) 1.34630(13)
O6B O -0.34630(13) 0.65370(19) 0.72646(13)
O6K O -0.34630(19) 0.72646(13) 0.65370(13)
O6L O -0.27354(13) 0.65370(19) 0.65370(13)
O6GA O 0.15370(19) 0.77354(13) 0.84630(13)
O6IA O 0.15370(19) 0.22646(13) 1.15370(13)
O6HA O -0.15370(19) 0.77354(13) 1.15370(13)
O6FA O -0.15370(19) 0.22646(13) 0.84630(13)
O7A O 0.37119(17) 0.62881(17) 1.37119(17)
O7C O -0.37119(17) 0.37119(17) 1.37119(17)
O7B O -0.37119(17) 0.62881(17) 0.62881(17)
O8A O -0.0000 0.63646(19) 1.0000
O8OA O 0.5000 0.5000 1.13646(19)
O8D O 0.36354(19) 0.0000 1.0000
O8BA O -0.13646(19) 0.5000 0.5000
O8Q O -0.0000 -0.0000 0.63646(19)
Se1A Se 0.33440(2) 0.66560(2) 1.33440(2)
Se1C Se -0.33440(2) 0.33440(2) 1.33440(2)
Se1B Se -0.33440(2) 0.66560(2) 0.66560(2)
Cu1N Cu 0.210410(18) 0.30278(2) 0.697220(18)
Cu1A Cu 0.302780(18) 0.69722(2) 1.210410(18)
Cu1O Cu 0.210410(18) 0.69722(2) 1.302780(18)
Cu1C Cu -0.302780(18) 0.30278(2) 1.210410(18)
Cu1M Cu -0.210410(18) 0.30278(2) 1.302780(18)
Cu1B Cu -0.302780(18) 0.69722(2) 0.789590(18)
Cu1L Cu -0.210410(18) 0.69722(2) 0.697220(18)
Cu1GA Cu 0.19722(2) 0.710410(18) 0.802780(18)
Cu1IA Cu 0.19722(2) 0.289590(18) 1.197220(18)
Cu1HA Cu -0.19722(2) 0.710410(18) 1.197220(18)
Cu1FA Cu -0.19722(2) 0.289590(18) 0.802780(18)
Cu1J Cu 0.30278(2) 0.210410(18) 0.697220(18)
Cu1JA Cu 0.289590(18) 0.19722(2) 1.197220(18)
Cu1MA Cu 0.710410(18) 0.19722(2) 0.802780(18)
Cu1Y Cu -0.197220(18) 0.19722(2) 0.710410(18)
Cu1Z Cu 0.197220(18) 0.19722(2) 0.289590(18)
Cu1H Cu 0.30278(2) 0.789590(18) 1.302780(18)
Cu1KA Cu 0.289590(18) 0.80278(2) 0.802780(18)
Cu1LA Cu 0.710410(18) 0.80278(2) 1.197220(18)
Cu1X Cu -0.197220(18) 0.80278(2) 1.289590(18)
Cu1AA Cu 0.197220(18) 0.80278(2) 1.710410(18)
Cu1I Cu -0.30278(2) 0.210410(18) 1.302780(18)
Cu1K Cu -0.30278(2) 0.789590(18) 0.697220(18)
Cu2A Cu -0.0000 0.55157(3) 1.0000
Cu2OA Cu 0.5000 0.5000 1.05157(3)
Cu2D Cu 0.44843(3) 0.0000 1.0000
Cu2BA Cu -0.05157(3) 0.5000 0.5000
Cu2Q Cu 0.0000 0.0000 0.55157(3)
Cu2NA Cu 0.5000 0.5000 0.94843(3)
Cu2E Cu 0.55157(3) 0.0000 1.0000
Cu2CA Cu 0.05157(3) 0.5000 0.5000
Cu2P Cu -0.0000 -0.0000 0.44843(3)
Cu2D_2 Cu 0.44843(3) 1.0000 1.0000
Cu2E_2 Cu 0.55157(3) 1.0000 1.0000
Cu2BA_2 Cu -0.05157(3) 0.5000 1.5000
Cu2CA_2 Cu 0.05157(3) 0.5000 1.5000
Cu2P_2 Cu 0.0000 1.0000 1.44843(3)
Cu2Q_2 Cu -0.0000 1.0000 1.55157(3)
H5A H 0.2418(5) 0.7582(5) 1.2418(5)
H5C H -0.2418(5) 0.2418(5) 1.2418(5)
H5B H -0.2418(5) 0.7582(5) 0.7582(5)
H5AA H 0.2582(5) 0.7418(5) 0.7418(5)
H5Z H 0.2582(5) 0.2582(5) 1.2582(5)
H5X H -0.2582(5) 0.7418(5) 1.2582(5)
H5Y H -0.2582(5) 0.2582(5) 0.7418(5)
loop_
_geom_bond_atom_site_label_1
_geom_bond_atom_site_label_2
_geom_bond_site_symmetry_1
_geom_bond_site_symmetry_2
C1 C2 1_555 1_555
C2 C3 1_555 1_555
C3 H1 1_555 1_555
C4 C3 1_555 1_555
C5 C4 1_555 1_555
H2 C5 1_555 1_555
C6 C5 1_555 1_555
C7 C2 1_555 1_555
H3 C7 1_555 1_555
C8 C4 1_555 1_555
C9 H4 1_555 1_555
N1 C9 1_555 1_555
N2 C6 1_555 1_555
O1 Cu1 1_555 1_555
O2 C1 1_555 1_555
O3 C1 1_555 1_555
O4 C8 1_555 1_555
O5 C8 1_555 1_555
O6 Se1 1_555 1_555
O7 Se1 1_555 1_555
O8 Cu2 1_555 1_555
Se1 O6J 1_555 1_555
Cu1 N1 1_555 1_555
Cu2 O4 1_555 1_555
H5 O1 1_555 1_555
C1A C2A 1_555 1_555
C1C C2C 1_555 1_555
C1B C2B 1_555 1_555
C1QA C2QA 1_555 1_555
C1G C2G 1_555 1_555
C1BA C2BA 1_555 1_555
C1Q C2Q 1_555 1_555
C1NA C2NA 1_555 1_555
C1D C2D 1_555 1_555
C1EA C2EA 1_555 1_555
C1R C2R 1_555 1_555
C2A C3A 1_555 1_555
C2C C3C 1_555 1_555
C2B C3B 1_555 1_555
C2QA C3QA 1_555 1_555
C2G C3G 1_555 1_555
C2BA C3BA 1_555 1_555
C2Q C3Q 1_555 1_555
C2NA C3NA 1_555 1_555
C2D C3D 1_555 1_555
C2EA C3EA 1_555 1_555
C2R C3R 1_555 1_555
C3A H1A 1_555 1_555
C3C H1C 1_555 1_555
C3B H1B 1_555 1_555
C3QA H1QA 1_555 1_555
C3G H1G 1_555 1_555
C3BA H1BA 1_555 1_555
C3Q H1Q 1_555 1_555
C3NA H1NA 1_555 1_555
C3D H1D 1_555 1_555
C3EA H1EA 1_555 1_555
C3R H1R 1_555 1_555
C4A C3A 1_555 1_555
C4C C3C 1_555 1_555
C4B C3B 1_555 1_555
C4QA C3QA 1_555 1_555
C4G C3G 1_555 1_555
C4BA C3BA 1_555 1_555
C4Q C3Q 1_555 1_555
C4NA C3NA 1_555 1_555
C4D C3D 1_555 1_555
C4EA C3EA 1_555 1_555
C4R C3R 1_555 1_555
C5A C4A 1_555 1_555
C5C C4C 1_555 1_555
C5B C4B 1_555 1_555
C5QA C4QA 1_555 1_555
C5G C4G 1_555 1_555
C5BA C4BA 1_555 1_555
C5Q C4Q 1_555 1_555
C5NA C4NA 1_555 1_555
C5D C4D 1_555 1_555
C5EA C4EA 1_555 1_555
C5R C4R 1_555 1_555
H2A C5A 1_555 1_555
H2C C5C 1_555 1_555
H2B C5B 1_555 1_555
H2QA C5QA 1_555 1_555
H2G C5G 1_555 1_555
H2BA C5BA 1_555 1_555
H2Q C5Q 1_555 1_555
H2NA C5NA 1_555 1_555
H2D C5D 1_555 1_555
H2EA C5EA 1_555 1_555
H2R C5R 1_555 1_555
C6A C5A 1_555 1_555
C6C C5C 1_555 1_555
C6B C5B 1_555 1_555
C6QA C5QA 1_555 1_555
C6G C5G 1_555 1_555
C6BA C5BA 1_555 1_555
C6Q C5Q 1_555 1_555
C6NA C5NA 1_555 1_555
C6D C5D 1_555 1_555
C6EA C5EA 1_555 1_555
C6R C5R 1_555 1_555
C7A C2A 1_555 1_555
C7C C2C 1_555 1_555
C7B C2B 1_555 1_555
C7QA C2QA 1_555 1_555
C7G C2G 1_555 1_555
C7BA C2BA 1_555 1_555
C7Q C2Q 1_555 1_555
C7NA C2NA 1_555 1_555
C7D C2D 1_555 1_555
C7EA C2EA 1_555 1_555
C7R C2R 1_555 1_555
H3A C7A 1_555 1_555
H3C C7C 1_555 1_555
H3B C7B 1_555 1_555
H3QA C7QA 1_555 1_555
H3G C7G 1_555 1_555
H3BA C7BA 1_555 1_555
H3Q C7Q 1_555 1_555
H3NA C7NA 1_555 1_555
H3D C7D 1_555 1_555
H3EA C7EA 1_555 1_555
H3R C7R 1_555 1_555
C8A C4A 1_555 1_555
C8C C4C 1_555 1_555
C8B C4B 1_555 1_555
C8QA C4QA 1_555 1_555
C8G C4G 1_555 1_555
C8BA C4BA 1_555 1_555
C8Q C4Q 1_555 1_555
C8NA C4NA 1_555 1_555
C8D C4D 1_555 1_555
C8EA C4EA 1_555 1_555
C8R C4R 1_555 1_555
C9N N2 1_555 1_555
C9A H4A 1_555 1_555
C9O H4O 1_555 1_555
C9C H4C 1_555 1_555
C9M H4M 1_555 1_555
C9B H4B 1_555 1_555
C9L H4L 1_555 1_555
C9QA H4QA 1_555 1_555
C9TA H4TA 1_555 1_555
C9G H4G 1_555 1_555
C9J H4J 1_555 1_555
C9BA H4BA 1_555 1_555
C9FA H4FA 1_555 1_555
C9Q H4Q 1_555 1_555
C9U H4U 1_555 1_555
C9NA H4NA 1_555 1_555
C9UA H4UA 1_555 1_555
C9D H4D 1_555 1_555
C9H H4H 1_555 1_555
C9EA H4EA 1_555 1_555
C9HA H4HA 1_555 1_555
C9R H4R 1_555 1_555
C9T H4T 1_555 1_555
H4N C9N 1_555 1_555
N1N N1 1_555 1_555
N1A C9A 1_555 1_555
N1O C9O 1_555 1_555
N1C C9C 1_555 1_555
N1M C9M 1_555 1_555
N1B C9B 1_555 1_555
N1L C9L 1_555 1_555
N1QA C9QA 1_555 1_555
N1TA C9TA 1_555 1_555
N1G Cu1 1_555 1_555
N1J C9J 1_555 1_555
N1BA C9BA 1_555 1_555
N1FA C9FA 1_555 1_555
N1Q C9Q 1_555 1_555
N1U C9U 1_555 1_555
N1NA C9NA 1_555 1_555
N1UA C9UA 1_555 1_555
N1D C9D 1_555 1_555
N1H C9H 1_555 1_555
N1EA C9EA 1_555 1_555
N1HA C9HA 1_555 1_555
N1R C9R 1_555 1_555
N1T C9T 1_555 1_555
N1F Cu1C 1_555 1_555
N1P Cu1M 1_555 1_555
N1E Cu1B 1_555 1_555
N1S Cu1L 1_555 1_555
N1GA Cu1GA 1_555 1_555
N1IA Cu1IA 1_555 1_555
N1SA Cu1HA 1_555 1_555
N1RA Cu1FA 1_555 1_555
N2A C6A 1_555 1_555
N2C C6C 1_555 1_555
N2B C6B 1_555 1_555
N2QA C6QA 1_555 1_555
N2G C6G 1_555 1_555
N2BA C6BA 1_555 1_555
N2Q C6Q 1_555 1_555
N2NA C6NA 1_555 1_555
N2D C6D 1_555 1_555
N2EA C6EA 1_555 1_555
N2R C6R 1_555 1_555
O1A Cu1A 1_555 1_555
O1C Cu1C 1_555 1_555
O1B Cu1B 1_555 1_555
O1AA Cu1GA 1_555 1_555
O1Z Cu1IA 1_555 1_555
O1X Cu1HA 1_555 1_555
O1Y Cu1FA 1_555 1_555
O2A C1A 1_555 1_555
O2C C1C 1_555 1_555
O2B C1B 1_555 1_555
O2QA Cu1 1_555 1_555
O2G C1G 1_555 1_555
O2BA C1BA 1_555 1_555
O2Q C1Q 1_555 1_555
O2NA C1NA 1_555 1_555
O2D C1D 1_555 1_555
O2EA C1EA 1_555 1_555
O2R C1R 1_555 1_555
O2PA Cu1C 1_555 1_555
O2CA Cu1M 1_555 1_555
O2OA Cu1B 1_555 1_555
O2DA Cu1L 1_555 1_555
O3A C1A 1_555 1_555
O3C C1C 1_555 1_555
O3B C1B 1_555 1_555
O3QA C1QA 1_555 1_555
O3G C1G 1_555 1_555
O3BA C1BA 1_555 1_555
O3Q C1Q 1_555 1_555
O3NA C1NA 1_555 1_555
O3D C1D 1_555 1_555
O3EA C1EA 1_555 1_555
O3R C1R 1_555 1_555
O4A C8A 1_555 1_555
O4C Cu2 1_555 1_555
O4B C8B 1_555 1_555
O4QA C8QA 1_555 1_555
O4G C8G 1_555 1_555
O4BA C8BA 1_555 1_555
O4Q C8Q 1_555 1_555
O4NA C8NA 1_555 1_555
O4D C8D 1_555 1_555
O4EA C8EA 1_555 1_555
O4R C8R 1_555 1_555
O4OA Cu2OA 1_555 1_555
O4D_2 Cu2D 1_555 1_555
O4EA_2 Cu2BA 1_555 1_555
O4S Cu2Q 1_555 1_555
O5A Cu2 1_555 1_555
O5C C8C 1_555 1_555
O5B Cu2 1_555 1_555
O5QA C8QA 1_555 1_555
O5G C8G 1_555 1_555
O5BA C8BA 1_555 1_555
O5Q C8Q 1_555 1_555
O5NA C8NA 1_555 1_555
O5D C8D 1_555 1_555
O5EA C8EA 1_555 1_555
O5R C8R 1_555 1_555
O5PA Cu2OA 1_555 1_555
O5F Cu2D 1_555 1_555
O5E Cu2D 1_555 1_555
O5CA Cu2BA 1_555 1_555
O5DA Cu2BA 1_555 1_555
O5P Cu2Q 1_555 1_555
O5R_2 Cu2Q 1_555 1_555
O6J Cu1J 1_555 1_555
O6N Se1 1_555 1_555
O6A Se1A 1_555 1_555
O6H Se1A 1_555 1_555
O6O Se1A 1_555 1_555
O6C Se1C 1_555 1_555
O6I Se1C 1_555 1_555
O6M Se1C 1_555 1_555
O6B Se1B 1_555 1_555
O6K Se1B 1_555 1_555
O6L Se1B 1_555 1_555
O6GA Cu1GA 1_555 1_555
O6IA Cu1IA 1_555 1_555
O6HA Cu1HA 1_555 1_555
O6FA Cu1FA 1_555 1_555
O7A Se1A 1_555 1_555
O7C Se1C 1_555 1_555
O7B Se1B 1_555 1_555
O8A Cu2A 1_555 1_555
O8OA Cu2OA 1_555 1_555
O8D Cu2D 1_555 1_555
O8BA Cu2BA 1_555 1_555
O8Q Cu2Q 1_555 1_555
Cu1N O1 1_555 1_555
Cu1A N1A 1_555 1_555
Cu1O N1O 1_555 1_555
Cu1C N1C 1_555 1_555
Cu1M N1M 1_555 1_555
Cu1B N1B 1_555 1_555
Cu1L N1L 1_555 1_555
Cu1GA O2 1_555 1_555
Cu1IA N1TA 1_555 1_555
Cu1HA N1HA 1_555 1_555
Cu1FA N1FA 1_555 1_555
Cu1J O1 1_555 1_555
Cu1JA N1QA 1_555 1_555
Cu1MA O2G 1_555 1_555
Cu1Y N1BA 1_555 1_555
Cu1Z O2Q 1_555 1_555
Cu1H N1H 1_555 1_555
Cu1KA N1NA 1_555 1_555
Cu1LA O2D 1_555 1_555
Cu1X N1EA 1_555 1_555
Cu1AA O2R 1_555 1_555
Cu1I O1C 1_555 1_555
Cu1K O1B 1_555 1_555
Cu2A O5 1_555 1_555
Cu2OA O4QA 1_555 1_555
Cu2D O4G 1_555 1_555
Cu2BA O4BA 1_555 1_555
Cu2Q O4Q 1_555 1_555
Cu2NA O4NA 1_555 1_555
Cu2E O5G 1_555 1_555
Cu2CA O5BA 1_555 1_555
Cu2P O5Q 1_555 1_555
Cu2D_2 O4D 1_555 1_555
Cu2E_2 O5D 1_555 1_555
Cu2BA_2 O4EA 1_555 1_555
Cu2CA_2 O5EA 1_555 1_555
Cu2P_2 O4R 1_555 1_555
Cu2Q_2 O5R 1_555 1_555
H5A O1A 1_555 1_555
H5C O1C 1_555 1_555
H5B O1B 1_555 1_555
H5AA O1AA 1_555 1_555
H5Z O1Z 1_555 1_555
H5X O1X 1_555 1_555
H5Y O1Y 1_555 1_555
C6 C7 1_555 1_555
C9 N2 1_555 1_555
O6 Cu1 1_555 1_555
C1QA O2QA 1_555 1_555
C6A C7A 1_555 1_555
C6C C7C 1_555 1_555
C6B C7B 1_555 1_555
C6QA C7QA 1_555 1_555
C6G C7G 1_555 1_555
C6BA C7BA 1_555 1_555
C6Q C7Q 1_555 1_555
C6NA C7NA 1_555 1_555
C6D C7D 1_555 1_555
C6EA C7EA 1_555 1_555
C6R C7R 1_555 1_555
C8A O5A 1_555 1_555
C8C O4C 1_555 1_555
C8B O5B 1_555 1_555
C9N N1N 1_555 1_555
C9A N2A 1_555 1_555
C9O N2A 1_555 1_555
C9C N2C 1_555 1_555
C9M N2C 1_555 1_555
C9B N2B 1_555 1_555
C9L N2B 1_555 1_555
C9QA N2QA 1_555 1_555
C9TA N2QA 1_555 1_555
C9G N1G 1_555 1_555
C9G N2G 1_555 1_555
C9J N2G 1_555 1_555
C9BA N2BA 1_555 1_555
C9FA N2BA 1_555 1_555
C9Q N2Q 1_555 1_555
C9U N2Q 1_555 1_555
C9NA N2NA 1_555 1_555
C9UA N2NA 1_555 1_555
C9D N2D 1_555 1_555
C9H N2D 1_555 1_555
C9EA N2EA 1_555 1_555
C9HA N2EA 1_555 1_555
C9R N2R 1_555 1_555
C9T N2R 1_555 1_555
N1N Cu1N 1_555 1_555
N1A N1O 1_555 1_555
N1C N1M 1_555 1_555
N1B N1L 1_555 1_555
N1QA N1TA 1_555 1_555
N1G N1J 1_555 1_555
N1J Cu1J 1_555 1_555
N1BA N1FA 1_555 1_555
N1Q N1U 1_555 1_555
N1Q Cu1N 1_555 1_555
N1U Cu1J 1_555 1_555
N1NA N1UA 1_555 1_555
N1UA Cu1GA 1_555 1_555
N1D N1H 1_555 1_555
N1D Cu1A 1_555 1_555
N1EA N1HA 1_555 1_555
N1R N1T 1_555 1_555
N1R Cu1O 1_555 1_555
N1T Cu1H 1_555 1_555
O1A Cu1O 1_555 1_555
O1A Cu1H 1_555 1_555
O1C Cu1M 1_555 1_555
O1B Cu1L 1_555 1_555
O1AA Cu1KA 1_555 1_555
O1Z Cu1JA 1_555 1_555
O1X Cu1X 1_555 1_555
O1Y Cu1Y 1_555 1_555
O2A Cu1IA 1_555 1_555
O2C Cu1HA 1_555 1_555
O2B Cu1FA 1_555 1_555
O2BA Cu1N 1_555 1_555
O2NA Cu1A 1_555 1_555
O2EA Cu1O 1_555 1_555
O4A Cu2A 1_555 1_555
O4B Cu2A 1_555 1_555
O5C Cu2A 1_555 1_555
O5QA Cu2NA 1_555 1_555
O5NA Cu2OA 1_555 1_555
O6N Cu1N 1_555 1_555
O6A Cu1A 1_555 1_555
O6H Cu1H 1_555 1_555
O6O Cu1O 1_555 1_555
O6C Cu1C 1_555 1_555
O6I Cu1I 1_555 1_555
O6M Cu1M 1_555 1_555
O6B Cu1B 1_555 1_555
O6K Cu1K 1_555 1_555
O6L Cu1L 1_555 1_555

#END
