
#######################################################################
#
#                 Cambridge Crystallographic Data Centre
#                                CCDC 
#
#######################################################################
#
# If this CIF has been generated from an entry in the Cambridge 
# Structural Database, then it will include bibliographic, chemical, 
# crystal, experimental, refinement or atomic coordinate data resulting 
# from the CCDC's data processing and validation procedures.
#
#######################################################################

data_HUZLIY
_chemical_formula_moiety         'H20 In15 O63 P14'
_symmetry_cell_setting           trigonal
_symmetry_space_group_name_H-M   'P -3 c 1'
_symmetry_Int_Tables_number      165
_space_group_name_Hall           '-P 3 2"c'
loop_
_symmetry_equiv_pos_site_id
_symmetry_equiv_pos_as_xyz
1 x,y,z
2 -y,x-y,z
3 y,x,1/2-z
4 -x+y,-x,z
5 -x,-x+y,1/2-z
6 x-y,-y,1/2-z
7 -x,-y,-z
8 y,-x+y,-z
9 -y,-x,1/2+z
10 x-y,x,-z
11 x,x-y,1/2+z
12 -x+y,y,1/2+z
_cell_length_a                   13.8684(6)
_cell_length_b                   13.8684(6)
_cell_length_c                   18.6368(16)
_cell_angle_alpha                90
_cell_angle_beta                 90
_cell_angle_gamma                120
_cell_volume                     3104.24
loop_
_atom_site_label
_atom_site_type_symbol
_atom_site_fract_x
_atom_site_fract_y
_atom_site_fract_z
H1 H 0.273(19) -0.012(12) -0.015(11)
In1 In 0.0000 0.0000 0.0000
In2 In 0.0000 0.0000 0.2500
In3 In 0.43918(5) 0.14564(5) 0.03980(4)
P1 P 0.19152(19) 0.0316(2) 0.12807(13)
H2 H 0.2019 -0.0260 0.1514
P2 P 0.63055(19) 0.12406(18) -0.05804(14)
H3 H 0.6749 0.1647 -0.1000
P3 P 0.6667 0.3333 0.1410(2)
H4 H 0.6667 0.3333 0.1936
O1 O 0.1161(5) -0.0225(6) 0.0634(4)
O2 O 0.1459(5) 0.0776(6) 0.1848(4)
O3 O 0.5576(6) 0.2332(7) 0.1206(5)
O4 O 0.5529(6) 0.1683(6) -0.0426(5)
O5 O 0.5680(7) 0.0017(7) -0.0782(5)
O6 O 0.7127(6) 0.1457(6) 0.0029(5)
O7 O 0.3071(6) 0.1262(7) 0.1071(4)
O8 O 0.3085(6) 0.0526(6) -0.0443(4)
H1A H 0.012(12) 0.285(22) -0.015(11)
H1C H -0.285(22) -0.273(19) -0.015(11)
H1F H -0.273(19) 0.012(12) 0.015(11)
H1G H -0.012(12) -0.285(22) 0.015(11)
H1I H 0.285(22) 0.273(19) 0.015(11)
In2F In -0.0000 -0.0000 -0.2500
In3A In -0.14564(5) 0.29354(7) 0.03980(4)
In3C In -0.29354(7) -0.43918(5) 0.03980(4)
In3F In -0.43918(5) -0.14564(5) -0.03980(4)
In3G In 0.14564(5) -0.29354(7) -0.03980(4)
In3I In 0.29354(7) 0.43918(5) -0.03980(4)
In3F_2 In 0.56082(5) -0.14564(5) -0.03980(4)
In3A_2 In 0.85436(5) 0.29354(7) 0.03980(4)
In3C_2 In 0.70646(7) 0.56082(5) 0.03980(4)
In3C_3 In -0.29354(7) 0.56082(5) 0.03980(4)
In3_2 In -0.56082(5) 0.14564(5) 0.03980(4)
In3G_2 In 0.14564(5) 0.70646(7) -0.03980(4)
P1A P -0.0316(2) 0.15992(28) 0.12807(13)
P1C P -0.15992(28) -0.19152(19) 0.12807(13)
P1F P -0.19152(19) -0.0316(2) -0.12807(13)
P1G P 0.0316(2) -0.15992(28) -0.12807(13)
P1I P 0.15992(28) 0.19152(19) -0.12807(13)
H2A H 0.0260 0.2279 0.1514
H2C H -0.2279 -0.2019 0.1514
H2F H -0.2019 0.0260 -0.1514
H2G H -0.0260 -0.2279 -0.1514
H2I H 0.2279 0.2019 -0.1514
P2F P 0.36945(19) -0.12406(18) 0.05804(14)
P2C P 0.49351(26) 0.36945(19) -0.05804(14)
P2A P -0.12406(18) 0.50649(26) -0.05804(14)
P2G P 0.12406(18) 0.49351(26) 0.05804(14)
P2_2 P -0.36945(19) 0.12406(18) -0.05804(14)
H3F H 0.3251 -0.1647 0.1000
H3C H 0.4898 0.3251 -0.1000
H3A H -0.1647 0.5102 -0.1000
H3G H 0.1647 0.4898 0.1000
H3_2 H -0.3251 0.1647 -0.1000
P3A P -0.3333 0.3334 0.1410(2)
H4A H -0.3333 0.3334 0.1936
O1A O 0.0225(6) 0.1386(8) 0.0634(4)
O1C O -0.1386(8) -0.1161(5) 0.0634(4)
O1F O -0.1161(5) 0.0225(6) -0.0634(4)
O1G O -0.0225(6) -0.1386(8) -0.0634(4)
O1I O 0.1386(8) 0.1161(5) -0.0634(4)
O2A O -0.0776(6) 0.0683(8) 0.1848(4)
O2C O -0.0683(8) -0.1459(5) 0.1848(4)
O2F O -0.1459(5) -0.0776(6) -0.1848(4)
O2G O 0.0776(6) -0.0683(8) -0.1848(4)
O2I O 0.0683(8) 0.1459(5) -0.1848(4)
O2B O 0.0776(6) 0.1459(5) 0.3152(4)
O2D O -0.1459(5) -0.0683(8) 0.3152(4)
O2E O 0.0683(8) -0.0776(6) 0.3152(4)
O3A O 0.7668(7) 0.3244(9) 0.1206(5)
O3C O 0.6756(9) 0.4424(6) 0.1206(5)
O3A_2 O -0.2332(7) 0.3244(9) 0.1206(5)
O3C_2 O -0.3244(9) 0.4424(6) 0.1206(5)
O3_2 O -0.4424(6) 0.2332(7) 0.1206(5)
O3C_3 O -0.3244(9) -0.5576(6) 0.1206(5)
O3F O -0.5576(6) -0.2332(7) -0.1206(5)
O3G O 0.2332(7) -0.3244(9) -0.1206(5)
O3I O 0.3244(9) 0.5576(6) -0.1206(5)
O4F O 0.4471(6) -0.1683(6) 0.0426(5)
O4C O 0.6154(8) 0.4471(6) -0.0426(5)
O4A O -0.1683(6) 0.3846(8) -0.0426(5)
O4G O 0.1683(6) 0.6154(8) 0.0426(5)
O4_2 O -0.4471(6) 0.1683(6) -0.0426(5)
O4C_2 O -0.3846(8) -0.5529(6) -0.0426(5)
O4F_2 O -0.5529(6) -0.1683(6) 0.0426(5)
O4G_2 O 0.1683(6) -0.3846(8) 0.0426(5)
O4I O 0.3846(8) 0.5529(6) 0.0426(5)
O5F O 0.4320(7) -0.0017(7) 0.0782(5)
O5C O 0.4337(10) 0.4320(7) -0.0782(5)
O5A O -0.0017(7) 0.5663(10) -0.0782(5)
O5G O 0.0017(7) 0.4337(10) 0.0782(5)
O5_2 O -0.4320(7) 0.0017(7) -0.0782(5)
O5I O -0.4337(10) -0.4320(7) 0.0782(5)
O5A_2 O -0.0017(7) -0.4337(10) -0.0782(5)
O6F O 0.2873(6) -0.1457(6) -0.0029(5)
O6C O 0.4330(8) 0.2873(6) 0.0029(5)
O6A O -0.1457(6) 0.5670(8) 0.0029(5)
O6G O 0.1457(6) 0.4330(8) -0.0029(5)
O6_2 O -0.2873(6) 0.1457(6) 0.0029(5)
O6A_2 O -0.1457(6) -0.4330(8) 0.0029(5)
O6I O -0.4330(8) -0.2873(6) -0.0029(5)
O7A O -0.1262(7) 0.1809(9) 0.1071(4)
O7C O -0.1809(9) -0.3071(6) 0.1071(4)
O7F O -0.3071(6) -0.1262(7) -0.1071(4)
O7G O 0.1262(7) -0.1809(9) -0.1071(4)
O7I O 0.1809(9) 0.3071(6) -0.1071(4)
O8A O -0.0526(6) 0.2559(8) -0.0443(4)
O8C O -0.2559(8) -0.3085(6) -0.0443(4)
O8F O -0.3085(6) -0.0526(6) 0.0443(4)
O8G O 0.0526(6) -0.2559(8) 0.0443(4)
O8I O 0.2559(8) 0.3085(6) 0.0443(4)
loop_
_geom_bond_atom_site_label_1
_geom_bond_atom_site_label_2
_geom_bond_site_symmetry_1
_geom_bond_site_symmetry_2
H1 O8 1_555 1_555
In1 O1 1_555 1_555
In2 O2 1_555 1_555
In3 O3 1_555 1_555
P1 H2 1_555 1_555
P2 H3 1_555 1_555
P3 H4 1_555 1_555
O1 P1 1_555 1_555
O2 P1 1_555 1_555
O3 P3 1_555 1_555
O4 In3 1_555 1_555
O5 P2 1_555 1_555
O6 P2 1_555 1_555
O7 In3 1_555 1_555
O8 In3 1_555 1_555
H1A O8A 1_555 1_555
H1C O8C 1_555 1_555
H1F O8F 1_555 1_555
H1G O8G 1_555 1_555
H1I O8I 1_555 1_555
In2F O2F 1_555 1_555
In3A O3A_2 1_555 1_555
In3C O3C_3 1_555 1_555
In3F O3F 1_555 1_555
In3G O3G 1_555 1_555
In3I O3I 1_555 1_555
In3F_2 O5 1_555 1_555
In3A_2 O6 1_555 1_555
In3C_2 O3C 1_555 1_555
In3C_3 O3C_2 1_555 1_555
In3_2 O3_2 1_555 1_555
In3G_2 O4G 1_555 1_555
P1A H2A 1_555 1_555
P1C H2C 1_555 1_555
P1F H2F 1_555 1_555
P1G H2G 1_555 1_555
P1I H2I 1_555 1_555
P2F H3F 1_555 1_555
P2C H3C 1_555 1_555
P2A H3A 1_555 1_555
P2G H3G 1_555 1_555
P2_2 H3_2 1_555 1_555
P3A H4A 1_555 1_555
O1A In1 1_555 1_555
O1C In1 1_555 1_555
O1F In1 1_555 1_555
O1G In1 1_555 1_555
O1I In1 1_555 1_555
O2A In2 1_555 1_555
O2C In2 1_555 1_555
O2F P1F 1_555 1_555
O2G In2F 1_555 1_555
O2I In2F 1_555 1_555
O2B In2 1_555 1_555
O2D In2 1_555 1_555
O2E In2 1_555 1_555
O3A P3 1_555 1_555
O3C P3 1_555 1_555
O3A_2 P3A 1_555 1_555
O3C_2 P3A 1_555 1_555
O3_2 P3A 1_555 1_555
O4F In3F_2 1_555 1_555
O4C In3C_2 1_555 1_555
O4A In3A 1_555 1_555
O4G P2G 1_555 1_555
O4_2 In3_2 1_555 1_555
O4C_2 In3C 1_555 1_555
O4F_2 In3F 1_555 1_555
O4G_2 In3G 1_555 1_555
O4I In3I 1_555 1_555
O5F In3 1_555 1_555
O5C In3I 1_555 1_555
O5A In3G_2 1_555 1_555
O5G In3A 1_555 1_555
O5_2 In3F 1_555 1_555
O5I In3C 1_555 1_555
O5A_2 In3G 1_555 1_555
O6F In3G 1_555 1_555
O6C In3 1_555 1_555
O6A In3C_3 1_555 1_555
O6G In3I 1_555 1_555
O6_2 In3A 1_555 1_555
O6A_2 In3C 1_555 1_555
O6I In3F 1_555 1_555
O7A In3A 1_555 1_555
O7C In3C 1_555 1_555
O7F In3F 1_555 1_555
O7G In3G 1_555 1_555
O7I In3I 1_555 1_555
O8A In3A 1_555 1_555
O8C In3C 1_555 1_555
O8F In3F 1_555 1_555
O8G In3G 1_555 1_555
O8I In3I 1_555 1_555
P1 O7 1_555 1_555
P2 O4 1_555 1_555
In3A_2 O3A 1_555 1_555
P1A O1A 1_555 1_555
P1A O2A 1_555 1_555
P1A O7A 1_555 1_555
P1C O1C 1_555 1_555
P1C O2C 1_555 1_555
P1C O7C 1_555 1_555
P1F O1F 1_555 1_555
P1F O7F 1_555 1_555
P1G O1G 1_555 1_555
P1G O2G 1_555 1_555
P1G O7G 1_555 1_555
P1I O1I 1_555 1_555
P1I O2I 1_555 1_555
P1I O7I 1_555 1_555
P2F O4F 1_555 1_555
P2F O5F 1_555 1_555
P2F O6F 1_555 1_555
P2C O4C 1_555 1_555
P2C O5C 1_555 1_555
P2C O6C 1_555 1_555
P2A O4A 1_555 1_555
P2A O5A 1_555 1_555
P2A O6A 1_555 1_555
P2G O5G 1_555 1_555
P2G O6G 1_555 1_555
P2_2 O4_2 1_555 1_555
P2_2 O5_2 1_555 1_555
P2_2 O6_2 1_555 1_555

#END
