
#######################################################################
#
#                 Cambridge Crystallographic Data Centre
#                                CCDC 
#
#######################################################################
#
# If this CIF has been generated from an entry in the Cambridge 
# Structural Database, then it will include bibliographic, chemical, 
# crystal, experimental, refinement or atomic coordinate data resulting 
# from the CCDC's data processing and validation procedures.
#
#######################################################################

data_MUWRON
_chemical_formula_moiety         'C22 H12 Cu8 N4 O16'
_symmetry_cell_setting           rhombohedral
_symmetry_space_group_name_H-M   'R -3 m'
_symmetry_Int_Tables_number      166
_space_group_name_Hall           '-R 3 2"'
loop_
_symmetry_equiv_pos_site_id
_symmetry_equiv_pos_as_xyz
1 x,y,z
2 -y,x-y,z
3 -x+y,-x,z
4 y,x,-z
5 x-y,-y,-z
6 -x,-x+y,-z
7 2/3+x,1/3+y,1/3+z
8 2/3-y,1/3+x-y,1/3+z
9 2/3-x+y,1/3-x,1/3+z
10 2/3+y,1/3+x,1/3-z
11 2/3+x-y,1/3-y,1/3-z
12 2/3-x,1/3-x+y,1/3-z
13 1/3+x,2/3+y,2/3+z
14 1/3-y,2/3+x-y,2/3+z
15 1/3-x+y,2/3-x,2/3+z
16 1/3+y,2/3+x,2/3-z
17 1/3+x-y,2/3-y,2/3-z
18 1/3-x,2/3-x+y,2/3-z
19 -x,-y,-z
20 y,-x+y,-z
21 x-y,x,-z
22 -y,-x,z
23 -x+y,y,z
24 x,x-y,z
25 1/3-x,2/3-y,2/3-z
26 1/3+y,2/3-x+y,2/3-z
27 1/3+x-y,2/3+x,2/3-z
28 1/3-y,2/3-x,2/3+z
29 1/3-x+y,2/3+y,2/3+z
30 1/3+x,2/3+x-y,2/3+z
31 2/3-x,1/3-y,1/3-z
32 2/3+y,1/3-x+y,1/3-z
33 2/3+x-y,1/3+x,1/3-z
34 2/3-y,1/3-x,1/3+z
35 2/3-x+y,1/3+y,1/3+z
36 2/3+x,1/3+x-y,1/3+z
_cell_length_a                   18.6342(14)
_cell_length_b                   18.6342
_cell_length_c                   37.709(3)
_cell_angle_alpha                90
_cell_angle_beta                 90
_cell_angle_gamma                120
_cell_volume                     11339.6
loop_
_atom_site_label
_atom_site_type_symbol
_atom_site_fract_x
_atom_site_fract_y
_atom_site_fract_z
_atom_site_U_iso_or_equiv
_atom_site_thermal_displace_type
Cu1 Cu 0.85619(2) 0.71239(3) 0.13782(2) 0.0333 Uani
O1 O 0.88984(14) 0.63392(12) 0.12274(5) 0.0520 Uani
O2 O 0.85093(14) 0.55579(12) 0.17124(5) 0.0499 Uani
O3 O 0.88957(13) 0.7791(3) 0.08942(9) 0.0829 Uani
H1 H 0.8546 0.7935 0.0844 0.1250 Uiso
C1 C 0.87865(18) 0.57293(17) 0.14039(8) 0.0425 Uani
C2 C 0.89843(19) 0.51311(18) 0.12314(8) 0.0460 Uani
C3 C 0.8841(3) 0.44205(14) 0.14077(11) 0.0451 Uani
C4 C 0.9282(2) 0.52800(19) 0.08868(8) 0.0567 Uani
H2 H 0.9385 0.5764 0.0772 0.0680 Uiso
C5 C 0.9428(3) 0.47141(17) 0.07121(12) 0.0632 Uani
C6 C 0.9733(4) 0.48664(19) 0.03481(9) 0.0721 Uani
C7 C 0.9513(7) 0.5312(7) 0.0124(2) 0.0792 Uani
H3 H 0.9220 0.5557 0.0211 0.0950 Uiso
N1 N 0.9797(6) 0.5461(6) -0.02231(18) 0.0881 Uani
O1E O 1.11016(14) 0.74408(18) -0.12274(5) 0.0520 Uani
O2E O 1.14907(14) 0.70486(18) -0.17124(5) 0.0499 Uani
C1E C 1.12135(18) 0.69428(25) -0.14039(8) 0.0425 Uani
C2E C 1.10157(19) 0.61468(26) -0.12314(8) 0.0460 Uani
C3E C 1.1159(3) 0.55795(33) -0.14077(11) 0.0451 Uani
C4E C 1.0718(2) 0.59980(28) -0.08868(8) 0.0567 Uani
H2E H 1.0615 0.6379 -0.0772 0.0680 Uiso
C5E C 1.0572(3) 0.52861(34) -0.07121(12) 0.0632 Uani
C6E C 1.0267(4) 0.51334(44) -0.03481(9) 0.0721 Uani
C7E C 1.0487(7) 0.5799(10) -0.0124(2) 0.0792 Uani
H3E H 1.0780 0.6337 -0.0211 0.0950 Uiso
N1E N 1.0203(6) 0.5664(8) 0.02231(18) 0.0881 Uani
O1R O 1.11016(14) 0.36608(12) -0.12274(5) 0.0520 Uani
O2R O 1.14907(14) 0.44421(12) -0.17124(5) 0.0499 Uani
C1R C 1.12135(18) 0.42707(17) -0.14039(8) 0.0425 Uani
C2R C 1.10157(19) 0.48689(18) -0.12314(8) 0.0460 Uani
C4R C 1.0718(2) 0.47200(19) -0.08868(8) 0.0567 Uani
H2R H 1.0615 0.4236 -0.0772 0.0680 Uiso
C7R C 1.0487(7) 0.4688(7) -0.0124(2) 0.0792 Uani
H3R H 1.0780 0.4443 -0.0211 0.0950 Uiso
N1R N 1.0203(6) 0.4539(6) 0.02231(18) 0.0881 Uani
O1W O 0.88984(14) 0.25592(18) 0.12274(5) 0.0520 Uani
O2W O 0.85093(14) 0.29514(18) 0.17124(5) 0.0499 Uani
C1W C 0.87865(18) 0.30572(25) 0.14039(8) 0.0425 Uani
C2W C 0.89843(19) 0.38532(26) 0.12314(8) 0.0460 Uani
C4W C 0.9282(2) 0.40020(28) 0.08868(8) 0.0567 Uani
H2W H 0.9385 0.3621 0.0772 0.0680 Uiso
C7W C 0.9513(7) 0.4201(10) 0.0124(2) 0.0792 Uani
H3W H 0.9220 0.3663 0.0211 0.0950 Uiso
N1W N 0.9797(6) 0.4336(8) -0.02231(18) 0.0881 Uani
H1V H 0.9389 0.7935 0.0844 0.1250 Uiso
Cu1J Cu 0.81047(4) 0.62094(3) 0.19551(2) 0.0333 Uani
O3J O 0.77714(33) 0.5542(3) 0.24391(9) 0.0829 Uani
H1J H 0.7278 0.5398 0.2489 0.1250 Uiso
H1DA H 0.8121 0.5398 0.2489 0.1250 Uiso
Cu1B Cu 0.85620(4) 0.14381(2) 0.13782(2) 0.0333 Uani
Cu1D Cu 1.14380(4) 0.28761(3) -0.13782(2) 0.0333 Uani
Cu1E Cu 1.14381(2) 0.85620(4) -0.13782(2) 0.0333 Uani
Cu1K Cu 0.81048(2) 0.18953(4) 0.19551(2) 0.0333 Uani
Cu1L Cu 1.18952(2) 0.37906(3) -0.19551(2) 0.0333 Uani
Cu1N Cu 1.18953(4) 0.81048(2) -0.19551(2) 0.0333 Uani
O1J O 0.92259(18) 0.69941(12) 0.21059(5) 0.0520 Uani
O1V O 0.74408(18) 0.63392(12) 0.12274(5) 0.0520 Uani
O1DA O 0.77683(14) 0.69941(12) 0.21059(5) 0.0520 Uani
O2J O 0.96181(18) 0.77754(12) 0.16209(5) 0.0499 Uani
O2V O 0.70486(18) 0.55579(12) 0.17124(5) 0.0499 Uani
O2DA O 0.81574(14) 0.77754(12) 0.16209(5) 0.0499 Uani
loop_
_atom_site_aniso_label
_atom_site_aniso_U_11
_atom_site_aniso_U_22
_atom_site_aniso_U_33
_atom_site_aniso_U_23
_atom_site_aniso_U_13
_atom_site_aniso_U_12
Cu1 0.0396(3) 0.0258(3) 0.0298(3) 0.00157(18) 0.00078(9) 0.01290(13)
O1 0.0774(16) 0.0421(12) 0.0462(12) 0.0058(10) 0.0147(11) 0.0372(11)
O2 0.0724(15) 0.0437(12) 0.0437(12) 0.0041(9) 0.0105(10) 0.0365(11)
O3 0.101(2) 0.090(3) 0.054(2) 0.0346(19) 0.0173(10) 0.0449(15)
C1 0.0491(18) 0.0366(16) 0.0406(16) -0.0032(13) 0.0009(13) 0.0205(14)
C2 0.059(2) 0.0382(16) 0.0454(17) 0.0010(13) 0.0077(14) 0.0278(15)
C3 0.052(3) 0.0403(16) 0.047(2) 0.0012(10) 0.0024(19) 0.0261(13)
C4 0.088(3) 0.0447(18) 0.0481(18) 0.0138(14) 0.0193(17) 0.0412(19)
C5 0.107(4) 0.0547(19) 0.046(3) 0.0152(13) 0.030(3) 0.054(2)
C6 0.126(5) 0.061(2) 0.051(3) 0.0150(15) 0.030(3) 0.063(3)
C7 0.119(6) 0.079(5) 0.067(5) 0.018(4) 0.038(5) 0.070(5)
N1 0.149(7) 0.083(5) 0.059(4) 0.023(4) 0.049(5) 0.078(6)
O1E 0.0774 0.0451 0.0462 0.0089 0.0147 0.0402
O2E 0.0724 0.0431 0.0437 0.0064 0.0105 0.0359
C1E 0.0491 0.0447 0.0406 0.0041 0.0009 0.0286
C2E 0.059 0.0416 0.0454 0.0067 0.0077 0.0312
C3E 0.052 0.0401 0.047 0.0012 0.0024 0.0259
C4E 0.088 0.0503 0.0481 0.0055 0.0193 0.0468
C5E 0.107 0.0537 0.046 0.0148 0.03 0.053
C6E 0.126 0.061 0.051 0.015 0.03 0.063
C7E 0.119 0.058 0.067 0.02 0.038 0.049
N1E 0.149 0.076 0.059 0.026 0.049 0.071
O1R 0.0774 0.0421 0.0462 0.0058 0.0147 0.0372
O2R 0.0724 0.0437 0.0437 0.0041 0.0105 0.0365
C1R 0.0491 0.0366 0.0406 -0.0032 0.0009 0.0205
C2R 0.059 0.0382 0.0454 0.001 0.0077 0.0278
C4R 0.088 0.0447 0.0481 0.0138 0.0193 0.0412
C7R 0.119 0.079 0.067 0.018 0.038 0.07
N1R 0.149 0.083 0.059 0.023 0.049 0.078
O1W 0.0774 0.0451 0.0462 0.0089 0.0147 0.0402
O2W 0.0724 0.0431 0.0437 0.0064 0.0105 0.0359
C1W 0.0491 0.0447 0.0406 0.0041 0.0009 0.0286
C2W 0.059 0.0416 0.0454 0.0067 0.0077 0.0312
C4W 0.088 0.0503 0.0481 0.0055 0.0193 0.0468
C7W 0.119 0.058 0.067 0.02 0.038 0.049
N1W 0.149 0.076 0.059 0.026 0.049 0.071
Cu1J 0.0396 0.0258 0.0298 0.00157 0.00079 0.0129
O3J 0.1012 0.09 0.054 0.0346 0.0173 0.0451
Cu1B 0.0396 0.0396 0.0298 -0.00078 0.00079 0.0267
Cu1D 0.0396 0.0258 0.0298 0.00157 0.00079 0.0129
Cu1E 0.0396 0.0396 0.0298 -0.00079 0.00078 0.0267
Cu1K 0.0396 0.0396 0.0298 -0.00079 0.00078 0.0267
Cu1L 0.0396 0.0258 0.0298 0.00157 0.00078 0.0129
Cu1N 0.0396 0.0396 0.0298 -0.00078 0.00079 0.0267
O1J 0.0451 0.0421 0.0462 0.0058 -0.0089 0.0049
O1V 0.0451 0.0421 0.0462 0.0058 -0.0089 0.0049
O1DA 0.0774 0.0421 0.0462 0.0058 0.0147 0.0372
O2J 0.0431 0.0437 0.0437 0.0041 -0.0064 0.0072
O2V 0.0431 0.0437 0.0437 0.0041 -0.0064 0.0072
O2DA 0.0724 0.0437 0.0437 0.0041 0.0105 0.0365
loop_
_geom_bond_atom_site_label_1
_geom_bond_atom_site_label_2
_geom_bond_site_symmetry_1
_geom_bond_site_symmetry_2
Cu1 O1 1_555 1_555
O1 C1 1_555 1_555
O2 C1 1_555 1_555
O3 Cu1 1_555 1_555
H1 O3 1_555 1_555
C1 C2 1_555 1_555
C2 C3 1_555 1_555
C3 C2W 1_555 1_555
C4 C2 1_555 1_555
H2 C4 1_555 1_555
C5 C4 1_555 1_555
C6 C5 1_555 1_555
C7 C6 1_555 1_555
H3 C7 1_555 1_555
N1 C7 1_555 1_555
O1E C1E 1_555 1_555
O2E C1E 1_555 1_555
C1E C2E 1_555 1_555
C2E C3E 1_555 1_555
C3E C2R 1_555 1_555
C4E C2E 1_555 1_555
H2E C4E 1_555 1_555
C5E C4E 1_555 1_555
C6E N1 1_555 1_555
C7E N1 1_555 1_555
H3E C7E 1_555 1_555
N1E C6 1_555 1_555
O1R C1R 1_555 1_555
O2R C1R 1_555 1_555
C1R C2R 1_555 1_555
C2R C4R 1_555 1_555
C4R C5E 1_555 1_555
H2R C4R 1_555 1_555
C7R C6E 1_555 1_555
H3R C7R 1_555 1_555
N1R C6 1_555 1_555
O1W C1W 1_555 1_555
O2W C1W 1_555 1_555
C1W C2W 1_555 1_555
C2W C4W 1_555 1_555
C4W C5 1_555 1_555
H2W C4W 1_555 1_555
C7W C6 1_555 1_555
H3W C7W 1_555 1_555
N1W C6E 1_555 1_555
H1V O3 1_555 1_555
Cu1J Cu1 1_555 1_555
O3J Cu1J 1_555 1_555
H1J O3J 1_555 1_555
H1DA O3J 1_555 1_555
Cu1B O1W 1_555 1_555
Cu1D O1R 1_555 1_555
Cu1E O1E 1_555 1_555
Cu1K O2W 1_555 1_555
Cu1L O2R 1_555 1_555
Cu1N O2E 1_555 1_555
O1J Cu1J 1_555 1_555
O1V Cu1 1_555 1_555
O1DA Cu1J 1_555 1_555
O2J Cu1 1_555 1_555
O2V Cu1J 1_555 1_555
O2DA Cu1 1_555 1_555
O2 Cu1J 1_555 1_555
C7 N1E 1_555 1_555
C5E C6E 1_555 1_555
C6E C7E 1_555 1_555
C7E N1E 1_555 1_555
C7R N1R 1_555 1_555
C7R N1W 1_555 1_555
N1R C7W 1_555 1_555
C7W N1W 1_555 1_555
Cu1B Cu1K 1_555 1_555
Cu1D Cu1L 1_555 1_555
Cu1E Cu1N 1_555 1_555

#END
