
#######################################################################
#
#                 Cambridge Crystallographic Data Centre
#                                CCDC 
#
#######################################################################
#
# If this CIF has been generated from an entry in the Cambridge 
# Structural Database, then it will include bibliographic, chemical, 
# crystal, experimental, refinement or atomic coordinate data resulting 
# from the CCDC's data processing and validation procedures.
#
#######################################################################

data_OFUSAL
_chemical_formula_moiety         '(C6 H12 Ag1 N3 P1 S1 1+)n'
_symmetry_cell_setting           orthorhombic
_symmetry_space_group_name_H-M   'P 21 21 21'
_symmetry_Int_Tables_number      19
_space_group_name_Hall           'P 2ac 2ab'
loop_
_symmetry_equiv_pos_site_id
_symmetry_equiv_pos_as_xyz
1 x,y,z
2 1/2-x,-y,1/2+z
3 1/2+x,1/2-y,-z
4 -x,1/2+y,1/2-z
_cell_length_a                   8.0290(2)
_cell_length_b                   9.8549(3)
_cell_length_c                   14.3776(4)
_cell_angle_alpha                90
_cell_angle_beta                 90
_cell_angle_gamma                90
_cell_volume                     1137.63
loop_
_atom_site_label
_atom_site_type_symbol
_atom_site_fract_x
_atom_site_fract_y
_atom_site_fract_z
_atom_site_U_iso_or_equiv
_atom_site_thermal_displace_type
C1 C 0.2189(2) 0.09045(18) -0.13701(12) 0.0154 Uani
H1 H 0.1462 0.0339 -0.1745 0.0180 Uiso
H2 H 0.1648 0.1775 -0.1279 0.0180 Uiso
C2 C 0.3831(2) -0.13423(16) -0.05877(12) 0.0141 Uani
H3 H 0.4254 -0.1793 -0.0036 0.0170 Uiso
H4 H 0.3157 -0.1988 -0.0931 0.0170 Uiso
C3 C 0.4130(2) 0.12240(18) 0.02480(13) 0.0174 Uani
H5 H 0.3646 0.2104 0.0384 0.0210 Uiso
H6 H 0.4559 0.0844 0.0823 0.0210 Uiso
C4 C 0.4656(2) -0.01988(17) -0.20310(12) 0.0157 Uani
H7 H 0.5602 -0.0037 -0.2435 0.0190 Uiso
H8 H 0.3897 -0.0800 -0.2356 0.0190 Uiso
C5 C 0.6316(2) 0.00735(19) -0.06435(13) 0.0176 Uani
H9 H 0.6640 -0.0350 -0.0062 0.0210 Uiso
H10 H 0.7322 0.0249 -0.0997 0.0210 Uiso
C6 C 0.4926(2) 0.19898(19) -0.13064(12) 0.0184 Uani
H11 H 0.5889 0.2220 -0.1682 0.0220 Uiso
H12 H 0.4345 0.2827 -0.1162 0.0220 Uiso
N1 N 0.38047(18) 0.11026(15) -0.18585(10) 0.0150 Uani
N2 N 0.52472(18) -0.08881(14) -0.11759(10) 0.0138 Uani
N3 N 0.54956(19) 0.13710(15) -0.04395(11) 0.0173 Uani
P1 P 0.25535(6) 0.00982(4) -0.02471(3) 0.0131 Uani
S1 S 0.05257(6) -0.03613(5) 0.04509(3) 0.0184 Uani
Ag1 Ag 0.164377(17) -0.209321(15) 0.163022(10) 0.0201 Uani
N1A N 0.11953(18) -0.11026(15) 0.31415(10) 0.0150 Uani
N2B N 0.02472(18) -0.41119(14) 0.11759(10) 0.0138 Uani
Ag1A Ag 0.335623(17) 0.209321(15) -0.336978(10) 0.0201 Uani
Ag1B Ag 0.664377(17) -0.290679(15) -0.163022(10) 0.0201 Uani
loop_
_atom_site_aniso_label
_atom_site_aniso_U_11
_atom_site_aniso_U_22
_atom_site_aniso_U_33
_atom_site_aniso_U_23
_atom_site_aniso_U_13
_atom_site_aniso_U_12
C1 0.0158(7) 0.0149(7) 0.0154(7) 0.0012(5) 0.0002(5) 0.0011(6)
C2 0.0165(6) 0.0124(6) 0.0133(7) 0.0000(5) 0.0024(5) 0.0000(5)
C3 0.0217(8) 0.0154(7) 0.0151(7) -0.0040(6) -0.0009(6) -0.0027(6)
C4 0.0187(7) 0.0171(7) 0.0112(7) -0.0003(6) 0.0016(5) 0.0001(6)
C5 0.0135(7) 0.0205(7) 0.0187(8) 0.0001(6) -0.0030(5) -0.0021(6)
C6 0.0205(7) 0.0157(7) 0.0190(7) 0.0029(6) -0.0016(6) -0.0056(7)
N1 0.0164(6) 0.0144(6) 0.0142(6) 0.0013(5) 0.0007(5) -0.0021(5)
N2 0.0129(6) 0.0161(6) 0.0125(6) -0.0004(5) 0.0008(5) 0.0006(5)
N3 0.0177(6) 0.0172(6) 0.0170(7) -0.0011(5) -0.0020(5) -0.0043(5)
P1 0.01477(17) 0.01170(16) 0.01280(19) -0.00047(14) 0.00215(14) -0.00062(14)
S1 0.01626(18) 0.01966(19) 0.0194(2) 0.00054(16) 0.00576(15) -0.00006(15)
Ag1 0.01785(5) 0.02458(6) 0.01797(6) -0.00625(5) -0.00141(5) -0.00410(5)
N1A 0.0164 0.0144 0.0142 -0.0013 -0.0007 -0.0021
N2B 0.0129 0.0161 0.0125 -0.0004 -0.0008 -0.0006
Ag1A 0.01785 0.02458 0.01797 0.00625 0.00141 -0.0041
Ag1B 0.01785 0.02458 0.01797 -0.00625 0.00141 0.0041
loop_
_geom_bond_atom_site_label_1
_geom_bond_atom_site_label_2
_geom_bond_site_symmetry_1
_geom_bond_site_symmetry_2
C1 H1 1_555 1_555
H2 C1 1_555 1_555
C2 H3 1_555 1_555
H4 C2 1_555 1_555
C3 H5 1_555 1_555
H6 C3 1_555 1_555
C4 H7 1_555 1_555
H8 C4 1_555 1_555
C5 H9 1_555 1_555
H10 C5 1_555 1_555
C6 H11 1_555 1_555
H12 C6 1_555 1_555
N1 C1 1_555 1_555
N2 C2 1_555 1_555
N3 C3 1_555 1_555
P1 C1 1_555 1_555
S1 P1 1_555 1_555
Ag1 S1 1_555 1_555
N1A Ag1 1_555 1_555
N2B Ag1 1_555 1_555
Ag1A N1 1_555 1_555
Ag1B N2 1_555 1_555
C2 P1 1_555 1_555
C3 P1 1_555 1_555
C4 N1 1_555 1_555
C4 N2 1_555 1_555
C5 N2 1_555 1_555
C5 N3 1_555 1_555
C6 N1 1_555 1_555
C6 N3 1_555 1_555

#END
