
#######################################################################
#
#                 Cambridge Crystallographic Data Centre
#                                CCDC 
#
#######################################################################
#
# If this CIF has been generated from an entry in the Cambridge 
# Structural Database, then it will include bibliographic, chemical, 
# crystal, experimental, refinement or atomic coordinate data resulting 
# from the CCDC's data processing and validation procedures.
#
#######################################################################

data_AXINAX01
_chemical_formula_moiety         '(C162 H138 Co11 O60)n'
_symmetry_cell_setting           monoclinic
_symmetry_space_group_name_H-M   'C 2/c'
_symmetry_Int_Tables_number      15
_space_group_name_Hall           '-C 2yc'
loop_
_symmetry_equiv_pos_site_id
_symmetry_equiv_pos_as_xyz
1 x,y,z
2 -x,y,1/2-z
3 1/2+x,1/2+y,z
4 1/2-x,1/2+y,1/2-z
5 -x,-y,-z
6 x,-y,1/2+z
7 1/2-x,1/2-y,-z
8 1/2+x,1/2-y,1/2+z
_cell_length_a                   45.386(9)
_cell_length_b                   35.904(7)
_cell_length_c                   33.184(7)
_cell_angle_alpha                90
_cell_angle_beta                 94.91(3)
_cell_angle_gamma                90
_cell_volume                     53876.2
loop_
_atom_site_label
_atom_site_type_symbol
_atom_site_fract_x
_atom_site_fract_y
_atom_site_fract_z
_atom_site_U_iso_or_equiv
_atom_site_thermal_displace_type
C1 C 0.97644(9) 0.21533(13) 0.18217(16) 0.0488 Uani
C2 C 0.79102(9) 0.49206(13) 0.01449(14) 0.0548 Uani
C3 C 0.95676(9) 0.16523(13) 0.13427(12) 0.0528 Uani
H1 H 0.9705 0.1726 0.1165 0.0630 Uiso
C4 C 0.78211(13) 0.50882(14) -0.02825(16) 0.0660 Uani
C5 C 0.95528(8) 0.18363(12) 0.17153(13) 0.0462 Uani
C6 C 0.93435(9) 0.17377(12) 0.19786(13) 0.0497 Uani
H2 H 0.9332 0.1865 0.2221 0.0600 Uiso
C7 C 0.91490(8) 0.14390(12) 0.18682(13) 0.0487 Uani
H3 H 0.9009 0.1368 0.2042 0.0590 Uiso
C8 C 0.93771(9) 0.13625(14) 0.12444(14) 0.0596 Uani
H4 H 0.9387 0.1236 0.1001 0.0710 Uiso
C9 C 0.91628(8) 0.12539(12) 0.15139(13) 0.0471 Uani
C10 C 0.89671(8) 0.09296(13) 0.14067(13) 0.0493 Uani
C11 C 0.88587(8) 0.08703(12) 0.09969(12) 0.0467 Uani
H5 H 0.8914 0.1027 0.0794 0.0560 Uiso
C12 C 0.86638(8) 0.05661(12) 0.09031(13) 0.0455 Uani
C13 C 0.85917(8) 0.03375(13) 0.12100(13) 0.0504 Uani
H6 H 0.8465 0.0138 0.1149 0.0600 Uiso
C14 C 0.87025(8) 0.03952(12) 0.16166(13) 0.0459 Uani
C15 C 0.88875(8) 0.06896(12) 0.17062(12) 0.0458 Uani
H7 H 0.8961 0.0730 0.1973 0.0550 Uiso
C16 C 0.86084(8) 0.01447(12) 0.19408(13) 0.0494 Uani
C17 C 0.83309(9) 0.00195(14) 0.19387(14) 0.0584 Uani
H8 H 0.8197 0.0072 0.1718 0.0700 Uiso
C18 C 0.88149(9) 0.00432(14) 0.22622(14) 0.0629 Uani
H9 H 0.9012 0.0112 0.2257 0.0760 Uiso
C19 C 0.82379(9) -0.01849(15) 0.22557(14) 0.0630 Uani
H10 H 0.8042 -0.0263 0.2250 0.0760 Uiso
C20 C 0.87270(9) -0.01570(14) 0.25849(14) 0.0639 Uani
H11 H 0.8864 -0.0213 0.2801 0.0770 Uiso
C21 C 0.84410(9) -0.02753(14) 0.25907(13) 0.0602 Uani
C22 C 0.83347(12) -0.04660(16) 0.29453(15) 0.0760 Uani
C23 C 0.85359(9) 0.05129(13) 0.04883(14) 0.0512 Uani
C24 C 0.86995(10) 0.05937(14) 0.01661(16) 0.0651 Uani
H12 H 0.8892 0.0680 0.0222 0.0780 Uiso
C25 C 0.85905(9) 0.05529(14) -0.02407(13) 0.0657 Uani
H13 H 0.8705 0.0608 -0.0452 0.0790 Uiso
C26 C 0.82569(9) 0.03827(12) 0.04078(14) 0.0571 Uani
H14 H 0.8143 0.0325 0.0619 0.0690 Uiso
C27 C 0.82932(9) 0.04211(13) -0.03113(15) 0.0566 Uani
C28 C 0.81372(10) 0.03336(13) -0.00001(15) 0.0613 Uani
H15 H 0.7947 0.0239 -0.0051 0.0740 Uiso
C29 C 0.81648(11) 0.03927(14) -0.07439(16) 0.0568 Uani
C30 C 1.05549(10) 0.25339(14) 0.19730(14) 0.0495 Uani
C31 C 1.08159(8) 0.24415(13) 0.22646(14) 0.0515 Uani
C32 C 1.10175(8) 0.21707(13) 0.21711(14) 0.0562 Uani
H16 H 1.0985 0.2032 0.1935 0.0670 Uiso
C33 C 1.12715(9) 0.21087(13) 0.24362(15) 0.0592 Uani
H17 H 1.1401 0.1916 0.2388 0.0710 Uiso
C34 C 1.08641(8) 0.26555(13) 0.25998(13) 0.0512 Uani
H18 H 1.0725 0.2832 0.2662 0.0610 Uiso
C35 C 1.11300(9) 0.26064(13) 0.28557(14) 0.0570 Uani
H19 H 1.1169 0.2758 0.3081 0.0680 Uiso
C36 C 1.13277(8) 0.23384(13) 0.27714(14) 0.0544 Uani
C37 C 1.16182(8) 0.22916(13) 0.30268(13) 0.0522 Uani
C38 C 1.17836(9) 0.26099(13) 0.31317(16) 0.0686 Uani
H20 H 1.1709 0.2844 0.3059 0.0830 Uiso
C39 C 1.20644(8) 0.25754(14) 0.33486(16) 0.0668 Uani
C40 C 1.17199(8) 0.19447(13) 0.31447(14) 0.0553 Uani
H21 H 1.1605 0.1735 0.3079 0.0660 Uiso
C41 C 1.21479(9) 0.32540(14) 0.34990(14) 0.0601 Uani
H22 H 1.1946 0.3281 0.3520 0.0720 Uiso
C42 C 1.25600(9) 0.28773(13) 0.33858(17) 0.0777 Uani
H23 H 1.2638 0.2645 0.3331 0.0930 Uiso
C43 C 1.22554(9) 0.29166(14) 0.34205(15) 0.0650 Uani
C44 C 1.23296(9) 0.35634(13) 0.35492(14) 0.0610 Uani
H24 H 1.2249 0.3794 0.3605 0.0730 Uiso
C45 C 1.27425(10) 0.31842(14) 0.34339(16) 0.0752 Uani
H25 H 1.2944 0.3159 0.3411 0.0900 Uiso
C46 C 1.19994(9) 0.19061(13) 0.33671(15) 0.0644 Uani
C47 C 1.21612(9) 0.22291(12) 0.34678(15) 0.0622 Uani
H26 H 1.2342 0.2207 0.3622 0.0750 Uiso
C48 C 1.21112(9) 0.15381(13) 0.34939(16) 0.0661 Uani
C49 C 1.24211(9) 0.14720(14) 0.35363(16) 0.0720 Uani
H27 H 1.2551 0.1662 0.3483 0.0860 Uiso
C50 C 1.19301(9) 0.12383(14) 0.35702(15) 0.0673 Uani
H28 H 1.1726 0.1271 0.3543 0.0810 Uiso
C51 C 1.20423(9) 0.08985(13) 0.36840(15) 0.0622 Uani
H29 H 1.1913 0.0704 0.3727 0.0750 Uiso
C52 C 1.23455(9) 0.08369(13) 0.37378(15) 0.0588 Uani
C53 C 1.25307(9) 0.11253(13) 0.36568(17) 0.0724 Uani
H30 H 1.2734 0.1087 0.3683 0.0870 Uiso
C54 C 1.24706(9) 0.04635(13) 0.38632(13) 0.0514 Uani
C55 C 0.93924(8) 0.33715(13) 0.17404(15) 0.0553 Uani
C56 C 0.96758(9) 0.31506(14) 0.17910(16) 0.0537 Uani
C57 C 0.92122(9) 0.33586(15) 0.13769(14) 0.0681 Uani
H31 H 0.9267 0.3217 0.1161 0.0810 Uiso
C58 C 0.89497(9) 0.35606(15) 0.13415(15) 0.0669 Uani
H32 H 0.8837 0.3562 0.1094 0.0800 Uiso
C59 C 0.90331(9) 0.37709(14) 0.20332(14) 0.0593 Uani
H33 H 0.8977 0.3915 0.2247 0.0710 Uiso
C60 C 0.88509(8) 0.37568(13) 0.16566(13) 0.0489 Uani
C61 C 0.85750(9) 0.39808(13) 0.16284(14) 0.0529 Uani
C62 C 0.84713(9) 0.41593(14) 0.12652(14) 0.0631 Uani
H34 H 0.8572 0.4130 0.1035 0.0760 Uiso
C63 C 0.82199(10) 0.43769(13) 0.12509(14) 0.0548 Uani
C64 C 0.81116(10) 0.45750(13) 0.08646(14) 0.0547 Uani
C65 C 0.83014(11) 0.46646(15) 0.05826(16) 0.0726 Uani
H35 H 0.8501 0.4613 0.0643 0.0870 Uiso
C66 C 0.78139(9) 0.46613(12) 0.07825(13) 0.0521 Uani
H36 H 0.7678 0.4603 0.0967 0.0630 Uiso
C67 C 0.77228(9) 0.48386(13) 0.04167(13) 0.0537 Uani
H37 H 0.7524 0.4901 0.0363 0.0640 Uiso
C68 C 0.82158(9) 0.48288(14) 0.02072(14) 0.0659 Uani
H38 H 0.8348 0.4874 0.0014 0.0790 Uiso
C69 C 0.84184(9) 0.40205(13) 0.19582(14) 0.0558 Uani
H39 H 0.8481 0.3893 0.2194 0.0670 Uiso
C70 C 0.80719(10) 0.44227(13) 0.15885(15) 0.0598 Uani
H40 H 0.7905 0.4574 0.1574 0.0720 Uiso
C71 C 0.81639(9) 0.42488(12) 0.19558(12) 0.0489 Uani
C72 C 0.80138(9) 0.42956(13) 0.23231(13) 0.0576 Uani
C73 C 0.77070(9) 0.43224(13) 0.23207(14) 0.0563 Uani
H41 H 0.7590 0.4297 0.2078 0.0670 Uiso
C74 C 0.75767(9) 0.43854(13) 0.26702(14) 0.0587 Uani
H42 H 0.7372 0.4397 0.2663 0.0700 Uiso
C75 C 0.77433(9) 0.44330(13) 0.30342(13) 0.0548 Uani
C76 C 0.80416(9) 0.44060(13) 0.30387(13) 0.0579 Uani
H43 H 0.8155 0.4433 0.3284 0.0700 Uiso
C77 C 0.81813(10) 0.43407(14) 0.26992(15) 0.0669 Uani
H44 H 0.8386 0.4326 0.2714 0.0800 Uiso
C78 C 0.92927(9) 0.35670(13) 0.20726(15) 0.0555 Uani
H45 H 0.9403 0.3558 0.2322 0.0670 Uiso
C79 C 1.28278(10) 0.38678(16) 0.35541(14) 0.0603 Uani
C80 C 1.26244(9) 0.35328(13) 0.35169(14) 0.0596 Uani
C81 C 0.76005(11) 0.45261(14) 0.34013(14) 0.0622 Uani
O1 O 0.99165(7) 0.22536(9) 0.15449(10) 0.0627 Uani
O2 O 0.97664(5) 0.22923(8) 0.21705(9) 0.0506 Uani
O3 O 0.97750(6) 0.30366(10) 0.14817(10) 0.0636 Uani
O4 O 0.97840(5) 0.31110(8) 0.21569(8) 0.0548 Uani
O5 O 1.03377(5) 0.27192(8) 0.20863(8) 0.0431 Uani
O6 O 1.05604(5) 0.24376(9) 0.16070(10) 0.0597 Uani
O7 O 1.27408(6) 0.04394(8) 0.39409(10) 0.0653 Uani
O8 O 1.22906(6) 0.01991(8) 0.38881(8) 0.0512 Uani
O9 O 0.79161(7) 0.02330(9) -0.08076(8) 0.0635 Uani
O10 O 0.82968(7) 0.05015(10) -0.10323(10) 0.0615 Uani
O11 O 0.85321(6) -0.06239(9) 0.31925(9) 0.0694 Uani
O12 O 0.80640(6) -0.04585(11) 0.30006(9) 0.0787 Uani
O13 O 1.27108(6) 0.41802(9) 0.36006(8) 0.0543 Uani
O14 O 1.30963(7) 0.38028(9) 0.35405(9) 0.0644 Uani
O15 O 0.73266(6) 0.44865(8) 0.34276(8) 0.0572 Uani
O16 O 0.80159(8) 0.51588(11) -0.05115(10) 0.0733 Uani
O17 O 0.75595(7) 0.00353(9) -0.16794(12) 0.0933 Uani
O18 O 1.34186(7) -0.03425(11) 0.39152(11) 0.0915 Uani
O19 O 0.75437(6) 0.51446(9) -0.03565(9) 0.0667 Uani
O20 O 0.89276(7) 0.07335(11) -0.11119(10) 0.0964 Uani
O21 O 1.19717(6) -0.04297(9) 0.42278(11) 0.0796 Uani
O22 O 0.85210(8) 0.12874(12) -0.07854(11) 0.1088 Uani
O23 O 1.33671(7) 0.04695(15) 0.42029(14) 0.1331 Uani
O24 O 0.77646(6) 0.46414(8) 0.37227(8) 0.0576 Uani
O25 O 1.24853(8) -0.08846(9) 0.42422(10) 0.0851 Uani
O26 O 1.00954(7) 0.26602(12) 0.08397(10) 0.0898 Uani
O27 O 1.04003(8) 0.32143(12) 0.13603(12) 0.1023 Uani
O28 O 0.87067(7) 0.13831(11) -0.16204(12) 0.0968 Uani
O29 O 1.31471(8) 0.02311(12) 0.33606(12) 0.0996 Uani
O30 O 0.81408(18) -0.01789(16) -0.15133(15) 0.2066 Uani
Co1 Co 1.0000 0.26941(2) 0.2500 0.0414 Uani
Co2 Co 0.792816(13) 0.033222(17) -0.144361(18) 0.0597 Uani
Co3 Co 1.238967(12) -0.032935(16) 0.407452(17) 0.0518 Uani
Co4 Co 0.850420(12) 0.095376(19) -0.130918(18) 0.0640 Uani
Co5 Co 1.015023(11) 0.273346(18) 0.146606(17) 0.0536 Uani
Co6 Co 1.307235(12) 0.003971(18) 0.393168(19) 0.0636 Uani
C1A C 1.02356(9) 0.21533(13) 0.31783(16) 0.0488 Uani
C2A C 1.20898(9) 0.49206(13) 0.48551(14) 0.0548 Uani
C3A C 1.04324(9) 0.16523(13) 0.36573(12) 0.0528 Uani
H1A H 1.0295 0.1726 0.3835 0.0630 Uiso
C4A C 1.21789(13) 0.50882(14) 0.52825(16) 0.0660 Uani
C5A C 1.04472(8) 0.18363(12) 0.32847(13) 0.0462 Uani
C6A C 1.06565(9) 0.17377(12) 0.30214(13) 0.0497 Uani
H2A H 1.0668 0.1865 0.2779 0.0600 Uiso
C7A C 1.08510(8) 0.14390(12) 0.31318(13) 0.0487 Uani
H3A H 1.0991 0.1368 0.2958 0.0590 Uiso
C8A C 1.06229(9) 0.13625(14) 0.37556(14) 0.0596 Uani
H4A H 1.0613 0.1236 0.3999 0.0710 Uiso
C9A C 1.08372(8) 0.12539(12) 0.34861(13) 0.0471 Uani
C10A C 1.10329(8) 0.09296(13) 0.35933(13) 0.0493 Uani
C11A C 1.11413(8) 0.08703(12) 0.40031(12) 0.0467 Uani
H5A H 1.1086 0.1027 0.4206 0.0560 Uiso
C12A C 1.13362(8) 0.05661(12) 0.40969(13) 0.0455 Uani
C13A C 1.14083(8) 0.03375(13) 0.37900(13) 0.0504 Uani
H6A H 1.1535 0.0138 0.3851 0.0600 Uiso
C14A C 1.12975(8) 0.03952(12) 0.33834(13) 0.0459 Uani
C15A C 1.11125(8) 0.06896(12) 0.32938(12) 0.0458 Uani
H7A H 1.1039 0.0730 0.3027 0.0550 Uiso
C16A C 1.13916(8) 0.01447(12) 0.30592(13) 0.0494 Uani
C17A C 1.16691(9) 0.00195(14) 0.30613(14) 0.0584 Uani
H8A H 1.1803 0.0072 0.3282 0.0700 Uiso
C18A C 1.11851(9) 0.00432(14) 0.27378(14) 0.0629 Uani
H9A H 1.0988 0.0112 0.2743 0.0760 Uiso
C19A C 1.17621(9) -0.01849(15) 0.27443(14) 0.0630 Uani
H10A H 1.1958 -0.0263 0.2750 0.0760 Uiso
C20A C 1.12730(9) -0.01570(14) 0.24151(14) 0.0639 Uani
H11A H 1.1136 -0.0213 0.2199 0.0770 Uiso
C21A C 1.15590(9) -0.02753(14) 0.24093(13) 0.0602 Uani
C22A C 1.16653(12) -0.04660(16) 0.20547(15) 0.0760 Uani
C23A C 1.14641(9) 0.05129(13) 0.45117(14) 0.0512 Uani
C24A C 1.13005(10) 0.05937(14) 0.48339(16) 0.0651 Uani
H12A H 1.1108 0.0680 0.4778 0.0780 Uiso
C25A C 1.14095(9) 0.05529(14) 0.52407(13) 0.0657 Uani
H13A H 1.1295 0.0608 0.5452 0.0790 Uiso
C26A C 1.17431(9) 0.03827(12) 0.45922(14) 0.0571 Uani
H14A H 1.1857 0.0325 0.4381 0.0690 Uiso
C27A C 1.17068(9) 0.04211(13) 0.53113(15) 0.0566 Uani
C28A C 1.18628(10) 0.03336(13) 0.50001(15) 0.0613 Uani
H15A H 1.2053 0.0239 0.5051 0.0740 Uiso
C29A C 1.18352(11) 0.03927(14) 0.57439(16) 0.0568 Uani
C30A C 0.94451(10) 0.25339(14) 0.30270(14) 0.0495 Uani
C31A C 0.91841(8) 0.24415(13) 0.27354(14) 0.0515 Uani
C32A C 0.89825(8) 0.21707(13) 0.28289(14) 0.0562 Uani
H16A H 0.9015 0.2032 0.3065 0.0670 Uiso
C33A C 0.87285(9) 0.21087(13) 0.25638(15) 0.0592 Uani
H17A H 0.8599 0.1916 0.2612 0.0710 Uiso
C34A C 0.91359(8) 0.26555(13) 0.24002(13) 0.0512 Uani
H18A H 0.9275 0.2832 0.2338 0.0610 Uiso
C35A C 0.88700(9) 0.26064(13) 0.21443(14) 0.0570 Uani
H19A H 0.8831 0.2758 0.1919 0.0680 Uiso
C36A C 0.86723(8) 0.23384(13) 0.22286(14) 0.0544 Uani
C37A C 0.83818(8) 0.22916(13) 0.19732(13) 0.0522 Uani
C38A C 0.82164(9) 0.26099(13) 0.18683(16) 0.0686 Uani
H20A H 0.8291 0.2844 0.1941 0.0830 Uiso
C39A C 0.79356(8) 0.25754(14) 0.16514(16) 0.0668 Uani
C40A C 0.82801(8) 0.19447(13) 0.18553(14) 0.0553 Uani
H21A H 0.8395 0.1735 0.1921 0.0660 Uiso
C41A C 0.78521(9) 0.32540(14) 0.15010(14) 0.0601 Uani
H22A H 0.8054 0.3281 0.1480 0.0720 Uiso
C42A C 0.74400(9) 0.28773(13) 0.16142(17) 0.0777 Uani
H23A H 0.7362 0.2645 0.1669 0.0930 Uiso
C43A C 0.77446(9) 0.29166(14) 0.15795(15) 0.0650 Uani
C44A C 0.76704(9) 0.35634(13) 0.14508(14) 0.0610 Uani
H24A H 0.7751 0.3794 0.1395 0.0730 Uiso
C45A C 0.72575(10) 0.31842(14) 0.15661(16) 0.0752 Uani
H25A H 0.7056 0.3159 0.1589 0.0900 Uiso
C46A C 0.80006(9) 0.19061(13) 0.16329(15) 0.0644 Uani
C47A C 0.78388(9) 0.22291(12) 0.15322(15) 0.0622 Uani
H26A H 0.7658 0.2207 0.1378 0.0750 Uiso
C48A C 0.78888(9) 0.15381(13) 0.15061(16) 0.0661 Uani
C49A C 0.75789(9) 0.14720(14) 0.14637(16) 0.0720 Uani
H27A H 0.7449 0.1662 0.1517 0.0860 Uiso
C50A C 0.80699(9) 0.12383(14) 0.14298(15) 0.0673 Uani
H28A H 0.8274 0.1271 0.1457 0.0810 Uiso
C51A C 0.79577(9) 0.08985(13) 0.13160(15) 0.0622 Uani
H29A H 0.8087 0.0704 0.1273 0.0750 Uiso
C52A C 0.76545(9) 0.08369(13) 0.12622(15) 0.0588 Uani
C53A C 0.74693(9) 0.11253(13) 0.13432(17) 0.0724 Uani
H30A H 0.7266 0.1087 0.1317 0.0870 Uiso
C54A C 0.75294(9) 0.04635(13) 0.11368(13) 0.0514 Uani
C55A C 1.06076(8) 0.33715(13) 0.32596(15) 0.0553 Uani
C56A C 1.03242(9) 0.31506(14) 0.32090(16) 0.0537 Uani
C57A C 1.07878(9) 0.33586(15) 0.36231(14) 0.0681 Uani
H31A H 1.0733 0.3217 0.3839 0.0810 Uiso
C58A C 1.10503(9) 0.35606(15) 0.36585(15) 0.0669 Uani
H32A H 1.1163 0.3562 0.3906 0.0800 Uiso
C59A C 1.09669(9) 0.37709(14) 0.29668(14) 0.0593 Uani
H33A H 1.1023 0.3915 0.2753 0.0710 Uiso
C60A C 1.11491(8) 0.37568(13) 0.33434(13) 0.0489 Uani
C61A C 1.14250(9) 0.39808(13) 0.33716(14) 0.0529 Uani
C62A C 1.15287(9) 0.41593(14) 0.37348(14) 0.0631 Uani
H34A H 1.1428 0.4130 0.3965 0.0760 Uiso
C63A C 1.17801(10) 0.43769(13) 0.37491(14) 0.0548 Uani
C64A C 1.18884(10) 0.45750(13) 0.41354(14) 0.0547 Uani
C65A C 1.16986(11) 0.46646(15) 0.44174(16) 0.0726 Uani
H35A H 1.1499 0.4613 0.4357 0.0870 Uiso
C66A C 1.21861(9) 0.46613(12) 0.42175(13) 0.0521 Uani
H36A H 1.2322 0.4603 0.4033 0.0630 Uiso
C67A C 1.22772(9) 0.48386(13) 0.45833(13) 0.0537 Uani
H37A H 1.2476 0.4901 0.4637 0.0640 Uiso
C68A C 1.17842(9) 0.48288(14) 0.47928(14) 0.0659 Uani
H38A H 1.1652 0.4874 0.4986 0.0790 Uiso
C69A C 1.15816(9) 0.40205(13) 0.30418(14) 0.0558 Uani
H39A H 1.1519 0.3893 0.2806 0.0670 Uiso
C70A C 1.19281(10) 0.44227(13) 0.34115(15) 0.0598 Uani
H40A H 1.2095 0.4574 0.3426 0.0720 Uiso
C71A C 1.18361(9) 0.42488(12) 0.30442(12) 0.0489 Uani
C72A C 1.19862(9) 0.42956(13) 0.26769(13) 0.0576 Uani
C73A C 1.22930(9) 0.43224(13) 0.26793(14) 0.0563 Uani
H41A H 1.2410 0.4297 0.2922 0.0670 Uiso
C74A C 1.24233(9) 0.43854(13) 0.23298(14) 0.0587 Uani
H42A H 1.2628 0.4397 0.2337 0.0700 Uiso
C75A C 1.22567(9) 0.44330(13) 0.19658(13) 0.0548 Uani
C76A C 1.19584(9) 0.44060(13) 0.19613(13) 0.0579 Uani
H43A H 1.1845 0.4433 0.1716 0.0700 Uiso
C77A C 1.18187(10) 0.43407(14) 0.23008(15) 0.0669 Uani
H44A H 1.1614 0.4326 0.2286 0.0800 Uiso
C78A C 1.07073(9) 0.35670(13) 0.29274(15) 0.0555 Uani
H45A H 1.0597 0.3558 0.2678 0.0670 Uiso
C79A C 0.71722(10) 0.38678(16) 0.14459(14) 0.0603 Uani
C80A C 0.73756(9) 0.35328(13) 0.14831(14) 0.0596 Uani
C81A C 1.23995(11) 0.45261(14) 0.15987(14) 0.0622 Uani
O1A O 1.00835(7) 0.22536(9) 0.34551(10) 0.0627 Uani
O2A O 1.02336(5) 0.22923(8) 0.28295(9) 0.0506 Uani
O3A O 1.02250(6) 0.30366(10) 0.35183(10) 0.0636 Uani
O4A O 1.02160(5) 0.31110(8) 0.28431(8) 0.0548 Uani
O5A O 0.96623(5) 0.27192(8) 0.29137(8) 0.0431 Uani
O6A O 0.94396(5) 0.24376(9) 0.33930(10) 0.0597 Uani
O7A O 0.72592(6) 0.04394(8) 0.10591(10) 0.0653 Uani
O8A O 0.77094(6) 0.01991(8) 0.11119(8) 0.0512 Uani
O9A O 1.20839(7) 0.02330(9) 0.58076(8) 0.0635 Uani
O10A O 1.17032(7) 0.05015(10) 0.60323(10) 0.0615 Uani
O11A O 1.14679(6) -0.06239(9) 0.18075(9) 0.0694 Uani
O11E O 0.85321(6) 0.06239(9) -0.18075(9) 0.0694 Uani
O11D O 1.14679(6) 0.06239(9) 0.68075(9) 0.0694 Uani
O12A O 1.19360(6) -0.04585(11) 0.19994(9) 0.0787 Uani
O12E O 0.80640(6) 0.04585(11) -0.19994(9) 0.0787 Uani
O12D O 1.19360(6) 0.04585(11) 0.69994(9) 0.0787 Uani
O13A O 0.72892(6) 0.41802(9) 0.13994(8) 0.0543 Uani
O13G O 0.77108(6) 0.08198(9) -0.13994(8) 0.0543 Uani
O13F O 1.22892(6) 0.08198(9) 0.63994(8) 0.0543 Uani
O14A O 0.69037(7) 0.38028(9) 0.14595(9) 0.0644 Uani
O14G O 0.80963(7) 0.11972(9) -0.14595(9) 0.0644 Uani
O14F O 1.19037(7) 0.11972(9) 0.64595(9) 0.0644 Uani
O15A O 1.26734(6) 0.44865(8) 0.15724(8) 0.0572 Uani
O15B O 1.23266(6) -0.05135(8) 0.34276(8) 0.0572 Uani
O15C O 0.76734(6) -0.05135(8) 0.15724(8) 0.0572 Uani
O16A O 1.19841(8) 0.51588(11) 0.55115(10) 0.0733 Uani
O16G O 1.30159(8) -0.01588(11) 0.44885(10) 0.0733 Uani
O16F O 0.69841(8) -0.01588(11) 0.05115(10) 0.0733 Uani
O17A O 1.24405(7) 0.00353(9) 0.66794(12) 0.0933 Uani
O18A O 0.65814(7) -0.03425(11) 0.10848(11) 0.0915 Uani
O19A O 1.24563(6) 0.51446(9) 0.53565(9) 0.0667 Uani
O19G O 1.25437(6) -0.01446(9) 0.46435(9) 0.0667 Uani
O19F O 0.74563(6) -0.01446(9) 0.03565(9) 0.0667 Uani
O20A O 1.10724(7) 0.07335(11) 0.61119(10) 0.0964 Uani
O21A O 0.80283(6) -0.04297(9) 0.07722(11) 0.0796 Uani
O22A O 1.14790(8) 0.12874(12) 0.57854(11) 0.1088 Uani
O23A O 0.66329(7) 0.04695(15) 0.07971(14) 0.1331 Uani
O24A O 1.22354(6) 0.46414(8) 0.12773(8) 0.0576 Uani
O24B O 1.27646(6) -0.03586(8) 0.37227(8) 0.0576 Uani
O24C O 0.72354(6) -0.03586(8) 0.12773(8) 0.0576 Uani
O25A O 0.75147(8) -0.08846(9) 0.07578(10) 0.0851 Uani
O26A O 0.99046(7) 0.26602(12) 0.41603(10) 0.0898 Uani
O27A O 0.95997(8) 0.32143(12) 0.36397(12) 0.1023 Uani
O28A O 1.12933(7) 0.13831(11) 0.66204(12) 0.0968 Uani
O29A O 0.68529(8) 0.02311(12) 0.16394(12) 0.0996 Uani
O30A O 1.18592(18) -0.01789(16) 0.65133(15) 0.2066 Uani
Co2A Co 1.207184(13) 0.033222(17) 0.644361(18) 0.0597 Uani
Co2E Co 0.792816(13) -0.033222(17) 0.355639(18) 0.0597 Uani
Co2G Co 1.292816(13) 0.466778(17) 0.355639(18) 0.0597 Uani
Co2D Co 1.207184(13) -0.033222(17) 0.144361(18) 0.0597 Uani
Co2F Co 0.707184(13) 0.466778(17) 0.144361(18) 0.0597 Uani
Co3A Co 0.761033(12) -0.032935(16) 0.092548(17) 0.0518 Uani
Co3B Co 0.738967(12) 0.467065(16) 0.407452(17) 0.0518 Uani
Co3G Co 0.738967(12) 0.532935(16) -0.092548(17) 0.0518 Uani
Co3C Co 1.261033(12) 0.467065(16) 0.092548(17) 0.0518 Uani
Co3F Co 1.261033(12) 0.532935(16) 0.592548(17) 0.0518 Uani
Co4A Co 1.149580(12) 0.095376(19) 0.630918(18) 0.0640 Uani
Co4E Co 0.850420(12) -0.095376(19) 0.369082(18) 0.0640 Uani
Co4G Co 1.350420(12) 0.404624(19) 0.369082(18) 0.0640 Uani
Co4D Co 1.149580(12) -0.095376(19) 0.130918(18) 0.0640 Uani
Co4F Co 0.649580(12) 0.404624(19) 0.130918(18) 0.0640 Uani
Co5A Co 0.984977(11) 0.273346(18) 0.353394(17) 0.0536 Uani
Co6A Co 0.692765(12) 0.003971(18) 0.106832(19) 0.0636 Uani
Co6G Co 0.807235(12) 0.496029(18) -0.106832(19) 0.0636 Uani
Co6B Co 0.807235(12) 0.503971(18) 0.393168(19) 0.0636 Uani
Co6F Co 1.192765(12) 0.496029(18) 0.606832(19) 0.0636 Uani
Co6C Co 1.192765(12) 0.503971(18) 0.106832(19) 0.0636 Uani
loop_
_atom_site_aniso_label
_atom_site_aniso_U_11
_atom_site_aniso_U_22
_atom_site_aniso_U_33
_atom_site_aniso_U_23
_atom_site_aniso_U_13
_atom_site_aniso_U_12
C1 0.034(2) 0.066(3) 0.043(3) 0.004(3) -0.016(2) -0.003(2)
C2 0.0475 0.07 0.04 0.0098 -0.0355 -0.0081
C3 0.044(2) 0.079(4) 0.033(3) -0.007(2) -0.010(2) -0.007(2)
C4 0.082 0.061 0.046 0.008 -0.047 -0.011
C5 0.034(2) 0.061(3) 0.040(3) 0.001(2) -0.018(2) -0.001(2)
C6 0.045(2) 0.059(3) 0.042(3) -0.003(2) -0.014(2) -0.013(2)
C7 0.044(2) 0.065(3) 0.034(3) 0.005(2) -0.014(2) -0.013(2)
C8 0.046(2) 0.079(4) 0.049(3) -0.012(3) -0.023(3) -0.007(3)
C9 0.037(2) 0.064(3) 0.036(3) 0.000(3) -0.022(2) -0.014(2)
C10 0.031(2) 0.066(3) 0.048(3) 0.001(3) -0.014(2) -0.005(2)
C11 0.049(2) 0.057(3) 0.029(2) 0.008(2) -0.027(2) -0.010(2)
C12 0.048(2) 0.053(3) 0.031(3) 0.003(2) -0.023(2) 0.000(2)
C13 0.041(2) 0.066(3) 0.038(3) -0.006(3) -0.033(2) -0.004(2)
C14 0.035(2) 0.057(3) 0.042(3) 0.013(2) -0.018(2) 0.005(2)
C15 0.043(2) 0.056(3) 0.034(3) 0.000(2) -0.023(2) -0.019(2)
C16 0.034(2) 0.063(3) 0.045(3) 0.001(3) -0.032(2) -0.010(2)
C17 0.045(3) 0.083(4) 0.041(3) 0.009(3) -0.032(2) -0.006(2)
C18 0.049(3) 0.079(4) 0.055(3) 0.033(3) -0.028(2) -0.020(2)
C19 0.050(3) 0.095(4) 0.039(3) 0.012(3) -0.026(2) -0.015(3)
C20 0.037(3) 0.092(4) 0.056(3) 0.021(3) -0.035(2) -0.016(2)
C21 0.055(3) 0.088(4) 0.033(3) 0.023(3) -0.023(2) -0.009(3)
C22 0.064(3) 0.104(4) 0.052(3) 0.007(3) -0.041(3) -0.012(3)
C23 0.044(3) 0.060(3) 0.045(3) 0.007(3) -0.022(3) 0.001(2)
C24 0.047(3) 0.076(4) 0.065(4) 0.004(3) -0.038(3) -0.007(2)
C25 0.045(3) 0.108(4) 0.038(3) -0.005(3) -0.032(2) -0.003(3)
C26 0.053(3) 0.070(3) 0.043(3) -0.011(2) -0.027(2) -0.007(2)
C27 0.046(3) 0.069(3) 0.048(3) 0.005(3) -0.036(3) -0.001(2)
C28 0.055(3) 0.078(4) 0.044(3) 0.011(3) -0.035(3) -0.019(3)
C29 0.057(3) 0.067(3) 0.040(3) 0.002(3) -0.033(3) 0.009(3)
C30 0.040(3) 0.068(3) 0.037(3) 0.006(3) -0.017(2) -0.027(3)
C31 0.027(2) 0.067(3) 0.056(3) 0.001(3) -0.022(2) -0.006(2)
C32 0.031(2) 0.069(3) 0.064(3) -0.003(3) -0.022(2) 0.005(2)
C33 0.040(2) 0.056(3) 0.079(3) 0.000(3) -0.010(2) 0.002(2)
C34 0.023(2) 0.068(3) 0.060(3) -0.006(3) -0.012(2) 0.007(2)
C35 0.039(2) 0.055(3) 0.072(3) 0.000(3) -0.024(2) -0.004(2)
C36 0.023(2) 0.065(3) 0.071(3) -0.010(3) -0.020(2) 0.003(2)
C37 0.027(2) 0.059(3) 0.066(3) -0.001(3) -0.023(2) 0.009(2)
C38 0.035(2) 0.053(3) 0.111(4) 0.014(3) -0.034(3) -0.006(2)
C39 0.031(2) 0.067(4) 0.096(4) 0.001(3) -0.032(3) -0.005(2)
C40 0.025(2) 0.054(3) 0.083(3) -0.006(3) -0.018(2) 0.000(2)
C41 0.030(2) 0.061(4) 0.083(3) 0.006(3) -0.031(2) -0.005(3)
C42 0.032(2) 0.049(3) 0.144(5) 0.011(3) -0.039(3) -0.005(2)
C43 0.036(3) 0.049(3) 0.103(4) 0.003(3) -0.034(3) 0.002(2)
C44 0.041(3) 0.057(3) 0.080(3) 0.006(3) -0.024(2) -0.005(2)
C45 0.044(2) 0.059(4) 0.115(4) 0.001(3) -0.037(3) -0.002(3)
C46 0.039(2) 0.055(3) 0.092(4) -0.003(3) -0.037(3) 0.004(2)
C47 0.035(2) 0.045(3) 0.099(4) 0.005(3) -0.039(3) 0.000(2)
C48 0.039(2) 0.043(3) 0.109(4) -0.012(3) -0.036(3) 0.008(2)
C49 0.033(2) 0.059(3) 0.117(4) -0.008(3) -0.034(3) -0.008(2)
C50 0.031(2) 0.062(4) 0.103(4) 0.006(3) -0.028(2) -0.004(3)
C51 0.038(2) 0.048(3) 0.095(4) 0.007(3) -0.027(3) -0.002(2)
C52 0.036(2) 0.051(3) 0.083(3) -0.006(3) -0.032(2) 0.008(3)
C53 0.033(2) 0.051(3) 0.126(5) -0.015(3) -0.035(3) 0.007(3)
C54 0.037(3) 0.056(3) 0.056(3) -0.011(3) -0.026(2) 0.001(3)
C55 0.035(2) 0.067(3) 0.058(3) 0.013(3) -0.030(3) 0.005(2)
C56 0.038(3) 0.076(4) 0.041(3) 0.020(3) -0.032(3) -0.007(2)
C57 0.055(3) 0.103(4) 0.042(3) -0.003(3) -0.020(2) 0.016(3)
C58 0.052(3) 0.096(4) 0.046(3) 0.018(3) -0.035(3) 0.021(3)
C59 0.052(3) 0.075(3) 0.047(3) -0.002(3) -0.019(2) 0.018(3)
C60 0.038(2) 0.075(3) 0.029(3) -0.001(3) -0.025(2) 0.016(2)
C61 0.046(3) 0.071(3) 0.037(3) 0.008(3) -0.024(3) 0.006(2)
C62 0.045(2) 0.093(4) 0.046(3) 0.005(3) -0.027(2) 0.012(3)
C63 0.058(3) 0.064(3) 0.036(3) 0.012(3) -0.033(3) 0.016(3)
C64 0.051(3) 0.068(3) 0.041(3) 0.007(3) -0.019(3) 0.007(2)
C65 0.055(3) 0.102(4) 0.054(3) 0.022(3) -0.034(3) 0.006(3)
C66 0.050(3) 0.066(3) 0.036(3) 0.004(2) -0.022(2) 0.010(2)
C67 0.043(2) 0.074(3) 0.040(3) 0.008(3) -0.021(2) 0.005(2)
C68 0.055(3) 0.085(4) 0.053(3) 0.030(3) -0.022(2) -0.004(3)
C69 0.050(3) 0.070(3) 0.041(3) 0.014(3) -0.033(3) 0.006(2)
C70 0.056(3) 0.062(3) 0.054(3) -0.016(3) -0.039(3) 0.011(2)
C71 0.052(3) 0.062(3) 0.027(3) 0.005(2) -0.030(2) 0.003(2)
C72 0.063(3) 0.076(3) 0.027(3) -0.004(2) -0.035(2) 0.014(2)
C73 0.039(2) 0.082(4) 0.041(3) -0.017(3) -0.036(2) 0.011(2)
C74 0.047(2) 0.073(3) 0.050(3) -0.012(3) -0.031(3) 0.019(2)
C75 0.0475(19) 0.070(2) 0.040(2) -0.0098(18) -0.0355(18) 0.0081(17)
C76 0.059(3) 0.083(4) 0.025(3) -0.016(2) -0.036(2) 0.028(2)
C77 0.053(3) 0.095(4) 0.046(3) -0.001(3) -0.035(3) 0.016(3)
C78 0.042(2) 0.062(3) 0.056(3) 0.009(3) -0.034(2) 0.000(2)
C79 0.042 0.071 0.062 0.014 -0.03 -0.002
C80 0.046(3) 0.055(3) 0.071(3) 0.017(3) -0.035(2) -0.015(3)
C81 0.06 0.083 0.038 0.01 -0.028 0.014
O1 0.0511(17) 0.079(2) 0.053(2) 0.0013(18) -0.0254(18) -0.0155(17)
O2 0.0338(14) 0.069(2) 0.045(2) -0.0009(17) -0.0203(14) -0.0026(13)
O3 0.0511(18) 0.096(3) 0.040(2) 0.0042(19) -0.0172(16) 0.0245(17)
O4 0.0370(14) 0.070(2) 0.0526(19) -0.0011(16) -0.0243(15) 0.0027(14)
O5 0.0193(13) 0.0603(19) 0.0470(17) -0.0017(15) -0.0131(13) 0.0051(13)
O6 0.0327(15) 0.082(2) 0.062(2) 0.0023(19) -0.0094(15) 0.0039(15)
O7 0.0451(18) 0.058(2) 0.087(2) -0.0097(18) -0.0286(17) 0.0105(15)
O8 0.0445(16) 0.0512(19) 0.0542(19) -0.0015(16) -0.0178(14) 0.0047(16)
O9 0.0640(19) 0.081(2) 0.0389(18) -0.0002(16) -0.0343(16) 0.0021(18)
O10 0.0551(18) 0.087(3) 0.0358(19) -0.0069(19) -0.0340(17) 0.0225(17)
O11 0.0649(18) 0.092(3) 0.0445(18) 0.0185(18) -0.0355(17) -0.0193(17)
O12 0.0422(19) 0.134(3) 0.054(2) 0.039(2) -0.0294(16) -0.0212(18)
O13 0.0484 0.061 0.0476 -0.0017 -0.0307 -0.0073
O14 0.059 0.063 0.067 0.0008 -0.0189 -0.0072
O15 0.0484 0.071 0.0469 -0.0147 -0.0263 0.0115
O16 0.064 0.103 0.047 0.027 -0.0303 -0.028
O17 0.070(2) 0.078(2) 0.121(3) -0.018(2) -0.055(2) 0.0210(18)
O18 0.0627(19) 0.125(3) 0.079(2) -0.019(2) -0.0395(19) 0.018(2)
O19 0.0586 0.075 0.059 0.0184 -0.0378 -0.0071
O20 0.078(2) 0.139(3) 0.061(2) -0.008(2) -0.0594(19) -0.013(2)
O21 0.0622(18) 0.068(2) 0.104(3) -0.012(2) -0.0197(19) -0.0020(17)
O22 0.109(3) 0.135(4) 0.072(2) -0.041(2) -0.053(2) 0.005(3)
O23 0.0406(18) 0.203(5) 0.146(4) 0.044(3) -0.048(2) -0.034(2)
O24 0.0558 0.068 0.0424 -0.0191 -0.0337 0.0183
O25 0.113(3) 0.062(2) 0.075(2) 0.0018(19) -0.022(2) 0.011(2)
O26 0.084(2) 0.133(3) 0.050(2) 0.010(2) -0.0081(18) 0.002(2)
O27 0.088(2) 0.110(3) 0.106(3) 0.039(3) -0.009(2) -0.020(2)
O28 0.072(2) 0.095(3) 0.120(3) -0.020(2) -0.012(2) -0.017(2)
O29 0.106(3) 0.107(3) 0.083(3) -0.009(2) -0.009(2) 0.019(2)
O30 0.367(9) 0.138(5) 0.097(4) -0.059(3) -0.083(5) 0.146(6)
Co1 0.0234(4) 0.0553(6) 0.0412(5) 0.000 -0.0225(3) 0.000
Co2 0.0601(4) 0.0653(5) 0.0460(4) -0.0143(3) -0.0398(3) 0.0199(3)
Co3 0.0514(4) 0.0536(4) 0.0445(4) -0.0094(3) -0.0300(3) 0.0067(3)
Co4 0.0512(4) 0.0799(5) 0.0544(4) -0.0186(4) -0.0335(3) 0.0120(3)
Co5 0.0326(3) 0.0751(5) 0.0497(4) 0.0104(3) -0.0162(3) -0.0017(3)
Co6 0.0450(4) 0.0708(5) 0.0689(5) -0.0094(4) -0.0309(3) 0.0113(3)
C1A 0.034 0.066 0.043 -0.004 -0.016 0.003
C2A 0.0475 0.07 0.04 -0.0098 -0.0355 0.0081
C3A 0.044 0.079 0.033 0.007 -0.01 0.007
C4A 0.082 0.061 0.046 -0.008 -0.047 0.011
C5A 0.034 0.061 0.04 -0.001 -0.018 0.001
C6A 0.045 0.059 0.042 0.003 -0.014 0.013
C7A 0.044 0.065 0.034 -0.005 -0.014 0.013
C8A 0.046 0.079 0.049 0.012 -0.023 0.007
C9A 0.037 0.064 0.036 0 -0.022 0.014
C10A 0.031 0.066 0.048 -0.001 -0.014 0.005
C11A 0.049 0.057 0.029 -0.008 -0.027 0.01
C12A 0.048 0.053 0.031 -0.003 -0.023 0
C13A 0.041 0.066 0.038 0.006 -0.033 0.004
C14A 0.035 0.057 0.042 -0.013 -0.018 -0.005
C15A 0.043 0.056 0.034 0 -0.023 0.019
C16A 0.034 0.063 0.045 -0.001 -0.032 0.01
C17A 0.045 0.083 0.041 -0.009 -0.032 0.006
C18A 0.049 0.079 0.055 -0.033 -0.028 0.02
C19A 0.05 0.095 0.039 -0.012 -0.026 0.015
C20A 0.037 0.092 0.056 -0.021 -0.035 0.016
C21A 0.055 0.088 0.033 -0.023 -0.023 0.009
C22A 0.064 0.104 0.052 -0.007 -0.041 0.012
C23A 0.044 0.06 0.045 -0.007 -0.022 -0.001
C24A 0.047 0.076 0.065 -0.004 -0.038 0.007
C25A 0.045 0.108 0.038 0.005 -0.032 0.003
C26A 0.053 0.07 0.043 0.011 -0.027 0.007
C27A 0.046 0.069 0.048 -0.005 -0.036 0.001
C28A 0.055 0.078 0.044 -0.011 -0.035 0.019
C29A 0.057 0.067 0.04 -0.002 -0.033 -0.009
C30A 0.04 0.068 0.037 -0.006 -0.017 0.027
C31A 0.027 0.067 0.056 -0.001 -0.022 0.006
C32A 0.031 0.069 0.064 0.003 -0.022 -0.005
C33A 0.04 0.056 0.079 0 -0.01 -0.002
C34A 0.023 0.068 0.06 0.006 -0.012 -0.007
C35A 0.039 0.055 0.072 0 -0.024 0.004
C36A 0.023 0.065 0.071 0.01 -0.02 -0.003
C37A 0.027 0.059 0.066 0.001 -0.023 -0.009
C38A 0.035 0.053 0.111 -0.014 -0.034 0.006
C39A 0.031 0.067 0.096 -0.001 -0.032 0.005
C40A 0.025 0.054 0.083 0.006 -0.018 0
C41A 0.03 0.061 0.083 -0.006 -0.031 0.005
C42A 0.032 0.049 0.144 -0.011 -0.039 0.005
C43A 0.036 0.049 0.103 -0.003 -0.034 -0.002
C44A 0.041 0.057 0.08 -0.006 -0.024 0.005
C45A 0.044 0.059 0.115 -0.001 -0.037 0.002
C46A 0.039 0.055 0.092 0.003 -0.037 -0.004
C47A 0.035 0.045 0.099 -0.005 -0.039 0
C48A 0.039 0.043 0.109 0.012 -0.036 -0.008
C49A 0.033 0.059 0.117 0.008 -0.034 0.008
C50A 0.031 0.062 0.103 -0.006 -0.028 0.004
C51A 0.038 0.048 0.095 -0.007 -0.027 0.002
C52A 0.036 0.051 0.083 0.006 -0.032 -0.008
C53A 0.033 0.051 0.126 0.015 -0.035 -0.007
C54A 0.037 0.056 0.056 0.011 -0.026 -0.001
C55A 0.035 0.067 0.058 -0.013 -0.03 -0.005
C56A 0.038 0.076 0.041 -0.02 -0.032 0.007
C57A 0.055 0.103 0.042 0.003 -0.02 -0.016
C58A 0.052 0.096 0.046 -0.018 -0.035 -0.021
C59A 0.052 0.075 0.047 0.002 -0.019 -0.018
C60A 0.038 0.075 0.029 0.001 -0.025 -0.016
C61A 0.046 0.071 0.037 -0.008 -0.024 -0.006
C62A 0.045 0.093 0.046 -0.005 -0.027 -0.012
C63A 0.058 0.064 0.036 -0.012 -0.033 -0.016
C64A 0.051 0.068 0.041 -0.007 -0.019 -0.007
C65A 0.055 0.102 0.054 -0.022 -0.034 -0.006
C66A 0.05 0.066 0.036 -0.004 -0.022 -0.01
C67A 0.043 0.074 0.04 -0.008 -0.021 -0.005
C68A 0.055 0.085 0.053 -0.03 -0.022 0.004
C69A 0.05 0.07 0.041 -0.014 -0.033 -0.006
C70A 0.056 0.062 0.054 0.016 -0.039 -0.011
C71A 0.052 0.062 0.027 -0.005 -0.03 -0.003
C72A 0.063 0.076 0.027 0.004 -0.035 -0.014
C73A 0.039 0.082 0.041 0.017 -0.036 -0.011
C74A 0.047 0.073 0.05 0.012 -0.031 -0.019
C75A 0.0475 0.07 0.04 0.0098 -0.0355 -0.0081
C76A 0.059 0.083 0.025 0.016 -0.036 -0.028
C77A 0.053 0.095 0.046 0.001 -0.035 -0.016
C78A 0.042 0.062 0.056 -0.009 -0.034 0
C79A 0.042 0.071 0.062 -0.014 -0.03 0.002
C80A 0.046 0.055 0.071 -0.017 -0.035 0.015
C81A 0.06 0.083 0.038 -0.01 -0.028 -0.014
O1A 0.0511 0.079 0.053 -0.0013 -0.0254 0.0155
O2A 0.0338 0.069 0.045 0.0009 -0.0203 0.0026
O3A 0.0511 0.096 0.04 -0.0042 -0.0172 -0.0245
O4A 0.037 0.07 0.0526 0.0011 -0.0243 -0.0027
O5A 0.0193 0.0603 0.047 0.0017 -0.0131 -0.0051
O6A 0.0327 0.082 0.062 -0.0023 -0.0094 -0.0039
O7A 0.0451 0.058 0.087 0.0097 -0.0286 -0.0105
O8A 0.0445 0.0512 0.0542 0.0015 -0.0178 -0.0047
O9A 0.064 0.081 0.0389 0.0002 -0.0343 -0.0021
O10A 0.0551 0.087 0.0358 0.0069 -0.034 -0.0225
O11A 0.0649 0.092 0.0445 -0.0185 -0.0355 0.0193
O11E 0.0649 0.092 0.0445 -0.0185 -0.0355 0.0193
O11D 0.0649 0.092 0.0445 0.0185 -0.0355 -0.0193
O12A 0.0422 0.134 0.054 -0.039 -0.0294 0.0212
O12E 0.0422 0.134 0.054 -0.039 -0.0294 0.0212
O12D 0.0422 0.134 0.054 0.039 -0.0294 -0.0212
O13A 0.0484 0.061 0.0476 0.0017 -0.0307 0.0073
O13G 0.0484 0.061 0.0476 0.0017 -0.0307 0.0073
O13F 0.0484 0.061 0.0476 -0.0017 -0.0307 -0.0073
O14A 0.059 0.063 0.067 -0.0008 -0.0189 0.0072
O14G 0.059 0.063 0.067 -0.0008 -0.0189 0.0072
O14F 0.059 0.063 0.067 0.0008 -0.0189 -0.0072
O15A 0.0484 0.071 0.0469 0.0147 -0.0263 -0.0115
O15B 0.0484 0.071 0.0469 -0.0147 -0.0263 0.0115
O15C 0.0484 0.071 0.0469 0.0147 -0.0263 -0.0115
O16A 0.064 0.103 0.047 -0.027 -0.0303 0.028
O16G 0.064 0.103 0.047 -0.027 -0.0303 0.028
O16F 0.064 0.103 0.047 0.027 -0.0303 -0.028
O17A 0.07 0.078 0.121 0.018 -0.055 -0.021
O18A 0.0627 0.125 0.079 0.019 -0.0395 -0.018
O19A 0.0586 0.075 0.059 -0.0184 -0.0378 0.0071
O19G 0.0586 0.075 0.059 -0.0184 -0.0378 0.0071
O19F 0.0586 0.075 0.059 0.0184 -0.0378 -0.0071
O20A 0.078 0.139 0.061 0.008 -0.0594 0.013
O21A 0.0622 0.068 0.104 0.012 -0.0197 0.002
O22A 0.109 0.135 0.072 0.041 -0.053 -0.005
O23A 0.0406 0.203 0.146 -0.044 -0.048 0.034
O24A 0.0558 0.068 0.0424 0.0191 -0.0337 -0.0183
O24B 0.0558 0.068 0.0424 -0.0191 -0.0337 0.0183
O24C 0.0558 0.068 0.0424 0.0191 -0.0337 -0.0183
O25A 0.113 0.062 0.075 -0.0018 -0.022 -0.011
O26A 0.084 0.133 0.05 -0.01 -0.0081 -0.002
O27A 0.088 0.11 0.106 -0.039 -0.009 0.02
O28A 0.072 0.095 0.12 0.02 -0.012 0.017
O29A 0.106 0.107 0.083 0.009 -0.009 -0.019
O30A 0.367 0.138 0.097 0.059 -0.083 -0.146
Co2A 0.0601 0.0653 0.046 0.0143 -0.0398 -0.0199
Co2E 0.0601 0.0653 0.046 0.0143 -0.0398 -0.0199
Co2G 0.0601 0.0653 0.046 0.0143 -0.0398 -0.0199
Co2D 0.0601 0.0653 0.046 -0.0143 -0.0398 0.0199
Co2F 0.0601 0.0653 0.046 -0.0143 -0.0398 0.0199
Co3A 0.0514 0.0536 0.0445 0.0094 -0.03 -0.0067
Co3B 0.0514 0.0536 0.0445 -0.0094 -0.03 0.0067
Co3G 0.0514 0.0536 0.0445 0.0094 -0.03 -0.0067
Co3C 0.0514 0.0536 0.0445 0.0094 -0.03 -0.0067
Co3F 0.0514 0.0536 0.0445 -0.0094 -0.03 0.0067
Co4A 0.0512 0.0799 0.0544 0.0186 -0.0335 -0.012
Co4E 0.0512 0.0799 0.0544 0.0186 -0.0335 -0.012
Co4G 0.0512 0.0799 0.0544 0.0186 -0.0335 -0.012
Co4D 0.0512 0.0799 0.0544 -0.0186 -0.0335 0.012
Co4F 0.0512 0.0799 0.0544 -0.0186 -0.0335 0.012
Co5A 0.0326 0.0751 0.0497 -0.0104 -0.0162 0.0017
Co6A 0.045 0.0708 0.0689 0.0094 -0.0309 -0.0113
Co6G 0.045 0.0708 0.0689 0.0094 -0.0309 -0.0113
Co6B 0.045 0.0708 0.0689 -0.0094 -0.0309 0.0113
Co6F 0.045 0.0708 0.0689 -0.0094 -0.0309 0.0113
Co6C 0.045 0.0708 0.0689 0.0094 -0.0309 -0.0113
loop_
_geom_bond_atom_site_label_1
_geom_bond_atom_site_label_2
_geom_bond_site_symmetry_1
_geom_bond_site_symmetry_2
C1 C5 1_555 1_555
C2 C4 1_555 1_555
C3 H1 1_555 1_555
C4 O16 1_555 1_555
C5 C3 1_555 1_555
C6 C5 1_555 1_555
H2 C6 1_555 1_555
C7 C6 1_555 1_555
H3 C7 1_555 1_555
C8 C3 1_555 1_555
H4 C8 1_555 1_555
C9 C7 1_555 1_555
C10 C9 1_555 1_555
C11 C10 1_555 1_555
H5 C11 1_555 1_555
C12 C11 1_555 1_555
C13 C12 1_555 1_555
H6 C13 1_555 1_555
C14 C13 1_555 1_555
C15 C10 1_555 1_555
H7 C15 1_555 1_555
C16 C14 1_555 1_555
C17 C16 1_555 1_555
H8 C17 1_555 1_555
C18 C16 1_555 1_555
H9 C18 1_555 1_555
C19 C17 1_555 1_555
H10 C19 1_555 1_555
C20 C18 1_555 1_555
H11 C20 1_555 1_555
C21 C19 1_555 1_555
C22 C21 1_555 1_555
C23 C12 1_555 1_555
C24 C23 1_555 1_555
H12 C24 1_555 1_555
C25 C24 1_555 1_555
H13 C25 1_555 1_555
C26 C23 1_555 1_555
H14 C26 1_555 1_555
C27 C25 1_555 1_555
C28 C26 1_555 1_555
H15 C28 1_555 1_555
C29 C27 1_555 1_555
C30 C31 1_555 1_555
C31 C32 1_555 1_555
C32 H16 1_555 1_555
C33 C32 1_555 1_555
H17 C33 1_555 1_555
C34 C31 1_555 1_555
H18 C34 1_555 1_555
C35 C34 1_555 1_555
H19 C35 1_555 1_555
C36 C33 1_555 1_555
C37 C36 1_555 1_555
C38 C37 1_555 1_555
H20 C38 1_555 1_555
C39 C38 1_555 1_555
C40 C37 1_555 1_555
H21 C40 1_555 1_555
C41 H22 1_555 1_555
C42 H23 1_555 1_555
C43 C39 1_555 1_555
C44 C41 1_555 1_555
H24 C44 1_555 1_555
C45 C42 1_555 1_555
H25 C45 1_555 1_555
C46 C40 1_555 1_555
C47 C39 1_555 1_555
H26 C47 1_555 1_555
C48 C46 1_555 1_555
C49 C48 1_555 1_555
H27 C49 1_555 1_555
C50 C48 1_555 1_555
H28 C50 1_555 1_555
C51 C50 1_555 1_555
H29 C51 1_555 1_555
C52 C51 1_555 1_555
C53 C49 1_555 1_555
H30 C53 1_555 1_555
C54 C52 1_555 1_555
C55 C56 1_555 1_555
C56 O3 1_555 1_555
C57 C55 1_555 1_555
H31 C57 1_555 1_555
C58 C57 1_555 1_555
H32 C58 1_555 1_555
C59 H33 1_555 1_555
C60 C58 1_555 1_555
C61 C60 1_555 1_555
C62 C61 1_555 1_555
H34 C62 1_555 1_555
C63 C62 1_555 1_555
C64 C63 1_555 1_555
C65 C64 1_555 1_555
H35 C65 1_555 1_555
C66 C64 1_555 1_555
H36 C66 1_555 1_555
C67 C2 1_555 1_555
H37 C67 1_555 1_555
C68 C2 1_555 1_555
H38 C68 1_555 1_555
C69 C61 1_555 1_555
H39 C69 1_555 1_555
C70 C63 1_555 1_555
H40 C70 1_555 1_555
C71 C69 1_555 1_555
C72 C71 1_555 1_555
C73 C72 1_555 1_555
H41 C73 1_555 1_555
C74 C73 1_555 1_555
H42 C74 1_555 1_555
C75 C74 1_555 1_555
C76 C75 1_555 1_555
H43 C76 1_555 1_555
C77 C72 1_555 1_555
H44 C77 1_555 1_555
C78 C55 1_555 1_555
H45 C78 1_555 1_555
C79 C80 1_555 1_555
C80 C44 1_555 1_555
C81 C75 1_555 1_555
O1 C1 1_555 1_555
O2 C1 1_555 1_555
O3 Co5 1_555 1_555
O4 C56 1_555 1_555
O5 C30 1_555 1_555
O6 C30 1_555 1_555
O7 C54 1_555 1_555
O8 C54 1_555 1_555
O9 C29 1_555 1_555
O10 C29 1_555 1_555
O11 C22 1_555 1_555
O12 C22 1_555 1_555
O13 C79 1_555 1_555
O14 C79 1_555 1_555
O15 C81 1_555 1_555
O16 Co6G 1_555 1_555
O17 Co2 1_555 1_555
O18 Co6 1_555 1_555
O19 C4 1_555 1_555
O20 Co4 1_555 1_555
O21 Co3 1_555 1_555
O22 Co4 1_555 1_555
O23 Co6 1_555 1_555
O24 C81 1_555 1_555
O25 Co3 1_555 1_555
O26 Co5 1_555 1_555
O27 Co5 1_555 1_555
O28 Co4 1_555 1_555
O29 Co6 1_555 1_555
O30 Co2 1_555 1_555
Co1 O2 1_555 1_555
Co2 O9 1_555 1_555
Co3 O8 1_555 1_555
Co4 O10 1_555 1_555
Co5 O1 1_555 1_555
Co6 O7 1_555 1_555
C1A C5A 1_555 1_555
C2A C4A 1_555 1_555
C3A H1A 1_555 1_555
C4A O16A 1_555 1_555
C5A C3A 1_555 1_555
C6A C5A 1_555 1_555
H2A C6A 1_555 1_555
C7A C6A 1_555 1_555
H3A C7A 1_555 1_555
C8A C3A 1_555 1_555
H4A C8A 1_555 1_555
C9A C7A 1_555 1_555
C10A C9A 1_555 1_555
C11A C10A 1_555 1_555
H5A C11A 1_555 1_555
C12A C11A 1_555 1_555
C13A C12A 1_555 1_555
H6A C13A 1_555 1_555
C14A C13A 1_555 1_555
C15A C10A 1_555 1_555
H7A C15A 1_555 1_555
C16A C14A 1_555 1_555
C17A C16A 1_555 1_555
H8A C17A 1_555 1_555
C18A C16A 1_555 1_555
H9A C18A 1_555 1_555
C19A C17A 1_555 1_555
H10A C19A 1_555 1_555
C20A C18A 1_555 1_555
H11A C20A 1_555 1_555
C21A C19A 1_555 1_555
C22A C21A 1_555 1_555
C23A C12A 1_555 1_555
C24A C23A 1_555 1_555
H12A C24A 1_555 1_555
C25A C24A 1_555 1_555
H13A C25A 1_555 1_555
C26A C23A 1_555 1_555
H14A C26A 1_555 1_555
C27A C25A 1_555 1_555
C28A C26A 1_555 1_555
H15A C28A 1_555 1_555
C29A C27A 1_555 1_555
C30A C31A 1_555 1_555
C31A C32A 1_555 1_555
C32A H16A 1_555 1_555
C33A C32A 1_555 1_555
H17A C33A 1_555 1_555
C34A C31A 1_555 1_555
H18A C34A 1_555 1_555
C35A C34A 1_555 1_555
H19A C35A 1_555 1_555
C36A C33A 1_555 1_555
C37A C36A 1_555 1_555
C38A C37A 1_555 1_555
H20A C38A 1_555 1_555
C39A C38A 1_555 1_555
C40A C37A 1_555 1_555
H21A C40A 1_555 1_555
C41A H22A 1_555 1_555
C42A H23A 1_555 1_555
C43A C39A 1_555 1_555
C44A C41A 1_555 1_555
H24A C44A 1_555 1_555
C45A C42A 1_555 1_555
H25A C45A 1_555 1_555
C46A C40A 1_555 1_555
C47A C39A 1_555 1_555
H26A C47A 1_555 1_555
C48A C46A 1_555 1_555
C49A C48A 1_555 1_555
H27A C49A 1_555 1_555
C50A C48A 1_555 1_555
H28A C50A 1_555 1_555
C51A C50A 1_555 1_555
H29A C51A 1_555 1_555
C52A C51A 1_555 1_555
C53A C49A 1_555 1_555
H30A C53A 1_555 1_555
C54A C52A 1_555 1_555
C55A C56A 1_555 1_555
C56A O3A 1_555 1_555
C57A C55A 1_555 1_555
H31A C57A 1_555 1_555
C58A C57A 1_555 1_555
H32A C58A 1_555 1_555
C59A H33A 1_555 1_555
C60A C58A 1_555 1_555
C61A C60A 1_555 1_555
C62A C61A 1_555 1_555
H34A C62A 1_555 1_555
C63A C62A 1_555 1_555
C64A C63A 1_555 1_555
C65A C64A 1_555 1_555
H35A C65A 1_555 1_555
C66A C64A 1_555 1_555
H36A C66A 1_555 1_555
C67A C2A 1_555 1_555
H37A C67A 1_555 1_555
C68A C2A 1_555 1_555
H38A C68A 1_555 1_555
C69A C61A 1_555 1_555
H39A C69A 1_555 1_555
C70A C63A 1_555 1_555
H40A C70A 1_555 1_555
C71A C69A 1_555 1_555
C72A C71A 1_555 1_555
C73A C72A 1_555 1_555
H41A C73A 1_555 1_555
C74A C73A 1_555 1_555
H42A C74A 1_555 1_555
C75A C74A 1_555 1_555
C76A C75A 1_555 1_555
H43A C76A 1_555 1_555
C77A C72A 1_555 1_555
H44A C77A 1_555 1_555
C78A C55A 1_555 1_555
H45A C78A 1_555 1_555
C79A C80A 1_555 1_555
C80A C44A 1_555 1_555
C81A C75A 1_555 1_555
O1A C1A 1_555 1_555
O2A Co1 1_555 1_555
O3A Co5A 1_555 1_555
O4A Co1 1_555 1_555
O5A Co1 1_555 1_555
O6A C30A 1_555 1_555
O7A C54A 1_555 1_555
O8A C54A 1_555 1_555
O9A C29A 1_555 1_555
O10A C29A 1_555 1_555
O11A C22A 1_555 1_555
O11E Co4 1_555 1_555
O11D Co4A 1_555 1_555
O12A C22A 1_555 1_555
O12E Co2 1_555 1_555
O12D Co2A 1_555 1_555
O13A C79A 1_555 1_555
O13G Co2 1_555 1_555
O13F Co2A 1_555 1_555
O14A C79A 1_555 1_555
O14G Co4 1_555 1_555
O14F Co4A 1_555 1_555
O15A C81A 1_555 1_555
O15B Co3 1_555 1_555
O15C Co3A 1_555 1_555
O16A Co6F 1_555 1_555
O16G Co6 1_555 1_555
O16F Co6A 1_555 1_555
O17A Co2A 1_555 1_555
O18A Co6A 1_555 1_555
O19A C4A 1_555 1_555
O19G Co3 1_555 1_555
O19F Co3A 1_555 1_555
O20A Co4A 1_555 1_555
O21A Co3A 1_555 1_555
O22A Co4A 1_555 1_555
O23A Co6A 1_555 1_555
O24A C81A 1_555 1_555
O24B Co3 1_555 1_555
O24C Co3A 1_555 1_555
O25A Co3A 1_555 1_555
O26A Co5A 1_555 1_555
O27A Co5A 1_555 1_555
O28A Co4A 1_555 1_555
O29A Co6A 1_555 1_555
O30A Co2A 1_555 1_555
Co2A O9A 1_555 1_555
Co2E O12 1_555 1_555
Co2G O13 1_555 1_555
Co2D O12A 1_555 1_555
Co2F O13A 1_555 1_555
Co3A O8A 1_555 1_555
Co3B O15 1_555 1_555
Co3G O19 1_555 1_555
Co3C O15A 1_555 1_555
Co3F O19A 1_555 1_555
Co4A O10A 1_555 1_555
Co4E O11 1_555 1_555
Co4G O14 1_555 1_555
Co4D O11A 1_555 1_555
Co4F O14A 1_555 1_555
Co5A O1A 1_555 1_555
Co6A O7A 1_555 1_555
Co6B O24 1_555 1_555
Co6C O24A 1_555 1_555
C8 C9 1_555 1_555
C14 C15 1_555 1_555
C20 C21 1_555 1_555
C27 C28 1_555 1_555
C35 C36 1_555 1_555
C41 C43 1_555 1_555
C42 C43 1_555 1_555
C45 C80 1_555 1_555
C46 C47 1_555 1_555
C52 C53 1_555 1_555
C59 C60 1_555 1_555
C59 C78 1_555 1_555
C65 C68 1_555 1_555
C66 C67 1_555 1_555
C70 C71 1_555 1_555
C76 C77 1_555 1_555
O4 Co1 1_555 1_555
O5 Co1 1_555 1_555
O5 Co5 1_555 1_555
O6 Co5 1_555 1_555
O10 Co2 1_555 1_555
O24 Co3B 1_555 1_555
Co6 O24B 1_555 1_555
C1A O2A 1_555 1_555
C8A C9A 1_555 1_555
C14A C15A 1_555 1_555
C20A C21A 1_555 1_555
C27A C28A 1_555 1_555
C30A O5A 1_555 1_555
C35A C36A 1_555 1_555
C41A C43A 1_555 1_555
C42A C43A 1_555 1_555
C45A C80A 1_555 1_555
C46A C47A 1_555 1_555
C52A C53A 1_555 1_555
C56A O4A 1_555 1_555
C59A C60A 1_555 1_555
C59A C78A 1_555 1_555
C65A C68A 1_555 1_555
C66A C67A 1_555 1_555
C70A C71A 1_555 1_555
C76A C77A 1_555 1_555
O5A Co5A 1_555 1_555
O6A Co5A 1_555 1_555
O10A Co2A 1_555 1_555
O24A Co3C 1_555 1_555
O24C Co6A 1_555 1_555

#END
