
#######################################################################
#
#                 Cambridge Crystallographic Data Centre
#                                CCDC 
#
#######################################################################
#
# If this CIF has been generated from an entry in the Cambridge 
# Structural Database, then it will include bibliographic, chemical, 
# crystal, experimental, refinement or atomic coordinate data resulting 
# from the CCDC's data processing and validation procedures.
#
#######################################################################

data_AXINAX
_chemical_formula_moiety         'C174 H98 Co27 O84'
_symmetry_cell_setting           monoclinic
_symmetry_space_group_name_H-M   'C 2/m'
_symmetry_Int_Tables_number      12
_space_group_name_Hall           '-C 2y'
loop_
_symmetry_equiv_pos_site_id
_symmetry_equiv_pos_as_xyz
1 x,y,z
2 -x,y,-z
3 1/2+x,1/2+y,z
4 1/2-x,1/2+y,-z
5 -x,-y,-z
6 x,-y,z
7 1/2-x,1/2-y,-z
8 1/2+x,1/2-y,z
_cell_length_a                   32.989(7)
_cell_length_b                   39.080(8)
_cell_length_c                   27.682(6)
_cell_angle_alpha                90
_cell_angle_beta                 124.04(3)
_cell_angle_gamma                90
_cell_volume                     29572.7
loop_
_atom_site_label
_atom_site_type_symbol
_atom_site_fract_x
_atom_site_fract_y
_atom_site_fract_z
Co1 Co 0.5000 0.0000 0.5000
Co2 Co 0.615221(18) -0.0000 0.52238(2)
Co3 Co 0.636360(16) 0.229430(11) 0.033480(19)
Co4 Co 0.72186(2) 0.190130(19) 1.15597(3)
O1 O 0.6649(5) -0.0452(3) 0.5663(4)
O2 O 0.79022(14) 0.18430(12) 1.1612(2)
O3 O 0.58299(17) 0.25371(8) -0.04390(13)
O4 O 0.57753(10) 0.0000 0.56457(11)
O5 O 0.64691(13) 0.02059(12) 0.60812(16)
O6 O 0.59426(19) 0.21486(10) 0.0591(2)
O7 O 0.63654(9) 0.18457(6) 0.99951(11)
O8 O 0.69056(10) 0.15824(6) 1.08295(12)
O9 O 0.7451(2) 0.14493(11) 1.20683(16)
O10 O 0.65699(16) 0.19956(9) 0.1466(2)
O11 O 0.76109(18) 0.21979(12) 1.23595(18)
O12 O 0.6226(2) 0.28219(9) 0.0489(4)
O13 O 0.67426(18) 0.0000 0.5153(3)
C1 C 0.48745(10) 0.17535(7) 0.18877(13)
O14 O 0.19323(14) 0.24708(9) 0.02401(19)
O15 O 0.21325(13) 0.26381(7) 0.11054(16)
C2 C 0.22184(18) 0.25327(14) 0.0774(2)
C3 C 0.27616(16) 0.23677(11) 0.1116(2)
C4 C 0.29129(15) 0.22668(10) 0.0777(2)
H1 H 0.2713 0.2298 0.0375
C5 C 0.33747(12) 0.21146(9) 0.10339(18)
H2 H 0.3482 0.2054 0.0798
C6 C 0.36720(12) 0.20515(8) 0.16198(16)
C7 C 0.35135(17) 0.21571(10) 0.1975(2)
H3 H 0.3709 0.2123 0.2376
C8 C 0.30579(17) 0.23141(11) 0.1714(2)
H4 H 0.2950 0.2384 0.1944
C9 C 0.41418(10) 0.18709(7) 0.18665(13)
C10 C 0.42907(11) 0.16291(7) 0.23078(13)
H5 H 0.4093 0.1588 0.2443
C11 C 0.50121(10) 0.15122(7) 0.23295(13)
H6 H 0.5301 0.1390 0.2481
C12 C 0.47243(10) 0.14499(7) 0.25495(13)
C13 C 0.44350(10) 0.19297(7) 0.16624(13)
H7 H 0.4337 0.2090 0.1369
C14 C 0.48894(11) 0.11948(8) 0.30236(15)
C15 C 0.63914(15) 0.03077(8) 0.91030(13)
C16 C 0.63206(14) 0.03055(9) 0.85561(13)
H8 H 0.6300 0.0511 0.8375
C17 C 0.51816(11) 0.18231(8) 0.16664(16)
C18 C 0.6426(2) -0.0000 0.93705(19)
H9 H 0.6473 0.0000 0.9735
C19 C 0.51975(11) 0.07289(8) 0.39374(14)
C20 C 0.53585(14) 0.04720(8) 0.44210(15)
C21 C 0.49882(12) 0.19025(8) 0.11024(16)
H10 H 0.4650 0.1911 0.0839
C22 C 0.62257(14) 0.12306(8) 0.93714(15)
H11 H 0.6038 0.1418 0.9152
C23 C 0.61835(15) 0.09341(9) 0.91090(14)
H12 H 0.5966 0.0922 0.8706
C24 C 0.64455(15) 0.06425(8) 0.94019(13)
C25 C 0.68297(16) 0.09768(10) 1.02830(16)
H13 H 0.7059 0.0994 1.0683
O16 O 0.5034(3) 0.03310(18) 0.4461(3)
O17 O 0.5817(3) 0.0425(2) 0.4760(4)
C26 C 0.4545(2) 0.0994(2) 0.3048(4)
H14 H 0.4214 0.1009 0.2750
C27 C 0.4694(2) 0.0773(2) 0.3515(4)
H15 H 0.4464 0.0656 0.3546
C28 C 0.5380(2) 0.11525(18) 0.3491(3)
H16 H 0.5614 0.1293 0.3505
C29 C 0.5534(2) 0.09133(19) 0.3930(3)
H17 H 0.5866 0.0882 0.4214
C30 C 0.62278(17) -0.00635(12) 0.77008(13)
C31 C 0.65292(15) -0.02783(11) 0.76342(13)
H18 H 0.6754 -0.0418 0.7940
C32 C 0.64943(14) -0.02835(10) 0.71101(15)
H19 H 0.6696 -0.0427 0.7066
C33 C 0.61581(15) -0.00740(11) 0.66525(11)
C34 C 0.58567(14) 0.01407(9) 0.67191(13)
H20 H 0.5632 0.0281 0.6413
C35 C 0.58915(15) 0.01460(10) 0.72432(17)
H21 H 0.5690 0.0290 0.7288
C36 C 0.65522(13) 0.12613(9) 0.99766(15)
C37 C 0.61165(19) -0.0000 0.6095(2)
C38 C 0.58010(16) 0.19598(9) 0.1301(2)
C39 C 0.62814(19) -0.0000 0.82833(18)
C40 C 0.66108(14) 0.15878(10) 1.02941(17)
C41 C 0.52877(17) 0.19703(10) 0.0916(2)
H22 H 0.5149 0.2025 0.0526
C42 C 0.56941(13) 0.18106(11) 0.20628(18)
H23 H 0.5836 0.1764 0.2455
C43 C 0.67730(17) 0.06697(10) 1.00097(15)
H24 H 0.6952 0.0480 1.0227
C44 C 0.59872(14) 0.18721(11) 0.1843(2)
H25 H 0.6325 0.1849 0.2094
C45 C 0.6079(3) 0.20515(13) 0.1018(4)
Co2A Co 0.384779(18) -0.0000 0.47762(2)
Co3A Co 0.363640(16) 0.229430(11) 0.966520(19)
Co3D Co 0.363640(16) -0.229430(11) 0.966520(19)
Co3E Co 0.636360(16) -0.229430(11) 0.033480(19)
Co3_2 Co 0.636360(16) 0.229430(11) 1.033480(19)
Co3G Co 0.136360(16) 0.270570(11) 0.033480(19)
Co3E_2 Co 0.636360(16) -0.229430(11) 1.033480(19)
Co3A_2 Co 0.363640(16) 0.229430(11) -0.033480(19)
Co3D_2 Co 0.363640(16) -0.229430(11) -0.033480(19)
Co3F Co 0.863640(16) 0.270570(11) 0.966520(19)
Co3C Co 0.863640(16) -0.270570(11) 0.966520(19)
Co3B Co 0.136360(16) -0.270570(11) 0.033480(19)
Co4E Co 0.72186(2) -0.190130(19) 1.15597(3)
Co4A Co 0.27814(2) 0.190130(19) -0.15597(3)
Co4D Co 0.27814(2) -0.190130(19) -0.15597(3)
Co4_2 Co 0.72186(2) 0.190130(19) 0.15597(3)
Co4G Co 0.22186(2) 0.309870(19) 0.15597(3)
Co4A_2 Co 0.27814(2) 0.190130(19) 0.84403(3)
Co4F Co 0.77814(2) 0.309870(19) 0.84403(3)
Co4D_2 Co 0.27814(2) -0.190130(19) 0.84403(3)
Co4C Co 0.77814(2) -0.309870(19) 0.84403(3)
Co4E_2 Co 0.72186(2) -0.190130(19) 0.15597(3)
Co4B Co 0.22186(2) -0.309870(19) 0.15597(3)
O1E O 0.6649(5) 0.0452(3) 0.5663(4)
O1A O 0.3351(5) -0.0452(3) 0.4337(4)
O1D O 0.3351(5) 0.0452(3) 0.4337(4)
O2E O 0.79022(14) -0.18430(12) 1.1612(2)
O2A O 0.20978(14) 0.18430(12) -0.1612(2)
O2D O 0.20978(14) -0.18430(12) -0.1612(2)
O3A O 0.41701(17) 0.25371(8) 1.04390(13)
O3D O 0.41701(17) -0.25371(8) 1.04390(13)
O3E O 0.58299(17) -0.25371(8) -0.04390(13)
O4A O 0.42247(10) 0.0000 0.43543(11)
O5E O 0.64691(13) -0.02059(12) 0.60812(16)
O5A O 0.35309(13) 0.02059(12) 0.39188(16)
O5D O 0.35309(13) -0.02059(12) 0.39188(16)
O6A O 0.40574(19) 0.21486(10) 0.9409(2)
O6D O 0.40574(19) -0.21486(10) 0.9409(2)
O6E O 0.59426(19) -0.21486(10) 0.0591(2)
O7E O 0.63654(9) -0.18457(6) 0.99951(11)
O7A O 0.36346(9) 0.18457(6) 0.00049(11)
O7D O 0.36346(9) -0.18457(6) 0.00049(11)
O7_2 O 0.63654(9) 0.18457(6) -0.00049(11)
O7A_2 O 0.36346(9) 0.18457(6) 1.00049(11)
O7D_2 O 0.36346(9) -0.18457(6) 1.00049(11)
O7E_2 O 0.63654(9) -0.18457(6) -0.00049(11)
O8E O 0.69056(10) -0.15824(6) 1.08295(12)
O8A O 0.30944(10) 0.15824(6) -0.08295(12)
O8D O 0.30944(10) -0.15824(6) -0.08295(12)
O9E O 0.7451(2) -0.14493(11) 1.20683(16)
O9A O 0.2549(2) 0.14493(11) -0.20683(16)
O9D O 0.2549(2) -0.14493(11) -0.20683(16)
O10A O 0.34301(16) 0.19956(9) 0.8534(2)
O10D O 0.34301(16) -0.19956(9) 0.8534(2)
O10E O 0.65699(16) -0.19956(9) 0.1466(2)
O10_2 O 0.65699(16) 0.19956(9) 1.1466(2)
O10E_2 O 0.65699(16) -0.19956(9) 1.1466(2)
O10A_2 O 0.34301(16) 0.19956(9) -0.1466(2)
O10D_2 O 0.34301(16) -0.19956(9) -0.1466(2)
O11E O 0.76109(18) -0.21979(12) 1.23595(18)
O11A O 0.23891(18) 0.21979(12) -0.23595(18)
O11D O 0.23891(18) -0.21979(12) -0.23595(18)
O12A O 0.3774(2) 0.28219(9) 0.9511(4)
O12D O 0.3774(2) -0.28219(9) 0.9511(4)
O12E O 0.6226(2) -0.28219(9) 0.0489(4)
O13A O 0.32574(18) -0.0000 0.4847(3)
C1A C 0.51255(10) 0.17535(7) 0.81123(13)
C1D C 0.51255(10) -0.17535(7) 0.81123(13)
C1E C 0.48745(10) -0.17535(7) 0.18877(13)
O14A O 0.80677(14) 0.24708(9) 0.97599(19)
O14D O 0.80677(14) -0.24708(9) 0.97599(19)
O14E O 0.19323(14) -0.24708(9) 0.02401(19)
O14G O 0.69323(14) 0.25292(9) 0.02401(19)
O14F O 0.30677(14) 0.25292(9) 0.97599(19)
O14C O 0.30677(14) -0.25292(9) 0.97599(19)
O14B O 0.69323(14) -0.25292(9) 0.02401(19)
O15A O 0.78675(13) 0.26381(7) 0.88946(16)
O15D O 0.78675(13) -0.26381(7) 0.88946(16)
O15E O 0.21325(13) -0.26381(7) 0.11054(16)
O15G O 0.71325(13) 0.23619(7) 0.11054(16)
O15G_2 O 0.71325(13) 0.23619(7) 1.11054(16)
O15F O 0.28675(13) 0.23619(7) 0.88946(16)
O15C O 0.28675(13) -0.23619(7) 0.88946(16)
O15B O 0.71325(13) -0.23619(7) 0.11054(16)
O15B_2 O 0.71325(13) -0.23619(7) 1.11054(16)
O15F_2 O 0.28675(13) 0.23619(7) -0.11054(16)
O15C_2 O 0.28675(13) -0.23619(7) -0.11054(16)
C2A C 0.77816(18) 0.25327(14) 0.9226(2)
C2D C 0.77816(18) -0.25327(14) 0.9226(2)
C2E C 0.22184(18) -0.25327(14) 0.0774(2)
C3A C 0.72384(16) 0.23677(11) 0.8884(2)
C3D C 0.72384(16) -0.23677(11) 0.8884(2)
C3E C 0.27616(16) -0.23677(11) 0.1116(2)
C4A C 0.70871(15) 0.22668(10) 0.9223(2)
C4D C 0.70871(15) -0.22668(10) 0.9223(2)
C4E C 0.29129(15) -0.22668(10) 0.0777(2)
H1A H 0.7287 0.2298 0.9625
H1D H 0.7287 -0.2298 0.9625
H1E H 0.2713 -0.2298 0.0375
C5A C 0.66253(12) 0.21146(9) 0.89661(18)
C5D C 0.66253(12) -0.21146(9) 0.89661(18)
C5E C 0.33747(12) -0.21146(9) 0.10339(18)
H2A H 0.6518 0.2054 0.9202
H2D H 0.6518 -0.2054 0.9202
H2E H 0.3482 -0.2054 0.0798
C6A C 0.63280(12) 0.20515(8) 0.83802(16)
C6D C 0.63280(12) -0.20515(8) 0.83802(16)
C6E C 0.36720(12) -0.20515(8) 0.16198(16)
C7A C 0.64865(17) 0.21571(10) 0.8025(2)
C7D C 0.64865(17) -0.21571(10) 0.8025(2)
C7E C 0.35135(17) -0.21571(10) 0.1975(2)
H3A H 0.6291 0.2123 0.7624
H3D H 0.6291 -0.2123 0.7624
H3E H 0.3709 -0.2123 0.2376
C8A C 0.69421(17) 0.23141(11) 0.8286(2)
C8D C 0.69421(17) -0.23141(11) 0.8286(2)
C8E C 0.30579(17) -0.23141(11) 0.1714(2)
H4A H 0.7050 0.2384 0.8056
H4D H 0.7050 -0.2384 0.8056
H4E H 0.2950 -0.2384 0.1944
C9A C 0.58582(10) 0.18709(7) 0.81335(13)
C9D C 0.58582(10) -0.18709(7) 0.81335(13)
C9E C 0.41418(10) -0.18709(7) 0.18665(13)
C10A C 0.57093(11) 0.16291(7) 0.76922(13)
C10D C 0.57093(11) -0.16291(7) 0.76922(13)
C10E C 0.42907(11) -0.16291(7) 0.23078(13)
H5A H 0.5907 0.1588 0.7557
H5D H 0.5907 -0.1588 0.7557
H5E H 0.4093 -0.1588 0.2443
C11A C 0.49879(10) 0.15122(7) 0.76705(13)
C11D C 0.49879(10) -0.15122(7) 0.76705(13)
C11E C 0.50121(10) -0.15122(7) 0.23295(13)
H6A H 0.4699 0.1390 0.7519
H6D H 0.4699 -0.1390 0.7519
H6E H 0.5301 -0.1390 0.2481
C12A C 0.52757(10) 0.14499(7) 0.74505(13)
C12D C 0.52757(10) -0.14499(7) 0.74505(13)
C12E C 0.47243(10) -0.14499(7) 0.25495(13)
C13A C 0.55650(10) 0.19297(7) 0.83376(13)
C13D C 0.55650(10) -0.19297(7) 0.83376(13)
C13E C 0.44350(10) -0.19297(7) 0.16624(13)
H7A H 0.5663 0.2090 0.8631
H7D H 0.5663 -0.2090 0.8631
H7E H 0.4337 -0.2090 0.1369
C14A C 0.51106(11) 0.11948(8) 0.69764(15)
C14D C 0.51106(11) -0.11948(8) 0.69764(15)
C14E C 0.48894(11) -0.11948(8) 0.30236(15)
C15E C 0.63914(15) -0.03077(8) 0.91030(13)
C15A C 0.36086(15) 0.03077(8) 0.08970(13)
C15D C 0.36086(15) -0.03077(8) 0.08970(13)
C16E C 0.63206(14) -0.03055(9) 0.85561(13)
C16A C 0.36794(14) 0.03055(9) 0.14439(13)
C16D C 0.36794(14) -0.03055(9) 0.14439(13)
H8E H 0.6300 -0.0511 0.8375
H8A H 0.3700 0.0511 0.1625
H8D H 0.3700 -0.0511 0.1625
C17A C 0.48184(11) 0.18231(8) 0.83336(16)
C17D C 0.48184(11) -0.18231(8) 0.83336(16)
C17E C 0.51816(11) -0.18231(8) 0.16664(16)
C18A C 0.3574(2) 0.0000 0.06295(19)
H9A H 0.3527 -0.0000 0.0265
C19A C 0.48025(11) 0.07289(8) 0.60626(14)
C19D C 0.48025(11) -0.07289(8) 0.60626(14)
C19E C 0.51975(11) -0.07289(8) 0.39374(14)
C20A C 0.46415(14) 0.04720(8) 0.55790(15)
C20D C 0.46415(14) -0.04720(8) 0.55790(15)
C20E C 0.53585(14) -0.04720(8) 0.44210(15)
C21A C 0.50118(12) 0.19025(8) 0.88976(16)
C21D C 0.50118(12) -0.19025(8) 0.88976(16)
C21E C 0.49882(12) -0.19025(8) 0.11024(16)
H10A H 0.5350 0.1911 0.9161
H10D H 0.5350 -0.1911 0.9161
H10E H 0.4650 -0.1911 0.0839
C22E C 0.62257(14) -0.12306(8) 0.93714(15)
C22A C 0.37743(14) 0.12306(8) 0.06286(15)
C22D C 0.37743(14) -0.12306(8) 0.06286(15)
H11E H 0.6038 -0.1418 0.9152
H11A H 0.3962 0.1418 0.0848
H11D H 0.3962 -0.1418 0.0848
C23E C 0.61835(15) -0.09341(9) 0.91090(14)
C23A C 0.38165(15) 0.09341(9) 0.08910(14)
C23D C 0.38165(15) -0.09341(9) 0.08910(14)
H12E H 0.5966 -0.0922 0.8706
H12A H 0.4034 0.0922 0.1294
H12D H 0.4034 -0.0922 0.1294
C24E C 0.64455(15) -0.06425(8) 0.94019(13)
C24A C 0.35545(15) 0.06425(8) 0.05981(13)
C24D C 0.35545(15) -0.06425(8) 0.05981(13)
C25E C 0.68297(16) -0.09768(10) 1.02830(16)
C25A C 0.31703(16) 0.09768(10) -0.02830(16)
C25D C 0.31703(16) -0.09768(10) -0.02830(16)
H13E H 0.7059 -0.0994 1.0683
H13A H 0.2941 0.0994 -0.0683
H13D H 0.2941 -0.0994 -0.0683
O16A O 0.4966(3) 0.03310(18) 0.5539(3)
O16D O 0.4966(3) -0.03310(18) 0.5539(3)
O16E O 0.5034(3) -0.03310(18) 0.4461(3)
O17A O 0.4183(3) 0.0425(2) 0.5240(4)
O17D O 0.4183(3) -0.0425(2) 0.5240(4)
O17E O 0.5817(3) -0.0425(2) 0.4760(4)
C26A C 0.5455(2) 0.0994(2) 0.6952(4)
C26D C 0.5455(2) -0.0994(2) 0.6952(4)
C26E C 0.4545(2) -0.0994(2) 0.3048(4)
H14A H 0.5786 0.1009 0.7250
H14D H 0.5786 -0.1009 0.7250
H14E H 0.4214 -0.1009 0.2750
C27A C 0.5306(2) 0.0773(2) 0.6485(4)
C27D C 0.5306(2) -0.0773(2) 0.6485(4)
C27E C 0.4694(2) -0.0773(2) 0.3515(4)
H15A H 0.5536 0.0656 0.6454
H15D H 0.5536 -0.0656 0.6454
H15E H 0.4464 -0.0656 0.3546
C28A C 0.4620(2) 0.11525(18) 0.6509(3)
C28D C 0.4620(2) -0.11525(18) 0.6509(3)
C28E C 0.5380(2) -0.11525(18) 0.3491(3)
H16A H 0.4386 0.1293 0.6495
H16D H 0.4386 -0.1293 0.6495
H16E H 0.5614 -0.1293 0.3505
C29A C 0.4466(2) 0.09133(19) 0.6070(3)
C29D C 0.4466(2) -0.09133(19) 0.6070(3)
C29E C 0.5534(2) -0.09133(19) 0.3930(3)
H17A H 0.4134 0.0882 0.5786
H17D H 0.4134 -0.0882 0.5786
H17E H 0.5866 -0.0882 0.4214
C30E C 0.62278(17) 0.00635(12) 0.77008(13)
C30A C 0.37722(17) -0.00635(12) 0.22992(13)
C30D C 0.37722(17) 0.00635(12) 0.22992(13)
C31E C 0.65292(15) 0.02783(11) 0.76342(13)
C31A C 0.34708(15) -0.02783(11) 0.23658(13)
C31D C 0.34708(15) 0.02783(11) 0.23658(13)
H18E H 0.6754 0.0418 0.7940
H18A H 0.3246 -0.0418 0.2060
H18D H 0.3246 0.0418 0.2060
C32E C 0.64943(14) 0.02835(10) 0.71101(15)
C32A C 0.35057(14) -0.02835(10) 0.28899(15)
C32D C 0.35057(14) 0.02835(10) 0.28899(15)
H19E H 0.6696 0.0427 0.7066
H19A H 0.3304 -0.0427 0.2934
H19D H 0.3304 0.0427 0.2934
C33E C 0.61581(15) 0.00740(11) 0.66525(11)
C33A C 0.38419(15) -0.00740(11) 0.33475(11)
C33D C 0.38419(15) 0.00740(11) 0.33475(11)
C34E C 0.58567(14) -0.01407(9) 0.67191(13)
C34A C 0.41433(14) 0.01407(9) 0.32809(13)
C34D C 0.41433(14) -0.01407(9) 0.32809(13)
H20E H 0.5632 -0.0281 0.6413
H20A H 0.4368 0.0281 0.3587
H20D H 0.4368 -0.0281 0.3587
C35E C 0.58915(15) -0.01460(10) 0.72432(17)
C35A C 0.41085(15) 0.01460(10) 0.27568(17)
C35D C 0.41085(15) -0.01460(10) 0.27568(17)
H21E H 0.5690 -0.0290 0.7288
H21A H 0.4310 0.0290 0.2712
H21D H 0.4310 -0.0290 0.2712
C36E C 0.65522(13) -0.12613(9) 0.99766(15)
C36A C 0.34478(13) 0.12613(9) 0.00234(15)
C36D C 0.34478(13) -0.12613(9) 0.00234(15)
C37A C 0.38835(19) 0.0000 0.3905(2)
C38A C 0.41990(16) 0.19598(9) 0.8699(2)
C38D C 0.41990(16) -0.19598(9) 0.8699(2)
C38E C 0.58010(16) -0.19598(9) 0.1301(2)
C39A C 0.37186(19) -0.0000 0.17167(18)
C40E C 0.66108(14) -0.15878(10) 1.02941(17)
C40A C 0.33892(14) 0.15878(10) -0.02941(17)
C40D C 0.33892(14) -0.15878(10) -0.02941(17)
C41A C 0.47123(17) 0.19703(10) 0.9084(2)
C41D C 0.47123(17) -0.19703(10) 0.9084(2)
C41E C 0.52877(17) -0.19703(10) 0.0916(2)
H22A H 0.4851 0.2025 0.9474
H22D H 0.4851 -0.2025 0.9474
H22E H 0.5149 -0.2025 0.0526
C42A C 0.43059(13) 0.18106(11) 0.79372(18)
C42D C 0.43059(13) -0.18106(11) 0.79372(18)
C42E C 0.56941(13) -0.18106(11) 0.20628(18)
H23A H 0.4164 0.1764 0.7545
H23D H 0.4164 -0.1764 0.7545
H23E H 0.5836 -0.1764 0.2455
C43E C 0.67730(17) -0.06697(10) 1.00097(15)
C43A C 0.32270(17) 0.06697(10) -0.00097(15)
C43D C 0.32270(17) -0.06697(10) -0.00097(15)
H24E H 0.6952 -0.0480 1.0227
H24A H 0.3048 0.0480 -0.0227
H24D H 0.3048 -0.0480 -0.0227
C44A C 0.40128(14) 0.18721(11) 0.8157(2)
C44D C 0.40128(14) -0.18721(11) 0.8157(2)
C44E C 0.59872(14) -0.18721(11) 0.1843(2)
H25A H 0.3675 0.1849 0.7906
H25D H 0.3675 -0.1849 0.7906
H25E H 0.6325 -0.1849 0.2094
C45A C 0.3921(3) 0.20515(13) 0.8982(4)
C45D C 0.3921(3) -0.20515(13) 0.8982(4)
C45E C 0.6079(3) -0.20515(13) 0.1018(4)
loop_
_geom_bond_atom_site_label_1
_geom_bond_atom_site_label_2
_geom_bond_site_symmetry_1
_geom_bond_site_symmetry_2
Co1 O4 1_555 1_555
Co2 O1 1_555 1_555
Co3 O3 1_555 1_555
Co4 O2 1_555 1_555
O4 Co2 1_555 1_555
O5 Co2 1_555 1_555
O6 Co3 1_555 1_555
O7 C40 1_555 1_555
O8 Co4 1_555 1_555
O9 Co4 1_555 1_555
O10 C45 1_555 1_555
O11 Co4 1_555 1_555
O12 Co3 1_555 1_555
O13 Co2 1_555 1_555
C1 C11 1_555 1_555
O14 C2 1_555 1_555
O15 C2 1_555 1_555
C2 C3 1_555 1_555
C3 C4 1_555 1_555
C4 H1 1_555 1_555
C5 C4 1_555 1_555
H2 C5 1_555 1_555
C6 C5 1_555 1_555
C7 C6 1_555 1_555
H3 C7 1_555 1_555
C8 C3 1_555 1_555
H4 C8 1_555 1_555
C9 C6 1_555 1_555
C10 C9 1_555 1_555
H5 C10 1_555 1_555
C11 H6 1_555 1_555
C12 C10 1_555 1_555
C13 C1 1_555 1_555
H7 C13 1_555 1_555
C14 C12 1_555 1_555
C15 C16 1_555 1_555
C16 H8 1_555 1_555
C17 C1 1_555 1_555
C18 C15 1_555 1_555
H9 C18 1_555 1_555
C19 C20 1_555 1_555
C20 O16 1_555 1_555
C21 C17 1_555 1_555
H10 C21 1_555 1_555
C22 H11 1_555 1_555
C23 C22 1_555 1_555
H12 C23 1_555 1_555
C24 C15 1_555 1_555
C25 H13 1_555 1_555
O16 Co1 1_555 1_555
O17 Co2 1_555 1_555
C26 C14 1_555 1_555
H14 C26 1_555 1_555
C27 C19 1_555 1_555
H15 C27 1_555 1_555
C28 C14 1_555 1_555
H16 C28 1_555 1_555
C29 C19 1_555 1_555
H17 C29 1_555 1_555
C30 C31 1_555 1_555
C31 H18 1_555 1_555
C32 C31 1_555 1_555
H19 C32 1_555 1_555
C33 C32 1_555 1_555
C34 C33 1_555 1_555
H20 C34 1_555 1_555
C35 C30 1_555 1_555
H21 C35 1_555 1_555
C36 C22 1_555 1_555
C37 O4 1_555 1_555
C38 C41 1_555 1_555
C39 C16 1_555 1_555
C40 O8 1_555 1_555
C41 C21 1_555 1_555
H22 C41 1_555 1_555
C42 C17 1_555 1_555
H23 C42 1_555 1_555
C43 C24 1_555 1_555
H24 C43 1_555 1_555
C44 C38 1_555 1_555
H25 C44 1_555 1_555
C45 O6 1_555 1_555
Co2A O1A 1_555 1_555
Co3A O3A 1_555 1_555
Co3D O3D 1_555 1_555
Co3E O3E 1_555 1_555
Co3_2 O7 1_555 1_555
Co3G O14 1_555 1_555
Co3E_2 O7E 1_555 1_555
Co3A_2 O7A 1_555 1_555
Co3D_2 O7D 1_555 1_555
Co3F O14A 1_555 1_555
Co3C O14D 1_555 1_555
Co3B O14E 1_555 1_555
Co4E O2E 1_555 1_555
Co4A O2A 1_555 1_555
Co4D O2D 1_555 1_555
Co4_2 O10 1_555 1_555
Co4G O15 1_555 1_555
Co4A_2 O10A 1_555 1_555
Co4F O15A 1_555 1_555
Co4D_2 O10D 1_555 1_555
Co4C O15D 1_555 1_555
Co4E_2 O10E 1_555 1_555
Co4B O15E 1_555 1_555
O1E Co2 1_555 1_555
O1D Co2A 1_555 1_555
O4A Co1 1_555 1_555
O5E Co2 1_555 1_555
O5A Co2A 1_555 1_555
O5D Co2A 1_555 1_555
O6A Co3A 1_555 1_555
O6D Co3D 1_555 1_555
O6E Co3E 1_555 1_555
O7E C40E 1_555 1_555
O7A C40A 1_555 1_555
O7D C40D 1_555 1_555
O7_2 Co3 1_555 1_555
O7A_2 Co3A 1_555 1_555
O7D_2 Co3D 1_555 1_555
O7E_2 Co3E 1_555 1_555
O8E Co4E 1_555 1_555
O8A Co4A 1_555 1_555
O8D Co4D 1_555 1_555
O9E Co4E 1_555 1_555
O9A Co4A 1_555 1_555
O9D Co4D 1_555 1_555
O10A C45A 1_555 1_555
O10D C45D 1_555 1_555
O10E C45E 1_555 1_555
O10_2 Co4 1_555 1_555
O10E_2 Co4E 1_555 1_555
O10A_2 Co4A 1_555 1_555
O10D_2 Co4D 1_555 1_555
O11E Co4E 1_555 1_555
O11A Co4A 1_555 1_555
O11D Co4D 1_555 1_555
O12A Co3A 1_555 1_555
O12D Co3D 1_555 1_555
O12E Co3E 1_555 1_555
O13A Co2A 1_555 1_555
C1A C11A 1_555 1_555
C1D C11D 1_555 1_555
C1E C11E 1_555 1_555
O14A C2A 1_555 1_555
O14D C2D 1_555 1_555
O14E C2E 1_555 1_555
O14G Co3 1_555 1_555
O14F Co3A 1_555 1_555
O14C Co3D 1_555 1_555
O14B Co3E 1_555 1_555
O15A Co3F 1_555 1_555
O15D Co3C 1_555 1_555
O15E Co3B 1_555 1_555
O15G Co3 1_555 1_555
O15G_2 Co4 1_555 1_555
O15F Co3A 1_555 1_555
O15C Co3D 1_555 1_555
O15B Co3E 1_555 1_555
O15B_2 Co3E_2 1_555 1_555
O15F_2 Co3A_2 1_555 1_555
O15C_2 Co3D_2 1_555 1_555
C2A O15A 1_555 1_555
C2D O15D 1_555 1_555
C2E O15E 1_555 1_555
C3A C2A 1_555 1_555
C3D C2D 1_555 1_555
C3E C2E 1_555 1_555
C4A C3A 1_555 1_555
C4D C3D 1_555 1_555
C4E C3E 1_555 1_555
H1A C4A 1_555 1_555
H1D C4D 1_555 1_555
H1E C4E 1_555 1_555
C5A C4A 1_555 1_555
C5D C4D 1_555 1_555
C5E C4E 1_555 1_555
H2A C5A 1_555 1_555
H2D C5D 1_555 1_555
H2E C5E 1_555 1_555
C6A C5A 1_555 1_555
C6D C5D 1_555 1_555
C6E C5E 1_555 1_555
C7A C6A 1_555 1_555
C7D C6D 1_555 1_555
C7E C6E 1_555 1_555
H3A C7A 1_555 1_555
H3D C7D 1_555 1_555
H3E C7E 1_555 1_555
C8A C3A 1_555 1_555
C8D C3D 1_555 1_555
C8E C3E 1_555 1_555
H4A C8A 1_555 1_555
H4D C8D 1_555 1_555
H4E C8E 1_555 1_555
C9A C6A 1_555 1_555
C9D C6D 1_555 1_555
C9E C6E 1_555 1_555
C10A C9A 1_555 1_555
C10D C9D 1_555 1_555
C10E C9E 1_555 1_555
H5A C10A 1_555 1_555
H5D C10D 1_555 1_555
H5E C10E 1_555 1_555
C11A H6A 1_555 1_555
C11D H6D 1_555 1_555
C11E H6E 1_555 1_555
C12A C10A 1_555 1_555
C12D C10D 1_555 1_555
C12E C10E 1_555 1_555
C13A C1A 1_555 1_555
C13D C1D 1_555 1_555
C13E C1E 1_555 1_555
H7A C13A 1_555 1_555
H7D C13D 1_555 1_555
H7E C13E 1_555 1_555
C14A C12A 1_555 1_555
C14D C12D 1_555 1_555
C14E C12E 1_555 1_555
C15E C18 1_555 1_555
C15A C16A 1_555 1_555
C15D C16D 1_555 1_555
C16E C39 1_555 1_555
C16A H8A 1_555 1_555
C16D H8D 1_555 1_555
H8E C16E 1_555 1_555
C17A C1A 1_555 1_555
C17D C1D 1_555 1_555
C17E C1E 1_555 1_555
C18A C15A 1_555 1_555
H9A C18A 1_555 1_555
C19A C20A 1_555 1_555
C19D C20D 1_555 1_555
C19E C20E 1_555 1_555
C20A O16A 1_555 1_555
C20D O16D 1_555 1_555
C20E O16E 1_555 1_555
C21A C17A 1_555 1_555
C21D C17D 1_555 1_555
C21E C17E 1_555 1_555
H10A C21A 1_555 1_555
H10D C21D 1_555 1_555
H10E C21E 1_555 1_555
C22E H11E 1_555 1_555
C22A H11A 1_555 1_555
C22D H11D 1_555 1_555
C23E C22E 1_555 1_555
C23A C22A 1_555 1_555
C23D C22D 1_555 1_555
H12E C23E 1_555 1_555
H12A C23A 1_555 1_555
H12D C23D 1_555 1_555
C24E C15E 1_555 1_555
C24A C15A 1_555 1_555
C24D C15D 1_555 1_555
C25E H13E 1_555 1_555
C25A H13A 1_555 1_555
C25D H13D 1_555 1_555
O16A Co1 1_555 1_555
O16D Co1 1_555 1_555
O16E Co1 1_555 1_555
O17A Co2A 1_555 1_555
O17D Co2A 1_555 1_555
O17E Co2 1_555 1_555
C26A C14A 1_555 1_555
C26D C14D 1_555 1_555
C26E C14E 1_555 1_555
H14A C26A 1_555 1_555
H14D C26D 1_555 1_555
H14E C26E 1_555 1_555
C27A C19A 1_555 1_555
C27D C19D 1_555 1_555
C27E C19E 1_555 1_555
H15A C27A 1_555 1_555
H15D C27D 1_555 1_555
H15E C27E 1_555 1_555
C28A C14A 1_555 1_555
C28D C14D 1_555 1_555
C28E C14E 1_555 1_555
H16A C28A 1_555 1_555
H16D C28D 1_555 1_555
H16E C28E 1_555 1_555
C29A C19A 1_555 1_555
C29D C19D 1_555 1_555
C29E C19E 1_555 1_555
H17A C29A 1_555 1_555
H17D C29D 1_555 1_555
H17E C29E 1_555 1_555
C30E C30 1_555 1_555
C30A C30D 1_555 1_555
C30D C31A 1_555 1_555
C31E C30 1_555 1_555
C31A C30A 1_555 1_555
C31D C30A 1_555 1_555
H18E C31E 1_555 1_555
H18A C31A 1_555 1_555
H18D C31D 1_555 1_555
C32E C31E 1_555 1_555
C32A C31A 1_555 1_555
C32D C31D 1_555 1_555
H19E C32E 1_555 1_555
H19A C32A 1_555 1_555
H19D C32D 1_555 1_555
C33E C33 1_555 1_555
C33A C32A 1_555 1_555
C33D C32D 1_555 1_555
C34E C33 1_555 1_555
C34A C33A 1_555 1_555
C34D C33A 1_555 1_555
H20E C34E 1_555 1_555
H20A C34A 1_555 1_555
H20D C34D 1_555 1_555
C35E C30 1_555 1_555
C35A C30A 1_555 1_555
C35D C30A 1_555 1_555
H21E C35E 1_555 1_555
H21A C35A 1_555 1_555
H21D C35D 1_555 1_555
C36E C22E 1_555 1_555
C36A C22A 1_555 1_555
C36D C22D 1_555 1_555
C37A O4A 1_555 1_555
C38A C41A 1_555 1_555
C38D C41D 1_555 1_555
C38E C41E 1_555 1_555
C39A C16A 1_555 1_555
C40E O8E 1_555 1_555
C40A O8A 1_555 1_555
C40D O8D 1_555 1_555
C41A C21A 1_555 1_555
C41D C21D 1_555 1_555
C41E C21E 1_555 1_555
H22A C41A 1_555 1_555
H22D C41D 1_555 1_555
H22E C41E 1_555 1_555
C42A C17A 1_555 1_555
C42D C17D 1_555 1_555
C42E C17E 1_555 1_555
H23A C42A 1_555 1_555
H23D C42D 1_555 1_555
H23E C42E 1_555 1_555
C43E C24E 1_555 1_555
C43A C24A 1_555 1_555
C43D C24D 1_555 1_555
H24E C43E 1_555 1_555
H24A C43A 1_555 1_555
H24D C43D 1_555 1_555
C44A C38A 1_555 1_555
C44D C38D 1_555 1_555
C44E C38E 1_555 1_555
H25A C44A 1_555 1_555
H25D C44D 1_555 1_555
H25E C44E 1_555 1_555
C45A O6A 1_555 1_555
C45D O6D 1_555 1_555
C45E O6E 1_555 1_555
O5 C37 1_555 1_555
O5 O5E 1_555 1_555
O15 Co3G 1_555 1_555
C7 C8 1_555 1_555
C9 C13 1_555 1_555
C11 C12 1_555 1_555
C20 O17 1_555 1_555
C23 C24 1_555 1_555
C25 C36 1_555 1_555
C25 C43 1_555 1_555
C26 C27 1_555 1_555
C28 C29 1_555 1_555
C30 C39 1_555 1_555
C31 C30E 1_555 1_555
C33 C37 1_555 1_555
C34 C35 1_555 1_555
C34 C33E 1_555 1_555
C34 C34E 1_555 1_555
C35 C30E 1_555 1_555
C35 C35E 1_555 1_555
C36 C40 1_555 1_555
C37 O5E 1_555 1_555
C37 C33E 1_555 1_555
C38 C45 1_555 1_555
C39 C30E 1_555 1_555
C42 C44 1_555 1_555
Co2A O4A 1_555 1_555
Co3_2 O15G_2 1_555 1_555
Co4E O15B_2 1_555 1_555
Co4A O15F_2 1_555 1_555
Co4D O15C_2 1_555 1_555
Co4_2 O15G 1_555 1_555
Co4A_2 O15F 1_555 1_555
Co4D_2 O15C 1_555 1_555
Co4E_2 O15B 1_555 1_555
O5A O5D 1_555 1_555
O5A C37A 1_555 1_555
O5D C37A 1_555 1_555
C7A C8A 1_555 1_555
C7D C8D 1_555 1_555
C7E C8E 1_555 1_555
C9A C13A 1_555 1_555
C9D C13D 1_555 1_555
C9E C13E 1_555 1_555
C11A C12A 1_555 1_555
C11D C12D 1_555 1_555
C11E C12E 1_555 1_555
C15E C16E 1_555 1_555
C15D C18A 1_555 1_555
C16D C39A 1_555 1_555
C20A O17A 1_555 1_555
C20D O17D 1_555 1_555
C20E O17E 1_555 1_555
C23E C24E 1_555 1_555
C23A C24A 1_555 1_555
C23D C24D 1_555 1_555
C25E C36E 1_555 1_555
C25E C43E 1_555 1_555
C25A C36A 1_555 1_555
C25A C43A 1_555 1_555
C25D C36D 1_555 1_555
C25D C43D 1_555 1_555
C26A C27A 1_555 1_555
C26D C27D 1_555 1_555
C26E C27E 1_555 1_555
C28A C29A 1_555 1_555
C28D C29D 1_555 1_555
C28E C29E 1_555 1_555
C30E C31E 1_555 1_555
C30E C35E 1_555 1_555
C30A C39A 1_555 1_555
C30D C31D 1_555 1_555
C30D C35A 1_555 1_555
C30D C35D 1_555 1_555
C30D C39A 1_555 1_555
C32E C33E 1_555 1_555
C33E C34E 1_555 1_555
C33A C33D 1_555 1_555
C33A C37A 1_555 1_555
C33D C34A 1_555 1_555
C33D C34D 1_555 1_555
C33D C37A 1_555 1_555
C34E C35E 1_555 1_555
C34A C34D 1_555 1_555
C34A C35A 1_555 1_555
C34D C35D 1_555 1_555
C35A C35D 1_555 1_555
C36E C40E 1_555 1_555
C36A C40A 1_555 1_555
C36D C40D 1_555 1_555
C38A C45A 1_555 1_555
C38D C45D 1_555 1_555
C38E C45E 1_555 1_555
C42A C44A 1_555 1_555
C42D C44D 1_555 1_555
C42E C44E 1_555 1_555

#END
