
#######################################################################
#
#                 Cambridge Crystallographic Data Centre
#                                CCDC 
#
#######################################################################
#
# If this CIF has been generated from an entry in the Cambridge 
# Structural Database, then it will include bibliographic, chemical, 
# crystal, experimental, refinement or atomic coordinate data resulting 
# from the CCDC's data processing and validation procedures.
#
#######################################################################

data_DOJXOR
_chemical_formula_moiety         '(C52 H36 Cu2 N6 O10)n'
_symmetry_cell_setting           monoclinic
_symmetry_space_group_name_H-M   'C 2/c'
_symmetry_Int_Tables_number      15
_space_group_name_Hall           '-C 2yc'
loop_
_symmetry_equiv_pos_site_id
_symmetry_equiv_pos_as_xyz
1 x,y,z
2 -x,y,1/2-z
3 1/2+x,1/2+y,z
4 1/2-x,1/2+y,1/2-z
5 -x,-y,-z
6 x,-y,1/2+z
7 1/2-x,1/2-y,-z
8 1/2+x,1/2-y,1/2+z
_cell_length_a                   18.7063(18)
_cell_length_b                   22.983(2)
_cell_length_c                   17.7139(15)
_cell_angle_alpha                90
_cell_angle_beta                 105.866(2)
_cell_angle_gamma                90
_cell_volume                     7325.55
loop_
_atom_site_label
_atom_site_type_symbol
_atom_site_fract_x
_atom_site_fract_y
_atom_site_fract_z
_atom_site_U_iso_or_equiv
_atom_site_thermal_displace_type
Cu1 Cu 0.0000 0.25499(5) 0.7500 0.0719 Uani
Cu2 Cu 0.0000 0.5000 0.0000 0.0939 Uani
N1 N 0.1976(3) 0.1812(2) 0.4793(3) 0.0637 Uani
N2 N 0.0465(3) 0.2451(2) 0.6606(3) 0.0690 Uani
N3 N 0.4114(3) 0.0531(2) 0.4727(3) 0.0816 Uani
O1 O 0.0488(3) 0.4469(2) 0.0827(3) 0.0944 Uani
O2 O 0.0838(4) 0.3832(3) 0.0083(3) 0.1354 Uani
O3 O 0.0964(3) 0.2509(4) 0.8275(3) 0.0951 Uani
O4 O 0.1619(6) 0.3245(5) 0.8000(6) 0.1465 Uani
O5 O 0.0000 0.3524(4) 0.7500 0.1487 Uani
H1 H 0.0376 0.3704 0.7435 0.1790 Uiso
C1 C 0.0749(4) 0.4003(4) 0.0720(4) 0.0848 Uani
C2 C 0.0978(4) 0.3584(3) 0.1408(3) 0.0695 Uani
C3 C 0.0845(4) 0.3739(3) 0.2085(4) 0.1006 Uani
H2 H 0.0633 0.4100 0.2121 0.1210 Uiso
C4 C 0.1014(4) 0.3377(3) 0.2734(4) 0.0959 Uani
H3 H 0.0903 0.3494 0.3192 0.1150 Uiso
C5 C 0.1341(3) 0.2850(3) 0.2709(3) 0.0664 Uani
C6 C 0.1482(4) 0.2702(3) 0.2013(4) 0.0903 Uani
H4 H 0.1702 0.2345 0.1971 0.1080 Uiso
C7 C 0.1304(4) 0.3075(3) 0.1368(4) 0.0934 Uani
H5 H 0.1414 0.2967 0.0906 0.1120 Uiso
C8 C 0.0201(3) 0.2731(3) 0.5938(3) 0.0774 Uani
H6 H -0.0191 0.2989 0.5898 0.0920 Uiso
C9 C 0.0478(3) 0.2660(3) 0.5290(3) 0.0734 Uani
H7 H 0.0269 0.2863 0.4828 0.0880 Uiso
C10 C 0.1070(3) 0.2282(2) 0.5341(3) 0.0598 Uani
C11 C 0.1348(3) 0.2003(3) 0.6042(3) 0.0731 Uani
H8 H 0.1746 0.1748 0.6111 0.0880 Uiso
C12 C 0.1031(4) 0.2104(3) 0.6647(3) 0.0781 Uani
H9 H 0.1233 0.1911 0.7119 0.0930 Uiso
C13 C 0.3819(4) 0.0726(3) 0.4013(4) 0.0939 Uani
H10 H 0.4015 0.0598 0.3613 0.1130 Uiso
C14 C 0.3241(4) 0.1105(3) 0.3830(3) 0.0854 Uani
H11 H 0.3057 0.1228 0.3313 0.1020 Uiso
C15 C 0.2928(3) 0.1308(2) 0.4375(3) 0.0602 Uani
C16 C 0.3217(4) 0.1090(3) 0.5134(4) 0.0858 Uani
H12 H 0.3005 0.1193 0.5532 0.1030 Uiso
C17 C 0.3813(4) 0.0724(3) 0.5283(4) 0.0952 Uani
H13 H 0.4020 0.0603 0.5798 0.1140 Uiso
C18 C 0.1418(3) 0.2207(2) 0.4683(3) 0.0603 Uani
C19 C 0.1189(3) 0.2527(2) 0.4005(3) 0.0652 Uani
H14 H 0.0796 0.2787 0.3942 0.0780 Uiso
C20 C 0.1537(3) 0.2467(2) 0.3415(3) 0.0664 Uani
C21 C 0.2115(3) 0.2059(2) 0.3533(3) 0.0639 Uani
H15 H 0.2371 0.2008 0.3155 0.0760 Uiso
C22 C 0.2301(3) 0.1736(2) 0.4216(3) 0.0617 Uani
C23 C 0.1502(10) 0.2834(8) 0.8433(9) 0.1170 Uani
C24 C 0.202(6) 0.266(6) 0.924(6) 0.1312 Uani
C25 C 0.259(7) 0.302(4) 0.963(6) 0.1651 Uani
H16 H 0.2688 0.3359 0.9402 0.1970 Uiso
C26 C 0.198(5) 0.214(6) 0.962(5) 0.1362 Uani
H17 H 0.1635 0.1872 0.9350 0.1660 Uiso
O3F O 0.4036(3) 0.2491(4) 1.1725(3) 0.0951 Uani
O4F O 0.3381(6) 0.1755(5) 1.2000(6) 0.1465 Uani
C23F C 0.3498(10) 0.2166(8) 1.1567(9) 0.1170 Uani
C24F C 0.298(6) 0.234(6) 1.076(6) 0.1312 Uani
C25F C 0.241(7) 0.198(4) 1.037(6) 0.1651 Uani
H16F H 0.2312 0.1641 1.0598 0.1970 Uiso
C26F C 0.302(5) 0.286(6) 1.038(5) 0.1362 Uani
H17F H 0.3365 0.3128 1.0650 0.1660 Uiso
H1A H -0.0376 0.3704 0.7565 0.1790 Uiso
N1A N -0.1976(3) 0.1812(2) 1.0207(3) 0.0637 Uani
N2A N -0.0465(3) 0.2451(2) 0.8394(3) 0.0690 Uani
N3A N -0.4114(3) 0.0531(2) 1.0273(3) 0.0816 Uani
O1A O -0.0488(3) 0.4469(2) 1.4173(3) 0.0944 Uani
O2A O -0.0838(4) 0.3832(3) 1.4917(3) 0.1354 Uani
C1A C -0.0749(4) 0.4003(4) 1.4280(4) 0.0848 Uani
C2A C -0.0978(4) 0.3584(3) 1.3592(3) 0.0695 Uani
C3A C -0.0845(4) 0.3739(3) 1.2915(4) 0.1006 Uani
H2A H -0.0633 0.4100 1.2879 0.1210 Uiso
C4A C -0.1014(4) 0.3377(3) 1.2266(4) 0.0959 Uani
H3A H -0.0903 0.3494 1.1808 0.1150 Uiso
C5A C -0.1341(3) 0.2850(3) 1.2291(3) 0.0664 Uani
C6A C -0.1482(4) 0.2702(3) 1.2987(4) 0.0903 Uani
H4A H -0.1702 0.2345 1.3029 0.1080 Uiso
C7A C -0.1304(4) 0.3075(3) 1.3632(4) 0.0934 Uani
H5A H -0.1414 0.2967 1.4094 0.1120 Uiso
C8A C -0.0201(3) 0.2731(3) 0.9062(3) 0.0774 Uani
H6A H 0.0191 0.2989 0.9102 0.0920 Uiso
C9A C -0.0478(3) 0.2660(3) 0.9710(3) 0.0734 Uani
H7A H -0.0269 0.2863 1.0172 0.0880 Uiso
C10A C -0.1070(3) 0.2282(2) 0.9659(3) 0.0598 Uani
C11A C -0.1348(3) 0.2003(3) 0.8958(3) 0.0731 Uani
H8A H -0.1746 0.1748 0.8889 0.0880 Uiso
C12A C -0.1031(4) 0.2104(3) 0.8353(3) 0.0781 Uani
H9A H -0.1233 0.1911 0.7881 0.0930 Uiso
C13A C -0.3819(4) 0.0726(3) 1.0987(4) 0.0939 Uani
H10A H -0.4015 0.0598 1.1387 0.1130 Uiso
C14A C -0.3241(4) 0.1105(3) 1.1170(3) 0.0854 Uani
H11A H -0.3057 0.1228 1.1687 0.1020 Uiso
C15A C -0.2928(3) 0.1308(2) 1.0625(3) 0.0602 Uani
C16A C -0.3217(4) 0.1090(3) 0.9866(4) 0.0858 Uani
H12A H -0.3005 0.1193 0.9468 0.1030 Uiso
C17A C -0.3813(4) 0.0724(3) 0.9717(4) 0.0952 Uani
H13A H -0.4020 0.0603 0.9202 0.1140 Uiso
C18A C -0.1418(3) 0.2207(2) 1.0317(3) 0.0603 Uani
C19A C -0.1189(3) 0.2527(2) 1.0995(3) 0.0652 Uani
H14A H -0.0796 0.2787 1.1058 0.0780 Uiso
C20A C -0.1537(3) 0.2467(2) 1.1585(3) 0.0664 Uani
C21A C -0.2115(3) 0.2059(2) 1.1467(3) 0.0639 Uani
H15A H -0.2371 0.2008 1.1845 0.0760 Uiso
C22A C -0.2301(3) 0.1736(2) 1.0784(3) 0.0617 Uani
Cu1F Cu 0.5000 0.24501(5) 1.2500 0.0719 Uani
Cu2A Cu 0.0000 0.5000 1.5000 0.0939 Uani
Cu2B Cu -0.5000 0.0000 1.0000 0.0939 Uani
Cu2C Cu 0.5000 0.0000 0.5000 0.0939 Uani
N3C N 0.0886(3) 0.5531(2) 0.0273(3) 0.0816 Uani
N3G N -0.0886(3) 0.4469(2) -0.0273(3) 0.0816 Uani
O1D O -0.0488(3) 0.5531(2) -0.0827(3) 0.0944 Uani
O3A O -0.0964(3) 0.2509(4) 0.6725(3) 0.0951 Uani
O7 O 0.0577(4) 0.4451(3) 0.8803(4) 0.1709 Uani
H20 H 0.0412 0.4215 0.8426 0.2050 Uiso
H21 H 0.0668 0.4261 0.9231 0.2050 Uiso
loop_
_atom_site_aniso_label
_atom_site_aniso_U_11
_atom_site_aniso_U_22
_atom_site_aniso_U_33
_atom_site_aniso_U_23
_atom_site_aniso_U_13
_atom_site_aniso_U_12
Cu1 0.0517(6) 0.1190(10) 0.0404(5) 0.000 0.0049(4) 0.000
Cu2 0.0886(9) 0.0748(8) 0.0870(8) 0.0399(6) -0.0290(6) -0.0397(6)
N1 0.069(3) 0.069(3) 0.056(3) 0.005(2) 0.022(2) 0.022(3)
N2 0.054(3) 0.101(4) 0.049(3) 0.007(3) 0.009(2) 0.013(3)
N3 0.094 0.075 0.057 -0.02 -0.011 0.031
O1 0.113(4) 0.076(3) 0.071(3) 0.024(3) -0.014(3) -0.017(3)
O2 0.169(6) 0.153(5) 0.080(4) 0.046(4) 0.027(4) 0.010(4)
O3 0.071(3) 0.159(6) 0.053(3) -0.003(4) 0.013(2) 0.000(4)
O4 0.149(9) 0.163(9) 0.102(7) -0.002(6) -0.009(6) -0.002(7)
O5 0.167(9) 0.157(8) 0.106(6) 0.000 0.010(6) 0.000
C1 0.097(6) 0.091(6) 0.058(4) 0.023(4) 0.007(4) -0.015(5)
C2 0.082(5) 0.074(4) 0.050(4) 0.016(3) 0.014(3) 0.007(4)
C3 0.132(7) 0.091(5) 0.075(5) 0.030(4) 0.022(4) 0.042(5)
C4 0.129(6) 0.101(5) 0.063(4) 0.019(4) 0.035(4) 0.045(5)
C5 0.080(4) 0.070(4) 0.052(3) 0.018(3) 0.023(3) 0.027(3)
C6 0.120(6) 0.085(5) 0.070(4) 0.015(4) 0.033(4) 0.039(4)
C7 0.123(6) 0.101(6) 0.063(4) 0.023(4) 0.037(4) 0.025(5)
C8 0.067(4) 0.107(5) 0.058(4) 0.008(4) 0.017(3) 0.026(4)
C9 0.072(4) 0.097(5) 0.054(3) 0.021(3) 0.022(3) 0.027(4)
C10 0.058(4) 0.069(4) 0.054(3) 0.014(3) 0.018(3) 0.015(3)
C11 0.069(4) 0.097(5) 0.055(3) 0.022(3) 0.020(3) 0.028(4)
C12 0.076(5) 0.105(5) 0.049(3) 0.013(3) 0.010(3) 0.016(4)
C13 0.103 0.103 0.065 -0.011 0.005 0.049
C14 0.095(5) 0.100(5) 0.054(4) 0.003(3) 0.008(3) 0.049(4)
C15 0.067(4) 0.062(4) 0.051(3) 0.007(3) 0.015(3) 0.022(3)
C16 0.103(5) 0.083(5) 0.073(4) 0.016(4) 0.027(4) 0.045(4)
C17 0.113 0.098 0.065 0 0.008 0.053
C18 0.067(4) 0.065(4) 0.049(3) 0.008(3) 0.016(3) 0.016(3)
C19 0.071(4) 0.070(4) 0.059(3) 0.019(3) 0.025(3) 0.030(3)
C20 0.080(4) 0.067(4) 0.055(3) 0.011(3) 0.023(3) 0.022(3)
C21 0.073(4) 0.069(4) 0.052(3) 0.008(3) 0.021(3) 0.022(3)
C22 0.064(4) 0.063(4) 0.055(3) 0.007(3) 0.011(3) 0.014(3)
C23 0.111(13) 0.137(13) 0.088(10) -0.007(10) 0.002(9) 0.006(11)
C24 0.11(4) 0.14(7) 0.13(4) -0.01(4) 0.01(3) -0.01(4)
C25 0.15(7) 0.17(5) 0.14(6) 0.00(4) -0.02(4) 0.00(5)
C26 0.14(5) 0.16(8) 0.09(5) 0.01(4) 0.00(4) 0.01(4)
O3F 0.071 0.159 0.053 -0.003 0.013 0
O4F 0.149 0.163 0.102 -0.002 -0.009 -0.002
C23F 0.111 0.137 0.088 -0.007 0.002 0.006
C24F 0.11 0.14 0.13 -0.01 0.01 -0.01
C25F 0.15 0.17 0.14 0 -0.02 0
C26F 0.14 0.16 0.09 0.01 0 0.01
N1A 0.069 0.069 0.056 -0.005 0.022 -0.022
N2A 0.054 0.101 0.049 -0.007 0.009 -0.013
N3A 0.094 0.075 0.057 0.02 -0.011 -0.031
O1A 0.113 0.076 0.071 -0.024 -0.014 0.017
O2A 0.169 0.153 0.08 -0.046 0.027 -0.01
C1A 0.097 0.091 0.058 -0.023 0.007 0.015
C2A 0.082 0.074 0.05 -0.016 0.014 -0.007
C3A 0.132 0.091 0.075 -0.03 0.022 -0.042
C4A 0.129 0.101 0.063 -0.019 0.035 -0.045
C5A 0.08 0.07 0.052 -0.018 0.023 -0.027
C6A 0.12 0.085 0.07 -0.015 0.033 -0.039
C7A 0.123 0.101 0.063 -0.023 0.037 -0.025
C8A 0.067 0.107 0.058 -0.008 0.017 -0.026
C9A 0.072 0.097 0.054 -0.021 0.022 -0.027
C10A 0.058 0.069 0.054 -0.014 0.018 -0.015
C11A 0.069 0.097 0.055 -0.022 0.02 -0.028
C12A 0.076 0.105 0.049 -0.013 0.01 -0.016
C13A 0.103 0.103 0.065 0.011 0.005 -0.049
C14A 0.095 0.1 0.054 -0.003 0.008 -0.049
C15A 0.067 0.062 0.051 -0.007 0.015 -0.022
C16A 0.103 0.083 0.073 -0.016 0.027 -0.045
C17A 0.113 0.098 0.065 0 0.008 -0.053
C18A 0.067 0.065 0.049 -0.008 0.016 -0.016
C19A 0.071 0.07 0.059 -0.019 0.025 -0.03
C20A 0.08 0.067 0.055 -0.011 0.023 -0.022
C21A 0.073 0.069 0.052 -0.008 0.021 -0.022
C22A 0.064 0.063 0.055 -0.007 0.011 -0.014
Cu1F 0.0517 0.119 0.0404 0 0.0049 0
Cu2A 0.0886 0.0748 0.087 -0.0399 -0.029 0.0397
Cu2B 0.0886 0.0748 0.087 0.0399 -0.029 -0.0397
Cu2C 0.0886 0.0748 0.087 -0.0399 -0.029 0.0397
N3C 0.094 0.075 0.057 0.02 -0.011 -0.031
N3G 0.094 0.075 0.057 0.02 -0.011 -0.031
O1D 0.113 0.076 0.071 0.024 -0.014 -0.017
O3A 0.071 0.159 0.053 0.003 0.013 0
O7 0.221(8) 0.148(5) 0.122(5) 0.027(4) 0.010(5) -0.017(5)
loop_
_geom_bond_atom_site_label_1
_geom_bond_atom_site_label_2
_geom_bond_site_symmetry_1
_geom_bond_site_symmetry_2
Cu1 N2 1_555 1_555
Cu2 O1 1_555 1_555
N1 C18 1_555 1_555
N2 C8 1_555 1_555
N3 C13 1_555 1_555
O1 C1 1_555 1_555
O2 C1 1_555 1_555
O3 Cu1 1_555 1_555
O4 C23 1_555 1_555
O5 Cu1 1_555 1_555
H1 O5 1_555 1_555
C1 C2 1_555 1_555
C2 C3 1_555 1_555
C3 H2 1_555 1_555
C4 C3 1_555 1_555
H3 C4 1_555 1_555
C5 C4 1_555 1_555
C6 C5 1_555 1_555
H4 C6 1_555 1_555
C7 C2 1_555 1_555
H5 C7 1_555 1_555
C8 H6 1_555 1_555
C9 C8 1_555 1_555
H7 C9 1_555 1_555
C10 C9 1_555 1_555
C11 C10 1_555 1_555
H8 C11 1_555 1_555
C12 N2 1_555 1_555
H9 C12 1_555 1_555
C13 H10 1_555 1_555
C14 C13 1_555 1_555
H11 C14 1_555 1_555
C15 C14 1_555 1_555
C16 C15 1_555 1_555
H12 C16 1_555 1_555
C17 N3 1_555 1_555
H13 C17 1_555 1_555
C18 C10 1_555 1_555
C19 C18 1_555 1_555
H14 C19 1_555 1_555
C20 C5 1_555 1_555
C21 C20 1_555 1_555
H15 C21 1_555 1_555
C22 N1 1_555 1_555
C23 O3 1_555 1_555
C24 C23 1_555 1_555
C25 C24 1_555 1_555
H16 C25 1_555 1_555
C26 C24 1_555 1_555
H17 C26 1_555 1_555
O7 H20 1_555 1_555
H21 O7 1_555 1_555
O3F C23F 1_555 1_555
O4F C23F 1_555 1_555
C23F C24F 1_555 1_555
C24F C25F 1_555 1_555
C25F C26 1_555 1_555
H16F C25F 1_555 1_555
C26F C25 1_555 1_555
H17F C26F 1_555 1_555
H1A O5 1_555 1_555
N1A C18A 1_555 1_555
N2A Cu1 1_555 1_555
N3A C13A 1_555 1_555
O1A C1A 1_555 1_555
O2A C1A 1_555 1_555
C1A C2A 1_555 1_555
C2A C3A 1_555 1_555
C3A H2A 1_555 1_555
C4A C3A 1_555 1_555
H3A C4A 1_555 1_555
C5A C4A 1_555 1_555
C6A C5A 1_555 1_555
H4A C6A 1_555 1_555
C7A C2A 1_555 1_555
H5A C7A 1_555 1_555
C8A N2A 1_555 1_555
H6A C8A 1_555 1_555
C9A C8A 1_555 1_555
H7A C9A 1_555 1_555
C10A C9A 1_555 1_555
C11A C10A 1_555 1_555
H8A C11A 1_555 1_555
C12A N2A 1_555 1_555
H9A C12A 1_555 1_555
C13A H10A 1_555 1_555
C14A C13A 1_555 1_555
H11A C14A 1_555 1_555
C15A C14A 1_555 1_555
C16A C15A 1_555 1_555
H12A C16A 1_555 1_555
C17A N3A 1_555 1_555
H13A C17A 1_555 1_555
C18A C10A 1_555 1_555
C19A C18A 1_555 1_555
H14A C19A 1_555 1_555
C20A C5A 1_555 1_555
C21A C20A 1_555 1_555
H15A C21A 1_555 1_555
C22A N1A 1_555 1_555
Cu1F O3F 1_555 1_555
Cu2A O1A 1_555 1_555
Cu2B N3A 1_555 1_555
Cu2C N3 1_555 1_555
N3C Cu2 1_555 1_555
N3G Cu2 1_555 1_555
O1D Cu2 1_555 1_555
O3A Cu1 1_555 1_555
C6 C7 1_555 1_555
C11 C12 1_555 1_555
C15 C22 1_555 1_555
C16 C17 1_555 1_555
C19 C20 1_555 1_555
C21 C22 1_555 1_555
C24F C26F 1_555 1_555
C6A C7A 1_555 1_555
C11A C12A 1_555 1_555
C15A C22A 1_555 1_555
C16A C17A 1_555 1_555
C19A C20A 1_555 1_555
C21A C22A 1_555 1_555

#END
