
#######################################################################
#
#                 Cambridge Crystallographic Data Centre
#                                CCDC 
#
#######################################################################
#
# If this CIF has been generated from an entry in the Cambridge 
# Structural Database, then it will include bibliographic, chemical, 
# crystal, experimental, refinement or atomic coordinate data resulting 
# from the CCDC's data processing and validation procedures.
#
#######################################################################

data_PELRAB
_chemical_formula_moiety         '(C28 H30 Cl2 Cu1 N8 O5)n'
_symmetry_cell_setting           trigonal
_symmetry_space_group_name_H-M   'P 32 2 1'
_symmetry_Int_Tables_number      154
_space_group_name_Hall           'P 32 2"'
loop_
_symmetry_equiv_pos_site_id
_symmetry_equiv_pos_as_xyz
1 x,y,z
2 -y,x-y,2/3+z
3 -x+y,-x,1/3+z
4 y,x,-z
5 x-y,-y,1/3-z
6 -x,-x+y,2/3-z
_cell_length_a                   13.5842(4)
_cell_length_b                   13.5842(4)
_cell_length_c                   14.8502(9)
_cell_angle_alpha                90
_cell_angle_beta                 90
_cell_angle_gamma                120
_cell_volume                     2373.18
loop_
_atom_site_label
_atom_site_type_symbol
_atom_site_fract_x
_atom_site_fract_y
_atom_site_fract_z
_atom_site_U_iso_or_equiv
_atom_site_thermal_displace_type
Cu1 Cu 0.26264(2) 0.26264(2) 0.5000 0.0247 Uani
Cl1 Cl 0.45764(5) 0.45764(5) 0.5000 0.0292 Uani
N1 N 0.17947(14) 0.33922(14) 0.54881(11) 0.0264 Uani
C1 C 0.07803(19) 0.3150(2) 0.51724(15) 0.0354 Uani
H1 H 0.0487 0.2675 0.4675 0.0420 Uiso
C2 C 0.01529(19) 0.3576(2) 0.55543(16) 0.0399 Uani
H2 H -0.0539 0.3417 0.5304 0.0480 Uiso
C3 C 0.05569(19) 0.4242(2) 0.63117(15) 0.0359 Uani
H3 H 0.0132 0.4520 0.6590 0.0430 Uiso
C4 C 0.16016(18) 0.44930(18) 0.66546(12) 0.0275 Uani
C5 C 0.22238(18) 0.40815(17) 0.62046(13) 0.0282 Uani
H4 H 0.2951 0.4289 0.6405 0.0340 Uiso
N2 N 0.19757(15) 0.51184(16) 0.74579(12) 0.0336 Uani
H5 H 0.1533 0.5336 0.7684 0.0400 Uiso
C6 C 0.2944(2) 0.5422(2) 0.79208(16) 0.0403 Uani
O1 O 0.37445(15) 0.53582(19) 0.76350(13) 0.0587 Uani
C7 C 0.2889(2) 0.5784(3) 0.88833(19) 0.0571 Uani
H6 H 0.2395 0.6118 0.8896 0.0680 Uiso
C8 C 0.2382(3) 0.4746(4) 0.9483(2) 0.0792 Uani
H7 H 0.2868 0.4421 0.9485 0.1190 Uiso
H8 H 0.1645 0.4197 0.9260 0.1190 Uiso
H9 H 0.2311 0.4961 1.0085 0.1190 Uiso
N3 N 0.4016(2) 0.6629(3) 0.91895(18) 0.0615 Uani
H10 H 0.4307 0.6475 0.9644 0.0740 Uiso
C9 C 0.4603(3) 0.7619(3) 0.8795(2) 0.0591 Uani
O2 O 0.4231(2) 0.7897(2) 0.81351(15) 0.0750 Uani
C10 C 0.5774(2) 0.8422(3) 0.91301(17) 0.0501 Uani
C11 C 0.6038(2) 0.8638(2) 1.00454(15) 0.0379 Uani
H11 H 0.5461 0.8253 1.0464 0.0450 Uiso
N4 N 0.70790(15) 0.93705(16) 1.03449(11) 0.0311 Uani
C12 C 0.7919(2) 0.9856(2) 0.97384(15) 0.0390 Uani
H12 H 0.8657 1.0328 0.9943 0.0470 Uiso
C13 C 0.7739(3) 0.9688(3) 0.88259(17) 0.0539 Uani
H13 H 0.8343 1.0041 0.8424 0.0650 Uiso
C14 C 0.6663(3) 0.8996(3) 0.85210(19) 0.0625 Uani
H14 H 0.6521 0.8906 0.7905 0.0750 Uiso
O3 O 0.08281(19) 0.08281(19) 0.5000 0.0451 Uani
H15 H 0.076(3) 0.039(3) 0.459(2) 0.0560 Uiso
Cu1A Cu 0.73736(2) 1.00000(3) 1.1667 0.0247 Uani
Cu1B Cu 1.00000(3) 0.73736(2) -0.1667 0.0247 Uani
N1C N 0.33922(14) 0.17947(14) 0.45119(11) 0.0264 Uani
C1C C 0.3150(2) 0.07803(19) 0.48276(15) 0.0354 Uani
H1C H 0.2675 0.0487 0.5325 0.0420 Uiso
C2C C 0.3576(2) 0.01529(19) 0.44457(16) 0.0399 Uani
H2C H 0.3417 -0.0539 0.4696 0.0480 Uiso
C3C C 0.4242(2) 0.05569(19) 0.36883(15) 0.0359 Uani
H3C H 0.4520 0.0132 0.3410 0.0430 Uiso
C4C C 0.44930(18) 0.16016(18) 0.33454(12) 0.0275 Uani
C5C C 0.40815(17) 0.22238(18) 0.37954(13) 0.0282 Uani
H4C H 0.4289 0.2951 0.3595 0.0340 Uiso
N2C N 0.51184(16) 0.19757(15) 0.25421(12) 0.0336 Uani
H5C H 0.5336 0.1533 0.2316 0.0400 Uiso
C6C C 0.5422(2) 0.2944(2) 0.20792(16) 0.0403 Uani
O1C O 0.53582(19) 0.37445(15) 0.23650(13) 0.0587 Uani
C7C C 0.5784(3) 0.2889(2) 0.11167(19) 0.0571 Uani
H6C H 0.6118 0.2395 0.1104 0.0680 Uiso
C8C C 0.4746(4) 0.2382(3) 0.0517(2) 0.0792 Uani
H7C H 0.4421 0.2868 0.0515 0.1190 Uiso
H8C H 0.4197 0.1645 0.0740 0.1190 Uiso
H9C H 0.4961 0.2311 -0.0085 0.1190 Uiso
N3C N 0.6629(3) 0.4016(2) 0.08105(18) 0.0615 Uani
H10C H 0.6475 0.4307 0.0356 0.0740 Uiso
C9C C 0.7619(3) 0.4603(3) 0.1205(2) 0.0591 Uani
O2C O 0.7897(2) 0.4231(2) 0.18649(15) 0.0750 Uani
C10C C 0.8422(3) 0.5774(2) 0.08699(17) 0.0501 Uani
C11C C 0.8638(2) 0.6038(2) -0.00454(15) 0.0379 Uani
H11C H 0.8253 0.5461 -0.0464 0.0450 Uiso
N4C N 0.93705(16) 0.70790(15) -0.03449(11) 0.0311 Uani
N4B N 0.22915(22) 0.29210(15) 0.36782(11) 0.0311 Uani
N4E N 0.29210(15) 0.22915(22) 0.63218(11) 0.0311 Uani
C12C C 0.9856(2) 0.7919(2) 0.02616(15) 0.0390 Uani
H12C H 1.0328 0.8657 0.0057 0.0470 Uiso
C13C C 0.9688(3) 0.7739(3) 0.11741(17) 0.0539 Uani
H13C H 1.0041 0.8343 0.1576 0.0650 Uiso
C14C C 0.8996(3) 0.6663(3) 0.14790(19) 0.0625 Uani
H14C H 0.8906 0.6521 0.2095 0.0750 Uiso
H15C H 0.039(3) 0.076(3) 0.541(2) 0.0560 Uiso
Cl2 Cl 0.90907(7) 0.0000 0.6667 0.0652 Uani
loop_
_atom_site_aniso_label
_atom_site_aniso_U_11
_atom_site_aniso_U_22
_atom_site_aniso_U_33
_atom_site_aniso_U_23
_atom_site_aniso_U_13
_atom_site_aniso_U_12
Cu1 0.03056(16) 0.03056(16) 0.01778(18) -0.00063(6) 0.00063(6) 0.01897(15)
Cl1 0.0289(3) 0.0289(3) 0.0298(4) 0.00270(13) -0.00270(13) 0.0145(3)
N1 0.0283(8) 0.0292(9) 0.0230(8) -0.0033(7) -0.0004(7) 0.0154(7)
C1 0.0325(11) 0.0402(13) 0.0341(11) -0.0134(9) -0.0097(9) 0.0187(10)
C2 0.0277(11) 0.0525(14) 0.0421(12) -0.0151(10) -0.0089(9) 0.0221(11)
C3 0.0299(11) 0.0408(12) 0.0406(12) -0.0112(9) -0.0005(9) 0.0203(9)
C4 0.0266(10) 0.0273(10) 0.0273(10) -0.0037(8) 0.0010(8) 0.0126(8)
C5 0.0260(9) 0.0297(10) 0.0278(10) -0.0044(8) -0.0009(8) 0.0132(8)
N2 0.0282(9) 0.0427(10) 0.0327(9) -0.0150(8) -0.0021(7) 0.0199(8)
C6 0.0325(12) 0.0484(13) 0.0407(13) -0.0196(11) -0.0078(10) 0.0207(10)
O1 0.0372(9) 0.0888(15) 0.0587(11) -0.0425(11) -0.0164(8) 0.0379(10)
C7 0.0453(14) 0.088(2) 0.0472(15) -0.0392(16) -0.0206(12) 0.0402(15)
C8 0.0610(19) 0.111(3) 0.0430(15) -0.0134(18) -0.0043(14) 0.026(2)
N3 0.0555(15) 0.0737(17) 0.0565(15) -0.0379(13) -0.0249(12) 0.0332(14)
C9 0.0585(18) 0.088(2) 0.0443(15) -0.0443(16) -0.0210(14) 0.0468(18)
O2 0.0697(15) 0.119(2) 0.0550(12) -0.0380(14) -0.0257(11) 0.0613(15)
C10 0.0543(15) 0.0703(17) 0.0369(13) -0.0270(12) -0.0111(11) 0.0395(13)
C11 0.0380(12) 0.0419(13) 0.0331(11) -0.0143(10) -0.0048(9) 0.0195(10)
N4 0.0337(9) 0.0352(9) 0.0263(9) -0.0025(7) -0.0020(7) 0.0186(8)
C12 0.0406(13) 0.0472(12) 0.0329(11) -0.0010(10) 0.0028(9) 0.0248(11)
C13 0.0633(18) 0.0756(19) 0.0324(13) -0.0088(13) 0.0078(13) 0.0419(15)
C14 0.073(2) 0.096(2) 0.0301(13) -0.0232(14) -0.0093(13) 0.051(2)
O3 0.0407(10) 0.0407(10) 0.0443(15) -0.0075(6) 0.0075(6) 0.0132(11)
Cu1A 0.03056 0.02318 0.01778 0.00126 0.00063 0.01159
Cu1B 0.02318 0.03056 0.01778 -0.00063 -0.00126 0.01159
N1C 0.0292 0.0283 0.023 0.0004 0.0033 0.0154
C1C 0.0402 0.0325 0.0341 0.0097 0.0134 0.0187
C2C 0.0525 0.0277 0.0421 0.0089 0.0151 0.0221
C3C 0.0408 0.0299 0.0406 0.0005 0.0112 0.0203
C4C 0.0273 0.0266 0.0273 -0.001 0.0037 0.0126
C5C 0.0297 0.026 0.0278 0.0009 0.0044 0.0132
N2C 0.0427 0.0282 0.0327 0.0021 0.015 0.0199
C6C 0.0484 0.0325 0.0407 0.0078 0.0196 0.0207
O1C 0.0888 0.0372 0.0587 0.0164 0.0425 0.0379
C7C 0.088 0.0453 0.0472 0.0206 0.0392 0.0402
C8C 0.111 0.061 0.043 0.0043 0.0134 0.026
N3C 0.0737 0.0555 0.0565 0.0249 0.0379 0.0332
C9C 0.088 0.0585 0.0443 0.021 0.0443 0.0468
O2C 0.119 0.0697 0.055 0.0257 0.038 0.0613
C10C 0.0703 0.0543 0.0369 0.0111 0.027 0.0395
C11C 0.0419 0.038 0.0331 0.0048 0.0143 0.0195
N4C 0.0352 0.0337 0.0263 0.002 0.0025 0.0186
N4B 0.0317 0.0337 0.0263 0.002 -0.0005 0.0151
N4E 0.0337 0.0317 0.0263 0.0005 -0.002 0.0151
C12C 0.0472 0.0406 0.0329 -0.0028 0.001 0.0248
C13C 0.0756 0.0633 0.0324 -0.0078 0.0088 0.0419
C14C 0.096 0.073 0.0301 0.0093 0.0232 0.051
Cl2 0.0617(4) 0.1142(10) 0.0373(5) 0.0202(5) 0.0101(3) 0.0571(5)
loop_
_geom_bond_atom_site_label_1
_geom_bond_atom_site_label_2
_geom_bond_site_symmetry_1
_geom_bond_site_symmetry_2
Cu1 Cl1 1_555 1_555
N1 Cu1 1_555 1_555
C1 N1 1_555 1_555
H1 C1 1_555 1_555
C2 C1 1_555 1_555
H2 C2 1_555 1_555
C3 C2 1_555 1_555
H3 C3 1_555 1_555
C4 C3 1_555 1_555
C5 N1 1_555 1_555
H4 C5 1_555 1_555
N2 C4 1_555 1_555
H5 N2 1_555 1_555
C6 N2 1_555 1_555
O1 C6 1_555 1_555
C7 C6 1_555 1_555
H6 C7 1_555 1_555
C8 C7 1_555 1_555
H7 C8 1_555 1_555
H8 C8 1_555 1_555
H9 C8 1_555 1_555
N3 C7 1_555 1_555
H10 N3 1_555 1_555
C9 N3 1_555 1_555
O2 C9 1_555 1_555
C10 C9 1_555 1_555
C11 C10 1_555 1_555
H11 C11 1_555 1_555
N4 C11 1_555 1_555
C12 N4 1_555 1_555
H12 C12 1_555 1_555
C13 C12 1_555 1_555
H13 C13 1_555 1_555
C14 C10 1_555 1_555
H14 C14 1_555 1_555
O3 Cu1 1_555 1_555
H15 O3 1_555 1_555
Cu1A N4 1_555 1_555
Cu1B N4C 1_555 1_555
N1C Cu1 1_555 1_555
C1C N1C 1_555 1_555
H1C C1C 1_555 1_555
C2C C1C 1_555 1_555
H2C C2C 1_555 1_555
C3C C2C 1_555 1_555
H3C C3C 1_555 1_555
C4C C3C 1_555 1_555
C5C N1C 1_555 1_555
H4C C5C 1_555 1_555
N2C C4C 1_555 1_555
H5C N2C 1_555 1_555
C6C N2C 1_555 1_555
O1C C6C 1_555 1_555
C7C C6C 1_555 1_555
H6C C7C 1_555 1_555
C8C C7C 1_555 1_555
H7C C8C 1_555 1_555
H8C C8C 1_555 1_555
H9C C8C 1_555 1_555
N3C C7C 1_555 1_555
H10C N3C 1_555 1_555
C9C N3C 1_555 1_555
O2C C9C 1_555 1_555
C10C C9C 1_555 1_555
C11C C10C 1_555 1_555
H11C C11C 1_555 1_555
N4C C11C 1_555 1_555
N4B Cu1 1_555 1_555
N4E Cu1 1_555 1_555
C12C N4C 1_555 1_555
H12C C12C 1_555 1_555
C13C C12C 1_555 1_555
H13C C13C 1_555 1_555
C14C C10C 1_555 1_555
H14C C14C 1_555 1_555
H15C O3 1_555 1_555
C4 C5 1_555 1_555
C13 C14 1_555 1_555
C4C C5C 1_555 1_555
C13C C14C 1_555 1_555

#END
