
#######################################################################
#
#                 Cambridge Crystallographic Data Centre
#                                CCDC 
#
#######################################################################
#
# If this CIF has been generated from an entry in the Cambridge 
# Structural Database, then it will include bibliographic, chemical, 
# crystal, experimental, refinement or atomic coordinate data resulting 
# from the CCDC's data processing and validation procedures.
#
#######################################################################

data_GOMREG
_chemical_formula_moiety         '(C3 H5 Al3 N2 O12 P3)n'
_symmetry_cell_setting           monoclinic
_symmetry_space_group_name_H-M   'C 2/c'
_symmetry_Int_Tables_number      15
_space_group_name_Hall           '-C 2yc'
loop_
_symmetry_equiv_pos_site_id
_symmetry_equiv_pos_as_xyz
1 x,y,z
2 -x,y,1/2-z
3 1/2+x,1/2+y,z
4 1/2-x,1/2+y,1/2-z
5 -x,-y,-z
6 x,-y,1/2+z
7 1/2-x,1/2-y,-z
8 1/2+x,1/2-y,1/2+z
_cell_length_a                   14.8779(16)
_cell_length_b                   13.0633(16)
_cell_length_c                   15.4191(18)
_cell_angle_alpha                90
_cell_angle_beta                 110.745(2)
_cell_angle_gamma                90
_cell_volume                     2802.48
loop_
_atom_site_label
_atom_site_type_symbol
_atom_site_fract_x
_atom_site_fract_y
_atom_site_fract_z
Al1 Al 0.37730(9) 0.30755(9) 0.12409(8)
Al2 Al 0.74283(9) 0.37415(8) 0.07967(8)
Al3 Al 0.08384(7) 0.10940(7) 0.16377(7)
P1 P 0.24469(9) 0.11429(9) 0.07551(9)
P2 P 0.87413(10) 0.19095(10) 0.12656(9)
P3 P 0.58877(10) 0.36602(10) 0.17098(10)
O1 O 0.9731(3) 0.1878(4) 0.1201(3)
O2 O 0.3368(3) 0.1771(3) 0.1088(3)
O3 O 0.6579(4) 0.3281(4) 0.1263(4)
O4 O 0.8685(3) 0.1322(4) 0.2079(3)
O5 O 0.5012(3) 0.2962(4) 0.1396(3)
O6 O 0.1746(3) 0.1564(3) 0.1162(3)
O7 O 0.6370(3) 0.3646(4) 0.2755(3)
O8 O 0.8496(3) 0.3039(3) 0.1304(3)
O9 O 0.7981(3) 0.1436(3) 0.0421(3)
O10 O 0.5586(4) 0.4741(3) 0.1405(4)
O11 O 0.2719(3) 0.0043(3) 0.1063(3)
O12 O 0.2016(3) 0.1167(3) -0.0294(3)
Al1A Al 0.62270(9) 0.30755(9) 0.37591(8)
Al1F Al 0.12270(9) 0.19245(9) -0.12409(8)
Al2F Al 0.75717(9) 0.12585(8) -0.07967(8)
Al2B Al 0.24283(9) -0.12585(8) 0.07967(8)
Al3_2 Al 1.08384(7) 0.10940(7) 0.16377(7)
Al3A Al 0.91616(7) 0.10940(7) 0.33623(7)
Al3B Al 0.58384(7) 0.60940(7) 0.16377(7)
O1_2 O -0.0269(3) 0.1878(4) 0.1201(3)
O4A O 0.1315(3) 0.1322(4) 0.2921(3)
O7A O 0.3630(3) 0.3646(4) 0.2245(3)
O9F O 0.7019(3) 0.3564(3) -0.0421(3)
O10B O 0.0586(4) -0.0259(3) 0.1405(4)
O11B O 0.7719(3) 0.5043(3) 0.1063(3)
O12F O 0.2984(3) 0.3833(3) 0.0294(3)
N1 N 0.1670(5) 0.5007(6) 0.1350(6)
N2 N 0.0412(5) 0.4247(7) 0.1348(5)
C1 C 0.0271(8) 0.5328(10) 0.1340(6)
C2 C 0.1063(9) 0.5741(6) 0.1338(7)
C3 C 0.1273(6) 0.4132(6) 0.1346(7)
loop_
_geom_bond_atom_site_label_1
_geom_bond_atom_site_label_2
_geom_bond_site_symmetry_1
_geom_bond_site_symmetry_2
Al1 O2 1_555 1_555
Al2 O3 1_555 1_555
Al3 O6 1_555 1_555
P1 O2 1_555 1_555
P2 O1 1_555 1_555
P3 O3 1_555 1_555
O1 Al3_2 1_555 1_555
O4 P2 1_555 1_555
O5 Al1 1_555 1_555
O6 P1 1_555 1_555
O7 P3 1_555 1_555
O8 Al2 1_555 1_555
O9 P2 1_555 1_555
O10 P3 1_555 1_555
O11 P1 1_555 1_555
O12 P1 1_555 1_555
N1 C2 1_555 1_555
N2 C1 1_555 1_555
C1 C2 1_555 1_555
C3 N1 1_555 1_555
Al1A O7 1_555 1_555
Al1F O12 1_555 1_555
Al2F O9 1_555 1_555
Al2B O11 1_555 1_555
Al3A O4 1_555 1_555
Al3B O10 1_555 1_555
O1_2 Al3 1_555 1_555
O4A Al3 1_555 1_555
O7A Al1 1_555 1_555
O9F Al2 1_555 1_555
O10B Al3 1_555 1_555
O11B Al2 1_555 1_555
O12F Al1 1_555 1_555
P2 O8 1_555 1_555
P3 O5 1_555 1_555
N2 C3 1_555 1_555

#END
