
#######################################################################
#
#                 Cambridge Crystallographic Data Centre
#                                CCDC 
#
#######################################################################
#
# If this CIF has been generated from an entry in the Cambridge 
# Structural Database, then it will include bibliographic, chemical, 
# crystal, experimental, refinement or atomic coordinate data resulting 
# from the CCDC's data processing and validation procedures.
#
#######################################################################

data_CIJVOH
_chemical_formula_moiety         '(C4 H20 Cd2 O18 S1)n'
_symmetry_cell_setting           orthorhombic
_symmetry_space_group_name_H-M   'P 21 21 21'
_symmetry_Int_Tables_number      19
_space_group_name_Hall           'P 2ac 2ab'
loop_
_symmetry_equiv_pos_site_id
_symmetry_equiv_pos_as_xyz
1 x,y,z
2 1/2-x,-y,1/2+z
3 -x,1/2+y,1/2-z
4 1/2+x,1/2-y,-z
_cell_length_a                   8.365(2)
_cell_length_b                   9.795(3)
_cell_length_c                   20.946(5)
_cell_angle_alpha                90
_cell_angle_beta                 90
_cell_angle_gamma                90
_cell_volume                     1716.21
loop_
_atom_site_label
_atom_site_type_symbol
_atom_site_fract_x
_atom_site_fract_y
_atom_site_fract_z
_atom_site_U_iso_or_equiv
_atom_site_thermal_displace_type
Cd1 Cd 0.49232(3) 0.39662(2) 0.283235(11) 0.0100 Uani
Cd2 Cd 0.69169(3) 0.34058(3) 0.021338(12) 0.0099 Uani
S1 S 0.12883(12) 0.23991(9) 0.29275(4) 0.0107 Uani
O1 O 0.2295(3) 0.3585(3) 0.31206(11) 0.0139 Uani
O2 O 0.1799(3) 0.1176(2) 0.32822(11) 0.0154 Uani
O3 O 0.1502(3) 0.2173(3) 0.22337(12) 0.0157 Uani
O4 O -0.0395(3) 0.2702(3) 0.30747(12) 0.0172 Uani
O5 O 0.5064(4) 0.5054(2) 0.38162(11) 0.0145 Uani
H1 H 0.4647 0.5831 0.3849 0.0220 Uiso
H2 H 0.5986 0.5081 0.3974 0.0220 Uiso
O6 O 0.6850(3) 0.4693(2) -0.07107(11) 0.0145 Uani
H3 H 0.6681 0.5335 -0.0453 0.0220 Uiso
H4 H 0.6010 0.4237 -0.0765 0.0220 Uiso
O7 O 0.7323(3) 0.3889(3) 0.23077(11) 0.0136 Uani
H5 H 0.7568 0.4621 0.2123 0.0200 Uiso
H6 H 0.8108 0.3580 0.2511 0.0200 Uiso
O8 O 0.8869(3) 0.4853(3) 0.05544(12) 0.0158 Uani
H7 H 0.8653 0.5282 0.0891 0.0240 Uiso
H8 H 0.9807 0.4550 0.0574 0.0240 Uiso
O9 O 0.6872(4) 0.2306(2) 0.11741(11) 0.0129 Uani
H9 H 0.7656 0.1854 0.1308 0.0190 Uiso
H10 H 0.6613 0.2886 0.1451 0.0190 Uiso
O13 O 0.4186(3) 0.3024(2) 0.01646(12) 0.0121 Uani
O14 O 0.1721(3) 0.3564(3) 0.04455(12) 0.0155 Uani
O15 O 0.5477(3) 0.5176(3) 0.07391(11) 0.0121 Uani
H17 H 0.5752 0.5999 0.0759 0.0180 Uiso
O16 O 0.3843(3) 0.3733(2) 0.17781(11) 0.0117 Uani
H18 H 0.3057 0.3219 0.1844 0.0180 Uiso
O17 O 0.4003(3) 0.7333(3) 0.15598(12) 0.0133 Uani
O18 O 0.4551(3) 0.6092(3) 0.24208(11) 0.0119 Uani
C1 C 0.3216(5) 0.3797(4) 0.04449(15) 0.0113 Uani
C2 C 0.3786(4) 0.5076(4) 0.07983(16) 0.0090 Uani
H19 H 0.3279 0.5900 0.0603 0.0110 Uiso
C3 C 0.3303(4) 0.4985(3) 0.15081(16) 0.0080 Uani
H20 H 0.2112 0.5025 0.1540 0.0100 Uiso
C4 C 0.4011(4) 0.6210(3) 0.18596(17) 0.0097 Uani
Cd1B Cd 0.50768(3) 0.89662(2) 0.216765(11) 0.0100 Uani
Cd2C Cd 0.19169(3) 0.15942(3) -0.021338(12) 0.0099 Uani
O13C O 0.9186(3) 0.1976(2) -0.01646(12) 0.0121 Uani
O14C O 0.6721(3) 0.1436(3) -0.04455(12) 0.0155 Uani
O17B O 0.5997(3) 0.2333(3) 0.34402(12) 0.0133 Uani
O10 O 0.3350(4) 0.2881(3) 0.45161(12) 0.0186 Uani
H11 H 0.3783 0.2787 0.4875 0.0280 Uiso
H12 H 0.3867 0.3448 0.4297 0.0280 Uiso
O11 O -0.0164(4) 0.3001(2) 0.43988(12) 0.0186 Uani
H13 H 0.0757 0.2711 0.4484 0.0280 Uiso
H14 H -0.0472 0.2702 0.4044 0.0280 Uiso
O12 O -0.0594(3) 0.0894(3) 0.15001(11) 0.0148 Uani
H15 H -0.0058 0.1329 0.1771 0.0220 Uiso
H16 H -0.0908 0.0152 0.1657 0.0220 Uiso
loop_
_atom_site_aniso_label
_atom_site_aniso_U_11
_atom_site_aniso_U_22
_atom_site_aniso_U_33
_atom_site_aniso_U_23
_atom_site_aniso_U_13
_atom_site_aniso_U_12
Cd1 0.01076(14) 0.01013(11) 0.00911(10) 0.00093(10) -0.00034(11) 0.00042(12)
Cd2 0.00970(14) 0.01001(11) 0.00998(11) -0.00111(11) 0.00083(11) -0.00011(12)
S1 0.0103(5) 0.0118(4) 0.0099(4) -0.0007(3) -0.0003(3) -0.0002(4)
O1 0.0146(15) 0.0150(14) 0.0120(12) -0.0003(10) 0.0015(10) -0.0027(11)
O2 0.0203(15) 0.0141(13) 0.0118(11) 0.0008(10) 0.0018(11) 0.0013(13)
O3 0.0193(16) 0.0172(13) 0.0105(12) 0.0017(10) 0.0023(11) -0.0040(11)
O4 0.0116(17) 0.0197(14) 0.0203(13) -0.0036(11) 0.0000(11) -0.0033(11)
O5 0.0148(14) 0.0127(12) 0.0159(12) -0.0044(10) -0.0050(12) 0.0025(14)
O6 0.0144(15) 0.0156(13) 0.0134(12) -0.0024(10) 0.0023(12) -0.0010(13)
O7 0.0096(14) 0.0151(13) 0.0162(13) 0.0031(11) -0.0010(9) 0.0002(11)
O8 0.0117(15) 0.0174(14) 0.0182(14) -0.0068(11) 0.0019(11) 0.0011(12)
O9 0.0154(15) 0.0107(12) 0.0127(12) 0.0003(10) 0.0001(11) 0.0049(12)
O13 0.0096(14) 0.0125(12) 0.0142(12) -0.0042(11) 0.0012(10) 0.0020(10)
O14 0.0090(15) 0.0189(14) 0.0187(12) -0.0058(11) -0.0015(10) -0.0025(12)
O15 0.0110(15) 0.0107(13) 0.0146(13) -0.0007(10) 0.0043(10) -0.0044(11)
O16 0.0142(15) 0.0078(13) 0.0132(12) 0.0017(10) 0.0012(10) -0.0031(10)
O17 0.0147(15) 0.0126(14) 0.0126(12) 0.0015(10) 0.0011(11) -0.0002(11)
O18 0.0140(15) 0.0118(12) 0.0098(11) -0.0006(10) -0.0035(9) -0.0001(11)
C1 0.009(2) 0.0147(19) 0.0102(14) 0.0025(13) -0.0008(14) -0.0015(16)
C2 0.0070(18) 0.0086(17) 0.0113(17) -0.0016(14) 0.0003(13) -0.0027(15)
C3 0.0034(18) 0.0068(16) 0.0138(16) -0.0005(13) 0.0028(13) -0.0013(14)
C4 0.0057(19) 0.0087(18) 0.0148(17) -0.0016(14) 0.0007(13) 0.0038(14)
Cd1B 0.01076 0.01013 0.00911 -0.00093 -0.00034 -0.00042
Cd2C 0.0097 0.01001 0.00998 -0.00111 -0.00083 0.00011
O13C 0.0096 0.0125 0.0142 -0.0042 -0.0012 -0.002
O14C 0.009 0.0189 0.0187 -0.0058 0.0015 0.0025
O17B 0.0147 0.0126 0.0126 -0.0015 0.0011 0.0002
O10 0.0256(18) 0.0214(14) 0.0088(12) 0.0054(10) -0.0025(11) 0.0004(13)
O11 0.0181(16) 0.0195(13) 0.0183(13) -0.0006(10) 0.0012(13) 0.0033(13)
O12 0.0179(15) 0.0106(13) 0.0160(13) 0.0020(11) -0.0016(10) -0.0021(11)
loop_
_geom_bond_atom_site_label_1
_geom_bond_atom_site_label_2
_geom_bond_site_symmetry_1
_geom_bond_site_symmetry_2
Cd1 O1 1_555 1_555
Cd2 O6 1_555 1_555
S1 O1 1_555 1_555
O2 S1 1_555 1_555
O3 S1 1_555 1_555
O4 S1 1_555 1_555
O5 Cd1 1_555 1_555
H1 O5 1_555 1_555
H2 O5 1_555 1_555
O6 H3 1_555 1_555
H4 O6 1_555 1_555
O7 Cd1 1_555 1_555
H5 O7 1_555 1_555
H6 O7 1_555 1_555
O8 Cd2 1_555 1_555
H7 O8 1_555 1_555
H8 O8 1_555 1_555
O9 Cd2 1_555 1_555
H9 O9 1_555 1_555
H10 O9 1_555 1_555
O10 H11 1_555 1_555
H12 O10 1_555 1_555
O11 H13 1_555 1_555
H14 O11 1_555 1_555
O12 H15 1_555 1_555
H16 O12 1_555 1_555
O13 Cd2 1_555 1_555
O14 C1 1_555 1_555
O15 Cd2 1_555 1_555
H17 O15 1_555 1_555
O16 Cd1 1_555 1_555
H18 O16 1_555 1_555
O17 C4 1_555 1_555
O18 Cd1 1_555 1_555
C1 O13 1_555 1_555
C2 O15 1_555 1_555
H19 C2 1_555 1_555
C3 O16 1_555 1_555
H20 C3 1_555 1_555
C4 O18 1_555 1_555
Cd1B O17 1_555 1_555
Cd2C O13 1_555 1_555
O13C Cd2 1_555 1_555
O14C Cd2 1_555 1_555
O17B Cd1 1_555 1_555
O14 Cd2C 1_555 1_555
C1 C2 1_555 1_555
C2 C3 1_555 1_555
C3 C4 1_555 1_555

#END
