
#######################################################################
#
#                 Cambridge Crystallographic Data Centre
#                                CCDC 
#
#######################################################################
#
# If this CIF has been generated from an entry in the Cambridge 
# Structural Database, then it will include bibliographic, chemical, 
# crystal, experimental, refinement or atomic coordinate data resulting 
# from the CCDC's data processing and validation procedures.
#
#######################################################################

data_CUWTOF
_chemical_formula_moiety         'C36 H20 Eu7 N8 O20'
_symmetry_cell_setting           triclinic
_symmetry_space_group_name_H-M   'P -1'
_symmetry_Int_Tables_number      2
_space_group_name_Hall           '-P 1'
loop_
_symmetry_equiv_pos_site_id
_symmetry_equiv_pos_as_xyz
1 x,y,z
2 -x,-y,-z
_cell_length_a                   10.5378(13)
_cell_length_b                   11.3009(8)
_cell_length_c                   12.9441(11)
_cell_angle_alpha                107.074(7)
_cell_angle_beta                 107.411(10)
_cell_angle_gamma                92.773(8)
_cell_volume                     1390.25
loop_
_atom_site_label
_atom_site_type_symbol
_atom_site_fract_x
_atom_site_fract_y
_atom_site_fract_z
C1 C 0.5262(11) 0.2715(9) 0.3391(7)
C2 C 0.5140(12) 0.3912(9) 0.4229(8)
C3 C 0.3896(13) 0.4217(11) 0.4211(10)
H1 H 0.3132 0.3699 0.3662
C4 C 0.6230(13) 0.4725(12) 0.5009(11)
C5 C 0.7616(10) 0.0338(8) 0.0650(9)
C6 C 0.8857(9) 0.0176(8) 0.0331(8)
C7 C 1.0156(10) 0.0625(10) 0.1119(8)
C8 C 0.8748(11) -0.0460(9) -0.0783(8)
H2 H 0.7899 -0.0785 -0.1319
C9 C 0.4943(10) 0.2441(7) 0.0003(8)
C10 C 0.4963(10) 0.3759(7) 0.0003(7)
C11 C 0.4569(11) 0.4034(7) -0.1006(8)
H3 H 0.4276 0.3379 -0.1695
C12 C 0.5404(11) 0.4765(8) 0.1025(8)
C13 C 0.503(2) -0.092(2) 0.3531(19)
C14 C 0.528(2) -0.143(2) 0.441(2)
H4 H 0.4609 -0.1936 0.4482
C15 C 0.658(3) -0.115(2) 0.5180(18)
H5 H 0.6781 -0.1481 0.5780
C16 C 0.759(2) -0.040(2) 0.5084(19)
H6 H 0.8453 -0.0224 0.5610
N1 N 0.7604(15) 0.457(3) 0.507(2)
N2 N 1.043(2) 0.121(2) 0.2332(9)
N3 N 0.601(3) 0.463(3) 0.2139(13)
N4 N 0.600(3) -0.016(2) 0.3397(17)
O1 O 0.4222(7) 0.1975(6) 0.2720(5)
O2 O 0.6416(7) 0.2473(6) 0.3372(5)
O3 O 0.7732(7) 0.0751(6) 0.1719(6)
O4 O 0.6492(7) 0.0055(5) -0.0080(6)
O5 O 0.5375(7) 0.2253(5) 0.0952(5)
O6 O 0.4492(7) 0.1589(5) -0.0964(5)
C17 C 0.728(2) 0.008(2) 0.419(2)
H7 H 0.7954 0.0588 0.4115
C18 C 0.355(4) -0.158(4) 0.254(3)
H8 H 0.3421 -0.1256 0.1914
H9 H 0.2844 -0.1382 0.2868
H10 H 0.3520 -0.2466 0.2274
O7 O 0.3923(13) -0.0583(12) 0.2348(9)
Eu1 Eu 0.54566(5) 0.05784(3) 0.16976(3)
C1A C 0.4738(11) 0.7285(9) 0.6609(7)
C2A C 0.4860(12) 0.6088(9) 0.5771(8)
C3A C 0.6104(13) 0.5783(11) 0.5789(10)
H1A H 0.6868 0.6301 0.6338
C4A C 0.3770(13) 0.5275(12) 0.4991(11)
N1A N 0.2396(15) 0.543(3) 0.493(2)
O1A O 0.5778(7) 0.8025(6) 0.7280(5)
O2A O 0.3584(7) 0.7527(6) 0.6628(5)
C5A C 1.2384(10) -0.0338(8) -0.0650(9)
C6A C 1.1143(9) -0.0176(8) -0.0331(8)
C7A C 0.9844(10) -0.0625(10) -0.1119(8)
C8A C 1.1252(11) 0.0460(9) 0.0783(8)
H2A H 1.2101 0.0785 0.1319
N2A N 0.957(2) -0.121(2) -0.2332(9)
O3A O 1.2268(7) -0.0751(6) -0.1719(6)
O4A O 1.3508(7) -0.0055(5) 0.0080(6)
C9A C 0.5057(10) 0.7559(7) -0.0003(8)
C10A C 0.5037(10) 0.6241(7) -0.0003(7)
C11A C 0.5431(11) 0.5966(7) 0.1006(8)
H3A H 0.5724 0.6621 0.1695
C12A C 0.4596(11) 0.5235(8) -0.1025(8)
N3A N 0.399(3) 0.537(3) -0.2139(13)
O5A O 0.4625(7) 0.7747(5) -0.0952(5)
O6A O 0.5508(7) 0.8411(5) 0.0964(5)
C13A C 0.497(2) 0.092(2) -0.3531(19)
C14A C 0.472(2) 0.143(2) -0.441(2)
H4A H 0.5391 0.1936 -0.4482
C15A C 0.342(3) 0.115(2) -0.5180(18)
H5A H 0.3219 0.1481 -0.5780
C16A C 0.241(2) 0.040(2) -0.5084(19)
H6A H 0.1547 0.0224 -0.5610
N4A N 0.400(3) 0.016(2) -0.3397(17)
C17A C 0.272(2) -0.008(2) -0.419(2)
H7A H 0.2046 -0.0588 -0.4115
C18A C 0.645(4) 0.158(4) -0.254(3)
H8A H 0.6579 0.1256 -0.1914
H9A H 0.7156 0.1382 -0.2868
H10A H 0.6480 0.2466 -0.2274
O7A O 0.6077(13) 0.0583(12) -0.2348(9)
Eu1A Eu 0.45434(5) -0.05784(3) -0.16976(3)
O1A_2 O 0.5778(7) -0.1975(6) -0.2720(5)
O2A_2 O 0.3584(7) -0.2473(6) -0.3372(5)
O3A_2 O 0.2268(7) -0.0751(6) -0.1719(6)
O4A_2 O 0.3508(7) -0.0055(5) 0.0080(6)
O5A_2 O 0.4625(7) -0.2253(5) -0.0952(5)
O6A_2 O 0.5508(7) -0.1589(5) 0.0964(5)
Eu1_2 Eu 0.54566(5) 1.05784(3) 0.16976(3)
Eu1_3 Eu 1.54566(5) 0.05784(3) 0.16976(3)
Eu1A_2 Eu 0.45434(5) 0.94216(3) -0.16976(3)
Eu1A_3 Eu 0.45434(5) 0.94216(3) 0.83024(3)
Eu1A_4 Eu 1.45434(5) -0.05784(3) -0.16976(3)
loop_
_geom_bond_atom_site_label_1
_geom_bond_atom_site_label_2
_geom_bond_site_symmetry_1
_geom_bond_site_symmetry_2
C1 C2 1_555 1_555
C2 C3 1_555 1_555
C3 H1 1_555 1_555
C4 C2 1_555 1_555
C5 C6 1_555 1_555
C6 C7 1_555 1_555
C7 N2 1_555 1_555
C8 C6 1_555 1_555
H2 C8 1_555 1_555
C9 C10 1_555 1_555
C10 C11 1_555 1_555
C11 H3 1_555 1_555
C12 C10 1_555 1_555
C13 C14 1_555 1_555
C14 H4 1_555 1_555
C15 C14 1_555 1_555
H5 C15 1_555 1_555
C16 C15 1_555 1_555
H6 C16 1_555 1_555
N1 C4 1_555 1_555
N3 C12 1_555 1_555
N4 C13 1_555 1_555
O1 C1 1_555 1_555
O2 C1 1_555 1_555
O3 C5 1_555 1_555
O4 C5 1_555 1_555
O5 C9 1_555 1_555
O6 C9 1_555 1_555
C17 C16 1_555 1_555
H7 C17 1_555 1_555
C18 C13 1_555 1_555
H8 C18 1_555 1_555
H9 C18 1_555 1_555
H10 C18 1_555 1_555
O7 Eu1 1_555 1_555
Eu1 N4 1_555 1_555
C1A C2A 1_555 1_555
C2A C3A 1_555 1_555
C3A C4 1_555 1_555
H1A C3A 1_555 1_555
C4A C3 1_555 1_555
N1A C4A 1_555 1_555
O1A C1A 1_555 1_555
O2A C1A 1_555 1_555
C5A C6A 1_555 1_555
C6A C7A 1_555 1_555
C7A C8 1_555 1_555
C8A C7 1_555 1_555
H2A C8A 1_555 1_555
N2A C7A 1_555 1_555
O3A C5A 1_555 1_555
O4A C5A 1_555 1_555
C9A C10A 1_555 1_555
C10A C11A 1_555 1_555
C11A C12 1_555 1_555
H3A C11A 1_555 1_555
C12A C11 1_555 1_555
N3A C12A 1_555 1_555
O5A C9A 1_555 1_555
O6A C9A 1_555 1_555
C13A C14A 1_555 1_555
C14A H4A 1_555 1_555
C15A C14A 1_555 1_555
H5A C15A 1_555 1_555
C16A C15A 1_555 1_555
H6A C16A 1_555 1_555
N4A C13A 1_555 1_555
C17A C16A 1_555 1_555
H7A C17A 1_555 1_555
C18A C13A 1_555 1_555
H8A C18A 1_555 1_555
H9A C18A 1_555 1_555
H10A C18A 1_555 1_555
O7A Eu1A 1_555 1_555
Eu1A O4 1_555 1_555
O1A_2 Eu1A 1_555 1_555
O2A_2 Eu1A 1_555 1_555
O3A_2 Eu1A 1_555 1_555
O4A_2 Eu1 1_555 1_555
O5A_2 Eu1A 1_555 1_555
O6A_2 Eu1 1_555 1_555
Eu1_2 O6A 1_555 1_555
Eu1_3 O4A 1_555 1_555
Eu1A_2 O5A 1_555 1_555
Eu1A_3 O1A 1_555 1_555
Eu1A_4 O3A 1_555 1_555
N4 C17 1_555 1_555
O1 Eu1 1_555 1_555
O2 Eu1 1_555 1_555
O3 Eu1 1_555 1_555
O4 Eu1 1_555 1_555
O5 Eu1 1_555 1_555
O6 Eu1A 1_555 1_555
C2A C4A 1_555 1_555
O2A Eu1A_3 1_555 1_555
C6A C8A 1_555 1_555
O4A Eu1A_4 1_555 1_555
C10A C12A 1_555 1_555
N4A C17A 1_555 1_555
N4A Eu1A 1_555 1_555
Eu1A O4A_2 1_555 1_555

#END
