
#######################################################################
#
#                 Cambridge Crystallographic Data Centre
#                                CCDC 
#
#######################################################################
#
# If this CIF has been generated from an entry in the Cambridge 
# Structural Database, then it will include bibliographic, chemical, 
# crystal, experimental, refinement or atomic coordinate data resulting 
# from the CCDC's data processing and validation procedures.
#
#######################################################################

data_CUWVAT
_chemical_formula_moiety         'C34 H18 Eu8 N17 O21'
_symmetry_cell_setting           triclinic
_symmetry_space_group_name_H-M   'P -1'
_symmetry_Int_Tables_number      2
_space_group_name_Hall           '-P 1'
loop_
_symmetry_equiv_pos_site_id
_symmetry_equiv_pos_as_xyz
1 x,y,z
2 -x,-y,-z
_cell_length_a                   10.3923(6)
_cell_length_b                   11.2942(8)
_cell_length_c                   12.3282(8)
_cell_angle_alpha                98.464(6)
_cell_angle_beta                 109.478(6)
_cell_angle_gamma                102.788(6)
_cell_volume                     1291.34
loop_
_atom_site_label
_atom_site_type_symbol
_atom_site_fract_x
_atom_site_fract_y
_atom_site_fract_z
Eu1 Eu 0.39329(3) 0.45384(3) 0.82555(3)
O1 O 0.1679(7) 0.2811(7) 0.7461(7)
O2 O 0.3099(6) 0.2792(5) 0.6507(5)
O3 O 0.6202(6) 0.4346(7) 0.8159(5)
O4 O 0.6507(5) 0.5170(5) 0.9984(5)
O5 O 0.4365(7) 0.2788(5) 0.9037(5)
O6 O 0.5202(9) 0.3249(6) 1.1012(6)
O7 O 0.1925(15) 0.5293(15) 0.7379(12)
C1 C 0.1953(9) 0.2307(8) 0.6648(8)
C2 C 0.0959(9) 0.1100(8) 0.5800(8)
C3 C 0.1269(12) 0.0516(12) 0.4916(11)
H1 H 0.2129 0.0862 0.4846
C4 C -0.0335(12) 0.0587(12) 0.5889(12)
C5 C 0.7011(9) 0.4815(8) 0.9223(8)
C6 C 0.8537(9) 0.4894(9) 0.9609(8)
C7 C 0.9060(9) 0.4207(12) 0.8905(9)
C8 C 0.9480(10) 0.5670(10) 1.0698(9)
H2 H 0.9132 0.6119 1.1173
C9 C 0.4807(12) 0.2519(8) 1.0006(8)
C10 C 0.4900(14) 0.1210(8) 0.9974(8)
C11 C 0.5277(18) 0.0822(9) 1.1028(9)
H3 H 0.5466 0.1385 1.1732
C12 C 0.4619(17) 0.0367(10) 0.8937(9)
C13 C 0.4365(19) 0.492(2) 0.5605(13)
C14 C 0.541(2) 0.664(2) 0.5783(19)
C15 C 0.152(3) 0.625(2) 0.746(2)
C16 C 0.069(3) 0.737(3) 0.624(3)
H4 H -0.0098 0.7530 0.5661
H5 H 0.1394 0.7294 0.5918
H6 H 0.1099 0.8058 0.6933
C17 C -0.129(2) 0.561(3) 0.633(3)
H7 H -0.1900 0.5803 0.5646
H8 H -0.1513 0.5895 0.7004
H9 H -0.1445 0.4722 0.6195
N1 N -0.093(9) 0.149(6) 0.636(8)
N2 N 0.442(3) 0.069(2) 0.7806(13)
N3 N 0.825(2) 0.341(3) 0.789(2)
N4 N 0.4295(14) 0.5408(11) 0.6649(11)
N5 N 0.5026(18) 0.6583(14) 0.6723(18)
N6 N 0.500(2) 0.5550(19) 0.497(2)
N7 N 0.661(3) 0.750(2) 0.570(2)
N8 N 0.018(2) 0.623(2) 0.657(2)
O1A O -0.1679(7) -0.2811(7) 0.2539(7)
O2A O -0.3099(6) -0.2792(5) 0.3493(5)
C1A C -0.1953(9) -0.2307(8) 0.3352(8)
C2A C -0.0959(9) -0.1100(8) 0.4200(8)
C3A C -0.1269(12) -0.0516(12) 0.5084(11)
H1A H -0.2129 -0.0862 0.5154
C4A C 0.0335(12) -0.0587(12) 0.4111(12)
N1A N 0.093(9) -0.149(6) 0.364(8)
O3A O 1.3798(6) 0.5654(7) 1.1841(5)
C5A C 1.2989(9) 0.5185(8) 1.0777(8)
C6A C 1.1463(9) 0.5106(9) 1.0391(8)
C7A C 1.0940(9) 0.5793(12) 1.1095(9)
C8A C 1.0520(10) 0.4330(10) 0.9302(9)
H2A H 1.0868 0.3881 0.8827
N3A N 1.175(2) 0.659(3) 1.211(2)
O4A O 1.3493(5) 0.4830(5) 1.0016(5)
O5A O 0.5635(7) -0.2788(5) 1.0963(5)
C9A C 0.5193(12) -0.2519(8) 0.9994(8)
C10A C 0.5100(14) -0.1210(8) 1.0026(8)
C11A C 0.4723(18) -0.0822(9) 0.8972(9)
H3A H 0.4534 -0.1385 0.8268
C12A C 0.5381(17) -0.0367(10) 1.1063(9)
N2A N 0.558(3) -0.069(2) 1.2194(13)
O6A O 0.4798(9) -0.3249(6) 0.8988(6)
Eu1A Eu -0.39329(3) -0.45384(3) 0.17445(3)
O7A O -0.1925(15) -0.5293(15) 0.2621(12)
C15A C -0.152(3) -0.625(2) 0.254(2)
C16A C -0.069(3) -0.737(3) 0.376(3)
H4A H 0.0098 -0.7530 0.4339
H5A H -0.1394 -0.7294 0.4082
H6A H -0.1099 -0.8058 0.3067
C17A C 0.129(2) -0.561(3) 0.367(3)
H7A H 0.1900 -0.5803 0.4354
H8A H 0.1513 -0.5895 0.2996
H9A H 0.1445 -0.4722 0.3805
N8A N -0.018(2) -0.623(2) 0.343(2)
Eu1_2 Eu 0.39329(3) -0.54616(3) 0.82555(3)
Eu1_3 Eu 1.39329(3) 0.45384(3) 0.82555(3)
Eu1A_2 Eu 0.60671(3) -0.45384(3) 1.17445(3)
Eu1A_3 Eu 0.60671(3) 0.54616(3) 1.17445(3)
Eu1A_4 Eu 1.60671(3) 0.54616(3) 1.17445(3)
O3A_2 O -0.6202(6) -0.4346(7) 0.1841(5)
O4_2 O -0.3493(5) -0.4830(5) -0.0016(5)
O4A_2 O -0.6507(5) -0.5170(5) 0.0016(5)
O4A_3 O 0.3493(5) 0.4830(5) 1.0016(5)
O5A_2 O -0.4365(7) -0.2788(5) 0.0963(5)
O6_2 O -0.4798(9) -0.6751(6) 0.1012(6)
O6A_2 O 0.4798(9) 0.6751(6) 0.8988(6)
N4A N -0.4295(14) -0.5408(11) 0.3351(11)
C13A C 0.5635(19) 0.508(2) 0.4395(13)
C14A C 0.459(2) 0.336(2) 0.4217(19)
N4A_2 N 0.5705(14) 0.4592(11) 0.3351(11)
N5A N 0.4974(18) 0.3417(14) 0.3277(18)
N6A N 0.500(2) 0.4450(19) 0.503(2)
N7A N 0.339(3) 0.250(2) 0.430(2)
Eu1A_5 Eu 0.60671(3) 0.54616(3) 0.17445(3)
loop_
_geom_bond_atom_site_label_1
_geom_bond_atom_site_label_2
_geom_bond_site_symmetry_1
_geom_bond_site_symmetry_2
Eu1 O1 1_555 1_555
O1 C1 1_555 1_555
O2 Eu1 1_555 1_555
O3 Eu1 1_555 1_555
O4 Eu1 1_555 1_555
O5 Eu1 1_555 1_555
O6 C9 1_555 1_555
O7 Eu1 1_555 1_555
C1 O2 1_555 1_555
C2 C1 1_555 1_555
C3 C2 1_555 1_555
H1 C3 1_555 1_555
C4 C2 1_555 1_555
C5 O3 1_555 1_555
C6 C5 1_555 1_555
C7 C6 1_555 1_555
C8 C6 1_555 1_555
H2 C8 1_555 1_555
C9 O5 1_555 1_555
C10 C9 1_555 1_555
C11 C10 1_555 1_555
H3 C11 1_555 1_555
C12 C10 1_555 1_555
C13 N4 1_555 1_555
C14 N5 1_555 1_555
C15 O7 1_555 1_555
C16 H4 1_555 1_555
H5 C16 1_555 1_555
H6 C16 1_555 1_555
C17 H7 1_555 1_555
H8 C17 1_555 1_555
H9 C17 1_555 1_555
N1 C4 1_555 1_555
N2 C12 1_555 1_555
N3 C7 1_555 1_555
N4 Eu1 1_555 1_555
N5 N4 1_555 1_555
N6 C13 1_555 1_555
N7 C14 1_555 1_555
N8 C15 1_555 1_555
O1A C1A 1_555 1_555
O2A C1A 1_555 1_555
C1A C2A 1_555 1_555
C2A C3A 1_555 1_555
C3A C4 1_555 1_555
H1A C3A 1_555 1_555
C4A C3 1_555 1_555
N1A C4A 1_555 1_555
O3A C5A 1_555 1_555
C5A C6A 1_555 1_555
C6A C7A 1_555 1_555
C7A C8 1_555 1_555
C8A C7 1_555 1_555
H2A C8A 1_555 1_555
N3A C7A 1_555 1_555
O4A C5A 1_555 1_555
O5A C9A 1_555 1_555
C9A C10A 1_555 1_555
C10A C11A 1_555 1_555
C11A C12 1_555 1_555
H3A C11A 1_555 1_555
C12A C11 1_555 1_555
N2A C12A 1_555 1_555
O6A C9A 1_555 1_555
Eu1A O1A 1_555 1_555
O7A Eu1A 1_555 1_555
C15A O7A 1_555 1_555
C16A H4A 1_555 1_555
H5A C16A 1_555 1_555
H6A C16A 1_555 1_555
C17A H7A 1_555 1_555
H8A C17A 1_555 1_555
H9A C17A 1_555 1_555
N8A C15A 1_555 1_555
Eu1_2 O6A 1_555 1_555
Eu1_3 O4A 1_555 1_555
Eu1A_2 O5A 1_555 1_555
Eu1A_3 O4 1_555 1_555
Eu1A_4 O3A 1_555 1_555
O3A_2 Eu1A 1_555 1_555
O4_2 Eu1A 1_555 1_555
O4A_2 Eu1A 1_555 1_555
O4A_3 Eu1 1_555 1_555
O5A_2 Eu1A 1_555 1_555
O6_2 Eu1A 1_555 1_555
O6A_2 Eu1 1_555 1_555
N4A Eu1A 1_555 1_555
C13A N4A_2 1_555 1_555
C14A N5A 1_555 1_555
N4A_2 N5A 1_555 1_555
N6A C13A 1_555 1_555
N7A C14A 1_555 1_555
Eu1A_5 N4A_2 1_555 1_555
O4 C5 1_555 1_555
O6 Eu1A_3 1_555 1_555
C14 N6 1_555 1_555
C16 N8 1_555 1_555
C17 N8 1_555 1_555
O2A Eu1A 1_555 1_555
C2A C4A 1_555 1_555
C6A C8A 1_555 1_555
O4A Eu1A_4 1_555 1_555
C10A C12A 1_555 1_555
C16A N8A 1_555 1_555
C17A N8A 1_555 1_555
Eu1A_3 O4A_3 1_555 1_555
C14A N6A 1_555 1_555

#END
