
#######################################################################
#
#                 Cambridge Crystallographic Data Centre
#                                CCDC 
#
#######################################################################
#
# If this CIF has been generated from an entry in the Cambridge 
# Structural Database, then it will include bibliographic, chemical, 
# crystal, experimental, refinement or atomic coordinate data resulting 
# from the CCDC's data processing and validation procedures.
#
#######################################################################

data_CUWVUN
_chemical_formula_moiety         'C32 H10 Eu7 N10 O21'
_symmetry_cell_setting           triclinic
_symmetry_space_group_name_H-M   'P -1'
_symmetry_Int_Tables_number      2
_space_group_name_Hall           '-P 1'
loop_
_symmetry_equiv_pos_site_id
_symmetry_equiv_pos_as_xyz
1 x,y,z
2 -x,-y,-z
_cell_length_a                   10.3980(9)
_cell_length_b                   11.2742(8)
_cell_length_c                   11.4677(12)
_cell_angle_alpha                95.510(7)
_cell_angle_beta                 109.490(9)
_cell_angle_gamma                104.801(7)
_cell_volume                     1200.79
loop_
_atom_site_label
_atom_site_type_symbol
_atom_site_fract_x
_atom_site_fract_y
_atom_site_fract_z
Eu1 Eu 0.89639(3) 0.46125(3) 0.81438(3)
O1 O 0.8044(7) 0.2908(5) 0.6278(5)
O2 O 0.6626(6) 0.2978(6) 0.7309(6)
O3 O 1.1244(6) 0.4610(6) 0.8021(5)
O4 O 1.1538(5) 0.5202(5) 0.9999(5)
O5 O 0.9756(8) 0.6781(5) 0.8962(6)
O6 O 1.0661(7) 0.7182(5) 1.1054(5)
O7 O 0.6954(11) 0.5519(10) 0.6967(9)
N1 N 0.407(3) 0.145(2) 0.654(2)
N2 N 1.323(4) 0.408(3) 0.7428(13)
N3 N 1.040(3) 0.907(3) 1.229(3)
N4 N 0.9366(10) 0.5717(7) 0.6433(7)
N5 N 1.0189(15) 0.6838(13) 0.5138(12)
C1 C 0.6900(8) 0.2416(7) 0.6457(7)
C2 C 0.5908(10) 0.1164(8) 0.5705(8)
C3 C 0.6315(12) 0.0446(10) 0.4934(11)
H1 H 0.7222 0.0744 0.4905
C4 C 0.4602(12) 0.0719(10) 0.5805(11)
C5 C 1.2042(8) 0.4891(7) 0.9175(8)
C6 C 1.3574(8) 0.4962(8) 0.9591(7)
C7 C 1.4107(11) 0.4536(16) 0.8756(9)
C8 C 1.4434(11) 0.5407(14) 1.0798(10)
H2 H 1.4060 0.5689 1.1365
C9 C 1.0188(11) 0.7474(7) 1.0027(8)
C10 C 1.0078(10) 0.8808(7) 1.0015(7)
C11 C 0.9774(18) 0.9244(9) 0.8933(9)
H3 H 0.9644 0.8731 0.8191
C12 C 1.0349(16) 0.9579(9) 1.1104(9)
C13 C 0.841(2) 0.6303(18) 0.5799(17)
C14 C 0.8817(18) 0.6993(16) 0.4945(15)
H4 H 0.8324 0.7429 0.4404
C15 C 1.0492(18) 0.6094(15) 0.6008(15)
H5 H 1.1330 0.5871 0.6278
C16 C 0.7139(19) 0.6130(16) 0.6057(16)
O1A O 0.1956(7) -0.2908(5) 0.3722(5)
O2A O 0.3374(6) -0.2978(6) 0.2691(6)
N1A N 0.593(3) -0.145(2) 0.346(2)
C1A C 0.3100(8) -0.2416(7) 0.3543(7)
C2A C 0.4092(10) -0.1164(8) 0.4295(8)
C3A C 0.3685(12) -0.0446(10) 0.5066(11)
H1A H 0.2778 -0.0744 0.5095
C4A C 0.5398(12) -0.0719(10) 0.4195(11)
O3A O 1.8756(6) 0.5390(6) 1.1979(5)
O4A O 1.8462(5) 0.4798(5) 1.0001(5)
N2A N 1.677(4) 0.592(3) 1.2572(13)
C5A C 1.7958(8) 0.5109(7) 1.0825(8)
C6A C 1.6426(8) 0.5038(8) 1.0409(7)
C7A C 1.5893(11) 0.5464(16) 1.1244(9)
C8A C 1.5566(11) 0.4593(14) 0.9202(10)
H2A H 1.5940 0.4311 0.8635
O5A O 1.0244(8) 1.3219(5) 1.1038(6)
N3A N 0.960(3) 1.093(3) 0.771(3)
C9A C 0.9812(11) 1.2526(7) 0.9973(8)
C10A C 0.9922(10) 1.1192(7) 0.9985(7)
C11A C 1.0226(18) 1.0756(9) 1.1067(9)
H3A H 1.0356 1.1269 1.1809
C12A C 0.9651(16) 1.0421(9) 0.8896(9)
O6A O 0.9339(7) 1.2818(5) 0.8946(5)
Eu1A Eu 0.10361(3) -0.46125(3) 0.18562(3)
O7A O 0.3046(11) -0.5519(10) 0.3033(9)
N4A N 0.0634(10) -0.5717(7) 0.3567(7)
N5A N -0.0189(15) -0.6838(13) 0.4862(12)
C13A C 0.159(2) -0.6303(18) 0.4201(17)
C14A C 0.1183(18) -0.6993(16) 0.5055(15)
H4A H 0.1676 -0.7429 0.5596
C15A C -0.0492(18) -0.6094(15) 0.3992(15)
H5A H -0.1330 -0.5871 0.3722
C16A C 0.2861(19) -0.6130(16) 0.3943(16)
Eu1_2 Eu 0.89639(3) 1.46125(3) 0.81438(3)
Eu1_3 Eu 1.89639(3) 0.46125(3) 0.81438(3)
Eu1A_2 Eu 1.10361(3) 0.53875(3) 1.18562(3)
Eu1A_3 Eu 1.10361(3) 1.53875(3) 1.18562(3)
Eu1A_4 Eu 2.10361(3) 0.53875(3) 1.18562(3)
O3A_2 O -0.1244(6) -0.4610(6) 0.1979(5)
O4_2 O 0.1538(5) -0.4798(5) -0.0001(5)
O4A_2 O -0.1538(5) -0.5202(5) 0.0001(5)
O4A_3 O 0.8462(5) 0.4798(5) 1.0001(5)
O5A_2 O 0.0244(8) -0.6781(5) 0.1038(6)
O6_2 O 0.0661(7) -0.2818(5) 0.1054(5)
O6A_2 O 0.9339(7) 0.2818(5) 0.8946(5)
loop_
_geom_bond_atom_site_label_1
_geom_bond_atom_site_label_2
_geom_bond_site_symmetry_1
_geom_bond_site_symmetry_2
Eu1 O1 1_555 1_555
O1 C1 1_555 1_555
O2 Eu1 1_555 1_555
O3 Eu1 1_555 1_555
O4 Eu1 1_555 1_555
O5 Eu1 1_555 1_555
O6 C9 1_555 1_555
O7 Eu1 1_555 1_555
N1 C4 1_555 1_555
N2 C7 1_555 1_555
N3 C12 1_555 1_555
N4 Eu1 1_555 1_555
N5 C14 1_555 1_555
C1 O2 1_555 1_555
C2 C1 1_555 1_555
C3 C2 1_555 1_555
H1 C3 1_555 1_555
C4 C2 1_555 1_555
C5 O3 1_555 1_555
C6 C5 1_555 1_555
C7 C6 1_555 1_555
C8 C6 1_555 1_555
H2 C8 1_555 1_555
C9 O5 1_555 1_555
C10 C9 1_555 1_555
C11 C10 1_555 1_555
H3 C11 1_555 1_555
C12 C10 1_555 1_555
C13 N4 1_555 1_555
C14 C13 1_555 1_555
H4 C14 1_555 1_555
C15 N4 1_555 1_555
H5 C15 1_555 1_555
C16 O7 1_555 1_555
O1A C1A 1_555 1_555
O2A C1A 1_555 1_555
N1A C4A 1_555 1_555
C1A C2A 1_555 1_555
C2A C3A 1_555 1_555
C3A C4 1_555 1_555
H1A C3A 1_555 1_555
C4A C3 1_555 1_555
O3A C5A 1_555 1_555
O4A C5A 1_555 1_555
N2A C7A 1_555 1_555
C5A C6A 1_555 1_555
C6A C7A 1_555 1_555
C7A C8 1_555 1_555
C8A C7 1_555 1_555
H2A C8A 1_555 1_555
O5A C9A 1_555 1_555
N3A C12A 1_555 1_555
C9A C10A 1_555 1_555
C10A C11A 1_555 1_555
C11A C12 1_555 1_555
H3A C11A 1_555 1_555
C12A C11 1_555 1_555
O6A C9A 1_555 1_555
Eu1A O1A 1_555 1_555
O7A Eu1A 1_555 1_555
N4A Eu1A 1_555 1_555
N5A C14A 1_555 1_555
C13A N4A 1_555 1_555
C14A C13A 1_555 1_555
H4A C14A 1_555 1_555
C15A N4A 1_555 1_555
H5A C15A 1_555 1_555
C16A O7A 1_555 1_555
Eu1_2 O6A 1_555 1_555
Eu1_3 O4A 1_555 1_555
Eu1A_2 O4 1_555 1_555
Eu1A_3 O5A 1_555 1_555
Eu1A_4 O3A 1_555 1_555
O3A_2 Eu1A 1_555 1_555
O4_2 Eu1A 1_555 1_555
O4A_2 Eu1A 1_555 1_555
O4A_3 Eu1 1_555 1_555
O5A_2 Eu1A 1_555 1_555
O6_2 Eu1A 1_555 1_555
O6A_2 Eu1 1_555 1_555
O4 C5 1_555 1_555
O6 Eu1A_2 1_555 1_555
N5 C15 1_555 1_555
C13 C16 1_555 1_555
O2A Eu1A 1_555 1_555
C2A C4A 1_555 1_555
O4A Eu1A_4 1_555 1_555
C6A C8A 1_555 1_555
C10A C12A 1_555 1_555
N5A C15A 1_555 1_555
C13A C16A 1_555 1_555
Eu1A_2 O4A_3 1_555 1_555

#END
