
#######################################################################
#
#                 Cambridge Crystallographic Data Centre
#                                CCDC 
#
#######################################################################
#
# If this CIF has been generated from an entry in the Cambridge 
# Structural Database, then it will include bibliographic, chemical, 
# crystal, experimental, refinement or atomic coordinate data resulting 
# from the CCDC's data processing and validation procedures.
#
#######################################################################

data_CUWWAU
_chemical_formula_moiety         'C34 H14 Eu7 N18 O19'
_symmetry_cell_setting           triclinic
_symmetry_space_group_name_H-M   'P -1'
_symmetry_Int_Tables_number      2
_space_group_name_Hall           '-P 1'
loop_
_symmetry_equiv_pos_site_id
_symmetry_equiv_pos_as_xyz
1 x,y,z
2 -x,-y,-z
_cell_length_a                   10.4200(8)
_cell_length_b                   11.1657(8)
_cell_length_c                   11.9254(8)
_cell_angle_alpha                90.062(6)
_cell_angle_beta                 110.667(7)
_cell_angle_gamma                109.830(7)
_cell_volume                     1209.66
loop_
_atom_site_label
_atom_site_type_symbol
_atom_site_fract_x
_atom_site_fract_y
_atom_site_fract_z
Eu1 Eu 0.61110(4) 0.52838(4) 0.18320(4)
O1 O 0.8525(9) 0.7074(8) 0.2765(8)
O2 O 0.6916(9) 0.6957(7) 0.3581(7)
O3 O 0.3401(7) 0.4758(6) -0.0052(6)
O4 O 0.3771(8) 0.5254(8) 0.1863(6)
O5 O 0.5843(9) 0.7173(6) 0.1007(7)
O6 O 0.5023(9) 0.6925(6) -0.0981(6)
C1 C 0.8149(13) 0.7561(10) 0.3502(11)
C2 C 0.9129(14) 0.8816(10) 0.4251(10)
C3 C 0.8548(15) 0.9457(12) 0.4811(15)
H1 H 0.7556 0.9103 0.4691
C4 C 1.0565(16) 0.9357(14) 0.4437(15)
C5 C 0.2938(11) 0.5039(10) 0.0727(10)
C6 C 0.1447(11) 0.5013(9) 0.0377(9)
C7 C 0.1077(12) 0.5790(12) 0.1029(10)
C8 C 0.0356(12) 0.4247(12) -0.0646(11)
H2 H 0.0584 0.3732 -0.1101
C9 C 0.5374(12) 0.7535(8) 0.0002(9)
C10 C 0.5193(12) 0.8813(8) 0.0008(9)
C11 C 0.5002(15) 0.9418(10) -0.1013(10)
H3 H 0.5017 0.9035 -0.1699
C12 C 0.5215(15) 0.9408(9) 0.1048(10)
C13 C 0.473(2) 0.4055(19) 0.4059(17)
H4 H 0.4172 0.4574 0.3835
C14 C 0.462(2) 0.3275(18) 0.4912(17)
H5 H 0.3983 0.3115 0.5327
C15 C 0.630(2) 0.3238(19) 0.4198(17)
H6 H 0.7044 0.3025 0.4102
C16 C 0.831(2) 0.345(2) 0.215(2)
H7 H 0.7601 0.2966 0.1418
C17 C 1.021(2) 0.409(3) 0.357(2)
N1 N 1.123(5) 0.861(4) 0.400(4)
N2 N 0.224(2) 0.6757(19) 0.1997(17)
N3 N 0.526(4) 0.891(3) 0.2177(18)
N4 N 0.5697(15) 0.4041(12) 0.3549(12)
N5 N 0.5668(19) 0.2786(17) 0.5005(16)
N6 N 0.802(2) 0.4402(15) 0.2588(14)
N7 N 0.942(2) 0.4869(19) 0.340(2)
N8 N 0.951(2) 0.3122(19) 0.264(2)
N9 N 1.174(2) 0.424(2) 0.415(2)
O1A O 1.1475(9) 1.2926(8) 0.7235(8)
O2A O 1.3084(9) 1.3043(7) 0.6419(7)
C1A C 1.1851(13) 1.2439(10) 0.6498(11)
C2A C 1.0871(14) 1.1184(10) 0.5749(10)
C3A C 1.1452(15) 1.0543(12) 0.5189(15)
H1A H 1.2444 1.0897 0.5309
C4A C 0.9435(16) 1.0643(14) 0.5563(15)
N1A N 0.877(5) 1.139(4) 0.600(4)
O4A O -0.3771(8) 0.4746(8) -0.1863(6)
C5A C -0.2938(11) 0.4961(10) -0.0727(10)
C6A C -0.1447(11) 0.4987(9) -0.0377(9)
C7A C -0.1077(12) 0.4210(12) -0.1029(10)
C8A C -0.0356(12) 0.5753(12) 0.0646(11)
H2A H -0.0584 0.6268 0.1101
N2A N -0.224(2) 0.3243(19) -0.1997(17)
O3A O -0.3401(7) 0.5242(6) 0.0052(6)
O5A O 0.4157(9) 1.2827(6) -0.1007(7)
C9A C 0.4626(12) 1.2465(8) -0.0002(9)
C10A C 0.4807(12) 1.1187(8) -0.0008(9)
C11A C 0.4998(15) 1.0582(10) 0.1013(10)
H3A H 0.4983 1.0965 0.1699
C12A C 0.4785(15) 1.0592(9) -0.1048(10)
N3A N 0.474(4) 1.109(3) -0.2177(18)
O6A O 0.4977(9) 1.3075(6) 0.0981(6)
Eu1A Eu -0.61110(4) 0.47162(4) -0.18320(4)
C13A C -0.473(2) 0.5945(19) -0.4059(17)
H4A H -0.4172 0.5426 -0.3835
C14A C -0.462(2) 0.6725(18) -0.4912(17)
H5A H -0.3983 0.6885 -0.5327
C15A C -0.630(2) 0.6762(19) -0.4198(17)
H6A H -0.7044 0.6975 -0.4102
C16A C -0.831(2) 0.655(2) -0.215(2)
H7A H -0.7601 0.7034 -0.1418
C17A C -1.021(2) 0.591(3) -0.357(2)
N4A N -0.5697(15) 0.5959(12) -0.3549(12)
N5A N -0.5668(19) 0.7214(17) -0.5005(16)
N6A N -0.802(2) 0.5598(15) -0.2588(14)
N7A N -0.942(2) 0.5131(19) -0.340(2)
N8A N -0.951(2) 0.6878(19) -0.264(2)
N9A N -1.174(2) 0.576(2) -0.415(2)
Eu1_2 Eu -0.38890(4) 0.52838(4) 0.18320(4)
Eu1_3 Eu 0.61110(4) 1.52838(4) 0.18320(4)
Eu1A_2 Eu 0.38890(4) 0.47162(4) -0.18320(4)
Eu1A_3 Eu 0.38890(4) 1.47162(4) -0.18320(4)
Eu1A_4 Eu 1.38890(4) 1.47162(4) 0.81680(4)
O1A_2 O -0.8525(9) 0.2926(8) -0.2765(8)
O2A_2 O -0.6916(9) 0.3043(7) -0.3581(7)
O3_2 O -0.6599(7) 0.4758(6) -0.0052(6)
O3A_2 O 0.6599(7) 0.5242(6) 0.0052(6)
O5A_2 O -0.5843(9) 0.2827(6) -0.1007(7)
O6_2 O -0.4977(9) 0.6925(6) -0.0981(6)
O6A_2 O 0.4977(9) 0.3075(6) 0.0981(6)
loop_
_geom_bond_atom_site_label_1
_geom_bond_atom_site_label_2
_geom_bond_site_symmetry_1
_geom_bond_site_symmetry_2
Eu1 O1 1_555 1_555
O1 C1 1_555 1_555
O2 Eu1 1_555 1_555
O3 Eu1 1_555 1_555
O4 Eu1 1_555 1_555
O5 Eu1 1_555 1_555
O6 C9 1_555 1_555
C1 O2 1_555 1_555
C2 C1 1_555 1_555
C3 C2 1_555 1_555
H1 C3 1_555 1_555
C4 C2 1_555 1_555
C5 O3 1_555 1_555
C6 C5 1_555 1_555
C7 C6 1_555 1_555
C8 C6 1_555 1_555
H2 C8 1_555 1_555
C9 O5 1_555 1_555
C10 C9 1_555 1_555
C11 C10 1_555 1_555
H3 C11 1_555 1_555
C12 C10 1_555 1_555
C13 H4 1_555 1_555
C14 C13 1_555 1_555
H5 C14 1_555 1_555
C15 H6 1_555 1_555
C16 H7 1_555 1_555
C17 N7 1_555 1_555
N1 C4 1_555 1_555
N2 C7 1_555 1_555
N3 C12 1_555 1_555
N4 Eu1 1_555 1_555
N5 C14 1_555 1_555
N6 Eu1 1_555 1_555
N7 N6 1_555 1_555
N8 C16 1_555 1_555
N9 C17 1_555 1_555
O1A C1A 1_555 1_555
O2A C1A 1_555 1_555
C1A C2A 1_555 1_555
C2A C3A 1_555 1_555
C3A C4 1_555 1_555
H1A C3A 1_555 1_555
C4A C3 1_555 1_555
N1A C4A 1_555 1_555
O4A C5A 1_555 1_555
C5A C6A 1_555 1_555
C6A C7A 1_555 1_555
C7A C8 1_555 1_555
C8A C7 1_555 1_555
H2A C8A 1_555 1_555
N2A C7A 1_555 1_555
O3A C5A 1_555 1_555
O5A C9A 1_555 1_555
C9A C10A 1_555 1_555
C10A C11A 1_555 1_555
C11A C12 1_555 1_555
H3A C11A 1_555 1_555
C12A C11 1_555 1_555
N3A C12A 1_555 1_555
O6A C9A 1_555 1_555
Eu1A O4A 1_555 1_555
C13A H4A 1_555 1_555
C14A C13A 1_555 1_555
H5A C14A 1_555 1_555
C15A H6A 1_555 1_555
C16A H7A 1_555 1_555
C17A N7A 1_555 1_555
N4A Eu1A 1_555 1_555
N5A C14A 1_555 1_555
N6A Eu1A 1_555 1_555
N7A N6A 1_555 1_555
N8A C16A 1_555 1_555
N9A C17A 1_555 1_555
Eu1_2 O3A 1_555 1_555
Eu1_3 O6A 1_555 1_555
Eu1A_2 O3 1_555 1_555
Eu1A_3 O5A 1_555 1_555
Eu1A_4 O1A 1_555 1_555
O1A_2 Eu1A 1_555 1_555
O2A_2 Eu1A 1_555 1_555
O3_2 Eu1A 1_555 1_555
O3A_2 Eu1 1_555 1_555
O5A_2 Eu1A 1_555 1_555
O6_2 Eu1A 1_555 1_555
O6A_2 Eu1 1_555 1_555
O4 C5 1_555 1_555
O6 Eu1A_2 1_555 1_555
C13 N4 1_555 1_555
C15 N4 1_555 1_555
C15 N5 1_555 1_555
C16 N6 1_555 1_555
C17 N8 1_555 1_555
O2A Eu1A_4 1_555 1_555
C2A C4A 1_555 1_555
C6A C8A 1_555 1_555
O3A Eu1A 1_555 1_555
C10A C12A 1_555 1_555
C13A N4A 1_555 1_555
C15A N4A 1_555 1_555
C15A N5A 1_555 1_555
C16A N6A 1_555 1_555
C17A N8A 1_555 1_555
Eu1_2 O3_2 1_555 1_555
Eu1A_2 O3A_2 1_555 1_555

#END
