
#######################################################################
#
#                 Cambridge Crystallographic Data Centre
#                                CCDC 
#
#######################################################################
#
# If this CIF has been generated from an entry in the Cambridge 
# Structural Database, then it will include bibliographic, chemical, 
# crystal, experimental, refinement or atomic coordinate data resulting 
# from the CCDC's data processing and validation procedures.
#
#######################################################################

data_CUWWIC
_chemical_formula_moiety         'C34 H14 Eu7 N10 O20'
_symmetry_cell_setting           triclinic
_symmetry_space_group_name_H-M   'P -1'
_symmetry_Int_Tables_number      2
_space_group_name_Hall           '-P 1'
loop_
_symmetry_equiv_pos_site_id
_symmetry_equiv_pos_as_xyz
1 x,y,z
2 -x,-y,-z
_cell_length_a                   10.4457(7)
_cell_length_b                   11.3042(9)
_cell_length_c                   13.9642(11)
_cell_angle_alpha                110.218(7)
_cell_angle_beta                 107.559(7)
_cell_angle_gamma                91.119(6)
_cell_volume                     1461.02
loop_
_atom_site_label
_atom_site_type_symbol
_atom_site_fract_x
_atom_site_fract_y
_atom_site_fract_z
Eu1 Eu 0.54385(4) 0.06317(3) 0.65833(3)
O1 O 0.4183(7) 0.2085(7) 0.7572(5)
O2 O 0.6387(7) 0.2580(6) 0.8186(5)
O3 O 0.7768(7) 0.0845(7) 0.6662(5)
O4 O 0.6477(7) 0.0055(6) 0.4954(5)
O5 O 0.5354(8) 0.2312(6) 0.5922(5)
O6 O 0.3720(19) -0.0638(19) 0.7043(15)
N1 N 0.658(2) 0.000(2) 0.8196(15)
O7 O 0.5579(8) -0.1576(6) 0.5878(5)
C1 C 0.5233(10) 0.2809(8) 0.8243(6)
C2 C 0.7656(10) 0.0388(9) 0.5690(8)
C3 C 0.4919(10) 0.2454(9) 0.5055(8)
C4 C 0.420(2) -0.100(3) 0.781(2)
C5 C 0.760(2) 0.027(3) 0.9132(19)
C6 C 0.568(2) -0.063(3) 0.843(2)
C7 C 0.5115(10) 0.3964(8) 0.9157(6)
C8 C 0.8852(10) 0.0198(9) 0.5347(7)
C9 C 0.4955(10) 0.3770(9) 0.5033(7)
H1 H 0.8394 0.0841 0.9414
N2 N 0.718(2) -0.051(2) 0.9557(19)
C10 C 0.585(3) -0.090(3) 0.934(2)
C11 C 0.3850(11) 0.4302(11) 0.9160(8)
C12 C 0.6222(11) 0.4651(10) 0.9978(8)
C13 C 1.0171(10) 0.0682(12) 0.6075(8)
C14 C 0.8734(10) -0.0522(11) 0.4261(8)
C15 C 0.5488(12) 0.4867(10) 0.6003(8)
C16 C 0.4497(12) 0.3950(10) 0.4058(8)
C17 C 0.529(3) -0.188(3) 0.965(2)
H2 H 0.3069 0.3840 0.8601
N3 N 0.750(4) 0.454(4) 0.997(3)
N4 N 1.039(3) 0.134(3) 0.7154(19)
H3 H 0.7879 -0.0895 0.3765
N5 N 0.612(2) 0.476(2) 0.7019(16)
H4 H 0.4168 0.3240 0.3421
H5 H 0.5776 -0.1737 1.0394
H6 H 0.5394 -0.2715 0.9203
H7 H 0.4348 -0.1834 0.9557
O4A O 0.3523(7) -0.0055(6) 0.5046(5)
Eu1A Eu 0.45615(4) -0.06317(3) 0.34167(3)
O7A O 0.4421(8) 0.1576(6) 0.4122(5)
O6A O 0.6280(19) 0.0638(19) 0.2957(15)
N1A N 0.342(2) 0.000(2) 0.1804(15)
O1A O 0.5817(7) -0.2085(7) 0.2428(5)
O2A O 0.3613(7) -0.2580(6) 0.1814(5)
O3A O 0.2232(7) -0.0845(7) 0.3338(5)
O5A O 0.4646(8) -0.2312(6) 0.4078(5)
C4A C 0.580(2) 0.100(3) 0.219(2)
C5A C 0.240(2) -0.027(3) 0.0868(19)
C6A C 0.432(2) 0.063(3) 0.157(2)
C12A C 0.3778(11) 0.5349(10) 1.0022(8)
C11A C 0.6150(11) 0.5698(11) 1.0840(8)
C14A C 1.1266(10) 0.0522(11) 0.5739(8)
C13A C 0.9829(10) -0.0682(12) 0.3925(8)
H1A H 0.1606 -0.0841 0.0586
N2A N 0.282(2) 0.051(2) 0.0443(19)
C10A C 0.415(3) 0.090(3) 0.066(2)
C16A C 0.5503(12) 0.6050(10) 0.5942(8)
C15A C 0.4512(12) 0.5133(10) 0.3997(8)
C7A C 0.4885(10) 0.6036(8) 1.0843(6)
N3A N 0.250(4) 0.546(4) 1.003(3)
H2A H 0.6931 0.6160 1.1399
C8A C 1.1148(10) -0.0198(9) 0.4653(7)
H3A H 1.2121 0.0895 0.6235
N4A N 0.961(3) -0.134(3) 0.2846(19)
C17A C 0.471(3) 0.188(3) 0.035(2)
C9A C 0.5045(10) 0.6230(9) 0.4967(7)
H4A H 0.5832 0.6760 0.6579
N5A N 0.388(2) 0.524(2) 0.2981(16)
C1A C 0.4767(10) 0.7191(8) 1.1757(6)
C2A C 1.2344(10) -0.0388(9) 0.4310(8)
H5A H 0.4224 0.1737 -0.0394
H6A H 0.4606 0.2715 0.0797
H7A H 0.5652 0.1834 0.0443
C3A C 0.5081(10) 0.7546(9) 0.4945(8)
O1A_2 O 0.5817(7) 0.7915(7) 1.2428(5)
O2A_2 O 0.3613(7) 0.7420(6) 1.1814(5)
O3A_2 O 1.2232(7) -0.0845(7) 0.3338(5)
O4A_2 O 1.3523(7) -0.0055(6) 0.5046(5)
O5A_2 O 0.4646(8) 0.7688(6) 0.4078(5)
O7_2 O 0.5579(8) 0.8424(6) 0.5878(5)
Eu1A_2 Eu 0.45615(4) 0.93683(3) 1.34167(3)
Eu1A_3 Eu 1.45615(4) -0.06317(3) 0.34167(3)
Eu1_2 Eu 1.54385(4) 0.06317(3) 0.65833(3)
Eu1A_4 Eu 0.45615(4) 0.93683(3) 0.34167(3)
Eu1_3 Eu 0.54385(4) 1.06317(3) 0.65833(3)
loop_
_geom_bond_atom_site_label_1
_geom_bond_atom_site_label_2
_geom_bond_site_symmetry_1
_geom_bond_site_symmetry_2
Eu1 O1 1_555 1_555
O1 C1 1_555 1_555
O2 Eu1 1_555 1_555
O3 Eu1 1_555 1_555
O4 Eu1 1_555 1_555
O5 Eu1 1_555 1_555
O6 Eu1 1_555 1_555
N1 Eu1 1_555 1_555
O7 Eu1 1_555 1_555
C1 O2 1_555 1_555
C2 O3 1_555 1_555
C3 O5 1_555 1_555
C4 O6 1_555 1_555
C5 N1 1_555 1_555
C6 N1 1_555 1_555
C7 C1 1_555 1_555
C8 C2 1_555 1_555
C9 C3 1_555 1_555
H1 C5 1_555 1_555
N2 C5 1_555 1_555
C10 C6 1_555 1_555
C11 C7 1_555 1_555
C12 C7 1_555 1_555
C13 C8 1_555 1_555
C14 C8 1_555 1_555
C15 C9 1_555 1_555
C16 C9 1_555 1_555
C17 C10 1_555 1_555
H2 C11 1_555 1_555
N3 C12 1_555 1_555
N4 C13 1_555 1_555
H3 C14 1_555 1_555
N5 C15 1_555 1_555
H4 C16 1_555 1_555
H5 C17 1_555 1_555
H6 C17 1_555 1_555
H7 C17 1_555 1_555
O4A Eu1 1_555 1_555
Eu1A O4 1_555 1_555
O7A C3 1_555 1_555
O6A Eu1A 1_555 1_555
N1A Eu1A 1_555 1_555
O1A Eu1A 1_555 1_555
O2A Eu1A 1_555 1_555
O3A Eu1A 1_555 1_555
O5A Eu1A 1_555 1_555
C4A O6A 1_555 1_555
C5A N1A 1_555 1_555
C6A N1A 1_555 1_555
C12A C11 1_555 1_555
C11A C12 1_555 1_555
C14A C13 1_555 1_555
C13A C14 1_555 1_555
H1A C5A 1_555 1_555
N2A C5A 1_555 1_555
C10A C6A 1_555 1_555
C16A C15 1_555 1_555
C15A C16 1_555 1_555
C7A C12A 1_555 1_555
N3A C12A 1_555 1_555
H2A C11A 1_555 1_555
C8A C14A 1_555 1_555
H3A C14A 1_555 1_555
N4A C13A 1_555 1_555
C17A C10A 1_555 1_555
C9A C16A 1_555 1_555
H4A C16A 1_555 1_555
N5A C15A 1_555 1_555
C1A C7A 1_555 1_555
C2A C8A 1_555 1_555
H5A C17A 1_555 1_555
H6A C17A 1_555 1_555
H7A C17A 1_555 1_555
C3A C9A 1_555 1_555
O1A_2 C1A 1_555 1_555
O2A_2 C1A 1_555 1_555
O3A_2 C2A 1_555 1_555
O4A_2 C2A 1_555 1_555
O5A_2 C3A 1_555 1_555
O7_2 C3A 1_555 1_555
Eu1A_2 O1A_2 1_555 1_555
Eu1A_3 O3A_2 1_555 1_555
Eu1_2 O4A_2 1_555 1_555
Eu1A_4 O5A_2 1_555 1_555
Eu1_3 O7_2 1_555 1_555
O4 C2 1_555 1_555
C4 C6 1_555 1_555
N2 C10 1_555 1_555
O4A Eu1A 1_555 1_555
Eu1A O7A 1_555 1_555
C4A C6A 1_555 1_555
C11A C7A 1_555 1_555
C13A C8A 1_555 1_555
N2A C10A 1_555 1_555
C15A C9A 1_555 1_555
O2A_2 Eu1A_2 1_555 1_555
O4A_2 Eu1A_3 1_555 1_555

#END
