
#######################################################################
#
#                 Cambridge Crystallographic Data Centre
#                                CCDC 
#
#######################################################################
#
# If this CIF has been generated from an entry in the Cambridge 
# Structural Database, then it will include bibliographic, chemical, 
# crystal, experimental, refinement or atomic coordinate data resulting 
# from the CCDC's data processing and validation procedures.
#
#######################################################################

data_CUWXID
_chemical_formula_moiety         '(C25 H24 Eu1 N3 O8)n'
_symmetry_cell_setting           monoclinic
_symmetry_space_group_name_H-M   'C 2/c'
_symmetry_Int_Tables_number      15
_space_group_name_Hall           '-C 2yc'
loop_
_symmetry_equiv_pos_site_id
_symmetry_equiv_pos_as_xyz
1 x,y,z
2 -x,y,1/2-z
3 1/2+x,1/2+y,z
4 1/2-x,1/2+y,1/2-z
5 -x,-y,-z
6 x,-y,1/2+z
7 1/2-x,1/2-y,-z
8 1/2+x,1/2-y,1/2+z
_cell_length_a                   28.735(2)
_cell_length_b                   14.2112(9)
_cell_length_c                   14.3322(8)
_cell_angle_alpha                90
_cell_angle_beta                 95.126(5)
_cell_angle_gamma                90
_cell_volume                     5829.27
loop_
_atom_site_label
_atom_site_type_symbol
_atom_site_fract_x
_atom_site_fract_y
_atom_site_fract_z
_atom_site_U_iso_or_equiv
_atom_site_thermal_displace_type
Eu1 Eu 0.314776(14) 0.19578(3) 0.52389(3) 0.0278 Uani
C1 C 0.4024(3) 0.2535(7) 0.4698(8) 0.0434 Uani
C2 C 0.4461(4) 0.2866(8) 0.4314(8) 0.0509 Uani
C3 C 0.4734(5) 0.2235(10) 0.3903(13) 0.0881 Uani
H1 H 0.4634 0.1617 0.3808 0.1060 Uiso
C4 C 0.5164(5) 0.2520(11) 0.3625(13) 0.0946 Uani
H2 H 0.5363 0.2073 0.3405 0.1130 Uiso
C5 C 0.5297(4) 0.3427(8) 0.3668(9) 0.0550 Uani
C6 C 0.5023(4) 0.4064(8) 0.4024(8) 0.0524 Uani
H3 H 0.5113 0.4692 0.4046 0.0630 Uiso
C7 C 0.4595(4) 0.3800(8) 0.4371(8) 0.0550 Uani
H4 H 0.4408 0.4246 0.4631 0.0660 Uiso
C8 C 0.5765(4) 0.3709(9) 0.3340(9) 0.0604 Uani
H5 H 0.594(4) 0.316(6) 0.354(10) 0.0720 Uiso
C9 C 0.7439(3) 0.6029(6) 0.3922(6) 0.0323 Uani
C10 C 0.7124(3) 0.5388(6) 0.3338(6) 0.0340 Uani
C11 C 0.6655(3) 0.5303(7) 0.3495(7) 0.0387 Uani
H6 H 0.6527 0.5715 0.3907 0.0470 Uiso
C12 C 0.6377(3) 0.4624(6) 0.3055(7) 0.0371 Uani
C13 C 0.6558(3) 0.4080(7) 0.2360(7) 0.0413 Uani
H7 H 0.6368 0.3646 0.2024 0.0500 Uiso
C14 C 0.7023(3) 0.4183(6) 0.2166(6) 0.0340 Uani
C15 C 0.7305(3) 0.4829(6) 0.2667(6) 0.0343 Uani
H8 H 0.7617 0.4888 0.2553 0.0410 Uiso
C16 C 0.7219(3) 0.3550(7) 0.1454(7) 0.0397 Uani
C17 C 0.3442(12) 0.007(2) 0.6491(17) 0.1826 Uani
C18 C 0.3660(13) -0.156(2) 0.572(2) 0.2132 Uani
H9 H 0.3565 -0.1279 0.5128 0.3200 Uiso
H10 H 0.3501 -0.2155 0.5770 0.3200 Uiso
H11 H 0.3991 -0.1670 0.5773 0.3200 Uiso
C19 C 0.3626(12) -0.124(2) 0.746(2) 0.1960 Uani
H12 H 0.3690 -0.1901 0.7475 0.2940 Uiso
H13 H 0.3356 -0.1110 0.7785 0.2940 Uiso
H14 H 0.3890 -0.0904 0.7751 0.2940 Uiso
N1 N 0.5918(3) 0.4498(6) 0.3331(6) 0.0484 Uani
N2 N 0.3539(10) -0.0933(19) 0.6486(19) 0.1927 Uani
O1 O 0.3815(2) 0.3080(5) 0.5219(5) 0.0502 Uani
O2 O 0.3876(2) 0.1737(5) 0.4508(6) 0.0520 Uani
O3 O 0.7871(2) 0.5851(4) 0.4029(5) 0.0405 Uani
O4 O 0.7270(2) 0.6721(4) 0.4340(4) 0.0381 Uani
O5 O 0.7623(2) 0.3731(5) 0.1238(5) 0.0436 Uani
O6 O 0.6958(2) 0.2899(4) 0.1121(5) 0.0372 Uani
O7 O 0.3463(4) 0.0392(8) 0.5686(11) 0.1098 Uani
O8 O 0.3530(4) 0.2119(8) 0.6803(7) 0.0870 Uani
Eu1A Eu 0.685224(14) 0.19578(3) -0.02389(3) 0.0278 Uani
Eu1B Eu 0.814776(14) 0.69578(3) 0.52389(3) 0.0278 Uani
Eu1D Eu 0.685224(14) 0.80422(3) 0.47611(3) 0.0278 Uani
Eu1G Eu 0.814776(14) 0.30422(3) 0.02389(3) 0.0278 Uani
O3B O 0.2871(2) 0.0851(4) 0.4029(5) 0.0405 Uani
O4B O 0.2270(2) 0.1721(4) 0.4340(4) 0.0381 Uani
O4D O 0.2730(2) 0.3279(4) 0.5660(4) 0.0381 Uani
O5G O 0.2623(2) 0.1269(5) 0.6238(5) 0.0436 Uani
O6A O 0.3042(2) 0.2899(4) 0.3879(5) 0.0372 Uani
C20 C 0.1557(9) -0.1468(19) 0.6068(19) 0.1581 Uani
C21 C 0.1844(9) -0.1002(19) 0.5499(19) 0.1595 Uani
H15 H 0.1711 -0.0554 0.5084 0.1910 Uiso
C22 C 0.2322(9) -0.1164(18) 0.551(2) 0.1600 Uani
H16 H 0.2481 -0.0834 0.5079 0.1920 Uiso
C23 C 0.2588(10) -0.1776(17) 0.6115(19) 0.1593 Uani
H17 H 0.2910 -0.1863 0.6198 0.1910 Uiso
C24 C 0.2233(9) -0.222(2) 0.655(2) 0.1580 Uani
H18 H 0.2353 -0.2726 0.6904 0.1900 Uiso
C25 C 0.1060(9) -0.1311(19) 0.6192(19) 0.1617 Uani
H19 H 0.0963 -0.1739 0.6655 0.2430 Uiso
H20 H 0.0877 -0.1417 0.5608 0.2430 Uiso
H21 H 0.1016 -0.0675 0.6393 0.2430 Uiso
N3 N 0.1768(8) -0.2135(15) 0.6631(17) 0.1577 Uani
loop_
_atom_site_aniso_label
_atom_site_aniso_U_11
_atom_site_aniso_U_22
_atom_site_aniso_U_33
_atom_site_aniso_U_23
_atom_site_aniso_U_13
_atom_site_aniso_U_12
Eu1 0.0218(3) 0.0313(3) 0.0313(3) 0.00149(18) 0.00744(17) -0.00045(17)
C1 0.028(5) 0.049(6) 0.054(6) 0.006(5) 0.008(4) 0.001(4)
C2 0.034(6) 0.065(7) 0.056(7) 0.000(5) 0.017(5) -0.010(5)
C3 0.072(9) 0.058(7) 0.144(15) -0.028(9) 0.063(10) -0.016(7)
C4 0.064(9) 0.075(9) 0.157(16) -0.019(10) 0.078(10) -0.013(7)
C5 0.044(6) 0.059(7) 0.065(7) -0.025(6) 0.021(5) -0.015(5)
C6 0.046(6) 0.054(6) 0.059(7) -0.006(5) 0.015(5) -0.009(5)
C7 0.036(6) 0.065(7) 0.066(7) -0.009(6) 0.016(5) -0.009(5)
C8 0.053(7) 0.066(8) 0.065(8) -0.017(6) 0.021(6) -0.010(6)
C9 0.029 0.031 0.038 -0.002 0.009 0
C10 0.039 0.027 0.037 -0.003 0.009 -0.003
C11 0.029 0.048 0.041 -0.012 0.013 0.002
C12 0.03 0.04 0.044 -0.009 0.018 -0.005
C13 0.033 0.044 0.049 -0.009 0.016 -0.012
C14 0.026 0.035 0.042 -0.007 0.009 0.002
C15 0.028 0.035 0.041 -0.004 0.009 -0.003
C16 0.039 0.036 0.046 -0.005 0.014 -0.005
C17 0.183(9) 0.185(8) 0.180(8) 0.008(4) 0.017(5) -0.002(5)
C18 0.217(10) 0.212(9) 0.211(9) -0.007(5) 0.021(5) 0.006(5)
C19 0.197(9) 0.197(9) 0.194(8) 0.009(5) 0.017(5) -0.001(5)
N1 0.040(5) 0.054(5) 0.053(5) -0.016(4) 0.014(4) -0.017(4)
N2 0.199(8) 0.187(7) 0.192(7) 0.010(4) 0.017(5) 0.003(5)
O1 0.032(4) 0.064(5) 0.057(5) -0.025(4) 0.017(3) -0.010(3)
O2 0.030(4) 0.045(4) 0.085(6) -0.003(4) 0.028(4) -0.005(3)
O3 0.038 0.034 0.05 -0.006 0.007 -0.001
O4 0.039 0.042 0.035 -0.012 0.012 -0.009
O5 0.036 0.047 0.051 -0.022 0.021 -0.008
O6 0.034 0.036 0.043 -0.009 0.012 -0.005
O7 0.074(7) 0.106(7) 0.158(10) -0.013(7) 0.058(7) 0.025(6)
O8 0.073(7) 0.128(9) 0.055(6) 0.004(5) -0.022(5) -0.014(6)
Eu1A 0.0218 0.0313 0.0313 -0.00149 0.00744 0.00045
Eu1B 0.0218 0.0313 0.0313 0.00149 0.00744 -0.00045
Eu1D 0.0218 0.0313 0.0313 0.00149 0.00744 -0.00045
Eu1G 0.0218 0.0313 0.0313 -0.00149 0.00744 0.00045
O3B 0.038 0.034 0.05 -0.006 0.007 -0.001
O4B 0.039 0.042 0.035 -0.012 0.012 -0.009
O4D 0.039 0.042 0.035 -0.012 0.012 -0.009
O5G 0.036 0.047 0.051 0.022 0.021 0.008
O6A 0.034 0.036 0.043 0.009 0.012 0.005
C20 0.161(5) 0.157(5) 0.156(5) 0.000(3) 0.012(3) 0.001(3)
C21 0.163(5) 0.158(5) 0.157(5) 0.001(3) 0.012(3) 0.000(3)
C22 0.163(5) 0.159(5) 0.158(5) 0.000(3) 0.014(3) -0.001(3)
C23 0.162(5) 0.158(5) 0.158(5) 0.000(3) 0.015(3) 0.001(3)
C24 0.161(5) 0.156(5) 0.157(5) 0.000(3) 0.014(3) 0.001(3)
C25 0.162(5) 0.163(6) 0.160(6) -0.001(4) 0.013(4) 0.002(4)
N3 0.161(5) 0.156(5) 0.156(5) 0.000(3) 0.013(3) 0.001(3)
loop_
_geom_bond_atom_site_label_1
_geom_bond_atom_site_label_2
_geom_bond_site_symmetry_1
_geom_bond_site_symmetry_2
Eu1 O1 1_555 1_555
C1 C2 1_555 1_555
C2 C3 1_555 1_555
C3 H1 1_555 1_555
C4 C3 1_555 1_555
H2 C4 1_555 1_555
C5 C4 1_555 1_555
C6 C5 1_555 1_555
H3 C6 1_555 1_555
C7 C2 1_555 1_555
H4 C7 1_555 1_555
C8 C5 1_555 1_555
H5 C8 1_555 1_555
C9 C10 1_555 1_555
C10 C11 1_555 1_555
C11 H6 1_555 1_555
C12 C11 1_555 1_555
C13 C12 1_555 1_555
H7 C13 1_555 1_555
C14 C13 1_555 1_555
C15 C10 1_555 1_555
H8 C15 1_555 1_555
C16 C14 1_555 1_555
C17 N2 1_555 1_555
C18 H9 1_555 1_555
H10 C18 1_555 1_555
H11 C18 1_555 1_555
C19 H12 1_555 1_555
H13 C19 1_555 1_555
H14 C19 1_555 1_555
N1 C8 1_555 1_555
N2 C18 1_555 1_555
O1 C1 1_555 1_555
O2 Eu1 1_555 1_555
O3 C9 1_555 1_555
O4 C9 1_555 1_555
O5 C16 1_555 1_555
O6 C16 1_555 1_555
O7 Eu1 1_555 1_555
O8 Eu1 1_555 1_555
C20 C21 1_555 1_555
C21 H15 1_555 1_555
C22 C21 1_555 1_555
H16 C22 1_555 1_555
C23 C22 1_555 1_555
H17 C23 1_555 1_555
C24 C23 1_555 1_555
H18 C24 1_555 1_555
C25 C20 1_555 1_555
H19 C25 1_555 1_555
H20 C25 1_555 1_555
H21 C25 1_555 1_555
N3 C20 1_555 1_555
Eu1A O6 1_555 1_555
Eu1B O3 1_555 1_555
Eu1D O4 1_555 1_555
Eu1G O5 1_555 1_555
O3B Eu1 1_555 1_555
O4B Eu1 1_555 1_555
O4D Eu1 1_555 1_555
O5G Eu1 1_555 1_555
O6A Eu1 1_555 1_555
C1 O2 1_555 1_555
C6 C7 1_555 1_555
C12 N1 1_555 1_555
C14 C15 1_555 1_555
C17 O7 1_555 1_555
C19 N2 1_555 1_555
O4 Eu1B 1_555 1_555
C24 N3 1_555 1_555

#END
