
#######################################################################
#
#                 Cambridge Crystallographic Data Centre
#                                CCDC 
#
#######################################################################
#
# If this CIF has been generated from an entry in the Cambridge 
# Structural Database, then it will include bibliographic, chemical, 
# crystal, experimental, refinement or atomic coordinate data resulting 
# from the CCDC's data processing and validation procedures.
#
#######################################################################

data_CUWYAW
_chemical_formula_moiety         '(C23 H20 Eu1 N3 O9)n'
_symmetry_cell_setting           monoclinic
_symmetry_space_group_name_H-M   'C 2/c'
_symmetry_Int_Tables_number      15
_space_group_name_Hall           '-C 2yc'
loop_
_symmetry_equiv_pos_site_id
_symmetry_equiv_pos_as_xyz
1 x,y,z
2 -x,y,1/2-z
3 1/2+x,1/2+y,z
4 1/2-x,1/2+y,1/2-z
5 -x,-y,-z
6 x,-y,1/2+z
7 1/2-x,1/2-y,-z
8 1/2+x,1/2-y,1/2+z
_cell_length_a                   29.5467(13)
_cell_length_b                   12.9685(7)
_cell_length_c                   14.2361(7)
_cell_angle_alpha                90
_cell_angle_beta                 94.610(4)
_cell_angle_gamma                90
_cell_volume                     5437.29
loop_
_atom_site_label
_atom_site_type_symbol
_atom_site_fract_x
_atom_site_fract_y
_atom_site_fract_z
_atom_site_U_iso_or_equiv
_atom_site_thermal_displace_type
Eu1 Eu 0.186593(9) 0.70005(2) 0.967551(19) 0.0200 Uani
C1 C 0.1023(2) 0.7447(6) 1.0406(5) 0.0331 Uani
C2 C 0.0573(2) 0.7682(6) 1.0776(5) 0.0361 Uani
C3 C 0.0310(3) 0.6894(7) 1.1084(7) 0.0604 Uani
H1 H 0.0428 0.6229 1.1131 0.0720 Uiso
C4 C -0.0131(3) 0.7075(7) 1.1328(7) 0.0600 Uani
H2 H -0.0312 0.6532 1.1505 0.0720 Uiso
C5 C -0.0298(2) 0.8072(6) 1.1302(6) 0.0414 Uani
C6 C -0.0025(2) 0.8873(6) 1.1020(6) 0.0482 Uani
H3 H -0.0135 0.9546 1.1006 0.0580 Uiso
C7 C 0.0406(2) 0.8674(6) 1.0762(6) 0.0437 Uani
H4 H 0.0586 0.9214 1.0576 0.0520 Uiso
C8 C -0.0771(3) 0.8233(7) 1.1507(6) 0.0456 Uani
C9 C -0.2452(2) 1.0656(5) 1.0651(4) 0.0257 Uani
C10 C -0.21556(19) 0.9939(5) 1.1245(4) 0.0238 Uani
C11 C -0.1695(2) 0.9882(5) 1.1120(4) 0.0282 Uani
H5 H -0.1568 1.0308 1.0687 0.0340 Uiso
C12 C -0.1427(2) 0.9184(5) 1.1648(5) 0.0316 Uani
C13 C -0.1617(2) 0.8596(5) 1.2332(4) 0.0298 Uani
H6 H -0.1436 0.8139 1.2699 0.0360 Uiso
C14 C -0.20759(19) 0.8683(5) 1.2473(4) 0.0260 Uani
C15 C -0.2346(2) 0.9345(5) 1.1916(4) 0.0254 Uani
H7 H -0.2655 0.9391 1.1992 0.0300 Uiso
C16 C -0.2273(2) 0.8089(5) 1.3251(4) 0.0255 Uani
N1 N -0.09605(17) 0.9119(5) 1.1479(4) 0.0356 Uani
O1 O 0.12504(16) 0.8168(4) 1.0087(4) 0.0424 Uani
O2 O 0.11669(15) 0.6532(4) 1.0431(4) 0.0444 Uani
O3 O -0.28681(14) 1.0449(3) 1.0503(3) 0.0328 Uani
O4 O -0.22904(13) 1.1461(3) 1.0296(3) 0.0259 Uani
O5 O -0.20185(14) 0.7460(4) 1.3701(3) 0.0305 Uani
O6 O -0.26744(14) 0.8288(4) 1.3408(3) 0.0313 Uani
O7 O 0.1505(2) 0.5514(5) 0.8851(4) 0.0586 Uani
O8 O 0.14709(19) 0.7696(5) 0.8250(4) 0.0552 Uani
H8 H -0.089(4) 0.756(4) 1.163(8) 0.1200 Uiso
Eu1A Eu -0.186593(9) 0.70005(2) 1.532449(19) 0.0200 Uani
Eu1B Eu -0.313407(9) 1.20005(2) 0.967551(19) 0.0200 Uani
Eu1D Eu -0.186593(9) 1.29995(2) 1.032449(19) 0.0200 Uani
Eu1G Eu -0.313407(9) 0.79995(2) 1.467551(19) 0.0200 Uani
O3B O 0.21319(14) 0.5449(3) 1.0503(3) 0.0328 Uani
O4B O 0.27096(13) 0.6461(3) 1.0296(3) 0.0259 Uani
O4D O 0.22904(13) 0.8539(3) 0.9704(3) 0.0259 Uani
O5A O 0.20185(14) 0.7460(4) 1.1299(3) 0.0305 Uani
O6G O 0.23256(14) 0.6712(4) 0.8408(3) 0.0313 Uani
C17 C 0.1940(7) 0.8794(17) 0.6096(13) 0.1847 Uani
H9 H 0.2170 0.9267 0.6260 0.2220 Uiso
C18 C 0.1496(7) 0.9119(17) 0.6168(10) 0.1767 Uani
H10 H 0.1471 0.9817 0.6304 0.2120 Uiso
C19 C 0.1081(7) 0.8612(16) 0.6077(11) 0.1914 Uani
H11 H 0.0790 0.8850 0.6156 0.2300 Uiso
C20 C 0.1233(8) 0.7639(16) 0.5832(8) 0.1818 Uani
C21 C 0.1666(7) 0.7268(16) 0.5697(13) 0.1824 Uani
C22 C 0.2071(7) 0.7824(16) 0.5802(14) 0.1852 Uani
H12 H 0.2361 0.7599 0.5698 0.2220 Uiso
C23 C 0.1100(7) 0.6058(16) 0.5449(13) 0.1959 Uani
H13 H 0.0962 0.5429 0.5291 0.2350 Uiso
N2 N 0.0891(7) 0.6943(16) 0.5686(13) 0.1901 Uani
N3 N 0.1549(7) 0.6278(15) 0.5491(12) 0.1929 Uani
O9 O 0.0678(2) 0.8786(7) 0.8247(6) 0.0999 Uani
loop_
_atom_site_aniso_label
_atom_site_aniso_U_11
_atom_site_aniso_U_22
_atom_site_aniso_U_33
_atom_site_aniso_U_23
_atom_site_aniso_U_13
_atom_site_aniso_U_12
Eu1 0.01335(19) 0.0258(2) 0.02159(19) -0.00023(12) 0.00604(12) 0.00212(11)
C1 0.018(3) 0.041(4) 0.041(4) -0.003(3) 0.007(3) 0.004(3)
C2 0.028(3) 0.042(3) 0.040(3) 0.002(3) 0.013(3) 0.002(3)
C3 0.041(5) 0.045(5) 0.100(8) 0.007(5) 0.035(5) 0.013(4)
C4 0.038(5) 0.054(6) 0.093(7) 0.007(5) 0.036(5) 0.006(4)
C5 0.029(4) 0.047(5) 0.050(5) 0.006(3) 0.015(3) 0.007(3)
C6 0.041(4) 0.045(5) 0.061(5) 0.006(4) 0.019(4) 0.012(4)
C7 0.029(4) 0.043(4) 0.062(5) 0.008(4) 0.021(3) 0.002(3)
C8 0.036(3) 0.056(4) 0.047(3) 0.002(3) 0.017(3) 0.002(3)
C9 0.026 0.028 0.024 -0.002 0.008 0.003
C10 0.024 0.022 0.026 -0.002 0.005 0.003
C11 0.027 0.031 0.029 0.003 0.017 -0.001
C12 0.022 0.04 0.034 0.006 0.01 0.009
C13 0.024 0.041 0.026 0.013 0.011 0.009
C14 0.019 0.036 0.024 0.006 0.008 0.004
C15 0.019 0.028 0.031 -0.001 0.013 -0.001
C16 0.021 0.035 0.021 0.004 0.005 0.003
N1 0.023(3) 0.044(4) 0.042(3) 0.014(3) 0.016(2) 0.010(3)
O1 0.029(3) 0.043(3) 0.058(3) 0.018(2) 0.021(2) 0.012(2)
O2 0.027(3) 0.035(3) 0.074(4) -0.010(3) 0.022(2) -0.001(2)
O3 0.021 0.029 0.048 0.007 0.001 0.0011
O4 0.023 0.026 0.03 0.0078 0.0108 0.0051
O5 0.027 0.04 0.026 0.005 0.0108 0.001
O6 0.02 0.045 0.03 0.01 0.0088 0.004
O7 0.059(3) 0.061(3) 0.056(3) -0.008(3) 0.006(2) -0.020(3)
O8 0.050(3) 0.075(4) 0.039(3) -0.002(3) -0.007(3) 0.020(3)
Eu1A 0.01335 0.0258 0.02159 0.00023 0.00604 -0.00212
Eu1B 0.01335 0.0258 0.02159 -0.00023 0.00604 0.00212
Eu1D 0.01335 0.0258 0.02159 -0.00023 0.00604 0.00212
Eu1G 0.01335 0.0258 0.02159 0.00023 0.00604 -0.00212
O3B 0.021 0.029 0.048 0.007 0.001 0.0011
O4B 0.023 0.026 0.03 0.0078 0.0108 0.0051
O4D 0.023 0.026 0.03 0.0078 0.0108 0.0051
O5A 0.027 0.04 0.026 -0.005 0.0108 -0.001
O6G 0.02 0.045 0.03 -0.01 0.0088 -0.004
C17 0.190(5) 0.185(5) 0.179(7) -0.002(5) 0.014(5) 0.000(4)
C18 0.188(5) 0.178(6) 0.164(7) 0.000(5) 0.014(5) 0.003(4)
C19 0.191(5) 0.189(5) 0.194(7) -0.004(5) 0.015(5) 0.006(4)
C20 0.187(5) 0.180(5) 0.178(7) 0.001(5) 0.013(5) 0.004(3)
C21 0.184(5) 0.180(5) 0.182(7) 0.006(5) 0.007(5) 0.005(3)
C22 0.186(5) 0.182(6) 0.187(7) 0.007(5) 0.012(5) 0.007(4)
C23 0.197(6) 0.189(5) 0.201(7) -0.009(5) 0.011(5) -0.002(4)
N2 0.186(5) 0.192(5) 0.192(7) 0.002(5) 0.014(5) 0.004(4)
N3 0.192(5) 0.187(5) 0.200(7) -0.010(5) 0.017(5) 0.006(3)
O9 0.063(4) 0.103(6) 0.135(7) 0.031(5) 0.016(4) 0.017(4)
loop_
_geom_bond_atom_site_label_1
_geom_bond_atom_site_label_2
_geom_bond_site_symmetry_1
_geom_bond_site_symmetry_2
Eu1 O1 1_555 1_555
C1 C2 1_555 1_555
C2 C3 1_555 1_555
C3 H1 1_555 1_555
C4 C3 1_555 1_555
H2 C4 1_555 1_555
C5 C4 1_555 1_555
C6 C5 1_555 1_555
H3 C6 1_555 1_555
C7 C2 1_555 1_555
H4 C7 1_555 1_555
C8 C5 1_555 1_555
C9 C10 1_555 1_555
C10 C11 1_555 1_555
C11 H5 1_555 1_555
C12 C11 1_555 1_555
C13 C12 1_555 1_555
H6 C13 1_555 1_555
C14 C13 1_555 1_555
C15 C10 1_555 1_555
H7 C15 1_555 1_555
C16 C14 1_555 1_555
N1 C8 1_555 1_555
O1 C1 1_555 1_555
O2 Eu1 1_555 1_555
O3 C9 1_555 1_555
O4 C9 1_555 1_555
O5 C16 1_555 1_555
O6 C16 1_555 1_555
O7 Eu1 1_555 1_555
O8 Eu1 1_555 1_555
H8 C8 1_555 1_555
C17 H9 1_555 1_555
C18 C17 1_555 1_555
H10 C18 1_555 1_555
C19 C18 1_555 1_555
H11 C19 1_555 1_555
C20 C19 1_555 1_555
C21 C20 1_555 1_555
C22 C17 1_555 1_555
H12 C22 1_555 1_555
C23 H13 1_555 1_555
N2 C20 1_555 1_555
N3 C21 1_555 1_555
Eu1A O5 1_555 1_555
Eu1B O3 1_555 1_555
Eu1D O4 1_555 1_555
Eu1G O6 1_555 1_555
O3B Eu1 1_555 1_555
O4B Eu1 1_555 1_555
O4D Eu1 1_555 1_555
O5A Eu1 1_555 1_555
O6G Eu1 1_555 1_555
C1 O2 1_555 1_555
C6 C7 1_555 1_555
C12 N1 1_555 1_555
C14 C15 1_555 1_555
O4 Eu1B 1_555 1_555
C21 C22 1_555 1_555
C23 N2 1_555 1_555
C23 N3 1_555 1_555

#END
