
#######################################################################
#
#                 Cambridge Crystallographic Data Centre
#                                CCDC 
#
#######################################################################
#
# If this CIF has been generated from an entry in the Cambridge 
# Structural Database, then it will include bibliographic, chemical, 
# crystal, experimental, refinement or atomic coordinate data resulting 
# from the CCDC's data processing and validation procedures.
#
#######################################################################

data_CUWZAX
_chemical_formula_moiety         '(C22 H23 Eu1 N2 O9 S1)n'
_symmetry_cell_setting           monoclinic
_symmetry_space_group_name_H-M   'C 2/c'
_symmetry_Int_Tables_number      15
_space_group_name_Hall           '-C 2yc'
loop_
_symmetry_equiv_pos_site_id
_symmetry_equiv_pos_as_xyz
1 x,y,z
2 -x,y,1/2-z
3 1/2+x,1/2+y,z
4 1/2-x,1/2+y,1/2-z
5 -x,-y,-z
6 x,-y,1/2+z
7 1/2-x,1/2-y,-z
8 1/2+x,1/2-y,1/2+z
_cell_length_a                   29.0553(12)
_cell_length_b                   14.1152(7)
_cell_length_c                   13.4991(7)
_cell_angle_alpha                90
_cell_angle_beta                 97.912(5)
_cell_angle_gamma                90
_cell_volume                     5483.57
loop_
_atom_site_label
_atom_site_type_symbol
_atom_site_fract_x
_atom_site_fract_y
_atom_site_fract_z
_atom_site_U_iso_or_equiv
_atom_site_thermal_displace_type
Eu1 Eu 0.184341(14) 0.70591(3) 0.46130(3) 0.0349 Uani
C1 C 0.0984(4) 0.7522(9) 0.5260(8) 0.0533 Uani
C2 C 0.0540(4) 0.7768(9) 0.5652(9) 0.0550 Uani
C3 C 0.0382(5) 0.8704(10) 0.5643(12) 0.0863 Uani
H1 H 0.0569 0.9183 0.5446 0.1040 Uiso
C4 C -0.0029(5) 0.8931(10) 0.5908(11) 0.0758 Uani
H2 H -0.0132 0.9555 0.5866 0.0910 Uiso
C5 C -0.0305(5) 0.8220(10) 0.6251(10) 0.0672 Uani
C6 C -0.0154(6) 0.7325(12) 0.6289(15) 0.1006 Uani
H3 H -0.0335 0.6856 0.6526 0.1200 Uiso
C7 C 0.0275(5) 0.7072(10) 0.5978(14) 0.0880 Uani
H4 H 0.0374 0.6444 0.5996 0.1060 Uiso
C8 C -0.0782(5) 0.8392(13) 0.6508(12) 0.0865 Uani
C9 C -0.2463(3) 1.0796(7) 0.5748(7) 0.0445 Uani
C10 C -0.2162(3) 1.0082(7) 0.6284(7) 0.0412 Uani
C11 C -0.1696(3) 1.0002(7) 0.6185(7) 0.0453 Uani
H5 H -0.1567 1.0425 0.5773 0.0540 Uiso
C12 C -0.1422(3) 0.9323(7) 0.6672(8) 0.0476 Uani
C13 C -0.1603(4) 0.8744(7) 0.7394(7) 0.0458 Uani
H6 H -0.1413 0.8314 0.7780 0.0550 Uiso
C14 C -0.2062(3) 0.8835(7) 0.7506(6) 0.0392 Uani
C15 C -0.2345(3) 0.9497(7) 0.6966(7) 0.0415 Uani
H7 H -0.2655 0.9552 0.7057 0.0500 Uiso
C16 C -0.2262(3) 0.8234(8) 0.8272(7) 0.0439 Uani
C17 C 0.1192(15) 0.486(2) 0.380(3) 0.2773 Uani
H8 H 0.0869 0.5017 0.3827 0.3330 Uiso
H9 H 0.1315 0.4583 0.4438 0.3330 Uiso
C18 C 0.1207(13) 0.412(3) 0.300(2) 0.2898 Uani
H10 H 0.1029 0.3554 0.3136 0.3480 Uiso
C19 C 0.1719(13) 0.392(3) 0.311(3) 0.2950 Uani
H11 H 0.1860 0.4525 0.2993 0.3540 Uiso
H12 H 0.1759 0.3527 0.2541 0.3540 Uiso
C20 C 0.1587(8) 0.803(2) 0.2277(18) 0.1938 Uani
C21 C 0.0698(9) 0.860(2) 0.178(2) 0.2128 Uani
H13 H 0.0603 0.8093 0.2186 0.3190 Uiso
H14 H 0.0523 0.8567 0.1126 0.3190 Uiso
H15 H 0.0644 0.9195 0.2084 0.3190 Uiso
C22 C 0.1298(9) 0.9295(19) 0.110(2) 0.2019 Uani
H16 H 0.1016 0.9545 0.0744 0.3030 Uiso
H17 H 0.1498 0.9089 0.0636 0.3030 Uiso
H18 H 0.1451 0.9779 0.1527 0.3030 Uiso
N1 N -0.0953(3) 0.9220(7) 0.6471(7) 0.0563 Uani
N2 N 0.1190(9) 0.8500(17) 0.1709(19) 0.2011 Uani
O1 O 0.1136(3) 0.6689(6) 0.5411(6) 0.0618 Uani
O2 O 0.1202(3) 0.8137(6) 0.4860(7) 0.0662 Uani
O3 O -0.2893(2) 1.0648(5) 0.5536(5) 0.0500 Uani
O4 O -0.2288(2) 1.1556(4) 0.5455(5) 0.0435 Uani
O5 O -0.2673(2) 0.8409(5) 0.8428(5) 0.0507 Uani
O6 O -0.1997(2) 0.7616(5) 0.8729(5) 0.0457 Uani
O7 O 0.1441(4) 0.5738(17) 0.3685(7) 0.1707 Uani
O8 O 0.1098(12) 0.443(2) 0.194(2) 0.2948 Uani
H19 H 0.1335 0.4412 0.1668 0.4420 Uiso
O9 O 0.1464(5) 0.7637(11) 0.3026(11) 0.1255 Uani
S1 S 0.2096(7) 0.3408(14) 0.4142(13) 0.3146 Uani
Eu1A Eu -0.184341(14) 0.70591(3) 1.03870(3) 0.0349 Uani
Eu1B Eu -0.315659(14) 1.20591(3) 0.46130(3) 0.0349 Uani
Eu1D Eu -0.184341(14) 1.29409(3) 0.53870(3) 0.0349 Uani
Eu1G Eu -0.315659(14) 0.79409(3) 0.96130(3) 0.0349 Uani
O3B O 0.2107(2) 0.5648(5) 0.5536(5) 0.0500 Uani
O4B O 0.2712(2) 0.6556(4) 0.5455(5) 0.0435 Uani
O4D O 0.2288(2) 0.8444(4) 0.4545(5) 0.0435 Uani
O5G O 0.2327(2) 0.6591(5) 0.3428(5) 0.0507 Uani
O6A O 0.1997(2) 0.7616(5) 0.6271(5) 0.0457 Uani
loop_
_atom_site_aniso_label
_atom_site_aniso_U_11
_atom_site_aniso_U_22
_atom_site_aniso_U_33
_atom_site_aniso_U_23
_atom_site_aniso_U_13
_atom_site_aniso_U_12
Eu1 0.0219(3) 0.0356(3) 0.0496(4) -0.00065(18) 0.0135(2) 0.00200(17)
C1 0.034(6) 0.062(7) 0.069(7) -0.004(6) 0.025(5) 0.006(5)
C2 0.031(6) 0.063(7) 0.075(7) 0.001(6) 0.022(5) 0.003(5)
C3 0.060(8) 0.067(8) 0.139(12) 0.023(9) 0.039(9) 0.009(7)
C4 0.053(7) 0.072(8) 0.109(10) 0.010(8) 0.035(7) 0.012(7)
C5 0.049(7) 0.066(8) 0.088(9) 0.011(7) 0.014(6) 0.009(6)
C6 0.072(10) 0.082(10) 0.161(16) 0.047(11) 0.063(11) 0.022(9)
C7 0.055(9) 0.080(10) 0.140(14) 0.018(9) 0.053(10) 0.010(7)
C8 0.052(8) 0.105(12) 0.110(11) 0.014(10) 0.038(8) 0.015(9)
C9 0.034 0.044 0.061 0.001 0.026 0.004
C10 0.032 0.035 0.06 0.01 0.018 0.002
C11 0.038 0.044 0.059 0.007 0.025 0.008
C12 0.026 0.052 0.069 0.012 0.022 0.006
C13 0.043 0.046 0.053 0.008 0.023 0.007
C14 0.032 0.043 0.046 0.004 0.017 0.001
C15 0.029 0.038 0.062 -0.004 0.022 0.001
C16 0.033 0.048 0.053 0.007 0.014 -0.003
C17 0.277(9) 0.273(9) 0.282(9) 0.003(5) 0.039(5) -0.012(5)
C18 0.294(8) 0.284(8) 0.292(8) -0.006(4) 0.042(5) -0.006(5)
C19 0.296(8) 0.294(9) 0.296(9) -0.001(5) 0.044(4) 0.002(5)
C20 0.197(7) 0.196(8) 0.190(7) 0.014(5) 0.032(5) -0.005(5)
C21 0.208(7) 0.213(9) 0.217(9) 0.004(5) 0.028(5) 0.003(5)
C22 0.209(8) 0.199(8) 0.196(8) 0.008(5) 0.022(5) 0.001(5)
N1 0.031(4) 0.071(6) 0.071(5) 0.012(5) 0.022(4) 0.014(5)
N2 0.206(7) 0.201(7) 0.194(7) 0.015(5) 0.019(4) 0.004(5)
O1 0.047(5) 0.054(5) 0.091(6) -0.013(4) 0.033(4) -0.008(4)
O2 0.040(4) 0.067(5) 0.100(6) 0.033(5) 0.040(4) 0.023(4)
O3 0.032 0.044 0.076 0.012 0.015 0.002
O4 0.037 0.029 0.068 0.007 0.02 0.004
O5 0.03 0.057 0.071 0.016 0.028 0.003
O6 0.033 0.05 0.058 0.009 0.02 0.004
O7 0.060(6) 0.386(15) 0.071(6) -0.057(9) 0.027(5) -0.065(11)
O8 0.296(9) 0.299(9) 0.290(8) -0.005(5) 0.043(5) 0.001(5)
O9 0.117(6) 0.127(5) 0.131(5) -0.035(4) 0.012(4) 0.006(4)
S1 0.321(7) 0.306(8) 0.312(7) -0.004(5) 0.026(5) 0.008(5)
Eu1A 0.0219 0.0356 0.0496 0.00065 0.0135 -0.002
Eu1B 0.0219 0.0356 0.0496 -0.00065 0.0135 0.002
Eu1D 0.0219 0.0356 0.0496 -0.00065 0.0135 0.002
Eu1G 0.0219 0.0356 0.0496 0.00065 0.0135 -0.002
O3B 0.032 0.044 0.076 0.012 0.015 0.002
O4B 0.037 0.029 0.068 0.007 0.02 0.004
O4D 0.037 0.029 0.068 0.007 0.02 0.004
O5G 0.03 0.057 0.071 -0.016 0.028 -0.003
O6A 0.033 0.05 0.058 -0.009 0.02 -0.004
loop_
_geom_bond_atom_site_label_1
_geom_bond_atom_site_label_2
_geom_bond_site_symmetry_1
_geom_bond_site_symmetry_2
Eu1 O1 1_555 1_555
C1 C2 1_555 1_555
C2 C3 1_555 1_555
C3 H1 1_555 1_555
C4 C3 1_555 1_555
H2 C4 1_555 1_555
C5 C4 1_555 1_555
C6 C5 1_555 1_555
H3 C6 1_555 1_555
C7 C2 1_555 1_555
H4 C7 1_555 1_555
C8 C5 1_555 1_555
C9 C10 1_555 1_555
C10 C11 1_555 1_555
C11 H5 1_555 1_555
C12 C11 1_555 1_555
C13 C12 1_555 1_555
H6 C13 1_555 1_555
C14 C13 1_555 1_555
C15 C10 1_555 1_555
H7 C15 1_555 1_555
C16 C14 1_555 1_555
C17 H8 1_555 1_555
H9 C17 1_555 1_555
C18 C17 1_555 1_555
H10 C18 1_555 1_555
C19 C18 1_555 1_555
H11 C19 1_555 1_555
H12 C19 1_555 1_555
C20 N2 1_555 1_555
C21 H13 1_555 1_555
H14 C21 1_555 1_555
H15 C21 1_555 1_555
C22 H16 1_555 1_555
H17 C22 1_555 1_555
H18 C22 1_555 1_555
N1 C8 1_555 1_555
N2 C21 1_555 1_555
O1 C1 1_555 1_555
O2 Eu1 1_555 1_555
O3 C9 1_555 1_555
O4 C9 1_555 1_555
O5 C16 1_555 1_555
O6 C16 1_555 1_555
O7 Eu1 1_555 1_555
O8 C18 1_555 1_555
H19 O8 1_555 1_555
O9 Eu1 1_555 1_555
S1 C19 1_555 1_555
Eu1A O6 1_555 1_555
Eu1B O3 1_555 1_555
Eu1D O4 1_555 1_555
Eu1G O5 1_555 1_555
O3B Eu1 1_555 1_555
O4B Eu1 1_555 1_555
O4D Eu1 1_555 1_555
O5G Eu1 1_555 1_555
O6A Eu1 1_555 1_555
C1 O2 1_555 1_555
C6 C7 1_555 1_555
C12 N1 1_555 1_555
C14 C15 1_555 1_555
C17 O7 1_555 1_555
C20 O9 1_555 1_555
C22 N2 1_555 1_555
O4 Eu1B 1_555 1_555

#END
