
#######################################################################
#
#                 Cambridge Crystallographic Data Centre
#                                CCDC 
#
#######################################################################
#
# If this CIF has been generated from an entry in the Cambridge 
# Structural Database, then it will include bibliographic, chemical, 
# crystal, experimental, refinement or atomic coordinate data resulting 
# from the CCDC's data processing and validation procedures.
#
#######################################################################

data_CUWZIF
_chemical_formula_moiety         '(C57 H45 Eu2 N7 O14)n'
_symmetry_cell_setting           triclinic
_symmetry_space_group_name_H-M   'P -1'
_symmetry_Int_Tables_number      2
_space_group_name_Hall           '-P 1'
loop_
_symmetry_equiv_pos_site_id
_symmetry_equiv_pos_as_xyz
1 x,y,z
2 -x,-y,-z
_cell_length_a                   13.6903(4)
_cell_length_b                   14.7432(5)
_cell_length_c                   15.6518(7)
_cell_angle_alpha                95.222(3)
_cell_angle_beta                 112.945(4)
_cell_angle_gamma                90.244(3)
_cell_volume                     2894.39
loop_
_atom_site_label
_atom_site_type_symbol
_atom_site_fract_x
_atom_site_fract_y
_atom_site_fract_z
C1 C 0.6536(5) 0.9578(5) 0.3018(5)
C2 C 0.7266(5) 0.9169(5) 0.3847(5)
C3 C 0.8370(5) 0.9277(5) 0.4137(5)
H1 H 0.8654 0.9584 0.3787
C4 C 0.9040(6) 0.8925(5) 0.4946(5)
H2 H 0.9771 0.9004 0.5139
C5 C 0.8630(5) 0.8458(5) 0.5469(5)
C6 C 0.7545(5) 0.8348(6) 0.5173(6)
H3 H 0.7256 0.8045 0.5521
C7 C 0.6892(6) 0.8682(6) 0.4367(6)
H4 H 0.6163 0.8574 0.4165
C8 C 0.9309(6) 0.8140(5) 0.6376(6)
C9 C 1.3373(5) 0.8933(4) 0.9745(5)
C10 C 1.2374(5) 0.8376(4) 0.9142(5)
C11 C 1.1972(5) 0.7751(4) 0.9551(5)
H5 H 1.2333 0.7669 1.0178
C12 C 1.1039(5) 0.7253(4) 0.9030(4)
C13 C 1.0474(5) 0.7415(4) 0.8106(5)
H6 H 0.9829 0.7100 0.7765
C14 C 1.0857(5) 0.8041(4) 0.7686(5)
C15 C 1.1835(5) 0.8497(4) 0.8212(5)
H7 H 1.2127 0.8887 0.7931
C16 C 1.0622(5) 0.6550(5) 0.9436(5)
C17 C 0.2975(7) 1.1153(8) 0.1896(7)
H8 H 0.3189 1.1658 0.1688
C18 C 0.2035(7) 1.1194(8) 0.2098(7)
H9 H 0.1638 1.1713 0.2018
C19 C 0.1750(8) 1.0451(9) 0.2405(8)
H10 H 0.1139 1.0454 0.2530
C20 C 0.2336(7) 0.9704(8) 0.2535(7)
H11 H 0.2156 0.9199 0.2767
C21 C 0.3219(7) 0.9720(7) 0.2307(7)
H12 H 0.3614 0.9200 0.2375
C22 C 0.8885(5) 0.5207(4) 0.6997(5)
C23 C 0.8866(5) 0.5599(5) 0.6148(5)
C24 C 0.7917(6) 0.5812(6) 0.5456(6)
H13 H 0.7289 0.5755 0.5548
C25 C 0.7890(5) 0.6105(6) 0.4636(6)
H14 H 0.7243 0.6221 0.4171
C26 C 0.8822(5) 0.6230(5) 0.4504(5)
C27 C 0.9784(6) 0.6067(5) 0.5221(5)
H15 H 1.0419 0.6176 0.5154
C28 C 0.9802(6) 0.5749(5) 0.6019(5)
H16 H 1.0449 0.5631 0.6483
C29 C 0.8784(6) 0.6517(5) 0.3610(5)
C30 C 0.8446(5) 0.5958(4) 0.0058(5)
C31 C 0.8065(4) 0.6584(4) 0.0672(5)
C32 C 0.8335(5) 0.6438(4) 0.1602(5)
H17 H 0.8841 0.6019 0.1877
C33 C 0.7844(5) 0.6924(5) 0.2116(5)
C34 C 0.7148(5) 0.7587(4) 0.1714(5)
H18 H 0.6814 0.7907 0.2056
C35 C 0.6938(5) 0.7784(4) 0.0805(5)
C36 C 0.7388(5) 0.7261(4) 0.0285(5)
H19 H 0.7233 0.7367 -0.0330
C37 C 0.6217(5) 0.8548(5) 0.0424(5)
C38 C 0.6587(5) 0.3290(5) -0.1839(5)
H20 H 0.7118 0.2872 -0.1654
C39 C 0.5552(5) 0.2998(6) -0.2050(5)
H21 H 0.5390 0.2399 -0.1994
C40 C 0.4759(6) 0.3619(6) -0.2345(6)
H22 H 0.4052 0.3443 -0.2502
C41 C 0.5045(6) 0.4500(6) -0.2399(6)
H23 H 0.4536 0.4937 -0.2585
C42 C 0.6104(5) 0.4722(5) -0.2171(5)
H24 H 0.6291 0.5316 -0.2219
N1 N 1.0295(4) 0.8316(4) 0.6770(4)
N2 N 0.3540(5) 1.0424(5) 0.1998(5)
N3 N 0.7931(4) 0.6720(4) 0.3006(4)
N4 N 0.6856(4) 0.4143(4) -0.1892(4)
O1 O 0.5547(4) 0.9414(3) 0.2752(3)
O2 O 0.6899(3) 1.0069(3) 0.2588(3)
O3 O 1.3585(3) 0.9081(3) 1.0595(3)
O4 O 1.3907(3) 0.9271(3) 0.9349(4)
O5 O 0.9752(3) 0.6155(3) 0.8941(3)
O6 O 1.1192(3) 0.6395(3) 1.0273(3)
O7 O 0.5441(4) 1.1648(3) 0.2278(4)
O8 O 0.9709(3) 0.4884(3) 0.7527(3)
O9 O 0.8033(3) 0.5213(3) 0.7159(3)
O10 O 0.9292(3) 0.5540(3) 0.0434(3)
O11 O 0.7888(3) 0.5840(3) -0.0783(3)
O12 O 0.5763(3) 0.8880(3) 0.0936(3)
O13 O 0.6133(3) 0.8798(3) -0.0345(3)
O14 O 0.8721(4) 0.3247(3) -0.2187(3)
H25 H 0.894(5) 0.772(4) 0.664(5)
H26 H 0.952(3) 0.661(5) 0.362(5)
Eu1 Eu 0.50368(2) 1.01880(2) 0.13457(2)
Eu2 Eu 0.89000(2) 0.47009(2) -0.12900(2)
O3_2 O 0.3585(3) 0.9081(3) 0.0595(3)
O4A O 0.6093(3) 1.0729(3) 0.0651(4)
O5_2 O 0.9752(3) 0.6155(3) -0.1059(3)
O6A O 0.8808(3) 0.3605(3) -0.0273(3)
O8_2 O 0.9709(3) 0.4884(3) -0.2473(3)
O9_2 O 0.8033(3) 0.5213(3) -0.2841(3)
O10A O 1.0708(3) 0.4460(3) -0.0434(3)
O13A O 0.3867(3) 1.1202(3) 0.0345(3)
Eu1_2 Eu 1.50368(2) 1.01880(2) 1.13457(2)
Eu1A Eu 0.49632(2) 0.98120(2) -0.13457(2)
Eu1A_2 Eu 1.49632(2) 0.98120(2) 0.86543(2)
Eu2_2 Eu 0.89000(2) 0.47009(2) 0.87100(2)
Eu2A Eu 1.11000(2) 0.52991(2) 0.12900(2)
Eu2A_2 Eu 1.11000(2) 0.52991(2) 1.12900(2)
C43 C 0.9823(6) 0.1566(6) 0.9153(7)
H27 H 0.9337 0.1864 0.9346
C44 C 1.0477(7) 0.0961(6) 0.9713(7)
H28 H 1.0451 0.0872 1.0285
C45 C 1.1157(7) 0.0498(6) 0.9414(7)
H29 H 1.1600 0.0078 0.9772
C46 C 1.1178(6) 0.0662(5) 0.8570(7)
H30 H 1.1631 0.0349 0.8344
C47 C 1.0529(6) 0.1286(5) 0.8074(7)
H31 H 1.0554 0.1403 0.7508
N5 N 0.9861(5) 0.1736(4) 0.8363(5)
C48 C 0.8447(8) 0.2035(9) 0.5708(9)
H32 H 0.8815 0.1667 0.6172
C49 C 0.8150(8) 0.1713(9) 0.4732(9)
H33 H 0.8294 0.1123 0.4565
C50 C 0.7676(8) 0.2256(10) 0.4080(9)
H34 H 0.7550 0.2068 0.3461
C51 C 0.7371(8) 0.3084(9) 0.4304(8)
H35 H 0.6989 0.3449 0.3843
C52 C 0.7638(8) 0.3373(9) 0.5230(8)
H36 H 0.7431 0.3945 0.5379
N6 N 0.8180(6) 0.2878(6) 0.5933(6)
C53 C 0.7146(6) 0.3655(5) 0.1998(6)
H37 H 0.7697 0.3582 0.2565
C54 C 0.7327(7) 0.4210(5) 0.1411(7)
H38 H 0.7986 0.4508 0.1586
C55 C 0.6537(7) 0.4321(6) 0.0571(7)
H39 H 0.6644 0.4684 0.0157
C56 C 0.5583(7) 0.3877(6) 0.0363(7)
H40 H 0.5023 0.3941 -0.0202
C57 C 0.5439(7) 0.3331(6) 0.0986(6)
H41 H 0.4780 0.3040 0.0834
N7 N 0.6219(5) 0.3215(4) 0.1793(5)
loop_
_geom_bond_atom_site_label_1
_geom_bond_atom_site_label_2
_geom_bond_site_symmetry_1
_geom_bond_site_symmetry_2
C1 C2 1_555 1_555
C2 C3 1_555 1_555
C3 H1 1_555 1_555
C4 C3 1_555 1_555
H2 C4 1_555 1_555
C5 C4 1_555 1_555
C6 C5 1_555 1_555
H3 C6 1_555 1_555
C7 C2 1_555 1_555
H4 C7 1_555 1_555
C8 C5 1_555 1_555
C9 C10 1_555 1_555
C10 C11 1_555 1_555
C11 H5 1_555 1_555
C12 C11 1_555 1_555
C13 C12 1_555 1_555
H6 C13 1_555 1_555
C14 C13 1_555 1_555
C15 C10 1_555 1_555
H7 C15 1_555 1_555
C16 C12 1_555 1_555
C17 H8 1_555 1_555
C18 C17 1_555 1_555
H9 C18 1_555 1_555
C19 C18 1_555 1_555
H10 C19 1_555 1_555
C20 C19 1_555 1_555
H11 C20 1_555 1_555
C21 C20 1_555 1_555
H12 C21 1_555 1_555
C22 C23 1_555 1_555
C23 C24 1_555 1_555
C24 H13 1_555 1_555
C25 C24 1_555 1_555
H14 C25 1_555 1_555
C26 C25 1_555 1_555
C27 C26 1_555 1_555
H15 C27 1_555 1_555
C28 C23 1_555 1_555
H16 C28 1_555 1_555
C29 C26 1_555 1_555
C30 C31 1_555 1_555
C31 C32 1_555 1_555
C32 H17 1_555 1_555
C33 C32 1_555 1_555
C34 C33 1_555 1_555
H18 C34 1_555 1_555
C35 C34 1_555 1_555
C36 C31 1_555 1_555
H19 C36 1_555 1_555
C37 C35 1_555 1_555
C38 H20 1_555 1_555
C39 C38 1_555 1_555
H21 C39 1_555 1_555
C40 C39 1_555 1_555
H22 C40 1_555 1_555
C41 C40 1_555 1_555
H23 C41 1_555 1_555
C42 C41 1_555 1_555
H24 C42 1_555 1_555
N1 C8 1_555 1_555
N2 C17 1_555 1_555
N3 C29 1_555 1_555
N4 C38 1_555 1_555
O1 C1 1_555 1_555
O2 C1 1_555 1_555
O3 C9 1_555 1_555
O4 C9 1_555 1_555
O5 C16 1_555 1_555
O6 C16 1_555 1_555
O7 Eu1 1_555 1_555
O8 C22 1_555 1_555
O9 C22 1_555 1_555
O10 C30 1_555 1_555
O11 C30 1_555 1_555
O12 C37 1_555 1_555
O13 C37 1_555 1_555
O14 Eu2 1_555 1_555
H25 C8 1_555 1_555
H26 C29 1_555 1_555
Eu1 N2 1_555 1_555
Eu2 N4 1_555 1_555
C43 H27 1_555 1_555
C44 C43 1_555 1_555
H28 C44 1_555 1_555
C45 C44 1_555 1_555
H29 C45 1_555 1_555
C46 C45 1_555 1_555
H30 C46 1_555 1_555
C47 C46 1_555 1_555
H31 C47 1_555 1_555
N5 C43 1_555 1_555
C48 H32 1_555 1_555
C49 C48 1_555 1_555
H33 C49 1_555 1_555
C50 C49 1_555 1_555
H34 C50 1_555 1_555
C51 C50 1_555 1_555
H35 C51 1_555 1_555
C52 C51 1_555 1_555
H36 C52 1_555 1_555
N6 C48 1_555 1_555
C53 H37 1_555 1_555
C54 C53 1_555 1_555
H38 C54 1_555 1_555
C55 C54 1_555 1_555
H39 C55 1_555 1_555
C56 C55 1_555 1_555
H40 C56 1_555 1_555
C57 C56 1_555 1_555
H41 C57 1_555 1_555
N7 C53 1_555 1_555
O3_2 Eu1 1_555 1_555
O4A Eu1 1_555 1_555
O5_2 Eu2 1_555 1_555
O6A Eu2 1_555 1_555
O8_2 Eu2 1_555 1_555
O9_2 Eu2 1_555 1_555
O10A Eu2 1_555 1_555
O13A Eu1 1_555 1_555
Eu1_2 O3 1_555 1_555
Eu1A O13 1_555 1_555
Eu1A_2 O4 1_555 1_555
Eu2_2 O5 1_555 1_555
Eu2A O10 1_555 1_555
Eu2A_2 O6 1_555 1_555
C6 C7 1_555 1_555
C14 C15 1_555 1_555
C14 N1 1_555 1_555
C21 N2 1_555 1_555
C27 C28 1_555 1_555
C33 N3 1_555 1_555
C35 C36 1_555 1_555
C42 N4 1_555 1_555
O1 Eu1 1_555 1_555
O2 Eu1 1_555 1_555
O8 Eu2_2 1_555 1_555
O9 Eu2_2 1_555 1_555
O10 Eu2 1_555 1_555
O11 Eu2 1_555 1_555
O12 Eu1 1_555 1_555
C47 N5 1_555 1_555
C52 N6 1_555 1_555
C57 N7 1_555 1_555
O10A Eu2A 1_555 1_555

#END
