
#######################################################################
#
#                 Cambridge Crystallographic Data Centre
#                                CCDC 
#
#######################################################################
#
# If this CIF has been generated from an entry in the Cambridge 
# Structural Database, then it will include bibliographic, chemical, 
# crystal, experimental, refinement or atomic coordinate data resulting 
# from the CCDC's data processing and validation procedures.
#
#######################################################################

data_NOFHOG
_chemical_formula_moiety         '(C58 H62 Eu2 O21 S4)n'
_symmetry_cell_setting           monoclinic
_symmetry_space_group_name_H-M   'P 21/c'
_symmetry_Int_Tables_number      14
_space_group_name_Hall           '-P 2ybc'
loop_
_symmetry_equiv_pos_site_id
_symmetry_equiv_pos_as_xyz
1 x,y,z
2 -x,1/2+y,1/2-z
3 -x,-y,-z
4 x,1/2-y,1/2+z
_cell_length_a                   10.4299(2)
_cell_length_b                   13.5219(3)
_cell_length_c                   31.6642(6)
_cell_angle_alpha                90
_cell_angle_beta                 97.6208(13)
_cell_angle_gamma                90
_cell_volume                     4426.22
loop_
_atom_site_label
_atom_site_type_symbol
_atom_site_fract_x
_atom_site_fract_y
_atom_site_fract_z
Eu1 Eu 0.08448(4) 0.09608(3) 0.461000(13)
S1 S -0.4001(4) -0.0899(3) 0.57085(14)
O1 O -0.1009(7) 0.0092(5) 0.42775(19)
O2 O 0.2169(6) 0.0684(5) 0.5280(2)
O3 O -1.0600(6) -0.3799(5) 0.1207(2)
O4 O -0.9578(8) -0.2806(5) 0.0818(2)
O5 O -0.0692(6) 0.0983(4) 0.5090(2)
O6 O -0.1925(6) 0.0530(5) 0.5573(2)
O7 O -0.1193(9) -0.2606(7) 0.5062(3)
O8 O -0.2927(6) -0.1477(6) 0.5555(2)
C1 C -0.1977(9) -0.0401(7) 0.4363(3)
C2 C -0.2938(9) -0.0697(7) 0.3981(3)
C3 C -0.2844(11) -0.0283(9) 0.3582(3)
H1 H 0.2199 -0.0196 0.6452
C4 C -0.3707(12) -0.0584(10) 0.3237(4)
H2 H 0.3649 0.0309 0.7035
C5 C -0.4627(11) -0.1255(10) 0.3280(3)
C6 C 0.4738(10) 0.1655(9) 0.6330(3)
H3 H 0.5399 0.2123 0.6300
C7 C 0.3858(10) 0.1365(8) 0.5970(3)
H4 H 0.3920 0.1642 0.5698
C8 C -0.5502(12) -0.1620(9) 0.2907(3)
C9 C -0.9752(10) -0.3176(7) 0.1169(3)
C10 C -0.8833(10) -0.2834(8) 0.1552(3)
C11 C -0.7752(12) -0.2261(10) 0.1502(3)
H5 H -0.7576 -0.2098 0.1224
C12 C -0.6938(13) -0.1928(11) 0.1850(4)
H6 H -0.6252 -0.1488 0.1814
C13 C -0.7129(11) -0.2244(10) 0.2258(3)
C14 C -0.8140(12) -0.2850(11) 0.2304(3)
H7 H -0.8266 -0.3060 0.2582
C15 C -0.8995(11) -0.3170(9) 0.1958(3)
H8 H -0.9679 -0.3611 0.1997
C16 C -0.6263(13) -0.1898(11) 0.2620(4)
C17 C -0.1610(10) 0.1145(7) 0.5304(3)
C18 C -0.2360(9) 0.2091(7) 0.5239(3)
C19 C -0.2135(11) 0.2724(8) 0.4938(4)
H9 H -0.1474 0.2583 0.4767
C20 C -0.2872(12) 0.3619(9) 0.4865(5)
H10 H -0.2686 0.4078 0.4655
C21 C -0.3828(13) 0.3795(9) 0.5099(4)
C22 C -0.4036(13) 0.3146(9) 0.5442(5)
H11 H -0.4655 0.3294 0.5628
C23 C -0.3289(12) 0.2293(8) 0.5490(4)
H12 H -0.3433 0.1834 0.5706
C24 C -0.4653(12) 0.4634(8) 0.5025(5)
C25 C -0.2320(13) -0.3118(8) 0.4940(4)
H13 H -0.2118 -0.3756 0.4817
H14 H -0.2877 -0.2733 0.4726
H15 H -0.2769 -0.3230 0.5189
C26 C -0.5126(19) -0.1725(16) 0.5796(7)
H16 H -0.4768 -0.2181 0.6022
H17 H -0.5395 -0.2099 0.5534
H18 H -0.5876 -0.1382 0.5883
C27 C -0.352(4) -0.070(3) 0.6239(13)
H19 H -0.3020 -0.1271 0.6360
H20 H -0.4278 -0.0607 0.6386
H21 H -0.2974 -0.0106 0.6274
Eu1A Eu -1.08448(4) -0.40392(3) 0.039000(13)
Eu1B Eu -0.08448(4) -0.09608(3) 0.539000(13)
Eu1_2 Eu -0.91552(4) 1.09608(3) 0.461000(13)
Eu1B_2 Eu -1.08448(4) 0.90392(3) 0.539000(13)
Eu1C Eu 1.08448(4) 0.40392(3) 0.961000(13)
S1B S 0.4001(4) 0.0899(3) 0.42915(14)
O1B O 0.1009(7) -0.0092(5) 0.57225(19)
O2B O -0.2169(6) -0.0684(5) 0.4720(2)
O3C O -0.0600(6) -0.1201(5) 0.6207(2)
O3A O 0.0600(6) 0.1201(5) 0.3793(2)
O3B O 1.0600(6) 0.3799(5) 0.8793(2)
O4C O 0.0422(8) -0.2194(5) 0.5818(2)
O4A O -0.0422(8) 0.2194(5) 0.4182(2)
O4B O 0.9578(8) 0.2806(5) 0.9182(2)
O5B O 0.0692(6) -0.0983(4) 0.4910(2)
O5B_2 O -0.9308(6) 0.9017(4) 0.4910(2)
O6B O -0.8075(6) 0.9470(5) 0.4427(2)
O6B_2 O 0.1925(6) -0.0530(5) 0.4427(2)
O7B O 0.1193(9) 0.2606(7) 0.4938(3)
O8B O 0.2927(6) 0.1477(6) 0.4445(2)
C1B C 0.1977(9) 0.0401(7) 0.5637(3)
C2B C 0.2938(9) 0.0697(7) 0.6019(3)
C3B C 0.2844(11) 0.0283(9) 0.6418(3)
H1B H -0.2199 0.0196 0.3548
C4B C 0.3707(12) 0.0584(10) 0.6763(4)
H2B H -0.3649 -0.0309 0.2965
C5B C 0.4627(11) 0.1255(10) 0.6720(3)
C6B C -0.4738(10) -0.1655(9) 0.3670(3)
H3B H -0.5399 -0.2123 0.3700
C7B C -0.3858(10) -0.1365(8) 0.4030(3)
H4B H -0.3920 -0.1642 0.4302
C8B C 0.5502(12) 0.1620(9) 0.7093(3)
C9B C 0.9752(10) 0.3176(7) 0.8831(3)
C10B C 0.8833(10) 0.2834(8) 0.8448(3)
C11B C 0.7752(12) 0.2261(10) 0.8498(3)
H5B H 0.7576 0.2098 0.8776
C12B C 0.6938(13) 0.1928(11) 0.8150(4)
H6B H 0.6252 0.1488 0.8186
C13B C 0.7129(11) 0.2244(10) 0.7742(3)
C14B C 0.8140(12) 0.2850(11) 0.7696(3)
H7B H 0.8266 0.3060 0.7418
C15B C 0.8995(11) 0.3170(9) 0.8042(3)
H8B H 0.9679 0.3611 0.8003
C16B C 0.6263(13) 0.1898(11) 0.7380(4)
C17B C -0.8390(10) 0.8855(7) 0.4696(3)
C18B C -0.7640(9) 0.7909(7) 0.4761(3)
C19B C -0.7865(11) 0.7276(8) 0.5062(4)
H9B H -0.8526 0.7417 0.5233
C20B C -0.7128(12) 0.6381(9) 0.5135(5)
H10B H -0.7314 0.5922 0.5345
C21B C -0.6172(13) 0.6205(9) 0.4901(4)
C22B C -0.5964(13) 0.6854(9) 0.4558(5)
H11B H -0.5345 0.6706 0.4372
C23B C -0.6711(12) 0.7707(8) 0.4510(4)
H12B H -0.6567 0.8166 0.4294
C24B C -0.5347(12) 0.5366(8) 0.4975(5)
C25B C 0.2320(13) 0.3118(8) 0.5060(4)
H13B H 0.2118 0.3756 0.5183
H14B H 0.2877 0.2733 0.5274
H15B H 0.2769 0.3230 0.4811
C26B C 0.5126(19) 0.1725(16) 0.4204(7)
H16B H 0.4768 0.2181 0.3978
H17B H 0.5395 0.2099 0.4466
H18B H 0.5876 0.1382 0.4117
C27B C 0.352(4) 0.070(3) 0.3761(13)
H19B H 0.3020 0.1271 0.3640
H20B H 0.4278 0.0607 0.3614
H21B H 0.2974 0.0106 0.3726
S2 S -0.8860(7) -0.2830(5) -0.1431(2)
O9 O -0.8955(19) -0.1922(12) -0.1705(5)
C29 C -0.929(3) -0.3814(16) -0.1738(9)
H29 H -0.9079 -0.3692 -0.2027
H30 H -1.0219 -0.3928 -0.1750
H31 H -0.8814 -0.4397 -0.1618
C30 C -1.023(2) -0.269(2) -0.1136(8)
H32 H -0.9974 -0.2290 -0.0880
H33 H -1.0526 -0.3338 -0.1054
H34 H -1.0940 -0.2352 -0.1316
S3 S -0.7331(11) -0.8532(9) 0.2099(4)
O10 O -0.724(4) -0.900(2) 0.1601(13)
C31 C -0.621(5) -0.918(4) 0.2385(17)
H35 H -0.5849 -0.8796 0.2635
H36 H -0.5518 -0.9336 0.2213
H37 H -0.6583 -0.9795 0.2477
C32 C -0.870(5) -0.933(4) 0.2236(17)
H38 H -0.9467 -0.9218 0.2030
H39 H -0.8886 -0.9166 0.2523
H40 H -0.8444 -1.0030 0.2228
O11 O -0.8916(13) -0.9961(8) -0.0734(4)
O12 O -0.568(4) -1.009(3) 0.1187(12)
H25 H -0.6219 -0.9764 0.1315
H26 H -0.4931 -0.9896 0.1305
O13 O -0.686(3) -0.0630(16) -0.1589(9)
H27 H -0.7509 -0.1027 -0.1627
H28 H -0.6988 -0.0056 -0.1703
loop_
_geom_bond_atom_site_label_1
_geom_bond_atom_site_label_2
_geom_bond_site_symmetry_1
_geom_bond_site_symmetry_2
Eu1 O1 1_555 1_555
S1 O8 1_555 1_555
O1 C1 1_555 1_555
O2 Eu1 1_555 1_555
O3 C9 1_555 1_555
O4 C9 1_555 1_555
O5 Eu1 1_555 1_555
O6 C17 1_555 1_555
O7 C25 1_555 1_555
O8 Eu1B 1_555 1_555
C1 C2 1_555 1_555
C2 C3 1_555 1_555
C3 C4 1_555 1_555
H1 C3B 1_555 1_555
C4 C5 1_555 1_555
H2 C4B 1_555 1_555
C5 C8 1_555 1_555
C6 H3 1_555 1_555
C7 C6 1_555 1_555
H4 C7 1_555 1_555
C8 C16 1_555 1_555
C9 C10 1_555 1_555
C10 C11 1_555 1_555
C11 H5 1_555 1_555
C12 C11 1_555 1_555
H6 C12 1_555 1_555
C13 C12 1_555 1_555
C14 C13 1_555 1_555
H7 C14 1_555 1_555
C15 C10 1_555 1_555
H8 C15 1_555 1_555
C16 C13 1_555 1_555
C17 O5 1_555 1_555
C18 C17 1_555 1_555
C19 C18 1_555 1_555
H9 C19 1_555 1_555
C20 C19 1_555 1_555
H10 C20 1_555 1_555
C21 C20 1_555 1_555
C22 C21 1_555 1_555
H11 C22 1_555 1_555
C23 C18 1_555 1_555
H12 C23 1_555 1_555
C24 C21 1_555 1_555
C25 H13 1_555 1_555
H14 C25 1_555 1_555
H15 C25 1_555 1_555
C26 S1 1_555 1_555
H16 C26 1_555 1_555
H17 C26 1_555 1_555
H18 C26 1_555 1_555
C27 S1 1_555 1_555
H19 C27 1_555 1_555
H20 C27 1_555 1_555
H21 C27 1_555 1_555
S2 O9 1_555 1_555
S3 O10 1_555 1_555
O12 H25 1_555 1_555
H26 O12 1_555 1_555
O13 H27 1_555 1_555
H28 O13 1_555 1_555
C29 S2 1_555 1_555
H29 C29 1_555 1_555
H30 C29 1_555 1_555
H31 C29 1_555 1_555
C30 S2 1_555 1_555
H32 C30 1_555 1_555
H33 C30 1_555 1_555
H34 C30 1_555 1_555
C31 S3 1_555 1_555
H35 C31 1_555 1_555
H36 C31 1_555 1_555
H37 C31 1_555 1_555
C32 S3 1_555 1_555
H38 C32 1_555 1_555
H39 C32 1_555 1_555
H40 C32 1_555 1_555
Eu1A O3 1_555 1_555
Eu1B O5 1_555 1_555
Eu1_2 O5B_2 1_555 1_555
Eu1B_2 O5B_2 1_555 1_555
Eu1C O3B 1_555 1_555
S1B O8B 1_555 1_555
O1B Eu1B 1_555 1_555
O2B C1 1_555 1_555
O3C Eu1B 1_555 1_555
O3A Eu1 1_555 1_555
O3B C9B 1_555 1_555
O4C Eu1B 1_555 1_555
O4A Eu1 1_555 1_555
O4B Eu1C 1_555 1_555
O5B Eu1 1_555 1_555
O5B_2 C17B 1_555 1_555
O6B Eu1_2 1_555 1_555
O6B_2 Eu1 1_555 1_555
O7B Eu1 1_555 1_555
O8B Eu1 1_555 1_555
C1B O2 1_555 1_555
C2B C7 1_555 1_555
C3B C2B 1_555 1_555
H1B C3 1_555 1_555
C4B C3B 1_555 1_555
H2B C4 1_555 1_555
C5B C6 1_555 1_555
C6B C5 1_555 1_555
H3B C6B 1_555 1_555
C7B C2 1_555 1_555
H4B C7B 1_555 1_555
C8B C5B 1_555 1_555
C9B O4B 1_555 1_555
C10B C9B 1_555 1_555
C11B C10B 1_555 1_555
H5B C11B 1_555 1_555
C12B C11B 1_555 1_555
H6B C12B 1_555 1_555
C13B C12B 1_555 1_555
C14B C13B 1_555 1_555
H7B C14B 1_555 1_555
C15B C10B 1_555 1_555
H8B C15B 1_555 1_555
C16B C8B 1_555 1_555
C17B O6B 1_555 1_555
C18B C17B 1_555 1_555
C19B C18B 1_555 1_555
H9B C19B 1_555 1_555
C20B C19B 1_555 1_555
H10B C20B 1_555 1_555
C21B C20B 1_555 1_555
C22B C21B 1_555 1_555
H11B C22B 1_555 1_555
C23B C18B 1_555 1_555
H12B C23B 1_555 1_555
C24B C24 1_555 1_555
C25B O7B 1_555 1_555
H13B C25B 1_555 1_555
H14B C25B 1_555 1_555
H15B C25B 1_555 1_555
C26B S1B 1_555 1_555
H16B C26B 1_555 1_555
H17B C26B 1_555 1_555
H18B C26B 1_555 1_555
C27B S1B 1_555 1_555
H19B C27B 1_555 1_555
H20B C27B 1_555 1_555
H21B C27B 1_555 1_555
O4 Eu1A 1_555 1_555
O6 Eu1B 1_555 1_555
O7 Eu1B 1_555 1_555
C14 C15 1_555 1_555
C22 C23 1_555 1_555
Eu1B O2B 1_555 1_555
Eu1B O5B 1_555 1_555
O1B C1B 1_555 1_555
C1B C2B 1_555 1_555
C4B C5B 1_555 1_555
C6B C7B 1_555 1_555
C13B C16B 1_555 1_555
C14B C15B 1_555 1_555
C21B C24B 1_555 1_555
C22B C23B 1_555 1_555

#END
