
#######################################################################
#
#                 Cambridge Crystallographic Data Centre
#                                CCDC 
#
#######################################################################
#
# If this CIF has been generated from an entry in the Cambridge 
# Structural Database, then it will include bibliographic, chemical, 
# crystal, experimental, refinement or atomic coordinate data resulting 
# from the CCDC's data processing and validation procedures.
#
#######################################################################

data_GEDRIS
_chemical_formula_moiety         '(C22 H16 N5 Nd1 O6)n'
_symmetry_cell_setting           monoclinic
_symmetry_space_group_name_H-M   'C 2/c'
_symmetry_Int_Tables_number      15
_space_group_name_Hall           '-C 2yc'
loop_
_symmetry_equiv_pos_site_id
_symmetry_equiv_pos_as_xyz
1 x,y,z
2 -x,y,1/2-z
3 1/2+x,1/2+y,z
4 1/2-x,1/2+y,1/2-z
5 -x,-y,-z
6 x,-y,1/2+z
7 1/2-x,1/2-y,-z
8 1/2+x,1/2-y,1/2+z
_cell_length_a                   28.6180(12)
_cell_length_b                   14.0687(6)
_cell_length_c                   13.2796(7)
_cell_angle_alpha                90
_cell_angle_beta                 102.717(5)
_cell_angle_gamma                90
_cell_volume                     5215.45
loop_
_atom_site_label
_atom_site_type_symbol
_atom_site_fract_x
_atom_site_fract_y
_atom_site_fract_z
_atom_site_U_iso_or_equiv
_atom_site_thermal_displace_type
Nd1 Nd 0.182125(11) 0.20347(2) 0.43996(3) 0.0176 Uani
O1 O 0.10872(16) 0.1559(4) 0.5052(4) 0.0293 Uani
O2 O 0.1120(2) 0.3028(4) 0.4555(7) 0.0681 Uani
O3 O -0.19292(18) 0.2578(4) 0.8808(4) 0.0364 Uani
O4 O -0.26452(18) 0.3261(4) 0.8275(4) 0.0391 Uani
O5 O -0.22958(16) 0.6538(3) 0.5423(4) 0.0266 Uani
O6 O -0.29055(16) 0.5594(3) 0.5443(4) 0.0296 Uani
N1 N -0.0911(2) 0.4147(5) 0.6501(5) 0.0394 Uani
N2 N 0.1461(5) 0.2804(8) 0.2662(8) 0.0971 Uani
N3 N 0.1068(9) 0.3771(16) 0.1343(19) 0.2188 Uani
N4 N 0.1450(3) 0.0634(6) 0.3230(5) 0.0569 Uani
N5 N 0.1292(3) -0.0362(6) 0.1855(8) 0.0811 Uani
C1 C 0.0937(2) 0.2396(6) 0.4984(6) 0.0344 Uani
C2 C 0.0516(3) 0.2652(6) 0.5449(7) 0.0397 Uani
C3 C 0.0238(4) 0.1957(7) 0.5740(11) 0.0800 Uani
H1 H 0.0328 0.1324 0.5710 0.0960 Uiso
C4 C -0.0175(4) 0.2175(7) 0.6077(12) 0.0822 Uani
H2 H -0.0371 0.1693 0.6232 0.0990 Uiso
C5 C -0.0293(3) 0.3120(6) 0.6180(8) 0.0472 Uani
C6 C -0.0014(3) 0.3824(6) 0.5906(7) 0.0453 Uani
H3 H -0.0093 0.4459 0.5972 0.0540 Uiso
C7 C 0.0389(3) 0.3587(6) 0.5527(7) 0.0426 Uani
H4 H 0.0574 0.4066 0.5325 0.0510 Uiso
C8 C -0.0747(3) 0.3341(7) 0.6480(8) 0.0538 Uani
C9 C -0.2214(3) 0.3152(6) 0.8267(6) 0.0352 Uani
C10 C -0.2016(2) 0.3776(5) 0.7531(5) 0.0269 Uani
C11 C -0.1550(3) 0.3682(5) 0.7405(6) 0.0320 Uani
H5 H -0.1350 0.3226 0.7783 0.0380 Uiso
C12 C -0.1379(2) 0.4258(5) 0.6727(6) 0.0278 Uani
C13 C -0.1665(2) 0.4972(5) 0.6203(6) 0.0278 Uani
H6 H -0.1542 0.5391 0.5785 0.0330 Uiso
C14 C -0.2133(2) 0.5059(5) 0.6303(5) 0.0240 Uani
C15 C -0.2309(2) 0.4455(5) 0.6960(5) 0.0242 Uani
H7 H -0.2626 0.4509 0.7015 0.0290 Uiso
C16 C -0.2471(2) 0.5769(5) 0.5685(5) 0.0224 Uani
C17 C 0.1047(7) 0.321(2) 0.216(2) 0.2971 Uani
H8 H 0.0762 0.3116 0.2370 0.3550 Uiso
C18 C 0.1711(11) 0.313(2) 0.198(2) 0.2648 Uani
H9 H 0.2027 0.2942 0.2053 0.3170 Uiso
C19 C 0.1521(10) 0.373(2) 0.120(2) 0.2571 Uani
H10 H 0.1661 0.4024 0.0712 0.3080 Uiso
C20 C 0.1417(3) 0.0517(5) 0.2217(5) 0.0493 Uani
H11 H 0.1475 0.1009 0.1792 0.0590 Uiso
C21 C 0.1243(8) -0.083(3) 0.2711(19) 0.3866 Uani
H12 H 0.1158 -0.1470 0.2734 0.4650 Uiso
C22 C 0.1338(7) -0.0238(12) 0.353(3) 0.3330 Uani
H13 H 0.1327 -0.0405 0.4199 0.3990 Uiso
H14 H -0.095(3) 0.274(6) 0.655(6) 0.0300 Uiso
Nd1A Nd -0.182125(11) 0.20347(2) 1.06004(3) 0.0176 Uani
Nd1G Nd -0.317875(11) 0.29653(2) 0.93996(3) 0.0176 Uani
Nd1B Nd -0.317875(11) 0.70347(2) 0.43996(3) 0.0176 Uani
Nd1D Nd -0.182125(11) 0.79653(2) 0.56004(3) 0.0176 Uani
O3A O 0.19292(18) 0.2578(4) 0.6192(4) 0.0364 Uani
O4G O 0.23548(18) 0.1739(4) 0.3275(4) 0.0391 Uani
O5B O 0.27042(16) 0.1538(3) 0.5423(4) 0.0266 Uani
O5D O 0.22958(16) 0.3462(3) 0.4577(4) 0.0266 Uani
O6B O 0.20945(16) 0.0594(3) 0.5443(4) 0.0296 Uani
loop_
_atom_site_aniso_label
_atom_site_aniso_U_11
_atom_site_aniso_U_22
_atom_site_aniso_U_33
_atom_site_aniso_U_23
_atom_site_aniso_U_13
_atom_site_aniso_U_12
Nd1 0.0133(2) 0.0197(2) 0.0217(2) -0.00058(16) 0.00819(14) 0.00089(13)
O1 0.024(2) 0.034(3) 0.034(3) -0.004(2) 0.015(2) -0.001(2)
O2 0.057(4) 0.053(4) 0.117(6) 0.051(4) 0.068(4) 0.041(3)
O3 0.034 0.047 0.035 0.024 0.022 0.019
O4 0.026 0.062 0.038 0.026 0.026 0.024
O5 0.024 0.018 0.04 0.008 0.012 0.0009
O6 0.022 0.02 0.047 0.008 0.008 -0.0003
N1 0.025(3) 0.051(4) 0.050(4) 0.015(3) 0.025(3) 0.018(3)
N2 0.126(10) 0.101(8) 0.040(5) -0.016(5) -0.034(6) 0.043(7)
N3 0.224(10) 0.216(10) 0.215(10) -0.002(5) 0.045(5) 0.001(5)
N4 0.062(4) 0.063(4) 0.055(4) -0.015(3) 0.033(3) -0.031(3)
N5 0.096(5) 0.081(5) 0.073(4) -0.013(4) 0.033(4) -0.034(4)
C1 0.018(3) 0.052(5) 0.037(4) 0.017(4) 0.014(3) 0.014(3)
C2 0.022(4) 0.051(5) 0.049(5) 0.010(4) 0.014(4) 0.010(3)
C3 0.072(7) 0.054(6) 0.145(12) 0.037(7) 0.091(8) 0.029(5)
C4 0.071(7) 0.049(6) 0.155(13) 0.038(7) 0.086(9) 0.025(5)
C5 0.038(5) 0.047(5) 0.067(6) 0.029(5) 0.034(5) 0.019(4)
C6 0.029(4) 0.040(5) 0.072(6) 0.002(5) 0.022(4) 0.006(4)
C7 0.027(4) 0.044(5) 0.062(6) 0.014(4) 0.021(4) 0.008(3)
C8 0.044(5) 0.047(5) 0.083(8) 0.018(5) 0.041(5) 0.008(4)
C9 0.031 0.047 0.034 0.008 0.021 0.01
C10 0.025 0.033 0.027 0.006 0.015 0.012
C11 0.028 0.036 0.036 0.009 0.016 0.014
C12 0.015 0.034 0.039 0.002 0.016 0.005
C13 0.028 0.024 0.036 0.007 0.017 0.003
C14 0.023 0.022 0.029 0.001 0.01 0.002
C15 0.022 0.029 0.026 0.003 0.015 0.006
C16 0.028 0.018 0.025 0.002 0.014 0.003
C17 0.30(2) 0.29(2) 0.30(2) 0.001(5) 0.063(7) -0.006(5)
C18 0.267(18) 0.263(18) 0.263(18) 0.001(5) 0.055(6) 0.006(5)
C19 0.259(16) 0.259(16) 0.254(16) 0.000(5) 0.058(6) -0.001(5)
C20 0.051(4) 0.051(4) 0.046(4) -0.011(3) 0.011(3) -0.011(3)
C21 0.39(3) 0.39(3) 0.38(3) 0.000(5) 0.085(8) -0.005(5)
C22 0.34(2) 0.33(2) 0.33(2) 0.001(5) 0.076(7) -0.005(5)
Nd1A 0.0133 0.0197 0.0217 0.00058 0.00819 -0.00089
Nd1G 0.0133 0.0197 0.0217 0.00058 0.00819 -0.00089
Nd1B 0.0133 0.0197 0.0217 -0.00058 0.00819 0.00089
Nd1D 0.0133 0.0197 0.0217 -0.00058 0.00819 0.00089
O3A 0.034 0.047 0.035 -0.024 0.022 -0.019
O4G 0.026 0.062 0.038 -0.026 0.026 -0.024
O5B 0.024 0.018 0.04 0.008 0.012 0.0009
O5D 0.024 0.018 0.04 0.008 0.012 0.0009
O6B 0.022 0.02 0.047 0.008 0.008 -0.0003
loop_
_geom_bond_atom_site_label_1
_geom_bond_atom_site_label_2
_geom_bond_site_symmetry_1
_geom_bond_site_symmetry_2
Nd1 O1 1_555 1_555
O1 C1 1_555 1_555
O2 Nd1 1_555 1_555
O3 C9 1_555 1_555
O4 C9 1_555 1_555
O5 C16 1_555 1_555
O6 C16 1_555 1_555
N1 C8 1_555 1_555
N2 Nd1 1_555 1_555
N3 C17 1_555 1_555
N4 Nd1 1_555 1_555
N5 C20 1_555 1_555
C1 O2 1_555 1_555
C2 C1 1_555 1_555
C3 C2 1_555 1_555
H1 C3 1_555 1_555
C4 C3 1_555 1_555
H2 C4 1_555 1_555
C5 C4 1_555 1_555
C6 C5 1_555 1_555
H3 C6 1_555 1_555
C7 C2 1_555 1_555
H4 C7 1_555 1_555
C8 C5 1_555 1_555
C9 C10 1_555 1_555
C10 C11 1_555 1_555
C11 H5 1_555 1_555
C12 N1 1_555 1_555
C13 C12 1_555 1_555
H6 C13 1_555 1_555
C14 C13 1_555 1_555
C15 C10 1_555 1_555
H7 C15 1_555 1_555
C16 C14 1_555 1_555
C17 N2 1_555 1_555
H8 C17 1_555 1_555
C18 N2 1_555 1_555
H9 C18 1_555 1_555
C19 N3 1_555 1_555
H10 C19 1_555 1_555
C20 N4 1_555 1_555
H11 C20 1_555 1_555
C21 N5 1_555 1_555
H12 C21 1_555 1_555
C22 N4 1_555 1_555
H13 C22 1_555 1_555
H14 C8 1_555 1_555
Nd1A O3 1_555 1_555
Nd1G O4 1_555 1_555
Nd1B O5 1_555 1_555
Nd1D O5 1_555 1_555
O3A Nd1 1_555 1_555
O4G Nd1 1_555 1_555
O5B Nd1 1_555 1_555
O5D Nd1 1_555 1_555
O6B Nd1 1_555 1_555
O6 Nd1B 1_555 1_555
C6 C7 1_555 1_555
C11 C12 1_555 1_555
C14 C15 1_555 1_555
C18 C19 1_555 1_555
C21 C22 1_555 1_555

#END
