
#######################################################################
#
#                 Cambridge Crystallographic Data Centre
#                                CCDC 
#
#######################################################################
#
# If this CIF has been generated from an entry in the Cambridge 
# Structural Database, then it will include bibliographic, chemical, 
# crystal, experimental, refinement or atomic coordinate data resulting 
# from the CCDC's data processing and validation procedures.
#
#######################################################################

data_GEDRAK
_chemical_formula_moiety         '(C20 H20 N1 Nd1 O8)n'
_symmetry_cell_setting           monoclinic
_symmetry_space_group_name_H-M   'C 2/c'
_symmetry_Int_Tables_number      15
_space_group_name_Hall           '-C 2yc'
loop_
_symmetry_equiv_pos_site_id
_symmetry_equiv_pos_as_xyz
1 x,y,z
2 -x,y,1/2-z
3 1/2+x,1/2+y,z
4 1/2-x,1/2+y,1/2-z
5 -x,-y,-z
6 x,-y,1/2+z
7 1/2-x,1/2-y,-z
8 1/2+x,1/2-y,1/2+z
_cell_length_a                   28.6605(11)
_cell_length_b                   14.8265(9)
_cell_length_c                   12.6284(9)
_cell_angle_alpha                90
_cell_angle_beta                 103.357(5)
_cell_angle_gamma                90
_cell_volume                     5221.09
loop_
_atom_site_label
_atom_site_type_symbol
_atom_site_fract_x
_atom_site_fract_y
_atom_site_fract_z
_atom_site_U_iso_or_equiv
_atom_site_thermal_displace_type
Nd1 Nd 0.320095(11) 0.28497(2) 0.55718(3) 0.0269 Uani
O1 O 0.38438(16) 0.1795(3) 0.5278(4) 0.0380 Uani
O2 O 0.39270(18) 0.3220(4) 0.4850(5) 0.0551 Uani
O3 O 0.79546(15) -0.0723(3) 0.4586(4) 0.0415 Uani
O4 O 0.73129(14) -0.1538(3) 0.4613(3) 0.0307 Uani
O5 O 0.77351(15) 0.1771(4) 0.1875(4) 0.0386 Uani
O6 O 0.70131(16) 0.2418(3) 0.1339(4) 0.0340 Uani
O7 O 0.3628(3) 0.2091(4) 0.7289(5) 0.0705 Uani
O8 O 0.3656(2) 0.4067(5) 0.6769(6) 0.0823 Uani
N1 N 0.59584(17) 0.0765(4) 0.3477(5) 0.0350 Uani
C1 C 0.4056(2) 0.2405(5) 0.4894(6) 0.0341 Uani
C2 C 0.4495(2) 0.2175(5) 0.4475(6) 0.0335 Uani
C3 C 0.4781(3) 0.2852(5) 0.4208(8) 0.0523 Uani
H1 H 0.4688 0.3452 0.4227 0.0630 Uiso
C4 C 0.5203(3) 0.2639(5) 0.3911(7) 0.0465 Uani
H2 H 0.5397 0.3097 0.3751 0.0560 Uiso
C5 C 0.5339(2) 0.1746(5) 0.3852(5) 0.0348 Uani
C6 C 0.5041(2) 0.1062(5) 0.4076(5) 0.0352 Uani
H3 H 0.5123 0.0460 0.4015 0.0420 Uiso
C7 C 0.4620(2) 0.1284(5) 0.4393(5) 0.0326 Uani
H4 H 0.4422 0.0830 0.4548 0.0390 Uiso
C8 C 0.5803(2) 0.1552(5) 0.3589(5) 0.0326 Uani
C9 C 0.7508(2) -0.0832(4) 0.4356(5) 0.0286 Uani
C10 C 0.7191(2) -0.0088(4) 0.3755(5) 0.0277 Uani
C11 C 0.6712(2) -0.0010(4) 0.3840(5) 0.0298 Uani
H5 H 0.6584 -0.0424 0.4249 0.0360 Uiso
C12 C 0.6431(2) 0.0695(5) 0.3306(5) 0.0313 Uani
C13 C 0.6620(2) 0.1285(5) 0.2670(5) 0.0308 Uani
H6 H 0.6429 0.1744 0.2299 0.0370 Uiso
C14 C 0.7092(2) 0.1206(4) 0.2574(5) 0.0284 Uani
C15 C 0.7378(2) 0.0528(4) 0.3144(5) 0.0287 Uani
H7 H 0.7699 0.0489 0.3114 0.0340 Uiso
C16 C 0.7292(2) 0.1849(5) 0.1884(5) 0.0308 Uani
C17 C 0.3620(5) 0.2157(9) 0.8395(10) 0.1011 Uani
H8 H 0.3451 0.2699 0.8519 0.1210 Uiso
H9 H 0.3945 0.2189 0.8838 0.1210 Uiso
C18 C 0.3373(6) 0.1350(11) 0.8696(14) 0.1532 Uani
H10 H 0.3352 0.1398 0.9442 0.2290 Uiso
H11 H 0.3551 0.0818 0.8606 0.2290 Uiso
H12 H 0.3057 0.1311 0.8236 0.2290 Uiso
C19 C 0.3595(8) 0.4308(18) 0.7841(11) 0.2506 Uani
H13 H 0.3604 0.3697 0.8119 0.3010 Uiso
H14 H 0.3255 0.4438 0.7618 0.3010 Uiso
C20 C 0.3676(6) 0.4767(12) 0.8928(11) 0.1765 Uani
H15 H 0.3945 0.5169 0.9013 0.2650 Uiso
H16 H 0.3740 0.4322 0.9496 0.2650 Uiso
H17 H 0.3395 0.5104 0.8971 0.2650 Uiso
H18 H 0.599(3) 0.204(5) 0.361(7) 0.0600 Uiso
Nd1A Nd 0.679905(11) 0.28497(2) -0.05718(3) 0.0269 Uani
Nd1B Nd 0.820095(11) -0.21503(2) 0.55718(3) 0.0269 Uani
Nd1D Nd 0.679905(11) -0.28497(2) 0.44282(3) 0.0269 Uani
Nd1G Nd 0.820095(11) 0.21503(2) 0.05718(3) 0.0269 Uani
O3B O 0.29546(15) 0.4277(3) 0.4586(4) 0.0415 Uani
O4B O 0.23129(14) 0.3462(3) 0.4613(3) 0.0307 Uani
O4D O 0.26871(14) 0.1538(3) 0.5387(3) 0.0307 Uani
O5G O 0.27351(15) 0.3229(4) 0.6875(4) 0.0386 Uani
O6A O 0.29869(16) 0.2418(3) 0.3661(4) 0.0340 Uani
loop_
_atom_site_aniso_label
_atom_site_aniso_U_11
_atom_site_aniso_U_22
_atom_site_aniso_U_33
_atom_site_aniso_U_23
_atom_site_aniso_U_13
_atom_site_aniso_U_12
Nd1 0.0162(2) 0.0310(2) 0.0379(3) -0.00181(15) 0.01507(15) 0.00060(14)
O1 0.028(2) 0.040(3) 0.055(3) 0.011(2) 0.028(2) 0.010(2)
O2 0.040(3) 0.041(3) 0.099(5) -0.009(3) 0.046(3) -0.007(3)
O3 0.023 0.035 0.07 0.001 0.018 -0.004
O4 0.024 0.031 0.042 0 0.0174 0.0042
O5 0.023 0.057 0.041 0.013 0.018 -0.002
O6 0.028 0.039 0.04 0.005 0.018 0.002
O7 0.099(5) 0.069(5) 0.039(3) -0.003(3) 0.007(3) 0.015(4)
O8 0.058(4) 0.091(5) 0.097(5) -0.015(4) 0.016(4) -0.039(4)
N1 0.018(3) 0.042(3) 0.051(3) 0.005(3) 0.020(2) 0.003(3)
C1 0.023(3) 0.032(4) 0.050(4) -0.003(3) 0.014(3) 0.000(3)
C2 0.019(3) 0.045(4) 0.039(4) 0.004(3) 0.012(3) -0.001(3)
C3 0.035(4) 0.036(4) 0.096(7) 0.001(4) 0.036(4) 0.006(3)
C4 0.034(4) 0.042(4) 0.074(6) -0.001(4) 0.034(4) -0.001(4)
C5 0.025(3) 0.044(4) 0.039(4) -0.001(3) 0.015(3) 0.002(3)
C6 0.019(3) 0.039(4) 0.050(4) -0.004(3) 0.013(3) 0.004(3)
C7 0.021(3) 0.037(4) 0.044(4) 0.004(3) 0.016(3) 0.002(3)
C8 0.021(3) 0.039(4) 0.042(4) 0.006(3) 0.016(3) 0.001(3)
C9 0.023 0.029 0.04 0 0.02 0
C10 0.02 0.033 0.034 -0.002 0.014 0.001
C11 0.019 0.028 0.046 0.005 0.015 0.001
C12 0.022 0.042 0.034 -0.006 0.015 -0.006
C13 0.023 0.039 0.033 0.005 0.012 0.008
C14 0.022 0.033 0.034 -0.006 0.014 0.002
C15 0.018 0.038 0.033 -0.003 0.012 -0.002
C16 0.025 0.04 0.032 -0.001 0.016 -0.001
C17 0.101(10) 0.133(13) 0.068(8) 0.003(7) 0.017(7) -0.014(8)
C18 0.161(8) 0.153(8) 0.145(7) 0.000(5) 0.034(5) -0.012(5)
C19 0.265(10) 0.262(10) 0.231(8) -0.024(5) 0.070(5) 0.005(5)
C20 0.182(8) 0.180(8) 0.170(7) -0.011(5) 0.046(5) 0.004(5)
Nd1A 0.0162 0.031 0.0379 0.00181 0.01507 -0.0006
Nd1B 0.0162 0.031 0.0379 -0.00181 0.01507 0.0006
Nd1D 0.0162 0.031 0.0379 -0.00181 0.01507 0.0006
Nd1G 0.0162 0.031 0.0379 0.00181 0.01507 -0.0006
O3B 0.023 0.035 0.07 0.001 0.018 -0.004
O4B 0.024 0.031 0.042 0 0.0174 0.0042
O4D 0.024 0.031 0.042 0 0.0174 0.0042
O5G 0.023 0.057 0.041 -0.013 0.018 0.002
O6A 0.028 0.039 0.04 -0.005 0.018 -0.002
loop_
_geom_bond_atom_site_label_1
_geom_bond_atom_site_label_2
_geom_bond_site_symmetry_1
_geom_bond_site_symmetry_2
Nd1 O1 1_555 1_555
O1 C1 1_555 1_555
O2 Nd1 1_555 1_555
O3 C9 1_555 1_555
O4 C9 1_555 1_555
O5 C16 1_555 1_555
O6 C16 1_555 1_555
O7 Nd1 1_555 1_555
O8 Nd1 1_555 1_555
N1 C8 1_555 1_555
C1 O2 1_555 1_555
C2 C1 1_555 1_555
C3 C2 1_555 1_555
H1 C3 1_555 1_555
C4 C3 1_555 1_555
H2 C4 1_555 1_555
C5 C4 1_555 1_555
C6 C5 1_555 1_555
H3 C6 1_555 1_555
C7 C2 1_555 1_555
H4 C7 1_555 1_555
C8 C5 1_555 1_555
C9 C10 1_555 1_555
C10 C11 1_555 1_555
C11 H5 1_555 1_555
C12 N1 1_555 1_555
C13 C12 1_555 1_555
H6 C13 1_555 1_555
C14 C13 1_555 1_555
C15 C10 1_555 1_555
H7 C15 1_555 1_555
C16 C14 1_555 1_555
C17 O7 1_555 1_555
H8 C17 1_555 1_555
H9 C17 1_555 1_555
C18 C17 1_555 1_555
H10 C18 1_555 1_555
H11 C18 1_555 1_555
H12 C18 1_555 1_555
C19 O8 1_555 1_555
H13 C19 1_555 1_555
H14 C19 1_555 1_555
C20 C19 1_555 1_555
H15 C20 1_555 1_555
H16 C20 1_555 1_555
H17 C20 1_555 1_555
H18 C8 1_555 1_555
Nd1A O6 1_555 1_555
Nd1B O3 1_555 1_555
Nd1D O4 1_555 1_555
Nd1G O5 1_555 1_555
O3B Nd1 1_555 1_555
O4B Nd1 1_555 1_555
O4D Nd1 1_555 1_555
O5G Nd1 1_555 1_555
O6A Nd1 1_555 1_555
O4 Nd1B 1_555 1_555
C6 C7 1_555 1_555
C11 C12 1_555 1_555
C14 C15 1_555 1_555

#END
