
#######################################################################
#
#                 Cambridge Crystallographic Data Centre
#                                CCDC 
#
#######################################################################
#
# If this CIF has been generated from an entry in the Cambridge 
# Structural Database, then it will include bibliographic, chemical, 
# crystal, experimental, refinement or atomic coordinate data resulting 
# from the CCDC's data processing and validation procedures.
#
#######################################################################

data_GEDSAL
_chemical_formula_moiety         '(C22 H20 N1 Nd1 O8)n'
_symmetry_cell_setting           monoclinic
_symmetry_space_group_name_H-M   'C 2/c'
_symmetry_Int_Tables_number      15
_space_group_name_Hall           '-C 2yc'
loop_
_symmetry_equiv_pos_site_id
_symmetry_equiv_pos_as_xyz
1 x,y,z
2 -x,y,1/2-z
3 1/2+x,1/2+y,z
4 1/2-x,1/2+y,1/2-z
5 -x,-y,-z
6 x,-y,1/2+z
7 1/2-x,1/2-y,-z
8 1/2+x,1/2-y,1/2+z
_cell_length_a                   28.6181(18)
_cell_length_b                   14.4649(10)
_cell_length_c                   12.8273(10)
_cell_angle_alpha                90
_cell_angle_beta                 103.661(7)
_cell_angle_gamma                90
_cell_volume                     5159.74
loop_
_atom_site_label
_atom_site_type_symbol
_atom_site_fract_x
_atom_site_fract_y
_atom_site_fract_z
_atom_site_U_iso_or_equiv
_atom_site_thermal_displace_type
Nd1 Nd 0.819715(12) 0.28617(3) 0.55916(3) 0.0286 Uani
O1 O 0.8939(2) 0.3271(4) 0.4988(6) 0.0606 Uani
O2 O 0.88422(18) 0.1796(4) 0.5280(4) 0.0451 Uani
O3 O 1.29466(16) -0.0654(3) 0.4649(4) 0.0386 Uani
O4 O 1.23130(16) -0.1510(3) 0.4639(4) 0.0319 Uani
O5 O 1.27158(17) 0.1775(4) 0.1849(4) 0.0408 Uani
O6 O 1.19930(17) 0.2464(4) 0.1288(4) 0.0349 Uani
O7 O 0.8560(3) 0.2017(5) 0.7282(5) 0.0911 Uani
O8 O 0.8635(3) 0.4049(8) 0.6812(7) 0.1295 Uani
N1 N 1.0960(2) 0.0869(5) 0.3522(5) 0.0425 Uani
C1 C 0.9062(3) 0.2452(6) 0.4966(7) 0.0407 Uani
C2 C 0.9498(3) 0.2230(5) 0.4530(7) 0.0418 Uani
C3 C 0.9629(2) 0.1314(5) 0.4418(6) 0.0402 Uani
H1 H 0.9439 0.0838 0.4579 0.0480 Uiso
C4 C 1.0042(3) 0.1103(6) 0.4070(6) 0.0461 Uani
H2 H 1.0125 0.0491 0.3984 0.0550 Uiso
C5 C 1.0334(3) 0.1838(6) 0.3847(7) 0.0495 Uani
C6 C 1.0201(4) 0.2754(6) 0.3962(10) 0.0696 Uani
H3 H 1.0397 0.3235 0.3840 0.0830 Uiso
C7 C 0.9772(3) 0.2944(6) 0.4262(10) 0.0671 Uani
H4 H 0.9669 0.3553 0.4283 0.0810 Uiso
C8 C 1.0791(3) 0.1676(7) 0.3566(7) 0.0519 Uani
H5 H 1.097(3) 0.228(4) 0.353(7) 0.0620 Uiso
C9 C 1.2507(2) -0.0767(5) 0.4391(6) 0.0328 Uani
C10 C 1.2190(2) -0.0041(5) 0.3788(5) 0.0289 Uani
C11 C 1.1712(2) 0.0051(5) 0.3867(6) 0.0340 Uani
H6 H 1.1580 -0.0373 0.4261 0.0410 Uiso
C12 C 1.1436(2) 0.0792(5) 0.3342(6) 0.0343 Uani
C13 C 1.1612(2) 0.1364(5) 0.2673(5) 0.0329 Uani
H7 H 1.1417 0.1822 0.2285 0.0390 Uiso
C14 C 1.2084(2) 0.1254(5) 0.2579(5) 0.0301 Uani
C15 C 1.2366(2) 0.0574(5) 0.3156(5) 0.0286 Uani
H8 H 1.2686 0.0528 0.3119 0.0340 Uiso
C16 C 1.2277(3) 0.1893(5) 0.1845(6) 0.0333 Uani
C17 C 0.8867(5) 0.1516(9) 0.7881(9) 0.1334 Uani
C18 C 0.8697(7) 0.0915(10) 0.8673(11) 0.1599 Uani
H9 H 0.8390 0.1128 0.8750 0.2410 Uiso
H10 H 0.8925 0.0944 0.9355 0.2410 Uiso
H11 H 0.8669 0.0287 0.8421 0.2410 Uiso
C19 C 0.9354(4) 0.1209(13) 0.7741(13) 0.2151 Uani
H12 H 0.9453 0.1604 0.7231 0.3220 Uiso
H13 H 0.9334 0.0582 0.7487 0.3220 Uiso
H14 H 0.9585 0.1246 0.8418 0.3220 Uiso
C20 C 0.8725(11) 0.4603(14) 0.7585(14) 0.2335 Uani
C21 C 0.8612(10) 0.5600(17) 0.730(2) 0.2662 Uani
H15 H 0.8551 0.5674 0.6533 0.4000 Uiso
H16 H 0.8880 0.5979 0.7637 0.4000 Uiso
H17 H 0.8333 0.5783 0.7538 0.4000 Uiso
C22 C 0.8812(9) 0.4620(17) 0.8788(14) 0.2089 Uani
H18 H 0.8871 0.4003 0.9062 0.3130 Uiso
H19 H 0.8535 0.4867 0.8988 0.3130 Uiso
H20 H 0.9087 0.5001 0.9081 0.3130 Uiso
Nd1B Nd 1.319715(12) -0.21383(3) 0.55916(3) 0.0286 Uani
Nd1D Nd 1.180285(12) -0.28617(3) 0.44084(3) 0.0286 Uani
Nd1G Nd 1.319715(12) 0.21383(3) 0.05916(3) 0.0286 Uani
Nd1A Nd 1.180285(12) 0.28617(3) -0.05916(3) 0.0286 Uani
O3B O 0.79466(16) 0.4346(3) 0.4649(4) 0.0386 Uani
O4B O 0.73130(16) 0.3490(3) 0.4639(4) 0.0319 Uani
O4D O 0.76870(16) 0.1510(3) 0.5361(4) 0.0319 Uani
O5G O 0.77158(17) 0.3225(4) 0.6849(4) 0.0408 Uani
O6A O 0.80070(17) 0.2464(4) 0.3712(4) 0.0349 Uani
loop_
_atom_site_aniso_label
_atom_site_aniso_U_11
_atom_site_aniso_U_22
_atom_site_aniso_U_33
_atom_site_aniso_U_23
_atom_site_aniso_U_13
_atom_site_aniso_U_12
Nd1 0.0185(2) 0.0343(3) 0.0369(3) -0.00147(16) 0.01446(17) 0.00200(15)
O1 0.042(3) 0.039(3) 0.118(5) -0.011(3) 0.053(4) -0.001(3)
O2 0.035(3) 0.047(3) 0.065(4) 0.010(3) 0.035(3) 0.009(3)
O3 0.022 0.035 0.061 -0.002 0.014 -0.001
O4 0.029 0.03 0.043 0.002 0.021 0.002
O5 0.024 0.06 0.044 0.008 0.019 -0.006
O6 0.032 0.04 0.038 0.005 0.019 0
O7 0.098(6) 0.128(7) 0.041(4) 0.003(4) 0.004(4) 0.075(5)
O8 0.077(5) 0.225(9) 0.093(6) -0.033(6) 0.033(5) -0.092(6)
N1 0.027(3) 0.051(4) 0.058(4) 0.016(3) 0.027(3) 0.012(3)
C1 0.019(4) 0.053(5) 0.053(5) -0.007(4) 0.014(3) 0.000(4)
C2 0.021(4) 0.057(5) 0.053(5) 0.003(4) 0.020(4) 0.005(3)
C3 0.028(4) 0.042(5) 0.056(5) 0.004(4) 0.021(3) 0.007(3)
C4 0.046(5) 0.048(5) 0.052(5) 0.009(4) 0.027(4) 0.005(4)
C5 0.038(5) 0.054(5) 0.066(6) 0.011(4) 0.031(4) 0.012(4)
C6 0.054(6) 0.052(6) 0.123(10) 0.011(5) 0.061(6) 0.000(4)
C7 0.050(6) 0.043(5) 0.127(9) 0.006(5) 0.058(6) 0.005(4)
C8 0.035(4) 0.060(6) 0.070(6) 0.009(5) 0.031(4) 0.011(4)
C9 0.031 0.026 0.05 -0.009 0.027 -0.003
C10 0.023 0.033 0.033 -0.001 0.011 0
C11 0.023 0.037 0.051 0.008 0.027 0
C12 0.021 0.042 0.047 0.007 0.022 0.005
C13 0.024 0.039 0.039 0.008 0.014 0.012
C14 0.028 0.034 0.034 0 0.019 0.001
C15 0.019 0.032 0.039 -0.002 0.015 -0.001
C16 0.031 0.039 0.034 -0.001 0.016 -0.006
C17 0.144(14) 0.166(15) 0.069(9) 0.000(10) -0.017(9) 0.013(13)
C18 0.28(2) 0.107(12) 0.085(10) -0.014(9) 0.028(13) -0.007(14)
C19 0.107(12) 0.220(19) 0.243(19) 0.122(16) -0.109(13) -0.067(13)
C20 0.242(9) 0.236(8) 0.222(8) -0.019(5) 0.054(5) -0.002(5)
C21 0.274(10) 0.256(8) 0.269(9) 0.007(5) 0.065(5) 0.003(5)
C22 0.214(8) 0.212(8) 0.197(7) -0.027(5) 0.041(5) 0.006(5)
Nd1B 0.0185 0.0343 0.0369 -0.00147 0.01446 0.002
Nd1D 0.0185 0.0343 0.0369 -0.00147 0.01446 0.002
Nd1G 0.0185 0.0343 0.0369 0.00147 0.01446 -0.002
Nd1A 0.0185 0.0343 0.0369 0.00147 0.01446 -0.002
O3B 0.022 0.035 0.061 -0.002 0.014 -0.001
O4B 0.029 0.03 0.043 0.002 0.021 0.002
O4D 0.029 0.03 0.043 0.002 0.021 0.002
O5G 0.024 0.06 0.044 -0.008 0.019 0.006
O6A 0.032 0.04 0.038 -0.005 0.019 0
loop_
_geom_bond_atom_site_label_1
_geom_bond_atom_site_label_2
_geom_bond_site_symmetry_1
_geom_bond_site_symmetry_2
Nd1 O1 1_555 1_555
O1 C1 1_555 1_555
O2 Nd1 1_555 1_555
O3 C9 1_555 1_555
O4 C9 1_555 1_555
O5 C16 1_555 1_555
O6 C16 1_555 1_555
O7 Nd1 1_555 1_555
O8 Nd1 1_555 1_555
N1 C8 1_555 1_555
C1 O2 1_555 1_555
C2 C1 1_555 1_555
C3 C2 1_555 1_555
H1 C3 1_555 1_555
C4 C3 1_555 1_555
H2 C4 1_555 1_555
C5 C4 1_555 1_555
C6 C5 1_555 1_555
H3 C6 1_555 1_555
C7 C2 1_555 1_555
H4 C7 1_555 1_555
C8 C5 1_555 1_555
H5 C8 1_555 1_555
C9 C10 1_555 1_555
C10 C11 1_555 1_555
C11 H6 1_555 1_555
C12 N1 1_555 1_555
C13 C12 1_555 1_555
H7 C13 1_555 1_555
C14 C13 1_555 1_555
C15 C10 1_555 1_555
H8 C15 1_555 1_555
C16 C14 1_555 1_555
C17 O7 1_555 1_555
C18 C17 1_555 1_555
H9 C18 1_555 1_555
H10 C18 1_555 1_555
H11 C18 1_555 1_555
C19 C17 1_555 1_555
H12 C19 1_555 1_555
H13 C19 1_555 1_555
H14 C19 1_555 1_555
C20 O8 1_555 1_555
C21 C20 1_555 1_555
H15 C21 1_555 1_555
H16 C21 1_555 1_555
H17 C21 1_555 1_555
C22 C20 1_555 1_555
H18 C22 1_555 1_555
H19 C22 1_555 1_555
H20 C22 1_555 1_555
Nd1B O3 1_555 1_555
Nd1D O4 1_555 1_555
Nd1G O5 1_555 1_555
Nd1A O6 1_555 1_555
O3B Nd1 1_555 1_555
O4B Nd1 1_555 1_555
O4D Nd1 1_555 1_555
O5G Nd1 1_555 1_555
O6A Nd1 1_555 1_555
O4 Nd1B 1_555 1_555
C6 C7 1_555 1_555
C11 C12 1_555 1_555
C14 C15 1_555 1_555

#END
