
#######################################################################
#
#                 Cambridge Crystallographic Data Centre
#                                CCDC 
#
#######################################################################
#
# If this CIF has been generated from an entry in the Cambridge 
# Structural Database, then it will include bibliographic, chemical, 
# crystal, experimental, refinement or atomic coordinate data resulting 
# from the CCDC's data processing and validation procedures.
#
#######################################################################

data_GEDSEP
_chemical_formula_moiety         '(C18 H14 N5 Nd1 O7)n'
_symmetry_cell_setting           monoclinic
_symmetry_space_group_name_H-M   'C 2/c'
_symmetry_Int_Tables_number      15
_space_group_name_Hall           '-C 2yc'
loop_
_symmetry_equiv_pos_site_id
_symmetry_equiv_pos_as_xyz
1 x,y,z
2 -x,y,1/2-z
3 1/2+x,1/2+y,z
4 1/2-x,1/2+y,1/2-z
5 -x,-y,-z
6 x,-y,1/2+z
7 1/2-x,1/2-y,-z
8 1/2+x,1/2-y,1/2+z
_cell_length_a                   28.9274(17)
_cell_length_b                   13.8282(7)
_cell_length_c                   13.1654(11)
_cell_angle_alpha                90
_cell_angle_beta                 102.340(7)
_cell_angle_gamma                90
_cell_volume                     5144.67
loop_
_atom_site_label
_atom_site_type_symbol
_atom_site_fract_x
_atom_site_fract_y
_atom_site_fract_z
_atom_site_U_iso_or_equiv
_atom_site_thermal_displace_type
Nd1 Nd 0.818126(9) 0.293134(18) 0.05933(2) 0.0325 Uani
O1 O 0.88740(17) 0.1959(3) 0.0366(5) 0.0717 Uani
O2 O 0.88881(12) 0.3464(3) -0.0143(3) 0.0389 Uani
O3 O 1.29164(13) -0.0539(2) -0.0346(3) 0.0396 Uani
O4 O 1.23066(13) -0.1501(2) -0.0338(3) 0.0405 Uani
O5 O 1.26772(14) 0.1815(3) -0.3198(4) 0.0532 Uani
O6 O 1.19636(14) 0.2502(3) -0.3771(3) 0.0488 Uani
O7 O 0.8563(2) 0.2059(4) 0.2278(5) 0.0809 Uani
N1 N 1.09427(19) 0.0958(4) -0.1445(5) 0.0629 Uani
N2 N 0.86168(17) 0.4306(3) 0.1825(4) 0.0444 Uani
N3 N 0.8856(2) 0.5864(4) 0.2096(5) 0.0654 Uani
N4 N 0.87396(19) 0.5478(4) 0.2983(4) 0.0515 Uani
N5 N 0.8510(2) 0.3986(4) 0.3576(5) 0.0699 Uani
C1 C 0.9060(2) 0.2630(4) -0.0066(5) 0.0463 Uani
C2 C 0.9496(2) 0.2416(4) -0.0455(6) 0.0516 Uani
C3 C 0.9637(3) 0.1462(5) -0.0527(9) 0.1015 Uani
H1 H 0.9450 0.0961 -0.0365 0.1220 Uiso
C4 C 1.0056(3) 0.1254(5) -0.0839(9) 0.1146 Uani
H2 H 1.0157 0.0617 -0.0856 0.1370 Uiso
C5 C 1.0322(3) 0.1992(4) -0.1124(7) 0.0680 Uani
C6 C 1.0168(3) 0.2931(4) -0.1104(7) 0.0670 Uani
H3 H 1.0343 0.3430 -0.1309 0.0810 Uiso
C7 C 0.9757(2) 0.3136(5) -0.0781(6) 0.0580 Uani
H4 H 0.9654 0.3773 -0.0783 0.0700 Uiso
C8 C 1.0782(3) 0.1809(5) -0.1409(7) 0.0669 Uani
C9 C 1.24791(18) -0.0713(4) -0.0591(4) 0.0359 Uani
C10 C 1.21544(18) 0.0019(4) -0.1202(4) 0.0362 Uani
C11 C 1.1686(2) 0.0123(4) -0.1112(5) 0.0463 Uani
H5 H 1.1560 -0.0302 -0.0696 0.0560 Uiso
C12 C 1.1407(2) 0.0856(4) -0.1637(6) 0.0497 Uani
C13 C 1.15810(19) 0.1445(4) -0.2334(5) 0.0438 Uani
H6 H 1.1390 0.1919 -0.2712 0.0520 Uiso
C14 C 1.20415(19) 0.1314(4) -0.2455(5) 0.0398 Uani
C15 C 1.23328(18) 0.0620(4) -0.1870(4) 0.0391 Uani
H7 H 1.2646 0.0559 -0.1929 0.0470 Uiso
C16 C 1.2240(2) 0.1927(4) -0.3211(5) 0.0427 Uani
C17 C 0.8604(2) 0.4567(4) 0.2795(5) 0.0450 Uani
C18 C 0.8776(2) 0.5136(5) 0.1447(5) 0.0562 Uani
H8 H 0.8824 0.5180 0.0772 0.0680 Uiso
H9 H 1.093(3) 0.229(6) -0.162(7) 0.0900 Uiso
H10 H 0.881(3) 0.586(5) 0.364(3) 0.1030 Uiso
Nd1B Nd 1.318126(9) -0.206866(18) 0.05933(2) 0.0325 Uani
Nd1D Nd 1.181874(9) -0.293134(18) -0.05933(2) 0.0325 Uani
Nd1G Nd 1.318126(9) 0.206866(18) -0.44067(2) 0.0325 Uani
Nd1A Nd 1.181874(9) 0.293134(18) -0.55933(2) 0.0325 Uani
O3B O 0.79164(13) 0.4461(2) -0.0346(3) 0.0396 Uani
O4B O 0.73066(13) 0.3499(2) -0.0338(3) 0.0405 Uani
O4D O 0.76934(13) 0.1501(2) 0.0338(3) 0.0405 Uani
O5G O 0.76772(14) 0.3185(3) 0.1802(4) 0.0532 Uani
O6A O 0.80364(14) 0.2502(3) -0.1229(3) 0.0488 Uani
loop_
_atom_site_aniso_label
_atom_site_aniso_U_11
_atom_site_aniso_U_22
_atom_site_aniso_U_33
_atom_site_aniso_U_23
_atom_site_aniso_U_13
_atom_site_aniso_U_12
Nd1 0.03001(17) 0.02503(16) 0.0524(2) -0.00082(14) 0.03100(13) -0.00056(11)
O1 0.058(3) 0.054(3) 0.127(4) 0.045(3) 0.073(3) 0.028(2)
O2 0.0344(18) 0.0310(19) 0.062(2) 0.0008(18) 0.0342(18) 0.0019(16)
O3 0.0378 0.0264 0.063 0.003 0.0298 -0.0003
O4 0.041 0.0255 0.067 0.0046 0.038 0.0037
O5 0.042 0.06 0.073 0.021 0.047 0.013
O6 0.051 0.049 0.06 0.02 0.042 0.019
O7 0.115(5) 0.062(3) 0.072(3) -0.013(3) 0.034(3) -0.019(3)
N1 0.051(3) 0.046(3) 0.112(5) 0.027(3) 0.063(3) 0.020(3)
N2 0.047(3) 0.039(3) 0.057(3) -0.006(2) 0.033(2) -0.009(2)
N3 0.085(4) 0.049(3) 0.073(4) -0.004(3) 0.041(3) -0.020(3)
N4 0.059(3) 0.045(3) 0.060(3) -0.010(3) 0.034(3) -0.014(3)
N5 0.075(4) 0.068(4) 0.076(4) 0.012(4) 0.037(3) -0.002(3)
C1 0.038(3) 0.043(3) 0.069(4) 0.022(3) 0.036(3) 0.015(3)
C2 0.041(3) 0.040(3) 0.087(5) 0.020(3) 0.043(3) 0.014(3)
C3 0.092(6) 0.045(4) 0.207(11) 0.046(6) 0.120(7) 0.026(4)
C4 0.105(6) 0.049(4) 0.235(12) 0.060(6) 0.137(8) 0.036(5)
C5 0.063(4) 0.045(4) 0.120(7) 0.033(4) 0.073(5) 0.024(3)
C6 0.062(4) 0.040(3) 0.121(7) 0.025(4) 0.069(5) 0.013(3)
C7 0.052(4) 0.041(3) 0.099(5) 0.025(4) 0.056(4) 0.017(3)
C8 0.057(4) 0.047(4) 0.118(7) 0.032(4) 0.066(5) 0.021(3)
C9 0.038 0.025 0.055 -0.002 0.033 0
C10 0.036 0.025 0.057 -0.003 0.031 0.005
C11 0.048 0.03 0.077 0.013 0.049 0.006
C12 0.038 0.04 0.085 0.014 0.044 0.008
C13 0.037 0.039 0.066 0.01 0.035 0.012
C14 0.038 0.034 0.059 0.005 0.036 0.006
C15 0.036 0.035 0.057 0 0.034 0.002
C16 0.048 0.042 0.052 0.017 0.042 0.017
C17 0.041(3) 0.043(3) 0.058(4) 0.001(3) 0.026(3) -0.001(3)
C18 0.073(4) 0.048(4) 0.057(4) -0.002(3) 0.035(4) -0.010(3)
Nd1B 0.03001 0.02503 0.0524 -0.00082 0.031 -0.00056
Nd1D 0.03001 0.02503 0.0524 -0.00082 0.031 -0.00056
Nd1G 0.03001 0.02503 0.0524 0.00082 0.031 0.00056
Nd1A 0.03001 0.02503 0.0524 0.00082 0.031 0.00056
O3B 0.0378 0.0264 0.063 0.003 0.0298 -0.0003
O4B 0.041 0.0255 0.067 0.0046 0.038 0.0037
O4D 0.041 0.0255 0.067 0.0046 0.038 0.0037
O5G 0.042 0.06 0.073 -0.021 0.047 -0.013
O6A 0.051 0.049 0.06 -0.02 0.042 -0.019
loop_
_geom_bond_atom_site_label_1
_geom_bond_atom_site_label_2
_geom_bond_site_symmetry_1
_geom_bond_site_symmetry_2
Nd1 O1 1_555 1_555
O1 C1 1_555 1_555
O2 Nd1 1_555 1_555
O3 C9 1_555 1_555
O4 C9 1_555 1_555
O5 C16 1_555 1_555
O6 C16 1_555 1_555
O7 Nd1 1_555 1_555
N1 C8 1_555 1_555
N2 Nd1 1_555 1_555
N3 N4 1_555 1_555
N4 C17 1_555 1_555
N5 C17 1_555 1_555
C1 O2 1_555 1_555
C2 C1 1_555 1_555
C3 C2 1_555 1_555
H1 C3 1_555 1_555
C4 C3 1_555 1_555
H2 C4 1_555 1_555
C5 C4 1_555 1_555
C6 C5 1_555 1_555
H3 C6 1_555 1_555
C7 C2 1_555 1_555
H4 C7 1_555 1_555
C8 C5 1_555 1_555
C9 C10 1_555 1_555
C10 C11 1_555 1_555
C11 H5 1_555 1_555
C12 N1 1_555 1_555
C13 C12 1_555 1_555
H6 C13 1_555 1_555
C14 C13 1_555 1_555
C15 C10 1_555 1_555
H7 C15 1_555 1_555
C16 C14 1_555 1_555
C17 N2 1_555 1_555
C18 N2 1_555 1_555
H8 C18 1_555 1_555
H9 C8 1_555 1_555
H10 N4 1_555 1_555
Nd1B O3 1_555 1_555
Nd1D O4 1_555 1_555
Nd1G O5 1_555 1_555
Nd1A O6 1_555 1_555
O3B Nd1 1_555 1_555
O4B Nd1 1_555 1_555
O4D Nd1 1_555 1_555
O5G Nd1 1_555 1_555
O6A Nd1 1_555 1_555
O4 Nd1B 1_555 1_555
N3 C18 1_555 1_555
C6 C7 1_555 1_555
C11 C12 1_555 1_555
C14 C15 1_555 1_555

#END
