
#######################################################################
#
#                 Cambridge Crystallographic Data Centre
#                                CCDC 
#
#######################################################################
#
# If this CIF has been generated from an entry in the Cambridge 
# Structural Database, then it will include bibliographic, chemical, 
# crystal, experimental, refinement or atomic coordinate data resulting 
# from the CCDC's data processing and validation procedures.
#
#######################################################################

data_PURQID
_chemical_formula_moiety         '(C16 H33 Ce2 Na1 O26)n'
_symmetry_cell_setting           monoclinic
_symmetry_space_group_name_H-M   'C 2/c'
_symmetry_Int_Tables_number      15
_space_group_name_Hall           '-C 2yc'
loop_
_symmetry_equiv_pos_site_id
_symmetry_equiv_pos_as_xyz
1 x,y,z
2 -x,y,1/2-z
3 1/2+x,1/2+y,z
4 1/2-x,1/2+y,1/2-z
5 -x,-y,-z
6 x,-y,1/2+z
7 1/2-x,1/2-y,-z
8 1/2+x,1/2-y,1/2+z
_cell_length_a                   22.150(19)
_cell_length_b                   9.893(8)
_cell_length_c                   16.447(14)
_cell_angle_alpha                90
_cell_angle_beta                 114.538(15)
_cell_angle_gamma                90
_cell_volume                     3278.54
loop_
_atom_site_label
_atom_site_type_symbol
_atom_site_fract_x
_atom_site_fract_y
_atom_site_fract_z
_atom_site_U_iso_or_equiv
_atom_site_thermal_displace_type
Ce1 Ce 0.66455(3) 0.38721(7) 0.79392(4) 0.0226 Uani
O1 O 0.6742(5) 0.6293(9) 0.8518(6) 0.0326 Uani
C1 C 0.7359(7) 0.6242(13) 0.9064(8) 0.0263 Uani
H1 H 0.595(5) 0.771(12) 0.821(8) 0.0200 Uiso
H2 H 0.567(7) 0.846(7) 0.867(10) 0.0500 Uiso
Na1 Na 0.5000 0.6057(9) 0.7500 0.0403 Uani
O2 O 0.7693(4) 0.5162(9) 0.9122(6) 0.0252 Uani
C2 C 0.7648(6) 0.7454(13) 0.9649(7) 0.0207 Uani
H3 H 0.8140 0.7342 0.9965 0.0240 Uiso
O3 O 0.7749(5) 0.9858(9) 0.7972(6) 0.0326 Uani
C3 C 0.7497(7) 0.8732(12) 0.9097(8) 0.0233 Uani
H4 H 0.7691 0.9510 0.9500 0.0280 Uiso
H5 H 0.7010 0.8863 0.8809 0.0280 Uiso
O4 O 0.7973(5) 0.7692(9) 0.8178(6) 0.0317 Uani
C4 C 0.7763(6) 0.8734(12) 0.8369(8) 0.0171 Uani
O5 O 0.5682(4) 0.4242(11) 0.8407(6) 0.0314 Uani
C5 C 0.6021(6) 0.3939(13) 0.9223(8) 0.0234 Uani
O6 O 0.6611(4) 0.3455(10) 0.9467(6) 0.0276 Uani
C6 C 0.5727(7) 0.4033(15) 0.9892(9) 0.0302 Uani
H6 H 0.6075 0.4354 1.0465 0.0360 Uiso
H7 H 0.5595 0.3115 0.9993 0.0360 Uiso
O7 O 0.4273(5) 0.5515(11) 0.8184(6) 0.0315 Uani
C7 C 0.5127(6) 0.4965(15) 0.9627(7) 0.0252 Uani
H8 H 0.5273 0.5894 0.9550 0.0300 Uiso
O8 O 0.4360(5) 0.3395(12) 0.8633(6) 0.0441 Uani
C8 C 0.4562(7) 0.4580(17) 0.8767(9) 0.0329 Uani
O9 O 0.7648(5) 0.2320(10) 0.8736(6) 0.0349 Uani
O10 O 0.6212(7) 0.1430(13) 0.7821(9) 0.0543 Uani
O11 O 0.5672(8) 0.7694(16) 0.8434(14) 0.0974 Uani
H9 H 0.753(12) 0.155(9) 0.849(10) 0.1300 Uiso
H10 H 0.611(10) 0.18(3) 0.731(8) 0.1400 Uiso
H11 H 0.773(6) 0.284(10) 0.839(7) 0.0200 Uiso
H12 H 0.588(7) 0.10(2) 0.784(14) 0.1100 Uiso
Ce1D Ce 0.33545(3) 0.61279(7) 1.20608(4) 0.0226 Uani
Ce1C Ce 0.83545(3) 0.88721(7) 0.70608(4) 0.0226 Uani
Ce1A Ce 0.33545(3) 0.38721(7) 0.70608(4) 0.0226 Uani
Ce1F Ce 0.83545(3) 1.11279(7) 1.20608(4) 0.0226 Uani
Ce1E Ce 0.66455(3) 0.61279(7) 1.29392(4) 0.0226 Uani
O1F O 0.8258(5) 0.8707(9) 1.1482(6) 0.0326 Uani
O1D O 0.3258(5) 0.3707(9) 1.1482(6) 0.0326 Uani
C1F C 0.7641(7) 0.8758(13) 1.0936(8) 0.0263 Uani
H1A H 0.405(5) 0.771(12) 0.679(8) 0.0200 Uiso
H2A H 0.433(7) 0.846(7) 0.633(10) 0.0500 Uiso
Na1D Na 0.5000 0.3943(9) 1.2500 0.0403 Uani
O2F O 0.7307(4) 0.9838(9) 1.0878(6) 0.0252 Uani
O2D O 0.2307(4) 0.4838(9) 1.0878(6) 0.0252 Uani
C2F C 0.7352(6) 0.7546(13) 1.0351(7) 0.0207 Uani
H3F H 0.6860 0.7658 1.0035 0.0240 Uiso
O3F O 0.7251(5) 0.5142(9) 1.2028(6) 0.0326 Uani
O3C O 0.7251(5) 0.4858(9) 0.7028(6) 0.0326 Uani
O3G O 0.2749(5) 0.5142(9) 1.2972(6) 0.0326 Uani
C3F C 0.7503(7) 0.6268(12) 1.0903(8) 0.0233 Uani
H4F H 0.7309 0.5490 1.0500 0.0280 Uiso
H5F H 0.7990 0.6137 1.1191 0.0280 Uiso
O4F O 0.7027(5) 0.7308(9) 1.1822(6) 0.0317 Uani
O4C O 0.7027(5) 0.2692(9) 0.6822(6) 0.0317 Uani
O4G O 0.2973(5) 0.7308(9) 1.3178(6) 0.0317 Uani
C4F C 0.7237(6) 0.6266(12) 1.1631(8) 0.0171 Uani
O5D O 0.4318(4) 0.5758(11) 1.1593(6) 0.0314 Uani
O5A O 0.4318(4) 0.4242(11) 0.6593(6) 0.0314 Uani
C5D C 0.3979(6) 0.6061(13) 1.0777(8) 0.0234 Uani
O6D O 0.3389(4) 0.6545(10) 1.0533(6) 0.0276 Uani
C6D C 0.4273(7) 0.5967(15) 1.0108(9) 0.0302 Uani
H6D H 0.3925 0.5646 0.9535 0.0360 Uiso
H7D H 0.4405 0.6885 1.0007 0.0360 Uiso
O7D O 0.5727(5) 0.4485(11) 1.1816(6) 0.0315 Uani
O7A O 0.5727(5) 0.5515(11) 0.6816(6) 0.0315 Uani
O7E O 0.4273(5) 0.4485(11) 1.3184(6) 0.0315 Uani
C7D C 0.4873(6) 0.5035(15) 1.0373(7) 0.0252 Uani
H8D H 0.4727 0.4106 1.0450 0.0300 Uiso
O8D O 0.5640(5) 0.6605(12) 1.1367(6) 0.0441 Uani
O8A O 0.5640(5) 0.3395(12) 0.6367(6) 0.0441 Uani
O8E O 0.4360(5) 0.6605(12) 1.3633(6) 0.0441 Uani
C8D C 0.5438(7) 0.5420(17) 1.1233(9) 0.0329 Uani
O9D O 0.2352(5) 0.7680(10) 1.1264(6) 0.0349 Uani
O10D O 0.3788(7) 0.8570(13) 1.2179(9) 0.0543 Uani
O11A O 0.4328(8) 0.7694(16) 0.6566(14) 0.0974 Uani
H9D H 0.247(12) 0.845(9) 1.151(10) 0.1300 Uiso
H10D H 0.389(10) 0.82(3) 1.269(8) 0.1400 Uiso
H11D H 0.227(6) 0.716(10) 1.161(7) 0.0200 Uiso
H12D H 0.412(7) 0.90(2) 1.216(14) 0.1100 Uiso
O12 O 0.6594(6) 0.0457(12) 0.6701(7) 0.0420 Uani
H13 H 0.678(10) 0.10(2) 0.649(17) 0.1700 Uiso
H14 H 0.620(5) 0.03(3) 0.631(13) 0.1370 Uiso
O13 O 0.6090(13) 0.017(3) 0.9379(15) 0.1455 Uani
H15 H 0.589(15) 0.00(4) 0.974(18) 0.1370 Uiso
O14 O 0.3808(13) 0.844(3) 0.8233(16) 0.1372 Uani
H16 H 0.427(3) 0.83(3) 0.84(2) 0.1370 Uiso
O15 O 0.547(2) 0.096(4) 0.559(3) 0.2425 Uani
H17 H 0.547(14) 0.17(3) 0.524(18) 0.1700 Uiso
H18 H 0.510(9) 0.09(4) 0.56(2) 0.1370 Uiso
loop_
_atom_site_aniso_label
_atom_site_aniso_U_11
_atom_site_aniso_U_22
_atom_site_aniso_U_33
_atom_site_aniso_U_23
_atom_site_aniso_U_13
_atom_site_aniso_U_12
Ce1 0.0291(5) 0.0265(5) 0.0158(4) -0.0008(3) 0.0130(3) -0.0001(3)
O1 0.029(5) 0.034(6) 0.027(5) -0.007(4) 0.004(4) 0.001(4)
C1 0.046(8) 0.023(7) 0.016(6) 0.004(5) 0.019(6) 0.003(6)
Na1 0.038(5) 0.050(5) 0.034(4) 0.000 0.016(4) 0.000
O2 0.032(5) 0.020(5) 0.029(5) -0.002(4) 0.018(4) 0.000(4)
C2 0.030(6) 0.024(7) 0.014(5) -0.003(5) 0.015(5) -0.005(5)
O3 0.063(6) 0.021(5) 0.032(5) 0.005(4) 0.038(5) 0.003(4)
C3 0.038(7) 0.024(7) 0.020(6) 0.004(5) 0.024(6) 0.002(5)
O4 0.050(6) 0.021(5) 0.038(5) 0.011(4) 0.032(5) 0.003(4)
C4 0.021(6) 0.018(7) 0.014(6) -0.002(5) 0.009(5) -0.004(5)
O5 0.025(5) 0.053(7) 0.020(5) 0.006(4) 0.013(4) 0.003(4)
C5 0.031(7) 0.031(7) 0.014(6) 0.001(5) 0.015(6) -0.003(5)
O6 0.027(5) 0.038(5) 0.020(4) 0.002(4) 0.012(4) 0.007(4)
C6 0.031(7) 0.046(9) 0.020(7) -0.002(6) 0.017(6) 0.002(6)
O7 0.030(5) 0.043(6) 0.021(5) 0.006(4) 0.010(4) 0.012(4)
C7 0.018(6) 0.047(8) 0.014(6) -0.002(6) 0.010(5) 0.003(5)
O8 0.052(6) 0.049(7) 0.027(5) 0.006(5) 0.012(5) -0.010(5)
C8 0.033(7) 0.054(10) 0.024(7) -0.018(7) 0.024(6) -0.009(7)
O9 0.054(6) 0.017(5) 0.031(5) -0.007(4) 0.015(5) 0.011(5)
O10 0.073(9) 0.035(7) 0.056(8) -0.016(6) 0.028(7) -0.021(6)
O11 0.073(10) 0.061(10) 0.149(17) -0.060(11) 0.037(11) -0.018(8)
Ce1D 0.0291 0.0265 0.0158 -0.0008 0.013 -0.0001
Ce1C 0.0291 0.0265 0.0158 0.0008 0.013 0.0001
Ce1A 0.0291 0.0265 0.0158 0.0008 0.013 0.0001
Ce1F 0.0291 0.0265 0.0158 -0.0008 0.013 -0.0001
Ce1E 0.0291 0.0265 0.0158 0.0008 0.013 0.0001
O1F 0.029 0.034 0.027 -0.007 0.004 0.001
O1D 0.029 0.034 0.027 -0.007 0.004 0.001
C1F 0.046 0.023 0.016 0.004 0.019 0.003
Na1D 0.038 0.05 0.034 0 0.016 0
O2F 0.032 0.02 0.029 -0.002 0.018 0
O2D 0.032 0.02 0.029 -0.002 0.018 0
C2F 0.03 0.024 0.014 -0.003 0.015 -0.005
O3F 0.063 0.021 0.032 0.005 0.038 0.003
O3C 0.063 0.021 0.032 -0.005 0.038 -0.003
O3G 0.063 0.021 0.032 -0.005 0.038 -0.003
C3F 0.038 0.024 0.02 0.004 0.024 0.002
O4F 0.05 0.021 0.038 0.011 0.032 0.003
O4C 0.05 0.021 0.038 -0.011 0.032 -0.003
O4G 0.05 0.021 0.038 -0.011 0.032 -0.003
C4F 0.021 0.018 0.014 -0.002 0.009 -0.004
O5D 0.025 0.053 0.02 0.006 0.013 0.003
O5A 0.025 0.053 0.02 -0.006 0.013 -0.003
C5D 0.031 0.031 0.014 0.001 0.015 -0.003
O6D 0.027 0.038 0.02 0.002 0.012 0.007
C6D 0.031 0.046 0.02 -0.002 0.017 0.002
O7D 0.03 0.043 0.021 0.006 0.01 0.012
O7A 0.03 0.043 0.021 -0.006 0.01 -0.012
O7E 0.03 0.043 0.021 -0.006 0.01 -0.012
C7D 0.018 0.047 0.014 -0.002 0.01 0.003
O8D 0.052 0.049 0.027 0.006 0.012 -0.01
O8A 0.052 0.049 0.027 -0.006 0.012 0.01
O8E 0.052 0.049 0.027 -0.006 0.012 0.01
C8D 0.033 0.054 0.024 -0.018 0.024 -0.009
O9D 0.054 0.017 0.031 -0.007 0.015 0.011
O10D 0.073 0.035 0.056 -0.016 0.028 -0.021
O11A 0.073 0.061 0.149 0.06 0.037 0.018
O12 0.053(7) 0.036(6) 0.043(6) -0.001(5) 0.026(5) -0.005(5)
O13 0.15(2) 0.128(19) 0.117(18) 0.008(16) 0.014(14) 0.061(17)
O14 0.17(2) 0.111(17) 0.127(18) -0.041(14) 0.058(17) 0.026(17)
O15 0.25(4) 0.19(3) 0.17(3) -0.11(2) -0.03(3) 0.09(3)
loop_
_geom_bond_atom_site_label_1
_geom_bond_atom_site_label_2
_geom_bond_site_symmetry_1
_geom_bond_site_symmetry_2
Ce1 O1 1_555 1_555
O1 C1 1_555 1_555
C1 O2 1_555 1_555
H1 O11 1_555 1_555
H2 O11 1_555 1_555
Na1 O5 1_555 1_555
O2 Ce1 1_555 1_555
C2 C1 1_555 1_555
H3 C2 1_555 1_555
O3 C4 1_555 1_555
C3 C2 1_555 1_555
H4 C3 1_555 1_555
H5 C3 1_555 1_555
O4 C4 1_555 1_555
C4 C3 1_555 1_555
O5 Ce1 1_555 1_555
C5 O5 1_555 1_555
O6 Ce1 1_555 1_555
C6 C5 1_555 1_555
H6 C6 1_555 1_555
H7 C6 1_555 1_555
O7 Na1 1_555 1_555
C7 C6 1_555 1_555
H8 C7 1_555 1_555
O8 C8 1_555 1_555
C8 O7 1_555 1_555
O9 Ce1 1_555 1_555
O10 Ce1 1_555 1_555
O11 Na1 1_555 1_555
H9 O9 1_555 1_555
H10 O10 1_555 1_555
H11 O9 1_555 1_555
H12 O10 1_555 1_555
O12 H13 1_555 1_555
H14 O12 1_555 1_555
O13 H15 1_555 1_555
O14 H16 1_555 1_555
O15 H17 1_555 1_555
H18 O15 1_555 1_555
Ce1D O1D 1_555 1_555
Ce1C O3 1_555 1_555
Ce1A O7 1_555 1_555
Ce1F O1F 1_555 1_555
Ce1E O3F 1_555 1_555
O1F C1F 1_555 1_555
C1F O2F 1_555 1_555
H1A O11A 1_555 1_555
H2A O11A 1_555 1_555
Na1D O5D 1_555 1_555
O2F Ce1F 1_555 1_555
O2D Ce1D 1_555 1_555
C2F C2 1_555 1_555
H3F C2F 1_555 1_555
O3F C4F 1_555 1_555
O3C Ce1 1_555 1_555
O3G Ce1D 1_555 1_555
C3F C2F 1_555 1_555
H4F C3F 1_555 1_555
H5F C3F 1_555 1_555
O4F Ce1E 1_555 1_555
O4C Ce1 1_555 1_555
O4G Ce1D 1_555 1_555
C4F C3F 1_555 1_555
O5D Ce1D 1_555 1_555
O5A Na1 1_555 1_555
C5D O5D 1_555 1_555
O6D Ce1D 1_555 1_555
C6D C5D 1_555 1_555
H6D C6D 1_555 1_555
H7D C6D 1_555 1_555
O7D Ce1E 1_555 1_555
O7A Ce1 1_555 1_555
O7E Ce1D 1_555 1_555
C7D C7 1_555 1_555
H8D C7D 1_555 1_555
O8D Ce1E 1_555 1_555
O8A Ce1 1_555 1_555
O8E Ce1D 1_555 1_555
C8D O7D 1_555 1_555
O9D Ce1D 1_555 1_555
O10D Ce1D 1_555 1_555
O11A Na1 1_555 1_555
H9D O9D 1_555 1_555
H10D O10D 1_555 1_555
H11D O9D 1_555 1_555
H12D O10D 1_555 1_555
Na1 O7A 1_555 1_555
O4 Ce1C 1_555 1_555
C5 O6 1_555 1_555
C7 C8 1_555 1_555
O8 Ce1A 1_555 1_555
Ce1A O5A 1_555 1_555
C1F C2F 1_555 1_555
Na1D O7D 1_555 1_555
Na1D O7E 1_555 1_555
O4F C4F 1_555 1_555
C5D O6D 1_555 1_555
C6D C7D 1_555 1_555
C7D C8D 1_555 1_555
O8D C8D 1_555 1_555

#END
