
#######################################################################
#
#                 Cambridge Crystallographic Data Centre
#                                CCDC 
#
#######################################################################
#
# If this CIF has been generated from an entry in the Cambridge 
# Structural Database, then it will include bibliographic, chemical, 
# crystal, experimental, refinement or atomic coordinate data resulting 
# from the CCDC's data processing and validation procedures.
#
#######################################################################

data_VIGRIO
_chemical_formula_moiety         '(C26 H24 N2 O19 S2 Zn3)n'
_symmetry_cell_setting           monoclinic
_symmetry_space_group_name_H-M   'C 2/c'
_symmetry_Int_Tables_number      15
_space_group_name_Hall           '-C 2yc'
loop_
_symmetry_equiv_pos_site_id
_symmetry_equiv_pos_as_xyz
1 x,y,z
2 -x,y,1/2-z
3 1/2+x,1/2+y,z
4 1/2-x,1/2+y,1/2-z
5 -x,-y,-z
6 x,-y,1/2+z
7 1/2-x,1/2-y,-z
8 1/2+x,1/2-y,1/2+z
_cell_length_a                   25.0960(5)
_cell_length_b                   8.6027(2)
_cell_length_c                   18.8359(6)
_cell_angle_alpha                90
_cell_angle_beta                 130.5770(10)
_cell_angle_gamma                90
_cell_volume                     3088.67
loop_
_atom_site_label
_atom_site_type_symbol
_atom_site_fract_x
_atom_site_fract_y
_atom_site_fract_z
_atom_site_U_iso_or_equiv
_atom_site_thermal_displace_type
C1 C 0.11011(16) 0.7746(4) 0.1715(2) 0.0307 Uani
C2 C 0.10200(15) 0.8457(4) 0.23642(18) 0.0273 Uani
C3 C 0.08976(16) 0.7468(4) 0.2827(2) 0.0308 Uani
H1 H 0.0884 0.6400 0.2741 0.0370 Uiso
C4 C 0.07951(15) 0.8052(4) 0.34161(19) 0.0313 Uani
H2 H 0.0704 0.7379 0.3712 0.0380 Uiso
C5 C 0.08287(15) 0.9630(4) 0.35641(18) 0.0293 Uani
C6 C 0.07161(15) 1.0318(4) 0.41960(19) 0.0302 Uani
C7 C 0.09739(15) 1.0631(4) 0.31294(19) 0.0301 Uani
H3 H 0.1010 1.1694 0.3244 0.0360 Uiso
C8 C 0.10652(15) 1.0057(4) 0.25276(19) 0.0275 Uani
C9 C 0.19774(18) 0.5732(4) -0.0031(2) 0.0401 Uani
H4 H 0.1908 0.6725 -0.0273 0.0480 Uiso
C10 C 0.22595(19) 0.4621(4) -0.0225(2) 0.0399 Uani
H5 H 0.2379 0.4873 -0.0586 0.0480 Uiso
C11 C 0.23660(15) 0.3125(3) 0.0118(2) 0.0286 Uani
C12 C 0.22055(19) 0.2861(4) 0.0690(2) 0.0401 Uani
H6 H 0.2288 0.1891 0.0963 0.0480 Uiso
C13 C 0.1925(2) 0.4037(4) 0.0849(2) 0.0438 Uani
H7 H 0.1818 0.3830 0.1228 0.0520 Uiso
N1 N 0.17978(15) 0.5459(3) 0.04892(18) 0.0353 Uani
O1 O 0.07615(11) 0.8342(3) 0.08953(13) 0.0340 Uani
O2 O 0.14881(14) 0.6625(3) 0.19507(17) 0.0503 Uani
O3 O 0.05161(11) 0.9449(3) 0.45090(14) 0.0357 Uani
O4 O 0.08334(13) 1.1765(3) 0.43481(16) 0.0424 Uani
O5 O 0.14728(12) 1.2850(3) 0.25756(15) 0.0400 Uani
O6 O 0.06267(11) 1.1697(3) 0.10650(14) 0.0347 Uani
O7 O 0.18375(11) 1.0799(3) 0.21110(15) 0.0390 Uani
O8 O 0.21110(13) 0.8735(3) 0.12805(17) 0.0431 Uani
H8 H 0.207(2) 0.944(4) 0.154(3) 0.0650 Uiso
H9 H 0.2520(12) 0.836(4) 0.163(2) 0.0650 Uiso
O9 O 0.0249(3) 0.5688(7) -0.0415(4) 0.0586 Uani
H10 H 0.023(4) 0.526(8) -0.003(4) 0.0880 Uiso
H11 H -0.008(3) 0.636(7) -0.074(4) 0.0880 Uiso
S1 S 0.12743(4) 1.14495(10) 0.20370(5) 0.0290 Uani
Zn1 Zn 0.0000 1.0000 0.0000 0.0306 Uani
Zn2 Zn 0.12598(2) 0.71253(5) 0.05430(3) 0.0427 Uani
C9F C 0.30226(18) -0.0732(4) 0.0031(2) 0.0401 Uani
H4F H 0.3092 -0.1725 0.0273 0.0480 Uiso
C10F C 0.27405(19) 0.0379(4) 0.0225(2) 0.0399 Uani
H5F H 0.2621 0.0127 0.0586 0.0480 Uiso
C11F C 0.26340(15) 0.1875(3) -0.0118(2) 0.0286 Uani
C12F C 0.27945(19) 0.2139(4) -0.0690(2) 0.0401 Uani
H6F H 0.2712 0.3109 -0.0963 0.0480 Uiso
C13F C 0.3075(2) 0.0963(4) -0.0849(2) 0.0438 Uani
H7F H 0.3182 0.1170 -0.1228 0.0520 Uiso
N1F N 0.32022(15) -0.0459(3) -0.04892(18) 0.0353 Uani
C1A C -0.11011(16) 0.7746(4) 0.3285(2) 0.0307 Uani
C2A C -0.10200(15) 0.8457(4) 0.26358(18) 0.0273 Uani
C3A C -0.08976(16) 0.7468(4) 0.2173(2) 0.0308 Uani
H1A H -0.0884 0.6400 0.2259 0.0370 Uiso
C4A C -0.07951(15) 0.8052(4) 0.15839(19) 0.0313 Uani
H2A H -0.0704 0.7379 0.1288 0.0380 Uiso
C5A C -0.08287(15) 0.9630(4) 0.14359(18) 0.0293 Uani
C6A C -0.07161(15) 1.0318(4) 0.08040(19) 0.0302 Uani
C7A C -0.09739(15) 1.0631(4) 0.18706(19) 0.0301 Uani
H3A H -0.1010 1.1694 0.1756 0.0360 Uiso
C8A C -0.10652(15) 1.0057(4) 0.24724(19) 0.0275 Uani
O1A O -0.07615(11) 0.8342(3) 0.41047(13) 0.0340 Uani
O2A O -0.14881(14) 0.6625(3) 0.30493(17) 0.0503 Uani
O3A O -0.05161(11) 0.9449(3) 0.04910(14) 0.0357 Uani
O4A O -0.08334(13) 1.1765(3) 0.06519(16) 0.0424 Uani
O5A O -0.14728(12) 1.2850(3) 0.24244(15) 0.0400 Uani
O6A O -0.06267(11) 1.1697(3) 0.39350(14) 0.0347 Uani
O7A O -0.18375(11) 1.0799(3) 0.28890(15) 0.0390 Uani
O8A O -0.21110(13) 0.8735(3) 0.37195(17) 0.0431 Uani
H8A H -0.207(2) 0.944(4) 0.346(3) 0.0650 Uiso
H9A H -0.2520(12) 0.836(4) 0.337(2) 0.0650 Uiso
O9A O -0.0249(3) 0.5688(7) 0.5415(4) 0.0586 Uani
H10A H -0.023(4) 0.526(8) 0.503(4) 0.0880 Uiso
H11A H 0.008(3) 0.636(7) 0.574(4) 0.0880 Uiso
S1A S -0.12743(4) 1.14495(10) 0.29630(5) 0.0290 Uani
Zn2A Zn -0.12598(2) 0.71253(5) 0.44570(3) 0.0427 Uani
N1A N -0.17978(15) 0.5459(3) 0.45108(18) 0.0353 Uani
O1D O -0.07615(11) 1.1658(3) -0.08953(13) 0.0340 Uani
O3E O 0.05161(11) 1.0551(3) -0.04910(14) 0.0357 Uani
O4D O -0.08334(13) 0.8235(3) 0.56519(16) 0.0424 Uani
O4E O 0.08334(13) 0.8235(3) -0.06519(16) 0.0424 Uani
O6D O -0.06267(11) 0.8303(3) -0.10650(14) 0.0347 Uani
Zn1A Zn 0.0000 1.0000 0.5000 0.0306 Uani
Zn2D Zn -0.12598(2) 1.28747(5) -0.05430(3) 0.0427 Uani
Zn2E Zn 0.12598(2) 1.28747(5) 0.55430(3) 0.0427 Uani
Zn2F Zn 0.37402(2) -0.21253(5) -0.05430(3) 0.0427 Uani
O11 O 0.9992(11) 0.5707(16) 0.8104(13) 0.4044 Uani
loop_
_atom_site_aniso_label
_atom_site_aniso_U_11
_atom_site_aniso_U_22
_atom_site_aniso_U_33
_atom_site_aniso_U_23
_atom_site_aniso_U_13
_atom_site_aniso_U_12
C1 0.0324(16) 0.0387(19) 0.0282(15) -0.0020(13) 0.0229(14) -0.0027(14)
C2 0.0228(14) 0.0410(18) 0.0202(13) 0.0014(12) 0.0149(12) 0.0010(13)
C3 0.0289(16) 0.0403(19) 0.0263(14) 0.0044(13) 0.0193(14) 0.0007(13)
C4 0.0232(15) 0.051(2) 0.0223(14) 0.0053(13) 0.0159(13) -0.0010(14)
C5 0.0192(14) 0.053(2) 0.0162(12) 0.0011(13) 0.0118(12) -0.0006(13)
C6 0.0200(14) 0.052(2) 0.0186(13) -0.0026(13) 0.0126(12) -0.0023(14)
C7 0.0257(15) 0.0439(19) 0.0221(13) -0.0025(13) 0.0162(13) -0.0032(14)
C8 0.0249(15) 0.0411(18) 0.0207(13) 0.0031(12) 0.0167(12) -0.0003(13)
C9 0.051(2) 0.0303(18) 0.059(2) 0.0036(16) 0.0446(19) 0.0022(16)
C10 0.052(2) 0.0360(19) 0.055(2) 0.0026(16) 0.0451(19) 0.0034(16)
C11 0.0256(15) 0.0305(18) 0.0255(14) -0.0051(12) 0.0148(13) -0.0022(12)
C12 0.060(2) 0.0294(18) 0.0380(17) 0.0058(14) 0.0350(18) 0.0075(16)
C13 0.067(2) 0.041(2) 0.0418(18) 0.0027(15) 0.0436(19) 0.0056(18)
N1 0.0448(16) 0.0315(15) 0.0369(14) -0.0002(12) 0.0298(14) 0.0035(12)
O1 0.0331(12) 0.0533(15) 0.0237(10) 0.0032(9) 0.0221(10) 0.0073(10)
O2 0.0678(18) 0.0488(16) 0.0512(15) 0.0139(12) 0.0462(15) 0.0241(13)
O3 0.0335(12) 0.0568(15) 0.0294(11) 0.0021(10) 0.0261(10) -0.0016(10)
O4 0.0513(15) 0.0559(17) 0.0392(12) -0.0088(11) 0.0379(12) -0.0105(12)
O5 0.0452(14) 0.0417(14) 0.0391(13) -0.0065(10) 0.0301(12) -0.0093(11)
O6 0.0339(12) 0.0438(14) 0.0262(10) 0.0060(9) 0.0195(10) 0.0040(10)
O7 0.0328(12) 0.0551(15) 0.0415(12) 0.0018(11) 0.0296(11) -0.0006(11)
O8 0.0452(14) 0.0446(16) 0.0516(15) 0.0075(12) 0.0369(13) 0.0133(12)
O9 0.056(3) 0.051(3) 0.072(3) 0.012(2) 0.043(3) 0.002(2)
S1 0.0288(4) 0.0391(4) 0.0252(3) 0.0000(3) 0.0203(3) -0.0029(3)
Zn1 0.0262(3) 0.0500(3) 0.0231(2) 0.0029(2) 0.0193(2) 0.0048(2)
Zn2 0.0616(3) 0.0437(3) 0.0504(3) 0.00872(18) 0.0486(2) 0.0144(2)
C9F 0.051 0.0303 0.059 0.0036 0.0446 0.0022
C10F 0.052 0.036 0.055 0.0026 0.0451 0.0034
C11F 0.0256 0.0305 0.0255 -0.0051 0.0148 -0.0022
C12F 0.06 0.0294 0.038 0.0058 0.035 0.0075
C13F 0.067 0.041 0.0418 0.0027 0.0436 0.0056
N1F 0.0448 0.0315 0.0369 -0.0002 0.0298 0.0035
C1A 0.0324 0.0387 0.0282 0.002 0.0229 0.0027
C2A 0.0228 0.041 0.0202 -0.0014 0.0149 -0.001
C3A 0.0289 0.0403 0.0263 -0.0044 0.0193 -0.0007
C4A 0.0232 0.051 0.0223 -0.0053 0.0159 0.001
C5A 0.0192 0.053 0.0162 -0.0011 0.0118 0.0006
C6A 0.02 0.052 0.0186 0.0026 0.0126 0.0023
C7A 0.0257 0.0439 0.0221 0.0025 0.0162 0.0032
C8A 0.0249 0.0411 0.0207 -0.0031 0.0167 0.0003
O1A 0.0331 0.0533 0.0237 -0.0032 0.0221 -0.0073
O2A 0.0678 0.0488 0.0512 -0.0139 0.0462 -0.0241
O3A 0.0335 0.0568 0.0294 -0.0021 0.0261 0.0016
O4A 0.0513 0.0559 0.0392 0.0088 0.0379 0.0105
O5A 0.0452 0.0417 0.0391 0.0065 0.0301 0.0093
O6A 0.0339 0.0438 0.0262 -0.006 0.0195 -0.004
O7A 0.0328 0.0551 0.0415 -0.0018 0.0296 0.0006
O8A 0.0452 0.0446 0.0516 -0.0075 0.0369 -0.0133
O9A 0.056 0.051 0.072 -0.012 0.043 -0.002
S1A 0.0288 0.0391 0.0252 0 0.0203 0.0029
Zn2A 0.0616 0.0437 0.0504 -0.00872 0.0486 -0.0144
N1A 0.0448 0.0315 0.0369 0.0002 0.0298 -0.0035
O1D 0.0331 0.0533 0.0237 0.0032 0.0221 0.0073
O3E 0.0335 0.0568 0.0294 -0.0021 0.0261 0.0016
O4D 0.0513 0.0559 0.0392 -0.0088 0.0379 -0.0105
O4E 0.0513 0.0559 0.0392 0.0088 0.0379 0.0105
O6D 0.0339 0.0438 0.0262 0.006 0.0195 0.004
Zn1A 0.0262 0.05 0.0231 -0.0029 0.0193 -0.0048
Zn2D 0.0616 0.0437 0.0504 0.00872 0.0486 0.0144
Zn2E 0.0616 0.0437 0.0504 -0.00872 0.0486 -0.0144
Zn2F 0.0616 0.0437 0.0504 0.00872 0.0486 0.0144
O11 0.194(15) 0.116(10) 0.40(3) -0.097(14) -0.03(3) 0.032(13)
loop_
_geom_bond_atom_site_label_1
_geom_bond_atom_site_label_2
_geom_bond_site_symmetry_1
_geom_bond_site_symmetry_2
C1 C2 1_555 1_555
C2 C3 1_555 1_555
C3 H1 1_555 1_555
C4 C3 1_555 1_555
H2 C4 1_555 1_555
C5 C4 1_555 1_555
C6 C5 1_555 1_555
C7 C5 1_555 1_555
H3 C7 1_555 1_555
C8 C2 1_555 1_555
C9 H4 1_555 1_555
C10 C9 1_555 1_555
H5 C10 1_555 1_555
C11 C10 1_555 1_555
C12 C11 1_555 1_555
H6 C12 1_555 1_555
C13 C12 1_555 1_555
H7 C13 1_555 1_555
N1 C9 1_555 1_555
O1 C1 1_555 1_555
O2 C1 1_555 1_555
O3 C6 1_555 1_555
O4 C6 1_555 1_555
O5 S1 1_555 1_555
O6 S1 1_555 1_555
O7 S1 1_555 1_555
O8 H8 1_555 1_555
H9 O8 1_555 1_555
O9 H10 1_555 1_555
H11 O9 1_555 1_555
S1 C8 1_555 1_555
Zn1 O1 1_555 1_555
Zn2 N1 1_555 1_555
C9F H4F 1_555 1_555
C10F C9F 1_555 1_555
H5F C10F 1_555 1_555
C11F C11 1_555 1_555
C12F C11F 1_555 1_555
H6F C12F 1_555 1_555
C13F C12F 1_555 1_555
H7F C13F 1_555 1_555
N1F C9F 1_555 1_555
C1A C2A 1_555 1_555
C2A C3A 1_555 1_555
C3A H1A 1_555 1_555
C4A C3A 1_555 1_555
H2A C4A 1_555 1_555
C5A C4A 1_555 1_555
C6A C5A 1_555 1_555
C7A C5A 1_555 1_555
H3A C7A 1_555 1_555
C8A C2A 1_555 1_555
O1A C1A 1_555 1_555
O2A C1A 1_555 1_555
O3A Zn1 1_555 1_555
O4A C6A 1_555 1_555
O5A S1A 1_555 1_555
O6A S1A 1_555 1_555
O7A S1A 1_555 1_555
O8A H8A 1_555 1_555
H9A O8A 1_555 1_555
O9A H10A 1_555 1_555
H11A O9A 1_555 1_555
S1A C8A 1_555 1_555
Zn2A O1A 1_555 1_555
N1A Zn2A 1_555 1_555
O1D Zn1 1_555 1_555
O3E Zn1 1_555 1_555
O4D Zn2A 1_555 1_555
O4E Zn2 1_555 1_555
O6D Zn1 1_555 1_555
Zn1A O3 1_555 1_555
Zn2D O4A 1_555 1_555
Zn2E O4 1_555 1_555
Zn2F N1F 1_555 1_555
C7 C8 1_555 1_555
C13 N1 1_555 1_555
O1 Zn2 1_555 1_555
O2 Zn2 1_555 1_555
O6 Zn1 1_555 1_555
O8 Zn2 1_555 1_555
O9 Zn2 1_555 1_555
C10F C11F 1_555 1_555
C13F N1F 1_555 1_555
C6A O3A 1_555 1_555
C7A C8A 1_555 1_555
O1A Zn1A 1_555 1_555
O2A Zn2A 1_555 1_555
O6A Zn1A 1_555 1_555
O8A Zn2A 1_555 1_555
O9A Zn2A 1_555 1_555
O1D Zn2D 1_555 1_555

#END
