
#######################################################################
#
#                 Cambridge Crystallographic Data Centre
#                                CCDC 
#
#######################################################################
#
# If this CIF has been generated from an entry in the Cambridge 
# Structural Database, then it will include bibliographic, chemical, 
# crystal, experimental, refinement or atomic coordinate data resulting 
# from the CCDC's data processing and validation procedures.
#
#######################################################################

data_EMEGEJ
_chemical_formula_moiety         '(C66 H72 Eu2 N2 O16 S6)n'
_symmetry_cell_setting           triclinic
_symmetry_space_group_name_H-M   'P -1'
_symmetry_Int_Tables_number      2
_space_group_name_Hall           '-P 1'
loop_
_symmetry_equiv_pos_site_id
_symmetry_equiv_pos_as_xyz
1 x,y,z
2 -x,-y,-z
_cell_length_a                   8.7097(3)
_cell_length_b                   14.0738(5)
_cell_length_c                   16.2065(6)
_cell_angle_alpha                114.085(2)
_cell_angle_beta                 91.028(2)
_cell_angle_gamma                94.463(2)
_cell_volume                     1805.42
loop_
_atom_site_label
_atom_site_type_symbol
_atom_site_fract_x
_atom_site_fract_y
_atom_site_fract_z
Eu1 Eu -0.18541(4) 0.95578(3) 0.56149(2)
N1 N -0.4814(9) 1.2059(6) 0.7453(5)
C1 C 0.0171(9) 0.9566(6) 0.6998(5)
C2 C 0.1376(11) 0.9686(7) 0.7710(6)
C3 C 0.2689(12) 0.9156(8) 0.7474(8)
H1 H 0.2806 0.8698 0.6862
C4 C 0.3832(17) 0.9293(11) 0.8132(10)
H2 H 0.4708 0.8907 0.7963
C5 C 0.3731(13) 0.9972(9) 0.9023(8)
C6 C 0.2378(15) 1.0482(9) 0.9252(8)
H3 H 0.2266 1.0943 0.9864
C7 C 0.1188(15) 1.0333(10) 0.8604(7)
H4 H 0.0269 1.0670 0.8776
C8 C 0.5046(13) 1.0167(9) 0.9694(8)
C9 C -0.0782(8) 0.8107(5) 0.3920(5)
C10 C -0.0584(10) 0.7323(6) 0.2990(5)
C11 C 0.0107(12) 0.7618(7) 0.2356(6)
H5 H 0.0581 0.8309 0.2537
C12 C 0.0112(14) 0.6918(7) 0.1468(6)
H6 H 0.0585 0.7129 0.1039
C13 C -0.0580(15) 0.5887(9) 0.1187(8)
C14 C -0.1218(14) 0.5597(10) 0.1829(8)
H7 H -0.1666 0.4901 0.1656
C15 C -0.1217(14) 0.6300(9) 0.2721(8)
H8 H -0.1653 0.6082 0.3156
C16 C -0.0626(14) 0.5112(10) 0.0207(8)
C17 C -0.2236(14) 0.4731(9) -0.0221(8)
H9 H -0.2808 0.4421 0.0146
H10 H -0.2159 0.4165 -0.0829
C18 C -0.2202(18) 0.6123(12) -0.0973(11)
H11 H -0.2653 0.6700 -0.1050
H12 H -0.2115 0.5551 -0.1567
H13 H -0.1175 0.6368 -0.0667
C19 C -0.4402(9) 0.8194(6) 0.5598(6)
C20 C -0.5652(9) 0.7341(6) 0.5395(6)
C21 C -0.6956(10) 0.7270(7) 0.4854(7)
H14 H -0.7049 0.7776 0.4613
C22 C -0.8109(11) 0.6476(7) 0.4667(8)
H15 H -0.8978 0.6435 0.4287
C23 C -0.8030(15) 0.5728(9) 0.5024(8)
C24 C -0.6726(14) 0.5801(9) 0.5566(8)
H16 H -0.6642 0.5299 0.5812
C25 C -0.5556(10) 0.6591(7) 0.5751(7)
H17 H -0.4678 0.6627 0.6122
C26 C -0.9307(14) 0.4885(10) 0.4843(8)
C27 C -0.8900(11) 0.3812(8) 0.4259(9)
H18 H -0.9777 0.3297 0.4210
H19 H -0.8002 0.3650 0.4545
C28 C -1.030(3) 0.353(2) 0.274(2)
H20 H -1.0318 0.3511 0.2134
H21 H -1.0851 0.4106 0.3143
H22 H -1.0789 0.2865 0.2721
C29 C -0.4187(10) 1.1177(7) 0.7022(6)
H23 H -0.4526 1.0603 0.7160
C30 C -0.5997(16) 1.2164(11) 0.8068(9)
H24 H -0.6295 1.1484 0.8081
H25 H -0.6895 1.2415 0.7874
H26 H -0.5619 1.2666 0.8675
C31 C -0.4396(16) 1.2952(10) 0.7242(9)
H27 H -0.3349 1.2913 0.7027
H28 H -0.4436 1.3599 0.7788
H29 H -0.5121 1.2946 0.6770
S1 S -0.3346(5) 0.5689(3) -0.0340(3)
S2 S -0.8450(5) 0.3692(3) 0.3148(3)
O1 O 0.0458(6) 0.9065(4) 0.6165(3)
O2 O -0.1065(6) 0.9983(4) 0.7213(3)
O3 O -0.0062(6) 0.9024(4) 0.4223(3)
O4 O -0.1716(6) 0.7864(4) 0.4385(4)
O5 O -0.3217(6) 0.8236(4) 0.6055(4)
O6 O -0.4566(6) 0.8882(4) 0.5281(4)
O7 O -0.3216(7) 1.1030(5) 0.6465(4)
O8 O -0.2842(6) 1.0095(4) 0.4480(4)
S3 S 0.6242(11) 1.2257(7) 0.9962(7)
C32 C 0.575(4) 1.273(2) 1.1087(11)
H30 H 0.6642 1.2743 1.1470
H31 H 0.4892 1.2276 1.1150
H32 H 0.5442 1.3441 1.1275
C33 C 0.6618(15) 1.0674(9) 0.9509(8)
Eu1A Eu -1.81459(4) 0.04422(3) 0.43851(2)
Eu1_2 Eu -0.18541(4) -0.04422(3) -0.43851(2)
Eu1A_2 Eu 0.18541(4) 0.04422(3) -0.56149(2)
Eu1A_3 Eu 0.18541(4) 1.04422(3) 0.43851(2)
Eu1A_4 Eu 1.18541(4) 1.04422(3) 1.43851(2)
N1A N -1.5186(9) -0.2059(6) 0.2547(5)
C1A C 0.9829(9) 1.0434(6) 1.3002(5)
C1A_2 C -2.0171(9) 0.0434(6) 0.3002(5)
C2A C 0.8624(11) 1.0314(7) 1.2290(6)
C3A C 0.7311(12) 1.0844(8) 1.2526(8)
H1A H 0.7194 1.1302 1.3138
C4A C 0.6168(17) 1.0707(11) 1.1868(10)
H2A H 0.5292 1.1093 1.2037
C5A C 0.6269(13) 1.0028(9) 1.0977(8)
C6A C 0.7622(15) 0.9518(9) 1.0748(8)
H3A H 0.7734 0.9057 1.0136
C7A C 0.8812(15) 0.9667(10) 1.1396(7)
H4A H 0.9731 0.9330 1.1224
C8A C 0.4954(13) 0.9833(9) 1.0306(8)
C9A C 0.0782(8) 0.1893(5) -0.3920(5)
C9A_2 C -1.9218(8) 0.1893(5) 0.6080(5)
C10A C 0.0584(10) 0.2677(6) -0.2990(5)
C11A C -0.0107(12) 0.2382(7) -0.2356(6)
H5A H -0.0581 0.1691 -0.2537
C12A C -0.0112(14) 0.3082(7) -0.1468(6)
H6A H -0.0585 0.2871 -0.1039
C13A C 0.0580(15) 0.4113(9) -0.1187(8)
C14A C 0.1218(14) 0.4403(10) -0.1829(8)
H7A H 0.1666 0.5099 -0.1656
C15A C 0.1217(14) 0.3700(9) -0.2721(8)
H8A H 0.1653 0.3918 -0.3156
C16A C 0.0626(14) 0.4888(10) -0.0207(8)
C17A C 0.2236(14) 0.5269(9) 0.0221(8)
H9A H 0.2808 0.5579 -0.0146
H10A H 0.2159 0.5835 0.0829
C18A C 0.2202(18) 0.3877(12) 0.0973(11)
H11A H 0.2653 0.3300 0.1050
H12A H 0.2115 0.4449 0.1567
H13A H 0.1175 0.3632 0.0667
C19A C -1.5598(9) 0.1806(6) 0.4402(6)
C20A C -1.4348(9) 0.2659(6) 0.4605(6)
C21A C -1.3044(10) 0.2730(7) 0.5146(7)
H14A H -1.2951 0.2224 0.5387
C22A C -1.1891(11) 0.3524(7) 0.5333(8)
H15A H -1.1022 0.3565 0.5713
C23A C -1.1970(15) 0.4272(9) 0.4976(8)
C24A C -1.3274(14) 0.4199(9) 0.4434(8)
H16A H -1.3358 0.4701 0.4188
C25A C -1.4444(10) 0.3409(7) 0.4249(7)
H17A H -1.5322 0.3373 0.3878
C26A C -1.0693(14) 0.5115(10) 0.5157(8)
C27A C -1.1100(11) 0.6188(8) 0.5741(9)
H18A H -1.0223 0.6703 0.5790
H19A H -1.1998 0.6350 0.5455
C28A C -0.970(3) 0.647(2) 0.726(2)
H20A H -0.9682 0.6489 0.7866
H21A H -0.9149 0.5894 0.6857
H22A H -0.9211 0.7135 0.7279
C29A C -1.5813(10) -0.1177(7) 0.2978(6)
H23A H -1.5474 -0.0603 0.2840
C30A C -1.4003(16) -0.2164(11) 0.1932(9)
H24A H -1.3705 -0.1484 0.1919
H25A H -1.3105 -0.2415 0.2126
H26A H -1.4381 -0.2666 0.1325
C31A C -1.5604(16) -0.2952(10) 0.2758(9)
H27A H -1.6651 -0.2913 0.2973
H28A H -1.5564 -0.3599 0.2212
H29A H -1.4879 -0.2946 0.3230
S1A S 0.3346(5) 0.4311(3) 0.0340(3)
S2A S -1.1550(5) 0.6308(3) 0.6852(3)
O1A O 0.9542(6) 1.0935(4) 1.3835(3)
O1A_2 O -2.0458(6) 0.0935(4) 0.3835(3)
O2A O 1.1065(6) 1.0017(4) 1.2787(3)
O2A_2 O -1.8935(6) 0.0017(4) 0.2787(3)
O3A O 0.0062(6) 0.0976(4) -0.4223(3)
O3_2 O -2.0062(6) -0.0976(4) 0.4223(3)
O3A_2 O 0.0062(6) 1.0976(4) 0.5777(3)
O3A_3 O -1.9938(6) 0.0976(4) 0.5777(3)
O4A O 0.1716(6) 0.2136(4) -0.4385(4)
O4A_2 O -1.8284(6) 0.2136(4) 0.5615(4)
O5A O -1.6783(6) 0.1764(4) 0.3945(4)
O6A O -1.5434(6) 0.1118(4) 0.4719(4)
O7A O -1.6784(7) -0.1030(5) 0.3535(4)
O8A O -1.7158(6) -0.0095(4) 0.5520(4)
S3A S 0.3758(11) 0.7743(7) 1.0038(7)
C32A C 0.425(4) 0.727(2) 0.8913(11)
H30A H 0.3358 0.7257 0.8530
H31A H 0.5108 0.7724 0.8850
H32A H 0.4558 0.6559 0.8725
C33A C 0.3382(15) 0.9326(9) 1.0491(8)
loop_
_geom_bond_atom_site_label_1
_geom_bond_atom_site_label_2
_geom_bond_site_symmetry_1
_geom_bond_site_symmetry_2
Eu1 O1 1_555 1_555
N1 C29 1_555 1_555
C1 C2 1_555 1_555
C2 C3 1_555 1_555
C3 H1 1_555 1_555
C4 C3 1_555 1_555
H2 C4 1_555 1_555
C5 C4 1_555 1_555
C6 C5 1_555 1_555
H3 C6 1_555 1_555
C7 C2 1_555 1_555
H4 C7 1_555 1_555
C8 C5 1_555 1_555
C9 C10 1_555 1_555
C10 C11 1_555 1_555
C11 H5 1_555 1_555
C12 C11 1_555 1_555
H6 C12 1_555 1_555
C13 C12 1_555 1_555
C14 C13 1_555 1_555
H7 C14 1_555 1_555
C15 C10 1_555 1_555
H8 C15 1_555 1_555
C16 C13 1_555 1_555
C17 C16 1_555 1_555
H9 C17 1_555 1_555
H10 C17 1_555 1_555
C18 H11 1_555 1_555
H12 C18 1_555 1_555
H13 C18 1_555 1_555
C19 C20 1_555 1_555
C20 C21 1_555 1_555
C21 H14 1_555 1_555
C22 C21 1_555 1_555
H15 C22 1_555 1_555
C23 C22 1_555 1_555
C24 C23 1_555 1_555
H16 C24 1_555 1_555
C25 C20 1_555 1_555
H17 C25 1_555 1_555
C26 C23 1_555 1_555
C27 C26 1_555 1_555
H18 C27 1_555 1_555
H19 C27 1_555 1_555
C28 H20 1_555 1_555
H21 C28 1_555 1_555
H22 C28 1_555 1_555
C29 H23 1_555 1_555
C30 N1 1_555 1_555
H24 C30 1_555 1_555
H25 C30 1_555 1_555
H26 C30 1_555 1_555
C31 N1 1_555 1_555
H27 C31 1_555 1_555
H28 C31 1_555 1_555
H29 C31 1_555 1_555
S1 C17 1_555 1_555
S2 C27 1_555 1_555
O1 C1 1_555 1_555
O2 Eu1 1_555 1_555
O3 Eu1 1_555 1_555
O4 Eu1 1_555 1_555
O5 Eu1 1_555 1_555
O6 Eu1 1_555 1_555
O7 Eu1 1_555 1_555
O8 Eu1 1_555 1_555
S3 C32 1_555 1_555
C32 H30 1_555 1_555
H31 C32 1_555 1_555
H32 C32 1_555 1_555
C33 C8 1_555 1_555
Eu1A O1A_2 1_555 1_555
Eu1_2 O3A 1_555 1_555
Eu1A_2 O3A 1_555 1_555
Eu1A_3 O3 1_555 1_555
Eu1A_4 O1A 1_555 1_555
N1A C29A 1_555 1_555
C1A C2A 1_555 1_555
C1A_2 O1A_2 1_555 1_555
C2A C3A 1_555 1_555
C3A H1A 1_555 1_555
C4A C3A 1_555 1_555
H2A C4A 1_555 1_555
C5A C4A 1_555 1_555
C6A C5A 1_555 1_555
H3A C6A 1_555 1_555
C7A C2A 1_555 1_555
H4A C7A 1_555 1_555
C8A C8 1_555 1_555
C9A C10A 1_555 1_555
C9A_2 O3A_3 1_555 1_555
C10A C11A 1_555 1_555
C11A H5A 1_555 1_555
C12A C11A 1_555 1_555
H6A C12A 1_555 1_555
C13A C12A 1_555 1_555
C14A C13A 1_555 1_555
H7A C14A 1_555 1_555
C15A C10A 1_555 1_555
H8A C15A 1_555 1_555
C16A C16 1_555 1_555
C17A C16A 1_555 1_555
H9A C17A 1_555 1_555
H10A C17A 1_555 1_555
C18A H11A 1_555 1_555
H12A C18A 1_555 1_555
H13A C18A 1_555 1_555
C19A C20A 1_555 1_555
C20A C21A 1_555 1_555
C21A H14A 1_555 1_555
C22A C21A 1_555 1_555
H15A C22A 1_555 1_555
C23A C22A 1_555 1_555
C24A C23A 1_555 1_555
H16A C24A 1_555 1_555
C25A C20A 1_555 1_555
H17A C25A 1_555 1_555
C26A C26 1_555 1_555
C27A C26A 1_555 1_555
H18A C27A 1_555 1_555
H19A C27A 1_555 1_555
C28A H20A 1_555 1_555
H21A C28A 1_555 1_555
H22A C28A 1_555 1_555
C29A H23A 1_555 1_555
C30A N1A 1_555 1_555
H24A C30A 1_555 1_555
H25A C30A 1_555 1_555
H26A C30A 1_555 1_555
C31A N1A 1_555 1_555
H27A C31A 1_555 1_555
H28A C31A 1_555 1_555
H29A C31A 1_555 1_555
S1A C17A 1_555 1_555
S2A C27A 1_555 1_555
O1A C1A 1_555 1_555
O2A Eu1A_4 1_555 1_555
O2A_2 Eu1A 1_555 1_555
O3A C9A 1_555 1_555
O3_2 Eu1A 1_555 1_555
O3A_2 Eu1 1_555 1_555
O3A_3 Eu1A 1_555 1_555
O4A Eu1A_2 1_555 1_555
O4A_2 Eu1A 1_555 1_555
O5A Eu1A 1_555 1_555
O6A Eu1A 1_555 1_555
O7A Eu1A 1_555 1_555
O8A Eu1A 1_555 1_555
S3A C32A 1_555 1_555
C32A H30A 1_555 1_555
H31A C32A 1_555 1_555
H32A C32A 1_555 1_555
C33A C8A 1_555 1_555
C1 O2 1_555 1_555
C6 C7 1_555 1_555
C9 O3 1_555 1_555
C9 O4 1_555 1_555
C14 C15 1_555 1_555
C18 S1 1_555 1_555
C19 O5 1_555 1_555
C19 O6 1_555 1_555
C24 C25 1_555 1_555
C28 S2 1_555 1_555
C29 O7 1_555 1_555
S3 C33 1_555 1_555
Eu1A_3 O3A_2 1_555 1_555
C1A O2A 1_555 1_555
C1A_2 O2A_2 1_555 1_555
C5A C8A 1_555 1_555
C6A C7A 1_555 1_555
C9A O4A 1_555 1_555
C9A_2 O4A_2 1_555 1_555
C13A C16A 1_555 1_555
C14A C15A 1_555 1_555
C18A S1A 1_555 1_555
C19A O5A 1_555 1_555
C19A O6A 1_555 1_555
C23A C26A 1_555 1_555
C24A C25A 1_555 1_555
C28A S2A 1_555 1_555
C29A O7A 1_555 1_555
S3A C33A 1_555 1_555

#END
