
#######################################################################
#
#                 Cambridge Crystallographic Data Centre
#                                CCDC 
#
#######################################################################
#
# If this CIF has been generated from an entry in the Cambridge 
# Structural Database, then it will include bibliographic, chemical, 
# crystal, experimental, refinement or atomic coordinate data resulting 
# from the CCDC's data processing and validation procedures.
#
#######################################################################

data_OCUVUF
_chemical_formula_moiety         'C24 H110 As4 Dy4 K13 N4 O229 W42'
_symmetry_cell_setting           monoclinic
_symmetry_space_group_name_H-M   'C c'
_symmetry_Int_Tables_number      9
_space_group_name_Hall           'C -2yc'
loop_
_symmetry_equiv_pos_site_id
_symmetry_equiv_pos_as_xyz
1 x,y,z
2 x,-y,1/2+z
3 1/2+x,1/2+y,z
4 1/2+x,1/2-y,1/2+z
_cell_length_a                   33.4649(8)
_cell_length_b                   33.4755(8)
_cell_length_c                   26.6222(6)
_cell_angle_alpha                90
_cell_angle_beta                 127.581(2)
_cell_angle_gamma                90
_cell_volume                     23635
loop_
_atom_site_label
_atom_site_type_symbol
_atom_site_fract_x
_atom_site_fract_y
_atom_site_fract_z
O9 O 0.5134(13) 0.6281(10) 0.7841(15)
O10 O 0.3054(19) 0.6297(17) 0.398(3)
O11 O 0.094(2) 0.4085(17) 0.584(3)
As1 As 0.36191(12) 0.87278(11) 0.51968(17)
As2 As 0.19808(12) 0.86890(11) 0.16285(17)
As3 As 0.38266(13) 0.63215(10) 1.02096(17)
As4 As 0.19396(12) 0.61145(11) 0.66583(17)
C1 C 0.4406(12) 0.4560(10) 0.9770(15)
C2 C 0.3875(12) 0.5742(10) 0.6860(15)
C3 C 0.4006(15) 0.4636(12) 0.7704(18)
H1 H 0.4024 0.4398 0.7898
C4 C 0.3923(12) 0.5343(9) 0.7145(14)
C5 C 0.0434(11) 0.7937(9) 0.2074(15)
C6 C 0.4128(15) 0.4480(12) 1.0043(18)
C7 C 0.1677(11) 0.7120(10) 0.4210(14)
H2 H 0.1348 0.7183 0.4050
C8 C 0.2629(13) 0.6951(10) 0.4695(15)
C9 C 0.0376(14) 0.7262(12) 0.234(2)
H3 H 0.0204 0.7061 0.2377
C10 C 0.1967(13) 0.7412(11) 0.4148(16)
H4 H 0.1824 0.7653 0.3941
C11 C 0.3175(13) 0.6893(10) 0.4989(15)
C12 C 0.0129(14) 0.7636(11) 0.2008(18)
H5 H -0.0218 0.7668 0.1765
C13 C 0.4757(15) 0.4308(11) 0.980(2)
H6 H 0.4847 0.4060 1.0003
C14 C 0.3748(14) 0.4999(11) 0.773(2)
H7 H 0.3604 0.4985 0.7941
C15 C 0.4216(18) 0.4663(14) 0.7382(18)
H8 H 0.4385 0.4448 0.7366
C16 C 0.4955(15) 0.4453(11) 0.952(2)
H9 H 0.5201 0.4300 0.9547
C17 C 0.4835(15) 0.4771(12) 0.9223(18)
H10 H 0.4960 0.4840 0.9005
C18 C 0.4490(14) 0.5039(12) 0.9228(17)
H11 H 0.4419 0.5289 0.9040
C19 C 0.4162(13) 0.5023(10) 0.7089(16)
H12 H 0.4283 0.5051 0.6856
C20 C 0.1855(16) 0.6786(13) 0.4472(19)
H13 H 0.1649 0.6607 0.4487
C21 C 0.2348(14) 0.6676(12) 0.4740(18)
H14 H 0.2480 0.6430 0.4938
C22 C 0.1131(14) 0.7544(11) 0.2596(17)
H15 H 0.1468 0.7510 0.2772
C23 C 0.0861(16) 0.7223(15) 0.2582(16)
H16 H 0.1020 0.6978 0.2745
C24 C 0.0244(13) 0.8348(11) 0.1820(16)
Dy1 Dy 0.21826(7) 0.87556(6) 0.41516(10)
Dy2 Dy 0.24942(7) 0.77404(6) 0.26428(10)
Dy3 Dy 0.42043(7) 0.63277(6) 0.91212(10)
Dy4 Dy 0.24719(7) 0.52247(6) 0.77691(10)
K2 K 0.2776(2) 0.87023(17) 0.7204(3)
K3 K 0.3291(3) 0.5763(2) 0.5196(4)
K4 K 0.4164(3) 0.6660(2) 0.5128(4)
K5 K 0.4038(3) 0.6643(3) 0.6682(4)
K6 K -0.0066(3) 0.9256(2) 0.1680(4)
K7 K 0.0933(6) 0.4256(5) 0.4657(9)
N1 N 0.4275(10) 0.4931(8) 0.9494(12)
N2 N 0.3730(11) 0.5346(8) 0.7451(13)
N3 N 0.2456(10) 0.7324(8) 0.4399(12)
N4 N 0.0915(9) 0.7898(8) 0.2361(12)
O12 O 0.4886(9) 0.9912(8) 0.6779(13)
O13 O 0.5667(12) 0.8721(8) 0.6708(14)
O14 O 0.4868(8) 0.9237(6) 0.6170(9)
O15 O 0.4428(8) 0.9227(8) 0.6695(12)
O16 O 0.4869(9) 0.8579(7) 0.6723(11)
O17 O 0.3846(11) 0.9844(8) 0.6013(13)
O18 O 0.4910(9) 0.8755(8) 0.7813(13)
O19 O 0.3881(10) 0.8802(9) 0.6940(11)
O20 O 0.4328(8) 0.8129(7) 0.6945(12)
O21 O 0.4306(9) 0.9850(7) 0.5509(13)
O22 O 0.4968(10) 0.8771(8) 0.5412(12)
O23 O 0.4452(10) 0.8784(8) 0.4120(14)
O24 O 0.4219(7) 0.9303(6) 0.4714(11)
O25 O 0.3802(9) 1.0066(8) 0.4236(13)
O26 O 0.3318(8) 0.9922(6) 0.4778(12)
O27 O 0.3747(8) 0.9251(6) 0.5348(10)
O28 O 0.2821(9) 1.0003(6) 0.5325(11)
O29 O 0.3271(8) 0.9267(6) 0.5939(10)
O30 O 0.2819(9) 0.8795(7) 0.6371(12)
O31 O 0.4217(9) 0.8597(7) 0.5388(11)
O32 O 0.3763(9) 0.8575(8) 0.5941(12)
O33 O 0.3321(8) 0.8155(7) 0.6301(11)
O34 O 0.3839(9) 0.7419(9) 0.6496(13)
O35 O 0.3228(8) 0.7788(6) 0.5347(10)
O36 O 0.4211(9) 0.7862(7) 0.5916(10)
O37 O 0.2698(8) 0.8635(8) 0.5215(10)
O38 O 0.2698(8) 0.9321(6) 0.4660(10)
O39 O 0.4974(9) 0.8118(7) 0.5958(11)
O40 O 0.4356(9) 0.8173(7) 0.4721(14)
O41 O 0.4489(10) 0.7438(8) 0.5291(12)
O42 O 0.3575(9) 0.7920(7) 0.4678(11)
O43 O 0.3253(9) 0.9397(7) 0.3913(10)
O44 O 0.3582(9) 0.8690(7) 0.4093(14)
O45 O 0.0616(9) 0.9518(7) 0.1502(11)
O46 O 0.1627(9) 0.6950(7) 0.7129(10)
O47 O 0.2034(8) 0.9493(7) 0.0692(11)
O48 O 0.2794(8) 0.9535(6) 0.2163(10)
O49 O 0.2448(9) 0.8752(7) 0.1505(11)
O50 O 0.3740(8) 0.6838(7) 0.8259(12)
O51 O 0.1975(9) 0.6598(7) 0.6416(10)
O52 O 0.0928(8) 0.6865(6) 0.5661(10)
O53 O 0.1014(8) 0.9684(7) 0.0869(10)
O54 O 0.3875(8) 0.6036(6) 0.8137(10)
O55 O 0.3435(9) 0.7735(7) 0.3460(11)
O56 O 0.2626(8) 0.8837(6) 0.3800(10)
O57 O 0.1791(8) 0.8783(6) 0.0174(10)
O58 O 0.3543(8) 0.6849(6) 1.1189(10)
O59 O 0.1640(9) 0.9647(7) 0.2118(11)
O60 O 0.1935(8) 0.6414(7) 0.7938(12)
O61 O 0.1793(9) 0.9311(7) 0.3385(11)
O62 O 0.3377(8) 0.6360(6) 0.8764(10)
O63 O 0.2589(8) 0.5867(6) 0.8087(9)
O64 O 0.0697(8) 0.6670(7) 0.6404(10)
O65 O 0.3406(9) 0.5496(7) 0.9784(11)
O66 O 0.3682(8) 0.6010(6) 0.6976(9)
O67 O 0.4189(8) 0.6889(7) 0.9595(10)
O68 O 0.4762(8) 0.6250(6) 1.0197(10)
O69 O 0.2706(8) 0.7108(6) 0.7018(10)
O70 O 0.4073(10) 0.7574(8) 1.1727(12)
O71 O 0.1749(8) 0.9207(6) 0.1448(10)
O72 O 0.3041(8) 0.5557(6) 0.7658(10)
O73 O 0.2755(9) 0.6230(6) 0.9123(12)
O74 O 0.4013(10) 0.5481(8) 1.0999(12)
O75 O 0.1844(8) 0.8083(7) 0.2572(12)
O76 O 0.2555(8) 0.8142(7) 0.4206(11)
O77 O 0.2403(8) 0.6304(7) 0.5881(11)
O78 O 0.1071(9) 0.5380(8) 0.6026(14)
O79 O 0.1638(8) 0.5461(7) 0.7257(12)
O80 O 0.2352(10) 0.5262(8) 0.8581(12)
O81 O 0.2740(10) 0.8542(6) 0.0831(10)
O82 O 0.2038(8) 0.5178(7) 0.6687(10)
O83 O 0.3259(8) 0.8947(7) 0.2907(12)
O84 O 0.2714(10) 0.6350(7) 1.0474(12)
O85 O 0.1403(9) 0.8900(7) 0.2124(11)
O86 O 0.1934(8) 0.9936(6) 0.1444(10)
O87 O 0.2654(9) 0.5723(7) 0.9827(12)
O88 O 0.4382(9) 0.5386(7) 1.0398(11)
O89 O 0.2745(9) 0.6846(7) 0.9722(11)
O90 O 0.4862(10) 0.5815(7) 1.1993(11)
O91 O 0.0694(8) 0.6148(6) 0.5187(10)
O92 O 0.2820(10) 0.7185(8) 0.2490(14)
O93 O 0.2821(9) 0.5657(7) 0.6528(11)
O94 O 0.3930(8) 0.5691(9) 0.9262(10)
O95 O 0.1620(10) 0.5915(7) 0.4891(13)
O96 O 0.0571(9) 0.8575(8) -0.0139(14)
O97 O 0.3214(11) 0.7820(7) 0.1527(14)
O98 O -0.0230(9) 0.8397(8) 0.1465(13)
O99 O 0.3435(8) 0.6186(6) 1.0426(10)
O100 O -0.0053(9) 0.6570(7) 0.5118(12)
O101 O 0.4852(9) 0.6888(7) 1.0849(11)
O102 O 0.2521(12) 0.5644(8) 0.5323(14)
O103 O 0.4217(8) 0.4159(7) 1.0354(11)
O104 O 0.3803(8) 0.4737(6) 0.9936(10)
O105 O 0.3361(9) 0.7431(7) 1.0410(10)
O106 O 0.1339(10) 0.4712(8) 0.5639(14)
O107 O 0.1746(9) 0.8301(8) 0.4332(15)
O108 O 0.4036(8) 0.5799(7) 0.6548(12)
O109 O 0.0954(10) 0.8236(8) 0.1457(12)
O110 O 0.2727(9) 0.8370(7) 0.3018(10)
O111 O 0.1467(9) 0.8481(7) 0.0866(10)
O112 O 0.1528(9) 0.8536(7) 0.3149(14)
O113 O 0.1281(8) 0.6555(7) 0.5055(11)
O114 O 0.4337(9) 0.7483(7) 1.0903(11)
O115 O 0.3366(9) 0.7174(6) 0.4830(12)
O116 O 0.3301(8) 0.5725(7) 1.1098(13)
O117 O 0.2729(8) 0.7553(7) 0.3651(12)
O118 O 0.1715(8) 0.5865(7) 0.5923(10)
O119 O 0.0641(9) 0.5258(7) 0.6645(13)
O120 O 0.1118(8) 0.9239(9) 0.0125(12)
O121 O 0.0741(8) 0.8923(7) 0.0862(10)
O122 O 0.5721(11) 0.6450(7) 1.1286(12)
O123 O 0.5279(9) 0.6466(7) 1.1908(11)
O124 O 0.3799(9) 0.6845(7) 1.0278(10)
O125 O 0.2810(9) 0.8001(8) 0.2136(12)
O126 O 0.1368(8) 0.6184(7) 0.6560(11)
O127 O 0.4670(10) 0.7620(8) 1.0209(12)
O128 O 0.1001(9) 0.5458(8) 0.4974(11)
O129 O 0.3424(10) 0.6602(8) 0.5337(12)
O130 O 0.1866(9) 0.7740(7) 0.1554(10)
O131 O 0.2985(9) 0.9254(8) 0.1390(11)
O132 O 0.4807(10) 0.6743(8) 0.9190(12)
O133 O 0.1023(8) 0.6026(8) 0.7153(11)
O134 O 0.4422(9) 0.6205(7) 1.0950(10)
O135 O 0.2460(11) 0.9202(8) 0.0076(16)
O136 O 0.2987(9) 0.6347(7) 0.7113(11)
O137 O 0.3151(11) 0.5015(8) 1.0458(13)
O138 O 0.1960(9) 0.5244(7) 0.5585(10)
O139 O 0.0438(9) 0.5937(9) 0.5909(14)
O140 O 0.0872(8) 0.7874(7) 0.0496(11)
O141 O 0.1103(9) 0.6805(8) 0.7643(14)
O142 O 0.3305(11) 0.6350(10) 1.1794(12)
O143 O 0.0046(11) 0.8290(8) 0.0265(12)
O144 O 0.2452(8) 0.9186(6) 0.2755(10)
O145 O 0.2101(8) 0.7052(7) 0.5755(11)
O146 O 0.2894(11) 0.6916(7) 0.8887(13)
O147 O 0.4976(10) 0.5076(8) 1.1621(12)
O148 O 0.3817(9) 0.9324(8) 0.2677(12)
O149 O 0.0569(7) 0.8593(7) 0.1961(10)
O150 O 0.1230(9) 0.8114(7) -0.0124(11)
O151 O 0.1740(9) 0.7341(7) 0.6319(11)
O152 O 0.4869(10) 0.5922(8) 0.9328(14)
O153 O 0.4102(11) 0.6237(8) 1.1762(12)
O154 O 0.3380(9) 0.8573(8) 0.2081(13)
O155 O 0.0785(10) 0.8761(8) -0.0968(13)
O156 O 0.3114(9) 0.6913(9) 0.6405(13)
O157 O 0.3234(9) 0.5108(7) 0.8756(10)
O158 O 0.1104(10) 0.7375(9) 0.4999(11)
O159 O 0.5124(12) 0.6456(8) 1.2820(13)
O160 O 0.5224(9) 0.5806(6) 1.1315(12)
O161 O 0.2633(10) 0.7612(8) 0.9172(12)
O162 O 0.2383(11) 0.7531(9) 0.7625(13)
O163 O 0.1963(11) 0.6320(8) 0.9219(14)
O164 O 0.2170(11) 0.7989(8) 0.0896(13)
O165 O 0.2540(9) 0.6680(7) 0.7724(11)
O166 O 0.1948(9) 0.7207(8) 0.2418(13)
O167 O 0.1705(10) 0.9151(8) 0.4335(13)
O168 O 0.3646(10) 0.7485(8) 0.9694(11)
O169 O 0.4476(9) 0.6867(8) 1.1671(12)
O170 O 0.2033(10) 0.4643(8) 0.7677(12)
O171 O 0.2815(11) 0.4677(8) 0.7588(13)
O172 O 0.0573(9) 0.6035(8) 0.4035(11)
O173 O 0.1249(10) 1.0039(8) 0.0108(13)
O174 O 0.1500(10) 0.7346(9) 0.0449(14)
O175 O 0.2568(8) 1.0039(7) 0.2767(12)
O176 O 0.2430(13) 0.5528(15) 0.4026(17)
O177 O 0.0773(19) 0.9372(14) 0.295(2)
W1 W 0.44414(6) 0.87007(5) 0.69992(8)
W2 W 0.44431(6) 0.96269(5) 0.62051(8)
W3 W 0.50478(5) 0.87050(5) 0.62131(8)
W4 W 0.31708(6) 0.87259(5) 0.60651(8)
W5 W 0.37563(5) 0.78867(5) 0.61535(7)
W6 W 0.43476(5) 0.79190(5) 0.53451(8)
W7 W 0.43230(5) 0.87469(5) 0.46271(8)
W8 W 0.37367(6) 0.96818(5) 0.45874(8)
W9 W 0.31685(6) 0.96208(5) 0.52965(8)
W10 W 0.29689(5) 0.77201(5) 0.44030(7)
W11 W 0.29356(5) 0.88423(4) 0.34187(7)
W12 W 0.13311(5) 0.84066(5) 0.23762(7)
W13 W 0.22724(5) 0.96569(5) 0.22294(7)
W14 W 0.32388(5) 0.90930(5) 0.22827(8)
W15 W 0.28347(6) 0.81899(5) 0.15436(8)
W16 W 0.15578(6) 0.78236(5) 0.07305(8)
W17 W 0.06636(5) 0.83639(5) 0.06257(8)
W18 W 0.10876(5) 0.93379(5) 0.14618(8)
W19 W 0.14884(6) 0.96347(5) 0.06377(8)
W20 W 0.11113(6) 0.86559(5) -0.01653(8)
W21 W 0.24261(6) 0.90347(5) 0.06643(8)
W22 W 0.34329(6) 0.63201(5) 1.12775(8)
W23 W 0.39577(6) 0.72499(5) 1.11471(8)
W24 W 0.47865(6) 0.63619(5) 1.19966(8)
W25 W 0.33260(6) 0.55054(5) 1.04772(7)
W26 W 0.25866(5) 0.62989(5) 0.96938(8)
W27 W 0.30643(6) 0.72383(5) 0.95354(8)
W28 W 0.43143(6) 0.72256(5) 1.02032(8)
W29 W 0.51206(5) 0.63645(5) 1.10316(8)
W30 W 0.46934(6) 0.55186(5) 1.12316(7)
W31 W 0.27389(5) 0.63579(4) 0.84255(7)
W32 W 0.37514(5) 0.52961(4) 0.94961(7)
W33 W 0.33314(5) 0.58626(5) 0.74116(7)
W34 W 0.13141(6) 0.65491(5) 0.72880(8)
W35 W 0.10359(5) 0.56158(5) 0.66515(8)
W36 W 0.15254(5) 0.52089(5) 0.58614(8)
W37 W 0.22808(6) 0.57416(5) 0.56802(8)
W38 W 0.26270(5) 0.67504(5) 0.63994(8)
W39 W 0.21759(5) 0.71123(5) 0.71364(7)
W40 W 0.05448(5) 0.64181(5) 0.56777(8)
W41 W 0.14121(6) 0.70099(5) 0.55567(8)
W42 W 0.10513(6) 0.59957(5) 0.48640(8)
O178 O 0.4302(19) 0.6960(14) 0.782(2)
O179 O 0.3762(18) 0.6915(13) 0.392(2)
O180 O 0.231(2) 0.9294(15) 0.657(2)
O181 O 0.298(2) 0.9164(16) 0.802(3)
O9C O 0.0134(13) 0.8719(10) 0.2841(15)
K3A K 0.3291(3) 0.4237(2) 1.0196(4)
K4A K 0.4164(3) 0.3340(2) 1.0128(4)
K4C K -0.0836(3) 0.8340(2) 0.0128(4)
K5C K -0.0962(3) 0.8357(3) 0.1682(4)
K6B K 0.4934(3) 0.4256(2) 1.1680(4)
K6C K 0.4934(3) 0.5744(2) 0.6680(4)
O98C O 0.4770(9) 0.6603(8) 0.6465(13)
O103A O 0.4217(8) 0.5841(7) 0.5354(11)
O103B O -0.0783(8) 0.9159(7) 0.0354(11)
O104A O 0.3803(8) 0.5263(6) 0.4936(10)
O108C O -0.0964(8) 0.9201(7) 0.1548(12)
O137A O 0.3151(11) 0.4985(8) 0.5458(13)
O143C O 0.5046(11) 0.6710(8) 0.5265(12)
O147B O -0.0024(10) 1.0076(8) 0.1621(12)
O182 O 0.1679(8) 0.9408(6) 0.8688(10)
O183 O 0.2485(11) 0.2743(8) 0.5476(13)
O184 O 0.0818(14) 0.7582(10) 0.6346(16)
O185 O 0.5227(14) 0.9716(10) 0.5502(16)
O186 O 0.2270(12) 0.7860(9) 0.5506(14)
O187 O 0.2285(11) 0.0032(8) 0.3653(13)
O188 O 0.2845(12) 0.0140(9) 0.1429(14)
O189 O 0.0911(11) 0.6843(9) 0.9596(14)
O190 O 0.4593(11) 0.2530(8) 0.8205(13)
O191 O 0.1783(13) 0.9969(10) 0.4471(15)
O192 O 0.5903(13) 0.7798(10) 0.6238(15)
O193 O 0.4035(11) 0.8092(8) 0.3208(13)
O194 O 0.3911(15) 0.9684(11) 0.7217(18)
O195 O 0.5503(13) 0.4529(10) 0.5545(15)
O196 O 0.0633(14) 0.0127(10) 0.8727(16)
O197 O 0.3833(15) 0.3589(11) 0.8161(17)
O198 O 0.1492(15) 0.4389(11) 0.3330(17)
O199 O 0.3486(17) 0.5817(12) 0.3547(19)
O200 O 0.6262(16) 0.3115(12) 0.5998(18)
O201 O 0.1528(17) 0.5648(12) 0.3810(19)
O202 O 0.4901(18) 0.4299(13) 0.338(2)
O203 O 0.3574(16) 0.7220(12) 0.2380(18)
O204 O 0.3535(16) 0.2427(12) 0.3527(19)
O205 O 0.5799(19) 0.3430(14) 0.478(2)
O206 O 0.2684(16) 0.5420(12) 0.1414(19)
O207 O 0.4975(19) 0.0388(13) 0.467(2)
O208 O 0.504(2) 0.2446(16) 0.452(2)
O209 O 0.086(2) 0.5031(16) 0.310(2)
O210 O 0.184(2) 0.6036(16) 0.199(3)
O211 O 0.6113(15) 0.3055(11) 0.7480(18)
O212 O 0.189(2) 0.4819(17) 0.456(3)
O213 O 0.431(2) 0.1931(15) 0.374(2)
O214 O 0.383(2) 0.9050(16) 0.924(2)
O215 O 0.120(3) 0.978(2) 0.752(3)
O216 O 0.131(2) 0.6273(16) 0.308(3)
O217 O 0.107(2) 0.5418(15) 0.243(2)
O218 O 0.1412(16) 0.7506(12) 0.9290(19)
O219 O 0.194(3) 0.652(2) 0.304(3)
O220 O 0.448(2) 0.9718(17) 0.387(3)
K1 K 0.4092(4) 0.8797(3) 0.0911(6)
O1 O 0.3853(13) 0.9404(10) 0.1454(16)
O2 O 0.3195(12) 0.8280(9) 0.0318(14)
O3 O 0.4836(13) 0.8215(10) 0.1388(16)
O4 O 0.4448(13) 0.9327(10) 0.0430(16)
O5 O 0.4107(17) 0.8429(12) 0.1873(19)
O6 O 0.3978(14) 0.8335(11) -0.0104(17)
O7 O 0.3238(17) 0.9265(13) -0.015(2)
O8 O 0.5095(17) 0.9133(13) 0.200(2)
loop_
_geom_bond_atom_site_label_1
_geom_bond_atom_site_label_2
_geom_bond_site_symmetry_1
_geom_bond_site_symmetry_2
K1 O1 1_555 1_555
O2 K1 1_555 1_555
O3 K1 1_555 1_555
O4 K1 1_555 1_555
O5 K1 1_555 1_555
O6 K1 1_555 1_555
O7 K1 1_555 1_555
O8 K1 1_555 1_555
O9 K5 1_555 1_555
O10 K3 1_555 1_555
O11 K7 1_555 1_555
As1 O27 1_555 1_555
As2 O49 1_555 1_555
As3 O99 1_555 1_555
As4 O51 1_555 1_555
C1 C6 1_555 1_555
C2 C4 1_555 1_555
C3 H1 1_555 1_555
C4 C19 1_555 1_555
C5 C12 1_555 1_555
C6 O103 1_555 1_555
C7 H2 1_555 1_555
C8 C11 1_555 1_555
C9 H3 1_555 1_555
C10 C7 1_555 1_555
H4 C10 1_555 1_555
C11 O115 1_555 1_555
C12 C9 1_555 1_555
H5 C12 1_555 1_555
C13 C1 1_555 1_555
H6 C13 1_555 1_555
C14 C3 1_555 1_555
H7 C14 1_555 1_555
C15 C3 1_555 1_555
H8 C15 1_555 1_555
C16 C13 1_555 1_555
H9 C16 1_555 1_555
C17 C16 1_555 1_555
H10 C17 1_555 1_555
C18 C17 1_555 1_555
H11 C18 1_555 1_555
C19 C15 1_555 1_555
H12 C19 1_555 1_555
C20 C7 1_555 1_555
H13 C20 1_555 1_555
C21 C8 1_555 1_555
H14 C21 1_555 1_555
C22 H15 1_555 1_555
C23 C9 1_555 1_555
H16 C23 1_555 1_555
C24 C5 1_555 1_555
Dy1 O37 1_555 1_555
Dy2 O55 1_555 1_555
Dy3 O50 1_555 1_555
Dy4 O63 1_555 1_555
K2 O30 1_555 1_555
K3 O102 1_555 1_555
K4 O10 1_555 1_555
K5 O34 1_555 1_555
K6 O45 1_555 1_555
K7 O106 1_555 1_555
N1 C1 1_555 1_555
N2 C4 1_555 1_555
N3 C8 1_555 1_555
N4 C5 1_555 1_555
O12 W2 1_555 1_555
O13 W3 1_555 1_555
O14 W2 1_555 1_555
O15 W1 1_555 1_555
O16 W1 1_555 1_555
O17 W2 1_555 1_555
O18 W1 1_555 1_555
O19 W1 1_555 1_555
O20 W1 1_555 1_555
O21 W2 1_555 1_555
O22 W3 1_555 1_555
O23 W7 1_555 1_555
O24 W7 1_555 1_555
O25 W8 1_555 1_555
O26 W8 1_555 1_555
O27 W2 1_555 1_555
O28 W9 1_555 1_555
O29 W4 1_555 1_555
O30 W4 1_555 1_555
O31 As1 1_555 1_555
O32 As1 1_555 1_555
O33 W4 1_555 1_555
O34 W5 1_555 1_555
O35 W5 1_555 1_555
O36 W5 1_555 1_555
O37 W4 1_555 1_555
O38 Dy1 1_555 1_555
O39 W3 1_555 1_555
O40 W6 1_555 1_555
O41 K4 1_555 1_555
O42 W6 1_555 1_555
O43 W8 1_555 1_555
O44 W7 1_555 1_555
O45 W18 1_555 1_555
O46 W34 1_555 1_555
O47 W19 1_555 1_555
O48 W13 1_555 1_555
O49 W14 1_555 1_555
O51 W38 1_555 1_555
O52 W40 1_555 1_555
O53 W18 1_555 1_555
O54 Dy3 1_555 1_555
O56 Dy1 1_555 1_555
O57 W20 1_555 1_555
O58 W22 1_555 1_555
O59 W13 1_555 1_555
O60 W31 1_555 1_555
O61 Dy1 1_555 1_555
O62 Dy3 1_555 1_555
O63 W31 1_555 1_555
O64 W34 1_555 1_555
O65 W25 1_555 1_555
O66 C2 1_555 1_555
O67 Dy3 1_555 1_555
O68 Dy3 1_555 1_555
O69 W38 1_555 1_555
O70 W23 1_555 1_555
O71 As2 1_555 1_555
O72 Dy4 1_555 1_555
O73 W26 1_555 1_555
O74 W25 1_555 1_555
O75 Dy2 1_555 1_555
O76 Dy1 1_555 1_555
O77 W37 1_555 1_555
O78 W35 1_555 1_555
O79 Dy4 1_555 1_555
O80 Dy4 1_555 1_555
O81 W15 1_555 1_555
O82 Dy4 1_555 1_555
O83 W11 1_555 1_555
O84 W22 1_555 1_555
O85 W12 1_555 1_555
O86 W13 1_555 1_555
O87 W25 1_555 1_555
O88 W30 1_555 1_555
O89 W26 1_555 1_555
O90 W24 1_555 1_555
O91 W40 1_555 1_555
O92 Dy2 1_555 1_555
O93 W33 1_555 1_555
O94 Dy3 1_555 1_555
O95 W37 1_555 1_555
O96 W17 1_555 1_555
O97 W15 1_555 1_555
O98 C24 1_555 1_555
O99 W22 1_555 1_555
O100 W40 1_555 1_555
O101 W28 1_555 1_555
O102 W37 1_555 1_555
O103 K3A 1_555 1_555
O104 C6 1_555 1_555
O105 W23 1_555 1_555
O106 W36 1_555 1_555
O107 Dy1 1_555 1_555
O108 C2 1_555 1_555
O109 W12 1_555 1_555
O110 Dy2 1_555 1_555
O111 As2 1_555 1_555
O112 Dy1 1_555 1_555
O113 W41 1_555 1_555
O114 W23 1_555 1_555
O115 K4 1_555 1_555
O116 W22 1_555 1_555
O117 Dy2 1_555 1_555
O118 As4 1_555 1_555
O119 W35 1_555 1_555
O120 W19 1_555 1_555
O121 W17 1_555 1_555
O122 W29 1_555 1_555
O123 W24 1_555 1_555
O124 As3 1_555 1_555
O125 Dy2 1_555 1_555
O126 As4 1_555 1_555
O127 W28 1_555 1_555
O128 W36 1_555 1_555
O129 C11 1_555 1_555
O130 Dy2 1_555 1_555
O131 W14 1_555 1_555
O132 Dy3 1_555 1_555
O133 W34 1_555 1_555
O134 As3 1_555 1_555
O135 W21 1_555 1_555
O136 W33 1_555 1_555
O137 W25 1_555 1_555
O138 W36 1_555 1_555
O139 W35 1_555 1_555
O140 W16 1_555 1_555
O141 W34 1_555 1_555
O142 W22 1_555 1_555
O143 W17 1_555 1_555
O144 W11 1_555 1_555
O145 W38 1_555 1_555
O146 W27 1_555 1_555
O147 W30 1_555 1_555
O148 W14 1_555 1_555
O149 C24 1_555 1_555
O150 W16 1_555 1_555
O151 W39 1_555 1_555
O152 Dy3 1_555 1_555
O153 W22 1_555 1_555
O154 W14 1_555 1_555
O155 W20 1_555 1_555
O156 K5 1_555 1_555
O157 Dy4 1_555 1_555
O158 W41 1_555 1_555
O159 W24 1_555 1_555
O160 W29 1_555 1_555
O161 W27 1_555 1_555
O162 W39 1_555 1_555
O163 W26 1_555 1_555
O164 W15 1_555 1_555
O165 W31 1_555 1_555
O166 Dy2 1_555 1_555
O167 Dy1 1_555 1_555
O168 W27 1_555 1_555
O169 W23 1_555 1_555
O170 Dy4 1_555 1_555
O171 Dy4 1_555 1_555
O172 W42 1_555 1_555
O173 W19 1_555 1_555
O174 W16 1_555 1_555
O175 W13 1_555 1_555
O176 K3 1_555 1_555
O177 K6 1_555 1_555
W1 O32 1_555 1_555
W2 O15 1_555 1_555
W3 O14 1_555 1_555
W4 O19 1_555 1_555
W5 O20 1_555 1_555
W6 O31 1_555 1_555
W7 O22 1_555 1_555
W8 O21 1_555 1_555
W9 O17 1_555 1_555
W10 N3 1_555 1_555
W11 O43 1_555 1_555
W12 N4 1_555 1_555
W13 O71 1_555 1_555
W14 O48 1_555 1_555
W15 O49 1_555 1_555
W16 O111 1_555 1_555
W17 O109 1_555 1_555
W18 O59 1_555 1_555
W19 O53 1_555 1_555
W20 O96 1_555 1_555
W21 O47 1_555 1_555
W23 O58 1_555 1_555
W24 O134 1_555 1_555
W25 O99 1_555 1_555
W26 O84 1_555 1_555
W27 O89 1_555 1_555
W28 O67 1_555 1_555
W29 O68 1_555 1_555
W30 O74 1_555 1_555
W31 O62 1_555 1_555
W32 N1 1_555 1_555
W33 N2 1_555 1_555
W34 O60 1_555 1_555
W35 O79 1_555 1_555
W36 O78 1_555 1_555
W37 O93 1_555 1_555
W38 O77 1_555 1_555
W39 O46 1_555 1_555
W40 O64 1_555 1_555
W41 O51 1_555 1_555
W42 O91 1_555 1_555
O178 K5 1_555 1_555
O179 K4 1_555 1_555
O180 K2 1_555 1_555
O181 K2 1_555 1_555
O9C K6 1_555 1_555
K3A O104 1_555 1_555
K4A O103 1_555 1_555
K4C O98 1_555 1_555
K5C O98 1_555 1_555
K6B O103 1_555 1_555
K6C O9 1_555 1_555
O98C K4 1_555 1_555
O103A K3 1_555 1_555
O103B K6 1_555 1_555
O104A K3 1_555 1_555
O108C K6 1_555 1_555
O137A K3 1_555 1_555
O143C K4 1_555 1_555
O147B K6 1_555 1_555
C10 N3 1_555 1_555
C14 N2 1_555 1_555
C18 N1 1_555 1_555
C20 C21 1_555 1_555
C22 C23 1_555 1_555
C22 N4 1_555 1_555
K3 O108 1_555 1_555
K3 O129 1_555 1_555
K4 O129 1_555 1_555
K4 O103A 1_555 1_555
K5 O66 1_555 1_555
K5 O108 1_555 1_555
K5 O129 1_555 1_555
K5 O98C 1_555 1_555
K6 O98 1_555 1_555
K6 O149 1_555 1_555
O16 W3 1_555 1_555
O24 W8 1_555 1_555
O26 W9 1_555 1_555
O27 W8 1_555 1_555
O27 W9 1_555 1_555
O29 W9 1_555 1_555
O31 W3 1_555 1_555
O31 W7 1_555 1_555
O32 W4 1_555 1_555
O32 W5 1_555 1_555
O33 W5 1_555 1_555
O35 W10 1_555 1_555
O36 W6 1_555 1_555
O38 W9 1_555 1_555
O39 W6 1_555 1_555
O40 W7 1_555 1_555
O41 W6 1_555 1_555
O42 W10 1_555 1_555
O44 W11 1_555 1_555
O49 W21 1_555 1_555
O51 W39 1_555 1_555
O52 W41 1_555 1_555
O54 W33 1_555 1_555
O56 W11 1_555 1_555
O57 W21 1_555 1_555
O65 W32 1_555 1_555
O66 W33 1_555 1_555
O69 W39 1_555 1_555
O71 W18 1_555 1_555
O71 W19 1_555 1_555
O72 W33 1_555 1_555
O73 W31 1_555 1_555
O75 W12 1_555 1_555
O76 W10 1_555 1_555
O81 W21 1_555 1_555
O82 W36 1_555 1_555
O83 W14 1_555 1_555
O85 W18 1_555 1_555
O86 W19 1_555 1_555
O87 W26 1_555 1_555
O88 W32 1_555 1_555
O90 W30 1_555 1_555
O94 W32 1_555 1_555
O95 W42 1_555 1_555
O99 W26 1_555 1_555
O101 W29 1_555 1_555
O104 W32 1_555 1_555
O105 W27 1_555 1_555
O108 K6C 1_555 1_555
O110 W11 1_555 1_555
O111 W17 1_555 1_555
O111 W20 1_555 1_555
O112 W12 1_555 1_555
O113 W42 1_555 1_555
O114 W28 1_555 1_555
O115 W10 1_555 1_555
O116 W25 1_555 1_555
O117 W10 1_555 1_555
O118 W36 1_555 1_555
O118 W37 1_555 1_555
O118 W42 1_555 1_555
O120 W20 1_555 1_555
O121 W18 1_555 1_555
O123 W29 1_555 1_555
O124 W23 1_555 1_555
O124 W27 1_555 1_555
O124 W28 1_555 1_555
O125 W15 1_555 1_555
O126 W34 1_555 1_555
O126 W35 1_555 1_555
O126 W40 1_555 1_555
O128 W42 1_555 1_555
O130 W16 1_555 1_555
O131 W21 1_555 1_555
O133 W35 1_555 1_555
O134 W29 1_555 1_555
O134 W30 1_555 1_555
O136 W38 1_555 1_555
O137 K3A 1_555 1_555
O138 W37 1_555 1_555
O139 W40 1_555 1_555
O140 W17 1_555 1_555
O143 K4C 1_555 1_555
O144 W13 1_555 1_555
O145 W41 1_555 1_555
O146 W31 1_555 1_555
O147 K6B 1_555 1_555
O149 W12 1_555 1_555
O150 W20 1_555 1_555
O151 W41 1_555 1_555
O153 W24 1_555 1_555
O154 W15 1_555 1_555
O156 W38 1_555 1_555
O157 W32 1_555 1_555
O160 W30 1_555 1_555
O164 W16 1_555 1_555
O165 W39 1_555 1_555
O168 W28 1_555 1_555
O169 W24 1_555 1_555
O9C K5C 1_555 1_555
K4C O103B 1_555 1_555
K5C O108C 1_555 1_555
K6C O98C 1_555 1_555
K6C O103A 1_555 1_555

#END
