
#######################################################################
#
#                 Cambridge Crystallographic Data Centre
#                                CCDC 
#
#######################################################################
#
# If this CIF has been generated from an entry in the Cambridge 
# Structural Database, then it will include bibliographic, chemical, 
# crystal, experimental, refinement or atomic coordinate data resulting 
# from the CCDC's data processing and validation procedures.
#
#######################################################################

data_DARJOX
_chemical_formula_moiety         '(C4 H12 Al3 Co1 N1 O16 P4)n'
_symmetry_cell_setting           monoclinic
_symmetry_space_group_name_H-M   'P 21/c'
_symmetry_Int_Tables_number      14
_space_group_name_Hall           '-P 2ybc'
loop_
_symmetry_equiv_pos_site_id
_symmetry_equiv_pos_as_xyz
1 x,y,z
2 -x,1/2+y,1/2-z
3 -x,-y,-z
4 x,1/2-y,1/2+z
_cell_length_a                   8.9024(7)
_cell_length_b                   14.2796(11)
_cell_length_c                   15.0637(11)
_cell_angle_alpha                90
_cell_angle_beta                 95.068(1)
_cell_angle_gamma                90
_cell_volume                     1907.45
loop_
_atom_site_label
_atom_site_type_symbol
_atom_site_fract_x
_atom_site_fract_y
_atom_site_fract_z
Co1 Co 0.82257(8) 0.05886(5) 0.24323(4)
Al1 Al 0.61917(10) -0.06020(6) -0.09068(5)
Al2 Al 0.63958(11) 0.07044(6) 0.61468(6)
Al3 Al 0.42598(11) 0.21385(6) 0.33584(6)
P1 P 0.60091(11) 0.21834(6) 0.16217(6)
P2 P 0.64094(11) 0.05539(6) 0.41293(6)
P3 P 0.64951(11) -0.08051(6) 0.11125(6)
P4 P 1.18794(10) 0.06628(6) 0.25415(6)
O1 O 0.7006(4) -0.0547(2) 0.02001(19)
O2 O 0.6997(3) 0.0387(2) 0.50959(17)
O3 O 0.4969(3) -0.0372(2) 0.1216(2)
O4 O 1.2306(4) 0.0638(2) 0.15948(19)
O5 O 0.7657(4) -0.0477(2) 0.1836(2)
O6 O 1.2352(4) -0.0246(2) 0.30116(19)
O7 O 0.7753(3) 0.0648(2) 0.3593(2)
O8 O 0.5464(4) 0.1449(2) 0.4088(2)
O9 O 0.6358(4) -0.18648(19) 0.1149(2)
O10 O 0.5449(3) -0.0265(2) 0.3773(2)
O11 O 0.6451(4) 0.30774(18) 0.1175(2)
O12 O 0.5304(4) 0.2443(2) 0.2466(2)
O13 O 0.7420(4) 0.1617(2) 0.1822(2)
O14 O 0.4893(4) 0.1652(2) 0.1004(2)
O15 O 1.0216(4) 0.0798(3) 0.2520(3)
O16 O 1.2664(4) 0.1477(2) 0.3029(2)
Al1B Al 0.38083(10) 0.06020(6) 0.09068(5)
Al1B_2 Al 1.38083(10) 0.06020(6) 0.09068(5)
Al2B Al 1.36042(11) -0.07044(6) 0.38532(6)
Al2B_2 Al 0.36042(11) -0.07044(6) 0.38532(6)
Al2C Al 0.63958(11) 0.42956(6) 0.11468(6)
Al3A Al 0.57402(11) -0.28615(6) 0.16416(6)
Al3_2 Al 1.42598(11) 0.21385(6) 0.33584(6)
O3B O 0.5031(3) 0.0372(2) -0.1216(2)
O4B O 0.7694(4) -0.0638(2) -0.15948(19)
O6B O 0.7648(4) 0.0246(2) 0.69884(19)
O9A O 0.3642(4) 0.31352(19) 0.3851(2)
O10B O 0.4551(3) 0.0265(2) 0.6227(2)
O11C O 0.6451(4) 0.19226(18) 0.6175(2)
O14B O 0.5107(4) -0.1652(2) -0.1004(2)
O16_2 O 0.2664(4) 0.1477(2) 0.3029(2)
N1 N 0.989(2) 0.1920(12) 0.0476(15)
C1 C 0.8732(18) 0.1777(8) -0.1126(11)
C2 C 0.914(3) 0.1423(19) -0.0334(14)
C3 C 1.046(4) 0.2800(13) 0.0361(13)
C4 C 1.1054(17) 0.3200(8) 0.1186(10)
loop_
_geom_bond_atom_site_label_1
_geom_bond_atom_site_label_2
_geom_bond_site_symmetry_1
_geom_bond_site_symmetry_2
Co1 O5 1_555 1_555
Al1 O1 1_555 1_555
Al2 O2 1_555 1_555
Al3 O8 1_555 1_555
P1 O11 1_555 1_555
P2 O2 1_555 1_555
P3 O1 1_555 1_555
P4 O4 1_555 1_555
O3 P3 1_555 1_555
O4 Al1B_2 1_555 1_555
O5 P3 1_555 1_555
O6 P4 1_555 1_555
O7 Co1 1_555 1_555
O8 P2 1_555 1_555
O9 P3 1_555 1_555
O10 P2 1_555 1_555
O11 Al2C 1_555 1_555
O12 Al3 1_555 1_555
O13 Co1 1_555 1_555
O14 P1 1_555 1_555
O15 Co1 1_555 1_555
O16 P4 1_555 1_555
N1 C2 1_555 1_555
C1 C2 1_555 1_555
C3 N1 1_555 1_555
C4 C3 1_555 1_555
Al1B O3 1_555 1_555
Al2B O6 1_555 1_555
Al2B_2 O10 1_555 1_555
Al3A O9 1_555 1_555
Al3_2 O16 1_555 1_555
O3B Al1 1_555 1_555
O4B Al1 1_555 1_555
O6B Al2 1_555 1_555
O9A Al3 1_555 1_555
O10B Al2 1_555 1_555
O11C Al2 1_555 1_555
O14B Al1 1_555 1_555
O16_2 Al3 1_555 1_555
P1 O12 1_555 1_555
P1 O13 1_555 1_555
P2 O7 1_555 1_555
P4 O15 1_555 1_555
O14 Al1B 1_555 1_555

#END
