
#######################################################################
#
#                 Cambridge Crystallographic Data Centre
#                                CCDC 
#
#######################################################################
#
# If this CIF has been generated from an entry in the Cambridge 
# Structural Database, then it will include bibliographic, chemical, 
# crystal, experimental, refinement or atomic coordinate data resulting 
# from the CCDC's data processing and validation procedures.
#
#######################################################################

data_DOHXUV
_chemical_formula_moiety         '(C36 H28 Ag3 Cl1 N12 O42 Si1 W12 2-)n'
_symmetry_cell_setting           monoclinic
_symmetry_space_group_name_H-M   'C 2/c'
_symmetry_Int_Tables_number      15
_space_group_name_Hall           '-C 2yc'
loop_
_symmetry_equiv_pos_site_id
_symmetry_equiv_pos_as_xyz
1 x,y,z
2 -x,y,1/2-z
3 1/2+x,1/2+y,z
4 1/2-x,1/2+y,1/2-z
5 -x,-y,-z
6 x,-y,1/2+z
7 1/2-x,1/2-y,-z
8 1/2+x,1/2-y,1/2+z
_cell_length_a                   22.6655(5)
_cell_length_b                   18.8656(3)
_cell_length_c                   24.6036(5)
_cell_angle_alpha                90
_cell_angle_beta                 107.228(2)
_cell_angle_gamma                90
_cell_volume                     10048.4
loop_
_atom_site_label
_atom_site_type_symbol
_atom_site_fract_x
_atom_site_fract_y
_atom_site_fract_z
Ag1 Ag 1.23663(4) -0.40462(5) 0.94711(3)
Ag2 Ag 1.06788(4) 0.07225(4) 0.52235(3)
Ag3 Ag 0.83410(4) 0.72747(4) 0.48353(3)
Cl1 Cl 1.3102(2) -0.32604(18) 1.03140(12)
C1 C 1.2301(5) -0.4102(5) 0.8234(4)
H1 H 1.2346 -0.4578 0.8336
C2 C 1.2239(4) -0.3921(5) 0.7682(3)
H2 H 1.2238 -0.4267 0.7413
C3 C 1.2176(4) -0.3207(5) 0.7528(4)
C4 C 1.2187(4) -0.2707(5) 0.7941(3)
H3 H 1.2160 -0.2225 0.7855
C5 C 1.2240(5) -0.2943(5) 0.8487(4)
H4 H 1.2232 -0.2608 0.8762
C6 C 1.1941(5) -0.4424(5) 0.4724(4)
H5 H 1.1805 -0.4372 0.4330
C7 C 1.1839(5) -0.3868(5) 0.5059(4)
H6 H 1.1620 -0.3468 0.4892
C8 C 1.2069(4) -0.3925(5) 0.5639(3)
C9 C 1.2371(4) -0.4540(5) 0.5871(4)
H7 H 1.2520 -0.4596 0.6264
C10 C 1.2448(5) -0.5069(5) 0.5513(3)
H8 H 1.2664 -0.5474 0.5673
C11 C 1.1386(5) -0.0304(5) 0.6139(4)
H9 H 1.1336 0.0051 0.6384
C12 C 1.1617(5) -0.0941(5) 0.6369(4)
H10 H 1.1725 -0.1013 0.6761
C13 C 1.1685(4) -0.1476(5) 0.6010(4)
C14 C 1.1545(5) -0.1327(5) 0.5425(4)
H11 H 1.1600 -0.1669 0.5171
C15 C 1.1325(5) -0.0661(5) 0.5237(4)
H12 H 1.1240 -0.0556 0.4852
C16 C 1.2094(4) -0.3012(4) 0.6930(4)
C17 C 1.2021(4) -0.3353(5) 0.6036(3)
C18 C 1.1862(4) -0.2222(5) 0.6214(3)
C19 C 1.0023(5) 0.1562(5) 0.4183(4)
H13 H 1.0106 0.1157 0.4003
C20 C 0.9806(5) 0.2148(5) 0.3868(4)
H14 H 0.9751 0.2144 0.3478
C21 C 0.9667(5) 0.2743(5) 0.4118(3)
C22 C 0.9724(5) 0.2728(5) 0.4699(3)
H15 H 0.9610 0.3115 0.4879
C23 C 0.9955(5) 0.2117(5) 0.4996(4)
H16 H 0.9996 0.2099 0.5383
C24 C 0.9203(5) 0.4497(5) 0.1448(4)
H17 H 0.9224 0.4909 0.1248
C25 C 0.9232(4) 0.4558(5) 0.2013(4)
H18 H 0.9253 0.4998 0.2187
C26 C 0.9227(4) 0.3932(5) 0.2315(3)
C27 C 0.9200(4) 0.3303(5) 0.2052(3)
H19 H 0.9215 0.2883 0.2253
C28 C 0.9148(4) 0.3292(5) 0.1475(3)
H20 H 0.9114 0.2855 0.1294
C29 C 0.8980(5) 0.5866(5) 0.4786(4)
H21 H 0.9109 0.5928 0.5179
C30 C 0.9166(4) 0.5266(4) 0.4556(3)
H22 H 0.9410 0.4927 0.4794
C31 C 0.8988(4) 0.5170(4) 0.3971(3)
C32 C 0.8613(5) 0.5692(5) 0.3633(4)
H23 H 0.8478 0.5646 0.3239
C33 C 0.8448(5) 0.6277(5) 0.3896(4)
H24 H 0.8207 0.6627 0.3670
C34 C 0.9456(4) 0.3401(4) 0.3779(3)
C35 C 0.9252(4) 0.3960(5) 0.2944(3)
C36 C 0.9166(4) 0.4539(4) 0.3707(3)
N1 N 1.2301(4) -0.3614(4) 0.8638(3)
N2 N 1.2225(4) -0.5028(4) 0.4940(3)
N3 N 1.1231(4) -0.0160(4) 0.5590(3)
N4 N 1.1981(3) -0.2332(4) 0.6775(3)
N5 N 1.2112(4) -0.3538(4) 0.6572(3)
N6 N 1.1873(3) -0.2700(4) 0.5824(3)
N7 N 1.0121(4) 0.1552(4) 0.4752(3)
N8 N 0.9146(4) 0.3873(4) 0.1170(3)
N9 N 0.8620(4) 0.6359(4) 0.4459(3)
N10 N 0.9351(3) 0.3982(4) 0.4045(3)
N11 N 0.9396(3) 0.3350(4) 0.3222(3)
N12 N 0.9123(3) 0.4565(4) 0.3154(3)
Ag1E Ag 1.23663(4) -0.59538(5) 0.44711(3)
Ag3G Ag 1.33410(4) -0.22747(4) 0.98353(3)
Cl1G Cl 0.8102(2) 0.82604(18) 0.53140(12)
N2E N 1.2225(4) -0.4972(4) 0.9940(3)
Si1 Si 1.0000 0.20030(16) 0.7500
W1 W 1.019472(17) 0.335809(18) 0.852827(13)
W2 W 0.903476(17) 0.19467(2) 0.838591(14)
W3 W 0.884467(17) 0.070623(19) 0.735875(14)
W4 W 0.873086(16) 0.206629(17) 0.625734(13)
W5 W 0.989473(17) 0.065566(18) 0.647850(13)
W6 W 0.881773(16) 0.329894(19) 0.726732(14)
O1 O 1.0492(3) 0.2495(3) 0.7957(2)
O2 O 0.9625(3) 0.1503(3) 0.7830(2)
O3 O 1.0142(3) 0.3983(3) 0.9011(2)
O4 O 0.9671(3) 0.2610(3) 0.8662(2)
O5 O 0.9535(3) 0.3572(3) 0.7884(2)
O6 O 0.8586(3) 0.2076(3) 0.8823(2)
O7 O 0.8556(3) 0.1210(3) 0.7893(2)
O8 O 0.8693(3) 0.2585(3) 0.7769(2)
O9 O 0.8287(3) 0.0066(3) 0.7156(2)
O10 O 0.8570(3) 0.1404(3) 0.6811(2)
O11 O 0.9405(3) 0.0426(3) 0.6948(2)
O12 O 0.8124(3) 0.1911(4) 0.5669(3)
O13 O 0.9129(3) 0.2800(3) 0.5977(2)
O14 O 0.9324(3) 0.1396(3) 0.6176(2)
O15 O 0.8354(3) 0.2771(3) 0.6626(2)
O16 O 0.9676(3) 0.0041(3) 0.5947(2)
O17 O 1.0469(3) 0.1191(3) 0.6184(2)
O18 O 1.0592(3) 0.0201(3) 0.6987(2)
O19 O 0.8281(3) 0.3926(3) 0.7299(2)
O20 O 0.9217(3) 0.3790(3) 0.6783(3)
O1A O 0.9508(3) 0.2495(3) 0.7043(2)
O2A O 1.0375(3) 0.1503(3) 0.7170(2)
W1A W 0.980528(17) 0.335809(18) 0.647173(13)
W2A W 1.096524(17) 0.19467(2) 0.661409(14)
W3A W 1.115533(17) 0.070623(19) 0.764125(14)
W4A W 1.126914(16) 0.206629(17) 0.874266(13)
W5A W 1.010527(17) 0.065566(18) 0.852150(13)
W6A W 1.118227(16) 0.329894(19) 0.773268(14)
O3A O 0.9858(3) 0.3983(3) 0.5989(2)
O4A O 1.0329(3) 0.2610(3) 0.6338(2)
O5A O 1.0465(3) 0.3572(3) 0.7116(2)
O6A O 1.1414(3) 0.2076(3) 0.6177(2)
O7A O 1.1444(3) 0.1210(3) 0.7107(2)
O8A O 1.1307(3) 0.2585(3) 0.7231(2)
O9A O 1.1713(3) 0.0066(3) 0.7844(2)
O10A O 1.1430(3) 0.1404(3) 0.8189(2)
O11A O 1.0595(3) 0.0426(3) 0.8052(2)
O12A O 1.1876(3) 0.1911(4) 0.9331(3)
O13A O 1.0871(3) 0.2800(3) 0.9023(2)
O14A O 1.0676(3) 0.1396(3) 0.8824(2)
O15A O 1.1646(3) 0.2771(3) 0.8374(2)
O16A O 1.0324(3) 0.0041(3) 0.9053(2)
O17A O 0.9531(3) 0.1191(3) 0.8816(2)
O18A O 0.9408(3) 0.0201(3) 0.8013(2)
O19A O 1.1719(3) 0.3926(3) 0.7701(2)
O20A O 1.0783(3) 0.3790(3) 0.8217(3)
O21 O 1.1503(9) -0.1322(10) 0.8311(7)
O22 O 0.9488(10) 0.1314(11) 0.2606(8)
loop_
_geom_bond_atom_site_label_1
_geom_bond_atom_site_label_2
_geom_bond_site_symmetry_1
_geom_bond_site_symmetry_2
Ag1 Cl1 1_555 1_555
Ag2 N3 1_555 1_555
Ag3 N9 1_555 1_555
Cl1 Ag3G 1_555 1_555
C1 H1 1_555 1_555
C2 C1 1_555 1_555
H2 C2 1_555 1_555
C3 C2 1_555 1_555
C4 C3 1_555 1_555
H3 C4 1_555 1_555
C5 C4 1_555 1_555
H4 C5 1_555 1_555
C6 H5 1_555 1_555
C7 C6 1_555 1_555
H6 C7 1_555 1_555
C8 C7 1_555 1_555
C9 C8 1_555 1_555
H7 C9 1_555 1_555
C10 C9 1_555 1_555
H8 C10 1_555 1_555
C11 H9 1_555 1_555
C12 C11 1_555 1_555
H10 C12 1_555 1_555
C13 C12 1_555 1_555
C14 C13 1_555 1_555
H11 C14 1_555 1_555
C15 C14 1_555 1_555
H12 C15 1_555 1_555
C16 C3 1_555 1_555
C17 C8 1_555 1_555
C18 C13 1_555 1_555
C19 H13 1_555 1_555
C20 C19 1_555 1_555
H14 C20 1_555 1_555
C21 C20 1_555 1_555
C22 C21 1_555 1_555
H15 C22 1_555 1_555
C23 C22 1_555 1_555
H16 C23 1_555 1_555
C24 H17 1_555 1_555
C25 C24 1_555 1_555
H18 C25 1_555 1_555
C26 C25 1_555 1_555
C27 C26 1_555 1_555
H19 C27 1_555 1_555
C28 C27 1_555 1_555
H20 C28 1_555 1_555
C29 H21 1_555 1_555
C30 C29 1_555 1_555
H22 C30 1_555 1_555
C31 C30 1_555 1_555
C32 C31 1_555 1_555
H23 C32 1_555 1_555
C33 C32 1_555 1_555
H24 C33 1_555 1_555
C34 C21 1_555 1_555
C35 C26 1_555 1_555
C36 C31 1_555 1_555
N1 Ag1 1_555 1_555
N2 C6 1_555 1_555
N3 C11 1_555 1_555
N4 C16 1_555 1_555
N5 C16 1_555 1_555
N6 C17 1_555 1_555
N7 Ag2 1_555 1_555
N8 C24 1_555 1_555
N9 C29 1_555 1_555
N10 C34 1_555 1_555
N11 C34 1_555 1_555
N12 C35 1_555 1_555
Si1 O1 1_555 1_555
W1 O1 1_555 1_555
W2 O2 1_555 1_555
W3 O2 1_555 1_555
W4 O10 1_555 1_555
W5 O11 1_555 1_555
W6 O5 1_555 1_555
O1 W4A 1_555 1_555
O2 Si1 1_555 1_555
O3 W1 1_555 1_555
O4 W1 1_555 1_555
O5 W1 1_555 1_555
O6 W2 1_555 1_555
O7 W2 1_555 1_555
O8 W2 1_555 1_555
O9 W3 1_555 1_555
O10 W3 1_555 1_555
O11 W3 1_555 1_555
O12 W4 1_555 1_555
O13 W4 1_555 1_555
O14 W4 1_555 1_555
O15 W4 1_555 1_555
O16 W5 1_555 1_555
O17 W5 1_555 1_555
O18 W5 1_555 1_555
O19 W6 1_555 1_555
O20 W6 1_555 1_555
Ag1E N2 1_555 1_555
Cl1G Ag3 1_555 1_555
N2E Ag1 1_555 1_555
O1A Si1 1_555 1_555
O2A Si1 1_555 1_555
W1A O13 1_555 1_555
W2A O17 1_555 1_555
W3A O18 1_555 1_555
W4A O10A 1_555 1_555
W5A O2 1_555 1_555
W6A O1 1_555 1_555
O3A W1A 1_555 1_555
O4A W1A 1_555 1_555
O5A W1A 1_555 1_555
O6A W2A 1_555 1_555
O7A W2A 1_555 1_555
O8A W2A 1_555 1_555
O9A W3A 1_555 1_555
O10A W3A 1_555 1_555
O11A W3A 1_555 1_555
O12A W4A 1_555 1_555
O13A W1 1_555 1_555
O14A W4A 1_555 1_555
O15A W4A 1_555 1_555
O16A W5A 1_555 1_555
O17A W2 1_555 1_555
O18A W3 1_555 1_555
O19A W6A 1_555 1_555
O20A W1 1_555 1_555
C1 N1 1_555 1_555
C5 N1 1_555 1_555
C10 N2 1_555 1_555
C15 N3 1_555 1_555
C17 N5 1_555 1_555
C18 N4 1_555 1_555
C18 N6 1_555 1_555
C19 N7 1_555 1_555
C23 N7 1_555 1_555
C28 N8 1_555 1_555
C33 N9 1_555 1_555
C35 N11 1_555 1_555
C36 N10 1_555 1_555
C36 N12 1_555 1_555
W2 O4 1_555 1_555
W3 O7 1_555 1_555
W4 O1A 1_555 1_555
W5 O14 1_555 1_555
W5 O2A 1_555 1_555
W6 O8 1_555 1_555
W6 O15 1_555 1_555
W6 O1A 1_555 1_555
O20 W1A 1_555 1_555
O1A W1A 1_555 1_555
O2A W2A 1_555 1_555
O2A W3A 1_555 1_555
W2A O4A 1_555 1_555
W3A O7A 1_555 1_555
W4A O13A 1_555 1_555
W5A O11A 1_555 1_555
W5A O14A 1_555 1_555
W5A O17A 1_555 1_555
W5A O18A 1_555 1_555
W6A O5A 1_555 1_555
W6A O8A 1_555 1_555
W6A O15A 1_555 1_555
W6A O20A 1_555 1_555

#END
