
#######################################################################
#
#                 Cambridge Crystallographic Data Centre
#                                CCDC 
#
#######################################################################
#
# If this CIF has been generated from an entry in the Cambridge 
# Structural Database, then it will include bibliographic, chemical, 
# crystal, experimental, refinement or atomic coordinate data resulting 
# from the CCDC's data processing and validation procedures.
#
#######################################################################

data_HAXJEX
_chemical_formula_moiety         '(C42 H26 N4 O15 Zn4)n'
_symmetry_cell_setting           monoclinic
_symmetry_space_group_name_H-M   'C 2/c'
_symmetry_Int_Tables_number      15
_space_group_name_Hall           '-C 2yc'
loop_
_symmetry_equiv_pos_site_id
_symmetry_equiv_pos_as_xyz
1 x,y,z
2 -x,y,1/2-z
3 1/2+x,1/2+y,z
4 1/2-x,1/2+y,1/2-z
5 -x,-y,-z
6 x,-y,1/2+z
7 1/2-x,1/2-y,-z
8 1/2+x,1/2-y,1/2+z
_cell_length_a                   15.4925(4)
_cell_length_b                   15.6741(6)
_cell_length_c                   17.0388(5)
_cell_angle_alpha                90
_cell_angle_beta                 92.353(3)
_cell_angle_gamma                90
_cell_volume                     4134.06
loop_
_atom_site_label
_atom_site_type_symbol
_atom_site_fract_x
_atom_site_fract_y
_atom_site_fract_z
_atom_site_U_iso_or_equiv
_atom_site_thermal_displace_type
Zn1 Zn 0.94033(3) 0.40331(4) 1.18257(3) 0.0222 Uani
Zn2 Zn 0.44100(3) 0.25651(4) 0.82518(3) 0.0227 Uani
N1 N 0.3127(3) 0.2055(3) 0.8356(3) 0.0330 Uani
N2 N 0.4365(3) 0.2198(2) 0.9484(2) 0.0282 Uani
O1 O 0.8808(2) 0.3812(2) 1.08669(18) 0.0363 Uani
O2 O 0.7422(2) 0.3588(3) 1.1093(2) 0.0617 Uani
O3 O 0.5491(2) 0.3255(2) 0.86086(18) 0.0312 Uani
O4 O 0.6109(2) 0.3468(2) 0.74704(18) 0.0295 Uani
O5 O 0.9582(2) 0.5303(2) 0.85355(19) 0.0339 Uani
O6 O 0.8758(2) 0.5150(2) 0.74336(19) 0.0338 Uani
O7 O 1.00000 0.3197(3) 1.25000 0.0214 Uani
C1 C 0.6901(3) 0.3829(3) 0.8628(3) 0.0213 Uani
C2 C 0.8425(3) 0.4367(3) 0.9381(3) 0.0220 Uani
H1 H 0.894 0.4543 0.9629 0.0260 Uiso
C3 C 0.6116(3) 0.3493(3) 0.8213(3) 0.0248 Uani
C4 C 0.7822(3) 0.3939(3) 0.9804(3) 0.0215 Uani
C5 C 0.7512(3) 0.4256(3) 0.8216(3) 0.0246 Uani
H2 H 0.7413 0.4357 0.7682 0.0300 Uiso
C6 C 0.8002(4) 0.3760(3) 1.0668(3) 0.0313 Uani
C7 C 0.8269(3) 0.4539(3) 0.8583(3) 0.0211 Uani
C8 C 0.7052(3) 0.3685(3) 0.9422(3) 0.0244 Uani
H3 H 0.6632 0.3414 0.9706 0.0290 Uiso
C9 C 0.8928(3) 0.5036(3) 0.8157(3) 0.0258 Uani
C10 C 0.1539(4) 0.1319(4) 0.8636(4) 0.0594 Uani
H4 H 0.1004 0.1076 0.8723 0.0710 Uiso
C11 C 0.2068(4) 0.1035(4) 1.0033(4) 0.0578 Uani
H5 H 0.155 0.0777 1.0155 0.0690 Uiso
C12 C 0.4900(4) 0.1986(4) 1.0799(3) 0.0468 Uani
H6 H 0.5343 0.2067 1.1177 0.0560 Uiso
C13 C 0.4164(4) 0.1577(4) 1.0978(3) 0.0503 Uani
H7 H 0.4108 0.1357 1.1481 0.0600 Uiso
C14 C 0.2694(5) 0.1096(4) 1.0583(4) 0.0595 Uani
H8 H 0.2603 0.0882 1.1081 0.0710 Uiso
C15 C 0.1705(4) 0.1633(4) 0.7926(4) 0.0582 Uani
H9 H 0.129 0.1603 0.7518 0.0700 Uiso
C16 C 0.3502(4) 0.1482(3) 1.0432(3) 0.0385 Uani
C17 C 0.2172(4) 0.1358(3) 0.9252(4) 0.0413 Uani
C18 C 0.4974(3) 0.2277(3) 1.0050(3) 0.0384 Uani
H10 H 0.5486 0.2548 0.9928 0.0460 Uiso
C19 C 0.2964(3) 0.1731(3) 0.9079(3) 0.0307 Uani
C20 C 0.2509(4) 0.2004(4) 0.7805(3) 0.0441 Uani
H11 H 0.2611 0.2226 0.7311 0.0530 Uiso
C21 C 0.3629(3) 0.1804(3) 0.9674(3) 0.0281 Uani
Zn1D Zn 1.05967(3) 0.59669(4) 0.81743(3) 0.0222 Uani
Zn1E Zn 0.94033(3) 0.59669(4) 0.68257(3) 0.0222 Uani
Zn1A Zn 1.05967(3) 0.40331(4) 1.31743(3) 0.0222 Uani
Zn2D Zn 1.55900(3) 0.74349(4) 1.17482(3) 0.0227 Uani
Zn2A Zn 0.55900(3) 0.25651(4) 0.67482(3) 0.0227 Uani
Zn2F Zn 1.05900(3) 0.24349(4) 1.17482(3) 0.0227 Uani
Zn2G Zn 0.94100(3) 0.24349(4) 1.32518(3) 0.0227 Uani
Zn2E Zn 1.44100(3) 0.74349(4) 1.32518(3) 0.0227 Uani
N1D N 1.6873(3) 0.7945(3) 1.1644(3) 0.0330 Uani
N2D N 1.5635(3) 0.7802(2) 1.0516(2) 0.0282 Uani
O1D O 1.1192(2) 0.6188(2) 0.91331(18) 0.0363 Uani
O2D O 1.2578(2) 0.6412(3) 0.8907(2) 0.0617 Uani
O3D O 1.4509(2) 0.6745(2) 1.13914(18) 0.0312 Uani
O4D O 1.3891(2) 0.6532(2) 1.25296(18) 0.0295 Uani
O4A O 0.3891(2) 0.3468(2) 0.75296(18) 0.0295 Uani
O4E O 1.6109(2) 0.6532(2) 1.24704(18) 0.0295 Uani
O5D O 1.0418(2) 0.4697(2) 1.14645(19) 0.0339 Uani
O6D O 1.1242(2) 0.4850(2) 1.25664(19) 0.0338 Uani
O6E O 0.8758(2) 0.4850(2) 1.24336(19) 0.0338 Uani
O6A O 1.1242(2) 0.5150(2) 0.75664(19) 0.0338 Uani
O7F O 0.50000 0.1803(3) 0.75000 0.0214 Uani
O7D O 1.00000 0.6803(3) 0.75000 0.0214 Uani
O7B O 1.50000 0.8197(3) 1.25000 0.0214 Uani
C1D C 1.3099(3) 0.6171(3) 1.1372(3) 0.0213 Uani
C2D C 1.1575(3) 0.5633(3) 1.0619(3) 0.0220 Uani
H1D H 1.106 0.5457 1.0371 0.0260 Uiso
C3D C 1.3884(3) 0.6507(3) 1.1787(3) 0.0248 Uani
C4D C 1.2178(3) 0.6061(3) 1.0196(3) 0.0215 Uani
C5D C 1.2488(3) 0.5744(3) 1.1784(3) 0.0246 Uani
H2D H 1.2587 0.5643 1.2318 0.0300 Uiso
C6D C 1.1998(4) 0.6240(3) 0.9332(3) 0.0313 Uani
C7D C 1.1731(3) 0.5461(3) 1.1417(3) 0.0211 Uani
C8D C 1.2948(3) 0.6315(3) 1.0578(3) 0.0244 Uani
H3D H 1.3368 0.6586 1.0294 0.0290 Uiso
C9D C 1.1072(3) 0.4964(3) 1.1843(3) 0.0258 Uani
C10D C 1.8461(4) 0.8681(4) 1.1364(4) 0.0594 Uani
H4D H 1.8996 0.8924 1.1277 0.0710 Uiso
C11D C 1.7932(4) 0.8965(4) 0.9967(4) 0.0578 Uani
H5D H 1.845 0.9223 0.9845 0.0690 Uiso
C12D C 1.5100(4) 0.8014(4) 0.9201(3) 0.0468 Uani
H6D H 1.4657 0.7933 0.8823 0.0560 Uiso
C13D C 1.5836(4) 0.8423(4) 0.9022(3) 0.0503 Uani
H7D H 1.5892 0.8643 0.8519 0.0600 Uiso
C14D C 1.7306(5) 0.8904(4) 0.9417(4) 0.0595 Uani
H8D H 1.7397 0.9118 0.8919 0.0710 Uiso
C15D C 1.8295(4) 0.8367(4) 1.2074(4) 0.0582 Uani
H9D H 1.871 0.8397 1.2482 0.0700 Uiso
C16D C 1.6498(4) 0.8518(3) 0.9568(3) 0.0385 Uani
C17D C 1.7828(4) 0.8642(3) 1.0748(4) 0.0413 Uani
C18D C 1.5026(3) 0.7723(3) 0.9950(3) 0.0384 Uani
H10D H 1.4514 0.7452 1.0072 0.0460 Uiso
C19D C 1.7036(3) 0.8269(3) 1.0921(3) 0.0307 Uani
C20D C 1.7491(4) 0.7996(4) 1.2195(3) 0.0441 Uani
H11D H 1.7389 0.7774 1.2689 0.0530 Uiso
C21D C 1.6371(3) 0.8196(3) 1.0326(3) 0.0281 Uani
O8 O 0.50000 0.5172(4) 0.75000 0.0707 Uani
O9 O 0.0736(3) 0.0837(4) 0.6158(3) 0.1051 Uani
loop_
_atom_site_aniso_label
_atom_site_aniso_U_11
_atom_site_aniso_U_22
_atom_site_aniso_U_33
_atom_site_aniso_U_23
_atom_site_aniso_U_13
_atom_site_aniso_U_12
Zn1 0.0195 0.0342 0.0125 0.0002 -0.0043 0.0002
Zn2 0.0188 0.0341 0.015 -0.0012 -0.0012 -0.0007
N1 0.028 0.043 0.028 -0.014 0.001 -0.001
N2 0.028 0.035 0.022 0 0.006 0.001
O1 0.025 0.067 0.0162 -0.0023 -0.0089 -0.001
O2 0.034 0.127 0.024 0.02 0 -0.018
O3 0.0205 0.051 0.022 0.004 -0.0014 -0.0142
O4 0.031 0.044 0.0126 0.001 -0.0107 -0.0123
O5 0.024 0.05 0.027 0.004 -0.0092 -0.0115
O6 0.033 0.049 0.019 0.006 -0.0028 -0.0192
O7 0.018 0.027 0.019 0 -0.001 0
C1 0.017 0.03 0.016 0.005 -0.009 -0.005
C2 0.014 0.027 0.024 0.001 -0.01 -0.003
C3 0.02 0.025 0.028 -0.004 -0.016 0.001
C4 0.017 0.03 0.017 0.004 -0.006 -0.002
C5 0.026 0.032 0.015 0.001 -0.009 -0.004
C6 0.03 0.039 0.024 0.002 -0.01 -0.004
C7 0.019 0.027 0.017 0.002 -0.003 -0.003
C8 0.016 0.04 0.017 0.007 -0.003 -0.007
C9 0.019 0.032 0.026 -0.003 -0.003 0.001
C10 0.035 0.069 0.076 -0.024 0.023 -0.016
C11 0.056 0.044 0.077 -0.008 0.047 -0.018
C12 0.058 0.064 0.018 -0.001 -0.003 0.013
C13 0.08 0.052 0.02 0.009 0.015 0.014
C14 0.078 0.048 0.055 0.002 0.034 -0.001
C15 0.033 0.073 0.068 -0.038 -0.006 -0.009
C16 0.06 0.028 0.029 0.004 0.019 0.002
C17 0.029 0.034 0.062 -0.016 0.017 -0.004
C18 0.036 0.053 0.026 -0.005 -0.001 -0.002
C19 0.028 0.031 0.034 -0.005 0.012 -0.001
C20 0.038 0.058 0.036 -0.022 -0.002 -0.003
C21 0.028 0.024 0.033 0.002 0.01 0.004
Zn1D 0.0195 0.0342 0.0125 0.0002 -0.0043 0.0002
Zn1E 0.0195 0.0342 0.0125 -0.0002 -0.0043 -0.0002
Zn1A 0.0195 0.0342 0.0125 -0.0002 -0.0043 -0.0002
Zn2D 0.0188 0.0341 0.015 -0.0012 -0.0012 -0.0007
Zn2A 0.0188(3) 0.0341(4) 0.0150(3) 0.0012(3) -0.0012(2) 0.0007(3)
Zn2F 0.0188 0.0341 0.015 -0.0012 -0.0012 -0.0007
Zn2G 0.0188 0.0341 0.015 0.0012 -0.0012 0.0007
Zn2E 0.0188 0.0341 0.015 0.0012 -0.0012 0.0007
N1D 0.028 0.043 0.028 -0.014 0.001 -0.001
N2D 0.028 0.035 0.022 0 0.006 0.001
O1D 0.025 0.067 0.0162 -0.0023 -0.0089 -0.001
O2D 0.034 0.127 0.024 0.02 0 -0.018
O3D 0.0205 0.051 0.022 0.004 -0.0014 -0.0142
O4D 0.031 0.044 0.0126 0.001 -0.0107 -0.0123
O4A 0.031 0.044 0.0126 -0.001 -0.0107 0.0123
O4E 0.031 0.044 0.0126 -0.001 -0.0107 0.0123
O5D 0.024 0.05 0.027 0.004 -0.0092 -0.0115
O6D 0.033 0.049 0.019 0.006 -0.0028 -0.0192
O6E 0.033 0.049 0.019 -0.006 -0.0028 0.0192
O6A 0.033 0.049 0.019 -0.006 -0.0028 0.0192
O7F 0.018(3) 0.027(3) 0.019(3) 0 -0.001(2) 0
O7D 0.018 0.027 0.019 0 -0.001 0
O7B 0.018 0.027 0.019 0 -0.001 0
C1D 0.017 0.03 0.016 0.005 -0.009 -0.005
C2D 0.014 0.027 0.024 0.001 -0.01 -0.003
C3D 0.02 0.025 0.028 -0.004 -0.016 0.001
C4D 0.017 0.03 0.017 0.004 -0.006 -0.002
C5D 0.026 0.032 0.015 0.001 -0.009 -0.004
C6D 0.03 0.039 0.024 0.002 -0.01 -0.004
C7D 0.019 0.027 0.017 0.002 -0.003 -0.003
C8D 0.016 0.04 0.017 0.007 -0.003 -0.007
C9D 0.019 0.032 0.026 -0.003 -0.003 0.001
C10D 0.035 0.069 0.076 -0.024 0.023 -0.016
C11D 0.056 0.044 0.077 -0.008 0.047 -0.018
C12D 0.058 0.064 0.018 -0.001 -0.003 0.013
C13D 0.08 0.052 0.02 0.009 0.015 0.014
C14D 0.078 0.048 0.055 0.002 0.034 -0.001
C15D 0.033 0.073 0.068 -0.038 -0.006 -0.009
C16D 0.06 0.028 0.029 0.004 0.019 0.002
C17D 0.029 0.034 0.062 -0.016 0.017 -0.004
C18D 0.036 0.053 0.026 -0.005 -0.001 -0.002
C19D 0.028 0.031 0.034 -0.005 0.012 -0.001
C20D 0.038 0.058 0.036 -0.022 -0.002 -0.003
C21D 0.028 0.024 0.033 0.002 0.01 0.004
O8 0.070(4) 0.064(4) 0.077(5) 0 -0.010(4) 0
O9 0.073(3) 0.178(5) 0.065(3) -0.021(3) 0.011(3) -0.032(4)
loop_
_geom_bond_atom_site_label_1
_geom_bond_atom_site_label_2
_geom_bond_site_symmetry_1
_geom_bond_site_symmetry_2
Zn1 O1 1_555 1_555
Zn2 N1 1_555 1_555
N1 C19 1_555 1_555
N2 Zn2 1_555 1_555
O1 C6 1_555 1_555
O2 C6 1_555 1_555
O3 Zn2 1_555 1_555
O4 C3 1_555 1_555
O5 C9 1_555 1_555
O6 C9 1_555 1_555
O7 Zn1 1_555 1_555
C1 C3 1_555 1_555
C2 H1 1_555 1_555
C3 O3 1_555 1_555
C4 C2 1_555 1_555
C5 C1 1_555 1_555
H2 C5 1_555 1_555
C6 C4 1_555 1_555
C7 C2 1_555 1_555
C8 C1 1_555 1_555
H3 C8 1_555 1_555
C9 C7 1_555 1_555
C10 H4 1_555 1_555
C11 H5 1_555 1_555
C12 H6 1_555 1_555
C13 C12 1_555 1_555
H7 C13 1_555 1_555
C14 C11 1_555 1_555
H8 C14 1_555 1_555
C15 C10 1_555 1_555
H9 C15 1_555 1_555
C16 C13 1_555 1_555
C17 C10 1_555 1_555
C18 N2 1_555 1_555
H10 C18 1_555 1_555
C19 C17 1_555 1_555
C20 N1 1_555 1_555
H11 C20 1_555 1_555
C21 N2 1_555 1_555
Zn1D O5 1_555 1_555
Zn1E O6 1_555 1_555
Zn1A O7 1_555 1_555
Zn2D N1D 1_555 1_555
Zn2A O4 1_555 1_555
Zn2F O7 1_555 1_555
Zn2G O7 1_555 1_555
Zn2E O4D 1_555 1_555
N1D C19D 1_555 1_555
N2D Zn2D 1_555 1_555
O1D Zn1D 1_555 1_555
O2D C6D 1_555 1_555
O3D Zn2D 1_555 1_555
O4D C3D 1_555 1_555
O4A Zn2 1_555 1_555
O4E Zn2D 1_555 1_555
O5D Zn1 1_555 1_555
O6D Zn1A 1_555 1_555
O6E Zn1 1_555 1_555
O6A Zn1D 1_555 1_555
O7F Zn2 1_555 1_555
O7D Zn1D 1_555 1_555
O7B Zn2D 1_555 1_555
C1D C3D 1_555 1_555
C2D H1D 1_555 1_555
C3D O3D 1_555 1_555
C4D C2D 1_555 1_555
C5D C1D 1_555 1_555
H2D C5D 1_555 1_555
C6D O1D 1_555 1_555
C7D C2D 1_555 1_555
C8D C1D 1_555 1_555
H3D C8D 1_555 1_555
C9D O5D 1_555 1_555
C10D H4D 1_555 1_555
C11D H5D 1_555 1_555
C12D H6D 1_555 1_555
C13D C12D 1_555 1_555
H7D C13D 1_555 1_555
C14D C11D 1_555 1_555
H8D C14D 1_555 1_555
C15D C10D 1_555 1_555
H9D C15D 1_555 1_555
C16D C13D 1_555 1_555
C17D C10D 1_555 1_555
C18D N2D 1_555 1_555
H10D C18D 1_555 1_555
C19D C17D 1_555 1_555
C20D N1D 1_555 1_555
H11D C20D 1_555 1_555
C21D N2D 1_555 1_555
C4 C8 1_555 1_555
C5 C7 1_555 1_555
C11 C17 1_555 1_555
C12 C18 1_555 1_555
C14 C16 1_555 1_555
C15 C20 1_555 1_555
C16 C21 1_555 1_555
C19 C21 1_555 1_555
Zn1E O7D 1_555 1_555
Zn2A O7F 1_555 1_555
Zn2E O7B 1_555 1_555
O6D C9D 1_555 1_555
C4D C6D 1_555 1_555
C4D C8D 1_555 1_555
C5D C7D 1_555 1_555
C7D C9D 1_555 1_555
C11D C17D 1_555 1_555
C12D C18D 1_555 1_555
C14D C16D 1_555 1_555
C15D C20D 1_555 1_555
C16D C21D 1_555 1_555
C19D C21D 1_555 1_555

#END
