
#######################################################################
#
#                 Cambridge Crystallographic Data Centre
#                                CCDC 
#
#######################################################################
#
# If this CIF has been generated from an entry in the Cambridge 
# Structural Database, then it will include bibliographic, chemical, 
# crystal, experimental, refinement or atomic coordinate data resulting 
# from the CCDC's data processing and validation procedures.
#
#######################################################################

data_PADHIM
_chemical_formula_moiety         'C18 H34 Ba1 O4 S4'
_symmetry_cell_setting           orthorhombic
_symmetry_space_group_name_H-M   'F d d d'
_symmetry_Int_Tables_number      70
_space_group_name_Hall           '-F 2uv 2vw'
loop_
_symmetry_equiv_pos_site_id
_symmetry_equiv_pos_as_xyz
1 x,y,z
2 x,1/2+y,1/2+z
3 x,1/4-y,1/4-z
4 1/2+x,y,1/2+z
5 1/4-x,y,1/4-z
6 1/2+x,1/2+y,z
7 1/4-x,1/4-y,z
8 3/4-x,3/4-y,z
9 3/4-x,y,3/4-z
10 x,3/4-y,3/4-z
11 3/4-x,1/4-y,1/2+z
12 3/4-x,1/2+y,1/4-z
13 1/4-x,3/4-y,1/2+z
14 1/2+x,3/4-y,1/4-z
15 1/4-x,1/2+y,3/4-z
16 1/2+x,1/4-y,3/4-z
17 -x,-y,-z
18 -x,1/2-y,1/2-z
19 -x,3/4+y,3/4+z
20 1/2-x,-y,1/2-z
21 3/4+x,-y,3/4+z
22 1/2-x,1/2-y,-z
23 3/4+x,3/4+y,-z
24 1/4+x,1/4+y,-z
25 1/4+x,-y,1/4+z
26 -x,1/4+y,1/4+z
27 1/4+x,3/4+y,1/2-z
28 1/4+x,1/2-y,3/4+z
29 3/4+x,1/4+y,1/2-z
30 1/2-x,1/4+y,3/4+z
31 3/4+x,1/2-y,1/4+z
32 1/2-x,3/4+y,1/4+z
_cell_length_a                   13.4608(6)
_cell_length_b                   13.4707(6)
_cell_length_c                   13.5076(6)
_cell_angle_alpha                90
_cell_angle_beta                 90
_cell_angle_gamma                90
_cell_volume                     2449.28
loop_
_atom_site_label
_atom_site_type_symbol
_atom_site_fract_x
_atom_site_fract_y
_atom_site_fract_z
_atom_site_U_iso_or_equiv
_atom_site_thermal_displace_type
Ba1 Ba 0.1250 0.1250 0.1250 0.0179 Uani
C1 C 0.0696(4) -0.0513(12) -0.0175(14) 0.0323 Uani
H1 H 0.1256 -0.0915 -0.0326 0.0390 Uiso
C2 C 0.0038(14) -0.0656(6) 0.0614(8) 0.0317 Uani
H2 H 0.0072 -0.1173 0.1092 0.0380 Uiso
C3 C 0.0681(5) -0.0094(14) -0.0575(10) 0.0310 Uani
H3 H 0.1219 -0.0177 -0.1022 0.0370 Uiso
C4 C 0.0466(13) -0.0702(4) 0.0238(15) 0.0367 Uani
H4 H 0.0833 -0.1269 0.0440 0.0440 Uiso
C5 C 0.0386(14) 0.0326(15) -0.0701(4) 0.0363 Uani
H5 H 0.0697 0.0594 -0.1273 0.0440 Uiso
C3P C -0.0681(5) 0.0094(14) 0.0575(10) 0.0310 Uani
C1P C -0.0696(4) 0.0513(12) 0.0175(14) 0.0323 Uani
H1P H -0.1256 0.0915 0.0326 0.0390 Uiso
C2P C -0.0038(14) 0.0656(6) -0.0614(8) 0.0317 Uani
H2P H -0.0072 0.1173 -0.1092 0.0380 Uiso
C5P C -0.0386(14) -0.0326(15) 0.0701(4) 0.0363 Uani
C4P C -0.0466(13) 0.0702(4) -0.0238(15) 0.0367 Uani
H3P H -0.1219 0.0177 0.1022 0.0370 Uiso
H4P H -0.0833 0.1269 -0.0440 0.0440 Uiso
H5P H -0.0697 -0.0594 0.1273 0.0440 Uiso
S1 S 0.1368(9) 0.1380(9) 0.6045(6) 0.1107 Uani
O1 O 0.069(2) 0.063(2) 0.5541(14) 0.0900 Uiso
C6 C 0.207(2) 0.071(3) 0.695(2) 0.0900 Uiso
H6 H 0.0886 0.0341 0.5117 0.1350 Uiso
H7 H 0.0039 0.1174 0.5153 0.1350 Uiso
H8 H -0.0015 0.0240 0.5884 0.1350 Uiso
C7 C 0.061(4) 0.208(2) 0.688(2) 0.0900 Uiso
H9 H 0.0117 0.0039 0.6001 0.1350 Uiso
H10 H 0.1028 -0.0040 0.5243 0.1350 Uiso
H11 H 0.0267 0.0870 0.5167 0.1350 Uiso
S1B S 0.1368(9) 0.1120(9) 0.6455(6) 0.1107 Uani
S1F S 0.1132(9) 0.1120(9) 0.6045(6) 0.1107 Uani
S1D S 0.1132(9) 0.1380(9) 0.6455(6) 0.1107 Uani
O1F O 0.181(2) 0.187(2) 0.5541(14) 0.0900 Uiso
O1B O 0.069(2) 0.187(2) 0.6959(14) 0.0900 Uiso
O1D O 0.181(2) 0.063(2) 0.6959(14) 0.0900 Uiso
C6B C 0.207(2) 0.179(3) 0.555(2) 0.0900 Uiso
C6F C 0.043(2) 0.179(3) 0.695(2) 0.0900 Uiso
C6D C 0.043(2) 0.071(3) 0.555(2) 0.0900 Uiso
C7B C 0.061(4) 0.042(2) 0.562(2) 0.0900 Uiso
C7F C 0.189(4) 0.042(2) 0.688(2) 0.0900 Uiso
C7D C 0.189(4) 0.208(2) 0.562(2) 0.0900 Uiso
H6F H 0.1614 0.2159 0.5117 0.1350 Uiso
H7F H 0.2461 0.1326 0.5153 0.1350 Uiso
H8F H 0.2515 0.2260 0.5884 0.1350 Uiso
H9F H 0.2383 0.2461 0.6001 0.1350 Uiso
H10F H 0.1472 0.2540 0.5243 0.1350 Uiso
H11F H 0.2233 0.1630 0.5167 0.1350 Uiso
H6D H 0.1614 0.0341 0.7383 0.1350 Uiso
H7D H 0.2461 0.1174 0.7347 0.1350 Uiso
H8D H 0.2515 0.0240 0.6616 0.1350 Uiso
H9D H 0.2383 0.0039 0.6499 0.1350 Uiso
H10D H 0.1472 -0.0040 0.7257 0.1350 Uiso
H11D H 0.2233 0.0870 0.7333 0.1350 Uiso
H6B H 0.0886 0.2159 0.7383 0.1350 Uiso
H7B H 0.0039 0.1326 0.7347 0.1350 Uiso
H8B H -0.0015 0.2260 0.6616 0.1350 Uiso
H9B H 0.0117 0.2461 0.6499 0.1350 Uiso
H10B H 0.1028 0.2540 0.7257 0.1350 Uiso
H11B H 0.0267 0.1630 0.7333 0.1350 Uiso
loop_
_atom_site_aniso_label
_atom_site_aniso_U_11
_atom_site_aniso_U_22
_atom_site_aniso_U_33
_atom_site_aniso_U_23
_atom_site_aniso_U_13
_atom_site_aniso_U_12
Ba1 0.01711(13) 0.01765(13) 0.01891(13) 0.000 0.000 0.000
C1 0.017(3) 0.034(6) 0.046(6) -0.025(4) -0.004(4) 0.002(4)
C2 0.032(5) 0.026(4) 0.037(5) 0.008(3) -0.019(4) -0.013(4)
C3 0.022 0.038 0.033 -0.02 0.003 -0.008
C4 0.036 0.02 0.054 0.001 -0.026 -0.003
C5 0.040(6) 0.049(7) 0.020(3) 0.003(4) -0.004(4) -0.028(4)
C3P 0.022(4) 0.038(5) 0.033(5) -0.020(4) 0.003(3) -0.008(4)
C1P 0.017 0.034 0.046 -0.025 -0.004 0.002
C2P 0.032 0.026 0.037 0.008 -0.019 -0.013
C5P 0.04 0.049 0.02 0.003 -0.004 -0.028
C4P 0.036(6) 0.020(3) 0.054(7) 0.001(4) -0.026(4) -0.003(4)
S1 0.123(7) 0.133(8) 0.076(6) 0.023(6) 0.025(7) -0.073(9)
S1B 0.123 0.133 0.076 0.023 -0.025 0.073
S1F 0.123 0.133 0.076 -0.023 -0.025 -0.073
S1D 0.123 0.133 0.076 -0.023 0.025 0.073
loop_
_geom_bond_atom_site_label_1
_geom_bond_atom_site_label_2
_geom_bond_site_symmetry_1
_geom_bond_site_symmetry_2
C1 H1 1_555 1_555
C2 C1 1_555 1_555
H2 C2 1_555 1_555
C3 C1 1_555 1_555
H3 C3 1_555 1_555
C4 C1 1_555 1_555
H4 C4 1_555 1_555
C5 C1 1_555 1_555
H5 C5 1_555 1_555
S1 O1 1_555 1_555
O1 H6 1_555 1_555
C6 S1 1_555 1_555
H6 H10 1_555 1_555
H7 O1 1_555 1_555
H8 O1 1_555 1_555
C7 S1 1_555 1_555
H9 O1 1_555 1_555
H10 O1 1_555 1_555
H11 O1 1_555 1_555
C3P C2 1_555 1_555
C1P C3P 1_555 1_555
H1P C1P 1_555 1_555
C2P C3 1_555 1_555
H2P C2P 1_555 1_555
C5P C2 1_555 1_555
C4P C5 1_555 1_555
H3P C3P 1_555 1_555
H4P C4P 1_555 1_555
H5P C5P 1_555 1_555
S1B S1 1_555 1_555
S1F S1 1_555 1_555
S1D S1 1_555 1_555
O1F S1 1_555 1_555
O1B S1 1_555 1_555
O1D S1 1_555 1_555
C6B S1 1_555 1_555
C6F S1 1_555 1_555
C6D S1 1_555 1_555
C7B S1 1_555 1_555
C7F S1 1_555 1_555
C7D S1 1_555 1_555
H6F O1F 1_555 1_555
H7F O1F 1_555 1_555
H8F O1F 1_555 1_555
H9F O1F 1_555 1_555
H10F O1F 1_555 1_555
H11F O1F 1_555 1_555
H6D C6 1_555 1_555
H7D C6 1_555 1_555
H8D C6 1_555 1_555
H9D C6 1_555 1_555
H10D O1D 1_555 1_555
H11D C6 1_555 1_555
H6B C7 1_555 1_555
H7B O1B 1_555 1_555
H8B C7 1_555 1_555
H9B C7 1_555 1_555
H10B C7 1_555 1_555
H11B C7 1_555 1_555
C2 C4 1_555 1_555
C3 C4 1_555 1_555
C3 C5 1_555 1_555
C4 C5P 1_555 1_555
C5 C2P 1_555 1_555
O1 S1B 1_555 1_555
O1 S1F 1_555 1_555
O1 S1D 1_555 1_555
O1 C6D 1_555 1_555
O1 C7B 1_555 1_555
C6 S1B 1_555 1_555
C6 S1F 1_555 1_555
C6 S1D 1_555 1_555
C6 O1D 1_555 1_555
C6 C7F 1_555 1_555
H6 C6D 1_555 1_555
H6 C7B 1_555 1_555
H7 H11 1_555 1_555
H7 C6D 1_555 1_555
H8 H9 1_555 1_555
H8 C6D 1_555 1_555
H8 C7B 1_555 1_555
C7 S1B 1_555 1_555
C7 S1F 1_555 1_555
C7 S1D 1_555 1_555
C7 O1B 1_555 1_555
C7 C6F 1_555 1_555
H9 C6D 1_555 1_555
H9 C7B 1_555 1_555
H10 C7B 1_555 1_555
H11 C6D 1_555 1_555
H11 C7B 1_555 1_555
C3P C5P 1_555 1_555
C3P C4P 1_555 1_555
C1P C2P 1_555 1_555
C1P C5P 1_555 1_555
C1P C4P 1_555 1_555
C2P C4P 1_555 1_555
S1B S1F 1_555 1_555
S1B S1D 1_555 1_555
S1B O1F 1_555 1_555
S1B O1B 1_555 1_555
S1B O1D 1_555 1_555
S1B C6B 1_555 1_555
S1B C6F 1_555 1_555
S1B C6D 1_555 1_555
S1B C7B 1_555 1_555
S1B C7F 1_555 1_555
S1B C7D 1_555 1_555
S1F S1D 1_555 1_555
S1F O1F 1_555 1_555
S1F O1B 1_555 1_555
S1F O1D 1_555 1_555
S1F C6B 1_555 1_555
S1F C6F 1_555 1_555
S1F C6D 1_555 1_555
S1F C7B 1_555 1_555
S1F C7F 1_555 1_555
S1F C7D 1_555 1_555
S1D O1F 1_555 1_555
S1D O1B 1_555 1_555
S1D O1D 1_555 1_555
S1D C6B 1_555 1_555
S1D C6F 1_555 1_555
S1D C6D 1_555 1_555
S1D C7B 1_555 1_555
S1D C7F 1_555 1_555
S1D C7D 1_555 1_555
O1F C6B 1_555 1_555
O1F C7D 1_555 1_555
O1B C6F 1_555 1_555
O1B H6B 1_555 1_555
O1B H8B 1_555 1_555
O1B H9B 1_555 1_555
O1B H10B 1_555 1_555
O1B H11B 1_555 1_555
O1D C7F 1_555 1_555
O1D H6D 1_555 1_555
O1D H7D 1_555 1_555
O1D H8D 1_555 1_555
O1D H9D 1_555 1_555
O1D H11D 1_555 1_555
C6B C7D 1_555 1_555
C6B H6F 1_555 1_555
C6B H7F 1_555 1_555
C6B H8F 1_555 1_555
C6B H9F 1_555 1_555
C6B H11F 1_555 1_555
C6F H6B 1_555 1_555
C6F H7B 1_555 1_555
C6F H8B 1_555 1_555
C6F H9B 1_555 1_555
C6F H11B 1_555 1_555
C6D C7B 1_555 1_555
C7F H6D 1_555 1_555
C7F H8D 1_555 1_555
C7F H9D 1_555 1_555
C7F H10D 1_555 1_555
C7F H11D 1_555 1_555
C7D H6F 1_555 1_555
C7D H8F 1_555 1_555
C7D H9F 1_555 1_555
C7D H10F 1_555 1_555
C7D H11F 1_555 1_555
H6F H10F 1_555 1_555
H7F H11F 1_555 1_555
H8F H9F 1_555 1_555
H6D H10D 1_555 1_555
H7D H11D 1_555 1_555
H8D H9D 1_555 1_555
H6B H10B 1_555 1_555
H7B H11B 1_555 1_555
H8B H9B 1_555 1_555

#END
