
#######################################################################
#
#                 Cambridge Crystallographic Data Centre
#                                CCDC 
#
#######################################################################
#
# If this CIF has been generated from an entry in the Cambridge 
# Structural Database, then it will include bibliographic, chemical, 
# crystal, experimental, refinement or atomic coordinate data resulting 
# from the CCDC's data processing and validation procedures.
#
#######################################################################

data_RUGJOU
_chemical_formula_moiety         '(C5 H9 Ho1 N2 O8)n'
_symmetry_cell_setting           orthorhombic
_symmetry_space_group_name_H-M   'C 2 2 21'
_symmetry_Int_Tables_number      20
_space_group_name_Hall           'C 2c 2'
loop_
_symmetry_equiv_pos_site_id
_symmetry_equiv_pos_as_xyz
1 x,y,z
2 -x,-y,1/2+z
3 -x,y,1/2-z
4 x,-y,-z
5 1/2+x,1/2+y,z
6 1/2-x,1/2-y,1/2+z
7 1/2-x,1/2+y,1/2-z
8 1/2+x,1/2-y,-z
_cell_length_a                   6.6667(9)
_cell_length_b                   18.408(3)
_cell_length_c                   8.4468(11)
_cell_angle_alpha                90
_cell_angle_beta                 90
_cell_angle_gamma                90
_cell_volume                     1036.6
loop_
_atom_site_label
_atom_site_type_symbol
_atom_site_fract_x
_atom_site_fract_y
_atom_site_fract_z
Ho1 Ho 1.0000 0.64269(2) 0.2500
O1 O 1.0127(13) 0.5498(2) 0.0696(6)
O2 O 0.6648(7) 0.5946(2) 0.2283(8)
O3 O 0.6804(7) 0.7578(3) 0.6522(6)
O4 O 0.8249(8) 0.6834(3) 0.4818(6)
C1 C 0.5000 0.6256(4) 0.2500
H1 H 0.5000 0.6762 0.2500
C2 C 0.7641(12) 0.7434(4) 0.5252(8)
H2 H 0.7830 0.7819 0.4553
C3 C 0.9253(15) 0.5000 0.0000
H3 H 0.7858 0.5000 0.0000
O1C O 1.0127(13) 0.4502(2) -0.0696(6)
O2B O 0.3352(7) 0.5946(2) 0.2717(8)
O3G O 1.1804(7) 0.7422(3) 0.3478(6)
O4G O 1.3249(8) 0.8166(3) 0.5182(6)
C2G C 1.2641(12) 0.7566(4) 0.4748(8)
H2G H 1.2830 0.7181 0.5447
Ho1_2 Ho -0.0000 0.64269(2) 0.2500
Ho1A Ho 1.0000 0.35731(2) -0.2500
Ho1E Ho 0.5000 0.85731(2) 0.7500
Ho1E_2 Ho 1.5000 0.85731(2) 0.7500
O1B O 0.9873(13) 0.5498(2) 0.4304(6)
O2B_2 O 1.3352(7) 0.5946(2) 0.2717(8)
O3E O 0.8196(7) 0.7422(3) 0.1522(6)
O4B O 1.1751(8) 0.6834(3) 0.0182(6)
C4 C 1.0000 0.9045(5) 0.2500
H4 H 1.0000 0.8540 0.2500
N1 N 0.8625(11) 0.9379(4) 0.1679(9)
H5 H 0.8592 0.9846 0.1659
H6 H 0.7751 0.9133 0.1157
N1B N 1.1375(11) 0.9379(4) 0.3321(9)
H5B H 1.1408 0.9846 0.3341
H6B H 1.2249 0.9133 0.3843
loop_
_geom_bond_atom_site_label_1
_geom_bond_atom_site_label_2
_geom_bond_site_symmetry_1
_geom_bond_site_symmetry_2
Ho1 O1 1_555 1_555
O1 C3 1_555 1_555
O2 Ho1 1_555 1_555
O3 C2 1_555 1_555
O4 Ho1 1_555 1_555
C1 O2 1_555 1_555
H1 C1 1_555 1_555
C2 O4 1_555 1_555
H2 C2 1_555 1_555
C3 H3 1_555 1_555
C4 H4 1_555 1_555
N1 C4 1_555 1_555
H5 N1 1_555 1_555
H6 N1 1_555 1_555
O1C C3 1_555 1_555
O2B C1 1_555 1_555
O3G Ho1 1_555 1_555
O4G C2G 1_555 1_555
C2G O3G 1_555 1_555
H2G C2G 1_555 1_555
Ho1_2 O2B 1_555 1_555
Ho1A O1C 1_555 1_555
Ho1E O3 1_555 1_555
Ho1E_2 O4G 1_555 1_555
O1B Ho1 1_555 1_555
O2B_2 Ho1 1_555 1_555
O3E Ho1 1_555 1_555
O4B Ho1 1_555 1_555
N1B C4 1_555 1_555
H5B N1B 1_555 1_555
H6B N1B 1_555 1_555

#END
