
#######################################################################
#
#                 Cambridge Crystallographic Data Centre
#                                CCDC 
#
#######################################################################
#
# If this CIF has been generated from an entry in the Cambridge 
# Structural Database, then it will include bibliographic, chemical, 
# crystal, experimental, refinement or atomic coordinate data resulting 
# from the CCDC's data processing and validation procedures.
#
#######################################################################

data_RUGJUA
_chemical_formula_moiety         '(C5 H9 N2 O8 Tm1)n'
_symmetry_cell_setting           orthorhombic
_symmetry_space_group_name_H-M   'C 2 2 21'
_symmetry_Int_Tables_number      20
_space_group_name_Hall           'C 2c 2'
loop_
_symmetry_equiv_pos_site_id
_symmetry_equiv_pos_as_xyz
1 x,y,z
2 -x,-y,1/2+z
3 -x,y,1/2-z
4 x,-y,-z
5 1/2+x,1/2+y,z
6 1/2-x,1/2-y,1/2+z
7 1/2-x,1/2+y,1/2-z
8 1/2+x,1/2-y,-z
_cell_length_a                   6.6375(4)
_cell_length_b                   18.2953(10)
_cell_length_c                   8.4058(5)
_cell_angle_alpha                90
_cell_angle_beta                 90
_cell_angle_gamma                90
_cell_volume                     1020.76
loop_
_atom_site_label
_atom_site_type_symbol
_atom_site_fract_x
_atom_site_fract_y
_atom_site_fract_z
Tm1 Tm 0.0000 0.142815(9) 0.2500
O1 O 0.0147(10) 0.05000(18) 0.4292(4)
O2 O 0.3352(5) 0.09485(17) 0.2275(6)
O3 O 0.1795(5) 0.24207(18) 0.1531(4)
O4 O 0.3261(6) 0.31653(18) -0.0191(4)
C1 C 0.5000 0.1260(3) 0.2500
H1 H 0.5000 0.1769 0.2500
C2 C 0.2645(9) 0.2563(3) 0.0238(6)
H2 H 0.2829 0.2177 -0.0465
C3 C -0.0757(11) 0.0000 0.5000
H3 H -0.2158 0.0000 0.5000
O1C O 0.0147(10) -0.05000(18) 0.5708(4)
O2B O 0.6648(5) 0.09485(17) 0.2725(6)
O3B O -0.1795(5) 0.24207(18) 0.3469(4)
O4B O -0.3261(6) 0.31653(18) 0.5191(4)
C2B C -0.2645(9) 0.2563(3) 0.4762(6)
H2B H -0.2829 0.2177 0.5465
Tm1_2 Tm 1.0000 0.142815(9) 0.2500
Tm1A Tm -0.0000 -0.142815(9) 0.7500
Tm1E Tm -0.5000 0.357185(9) 0.7500
Tm1E_2 Tm 0.5000 0.357185(9) -0.2500
O1B O -0.0147(10) 0.05000(18) 0.0708(4)
O2B_2 O -0.3352(5) 0.09485(17) 0.2725(6)
O4E O 0.1739(6) 0.18347(18) 0.4809(4)
O4G O -0.1739(6) 0.18347(18) 0.0191(4)
C4 C 0.0000 0.4047(3) 0.2500
H4 H 0.0000 0.3539 0.2500
N1 N 0.1379(8) 0.4380(3) 0.1673(6)
H5 H 0.1416 0.4850 0.1651
H6 H 0.2253 0.4131 0.1148
N1B N -0.1379(8) 0.4380(3) 0.3327(6)
H5B H -0.1416 0.4850 0.3349
H6B H -0.2253 0.4131 0.3852
loop_
_geom_bond_atom_site_label_1
_geom_bond_atom_site_label_2
_geom_bond_site_symmetry_1
_geom_bond_site_symmetry_2
Tm1 O1 1_555 1_555
O1 C3 1_555 1_555
O2 Tm1 1_555 1_555
O3 Tm1 1_555 1_555
O4 C2 1_555 1_555
C1 O2 1_555 1_555
H1 C1 1_555 1_555
C2 O3 1_555 1_555
H2 C2 1_555 1_555
C3 H3 1_555 1_555
C4 H4 1_555 1_555
N1 C4 1_555 1_555
H5 N1 1_555 1_555
H6 N1 1_555 1_555
O1C C3 1_555 1_555
O2B C1 1_555 1_555
O3B Tm1 1_555 1_555
O4B C2B 1_555 1_555
C2B O3B 1_555 1_555
H2B C2B 1_555 1_555
Tm1_2 O2B 1_555 1_555
Tm1A O1C 1_555 1_555
Tm1E O4B 1_555 1_555
Tm1E_2 O4 1_555 1_555
O1B Tm1 1_555 1_555
O2B_2 Tm1 1_555 1_555
O4E Tm1 1_555 1_555
O4G Tm1 1_555 1_555
N1B C4 1_555 1_555
H5B N1B 1_555 1_555
H6B N1B 1_555 1_555

#END
