
#######################################################################
#
#                 Cambridge Crystallographic Data Centre
#                                CCDC 
#
#######################################################################
#
# If this CIF has been generated from an entry in the Cambridge 
# Structural Database, then it will include bibliographic, chemical, 
# crystal, experimental, refinement or atomic coordinate data resulting 
# from the CCDC's data processing and validation procedures.
#
#######################################################################

data_RUGKAH
_chemical_formula_moiety         '(C5 H9 Lu1 N2 O8)n'
_symmetry_cell_setting           orthorhombic
_symmetry_space_group_name_H-M   'C 2 2 21'
_symmetry_Int_Tables_number      20
_space_group_name_Hall           'C 2c 2'
loop_
_symmetry_equiv_pos_site_id
_symmetry_equiv_pos_as_xyz
1 x,y,z
2 -x,-y,1/2+z
3 x,-y,-z
4 -x,y,1/2-z
5 1/2+x,1/2+y,z
6 1/2-x,1/2-y,1/2+z
7 1/2+x,1/2-y,-z
8 1/2-x,1/2+y,1/2-z
_cell_length_a                   6.6174(9)
_cell_length_b                   18.200(3)
_cell_length_c                   8.3777(12)
_cell_angle_alpha                90
_cell_angle_beta                 90
_cell_angle_gamma                90
_cell_volume                     1008.98
loop_
_atom_site_label
_atom_site_type_symbol
_atom_site_fract_x
_atom_site_fract_y
_atom_site_fract_z
Lu1 Lu -0.0000 0.142781(12) 0.2500
O1 O 0.3337(7) 0.0955(3) 0.2703(9)
O2 O -0.0154(11) 0.0506(2) 0.4286(6)
O3 O 0.1737(8) 0.1841(3) 0.0203(7)
O4 O 0.3203(8) 0.2589(3) -0.1530(6)
C1 C 0.2361(11) 0.2440(4) -0.0227(8)
H1 H 0.2195 0.2827 0.0486
C2 C 0.5000 0.1260(5) 0.2500
H2 H 0.5000 0.1771 0.2500
C3 C 0.0765(15) 0.0000 0.5000
H3 H 0.2170 0.0000 0.5000
O1C O 0.6663(7) 0.0955(3) 0.2297(9)
O2B O -0.0154(11) -0.0506(2) 0.5714(6)
O3C O -0.1737(8) 0.1841(3) 0.4797(7)
O4C O -0.3203(8) 0.2589(3) 0.6530(6)
C1C C -0.2361(11) 0.2440(4) 0.5227(8)
H1C H -0.2195 0.2827 0.4514
Lu1_2 Lu 1.0000 0.142781(12) 0.2500
Lu1A Lu -0.0000 -0.142781(12) 0.7500
Lu1E Lu -0.5000 0.357219(12) 0.7500
Lu1E_2 Lu 0.5000 0.357219(12) -0.2500
O1C_2 O -0.3337(7) 0.0955(3) 0.2297(9)
O2C O 0.0154(11) 0.0506(2) 0.0714(6)
O4E O 0.1797(8) 0.2411(3) 0.3470(6)
O4F O -0.1797(8) 0.2411(3) 0.1530(6)
N1 N 0.6387(11) 0.0616(4) 0.6663(10)
H4 H 0.6417 0.0144 0.6645
H5 H 0.7266 0.0864 0.6133
C4 C 0.5000 0.0958(4) 0.7500
H6 H 0.5000 0.1469 0.7500
N1C N 0.3613(11) 0.0616(4) 0.8337(10)
H4C H 0.3583 0.0144 0.8355
H5C H 0.2734 0.0864 0.8867
loop_
_geom_bond_atom_site_label_1
_geom_bond_atom_site_label_2
_geom_bond_site_symmetry_1
_geom_bond_site_symmetry_2
Lu1 O1 1_555 1_555
O1 C2 1_555 1_555
O2 Lu1 1_555 1_555
O3 Lu1 1_555 1_555
O4 C1 1_555 1_555
C1 O3 1_555 1_555
H1 C1 1_555 1_555
C2 H2 1_555 1_555
C3 O2 1_555 1_555
H3 C3 1_555 1_555
N1 H4 1_555 1_555
H5 N1 1_555 1_555
C4 N1 1_555 1_555
H6 C4 1_555 1_555
O1C C2 1_555 1_555
O2B C3 1_555 1_555
O3C Lu1 1_555 1_555
O4C C1C 1_555 1_555
C1C O3C 1_555 1_555
H1C C1C 1_555 1_555
Lu1_2 O1C 1_555 1_555
Lu1A O2B 1_555 1_555
Lu1E O4C 1_555 1_555
Lu1E_2 O4 1_555 1_555
O1C_2 Lu1 1_555 1_555
O2C Lu1 1_555 1_555
O4E Lu1 1_555 1_555
O4F Lu1 1_555 1_555
N1C C4 1_555 1_555
H4C N1C 1_555 1_555
H5C N1C 1_555 1_555

#END
