
#######################################################################
#
#                 Cambridge Crystallographic Data Centre
#                                CCDC 
#
#######################################################################
#
# If this CIF has been generated from an entry in the Cambridge 
# Structural Database, then it will include bibliographic, chemical, 
# crystal, experimental, refinement or atomic coordinate data resulting 
# from the CCDC's data processing and validation procedures.
#
#######################################################################

data_IZEQUB
_chemical_formula_moiety         '(C60 H48 Ni3 O26)n'
_symmetry_cell_setting           orthorhombic
_symmetry_space_group_name_H-M   'P m n a'
_symmetry_Int_Tables_number      53
_space_group_name_Hall           '-P 2ac 2'
loop_
_symmetry_equiv_pos_site_id
_symmetry_equiv_pos_as_xyz
1 x,y,z
2 1/2-x,-y,1/2+z
3 x,-y,-z
4 1/2-x,y,1/2-z
5 -x,-y,-z
6 1/2+x,y,1/2-z
7 -x,y,z
8 1/2+x,-y,1/2+z
_cell_length_a                   27.2662(6)
_cell_length_b                   11.5396(3)
_cell_length_c                   13.9678(3)
_cell_angle_alpha                90
_cell_angle_beta                 90
_cell_angle_gamma                90
_cell_volume                     4394.84
loop_
_atom_site_label
_atom_site_type_symbol
_atom_site_fract_x
_atom_site_fract_y
_atom_site_fract_z
Ni1 Ni 0.0000 -0.14970(7) 1.28137(6)
Ni2 Ni -0.0000 0.0000 1.5000
O1 O 0.0000 -0.1558(3) 1.4295(3)
O2 O 0.05617(14) -0.0326(3) 1.2782(3)
O3 O 0.0000 -0.1501(5) 1.1346(4)
O4 O 0.0525(2) 0.0623(5) 1.4157(4)
C1 C 0.0722(2) 0.0371(5) 1.3387(4)
C2 C 0.20504(18) 0.2223(4) 1.2747(4)
C3 C 0.29486(18) 0.4768(4) 1.2272(4)
C4 C 0.2500 0.2895(6) 1.2500
C5 C 0.2500 0.4066(6) 1.2500
C6 C 0.1197(2) 0.0988(5) 1.3165(4)
C7 C 0.1841(2) 0.2262(5) 1.3646(4)
H1 H 0.1994 0.2716 1.4138
C8 C 0.1420(2) 0.1666(6) 1.3849(5)
H2 H 0.1278 0.1722 1.4476
C9 C 0.1824(3) 0.1543(7) 1.2057(5)
H3 H 0.1962 0.1496 1.1426
C10 C 0.1402(3) 0.0932(7) 1.2270(5)
H4 H 0.1251 0.0463 1.1785
C11 C 0.3319(3) 0.4934(8) 1.2910(6)
H5 H 0.3306 0.4552 1.3520
C12 C 0.2990(3) 0.5290(8) 1.1397(6)
H6 H 0.2736 0.5191 1.0928
C13 C 0.3398(3) 0.5964(8) 1.1181(5)
H7 H 0.3424 0.6311 1.0558
C14 C 0.37619(18) 0.6142(5) 1.1836(4)
C15 C 0.41947(19) 0.6902(5) 1.1586(4)
C16 C 0.3708(3) 0.5628(8) 1.2705(5)
H8 H 0.3951 0.5761 1.3190
O5 O 0.44657(13) 0.7217(3) 1.2258(2)
O6 O 0.42521(17) 0.7147(5) 1.0725(3)
O2C O 0.44383(14) -0.0326(3) 1.2218(3)
O4C O 0.4475(2) 0.0623(5) 1.0843(4)
C1C C 0.4278(2) 0.0371(5) 1.1613(4)
C2C C 0.29496(18) 0.2223(4) 1.2253(4)
C3C C 0.20514(18) 0.4768(4) 1.2728(4)
C6C C 0.3803(2) 0.0988(5) 1.1835(4)
C7C C 0.3159(2) 0.2262(5) 1.1354(4)
H1C H 0.3006 0.2716 1.0862
C8C C 0.3580(2) 0.1666(6) 1.1151(5)
H2C H 0.3722 0.1722 1.0524
C9C C 0.3176(3) 0.1543(7) 1.2943(5)
H3C H 0.3038 0.1496 1.3574
C10C C 0.3598(3) 0.0932(7) 1.2730(5)
H4C H 0.3749 0.0463 1.3215
C11C C 0.1681(3) 0.4934(8) 1.2090(6)
H5C H 0.1694 0.4552 1.1480
C12C C 0.2010(3) 0.5290(8) 1.3603(6)
H6C H 0.2264 0.5191 1.4072
C13C C 0.1602(3) 0.5964(8) 1.3819(5)
H7C H 0.1576 0.6311 1.4442
C14C C 0.12381(18) 0.6142(5) 1.3164(4)
C15C C 0.08053(19) 0.6902(5) 1.3414(4)
C16C C 0.1292(3) 0.5628(8) 1.2295(5)
H8C H 0.1049 0.5761 1.1810
O5C O 0.05343(13) 0.7217(3) 1.2742(2)
O6C O 0.07479(17) 0.7147(5) 1.4275(3)
Ni1B Ni 0.0000 0.14970(7) 1.71863(6)
O1B O -0.0000 0.1558(3) 1.5705(3)
O2B O 0.05617(14) 0.0326(3) 1.7218(3)
O3B O -0.0000 0.1501(5) 1.8654(4)
O4B O 0.0525(2) -0.0623(5) 1.5843(4)
C1B C 0.0722(2) -0.0371(5) 1.6613(4)
C2B C 0.20504(18) -0.2223(4) 1.7253(4)
C3B C 0.29486(18) -0.4768(4) 1.7728(4)
C4A C 0.2500 -0.2895(6) 1.7500
C5A C 0.2500 -0.4066(6) 1.7500
C6B C 0.1197(2) -0.0988(5) 1.6835(4)
C7B C 0.1841(2) -0.2262(5) 1.6354(4)
H1B H 0.1994 -0.2716 1.5862
C8B C 0.1420(2) -0.1666(6) 1.6151(5)
H2B H 0.1278 -0.1722 1.5524
C9B C 0.1824(3) -0.1543(7) 1.7943(5)
H3B H 0.1962 -0.1496 1.8574
C10B C 0.1402(3) -0.0932(7) 1.7730(5)
H4B H 0.1251 -0.0463 1.8215
C11B C 0.3319(3) -0.4934(8) 1.7090(6)
H5B H 0.3306 -0.4552 1.6480
C12B C 0.2990(3) -0.5290(8) 1.8603(6)
H6B H 0.2736 -0.5191 1.9072
C13B C 0.3398(3) -0.5964(8) 1.8819(5)
H7B H 0.3424 -0.6311 1.9442
C14B C 0.37619(18) -0.6142(5) 1.8164(4)
C15B C 0.41947(19) -0.6902(5) 1.8414(4)
C16B C 0.3708(3) -0.5628(8) 1.7295(5)
H8B H 0.3951 -0.5761 1.6810
O5B O 0.44657(13) -0.7217(3) 1.7742(2)
O6B O 0.42521(17) -0.7147(5) 1.9275(3)
O2A O 0.44383(14) 0.0326(3) 1.7782(3)
O4A O 0.4475(2) -0.0623(5) 1.9157(4)
C1A C 0.4278(2) -0.0371(5) 1.8387(4)
C2A C 0.29496(18) -0.2223(4) 1.7747(4)
C3A C 0.20514(18) -0.4768(4) 1.7272(4)
C6A C 0.3803(2) -0.0988(5) 1.8165(4)
C7A C 0.3159(2) -0.2262(5) 1.8646(4)
H1A H 0.3006 -0.2716 1.9138
C8A C 0.3580(2) -0.1666(6) 1.8849(5)
H2A H 0.3722 -0.1722 1.9476
C9A C 0.3176(3) -0.1543(7) 1.7057(5)
H3A H 0.3038 -0.1496 1.6426
C10A C 0.3598(3) -0.0932(7) 1.7270(5)
H4A H 0.3749 -0.0463 1.6785
C11A C 0.1681(3) -0.4934(8) 1.7910(6)
H5A H 0.1694 -0.4552 1.8520
C12A C 0.2010(3) -0.5290(8) 1.6397(6)
H6A H 0.2264 -0.5191 1.5928
C13A C 0.1602(3) -0.5964(8) 1.6181(5)
H7A H 0.1576 -0.6311 1.5558
C14A C 0.12381(18) -0.6142(5) 1.6836(4)
C15A C 0.08053(19) -0.6902(5) 1.6586(4)
C16A C 0.1292(3) -0.5628(8) 1.7705(5)
H8A H 0.1049 -0.5761 1.8190
O5A O 0.05343(13) -0.7217(3) 1.7258(2)
O6A O 0.07479(17) -0.7147(5) 1.5725(3)
Ni1_2 Ni -0.0000 0.85030(7) 1.28137(6)
Ni1A Ni 0.5000 -0.85030(7) 1.78137(6)
Ni1A_2 Ni 0.5000 0.14970(7) 1.78137(6)
Ni1B_2 Ni 0.0000 -0.85030(7) 1.71863(6)
Ni1C Ni 0.5000 -0.14970(7) 1.21863(6)
Ni1C_2 Ni 0.5000 0.85030(7) 1.21863(6)
Ni2A Ni 0.5000 0.0000 1.0000
Ni2A_2 Ni 0.5000 0.0000 2.0000
O2D O -0.05617(14) 0.0326(3) 1.7218(3)
O2F O -0.05617(14) -0.0326(3) 1.2782(3)
O4D O -0.0525(2) -0.0623(5) 1.5843(4)
O4F O -0.0525(2) 0.0623(5) 1.4157(4)
O5A_2 O 0.05343(13) 0.2783(3) 1.7258(2)
O5C_2 O 0.05343(13) -0.2783(3) 1.2742(2)
O5E O -0.05343(13) -0.2783(3) 1.2742(2)
O5G O -0.05343(13) 0.2783(3) 1.7258(2)
O7 O -0.0000 0.5446(10) 0.1478(9)
O8 O 0.0000 0.142(2) 1.133(5)
O9 O -0.036(2) -0.5000 1.5000
O10 O 0.0656(17) 0.789(4) 0.001(2)
O11 O 0.2496(14) 0.110(4) 1.593(4)
O12 O 0.339(3) 0.160(3) 1.639(4)
loop_
_geom_bond_atom_site_label_1
_geom_bond_atom_site_label_2
_geom_bond_site_symmetry_1
_geom_bond_site_symmetry_2
Ni1 O1 1_555 1_555
Ni2 O1 1_555 1_555
O2 Ni1 1_555 1_555
O3 Ni1 1_555 1_555
O4 Ni2 1_555 1_555
C1 O2 1_555 1_555
C2 C4 1_555 1_555
C3 C5 1_555 1_555
C4 C5 1_555 1_555
C5 C3C 1_555 1_555
C6 C1 1_555 1_555
C7 C2 1_555 1_555
H1 C7 1_555 1_555
C8 C6 1_555 1_555
H2 C8 1_555 1_555
C9 C2 1_555 1_555
H3 C9 1_555 1_555
C10 C6 1_555 1_555
H4 C10 1_555 1_555
C11 C3 1_555 1_555
H5 C11 1_555 1_555
C12 C3 1_555 1_555
H6 C12 1_555 1_555
C13 C12 1_555 1_555
H7 C13 1_555 1_555
C14 C13 1_555 1_555
C15 C14 1_555 1_555
C16 C11 1_555 1_555
H8 C16 1_555 1_555
O5 C15 1_555 1_555
O6 C15 1_555 1_555
O2C C1C 1_555 1_555
O4C C1C 1_555 1_555
C1C C6C 1_555 1_555
C2C C4 1_555 1_555
C3C C11C 1_555 1_555
C6C C8C 1_555 1_555
C7C C2C 1_555 1_555
H1C C7C 1_555 1_555
C8C C7C 1_555 1_555
H2C C8C 1_555 1_555
C9C C2C 1_555 1_555
H3C C9C 1_555 1_555
C10C C6C 1_555 1_555
H4C C10C 1_555 1_555
C11C H5C 1_555 1_555
C12C C3C 1_555 1_555
H6C C12C 1_555 1_555
C13C C12C 1_555 1_555
H7C C13C 1_555 1_555
C14C C13C 1_555 1_555
C15C C14C 1_555 1_555
C16C C11C 1_555 1_555
H8C C16C 1_555 1_555
O5C C15C 1_555 1_555
O6C C15C 1_555 1_555
Ni1B O1B 1_555 1_555
O1B Ni2 1_555 1_555
O2B Ni1B 1_555 1_555
O3B Ni1B 1_555 1_555
O4B Ni2 1_555 1_555
C1B O2B 1_555 1_555
C2B C4A 1_555 1_555
C3B C5A 1_555 1_555
C4A C5A 1_555 1_555
C5A C3A 1_555 1_555
C6B C1B 1_555 1_555
C7B C2B 1_555 1_555
H1B C7B 1_555 1_555
C8B C6B 1_555 1_555
H2B C8B 1_555 1_555
C9B C2B 1_555 1_555
H3B C9B 1_555 1_555
C10B C6B 1_555 1_555
H4B C10B 1_555 1_555
C11B C3B 1_555 1_555
H5B C11B 1_555 1_555
C12B C3B 1_555 1_555
H6B C12B 1_555 1_555
C13B C12B 1_555 1_555
H7B C13B 1_555 1_555
C14B C13B 1_555 1_555
C15B C14B 1_555 1_555
C16B C11B 1_555 1_555
H8B C16B 1_555 1_555
O5B C15B 1_555 1_555
O6B C15B 1_555 1_555
O2A C1A 1_555 1_555
O4A C1A 1_555 1_555
C1A C6A 1_555 1_555
C2A C4A 1_555 1_555
C3A C11A 1_555 1_555
C6A C8A 1_555 1_555
C7A C2A 1_555 1_555
H1A C7A 1_555 1_555
C8A C7A 1_555 1_555
H2A C8A 1_555 1_555
C9A C2A 1_555 1_555
H3A C9A 1_555 1_555
C10A C6A 1_555 1_555
H4A C10A 1_555 1_555
C11A H5A 1_555 1_555
C12A C3A 1_555 1_555
H6A C12A 1_555 1_555
C13A C12A 1_555 1_555
H7A C13A 1_555 1_555
C14A C13A 1_555 1_555
C15A C14A 1_555 1_555
C16A C11A 1_555 1_555
H8A C16A 1_555 1_555
O5A C15A 1_555 1_555
O6A C15A 1_555 1_555
Ni1_2 O5C 1_555 1_555
Ni1A O5B 1_555 1_555
Ni1A_2 O2A 1_555 1_555
Ni1B_2 O5A 1_555 1_555
Ni1C O2C 1_555 1_555
Ni1C_2 O5 1_555 1_555
Ni2A O4C 1_555 1_555
Ni2A_2 O4A 1_555 1_555
O2D Ni1B 1_555 1_555
O2F Ni1 1_555 1_555
O4D Ni2 1_555 1_555
O4F Ni2 1_555 1_555
O5A_2 Ni1B 1_555 1_555
O5C_2 Ni1 1_555 1_555
O5E Ni1 1_555 1_555
O5G Ni1B 1_555 1_555
O4 C1 1_555 1_555
C7 C8 1_555 1_555
C9 C10 1_555 1_555
C14 C16 1_555 1_555
C9C C10C 1_555 1_555
C14C C16C 1_555 1_555
O4B C1B 1_555 1_555
C7B C8B 1_555 1_555
C9B C10B 1_555 1_555
C14B C16B 1_555 1_555
C9A C10A 1_555 1_555
C14A C16A 1_555 1_555

#END
