
#######################################################################
#
#                 Cambridge Crystallographic Data Centre
#                                CCDC 
#
#######################################################################
#
# If this CIF has been generated from an entry in the Cambridge 
# Structural Database, then it will include bibliographic, chemical, 
# crystal, experimental, refinement or atomic coordinate data resulting 
# from the CCDC's data processing and validation procedures.
#
#######################################################################

data_PUQDOW
_chemical_formula_moiety         '(C28 H12 Ag1 F6 N4 S6 Sb1)n'
_symmetry_cell_setting           orthorhombic
_symmetry_space_group_name_H-M   'P b c a'
_symmetry_Int_Tables_number      61
_space_group_name_Hall           '-P 2ac 2ab'
loop_
_symmetry_equiv_pos_site_id
_symmetry_equiv_pos_as_xyz
1 x,y,z
2 1/2-x,-y,1/2+z
3 -x,1/2+y,1/2-z
4 1/2+x,1/2-y,-z
5 -x,-y,-z
6 1/2+x,y,1/2-z
7 x,1/2-y,1/2+z
8 1/2-x,1/2+y,z
_cell_length_a                   22.8411(9)
_cell_length_b                   12.5825(5)
_cell_length_c                   22.9745(10)
_cell_angle_alpha                90
_cell_angle_beta                 90
_cell_angle_gamma                90
_cell_volume                     6602.83
loop_
_atom_site_label
_atom_site_type_symbol
_atom_site_fract_x
_atom_site_fract_y
_atom_site_fract_z
_atom_site_U_iso_or_equiv
_atom_site_thermal_displace_type
Ag1 Ag 0.75343(2) -1.12565(3) -0.46894(2) 0.0477 Uani
S1 S 0.74824(6) -0.74569(10) -0.32163(6) 0.0400 Uani
S2 S 0.83192(6) -0.49139(10) -0.22443(7) 0.0414 Uani
S3 S 0.73886(6) -0.24720(10) -0.12692(7) 0.0415 Uani
S4 S 0.59818(7) -1.50130(10) -0.47961(6) 0.0401 Uani
S5 S 0.50303(7) -1.73440(10) -0.58301(6) 0.0414 Uani
S6 S 0.40225(7) -1.99563(10) -0.51170(7) 0.0442 Uani
N1 N 0.7691(2) -0.9983(4) -0.4004(2) 0.0490 Uani
N2 N 0.7573(2) 0.0063(4) -0.0444(2) 0.0457 Uani
N3 N 0.6786(2) -1.2431(3) -0.4835(2) 0.0433 Uani
N4 N 0.3221(2) -2.2458(4) -0.5422(2) 0.0500 Uani
C1 C 0.7841(2) -0.9277(4) -0.3744(2) 0.0380 Uani
C2 C 0.8006(3) -0.8371(4) -0.3413(2) 0.0353 Uani
C3 C 0.7997(2) -0.6727(4) -0.2847(2) 0.0337 Uani
C4 C 0.8541(3) -0.7178(4) -0.2888(3) 0.0450 Uani
H1 H 0.8879 -0.6886 -0.2719 0.0540 Uiso
C5 C 0.8538(3) -0.8116(4) -0.3208(3) 0.0470 Uani
H2 H 0.8875 -0.8529 -0.3274 0.0560 Uiso
C6 C 0.7808(2) -0.5782(4) -0.2534(2) 0.0307 Uani
C7 C 0.7257(3) -0.5456(4) -0.2404(2) 0.0387 Uani
H3 H 0.6920 -0.5829 -0.2521 0.0460 Uiso
C8 C 0.7236(3) -0.4516(4) -0.2081(2) 0.0387 Uani
H4 H 0.6884 -0.4190 -0.1965 0.0470 Uiso
C9 C 0.7779(2) -0.4117(4) -0.1950(2) 0.0310 Uani
C10 C 0.7925(2) -0.3175(4) -0.1636(2) 0.0337 Uani
C11 C 0.7893(3) -0.1543(4) -0.1041(2) 0.0343 Uani
C12 C 0.8437(3) -0.1764(4) -0.1230(3) 0.0477 Uani
H5 H 0.8764 -0.1338 -0.1146 0.0570 Uiso
C13 C 0.8467(2) -0.2699(4) -0.1566(3) 0.0430 Uani
H6 H 0.8815 -0.2969 -0.1725 0.0510 Uiso
C14 C 0.7711(2) -0.0656(4) -0.0712(2) 0.0367 Uani
C15 C 0.6523(2) -1.3127(4) -0.5015(2) 0.0353 Uani
C16 C 0.6194(2) -1.4001(3) -0.5243(2) 0.0337 Uani
C17 C 0.6009(2) -1.4148(4) -0.5803(3) 0.0423 Uani
H7 H 0.6086 -1.3669 -0.6108 0.0510 Uiso
C18 C 0.5700(2) -1.5072(4) -0.5870(2) 0.0417 Uani
H8 H 0.5548 -1.5297 -0.6229 0.0500 Uiso
C19 C 0.5634(2) -1.5638(4) -0.5367(2) 0.0303 Uani
C20 C 0.5315(2) -1.6622(3) -0.5259(2) 0.0317 Uani
C21 C 0.4744(2) -1.8291(4) -0.5358(2) 0.0343 Uani
C22 C 0.4871(2) -1.8031(4) -0.4798(3) 0.0373 Uani
H9 H 0.4751 -1.8442 -0.4478 0.0450 Uiso
C23 C 0.5200(2) -1.7084(4) -0.4742(3) 0.0393 Uani
H10 H 0.5325 -1.6806 -0.4383 0.0470 Uiso
C24 C 0.4435(2) -1.9198(4) -0.5580(2) 0.0357 Uani
C25 C 0.4426(3) -1.9596(4) -0.6124(3) 0.0503 Uani
H11 H 0.4627 -1.9283 -0.6436 0.0600 Uiso
C26 C 0.4084(3) -2.0530(4) -0.6181(3) 0.0550 Uani
H12 H 0.4032 -2.0903 -0.6532 0.0660 Uiso
C27 C 0.3843(2) -2.0815(4) -0.5667(3) 0.0393 Uani
C28 C 0.3492(2) -2.1742(4) -0.5538(3) 0.0430 Uani
Ag1A Ag 0.74657(2) 0.12565(3) 0.03106(2) 0.0477 Uani
Ag1C Ag 0.25343(2) -2.37435(3) -0.53106(2) 0.0477 Uani
N2A N 0.7427(2) -1.0063(4) -0.5444(2) 0.0457 Uani
N4C N 0.8221(2) -1.2542(4) -0.4578(2) 0.0500 Uani
Sb1 Sb 0.462827(19) -0.36513(4) 0.280869(19) 0.0611 Uani
F1 F 0.5291(2) -0.4483(4) 0.2673(2) 0.1243 Uani
F2 F 0.4201(2) -0.4454(4) 0.2279(2) 0.1173 Uani
F3 F 0.4404(2) -0.4568(4) 0.3401(2) 0.1230 Uani
F4 F 0.4866(2) -0.2764(4) 0.2214(2) 0.1297 Uani
F5 F 0.5051(2) -0.2858(4) 0.33373(19) 0.1133 Uani
F6 F 0.3981(2) -0.2801(4) 0.2933(2) 0.1220 Uani
loop_
_atom_site_aniso_label
_atom_site_aniso_U_11
_atom_site_aniso_U_22
_atom_site_aniso_U_33
_atom_site_aniso_U_23
_atom_site_aniso_U_13
_atom_site_aniso_U_12
Ag1 0.0608(3) 0.02362(16) 0.0586(3) -0.0011(2) -0.0172(3) -0.0004(2)
S1 0.0461(9) 0.0345(7) 0.0395(9) -0.0118(6) -0.0071(7) 0.0035(7)
S2 0.0398(9) 0.0370(7) 0.0473(10) -0.0161(7) 0.0004(8) 0.0002(6)
S3 0.0447(9) 0.0344(7) 0.0455(9) -0.0129(7) 0.0097(7) -0.0037(7)
S4 0.0428(9) 0.0355(7) 0.0419(9) 0.0027(7) -0.0050(7) -0.0110(6)
S5 0.0495(10) 0.0371(7) 0.0375(9) -0.0025(6) 0.0024(7) -0.0141(7)
S6 0.0449(9) 0.0338(7) 0.0539(10) -0.0059(7) 0.0092(8) -0.0108(6)
N1 0.066(4) 0.036(3) 0.045(3) -0.008(2) 0.003(3) 0.002(2)
N2 0.047(3) 0.040(3) 0.050(3) -0.009(2) 0.002(3) -0.004(2)
N3 0.046(3) 0.033(2) 0.051(3) 0.003(2) -0.006(2) -0.009(2)
N4 0.051(3) 0.038(3) 0.061(4) -0.003(2) 0.002(3) -0.014(2)
C1 0.045(4) 0.035(3) 0.034(3) -0.003(3) 0.009(3) 0.000(3)
C2 0.048(4) 0.030(3) 0.028(3) -0.003(2) 0.004(3) 0.000(2)
C3 0.049(4) 0.027(3) 0.025(3) -0.003(2) 0.002(3) -0.004(2)
C4 0.035(3) 0.045(3) 0.055(4) -0.020(3) 0.003(3) -0.001(3)
C5 0.041(4) 0.045(3) 0.055(4) -0.008(3) 0.004(3) 0.003(3)
C6 0.037(3) 0.028(3) 0.027(3) -0.003(2) 0.000(3) 0.000(2)
C7 0.041(4) 0.034(3) 0.041(4) 0.000(3) -0.002(3) -0.009(3)
C8 0.041(4) 0.036(3) 0.039(4) -0.007(3) 0.004(3) 0.009(3)
C9 0.041(4) 0.028(2) 0.024(3) -0.002(2) 0.006(3) 0.000(2)
C10 0.044(4) 0.027(3) 0.030(3) -0.004(2) 0.007(3) 0.004(2)
C11 0.048(4) 0.026(3) 0.029(3) -0.003(2) -0.004(3) -0.006(2)
C12 0.048(4) 0.041(3) 0.054(4) -0.011(3) -0.001(3) -0.007(3)
C13 0.038(4) 0.035(3) 0.056(4) -0.013(3) 0.003(3) 0.008(3)
C14 0.040(4) 0.035(3) 0.035(4) -0.006(3) -0.001(3) -0.006(2)
C15 0.035(3) 0.031(3) 0.040(4) 0.002(3) 0.004(3) 0.001(2)
C16 0.029(3) 0.028(3) 0.044(4) 0.000(2) 0.001(3) -0.006(2)
C17 0.043(4) 0.038(3) 0.046(4) 0.003(3) 0.002(3) -0.008(3)
C18 0.050(4) 0.040(3) 0.035(4) 0.000(3) 0.001(3) -0.009(3)
C19 0.027(3) 0.027(3) 0.037(3) -0.003(2) 0.002(3) -0.003(2)
C20 0.031(3) 0.027(2) 0.037(3) -0.003(2) 0.003(3) 0.000(2)
C21 0.031(3) 0.030(3) 0.042(4) 0.001(2) 0.001(3) -0.002(2)
C22 0.037(3) 0.031(3) 0.044(4) 0.006(3) 0.001(3) -0.005(2)
C23 0.041(4) 0.037(3) 0.040(4) -0.001(3) -0.002(3) -0.005(2)
C24 0.038(3) 0.026(2) 0.043(4) 0.002(3) 0.004(3) 0.000(2)
C25 0.060(4) 0.042(3) 0.049(4) 0.005(3) 0.008(3) -0.019(3)
C26 0.070(5) 0.048(4) 0.047(4) -0.002(3) -0.011(4) -0.020(3)
C27 0.034(3) 0.030(3) 0.054(4) -0.003(3) -0.003(3) -0.007(2)
C28 0.037(4) 0.037(3) 0.055(4) -0.003(3) -0.006(3) -0.001(3)
Ag1A 0.0608 0.02362 0.0586 0.0011 0.0172 -0.0004
Ag1C 0.0608 0.02362 0.0586 -0.0011 0.0172 0.0004
N2A 0.047 0.04 0.05 0.009 -0.002 -0.004
N4C 0.051 0.038 0.061 -0.003 -0.002 0.014
Sb1 0.0441(3) 0.0988(3) 0.0403(3) 0.0026(3) -0.0022(2) 0.0002(3)
F1 0.070(3) 0.179(5) 0.124(4) 0.005(4) -0.001(3) 0.053(3)
F2 0.096(4) 0.150(4) 0.106(4) -0.056(3) -0.039(3) 0.013(3)
F3 0.133(4) 0.142(4) 0.094(4) 0.036(3) 0.014(3) -0.053(3)
F4 0.139(4) 0.175(5) 0.075(3) 0.059(3) 0.000(3) -0.013(4)
F5 0.139(4) 0.128(4) 0.073(3) 0.010(3) -0.042(3) -0.052(3)
F6 0.088(3) 0.148(4) 0.130(4) -0.048(3) 0.000(3) 0.042(3)
loop_
_geom_bond_atom_site_label_1
_geom_bond_atom_site_label_2
_geom_bond_site_symmetry_1
_geom_bond_site_symmetry_2
Ag1 N1 1_555 1_555
S1 C2 1_555 1_555
S2 C6 1_555 1_555
S3 C10 1_555 1_555
S4 C16 1_555 1_555
S5 C20 1_555 1_555
S6 C24 1_555 1_555
N1 C1 1_555 1_555
N2 C14 1_555 1_555
N3 Ag1 1_555 1_555
N4 C28 1_555 1_555
C1 C2 1_555 1_555
C2 C5 1_555 1_555
C3 S1 1_555 1_555
C4 C3 1_555 1_555
H1 C4 1_555 1_555
C5 C4 1_555 1_555
H2 C5 1_555 1_555
C6 C3 1_555 1_555
C7 C6 1_555 1_555
H3 C7 1_555 1_555
C8 C7 1_555 1_555
H4 C8 1_555 1_555
C9 S2 1_555 1_555
C10 C9 1_555 1_555
C11 S3 1_555 1_555
C12 C11 1_555 1_555
H5 C12 1_555 1_555
C13 C10 1_555 1_555
H6 C13 1_555 1_555
C14 C11 1_555 1_555
C15 N3 1_555 1_555
C16 C15 1_555 1_555
C17 C16 1_555 1_555
H7 C17 1_555 1_555
C18 C17 1_555 1_555
H8 C18 1_555 1_555
C19 S4 1_555 1_555
C20 C19 1_555 1_555
C21 S5 1_555 1_555
C22 C21 1_555 1_555
H9 C22 1_555 1_555
C23 C20 1_555 1_555
H10 C23 1_555 1_555
C24 C21 1_555 1_555
C25 C24 1_555 1_555
H11 C25 1_555 1_555
C26 C25 1_555 1_555
H12 C26 1_555 1_555
C27 S6 1_555 1_555
C28 C27 1_555 1_555
Sb1 F1 1_555 1_555
F2 Sb1 1_555 1_555
F3 Sb1 1_555 1_555
F4 Sb1 1_555 1_555
F5 Sb1 1_555 1_555
F6 Sb1 1_555 1_555
Ag1A N2 1_555 1_555
Ag1C N4 1_555 1_555
N2A Ag1 1_555 1_555
N4C Ag1 1_555 1_555
C8 C9 1_555 1_555
C12 C13 1_555 1_555
C18 C19 1_555 1_555
C22 C23 1_555 1_555
C26 C27 1_555 1_555

#END
