
#######################################################################
#
#                 Cambridge Crystallographic Data Centre
#                                CCDC 
#
#######################################################################
#
# If this CIF has been generated from an entry in the Cambridge 
# Structural Database, then it will include bibliographic, chemical, 
# crystal, experimental, refinement or atomic coordinate data resulting 
# from the CCDC's data processing and validation procedures.
#
#######################################################################

data_EQOCOC01
_chemical_formula_moiety         '(C12 H14 N8 O1 Zn2)n'
_symmetry_cell_setting           tetragonal
_symmetry_space_group_name_H-M   'I 41/a m d'
_symmetry_Int_Tables_number      141
_space_group_name_Hall           '-I 4bd 2'
loop_
_symmetry_equiv_pos_site_id
_symmetry_equiv_pos_as_xyz
1 x,y,z
2 1/4-y,3/4+x,1/4+z
3 1/4+y,1/4-x,3/4+z
4 1/4+y,3/4+x,1/4-z
5 1/2+x,1/2+y,1/2+z
6 3/4-y,1/4+x,3/4+z
7 3/4+y,3/4-x,1/4+z
8 3/4+y,1/4+x,3/4-z
9 1/2-x,-y,1/2+z
10 1/2-x,y,1/2-z
11 x,-y,-z
12 1/4-y,1/4-x,3/4-z
13 -x,1/2-y,z
14 -x,1/2+y,-z
15 1/2+x,1/2-y,1/2-z
16 3/4-y,3/4-x,1/4-z
17 -x,-y,-z
18 3/4+y,1/4-x,3/4-z
19 3/4-y,3/4+x,1/4-z
20 3/4-y,1/4-x,3/4+z
21 1/2-x,1/2-y,1/2-z
22 1/4+y,3/4-x,1/4-z
23 1/4-y,1/4+x,3/4-z
24 1/4-y,3/4-x,1/4+z
25 1/2+x,y,1/2-z
26 1/2+x,-y,1/2+z
27 -x,y,z
28 3/4+y,3/4+x,1/4+z
29 x,1/2+y,-z
30 x,1/2-y,z
31 1/2-x,1/2+y,1/2+z
32 1/4+y,1/4+x,3/4+z
_cell_length_a                   18.515(3)
_cell_length_b                   18.515(3)
_cell_length_c                   20.245(4)
_cell_angle_alpha                90
_cell_angle_beta                 90
_cell_angle_gamma                90
_cell_volume                     6940.09
loop_
_atom_site_label
_atom_site_type_symbol
_atom_site_fract_x
_atom_site_fract_y
_atom_site_fract_z
_atom_site_U_iso_or_equiv
_atom_site_thermal_displace_type
C1 C 0.3409(5) 0.5000 0.0000 0.0703 Uani
H1 H 0.3911 0.5000 0.0000 0.0840 Uiso
C2 C 0.3477(6) 0.2500 0.1276(4) 0.0753 Uani
H2 H 0.3930 0.2500 0.1475 0.0900 Uiso
C3 C 0.2317(9) 0.4963(9) 0.0396(8) 0.0820 Uiso
H3 H 0.1933 0.4911 0.0687 0.0990 Uiso
C4 C 0.2410(10) 0.2869(8) 0.1020(9) 0.0950 Uiso
H4 H 0.2010 0.3166 0.0961 0.1140 Uiso
N1 N 0.3019(3) 0.4683(3) 0.0470(3) 0.0807 Uani
N2 N 0.3138(4) 0.3101(3) 0.1127(3) 0.0857 Uani
Zn1 Zn 0.33653(4) 0.41347(4) 0.1250 0.0722 Uani
C1F C 0.2500 0.4091(5) 0.2500 0.0703 Uani
H1F H 0.2500 0.3589 0.2500 0.0840 Uiso
C2U C 0.5000 0.4023(6) 0.1224(4) 0.0753 Uani
H2U H 0.5000 0.3570 0.1025 0.0900 Uiso
C3J C 0.2317(9) 0.5037(9) -0.0396(8) 0.0820 Uiso
C3O C 0.2537(9) 0.5183(9) 0.2104(8) 0.0820 Uiso
C3F C 0.2463(9) 0.5183(9) 0.2896(8) 0.0820 Uiso
H3J H 0.1933 0.5089 -0.0687 0.0990 Uiso
H3O H 0.2589 0.5567 0.1813 0.0990 Uiso
H3F H 0.2411 0.5567 0.3187 0.0990 Uiso
C4CA C 0.2410(10) 0.2131(8) 0.1020(9) 0.0950 Uiso
C4O C 0.4631(8) 0.5090(10) 0.1480(9) 0.0950 Uiso
C4U C 0.5369(8) 0.5090(10) 0.1480(9) 0.0950 Uiso
H4CA H 0.2010 0.1834 0.0961 0.1140 Uiso
H4O H 0.4334 0.5490 0.1539 0.1140 Uiso
H4U H 0.5666 0.5490 0.1539 0.1140 Uiso
N1J N 0.3019(3) 0.5317(3) -0.0470(3) 0.0807 Uani
N1O N 0.2817(3) 0.4481(3) 0.2030(3) 0.0807 Uani
N1F N 0.2183(3) 0.4481(3) 0.2970(3) 0.0807 Uani
N1E N 0.2817(3) 0.5519(3) -0.2030(3) 0.0807 Uani
N2CA N 0.3138(4) 0.1899(3) 0.1127(3) 0.0857 Uani
N2O N 0.4399(3) 0.4362(4) 0.1373(3) 0.0857 Uani
N2U N 0.5601(3) 0.4362(4) 0.1373(3) 0.0857 Uani
N2E N 0.4399(3) 0.5638(4) -0.1373(3) 0.0857 Uani
N2J N 0.3138(4) 0.6899(3) -0.1127(3) 0.0857 Uani
Zn1E Zn 0.33653(4) 0.58653(4) -0.1250 0.0722 Uani
Zn1CA Zn 0.33653(4) 0.08653(4) 0.1250 0.0722 Uani
Zn1F Zn 0.16347(4) 0.41347(4) 0.3750 0.0722 Uani
Zn1Z Zn 0.66347(4) 0.41347(4) 0.1250 0.0722 Uani
O1 O 0.5000 0.2500 0.225(2) 0.3633 Uani
loop_
_atom_site_aniso_label
_atom_site_aniso_U_11
_atom_site_aniso_U_22
_atom_site_aniso_U_33
_atom_site_aniso_U_23
_atom_site_aniso_U_13
_atom_site_aniso_U_12
C1 0.074(6) 0.082(7) 0.055(5) 0.013(5) 0.000 0.000
C2 0.086(7) 0.067(6) 0.073(6) 0.000 -0.010(5) 0.000
N1 0.077(4) 0.097(4) 0.068(4) 0.017(3) 0.002(3) 0.004(3)
N2 0.088(4) 0.086(4) 0.083(4) 0.004(3) -0.014(3) -0.002(4)
Zn1 0.0792(7) 0.0792(7) 0.0583(8) 0.0117(4) 0.0117(4) 0.0064(6)
C1F 0.082 0.074 0.055 0 0.013 0
C2U 0.067 0.086 0.073 -0.01 0 0
N1J 0.077 0.097 0.068 0.017 -0.002 -0.004
N1O 0.097 0.077 0.068 0.002 0.017 0.004
N1F 0.097 0.077 0.068 -0.002 0.017 -0.004
N1E 0.097 0.077 0.068 0.002 -0.017 -0.004
N2CA 0.088 0.086 0.083 -0.004 -0.014 0.002
N2O 0.086 0.088 0.083 -0.014 0.004 -0.002
N2U 0.086 0.088 0.083 -0.014 -0.004 0.002
N2E 0.086 0.088 0.083 -0.014 -0.004 0.002
N2J 0.088 0.086 0.083 0.004 0.014 0.002
Zn1E 0.0792 0.0792 0.0583 0.0117 -0.0117 -0.0064
Zn1CA 0.0792 0.0792 0.0583 -0.0117 0.0117 -0.0064
Zn1F 0.0792 0.0792 0.0583 -0.0117 0.0117 -0.0064
Zn1Z 0.0792 0.0792 0.0583 0.0117 -0.0117 -0.0064
O1 0.26(3) 0.43(4) 0.40(5) 0.000 0.000 0.000
loop_
_geom_bond_atom_site_label_1
_geom_bond_atom_site_label_2
_geom_bond_site_symmetry_1
_geom_bond_site_symmetry_2
C1 H1 1_555 1_555
C2 H2 1_555 1_555
C3 H3 1_555 1_555
C4 H4 1_555 1_555
N1 C1 1_555 1_555
N2 C2 1_555 1_555
Zn1 N1 1_555 1_555
C1F H1F 1_555 1_555
C2U H2U 1_555 1_555
C3J C3 1_555 1_555
C3O C3F 1_555 1_555
C3F H3F 1_555 1_555
H3J C3J 1_555 1_555
H3O C3O 1_555 1_555
C4CA C4 1_555 1_555
C4O C4U 1_555 1_555
C4U H4U 1_555 1_555
H4CA C4CA 1_555 1_555
H4O C4O 1_555 1_555
N1J C1 1_555 1_555
N1O Zn1 1_555 1_555
N1F C1F 1_555 1_555
N1E Zn1E 1_555 1_555
N2CA C2 1_555 1_555
N2O Zn1 1_555 1_555
N2U C2U 1_555 1_555
N2E Zn1E 1_555 1_555
N2J Zn1E 1_555 1_555
Zn1E N1J 1_555 1_555
Zn1CA N2CA 1_555 1_555
Zn1F N1F 1_555 1_555
Zn1Z N2U 1_555 1_555
C3 N1 1_555 1_555
C4 N2 1_555 1_555
N2 Zn1 1_555 1_555
C1F N1O 1_555 1_555
C2U N2O 1_555 1_555
C3J N1J 1_555 1_555
C3O N1O 1_555 1_555
C3F N1F 1_555 1_555
C4CA N2CA 1_555 1_555
C4O N2O 1_555 1_555
C4U N2U 1_555 1_555

#END
