
#######################################################################
#
#                 Cambridge Crystallographic Data Centre
#                                CCDC 
#
#######################################################################
#
# If this CIF has been generated from an entry in the Cambridge 
# Structural Database, then it will include bibliographic, chemical, 
# crystal, experimental, refinement or atomic coordinate data resulting 
# from the CCDC's data processing and validation procedures.
#
#######################################################################

data_VEJYIT
_chemical_formula_moiety         '(C21 H33 N11 O3 Zn2)n'
_symmetry_cell_setting           orthorhombic
_symmetry_space_group_name_H-M   'P b c a'
_symmetry_Int_Tables_number      61
_space_group_name_Hall           '-P 2ac 2ab'
loop_
_symmetry_equiv_pos_site_id
_symmetry_equiv_pos_as_xyz
1 x,y,z
2 1/2-x,-y,1/2+z
3 -x,1/2+y,1/2-z
4 1/2+x,1/2-y,-z
5 -x,-y,-z
6 1/2+x,y,1/2-z
7 x,1/2-y,1/2+z
8 1/2-x,1/2+y,z
_cell_length_a                   9.679(3)
_cell_length_b                   24.114(6)
_cell_length_c                   24.450(7)
_cell_angle_alpha                90
_cell_angle_beta                 90
_cell_angle_gamma                90
_cell_volume                     5706.62
loop_
_atom_site_label
_atom_site_type_symbol
_atom_site_fract_x
_atom_site_fract_y
_atom_site_fract_z
_atom_site_U_iso_or_equiv
_atom_site_thermal_displace_type
Zn1 Zn -0.01511(8) 0.17465(4) 0.50122(5) 0.0207 Uani
Zn2 Zn -0.00204(11) 0.00179(5) 0.32387(4) 0.0212 Uani
N1 N 0.1184(7) 0.2346(3) 0.4819(3) 0.0207 Uani
N2 N 0.3032(6) 0.2894(3) 0.4787(3) 0.0187 Uani
C1 C -0.0172(8) 0.0810(4) 0.4181(4) 0.0230 Uani
H1 H 0.0220 0.0545 0.4423 0.0280 Uiso
C2 C -0.2534(9) 0.0124(3) 0.2492(4) 0.0193 Uani
H2 H -0.3028 0.0348 0.2744 0.0230 Uiso
C3 C 0.1034(9) 0.2722(4) 0.4402(4) 0.0337 Uani
H3 H 0.0261 0.2744 0.4164 0.0410 Uiso
N3 N -0.1215(6) -0.0051(3) 0.2572(3) 0.0193 Uani
C4 C -0.0919(8) -0.0340(4) 0.2116(4) 0.0253 Uani
H4 H -0.0061 -0.0517 0.2044 0.0300 Uiso
C5 C 0.2416(8) 0.2463(4) 0.5033(4) 0.0237 Uani
H5 H 0.2815 0.2262 0.5329 0.0280 Uiso
N4 N -0.3059(6) -0.0055(3) 0.2018(3) 0.0147 Uani
C6 C -0.2016(8) -0.0341(4) 0.1779(4) 0.0263 Uani
H6 H -0.2054 -0.0514 0.1430 0.0320 Uiso
C7 C -0.0078(8) 0.0818(4) 0.5818(4) 0.0223 Uani
H7 H -0.0739 0.0611 0.5616 0.0270 Uiso
C8 C 0.2153(8) 0.3057(4) 0.4382(4) 0.0260 Uani
H8 H 0.2300 0.3352 0.4132 0.0310 Uiso
N5 N -0.0500(7) 0.1313(3) 0.4336(3) 0.0203 Uani
C9 C -0.1026(10) 0.1548(4) 0.3873(4) 0.0393 Uani
H9 H -0.1361 0.1917 0.3844 0.0480 Uiso
C10 C 0.1358(9) 0.1058(4) 0.6445(4) 0.0323 Uani
H10 H 0.1918 0.1059 0.6765 0.0390 Uiso
N6 N -0.0433(7) 0.0702(3) 0.3654(3) 0.0190 Uani
C11 C -0.0995(10) 0.1172(4) 0.3457(4) 0.0367 Uani
H11 H -0.1313 0.1231 0.3094 0.0440 Uiso
C12 C 0.1351(10) 0.1457(4) 0.6055(4) 0.0380 Uani
H12 H 0.1885 0.1788 0.6063 0.0460 Uiso
N7 N 0.0451(7) 0.1309(3) 0.5646(3) 0.0227 Uani
N8 N 0.0432(7) 0.0651(3) 0.6307(3) 0.0207 Uani
Zn1C Zn 0.48489(8) 0.32535(4) 0.49878(5) 0.0207 Uani
Zn2E Zn -0.50204(11) 0.00179(5) 0.17613(4) 0.0212 Uani
Zn2D Zn 0.00204(11) -0.00179(5) 0.67613(4) 0.0212 Uani
N2C N -0.1968(6) 0.2106(3) 0.5213(3) 0.0187 Uani
N4E N 0.1941(6) -0.0055(3) 0.2982(3) 0.0147 Uani
N8D N -0.0432(7) -0.0651(3) 0.3693(3) 0.0207 Uani
O1 O 0.7587(7) -0.0043(4) 0.5355(3) 0.0617 Uani
N9 N 0.6465(9) 0.0225(5) 0.4596(4) 0.0743 Uani
C13 C 0.7204(12) -0.0109(7) 0.4880(6) 0.0880 Uani
C14 C 0.6097(16) 0.0806(6) 0.4852(7) 0.1033 Uani
C15 C 0.6066(12) 0.0176(6) 0.4022(4) 0.0760 Uani
O2 O 0.5735(9) 0.1399(4) 0.2944(3) 0.0807 Uani
N10 N 0.4192(8) 0.1504(3) 0.3619(4) 0.0377 Uani
C16 C 0.4593(11) 0.1275(5) 0.3172(5) 0.0560 Uani
C17 C 0.4968(10) 0.1941(5) 0.3893(5) 0.0610 Uani
C18 C 0.2875(10) 0.1302(5) 0.3872(5) 0.0600 Uani
O3 O 0.3673(8) 0.2156(4) 0.6660(3) 0.0663 Uani
N11 N 0.2886(9) 0.2179(4) 0.7527(4) 0.0520 Uani
C19 C 0.2976(11) 0.2383(5) 0.7019(5) 0.0567 Uani
C20 C 0.1992(12) 0.2496(6) 0.7918(5) 0.0790 Uani
C21 C 0.3664(15) 0.1688(5) 0.7707(5) 0.0860 Uani
loop_
_atom_site_aniso_label
_atom_site_aniso_U_11
_atom_site_aniso_U_22
_atom_site_aniso_U_33
_atom_site_aniso_U_23
_atom_site_aniso_U_13
_atom_site_aniso_U_12
Zn1 0.0183(5) 0.0239(6) 0.0200(5) 0.0020(6) -0.0003(5) 0.0001(5)
Zn2 0.0181(5) 0.0265(6) 0.0191(5) 0.0012(6) 0.0001(5) 0.0009(4)
N1 0.024(4) 0.025(5) 0.013(4) 0.005(4) 0.000(3) -0.004(3)
N2 0.019 0.019 0.018 0.007 -0.002 0.004
C1 0.030(6) 0.018(6) 0.021(7) 0.004(5) 0.001(5) 0.000(5)
C2 0.025(5) 0.010(5) 0.023(5) 0.004(5) 0.009(4) 0.001(4)
C3 0.024(5) 0.050(7) 0.027(6) 0.010(5) -0.005(5) -0.009(5)
N3 0.014(4) 0.023(4) 0.021(4) 0.004(4) 0.001(3) 0.003(3)
C4 0.015(5) 0.030(6) 0.031(6) -0.006(5) -0.005(4) 0.009(4)
C5 0.031(5) 0.020(5) 0.020(5) 0.010(5) 0.000(5) -0.006(4)
N4 0.013 0.015 0.016 -0.004 -0.001 0
C6 0.026(5) 0.035(6) 0.018(5) -0.010(5) 0.001(5) 0.004(5)
C7 0.011(5) 0.036(6) 0.020(6) -0.007(5) -0.004(4) 0.001(4)
C8 0.026 0.034 0.018 0.009 -0.005 0.002
N5 0.016(4) 0.027(5) 0.018(5) 0.000(4) -0.001(4) 0.001(3)
C9 0.046(7) 0.026(6) 0.046(8) 0.010(6) -0.012(6) 0.012(5)
C10 0.042(6) 0.034(6) 0.021(6) 0.002(5) -0.008(5) -0.004(5)
N6 0.015(4) 0.023(5) 0.019(5) -0.008(4) 0.003(3) 0.001(3)
C11 0.072(8) 0.015(6) 0.023(6) 0.000(5) -0.011(5) 0.013(5)
C12 0.050(7) 0.031(6) 0.033(7) 0.009(6) -0.011(6) -0.019(5)
N7 0.022(4) 0.017(5) 0.029(5) 0.001(4) 0.005(4) 0.004(3)
N8 0.017(4) 0.024(5) 0.021(5) -0.006(4) -0.002(4) 0.001(4)
Zn1C 0.0183 0.0239 0.02 0.002 0.0003 -0.0001
Zn2E 0.0181 0.0265 0.0191 -0.0012 -0.0001 0.0009
Zn2D 0.0181 0.0265 0.0191 0.0012 0.0001 0.0009
N2C 0.019 0.019 0.018 0.007 0.002 -0.004
N4E 0.013 0.015 0.016 0.004 0.001 0
N8D 0.017 0.024 0.021 -0.006 -0.002 0.001
O1 0.053(5) 0.088(6) 0.044(5) 0.012(5) -0.023(4) -0.005(5)
N9 0.022(5) 0.153(13) 0.048(7) 0.025(7) 0.006(5) -0.017(6)
C13 0.025(7) 0.176(17) 0.063(11) 0.044(11) 0.005(7) 0.001(8)
C14 0.121(12) 0.048(9) 0.141(16) -0.018(10) 0.001(11) -0.003(9)
C15 0.069(9) 0.141(14) 0.018(7) -0.002(8) -0.009(6) 0.006(8)
O2 0.078(6) 0.111(8) 0.053(6) -0.027(5) -0.012(5) 0.012(6)
N10 0.029(5) 0.042(6) 0.042(6) -0.022(5) 0.006(4) 0.004(4)
C16 0.033(7) 0.070(9) 0.065(9) 0.002(7) 0.007(7) -0.014(6)
C17 0.045(7) 0.073(9) 0.065(9) -0.042(7) -0.005(6) -0.011(6)
C18 0.029(6) 0.070(9) 0.081(10) -0.005(7) 0.007(6) -0.012(6)
O3 0.063(5) 0.087(7) 0.049(6) -0.009(5) 0.005(5) -0.035(5)
N11 0.053(6) 0.066(7) 0.037(6) 0.002(6) -0.007(5) -0.026(5)
C19 0.039(7) 0.101(11) 0.030(7) 0.001(8) 0.003(6) -0.038(7)
C20 0.056(8) 0.128(13) 0.053(9) -0.002(9) 0.013(7) 0.007(9)
C21 0.133(13) 0.040(8) 0.085(12) 0.018(8) -0.006(9) 0.006(8)
loop_
_geom_bond_atom_site_label_1
_geom_bond_atom_site_label_2
_geom_bond_site_symmetry_1
_geom_bond_site_symmetry_2
Zn1 N1 1_555 1_555
Zn2 N3 1_555 1_555
N1 C3 1_555 1_555
N2 C5 1_555 1_555
C1 H1 1_555 1_555
C2 H2 1_555 1_555
C3 H3 1_555 1_555
N3 C2 1_555 1_555
C4 N3 1_555 1_555
H4 C4 1_555 1_555
C5 N1 1_555 1_555
H5 C5 1_555 1_555
N4 C2 1_555 1_555
C6 C4 1_555 1_555
H6 C6 1_555 1_555
C7 H7 1_555 1_555
C8 N2 1_555 1_555
H8 C8 1_555 1_555
N5 Zn1 1_555 1_555
C9 N5 1_555 1_555
H9 C9 1_555 1_555
C10 H10 1_555 1_555
N6 Zn2 1_555 1_555
C11 C9 1_555 1_555
H11 C11 1_555 1_555
C12 C10 1_555 1_555
H12 C12 1_555 1_555
N7 Zn1 1_555 1_555
N8 C7 1_555 1_555
O1 C13 1_555 1_555
N9 C13 1_555 1_555
C14 N9 1_555 1_555
C15 N9 1_555 1_555
O2 C16 1_555 1_555
N10 C16 1_555 1_555
C17 N10 1_555 1_555
C18 N10 1_555 1_555
O3 C19 1_555 1_555
N11 C19 1_555 1_555
C20 N11 1_555 1_555
C21 N11 1_555 1_555
Zn1C N2 1_555 1_555
Zn2E N4 1_555 1_555
Zn2D N8 1_555 1_555
N2C Zn1 1_555 1_555
N4E Zn2 1_555 1_555
N8D Zn2 1_555 1_555
C1 N5 1_555 1_555
C1 N6 1_555 1_555
C3 C8 1_555 1_555
N4 C6 1_555 1_555
C7 N7 1_555 1_555
C10 N8 1_555 1_555
N6 C11 1_555 1_555
C12 N7 1_555 1_555

#END
