
#######################################################################
#
#                 Cambridge Crystallographic Data Centre
#                                CCDC 
#
#######################################################################
#
# If this CIF has been generated from an entry in the Cambridge 
# Structural Database, then it will include bibliographic, chemical, 
# crystal, experimental, refinement or atomic coordinate data resulting 
# from the CCDC's data processing and validation procedures.
#
#######################################################################

data_GIJXAA
_chemical_formula_moiety         'C42 H30 N4 O16 Zn6'
_symmetry_cell_setting           orthorhombic
_symmetry_space_group_name_H-M   'I m m m'
_symmetry_Int_Tables_number      71
_space_group_name_Hall           '-I 2 2'
loop_
_symmetry_equiv_pos_site_id
_symmetry_equiv_pos_as_xyz
1 x,y,z
2 -x,-y,z
3 -x,y,-z
4 x,-y,-z
5 1/2+x,1/2+y,1/2+z
6 1/2-x,1/2-y,1/2+z
7 1/2-x,1/2+y,1/2-z
8 1/2+x,1/2-y,1/2-z
9 -x,-y,-z
10 x,y,-z
11 x,-y,z
12 -x,y,z
13 1/2-x,1/2-y,1/2-z
14 1/2+x,1/2+y,1/2-z
15 1/2+x,1/2-y,1/2+z
16 1/2-x,1/2+y,1/2+z
_cell_length_a                   14.2725(11)
_cell_length_b                   19.5898(14)
_cell_length_c                   20.7591(14)
_cell_angle_alpha                90
_cell_angle_beta                 90
_cell_angle_gamma                90
_cell_volume                     5804.15
loop_
_atom_site_label
_atom_site_type_symbol
_atom_site_fract_x
_atom_site_fract_y
_atom_site_fract_z
O5 O 0.642(6) 0.256(4) 0.0000
O6 O 0.697(6) 0.230(3) -0.079(3)
Zn1 Zn 0.39797(8) 0.5000 0.0000
Zn2 Zn 0.5000 0.09980(6) 0.5000
O1 O 0.4229(4) 0.4275(4) 0.0680(3)
C1 C 0.5000 0.4093(5) 0.0885(5)
C2 C 0.5000 0.3589(6) 0.1436(5)
C3 C 0.4316(12) 0.3542(10) 0.1845(9)
H1 H 0.3792 0.3813 0.1775
C4 C 0.4310(12) 0.3111(10) 0.2387(10)
C5 C 0.5000 0.2710(7) 0.2512(7)
C6 C 0.5916(14) 0.2737(13) 0.2068(10)
H2 H 0.6436 0.2463 0.2145
C7 C 0.5882(13) 0.3196(11) 0.1561(10)
H3 H 0.6404 0.3259 0.1299
C8 C 0.3567(13) 0.3085(12) 0.2831(10)
H4 H 0.3033 0.3345 0.2754
C9 C 0.3608(15) 0.2696(11) 0.3365(10)
H5 H 0.3116 0.2698 0.3659
C10 C 0.4415(13) 0.2278(9) 0.3476(8)
C11 C 0.5000 0.2291(7) 0.3070(7)
H6 H 0.5507 0.1998 0.3122
C12 C 0.4426(13) 0.1843(8) 0.4085(8)
O2 O 0.5000 0.1463(5) 0.4162(4)
O3 O 0.3795(10) 0.1884(6) 0.4489(7)
O4 O 0.2579(7) 0.5000 0.0000
C13 C 0.1999(6) 0.4471(4) 0.0000
H7 H 0.2202 0.4019 0.0000
N1 N 0.1109(5) 0.4645(3) 0.0000
O1K O 0.5771(4) 0.4275(4) 0.0680(3)
C3K C 0.5684(12) 0.3542(10) 0.1845(9)
H1K H 0.6208 0.3813 0.1775
C4K C 0.5690(12) 0.3111(10) 0.2387(10)
C6K C 0.4084(14) 0.2737(13) 0.2068(10)
H2K H 0.3564 0.2463 0.2145
C7K C 0.4118(13) 0.3196(11) 0.1561(10)
H3K H 0.3596 0.3259 0.1299
C8K C 0.6433(13) 0.3085(12) 0.2831(10)
H4K H 0.6967 0.3345 0.2754
C9K C 0.6392(15) 0.2696(11) 0.3365(10)
H5K H 0.6884 0.2698 0.3659
C10K C 0.5585(13) 0.2278(9) 0.3476(8)
H6K H 0.4493 0.1998 0.3122
C12K C 0.5574(13) 0.1843(8) 0.4085(8)
O3K O 0.6205(10) 0.1884(6) 0.4489(7)
C13C C 0.1999(6) 0.5529(4) 0.0000
H7C H 0.2202 0.5981 0.0000
N1C N 0.1109(5) 0.5355(3) 0.0000
O1A O 0.5771(4) 0.5725(4) 0.0680(3)
C1A C 0.5000 0.5907(5) 0.0885(5)
C2A C 0.5000 0.6411(6) 0.1436(5)
C3A C 0.5684(12) 0.6458(10) 0.1845(9)
H1A H 0.6208 0.6187 0.1775
C4A C 0.5690(12) 0.6889(10) 0.2387(10)
C5A C 0.5000 0.7290(7) 0.2512(7)
C6A C 0.4084(14) 0.7263(13) 0.2068(10)
H2A H 0.3564 0.7537 0.2145
C7A C 0.4118(13) 0.6804(11) 0.1561(10)
H3A H 0.3596 0.6741 0.1299
C8A C 0.6433(13) 0.6915(12) 0.2831(10)
H4A H 0.6967 0.6655 0.2754
C9A C 0.6392(15) 0.7304(11) 0.3365(10)
H5A H 0.6884 0.7302 0.3659
C10A C 0.5585(13) 0.7722(9) 0.3476(8)
C11A C 0.5000 0.7709(7) 0.3070(7)
H6A H 0.4493 0.8002 0.3122
C12A C 0.5574(13) 0.8157(8) 0.4085(8)
O2A O 0.5000 0.8537(5) 0.4162(4)
O3A O 0.6205(10) 0.8116(6) 0.4489(7)
O1J O 0.4229(4) 0.5725(4) 0.0680(3)
C3J C 0.4316(12) 0.6458(10) 0.1845(9)
H1J H 0.3792 0.6187 0.1775
C4J C 0.4310(12) 0.6889(10) 0.2387(10)
C6J C 0.5916(14) 0.7263(13) 0.2068(10)
H2J H 0.6436 0.7537 0.2145
C7J C 0.5882(13) 0.6804(11) 0.1561(10)
H3J H 0.6404 0.6741 0.1299
C8J C 0.3567(13) 0.6915(12) 0.2831(10)
H4J H 0.3033 0.6655 0.2754
C9J C 0.3608(15) 0.7304(11) 0.3365(10)
H5J H 0.3116 0.7302 0.3659
C10J C 0.4415(13) 0.7722(9) 0.3476(8)
H6J H 0.5507 0.8002 0.3122
C12J C 0.4426(13) 0.8157(8) 0.4085(8)
O3J O 0.3795(10) 0.8116(6) 0.4489(7)
Zn1A Zn 0.60203(8) 0.5000 0.0000
Zn2A Zn 0.5000 0.90020(6) 0.5000
Zn2D Zn -0.0000 0.59980(6) 0.0000
Zn2E Zn -0.0000 0.40020(6) 0.0000
O1C O 0.4229(4) 0.5725(4) -0.0680(3)
O1I O 0.4229(4) 0.4275(4) -0.0680(3)
O2B O 0.5000 0.1463(5) 0.5838(4)
N1E N 0.3891(5) 0.0355(3) 0.5000
N1G N 0.6109(5) 0.0355(3) 0.5000
loop_
_geom_bond_atom_site_label_1
_geom_bond_atom_site_label_2
_geom_bond_site_symmetry_1
_geom_bond_site_symmetry_2
Zn1 O1 1_555 1_555
Zn2 O2 1_555 1_555
O1 C1 1_555 1_555
C1 C2 1_555 1_555
C2 C3 1_555 1_555
C3 H1 1_555 1_555
C4 C3 1_555 1_555
C5 C4 1_555 1_555
C6 C5 1_555 1_555
H2 C6 1_555 1_555
C7 C2 1_555 1_555
H3 C7 1_555 1_555
C8 C4 1_555 1_555
H4 C8 1_555 1_555
C9 C8 1_555 1_555
H5 C9 1_555 1_555
C10 C9 1_555 1_555
C11 C5 1_555 1_555
H6 C11 1_555 1_555
C12 C10 1_555 1_555
O2 C12 1_555 1_555
O3 C12 1_555 1_555
O4 Zn1 1_555 1_555
C13 O4 1_555 1_555
H7 C13 1_555 1_555
N1 C13 1_555 1_555
O1K C1 1_555 1_555
C3K C2 1_555 1_555
H1K C3K 1_555 1_555
C4K C5 1_555 1_555
C6K C3 1_555 1_555
H2K C6K 1_555 1_555
C7K C2 1_555 1_555
H3K C7K 1_555 1_555
C8K C4K 1_555 1_555
H4K C8K 1_555 1_555
C9K C8K 1_555 1_555
H5K C9K 1_555 1_555
C10K C10 1_555 1_555
H6K C10 1_555 1_555
C12K C12 1_555 1_555
O3K C12K 1_555 1_555
C13C O4 1_555 1_555
H7C C13C 1_555 1_555
N1C N1 1_555 1_555
O1A C1A 1_555 1_555
C1A C2A 1_555 1_555
C2A C3A 1_555 1_555
C3A H1A 1_555 1_555
C4A C3A 1_555 1_555
C5A C4A 1_555 1_555
C6A C5A 1_555 1_555
H2A C6A 1_555 1_555
C7A C2A 1_555 1_555
H3A C7A 1_555 1_555
C8A C4A 1_555 1_555
H4A C8A 1_555 1_555
C9A C8A 1_555 1_555
H5A C9A 1_555 1_555
C10A C9A 1_555 1_555
C11A C5A 1_555 1_555
H6A C11A 1_555 1_555
C12A C10A 1_555 1_555
O2A C12A 1_555 1_555
O3A C12A 1_555 1_555
O1J Zn1 1_555 1_555
C3J C2A 1_555 1_555
H1J C3J 1_555 1_555
C4J C5A 1_555 1_555
C6J C3A 1_555 1_555
H2J C6J 1_555 1_555
C7J C2A 1_555 1_555
H3J C7J 1_555 1_555
C8J C4J 1_555 1_555
H4J C8J 1_555 1_555
C9J C8J 1_555 1_555
H5J C9J 1_555 1_555
C10J C10A 1_555 1_555
H6J C10A 1_555 1_555
C12J C12A 1_555 1_555
O3J C12J 1_555 1_555
Zn1A O1K 1_555 1_555
Zn2A O2A 1_555 1_555
Zn2D N1C 1_555 1_555
Zn2E N1 1_555 1_555
O1C Zn1 1_555 1_555
O1I Zn1 1_555 1_555
O2B Zn2 1_555 1_555
N1E Zn2 1_555 1_555
N1G Zn2 1_555 1_555
C3 C7K 1_555 1_555
C4 C6K 1_555 1_555
C4 C7K 1_555 1_555
C5 C6K 1_555 1_555
C6 C7 1_555 1_555
C6 C3K 1_555 1_555
C6 C4K 1_555 1_555
C7 C3K 1_555 1_555
C7 C4K 1_555 1_555
C10 C11 1_555 1_555
C11 C10K 1_555 1_555
C11 H6K 1_555 1_555
H6 C10K 1_555 1_555
O2 C12K 1_555 1_555
C3K C4K 1_555 1_555
C6K C7K 1_555 1_555
C9K C10K 1_555 1_555
C10K C12K 1_555 1_555
C13C N1C 1_555 1_555
O1A Zn1A 1_555 1_555
C1A O1J 1_555 1_555
C3A C7J 1_555 1_555
C4A C6J 1_555 1_555
C4A C7J 1_555 1_555
C5A C6J 1_555 1_555
C6A C7A 1_555 1_555
C6A C3J 1_555 1_555
C6A C4J 1_555 1_555
C7A C3J 1_555 1_555
C7A C4J 1_555 1_555
C10A C11A 1_555 1_555
C11A C10J 1_555 1_555
C11A H6J 1_555 1_555
H6A C10J 1_555 1_555
O2A C12J 1_555 1_555
C3J C4J 1_555 1_555
C6J C7J 1_555 1_555
C9J C10J 1_555 1_555
C10J C12J 1_555 1_555

#END
