
#######################################################################
#
#                 Cambridge Crystallographic Data Centre
#                                CCDC 
#
#######################################################################
#
# If this CIF has been generated from an entry in the Cambridge 
# Structural Database, then it will include bibliographic, chemical, 
# crystal, experimental, refinement or atomic coordinate data resulting 
# from the CCDC's data processing and validation procedures.
#
#######################################################################

data_ORIBAU
_chemical_formula_moiety         '(C36 H27 N1 O17 Zn3)n'
_symmetry_cell_setting           orthorhombic
_symmetry_space_group_name_H-M   'P c c n'
_symmetry_Int_Tables_number      56
_space_group_name_Hall           '-P 2ab 2ac'
loop_
_symmetry_equiv_pos_site_id
_symmetry_equiv_pos_as_xyz
1 x,y,z
2 1/2-x,1/2-y,z
3 -x,1/2+y,1/2-z
4 1/2+x,-y,1/2-z
5 -x,-y,-z
6 1/2+x,1/2+y,-z
7 x,1/2-y,1/2+z
8 1/2-x,y,1/2+z
_cell_length_a                   33.2737(7)
_cell_length_b                   9.85310(10)
_cell_length_c                   18.2180(2)
_cell_angle_alpha                90
_cell_angle_beta                 90
_cell_angle_gamma                90
_cell_volume                     5972.75
loop_
_atom_site_label
_atom_site_type_symbol
_atom_site_fract_x
_atom_site_fract_y
_atom_site_fract_z
Zn1 Zn 0.596499(14) 0.44929(5) 0.49513(2)
Zn2 Zn 0.5000 0.5000 0.5000
C1 C 0.67388(18) 0.3914(6) 0.4925(3)
C2 C 0.71329(15) 0.3173(6) 0.4962(3)
C3 C 0.7490(2) 0.3868(7) 0.4963(4)
H1 H 0.7486 0.4812 0.4964
C4 C 0.71467(18) 0.1791(7) 0.4961(4)
H2 H 0.6909 0.1293 0.4959
C5 C 0.54670(11) 0.2366(4) 0.4611(2)
C6 C 0.52136(11) 0.1161(4) 0.4809(2)
C7 C 0.51956(13) 0.0065(4) 0.4333(2)
H3 H 0.5327 0.0107 0.3883
C8 C 0.49839(12) -0.1092(4) 0.4521(2)
H4 H 0.4974 -0.1823 0.4199
C9 C 0.55704(11) 0.5913(4) 0.37813(18)
C10 C 0.55955(11) 0.6659(4) 0.30620(19)
C11 C 0.59604(11) 0.7129(5) 0.2796(2)
H5 H 0.6195 0.6972 0.3059
C12 C 0.52461(12) 0.6904(5) 0.2665(2)
H6 H 0.5000 0.6602 0.2844
C13 C 0.59751(11) 0.7826(5) 0.2141(2)
H7 H 0.6221 0.8137 0.1966
C14 C 0.52628(12) 0.7591(5) 0.2009(2)
H8 H 0.5028 0.7736 0.1743
C15 C 0.56275(11) 0.8073(4) 0.17391(19)
C16 C 0.56399(11) 0.8814(4) 0.10276(18)
O1 O 0.64277(10) 0.3264(4) 0.50291(18)
O2 O 0.67347(15) 0.5131(5) 0.4788(3)
O3 O 0.54650(8) 0.3378(3) 0.50741(13)
O4 O 0.56736(10) 0.2365(3) 0.40584(18)
O5 O 0.59030(8) 0.5619(3) 0.40781(15)
O6 O 0.52308(8) 0.5652(3) 0.40220(13)
O7 O 0.59542(8) 0.9502(3) 0.08965(15)
O8 O 0.53485(8) 0.8706(3) 0.06079(14)
C1A C 0.82612(18) 0.1086(6) 0.4925(3)
C2A C 0.78671(15) 0.1827(6) 0.4962(3)
C3A C 0.7510(2) 0.1132(7) 0.4963(4)
H1A H 0.7514 0.0188 0.4964
C4A C 0.78533(18) 0.3209(7) 0.4961(4)
H2A H 0.8091 0.3707 0.4959
O1A O 0.85723(10) 0.1736(4) 0.50291(18)
O2A O 0.82653(15) -0.0131(5) 0.4788(3)
C5D C 0.45330(11) -0.2366(4) 0.5389(2)
C6D C 0.47864(11) -0.1161(4) 0.5191(2)
C7D C 0.48044(13) -0.0065(4) 0.5667(2)
H3D H 0.4673 -0.0107 0.6117
C8D C 0.50161(12) 0.1092(4) 0.5479(2)
H4D H 0.5026 0.1823 0.5801
O3D O 0.45350(8) -0.3378(3) 0.49259(13)
O4D O 0.43264(10) -0.2365(3) 0.59416(18)
Zn1A Zn 0.903501(14) 0.05071(5) 0.49513(2)
C9A C 0.94296(11) -0.0913(4) 0.37813(18)
C10A C 0.94045(11) -0.1659(4) 0.30620(19)
C11A C 0.90396(11) -0.2129(5) 0.2796(2)
H5A H 0.8805 -0.1972 0.3059
C12A C 0.97539(12) -0.1904(5) 0.2665(2)
H6A H 1.0000 -0.1602 0.2844
C13A C 0.90249(11) -0.2826(5) 0.2141(2)
H7A H 0.8779 -0.3137 0.1966
C14A C 0.97372(12) -0.2591(5) 0.2009(2)
H8A H 0.9972 -0.2736 0.1743
C15A C 0.93725(11) -0.3073(4) 0.17391(19)
C16A C 0.93601(11) -0.3814(4) 0.10276(18)
O5A O 0.90970(8) -0.0619(3) 0.40781(15)
O6A O 0.97692(8) -0.0652(3) 0.40220(13)
O7A O 0.90458(8) -0.4502(3) 0.08965(15)
O8A O 0.96515(8) -0.3706(3) 0.06079(14)
Zn1D Zn 0.403501(14) -0.44929(5) 0.50487(2)
Zn1F Zn 0.596499(14) 1.05071(5) -0.00487(2)
Zn1G Zn 0.903501(14) -0.55071(5) -0.00487(2)
Zn2_2 Zn 0.5000 -0.5000 0.5000
Zn2A Zn 1.0000 0.0000 0.5000
Zn2B Zn 0.5000 1.0000 0.0000
Zn2C Zn 1.0000 -0.5000 0.0000
O3A O 0.95350(8) 0.1622(3) 0.50741(13)
O3D_2 O 0.45350(8) 0.6622(3) 0.49259(13)
O6D O 0.47692(8) 0.4348(3) 0.59780(13)
O7F O 0.59542(8) 0.5498(3) 0.58965(15)
O7G O 0.90458(8) -0.0498(3) 0.58965(15)
O8B O 0.46515(8) 0.3706(3) 0.43921(14)
O8F O 0.53485(8) 0.6294(3) 0.56079(14)
C17 C 0.6652(3) 0.8880(11) 0.5956(10)
C18 C 0.6273(5) 0.8432(12) 0.4815(7)
H9 H 0.6124 0.9051 0.4512
H10 H 0.6120 0.7616 0.4883
H11 H 0.6523 0.8216 0.4581
C19 C 0.6033(3) 1.0010(11) 0.5824(7)
H12 H 0.5775 0.9598 0.5751
H13 H 0.6045 1.0851 0.5559
H14 H 0.6074 1.0179 0.6338
N1 N 0.6354(3) 0.9077(7) 0.5550(5)
O9 O 0.6689(2) 0.9544(8) 0.6537(4)
C20 C 0.6931(3) 0.7975(11) 0.5752(8)
H15 H 0.7190 0.8264 0.5924
H16 H 0.6935 0.7906 0.5227
H17 H 0.6868 0.7105 0.5960
loop_
_geom_bond_atom_site_label_1
_geom_bond_atom_site_label_2
_geom_bond_site_symmetry_1
_geom_bond_site_symmetry_2
Zn1 O1 1_555 1_555
Zn2 O3 1_555 1_555
C1 C2 1_555 1_555
C2 C3 1_555 1_555
C3 H1 1_555 1_555
C4 C2 1_555 1_555
H2 C4 1_555 1_555
C5 C6 1_555 1_555
C6 C7 1_555 1_555
C7 H3 1_555 1_555
C8 C7 1_555 1_555
H4 C8 1_555 1_555
C9 C10 1_555 1_555
C10 C11 1_555 1_555
C11 H5 1_555 1_555
C12 C10 1_555 1_555
H6 C12 1_555 1_555
C13 C11 1_555 1_555
H7 C13 1_555 1_555
C14 C12 1_555 1_555
H8 C14 1_555 1_555
C15 C13 1_555 1_555
C16 C15 1_555 1_555
O1 C1 1_555 1_555
O2 C1 1_555 1_555
O3 Zn1 1_555 1_555
O4 C5 1_555 1_555
O5 Zn1 1_555 1_555
O6 Zn2 1_555 1_555
O7 C16 1_555 1_555
O8 C16 1_555 1_555
C17 N1 1_555 1_555
C18 H9 1_555 1_555
H10 C18 1_555 1_555
H11 C18 1_555 1_555
C19 H12 1_555 1_555
H13 C19 1_555 1_555
H14 C19 1_555 1_555
N1 C18 1_555 1_555
O9 C17 1_555 1_555
C20 C17 1_555 1_555
H15 C20 1_555 1_555
H16 C20 1_555 1_555
H17 C20 1_555 1_555
C1A C2A 1_555 1_555
C2A C3A 1_555 1_555
C3A C4 1_555 1_555
H1A C3A 1_555 1_555
C4A C3 1_555 1_555
H2A C4A 1_555 1_555
O1A C1A 1_555 1_555
O2A C1A 1_555 1_555
C5D C6D 1_555 1_555
C6D C8 1_555 1_555
C7D C6D 1_555 1_555
H3D C7D 1_555 1_555
C8D C6 1_555 1_555
H4D C8D 1_555 1_555
O3D C5D 1_555 1_555
O4D C5D 1_555 1_555
Zn1A O1A 1_555 1_555
C9A C10A 1_555 1_555
C10A C11A 1_555 1_555
C11A H5A 1_555 1_555
C12A C10A 1_555 1_555
H6A C12A 1_555 1_555
C13A C11A 1_555 1_555
H7A C13A 1_555 1_555
C14A C12A 1_555 1_555
H8A C14A 1_555 1_555
C15A C13A 1_555 1_555
C16A C15A 1_555 1_555
O5A Zn1A 1_555 1_555
O6A C9A 1_555 1_555
O7A C16A 1_555 1_555
O8A C16A 1_555 1_555
Zn1D O3D 1_555 1_555
Zn1F O7 1_555 1_555
Zn1G O7A 1_555 1_555
Zn2_2 O3D 1_555 1_555
Zn2A O6A 1_555 1_555
Zn2B O8 1_555 1_555
Zn2C O8A 1_555 1_555
O3A Zn1A 1_555 1_555
O3D_2 Zn2 1_555 1_555
O6D Zn2 1_555 1_555
O7F Zn1 1_555 1_555
O7G Zn1A 1_555 1_555
O8B Zn2 1_555 1_555
O8F Zn2 1_555 1_555
C5 O3 1_555 1_555
C9 O5 1_555 1_555
C9 O6 1_555 1_555
C14 C15 1_555 1_555
C19 N1 1_555 1_555
C2A C4A 1_555 1_555
C7D C8D 1_555 1_555
C9A O5A 1_555 1_555
C14A C15A 1_555 1_555
Zn2A O3A 1_555 1_555

#END
