
#######################################################################
#
#                 Cambridge Crystallographic Data Centre
#                                CCDC 
#
#######################################################################
#
# If this CIF has been generated from an entry in the Cambridge 
# Structural Database, then it will include bibliographic, chemical, 
# crystal, experimental, refinement or atomic coordinate data resulting 
# from the CCDC's data processing and validation procedures.
#
#######################################################################

data_IDUYOX
_chemical_formula_moiety         '(C80 H62 Cu5 N8 O18 2-)n'
_symmetry_cell_setting           triclinic
_symmetry_space_group_name_H-M   'P -1'
_symmetry_Int_Tables_number      2
_space_group_name_Hall           '-P 1'
loop_
_symmetry_equiv_pos_site_id
_symmetry_equiv_pos_as_xyz
1 x,y,z
2 -x,-y,-z
_cell_length_a                   10.6580(7)
_cell_length_b                   18.4613(12)
_cell_length_c                   21.0920(14)
_cell_angle_alpha                89.068(2)
_cell_angle_beta                 88.1190(10)
_cell_angle_gamma                85.215(2)
_cell_volume                     4133
loop_
_atom_site_label
_atom_site_type_symbol
_atom_site_fract_x
_atom_site_fract_y
_atom_site_fract_z
Cu5 Cu 1.0000 0.5000 0.5000
N1 N 1.0023(4) 0.5733(3) 0.14175(18)
N2 N 0.9025(5) 0.5448(3) 0.5745(2)
C35 C 0.9089(6) 0.5679(3) 0.3748(2)
N3 N 0.4880(5) 0.8108(3) 0.5523(2)
C36 C 0.8966(5) 0.5537(3) 0.1699(2)
H15 H 0.8229 0.5517 0.1460
C37 C 0.9968(6) 0.5262(3) 0.3389(2)
N4 N 0.8979(5) 0.5656(3) 0.4406(2)
C38 C 0.7647(6) 0.6354(3) 0.5186(3)
C39 C 1.0010(6) 0.5957(4) 0.0745(2)
H16 H 0.9768 0.5556 0.0490
H17 H 1.0851 0.6084 0.0607
H18 H 0.9402 0.6380 0.0692
C40 C 1.1087(5) 0.5739(4) 0.1741(3)
H19 H 1.1843 0.5853 0.1525
C41 C 0.6647(6) 0.6969(3) 0.5275(3)
C42 C 0.9167(6) 0.5280(4) 0.6382(2)
C43 C 0.9997(6) 0.5401(3) 0.2687(2)
C44 C 0.8939(5) 0.5363(3) 0.2334(3)
H20 H 0.8187 0.5215 0.2531
C45 C 0.6980(6) 0.7659(4) 0.5360(4)
H21 H 0.7843 0.7753 0.5325
C46 C 0.8342(7) 0.5751(4) 0.6752(3)
H22 H 0.8263 0.5745 0.7202
C47 C 1.1095(6) 0.5584(4) 0.2374(3)
H23 H 1.1847 0.5601 0.2600
C48 C 0.8048(7) 0.6182(3) 0.4572(3)
C49 C 0.6086(6) 0.8218(4) 0.5496(4)
H24 H 0.6340 0.8689 0.5572
C50 C 0.7687(7) 0.6210(4) 0.6361(3)
H25 H 0.7067 0.6587 0.6480
C51 C 0.3932(7) 0.8704(4) 0.5722(4)
H26 H 0.4103 0.8855 0.6152
H27 H 0.3087 0.8532 0.5717
H28 H 0.3980 0.9118 0.5428
C52 C 0.8101(6) 0.6022(3) 0.5731(3)
C53 C 0.8205(7) 0.6254(4) 0.3511(3)
H29 H 0.8094 0.6392 0.3079
C54 C 0.7578(7) 0.6552(4) 0.4012(3)
H30 H 0.6934 0.6940 0.4001
C55 C 0.5400(8) 0.6881(5) 0.5272(6)
H31 H 0.5128 0.6418 0.5182
C56 C 0.4523(7) 0.7451(5) 0.5397(6)
H32 H 0.3651 0.7377 0.5394
C57 C 0.795(3) 0.3227(17) 0.5010(14)
O17 O 0.8310(19) 0.4001(12) 0.4912(10)
N1A N 0.9977(4) 0.4267(3) 0.85825(18)
N2A N 1.0975(5) 0.4552(3) 0.4255(2)
C35A C 1.0911(6) 0.4321(3) 0.6252(2)
N3A N 1.5120(5) 0.1892(3) 0.4477(2)
C36A C 1.1034(5) 0.4463(3) 0.8301(2)
H15A H 1.1771 0.4483 0.8540
C37A C 1.0032(6) 0.4738(3) 0.6611(2)
N4A N 1.1021(5) 0.4344(3) 0.5594(2)
C38A C 1.2353(6) 0.3646(3) 0.4814(3)
C39A C 0.9990(6) 0.4043(4) 0.9255(2)
H16A H 1.0232 0.4444 0.9510
H17A H 0.9149 0.3916 0.9393
H18A H 1.0598 0.3620 0.9308
C40A C 0.8913(5) 0.4261(4) 0.8259(3)
H19A H 0.8157 0.4147 0.8475
C41A C 1.3353(6) 0.3031(3) 0.4725(3)
C42A C 1.0833(6) 0.4720(4) 0.3618(2)
C43A C 1.0003(6) 0.4599(3) 0.7313(2)
C44A C 1.1061(5) 0.4637(3) 0.7666(3)
H20A H 1.1813 0.4785 0.7469
C45A C 1.3020(6) 0.2341(4) 0.4640(4)
H21A H 1.2157 0.2247 0.4675
C46A C 1.1658(7) 0.4249(4) 0.3248(3)
H22A H 1.1737 0.4255 0.2798
C47A C 0.8905(6) 0.4416(4) 0.7626(3)
H23A H 0.8153 0.4399 0.7400
C48A C 1.1952(7) 0.3818(3) 0.5428(3)
C49A C 1.3914(6) 0.1782(4) 0.4504(4)
H24A H 1.3660 0.1311 0.4428
C50A C 1.2313(7) 0.3790(4) 0.3639(3)
H25A H 1.2933 0.3413 0.3520
C51A C 1.6068(7) 0.1296(4) 0.4278(4)
H26A H 1.5897 0.1145 0.3848
H27A H 1.6913 0.1468 0.4283
H28A H 1.6020 0.0882 0.4572
C52A C 1.1899(6) 0.3978(3) 0.4269(3)
C53A C 1.1795(7) 0.3746(4) 0.6489(3)
H29A H 1.1906 0.3608 0.6921
C54A C 1.2422(7) 0.3448(4) 0.5988(3)
H30A H 1.3066 0.3060 0.5999
C55A C 1.4600(8) 0.3119(5) 0.4728(6)
H31A H 1.4872 0.3582 0.4818
C56A C 1.5477(7) 0.2549(5) 0.4603(6)
H32A H 1.6349 0.2623 0.4606
C57A C 1.205(3) 0.6773(17) 0.4990(14)
O17A O 1.1690(19) 0.5999(12) 0.5088(10)
Cu1 Cu 0.50504(4) 0.57171(3) 0.87954(2)
Cu2 Cu 0.36203(4) 0.49523(3) 0.99446(2)
Cu3 Cu 0.13851(4) 0.00690(3) 0.49590(2)
O1 O 0.4936(2) 0.56372(16) 0.97151(13)
O2 O 0.2587(2) 0.03771(17) 0.55423(14)
O3 O 0.2280(2) 0.56199(17) 0.96316(13)
O4 O 0.7194(3) 0.03896(19) 0.55174(15)
O5 O -0.2295(2) 0.54822(17) 0.95397(14)
O6 O 0.3243(3) 0.5933(2) 0.87156(16)
O7 O 0.3529(3) 0.4274(2) 0.91307(15)
O8 O 0.1450(3) 0.1336(2) 0.5974(2)
C1 C -0.2362(3) 0.5906(2) 0.90708(19)
C2 C 0.3608(4) 0.1189(2) 0.6159(2)
O9 O 0.5430(3) 0.4558(2) 0.87667(18)
C3 C 0.3512(4) 0.1723(3) 0.6612(2)
H1 H 0.2705 0.1908 0.6770
O10 O 0.8001(3) 0.1290(2) 0.6020(2)
C4 C 0.2455(4) 0.0935(2) 0.5872(2)
C5 C -0.0036(3) 0.5971(2) 0.90953(19)
H2 H -0.0019 0.5673 0.9467
C6 C 0.1075(4) 0.6194(3) 0.8823(2)
C7 C -0.1171(3) 0.6190(2) 0.88186(19)
C8 C 0.4589(4) 0.1995(3) 0.6839(2)
C9 C 0.4518(4) 0.2573(3) 0.7320(2)
C10 C 0.7126(3) 0.0924(3) 0.58755(19)
C11 C -0.1193(4) 0.6642(3) 0.8287(2)
H3 H -0.1977 0.6799 0.8108
C12 C 0.5761(4) 0.1716(3) 0.6592(2)
H4 H 0.6505 0.1900 0.6737
C13 C -0.0086(4) 0.6869(3) 0.8011(2)
C14 C 0.1053(4) 0.6634(3) 0.8289(2)
H5 H 0.1821 0.6779 0.8107
C15 C 0.2304(4) 0.5896(3) 0.9078(2)
C16 C 0.3615(4) 0.2594(3) 0.7812(2)
H6 H 0.3003 0.2248 0.7828
C17 C 0.4781(4) 0.0900(2) 0.59280(19)
H7 H 0.4847 0.0518 0.5629
C18 C 0.4485(4) 0.4199(3) 0.8752(2)
C19 C 0.4472(4) 0.3632(3) 0.8253(2)
C20 C 0.5363(5) 0.3103(3) 0.7289(3)
H8 H 0.5960 0.3110 0.6945
C21 C 0.3599(4) 0.3111(3) 0.8274(2)
H9 H 0.2986 0.3113 0.8612
C22 C 0.5348(5) 0.3621(3) 0.7755(3)
H10 H 0.5947 0.3975 0.7732
O11 O -0.3345(3) 0.6130(2) 0.87976(17)
C23 C 0.5856(4) 0.1185(3) 0.6148(2)
O12 O 0.5230(4) 0.5810(3) 0.78686(17)
C24 C 0.4307(17) 0.5683(11) 0.7474(9)
O13 O -0.0425(8) 0.2389(5) 0.5632(5)
C25 C -0.0692(19) 0.2622(12) 0.6252(10)
C26 C -0.003(2) 0.0037(10) 0.6260(11)
C27 C 0.4696(15) 0.6383(9) 0.9940(8)
O14 O -0.0070(3) 0.02793(19) 0.55637(15)
Cu4 Cu -0.02622(5) 0.13202(3) 0.56644(3)
O15 O 0.0723(4) 0.8539(3) 0.5314(2)
C28 C -0.1161(6) 0.7760(5) 0.7260(4)
H11 H -0.1866 0.7801 0.7548
C29 C -0.0110(5) 0.7312(4) 0.7408(3)
C30 C -0.1197(6) 0.8151(4) 0.6697(4)
H12 H -0.1940 0.8443 0.6595
C31 C -0.0184(5) 0.8123(3) 0.6285(3)
C32 C -0.0243(5) 0.8551(3) 0.5664(3)
C33 C 0.0904(6) 0.7286(5) 0.6985(4)
H13 H 0.1637 0.6978 0.7076
C34 C 0.0878(6) 0.7696(6) 0.6435(4)
H14 H 0.1601 0.7682 0.6158
O16 O -0.1268(3) 0.8897(2) 0.55485(19)
Cu1_2 Cu -0.49496(4) 0.57171(3) 0.87954(2)
Cu2A Cu -0.36203(4) 0.50477(3) 1.00554(2)
Cu2A_2 Cu 0.63797(4) 0.50477(3) 1.00554(2)
Cu3A Cu -0.13851(4) -0.00690(3) 0.50410(2)
Cu3A_2 Cu -0.13851(4) 0.99310(3) 0.50410(2)
Cu3A_3 Cu 0.86149(4) -0.00690(3) 0.50410(2)
O1A O 0.5064(2) 0.43628(16) 1.02849(13)
O4A O 0.2806(3) -0.03896(19) 0.44826(15)
O5A O 0.2295(2) 0.45178(17) 1.04603(14)
O10_2 O -0.1999(3) 0.1290(2) 0.6020(2)
O11_2 O 0.6655(3) 0.6130(2) 0.87976(17)
O14A O 0.0070(3) -0.02793(19) 0.44363(15)
Cu4_2 Cu 0.97378(5) 0.13202(3) 0.56644(3)
Cu4A Cu 0.02622(5) 0.86798(3) 0.43356(3)
O15A O -0.0723(4) 0.1461(3) 0.4686(2)
O16A O 0.1268(3) 0.1103(2) 0.44515(19)
loop_
_geom_bond_atom_site_label_1
_geom_bond_atom_site_label_2
_geom_bond_site_symmetry_1
_geom_bond_site_symmetry_2
Cu1 O1 1_555 1_555
Cu2 O1 1_555 1_555
Cu3 O2 1_555 1_555
O1 C27 1_555 1_555
O2 C4 1_555 1_555
O3 Cu2 1_555 1_555
O4 C10 1_555 1_555
O5 C1 1_555 1_555
O6 Cu1 1_555 1_555
O7 Cu2 1_555 1_555
O8 C4 1_555 1_555
C1 C7 1_555 1_555
C2 C3 1_555 1_555
O9 Cu1 1_555 1_555
C3 H1 1_555 1_555
O10 C10 1_555 1_555
C4 C2 1_555 1_555
C5 H2 1_555 1_555
C6 C5 1_555 1_555
C7 C5 1_555 1_555
C8 C3 1_555 1_555
C9 C8 1_555 1_555
C10 C23 1_555 1_555
C11 C7 1_555 1_555
H3 C11 1_555 1_555
C12 C8 1_555 1_555
H4 C12 1_555 1_555
C13 C11 1_555 1_555
C14 C6 1_555 1_555
H5 C14 1_555 1_555
C15 O3 1_555 1_555
C16 C9 1_555 1_555
H6 C16 1_555 1_555
C17 C2 1_555 1_555
H7 C17 1_555 1_555
C18 O7 1_555 1_555
C19 C18 1_555 1_555
C20 C9 1_555 1_555
H8 C20 1_555 1_555
C21 C16 1_555 1_555
H9 C21 1_555 1_555
C22 C19 1_555 1_555
H10 C22 1_555 1_555
O11 C1 1_555 1_555
C23 C12 1_555 1_555
O12 Cu1 1_555 1_555
C24 O12 1_555 1_555
O13 C25 1_555 1_555
C26 O14 1_555 1_555
O14 Cu3 1_555 1_555
Cu4 O8 1_555 1_555
O15 C32 1_555 1_555
C28 H11 1_555 1_555
C29 C13 1_555 1_555
C30 C28 1_555 1_555
H12 C30 1_555 1_555
C31 C30 1_555 1_555
C32 C31 1_555 1_555
C33 C29 1_555 1_555
H13 C33 1_555 1_555
C34 C31 1_555 1_555
H14 C34 1_555 1_555
O16 C32 1_555 1_555
Cu5 N2 1_555 1_555
N1 C36 1_555 1_555
N2 C42 1_555 1_555
C35 C37 1_555 1_555
N3 C49 1_555 1_555
C36 H15 1_555 1_555
C37 C43 1_555 1_555
N4 Cu5 1_555 1_555
C38 C41 1_555 1_555
C39 N1 1_555 1_555
H16 C39 1_555 1_555
H17 C39 1_555 1_555
H18 C39 1_555 1_555
C40 N1 1_555 1_555
H19 C40 1_555 1_555
C41 C45 1_555 1_555
C42 C46 1_555 1_555
C43 C44 1_555 1_555
C44 C36 1_555 1_555
H20 C44 1_555 1_555
C45 H21 1_555 1_555
C46 H22 1_555 1_555
C47 C40 1_555 1_555
H23 C47 1_555 1_555
C48 N4 1_555 1_555
C49 C45 1_555 1_555
H24 C49 1_555 1_555
C50 C46 1_555 1_555
H25 C50 1_555 1_555
C51 N3 1_555 1_555
H26 C51 1_555 1_555
H27 C51 1_555 1_555
H28 C51 1_555 1_555
C52 N2 1_555 1_555
C53 C35 1_555 1_555
H29 C53 1_555 1_555
C54 C48 1_555 1_555
H30 C54 1_555 1_555
C55 C41 1_555 1_555
H31 C55 1_555 1_555
C56 N3 1_555 1_555
H32 C56 1_555 1_555
C57 O17 1_555 1_555
O17 Cu5 1_555 1_555
Cu1_2 O11 1_555 1_555
Cu2A O5 1_555 1_555
Cu2A_2 O1 1_555 1_555
Cu3A O14 1_555 1_555
Cu3A_2 O16 1_555 1_555
Cu3A_3 O4 1_555 1_555
O1A Cu2 1_555 1_555
O4A Cu3 1_555 1_555
O5A Cu2 1_555 1_555
O10_2 Cu4 1_555 1_555
O11_2 Cu1 1_555 1_555
O14A Cu3 1_555 1_555
Cu4_2 O10 1_555 1_555
Cu4A O15 1_555 1_555
O15A Cu4 1_555 1_555
O16A Cu3 1_555 1_555
N1A C36A 1_555 1_555
N2A Cu5 1_555 1_555
C35A C37A 1_555 1_555
N3A C49A 1_555 1_555
C36A H15A 1_555 1_555
C37A C42 1_555 1_555
N4A Cu5 1_555 1_555
C38A C41A 1_555 1_555
C39A N1A 1_555 1_555
H16A C39A 1_555 1_555
H17A C39A 1_555 1_555
H18A C39A 1_555 1_555
C40A N1A 1_555 1_555
H19A C40A 1_555 1_555
C41A C45A 1_555 1_555
C42A C37 1_555 1_555
C43A C37A 1_555 1_555
C44A C36A 1_555 1_555
H20A C44A 1_555 1_555
C45A H21A 1_555 1_555
C46A C42A 1_555 1_555
H22A C46A 1_555 1_555
C47A C40A 1_555 1_555
H23A C47A 1_555 1_555
C48A N4A 1_555 1_555
C49A C45A 1_555 1_555
H24A C49A 1_555 1_555
C50A C46A 1_555 1_555
H25A C50A 1_555 1_555
C51A N3A 1_555 1_555
H26A C51A 1_555 1_555
H27A C51A 1_555 1_555
H28A C51A 1_555 1_555
C52A N2A 1_555 1_555
C53A C35A 1_555 1_555
H29A C53A 1_555 1_555
C54A C48A 1_555 1_555
H30A C54A 1_555 1_555
C55A C41A 1_555 1_555
H31A C55A 1_555 1_555
C56A N3A 1_555 1_555
H32A C56A 1_555 1_555
C57A O17A 1_555 1_555
O17A Cu5 1_555 1_555
O6 C15 1_555 1_555
O9 C18 1_555 1_555
C6 C15 1_555 1_555
C13 C14 1_555 1_555
C17 C23 1_555 1_555
C19 C21 1_555 1_555
C20 C22 1_555 1_555
O13 Cu4 1_555 1_555
O14 Cu4 1_555 1_555
C28 C29 1_555 1_555
C33 C34 1_555 1_555
C35 N4 1_555 1_555
C38 C48 1_555 1_555
C38 C52 1_555 1_555
C43 C47 1_555 1_555
C50 C52 1_555 1_555
C53 C54 1_555 1_555
C55 C56 1_555 1_555
Cu2A_2 O1A 1_555 1_555
Cu3A O14A 1_555 1_555
N2A C42A 1_555 1_555
C35A N4A 1_555 1_555
C38A C48A 1_555 1_555
C38A C52A 1_555 1_555
C43A C44A 1_555 1_555
C43A C47A 1_555 1_555
C50A C52A 1_555 1_555
C53A C54A 1_555 1_555
C55A C56A 1_555 1_555

#END
