
#######################################################################
#
#                 Cambridge Crystallographic Data Centre
#                                CCDC 
#
#######################################################################
#
# If this CIF has been generated from an entry in the Cambridge 
# Structural Database, then it will include bibliographic, chemical, 
# crystal, experimental, refinement or atomic coordinate data resulting 
# from the CCDC's data processing and validation procedures.
#
#######################################################################

data_IDUYUD
_chemical_formula_moiety         '(C74 H50 Cd2 Cu1 N8 O12 2+)n'
_symmetry_cell_setting           triclinic
_symmetry_space_group_name_H-M   'P -1'
_symmetry_Int_Tables_number      2
_space_group_name_Hall           '-P 1'
loop_
_symmetry_equiv_pos_site_id
_symmetry_equiv_pos_as_xyz
1 x,y,z
2 -x,-y,-z
_cell_length_a                   9.932(4)
_cell_length_b                   18.818(8)
_cell_length_c                   20.335(9)
_cell_angle_alpha                88.731(10)
_cell_angle_beta                 83.542(9)
_cell_angle_gamma                86.247(8)
_cell_volume                     3767.98
loop_
_atom_site_label
_atom_site_type_symbol
_atom_site_fract_x
_atom_site_fract_y
_atom_site_fract_z
Cd1 Cd 1.11177(9) -0.04729(4) 0.03837(4)
C1 C 0.9424(13) 0.4097(6) 0.4020(5)
H1 H 0.9424 0.4433 0.4356
C2 C 0.8219(12) 0.3904(6) 0.3832(6)
C3 C 0.8207(12) 0.3382(5) 0.3347(5)
H2 H 0.7385 0.3241 0.3220
C4 C 0.9432(15) 0.3083(6) 0.3065(6)
C5 C 1.0685(14) 0.3277(6) 0.3236(6)
H3 H 1.1515 0.3069 0.3040
C6 C 1.0618(12) 0.3805(6) 0.3724(6)
C7 C 1.1981(13) 0.4049(8) 0.3938(8)
C8 C 0.9425(13) 0.2531(6) 0.2544(6)
C9 C 0.8515(13) 0.2560(6) 0.2050(6)
H4 H 0.7851 0.2940 0.2057
C10 C 0.8552(12) 0.2078(6) 0.1581(5)
H5 H 0.7896 0.2120 0.1281
C11 C 0.9489(12) 0.1537(6) 0.1521(6)
C12 C 1.0449(15) 0.1478(7) 0.1986(6)
H6 H 1.1119 0.1099 0.1961
C13 C 1.0403(14) 0.1963(6) 0.2466(6)
H7 H 1.1062 0.1917 0.2764
C14 C 0.9580(13) 0.0985(6) 0.0992(6)
C15 C 0.6906(17) 0.4234(6) 0.4202(7)
O1 O 0.5828(11) 0.4030(5) 0.4022(6)
O2 O 1.1903(11) 0.4508(5) 0.4321(5)
O3 O 1.0518(8) 0.0490(4) 0.1010(4)
O4 O 0.8830(8) 0.1111(4) 0.0544(4)
C16 C 0.5197(14) -0.3964(6) 0.4038(6)
C17 C 0.5393(12) -0.3416(6) 0.3517(5)
C18 C 0.4772(13) -0.3478(6) 0.2971(5)
H8 H 0.4201 -0.3851 0.2938
C19 C 0.4979(13) -0.2979(6) 0.2445(6)
H9 H 0.4556 -0.3038 0.2061
C20 C 0.5752(11) -0.2426(6) 0.2471(5)
C21 C 0.6372(12) -0.2362(6) 0.3029(5)
H10 H 0.6917 -0.1977 0.3065
C22 C 0.6215(13) -0.2853(6) 0.3546(6)
H11 H 0.6672 -0.2803 0.3922
C23 C 0.5910(13) -0.1872(6) 0.1934(5)
C24 C 0.4769(12) -0.1638(5) 0.1614(5)
H12 H 0.3937 -0.1838 0.1746
C25 C 0.4825(12) -0.1132(5) 0.1118(5)
C26 C 0.6005(12) -0.0883(5) 0.0887(6)
H13 H 0.6052 -0.0553 0.0532
C27 C 0.7183(13) -0.1109(5) 0.1169(6)
C28 C 0.7089(13) -0.1598(5) 0.1690(5)
H14 H 0.7882 -0.1745 0.1881
C29 C 0.8518(13) -0.0864(6) 0.0904(6)
C30 C 0.3601(15) -0.0884(6) 0.0822(7)
O5 O 0.5865(9) -0.3891(4) 0.4585(4)
O6 O 0.4404(9) -0.4428(4) 0.4030(4)
O7 O 0.9588(9) -0.1046(4) 0.1158(5)
O8 O 0.8649(8) -0.0495(4) 0.0374(4)
O9 O 0.3445(9) -0.0306(4) 0.0516(4)
O10 O 0.2624(9) -0.1281(4) 0.0867(4)
O11 O 1.2987(15) 0.3621(8) 0.3848(9)
O12 O 0.7028(9) 0.4669(5) 0.4641(4)
Cd2 Cd 0.59897(9) 0.54122(4) 0.54283(4)
Cd1_2 Cd 0.11177(9) -0.04729(4) 0.03837(4)
Cd1A Cd 0.88823(9) 0.04729(4) -0.03837(4)
O1A O 0.4172(11) 0.5970(5) 0.5978(6)
O2A O 0.8097(11) 0.5492(5) 0.5679(5)
O4A O 1.1170(8) -0.1111(4) -0.0544(4)
O5_2 O 0.5865(9) 0.6109(4) 0.4585(4)
O6A O 0.5596(9) 0.4428(4) 0.5970(4)
O8A O 1.1351(8) 0.0495(4) -0.0374(4)
O9_2 O 1.3445(9) -0.0306(4) 0.0516(4)
O10_2 O 1.2624(9) -0.1281(4) 0.0867(4)
O11A O 0.7013(15) 0.6379(8) 0.6152(9)
Cd2_2 Cd 0.59897(9) -0.45878(4) 0.54283(4)
Cd2A Cd 0.40103(9) -0.54122(4) 0.45717(4)
Cd2A_2 Cd 0.40103(9) 0.45878(4) 0.45717(4)
Cd2A_3 Cd 1.40103(9) 0.45878(4) 0.45717(4)
Cu1 Cu 0.0000 0.5000 1.0000
C31 C -0.0695(12) 0.5220(6) 0.8593(5)
C32 C 0.0108(17) 0.4467(6) 0.7623(7)
C33 C 0.1267(16) 0.4397(7) 0.7185(7)
H15 H 0.2123 0.4444 0.7329
C34 C 0.1159(16) 0.4263(7) 0.6550(8)
H16 H 0.1938 0.4259 0.6240
C35 C -0.1189(15) 0.4181(7) 0.6734(7)
H17 H -0.2018 0.4112 0.6570
C36 C -0.1206(14) 0.4332(6) 0.7369(7)
H18 H -0.2023 0.4354 0.7652
C37 C -0.0078(14) 0.3974(7) 0.5618(7)
H19 H 0.0823 0.3785 0.5446
H20 H -0.0305 0.4410 0.5381
H21 H -0.0734 0.3627 0.5559
C38 C 0.0846(14) 0.4170(6) 0.8750(6)
C39 C 0.1683(14) 0.3541(7) 0.8499(6)
H22 H 0.1826 0.3383 0.8060
C40 C 0.2207(13) 0.3235(6) 0.9035(6)
H23 H 0.2795 0.2822 0.9032
C41 C 0.1711(12) 0.3649(5) 0.9604(6)
C42 C 0.2013(14) 0.3500(6) 1.0212(7)
C43 C 0.1609(13) 0.3924(6) 1.0768(5)
C44 C 0.1952(14) 0.3755(6) 1.1442(6)
H24 H 0.2465 0.3348 1.1570
C45 C 0.1436(15) 0.4255(6) 1.1825(6)
H25 H 0.1507 0.4288 1.2280
C46 C 0.2935(16) 0.2846(6) 1.0342(6)
C47 C 0.2341(14) 0.2204(6) 1.0462(7)
H26 H 0.1410 0.2175 1.0431
C48 C 0.3120(16) 0.1606(7) 1.0630(7)
H27 H 0.2715 0.1173 1.0732
C49 C 0.5041(13) 0.2239(7) 1.0510(7)
H28 H 0.5978 0.2258 1.0532
C50 C 0.4304(15) 0.2835(7) 1.0336(8)
H29 H 0.4754 0.3249 1.0208
C51 C 0.5301(13) 0.1018(6) 1.0894(7)
H30 H 0.5765 0.0756 1.0521
H31 H 0.4705 0.0709 1.1161
H32 H 0.5964 0.1184 1.1161
C52 C 0.0119(13) 0.4607(6) 0.8349(6)
N1 N 0.0857(11) 0.4555(4) 1.0778(5)
N2 N 0.0925(10) 0.4221(5) 0.9393(5)
N3 N -0.0104(13) 0.4125(5) 0.6336(5)
N4 N 0.4473(12) 0.1649(5) 1.0645(5)
C31A C 0.0695(12) 0.4780(6) 1.1407(5)
C32A C -0.0108(17) 0.5533(6) 1.2377(7)
C33A C -0.1267(16) 0.5603(7) 1.2815(7)
H15A H -0.2123 0.5556 1.2671
C34A C -0.1159(16) 0.5737(7) 1.3450(8)
H16A H -0.1938 0.5741 1.3760
C35A C 0.1189(15) 0.5819(7) 1.3266(7)
H17A H 0.2018 0.5888 1.3430
C36A C 0.1206(14) 0.5668(6) 1.2631(7)
H18A H 0.2023 0.5646 1.2348
C37A C 0.0078(14) 0.6026(7) 1.4382(7)
H19A H -0.0823 0.6215 1.4554
H20A H 0.0305 0.5590 1.4619
H21A H 0.0734 0.6373 1.4441
C38A C -0.0846(14) 0.5830(6) 1.1250(6)
C39A C -0.1683(14) 0.6459(7) 1.1501(6)
H22A H -0.1826 0.6617 1.1940
C40A C -0.2207(13) 0.6765(6) 1.0965(6)
H23A H -0.2795 0.7178 1.0968
C41A C -0.1711(12) 0.6351(5) 1.0396(6)
C42A C -0.2013(14) 0.6500(6) 0.9788(7)
C43A C -0.1609(13) 0.6076(6) 0.9232(5)
C44A C -0.1952(14) 0.6245(6) 0.8558(6)
H24A H -0.2465 0.6652 0.8430
C45A C -0.1436(15) 0.5745(6) 0.8175(6)
H25A H -0.1507 0.5712 0.7720
C46A C -0.2935(16) 0.7154(6) 0.9658(6)
C47A C -0.2341(14) 0.7796(6) 0.9538(7)
H26A H -0.1410 0.7825 0.9569
C48A C -0.3120(16) 0.8394(7) 0.9370(7)
H27A H -0.2715 0.8827 0.9268
C49A C -0.5041(13) 0.7761(7) 0.9490(7)
H28A H -0.5978 0.7742 0.9468
C50A C -0.4304(15) 0.7165(7) 0.9664(8)
H29A H -0.4754 0.6751 0.9792
C51A C -0.5301(13) 0.8982(6) 0.9106(7)
H30A H -0.5765 0.9244 0.9479
H31A H -0.4705 0.9291 0.8839
H32A H -0.5964 0.8816 0.8839
C52A C -0.0119(13) 0.5393(6) 1.1651(6)
N1A N -0.0857(11) 0.5445(4) 0.9222(5)
N2A N -0.0925(10) 0.5779(5) 1.0607(5)
N3A N 0.0104(13) 0.5875(5) 1.3664(5)
N4A N -0.4473(12) 0.8351(5) 0.9355(5)
loop_
_geom_bond_atom_site_label_1
_geom_bond_atom_site_label_2
_geom_bond_site_symmetry_1
_geom_bond_site_symmetry_2
Cd1 O3 1_555 1_555
C1 H1 1_555 1_555
C2 C1 1_555 1_555
C3 C2 1_555 1_555
H2 C3 1_555 1_555
C4 C3 1_555 1_555
C5 C4 1_555 1_555
H3 C5 1_555 1_555
C6 C1 1_555 1_555
C7 C6 1_555 1_555
C8 C4 1_555 1_555
C9 C8 1_555 1_555
H4 C9 1_555 1_555
C10 C9 1_555 1_555
H5 C10 1_555 1_555
C11 C10 1_555 1_555
C12 C11 1_555 1_555
H6 C12 1_555 1_555
C13 C8 1_555 1_555
H7 C13 1_555 1_555
C14 C11 1_555 1_555
C15 C2 1_555 1_555
O1 C15 1_555 1_555
O2 C7 1_555 1_555
O3 C14 1_555 1_555
O4 C14 1_555 1_555
C16 C17 1_555 1_555
C17 C18 1_555 1_555
C18 H8 1_555 1_555
C19 C18 1_555 1_555
H9 C19 1_555 1_555
C20 C19 1_555 1_555
C21 C20 1_555 1_555
H10 C21 1_555 1_555
C22 C17 1_555 1_555
H11 C22 1_555 1_555
C23 C20 1_555 1_555
C24 C23 1_555 1_555
H12 C24 1_555 1_555
C25 C24 1_555 1_555
C26 C25 1_555 1_555
H13 C26 1_555 1_555
C27 C26 1_555 1_555
C28 C23 1_555 1_555
H14 C28 1_555 1_555
C29 C27 1_555 1_555
C30 C25 1_555 1_555
O5 C16 1_555 1_555
O6 C16 1_555 1_555
O7 Cd1 1_555 1_555
O8 Cd1 1_555 1_555
O9 C30 1_555 1_555
O10 C30 1_555 1_555
O11 C7 1_555 1_555
O12 C15 1_555 1_555
Cd2 O12 1_555 1_555
Cu1 N1 1_555 1_555
C31 C52 1_555 1_555
C32 C33 1_555 1_555
C33 H15 1_555 1_555
C34 C33 1_555 1_555
H16 C34 1_555 1_555
C35 H17 1_555 1_555
C36 C32 1_555 1_555
H18 C36 1_555 1_555
C37 H19 1_555 1_555
H20 C37 1_555 1_555
H21 C37 1_555 1_555
C38 C39 1_555 1_555
C39 H22 1_555 1_555
C40 C39 1_555 1_555
H23 C40 1_555 1_555
C41 C40 1_555 1_555
C42 C41 1_555 1_555
C43 C42 1_555 1_555
C44 C43 1_555 1_555
H24 C44 1_555 1_555
C45 C44 1_555 1_555
H25 C45 1_555 1_555
C46 C42 1_555 1_555
C47 C46 1_555 1_555
H26 C47 1_555 1_555
C48 C47 1_555 1_555
H27 C48 1_555 1_555
C49 H28 1_555 1_555
C50 C46 1_555 1_555
H29 C50 1_555 1_555
C51 H30 1_555 1_555
H31 C51 1_555 1_555
H32 C51 1_555 1_555
C52 C32 1_555 1_555
N1 C43 1_555 1_555
N2 Cu1 1_555 1_555
N3 C34 1_555 1_555
N4 C48 1_555 1_555
Cd1_2 O9 1_555 1_555
Cd1A O4 1_555 1_555
O1A Cd2 1_555 1_555
O2A Cd2 1_555 1_555
O4A Cd1 1_555 1_555
O5_2 Cd2 1_555 1_555
O6A Cd2 1_555 1_555
O8A Cd1 1_555 1_555
O9_2 Cd1 1_555 1_555
O10_2 Cd1 1_555 1_555
O11A Cd2 1_555 1_555
Cd2_2 O5 1_555 1_555
Cd2A O6 1_555 1_555
Cd2A_2 O1 1_555 1_555
Cd2A_3 O2 1_555 1_555
C31A C45 1_555 1_555
C32A C33A 1_555 1_555
C33A H15A 1_555 1_555
C34A C33A 1_555 1_555
H16A C34A 1_555 1_555
C35A H17A 1_555 1_555
C36A C32A 1_555 1_555
H18A C36A 1_555 1_555
C37A H19A 1_555 1_555
H20A C37A 1_555 1_555
H21A C37A 1_555 1_555
C38A C39A 1_555 1_555
C39A H22A 1_555 1_555
C40A C39A 1_555 1_555
H23A C40A 1_555 1_555
C41A C40A 1_555 1_555
C42A C41A 1_555 1_555
C43A C42A 1_555 1_555
C44A C43A 1_555 1_555
H24A C44A 1_555 1_555
C45A C31 1_555 1_555
H25A C45A 1_555 1_555
C46A C42A 1_555 1_555
C47A C46A 1_555 1_555
H26A C47A 1_555 1_555
C48A C47A 1_555 1_555
H27A C48A 1_555 1_555
C49A H28A 1_555 1_555
C50A C46A 1_555 1_555
H29A C50A 1_555 1_555
C51A H30A 1_555 1_555
H31A C51A 1_555 1_555
H32A C51A 1_555 1_555
C52A C31A 1_555 1_555
N1A Cu1 1_555 1_555
N2A Cu1 1_555 1_555
N3A C34A 1_555 1_555
N4A C48A 1_555 1_555
C5 C6 1_555 1_555
C12 C13 1_555 1_555
C21 C22 1_555 1_555
C27 C28 1_555 1_555
C29 O7 1_555 1_555
C29 O8 1_555 1_555
O8 Cd1A 1_555 1_555
O10 Cd1_2 1_555 1_555
O11 Cd2A_3 1_555 1_555
C31 N1A 1_555 1_555
C35 C36 1_555 1_555
C35 N3 1_555 1_555
C37 N3 1_555 1_555
C38 C52 1_555 1_555
C38 N2 1_555 1_555
C41 N2 1_555 1_555
C49 C50 1_555 1_555
C49 N4 1_555 1_555
C51 N4 1_555 1_555
N1 C31A 1_555 1_555
Cd1A O8A 1_555 1_555
C32A C52A 1_555 1_555
C35A C36A 1_555 1_555
C35A N3A 1_555 1_555
C37A N3A 1_555 1_555
C38A C52A 1_555 1_555
C38A N2A 1_555 1_555
C41A N2A 1_555 1_555
C43A N1A 1_555 1_555
C44A C45A 1_555 1_555
C49A C50A 1_555 1_555
C49A N4A 1_555 1_555
C51A N4A 1_555 1_555

#END
