
#######################################################################
#
#                 Cambridge Crystallographic Data Centre
#                                CCDC 
#
#######################################################################
#
# If this CIF has been generated from an entry in the Cambridge 
# Structural Database, then it will include bibliographic, chemical, 
# crystal, experimental, refinement or atomic coordinate data resulting 
# from the CCDC's data processing and validation procedures.
#
#######################################################################

data_IDUZAK
_chemical_formula_moiety         '(C74 H50 Cd2 Cu1 N8 O12 2+)n'
_symmetry_cell_setting           triclinic
_symmetry_space_group_name_H-M   'P -1'
_symmetry_Int_Tables_number      2
_space_group_name_Hall           '-P 1'
loop_
_symmetry_equiv_pos_site_id
_symmetry_equiv_pos_as_xyz
1 x,y,z
2 -x,-y,-z
_cell_length_a                   9.915(8)
_cell_length_b                   18.650(14)
_cell_length_c                   20.341(16)
_cell_angle_alpha                88.702(15)
_cell_angle_beta                 84.514(15)
_cell_angle_gamma                85.703(13)
_cell_volume                     3733.14
loop_
_atom_site_label
_atom_site_type_symbol
_atom_site_fract_x
_atom_site_fract_y
_atom_site_fract_z
Cd1 Cd 0.38519(4) 0.04800(2) 0.462442(18)
O1 O 0.1491(5) 0.0297(3) 0.4472(3)
O2 O 0.2297(5) 0.1325(3) 0.4230(3)
O3 O 0.3788(5) 0.1082(3) 0.5580(2)
C1 C 0.1367(6) 0.0879(4) 0.4224(3)
O4 O 0.5570(5) 0.0485(3) 0.6008(2)
O5 O -0.4678(5) 0.1105(3) 0.3846(3)
O6 O -0.3692(5) 0.0503(3) 0.4622(2)
C2 C 0.4636(8) 0.0968(4) 0.6005(3)
C3 C 0.0120(7) 0.1133(3) 0.3914(3)
C4 C 0.4524(8) 0.1507(4) 0.6553(3)
C5 C -0.1127(7) 0.0885(3) 0.4127(3)
C6 C 0.0214(7) 0.1632(4) 0.3387(3)
C7 C 0.5428(9) 0.1432(4) 0.7027(4)
C8 C 0.3582(9) 0.2067(4) 0.6585(4)
C9 C -0.2277(7) 0.1125(3) 0.3825(3)
H1 H -0.1213 0.0557 0.4474
H2 H 0.1056 0.1812 0.3248
C10 C -0.0928(7) 0.1861(4) 0.3069(3)
C11 C 0.5386(9) 0.1930(5) 0.7516(4)
H3 H 0.6079 0.1039 0.7015
C12 C 0.3526(9) 0.2569(5) 0.7078(4)
H4 H 0.2952 0.2118 0.6267
C13 C -0.3635(7) 0.0884(3) 0.4108(3)
C14 C -0.2170(7) 0.1585(4) 0.3287(3)
C15 C -0.0800(8) 0.2401(4) 0.2524(3)
H5 H 0.6002 0.1871 0.7839
C16 C 0.4446(8) 0.2518(4) 0.7538(3)
H6 H 0.2846 0.2949 0.7097
H7 H -0.2941 0.1717 0.3063
C17 C -0.1420(9) 0.2352(4) 0.1941(4)
C18 C -0.0038(8) 0.2977(4) 0.2581(4)
C19 C 0.4404(7) 0.3068(4) 0.8060(3)
H8 H -0.1978 0.1975 0.1889
C20 C -0.1219(9) 0.2848(4) 0.1449(3)
C21 C 0.0138(8) 0.3478(4) 0.2090(3)
H9 H 0.0376 0.3026 0.2973
C22 C 0.5638(8) 0.3294(4) 0.8233(3)
C23 C 0.3199(8) 0.3365(4) 0.8363(3)
C24 C -0.0441(8) 0.3416(4) 0.1504(3)
H10 H -0.1630 0.2800 0.1056
H11 H 0.0657 0.3869 0.2150
H12 H 0.6467 0.3096 0.8029
C25 C 0.5619(8) 0.3809(4) 0.8706(3)
H13 H 0.2372 0.3221 0.8239
C26 C 0.3186(7) 0.3881(4) 0.8857(3)
C27 C -0.0214(8) 0.3953(4) 0.0953(3)
C28 C 0.4414(7) 0.4099(3) 0.9011(3)
C29 C 0.6929(7) 0.4061(4) 0.8884(4)
C30 C 0.1893(8) 0.4191(4) 0.9201(3)
O7 O -0.0933(6) 0.3903(3) 0.0470(3)
O8 O 0.0665(6) 0.4407(3) 0.1021(3)
H14 H 0.4426 0.4453 0.9332
O9 O 0.6869(7) 0.4471(4) 0.9370(3)
O10 O 0.7976(14) 0.4002(9) 0.8459(8)
O11 O 0.1975(6) 0.4619(3) 0.9648(3)
O12 O 0.0802(5) 0.4030(3) 0.9015(3)
Cd2 Cd -0.09998(4) 0.45948(2) -0.044461(18)
Cd1_2 Cd -0.61481(4) 0.04800(2) 0.462442(18)
Cd1A Cd -0.38519(4) -0.04800(2) 0.537558(18)
Cd1A_2 Cd 0.61481(4) -0.04800(2) 0.537558(18)
O4A O 0.4430(5) -0.0485(3) 0.3992(2)
O5_2 O 0.5322(5) 0.1105(3) 0.3846(3)
O6_2 O 0.6308(5) 0.0503(3) 0.4622(2)
O6A O 0.3692(5) -0.0503(3) 0.5378(2)
O8A O -0.0665(6) 0.5593(3) -0.1021(3)
O9_2 O -0.3131(7) 0.4471(4) -0.0630(3)
O10_2 O -0.2024(14) 0.4002(9) -0.1541(8)
O11A O -0.1975(6) 0.5381(3) 0.0352(3)
O12_2 O 0.0802(5) 0.4030(3) -0.0985(3)
Cd2_2 Cd -0.09998(4) 0.45948(2) 0.955539(18)
Cd2_3 Cd 0.90002(4) 0.45948(2) 0.955539(18)
Cd2A Cd 0.09998(4) 0.54052(2) 0.044461(18)
Cd2A_2 Cd 0.09998(4) 0.54052(2) 1.044461(18)
Cu1 Cu 0.5000 0.5000 0.5000
N1 N 0.5921(7) 0.4224(3) 0.4406(3)
C31 C 0.8159(9) 0.1588(4) 0.5666(4)
H15 H 0.7761 0.1152 0.5762
C32 C 0.7176(10) 0.3205(4) 0.4047(4)
H16 H 0.7748 0.2780 0.4053
C33 C 0.6625(9) 0.3513(5) 0.3521(3)
H17 H 0.6725 0.3339 0.3087
C34 C 0.6085(9) 0.4229(5) 0.1538(4)
H18 H 0.6868 0.4207 0.1238
N2 N 0.9469(7) 0.1618(3) 0.5697(3)
N3 N 0.4881(7) 0.4113(3) 0.1341(3)
C35 C 0.3767(9) 0.4178(5) 0.1748(4)
H19 H 0.2930 0.4126 0.1580
C36 C 1.0080(10) 0.2198(5) 0.5514(5)
H20 H 1.1031 0.2201 0.5492
C37 C 0.5865(8) 0.4149(4) 0.3745(3)
C38 C 1.0306(9) 0.0995(5) 0.5934(4)
H21 H 1.0048 0.0559 0.5745
H22 H 1.0164 0.0962 0.6412
H23 H 1.1257 0.1056 0.5801
C39 C 0.3772(9) 0.4320(5) 0.2408(3)
H24 H 0.2968 0.4343 0.2694
N4 N 0.5843(7) 0.4542(3) 0.5781(3)
C40 C 0.9271(10) 0.2819(5) 0.5350(5)
C41 C 0.7360(9) 0.2183(5) 0.5496(4)
H25 H 0.6424 0.2154 0.5473
C42 C 0.5687(10) 0.4780(4) 0.6425(3)
C43 C 0.6719(8) 0.3653(4) 0.4595(3)
C44 C 0.5044(8) 0.4608(4) 0.3356(3)
C45 C 0.5038(9) 0.4427(4) 0.2637(3)
C46 C 0.6160(8) 0.4384(4) 0.2198(3)
H26 H 0.7009 0.4461 0.2344
C47 C 0.4815(12) 0.3939(6) 0.0638(3)
H27 H 0.5557 0.4145 0.0370
H28 H 0.3957 0.4136 0.0495
H29 H 0.4890 0.3421 0.0588
C48 C 0.7932(9) 0.2813(4) 0.5361(3)
C49 C 0.6416(11) 0.4273(5) 0.6835(4)
H30 H 0.6465 0.4308 0.7293
C50 C 0.6642(10) 0.3913(4) 0.5787(3)
C51 C 0.7076(9) 0.3482(4) 0.5240(3)
C52 C 0.7012(12) 0.3739(5) 0.6447(4)
H31 H 0.7557 0.3337 0.6579
N1A N 0.4079(7) 0.5776(3) 0.5594(3)
C31A C 0.1841(9) 0.8412(4) 0.4334(4)
H15A H 0.2239 0.8848 0.4238
C32A C 0.2824(10) 0.6795(4) 0.5953(4)
H16A H 0.2252 0.7220 0.5947
C33A C 0.3375(9) 0.6487(5) 0.6479(3)
H17A H 0.3275 0.6661 0.6913
C34A C 0.3915(9) 0.5771(5) 0.8462(4)
H18A H 0.3132 0.5793 0.8762
N2A N 0.0531(7) 0.8382(3) 0.4303(3)
N3A N 0.5119(7) 0.5887(3) 0.8659(3)
C35A C 0.6233(9) 0.5822(5) 0.8252(4)
H19A H 0.7070 0.5874 0.8420
C36A C -0.0080(10) 0.7802(5) 0.4486(5)
H20A H -0.1031 0.7799 0.4508
C37A C 0.4135(8) 0.5851(4) 0.6255(3)
C38A C -0.0306(9) 0.9005(5) 0.4066(4)
H21A H -0.0048 0.9441 0.4255
H22A H -0.0164 0.9038 0.3588
H23A H -0.1257 0.8944 0.4199
C39A C 0.6228(9) 0.5680(5) 0.7592(3)
H24A H 0.7032 0.5657 0.7306
N4A N 0.4157(7) 0.5458(3) 0.4219(3)
C40A C 0.0729(10) 0.7181(5) 0.4650(5)
C41A C 0.2640(9) 0.7817(5) 0.4504(4)
H25A H 0.3576 0.7846 0.4527
C42A C 0.4313(10) 0.5220(4) 0.3575(3)
C43A C 0.3281(8) 0.6347(4) 0.5405(3)
C44A C 0.4956(8) 0.5392(4) 0.6644(3)
C45A C 0.4962(9) 0.5573(4) 0.7363(3)
C46A C 0.3840(8) 0.5616(4) 0.7802(3)
H26A H 0.2991 0.5539 0.7656
C47A C 0.5185(12) 0.6061(6) 0.9362(3)
H27A H 0.4443 0.5855 0.9630
H28A H 0.6043 0.5864 0.9505
H29A H 0.5110 0.6579 0.9412
C48A C 0.2068(9) 0.7187(4) 0.4639(3)
C49A C 0.3584(11) 0.5727(5) 0.3165(4)
H30A H 0.3535 0.5692 0.2707
C50A C 0.3358(10) 0.6087(4) 0.4213(3)
C51A C 0.2924(9) 0.6518(4) 0.4760(3)
C52A C 0.2988(12) 0.6261(5) 0.3553(4)
H31A H 0.2443 0.6663 0.3421
loop_
_geom_bond_atom_site_label_1
_geom_bond_atom_site_label_2
_geom_bond_site_symmetry_1
_geom_bond_site_symmetry_2
Cd1 O1 1_555 1_555
O1 C1 1_555 1_555
O2 Cd1 1_555 1_555
O3 Cd1 1_555 1_555
C1 O2 1_555 1_555
O4 C2 1_555 1_555
O5 C13 1_555 1_555
O6 C13 1_555 1_555
C2 O3 1_555 1_555
C3 C1 1_555 1_555
C4 C2 1_555 1_555
C5 C3 1_555 1_555
C6 C3 1_555 1_555
C7 C4 1_555 1_555
C8 C4 1_555 1_555
C9 C5 1_555 1_555
H1 C5 1_555 1_555
H2 C6 1_555 1_555
C10 C6 1_555 1_555
C11 C7 1_555 1_555
H3 C7 1_555 1_555
C12 C8 1_555 1_555
H4 C8 1_555 1_555
C13 C9 1_555 1_555
C14 C9 1_555 1_555
C15 C10 1_555 1_555
H5 C11 1_555 1_555
C16 C11 1_555 1_555
H6 C12 1_555 1_555
H7 C14 1_555 1_555
C17 C15 1_555 1_555
C18 C15 1_555 1_555
C19 C16 1_555 1_555
H8 C17 1_555 1_555
C20 C17 1_555 1_555
C21 C18 1_555 1_555
H9 C18 1_555 1_555
C22 C19 1_555 1_555
C23 C19 1_555 1_555
C24 C20 1_555 1_555
H10 C20 1_555 1_555
H11 C21 1_555 1_555
H12 C22 1_555 1_555
C25 C22 1_555 1_555
H13 C23 1_555 1_555
C26 C23 1_555 1_555
C27 C24 1_555 1_555
C28 C25 1_555 1_555
C29 C25 1_555 1_555
C30 C26 1_555 1_555
O7 C27 1_555 1_555
O8 C27 1_555 1_555
H14 C28 1_555 1_555
O9 C29 1_555 1_555
O10 C29 1_555 1_555
O11 C30 1_555 1_555
O12 C30 1_555 1_555
Cd2 O7 1_555 1_555
Cu1 N1 1_555 1_555
N1 C37 1_555 1_555
C31 H15 1_555 1_555
C32 H16 1_555 1_555
C33 C32 1_555 1_555
H17 C33 1_555 1_555
C34 H18 1_555 1_555
N2 C31 1_555 1_555
N3 C34 1_555 1_555
C35 N3 1_555 1_555
H19 C35 1_555 1_555
C36 N2 1_555 1_555
H20 C36 1_555 1_555
C37 C33 1_555 1_555
C38 N2 1_555 1_555
H21 C38 1_555 1_555
H22 C38 1_555 1_555
H23 C38 1_555 1_555
C39 C35 1_555 1_555
H24 C39 1_555 1_555
N4 Cu1 1_555 1_555
C40 C36 1_555 1_555
C41 C31 1_555 1_555
H25 C41 1_555 1_555
C42 N4 1_555 1_555
C43 N1 1_555 1_555
C44 C37 1_555 1_555
C45 C39 1_555 1_555
C46 C34 1_555 1_555
H26 C46 1_555 1_555
C47 N3 1_555 1_555
H27 C47 1_555 1_555
H28 C47 1_555 1_555
H29 C47 1_555 1_555
C48 C40 1_555 1_555
C49 C42 1_555 1_555
H30 C49 1_555 1_555
C50 N4 1_555 1_555
C51 C43 1_555 1_555
C52 C49 1_555 1_555
H31 C52 1_555 1_555
Cd1_2 O5 1_555 1_555
Cd1A O6 1_555 1_555
Cd1A_2 O4 1_555 1_555
O4A Cd1 1_555 1_555
O5_2 Cd1 1_555 1_555
O6_2 Cd1 1_555 1_555
O6A Cd1 1_555 1_555
O8A Cd2 1_555 1_555
O9_2 Cd2 1_555 1_555
O10_2 Cd2 1_555 1_555
O11A Cd2 1_555 1_555
O12_2 Cd2 1_555 1_555
Cd2_2 O12 1_555 1_555
Cd2_3 O9 1_555 1_555
Cd2A O8 1_555 1_555
Cd2A_2 O11 1_555 1_555
N1A Cu1 1_555 1_555
C31A H15A 1_555 1_555
C32A H16A 1_555 1_555
C33A C32A 1_555 1_555
H17A C33A 1_555 1_555
C34A H18A 1_555 1_555
N2A C31A 1_555 1_555
N3A C34A 1_555 1_555
C35A N3A 1_555 1_555
H19A C35A 1_555 1_555
C36A N2A 1_555 1_555
H20A C36A 1_555 1_555
C37A N1A 1_555 1_555
C38A N2A 1_555 1_555
H21A C38A 1_555 1_555
H22A C38A 1_555 1_555
H23A C38A 1_555 1_555
C39A C35A 1_555 1_555
H24A C39A 1_555 1_555
N4A Cu1 1_555 1_555
C40A C36A 1_555 1_555
C41A C31A 1_555 1_555
H25A C41A 1_555 1_555
C42A C44 1_555 1_555
C43A N1A 1_555 1_555
C44A C42 1_555 1_555
C45A C39A 1_555 1_555
C46A C34A 1_555 1_555
H26A C46A 1_555 1_555
C47A N3A 1_555 1_555
H27A C47A 1_555 1_555
H28A C47A 1_555 1_555
H29A C47A 1_555 1_555
C48A C40A 1_555 1_555
C49A C42A 1_555 1_555
H30A C49A 1_555 1_555
C50A N4A 1_555 1_555
C51A C43A 1_555 1_555
C52A C49A 1_555 1_555
H31A C52A 1_555 1_555
O6 Cd1_2 1_555 1_555
C10 C14 1_555 1_555
C12 C16 1_555 1_555
C21 C24 1_555 1_555
C26 C28 1_555 1_555
O10 Cd2_3 1_555 1_555
C32 C43 1_555 1_555
C41 C48 1_555 1_555
C44 C45 1_555 1_555
C45 C46 1_555 1_555
C48 C51 1_555 1_555
C50 C51 1_555 1_555
C50 C52 1_555 1_555
Cd1A_2 O6_2 1_555 1_555
Cd1A_2 O6A 1_555 1_555
C32A C43A 1_555 1_555
C33A C37A 1_555 1_555
C37A C44A 1_555 1_555
N4A C42A 1_555 1_555
C41A C48A 1_555 1_555
C44A C45A 1_555 1_555
C45A C46A 1_555 1_555
C48A C51A 1_555 1_555
C50A C51A 1_555 1_555
C50A C52A 1_555 1_555

#END
