
#######################################################################
#
#                 Cambridge Crystallographic Data Centre
#                                CCDC 
#
#######################################################################
#
# If this CIF has been generated from an entry in the Cambridge 
# Structural Database, then it will include bibliographic, chemical, 
# crystal, experimental, refinement or atomic coordinate data resulting 
# from the CCDC's data processing and validation procedures.
#
#######################################################################

data_PIDNEX
_chemical_formula_moiety         'C38 H8 N7 O12 Zn7'
_symmetry_cell_setting           orthorhombic
_symmetry_space_group_name_H-M   'C c c m'
_symmetry_Int_Tables_number      66
_space_group_name_Hall           '-C 2 2c'
loop_
_symmetry_equiv_pos_site_id
_symmetry_equiv_pos_as_xyz
1 x,y,z
2 -x,-y,z
3 -x,y,1/2-z
4 x,-y,1/2-z
5 1/2+x,1/2+y,z
6 1/2-x,1/2-y,z
7 1/2-x,1/2+y,1/2-z
8 1/2+x,1/2-y,1/2-z
9 -x,-y,-z
10 x,y,-z
11 x,-y,1/2+z
12 -x,y,1/2+z
13 1/2-x,1/2-y,-z
14 1/2+x,1/2+y,-z
15 1/2+x,1/2-y,1/2+z
16 1/2-x,1/2+y,1/2+z
_cell_length_a                   21.3799(18)
_cell_length_b                   21.4597(18)
_cell_length_c                   27.944(2)
_cell_angle_alpha                90
_cell_angle_beta                 90
_cell_angle_gamma                90
_cell_volume                     12820.9
loop_
_atom_site_label
_atom_site_type_symbol
_atom_site_fract_x
_atom_site_fract_y
_atom_site_fract_z
N1 N 0.0000 0.0000 0.12550(9)
C1 C -0.22543(18) 0.22502(17) 0.25067(13)
C2 C -0.14189(18) 0.17215(15) 0.28851(12)
H1 H -0.1159 0.1679 0.3150
C3 C -0.1860(2) 0.21656(17) 0.28946(14)
C4 C -0.0393(4) 0.0368(3) 0.1011(3)
C5 C 0.0000 0.0000 0.02646(11)
C6 C -0.0407(4) 0.0395(3) 0.0520(2)
Zn1 Zn 0.0000 0.0000 0.198247(10)
C7 C -0.08409(13) 0.08392(11) 0.25049(11)
O1 O -0.07329(8) 0.05725(7) 0.21112(6)
O2 O -0.05727(8) 0.07342(7) 0.28860(7)
C8 C -0.13325(14) 0.13325(12) 0.25105(10)
C9 C -0.17130(17) 0.14163(15) 0.21149(11)
H2 H -0.1658 0.1163 0.1848
C10 C -0.21630(19) 0.18595(19) 0.21077(12)
N2 N -0.2815(7) 0.1735(4) 0.1663(4)
C4A C 0.0393(4) -0.0368(3) 0.1011(3)
C6A C 0.0407(4) -0.0395(3) 0.0520(2)
N1H N 0.0000 0.0000 -0.12550(9)
C4H C 0.0393(4) -0.0368(3) -0.1011(3)
C5H C 0.0000 0.0000 -0.02646(11)
C6H C 0.0407(4) -0.0395(3) -0.0520(2)
C4I C -0.0393(4) 0.0368(3) -0.1011(3)
C6I C -0.0407(4) 0.0395(3) -0.0520(2)
C1E C -0.27457(18) 0.27498(17) 0.25067(13)
C2E C -0.35811(18) 0.32785(15) 0.28851(12)
H1E H -0.3841 0.3321 0.3150
C3E C -0.3140(2) 0.28344(17) 0.28946(14)
C7E C -0.41591(13) 0.41608(11) 0.25049(11)
O1E O -0.42671(8) 0.44275(7) 0.21112(6)
O2E O -0.44273(8) 0.42658(7) 0.28860(7)
C8E C -0.36675(14) 0.36675(12) 0.25105(10)
C9E C -0.32870(17) 0.35837(15) 0.21149(11)
H2E H -0.3342 0.3837 0.1848
C10E C -0.28370(19) 0.31405(19) 0.21077(12)
N2E N -0.2185(7) 0.3265(4) 0.1663(4)
C1A C 0.22543(18) -0.22502(17) 0.25067(13)
C2A C 0.14189(18) -0.17215(15) 0.28851(12)
H1A H 0.1159 -0.1679 0.3150
C3A C 0.1860(2) -0.21656(17) 0.28946(14)
C7A C 0.08409(13) -0.08392(11) 0.25049(11)
O1A O 0.07329(8) -0.05725(7) 0.21112(6)
O2A O 0.05727(8) -0.07342(7) 0.28860(7)
C8A C 0.13325(14) -0.13325(12) 0.25105(10)
C9A C 0.17130(17) -0.14163(15) 0.21149(11)
H2A H 0.1658 -0.1163 0.1848
C10A C 0.21630(19) -0.18595(19) 0.21077(12)
N2A N 0.2815(7) -0.1735(4) 0.1663(4)
C1D C 0.27457(18) -0.27498(17) 0.25067(13)
C2D C 0.35811(18) -0.32785(15) 0.28851(12)
H1D H 0.3841 -0.3321 0.3150
C3D C 0.3140(2) -0.28344(17) 0.28946(14)
C7D C 0.41591(13) -0.41608(11) 0.25049(11)
O1D O 0.42671(8) -0.44275(7) 0.21112(6)
O2D O 0.44273(8) -0.42658(7) 0.28860(7)
C8D C 0.36675(14) -0.36675(12) 0.25105(10)
C9D C 0.32870(17) -0.35837(15) 0.21149(11)
H2D H 0.3342 -0.3837 0.1848
C10D C 0.28370(19) -0.31405(19) 0.21077(12)
N2D N 0.2185(7) -0.3265(4) 0.1663(4)
Zn1B Zn -0.0000 -0.0000 0.301753(10)
N1B N -0.0000 -0.0000 0.37450(9)
Zn1D Zn -0.5000 0.5000 0.198247(10)
Zn1D_2 Zn 0.5000 -0.5000 0.198247(10)
Zn1F Zn -0.5000 0.5000 0.301753(10)
Zn1F_2 Zn 0.5000 -0.5000 0.301753(10)
Zn1H Zn 0.0000 0.0000 -0.198247(10)
O1B O 0.07329(8) 0.05725(7) 0.28888(6)
O1C O -0.07329(8) -0.05725(7) 0.28888(6)
O2B O 0.05727(8) 0.07342(7) 0.21140(7)
O2C O -0.05727(8) -0.07342(7) 0.21140(7)
loop_
_geom_bond_atom_site_label_1
_geom_bond_atom_site_label_2
_geom_bond_site_symmetry_1
_geom_bond_site_symmetry_2
N1 C4 1_555 1_555
C1 C3 1_555 1_555
C2 H1 1_555 1_555
C3 C2 1_555 1_555
C4 C6 1_555 1_555
C5 C6 1_555 1_555
Zn1 N1 1_555 1_555
C7 O1 1_555 1_555
O1 Zn1 1_555 1_555
O2 C7 1_555 1_555
C8 C2 1_555 1_555
C9 C8 1_555 1_555
H2 C9 1_555 1_555
C10 C1 1_555 1_555
N2 C10 1_555 1_555
C4A N1 1_555 1_555
C6A C5 1_555 1_555
N1H C4H 1_555 1_555
C4H C6H 1_555 1_555
C5H C5 1_555 1_555
C6H C5H 1_555 1_555
C4I N1H 1_555 1_555
C6I C5H 1_555 1_555
C1E C1 1_555 1_555
C2E H1E 1_555 1_555
C3E C1E 1_555 1_555
C7E O1E 1_555 1_555
O1E Zn1D 1_555 1_555
O2E C7E 1_555 1_555
C8E C2E 1_555 1_555
C9E C8E 1_555 1_555
H2E C9E 1_555 1_555
C10E C1E 1_555 1_555
N2E C10E 1_555 1_555
C1A C3A 1_555 1_555
C2A H1A 1_555 1_555
C3A C2A 1_555 1_555
C7A O1A 1_555 1_555
O1A Zn1 1_555 1_555
O2A C7A 1_555 1_555
C8A C2A 1_555 1_555
C9A C8A 1_555 1_555
H2A C9A 1_555 1_555
C10A C1A 1_555 1_555
N2A C10A 1_555 1_555
C1D C1A 1_555 1_555
C2D H1D 1_555 1_555
C3D C1D 1_555 1_555
C7D O1D 1_555 1_555
O1D Zn1D_2 1_555 1_555
O2D C7D 1_555 1_555
C8D C2D 1_555 1_555
C9D C8D 1_555 1_555
H2D C9D 1_555 1_555
C10D C1D 1_555 1_555
N2D C10D 1_555 1_555
Zn1B O2 1_555 1_555
N1B Zn1B 1_555 1_555
Zn1F O2E 1_555 1_555
Zn1F_2 O2D 1_555 1_555
Zn1H N1H 1_555 1_555
O1B Zn1B 1_555 1_555
O1C Zn1B 1_555 1_555
O2B Zn1 1_555 1_555
O2C Zn1 1_555 1_555
C7 C8 1_555 1_555
C9 C10 1_555 1_555
C4A C6A 1_555 1_555
C4I C6I 1_555 1_555
C2E C3E 1_555 1_555
C7E C8E 1_555 1_555
C9E C10E 1_555 1_555
C7A C8A 1_555 1_555
O2A Zn1B 1_555 1_555
C9A C10A 1_555 1_555
C2D C3D 1_555 1_555
C7D C8D 1_555 1_555
C9D C10D 1_555 1_555

#END
