
#######################################################################
#
#                 Cambridge Crystallographic Data Centre
#                                CCDC 
#
#######################################################################
#
# If this CIF has been generated from an entry in the Cambridge 
# Structural Database, then it will include bibliographic, chemical, 
# crystal, experimental, refinement or atomic coordinate data resulting 
# from the CCDC's data processing and validation procedures.
#
#######################################################################

data_ASIREB
_chemical_formula_moiety         'C198 H102 Dy16 N24 O80'
_symmetry_cell_setting           cubic
_symmetry_space_group_name_H-M   'I m -3'
_symmetry_Int_Tables_number      204
_space_group_name_Hall           '-I 2 2 3'
loop_
_symmetry_equiv_pos_site_id
_symmetry_equiv_pos_as_xyz
1 x,y,z
2 -x,-y,z
3 -x,y,-z
4 x,-y,-z
5 z,x,y
6 z,-x,-y
7 -z,-x,y
8 -z,x,-y
9 y,z,x
10 -y,z,-x
11 y,-z,-x
12 -y,-z,x
13 1/2+x,1/2+y,1/2+z
14 1/2-x,1/2-y,1/2+z
15 1/2-x,1/2+y,1/2-z
16 1/2+x,1/2-y,1/2-z
17 1/2+z,1/2+x,1/2+y
18 1/2+z,1/2-x,1/2-y
19 1/2-z,1/2-x,1/2+y
20 1/2-z,1/2+x,1/2-y
21 1/2+y,1/2+z,1/2+x
22 1/2-y,1/2+z,1/2-x
23 1/2+y,1/2-z,1/2-x
24 1/2-y,1/2-z,1/2+x
25 -x,-y,-z
26 x,y,-z
27 x,-y,z
28 -x,y,z
29 -z,-x,-y
30 -z,x,y
31 z,x,-y
32 z,-x,y
33 -y,-z,-x
34 y,-z,x
35 -y,z,x
36 y,z,-x
37 1/2-x,1/2-y,1/2-z
38 1/2+x,1/2+y,1/2-z
39 1/2+x,1/2-y,1/2+z
40 1/2-x,1/2+y,1/2+z
41 1/2-z,1/2-x,1/2-y
42 1/2-z,1/2+x,1/2+y
43 1/2+z,1/2+x,1/2-y
44 1/2+z,1/2-x,1/2+y
45 1/2-y,1/2-z,1/2-x
46 1/2+y,1/2-z,1/2+x
47 1/2-y,1/2+z,1/2+x
48 1/2+y,1/2+z,1/2-x
_cell_length_a                   26.6258(2)
_cell_length_b                   26.6258(2)
_cell_length_c                   26.6258(2)
_cell_angle_alpha                90
_cell_angle_beta                 90
_cell_angle_gamma                90
_cell_volume                     18875.9
loop_
_atom_site_label
_atom_site_type_symbol
_atom_site_fract_x
_atom_site_fract_y
_atom_site_fract_z
Dy1 Dy 1.0000 0.873288(9) 0.5000
O1 O 0.93648(13) 0.89375(11) 0.56230(12)
O2 O 0.96877(19) 0.81978(17) 0.56589(18)
O3 O 1.0000 0.95902(17) 0.5000
N1 N 0.82805(13) 0.75885(14) 0.77369(13)
C1 C 0.81392(16) 0.79944(15) 0.74762(16)
C2 C 0.84301(17) 0.81329(16) 0.70277(16)
C3 C 0.8732(2) 0.77826(17) 0.6806(2)
H1 H 0.8755 0.7461 0.6940
C4 C 0.9003(2) 0.79047(17) 0.6384(2)
H2 H 0.9199 0.7662 0.6227
C5 C 0.89869(16) 0.83837(15) 0.61905(15)
C6 C 0.86835(16) 0.87261(15) 0.64155(15)
H3 H 0.8663 0.9049 0.6284
C7 C 0.84073(18) 0.86058(16) 0.68316(16)
H4 H 0.8203 0.8847 0.6981
C8 C 0.93050(16) 0.85165(16) 0.57439(16)
C9 C 1.0000 1.0000 0.4861(4)
H5 H 1.0000 1.0000 0.4558
O1D O 0.56230(12) 0.93648(13) 0.89375(11)
O2D O 0.56589(18) 0.96877(19) 0.81978(17)
N1D N 0.77369(13) 0.82805(13) 0.75885(14)
C1D C 0.74762(16) 0.81392(16) 0.79944(15)
C2D C 0.70277(16) 0.84301(17) 0.81329(16)
C3D C 0.6806(2) 0.8732(2) 0.77826(17)
H1D H 0.6940 0.8755 0.7461
C4D C 0.6384(2) 0.9003(2) 0.79047(17)
H2D H 0.6227 0.9199 0.7662
C5D C 0.61905(15) 0.89869(16) 0.83837(15)
C6D C 0.64155(15) 0.86835(16) 0.87261(15)
H3D H 0.6284 0.8663 0.9049
C7D C 0.68316(16) 0.84073(18) 0.86058(16)
H4D H 0.6981 0.8203 0.8847
C8D C 0.57439(16) 0.93050(16) 0.85165(16)
O1H O 0.89375(11) 0.56230(12) 0.93648(13)
O2H O 0.81978(17) 0.56589(18) 0.96877(19)
N1H N 0.75885(14) 0.77369(13) 0.82805(13)
C1H C 0.79944(15) 0.74762(16) 0.81392(16)
C2H C 0.81329(16) 0.70277(16) 0.84301(17)
C3H C 0.77826(17) 0.6806(2) 0.8732(2)
H1H H 0.7461 0.6940 0.8755
C4H C 0.79047(17) 0.6384(2) 0.9003(2)
H2H H 0.7662 0.6227 0.9199
C5H C 0.83837(15) 0.61905(15) 0.89869(16)
C6H C 0.87261(15) 0.64155(15) 0.86835(16)
H3H H 0.9049 0.6284 0.8663
C7H C 0.86058(16) 0.68316(16) 0.84073(18)
H4H H 0.8847 0.6981 0.8203
C8H C 0.85165(16) 0.57439(16) 0.93050(16)
O3A O 1.0000 1.04098(17) 0.5000
C9B C 1.0000 1.0000 0.5139(4)
H5B H 1.0000 1.0000 0.5442
Dy1A Dy 1.0000 1.126712(9) 0.5000
O1A O 1.06352(13) 1.10625(11) 0.56230(12)
O2A O 1.03123(19) 1.18022(17) 0.56589(18)
N1A N 1.17195(13) 1.24115(14) 0.77369(13)
C1A C 1.18608(16) 1.20056(15) 0.74762(16)
C2A C 1.15699(17) 1.18671(16) 0.70277(16)
C3A C 1.1268(2) 1.22174(17) 0.6806(2)
H1A H 1.1245 1.2539 0.6940
C4A C 1.0997(2) 1.20953(17) 0.6384(2)
H2A H 1.0801 1.2338 0.6227
C5A C 1.10131(16) 1.16163(15) 0.61905(15)
C6A C 1.13165(16) 1.12739(15) 0.64155(15)
H3A H 1.1337 1.0951 0.6284
C7A C 1.15927(18) 1.13942(16) 0.68316(16)
H4A H 1.1797 1.1153 0.6981
C8A C 1.06950(16) 1.14835(16) 0.57439(16)
O1F O 1.43770(12) 1.06352(13) 0.89375(11)
O2F O 1.43411(18) 1.03123(19) 0.81978(17)
N1F N 1.22631(13) 1.17195(13) 0.75885(14)
C1F C 1.25238(16) 1.18608(16) 0.79944(15)
C2F C 1.29723(16) 1.15699(17) 0.81329(16)
C3F C 1.3194(2) 1.1268(2) 0.77826(17)
H1F H 1.3060 1.1245 0.7461
C4F C 1.3616(2) 1.0997(2) 0.79047(17)
H2F H 1.3773 1.0801 0.7662
C5F C 1.38095(15) 1.10131(16) 0.83837(15)
C6F C 1.35845(15) 1.13165(16) 0.87261(15)
H3F H 1.3716 1.1337 0.9049
C7F C 1.31684(16) 1.15927(18) 0.86058(16)
H4F H 1.3019 1.1797 0.8847
C8F C 1.42561(16) 1.06950(16) 0.85165(16)
O1K O 1.10625(11) 1.43770(12) 0.93648(13)
O2K O 1.18022(17) 1.43411(18) 0.96877(19)
N1K N 1.24115(14) 1.22631(13) 0.82805(13)
C1K C 1.20056(15) 1.25238(16) 0.81392(16)
C2K C 1.18671(16) 1.29723(16) 0.84301(17)
C3K C 1.22174(17) 1.3194(2) 0.8732(2)
H1K H 1.2539 1.3060 0.8755
C4K C 1.20953(17) 1.3616(2) 0.9003(2)
H2K H 1.2338 1.3773 0.9199
C5K C 1.16163(15) 1.38095(15) 0.89869(16)
C6K C 1.12739(15) 1.35845(15) 0.86835(16)
H3K H 1.0951 1.3716 0.8663
C7K C 1.13942(16) 1.31684(16) 0.84073(18)
H4K H 1.1153 1.3019 0.8203
C8K C 1.14835(16) 1.42561(16) 0.93050(16)
Dy1D Dy 0.5000 1.0000 0.873288(9)
O3D O 0.5000 1.0000 0.95902(17)
C9D C 0.4861(4) 1.0000 1.0000
H5D H 0.4558 1.0000 1.0000
O3E O 0.5000 1.0000 1.04098(17)
C9F C 0.5139(4) 1.0000 1.0000
H5F H 0.5442 1.0000 1.0000
Dy1E Dy 0.5000 1.0000 1.126712(9)
O1E O 0.56230(12) 1.06352(13) 1.10625(11)
O2E O 0.56589(18) 1.03123(19) 1.18022(17)
N1E N 0.77369(13) 1.17195(13) 1.24115(14)
C1E C 0.74762(16) 1.18608(16) 1.20056(15)
C2E C 0.70277(16) 1.15699(17) 1.18671(16)
C3E C 0.6806(2) 1.1268(2) 1.22174(17)
H1E H 0.6940 1.1245 1.2539
C4E C 0.6384(2) 1.0997(2) 1.20953(17)
H2E H 0.6227 1.0801 1.2338
C5E C 0.61905(15) 1.10131(16) 1.16163(15)
C6E C 0.64155(15) 1.13165(16) 1.12739(15)
H3E H 0.6284 1.1337 1.0951
C7E C 0.68316(16) 1.15927(18) 1.13942(16)
H4E H 0.6981 1.1797 1.1153
C8E C 0.57439(16) 1.06950(16) 1.14835(16)
O1J O 0.89375(11) 1.43770(12) 1.06352(13)
O2J O 0.81978(17) 1.43411(18) 1.03123(19)
N1J N 0.75885(14) 1.22631(13) 1.17195(13)
C1J C 0.79944(15) 1.25238(16) 1.18608(16)
C2J C 0.81329(16) 1.29723(16) 1.15699(17)
C3J C 0.77826(17) 1.3194(2) 1.1268(2)
H1J H 0.7461 1.3060 1.1245
C4J C 0.79047(17) 1.3616(2) 1.0997(2)
H2J H 0.7662 1.3773 1.0801
C5J C 0.83837(15) 1.38095(15) 1.10131(16)
C6J C 0.87261(15) 1.35845(15) 1.13165(16)
H3J H 0.9049 1.3716 1.1337
C7J C 0.86058(16) 1.31684(16) 1.15927(18)
H4J H 0.8847 1.3019 1.1797
C8J C 0.85165(16) 1.42561(16) 1.06950(16)
O1C O 0.93648(13) 1.10625(11) 1.43770(12)
O2C O 0.96877(19) 1.18022(17) 1.43411(18)
N1C N 0.82805(13) 1.24115(14) 1.22631(13)
C1C C 0.81392(16) 1.20056(15) 1.25238(16)
C2C C 0.84301(17) 1.18671(16) 1.29723(16)
C3C C 0.8732(2) 1.22174(17) 1.3194(2)
H1C H 0.8755 1.2539 1.3060
C4C C 0.9003(2) 1.20953(17) 1.3616(2)
H2C H 0.9199 1.2338 1.3773
C5C C 0.89869(16) 1.16163(15) 1.38095(15)
C6C C 0.86835(16) 1.12739(15) 1.35845(15)
H3C H 0.8663 1.0951 1.3716
C7C C 0.84073(18) 1.13942(16) 1.31684(16)
H4C H 0.8203 1.1153 1.3019
C8C C 0.93050(16) 1.14835(16) 1.42561(16)
Dy1D_2 Dy 1.5000 1.0000 0.873288(9)
O3D_2 O 1.5000 1.0000 0.95902(17)
C9F_2 C 1.5139(4) 1.0000 1.0000
H5F_2 H 1.5442 1.0000 1.0000
O3E_2 O 1.5000 1.0000 1.04098(17)
C9D_2 C 1.4861(4) 1.0000 1.0000
H5D_2 H 1.4558 1.0000 1.0000
Dy1E_2 Dy 1.5000 1.0000 1.126712(9)
O1G O 1.43770(12) 0.93648(13) 1.10625(11)
O2G O 1.43411(18) 0.96877(19) 1.18022(17)
N1G N 1.22631(13) 0.82805(13) 1.24115(14)
C1G C 1.25238(16) 0.81392(16) 1.20056(15)
C2G C 1.29723(16) 0.84301(17) 1.18671(16)
C3G C 1.3194(2) 0.8732(2) 1.22174(17)
H1G H 1.3060 0.8755 1.2539
C4G C 1.3616(2) 0.9003(2) 1.20953(17)
H2G H 1.3773 0.9199 1.2338
C5G C 1.38095(15) 0.89869(16) 1.16163(15)
C6G C 1.35845(15) 0.86835(16) 1.12739(15)
H3G H 1.3716 0.8663 1.0951
C7G C 1.31684(16) 0.84073(18) 1.13942(16)
H4G H 1.3019 0.8203 1.1153
C8G C 1.42561(16) 0.93050(16) 1.14835(16)
O1I O 1.10625(11) 0.56230(12) 1.06352(13)
O2I O 1.18022(17) 0.56589(18) 1.03123(19)
N1I N 1.24115(14) 0.77369(13) 1.17195(13)
C1I C 1.20056(15) 0.74762(16) 1.18608(16)
C2I C 1.18671(16) 0.70277(16) 1.15699(17)
C3I C 1.22174(17) 0.6806(2) 1.1268(2)
H1I H 1.2539 0.6940 1.1245
C4I C 1.20953(17) 0.6384(2) 1.0997(2)
H2I H 1.2338 0.6227 1.0801
C5I C 1.16163(15) 0.61905(15) 1.10131(16)
C6I C 1.12739(15) 0.64155(15) 1.13165(16)
H3I H 1.0951 0.6284 1.1337
C7I C 1.13942(16) 0.68316(16) 1.15927(18)
H4I H 1.1153 0.6981 1.1797
C8I C 1.14835(16) 0.57439(16) 1.06950(16)
O1B O 1.06352(13) 0.89375(11) 1.43770(12)
O2B O 1.03123(19) 0.81978(17) 1.43411(18)
N1B N 1.17195(13) 0.75885(14) 1.22631(13)
C1B C 1.18608(16) 0.79944(15) 1.25238(16)
C2B C 1.15699(17) 0.81329(16) 1.29723(16)
C3B C 1.1268(2) 0.77826(17) 1.3194(2)
H1B H 1.1245 0.7461 1.3060
C4B C 1.0997(2) 0.79047(17) 1.3616(2)
H2B H 1.0801 0.7662 1.3773
C5B C 1.10131(16) 0.83837(15) 1.38095(15)
C6B C 1.13165(16) 0.87261(15) 1.35845(15)
H3B H 1.1337 0.9049 1.3716
C7B C 1.15927(18) 0.86058(16) 1.31684(16)
H4B H 1.1797 0.8847 1.3019
C8B C 1.06950(16) 0.85165(16) 1.42561(16)
O1X O 1.06352(13) 1.10625(11) 0.43770(12)
O2X O 1.03123(19) 1.18022(17) 0.43411(18)
N1X N 1.17195(13) 1.24115(14) 0.22631(13)
C1X C 1.18608(16) 1.20056(15) 0.25238(16)
C2X C 1.15699(17) 1.18671(16) 0.29723(16)
C3X C 1.1268(2) 1.22174(17) 0.3194(2)
H1X H 1.1245 1.2539 0.3060
C4X C 1.0997(2) 1.20953(17) 0.3616(2)
H2X H 1.0801 1.2338 0.3773
C5X C 1.10131(16) 1.16163(15) 0.38095(15)
C6X C 1.13165(16) 1.12739(15) 0.35845(15)
H3X H 1.1337 1.0951 0.3716
C7X C 1.15927(18) 1.13942(16) 0.31684(16)
H4X H 1.1797 1.1153 0.3019
C8X C 1.06950(16) 1.14835(16) 0.42561(16)
O1BA O 1.43770(12) 1.06352(13) 0.10625(11)
O2BA O 1.43411(18) 1.03123(19) 0.18022(17)
N1BA N 1.22631(13) 1.17195(13) 0.24115(14)
C1BA C 1.25238(16) 1.18608(16) 0.20056(15)
C2BA C 1.29723(16) 1.15699(17) 0.18671(16)
C3BA C 1.3194(2) 1.1268(2) 0.22174(17)
H1BA H 1.3060 1.1245 0.2539
C4BA C 1.3616(2) 1.0997(2) 0.20953(17)
H2BA H 1.3773 1.0801 0.2338
C5BA C 1.38095(15) 1.10131(16) 0.16163(15)
C6BA C 1.35845(15) 1.13165(16) 0.12739(15)
H3BA H 1.3716 1.1337 0.0951
C7BA C 1.31684(16) 1.15927(18) 0.13942(16)
H4BA H 1.3019 1.1797 0.1153
C8BA C 1.42561(16) 1.06950(16) 0.14835(16)
O1FA O 1.10625(11) 1.43770(12) 0.06352(13)
O2FA O 1.18022(17) 1.43411(18) 0.03123(19)
N1FA N 1.24115(14) 1.22631(13) 0.17195(13)
C1FA C 1.20056(15) 1.25238(16) 0.18608(16)
C2FA C 1.18671(16) 1.29723(16) 0.15699(17)
C3FA C 1.22174(17) 1.3194(2) 0.1268(2)
H1FA H 1.2539 1.3060 0.1245
C4FA C 1.20953(17) 1.3616(2) 0.0997(2)
H2FA H 1.2338 1.3773 0.0801
C5FA C 1.16163(15) 1.38095(15) 0.10131(16)
C6FA C 1.12739(15) 1.35845(15) 0.13165(16)
H3FA H 1.0951 1.3716 0.1337
C7FA C 1.13942(16) 1.31684(16) 0.15927(18)
H4FA H 1.1153 1.3019 0.1797
C8FA C 1.14835(16) 1.42561(16) 0.06950(16)
O1Y O 0.93648(13) 0.89375(11) 0.43770(12)
O2Y O 0.96877(19) 0.81978(17) 0.43411(18)
N1Y N 0.82805(13) 0.75885(14) 0.22631(13)
C1Y C 0.81392(16) 0.79944(15) 0.25238(16)
C2Y C 0.84301(17) 0.81329(16) 0.29723(16)
C3Y C 0.8732(2) 0.77826(17) 0.3194(2)
H1Y H 0.8755 0.7461 0.3060
C4Y C 0.9003(2) 0.79047(17) 0.3616(2)
H2Y H 0.9199 0.7662 0.3773
C5Y C 0.89869(16) 0.83837(15) 0.38095(15)
C6Y C 0.86835(16) 0.87261(15) 0.35845(15)
H3Y H 0.8663 0.9049 0.3716
C7Y C 0.84073(18) 0.86058(16) 0.31684(16)
H4Y H 0.8203 0.8847 0.3019
C8Y C 0.93050(16) 0.85165(16) 0.42561(16)
O1DA O 0.56230(12) 0.93648(13) 0.10625(11)
O2DA O 0.56589(18) 0.96877(19) 0.18022(17)
N1DA N 0.77369(13) 0.82805(13) 0.24115(14)
C1DA C 0.74762(16) 0.81392(16) 0.20056(15)
C2DA C 0.70277(16) 0.84301(17) 0.18671(16)
C3DA C 0.6806(2) 0.8732(2) 0.22174(17)
H1DA H 0.6940 0.8755 0.2539
C4DA C 0.6384(2) 0.9003(2) 0.20953(17)
H2DA H 0.6227 0.9199 0.2338
C5DA C 0.61905(15) 0.89869(16) 0.16163(15)
C6DA C 0.64155(15) 0.86835(16) 0.12739(15)
H3DA H 0.6284 0.8663 0.0951
C7DA C 0.68316(16) 0.84073(18) 0.13942(16)
H4DA H 0.6981 0.8203 0.1153
C8DA C 0.57439(16) 0.93050(16) 0.14835(16)
O1IA O 0.89375(11) 0.56230(12) 0.06352(13)
O2IA O 0.81978(17) 0.56589(18) 0.03123(19)
N1IA N 0.75885(14) 0.77369(13) 0.17195(13)
C1IA C 0.79944(15) 0.74762(16) 0.18608(16)
C2IA C 0.81329(16) 0.70277(16) 0.15699(17)
C3IA C 0.77826(17) 0.6806(2) 0.1268(2)
H1IA H 0.7461 0.6940 0.1245
C4IA C 0.79047(17) 0.6384(2) 0.0997(2)
H2IA H 0.7662 0.6227 0.0801
C5IA C 0.83837(15) 0.61905(15) 0.10131(16)
C6IA C 0.87261(15) 0.64155(15) 0.13165(16)
H3IA H 0.9049 0.6284 0.1337
C7IA C 0.86058(16) 0.68316(16) 0.15927(18)
H4IA H 0.8847 0.6981 0.1797
C8IA C 0.85165(16) 0.57439(16) 0.06950(16)
O1Y_2 O 0.93648(13) 0.89375(11) 1.43770(12)
O2Y_2 O 0.96877(19) 0.81978(17) 1.43411(18)
N1Y_2 N 0.82805(13) 0.75885(14) 1.22631(13)
C1Y_2 C 0.81392(16) 0.79944(15) 1.25238(16)
C2Y_2 C 0.84301(17) 0.81329(16) 1.29723(16)
C3Y_2 C 0.8732(2) 0.77826(17) 1.3194(2)
H1Y_2 H 0.8755 0.7461 1.3060
C4Y_2 C 0.9003(2) 0.79047(17) 1.3616(2)
H2Y_2 H 0.9199 0.7662 1.3773
C5Y_2 C 0.89869(16) 0.83837(15) 1.38095(15)
C6Y_2 C 0.86835(16) 0.87261(15) 1.35845(15)
H3Y_2 H 0.8663 0.9049 1.3716
C7Y_2 C 0.84073(18) 0.86058(16) 1.31684(16)
H4Y_2 H 0.8203 0.8847 1.3019
C8Y_2 C 0.93050(16) 0.85165(16) 1.42561(16)
O1DA_2 O 0.56230(12) 0.93648(13) 1.10625(11)
O2DA_2 O 0.56589(18) 0.96877(19) 1.18022(17)
N1DA_2 N 0.77369(13) 0.82805(13) 1.24115(14)
C1DA_2 C 0.74762(16) 0.81392(16) 1.20056(15)
C2DA_2 C 0.70277(16) 0.84301(17) 1.18671(16)
C3DA_2 C 0.6806(2) 0.8732(2) 1.22174(17)
H1DA_2 H 0.6940 0.8755 1.2539
C4DA_2 C 0.6384(2) 0.9003(2) 1.20953(17)
H2DA_2 H 0.6227 0.9199 1.2338
C5DA_2 C 0.61905(15) 0.89869(16) 1.16163(15)
C6DA_2 C 0.64155(15) 0.86835(16) 1.12739(15)
H3DA_2 H 0.6284 0.8663 1.0951
C7DA_2 C 0.68316(16) 0.84073(18) 1.13942(16)
H4DA_2 H 0.6981 0.8203 1.1153
C8DA_2 C 0.57439(16) 0.93050(16) 1.14835(16)
O1IA_2 O 0.89375(11) 0.56230(12) 1.06352(13)
O2IA_2 O 0.81978(17) 0.56589(18) 1.03123(19)
N1IA_2 N 0.75885(14) 0.77369(13) 1.17195(13)
C1IA_2 C 0.79944(15) 0.74762(16) 1.18608(16)
C2IA_2 C 0.81329(16) 0.70277(16) 1.15699(17)
C3IA_2 C 0.77826(17) 0.6806(2) 1.1268(2)
H1IA_2 H 0.7461 0.6940 1.1245
C4IA_2 C 0.79047(17) 0.6384(2) 1.0997(2)
H2IA_2 H 0.7662 0.6227 1.0801
C5IA_2 C 0.83837(15) 0.61905(15) 1.10131(16)
C6IA_2 C 0.87261(15) 0.64155(15) 1.13165(16)
H3IA_2 H 0.9049 0.6284 1.1337
C7IA_2 C 0.86058(16) 0.68316(16) 1.15927(18)
H4IA_2 H 0.8847 0.6981 1.1797
C8IA_2 C 0.85165(16) 0.57439(16) 1.06950(16)
O1Z O 0.93648(13) 1.10625(11) 0.56230(12)
O2Z O 0.96877(19) 1.18022(17) 0.56589(18)
N1Z N 0.82805(13) 1.24115(14) 0.77369(13)
C1Z C 0.81392(16) 1.20056(15) 0.74762(16)
C2Z C 0.84301(17) 1.18671(16) 0.70277(16)
C3Z C 0.8732(2) 1.22174(17) 0.6806(2)
H1Z H 0.8755 1.2539 0.6940
C4Z C 0.9003(2) 1.20953(17) 0.6384(2)
H2Z H 0.9199 1.2338 0.6227
C5Z C 0.89869(16) 1.16163(15) 0.61905(15)
C6Z C 0.86835(16) 1.12739(15) 0.64155(15)
H3Z H 0.8663 1.0951 0.6284
C7Z C 0.84073(18) 1.13942(16) 0.68316(16)
H4Z H 0.8203 1.1153 0.6981
C8Z C 0.93050(16) 1.14835(16) 0.57439(16)
O1EA O 0.56230(12) 1.06352(13) 0.89375(11)
O2EA O 0.56589(18) 1.03123(19) 0.81978(17)
N1EA N 0.77369(13) 1.17195(13) 0.75885(14)
C1EA C 0.74762(16) 1.18608(16) 0.79944(15)
C2EA C 0.70277(16) 1.15699(17) 0.81329(16)
C3EA C 0.6806(2) 1.1268(2) 0.77826(17)
H1EA H 0.6940 1.1245 0.7461
C4EA C 0.6384(2) 1.0997(2) 0.79047(17)
H2EA H 0.6227 1.0801 0.7662
C5EA C 0.61905(15) 1.10131(16) 0.83837(15)
C6EA C 0.64155(15) 1.13165(16) 0.87261(15)
H3EA H 0.6284 1.1337 0.9049
C7EA C 0.68316(16) 1.15927(18) 0.86058(16)
H4EA H 0.6981 1.1797 0.8847
C8EA C 0.57439(16) 1.06950(16) 0.85165(16)
O1GA O 0.89375(11) 1.43770(12) 0.93648(13)
O2GA O 0.81978(17) 1.43411(18) 0.96877(19)
N1GA N 0.75885(14) 1.22631(13) 0.82805(13)
C1GA C 0.79944(15) 1.25238(16) 0.81392(16)
C2GA C 0.81329(16) 1.29723(16) 0.84301(17)
C3GA C 0.77826(17) 1.3194(2) 0.8732(2)
H1GA H 0.7461 1.3060 0.8755
C4GA C 0.79047(17) 1.3616(2) 0.9003(2)
H2GA H 0.7662 1.3773 0.9199
C5GA C 0.83837(15) 1.38095(15) 0.89869(16)
C6GA C 0.87261(15) 1.35845(15) 0.86835(16)
H3GA H 0.9049 1.3716 0.8663
C7GA C 0.86058(16) 1.31684(16) 0.84073(18)
H4GA H 0.8847 1.3019 0.8203
C8GA C 0.85165(16) 1.42561(16) 0.93050(16)
Dy1_2 Dy 1.0000 0.873288(9) 1.5000
Dy1A_2 Dy 1.0000 1.126712(9) 1.5000
Dy1E_3 Dy 0.5000 1.0000 0.126712(9)
Dy1E_4 Dy 1.5000 1.0000 0.126712(9)
Dy1H Dy 0.873288(9) 0.5000 0.0000
Dy1H_2 Dy 0.873288(9) 0.5000 1.0000
Dy1H_3 Dy 0.873288(9) 1.5000 1.0000
Dy1I Dy 1.126712(9) 0.5000 1.0000
Dy1I_2 Dy 1.126712(9) 1.5000 0.0000
Dy1I_3 Dy 1.126712(9) 1.5000 1.0000
O1B_2 O 1.06352(13) 0.89375(11) 0.43770(12)
O1C_2 O 0.93648(13) 1.10625(11) 0.43770(12)
O1D_2 O 1.56230(12) 0.93648(13) 0.89375(11)
O1E_2 O 1.56230(12) 1.06352(13) 1.10625(11)
O1F_2 O 0.43770(12) 1.06352(13) 0.89375(11)
O1G_2 O 0.43770(12) 0.93648(13) 1.10625(11)
O1AA O 1.06352(13) 0.89375(11) 0.56230(12)
O1BA_2 O 0.43770(12) 1.06352(13) 1.10625(11)
O1BA_3 O 1.43770(12) 1.06352(13) 1.10625(11)
O1CA O 0.43770(12) 0.93648(13) 0.89375(11)
O1CA_2 O 1.43770(12) 0.93648(13) 0.89375(11)
O1DA_3 O 1.56230(12) 0.93648(13) 1.10625(11)
O1EA_2 O 1.56230(12) 1.06352(13) 0.89375(11)
O2B_2 O 1.03123(19) 0.81978(17) 0.43411(18)
O2C_2 O 0.96877(19) 1.18022(17) 0.43411(18)
O2D_2 O 1.56589(18) 0.96877(19) 0.81978(17)
O2E_2 O 1.56589(18) 1.03123(19) 1.18022(17)
O2F_2 O 0.43411(18) 1.03123(19) 0.81978(17)
O2G_2 O 0.43411(18) 0.96877(19) 1.18022(17)
O2AA O 1.03123(19) 0.81978(17) 0.56589(18)
O2BA_2 O 0.43411(18) 1.03123(19) 1.18022(17)
O2BA_3 O 1.43411(18) 1.03123(19) 1.18022(17)
O2CA O 0.43411(18) 0.96877(19) 0.81978(17)
O2CA_2 O 1.43411(18) 0.96877(19) 0.81978(17)
O2DA_3 O 1.56589(18) 0.96877(19) 1.18022(17)
O2EA_2 O 1.56589(18) 1.03123(19) 0.81978(17)
loop_
_geom_bond_atom_site_label_1
_geom_bond_atom_site_label_2
_geom_bond_site_symmetry_1
_geom_bond_site_symmetry_2
Dy1 O1 1_555 1_555
O1 C8 1_555 1_555
O2 Dy1 1_555 1_555
O3 Dy1 1_555 1_555
N1 C1 1_555 1_555
C1 C2 1_555 1_555
C2 C3 1_555 1_555
C3 H1 1_555 1_555
C4 C3 1_555 1_555
H2 C4 1_555 1_555
C5 C4 1_555 1_555
C6 C5 1_555 1_555
H3 C6 1_555 1_555
C7 C2 1_555 1_555
H4 C7 1_555 1_555
C8 O2 1_555 1_555
C9 O3 1_555 1_555
H5 C9 1_555 1_555
O1D C8D 1_555 1_555
O2D C8D 1_555 1_555
N1D C1 1_555 1_555
C1D N1D 1_555 1_555
C2D C1D 1_555 1_555
C3D C2D 1_555 1_555
H1D C3D 1_555 1_555
C4D C3D 1_555 1_555
H2D C4D 1_555 1_555
C5D C4D 1_555 1_555
C6D C5D 1_555 1_555
H3D C6D 1_555 1_555
C7D C2D 1_555 1_555
H4D C7D 1_555 1_555
C8D C5D 1_555 1_555
O1H C8H 1_555 1_555
O2H C8H 1_555 1_555
N1H C1D 1_555 1_555
C1H N1 1_555 1_555
C2H C1H 1_555 1_555
C3H C2H 1_555 1_555
H1H C3H 1_555 1_555
C4H C3H 1_555 1_555
H2H C4H 1_555 1_555
C5H C4H 1_555 1_555
C6H C5H 1_555 1_555
H3H C6H 1_555 1_555
C7H C2H 1_555 1_555
H4H C7H 1_555 1_555
C8H C5H 1_555 1_555
O3A C9 1_555 1_555
C9B O3 1_555 1_555
H5B C9B 1_555 1_555
Dy1A O3A 1_555 1_555
O1A Dy1A 1_555 1_555
O2A Dy1A 1_555 1_555
N1A C1A 1_555 1_555
C1A C2A 1_555 1_555
C2A C3A 1_555 1_555
C3A H1A 1_555 1_555
C4A C3A 1_555 1_555
H2A C4A 1_555 1_555
C5A C4A 1_555 1_555
C6A C5A 1_555 1_555
H3A C6A 1_555 1_555
C7A C2A 1_555 1_555
H4A C7A 1_555 1_555
C8A O1A 1_555 1_555
O1F C8F 1_555 1_555
O2F C8F 1_555 1_555
N1F C1A 1_555 1_555
C1F N1F 1_555 1_555
C2F C1F 1_555 1_555
C3F C2F 1_555 1_555
H1F C3F 1_555 1_555
C4F C3F 1_555 1_555
H2F C4F 1_555 1_555
C5F C4F 1_555 1_555
C6F C5F 1_555 1_555
H3F C6F 1_555 1_555
C7F C2F 1_555 1_555
H4F C7F 1_555 1_555
C8F C5F 1_555 1_555
O1K C8K 1_555 1_555
O2K C8K 1_555 1_555
N1K C1F 1_555 1_555
C1K N1A 1_555 1_555
C2K C1K 1_555 1_555
C3K C2K 1_555 1_555
H1K C3K 1_555 1_555
C4K C3K 1_555 1_555
H2K C4K 1_555 1_555
C5K C4K 1_555 1_555
C6K C5K 1_555 1_555
H3K C6K 1_555 1_555
C7K C2K 1_555 1_555
H4K C7K 1_555 1_555
C8K C5K 1_555 1_555
Dy1D O1D 1_555 1_555
O3D Dy1D 1_555 1_555
C9D O3D 1_555 1_555
H5D C9D 1_555 1_555
O3E C9D 1_555 1_555
C9F O3D 1_555 1_555
H5F C9F 1_555 1_555
Dy1E O3E 1_555 1_555
O1E Dy1E 1_555 1_555
O2E Dy1E 1_555 1_555
N1E C1E 1_555 1_555
C1E C2E 1_555 1_555
C2E C3E 1_555 1_555
C3E H1E 1_555 1_555
C4E C3E 1_555 1_555
H2E C4E 1_555 1_555
C5E C4E 1_555 1_555
C6E C5E 1_555 1_555
H3E C6E 1_555 1_555
C7E C2E 1_555 1_555
H4E C7E 1_555 1_555
C8E O1E 1_555 1_555
O1J C8J 1_555 1_555
O2J C8J 1_555 1_555
N1J C1E 1_555 1_555
C1J N1J 1_555 1_555
C2J C1J 1_555 1_555
C3J C2J 1_555 1_555
H1J C3J 1_555 1_555
C4J C3J 1_555 1_555
H2J C4J 1_555 1_555
C5J C4J 1_555 1_555
C6J C5J 1_555 1_555
H3J C6J 1_555 1_555
C7J C2J 1_555 1_555
H4J C7J 1_555 1_555
C8J C5J 1_555 1_555
O1C C8C 1_555 1_555
O2C C8C 1_555 1_555
N1C C1J 1_555 1_555
C1C N1E 1_555 1_555
C2C C1C 1_555 1_555
C3C C2C 1_555 1_555
H1C C3C 1_555 1_555
C4C C3C 1_555 1_555
H2C C4C 1_555 1_555
C5C C4C 1_555 1_555
C6C C5C 1_555 1_555
H3C C6C 1_555 1_555
C7C C2C 1_555 1_555
H4C C7C 1_555 1_555
C8C C5C 1_555 1_555
Dy1D_2 O1F 1_555 1_555
O3D_2 Dy1D_2 1_555 1_555
C9F_2 O3D_2 1_555 1_555
H5F_2 C9F_2 1_555 1_555
O3E_2 C9F_2 1_555 1_555
C9D_2 O3D_2 1_555 1_555
H5D_2 C9D_2 1_555 1_555
Dy1E_2 O3E_2 1_555 1_555
O1G Dy1E_2 1_555 1_555
O2G Dy1E_2 1_555 1_555
N1G C1G 1_555 1_555
C1G C2G 1_555 1_555
C2G C3G 1_555 1_555
C3G H1G 1_555 1_555
C4G C3G 1_555 1_555
H2G C4G 1_555 1_555
C5G C4G 1_555 1_555
C6G C5G 1_555 1_555
H3G C6G 1_555 1_555
C7G C2G 1_555 1_555
H4G C7G 1_555 1_555
C8G O1G 1_555 1_555
O1I C8I 1_555 1_555
O2I C8I 1_555 1_555
N1I C1G 1_555 1_555
C1I N1I 1_555 1_555
C2I C1I 1_555 1_555
C3I C2I 1_555 1_555
H1I C3I 1_555 1_555
C4I C3I 1_555 1_555
H2I C4I 1_555 1_555
C5I C4I 1_555 1_555
C6I C5I 1_555 1_555
H3I C6I 1_555 1_555
C7I C2I 1_555 1_555
H4I C7I 1_555 1_555
C8I C5I 1_555 1_555
O1B C8B 1_555 1_555
O2B C8B 1_555 1_555
N1B C1I 1_555 1_555
C1B N1G 1_555 1_555
C2B C1B 1_555 1_555
C3B C2B 1_555 1_555
H1B C3B 1_555 1_555
C4B C3B 1_555 1_555
H2B C4B 1_555 1_555
C5B C4B 1_555 1_555
C6B C5B 1_555 1_555
H3B C6B 1_555 1_555
C7B C2B 1_555 1_555
H4B C7B 1_555 1_555
C8B C5B 1_555 1_555
O1X Dy1A 1_555 1_555
O2X Dy1A 1_555 1_555
N1X C1X 1_555 1_555
C1X C2X 1_555 1_555
C2X C3X 1_555 1_555
C3X H1X 1_555 1_555
C4X C3X 1_555 1_555
H2X C4X 1_555 1_555
C5X C4X 1_555 1_555
C6X C5X 1_555 1_555
H3X C6X 1_555 1_555
C7X C2X 1_555 1_555
H4X C7X 1_555 1_555
C8X O1X 1_555 1_555
O1BA C8BA 1_555 1_555
O2BA C8BA 1_555 1_555
N1BA C1X 1_555 1_555
C1BA N1BA 1_555 1_555
C2BA C1BA 1_555 1_555
C3BA C2BA 1_555 1_555
H1BA C3BA 1_555 1_555
C4BA C3BA 1_555 1_555
H2BA C4BA 1_555 1_555
C5BA C4BA 1_555 1_555
C6BA C5BA 1_555 1_555
H3BA C6BA 1_555 1_555
C7BA C2BA 1_555 1_555
H4BA C7BA 1_555 1_555
C8BA C5BA 1_555 1_555
O1FA C8FA 1_555 1_555
O2FA C8FA 1_555 1_555
N1FA C1BA 1_555 1_555
C1FA N1X 1_555 1_555
C2FA C1FA 1_555 1_555
C3FA C2FA 1_555 1_555
H1FA C3FA 1_555 1_555
C4FA C3FA 1_555 1_555
H2FA C4FA 1_555 1_555
C5FA C4FA 1_555 1_555
C6FA C5FA 1_555 1_555
H3FA C6FA 1_555 1_555
C7FA C2FA 1_555 1_555
H4FA C7FA 1_555 1_555
C8FA C5FA 1_555 1_555
O1Y Dy1 1_555 1_555
O2Y Dy1 1_555 1_555
N1Y C1Y 1_555 1_555
C1Y C2Y 1_555 1_555
C2Y C3Y 1_555 1_555
C3Y H1Y 1_555 1_555
C4Y C3Y 1_555 1_555
H2Y C4Y 1_555 1_555
C5Y C4Y 1_555 1_555
C6Y C5Y 1_555 1_555
H3Y C6Y 1_555 1_555
C7Y C2Y 1_555 1_555
H4Y C7Y 1_555 1_555
C8Y O1Y 1_555 1_555
O1DA C8DA 1_555 1_555
O2DA C8DA 1_555 1_555
N1DA C1Y 1_555 1_555
C1DA N1DA 1_555 1_555
C2DA C1DA 1_555 1_555
C3DA C2DA 1_555 1_555
H1DA C3DA 1_555 1_555
C4DA C3DA 1_555 1_555
H2DA C4DA 1_555 1_555
C5DA C4DA 1_555 1_555
C6DA C5DA 1_555 1_555
H3DA C6DA 1_555 1_555
C7DA C2DA 1_555 1_555
H4DA C7DA 1_555 1_555
C8DA C5DA 1_555 1_555
O1IA C8IA 1_555 1_555
O2IA C8IA 1_555 1_555
N1IA C1DA 1_555 1_555
C1IA N1Y 1_555 1_555
C2IA C1IA 1_555 1_555
C3IA C2IA 1_555 1_555
H1IA C3IA 1_555 1_555
C4IA C3IA 1_555 1_555
H2IA C4IA 1_555 1_555
C5IA C4IA 1_555 1_555
C6IA C5IA 1_555 1_555
H3IA C6IA 1_555 1_555
C7IA C2IA 1_555 1_555
H4IA C7IA 1_555 1_555
C8IA C5IA 1_555 1_555
O1Y_2 C8Y_2 1_555 1_555
O2Y_2 C8Y_2 1_555 1_555
N1Y_2 C1Y_2 1_555 1_555
C1Y_2 C2Y_2 1_555 1_555
C2Y_2 C3Y_2 1_555 1_555
C3Y_2 H1Y_2 1_555 1_555
C4Y_2 C3Y_2 1_555 1_555
H2Y_2 C4Y_2 1_555 1_555
C5Y_2 C4Y_2 1_555 1_555
C6Y_2 C5Y_2 1_555 1_555
H3Y_2 C6Y_2 1_555 1_555
C7Y_2 C2Y_2 1_555 1_555
H4Y_2 C7Y_2 1_555 1_555
C8Y_2 C5Y_2 1_555 1_555
O1DA_2 Dy1E 1_555 1_555
O2DA_2 Dy1E 1_555 1_555
N1DA_2 C1Y_2 1_555 1_555
C1DA_2 N1DA_2 1_555 1_555
C2DA_2 C1DA_2 1_555 1_555
C3DA_2 C2DA_2 1_555 1_555
H1DA_2 C3DA_2 1_555 1_555
C4DA_2 C3DA_2 1_555 1_555
H2DA_2 C4DA_2 1_555 1_555
C5DA_2 C4DA_2 1_555 1_555
C6DA_2 C5DA_2 1_555 1_555
H3DA_2 C6DA_2 1_555 1_555
C7DA_2 C2DA_2 1_555 1_555
H4DA_2 C7DA_2 1_555 1_555
C8DA_2 O1DA_2 1_555 1_555
O1IA_2 C8IA_2 1_555 1_555
O2IA_2 C8IA_2 1_555 1_555
N1IA_2 C1DA_2 1_555 1_555
C1IA_2 N1Y_2 1_555 1_555
C2IA_2 C1IA_2 1_555 1_555
C3IA_2 C2IA_2 1_555 1_555
H1IA_2 C3IA_2 1_555 1_555
C4IA_2 C3IA_2 1_555 1_555
H2IA_2 C4IA_2 1_555 1_555
C5IA_2 C4IA_2 1_555 1_555
C6IA_2 C5IA_2 1_555 1_555
H3IA_2 C6IA_2 1_555 1_555
C7IA_2 C2IA_2 1_555 1_555
H4IA_2 C7IA_2 1_555 1_555
C8IA_2 C5IA_2 1_555 1_555
O1Z Dy1A 1_555 1_555
O2Z Dy1A 1_555 1_555
N1Z C1Z 1_555 1_555
C1Z C2Z 1_555 1_555
C2Z C3Z 1_555 1_555
C3Z H1Z 1_555 1_555
C4Z C3Z 1_555 1_555
H2Z C4Z 1_555 1_555
C5Z C4Z 1_555 1_555
C6Z C5Z 1_555 1_555
H3Z C6Z 1_555 1_555
C7Z C2Z 1_555 1_555
H4Z C7Z 1_555 1_555
C8Z O1Z 1_555 1_555
O1EA Dy1D 1_555 1_555
O2EA Dy1D 1_555 1_555
N1EA C1Z 1_555 1_555
C1EA N1EA 1_555 1_555
C2EA C1EA 1_555 1_555
C3EA C2EA 1_555 1_555
H1EA C3EA 1_555 1_555
C4EA C3EA 1_555 1_555
H2EA C4EA 1_555 1_555
C5EA C4EA 1_555 1_555
C6EA C5EA 1_555 1_555
H3EA C6EA 1_555 1_555
C7EA C2EA 1_555 1_555
H4EA C7EA 1_555 1_555
C8EA O1EA 1_555 1_555
O1GA C8GA 1_555 1_555
O2GA C8GA 1_555 1_555
N1GA C1EA 1_555 1_555
C1GA N1Z 1_555 1_555
C2GA C1GA 1_555 1_555
C3GA C2GA 1_555 1_555
H1GA C3GA 1_555 1_555
C4GA C3GA 1_555 1_555
H2GA C4GA 1_555 1_555
C5GA C4GA 1_555 1_555
C6GA C5GA 1_555 1_555
H3GA C6GA 1_555 1_555
C7GA C2GA 1_555 1_555
H4GA C7GA 1_555 1_555
C8GA C5GA 1_555 1_555
Dy1_2 O1B 1_555 1_555
Dy1A_2 O1C 1_555 1_555
Dy1E_3 O1DA 1_555 1_555
Dy1E_4 O1BA 1_555 1_555
Dy1H O1IA 1_555 1_555
Dy1H_2 O1H 1_555 1_555
Dy1H_3 O1J 1_555 1_555
Dy1I O1I 1_555 1_555
Dy1I_2 O1FA 1_555 1_555
Dy1I_3 O1K 1_555 1_555
O1B_2 Dy1 1_555 1_555
O1C_2 Dy1A 1_555 1_555
O1D_2 Dy1D_2 1_555 1_555
O1E_2 Dy1E_2 1_555 1_555
O1F_2 Dy1D 1_555 1_555
O1G_2 Dy1E 1_555 1_555
O1AA Dy1 1_555 1_555
O1BA_2 Dy1E 1_555 1_555
O1BA_3 Dy1E_2 1_555 1_555
O1CA Dy1D 1_555 1_555
O1CA_2 Dy1D_2 1_555 1_555
O1DA_3 Dy1E_2 1_555 1_555
O1EA_2 Dy1D_2 1_555 1_555
O2B_2 Dy1 1_555 1_555
O2C_2 Dy1A 1_555 1_555
O2D_2 Dy1D_2 1_555 1_555
O2E_2 Dy1E_2 1_555 1_555
O2F_2 Dy1D 1_555 1_555
O2G_2 Dy1E 1_555 1_555
O2AA Dy1 1_555 1_555
O2BA_2 Dy1E 1_555 1_555
O2BA_3 Dy1E_2 1_555 1_555
O2CA Dy1D 1_555 1_555
O2CA_2 Dy1D_2 1_555 1_555
O2DA_3 Dy1E_2 1_555 1_555
O2EA_2 Dy1D_2 1_555 1_555
C5 C8 1_555 1_555
C6 C7 1_555 1_555
C9 C9B 1_555 1_555
O2D Dy1D 1_555 1_555
C6D C7D 1_555 1_555
O2H Dy1H_2 1_555 1_555
N1H C1H 1_555 1_555
C6H C7H 1_555 1_555
O3A C9B 1_555 1_555
O2A C8A 1_555 1_555
C5A C8A 1_555 1_555
C6A C7A 1_555 1_555
O2F Dy1D_2 1_555 1_555
C6F C7F 1_555 1_555
O2K Dy1I_3 1_555 1_555
N1K C1K 1_555 1_555
C6K C7K 1_555 1_555
C9D C9F 1_555 1_555
O3E C9F 1_555 1_555
O2E C8E 1_555 1_555
C5E C8E 1_555 1_555
C6E C7E 1_555 1_555
O2J Dy1H_3 1_555 1_555
C6J C7J 1_555 1_555
O2C Dy1A_2 1_555 1_555
N1C C1C 1_555 1_555
C6C C7C 1_555 1_555
C9F_2 C9D_2 1_555 1_555
O3E_2 C9D_2 1_555 1_555
O2G C8G 1_555 1_555
C5G C8G 1_555 1_555
C6G C7G 1_555 1_555
O2I Dy1I 1_555 1_555
C6I C7I 1_555 1_555
O2B Dy1_2 1_555 1_555
N1B C1B 1_555 1_555
C6B C7B 1_555 1_555
O2X C8X 1_555 1_555
C5X C8X 1_555 1_555
C6X C7X 1_555 1_555
O2BA Dy1E_4 1_555 1_555
C6BA C7BA 1_555 1_555
O2FA Dy1I_2 1_555 1_555
N1FA C1FA 1_555 1_555
C6FA C7FA 1_555 1_555
O2Y C8Y 1_555 1_555
C5Y C8Y 1_555 1_555
C6Y C7Y 1_555 1_555
O2DA Dy1E_3 1_555 1_555
C6DA C7DA 1_555 1_555
O2IA Dy1H 1_555 1_555
N1IA C1IA 1_555 1_555
C6IA C7IA 1_555 1_555
O1Y_2 Dy1_2 1_555 1_555
O2Y_2 Dy1_2 1_555 1_555
C6Y_2 C7Y_2 1_555 1_555
O2DA_2 C8DA_2 1_555 1_555
C5DA_2 C8DA_2 1_555 1_555
C6DA_2 C7DA_2 1_555 1_555
O1IA_2 Dy1H_2 1_555 1_555
O2IA_2 Dy1H_2 1_555 1_555
N1IA_2 C1IA_2 1_555 1_555
C6IA_2 C7IA_2 1_555 1_555
O2Z C8Z 1_555 1_555
C5Z C8Z 1_555 1_555
C6Z C7Z 1_555 1_555
O2EA C8EA 1_555 1_555
C5EA C8EA 1_555 1_555
C6EA C7EA 1_555 1_555
O1GA Dy1H_3 1_555 1_555
O2GA Dy1H_3 1_555 1_555
N1GA C1GA 1_555 1_555
C6GA C7GA 1_555 1_555

#END
