
#######################################################################
#
#                 Cambridge Crystallographic Data Centre
#                                CCDC 
#
#######################################################################
#
# If this CIF has been generated from an entry in the Cambridge 
# Structural Database, then it will include bibliographic, chemical, 
# crystal, experimental, refinement or atomic coordinate data resulting 
# from the CCDC's data processing and validation procedures.
#
#######################################################################

data_ASIRAX
_chemical_formula_moiety         'C222 H126 Dy16 O78'
_symmetry_cell_setting           cubic
_symmetry_space_group_name_H-M   'I m -3'
_symmetry_Int_Tables_number      204
_space_group_name_Hall           '-I 2 2 3'
loop_
_symmetry_equiv_pos_site_id
_symmetry_equiv_pos_as_xyz
1 x,y,z
2 -x,-y,z
3 -x,y,-z
4 x,-y,-z
5 z,x,y
6 z,-x,-y
7 -z,-x,y
8 -z,x,-y
9 y,z,x
10 -y,z,-x
11 y,-z,-x
12 -y,-z,x
13 1/2+x,1/2+y,1/2+z
14 1/2-x,1/2-y,1/2+z
15 1/2-x,1/2+y,1/2-z
16 1/2+x,1/2-y,1/2-z
17 1/2+z,1/2+x,1/2+y
18 1/2+z,1/2-x,1/2-y
19 1/2-z,1/2-x,1/2+y
20 1/2-z,1/2+x,1/2-y
21 1/2+y,1/2+z,1/2+x
22 1/2-y,1/2+z,1/2-x
23 1/2+y,1/2-z,1/2-x
24 1/2-y,1/2-z,1/2+x
25 -x,-y,-z
26 x,y,-z
27 x,-y,z
28 -x,y,z
29 -z,-x,-y
30 -z,x,y
31 z,x,-y
32 z,-x,y
33 -y,-z,-x
34 y,-z,x
35 -y,z,x
36 y,z,-x
37 1/2-x,1/2-y,1/2-z
38 1/2+x,1/2+y,1/2-z
39 1/2+x,1/2-y,1/2+z
40 1/2-x,1/2+y,1/2+z
41 1/2-z,1/2-x,1/2-y
42 1/2-z,1/2+x,1/2+y
43 1/2+z,1/2+x,1/2-y
44 1/2+z,1/2-x,1/2+y
45 1/2-y,1/2-z,1/2-x
46 1/2+y,1/2-z,1/2+x
47 1/2-y,1/2+z,1/2+x
48 1/2+y,1/2+z,1/2-x
_cell_length_a                   26.97190(10)
_cell_length_b                   26.97190(10)
_cell_length_c                   26.97190(10)
_cell_angle_alpha                90
_cell_angle_beta                 90
_cell_angle_gamma                90
_cell_volume                     19621.6
loop_
_atom_site_label
_atom_site_type_symbol
_atom_site_fract_x
_atom_site_fract_y
_atom_site_fract_z
Dy1 Dy 0.0000 0.5000 0.374373(19)
O1 O 0.06208(17) 0.43886(19) 0.39445(15)
O2 O 0.0643(3) 0.4678(3) 0.3198(3)
O3 O 0.0000 0.5000 0.4597(3)
C1 C 0.2756(3) 0.3302(3) 0.2607(3)
H1 H 0.2664 0.3573 0.2415
C2 C 0.2477(3) 0.3174(2) 0.3022(2)
C3 C 0.2016(3) 0.3450(3) 0.3147(3)
C4 C 0.1876(2) 0.3519(3) 0.3645(2)
H2 H 0.2069 0.3382 0.3896
C5 C 0.1464(2) 0.3783(3) 0.3764(2)
H3 H 0.1374 0.3821 0.4095
C6 C 0.1177(2) 0.3997(3) 0.3395(2)
C7 C 0.1305(3) 0.3925(3) 0.2914(3)
H4 H 0.1108 0.4060 0.2665
C8 C 0.1720(3) 0.3656(3) 0.2786(3)
H5 H 0.1801 0.3613 0.2454
C9 C 0.0736(2) 0.4319(2) 0.3534(2)
C10 C -0.0124(5) 0.5000 0.5000
H6 H -0.0424 0.5000 0.5000
O1D O 0.39445(15) 0.06208(17) 0.43886(19)
O2D O 0.3198(3) 0.0643(3) 0.4678(3)
C1D C 0.2607(3) 0.2756(3) 0.3302(3)
H1D H 0.2415 0.2664 0.3573
C2D C 0.3022(2) 0.2477(3) 0.3174(2)
C3D C 0.3147(3) 0.2016(3) 0.3450(3)
C4D C 0.3645(2) 0.1876(2) 0.3519(3)
H2D H 0.3896 0.2069 0.3382
C5D C 0.3764(2) 0.1464(2) 0.3783(3)
H3D H 0.4095 0.1374 0.3821
C6D C 0.3395(2) 0.1177(2) 0.3997(3)
C7D C 0.2914(3) 0.1305(3) 0.3925(3)
H4D H 0.2665 0.1108 0.4060
C8D C 0.2786(3) 0.1720(3) 0.3656(3)
H5D H 0.2454 0.1801 0.3613
C9D C 0.3534(2) 0.0736(2) 0.4319(2)
O1H O 0.43886(19) 0.39445(15) 0.06208(17)
O2H O 0.4678(3) 0.3198(3) 0.0643(3)
C1H C 0.3302(3) 0.2607(3) 0.2756(3)
H1H H 0.3573 0.2415 0.2664
C2H C 0.3174(2) 0.3022(2) 0.2477(3)
C3H C 0.3450(3) 0.3147(3) 0.2016(3)
C4H C 0.3519(3) 0.3645(2) 0.1876(2)
H2H H 0.3382 0.3896 0.2069
C5H C 0.3783(3) 0.3764(2) 0.1464(2)
H3H H 0.3821 0.4095 0.1374
C6H C 0.3997(3) 0.3395(2) 0.1177(2)
C7H C 0.3925(3) 0.2914(3) 0.1305(3)
H4H H 0.4060 0.2665 0.1108
C8H C 0.3656(3) 0.2786(3) 0.1720(3)
H5H H 0.3613 0.2454 0.1801
C9H C 0.4319(2) 0.3534(2) 0.0736(2)
C10A C 0.0124(5) 0.5000 0.5000
H6A H 0.0424 0.5000 0.5000
O3B O 0.0000 0.5000 0.5403(3)
Dy1B Dy 0.0000 0.5000 0.625627(19)
O1C O 0.06208(17) 0.56114(19) 0.60555(15)
O2C O 0.0643(3) 0.5322(3) 0.6802(3)
C1C C 0.2756(3) 0.6698(3) 0.7393(3)
H1C H 0.2664 0.6427 0.7585
C2C C 0.2477(3) 0.6826(2) 0.6978(2)
C3C C 0.2016(3) 0.6550(3) 0.6853(3)
C4C C 0.1876(2) 0.6481(3) 0.6355(2)
H2C H 0.2069 0.6618 0.6104
C5C C 0.1464(2) 0.6217(3) 0.6236(2)
H3C H 0.1374 0.6179 0.5905
C6C C 0.1177(2) 0.6003(3) 0.6605(2)
C7C C 0.1305(3) 0.6075(3) 0.7086(3)
H4C H 0.1108 0.5940 0.7335
C8C C 0.1720(3) 0.6344(3) 0.7214(3)
H5C H 0.1801 0.6387 0.7546
C9C C 0.0736(2) 0.5681(2) 0.6466(2)
O1E O 0.39445(15) 0.93792(17) 0.56114(19)
O2E O 0.3198(3) 0.9357(3) 0.5322(3)
C1E C 0.2607(3) 0.7244(3) 0.6698(3)
H1E H 0.2415 0.7336 0.6427
C2E C 0.3022(2) 0.7523(3) 0.6826(2)
C3E C 0.3147(3) 0.7984(3) 0.6550(3)
C4E C 0.3645(2) 0.8124(2) 0.6481(3)
H2E H 0.3896 0.7931 0.6618
C5E C 0.3764(2) 0.8536(2) 0.6217(3)
H3E H 0.4095 0.8626 0.6179
C6E C 0.3395(2) 0.8823(2) 0.6003(3)
C7E C 0.2914(3) 0.8695(3) 0.6075(3)
H4E H 0.2665 0.8892 0.5940
C8E C 0.2786(3) 0.8280(3) 0.6344(3)
H5E H 0.2454 0.8199 0.6387
C9E C 0.3534(2) 0.9264(2) 0.5681(2)
O1J O 0.43886(19) 0.60555(15) 0.93792(17)
O2J O 0.4678(3) 0.6802(3) 0.9357(3)
C1J C 0.3302(3) 0.7393(3) 0.7244(3)
H1J H 0.3573 0.7585 0.7336
C2J C 0.3174(2) 0.6978(2) 0.7523(3)
C3J C 0.3450(3) 0.6853(3) 0.7984(3)
C4J C 0.3519(3) 0.6355(2) 0.8124(2)
H2J H 0.3382 0.6104 0.7931
C5J C 0.3783(3) 0.6236(2) 0.8536(2)
H3J H 0.3821 0.5905 0.8626
C6J C 0.3997(3) 0.6605(2) 0.8823(2)
C7J C 0.3925(3) 0.7086(3) 0.8695(3)
H4J H 0.4060 0.7335 0.8892
C8J C 0.3656(3) 0.7214(3) 0.8280(3)
H5J H 0.3613 0.7546 0.8199
C9J C 0.4319(2) 0.6466(2) 0.9264(2)
Dy1D Dy 0.374373(19) 0.0000 0.5000
O3D O 0.4597(3) 0.0000 0.5000
C10D C 0.5000 -0.0124(5) 0.5000
H6D H 0.5000 -0.0424 0.5000
C10E C 0.5000 0.0124(5) 0.5000
H6E H 0.5000 0.0424 0.5000
O3F O 0.5403(3) 0.0000 0.5000
Dy1D_2 Dy 0.374373(19) 1.0000 0.5000
O3D_2 O 0.4597(3) 1.0000 0.5000
C10E_2 C 0.5000 1.0124(5) 0.5000
H6E_2 H 0.5000 1.0424 0.5000
C10D_2 C 0.5000 0.9876(5) 0.5000
H6D_2 H 0.5000 0.9576 0.5000
O3F_2 O 0.5403(3) 1.0000 0.5000
Dy1F Dy 0.625627(19) 1.0000 0.5000
O1F O 0.60555(15) 0.93792(17) 0.43886(19)
O2F O 0.6802(3) 0.9357(3) 0.4678(3)
C1F C 0.7393(3) 0.7244(3) 0.3302(3)
H1F H 0.7585 0.7336 0.3573
C2F C 0.6978(2) 0.7523(3) 0.3174(2)
C3F C 0.6853(3) 0.7984(3) 0.3450(3)
C4F C 0.6355(2) 0.8124(2) 0.3519(3)
H2F H 0.6104 0.7931 0.3382
C5F C 0.6236(2) 0.8536(2) 0.3783(3)
H3F H 0.5905 0.8626 0.3821
C6F C 0.6605(2) 0.8823(2) 0.3997(3)
C7F C 0.7086(3) 0.8695(3) 0.3925(3)
H4F H 0.7335 0.8892 0.4060
C8F C 0.7214(3) 0.8280(3) 0.3656(3)
H5F H 0.7546 0.8199 0.3613
C9F C 0.6466(2) 0.9264(2) 0.4319(2)
O1K O 0.56114(19) 0.60555(15) 0.06208(17)
O2K O 0.5322(3) 0.6802(3) 0.0643(3)
C1K C 0.6698(3) 0.7393(3) 0.2756(3)
H1K H 0.6427 0.7585 0.2664
C2K C 0.6826(2) 0.6978(2) 0.2477(3)
C3K C 0.6550(3) 0.6853(3) 0.2016(3)
C4K C 0.6481(3) 0.6355(2) 0.1876(2)
H2K H 0.6618 0.6104 0.2069
C5K C 0.6217(3) 0.6236(2) 0.1464(2)
H3K H 0.6179 0.5905 0.1374
C6K C 0.6003(3) 0.6605(2) 0.1177(2)
C7K C 0.6075(3) 0.7086(3) 0.1305(3)
H4K H 0.5940 0.7335 0.1108
C8K C 0.6344(3) 0.7214(3) 0.1720(3)
H5K H 0.6387 0.7546 0.1801
C9K C 0.5681(2) 0.6466(2) 0.0736(2)
O1A O 0.93792(17) 0.56114(19) 0.39445(15)
O2A O 0.9357(3) 0.5322(3) 0.3198(3)
C1A C 0.7244(3) 0.6698(3) 0.2607(3)
H1A H 0.7336 0.6427 0.2415
C2A C 0.7523(3) 0.6826(2) 0.3022(2)
C3A C 0.7984(3) 0.6550(3) 0.3147(3)
C4A C 0.8124(2) 0.6481(3) 0.3645(2)
H2A H 0.7931 0.6618 0.3896
C5A C 0.8536(2) 0.6217(3) 0.3764(2)
H3A H 0.8626 0.6179 0.4095
C6A C 0.8823(2) 0.6003(3) 0.3395(2)
C7A C 0.8695(3) 0.6075(3) 0.2914(3)
H4A H 0.8892 0.5940 0.2665
C8A C 0.8280(3) 0.6344(3) 0.2786(3)
H5A H 0.8199 0.6387 0.2454
C9A C 0.9264(2) 0.5681(2) 0.3534(2)
Dy1F_2 Dy 0.625627(19) 0.0000 0.5000
O1G O 0.60555(15) 0.06208(17) 0.56114(19)
O2G O 0.6802(3) 0.0643(3) 0.5322(3)
C1G C 0.7393(3) 0.2756(3) 0.6698(3)
H1G H 0.7585 0.2664 0.6427
C2G C 0.6978(2) 0.2477(3) 0.6826(2)
C3G C 0.6853(3) 0.2016(3) 0.6550(3)
C4G C 0.6355(2) 0.1876(2) 0.6481(3)
H2G H 0.6104 0.2069 0.6618
C5G C 0.6236(2) 0.1464(2) 0.6217(3)
H3G H 0.5905 0.1374 0.6179
C6G C 0.6605(2) 0.1177(2) 0.6003(3)
C7G C 0.7086(3) 0.1305(3) 0.6075(3)
H4G H 0.7335 0.1108 0.5940
C8G C 0.7214(3) 0.1720(3) 0.6344(3)
H5G H 0.7546 0.1801 0.6387
C9G C 0.6466(2) 0.0736(2) 0.5681(2)
O1I O 0.56114(19) 0.39445(15) 0.93792(17)
O2I O 0.5322(3) 0.3198(3) 0.9357(3)
C1I C 0.6698(3) 0.2607(3) 0.7244(3)
H1I H 0.6427 0.2415 0.7336
C2I C 0.6826(2) 0.3022(2) 0.7523(3)
C3I C 0.6550(3) 0.3147(3) 0.7984(3)
C4I C 0.6481(3) 0.3645(2) 0.8124(2)
H2I H 0.6618 0.3896 0.7931
C5I C 0.6217(3) 0.3764(2) 0.8536(2)
H3I H 0.6179 0.4095 0.8626
C6I C 0.6003(3) 0.3395(2) 0.8823(2)
C7I C 0.6075(3) 0.2914(3) 0.8695(3)
H4I H 0.5940 0.2665 0.8892
C8I C 0.6344(3) 0.2786(3) 0.8280(3)
H5I H 0.6387 0.2454 0.8199
C9I C 0.5681(2) 0.3534(2) 0.9264(2)
O1B O 0.93792(17) 0.43886(19) 0.60555(15)
O2B O 0.9357(3) 0.4678(3) 0.6802(3)
C1B C 0.7244(3) 0.3302(3) 0.7393(3)
H1B H 0.7336 0.3573 0.7585
C2B C 0.7523(3) 0.3174(2) 0.6978(2)
C3B C 0.7984(3) 0.3450(3) 0.6853(3)
C4B C 0.8124(2) 0.3519(3) 0.6355(2)
H2B H 0.7931 0.3382 0.6104
C5B C 0.8536(2) 0.3783(3) 0.6236(2)
H3B H 0.8626 0.3821 0.5905
C6B C 0.8823(2) 0.3997(3) 0.6605(2)
C7B C 0.8695(3) 0.3925(3) 0.7086(3)
H4B H 0.8892 0.4060 0.7335
C8B C 0.8280(3) 0.3656(3) 0.7214(3)
H5B H 0.8199 0.3613 0.7546
C9B C 0.9264(2) 0.4319(2) 0.6466(2)
O1X O -0.06208(17) 0.56114(19) 0.60555(15)
O2X O -0.0643(3) 0.5322(3) 0.6802(3)
C1X C -0.2756(3) 0.6698(3) 0.7393(3)
H1X H -0.2664 0.6427 0.7585
C2X C -0.2477(3) 0.6826(2) 0.6978(2)
C3X C -0.2016(3) 0.6550(3) 0.6853(3)
C4X C -0.1876(2) 0.6481(3) 0.6355(2)
H2X H -0.2069 0.6618 0.6104
C5X C -0.1464(2) 0.6217(3) 0.6236(2)
H3X H -0.1374 0.6179 0.5905
C6X C -0.1177(2) 0.6003(3) 0.6605(2)
C7X C -0.1305(3) 0.6075(3) 0.7086(3)
H4X H -0.1108 0.5940 0.7335
C8X C -0.1720(3) 0.6344(3) 0.7214(3)
H5X H -0.1801 0.6387 0.7546
C9X C -0.0736(2) 0.5681(2) 0.6466(2)
O1BA O -0.39445(15) 0.93792(17) 0.56114(19)
O2BA O -0.3198(3) 0.9357(3) 0.5322(3)
C1BA C -0.2607(3) 0.7244(3) 0.6698(3)
H1BA H -0.2415 0.7336 0.6427
C2BA C -0.3022(2) 0.7523(3) 0.6826(2)
C3BA C -0.3147(3) 0.7984(3) 0.6550(3)
C4BA C -0.3645(2) 0.8124(2) 0.6481(3)
H2BA H -0.3896 0.7931 0.6618
C5BA C -0.3764(2) 0.8536(2) 0.6217(3)
H3BA H -0.4095 0.8626 0.6179
C6BA C -0.3395(2) 0.8823(2) 0.6003(3)
C7BA C -0.2914(3) 0.8695(3) 0.6075(3)
H4BA H -0.2665 0.8892 0.5940
C8BA C -0.2786(3) 0.8280(3) 0.6344(3)
H5BA H -0.2454 0.8199 0.6387
C9BA C -0.3534(2) 0.9264(2) 0.5681(2)
O1FA O -0.43886(19) 0.60555(15) 0.93792(17)
O2FA O -0.4678(3) 0.6802(3) 0.9357(3)
C1FA C -0.3302(3) 0.7393(3) 0.7244(3)
H1FA H -0.3573 0.7585 0.7336
C2FA C -0.3174(2) 0.6978(2) 0.7523(3)
C3FA C -0.3450(3) 0.6853(3) 0.7984(3)
C4FA C -0.3519(3) 0.6355(2) 0.8124(2)
H2FA H -0.3382 0.6104 0.7931
C5FA C -0.3783(3) 0.6236(2) 0.8536(2)
H3FA H -0.3821 0.5905 0.8626
C6FA C -0.3997(3) 0.6605(2) 0.8823(2)
C7FA C -0.3925(3) 0.7086(3) 0.8695(3)
H4FA H -0.4060 0.7335 0.8892
C8FA C -0.3656(3) 0.7214(3) 0.8280(3)
H5FA H -0.3613 0.7546 0.8199
C9FA C -0.4319(2) 0.6466(2) 0.9264(2)
O1Y O 0.06208(17) 0.43886(19) 0.60555(15)
O2Y O 0.0643(3) 0.4678(3) 0.6802(3)
C1Y C 0.2756(3) 0.3302(3) 0.7393(3)
H1Y H 0.2664 0.3573 0.7585
C2Y C 0.2477(3) 0.3174(2) 0.6978(2)
C3Y C 0.2016(3) 0.3450(3) 0.6853(3)
C4Y C 0.1876(2) 0.3519(3) 0.6355(2)
H2Y H 0.2069 0.3382 0.6104
C5Y C 0.1464(2) 0.3783(3) 0.6236(2)
H3Y H 0.1374 0.3821 0.5905
C6Y C 0.1177(2) 0.3997(3) 0.6605(2)
C7Y C 0.1305(3) 0.3925(3) 0.7086(3)
H4Y H 0.1108 0.4060 0.7335
C8Y C 0.1720(3) 0.3656(3) 0.7214(3)
H5Y H 0.1801 0.3613 0.7546
C9Y C 0.0736(2) 0.4319(2) 0.6466(2)
O1DA O 0.39445(15) 0.06208(17) 0.56114(19)
O2DA O 0.3198(3) 0.0643(3) 0.5322(3)
C1DA C 0.2607(3) 0.2756(3) 0.6698(3)
H1DA H 0.2415 0.2664 0.6427
C2DA C 0.3022(2) 0.2477(3) 0.6826(2)
C3DA C 0.3147(3) 0.2016(3) 0.6550(3)
C4DA C 0.3645(2) 0.1876(2) 0.6481(3)
H2DA H 0.3896 0.2069 0.6618
C5DA C 0.3764(2) 0.1464(2) 0.6217(3)
H3DA H 0.4095 0.1374 0.6179
C6DA C 0.3395(2) 0.1177(2) 0.6003(3)
C7DA C 0.2914(3) 0.1305(3) 0.6075(3)
H4DA H 0.2665 0.1108 0.5940
C8DA C 0.2786(3) 0.1720(3) 0.6344(3)
H5DA H 0.2454 0.1801 0.6387
C9DA C 0.3534(2) 0.0736(2) 0.5681(2)
O1IA O 0.43886(19) 0.39445(15) 0.93792(17)
O2IA O 0.4678(3) 0.3198(3) 0.9357(3)
C1IA C 0.3302(3) 0.2607(3) 0.7244(3)
H1IA H 0.3573 0.2415 0.7336
C2IA C 0.3174(2) 0.3022(2) 0.7523(3)
C3IA C 0.3450(3) 0.3147(3) 0.7984(3)
C4IA C 0.3519(3) 0.3645(2) 0.8124(2)
H2IA H 0.3382 0.3896 0.7931
C5IA C 0.3783(3) 0.3764(2) 0.8536(2)
H3IA H 0.3821 0.4095 0.8626
C6IA C 0.3997(3) 0.3395(2) 0.8823(2)
C7IA C 0.3925(3) 0.2914(3) 0.8695(3)
H4IA H 0.4060 0.2665 0.8892
C8IA C 0.3656(3) 0.2786(3) 0.8280(3)
H5IA H 0.3613 0.2454 0.8199
C9IA C 0.4319(2) 0.3534(2) 0.9264(2)
O1Z O 0.06208(17) 0.56114(19) 0.39445(15)
O2Z O 0.0643(3) 0.5322(3) 0.3198(3)
C1Z C 0.2756(3) 0.6698(3) 0.2607(3)
H1Z H 0.2664 0.6427 0.2415
C2Z C 0.2477(3) 0.6826(2) 0.3022(2)
C3Z C 0.2016(3) 0.6550(3) 0.3147(3)
C4Z C 0.1876(2) 0.6481(3) 0.3645(2)
H2Z H 0.2069 0.6618 0.3896
C5Z C 0.1464(2) 0.6217(3) 0.3764(2)
H3Z H 0.1374 0.6179 0.4095
C6Z C 0.1177(2) 0.6003(3) 0.3395(2)
C7Z C 0.1305(3) 0.6075(3) 0.2914(3)
H4Z H 0.1108 0.5940 0.2665
C8Z C 0.1720(3) 0.6344(3) 0.2786(3)
H5Z H 0.1801 0.6387 0.2454
C9Z C 0.0736(2) 0.5681(2) 0.3534(2)
O1EA O 0.39445(15) 0.93792(17) 0.43886(19)
O2EA O 0.3198(3) 0.9357(3) 0.4678(3)
C1EA C 0.2607(3) 0.7244(3) 0.3302(3)
H1EA H 0.2415 0.7336 0.3573
C2EA C 0.3022(2) 0.7523(3) 0.3174(2)
C3EA C 0.3147(3) 0.7984(3) 0.3450(3)
C4EA C 0.3645(2) 0.8124(2) 0.3519(3)
H2EA H 0.3896 0.7931 0.3382
C5EA C 0.3764(2) 0.8536(2) 0.3783(3)
H3EA H 0.4095 0.8626 0.3821
C6EA C 0.3395(2) 0.8823(2) 0.3997(3)
C7EA C 0.2914(3) 0.8695(3) 0.3925(3)
H4EA H 0.2665 0.8892 0.4060
C8EA C 0.2786(3) 0.8280(3) 0.3656(3)
H5EA H 0.2454 0.8199 0.3613
C9EA C 0.3534(2) 0.9264(2) 0.4319(2)
O1GA O 0.43886(19) 0.60555(15) 0.06208(17)
O2GA O 0.4678(3) 0.6802(3) 0.0643(3)
C1GA C 0.3302(3) 0.7393(3) 0.2756(3)
H1GA H 0.3573 0.7585 0.2664
C2GA C 0.3174(2) 0.6978(2) 0.2477(3)
C3GA C 0.3450(3) 0.6853(3) 0.2016(3)
C4GA C 0.3519(3) 0.6355(2) 0.1876(2)
H2GA H 0.3382 0.6104 0.2069
C5GA C 0.3783(3) 0.6236(2) 0.1464(2)
H3GA H 0.3821 0.5905 0.1374
C6GA C 0.3997(3) 0.6605(2) 0.1177(2)
C7GA C 0.3925(3) 0.7086(3) 0.1305(3)
H4GA H 0.4060 0.7335 0.1108
C8GA C 0.3656(3) 0.7214(3) 0.1720(3)
H5GA H 0.3613 0.7546 0.1801
C9GA C 0.4319(2) 0.6466(2) 0.0736(2)
O1AA O -0.06208(17) 0.43886(19) 0.39445(15)
O2AA O -0.0643(3) 0.4678(3) 0.3198(3)
C1AA C -0.2756(3) 0.3302(3) 0.2607(3)
H1AA H -0.2664 0.3573 0.2415
C2AA C -0.2477(3) 0.3174(2) 0.3022(2)
C3AA C -0.2016(3) 0.3450(3) 0.3147(3)
C4AA C -0.1876(2) 0.3519(3) 0.3645(2)
H2AA H -0.2069 0.3382 0.3896
C5AA C -0.1464(2) 0.3783(3) 0.3764(2)
H3AA H -0.1374 0.3821 0.4095
C6AA C -0.1177(2) 0.3997(3) 0.3395(2)
C7AA C -0.1305(3) 0.3925(3) 0.2914(3)
H4AA H -0.1108 0.4060 0.2665
C8AA C -0.1720(3) 0.3656(3) 0.2786(3)
H5AA H -0.1801 0.3613 0.2454
C9AA C -0.0736(2) 0.4319(2) 0.3534(2)
O1CA O -0.39445(15) 0.06208(17) 0.43886(19)
O2CA O -0.3198(3) 0.0643(3) 0.4678(3)
C1CA C -0.2607(3) 0.2756(3) 0.3302(3)
H1CA H -0.2415 0.2664 0.3573
C2CA C -0.3022(2) 0.2477(3) 0.3174(2)
C3CA C -0.3147(3) 0.2016(3) 0.3450(3)
C4CA C -0.3645(2) 0.1876(2) 0.3519(3)
H2CA H -0.3896 0.2069 0.3382
C5CA C -0.3764(2) 0.1464(2) 0.3783(3)
H3CA H -0.4095 0.1374 0.3821
C6CA C -0.3395(2) 0.1177(2) 0.3997(3)
C7CA C -0.2914(3) 0.1305(3) 0.3925(3)
H4CA H -0.2665 0.1108 0.4060
C8CA C -0.2786(3) 0.1720(3) 0.3656(3)
H5CA H -0.2454 0.1801 0.3613
C9CA C -0.3534(2) 0.0736(2) 0.4319(2)
O1HA O -0.43886(19) 0.39445(15) 0.06208(17)
O2HA O -0.4678(3) 0.3198(3) 0.0643(3)
C1HA C -0.3302(3) 0.2607(3) 0.2756(3)
H1HA H -0.3573 0.2415 0.2664
C2HA C -0.3174(2) 0.3022(2) 0.2477(3)
C3HA C -0.3450(3) 0.3147(3) 0.2016(3)
C4HA C -0.3519(3) 0.3645(2) 0.1876(2)
H2HA H -0.3382 0.3896 0.2069
C5HA C -0.3783(3) 0.3764(2) 0.1464(2)
H3HA H -0.3821 0.4095 0.1374
C6HA C -0.3997(3) 0.3395(2) 0.1177(2)
C7HA C -0.3925(3) 0.2914(3) 0.1305(3)
H4HA H -0.4060 0.2665 0.1108
C8HA C -0.3656(3) 0.2786(3) 0.1720(3)
H5HA H -0.3613 0.2454 0.1801
C9HA C -0.4319(2) 0.3534(2) 0.0736(2)
Dy1_2 Dy 1.0000 0.5000 0.374373(19)
Dy1B_2 Dy 1.0000 0.5000 0.625627(19)
Dy1F_3 Dy -0.374373(19) 0.0000 0.5000
Dy1F_4 Dy -0.374373(19) 1.0000 0.5000
Dy1H Dy -0.5000 0.374373(19) 0.0000
Dy1H_2 Dy 0.5000 0.374373(19) 0.0000
Dy1H_3 Dy 0.5000 0.374373(19) 1.0000
Dy1J Dy -0.5000 0.625627(19) 1.0000
Dy1J_2 Dy 0.5000 0.625627(19) 0.0000
Dy1J_3 Dy 0.5000 0.625627(19) 1.0000
O1A_2 O -0.06208(17) 0.56114(19) 0.39445(15)
O1B_2 O -0.06208(17) 0.43886(19) 0.60555(15)
O1D_2 O 0.39445(15) 1.06208(17) 0.43886(19)
O1E_2 O 0.39445(15) -0.06208(17) 0.56114(19)
O1F_2 O 0.60555(15) -0.06208(17) 0.43886(19)
O1G_2 O 0.60555(15) 1.06208(17) 0.56114(19)
O1BA_2 O 0.60555(15) -0.06208(17) 0.56114(19)
O1BA_3 O 0.60555(15) 0.93792(17) 0.56114(19)
O1CA_2 O 0.60555(15) 0.06208(17) 0.43886(19)
O1CA_3 O 0.60555(15) 1.06208(17) 0.43886(19)
O1DA_2 O 0.39445(15) 1.06208(17) 0.56114(19)
O1EA_2 O 0.39445(15) -0.06208(17) 0.43886(19)
O2A_2 O -0.0643(3) 0.5322(3) 0.3198(3)
O2B_2 O -0.0643(3) 0.4678(3) 0.6802(3)
O2D_2 O 0.3198(3) 1.0643(3) 0.4678(3)
O2E_2 O 0.3198(3) -0.0643(3) 0.5322(3)
O2F_2 O 0.6802(3) -0.0643(3) 0.4678(3)
O2G_2 O 0.6802(3) 1.0643(3) 0.5322(3)
O2BA_2 O 0.6802(3) -0.0643(3) 0.5322(3)
O2BA_3 O 0.6802(3) 0.9357(3) 0.5322(3)
O2CA_2 O 0.6802(3) 0.0643(3) 0.4678(3)
O2CA_3 O 0.6802(3) 1.0643(3) 0.4678(3)
O2DA_2 O 0.3198(3) 1.0643(3) 0.5322(3)
O2EA_2 O 0.3198(3) -0.0643(3) 0.4678(3)
loop_
_geom_bond_atom_site_label_1
_geom_bond_atom_site_label_2
_geom_bond_site_symmetry_1
_geom_bond_site_symmetry_2
Dy1 O1 1_555 1_555
O1 C9 1_555 1_555
O2 Dy1 1_555 1_555
O3 Dy1 1_555 1_555
C1 H1 1_555 1_555
C2 C1 1_555 1_555
C3 C2 1_555 1_555
C4 C3 1_555 1_555
H2 C4 1_555 1_555
C5 C4 1_555 1_555
H3 C5 1_555 1_555
C6 C5 1_555 1_555
C7 C6 1_555 1_555
H4 C7 1_555 1_555
C8 C3 1_555 1_555
H5 C8 1_555 1_555
C9 O2 1_555 1_555
C10 O3 1_555 1_555
H6 C10 1_555 1_555
O1D C9D 1_555 1_555
O2D C9D 1_555 1_555
C1D C2 1_555 1_555
H1D C1D 1_555 1_555
C2D C1D 1_555 1_555
C3D C2D 1_555 1_555
C4D C3D 1_555 1_555
H2D C4D 1_555 1_555
C5D C4D 1_555 1_555
H3D C5D 1_555 1_555
C6D C5D 1_555 1_555
C7D C6D 1_555 1_555
H4D C7D 1_555 1_555
C8D C3D 1_555 1_555
H5D C8D 1_555 1_555
C9D C6D 1_555 1_555
O1H C9H 1_555 1_555
O2H C9H 1_555 1_555
C1H C2D 1_555 1_555
H1H C1H 1_555 1_555
C2H C1 1_555 1_555
C3H C2H 1_555 1_555
C4H C3H 1_555 1_555
H2H C4H 1_555 1_555
C5H C4H 1_555 1_555
H3H C5H 1_555 1_555
C6H C5H 1_555 1_555
C7H C6H 1_555 1_555
H4H C7H 1_555 1_555
C8H C3H 1_555 1_555
H5H C8H 1_555 1_555
C9H C6H 1_555 1_555
C10A O3 1_555 1_555
H6A C10A 1_555 1_555
O3B C10 1_555 1_555
Dy1B O3B 1_555 1_555
O1C Dy1B 1_555 1_555
O2C Dy1B 1_555 1_555
C1C H1C 1_555 1_555
C2C C1C 1_555 1_555
C3C C2C 1_555 1_555
C4C C3C 1_555 1_555
H2C C4C 1_555 1_555
C5C C4C 1_555 1_555
H3C C5C 1_555 1_555
C6C C5C 1_555 1_555
C7C C6C 1_555 1_555
H4C C7C 1_555 1_555
C8C C3C 1_555 1_555
H5C C8C 1_555 1_555
C9C O1C 1_555 1_555
O1E C9E 1_555 1_555
O2E C9E 1_555 1_555
C1E C2C 1_555 1_555
H1E C1E 1_555 1_555
C2E C1E 1_555 1_555
C3E C2E 1_555 1_555
C4E C3E 1_555 1_555
H2E C4E 1_555 1_555
C5E C4E 1_555 1_555
H3E C5E 1_555 1_555
C6E C5E 1_555 1_555
C7E C6E 1_555 1_555
H4E C7E 1_555 1_555
C8E C3E 1_555 1_555
H5E C8E 1_555 1_555
C9E C6E 1_555 1_555
O1J C9J 1_555 1_555
O2J C9J 1_555 1_555
C1J C2E 1_555 1_555
H1J C1J 1_555 1_555
C2J C1C 1_555 1_555
C3J C2J 1_555 1_555
C4J C3J 1_555 1_555
H2J C4J 1_555 1_555
C5J C4J 1_555 1_555
H3J C5J 1_555 1_555
C6J C5J 1_555 1_555
C7J C6J 1_555 1_555
H4J C7J 1_555 1_555
C8J C3J 1_555 1_555
H5J C8J 1_555 1_555
C9J C6J 1_555 1_555
Dy1D O1D 1_555 1_555
O3D Dy1D 1_555 1_555
C10D O3D 1_555 1_555
H6D C10D 1_555 1_555
C10E O3D 1_555 1_555
H6E C10E 1_555 1_555
O3F C10D 1_555 1_555
Dy1D_2 O1E 1_555 1_555
O3D_2 Dy1D_2 1_555 1_555
C10E_2 O3D_2 1_555 1_555
H6E_2 C10E_2 1_555 1_555
C10D_2 O3D_2 1_555 1_555
H6D_2 C10D_2 1_555 1_555
O3F_2 C10E_2 1_555 1_555
Dy1F O3F_2 1_555 1_555
O1F Dy1F 1_555 1_555
O2F Dy1F 1_555 1_555
C1F H1F 1_555 1_555
C2F C1F 1_555 1_555
C3F C2F 1_555 1_555
C4F C3F 1_555 1_555
H2F C4F 1_555 1_555
C5F C4F 1_555 1_555
H3F C5F 1_555 1_555
C6F C5F 1_555 1_555
C7F C6F 1_555 1_555
H4F C7F 1_555 1_555
C8F C3F 1_555 1_555
H5F C8F 1_555 1_555
C9F O1F 1_555 1_555
O1K C9K 1_555 1_555
O2K C9K 1_555 1_555
C1K C2F 1_555 1_555
H1K C1K 1_555 1_555
C2K C1K 1_555 1_555
C3K C2K 1_555 1_555
C4K C3K 1_555 1_555
H2K C4K 1_555 1_555
C5K C4K 1_555 1_555
H3K C5K 1_555 1_555
C6K C5K 1_555 1_555
C7K C6K 1_555 1_555
H4K C7K 1_555 1_555
C8K C3K 1_555 1_555
H5K C8K 1_555 1_555
C9K C6K 1_555 1_555
O1A C9A 1_555 1_555
O2A C9A 1_555 1_555
C1A C2K 1_555 1_555
H1A C1A 1_555 1_555
C2A C1F 1_555 1_555
C3A C2A 1_555 1_555
C4A C3A 1_555 1_555
H2A C4A 1_555 1_555
C5A C4A 1_555 1_555
H3A C5A 1_555 1_555
C6A C5A 1_555 1_555
C7A C6A 1_555 1_555
H4A C7A 1_555 1_555
C8A C3A 1_555 1_555
H5A C8A 1_555 1_555
C9A C6A 1_555 1_555
Dy1F_2 O3F 1_555 1_555
O1G Dy1F_2 1_555 1_555
O2G Dy1F_2 1_555 1_555
C1G H1G 1_555 1_555
C2G C1G 1_555 1_555
C3G C2G 1_555 1_555
C4G C3G 1_555 1_555
H2G C4G 1_555 1_555
C5G C4G 1_555 1_555
H3G C5G 1_555 1_555
C6G C5G 1_555 1_555
C7G C6G 1_555 1_555
H4G C7G 1_555 1_555
C8G C3G 1_555 1_555
H5G C8G 1_555 1_555
C9G O1G 1_555 1_555
O1I C9I 1_555 1_555
O2I C9I 1_555 1_555
C1I C2G 1_555 1_555
H1I C1I 1_555 1_555
C2I C1I 1_555 1_555
C3I C2I 1_555 1_555
C4I C3I 1_555 1_555
H2I C4I 1_555 1_555
C5I C4I 1_555 1_555
H3I C5I 1_555 1_555
C6I C5I 1_555 1_555
C7I C6I 1_555 1_555
H4I C7I 1_555 1_555
C8I C3I 1_555 1_555
H5I C8I 1_555 1_555
C9I C6I 1_555 1_555
O1B C9B 1_555 1_555
O2B C9B 1_555 1_555
C1B C2I 1_555 1_555
H1B C1B 1_555 1_555
C2B C1G 1_555 1_555
C3B C2B 1_555 1_555
C4B C3B 1_555 1_555
H2B C4B 1_555 1_555
C5B C4B 1_555 1_555
H3B C5B 1_555 1_555
C6B C5B 1_555 1_555
C7B C6B 1_555 1_555
H4B C7B 1_555 1_555
C8B C3B 1_555 1_555
H5B C8B 1_555 1_555
C9B C6B 1_555 1_555
O1X Dy1B 1_555 1_555
O2X Dy1B 1_555 1_555
C1X H1X 1_555 1_555
C2X C1X 1_555 1_555
C3X C2X 1_555 1_555
C4X C3X 1_555 1_555
H2X C4X 1_555 1_555
C5X C4X 1_555 1_555
H3X C5X 1_555 1_555
C6X C5X 1_555 1_555
C7X C6X 1_555 1_555
H4X C7X 1_555 1_555
C8X C3X 1_555 1_555
H5X C8X 1_555 1_555
C9X O1X 1_555 1_555
O1BA C9BA 1_555 1_555
O2BA C9BA 1_555 1_555
C1BA C2X 1_555 1_555
H1BA C1BA 1_555 1_555
C2BA C1BA 1_555 1_555
C3BA C2BA 1_555 1_555
C4BA C3BA 1_555 1_555
H2BA C4BA 1_555 1_555
C5BA C4BA 1_555 1_555
H3BA C5BA 1_555 1_555
C6BA C5BA 1_555 1_555
C7BA C6BA 1_555 1_555
H4BA C7BA 1_555 1_555
C8BA C3BA 1_555 1_555
H5BA C8BA 1_555 1_555
C9BA C6BA 1_555 1_555
O1FA C9FA 1_555 1_555
O2FA C9FA 1_555 1_555
C1FA C2BA 1_555 1_555
H1FA C1FA 1_555 1_555
C2FA C1X 1_555 1_555
C3FA C2FA 1_555 1_555
C4FA C3FA 1_555 1_555
H2FA C4FA 1_555 1_555
C5FA C4FA 1_555 1_555
H3FA C5FA 1_555 1_555
C6FA C5FA 1_555 1_555
C7FA C6FA 1_555 1_555
H4FA C7FA 1_555 1_555
C8FA C3FA 1_555 1_555
H5FA C8FA 1_555 1_555
C9FA C6FA 1_555 1_555
O1Y Dy1B 1_555 1_555
O2Y Dy1B 1_555 1_555
C1Y H1Y 1_555 1_555
C2Y C1Y 1_555 1_555
C3Y C2Y 1_555 1_555
C4Y C3Y 1_555 1_555
H2Y C4Y 1_555 1_555
C5Y C4Y 1_555 1_555
H3Y C5Y 1_555 1_555
C6Y C5Y 1_555 1_555
C7Y C6Y 1_555 1_555
H4Y C7Y 1_555 1_555
C8Y C3Y 1_555 1_555
H5Y C8Y 1_555 1_555
C9Y O1Y 1_555 1_555
O1DA Dy1D 1_555 1_555
O2DA Dy1D 1_555 1_555
C1DA C2Y 1_555 1_555
H1DA C1DA 1_555 1_555
C2DA C1DA 1_555 1_555
C3DA C2DA 1_555 1_555
C4DA C3DA 1_555 1_555
H2DA C4DA 1_555 1_555
C5DA C4DA 1_555 1_555
H3DA C5DA 1_555 1_555
C6DA C5DA 1_555 1_555
C7DA C6DA 1_555 1_555
H4DA C7DA 1_555 1_555
C8DA C3DA 1_555 1_555
H5DA C8DA 1_555 1_555
C9DA O1DA 1_555 1_555
O1IA C9IA 1_555 1_555
O2IA C9IA 1_555 1_555
C1IA C2DA 1_555 1_555
H1IA C1IA 1_555 1_555
C2IA C1Y 1_555 1_555
C3IA C2IA 1_555 1_555
C4IA C3IA 1_555 1_555
H2IA C4IA 1_555 1_555
C5IA C4IA 1_555 1_555
H3IA C5IA 1_555 1_555
C6IA C5IA 1_555 1_555
C7IA C6IA 1_555 1_555
H4IA C7IA 1_555 1_555
C8IA C3IA 1_555 1_555
H5IA C8IA 1_555 1_555
C9IA C6IA 1_555 1_555
O1Z Dy1 1_555 1_555
O2Z Dy1 1_555 1_555
C1Z H1Z 1_555 1_555
C2Z C1Z 1_555 1_555
C3Z C2Z 1_555 1_555
C4Z C3Z 1_555 1_555
H2Z C4Z 1_555 1_555
C5Z C4Z 1_555 1_555
H3Z C5Z 1_555 1_555
C6Z C5Z 1_555 1_555
C7Z C6Z 1_555 1_555
H4Z C7Z 1_555 1_555
C8Z C3Z 1_555 1_555
H5Z C8Z 1_555 1_555
C9Z O1Z 1_555 1_555
O1EA Dy1D_2 1_555 1_555
O2EA Dy1D_2 1_555 1_555
C1EA C2Z 1_555 1_555
H1EA C1EA 1_555 1_555
C2EA C1EA 1_555 1_555
C3EA C2EA 1_555 1_555
C4EA C3EA 1_555 1_555
H2EA C4EA 1_555 1_555
C5EA C4EA 1_555 1_555
H3EA C5EA 1_555 1_555
C6EA C5EA 1_555 1_555
C7EA C6EA 1_555 1_555
H4EA C7EA 1_555 1_555
C8EA C3EA 1_555 1_555
H5EA C8EA 1_555 1_555
C9EA O1EA 1_555 1_555
O1GA C9GA 1_555 1_555
O2GA C9GA 1_555 1_555
C1GA C2EA 1_555 1_555
H1GA C1GA 1_555 1_555
C2GA C1Z 1_555 1_555
C3GA C2GA 1_555 1_555
C4GA C3GA 1_555 1_555
H2GA C4GA 1_555 1_555
C5GA C4GA 1_555 1_555
H3GA C5GA 1_555 1_555
C6GA C5GA 1_555 1_555
C7GA C6GA 1_555 1_555
H4GA C7GA 1_555 1_555
C8GA C3GA 1_555 1_555
H5GA C8GA 1_555 1_555
C9GA C6GA 1_555 1_555
O1AA Dy1 1_555 1_555
O2AA Dy1 1_555 1_555
C1AA H1AA 1_555 1_555
C2AA C1AA 1_555 1_555
C3AA C2AA 1_555 1_555
C4AA C3AA 1_555 1_555
H2AA C4AA 1_555 1_555
C5AA C4AA 1_555 1_555
H3AA C5AA 1_555 1_555
C6AA C5AA 1_555 1_555
C7AA C6AA 1_555 1_555
H4AA C7AA 1_555 1_555
C8AA C3AA 1_555 1_555
H5AA C8AA 1_555 1_555
C9AA O1AA 1_555 1_555
O1CA C9CA 1_555 1_555
O2CA C9CA 1_555 1_555
C1CA C2AA 1_555 1_555
H1CA C1CA 1_555 1_555
C2CA C1CA 1_555 1_555
C3CA C2CA 1_555 1_555
C4CA C3CA 1_555 1_555
H2CA C4CA 1_555 1_555
C5CA C4CA 1_555 1_555
H3CA C5CA 1_555 1_555
C6CA C5CA 1_555 1_555
C7CA C6CA 1_555 1_555
H4CA C7CA 1_555 1_555
C8CA C3CA 1_555 1_555
H5CA C8CA 1_555 1_555
C9CA C6CA 1_555 1_555
O1HA C9HA 1_555 1_555
O2HA C9HA 1_555 1_555
C1HA C2CA 1_555 1_555
H1HA C1HA 1_555 1_555
C2HA C1AA 1_555 1_555
C3HA C2HA 1_555 1_555
C4HA C3HA 1_555 1_555
H2HA C4HA 1_555 1_555
C5HA C4HA 1_555 1_555
H3HA C5HA 1_555 1_555
C6HA C5HA 1_555 1_555
C7HA C6HA 1_555 1_555
H4HA C7HA 1_555 1_555
C8HA C3HA 1_555 1_555
H5HA C8HA 1_555 1_555
C9HA C6HA 1_555 1_555
Dy1_2 O1A 1_555 1_555
Dy1B_2 O1B 1_555 1_555
Dy1F_3 O1CA 1_555 1_555
Dy1F_4 O1BA 1_555 1_555
Dy1H O1HA 1_555 1_555
Dy1H_2 O1H 1_555 1_555
Dy1H_3 O1I 1_555 1_555
Dy1J O1FA 1_555 1_555
Dy1J_2 O1K 1_555 1_555
Dy1J_3 O1J 1_555 1_555
O1A_2 Dy1 1_555 1_555
O1B_2 Dy1B 1_555 1_555
O1D_2 Dy1D_2 1_555 1_555
O1E_2 Dy1D 1_555 1_555
O1F_2 Dy1F_2 1_555 1_555
O1G_2 Dy1F 1_555 1_555
O1BA_2 Dy1F_2 1_555 1_555
O1BA_3 Dy1F 1_555 1_555
O1CA_2 Dy1F_2 1_555 1_555
O1CA_3 Dy1F 1_555 1_555
O1DA_2 Dy1D_2 1_555 1_555
O1EA_2 Dy1D 1_555 1_555
O2A_2 Dy1 1_555 1_555
O2B_2 Dy1B 1_555 1_555
O2D_2 Dy1D_2 1_555 1_555
O2E_2 Dy1D 1_555 1_555
O2F_2 Dy1F_2 1_555 1_555
O2G_2 Dy1F 1_555 1_555
O2BA_2 Dy1F_2 1_555 1_555
O2BA_3 Dy1F 1_555 1_555
O2CA_2 Dy1F_2 1_555 1_555
O2CA_3 Dy1F 1_555 1_555
O2DA_2 Dy1D_2 1_555 1_555
O2EA_2 Dy1D 1_555 1_555
C6 C9 1_555 1_555
C7 C8 1_555 1_555
C10 C10A 1_555 1_555
O2D Dy1D 1_555 1_555
C7D C8D 1_555 1_555
O2H Dy1H_2 1_555 1_555
C1H C2H 1_555 1_555
C7H C8H 1_555 1_555
C10A O3B 1_555 1_555
O2C C9C 1_555 1_555
C6C C9C 1_555 1_555
C7C C8C 1_555 1_555
O2E Dy1D_2 1_555 1_555
C7E C8E 1_555 1_555
O2J Dy1J_3 1_555 1_555
C1J C2J 1_555 1_555
C7J C8J 1_555 1_555
C10D C10E 1_555 1_555
C10E O3F 1_555 1_555
C10E_2 C10D_2 1_555 1_555
C10D_2 O3F_2 1_555 1_555
O2F C9F 1_555 1_555
C6F C9F 1_555 1_555
C7F C8F 1_555 1_555
O2K Dy1J_2 1_555 1_555
C7K C8K 1_555 1_555
O2A Dy1_2 1_555 1_555
C1A C2A 1_555 1_555
C7A C8A 1_555 1_555
O2G C9G 1_555 1_555
C6G C9G 1_555 1_555
C7G C8G 1_555 1_555
O2I Dy1H_3 1_555 1_555
C7I C8I 1_555 1_555
O2B Dy1B_2 1_555 1_555
C1B C2B 1_555 1_555
C7B C8B 1_555 1_555
O2X C9X 1_555 1_555
C6X C9X 1_555 1_555
C7X C8X 1_555 1_555
O2BA Dy1F_4 1_555 1_555
C7BA C8BA 1_555 1_555
O2FA Dy1J 1_555 1_555
C1FA C2FA 1_555 1_555
C7FA C8FA 1_555 1_555
O2Y C9Y 1_555 1_555
C6Y C9Y 1_555 1_555
C7Y C8Y 1_555 1_555
O2DA C9DA 1_555 1_555
C6DA C9DA 1_555 1_555
C7DA C8DA 1_555 1_555
O1IA Dy1H_3 1_555 1_555
O2IA Dy1H_3 1_555 1_555
C1IA C2IA 1_555 1_555
C7IA C8IA 1_555 1_555
O2Z C9Z 1_555 1_555
C6Z C9Z 1_555 1_555
C7Z C8Z 1_555 1_555
O2EA C9EA 1_555 1_555
C6EA C9EA 1_555 1_555
C7EA C8EA 1_555 1_555
O1GA Dy1J_2 1_555 1_555
O2GA Dy1J_2 1_555 1_555
C1GA C2GA 1_555 1_555
C7GA C8GA 1_555 1_555
O2AA C9AA 1_555 1_555
C6AA C9AA 1_555 1_555
C7AA C8AA 1_555 1_555
O2CA Dy1F_3 1_555 1_555
C7CA C8CA 1_555 1_555
O2HA Dy1H 1_555 1_555
C1HA C2HA 1_555 1_555
C7HA C8HA 1_555 1_555

#END
