
#######################################################################
#
#                 Cambridge Crystallographic Data Centre
#                                CCDC 
#
#######################################################################
#
# If this CIF has been generated from an entry in the Cambridge 
# Structural Database, then it will include bibliographic, chemical, 
# crystal, experimental, refinement or atomic coordinate data resulting 
# from the CCDC's data processing and validation procedures.
#
#######################################################################

data_MEWNEH
_chemical_formula_moiety         '(C12 H10 O17 Tm2)n'
_symmetry_cell_setting           tetragonal
_symmetry_space_group_name_H-M   'P 4/n c c'
_symmetry_Int_Tables_number      130
_space_group_name_Hall           '-P 4a 2ac'
loop_
_symmetry_equiv_pos_site_id
_symmetry_equiv_pos_as_xyz
1 x,y,z
2 1/2-y,x,z
3 y,1/2-x,z
4 1/2+y,1/2+x,1/2-z
5 1/2-x,1/2-y,z
6 -x,1/2+y,1/2-z
7 1/2+x,-y,1/2-z
8 -y,-x,1/2-z
9 -x,-y,-z
10 1/2+y,-x,-z
11 -y,1/2+x,-z
12 1/2-y,1/2-x,1/2+z
13 1/2+x,1/2+y,-z
14 x,1/2-y,1/2+z
15 1/2-x,y,1/2+z
16 y,x,1/2+z
_cell_length_a                   18.443(3)
_cell_length_b                   18.443(3)
_cell_length_c                   10.374(2)
_cell_angle_alpha                90
_cell_angle_beta                 90
_cell_angle_gamma                90
_cell_volume                     3528.66
loop_
_atom_site_label
_atom_site_type_symbol
_atom_site_fract_x
_atom_site_fract_y
_atom_site_fract_z
_atom_site_U_iso_or_equiv
_atom_site_thermal_displace_type
Tm1 Tm 0.026318(12) -0.254572(10) 0.34775(2) 0.0113 Uani
O1 O 0.1384(2) -0.24785(18) 0.2197(4) 0.0229 Uani
H1 H 0.1749 -0.2629 0.2618 0.0280 Uiso
H2 H 0.1464 -0.2051 0.1924 0.0280 Uiso
O2 O -0.0895(2) -0.2112(3) 0.3600(5) 0.0423 Uani
H3 H -0.0950 -0.1711 0.3208 0.0510 Uiso
H4 H -0.1049 -0.2080 0.4371 0.0510 Uiso
O3 O -0.1110(2) -0.3665(2) 0.1764(5) 0.0321 Uani
O4 O 0.0056(2) -0.3440(2) 0.2155(4) 0.0230 Uani
O5 O 0.16299(19) -0.38995(19) 0.0732(4) 0.0216 Uani
O6 O 0.0828(2) -0.32039(18) -0.0198(4) 0.0204 Uani
O7 O -0.19659(19) -0.4756(2) 0.0258(4) 0.0263 Uani
O8 O -0.1570(2) -0.5175(2) 0.2138(4) 0.0267 Uani
C1 C -0.0214(2) -0.4391(2) 0.0718(5) 0.0097 Uani
C2 C 0.0484(3) -0.4425(2) 0.0203(5) 0.0120 Uani
C3 C -0.0701(2) -0.4959(2) 0.0493(5) 0.0110 Uani
C4 C -0.0450(3) -0.3784(3) 0.1599(5) 0.0163 Uani
C5 C 0.1015(2) -0.3797(3) 0.0278(4) 0.0113 Uani
C6 C -0.1470(3) -0.4954(3) 0.1013(5) 0.0147 Uani
C3H C 0.0701(2) -0.5041(2) -0.0493(5) 0.0110 Uani
C1H C 0.0214(2) -0.5609(2) -0.0718(5) 0.0097 Uani
C2H C -0.0484(3) -0.5575(2) -0.0203(5) 0.0120 Uani
C5H C -0.1015(2) -0.6203(3) -0.0278(4) 0.0113 Uani
O5H O -0.16299(19) -0.61005(19) -0.0732(4) 0.0216 Uani
O6H O -0.0828(2) -0.67961(18) 0.0198(4) 0.0204 Uani
C4H C 0.0450(3) -0.6216(3) -0.1599(5) 0.0163 Uani
O3H O 0.1110(2) -0.6335(2) -0.1764(5) 0.0321 Uani
O4H O -0.0056(2) -0.6560(2) -0.2155(4) 0.0230 Uani
C6H C 0.1470(3) -0.5046(3) -0.1013(5) 0.0147 Uani
O7H O 0.19659(19) -0.5244(2) -0.0258(4) 0.0263 Uani
O8H O 0.1570(2) -0.4825(2) -0.2138(4) 0.0267 Uani
Tm1H Tm -0.026318(12) -0.745428(10) -0.34775(2) 0.0113 Uani
O1H O -0.1384(2) -0.75215(18) -0.2197(4) 0.0229 Uani
H1H H -0.1749 -0.7371 -0.2618 0.0280 Uiso
H2H H -0.1464 -0.7949 -0.1924 0.0280 Uiso
O2H O 0.0895(2) -0.7888(3) -0.3600(5) 0.0423 Uani
H3H H 0.0950 -0.8289 -0.3208 0.0510 Uiso
H4H H 0.1049 -0.7920 -0.4371 0.0510 Uiso
O5C O 0.11005(19) -0.33701(19) 0.4268(4) 0.0216 Uani
O6M O 0.0828(2) -0.17961(18) 0.4802(4) 0.0204 Uani
O7K O -0.0244(2) -0.30341(19) 0.5258(4) 0.0263 Uani
O8A O 0.0175(2) -0.1570(2) 0.2138(4) 0.0267 Uani
Tm1C Tm 0.245428(10) -0.473682(12) 0.15225(2) 0.0113 Uani
Tm1M Tm 0.026318(12) -0.245428(10) -0.15225(2) 0.0113 Uani
Tm1K Tm -0.245428(10) -0.526318(12) -0.15225(2) 0.0113 Uani
Tm1B Tm -0.254572(10) -0.526318(12) 0.34775(2) 0.0113 Uani
Tm1E Tm -0.026318(12) -0.754572(10) 0.15225(2) 0.0113 Uani
Tm1J Tm 0.254572(10) -0.473682(12) -0.34775(2) 0.0113 Uani
O5K O -0.11005(19) -0.66299(19) -0.4268(4) 0.0216 Uani
O6E O -0.0828(2) -0.82039(18) -0.4802(4) 0.0204 Uani
O7C O 0.0244(2) -0.69659(19) -0.5258(4) 0.0263 Uani
O8I O -0.0175(2) -0.8430(2) -0.2138(4) 0.0267 Uani
O9 O -0.2076(10) -0.1892(10) 0.5007(19) 0.0350 Uiso
loop_
_atom_site_aniso_label
_atom_site_aniso_U_11
_atom_site_aniso_U_22
_atom_site_aniso_U_33
_atom_site_aniso_U_23
_atom_site_aniso_U_13
_atom_site_aniso_U_12
Tm1 0.01431(14) 0.00965(13) 0.00985(15) -0.00074(8) -0.00234(8) -0.00092(7)
O1 0.023(2) 0.0188(18) 0.027(2) 0.0029(17) -0.0013(19) 0.0020(15)
O2 0.034(2) 0.055(3) 0.038(3) 0.025(3) 0.015(2) 0.015(2)
O3 0.0193 0.032 0.045 -0.017 0.0095 0.0007
O4 0.0221 0.025 0.022 -0.0148 0.0008 -0.0049
O5 0.0159 0.018 0.031 0.0024 -0.0107 -0.0023
O6 0.0275 0.0136 0.02 0.0067 -0.0087 -0.0008
O7 0.016 0.041 0.022 -0.0141 -0.0028 0.0034
O8 0.027 0.03 0.023 -0.0012 0.0147 -0.0038
C1 0.01 0.011 0.008 -0.0026 -0.0036 -0.0008
C2 0.013 0.009 0.014 0.0018 -0.003 -0.0033
C3 0.011 0.014 0.008 -0.0002 0.0028 0.0007
C4 0.021 0.015 0.013 -0.005 0.002 -0.0026
C5 0.013 0.012 0.009 -0.0007 0.0014 -0.0019
C6 0.015 0.012 0.017 -0.0092 0.0046 -0.005
C3H 0.011 0.014 0.008 -0.0002 0.0028 0.0007
C1H 0.01 0.011 0.008 -0.0026 -0.0036 -0.0008
C2H 0.013 0.009 0.014 0.0018 -0.003 -0.0033
C5H 0.013 0.012 0.009 -0.0007 0.0014 -0.0019
O5H 0.0159 0.018 0.031 0.0024 -0.0107 -0.0023
O6H 0.0275 0.0136 0.02 0.0067 -0.0087 -0.0008
C4H 0.021 0.015 0.013 -0.005 0.002 -0.0026
O3H 0.0193 0.032 0.045 -0.017 0.0095 0.0007
O4H 0.0221 0.025 0.022 -0.0148 0.0008 -0.0049
C6H 0.015 0.012 0.017 -0.0092 0.0046 -0.005
O7H 0.016 0.041 0.022 -0.0141 -0.0028 0.0034
O8H 0.027 0.03 0.023 -0.0012 0.0147 -0.0038
Tm1H 0.01431 0.00965 0.00985 -0.00074 -0.00234 -0.00092
O1H 0.023 0.0188 0.027 0.0029 -0.0013 0.002
O2H 0.034 0.055 0.038 0.025 0.015 0.015
O5C 0.018 0.0159 0.031 0.0107 -0.0024 -0.0023
O6M 0.0275(19) 0.0136(17) 0.020(2) -0.0067(15) -0.0087(17) 0.0008(14)
O7K 0.041 0.016 0.022 0.0028 0.0141 0.0034
O8A 0.03 0.027 0.023 0.0147 0.0012 0.0038
Tm1C 0.00965 0.01431 0.00985 0.00234 0.00074 -0.00092
Tm1M 0.01431 0.00965 0.00985 0.00074 -0.00234 0.00092
Tm1K 0.00965 0.01431 0.00985 0.00234 0.00074 -0.00092
Tm1B 0.00965 0.01431 0.00985 0.00234 -0.00074 0.00092
Tm1E 0.01431 0.00965 0.00985 0.00074 -0.00234 0.00092
Tm1J 0.00965 0.01431 0.00985 0.00234 -0.00074 0.00092
O5K 0.018 0.0159 0.031 0.0107 -0.0024 -0.0023
O6E 0.0275 0.0136 0.02 -0.0067 -0.0087 0.0008
O7C 0.041 0.016 0.022 0.0028 0.0141 0.0034
O8I 0.03 0.027 0.023 0.0147 0.0012 0.0038
loop_
_geom_bond_atom_site_label_1
_geom_bond_atom_site_label_2
_geom_bond_site_symmetry_1
_geom_bond_site_symmetry_2
Tm1 O1 1_555 1_555
O1 H1 1_555 1_555
H2 O1 1_555 1_555
O2 Tm1 1_555 1_555
H3 O2 1_555 1_555
H4 O2 1_555 1_555
O3 C4 1_555 1_555
O4 Tm1 1_555 1_555
O5 C5 1_555 1_555
O6 C5 1_555 1_555
O7 C6 1_555 1_555
O8 C6 1_555 1_555
C1 C2 1_555 1_555
C2 C5 1_555 1_555
C3 C1 1_555 1_555
C4 O4 1_555 1_555
C6 C3 1_555 1_555
C3H C2 1_555 1_555
C1H C3H 1_555 1_555
C2H C3 1_555 1_555
C5H C2H 1_555 1_555
O5H C5H 1_555 1_555
O6H C5H 1_555 1_555
C4H C1H 1_555 1_555
O3H C4H 1_555 1_555
O4H C4H 1_555 1_555
C6H C3H 1_555 1_555
O7H C6H 1_555 1_555
O8H C6H 1_555 1_555
Tm1H O4H 1_555 1_555
O1H Tm1H 1_555 1_555
H1H O1H 1_555 1_555
H2H O1H 1_555 1_555
O2H Tm1H 1_555 1_555
H3H O2H 1_555 1_555
H4H O2H 1_555 1_555
O5C Tm1 1_555 1_555
O6M Tm1 1_555 1_555
O7K Tm1 1_555 1_555
O8A Tm1 1_555 1_555
Tm1C O5 1_555 1_555
Tm1M O6 1_555 1_555
Tm1K O7 1_555 1_555
Tm1B O8 1_555 1_555
Tm1E O6H 1_555 1_555
Tm1J O8H 1_555 1_555
O5K Tm1H 1_555 1_555
O6E Tm1H 1_555 1_555
O7C Tm1H 1_555 1_555
O8I Tm1H 1_555 1_555
C1 C4 1_555 1_555
C1H C2H 1_555 1_555
O5H Tm1K 1_555 1_555
O7H Tm1C 1_555 1_555

#END
