
#######################################################################
#
#                 Cambridge Crystallographic Data Centre
#                                CCDC 
#
#######################################################################
#
# If this CIF has been generated from an entry in the Cambridge 
# Structural Database, then it will include bibliographic, chemical, 
# crystal, experimental, refinement or atomic coordinate data resulting 
# from the CCDC's data processing and validation procedures.
#
#######################################################################

data_ASINIB
_chemical_formula_moiety         '(C93 H65 Cu3 N9 O13)n'
_symmetry_cell_setting           orthorhombic
_symmetry_space_group_name_H-M   'F d d 2'
_symmetry_Int_Tables_number      43
_space_group_name_Hall           'F 2 -2d'
loop_
_symmetry_equiv_pos_site_id
_symmetry_equiv_pos_as_xyz
1 x,y,z
2 -x,-y,z
3 1/4-x,1/4+y,1/4+z
4 1/4+x,1/4-y,1/4+z
5 x,1/2+y,1/2+z
6 -x,1/2-y,1/2+z
7 1/4-x,3/4+y,3/4+z
8 1/4+x,3/4-y,3/4+z
9 1/2+x,y,1/2+z
10 1/2-x,-y,1/2+z
11 3/4-x,1/4+y,3/4+z
12 3/4+x,1/4-y,3/4+z
13 1/2+x,1/2+y,z
14 1/2-x,1/2-y,z
15 3/4-x,3/4+y,1/4+z
16 3/4+x,3/4-y,1/4+z
_cell_length_a                   75.033(11)
_cell_length_b                   29.380(4)
_cell_length_c                   29.569(4)
_cell_angle_alpha                90
_cell_angle_beta                 90
_cell_angle_gamma                90
_cell_volume                     65184
loop_
_atom_site_label
_atom_site_type_symbol
_atom_site_fract_x
_atom_site_fract_y
_atom_site_fract_z
_atom_site_U_iso_or_equiv
_atom_site_thermal_displace_type
C1 C -0.07028(13) 0.1271(3) 0.1283(4) 0.0990 Uani
H1 H -0.0669 0.1203 0.0980 0.1190 Uiso
C2 C 0.0674(2) 0.3544(5) 0.1156(8) 0.2113 Uani
H2 H 0.0612 0.3461 0.0888 0.2530 Uiso
C3 C -0.13477(12) 0.4076(3) 0.2359(3) 0.0733 Uani
H3 H -0.1428 0.3952 0.2575 0.0880 Uiso
C4 C 0.0777 0.4124 0.1693 0.3100 Uani
H4 H 0.0777 0.4446 0.1607 0.4670 Uiso
H5 H 0.0885 0.3978 0.1579 0.4670 Uiso
H6 H 0.0773 0.4098 0.2023 0.4670 Uiso
C5 C -0.06060(13) 0.1580(3) 0.1530(4) 0.0960 Uani
H7 H -0.0512 0.1741 0.1386 0.1150 Uiso
C6 C 0.0470 0.3805 0.1745 0.4467 Uani
H8 H 0.0505 0.3863 0.2059 0.6700 Uiso
H9 H 0.0432 0.3488 0.1713 0.6700 Uiso
H10 H 0.0372 0.4008 0.1660 0.6700 Uiso
C7 C -0.08008(13) 0.2060(4) 0.0297(4) 0.1087 Uani
H11 H -0.0704 0.1930 0.0461 0.1300 Uiso
C8 C -0.12836(10) 0.0917(3) -0.0686(3) 0.0603 Uani
H12 H -0.1300 0.0605 -0.0611 0.0720 Uiso
C9 C -0.13400(11) 0.1543(3) -0.1155(3) 0.0693 Uani
H13 H -0.1402 0.1670 -0.1406 0.0830 Uiso
C10 C -0.08301(11) 0.3101(3) 0.0893(4) 0.0817 Uani
C11 C -0.14422(12) 0.4834(4) 0.2650(4) 0.0713 Uani
C12 C -0.12044(11) 0.4667(3) 0.2084(3) 0.0700 Uani
H14 H -0.1176 0.4983 0.2095 0.0840 Uiso
C13 C -0.08364(12) 0.2488(4) 0.0352(4) 0.0960 Uani
C14 C -0.05426(12) 0.2770(4) 0.0618(4) 0.0957 Uani
C15 C -0.14463(11) 0.0785(3) -0.1375(3) 0.0607 Uani
C16 C -0.07766(12) 0.3497(4) 0.1019(4) 0.0870 Uani
H15 H -0.0667 0.3601 0.0899 0.1040 Uiso
C17 C 0.05049(11) 0.2141(4) 0.1862(4) 0.0803 Uani
H16 H 0.0591 0.1948 0.1726 0.0970 Uiso
C18 C 0.0867 -0.0486 -0.1890 0.1543 Uani
C19 C 0.03793(10) 0.2501(3) 0.0638(4) 0.0717 Uani
C20 C 0.03016(10) 0.2751(3) 0.0982(3) 0.0677 Uani
H17 H 0.0370 0.2869 0.1225 0.0810 Uiso
C21 C -0.11283(9) 0.3411(3) 0.3958(4) 0.0657 Uani
H18 H -0.1164 0.3341 0.4258 0.0790 Uiso
C22 C -0.09895(13) 0.2943(3) 0.1102(4) 0.0977 Uani
H19 H -0.1031 0.2643 0.1042 0.1170 Uiso
C23 C -0.12564(11) 0.3769(3) 0.2079(3) 0.0673 Uani
H20 H -0.1281 0.3452 0.2087 0.0810 Uiso
C24 C -0.11103(12) 0.4417(3) 0.1798(4) 0.0800 Uani
H21 H -0.1029 0.4558 0.1596 0.0960 Uiso
C25 C 0.02015(12) 0.2342(4) 0.2089(4) 0.0817 Uani
C26 C -0.12404(11) 0.1823(3) -0.0873(4) 0.0707 Uani
H22 H -0.1228 0.2137 -0.0944 0.0850 Uiso
C27 C -0.13305(10) 0.4529(3) 0.2349(3) 0.0520 Uani
C28 C -0.10529(13) 0.1932(4) -0.0201(4) 0.0990 Uani
C29 C -0.10189(11) 0.3117(3) 0.3697(4) 0.0780 Uani
H23 H -0.0983 0.2831 0.3816 0.0940 Uiso
C30 C -0.09662(11) 0.3244(4) 0.3276(3) 0.0703 Uani
C31 C 0.02866(11) 0.2336(3) 0.0290(4) 0.0860 Uani
H24 H 0.0344 0.2169 0.0056 0.1030 Uiso
C32 C 0.03147(11) 0.2022(3) 0.1860(3) 0.0760 Uani
H25 H 0.0270 0.1755 0.1718 0.0910 Uiso
C33 C -0.08532(13) 0.2903(4) 0.2995(4) 0.0853 Uani
C34 C -0.06401(14) 0.1667(4) 0.1981(4) 0.1073 Uani
C35 C -0.10168(12) 0.3618(4) 0.3091(4) 0.0803 Uani
H26 H -0.0985 0.3690 0.2788 0.0960 Uiso
C36 C 0.07161(10) 0.1499(3) -0.0474(3) 0.0710 Uani
H27 H 0.0652 0.1778 -0.0487 0.0850 Uiso
C37 C -0.08643(12) 0.3780(3) 0.1309(4) 0.0887 Uani
H28 H -0.0812 0.4066 0.1379 0.1060 Uiso
C38 C 0.07987(13) -0.0094(3) -0.1638(4) 0.0907 Uani
C39 C 0.07546(11) 0.2687(4) 0.2030(3) 0.0677 Uani
C40 C 0.00138(11) 0.2649(3) 0.0603(4) 0.0917 Uani
C41 C 0.09133(10) 0.1026(3) -0.0110(3) 0.0593 Uani
H29 H 0.0993 0.0972 0.0134 0.0710 Uiso
C42 C -0.11975(11) 0.0226(3) 0.0690(3) 0.0603 Uani
C43 C 0.04455(13) 0.2788(4) 0.2321(5) 0.1133 Uani
H30 H 0.0490 0.3026 0.2506 0.1360 Uiso
C44 C 0.05818(11) 0.2399(3) 0.0639(4) 0.0690 Uani
C45 C -0.09662(12) 0.0757(3) 0.1180(4) 0.0830 Uani
C46 C -0.13497(11) 0.1066(3) -0.1070(3) 0.0557 Uani
C47 C -0.06496(12) 0.2300(3) 0.2490(4) 0.0803 Uani
C48 C -0.08824(13) 0.2819(4) 0.2549(4) 0.0903 Uani
H31 H -0.0978 0.2974 0.2407 0.1080 Uiso
C49 C 0.07912(9) 0.0767(3) -0.0801(3) 0.0537 Uani
C50 C 0.00002(11) 0.2221(4) 0.2118(4) 0.0820 Uani
C51 C 0.08962(9) 0.0717(3) -0.0423(3) 0.0597 Uani
H32 H 0.0960 0.0440 -0.0388 0.0720 Uiso
C52 C -0.11593(11) 0.1648(3) -0.0489(4) 0.0777 Uani
C53 C -0.03629(12) 0.2061(4) 0.2181(4) 0.0953 Uani
C54 C 0.06986(11) 0.1164(3) -0.0825(3) 0.0723 Uani
H33 H 0.0622 0.1221 -0.1074 0.0870 Uiso
C55 C -0.10782(13) 0.3208(4) 0.1376(4) 0.0993 Uani
H34 H -0.1186 0.3093 0.1502 0.1190 Uiso
C56 C 0.07766(10) 0.0482(3) -0.1171(4) 0.0657 Uani
C57 C -0.08434(12) 0.1067(3) 0.1466(4) 0.0883 Uani
C58 C -0.06195(13) 0.2369(4) 0.2908(5) 0.1037 Uani
H35 H -0.0521 0.2211 0.3034 0.1240 Uiso
C59 C -0.07906(15) 0.2550(4) 0.2310(4) 0.0973 Uani
H36 H -0.0819 0.2517 0.1999 0.1170 Uiso
C60 C -0.02661(11) 0.2720(4) 0.1008(4) 0.1027 Uani
H37 H -0.0203 0.2730 0.1286 0.1240 Uiso
C61 C -0.08991(13) 0.1779(3) 0.0003(4) 0.0950 Uani
H38 H -0.0859 0.1479 -0.0056 0.1140 Uiso
C62 C 0.02619(13) 0.2689(4) 0.2309(4) 0.1077 Uani
H39 H 0.0181 0.2882 0.2465 0.1290 Uiso
C63 C -0.09935(12) 0.2693(3) 0.0103(4) 0.0890 Uani
H40 H -0.1020 0.3009 0.0118 0.1070 Uiso
C64 C -0.10897(12) 0.2408(4) -0.0132(4) 0.0957 Uani
H41 H -0.1194 0.2527 -0.0272 0.1150 Uiso
C65 C 0.1047 -0.0556 -0.1965 0.1783 Uani
H42 H 0.1138 -0.0365 -0.1842 0.2140 Uiso
C66 C -0.02763(12) 0.2713(4) 0.0219(4) 0.0947 Uani
H43 H -0.0215 0.2717 -0.0063 0.1130 Uiso
C67 C -0.11203(13) 0.3914(4) 0.3348(4) 0.0987 Uani
H44 H -0.1150 0.4205 0.3230 0.1180 Uiso
C68 C -0.07113(12) 0.2640(4) 0.3191(4) 0.1040 Uani
H45 H -0.0684 0.2656 0.3504 0.1250 Uiso
C69 C -0.10238(13) 0.3670(3) 0.1504(4) 0.0823 Uani
C70 C -0.01779(12) 0.2680(3) 0.0638(4) 0.0907 Uani
C71 C -0.01150(12) 0.2578(3) 0.2194(4) 0.0883 Uani
H46 H -0.0070 0.2878 0.2225 0.1060 Uiso
C72 C 0.0756 -0.0831 -0.2040 0.1543 Uani
H47 H 0.0632 -0.0767 -0.2008 0.1850 Uiso
C73 C -0.11494(13) 0.0714(3) 0.1305(4) 0.1027 Uani
H48 H -0.1197 0.0871 0.1559 0.1230 Uiso
C74 C -0.12900(11) 0.4133(3) 0.4016(4) 0.0693 Uani
C75 C -0.07802(14) 0.1426(4) 0.2179(4) 0.1183 Uani
H49 H -0.0806 0.1470 0.2491 0.1420 Uiso
C76 C 0.1086 -0.0953 -0.2252 0.1653 Uani
H50 H 0.1195 -0.0947 -0.2417 0.1990 Uiso
C77 C -0.11777(11) 0.3798(3) 0.3749(3) 0.0673 Uani
C78 C 0.0792 -0.1260 -0.2229 0.1967 Uani
H51 H 0.0704 -0.1479 -0.2300 0.2360 Uiso
C79 C -0.11311(11) 0.3944(3) 0.1795(3) 0.0657 Uani
C80 C -0.00603(13) 0.1794(4) 0.2041(5) 0.1160 Uani
H52 H 0.0020 0.1553 0.1975 0.1390 Uiso
C81 C -0.10146(13) 0.0286(3) 0.0565(4) 0.0857 Uani
H53 H -0.0968 0.0133 0.0308 0.1030 Uiso
C82 C 0.00958(11) 0.2421(3) 0.0279(4) 0.0820 Uani
H54 H 0.0028 0.2309 0.0032 0.0990 Uiso
C83 C 0.05539(11) 0.2540(4) 0.2068(3) 0.0810 Uani
C84 C -0.04579(12) 0.2752(4) 0.1014(4) 0.1170 Uani
H55 H -0.0522 0.2759 0.1292 0.1410 Uiso
C85 C -0.08801(13) 0.1135(4) 0.1938(4) 0.1167 Uani
H56 H -0.0975 0.0974 0.2079 0.1400 Uiso
C86 C -0.04588(13) 0.2739(4) 0.0234(4) 0.1053 Uani
H57 H -0.0525 0.2734 -0.0040 0.1260 Uiso
C87 C -0.12963(15) -0.0074(4) 0.0408(4) 0.0923 Uani
C88 C -0.02560(13) 0.1716(4) 0.2063(4) 0.1063 Uani
H58 H -0.0304 0.1425 0.1995 0.1280 Uiso
C89 C -0.11921(12) 0.1187(3) -0.0389(3) 0.0753 Uani
H59 H -0.1150 0.1062 -0.0113 0.0900 Uiso
C90 C -0.09055(12) 0.0568(3) 0.0821(4) 0.0907 Uani
H60 H -0.0786 0.0622 0.0729 0.1090 Uiso
C91 C -0.12529(12) 0.0442(3) 0.1046(4) 0.0857 Uani
H61 H -0.1374 0.0407 0.1130 0.1030 Uiso
C92 C -0.02972(12) 0.2500(4) 0.2226(4) 0.0883 Uani
H62 H -0.0376 0.2747 0.2278 0.1060 Uiso
C93 C 0.01215(11) 0.2821(3) 0.0958(4) 0.0887 Uani
H63 H 0.0066 0.2993 0.1191 0.1070 Uiso
N1 N 0.08708(8) 0.0077(2) -0.1246(3) 0.0713 Uani
N2 N 0.06066(17) 0.3879(4) 0.1481(7) 0.2113 Uani
N3 N 0.08256(8) 0.1405(2) -0.0123(3) 0.0610 Uani
N4 N 0.06694(10) 0.0523(3) -0.1525(3) 0.0880 Uani
N5 N 0.09993(9) -0.0106(2) -0.0976(3) 0.0873 Uani
H64 H 0.1047 -0.0370 -0.1046 0.1050 Uiso
H65 H 0.1034 0.0040 -0.0732 0.1050 Uiso
N6 N 0.0982 -0.1327 -0.2304 0.1450 Uani
N7 N 0.06802(11) 0.0187(3) -0.1816(4) 0.1150 Uani
N8 N -0.07407(9) 0.2831(3) 0.0602(4) 0.1057 Uani
N9 N -0.05481(10) 0.1993(3) 0.2229(4) 0.1207 Uani
O1 O -0.12575(8) -0.0268(2) 0.0071(3) 0.0850 Uani
O2 O -0.14506(7) 0.5237(2) 0.2550(3) 0.0690 Uani
O3 O -0.15185(9) 0.4630(2) 0.2978(3) 0.0987 Uani
O4 O 0.08519(7) 0.2454(2) 0.1770(3) 0.0810 Uani
O5 O -0.14213(7) 0.0367(2) -0.1367(3) 0.0757 Uani
O6 O 0.07962(7) 0.2985(2) 0.2298(3) 0.0883 Uani
O7 O 0.08334(11) 0.3365(3) 0.1277(3) 0.1323 Uani
O8 O -0.15529(7) 0.0977(2) -0.1665(3) 0.0730 Uani
O9 O -0.13272(8) 0.4514(2) 0.3865(3) 0.1033 Uani
O10 O -0.13400(7) 0.4007(2) 0.4408(3) 0.0860 Uani
O11 O 0.06620(7) 0.2544(2) 0.0969(3) 0.0933 Uani
O12 O -0.14745(9) -0.0154(2) 0.0571(3) 0.1083 Uani
O13 O 0.06371(7) 0.2172(2) 0.0344(3) 0.0807 Uani
Cu1 Cu 0.086945(12) 0.19067(3) 0.0340(2) 0.0589 Uani
Cu2 Cu 0.104459(12) 0.31361(3) 0.2361(2) 0.0626 Uani
Cu3 Cu 0.093002(12) 0.27168(3) 0.11606(19) 0.0631 Uani
N6D N 0.0982 0.3673 0.2696 0.1450 Uani
O1C O 0.12425(8) 0.2768(2) 0.2571(3) 0.0850 Uani
O2G O 0.10494(7) 0.2263(2) 0.0050(3) 0.0690 Uani
O3G O 0.09815(9) 0.2870(2) 0.0478(3) 0.0987 Uani
O5C O 0.10787(7) 0.2133(2) 0.1133(3) 0.0757 Uani
O8C O 0.09471(7) 0.1523(2) 0.0835(3) 0.0730 Uani
O9G O 0.11728(8) 0.2986(2) 0.1365(3) 0.1033 Uani
O10G O 0.11600(7) 0.3493(2) 0.1908(3) 0.0860 Uani
O12C O 0.10255(9) 0.2654(2) 0.3071(3) 0.1083 Uani
Cu1K Cu -0.163055(12) 0.05933(3) -0.2160(2) 0.0589 Uani
Cu1O Cu -0.163055(12) 0.55933(3) 0.2840(2) 0.0589 Uani
Cu2D Cu 0.104459(12) -0.18639(3) -0.2639(2) 0.0626 Uani
Cu2K Cu -0.145541(12) -0.06361(3) -0.0139(2) 0.0626 Uani
Cu2O Cu -0.145541(12) 0.43639(3) 0.4861(2) 0.0626 Uani
Cu3K Cu -0.156998(12) -0.02168(3) -0.13394(19) 0.0631 Uani
Cu3O Cu -0.156998(12) 0.47832(3) 0.36606(19) 0.0631 Uani
loop_
_atom_site_aniso_label
_atom_site_aniso_U_11
_atom_site_aniso_U_22
_atom_site_aniso_U_33
_atom_site_aniso_U_23
_atom_site_aniso_U_13
_atom_site_aniso_U_12
C1 0.097 0.087 0.113 -0.054 0.052 -0.026
C2 0.149(8) 0.118(8) 0.367(15) -0.012(8) -0.061(8) 0.047(6)
C3 0.085 0.092 0.043 0.003 -0.009 0.007
C4 0.36(2) 0.37(3) 0.20(2) -0.107(19) -0.072(18) 0.110(19)
C5 0.084 0.093 0.111 -0.036 0.034 -0.022
C6 0.49(3) 0.44(4) 0.41(4) 0.05(3) 0.21(3) -0.03(3)
C7 0.088(7) 0.126(7) 0.112(8) -0.066(7) -0.035(6) 0.035(6)
C8 0.074 0.076 0.031 -0.001 0.007 0.005
C9 0.082 0.081 0.045 0.011 -0.01 0.006
C10 0.050(5) 0.094(7) 0.101(7) -0.059(5) -0.023(4) 0.003(5)
C11 0.068 0.075 0.071 -0.029 0.005 -0.02
C12 0.072 0.102 0.036 -0.016 0.005 0.009
C13 0.067(5) 0.130(7) 0.091(7) -0.069(6) -0.022(5) 0.019(5)
C14 0.052(4) 0.134(8) 0.101(7) -0.053(7) -0.021(4) 0.012(5)
C15 0.063 0.067 0.052 0.01 0.007 -0.013
C16 0.056(5) 0.112(7) 0.093(7) -0.030(6) 0.002(5) 0.017(5)
C17 0.047(4) 0.123(7) 0.071(6) -0.020(5) 0.000(4) -0.002(5)
C18 0.133(7) 0.141(7) 0.189(9) -0.079(6) 0.003(7) 0.018(5)
C19 0.052(4) 0.078(6) 0.085(6) -0.046(5) -0.012(4) 0.013(4)
C20 0.039(4) 0.081(6) 0.083(6) -0.018(5) 0.014(4) -0.006(4)
C21 0.034 0.076 0.087 -0.019 0 0.002
C22 0.080(6) 0.083(6) 0.130(8) -0.083(6) 0.004(5) 0.000(5)
C23 0.075 0.046 0.081 -0.009 -0.011 0.004
C24 0.072 0.068 0.1 -0.005 0.04 0.011
C25 0.060(4) 0.115(7) 0.070(6) -0.020(5) -0.009(4) 0.002(4)
C26 0.071 0.04 0.101 0.001 -0.038 0.006
C27 0.052 0.052 0.052 0 0 0
C28 0.091 0.096 0.11 -0.066 -0.04 0.045
C29 0.065 0.099 0.07 0.01 -0.011 0.02
C30 0.069 0.099 0.043 -0.009 -0.008 -0.014
C31 0.064(5) 0.105(7) 0.089(6) -0.059(6) -0.001(5) 0.031(5)
C32 0.051(5) 0.099(7) 0.078(6) -0.011(5) 0.011(4) -0.015(4)
C33 0.076 0.102 0.078 -0.023 -0.009 -0.01
C34 0.084 0.126 0.112 -0.049 0.049 -0.023
C35 0.077 0.099 0.065 -0.002 0.001 0.003
C36 0.048(5) 0.105(6) 0.060(5) -0.021(4) -0.007(4) 0.001(4)
C37 0.064(6) 0.088(6) 0.114(8) -0.060(6) -0.013(5) -0.011(5)
C38 0.102(7) 0.094(6) 0.076(6) -0.029(5) -0.037(5) 0.016(5)
C39 0.044(4) 0.123(7) 0.036(4) -0.025(5) -0.006(3) 0.008(4)
C40 0.049(4) 0.126(8) 0.100(7) -0.066(6) -0.017(4) 0.030(5)
C41 0.066(5) 0.057(5) 0.055(5) 0.005(4) 0.008(4) 0.022(4)
C42 0.075 0.051 0.055 -0.001 0.008 -0.011
C43 0.061(5) 0.136(9) 0.143(9) -0.049(7) 0.024(6) -0.004(6)
C44 0.047(4) 0.111(7) 0.049(5) -0.027(5) 0.005(4) 0.000(4)
C45 0.074 0.072 0.103 -0.031 0.028 0.002
C46 0.075 0.061 0.031 -0.008 0.004 -0.01
C47 0.066(5) 0.085(7) 0.090(7) -0.051(6) 0.011(5) -0.026(5)
C48 0.083 0.119 0.069 -0.013 0.026 0.001
C49 0.041(4) 0.062(5) 0.058(5) -0.007(4) -0.005(4) 0.009(4)
C50 0.050(4) 0.121(7) 0.075(6) -0.041(6) 0.012(4) -0.007(4)
C51 0.047(5) 0.067(5) 0.065(5) -0.013(4) -0.003(4) 0.005(4)
C52 0.059 0.079 0.095 -0.022 -0.029 0.013
C53 0.056(5) 0.109(7) 0.121(8) -0.036(6) 0.006(5) -0.026(5)
C54 0.060(5) 0.111(6) 0.046(5) -0.017(4) 0.000(4) 0.006(5)
C55 0.064(6) 0.113(7) 0.121(8) -0.034(6) -0.027(5) 0.013(5)
C56 0.037(4) 0.083(5) 0.077(5) -0.026(4) 0.001(4) 0.015(4)
C57 0.078 0.095 0.092 -0.036 0.032 -0.014
C58 0.066(6) 0.124(8) 0.121(7) -0.069(7) 0.010(6) -0.012(6)
C59 0.084(7) 0.136(9) 0.072(6) -0.024(7) 0.004(5) -0.042(5)
C60 0.049(4) 0.155(9) 0.104(6) -0.062(7) -0.006(4) 0.022(6)
C61 0.087(7) 0.094(7) 0.104(8) -0.032(6) -0.037(6) 0.041(6)
C62 0.071(5) 0.147(9) 0.105(8) -0.076(7) 0.041(6) -0.025(6)
C63 0.074(6) 0.071(6) 0.122(8) -0.043(5) -0.020(5) 0.009(5)
C64 0.081(7) 0.137(9) 0.069(6) -0.035(6) -0.040(5) 0.030(6)
C65 0.150(8) 0.130(10) 0.255(16) -0.055(9) 0.065(11) 0.008(8)
C66 0.071(5) 0.138(8) 0.075(6) -0.032(6) -0.010(4) 0.018(6)
C67 0.104 0.126 0.066 -0.018 -0.004 -0.006
C68 0.059 0.158 0.095 -0.035 0.013 -0.003
C69 0.075(6) 0.079(6) 0.093(7) -0.052(5) -0.006(5) 0.007(5)
C70 0.056(4) 0.115(7) 0.101(6) -0.051(6) 0.002(4) 0.002(5)
C71 0.058(5) 0.094(6) 0.113(8) -0.029(6) -0.002(5) -0.014(4)
C72 0.133(7) 0.141(7) 0.189(9) -0.079(6) 0.003(7) 0.018(5)
C73 0.101 0.092 0.115 -0.061 0.064 -0.041
C74 0.045 0.086 0.077 0.037 0.01 -0.008
C75 0.104 0.146 0.105 -0.059 0.04 -0.06
C76 0.151(9) 0.139(10) 0.206(13) -0.046(9) 0.121(10) -0.031(7)
C77 0.053 0.105 0.044 -0.001 -0.017 0.002
C78 0.117(7) 0.215(12) 0.258(15) -0.157(12) 0.022(10) -0.006(8)
C79 0.057 0.093 0.047 -0.003 -0.011 -0.003
C80 0.073(5) 0.098(6) 0.177(10) -0.038(7) 0.040(7) -0.016(5)
C81 0.082 0.07 0.105 -0.027 0.019 0.009
C82 0.058(4) 0.119(7) 0.069(6) -0.061(5) -0.015(4) 0.001(5)
C83 0.046(4) 0.145(8) 0.052(5) -0.030(5) -0.003(4) -0.002(5)
C84 0.049(4) 0.183(10) 0.119(7) -0.082(8) -0.008(5) -0.006(6)
C85 0.089 0.147 0.114 -0.067 0.063 -0.051
C86 0.068(5) 0.146(9) 0.102(7) -0.070(7) -0.011(5) 0.027(6)
C87 0.104 0.097 0.076 -0.017 -0.006 0.003
C88 0.072(5) 0.099(7) 0.148(9) -0.066(7) 0.022(6) -0.025(5)
C89 0.108 0.087 0.031 -0.003 -0.024 0.045
C90 0.065 0.089 0.118 -0.053 0.037 -0.011
C91 0.068 0.085 0.104 -0.025 0.033 -0.008
C92 0.065(5) 0.108(6) 0.092(7) -0.038(6) -0.010(5) -0.007(5)
C93 0.052(4) 0.112(7) 0.102(7) -0.050(6) 0.012(4) 0.012(5)
N1 0.054(4) 0.060(4) 0.100(5) -0.037(4) -0.019(4) 0.013(3)
N2 0.149(8) 0.118(8) 0.367(15) -0.012(8) -0.061(8) 0.047(6)
N3 0.049(4) 0.070(4) 0.064(4) 0.000(3) -0.012(3) 0.008(3)
N4 0.084(5) 0.098(5) 0.082(5) -0.031(4) -0.027(4) 0.034(4)
N5 0.066(5) 0.091(5) 0.105(6) -0.043(5) -0.043(4) 0.037(4)
N6 0.042(4) 0.138(7) 0.255(11) -0.038(8) 0.036(6) -0.008(5)
N7 0.086(6) 0.140(7) 0.119(7) -0.066(6) -0.036(5) 0.050(5)
N8 0.051(4) 0.147(7) 0.119(6) -0.077(5) -0.015(4) 0.015(4)
N9 0.070(4) 0.162(8) 0.130(7) -0.107(6) 0.040(5) -0.051(5)
O1 0.078 0.092 0.085 -0.031 -0.005 0.011
O2 0.07 0.06 0.077 0.016 0.022 -0.004
O3 0.1 0.096 0.1 -0.005 0.017 -0.008
O4 0.049(3) 0.092(4) 0.102(4) -0.012(3) 0.016(3) -0.006(3)
O5 0.07 0.058 0.099 -0.011 0.019 -0.006
O6 0.052(3) 0.118(5) 0.095(5) -0.011(4) -0.004(3) 0.006(3)
O7 0.137(6) 0.115(5) 0.145(7) -0.005(4) 0.022(5) 0.034(4)
O8 0.068 0.088 0.063 0.019 0.003 0.011
O9 0.066 0.097 0.147 0.031 0.01 0.01
O10 0.07 0.102 0.086 0.014 0.02 -0.001
O11 0.050(3) 0.140(5) 0.090(4) -0.018(4) 0.005(3) 0.023(3)
O12 0.089 0.108 0.128 -0.021 0.004 -0.021
O13 0.048(3) 0.116(5) 0.078(4) -0.031(4) 0.020(3) 0.007(3)
Cu1 0.0487(6) 0.0668(7) 0.0611(6) -0.0070(5) 0.0056(5) 0.0055(5)
Cu2 0.0465(6) 0.0673(7) 0.0741(7) -0.0139(6) 0.0052(5) -0.0012(5)
Cu3 0.0584(6) 0.0696(7) 0.0613(6) -0.0079(5) 0.0010(5) 0.0070(5)
N6D 0.042 0.138 0.255 -0.038 0.036 -0.008
O1C 0.078 0.092 0.085 0.031 -0.005 -0.011
O2G 0.07 0.06 0.077 -0.016 0.022 0.004
O3G 0.1 0.096 0.1 0.005 0.017 0.008
O5C 0.07 0.058 0.099 0.011 0.019 0.006
O8C 0.068 0.088 0.063 -0.019 0.003 -0.011
O9G 0.066 0.097 0.147 -0.031 0.01 -0.01
O10G 0.07 0.102 0.086 -0.014 0.02 0.001
O12C 0.089 0.108 0.128 0.021 0.004 0.021
Cu1K 0.0487 0.0668 0.0611 0.007 0.0056 -0.0055
Cu1O 0.0487 0.0668 0.0611 0.007 0.0056 -0.0055
Cu2D 0.0465 0.0673 0.0741 -0.0139 0.0052 -0.0012
Cu2K 0.0465 0.0673 0.0741 0.0139 0.0052 0.0012
Cu2O 0.0465 0.0673 0.0741 0.0139 0.0052 0.0012
Cu3K 0.0584 0.0696 0.0613 0.0079 0.001 -0.007
Cu3O 0.0584 0.0696 0.0613 0.0079 0.001 -0.007
loop_
_geom_bond_atom_site_label_1
_geom_bond_atom_site_label_2
_geom_bond_site_symmetry_1
_geom_bond_site_symmetry_2
C1 H1 1_555 1_555
C2 H2 1_555 1_555
C3 H3 1_555 1_555
C4 H4 1_555 1_555
H5 C4 1_555 1_555
H6 C4 1_555 1_555
C5 C1 1_555 1_555
H7 C5 1_555 1_555
C6 H8 1_555 1_555
H9 C6 1_555 1_555
H10 C6 1_555 1_555
C7 H11 1_555 1_555
C8 H12 1_555 1_555
C9 H13 1_555 1_555
C10 C16 1_555 1_555
C11 C27 1_555 1_555
C12 H14 1_555 1_555
C13 C7 1_555 1_555
C14 C84 1_555 1_555
C15 C46 1_555 1_555
C16 H15 1_555 1_555
C17 H16 1_555 1_555
C18 C38 1_555 1_555
C19 C20 1_555 1_555
C20 H17 1_555 1_555
C21 H18 1_555 1_555
C22 C10 1_555 1_555
H19 C22 1_555 1_555
C23 C3 1_555 1_555
H20 C23 1_555 1_555
C24 C12 1_555 1_555
H21 C24 1_555 1_555
C25 C32 1_555 1_555
C26 C9 1_555 1_555
H22 C26 1_555 1_555
C27 C3 1_555 1_555
C28 C52 1_555 1_555
C29 C21 1_555 1_555
H23 C29 1_555 1_555
C30 C29 1_555 1_555
C31 C19 1_555 1_555
H24 C31 1_555 1_555
C32 C17 1_555 1_555
H25 C32 1_555 1_555
C33 C30 1_555 1_555
C34 C5 1_555 1_555
C35 C30 1_555 1_555
H26 C35 1_555 1_555
C36 H27 1_555 1_555
C37 C16 1_555 1_555
H28 C37 1_555 1_555
C38 N1 1_555 1_555
C39 C83 1_555 1_555
C40 C70 1_555 1_555
C41 H29 1_555 1_555
C42 C81 1_555 1_555
C43 H30 1_555 1_555
C44 C19 1_555 1_555
C45 C57 1_555 1_555
C46 C8 1_555 1_555
C47 C58 1_555 1_555
C48 C33 1_555 1_555
H31 C48 1_555 1_555
C49 C51 1_555 1_555
C50 C25 1_555 1_555
C51 C41 1_555 1_555
H32 C51 1_555 1_555
C52 C26 1_555 1_555
C53 C88 1_555 1_555
C54 C36 1_555 1_555
H33 C54 1_555 1_555
C55 C22 1_555 1_555
H34 C55 1_555 1_555
C56 C49 1_555 1_555
C57 C1 1_555 1_555
C58 H35 1_555 1_555
C59 C47 1_555 1_555
H36 C59 1_555 1_555
C60 H37 1_555 1_555
C61 C7 1_555 1_555
H38 C61 1_555 1_555
C62 C25 1_555 1_555
H39 C62 1_555 1_555
C63 C13 1_555 1_555
H40 C63 1_555 1_555
C64 C28 1_555 1_555
H41 C64 1_555 1_555
C65 C18 1_555 1_555
H42 C65 1_555 1_555
C66 H43 1_555 1_555
C67 C35 1_555 1_555
H44 C67 1_555 1_555
C68 C33 1_555 1_555
H45 C68 1_555 1_555
C69 C37 1_555 1_555
C70 C60 1_555 1_555
C71 C50 1_555 1_555
H46 C71 1_555 1_555
C72 C18 1_555 1_555
H47 C72 1_555 1_555
C73 C45 1_555 1_555
H48 C73 1_555 1_555
C74 C77 1_555 1_555
C75 C34 1_555 1_555
H49 C75 1_555 1_555
C76 C65 1_555 1_555
H50 C76 1_555 1_555
C77 C21 1_555 1_555
C78 C72 1_555 1_555
H51 C78 1_555 1_555
C79 C23 1_555 1_555
C80 C50 1_555 1_555
H52 C80 1_555 1_555
C81 H53 1_555 1_555
C82 C31 1_555 1_555
H54 C82 1_555 1_555
C83 C17 1_555 1_555
C84 C60 1_555 1_555
H55 C84 1_555 1_555
C85 C57 1_555 1_555
H56 C85 1_555 1_555
C86 C14 1_555 1_555
H57 C86 1_555 1_555
C87 C42 1_555 1_555
C88 C80 1_555 1_555
H58 C88 1_555 1_555
C89 C8 1_555 1_555
H59 C89 1_555 1_555
C90 C45 1_555 1_555
H60 C90 1_555 1_555
C91 C42 1_555 1_555
H61 C91 1_555 1_555
C92 C53 1_555 1_555
H62 C92 1_555 1_555
C93 C20 1_555 1_555
H63 C93 1_555 1_555
N1 C56 1_555 1_555
N2 C2 1_555 1_555
N3 C36 1_555 1_555
N4 C56 1_555 1_555
N5 N1 1_555 1_555
H64 N5 1_555 1_555
H65 N5 1_555 1_555
N6 C76 1_555 1_555
N7 C38 1_555 1_555
N8 C10 1_555 1_555
N9 C34 1_555 1_555
O1 C87 1_555 1_555
O2 C11 1_555 1_555
O3 C11 1_555 1_555
O4 C39 1_555 1_555
O5 C15 1_555 1_555
O6 C39 1_555 1_555
O7 C2 1_555 1_555
O8 C15 1_555 1_555
O9 C74 1_555 1_555
O10 C74 1_555 1_555
O11 C44 1_555 1_555
O12 C87 1_555 1_555
O13 C44 1_555 1_555
Cu1 N3 1_555 1_555
Cu2 O6 1_555 1_555
Cu3 O4 1_555 1_555
N6D Cu2 1_555 1_555
O1C Cu2 1_555 1_555
O2G Cu1 1_555 1_555
O3G Cu3 1_555 1_555
O5C Cu3 1_555 1_555
O8C Cu1 1_555 1_555
O9G Cu3 1_555 1_555
O10G Cu2 1_555 1_555
O12C Cu2 1_555 1_555
Cu1K O8 1_555 1_555
Cu1O O2 1_555 1_555
Cu2D N6 1_555 1_555
Cu2K O1 1_555 1_555
Cu2O O10 1_555 1_555
Cu3K O5 1_555 1_555
Cu3O O3 1_555 1_555
C4 N2 1_555 1_555
C6 N2 1_555 1_555
C9 C46 1_555 1_555
C12 C27 1_555 1_555
C13 N8 1_555 1_555
C14 N8 1_555 1_555
C24 C79 1_555 1_555
C28 C61 1_555 1_555
C40 C82 1_555 1_555
C40 C93 1_555 1_555
C41 N3 1_555 1_555
C43 C62 1_555 1_555
C43 C83 1_555 1_555
C47 N9 1_555 1_555
C48 C59 1_555 1_555
C49 C54 1_555 1_555
C52 C89 1_555 1_555
C53 N9 1_555 1_555
C55 C69 1_555 1_555
C58 C68 1_555 1_555
C63 C64 1_555 1_555
C66 C70 1_555 1_555
C66 C86 1_555 1_555
C67 C77 1_555 1_555
C69 C79 1_555 1_555
C71 C92 1_555 1_555
C73 C91 1_555 1_555
C75 C85 1_555 1_555
C78 N6 1_555 1_555
C81 C90 1_555 1_555
N4 N7 1_555 1_555
O7 Cu3 1_555 1_555
O9 Cu3O 1_555 1_555
O11 Cu3 1_555 1_555
O12 Cu2K 1_555 1_555
O13 Cu1 1_555 1_555

#END
