
#######################################################################
#
#                 Cambridge Crystallographic Data Centre
#                                CCDC 
#
#######################################################################
#
# If this CIF has been generated from an entry in the Cambridge 
# Structural Database, then it will include bibliographic, chemical, 
# crystal, experimental, refinement or atomic coordinate data resulting 
# from the CCDC's data processing and validation procedures.
#
#######################################################################

data_OCUPUY
_chemical_formula_moiety         '(C5 H14 O10 P2 V2)n'
_symmetry_cell_setting           orthorhombic
_symmetry_space_group_name_H-M   'I m m m'
_symmetry_Int_Tables_number      71
_space_group_name_Hall           '-I 2 2'
loop_
_symmetry_equiv_pos_site_id
_symmetry_equiv_pos_as_xyz
1 x,y,z
2 1/2+x,1/2+y,1/2+z
3 -x,-y,z
4 -x,y,-z
5 x,-y,-z
6 1/2-x,1/2-y,1/2+z
7 1/2-x,1/2+y,1/2-z
8 1/2+x,1/2-y,1/2-z
9 -x,-y,-z
10 1/2-x,1/2-y,1/2-z
11 x,y,-z
12 x,-y,z
13 -x,y,z
14 1/2+x,1/2+y,1/2-z
15 1/2+x,1/2-y,1/2+z
16 1/2-x,1/2+y,1/2+z
_cell_length_a                   7.4330(4)
_cell_length_b                   9.3673(5)
_cell_length_c                   21.8357(11)
_cell_angle_alpha                90
_cell_angle_beta                 90
_cell_angle_gamma                90
_cell_volume                     1520.36
loop_
_atom_site_label
_atom_site_type_symbol
_atom_site_fract_x
_atom_site_fract_y
_atom_site_fract_z
_atom_site_U_iso_or_equiv
_atom_site_thermal_displace_type
V1 V 0.20623(6) 0.5000 0.255827(18) 0.0071 Uani
P1 P -0.0000 0.23216(6) 0.18855(3) 0.0058 Uani
O1 O 0.0000 0.36095(19) 0.23435(8) 0.0082 Uani
O2 O 0.3077(3) 0.5000 0.19139(9) 0.0162 Uani
O3 O 0.17262(18) 0.14863(14) 0.19650(6) 0.0118 Uani
O4 O -0.0000 0.5000 0.33395(12) 0.0100 Uani
C1 C -0.0000 0.3070(3) 0.11351(11) 0.0118 Uani
H1 H -0.1072 0.3691 0.1097 0.0140 Uiso
H2 H 0.1072 0.3691 0.1097 0.0140 Uiso
C2 C -0.0000 0.2038(3) 0.05932(12) 0.0144 Uani
H3 H 0.1080 0.1421 0.0610 0.0170 Uiso
H4 H -0.1080 0.1421 0.0610 0.0170 Uiso
C3 C -0.0000 0.2897(4) 0.0000 0.0223 Uani
H5 H 0.1073 0.3523 0.0000 0.0270 Uiso
H6 H -0.1073 0.3523 0.0000 0.0270 Uiso
H7 H -0.0000 0.437(4) 0.3531(19) 0.0300 Uiso
V1J V 0.20623(6) 0.5000 -0.255827(18) 0.0071 Uani
V1L V -0.20623(6) 0.5000 0.255827(18) 0.0071 Uani
V1I V 0.29377(6) 0.0000 0.244173(18) 0.0071 Uani
V1M V -0.29377(6) 0.0000 0.244173(18) 0.0071 Uani
V1H V -0.20623(6) 0.5000 -0.255827(18) 0.0071 Uani
V1O V 0.29377(6) 0.0000 -0.244173(18) 0.0071 Uani
V1A V -0.29377(6) 0.0000 -0.244173(18) 0.0071 Uani
P1J P 0.0000 0.23216(6) -0.18855(3) 0.0058 Uani
O1J O 0.0000 0.36095(19) -0.23435(8) 0.0082 Uani
O1K O -0.0000 0.63905(19) 0.23435(8) 0.0082 Uani
O1H O 0.0000 0.63905(19) -0.23435(8) 0.0082 Uani
O2J O 0.3077(3) 0.5000 -0.19139(9) 0.0162 Uani
O3L O -0.17262(18) 0.14863(14) 0.19650(6) 0.0118 Uani
O3J O 0.17262(18) 0.14863(14) -0.19650(6) 0.0118 Uani
O3C O -0.17262(18) 0.14863(14) -0.19650(6) 0.0118 Uani
O3I O 0.32738(18) 0.35137(14) 0.30350(6) 0.0118 Uani
O3F O 0.32738(18) 0.64863(14) 0.30350(6) 0.0118 Uani
O3O O 0.32738(18) 0.64863(14) -0.30350(6) 0.0118 Uani
O3E O 0.32738(18) 0.35137(14) -0.30350(6) 0.0118 Uani
O4J O 0.0000 0.5000 -0.33395(12) 0.0100 Uani
C1J C -0.0000 0.3070(3) -0.11351(11) 0.0118 Uani
H1J H -0.1072 0.3691 -0.1097 0.0140 Uiso
H1C H 0.1072 0.3691 -0.1097 0.0140 Uiso
C2J C -0.0000 0.2038(3) -0.05932(12) 0.0144 Uani
H3J H 0.1080 0.1421 -0.0610 0.0170 Uiso
H3C H -0.1080 0.1421 -0.0610 0.0170 Uiso
H7K H -0.0000 0.563(4) 0.3531(19) 0.0300 Uiso
H7J H 0.0000 0.437(4) -0.3531(19) 0.0300 Uiso
H7H H 0.0000 0.563(4) -0.3531(19) 0.0300 Uiso
O5 O -0.0000 0.2371(2) 0.38060(12) 0.0265 Uani
loop_
_atom_site_aniso_label
_atom_site_aniso_U_11
_atom_site_aniso_U_22
_atom_site_aniso_U_33
_atom_site_aniso_U_23
_atom_site_aniso_U_13
_atom_site_aniso_U_12
V1 0.00636(18) 0.00626(18) 0.00863(18) 0.000 -0.00014(13) 0.000
P1 0.0068(3) 0.0042(2) 0.0064(2) -0.00001(18) 0.000 0.000
O1 0.0083(7) 0.0066(7) 0.0098(7) -0.0022(6) 0.000 0.000
O2 0.0109(9) 0.0260(10) 0.0116(8) 0.000 0.0016(7) 0.000
O3 0.0118 0.0092 0.0143 -0.0021 -0.0028 0.0042
O4 0.0137(12) 0.0081(11) 0.0083(11) 0.000 0.000 0.000
C1 0.0186(11) 0.0093(10) 0.0075(9) 0.0001(8) 0.000 0.000
C2 0.0244(13) 0.0094(10) 0.0094(10) -0.0001(8) 0.000 0.000
C3 0.046(3) 0.0118(16) 0.0090(15) 0.000 0.000 0.000
V1J 0.00636 0.00626 0.00863 0 0.00014 0
V1L 0.00636 0.00626 0.00863 0 0.00014 0
V1I 0.00636 0.00626 0.00863 0 -0.00014 0
V1M 0.00636 0.00626 0.00863 0 0.00014 0
V1H 0.00636 0.00626 0.00863 0 -0.00014 0
V1O 0.00636 0.00626 0.00863 0 0.00014 0
V1A 0.00636 0.00626 0.00863 0 -0.00014 0
P1J 0.0068 0.0042 0.0064 1e-05 0 0
O1J 0.0083 0.0066 0.0098 0.0022 0 0
O1K 0.0083 0.0066 0.0098 0.0022 0 0
O1H 0.0083 0.0066 0.0098 -0.0022 0 0
O2J 0.0109 0.026 0.0116 0 -0.0016 0
O3L 0.0118 0.0092 0.0143 -0.0021 0.0028 -0.0042
O3J 0.0118 0.0092 0.0143 0.0021 0.0028 0.0042
O3C 0.0118 0.0092 0.0143 0.0021 -0.0028 -0.0042
O3I 0.0118 0.0092 0.0143 -0.0021 -0.0028 0.0042
O3F 0.0118 0.0092 0.0143 0.0021 -0.0028 -0.0042
O3O 0.0118 0.0092 0.0143 -0.0021 0.0028 -0.0042
O3E 0.0118 0.0092 0.0143 0.0021 0.0028 0.0042
O4J 0.0137 0.0081 0.0083 0 0 0
C1J 0.0186 0.0093 0.0075 -0.0001 0 0
C2J 0.0244 0.0094 0.0094 0.0001 0 0
O5 0.0382(13) 0.0162(10) 0.0252(12) 0.0075(9) 0.000 0.000
loop_
_geom_bond_atom_site_label_1
_geom_bond_atom_site_label_2
_geom_bond_site_symmetry_1
_geom_bond_site_symmetry_2
V1 O1 1_555 1_555
P1 O1 1_555 1_555
O1 V1L 1_555 1_555
O2 V1 1_555 1_555
O3 P1 1_555 1_555
O4 V1 1_555 1_555
C1 P1 1_555 1_555
H1 C1 1_555 1_555
H2 C1 1_555 1_555
C2 C1 1_555 1_555
H3 C2 1_555 1_555
H4 C2 1_555 1_555
C3 C2 1_555 1_555
H5 C3 1_555 1_555
H6 C3 1_555 1_555
H7 O4 1_555 1_555
V1J O1J 1_555 1_555
V1L O4 1_555 1_555
V1I O3 1_555 1_555
V1M O3L 1_555 1_555
V1H O1J 1_555 1_555
V1O O3J 1_555 1_555
V1A O3C 1_555 1_555
P1J O1J 1_555 1_555
O1K V1 1_555 1_555
O1H V1J 1_555 1_555
O2J V1J 1_555 1_555
O3L P1 1_555 1_555
O3J P1J 1_555 1_555
O3C P1J 1_555 1_555
O3I V1 1_555 1_555
O3F V1 1_555 1_555
O3O V1J 1_555 1_555
O3E V1J 1_555 1_555
O4J V1J 1_555 1_555
C1J P1J 1_555 1_555
H1J C1J 1_555 1_555
H1C C1J 1_555 1_555
C2J C3 1_555 1_555
H3J C2J 1_555 1_555
H3C C2J 1_555 1_555
H7K O4 1_555 1_555
H7J O4J 1_555 1_555
H7H O4J 1_555 1_555
V1L O1K 1_555 1_555
V1H O1H 1_555 1_555
V1H O4J 1_555 1_555
C1J C2J 1_555 1_555

#END
