
#######################################################################
#
#                 Cambridge Crystallographic Data Centre
#                                CCDC 
#
#######################################################################
#
# If this CIF has been generated from an entry in the Cambridge 
# Structural Database, then it will include bibliographic, chemical, 
# crystal, experimental, refinement or atomic coordinate data resulting 
# from the CCDC's data processing and validation procedures.
#
#######################################################################

data_OCURIO
_chemical_formula_moiety         '(C12 H14 N4 O18 P4 V4 2-)n'
_symmetry_cell_setting           monoclinic
_symmetry_space_group_name_H-M   'C 2/c'
_symmetry_Int_Tables_number      15
_space_group_name_Hall           '-C 2yc'
loop_
_symmetry_equiv_pos_site_id
_symmetry_equiv_pos_as_xyz
1 x,y,z
2 1/2+x,1/2+y,z
3 -x,y,1/2-z
4 1/2-x,1/2+y,1/2-z
5 -x,-y,-z
6 1/2-x,1/2-y,-z
7 x,-y,1/2+z
8 1/2+x,1/2-y,1/2+z
_cell_length_a                   15.2345(10)
_cell_length_b                   10.1817(6)
_cell_length_c                   18.6968(12)
_cell_angle_alpha                90
_cell_angle_beta                 103.5240(10)
_cell_angle_gamma                90
_cell_volume                     2819.7
loop_
_atom_site_label
_atom_site_type_symbol
_atom_site_fract_x
_atom_site_fract_y
_atom_site_fract_z
N1 N 0.2641(9) 0.2766(12) 0.0180(7)
N2 N 0.4051(12) 0.2896(10) 0.1091(14)
C4 C 0.3468(10) 0.2035(15) 0.0188(9)
C5 C 0.4038(12) 0.1502(10) 0.0907(8)
C6 C 0.4889(11) 0.0788(13) 0.0812(11)
N1E N 0.2359(9) 0.2234(12) -0.0180(7)
N2E N 0.0949(12) 0.2104(10) -0.1091(14)
C4E C 0.1532(10) 0.2965(15) -0.0188(9)
C5E C 0.0962(12) 0.3498(10) -0.0907(8)
C6E C 0.0111(11) 0.4212(13) -0.0812(11)
V1 V 0.75200(8) -0.04720(8) 0.21718(4)
O1 O 0.6543(2) 0.0084(3) 0.2165(2)
V3 V 0.16193(4) -0.11551(5) 0.08390(3)
P1 P 0.66171(6) -0.33276(8) 0.16590(5)
P2 P 0.28554(7) -0.38174(8) 0.07647(5)
O3 O 0.73127(18) -0.2227(2) 0.17113(14)
O4 O 0.6698(2) -0.4018(2) 0.23971(13)
O5 O 0.28635(19) -0.5033(2) 0.12477(13)
O6 O 0.20163(18) -0.2991(2) 0.07478(14)
O7 O 0.7952(3) -0.1449(3) 0.30972(15)
O8 O 0.05530(19) -0.1354(3) 0.05936(17)
O9 O 0.67459(19) -0.4265(2) 0.10537(13)
O10 O 0.28952(19) -0.4320(3) 0.00036(13)
C1 C 0.5521(3) -0.2609(4) 0.1419(2)
H1 H 0.5458 -0.2008 0.1820
H2 H 0.5477 -0.2071 0.0971
C2 C 0.4727(3) -0.3569(3) 0.1277(2)
H3 H 0.4769 -0.4136 0.1714
H4 H 0.4755 -0.4139 0.0854
C3 C 0.3826(3) -0.2827(3) 0.1114(2)
H5 H 0.3849 -0.2124 0.0753
H6 H 0.3755 -0.2399 0.1573
H7 H 0.785(4) -0.208(5) 0.305(3)
V1C V 0.74800(8) 0.45280(8) 0.28282(4)
V1C_2 V 0.74800(8) -0.54720(8) 0.28282(4)
V1A V 0.25200(8) -0.54720(8) 0.21718(4)
V1B V 1.24800(8) -0.04720(8) 0.28282(4)
V1B_2 V 0.24800(8) -0.04720(8) 0.28282(4)
O1C O 0.8457(2) 0.5084(3) 0.2835(2)
V3C V 1.33807(4) 0.38449(5) 0.41610(3)
V3B V 0.83807(4) -0.11551(5) 0.41610(3)
V3A V 0.66193(4) -0.61551(5) 0.08390(3)
V3E V 0.33807(4) -0.38449(5) -0.08390(3)
V3F V 1.16193(4) 0.11551(5) 0.58390(3)
P1C P 0.83829(6) 0.16724(8) 0.33410(5)
P2C P 1.21446(7) 0.11826(8) 0.42353(5)
O3C O 0.76873(18) 0.2773(2) 0.32887(14)
O4C O 0.8302(2) 0.0982(2) 0.26029(13)
O4_2 O 0.6698(2) 0.5982(2) 0.23971(13)
O5C O 1.21365(19) -0.0033(2) 0.37523(13)
O5A O 0.78635(19) -0.0033(2) 0.12477(13)
O5B O 0.71365(19) 0.4967(2) 0.37523(13)
O6C O 1.29837(18) 0.2009(2) 0.42522(14)
O7B O 0.2048(3) -0.1449(3) 0.19028(15)
O7C O 0.7048(3) 0.3551(3) 0.19028(15)
O7A O 1.2952(3) 0.3551(3) 0.30972(15)
O8C O 1.44470(19) 0.3646(3) 0.44064(17)
O9C O 0.82541(19) 0.0735(2) 0.39463(13)
O9A O 0.17459(19) 0.0735(2) 0.10537(13)
O9B O 1.32541(19) 0.5735(2) 0.39463(13)
O10C O 1.21048(19) 0.0680(3) 0.49964(13)
O10E O 0.21048(19) -0.0680(3) -0.00036(13)
O10F O 1.28952(19) 0.4320(3) 0.50036(13)
C1C C 0.9479(3) 0.2391(4) 0.3581(2)
H1C H 0.9542 0.2992 0.3180
H2C H 0.9523 0.2929 0.4029
C2C C 1.0273(3) 0.1431(3) 0.3723(2)
H3C H 1.0231 0.0864 0.3286
H4C H 1.0245 0.0861 0.4146
C3C C 1.1174(3) 0.2173(3) 0.3886(2)
H5C H 1.1151 0.2876 0.4247
H6C H 1.1245 0.2601 0.3427
H7B H 0.215(4) -0.208(5) 0.195(3)
H7C H 0.715(4) 0.292(5) 0.195(3)
H7A H 1.285(4) 0.292(5) 0.305(3)
loop_
_geom_bond_atom_site_label_1
_geom_bond_atom_site_label_2
_geom_bond_site_symmetry_1
_geom_bond_site_symmetry_2
V1 O1 1_555 1_555
V3 O6 1_555 1_555
P1 O3 1_555 1_555
P2 O5 1_555 1_555
O3 V1 1_555 1_555
O4 P1 1_555 1_555
O5 V1A 1_555 1_555
O6 P2 1_555 1_555
O7 V1 1_555 1_555
O8 V3 1_555 1_555
O9 P1 1_555 1_555
O10 P2 1_555 1_555
C1 P1 1_555 1_555
N1 C4 1_555 1_555
H1 C1 1_555 1_555
H2 C1 1_555 1_555
C2 C1 1_555 1_555
H3 C2 1_555 1_555
H4 C2 1_555 1_555
C3 P2 1_555 1_555
H5 C3 1_555 1_555
H6 C3 1_555 1_555
N2 C5 1_555 1_555
C4 C5 1_555 1_555
C5 C6 1_555 1_555
H7 O7 1_555 1_555
V1C O1C 1_555 1_555
V1C_2 O4 1_555 1_555
V1B O5C 1_555 1_555
V1B_2 O7B 1_555 1_555
V3C O6C 1_555 1_555
V3B O7 1_555 1_555
V3A O9 1_555 1_555
V3E O10 1_555 1_555
V3F O10C 1_555 1_555
P1C O3C 1_555 1_555
P2C O5C 1_555 1_555
O3C V1C 1_555 1_555
O4C V1 1_555 1_555
O4_2 V1C 1_555 1_555
O5A V1 1_555 1_555
O5B V1C 1_555 1_555
O6C P2C 1_555 1_555
O7B V3 1_555 1_555
O7C V1C 1_555 1_555
O7A V3C 1_555 1_555
O8C V3C 1_555 1_555
O9C V3B 1_555 1_555
O9A V3 1_555 1_555
O9B V3C 1_555 1_555
O10C P2C 1_555 1_555
O10E V3 1_555 1_555
O10F V3C 1_555 1_555
C1C P1C 1_555 1_555
N1E N1 1_555 1_555
H1C C1C 1_555 1_555
H2C C1C 1_555 1_555
C2C C1C 1_555 1_555
H3C C2C 1_555 1_555
H4C C2C 1_555 1_555
C3C P2C 1_555 1_555
H5C C3C 1_555 1_555
H6C C3C 1_555 1_555
N2E C5E 1_555 1_555
C4E N1 1_555 1_555
C5E C4E 1_555 1_555
C6E C5E 1_555 1_555
H7B O7B 1_555 1_555
H7C O7C 1_555 1_555
H7A O7A 1_555 1_555
C2 C3 1_555 1_555
C4 N1E 1_555 1_555
P1C O4C 1_555 1_555
P1C O9C 1_555 1_555
N1E C4E 1_555 1_555
C2C C3C 1_555 1_555

#END
