
#######################################################################
#
#                 Cambridge Crystallographic Data Centre
#                                CCDC 
#
#######################################################################
#
# If this CIF has been generated from an entry in the Cambridge 
# Structural Database, then it will include bibliographic, chemical, 
# crystal, experimental, refinement or atomic coordinate data resulting 
# from the CCDC's data processing and validation procedures.
#
#######################################################################

data_OCUSIP
_chemical_formula_moiety         '(C9 H24 N2 O15 P4 V3)n'
_symmetry_cell_setting           monoclinic
_symmetry_space_group_name_H-M   'P 21/c'
_symmetry_Int_Tables_number      14
_space_group_name_Hall           '-P 2ybc'
loop_
_symmetry_equiv_pos_site_id
_symmetry_equiv_pos_as_xyz
1 x,y,z
2 -x,1/2+y,1/2-z
3 -x,-y,-z
4 x,1/2-y,1/2+z
_cell_length_a                   16.3248(15)
_cell_length_b                   13.3361(12)
_cell_length_c                   10.1019(9)
_cell_angle_alpha                90
_cell_angle_beta                 89.994(2)
_cell_angle_gamma                90
_cell_volume                     2199.28
loop_
_atom_site_label
_atom_site_type_symbol
_atom_site_fract_x
_atom_site_fract_y
_atom_site_fract_z
_atom_site_U_iso_or_equiv
_atom_site_thermal_displace_type
V1 V 1.02370(2) 0.54667(3) 1.24768(3) 0.0109 Uani
V2 V 1.25003(2) 0.24997(3) 1.53647(3) 0.0102 Uani
V3 V 1.47634(2) 0.54669(3) 1.74768(3) 0.0112 Uani
P1 P 1.08665(3) 0.39478(4) 1.49759(5) 0.0107 Uani
P2 P 1.08569(3) 0.10619(4) 1.51492(5) 0.0109 Uani
P3 P 1.41433(3) 0.39385(4) 1.51499(5) 0.0112 Uani
P4 P 1.41335(3) 0.10517(4) 1.49760(5) 0.0111 Uani
O1 O 1.07158(10) 0.47978(13) 1.40110(16) 0.0198 Uani
O2 O 1.09529(10) 0.04260(13) 1.64037(15) 0.0196 Uani
O3 O 1.06956(10) 0.65132(13) 1.24107(17) 0.0209 Uani
O4 O 1.07517(9) 0.42831(13) 1.64169(14) 0.0157 Uani
O5 O 1.05471(9) 0.04468(12) 1.39886(15) 0.0153 Uani
O6 O 1.16850(9) 0.15138(12) 1.47893(15) 0.0158 Uani
O7 O 1.32556(9) 0.14287(12) 1.48187(16) 0.0162 Uani
O8 O 1.24994(14) 0.24992(13) 1.69366(17) 0.0244 Uani
O9 O 1.17440(9) 0.35714(12) 1.48201(15) 0.0161 Uani
O10 O 1.33146(9) 0.34857(12) 1.47903(15) 0.0158 Uani
O11 O 1.40478(10) 0.45765(13) 1.64042(16) 0.0202 Uani
O12 O 1.42832(11) 0.02006(13) 1.40120(16) 0.0208 Uani
O13 O 1.43059(10) 0.65138(13) 1.74106(17) 0.0217 Uani
O14 O 1.44518(9) 0.45531(12) 1.39876(15) 0.0155 Uani
O15 O 1.42481(9) 0.07157(13) 1.64180(15) 0.0163 Uani
C1 C 1.01441(14) 0.29675(18) 1.4607(2) 0.0194 Uani
H7 H 0.9598 0.3255 1.4617 0.0230 Uiso
H8 H 1.0248 0.2732 1.3715 0.0230 Uiso
C2 C 1.01507(15) 0.20551(18) 1.5542(2) 0.0208 Uani
H9 H 0.9603 0.1774 1.5560 0.0250 Uiso
H10 H 1.0273 0.2291 1.6428 0.0250 Uiso
C3 C 1.48488(15) 0.29457(19) 1.5543(2) 0.0219 Uani
H11 H 1.5397 0.3227 1.5563 0.0260 Uiso
H12 H 1.4726 0.2709 1.6429 0.0260 Uiso
C4 C 1.48564(14) 0.20328(18) 1.4608(2) 0.0204 Uani
H13 H 1.4752 0.2268 1.3715 0.0250 Uiso
H14 H 1.5402 0.1746 1.4618 0.0250 Uiso
V1C V 1.02370(2) -0.04667(3) 1.74768(3) 0.0109 Uani
V1B V 0.97630(2) 0.45333(3) 1.75232(3) 0.0109 Uani
V1A V 0.97630(2) 0.04667(3) 1.25232(3) 0.0109 Uani
V3C V 1.47634(2) -0.04669(3) 1.24768(3) 0.0112 Uani
V3B V 1.52366(2) 0.45331(3) 1.25232(3) 0.0112 Uani
V3A V 1.52366(2) 0.04669(3) 1.75232(3) 0.0112 Uani
O2C O 1.09529(10) 0.45740(13) 1.14037(15) 0.0196 Uani
O4B O 0.92483(9) 0.57169(13) 1.35831(14) 0.0157 Uani
O5A O 0.94529(9) 0.54468(12) 1.10114(15) 0.0153 Uani
O12C O 1.42832(11) 0.47994(13) 1.90120(16) 0.0208 Uani
O14B O 1.55482(9) 0.54469(12) 1.60124(15) 0.0155 Uani
O15A O 1.57519(9) 0.57157(13) 1.85820(15) 0.0163 Uani
N1 N 0.23761(13) 1.03252(15) 0.2640(2) 0.0210 Uani
H1 H 0.2817 1.0373 0.2126 0.0310 Uiso
H2 H 0.2381 1.0817 0.3235 0.0310 Uiso
H3 H 0.1927 1.0374 0.2144 0.0310 Uiso
N2 N 0.26240(13) 0.46740(15) 0.2641(2) 0.0211 Uani
H4 H 0.2189 0.4631 0.2114 0.0320 Uiso
H5 H 0.2608 0.4183 0.3237 0.0320 Uiso
H6 H 0.3078 0.4619 0.2160 0.0320 Uiso
C5 C 0.23804(16) 0.93439(18) 0.3330(3) 0.0235 Uani
H15 H 0.1903 0.9305 0.3900 0.0280 Uiso
H16 H 0.2863 0.9307 0.3889 0.0280 Uiso
C6 C 0.23777(17) 0.84515(19) 0.2403(3) 0.0264 Uani
H17 H 0.2814 0.8519 0.1758 0.0320 Uiso
H18 H 0.1861 0.8419 0.1932 0.0320 Uiso
C7 C 0.2500(2) 0.75001(19) 0.3211(3) 0.0306 Uani
H19 H 0.2975 0.7591 0.3777 0.0370 Uiso
H20 H 0.2028 0.7410 0.3781 0.0370 Uiso
C8 C 0.26212(17) 0.65483(19) 0.2404(3) 0.0267 Uani
H21 H 0.2184 0.6481 0.1761 0.0320 Uiso
H22 H 0.3138 0.6580 0.1932 0.0320 Uiso
C9 C 0.26189(16) 0.56578(18) 0.3330(3) 0.0234 Uani
H23 H 0.3096 0.5698 0.3900 0.0280 Uiso
H24 H 0.2137 0.5695 0.3889 0.0280 Uiso
loop_
_atom_site_aniso_label
_atom_site_aniso_U_11
_atom_site_aniso_U_22
_atom_site_aniso_U_33
_atom_site_aniso_U_23
_atom_site_aniso_U_13
_atom_site_aniso_U_12
V1 0.01176(17) 0.01129(17) 0.00975(16) 0.00044(12) -0.00053(12) 0.00239(13)
V2 0.00936 0.00871 0.01255 0.00012 -3e-05 5e-05
V3 0.01194 0.01176 0.01004 0.00051 0.00051 -0.00256
P1 0.0099 0.0125 0.0097 0.00084 -0.00014 0.00321
P2 0.0101 0.0124 0.0103 0.00028 0.00017 -0.0035
P3 0.0102 0.013 0.0104 5e-05 -0.00018 -0.00359
P4 0.0099 0.0134 0.0099 -0.00045 0.00015 0.00348
O1 0.0228 0.0215 0.015 0.0065 -0.0003 0.0082
O2 0.0196 0.0257 0.0135 0.0069 -0.0043 -0.0102
O3 0.0206(8) 0.0152(8) 0.0269(9) 0.0019(6) 0.0003(6) -0.0007(6)
O4 0.014 0.0224 0.0107 -0.0009 0.0004 0.0024
O5 0.0152 0.0191 0.0117 -0.0013 -0.003 -0.0035
O6 0.0121 0.0141 0.0212 -0.0025 0.0029 -0.0048
O7 0.0116 0.0143 0.0226 -0.0032 -0.0032 0.0041
O8 0.0356 0.0217 0.0158 0.0001 -0.0004 0.0017
O9 0.0121 0.0149 0.0214 0.0032 0.0033 0.0043
O10 0.0119 0.0144 0.021 0.0022 -0.0031 -0.0045
O11 0.0202 0.0268 0.0137 -0.0069 0.0044 -0.0103
O12 0.0227 0.0245 0.0152 -0.0069 0 0.0093
O13 0.0213 0.0157 0.0281 0.0015 0.0001 0.0005
O14 0.015 0.0198 0.0118 0.0013 0.0026 -0.0037
O15 0.014 0.0237 0.0113 0.0014 -0.0003 0.0024
C1 0.0165 0.0184 0.0234 -0.0021 -0.0046 0.0002
C2 0.02 0.0172 0.0252 -0.0022 0.0093 -0.0004
C3 0.0205 0.0204 0.0247 0.0033 -0.0091 -0.001
C4 0.0169 0.0198 0.0246 0.0034 0.0048 0
V1C 0.01176 0.01129 0.00975 -0.00044 -0.00053 -0.00239
V1B 0.01176 0.01129 0.00975 0.00044 -0.00053 0.00239
V1A 0.01176 0.01129 0.00975 -0.00044 -0.00053 -0.00239
V3C 0.01194 0.01176 0.01004 -0.00051 0.00051 0.00256
V3B 0.01194 0.01176 0.01004 0.00051 0.00051 -0.00256
V3A 0.01194 0.01176 0.01004 -0.00051 0.00051 0.00256
O2C 0.0196 0.0257 0.0135 -0.0069 -0.0043 0.0102
O4B 0.014 0.0224 0.0107 -0.0009 0.0004 0.0024
O5A 0.0152(7) 0.0191(8) 0.0117(7) 0.0013(6) -0.0030(5) 0.0035(6)
O12C 0.0227 0.0245 0.0152 0.0069 0 -0.0093
O14B 0.015 0.0198 0.0118 0.0013 0.0026 -0.0037
O15A 0.014 0.0237 0.0113 -0.0014 -0.0003 -0.0024
N1 0.0251(10) 0.0148(9) 0.0231(10) -0.0007(7) -0.0005(8) 0.0014(8)
N2 0.0252(10) 0.0159(10) 0.0223(10) 0.0014(7) -0.0003(8) 0.0009(8)
C5 0.0253(12) 0.0176(11) 0.0276(12) 0.0020(9) 0.0015(9) 0.0012(9)
C6 0.0267(13) 0.0164(11) 0.0362(14) -0.0023(10) -0.0042(10) 0.0015(10)
C7 0.0354(14) 0.0157(11) 0.0408(15) -0.0006(10) 0.0010(12) -0.0005(10)
C8 0.0279(13) 0.0163(11) 0.0359(14) 0.0018(10) 0.0057(10) 0.0018(10)
C9 0.0258(12) 0.0168(11) 0.0277(12) -0.0013(9) -0.0002(9) 0.0005(9)
loop_
_geom_bond_atom_site_label_1
_geom_bond_atom_site_label_2
_geom_bond_site_symmetry_1
_geom_bond_site_symmetry_2
V1 O1 1_555 1_555
V2 O6 1_555 1_555
V3 O11 1_555 1_555
P1 O1 1_555 1_555
P2 O2 1_555 1_555
P3 O10 1_555 1_555
P4 O7 1_555 1_555
O2 V1C 1_555 1_555
O3 V1 1_555 1_555
O4 P1 1_555 1_555
O5 P2 1_555 1_555
O6 P2 1_555 1_555
O7 V2 1_555 1_555
O8 V2 1_555 1_555
O9 V2 1_555 1_555
O10 V2 1_555 1_555
O11 P3 1_555 1_555
O12 P4 1_555 1_555
O13 V3 1_555 1_555
O14 P3 1_555 1_555
O15 P4 1_555 1_555
N1 H1 1_555 1_555
H2 N1 1_555 1_555
H3 N1 1_555 1_555
N2 H4 1_555 1_555
H5 N2 1_555 1_555
H6 N2 1_555 1_555
C1 P1 1_555 1_555
H7 C1 1_555 1_555
H8 C1 1_555 1_555
C2 P2 1_555 1_555
H9 C2 1_555 1_555
H10 C2 1_555 1_555
C3 P3 1_555 1_555
H11 C3 1_555 1_555
H12 C3 1_555 1_555
C4 P4 1_555 1_555
H13 C4 1_555 1_555
H14 C4 1_555 1_555
C5 N1 1_555 1_555
H15 C5 1_555 1_555
H16 C5 1_555 1_555
C6 C5 1_555 1_555
H17 C6 1_555 1_555
H18 C6 1_555 1_555
C7 C6 1_555 1_555
H19 C7 1_555 1_555
H20 C7 1_555 1_555
C8 C7 1_555 1_555
H21 C8 1_555 1_555
H22 C8 1_555 1_555
C9 N2 1_555 1_555
H23 C9 1_555 1_555
H24 C9 1_555 1_555
V1B O4 1_555 1_555
V1A O5 1_555 1_555
V3C O12 1_555 1_555
V3B O14 1_555 1_555
V3A O15 1_555 1_555
O2C V1 1_555 1_555
O4B V1 1_555 1_555
O5A V1 1_555 1_555
O12C V3 1_555 1_555
O14B V3 1_555 1_555
O15A V3 1_555 1_555
P1 O9 1_555 1_555
C1 C2 1_555 1_555
C3 C4 1_555 1_555
C8 C9 1_555 1_555

#END
