
#######################################################################
#
#                 Cambridge Crystallographic Data Centre
#                                CCDC 
#
#######################################################################
#
# If this CIF has been generated from an entry in the Cambridge 
# Structural Database, then it will include bibliographic, chemical, 
# crystal, experimental, refinement or atomic coordinate data resulting 
# from the CCDC's data processing and validation procedures.
#
#######################################################################

data_MAWFIC
_chemical_formula_moiety         '(C60 H118 Mo12 N5 O44 P1 Zn4)n'
_symmetry_cell_setting           orthorhombic
_symmetry_space_group_name_H-M   'P b c n'
_symmetry_Int_Tables_number      60
_space_group_name_Hall           '-P 2n 2ab'
loop_
_symmetry_equiv_pos_site_id
_symmetry_equiv_pos_as_xyz
1 x,y,z
2 1/2-x,1/2-y,1/2+z
3 1/2+x,1/2-y,-z
4 -x,y,1/2-z
5 -x,-y,-z
6 1/2+x,1/2+y,1/2-z
7 1/2-x,1/2+y,z
8 x,-y,1/2+z
_cell_length_a                   25.686(5)
_cell_length_b                   31.770(5)
_cell_length_c                   25.129(5)
_cell_angle_alpha                90
_cell_angle_beta                 90
_cell_angle_gamma                90
_cell_volume                     20506.4
loop_
_atom_site_label
_atom_site_type_symbol
_atom_site_fract_x
_atom_site_fract_y
_atom_site_fract_z
C1 C 0.125(3) 0.164(2) 0.139(3)
C2 C 0.0062(15) 0.2470(11) 0.3039(14)
H1 H 0.0355 0.2652 0.2959
H2 H -0.0247 0.2645 0.3040
C3 C 0.013(2) 0.2309(16) 0.357(2)
H3 H -0.0200 0.2229 0.3719
H4 H 0.0357 0.2063 0.3560
C4 C 0.0360(18) 0.2627(15) 0.3865(19)
H5 H 0.0529 0.2844 0.3656
H6 H 0.0582 0.2528 0.4151
C5 C -0.0271(19) 0.2751(15) 0.4061(19)
N1 N -0.0000 0.2099(16) 0.2500
C6 C 0.0433(17) 0.1817(15) 0.232(2)
H7 H 0.0293 0.1642 0.2039
H8 H 0.0510 0.1630 0.2617
C7 C 0.105(2) 0.2020(19) 0.209(2)
H9 H 0.1009 0.2229 0.1808
H10 H 0.1266 0.2127 0.2370
C8 C 0.124(3) 0.153(3) 0.185(3)
C1C C -0.125(3) 0.164(2) 0.361(3)
C2C C -0.0062(15) 0.2470(11) 0.1961(14)
H1C H -0.0355 0.2652 0.2041
H2C H 0.0247 0.2645 0.1960
C3C C -0.013(2) 0.2309(16) 0.143(2)
H3C H 0.0200 0.2229 0.1281
H4C H -0.0357 0.2063 0.1440
C4C C -0.0360(18) 0.2627(15) 0.1135(19)
H5C H -0.0529 0.2844 0.1344
H6C H -0.0582 0.2528 0.0849
C5C C 0.0271(19) 0.2751(15) 0.0939(19)
C6C C -0.0433(17) 0.1817(15) 0.268(2)
H7C H -0.0293 0.1642 0.2961
H8C H -0.0510 0.1630 0.2383
C7C C -0.105(2) 0.2020(19) 0.291(2)
H9C H -0.1009 0.2229 0.3192
H10C H -0.1266 0.2127 0.2630
C8C C -0.124(3) 0.153(3) 0.315(3)
Mo1 Mo 0.19570(5) 0.02305(4) 0.40609(5)
Mo2 Mo 0.33500(4) 0.17227(4) 0.33934(5)
Mo3 Mo 0.20759(5) 0.19747(4) 0.36732(5)
Mo4 Mo 0.16164(4) 0.07993(4) 0.52642(5)
Mo5 Mo 0.29985(5) 0.22884(4) 0.45956(5)
Mo6 Mo 0.39511(4) 0.04403(4) 0.46300(5)
Mo7 Mo 0.29508(5) 0.01112(4) 0.38190(5)
Mo8 Mo 0.31215(5) 0.19319(4) 0.55378(5)
Mo9 Mo 0.36471(4) 0.09447(4) 0.56939(5)
Mo10 Mo 0.37327(4) 0.09513(4) 0.34472(5)
Mo11 Mo 0.23416(5) 0.10919(4) 0.59101(5)
Mo12 Mo 0.13532(4) 0.12010(4) 0.40217(5)
P1 P 0.27464(12) 0.11418(10) 0.45043(13)
Zn1 Zn 0.23562(6) 0.09949(5) 0.31447(7)
Zn2 Zn 0.27970(6) 0.01695(5) 0.52239(6)
Zn3 Zn 0.40608(6) 0.15316(5) 0.46173(6)
Zn4 Zn 0.18201(7) 0.18692(5) 0.50137(7)
C9 C 0.2517(6) 0.1063(5) 0.1988(6)
H11 H 0.2746 0.1276 0.2088
C10 C 0.2520(8) 0.0940(6) 0.1478(7)
H12 H 0.2740 0.1070 0.1235
C11 C 0.2189(5) 0.0613(5) 0.1313(6)
C12 C 0.1834(6) 0.0449(6) 0.1700(6)
H13 H 0.1595 0.0242 0.1609
C13 C 0.1856(6) 0.0606(5) 0.2211(7)
H14 H 0.1617 0.0504 0.2457
C14 C 0.2219(6) 0.0416(4) 0.0775(6)
C15 C 0.0817(6) 0.1998(6) 0.5502(8)
H15 H 0.0859 0.1718 0.5603
C16 C 0.0353(7) 0.2210(6) 0.5602(8)
H16 H 0.0082 0.2066 0.5767
C17 C 0.0283(6) 0.2614(5) 0.5469(6)
C18 C 0.0687(5) 0.2824(5) 0.5234(7)
H17 H 0.0662 0.3105 0.5134
C19 C 0.1133(6) 0.2593(5) 0.5153(7)
H18 H 0.1416 0.2735 0.5008
C20 C -0.0230(5) 0.2830(5) 0.5576(6)
N2 N 0.2199(4) 0.0896(4) 0.2374(5)
N3 N 0.1196(4) 0.2203(4) 0.5259(5)
O1 O 0.3484(3) 0.0416(2) 0.5268(3)
O2 O 0.3056(3) 0.0856(3) 0.6074(3)
O3 O 0.3669(3) 0.1516(3) 0.5778(4)
O4 O 0.2493(3) 0.2115(3) 0.5132(3)
O5 O 0.2769(3) 0.1565(2) 0.4194(3)
O6 O 0.3133(3) 0.0836(3) 0.4231(3)
O7 O 0.2886(3) 0.1237(3) 0.5085(3)
O8 O 0.2196(3) 0.0950(3) 0.4474(3)
O9 O 0.2042(4) 0.1020(3) 0.6490(4)
O10 O 0.0790(4) 0.1343(3) 0.3736(4)
O11 O 0.3296(4) 0.2349(3) 0.5898(4)
O12 O 0.1631(4) 0.2259(4) 0.3331(4)
O13 O 0.4184(3) 0.0695(3) 0.4016(3)
O14 O 0.3683(4) 0.1909(4) 0.2870(4)
O15 O 0.1685(4) -0.0223(3) 0.3833(4)
O16 O 0.1146(4) 0.0676(4) 0.5718(4)
O17 O 0.3152(4) 0.2786(3) 0.4733(5)
O18 O 0.3408(3) 0.2249(3) 0.3891(4)
O19 O 0.1163(4) 0.1085(3) 0.4704(4)
O20 O 0.2921(4) -0.0369(3) 0.3540(4)
O21 O 0.2656(3) 0.1637(3) 0.6015(4)
O22 O 0.3556(3) 0.0036(3) 0.4334(4)
O23 O 0.1440(4) 0.0653(3) 0.3796(4)
O24 O 0.2631(4) 0.1919(3) 0.3220(4)
O25 O 0.2356(3) 0.2355(3) 0.4130(4)
O26 O 0.2562(3) 0.0061(3) 0.4493(3)
O27 O 0.2267(3) 0.0560(3) 0.5521(3)
O28 O 0.4013(3) 0.1009(3) 0.4989(3)
O29 O 0.3865(3) 0.1463(3) 0.3864(3)
O30 O 0.3085(3) 0.1173(3) 0.3157(4)
O31 O 0.3555(3) 0.1944(2) 0.4902(3)
O32 O 0.1579(3) 0.0257(3) 0.4794(4)
O33 O 0.1889(3) 0.1382(3) 0.3470(3)
O34 O 0.1640(3) 0.1747(3) 0.4274(4)
O35 O 0.3429(4) 0.0393(3) 0.3375(4)
O36 O 0.2397(3) 0.0445(3) 0.3480(4)
O37 O 0.1813(3) 0.1372(3) 0.5456(4)
O38 O 0.4475(4) 0.0186(3) 0.4856(4)
O39 O 0.4127(4) 0.0770(3) 0.6093(4)
O40 O 0.4178(3) 0.0966(3) 0.2941(3)
O41 O 0.2692(4) 0.0338(3) 0.0634(4)
O42 O 0.1812(4) 0.0334(4) 0.0537(4)
O43 O -0.0565(4) 0.2641(3) 0.5825(4)
O44 O -0.0258(4) 0.3201(3) 0.5374(4)
Zn2G Zn 0.27970(6) -0.01695(5) 0.02239(6)
Zn3B Zn -0.09392(6) 0.34684(5) 0.53827(6)
O41G O 0.2692(4) -0.0338(3) 0.5634(4)
O44B O 0.4742(4) 0.1799(3) 0.4626(4)
C21 C 0.0342(6) 0.4080(6) 0.6566(8)
H19 H 0.0055 0.4052 0.6318
H20 H 0.0196 0.4161 0.6907
C22 C 0.0598(8) 0.3643(7) 0.6632(8)
H21 H 0.0773 0.3568 0.6303
H22 H 0.0859 0.3658 0.6910
C23 C 0.0236(9) 0.3324(6) 0.6763(9)
H23 H -0.0025 0.3313 0.6484
H24 H 0.0060 0.3404 0.7089
C24 C 0.0455(8) 0.2888(6) 0.6835(9)
H25 H 0.0518 0.2763 0.6493
H26 H 0.0210 0.2718 0.7029
H27 H 0.0775 0.2904 0.7030
C25 C 0.1067(6) 0.4553(5) 0.6805(6)
H28 H 0.1278 0.4306 0.6876
H29 H 0.0865 0.4607 0.7124
C26 C 0.1440(7) 0.4928(5) 0.6727(7)
H30 H 0.1648 0.4883 0.6410
H31 H 0.1240 0.5184 0.6678
C27 C 0.1790(7) 0.4976(5) 0.7197(7)
H32 H 0.1581 0.5033 0.7510
H33 H 0.1974 0.4713 0.7256
C28 C 0.2155(8) 0.5302(6) 0.7129(8)
H34 H 0.2319 0.5275 0.6787
H35 H 0.2414 0.5286 0.7403
H36 H 0.1981 0.5569 0.7149
C29 C 0.0987(7) 0.4337(6) 0.5865(7)
H37 H 0.1165 0.4590 0.5747
H38 H 0.1252 0.4130 0.5950
C30 C 0.0670(9) 0.4172(6) 0.5408(7)
H39 H 0.0415 0.4382 0.5305
H40 H 0.0484 0.3922 0.5521
C31 C 0.1010(9) 0.4066(7) 0.4933(10)
H41 H 0.1213 0.4311 0.4829
H42 H 0.1249 0.3840 0.5023
C32 C 0.0674(14) 0.3938(11) 0.4502(13)
H43 H 0.0506 0.3678 0.4594
H44 H 0.0878 0.3899 0.4185
H45 H 0.0416 0.4151 0.4441
C33 C 0.0328(6) 0.4830(6) 0.6254(8)
H46 H 0.0541 0.5054 0.6108
H47 H 0.0082 0.4748 0.5980
C34 C 0.0039(7) 0.4998(6) 0.6698(7)
H48 H 0.0279 0.5112 0.6958
H49 H -0.0157 0.4773 0.6866
C35 C -0.0330(9) 0.5338(7) 0.6520(9)
H50 H -0.0125 0.5570 0.6384
H51 H -0.0534 0.5229 0.6226
C36 C -0.0692(10) 0.5506(9) 0.6922(10)
H52 H -0.0842 0.5277 0.7120
H53 H -0.0963 0.5662 0.6749
H54 H -0.0506 0.5688 0.7161
N4 N 0.0693(4) 0.4441(4) 0.6371(5)
C37 C 0.2438(11) 0.1802(7) 0.8375(11)
H55 H 0.2187 0.1991 0.8536
H56 H 0.2780 0.1930 0.8410
C38 C 0.2433(12) 0.1378(7) 0.8682(14)
H57 H 0.2622 0.1166 0.8482
H58 H 0.2077 0.1281 0.8725
C39 C 0.2695(15) 0.1438(13) 0.9248(16)
H59 H 0.3070 0.1409 0.9221
H60 H 0.2617 0.1716 0.9387
C40 C 0.248(2) 0.1117(17) 0.9598(18)
H61 H 0.2208 0.0970 0.9419
H62 H 0.2349 0.1247 0.9914
H63 H 0.2754 0.0922 0.9692
C41 C 0.2713(10) 0.1531(8) 0.7484(11)
H64 H 0.2614 0.1532 0.7111
H65 H 0.2717 0.1240 0.7601
C42 C 0.3274(10) 0.1707(10) 0.7528(13)
H66 H 0.3290 0.1989 0.7379
H67 H 0.3379 0.1721 0.7898
C43 C 0.3620(12) 0.1426(9) 0.7235(11)
H68 H 0.3494 0.1180 0.7082
C44 C 0.4144(14) 0.1536(9) 0.7190(16)
H69 H 0.4218 0.1617 0.6830
H70 H 0.4356 0.1299 0.7285
H71 H 0.4219 0.1766 0.7425
C45 C 0.1782(11) 0.1545(9) 0.7713(12)
H72 H 0.1817 0.1265 0.7863
H73 H 0.1740 0.1507 0.7332
C46 C 0.1228(15) 0.1724(12) 0.7927(15)
C47 C 0.083(3) 0.142(2) 0.794(3)
C48 C 0.032(3) 0.132(2) 0.826(3)
C49 C 0.2279(9) 0.2201(7) 0.7581(9)
H74 H 0.2611 0.2336 0.7651
H75 H 0.2019 0.2348 0.7791
C50 C 0.2148(12) 0.2273(9) 0.6992(10)
H76 H 0.2385 0.2105 0.6779
H77 H 0.1799 0.2169 0.6927
C51 C 0.2178(11) 0.2725(9) 0.6802(12)
H78 H 0.2276 0.2946 0.7023
C52 C 0.2050(11) 0.2779(9) 0.6283(11)
H79 H 0.2163 0.2540 0.6081
H80 H 0.2216 0.3028 0.6149
H81 H 0.1679 0.2809 0.6252
N5 N 0.2312(8) 0.1756(7) 0.7786(9)
loop_
_geom_bond_atom_site_label_1
_geom_bond_atom_site_label_2
_geom_bond_site_symmetry_1
_geom_bond_site_symmetry_2
C1 C8 1_555 1_555
C2 H1 1_555 1_555
H2 C2 1_555 1_555
C3 C2 1_555 1_555
H3 C3 1_555 1_555
H4 C3 1_555 1_555
C4 C3 1_555 1_555
H5 C4 1_555 1_555
H6 C4 1_555 1_555
C5 C4 1_555 1_555
N1 C2 1_555 1_555
C6 N1 1_555 1_555
H7 C6 1_555 1_555
H8 C6 1_555 1_555
C7 C6 1_555 1_555
H9 C7 1_555 1_555
H10 C7 1_555 1_555
C8 C7 1_555 1_555
Mo1 Mo7 1_555 1_555
Mo2 Mo10 1_555 1_555
Mo3 O5 1_555 1_555
Mo4 Mo11 1_555 1_555
Mo5 Mo8 1_555 1_555
Mo6 O1 1_555 1_555
Mo7 O6 1_555 1_555
Mo8 O3 1_555 1_555
Mo9 O1 1_555 1_555
Mo10 O6 1_555 1_555
Mo11 O2 1_555 1_555
Mo12 O8 1_555 1_555
P1 O5 1_555 1_555
Zn1 N2 1_555 1_555
Zn2 O1 1_555 1_555
Zn3 O28 1_555 1_555
Zn4 N3 1_555 1_555
C9 H11 1_555 1_555
C10 C9 1_555 1_555
H12 C10 1_555 1_555
C11 C10 1_555 1_555
C12 C11 1_555 1_555
H13 C12 1_555 1_555
C13 C12 1_555 1_555
H14 C13 1_555 1_555
C14 C11 1_555 1_555
C15 H15 1_555 1_555
C16 C15 1_555 1_555
H16 C16 1_555 1_555
C17 C16 1_555 1_555
C18 C17 1_555 1_555
H17 C18 1_555 1_555
C19 C18 1_555 1_555
H18 C19 1_555 1_555
C20 C17 1_555 1_555
N2 C9 1_555 1_555
N3 C15 1_555 1_555
O2 Mo9 1_555 1_555
O3 Mo9 1_555 1_555
O4 Mo5 1_555 1_555
O5 Mo2 1_555 1_555
O6 P1 1_555 1_555
O7 Mo8 1_555 1_555
O8 Mo1 1_555 1_555
O9 Mo11 1_555 1_555
O10 Mo12 1_555 1_555
O11 Mo8 1_555 1_555
O12 Mo3 1_555 1_555
O13 Mo6 1_555 1_555
O14 Mo2 1_555 1_555
O15 Mo1 1_555 1_555
O16 Mo4 1_555 1_555
O17 Mo5 1_555 1_555
O18 Mo2 1_555 1_555
O19 Mo4 1_555 1_555
O20 Mo7 1_555 1_555
O21 Mo8 1_555 1_555
O22 Mo6 1_555 1_555
O23 Mo1 1_555 1_555
O24 Mo2 1_555 1_555
O25 Mo3 1_555 1_555
O26 Mo1 1_555 1_555
O27 Mo4 1_555 1_555
O28 Mo6 1_555 1_555
O29 Mo2 1_555 1_555
O30 Mo2 1_555 1_555
O31 Mo5 1_555 1_555
O32 Mo1 1_555 1_555
O33 Mo3 1_555 1_555
O34 Mo3 1_555 1_555
O35 Mo7 1_555 1_555
O36 Mo1 1_555 1_555
O37 Mo4 1_555 1_555
O38 Mo6 1_555 1_555
O39 Mo9 1_555 1_555
O40 Mo10 1_555 1_555
O41 C14 1_555 1_555
O42 C14 1_555 1_555
O43 C20 1_555 1_555
O44 C20 1_555 1_555
C21 H19 1_555 1_555
H20 C21 1_555 1_555
C22 C21 1_555 1_555
H21 C22 1_555 1_555
H22 C22 1_555 1_555
C23 C22 1_555 1_555
H23 C23 1_555 1_555
H24 C23 1_555 1_555
C24 C23 1_555 1_555
H25 C24 1_555 1_555
H26 C24 1_555 1_555
H27 C24 1_555 1_555
C25 H28 1_555 1_555
H29 C25 1_555 1_555
C26 C25 1_555 1_555
H30 C26 1_555 1_555
H31 C26 1_555 1_555
C27 C26 1_555 1_555
H32 C27 1_555 1_555
H33 C27 1_555 1_555
C28 C27 1_555 1_555
H34 C28 1_555 1_555
H35 C28 1_555 1_555
H36 C28 1_555 1_555
C29 H37 1_555 1_555
H38 C29 1_555 1_555
C30 C29 1_555 1_555
H39 C30 1_555 1_555
H40 C30 1_555 1_555
C31 C30 1_555 1_555
H41 C31 1_555 1_555
H42 C31 1_555 1_555
C32 C31 1_555 1_555
H43 C32 1_555 1_555
H44 C32 1_555 1_555
H45 C32 1_555 1_555
C33 H46 1_555 1_555
H47 C33 1_555 1_555
C34 C33 1_555 1_555
H48 C34 1_555 1_555
H49 C34 1_555 1_555
C35 C34 1_555 1_555
H50 C35 1_555 1_555
H51 C35 1_555 1_555
C36 C35 1_555 1_555
H52 C36 1_555 1_555
H53 C36 1_555 1_555
H54 C36 1_555 1_555
N4 C21 1_555 1_555
C37 H55 1_555 1_555
H56 C37 1_555 1_555
C38 C37 1_555 1_555
H57 C38 1_555 1_555
H58 C38 1_555 1_555
C39 C38 1_555 1_555
H59 C39 1_555 1_555
H60 C39 1_555 1_555
C40 C39 1_555 1_555
H61 C40 1_555 1_555
H62 C40 1_555 1_555
H63 C40 1_555 1_555
C41 H64 1_555 1_555
H65 C41 1_555 1_555
C42 C41 1_555 1_555
H66 C42 1_555 1_555
H67 C42 1_555 1_555
C43 C42 1_555 1_555
H68 C43 1_555 1_555
C44 C43 1_555 1_555
H69 C44 1_555 1_555
H70 C44 1_555 1_555
H71 C44 1_555 1_555
C45 H72 1_555 1_555
H73 C45 1_555 1_555
C46 C45 1_555 1_555
C47 C46 1_555 1_555
C48 C47 1_555 1_555
C49 H74 1_555 1_555
H75 C49 1_555 1_555
C50 C49 1_555 1_555
H76 C50 1_555 1_555
H77 C50 1_555 1_555
C51 C50 1_555 1_555
H78 C51 1_555 1_555
C52 C51 1_555 1_555
H79 C52 1_555 1_555
H80 C52 1_555 1_555
H81 C52 1_555 1_555
N5 C37 1_555 1_555
C1C C8C 1_555 1_555
C2C N1 1_555 1_555
H1C C2C 1_555 1_555
H2C C2C 1_555 1_555
C3C C2C 1_555 1_555
H3C C3C 1_555 1_555
H4C C3C 1_555 1_555
C4C C3C 1_555 1_555
H5C C4C 1_555 1_555
H6C C4C 1_555 1_555
C5C C4C 1_555 1_555
C6C N1 1_555 1_555
H7C C6C 1_555 1_555
H8C C6C 1_555 1_555
C7C C6C 1_555 1_555
H9C C7C 1_555 1_555
H10C C7C 1_555 1_555
C8C C7C 1_555 1_555
Zn2G O41 1_555 1_555
Zn3B O44 1_555 1_555
O41G Zn2 1_555 1_555
O44B Zn3 1_555 1_555
Mo3 O24 1_555 1_555
Mo4 O8 1_555 1_555
Mo4 O32 1_555 1_555
Mo5 O5 1_555 1_555
Mo5 O18 1_555 1_555
Mo5 O25 1_555 1_555
Mo7 O22 1_555 1_555
Mo7 O26 1_555 1_555
Mo7 O36 1_555 1_555
Mo8 O4 1_555 1_555
Mo8 O31 1_555 1_555
Mo9 O28 1_555 1_555
Mo10 O13 1_555 1_555
Mo10 O29 1_555 1_555
Mo10 O30 1_555 1_555
Mo10 O35 1_555 1_555
Mo11 O7 1_555 1_555
Mo11 O21 1_555 1_555
Mo11 O27 1_555 1_555
Mo11 O37 1_555 1_555
Mo12 O19 1_555 1_555
Mo12 O23 1_555 1_555
Mo12 O33 1_555 1_555
Mo12 O34 1_555 1_555
P1 O7 1_555 1_555
P1 O8 1_555 1_555
Zn1 O30 1_555 1_555
Zn1 O33 1_555 1_555
Zn1 O36 1_555 1_555
Zn2 O26 1_555 1_555
Zn2 O27 1_555 1_555
Zn3 O29 1_555 1_555
Zn3 O31 1_555 1_555
Zn4 O4 1_555 1_555
Zn4 O34 1_555 1_555
Zn4 O37 1_555 1_555
C13 N2 1_555 1_555
C19 N3 1_555 1_555
C25 N4 1_555 1_555
C29 N4 1_555 1_555
C33 N4 1_555 1_555
C41 N5 1_555 1_555
C45 N5 1_555 1_555
C49 N5 1_555 1_555

#END
