
#######################################################################
#
#                 Cambridge Crystallographic Data Centre
#                                CCDC 
#
#######################################################################
#
# If this CIF has been generated from an entry in the Cambridge 
# Structural Database, then it will include bibliographic, chemical, 
# crystal, experimental, refinement or atomic coordinate data resulting 
# from the CCDC's data processing and validation procedures.
#
#######################################################################

data_MAWFEY
_chemical_formula_moiety         '(C56 H92 Mo12 N4 O45 P1 Zn4 1-)n'
_symmetry_cell_setting           tetragonal
_symmetry_space_group_name_H-M   'I 41/a c d'
_symmetry_Int_Tables_number      142
_space_group_name_Hall           '-I 4bd 2c'
loop_
_symmetry_equiv_pos_site_id
_symmetry_equiv_pos_as_xyz
1 x,y,z
2 1/2-x,-y,1/2+z
3 1/4-y,3/4+x,1/4+z
4 1/4+y,1/4-x,3/4+z
5 1/2-x,y,-z
6 x,-y,1/2-z
7 1/4+y,3/4+x,3/4-z
8 1/4-y,1/4-x,1/4-z
9 1/2+x,1/2+y,1/2+z
10 -x,1/2-y,z
11 3/4-y,1/4+x,3/4+z
12 3/4+y,3/4-x,1/4+z
13 -x,1/2+y,1/2-z
14 1/2+x,1/2-y,-z
15 3/4+y,1/4+x,1/4-z
16 3/4-y,3/4-x,3/4-z
17 -x,-y,-z
18 1/2+x,y,1/2-z
19 3/4+y,1/4-x,3/4-z
20 3/4-y,3/4+x,1/4-z
21 1/2+x,-y,z
22 -x,y,1/2+z
23 3/4-y,1/4-x,1/4+z
24 3/4+y,3/4+x,3/4+z
25 1/2-x,1/2-y,1/2-z
26 x,1/2+y,-z
27 1/4+y,3/4-x,1/4-z
28 1/4-y,1/4+x,3/4-z
29 x,1/2-y,1/2+z
30 1/2-x,1/2+y,z
31 1/4-y,3/4-x,3/4+z
32 1/4+y,1/4+x,1/4+z
_cell_length_a                   29.4436(11)
_cell_length_b                   29.4436(11)
_cell_length_c                   54.543(4)
_cell_angle_alpha                90
_cell_angle_beta                 90
_cell_angle_gamma                90
_cell_volume                     47284.7
loop_
_atom_site_label
_atom_site_type_symbol
_atom_site_fract_x
_atom_site_fract_y
_atom_site_fract_z
O1 O 0.8007(2) 0.4106(2) 0.10722(10)
O2 O 0.8864(2) 0.4090(2) 0.10965(10)
O3 O 0.8484(2) 0.4629(2) 0.06917(12)
O4 O 0.8475(2) 0.3682(2) 0.06551(11)
O5 O 0.9385(2) 0.4651(2) 0.14589(11)
O6 O 0.7918(2) 0.5107(2) 0.10853(12)
O7 O 0.9017(2) 0.5099(2) 0.11461(12)
O8 O 0.8948(3) 0.3112(2) 0.10490(12)
O9 O 0.8816(2) 0.4920(2) 0.18125(11)
O10 O 0.7578(2) 0.4609(3) 0.07188(11)
O11 O 0.8395(2) 0.5420(2) 0.14593(13)
O12 O 0.9289(3) 0.5599(3) 0.15762(14)
O13 O 0.9791(2) 0.4101(3) 0.11300(13)
O14 O 0.8408(3) 0.2629(3) 0.06067(16)
O15 O 0.7441(3) 0.5565(3) 0.14837(15)
O16 O 0.9365(2) 0.4602(3) 0.07796(12)
O17 O 0.7962(3) 0.4215(3) 0.03024(12)
O18 O 0.9069(3) 0.4183(3) 0.03353(13)
O19 O 0.9370(2) 0.3667(3) 0.07359(12)
N1 N 0.8550(3) 0.0673(3) -0.07045(17)
O20 O 0.9979(3) 0.5022(3) 0.10851(15)
O21 O 0.9926(3) 0.3161(3) 0.10584(16)
C1 C 0.8731(5) 0.2226(5) 0.0281(2)
C2 C 0.8332(5) 0.2041(5) 0.0222(3)
H1 H 0.8071 0.2128 0.0306
O22 O 0.9070(5) 0.2869(5) 0.0485(3)
C3 C 0.8755(5) 0.2567(5) 0.0483(3)
C4 C 0.8616(5) 0.1320(4) -0.0328(2)
C5 C 0.8303(5) 0.1706(5) 0.0027(3)
H2 H 0.8040 0.1534 0.0009
C6 C 0.8662(5) 0.1642(5) -0.0129(3)
C7 C 0.8281(6) 0.1006(6) -0.0334(3)
H3 H 0.8065 0.1005 -0.0209
C8 C 0.8247(6) 0.0667(6) -0.0531(3)
H4 H 0.8015 0.0452 -0.0531
C9 C 0.9085(8) 0.2155(7) 0.0126(4)
H5 H 0.9364 0.2292 0.0157
C10 C 0.8840(7) 0.1338(7) -0.0525(4)
H6 H 0.9032 0.1584 -0.0550
C11 C 0.8812(7) 0.0985(7) -0.0716(4)
H7 H 0.9004 0.1005 -0.0851
C12 C 0.9028(8) 0.1867(7) -0.0086(4)
H8 H 0.9268 0.1842 -0.0197
Mo1 Mo 0.80364(3) 0.41714(3) 0.060310(14)
Mo2 Mo 0.77817(3) 0.51159(3) 0.143963(15)
Mo3 Mo 0.89314(3) 0.41548(3) 0.062915(14)
Mo4 Mo 0.94774(3) 0.35011(4) 0.109268(17)
Mo5 Mo 0.95346(3) 0.46646(3) 0.109604(16)
Mo6 Mo 0.89442(3) 0.51558(3) 0.151261(15)
Zn1 Zn 0.83976(4) 0.31166(4) 0.08474(2)
Zn2 Zn 0.85080(4) 0.51438(4) 0.09252(2)
P1 P 0.84180(7) 0.40820(7) 0.1250
O1G O 0.8394(2) 0.4493(2) 0.14278(10)
O2G O 0.8410(2) 0.3636(2) 0.14035(10)
O3G O 0.7871(2) 0.4016(2) 0.18083(12)
O4G O 0.8818(2) 0.4025(2) 0.18449(11)
O5G O 0.7849(2) 0.3115(2) 0.10411(11)
O6G O 0.7393(2) 0.4582(2) 0.14147(12)
O7G O 0.7401(2) 0.3483(2) 0.13539(12)
O8G O 0.9388(2) 0.3552(3) 0.14510(12)
O9G O 0.7580(2) 0.3684(2) 0.06875(11)
O10G O 0.7891(3) 0.4922(2) 0.17812(11)
O11G O 0.7080(2) 0.4105(2) 0.10407(13)
O12G O 0.6901(3) 0.3211(3) 0.09238(14)
O13G O 0.8399(3) 0.2709(2) 0.13700(13)
O14G O 0.9871(3) 0.4092(3) 0.18933(16)
O15G O 0.6935(3) 0.5059(3) 0.10163(15)
O16G O 0.7898(3) 0.3135(2) 0.17204(12)
O17G O 0.8285(3) 0.4538(3) 0.21976(12)
O18G O 0.8317(3) 0.3431(3) 0.21647(13)
O19G O 0.8833(3) 0.3130(2) 0.17641(12)
N1G N 1.1827(3) 0.3950(3) 0.32045(17)
O20G O 0.7478(3) 0.2521(3) 0.14149(15)
O21G O 0.9339(3) 0.2574(3) 0.14416(16)
C1G C 1.0274(5) 0.3769(5) 0.2219(2)
C2G C 1.0459(5) 0.4168(5) 0.2278(3)
H1G H 1.0372 0.4429 0.2194
O22G O 0.9631(5) 0.3430(5) 0.2015(3)
C3G C 0.9933(5) 0.3745(5) 0.2017(3)
C4G C 1.1180(4) 0.3884(5) 0.2828(2)
C5G C 1.0794(5) 0.4197(5) 0.2473(3)
H2G H 1.0966 0.4460 0.2491
C6G C 1.0858(5) 0.3838(5) 0.2629(3)
C7G C 1.1494(6) 0.4219(6) 0.2834(3)
H3G H 1.1495 0.4435 0.2709
C8G C 1.1833(6) 0.4253(6) 0.3031(3)
H4G H 1.2048 0.4485 0.3031
C9G C 1.0345(7) 0.3415(8) 0.2374(4)
H5G H 1.0208 0.3136 0.2343
C10G C 1.1162(7) 0.3660(7) 0.3025(4)
H6G H 1.0916 0.3468 0.3050
C11G C 1.1515(7) 0.3688(7) 0.3216(4)
H7G H 1.1495 0.3496 0.3351
C12G C 1.0633(7) 0.3472(8) 0.2586(4)
H8G H 1.0658 0.3232 0.2697
Mo1G Mo 0.83286(3) 0.44636(3) 0.189690(14)
Mo2G Mo 0.73841(3) 0.47183(3) 0.106037(15)
Mo3G Mo 0.83452(3) 0.35686(3) 0.187085(14)
Mo4G Mo 0.89989(4) 0.30226(3) 0.140732(17)
Mo5G Mo 0.78354(3) 0.29654(3) 0.140396(16)
Mo6G Mo 0.73442(3) 0.35558(3) 0.098739(15)
Zn1G Zn 0.93834(4) 0.41024(4) 0.16526(2)
Zn2G Zn 0.73562(4) 0.39920(4) 0.15748(2)
N1V N 0.6827(3) 0.3950(3) 0.17955(17)
N1Y N 0.8550(3) 0.5673(3) 0.07045(17)
Zn2V Zn 1.23562(4) 0.39920(4) 0.34252(2)
Zn2Y Zn 0.85080(4) 0.01438(4) -0.09252(2)
N2 N 0.8877(4) 0.4158(4) 0.9586(2)
C13 C 0.8676(6) 0.4529(6) 0.9733(3)
H9 H 0.8742 0.4465 0.9904
H10 H 0.8835 0.4806 0.9691
C14 C 0.9342(6) 0.4047(6) 0.9678(3)
H11 H 0.9452 0.3782 0.9590
H12 H 0.9319 0.3964 0.9850
C15 C 0.8898(6) 0.4292(6) 0.9319(3)
H13 H 0.8588 0.4335 0.9264
H14 H 0.9046 0.4586 0.9310
C16 C 0.9690(6) 0.4421(6) 0.9653(3)
H15 H 0.9570 0.4697 0.9726
H16 H 0.9744 0.4480 0.9481
C17 C 1.0147(7) 0.4301(7) 0.9779(4)
H17 H 1.0093 0.4251 0.9952
H18 H 1.0261 0.4019 0.9710
C18 C 0.8055(7) 0.5068(7) 0.9795(4)
H19 H 0.8206 0.5129 0.9950
H20 H 0.7731 0.5062 0.9827
C19 C 0.8190(7) 0.4622(7) 0.9714(4)
H21 H 0.8098 0.4584 0.9545
H22 H 0.8027 0.4397 0.9811
C20 C 0.9079(7) 0.4225(7) 0.8894(4)
H23 H 0.8762 0.4283 0.8855
H24 H 0.9237 0.4514 0.8893
C21 C 1.0488(7) 0.4648(7) 0.9751(4)
H25 H 1.0763 0.4554 0.9831
H26 H 1.0382 0.4925 0.9824
H27 H 1.0546 0.4697 0.9580
C22 C 0.8567(7) 0.3744(7) 0.9612(4)
H28 H 0.8267 0.3824 0.9552
H29 H 0.8683 0.3503 0.9508
C23 C 0.9110(8) 0.4012(7) 0.9151(4)
H30 H 0.8966 0.3716 0.9150
H31 H 0.9426 0.3972 0.9196
C24 C 0.8523(7) 0.3572(7) 0.9858(4)
H32 H 0.8485 0.3825 0.9971
H33 H 0.8798 0.3413 0.9903
C25 C 0.8151(9) 0.5457(9) 0.9626(5)
H34 H 0.8047 0.5734 0.9699
H35 H 0.7995 0.5410 0.9473
H36 H 0.8471 0.5476 0.9596
C26 C 0.8058(11) 0.2901(10) 0.9714(5)
H37 H 0.7782 0.2745 0.9755
H38 H 0.8308 0.2693 0.9722
H39 H 0.8035 0.3023 0.9552
C27 C 0.8130(10) 0.3260(10) 0.9883(5)
H40 H 0.8149 0.3124 1.0045
H41 H 0.7858 0.3446 0.9881
C28 C 0.9267(13) 0.3942(13) 0.8715(7)
H42 H 0.9244 0.4085 0.8558
H43 H 0.9105 0.3659 0.8713
H44 H 0.9580 0.3887 0.8753
N3 N 0.6316(4) 0.6184(4) 0.1250
C29 C 0.6763(5) 0.6230(5) 0.1137(3)
H45 H 0.6793 0.5987 0.1018
H46 H 0.6988 0.6175 0.1263
C30 C 0.6887(7) 0.6658(7) 0.1012(4)
H47 H 0.6683 0.6701 0.0874
H48 H 0.6837 0.6907 0.1125
C31 C 0.5934(7) 0.6260(7) 0.1050(3)
H49 H 0.5640 0.6262 0.1131
H50 H 0.5978 0.6555 0.0975
C32 C 0.5931(9) 0.5900(8) 0.0852(5)
H51 H 0.5787 0.5621 0.0906
H52 H 0.6234 0.5834 0.0792
C33 C 0.5611(9) 0.6180(9) 0.0640(5)
H53 H 0.5325 0.6287 0.0706
H54 H 0.5774 0.6427 0.0562
C34 C 0.7512(13) 0.6385(12) 0.0766(6)
H55 H 0.7819 0.6477 0.0734
H56 H 0.7342 0.6386 0.0616
H57 H 0.7511 0.6084 0.0834
C35 C 0.7316(9) 0.6682(9) 0.0930(5)
H58 H 0.7508 0.6678 0.1074
H59 H 0.7349 0.6982 0.0858
C36 C 0.5559(13) 0.5809(11) 0.0487(7)
H60 H 0.5377 0.5894 0.0348
H61 H 0.5412 0.5568 0.0575
H62 H 0.5852 0.5709 0.0432
C29G C 0.6270(5) 0.5737(5) 0.1363(3)
H45G H 0.6513 0.5707 0.1482
H46G H 0.6325 0.5512 0.1237
C30G C 0.5842(7) 0.5613(7) 0.1488(4)
H47G H 0.5799 0.5817 0.1626
H48G H 0.5593 0.5663 0.1375
C31G C 0.6240(7) 0.6566(7) 0.1450(3)
H49G H 0.6238 0.6860 0.1369
H50G H 0.5945 0.6522 0.1525
C32G C 0.6600(8) 0.6569(9) 0.1648(5)
H51G H 0.6879 0.6713 0.1594
H52G H 0.6666 0.6266 0.1708
C33G C 0.6320(9) 0.6889(9) 0.1860(5)
H53G H 0.6213 0.7175 0.1794
H54G H 0.6073 0.6726 0.1938
C34G C 0.6115(12) 0.4988(13) 0.1734(6)
H55G H 0.6023 0.4681 0.1766
H56G H 0.6114 0.5158 0.1884
H57G H 0.6416 0.4989 0.1666
C35G C 0.5818(9) 0.5184(9) 0.1570(5)
H58G H 0.5822 0.4992 0.1426
H59G H 0.5518 0.5151 0.1642
C36G C 0.6691(11) 0.6941(13) 0.2013(7)
H60G H 0.6606 0.7123 0.2152
H61G H 0.6932 0.7088 0.1925
H62G H 0.6791 0.6648 0.2068
O23 O 0.0000 0.2500 0.0593(7)
loop_
_geom_bond_atom_site_label_1
_geom_bond_atom_site_label_2
_geom_bond_site_symmetry_1
_geom_bond_site_symmetry_2
O1 Mo1 1_555 1_555
O2 Mo3 1_555 1_555
O3 Mo1 1_555 1_555
O4 Mo1 1_555 1_555
O5 Mo5 1_555 1_555
O6 Mo2 1_555 1_555
O7 Mo5 1_555 1_555
O8 Mo4 1_555 1_555
O9 Mo6 1_555 1_555
O10 Mo1 1_555 1_555
O11 Mo2 1_555 1_555
O12 Mo6 1_555 1_555
O13 Mo4 1_555 1_555
O14 C3 1_555 1_555
O15 Mo2 1_555 1_555
O16 Mo3 1_555 1_555
O17 Mo1 1_555 1_555
O18 Mo3 1_555 1_555
O19 Mo3 1_555 1_555
N1 C8 1_555 1_555
O20 Mo5 1_555 1_555
O21 Mo4 1_555 1_555
C1 C2 1_555 1_555
C2 H1 1_555 1_555
O22 C3 1_555 1_555
C3 C1 1_555 1_555
C4 C6 1_555 1_555
C5 C2 1_555 1_555
H2 C5 1_555 1_555
C6 C5 1_555 1_555
C7 C4 1_555 1_555
H3 C7 1_555 1_555
C8 C7 1_555 1_555
H4 C8 1_555 1_555
C9 C1 1_555 1_555
H5 C9 1_555 1_555
C10 C4 1_555 1_555
H6 C10 1_555 1_555
C11 N1 1_555 1_555
H7 C11 1_555 1_555
C12 C6 1_555 1_555
H8 C12 1_555 1_555
Mo1 Mo3 1_555 1_555
Mo2 O1G 1_555 1_555
Mo3 O3 1_555 1_555
Mo4 O2 1_555 1_555
Mo5 O13 1_555 1_555
Mo6 O5 1_555 1_555
Zn1 O4 1_555 1_555
Zn2 O3 1_555 1_555
P1 O1 1_555 1_555
N2 C13 1_555 1_555
C13 H9 1_555 1_555
H10 C13 1_555 1_555
C14 N2 1_555 1_555
H11 C14 1_555 1_555
H12 C14 1_555 1_555
C15 N2 1_555 1_555
H13 C15 1_555 1_555
H14 C15 1_555 1_555
C16 C14 1_555 1_555
H15 C16 1_555 1_555
H16 C16 1_555 1_555
C17 C16 1_555 1_555
H17 C17 1_555 1_555
H18 C17 1_555 1_555
C18 H19 1_555 1_555
H20 C18 1_555 1_555
C19 C13 1_555 1_555
H21 C19 1_555 1_555
H22 C19 1_555 1_555
C20 H23 1_555 1_555
H24 C20 1_555 1_555
C21 C17 1_555 1_555
H25 C21 1_555 1_555
H26 C21 1_555 1_555
H27 C21 1_555 1_555
C22 N2 1_555 1_555
H28 C22 1_555 1_555
H29 C22 1_555 1_555
C23 C15 1_555 1_555
H30 C23 1_555 1_555
H31 C23 1_555 1_555
C24 C22 1_555 1_555
H32 C24 1_555 1_555
H33 C24 1_555 1_555
C25 C18 1_555 1_555
H34 C25 1_555 1_555
H35 C25 1_555 1_555
H36 C25 1_555 1_555
C26 H37 1_555 1_555
H38 C26 1_555 1_555
H39 C26 1_555 1_555
C27 C24 1_555 1_555
H40 C27 1_555 1_555
H41 C27 1_555 1_555
C28 C20 1_555 1_555
H42 C28 1_555 1_555
H43 C28 1_555 1_555
H44 C28 1_555 1_555
N3 C29 1_555 1_555
C29 H45 1_555 1_555
H46 C29 1_555 1_555
C30 C29 1_555 1_555
H47 C30 1_555 1_555
H48 C30 1_555 1_555
C31 N3 1_555 1_555
H49 C31 1_555 1_555
H50 C31 1_555 1_555
C32 C31 1_555 1_555
H51 C32 1_555 1_555
H52 C32 1_555 1_555
C33 C32 1_555 1_555
H53 C33 1_555 1_555
H54 C33 1_555 1_555
C34 H55 1_555 1_555
H56 C34 1_555 1_555
H57 C34 1_555 1_555
C35 C30 1_555 1_555
H58 C35 1_555 1_555
H59 C35 1_555 1_555
C36 C33 1_555 1_555
H60 C36 1_555 1_555
H61 C36 1_555 1_555
H62 C36 1_555 1_555
O1G Mo6 1_555 1_555
O2G P1 1_555 1_555
O3G Mo1G 1_555 1_555
O4G Mo1G 1_555 1_555
O5G Zn1 1_555 1_555
O6G Mo2 1_555 1_555
O7G Mo5G 1_555 1_555
O8G Mo4 1_555 1_555
O9G Mo1 1_555 1_555
O10G Mo2 1_555 1_555
O11G Mo2G 1_555 1_555
O12G Mo6G 1_555 1_555
O13G Mo4G 1_555 1_555
O14G C3G 1_555 1_555
O15G Mo2G 1_555 1_555
O16G Mo3G 1_555 1_555
O17G Mo1G 1_555 1_555
O18G Mo3G 1_555 1_555
O19G Mo3G 1_555 1_555
N1G C8G 1_555 1_555
O20G Mo5G 1_555 1_555
O21G Mo4G 1_555 1_555
C1G C2G 1_555 1_555
C2G H1G 1_555 1_555
O22G C3G 1_555 1_555
C3G C1G 1_555 1_555
C4G C6G 1_555 1_555
C5G C2G 1_555 1_555
H2G C5G 1_555 1_555
C6G C5G 1_555 1_555
C7G C4G 1_555 1_555
H3G C7G 1_555 1_555
C8G C7G 1_555 1_555
H4G C8G 1_555 1_555
C9G C1G 1_555 1_555
H5G C9G 1_555 1_555
C10G C4G 1_555 1_555
H6G C10G 1_555 1_555
C11G N1G 1_555 1_555
H7G C11G 1_555 1_555
C12G C6G 1_555 1_555
H8G C12G 1_555 1_555
Mo1G O9 1_555 1_555
Mo2G O1 1_555 1_555
Mo3G O2G 1_555 1_555
Mo4G O8 1_555 1_555
Mo5G O5G 1_555 1_555
Mo6G O1 1_555 1_555
Zn1G O5 1_555 1_555
Zn2G O3G 1_555 1_555
N1V Zn2G 1_555 1_555
N1Y Zn2 1_555 1_555
Zn2V N1G 1_555 1_555
Zn2Y N1 1_555 1_555
C29G N3 1_555 1_555
H45G C29G 1_555 1_555
H46G C29G 1_555 1_555
C30G C29G 1_555 1_555
H47G C30G 1_555 1_555
H48G C30G 1_555 1_555
C31G N3 1_555 1_555
H49G C31G 1_555 1_555
H50G C31G 1_555 1_555
C32G C31G 1_555 1_555
H51G C32G 1_555 1_555
H52G C32G 1_555 1_555
C33G C32G 1_555 1_555
H53G C33G 1_555 1_555
H54G C33G 1_555 1_555
C34G H55G 1_555 1_555
H56G C34G 1_555 1_555
H57G C34G 1_555 1_555
C35G C30G 1_555 1_555
H58G C35G 1_555 1_555
H59G C35G 1_555 1_555
C36G C33G 1_555 1_555
H60G C36G 1_555 1_555
H61G C36G 1_555 1_555
H62G C36G 1_555 1_555
O2 P1 1_555 1_555
O4 Mo3 1_555 1_555
O6 Zn2 1_555 1_555
O6 Mo2G 1_555 1_555
O7 Mo6 1_555 1_555
O7 Zn2 1_555 1_555
O8 Zn1 1_555 1_555
O10 Mo2G 1_555 1_555
O11 Mo6 1_555 1_555
O14 Zn1 1_555 1_555
O16 Mo5 1_555 1_555
O19 Mo4 1_555 1_555
C9 C12 1_555 1_555
C10 C11 1_555 1_555
Mo2 Mo2G 1_555 1_555
Mo4 Mo4G 1_555 1_555
P1 O1G 1_555 1_555
C18 C19 1_555 1_555
C20 C23 1_555 1_555
C26 C27 1_555 1_555
C34 C35 1_555 1_555
O1G Mo1G 1_555 1_555
O2G Mo4G 1_555 1_555
O3G Mo3G 1_555 1_555
O4G Mo3G 1_555 1_555
O4G Zn1G 1_555 1_555
O5G Mo6G 1_555 1_555
O6G Mo2G 1_555 1_555
O6G Zn2G 1_555 1_555
O7G Mo6G 1_555 1_555
O7G Zn2G 1_555 1_555
O8G Mo4G 1_555 1_555
O8G Zn1G 1_555 1_555
O9G Mo6G 1_555 1_555
O10G Mo1G 1_555 1_555
O11G Mo6G 1_555 1_555
O13G Mo5G 1_555 1_555
O14G Zn1G 1_555 1_555
O16G Mo5G 1_555 1_555
O19G Mo4G 1_555 1_555
C9G C12G 1_555 1_555
C10G C11G 1_555 1_555
Mo1G Mo3G 1_555 1_555
C34G C35G 1_555 1_555

#END
