
#######################################################################
#
#                 Cambridge Crystallographic Data Centre
#                                CCDC 
#
#######################################################################
#
# If this CIF has been generated from an entry in the Cambridge 
# Structural Database, then it will include bibliographic, chemical, 
# crystal, experimental, refinement or atomic coordinate data resulting 
# from the CCDC's data processing and validation procedures.
#
#######################################################################

data_DOHYIJ
_chemical_formula_moiety         '(C28 H20 Cu2 Eu2 N4 O18)n'
_symmetry_cell_setting           monoclinic
_symmetry_space_group_name_H-M   'P 21/c'
_symmetry_Int_Tables_number      14
_space_group_name_Hall           '-P 2ybc'
loop_
_symmetry_equiv_pos_site_id
_symmetry_equiv_pos_as_xyz
1 x,y,z
2 -x,1/2+y,1/2-z
3 -x,-y,-z
4 x,1/2-y,1/2+z
_cell_length_a                   9.226(2)
_cell_length_b                   21.606(3)
_cell_length_c                   9.5587(14)
_cell_angle_alpha                90
_cell_angle_beta                 116.142(14)
_cell_angle_gamma                90
_cell_volume                     1710.49
loop_
_atom_site_label
_atom_site_type_symbol
_atom_site_fract_x
_atom_site_fract_y
_atom_site_fract_z
Eu1 Eu 0.64117(3) 0.991407(14) 0.87668(3)
Cu1 Cu 0.30966(10) 1.35421(4) 0.95878(12)
C1 C 0.5595(8) 1.3041(3) 0.8979(9)
H1 H 0.5771 1.3448 0.8776
C2 C 0.6525(9) 1.2586(4) 0.8834(10)
H2 H 0.7355 1.2685 0.8571
C3 C 0.6252(8) 1.1974(4) 0.9074(9)
H3 H 0.6844 1.1658 0.8910
C4 C 0.5100(7) 1.1845(3) 0.9553(7)
C5 C 0.4229(7) 1.2326(3) 0.9709(8)
H4 H 0.3446 1.2241 1.0046
C6 C 0.4741(7) 1.1199(3) 0.9882(7)
C7 C 1.1229(8) 1.1346(3) 1.6275(9)
H5 H 1.2032 1.1595 1.6998
C8 C 1.0012(9) 1.1170(4) 1.6585(8)
H6 H 0.9976 1.1273 1.7513
C9 C 0.8825(8) 1.0829(3) 1.5457(8)
H7 H 0.7939 1.0705 1.5607
C10 C 0.8911(7) 1.0657(3) 1.4044(7)
C11 C 1.0207(7) 1.0829(3) 1.3855(8)
H8 H 1.0311 1.0706 1.2971
C12 C 0.7589(7) 1.0304(3) 1.2710(7)
C13 C 0.5223(7) 0.9656(3) 0.4973(6)
C14 C 1.0073(7) 0.9643(3) 1.0113(7)
N1 N 0.4438(6) 1.2920(2) 0.9403(7)
N2 N 1.1358(6) 1.1178(3) 1.4938(7)
O1 O 0.5332(6) 1.0753(2) 0.9493(6)
O2 O 0.3867(5) 1.1140(2) 1.0565(6)
O3 O 0.7876(6) 1.0049(2) 1.1638(6)
O4 O 0.6328(5) 1.0303(2) 1.2818(5)
O5 O 0.6184(5) 0.9421(2) 0.6282(5)
O6 O 0.4611(5) 0.93925(19) 0.3621(5)
O7 O 0.8840(5) 0.9336(2) 0.9483(6)
O8 O 1.1427(5) 0.9436(2) 1.0902(6)
Eu1B Eu 0.35883(3) 1.008593(14) 1.12332(3)
Eu1B_2 Eu 0.35883(3) 1.008593(14) 0.12332(3)
Eu1B_3 Eu 1.35883(3) 1.008593(14) 1.12332(3)
Cu1B Cu 0.69034(10) 0.64579(4) 1.04122(12)
Cu1C Cu 1.30966(10) 1.14579(4) 1.45878(12)
Cu1A Cu 0.69034(10) 0.85421(4) 0.54122(12)
Cu1C_2 Cu 0.30966(10) 1.14579(4) 0.45878(12)
Cu1A_2 Cu -0.30966(10) 0.85421(4) 0.54122(12)
C1B C 0.4405(8) 0.6959(3) 1.1021(9)
H1B H 0.4229 0.6552 1.1224
C2B C 0.3475(9) 0.7414(4) 1.1166(10)
H2B H 0.2645 0.7315 1.1429
C3B C 0.3748(8) 0.8026(4) 1.0926(9)
H3B H 0.3156 0.8342 1.1090
C4B C 0.4900(7) 0.8155(3) 1.0447(7)
C5B C 0.5771(7) 0.7674(3) 1.0291(8)
H4B H 0.6554 0.7759 0.9954
C6B C 0.5259(7) 0.8801(3) 1.0118(7)
C7B C -0.1229(8) 0.8654(3) 0.3725(9)
H5B H -0.2032 0.8405 0.3002
C8B C -0.0012(9) 0.8830(4) 0.3415(8)
H6B H 0.0024 0.8727 0.2487
C9B C 0.1175(8) 0.9171(3) 0.4543(8)
H7B H 0.2061 0.9295 0.4393
C10B C 0.1089(7) 0.9343(3) 0.5956(7)
C11B C -0.0207(7) 0.9171(3) 0.6145(8)
H8B H -0.0311 0.9294 0.7029
C12B C 0.2411(7) 0.9696(3) 0.7290(7)
C13B C 0.4777(7) 1.0344(3) 0.5027(6)
C14B C 0.9927(7) 1.0357(3) 0.9887(7)
N1B N 0.5562(6) 0.7080(2) 1.0597(7)
N2B N -0.1358(6) 0.8822(3) 0.5062(7)
N2C N 0.1358(6) 1.3822(3) 0.9938(7)
N2A N 0.8642(6) 0.6178(3) 1.0062(7)
O1B O 0.4668(6) 0.9247(2) 1.0507(6)
O2B O 0.6133(5) 0.8860(2) 0.9435(6)
O3B O 0.2124(6) 0.9951(2) 0.8362(6)
O4B O 0.3672(5) 0.9697(2) 0.7182(5)
O5B O 0.3816(5) 1.0579(2) 0.3718(5)
O5A O 0.3816(5) 1.4421(2) 0.8718(5)
O5B_2 O 0.3816(5) 1.0579(2) 1.3718(5)
O5C O 0.6184(5) 0.5579(2) 1.1282(5)
O6B O 0.5389(5) 1.06075(19) 0.6379(5)
O6_2 O 0.4611(5) 0.93925(19) 1.3621(5)
O7B O 1.1160(5) 1.0664(2) 1.0517(6)
O7B_2 O 0.1160(5) 1.0664(2) 1.0517(6)
O8B O 0.8573(5) 1.0564(2) 0.9098(6)
O8_2 O 0.1427(5) 0.9436(2) 1.0902(6)
O9 O 0.9023(10) 0.8001(3) 0.9476(10)
H9 H 0.8032 0.7907 0.9083
H10 H 0.9731 0.7733 0.9640
O10 O -0.0383(13) 1.2354(5) 0.2654(12)
H11 H -0.0997 1.2264 0.1739
H12 H 0.0200 1.2664 0.2858
loop_
_geom_bond_atom_site_label_1
_geom_bond_atom_site_label_2
_geom_bond_site_symmetry_1
_geom_bond_site_symmetry_2
Eu1 O1 1_555 1_555
Cu1 N1 1_555 1_555
C1 H1 1_555 1_555
C2 C1 1_555 1_555
H2 C2 1_555 1_555
C3 C2 1_555 1_555
H3 C3 1_555 1_555
C4 C3 1_555 1_555
C5 C4 1_555 1_555
H4 C5 1_555 1_555
C6 C4 1_555 1_555
C7 H5 1_555 1_555
C8 C7 1_555 1_555
H6 C8 1_555 1_555
C9 C8 1_555 1_555
H7 C9 1_555 1_555
C10 C9 1_555 1_555
C11 C10 1_555 1_555
H8 C11 1_555 1_555
C12 C10 1_555 1_555
C13 O5 1_555 1_555
C14 O7 1_555 1_555
N1 C1 1_555 1_555
N2 C7 1_555 1_555
O1 C6 1_555 1_555
O2 C6 1_555 1_555
O3 Eu1 1_555 1_555
O4 C12 1_555 1_555
O5 Eu1 1_555 1_555
O6 C13 1_555 1_555
O7 Eu1 1_555 1_555
O8 C14 1_555 1_555
O9 H9 1_555 1_555
H10 O9 1_555 1_555
O10 H11 1_555 1_555
H12 O10 1_555 1_555
Eu1B O2 1_555 1_555
Eu1B_2 O6 1_555 1_555
Eu1B_3 O8 1_555 1_555
Cu1B N1B 1_555 1_555
Cu1C N2 1_555 1_555
Cu1A O5 1_555 1_555
Cu1C_2 O5B 1_555 1_555
Cu1A_2 N2B 1_555 1_555
C1B H1B 1_555 1_555
C2B C1B 1_555 1_555
H2B C2B 1_555 1_555
C3B C2B 1_555 1_555
H3B C3B 1_555 1_555
C4B C3B 1_555 1_555
C5B C4B 1_555 1_555
H4B C5B 1_555 1_555
C6B C4B 1_555 1_555
C7B H5B 1_555 1_555
C8B C7B 1_555 1_555
H6B C8B 1_555 1_555
C9B C8B 1_555 1_555
H7B C9B 1_555 1_555
C10B C9B 1_555 1_555
C11B C10B 1_555 1_555
H8B C11B 1_555 1_555
C12B C10B 1_555 1_555
C13B C13 1_555 1_555
C14B C14 1_555 1_555
N1B C1B 1_555 1_555
N2B C7B 1_555 1_555
N2C Cu1 1_555 1_555
N2A Cu1B 1_555 1_555
O1B Eu1B 1_555 1_555
O2B Eu1 1_555 1_555
O3B Eu1B 1_555 1_555
O4B Eu1 1_555 1_555
O5B Eu1B_2 1_555 1_555
O5A Cu1 1_555 1_555
O5B_2 Eu1B 1_555 1_555
O5C Cu1B 1_555 1_555
O6B Eu1 1_555 1_555
O6_2 Eu1B 1_555 1_555
O7B Eu1B_3 1_555 1_555
O7B_2 Eu1B 1_555 1_555
O8B Eu1 1_555 1_555
O8_2 Eu1B 1_555 1_555
C5 N1 1_555 1_555
C11 N2 1_555 1_555
C12 O3 1_555 1_555
O4 Eu1B 1_555 1_555
C5B N1B 1_555 1_555
C6B O1B 1_555 1_555
C6B O2B 1_555 1_555
C11B N2B 1_555 1_555
C12B O3B 1_555 1_555
C12B O4B 1_555 1_555
C13B O5B 1_555 1_555
C13B O6B 1_555 1_555
C14B O7B 1_555 1_555
C14B O8B 1_555 1_555

#END
