
#######################################################################
#
#                 Cambridge Crystallographic Data Centre
#                                CCDC 
#
#######################################################################
#
# If this CIF has been generated from an entry in the Cambridge 
# Structural Database, then it will include bibliographic, chemical, 
# crystal, experimental, refinement or atomic coordinate data resulting 
# from the CCDC's data processing and validation procedures.
#
#######################################################################

data_NUWVIM
_chemical_formula_moiety         '(C76 H84 N12 O17 Zn3)n'
_symmetry_cell_setting           orthorhombic
_symmetry_space_group_name_H-M   'F d d 2'
_symmetry_Int_Tables_number      43
_space_group_name_Hall           'F 2 -2d'
loop_
_symmetry_equiv_pos_site_id
_symmetry_equiv_pos_as_xyz
1 x,y,z
2 -x,-y,z
3 1/4+x,1/4-y,1/4+z
4 1/4-x,1/4+y,1/4+z
5 x,1/2+y,1/2+z
6 -x,1/2-y,1/2+z
7 1/4+x,3/4-y,3/4+z
8 1/4-x,3/4+y,3/4+z
9 1/2+x,y,1/2+z
10 1/2-x,-y,1/2+z
11 3/4+x,1/4-y,3/4+z
12 3/4-x,1/4+y,3/4+z
13 1/2+x,1/2+y,z
14 1/2-x,1/2-y,z
15 3/4+x,3/4-y,1/4+z
16 3/4-x,3/4+y,1/4+z
_cell_length_a                   22.694(2)
_cell_length_b                   29.694(3)
_cell_length_c                   33.408(3)
_cell_angle_alpha                90
_cell_angle_beta                 90
_cell_angle_gamma                90
_cell_volume                     22512.8
loop_
_atom_site_label
_atom_site_type_symbol
_atom_site_fract_x
_atom_site_fract_y
_atom_site_fract_z
_atom_site_U_iso_or_equiv
_atom_site_thermal_displace_type
Zn1 Zn 0.5000 0.0000 0.76288(5) 0.0326 Uani
O1 O 0.5392(3) 0.0403(2) 0.7994(2) 0.0363 Uani
O2 O 0.6072(4) 0.0712(3) 0.7586(2) 0.0547 Uani
N1 N 0.6927(4) 0.2217(3) 0.9732(3) 0.0353 Uani
N2 N 0.6536(4) 0.2501(3) 0.9554(3) 0.0463 Uani
H1 H 0.6461 0.2773 0.9645 0.0560 Uiso
C1 C 0.5827(5) 0.0669(4) 0.7913(4) 0.0490 Uani
C2 C 0.6026(4) 0.0972(3) 0.8261(3) 0.0337 Uani
C3 C 0.6365(4) 0.1345(4) 0.8175(3) 0.0390 Uani
H2 H 0.6499 0.1393 0.7909 0.0470 Uiso
C4 C 0.6513(4) 0.1649(4) 0.8469(3) 0.0423 Uani
H3 H 0.6724 0.1914 0.8399 0.0510 Uiso
C5 C 0.6358(4) 0.1576(3) 0.8863(3) 0.0363 Uani
C6 C 0.6043(5) 0.1194(3) 0.8948(4) 0.0443 Uani
H4 H 0.5944 0.1125 0.9217 0.0530 Uiso
C7 C 0.5863(5) 0.0903(4) 0.8639(3) 0.0413 Uani
H5 H 0.5621 0.0651 0.8701 0.0500 Uiso
C8 C 0.6501(4) 0.1906(4) 0.9193(4) 0.0417 Uani
C9 C 0.6911(5) 0.1847(3) 0.9494(3) 0.0380 Uani
C10 C 0.6281(5) 0.2334(3) 0.9234(3) 0.0403 Uani
C11 C 0.7282(5) 0.1454(3) 0.9594(4) 0.0493 Uani
H6 H 0.7499 0.1515 0.9842 0.0740 Uiso
H7 H 0.7561 0.1399 0.9376 0.0740 Uiso
H8 H 0.7031 0.1189 0.9631 0.0740 Uiso
C12 C 0.5819(7) 0.2593(4) 0.8992(5) 0.0813 Uani
H9 H 0.5927 0.2913 0.8983 0.1220 Uiso
H10 H 0.5433 0.2561 0.9120 0.1220 Uiso
H11 H 0.5802 0.2473 0.8720 0.1220 Uiso
O1A O 0.4608(3) -0.0403(2) 0.7994(2) 0.0363 Uani
O2A O 0.3928(4) -0.0712(3) 0.7586(2) 0.0547 Uani
N1A N 0.3073(4) -0.2217(3) 0.9732(3) 0.0353 Uani
N2A N 0.3464(4) -0.2501(3) 0.9554(3) 0.0463 Uani
H1A H 0.3539 -0.2773 0.9645 0.0560 Uiso
C1A C 0.4173(5) -0.0669(4) 0.7913(4) 0.0490 Uani
C2A C 0.3974(4) -0.0972(3) 0.8261(3) 0.0337 Uani
C3A C 0.3635(4) -0.1345(4) 0.8175(3) 0.0390 Uani
H2A H 0.3501 -0.1393 0.7909 0.0470 Uiso
C4A C 0.3487(4) -0.1649(4) 0.8469(3) 0.0423 Uani
H3A H 0.3276 -0.1914 0.8399 0.0510 Uiso
C5A C 0.3642(4) -0.1576(3) 0.8863(3) 0.0363 Uani
C6A C 0.3957(5) -0.1194(3) 0.8948(4) 0.0443 Uani
H4A H 0.4056 -0.1125 0.9217 0.0530 Uiso
C7A C 0.4137(5) -0.0903(4) 0.8639(3) 0.0413 Uani
H5A H 0.4379 -0.0651 0.8701 0.0500 Uiso
C8A C 0.3499(4) -0.1906(4) 0.9193(4) 0.0417 Uani
C9A C 0.3089(5) -0.1847(3) 0.9494(3) 0.0380 Uani
C10A C 0.3719(5) -0.2334(3) 0.9234(3) 0.0403 Uani
C11A C 0.2718(5) -0.1454(3) 0.9594(4) 0.0493 Uani
H6A H 0.2501 -0.1515 0.9842 0.0740 Uiso
H7A H 0.2439 -0.1399 0.9376 0.0740 Uiso
H8A H 0.2969 -0.1189 0.9631 0.0740 Uiso
C12A C 0.4181(7) -0.2593(4) 0.8992(5) 0.0813 Uani
H9A H 0.4073 -0.2913 0.8983 0.1220 Uiso
H10A H 0.4567 -0.2561 0.9120 0.1220 Uiso
H11A H 0.4198 -0.2473 0.8720 0.1220 Uiso
Zn1B Zn 0.7500 0.2500 1.01288(5) 0.0326 Uani
Zn1N Zn 0.2500 -0.2500 1.01288(5) 0.0326 Uani
N1G N 0.5573(4) -0.0283(3) 0.7232(3) 0.0353 Uani
N1J N 0.4427(4) 0.0283(3) 0.7232(3) 0.0353 Uani
Zn2 Zn 0.49759(5) 0.25455(3) 0.71821(4) 0.0329 Uani
O3 O 0.5374(3) 0.2935(2) 0.7556(2) 0.0447 Uani
O4 O 0.6187(4) 0.2530(3) 0.7677(3) 0.0703 Uani
O5 O 0.4565(3) 0.2952(2) 0.6814(2) 0.0400 Uani
O6 O 0.3714(3) 0.2606(3) 0.6699(2) 0.0533 Uani
N3 N 0.6504(4) 0.4471(3) 0.9542(3) 0.0503 Uani
H12 H 0.6376 0.4552 0.9780 0.0600 Uiso
N4 N 0.6994(3) 0.4639(3) 0.9369(3) 0.0343 Uani
N5 N 0.3672(4) 0.4630(3) 0.4864(3) 0.0463 Uani
H13 H 0.3819 0.4774 0.4656 0.0550 Uiso
N6 N 0.3094(4) 0.4677(3) 0.4987(3) 0.0393 Uani
C13 C 0.5869(6) 0.2870(4) 0.7729(3) 0.0493 Uani
C14 C 0.6070(5) 0.3218(4) 0.8028(3) 0.0473 Uani
C15 C 0.5708(5) 0.3570(3) 0.8144(3) 0.0433 Uani
H14 H 0.5336 0.3605 0.8016 0.0520 Uiso
C16 C 0.5867(4) 0.3866(4) 0.8434(3) 0.0393 Uani
H15 H 0.5605 0.4101 0.8508 0.0470 Uiso
C17 C 0.6417(5) 0.3828(4) 0.8623(4) 0.0467 Uani
C18 C 0.6800(5) 0.3475(4) 0.8508(4) 0.0493 Uani
H16 H 0.7171 0.3441 0.8635 0.0590 Uiso
C19 C 0.6627(5) 0.3174(4) 0.8201(4) 0.0537 Uani
H17 H 0.6888 0.2944 0.8114 0.0640 Uiso
C20 C 0.6548(5) 0.4128(4) 0.8969(3) 0.0423 Uani
C21 C 0.7043(4) 0.4424(3) 0.9016(4) 0.0377 Uani
C22 C 0.6233(5) 0.4165(4) 0.9307(4) 0.0513 Uani
C23 C 0.7543(4) 0.4502(4) 0.8739(4) 0.0490 Uani
H18 H 0.7899 0.4571 0.8894 0.0740 Uiso
H19 H 0.7451 0.4756 0.8562 0.0740 Uiso
H20 H 0.7611 0.4231 0.8578 0.0740 Uiso
C24 C 0.5697(6) 0.3926(6) 0.9449(4) 0.0807 Uani
H21 H 0.5541 0.3738 0.9232 0.1210 Uiso
H22 H 0.5399 0.4147 0.9529 0.1210 Uiso
H23 H 0.5798 0.3736 0.9678 0.1210 Uiso
C25 C 0.4076(5) 0.2904(4) 0.6641(4) 0.0437 Uani
C26 C 0.3968(5) 0.3235(4) 0.6312(3) 0.0440 Uani
C27 C 0.4366(5) 0.3584(4) 0.6234(3) 0.0467 Uani
H24 H 0.4722 0.3604 0.6383 0.0560 Uiso
C28 C 0.4243(5) 0.3902(4) 0.5938(3) 0.0490 Uani
H25 H 0.4515 0.4138 0.5888 0.0590 Uiso
C29 C 0.3716(5) 0.3877(4) 0.5711(4) 0.0490 Uani
C30 C 0.3323(5) 0.3507(4) 0.5793(4) 0.0687 Uani
H26 H 0.2975 0.3472 0.5638 0.0830 Uiso
C31 C 0.3442(6) 0.3212(4) 0.6086(4) 0.0550 Uani
H27 H 0.3166 0.2981 0.6144 0.0660 Uiso
C32 C 0.3599(5) 0.4197(4) 0.5392(4) 0.0473 Uani
C33 C 0.3057(5) 0.4412(4) 0.5307(4) 0.0427 Uani
C34 C 0.3985(5) 0.4348(4) 0.5086(4) 0.0503 Uani
C35 C 0.2493(5) 0.4371(5) 0.5534(5) 0.0810 Uani
H28 H 0.2291 0.4662 0.5536 0.1210 Uiso
H29 H 0.2578 0.4278 0.5809 0.1210 Uiso
H30 H 0.2241 0.4145 0.5405 0.1210 Uiso
C36 C 0.4603(6) 0.4258(6) 0.5009(4) 0.0890 Uani
H31 H 0.4694 0.4330 0.4730 0.1330 Uiso
H32 H 0.4684 0.3938 0.5058 0.1330 Uiso
H33 H 0.4846 0.4442 0.5187 0.1330 Uiso
Zn2C Zn 0.75241(5) 0.50455(3) 0.96821(4) 0.0329 Uani
Zn2K Zn 0.25241(5) 0.50455(3) 0.46821(4) 0.0329 Uani
N4G N 0.5506(3) 0.2139(3) 0.6869(3) 0.0343 Uani
N6O N 0.4406(4) 0.2177(3) 0.7487(3) 0.0393 Uani
Zn3 Zn 0.7500 0.2500 0.54552(6) 0.0427 Uani
O7 O 0.7875(4) 0.2053(4) 0.5783(3) 0.0767 Uani
O8 O 0.8724(4) 0.2390(4) 0.5885(3) 0.0923 Uani
N7 N 0.8857(4) 0.0372(3) 0.7730(3) 0.0440 Uani
H34 H 0.8705 0.0218 0.7930 0.0530 Uiso
N8 N 0.9435(3) 0.0355(3) 0.7624(3) 0.0403 Uani
C37 C 0.8374(6) 0.2089(4) 0.5955(4) 0.0603 Uani
C38 C 0.8515(5) 0.1745(4) 0.6272(3) 0.0423 Uani
C39 C 0.8152(5) 0.1366(5) 0.6349(4) 0.0647 Uani
H35 H 0.7804 0.1326 0.6196 0.0780 Uiso
C40 C 0.8295(5) 0.1054(5) 0.6642(4) 0.0657 Uani
H36 H 0.8061 0.0791 0.6679 0.0790 Uiso
C41 C 0.8794(5) 0.1134(4) 0.6886(4) 0.0477 Uani
C42 C 0.9178(6) 0.1476(4) 0.6804(4) 0.0620 Uani
H37 H 0.9533 0.1508 0.6952 0.0740 Uiso
C43 C 0.9034(5) 0.1783(4) 0.6493(4) 0.0573 Uani
H38 H 0.9299 0.2021 0.6434 0.0690 Uiso
C44 C 0.8935(5) 0.0812(4) 0.7208(4) 0.0453 Uani
C45 C 0.9485(5) 0.0613(5) 0.7314(4) 0.0553 Uani
C46 C 0.8557(5) 0.0639(4) 0.7507(3) 0.0433 Uani
C47 C 1.0072(5) 0.0667(6) 0.7096(4) 0.0793 Uani
H39 H 1.0377 0.0492 0.7234 0.1190 Uiso
H40 H 1.0185 0.0986 0.7093 0.1190 Uiso
H41 H 1.0033 0.0559 0.6820 0.1190 Uiso
C48 C 0.7898(5) 0.0729(5) 0.7566(4) 0.0653 Uani
H42 H 0.7813 0.0759 0.7852 0.0980 Uiso
H43 H 0.7671 0.0478 0.7455 0.0980 Uiso
H44 H 0.7789 0.1008 0.7428 0.0980 Uiso
O7M O 0.7125(4) 0.2947(4) 0.5783(3) 0.0767 Uani
O8M O 0.6276(4) 0.2610(4) 0.5885(3) 0.0923 Uani
N7M N 0.6143(4) 0.4628(3) 0.7730(3) 0.0440 Uani
H34M H 0.6295 0.4782 0.7930 0.0530 Uiso
N8M N 0.5565(3) 0.4645(3) 0.7624(3) 0.0403 Uani
C37M C 0.6626(6) 0.2911(4) 0.5955(4) 0.0603 Uani
C38M C 0.6485(5) 0.3255(4) 0.6272(3) 0.0423 Uani
C39M C 0.6848(5) 0.3634(5) 0.6349(4) 0.0647 Uani
H35M H 0.7196 0.3674 0.6196 0.0780 Uiso
C40M C 0.6705(5) 0.3946(5) 0.6642(4) 0.0657 Uani
H36M H 0.6939 0.4209 0.6679 0.0790 Uiso
C41M C 0.6206(5) 0.3866(4) 0.6886(4) 0.0477 Uani
C42M C 0.5822(6) 0.3524(4) 0.6804(4) 0.0620 Uani
H37M H 0.5467 0.3492 0.6952 0.0740 Uiso
C43M C 0.5966(5) 0.3217(4) 0.6493(4) 0.0573 Uani
H38M H 0.5701 0.2979 0.6434 0.0690 Uiso
C44M C 0.6065(5) 0.4188(4) 0.7208(4) 0.0453 Uani
C45M C 0.5515(5) 0.4387(5) 0.7314(4) 0.0553 Uani
C46M C 0.6443(5) 0.4361(4) 0.7507(3) 0.0433 Uani
C47M C 0.4928(5) 0.4333(6) 0.7096(4) 0.0793 Uani
H39M H 0.4623 0.4508 0.7234 0.1190 Uiso
H40M H 0.4815 0.4014 0.7093 0.1190 Uiso
H41M H 0.4967 0.4441 0.6820 0.1190 Uiso
C48M C 0.7102(5) 0.4271(5) 0.7566(4) 0.0653 Uani
H42M H 0.7187 0.4241 0.7852 0.0980 Uiso
H43M H 0.7329 0.4522 0.7455 0.0980 Uiso
H44M H 0.7211 0.3992 0.7428 0.0980 Uiso
Zn3B Zn 1.0000 0.0000 0.79552(6) 0.0427 Uani
Zn3C Zn 0.5000 0.5000 0.79552(6) 0.0427 Uani
N8J N 0.6935(3) 0.2145(3) 0.5124(3) 0.0403 Uani
N8K N 0.8065(3) 0.2855(3) 0.5124(3) 0.0403 Uani
O9 O 0.8228(10) -0.0441(8) 0.6813(8) 0.1600 Uiso
H45 H 0.8256 -0.0601 0.7024 0.1920 Uiso
H46 H 0.8396 -0.0275 0.6640 0.1920 Uiso
H47 H 0.9141 0.0078 0.6150 0.1420 Uiso
O10 O 0.8779(14) 0.0992(11) 0.5250(10) 0.1790 Uiso
H48 H 0.8458 0.0977 0.5126 0.2690 Uiso
C49 C 0.8814(18) 0.0626(14) 0.5539(12) 0.1440 Uiso
H49 H 0.8740 0.0373 0.5353 0.1730 Uiso
H50 H 0.8429 0.0674 0.5671 0.1730 Uiso
C50 C 0.911(2) 0.0362(16) 0.5872(13) 0.1700 Uiso
H51 H 0.9194 0.0563 0.6099 0.2550 Uiso
H52 H 0.9486 0.0237 0.5773 0.2550 Uiso
C51 C 0.8041(18) -0.0576(14) 0.7671(12) 0.1580 Uiso
H53 H 0.8085 -0.0283 0.7533 0.1900 Uiso
H54 H 0.8358 -0.0574 0.7875 0.1900 Uiso
C52 C 0.7519(15) -0.0463(17) 0.7940(12) 0.1520 Uiso
H55 H 0.7596 -0.0180 0.8081 0.2280 Uiso
H56 H 0.7462 -0.0706 0.8135 0.2280 Uiso
H57 H 0.7163 -0.0432 0.7776 0.2280 Uiso
O11 O 0.8317(11) -0.0868(9) 0.7374(8) 0.1250 Uiso
H58 H 0.8638 -0.0754 0.7300 0.1870 Uiso
O12 O 0.7353(11) 0.2177(8) 0.7506(7) 0.1810 Uiso
H59 H 0.7010 0.2278 0.7553 0.2170 Uiso
H60 H 0.7711 0.2248 0.7546 0.2170 Uiso
O13 O 1.0000 0.0000 0.588(3) 0.1300 Uiso
H61 H 0.9661 0.0029 0.5983 0.1570 Uiso
H61A H 1.0339 -0.0029 0.5983 0.1570 Uiso
loop_
_atom_site_aniso_label
_atom_site_aniso_U_11
_atom_site_aniso_U_22
_atom_site_aniso_U_33
_atom_site_aniso_U_23
_atom_site_aniso_U_13
_atom_site_aniso_U_12
Zn1 0.0421(9) 0.0302(9) 0.0256(11) 0.000 0.000 -0.0014(8)
O1 0.048(4) 0.031(4) 0.030(5) -0.003(3) -0.003(3) 0.000(3)
O2 0.085(6) 0.045(5) 0.034(6) -0.019(4) 0.004(4) -0.008(4)
N1 0.044(5) 0.030(5) 0.032(6) -0.006(4) -0.003(4) -0.002(4)
N2 0.060(6) 0.042(5) 0.037(7) -0.010(5) -0.006(4) 0.005(5)
C1 0.058(7) 0.043(7) 0.046(9) 0.004(6) -0.013(6) 0.016(6)
C2 0.045(6) 0.018(5) 0.038(8) 0.006(5) -0.005(5) 0.008(4)
C3 0.055(6) 0.054(6) 0.008(6) -0.006(5) -0.002(4) -0.005(5)
C4 0.049(6) 0.040(6) 0.038(8) -0.006(5) -0.006(5) -0.011(5)
C5 0.050(6) 0.033(5) 0.026(7) 0.000(5) -0.001(5) 0.002(5)
C6 0.066(7) 0.038(6) 0.029(8) 0.012(5) -0.001(6) -0.002(5)
C7 0.074(7) 0.034(6) 0.016(7) 0.005(5) -0.004(5) 0.001(5)
C8 0.048(6) 0.035(6) 0.042(8) -0.007(5) -0.010(5) 0.000(5)
C9 0.053(6) 0.036(6) 0.025(7) 0.005(5) -0.003(5) -0.017(5)
C10 0.060(7) 0.039(6) 0.022(7) -0.007(5) -0.007(5) 0.009(5)
C11 0.060(7) 0.034(6) 0.054(9) -0.007(6) -0.025(6) 0.006(5)
C12 0.111(11) 0.058(9) 0.075(12) -0.015(8) -0.030(9) 0.019(8)
O1A 0.048 0.031 0.03 0.003 0.003 0
O2A 0.085 0.045 0.034 0.019 -0.004 -0.008
N1A 0.044 0.03 0.032 0.006 0.003 -0.002
N2A 0.06 0.042 0.037 0.01 0.006 0.005
C1A 0.058 0.043 0.046 -0.004 0.013 0.016
C2A 0.045 0.018 0.038 -0.006 0.005 0.008
C3A 0.055 0.054 0.008 0.006 0.002 -0.005
C4A 0.049 0.04 0.038 0.006 0.006 -0.011
C5A 0.05 0.033 0.026 0 0.001 0.002
C6A 0.066 0.038 0.029 -0.012 0.001 -0.002
C7A 0.074 0.034 0.016 -0.005 0.004 0.001
C8A 0.048 0.035 0.042 0.007 0.01 0
C9A 0.053 0.036 0.025 -0.005 0.003 -0.017
C10A 0.06 0.039 0.022 0.007 0.007 0.009
C11A 0.06 0.034 0.054 0.007 0.025 0.006
C12A 0.111 0.058 0.075 0.015 0.03 0.019
Zn1B 0.0421 0.0302 0.0256 0 0 0.0014
Zn1N 0.0421 0.0302 0.0256 0 0 0.0014
N1G 0.044 0.03 0.032 -0.006 0.003 0.002
N1J 0.044 0.03 0.032 0.006 -0.003 0.002
Zn2 0.0438(6) 0.0312(6) 0.0236(7) 0.0031(6) -0.0023(5) 0.0040(6)
O3 0.066(5) 0.044(4) 0.024(5) -0.007(4) -0.014(4) 0.000(4)
O4 0.092(6) 0.052(5) 0.067(7) -0.017(5) -0.033(5) 0.019(5)
O5 0.045(4) 0.040(4) 0.035(5) 0.013(4) -0.009(4) 0.001(3)
O6 0.063(5) 0.052(5) 0.045(6) 0.025(4) -0.014(4) -0.015(4)
N3 0.052(6) 0.060(6) 0.039(7) -0.018(5) 0.015(4) -0.015(5)
N4 0.044(5) 0.032(5) 0.027(6) 0.002(4) 0.003(4) -0.014(4)
N5 0.066(6) 0.047(6) 0.026(6) 0.018(4) -0.003(4) -0.005(5)
N6 0.052(5) 0.039(5) 0.027(6) 0.009(4) 0.004(4) -0.006(4)
C13 0.084(9) 0.035(6) 0.029(7) -0.012(5) 0.007(6) 0.009(6)
C14 0.059(7) 0.055(8) 0.028(7) 0.005(6) -0.005(6) -0.002(6)
C15 0.060(7) 0.035(6) 0.035(7) -0.006(5) -0.004(5) -0.004(5)
C16 0.048(6) 0.050(7) 0.020(7) 0.004(5) -0.011(5) 0.009(5)
C17 0.066(7) 0.038(6) 0.036(8) -0.002(5) -0.008(6) -0.005(5)
C18 0.047(7) 0.058(8) 0.043(8) 0.003(6) -0.012(6) -0.014(6)
C19 0.067(7) 0.055(8) 0.039(8) -0.008(6) -0.007(6) 0.011(6)
C20 0.052(7) 0.049(7) 0.026(7) -0.009(5) -0.005(5) -0.008(5)
C21 0.038(5) 0.027(5) 0.048(8) 0.001(5) -0.004(5) 0.001(4)
C22 0.053(7) 0.060(8) 0.041(8) -0.006(6) -0.009(6) -0.016(6)
C23 0.056(7) 0.044(6) 0.047(8) -0.011(5) 0.006(6) -0.021(5)
C24 0.062(8) 0.108(12) 0.072(11) 0.008(9) 0.003(7) -0.032(8)
C25 0.053(7) 0.040(7) 0.038(8) 0.001(5) 0.007(6) 0.007(6)
C26 0.049(7) 0.056(7) 0.027(7) 0.024(6) -0.008(5) 0.005(6)
C27 0.051(7) 0.060(8) 0.029(7) 0.003(6) -0.006(5) -0.016(6)
C28 0.060(7) 0.047(7) 0.040(8) 0.021(6) -0.013(6) -0.020(6)
C29 0.051(7) 0.038(6) 0.058(9) 0.013(6) -0.002(6) -0.007(5)
C30 0.046(7) 0.068(9) 0.092(11) 0.053(8) -0.031(7) -0.020(6)
C31 0.086(9) 0.040(7) 0.039(8) 0.026(6) -0.005(7) -0.002(6)
C32 0.049(7) 0.038(6) 0.055(9) 0.006(6) -0.011(6) -0.010(5)
C33 0.056(7) 0.037(6) 0.035(8) 0.023(6) 0.008(6) -0.007(5)
C34 0.045(7) 0.056(7) 0.050(8) 0.037(6) -0.003(5) -0.002(5)
C35 0.070(8) 0.095(11) 0.078(12) 0.051(9) 0.024(8) 0.022(8)
C36 0.077(10) 0.124(13) 0.066(11) 0.060(10) 0.007(8) 0.022(9)
Zn2C 0.0438 0.0312 0.0236 0.0031 0.0023 -0.004
Zn2K 0.0438 0.0312 0.0236 0.0031 0.0023 -0.004
N4G 0.044 0.032 0.027 0.002 -0.003 0.014
N6O 0.052 0.039 0.027 0.009 -0.004 0.006
Zn3 0.0380(9) 0.0545(11) 0.0355(13) 0.000 0.000 -0.0049(9)
O7 0.054(5) 0.116(8) 0.060(7) 0.039(6) -0.019(5) -0.025(5)
O8 0.081(6) 0.102(8) 0.094(8) 0.057(6) -0.030(6) -0.050(6)
N7 0.042(5) 0.059(6) 0.031(6) 0.012(5) 0.005(4) 0.012(4)
N8 0.032(5) 0.062(6) 0.027(6) 0.009(5) -0.001(4) 0.002(4)
C37 0.076(9) 0.060(8) 0.045(9) 0.009(7) 0.019(7) -0.008(7)
C38 0.044(6) 0.044(6) 0.039(8) 0.008(5) -0.002(5) -0.009(5)
C39 0.039(6) 0.082(10) 0.073(11) 0.021(8) -0.011(6) -0.005(6)
C40 0.061(8) 0.087(10) 0.049(10) 0.038(8) -0.012(7) -0.029(7)
C41 0.052(7) 0.060(8) 0.031(8) 0.008(6) 0.006(6) 0.003(6)
C42 0.056(7) 0.063(9) 0.067(10) 0.011(7) 0.005(7) 0.016(6)
C43 0.058(7) 0.057(8) 0.057(9) 0.015(7) 0.006(6) -0.020(6)
C44 0.047(6) 0.059(7) 0.030(7) 0.013(6) 0.002(6) 0.005(5)
C45 0.038(6) 0.090(10) 0.038(9) -0.002(7) 0.006(5) -0.010(7)
C46 0.060(7) 0.054(7) 0.016(7) 0.004(5) 0.002(5) 0.001(6)
C47 0.052(8) 0.130(13) 0.056(11) 0.044(9) 0.017(7) 0.022(8)
C48 0.048(7) 0.087(10) 0.061(10) 0.026(8) 0.002(6) 0.024(7)
O7M 0.054 0.116 0.06 -0.039 0.019 -0.025
O8M 0.081 0.102 0.094 -0.057 0.03 -0.05
N7M 0.042 0.059 0.031 -0.012 -0.005 0.012
N8M 0.032 0.062 0.027 -0.009 0.001 0.002
C37M 0.076 0.06 0.045 -0.009 -0.019 -0.008
C38M 0.044 0.044 0.039 -0.008 0.002 -0.009
C39M 0.039 0.082 0.073 -0.021 0.011 -0.005
C40M 0.061 0.087 0.049 -0.038 0.012 -0.029
C41M 0.052 0.06 0.031 -0.008 -0.006 0.003
C42M 0.056 0.063 0.067 -0.011 -0.005 0.016
C43M 0.058 0.057 0.057 -0.015 -0.006 -0.02
C44M 0.047 0.059 0.03 -0.013 -0.002 0.005
C45M 0.038 0.09 0.038 0.002 -0.006 -0.01
C46M 0.06 0.054 0.016 -0.004 -0.002 0.001
C47M 0.052 0.13 0.056 -0.044 -0.017 0.022
C48M 0.048 0.087 0.061 -0.026 -0.002 0.024
Zn3B 0.038 0.0545 0.0355 0 0 0.0049
Zn3C 0.038 0.0545 0.0355 0 0 0.0049
N8J 0.032 0.062 0.027 -0.009 -0.001 -0.002
N8K 0.032 0.062 0.027 0.009 0.001 -0.002
loop_
_geom_bond_atom_site_label_1
_geom_bond_atom_site_label_2
_geom_bond_site_symmetry_1
_geom_bond_site_symmetry_2
Zn1 O1 1_555 1_555
O1 C1 1_555 1_555
O2 C1 1_555 1_555
N1 N2 1_555 1_555
N2 H1 1_555 1_555
C1 C2 1_555 1_555
C2 C3 1_555 1_555
C3 H2 1_555 1_555
C4 C3 1_555 1_555
H3 C4 1_555 1_555
C5 C4 1_555 1_555
C6 C5 1_555 1_555
H4 C6 1_555 1_555
C7 C2 1_555 1_555
H5 C7 1_555 1_555
C8 C5 1_555 1_555
C9 N1 1_555 1_555
C10 N2 1_555 1_555
C11 C9 1_555 1_555
H6 C11 1_555 1_555
H7 C11 1_555 1_555
H8 C11 1_555 1_555
C12 C10 1_555 1_555
H9 C12 1_555 1_555
H10 C12 1_555 1_555
H11 C12 1_555 1_555
Zn2 O3 1_555 1_555
O3 C13 1_555 1_555
O4 C13 1_555 1_555
O5 Zn2 1_555 1_555
O6 C25 1_555 1_555
N3 H12 1_555 1_555
N4 N3 1_555 1_555
N5 H13 1_555 1_555
N6 N5 1_555 1_555
C13 C14 1_555 1_555
C14 C15 1_555 1_555
C15 H14 1_555 1_555
C16 C15 1_555 1_555
H15 C16 1_555 1_555
C17 C16 1_555 1_555
C18 C17 1_555 1_555
H16 C18 1_555 1_555
C19 C14 1_555 1_555
H17 C19 1_555 1_555
C20 C17 1_555 1_555
C21 N4 1_555 1_555
C22 N3 1_555 1_555
C23 C21 1_555 1_555
H18 C23 1_555 1_555
H19 C23 1_555 1_555
H20 C23 1_555 1_555
C24 C22 1_555 1_555
H21 C24 1_555 1_555
H22 C24 1_555 1_555
H23 C24 1_555 1_555
C25 O5 1_555 1_555
C26 C25 1_555 1_555
C27 C26 1_555 1_555
H24 C27 1_555 1_555
C28 C27 1_555 1_555
H25 C28 1_555 1_555
C29 C28 1_555 1_555
C30 C29 1_555 1_555
H26 C30 1_555 1_555
C31 C26 1_555 1_555
H27 C31 1_555 1_555
C32 C29 1_555 1_555
C33 N6 1_555 1_555
C34 N5 1_555 1_555
C35 C33 1_555 1_555
H28 C35 1_555 1_555
H29 C35 1_555 1_555
H30 C35 1_555 1_555
C36 C34 1_555 1_555
H31 C36 1_555 1_555
H32 C36 1_555 1_555
H33 C36 1_555 1_555
Zn3 O7 1_555 1_555
O7 C37 1_555 1_555
O8 C37 1_555 1_555
N7 H34 1_555 1_555
N8 N7 1_555 1_555
C37 C38 1_555 1_555
C38 C39 1_555 1_555
C39 H35 1_555 1_555
C40 C39 1_555 1_555
H36 C40 1_555 1_555
C41 C40 1_555 1_555
C42 C41 1_555 1_555
H37 C42 1_555 1_555
C43 C38 1_555 1_555
H38 C43 1_555 1_555
C44 C41 1_555 1_555
C45 N8 1_555 1_555
C46 N7 1_555 1_555
C47 C45 1_555 1_555
H39 C47 1_555 1_555
H40 C47 1_555 1_555
H41 C47 1_555 1_555
C48 C46 1_555 1_555
H42 C48 1_555 1_555
H43 C48 1_555 1_555
H44 C48 1_555 1_555
O9 H45 1_555 1_555
H46 O9 1_555 1_555
H47 C50 1_555 1_555
O10 H48 1_555 1_555
C49 O10 1_555 1_555
H49 C49 1_555 1_555
H50 C49 1_555 1_555
C50 C49 1_555 1_555
H51 C50 1_555 1_555
H52 C50 1_555 1_555
C51 H53 1_555 1_555
H54 C51 1_555 1_555
C52 C51 1_555 1_555
H55 C52 1_555 1_555
H56 C52 1_555 1_555
H57 C52 1_555 1_555
O11 C51 1_555 1_555
H58 O11 1_555 1_555
O12 H59 1_555 1_555
H60 O12 1_555 1_555
O13 H61 1_555 1_555
O1A Zn1 1_555 1_555
O2A C1A 1_555 1_555
N1A N2A 1_555 1_555
N2A H1A 1_555 1_555
C1A O1A 1_555 1_555
C2A C1A 1_555 1_555
C3A C2A 1_555 1_555
H2A C3A 1_555 1_555
C4A C3A 1_555 1_555
H3A C4A 1_555 1_555
C5A C4A 1_555 1_555
C6A C5A 1_555 1_555
H4A C6A 1_555 1_555
C7A C2A 1_555 1_555
H5A C7A 1_555 1_555
C8A C5A 1_555 1_555
C9A N1A 1_555 1_555
C10A N2A 1_555 1_555
C11A C9A 1_555 1_555
H6A C11A 1_555 1_555
H7A C11A 1_555 1_555
H8A C11A 1_555 1_555
C12A C10A 1_555 1_555
H9A C12A 1_555 1_555
H10A C12A 1_555 1_555
H11A C12A 1_555 1_555
Zn1B N1 1_555 1_555
Zn1N N1A 1_555 1_555
N1G Zn1 1_555 1_555
N1J Zn1 1_555 1_555
Zn2C N4 1_555 1_555
Zn2K N6 1_555 1_555
N4G Zn2 1_555 1_555
N6O Zn2 1_555 1_555
O7M Zn3 1_555 1_555
O8M C37M 1_555 1_555
N7M H34M 1_555 1_555
N8M N7M 1_555 1_555
C37M O7M 1_555 1_555
C38M C37M 1_555 1_555
C39M C38M 1_555 1_555
H35M C39M 1_555 1_555
C40M C39M 1_555 1_555
H36M C40M 1_555 1_555
C41M C40M 1_555 1_555
C42M C41M 1_555 1_555
H37M C42M 1_555 1_555
C43M C38M 1_555 1_555
H38M C43M 1_555 1_555
C44M C41M 1_555 1_555
C45M N8M 1_555 1_555
C46M N7M 1_555 1_555
C47M C45M 1_555 1_555
H39M C47M 1_555 1_555
H40M C47M 1_555 1_555
H41M C47M 1_555 1_555
C48M C46M 1_555 1_555
H42M C48M 1_555 1_555
H43M C48M 1_555 1_555
H44M C48M 1_555 1_555
Zn3B N8 1_555 1_555
Zn3C N8M 1_555 1_555
N8J Zn3 1_555 1_555
N8K Zn3 1_555 1_555
H61A O13 1_555 1_555
C6 C7 1_555 1_555
C8 C9 1_555 1_555
C8 C10 1_555 1_555
C18 C19 1_555 1_555
C20 C21 1_555 1_555
C20 C22 1_555 1_555
C30 C31 1_555 1_555
C32 C33 1_555 1_555
C32 C34 1_555 1_555
C42 C43 1_555 1_555
C44 C45 1_555 1_555
C44 C46 1_555 1_555
C6A C7A 1_555 1_555
C8A C9A 1_555 1_555
C8A C10A 1_555 1_555
C42M C43M 1_555 1_555
C44M C45M 1_555 1_555
C44M C46M 1_555 1_555

#END
