
#######################################################################
#
#                 Cambridge Crystallographic Data Centre
#                                CCDC 
#
#######################################################################
#
# If this CIF has been generated from an entry in the Cambridge 
# Structural Database, then it will include bibliographic, chemical, 
# crystal, experimental, refinement or atomic coordinate data resulting 
# from the CCDC's data processing and validation procedures.
#
#######################################################################

data_AJOTEY
_chemical_formula_moiety         '(C2 H28 N6 O21 P4 V3)n'
_symmetry_cell_setting           orthorhombic
_symmetry_space_group_name_H-M   'P n a 21'
_symmetry_Int_Tables_number      33
_space_group_name_Hall           'P 2c -2n'
loop_
_symmetry_equiv_pos_site_id
_symmetry_equiv_pos_as_xyz
1 x,y,z
2 -x,-y,1/2+z
3 1/2-x,1/2+y,1/2+z
4 1/2+x,1/2-y,z
_cell_length_a                   19.0766(13)
_cell_length_b                   9.1657(6)
_cell_length_c                   14.1806(9)
_cell_angle_alpha                90
_cell_angle_beta                 90
_cell_angle_gamma                90
_cell_volume                     2479.48
loop_
_atom_site_label
_atom_site_type_symbol
_atom_site_fract_x
_atom_site_fract_y
_atom_site_fract_z
V1 V 0.13916(5) 0.23073(10) 0.13449(7)
V2 V -0.00042(6) -0.28340(10) 0.35135(7)
V3 V 0.24556(6) -0.24673(12) 0.33742(7)
P1 P 0.11568(9) -0.07424(17) 0.23766(12)
P2 P 0.12393(9) 0.06368(16) -0.06837(11)
P3 P 0.12241(9) 0.52983(16) 0.26083(11)
P4 P 0.13616(9) 0.45803(17) -0.04928(11)
O1 O 0.0991(2) 0.0885(4) 0.2261(3)
O2 O 0.1719(5) -0.0978(4) 0.3122(3)
O3 O 0.0483(2) -0.1558(4) 0.2570(3)
O4 O 0.1064(2) 0.1008(5) 0.0322(3)
O5 O 0.1981(2) 0.1037(5) -0.0951(3)
O6 O 0.0706(2) 0.1229(4) -0.1385(3)
O7 O 0.1405(2) 0.3722(4) 0.2418(3)
O8 O 0.0480(2) 0.5430(4) 0.2975(3)
O9 O 0.1753(2) 0.5945(4) 0.3289(3)
O10 O 0.1449(3) 0.3998(5) 0.0497(3)
O11 O 0.0636(2) 0.4306(5) -0.0878(3)
O12 O 0.1949(2) 0.4147(5) -0.1144(3)
O13 O 0.2197(2) 0.1845(4) 0.1384(3)
O14 O 0.0178(2) 0.2849(5) 0.1284(3)
O15 O 0.0461(2) -0.2502(5) 0.4424(3)
O16 O -0.0722(3) -0.3253(5) 0.2208(3)
O17 O 0.2786(2) -0.2592(5) 0.2339(3)
O18 O 0.1928(2) -0.2168(5) 0.4853(3)
O6A O -0.0706(2) -0.1229(4) 0.3615(3)
O8_2 O 0.0480(2) -0.4570(4) 0.2975(3)
O11A O -0.0636(2) -0.4306(5) 0.4122(3)
O5B O 0.3019(2) -0.3963(5) 0.4049(3)
O9_2 O 0.1753(2) -0.4055(4) 0.3289(3)
O12B O 0.3051(2) -0.0853(5) 0.3856(3)
V3B V 0.25444(6) 0.25327(12) -0.16258(7)
V2A V 0.00042(6) 0.28340(10) -0.14865(7)
V2_2 V -0.00042(6) 0.71660(10) 0.35135(7)
V3_2 V 0.24556(6) 0.75327(12) 0.33742(7)
O19 O -0.1938(3) 0.1021(6) 0.2311(4)
O20 O -0.0596(3) 0.0331(6) 0.1722(4)
O21 O 0.1235(4) 0.5951(8) 0.6869(6)
C1 C 0.2910(4) -0.2738(7) -0.0194(5)
N1 N 0.2914(4) -0.1377(6) 0.0107(4)
N2 N 0.2856(3) -0.3810(6) 0.0422(4)
N3 N 0.2942(3) -0.3019(6) -0.1092(4)
C2 C 0.0224(3) 0.2208(7) 0.4575(5)
N4 N 0.0132(3) 0.2522(5) 0.3685(4)
N5 N 0.0114(4) 0.3200(7) 0.5242(4)
N6 N 0.0408(3) 0.0888(6) 0.4850(4)
loop_
_geom_bond_atom_site_label_1
_geom_bond_atom_site_label_2
_geom_bond_site_symmetry_1
_geom_bond_site_symmetry_2
V1 O1 1_555 1_555
V2 O3 1_555 1_555
V3 O2 1_555 1_555
P1 O1 1_555 1_555
P2 O4 1_555 1_555
P3 O7 1_555 1_555
P4 O10 1_555 1_555
O2 P1 1_555 1_555
O3 P1 1_555 1_555
O4 V1 1_555 1_555
O5 P2 1_555 1_555
O6 P2 1_555 1_555
O7 V1 1_555 1_555
O8 P3 1_555 1_555
O9 P3 1_555 1_555
O10 V1 1_555 1_555
O11 P4 1_555 1_555
O12 P4 1_555 1_555
O13 V1 1_555 1_555
O14 V1 1_555 1_555
O15 V2 1_555 1_555
O16 V2 1_555 1_555
O17 V3 1_555 1_555
O18 V3 1_555 1_555
C1 N1 1_555 1_555
N2 C1 1_555 1_555
N3 C1 1_555 1_555
C2 N4 1_555 1_555
N5 C2 1_555 1_555
N6 C2 1_555 1_555
O6A V2 1_555 1_555
O8_2 V2 1_555 1_555
O11A V2 1_555 1_555
O5B V3 1_555 1_555
O9_2 V3 1_555 1_555
O12B V3 1_555 1_555
V3B O5 1_555 1_555
V2A O6 1_555 1_555
V2_2 O8 1_555 1_555
V3_2 O9 1_555 1_555
O11 V2A 1_555 1_555
O12 V3B 1_555 1_555

#END
