
#######################################################################
#
#                 Cambridge Crystallographic Data Centre
#                                CCDC 
#
#######################################################################
#
# If this CIF has been generated from an entry in the Cambridge 
# Structural Database, then it will include bibliographic, chemical, 
# crystal, experimental, refinement or atomic coordinate data resulting 
# from the CCDC's data processing and validation procedures.
#
#######################################################################

data_LAZXIV
_chemical_formula_moiety         'C104 H10 Cu16 O80'
_symmetry_cell_setting           orthorhombic
_symmetry_space_group_name_H-M   'I m m m'
_symmetry_Int_Tables_number      71
_space_group_name_Hall           '-I 2 2'
loop_
_symmetry_equiv_pos_site_id
_symmetry_equiv_pos_as_xyz
1 x,y,z
2 -x,-y,z
3 x,-y,-z
4 -x,y,-z
5 1/2+x,1/2+y,1/2+z
6 1/2-x,1/2-y,1/2+z
7 1/2+x,1/2-y,1/2-z
8 1/2-x,1/2+y,1/2-z
9 -x,-y,-z
10 x,y,-z
11 -x,y,z
12 x,-y,z
13 1/2-x,1/2-y,1/2-z
14 1/2+x,1/2+y,1/2-z
15 1/2-x,1/2+y,1/2+z
16 1/2+x,1/2-y,1/2+z
_cell_length_a                   22.5959(10)
_cell_length_b                   19.8166(5)
_cell_length_c                   19.817
_cell_angle_alpha                90
_cell_angle_beta                 90
_cell_angle_gamma                90
_cell_volume                     8873.54
loop_
_atom_site_label
_atom_site_type_symbol
_atom_site_fract_x
_atom_site_fract_y
_atom_site_fract_z
Cu1 Cu -0.19549(6) 0.23051(6) -0.23494(6)
Cu2 Cu -0.5000 0.06685(10) -0.5000
O1 O -0.2250(3) 0.1388(4) -0.2624(4)
O2 O -0.3114(3) 0.1722(3) -0.2796(4)
O3 O -0.4395(4) 0.0581(3) -0.4336(4)
O4 O -0.1858(4) 0.2440(4) -0.3276(3)
O5 O -0.2721(5) 0.2831(4) -0.3563(4)
O7 O -0.1011(5) 0.2087(6) -0.2180(6)
O8 O -0.5000 0.1751(7) -0.5000
C1 C -0.2972(6) 0.0615(5) -0.2960(7)
C2 C -0.3447(5) 0.0597(4) -0.3438(5)
H1 H -0.3584 0.1016 -0.3611
C3 C -0.3730(7) 0.0000 -0.3673(7)
C4 C -0.4169(8) -0.0000 -0.4139(10)
C5 C -0.2731(10) 0.0000 -0.2729(8)
C6 C -0.2250(12) 0.0000 -0.2243(9)
H2 H -0.2270 -0.0411 -0.1970
H3 H -0.2285 0.0396 -0.1950
H4 H -0.1871 -0.0015 -0.2483
C7 C -0.2764(5) 0.1308(5) -0.2799(5)
C8 C -0.2824(15) 0.2261(15) -0.5000
C9 C -0.2233(8) 0.2726(6) -0.5000
C10 C -0.2042(4) 0.2934(5) -0.4397(4)
C11 C -0.1515(5) 0.3395(6) -0.4378(5)
C12 C -0.1410(9) 0.3581(8) -0.509(2)
C14 C -0.2206(5) 0.2734(5) -0.3711(5)
Cu1K Cu -0.19549(6) -0.23051(6) -0.23494(6)
Cu1C Cu -0.80451(6) 0.23051(6) -0.76506(6)
Cu1H Cu -0.80451(6) -0.23051(6) -0.76506(6)
Cu1L Cu -0.30451(6) 0.26949(6) -0.26506(6)
Cu1G Cu -0.30451(6) -0.26949(6) -0.26506(6)
Cu1I Cu -0.19549(6) 0.23051(6) -0.76506(6)
Cu1E Cu -0.30451(6) 0.26949(6) -0.73494(6)
Cu1O Cu -0.69549(6) 0.26949(6) -0.73494(6)
Cu1D Cu -0.69549(6) -0.26949(6) -0.73494(6)
Cu1E_2 Cu -0.30451(6) 0.26949(6) 0.26506(6)
Cu1I_2 Cu -0.19549(6) 0.23051(6) 0.23494(6)
Cu2A Cu -0.5000 -0.06685(10) -0.5000
O1K O -0.2250(3) -0.1388(4) -0.2624(4)
O1C O -0.7750(3) 0.1388(4) -0.7376(4)
O1H O -0.7750(3) -0.1388(4) -0.7376(4)
O1L O -0.2750(3) 0.3612(4) -0.2376(4)
O1G O -0.2750(3) -0.3612(4) -0.2376(4)
O1I O -0.2250(3) 0.1388(4) -0.7376(4)
O1E O -0.2750(3) 0.3612(4) -0.7624(4)
O1O O -0.7250(3) 0.3612(4) -0.7624(4)
O1D O -0.7250(3) -0.3612(4) -0.7624(4)
O1E_2 O -0.2750(3) 0.3612(4) 0.2376(4)
O1I_2 O -0.2250(3) 0.1388(4) 0.2624(4)
O2K O -0.3114(3) -0.1722(3) -0.2796(4)
O2C O -0.6886(3) 0.1722(3) -0.7204(4)
O2H O -0.6886(3) -0.1722(3) -0.7204(4)
O2L O -0.1886(3) 0.3278(3) -0.2204(4)
O2G O -0.1886(3) -0.3278(3) -0.2204(4)
O2O O -0.8114(3) 0.3278(3) -0.7796(4)
O2D O -0.8114(3) -0.3278(3) -0.7796(4)
O2E O -0.1886(3) 0.3278(3) -0.7796(4)
O2I O -0.3114(3) 0.1722(3) -0.7204(4)
O2I_2 O -0.3114(3) 0.1722(3) 0.2796(4)
O2E_2 O -0.1886(3) 0.3278(3) 0.2204(4)
O3K O -0.4395(4) -0.0581(3) -0.4336(4)
O3C O -0.5605(4) 0.0581(3) -0.5664(4)
O3H O -0.5605(4) -0.0581(3) -0.5664(4)
O3I O -0.4395(4) 0.0581(3) -0.5664(4)
O3J O -0.5605(4) 0.0581(3) -0.4336(4)
O3A O -0.5605(4) -0.0581(3) -0.4336(4)
O3B O -0.4395(4) -0.0581(3) -0.5664(4)
O4I O -0.1858(4) 0.2440(4) -0.6724(3)
O4L O -0.3142(4) 0.2560(4) -0.1724(3)
O4E O -0.3142(4) 0.2560(4) 0.1724(3)
O4K O -0.1858(4) -0.2440(4) -0.3276(3)
O4C O -0.8142(4) 0.2440(4) -0.6724(3)
O4H O -0.8142(4) -0.2440(4) -0.6724(3)
O4G O -0.3142(4) -0.2560(4) -0.1724(3)
O4E_2 O -0.3142(4) 0.2560(4) -0.8276(3)
O4O O -0.6858(4) 0.2560(4) -0.8276(3)
O4D O -0.6858(4) -0.2560(4) -0.8276(3)
O4I_2 O -0.1858(4) 0.2440(4) 0.3276(3)
O5I O -0.2721(5) 0.2831(4) -0.6437(4)
O5L O -0.2279(5) 0.2169(4) -0.1437(4)
O5E O -0.2279(5) 0.2169(4) 0.1437(4)
O5G O -0.2279(5) -0.2169(4) -0.1437(4)
O5O O -0.7721(5) 0.2169(4) -0.8563(4)
O5D O -0.7721(5) -0.2169(4) -0.8563(4)
O5K O -0.2721(5) -0.2831(4) -0.3563(4)
O5E_2 O -0.2279(5) 0.2169(4) -0.8563(4)
O5C O -0.7279(5) 0.2831(4) -0.6437(4)
O5H O -0.7279(5) -0.2831(4) -0.6437(4)
O5I_2 O -0.2721(5) 0.2831(4) 0.3563(4)
O7K O -0.1011(5) -0.2087(6) -0.2180(6)
O7C O -0.8989(5) 0.2087(6) -0.7820(6)
O7H O -0.8989(5) -0.2087(6) -0.7820(6)
O7L O -0.3989(5) 0.2913(6) -0.2820(6)
O7G O -0.3989(5) -0.2913(6) -0.2820(6)
O7I O -0.1011(5) 0.2087(6) -0.7820(6)
O7E O -0.3989(5) 0.2913(6) -0.7180(6)
O7O O -0.6011(5) 0.2913(6) -0.7180(6)
O7D O -0.6011(5) -0.2913(6) -0.7180(6)
O7E_2 O -0.3989(5) 0.2913(6) 0.2820(6)
O7I_2 O -0.1011(5) 0.2087(6) 0.2180(6)
O8A O -0.5000 -0.1751(7) -0.5000
C1K C -0.2972(6) -0.0615(5) -0.2960(7)
C1C C -0.7028(6) 0.0615(5) -0.7040(7)
C1H C -0.7028(6) -0.0615(5) -0.7040(7)
C1L C -0.2028(6) 0.4385(5) -0.2040(7)
C1G C -0.2028(6) -0.4385(5) -0.2040(7)
C1O C -0.7972(6) 0.4385(5) -0.7960(7)
C1D C -0.7972(6) -0.4385(5) -0.7960(7)
C1I C -0.2972(6) 0.0615(5) -0.7040(7)
C1E C -0.2028(6) 0.4385(5) -0.7960(7)
C1E_2 C -0.2028(6) 0.4385(5) 0.2040(7)
C1I_2 C -0.2972(6) 0.0615(5) 0.2960(7)
C2K C -0.3447(5) -0.0597(4) -0.3438(5)
C2C C -0.6553(5) 0.0597(4) -0.6562(5)
C2H C -0.6553(5) -0.0597(4) -0.6562(5)
C2L C -0.1553(5) 0.4403(4) -0.1562(5)
C2B C -0.3447(5) -0.0597(4) -0.6562(5)
C2I C -0.3447(5) 0.0597(4) -0.6562(5)
C2A C -0.6553(5) -0.0597(4) -0.3438(5)
C2J C -0.6553(5) 0.0597(4) -0.3438(5)
C2G C -0.1553(5) -0.4403(4) -0.1562(5)
C2O C -0.8447(5) 0.4403(4) -0.8438(5)
C2D C -0.8447(5) -0.4403(4) -0.8438(5)
H1K H -0.3584 -0.1016 -0.3611
H1C H -0.6416 0.1016 -0.6389
H1H H -0.6416 -0.1016 -0.6389
C3C C -0.6270(7) 0.0000 -0.6327(7)
C3B C -0.3730(7) 0.0000 -0.6327(7)
C3A C -0.6270(7) 0.0000 -0.3673(7)
C4C C -0.5831(8) 0.0000 -0.5861(10)
C4B C -0.4169(8) 0.0000 -0.5861(10)
C4A C -0.5831(8) -0.0000 -0.4139(10)
C5C C -0.7269(10) 0.0000 -0.7271(8)
C5G C -0.2269(10) 0.5000 -0.2271(8)
C5G_2 C -0.2269(10) -0.5000 -0.2271(8)
C5D C -0.7731(10) 0.5000 -0.7729(8)
C5D_2 C -0.7731(10) -0.5000 -0.7729(8)
C6C C -0.7750(12) 0.0000 -0.7757(9)
H2C H -0.7730 -0.0411 -0.8030
H3C H -0.7715 0.0396 -0.8050
H4C H -0.8129 -0.0015 -0.7517
C7K C -0.2764(5) -0.1308(5) -0.2799(5)
C7C C -0.7236(5) 0.1308(5) -0.7201(5)
C7H C -0.7236(5) -0.1308(5) -0.7201(5)
C7L C -0.2236(5) 0.3692(5) -0.2201(5)
C7G C -0.2236(5) -0.3692(5) -0.2201(5)
C7O C -0.7764(5) 0.3692(5) -0.7799(5)
C7D C -0.7764(5) -0.3692(5) -0.7799(5)
C7I C -0.2764(5) 0.1308(5) -0.7201(5)
C7E C -0.2236(5) 0.3692(5) -0.7799(5)
C7E_2 C -0.2236(5) 0.3692(5) 0.2201(5)
C7I_2 C -0.2764(5) 0.1308(5) 0.2799(5)
C8E C -0.2176(15) 0.2739(15) 0.0000
C9E C -0.2767(8) 0.2274(6) 0.0000
C9B C -0.2233(8) -0.2726(6) -0.5000
C9G C -0.2767(8) -0.2274(6) 0.0000
C9C C -0.7767(8) 0.2726(6) -0.5000
C9F C -0.7233(8) 0.2274(6) -1.0000
C9A C -0.7767(8) -0.2726(6) -0.5000
C9D C -0.7233(8) -0.2274(6) -1.0000
C10I C -0.2042(4) 0.2934(5) -0.5603(4)
C10L C -0.2958(4) 0.2066(5) -0.0603(4)
C10E C -0.2958(4) 0.2066(5) 0.0603(4)
C10K C -0.2042(4) -0.2934(5) -0.4397(4)
C10G C -0.2958(4) -0.2066(5) -0.0603(4)
C10C C -0.7958(4) 0.2934(5) -0.5603(4)
C10O C -0.7042(4) 0.2066(5) -0.9397(4)
C10H C -0.7958(4) -0.2934(5) -0.5603(4)
C10D C -0.7042(4) -0.2066(5) -0.9397(4)
C10E_2 C -0.2958(4) 0.2066(5) -0.9397(4)
C10I_2 C -0.2042(4) 0.2934(5) 0.4397(4)
C11I C -0.1515(5) 0.3395(6) -0.5622(5)
C11L C -0.3485(5) 0.1605(6) -0.0622(5)
C11E C -0.3485(5) 0.1605(6) 0.0622(5)
C11K C -0.1515(5) -0.3395(6) -0.4378(5)
C11G C -0.3485(5) -0.1605(6) -0.0622(5)
C11C C -0.8485(5) 0.3395(6) -0.5622(5)
C11O C -0.6515(5) 0.1605(6) -0.9378(5)
C11H C -0.8485(5) -0.3395(6) -0.5622(5)
C11D C -0.6515(5) -0.1605(6) -0.9378(5)
C12I C -0.1410(9) 0.3581(8) -0.491(2)
C12L C -0.3590(9) 0.1419(8) 0.009(2)
C12E C -0.3590(9) 0.1419(8) -0.009(2)
C14I C -0.2206(5) 0.2734(5) -0.6289(5)
C14L C -0.2794(5) 0.2266(5) -0.1289(5)
C14E C -0.2794(5) 0.2266(5) 0.1289(5)
C14K C -0.2206(5) -0.2734(5) -0.3711(5)
C14G C -0.2794(5) -0.2266(5) -0.1289(5)
C14C C -0.7794(5) 0.2734(5) -0.6289(5)
C14O C -0.7206(5) 0.2266(5) -0.8711(5)
C14H C -0.7794(5) -0.2734(5) -0.6289(5)
C14D C -0.7206(5) -0.2266(5) -0.8711(5)
C14E_2 C -0.2794(5) 0.2266(5) -0.8711(5)
C14I_2 C -0.2206(5) 0.2734(5) 0.3711(5)
Cu3 Cu -0.5000 0.0000 0.06609(12)
O6 O -0.4402(4) 0.0679(4) 0.0575(3)
O9 O -0.5000 0.0000 0.1753(7)
C13 C -0.4199(6) 0.0862(8) 0.0000
Cu3B Cu -0.5000 0.0000 -0.06609(12)
O6I O -0.4402(4) 0.0679(4) -0.0575(3)
O6A O -0.5598(4) -0.0679(4) 0.0575(3)
O6H O -0.5598(4) -0.0679(4) -0.0575(3)
O6J O -0.5598(4) 0.0679(4) 0.0575(3)
O6K O -0.4402(4) -0.0679(4) 0.0575(3)
O6B O -0.4402(4) -0.0679(4) -0.0575(3)
O6C O -0.5598(4) 0.0679(4) -0.0575(3)
O9B O -0.5000 0.0000 -0.1753(7)
C13A C -0.5801(6) -0.0862(8) 0.0000
C13C C -0.5801(6) 0.0862(8) 0.0000
C13B C -0.4199(6) -0.0862(8) 0.0000
loop_
_geom_bond_atom_site_label_1
_geom_bond_atom_site_label_2
_geom_bond_site_symmetry_1
_geom_bond_site_symmetry_2
Cu1 O1 1_555 1_555
Cu2 O3 1_555 1_555
Cu3 O6 1_555 1_555
O1 C7 1_555 1_555
O2 C7 1_555 1_555
O3 C4 1_555 1_555
O4 Cu1 1_555 1_555
O5 C14 1_555 1_555
O6 C13 1_555 1_555
O7 Cu1 1_555 1_555
O8 Cu2 1_555 1_555
O9 Cu3 1_555 1_555
C1 C2 1_555 1_555
C2 H1 1_555 1_555
C3 C2 1_555 1_555
C4 C3 1_555 1_555
C5 C1 1_555 1_555
C6 C5 1_555 1_555
H2 C6 1_555 1_555
H3 C6 1_555 1_555
H4 C6 1_555 1_555
C7 C1 1_555 1_555
C8 C9 1_555 1_555
C9 C10 1_555 1_555
C10 C11 1_555 1_555
C11 C12 1_555 1_555
C12 C11I 1_555 1_555
C13 O6I 1_555 1_555
C14 O4 1_555 1_555
Cu1K Cu1G 1_555 1_555
Cu1C Cu1O 1_555 1_555
Cu1H Cu1D 1_555 1_555
Cu1L Cu1 1_555 1_555
Cu1G O1G 1_555 1_555
Cu1I Cu1E 1_555 1_555
Cu1E O1E 1_555 1_555
Cu1O O1O 1_555 1_555
Cu1D O1D 1_555 1_555
Cu1E_2 Cu1I_2 1_555 1_555
Cu1I_2 O1I_2 1_555 1_555
Cu2A Cu2 1_555 1_555
Cu3B Cu3 1_555 1_555
O1K Cu1K 1_555 1_555
O1C Cu1C 1_555 1_555
O1H Cu1H 1_555 1_555
O1L Cu1L 1_555 1_555
O1G C7G 1_555 1_555
O1I Cu1I 1_555 1_555
O1E C7E 1_555 1_555
O1O C7O 1_555 1_555
O1D C7D 1_555 1_555
O1E_2 Cu1E_2 1_555 1_555
O1I_2 C7I_2 1_555 1_555
O2K Cu1G 1_555 1_555
O2C Cu1O 1_555 1_555
O2H Cu1D 1_555 1_555
O2L Cu1 1_555 1_555
O2G Cu1K 1_555 1_555
O2O Cu1C 1_555 1_555
O2D Cu1H 1_555 1_555
O2E Cu1I 1_555 1_555
O2I Cu1E 1_555 1_555
O2I_2 Cu1E_2 1_555 1_555
O2E_2 Cu1I_2 1_555 1_555
O3K C4 1_555 1_555
O3C Cu2 1_555 1_555
O3H Cu2A 1_555 1_555
O3I Cu2 1_555 1_555
O3J Cu2 1_555 1_555
O3A Cu2A 1_555 1_555
O3B Cu2A 1_555 1_555
O4I Cu1I 1_555 1_555
O4L Cu1L 1_555 1_555
O4E Cu1E_2 1_555 1_555
O4K Cu1K 1_555 1_555
O4C Cu1C 1_555 1_555
O4H Cu1H 1_555 1_555
O4G Cu1G 1_555 1_555
O4E_2 Cu1E 1_555 1_555
O4O Cu1O 1_555 1_555
O4D Cu1D 1_555 1_555
O4I_2 Cu1I_2 1_555 1_555
O5I Cu1E 1_555 1_555
O5L Cu1 1_555 1_555
O5E Cu1I_2 1_555 1_555
O5G Cu1K 1_555 1_555
O5O Cu1C 1_555 1_555
O5D Cu1H 1_555 1_555
O5K Cu1G 1_555 1_555
O5E_2 Cu1I 1_555 1_555
O5C Cu1O 1_555 1_555
O5H Cu1D 1_555 1_555
O5I_2 Cu1E_2 1_555 1_555
O6I Cu3B 1_555 1_555
O6A Cu3 1_555 1_555
O6H Cu3B 1_555 1_555
O6J Cu3 1_555 1_555
O6K Cu3 1_555 1_555
O6B Cu3B 1_555 1_555
O6C Cu3B 1_555 1_555
O7K Cu1K 1_555 1_555
O7C Cu1C 1_555 1_555
O7H Cu1H 1_555 1_555
O7L Cu1L 1_555 1_555
O7G Cu1G 1_555 1_555
O7I Cu1I 1_555 1_555
O7E Cu1E 1_555 1_555
O7O Cu1O 1_555 1_555
O7D Cu1D 1_555 1_555
O7E_2 Cu1E_2 1_555 1_555
O7I_2 Cu1I_2 1_555 1_555
O8A Cu2A 1_555 1_555
O9B Cu3B 1_555 1_555
C1K C5 1_555 1_555
C1C C2C 1_555 1_555
C1H C2H 1_555 1_555
C1L C2L 1_555 1_555
C1G C2G 1_555 1_555
C1O C2O 1_555 1_555
C1D C2D 1_555 1_555
C1I C7I 1_555 1_555
C1E C7E 1_555 1_555
C1E_2 C7E_2 1_555 1_555
C1I_2 C7I_2 1_555 1_555
C2K C3 1_555 1_555
C2C H1C 1_555 1_555
C2H H1H 1_555 1_555
C2B C3B 1_555 1_555
C2I C3B 1_555 1_555
C2A C3A 1_555 1_555
C2J C3A 1_555 1_555
H1K C2K 1_555 1_555
C3C C2C 1_555 1_555
C3B C4B 1_555 1_555
C3A C4A 1_555 1_555
C4C O3C 1_555 1_555
C4B O3I 1_555 1_555
C4A O3J 1_555 1_555
C5C C1C 1_555 1_555
C5G C1L 1_555 1_555
C5G_2 C1G 1_555 1_555
C5D C1O 1_555 1_555
C5D_2 C1D 1_555 1_555
C6C C5C 1_555 1_555
H2C C6C 1_555 1_555
H3C C6C 1_555 1_555
H4C C6C 1_555 1_555
C7K O1K 1_555 1_555
C7C O1C 1_555 1_555
C7H O1H 1_555 1_555
C7L O1L 1_555 1_555
C7G O2G 1_555 1_555
C7O O2O 1_555 1_555
C7D O2D 1_555 1_555
C7I O1I 1_555 1_555
C7E O2E 1_555 1_555
C7E_2 O1E_2 1_555 1_555
C7I_2 O2I_2 1_555 1_555
C8E C9E 1_555 1_555
C9E C10L 1_555 1_555
C9B C10K 1_555 1_555
C9G C10G 1_555 1_555
C9C C10C 1_555 1_555
C9F C10O 1_555 1_555
C9A C10H 1_555 1_555
C9D C10D 1_555 1_555
C10I C9 1_555 1_555
C10L C11L 1_555 1_555
C10E C9E 1_555 1_555
C10K C11K 1_555 1_555
C10G C11G 1_555 1_555
C10C C11C 1_555 1_555
C10O C11O 1_555 1_555
C10H C11H 1_555 1_555
C10D C11D 1_555 1_555
C10E_2 C14E_2 1_555 1_555
C10I_2 C14I_2 1_555 1_555
C11I C10I 1_555 1_555
C11L C12L 1_555 1_555
C11E C10E 1_555 1_555
C12I C11 1_555 1_555
C12L C11E 1_555 1_555
C12E C11L 1_555 1_555
C13A O6A 1_555 1_555
C13C O6J 1_555 1_555
C13B O6K 1_555 1_555
C14I O4I 1_555 1_555
C14L O4L 1_555 1_555
C14E O4E 1_555 1_555
C14K O4K 1_555 1_555
C14G O4G 1_555 1_555
C14C O4C 1_555 1_555
C14O O4O 1_555 1_555
C14H O4H 1_555 1_555
C14D O4D 1_555 1_555
C14E_2 O4E_2 1_555 1_555
C14I_2 O4I_2 1_555 1_555
O2 Cu1L 1_555 1_555
O5 Cu1L 1_555 1_555
C10 C14 1_555 1_555
C12 C12I 1_555 1_555
Cu2A O3K 1_555 1_555
O2K C7K 1_555 1_555
O2C C7C 1_555 1_555
O2H C7H 1_555 1_555
O2L C7L 1_555 1_555
O2I C7I 1_555 1_555
O2E_2 C7E_2 1_555 1_555
O3H C4C 1_555 1_555
O3A C4A 1_555 1_555
O3B C4B 1_555 1_555
O5I C14I 1_555 1_555
O5L C14L 1_555 1_555
O5E C14E 1_555 1_555
O5G C14G 1_555 1_555
O5O C14O 1_555 1_555
O5D C14D 1_555 1_555
O5K C14K 1_555 1_555
O5E_2 C14E_2 1_555 1_555
O5C C14C 1_555 1_555
O5H C14H 1_555 1_555
O5I_2 C14I_2 1_555 1_555
O6H C13A 1_555 1_555
O6B C13B 1_555 1_555
O6C C13C 1_555 1_555
C1K C2K 1_555 1_555
C1K C7K 1_555 1_555
C1C C7C 1_555 1_555
C1H C5C 1_555 1_555
C1H C7H 1_555 1_555
C1L C7L 1_555 1_555
C1G C7G 1_555 1_555
C1O C7O 1_555 1_555
C1D C7D 1_555 1_555
C2H C3C 1_555 1_555
C3C C4C 1_555 1_555
C10I C14I 1_555 1_555
C10L C14L 1_555 1_555
C10E C14E 1_555 1_555
C10K C14K 1_555 1_555
C10G C14G 1_555 1_555
C10C C14C 1_555 1_555
C10O C14O 1_555 1_555
C10H C14H 1_555 1_555
C10D C14D 1_555 1_555
C11I C12I 1_555 1_555
C11E C12E 1_555 1_555
C12L C12E 1_555 1_555

#END
