
#######################################################################
#
#                 Cambridge Crystallographic Data Centre
#                                CCDC 
#
#######################################################################
#
# If this CIF has been generated from an entry in the Cambridge 
# Structural Database, then it will include bibliographic, chemical, 
# crystal, experimental, refinement or atomic coordinate data resulting 
# from the CCDC's data processing and validation procedures.
#
#######################################################################

data_HUHBUJ
_chemical_formula_moiety         '(C82 H104 Br2 Cd2 N8 O11 Ti2)n'
_symmetry_cell_setting           tetragonal
_symmetry_space_group_name_H-M   'P 41 21 2'
_symmetry_Int_Tables_number      92
_space_group_name_Hall           'P 4abw 2nw'
loop_
_symmetry_equiv_pos_site_id
_symmetry_equiv_pos_as_xyz
1 x,y,z
2 1/2-y,1/2+x,1/4+z
3 -x,-y,1/2+z
4 1/2+y,1/2-x,3/4+z
5 1/2+x,1/2-y,3/4-z
6 1/2-x,1/2+y,1/4-z
7 y,x,-z
8 -y,-x,1/2-z
_cell_length_a                   26.8901(2)
_cell_length_b                   26.8901(2)
_cell_length_c                   13.2591(3)
_cell_angle_alpha                90
_cell_angle_beta                 90
_cell_angle_gamma                90
_cell_volume                     9587.36
loop_
_atom_site_label
_atom_site_type_symbol
_atom_site_fract_x
_atom_site_fract_y
_atom_site_fract_z
_atom_site_U_iso_or_equiv
_atom_site_thermal_displace_type
Ti1 Ti 0.30573(5) 0.77418(6) 0.67871(13) 0.0359 Uani
O1 O 0.2871(2) 0.8209(2) 0.7752(5) 0.0430 Uani
O2 O 0.3225(2) 0.8257(2) 0.5809(5) 0.0393 Uani
N1 N 0.2367(3) 0.7732(3) 0.5898(6) 0.0430 Uani
H1 H 0.2117 0.7538 0.6297 0.0510 Uiso
N2 N 0.3208(3) 0.7162(3) 0.5589(6) 0.0420 Uani
H2 H 0.3437 0.7310 0.5077 0.0510 Uiso
O3 O 0.2763(2) 0.7237(2) 0.7500 0.0377 Uani
O4 O 0.3722(2) 0.7625(2) 0.7095(5) 0.0420 Uani
C1 C 0.2743(4) 0.7008(4) 0.5066(7) 0.0470 Uani
H3 H 0.2559 0.6775 0.5521 0.0560 Uiso
C2 C 0.3458(4) 0.6715(4) 0.6036(8) 0.0477 Uani
H4 H 0.3519 0.6472 0.5490 0.0580 Uiso
H5 H 0.3226 0.6559 0.6521 0.0580 Uiso
C3 C 0.30286(19) 0.9107(2) 0.3729(4) 0.0457 Uani
H6 H 0.3215 0.9299 0.3260 0.0550 Uiso
C4 C 0.32723(14) 0.8820(2) 0.4447(5) 0.0410 Uani
C5 C 0.29993(17) 0.85402(19) 0.5132(4) 0.0377 Uani
C6 C 0.24827(17) 0.8547(2) 0.5099(4) 0.0457 Uani
C7 C 0.22390(14) 0.8834(2) 0.4381(5) 0.0533 Uani
H7 H 0.1886 0.8839 0.4359 0.0640 Uiso
C8 C 0.25120(19) 0.9114(2) 0.3696(5) 0.0513 Uani
C9 C 0.4276(2) 0.64177(19) 0.6613(5) 0.0563 Uani
H8 H 0.4202 0.6118 0.6265 0.0670 Uiso
C10 C 0.4715(2) 0.6460(2) 0.7160(6) 0.0630 Uani
C11 C 0.48229(18) 0.6899(2) 0.7669(5) 0.0603 Uani
H9 H 0.5123 0.6927 0.8043 0.0720 Uiso
C12 C 0.4492(2) 0.7295(2) 0.7630(5) 0.0477 Uani
C13 C 0.40535(18) 0.72534(18) 0.7083(5) 0.0427 Uani
C14 C 0.39454(18) 0.6815(2) 0.6574(5) 0.0467 Uani
C15 C 0.2972(5) 0.8720(4) 0.7846(10) 0.0683 Uani
H10 H 0.2811 0.8849 0.8457 0.1020 Uiso
H11 H 0.3332 0.8772 0.7893 0.1020 Uiso
H12 H 0.2842 0.8897 0.7255 0.1020 Uiso
Cd1 Cd 0.62627(10) 0.45282(11) 0.7111(3) 0.0652 Uani
C16 C 0.2172(3) 0.8247(3) 0.5815(9) 0.0487 Uani
H13 H 0.2175 0.8406 0.6488 0.0580 Uiso
H14 H 0.1824 0.8238 0.5572 0.0580 Uiso
C17 C 0.3856(3) 0.8822(4) 0.4487(8) 0.0453 Uani
C18 C 0.2816(5) 0.6753(4) 0.4069(8) 0.0643 Uani
H15 H 0.3010 0.6444 0.4172 0.0770 Uiso
H16 H 0.3008 0.6973 0.3615 0.0770 Uiso
C19 C 0.4617(3) 0.7791(5) 0.8204(9) 0.0577 Uani
C20 C 0.4052(4) 0.8283(4) 0.4354(10) 0.0620 Uani
H17 H 0.3956 0.8083 0.4941 0.0930 Uiso
H18 H 0.4415 0.8288 0.4295 0.0930 Uiso
H19 H 0.3908 0.8137 0.3743 0.0930 Uiso
C21 C 0.1986(6) 0.7075(5) 0.3460(10) 0.0797 Uani
H20 H 0.2133 0.7303 0.2955 0.0960 Uiso
H21 H 0.1658 0.6965 0.3201 0.0960 Uiso
C22 C 0.2422(4) 0.7475(4) 0.4917(8) 0.0493 Uani
H22 H 0.2604 0.7704 0.4452 0.0590 Uiso
C23 C 0.4613(4) 0.8229(4) 0.7504(10) 0.0567 Uani
H23 H 0.4879 0.8192 0.7003 0.0850 Uiso
H24 H 0.4667 0.8535 0.7891 0.0850 Uiso
H25 H 0.4291 0.8247 0.7159 0.0850 Uiso
C24 C 0.5142(4) 0.7766(6) 0.8747(10) 0.0707 Uani
H26 H 0.5157 0.7469 0.9174 0.1060 Uiso
H27 H 0.5188 0.8064 0.9164 0.1060 Uiso
H28 H 0.5406 0.7751 0.8237 0.1060 Uiso
C25 C 0.4227(4) 0.7870(5) 0.9039(9) 0.0643 Uani
H29 H 0.3904 0.7944 0.8732 0.0970 Uiso
H30 H 0.4329 0.8148 0.9469 0.0970 Uiso
H31 H 0.4200 0.7567 0.9448 0.0970 Uiso
C26 C 0.1913(4) 0.7347(4) 0.4419(9) 0.0650 Uani
H32 H 0.1714 0.7141 0.4888 0.0780 Uiso
H33 H 0.1727 0.7658 0.4288 0.0780 Uiso
C27 C 0.4025(4) 0.9037(4) 0.5459(9) 0.0563 Uani
H34 H 0.3894 0.9375 0.5529 0.0850 Uiso
H35 H 0.4389 0.9046 0.5473 0.0850 Uiso
H36 H 0.3904 0.8831 0.6017 0.0850 Uiso
C28 C 0.2330(13) 0.9903(16) 0.280(2) 0.0527 Uani
H37 H 0.2620 1.0044 0.3097 0.0650 Uiso
C29 C 0.4081(5) 0.9125(5) 0.3629(11) 0.0787 Uani
H38 H 0.4053 0.8938 0.2997 0.1180 Uiso
H39 H 0.4433 0.9190 0.3774 0.1180 Uiso
H40 H 0.3903 0.9441 0.3565 0.1180 Uiso
C30 C 0.2321(6) 0.6624(5) 0.3576(11) 0.0790 Uani
H41 H 0.2385 0.6477 0.2904 0.0940 Uiso
H42 H 0.2149 0.6370 0.3991 0.0940 Uiso
Br1 Br 0.5917(2) 0.3975(3) 0.8692(6) 0.1377 Uani
O5 O 0.7058(9) 0.4265(8) 0.7418(17) 0.0960 Uani
C31 C 0.7155(9) 0.4666(9) 0.790(2) 0.0767 Uani
O6 O 0.6848(6) 0.4982(6) 0.8129(14) 0.0757 Uani
C32 C 0.7683(12) 0.4769(18) 0.822(4) 0.1173 Uani
H43 H 0.7897 0.4495 0.7998 0.1790 Uiso
H44 H 0.7797 0.5080 0.7905 0.1790 Uiso
H45 H 0.7699 0.4801 0.8952 0.1790 Uiso
C33 C 0.4998(7) 0.5620(7) 0.6365(15) 0.0563 Uani
H46 H 0.4767 0.5650 0.5827 0.0680 Uiso
C34 C 0.5024(10) 0.5987(8) 0.710(2) 0.0587 Uani
C35 C 0.5362(11) 0.5943(9) 0.789(2) 0.0833 Uani
H47 H 0.5379 0.6194 0.8392 0.0980 Uiso
C36 C 0.5674(9) 0.5532(8) 0.7941(17) 0.0833 Uani
H48 H 0.5905 0.5502 0.8480 0.1000 Uiso
N3 N 0.5648(7) 0.5165(6) 0.7205(15) 0.0670 Uani
C37 C 0.5310(6) 0.5209(6) 0.6417(12) 0.0573 Uani
H49 H 0.5292 0.4958 0.5914 0.0690 Uiso
N4 N 0.1666(9) 1.0024(8) 0.1764(16) 0.0587 Uani
C38 C 0.1779(8) 0.9282(9) 0.2586(19) 0.0557 Uani
H50 H 0.1661 0.8956 0.2727 0.0670 Uiso
C39 C 0.1521(10) 0.9571(10) 0.195(2) 0.0780 Uani
H51 H 0.1230 0.9444 0.1638 0.0920 Uiso
C40 C 0.2196(10) 0.9436(10) 0.3026(18) 0.0400 Uani
C41 C 0.2054(13) 1.0169(11) 0.216(2) 0.0573 Uani
H52 H 0.2165 1.0495 0.2005 0.0690 Uiso
Ti1G Ti 0.22582(6) 0.69427(5) 0.82129(13) 0.0359 Uani
O1G O 0.1791(2) 0.7129(2) 0.7248(5) 0.0430 Uani
O2G O 0.1743(2) 0.6775(2) 0.9191(5) 0.0393 Uani
N1G N 0.2268(3) 0.7633(3) 0.9102(6) 0.0430 Uani
H1G H 0.2462 0.7883 0.8703 0.0510 Uiso
N2G N 0.2838(3) 0.6792(3) 0.9411(6) 0.0420 Uani
H2G H 0.2690 0.6563 0.9923 0.0510 Uiso
O4G O 0.2375(2) 0.6278(2) 0.7905(5) 0.0420 Uani
C1G C 0.2992(4) 0.7257(4) 0.9934(7) 0.0470 Uani
H3G H 0.3225 0.7441 0.9479 0.0560 Uiso
C2G C 0.3285(4) 0.6542(4) 0.8964(8) 0.0477 Uani
H4G H 0.3528 0.6481 0.9510 0.0580 Uiso
H5G H 0.3441 0.6774 0.8479 0.0580 Uiso
C3G C 0.0893(2) 0.69714(19) 1.1271(4) 0.0457 Uani
H6G H 0.0701 0.6785 1.1740 0.0550 Uiso
C4G C 0.1180(2) 0.67277(14) 1.0553(5) 0.0410 Uani
C5G C 0.14598(19) 0.70007(17) 0.9868(4) 0.0377 Uani
C6G C 0.1453(2) 0.75173(17) 0.9901(4) 0.0457 Uani
C7G C 0.1166(2) 0.77610(14) 1.0619(5) 0.0533 Uani
H7G H 0.1161 0.8114 1.0641 0.0640 Uiso
C8G C 0.0886(2) 0.74880(19) 1.1304(5) 0.0513 Uani
C9G C 0.35823(19) 0.5724(2) 0.8387(5) 0.0563 Uani
H8G H 0.3882 0.5798 0.8735 0.0670 Uiso
C10G C 0.3540(2) 0.5285(2) 0.7840(6) 0.0630 Uani
C11G C 0.3101(2) 0.51771(18) 0.7331(5) 0.0603 Uani
H9G H 0.3073 0.4877 0.6957 0.0720 Uiso
C12G C 0.2705(2) 0.5508(2) 0.7370(5) 0.0477 Uani
C13G C 0.27466(18) 0.59465(18) 0.7917(5) 0.0427 Uani
C14G C 0.3185(2) 0.60546(18) 0.8426(5) 0.0467 Uani
C15G C 0.1280(4) 0.7028(5) 0.7154(10) 0.0683 Uani
H10G H 0.1151 0.7189 0.6543 0.1020 Uiso
H11G H 0.1228 0.6668 0.7107 0.1020 Uiso
H12G H 0.1103 0.7158 0.7745 0.1020 Uiso
Cd1G Cd 0.54718(11) 0.37373(10) 0.7889(3) 0.0652 Uani
C16G C 0.1753(3) 0.7828(3) 0.9185(9) 0.0487 Uani
H13G H 0.1594 0.7825 0.8512 0.0580 Uiso
H14G H 0.1762 0.8176 0.9428 0.0580 Uiso
C17G C 0.1178(4) 0.6144(3) 1.0513(8) 0.0453 Uani
C18G C 0.3247(4) 0.7184(5) 1.0931(8) 0.0643 Uani
H15G H 0.3556 0.6990 1.0828 0.0770 Uiso
H16G H 0.3027 0.6992 1.1385 0.0770 Uiso
C19G C 0.2209(5) 0.5383(3) 0.6796(9) 0.0577 Uani
C20G C 0.1717(4) 0.5948(4) 1.0646(10) 0.0620 Uani
H17G H 0.1917 0.6044 1.0059 0.0930 Uiso
H18G H 0.1712 0.5585 1.0705 0.0930 Uiso
H19G H 0.1863 0.6092 1.1257 0.0930 Uiso
C21G C 0.2925(5) 0.8014(6) 1.1540(10) 0.0797 Uani
H20G H 0.2697 0.7867 1.2045 0.0960 Uiso
H21G H 0.3035 0.8342 1.1799 0.0960 Uiso
C22G C 0.2525(4) 0.7578(4) 1.0083(8) 0.0493 Uani
H22G H 0.2296 0.7396 1.0548 0.0590 Uiso
C23G C 0.1771(4) 0.5387(4) 0.7496(10) 0.0567 Uani
H23G H 0.1808 0.5121 0.7997 0.0850 Uiso
H24G H 0.1465 0.5333 0.7109 0.0850 Uiso
H25G H 0.1753 0.5709 0.7841 0.0850 Uiso
C24G C 0.2234(6) 0.4858(4) 0.6253(10) 0.0707 Uani
H26G H 0.2531 0.4843 0.5826 0.1060 Uiso
H27G H 0.1936 0.4812 0.5836 0.1060 Uiso
H28G H 0.2249 0.4594 0.6763 0.1060 Uiso
C25G C 0.2130(5) 0.5773(4) 0.5961(9) 0.0643 Uani
H29G H 0.2056 0.6096 0.6268 0.0970 Uiso
H30G H 0.1852 0.5671 0.5531 0.0970 Uiso
H31G H 0.2433 0.5800 0.5552 0.0970 Uiso
C26G C 0.2653(4) 0.8087(4) 1.0581(9) 0.0650 Uani
H32G H 0.2859 0.8286 1.0112 0.0780 Uiso
H33G H 0.2342 0.8273 1.0712 0.0780 Uiso
C27G C 0.0963(4) 0.5975(4) 0.9541(9) 0.0563 Uani
H34G H 0.0625 0.6106 0.9471 0.0850 Uiso
H35G H 0.0954 0.5611 0.9527 0.0850 Uiso
H36G H 0.1169 0.6096 0.8983 0.0850 Uiso
C28G C 0.0097(16) 0.7670(13) 1.220(2) 0.0527 Uani
H37G H -0.0044 0.7380 1.1903 0.0650 Uiso
C29G C 0.0875(5) 0.5919(5) 1.1371(11) 0.0787 Uani
H38G H 0.1062 0.5947 1.2003 0.1180 Uiso
H39G H 0.0810 0.5567 1.1226 0.1180 Uiso
H40G H 0.0559 0.6097 1.1435 0.1180 Uiso
C30G C 0.3376(5) 0.7679(6) 1.1424(11) 0.0790 Uani
H41G H 0.3523 0.7615 1.2096 0.0940 Uiso
H42G H 0.3630 0.7851 1.1009 0.0940 Uiso
Br1G Br 0.6025(3) 0.4083(2) 0.6308(6) 0.1377 Uani
O5G O 0.5735(8) 0.2942(9) 0.7582(17) 0.0960 Uani
C31G C 0.5334(9) 0.2845(9) 0.710(2) 0.0767 Uani
O6G O 0.5018(6) 0.3152(6) 0.6871(14) 0.0757 Uani
C32G C 0.5231(18) 0.2317(12) 0.678(4) 0.1173 Uani
H43G H 0.5505 0.2103 0.7002 0.1790 Uiso
H44G H 0.4920 0.2203 0.7095 0.1790 Uiso
H45G H 0.5199 0.2301 0.6048 0.1790 Uiso
C33G C 0.4380(7) 0.5002(7) 0.8635(15) 0.0563 Uani
H46G H 0.4350 0.5233 0.9173 0.0680 Uiso
C34G C 0.4013(8) 0.4976(10) 0.790(2) 0.0587 Uani
C35G C 0.4057(9) 0.4638(11) 0.711(2) 0.0833 Uani
H47G H 0.3806 0.4621 0.6608 0.0980 Uiso
C36G C 0.4468(8) 0.4326(9) 0.7059(17) 0.0833 Uani
H48G H 0.4498 0.4095 0.6520 0.1000 Uiso
N3G N 0.4835(6) 0.4352(7) 0.7795(15) 0.0670 Uani
C37G C 0.4791(6) 0.4690(6) 0.8583(12) 0.0573 Uani
H49G H 0.5042 0.4708 0.9086 0.0690 Uiso
N4G N -0.0024(8) 0.8334(9) 1.3236(16) 0.0587 Uani
C38G C 0.0718(9) 0.8221(8) 1.2414(19) 0.0557 Uani
H50G H 0.1044 0.8339 1.2273 0.0670 Uiso
C39G C 0.0429(10) 0.8479(10) 1.305(2) 0.0780 Uani
H51G H 0.0556 0.8770 1.3362 0.0920 Uiso
C40G C 0.0564(10) 0.7804(10) 1.1974(18) 0.0400 Uani
C41G C -0.0169(11) 0.7946(13) 1.284(2) 0.0573 Uani
H52G H -0.0495 0.7835 1.2995 0.0690 Uiso
Cd1C Cd -0.04718(11) 0.87373(10) 1.4611(3) 0.0652 Uani
Cd1D Cd 0.12627(10) 1.04718(11) 0.0389(3) 0.0652 Uani
N4C N 0.5024(8) 0.3334(9) 0.9264(16) 0.0587 Uani
N4D N 0.6666(9) 0.4976(8) 0.5736(16) 0.0587 Uani
loop_
_atom_site_aniso_label
_atom_site_aniso_U_11
_atom_site_aniso_U_22
_atom_site_aniso_U_33
_atom_site_aniso_U_23
_atom_site_aniso_U_13
_atom_site_aniso_U_12
Ti1 0.0228(8) 0.0282(8) 0.0566(9) 0.0031(7) 0.0012(7) 0.0010(6)
O1 0.036(3) 0.027(3) 0.066(4) -0.001(3) 0.005(3) -0.001(2)
O2 0.026(3) 0.031(3) 0.061(4) 0.010(3) 0.006(3) 0.000(2)
N1 0.035(4) 0.033(4) 0.061(5) 0.014(4) -0.004(4) -0.002(3)
N2 0.038(4) 0.031(4) 0.057(4) 0.006(3) 0.004(4) 0.000(3)
O3 0.028(2) 0.028(2) 0.057(5) -0.002(3) -0.002(3) 0.002(3)
O4 0.022(3) 0.036(3) 0.068(4) 0.002(3) 0.000(3) 0.002(2)
C1 0.046(5) 0.042(5) 0.053(5) 0.010(4) -0.013(5) -0.011(4)
C2 0.040(5) 0.040(5) 0.063(6) 0.005(5) 0.008(5) 0.010(4)
C3 0.036(5) 0.031(5) 0.070(6) 0.002(5) 0.001(5) -0.003(4)
C4 0.037(5) 0.025(4) 0.061(6) 0.000(4) 0.006(4) 0.000(4)
C5 0.031(4) 0.026(4) 0.056(5) -0.003(4) 0.001(4) 0.002(3)
C6 0.035(5) 0.029(5) 0.073(6) 0.002(4) -0.004(5) 0.002(4)
C7 0.034(5) 0.033(5) 0.093(8) 0.013(5) -0.010(5) -0.001(4)
C8 0.034(5) 0.036(5) 0.084(7) 0.016(5) -0.011(5) -0.005(4)
C9 0.047(6) 0.040(5) 0.082(7) 0.009(5) 0.022(6) 0.005(5)
C10 0.030(5) 0.068(7) 0.091(8) 0.028(7) 0.012(5) 0.021(5)
C11 0.029(5) 0.054(7) 0.098(8) 0.021(6) 0.007(5) 0.010(4)
C12 0.025(5) 0.050(6) 0.068(6) 0.010(5) 0.006(4) 0.002(4)
C13 0.025(4) 0.035(5) 0.068(6) 0.006(5) 0.008(4) 0.008(4)
C14 0.031(5) 0.040(5) 0.069(6) 0.011(5) 0.016(4) 0.006(4)
C15 0.077(8) 0.042(6) 0.086(8) -0.008(6) 0.026(7) -0.012(5)
Cd1 0.0557(12) 0.0536(13) 0.0863(18) 0.0225(13) 0.0188(12) 0.0257(9)
C16 0.027(5) 0.035(5) 0.084(7) 0.008(5) 0.003(5) 0.001(4)
C17 0.033(5) 0.038(5) 0.065(6) 0.006(5) 0.006(4) 0.003(4)
C18 0.086(9) 0.048(6) 0.059(6) -0.004(5) -0.010(6) 0.000(6)
C19 0.014(4) 0.080(8) 0.079(7) 0.015(6) -0.005(5) -0.002(4)
C20 0.059(7) 0.053(6) 0.074(7) 0.012(6) 0.018(6) 0.025(5)
C21 0.089(10) 0.073(9) 0.077(8) 0.019(7) -0.024(7) -0.023(7)
C22 0.046(6) 0.038(5) 0.064(6) 0.012(5) -0.013(5) -0.012(4)
C23 0.038(5) 0.042(6) 0.090(8) 0.003(5) -0.009(5) -0.003(4)
C24 0.031(5) 0.097(10) 0.084(8) 0.014(8) -0.012(6) -0.002(6)
C25 0.040(6) 0.080(8) 0.073(7) -0.003(6) 0.008(5) -0.004(6)
C26 0.060(7) 0.054(6) 0.081(7) 0.009(6) -0.031(6) -0.022(5)
C27 0.038(5) 0.035(5) 0.096(8) 0.006(5) -0.010(6) -0.001(4)
C28 0.041(15) 0.07(2) 0.047(15) 0.024(12) 0.003(11) 0.012(12)
C29 0.044(6) 0.090(10) 0.102(10) 0.044(9) 0.021(7) 0.005(6)
C30 0.104(11) 0.056(7) 0.077(8) -0.006(6) -0.017(8) -0.013(7)
Br1 0.085(3) 0.164(6) 0.164(5) 0.078(4) 0.026(3) 0.018(3)
O5 0.096(5) 0.096(5) 0.096(5) 0.0008(14) 0.0002(14) 0.0003(14)
C31 0.066(2) 0.061(2) 0.103(3) 0.032(2) 0.024(2) 0.023(2)
O6 0.065(2) 0.060(2) 0.102(3) 0.033(2) 0.025(2) 0.0238(18)
C32 0.112(16) 0.14(3) 0.10(2) 0.02(2) -0.038(18) -0.012(19)
C33 0.031(12) 0.061(13) 0.077(16) 0.014(10) 0.008(11) 0.008(10)
C34 0.040(12) 0.048(12) 0.088(18) 0.014(10) -0.010(11) 0.023(10)
C35 0.069(18) 0.081(17) 0.10(2) 0.000(17) -0.028(15) 0.029(14)
C36 0.08(2) 0.08(2) 0.09(2) 0.014(17) -0.057(17) 0.016(16)
N3 0.035(11) 0.090(19) 0.076(14) 0.000(13) 0.003(9) 0.010(11)
C37 0.042(11) 0.057(12) 0.073(12) 0.027(11) 0.010(10) 0.028(10)
N4 0.061(13) 0.050(12) 0.065(14) 0.024(11) -0.018(12) -0.011(9)
C38 0.033(12) 0.036(12) 0.098(19) 0.022(13) -0.009(12) -0.008(9)
C39 0.057(16) 0.067(18) 0.11(2) 0.024(16) -0.010(15) -0.030(14)
C40 0.016(9) 0.037(12) 0.067(14) 0.023(11) 0.008(11) -0.004(8)
C41 0.053(16) 0.049(14) 0.07(2) 0.004(12) 0.004(15) -0.016(11)
Ti1G 0.0282 0.0228 0.0566 0.0012 0.0031 0.001
O1G 0.027 0.036 0.066 0.005 -0.001 -0.001
O2G 0.031 0.026 0.061 0.006 0.01 0
N1G 0.033 0.035 0.061 -0.004 0.014 -0.002
N2G 0.031 0.038 0.057 0.004 0.006 0
O4G 0.036 0.022 0.068 0 0.002 0.002
C1G 0.042 0.046 0.053 -0.013 0.01 -0.011
C2G 0.04 0.04 0.063 0.008 0.005 0.01
C3G 0.031 0.036 0.07 0.001 0.002 -0.003
C4G 0.025 0.037 0.061 0.006 0 0
C5G 0.026 0.031 0.056 0.001 -0.003 0.002
C6G 0.029 0.035 0.073 -0.004 0.002 0.002
C7G 0.033 0.034 0.093 -0.01 0.013 -0.001
C8G 0.036 0.034 0.084 -0.011 0.016 -0.005
C9G 0.04 0.047 0.082 0.022 0.009 0.005
C10G 0.068 0.03 0.091 0.012 0.028 0.021
C11G 0.054 0.029 0.098 0.007 0.021 0.01
C12G 0.05 0.025 0.068 0.006 0.01 0.002
C13G 0.035 0.025 0.068 0.008 0.006 0.008
C14G 0.04 0.031 0.069 0.016 0.011 0.006
C15G 0.042 0.077 0.086 0.026 -0.008 -0.012
Cd1G 0.0536 0.0557 0.0863 0.0188 0.0225 0.0257
C16G 0.035 0.027 0.084 0.003 0.008 0.001
C17G 0.038 0.033 0.065 0.006 0.006 0.003
C18G 0.048 0.086 0.059 -0.01 -0.004 0
C19G 0.08 0.014 0.079 -0.005 0.015 -0.002
C20G 0.053 0.059 0.074 0.018 0.012 0.025
C21G 0.073 0.089 0.077 -0.024 0.019 -0.023
C22G 0.038 0.046 0.064 -0.013 0.012 -0.012
C23G 0.042 0.038 0.09 -0.009 0.003 -0.003
C24G 0.097 0.031 0.084 -0.012 0.014 -0.002
C25G 0.08 0.04 0.073 0.008 -0.003 -0.004
C26G 0.054 0.06 0.081 -0.031 0.009 -0.022
C27G 0.035 0.038 0.096 -0.01 0.006 -0.001
C28G 0.07 0.041 0.047 0.003 0.024 0.012
C29G 0.09 0.044 0.102 0.021 0.044 0.005
C30G 0.056 0.104 0.077 -0.017 -0.006 -0.013
Br1G 0.164 0.085 0.164 0.026 0.078 0.018
O5G 0.096 0.096 0.096 0.0002 0.0008 0.0003
C31G 0.061 0.066 0.103 0.024 0.032 0.023
O6G 0.06 0.065 0.102 0.025 0.033 0.0238
C32G 0.14 0.112 0.1 -0.038 0.02 -0.012
C33G 0.061 0.031 0.077 0.008 0.014 0.008
C34G 0.048 0.04 0.088 -0.01 0.014 0.023
C35G 0.081 0.069 0.1 -0.028 0 0.029
C36G 0.08 0.08 0.09 -0.057 0.014 0.016
N3G 0.09 0.035 0.076 0.003 0 0.01
C37G 0.057 0.042 0.073 0.01 0.027 0.028
N4G 0.05 0.061 0.065 -0.018 0.024 -0.011
C38G 0.036 0.033 0.098 -0.009 0.022 -0.008
C39G 0.067 0.057 0.11 -0.01 0.024 -0.03
C40G 0.037 0.016 0.067 0.008 0.023 -0.004
C41G 0.049 0.053 0.07 0.004 0.004 -0.016
Cd1C 0.0536 0.0557 0.0863 -0.0188 0.0225 -0.0257
Cd1D 0.0557 0.0536 0.0863 0.0225 -0.0188 -0.0257
N4C 0.05 0.061 0.065 0.018 0.024 0.011
N4D 0.061 0.05 0.065 0.024 0.018 0.011
loop_
_geom_bond_atom_site_label_1
_geom_bond_atom_site_label_2
_geom_bond_site_symmetry_1
_geom_bond_site_symmetry_2
Ti1 O1 1_555 1_555
O1 C15 1_555 1_555
O2 Ti1 1_555 1_555
N1 Ti1 1_555 1_555
H1 N1 1_555 1_555
N2 Ti1 1_555 1_555
H2 N2 1_555 1_555
O3 Ti1 1_555 1_555
O4 Ti1 1_555 1_555
C1 N2 1_555 1_555
H3 C1 1_555 1_555
C2 N2 1_555 1_555
H4 C2 1_555 1_555
H5 C2 1_555 1_555
C3 H6 1_555 1_555
C4 C3 1_555 1_555
C5 O2 1_555 1_555
C6 C5 1_555 1_555
C7 C6 1_555 1_555
H7 C7 1_555 1_555
C8 C3 1_555 1_555
C9 H8 1_555 1_555
C10 C9 1_555 1_555
C11 C10 1_555 1_555
H9 C11 1_555 1_555
C12 C11 1_555 1_555
C13 O4 1_555 1_555
C14 C2 1_555 1_555
C15 H10 1_555 1_555
H11 C15 1_555 1_555
H12 C15 1_555 1_555
Cd1 Br1 1_555 1_555
C16 N1 1_555 1_555
H13 C16 1_555 1_555
H14 C16 1_555 1_555
C17 C4 1_555 1_555
C18 C1 1_555 1_555
H15 C18 1_555 1_555
H16 C18 1_555 1_555
C19 C12 1_555 1_555
C20 C17 1_555 1_555
H17 C20 1_555 1_555
H18 C20 1_555 1_555
H19 C20 1_555 1_555
C21 H20 1_555 1_555
H21 C21 1_555 1_555
C22 N1 1_555 1_555
H22 C22 1_555 1_555
C23 C19 1_555 1_555
H23 C23 1_555 1_555
H24 C23 1_555 1_555
H25 C23 1_555 1_555
C24 C19 1_555 1_555
H26 C24 1_555 1_555
H27 C24 1_555 1_555
H28 C24 1_555 1_555
C25 C19 1_555 1_555
H29 C25 1_555 1_555
H30 C25 1_555 1_555
H31 C25 1_555 1_555
C26 C21 1_555 1_555
H32 C26 1_555 1_555
H33 C26 1_555 1_555
C27 C17 1_555 1_555
H34 C27 1_555 1_555
H35 C27 1_555 1_555
H36 C27 1_555 1_555
C28 H37 1_555 1_555
C29 C17 1_555 1_555
H38 C29 1_555 1_555
H39 C29 1_555 1_555
H40 C29 1_555 1_555
C30 C18 1_555 1_555
H41 C30 1_555 1_555
H42 C30 1_555 1_555
Br1 Cd1G 1_555 1_555
O5 Cd1 1_555 1_555
C31 O5 1_555 1_555
O6 Cd1 1_555 1_555
C32 C31 1_555 1_555
H43 C32 1_555 1_555
H44 C32 1_555 1_555
H45 C32 1_555 1_555
C33 H46 1_555 1_555
C34 C10 1_555 1_555
C35 C34 1_555 1_555
H47 C35 1_555 1_555
C36 C35 1_555 1_555
H48 C36 1_555 1_555
N3 Cd1 1_555 1_555
C37 C33 1_555 1_555
H49 C37 1_555 1_555
N4 C39 1_555 1_555
C38 H50 1_555 1_555
C39 C38 1_555 1_555
H51 C39 1_555 1_555
C40 C8 1_555 1_555
C41 C28 1_555 1_555
H52 C41 1_555 1_555
Ti1G O3 1_555 1_555
O1G Ti1G 1_555 1_555
O2G Ti1G 1_555 1_555
N1G Ti1G 1_555 1_555
H1G N1G 1_555 1_555
N2G Ti1G 1_555 1_555
H2G N2G 1_555 1_555
O4G Ti1G 1_555 1_555
C1G N2G 1_555 1_555
H3G C1G 1_555 1_555
C2G N2G 1_555 1_555
H4G C2G 1_555 1_555
H5G C2G 1_555 1_555
C3G H6G 1_555 1_555
C4G C3G 1_555 1_555
C5G O2G 1_555 1_555
C6G C5G 1_555 1_555
C7G C6G 1_555 1_555
H7G C7G 1_555 1_555
C8G C3G 1_555 1_555
C9G H8G 1_555 1_555
C10G C9G 1_555 1_555
C11G C10G 1_555 1_555
H9G C11G 1_555 1_555
C12G C11G 1_555 1_555
C13G O4G 1_555 1_555
C14G C2G 1_555 1_555
C15G O1G 1_555 1_555
H10G C15G 1_555 1_555
H11G C15G 1_555 1_555
H12G C15G 1_555 1_555
Cd1G Br1G 1_555 1_555
C16G N1G 1_555 1_555
H13G C16G 1_555 1_555
H14G C16G 1_555 1_555
C17G C4G 1_555 1_555
C18G C1G 1_555 1_555
H15G C18G 1_555 1_555
H16G C18G 1_555 1_555
C19G C12G 1_555 1_555
C20G C17G 1_555 1_555
H17G C20G 1_555 1_555
H18G C20G 1_555 1_555
H19G C20G 1_555 1_555
C21G H20G 1_555 1_555
H21G C21G 1_555 1_555
C22G N1G 1_555 1_555
H22G C22G 1_555 1_555
C23G C19G 1_555 1_555
H23G C23G 1_555 1_555
H24G C23G 1_555 1_555
H25G C23G 1_555 1_555
C24G C19G 1_555 1_555
H26G C24G 1_555 1_555
H27G C24G 1_555 1_555
H28G C24G 1_555 1_555
C25G C19G 1_555 1_555
H29G C25G 1_555 1_555
H30G C25G 1_555 1_555
H31G C25G 1_555 1_555
C26G C21G 1_555 1_555
H32G C26G 1_555 1_555
H33G C26G 1_555 1_555
C27G C17G 1_555 1_555
H34G C27G 1_555 1_555
H35G C27G 1_555 1_555
H36G C27G 1_555 1_555
C28G H37G 1_555 1_555
C29G C17G 1_555 1_555
H38G C29G 1_555 1_555
H39G C29G 1_555 1_555
H40G C29G 1_555 1_555
C30G C18G 1_555 1_555
H41G C30G 1_555 1_555
H42G C30G 1_555 1_555
Br1G Cd1 1_555 1_555
O5G Cd1G 1_555 1_555
C31G O5G 1_555 1_555
O6G Cd1G 1_555 1_555
C32G C31G 1_555 1_555
H43G C32G 1_555 1_555
H44G C32G 1_555 1_555
H45G C32G 1_555 1_555
C33G H46G 1_555 1_555
C34G C10G 1_555 1_555
C35G C34G 1_555 1_555
H47G C35G 1_555 1_555
C36G C35G 1_555 1_555
H48G C36G 1_555 1_555
N3G Cd1G 1_555 1_555
C37G C33G 1_555 1_555
H49G C37G 1_555 1_555
N4G C39G 1_555 1_555
C38G H50G 1_555 1_555
C39G C38G 1_555 1_555
H51G C39G 1_555 1_555
C40G C8G 1_555 1_555
C41G C28G 1_555 1_555
H52G C41G 1_555 1_555
Cd1C N4G 1_555 1_555
Cd1D N4 1_555 1_555
N4C Cd1G 1_555 1_555
N4D Cd1 1_555 1_555
C1 C22 1_555 1_555
C4 C5 1_555 1_555
C6 C16 1_555 1_555
C7 C8 1_555 1_555
C9 C14 1_555 1_555
C12 C13 1_555 1_555
C13 C14 1_555 1_555
C21 C30 1_555 1_555
C22 C26 1_555 1_555
C28 C40 1_555 1_555
C31 O6 1_555 1_555
C33 C34 1_555 1_555
C36 N3 1_555 1_555
N3 C37 1_555 1_555
N4 C41 1_555 1_555
C38 C40 1_555 1_555
C1G C22G 1_555 1_555
C4G C5G 1_555 1_555
C6G C16G 1_555 1_555
C7G C8G 1_555 1_555
C9G C14G 1_555 1_555
C12G C13G 1_555 1_555
C13G C14G 1_555 1_555
C21G C30G 1_555 1_555
C22G C26G 1_555 1_555
C28G C40G 1_555 1_555
C31G O6G 1_555 1_555
C33G C34G 1_555 1_555
C36G N3G 1_555 1_555
N3G C37G 1_555 1_555
N4G C41G 1_555 1_555
C38G C40G 1_555 1_555

#END
