
#######################################################################
#
#                 Cambridge Crystallographic Data Centre
#                                CCDC 
#
#######################################################################
#
# If this CIF has been generated from an entry in the Cambridge 
# Structural Database, then it will include bibliographic, chemical, 
# crystal, experimental, refinement or atomic coordinate data resulting 
# from the CCDC's data processing and validation procedures.
#
#######################################################################

data_PENNIH
_chemical_formula_moiety         'C35 H16 Co7 N3 O16'
_symmetry_cell_setting           tetragonal
_symmetry_space_group_name_H-M   'I -4 2 d'
_symmetry_Int_Tables_number      122
_space_group_name_Hall           'I -4 2bw'
loop_
_symmetry_equiv_pos_site_id
_symmetry_equiv_pos_as_xyz
1 x,y,z
2 -x,-y,z
3 y,-x,-z
4 -y,x,-z
5 1/2-x,y,3/4-z
6 1/2+x,-y,3/4-z
7 1/2-y,-x,3/4+z
8 1/2+y,x,3/4+z
9 1/2+x,1/2+y,1/2+z
10 1/2-x,1/2-y,1/2+z
11 1/2+y,1/2-x,1/2-z
12 1/2-y,1/2+x,1/2-z
13 -x,1/2+y,1/4-z
14 x,1/2-y,1/4-z
15 -y,1/2-x,1/4+z
16 y,1/2+x,1/4+z
_cell_length_a                   25.5147(6)
_cell_length_b                   25.5147(6)
_cell_length_c                   14.5426(7)
_cell_angle_alpha                90
_cell_angle_beta                 90
_cell_angle_gamma                90
_cell_volume                     9467.23
loop_
_atom_site_label
_atom_site_type_symbol
_atom_site_fract_x
_atom_site_fract_y
_atom_site_fract_z
Co1 Co 0.49964(7) 0.31661(5) -0.83637(9)
O1 O 0.5583(3) 0.3645(3) -0.8959(5)
O2 O 0.5651(4) 0.3431(3) -0.7491(6)
O3 O 0.7752(3) 0.4660(3) -0.9875(5)
O4 O 0.6960(3) 0.4553(3) -1.0520(5)
C1 C 0.6379(4) 0.3858(4) -0.8188(7)
C2 C 0.7562(7) 0.4011(7) -0.6650(9)
C3 C 0.6563(4) 0.4080(4) -0.8978(7)
H1 H 0.6342 0.4105 -0.9503
C4 C 0.7084(4) 0.4272(4) -0.9014(7)
C5 C 0.7392(5) 0.4245(4) -0.8213(9)
H2 H 0.7738 0.4382 -0.8218
C6 C 0.7200(5) 0.4026(5) -0.7429(8)
C7 C 0.6693(5) 0.3836(5) -0.7414(8)
H3 H 0.6558 0.3687 -0.6863
C8 C 0.5847(5) 0.3638(4) -0.8204(8)
C9 C 0.7293(5) 0.4520(4) -0.9862(8)
O5 O 0.8106(10) 0.4101(11) -0.6931(14)
N2 N 0.4521(4) 0.3829(4) -0.8052(8)
C10 C 0.4195(8) 0.3805(7) -0.7287(10)
H4 H 0.4240 0.3534 -0.6847
C11 C 0.3804(8) 0.4178(10) -0.7167(17)
H5 H 0.3582 0.4162 -0.6645
C12 C 0.3740(8) 0.4575(9) -0.781(2)
H6 H 0.3472 0.4830 -0.7730
C13 C 0.4066(9) 0.4599(6) -0.8577(17)
H7 H 0.4021 0.4870 -0.9017
C14 C 0.4457(7) 0.4226(6) -0.8697(9)
H8 H 0.4679 0.4242 -0.9219
O6 O 0.5482(4) 0.2500 -0.8750
N3 N 0.6376(7) 0.2500 -0.8750
C15 C 0.5882(8) 0.2580(7) -0.9159(14)
C16 C 0.6024(10) 0.2740(9) -1.0141(15)
C17 C 0.6938(7) 0.2500 -0.8750
C18 C 0.6294(8) 0.2630(12) -0.9708(9)
Co1D Co 1.00036(7) 0.31661(5) -0.41363(9)
Co1G Co 0.81661(5) 0.49964(7) -1.08637(9)
Co1C Co 0.68339(5) 0.49964(7) -1.16363(9)
Co1M Co 0.49964(7) 0.18339(5) -0.91363(9)
Co1C_2 Co 0.68339(5) 0.49964(7) -0.16363(9)
Co1G_2 Co 0.81661(5) 0.49964(7) -0.08637(9)
O1D O 0.9417(3) 0.3645(3) -0.3541(5)
O2D O 0.9349(4) 0.3431(3) -0.5009(6)
O3D O 0.7248(3) 0.4660(3) -0.2625(5)
O3O O 0.4660(3) 0.2752(3) -0.7375(5)
O3K O 1.0340(3) 0.2752(3) -0.5125(5)
O4D O 0.8040(3) 0.4553(3) -0.1980(5)
O4B O 0.4553(3) 0.3040(3) -0.9480(5)
O4F O 1.0447(3) 0.3040(3) -0.3020(5)
C1D C 0.8621(4) 0.3858(4) -0.4312(7)
C2D C 0.7438(7) 0.4011(7) -0.5850(9)
C3D C 0.8437(4) 0.4080(4) -0.3522(7)
H1D H 0.8658 0.4105 -0.2997
C4D C 0.7916(4) 0.4272(4) -0.3486(7)
C5D C 0.7608(5) 0.4245(4) -0.4287(9)
H2D H 0.7262 0.4382 -0.4282
C6D C 0.7800(5) 0.4026(5) -0.5071(8)
C7D C 0.8307(5) 0.3836(5) -0.5086(8)
H3D H 0.8442 0.3687 -0.5637
C8D C 0.9153(5) 0.3638(4) -0.4296(8)
C9D C 0.7707(5) 0.4520(4) -0.2638(8)
O5D O 0.6894(10) 0.4101(11) -0.5569(14)
N2D N 1.0479(4) 0.3829(4) -0.4448(8)
C10D C 1.0805(8) 0.3805(7) -0.5213(10)
H4D H 1.0760 0.3534 -0.5653
C11D C 1.1196(8) 0.4178(10) -0.5333(17)
H5D H 1.1418 0.4162 -0.5855
C12D C 1.1260(8) 0.4575(9) -0.469(2)
H6D H 1.1528 0.4830 -0.4770
C13D C 1.0934(9) 0.4599(6) -0.3923(17)
H7D H 1.0979 0.4870 -0.3483
C14D C 1.0543(7) 0.4226(6) -0.3803(9)
H8D H 1.0321 0.4242 -0.3281
O6D O 0.9518(4) 0.2500 -0.3750
C15M C 0.5882(8) 0.2420(7) -0.8341(14)
C16M C 0.6024(10) 0.2260(9) -0.7359(15)
C18M C 0.6294(8) 0.2370(12) -0.7792(9)
loop_
_geom_bond_atom_site_label_1
_geom_bond_atom_site_label_2
_geom_bond_site_symmetry_1
_geom_bond_site_symmetry_2
Co1 O1 1_555 1_555
O1 C8 1_555 1_555
O2 Co1 1_555 1_555
O3 C9 1_555 1_555
O4 C9 1_555 1_555
C1 C3 1_555 1_555
C2 C6 1_555 1_555
C3 H1 1_555 1_555
C4 C3 1_555 1_555
C5 C4 1_555 1_555
H2 C5 1_555 1_555
C6 C5 1_555 1_555
C7 C1 1_555 1_555
H3 C7 1_555 1_555
C8 O2 1_555 1_555
C9 C4 1_555 1_555
O5 C2 1_555 1_555
N2 Co1 1_555 1_555
C10 N2 1_555 1_555
H4 C10 1_555 1_555
C11 C10 1_555 1_555
H5 C11 1_555 1_555
C12 C11 1_555 1_555
H6 C12 1_555 1_555
C13 C12 1_555 1_555
H7 C13 1_555 1_555
C14 N2 1_555 1_555
H8 C14 1_555 1_555
O6 Co1 1_555 1_555
N3 C15 1_555 1_555
C15 O6 1_555 1_555
C16 C15 1_555 1_555
C17 N3 1_555 1_555
C18 N3 1_555 1_555
Co1D O1D 1_555 1_555
Co1G O3 1_555 1_555
Co1C O4 1_555 1_555
Co1M O6 1_555 1_555
Co1C_2 O3D 1_555 1_555
Co1G_2 O4D 1_555 1_555
O1D C8D 1_555 1_555
O2D Co1D 1_555 1_555
O3D C9D 1_555 1_555
O3O Co1 1_555 1_555
O3K Co1D 1_555 1_555
O4D C9D 1_555 1_555
O4B Co1 1_555 1_555
O4F Co1D 1_555 1_555
C1D C3D 1_555 1_555
C2D C2 1_555 1_555
C3D H1D 1_555 1_555
C4D C3D 1_555 1_555
C5D C4D 1_555 1_555
H2D C5D 1_555 1_555
C6D C2D 1_555 1_555
C7D C1D 1_555 1_555
H3D C7D 1_555 1_555
C8D O2D 1_555 1_555
C9D C4D 1_555 1_555
O5D C2D 1_555 1_555
N2D Co1D 1_555 1_555
C10D N2D 1_555 1_555
H4D C10D 1_555 1_555
C11D C10D 1_555 1_555
H5D C11D 1_555 1_555
C12D C11D 1_555 1_555
H6D C12D 1_555 1_555
C13D C12D 1_555 1_555
H7D C13D 1_555 1_555
C14D N2D 1_555 1_555
H8D C14D 1_555 1_555
O6D Co1D 1_555 1_555
C15M O6 1_555 1_555
C16M C15M 1_555 1_555
C18M N3 1_555 1_555
C1 C8 1_555 1_555
C6 C7 1_555 1_555
C13 C14 1_555 1_555
N3 C15M 1_555 1_555
C15 C18 1_555 1_555
C15 C15M 1_555 1_555
C16 C18 1_555 1_555
C1D C8D 1_555 1_555
C5D C6D 1_555 1_555
C6D C7D 1_555 1_555
C13D C14D 1_555 1_555
C15M C18M 1_555 1_555
C16M C18M 1_555 1_555

#END
