
#######################################################################
#
#                 Cambridge Crystallographic Data Centre
#                                CCDC 
#
#######################################################################
#
# If this CIF has been generated from an entry in the Cambridge 
# Structural Database, then it will include bibliographic, chemical, 
# crystal, experimental, refinement or atomic coordinate data resulting 
# from the CCDC's data processing and validation procedures.
#
#######################################################################

data_IYAHAT
_chemical_formula_moiety         '(C34 H33 Nd3 O31)n'
_symmetry_cell_setting           triclinic
_symmetry_space_group_name_H-M   'P -1'
_symmetry_Int_Tables_number      2
_space_group_name_Hall           '-P 1'
loop_
_symmetry_equiv_pos_site_id
_symmetry_equiv_pos_as_xyz
1 x,y,z
2 -x,-y,-z
_cell_length_a                   9.398(4)
_cell_length_b                   15.307(6)
_cell_length_c                   16.751(6)
_cell_angle_alpha                68.756(10)
_cell_angle_beta                 79.322(13)
_cell_angle_gamma                89.276(17)
_cell_volume                     2203.17
loop_
_atom_site_label
_atom_site_type_symbol
_atom_site_fract_x
_atom_site_fract_y
_atom_site_fract_z
Nd1 Nd 0.00058(3) 0.82258(2) 0.109118(19)
Nd2 Nd 0.41556(3) 0.32823(2) 0.107914(19)
Nd3 Nd 0.11638(4) 0.26122(2) 0.52165(2)
O1 O 0.0822(5) 0.8020(3) 0.2424(3)
O2 O 0.1002(5) 0.8160(3) 0.3679(3)
O3 O 0.7484(5) 0.8644(3) 0.0711(3)
O4 O 0.7474(5) 0.7791(3) 0.2085(3)
O5 O 0.5328(5) 1.1774(3) 0.0864(3)
O6 O 0.3501(5) 1.1597(3) 0.1944(3)
O7 O 0.5141(6) 0.6095(3) 0.0455(3)
O8 O 0.4630(6) 0.4655(3) 0.1399(3)
O9 O 0.2365(8) 0.4084(3) 0.4393(3)
O10 O 0.2319(7) 0.5183(3) 0.4953(3)
O11 O 0.0092(5) 0.6529(3) 0.2037(3)
O12 O -0.0927(5) 0.6761(3) 0.0907(3)
O13 O 0.2489(5) 0.3042(3) 0.2471(3)
O14 O 0.1062(5) 0.2648(3) 0.3762(3)
O15 O -0.3085(5) 0.3706(3) 0.0650(3)
O16 O -0.3928(5) 0.2870(3) 0.2029(3)
O17 O -0.0157(6) 0.1070(3) 0.0432(3)
O18 O -0.0715(5) -0.0385(3) 0.1390(3)
O19 O -0.1757(8) 0.0278(4) 0.4956(3)
H1 H -0.2128 -0.0125 0.5425
O20 O -0.1315(6) -0.0939(3) 0.4560(3)
O21 O 0.2209(5) 0.7589(3) 0.0423(3)
O22 O 0.2248(5) 0.9429(3) 0.0518(3)
O23 O 0.2286(5) 0.4486(3) 0.0551(3)
O24 O 0.2344(6) 0.2627(4) 0.0469(3)
O25 O -0.0988(8) 0.3431(5) 0.4701(4)
O26 O 0.3601(8) 0.2321(4) 0.4576(4)
O27 O 0.0562(7) 0.3623(4) 0.6083(3)
O28 O 0.2716(7) 0.2107(5) 0.6313(4)
C1 C 0.1494(6) 0.8246(4) 0.2911(4)
C2 C 0.3005(6) 0.8706(4) 0.2505(4)
C3 C 0.4203(6) 0.8235(4) 0.2245(4)
C4 C 0.5479(6) 0.8771(4) 0.1753(4)
C5 C 0.5546(6) 0.9746(4) 0.1507(4)
H2 H 0.6384 1.0095 0.1154
C6 C 0.4393(6) 1.0198(4) 0.1779(4)
C7 C 0.3113(6) 0.9674(4) 0.2297(4)
H3 H 0.2340 0.9972 0.2500
C8 C 0.6871(6) 0.8356(4) 0.1496(4)
C9 C 0.4438(7) 1.1253(4) 0.1510(4)
C10 C 0.4051(6) 0.7193(4) 0.2434(4)
C11 C 0.4486(6) 0.6849(4) 0.1766(4)
H4 H 0.4900 0.7261 0.1209
C12 C 0.4306(6) 0.5899(4) 0.1924(4)
C13 C 0.3703(6) 0.5277(4) 0.2768(4)
H5 H 0.3602 0.4638 0.2878
C14 C 0.3258(7) 0.5603(4) 0.3435(4)
C15 C 0.3446(7) 0.6571(4) 0.3272(4)
H6 H 0.3167 0.6794 0.3723
C16 C 0.4727(6) 0.5509(4) 0.1208(4)
C17 C 0.2597(8) 0.4924(5) 0.4335(4)
C18 C -0.0515(6) 0.6212(4) 0.1581(4)
C19 C -0.0652(6) 0.5178(4) 0.1805(4)
C20 C 0.0234(6) 0.4596(4) 0.2324(4)
H7 H 0.0875 0.4851 0.2553
C21 C 0.0170(6) 0.3628(4) 0.2503(4)
C22 C -0.0848(6) 0.3213(4) 0.2216(4)
C23 C -0.1756(6) 0.3804(4) 0.1705(4)
C24 C -0.1621(6) 0.4775(4) 0.1482(4)
H8 H -0.2187 0.5159 0.1111
C25 C 0.1331(6) 0.3066(4) 0.2949(4)
C26 C -0.2981(7) 0.3415(4) 0.1445(4)
C27 C -0.0919(6) 0.2182(4) 0.2414(4)
C28 C -0.0755(6) 0.1820(4) 0.1743(4)
H9 H -0.0623 0.2234 0.1166
C29 C -0.0785(6) 0.0871(4) 0.1921(4)
C30 C -0.0984(7) 0.0236(4) 0.2786(4)
H10 H -0.0993 -0.0407 0.2911
C31 C -0.1164(7) 0.0582(4) 0.3447(4)
C32 C -0.1137(8) 0.1538(5) 0.3274(4)
H11 H -0.1266 0.1754 0.3734
C33 C -0.0543(6) 0.0485(4) 0.1189(4)
C34 C -0.1410(9) -0.0102(5) 0.4383(4)
Nd1_2 Nd 0.00058(3) -0.17742(2) 0.109118(19)
Nd1_3 Nd 1.00058(3) 0.82258(2) 0.109118(19)
Nd1A Nd -0.00058(3) 0.17742(2) -0.109118(19)
Nd2_2 Nd -0.58444(3) 0.32823(2) 0.107914(19)
Nd2_3 Nd 0.41556(3) 1.32823(2) 0.107914(19)
Nd2A Nd 0.58444(3) 0.67177(2) -0.107914(19)
Nd3A Nd -0.11638(4) -0.26122(2) 0.47835(2)
Nd3A_2 Nd -0.11638(4) 0.73878(2) 0.47835(2)
O2A O -0.1002(5) 0.1840(3) 0.6321(3)
O3_2 O -0.2516(5) 0.8644(3) 0.0711(3)
O4_2 O -0.2526(5) 0.7791(3) 0.2085(3)
O5_2 O 0.5328(5) 0.1774(3) 0.0864(3)
O6_2 O 0.3501(5) 0.1597(3) 0.1944(3)
O7A O 0.4859(6) 0.3905(3) -0.0455(3)
O15_2 O 0.6915(5) 0.3706(3) 0.0650(3)
O16_2 O 0.6072(5) 0.2870(3) 0.2029(3)
O17A O 0.0157(6) 0.8930(3) -0.0432(3)
O18_2 O -0.0715(5) 0.9615(3) 0.1390(3)
O20A O 0.1315(6) 0.0939(3) 0.5440(3)
O29 O -0.2587(17) -0.1002(5) 0.6363(5)
O30 O 0.6127(12) 0.3427(9) 0.3617(6)
O31 O 0.3197(14) 0.4733(14) 0.6585(9)
loop_
_geom_bond_atom_site_label_1
_geom_bond_atom_site_label_2
_geom_bond_site_symmetry_1
_geom_bond_site_symmetry_2
Nd1 O1 1_555 1_555
Nd2 O8 1_555 1_555
Nd3 O9 1_555 1_555
O1 C1 1_555 1_555
O2 C1 1_555 1_555
O3 C8 1_555 1_555
O4 C8 1_555 1_555
O5 C9 1_555 1_555
O6 C9 1_555 1_555
O7 C16 1_555 1_555
O8 C16 1_555 1_555
O9 C17 1_555 1_555
O10 C17 1_555 1_555
O11 Nd1 1_555 1_555
O12 Nd1 1_555 1_555
O13 Nd2 1_555 1_555
O14 Nd3 1_555 1_555
O15 C26 1_555 1_555
O16 C26 1_555 1_555
O17 C33 1_555 1_555
O18 C33 1_555 1_555
O19 H1 1_555 1_555
O20 C34 1_555 1_555
O21 Nd1 1_555 1_555
O22 Nd1 1_555 1_555
O23 Nd2 1_555 1_555
O24 Nd2 1_555 1_555
O25 Nd3 1_555 1_555
O26 Nd3 1_555 1_555
O27 Nd3 1_555 1_555
O28 Nd3 1_555 1_555
C1 C2 1_555 1_555
C2 C3 1_555 1_555
C3 C4 1_555 1_555
C4 C5 1_555 1_555
C5 H2 1_555 1_555
C6 C5 1_555 1_555
C7 C2 1_555 1_555
H3 C7 1_555 1_555
C8 C4 1_555 1_555
C9 C6 1_555 1_555
C10 C3 1_555 1_555
C11 C10 1_555 1_555
H4 C11 1_555 1_555
C12 C11 1_555 1_555
C13 C12 1_555 1_555
H5 C13 1_555 1_555
C14 C13 1_555 1_555
C15 C10 1_555 1_555
H6 C15 1_555 1_555
C16 C12 1_555 1_555
C17 C14 1_555 1_555
C18 O11 1_555 1_555
C19 C18 1_555 1_555
C20 C19 1_555 1_555
H7 C20 1_555 1_555
C21 C20 1_555 1_555
C22 C21 1_555 1_555
C23 C22 1_555 1_555
C24 C19 1_555 1_555
H8 C24 1_555 1_555
C25 O13 1_555 1_555
C26 C23 1_555 1_555
C27 C22 1_555 1_555
C28 C27 1_555 1_555
H9 C28 1_555 1_555
C29 C28 1_555 1_555
C30 C29 1_555 1_555
H10 C30 1_555 1_555
C31 C30 1_555 1_555
C32 C27 1_555 1_555
H11 C32 1_555 1_555
C33 C29 1_555 1_555
C34 O19 1_555 1_555
Nd1_2 O18 1_555 1_555
Nd1_3 O3 1_555 1_555
Nd1A O17 1_555 1_555
Nd2_2 O15 1_555 1_555
Nd2_3 O5 1_555 1_555
Nd2A O7 1_555 1_555
Nd3A O20 1_555 1_555
Nd3A_2 O2 1_555 1_555
O2A Nd3 1_555 1_555
O3_2 Nd1 1_555 1_555
O4_2 Nd1 1_555 1_555
O5_2 Nd2 1_555 1_555
O6_2 Nd2 1_555 1_555
O7A Nd2 1_555 1_555
O15_2 Nd2 1_555 1_555
O16_2 Nd2 1_555 1_555
O17A Nd1 1_555 1_555
O18_2 Nd1 1_555 1_555
O20A Nd3 1_555 1_555
O4 Nd1_3 1_555 1_555
O6 Nd2_3 1_555 1_555
O12 C18 1_555 1_555
O14 C25 1_555 1_555
O16 Nd2_2 1_555 1_555
C6 C7 1_555 1_555
C14 C15 1_555 1_555
C21 C25 1_555 1_555
C23 C24 1_555 1_555
C31 C32 1_555 1_555
C31 C34 1_555 1_555

#END
