
#######################################################################
#
#                 Cambridge Crystallographic Data Centre
#                                CCDC 
#
#######################################################################
#
# If this CIF has been generated from an entry in the Cambridge 
# Structural Database, then it will include bibliographic, chemical, 
# crystal, experimental, refinement or atomic coordinate data resulting 
# from the CCDC's data processing and validation procedures.
#
#######################################################################

data_BOQYUD
_chemical_formula_moiety         '(H10 Fe5 N1 O18 P6 1-)n'
_symmetry_cell_setting           trigonal
_symmetry_space_group_name_H-M   'P -3 c 1'
_symmetry_Int_Tables_number      165
_space_group_name_Hall           '-P 3 2"c'
loop_
_symmetry_equiv_pos_site_id
_symmetry_equiv_pos_as_xyz
1 x,y,z
2 -y,x-y,z
3 -x+y,-x,z
4 y,x,1/2-z
5 x-y,-y,1/2-z
6 -x,-x+y,1/2-z
7 -x,-y,-z
8 y,-x+y,-z
9 x-y,x,-z
10 -y,-x,1/2+z
11 -x+y,y,1/2+z
12 x,x-y,1/2+z
_cell_length_a                   10.3862(15)
_cell_length_b                   10.3862(15)
_cell_length_c                   9.2089(14)
_cell_angle_alpha                90
_cell_angle_beta                 90
_cell_angle_gamma                120
_cell_volume                     860.304
loop_
_atom_site_label
_atom_site_type_symbol
_atom_site_fract_x
_atom_site_fract_y
_atom_site_fract_z
Fe1 Fe 0.61330(9) 0.0000 0.2500
Fe2 Fe 0.6667 0.3333 0.33453(10)
P1 P 0.88002(13) 0.29352(13) 0.09044(10)
H1 H 1.020(5) 0.343(3) 0.091(2)
O1 O 0.8512(3) 0.3935(3) 0.1927(3)
O2 O 0.8404(3) 0.3102(4) -0.0665(3)
O3 O 0.8063(4) 0.1345(4) 0.1440(3)
Fe1A Fe 1.0000 0.61330(9) 0.2500
P1A P 0.70648(13) 0.58650(18) 0.09044(10)
H1A H 0.657(3) 0.677(6) 0.091(2)
O1A O 0.6065(3) 0.4577(4) 0.1927(3)
O2A O 0.6898(4) 0.5302(5) -0.0665(3)
O3A O 0.8655(4) 0.6718(6) 0.1440(3)
Fe1B Fe 0.38670(9) 0.38670(9) 0.2500
P1B P 0.41350(18) 0.11998(13) 0.09044(10)
H1B H 0.323(6) -0.020(5) 0.091(2)
O1B O 0.5423(4) 0.1488(3) 0.1927(3)
O2B O 0.4698(5) 0.1596(3) -0.0665(3)
O3B O 0.3282(6) 0.1937(4) 0.1440(3)
Fe2F Fe 0.3333 -0.3333 -0.33453(10)
P1F P 0.11998(13) -0.29352(13) -0.09044(10)
H1F H -0.020(5) -0.343(3) -0.091(2)
O1F O 0.1488(3) -0.3935(3) -0.1927(3)
O2F O 0.1596(3) -0.3102(4) 0.0665(3)
O3F O 0.1937(4) -0.1345(4) -0.1440(3)
P1G P 0.29352(13) -0.58650(18) -0.09044(10)
H1G H 0.343(3) -0.677(6) -0.091(2)
O1G O 0.3935(3) -0.4577(4) -0.1927(3)
O2G O 0.3102(4) -0.5302(5) 0.0665(3)
O3G O 0.1345(4) -0.6718(6) -0.1440(3)
P1H P 0.58650(18) -0.11998(13) -0.09044(10)
H1H H 0.677(6) 0.020(5) -0.091(2)
O1H O 0.4577(4) -0.1488(3) -0.1927(3)
O2H O 0.5302(5) -0.1596(3) 0.0665(3)
O3H O 0.6718(6) -0.1937(4) -0.1440(3)
Fe1A_2 Fe 0.0000 -0.38670(9) 0.2500
Fe1B_2 Fe 0.38670(9) -0.61330(9) 0.2500
Fe1F Fe 0.38670(9) -0.0000 -0.2500
Fe1G Fe -0.0000 -0.61330(9) -0.2500
Fe1G_2 Fe 1.0000 0.38670(9) -0.2500
Fe1H Fe 0.61330(9) -0.38670(9) -0.2500
Fe1H_2 Fe 0.61330(9) 0.61330(9) -0.2500
Fe2C Fe 0.3333 -0.3333 0.16547(10)
Fe2I Fe 0.6667 0.3333 -0.16547(10)
O1C O 0.3935(3) -0.1488(3) 0.3073(3)
O1D O 0.4577(4) 0.6065(3) 0.3073(3)
O1E O 1.1488(3) 0.5423(4) 0.3073(3)
O2C O 0.3102(4) -0.1596(3) -0.4335(3)
O2D O 0.5302(5) -0.3102(4) -0.4335(3)
O2E O 0.1596(3) -0.5302(5) -0.4335(3)
O2F_2 O 1.1596(3) 0.6898(4) 0.0665(3)
O2G_2 O 0.3102(4) 0.4698(5) 0.0665(3)
O2I O 0.6898(4) 0.1596(3) 0.4335(3)
O2J O 0.4698(5) 0.3102(4) 0.4335(3)
O2K O 0.8404(3) 0.5302(5) 0.4335(3)
O3C O 1.1345(4) 0.8063(4) 0.3560(3)
O3D O 0.6718(6) -0.1345(4) 0.3560(3)
O3E O 0.1937(4) 0.3282(6) 0.3560(3)
N2 N 0.970(5) -0.047(3) 0.059(2)
loop_
_geom_bond_atom_site_label_1
_geom_bond_atom_site_label_2
_geom_bond_site_symmetry_1
_geom_bond_site_symmetry_2
Fe1 O3 1_555 1_555
Fe2 O1 1_555 1_555
P1 H1 1_555 1_555
O1 P1 1_555 1_555
O2 P1 1_555 1_555
O3 P1 1_555 1_555
Fe1A O1 1_555 1_555
P1A H1A 1_555 1_555
O1A Fe2 1_555 1_555
O2A P1A 1_555 1_555
O3A Fe1A 1_555 1_555
Fe1B O1A 1_555 1_555
P1B H1B 1_555 1_555
O1B Fe1 1_555 1_555
O2B P1B 1_555 1_555
O3B Fe1B 1_555 1_555
Fe2F O1F 1_555 1_555
P1F H1F 1_555 1_555
O1F P1F 1_555 1_555
O2F P1F 1_555 1_555
O3F P1F 1_555 1_555
P1G H1G 1_555 1_555
O1G Fe2F 1_555 1_555
O2G P1G 1_555 1_555
O3G P1G 1_555 1_555
P1H H1H 1_555 1_555
O1H Fe2F 1_555 1_555
O2H Fe1 1_555 1_555
O3H P1H 1_555 1_555
Fe1A_2 O2F 1_555 1_555
Fe1B_2 O2G 1_555 1_555
Fe1F O2B 1_555 1_555
Fe1G O1F 1_555 1_555
Fe1G_2 O2 1_555 1_555
Fe1H O1G 1_555 1_555
Fe1H_2 O2A 1_555 1_555
Fe2C O2F 1_555 1_555
Fe2I O2 1_555 1_555
O1C Fe1 1_555 1_555
O1D Fe1B 1_555 1_555
O1E Fe1A 1_555 1_555
O2C Fe2F 1_555 1_555
O2D Fe2F 1_555 1_555
O2E Fe2F 1_555 1_555
O2F_2 Fe1A 1_555 1_555
O2G_2 Fe1B 1_555 1_555
O2I Fe1 1_555 1_555
O2J Fe2 1_555 1_555
O2K Fe2 1_555 1_555
O3C Fe1A 1_555 1_555
O3D Fe1 1_555 1_555
O3E Fe1B 1_555 1_555
Fe2 O1B 1_555 1_555
Fe2 O2I 1_555 1_555
Fe1A O2K 1_555 1_555
P1A O1A 1_555 1_555
P1A O3A 1_555 1_555
O2A Fe2I 1_555 1_555
Fe1B O2J 1_555 1_555
P1B O1B 1_555 1_555
P1B O3B 1_555 1_555
O2B Fe2I 1_555 1_555
O3F Fe1F 1_555 1_555
P1G O1G 1_555 1_555
O2G Fe2C 1_555 1_555
O3G Fe1G 1_555 1_555
P1H O1H 1_555 1_555
P1H O2H 1_555 1_555
O1H Fe1F 1_555 1_555
O2H Fe2C 1_555 1_555
O3H Fe1H 1_555 1_555
Fe1F O2C 1_555 1_555
Fe1G O2E 1_555 1_555
Fe1H O2D 1_555 1_555
Fe2C O1C 1_555 1_555

#END
