
#######################################################################
#
#                 Cambridge Crystallographic Data Centre
#                                CCDC 
#
#######################################################################
#
# If this CIF has been generated from an entry in the Cambridge 
# Structural Database, then it will include bibliographic, chemical, 
# crystal, experimental, refinement or atomic coordinate data resulting 
# from the CCDC's data processing and validation procedures.
#
#######################################################################

data_WUPZOY
_chemical_formula_moiety         '(C53 H33 N2 O25 Zn4 1-)n'
_symmetry_cell_setting           triclinic
_symmetry_space_group_name_H-M   'P -1'
_symmetry_Int_Tables_number      2
_space_group_name_Hall           '-P 1'
loop_
_symmetry_equiv_pos_site_id
_symmetry_equiv_pos_as_xyz
1 x,y,z
2 -x,-y,-z
_cell_length_a                   8.5170(4)
_cell_length_b                   10.3341(4)
_cell_length_c                   18.2392(7)
_cell_angle_alpha                104.782(4)
_cell_angle_beta                 91.187(3)
_cell_angle_gamma                110.479(4)
_cell_volume                     1443.35
loop_
_atom_site_label
_atom_site_type_symbol
_atom_site_fract_x
_atom_site_fract_y
_atom_site_fract_z
Zn1 Zn 0.67065(4) -0.18998(3) 0.21816(2)
Zn2 Zn 0.96237(4) 0.13835(4) 0.30935(2)
O1 O 0.5246(2) 0.60787(19) 0.17217(11)
O2 O 1.0959(2) 0.3477(2) 0.35855(11)
O3 O 1.8591(2) 0.4292(2) 0.42017(13)
H1 H 1.9487 0.4195 0.4064
O4 O 1.6450(3) 0.8601(2) 0.32596(11)
O5 O 0.7435(2) 0.1427(2) 0.26767(12)
O6 O 0.7406(2) 0.6059(2) 0.24138(11)
O7 O -0.1343(3) -0.1458(2) 0.16052(11)
O8 O 1.2394(2) 0.20713(19) 0.35696(11)
O9 O 0.5666(3) -0.0628(2) 0.18729(12)
O10 O 1.8653(2) 1.0543(2) 0.39052(11)
O11 O 0.0314(3) 0.0856(2) 0.20708(11)
O12 O 1.9905(2) 0.6533(2) 0.41258(13)
C1 C 0.6030(3) 0.5418(3) 0.20051(15)
C2 C 0.5207(3) 0.3808(3) 0.18078(15)
C3 C 1.2360(3) 0.3300(3) 0.37129(14)
C4 C 1.5280(3) 0.7202(3) 0.44790(14)
C5 C 1.7181(3) 0.9632(3) 0.38374(15)
C6 C 0.5284(3) 0.1540(3) 0.18954(15)
C7 C 0.5995(3) 0.3035(3) 0.20978(14)
H2 H 0.7019 0.3530 0.2434
C8 C 1.8627(3) 0.5573(3) 0.41848(15)
C9 C 1.5134(3) 0.8635(3) 0.47338(14)
C10 C 0.3768(3) 0.0816(3) 0.14129(14)
H3 H 0.3280 -0.0205 0.1279
C11 C 0.1401(3) 0.0793(3) 0.05699(14)
C12 C 0.1455(3) 0.0934(3) -0.01707(14)
H4 H 0.2453 0.1580 -0.0291
C13 C 1.3824(3) 0.5970(3) 0.42513(14)
H5 H 1.2749 0.6056 0.4264
C14 C 0.6197(3) 0.0715(3) 0.21734(15)
C15 C 1.5484(3) 0.4469(3) 0.40019(14)
H6 H 1.5554 0.3542 0.3850
C16 C -0.0378(3) -0.0267(3) 0.15374(14)
C17 C 0.3693(3) 0.3078(3) 0.13237(14)
H7 H 0.3156 0.3606 0.1127
C18 C 1.6141(3) 0.9810(3) 0.44853(14)
C19 C 1.6850(3) 0.7059(3) 0.44576(14)
H8 H 1.7856 0.7891 0.4603
C20 C 1.3921(3) 0.4610(3) 0.40043(14)
C21 C -0.0088(3) -0.0156(3) 0.07395(14)
C22 C 0.2961(3) 0.1580(3) 0.11255(14)
C23 C 1.6947(3) 0.5699(3) 0.42237(14)
C24 C 1.3991(3) 0.8847(3) 0.52445(14)
H9 H 1.3290 0.8062 0.5411
O1A O -0.5246(2) -0.60787(19) -0.17217(11)
O5A O -0.7435(2) -0.1427(2) -0.26767(12)
O6A O -0.7406(2) -0.6059(2) -0.24138(11)
O7A O 0.1343(3) 0.1458(2) -0.16052(11)
O9A O -0.5666(3) 0.0628(2) -0.18729(12)
O11A O -0.0314(3) -0.0856(2) -0.20708(11)
C1A C -0.6030(3) -0.5418(3) -0.20051(15)
C2A C -0.5207(3) -0.3808(3) -0.18078(15)
C6A C -0.5284(3) -0.1540(3) -0.18954(15)
C7A C -0.5995(3) -0.3035(3) -0.20978(14)
H2A H -0.7019 -0.3530 -0.2434
C10A C -0.3768(3) -0.0816(3) -0.14129(14)
H3A H -0.3280 0.0205 -0.1279
C11A C -0.1401(3) -0.0793(3) -0.05699(14)
C12A C -0.1455(3) -0.0934(3) 0.01707(14)
H4A H -0.2453 -0.1580 0.0291
C14A C -0.6197(3) -0.0715(3) -0.21734(15)
C16A C 0.0378(3) 0.0267(3) -0.15374(14)
C17A C -0.3693(3) -0.3078(3) -0.13237(14)
H7A H -0.3156 -0.3606 -0.1127
C21A C 0.0088(3) 0.0156(3) -0.07395(14)
C22A C -0.2961(3) -0.1580(3) -0.11255(14)
O2A O 1.9041(2) 1.6523(2) 0.64145(11)
O3A O 1.1409(2) 1.5708(2) 0.57983(13)
H1A H 1.0513 1.5805 0.5936
O4A O 1.3550(3) 1.1399(2) 0.67404(11)
O8A O 1.7606(2) 1.79287(19) 0.64304(11)
O10A O 1.1347(2) 0.9457(2) 0.60948(11)
O12A O 1.0095(2) 1.3467(2) 0.58742(13)
C3A C 1.7640(3) 1.6700(3) 0.62871(14)
C4A C 1.4720(3) 1.2798(3) 0.55210(14)
C5A C 1.2819(3) 1.0368(3) 0.61626(15)
C8A C 1.1373(3) 1.4427(3) 0.58152(15)
C9A C 1.4866(3) 1.1365(3) 0.52662(14)
C13A C 1.6176(3) 1.4030(3) 0.57487(14)
H5A H 1.7251 1.3944 0.5736
C15A C 1.4516(3) 1.5531(3) 0.59981(14)
H6A H 1.4446 1.6458 0.6150
C18A C 1.3859(3) 1.0190(3) 0.55147(14)
C19A C 1.3150(3) 1.2941(3) 0.55424(14)
H8A H 1.2144 1.2109 0.5397
C20A C 1.6079(3) 1.5390(3) 0.59957(14)
C23A C 1.3053(3) 1.4301(3) 0.57763(14)
C24A C 1.6009(3) 1.1153(3) 0.47555(14)
H9A H 1.6710 1.1938 0.4589
Zn1A Zn -0.67065(4) -0.81002(3) -0.21816(2)
Zn2_2 Zn 1.96237(4) 1.13835(4) 0.30935(2)
Zn1_2 Zn -0.32935(4) -0.18998(3) 0.21816(2)
Zn1_3 Zn 0.67065(4) 0.81002(3) 0.21816(2)
Zn1_4 Zn 1.67065(4) 0.81002(3) 0.21816(2)
Zn1A_2 Zn -0.67065(4) 0.18998(3) -0.21816(2)
Zn1A_3 Zn 0.32935(4) 0.18998(3) -0.21816(2)
Zn1A_4 Zn 1.32935(4) 1.18998(3) 0.78184(2)
Zn2_3 Zn -0.03763(4) 0.13835(4) 0.30935(2)
Zn2A Zn -0.96237(4) -0.13835(4) -0.30935(2)
Zn2A_2 Zn 0.03763(4) -0.13835(4) -0.30935(2)
Zn2A_3 Zn 1.03763(4) 0.86165(4) 0.69065(2)
Zn2A_4 Zn 2.03763(4) 1.86165(4) 0.69065(2)
O1_2 O 0.5246(2) -0.39213(19) 0.17217(11)
O2_2 O 2.0959(2) 1.3477(2) 0.35855(11)
O4_2 O 0.6450(3) -0.1399(2) 0.32596(11)
O4A_2 O -0.6450(3) -0.8601(2) -0.32596(11)
O5_2 O 1.7435(2) 1.1427(2) 0.26767(12)
O6_2 O 0.7406(2) -0.3941(2) 0.24138(11)
O7_2 O 0.8657(3) -0.1458(2) 0.16052(11)
O7A_2 O -0.8657(3) -0.8542(2) -0.16052(11)
O8_2 O 2.2394(2) 1.20713(19) 0.35696(11)
O9A_2 O -0.5666(3) -0.9372(2) -0.18729(12)
O10_2 O 0.8653(2) 0.0543(2) 0.39052(11)
O11_2 O 1.0314(3) 0.0856(2) 0.20708(11)
O11_3 O 2.0314(3) 1.0856(2) 0.20708(11)
N1 N 0.9001(3) 0.2782(3) 0.72605(17)
H10 H 0.9786 0.3180 0.6911
H11 H 0.9679 0.2974 0.7751
C25 C 0.8198(7) 0.1240(5) 0.6935(3)
H12 H 0.7465 0.1036 0.6465
H13 H 0.7520 0.0818 0.7302
H14 H 0.9064 0.0821 0.6816
C26 C 0.7827(8) 0.3537(7) 0.7397(3)
H15 H 0.6977 0.3183 0.6950
H16 H 0.8447 0.4571 0.7488
H17 H 0.7267 0.3363 0.7846
O13 O 1.0115(4) 0.5953(4) 0.11810(17)
N2 N 0.7989(4) 0.4043(3) 0.03792(19)
C27 C 0.8563(7) 0.2987(5) 0.0524(3)
H18 H 0.8997 0.2561 0.0068
H19 H 0.7624 0.2234 0.0649
H20 H 0.9465 0.3437 0.0953
C28 C 0.8814(5) 0.5439(4) 0.0731(2)
H21 H 0.8354 0.6095 0.0622
C29 C 0.6575(6) 0.3563(6) -0.0185(3)
H22 H 0.6901 0.3234 -0.0691
H23 H 0.6191 0.4357 -0.0173
H24 H 0.5659 0.2767 -0.0080
loop_
_geom_bond_atom_site_label_1
_geom_bond_atom_site_label_2
_geom_bond_site_symmetry_1
_geom_bond_site_symmetry_2
Zn1 O9 1_555 1_555
Zn2 O2 1_555 1_555
O1 C1 1_555 1_555
O2 C3 1_555 1_555
O3 H1 1_555 1_555
O4 C5 1_555 1_555
O5 Zn2 1_555 1_555
O6 C1 1_555 1_555
O7 C16 1_555 1_555
O8 Zn2 1_555 1_555
O9 C14 1_555 1_555
O10 C5 1_555 1_555
O11 C16 1_555 1_555
O12 C8 1_555 1_555
C1 C2 1_555 1_555
C2 C7 1_555 1_555
C3 O8 1_555 1_555
C4 C9 1_555 1_555
C5 C18 1_555 1_555
C6 C7 1_555 1_555
C7 H2 1_555 1_555
C8 O3 1_555 1_555
C9 C18 1_555 1_555
C10 C6 1_555 1_555
H3 C10 1_555 1_555
C11 C12 1_555 1_555
C12 H4 1_555 1_555
C13 C4 1_555 1_555
H5 C13 1_555 1_555
C14 O5 1_555 1_555
C15 H6 1_555 1_555
C16 C21 1_555 1_555
C17 C2 1_555 1_555
H7 C17 1_555 1_555
C18 C24A 1_555 1_555
C19 C4 1_555 1_555
H8 C19 1_555 1_555
C20 C3 1_555 1_555
C21 C11 1_555 1_555
C22 C10 1_555 1_555
C23 C8 1_555 1_555
C24 C9 1_555 1_555
H9 C24 1_555 1_555
N1 H10 1_555 1_555
H11 N1 1_555 1_555
C25 N1 1_555 1_555
H12 C25 1_555 1_555
H13 C25 1_555 1_555
H14 C25 1_555 1_555
C26 N1 1_555 1_555
H15 C26 1_555 1_555
H16 C26 1_555 1_555
H17 C26 1_555 1_555
O13 C28 1_555 1_555
N2 C27 1_555 1_555
C27 H18 1_555 1_555
H19 C27 1_555 1_555
H20 C27 1_555 1_555
C28 N2 1_555 1_555
H21 C28 1_555 1_555
C29 N2 1_555 1_555
H22 C29 1_555 1_555
H23 C29 1_555 1_555
H24 C29 1_555 1_555
O1A C1A 1_555 1_555
O5A C14A 1_555 1_555
O6A C1A 1_555 1_555
O7A C16A 1_555 1_555
O9A C14A 1_555 1_555
O11A C16A 1_555 1_555
C1A C2A 1_555 1_555
C2A C7A 1_555 1_555
C6A C7A 1_555 1_555
C7A H2A 1_555 1_555
C10A C6A 1_555 1_555
H3A C10A 1_555 1_555
C11A C12A 1_555 1_555
C12A C21 1_555 1_555
H4A C12A 1_555 1_555
C14A C6A 1_555 1_555
C16A C21A 1_555 1_555
C17A C2A 1_555 1_555
H7A C17A 1_555 1_555
C21A C12 1_555 1_555
C22A C10A 1_555 1_555
O2A C3A 1_555 1_555
O3A H1A 1_555 1_555
O4A C5A 1_555 1_555
O8A C3A 1_555 1_555
O10A C5A 1_555 1_555
O12A C8A 1_555 1_555
C3A C20A 1_555 1_555
C4A C9A 1_555 1_555
C5A C18A 1_555 1_555
C8A O3A 1_555 1_555
C9A C18A 1_555 1_555
C13A C4A 1_555 1_555
H5A C13A 1_555 1_555
C15A H6A 1_555 1_555
C18A C24 1_555 1_555
C19A C4A 1_555 1_555
H8A C19A 1_555 1_555
C20A C13A 1_555 1_555
C23A C8A 1_555 1_555
C24A C9A 1_555 1_555
H9A C24A 1_555 1_555
Zn1A O1A 1_555 1_555
Zn2_2 O10 1_555 1_555
Zn1_2 O7 1_555 1_555
Zn1_3 O1 1_555 1_555
Zn1_4 O4 1_555 1_555
Zn1A_2 O9A 1_555 1_555
Zn1A_3 O7A 1_555 1_555
Zn1A_4 O4A 1_555 1_555
Zn2_3 O11 1_555 1_555
Zn2A O5A 1_555 1_555
Zn2A_2 O11A 1_555 1_555
Zn2A_3 O10A 1_555 1_555
Zn2A_4 O2A 1_555 1_555
O1_2 Zn1 1_555 1_555
O2_2 Zn2_2 1_555 1_555
O4_2 Zn1 1_555 1_555
O4A_2 Zn1A 1_555 1_555
O5_2 Zn2_2 1_555 1_555
O6_2 Zn1 1_555 1_555
O7_2 Zn1 1_555 1_555
O7A_2 Zn1A 1_555 1_555
O8_2 Zn2_2 1_555 1_555
O9A_2 Zn1A 1_555 1_555
O10_2 Zn2 1_555 1_555
O11_2 Zn2 1_555 1_555
O11_3 Zn2_2 1_555 1_555
O6 Zn1_3 1_555 1_555
C6 C14 1_555 1_555
C11 C22 1_555 1_555
C13 C20 1_555 1_555
C15 C20 1_555 1_555
C15 C23 1_555 1_555
C17 C22 1_555 1_555
C19 C23 1_555 1_555
O6A Zn1A 1_555 1_555
C11A C21A 1_555 1_555
C11A C22A 1_555 1_555
C17A C22A 1_555 1_555
O8A Zn2A_4 1_555 1_555
C15A C20A 1_555 1_555
C15A C23A 1_555 1_555
C19A C23A 1_555 1_555

#END
