
#######################################################################
#
#                 Cambridge Crystallographic Data Centre
#                                CCDC 
#
#######################################################################
#
# If this CIF has been generated from an entry in the Cambridge 
# Structural Database, then it will include bibliographic, chemical, 
# crystal, experimental, refinement or atomic coordinate data resulting 
# from the CCDC's data processing and validation procedures.
#
#######################################################################

data_KOCCIQ
_chemical_formula_moiety         '(C64 H40 Cd2 N4 O12)n'
_symmetry_cell_setting           monoclinic
_symmetry_space_group_name_H-M   'P 21/c'
_symmetry_Int_Tables_number      14
_space_group_name_Hall           '-P 2ybc'
loop_
_symmetry_equiv_pos_site_id
_symmetry_equiv_pos_as_xyz
1 x,y,z
2 -x,1/2+y,1/2-z
3 -x,-y,-z
4 x,1/2-y,1/2+z
_cell_length_a                   17.1902(10)
_cell_length_b                   29.7214(18)
_cell_length_c                   16.0823(6)
_cell_angle_alpha                90
_cell_angle_beta                 98.722(5)
_cell_angle_gamma                90
_cell_volume                     8121.7
loop_
_atom_site_label
_atom_site_type_symbol
_atom_site_fract_x
_atom_site_fract_y
_atom_site_fract_z
_atom_site_U_iso_or_equiv
_atom_site_thermal_displace_type
Cd1 Cd 0.40134(3) 0.781545(15) 0.48035(3) 0.0475 Uani
Cd2 Cd 0.85294(3) 0.710048(16) 0.01422(3) 0.0474 Uani
C1 C 0.8689(3) 0.8501(2) -0.0149(4) 0.0480 Uani
C2 C 0.6130(4) 1.1413(2) 0.9877(4) 0.0464 Uani
O1 O 0.5460(3) 1.20997(14) 0.9551(3) 0.0595 Uani
O2 O 0.8038(3) 0.78082(15) -0.0520(3) 0.0607 Uani
C3 C 0.5618(4) 0.8989(2) 0.8443(4) 0.0449 Uani
C4 C 0.4652(4) 0.8269(2) 0.6207(4) 0.0492 Uani
O3 O 0.7479(3) 0.82761(18) 1.4303(3) 0.0650 Uani
C5 C 0.6887(4) 0.9024(2) 1.1469(4) 0.0454 Uani
C6 C 0.4993(4) 0.8511(2) 0.6978(4) 0.0484 Uani
C7 C 0.5952(3) 0.9715(2) 0.9190(4) 0.0435 Uani
H1 H 0.5761 0.9862 0.8690 0.0520 Uiso
C8 C 0.7538(4) 0.8573(2) 1.2947(4) 0.0470 Uani
C9 C 0.5953(3) 0.9239(2) 0.9204(3) 0.0428 Uani
O4 O 0.5060(3) 0.82063(18) 0.5640(3) 0.0645 Uani
C10 C 0.6555(3) 0.9262(2) 1.0666(3) 0.0409 Uani
O5 O 0.6639(3) 1.21385(15) 1.0282(4) 0.0738 Uani
N1 N 0.7704(4) 0.7281(2) 0.1132(3) 0.0561 Uani
C11 C 0.6531(3) 0.9734(2) 1.0640(4) 0.0431 Uani
H2 H 0.6720 0.9895 1.1125 0.0520 Uiso
C12 C 0.7877(4) 0.8346(2) 1.3738(4) 0.0517 Uani
O6 O 0.8578(3) 0.82105(18) 1.3814(3) 0.0650 Uani
C13 C 0.5590(3) 1.0699(2) 0.9417(4) 0.0446 Uani
H3 H 0.5179 1.0538 0.9110 0.0530 Uiso
C14 C 0.6589(4) 0.7460(3) 0.2192(4) 0.0600 Uani
O7 O 0.9209(3) 0.77801(16) 0.0264(4) 0.0691 Uani
O8 O 0.3949(3) 0.81256(18) 0.6136(3) 0.0683 Uani
C15 C 0.6086(4) 1.1912(2) 0.9887(4) 0.0497 Uani
C16 C 0.6215(3) 1.0469(2) 0.9887(3) 0.0393 Uani
C17 C 0.5995(4) 0.7543(3) 0.2757(4) 0.0614 Uani
C18 C 0.8651(4) 0.7992(2) -0.0150(4) 0.0529 Uani
N2 N 0.4867(4) 0.76856(19) 0.3814(3) 0.0557 Uani
C19 C 0.9060(4) 1.0636(2) 0.0718(4) 0.0574 Uani
C20 C 0.5574(4) 1.1163(2) 0.9403(4) 0.0463 Uani
H4 H 0.5168 1.1308 0.9056 0.0560 Uiso
C21 C 0.9042(4) 1.0167(2) 0.0662(4) 0.0530 Uani
H5 H 0.9241 0.9997 0.1132 0.0640 Uiso
C22 C 0.8441(3) 1.0195(2) -0.0774(4) 0.0514 Uani
H6 H 0.8238 1.0046 -0.1268 0.0620 Uiso
C23 C 0.8733(3) 0.9444(2) -0.0107(4) 0.0469 Uani
C24 C 0.8740(3) 0.9951(2) -0.0069(4) 0.0490 Uani
C25 C 0.6776(4) 1.1192(2) 1.0323(4) 0.0478 Uani
H7 H 0.7190 1.1359 1.0612 0.0570 Uiso
C26 C 0.6258(3) 0.9024(2) 0.9945(3) 0.0438 Uani
C27 C 0.8125(4) 0.8747(2) -0.0635(4) 0.0482 Uani
H8 H 0.7732 0.8598 -0.0993 0.0580 Uiso
C28 C 0.6230(3) 0.9972(2) 0.9905(3) 0.0416 Uani
C29 C 0.8090(4) 1.0912(3) -0.1517(4) 0.0635 Uani
C30 C 0.9399(4) 1.0854(3) 0.1516(4) 0.0638 Uani
C31 C 0.9309(4) 0.8725(2) 0.0323(4) 0.0503 Uani
H9 H 0.9715 0.8559 0.0626 0.0600 Uiso
C32 C 0.8121(4) 0.9208(2) -0.0611(4) 0.0480 Uani
H10 H 0.7713 0.9366 -0.0928 0.0580 Uiso
C33 C 0.6810(4) 1.0725(2) 1.0343(4) 0.0468 Uani
H11 H 0.7235 1.0582 1.0663 0.0560 Uiso
C34 C 0.9342(3) 0.9187(2) 0.0355(4) 0.0488 Uani
H12 H 0.9764 0.9330 0.0679 0.0590 Uiso
C35 C 0.8439(4) 1.0665(2) -0.0752(4) 0.0545 Uani
C36 C 0.8746(4) 1.0890(3) -0.0004(4) 0.0592 Uani
C37 C 1.0102(5) 1.1287(3) 0.2995(5) 0.0828 Uani
O9 O 1.1186(4) 1.1441(3) 0.4045(4) 0.1295 Uani
C38 C 0.6793(4) 0.8752(3) 1.2865(4) 0.0666 Uani
H13 H 0.6494 0.8721 1.3296 0.0800 Uiso
N3 N 0.6259(4) 0.8554(3) 0.9987(4) 0.0951 Uani
H14 H 0.6071 0.8399 0.9552 0.1140 Uiso
H15 H 0.6449 0.8421 1.0448 0.1140 Uiso
C39 C 0.6486(4) 0.8983(3) 1.2124(4) 0.0601 Uani
H16 H 0.5989 0.9113 1.2084 0.0720 Uiso
C40 C 0.6131(4) 0.7420(3) 0.3583(4) 0.0694 Uani
H17 H 0.6611 0.7295 0.3815 0.0830 Uiso
O10 O 0.6320(4) 1.1520(3) -0.4032(4) 0.1247 Uani
C41 C 0.7937(4) 0.8596(3) 1.2275(4) 0.0670 Uani
H18 H 0.8431 0.8463 1.2312 0.0800 Uiso
C42 C 0.7834(5) 0.7178(3) 0.1923(5) 0.0842 Uani
H19 H 0.8311 0.7042 0.2133 0.1010 Uiso
C43 C 0.5719(4) 0.8699(3) 0.7060(4) 0.0659 Uani
H20 H 0.6014 0.8672 0.6623 0.0790 Uiso
O11 O 1.0248(7) 1.1828(3) 0.4018(6) 0.1878 Uani
C44 C 0.4899(4) 0.8790(3) 0.8361(4) 0.0652 Uani
H21 H 0.4605 0.8818 0.8798 0.0780 Uiso
N4 N 0.8736(3) 1.1359(2) 0.0038(4) 0.0753 Uani
H22 H 0.8541 1.1513 -0.0396 0.0910 Uiso
H23 H 0.8925 1.1493 0.0498 0.0910 Uiso
C45 C 0.7405(5) 1.1379(3) -0.2957(5) 0.0822 Uani
C46 C 0.6471(4) 0.7585(3) 0.1385(4) 0.0727 Uani
H24 H 0.6004 0.7727 0.1161 0.0880 Uiso
C47 C 0.4728(5) 0.7806(3) 0.3027(5) 0.0765 Uani
H25 H 0.4245 0.7937 0.2824 0.0920 Uiso
C48 C 0.4581(5) 0.8543(3) 0.7641(4) 0.0714 Uani
H26 H 0.4095 0.8402 0.7617 0.0860 Uiso
C49 C 0.5539(4) 0.7484(3) 0.4074(4) 0.0689 Uani
H27 H 0.5626 0.7377 0.4624 0.0830 Uiso
C50 C 0.5269(5) 0.7745(3) 0.2477(4) 0.0706 Uani
H28 H 0.5148 0.7840 0.1921 0.0850 Uiso
C51 C 0.7043(5) 0.7504(3) 0.0881(4) 0.0761 Uani
H29 H 0.6956 0.7612 0.0333 0.0910 Uiso
C52 C 0.6030(4) 0.8931(3) 0.7784(4) 0.0637 Uani
H30 H 0.6534 0.9050 0.7824 0.0770 Uiso
C53 C 0.7617(4) 0.8817(3) 1.1532(4) 0.0632 Uani
H31 H 0.7895 0.8826 1.1079 0.0760 Uiso
C54 C 1.0182(5) 1.0770(3) 0.1829(5) 0.0807 Uani
H32 H 1.0471 1.0567 0.1559 0.0970 Uiso
C55 C 0.7307(5) 0.7259(3) 0.2472(5) 0.0827 Uani
H33 H 0.7435 0.7179 0.3035 0.1000 Uiso
C56 C 0.7296(5) 1.0832(3) -0.1829(5) 0.0807 Uani
H34 H 0.7006 1.0627 -0.1565 0.0970 Uiso
C57 C 1.0535(5) 1.0995(3) 0.2565(5) 0.0888 Uani
H35 H 1.1064 1.0947 0.2766 0.1070 Uiso
C58 C 0.6945(5) 1.1066(3) -0.2548(6) 0.0923 Uani
H36 H 0.6418 1.1019 -0.2759 0.1100 Uiso
C59 C 0.8998(5) 1.1143(3) 0.1937(5) 0.0884 Uani
H37 H 0.8473 1.1202 0.1728 0.1060 Uiso
C60 C 0.8502(5) 1.1198(3) -0.1940(5) 0.0897 Uani
H38 H 0.9032 1.1250 -0.1744 0.1070 Uiso
C61 C 0.8143(5) 1.1416(3) -0.2666(6) 0.0945 Uani
H39 H 0.8452 1.1598 -0.2954 0.1130 Uiso
C62 C 0.9344(6) 1.1361(3) 0.2689(6) 0.0975 Uani
H40 H 0.9045 1.1553 0.2969 0.1170 Uiso
C63 C 0.6984(7) 1.1627(4) -0.3720(6) 0.0962 Uani
O12 O 0.7205(7) 1.1919(3) -0.3947(6) 0.2030 Uani
C64 C 1.0514(7) 1.1542(4) 0.3758(6) 0.0950 Uani
Cd1A Cd 0.59866(3) 1.281545(15) 1.01965(3) 0.0475 Uani
Cd1B Cd 0.59866(3) 1.218455(15) -0.48035(3) 0.0475 Uani
Cd2A Cd 1.14706(3) 1.210048(16) 0.48578(3) 0.0474 Uani
Cd2C Cd 0.85294(3) 0.789952(16) 1.51422(3) 0.0474 Uani
O1A O 0.4540(3) 0.70997(14) 0.5449(3) 0.0595 Uani
O3C O 0.7479(3) 0.67239(18) -0.0697(3) 0.0650 Uani
O5A O 0.3361(3) 0.71385(15) 0.4718(4) 0.0738 Uani
O6C O 0.8578(3) 0.67895(18) -0.1186(3) 0.0650 Uani
O9A O 0.8814(4) 0.6441(3) 0.0955(4) 0.1295 Uani
O10B O 0.3680(4) 0.8480(3) 0.4032(4) 0.1247 Uani
O11A O 0.9752(7) 0.6828(3) 0.0982(6) 0.1878 Uani
O12B O 0.2795(7) 0.8081(3) 0.3947(6) 0.2030 Uani
loop_
_atom_site_aniso_label
_atom_site_aniso_U_11
_atom_site_aniso_U_22
_atom_site_aniso_U_33
_atom_site_aniso_U_23
_atom_site_aniso_U_13
_atom_site_aniso_U_12
Cd1 0.0694(4) 0.0376(3) 0.0320(3) -0.00121(19) -0.0036(2) -0.0004(2)
Cd2 0.0640(3) 0.0435(3) 0.0313(3) -0.00268(19) -0.0042(2) -0.0004(2)
C1 0.048(3) 0.041(3) 0.050(3) 0.007(3) -0.009(2) -0.006(2)
C2 0.055(3) 0.034(3) 0.045(3) 0.000(2) -0.009(2) 0.008(2)
O1 0.084(4) 0.037(3) 0.052(3) -0.003(2) -0.007(3) 0.005(2)
O2 0.079(3) 0.048(3) 0.048(3) -0.003(2) -0.013(2) -0.019(2)
C3 0.055(2) 0.045(3) 0.032(2) 0.000(2) -0.002(2) -0.005(2)
C4 0.063(3) 0.052(3) 0.031(3) -0.007(3) 0.002(3) -0.007(3)
O3 0.071(3) 0.088(4) 0.036(2) 0.017(2) 0.008(2) 0.013(3)
C5 0.053(3) 0.049(3) 0.032(2) 0.004(2) -0.001(2) 0.005(2)
C6 0.061(3) 0.051(3) 0.033(2) -0.012(2) 0.006(2) -0.006(3)
C7 0.050(2) 0.044(2) 0.035(2) -0.001(2) 0.002(2) -0.001(2)
C8 0.056(3) 0.053(3) 0.031(2) 0.008(2) 0.003(2) 0.009(3)
C9 0.049(2) 0.046(3) 0.032(2) -0.003(2) 0.002(2) 0.001(2)
O4 0.081(3) 0.073(4) 0.038(2) -0.019(2) 0.004(2) -0.007(3)
C10 0.044(2) 0.048(3) 0.031(2) 0.005(2) 0.007(2) 0.001(2)
O5 0.066(3) 0.035(3) 0.109(5) -0.010(3) -0.023(3) -0.005(2)
N1 0.080(4) 0.054(3) 0.031(3) 0.000(3) -0.002(3) 0.008(3)
C11 0.050(2) 0.043(2) 0.034(2) 0.002(2) -0.001(2) 0.003(2)
C12 0.067(3) 0.052(3) 0.035(3) 0.007(3) 0.004(3) 0.007(3)
O6 0.068(3) 0.078(4) 0.044(3) 0.023(3) -0.008(2) 0.015(3)
C13 0.049(2) 0.038(2) 0.043(2) 0.002(2) -0.005(2) 0.000(2)
C14 0.072(3) 0.079(3) 0.028(2) 0.012(3) 0.004(2) 0.026(3)
O7 0.061(3) 0.042(3) 0.095(4) 0.006(3) -0.018(3) 0.002(2)
O8 0.077(3) 0.073(4) 0.050(3) -0.023(3) -0.006(2) -0.014(3)
C15 0.061(3) 0.040(3) 0.046(3) 0.000(3) 0.001(3) 0.008(3)
C16 0.044(2) 0.035(2) 0.037(2) 0.000(2) 0.000(2) 0.002(2)
C17 0.072(3) 0.078(3) 0.034(2) 0.012(3) 0.007(2) 0.023(3)
C18 0.062(3) 0.050(3) 0.046(3) 0.006(3) 0.006(3) -0.001(3)
N2 0.085(4) 0.048(3) 0.031(3) -0.007(3) -0.001(3) 0.005(3)
C19 0.057(3) 0.057(3) 0.054(3) -0.006(2) -0.005(2) -0.006(2)
C20 0.053(3) 0.038(3) 0.045(3) 0.003(2) -0.002(2) 0.006(2)
C21 0.054(2) 0.051(3) 0.050(2) 0.002(2) -0.005(2) -0.006(2)
C22 0.047(2) 0.052(3) 0.050(2) 0.001(2) -0.009(2) 0.000(2)
C23 0.044(2) 0.047(3) 0.047(2) 0.000(2) -0.002(2) -0.004(2)
C24 0.051(2) 0.046(3) 0.046(2) 0.004(2) -0.006(2) -0.004(2)
C25 0.052(3) 0.037(3) 0.051(3) 0.000(2) -0.003(2) -0.004(2)
C26 0.050(2) 0.045(2) 0.035(2) -0.001(2) 0.002(2) 0.001(2)
C27 0.051(3) 0.045(3) 0.045(3) 0.002(3) -0.004(2) -0.006(2)
C28 0.048(2) 0.040(2) 0.034(2) 0.000(2) -0.003(2) 0.001(2)
C29 0.067(3) 0.058(3) 0.060(3) 0.013(3) -0.008(3) -0.004(3)
C30 0.072(3) 0.058(3) 0.055(3) -0.010(3) -0.011(3) -0.005(3)
C31 0.047(3) 0.047(3) 0.054(3) 0.005(3) -0.002(2) 0.002(2)
C32 0.051(2) 0.043(3) 0.046(2) 0.001(2) -0.006(2) -0.003(2)
C33 0.051(2) 0.039(2) 0.047(3) 0.000(2) -0.004(2) 0.004(2)
C34 0.046(2) 0.045(3) 0.050(3) 0.006(2) -0.010(2) -0.003(2)
C35 0.052(2) 0.055(3) 0.052(2) 0.010(2) -0.007(2) -0.004(2)
C36 0.060(3) 0.053(3) 0.058(3) 0.002(2) -0.012(2) -0.001(2)
C37 0.097(4) 0.072(4) 0.071(3) -0.017(3) -0.014(3) -0.014(3)
O9 0.095(4) 0.207(9) 0.078(4) -0.030(5) -0.014(3) -0.057(5)
C38 0.078(3) 0.081(4) 0.041(3) 0.013(3) 0.010(3) 0.019(3)
N3 0.123(6) 0.063(5) 0.087(5) -0.005(4) -0.024(5) 0.002(4)
C39 0.062(3) 0.074(3) 0.044(3) 0.012(3) 0.007(2) 0.021(3)
C40 0.082(3) 0.091(4) 0.034(3) 0.016(3) 0.005(3) 0.031(3)
O10 0.094(4) 0.192(9) 0.082(4) 0.030(5) -0.006(3) 0.052(4)
C41 0.073(3) 0.081(3) 0.047(3) 0.021(3) 0.009(3) 0.025(3)
C42 0.090(4) 0.110(4) 0.054(3) 0.021(3) 0.015(3) 0.046(3)
C43 0.076(3) 0.076(3) 0.045(3) -0.021(3) 0.007(3) -0.014(3)
O11 0.286(13) 0.107(7) 0.131(7) -0.068(6) -0.095(7) 0.045(8)
C44 0.076(3) 0.073(3) 0.047(3) -0.018(3) 0.011(2) -0.016(3)
N4 0.086(5) 0.056(4) 0.076(5) 0.009(3) -0.013(4) -0.004(3)
C45 0.091(4) 0.072(4) 0.075(4) 0.018(3) -0.015(3) 0.004(3)
C46 0.079(3) 0.101(4) 0.039(3) 0.021(3) 0.012(3) 0.032(3)
C47 0.088(4) 0.095(4) 0.046(3) 0.016(3) 0.009(3) 0.036(4)
C48 0.078(3) 0.082(4) 0.053(3) -0.018(3) 0.006(3) -0.024(3)
C49 0.081(4) 0.092(4) 0.032(3) 0.018(3) 0.003(3) 0.018(3)
C50 0.087(3) 0.088(4) 0.037(3) 0.018(3) 0.010(3) 0.033(3)
C51 0.086(3) 0.099(4) 0.043(3) 0.020(3) 0.009(3) 0.026(3)
C52 0.067(3) 0.074(3) 0.049(3) -0.016(3) 0.005(2) -0.018(3)
C53 0.072(3) 0.076(3) 0.043(2) 0.016(3) 0.013(2) 0.016(3)
C54 0.077(3) 0.089(3) 0.069(3) -0.018(3) -0.012(3) -0.001(3)
C55 0.097(4) 0.109(4) 0.044(3) 0.019(3) 0.017(3) 0.040(3)
C56 0.078(3) 0.086(3) 0.074(3) 0.021(3) -0.002(3) 0.002(3)
C57 0.085(3) 0.097(4) 0.078(3) -0.017(3) -0.008(3) -0.008(3)
C58 0.091(4) 0.094(4) 0.084(3) 0.022(3) -0.012(3) 0.005(3)
C59 0.089(3) 0.087(3) 0.080(3) -0.022(3) -0.017(3) 0.001(3)
C60 0.088(3) 0.087(3) 0.085(3) 0.026(3) -0.016(3) -0.003(3)
C61 0.098(4) 0.090(4) 0.088(4) 0.032(3) -0.010(3) -0.009(3)
C62 0.106(4) 0.094(4) 0.084(4) -0.032(3) -0.013(3) 0.009(4)
C63 0.128(4) 0.079(4) 0.076(4) 0.022(4) -0.003(4) 0.008(4)
O12 0.297(14) 0.120(8) 0.146(8) 0.071(7) -0.115(8) -0.045(8)
C64 0.127(4) 0.084(4) 0.067(4) -0.008(4) -0.008(4) -0.013(4)
Cd1A 0.0694 0.0376 0.032 0.00121 -0.0036 0.0004
Cd1B 0.0694 0.0376 0.032 -0.00121 -0.0036 -0.0004
Cd2A 0.064 0.0435 0.0313 0.00268 -0.0042 0.0004
Cd2C 0.064 0.0435 0.0313 0.00268 -0.0042 0.0004
O1A 0.084 0.037 0.052 0.003 -0.007 -0.005
O3C 0.071 0.088 0.036 -0.017 0.008 -0.013
O5A 0.066 0.035 0.109 0.01 -0.023 0.005
O6C 0.068 0.078 0.044 -0.023 -0.008 -0.015
O9A 0.095 0.207 0.078 0.03 -0.014 0.057
O10B 0.094 0.192 0.082 0.03 -0.006 0.052
O11A 0.286 0.107 0.131 0.068 -0.095 -0.045
O12B 0.297 0.12 0.146 0.071 -0.115 -0.045
loop_
_geom_bond_atom_site_label_1
_geom_bond_atom_site_label_2
_geom_bond_site_symmetry_1
_geom_bond_site_symmetry_2
Cd1 O4 1_555 1_555
Cd2 O2 1_555 1_555
C1 C18 1_555 1_555
C2 C15 1_555 1_555
O1 C15 1_555 1_555
O2 C18 1_555 1_555
C3 C9 1_555 1_555
C4 C6 1_555 1_555
O3 C12 1_555 1_555
C5 C10 1_555 1_555
C6 C43 1_555 1_555
C7 H1 1_555 1_555
C8 C12 1_555 1_555
C9 C7 1_555 1_555
O4 C4 1_555 1_555
C10 C11 1_555 1_555
O5 C15 1_555 1_555
N1 Cd2 1_555 1_555
C11 H2 1_555 1_555
C12 O6 1_555 1_555
O6 Cd2C 1_555 1_555
C13 H3 1_555 1_555
C14 C17 1_555 1_555
O7 Cd2 1_555 1_555
O8 Cd1 1_555 1_555
C16 C13 1_555 1_555
C17 C40 1_555 1_555
C18 O7 1_555 1_555
N2 Cd1 1_555 1_555
C19 C21 1_555 1_555
C20 C2 1_555 1_555
H4 C20 1_555 1_555
C21 H5 1_555 1_555
C22 H6 1_555 1_555
C23 C24 1_555 1_555
C24 C21 1_555 1_555
C25 C2 1_555 1_555
H7 C25 1_555 1_555
C26 C9 1_555 1_555
C27 C1 1_555 1_555
H8 C27 1_555 1_555
C28 C7 1_555 1_555
C29 C35 1_555 1_555
C30 C19 1_555 1_555
C31 C1 1_555 1_555
H9 C31 1_555 1_555
C32 C23 1_555 1_555
H10 C32 1_555 1_555
C33 C16 1_555 1_555
H11 C33 1_555 1_555
C34 C23 1_555 1_555
H12 C34 1_555 1_555
C35 C22 1_555 1_555
C36 C19 1_555 1_555
C37 C57 1_555 1_555
O9 C64 1_555 1_555
C38 C8 1_555 1_555
H13 C38 1_555 1_555
N3 C26 1_555 1_555
H14 N3 1_555 1_555
H15 N3 1_555 1_555
C39 C5 1_555 1_555
H16 C39 1_555 1_555
C40 H17 1_555 1_555
O10 C63 1_555 1_555
C41 C8 1_555 1_555
H18 C41 1_555 1_555
C42 N1 1_555 1_555
H19 C42 1_555 1_555
C43 H20 1_555 1_555
O11 C64 1_555 1_555
C44 C3 1_555 1_555
H21 C44 1_555 1_555
N4 C36 1_555 1_555
H22 N4 1_555 1_555
H23 N4 1_555 1_555
C45 C58 1_555 1_555
C46 C14 1_555 1_555
H24 C46 1_555 1_555
C47 N2 1_555 1_555
H25 C47 1_555 1_555
C48 C6 1_555 1_555
H26 C48 1_555 1_555
C49 N2 1_555 1_555
H27 C49 1_555 1_555
C50 C17 1_555 1_555
H28 C50 1_555 1_555
C51 N1 1_555 1_555
H29 C51 1_555 1_555
C52 C3 1_555 1_555
H30 C52 1_555 1_555
C53 C5 1_555 1_555
H31 C53 1_555 1_555
C54 C30 1_555 1_555
H32 C54 1_555 1_555
C55 C14 1_555 1_555
H33 C55 1_555 1_555
C56 C29 1_555 1_555
H34 C56 1_555 1_555
C57 C54 1_555 1_555
H35 C57 1_555 1_555
C58 C56 1_555 1_555
H36 C58 1_555 1_555
C59 C30 1_555 1_555
H37 C59 1_555 1_555
C60 C29 1_555 1_555
H38 C60 1_555 1_555
C61 C45 1_555 1_555
H39 C61 1_555 1_555
C62 C37 1_555 1_555
H40 C62 1_555 1_555
C63 C45 1_555 1_555
O12 C63 1_555 1_555
C64 C37 1_555 1_555
Cd1A O1 1_555 1_555
Cd1B O10 1_555 1_555
Cd2A O9 1_555 1_555
Cd2C O3 1_555 1_555
O1A Cd1 1_555 1_555
O3C Cd2 1_555 1_555
O5A Cd1 1_555 1_555
O6C Cd2 1_555 1_555
O9A Cd2 1_555 1_555
O10B Cd1 1_555 1_555
O11A Cd2 1_555 1_555
O12B Cd1 1_555 1_555
C4 O8 1_555 1_555
C10 C26 1_555 1_555
O5 Cd1A 1_555 1_555
C11 C28 1_555 1_555
C13 C20 1_555 1_555
C16 C28 1_555 1_555
C22 C24 1_555 1_555
C25 C33 1_555 1_555
C27 C32 1_555 1_555
C31 C34 1_555 1_555
C35 C36 1_555 1_555
C38 C39 1_555 1_555
C40 C49 1_555 1_555
C41 C53 1_555 1_555
C42 C55 1_555 1_555
C43 C52 1_555 1_555
O11 Cd2A 1_555 1_555
C44 C48 1_555 1_555
C46 C51 1_555 1_555
C47 C50 1_555 1_555
C59 C62 1_555 1_555
C60 C61 1_555 1_555
O12 Cd1B 1_555 1_555

#END
