
#######################################################################
#
#                 Cambridge Crystallographic Data Centre
#                                CCDC 
#
#######################################################################
#
# If this CIF has been generated from an entry in the Cambridge 
# Structural Database, then it will include bibliographic, chemical, 
# crystal, experimental, refinement or atomic coordinate data resulting 
# from the CCDC's data processing and validation procedures.
#
#######################################################################

data_XULDEP
_chemical_formula_moiety         '(C24 H31 Co2 N1 O15)n'
_symmetry_cell_setting           monoclinic
_symmetry_space_group_name_H-M   'P 21/c'
_symmetry_Int_Tables_number      14
_space_group_name_Hall           '-P 2ybc'
loop_
_symmetry_equiv_pos_site_id
_symmetry_equiv_pos_as_xyz
1 x,y,z
2 -x,1/2+y,1/2-z
3 -x,-y,-z
4 x,1/2-y,1/2+z
_cell_length_a                   7.7720(16)
_cell_length_b                   18.629(4)
_cell_length_c                   19.518(5)
_cell_angle_alpha                90
_cell_angle_beta                 104.23(3)
_cell_angle_gamma                90
_cell_volume                     2739.2
loop_
_atom_site_label
_atom_site_type_symbol
_atom_site_fract_x
_atom_site_fract_y
_atom_site_fract_z
_atom_site_U_iso_or_equiv
_atom_site_thermal_displace_type
Co1 Co -0.29590(7) 0.56004(3) 0.97052(3) 0.0277 Uani
Co2 Co -0.19801(7) 0.93997(3) 1.03536(3) 0.0288 Uani
O1 O -0.0271(5) 0.91897(18) 1.14029(19) 0.0442 Uani
H1 H 0.0109 0.8761 1.1453 0.0660 Uiso
H2 H -0.1027 0.9280 1.1642 0.0660 Uiso
O2 O 0.0119(5) 0.91818(18) 0.9973(2) 0.0528 Uani
O3 O 0.1978(5) 0.95562(15) 0.93553(19) 0.0386 Uani
O4 O -0.2004(4) 0.66555(16) 0.97217(18) 0.0384 Uani
O5 O -0.0847(4) 0.58923(15) 0.91099(17) 0.0318 Uani
O6 O -0.4888(5) 0.58124(19) 0.8779(2) 0.0569 Uani
H3 H -0.5284 0.6226 0.8649 0.0860 Uiso
H4 H -0.5811 0.5491 0.8558 0.0860 Uiso
O7 O -0.0802(4) 0.53963(18) 1.06195(18) 0.0401 Uani
O8 O 0.3941(4) 0.72396(15) 0.83797(17) 0.0330 Uani
O9 O 1.0989(4) 0.72352(15) 0.65924(17) 0.0331 Uani
O10 O 1.5676(4) 0.58648(15) 0.57852(18) 0.0360 Uani
O11 O 1.7023(4) 0.66645(16) 0.52881(19) 0.0390 Uani
O12 O 1.5510(5) 0.92585(17) 0.5386(2) 0.0478 Uani
O13 O 1.2847(4) 0.95326(15) 0.55316(18) 0.0327 Uani
N1 N -0.3784(7) 0.9618(2) 0.9358(2) 0.0491 Uani
C1 C -0.2262(12) 0.9666(5) 0.8232(4) 0.0905 Uani
H5 H -0.1755 0.9210 0.8163 0.1360 Uiso
H6 H -0.1343 1.0023 0.8341 0.1360 Uiso
H7 H -0.3122 0.9801 0.7808 0.1360 Uiso
C2 C -0.3146(14) 0.9613(6) 0.8828(5) 0.1110 Uani
C3 C 0.1078(5) 0.9078(2) 0.9556(2) 0.0271 Uani
C4 C 0.1229(5) 0.83295(19) 0.9299(2) 0.0214 Uani
C5 C 0.0113(5) 0.77952(19) 0.94465(19) 0.0214 Uani
H8 H -0.0734 0.7904 0.9694 0.0260 Uiso
C6 C 0.0286(5) 0.70956(19) 0.92173(19) 0.0203 Uani
C7 C 0.1575(5) 0.6930(2) 0.8857(2) 0.0232 Uani
H9 H 0.1688 0.6463 0.8707 0.0280 Uiso
C8 C 0.2695(5) 0.7468(2) 0.8721(2) 0.0227 Uani
C9 C 0.2526(5) 0.8168(2) 0.8934(2) 0.0241 Uani
H10 H 0.3263 0.8527 0.8836 0.0290 Uiso
C10 C -0.0911(5) 0.6517(2) 0.9356(2) 0.0240 Uani
C11 C 0.5121(5) 0.7761(2) 0.8194(2) 0.0314 Uani
H11 H 0.5849 0.7984 0.8616 0.0370 Uiso
H12 H 0.4451 0.8131 0.7895 0.0370 Uiso
C12 C 0.6265(5) 0.7352(2) 0.7804(2) 0.0288 Uani
H13 H 0.5500 0.7084 0.7422 0.0350 Uiso
H14 H 0.6981 0.7009 0.8126 0.0350 Uiso
C13 C 0.7495(5) 0.7828(3) 0.7497(2) 0.0310 Uani
H15 H 0.8233 0.8117 0.7869 0.0370 Uiso
H16 H 0.6796 0.8149 0.7145 0.0370 Uiso
C14 C 0.8664(5) 0.7352(2) 0.7158(2) 0.0268 Uani
H17 H 0.9395 0.7052 0.7522 0.0330 Uiso
H18 H 0.7906 0.7038 0.6817 0.0330 Uiso
C15 C 0.9853(6) 0.7763(2) 0.6794(2) 0.0314 Uani
H19 H 0.9156 0.8010 0.6381 0.0370 Uiso
H20 H 1.0550 0.8114 0.7112 0.0370 Uiso
C16 C 1.2249(5) 0.7457(2) 0.6252(2) 0.0220 Uani
C17 C 1.2481(5) 0.8161(2) 0.6072(2) 0.0231 Uani
H21 H 1.1765 0.8522 0.6181 0.0280 Uiso
C18 C 1.3809(5) 0.83266(18) 0.5723(2) 0.0210 Uani
C19 C 1.4894(5) 0.77915(19) 0.5566(2) 0.0219 Uani
H22 H 1.5785 0.7905 0.5342 0.0260 Uiso
C20 C 1.4639(5) 0.70812(19) 0.57474(19) 0.0213 Uani
C21 C 1.3325(5) 0.69108(19) 0.6091(2) 0.0236 Uani
H23 H 1.3160 0.6438 0.6212 0.0280 Uiso
C22 C 1.4073(5) 0.9090(2) 0.5527(2) 0.0245 Uani
C23 C 1.5825(5) 0.6505(2) 0.5587(2) 0.0270 Uani
Co1A Co 1.29590(7) 1.06004(3) 0.52948(3) 0.0277 Uani
Co1C Co 1.70410(7) 0.93996(3) 0.47052(3) 0.0277 Uani
Co2B Co 0.19801(7) 1.06003(3) 0.96464(3) 0.0288 Uani
Co2C Co 1.80199(7) 0.56003(3) 0.53536(3) 0.0288 Uani
O3B O -0.1978(5) 1.04438(15) 1.06447(19) 0.0386 Uani
O10C O -0.4324(4) 0.91352(15) 1.07852(18) 0.0360 Uani
O11C O -0.2977(4) 0.83355(16) 1.02881(19) 0.0390 Uani
O12C O -0.4490(5) 0.57415(17) 1.0386(2) 0.0478 Uani
O13A O -0.2847(4) 0.45326(15) 0.94684(18) 0.0327 Uani
O14 O 0.7528(7) 0.5158(3) 0.1821(3) 0.0787 Uani
H24 H 0.7659 0.5328 0.1413 0.1180 Uiso
H25 H 0.8565 0.5048 0.2068 0.1180 Uiso
O15 O 0.8787(8) 0.5398(3) 0.7681(3) 0.0910 Uani
H26 H 0.8449 0.5804 0.7743 0.1370 Uiso
C24 C 0.7350(12) 0.4952(6) 0.7483(4) 0.1058 Uani
H27 H 0.7287 0.4646 0.7873 0.1590 Uiso
H28 H 0.7469 0.4663 0.7090 0.1590 Uiso
H29 H 0.6286 0.5233 0.7348 0.1590 Uiso
loop_
_atom_site_aniso_label
_atom_site_aniso_U_11
_atom_site_aniso_U_22
_atom_site_aniso_U_33
_atom_site_aniso_U_23
_atom_site_aniso_U_13
_atom_site_aniso_U_12
Co1 0.0263(3) 0.0149(3) 0.0490(4) -0.0028(2) 0.0227(3) -0.00265(19)
Co2 0.0327(3) 0.0148(3) 0.0478(4) -0.0035(2) 0.0268(3) -0.0038(2)
O1 0.0482(19) 0.0296(17) 0.057(2) -0.0006(15) 0.0171(16) 0.0017(15)
O2 0.058(2) 0.0264(17) 0.095(3) -0.0187(17) 0.059(2) -0.0099(15)
O3 0.0527(19) 0.0128(13) 0.063(2) -0.0054(13) 0.0383(17) -0.0074(13)
O4 0.0431(17) 0.0241(15) 0.062(2) -0.0085(14) 0.0397(16) -0.0125(13)
O5 0.0324(15) 0.0161(13) 0.0519(18) -0.0037(12) 0.0199(13) -0.0037(11)
O6 0.044(2) 0.0289(18) 0.087(3) 0.0086(18) -0.0047(19) -0.0028(15)
O7 0.0420(18) 0.0311(17) 0.0488(19) -0.0026(14) 0.0142(15) -0.0012(14)
O8 0.0348(15) 0.0223(14) 0.0536(18) -0.0041(12) 0.0333(14) -0.0032(12)
O9 0.0349(15) 0.0207(14) 0.0557(19) 0.0041(12) 0.0342(14) 0.0017(12)
O10 0.0377(16) 0.0165(14) 0.062(2) 0.0053(13) 0.0282(15) 0.0052(12)
O11 0.0433(17) 0.0210(14) 0.067(2) 0.0073(14) 0.0408(17) 0.0101(13)
O12 0.047(2) 0.0260(16) 0.088(3) 0.0095(16) 0.050(2) 0.0035(14)
O13 0.0291(14) 0.0174(13) 0.0583(19) 0.0069(12) 0.0237(14) 0.0039(11)
N1 0.067(2) 0.0340(19) 0.047(2) 0.0021(17) 0.0154(18) 0.0113(19)
C1 0.096(4) 0.103(4) 0.077(3) -0.006(3) 0.030(3) -0.022(3)
C2 0.113(4) 0.120(4) 0.102(3) 0.004(3) 0.030(3) 0.001(3)
C3 0.0277(19) 0.0171(18) 0.042(2) -0.0021(15) 0.0191(17) -0.0030(14)
C4 0.0233(17) 0.0150(16) 0.0289(18) 0.0002(13) 0.0120(14) -0.0016(13)
C5 0.0220(16) 0.0182(17) 0.0276(18) -0.0007(13) 0.0128(14) -0.0015(13)
C6 0.0191(16) 0.0170(16) 0.0275(17) -0.0006(13) 0.0108(13) -0.0024(13)
C7 0.0235(18) 0.0193(17) 0.0305(19) -0.0037(14) 0.0138(15) -0.0018(14)
C8 0.0212(17) 0.0219(18) 0.0296(18) -0.0011(14) 0.0151(14) -0.0003(14)
C9 0.0234(17) 0.0190(17) 0.035(2) -0.0001(14) 0.0171(15) -0.0035(14)
C10 0.0233(17) 0.0188(17) 0.0328(19) 0.0004(14) 0.0124(15) -0.0034(14)
C11 0.031(2) 0.028(2) 0.045(2) 0.0006(17) 0.0280(18) -0.0023(16)
C12 0.0279(19) 0.031(2) 0.033(2) -0.0006(16) 0.0182(16) 0.0018(16)
C13 0.031(2) 0.033(2) 0.036(2) -0.0014(16) 0.0216(17) -0.0014(16)
C14 0.0238(18) 0.031(2) 0.031(2) 0.0022(16) 0.0170(15) 0.0003(15)
C15 0.032(2) 0.027(2) 0.044(2) 0.0024(17) 0.0262(18) 0.0054(16)
C16 0.0218(17) 0.0201(17) 0.0283(18) 0.0013(14) 0.0139(14) -0.0002(14)
C17 0.0220(17) 0.0202(18) 0.0311(19) 0.0002(14) 0.0144(14) 0.0048(14)
C18 0.0232(17) 0.0132(16) 0.0315(18) 0.0035(13) 0.0163(14) 0.0018(13)
C19 0.0204(16) 0.0182(17) 0.0312(18) 0.0020(14) 0.0140(14) 0.0019(13)
C20 0.0198(16) 0.0187(17) 0.0277(18) -0.0001(13) 0.0102(14) 0.0039(13)
C21 0.0278(18) 0.0137(16) 0.0330(19) 0.0011(14) 0.0148(15) 0.0010(14)
C22 0.0265(18) 0.0190(18) 0.0329(19) 0.0021(14) 0.0164(15) 0.0025(14)
C23 0.0261(18) 0.0188(18) 0.040(2) 0.0009(15) 0.0158(16) 0.0046(15)
Co1A 0.0263 0.0149 0.049 0.0028 0.0227 0.00265
Co1C 0.0263 0.0149 0.049 0.0028 0.0227 0.00265
Co2B 0.0327 0.0148 0.0478 -0.0035 0.0268 -0.0038
Co2C 0.0327 0.0148 0.0478 0.0035 0.0268 0.0038
O3B 0.0527 0.0128 0.063 -0.0054 0.0383 -0.0074
O10C 0.0377 0.0165 0.062 -0.0053 0.0282 -0.0052
O11C 0.0433 0.021 0.067 -0.0073 0.0408 -0.0101
O12C 0.047 0.026 0.088 -0.0095 0.05 -0.0035
O13A 0.0291 0.0174 0.0583 -0.0069 0.0237 -0.0039
O14 0.087(3) 0.088(3) 0.062(3) 0.000(2) 0.020(2) -0.015(3)
O15 0.111(3) 0.088(3) 0.081(3) 0.000(3) 0.037(3) -0.012(3)
C24 0.113(4) 0.106(5) 0.099(4) 0.000(3) 0.027(4) -0.022(3)
loop_
_geom_bond_atom_site_label_1
_geom_bond_atom_site_label_2
_geom_bond_site_symmetry_1
_geom_bond_site_symmetry_2
Co1 O4 1_555 1_555
Co2 O1 1_555 1_555
O1 H1 1_555 1_555
H2 O1 1_555 1_555
O2 Co2 1_555 1_555
O3 C3 1_555 1_555
O4 C10 1_555 1_555
O5 Co1 1_555 1_555
O6 Co1 1_555 1_555
H3 O6 1_555 1_555
H4 O6 1_555 1_555
O7 Co1 1_555 1_555
O8 C8 1_555 1_555
O9 C15 1_555 1_555
O10 C23 1_555 1_555
O11 C23 1_555 1_555
O12 C22 1_555 1_555
O13 C22 1_555 1_555
N1 Co2 1_555 1_555
C1 H5 1_555 1_555
H6 C1 1_555 1_555
H7 C1 1_555 1_555
C2 N1 1_555 1_555
C3 O2 1_555 1_555
C4 C3 1_555 1_555
C5 C4 1_555 1_555
H8 C5 1_555 1_555
C6 C5 1_555 1_555
C7 C6 1_555 1_555
H9 C7 1_555 1_555
C8 C7 1_555 1_555
C9 C4 1_555 1_555
H10 C9 1_555 1_555
C10 O5 1_555 1_555
C11 O8 1_555 1_555
H11 C11 1_555 1_555
H12 C11 1_555 1_555
C12 C11 1_555 1_555
H13 C12 1_555 1_555
H14 C12 1_555 1_555
C13 C12 1_555 1_555
H15 C13 1_555 1_555
H16 C13 1_555 1_555
C14 C13 1_555 1_555
H17 C14 1_555 1_555
H18 C14 1_555 1_555
C15 C14 1_555 1_555
H19 C15 1_555 1_555
H20 C15 1_555 1_555
C16 O9 1_555 1_555
C17 C16 1_555 1_555
H21 C17 1_555 1_555
C18 C17 1_555 1_555
C19 C18 1_555 1_555
H22 C19 1_555 1_555
C20 C19 1_555 1_555
C21 C16 1_555 1_555
H23 C21 1_555 1_555
C22 C18 1_555 1_555
C23 C20 1_555 1_555
O14 H24 1_555 1_555
H25 O14 1_555 1_555
O15 H26 1_555 1_555
C24 O15 1_555 1_555
H27 C24 1_555 1_555
H28 C24 1_555 1_555
H29 C24 1_555 1_555
Co1A O13 1_555 1_555
Co1C O12 1_555 1_555
Co2B O3 1_555 1_555
Co2C O10 1_555 1_555
O3B Co2 1_555 1_555
O10C Co2 1_555 1_555
O11C Co2 1_555 1_555
O12C Co1 1_555 1_555
O13A Co1 1_555 1_555
O11 Co2C 1_555 1_555
C1 C2 1_555 1_555
C6 C10 1_555 1_555
C8 C9 1_555 1_555
C20 C21 1_555 1_555

#END
