
#######################################################################
#
#                 Cambridge Crystallographic Data Centre
#                                CCDC 
#
#######################################################################
#
# If this CIF has been generated from an entry in the Cambridge 
# Structural Database, then it will include bibliographic, chemical, 
# crystal, experimental, refinement or atomic coordinate data resulting 
# from the CCDC's data processing and validation procedures.
#
#######################################################################

data_EDOMAM
_chemical_formula_moiety         '(C38 H24 Cu2 N2 O8)n'
_symmetry_cell_setting           triclinic
_symmetry_space_group_name_H-M   'P -1'
_symmetry_Int_Tables_number      2
_space_group_name_Hall           '-P 1'
loop_
_symmetry_equiv_pos_site_id
_symmetry_equiv_pos_as_xyz
1 x,y,z
2 -x,-y,-z
_cell_length_a                   13.941(3)
_cell_length_b                   15.075(3)
_cell_length_c                   15.075(3)
_cell_angle_alpha                82.15(3)
_cell_angle_beta                 87.23(3)
_cell_angle_gamma                87.23(3)
_cell_volume                     3132.03
loop_
_atom_site_label
_atom_site_type_symbol
_atom_site_fract_x
_atom_site_fract_y
_atom_site_fract_z
Cu1 Cu 0.20602(9) -0.15934(8) 0.61730(10)
Cu2 Cu 0.39503(10) -0.16514(8) 0.61007(10)
O1 O 0.2197(6) -0.1493(7) 0.4881(6)
O2 O 0.3784(6) -0.1545(7) 0.4801(6)
C1 C 0.2984(9) -0.1540(7) 0.4453(9)
C2 C 0.2974(9) -0.1558(9) 0.3465(9)
C3 C 0.2183(18) -0.1341(18) 0.3014(17)
H1 H 0.1605 -0.1193 0.3332
C4 C 0.2178(19) -0.133(2) 0.2062(18)
H2 H 0.1635 -0.1087 0.1737
C5 C 0.2952(12) -0.1653(11) 0.1643(11)
C6 C 0.379(3) -0.187(3) 0.215(3)
H3 H 0.4369 -0.2081 0.1865
C7 C 0.377(3) -0.179(3) 0.296(3)
H4 H 0.4355 -0.1900 0.3264
C14 C 0.2935(11) -0.1689(13) 0.0650(11)
C15 C 0.208(3) -0.132(3) 0.017(3)
H9 H 0.1550 -0.1066 0.0477
C16 C 0.209(3) -0.136(3) -0.075(2)
H10 H 0.1555 -0.1121 -0.1090
C17 C 0.2910(10) -0.1757(9) -0.1194(9)
C18 C 0.374(2) -0.215(2) -0.072(2)
H11 H 0.4263 -0.2434 -0.1011
C19 C 0.372(2) -0.207(2) 0.018(2)
H12 H 0.4267 -0.2288 0.0502
C26 C 0.2948(9) -0.1748(9) -0.2173(9)
O3 O 0.2132(7) -0.1691(8) -0.2527(6)
O4 O 0.3721(6) -0.1796(7) -0.2593(6)
O5 O 0.3758(6) -0.0364(6) 0.6038(6)
O6 O 0.2179(6) -0.0292(5) 0.6112(7)
C27 C 0.2998(8) 0.0053(8) 0.6085(9)
C28 C 0.3007(9) 0.1045(8) 0.6063(9)
C29 C 0.393(2) 0.148(2) 0.582(2)
H17 H 0.4497 0.1147 0.5666
C30 C 0.390(2) 0.2375(18) 0.582(2)
H18 H 0.4471 0.2688 0.5651
C31 C 0.3038(10) 0.2889(9) 0.6086(11)
C32 C 0.219(2) 0.244(2) 0.638(2)
H19 H 0.1638 0.2760 0.6590
C33 C 0.216(2) 0.153(2) 0.637(2)
H20 H 0.1598 0.1217 0.6567
C40 C 0.3062(11) 0.3878(9) 0.6086(12)
C41 C 0.376(2) 0.439(2) 0.567(2)
H25 H 0.4248 0.4124 0.5322
C42 C 0.377(2) 0.5289(19) 0.574(2)
H26 H 0.4311 0.5606 0.5492
C43 C 0.3099(9) 0.5729(8) 0.6129(10)
C44 C 0.226(2) 0.5239(18) 0.6567(19)
H27 H 0.1747 0.5540 0.6863
C45 C 0.225(2) 0.4324(18) 0.6523(19)
H28 H 0.1720 0.3989 0.6775
C52 C 0.3089(9) 0.6697(8) 0.6167(8)
O7 O 0.3878(6) 0.7060(5) 0.6146(7)
O8 O 0.2293(6) 0.7097(5) 0.6227(8)
N1 N -0.4539(7) -0.1654(7) 0.6185(7)
C53 C -0.3977(15) -0.2412(15) 0.6409(17)
H33 H -0.4294 -0.2961 0.6545
C54 C -0.3019(18) -0.2451(17) 0.6456(19)
H34 H -0.2680 -0.3005 0.6630
C55 C -0.2524(9) -0.1650(8) 0.6240(9)
C56 C -0.3068(16) -0.0862(15) 0.6041(17)
H35 H -0.2775 -0.0300 0.5912
C57 C -0.405(2) -0.0921(19) 0.604(2)
H36 H -0.4408 -0.0372 0.5918
C63 C -0.1472(9) -0.1641(8) 0.6241(9)
C64 C -0.0929(14) -0.2331(14) 0.6750(14)
H41 H -0.1234 -0.2809 0.7116
C65 C 0.0048(13) -0.2287(12) 0.6695(13)
H42 H 0.0415 -0.2758 0.7022
N3 N 0.0531(7) -0.1613(7) 0.6204(7)
C66 C 0.0021(16) -0.1006(15) 0.5717(16)
H43 H 0.0351 -0.0557 0.5332
C67 C -0.0987(19) -0.0970(18) 0.5723(18)
H44 H -0.1327 -0.0493 0.5377
Cu1_2 Cu 0.20602(9) -0.15934(8) -0.38270(10)
Cu1_3 Cu 0.20602(9) 0.84066(8) 0.61730(10)
Cu2_2 Cu 0.39503(10) -0.16514(8) -0.38993(10)
Cu2_3 Cu 0.39503(10) 0.83486(8) 0.61007(10)
Cu2_4 Cu -0.60497(10) -0.16514(8) 0.61007(10)
O3_2 O 0.2132(7) -0.1691(8) 0.7473(6)
O4_2 O 0.3721(6) -0.1796(7) 0.7407(6)
O7_2 O 0.3878(6) -0.2940(5) 0.6146(7)
O8_2 O 0.2293(6) -0.2903(5) 0.6227(8)
N1_2 N 0.5461(7) -0.1654(7) 0.6185(7)
loop_
_geom_bond_atom_site_label_1
_geom_bond_atom_site_label_2
_geom_bond_site_symmetry_1
_geom_bond_site_symmetry_2
Cu1 O1 1_555 1_555
Cu2 O2 1_555 1_555
O1 C1 1_555 1_555
O2 C1 1_555 1_555
C1 C2 1_555 1_555
C2 C3 1_555 1_555
C3 H1 1_555 1_555
C4 C3 1_555 1_555
H2 C4 1_555 1_555
C5 C4 1_555 1_555
C6 C5 1_555 1_555
H3 C6 1_555 1_555
C7 C2 1_555 1_555
H4 C7 1_555 1_555
C14 C5 1_555 1_555
C15 C14 1_555 1_555
H9 C15 1_555 1_555
C16 C15 1_555 1_555
H10 C16 1_555 1_555
C17 C16 1_555 1_555
C18 C17 1_555 1_555
H11 C18 1_555 1_555
C19 C14 1_555 1_555
H12 C19 1_555 1_555
C26 C17 1_555 1_555
O3 C26 1_555 1_555
O4 C26 1_555 1_555
O5 Cu2 1_555 1_555
O6 Cu1 1_555 1_555
C27 O5 1_555 1_555
C28 C27 1_555 1_555
C29 C28 1_555 1_555
H17 C29 1_555 1_555
C30 C29 1_555 1_555
H18 C30 1_555 1_555
C31 C30 1_555 1_555
C32 C31 1_555 1_555
H19 C32 1_555 1_555
C33 C28 1_555 1_555
H20 C33 1_555 1_555
C40 C31 1_555 1_555
C41 C40 1_555 1_555
H25 C41 1_555 1_555
C42 C41 1_555 1_555
H26 C42 1_555 1_555
C43 C42 1_555 1_555
C44 C43 1_555 1_555
H27 C44 1_555 1_555
C45 C40 1_555 1_555
H28 C45 1_555 1_555
C52 C43 1_555 1_555
O7 C52 1_555 1_555
O8 C52 1_555 1_555
N1 C53 1_555 1_555
C53 H33 1_555 1_555
C54 C53 1_555 1_555
H34 C54 1_555 1_555
C55 C54 1_555 1_555
C56 C55 1_555 1_555
H35 C56 1_555 1_555
C57 N1 1_555 1_555
H36 C57 1_555 1_555
C63 C55 1_555 1_555
C64 C63 1_555 1_555
H41 C64 1_555 1_555
C65 C64 1_555 1_555
H42 C65 1_555 1_555
N3 Cu1 1_555 1_555
C66 N3 1_555 1_555
H43 C66 1_555 1_555
C67 C63 1_555 1_555
H44 C67 1_555 1_555
Cu1_2 O3 1_555 1_555
Cu1_3 O8 1_555 1_555
Cu2_2 O4 1_555 1_555
Cu2_3 O7 1_555 1_555
Cu2_4 N1 1_555 1_555
O3_2 Cu1 1_555 1_555
O4_2 Cu2 1_555 1_555
O7_2 Cu2 1_555 1_555
O8_2 Cu1 1_555 1_555
N1_2 Cu2 1_555 1_555
C6 C7 1_555 1_555
C18 C19 1_555 1_555
O6 C27 1_555 1_555
C32 C33 1_555 1_555
C44 C45 1_555 1_555
C56 C57 1_555 1_555
C65 N3 1_555 1_555
C66 C67 1_555 1_555

#END
