
#######################################################################
#
#                 Cambridge Crystallographic Data Centre
#                                CCDC 
#
#######################################################################
#
# If this CIF has been generated from an entry in the Cambridge 
# Structural Database, then it will include bibliographic, chemical, 
# crystal, experimental, refinement or atomic coordinate data resulting 
# from the CCDC's data processing and validation procedures.
#
#######################################################################

data_MATBAM
_chemical_formula_moiety         '(C52 H40 Cu6 Mo2 N12 O2 S8)n'
_symmetry_cell_setting           monoclinic
_symmetry_space_group_name_H-M   'C 2/c'
_symmetry_Int_Tables_number      15
_space_group_name_Hall           '-C 2yc'
loop_
_symmetry_equiv_pos_site_id
_symmetry_equiv_pos_as_xyz
1 x,y,z
2 -x,y,1/2-z
3 1/2+x,1/2+y,z
4 1/2-x,1/2+y,1/2-z
5 -x,-y,-z
6 x,-y,1/2+z
7 1/2-x,1/2-y,-z
8 1/2+x,1/2-y,1/2+z
_cell_length_a                   40.592(8)
_cell_length_b                   9.7008(19)
_cell_length_c                   24.750(5)
_cell_angle_alpha                90
_cell_angle_beta                 104.95(3)
_cell_angle_gamma                90
_cell_volume                     9416.04
loop_
_atom_site_label
_atom_site_type_symbol
_atom_site_fract_x
_atom_site_fract_y
_atom_site_fract_z
_atom_site_U_iso_or_equiv
_atom_site_thermal_displace_type
Mo1 Mo 0.089453(13) 0.62042(5) -0.04004(2) 0.0504 Uani
Cu1 Cu 0.107264(18) 0.35931(7) -0.01049(3) 0.0531 Uani
Cu2 Cu 0.14483(2) 0.70933(8) 0.03819(3) 0.0603 Uani
Cu3 Cu 0.130736(19) 0.60501(7) -0.10828(3) 0.0535 Uani
S1 S 0.10733(4) 0.54037(16) 0.04854(7) 0.0615 Uani
S2 S 0.12630(4) 0.78624(14) -0.05145(7) 0.0587 Uani
S3 S 0.09214(4) 0.44444(15) -0.09939(7) 0.0532 Uani
S4 S 0.26091(6) 0.5800(2) 0.11125(11) 0.0974 Uani
O1 O 0.04885(11) 0.6835(5) -0.0526(2) 0.0871 Uani
N1 N 0.15273(12) 0.2559(5) 0.0121(2) 0.0537 Uani
N2 N 0.31942(12) -0.0245(5) 0.0830(2) 0.0501 Uani
N3 N 0.07020(12) 0.2187(5) -0.0015(2) 0.0580 Uani
N4 N 0.13819(15) 0.8749(5) 0.0912(2) 0.0646 Uani
N5 N 0.13125(14) 1.3185(5) 0.3150(2) 0.0616 Uani
N6 N 0.19489(14) 0.6738(6) 0.0695(2) 0.0639 Uani
C1 C 0.16014(16) 0.1430(6) -0.0120(3) 0.0699 Uani
H1 H 0.1427 0.1020 -0.0391 0.0840 Uiso
C2 C 0.19176(15) 0.0813(7) 0.0001(3) 0.0623 Uani
H2 H 0.1952 0.0017 -0.0187 0.0750 Uiso
C3 C 0.21830(15) 0.1387(6) 0.0404(2) 0.0499 Uani
C4 C 0.20978(17) 0.2524(7) 0.0685(3) 0.0721 Uani
H3 H 0.2261 0.2907 0.0982 0.0870 Uiso
C5 C 0.17807(18) 0.3080(7) 0.0531(3) 0.0721 Uani
H4 H 0.1736 0.3861 0.0718 0.0870 Uiso
C6 C 0.29270(17) -0.1002(6) 0.0580(3) 0.0618 Uani
H5 H 0.2967 -0.1908 0.0491 0.0740 Uiso
C7 C 0.25983(15) -0.0552(7) 0.0445(3) 0.0638 Uani
H6 H 0.2422 -0.1146 0.0277 0.0770 Uiso
C8 C 0.25294(15) 0.0805(6) 0.0560(2) 0.0493 Uani
C9 C 0.28136(16) 0.1636(6) 0.0811(3) 0.0654 Uani
H7 H 0.2785 0.2557 0.0895 0.0780 Uiso
C10 C 0.31334(16) 0.1050(6) 0.0930(3) 0.0691 Uani
H8 H 0.3319 0.1608 0.1093 0.0830 Uiso
C11 C 0.06498(19) 0.0962(8) -0.0255(4) 0.0988 Uani
H9 H 0.0811 0.0662 -0.0437 0.1190 Uiso
C12 C 0.03878(17) 0.0103(6) -0.0265(4) 0.0874 Uani
H10 H 0.0369 -0.0726 -0.0459 0.1050 Uiso
C13 C 0.01564(16) 0.0452(6) 0.0006(3) 0.0615 Uani
C14 C 0.0210(2) 0.1629(9) 0.0305(5) 0.1355 Uani
H11 H 0.0068 0.1863 0.0531 0.1630 Uiso
C15 C 0.0479(2) 0.2494(9) 0.0277(4) 0.1279 Uani
H12 H 0.0504 0.3324 0.0471 0.1540 Uiso
C16 C 0.1093(2) 0.9020(8) 0.1035(3) 0.0818 Uani
H13 H 0.0900 0.8546 0.0840 0.0980 Uiso
C17 C 0.10565(18) 0.9962(7) 0.1433(3) 0.0716 Uani
H14 H 0.0845 1.0115 0.1501 0.0860 Uiso
C18 C 0.13428(18) 1.0678(6) 0.1731(3) 0.0588 Uani
C19 C 0.1643(2) 1.0420(8) 0.1598(3) 0.0800 Uani
H15 H 0.1840 1.0899 0.1776 0.0960 Uiso
C20 C 0.1652(2) 0.9442(8) 0.1198(3) 0.0829 Uani
H16 H 0.1861 0.9258 0.1123 0.1000 Uiso
C21 C 0.1046(2) 1.3046(8) 0.2719(3) 0.0846 Uani
H17 H 0.0846 1.3484 0.2738 0.1020 Uiso
C22 C 0.10397(19) 1.2311(8) 0.2247(3) 0.0882 Uani
H18 H 0.0842 1.2288 0.1956 0.1060 Uiso
C23 C 0.13302(18) 1.1589(7) 0.2197(3) 0.0641 Uani
C24 C 0.1609(2) 1.1751(11) 0.2636(4) 0.1212 Uani
H19 H 0.1811 1.1298 0.2633 0.1450 Uiso
C25 C 0.1597(2) 1.2599(10) 0.3098(4) 0.1137 Uani
H20 H 0.1798 1.2749 0.3375 0.1360 Uiso
C26 C 0.2219(2) 0.6333(7) 0.0866(3) 0.0712 Uani
Mo1F Mo 0.410547(13) -0.12042(5) 0.04004(2) 0.0504 Uani
Cu1F Cu 0.392736(18) 0.14069(7) 0.01049(3) 0.0531 Uani
Cu1D Cu -0.107264(18) -0.35931(7) 0.01049(3) 0.0531 Uani
Cu2F Cu 0.35517(2) -0.20933(8) -0.03819(3) 0.0603 Uani
Cu2C Cu 0.35517(2) -0.79067(8) 0.46181(3) 0.0603 Uani
Cu3F Cu 0.369264(19) -0.10501(7) 0.10828(3) 0.0535 Uani
Cu3E Cu 0.130736(19) 1.39499(7) 0.39172(3) 0.0535 Uani
Cu3C Cu 0.369264(19) -0.89499(7) -0.39172(3) 0.0535 Uani
S1F S 0.39267(4) -0.04037(16) -0.04854(7) 0.0615 Uani
S2F S 0.37370(4) -0.28624(14) 0.05145(7) 0.0587 Uani
S3F S 0.40786(4) 0.05556(15) 0.09939(7) 0.0532 Uani
S4F S 0.23909(6) -0.0800(2) -0.11125(11) 0.0974 Uani
O1F O 0.45115(11) -0.1835(5) 0.0526(2) 0.0871 Uani
N1F N 0.34727(12) 0.2441(5) -0.0121(2) 0.0537 Uani
N2F N 0.18058(12) 0.5245(5) -0.0830(2) 0.0501 Uani
N3D N -0.07020(12) -0.2187(5) 0.0015(2) 0.0580 Uani
N3F N 0.42980(12) 0.2813(5) 0.0015(2) 0.0580 Uani
N4F N 0.36181(15) -0.3749(5) -0.0912(2) 0.0646 Uani
N4C N 0.36181(15) -0.6251(5) 0.4088(2) 0.0646 Uani
N5E N 0.13125(14) 0.6815(5) -0.1850(2) 0.0616 Uani
N5C N 0.36875(14) -0.1815(5) 0.1850(2) 0.0616 Uani
N5F N 0.36875(14) -0.8185(5) -0.3150(2) 0.0616 Uani
N6F N 0.30511(14) -0.1738(6) -0.0695(2) 0.0639 Uani
C11D C -0.06498(19) -0.0962(8) 0.0255(4) 0.0988 Uani
H9D H -0.0811 -0.0662 0.0437 0.1190 Uiso
C12D C -0.03878(17) -0.0103(6) 0.0265(4) 0.0874 Uani
H10D H -0.0369 0.0726 0.0459 0.1050 Uiso
C13D C -0.01564(16) -0.0452(6) -0.0006(3) 0.0615 Uani
C14D C -0.0210(2) -0.1629(9) -0.0305(5) 0.1355 Uani
H11D H -0.0068 -0.1863 -0.0531 0.1630 Uiso
C15D C -0.0479(2) -0.2494(9) -0.0277(4) 0.1279 Uani
H12D H -0.0504 -0.3324 -0.0471 0.1540 Uiso
C16F C 0.3907(2) -0.4020(8) -0.1035(3) 0.0818 Uani
C16C C 0.3907(2) -0.5980(8) 0.3965(3) 0.0818 Uani
H13F H 0.4100 -0.3546 -0.0840 0.0980 Uiso
H13C H 0.4100 -0.6454 0.4160 0.0980 Uiso
C17F C 0.39435(18) -0.4962(7) -0.1433(3) 0.0716 Uani
C17C C 0.39435(18) -0.5038(7) 0.3567(3) 0.0716 Uani
H14F H 0.4155 -0.5115 -0.1501 0.0860 Uiso
H14C H 0.4155 -0.4885 0.3499 0.0860 Uiso
C18C C 0.36572(18) -0.4322(6) 0.3269(3) 0.0588 Uani
C18F C 0.36572(18) -0.5678(6) -0.1731(3) 0.0588 Uani
C19F C 0.3357(2) -0.5420(8) -0.1598(3) 0.0800 Uani
C19C C 0.3357(2) -0.4580(8) 0.3402(3) 0.0800 Uani
H15F H 0.3160 -0.5899 -0.1776 0.0960 Uiso
H15C H 0.3160 -0.4101 0.3224 0.0960 Uiso
C20F C 0.3348(2) -0.4442(8) -0.1198(3) 0.0829 Uani
C20C C 0.3348(2) -0.5558(8) 0.3802(3) 0.0829 Uani
H16F H 0.3139 -0.4258 -0.1123 0.1000 Uiso
H16C H 0.3139 -0.5742 0.3877 0.1000 Uiso
C21C C 0.3954(2) -0.1954(8) 0.2281(3) 0.0846 Uani
C21F C 0.3954(2) -0.8046(8) -0.2719(3) 0.0846 Uani
H17C H 0.4154 -0.1516 0.2262 0.1020 Uiso
H17F H 0.4154 -0.8484 -0.2738 0.1020 Uiso
C22C C 0.39603(19) -0.2689(8) 0.2753(3) 0.0882 Uani
C22F C 0.39603(19) -0.7311(8) -0.2247(3) 0.0882 Uani
H18C H 0.4158 -0.2712 0.3044 0.1060 Uiso
H18F H 0.4158 -0.7288 -0.1956 0.1060 Uiso
C23C C 0.36698(18) -0.3411(7) 0.2803(3) 0.0641 Uani
C23F C 0.36698(18) -0.6589(7) -0.2197(3) 0.0641 Uani
C24C C 0.3391(2) -0.3249(11) 0.2364(4) 0.1212 Uani
C24F C 0.3391(2) -0.6751(11) -0.2636(4) 0.1212 Uani
H19C H 0.3189 -0.3702 0.2367 0.1450 Uiso
H19F H 0.3189 -0.6298 -0.2633 0.1450 Uiso
C25C C 0.3403(2) -0.2401(10) 0.1902(4) 0.1137 Uani
C25F C 0.3403(2) -0.7599(10) -0.3098(4) 0.1137 Uani
H20C H 0.3202 -0.2251 0.1625 0.1360 Uiso
H20F H 0.3202 -0.7749 -0.3375 0.1360 Uiso
C26F C 0.2781(2) -0.1333(7) -0.0866(3) 0.0712 Uani
loop_
_atom_site_aniso_label
_atom_site_aniso_U_11
_atom_site_aniso_U_22
_atom_site_aniso_U_33
_atom_site_aniso_U_23
_atom_site_aniso_U_13
_atom_site_aniso_U_12
Mo1 0.0444(3) 0.0389(3) 0.0715(4) -0.0064(2) 0.0214(3) -0.0010(2)
Cu1 0.0495(4) 0.0424(4) 0.0715(5) -0.0016(4) 0.0229(4) -0.0068(3)
Cu2 0.0667(5) 0.0551(5) 0.0610(5) -0.0118(4) 0.0197(4) -0.0119(4)
Cu3 0.0559(5) 0.0534(4) 0.0527(5) 0.0023(3) 0.0169(4) -0.0055(3)
S1 0.0753(11) 0.0505(9) 0.0699(11) -0.0062(8) 0.0389(9) -0.0104(8)
S2 0.0700(11) 0.0384(8) 0.0695(11) 0.0004(7) 0.0215(9) -0.0066(7)
S3 0.0526(9) 0.0458(8) 0.0606(10) -0.0059(7) 0.0137(8) -0.0081(7)
S4 0.0708(13) 0.0958(15) 0.1133(18) 0.0027(13) 0.0017(12) -0.0030(11)
O1 0.055(3) 0.070(3) 0.138(5) -0.015(3) 0.028(3) 0.014(2)
N1 0.054(3) 0.039(3) 0.075(4) 0.008(3) 0.029(3) 0.004(2)
N2 0.047(3) 0.045(3) 0.055(3) 0.001(2) 0.007(2) -0.006(2)
N3 0.050(3) 0.037(3) 0.095(4) -0.009(3) 0.033(3) -0.003(2)
N4 0.073(4) 0.056(3) 0.072(4) -0.007(3) 0.032(3) -0.009(3)
N5 0.062(4) 0.067(3) 0.053(3) -0.013(3) 0.010(3) 0.009(3)
N6 0.052(3) 0.077(4) 0.068(4) 0.003(3) 0.025(3) -0.004(3)
C1 0.049(4) 0.055(4) 0.100(6) -0.020(4) 0.009(4) -0.015(3)
C2 0.046(4) 0.057(4) 0.084(5) -0.013(4) 0.017(3) 0.000(3)
C3 0.052(4) 0.045(3) 0.055(4) 0.003(3) 0.018(3) -0.003(3)
C4 0.052(4) 0.061(4) 0.093(5) -0.016(4) 0.000(4) -0.002(3)
C5 0.062(4) 0.058(4) 0.092(5) -0.020(4) 0.012(4) 0.003(3)
C6 0.063(4) 0.054(4) 0.067(4) -0.008(3) 0.014(3) -0.008(3)
C7 0.044(4) 0.064(4) 0.078(5) -0.004(4) 0.006(3) -0.010(3)
C8 0.052(4) 0.041(3) 0.054(4) 0.004(3) 0.012(3) -0.001(3)
C9 0.054(4) 0.048(3) 0.087(5) -0.002(3) 0.005(4) -0.006(3)
C10 0.051(4) 0.051(4) 0.097(5) -0.013(4) 0.004(4) -0.022(3)
C11 0.072(5) 0.079(5) 0.167(9) -0.042(6) 0.070(6) -0.006(4)
C12 0.067(5) 0.045(4) 0.174(8) -0.037(4) 0.074(5) -0.022(3)
C13 0.070(4) 0.030(3) 0.099(5) 0.008(3) 0.048(4) -0.006(3)
C14 0.120(8) 0.095(6) 0.242(13) -0.079(7) 0.138(9) -0.061(6)
C15 0.116(7) 0.083(6) 0.220(12) -0.075(7) 0.107(8) -0.053(5)
C16 0.074(5) 0.096(6) 0.070(5) -0.021(4) 0.009(4) -0.005(4)
C17 0.066(4) 0.073(5) 0.072(5) -0.033(4) 0.011(4) 0.000(4)
C18 0.072(4) 0.054(4) 0.051(4) -0.001(3) 0.017(3) -0.003(3)
C19 0.091(6) 0.086(5) 0.075(5) -0.042(4) 0.043(4) -0.038(4)
C20 0.080(5) 0.083(5) 0.104(6) -0.036(5) 0.057(5) -0.031(4)
C21 0.074(5) 0.097(6) 0.079(5) -0.018(5) 0.013(4) 0.037(4)
C22 0.077(5) 0.108(6) 0.062(5) -0.031(4) -0.014(4) 0.017(5)
C23 0.066(4) 0.065(4) 0.061(4) -0.013(3) 0.016(4) -0.001(3)
C24 0.067(5) 0.196(10) 0.092(6) -0.068(7) 0.005(5) 0.043(6)
C25 0.063(5) 0.173(9) 0.096(6) -0.073(6) 0.004(4) 0.022(5)
C26 0.082(5) 0.075(5) 0.055(4) 0.001(4) 0.015(4) -0.022(4)
Mo1F 0.0444 0.0389 0.0715 -0.0064 0.0214 -0.001
Cu1F 0.0495 0.0424 0.0715 -0.0016 0.0229 -0.0068
Cu1D 0.0495 0.0424 0.0715 -0.0016 0.0229 -0.0068
Cu2F 0.0667 0.0551 0.061 -0.0118 0.0197 -0.0119
Cu2C 0.0667 0.0551 0.061 0.0118 0.0197 0.0119
Cu3F 0.0559 0.0534 0.0527 0.0023 0.0169 -0.0055
Cu3E 0.0559 0.0534 0.0527 -0.0023 0.0169 0.0055
Cu3C 0.0559 0.0534 0.0527 -0.0023 0.0169 0.0055
S1F 0.0753 0.0505 0.0699 -0.0062 0.0389 -0.0104
S2F 0.07 0.0384 0.0695 0.0004 0.0215 -0.0066
S3F 0.0526 0.0458 0.0606 -0.0059 0.0137 -0.0081
S4F 0.0708 0.0958 0.1133 0.0027 0.0017 -0.003
O1F 0.055 0.07 0.138 -0.015 0.028 0.014
N1F 0.054 0.039 0.075 0.008 0.029 0.004
N2F 0.047 0.045 0.055 0.001 0.007 -0.006
N3D 0.05 0.037 0.095 -0.009 0.033 -0.003
N3F 0.05 0.037 0.095 -0.009 0.033 -0.003
N4F 0.073 0.056 0.072 -0.007 0.032 -0.009
N4C 0.073 0.056 0.072 0.007 0.032 0.009
N5E 0.062 0.067 0.053 0.013 0.01 -0.009
N5C 0.062 0.067 0.053 0.013 0.01 -0.009
N5F 0.062 0.067 0.053 -0.013 0.01 0.009
N6F 0.052 0.077 0.068 0.003 0.025 -0.004
C11D 0.072 0.079 0.167 -0.042 0.07 -0.006
C12D 0.067 0.045 0.174 -0.037 0.074 -0.022
C13D 0.07 0.03 0.099 0.008 0.048 -0.006
C14D 0.12 0.095 0.242 -0.079 0.138 -0.061
C15D 0.116 0.083 0.22 -0.075 0.107 -0.053
C16F 0.074 0.096 0.07 -0.021 0.009 -0.005
C16C 0.074 0.096 0.07 0.021 0.009 0.005
C17F 0.066 0.073 0.072 -0.033 0.011 0
C17C 0.066 0.073 0.072 0.033 0.011 0
C18C 0.072 0.054 0.051 0.001 0.017 0.003
C18F 0.072 0.054 0.051 -0.001 0.017 -0.003
C19F 0.091 0.086 0.075 -0.042 0.043 -0.038
C19C 0.091 0.086 0.075 0.042 0.043 0.038
C20F 0.08 0.083 0.104 -0.036 0.057 -0.031
C20C 0.08 0.083 0.104 0.036 0.057 0.031
C21C 0.074 0.097 0.079 0.018 0.013 -0.037
C21F 0.074 0.097 0.079 -0.018 0.013 0.037
C22C 0.077 0.108 0.062 0.031 -0.014 -0.017
C22F 0.077 0.108 0.062 -0.031 -0.014 0.017
C23C 0.066 0.065 0.061 0.013 0.016 0.001
C23F 0.066 0.065 0.061 -0.013 0.016 -0.001
C24C 0.067 0.196 0.092 0.068 0.005 -0.043
C24F 0.067 0.196 0.092 -0.068 0.005 0.043
C25C 0.063 0.173 0.096 0.073 0.004 -0.022
C25F 0.063 0.173 0.096 -0.073 0.004 0.022
C26F 0.082 0.075 0.055 0.001 0.015 -0.022
loop_
_geom_bond_atom_site_label_1
_geom_bond_atom_site_label_2
_geom_bond_site_symmetry_1
_geom_bond_site_symmetry_2
Mo1 Cu1 1_555 1_555
Cu1 S1 1_555 1_555
Cu2 Mo1 1_555 1_555
Cu3 Mo1 1_555 1_555
S1 Mo1 1_555 1_555
S2 Mo1 1_555 1_555
S3 Mo1 1_555 1_555
S4 C26 1_555 1_555
O1 Mo1 1_555 1_555
N1 Cu1 1_555 1_555
N2 C6 1_555 1_555
N3 Cu1 1_555 1_555
N4 Cu2 1_555 1_555
N5 C21 1_555 1_555
N6 Cu2 1_555 1_555
C1 N1 1_555 1_555
H1 C1 1_555 1_555
C2 C1 1_555 1_555
H2 C2 1_555 1_555
C3 C2 1_555 1_555
C4 C3 1_555 1_555
H3 C4 1_555 1_555
C5 N1 1_555 1_555
H4 C5 1_555 1_555
C6 H5 1_555 1_555
C7 C6 1_555 1_555
H6 C7 1_555 1_555
C8 C3 1_555 1_555
C9 C8 1_555 1_555
H7 C9 1_555 1_555
C10 N2 1_555 1_555
H8 C10 1_555 1_555
C11 N3 1_555 1_555
H9 C11 1_555 1_555
C12 C11 1_555 1_555
H10 C12 1_555 1_555
C13 C12 1_555 1_555
C14 C13 1_555 1_555
H11 C14 1_555 1_555
C15 N3 1_555 1_555
H12 C15 1_555 1_555
C16 N4 1_555 1_555
H13 C16 1_555 1_555
C17 C16 1_555 1_555
H14 C17 1_555 1_555
C18 C17 1_555 1_555
C19 C18 1_555 1_555
H15 C19 1_555 1_555
C20 N4 1_555 1_555
H16 C20 1_555 1_555
C21 H17 1_555 1_555
C22 C21 1_555 1_555
H18 C22 1_555 1_555
C23 C18 1_555 1_555
C24 C23 1_555 1_555
H19 C24 1_555 1_555
C25 N5 1_555 1_555
H20 C25 1_555 1_555
C26 N6 1_555 1_555
Mo1F Cu1F 1_555 1_555
Cu1F S1F 1_555 1_555
Cu1D N3D 1_555 1_555
Cu2F Mo1F 1_555 1_555
Cu2C N4C 1_555 1_555
Cu3F N2 1_555 1_555
Cu3E N5 1_555 1_555
Cu3C N5F 1_555 1_555
S1F Mo1F 1_555 1_555
S2F Mo1F 1_555 1_555
S3F Mo1F 1_555 1_555
S4F C26F 1_555 1_555
O1F Mo1F 1_555 1_555
N1F Cu1F 1_555 1_555
N2F Cu3 1_555 1_555
N3D C11D 1_555 1_555
N3F Cu1F 1_555 1_555
N4F Cu2F 1_555 1_555
N4C C16C 1_555 1_555
N5E Cu3 1_555 1_555
N5C Cu3F 1_555 1_555
N5F C21F 1_555 1_555
N6F Cu2F 1_555 1_555
C11D H9D 1_555 1_555
C12D C11D 1_555 1_555
H10D C12D 1_555 1_555
C13D C13 1_555 1_555
C14D C13D 1_555 1_555
H11D C14D 1_555 1_555
C15D N3D 1_555 1_555
H12D C15D 1_555 1_555
C16F N4F 1_555 1_555
C16C H13C 1_555 1_555
H13F C16F 1_555 1_555
C17F C16F 1_555 1_555
C17C C16C 1_555 1_555
H14F C17F 1_555 1_555
H14C C17C 1_555 1_555
C18C C17C 1_555 1_555
C18F C17F 1_555 1_555
C19F C18F 1_555 1_555
C19C C18C 1_555 1_555
H15F C19F 1_555 1_555
H15C C19C 1_555 1_555
C20F N4F 1_555 1_555
C20C N4C 1_555 1_555
H16F C20F 1_555 1_555
H16C C20C 1_555 1_555
C21C N5C 1_555 1_555
C21F H17F 1_555 1_555
H17C C21C 1_555 1_555
C22C C21C 1_555 1_555
C22F C21F 1_555 1_555
H18C C22C 1_555 1_555
H18F C22F 1_555 1_555
C23C C18C 1_555 1_555
C23F C18F 1_555 1_555
C24C C23C 1_555 1_555
C24F C23F 1_555 1_555
H19C C24C 1_555 1_555
H19F C24F 1_555 1_555
C25C N5C 1_555 1_555
C25F N5F 1_555 1_555
H20C C25C 1_555 1_555
H20F C25F 1_555 1_555
C26F N6F 1_555 1_555
Cu1 S3 1_555 1_555
Cu2 S1 1_555 1_555
Cu2 S2 1_555 1_555
Cu3 S2 1_555 1_555
Cu3 S3 1_555 1_555
C4 C5 1_555 1_555
C7 C8 1_555 1_555
C9 C10 1_555 1_555
C14 C15 1_555 1_555
C19 C20 1_555 1_555
C22 C23 1_555 1_555
C24 C25 1_555 1_555
Mo1F Cu3F 1_555 1_555
Cu1F S3F 1_555 1_555
Cu2F S1F 1_555 1_555
Cu2F S2F 1_555 1_555
Cu3F S2F 1_555 1_555
Cu3F S3F 1_555 1_555
C12D C13D 1_555 1_555
C14D C15D 1_555 1_555
C19F C20F 1_555 1_555
C19C C20C 1_555 1_555
C22C C23C 1_555 1_555
C22F C23F 1_555 1_555
C24C C25C 1_555 1_555
C24F C25F 1_555 1_555

#END
