
#######################################################################
#
#                 Cambridge Crystallographic Data Centre
#                                CCDC 
#
#######################################################################
#
# If this CIF has been generated from an entry in the Cambridge 
# Structural Database, then it will include bibliographic, chemical, 
# crystal, experimental, refinement or atomic coordinate data resulting 
# from the CCDC's data processing and validation procedures.
#
#######################################################################

data_NAYZOE
_chemical_formula_moiety         '(C86 H72 Cu6 N4 O34)n'
_symmetry_cell_setting           cubic
_symmetry_space_group_name_H-M   'P m -3 n'
_symmetry_Int_Tables_number      223
_space_group_name_Hall           '-P 4n 2 3'
loop_
_symmetry_equiv_pos_site_id
_symmetry_equiv_pos_as_xyz
1 x,y,z
2 -x,-y,z
3 -x,y,-z
4 x,-y,-z
5 z,x,y
6 z,-x,-y
7 -z,-x,y
8 -z,x,-y
9 y,z,x
10 -y,z,-x
11 y,-z,-x
12 -y,-z,x
13 1/2+y,1/2+x,1/2-z
14 1/2-y,1/2-x,1/2-z
15 1/2+y,1/2-x,1/2+z
16 1/2-y,1/2+x,1/2+z
17 1/2+x,1/2+z,1/2-y
18 1/2-x,1/2+z,1/2+y
19 1/2-x,1/2-z,1/2-y
20 1/2+x,1/2-z,1/2+y
21 1/2+z,1/2+y,1/2-x
22 1/2+z,1/2-y,1/2+x
23 1/2-z,1/2+y,1/2+x
24 1/2-z,1/2-y,1/2-x
25 -x,-y,-z
26 x,y,-z
27 x,-y,z
28 -x,y,z
29 -z,-x,-y
30 -z,x,y
31 z,x,-y
32 z,-x,y
33 -y,-z,-x
34 y,-z,x
35 -y,z,x
36 y,z,-x
37 1/2-y,1/2-x,1/2+z
38 1/2+y,1/2+x,1/2+z
39 1/2-y,1/2+x,1/2-z
40 1/2+y,1/2-x,1/2-z
41 1/2-x,1/2-z,1/2+y
42 1/2+x,1/2-z,1/2-y
43 1/2+x,1/2+z,1/2+y
44 1/2-x,1/2+z,1/2-y
45 1/2-z,1/2-y,1/2+x
46 1/2-z,1/2+y,1/2-x
47 1/2+z,1/2-y,1/2-x
48 1/2+z,1/2+y,1/2+x
_cell_length_a                   23.211(3)
_cell_length_b                   23.211(3)
_cell_length_c                   23.211(3)
_cell_angle_alpha                90
_cell_angle_beta                 90
_cell_angle_gamma                90
_cell_volume                     12504.9
loop_
_atom_site_label
_atom_site_type_symbol
_atom_site_fract_x
_atom_site_fract_y
_atom_site_fract_z
Cu1 Cu 0.30648(7) 0.5000 0.0000
N1 N 0.2500 0.2500 0.2500
O1 O 0.29728(18) 0.44100(18) 0.05897(17)
O2 O 0.3998 0.5000 0.0000(4)
C1 C 0.2500(3) 0.4224 0.0776(3)
C2 C 0.2500(2) 0.3790 0.1210(2)
C3 C 0.2996(3) 0.3572(3) 0.1435(3)
H1 H 0.3345 0.3702 0.1289
C4 C 0.3003(3) 0.3160(3) 0.1874(3)
H2 H 0.3352 0.3043 0.2033
C5 C 0.2500(3) 0.2931 0.2069(3)
Cu1Q Cu 0.19352(7) 0.5000 0.0000
Cu1D Cu -0.0000 0.30648(7) 0.5000
Cu1M Cu -0.0000 0.19352(7) 0.5000
Cu1H Cu 0.5000 -0.0000 0.30648(7)
Cu1T Cu 0.5000 -0.0000 0.19352(7)
Cu1E Cu 0.0000 0.69352(7) -0.5000
Cu1L Cu 0.0000 0.80648(7) -0.5000
Cu1I Cu 0.5000 1.0000 -0.30648(7)
Cu1U Cu 0.5000 1.0000 -0.19352(7)
Cu1D_2 Cu 0.0000 0.30648(7) -0.5000
Cu1M_2 Cu 0.0000 0.19352(7) -0.5000
Cu1I_2 Cu 0.5000 0.0000 -0.30648(7)
Cu1U_2 Cu 0.5000 0.0000 -0.19352(7)
Cu1E_2 Cu -0.0000 0.69352(7) 0.5000
Cu1L_2 Cu 0.0000 0.80648(7) 0.5000
Cu1H_2 Cu 0.5000 1.0000 0.30648(7)
Cu1T_2 Cu 0.5000 1.0000 0.19352(7)
N1C N 0.2500 0.7500 -0.2500
N1Y N 0.2500 0.2500 -0.2500
N1Z N 0.2500 0.7500 0.2500
O1R O 0.20272(18) 0.44103(17) 0.05900(18)
O1D O 0.05897(17) 0.29728(18) 0.44100(18)
O1M O 0.05900(18) 0.20272(18) 0.44103(17)
O1H O 0.44100(18) 0.05897(17) 0.29728(18)
O1W O 0.44103(17) 0.05900(18) 0.20272(18)
O1C O 0.29728(18) 0.55900(18) -0.05897(17)
O1Q O 0.20272(18) 0.55897(17) -0.05900(18)
O1E O 0.05897(17) 0.70272(18) -0.44100(18)
O1O O 0.05900(18) 0.79728(18) -0.44103(17)
O1J O 0.44100(18) 0.94103(17) -0.29728(18)
O1V O 0.44103(17) 0.94100(18) -0.20272(18)
O1Y O 0.29728(18) 0.44100(18) -0.05897(17)
O1NA O 0.20272(18) 0.44103(17) -0.05900(18)
O1DA O 0.05897(17) 0.29728(18) -0.44100(18)
O1JA O 0.05900(18) 0.20272(18) -0.44103(17)
O1IA O 0.44100(18) 0.05897(17) -0.29728(18)
O1RA O 0.44103(17) 0.05900(18) -0.20272(18)
O1Z O 0.29728(18) 0.55900(18) 0.05897(17)
O1QA O 0.20272(18) 0.55897(17) 0.05900(18)
O1EA O 0.05897(17) 0.70272(18) 0.44100(18)
O1LA O 0.05900(18) 0.79728(18) 0.44103(17)
O1GA O 0.44100(18) 0.94103(17) 0.29728(18)
O1SA O 0.44103(17) 0.94100(18) 0.20272(18)
O1G O -0.05897(17) 0.29728(18) 0.55900(18)
O1CA O -0.05897(17) 0.29728(18) 0.44100(18)
O1DA_2 O 0.05897(17) 0.29728(18) 0.55900(18)
O1N O -0.05900(18) 0.20272(18) 0.55897(17)
O1JA_2 O 0.05900(18) 0.20272(18) 0.55897(17)
O1MA O -0.05900(18) 0.20272(18) 0.44103(17)
O1K O 0.55900(18) -0.05897(17) 0.29728(18)
O1GA_2 O 0.44100(18) -0.05897(17) 0.29728(18)
O1HA O 0.55900(18) 0.05897(17) 0.29728(18)
O1T O 0.55897(17) -0.05900(18) 0.20272(18)
O1TA O 0.55897(17) 0.05900(18) 0.20272(18)
O1SA_2 O 0.44103(17) -0.05900(18) 0.20272(18)
O2Q O 0.1002 0.5000(4) 0.0000
O2D O -0.0000(4) 0.3998 0.5000
O2M O -0.0000 0.1002 0.5000(4)
O2H O 0.5000 -0.0000(4) 0.3998
O2T O 0.5000(4) -0.0000 0.1002
C1D C 0.0776(3) 0.2500(3) 0.4224
C1H C 0.4224 0.0776(3) 0.2500(3)
C1C C 0.2500(3) 0.5776 -0.0776(3)
C1E C 0.0776(3) 0.7500(3) -0.4224
C1J C 0.4224 0.9224(3) -0.2500(3)
C1Y C 0.2500(3) 0.4224 -0.0776(3)
C1DA C 0.0776(3) 0.2500(3) -0.4224
C1IA C 0.4224 0.0776(3) -0.2500(3)
C1Z C 0.2500(3) 0.5776 0.0776(3)
C1EA C 0.0776(3) 0.7500(3) 0.4224
C1GA C 0.4224 0.9224(3) 0.2500(3)
C2D C 0.1210(2) 0.2500(2) 0.3790
C2H C 0.3790 0.1210(2) 0.2500(2)
C2C C 0.2500(2) 0.6210 -0.1210(2)
C2E C 0.1210(2) 0.7500(2) -0.3790
C2J C 0.3790 0.8790(2) -0.2500(2)
C2Y C 0.2500(2) 0.3790 -0.1210(2)
C2DA C 0.1210(2) 0.2500(2) -0.3790
C2IA C 0.3790 0.1210(2) -0.2500(2)
C2Z C 0.2500(2) 0.6210 0.1210(2)
C2EA C 0.1210(2) 0.7500(2) 0.3790
C2GA C 0.3790 0.8790(2) 0.2500(2)
C3R C 0.2004(3) 0.3565(3) 0.1428(3)
C3D C 0.1435(3) 0.2996(3) 0.3572(3)
C3M C 0.1428(3) 0.2004(3) 0.3565(3)
C3H C 0.3572(3) 0.1435(3) 0.2996(3)
C3W C 0.3565(3) 0.1428(3) 0.2004(3)
C3C C 0.2996(3) 0.6428(3) -0.1435(3)
C3Q C 0.2004(3) 0.6435(3) -0.1428(3)
C3E C 0.1435(3) 0.7004(3) -0.3572(3)
C3O C 0.1428(3) 0.7996(3) -0.3565(3)
C3J C 0.3572(3) 0.8565(3) -0.2996(3)
C3V C 0.3565(3) 0.8572(3) -0.2004(3)
C3Y C 0.2996(3) 0.3572(3) -0.1435(3)
C3NA C 0.2004(3) 0.3565(3) -0.1428(3)
C3DA C 0.1435(3) 0.2996(3) -0.3572(3)
C3JA C 0.1428(3) 0.2004(3) -0.3565(3)
C3IA C 0.3572(3) 0.1435(3) -0.2996(3)
C3RA C 0.3565(3) 0.1428(3) -0.2004(3)
C3Z C 0.2996(3) 0.6428(3) 0.1435(3)
C3QA C 0.2004(3) 0.6435(3) 0.1428(3)
C3EA C 0.1435(3) 0.7004(3) 0.3572(3)
C3LA C 0.1428(3) 0.7996(3) 0.3565(3)
C3GA C 0.3572(3) 0.8565(3) 0.2996(3)
C3SA C 0.3565(3) 0.8572(3) 0.2004(3)
H1R H 0.1655 0.3711 0.1298
H1M H 0.1298 0.1655 0.3711
H1D H 0.1289 0.3345 0.3702
H1W H 0.3711 0.1298 0.1655
H1H H 0.3702 0.1289 0.3345
H1C H 0.3345 0.6298 -0.1289
H1Q H 0.1655 0.6289 -0.1298
H1O H 0.1298 0.8345 -0.3711
H1E H 0.1289 0.6655 -0.3702
H1V H 0.3711 0.8702 -0.1655
H1J H 0.3702 0.8711 -0.3345
H1Y H 0.3345 0.3702 -0.1289
H1NA H 0.1655 0.3711 -0.1298
H1JA H 0.1298 0.1655 -0.3711
H1DA H 0.1289 0.3345 -0.3702
H1RA H 0.3711 0.1298 -0.1655
H1IA H 0.3702 0.1289 -0.3345
H1Z H 0.3345 0.6298 0.1289
H1QA H 0.1655 0.6289 0.1298
H1LA H 0.1298 0.8345 0.3711
H1EA H 0.1289 0.6655 0.3702
H1SA H 0.3711 0.8702 0.1655
H1GA H 0.3702 0.8711 0.3345
C4R C 0.1997(3) 0.3126(3) 0.1840(3)
C4D C 0.1874(3) 0.3003(3) 0.3160(3)
C4M C 0.1840(3) 0.1997(3) 0.3126(3)
C4H C 0.3160(3) 0.1874(3) 0.3003(3)
C4W C 0.3126(3) 0.1840(3) 0.1997(3)
C4C C 0.3003(3) 0.6840(3) -0.1874(3)
C4Q C 0.1997(3) 0.6874(3) -0.1840(3)
C4E C 0.1874(3) 0.6997(3) -0.3160(3)
C4O C 0.1840(3) 0.8003(3) -0.3126(3)
C4J C 0.3160(3) 0.8126(3) -0.3003(3)
C4V C 0.3126(3) 0.8160(3) -0.1997(3)
C4Y C 0.3003(3) 0.3160(3) -0.1874(3)
C4NA C 0.1997(3) 0.3126(3) -0.1840(3)
C4DA C 0.1874(3) 0.3003(3) -0.3160(3)
C4JA C 0.1840(3) 0.1997(3) -0.3126(3)
C4IA C 0.3160(3) 0.1874(3) -0.3003(3)
C4RA C 0.3126(3) 0.1840(3) -0.1997(3)
C4Z C 0.3003(3) 0.6840(3) 0.1874(3)
C4QA C 0.1997(3) 0.6874(3) 0.1840(3)
C4EA C 0.1874(3) 0.6997(3) 0.3160(3)
C4LA C 0.1840(3) 0.8003(3) 0.3126(3)
C4GA C 0.3160(3) 0.8126(3) 0.3003(3)
C4SA C 0.3126(3) 0.8160(3) 0.1997(3)
H2R H 0.1648 0.2967 0.1957
H2M H 0.1957 0.1648 0.2967
H2D H 0.2033 0.3352 0.3043
H2W H 0.2967 0.1957 0.1648
H2H H 0.3043 0.2033 0.3352
H2C H 0.3352 0.6957 -0.2033
H2Q H 0.1648 0.7033 -0.1957
H2O H 0.1957 0.8352 -0.2967
H2E H 0.2033 0.6648 -0.3043
H2V H 0.2967 0.8043 -0.1648
H2J H 0.3043 0.7967 -0.3352
H2Y H 0.3352 0.3043 -0.2033
H2NA H 0.1648 0.2967 -0.1957
H2JA H 0.1957 0.1648 -0.2967
H2DA H 0.2033 0.3352 -0.3043
H2RA H 0.2967 0.1957 -0.1648
H2IA H 0.3043 0.2033 -0.3352
H2Z H 0.3352 0.6957 0.2033
H2QA H 0.1648 0.7033 0.1957
H2LA H 0.1957 0.8352 0.2967
H2EA H 0.2033 0.6648 0.3043
H2SA H 0.2967 0.8043 0.1648
H2GA H 0.3043 0.7967 0.3352
C5D C 0.2069(3) 0.2500(3) 0.2931
C5H C 0.2931 0.2069(3) 0.2500(3)
C5C C 0.2500(3) 0.7069 -0.2069(3)
C5E C 0.2069(3) 0.7500(3) -0.2931
C5J C 0.2931 0.7931(3) -0.2500(3)
C5Y C 0.2500(3) 0.2931 -0.2069(3)
C5DA C 0.2069(3) 0.2500(3) -0.2931
C5IA C 0.2931 0.2069(3) -0.2500(3)
C5Z C 0.2500(3) 0.7069 0.2069(3)
C5EA C 0.2069(3) 0.7500(3) 0.2931
C5GA C 0.2931 0.7931(3) 0.2500(3)
C7 C 0.1191(19) 0.3740(9) 0.0000
O4 O 0.1295(15) 0.3072(10) 0.0000
C8 C 0.2999(9) 0.277(2) 0.0000
O5 O 0.3661(12) 0.291(2) 0.0000
O6 O -0.0000 0.2045(6) 0.0000
O8 O -0.0000 0.4107(18) 0.0000
loop_
_geom_bond_atom_site_label_1
_geom_bond_atom_site_label_2
_geom_bond_site_symmetry_1
_geom_bond_site_symmetry_2
Cu1 O1 1_555 1_555
N1 C5 1_555 1_555
O1 C1 1_555 1_555
O2 Cu1 1_555 1_555
C1 C2 1_555 1_555
C2 C3 1_555 1_555
C3 H1 1_555 1_555
C4 C3 1_555 1_555
H2 C4 1_555 1_555
C5 C4 1_555 1_555
C7 O4 1_555 1_555
C8 O5 1_555 1_555
Cu1Q O1R 1_555 1_555
Cu1D O1D 1_555 1_555
Cu1M O1M 1_555 1_555
Cu1H O1H 1_555 1_555
Cu1T O1W 1_555 1_555
Cu1E O1E 1_555 1_555
Cu1L O1O 1_555 1_555
Cu1I O1J 1_555 1_555
Cu1U O1V 1_555 1_555
Cu1D_2 O1DA 1_555 1_555
Cu1M_2 O1JA 1_555 1_555
Cu1I_2 O1IA 1_555 1_555
Cu1U_2 O1RA 1_555 1_555
Cu1E_2 O1EA 1_555 1_555
Cu1L_2 O1LA 1_555 1_555
Cu1H_2 O1GA 1_555 1_555
Cu1T_2 O1SA 1_555 1_555
N1C C5C 1_555 1_555
N1Y C5Y 1_555 1_555
N1Z C5Z 1_555 1_555
O1R C1 1_555 1_555
O1D C1D 1_555 1_555
O1M C1D 1_555 1_555
O1H C1H 1_555 1_555
O1W C1H 1_555 1_555
O1C Cu1 1_555 1_555
O1Q Cu1Q 1_555 1_555
O1E C1E 1_555 1_555
O1O C1E 1_555 1_555
O1J C1J 1_555 1_555
O1V C1J 1_555 1_555
O1Y Cu1 1_555 1_555
O1NA Cu1Q 1_555 1_555
O1DA C1DA 1_555 1_555
O1JA C1DA 1_555 1_555
O1IA C1IA 1_555 1_555
O1RA C1IA 1_555 1_555
O1Z Cu1 1_555 1_555
O1QA Cu1Q 1_555 1_555
O1EA C1EA 1_555 1_555
O1LA C1EA 1_555 1_555
O1GA C1GA 1_555 1_555
O1SA C1GA 1_555 1_555
O1G Cu1D 1_555 1_555
O1CA Cu1D 1_555 1_555
O1DA_2 Cu1D 1_555 1_555
O1N Cu1M 1_555 1_555
O1JA_2 Cu1M 1_555 1_555
O1MA Cu1M 1_555 1_555
O1K Cu1H 1_555 1_555
O1GA_2 Cu1H 1_555 1_555
O1HA Cu1H 1_555 1_555
O1T Cu1T 1_555 1_555
O1TA Cu1T 1_555 1_555
O1SA_2 Cu1T 1_555 1_555
O2Q Cu1Q 1_555 1_555
O2D Cu1D 1_555 1_555
O2M Cu1M 1_555 1_555
O2H Cu1H 1_555 1_555
O2T Cu1T 1_555 1_555
C1D C2D 1_555 1_555
C1H C2H 1_555 1_555
C1C O1C 1_555 1_555
C1E C2E 1_555 1_555
C1J C2J 1_555 1_555
C1Y O1Y 1_555 1_555
C1DA C2DA 1_555 1_555
C1IA C2IA 1_555 1_555
C1Z O1Z 1_555 1_555
C1EA C2EA 1_555 1_555
C1GA C2GA 1_555 1_555
C2D C3D 1_555 1_555
C2H C3H 1_555 1_555
C2C C1C 1_555 1_555
C2E C3E 1_555 1_555
C2J C3J 1_555 1_555
C2Y C1Y 1_555 1_555
C2DA C3DA 1_555 1_555
C2IA C3IA 1_555 1_555
C2Z C1Z 1_555 1_555
C2EA C3EA 1_555 1_555
C2GA C3GA 1_555 1_555
C3R C2 1_555 1_555
C3D H1D 1_555 1_555
C3M C2D 1_555 1_555
C3H H1H 1_555 1_555
C3W C2H 1_555 1_555
C3C C2C 1_555 1_555
C3Q C2C 1_555 1_555
C3E H1E 1_555 1_555
C3O C2E 1_555 1_555
C3J H1J 1_555 1_555
C3V C2J 1_555 1_555
C3Y C2Y 1_555 1_555
C3NA C2Y 1_555 1_555
C3DA H1DA 1_555 1_555
C3JA C2DA 1_555 1_555
C3IA H1IA 1_555 1_555
C3RA C2IA 1_555 1_555
C3Z C2Z 1_555 1_555
C3QA C2Z 1_555 1_555
C3EA H1EA 1_555 1_555
C3LA C2EA 1_555 1_555
C3GA H1GA 1_555 1_555
C3SA C2GA 1_555 1_555
H1R C3R 1_555 1_555
H1M C3M 1_555 1_555
H1W C3W 1_555 1_555
H1C C3C 1_555 1_555
H1Q C3Q 1_555 1_555
H1O C3O 1_555 1_555
H1V C3V 1_555 1_555
H1Y C3Y 1_555 1_555
H1NA C3NA 1_555 1_555
H1JA C3JA 1_555 1_555
H1RA C3RA 1_555 1_555
H1Z C3Z 1_555 1_555
H1QA C3QA 1_555 1_555
H1LA C3LA 1_555 1_555
H1SA C3SA 1_555 1_555
C4R C5 1_555 1_555
C4D C3D 1_555 1_555
C4M C3M 1_555 1_555
C4H C3H 1_555 1_555
C4W C3W 1_555 1_555
C4C C3C 1_555 1_555
C4Q C3Q 1_555 1_555
C4E C3E 1_555 1_555
C4O C3O 1_555 1_555
C4J C3J 1_555 1_555
C4V C3V 1_555 1_555
C4Y C3Y 1_555 1_555
C4NA C3NA 1_555 1_555
C4DA C3DA 1_555 1_555
C4JA C3JA 1_555 1_555
C4IA C3IA 1_555 1_555
C4RA C3RA 1_555 1_555
C4Z C3Z 1_555 1_555
C4QA C3QA 1_555 1_555
C4EA C3EA 1_555 1_555
C4LA C3LA 1_555 1_555
C4GA C3GA 1_555 1_555
C4SA C3SA 1_555 1_555
H2R C4R 1_555 1_555
H2M C4M 1_555 1_555
H2D C4D 1_555 1_555
H2W C4W 1_555 1_555
H2H C4H 1_555 1_555
H2C C4C 1_555 1_555
H2Q C4Q 1_555 1_555
H2O C4O 1_555 1_555
H2E C4E 1_555 1_555
H2V C4V 1_555 1_555
H2J C4J 1_555 1_555
H2Y C4Y 1_555 1_555
H2NA C4NA 1_555 1_555
H2JA C4JA 1_555 1_555
H2DA C4DA 1_555 1_555
H2RA C4RA 1_555 1_555
H2IA C4IA 1_555 1_555
H2Z C4Z 1_555 1_555
H2QA C4QA 1_555 1_555
H2LA C4LA 1_555 1_555
H2EA C4EA 1_555 1_555
H2SA C4SA 1_555 1_555
H2GA C4GA 1_555 1_555
C5D N1 1_555 1_555
C5H N1 1_555 1_555
C5C C4C 1_555 1_555
C5E N1C 1_555 1_555
C5J N1C 1_555 1_555
C5Y C4Y 1_555 1_555
C5DA N1Y 1_555 1_555
C5IA N1Y 1_555 1_555
C5Z C4Z 1_555 1_555
C5EA N1Z 1_555 1_555
C5GA N1Z 1_555 1_555
O1Q C1C 1_555 1_555
O1NA C1Y 1_555 1_555
O1QA C1Z 1_555 1_555
C3R C4R 1_555 1_555
C4D C5D 1_555 1_555
C4M C5D 1_555 1_555
C4H C5H 1_555 1_555
C4W C5H 1_555 1_555
C4Q C5C 1_555 1_555
C4E C5E 1_555 1_555
C4O C5E 1_555 1_555
C4J C5J 1_555 1_555
C4V C5J 1_555 1_555
C4NA C5Y 1_555 1_555
C4DA C5DA 1_555 1_555
C4JA C5DA 1_555 1_555
C4IA C5IA 1_555 1_555
C4RA C5IA 1_555 1_555
C4QA C5Z 1_555 1_555
C4EA C5EA 1_555 1_555
C4LA C5EA 1_555 1_555
C4GA C5GA 1_555 1_555
C4SA C5GA 1_555 1_555

#END
