
#######################################################################
#
#                 Cambridge Crystallographic Data Centre
#                                CCDC 
#
#######################################################################
#
# If this CIF has been generated from an entry in the Cambridge 
# Structural Database, then it will include bibliographic, chemical, 
# crystal, experimental, refinement or atomic coordinate data resulting 
# from the CCDC's data processing and validation procedures.
#
#######################################################################

data_WUTBOC
_chemical_formula_moiety         '(C24 H36 Cu3 Eu2 N6 O27)n'
_symmetry_cell_setting           trigonal
_symmetry_space_group_name_H-M   'P -3 c 1'
_symmetry_Int_Tables_number      165
_space_group_name_Hall           '-P 3 2"c'
loop_
_symmetry_equiv_pos_site_id
_symmetry_equiv_pos_as_xyz
1 x,y,z
2 -y,x-y,z
3 -x+y,-x,z
4 y,x,1/2-z
5 -x+y,y,1/2+z
6 x,x-y,1/2+z
7 -x,-y,-z
8 y,-x+y,-z
9 x-y,x,-z
10 -y,-x,1/2+z
11 x-y,-y,1/2-z
12 -x,-x+y,1/2-z
_cell_length_a                   13.306(5)
_cell_length_b                   13.306(5)
_cell_length_c                   14.528(5)
_cell_angle_alpha                90
_cell_angle_beta                 90
_cell_angle_gamma                120
_cell_volume                     2227.57
loop_
_atom_site_label
_atom_site_type_symbol
_atom_site_fract_x
_atom_site_fract_y
_atom_site_fract_z
Eu1 Eu 0.6667 0.3333 0.16814(3)
Cu1 Cu 0.5000 0.5000 0.0000
O1 O 0.5481(4) 0.3608(4) 0.0579(3)
O2 O 0.4391(4) 0.1945(4) 0.1269(3)
O3 O 0.5978(4) 0.5239(4) -0.1070(3)
O4 O 0.6177(4) 0.4372(4) -0.2278(3)
N1 N 0.3883(4) 0.3466(4) -0.0584(3)
H1 H 0.3246 0.3493 -0.0780
C1 C 0.4532(5) 0.2694(5) 0.0699(4)
C2 C 0.3518(5) 0.2538(5) 0.0107(4)
H2 H 0.3179 0.1794 -0.0204
H3 H 0.2927 0.2536 0.0499
C3 C 0.4471(6) 0.3318(6) -0.1393(4)
H4 H 0.3972 0.3138 -0.1927
H5 H 0.4591 0.2666 -0.1285
C4 C 0.5618(5) 0.4376(5) -0.1594(4)
O1A O 0.6392(4) 0.1873(6) 0.0579(3)
O2A O 0.8055(4) 0.2446(6) 0.1269(3)
O3A O 0.4761(4) 0.0739(6) -0.1070(3)
O4A O 0.5628(4) 0.1805(6) -0.2278(3)
N1A N 0.6534(4) 0.0417(6) -0.0584(3)
H1A H 0.6507 -0.0247 -0.0780
C1A C 0.7306(5) 0.1838(7) 0.0699(4)
C2A C 0.7462(5) 0.0980(7) 0.0107(4)
H2A H 0.8206 0.1385 -0.0204
H3A H 0.7464 0.0391 0.0499
C3A C 0.6682(6) 0.1153(8) -0.1393(4)
H4A H 0.6862 0.0834 -0.1927
H5A H 0.7334 0.1925 -0.1285
C4A C 0.5624(5) 0.1242(7) -0.1594(4)
O1B O 0.8127(6) 0.4519(4) 0.0579(3)
O2B O 0.7554(6) 0.5609(4) 0.1269(3)
O3B O 0.9261(6) 0.4022(4) -0.1070(3)
O4B O 0.8195(6) 0.3823(4) -0.2278(3)
N1B N 0.9583(6) 0.6117(4) -0.0584(3)
H1B H 1.0247 0.6754 -0.0780
C1B C 0.8162(7) 0.5468(5) 0.0699(4)
C2B C 0.9020(7) 0.6482(5) 0.0107(4)
H2B H 0.8615 0.6821 -0.0204
H3B H 0.9609 0.7073 0.0499
C3B C 0.8847(8) 0.5529(6) -0.1393(4)
H4B H 0.9166 0.6028 -0.1927
H5B H 0.8075 0.5409 -0.1285
C4B C 0.8758(7) 0.4382(5) -0.1594(4)
O1D O 0.8127(6) 0.3608(4) 0.5579(3)
O2D O 0.7554(6) 0.1945(4) 0.6269(3)
O3D O 0.9261(6) 0.5239(4) 0.3930(3)
O4D O 0.8195(6) 0.4372(4) 0.2722(3)
N1D N 0.9583(6) 0.3466(4) 0.4416(3)
H1D H 1.0247 0.3493 0.4220
C1D C 0.8162(7) 0.2694(5) 0.5699(4)
C2D C 0.9020(7) 0.2538(5) 0.5107(4)
H2D H 0.8615 0.1794 0.4796
H3D H 0.9609 0.2536 0.5499
C3D C 0.8847(8) 0.3318(6) 0.3607(4)
H4D H 0.9166 0.3138 0.3073
H5D H 0.8075 0.2666 0.3715
C4D C 0.8758(7) 0.4376(5) 0.3406(4)
O1E O 0.5481(4) 0.1873(6) 0.5579(3)
O2E O 0.4391(4) 0.2446(6) 0.6269(3)
O3E O 0.5978(4) 0.0739(6) 0.3930(3)
O4E O 0.6177(4) 0.1805(6) 0.2722(3)
N1E N 0.3883(4) 0.0417(6) 0.4416(3)
H1E H 0.3246 -0.0247 0.4220
C1E C 0.4532(5) 0.1838(7) 0.5699(4)
C2E C 0.3518(5) 0.0980(7) 0.5107(4)
H2E H 0.3179 0.1385 0.4796
H3E H 0.2927 0.0391 0.5499
C3E C 0.4471(6) 0.1153(8) 0.3607(4)
H4E H 0.3972 0.0834 0.3073
H5E H 0.4591 0.1925 0.3715
C4E C 0.5618(5) 0.1242(7) 0.3406(4)
O1I O 0.6392(4) 0.4519(4) 0.5579(3)
O2I O 0.8055(4) 0.5609(4) 0.6269(3)
O3I O 0.4761(4) 0.4022(4) 0.3930(3)
O4I O 0.5628(4) 0.3823(4) 0.2722(3)
N1I N 0.6534(4) 0.6117(4) 0.4416(3)
H1I H 0.6507 0.6754 0.4220
C1I C 0.7306(5) 0.5468(5) 0.5699(4)
C2I C 0.7462(5) 0.6482(5) 0.5107(4)
H2I H 0.8206 0.6821 0.4796
H3I H 0.7464 0.7073 0.5499
C3I C 0.6682(6) 0.5529(6) 0.3607(4)
H4I H 0.6862 0.6028 0.3073
H5I H 0.7334 0.5409 0.3715
C4I C 0.5624(5) 0.4382(5) 0.3406(4)
Eu1D Eu 0.6666 0.3333 0.66814(3)
Cu1A Cu 0.5000 0.0000 0.0000
Cu1B Cu 1.0000 0.5000 0.0000
O1F O 0.4519(4) 0.6392(4) -0.0579(3)
O3F O 0.4022(4) 0.4761(4) 0.1070(3)
N1F N 0.6117(4) 0.6534(4) 0.0584(3)
Eu1D_2 Eu 0.6666 0.3333 -0.33186(3)
Cu1D Cu 1.0000 0.5000 0.5000
Cu1E Cu 0.5000 0.0000 0.5000
Cu1C Cu 0.5000 0.5000 0.5000
O4_2 O 0.6177(4) 0.4372(4) 0.7722(3)
O4A_2 O 0.5628(4) 0.1805(6) 0.7722(3)
O4B_2 O 0.8195(6) 0.3823(4) 0.7722(3)
O1G O 0.3608(4) -0.1873(6) -0.0579(3)
O3G O 0.5239(4) -0.0739(6) 0.1070(3)
N1G N 0.3466(4) -0.0417(6) 0.0584(3)
O1H O 1.1873(6) 0.5481(4) -0.0579(3)
O3H O 1.0739(6) 0.5978(4) 0.1070(3)
N1H N 1.0417(6) 0.3883(4) 0.0584(3)
H1F H 0.6754 0.6507 0.0780
H1G H 0.3493 0.0247 0.0780
H1H H 0.9753 0.3246 0.0780
O5 O 0.0000 0.0000 0.0000
O6 O -0.0000 0.7293(10) 0.2500
O7 O 0.007(4) 0.155(4) 0.325(3)
loop_
_geom_bond_atom_site_label_1
_geom_bond_atom_site_label_2
_geom_bond_site_symmetry_1
_geom_bond_site_symmetry_2
Eu1 O1 1_555 1_555
Cu1 O1 1_555 1_555
O1 C1 1_555 1_555
O2 Eu1 1_555 1_555
O3 Cu1 1_555 1_555
O4 C4 1_555 1_555
N1 Cu1 1_555 1_555
H1 N1 1_555 1_555
C1 O2 1_555 1_555
C2 N1 1_555 1_555
H2 C2 1_555 1_555
H3 C2 1_555 1_555
C3 N1 1_555 1_555
H4 C3 1_555 1_555
H5 C3 1_555 1_555
C4 O3 1_555 1_555
O1A Eu1 1_555 1_555
O2A Eu1 1_555 1_555
O3A C4A 1_555 1_555
O4A C4A 1_555 1_555
N1A H1A 1_555 1_555
C1A O1A 1_555 1_555
C2A N1A 1_555 1_555
H2A C2A 1_555 1_555
H3A C2A 1_555 1_555
C3A N1A 1_555 1_555
H4A C3A 1_555 1_555
H5A C3A 1_555 1_555
C4A C3A 1_555 1_555
O1B Eu1 1_555 1_555
O2B Eu1 1_555 1_555
O3B C4B 1_555 1_555
O4B C4B 1_555 1_555
N1B H1B 1_555 1_555
C1B O1B 1_555 1_555
C2B N1B 1_555 1_555
H2B C2B 1_555 1_555
H3B C2B 1_555 1_555
C3B N1B 1_555 1_555
H4B C3B 1_555 1_555
H5B C3B 1_555 1_555
C4B C3B 1_555 1_555
O1D C1D 1_555 1_555
O2D C1D 1_555 1_555
O3D C4D 1_555 1_555
O4D Eu1 1_555 1_555
N1D H1D 1_555 1_555
C1D C2D 1_555 1_555
C2D N1D 1_555 1_555
H2D C2D 1_555 1_555
H3D C2D 1_555 1_555
C3D N1D 1_555 1_555
H4D C3D 1_555 1_555
H5D C3D 1_555 1_555
C4D O4D 1_555 1_555
O1E C1E 1_555 1_555
O2E C1E 1_555 1_555
O3E C4E 1_555 1_555
O4E Eu1 1_555 1_555
N1E H1E 1_555 1_555
C1E C2E 1_555 1_555
C2E N1E 1_555 1_555
H2E C2E 1_555 1_555
H3E C2E 1_555 1_555
C3E N1E 1_555 1_555
H4E C3E 1_555 1_555
H5E C3E 1_555 1_555
C4E O4E 1_555 1_555
O1I C1I 1_555 1_555
O2I C1I 1_555 1_555
O3I C4I 1_555 1_555
O4I Eu1 1_555 1_555
N1I H1I 1_555 1_555
C1I C2I 1_555 1_555
C2I N1I 1_555 1_555
H2I C2I 1_555 1_555
H3I C2I 1_555 1_555
C3I N1I 1_555 1_555
H4I C3I 1_555 1_555
H5I C3I 1_555 1_555
C4I O4I 1_555 1_555
Eu1D O1D 1_555 1_555
Cu1A O1A 1_555 1_555
Cu1B O1B 1_555 1_555
O1F Cu1 1_555 1_555
O3F Cu1 1_555 1_555
N1F Cu1 1_555 1_555
Eu1D_2 O4 1_555 1_555
Cu1D O1D 1_555 1_555
Cu1E O1E 1_555 1_555
Cu1C O1I 1_555 1_555
O4_2 Eu1D 1_555 1_555
O4A_2 Eu1D 1_555 1_555
O4B_2 Eu1D 1_555 1_555
O1G Cu1A 1_555 1_555
O3G Cu1A 1_555 1_555
N1G Cu1A 1_555 1_555
O1H Cu1B 1_555 1_555
O3H Cu1B 1_555 1_555
N1H Cu1B 1_555 1_555
H1F N1F 1_555 1_555
H1G N1G 1_555 1_555
H1H N1H 1_555 1_555
C1 C2 1_555 1_555
C3 C4 1_555 1_555
O2A C1A 1_555 1_555
O3A Cu1A 1_555 1_555
O4A Eu1D_2 1_555 1_555
N1A Cu1A 1_555 1_555
C1A C2A 1_555 1_555
O2B C1B 1_555 1_555
O3B Cu1B 1_555 1_555
O4B Eu1D_2 1_555 1_555
N1B Cu1B 1_555 1_555
C1B C2B 1_555 1_555
O2D Eu1D 1_555 1_555
O3D Cu1D 1_555 1_555
N1D Cu1D 1_555 1_555
C3D C4D 1_555 1_555
O1E Eu1D 1_555 1_555
O2E Eu1D 1_555 1_555
O3E Cu1E 1_555 1_555
N1E Cu1E 1_555 1_555
C3E C4E 1_555 1_555
O1I Eu1D 1_555 1_555
O2I Eu1D 1_555 1_555
O3I Cu1C 1_555 1_555
N1I Cu1C 1_555 1_555
C3I C4I 1_555 1_555

#END
