
#######################################################################
#
#                 Cambridge Crystallographic Data Centre
#                                CCDC 
#
#######################################################################
#
# If this CIF has been generated from an entry in the Cambridge 
# Structural Database, then it will include bibliographic, chemical, 
# crystal, experimental, refinement or atomic coordinate data resulting 
# from the CCDC's data processing and validation procedures.
#
#######################################################################

data_WUTBIW
_chemical_formula_moiety         '(C24 H36 Cu3 N6 Nd2 O27)n'
_symmetry_cell_setting           trigonal
_symmetry_space_group_name_H-M   'P -3 c 1'
_symmetry_Int_Tables_number      165
_space_group_name_Hall           '-P 3 2"c'
loop_
_symmetry_equiv_pos_site_id
_symmetry_equiv_pos_as_xyz
1 x,y,z
2 -y,x-y,z
3 -x+y,-x,z
4 y,x,1/2-z
5 -x+y,y,1/2+z
6 x,x-y,1/2+z
7 -x,-y,-z
8 y,-x+y,-z
9 x-y,x,-z
10 -y,-x,1/2+z
11 x-y,-y,1/2-z
12 -x,-x+y,1/2-z
_cell_length_a                   13.4027(19)
_cell_length_b                   13.4027(19)
_cell_length_c                   14.669(3)
_cell_angle_alpha                90
_cell_angle_beta                 90
_cell_angle_gamma                120
_cell_volume                     2282
loop_
_atom_site_label
_atom_site_type_symbol
_atom_site_fract_x
_atom_site_fract_y
_atom_site_fract_z
Nd1 Nd 0.6667 0.3333 0.168890(16)
Cu1 Cu 1.0000 0.5000 0.0000
O1 O 0.75766(18) 0.19668(19) 0.12408(16)
O2 O 0.8152(2) 0.3630(2) 0.05691(16)
C1 C 0.8182(3) 0.2713(3) 0.0678(2)
C2 C 0.9018(3) 0.2539(3) 0.0096(2)
H1 H 0.9596 0.2521 0.0481
H2 H 0.8605 0.1805 -0.0217
N1 N 0.9589(2) 0.3483(2) -0.05801(18)
H3 H 1.0248 0.3511 -0.0773
C3 C 0.8858(3) 0.3328(3) -0.1376(2)
H4 H 0.8092 0.2681 -0.1268
H5 H 0.9174 0.3147 -0.1902
C4 C 0.8774(2) 0.4379(3) -0.15720(19)
O3 O 0.9259(2) 0.5239(2) -0.10552(16)
O4 O 0.8217(2) 0.4367(2) -0.22561(17)
O1A O 0.80332(19) 0.56098(26) 0.12408(16)
O2A O 0.6370(2) 0.4522(3) 0.05691(16)
C1A C 0.7287(3) 0.5469(4) 0.0678(2)
C2A C 0.7461(3) 0.6479(4) 0.0096(2)
H1A H 0.7479 0.7075 0.0481
H2A H 0.8195 0.6800 -0.0217
N1A N 0.6517(2) 0.6106(3) -0.05801(18)
H3A H 0.6489 0.6737 -0.0773
C3A C 0.6672(3) 0.5530(4) -0.1376(2)
H4A H 0.7319 0.5411 -0.1268
H5A H 0.6853 0.6027 -0.1902
C4A C 0.5621(3) 0.4395(4) -0.15720(19)
O3A O 0.4761(2) 0.4020(3) -0.10552(16)
O4A O 0.5633(2) 0.3850(3) -0.22561(17)
O1B O 0.43902(26) 0.24234(18) 0.12408(16)
O2B O 0.5478(3) 0.1848(2) 0.05691(16)
C1B C 0.4531(4) 0.1818(3) 0.0678(2)
C2B C 0.3521(4) 0.0982(3) 0.0096(2)
H1B H 0.2925 0.0404 0.0481
H2B H 0.3200 0.1395 -0.0217
N1B N 0.3894(3) 0.0411(2) -0.05801(18)
H3B H 0.3263 -0.0248 -0.0773
C3B C 0.4470(4) 0.1142(3) -0.1376(2)
H4B H 0.4589 0.1908 -0.1268
H5B H 0.3973 0.0826 -0.1902
C4B C 0.5605(4) 0.1226(2) -0.15720(19)
O3B O 0.5980(3) 0.0741(2) -0.10552(16)
O4B O 0.6150(3) 0.1783(2) -0.22561(17)
O1D O 0.43902(26) 0.19668(19) 0.62408(16)
O2D O 0.5478(3) 0.3630(2) 0.55691(16)
C1D C 0.4531(4) 0.2713(3) 0.5678(2)
C2D C 0.3521(4) 0.2539(3) 0.5096(2)
H1D H 0.2925 0.2521 0.5481
H2D H 0.3200 0.1805 0.4783
N1D N 0.3894(3) 0.3483(2) 0.44199(18)
H3D H 0.3263 0.3511 0.4227
C3D C 0.4470(4) 0.3328(3) 0.3624(2)
H4D H 0.4589 0.2681 0.3732
H5D H 0.3973 0.3147 0.3098
C4D C 0.5605(4) 0.4379(3) 0.34280(19)
O3D O 0.5980(3) 0.5239(2) 0.39448(16)
O4D O 0.6150(3) 0.4367(2) 0.27439(17)
O1E O 0.75766(18) 0.56098(26) 0.62408(16)
O2E O 0.8152(2) 0.4522(3) 0.55691(16)
C1E C 0.8182(3) 0.5469(4) 0.5678(2)
C2E C 0.9018(3) 0.6479(4) 0.5096(2)
H1E H 0.9596 0.7075 0.5481
H2E H 0.8605 0.6800 0.4783
N1E N 0.9589(2) 0.6106(3) 0.44199(18)
H3E H 1.0248 0.6737 0.4227
C3E C 0.8858(3) 0.5530(4) 0.3624(2)
H4E H 0.8092 0.5411 0.3732
H5E H 0.9174 0.6027 0.3098
C4E C 0.8774(2) 0.4395(4) 0.34280(19)
O3E O 0.9259(2) 0.4020(3) 0.39448(16)
O4E O 0.8217(2) 0.3850(3) 0.27439(17)
O1I O 0.80332(19) 0.24234(18) 0.62408(16)
O2I O 0.6370(2) 0.1848(2) 0.55691(16)
C1I C 0.7287(3) 0.1818(3) 0.5678(2)
C2I C 0.7461(3) 0.0982(3) 0.5096(2)
H1I H 0.7479 0.0404 0.5481
H2I H 0.8195 0.1395 0.4783
N1I N 0.6517(2) 0.0411(2) 0.44199(18)
H3I H 0.6489 -0.0248 0.4227
C3I C 0.6672(3) 0.1142(3) 0.3624(2)
H4I H 0.7319 0.1908 0.3732
H5I H 0.6853 0.0826 0.3098
C4I C 0.5621(3) 0.1226(2) 0.34280(19)
O3I O 0.4761(2) 0.0741(2) 0.39448(16)
O4I O 0.5633(2) 0.1783(2) 0.27439(17)
Nd1D Nd 0.6666 0.3333 0.668890(16)
Cu1A Cu 0.5000 0.5000 0.0000
Cu1B Cu 0.5000 0.0000 0.0000
O2F O 1.1848(2) 0.6370(2) -0.05691(16)
N1F N 1.0411(2) 0.6517(2) 0.05801(18)
O3F O 1.0741(2) 0.4761(2) 0.10552(16)
Nd1D_2 Nd 0.6666 0.3333 -0.331110(16)
Cu1D Cu 0.5000 0.5000 0.5000
Cu1E Cu 1.0000 0.5000 0.5000
Cu1C Cu 0.5000 -0.0000 0.5000
O4_2 O 0.8217(2) 0.4367(2) 0.77439(17)
O4A_2 O 0.5633(2) 0.3850(3) 0.77439(17)
O4B_2 O 0.6150(3) 0.1783(2) 0.77439(17)
O2G O 0.3630(2) 0.5478(3) -0.05691(16)
N1G N 0.3483(2) 0.3894(3) 0.05801(18)
O3G O 0.5239(2) 0.5980(3) 0.10552(16)
O2H O 0.4522(3) -0.1848(2) -0.05691(16)
N1H N 0.6106(3) -0.0411(2) 0.05801(18)
O3H O 0.4020(3) -0.0741(2) 0.10552(16)
H3F H 0.9752 0.6489 0.0773
H3G H 0.3511 0.3263 0.0773
H3H H 0.6737 0.0248 0.0773
O5 O -0.0000 0.2790(7) 0.2500
O6 O 0.1569(10) 0.1777(12) 0.3308(8)
O7 O -0.0000 -0.0000 0.0867(15)
loop_
_geom_bond_atom_site_label_1
_geom_bond_atom_site_label_2
_geom_bond_site_symmetry_1
_geom_bond_site_symmetry_2
Nd1 O1 1_555 1_555
Cu1 O2 1_555 1_555
O1 C1 1_555 1_555
O2 Nd1 1_555 1_555
C1 O2 1_555 1_555
C2 C1 1_555 1_555
H1 C2 1_555 1_555
H2 C2 1_555 1_555
N1 Cu1 1_555 1_555
H3 N1 1_555 1_555
C3 N1 1_555 1_555
H4 C3 1_555 1_555
H5 C3 1_555 1_555
C4 C3 1_555 1_555
O3 Cu1 1_555 1_555
O4 C4 1_555 1_555
O1A Nd1 1_555 1_555
O2A Nd1 1_555 1_555
C1A O1A 1_555 1_555
C2A C1A 1_555 1_555
H1A C2A 1_555 1_555
H2A C2A 1_555 1_555
N1A C2A 1_555 1_555
H3A N1A 1_555 1_555
C3A N1A 1_555 1_555
H4A C3A 1_555 1_555
H5A C3A 1_555 1_555
C4A C3A 1_555 1_555
O3A C4A 1_555 1_555
O4A C4A 1_555 1_555
O1B Nd1 1_555 1_555
O2B Nd1 1_555 1_555
C1B O1B 1_555 1_555
C2B C1B 1_555 1_555
H1B C2B 1_555 1_555
H2B C2B 1_555 1_555
N1B C2B 1_555 1_555
H3B N1B 1_555 1_555
C3B N1B 1_555 1_555
H4B C3B 1_555 1_555
H5B C3B 1_555 1_555
C4B C3B 1_555 1_555
O3B C4B 1_555 1_555
O4B C4B 1_555 1_555
O1D C1D 1_555 1_555
O2D C1D 1_555 1_555
C1D C2D 1_555 1_555
C2D H1D 1_555 1_555
H2D C2D 1_555 1_555
N1D C2D 1_555 1_555
H3D N1D 1_555 1_555
C3D N1D 1_555 1_555
H4D C3D 1_555 1_555
H5D C3D 1_555 1_555
C4D C3D 1_555 1_555
O3D C4D 1_555 1_555
O4D Nd1 1_555 1_555
O1E C1E 1_555 1_555
O2E C1E 1_555 1_555
C1E C2E 1_555 1_555
C2E H1E 1_555 1_555
H2E C2E 1_555 1_555
N1E C2E 1_555 1_555
H3E N1E 1_555 1_555
C3E N1E 1_555 1_555
H4E C3E 1_555 1_555
H5E C3E 1_555 1_555
C4E C3E 1_555 1_555
O3E C4E 1_555 1_555
O4E Nd1 1_555 1_555
O1I C1I 1_555 1_555
O2I C1I 1_555 1_555
C1I C2I 1_555 1_555
C2I H1I 1_555 1_555
H2I C2I 1_555 1_555
N1I C2I 1_555 1_555
H3I N1I 1_555 1_555
C3I N1I 1_555 1_555
H4I C3I 1_555 1_555
H5I C3I 1_555 1_555
C4I C3I 1_555 1_555
O3I C4I 1_555 1_555
O4I Nd1 1_555 1_555
Nd1D O1D 1_555 1_555
Cu1A O2A 1_555 1_555
Cu1B O2B 1_555 1_555
O2F Cu1 1_555 1_555
N1F Cu1 1_555 1_555
O3F Cu1 1_555 1_555
Nd1D_2 O4 1_555 1_555
Cu1D O2D 1_555 1_555
Cu1E O2E 1_555 1_555
Cu1C O2I 1_555 1_555
O4_2 Nd1D 1_555 1_555
O4A_2 Nd1D 1_555 1_555
O4B_2 Nd1D 1_555 1_555
O2G Cu1A 1_555 1_555
N1G Cu1A 1_555 1_555
O3G Cu1A 1_555 1_555
O2H Cu1B 1_555 1_555
N1H Cu1B 1_555 1_555
O3H Cu1B 1_555 1_555
H3F N1F 1_555 1_555
H3G N1G 1_555 1_555
H3H N1H 1_555 1_555
C2 N1 1_555 1_555
C4 O3 1_555 1_555
O2A C1A 1_555 1_555
N1A Cu1A 1_555 1_555
O3A Cu1A 1_555 1_555
O4A Nd1D_2 1_555 1_555
O2B C1B 1_555 1_555
N1B Cu1B 1_555 1_555
O3B Cu1B 1_555 1_555
O4B Nd1D_2 1_555 1_555
O2D Nd1D 1_555 1_555
N1D Cu1D 1_555 1_555
C4D O4D 1_555 1_555
O3D Cu1D 1_555 1_555
O1E Nd1D 1_555 1_555
O2E Nd1D 1_555 1_555
N1E Cu1E 1_555 1_555
C4E O4E 1_555 1_555
O3E Cu1E 1_555 1_555
O1I Nd1D 1_555 1_555
O2I Nd1D 1_555 1_555
N1I Cu1C 1_555 1_555
C4I O4I 1_555 1_555
O3I Cu1C 1_555 1_555

#END
