
#######################################################################
#
#                 Cambridge Crystallographic Data Centre
#                                CCDC 
#
#######################################################################
#
# If this CIF has been generated from an entry in the Cambridge 
# Structural Database, then it will include bibliographic, chemical, 
# crystal, experimental, refinement or atomic coordinate data resulting 
# from the CCDC's data processing and validation procedures.
#
#######################################################################

data_WUTBUI
_chemical_formula_moiety         '(C24 H34 Cu3 La2 N6 O26)n'
_symmetry_cell_setting           trigonal
_symmetry_space_group_name_H-M   'P -3 c 1'
_symmetry_Int_Tables_number      165
_space_group_name_Hall           '-P 3 2"c'
loop_
_symmetry_equiv_pos_site_id
_symmetry_equiv_pos_as_xyz
1 x,y,z
2 -y,x-y,z
3 -x+y,-x,z
4 y,x,1/2-z
5 -x+y,y,1/2+z
6 x,x-y,1/2+z
7 -x,-y,-z
8 y,-x+y,-z
9 x-y,x,-z
10 -y,-x,1/2+z
11 x-y,-y,1/2-z
12 -x,-x+y,1/2-z
_cell_length_a                   13.559(3)
_cell_length_b                   13.559(3)
_cell_length_c                   14.999(7)
_cell_angle_alpha                90
_cell_angle_beta                 90
_cell_angle_gamma                120
_cell_volume                     2388.08
loop_
_atom_site_label
_atom_site_type_symbol
_atom_site_fract_x
_atom_site_fract_y
_atom_site_fract_z
La1 La 0.6667 0.3333 0.16952(4)
Cu1 Cu 0.5000 0.0000 0.0000
O1 O 0.5466(5) 0.1829(6) 0.0568(4)
N1 N 0.3889(6) 0.0398(6) -0.0578(5)
H1 H 0.3268 -0.0257 -0.0764
O2 O 0.4378(6) 0.2390(6) 0.1232(4)
C1 C 0.4469(9) 0.1103(9) -0.1369(6)
H2 H 0.4575 0.1858 -0.1279
H3 H 0.3981 0.0773 -0.1885
C2 C 0.5614(8) 0.1212(7) -0.1564(5)
O3 O 0.5980(6) 0.0746(6) -0.1045(4)
O4 O 0.6117(7) 0.1762(7) -0.2241(5)
C3 C 0.4510(7) 0.1792(7) 0.0680(6)
C4 C 0.3515(8) 0.0955(8) 0.0096(6)
H4 H 0.2927 0.0376 0.0470
H5 H 0.3190 0.1358 -0.0208
O1A O 0.8171(6) 0.3637(8) 0.0568(4)
N1A N 0.9602(6) 0.3491(8) -0.0578(5)
H1A H 1.0257 0.3525 -0.0764
O2A O 0.7610(6) 0.1988(8) 0.1232(4)
C1A C 0.8897(9) 0.3366(13) -0.1369(6)
H2A H 0.8142 0.2717 -0.1279
H3A H 0.9227 0.3208 -0.1885
C2A C 0.8788(7) 0.4402(11) -0.1564(5)
O3A O 0.9254(6) 0.5234(8) -0.1045(4)
O4A O 0.8238(7) 0.4355(10) -0.2241(5)
C3A C 0.8208(7) 0.2718(10) 0.0680(6)
C4A C 0.9045(8) 0.2560(11) 0.0096(6)
H4A H 0.9624 0.2551 0.0470
H5A H 0.8642 0.1832 -0.0208
O1B O 0.6363(8) 0.4534(5) 0.0568(4)
N1B N 0.6509(8) 0.6111(6) -0.0578(5)
H1B H 0.6475 0.6732 -0.0764
O2B O 0.8012(8) 0.5622(6) 0.1232(4)
C1B C 0.6634(13) 0.5531(9) -0.1369(6)
H2B H 0.7283 0.5425 -0.1279
H3B H 0.6792 0.6019 -0.1885
C2B C 0.5598(11) 0.4386(8) -0.1564(5)
O3B O 0.4766(8) 0.4020(6) -0.1045(4)
O4B O 0.5645(10) 0.3883(7) -0.2241(5)
C3B C 0.7282(10) 0.5490(7) 0.0680(6)
C4B C 0.7440(11) 0.6485(8) 0.0096(6)
H4B H 0.7449 0.7073 0.0470
H5B H 0.8168 0.6810 -0.0208
O1D O 0.6363(8) 0.1829(6) 0.5568(4)
N1D N 0.6509(8) 0.0398(6) 0.4422(5)
H1D H 0.6475 -0.0257 0.4236
O2D O 0.8012(8) 0.2390(6) 0.6232(4)
C1D C 0.6634(13) 0.1103(9) 0.3631(6)
H2D H 0.7283 0.1858 0.3721
H3D H 0.6792 0.0773 0.3115
C2D C 0.5598(11) 0.1212(7) 0.3436(5)
O3D O 0.4766(8) 0.0746(6) 0.3955(4)
O4D O 0.5645(10) 0.1762(7) 0.2759(5)
C3D C 0.7282(10) 0.1792(7) 0.5680(6)
C4D C 0.7440(11) 0.0955(8) 0.5096(6)
H4D H 0.7449 0.0376 0.5470
H5D H 0.8168 0.1358 0.4792
O1E O 0.5466(5) 0.3637(8) 0.5568(4)
N1E N 0.3889(6) 0.3491(8) 0.4422(5)
H1E H 0.3268 0.3525 0.4236
O2E O 0.4378(6) 0.1988(8) 0.6232(4)
C1E C 0.4469(9) 0.3366(13) 0.3631(6)
H2E H 0.4575 0.2717 0.3721
H3E H 0.3981 0.3208 0.3115
C2E C 0.5614(8) 0.4402(11) 0.3436(5)
O3E O 0.5980(6) 0.5234(8) 0.3955(4)
O4E O 0.6117(7) 0.4355(10) 0.2759(5)
C3E C 0.4510(7) 0.2718(10) 0.5680(6)
C4E C 0.3515(8) 0.2560(11) 0.5096(6)
H4E H 0.2927 0.2551 0.5470
H5E H 0.3190 0.1832 0.4792
O1I O 0.8171(6) 0.4534(5) 0.5568(4)
N1I N 0.9602(6) 0.6111(6) 0.4422(5)
H1I H 1.0257 0.6732 0.4236
O2I O 0.7610(6) 0.5622(6) 0.6232(4)
C1I C 0.8897(9) 0.5531(9) 0.3631(6)
H2I H 0.8142 0.5425 0.3721
H3I H 0.9227 0.6019 0.3115
C2I C 0.8788(7) 0.4386(8) 0.3436(5)
O3I O 0.9254(6) 0.4020(6) 0.3955(4)
O4I O 0.8238(7) 0.3883(7) 0.2759(5)
C3I C 0.8208(7) 0.5490(7) 0.5680(6)
C4I C 0.9045(8) 0.6485(8) 0.5096(6)
H4I H 0.9624 0.7073 0.5470
H5I H 0.8642 0.6810 0.4792
La1D La 0.6666 0.3333 0.66952(4)
Cu1A Cu 1.0000 0.5000 0.0000
Cu1B Cu 0.5000 0.5000 0.0000
O1F O 0.4534(5) -0.1829(6) -0.0568(4)
N1F N 0.6111(6) -0.0398(6) 0.0578(5)
O3F O 0.4020(6) -0.0746(6) 0.1045(4)
La1D_2 La 0.6666 0.3333 -0.33048(4)
Cu1D Cu 0.5000 0.0000 0.5000
Cu1E Cu 0.5000 0.5000 0.5000
Cu1C Cu 1.0000 0.5000 0.5000
O4_2 O 0.6117(7) 0.1762(7) 0.7759(5)
O4A_2 O 0.8238(7) 0.4355(10) 0.7759(5)
O4B_2 O 0.5645(10) 0.3883(7) 0.7759(5)
O1G O 1.1829(6) 0.6363(8) -0.0568(4)
N1G N 1.0398(6) 0.6509(8) 0.0578(5)
O3G O 1.0746(6) 0.4766(8) 0.1045(4)
O1H O 0.3637(8) 0.5466(5) -0.0568(4)
N1H N 0.3491(8) 0.3889(6) 0.0578(5)
O3H O 0.5234(8) 0.5980(6) 0.1045(4)
H1F H 0.6732 0.0257 0.0764
H1G H 0.9743 0.6475 0.0764
H1H H 0.3525 0.3268 0.0764
O5 O 0.729(3) -0.0000 -0.2500
O6 O 0.150(4) -0.016(9) -0.165(4)
loop_
_geom_bond_atom_site_label_1
_geom_bond_atom_site_label_2
_geom_bond_site_symmetry_1
_geom_bond_site_symmetry_2
La1 O1 1_555 1_555
Cu1 O1 1_555 1_555
O1 C3 1_555 1_555
N1 Cu1 1_555 1_555
H1 N1 1_555 1_555
O2 La1 1_555 1_555
C1 N1 1_555 1_555
H2 C1 1_555 1_555
H3 C1 1_555 1_555
C2 C1 1_555 1_555
O3 Cu1 1_555 1_555
O4 C2 1_555 1_555
C3 O2 1_555 1_555
C4 N1 1_555 1_555
H4 C4 1_555 1_555
H5 C4 1_555 1_555
O1A La1 1_555 1_555
N1A H1A 1_555 1_555
O2A La1 1_555 1_555
C1A N1A 1_555 1_555
H2A C1A 1_555 1_555
H3A C1A 1_555 1_555
C2A C1A 1_555 1_555
O3A C2A 1_555 1_555
O4A C2A 1_555 1_555
C3A O1A 1_555 1_555
C4A N1A 1_555 1_555
H4A C4A 1_555 1_555
H5A C4A 1_555 1_555
O1B La1 1_555 1_555
N1B H1B 1_555 1_555
O2B La1 1_555 1_555
C1B N1B 1_555 1_555
H2B C1B 1_555 1_555
H3B C1B 1_555 1_555
C2B C1B 1_555 1_555
O3B C2B 1_555 1_555
O4B C2B 1_555 1_555
C3B O1B 1_555 1_555
C4B N1B 1_555 1_555
H4B C4B 1_555 1_555
H5B C4B 1_555 1_555
O1D C3D 1_555 1_555
N1D H1D 1_555 1_555
O2D C3D 1_555 1_555
C1D N1D 1_555 1_555
H2D C1D 1_555 1_555
H3D C1D 1_555 1_555
C2D C1D 1_555 1_555
O3D C2D 1_555 1_555
O4D La1 1_555 1_555
C3D C4D 1_555 1_555
C4D N1D 1_555 1_555
H4D C4D 1_555 1_555
H5D C4D 1_555 1_555
O1E C3E 1_555 1_555
N1E H1E 1_555 1_555
O2E C3E 1_555 1_555
C1E N1E 1_555 1_555
H2E C1E 1_555 1_555
H3E C1E 1_555 1_555
C2E C1E 1_555 1_555
O3E C2E 1_555 1_555
O4E La1 1_555 1_555
C3E C4E 1_555 1_555
C4E N1E 1_555 1_555
H4E C4E 1_555 1_555
H5E C4E 1_555 1_555
O1I C3I 1_555 1_555
N1I H1I 1_555 1_555
O2I C3I 1_555 1_555
C1I N1I 1_555 1_555
H2I C1I 1_555 1_555
H3I C1I 1_555 1_555
C2I C1I 1_555 1_555
O3I C2I 1_555 1_555
O4I La1 1_555 1_555
C3I C4I 1_555 1_555
C4I N1I 1_555 1_555
H4I C4I 1_555 1_555
H5I C4I 1_555 1_555
La1D O1D 1_555 1_555
Cu1A O1A 1_555 1_555
Cu1B O1B 1_555 1_555
O1F Cu1 1_555 1_555
N1F Cu1 1_555 1_555
O3F Cu1 1_555 1_555
La1D_2 O4 1_555 1_555
Cu1D O1D 1_555 1_555
Cu1E O1E 1_555 1_555
Cu1C O1I 1_555 1_555
O4_2 La1D 1_555 1_555
O4A_2 La1D 1_555 1_555
O4B_2 La1D 1_555 1_555
O1G Cu1A 1_555 1_555
N1G Cu1A 1_555 1_555
O3G Cu1A 1_555 1_555
O1H Cu1B 1_555 1_555
N1H Cu1B 1_555 1_555
O3H Cu1B 1_555 1_555
H1F N1F 1_555 1_555
H1G N1G 1_555 1_555
H1H N1H 1_555 1_555
C2 O3 1_555 1_555
C3 C4 1_555 1_555
N1A Cu1A 1_555 1_555
O2A C3A 1_555 1_555
O3A Cu1A 1_555 1_555
O4A La1D_2 1_555 1_555
C3A C4A 1_555 1_555
N1B Cu1B 1_555 1_555
O2B C3B 1_555 1_555
O3B Cu1B 1_555 1_555
O4B La1D_2 1_555 1_555
C3B C4B 1_555 1_555
N1D Cu1D 1_555 1_555
O2D La1D 1_555 1_555
C2D O4D 1_555 1_555
O3D Cu1D 1_555 1_555
O1E La1D 1_555 1_555
N1E Cu1E 1_555 1_555
O2E La1D 1_555 1_555
C2E O4E 1_555 1_555
O3E Cu1E 1_555 1_555
O1I La1D 1_555 1_555
N1I Cu1C 1_555 1_555
O2I La1D 1_555 1_555
C2I O4I 1_555 1_555
O3I Cu1C 1_555 1_555

#END
