
#######################################################################
#
#                 Cambridge Crystallographic Data Centre
#                                CCDC 
#
#######################################################################
#
# If this CIF has been generated from an entry in the Cambridge 
# Structural Database, then it will include bibliographic, chemical, 
# crystal, experimental, refinement or atomic coordinate data resulting 
# from the CCDC's data processing and validation procedures.
#
#######################################################################

data_WUTBES
_chemical_formula_moiety         '(C24 H36 Cu3 La2 N6 O27)n'
_symmetry_cell_setting           trigonal
_symmetry_space_group_name_H-M   'P -3 c 1'
_symmetry_Int_Tables_number      165
_space_group_name_Hall           '-P 3 2"c'
loop_
_symmetry_equiv_pos_site_id
_symmetry_equiv_pos_as_xyz
1 x,y,z
2 -y,x-y,z
3 -x+y,-x,z
4 y,x,1/2-z
5 -x+y,y,1/2+z
6 x,x-y,1/2+z
7 -x,-y,-z
8 y,-x+y,-z
9 x-y,x,-z
10 -y,-x,1/2+z
11 x-y,-y,1/2-z
12 -x,-x+y,1/2-z
_cell_length_a                   13.4713(19)
_cell_length_b                   13.4713(19)
_cell_length_c                   14.922(3)
_cell_angle_alpha                90
_cell_angle_beta                 90
_cell_angle_gamma                120
_cell_volume                     2345.18
loop_
_atom_site_label
_atom_site_type_symbol
_atom_site_fract_x
_atom_site_fract_y
_atom_site_fract_z
La1 La 0.3333 -0.3333 -0.169564(18)
Cu1 Cu 0.5000 0.0000 0.0000
O1 O 0.5622(3) -0.2408(2) -0.12298(17)
O2 O 0.4540(2) -0.1827(2) -0.05682(18)
O3 O 0.4026(2) -0.0740(2) 0.10457(17)
O4 O 0.3866(3) -0.1758(3) 0.22439(18)
C1 C 0.5485(3) -0.1796(3) -0.0668(2)
C2 C 0.6482(3) -0.0965(3) -0.0087(2)
H1 H 0.6799 -0.1376 0.0224
H2 H 0.7078 -0.0388 -0.0464
C3 C 0.5542(3) -0.1118(4) 0.1367(2)
H3 H 0.6037 -0.0795 0.1885
H4 H 0.5427 -0.1880 0.1268
C4 C 0.4403(3) -0.1209(3) 0.1563(2)
N1 N 0.6115(3) -0.0399(2) 0.05753(19)
H5 H 0.6741 0.0260 0.0761
O1A O 0.2408(2) -0.1970(4) -0.12298(17)
O2A O 0.1827(2) -0.3633(3) -0.05682(18)
O3A O 0.0740(2) -0.5234(3) 0.10457(17)
O4A O 0.1758(3) -0.4376(4) 0.22439(18)
C1A C 0.1796(3) -0.2719(4) -0.0668(2)
C2A C 0.0965(3) -0.2553(4) -0.0087(2)
H1A H 0.1376 -0.1825 0.0224
H2A H 0.0388 -0.2534 -0.0464
C3A C 0.1118(4) -0.3340(5) 0.1367(2)
H3A H 0.0795 -0.3168 0.1885
H4A H 0.1880 -0.2693 0.1268
C4A C 0.1209(3) -0.4388(4) 0.1563(2)
N1A N 0.0399(2) -0.3486(4) 0.05753(19)
H5A H -0.0260 -0.3519 0.0761
O1B O 0.1970(4) -0.5622(3) -0.12298(17)
O2B O 0.3633(3) -0.4540(2) -0.05682(18)
O3B O 0.5234(3) -0.4026(2) 0.10457(17)
O4B O 0.4376(4) -0.3866(3) 0.22439(18)
C1B C 0.2719(4) -0.5485(3) -0.0668(2)
C2B C 0.2553(4) -0.6482(3) -0.0087(2)
H1B H 0.1825 -0.6799 0.0224
H2B H 0.2534 -0.7078 -0.0464
C3B C 0.3340(5) -0.5542(3) 0.1367(2)
H3B H 0.3168 -0.6037 0.1885
H4B H 0.2693 -0.5427 0.1268
C4B C 0.4388(4) -0.4403(3) 0.1563(2)
N1B N 0.3486(4) -0.6115(3) 0.05753(19)
H5B H 0.3519 -0.6741 0.0761
O1D O 0.1970(4) -0.2408(2) -0.62298(17)
O2D O 0.3633(3) -0.1827(2) -0.55682(18)
O3D O 0.5234(3) -0.0740(2) -0.39543(17)
O4D O 0.4376(4) -0.1758(3) -0.27561(18)
C1D C 0.2719(4) -0.1796(3) -0.5668(2)
C2D C 0.2553(4) -0.0965(3) -0.5087(2)
H1D H 0.1825 -0.1376 -0.4776
H2D H 0.2534 -0.0388 -0.5464
C3D C 0.3340(5) -0.1118(4) -0.3633(2)
H3D H 0.3168 -0.0795 -0.3115
H4D H 0.2693 -0.1880 -0.3732
C4D C 0.4388(4) -0.1209(3) -0.3437(2)
N1D N 0.3486(4) -0.0399(2) -0.44247(19)
H5D H 0.3519 0.0260 -0.4239
O1E O 0.5622(3) -0.1970(4) -0.62298(17)
O2E O 0.4540(2) -0.3633(3) -0.55682(18)
O3E O 0.4026(2) -0.5234(3) -0.39543(17)
O4E O 0.3866(3) -0.4376(4) -0.27561(18)
C1E C 0.5485(3) -0.2719(4) -0.5668(2)
C2E C 0.6482(3) -0.2553(4) -0.5087(2)
H1E H 0.6799 -0.1825 -0.4776
H2E H 0.7078 -0.2534 -0.5464
C3E C 0.5542(3) -0.3340(5) -0.3633(2)
H3E H 0.6037 -0.3168 -0.3115
H4E H 0.5427 -0.2693 -0.3732
C4E C 0.4403(3) -0.4388(4) -0.3437(2)
N1E N 0.6115(3) -0.3486(4) -0.44247(19)
H5E H 0.6741 -0.3519 -0.4239
O1I O 0.2408(2) -0.5622(3) -0.62298(17)
O2I O 0.1827(2) -0.4540(2) -0.55682(18)
O3I O 0.0740(2) -0.4026(2) -0.39543(17)
O4I O 0.1758(3) -0.3866(3) -0.27561(18)
C1I C 0.1796(3) -0.5485(3) -0.5668(2)
C2I C 0.0965(3) -0.6482(3) -0.5087(2)
H1I H 0.1376 -0.6799 -0.4776
H2I H 0.0388 -0.7078 -0.5464
C3I C 0.1118(4) -0.5542(3) -0.3633(2)
H3I H 0.0795 -0.6037 -0.3115
H4I H 0.1880 -0.5427 -0.3732
C4I C 0.1209(3) -0.4403(3) -0.3437(2)
N1I N 0.0399(2) -0.6115(3) -0.44247(19)
H5I H -0.0260 -0.6741 -0.4239
La1D La 0.3334 -0.3333 -0.669564(18)
Cu1A Cu 0.0000 -0.5000 0.0000
Cu1B Cu 0.5000 -0.5000 0.0000
O2F O 0.5460(2) 0.1827(2) 0.05682(18)
O3F O 0.5974(2) 0.0740(2) -0.10457(17)
N1F N 0.3885(3) 0.0399(2) -0.05753(19)
La1D_2 La 0.3334 -0.3333 0.330436(18)
Cu1D Cu 0.5000 -0.0000 -0.5000
Cu1E Cu 0.5000 -0.5000 -0.5000
Cu1C Cu -0.0000 -0.5000 -0.5000
O4_2 O 0.3866(3) -0.1758(3) -0.77561(18)
O4A_2 O 0.1758(3) -0.4376(4) -0.77561(18)
O4B_2 O 0.4376(4) -0.3866(3) -0.77561(18)
O2G O -0.1827(2) -0.6367(3) 0.05682(18)
O3G O -0.0740(2) -0.4766(3) -0.10457(17)
N1G N -0.0399(2) -0.6514(4) -0.05753(19)
O2H O 0.6367(3) -0.5460(2) 0.05682(18)
O3H O 0.4766(3) -0.5974(2) -0.10457(17)
N1H N 0.6514(4) -0.3885(3) -0.05753(19)
H5F H 0.3259 -0.0260 -0.0761
H5G H 0.0260 -0.6481 -0.0761
H5H H 0.6481 -0.3259 -0.0761
O5 O 0.2797(7) 1.0000 0.2500
O6 O 0.0315(19) 0.8450(12) 0.3256(11)
O7 O -0.0000 1.0000 0.408(2)
loop_
_geom_bond_atom_site_label_1
_geom_bond_atom_site_label_2
_geom_bond_site_symmetry_1
_geom_bond_site_symmetry_2
La1 O1 1_555 1_555
Cu1 O2 1_555 1_555
O1 C1 1_555 1_555
O2 La1 1_555 1_555
O3 Cu1 1_555 1_555
O4 C4 1_555 1_555
C1 O2 1_555 1_555
C2 C1 1_555 1_555
H1 C2 1_555 1_555
H2 C2 1_555 1_555
C3 H3 1_555 1_555
H4 C3 1_555 1_555
C4 O3 1_555 1_555
N1 Cu1 1_555 1_555
H5 N1 1_555 1_555
O1A La1 1_555 1_555
O2A La1 1_555 1_555
O3A C4A 1_555 1_555
O4A C4A 1_555 1_555
C1A O1A 1_555 1_555
C2A C1A 1_555 1_555
H1A C2A 1_555 1_555
H2A C2A 1_555 1_555
C3A H3A 1_555 1_555
H4A C3A 1_555 1_555
C4A C3A 1_555 1_555
N1A C2A 1_555 1_555
H5A N1A 1_555 1_555
O1B La1 1_555 1_555
O2B La1 1_555 1_555
O3B C4B 1_555 1_555
O4B C4B 1_555 1_555
C1B O1B 1_555 1_555
C2B C1B 1_555 1_555
H1B C2B 1_555 1_555
H2B C2B 1_555 1_555
C3B H3B 1_555 1_555
H4B C3B 1_555 1_555
C4B C3B 1_555 1_555
N1B C2B 1_555 1_555
H5B N1B 1_555 1_555
O1D C1D 1_555 1_555
O2D C1D 1_555 1_555
O3D C4D 1_555 1_555
O4D La1 1_555 1_555
C1D C2D 1_555 1_555
C2D H1D 1_555 1_555
H2D C2D 1_555 1_555
C3D H3D 1_555 1_555
H4D C3D 1_555 1_555
C4D O4D 1_555 1_555
N1D C2D 1_555 1_555
H5D N1D 1_555 1_555
O1E C1E 1_555 1_555
O2E C1E 1_555 1_555
O3E C4E 1_555 1_555
O4E La1 1_555 1_555
C1E C2E 1_555 1_555
C2E H1E 1_555 1_555
H2E C2E 1_555 1_555
C3E H3E 1_555 1_555
H4E C3E 1_555 1_555
C4E O4E 1_555 1_555
N1E C2E 1_555 1_555
H5E N1E 1_555 1_555
O1I C1I 1_555 1_555
O2I C1I 1_555 1_555
O3I C4I 1_555 1_555
O4I La1 1_555 1_555
C1I C2I 1_555 1_555
C2I H1I 1_555 1_555
H2I C2I 1_555 1_555
C3I H3I 1_555 1_555
H4I C3I 1_555 1_555
C4I O4I 1_555 1_555
N1I C2I 1_555 1_555
H5I N1I 1_555 1_555
La1D O1D 1_555 1_555
Cu1A O2A 1_555 1_555
Cu1B O2B 1_555 1_555
O2F Cu1 1_555 1_555
O3F Cu1 1_555 1_555
N1F Cu1 1_555 1_555
La1D_2 O4 1_555 1_555
Cu1D O2D 1_555 1_555
Cu1E O2E 1_555 1_555
Cu1C O2I 1_555 1_555
O4_2 La1D 1_555 1_555
O4A_2 La1D 1_555 1_555
O4B_2 La1D 1_555 1_555
O2G Cu1A 1_555 1_555
O3G Cu1A 1_555 1_555
N1G Cu1A 1_555 1_555
O2H Cu1B 1_555 1_555
O3H Cu1B 1_555 1_555
N1H Cu1B 1_555 1_555
H5F N1F 1_555 1_555
H5G N1G 1_555 1_555
H5H N1H 1_555 1_555
C2 N1 1_555 1_555
C3 N1 1_555 1_555
C3 C4 1_555 1_555
O2A C1A 1_555 1_555
O3A Cu1A 1_555 1_555
O4A La1D_2 1_555 1_555
C3A N1A 1_555 1_555
N1A Cu1A 1_555 1_555
O2B C1B 1_555 1_555
O3B Cu1B 1_555 1_555
O4B La1D_2 1_555 1_555
C3B N1B 1_555 1_555
N1B Cu1B 1_555 1_555
O2D La1D 1_555 1_555
O3D Cu1D 1_555 1_555
C3D N1D 1_555 1_555
C3D C4D 1_555 1_555
N1D Cu1D 1_555 1_555
O1E La1D 1_555 1_555
O2E La1D 1_555 1_555
O3E Cu1E 1_555 1_555
C3E N1E 1_555 1_555
C3E C4E 1_555 1_555
N1E Cu1E 1_555 1_555
O1I La1D 1_555 1_555
O2I La1D 1_555 1_555
O3I Cu1C 1_555 1_555
C3I N1I 1_555 1_555
C3I C4I 1_555 1_555
N1I Cu1C 1_555 1_555

#END
