
#######################################################################
#
#                 Cambridge Crystallographic Data Centre
#                                CCDC 
#
#######################################################################
#
# If this CIF has been generated from an entry in the Cambridge 
# Structural Database, then it will include bibliographic, chemical, 
# crystal, experimental, refinement or atomic coordinate data resulting 
# from the CCDC's data processing and validation procedures.
#
#######################################################################

data_REWNEO01
_chemical_formula_moiety         '(C72 H42 Cu6 N18 O30)n'
_symmetry_cell_setting           tetragonal
_symmetry_space_group_name_H-M   'I 4/m'
_symmetry_Int_Tables_number      87
_space_group_name_Hall           '-I 4'
loop_
_symmetry_equiv_pos_site_id
_symmetry_equiv_pos_as_xyz
1 x,y,z
2 -x,-y,z
3 -y,x,z
4 y,-x,z
5 1/2+x,1/2+y,1/2+z
6 1/2-x,1/2-y,1/2+z
7 1/2-y,1/2+x,1/2+z
8 1/2+y,1/2-x,1/2+z
9 -x,-y,-z
10 x,y,-z
11 y,-x,-z
12 -y,x,-z
13 1/2-x,1/2-y,1/2-z
14 1/2+x,1/2+y,1/2-z
15 1/2+y,1/2-x,1/2-z
16 1/2-y,1/2+x,1/2-z
_cell_length_a                   30.7992(11)
_cell_length_b                   30.7992(11)
_cell_length_c                   44.8105(19)
_cell_angle_alpha                90
_cell_angle_beta                 90
_cell_angle_gamma                90
_cell_volume                     42506.8
loop_
_atom_site_label
_atom_site_type_symbol
_atom_site_fract_x
_atom_site_fract_y
_atom_site_fract_z
_atom_site_U_iso_or_equiv
_atom_site_thermal_displace_type
Cu1 Cu 0.349434(14) 0.400846(14) 0.128230(10) 0.0312 Uani
Cu2 Cu 0.297549(14) 0.365994(14) 0.169326(10) 0.0332 Uani
Cu3 Cu 0.45119(2) 0.250588(18) 0.0000 0.0302 Uani
Cu4 Cu 0.43513(2) 0.165540(19) 0.0000 0.0319 Uani
C1 C 0.35851(13) 0.22663(12) 0.06651(9) 0.0427 Uani
C2 C 0.33905(14) 0.18990(13) 0.07806(10) 0.0570 Uani
H1 H 0.3420 0.1626 0.0684 0.0680 Uiso
C3 C 0.31457(15) 0.19396(14) 0.10461(11) 0.0647 Uani
C4 C 0.30822(14) 0.23329(13) 0.11799(10) 0.0590 Uani
H2 H 0.2913 0.2356 0.1357 0.0710 Uiso
C5 C 0.32702(13) 0.26992(12) 0.10516(9) 0.0467 Uani
C6 C 0.35210(12) 0.26683(12) 0.07971(8) 0.0380 Uani
H3 H 0.3649 0.2921 0.0713 0.0450 Uiso
C7 C 0.32365(12) 0.31284(12) 0.12079(9) 0.0390 Uani
C8 C 0.38917(12) 0.22080(13) 0.04048(8) 0.0390 Uani
C9 C 0.31447(18) 0.11537(15) 0.11473(12) 0.0880 Uani
H4 H 0.3387 0.1063 0.1032 0.1060 Uiso
C10 C 0.2888(2) 0.09054(16) 0.13203(14) 0.1037 Uani
C11 C 0.2913(2) 0.04306(16) 0.13905(13) 0.1053 Uani
C12 C 0.3192(2) 0.01778(17) 0.12190(14) 0.1103 Uani
H5 H 0.3332 0.0296 0.1048 0.1320 Uiso
C13 C 0.3266(2) -0.02641(16) 0.13056(14) 0.1073 Uani
C14 C 0.3031(2) -0.04310(16) 0.15365(13) 0.1047 Uani
H6 H 0.3057 -0.0732 0.1580 0.1260 Uiso
C15 C 0.2754(2) -0.01797(16) 0.17104(13) 0.1007 Uani
C16 C 0.2671(2) 0.02572(16) 0.16315(13) 0.1040 Uani
H7 H 0.2463 0.0427 0.1736 0.1250 Uiso
C17 C 0.3559(2) -0.05320(17) 0.11379(14) 0.1160 Uani
C18 C 0.36803(19) -0.09461(16) 0.11758(12) 0.0960 Uani
H8 H 0.3564 -0.1141 0.1319 0.1150 Uiso
C19 C 0.42028(17) -0.14486(14) 0.09230(11) 0.0740 Uani
C20 C 0.40519(15) -0.18059(13) 0.10823(10) 0.0597 Uani
H9 H 0.3834 -0.1775 0.1231 0.0720 Uiso
C21 C 0.42307(13) -0.22105(12) 0.10168(9) 0.0437 Uani
C22 C 0.45313(12) -0.22547(12) 0.07916(8) 0.0410 Uani
H10 H 0.4641 -0.2534 0.0742 0.0490 Uiso
C23 C 0.46741(14) -0.18917(13) 0.06377(9) 0.0480 Uani
C24 C 0.45084(16) -0.14844(14) 0.07014(10) 0.0660 Uani
H11 H 0.4604 -0.1236 0.0594 0.0790 Uiso
C25 C 0.40883(12) -0.25855(12) 0.11946(9) 0.0387 Uani
C26 C 0.50026(13) -0.19473(13) 0.03936(8) 0.0427 Uani
C27 C 0.2528(2) -0.03540(17) 0.19651(13) 0.1020 Uani
C28 C 0.23258(18) -0.01409(16) 0.21963(12) 0.0933 Uani
H12 H 0.2286 0.0163 0.2217 0.1120 Uiso
C29 C 0.20032(16) -0.04053(14) 0.26690(10) 0.0680 Uani
C30 C 0.19807(14) -0.00027(13) 0.28039(10) 0.0557 Uani
H13 H 0.2110 0.0244 0.2713 0.0670 Uiso
C31 C 0.17690(12) 0.00338(12) 0.30703(9) 0.0423 Uani
C32 C 0.15847(12) -0.03310(12) 0.32088(9) 0.0427 Uani
H14 H 0.1436 -0.0302 0.3394 0.0510 Uiso
C33 C 0.16204(13) -0.07262(12) 0.30759(9) 0.0467 Uani
C34 C 0.18227(15) -0.07732(14) 0.28019(10) 0.0623 Uani
H15 H 0.1838 -0.1049 0.2707 0.0750 Uiso
C35 C 0.17542(12) 0.04638(12) 0.32296(9) 0.0393 Uani
C36 C 0.14390(13) -0.11136(12) 0.32324(9) 0.0423 Uani
N1 N 0.29846(14) 0.15571(12) 0.11735(10) 0.0873 Uani
N2 N 0.26212(17) 0.15675(14) 0.13483(12) 0.1143 Uani
N3 N 0.25623(18) 0.11610(15) 0.14405(13) 0.1267 Uani
N4 N 0.3805(2) -0.03774(18) 0.09053(14) 0.1657 Uani
N5 N 0.4095(2) -0.06856(18) 0.08250(14) 0.1613 Uani
N6 N 0.39843(16) -0.10367(13) 0.09825(10) 0.0990 Uani
N7 N 0.2270(2) -0.08580(15) 0.22654(12) 0.1343 Uani
N8 N 0.21966(16) -0.04518(13) 0.23853(10) 0.1017 Uani
N9 N 0.2495(2) -0.07955(16) 0.20116(13) 0.1400 Uani
O1 O 0.34101(9) 0.34451(8) 0.10818(6) 0.0460 Uani
O2 O 0.30375(8) 0.31355(8) 0.14535(6) 0.0439 Uani
O3 O 0.39104(11) 0.42666(13) 0.09500(8) 0.0873 Uani
H16 H 0.4111(12) 0.4070(9) 0.0896(10) 0.1310 Uiso
H17 H 0.4039(13) 0.4497(9) 0.1006(8) 0.1310 Uiso
O4 O 0.25447(10) 0.33910(11) 0.20122(7) 0.0930 Uani
H18 H 0.2401 0.3167 0.1931 0.1390 Uiso
H19 H 0.2680 0.3300 0.2167 0.1390 Uiso
O5 O 0.40624(8) 0.25504(8) 0.03068(5) 0.0420 Uani
O6 O 0.39403(8) 0.18292(8) 0.03078(6) 0.0417 Uani
O7 O 0.46763(17) 0.31762(13) 0.0000 0.0810 Uani
H20 H 0.4642(17) 0.3283(8) -0.0179(6) 0.1220 Uiso
O8 O 0.51937(8) -0.16104(8) 0.03028(6) 0.0429 Uani
O9 O 0.41787(15) 0.09877(12) 0.0000 0.0790 Uani
H21 H 0.4069 0.0924 0.0184 0.1190 Uiso
O10 O 0.50751(9) -0.23302(8) 0.03101(6) 0.0463 Uani
O11 O 0.42160(8) -0.29541(8) 0.11044(6) 0.0459 Uani
O12 O 0.38574(8) -0.25179(8) 0.14183(6) 0.0434 Uani
O13 O 0.14888(9) -0.14799(9) 0.31048(6) 0.0548 Uani
O14 O 0.12514(9) -0.10440(8) 0.34733(6) 0.0500 Uani
O15 O 0.19982(8) 0.07582(8) 0.31319(6) 0.0442 Uani
O16 O 0.15094(8) 0.04899(8) 0.34513(6) 0.0463 Uani
H20I H 0.4642(17) 0.3283(8) 0.0179(6) 0.1220 Uiso
H21I H 0.4069 0.0924 -0.0184 0.1190 Uiso
Cu1A Cu 0.650566(14) -0.400846(14) 0.128230(10) 0.0312 Uani
Cu2A Cu 0.702451(14) -0.365994(14) 0.169326(10) 0.0332 Uani
C1A C 0.64149(13) -0.22663(12) 0.06651(9) 0.0427 Uani
C2A C 0.66095(14) -0.18990(13) 0.07806(10) 0.0570 Uani
H1A H 0.6580 -0.1626 0.0684 0.0680 Uiso
C3A C 0.68543(15) -0.19396(14) 0.10461(11) 0.0647 Uani
C4A C 0.69178(14) -0.23329(13) 0.11799(10) 0.0590 Uani
H2A H 0.7087 -0.2356 0.1357 0.0710 Uiso
C5A C 0.67298(13) -0.26992(12) 0.10516(9) 0.0467 Uani
C6A C 0.64790(12) -0.26683(12) 0.07971(8) 0.0380 Uani
H3A H 0.6351 -0.2921 0.0713 0.0450 Uiso
C7A C 0.67635(12) -0.31284(12) 0.12079(9) 0.0390 Uani
C8A C 0.61083(12) -0.22080(13) 0.04048(8) 0.0390 Uani
C9A C 0.68553(18) -0.11537(15) 0.11473(12) 0.0880 Uani
H4A H 0.6613 -0.1063 0.1032 0.1060 Uiso
C10A C 0.7112(2) -0.09054(16) 0.13203(14) 0.1037 Uani
C11A C 0.7087(2) -0.04306(16) 0.13905(13) 0.1053 Uani
C12A C 0.6808(2) -0.01778(17) 0.12190(14) 0.1103 Uani
H5A H 0.6668 -0.0296 0.1048 0.1320 Uiso
C13A C 0.6734(2) 0.02641(16) 0.13056(14) 0.1073 Uani
C14A C 0.6969(2) 0.04310(16) 0.15365(13) 0.1047 Uani
H6A H 0.6943 0.0732 0.1580 0.1260 Uiso
C15A C 0.7246(2) 0.01797(16) 0.17104(13) 0.1007 Uani
C16A C 0.7329(2) -0.02572(16) 0.16315(13) 0.1040 Uani
H7A H 0.7537 -0.0427 0.1736 0.1250 Uiso
C17A C 0.6441(2) 0.05320(17) 0.11379(14) 0.1160 Uani
C18A C 0.63197(19) 0.09461(16) 0.11758(12) 0.0960 Uani
H8A H 0.6436 0.1141 0.1319 0.1150 Uiso
C19A C 0.57972(17) 0.14486(14) 0.09230(11) 0.0740 Uani
C20A C 0.59481(15) 0.18059(13) 0.10823(10) 0.0597 Uani
H9A H 0.6166 0.1775 0.1231 0.0720 Uiso
C21A C 0.57693(13) 0.22105(12) 0.10168(9) 0.0437 Uani
C22A C 0.54687(12) 0.22547(12) 0.07916(8) 0.0410 Uani
H10A H 0.5359 0.2534 0.0742 0.0490 Uiso
C23A C 0.53259(14) 0.18917(13) 0.06377(9) 0.0480 Uani
C24A C 0.54916(16) 0.14844(14) 0.07014(10) 0.0660 Uani
H11A H 0.5396 0.1236 0.0594 0.0790 Uiso
C25A C 0.59117(12) 0.25855(12) 0.11946(9) 0.0387 Uani
C26A C 0.49974(13) 0.19473(13) 0.03936(8) 0.0427 Uani
C27A C 0.7472(2) 0.03540(17) 0.19651(13) 0.1020 Uani
C28A C 0.76742(18) 0.01409(16) 0.21963(12) 0.0933 Uani
H12A H 0.7714 -0.0163 0.2217 0.1120 Uiso
C29A C 0.79968(16) 0.04053(14) 0.26690(10) 0.0680 Uani
C30A C 0.80193(14) 0.00027(13) 0.28039(10) 0.0557 Uani
H13A H 0.7890 -0.0244 0.2713 0.0670 Uiso
C31A C 0.82310(12) -0.00338(12) 0.30703(9) 0.0423 Uani
C32A C 0.84153(12) 0.03310(12) 0.32088(9) 0.0427 Uani
H14A H 0.8564 0.0302 0.3394 0.0510 Uiso
C33A C 0.83796(13) 0.07262(12) 0.30759(9) 0.0467 Uani
C34A C 0.81773(15) 0.07732(14) 0.28019(10) 0.0623 Uani
H15A H 0.8162 0.1049 0.2707 0.0750 Uiso
C35A C 0.82458(12) -0.04638(12) 0.32296(9) 0.0393 Uani
C36A C 0.85610(13) 0.11136(12) 0.32324(9) 0.0423 Uani
N1A N 0.70154(14) -0.15571(12) 0.11735(10) 0.0873 Uani
N2A N 0.73788(17) -0.15675(14) 0.13483(12) 0.1143 Uani
N3A N 0.74377(18) -0.11610(15) 0.14405(13) 0.1267 Uani
N4A N 0.6195(2) 0.03774(18) 0.09053(14) 0.1657 Uani
N5A N 0.5905(2) 0.06856(18) 0.08250(14) 0.1613 Uani
N6A N 0.60157(16) 0.10367(13) 0.09825(10) 0.0990 Uani
N7A N 0.7730(2) 0.08580(15) 0.22654(12) 0.1343 Uani
N8A N 0.78034(16) 0.04518(13) 0.23853(10) 0.1017 Uani
N9A N 0.7505(2) 0.07955(16) 0.20116(13) 0.1400 Uani
O1A O 0.65899(9) -0.34451(8) 0.10818(6) 0.0460 Uani
O2A O 0.69625(8) -0.31355(8) 0.14535(6) 0.0439 Uani
O3A O 0.60896(11) -0.42666(13) 0.09500(8) 0.0873 Uani
H16A H 0.5889(12) -0.4070(9) 0.0896(10) 0.1310 Uiso
H17A H 0.5961(13) -0.4497(9) 0.1006(8) 0.1310 Uiso
O4A O 0.74553(10) -0.33910(11) 0.20122(7) 0.0930 Uani
H18A H 0.7599 -0.3167 0.1931 0.1390 Uiso
H19A H 0.7320 -0.3300 0.2167 0.1390 Uiso
O5A O 0.59376(8) -0.25504(8) 0.03068(5) 0.0420 Uani
O6A O 0.60597(8) -0.18292(8) 0.03078(6) 0.0417 Uani
O8A O 0.48063(8) 0.16104(8) 0.03028(6) 0.0429 Uani
O10A O 0.49249(9) 0.23302(8) 0.03101(6) 0.0463 Uani
O11A O 0.57840(8) 0.29541(8) 0.11044(6) 0.0459 Uani
O12A O 0.61426(8) 0.25179(8) 0.14183(6) 0.0434 Uani
O13A O 0.85112(9) 0.14799(9) 0.31048(6) 0.0548 Uani
O14A O 0.87486(9) 0.10440(8) 0.34733(6) 0.0500 Uani
O15A O 0.80018(8) -0.07582(8) 0.31319(6) 0.0442 Uani
O16A O 0.84906(8) -0.04899(8) 0.34513(6) 0.0463 Uani
Cu1B Cu 0.599154(14) 0.349434(14) 0.128230(10) 0.0312 Uani
Cu1C Cu 0.400846(14) -0.349434(14) 0.128230(10) 0.0312 Uani
Cu1L Cu 0.150566(14) 0.099154(14) 0.371770(10) 0.0312 Uani
Cu1M Cu 0.849434(14) -0.099154(14) 0.371770(10) 0.0312 Uani
Cu1N Cu 0.900846(14) 0.150566(14) 0.371770(10) 0.0312 Uani
Cu1O Cu 0.099154(14) -0.150566(14) 0.371770(10) 0.0312 Uani
Cu2B Cu 0.634006(14) 0.297549(14) 0.169326(10) 0.0332 Uani
Cu2C Cu 0.365994(14) -0.297549(14) 0.169326(10) 0.0332 Uani
Cu2L Cu 0.202451(14) 0.134006(14) 0.330674(10) 0.0332 Uani
Cu2M Cu 0.797549(14) -0.134006(14) 0.330674(10) 0.0332 Uani
Cu2N Cu 0.865994(14) 0.202451(14) 0.330674(10) 0.0332 Uani
Cu2O Cu 0.134006(14) -0.202451(14) 0.330674(10) 0.0332 Uani
Cu3A Cu 0.54881(2) -0.250588(18) 0.0000 0.0302 Uani
Cu4A Cu 0.56487(2) -0.165540(19) 0.0000 0.0319 Uani
O5I O 0.40624(8) 0.25504(8) -0.03068(5) 0.0420 Uani
O6I O 0.39403(8) 0.18292(8) -0.03078(6) 0.0417 Uani
O8H O 0.48063(8) 0.16104(8) -0.03028(6) 0.0429 Uani
O10H O 0.49249(9) 0.23302(8) -0.03101(6) 0.0463 Uani
O11B O 0.29541(8) 0.42160(8) 0.11044(6) 0.0459 Uani
O11C O 0.70459(8) -0.42160(8) 0.11044(6) 0.0459 Uani
O12B O 0.25179(8) 0.38574(8) 0.14183(6) 0.0434 Uani
O12C O 0.74821(8) -0.38574(8) 0.14183(6) 0.0434 Uani
O13N O 0.35201(9) 0.35112(9) 0.18952(6) 0.0548 Uani
O13O O 0.64799(9) -0.35112(9) 0.18952(6) 0.0548 Uani
O14N O 0.39560(8) 0.37486(9) 0.15267(6) 0.0500 Uani
O14O O 0.60440(8) -0.37486(9) 0.15267(6) 0.0500 Uani
O15L O 0.30018(8) 0.42418(8) 0.18681(6) 0.0442 Uani
O15M O 0.69982(8) -0.42418(8) 0.18681(6) 0.0442 Uani
O16L O 0.34906(8) 0.45101(8) 0.15487(6) 0.0463 Uani
O16M O 0.65094(8) -0.45101(8) 0.15487(6) 0.0463 Uani
loop_
_atom_site_aniso_label
_atom_site_aniso_U_11
_atom_site_aniso_U_22
_atom_site_aniso_U_33
_atom_site_aniso_U_23
_atom_site_aniso_U_13
_atom_site_aniso_U_12
Cu1 0.0315(3) 0.0311(3) 0.0311(2) 0.0115(2) 0.0087(2) 0.00519(19)
Cu2 0.0335(3) 0.0343(3) 0.0317(3) 0.0120(2) 0.0095(2) 0.0043(2)
Cu3 0.0478(4) 0.0208(3) 0.0221(3) 0.000 0.000 -0.0021(3)
Cu4 0.0519(4) 0.0207(3) 0.0232(3) 0.000 0.000 -0.0034(3)
C1 0.053(2) 0.034(2) 0.041(2) 0.0071(18) 0.0129(19) -0.0025(18)
C2 0.067(3) 0.039(2) 0.065(3) -0.004(2) 0.021(2) 0.000(2)
C3 0.081(3) 0.039(2) 0.074(3) 0.010(2) 0.047(2) -0.002(2)
C4 0.074(3) 0.040(2) 0.063(3) 0.008(2) 0.036(2) 0.010(2)
C5 0.057(2) 0.035(2) 0.048(2) 0.0141(19) 0.011(2) 0.0054(19)
C6 0.051(2) 0.031(2) 0.032(2) 0.0071(17) 0.0085(18) -0.0004(18)
C7 0.044(2) 0.031(2) 0.042(2) 0.0137(18) 0.0090(18) 0.0043(17)
C8 0.050(2) 0.040(2) 0.027(2) 0.0033(18) 0.0053(17) -0.0019(19)
C9 0.126(4) 0.045(3) 0.093(3) 0.010(3) 0.076(3) 0.010(3)
C10 0.142(4) 0.048(3) 0.121(4) 0.008(3) 0.095(3) 0.013(3)
C11 0.150(4) 0.052(3) 0.114(4) 0.016(3) 0.091(3) 0.014(3)
C12 0.157(4) 0.062(3) 0.112(4) 0.020(3) 0.089(3) 0.023(3)
C13 0.155(4) 0.051(3) 0.116(4) 0.015(3) 0.095(3) 0.024(3)
C14 0.154(4) 0.052(3) 0.108(4) 0.009(3) 0.091(3) 0.020(3)
C15 0.153(4) 0.045(3) 0.104(3) 0.009(3) 0.084(3) 0.006(3)
C16 0.152(4) 0.052(3) 0.108(4) 0.001(3) 0.079(3) -0.001(3)
C17 0.175(4) 0.058(3) 0.115(4) 0.022(3) 0.106(3) 0.026(3)
C18 0.146(4) 0.051(3) 0.091(4) 0.007(3) 0.080(3) 0.016(3)
C19 0.106(3) 0.041(2) 0.075(3) 0.003(2) 0.046(3) 0.014(2)
C20 0.080(3) 0.040(2) 0.059(3) 0.002(2) 0.041(2) 0.003(2)
C21 0.052(2) 0.034(2) 0.045(2) 0.0019(18) 0.0171(19) -0.0014(18)
C22 0.050(2) 0.031(2) 0.042(2) -0.0001(18) 0.0112(19) 0.0029(18)
C23 0.064(3) 0.041(2) 0.039(2) 0.0050(19) 0.018(2) 0.004(2)
C24 0.095(3) 0.042(2) 0.061(3) 0.006(2) 0.042(3) 0.009(2)
C25 0.039(2) 0.030(2) 0.047(2) 0.0013(18) 0.0142(18) -0.0049(17)
C26 0.059(3) 0.041(2) 0.028(2) 0.0035(18) 0.0107(18) 0.006(2)
C27 0.155(4) 0.054(3) 0.097(3) 0.010(3) 0.082(3) -0.001(3)
C28 0.134(4) 0.053(3) 0.093(4) 0.005(3) 0.078(3) 0.002(3)
C29 0.099(3) 0.041(2) 0.064(3) 0.005(2) 0.058(2) 0.004(2)
C30 0.073(3) 0.032(2) 0.062(3) 0.003(2) 0.037(2) 0.000(2)
C31 0.046(2) 0.034(2) 0.047(2) -0.0002(18) 0.0194(19) -0.0016(18)
C32 0.044(2) 0.039(2) 0.045(2) -0.0037(19) 0.0137(18) 0.0009(19)
C33 0.057(2) 0.035(2) 0.048(2) 0.0042(19) 0.029(2) -0.0036(19)
C34 0.088(3) 0.038(2) 0.061(3) 0.001(2) 0.032(2) -0.008(2)
C35 0.038(2) 0.037(2) 0.043(2) 0.0086(18) 0.0134(18) 0.0028(18)
C36 0.056(2) 0.031(2) 0.040(2) -0.0016(18) 0.0194(19) -0.0059(18)
N1 0.116(3) 0.042(2) 0.104(3) 0.014(2) 0.077(3) 0.013(2)
N2 0.145(4) 0.051(3) 0.147(4) 0.019(3) 0.103(3) 0.009(3)
N3 0.155(4) 0.063(3) 0.162(4) 0.016(3) 0.111(3) 0.010(3)
N4 0.227(5) 0.093(4) 0.177(4) 0.031(3) 0.141(4) 0.044(3)
N5 0.220(5) 0.088(3) 0.176(4) 0.029(3) 0.142(4) 0.046(3)
N6 0.149(3) 0.046(2) 0.102(3) 0.014(2) 0.085(3) 0.018(2)
N7 0.213(4) 0.070(3) 0.120(4) -0.003(3) 0.117(3) -0.001(3)
N8 0.157(4) 0.050(2) 0.098(3) 0.001(2) 0.091(3) 0.002(2)
N9 0.217(5) 0.078(3) 0.125(4) 0.009(3) 0.105(4) -0.002(3)
O1 0.0632(18) 0.0322(15) 0.0426(16) 0.0033(13) 0.0144(14) 0.0018(13)
O2 0.0526(17) 0.0350(15) 0.0442(17) 0.0112(13) 0.0158(14) 0.0058(12)
O3 0.074(2) 0.131(3) 0.057(2) 0.020(2) 0.0157(18) -0.045(2)
O4 0.083(2) 0.111(3) 0.085(3) 0.055(2) 0.040(2) -0.016(2)
O5 0.0605(18) 0.0287(15) 0.0367(15) 0.0050(12) 0.0156(13) -0.0057(13)
O6 0.0586(18) 0.0244(14) 0.0420(16) 0.0025(12) 0.0181(13) -0.0065(12)
O7 0.070(3) 0.028(2) 0.145(5) 0.000 0.000 -0.011(2)
O8 0.0582 0.0337 0.0368 -0.0001 0.0144 0.002
O9 0.125(4) 0.036(2) 0.076(3) 0.000 0.000 -0.019(2)
O10 0.0684(19) 0.0343(16) 0.0362(16) -0.0017(12) 0.0202(14) 0.0016(14)
O11 0.0473(17) 0.0386(16) 0.0517(18) 0.0070(13) 0.0232(14) 0.0000(13)
O12 0.0470(17) 0.0334(15) 0.0499(17) -0.0020(13) 0.0159(14) -0.0028(12)
O13 0.0619(19) 0.0531(19) 0.0495(18) -0.0016(15) 0.0234(15) -0.0073(15)
O14 0.0591(18) 0.0477(17) 0.0433(17) -0.0106(13) 0.0292(14) -0.0110(14)
O15 0.0483(17) 0.0364(16) 0.0480(17) 0.0066(13) 0.0136(13) 0.0053(13)
O16 0.0515(17) 0.0411(16) 0.0464(17) -0.0017(13) 0.0178(14) -0.0008(13)
Cu1A 0.0315 0.0311 0.0311 -0.0115 -0.0087 0.00519
Cu2A 0.0335 0.0343 0.0317 -0.012 -0.0095 0.0043
C1A 0.053 0.034 0.041 -0.0071 -0.0129 -0.0025
C2A 0.067 0.039 0.065 0.004 -0.021 0
C3A 0.081 0.039 0.074 -0.01 -0.047 -0.002
C4A 0.074 0.04 0.063 -0.008 -0.036 0.01
C5A 0.057 0.035 0.048 -0.0141 -0.011 0.0054
C6A 0.051 0.031 0.032 -0.0071 -0.0085 -0.0004
C7A 0.044 0.031 0.042 -0.0137 -0.009 0.0043
C8A 0.05 0.04 0.027 -0.0033 -0.0053 -0.0019
C9A 0.126 0.045 0.093 -0.01 -0.076 0.01
C10A 0.142 0.048 0.121 -0.008 -0.095 0.013
C11A 0.15 0.052 0.114 -0.016 -0.091 0.014
C12A 0.157 0.062 0.112 -0.02 -0.089 0.023
C13A 0.155 0.051 0.116 -0.015 -0.095 0.024
C14A 0.154 0.052 0.108 -0.009 -0.091 0.02
C15A 0.153 0.045 0.104 -0.009 -0.084 0.006
C16A 0.152 0.052 0.108 -0.001 -0.079 -0.001
C17A 0.175 0.058 0.115 -0.022 -0.106 0.026
C18A 0.146 0.051 0.091 -0.007 -0.08 0.016
C19A 0.106 0.041 0.075 -0.003 -0.046 0.014
C20A 0.08 0.04 0.059 -0.002 -0.041 0.003
C21A 0.052 0.034 0.045 -0.0019 -0.0171 -0.0014
C22A 0.05 0.031 0.042 0.0001 -0.0112 0.0029
C23A 0.064 0.041 0.039 -0.005 -0.018 0.004
C24A 0.095 0.042 0.061 -0.006 -0.042 0.009
C25A 0.039 0.03 0.047 -0.0013 -0.0142 -0.0049
C26A 0.059 0.041 0.028 -0.0035 -0.0107 0.006
C27A 0.155 0.054 0.097 -0.01 -0.082 -0.001
C28A 0.134 0.053 0.093 -0.005 -0.078 0.002
C29A 0.099 0.041 0.064 -0.005 -0.058 0.004
C30A 0.073 0.032 0.062 -0.003 -0.037 0
C31A 0.046 0.034 0.047 0.0002 -0.0194 -0.0016
C32A 0.044 0.039 0.045 0.0037 -0.0137 0.0009
C33A 0.057 0.035 0.048 -0.0042 -0.029 -0.0036
C34A 0.088 0.038 0.061 -0.001 -0.032 -0.008
C35A 0.038 0.037 0.043 -0.0086 -0.0134 0.0028
C36A 0.056 0.031 0.04 0.0016 -0.0194 -0.0059
N1A 0.116 0.042 0.104 -0.014 -0.077 0.013
N2A 0.145 0.051 0.147 -0.019 -0.103 0.009
N3A 0.155 0.063 0.162 -0.016 -0.111 0.01
N4A 0.227 0.093 0.177 -0.031 -0.141 0.044
N5A 0.22 0.088 0.176 -0.029 -0.142 0.046
N6A 0.149 0.046 0.102 -0.014 -0.085 0.018
N7A 0.213 0.07 0.12 0.003 -0.117 -0.001
N8A 0.157 0.05 0.098 -0.001 -0.091 0.002
N9A 0.217 0.078 0.125 -0.009 -0.105 -0.002
O1A 0.0632 0.0322 0.0426 -0.0033 -0.0144 0.0018
O2A 0.0526 0.035 0.0442 -0.0112 -0.0158 0.0058
O3A 0.074 0.131 0.057 -0.02 -0.0157 -0.045
O4A 0.083 0.111 0.085 -0.055 -0.04 -0.016
O5A 0.0605 0.0287 0.0367 -0.005 -0.0156 -0.0057
O6A 0.0586 0.0244 0.042 -0.0025 -0.0181 -0.0065
O8A 0.0582 0.0337 0.0368 0.0001 -0.0144 0.002
O10A 0.0684 0.0343 0.0362 0.0017 -0.0202 0.0016
O11A 0.0473 0.0386 0.0517 -0.007 -0.0232 0
O12A 0.047 0.0334 0.0499 0.002 -0.0159 -0.0028
O13A 0.0619 0.0531 0.0495 0.0016 -0.0234 -0.0073
O14A 0.0591 0.0477 0.0433 0.0106 -0.0292 -0.011
O15A 0.0483 0.0364 0.048 -0.0066 -0.0136 0.0053
O16A 0.0515 0.0411 0.0464 0.0017 -0.0178 -0.0008
Cu1B 0.0311 0.0315 0.0311 0.0087 -0.0115 -0.00519
Cu1C 0.0311 0.0315 0.0311 -0.0087 0.0115 -0.00519
Cu1L 0.0315 0.0311 0.0311 0.0115 0.0087 0.00519
Cu1M 0.0315 0.0311 0.0311 -0.0115 -0.0087 0.00519
Cu1N 0.0311 0.0315 0.0311 0.0087 -0.0115 -0.00519
Cu1O 0.0311 0.0315 0.0311 -0.0087 0.0115 -0.00519
Cu2B 0.0343 0.0335 0.0317 0.0095 -0.012 -0.0043
Cu2C 0.0343 0.0335 0.0317 -0.0095 0.012 -0.0043
Cu2L 0.0335 0.0343 0.0317 0.012 0.0095 0.0043
Cu2M 0.0335 0.0343 0.0317 -0.012 -0.0095 0.0043
Cu2N 0.0343 0.0335 0.0317 0.0095 -0.012 -0.0043
Cu2O 0.0343 0.0335 0.0317 -0.0095 0.012 -0.0043
Cu3A 0.0478 0.0208 0.0221 0 0 -0.0021
Cu4A 0.0519 0.0207 0.0232 0 0 -0.0034
O5I 0.0605 0.0287 0.0367 -0.005 -0.0156 -0.0057
O6I 0.0586 0.0244 0.042 -0.0025 -0.0181 -0.0065
O8H 0.0582 0.0337 0.0368 -0.0001 0.0144 0.002
O10H 0.0684 0.0343 0.0362 -0.0017 0.0202 0.0016
O11B 0.0386 0.0473 0.0517 0.0232 -0.007 0
O11C 0.0386 0.0473 0.0517 -0.0232 0.007 0
O12B 0.0334 0.047 0.0499 0.0159 0.002 0.0028
O12C 0.0334 0.047 0.0499 -0.0159 -0.002 0.0028
O13N 0.0531 0.0619 0.0495 0.0234 0.0016 0.0073
O13O 0.0531 0.0619 0.0495 -0.0234 -0.0016 0.0073
O14N 0.0477 0.0591 0.0433 0.0292 0.0106 0.011
O14O 0.0477 0.0591 0.0433 -0.0292 -0.0106 0.011
O15L 0.0483 0.0364 0.048 0.0066 0.0136 0.0053
O15M 0.0483 0.0364 0.048 -0.0066 -0.0136 0.0053
O16L 0.0515 0.0411 0.0464 -0.0017 0.0178 -0.0008
O16M 0.0515 0.0411 0.0464 0.0017 -0.0178 -0.0008
loop_
_geom_bond_atom_site_label_1
_geom_bond_atom_site_label_2
_geom_bond_site_symmetry_1
_geom_bond_site_symmetry_2
Cu1 Cu2 1_555 1_555
Cu2 O2 1_555 1_555
Cu3 Cu4 1_555 1_555
Cu4 O6 1_555 1_555
C1 C2 1_555 1_555
C2 H1 1_555 1_555
C3 C2 1_555 1_555
C4 C3 1_555 1_555
H2 C4 1_555 1_555
C5 C4 1_555 1_555
C6 C1 1_555 1_555
H3 C6 1_555 1_555
C7 C5 1_555 1_555
C8 C1 1_555 1_555
C9 H4 1_555 1_555
C10 C9 1_555 1_555
C11 C10 1_555 1_555
C12 C11 1_555 1_555
H5 C12 1_555 1_555
C13 C12 1_555 1_555
C14 C13 1_555 1_555
H6 C14 1_555 1_555
C15 C14 1_555 1_555
C16 C11 1_555 1_555
H7 C16 1_555 1_555
C17 C13 1_555 1_555
C18 C17 1_555 1_555
H8 C18 1_555 1_555
C19 C20 1_555 1_555
C20 H9 1_555 1_555
C21 C20 1_555 1_555
C22 C21 1_555 1_555
H10 C22 1_555 1_555
C23 C22 1_555 1_555
C24 C19 1_555 1_555
H11 C24 1_555 1_555
C25 C21 1_555 1_555
C26 C23 1_555 1_555
C27 C15 1_555 1_555
C28 C27 1_555 1_555
H12 C28 1_555 1_555
C29 C30 1_555 1_555
C30 H13 1_555 1_555
C31 C30 1_555 1_555
C32 C31 1_555 1_555
H14 C32 1_555 1_555
C33 C32 1_555 1_555
C34 C29 1_555 1_555
H15 C34 1_555 1_555
C35 C31 1_555 1_555
C36 C33 1_555 1_555
N1 C3 1_555 1_555
N2 N1 1_555 1_555
N3 C10 1_555 1_555
N4 C17 1_555 1_555
N5 N4 1_555 1_555
N6 C18 1_555 1_555
N7 N8 1_555 1_555
N8 C28 1_555 1_555
N9 C27 1_555 1_555
O1 Cu1 1_555 1_555
O2 C7 1_555 1_555
O3 Cu1 1_555 1_555
H16 O3 1_555 1_555
H17 O3 1_555 1_555
O4 Cu2 1_555 1_555
H18 O4 1_555 1_555
H19 O4 1_555 1_555
O5 Cu3 1_555 1_555
O6 C8 1_555 1_555
O7 Cu3 1_555 1_555
H20 O7 1_555 1_555
O8 C26 1_555 1_555
O9 Cu4 1_555 1_555
H21 O9 1_555 1_555
O10 C26 1_555 1_555
O11 C25 1_555 1_555
O12 C25 1_555 1_555
O13 C36 1_555 1_555
O14 C36 1_555 1_555
O15 C35 1_555 1_555
O16 C35 1_555 1_555
H20I O7 1_555 1_555
H21I O9 1_555 1_555
Cu1A Cu2A 1_555 1_555
Cu2A O2A 1_555 1_555
C1A C2A 1_555 1_555
C2A H1A 1_555 1_555
C3A C2A 1_555 1_555
C4A C3A 1_555 1_555
H2A C4A 1_555 1_555
C5A C4A 1_555 1_555
C6A C1A 1_555 1_555
H3A C6A 1_555 1_555
C7A C5A 1_555 1_555
C8A C1A 1_555 1_555
C9A H4A 1_555 1_555
C10A C9A 1_555 1_555
C11A C10A 1_555 1_555
C12A C11A 1_555 1_555
H5A C12A 1_555 1_555
C13A C12A 1_555 1_555
C14A C13A 1_555 1_555
H6A C14A 1_555 1_555
C15A C14A 1_555 1_555
C16A C11A 1_555 1_555
H7A C16A 1_555 1_555
C17A C13A 1_555 1_555
C18A C17A 1_555 1_555
H8A C18A 1_555 1_555
C19A C20A 1_555 1_555
C20A H9A 1_555 1_555
C21A C20A 1_555 1_555
C22A C21A 1_555 1_555
H10A C22A 1_555 1_555
C23A C22A 1_555 1_555
C24A C19A 1_555 1_555
H11A C24A 1_555 1_555
C25A C21A 1_555 1_555
C26A C23A 1_555 1_555
C27A C15A 1_555 1_555
C28A C27A 1_555 1_555
H12A C28A 1_555 1_555
C29A C30A 1_555 1_555
C30A H13A 1_555 1_555
C31A C30A 1_555 1_555
C32A C31A 1_555 1_555
H14A C32A 1_555 1_555
C33A C32A 1_555 1_555
C34A C29A 1_555 1_555
H15A C34A 1_555 1_555
C35A C31A 1_555 1_555
C36A C33A 1_555 1_555
N1A C3A 1_555 1_555
N2A N1A 1_555 1_555
N3A C10A 1_555 1_555
N4A C17A 1_555 1_555
N5A N4A 1_555 1_555
N6A C18A 1_555 1_555
N7A N8A 1_555 1_555
N8A C28A 1_555 1_555
N9A C27A 1_555 1_555
O1A Cu1A 1_555 1_555
O2A C7A 1_555 1_555
O3A Cu1A 1_555 1_555
H16A O3A 1_555 1_555
H17A O3A 1_555 1_555
O4A Cu2A 1_555 1_555
H18A O4A 1_555 1_555
H19A O4A 1_555 1_555
O5A C8A 1_555 1_555
O6A C8A 1_555 1_555
O8A Cu4 1_555 1_555
O10A Cu3 1_555 1_555
O11A C25A 1_555 1_555
O12A C25A 1_555 1_555
O13A C36A 1_555 1_555
O14A C36A 1_555 1_555
O15A C35A 1_555 1_555
O16A C35A 1_555 1_555
Cu1B O11A 1_555 1_555
Cu1C O11 1_555 1_555
Cu1L O16 1_555 1_555
Cu1M O16A 1_555 1_555
Cu1N O14A 1_555 1_555
Cu1O O14 1_555 1_555
Cu2B O12A 1_555 1_555
Cu2C O12 1_555 1_555
Cu2L O15 1_555 1_555
Cu2M O15A 1_555 1_555
Cu2N O13A 1_555 1_555
Cu2O O13 1_555 1_555
Cu3A O10 1_555 1_555
Cu4A O8 1_555 1_555
O5I Cu3 1_555 1_555
O6I Cu4 1_555 1_555
O8H Cu4 1_555 1_555
O10H Cu3 1_555 1_555
O11B Cu1 1_555 1_555
O11C Cu1A 1_555 1_555
O12B Cu2 1_555 1_555
O12C Cu2A 1_555 1_555
O13N Cu2 1_555 1_555
O13O Cu2A 1_555 1_555
O14N Cu1 1_555 1_555
O14O Cu1A 1_555 1_555
O15L Cu2 1_555 1_555
O15M Cu2A 1_555 1_555
O16L Cu1 1_555 1_555
O16M Cu1A 1_555 1_555
C5 C6 1_555 1_555
C7 O1 1_555 1_555
C8 O5 1_555 1_555
C9 N1 1_555 1_555
C15 C16 1_555 1_555
C19 N6 1_555 1_555
C23 C24 1_555 1_555
C29 N8 1_555 1_555
C33 C34 1_555 1_555
N2 N3 1_555 1_555
N5 N6 1_555 1_555
N7 N9 1_555 1_555
C5A C6A 1_555 1_555
C7A O1A 1_555 1_555
C9A N1A 1_555 1_555
C15A C16A 1_555 1_555
C19A N6A 1_555 1_555
C23A C24A 1_555 1_555
C26A O8A 1_555 1_555
C26A O10A 1_555 1_555
C29A N8A 1_555 1_555
C33A C34A 1_555 1_555
N2A N3A 1_555 1_555
N5A N6A 1_555 1_555
N7A N9A 1_555 1_555
O5A Cu3A 1_555 1_555
O6A Cu4A 1_555 1_555
Cu1B Cu2B 1_555 1_555
Cu1C Cu2C 1_555 1_555
Cu1L Cu2L 1_555 1_555
Cu1M Cu2M 1_555 1_555
Cu1N Cu2N 1_555 1_555
Cu1O Cu2O 1_555 1_555
Cu3A Cu4A 1_555 1_555

#END
