
#######################################################################
#
#                 Cambridge Crystallographic Data Centre
#                                CCDC 
#
#######################################################################
#
# If this CIF has been generated from an entry in the Cambridge 
# Structural Database, then it will include bibliographic, chemical, 
# crystal, experimental, refinement or atomic coordinate data resulting 
# from the CCDC's data processing and validation procedures.
#
#######################################################################

data_ILENOC
_chemical_formula_moiety         '(C8 H26 F8 In7 N7 O35 P8 4-)n'
_symmetry_cell_setting           monoclinic
_symmetry_space_group_name_H-M   'C 2/m'
_symmetry_Int_Tables_number      12
_space_group_name_Hall           '-C 2y'
loop_
_symmetry_equiv_pos_site_id
_symmetry_equiv_pos_as_xyz
1 x,y,z
2 1/2+x,1/2+y,z
3 x,-y,z
4 1/2+x,1/2-y,z
5 -x,-y,-z
6 1/2-x,1/2-y,-z
7 -x,y,-z
8 1/2-x,1/2+y,-z
_cell_length_a                   19.569(5)
_cell_length_b                   9.7034(18)
_cell_length_c                   14.927(6)
_cell_angle_alpha                90
_cell_angle_beta                 119.091(14)
_cell_angle_gamma                90
_cell_volume                     2476.86
loop_
_atom_site_label
_atom_site_type_symbol
_atom_site_fract_x
_atom_site_fract_y
_atom_site_fract_z
O10 O 0.7492(6) -0.5000 -0.4331(8)
N1 N 0.6796(3) -0.2626(5) -0.2591(4)
H3 H 0.6739 -0.3429 -0.2347
H4 H 0.6438 -0.2554 -0.3250
H5 H 0.6735 -0.1941 -0.2240
C1 C 0.7585(4) -0.2550(7) -0.2487(5)
H6 H 0.7968 -0.2660 -0.1768
H7 H 0.7648 -0.3319 -0.2855
C2 C 0.7760(4) -0.1270(7) -0.2862(5)
H8 H 0.7368 -0.1144 -0.3574
H9 H 0.8261 -0.1375 -0.2839
N2 N 0.7787(4) 0.0000 -0.2281(5)
H10 H 0.7378 0.0000 -0.2162
H11 H 0.8228 0.0000 -0.1672
C2B C 0.7760(4) 0.1270(7) -0.2862(5)
C1B C 0.7585(4) 0.2550(7) -0.2487(5)
N1B N 0.6796(3) 0.2626(5) -0.2591(4)
H3B H 0.6739 0.3429 -0.2347
H4B H 0.6438 0.2554 -0.3250
H5B H 0.6735 0.1941 -0.2240
H6B H 0.7968 0.2660 -0.1768
H7B H 0.7648 0.3319 -0.2855
H8B H 0.7368 0.1144 -0.3574
H9B H 0.8261 0.1375 -0.2839
N3 N 1.0092(4) -0.5000 -0.2133(6)
C3 C 0.9399(6) -0.5000 -0.1985(7)
C4 C 0.9512(6) -0.5000 -0.0966(6)
N4 N 1.0000 -0.4433(15) 0.0000
C4D C 1.0488(6) -0.5000 0.0966(6)
C3D C 1.0601(6) -0.5000 0.1985(7)
N3D N 0.9908(4) -0.5000 0.2133(6)
N4D N 1.0000 -0.5567(15) 0.0000
In1 In 0.78206(3) -0.5000 0.01392(4)
In2 In 0.51224(3) -0.5000 -0.23927(4)
In3 In 0.5000 -0.5000 0.0000
In4 In 0.5000 -0.5000 -0.5000
In5 In 0.5000 -1.0000 -0.5000
P1 P 0.42252(12) -0.73991(18) -0.42570(13)
P2 P 0.62654(8) -0.29961(15) -0.03632(11)
F1 F 0.7343(3) -0.5000 -0.1433(3)
O1 O 0.7097(2) -0.3521(4) 0.0278(3)
O2 O 0.6283(2) -0.1410(4) -0.0337(3)
F2 F 0.8367(3) -0.5000 0.1795(3)
O3 O 0.5896(3) -0.3464(5) -0.1473(3)
F3 F 0.4468(2) -0.5000 -0.1619(3)
F4 F 0.5619(3) -0.5000 -0.3379(3)
O4 O 0.4370(3) -0.6609(5) -0.3317(3)
O5 O 0.5786(2) -0.3447(4) 0.0143(3)
O6 O 0.4178(2) -0.6497(4) -0.5106(3)
O7 O 0.6151(4) -1.0000 -0.4019(6)
O8 O 0.4822(5) -0.8530(6) -0.4022(4)
O9 O 0.3420(5) -0.8080(10) -0.4679(6)
H2 H 0.3104 -0.7514 -0.4690
F3D F 0.5532(2) -0.5000 0.1619(3)
P2B P 0.62654(8) -0.70039(15) -0.03632(11)
O1B O 0.7097(2) -0.6479(4) 0.0278(3)
O2B O 0.6283(2) -0.8590(4) -0.0337(3)
O3B O 0.5896(3) -0.6536(5) -0.1473(3)
O5B O 0.5786(2) -0.6553(4) 0.0143(3)
P2D P 0.37346(8) -0.70039(15) 0.03632(11)
O1D O 0.2903(2) -0.6479(4) -0.0278(3)
O2D O 0.3717(2) -0.8590(4) 0.0337(3)
O3D O 0.4104(3) -0.6536(5) 0.1473(3)
O5D O 0.4214(2) -0.6553(4) -0.0143(3)
P2F P 0.37346(8) -0.29961(15) 0.03632(11)
O1F O 0.2903(2) -0.3521(4) -0.0278(3)
O2F O 0.3717(2) -0.1410(4) 0.0337(3)
O3F O 0.4104(3) -0.3464(5) 0.1473(3)
O5F O 0.4214(2) -0.3447(4) -0.0143(3)
In1D In 0.21794(3) -0.5000 -0.01392(4)
In2D In 0.48776(3) -0.5000 0.23927(4)
P1B P 0.42252(12) -0.26009(18) -0.42570(13)
O4B O 0.4370(3) -0.3391(5) -0.3317(3)
O6B O 0.4178(2) -0.3503(4) -0.5106(3)
O8B O 0.4822(5) -0.1470(6) -0.4022(4)
O9B O 0.3420(5) -0.1920(10) -0.4679(6)
H2B H 0.3104 -0.2486 -0.4690
F1D F 0.2657(3) -0.5000 0.1433(3)
F2D F 0.1633(3) -0.5000 -0.1795(3)
F4D F 0.4381(3) -0.5000 0.3379(3)
P1D P 0.57748(12) -0.26009(18) 0.42570(13)
O4D O 0.5630(3) -0.3391(5) 0.3317(3)
O6D O 0.5822(2) -0.3503(4) 0.5106(3)
O8D O 0.5178(5) -0.1470(6) 0.4022(4)
O9D O 0.6580(5) -0.1920(10) 0.4679(6)
H2D H 0.6896 -0.2486 0.4690
P1F P 0.57748(12) -0.73991(18) 0.42570(13)
O4F O 0.5630(3) -0.6609(5) 0.3317(3)
O6F O 0.5822(2) -0.6497(4) 0.5106(3)
O8F O 0.5178(5) -0.8530(6) 0.4022(4)
O9F O 0.6580(5) -0.8080(10) 0.4679(6)
H2F H 0.6896 -0.7514 0.4690
O7D O 0.3849(4) -1.0000 -0.5981(6)
O2E O 0.8717(2) -0.3590(4) 0.0337(3)
O2G O 0.8717(2) -0.6410(4) 0.0337(3)
F4D_2 F 0.4381(3) -0.5000 -0.6621(3)
O6D_2 O 0.5822(2) -0.3503(4) -0.4894(3)
O6F_2 O 0.5822(2) -0.6497(4) -0.4894(3)
O8B_2 O 0.4822(5) -1.1470(6) -0.4022(4)
O8D_2 O 0.5178(5) -1.1470(6) -0.5978(4)
O8F_2 O 0.5178(5) -0.8530(6) -0.5978(4)
In1E In 0.71794(3) 0.0000 -0.01392(4)
In1E_2 In 0.71794(3) -1.0000 -0.01392(4)
In1A In 0.28206(3) -1.0000 0.01392(4)
In1A_2 In 0.28206(3) 0.0000 0.01392(4)
O2A O 0.1283(2) -0.6410(4) -0.0337(3)
O2C O 0.1283(2) -0.3590(4) -0.0337(3)
In5_2 In 0.5000 0.0000 -0.5000
In4_2 In 0.5000 -0.5000 0.5000
In5_3 In 0.5000 0.0000 0.5000
In5_4 In 0.5000 -1.0000 0.5000
loop_
_geom_bond_atom_site_label_1
_geom_bond_atom_site_label_2
_geom_bond_site_symmetry_1
_geom_bond_site_symmetry_2
In1 F1 1_555 1_555
In2 O3 1_555 1_555
In3 F3 1_555 1_555
In4 F4 1_555 1_555
In5 O7 1_555 1_555
P1 O4 1_555 1_555
P2 O1 1_555 1_555
O1 In1 1_555 1_555
O2 P2 1_555 1_555
F2 In1 1_555 1_555
O3 P2 1_555 1_555
F3 In2 1_555 1_555
F4 In2 1_555 1_555
O4 In2 1_555 1_555
O5 In3 1_555 1_555
O6 In4 1_555 1_555
O8 In5 1_555 1_555
O9 P1 1_555 1_555
H2 O9 1_555 1_555
N1 H3 1_555 1_555
H4 N1 1_555 1_555
H5 N1 1_555 1_555
C1 N1 1_555 1_555
H6 C1 1_555 1_555
H7 C1 1_555 1_555
C2 C1 1_555 1_555
H8 C2 1_555 1_555
H9 C2 1_555 1_555
N2 C2 1_555 1_555
H10 N2 1_555 1_555
H11 N2 1_555 1_555
N3 C3 1_555 1_555
C3 C4 1_555 1_555
C4 N4 1_555 1_555
N4 C4D 1_555 1_555
C2B N2 1_555 1_555
C1B C2B 1_555 1_555
N1B C1B 1_555 1_555
H3B N1B 1_555 1_555
H4B N1B 1_555 1_555
H5B N1B 1_555 1_555
H6B C1B 1_555 1_555
H7B C1B 1_555 1_555
H8B C2B 1_555 1_555
H9B C2B 1_555 1_555
C4D C3D 1_555 1_555
C3D N3D 1_555 1_555
N4D C4 1_555 1_555
F3D In3 1_555 1_555
P2B O1B 1_555 1_555
O1B In1 1_555 1_555
O2B P2B 1_555 1_555
O3B In2 1_555 1_555
O5B In3 1_555 1_555
P2D O1D 1_555 1_555
O1D In1D 1_555 1_555
O2D P2D 1_555 1_555
O3D P2D 1_555 1_555
O5D In3 1_555 1_555
P2F O1F 1_555 1_555
O1F In1D 1_555 1_555
O2F P2F 1_555 1_555
O3F P2F 1_555 1_555
O5F In3 1_555 1_555
In1D F1D 1_555 1_555
In2D F3D 1_555 1_555
P1B O4B 1_555 1_555
O4B In2 1_555 1_555
O6B In4 1_555 1_555
O8B P1B 1_555 1_555
O9B P1B 1_555 1_555
H2B O9B 1_555 1_555
F2D In1D 1_555 1_555
F4D In2D 1_555 1_555
P1D O4D 1_555 1_555
O4D In2D 1_555 1_555
O6D P1D 1_555 1_555
O8D P1D 1_555 1_555
O9D P1D 1_555 1_555
H2D O9D 1_555 1_555
P1F O4F 1_555 1_555
O4F In2D 1_555 1_555
O6F P1F 1_555 1_555
O8F P1F 1_555 1_555
O9F P1F 1_555 1_555
H2F O9F 1_555 1_555
O7D In5 1_555 1_555
O2E In1 1_555 1_555
O2G In1 1_555 1_555
F4D_2 In4 1_555 1_555
O6D_2 In4 1_555 1_555
O6F_2 In4 1_555 1_555
O8B_2 In5 1_555 1_555
O8D_2 In5 1_555 1_555
O8F_2 In5 1_555 1_555
In1E O2 1_555 1_555
In1E_2 O2B 1_555 1_555
In1A O2D 1_555 1_555
In1A_2 O2F 1_555 1_555
O2A In1D 1_555 1_555
O2C In1D 1_555 1_555
In5_2 O8B 1_555 1_555
In4_2 F4D 1_555 1_555
In5_3 O8D 1_555 1_555
In5_4 O8F 1_555 1_555
P1 O6 1_555 1_555
P1 O8 1_555 1_555
P2 O5 1_555 1_555
N4 N4D 1_555 1_555
C4D N4D 1_555 1_555
P2B O3B 1_555 1_555
P2B O5B 1_555 1_555
P2D O5D 1_555 1_555
O3D In2D 1_555 1_555
P2F O5F 1_555 1_555
O3F In2D 1_555 1_555
P1B O6B 1_555 1_555
O6D In4_2 1_555 1_555
O6F In4_2 1_555 1_555

#END
