
#######################################################################
#
#                 Cambridge Crystallographic Data Centre
#                                CCDC 
#
#######################################################################
#
# If this CIF has been generated from an entry in the Cambridge 
# Structural Database, then it will include bibliographic, chemical, 
# crystal, experimental, refinement or atomic coordinate data resulting 
# from the CCDC's data processing and validation procedures.
#
#######################################################################

data_BOWNUY
_chemical_formula_moiety         '(C72 H48 Cu12 N96 O15)n'
_symmetry_cell_setting           cubic
_symmetry_space_group_name_H-M   'P m -3 m'
_symmetry_Int_Tables_number      221
_space_group_name_Hall           '-P 4 2 3'
loop_
_symmetry_equiv_pos_site_id
_symmetry_equiv_pos_as_xyz
1 x,y,z
2 -y,x,z
3 x,-y,-z
4 z,x,y
5 -x,-y,z
6 -y,-x,-z
7 y,x,-z
8 z,-y,x
9 -x,z,y
10 -z,x,-y
11 z,-x,-y
12 y,z,x
13 y,-x,z
14 -x,y,-z
15 -z,-x,y
16 -z,-y,-x
17 -x,-z,-y
18 z,y,-x
19 x,z,-y
20 -z,y,x
21 -y,-z,x
22 y,-z,-x
23 -y,z,-x
24 x,-z,y
25 -x,-y,-z
26 y,-x,-z
27 -x,y,z
28 -z,-x,-y
29 x,y,-z
30 y,x,z
31 -y,-x,z
32 -z,y,-x
33 x,-z,-y
34 z,-x,y
35 -z,x,y
36 -y,-z,-x
37 -y,x,-z
38 x,-y,z
39 z,x,-y
40 z,y,x
41 x,z,y
42 -z,-y,x
43 -x,-z,y
44 z,-y,-x
45 y,z,-x
46 -y,z,x
47 y,-z,x
48 -x,z,-y
_cell_length_a                   18.6233(12)
_cell_length_b                   18.6233(12)
_cell_length_c                   18.6233(12)
_cell_angle_alpha                90
_cell_angle_beta                 90
_cell_angle_gamma                90
_cell_volume                     6459.07
loop_
_atom_site_label
_atom_site_type_symbol
_atom_site_fract_x
_atom_site_fract_y
_atom_site_fract_z
Cu1 Cu 0.5000 0.13144(5) 0.0000
O1 O 0.5000 0.0000 0.0000
N1 N 0.36899(15) 0.17389(17) 0.08854(17)
N2 N 0.42462(15) 0.12873(15) 0.07781(15)
C1 C 0.2402(2) 0.2402(2) 0.1483(3)
H1 H 0.2604 0.2604 0.1073
C2 C 0.2709(3) 0.1792(2) 0.1792(2)
C3 C 0.3362(3) 0.1471(2) 0.1471(2)
O2 O 0.5000 0.2601(5) 0.0000
N1C N 0.08854(17) 0.36899(15) 0.17389(17)
N2C N 0.07781(15) 0.42462(15) 0.12873(15)
C1C C 0.1483(3) 0.2402(2) 0.2402(2)
H1C H 0.1073 0.2604 0.2604
C2C C 0.1792(2) 0.2709(3) 0.1792(2)
C3C C 0.1471(2) 0.3362(3) 0.1471(2)
N1K N 0.17389(17) 0.08854(17) 0.36899(15)
N2K N 0.12873(15) 0.07781(15) 0.42462(15)
C1K C 0.2402(2) 0.1483(3) 0.2402(2)
H1K H 0.2604 0.1073 0.2604
C2K C 0.1792(2) 0.1792(2) 0.2709(3)
C3K C 0.1471(2) 0.1471(2) 0.3362(3)
N1CA N 0.17389(17) 0.36899(15) 0.08854(17)
N2CA N 0.12873(15) 0.42462(15) 0.07781(15)
N1MA N 0.08854(17) 0.17389(17) 0.36899(15)
N2MA N 0.07781(15) 0.12873(15) 0.42462(15)
N1NA N 0.36899(15) 0.08854(17) 0.17389(17)
N2NA N 0.42462(15) 0.07781(15) 0.12873(15)
Cu1A Cu 0.86856(5) 0.5000 0.0000
O1A O 1.0000 0.5000 0.0000
N1A N 0.82611(17) 0.36899(15) 0.08854(17)
N2A N 0.87127(15) 0.42462(15) 0.07781(15)
C1A C 0.7598(2) 0.2402(2) 0.1483(3)
H1A H 0.7396 0.2604 0.1073
C2A C 0.8208(2) 0.2709(3) 0.1792(2)
C3A C 0.8529(2) 0.3362(3) 0.1471(2)
O2A O 0.7399(5) 0.5000 0.0000
N1H N 0.63101(15) 0.08854(17) 0.17389(17)
N2H N 0.57538(15) 0.07781(15) 0.12873(15)
C1H C 0.7598(2) 0.1483(3) 0.2402(2)
H1H H 0.7396 0.1073 0.2604
C2H C 0.7291(3) 0.1792(2) 0.1792(2)
C3H C 0.6638(3) 0.1471(2) 0.1471(2)
N1S N 0.91146(17) 0.17389(17) 0.36899(15)
N2S N 0.92219(15) 0.12873(15) 0.42462(15)
C1S C 0.8517(3) 0.2402(2) 0.2402(2)
H1S H 0.8927 0.2604 0.2604
C2S C 0.8208(2) 0.1792(2) 0.2709(3)
C3S C 0.8529(2) 0.1471(2) 0.3362(3)
N1Z N 0.63101(15) 0.17389(17) 0.08854(17)
N2Z N 0.57538(15) 0.12873(15) 0.07781(15)
N1SA N 0.82611(17) 0.08854(17) 0.36899(15)
N2SA N 0.87127(15) 0.07781(15) 0.42462(15)
N1HA N 0.91146(17) 0.36899(15) 0.17389(17)
N2HA N 0.92219(15) 0.42462(15) 0.12873(15)
Cu1C Cu 0.0000 0.5000 0.13144(5)
O1A_2 O 0.0000 0.5000 0.0000
O2C O 0.0000 0.5000 0.2601(5)
Cu1F Cu 0.13144(5) 0.5000 0.0000
N1F N 0.17389(17) 0.36899(15) -0.08854(17)
N2F N 0.12873(15) 0.42462(15) -0.07781(15)
C1F C 0.2402(2) 0.2402(2) -0.1483(3)
H1F H 0.2604 0.2604 -0.1073
C2F C 0.1792(2) 0.2709(3) -0.1792(2)
C3F C 0.1471(2) 0.3362(3) -0.1471(2)
O2F O 0.2601(5) 0.5000 0.0000
N1R N 0.36899(15) 0.08854(17) -0.17389(17)
N2R N 0.42462(15) 0.07781(15) -0.12873(15)
C1R C 0.2402(2) 0.1483(3) -0.2402(2)
H1R H 0.2604 0.1073 -0.2604
C2R C 0.2709(3) 0.1792(2) -0.1792(2)
C3R C 0.3362(3) 0.1471(2) -0.1471(2)
N1Q N 0.08854(17) 0.17389(17) -0.36899(15)
N2Q N 0.07781(15) 0.12873(15) -0.42462(15)
C1Q C 0.1483(3) 0.2402(2) -0.2402(2)
H1Q H 0.1073 0.2604 -0.2604
C2Q C 0.1792(2) 0.1792(2) -0.2709(3)
C3Q C 0.1471(2) 0.1471(2) -0.3362(3)
N1BA N 0.36899(15) 0.17389(17) -0.08854(17)
N2BA N 0.42462(15) 0.12873(15) -0.07781(15)
N1RA N 0.17389(17) 0.08854(17) -0.36899(15)
N2RA N 0.12873(15) 0.07781(15) -0.42462(15)
N1LA N 0.08854(17) 0.36899(15) -0.17389(17)
N2LA N 0.07781(15) 0.42462(15) -0.12873(15)
Cu1I Cu 0.0000 0.5000 -0.13144(5)
N1I N -0.08854(17) 0.36899(15) -0.17389(17)
N2I N -0.07781(15) 0.42462(15) -0.12873(15)
C1I C -0.1483(3) 0.2402(2) -0.2402(2)
H1I H -0.1073 0.2604 -0.2604
C2I C -0.1792(2) 0.2709(3) -0.1792(2)
C3I C -0.1471(2) 0.3362(3) -0.1471(2)
O2I O 0.0000 0.5000 -0.2601(5)
N1V N -0.17389(17) 0.08854(17) -0.36899(15)
N2V N -0.12873(15) 0.07781(15) -0.42462(15)
C1V C -0.2402(2) 0.1483(3) -0.2402(2)
H1V H -0.2604 0.1073 -0.2604
C2V C -0.1792(2) 0.1792(2) -0.2709(3)
C3V C -0.1471(2) 0.1471(2) -0.3362(3)
N1M N -0.36899(15) 0.17389(17) -0.08854(17)
N2M N -0.42462(15) 0.12873(15) -0.07781(15)
C1M C -0.2402(2) 0.2402(2) -0.1483(3)
H1M H -0.2604 0.2604 -0.1073
C2M C -0.2709(3) 0.1792(2) -0.1792(2)
C3M C -0.3362(3) 0.1471(2) -0.1471(2)
N1EA N -0.08854(17) 0.17389(17) -0.36899(15)
N2EA N -0.07781(15) 0.12873(15) -0.42462(15)
N1UA N -0.36899(15) 0.08854(17) -0.17389(17)
N2UA N -0.42462(15) 0.07781(15) -0.12873(15)
N1JA N -0.17389(17) 0.36899(15) -0.08854(17)
N2JA N -0.12873(15) 0.42462(15) -0.07781(15)
Cu1K Cu 0.13144(5) 0.0000 0.5000
O2K O 0.2601(5) 0.0000 0.5000
Cu1F_2 Cu 0.13144(5) -0.5000 0.0000
N1L N 0.17389(17) -0.36899(15) 0.08854(17)
N2L N 0.12873(15) -0.42462(15) 0.07781(15)
C1L C 0.2402(2) -0.2402(2) 0.1483(3)
H1L H 0.2604 -0.2604 0.1073
C2L C 0.1792(2) -0.2709(3) 0.1792(2)
C3L C 0.1471(2) -0.3362(3) 0.1471(2)
O2F_2 O 0.2601(5) -0.5000 0.0000
N1W N 0.36899(15) -0.08854(17) 0.17389(17)
N2W N 0.42462(15) -0.07781(15) 0.12873(15)
C1W C 0.2402(2) -0.1483(3) 0.2402(2)
H1W H 0.2604 -0.1073 0.2604
C2W C 0.2709(3) -0.1792(2) 0.1792(2)
C3W C 0.3362(3) -0.1471(2) 0.1471(2)
N1G N 0.08854(17) -0.17389(17) 0.36899(15)
N2G N 0.07781(15) -0.12873(15) 0.42462(15)
C1G C 0.1483(3) -0.2402(2) 0.2402(2)
H1G H 0.1073 -0.2604 0.2604
C2G C 0.1792(2) -0.1792(2) 0.2709(3)
C3G C 0.1471(2) -0.1471(2) 0.3362(3)
N1KA N 0.36899(15) -0.17389(17) 0.08854(17)
N2KA N 0.42462(15) -0.12873(15) 0.07781(15)
N1TA N 0.17389(17) -0.08854(17) 0.36899(15)
N2TA N 0.12873(15) -0.07781(15) 0.42462(15)
N1GA N 0.08854(17) -0.36899(15) 0.17389(17)
N2GA N 0.07781(15) -0.42462(15) 0.12873(15)
Cu1K_2 Cu 0.13144(5) 0.0000 -0.5000
N1U N 0.17389(17) -0.08854(17) -0.36899(15)
N2U N 0.12873(15) -0.07781(15) -0.42462(15)
C1U C 0.2402(2) -0.1483(3) -0.2402(2)
H1U H 0.2604 -0.1073 -0.2604
C2U C 0.1792(2) -0.1792(2) -0.2709(3)
C3U C 0.1471(2) -0.1471(2) -0.3362(3)
O2K_2 O 0.2601(5) 0.0000 -0.5000
N1B N 0.36899(15) -0.17389(17) -0.08854(17)
N2B N 0.42462(15) -0.12873(15) -0.07781(15)
C1B C 0.2402(2) -0.2402(2) -0.1483(3)
H1B H 0.2604 -0.2604 -0.1073
C2B C 0.2709(3) -0.1792(2) -0.1792(2)
C3B C 0.3362(3) -0.1471(2) -0.1471(2)
N1J N 0.08854(17) -0.36899(15) -0.17389(17)
N2J N 0.07781(15) -0.42462(15) -0.12873(15)
C1J C 0.1483(3) -0.2402(2) -0.2402(2)
H1J H 0.1073 -0.2604 -0.2604
C2J C 0.1792(2) -0.2709(3) -0.1792(2)
C3J C 0.1471(2) -0.3362(3) -0.1471(2)
N1FA N 0.36899(15) -0.08854(17) -0.17389(17)
N2FA N 0.42462(15) -0.07781(15) -0.12873(15)
N1Y N 0.17389(17) -0.36899(15) -0.08854(17)
N2Y N 0.12873(15) -0.42462(15) -0.07781(15)
N1QA N 0.08854(17) -0.17389(17) -0.36899(15)
N2QA N 0.07781(15) -0.12873(15) -0.42462(15)
Cu1P Cu 0.5000 0.0000 -0.13144(5)
O2P O 0.5000 0.0000 -0.2601(5)
Cu1C_2 Cu -0.0000 -0.5000 0.13144(5)
O2C_2 O -0.0000 -0.5000 0.2601(5)
Cu1Q Cu 0.0000 0.13144(5) 0.5000
O2Q O 0.0000 0.2601(5) 0.5000
Cu1H Cu 0.5000 0.0000 0.13144(5)
O2H O 0.5000 -0.0000 0.2601(5)
N1OA N -0.08854(17) -0.17389(17) 0.36899(15)
N2OA N -0.07781(15) -0.12873(15) 0.42462(15)
C1N C -0.1483(3) -0.2402(2) 0.2402(2)
H1N H -0.1073 -0.2604 0.2604
C2T C -0.1792(2) -0.1792(2) 0.2709(3)
C3T C -0.1471(2) -0.1471(2) 0.3362(3)
N1DA N -0.17389(17) -0.36899(15) 0.08854(17)
N2DA N -0.12873(15) -0.42462(15) 0.07781(15)
C1D C -0.2402(2) -0.2402(2) 0.1483(3)
H1D H -0.2604 -0.2604 0.1073
C2N C -0.1792(2) -0.2709(3) 0.1792(2)
C3N C -0.1471(2) -0.3362(3) 0.1471(2)
N1PA N -0.36899(15) -0.08854(17) 0.17389(17)
N2PA N -0.42462(15) -0.07781(15) 0.12873(15)
C1T C -0.2402(2) -0.1483(3) 0.2402(2)
H1T H -0.2604 -0.1073 0.2604
C2D C -0.2709(3) -0.1792(2) 0.1792(2)
C3D C -0.3362(3) -0.1471(2) 0.1471(2)
N1N N -0.08854(17) -0.36899(15) 0.17389(17)
N2N N -0.07781(15) -0.42462(15) 0.12873(15)
N1D N -0.36899(15) -0.17389(17) 0.08854(17)
N2D N -0.42462(15) -0.12873(15) 0.07781(15)
N1T N -0.17389(17) -0.08854(17) 0.36899(15)
N2T N -0.12873(15) -0.07781(15) 0.42462(15)
N1M_2 N 0.63101(15) 0.17389(17) -0.08854(17)
N2M_2 N 0.57538(15) 0.12873(15) -0.07781(15)
C1M_2 C 0.7598(2) 0.2402(2) -0.1483(3)
H1M_2 H 0.7396 0.2604 -0.1073
C2M_2 C 0.7291(3) 0.1792(2) -0.1792(2)
C3M_2 C 0.6638(3) 0.1471(2) -0.1471(2)
N1I_2 N 0.91146(17) 0.36899(15) -0.17389(17)
N2I_2 N 0.92219(15) 0.42462(15) -0.12873(15)
C1I_2 C 0.8517(3) 0.2402(2) -0.2402(2)
H1I_2 H 0.8927 0.2604 -0.2604
C2I_2 C 0.8208(2) 0.2709(3) -0.1792(2)
C3I_2 C 0.8529(2) 0.3362(3) -0.1471(2)
N1V_2 N 0.82611(17) 0.08854(17) -0.36899(15)
N2V_2 N 0.87127(15) 0.07781(15) -0.42462(15)
C1V_2 C 0.7598(2) 0.1483(3) -0.2402(2)
H1V_2 H 0.7396 0.1073 -0.2604
C2V_2 C 0.8208(2) 0.1792(2) -0.2709(3)
C3V_2 C 0.8529(2) 0.1471(2) -0.3362(3)
N1JA_2 N 0.82611(17) 0.36899(15) -0.08854(17)
N2JA_2 N 0.87127(15) 0.42462(15) -0.07781(15)
N1EA_2 N 0.91146(17) 0.17389(17) -0.36899(15)
N2EA_2 N 0.92219(15) 0.12873(15) -0.42462(15)
N1UA_2 N 0.63101(15) 0.08854(17) -0.17389(17)
N2UA_2 N 0.57538(15) 0.07781(15) -0.12873(15)
Cu1_2 Cu -0.5000 0.13144(5) 0.0000
Cu1A_2 Cu -0.13144(5) -0.5000 0.0000
Cu1A_3 Cu -0.13144(5) 0.5000 0.0000
Cu1B Cu -0.5000 -0.13144(5) 0.0000
Cu1B_2 Cu 0.5000 -0.13144(5) 0.0000
Cu1C_3 Cu 1.0000 0.5000 0.13144(5)
Cu1F_3 Cu 1.13144(5) 0.5000 0.0000
Cu1G Cu 0.0000 -0.13144(5) -0.5000
Cu1G_2 Cu 0.0000 -0.13144(5) 0.5000
Cu1H_2 Cu -0.5000 0.0000 0.13144(5)
Cu1I_2 Cu 0.0000 -0.5000 -0.13144(5)
Cu1I_3 Cu 1.0000 0.5000 -0.13144(5)
Cu1P_2 Cu -0.5000 0.0000 -0.13144(5)
Cu1Q_2 Cu 0.0000 0.13144(5) -0.5000
Cu1Q_3 Cu 1.0000 0.13144(5) -0.5000
Cu1Q_4 Cu 1.0000 0.13144(5) 0.5000
Cu1T Cu -0.13144(5) 0.0000 -0.5000
Cu1T_2 Cu -0.13144(5) 0.0000 0.5000
Cu1T_3 Cu 0.86856(5) 0.0000 -0.5000
Cu1T_4 Cu 0.86856(5) 0.0000 0.5000
O1A_3 O 0.0000 -0.5000 0.0000
O1G O 0.0000 0.0000 -0.5000
O1G_2 O 0.0000 0.0000 0.5000
N2C_2 N 0.07781(15) -0.57538(15) 0.12873(15)
N2E N 0.87127(15) 0.57538(15) -0.07781(15)
N2F_2 N 0.12873(15) -0.57538(15) -0.07781(15)
N2J_2 N 0.07781(15) 0.57538(15) -0.12873(15)
N2K_2 N 0.12873(15) 0.07781(15) -0.57538(15)
N2L_2 N 0.12873(15) 0.57538(15) 0.07781(15)
N2N_2 N -0.07781(15) 0.57538(15) 0.12873(15)
N2P N 0.57538(15) -0.07781(15) -0.12873(15)
N2Q_2 N 0.07781(15) 0.12873(15) 0.57538(15)
N2S_2 N -0.07781(15) 0.12873(15) 0.42462(15)
N2U_2 N 0.12873(15) -0.07781(15) 0.57538(15)
N2Y_2 N 0.12873(15) 0.57538(15) -0.07781(15)
N2AA N -0.07781(15) 0.57538(15) -0.12873(15)
N2CA_2 N 0.12873(15) -0.57538(15) 0.07781(15)
N2DA_2 N 0.87127(15) 0.57538(15) 0.07781(15)
N2EA_3 N -0.07781(15) 0.12873(15) 0.57538(15)
N2GA_2 N 0.07781(15) 0.57538(15) 0.12873(15)
N2HA_2 N -0.07781(15) -0.57538(15) 0.12873(15)
N2HA_3 N -0.07781(15) 0.42462(15) 0.12873(15)
N2PA_2 N 0.57538(15) -0.07781(15) 0.12873(15)
N2RA_2 N 0.12873(15) 0.07781(15) 0.57538(15)
N2TA_2 N 0.12873(15) -0.07781(15) -0.57538(15)
loop_
_geom_bond_atom_site_label_1
_geom_bond_atom_site_label_2
_geom_bond_site_symmetry_1
_geom_bond_site_symmetry_2
Cu1 O1 1_555 1_555
O1 Cu1P 1_555 1_555
N1 N2 1_555 1_555
N2 Cu1 1_555 1_555
C1 H1 1_555 1_555
C2 C1 1_555 1_555
C3 N1 1_555 1_555
O2 Cu1 1_555 1_555
N1C N2C 1_555 1_555
N2C N2CA 1_555 1_555
C1C H1C 1_555 1_555
C2C C1 1_555 1_555
C3C N1C 1_555 1_555
N1K N2K 1_555 1_555
N2K N2MA 1_555 1_555
C1K C2 1_555 1_555
H1K C1K 1_555 1_555
C2K C1C 1_555 1_555
C3K N1K 1_555 1_555
N1CA C3C 1_555 1_555
N2CA N1CA 1_555 1_555
N1MA C3K 1_555 1_555
N2MA N1MA 1_555 1_555
N1NA C3 1_555 1_555
N2NA N2 1_555 1_555
Cu1A O1A 1_555 1_555
O1A Cu1C_3 1_555 1_555
N1A N2A 1_555 1_555
N2A Cu1A 1_555 1_555
C1A H1A 1_555 1_555
C2A C1A 1_555 1_555
C3A N1A 1_555 1_555
O2A Cu1A 1_555 1_555
N1H N2H 1_555 1_555
N2H N2Z 1_555 1_555
C1H H1H 1_555 1_555
C2H C1A 1_555 1_555
C3H N1H 1_555 1_555
N1S N2S 1_555 1_555
N2S N2SA 1_555 1_555
C1S C2A 1_555 1_555
H1S C1S 1_555 1_555
C2S C1H 1_555 1_555
C3S N1S 1_555 1_555
N1Z C3H 1_555 1_555
N2Z Cu1 1_555 1_555
N1SA C3S 1_555 1_555
N2SA N1SA 1_555 1_555
N1HA C3A 1_555 1_555
N2HA N2A 1_555 1_555
Cu1C N2C 1_555 1_555
O1A_2 Cu1C 1_555 1_555
O2C Cu1C 1_555 1_555
Cu1F N2CA 1_555 1_555
N1F N2F 1_555 1_555
N2F Cu1F 1_555 1_555
C1F H1F 1_555 1_555
C2F C1F 1_555 1_555
C3F N1F 1_555 1_555
O2F Cu1F 1_555 1_555
N1R N2R 1_555 1_555
N2R N2BA 1_555 1_555
C1R H1R 1_555 1_555
C2R C1F 1_555 1_555
C3R N1R 1_555 1_555
N1Q N2Q 1_555 1_555
N2Q N2RA 1_555 1_555
C1Q C2F 1_555 1_555
H1Q C1Q 1_555 1_555
C2Q C1R 1_555 1_555
C3Q N1Q 1_555 1_555
N1BA C3R 1_555 1_555
N2BA Cu1 1_555 1_555
N1RA C3Q 1_555 1_555
N2RA N1RA 1_555 1_555
N1LA C3F 1_555 1_555
N2LA N2F 1_555 1_555
Cu1I O1A_2 1_555 1_555
N1I N2I 1_555 1_555
N2I Cu1I 1_555 1_555
C1I H1I 1_555 1_555
C2I C1I 1_555 1_555
C3I N1I 1_555 1_555
O2I Cu1I 1_555 1_555
N1V N2V 1_555 1_555
N2V N2EA 1_555 1_555
C1V H1V 1_555 1_555
C2V C1I 1_555 1_555
C3V N1V 1_555 1_555
N1M N2M 1_555 1_555
N2M N2UA 1_555 1_555
C1M C2I 1_555 1_555
H1M C1M 1_555 1_555
C2M C1V 1_555 1_555
C3M N1M 1_555 1_555
N1EA C3V 1_555 1_555
N2EA N1EA 1_555 1_555
N1UA C3M 1_555 1_555
N2UA N1UA 1_555 1_555
N1JA C3I 1_555 1_555
N2JA N2I 1_555 1_555
Cu1K N2K 1_555 1_555
O2K Cu1K 1_555 1_555
Cu1F_2 N2L 1_555 1_555
N1L N2L 1_555 1_555
N2L N2GA 1_555 1_555
C1L H1L 1_555 1_555
C2L C1L 1_555 1_555
C3L N1L 1_555 1_555
O2F_2 Cu1F_2 1_555 1_555
N1W N2W 1_555 1_555
N2W N2KA 1_555 1_555
C1W H1W 1_555 1_555
C2W C1L 1_555 1_555
C3W N1W 1_555 1_555
N1G N2G 1_555 1_555
N2G N2TA 1_555 1_555
C1G C2L 1_555 1_555
H1G C1G 1_555 1_555
C2G C1W 1_555 1_555
C3G N1G 1_555 1_555
N1KA C3W 1_555 1_555
N2KA N1KA 1_555 1_555
N1TA C3G 1_555 1_555
N2TA Cu1K 1_555 1_555
N1GA C3L 1_555 1_555
N2GA N1GA 1_555 1_555
Cu1K_2 N2RA 1_555 1_555
N1U N2U 1_555 1_555
N2U Cu1K_2 1_555 1_555
C1U H1U 1_555 1_555
C2U C1U 1_555 1_555
C3U N1U 1_555 1_555
O2K_2 Cu1K_2 1_555 1_555
N1B N2B 1_555 1_555
N2B N2FA 1_555 1_555
C1B H1B 1_555 1_555
C2B C1U 1_555 1_555
C3B N1B 1_555 1_555
N1J N2J 1_555 1_555
N2J N2Y 1_555 1_555
C1J C2U 1_555 1_555
H1J C1J 1_555 1_555
C2J C1B 1_555 1_555
C3J N1J 1_555 1_555
N1FA C3B 1_555 1_555
N2FA N1FA 1_555 1_555
N1Y C3J 1_555 1_555
N2Y Cu1F_2 1_555 1_555
N1QA C3U 1_555 1_555
N2QA N2U 1_555 1_555
Cu1P N2R 1_555 1_555
O2P Cu1P 1_555 1_555
Cu1C_2 N2GA 1_555 1_555
O2C_2 Cu1C_2 1_555 1_555
Cu1Q N2MA 1_555 1_555
O2Q Cu1Q 1_555 1_555
Cu1H O1 1_555 1_555
O2H Cu1H 1_555 1_555
N1OA N2OA 1_555 1_555
N2OA N2T 1_555 1_555
C1N H1N 1_555 1_555
C2T C1N 1_555 1_555
C3T N1OA 1_555 1_555
N1DA N2DA 1_555 1_555
N2DA N2N 1_555 1_555
C1D H1D 1_555 1_555
C2N C1N 1_555 1_555
C3N N1DA 1_555 1_555
N1PA N2PA 1_555 1_555
N2PA N2D 1_555 1_555
C1T C2T 1_555 1_555
H1T C1T 1_555 1_555
C2D C1D 1_555 1_555
C3D N1PA 1_555 1_555
N1N C3N 1_555 1_555
N2N Cu1C_2 1_555 1_555
N1D C3D 1_555 1_555
N2D N1D 1_555 1_555
N1T C3T 1_555 1_555
N2T N1T 1_555 1_555
N1M_2 N2M_2 1_555 1_555
N2M_2 Cu1 1_555 1_555
C1M_2 H1M_2 1_555 1_555
C2M_2 C1M_2 1_555 1_555
C3M_2 N1M_2 1_555 1_555
N1I_2 N2I_2 1_555 1_555
N2I_2 N2JA_2 1_555 1_555
C1I_2 H1I_2 1_555 1_555
C2I_2 C1M_2 1_555 1_555
C3I_2 N1I_2 1_555 1_555
N1V_2 N2V_2 1_555 1_555
N2V_2 N2EA_2 1_555 1_555
C1V_2 C2M_2 1_555 1_555
H1V_2 C1V_2 1_555 1_555
C2V_2 C1I_2 1_555 1_555
C3V_2 N1V_2 1_555 1_555
N1JA_2 C3I_2 1_555 1_555
N2JA_2 Cu1A 1_555 1_555
N1EA_2 C3V_2 1_555 1_555
N2EA_2 N1EA_2 1_555 1_555
N1UA_2 C3M_2 1_555 1_555
N2UA_2 Cu1P 1_555 1_555
Cu1_2 N2M 1_555 1_555
Cu1A_2 N2DA 1_555 1_555
Cu1A_3 O1A_2 1_555 1_555
Cu1B N2D 1_555 1_555
Cu1B_2 O1 1_555 1_555
Cu1C_3 N2HA 1_555 1_555
Cu1F_3 O1A 1_555 1_555
Cu1G N2QA 1_555 1_555
Cu1G_2 N2G 1_555 1_555
Cu1H_2 N2PA 1_555 1_555
Cu1I_2 N2J 1_555 1_555
Cu1I_3 O1A 1_555 1_555
Cu1P_2 N2UA 1_555 1_555
Cu1Q_2 N2Q 1_555 1_555
Cu1Q_3 N2EA_2 1_555 1_555
Cu1Q_4 N2S 1_555 1_555
Cu1T N2V 1_555 1_555
Cu1T_2 N2T 1_555 1_555
Cu1T_3 N2V_2 1_555 1_555
Cu1T_4 N2SA 1_555 1_555
O1A_3 Cu1F_2 1_555 1_555
O1G Cu1K_2 1_555 1_555
O1G_2 Cu1K 1_555 1_555
N2C_2 Cu1C_2 1_555 1_555
N2E Cu1A 1_555 1_555
N2F_2 Cu1F_2 1_555 1_555
N2J_2 Cu1I 1_555 1_555
N2K_2 Cu1K_2 1_555 1_555
N2L_2 Cu1F 1_555 1_555
N2N_2 Cu1C 1_555 1_555
N2P Cu1P 1_555 1_555
N2Q_2 Cu1Q 1_555 1_555
N2S_2 Cu1Q 1_555 1_555
N2U_2 Cu1K 1_555 1_555
N2Y_2 Cu1F 1_555 1_555
N2AA Cu1I 1_555 1_555
N2CA_2 Cu1F_2 1_555 1_555
N2DA_2 Cu1A 1_555 1_555
N2EA_3 Cu1Q 1_555 1_555
N2GA_2 Cu1C 1_555 1_555
N2HA_2 Cu1C_2 1_555 1_555
N2HA_3 Cu1C 1_555 1_555
N2PA_2 Cu1H 1_555 1_555
N2RA_2 Cu1K 1_555 1_555
N2TA_2 Cu1K_2 1_555 1_555
C2 C3 1_555 1_555
C1C C2C 1_555 1_555
C2C C3C 1_555 1_555
C1K C2K 1_555 1_555
C2K C3K 1_555 1_555
N1NA N2NA 1_555 1_555
N2NA Cu1H 1_555 1_555
C2A C3A 1_555 1_555
N2H Cu1H 1_555 1_555
C1H C2H 1_555 1_555
C2H C3H 1_555 1_555
C1S C2S 1_555 1_555
C2S C3S 1_555 1_555
N1Z N2Z 1_555 1_555
N1HA N2HA 1_555 1_555
O1A_2 Cu1F 1_555 1_555
C2F C3F 1_555 1_555
C1R C2R 1_555 1_555
C2R C3R 1_555 1_555
C1Q C2Q 1_555 1_555
C2Q C3Q 1_555 1_555
N1BA N2BA 1_555 1_555
N1LA N2LA 1_555 1_555
N2LA Cu1I 1_555 1_555
C2I C3I 1_555 1_555
C1V C2V 1_555 1_555
C2V C3V 1_555 1_555
C1M C2M 1_555 1_555
C2M C3M 1_555 1_555
N2EA Cu1Q_2 1_555 1_555
N1JA N2JA 1_555 1_555
N2JA Cu1A_3 1_555 1_555
C2L C3L 1_555 1_555
N2W Cu1H 1_555 1_555
C1W C2W 1_555 1_555
C2W C3W 1_555 1_555
C1G C2G 1_555 1_555
C2G C3G 1_555 1_555
N2KA Cu1B_2 1_555 1_555
N1TA N2TA 1_555 1_555
C2U C3U 1_555 1_555
N2B Cu1B_2 1_555 1_555
C1B C2B 1_555 1_555
C2B C3B 1_555 1_555
C1J C2J 1_555 1_555
C2J C3J 1_555 1_555
N2FA Cu1P 1_555 1_555
N1Y N2Y 1_555 1_555
N1QA N2QA 1_555 1_555
Cu1C_2 O1A_3 1_555 1_555
Cu1Q O1G_2 1_555 1_555
N2OA Cu1G_2 1_555 1_555
C2T C3T 1_555 1_555
C1D C2N 1_555 1_555
C2N C3N 1_555 1_555
C1T C2D 1_555 1_555
C2D C3D 1_555 1_555
N1N N2N 1_555 1_555
N2M_2 N2UA_2 1_555 1_555
C2M_2 C3M_2 1_555 1_555
N2I_2 Cu1I_3 1_555 1_555
C1I_2 C2I_2 1_555 1_555
C2I_2 C3I_2 1_555 1_555
C1V_2 C2V_2 1_555 1_555
C2V_2 C3V_2 1_555 1_555
N1JA_2 N2JA_2 1_555 1_555
N1UA_2 N2UA_2 1_555 1_555
Cu1A_2 O1A_3 1_555 1_555
Cu1G O1G 1_555 1_555
Cu1G_2 O1G_2 1_555 1_555
Cu1I_2 O1A_3 1_555 1_555
Cu1Q_2 O1G 1_555 1_555
Cu1T O1G 1_555 1_555
Cu1T_2 O1G_2 1_555 1_555
N2C_2 N2CA_2 1_555 1_555
N2J_2 N2Y_2 1_555 1_555
N2L_2 N2GA_2 1_555 1_555
N2Q_2 N2RA_2 1_555 1_555

#END
