
#######################################################################
#
#                 Cambridge Crystallographic Data Centre
#                                CCDC 
#
#######################################################################
#
# If this CIF has been generated from an entry in the Cambridge 
# Structural Database, then it will include bibliographic, chemical, 
# crystal, experimental, refinement or atomic coordinate data resulting 
# from the CCDC's data processing and validation procedures.
#
#######################################################################

data_YOYNOR
_chemical_formula_moiety         '(C63 H39 B1 F4 N12 Ni2 O6)n'
_symmetry_cell_setting           trigonal
_symmetry_space_group_name_H-M   'P -3 1 c'
_symmetry_Int_Tables_number      163
_space_group_name_Hall           '-P 3 2c'
loop_
_symmetry_equiv_pos_site_id
_symmetry_equiv_pos_as_xyz
1 x,y,z
2 -y,x-y,z
3 -x+y,-x,z
4 -y,-x,1/2-z
5 x,x-y,1/2-z
6 -x+y,y,1/2-z
7 -x,-y,-z
8 y,-x+y,-z
9 x-y,x,-z
10 y,x,1/2+z
11 -x,-x+y,1/2+z
12 x-y,-y,1/2+z
_cell_length_a                   16.774(5)
_cell_length_b                   16.774(5)
_cell_length_c                   13.913(5)
_cell_angle_alpha                90
_cell_angle_beta                 90
_cell_angle_gamma                120
_cell_volume                     3390.2
loop_
_atom_site_label
_atom_site_type_symbol
_atom_site_fract_x
_atom_site_fract_y
_atom_site_fract_z
F1 F 0.176(2) 0.840(2) 0.2654(19)
F2 F 0.2485(8) 0.7737(8) 0.3046(9)
B1 B 0.2069(7) 0.7931(7) 0.2500
F1C F 0.160(2) 0.824(2) 0.2346(19)
F2C F 0.2263(8) 0.7515(8) 0.1954(9)
Ni1 Ni -0.3333 0.3333 0.10433(7)
O1 O -0.2213(2) 0.3533(2) 0.1815(3)
N1 N 0.1142(3) 0.6102(3) 0.4121(3)
N2 N 0.2294(3) 0.6684(3) 0.5187(3)
C1 C -0.1840(5) 0.4080(2) 0.2500
C2 C -0.0791(5) 0.4605(2) 0.2500
C3 C -0.0321(3) 0.5108(3) 0.3306(4)
H1 H -0.0639 0.5124 0.3846
C4 C 0.0627(3) 0.5583(4) 0.3289(3)
C5 C 0.1116(5) 0.5558(2) 0.2500
H2 H 0.1756 0.5878 0.2500
C6 C 0.1906(3) 0.6110(4) 0.4465(4)
H3 H 0.2131 0.5747 0.4215
C7 C 0.1748(3) 0.7092(4) 0.5321(4)
C8 C 0.1834(4) 0.7765(4) 0.5974(4)
H4 H 0.2290 0.7991 0.6444
C9 C 0.1215(5) 0.8080(5) 0.5896(5)
H5 H 0.1264 0.8536 0.6313
C10 C 0.0518(5) 0.7729(5) 0.5203(5)
H6 H 0.0119 0.7963 0.5170
C11 C 0.0400(5) 0.7044(5) 0.4562(5)
H7 H -0.0070 0.6806 0.4108
C12 C 0.1024(4) 0.6736(4) 0.4642(4)
O1D O -0.2213(2) 0.4254(3) 0.3185(3)
N1D N 0.1142(3) 0.5040(4) 0.0879(3)
N2D N 0.2294(3) 0.5610(4) -0.0187(3)
C3D C -0.0321(3) 0.4571(4) 0.1694(4)
H1D H -0.0639 0.4237 0.1154
C4D C 0.0627(3) 0.5044(5) 0.1711(3)
C6D C 0.1906(3) 0.5796(5) 0.0535(4)
H3D H 0.2131 0.6384 0.0785
C7D C 0.1748(3) 0.4656(5) -0.0321(4)
C8D C 0.1834(4) 0.4069(6) -0.0974(4)
H4D H 0.2290 0.4299 -0.1444
C9D C 0.1215(5) 0.3135(7) -0.0896(5)
H5D H 0.1264 0.2728 -0.1313
C10D C 0.0518(5) 0.2789(7) -0.0203(5)
H6D H 0.0119 0.2156 -0.0170
C11D C 0.0400(5) 0.3356(7) 0.0438(5)
H7D H -0.0070 0.3124 0.0892
C12D C 0.1024(4) 0.4288(6) 0.0358(4)
O1A O -0.3533(2) 0.4254(3) 0.1815(3)
N1A N -0.6102(3) 0.5040(4) 0.4121(3)
N2A N -0.6684(3) 0.5610(4) 0.5187(3)
C1A C -0.4080(2) 0.4080(5) 0.2500
C2A C -0.4605(2) 0.4604(5) 0.2500
C3A C -0.5108(3) 0.4571(4) 0.3306(4)
H1A H -0.5124 0.4237 0.3846
C4A C -0.5583(4) 0.5044(5) 0.3289(3)
C5A C -0.5558(2) 0.5558(5) 0.2500
H2A H -0.5878 0.5878 0.2500
C6A C -0.6110(4) 0.5796(5) 0.4465(4)
H3A H -0.5747 0.6384 0.4215
C7A C -0.7092(4) 0.4656(5) 0.5321(4)
C8A C -0.7765(4) 0.4069(6) 0.5974(4)
H4A H -0.7991 0.4299 0.6444
C9A C -0.8080(5) 0.3135(7) 0.5896(5)
H5A H -0.8536 0.2728 0.6313
C10A C -0.7729(5) 0.2789(7) 0.5203(5)
H6A H -0.7963 0.2156 0.5170
C11A C -0.7044(5) 0.3356(7) 0.4562(5)
H7A H -0.6806 0.3124 0.4108
C12A C -0.6736(4) 0.4288(6) 0.4642(4)
O1E O -0.4254(3) 0.3533(2) 0.3185(3)
N1E N -0.5040(4) 0.6102(3) 0.0879(3)
N2E N -0.5610(4) 0.6684(3) -0.0187(3)
C3E C -0.4571(4) 0.5108(3) 0.1694(4)
H1E H -0.4237 0.5124 0.1154
C4E C -0.5044(5) 0.5583(4) 0.1711(3)
C6E C -0.5796(5) 0.6110(4) 0.0535(4)
H3E H -0.6384 0.5747 0.0785
C7E C -0.4656(5) 0.7092(4) -0.0321(4)
C8E C -0.4069(6) 0.7765(4) -0.0974(4)
H4E H -0.4299 0.7991 -0.1444
C9E C -0.3135(7) 0.8080(5) -0.0896(5)
H5E H -0.2728 0.8536 -0.1313
C10E C -0.2789(7) 0.7729(5) -0.0203(5)
H6E H -0.2156 0.7963 -0.0170
C11E C -0.3356(7) 0.7044(5) 0.0438(5)
H7E H -0.3124 0.6806 0.0892
C12E C -0.4288(6) 0.6736(4) 0.0358(4)
O1B O -0.4254(3) 0.2213(2) 0.1815(3)
N1B N -0.5040(4) -0.1142(3) 0.4121(3)
N2B N -0.5610(4) -0.2294(3) 0.5187(3)
C1B C -0.4080(5) 0.1840(5) 0.2500
C2B C -0.4604(5) 0.0791(5) 0.2500
C3B C -0.4571(4) 0.0321(3) 0.3306(4)
H1B H -0.4237 0.0639 0.3846
C4B C -0.5044(5) -0.0627(3) 0.3289(3)
C5B C -0.5558(5) -0.1116(5) 0.2500
H2B H -0.5878 -0.1756 0.2500
C6B C -0.5796(5) -0.1906(3) 0.4465(4)
H3B H -0.6384 -0.2131 0.4215
C7B C -0.4656(5) -0.1748(3) 0.5321(4)
C8B C -0.4069(6) -0.1834(4) 0.5974(4)
H4B H -0.4299 -0.2290 0.6444
C9B C -0.3135(7) -0.1215(5) 0.5896(5)
H5B H -0.2728 -0.1264 0.6313
C10B C -0.2789(7) -0.0518(5) 0.5203(5)
H6B H -0.2156 -0.0119 0.5170
C11B C -0.3356(7) -0.0400(5) 0.4562(5)
H7B H -0.3124 0.0070 0.4108
C12B C -0.4288(6) -0.1024(4) 0.4642(4)
O1C O -0.3533(2) 0.2213(2) 0.3185(3)
N1C N -0.6102(3) -0.1142(3) 0.0879(3)
N2C N -0.6684(3) -0.2294(3) -0.0187(3)
C3C C -0.5108(3) 0.0321(3) 0.1694(4)
H1C H -0.5124 0.0639 0.1154
C4C C -0.5583(4) -0.0627(3) 0.1711(3)
C6C C -0.6110(4) -0.1906(3) 0.0535(4)
H3C H -0.5747 -0.2131 0.0785
C7C C -0.7092(4) -0.1748(3) -0.0321(4)
C8C C -0.7765(4) -0.1834(4) -0.0974(4)
H4C H -0.7991 -0.2290 -0.1444
C9C C -0.8080(5) -0.1215(5) -0.0896(5)
H5C H -0.8536 -0.1264 -0.1313
C10C C -0.7729(5) -0.0518(5) -0.0203(5)
H6C H -0.7963 -0.0119 -0.0170
C11C C -0.7044(5) -0.0400(5) 0.0438(5)
H7C H -0.6806 0.0070 0.0892
C12C C -0.6736(4) -0.1024(4) 0.0358(4)
Ni1C Ni -0.3333 0.3333 0.39567(7)
Ni1F Ni -0.6667 -0.3333 -0.10433(7)
Ni1F_2 Ni -0.6667 0.6667 -0.10433(7)
Ni1F_3 Ni 0.3333 0.6667 -0.10433(7)
Ni1I Ni -0.6667 -0.3333 0.60433(7)
Ni1I_2 Ni -0.6667 0.6667 0.60433(7)
Ni1I_3 Ni 0.3333 0.6667 0.60433(7)
N2F N -0.2294(3) 0.3316(3) 0.4813(3)
N2G N -0.3316(3) 0.4390(4) 0.4813(3)
N2H N -0.4390(4) 0.2294(3) 0.4813(3)
N2I N -0.3316(3) 0.2294(3) 0.0187(3)
N2J N -0.2294(3) 0.4390(4) 0.0187(3)
N2K N -0.4390(4) 0.3316(3) 0.0187(3)
loop_
_geom_bond_atom_site_label_1
_geom_bond_atom_site_label_2
_geom_bond_site_symmetry_1
_geom_bond_site_symmetry_2
Ni1 O1 1_555 1_555
O1 C1 1_555 1_555
N1 C4 1_555 1_555
N2 C6 1_555 1_555
C1 C2 1_555 1_555
C2 C3 1_555 1_555
C3 H1 1_555 1_555
C4 C3 1_555 1_555
C5 C4 1_555 1_555
H2 C5 1_555 1_555
C6 N1 1_555 1_555
H3 C6 1_555 1_555
C7 N2 1_555 1_555
C8 C7 1_555 1_555
H4 C8 1_555 1_555
C9 C8 1_555 1_555
H5 C9 1_555 1_555
C10 C9 1_555 1_555
H6 C10 1_555 1_555
C11 C10 1_555 1_555
H7 C11 1_555 1_555
C12 N1 1_555 1_555
F1 B1 1_555 1_555
F2 B1 1_555 1_555
B1 F1C 1_555 1_555
O1D C1 1_555 1_555
N1D C4D 1_555 1_555
N2D C6D 1_555 1_555
C3D C2 1_555 1_555
H1D C3D 1_555 1_555
C4D C5 1_555 1_555
C6D N1D 1_555 1_555
H3D C6D 1_555 1_555
C7D N2D 1_555 1_555
C8D C7D 1_555 1_555
H4D C8D 1_555 1_555
C9D C8D 1_555 1_555
H5D C9D 1_555 1_555
C10D C9D 1_555 1_555
H6D C10D 1_555 1_555
C11D C10D 1_555 1_555
H7D C11D 1_555 1_555
C12D N1D 1_555 1_555
O1A Ni1 1_555 1_555
N1A C4A 1_555 1_555
N2A C6A 1_555 1_555
C1A O1A 1_555 1_555
C2A C1A 1_555 1_555
C3A C2A 1_555 1_555
H1A C3A 1_555 1_555
C4A C3A 1_555 1_555
C5A C4A 1_555 1_555
H2A C5A 1_555 1_555
C6A N1A 1_555 1_555
H3A C6A 1_555 1_555
C7A N2A 1_555 1_555
C8A C7A 1_555 1_555
H4A C8A 1_555 1_555
C9A C8A 1_555 1_555
H5A C9A 1_555 1_555
C10A C9A 1_555 1_555
H6A C10A 1_555 1_555
C11A C10A 1_555 1_555
H7A C11A 1_555 1_555
C12A N1A 1_555 1_555
O1E C1A 1_555 1_555
N1E C4E 1_555 1_555
N2E C6E 1_555 1_555
C3E C2A 1_555 1_555
H1E C3E 1_555 1_555
C4E C5A 1_555 1_555
C6E N1E 1_555 1_555
H3E C6E 1_555 1_555
C7E N2E 1_555 1_555
C8E C7E 1_555 1_555
H4E C8E 1_555 1_555
C9E C8E 1_555 1_555
H5E C9E 1_555 1_555
C10E C9E 1_555 1_555
H6E C10E 1_555 1_555
C11E C10E 1_555 1_555
H7E C11E 1_555 1_555
C12E N1E 1_555 1_555
O1B Ni1 1_555 1_555
N1B C4B 1_555 1_555
N2B C6B 1_555 1_555
C1B O1B 1_555 1_555
C2B C1B 1_555 1_555
C3B C2B 1_555 1_555
H1B C3B 1_555 1_555
C4B C3B 1_555 1_555
C5B C4B 1_555 1_555
H2B C5B 1_555 1_555
C6B N1B 1_555 1_555
H3B C6B 1_555 1_555
C7B N2B 1_555 1_555
C8B C7B 1_555 1_555
H4B C8B 1_555 1_555
C9B C8B 1_555 1_555
H5B C9B 1_555 1_555
C10B C9B 1_555 1_555
H6B C10B 1_555 1_555
C11B C10B 1_555 1_555
H7B C11B 1_555 1_555
C12B N1B 1_555 1_555
O1C C1B 1_555 1_555
N1C C4C 1_555 1_555
N2C C6C 1_555 1_555
C3C C2B 1_555 1_555
H1C C3C 1_555 1_555
C4C C5B 1_555 1_555
C6C N1C 1_555 1_555
H3C C6C 1_555 1_555
C7C N2C 1_555 1_555
C8C C7C 1_555 1_555
H4C C8C 1_555 1_555
C9C C8C 1_555 1_555
H5C C9C 1_555 1_555
C10C C9C 1_555 1_555
H6C C10C 1_555 1_555
C11C C10C 1_555 1_555
H7C C11C 1_555 1_555
C12C N1C 1_555 1_555
Ni1C O1D 1_555 1_555
Ni1F N2C 1_555 1_555
Ni1F_2 N2E 1_555 1_555
Ni1F_3 N2D 1_555 1_555
Ni1I N2B 1_555 1_555
Ni1I_2 N2A 1_555 1_555
Ni1I_3 N2 1_555 1_555
N2F Ni1C 1_555 1_555
N2G Ni1C 1_555 1_555
N2H Ni1C 1_555 1_555
N2I Ni1 1_555 1_555
N2J Ni1 1_555 1_555
N2K Ni1 1_555 1_555
F2C B1 1_555 1_555
C7 C12 1_555 1_555
C11 C12 1_555 1_555
C3D C4D 1_555 1_555
C7D C12D 1_555 1_555
C11D C12D 1_555 1_555
C7A C12A 1_555 1_555
C11A C12A 1_555 1_555
O1E Ni1C 1_555 1_555
C3E C4E 1_555 1_555
C7E C12E 1_555 1_555
C11E C12E 1_555 1_555
C7B C12B 1_555 1_555
C11B C12B 1_555 1_555
O1C Ni1C 1_555 1_555
C3C C4C 1_555 1_555
C7C C12C 1_555 1_555
C11C C12C 1_555 1_555

#END
