
#######################################################################
#
#                 Cambridge Crystallographic Data Centre
#                                CCDC 
#
#######################################################################
#
# If this CIF has been generated from an entry in the Cambridge 
# Structural Database, then it will include bibliographic, chemical, 
# crystal, experimental, refinement or atomic coordinate data resulting 
# from the CCDC's data processing and validation procedures.
#
#######################################################################

data_GUMBIA
_chemical_formula_moiety         '(C42 H44 Cl1 Cu3 N6 O18 1+)n'
_symmetry_cell_setting           monoclinic
_symmetry_space_group_name_H-M   'C 2/c'
_symmetry_Int_Tables_number      15
_space_group_name_Hall           '-C 2yc'
loop_
_symmetry_equiv_pos_site_id
_symmetry_equiv_pos_as_xyz
1 x,y,z
2 -x,y,1/2-z
3 1/2+x,1/2+y,z
4 1/2-x,1/2+y,1/2-z
5 -x,-y,-z
6 x,-y,1/2+z
7 1/2-x,1/2-y,-z
8 1/2+x,1/2-y,1/2+z
_cell_length_a                   19.791(3)
_cell_length_b                   22.674(3)
_cell_length_c                   12.8770(17)
_cell_angle_alpha                90
_cell_angle_beta                 113.271(3)
_cell_angle_gamma                90
_cell_volume                     5308.34
loop_
_atom_site_label
_atom_site_type_symbol
_atom_site_fract_x
_atom_site_fract_y
_atom_site_fract_z
_atom_site_U_iso_or_equiv
_atom_site_thermal_displace_type
Cu1 Cu 0.495562(16) 0.761152(13) 0.54798(2) 0.0348 Uani
Cu2 Cu 0.5000 0.862118(17) 0.7500 0.0317 Uani
O1 O 0.57769(11) 0.74239(8) 0.68852(16) 0.0435 Uani
O2 O 0.57671(9) 0.80480(8) 0.82350(15) 0.0370 Uani
O3 O 0.51219(10) 0.84678(8) 0.55999(15) 0.0369 Uani
O4 O 0.62719(12) 0.84826(9) 0.5672(2) 0.0564 Uani
N1 N 0.40429(12) 0.76683(10) 0.40790(19) 0.0400 Uani
N2 N 0.46563(13) 0.67583(10) 0.53259(19) 0.0404 Uani
N3 N 0.57098(12) 0.92887(9) 0.79993(17) 0.0362 Uani
C1 C 0.37500(16) 0.81625(15) 0.3509(3) 0.0517 Uani
H1 H 0.3968 0.8527 0.3802 0.0620 Uiso
C2 C 0.31381(19) 0.8152(2) 0.2504(3) 0.0696 Uani
H2 H 0.2937 0.8506 0.2129 0.0830 Uiso
C3 C 0.2830(2) 0.7629(2) 0.2063(3) 0.0797 Uani
H3 H 0.2419 0.7614 0.1371 0.0960 Uiso
C4 C 0.3125(2) 0.7117(2) 0.2638(3) 0.0704 Uani
H4 H 0.2917 0.6750 0.2340 0.0850 Uiso
C5 C 0.37286(15) 0.71451(14) 0.3656(2) 0.0455 Uani
C6 C 0.40732(16) 0.66316(13) 0.4363(3) 0.0469 Uani
C7 C 0.3835(2) 0.60575(16) 0.4097(3) 0.0655 Uani
H5 H 0.3430 0.5974 0.3421 0.0790 Uiso
C8 C 0.4192(2) 0.56084(16) 0.4826(4) 0.0749 Uani
H6 H 0.4033 0.5216 0.4657 0.0890 Uiso
C9 C 0.4784(2) 0.57399(14) 0.5803(4) 0.0655 Uani
H7 H 0.5036 0.5440 0.6313 0.0790 Uiso
C10 C 0.50056(19) 0.63184(13) 0.6027(3) 0.0516 Uani
H8 H 0.5415 0.6408 0.6693 0.0620 Uiso
C11 C 0.64426(15) 0.92379(14) 0.8483(2) 0.0477 Uani
H9 H 0.6654 0.8860 0.8652 0.0570 Uiso
C12 C 0.68973(18) 0.97286(17) 0.8741(3) 0.0618 Uani
H10 H 0.7411 0.9684 0.9079 0.0740 Uiso
C13 C 0.6591(2) 1.02738(16) 0.8501(3) 0.0628 Uani
H11 H 0.6893 1.0610 0.8672 0.0750 Uiso
C14 C 0.5834(2) 1.03325(13) 0.8003(3) 0.0520 Uani
H12 H 0.5616 1.0708 0.7829 0.0620 Uiso
C15 C 0.54023(15) 0.98282(11) 0.7764(2) 0.0379 Uani
C16 C 0.60351(13) 0.76330(10) 0.7859(2) 0.0331 Uani
C17 C 0.67324(14) 0.73675(11) 0.8655(2) 0.0376 Uani
H13 H 0.6884 0.7005 0.8464 0.0450 Uiso
C18 C 0.71499(13) 0.76198(11) 0.9622(2) 0.0353 Uani
H14 H 0.6984 0.7972 0.9829 0.0420 Uiso
C19 C 0.56920(15) 0.87300(11) 0.5588(2) 0.0382 Uani
C20 C 0.56483(15) 0.93821(12) 0.5463(2) 0.0394 Uani
H15 H 0.6090 0.9594 0.5668 0.0470 Uiso
C21 C 0.50203(15) 0.96830(11) 0.5078(2) 0.0373 Uani
H16 H 0.4579 0.9473 0.4898 0.0450 Uiso
O5 O 0.56874(14) 0.74907(11) 0.4450(2) 0.0588 Uani
H17 H 0.590(2) 0.7160(11) 0.462(4) 0.0800 Uiso
H18 H 0.6051(18) 0.7697(17) 0.485(3) 0.0800 Uiso
Cu1F Cu 1.004438(16) 0.738848(13) 1.45202(2) 0.0348 Uani
Cu1D Cu 0.504438(16) 1.238848(13) 0.45202(2) 0.0348 Uani
Cu2F Cu 1.0000 0.637882(17) 1.2500 0.0317 Uani
O1F O 0.92231(11) 0.75761(8) 1.31148(16) 0.0435 Uani
O2F O 0.92329(9) 0.69520(8) 1.17650(15) 0.0370 Uani
O2A O 0.42329(9) 0.80480(8) 0.67650(15) 0.0370 Uani
O3D O 0.48781(10) 1.15322(8) 0.44001(15) 0.0369 Uani
O3F O 0.98781(10) 0.65322(8) 1.44001(15) 0.0369 Uani
O4D O 0.37281(12) 1.15174(9) 0.4328(2) 0.0564 Uani
N1F N 1.09571(12) 0.73317(10) 1.59210(19) 0.0400 Uani
N2F N 1.03437(13) 0.82417(10) 1.46741(19) 0.0404 Uani
N3A N 0.42902(12) 0.92887(9) 0.70007(17) 0.0362 Uani
C1F C 1.12500(16) 0.68375(15) 1.6491(3) 0.0517 Uani
H1F H 1.1032 0.6473 1.6198 0.0620 Uiso
C2F C 1.18619(19) 0.6848(2) 1.7496(3) 0.0696 Uani
H2F H 1.2063 0.6494 1.7871 0.0830 Uiso
C3F C 1.2170(2) 0.7371(2) 1.7937(3) 0.0797 Uani
H3F H 1.2581 0.7386 1.8629 0.0960 Uiso
C4F C 1.1875(2) 0.7883(2) 1.7362(3) 0.0704 Uani
H4F H 1.2083 0.8250 1.7660 0.0850 Uiso
C5F C 1.12714(15) 0.78549(14) 1.6344(2) 0.0455 Uani
C6F C 1.09268(16) 0.83684(13) 1.5637(3) 0.0469 Uani
C7F C 1.1165(2) 0.89425(16) 1.5903(3) 0.0655 Uani
H5F H 1.1570 0.9026 1.6579 0.0790 Uiso
C8F C 1.0808(2) 0.93916(16) 1.5174(4) 0.0749 Uani
H6F H 1.0967 0.9784 1.5343 0.0890 Uiso
C9F C 1.0216(2) 0.92601(14) 1.4197(4) 0.0655 Uani
H7F H 0.9964 0.9560 1.3687 0.0790 Uiso
C10F C 0.99944(19) 0.86816(13) 1.3973(3) 0.0516 Uani
H8F H 0.9585 0.8592 1.3307 0.0620 Uiso
C11A C 0.35574(15) 0.92379(14) 0.6517(2) 0.0477 Uani
H9A H 0.3346 0.8860 0.6348 0.0570 Uiso
C12A C 0.31027(18) 0.97286(17) 0.6259(3) 0.0618 Uani
H10A H 0.2589 0.9684 0.5921 0.0740 Uiso
C13A C 0.3409(2) 1.02738(16) 0.6499(3) 0.0628 Uani
H11A H 0.3107 1.0610 0.6328 0.0750 Uiso
C14A C 0.4166(2) 1.03325(13) 0.6997(3) 0.0520 Uani
H12A H 0.4384 1.0708 0.7171 0.0620 Uiso
C15A C 0.45977(15) 0.98282(11) 0.7236(2) 0.0379 Uani
C16F C 0.89649(13) 0.73670(10) 1.2141(2) 0.0331 Uani
C17F C 0.82676(14) 0.76325(11) 1.1345(2) 0.0376 Uani
H13F H 0.8116 0.7995 1.1536 0.0450 Uiso
C18F C 0.78501(13) 0.73802(11) 1.0378(2) 0.0353 Uani
H14F H 0.8016 0.7028 1.0171 0.0420 Uiso
C19D C 0.43080(15) 1.12700(11) 0.4412(2) 0.0382 Uani
C20D C 0.43517(15) 1.06179(12) 0.4537(2) 0.0394 Uani
H15D H 0.3910 1.0406 0.4332 0.0470 Uiso
C21D C 0.49797(15) 1.03170(11) 0.4922(2) 0.0373 Uani
H16D H 0.5421 1.0527 0.5102 0.0450 Uiso
O5F O 0.93126(14) 0.75093(11) 1.5550(2) 0.0588 Uani
H17F H 0.910(2) 0.7840(11) 1.538(4) 0.0800 Uiso
H18F H 0.8949(18) 0.7303(17) 1.515(3) 0.0800 Uiso
O6 O 0.5000 0.82784(16) 0.2500 0.0615 Uani
H19 H 0.5252(18) 0.8055(13) 0.300(2) 0.0560 Uiso
H19A H 0.4748(18) 0.8055(13) 0.200(2) 0.0560 Uiso
O7 O 0.75691(16) 0.89614(12) 0.5806(3) 0.0864 Uani
H20 H 0.7112(13) 0.8843(18) 0.558(3) 0.0800 Uiso
H21 H 0.764(2) 0.9333(9) 0.591(4) 0.0800 Uiso
O8 O 0.6447(3) 0.6464(2) 0.4962(5) 0.1376 Uani
H22 H 0.644(3) 0.6279(18) 0.556(3) 0.0800 Uiso
H23 H 0.677(2) 0.6340(18) 0.473(4) 0.0800 Uiso
Cl1 Cl 0.79604(6) 0.94869(4) 0.19777(9) 0.0718 Uani
O9 O 0.8184(2) 0.9333(2) 0.3136(3) 0.1372 Uani
O10 O 0.7236(6) 0.9676(7) 0.1534(7) 0.1521 Uani
O11 O 0.8405(7) 0.9961(4) 0.1859(9) 0.1646 Uani
O12 O 0.8055(8) 0.9027(3) 0.1360(10) 0.1578 Uani
O13 O 0.5000 0.4133(10) 0.7500 0.1050 Uiso
loop_
_atom_site_aniso_label
_atom_site_aniso_U_11
_atom_site_aniso_U_22
_atom_site_aniso_U_33
_atom_site_aniso_U_23
_atom_site_aniso_U_13
_atom_site_aniso_U_12
Cu1 0.03168(19) 0.03521(19) 0.03069(19) -0.00023(11) 0.00503(14) -0.00022(11)
Cu2 0.0218(2) 0.0317(2) 0.0342(2) 0.000 0.00330(17) 0.000
O1 0.0416(11) 0.0387(10) 0.0356(10) -0.0035(8) -0.0002(8) 0.0056(8)
O2 0.0256(8) 0.0424(10) 0.0355(9) -0.0009(7) 0.0040(7) 0.0069(7)
O3 0.0354(9) 0.0343(9) 0.0402(10) 0.0037(7) 0.0142(8) 0.0010(7)
O4 0.0383(11) 0.0460(11) 0.0852(17) -0.0033(11) 0.0246(11) 0.0001(9)
N1 0.0317(11) 0.0532(13) 0.0330(12) -0.0004(9) 0.0105(9) 0.0000(9)
N2 0.0409(12) 0.0389(11) 0.0400(12) -0.0055(9) 0.0145(10) -0.0002(9)
N3 0.0357(11) 0.0399(11) 0.0287(10) 0.0001(9) 0.0081(8) -0.0069(9)
C1 0.0392(15) 0.0634(18) 0.0465(17) 0.0129(14) 0.0105(13) 0.0019(13)
C2 0.0465(19) 0.094(3) 0.055(2) 0.025(2) 0.0057(15) 0.0026(18)
C3 0.051(2) 0.117(4) 0.047(2) 0.008(2) -0.0064(16) 0.003(2)
C4 0.053(2) 0.092(3) 0.052(2) -0.0234(19) 0.0055(16) -0.0118(19)
C5 0.0362(14) 0.0616(17) 0.0373(15) -0.0104(13) 0.0129(12) -0.0022(13)
C6 0.0418(15) 0.0534(16) 0.0465(16) -0.0191(13) 0.0185(13) -0.0070(12)
C7 0.057(2) 0.058(2) 0.076(2) -0.0263(18) 0.0203(17) -0.0132(16)
C8 0.074(2) 0.0457(18) 0.107(3) -0.0229(19) 0.038(2) -0.0153(17)
C9 0.075(2) 0.0405(16) 0.085(3) 0.0002(16) 0.036(2) -0.0002(16)
C10 0.0541(18) 0.0436(15) 0.0549(19) -0.0021(13) 0.0191(15) -0.0012(13)
C11 0.0355(14) 0.0547(16) 0.0447(16) 0.0023(13) 0.0072(12) -0.0100(12)
C12 0.0426(17) 0.078(2) 0.057(2) -0.0017(17) 0.0115(14) -0.0259(16)
C13 0.073(2) 0.062(2) 0.055(2) -0.0099(16) 0.0270(17) -0.0349(18)
C14 0.079(2) 0.0427(15) 0.0430(16) -0.0067(12) 0.0334(16) -0.0155(15)
C15 0.0506(15) 0.0394(13) 0.0258(12) -0.0024(10) 0.0172(11) -0.0065(11)
C16 0.0283(12) 0.0316(12) 0.0337(13) 0.0030(10) 0.0062(10) -0.0001(9)
C17 0.0291(13) 0.0401(14) 0.0380(14) 0.0030(10) 0.0074(10) 0.0076(10)
C18 0.0270(13) 0.0395(13) 0.0363(13) 0.0027(10) 0.0091(11) 0.0069(10)
C19 0.0380(14) 0.0386(13) 0.0357(14) 0.0006(10) 0.0122(11) -0.0001(11)
C20 0.0446(15) 0.0407(13) 0.0362(14) 0.0025(11) 0.0195(11) -0.0053(11)
C21 0.0448(15) 0.0409(13) 0.0300(13) 0.0036(10) 0.0187(11) -0.0022(11)
O5 0.0542(14) 0.0681(14) 0.0586(15) 0.0036(12) 0.0270(12) 0.0124(11)
Cu1F 0.03168 0.03521 0.03069 -0.00023 0.00503 -0.00022
Cu1D 0.03168 0.03521 0.03069 -0.00023 0.00503 -0.00022
Cu2F 0.0218 0.0317 0.0342 0 0.0033 0
O1F 0.0416 0.0387 0.0356 -0.0035 -0.0002 0.0056
O2F 0.0256 0.0424 0.0355 -0.0009 0.004 0.0069
O2A 0.0256 0.0424 0.0355 0.0009 0.004 -0.0069
O3D 0.0354 0.0343 0.0402 0.0037 0.0142 0.001
O3F 0.0354 0.0343 0.0402 0.0037 0.0142 0.001
O4D 0.0383 0.046 0.0852 -0.0033 0.0246 0.0001
N1F 0.0317 0.0532 0.033 -0.0004 0.0105 0
N2F 0.0409 0.0389 0.04 -0.0055 0.0145 -0.0002
N3A 0.0357 0.0399 0.0287 -0.0001 0.0081 0.0069
C1F 0.0392 0.0634 0.0465 0.0129 0.0105 0.0019
C2F 0.0465 0.094 0.055 0.025 0.0057 0.0026
C3F 0.051 0.117 0.047 0.008 -0.0064 0.003
C4F 0.053 0.092 0.052 -0.0234 0.0055 -0.0118
C5F 0.0362 0.0616 0.0373 -0.0104 0.0129 -0.0022
C6F 0.0418 0.0534 0.0465 -0.0191 0.0185 -0.007
C7F 0.057 0.058 0.076 -0.0263 0.0203 -0.0132
C8F 0.074 0.0457 0.107 -0.0229 0.038 -0.0153
C9F 0.075 0.0405 0.085 0.0002 0.036 -0.0002
C10F 0.0541 0.0436 0.0549 -0.0021 0.0191 -0.0012
C11A 0.0355 0.0547 0.0447 -0.0023 0.0072 0.01
C12A 0.0426 0.078 0.057 0.0017 0.0115 0.0259
C13A 0.073 0.062 0.055 0.0099 0.027 0.0349
C14A 0.079 0.0427 0.043 0.0067 0.0334 0.0155
C15A 0.0506 0.0394 0.0258 0.0024 0.0172 0.0065
C16F 0.0283 0.0316 0.0337 0.003 0.0062 -0.0001
C17F 0.0291 0.0401 0.038 0.003 0.0074 0.0076
C18F 0.027 0.0395 0.0363 0.0027 0.0091 0.0069
C19D 0.038 0.0386 0.0357 0.0006 0.0122 -0.0001
C20D 0.0446 0.0407 0.0362 0.0025 0.0195 -0.0053
C21D 0.0448 0.0409 0.03 0.0036 0.0187 -0.0022
O5F 0.0542 0.0681 0.0586 0.0036 0.027 0.0124
O6 0.073(2) 0.059(2) 0.053(2) 0.000 0.0253(18) 0.000
O7 0.0546(15) 0.0594(15) 0.146(3) 0.0214(17) 0.0406(18) 0.0068(13)
O8 0.175(4) 0.107(3) 0.178(5) 0.039(3) 0.120(4) 0.069(3)
Cl1 0.0812(7) 0.0578(5) 0.0836(7) 0.0076(4) 0.0402(5) 0.0099(4)
O9 0.091(3) 0.202(5) 0.097(3) 0.059(3) 0.014(2) 0.010(3)
O10 0.133(8) 0.232(13) 0.110(6) 0.070(7) 0.068(6) 0.120(9)
O11 0.208(10) 0.080(6) 0.251(11) 0.013(6) 0.139(9) -0.033(6)
O12 0.258(14) 0.059(4) 0.226(9) -0.012(4) 0.170(9) 0.014(5)
loop_
_geom_bond_atom_site_label_1
_geom_bond_atom_site_label_2
_geom_bond_site_symmetry_1
_geom_bond_site_symmetry_2
Cu1 O1 1_555 1_555
Cu2 O2 1_555 1_555
O1 C16 1_555 1_555
O2 C16 1_555 1_555
O3 Cu1 1_555 1_555
O4 C19 1_555 1_555
N1 Cu1 1_555 1_555
N2 Cu1 1_555 1_555
N3 Cu2 1_555 1_555
C1 N1 1_555 1_555
H1 C1 1_555 1_555
C2 C1 1_555 1_555
H2 C2 1_555 1_555
C3 C2 1_555 1_555
H3 C3 1_555 1_555
C4 C3 1_555 1_555
H4 C4 1_555 1_555
C5 N1 1_555 1_555
C6 N2 1_555 1_555
C7 C6 1_555 1_555
H5 C7 1_555 1_555
C8 C7 1_555 1_555
H6 C8 1_555 1_555
C9 C8 1_555 1_555
H7 C9 1_555 1_555
C10 N2 1_555 1_555
H8 C10 1_555 1_555
C11 N3 1_555 1_555
H9 C11 1_555 1_555
C12 C11 1_555 1_555
H10 C12 1_555 1_555
C13 C12 1_555 1_555
H11 C13 1_555 1_555
C14 C13 1_555 1_555
H12 C14 1_555 1_555
C15 N3 1_555 1_555
C16 C17 1_555 1_555
C17 H13 1_555 1_555
C18 C17 1_555 1_555
H14 C18 1_555 1_555
C19 O3 1_555 1_555
C20 C19 1_555 1_555
H15 C20 1_555 1_555
C21 C20 1_555 1_555
H16 C21 1_555 1_555
O5 Cu1 1_555 1_555
H17 O5 1_555 1_555
H18 O5 1_555 1_555
O6 H19 1_555 1_555
O7 H20 1_555 1_555
H21 O7 1_555 1_555
O8 H22 1_555 1_555
H23 O8 1_555 1_555
Cl1 O9 1_555 1_555
O10 Cl1 1_555 1_555
O11 Cl1 1_555 1_555
O12 Cl1 1_555 1_555
Cu1F O1F 1_555 1_555
Cu1D O3D 1_555 1_555
Cu2F O2F 1_555 1_555
O1F C16F 1_555 1_555
O2F C16F 1_555 1_555
O2A Cu2 1_555 1_555
O3D C19D 1_555 1_555
O3F Cu1F 1_555 1_555
O4D C19D 1_555 1_555
N1F Cu1F 1_555 1_555
N2F Cu1F 1_555 1_555
N3A Cu2 1_555 1_555
C1F N1F 1_555 1_555
H1F C1F 1_555 1_555
C2F C1F 1_555 1_555
H2F C2F 1_555 1_555
C3F C2F 1_555 1_555
H3F C3F 1_555 1_555
C4F C3F 1_555 1_555
H4F C4F 1_555 1_555
C5F N1F 1_555 1_555
C6F N2F 1_555 1_555
C7F C6F 1_555 1_555
H5F C7F 1_555 1_555
C8F C7F 1_555 1_555
H6F C8F 1_555 1_555
C9F C8F 1_555 1_555
H7F C9F 1_555 1_555
C10F N2F 1_555 1_555
H8F C10F 1_555 1_555
C11A N3A 1_555 1_555
H9A C11A 1_555 1_555
C12A C11A 1_555 1_555
H10A C12A 1_555 1_555
C13A C12A 1_555 1_555
H11A C13A 1_555 1_555
C14A C13A 1_555 1_555
H12A C14A 1_555 1_555
C15A C15 1_555 1_555
C16F C17F 1_555 1_555
C17F H13F 1_555 1_555
C18F C18 1_555 1_555
H14F C18F 1_555 1_555
C19D C20D 1_555 1_555
C20D H15D 1_555 1_555
C21D C21 1_555 1_555
H16D C21D 1_555 1_555
O5F Cu1F 1_555 1_555
H17F O5F 1_555 1_555
H18F O5F 1_555 1_555
H19A O6 1_555 1_555
C4 C5 1_555 1_555
C5 C6 1_555 1_555
C9 C10 1_555 1_555
C14 C15 1_555 1_555
N3A C15A 1_555 1_555
C4F C5F 1_555 1_555
C5F C6F 1_555 1_555
C9F C10F 1_555 1_555
C14A C15A 1_555 1_555
C17F C18F 1_555 1_555
C20D C21D 1_555 1_555

#END
