
#######################################################################
#
#                 Cambridge Crystallographic Data Centre
#                                CCDC 
#
#######################################################################
#
# If this CIF has been generated from an entry in the Cambridge 
# Structural Database, then it will include bibliographic, chemical, 
# crystal, experimental, refinement or atomic coordinate data resulting 
# from the CCDC's data processing and validation procedures.
#
#######################################################################

data_REHHET
_chemical_formula_moiety         '(C43 H39 Cd3 Cl6 N5 O15)n'
_symmetry_cell_setting           monoclinic
_symmetry_space_group_name_H-M   'C 2/c'
_symmetry_Int_Tables_number      15
_space_group_name_Hall           '-C 2yc'
loop_
_symmetry_equiv_pos_site_id
_symmetry_equiv_pos_as_xyz
1 x,y,z
2 -x,y,1/2-z
3 1/2+x,1/2+y,z
4 1/2-x,1/2+y,1/2-z
5 -x,-y,-z
6 x,-y,1/2+z
7 1/2-x,1/2-y,-z
8 1/2+x,1/2-y,1/2+z
_cell_length_a                   34.628(2)
_cell_length_b                   18.2216(6)
_cell_length_c                   23.1357(18)
_cell_angle_alpha                90
_cell_angle_beta                 118.404(9)
_cell_angle_gamma                90
_cell_volume                     12840.7
loop_
_atom_site_label
_atom_site_type_symbol
_atom_site_fract_x
_atom_site_fract_y
_atom_site_fract_z
_atom_site_U_iso_or_equiv
_atom_site_thermal_displace_type
C42 C 0.4104(5) 0.4092(8) 0.2578(7) 0.1514 Uani
H33 H 0.3989 0.4280 0.2862 0.1850 Uiso
Cl1 Cl 0.3990(5) 0.4680(7) 0.1890(7) 0.1836 Uani
Cl2 Cl 0.4688(5) 0.3949(8) 0.3001(7) 0.1831 Uani
Cl3 Cl 0.3853(7) 0.3246(8) 0.2173(9) 0.2431 Uani
C43 C 0.1682(5) 0.5768(7) 0.3575(7) 0.1516 Uani
H34 H 0.1720 0.5308 0.3389 0.1840 Uiso
Cl4 Cl 0.2143(5) 0.6356(7) 0.4057(7) 0.2034 Uani
Cl5 Cl 0.1527(6) 0.6603(7) 0.3100(10) 0.2316 Uani
Cl6 Cl 0.1430(5) 0.5783(4) 0.4099(7) 0.1836 Uani
Cd1 Cd 0.709997(18) 0.10581(3) 0.80913(3) 0.0567 Uani
Cd2 Cd 0.32140(2) 0.38197(4) 0.32400(4) 0.0636 Uani
Cd3 Cd 0.32262(2) 0.44934(4) 0.46342(4) 0.0652 Uani
C1 C 0.6211(6) 0.1091(10) 0.7459(8) 0.1117 Uani
C2 C 0.5713(7) 0.1046(12) 0.7178(10) 0.0649 Uani
C3 C 0.5506(7) 0.1615(13) 0.6811(11) 0.0845 Uani
H1 H 0.5678 0.2005 0.6807 0.1020 Uiso
C4 C 0.5066(8) 0.1684(16) 0.6439(12) 0.0908 Uani
H2 H 0.4937 0.2101 0.6189 0.1100 Uiso
C5 C 0.4810(6) 0.1064(10) 0.6458(9) 0.0669 Uani
C6 C 0.5014(6) 0.0506(11) 0.6820(9) 0.0916 Uani
H3 H 0.4853 0.0105 0.6836 0.1100 Uiso
C7 C 0.5464(6) 0.0491(14) 0.7181(10) 0.0812 Uani
H4 H 0.5599 0.0080 0.7436 0.0970 Uiso
C8 C 0.4330(6) 0.1126(10) 0.6116(10) 0.0643 Uani
C9 C 0.2854(2) 0.2910(4) 0.4104(4) 0.0546 Uani
C10 C 0.3028(2) 0.2311(4) 0.4610(4) 0.0488 Uani
C11 C 0.3478(2) 0.2202(4) 0.4991(4) 0.0503 Uani
H5 H 0.3669 0.2493 0.4911 0.0600 Uiso
C12 C 0.3652(3) 0.1688(5) 0.5477(5) 0.0607 Uani
C13 C 0.3358(3) 0.1276(4) 0.5612(4) 0.0519 Uani
H6 H 0.3465 0.0942 0.5958 0.0620 Uiso
C14 C 0.2910(3) 0.1373(4) 0.5227(4) 0.0516 Uani
C15 C 0.2744(2) 0.1879(4) 0.4734(4) 0.0491 Uani
H7 H 0.2441 0.1935 0.4482 0.0590 Uiso
C16 C 0.2605(3) 0.0920(5) 0.5393(6) 0.0631 Uani
C17 C 1.0959(4) -0.0875(9) 1.0638(9) 0.1111 Uani
C18 C 1.0480(4) -0.0975(6) 1.0150(6) 0.0890 Uani
C19 C 1.0230(5) -0.1553(10) 1.0246(9) 0.1578 Uani
H8 H 1.0362 -0.1849 1.0617 0.1900 Uiso
C20 C 0.9815(5) -0.1664(10) 0.9809(13) 0.1960 Uani
H9 H 0.9661 -0.2059 0.9854 0.2370 Uiso
C21 C 0.9617(3) -0.1198(5) 0.9298(6) 0.0804 Uani
C22 C 0.9849(4) -0.0637(8) 0.9216(7) 0.0989 Uani
H10 H 0.9715 -0.0326 0.8856 0.1190 Uiso
C23 C 1.0269(4) -0.0541(7) 0.9657(8) 0.1078 Uani
H11 H 1.0417 -0.0141 0.9607 0.1290 Uiso
C24 C 0.9143(3) -0.1243(6) 0.8869(8) 0.1121 Uani
C25 C 0.7575(3) -0.0206(4) 0.8140(4) 0.0545 Uani
C26 C 0.7795(3) -0.0922(5) 0.8142(4) 0.0532 Uani
C27 C 0.7527(3) -0.1533(4) 0.7842(4) 0.0569 Uani
H12 H 0.7223 -0.1486 0.7622 0.0680 Uiso
C28 C 0.7724(3) -0.2216(4) 0.7879(5) 0.0622 Uani
C29 C 0.8184(3) -0.2279(5) 0.8193(5) 0.0709 Uani
H13 H 0.8314 -0.2731 0.8208 0.0850 Uiso
C30 C 0.8443(3) -0.1678(5) 0.8479(5) 0.0756 Uani
C31 C 0.8241(3) -0.0996(5) 0.8442(5) 0.0744 Uani
H14 H 0.8416 -0.0586 0.8627 0.0890 Uiso
C32 C 0.7437(3) -0.2874(4) 0.7556(5) 0.0616 Uani
C33 C 0.2779(4) 0.4734(11) 0.2031(11) 0.1974 Uani
C34 C 0.2128(6) 0.5562(15) 0.1306(10) 0.1917 Uani
H15 H 0.2084 0.6038 0.1106 0.2890 Uiso
H16 H 0.2004 0.5553 0.1598 0.2890 Uiso
H17 H 0.1988 0.5197 0.0970 0.2890 Uiso
C35 C 0.2958(7) 0.5838(14) 0.1707(11) 0.1925 Uani
H18 H 0.2849 0.6288 0.1469 0.2900 Uiso
H19 H 0.3107 0.5564 0.1518 0.2900 Uiso
H20 H 0.3160 0.5947 0.2159 0.2900 Uiso
C36 C 0.3684(4) 0.3648(7) 0.5916(5) 0.1102 Uani
C37 C 0.4466(3) 0.3426(14) 0.6766(9) 0.1737 Uani
H21 H 0.4630 0.3154 0.7165 0.2600 Uiso
H22 H 0.4533 0.3939 0.6850 0.2600 Uiso
H23 H 0.4545 0.3262 0.6441 0.2600 Uiso
C38 C 0.3866(5) 0.2815(8) 0.6887(7) 0.1266 Uani
H24 H 0.4121 0.2637 0.7269 0.1900 Uiso
H25 H 0.3709 0.2409 0.6611 0.1900 Uiso
H26 H 0.3679 0.3071 0.7020 0.1900 Uiso
C39 C 0.3646(4) 0.5983(7) 0.5181(11) 0.1542 Uani
C40 C 0.3243(9) 0.7129(16) 0.4899(18) 0.2976 Uani
H27 H 0.3279 0.7650 0.4966 0.4480 Uiso
H28 H 0.3062 0.6947 0.5078 0.4480 Uiso
H29 H 0.3107 0.7024 0.4438 0.4480 Uiso
C41 C 0.4086(10) 0.706(2) 0.5734(19) 0.3687 Uani
H30 H 0.4068 0.7587 0.5753 0.5510 Uiso
H31 H 0.4316 0.6933 0.5633 0.5510 Uiso
H32 H 0.4149 0.6856 0.6151 0.5510 Uiso
N1 N 0.4106(3) 0.1604(5) 0.5879(4) 0.0762 Uani
N2 N 0.8889(4) -0.1754(6) 0.8884(7) 0.0666 Uani
N3 N 0.2595(6) 0.5409(9) 0.1672(10) 0.1853 Uani
N4 N 0.4001(3) 0.3312(6) 0.6526(5) 0.1162 Uani
N5 N 0.3671(7) 0.6776(7) 0.5228(10) 0.1898 Uani
O1 O 0.6461(6) 0.1129(10) 0.7020(10) 0.1069 Uani
O2 O 0.6352(5) 0.0436(9) 0.7822(8) 0.1025 Uani
O3 O 0.24502(17) 0.2933(3) 0.3736(3) 0.0611 Uani
O4 O 0.31396(19) 0.3358(3) 0.4110(3) 0.0640 Uani
O5 O 0.2750(2) 0.0556(3) 0.5915(3) 0.0639 Uani
O6 O 0.22069(19) 0.0954(3) 0.4977(4) 0.0701 Uani
O7 O 1.1192(2) -0.0441(4) 1.0592(5) 0.0923 Uani
O8 O 1.1101(3) -0.1251(7) 1.1197(6) 0.1271 Uani
O9 O 0.71806(17) -0.0122(3) 0.7794(3) 0.0643 Uani
O10 O 0.78253(17) 0.0311(3) 0.8499(3) 0.0564 Uani
O11 O 0.7607(2) -0.3467(3) 0.7556(3) 0.0663 Uani
O12 O 0.7029(2) -0.2776(3) 0.7281(4) 0.0728 Uani
O13 O 0.3159(3) 0.4573(5) 0.2463(5) 0.1091 Uani
O14 O 0.3791(3) 0.4095(5) 0.5606(5) 0.1149 Uani
O15 O 0.3283(3) 0.5668(4) 0.4884(5) 0.0995 Uani
Cd1G Cd 0.209997(18) 0.39419(3) 0.30913(3) 0.0567 Uani
Cd1A Cd 0.290003(18) 0.10581(3) 0.69087(3) 0.0567 Uani
Cd1C Cd 0.790003(18) -0.39419(3) 0.69087(3) 0.0567 Uani
Cd2C Cd 1.17860(2) -0.11803(4) 1.17600(4) 0.0636 Uani
Cd2G Cd 0.82140(2) 0.11803(4) 0.82400(4) 0.0636 Uani
Cd2D Cd 0.67860(2) -0.38197(4) 0.67600(4) 0.0636 Uani
Cd3F Cd 0.17738(2) 0.05066(4) 0.53658(4) 0.0652 Uani
Cd3C Cd 1.17738(2) -0.05066(4) 1.03658(4) 0.0652 Uani
Cd3G Cd 0.82262(2) 0.05066(4) 0.96342(4) 0.0652 Uani
O3G O 0.74502(17) 0.2067(3) 0.8736(3) 0.0611 Uani
O5A O 0.7250(2) 0.0556(3) 0.9085(3) 0.0639 Uani
O6F O 0.27931(19) 0.4046(3) 0.5023(4) 0.0701 Uani
O7C O 0.3808(2) 0.4559(4) 0.4408(5) 0.0923 Uani
O8C O 0.3899(3) 0.3749(7) 0.3803(6) 0.1271 Uani
O10G O 0.28253(17) 0.4689(3) 0.3499(3) 0.0564 Uani
O11C O 0.7393(2) 0.1533(3) 0.7444(3) 0.0663 Uani
O11D O 0.2393(2) 0.3467(3) 0.2444(3) 0.0663 Uani
O12D O 0.2971(2) 0.2776(3) 0.2719(4) 0.0728 Uani
loop_
_atom_site_aniso_label
_atom_site_aniso_U_11
_atom_site_aniso_U_22
_atom_site_aniso_U_33
_atom_site_aniso_U_23
_atom_site_aniso_U_13
_atom_site_aniso_U_12
C42 0.147(12) 0.16(2) 0.19(2) 0.008(13) 0.115(16) -0.060(17)
Cl1 0.194(11) 0.123(8) 0.235(12) 0.054(8) 0.103(9) 0.001(7)
Cl2 0.176(9) 0.194(12) 0.197(10) 0.014(8) 0.103(8) 0.006(8)
Cl3 0.289(17) 0.147(10) 0.249(14) 0.003(9) 0.092(12) -0.067(11)
C43 0.17(2) 0.20(2) 0.106(16) 0.059(14) 0.083(14) -0.036(15)
Cl4 0.289(12) 0.165(10) 0.260(11) -0.093(9) 0.215(10) -0.089(9)
Cl5 0.290(14) 0.125(9) 0.384(16) 0.086(11) 0.245(12) 0.040(10)
Cl6 0.313(14) 0.058(4) 0.307(13) -0.047(6) 0.251(13) -0.038(6)
Cd1 0.0224 0.039 0.0789 -0.0063 -0.0002 0.002
Cd2 0.0400(4) 0.0405(4) 0.0898(6) -0.0079(3) 0.0143(4) -0.0098(3)
Cd3 0.0430(4) 0.0444(4) 0.0836(5) -0.0046(3) 0.0100(4) -0.0124(3)
C1 0.104 0.107 0.121 -0.021 0.051 0.009
C2 0.042 0.072 0.07 0.013 0.018 0.019
C3 0.04 0.07 0.1 -0.035 -0.002 -0.007
C4 0.031 0.14 0.079 -0.02 0.008 0.045
C5 0.044 0.048 0.079 -0.031 0.005 -0.02
C6 0.038 0.064 0.126 0.033 0.001 0.023
C7 0.023 0.093 0.102 -0.014 0.009 -0.01
C8 0.046 0.047 0.086 0.021 0.02 0.007
C9 0.03 0.032 0.073 0.001 0.001 0.007
C10 0.031 0.039 0.054 -0.001 0.002 0
C11 0.033 0.043 0.059 0.002 0.009 0.003
C12 0.026 0.046 0.083 0.009 0.004 0.01
C13 0.035 0.034 0.062 0.007 0.003 0.006
C14 0.043 0.032 0.072 -0.001 0.021 0.003
C15 0.024 0.031 0.066 -0.009 0 0.001
C16 0.052 0.033 0.107 -0.011 0.04 -0.003
C17 0.046 0.092 0.154 -0.05 0.014 0.013
C18 0.048 0.06 0.094 -0.004 -0.019 -0.006
C19 0.078 0.117 0.154 0.018 -0.046 -0.016
C20 0.044 0.109 0.32 0.055 -0.007 -0.024
C21 0.04 0.036 0.135 -0.011 0.017 0.004
C22 0.048 0.111 0.11 0.013 0.015 0.018
C23 0.061 0.075 0.155 -0.001 0.025 -0.004
C24 0.037 0.054 0.19 -0.045 0.009 -0.004
C25 0.037 0.031 0.077 0 0.012 0.005
C26 0.029 0.039 0.071 -0.005 0.007 0.002
C27 0.027 0.035 0.078 -0.008 0 -0.005
C28 0.036 0.026 0.091 -0.011 0.003 -0.008
C29 0.04 0.033 0.1 -0.014 0.001 0.01
C30 0.027 0.045 0.107 -0.022 -0.007 -0.002
C31 0.047 0.032 0.101 -0.007 0 -0.006
C32 0.055 0.03 0.078 -0.012 0.014 -0.011
C33 0.152(14) 0.183(17) 0.175(17) 0.076(15) 0.011(13) -0.041(12)
C34 0.229(14) 0.22(2) 0.158(16) 0.084(16) 0.118(14) 0.073(16)
C35 0.248(19) 0.18(2) 0.169(16) 0.065(16) 0.115(16) -0.014(16)
C36 0.094(9) 0.073(8) 0.112(8) -0.022(5) 0.007(6) 0.023(7)
C37 0.070(7) 0.26(2) 0.133(12) -0.060(13) 0.001(8) -0.011(10)
C38 0.136(12) 0.086(10) 0.115(10) 0.007(7) 0.025(9) 0.023(8)
C39 0.145(12) 0.085(8) 0.208(18) -0.024(11) 0.064(13) -0.039(9)
C40 0.34(2) 0.135(19) 0.37(3) -0.03(2) 0.13(2) 0.066(18)
C41 0.35(3) 0.21(3) 0.41(4) -0.12(3) 0.07(2) -0.15(2)
N1 0.032 0.086 0.084 -0.006 0.006 0.015
N2 0.035 0.033 0.093 -0.007 -0.001 0.011
N3 0.199(14) 0.130(13) 0.200(16) 0.036(11) 0.073(13) 0.000(10)
N4 0.080(6) 0.108(9) 0.111(7) -0.004(5) 0.005(6) 0.018(6)
N5 0.222(15) 0.098(8) 0.273(19) -0.096(11) 0.137(14) -0.057(9)
O1 0.08 0.091 0.113 0.039 0.016 -0.005
O2 0.087 0.102 0.112 0.005 0.042 -0.002
O3 0.03 0.044 0.075 0.006 -0.003 0.005
O4 0.039 0.034 0.09 0.005 0.007 -0.004
O5 0.062 0.047 0.086 0.001 0.038 0.005
O6 0.03 0.048 0.107 0 0.012 -0.003
O7 0.041 0.062 0.151 -0.047 0.027 -0.017
O8 0.052 0.158 0.138 0.003 0.018 0.026
O9 0.027 0.035 0.099 0.009 0.004 0.003
O10 0.031 0.034 0.084 -0.004 0.011 -0.007
O11 0.061 0.031 0.087 -0.009 0.019 -0.008
O12 0.046 0.046 0.096 -0.011 0.009 -0.014
O13 0.111(7) 0.083(6) 0.135(7) -0.002(5) 0.060(6) -0.028(5)
O14 0.060(5) 0.069(5) 0.142(7) -0.007(5) -0.012(5) 0.004(4)
O15 0.100(6) 0.051(4) 0.122(6) -0.022(4) 0.032(5) -0.007(4)
Cd1G 0.0224 0.039 0.0789 0.0063 -0.0002 -0.002
Cd1A 0.0224 0.039 0.0789 0.0063 -0.0002 -0.002
Cd1C 0.0224 0.039 0.0789 0.0063 -0.0002 -0.002
Cd2C 0.04 0.0405 0.0898 0.0079 0.0143 0.0098
Cd2G 0.04 0.0405 0.0898 0.0079 0.0143 0.0098
Cd2D 0.04 0.0405 0.0898 -0.0079 0.0143 -0.0098
Cd3F 0.043 0.0444 0.0836 -0.0046 0.01 -0.0124
Cd3C 0.043 0.0444 0.0836 0.0046 0.01 0.0124
Cd3G 0.043 0.0444 0.0836 0.0046 0.01 0.0124
O3G 0.03 0.044 0.075 -0.006 -0.003 -0.005
O5A 0.062 0.047 0.086 -0.001 0.038 -0.005
O6F 0.03 0.048 0.107 0 0.012 -0.003
O7C 0.041(4) 0.062(5) 0.151(7) 0.047(5) 0.027(4) 0.017(3)
O8C 0.052(5) 0.158(11) 0.138(8) -0.003(8) 0.018(6) -0.026(6)
O10G 0.031 0.034 0.084 0.004 0.011 0.007
O11C 0.061 0.031 0.087 0.009 0.019 0.008
O11D 0.061 0.031 0.087 -0.009 0.019 -0.008
O12D 0.046 0.046 0.096 -0.011 0.009 -0.014
loop_
_geom_bond_atom_site_label_1
_geom_bond_atom_site_label_2
_geom_bond_site_symmetry_1
_geom_bond_site_symmetry_2
Cd1 O1 1_555 1_555
Cd2 O4 1_555 1_555
Cd3 O4 1_555 1_555
C1 C2 1_555 1_555
C2 C3 1_555 1_555
C3 H1 1_555 1_555
C4 C3 1_555 1_555
H2 C4 1_555 1_555
C5 C4 1_555 1_555
C6 C5 1_555 1_555
H3 C6 1_555 1_555
C7 C2 1_555 1_555
H4 C7 1_555 1_555
C8 C5 1_555 1_555
C9 C10 1_555 1_555
C10 C11 1_555 1_555
C11 H5 1_555 1_555
C12 C11 1_555 1_555
C13 C12 1_555 1_555
H6 C13 1_555 1_555
C14 C13 1_555 1_555
C15 C10 1_555 1_555
H7 C15 1_555 1_555
C16 C14 1_555 1_555
C17 C18 1_555 1_555
C18 C19 1_555 1_555
C19 H8 1_555 1_555
C20 C19 1_555 1_555
H9 C20 1_555 1_555
C21 C20 1_555 1_555
C22 C21 1_555 1_555
H10 C22 1_555 1_555
C23 C18 1_555 1_555
H11 C23 1_555 1_555
C24 C21 1_555 1_555
C25 C26 1_555 1_555
C26 C27 1_555 1_555
C27 H12 1_555 1_555
C28 C27 1_555 1_555
C29 C28 1_555 1_555
H13 C29 1_555 1_555
C30 C29 1_555 1_555
C31 C26 1_555 1_555
H14 C31 1_555 1_555
C32 C28 1_555 1_555
C33 N3 1_555 1_555
C34 H15 1_555 1_555
H16 C34 1_555 1_555
H17 C34 1_555 1_555
C35 H18 1_555 1_555
H19 C35 1_555 1_555
H20 C35 1_555 1_555
C36 N4 1_555 1_555
C37 H21 1_555 1_555
H22 C37 1_555 1_555
H23 C37 1_555 1_555
C38 H24 1_555 1_555
H25 C38 1_555 1_555
H26 C38 1_555 1_555
C39 N5 1_555 1_555
C40 H27 1_555 1_555
H28 C40 1_555 1_555
H29 C40 1_555 1_555
C41 H30 1_555 1_555
H31 C41 1_555 1_555
H32 C41 1_555 1_555
C42 H33 1_555 1_555
C43 H34 1_555 1_555
Cl1 C42 1_555 1_555
Cl2 C42 1_555 1_555
Cl3 C42 1_555 1_555
Cl4 C43 1_555 1_555
Cl5 C43 1_555 1_555
Cl6 C43 1_555 1_555
N1 C8 1_555 1_555
N2 C24 1_555 1_555
N3 C34 1_555 1_555
N4 C37 1_555 1_555
N5 C40 1_555 1_555
O1 C1 1_555 1_555
O2 Cd1 1_555 1_555
O3 C9 1_555 1_555
O4 C9 1_555 1_555
O5 C16 1_555 1_555
O6 C16 1_555 1_555
O7 C17 1_555 1_555
O8 C17 1_555 1_555
O9 Cd1 1_555 1_555
O10 Cd1 1_555 1_555
O11 C32 1_555 1_555
O12 C32 1_555 1_555
O13 Cd2 1_555 1_555
O14 Cd3 1_555 1_555
O15 Cd3 1_555 1_555
Cd1G O3 1_555 1_555
Cd1A O5 1_555 1_555
Cd1C O11 1_555 1_555
Cd2C O8 1_555 1_555
Cd2G O10 1_555 1_555
Cd2D O11 1_555 1_555
Cd3F O6 1_555 1_555
Cd3C O7 1_555 1_555
Cd3G O10 1_555 1_555
O3G Cd1 1_555 1_555
O5A Cd1 1_555 1_555
O6F Cd3 1_555 1_555
O7C Cd3 1_555 1_555
O8C Cd2 1_555 1_555
O10G Cd2 1_555 1_555
O11C Cd1 1_555 1_555
O11D Cd2 1_555 1_555
O12D Cd2 1_555 1_555
Cd3 O10G 1_555 1_555
C1 O2 1_555 1_555
C6 C7 1_555 1_555
C12 N1 1_555 1_555
C14 C15 1_555 1_555
C22 C23 1_555 1_555
C25 O9 1_555 1_555
C25 O10 1_555 1_555
C30 C31 1_555 1_555
C30 N2 1_555 1_555
C33 O13 1_555 1_555
C35 N3 1_555 1_555
C36 O14 1_555 1_555
C38 N4 1_555 1_555
C39 O15 1_555 1_555
C41 N5 1_555 1_555
O12 Cd2D 1_555 1_555
Cd1G O10G 1_555 1_555
Cd1G O11D 1_555 1_555
Cd2G O11C 1_555 1_555

#END
