
#######################################################################
#
#                 Cambridge Crystallographic Data Centre
#                                CCDC 
#
#######################################################################
#
# If this CIF has been generated from an entry in the Cambridge 
# Structural Database, then it will include bibliographic, chemical, 
# crystal, experimental, refinement or atomic coordinate data resulting 
# from the CCDC's data processing and validation procedures.
#
#######################################################################

data_BOWSIQ
_chemical_formula_moiety         '(C26 H18 Cu1 N4 O6)n'
_symmetry_cell_setting           orthorhombic
_symmetry_space_group_name_H-M   'I b c a'
_symmetry_Int_Tables_number      73
_space_group_name_Hall           '-I 2b 2c'
loop_
_symmetry_equiv_pos_site_id
_symmetry_equiv_pos_as_xyz
1 x,y,z
2 1/2-x,-y,1/2+z
3 -x,1/2+y,1/2-z
4 1/2+x,1/2-y,-z
5 1/2+x,1/2+y,1/2+z
6 -x,1/2-y,z
7 1/2-x,y,-z
8 x,-y,1/2-z
9 -x,-y,-z
10 1/2+x,y,1/2-z
11 x,1/2-y,1/2+z
12 1/2-x,1/2+y,z
13 1/2-x,1/2-y,1/2-z
14 x,1/2+y,-z
15 1/2+x,-y,z
16 -x,y,1/2+z
_cell_length_a                   15.378(3)
_cell_length_b                   19.560(4)
_cell_length_c                   39.822(8)
_cell_angle_alpha                90
_cell_angle_beta                 90
_cell_angle_gamma                90
_cell_volume                     11978.2
loop_
_atom_site_label
_atom_site_type_symbol
_atom_site_fract_x
_atom_site_fract_y
_atom_site_fract_z
_atom_site_U_iso_or_equiv
_atom_site_thermal_displace_type
C1 C 0.4019(6) 0.1590(7) 0.16602(19) 0.0847 Uani
C2 C 0.3617(4) 0.0907(4) 0.16368(16) 0.0493 Uani
C3 C 0.2727(4) 0.0868(3) 0.16065(17) 0.0483 Uani
H1 H 0.2400 0.1265 0.1582 0.0580 Uiso
C4 C 0.2316(5) 0.0234(3) 0.16122(18) 0.0527 Uani
H2 H 0.1714 0.0204 0.1593 0.0630 Uiso
C5 C 0.2809(6) -0.0346(3) 0.16464(17) 0.0630 Uani
C6 C 0.3696(7) -0.0320(5) 0.16600(19) 0.0720 Uani
H3 H 0.4017 -0.0722 0.1672 0.0860 Uiso
C7 C 0.4102(6) 0.0290(7) 0.16561(19) 0.0857 Uani
H4 H 0.4706 0.0308 0.1666 0.1030 Uiso
C8 C 0.2304(11) -0.1028(4) 0.1682(2) 0.0937 Uani
C9 C 0.4419(5) 0.3585(3) 0.23785(17) 0.0490 Uani
H5 H 0.4667 0.3933 0.2251 0.0590 Uiso
C10 C 0.4485(4) 0.3631(3) 0.27231(16) 0.0477 Uani
H6 H 0.4780 0.3994 0.2822 0.0570 Uiso
C11 C 0.4108(4) 0.3130(3) 0.29182(15) 0.0370 Uani
C12 C 0.3677(5) 0.2602(3) 0.27540(17) 0.0520 Uani
H7 H 0.3411 0.2254 0.2875 0.0620 Uiso
C13 C 0.3655(4) 0.2606(4) 0.24129(17) 0.0527 Uani
H8 H 0.3357 0.2253 0.2307 0.0630 Uiso
C14 C 0.4202(4) 0.3221(4) 0.32956(18) 0.0493 Uani
C15 C 0.3823(5) 0.2671(4) 0.38323(17) 0.0540 Uani
C16 C 0.3932(6) 0.3215(4) 0.40437(18) 0.0683 Uani
H9 H 0.4025 0.3648 0.3954 0.0820 Uiso
C17 C 0.3908(6) 0.3134(4) 0.4379(2) 0.0780 Uani
H10 H 0.3980 0.3512 0.4518 0.0940 Uiso
C18 C 0.3776(5) 0.2492(4) 0.45212(18) 0.0597 Uani
C19 C 0.3638(7) 0.1949(4) 0.4309(2) 0.0907 Uani
H11 H 0.3518 0.1520 0.4398 0.1090 Uiso
C20 C 0.3673(6) 0.2029(4) 0.39748(19) 0.0750 Uani
H12 H 0.3596 0.1651 0.3836 0.0900 Uiso
C21 C 0.3807(7) 0.1856(5) 0.5066(2) 0.0883 Uani
C22 C 0.3826(6) 0.1949(5) 0.5435(2) 0.0713 Uani
C23 C 0.4128(11) 0.1429(6) 0.5617(3) 0.1507 Uani
H13 H 0.4338 0.1045 0.5506 0.1810 Uiso
C24 C 0.4142(9) 0.1440(6) 0.5966(2) 0.1317 Uani
H14 H 0.4328 0.1054 0.6083 0.1580 Uiso
C25 C 0.3583(7) 0.2500(5) 0.5963(2) 0.0887 Uani
H15 H 0.3375 0.2879 0.6078 0.1070 Uiso
C26 C 0.3553(8) 0.2494(6) 0.5611(2) 0.1120 Uani
H16 H 0.3341 0.2874 0.5498 0.1340 Uiso
Cu1 Cu 0.39512(5) 0.30543(4) 0.16776(2) 0.0481 Uani
H17 H 0.354(4) 0.239(3) 0.3350(15) 0.0700 Uiso
H18 H 0.377(4) 0.282(2) 0.5033(12) 0.0410 Uiso
N1 N 0.4029(3) 0.3082(3) 0.22171(13) 0.0423 Uani
N2 N 0.3824(4) 0.2712(3) 0.34792(14) 0.0487 Uani
N3 N 0.3761(5) 0.2456(3) 0.48805(15) 0.0690 Uani
N4 N 0.3900(4) 0.1978(3) 0.61342(14) 0.0580 Uani
O1 O 0.3526(5) 0.2104(4) 0.16917(16) 0.0903 Uani
O2 O 0.4832(4) 0.1644(5) 0.16416(16) 0.1420 Uani
O3 O 0.1490(7) -0.0988(3) 0.16607(18) 0.1060 Uani
O4 O 0.2712(7) -0.1560(3) 0.17212(15) 0.1347 Uani
O5 O 0.4573(4) 0.3703(3) 0.34147(12) 0.0623 Uani
O6 O 0.3862(7) 0.1290(4) 0.49349(17) 0.1597 Uani
Cu1J Cu 0.39512(5) 0.19457(4) 0.66776(2) 0.0481 Uani
Cu1E Cu 0.60488(5) 0.19457(4) 0.16776(2) 0.0481 Uani
Cu1K Cu 0.10488(5) -0.19457(4) 0.16776(2) 0.0481 Uani
N4J N 0.3900(4) 0.3022(3) 0.11342(14) 0.0580 Uani
O2E O 0.5168(4) 0.3356(5) 0.16416(16) 0.1420 Uani
O3K O 0.3510(7) 0.4012(3) 0.16607(18) 0.1060 Uani
loop_
_atom_site_aniso_label
_atom_site_aniso_U_11
_atom_site_aniso_U_22
_atom_site_aniso_U_33
_atom_site_aniso_U_23
_atom_site_aniso_U_13
_atom_site_aniso_U_12
C1 0.073(6) 0.159(10) 0.022(4) 0.022(5) -0.018(4) -0.057(7)
C2 0.032(3) 0.080(5) 0.036(4) -0.012(3) -0.006(3) -0.006(4)
C3 0.041(4) 0.035(3) 0.069(5) -0.003(3) -0.002(3) 0.005(3)
C4 0.042(4) 0.030(3) 0.086(6) 0.007(3) -0.003(4) 0.002(3)
C5 0.120(8) 0.027(3) 0.042(4) -0.007(3) -0.001(4) 0.018(4)
C6 0.085(7) 0.082(6) 0.049(5) 0.008(4) -0.005(4) 0.046(6)
C7 0.061(6) 0.161(11) 0.035(5) 0.005(5) -0.007(4) 0.042(6)
C8 0.222(13) 0.038(5) 0.021(4) -0.003(3) 0.006(7) 0.022(8)
C9 0.055(4) 0.049(4) 0.043(4) 0.004(3) 0.005(3) -0.010(3)
C10 0.056(4) 0.046(4) 0.041(4) -0.002(3) 0.003(3) -0.012(3)
C11 0.028(3) 0.046(4) 0.037(3) 0.001(3) 0.001(3) 0.004(3)
C12 0.067(5) 0.040(4) 0.049(4) 0.006(3) 0.000(3) -0.022(3)
C13 0.052(4) 0.060(5) 0.046(5) -0.012(3) -0.001(3) -0.019(4)
C14 0.039(4) 0.064(5) 0.045(4) 0.011(4) -0.010(3) 0.018(3)
C15 0.064(5) 0.055(4) 0.043(4) 0.009(3) -0.007(3) 0.003(4)
C16 0.123(8) 0.040(4) 0.042(4) 0.003(3) 0.004(5) -0.011(4)
C17 0.121(8) 0.065(6) 0.048(5) -0.008(4) 0.001(5) -0.026(5)
C18 0.077(6) 0.062(5) 0.040(4) 0.000(4) -0.006(4) 0.004(4)
C19 0.147(9) 0.062(5) 0.063(6) 0.003(4) -0.013(6) -0.024(6)
C20 0.130(8) 0.058(5) 0.037(4) 0.006(4) -0.014(4) -0.021(5)
C21 0.127(9) 0.085(7) 0.053(6) 0.004(5) 0.001(5) 0.000(6)
C22 0.088(6) 0.076(6) 0.050(5) 0.018(4) 0.011(4) 0.007(5)
C23 0.276(18) 0.104(9) 0.072(8) -0.009(6) 0.003(9) 0.073(10)
C24 0.257(16) 0.101(8) 0.037(5) 0.010(5) 0.015(7) 0.074(9)
C25 0.132(8) 0.082(6) 0.052(5) 0.011(5) -0.014(5) 0.013(6)
C26 0.176(11) 0.104(8) 0.056(6) 0.019(6) -0.027(7) 0.011(8)
Cu1 0.0426(5) 0.0507(5) 0.0510(5) -0.0096(4) 0.0030(4) -0.0053(4)
N1 0.039(3) 0.047(3) 0.041(3) -0.006(3) 0.002(3) 0.003(3)
N2 0.067(4) 0.042(3) 0.037(3) 0.001(3) -0.009(3) 0.000(3)
N3 0.101(5) 0.067(4) 0.039(4) 0.010(3) -0.005(3) -0.007(4)
N4 0.064(4) 0.066(4) 0.044(3) 0.020(3) 0.002(3) 0.017(3)
O1 0.120(6) 0.080(4) 0.071(4) -0.023(3) 0.023(4) -0.061(4)
O2 0.065(4) 0.293(11) 0.068(4) 0.058(5) -0.032(3) -0.096(6)
O3 0.194(8) 0.044(4) 0.080(5) 0.013(3) -0.025(6) -0.039(5)
O4 0.275(11) 0.046(3) 0.083(5) 0.023(3) 0.065(5) 0.068(5)
O5 0.078(4) 0.062(3) 0.047(3) -0.006(2) -0.002(3) -0.018(3)
O6 0.349(15) 0.082(5) 0.048(4) -0.001(4) 0.001(6) 0.010(6)
Cu1J 0.0426 0.0507 0.051 0.0096 0.003 0.0053
Cu1E 0.0426 0.0507 0.051 0.0096 -0.003 -0.0053
Cu1K 0.0426 0.0507 0.051 -0.0096 -0.003 0.0053
N4J 0.064 0.066 0.044 -0.02 0.002 -0.017
O2E 0.065 0.293 0.068 -0.058 0.032 -0.096
O3K 0.194 0.044 0.08 0.013 0.025 0.039
loop_
_geom_bond_atom_site_label_1
_geom_bond_atom_site_label_2
_geom_bond_site_symmetry_1
_geom_bond_site_symmetry_2
C1 C2 1_555 1_555
C2 C3 1_555 1_555
C3 H1 1_555 1_555
C4 C3 1_555 1_555
H2 C4 1_555 1_555
C5 C4 1_555 1_555
C6 C5 1_555 1_555
H3 C6 1_555 1_555
C7 C2 1_555 1_555
H4 C7 1_555 1_555
C8 C5 1_555 1_555
C9 H5 1_555 1_555
C10 C9 1_555 1_555
H6 C10 1_555 1_555
C11 C10 1_555 1_555
C12 C11 1_555 1_555
H7 C12 1_555 1_555
C13 C12 1_555 1_555
H8 C13 1_555 1_555
C14 C11 1_555 1_555
C15 C16 1_555 1_555
C16 H9 1_555 1_555
C17 C16 1_555 1_555
H10 C17 1_555 1_555
C18 C17 1_555 1_555
C19 C18 1_555 1_555
H11 C19 1_555 1_555
C20 C15 1_555 1_555
H12 C20 1_555 1_555
C21 C22 1_555 1_555
C22 C23 1_555 1_555
C23 H13 1_555 1_555
C24 C23 1_555 1_555
H14 C24 1_555 1_555
C25 H15 1_555 1_555
C26 C22 1_555 1_555
H16 C26 1_555 1_555
Cu1 N1 1_555 1_555
H17 N2 1_555 1_555
H18 N3 1_555 1_555
N1 C9 1_555 1_555
N2 C14 1_555 1_555
N3 C18 1_555 1_555
N4 C24 1_555 1_555
O1 C1 1_555 1_555
O2 C1 1_555 1_555
O3 C8 1_555 1_555
O4 C8 1_555 1_555
O5 C14 1_555 1_555
O6 C21 1_555 1_555
Cu1J N4 1_555 1_555
Cu1E O2 1_555 1_555
Cu1K O3 1_555 1_555
N4J Cu1 1_555 1_555
O2E Cu1 1_555 1_555
O3K Cu1 1_555 1_555
C6 C7 1_555 1_555
C13 N1 1_555 1_555
C15 N2 1_555 1_555
C19 C20 1_555 1_555
C21 N3 1_555 1_555
C25 C26 1_555 1_555
C25 N4 1_555 1_555
Cu1 O1 1_555 1_555

#END
