
#######################################################################
#
#                 Cambridge Crystallographic Data Centre
#                                CCDC 
#
#######################################################################
#
# If this CIF has been generated from an entry in the Cambridge 
# Structural Database, then it will include bibliographic, chemical, 
# crystal, experimental, refinement or atomic coordinate data resulting 
# from the CCDC's data processing and validation procedures.
#
#######################################################################

data_PUSJUK
_chemical_formula_moiety         '(C24 H16 Cr2 N4 Ni1 O7)n'
_symmetry_cell_setting           orthorhombic
_symmetry_space_group_name_H-M   'I 2 2 2'
_symmetry_Int_Tables_number      23
_space_group_name_Hall           'I 2 2'
loop_
_symmetry_equiv_pos_site_id
_symmetry_equiv_pos_as_xyz
1 x,y,z
2 -x,-y,z
3 x,-y,-z
4 -x,y,-z
5 1/2+x,1/2+y,1/2+z
6 1/2-x,1/2-y,1/2+z
7 1/2+x,1/2-y,1/2-z
8 1/2-x,1/2+y,1/2-z
_cell_length_a                   8.5465(9)
_cell_length_b                   15.9683(17)
_cell_length_c                   20.726(2)
_cell_angle_alpha                90
_cell_angle_beta                 90
_cell_angle_gamma                90
_cell_volume                     2828.54
loop_
_atom_site_label
_atom_site_type_symbol
_atom_site_fract_x
_atom_site_fract_y
_atom_site_fract_z
Ni1 Ni 0.5000 0.5000 0.2183(2)
Cr1 Cr 0.1097(6) 0.4155(3) 0.2124(4)
O1 O 0.2912(19) 0.4394(9) 0.2155(8)
O2 O 0.070(3) 0.3355(15) 0.2494(13)
N1 N 0.086(2) 0.9195(15) 0.6479(9)
O3 O 0.067(3) 0.3949(16) 0.1359(14)
C1 C 0.341(3) 0.6782(13) 0.3962(8)
N2 N 0.428(2) 0.5809(10) 0.2909(7)
O4 O -0.0000 0.5000 0.2412(14)
C2 C 0.473(6) 0.663(3) 0.387(2)
H1 H 0.5503 0.6816 0.4169
C3 C 0.297(3) 0.7266(17) 0.4575(12)
C4 C 0.241(3) 0.7689(16) 0.4996(14)
C5 C 0.196(3) 0.819(2) 0.5507(13)
C6 C 0.105(4) 0.784(2) 0.6028(14)
H2 H 0.0827 0.7254 0.6041
C7 C 0.052(3) 0.8363(18) 0.6505(13)
H3 H -0.0078 0.8146 0.6853
C8 C 0.232(3) 0.8987(19) 0.5509(12)
H4 H 0.2964 0.9215 0.5180
C9 C 0.176(3) 0.9478(17) 0.5985(11)
H5 H 0.2012 1.0057 0.5975
C10 C 0.234(5) 0.658(3) 0.346(2)
H6 H 0.1313 0.6808 0.3456
C11 C 0.281(5) 0.607(3) 0.3008(19)
H7 H 0.2039 0.5860 0.2721
C12 C 0.521(6) 0.611(3) 0.3254(19)
H8 H 0.6292 0.6031 0.3160
Cr1A Cr -0.1097(6) 0.5845(3) 0.2124(4)
O1A O -0.2912(19) 0.5606(9) 0.2155(8)
O2A O -0.070(3) 0.6645(15) 0.2494(13)
O3A O -0.067(3) 0.6051(16) 0.1359(14)
N1E N 0.414(2) 0.5805(15) 0.1479(9)
C1E C 0.159(3) 0.8218(13) -0.1038(8)
N2E N 0.072(2) 0.9191(10) -0.2091(7)
C2E C 0.027(6) 0.837(3) -0.113(2)
H1E H -0.0503 0.8184 -0.0831
C3E C 0.203(3) 0.7734(17) -0.0425(12)
C4E C 0.259(3) 0.7311(16) -0.0004(14)
C5E C 0.304(3) 0.681(2) 0.0507(13)
C6E C 0.395(4) 0.716(2) 0.1028(14)
H2E H 0.4173 0.7746 0.1041
C7E C 0.448(3) 0.6637(18) 0.1505(13)
H3E H 0.5078 0.6854 0.1853
C8E C 0.268(3) 0.6013(19) 0.0509(12)
H4E H 0.2036 0.5785 0.0180
C9E C 0.324(3) 0.5522(17) 0.0985(11)
H5E H 0.2988 0.4943 0.0975
C10E C 0.266(5) 0.842(3) -0.154(2)
H6E H 0.3687 0.8192 -0.1544
C11E C 0.219(5) 0.893(3) -0.1992(19)
H7E H 0.2961 0.9140 -0.2279
C12E C -0.021(6) 0.889(3) -0.1746(19)
H8E H -0.1292 0.8969 -0.1840
Ni1_2 Ni -0.5000 0.5000 0.2183(2)
Ni1D Ni 0.0000 1.0000 -0.2817(2)
Ni1D_2 Ni -0.0000 1.0000 0.7183(2)
O1A_2 O 0.7088(19) 0.5606(9) 0.2155(8)
N1D N 0.586(2) 0.4195(15) 0.1479(9)
N2A N 0.572(2) 0.4191(10) 0.2909(7)
loop_
_geom_bond_atom_site_label_1
_geom_bond_atom_site_label_2
_geom_bond_site_symmetry_1
_geom_bond_site_symmetry_2
Ni1 O1 1_555 1_555
Cr1 O1 1_555 1_555
O2 Cr1 1_555 1_555
N1 C7 1_555 1_555
O3 Cr1 1_555 1_555
C1 C2 1_555 1_555
N2 Ni1 1_555 1_555
O4 Cr1 1_555 1_555
C2 H1 1_555 1_555
C3 C1 1_555 1_555
C4 C3 1_555 1_555
C5 C4 1_555 1_555
C6 C5 1_555 1_555
H2 C6 1_555 1_555
C7 C6 1_555 1_555
H3 C7 1_555 1_555
C8 C5 1_555 1_555
H4 C8 1_555 1_555
C9 N1 1_555 1_555
H5 C9 1_555 1_555
C10 C1 1_555 1_555
H6 C10 1_555 1_555
C11 N2 1_555 1_555
H7 C11 1_555 1_555
C12 N2 1_555 1_555
H8 C12 1_555 1_555
Cr1A O4 1_555 1_555
O1A Cr1A 1_555 1_555
O2A Cr1A 1_555 1_555
O3A Cr1A 1_555 1_555
N1E Ni1 1_555 1_555
C1E C2E 1_555 1_555
N2E C11E 1_555 1_555
C2E H1E 1_555 1_555
C3E C1E 1_555 1_555
C4E C3E 1_555 1_555
C5E C4E 1_555 1_555
C6E C5E 1_555 1_555
H2E C6E 1_555 1_555
C7E N1E 1_555 1_555
H3E C7E 1_555 1_555
C8E C5E 1_555 1_555
H4E C8E 1_555 1_555
C9E N1E 1_555 1_555
H5E C9E 1_555 1_555
C10E C1E 1_555 1_555
H6E C10E 1_555 1_555
C11E C10E 1_555 1_555
H7E C11E 1_555 1_555
C12E N2E 1_555 1_555
H8E C12E 1_555 1_555
Ni1_2 O1A 1_555 1_555
Ni1D N2E 1_555 1_555
Ni1D_2 N1 1_555 1_555
O1A_2 Ni1 1_555 1_555
N1D Ni1 1_555 1_555
N2A Ni1 1_555 1_555
C2 C12 1_555 1_555
C8 C9 1_555 1_555
C10 C11 1_555 1_555
C2E C12E 1_555 1_555
C6E C7E 1_555 1_555
C8E C9E 1_555 1_555

#END
