
#######################################################################
#
#                 Cambridge Crystallographic Data Centre
#                                CCDC 
#
#######################################################################
#
# If this CIF has been generated from an entry in the Cambridge 
# Structural Database, then it will include bibliographic, chemical, 
# crystal, experimental, refinement or atomic coordinate data resulting 
# from the CCDC's data processing and validation procedures.
#
#######################################################################

data_HOZXEB
_chemical_formula_moiety         '(C8 H20 Cd9 Cl10 N40 O2)n'
_symmetry_cell_setting           monoclinic
_symmetry_space_group_name_H-M   'C 2/m'
_symmetry_Int_Tables_number      12
_space_group_name_Hall           '-C 2y'
loop_
_symmetry_equiv_pos_site_id
_symmetry_equiv_pos_as_xyz
1 x,y,z
2 -x,y,-z
3 1/2+x,1/2+y,z
4 1/2-x,1/2+y,-z
5 -x,-y,-z
6 x,-y,z
7 1/2-x,1/2-y,-z
8 1/2+x,1/2-y,z
_cell_length_a                   13.491(4)
_cell_length_b                   36.221(11)
_cell_length_c                   13.779(4)
_cell_angle_alpha                90
_cell_angle_beta                 100.794(4)
_cell_angle_gamma                90
_cell_volume                     6614.08
loop_
_atom_site_label
_atom_site_type_symbol
_atom_site_fract_x
_atom_site_fract_y
_atom_site_fract_z
Cd1 Cd -0.64921(7) 0.15050(3) 0.00519(8)
Cd2 Cd -0.79262(7) 0.09158(3) -0.20613(8)
Cd3 Cd -0.59925(8) 0.05259(3) -0.38320(8)
Cd4 Cd -1.01035(8) 0.14760(3) -0.36309(9)
Cd5 Cd -0.7500 0.2500 0.0000
Cl1 Cl -0.5000 0.08863(14) -0.5000
Cl2 Cl -0.7617(3) 0.09260(10) -0.0151(3)
Cl3 Cl -0.9887(3) 0.08880(13) -0.2405(3)
Cl4 Cl -0.6589(5) 0.0000 -0.5085(4)
Cl5 Cl -0.7379(4) 0.19180(14) 0.1161(3)
Cl6 Cl -1.0000 0.19798(18) -0.5000
Cl7 Cl -0.4523(14) -0.0000 -0.2997(11)
N1 N -0.7462(8) 0.0850(3) -0.4376(9)
N2 N -0.7993(8) 0.1015(3) -0.3797(9)
N3 N -0.8793(8) 0.1182(3) -0.4272(8)
N4 N -0.8753(10) 0.1146(4) -0.5237(9)
C1 C -0.7933(11) 0.0926(4) -0.5287(12)
N5 N -0.7639(11) 0.0815(5) -0.6149(9)
H1 H -0.7103 0.0684 -0.6123
H2 H -0.7991 0.0877 -0.6711
N6 N -0.8863(9) 0.1779(3) -0.2553(9)
N7 N -0.8160(8) 0.1562(3) -0.1985(9)
N8 N -0.7647(8) 0.1772(3) -0.1284(9)
N9 N -0.8024(11) 0.2108(4) -0.1342(11)
C2 C -0.8772(14) 0.2112(5) -0.2112(12)
N10 N -0.9346(15) 0.2407(5) -0.2471(13)
H3 H -0.9238 0.2619 -0.2190
H4 H -0.9819 0.2382 -0.2981
N11 N -0.5807(11) 0.2386(3) -0.0050(11)
N12 N -0.5467(9) 0.2032(3) -0.0049(11)
C3 C -0.5000 0.2607(6) 0.0000
N13 N -0.5000 0.2978(5) 0.0000
H5 H -0.5558 0.3096 -0.0035
N14 N -0.4722(8) 0.1287(4) -0.1328(9)
N15 N -0.5694(8) 0.1233(3) -0.1159(8)
N16 N -0.6166(8) 0.1043(3) -0.1922(9)
N17 N -0.5536(9) 0.0962(4) -0.2548(9)
C4 C -0.4673(15) 0.1124(6) -0.2128(13)
N18 N -0.3831(12) 0.1133(7) -0.2590(13)
H6 H -0.3304 0.1257 -0.2328
H7 H -0.3842 0.1016 -0.3135
N19 N -0.7650(9) 0.0299(3) -0.2242(9)
N20 N -0.6938(9) 0.0182(3) -0.2761(9)
C5 C -0.805(3) 0.0000 -0.196(3)
N21 N -0.873(2) 0.0000 -0.138(2)
H8 H -0.8900 0.0205 -0.1178
O1 O -1.1440(13) 0.1732(5) -0.2968(12)
H9 H -1.2047 0.1779 -0.3237
H10 H -1.1141 0.1946 -0.2999
H5A H -0.4442 0.3096 0.0035
N11A N -0.4193(11) 0.2386(3) 0.0050(11)
N12A N -0.4533(9) 0.2032(3) 0.0049(11)
N19E N -0.7650(9) -0.0299(3) -0.2242(9)
N20E N -0.6938(9) -0.0182(3) -0.2761(9)
H8E H -0.8900 -0.0205 -0.1178
Cd1A Cd -1.35079(7) 0.15050(3) -1.00519(8)
Cd2A Cd -1.20738(7) 0.09158(3) -0.79387(8)
Cd3A Cd -1.40075(8) 0.05259(3) -0.61680(8)
Cd4A Cd -0.98965(8) 0.14760(3) -0.63691(9)
Cl2A Cl -1.2383(3) 0.09260(10) -0.9849(3)
Cl3A Cl -1.0113(3) 0.08880(13) -0.7595(3)
Cl5A Cl -1.2621(4) 0.19180(14) -1.1161(3)
N1A N -1.2538(8) 0.0850(3) -0.5624(9)
N2A N -1.2007(8) 0.1015(3) -0.6203(9)
N3A N -1.1207(8) 0.1182(3) -0.5728(8)
N4A N -1.1247(10) 0.1146(4) -0.4763(9)
C1A C -1.2067(11) 0.0926(4) -0.4713(12)
N5A N -1.2361(11) 0.0815(5) -0.3851(9)
H1A H -1.2897 0.0684 -0.3877
H2A H -1.2009 0.0877 -0.3289
N6A N -1.1137(9) 0.1779(3) -0.7447(9)
N7A N -1.1840(8) 0.1562(3) -0.8015(9)
N8A N -1.2353(8) 0.1772(3) -0.8716(9)
N9A N -1.1976(11) 0.2108(4) -0.8658(11)
C2A C -1.1228(14) 0.2112(5) -0.7888(12)
N10A N -1.0654(15) 0.2407(5) -0.7529(13)
H3A H -1.0762 0.2619 -0.7810
H4A H -1.0181 0.2382 -0.7019
N14A N -1.5278(8) 0.1287(4) -0.8672(9)
N15A N -1.4306(8) 0.1233(3) -0.8841(8)
N16A N -1.3834(8) 0.1043(3) -0.8078(9)
N17A N -1.4464(9) 0.0962(4) -0.7452(9)
C4A C -1.5327(15) 0.1124(6) -0.7872(13)
N18A N -1.6169(12) 0.1133(7) -0.7410(13)
H6A H -1.6696 0.1257 -0.7672
H7A H -1.6158 0.1016 -0.6865
O1A O -0.8560(13) 0.1732(5) -0.7032(12)
H9A H -0.7953 0.1779 -0.6763
H10A H -0.8859 0.1946 -0.7001
Cd1_2 Cd -1.64921(7) 0.15050(3) -0.99481(8)
Cd1A_2 Cd -0.35079(7) 0.15050(3) -0.00519(8)
Cd2E Cd -0.79262(7) -0.09158(3) -0.20613(8)
Cd3A_2 Cd -0.40075(8) 0.05259(3) -0.61680(8)
Cd3E Cd -0.59925(8) -0.05259(3) -0.38320(8)
Cd5A Cd -1.2500 0.2500 -1.0000
Cd5A_2 Cd -0.2500 0.2500 0.0000
Cl1_2 Cl -1.5000 0.08863(14) -0.5000
Cl4A Cl -1.3411(5) 0.0000 -0.4915(4)
Cl5F Cl -0.7621(4) 0.30820(14) -0.1161(3)
Cl7A Cl -1.5477(14) 0.0000 -0.7003(11)
N9F N -0.6976(11) 0.2892(4) 0.1342(11)
N11F N -0.9193(11) 0.2614(3) 0.0050(11)
N12A_2 N -1.4533(9) 0.2032(3) -0.9951(11)
N14_2 N -1.4722(8) 0.1287(4) -1.1328(9)
N14A_2 N -0.5278(8) 0.1287(4) 0.1328(9)
N19A N -1.2350(9) 0.0299(3) -0.7758(9)
N20A N -1.3062(9) 0.0182(3) -0.7239(9)
loop_
_geom_bond_atom_site_label_1
_geom_bond_atom_site_label_2
_geom_bond_site_symmetry_1
_geom_bond_site_symmetry_2
Cd1 Cl2 1_555 1_555
Cd2 Cl2 1_555 1_555
Cd3 Cl1 1_555 1_555
Cd4 Cl3 1_555 1_555
Cd5 Cl5 1_555 1_555
Cl1 Cd3A_2 1_555 1_555
Cl3 Cd2 1_555 1_555
Cl4 Cd3 1_555 1_555
Cl5 Cd1 1_555 1_555
Cl6 Cd4 1_555 1_555
Cl7 Cd3 1_555 1_555
N1 Cd3 1_555 1_555
N2 Cd2 1_555 1_555
N3 Cd4 1_555 1_555
N4 N3 1_555 1_555
C1 N1 1_555 1_555
N5 C1 1_555 1_555
H1 N5 1_555 1_555
H2 N5 1_555 1_555
N6 Cd4 1_555 1_555
N7 Cd2 1_555 1_555
N8 Cd1 1_555 1_555
N9 Cd5 1_555 1_555
C2 N6 1_555 1_555
N10 C2 1_555 1_555
H3 N10 1_555 1_555
H4 N10 1_555 1_555
N11 Cd5 1_555 1_555
N12 Cd1 1_555 1_555
C3 N11 1_555 1_555
N13 C3 1_555 1_555
H5 N13 1_555 1_555
N14 N15 1_555 1_555
N15 Cd1 1_555 1_555
N16 Cd2 1_555 1_555
N17 Cd3 1_555 1_555
C4 N14 1_555 1_555
N18 C4 1_555 1_555
H6 N18 1_555 1_555
H7 N18 1_555 1_555
N19 Cd2 1_555 1_555
N20 Cd3 1_555 1_555
C5 N19 1_555 1_555
N21 C5 1_555 1_555
H8 N21 1_555 1_555
O1 Cd4 1_555 1_555
H9 O1 1_555 1_555
H10 O1 1_555 1_555
H5A N13 1_555 1_555
N11A C3 1_555 1_555
N12A N12 1_555 1_555
N19E C5 1_555 1_555
N20E N20 1_555 1_555
H8E N21 1_555 1_555
Cd1A Cl2A 1_555 1_555
Cd2A Cl2A 1_555 1_555
Cd3A N1A 1_555 1_555
Cd4A Cl6 1_555 1_555
Cl3A Cd2A 1_555 1_555
Cl5A Cd1A 1_555 1_555
N1A N2A 1_555 1_555
N2A Cd2A 1_555 1_555
N3A Cd4A 1_555 1_555
N4A Cd4 1_555 1_555
C1A N1A 1_555 1_555
N5A C1A 1_555 1_555
H1A N5A 1_555 1_555
H2A N5A 1_555 1_555
N6A Cd4A 1_555 1_555
N7A Cd2A 1_555 1_555
N8A Cd1A 1_555 1_555
N9A N8A 1_555 1_555
C2A N6A 1_555 1_555
N10A C2A 1_555 1_555
H3A N10A 1_555 1_555
H4A N10A 1_555 1_555
N14A N15A 1_555 1_555
N15A Cd1A 1_555 1_555
N16A Cd2A 1_555 1_555
N17A Cd3A 1_555 1_555
C4A N14A 1_555 1_555
N18A C4A 1_555 1_555
H6A N18A 1_555 1_555
H7A N18A 1_555 1_555
O1A Cd4A 1_555 1_555
H9A O1A 1_555 1_555
H10A O1A 1_555 1_555
Cd1_2 N14A 1_555 1_555
Cd1A_2 N14 1_555 1_555
Cd2E N19E 1_555 1_555
Cd3E Cl4 1_555 1_555
Cd5A Cl5A 1_555 1_555
Cd5A_2 N11A 1_555 1_555
Cl1_2 Cd3A 1_555 1_555
Cl4A Cd3A 1_555 1_555
Cl5F Cd5 1_555 1_555
Cl7A Cd3A 1_555 1_555
N9F Cd5 1_555 1_555
N11F Cd5 1_555 1_555
N12A_2 Cd1A 1_555 1_555
N14_2 Cd1A 1_555 1_555
N14A_2 Cd1 1_555 1_555
N19A Cd2A 1_555 1_555
N20A Cd3A 1_555 1_555
Cl7 Cd3E 1_555 1_555
N1 N2 1_555 1_555
N2 N3 1_555 1_555
N4 C1 1_555 1_555
N4 Cd4A 1_555 1_555
N6 N7 1_555 1_555
N7 N8 1_555 1_555
N8 N9 1_555 1_555
N9 C2 1_555 1_555
N11 N12 1_555 1_555
N15 N16 1_555 1_555
N16 N17 1_555 1_555
N17 C4 1_555 1_555
N19 N20 1_555 1_555
N11A N12A 1_555 1_555
N12A Cd1A_2 1_555 1_555
N19E N20E 1_555 1_555
N20E Cd3E 1_555 1_555
Cd4A Cl3A 1_555 1_555
N2A N3A 1_555 1_555
N3A N4A 1_555 1_555
N4A C1A 1_555 1_555
N6A N7A 1_555 1_555
N7A N8A 1_555 1_555
N9A C2A 1_555 1_555
N9A Cd5A 1_555 1_555
N15A N16A 1_555 1_555
N16A N17A 1_555 1_555
N17A C4A 1_555 1_555
N19A N20A 1_555 1_555

#END
