
#######################################################################
#
#                 Cambridge Crystallographic Data Centre
#                                CCDC 
#
#######################################################################
#
# If this CIF has been generated from an entry in the Cambridge 
# Structural Database, then it will include bibliographic, chemical, 
# crystal, experimental, refinement or atomic coordinate data resulting 
# from the CCDC's data processing and validation procedures.
#
#######################################################################

data_DEWQUS
_chemical_formula_moiety         '(C30 H49 Co3 Mo12 N6 O66 P8 1-)n'
_symmetry_cell_setting           orthorhombic
_symmetry_space_group_name_H-M   'P c c n'
_symmetry_Int_Tables_number      56
_space_group_name_Hall           '-P 2ab 2ac'
loop_
_symmetry_equiv_pos_site_id
_symmetry_equiv_pos_as_xyz
1 x,y,z
2 1/2-x,1/2-y,z
3 -x,1/2+y,1/2-z
4 1/2+x,-y,1/2-z
5 -x,-y,-z
6 1/2+x,1/2+y,-z
7 x,1/2-y,1/2+z
8 1/2-x,y,1/2+z
_cell_length_a                   27.644(6)
_cell_length_b                   16.017(3)
_cell_length_c                   22.902(5)
_cell_angle_alpha                90
_cell_angle_beta                 90
_cell_angle_gamma                90
_cell_volume                     10140.4
loop_
_atom_site_label
_atom_site_type_symbol
_atom_site_fract_x
_atom_site_fract_y
_atom_site_fract_z
_atom_site_U_iso_or_equiv
_atom_site_thermal_displace_type
Co1 Co 0.0000 1.0000 0.5000 0.0121 Uani
P1 P -0.00874(5) 1.18806(9) 0.26247(6) 0.0244 Uani
P2 P -0.13133(4) 0.78090(8) 0.34351(5) 0.0167 Uani
P3 P 0.13316(4) 0.79691(8) 0.33476(5) 0.0173 Uani
P4 P -0.00210(4) 0.93374(8) 0.34007(5) 0.0123 Uani
O1 O 0.24633(15) 0.8873(3) 0.3366(2) 0.0360 Uani
O2 O -0.10382(12) 1.0245(2) 0.32978(15) 0.0192 Uani
O3 O -0.24145(13) 0.8848(2) 0.34344(16) 0.0243 Uani
O4 O -0.06001(12) 1.0327(2) 0.44436(14) 0.0143 Uani
O5 O 0.00193(10) 0.7397(2) 0.39100(17) 0.0182 Uani
O6 O 0.09734(13) 1.0369(2) 0.32308(15) 0.0212 Uani
O7 O 0.05796(12) 1.0401(2) 0.43997(14) 0.0149 Uani
O8 O -0.09850(12) 0.8759(2) 0.46590(14) 0.0163 Uani
O9 O -0.00262(10) 1.0287(2) 0.34688(16) 0.0142 Uani
O10 O -0.16251(13) 1.0064(2) 0.43152(17) 0.0259 Uani
O11 O -0.10654(13) 1.1778(2) 0.39670(17) 0.0260 Uani
O12 O 0.16057(13) 1.0260(2) 0.42250(17) 0.0274 Uani
O13 O 0.00206(9) 0.8727(2) 0.47609(15) 0.0132 Uani
O14 O -0.09601(13) 0.7451(2) 0.38802(16) 0.0245 Uani
O15 O 0.09839(13) 1.1891(2) 0.39073(18) 0.0271 Uani
O16 O 0.06337(13) 0.7332(2) 0.49196(16) 0.0257 Uani
O17 O 0.10107(12) 0.8877(2) 0.45839(15) 0.0162 Uani
O18 O -0.10616(15) 0.7802(3) 0.28157(18) 0.0340 Uani
O19 O -0.00630(12) 0.9174(3) 0.27386(16) 0.0237 Uani
O20 O 0.09760(13) 0.7574(2) 0.37778(16) 0.0238 Uani
O21 O 0.10994(15) 0.7976(3) 0.27230(18) 0.0370 Uani
O22 O -0.14261(12) 0.8731(2) 0.35539(15) 0.0204 Uani
O23 O 0.14463(12) 0.8881(2) 0.35071(16) 0.0228 Uani
O24 O -0.05162(13) 0.7247(2) 0.49765(16) 0.0247 Uani
O25 O -0.00438(11) 1.1678(2) 0.40101(16) 0.0187 Uani
O26 O 0.04458(11) 0.8992(2) 0.36594(14) 0.0149 Uani
O27 O -0.01897(16) 1.2797(2) 0.2562(2) 0.0397 Uani
O28 O -0.05200(13) 1.1491(2) 0.29323(16) 0.0265 Uani
O29 O 0.17781(12) 0.7448(2) 0.33132(16) 0.0255 Uani
O30 O -0.17671(13) 0.7293(2) 0.34113(16) 0.0222 Uani
O31 O 0.03942(13) 1.1689(2) 0.29184(16) 0.0292 Uani
O32 O -0.04529(12) 0.8953(2) 0.37216(14) 0.0147 Uani
O33 O -0.00713(16) 1.1468(3) 0.2002(2) 0.0423 Uani
Mo1 Mo 0.049380(14) 0.79852(2) 0.438154(17) 0.0130 Uani
Mo2 Mo 0.109863(14) 0.98202(3) 0.396567(18) 0.0142 Uani
Mo3 Mo 0.060092(15) 1.11389(3) 0.370137(18) 0.0153 Uani
Mo4 Mo -0.067073(14) 1.10497(2) 0.374370(17) 0.0136 Uani
Mo5 Mo -0.110942(13) 0.96858(3) 0.403702(17) 0.0133 Uani
Mo6 Mo -0.044320(14) 0.79220(2) 0.442705(17) 0.0134 Uani
C1 C -0.2226(3) 0.6977(5) 0.2183(3) 0.0500 Uani
H1 H -0.2030 0.6606 0.2386 0.0600 Uiso
C2 C -0.2218(3) 0.6960(5) 0.1575(3) 0.0557 Uani
H2 H -0.2021 0.6580 0.1382 0.0670 Uiso
C3 C -0.2500 0.7500 0.1261(3) 0.0247 Uani
C4 C -0.2156(2) 0.7117(4) -0.0307(2) 0.0333 Uani
H3 H -0.1911 0.6843 -0.0510 0.0400 Uiso
C5 C -0.2141(2) 0.7102(4) 0.0290(2) 0.0350 Uani
H4 H -0.1891 0.6826 0.0482 0.0420 Uiso
C6 C -0.2500 0.7500 0.0608(3) 0.0257 Uani
C7 C 0.2173(3) 0.7077(5) 0.2088(3) 0.0493 Uani
H5 H 0.1938 0.6781 0.2292 0.0590 Uiso
C8 C 0.2165(3) 0.7057(6) 0.1481(3) 0.0560 Uani
H6 H 0.1933 0.6741 0.1288 0.0670 Uiso
C9 C 0.2500 0.7500 0.1165(3) 0.0287 Uani
C10 C 0.2124(2) 0.7239(6) -0.0403(3) 0.0500 Uani
H7 H 0.1851 0.7065 -0.0609 0.0600 Uiso
C11 C 0.2109(2) 0.7208(6) 0.0200(3) 0.0487 Uani
H8 H 0.1839 0.6993 0.0390 0.0580 Uiso
C12 C 0.2500 0.7500 0.0519(3) 0.0293 Uani
N1 N -0.2500 0.7500 0.2484(3) 0.0250 Uani
N2 N -0.2500 0.7500 -0.0618(3) 0.0237 Uani
N3 N 0.2500 0.7500 0.2386(3) 0.0270 Uani
N4 N 0.2500 0.7500 -0.0705(3) 0.0263 Uani
Co2 Co -0.2500 0.7500 0.34270(4) 0.0155 Uani
Co3 Co 0.2500 0.7500 0.33347(4) 0.0170 Uani
P1D P 0.00874(5) 0.81194(9) 0.73753(6) 0.0244 Uani
P2D P 0.13133(4) 1.21910(8) 0.65649(5) 0.0167 Uani
P3D P -0.13316(4) 1.20309(8) 0.66524(5) 0.0173 Uani
P4D P 0.00210(4) 1.06626(8) 0.65993(5) 0.0123 Uani
O1A O 0.25367(15) 0.6127(3) 0.3366(2) 0.0360 Uani
O2D O 0.10382(12) 0.9755(2) 0.67022(15) 0.0192 Uani
O3A O -0.25855(13) 0.6152(2) 0.34344(16) 0.0243 Uani
O4D O 0.06001(12) 0.9673(2) 0.55564(14) 0.0143 Uani
O5D O -0.00193(10) 1.2603(2) 0.60900(17) 0.0182 Uani
O6D O -0.09734(13) 0.9631(2) 0.67692(15) 0.0212 Uani
O7D O -0.05796(12) 0.9599(2) 0.56003(14) 0.0149 Uani
O8D O 0.09850(12) 1.1241(2) 0.53410(14) 0.0163 Uani
O9D O 0.00262(10) 0.9713(2) 0.65312(16) 0.0142 Uani
O10D O 0.16251(13) 0.9936(2) 0.56848(17) 0.0259 Uani
O11D O 0.10654(13) 0.8222(2) 0.60330(17) 0.0260 Uani
O12D O -0.16057(13) 0.9740(2) 0.57750(17) 0.0274 Uani
O13D O -0.00206(9) 1.1273(2) 0.52391(15) 0.0132 Uani
O14D O 0.09601(13) 1.2549(2) 0.61198(16) 0.0245 Uani
O15D O -0.09839(13) 0.8109(2) 0.60927(18) 0.0271 Uani
O16D O -0.06337(13) 1.2668(2) 0.50804(16) 0.0257 Uani
O17D O -0.10107(12) 1.1123(2) 0.54161(15) 0.0162 Uani
O18D O 0.10616(15) 1.2198(3) 0.71843(18) 0.0340 Uani
O19D O 0.00630(12) 1.0826(3) 0.72614(16) 0.0237 Uani
O20D O -0.09760(13) 1.2426(2) 0.62222(16) 0.0238 Uani
O21D O -0.10994(15) 1.2024(3) 0.72770(18) 0.0370 Uani
O22D O 0.14261(12) 1.1269(2) 0.64461(15) 0.0204 Uani
O23D O -0.14463(12) 1.1119(2) 0.64929(16) 0.0228 Uani
O24D O 0.05162(13) 1.2753(2) 0.50235(16) 0.0247 Uani
O25D O 0.00438(11) 0.8322(2) 0.59899(16) 0.0187 Uani
O26D O -0.04458(11) 1.1008(2) 0.63406(14) 0.0149 Uani
O27D O 0.01897(16) 0.7203(2) 0.7438(2) 0.0397 Uani
O28D O 0.05200(13) 0.8509(2) 0.70677(16) 0.0265 Uani
O29D O -0.17781(12) 1.2552(2) 0.66868(16) 0.0255 Uani
O29A O 0.32219(12) 0.7552(2) 0.33132(16) 0.0255 Uani
O30D O 0.17671(13) 1.2707(2) 0.65887(16) 0.0222 Uani
O30A O -0.32329(13) 0.7707(2) 0.34113(16) 0.0222 Uani
O31D O -0.03942(13) 0.8311(2) 0.70816(16) 0.0292 Uani
O32D O 0.04529(12) 1.1047(2) 0.62784(14) 0.0147 Uani
O33D O 0.00713(16) 0.8532(3) 0.7998(2) 0.0423 Uani
Mo1D Mo -0.049380(14) 1.20148(2) 0.561846(17) 0.0130 Uani
Mo2D Mo -0.109863(14) 1.01798(3) 0.603433(18) 0.0142 Uani
Mo3D Mo -0.060092(15) 0.88611(3) 0.629863(18) 0.0153 Uani
Mo4D Mo 0.067073(14) 0.89503(2) 0.625630(17) 0.0136 Uani
Mo5D Mo 0.110942(13) 1.03142(3) 0.596298(17) 0.0133 Uani
Mo6D Mo 0.044320(14) 1.20780(2) 0.557295(17) 0.0134 Uani
C1A C -0.2774(3) 0.8023(5) 0.2183(3) 0.0500 Uani
H1A H -0.2970 0.8394 0.2386 0.0600 Uiso
C2A C -0.2782(3) 0.8040(5) 0.1575(3) 0.0557 Uani
H2A H -0.2979 0.8420 0.1382 0.0670 Uiso
C4A C -0.2844(2) 0.7883(4) -0.0307(2) 0.0333 Uani
H3A H -0.3089 0.8157 -0.0510 0.0400 Uiso
C5A C -0.2859(2) 0.7898(4) 0.0290(2) 0.0350 Uani
H4A H -0.3109 0.8174 0.0482 0.0420 Uiso
C7A C 0.2827(3) 0.7923(5) 0.2088(3) 0.0493 Uani
H5A H 0.3062 0.8219 0.2292 0.0590 Uiso
C8A C 0.2835(3) 0.7943(6) 0.1481(3) 0.0560 Uani
H6A H 0.3067 0.8259 0.1288 0.0670 Uiso
C10A C 0.2876(2) 0.7761(6) -0.0403(3) 0.0500 Uani
H7A H 0.3149 0.7935 -0.0609 0.0600 Uiso
C11A C 0.2891(2) 0.7792(6) 0.0200(3) 0.0487 Uani
H8A H 0.3161 0.8007 0.0390 0.0580 Uiso
N2F N -0.2500 0.7500 0.4382(3) 0.0237 Uani
N4F N 0.2500 0.7500 0.4295(3) 0.0263 Uani
Co2F Co -0.2500 0.7500 -0.15730(4) 0.0155 Uani
Co2E Co 0.2500 1.2500 0.65730(4) 0.0155 Uani
Co3F Co 0.2500 0.7500 -0.16653(4) 0.0170 Uani
Co3E Co -0.2500 1.2500 0.66653(4) 0.0170 Uani
C13 C 0.3828(3) 0.9416(6) 0.3136(3) 0.0637 Uani
H9 H 0.3846 0.8902 0.2949 0.0760 Uiso
C14 C 0.3617(3) 0.9459(5) 0.3678(3) 0.0503 Uani
H10 H 0.3482 0.8985 0.3848 0.0600 Uiso
C15 C 0.3607(2) 1.0215(4) 0.3965(3) 0.0397 Uani
C16 C 0.3822(4) 1.0896(5) 0.3699(3) 0.0657 Uani
H11 H 0.3823 1.1410 0.3888 0.0790 Uiso
C17 C 0.4029(6) 1.0824(6) 0.3174(4) 0.1173 Uani
H12 H 0.4188 1.1274 0.3004 0.1410 Uiso
C18 C 0.3365(2) 1.0299(4) 0.4544(3) 0.0343 Uani
C19 C 0.3541(2) 1.0845(4) 0.4965(3) 0.0443 Uani
H13 H 0.3811 1.1174 0.4890 0.0530 Uiso
C20 C 0.3312(2) 1.0890(5) 0.5488(3) 0.0473 Uani
H14 H 0.3447 1.1230 0.5774 0.0570 Uiso
C21 C 0.2732(3) 0.9994(5) 0.5197(4) 0.0613 Uani
H15 H 0.2435 0.9737 0.5263 0.0740 Uiso
C22 C 0.2955(3) 0.9848(5) 0.4681(3) 0.0493 Uani
H16 H 0.2834 0.9451 0.4423 0.0590 Uiso
N5 N 0.2911(2) 1.0485(4) 0.5619(3) 0.0467 Uani
N6 N 0.3999(3) 1.0051(5) 0.2884(3) 0.0797 Uani
loop_
_atom_site_aniso_label
_atom_site_aniso_U_11
_atom_site_aniso_U_22
_atom_site_aniso_U_33
_atom_site_aniso_U_23
_atom_site_aniso_U_13
_atom_site_aniso_U_12
Co1 0.0115(5) 0.0116(5) 0.0132(5) -0.0014(4) -0.0004(3) 0.0000(3)
P1 0.0256(7) 0.0265(7) 0.0210(7) 0.0117(6) -0.0010(5) -0.0005(6)
P2 0.0122(6) 0.0197(6) 0.0181(6) -0.0032(5) -0.0015(5) -0.0049(5)
P3 0.0106(6) 0.0255(7) 0.0159(6) -0.0052(5) 0.0006(5) 0.0031(5)
P4 0.0113(6) 0.0137(6) 0.0118(6) -0.0007(5) 0.0005(4) -0.0001(4)
O1 0.026(2) 0.031(2) 0.051(3) -0.0018(19) -0.0026(19) 0.0010(16)
O2 0.0198(17) 0.0225(17) 0.0152(17) 0.0004(14) -0.0033(13) -0.0021(14)
O3 0.0207(18) 0.0282(19) 0.0239(18) -0.0008(15) 0.0036(15) -0.0043(15)
O4 0.0139(16) 0.0149(16) 0.0140(16) -0.0005(13) -0.0009(13) 0.0000(13)
O5 0.0140(18) 0.023(2) 0.0175(18) -0.0059(16) -0.0010(11) -0.0001(12)
O6 0.0165(17) 0.0261(18) 0.0210(17) 0.0010(15) 0.0041(14) 0.0008(14)
O7 0.0133(16) 0.0159(16) 0.0154(16) -0.0002(13) 0.0019(13) -0.0002(13)
O8 0.0144(16) 0.0190(16) 0.0156(16) -0.0008(13) 0.0026(13) -0.0009(13)
O9 0.0119(17) 0.0173(19) 0.0133(17) -0.0012(14) 0.0026(11) 0.0011(11)
O10 0.0147(17) 0.032(2) 0.031(2) -0.0019(16) 0.0043(15) 0.0017(15)
O11 0.0191(18) 0.028(2) 0.031(2) -0.0018(16) 0.0003(15) 0.0040(15)
O12 0.0163(18) 0.032(2) 0.034(2) -0.0048(17) -0.0013(16) -0.0021(15)
O13 0.0124(17) 0.0127(17) 0.0145(17) -0.0036(14) -0.0010(11) 0.0001(11)
O14 0.0191(18) 0.0243(18) 0.030(2) -0.0026(16) -0.0071(16) -0.0015(14)
O15 0.0218(19) 0.0214(18) 0.038(2) 0.0020(16) 0.0006(17) -0.0040(15)
O16 0.0268(19) 0.0227(19) 0.0276(19) 0.0054(16) -0.0051(16) -0.0008(15)
O17 0.0131(16) 0.0173(17) 0.0182(17) -0.0007(13) -0.0024(13) 0.0011(13)
O18 0.033(2) 0.043(2) 0.026(2) -0.0027(18) 0.0095(17) -0.0013(18)
O19 0.0280(19) 0.027(2) 0.0161(19) -0.0044(16) -0.0018(14) 0.0011(15)
O20 0.0186(18) 0.0230(18) 0.0298(19) -0.0044(15) 0.0088(15) 0.0017(14)
O21 0.033(2) 0.055(3) 0.023(2) -0.0009(19) -0.0054(17) -0.0032(19)
O22 0.0129(16) 0.0252(18) 0.0231(18) -0.0018(15) -0.0049(14) -0.0015(14)
O23 0.0138(17) 0.0299(19) 0.0247(19) -0.0008(15) 0.0035(14) 0.0018(14)
O24 0.0244(19) 0.0245(18) 0.0251(19) 0.0031(16) 0.0030(15) -0.0033(15)
O25 0.0207(19) 0.0135(18) 0.022(2) -0.0008(15) -0.0023(13) -0.0004(12)
O26 0.0109(16) 0.0168(16) 0.0169(17) 0.0000(13) 0.0016(12) 0.0008(12)
O27 0.039(2) 0.025(2) 0.055(3) 0.013(2) -0.004(2) -0.0013(18)
O28 0.0239(19) 0.033(2) 0.0226(18) 0.0166(16) -0.0026(15) -0.0007(15)
O29 0.0153(18) 0.035(2) 0.0261(19) -0.0092(16) 0.0023(15) 0.0052(15)
O30 0.0185(18) 0.0216(17) 0.0265(19) -0.0006(15) -0.0043(15) -0.0062(14)
O31 0.0262(19) 0.037(2) 0.0244(19) 0.0150(17) -0.0009(15) -0.0038(16)
O32 0.0118(16) 0.0135(16) 0.0187(17) -0.0010(13) 0.0007(12) -0.0002(12)
O33 0.057(3) 0.047(3) 0.023(2) 0.011(2) -0.0022(18) 0.003(2)
Mo1 0.0111(2) 0.0134(2) 0.0146(2) -0.00183(15) -0.00004(14) 0.00099(14)
Mo2 0.0105(2) 0.0164(2) 0.0156(2) -0.00063(16) 0.00114(14) -0.00031(14)
Mo3 0.0132(2) 0.0161(2) 0.0167(2) 0.00305(15) 0.00081(15) -0.00188(15)
Mo4 0.0122(2) 0.0139(2) 0.0147(2) 0.00159(15) -0.00164(15) 0.00057(15)
Mo5 0.0098(2) 0.0156(2) 0.0146(2) -0.00084(15) -0.00090(14) -0.00131(14)
Mo6 0.0111(2) 0.0142(2) 0.0150(2) -0.00136(15) -0.00071(14) -0.00212(15)
C1 0.072(5) 0.064(5) 0.014(3) 0.004(3) 0.000(3) 0.038(4)
C2 0.076(5) 0.074(5) 0.017(3) -0.008(3) -0.005(3) 0.048(4)
C3 0.032(4) 0.036(4) 0.006(3) 0.000 0.000 0.011(3)
C4 0.04 0.043 0.017 -0.004 0.003 0.016
C5 0.034 0.052 0.019 0.004 -0.005 0.026
C6 0.031 0.035 0.011 0 0 0.009
C7 0.041(4) 0.091(6) 0.016(3) -0.005(3) 0.009(3) -0.027(4)
C8 0.044(4) 0.106(7) 0.018(3) -0.001(3) 0.000(3) -0.041(4)
C9 0.026(4) 0.045(5) 0.015(4) 0.000 0.000 -0.004(3)
C10 0.033 0.101 0.016 0.005 -0.007 -0.022
C11 0.025 0.102 0.019 0.001 0.007 -0.02
C12 0.02 0.052 0.016 0 0 -0.01
N1 0.027(3) 0.033(3) 0.015(3) 0.000 0.000 0.002(3)
N2 0.023 0.034 0.014 0 0 0.004
N3 0.017(3) 0.054(4) 0.010(3) 0.000 0.000 0.003(3)
N4 0.021 0.041 0.017 0 0 -0.009
Co2 0.0144(5) 0.0218(5) 0.0104(4) 0.000 0.000 -0.0046(4)
Co3 0.0123(5) 0.0267(5) 0.0119(4) 0.000 0.000 0.0042(4)
P1D 0.0256 0.0265 0.021 0.0117 -0.001 -0.0005
P2D 0.0122 0.0197 0.0181 -0.0032 -0.0015 -0.0049
P3D 0.0106 0.0255 0.0159 -0.0052 0.0006 0.0031
P4D 0.0113 0.0137 0.0118 -0.0007 0.0005 -0.0001
O1A 0.026 0.031 0.051 0.0018 0.0026 0.001
O2D 0.0198 0.0225 0.0152 0.0004 -0.0033 -0.0021
O3A 0.0207 0.0282 0.0239 0.0008 -0.0036 -0.0043
O4D 0.0139 0.0149 0.014 -0.0005 -0.0009 0
O5D 0.014 0.023 0.0175 -0.0059 -0.001 -0.0001
O6D 0.0165 0.0261 0.021 0.001 0.0041 0.0008
O7D 0.0133 0.0159 0.0154 -0.0002 0.0019 -0.0002
O8D 0.0144 0.019 0.0156 -0.0008 0.0026 -0.0009
O9D 0.0119 0.0173 0.0133 -0.0012 0.0026 0.0011
O10D 0.0147 0.032 0.031 -0.0019 0.0043 0.0017
O11D 0.0191 0.028 0.031 -0.0018 0.0003 0.004
O12D 0.0163 0.032 0.034 -0.0048 -0.0013 -0.0021
O13D 0.0124 0.0127 0.0145 -0.0036 -0.001 0.0001
O14D 0.0191 0.0243 0.03 -0.0026 -0.0071 -0.0015
O15D 0.0218 0.0214 0.038 0.002 0.0006 -0.004
O16D 0.0268 0.0227 0.0276 0.0054 -0.0051 -0.0008
O17D 0.0131 0.0173 0.0182 -0.0007 -0.0024 0.0011
O18D 0.033 0.043 0.026 -0.0027 0.0095 -0.0013
O19D 0.028 0.027 0.0161 -0.0044 -0.0018 0.0011
O20D 0.0186 0.023 0.0298 -0.0044 0.0088 0.0017
O21D 0.033 0.055 0.023 -0.0009 -0.0054 -0.0032
O22D 0.0129 0.0252 0.0231 -0.0018 -0.0049 -0.0015
O23D 0.0138 0.0299 0.0247 -0.0008 0.0035 0.0018
O24D 0.0244 0.0245 0.0251 0.0031 0.003 -0.0033
O25D 0.0207 0.0135 0.022 -0.0008 -0.0023 -0.0004
O26D 0.0109 0.0168 0.0169 0 0.0016 0.0008
O27D 0.039 0.025 0.055 0.013 -0.004 -0.0013
O28D 0.0239 0.033 0.0226 0.0166 -0.0026 -0.0007
O29D 0.0153 0.035 0.0261 -0.0092 0.0023 0.0052
O29A 0.0153 0.035 0.0261 0.0092 -0.0023 0.0052
O30D 0.0185 0.0216 0.0265 -0.0006 -0.0043 -0.0062
O30A 0.0185 0.0216 0.0265 0.0006 0.0043 -0.0062
O31D 0.0262 0.037 0.0244 0.015 -0.0009 -0.0038
O32D 0.0118 0.0135 0.0187 -0.001 0.0007 -0.0002
O33D 0.057 0.047 0.023 0.011 -0.0022 0.003
Mo1D 0.0111 0.0134 0.0146 -0.00183 -4e-05 0.00099
Mo2D 0.0105 0.0164 0.0156 -0.00063 0.00114 -0.00031
Mo3D 0.0132 0.0161 0.0167 0.00305 0.00081 -0.00188
Mo4D 0.0122 0.0139 0.0147 0.00159 -0.00164 0.00057
Mo5D 0.0098 0.0156 0.0146 -0.00084 -0.0009 -0.00131
Mo6D 0.0111 0.0142 0.015 -0.00136 -0.00071 -0.00212
C1A 0.072 0.064 0.014 -0.004 0 0.038
C2A 0.076 0.074 0.017 0.008 0.005 0.048
C4A 0.04 0.043 0.017 0.004 -0.003 0.016
C5A 0.034 0.052 0.019 -0.004 0.005 0.026
C7A 0.041 0.091 0.016 0.005 -0.009 -0.027
C8A 0.044 0.106 0.018 0.001 0 -0.041
C10A 0.033 0.101 0.016 -0.005 0.007 -0.022
C11A 0.025 0.102 0.019 -0.001 -0.007 -0.02
N2F 0.023 0.034 0.014 0 0 -0.004
N4F 0.021 0.041 0.017 0 0 0.009
Co2F 0.0144 0.0218 0.0104 0 0 0.0046
Co2E 0.0144 0.0218 0.0104 0 0 -0.0046
Co3F 0.0123 0.0267 0.0119 0 0 -0.0042
Co3E 0.0123 0.0267 0.0119 0 0 0.0042
C13 0.084(6) 0.066(5) 0.041(4) -0.022(4) 0.023(4) 0.003(4)
C14 0.066(5) 0.049(4) 0.036(4) -0.016(3) 0.022(3) -0.011(3)
C15 0.050(4) 0.042(3) 0.027(3) -0.007(3) 0.014(3) -0.004(3)
C16 0.114(7) 0.035(4) 0.048(4) 0.003(3) 0.041(4) 0.001(4)
C17 0.231(15) 0.055(5) 0.066(6) 0.005(5) 0.082(8) 0.008(7)
C18 0.037(3) 0.033(3) 0.033(3) -0.012(2) 0.009(3) -0.003(3)
C19 0.050(4) 0.039(3) 0.044(4) -0.019(3) 0.008(3) -0.017(3)
C20 0.043(4) 0.052(4) 0.047(4) -0.029(3) 0.010(3) -0.007(3)
C21 0.041(4) 0.081(6) 0.062(5) -0.023(4) 0.031(4) -0.018(4)
C22 0.043(4) 0.059(4) 0.046(4) -0.031(3) 0.016(3) -0.014(3)
N5 0.049(3) 0.045(3) 0.046(3) -0.014(3) 0.020(3) -0.004(3)
N6 0.127(7) 0.068(5) 0.044(4) 0.012(4) 0.030(4) 0.034(5)
loop_
_geom_bond_atom_site_label_1
_geom_bond_atom_site_label_2
_geom_bond_site_symmetry_1
_geom_bond_site_symmetry_2
Co1 O4 1_555 1_555
P1 O27 1_555 1_555
P2 O14 1_555 1_555
P3 O20 1_555 1_555
P4 O9 1_555 1_555
O1 Co3 1_555 1_555
O2 Mo4 1_555 1_555
O3 Co2 1_555 1_555
O4 Mo4 1_555 1_555
O5 Mo1 1_555 1_555
O6 Mo2 1_555 1_555
O7 Co1 1_555 1_555
O8 Mo5 1_555 1_555
O9 Mo3 1_555 1_555
O10 Mo5 1_555 1_555
O11 Mo4 1_555 1_555
O12 Mo2 1_555 1_555
O13 Co1 1_555 1_555
O14 Mo6 1_555 1_555
O15 Mo3 1_555 1_555
O16 Mo1 1_555 1_555
O17 Mo1 1_555 1_555
O18 P2 1_555 1_555
O19 P4 1_555 1_555
O20 Mo1 1_555 1_555
O21 P3 1_555 1_555
O22 P2 1_555 1_555
O23 P3 1_555 1_555
O24 Mo6 1_555 1_555
O25 Mo3 1_555 1_555
O26 P4 1_555 1_555
O28 P1 1_555 1_555
O29 P3 1_555 1_555
O30 P2 1_555 1_555
O31 P1 1_555 1_555
O32 P4 1_555 1_555
O33 P1 1_555 1_555
Mo1 O13 1_555 1_555
Mo2 O7 1_555 1_555
Mo3 O6 1_555 1_555
Mo4 O9 1_555 1_555
Mo5 O2 1_555 1_555
Mo6 O5 1_555 1_555
C1 H1 1_555 1_555
C2 C1 1_555 1_555
H2 C2 1_555 1_555
C3 C2 1_555 1_555
C4 H3 1_555 1_555
C5 C4 1_555 1_555
H4 C5 1_555 1_555
C6 C3 1_555 1_555
C7 H5 1_555 1_555
C8 C7 1_555 1_555
H6 C8 1_555 1_555
C9 C8 1_555 1_555
C10 H7 1_555 1_555
C11 C10 1_555 1_555
H8 C11 1_555 1_555
C12 C9 1_555 1_555
C13 H9 1_555 1_555
C14 C13 1_555 1_555
H10 C14 1_555 1_555
C15 C14 1_555 1_555
C16 C15 1_555 1_555
H11 C16 1_555 1_555
C17 C16 1_555 1_555
H12 C17 1_555 1_555
C18 C15 1_555 1_555
C19 C18 1_555 1_555
H13 C19 1_555 1_555
C20 C19 1_555 1_555
H14 C20 1_555 1_555
C21 H15 1_555 1_555
C22 C18 1_555 1_555
H16 C22 1_555 1_555
N1 C1 1_555 1_555
N2 C4 1_555 1_555
N3 C7 1_555 1_555
N4 C10 1_555 1_555
N5 C20 1_555 1_555
N6 C13 1_555 1_555
Co2 O30 1_555 1_555
Co3 O29 1_555 1_555
P1D O27D 1_555 1_555
P2D O14D 1_555 1_555
P3D O20D 1_555 1_555
P4D O9D 1_555 1_555
O1A Co3 1_555 1_555
O2D Mo4D 1_555 1_555
O3A Co2 1_555 1_555
O4D Co1 1_555 1_555
O5D Mo1D 1_555 1_555
O6D Mo2D 1_555 1_555
O7D Co1 1_555 1_555
O8D Mo5D 1_555 1_555
O9D Mo3D 1_555 1_555
O10D Mo5D 1_555 1_555
O11D Mo4D 1_555 1_555
O12D Mo2D 1_555 1_555
O13D Co1 1_555 1_555
O14D Mo6D 1_555 1_555
O15D Mo3D 1_555 1_555
O16D Mo1D 1_555 1_555
O17D Mo1D 1_555 1_555
O18D P2D 1_555 1_555
O19D P4D 1_555 1_555
O20D Mo1D 1_555 1_555
O21D P3D 1_555 1_555
O22D P2D 1_555 1_555
O23D P3D 1_555 1_555
O24D Mo6D 1_555 1_555
O25D Mo3D 1_555 1_555
O26D P4D 1_555 1_555
O28D P1D 1_555 1_555
O29D P3D 1_555 1_555
O29A Co3 1_555 1_555
O30D P2D 1_555 1_555
O30A Co2 1_555 1_555
O31D P1D 1_555 1_555
O32D P4D 1_555 1_555
O33D P1D 1_555 1_555
Mo1D O13D 1_555 1_555
Mo2D O7D 1_555 1_555
Mo3D O6D 1_555 1_555
Mo4D O4D 1_555 1_555
Mo5D O2D 1_555 1_555
Mo6D O5D 1_555 1_555
C1A N1 1_555 1_555
H1A C1A 1_555 1_555
C2A C3 1_555 1_555
H2A C2A 1_555 1_555
C4A N2 1_555 1_555
H3A C4A 1_555 1_555
C5A C6 1_555 1_555
H4A C5A 1_555 1_555
C7A N3 1_555 1_555
H5A C7A 1_555 1_555
C8A C9 1_555 1_555
H6A C8A 1_555 1_555
C10A N4 1_555 1_555
H7A C10A 1_555 1_555
C11A C12 1_555 1_555
H8A C11A 1_555 1_555
N2F Co2 1_555 1_555
N4F Co3 1_555 1_555
Co2F N2 1_555 1_555
Co2E O30D 1_555 1_555
Co3F N4 1_555 1_555
Co3E O29D 1_555 1_555
O4 Mo5 1_555 1_555
O7 Mo3 1_555 1_555
O8 Mo6 1_555 1_555
O13 Mo6 1_555 1_555
O17 Mo2 1_555 1_555
O22 Mo5 1_555 1_555
O23 Mo2 1_555 1_555
O25 Mo4 1_555 1_555
O26 Mo1 1_555 1_555
O26 Mo2 1_555 1_555
O28 Mo4 1_555 1_555
O31 Mo3 1_555 1_555
O32 Mo5 1_555 1_555
O32 Mo6 1_555 1_555
Mo1 Mo6 1_555 1_555
Mo2 Mo3 1_555 1_555
Mo4 Mo5 1_555 1_555
C5 C6 1_555 1_555
C11 C12 1_555 1_555
C17 N6 1_555 1_555
C21 C22 1_555 1_555
C21 N5 1_555 1_555
N1 Co2 1_555 1_555
N3 Co3 1_555 1_555
O4D Mo5D 1_555 1_555
O7D Mo3D 1_555 1_555
O8D Mo6D 1_555 1_555
O9D Mo4D 1_555 1_555
O13D Mo6D 1_555 1_555
O17D Mo2D 1_555 1_555
O22D Mo5D 1_555 1_555
O23D Mo2D 1_555 1_555
O25D Mo4D 1_555 1_555
O26D Mo1D 1_555 1_555
O26D Mo2D 1_555 1_555
O28D Mo4D 1_555 1_555
O31D Mo3D 1_555 1_555
O32D Mo5D 1_555 1_555
O32D Mo6D 1_555 1_555
Mo1D Mo6D 1_555 1_555
Mo2D Mo3D 1_555 1_555
Mo4D Mo5D 1_555 1_555
C1A C2A 1_555 1_555
C4A C5A 1_555 1_555
C7A C8A 1_555 1_555
C10A C11A 1_555 1_555

#END
