
#######################################################################
#
#                 Cambridge Crystallographic Data Centre
#                                CCDC 
#
#######################################################################
#
# If this CIF has been generated from an entry in the Cambridge 
# Structural Database, then it will include bibliographic, chemical, 
# crystal, experimental, refinement or atomic coordinate data resulting 
# from the CCDC's data processing and validation procedures.
#
#######################################################################

data_DEWRIH
_chemical_formula_moiety         '(C30 H50 Cd5 Mo12 N6 O69 P8 2-)n'
_symmetry_cell_setting           triclinic
_symmetry_space_group_name_H-M   'P -1'
_symmetry_Int_Tables_number      2
_space_group_name_Hall           '-P 1'
loop_
_symmetry_equiv_pos_site_id
_symmetry_equiv_pos_as_xyz
1 x,y,z
2 -x,-y,-z
_cell_length_a                   12.806(3)
_cell_length_b                   13.809(3)
_cell_length_c                   14.508(3)
_cell_angle_alpha                113.57(3)
_cell_angle_beta                 96.71(3)
_cell_angle_gamma                106.21(3)
_cell_volume                     2180.64
loop_
_atom_site_label
_atom_site_type_symbol
_atom_site_fract_x
_atom_site_fract_y
_atom_site_fract_z
Mo1 Mo 0.05688(3) 0.42496(3) 0.22506(3)
Mo2 Mo -0.15290(3) 0.40609(3) 0.21016(3)
P1 P 0.02902(10) 0.68339(10) 0.35205(10)
P2 P -0.12883(11) -0.01255(10) 0.36648(11)
P3 P 0.28039(11) 0.59716(12) 0.20117(11)
P4 P -0.31725(10) 0.53818(10) 0.15644(10)
O1 O 0.2353(4) 0.6855(4) 0.1805(4)
O2 O -0.4395(3) 0.4871(3) 0.0894(3)
O3 O -0.1622(3) -0.1226(3) 0.2679(3)
O4 O 0.0560(3) 0.7546(3) 0.4713(3)
O5 O 0.0471(3) 0.7546(3) 0.2955(3)
O6 O -0.3873(3) 0.3488(4) 0.4897(3)
O7 O -0.2152(3) 0.0444(3) 0.3657(3)
O8 O 0.3670(4) 0.5809(4) 0.1428(4)
O9 O -0.1303(4) -0.0352(4) 0.4634(3)
O10 O 0.3298(3) 0.6501(3) 0.3187(3)
O11 O -0.2900(3) 0.1915(3) 0.5133(3)
O12 O -0.2526(3) 0.6336(3) 0.1363(4)
O13 O -0.0947(3) 0.5981(3) 0.3135(3)
O14 O -0.3152(3) 0.1647(3) 0.3002(3)
O15 O 0.3376(3) 0.4169(3) 0.5410(3)
O16 O 0.1437(3) 0.2179(3) 0.3380(3)
O17 O -0.2209(3) 0.2652(3) 0.1401(3)
O18 O -0.3230(3) 0.5784(3) 0.2713(3)
O19 O -0.0098(3) 0.0655(3) 0.3818(3)
O20 O -0.0470(3) 0.4519(3) 0.1377(3)
O21 O -0.2674(3) 0.4435(3) 0.1290(3)
O22 O 0.1784(3) 0.4878(3) 0.1610(3)
O23 O 0.1080(3) 0.6141(3) 0.3311(3)
O24 O 0.1946(3) 0.4743(3) 0.3493(3)
O25 O 0.0422(3) 0.2890(3) 0.1582(3)
O26 O -0.2487(3) 0.4321(3) 0.3199(3)
O27 O 0.1086(3) 0.3966(3) 0.4928(3)
O28 O -0.0790(3) 0.2177(3) 0.3391(3)
O29 O -0.0380(3) 0.4172(3) 0.3210(3)
O30 O 0.1647(3) 0.2358(3) 0.5465(3)
O31 O -0.1657(3) 0.3682(3) 0.4689(3)
O32 O -0.0453(4) -0.3953(4) 0.0590(3)
O33 O -0.3958(4) 0.7826(4) 0.2440(4)
O34 O -0.6092(4) 0.7458(4) 0.0571(4)
Cd1 Cd 0.0000 0.5000 0.5000
C1 C 0.3068(5) 0.2748(5) 0.0349(5)
H1 H 0.3139 0.3505 0.0631
C2 C 0.2402(5) 0.2058(5) 0.0692(5)
H2 H 0.2037 0.2349 0.1197
C3 C 0.2283(5) 0.0917(5) 0.0272(5)
C4 C 0.2794(5) 0.0520(5) -0.0518(5)
H3 H 0.2697 -0.0243 -0.0851
C5 C 0.3453(5) 0.1281(5) -0.0804(5)
H4 H 0.3797 0.1001 -0.1330
C6 C 0.1039(5) -0.1561(5) 0.0818(5)
H5 H 0.1138 -0.2238 0.0707
C7 C 0.1729(5) -0.0854(5) 0.0507(5)
H6 H 0.2289 -0.1048 0.0205
C8 C 0.1580(4) 0.0152(4) 0.0649(4)
C9 C 0.0759(5) 0.0411(5) 0.1130(4)
H7 H 0.0635 0.1077 0.1241
Cd2 Cd -0.08480(3) -0.24656(3) 0.18480(3)
Cd3 Cd -0.48805(3) 0.63929(3) 0.08284(3)
C10 C 0.0117(5) -0.0335(5) 0.1446(5)
H8 H -0.0415 -0.0139 0.1794
N1 N 0.3626(4) 0.2367(4) -0.0385(4)
N2 N 0.0233(4) -0.1317(4) 0.1272(4)
Mo3 Mo -0.26918(3) 0.34951(4) 0.55473(3)
Mo4 Mo -0.21433(3) 0.20238(3) 0.40624(3)
Mo5 Mo 0.07093(3) 0.23276(3) 0.42877(3)
Mo6 Mo 0.22675(3) 0.39764(3) 0.59198(3)
Mo1A Mo -0.05688(3) 0.57504(3) 0.77494(3)
Mo2A Mo 0.15290(3) 0.59391(3) 0.78984(3)
P1A P -0.02902(10) 0.31661(10) 0.64795(10)
P2A P 0.12883(11) 1.01255(10) 0.63352(11)
P3A P -0.28039(11) 0.40284(12) 0.79883(11)
P4A P 0.31725(10) 0.46182(10) 0.84356(10)
O1A O -0.2353(4) 0.3145(4) 0.8195(4)
O2A O 0.4395(3) 0.5129(3) 0.9106(3)
O2A_2 O -0.5605(3) 0.5129(3) -0.0894(3)
O2_2 O 0.5605(3) 0.4871(3) 1.0894(3)
O3A O 0.1622(3) 1.1226(3) 0.7321(3)
O4A O -0.0560(3) 0.2454(3) 0.5287(3)
O5A O -0.0471(3) 0.2454(3) 0.7045(3)
O5_2 O 0.0471(3) -0.2454(3) 0.2955(3)
O5A_2 O -0.0471(3) 1.2454(3) 0.7045(3)
O6A O 0.3873(3) 0.6512(4) 0.5103(3)
O7A O 0.2152(3) 0.9556(3) 0.6343(3)
O8A O -0.3670(4) 0.4191(4) 0.8572(4)
O8_2 O -0.6330(4) 0.5809(4) 0.1428(4)
O8A_2 O 0.6330(4) 0.4191(4) 0.8572(4)
O9A O 0.1303(4) 1.0352(4) 0.5366(3)
O10A O -0.3298(3) 0.3499(3) 0.6813(3)
O11A O 0.2900(3) 0.8085(3) 0.4867(3)
O12A O 0.2526(3) 0.3664(3) 0.8637(4)
O12_2 O -0.2526(3) -0.3664(3) 0.1363(4)
O12A_2 O 0.2526(3) 1.3664(3) 0.8637(4)
O13A O 0.0947(3) 0.4019(3) 0.6865(3)
O14A O 0.3152(3) 0.8353(3) 0.6998(3)
O15A O -0.3376(3) 0.5831(3) 0.4590(3)
O16A O -0.1437(3) 0.7821(3) 0.6620(3)
O17A O 0.2209(3) 0.7348(3) 0.8599(3)
O18A O 0.3230(3) 0.4216(3) 0.7287(3)
O19A O 0.0098(3) 0.9345(3) 0.6182(3)
O20A O 0.0470(3) 0.5481(3) 0.8623(3)
O21A O 0.2674(3) 0.5565(3) 0.8710(3)
O22A O -0.1784(3) 0.5122(3) 0.8390(3)
O23A O -0.1080(3) 0.3859(3) 0.6689(3)
O24A O -0.1946(3) 0.5257(3) 0.6507(3)
O25A O -0.0422(3) 0.7110(3) 0.8418(3)
O26A O 0.2487(3) 0.5679(3) 0.6801(3)
O27A O -0.1086(3) 0.6034(3) 0.5072(3)
O28A O 0.0790(3) 0.7823(3) 0.6609(3)
O29A O 0.0380(3) 0.5828(3) 0.6790(3)
O30A O -0.1647(3) 0.7642(3) 0.4535(3)
O31A O 0.1657(3) 0.6318(3) 0.5311(3)
O32A O 0.0453(4) 1.3953(4) 0.9410(3)
O33A O 0.3958(4) 0.2174(4) 0.7560(4)
O34A O 0.6092(4) 0.2542(4) 0.9429(4)
C1A C -0.3068(5) 0.7252(5) -0.0349(5)
H1A H -0.3139 0.6495 -0.0631
C2A C -0.2402(5) 0.7942(5) -0.0692(5)
H2A H -0.2037 0.7651 -0.1197
C3A C -0.2283(5) 0.9083(5) -0.0272(5)
C4A C -0.2794(5) 0.9480(5) 0.0518(5)
H3A H -0.2697 1.0243 0.0851
C5A C -0.3453(5) 0.8719(5) 0.0804(5)
H4A H -0.3797 0.8999 0.1330
C6A C -0.1039(5) 1.1561(5) -0.0818(5)
H5A H -0.1138 1.2238 -0.0707
C7A C -0.1729(5) 1.0854(5) -0.0507(5)
H6A H -0.2289 1.1048 -0.0205
C8A C -0.1580(4) 0.9848(4) -0.0649(4)
C9A C -0.0759(5) 0.9589(5) -0.1130(4)
H7A H -0.0635 0.8923 -0.1241
Cd2A Cd 0.08480(3) 1.24656(3) 0.81520(3)
Cd2_2 Cd -0.08480(3) 0.75344(3) 0.18480(3)
Cd2A_2 Cd 0.08480(3) 0.24656(3) 0.81520(3)
Cd2A_3 Cd 0.08480(3) 1.24656(3) -0.18480(3)
Cd3A Cd 0.48805(3) 0.36071(3) 0.91716(3)
Cd3A_2 Cd -0.51195(3) 0.36071(3) -0.08284(3)
Cd3_2 Cd 0.51195(3) 0.63929(3) 0.08284(3)
Cd3A_3 Cd 0.48805(3) 0.36071(3) -0.08284(3)
Cd3A_4 Cd -0.51195(3) 0.36071(3) 0.91716(3)
Cd3_3 Cd 0.51195(3) 0.63929(3) 1.08284(3)
C10A C -0.0117(5) 1.0335(5) -0.1446(5)
H8A H 0.0415 1.0139 -0.1794
N1A N -0.3626(4) 0.7633(4) 0.0385(4)
N1_2 N 0.3626(4) 0.2367(4) 0.9615(4)
N2A N -0.0233(4) 1.1317(4) -0.1272(4)
N2A_2 N -0.0233(4) 1.1317(4) 0.8728(4)
Mo3A Mo 0.26918(3) 0.65049(4) 0.44527(3)
Mo4A Mo 0.21433(3) 0.79762(3) 0.59376(3)
Mo5A Mo -0.07093(3) 0.76724(3) 0.57123(3)
Mo6A Mo -0.22675(3) 0.60236(3) 0.40802(3)
O35 O 0.5674(6) 0.7644(7) 0.4156(6)
C11 C -0.5751(7) -0.0538(7) 0.3502(7)
H9 H -0.5287 -0.0937 0.3547
C12 C -0.5459(6) 0.0245(6) 0.3102(7)
H10 H -0.4814 0.0353 0.2864
C13 C -0.6147(5) 0.0854(6) 0.3069(5)
C14 C -0.7156(6) 0.0593(6) 0.3356(6)
H11 H -0.7656 0.0955 0.3301
C15 C -0.7402(6) -0.0201(6) 0.3721(6)
H12 H -0.8077 -0.0385 0.3903
C16 C -0.4831(5) 0.2706(7) 0.1879(6)
H13 H -0.4431 0.2693 0.1381
C17 C -0.5214(5) 0.1749(6) 0.2029(5)
H14 H -0.5077 0.1097 0.1642
C18 C -0.5812(5) 0.1802(5) 0.2780(5)
C19 C -0.6022(6) 0.2772(6) 0.3324(5)
H15 H -0.6438 0.2805 0.3813
C20 C -0.5607(6) 0.3701(6) 0.3137(7)
H16 H -0.5736 0.4364 0.3505
N3 N -0.6680(6) -0.0706(5) 0.3813(5)
N4 N -0.5023(5) 0.3634(6) 0.2427(7)
loop_
_geom_bond_atom_site_label_1
_geom_bond_atom_site_label_2
_geom_bond_site_symmetry_1
_geom_bond_site_symmetry_2
Mo1 Mo2 1_555 1_555
Mo2 O13 1_555 1_555
P1 O4 1_555 1_555
P2 O3 1_555 1_555
P3 O1 1_555 1_555
P4 O2 1_555 1_555
O2 Cd3 1_555 1_555
O3 Cd2 1_555 1_555
O4 Mo4A 1_555 1_555
O5 P1 1_555 1_555
O6 Mo3 1_555 1_555
O7 P2 1_555 1_555
O8 P3 1_555 1_555
O9 P2 1_555 1_555
O10 P3 1_555 1_555
O11 Mo3 1_555 1_555
O12 P4 1_555 1_555
O13 P1 1_555 1_555
O14 Mo4 1_555 1_555
O15 Mo6 1_555 1_555
O16 Mo5 1_555 1_555
O17 Mo2 1_555 1_555
O18 P4 1_555 1_555
O19 P2 1_555 1_555
O20 Mo1 1_555 1_555
O21 Mo2 1_555 1_555
O22 Mo1 1_555 1_555
O23 Mo1 1_555 1_555
O24 Mo1 1_555 1_555
O25 Mo1 1_555 1_555
O26 Mo2 1_555 1_555
O27 Cd1 1_555 1_555
O28 Mo4 1_555 1_555
O29 Mo1 1_555 1_555
O30 Mo5 1_555 1_555
O31 Cd1 1_555 1_555
O32 Cd2 1_555 1_555
O33 Cd3 1_555 1_555
O34 Cd3 1_555 1_555
Cd1 O29 1_555 1_555
C1 H1 1_555 1_555
C2 C1 1_555 1_555
H2 C2 1_555 1_555
C3 C2 1_555 1_555
C4 C3 1_555 1_555
H3 C4 1_555 1_555
C5 C4 1_555 1_555
H4 C5 1_555 1_555
C6 H5 1_555 1_555
C7 C6 1_555 1_555
H6 C7 1_555 1_555
C8 C3 1_555 1_555
C9 C8 1_555 1_555
H7 C9 1_555 1_555
Cd2 N2 1_555 1_555
Cd3 O2A_2 1_555 1_555
C10 C9 1_555 1_555
H8 C10 1_555 1_555
C11 H9 1_555 1_555
C12 C11 1_555 1_555
H10 C12 1_555 1_555
C13 C12 1_555 1_555
C14 C13 1_555 1_555
H11 C14 1_555 1_555
C15 C14 1_555 1_555
H12 C15 1_555 1_555
C16 H13 1_555 1_555
C17 C16 1_555 1_555
H14 C17 1_555 1_555
C18 C13 1_555 1_555
C19 C18 1_555 1_555
H15 C19 1_555 1_555
C20 C19 1_555 1_555
H16 C20 1_555 1_555
N1 C1 1_555 1_555
N2 C6 1_555 1_555
N3 C11 1_555 1_555
N4 C16 1_555 1_555
Mo3 O31 1_555 1_555
Mo4 O7 1_555 1_555
Mo5 O19 1_555 1_555
Mo6 O27 1_555 1_555
Mo1A Mo2A 1_555 1_555
Mo2A O13A 1_555 1_555
P1A O4A 1_555 1_555
P2A O3A 1_555 1_555
P3A O1A 1_555 1_555
P4A O2A 1_555 1_555
O2A Cd3A 1_555 1_555
O2A_2 Cd3A_2 1_555 1_555
O2_2 Cd3A 1_555 1_555
O3A Cd2A 1_555 1_555
O4A Mo4 1_555 1_555
O5A P1A 1_555 1_555
O5_2 Cd2 1_555 1_555
O5A_2 Cd2A 1_555 1_555
O6A Mo3A 1_555 1_555
O7A P2A 1_555 1_555
O8A P3A 1_555 1_555
O8_2 Cd3 1_555 1_555
O8A_2 Cd3A 1_555 1_555
O9A P2A 1_555 1_555
O10A Mo3 1_555 1_555
O11A Mo3A 1_555 1_555
O12A P4A 1_555 1_555
O12_2 Cd2 1_555 1_555
O12A_2 Cd2A 1_555 1_555
O13A Mo6 1_555 1_555
O14A Mo4A 1_555 1_555
O15A Mo6A 1_555 1_555
O16A Mo5A 1_555 1_555
O17A Mo2A 1_555 1_555
O18A Mo6 1_555 1_555
O19A P2A 1_555 1_555
O20A Mo1A 1_555 1_555
O21A Mo2A 1_555 1_555
O22A Mo1A 1_555 1_555
O23A Mo3 1_555 1_555
O24A Mo3 1_555 1_555
O25A Mo1A 1_555 1_555
O26A Mo6 1_555 1_555
O27A Cd1 1_555 1_555
O28A Mo4A 1_555 1_555
O29A Cd1 1_555 1_555
O30A Mo5A 1_555 1_555
O31A Cd1 1_555 1_555
O32A Cd2A 1_555 1_555
O33A Cd3A 1_555 1_555
O34A Cd3A 1_555 1_555
C1A H1A 1_555 1_555
C2A C1A 1_555 1_555
H2A C2A 1_555 1_555
C3A C2A 1_555 1_555
C4A C3A 1_555 1_555
H3A C4A 1_555 1_555
C5A C4A 1_555 1_555
H4A C5A 1_555 1_555
C6A H5A 1_555 1_555
C7A C6A 1_555 1_555
H6A C7A 1_555 1_555
C8A C3A 1_555 1_555
C9A C8A 1_555 1_555
H7A C9A 1_555 1_555
Cd2A N2A_2 1_555 1_555
Cd2_2 O5 1_555 1_555
Cd2A_2 O5A 1_555 1_555
Cd2A_3 N2A 1_555 1_555
Cd3A Cd3_3 1_555 1_555
Cd3A_2 O2 1_555 1_555
Cd3_2 O8 1_555 1_555
Cd3A_3 N1 1_555 1_555
Cd3A_4 O8A 1_555 1_555
Cd3_3 O2A 1_555 1_555
C10A C9A 1_555 1_555
H8A C10A 1_555 1_555
N1A Cd3 1_555 1_555
N1_2 Cd3A 1_555 1_555
N2A C6A 1_555 1_555
Mo3A O10 1_555 1_555
Mo4A O7A 1_555 1_555
Mo5A O4 1_555 1_555
Mo6A O13 1_555 1_555
Mo2 O20 1_555 1_555
Mo2 O29 1_555 1_555
P1 O23 1_555 1_555
P3 O22 1_555 1_555
P4 O21 1_555 1_555
O11 Mo4 1_555 1_555
O12 Cd2_2 1_555 1_555
O18 Mo6A 1_555 1_555
O23 Mo3A 1_555 1_555
O24 Mo3A 1_555 1_555
O26 Mo6A 1_555 1_555
O27 Mo5 1_555 1_555
O28 Mo5 1_555 1_555
O30 Mo6 1_555 1_555
O31 Mo4 1_555 1_555
C5 N1 1_555 1_555
C7 C8 1_555 1_555
Cd3 Cd3A_2 1_555 1_555
C10 N2 1_555 1_555
C15 N3 1_555 1_555
C17 C18 1_555 1_555
C20 N4 1_555 1_555
Mo3 Mo4 1_555 1_555
Mo5 Mo6 1_555 1_555
Mo5 O4A 1_555 1_555
Mo1A O23A 1_555 1_555
Mo1A O24A 1_555 1_555
Mo1A O29A 1_555 1_555
Mo2A O20A 1_555 1_555
Mo2A O26A 1_555 1_555
Mo2A O29A 1_555 1_555
P1A O13A 1_555 1_555
P1A O23A 1_555 1_555
P3A O10A 1_555 1_555
P3A O22A 1_555 1_555
P4A O18A 1_555 1_555
P4A O21A 1_555 1_555
O2_2 Cd3_3 1_555 1_555
O11A Mo4A 1_555 1_555
O12A Cd2A_2 1_555 1_555
O19A Mo5A 1_555 1_555
O27A Mo5A 1_555 1_555
O27A Mo6A 1_555 1_555
O28A Mo5A 1_555 1_555
O30A Mo6A 1_555 1_555
O31A Mo3A 1_555 1_555
O31A Mo4A 1_555 1_555
C1A N1A 1_555 1_555
C5A N1A 1_555 1_555
C7A C8A 1_555 1_555
Cd3_2 Cd3A_3 1_555 1_555
C10A N2A 1_555 1_555
Mo3A Mo4A 1_555 1_555
Mo5A Mo6A 1_555 1_555

#END
