
#######################################################################
#
#                 Cambridge Crystallographic Data Centre
#                                CCDC 
#
#######################################################################
#
# If this CIF has been generated from an entry in the Cambridge 
# Structural Database, then it will include bibliographic, chemical, 
# crystal, experimental, refinement or atomic coordinate data resulting 
# from the CCDC's data processing and validation procedures.
#
#######################################################################

data_SUWROT
_chemical_formula_moiety         '(C46 H30 N8 O10 Zn2)n'
_symmetry_cell_setting           monoclinic
_symmetry_space_group_name_H-M   'C 2/c'
_symmetry_Int_Tables_number      15
_space_group_name_Hall           '-C 2yc'
loop_
_symmetry_equiv_pos_site_id
_symmetry_equiv_pos_as_xyz
1 x,y,z
2 -x,y,1/2-z
3 1/2+x,1/2+y,z
4 1/2-x,1/2+y,1/2-z
5 -x,-y,-z
6 x,-y,1/2+z
7 1/2-x,1/2-y,-z
8 1/2+x,1/2-y,1/2+z
_cell_length_a                   22.807(4)
_cell_length_b                   25.243(5)
_cell_length_c                   16.204(3)
_cell_angle_alpha                90
_cell_angle_beta                 133.809(2)
_cell_angle_gamma                90
_cell_volume                     6732.23
loop_
_atom_site_label
_atom_site_type_symbol
_atom_site_fract_x
_atom_site_fract_y
_atom_site_fract_z
C1 C 0.27803(17) 0.01213(14) 0.7532(2)
C2 C -0.07713(18) -0.05115(12) 0.5913(2)
C3 C -0.42043(18) -0.40538(12) -0.1000(2)
C4 C 0.20648(17) -0.01580(14) 0.6704(2)
H1 H 0.1998 -0.0365 0.6170
C5 C 0.14584(17) -0.01220(13) 0.6690(2)
H2 H 0.0976 -0.0303 0.6121
C6 C -0.12710(18) -0.09256(12) 0.4985(2)
C7 C -0.37573(18) -0.35884(13) -0.0205(2)
C8 C 0.22135(17) 0.04230(14) 0.8252(2)
H3 H 0.2268 0.0618 0.8789
C9 C -0.10175(19) -0.11288(13) 0.4473(2)
H4 H -0.0539 -0.1004 0.4702
C10 C -0.2004(2) -0.11017(15) 0.4600(3)
H5 H -0.2191 -0.0960 0.4911
C11 C -0.1468(2) -0.15147(14) 0.3625(3)
H6 H -0.1294 -0.1650 0.3292
C12 C 0.28499(18) 0.04195(15) 0.8321(2)
H7 H 0.3319 0.0613 0.8885
C13 C -0.2924(2) -0.27317(15) 0.1278(3)
C14 C -0.3092(2) -0.33793(16) 0.0065(3)
H8 H -0.2909 -0.3527 -0.0248
C15 C -0.2181(2) -0.16930(14) 0.3288(3)
C16 C 0.3475(2) -0.01149(19) 0.6903(3)
C17 C -0.2454(2) -0.14834(16) 0.3763(3)
H9 H -0.2941 -0.1601 0.3517
C18 C -0.3995(2) -0.33666(17) 0.0301(3)
H10 H -0.4437 -0.3508 0.0152
C19 C -0.2682(2) -0.29505(17) 0.0798(3)
H11 H -0.2234 -0.2812 0.0960
C20 C 0.4280(2) -0.00579(18) 0.7247(3)
C21 C 0.5010(2) -0.0051(2) 0.8355(3)
H12 H 0.5027 -0.0042 0.8945
C22 C -0.3590(3) -0.29407(17) 0.1022(4)
H13 H -0.3768 -0.2792 0.1342
C23 C 0.4271(2) -0.0057(2) 0.6392(3)
H14 H 0.3776 -0.0061 0.5632
H15 H 0.383(2) 0.0302(14) 0.812(3)
N1 N -0.24264(18) -0.22986(13) 0.2070(2)
N2 N -0.26978(19) -0.21064(13) 0.2442(2)
N3 N 0.15186(12) 0.01582(10) 0.74458(17)
N4 N 0.34371(16) 0.01252(14) 0.7621(2)
O1 O -0.10279(12) -0.03468(8) 0.63410(16)
O2 O -0.01243(12) -0.03697(8) 0.61974(16)
O3 O -0.39714(12) -0.42063(9) -0.14722(16)
O4 O -0.47719(13) -0.42497(9) -0.11434(16)
O5 O 0.29202(15) -0.03547(15) 0.6048(2)
Zn1 Zn 0.060108(17) 0.019673(13) 0.73900(2)
C1A C 0.72197(17) 0.01213(14) 0.7468(2)
C4A C 0.79352(17) -0.01580(14) 0.8296(2)
H1A H 0.8002 -0.0365 0.8830
C5A C 0.85416(17) -0.01220(13) 0.8310(2)
H2A H 0.9024 -0.0303 0.8879
C8A C 0.77865(17) 0.04230(14) 0.6748(2)
H3A H 0.7732 0.0618 0.6211
C12A C 0.71501(18) 0.04195(15) 0.6679(2)
H7A H 0.6681 0.0613 0.6115
C16A C 0.6525(2) -0.01149(19) 0.8097(3)
C20A C 0.5720(2) -0.00579(18) 0.7753(3)
C21A C 0.4990(2) -0.0051(2) 0.6645(3)
H12A H 0.4973 -0.0042 0.6055
C23A C 0.5729(2) -0.0057(2) 0.8608(3)
H14A H 0.6224 -0.0061 0.9368
H15A H 0.617(2) 0.0302(14) 0.688(3)
N3A N 0.84814(12) 0.01582(10) 0.75542(17)
N4A N 0.65629(16) 0.01252(14) 0.7379(2)
O5A O 0.70798(15) -0.03547(15) 0.8952(2)
C2A C 0.07713(18) -0.05115(12) 0.9087(2)
C3A C 0.42043(18) -0.40538(12) 1.6000(2)
C6A C 0.12710(18) -0.09256(12) 1.0015(2)
C7A C 0.37573(18) -0.35884(13) 1.5205(2)
C9A C 0.10175(19) -0.11288(13) 1.0527(2)
H4A H 0.0539 -0.1004 1.0298
C10A C 0.2004(2) -0.11017(15) 1.0400(3)
H5A H 0.2191 -0.0960 1.0089
C11A C 0.1468(2) -0.15147(14) 1.1375(3)
H6A H 0.1294 -0.1650 1.1708
C13A C 0.2924(2) -0.27317(15) 1.3722(3)
C14A C 0.3092(2) -0.33793(16) 1.4935(3)
H8A H 0.2909 -0.3527 1.5248
C15A C 0.2181(2) -0.16930(14) 1.1712(3)
C17A C 0.2454(2) -0.14834(16) 1.1237(3)
H9A H 0.2941 -0.1601 1.1483
C18A C 0.3995(2) -0.33666(17) 1.4699(3)
H10A H 0.4437 -0.3508 1.4848
C19A C 0.2682(2) -0.29505(17) 1.4202(3)
H11A H 0.2234 -0.2812 1.4040
C22A C 0.3590(3) -0.29407(17) 1.3978(4)
H13A H 0.3768 -0.2792 1.3658
N1A N 0.24264(18) -0.22986(13) 1.2930(2)
N2A N 0.26978(19) -0.21064(13) 1.2558(2)
O1A O 0.10279(12) -0.03468(8) 0.86590(16)
O2A O 0.01243(12) -0.03697(8) 0.88026(16)
O3A O 0.39714(12) -0.42063(9) 1.64722(16)
O4A O 0.47719(13) -0.42497(9) 1.61434(16)
Zn1A Zn -0.060108(17) 0.019673(13) 0.76100(2)
N3A_2 N -0.15186(12) 0.01582(10) 0.75542(17)
O3B O 0.10286(12) 0.07937(9) 0.85278(16)
O3C O -0.10286(12) 0.07937(9) 0.64722(16)
O4B O 0.02281(13) 0.07503(9) 0.88566(16)
O4C O -0.02281(13) 0.07503(9) 0.61434(16)
Zn1A_2 Zn 0.939892(17) 0.019673(13) 0.76100(2)
Zn1B Zn -0.439892(17) -0.480327(13) -0.26100(2)
Zn1B_2 Zn 0.560108(17) -0.480327(13) 1.73900(2)
Zn1C Zn -0.560108(17) -0.480327(13) -0.23900(2)
Zn1C_2 Zn 0.439892(17) -0.480327(13) 1.76100(2)
loop_
_geom_bond_atom_site_label_1
_geom_bond_atom_site_label_2
_geom_bond_site_symmetry_1
_geom_bond_site_symmetry_2
C1 C4 1_555 1_555
C2 C6 1_555 1_555
C3 C7 1_555 1_555
C4 H1 1_555 1_555
C5 C4 1_555 1_555
H2 C5 1_555 1_555
C6 C9 1_555 1_555
C7 C14 1_555 1_555
C8 H3 1_555 1_555
C9 H4 1_555 1_555
C10 C6 1_555 1_555
H5 C10 1_555 1_555
C11 C9 1_555 1_555
H6 C11 1_555 1_555
C12 C1 1_555 1_555
H7 C12 1_555 1_555
C13 C19 1_555 1_555
C14 H8 1_555 1_555
C15 C11 1_555 1_555
C16 C20 1_555 1_555
C17 C10 1_555 1_555
H9 C17 1_555 1_555
C18 C7 1_555 1_555
H10 C18 1_555 1_555
C19 C14 1_555 1_555
H11 C19 1_555 1_555
C20 C21 1_555 1_555
C21 H12 1_555 1_555
C22 C13 1_555 1_555
H13 C22 1_555 1_555
C23 C20 1_555 1_555
H14 C23 1_555 1_555
H15 N4 1_555 1_555
N1 C13 1_555 1_555
N2 C15 1_555 1_555
N3 C5 1_555 1_555
N4 C1 1_555 1_555
O1 C2 1_555 1_555
O2 C2 1_555 1_555
O3 C3 1_555 1_555
O4 C3 1_555 1_555
O5 C16 1_555 1_555
Zn1 N3 1_555 1_555
C1A C4A 1_555 1_555
C4A H1A 1_555 1_555
C5A C4A 1_555 1_555
H2A C5A 1_555 1_555
C8A H3A 1_555 1_555
C12A C1A 1_555 1_555
H7A C12A 1_555 1_555
C16A C20A 1_555 1_555
C20A C21A 1_555 1_555
C21A C23 1_555 1_555
H12A C21A 1_555 1_555
C23A C21 1_555 1_555
H14A C23A 1_555 1_555
H15A N4A 1_555 1_555
N3A C5A 1_555 1_555
N4A C1A 1_555 1_555
O5A C16A 1_555 1_555
C2A C6A 1_555 1_555
C3A C7A 1_555 1_555
C6A C9A 1_555 1_555
C7A C14A 1_555 1_555
C9A H4A 1_555 1_555
C10A C6A 1_555 1_555
H5A C10A 1_555 1_555
C11A C9A 1_555 1_555
H6A C11A 1_555 1_555
C13A C19A 1_555 1_555
C14A H8A 1_555 1_555
C15A C11A 1_555 1_555
C17A C10A 1_555 1_555
H9A C17A 1_555 1_555
C18A C7A 1_555 1_555
H10A C18A 1_555 1_555
C19A C14A 1_555 1_555
H11A C19A 1_555 1_555
C22A C13A 1_555 1_555
H13A C22A 1_555 1_555
N1A C13A 1_555 1_555
N2A C15A 1_555 1_555
O1A Zn1 1_555 1_555
O2A C2A 1_555 1_555
O3A C3A 1_555 1_555
O4A C3A 1_555 1_555
Zn1A O1 1_555 1_555
N3A_2 Zn1A 1_555 1_555
O3B Zn1 1_555 1_555
O3C Zn1A 1_555 1_555
O4B Zn1A 1_555 1_555
O4C Zn1 1_555 1_555
Zn1A_2 N3A 1_555 1_555
Zn1B O3 1_555 1_555
Zn1B_2 O4A 1_555 1_555
Zn1C O4 1_555 1_555
Zn1C_2 O3A 1_555 1_555
C8 C12 1_555 1_555
C8 N3 1_555 1_555
C15 C17 1_555 1_555
C16 N4 1_555 1_555
C18 C22 1_555 1_555
N1 N2 1_555 1_555
O2 Zn1 1_555 1_555
C8A C12A 1_555 1_555
C8A N3A 1_555 1_555
C16A N4A 1_555 1_555
C20A C23A 1_555 1_555
C2A O1A 1_555 1_555
C15A C17A 1_555 1_555
C18A C22A 1_555 1_555
N1A N2A 1_555 1_555
O2A Zn1A 1_555 1_555

#END
