
#######################################################################
#
#                 Cambridge Crystallographic Data Centre
#                                CCDC 
#
#######################################################################
#
# If this CIF has been generated from an entry in the Cambridge 
# Structural Database, then it will include bibliographic, chemical, 
# crystal, experimental, refinement or atomic coordinate data resulting 
# from the CCDC's data processing and validation procedures.
#
#######################################################################

data_UVUPOR
_chemical_formula_moiety         '(C120 H72 N18 O24 Zn6)n'
_symmetry_cell_setting           triclinic
_symmetry_space_group_name_H-M   'P -1'
_symmetry_Int_Tables_number      2
_space_group_name_Hall           '-P 1'
loop_
_symmetry_equiv_pos_site_id
_symmetry_equiv_pos_as_xyz
1 x,y,z
2 -x,-y,-z
_cell_length_a                   15.224(3)
_cell_length_b                   15.259(3)
_cell_length_c                   18.059(4)
_cell_angle_alpha                91.84(3)
_cell_angle_beta                 96.69(3)
_cell_angle_gamma                98.28(3)
_cell_volume                     4118.06
loop_
_atom_site_label
_atom_site_type_symbol
_atom_site_fract_x
_atom_site_fract_y
_atom_site_fract_z
Zn3 Zn -0.01109(4) 0.99447(4) -0.08225(3)
O9 O -0.0106(3) 0.8649(2) -0.06160(19)
O10 O 0.0101(3) 0.8731(2) 0.06334(19)
O11 O -0.1462(2) 0.9787(3) -0.0755(2)
O12 O -0.1250(2) 0.9858(3) 0.0490(2)
N7 N -0.0038(3) 0.9924(3) -0.1941(2)
N8 N -0.0151(4) 0.9198(3) -0.4689(3)
N9 N 0.0148(5) 1.0768(4) -0.4581(3)
C41 C 0.0018(4) 0.7333(3) 0.0018(3)
C42 C -0.0071(4) 0.6837(4) -0.0646(3)
H25 H -0.0125 0.7118 -0.1095
C43 C -0.0080(4) 0.5932(4) -0.0657(3)
H26 H -0.0142 0.5614 -0.1112
C44 C -0.0000(4) 0.5482(3) 0.0006(3)
C45 C 0.0085(5) 0.6002(4) 0.0678(3)
H27 H 0.0141 0.5728 0.1130
C46 C 0.0086(5) 0.6897(4) 0.0683(3)
H28 H 0.0132 0.7218 0.1136
C47 C 0.0008(3) 0.8316(4) 0.0010(3)
C48 C -0.2726(4) 0.9819(5) -0.0099(3)
C49 C -0.3303(4) 0.9857(5) -0.0723(3)
H29 H -0.3105 0.9820 -0.1189
C50 C -0.4162(4) 0.9949(5) -0.0674(3)
H30 H -0.4532 1.0010 -0.1111
C51 C -0.4513(4) 0.9956(6) -0.0008(4)
C52 C -0.3962(4) 0.9815(5) 0.0591(3)
H31 H -0.4178 0.9758 0.1051
C53 C -0.3094(4) 0.9753(5) 0.0539(3)
H32 H -0.2731 0.9659 0.0972
C54 C -0.1738(4) 0.9817(3) -0.0133(3)
C55 C -0.0173(4) 0.9173(3) -0.2371(3)
H33 H -0.0289 0.8635 -0.2148
C56 C -0.0146(4) 0.9169(4) -0.3133(3)
H34 H -0.0227 0.8633 -0.3411
C57 C -0.0000(4) 0.9951(4) -0.3483(3)
C58 C 0.0146(5) 1.0736(4) -0.3045(3)
H35 H 0.0259 1.1282 -0.3258
C59 C 0.0121(4) 1.0684(4) -0.2286(3)
H36 H 0.0220 1.1211 -0.1995
C60 C -0.0003(5) 0.9981(5) -0.4297(3)
Zn3A Zn 0.01109(4) 0.00553(4) 0.08225(3)
Zn3A_2 Zn 0.01109(4) 1.00553(4) 0.08225(3)
Zn3_2 Zn -0.01109(4) -0.00553(4) -0.08225(3)
Zn3A_3 Zn -0.98891(4) 1.00553(4) 0.08225(3)
Zn3_3 Zn -1.01109(4) 0.99447(4) -0.08225(3)
Zn3A_4 Zn 0.01109(4) 1.00553(4) -0.91775(3)
O9A O 0.0106(3) 0.1351(2) 0.06160(19)
O10A O -0.0101(3) 0.1269(2) -0.06334(19)
O10A_2 O -0.0101(3) 1.1269(2) -0.06334(19)
O10_2 O 0.0101(3) -0.1269(2) 0.06334(19)
O11A O -0.8538(2) 1.0213(3) 0.0755(2)
O11A_2 O 0.1462(2) 0.0213(3) 0.0755(2)
O12A O -0.8750(2) 1.0142(3) -0.0490(2)
O12A_2 O 0.1250(2) 1.0142(3) -0.0490(2)
O12_2 O -0.1250(2) -0.0142(3) 0.0490(2)
N7A N 0.0038(3) 1.0076(3) -0.8059(2)
N7A_2 N 0.0038(3) 0.0076(3) 0.1941(2)
N8A N 0.0151(4) 1.0802(3) -0.5311(3)
N9A N -0.0148(5) 0.9232(4) -0.5419(3)
C41A C -0.0018(4) 0.2667(3) -0.0018(3)
C42A C 0.0071(4) 0.3163(4) 0.0646(3)
H25A H 0.0125 0.2882 0.1095
C43A C 0.0080(4) 0.4068(4) 0.0657(3)
H26A H 0.0142 0.4386 0.1112
C44A C -0.0000(4) 0.4518(3) -0.0006(3)
C45A C -0.0085(5) 0.3998(4) -0.0678(3)
H27A H -0.0141 0.4272 -0.1130
C46A C -0.0086(5) 0.3103(4) -0.0683(3)
H28A H -0.0132 0.2782 -0.1136
C47A C -0.0008(3) 0.1684(4) -0.0010(3)
C48A C -0.7274(4) 1.0181(5) 0.0099(3)
C49A C -0.6697(4) 1.0143(5) 0.0723(3)
H29A H -0.6895 1.0180 0.1189
C50A C -0.5838(4) 1.0051(5) 0.0674(3)
H30A H -0.5468 0.9990 0.1111
C51A C -0.5487(4) 1.0044(6) 0.0008(4)
C52A C -0.6038(4) 1.0185(5) -0.0591(3)
H31A H -0.5822 1.0242 -0.1051
C53A C -0.6906(4) 1.0247(5) -0.0539(3)
H32A H -0.7269 1.0341 -0.0972
C54A C -0.8262(4) 1.0183(3) 0.0133(3)
C55A C 0.0173(4) 1.0827(3) -0.7629(3)
H33A H 0.0289 1.1365 -0.7852
C56A C 0.0146(4) 1.0831(4) -0.6867(3)
H34A H 0.0227 1.1367 -0.6589
C57A C 0.0000(4) 1.0049(4) -0.6517(3)
C58A C -0.0146(5) 0.9264(4) -0.6955(3)
H35A H -0.0259 0.8718 -0.6742
C59A C -0.0121(4) 0.9316(4) -0.7714(3)
H36A H -0.0220 0.8789 -0.8005
C60A C 0.0003(5) 1.0019(5) -0.5703(3)
Zn1 Zn 0.22686(4) 2.32725(4) 0.24373(3)
Zn2 Zn 0.24921(4) 2.33743(4) 0.40814(3)
O1 O 0.3620(3) 2.3491(3) 0.2749(2)
O2 O 0.3810(2) 2.3457(3) 0.3990(2)
O3 O 1.0923(2) 2.3117(3) 0.2538(2)
O4 O 1.1147(3) 2.3275(3) 0.3778(2)
O5 O 0.2270(3) 2.4600(2) 0.26783(18)
O6 O 0.2574(3) 2.4695(2) 0.39139(19)
O7 O 0.2294(2) 3.1984(2) 0.26446(18)
O8 O 0.2381(3) 3.2043(2) 0.38846(19)
N1 N 0.2299(3) 2.3262(3) 0.1315(2)
N2 N 0.2371(5) 2.4108(4) -0.1356(3)
N3 N 0.2403(4) 2.4115(4) -0.2077(3)
N4 N 0.2174(5) 2.2556(4) -0.2159(3)
N5 N 0.2153(4) 2.2527(4) -0.1433(3)
N6 N 0.2443(3) 2.3375(3) -0.4795(2)
C1 C 0.5073(4) 2.3485(5) 0.3345(3)
C2 C 0.5635(4) 2.3413(5) 0.3947(3)
H1 H 0.5414 2.3380 0.4406
C3 C 0.6532(4) 2.3384(5) 0.3930(3)
H2 H 0.6904 2.3362 0.4373
C4 C 0.6874(4) 2.3388(5) 0.3272(3)
C5 C 0.6309(4) 2.3474(5) 0.2644(3)
H3 H 0.6519 2.3465 0.2181
C6 C 0.5458(4) 2.3571(5) 0.2684(3)
H4 H 0.5110 2.3700 0.2255
C7 C 0.4097(4) 2.3481(4) 0.3370(4)
C8 C 0.9687(4) 2.3212(5) 0.3172(3)
C9 C 0.9121(4) 2.3396(5) 0.2551(3)
H5 H 0.9341 2.3471 0.2094
C10 C 0.8244(4) 2.3467(5) 0.2606(3)
H6 H 0.7898 2.3612 0.2181
C11 C 0.7842(4) 2.3343(5) 0.3238(3)
C12 C 0.8398(4) 2.3115(5) 0.3838(3)
H7 H 0.8161 2.2991 0.4281
C13 C 0.9299(4) 2.3064(5) 0.3806(3)
H8 H 0.9646 2.2924 0.4232
C14 C 1.0655(4) 2.3198(3) 0.3171(3)
C15 C 0.2422(4) 2.5999(3) 0.3283(3)
C16 C 0.2088(5) 2.6393(4) 0.2662(3)
H9 H 0.1870 2.6048 0.2227
C17 C 0.2070(5) 2.7299(4) 0.2672(3)
H10 H 0.1831 2.7547 0.2244
C18 C 0.2393(4) 2.7836(3) 0.3288(3)
C19 C 0.2764(5) 2.7447(4) 0.3895(3)
H11 H 0.3023 2.7797 0.4317
C20 C 0.2761(5) 2.6546(4) 0.3890(3)
H12 H 0.2999 2.6300 0.4319
C21 C 0.2431(4) 2.5022(3) 0.3303(3)
C22 C 0.2343(4) 3.0654(3) 0.3272(3)
C23 C 0.2388(4) 3.0220(4) 0.3933(3)
H13 H 0.2418 3.0541 0.4384
C24 C 0.2390(5) 2.9317(4) 0.3933(3)
H14 H 0.2408 2.9040 0.4385
C25 C 0.2367(4) 2.8809(4) 0.3279(3)
C26 C 0.2298(4) 2.9251(4) 0.2617(3)
H15 H 0.2253 2.8928 0.2166
C27 C 0.2296(4) 3.0150(4) 0.2611(3)
H16 H 0.2262 3.0425 0.2158
C28 C 0.2339(4) 3.1631(4) 0.3261(3)
C29 C 0.2401(4) 2.4019(4) 0.0979(3)
H17 H 0.2479 2.4545 0.1268
C30 C 0.2398(5) 2.4063(4) 0.0223(3)
H18 H 0.2476 2.4611 0.0009
C31 C 0.2279(4) 2.3290(4) -0.0220(3)
C32 C 0.2165(4) 2.2484(4) 0.0128(3)
H19 H 0.2079 2.1947 -0.0149
C33 C 0.2183(4) 2.2506(4) 0.0896(3)
H20 H 0.2112 2.1972 0.1131
C34 C 0.2285(5) 2.3310(4) -0.1051(3)
C35 C 0.2313(4) 2.3336(4) -0.2461(3)
C36 C 0.2208(5) 2.2633(4) -0.4475(3)
H21 H 0.2066 2.2113 -0.4775
C37 C 0.2160(5) 2.2580(4) -0.3722(3)
H22 H 0.1997 2.2038 -0.3517
C38 C 0.2361(4) 2.3356(4) -0.3273(3)
C39 C 0.2555(5) 2.4123(4) -0.3612(3)
H23 H 0.2660 2.4659 -0.3334
C40 C 0.2598(5) 2.4114(4) -0.4376(3)
H24 H 0.2742 2.4649 -0.4598
Zn1_2 Zn -0.77314(4) 2.32725(4) 0.24373(3)
Zn1_3 Zn 1.22686(4) 2.32725(4) 0.24373(3)
Zn1_4 Zn 0.22686(4) 3.32725(4) 0.24373(3)
Zn1_5 Zn 0.22686(4) 1.32725(4) 0.24373(3)
Zn1_6 Zn 0.22686(4) 2.32725(4) 1.24373(3)
Zn2_2 Zn -0.75079(4) 2.33743(4) 0.40814(3)
Zn2_3 Zn 1.24921(4) 2.33743(4) 0.40814(3)
Zn2_4 Zn 0.24921(4) 3.33743(4) 0.40814(3)
Zn2_5 Zn 0.24921(4) 2.33743(4) -0.59186(3)
Zn2_6 Zn 0.24921(4) 1.33743(4) 0.40814(3)
O1_2 O -0.6380(3) 2.3491(3) 0.2749(2)
O2_2 O -0.6190(2) 2.3457(3) 0.3990(2)
O3_2 O 0.0923(2) 2.3117(3) 0.2538(2)
O3_3 O -0.9077(2) 2.3117(3) 0.2538(2)
O4_2 O 0.1147(3) 2.3275(3) 0.3778(2)
O4_3 O -0.8853(3) 2.3275(3) 0.3778(2)
O5_2 O 0.2270(3) 1.4600(2) 0.26783(18)
O5_3 O -0.7730(3) 2.4600(2) 0.26783(18)
O6_2 O 0.2574(3) 1.4695(2) 0.39139(19)
O6_3 O -0.7426(3) 2.4695(2) 0.39139(19)
O7_2 O 0.2294(2) 2.1984(2) 0.26446(18)
O7_3 O -0.7706(2) 2.1984(2) 0.26446(18)
O8_2 O 0.2381(3) 2.2043(2) 0.38846(19)
O8_3 O -0.7619(3) 2.2043(2) 0.38846(19)
N1_2 N 0.2299(3) 2.3262(3) 1.1315(2)
N1_3 N -0.7701(3) 2.3262(3) 0.1315(2)
N2_2 N 0.2371(5) 2.4108(4) 0.8644(3)
N3_2 N 0.2403(4) 2.4115(4) 0.7923(3)
N4_2 N 0.2174(5) 2.2556(4) 0.7841(3)
N5_2 N 0.2153(4) 2.2527(4) 0.8567(3)
N6_2 N 0.2443(3) 2.3375(3) 0.5205(2)
N6_3 N -0.7557(3) 2.3375(3) 0.5205(2)
C1_2 C -0.4927(4) 2.3485(5) 0.3345(3)
C2_2 C -0.4365(4) 2.3413(5) 0.3947(3)
H1_2 H -0.4586 2.3380 0.4406
C3_2 C -0.3468(4) 2.3384(5) 0.3930(3)
H2_2 H -0.3096 2.3362 0.4373
C4_2 C -0.3126(4) 2.3388(5) 0.3272(3)
C5_2 C -0.3691(4) 2.3474(5) 0.2644(3)
H3_2 H -0.3481 2.3465 0.2181
C6_2 C -0.4542(4) 2.3571(5) 0.2684(3)
H4_2 H -0.4890 2.3700 0.2255
C7_2 C -0.5903(4) 2.3481(4) 0.3370(4)
C8_2 C -0.0313(4) 2.3212(5) 0.3172(3)
C9_2 C -0.0879(4) 2.3396(5) 0.2551(3)
H5_2 H -0.0659 2.3471 0.2094
C10_2 C -0.1756(4) 2.3467(5) 0.2606(3)
H6_2 H -0.2102 2.3612 0.2181
C11_2 C -0.2158(4) 2.3343(5) 0.3238(3)
C12_2 C -0.1602(4) 2.3115(5) 0.3838(3)
H7_2 H -0.1839 2.2991 0.4281
C13_2 C -0.0701(4) 2.3064(5) 0.3806(3)
H8_2 H -0.0354 2.2924 0.4232
C14_2 C 0.0655(4) 2.3198(3) 0.3171(3)
C15_2 C 0.2422(4) 1.5999(3) 0.3283(3)
C16_2 C 0.2088(5) 1.6393(4) 0.2662(3)
H9_2 H 0.1870 1.6048 0.2227
C17_2 C 0.2070(5) 1.7299(4) 0.2672(3)
H10_2 H 0.1831 1.7547 0.2244
C18_2 C 0.2393(4) 1.7836(3) 0.3288(3)
C19_2 C 0.2764(5) 1.7447(4) 0.3895(3)
H11_2 H 0.3023 1.7797 0.4317
C20_2 C 0.2761(5) 1.6546(4) 0.3890(3)
H12_2 H 0.2999 1.6300 0.4319
C21_2 C 0.2431(4) 1.5022(3) 0.3303(3)
C22_2 C 0.2343(4) 2.0654(3) 0.3272(3)
C23_2 C 0.2388(4) 2.0220(4) 0.3933(3)
H13_2 H 0.2418 2.0541 0.4384
C24_2 C 0.2390(5) 1.9317(4) 0.3933(3)
H14_2 H 0.2408 1.9040 0.4385
C25_2 C 0.2367(4) 1.8809(4) 0.3279(3)
C26_2 C 0.2298(4) 1.9251(4) 0.2617(3)
H15_2 H 0.2253 1.8928 0.2166
C27_2 C 0.2296(4) 2.0150(4) 0.2611(3)
H16_2 H 0.2262 2.0425 0.2158
C28_2 C 0.2339(4) 2.1631(4) 0.3261(3)
C29_2 C 0.2401(4) 2.4019(4) 1.0979(3)
H17_2 H 0.2479 2.4545 1.1268
C30_2 C 0.2398(5) 2.4063(4) 1.0223(3)
H18_2 H 0.2476 2.4611 1.0009
C31_2 C 0.2279(4) 2.3290(4) 0.9780(3)
C32_2 C 0.2165(4) 2.2484(4) 1.0128(3)
H19_2 H 0.2079 2.1947 0.9851
C33_2 C 0.2183(4) 2.2506(4) 1.0896(3)
H20_2 H 0.2112 2.1972 1.1131
C34_2 C 0.2285(5) 2.3310(4) 0.8949(3)
C35_2 C 0.2313(4) 2.3336(4) 0.7539(3)
C36_2 C 0.2208(5) 2.2633(4) 0.5525(3)
H21_2 H 0.2066 2.2113 0.5225
C37_2 C 0.2160(5) 2.2580(4) 0.6278(3)
H22_2 H 0.1997 2.2038 0.6483
C38_2 C 0.2361(4) 2.3356(4) 0.6727(3)
C39_2 C 0.2555(5) 2.4123(4) 0.6388(3)
H23_2 H 0.2660 2.4659 0.6666
C40_2 C 0.2598(5) 2.4114(4) 0.5624(3)
H24_2 H 0.2742 2.4649 0.5402
loop_
_geom_bond_atom_site_label_1
_geom_bond_atom_site_label_2
_geom_bond_site_symmetry_1
_geom_bond_site_symmetry_2
Zn1 O1 1_555 1_555
Zn2 O2 1_555 1_555
O1 C7 1_555 1_555
O2 C7 1_555 1_555
O3 C14 1_555 1_555
O4 C14 1_555 1_555
O5 Zn1 1_555 1_555
O6 Zn2 1_555 1_555
O7 C28 1_555 1_555
O8 C28 1_555 1_555
N1 Zn1 1_555 1_555
N2 N3 1_555 1_555
N3 C35 1_555 1_555
N4 N5 1_555 1_555
N5 C34 1_555 1_555
N6 C36 1_555 1_555
C1 C2 1_555 1_555
C2 H1 1_555 1_555
C3 C2 1_555 1_555
H2 C3 1_555 1_555
C4 C3 1_555 1_555
C5 C4 1_555 1_555
H3 C5 1_555 1_555
C6 C1 1_555 1_555
H4 C6 1_555 1_555
C7 C1 1_555 1_555
C8 C9 1_555 1_555
C9 H5 1_555 1_555
C10 C9 1_555 1_555
H6 C10 1_555 1_555
C11 C4 1_555 1_555
C12 C11 1_555 1_555
H7 C12 1_555 1_555
C13 C8 1_555 1_555
H8 C13 1_555 1_555
C14 C8 1_555 1_555
C15 C16 1_555 1_555
C16 H9 1_555 1_555
C17 C16 1_555 1_555
H10 C17 1_555 1_555
C18 C17 1_555 1_555
C19 C18 1_555 1_555
H11 C19 1_555 1_555
C20 C15 1_555 1_555
H12 C20 1_555 1_555
C21 O5 1_555 1_555
C22 C23 1_555 1_555
C23 H13 1_555 1_555
C24 C23 1_555 1_555
H14 C24 1_555 1_555
C25 C18 1_555 1_555
C26 C25 1_555 1_555
H15 C26 1_555 1_555
C27 C22 1_555 1_555
H16 C27 1_555 1_555
C28 C22 1_555 1_555
C29 N1 1_555 1_555
H17 C29 1_555 1_555
C30 C29 1_555 1_555
H18 C30 1_555 1_555
C31 C30 1_555 1_555
C32 C31 1_555 1_555
H19 C32 1_555 1_555
C33 N1 1_555 1_555
H20 C33 1_555 1_555
C34 N2 1_555 1_555
C35 N4 1_555 1_555
C36 H21 1_555 1_555
C37 C36 1_555 1_555
H22 C37 1_555 1_555
C38 C35 1_555 1_555
C39 C38 1_555 1_555
H23 C39 1_555 1_555
C40 N6 1_555 1_555
H24 C40 1_555 1_555
Zn3 O9 1_555 1_555
O9 C47 1_555 1_555
O10 C47 1_555 1_555
O11 Zn3 1_555 1_555
O12 C54 1_555 1_555
N7 Zn3 1_555 1_555
N8 C60 1_555 1_555
N9 C60 1_555 1_555
C41 C42 1_555 1_555
C42 H25 1_555 1_555
C43 C42 1_555 1_555
H26 C43 1_555 1_555
C44 C43 1_555 1_555
C45 C44 1_555 1_555
H27 C45 1_555 1_555
C46 C41 1_555 1_555
H28 C46 1_555 1_555
C47 C41 1_555 1_555
C48 C49 1_555 1_555
C49 H29 1_555 1_555
C50 C49 1_555 1_555
H30 C50 1_555 1_555
C51 C50 1_555 1_555
C52 C51 1_555 1_555
H31 C52 1_555 1_555
C53 C48 1_555 1_555
H32 C53 1_555 1_555
C54 O11 1_555 1_555
C55 N7 1_555 1_555
H33 C55 1_555 1_555
C56 C55 1_555 1_555
H34 C56 1_555 1_555
C57 C56 1_555 1_555
C58 C57 1_555 1_555
H35 C58 1_555 1_555
C59 N7 1_555 1_555
H36 C59 1_555 1_555
C60 C57 1_555 1_555
Zn1_2 O1_2 1_555 1_555
Zn1_3 O3 1_555 1_555
Zn1_4 O7 1_555 1_555
Zn1_5 O5_2 1_555 1_555
Zn1_6 N1_2 1_555 1_555
Zn2_2 O2_2 1_555 1_555
Zn2_3 O4 1_555 1_555
Zn2_4 O8 1_555 1_555
Zn2_5 N6 1_555 1_555
Zn2_6 O6_2 1_555 1_555
O1_2 C7_2 1_555 1_555
O2_2 C7_2 1_555 1_555
O3_2 Zn1 1_555 1_555
O3_3 Zn1_2 1_555 1_555
O4_2 Zn2 1_555 1_555
O4_3 Zn2_2 1_555 1_555
O5_2 C21_2 1_555 1_555
O5_3 Zn1_2 1_555 1_555
O6_2 C21_2 1_555 1_555
O6_3 Zn2_2 1_555 1_555
O7_2 Zn1 1_555 1_555
O7_3 Zn1_2 1_555 1_555
O8_2 Zn2 1_555 1_555
O8_3 Zn2_2 1_555 1_555
N1_2 C29_2 1_555 1_555
N1_3 Zn1_2 1_555 1_555
N2_2 N3_2 1_555 1_555
N3_2 C35_2 1_555 1_555
N4_2 N5_2 1_555 1_555
N5_2 C34_2 1_555 1_555
N6_2 Zn2 1_555 1_555
N6_3 Zn2_2 1_555 1_555
C1_2 C2_2 1_555 1_555
C2_2 H1_2 1_555 1_555
C3_2 C2_2 1_555 1_555
H2_2 C3_2 1_555 1_555
C4_2 C3_2 1_555 1_555
C5_2 C4_2 1_555 1_555
H3_2 C5_2 1_555 1_555
C6_2 C1_2 1_555 1_555
H4_2 C6_2 1_555 1_555
C7_2 C1_2 1_555 1_555
C8_2 C9_2 1_555 1_555
C9_2 H5_2 1_555 1_555
C10_2 C9_2 1_555 1_555
H6_2 C10_2 1_555 1_555
C11_2 C4_2 1_555 1_555
C12_2 C11_2 1_555 1_555
H7_2 C12_2 1_555 1_555
C13_2 C8_2 1_555 1_555
H8_2 C13_2 1_555 1_555
C14_2 O3_2 1_555 1_555
C15_2 C16_2 1_555 1_555
C16_2 H9_2 1_555 1_555
C17_2 C16_2 1_555 1_555
H10_2 C17_2 1_555 1_555
C18_2 C17_2 1_555 1_555
C19_2 C18_2 1_555 1_555
H11_2 C19_2 1_555 1_555
C20_2 C15_2 1_555 1_555
H12_2 C20_2 1_555 1_555
C21_2 C15_2 1_555 1_555
C22_2 C23_2 1_555 1_555
C23_2 H13_2 1_555 1_555
C24_2 C23_2 1_555 1_555
H14_2 C24_2 1_555 1_555
C25_2 C18_2 1_555 1_555
C26_2 C25_2 1_555 1_555
H15_2 C26_2 1_555 1_555
C27_2 C22_2 1_555 1_555
H16_2 C27_2 1_555 1_555
C28_2 O7_2 1_555 1_555
C29_2 H17_2 1_555 1_555
C30_2 C29_2 1_555 1_555
H18_2 C30_2 1_555 1_555
C31_2 C30_2 1_555 1_555
C32_2 C31_2 1_555 1_555
H19_2 C32_2 1_555 1_555
C33_2 N1_2 1_555 1_555
H20_2 C33_2 1_555 1_555
C34_2 N2_2 1_555 1_555
C35_2 N4_2 1_555 1_555
C36_2 N6_2 1_555 1_555
H21_2 C36_2 1_555 1_555
C37_2 C36_2 1_555 1_555
H22_2 C37_2 1_555 1_555
C38_2 C35_2 1_555 1_555
C39_2 C38_2 1_555 1_555
H23_2 C39_2 1_555 1_555
C40_2 N6_2 1_555 1_555
H24_2 C40_2 1_555 1_555
Zn3A O9A 1_555 1_555
Zn3A_2 O10 1_555 1_555
Zn3_2 O10A 1_555 1_555
Zn3A_3 O11A 1_555 1_555
Zn3_3 O12A 1_555 1_555
Zn3A_4 N7A 1_555 1_555
O9A C47A 1_555 1_555
O10A C47A 1_555 1_555
O10A_2 Zn3 1_555 1_555
O10_2 Zn3A 1_555 1_555
O11A C54A 1_555 1_555
O11A_2 Zn3A 1_555 1_555
O12A C54A 1_555 1_555
O12A_2 Zn3 1_555 1_555
O12_2 Zn3A 1_555 1_555
N7A C55A 1_555 1_555
N7A_2 Zn3A 1_555 1_555
N8A N9 1_555 1_555
N9A N8 1_555 1_555
C41A C42A 1_555 1_555
C42A H25A 1_555 1_555
C43A C42A 1_555 1_555
H26A C43A 1_555 1_555
C44A C44 1_555 1_555
C45A C44A 1_555 1_555
H27A C45A 1_555 1_555
C46A C41A 1_555 1_555
H28A C46A 1_555 1_555
C47A C41A 1_555 1_555
C48A C49A 1_555 1_555
C49A H29A 1_555 1_555
C50A C49A 1_555 1_555
H30A C50A 1_555 1_555
C51A C51 1_555 1_555
C52A C51A 1_555 1_555
H31A C52A 1_555 1_555
C53A C48A 1_555 1_555
H32A C53A 1_555 1_555
C54A C48A 1_555 1_555
C55A H33A 1_555 1_555
C56A C55A 1_555 1_555
H34A C56A 1_555 1_555
C57A C56A 1_555 1_555
C58A C57A 1_555 1_555
H35A C58A 1_555 1_555
C59A N7A 1_555 1_555
H36A C59A 1_555 1_555
C60A N8A 1_555 1_555
O6 C21 1_555 1_555
C5 C6 1_555 1_555
C10 C11 1_555 1_555
C12 C13 1_555 1_555
C15 C21 1_555 1_555
C19 C20 1_555 1_555
C24 C25 1_555 1_555
C26 C27 1_555 1_555
C31 C34 1_555 1_555
C32 C33 1_555 1_555
C37 C38 1_555 1_555
C39 C40 1_555 1_555
O12 Zn3A_2 1_555 1_555
C45 C46 1_555 1_555
C48 C54 1_555 1_555
C52 C53 1_555 1_555
C58 C59 1_555 1_555
O4_2 C14_2 1_555 1_555
O8_2 C28_2 1_555 1_555
C5_2 C6_2 1_555 1_555
C8_2 C14_2 1_555 1_555
C10_2 C11_2 1_555 1_555
C12_2 C13_2 1_555 1_555
C19_2 C20_2 1_555 1_555
C22_2 C28_2 1_555 1_555
C24_2 C25_2 1_555 1_555
C26_2 C27_2 1_555 1_555
C31_2 C34_2 1_555 1_555
C32_2 C33_2 1_555 1_555
C37_2 C38_2 1_555 1_555
C39_2 C40_2 1_555 1_555
N9A C60A 1_555 1_555
C43A C44A 1_555 1_555
C45A C46A 1_555 1_555
C50A C51A 1_555 1_555
C52A C53A 1_555 1_555
C57A C60A 1_555 1_555
C58A C59A 1_555 1_555

#END
