
#######################################################################
#
#                 Cambridge Crystallographic Data Centre
#                                CCDC 
#
#######################################################################
#
# If this CIF has been generated from an entry in the Cambridge 
# Structural Database, then it will include bibliographic, chemical, 
# crystal, experimental, refinement or atomic coordinate data resulting 
# from the CCDC's data processing and validation procedures.
#
#######################################################################

data_ATIBOU02
_chemical_formula_moiety         '(C15 H19 Mn6 N1 O25)n'
_symmetry_cell_setting           monoclinic
_symmetry_space_group_name_H-M   'P 21/n'
_symmetry_Int_Tables_number      14
_space_group_name_Hall           '-P 2yn'
loop_
_symmetry_equiv_pos_site_id
_symmetry_equiv_pos_as_xyz
1 x,y,z
2 1/2-x,1/2+y,1/2-z
3 -x,-y,-z
4 1/2+x,1/2-y,1/2+z
_cell_length_a                   11.6976(3)
_cell_length_b                   10.2455(3)
_cell_length_c                   15.1724(4)
_cell_angle_alpha                90
_cell_angle_beta                 91.621(2)
_cell_angle_gamma                90
_cell_volume                     1817.65
loop_
_atom_site_label
_atom_site_type_symbol
_atom_site_fract_x
_atom_site_fract_y
_atom_site_fract_z
Mn1 Mn -0.24394(4) -0.57610(5) 0.13133(3)
Mn2 Mn -0.26045(4) -0.38675(5) 0.30894(3)
Mn3 Mn -0.5000 -0.5000 0.0000
Mn4 Mn 0.0000 -0.5000 0.0000
O1 O -0.31376(19) -0.4707(2) 0.02062(15)
O2 O -0.1553(2) -0.4043(3) -0.04257(18)
O3 O -0.5225(2) -0.2923(3) -0.00748(17)
O4 O -0.6564(2) -0.2453(2) -0.10966(14)
O5 O -0.3735(2) -0.4872(2) 0.21479(15)
O6 O -0.5378(2) -0.4926(3) 0.13880(16)
O7 O -0.1922(2) -0.5594(2) 0.36515(15)
O8 O -0.1966(2) -0.6943(2) 0.25008(13)
O9 O 0.0028(2) -0.3757(3) 0.11486(17)
O10 O -0.14997(19) -0.4154(2) 0.19392(15)
O11 O -0.40444(19) -0.1552(2) 0.43272(14)
O12 O -0.4000(2) -0.3652(2) 0.39525(16)
C1 C -0.2588(3) -0.4043(4) -0.0345(2)
H1 H -0.3013 -0.3506 -0.0724
C2 C -0.5768(3) -0.2154(4) -0.0553(2)
H2 H -0.5574 -0.1276 -0.0509
C3 C -0.4808(3) -0.4777(4) 0.2059(2)
H3 H -0.5204 -0.4569 0.2563
C4 C -0.1778(3) -0.6673(4) 0.3305(2)
H4 H -0.1508 -0.7344 0.3667
C5 C -0.0590(3) -0.3558(4) 0.1766(2)
H5 H -0.0367 -0.2894 0.2152
C6 C -0.4414(3) -0.2703(4) 0.4331(2)
H6 H -0.5067 -0.2857 0.4652
Mn1B Mn -0.75606(4) -0.42390(5) -0.13133(3)
Mn2B Mn -0.73955(4) -0.61325(5) -0.30894(3)
O1B O -0.68624(19) -0.5293(2) -0.02062(15)
O2B O -0.8447(2) -0.5957(3) 0.04257(18)
O3B O -0.4775(2) -0.7077(3) 0.00748(17)
O4B O -0.3436(2) -0.7547(2) 0.10966(14)
O5B O -0.6265(2) -0.5128(2) -0.21479(15)
O6B O -0.4622(2) -0.5074(3) -0.13880(16)
O7B O -0.8078(2) -0.4406(2) -0.36515(15)
O8B O -0.8034(2) -0.3057(2) -0.25008(13)
O9B O -1.0028(2) -0.6243(3) -0.11486(17)
O10B O -0.85003(19) -0.5846(2) -0.19392(15)
O11B O -0.59556(19) -0.8448(2) -0.43272(14)
O12B O -0.6000(2) -0.6348(2) -0.39525(16)
C1B C -0.7412(3) -0.5957(4) 0.0345(2)
H1B H -0.6987 -0.6494 0.0724
C2B C -0.4232(3) -0.7846(4) 0.0553(2)
H2B H -0.4426 -0.8724 0.0509
C3B C -0.5192(3) -0.5223(4) -0.2059(2)
H3B H -0.4796 -0.5431 -0.2563
C4B C -0.8222(3) -0.3327(4) -0.3305(2)
H4B H -0.8492 -0.2656 -0.3667
C5B C -0.9410(3) -0.6442(4) -0.1766(2)
H5B H -0.9633 -0.7106 -0.2152
C6B C -0.5586(3) -0.7297(4) -0.4331(2)
H6B H -0.4933 -0.7143 -0.4652
Mn1A Mn -0.25606(4) -0.07610(5) 0.36867(3)
Mn1C Mn -0.74394(4) -0.92390(5) -0.36867(3)
Mn2A Mn -0.23955(4) -0.88675(5) 0.19106(3)
Mn2C Mn -0.76045(4) -0.11325(5) -0.19106(3)
Mn4_2 Mn -1.0000 -0.5000 0.0000
Mn4A Mn -0.5000 -1.0000 -0.5000
Mn4A_2 Mn -0.5000 0.0000 0.5000
O2B_2 O 0.1553(2) -0.5957(3) 0.04257(18)
O4A O -0.8436(2) -0.7453(2) -0.39034(14)
O4C O -0.1564(2) -0.2547(2) 0.39034(14)
O8A O -0.3034(2) -0.1943(2) 0.24992(13)
O8C O -0.6966(2) -0.8057(2) -0.24992(13)
O9B_2 O -0.0028(2) -0.6243(3) -0.11486(17)
O11A O -0.09556(19) -0.6552(2) 0.06728(14)
O11C O -0.90444(19) -0.3448(2) -0.06728(14)
O11C_2 O 0.09556(19) -0.3448(2) -0.06728(14)
O13 O -0.1324(7) -0.6255(7) 0.6653(5)
C7 C -0.2233(17) -0.5362(19) 0.6181(11)
H7 H -0.2722 -0.5551 0.5704
C8 C -0.2787(15) -0.3250(17) 0.6390(11)
H8 H -0.3370 -0.3510 0.5968
H9 H -0.2315 -0.2591 0.6136
H10 H -0.3138 -0.2907 0.6905
C9 C -0.1310(16) -0.3782(16) 0.7204(11)
H11 H -0.0796 -0.4459 0.7402
H12 H -0.1682 -0.3412 0.7702
H13 H -0.0887 -0.3115 0.6912
N1 N -0.2130(6) -0.4307(7) 0.6619(4)
loop_
_geom_bond_atom_site_label_1
_geom_bond_atom_site_label_2
_geom_bond_site_symmetry_1
_geom_bond_site_symmetry_2
Mn1 O1 1_555 1_555
Mn2 O5 1_555 1_555
Mn3 O1 1_555 1_555
Mn4 O2 1_555 1_555
O1 C1 1_555 1_555
O2 C1 1_555 1_555
O3 Mn3 1_555 1_555
O4 C2 1_555 1_555
O5 Mn1 1_555 1_555
O6 Mn3 1_555 1_555
O7 Mn2 1_555 1_555
O8 Mn1 1_555 1_555
O9 Mn4 1_555 1_555
O10 Mn1 1_555 1_555
O11 C6 1_555 1_555
O12 Mn2 1_555 1_555
C1 H1 1_555 1_555
C2 O3 1_555 1_555
H2 C2 1_555 1_555
C3 O5 1_555 1_555
H3 C3 1_555 1_555
C4 O7 1_555 1_555
H4 C4 1_555 1_555
C5 O9 1_555 1_555
H5 C5 1_555 1_555
C6 O12 1_555 1_555
H6 C6 1_555 1_555
O13 C7 1_555 1_555
C7 H7 1_555 1_555
C8 H8 1_555 1_555
H9 C8 1_555 1_555
H10 C8 1_555 1_555
C9 H11 1_555 1_555
H12 C9 1_555 1_555
H13 C9 1_555 1_555
N1 C7 1_555 1_555
Mn1B O4 1_555 1_555
Mn2B O5B 1_555 1_555
O1B Mn3 1_555 1_555
O2B C1B 1_555 1_555
O3B Mn3 1_555 1_555
O4B Mn1 1_555 1_555
O5B Mn1B 1_555 1_555
O6B Mn3 1_555 1_555
O7B Mn2B 1_555 1_555
O8B Mn1B 1_555 1_555
O9B C5B 1_555 1_555
O10B Mn1B 1_555 1_555
O11B C6B 1_555 1_555
O12B Mn2B 1_555 1_555
C1B O1B 1_555 1_555
H1B C1B 1_555 1_555
C2B O3B 1_555 1_555
H2B C2B 1_555 1_555
C3B O5B 1_555 1_555
H3B C3B 1_555 1_555
C4B O7B 1_555 1_555
H4B C4B 1_555 1_555
C5B O10B 1_555 1_555
H5B C5B 1_555 1_555
C6B O12B 1_555 1_555
H6B C6B 1_555 1_555
Mn1A O11 1_555 1_555
Mn1C O11B 1_555 1_555
Mn2A O8 1_555 1_555
Mn2C O4 1_555 1_555
Mn4_2 O2B 1_555 1_555
Mn4A O11B 1_555 1_555
Mn4A_2 O11 1_555 1_555
O2B_2 Mn4 1_555 1_555
O4A Mn2B 1_555 1_555
O4C Mn2 1_555 1_555
O8A Mn2 1_555 1_555
O8C Mn2B 1_555 1_555
O9B_2 Mn4 1_555 1_555
O11A Mn1 1_555 1_555
O11C Mn1B 1_555 1_555
O11C_2 Mn4 1_555 1_555
Mn2 O10 1_555 1_555
Mn4 O11A 1_555 1_555
O6 C3 1_555 1_555
O8 C4 1_555 1_555
O10 C5 1_555 1_555
C8 N1 1_555 1_555
C9 N1 1_555 1_555
Mn1B O1B 1_555 1_555
Mn2B O10B 1_555 1_555
O4B C2B 1_555 1_555
O4B Mn2A 1_555 1_555
O6B C3B 1_555 1_555
O8B C4B 1_555 1_555
O8B Mn2C 1_555 1_555
O9B Mn4_2 1_555 1_555
Mn1A O4C 1_555 1_555
Mn1A O8A 1_555 1_555
Mn1C O4A 1_555 1_555
Mn1C O8C 1_555 1_555
Mn4_2 O11C 1_555 1_555

#END
