
#######################################################################
#
#                 Cambridge Crystallographic Data Centre
#                                CCDC 
#
#######################################################################
#
# If this CIF has been generated from an entry in the Cambridge 
# Structural Database, then it will include bibliographic, chemical, 
# crystal, experimental, refinement or atomic coordinate data resulting 
# from the CCDC's data processing and validation procedures.
#
#######################################################################

data_AHIYOH
_chemical_formula_moiety         '(C79 H53 Co7 N2 O28 1-)n'
_symmetry_cell_setting           orthorhombic
_symmetry_space_group_name_H-M   'P b c a'
_symmetry_Int_Tables_number      61
_space_group_name_Hall           '-P 2ac 2ab'
loop_
_symmetry_equiv_pos_site_id
_symmetry_equiv_pos_as_xyz
1 x,y,z
2 1/2-x,-y,1/2+z
3 -x,1/2+y,1/2-z
4 1/2+x,1/2-y,-z
5 -x,-y,-z
6 1/2+x,y,1/2-z
7 x,1/2-y,1/2+z
8 1/2-x,1/2+y,z
_cell_length_a                   19.719(2)
_cell_length_b                   15.6642(17)
_cell_length_c                   27.118(3)
_cell_angle_alpha                90
_cell_angle_beta                 90
_cell_angle_gamma                90
_cell_volume                     8376.27
loop_
_atom_site_label
_atom_site_type_symbol
_atom_site_fract_x
_atom_site_fract_y
_atom_site_fract_z
_atom_site_U_iso_or_equiv
_atom_site_thermal_displace_type
Co1 Co 0.01765(2) 0.22862(2) 0.522518(14) 0.0278 Uani
Co2 Co 0.038240(18) 0.12752(2) 0.420466(13) 0.0217 Uani
Co3 Co 0.0000 0.0000 0.5000 0.0208 Uani
Co4 Co -0.03899(2) -0.05077(2) 0.376381(14) 0.0302 Uani
O1 O -0.04799(11) 0.21084(14) 0.42076(8) 0.0397 Uani
O2 O -0.06980(11) 0.26255(14) 0.49571(8) 0.0414 Uani
O3 O -0.37847(15) 0.3807(2) 0.38335(14) 0.0942 Uani
O4 O -0.3394(4) 0.4955(4) 0.3681(2) 0.0913 Uiso
C1 C -0.08264(15) 0.25293(18) 0.45050(12) 0.0317 Uani
C2 C -0.3311(2) 0.4240(3) 0.38821(19) 0.0806 Uani
C3 C -0.14508(15) 0.2975(2) 0.43240(11) 0.0340 Uani
C4 C -0.20173(18) 0.2527(2) 0.42032(15) 0.0543 Uani
H1 H -0.2013 0.1934 0.4213 0.0650 Uiso
C5 C -0.26121(18) 0.2968(3) 0.40628(15) 0.0625 Uani
H2 H -0.3001 0.2657 0.3989 0.0750 Uiso
C6 C -0.26328(18) 0.3836(3) 0.40321(14) 0.0521 Uani
C7 C -0.20532(17) 0.4320(2) 0.41393(13) 0.0447 Uani
C8 C -0.2012(2) 0.5243(3) 0.41208(18) 0.0780 Uani
H3 H -0.2389 0.5556 0.4023 0.0930 Uiso
C9 C -0.1429(3) 0.5663(3) 0.4244(2) 0.0833 Uani
H4 H -0.1418 0.6256 0.4228 0.1000 Uiso
C10 C -0.0866(2) 0.5234(2) 0.43884(18) 0.0733 Uani
H5 H -0.0474 0.5533 0.4471 0.0880 Uiso
C11 C -0.08728(19) 0.4373(2) 0.44127(15) 0.0524 Uani
H6 H -0.0481 0.4089 0.4510 0.0630 Uiso
C12 C -0.14597(15) 0.38865(19) 0.42952(12) 0.0347 Uani
O5 O -0.08994(10) 0.05141(12) 0.52634(8) 0.0334 Uani
O6 O -0.11781(10) -0.04019(13) 0.58598(8) 0.0352 Uani
O7 O -0.41519(12) 0.19777(14) 0.51087(9) 0.0480 Uani
O8 O -0.39320(10) 0.27181(13) 0.57964(8) 0.0347 Uani
C13 C -0.12965(14) 0.02193(18) 0.55815(11) 0.0275 Uani
C14 C -0.38132(14) 0.21391(18) 0.54916(11) 0.0299 Uani
C15 C -0.19756(14) 0.06665(18) 0.56121(11) 0.0288 Uani
C16 C -0.19724(16) 0.1524(2) 0.55256(14) 0.0448 Uani
H7 H -0.1562 0.1803 0.5473 0.0540 Uiso
C17 C -0.25792(16) 0.19931(19) 0.55142(14) 0.0460 Uani
H8 H -0.2562 0.2581 0.5469 0.0550 Uiso
C18 C -0.31890(15) 0.16066(19) 0.55671(11) 0.0313 Uani
C19 C -0.32224(15) 0.07064(19) 0.56557(12) 0.0347 Uani
C20 C -0.38496(17) 0.0284(2) 0.57155(17) 0.0567 Uani
H9 H -0.4251 0.0594 0.5694 0.0680 Uiso
C21 C -0.3874(2) -0.0574(2) 0.5804(2) 0.0813 Uani
H10 H -0.4289 -0.0847 0.5843 0.0980 Uiso
C22 C -0.3271(2) -0.1037(2) 0.5836(2) 0.0861 Uani
H11 H -0.3289 -0.1620 0.5901 0.1030 Uiso
C23 C -0.26573(17) -0.0657(2) 0.57762(17) 0.0592 Uani
H12 H -0.2266 -0.0986 0.5793 0.0710 Uiso
C24 C -0.26014(15) 0.02370(19) 0.56876(12) 0.0342 Uani
O9 O 0.02166(12) -0.15143(15) 0.37621(9) 0.0486 Uani
O10 O -0.00788(14) -0.27327(14) 0.41106(8) 0.0498 Uani
O11 O -0.02725(11) -0.36739(13) 0.15533(7) 0.0353 Uani
O12 O 0.02203(13) -0.48617(14) 0.18491(8) 0.0455 Uani
C25 C 0.01018(16) -0.22978(19) 0.37446(12) 0.0342 Uani
C26 C 0.00185(15) -0.4094(2) 0.18802(11) 0.0304 Uani
C27 C 0.01681(16) -0.27701(19) 0.32654(11) 0.0327 Uani
C28 C -0.01947(19) -0.3502(2) 0.32183(11) 0.0422 Uani
H13 H -0.0433 -0.3709 0.3489 0.0500 Uiso
C29 C -0.02209(19) -0.3955(2) 0.27713(11) 0.0424 Uani
H14 H -0.0468 -0.4459 0.2751 0.0510 Uiso
C30 C 0.01147(16) -0.3658(2) 0.23668(11) 0.0336 Uani
C31 C 0.05315(16) -0.2915(2) 0.24021(12) 0.0379 Uani
C32 C 0.09203(19) -0.2623(3) 0.19991(13) 0.0561 Uani
H15 H 0.0898 -0.2912 0.1700 0.0680 Uiso
C33 C 0.1329(2) -0.1925(3) 0.20413(15) 0.0740 Uani
H16 H 0.1580 -0.1738 0.1772 0.0890 Uiso
C34 C 0.1368(2) -0.1491(3) 0.24892(16) 0.0743 Uani
H17 H 0.1652 -0.1019 0.2516 0.0890 Uiso
C35 C 0.10012(19) -0.1745(3) 0.28864(14) 0.0567 Uani
H18 H 0.1037 -0.1443 0.3180 0.0680 Uiso
C36 C 0.05666(16) -0.2460(2) 0.28622(11) 0.0367 Uani
O13 O 0.04774(9) 0.11848(11) 0.49910(7) 0.0242 Uani
H19 H 0.0957 0.1110 0.5076 0.0290 Uiso
O14 O -0.03276(9) 0.03204(12) 0.43015(7) 0.0241 Uani
H20 H -0.0772 0.0594 0.4335 0.0290 Uiso
Co1D Co -0.01765(2) -0.22862(2) 0.477482(14) 0.0278 Uani
Co2D Co -0.038240(18) -0.12752(2) 0.579534(13) 0.0217 Uani
Co4D Co 0.03899(2) 0.05077(2) 0.623619(14) 0.0302 Uani
O1D O 0.04799(11) -0.21084(14) 0.57924(8) 0.0397 Uani
O2D O 0.06980(11) -0.26255(14) 0.50429(8) 0.0414 Uani
O3D O 0.37847(15) -0.3807(2) 0.61665(14) 0.0942 Uani
O4D O 0.3394(4) -0.4955(4) 0.6319(2) 0.0913 Uiso
C1D C 0.08264(15) -0.25293(18) 0.54950(12) 0.0317 Uani
C2D C 0.3311(2) -0.4240(3) 0.61179(19) 0.0806 Uani
C3D C 0.14508(15) -0.2975(2) 0.56760(11) 0.0340 Uani
C4D C 0.20173(18) -0.2527(2) 0.57968(15) 0.0543 Uani
H1D H 0.2013 -0.1934 0.5787 0.0650 Uiso
C5D C 0.26121(18) -0.2968(3) 0.59372(15) 0.0625 Uani
H2D H 0.3001 -0.2657 0.6011 0.0750 Uiso
C6D C 0.26328(18) -0.3836(3) 0.59679(14) 0.0521 Uani
C7D C 0.20532(17) -0.4320(2) 0.58607(13) 0.0447 Uani
C8D C 0.2012(2) -0.5243(3) 0.58792(18) 0.0780 Uani
H3D H 0.2389 -0.5556 0.5977 0.0930 Uiso
C9D C 0.1429(3) -0.5663(3) 0.5756(2) 0.0833 Uani
H4D H 0.1418 -0.6256 0.5772 0.1000 Uiso
C10D C 0.0866(2) -0.5234(2) 0.56116(18) 0.0733 Uani
H5D H 0.0474 -0.5533 0.5529 0.0880 Uiso
C11D C 0.08728(19) -0.4373(2) 0.55873(15) 0.0524 Uani
H6D H 0.0481 -0.4089 0.5490 0.0630 Uiso
C12D C 0.14597(15) -0.38865(19) 0.57048(12) 0.0347 Uani
O5D O 0.08994(10) -0.05141(12) 0.47366(8) 0.0334 Uani
O6D O 0.11781(10) 0.04019(13) 0.41402(8) 0.0352 Uani
O7D O 0.41519(12) -0.19777(14) 0.48913(9) 0.0480 Uani
O8D O 0.39320(10) -0.27181(13) 0.42036(8) 0.0347 Uani
C13D C 0.12965(14) -0.02193(18) 0.44185(11) 0.0275 Uani
C14D C 0.38132(14) -0.21391(18) 0.45084(11) 0.0299 Uani
C15D C 0.19756(14) -0.06665(18) 0.43879(11) 0.0288 Uani
C16D C 0.19724(16) -0.1524(2) 0.44744(14) 0.0448 Uani
H7D H 0.1562 -0.1803 0.4527 0.0540 Uiso
C17D C 0.25792(16) -0.19931(19) 0.44858(14) 0.0460 Uani
H8D H 0.2562 -0.2581 0.4531 0.0550 Uiso
C18D C 0.31890(15) -0.16066(19) 0.44329(11) 0.0313 Uani
C19D C 0.32224(15) -0.07064(19) 0.43443(12) 0.0347 Uani
C20D C 0.38496(17) -0.0284(2) 0.42845(17) 0.0567 Uani
H9D H 0.4251 -0.0594 0.4306 0.0680 Uiso
C21D C 0.3874(2) 0.0574(2) 0.4196(2) 0.0813 Uani
H10D H 0.4289 0.0847 0.4157 0.0980 Uiso
C22D C 0.3271(2) 0.1037(2) 0.4164(2) 0.0861 Uani
H11D H 0.3289 0.1620 0.4099 0.1030 Uiso
C23D C 0.26573(17) 0.0657(2) 0.42238(17) 0.0592 Uani
H12D H 0.2266 0.0986 0.4207 0.0710 Uiso
C24D C 0.26014(15) -0.02370(19) 0.43124(12) 0.0342 Uani
O9D O -0.02166(12) 0.15143(15) 0.62379(9) 0.0486 Uani
O10D O 0.00788(14) 0.27327(14) 0.58894(8) 0.0498 Uani
O11D O 0.02725(11) 0.36739(13) 0.84467(7) 0.0353 Uani
O12D O -0.02203(13) 0.48617(14) 0.81509(8) 0.0455 Uani
C25D C -0.01018(16) 0.22978(19) 0.62554(12) 0.0342 Uani
C26D C -0.00185(15) 0.4094(2) 0.81198(11) 0.0304 Uani
C27D C -0.01681(16) 0.27701(19) 0.67346(11) 0.0327 Uani
C28D C 0.01947(19) 0.3502(2) 0.67817(11) 0.0422 Uani
H13D H 0.0433 0.3709 0.6511 0.0500 Uiso
C29D C 0.02209(19) 0.3955(2) 0.72287(11) 0.0424 Uani
H14D H 0.0468 0.4459 0.7249 0.0510 Uiso
C30D C -0.01147(16) 0.3658(2) 0.76332(11) 0.0336 Uani
C31D C -0.05315(16) 0.2915(2) 0.75979(12) 0.0379 Uani
C32D C -0.09203(19) 0.2623(3) 0.80009(13) 0.0561 Uani
H15D H -0.0898 0.2912 0.8300 0.0680 Uiso
C33D C -0.1329(2) 0.1925(3) 0.79587(15) 0.0740 Uani
H16D H -0.1580 0.1738 0.8228 0.0890 Uiso
C34D C -0.1368(2) 0.1491(3) 0.75108(16) 0.0743 Uani
H17D H -0.1652 0.1019 0.7484 0.0890 Uiso
C35D C -0.10012(19) 0.1745(3) 0.71136(14) 0.0567 Uani
H18D H -0.1037 0.1443 0.6820 0.0680 Uiso
C36D C -0.05666(16) 0.2460(2) 0.71378(11) 0.0367 Uani
O13D O -0.04774(9) -0.11848(11) 0.50090(7) 0.0242 Uani
H19D H -0.0957 -0.1110 0.4924 0.0290 Uiso
O14D O 0.03276(9) -0.03204(12) 0.56985(7) 0.0241 Uani
H20D H 0.0772 -0.0594 0.5665 0.0290 Uiso
Co1C Co -0.48235(2) 0.27138(2) 0.477482(14) 0.0278 Uani
Co1G Co 0.48235(2) -0.27138(2) 0.522518(14) 0.0278 Uani
Co2B Co -0.038240(18) -0.37248(2) 0.079534(13) 0.0217 Uani
Co2C Co -0.461760(18) 0.37248(2) 0.579534(13) 0.0217 Uani
Co2F Co 0.038240(18) 0.37248(2) 0.920466(13) 0.0217 Uani
Co2G Co 0.461760(18) -0.37248(2) 0.420466(13) 0.0217 Uani
Co4B Co 0.03899(2) -0.55077(2) 0.123619(14) 0.0302 Uani
Co4C Co 0.46101(2) -0.44923(2) 0.623619(14) 0.0302 Uani
Co4F Co -0.03899(2) 0.55077(2) 0.876381(14) 0.0302 Uani
Co4G Co -0.46101(2) 0.44923(2) 0.376381(14) 0.0302 Uani
O3C O 0.12153(15) 0.1193(2) 0.61665(14) 0.0942 Uani
O3G O -0.12153(15) -0.1193(2) 0.38335(14) 0.0942 Uani
O7C O 0.08481(12) 0.30223(14) 0.48913(9) 0.0480 Uani
O7G O -0.08481(12) -0.30223(14) 0.51087(9) 0.0480 Uani
O8C O 0.10680(10) 0.22819(13) 0.42036(8) 0.0347 Uani
O8G O -0.10680(10) -0.22819(13) 0.57964(8) 0.0347 Uani
O11B O 0.02725(11) 0.13261(13) 0.34467(7) 0.0353 Uani
O11F O -0.02725(11) -0.13261(13) 0.65533(7) 0.0353 Uani
O12B O -0.02203(13) 0.01383(14) 0.31509(8) 0.0455 Uani
O12F O 0.02203(13) -0.01383(14) 0.68491(8) 0.0455 Uani
N1 N -0.1004(2) -0.1695(3) 0.21042(17) 0.0969 Uiso
N2 N -0.1795(3) -0.2630(3) 0.2241(2) 0.1300 Uiso
C37 C -0.1356(3) -0.2317(4) 0.1927(2) 0.0913 Uiso
H21 H -0.1303 -0.2523 0.1608 0.1100 Uiso
C38 C -0.1683(4) -0.2113(5) 0.2663(3) 0.1306 Uiso
H22 H -0.1916 -0.2169 0.2960 0.1570 Uiso
C39 C -0.1234(3) -0.1579(5) 0.2583(2) 0.1167 Uiso
H23 H -0.1079 -0.1170 0.2805 0.1400 Uiso
C40 C -0.0488(4) -0.1238(5) 0.1875(3) 0.1500 Uiso
H24 H -0.0425 -0.1449 0.1546 0.2250 Uiso
H25 H -0.0074 -0.1306 0.2058 0.2250 Uiso
H26 H -0.0608 -0.0645 0.1863 0.2250 Uiso
C41 C -0.2210(6) -0.3367(6) 0.2101(3) 0.1608 Uiso
H27 H -0.1988 -0.3721 0.1856 0.1930 Uiso
H28 H -0.2654 -0.3198 0.1982 0.1930 Uiso
C42 C -0.2247(5) -0.3799(7) 0.2596(4) 0.1660 Uiso
H29 H -0.2369 -0.3403 0.2857 0.1990 Uiso
H30 H -0.1826 -0.4085 0.2680 0.1990 Uiso
C43 C -0.2811(6) -0.4425(9) 0.2485(6) 0.1840 Uiso
H31 H -0.2880 -0.4790 0.2765 0.2760 Uiso
H32 H -0.2690 -0.4764 0.2204 0.2760 Uiso
H33 H -0.3222 -0.4117 0.2417 0.2760 Uiso
loop_
_atom_site_aniso_label
_atom_site_aniso_U_11
_atom_site_aniso_U_22
_atom_site_aniso_U_33
_atom_site_aniso_U_23
_atom_site_aniso_U_13
_atom_site_aniso_U_12
Co1 0.0372(2) 0.02094(19) 0.0254(2) -0.00468(16) 0.00342(17) -0.00113(16)
Co2 0.02442(18) 0.01729(17) 0.02325(18) 0.00205(15) 0.00032(15) -0.00144(15)
Co3 0.0237(2) 0.0154(2) 0.0234(3) 0.0026(2) 0.0033(2) 0.0012(2)
Co4 0.0413(2) 0.0217(2) 0.0277(2) 0.00060(16) 0.00120(18) -0.00637(17)
O1 0.0410(12) 0.0357(12) 0.0425(12) -0.0010(10) -0.0021(10) 0.0143(10)
O2 0.0445(12) 0.0409(13) 0.0387(12) 0.0032(10) -0.0038(11) 0.0101(11)
O3 0.0465(15) 0.098(2) 0.138(2) -0.0464(19) -0.0095(16) 0.0186(15)
C1 0.0330(15) 0.0197(14) 0.0424(18) 0.0043(13) 0.0006(14) -0.0024(12)
C2 0.0478(19) 0.084(2) 0.110(2) -0.013(2) 0.0250(19) 0.0181(19)
C3 0.0326(16) 0.0318(16) 0.0375(17) -0.0008(14) -0.0009(14) 0.0010(13)
C4 0.0449(19) 0.0391(19) 0.079(3) 0.004(2) -0.0081(19) -0.0109(16)
C5 0.0285(17) 0.094(3) 0.065(3) -0.002(2) -0.0023(17) -0.0203(19)
C6 0.0412(19) 0.065(2) 0.050(2) 0.0001(19) 0.0057(17) 0.0153(18)
C7 0.0396(18) 0.050(2) 0.0446(19) -0.0013(17) 0.0018(15) 0.0178(16)
C8 0.091(3) 0.050(2) 0.093(3) 0.007(2) -0.007(3) 0.042(2)
C9 0.102(4) 0.035(2) 0.113(4) -0.005(2) -0.014(3) -0.003(2)
C10 0.083(3) 0.034(2) 0.103(4) 0.001(2) -0.019(3) -0.007(2)
C11 0.050(2) 0.0341(18) 0.073(3) 0.0061(18) -0.0087(19) -0.0035(16)
C12 0.0328(16) 0.0317(16) 0.0397(17) -0.0003(14) 0.0022(14) 0.0054(13)
O5 0.0313(10) 0.0265(10) 0.0424(12) 0.0041(9) 0.0126(9) 0.0075(9)
O6 0.0321(10) 0.0369(12) 0.0366(12) 0.0077(10) 0.0071(9) 0.0145(9)
O7 0.0539(13) 0.0339(12) 0.0561(14) -0.0123(11) -0.0197(11) 0.0185(11)
O8 0.0382(11) 0.0289(11) 0.0369(12) -0.0009(9) -0.0013(9) 0.0147(9)
C13 0.0279(14) 0.0264(15) 0.0283(15) -0.0022(13) 0.0030(12) 0.0050(12)
C14 0.0295(15) 0.0206(14) 0.0396(17) 0.0074(13) 0.0048(13) 0.0045(12)
C15 0.0265(14) 0.0253(14) 0.0346(16) 0.0001(13) 0.0039(13) 0.0086(12)
C16 0.0268(15) 0.0275(16) 0.080(3) 0.0013(17) 0.0066(17) 0.0003(13)
C17 0.0356(17) 0.0194(15) 0.083(3) 0.0033(17) 0.0076(18) 0.0061(14)
C18 0.0308(15) 0.0238(14) 0.0392(17) -0.0042(13) 0.0020(13) 0.0059(13)
C19 0.0297(15) 0.0247(15) 0.0496(19) 0.0059(14) 0.0044(14) 0.0065(13)
C20 0.0289(16) 0.0392(19) 0.102(3) 0.014(2) 0.0021(19) 0.0064(16)
C21 0.039(2) 0.038(2) 0.167(5) 0.019(3) 0.009(3) -0.0043(18)
C22 0.042(2) 0.0282(18) 0.188(5) 0.032(3) 0.013(3) 0.0033(17)
C23 0.0316(17) 0.0250(16) 0.121(3) 0.018(2) 0.011(2) 0.0085(14)
C24 0.0290(15) 0.0234(15) 0.0503(19) 0.0049(14) 0.0044(14) 0.0055(13)
O9 0.0465(13) 0.0329(12) 0.0664(16) -0.0221(11) 0.0068(12) 0.0014(11)
O10 0.0855(17) 0.0365(13) 0.0275(12) -0.0082(10) -0.0002(12) 0.0124(13)
O11 0.0445(12) 0.0390(12) 0.0224(10) -0.0083(9) -0.0047(9) 0.0062(10)
O12 0.0708(15) 0.0360(12) 0.0298(11) -0.0061(10) 0.0009(11) 0.0133(11)
C25 0.0380(16) 0.0294(16) 0.0351(17) -0.0099(14) -0.0063(14) 0.0086(14)
C26 0.0312(15) 0.0342(16) 0.0258(15) -0.0064(13) 0.0034(12) -0.0028(13)
C27 0.0454(17) 0.0270(15) 0.0258(15) -0.0042(13) -0.0056(14) 0.0053(14)
C28 0.068(2) 0.0359(17) 0.0227(15) -0.0015(14) 0.0063(15) -0.0031(17)
C29 0.069(2) 0.0286(16) 0.0297(17) -0.0073(14) 0.0009(16) -0.0086(16)
C30 0.0389(16) 0.0370(17) 0.0250(15) -0.0046(13) -0.0026(13) 0.0016(14)
C31 0.0408(18) 0.0409(18) 0.0320(16) -0.0046(15) -0.0016(14) -0.0027(15)
C32 0.060(2) 0.074(3) 0.0344(19) -0.0116(19) 0.0047(17) -0.019(2)
C33 0.083(3) 0.092(3) 0.047(2) -0.010(2) 0.016(2) -0.050(2)
C34 0.083(3) 0.077(3) 0.063(3) -0.014(2) 0.010(2) -0.045(2)
C35 0.057(2) 0.066(2) 0.047(2) -0.0186(19) 0.0020(18) -0.0254(19)
C36 0.0406(17) 0.0386(17) 0.0310(16) -0.0043(15) -0.0059(14) -0.0009(15)
O13 0.0278(10) 0.0177(9) 0.0272(10) 0.0005(8) 0.0026(8) -0.0002(8)
O14 0.0244(9) 0.0210(9) 0.0270(10) 0.0019(8) 0.0001(8) 0.0008(8)
Co1D 0.0372 0.02094 0.0254 -0.00468 0.00342 -0.00113
Co2D 0.02442 0.01729 0.02325 0.00205 0.00032 -0.00144
Co4D 0.0413 0.0217 0.0277 0.0006 0.0012 -0.00637
O1D 0.041 0.0357 0.0425 -0.001 -0.0021 0.0143
O2D 0.0445 0.0409 0.0387 0.0032 -0.0038 0.0101
O3D 0.0465 0.098 0.138 -0.0464 -0.0095 0.0186
C1D 0.033 0.0197 0.0424 0.0043 0.0006 -0.0024
C2D 0.0478 0.084 0.11 -0.013 0.025 0.0181
C3D 0.0326 0.0318 0.0375 -0.0008 -0.0009 0.001
C4D 0.0449 0.0391 0.079 0.004 -0.0081 -0.0109
C5D 0.0285 0.094 0.065 -0.002 -0.0023 -0.0203
C6D 0.0412 0.065 0.05 0.0001 0.0057 0.0153
C7D 0.0396 0.05 0.0446 -0.0013 0.0018 0.0178
C8D 0.091 0.05 0.093 0.007 -0.007 0.042
C9D 0.102 0.035 0.113 -0.005 -0.014 -0.003
C10D 0.083 0.034 0.103 0.001 -0.019 -0.007
C11D 0.05 0.0341 0.073 0.0061 -0.0087 -0.0035
C12D 0.0328 0.0317 0.0397 -0.0003 0.0022 0.0054
O5D 0.0313 0.0265 0.0424 0.0041 0.0126 0.0075
O6D 0.0321 0.0369 0.0366 0.0077 0.0071 0.0145
O7D 0.0539 0.0339 0.0561 -0.0123 -0.0197 0.0185
O8D 0.0382 0.0289 0.0369 -0.0009 -0.0013 0.0147
C13D 0.0279 0.0264 0.0283 -0.0022 0.003 0.005
C14D 0.0295 0.0206 0.0396 0.0074 0.0048 0.0045
C15D 0.0265 0.0253 0.0346 0.0001 0.0039 0.0086
C16D 0.0268 0.0275 0.08 0.0013 0.0066 0.0003
C17D 0.0356 0.0194 0.083 0.0033 0.0076 0.0061
C18D 0.0308 0.0238 0.0392 -0.0042 0.002 0.0059
C19D 0.0297 0.0247 0.0496 0.0059 0.0044 0.0065
C20D 0.0289 0.0392 0.102 0.014 0.0021 0.0064
C21D 0.039 0.038 0.167 0.019 0.009 -0.0043
C22D 0.042 0.0282 0.188 0.032 0.013 0.0033
C23D 0.0316 0.025 0.121 0.018 0.011 0.0085
C24D 0.029 0.0234 0.0503 0.0049 0.0044 0.0055
O9D 0.0465 0.0329 0.0664 -0.0221 0.0068 0.0014
O10D 0.0855 0.0365 0.0275 -0.0082 -0.0002 0.0124
O11D 0.0445 0.039 0.0224 -0.0083 -0.0047 0.0062
O12D 0.0708 0.036 0.0298 -0.0061 0.0009 0.0133
C25D 0.038 0.0294 0.0351 -0.0099 -0.0063 0.0086
C26D 0.0312 0.0342 0.0258 -0.0064 0.0034 -0.0028
C27D 0.0454 0.027 0.0258 -0.0042 -0.0056 0.0053
C28D 0.068 0.0359 0.0227 -0.0015 0.0063 -0.0031
C29D 0.069 0.0286 0.0297 -0.0073 0.0009 -0.0086
C30D 0.0389 0.037 0.025 -0.0046 -0.0026 0.0016
C31D 0.0408 0.0409 0.032 -0.0046 -0.0016 -0.0027
C32D 0.06 0.074 0.0344 -0.0116 0.0047 -0.019
C33D 0.083 0.092 0.047 -0.01 0.016 -0.05
C34D 0.083 0.077 0.063 -0.014 0.01 -0.045
C35D 0.057 0.066 0.047 -0.0186 0.002 -0.0254
C36D 0.0406 0.0386 0.031 -0.0043 -0.0059 -0.0009
O13D 0.0278 0.0177 0.0272 0.0005 0.0026 -0.0002
O14D 0.0244 0.021 0.027 0.0019 0.0001 0.0008
Co1C 0.0372 0.02094 0.0254 -0.00468 -0.00342 0.00113
Co1G 0.0372 0.02094 0.0254 -0.00468 -0.00342 0.00113
Co2B 0.02442 0.01729 0.02325 -0.00205 0.00032 0.00144
Co2C 0.02442 0.01729 0.02325 0.00205 -0.00032 0.00144
Co2F 0.02442 0.01729 0.02325 -0.00205 0.00032 0.00144
Co2G 0.02442 0.01729 0.02325 0.00205 -0.00032 0.00144
Co4B 0.0413 0.0217 0.0277 -0.0006 0.0012 0.00637
Co4C 0.0413 0.0217 0.0277 0.0006 -0.0012 0.00637
Co4F 0.0413 0.0217 0.0277 -0.0006 0.0012 0.00637
Co4G 0.0413 0.0217 0.0277 0.0006 -0.0012 0.00637
O3C 0.0465 0.098 0.138 -0.0464 0.0095 -0.0186
O3G 0.0465 0.098 0.138 -0.0464 0.0095 -0.0186
O7C 0.0539 0.0339 0.0561 -0.0123 0.0197 -0.0185
O7G 0.0539 0.0339 0.0561 -0.0123 0.0197 -0.0185
O8C 0.0382 0.0289 0.0369 -0.0009 0.0013 -0.0147
O8G 0.0382 0.0289 0.0369 -0.0009 0.0013 -0.0147
O11B 0.0445 0.039 0.0224 0.0083 -0.0047 -0.0062
O11F 0.0445 0.039 0.0224 0.0083 -0.0047 -0.0062
O12B 0.0708 0.036 0.0298 0.0061 0.0009 -0.0133
O12F 0.0708 0.036 0.0298 0.0061 0.0009 -0.0133
loop_
_geom_bond_atom_site_label_1
_geom_bond_atom_site_label_2
_geom_bond_site_symmetry_1
_geom_bond_site_symmetry_2
Co1 O2 1_555 1_555
Co2 O1 1_555 1_555
Co3 O5 1_555 1_555
Co4 O9 1_555 1_555
O1 C1 1_555 1_555
O2 C1 1_555 1_555
O3 C2 1_555 1_555
O4 C2 1_555 1_555
C1 C3 1_555 1_555
C2 C6 1_555 1_555
C3 C4 1_555 1_555
C4 H1 1_555 1_555
C5 C4 1_555 1_555
H2 C5 1_555 1_555
C6 C5 1_555 1_555
C7 C6 1_555 1_555
C8 C7 1_555 1_555
H3 C8 1_555 1_555
C9 C8 1_555 1_555
H4 C9 1_555 1_555
C10 C9 1_555 1_555
H5 C10 1_555 1_555
C11 C10 1_555 1_555
H6 C11 1_555 1_555
C12 C3 1_555 1_555
O5 C13 1_555 1_555
O6 C13 1_555 1_555
O7 C14 1_555 1_555
O8 C14 1_555 1_555
C13 C15 1_555 1_555
C14 C18 1_555 1_555
C15 C16 1_555 1_555
C16 H7 1_555 1_555
C17 C16 1_555 1_555
H8 C17 1_555 1_555
C18 C17 1_555 1_555
C19 C18 1_555 1_555
C20 C19 1_555 1_555
H9 C20 1_555 1_555
C21 C20 1_555 1_555
H10 C21 1_555 1_555
C22 C21 1_555 1_555
H11 C22 1_555 1_555
C23 C22 1_555 1_555
H12 C23 1_555 1_555
C24 C15 1_555 1_555
O9 C25 1_555 1_555
O10 C25 1_555 1_555
O11 C26 1_555 1_555
O12 C26 1_555 1_555
C25 C27 1_555 1_555
C26 C30 1_555 1_555
C27 C28 1_555 1_555
C28 H13 1_555 1_555
C29 C28 1_555 1_555
H14 C29 1_555 1_555
C30 C29 1_555 1_555
C31 C30 1_555 1_555
C32 C31 1_555 1_555
H15 C32 1_555 1_555
C33 C32 1_555 1_555
H16 C33 1_555 1_555
C34 C33 1_555 1_555
H17 C34 1_555 1_555
C35 C34 1_555 1_555
H18 C35 1_555 1_555
C36 C27 1_555 1_555
O13 Co1 1_555 1_555
H19 O13 1_555 1_555
O14 Co2 1_555 1_555
H20 O14 1_555 1_555
N1 C37 1_555 1_555
N2 C37 1_555 1_555
C37 H21 1_555 1_555
C38 N2 1_555 1_555
H22 C38 1_555 1_555
C39 N1 1_555 1_555
H23 C39 1_555 1_555
C40 N1 1_555 1_555
H24 C40 1_555 1_555
H25 C40 1_555 1_555
H26 C40 1_555 1_555
C41 N2 1_555 1_555
H27 C41 1_555 1_555
H28 C41 1_555 1_555
C42 C41 1_555 1_555
H29 C42 1_555 1_555
H30 C42 1_555 1_555
C43 C42 1_555 1_555
H31 C43 1_555 1_555
H32 C43 1_555 1_555
H33 C43 1_555 1_555
Co1D O10 1_555 1_555
Co2D O6 1_555 1_555
Co4D O9D 1_555 1_555
O1D Co2D 1_555 1_555
O2D Co1D 1_555 1_555
O3D C2D 1_555 1_555
O4D C2D 1_555 1_555
C1D O1D 1_555 1_555
C2D C6D 1_555 1_555
C3D C1D 1_555 1_555
C4D C3D 1_555 1_555
H1D C4D 1_555 1_555
C5D C4D 1_555 1_555
H2D C5D 1_555 1_555
C6D C5D 1_555 1_555
C7D C6D 1_555 1_555
C8D C7D 1_555 1_555
H3D C8D 1_555 1_555
C9D C8D 1_555 1_555
H4D C9D 1_555 1_555
C10D C9D 1_555 1_555
H5D C10D 1_555 1_555
C11D C10D 1_555 1_555
H6D C11D 1_555 1_555
C12D C3D 1_555 1_555
O5D Co3 1_555 1_555
O6D Co2 1_555 1_555
O7D C14D 1_555 1_555
O8D C14D 1_555 1_555
C13D O5D 1_555 1_555
C14D C18D 1_555 1_555
C15D C13D 1_555 1_555
C16D C15D 1_555 1_555
H7D C16D 1_555 1_555
C17D C16D 1_555 1_555
H8D C17D 1_555 1_555
C18D C17D 1_555 1_555
C19D C18D 1_555 1_555
C20D C19D 1_555 1_555
H9D C20D 1_555 1_555
C21D C20D 1_555 1_555
H10D C21D 1_555 1_555
C22D C21D 1_555 1_555
H11D C22D 1_555 1_555
C23D C22D 1_555 1_555
H12D C23D 1_555 1_555
C24D C15D 1_555 1_555
O9D C25D 1_555 1_555
O10D Co1 1_555 1_555
O11D C26D 1_555 1_555
O12D C26D 1_555 1_555
C25D O10D 1_555 1_555
C26D C30D 1_555 1_555
C27D C25D 1_555 1_555
C28D C27D 1_555 1_555
H13D C28D 1_555 1_555
C29D C28D 1_555 1_555
H14D C29D 1_555 1_555
C30D C29D 1_555 1_555
C31D C30D 1_555 1_555
C32D C31D 1_555 1_555
H15D C32D 1_555 1_555
C33D C32D 1_555 1_555
H16D C33D 1_555 1_555
C34D C33D 1_555 1_555
H17D C34D 1_555 1_555
C35D C34D 1_555 1_555
H18D C35D 1_555 1_555
C36D C27D 1_555 1_555
O13D Co3 1_555 1_555
H19D O13D 1_555 1_555
O14D Co3 1_555 1_555
H20D O14D 1_555 1_555
Co1C O7 1_555 1_555
Co1G O7D 1_555 1_555
Co2B O11 1_555 1_555
Co2C O8 1_555 1_555
Co2F O11D 1_555 1_555
Co2G O8D 1_555 1_555
Co4B O12 1_555 1_555
Co4C O3D 1_555 1_555
Co4F O12D 1_555 1_555
Co4G O3 1_555 1_555
O3C Co4D 1_555 1_555
O3G Co4 1_555 1_555
O7C Co1 1_555 1_555
O7G Co1D 1_555 1_555
O8C Co2 1_555 1_555
O8G Co2D 1_555 1_555
O11B Co2 1_555 1_555
O11F Co2D 1_555 1_555
O12B Co4 1_555 1_555
O12F Co4D 1_555 1_555
Co2 O13 1_555 1_555
Co3 O13 1_555 1_555
Co3 O14 1_555 1_555
Co4 O14 1_555 1_555
C7 C12 1_555 1_555
C11 C12 1_555 1_555
C19 C24 1_555 1_555
C23 C24 1_555 1_555
C31 C36 1_555 1_555
C35 C36 1_555 1_555
C38 C39 1_555 1_555
Co1D O13D 1_555 1_555
Co2D O13D 1_555 1_555
Co2D O14D 1_555 1_555
Co4D O14D 1_555 1_555
O2D C1D 1_555 1_555
C7D C12D 1_555 1_555
C11D C12D 1_555 1_555
O6D C13D 1_555 1_555
C19D C24D 1_555 1_555
C23D C24D 1_555 1_555
C31D C36D 1_555 1_555
C35D C36D 1_555 1_555

#END
