
#######################################################################
#
#                 Cambridge Crystallographic Data Centre
#                                CCDC 
#
#######################################################################
#
# If this CIF has been generated from an entry in the Cambridge 
# Structural Database, then it will include bibliographic, chemical, 
# crystal, experimental, refinement or atomic coordinate data resulting 
# from the CCDC's data processing and validation procedures.
#
#######################################################################

data_ESEHIV
_chemical_formula_moiety         '(C56 H50 Cu3 N16 O16)n'
_symmetry_cell_setting           triclinic
_symmetry_space_group_name_H-M   'P 1'
_symmetry_Int_Tables_number      1
_space_group_name_Hall           'P 1'
loop_
_symmetry_equiv_pos_site_id
_symmetry_equiv_pos_as_xyz
1 x,y,z
_cell_length_a                   11.8074(11)
_cell_length_b                   12.0287(13)
_cell_length_c                   12.5815(14)
_cell_angle_alpha                77.5080(10)
_cell_angle_beta                 88.505(2)
_cell_angle_gamma                62.8230(10)
_cell_volume                     1546.56
loop_
_atom_site_label
_atom_site_type_symbol
_atom_site_fract_x
_atom_site_fract_y
_atom_site_fract_z
C1 C 0.0165(4) 0.6559(4) 0.3898(3)
C2 C -0.0279(4) 0.6984(4) 0.4862(3)
H1 H -0.0902 0.6815 0.5221
C3 C 0.0228(4) 0.7646(4) 0.5250(3)
C4 C 0.1108(4) 0.7963(4) 0.4723(3)
H2 H 0.1382 0.8472 0.4985
C5 C 0.1593(4) 0.7514(4) 0.3785(3)
C6 C 0.1129(4) 0.6814(3) 0.3356(3)
H3 H 0.1439 0.6519 0.2731
C7 C -0.0371(4) 0.5817(4) 0.3474(3)
C8 C -0.0229(4) 0.8052(4) 0.6307(3)
C9 C 0.2607(4) 0.7764(4) 0.3214(3)
C10 C 0.6211(4) 1.1001(4) 0.1759(3)
C11 C 0.6507(4) 1.1818(4) 0.2242(4)
H4 H 0.6052 1.2153 0.2808
C12 C 0.7469(4) 1.2108(4) 0.1867(3)
C13 C 0.8059(4) 1.1696(4) 0.0937(3)
H5 H 0.8642 1.1972 0.0640
C14 C 0.7811(4) 1.0914(3) 0.0458(3)
C15 C 0.6849(4) 1.0571(4) 0.0896(3)
H6 H 0.6655 1.0040 0.0581
C16 C 0.5173(4) 1.0640(4) 0.2174(3)
C17 C 0.7814(4) 1.2903(4) 0.2414(3)
C18 C 0.8468(4) 1.0515(4) -0.0505(3)
C19 C 0.2232(4) 0.1432(4) 0.6550(3)
C20 C 0.1909(4) 0.1194(4) 0.7618(3)
H7 H 0.1123 0.1220 0.7766
C21 C 0.2796(4) 0.0922(4) 0.8440(3)
C22 C 0.3992(4) 0.0887(4) 0.8246(3)
H8 H 0.4561 0.0747 0.8817
C23 C 0.4286(4) 0.1071(4) 0.7158(3)
C24 C 0.3410(4) 0.1364(4) 0.6285(3)
H9 H 0.3606 0.1507 0.5563
C25 C 0.1155(4) 0.2634(4) 0.4722(3)
H10 H 0.1638 0.3070 0.4551
C26 C -0.0165(5) 0.1863(4) 0.4593(3)
H11 H -0.0767 0.1678 0.4318
C27 C 0.0509(4) 0.1299(4) 0.5574(4)
H12 H 0.0427 0.0675 0.6104
C28 C 0.3502(4) -0.0086(4) 1.0408(4)
H13 H 0.4370 -0.0478 1.0314
C29 C 0.1409(4) 0.1012(4) 1.0030(3)
H14 H 0.0603 0.1509 0.9659
C30 C 0.1698(4) 0.0513(4) 1.1107(3)
H15 H 0.1102 0.0598 1.1622
C31 C 0.6548(4) 0.0232(4) 0.7625(3)
H16 H 0.6563 -0.0253 0.8314
C32 C 0.7123(4) 0.1120(4) 0.6184(3)
H17 H 0.7618 0.1351 0.5685
C33 C 0.5884(4) 0.1525(4) 0.6057(4)
H18 H 0.5354 0.2111 0.5448
C34 C 0.4272(4) 0.7480(4) 0.8533(3)
C35 C 0.5334(4) 0.6969(4) 0.9281(3)
H19 H 0.5257 0.6748 1.0024
C36 C 0.6526(4) 0.6790(4) 0.8903(3)
C37 C 0.6632(4) 0.7134(4) 0.7765(3)
H20 H 0.7423 0.6978 0.7505
C38 C 0.5541(4) 0.7707(4) 0.7044(3)
C39 C 0.4352(4) 0.7904(4) 0.7434(3)
H21 H 0.3620 0.8320 0.6953
C40 C 0.2036(4) 0.8000(4) 0.8223(3)
H22 H 0.2059 0.8051 0.7475
C41 C 0.1387(4) 0.8046(4) 0.9830(4)
H23 H 0.0853 0.8134 1.0395
C42 C 0.2664(4) 0.7706(4) 0.9942(3)
H24 H 0.3159 0.7537 1.0576
C43 C 0.7816(4) 0.5403(4) 1.0630(3)
H25 H 0.7282 0.5044 1.0884
C44 C 0.8591(4) 0.6579(4) 0.9591(4)
H26 H 0.8714 0.7142 0.9023
C45 C 0.9344(4) 0.5894(4) 1.0528(4)
H27 H 1.0085 0.5916 1.0727
C46 C 0.4837(4) 0.8186(4) 0.5107(3)
H28 H 0.4130 0.8038 0.5211
C47 C 0.6538(4) 0.8336(4) 0.5453(3)
H29 H 0.7224 0.8334 0.5802
C48 C 0.6243(4) 0.8625(4) 0.4333(3)
H30 H 0.6703 0.8845 0.3790
Cu1 Cu -0.03734(4) 0.39111(4) 0.25823(4)
Cu2 Cu -0.07122(4) 0.91965(4) 0.79521(4)
Cu3 Cu 0.41290(4) 0.90296(4) 0.27391(4)
N1 N 0.0206(3) 0.2771(3) 0.4067(3)
N2 N 0.1314(3) 0.1779(3) 0.5665(3)
N3 N 0.2584(3) 0.0622(3) 0.9596(3)
N4 N 0.3024(3) -0.0156(3) 1.1344(3)
N5 N 0.5496(3) 0.0977(3) 0.6922(3)
N6 N 0.7545(3) 0.0294(3) 0.7191(3)
N7 N 0.3048(3) 0.7672(3) 0.8893(3)
N8 N 0.1018(3) 0.8239(3) 0.8734(3)
N9 N 0.7586(3) 0.6259(3) 0.9659(3)
N10 N 0.8838(3) 0.5150(3) 1.1149(3)
N11 N 0.5620(3) 0.8054(3) 0.5945(3)
N12 N 0.5148(3) 0.8527(3) 0.4172(3)
O1 O 0.0306(3) 0.5006(3) 0.2949(2)
O2 O -0.1510(3) 0.6049(3) 0.3627(2)
O3 O -0.0796(3) 0.7557(3) 0.6916(2)
O4 O 0.0033(2) 0.8877(2) 0.6576(2)
O5 O 0.2896(3) 0.8538(3) 0.3516(2)
O6 O 0.3135(2) 0.7191(3) 0.2494(2)
O7 O 0.5314(3) 0.9610(3) 0.2005(2)
O8 O 0.4292(3) 1.1378(3) 0.2622(2)
O9 O 0.7072(3) 1.3592(3) 0.2960(2)
O10 O 0.8904(3) 1.2845(3) 0.2198(2)
O11 O 0.8928(3) 1.1096(3) -0.1097(2)
O12 O 0.8504(3) 0.9478(3) -0.0670(2)
O13 O 0.1642(3) 0.2940(3) 0.1876(2)
H31 H 0.1731 0.3568 0.1313
H32 H 0.2096 0.2051 0.2245
O14 O 0.5519(3) 0.7112(3) 0.2169(2)
H33 H 0.5223 0.6483 0.2406
H34 H 0.6371 0.6786 0.2491
Cu1_2 Cu 0.96266(4) 0.39111(4) 1.25823(4)
Cu1_3 Cu 0.96266(4) 1.39111(4) 0.25823(4)
Cu2_2 Cu 0.92878(4) -0.08035(4) 0.79521(4)
Cu2_3 Cu 0.92878(4) 0.91965(4) -0.20479(4)
Cu3_2 Cu 0.41290(4) -0.09704(4) 1.27391(4)
N4_2 N 0.3024(3) 0.9844(3) 0.1344(3)
N6_2 N -0.2455(3) 1.0294(3) 0.7191(3)
N10_2 N -0.1162(3) 0.5150(3) 0.1149(3)
O10_2 O -0.1096(3) 0.2845(3) 0.2198(2)
O11_2 O -0.1072(3) 1.1096(3) 0.8903(2)
O12_2 O -0.1496(3) 0.9478(3) 0.9330(2)
C49 C 0.4121(5) 0.4487(5) 0.0245(4)
C50 C 0.5237(4) 0.4489(4) -0.0047(4)
H35 H 0.5751 0.3738 -0.0319
H36 H 0.5690 0.4484 0.0578
H37 H 0.5059 0.5244 -0.0607
N13 N 0.3146(4) 0.4486(4) 0.0475(3)
C51 C 0.0190(5) 0.4293(5) 0.7669(4)
C52 C 0.0393(4) 0.4360(4) 0.6551(3)
H38 H 0.0897 0.4799 0.6339
H39 H -0.0415 0.4819 0.6124
H40 H 0.0835 0.3507 0.6431
N14 N -0.0029(4) 0.4205(4) 0.8581(4)
C53 C 0.3833(5) 0.4670(5) 0.7550(5)
C54 C 0.3965(5) 0.4758(5) 0.6430(4)
H41 H 0.4854 0.4411 0.6305
H42 H 0.3525 0.5642 0.6045
H43 H 0.3606 0.4281 0.6174
N15 N 0.3726(4) 0.4600(4) 0.8463(3)
C55 C 0.7737(5) 0.4123(5) 0.6993(4)
C56 C 0.7969(4) 0.3766(4) 0.8143(4)
H44 H 0.7821 0.3039 0.8424
H45 H 0.7404 0.4471 0.8448
H46 H 0.8839 0.3545 0.8340
N16 N 0.7493(4) 0.4412(4) 0.6009(3)
O15 O 0.3618(3) 0.3041(3) 0.3962(2)
H47 H 0.3157 0.3201 0.3386
H48 H 0.4396 0.2598 0.3855
O16 O 0.6684(3) 0.5160(3) 0.4288(3)
H49 H 0.6197 0.4824 0.4239
H50 H 0.6558 0.5448 0.4864
loop_
_geom_bond_atom_site_label_1
_geom_bond_atom_site_label_2
_geom_bond_site_symmetry_1
_geom_bond_site_symmetry_2
C1 C2 1_555 1_555
C2 H1 1_555 1_555
C3 C2 1_555 1_555
C4 C3 1_555 1_555
H2 C4 1_555 1_555
C5 C4 1_555 1_555
C6 C1 1_555 1_555
H3 C6 1_555 1_555
C7 C1 1_555 1_555
C8 C3 1_555 1_555
C9 C5 1_555 1_555
C10 C11 1_555 1_555
C11 H4 1_555 1_555
C12 C11 1_555 1_555
C13 C12 1_555 1_555
H5 C13 1_555 1_555
C14 C13 1_555 1_555
C15 C10 1_555 1_555
H6 C15 1_555 1_555
C16 C10 1_555 1_555
C17 C12 1_555 1_555
C18 C14 1_555 1_555
C19 C20 1_555 1_555
C20 H7 1_555 1_555
C21 C20 1_555 1_555
C22 C21 1_555 1_555
H8 C22 1_555 1_555
C23 C22 1_555 1_555
C24 C19 1_555 1_555
H9 C24 1_555 1_555
C25 H10 1_555 1_555
C26 H11 1_555 1_555
C27 C26 1_555 1_555
H12 C27 1_555 1_555
C28 H13 1_555 1_555
C29 H14 1_555 1_555
C30 C29 1_555 1_555
H15 C30 1_555 1_555
C31 H16 1_555 1_555
C32 H17 1_555 1_555
C33 C32 1_555 1_555
H18 C33 1_555 1_555
C34 C35 1_555 1_555
C35 H19 1_555 1_555
C36 C35 1_555 1_555
C37 C36 1_555 1_555
H20 C37 1_555 1_555
C38 C37 1_555 1_555
C39 C34 1_555 1_555
H21 C39 1_555 1_555
C40 H22 1_555 1_555
C41 H23 1_555 1_555
C42 C41 1_555 1_555
H24 C42 1_555 1_555
C43 H25 1_555 1_555
C44 H26 1_555 1_555
C45 C44 1_555 1_555
H27 C45 1_555 1_555
C46 H28 1_555 1_555
C47 H29 1_555 1_555
C48 C47 1_555 1_555
H30 C48 1_555 1_555
Cu1 N1 1_555 1_555
Cu2 N8 1_555 1_555
Cu3 N12 1_555 1_555
N1 C25 1_555 1_555
N2 C19 1_555 1_555
N3 C21 1_555 1_555
N4 C28 1_555 1_555
N5 C23 1_555 1_555
N6 C31 1_555 1_555
N7 C34 1_555 1_555
N8 C40 1_555 1_555
N9 C36 1_555 1_555
N10 C43 1_555 1_555
N11 C38 1_555 1_555
N12 C46 1_555 1_555
O1 C7 1_555 1_555
O2 C7 1_555 1_555
O3 C8 1_555 1_555
O4 C8 1_555 1_555
O5 C9 1_555 1_555
O6 C9 1_555 1_555
O7 C16 1_555 1_555
O8 C16 1_555 1_555
O9 C17 1_555 1_555
O10 C17 1_555 1_555
O11 C18 1_555 1_555
O12 C18 1_555 1_555
O13 Cu1 1_555 1_555
H31 O13 1_555 1_555
H32 O13 1_555 1_555
O14 Cu3 1_555 1_555
H33 O14 1_555 1_555
H34 O14 1_555 1_555
C49 C50 1_555 1_555
C50 H35 1_555 1_555
H36 C50 1_555 1_555
H37 C50 1_555 1_555
N13 C49 1_555 1_555
C51 C52 1_555 1_555
C52 H38 1_555 1_555
H39 C52 1_555 1_555
H40 C52 1_555 1_555
N14 C51 1_555 1_555
C53 C54 1_555 1_555
C54 H41 1_555 1_555
H42 C54 1_555 1_555
H43 C54 1_555 1_555
N15 C53 1_555 1_555
C55 C56 1_555 1_555
C56 H44 1_555 1_555
H45 C56 1_555 1_555
H46 C56 1_555 1_555
N16 C55 1_555 1_555
O15 H47 1_555 1_555
H48 O15 1_555 1_555
O16 H49 1_555 1_555
H50 O16 1_555 1_555
Cu1_2 N10 1_555 1_555
Cu1_3 O10 1_555 1_555
Cu2_2 N6 1_555 1_555
Cu2_3 O11 1_555 1_555
Cu3_2 N4 1_555 1_555
N4_2 Cu3 1_555 1_555
N6_2 Cu2 1_555 1_555
N10_2 Cu1 1_555 1_555
O10_2 Cu1 1_555 1_555
O11_2 Cu2 1_555 1_555
O12_2 Cu2 1_555 1_555
C5 C6 1_555 1_555
C14 C15 1_555 1_555
C23 C24 1_555 1_555
C25 N2 1_555 1_555
C26 N1 1_555 1_555
C27 N2 1_555 1_555
C28 N3 1_555 1_555
C29 N3 1_555 1_555
C30 N4 1_555 1_555
C31 N5 1_555 1_555
C32 N6 1_555 1_555
C33 N5 1_555 1_555
C38 C39 1_555 1_555
C40 N7 1_555 1_555
C41 N8 1_555 1_555
C42 N7 1_555 1_555
C43 N9 1_555 1_555
C44 N9 1_555 1_555
C45 N10 1_555 1_555
C46 N11 1_555 1_555
C47 N11 1_555 1_555
C48 N12 1_555 1_555
Cu1 O1 1_555 1_555
Cu2 O3 1_555 1_555
Cu2 O4 1_555 1_555
Cu3 O5 1_555 1_555
Cu3 O7 1_555 1_555
O12 Cu2_3 1_555 1_555

#END
