
#######################################################################
#
#                 Cambridge Crystallographic Data Centre
#                                CCDC 
#
#######################################################################
#
# If this CIF has been generated from an entry in the Cambridge 
# Structural Database, then it will include bibliographic, chemical, 
# crystal, experimental, refinement or atomic coordinate data resulting 
# from the CCDC's data processing and validation procedures.
#
#######################################################################

data_GUNZIA
_chemical_formula_moiety         '(C47 H36 Cd2 N4 O8)n'
_symmetry_cell_setting           tetragonal
_symmetry_space_group_name_H-M   'I -4 2 d'
_symmetry_Int_Tables_number      122
_space_group_name_Hall           'I -4 2bw'
loop_
_symmetry_equiv_pos_site_id
_symmetry_equiv_pos_as_xyz
1 x,y,z
2 y,-x,-z
3 -x,-y,z
4 -y,x,-z
5 x,1/2-y,1/4-z
6 -x,1/2+y,1/4-z
7 -y,1/2-x,1/4+z
8 y,1/2+x,1/4+z
9 1/2+x,1/2+y,1/2+z
10 1/2+y,1/2-x,1/2-z
11 1/2-x,1/2-y,1/2+z
12 1/2-y,1/2+x,1/2-z
13 1/2+x,-y,3/4-z
14 1/2-x,y,3/4-z
15 1/2-y,-x,3/4+z
16 1/2+y,x,3/4+z
_cell_length_a                   22.0223(12)
_cell_length_b                   22.0223(12)
_cell_length_c                   21.628(2)
_cell_angle_alpha                90
_cell_angle_beta                 90
_cell_angle_gamma                90
_cell_volume                     10489.2
loop_
_atom_site_label
_atom_site_type_symbol
_atom_site_fract_x
_atom_site_fract_y
_atom_site_fract_z
_atom_site_U_iso_or_equiv
_atom_site_thermal_displace_type
Cd1 Cd 0.20639(2) 0.81047(2) 1.07110(2) 0.0328 Uani
O1 O 0.2119(2) 0.70818(17) 1.07630(19) 0.0437 Uani
N1 N 0.1888(2) 0.77114(19) 0.9715(2) 0.0341 Uani
C1 C 0.2042(2) 0.6775(2) 1.0252(3) 0.0360 Uani
O2 O 0.25437(19) 0.9090(2) 1.0676(2) 0.0547 Uani
C2 C 0.2087(3) 0.6146(2) 1.0210(3) 0.0480 Uani
H1 H 0.2187 0.5920 1.0564 0.0570 Uiso
O3 O 0.3060(2) 0.8277(2) 1.0400(3) 0.0613 Uani
C3 C 0.1985(3) 0.5840(3) 0.9649(4) 0.0550 Uani
H2 H 0.2015 0.5414 0.9639 0.0660 Uiso
C4 C 0.1848(3) 0.6132(3) 0.9138(3) 0.0540 Uani
H3 H 0.1777 0.5912 0.8773 0.0650 Uiso
C5 C 0.1806(3) 0.6775(3) 0.9130(3) 0.0440 Uani
C6 C 0.1911(2) 0.7093(2) 0.9689(3) 0.0357 Uani
C7 C 0.1698(3) 0.7121(3) 0.8598(3) 0.0543 Uani
H4 H 0.1625 0.6924 0.8220 0.0650 Uiso
C8 C 0.1695(3) 0.7748(3) 0.8622(3) 0.0490 Uani
H5 H 0.1634 0.7978 0.8261 0.0590 Uiso
C9 C 0.1784(2) 0.8035(2) 0.9191(3) 0.0373 Uani
C10 C 0.1789(3) 0.8689(2) 0.9276(3) 0.0427 Uani
H6 H 0.1919 0.8828 0.9665 0.0510 Uiso
C11 C 0.1632(4) 0.9114(3) 0.8871(3) 0.0533 Uani
H7 H 0.1493 0.8984 0.8482 0.0640 Uiso
C12 C 0.1657(3) 0.9764(3) 0.8980(3) 0.0467 Uani
C13 C 0.1396(5) 1.0167(3) 0.8579(3) 0.0750 Uani
H8 H 0.1208 1.0023 0.8217 0.0900 Uiso
C14 C 0.1406(4) 1.0790(3) 0.8700(4) 0.0703 Uani
H9 H 0.1202 1.1052 0.8427 0.0840 Uiso
C15 C 0.1952(4) 1.0636(3) 0.9560(3) 0.0663 Uani
H10 H 0.2173 1.0792 0.9897 0.0790 Uiso
C16 C 0.1928(5) 1.0019(3) 0.9498(3) 0.0710 Uani
H11 H 0.2095 0.9767 0.9805 0.0850 Uiso
C17 C 0.3033(3) 0.8832(3) 1.0509(3) 0.0447 Uani
C18 C 0.3608(3) 0.9204(3) 1.0446(3) 0.0457 Uani
C19 C 0.4125(3) 0.8916(3) 1.0225(3) 0.0497 Uani
H12 H 0.4105 0.8510 1.0095 0.0600 Uiso
C20 C 0.4672(3) 0.9233(3) 1.0195(4) 0.0550 Uani
H13 H 0.5022 0.9038 1.0045 0.0660 Uiso
C21 C 0.4704(3) 0.9842(3) 1.0388(3) 0.0443 Uani
C22 C 0.4178(3) 1.0128(3) 1.0570(3) 0.0547 Uani
H14 H 0.4188 1.0542 1.0672 0.0650 Uiso
C23 C 0.3626(3) 0.9810(3) 1.0605(3) 0.0497 Uani
H15 H 0.3271 1.0010 1.0736 0.0600 Uiso
N2 N 0.1694(2) 1.1029(2) 0.9190(2) 0.0447 Uani
O2B O 0.74563(19) 1.0910(2) 1.0676(2) 0.0547 Uani
O3B O 0.6940(2) 1.1723(2) 1.0400(3) 0.0613 Uani
C17B C 0.6967(3) 1.1168(3) 1.0509(3) 0.0447 Uani
C18B C 0.6392(3) 1.0796(3) 1.0446(3) 0.0457 Uani
C19B C 0.5875(3) 1.1084(3) 1.0225(3) 0.0497 Uani
H12B H 0.5895 1.1490 1.0095 0.0600 Uiso
C20B C 0.5328(3) 1.0767(3) 1.0195(4) 0.0550 Uani
H13B H 0.4978 1.0962 1.0045 0.0660 Uiso
C21B C 0.5296(3) 1.0158(3) 1.0388(3) 0.0443 Uani
C22B C 0.5822(3) 0.9872(3) 1.0570(3) 0.0547 Uani
H14B H 0.5812 0.9458 1.0672 0.0650 Uiso
C23B C 0.6374(3) 1.0190(3) 1.0605(3) 0.0497 Uani
H15B H 0.6729 0.9990 1.0736 0.0600 Uiso
Cd1A Cd -0.18953(2) 0.79361(2) 0.92890(2) 0.0328 Uani
O1A O -0.29182(17) 0.7881(2) 0.92370(19) 0.0437 Uani
N1A N -0.22886(19) 0.8112(2) 1.0285(2) 0.0341 Uani
C1A C -0.3225(2) 0.7958(2) 0.9748(3) 0.0360 Uani
C2A C -0.3854(2) 0.7913(3) 0.9790(3) 0.0480 Uani
H1A H -0.4080 0.7813 0.9436 0.0570 Uiso
C3A C -0.4160(3) 0.8015(3) 1.0351(4) 0.0550 Uani
H2A H -0.4586 0.7985 1.0361 0.0660 Uiso
C4A C -0.3868(3) 0.8152(3) 1.0862(3) 0.0540 Uani
H3A H -0.4088 0.8223 1.1227 0.0650 Uiso
C5A C -0.3225(3) 0.8194(3) 1.0870(3) 0.0440 Uani
C6A C -0.2907(2) 0.8089(2) 1.0311(3) 0.0357 Uani
C7A C -0.2879(3) 0.8302(3) 1.1402(3) 0.0543 Uani
H4A H -0.3076 0.8375 1.1780 0.0650 Uiso
C8A C -0.2252(3) 0.8305(3) 1.1378(3) 0.0490 Uani
H5A H -0.2022 0.8366 1.1739 0.0590 Uiso
C9A C -0.1965(2) 0.8216(2) 1.0809(3) 0.0373 Uani
C10A C -0.1311(2) 0.8211(3) 1.0724(3) 0.0427 Uani
H6A H -0.1172 0.8081 1.0335 0.0510 Uiso
C11A C -0.0886(3) 0.8368(4) 1.1129(3) 0.0533 Uani
H7A H -0.1016 0.8507 1.1518 0.0640 Uiso
C12A C -0.0236(3) 0.8343(3) 1.1020(3) 0.0467 Uani
C13A C 0.0167(3) 0.8604(5) 1.1421(3) 0.0750 Uani
H8A H 0.0023 0.8792 1.1783 0.0900 Uiso
C14A C 0.0790(3) 0.8594(4) 1.1300(4) 0.0703 Uani
H9A H 0.1052 0.8798 1.1573 0.0840 Uiso
C15A C 0.0636(3) 0.8048(4) 1.0440(3) 0.0663 Uani
H10A H 0.0792 0.7827 1.0103 0.0790 Uiso
C16A C 0.0019(3) 0.8072(5) 1.0502(3) 0.0710 Uani
H11A H -0.0233 0.7905 1.0195 0.0850 Uiso
N2A N 0.1029(2) 0.8306(2) 1.0810(2) 0.0447 Uani
Cd1B Cd 0.79361(2) 1.18953(2) 1.07110(2) 0.0328 Uani
Cd1C Cd 0.18953(2) 1.20639(2) 0.92890(2) 0.0328 Uani
Cd1D Cd 0.20639(2) 0.68953(2) 1.17890(2) 0.0328 Uani
Cd1N Cd -0.31047(2) 0.79361(2) 0.82110(2) 0.0328 Uani
O1D O 0.2119(2) 0.79182(17) 1.17370(19) 0.0437 Uani
O1N O -0.20818(17) 0.7881(2) 0.82630(19) 0.0437 Uani
O2A O -0.0910(2) 0.74563(19) 0.9324(2) 0.0547 Uani
O3A O -0.1723(2) 0.6940(2) 0.9600(3) 0.0613 Uani
N2B N -0.1694(2) 0.8971(2) 0.9190(2) 0.0447 Uani
O4 O 0.1905(8) 0.0155(8) 0.1165(8) 0.2210 Uiso
O5 O 0.0501(16) 0.6991(14) 0.7444(13) 0.3920 Uiso
C24 C 0.090(2) 0.651(2) 0.7108(19) 0.3600 Uiso
loop_
_atom_site_aniso_label
_atom_site_aniso_U_11
_atom_site_aniso_U_22
_atom_site_aniso_U_33
_atom_site_aniso_U_23
_atom_site_aniso_U_13
_atom_site_aniso_U_12
Cd1 0.03013(18) 0.02955(18) 0.03871(19) 0.00400(13) -0.00149(14) -0.00502(12)
O1 0.058(2) 0.0317(16) 0.0414(19) 0.0055(15) 0.0064(19) 0.0016(16)
N1 0.036(2) 0.0293(18) 0.037(2) -0.0006(16) 0.0015(18) -0.0007(16)
C1 0.031(2) 0.031(2) 0.046(3) 0.0031(19) 0.008(2) -0.0008(19)
O2 0.040(2) 0.056(2) 0.068(3) 0.010(2) -0.003(2) -0.0165(18)
C2 0.050(3) 0.033(2) 0.061(3) 0.003(2) 0.019(3) 0.003(2)
O3 0.043(2) 0.057(3) 0.084(3) -0.003(2) 0.003(2) -0.022(2)
C3 0.055(4) 0.030(2) 0.080(4) -0.005(3) 0.021(3) -0.002(3)
C4 0.053(3) 0.038(3) 0.071(4) -0.018(3) 0.007(3) -0.006(3)
C5 0.042(3) 0.038(3) 0.052(3) -0.009(2) 0.006(2) -0.005(2)
C6 0.029(2) 0.032(2) 0.046(3) -0.003(2) 0.0097(19) -0.0031(19)
C7 0.063(4) 0.048(3) 0.052(4) -0.016(3) -0.010(3) -0.002(3)
C8 0.061(4) 0.045(3) 0.041(3) 0.001(2) -0.008(3) 0.000(3)
C9 0.038(2) 0.036(3) 0.038(3) 0.003(2) -0.0008(19) -0.003(2)
C10 0.054(3) 0.037(3) 0.037(3) -0.002(2) -0.004(3) -0.004(2)
C11 0.077(4) 0.034(3) 0.049(3) -0.001(2) -0.016(3) -0.005(3)
C12 0.053(3) 0.037(3) 0.050(3) 0.002(2) -0.010(3) 0.001(2)
C13 0.128(8) 0.044(4) 0.053(4) 0.010(3) -0.035(5) -0.019(4)
C14 0.114(7) 0.042(3) 0.055(4) 0.014(3) -0.032(4) 0.000(4)
C15 0.107(6) 0.035(3) 0.057(4) -0.001(3) -0.035(4) -0.004(3)
C16 0.118(7) 0.037(3) 0.058(4) 0.004(3) -0.042(4) 0.009(4)
C17 0.038(3) 0.048(3) 0.048(3) 0.010(2) -0.009(2) -0.019(2)
C18 0.039(3) 0.054(3) 0.044(3) 0.009(3) -0.003(2) -0.018(2)
C19 0.047(3) 0.041(3) 0.061(4) -0.001(3) 0.001(3) -0.014(2)
C20 0.039(3) 0.045(3) 0.081(5) -0.005(3) 0.005(3) -0.009(2)
C21 0.035(3) 0.042(3) 0.056(3) 0.001(2) 0.000(2) -0.017(2)
C22 0.050(3) 0.047(3) 0.067(4) -0.010(3) 0.006(3) -0.020(3)
C23 0.036(3) 0.054(3) 0.059(4) 0.001(3) 0.000(3) -0.011(2)
N2 0.051(3) 0.033(2) 0.050(3) 0.005(2) -0.003(2) -0.0038(19)
O2B 0.04 0.056 0.068 -0.01 0.003 -0.0165
O3B 0.043 0.057 0.084 0.003 -0.003 -0.022
C17B 0.038 0.048 0.048 -0.01 0.009 -0.019
C18B 0.039 0.054 0.044 -0.009 0.003 -0.018
C19B 0.047 0.041 0.061 0.001 -0.001 -0.014
C20B 0.039 0.045 0.081 0.005 -0.005 -0.009
C21B 0.035 0.042 0.056 -0.001 0 -0.017
C22B 0.05 0.047 0.067 0.01 -0.006 -0.02
C23B 0.036 0.054 0.059 -0.001 0 -0.011
Cd1A 0.02955 0.03013 0.03871 -0.00149 -0.004 0.00502
O1A 0.0317 0.058 0.0414 0.0064 -0.0055 -0.0016
N1A 0.0293 0.036 0.037 0.0015 0.0006 0.0007
C1A 0.031 0.031 0.046 0.008 -0.0031 0.0008
C2A 0.033 0.05 0.061 0.019 -0.003 -0.003
C3A 0.03 0.055 0.08 0.021 0.005 0.002
C4A 0.038 0.053 0.071 0.007 0.018 0.006
C5A 0.038 0.042 0.052 0.006 0.009 0.005
C6A 0.032 0.029 0.046 0.0097 0.003 0.0031
C7A 0.048 0.063 0.052 -0.01 0.016 0.002
C8A 0.045 0.061 0.041 -0.008 -0.001 0
C9A 0.036 0.038 0.038 -0.0008 -0.003 0.003
C10A 0.037 0.054 0.037 -0.004 0.002 0.004
C11A 0.034 0.077 0.049 -0.016 0.001 0.005
C12A 0.037 0.053 0.05 -0.01 -0.002 -0.001
C13A 0.044 0.128 0.053 -0.035 -0.01 0.019
C14A 0.042 0.114 0.055 -0.032 -0.014 0
C15A 0.035 0.107 0.057 -0.035 0.001 0.004
C16A 0.037 0.118 0.058 -0.042 -0.004 -0.009
N2A 0.033 0.051 0.05 -0.003 -0.005 0.0038
Cd1B 0.03013 0.02955 0.03871 -0.004 0.00149 -0.00502
Cd1C 0.02955 0.03013 0.03871 0.00149 0.004 0.00502
Cd1D 0.03013 0.02955 0.03871 0.004 0.00149 0.00502
Cd1N 0.02955 0.03013 0.03871 0.00149 -0.004 -0.00502
O1D 0.058 0.0317 0.0414 0.0055 -0.0064 -0.0016
O1N 0.0317 0.058 0.0414 -0.0064 -0.0055 0.0016
O2A 0.056 0.04 0.068 -0.003 -0.01 0.0165
O3A 0.057 0.043 0.084 0.003 0.003 0.022
N2B 0.051 0.033 0.05 -0.005 0.003 -0.0038
loop_
_geom_bond_atom_site_label_1
_geom_bond_atom_site_label_2
_geom_bond_site_symmetry_1
_geom_bond_site_symmetry_2
Cd1 O1 1_555 1_555
O1 C1 1_555 1_555
N1 Cd1 1_555 1_555
C1 C2 1_555 1_555
O2 Cd1 1_555 1_555
C2 H1 1_555 1_555
O3 Cd1 1_555 1_555
C3 C2 1_555 1_555
H2 C3 1_555 1_555
C4 C3 1_555 1_555
H3 C4 1_555 1_555
C5 C4 1_555 1_555
C6 N1 1_555 1_555
C7 C5 1_555 1_555
H4 C7 1_555 1_555
C8 C7 1_555 1_555
H5 C8 1_555 1_555
C9 N1 1_555 1_555
C10 C9 1_555 1_555
H6 C10 1_555 1_555
C11 C10 1_555 1_555
H7 C11 1_555 1_555
C12 C11 1_555 1_555
C13 C12 1_555 1_555
H8 C13 1_555 1_555
C14 C13 1_555 1_555
H9 C14 1_555 1_555
C15 H10 1_555 1_555
C16 C12 1_555 1_555
H11 C16 1_555 1_555
C17 O2 1_555 1_555
C18 C17 1_555 1_555
C19 C18 1_555 1_555
H12 C19 1_555 1_555
C20 C19 1_555 1_555
H13 C20 1_555 1_555
C21 C20 1_555 1_555
C22 C21 1_555 1_555
H14 C22 1_555 1_555
C23 C18 1_555 1_555
H15 C23 1_555 1_555
N2 C14 1_555 1_555
O5 C24 1_555 1_555
O2B C17B 1_555 1_555
O3B C17B 1_555 1_555
C17B C18B 1_555 1_555
C18B C19B 1_555 1_555
C19B H12B 1_555 1_555
C20B C19B 1_555 1_555
H13B C20B 1_555 1_555
C21B C21 1_555 1_555
C22B C21B 1_555 1_555
H14B C22B 1_555 1_555
C23B C18B 1_555 1_555
H15B C23B 1_555 1_555
Cd1A O1A 1_555 1_555
O1A C1A 1_555 1_555
N1A Cd1A 1_555 1_555
C1A C2A 1_555 1_555
C2A H1A 1_555 1_555
C3A C2A 1_555 1_555
H2A C3A 1_555 1_555
C4A C3A 1_555 1_555
H3A C4A 1_555 1_555
C5A C4A 1_555 1_555
C6A N1A 1_555 1_555
C7A C5A 1_555 1_555
H4A C7A 1_555 1_555
C8A C7A 1_555 1_555
H5A C8A 1_555 1_555
C9A N1A 1_555 1_555
C10A C9A 1_555 1_555
H6A C10A 1_555 1_555
C11A C10A 1_555 1_555
H7A C11A 1_555 1_555
C12A C11A 1_555 1_555
C13A C12A 1_555 1_555
H8A C13A 1_555 1_555
C14A C13A 1_555 1_555
H9A C14A 1_555 1_555
C15A H10A 1_555 1_555
C16A C12A 1_555 1_555
H11A C16A 1_555 1_555
N2A Cd1 1_555 1_555
Cd1B O2B 1_555 1_555
Cd1C N2 1_555 1_555
Cd1D O1 1_555 1_555
Cd1N O1A 1_555 1_555
O1D Cd1 1_555 1_555
O1N Cd1A 1_555 1_555
O2A Cd1A 1_555 1_555
O3A Cd1A 1_555 1_555
N2B Cd1A 1_555 1_555
C1 C6 1_555 1_555
O3 C17 1_555 1_555
C5 C6 1_555 1_555
C8 C9 1_555 1_555
C15 C16 1_555 1_555
C15 N2 1_555 1_555
C22 C23 1_555 1_555
O3B Cd1B 1_555 1_555
C20B C21B 1_555 1_555
C22B C23B 1_555 1_555
C1A C6A 1_555 1_555
C5A C6A 1_555 1_555
C8A C9A 1_555 1_555
C14A N2A 1_555 1_555
C15A C16A 1_555 1_555
C15A N2A 1_555 1_555
Cd1D O1D 1_555 1_555
Cd1N O1N 1_555 1_555

#END
