
#######################################################################
#
#                 Cambridge Crystallographic Data Centre
#                                CCDC 
#
#######################################################################
#
# If this CIF has been generated from an entry in the Cambridge 
# Structural Database, then it will include bibliographic, chemical, 
# crystal, experimental, refinement or atomic coordinate data resulting 
# from the CCDC's data processing and validation procedures.
#
#######################################################################

data_EXENAX
_chemical_formula_moiety         '(C10 H8 Ag2 F6 I2 N6 O6 S2)n'
_symmetry_cell_setting           monoclinic
_symmetry_space_group_name_H-M   'P 21/c'
_symmetry_Int_Tables_number      14
_space_group_name_Hall           '-P 2ybc'
loop_
_symmetry_equiv_pos_site_id
_symmetry_equiv_pos_as_xyz
1 x,y,z
2 -x,1/2+y,1/2-z
3 -x,-y,-z
4 x,1/2-y,1/2+z
_cell_length_a                   7.7334(12)
_cell_length_b                   25.833(2)
_cell_length_c                   12.0623(13)
_cell_angle_alpha                90
_cell_angle_beta                 106.854(12)
_cell_angle_gamma                90
_cell_volume                     2306.26
loop_
_atom_site_label
_atom_site_type_symbol
_atom_site_fract_x
_atom_site_fract_y
_atom_site_fract_z
_atom_site_U_iso_or_equiv
_atom_site_thermal_displace_type
I1 I 0.12933(5) 0.431388(13) 0.37316(3) 0.0369 Uani
I2 I 0.37997(5) 0.177002(13) 0.13893(3) 0.0384 Uani
Ag1 Ag 0.49394(7) 0.391780(17) 0.32876(4) 0.0483 Uani
Ag2 Ag -0.13537(6) 0.646946(16) 0.20889(4) 0.0432 Uani
S1 S 0.50736(18) 0.53834(5) 0.21678(10) 0.0316 Uani
S2 S 0.07867(17) 0.78543(5) 0.23450(11) 0.0329 Uani
O1 O 0.4880(6) 0.56479(16) 0.3167(3) 0.0496 Uani
O2 O 0.6518(6) 0.5569(2) 0.1760(4) 0.0552 Uani
O3 O 0.4990(7) 0.48291(15) 0.2238(4) 0.0586 Uani
O4 O 0.0215(6) 0.73663(15) 0.2689(4) 0.0520 Uani
O5 O 0.2272(6) 0.78271(19) 0.1873(4) 0.0532 Uani
O6 O -0.0685(6) 0.81784(15) 0.1730(4) 0.0494 Uani
N1 N 0.2643(5) 0.32639(15) -0.0252(3) 0.0275 Uani
N2 N 0.3074(7) 0.40927(16) 0.0466(4) 0.0408 Uani
H1 H 0.3381 0.4309 0.1032 0.0490 Uiso
H2 H 0.2711 0.4204 -0.0235 0.0490 Uiso
N3 N 0.3734(5) 0.34207(16) 0.1780(3) 0.0269 Uani
N4 N 0.0613(6) 0.59685(16) 0.3405(3) 0.0283 Uani
N5 N 0.1894(7) 0.66485(17) 0.4609(4) 0.0370 Uani
H3 H 0.2646 0.6767 0.5229 0.0450 Uiso
H4 H 0.1199 0.6857 0.4125 0.0450 Uiso
N6 N 0.2922(6) 0.58244(16) 0.5183(3) 0.0280 Uani
C1 C 0.3813(7) 0.29146(19) 0.1965(4) 0.0290 Uani
H5 H 0.4175 0.2794 0.2724 0.0350 Uiso
C2 C 0.3376(7) 0.25609(18) 0.1075(4) 0.0295 Uani
C3 C 0.2784(6) 0.27563(18) -0.0041(4) 0.0289 Uani
H6 H 0.2476 0.2527 -0.0661 0.0350 Uiso
C4 C 0.3161(6) 0.35900(18) 0.0674(4) 0.0263 Uani
C5 C 0.1561(7) 0.51083(19) 0.4020(4) 0.0294 Uani
C6 C 0.2775(7) 0.53167(19) 0.4987(4) 0.0307 Uani
H7 H 0.3521 0.5094 0.5523 0.0370 Uiso
C7 C 0.1804(6) 0.61410(18) 0.4398(4) 0.0259 Uani
C8 C 0.0502(7) 0.54580(19) 0.3236(4) 0.0300 Uani
H8 H -0.0318 0.5331 0.2567 0.0360 Uiso
C9 C 0.3104(9) 0.5552(3) 0.1000(5) 0.0540 Uani
C10 C 0.1716(7) 0.8191(2) 0.3714(5) 0.0405 Uani
F1 F 0.2865(11) 0.6047(2) 0.0934(5) 0.1391 Uani
F2 F 0.1632(6) 0.5334(3) 0.1156(4) 0.1189 Uani
F3 F 0.3196(6) 0.53813(18) -0.0005(3) 0.0647 Uani
F4 F 0.2412(7) 0.86386(17) 0.3541(4) 0.0791 Uani
F5 F 0.0488(5) 0.8274(2) 0.4250(4) 0.0796 Uani
F6 F 0.3019(5) 0.7919(2) 0.4418(3) 0.0685 Uani
I2A I -0.37997(5) 0.677002(13) 0.36107(3) 0.0384 Uani
Ag1B Ag 0.50606(7) 0.608220(17) 0.67124(4) 0.0483 Uani
Ag2A Ag 0.13537(6) 0.146946(16) 0.29111(4) 0.0432 Uani
Ag2B Ag 0.13537(6) 0.353054(16) -0.20889(4) 0.0432 Uani
N1B N -0.2643(5) 0.67361(15) 0.0252(3) 0.0275 Uani
N6B N 0.7078(6) 0.41756(16) 0.4817(3) 0.0280 Uani
loop_
_atom_site_aniso_label
_atom_site_aniso_U_11
_atom_site_aniso_U_22
_atom_site_aniso_U_33
_atom_site_aniso_U_23
_atom_site_aniso_U_13
_atom_site_aniso_U_12
I1 0.0415(2) 0.02011(18) 0.0498(2) -0.00336(13) 0.01428(16) -0.00059(13)
I2 0.0488(2) 0.02032(18) 0.0480(2) 0.00547(14) 0.01701(17) 0.00243(14)
Ag1 0.0682(3) 0.0355(2) 0.0281(2) -0.00356(17) -0.0065(2) -0.0119(2)
Ag2 0.0569(3) 0.0294(2) 0.0308(2) 0.00492(16) -0.00682(18) -0.00017(18)
S1 0.0430(7) 0.0219(6) 0.0258(6) 0.0025(5) 0.0033(5) -0.0058(5)
S2 0.0372(7) 0.0242(6) 0.0326(6) 0.0002(5) 0.0026(5) -0.0034(5)
O1 0.073(3) 0.042(2) 0.033(2) -0.0061(17) 0.014(2) -0.007(2)
O2 0.050(2) 0.070(3) 0.045(2) 0.007(2) 0.013(2) -0.012(2)
O3 0.101(4) 0.023(2) 0.039(2) 0.0037(17) 0.000(2) -0.009(2)
O4 0.071(3) 0.029(2) 0.043(2) 0.0101(17) -0.004(2) -0.0141(19)
O5 0.048(2) 0.071(3) 0.041(2) -0.004(2) 0.0134(18) 0.000(2)
O6 0.048(2) 0.031(2) 0.056(3) 0.0036(18) -0.006(2) 0.0001(18)
N1 0.032(2) 0.022(2) 0.026(2) -0.0023(16) 0.0043(16) -0.0034(16)
N2 0.069(3) 0.019(2) 0.028(2) 0.0002(17) 0.004(2) -0.005(2)
N3 0.030(2) 0.024(2) 0.026(2) -0.0002(16) 0.0070(16) -0.0019(16)
N4 0.033(2) 0.024(2) 0.0229(19) -0.0001(16) 0.0001(16) 0.0028(17)
N5 0.051(3) 0.021(2) 0.032(2) -0.0020(17) 0.001(2) 0.0023(19)
N6 0.034(2) 0.026(2) 0.0201(19) -0.0018(16) 0.0018(16) -0.0001(17)
C1 0.033(2) 0.025(2) 0.029(2) 0.003(2) 0.009(2) -0.003(2)
C2 0.033(2) 0.019(2) 0.034(3) 0.0012(19) 0.006(2) -0.0017(19)
C3 0.030(2) 0.022(2) 0.030(2) -0.0079(19) 0.0015(19) -0.0065(19)
C4 0.025(2) 0.025(2) 0.026(2) 0.0004(18) 0.0029(18) -0.0004(19)
C5 0.035(3) 0.023(2) 0.031(2) 0.001(2) 0.011(2) 0.003(2)
C6 0.036(3) 0.027(3) 0.026(2) 0.005(2) 0.004(2) 0.006(2)
C7 0.029(2) 0.023(2) 0.027(2) -0.0037(18) 0.010(2) -0.0016(19)
C8 0.032(2) 0.027(2) 0.027(2) -0.003(2) 0.002(2) 0.000(2)
C9 0.051(4) 0.071(5) 0.034(3) 0.006(3) 0.003(3) 0.009(3)
C10 0.024(2) 0.051(4) 0.044(3) -0.015(3) 0.006(2) -0.007(2)
F1 0.216(8) 0.085(4) 0.074(3) 0.003(3) -0.025(4) 0.097(5)
F2 0.049(3) 0.241(8) 0.064(3) 0.004(4) 0.012(2) -0.007(4)
F3 0.068(2) 0.090(3) 0.0291(18) -0.0020(18) 0.0032(16) 0.003(2)
F4 0.090(3) 0.060(3) 0.087(3) -0.031(2) 0.025(3) -0.038(2)
F5 0.041(2) 0.126(4) 0.078(3) -0.055(3) 0.027(2) -0.018(2)
F6 0.050(2) 0.102(3) 0.043(2) -0.010(2) -0.0032(17) 0.011(2)
I2A 0.0488 0.02032 0.048 -0.00547 0.01701 -0.00243
Ag1B 0.0682 0.0355 0.0281 -0.00356 -0.0065 -0.0119
Ag2A 0.0569 0.0294 0.0308 -0.00492 -0.00682 0.00017
Ag2B 0.0569 0.0294 0.0308 0.00492 -0.00682 -0.00017
N1B 0.032 0.022 0.026 -0.0023 0.0043 -0.0034
N6B 0.034 0.026 0.0201 -0.0018 0.0018 -0.0001
loop_
_geom_bond_atom_site_label_1
_geom_bond_atom_site_label_2
_geom_bond_site_symmetry_1
_geom_bond_site_symmetry_2
I1 Ag1 1_555 1_555
I2 C2 1_555 1_555
Ag1 O3 1_555 1_555
Ag2 O4 1_555 1_555
S1 O1 1_555 1_555
S2 O4 1_555 1_555
O2 S1 1_555 1_555
O3 S1 1_555 1_555
O5 S2 1_555 1_555
O6 S2 1_555 1_555
N1 C3 1_555 1_555
N2 H1 1_555 1_555
H2 N2 1_555 1_555
N3 Ag1 1_555 1_555
N4 Ag2 1_555 1_555
N5 H3 1_555 1_555
H4 N5 1_555 1_555
N6 C6 1_555 1_555
C1 N3 1_555 1_555
H5 C1 1_555 1_555
C2 C1 1_555 1_555
C3 C2 1_555 1_555
H6 C3 1_555 1_555
C4 N1 1_555 1_555
C5 I1 1_555 1_555
C6 C5 1_555 1_555
H7 C6 1_555 1_555
C7 N4 1_555 1_555
C8 N4 1_555 1_555
H8 C8 1_555 1_555
C9 S1 1_555 1_555
C10 S2 1_555 1_555
F1 C9 1_555 1_555
F2 C9 1_555 1_555
F3 C9 1_555 1_555
F4 C10 1_555 1_555
F5 C10 1_555 1_555
F6 C10 1_555 1_555
I2A Ag2 1_555 1_555
Ag1B N6 1_555 1_555
Ag2A I2 1_555 1_555
Ag2B N1 1_555 1_555
N1B Ag2 1_555 1_555
N6B Ag1 1_555 1_555
N2 C4 1_555 1_555
N3 C4 1_555 1_555
N5 C7 1_555 1_555
N6 C7 1_555 1_555
C5 C8 1_555 1_555

#END
