
#######################################################################
#
#                 Cambridge Crystallographic Data Centre
#                                CCDC 
#
#######################################################################
#
# If this CIF has been generated from an entry in the Cambridge 
# Structural Database, then it will include bibliographic, chemical, 
# crystal, experimental, refinement or atomic coordinate data resulting 
# from the CCDC's data processing and validation procedures.
#
#######################################################################

data_FUYCIN
_chemical_formula_moiety         '(C20 H16 N1 O7 V1 1-)n'
_symmetry_cell_setting           cubic
_symmetry_space_group_name_H-M   'P 43 3 2'
_symmetry_Int_Tables_number      212
_space_group_name_Hall           'P 4acd 2ab 3'
loop_
_symmetry_equiv_pos_site_id
_symmetry_equiv_pos_as_xyz
1 x,y,z
2 1/2-x,-y,1/2+z
3 -x,1/2+y,1/2-z
4 1/2+x,1/2-y,-z
5 z,x,y
6 1/2+z,1/2-x,-y
7 1/2-z,-x,1/2+y
8 -z,1/2+x,1/2-y
9 y,z,x
10 -y,1/2+z,1/2-x
11 1/2+y,1/2-z,-x
12 1/2-y,-z,1/2+x
13 1/4+y,3/4+x,3/4-z
14 1/4-y,1/4-x,1/4-z
15 3/4+y,3/4-x,1/4+z
16 3/4-y,1/4+x,3/4+z
17 1/4+x,3/4+z,3/4-y
18 3/4-x,1/4+z,3/4+y
19 1/4-x,1/4-z,1/4-y
20 3/4+x,3/4-z,1/4+y
21 1/4+z,3/4+y,3/4-x
22 3/4+z,3/4-y,1/4+x
23 3/4-z,1/4+y,3/4+x
24 1/4-z,1/4-y,1/4-x
_cell_length_a                   17.7658
_cell_length_b                   17.7658
_cell_length_c                   17.7658
_cell_angle_alpha                90
_cell_angle_beta                 90
_cell_angle_gamma                90
_cell_volume                     5607.31
loop_
_atom_site_label
_atom_site_type_symbol
_atom_site_fract_x
_atom_site_fract_y
_atom_site_fract_z
_atom_site_U_iso_or_equiv
_atom_site_thermal_displace_type
C1 C 0.46457 0.75577 0.65706 0.0000 Uiso
C2 C 0.55779 0.65880 0.65908 0.0000 Uiso
C3 C 0.49499 0.69276 0.69060 0.0000 Uiso
O1 O 0.40730 0.79113 0.68152 0.0000 Uiso
H1 H 0.46858 0.66892 0.74382 0.0000 Uiso
V1 V 0.87500 0.62500 0.37500 0.0000 Uiso
C1M C 0.49423 0.78543 0.59294 0.0000 Uiso
C2M C 0.59120 0.69221 0.59092 0.0000 Uiso
C3M C 0.55724 0.75501 0.55940 0.0000 Uiso
H1M H 0.58108 0.78142 0.50618 0.0000 Uiso
O1M O 0.45887 0.84270 0.56848 0.0000 Uiso
C1W C 0.59294 0.49423 0.78543 0.0000 Uiso
C2W C 0.59092 0.59120 0.69221 0.0000 Uiso
C3W C 0.55940 0.55724 0.75501 0.0000 Uiso
H1W H 0.50618 0.58108 0.78142 0.0000 Uiso
O1W O 0.56848 0.45887 0.84270 0.0000 Uiso
C1D C 0.65706 0.46457 0.75577 0.0000 Uiso
C2D C 0.65908 0.55779 0.65880 0.0000 Uiso
C3D C 0.69060 0.49499 0.69276 0.0000 Uiso
H1D H 0.74382 0.46858 0.66892 0.0000 Uiso
O1D O 0.68152 0.40730 0.79113 0.0000 Uiso
C1H C 0.75577 0.65706 0.46457 0.0000 Uiso
C2H C 0.65880 0.65908 0.55779 0.0000 Uiso
C3H C 0.69276 0.69060 0.49499 0.0000 Uiso
H1H H 0.66892 0.74382 0.46858 0.0000 Uiso
O1H O 0.79113 0.68152 0.40730 0.0000 Uiso
C1R C 0.78543 0.59294 0.49423 0.0000 Uiso
C2R C 0.69221 0.59092 0.59120 0.0000 Uiso
C3R C 0.75501 0.55940 0.55724 0.0000 Uiso
H1R H 0.78142 0.50618 0.58108 0.0000 Uiso
O1R O 0.84270 0.56848 0.45887 0.0000 Uiso
O1C O 0.90730 0.70887 0.31848 0.0000 Uiso
O1F O 0.81848 0.59270 0.29113 0.0000 Uiso
O1O O 0.95887 0.65730 0.43152 0.0000 Uiso
O1T O 0.93152 0.54113 0.34270 0.0000 Uiso
V1A V 0.62500 0.37500 0.87500 0.0000 Uiso
V1C V 0.37500 0.87500 0.62500 0.0000 Uiso
N1 N 1.09782 1.12828 0.92593 0.0000 Uiso
C4 C 1.09508 1.19328 0.87124 0.0000 Uiso
C5 C 1.01908 1.13716 0.95666 0.0000 Uiso
H2 H 1.10844 1.07522 0.89470 0.0000 Uiso
H3 H 1.05518 1.17903 0.82305 0.0000 Uiso
H4 H 1.15386 1.20406 0.84786 0.0000 Uiso
H5 H 1.07414 1.24584 0.90152 0.0000 Uiso
H6 H 1.00817 1.09201 1.00093 0.0000 Uiso
H7 H 0.97666 1.13099 0.90891 0.0000 Uiso
H8 H 1.01295 1.19520 0.98335 0.0000 Uiso
O2 O 0.40162 0.40162 0.40162 0.0000 Uiso
loop_
_geom_bond_atom_site_label_1
_geom_bond_atom_site_label_2
_geom_bond_site_symmetry_1
_geom_bond_site_symmetry_2
C1 C3 1_555 1_555
C2 C3 1_555 1_555
C3 H1 1_555 1_555
O1 C1 1_555 1_555
V1 O1H 1_555 1_555
N1 C4 1_555 1_555
C4 H3 1_555 1_555
C5 N1 1_555 1_555
H2 N1 1_555 1_555
H4 C4 1_555 1_555
H5 C4 1_555 1_555
H6 C5 1_555 1_555
H7 C5 1_555 1_555
H8 C5 1_555 1_555
C1M C1 1_555 1_555
C2M C2 1_555 1_555
C3M C1M 1_555 1_555
H1M C3M 1_555 1_555
O1M C1M 1_555 1_555
C1W C3W 1_555 1_555
C2W C2 1_555 1_555
C3W C2W 1_555 1_555
H1W C3W 1_555 1_555
O1W C1W 1_555 1_555
C1D C1W 1_555 1_555
C2D C2W 1_555 1_555
C3D C1D 1_555 1_555
H1D C3D 1_555 1_555
O1D C1D 1_555 1_555
C1H C3H 1_555 1_555
C2H C2M 1_555 1_555
C3H C2H 1_555 1_555
H1H C3H 1_555 1_555
O1H C1H 1_555 1_555
C1R C1H 1_555 1_555
C2R C2D 1_555 1_555
C3R C1R 1_555 1_555
H1R C3R 1_555 1_555
O1R V1 1_555 1_555
O1C V1 1_555 1_555
O1F V1 1_555 1_555
O1O V1 1_555 1_555
O1T V1 1_555 1_555
V1A O1W 1_555 1_555
V1C O1 1_555 1_555
C2M C3M 1_555 1_555
O1M V1C 1_555 1_555
C2D C3D 1_555 1_555
O1D V1A 1_555 1_555
C2H C2R 1_555 1_555
C1R O1R 1_555 1_555
C2R C3R 1_555 1_555

#END
