
#######################################################################
#
#                 Cambridge Crystallographic Data Centre
#                                CCDC 
#
#######################################################################
#
# If this CIF has been generated from an entry in the Cambridge 
# Structural Database, then it will include bibliographic, chemical, 
# crystal, experimental, refinement or atomic coordinate data resulting 
# from the CCDC's data processing and validation procedures.
#
#######################################################################

data_CUQRUD
_chemical_formula_moiety         '(C20 H18 N6 O6 Zn2)n'
_symmetry_cell_setting           monoclinic
_symmetry_space_group_name_H-M   'C 2/c'
_symmetry_Int_Tables_number      15
_space_group_name_Hall           '-C 2yc'
loop_
_symmetry_equiv_pos_site_id
_symmetry_equiv_pos_as_xyz
1 x,y,z
2 -x,y,1/2-z
3 1/2+x,1/2+y,z
4 1/2-x,1/2+y,1/2-z
5 -x,-y,-z
6 x,-y,1/2+z
7 1/2-x,1/2-y,-z
8 1/2+x,1/2-y,1/2+z
_cell_length_a                   38.028(10)
_cell_length_b                   9.647(3)
_cell_length_c                   9.871(3)
_cell_angle_alpha                90
_cell_angle_beta                 97.490(5)
_cell_angle_gamma                90
_cell_volume                     3590.34
loop_
_atom_site_label
_atom_site_type_symbol
_atom_site_fract_x
_atom_site_fract_y
_atom_site_fract_z
_atom_site_U_iso_or_equiv
_atom_site_thermal_displace_type
Zn1 Zn 0.28442(2) 0.17537(7) 0.40152(6) 0.0421 Uani
N1 N 0.26802(14) -0.0310(5) 0.7579(5) 0.0489 Uani
N2 N 0.24357(13) 0.1534(5) 0.6462(5) 0.0436 Uani
N3 N 0.26879(14) 0.0978(5) 0.5743(5) 0.0471 Uani
O1 O 0.3305(2) 0.2311(11) 0.3140(16) 0.1622 Uani
O2 O 0.3393(3) 0.096(2) 0.4590(13) 0.1917 Uani
C1 C 0.3509(3) 0.152(2) 0.3775(18) 0.1447 Uani
C2 C 0.38760(15) 0.1514(10) 0.3485(9) 0.1079 Uani
C3 C 0.4121(2) 0.0857(12) 0.4440(8) 0.1583 Uani
H1 H 0.4048 0.0453 0.5212 0.1900 Uiso
C4 C 0.4476(2) 0.0804(13) 0.4242(9) 0.1591 Uani
H2 H 0.4641 0.0364 0.4881 0.1910 Uiso
C5 C 0.45859(14) 0.1407(11) 0.3088(9) 0.1098 Uani
C6 C 0.43404(19) 0.2064(10) 0.2133(8) 0.1179 Uani
H3 H 0.4414 0.2467 0.1361 0.1420 Uiso
C7 C 0.39854(17) 0.2117(10) 0.2332(9) 0.1109 Uani
H4 H 0.3821 0.2557 0.1693 0.1330 Uiso
C8 C 0.4961(2) 0.1446(14) 0.2997(13) 0.1121 Uani
H5 H 0.5127 0.1471 0.3776 0.1340 Uiso
C9 C 0.24465(17) 0.0723(6) 0.7555(6) 0.0501 Uani
H6 H 0.2304 0.0862 0.8241 0.0600 Uiso
C10 C 0.28218(17) -0.0093(6) 0.6416(6) 0.0490 Uani
H7 H 0.2997 -0.0652 0.6126 0.0590 Uiso
O1A O 0.6695(2) 0.2311(11) 0.1860(16) 0.1622 Uani
O2A O 0.6607(3) 0.096(2) 0.0410(13) 0.1917 Uani
C1A C 0.6491(3) 0.152(2) 0.1225(18) 0.1447 Uani
C2A C 0.61240(15) 0.1514(10) 0.1515(9) 0.1079 Uani
C3A C 0.5879(2) 0.0857(12) 0.0560(8) 0.1583 Uani
H1A H 0.5952 0.0453 -0.0212 0.1900 Uiso
C4A C 0.5524(2) 0.0804(13) 0.0758(9) 0.1591 Uani
H2A H 0.5359 0.0364 0.0119 0.1910 Uiso
C5A C 0.54141(14) 0.1407(11) 0.1912(9) 0.1098 Uani
C6A C 0.56596(19) 0.2064(10) 0.2867(8) 0.1179 Uani
H3A H 0.5586 0.2467 0.3639 0.1420 Uiso
C7A C 0.60146(17) 0.2117(10) 0.2668(9) 0.1109 Uani
H4A H 0.6179 0.2557 0.3307 0.1330 Uiso
C8A C 0.5039(2) 0.1446(14) 0.2003(13) 0.1121 Uani
H5A H 0.4873 0.1471 0.1224 0.1340 Uiso
Zn1A Zn 0.71558(2) 0.17537(7) 0.09848(6) 0.0421 Uani
N1A N 0.73198(14) -0.0310(5) -0.2579(5) 0.0489 Uani
N2A N 0.75643(13) 0.1534(5) -0.1462(5) 0.0436 Uani
N3A N 0.73121(14) 0.0978(5) -0.0743(5) 0.0471 Uani
C9A C 0.75535(17) 0.0723(6) -0.2555(6) 0.0501 Uani
H6A H 0.7696 0.0862 -0.3241 0.0600 Uiso
C10A C 0.71782(17) -0.0093(6) -0.1416(6) 0.0490 Uani
H7A H 0.7003 -0.0652 -0.1126 0.0590 Uiso
Zn1D Zn 0.71558(2) -0.17537(7) -0.40152(6) 0.0421 Uani
Zn1E Zn 0.28442(2) -0.17537(7) 0.90152(6) 0.0421 Uani
Zn1F Zn 0.21558(2) 0.32463(7) 0.59848(6) 0.0421 Uani
Zn1G Zn 0.78442(2) 0.32463(7) -0.09848(6) 0.0421 Uani
N1D N 0.73198(14) 0.0310(5) 0.2421(5) 0.0489 Uani
N1E N 0.26802(14) 0.0310(5) 0.2579(5) 0.0489 Uani
N2F N 0.25643(13) 0.3466(5) 0.3538(5) 0.0436 Uani
N2G N 0.74357(13) 0.3466(5) 0.1462(5) 0.0436 Uani
O3 O 0.1478(9) 0.176(3) 0.155(3) 0.3616 Uani
H8 H 0.1315 0.1123 0.1335 0.5410 Uiso
H9 H 0.1373 0.2490 0.2015 0.5410 Uiso
O4 O 0.1853(10) 0.158(3) 0.020(4) 0.4087 Uani
H10 H 0.1797 0.0559 0.0237 0.6120 Uiso
H11 H 0.2050 0.1688 -0.0058 0.6120 Uiso
loop_
_atom_site_aniso_label
_atom_site_aniso_U_11
_atom_site_aniso_U_22
_atom_site_aniso_U_33
_atom_site_aniso_U_23
_atom_site_aniso_U_13
_atom_site_aniso_U_12
Zn1 0.0401(4) 0.0515(5) 0.0390(4) 0.0027(3) 0.0218(3) 0.0054(3)
N1 0.058(3) 0.052(3) 0.042(3) 0.008(2) 0.026(2) 0.003(2)
N2 0.043(2) 0.049(3) 0.043(3) 0.001(2) 0.021(2) 0.0035(19)
N3 0.055(3) 0.051(3) 0.041(3) 0.002(2) 0.028(2) 0.004(2)
O1 0.055(4) 0.123(6) 0.316(14) -0.091(8) 0.052(6) -0.014(4)
O2 0.080(5) 0.364(15) 0.142(8) -0.034(10) 0.056(6) -0.036(8)
C1 0.046(5) 0.26(2) 0.136(11) -0.109(12) 0.042(7) -0.029(8)
C2 0.055(5) 0.165(10) 0.112(8) -0.039(7) 0.042(5) -0.003(5)
C3 0.094(8) 0.254(15) 0.139(11) 0.039(11) 0.061(8) -0.004(10)
C4 0.089(8) 0.242(15) 0.151(11) 0.055(11) 0.033(8) -0.008(9)
C5 0.049(4) 0.174(10) 0.113(8) 0.001(7) 0.036(5) -0.002(6)
C6 0.079(7) 0.156(10) 0.127(9) 0.017(8) 0.045(7) 0.010(7)
C7 0.063(5) 0.138(9) 0.134(9) 0.005(8) 0.021(6) 0.009(6)
C8 0.043(5) 0.193(12) 0.104(9) 0.019(7) 0.024(5) -0.002(6)
C9 0.059(4) 0.053(3) 0.046(3) 0.004(3) 0.036(3) 0.006(3)
C10 0.057(3) 0.056(4) 0.039(3) 0.006(3) 0.025(3) 0.015(3)
O1A 0.055 0.123 0.316 0.091 0.052 0.014
O2A 0.08 0.364 0.142 0.034 0.056 0.036
C1A 0.046 0.26 0.136 0.109 0.042 0.029
C2A 0.055 0.165 0.112 0.039 0.042 0.003
C3A 0.094 0.254 0.139 -0.039 0.061 0.004
C4A 0.089 0.242 0.151 -0.055 0.033 0.008
C5A 0.049 0.174 0.113 -0.001 0.036 0.002
C6A 0.079 0.156 0.127 -0.017 0.045 -0.01
C7A 0.063 0.138 0.134 -0.005 0.021 -0.009
C8A 0.043 0.193 0.104 -0.019 0.024 0.002
Zn1A 0.0401 0.0515 0.039 -0.0027 0.0218 -0.0054
N1A 0.058 0.052 0.042 -0.008 0.026 -0.003
N2A 0.043 0.049 0.043 -0.001 0.021 -0.0035
N3A 0.055 0.051 0.041 -0.002 0.028 -0.004
C9A 0.059 0.053 0.046 -0.004 0.036 -0.006
C10A 0.057 0.056 0.039 -0.006 0.025 -0.015
Zn1D 0.0401 0.0515 0.039 0.0027 0.0218 0.0054
Zn1E 0.0401 0.0515 0.039 -0.0027 0.0218 -0.0054
Zn1F 0.0401 0.0515 0.039 0.0027 0.0218 0.0054
Zn1G 0.0401 0.0515 0.039 -0.0027 0.0218 -0.0054
N1D 0.058 0.052 0.042 0.008 0.026 0.003
N1E 0.058 0.052 0.042 -0.008 0.026 -0.003
N2F 0.043 0.049 0.043 0.001 0.021 0.0035
N2G 0.043 0.049 0.043 -0.001 0.021 -0.0035
O3 0.37(3) 0.36(3) 0.34(3) 0.08(2) -0.01(2) 0.05(2)
O4 0.44(3) 0.41(3) 0.37(3) 0.12(2) 0.03(3) 0.03(2)
loop_
_geom_bond_atom_site_label_1
_geom_bond_atom_site_label_2
_geom_bond_site_symmetry_1
_geom_bond_site_symmetry_2
Zn1 N3 1_555 1_555
N1 C9 1_555 1_555
N2 N3 1_555 1_555
N3 C10 1_555 1_555
O1 Zn1 1_555 1_555
O2 Zn1 1_555 1_555
C1 O1 1_555 1_555
C2 C1 1_555 1_555
C3 C2 1_555 1_555
H1 C3 1_555 1_555
C4 C3 1_555 1_555
H2 C4 1_555 1_555
C5 C4 1_555 1_555
C6 C5 1_555 1_555
H3 C6 1_555 1_555
C7 C2 1_555 1_555
H4 C7 1_555 1_555
C8 C5 1_555 1_555
H5 C8 1_555 1_555
C9 N2 1_555 1_555
H6 C9 1_555 1_555
C10 N1 1_555 1_555
H7 C10 1_555 1_555
O3 H8 1_555 1_555
H9 O3 1_555 1_555
O4 H10 1_555 1_555
H11 O4 1_555 1_555
O1A C1A 1_555 1_555
O2A C1A 1_555 1_555
C1A C2A 1_555 1_555
C2A C3A 1_555 1_555
C3A H1A 1_555 1_555
C4A C3A 1_555 1_555
H2A C4A 1_555 1_555
C5A C4A 1_555 1_555
C6A C5A 1_555 1_555
H3A C6A 1_555 1_555
C7A C2A 1_555 1_555
H4A C7A 1_555 1_555
C8A C8 1_555 1_555
H5A C8A 1_555 1_555
Zn1A O1A 1_555 1_555
N1A C9A 1_555 1_555
N2A N3A 1_555 1_555
N3A Zn1A 1_555 1_555
C9A N2A 1_555 1_555
H6A C9A 1_555 1_555
C10A N1A 1_555 1_555
H7A C10A 1_555 1_555
Zn1D N1A 1_555 1_555
Zn1E N1 1_555 1_555
Zn1F N2 1_555 1_555
Zn1G N2A 1_555 1_555
N1D Zn1A 1_555 1_555
N1E Zn1 1_555 1_555
N2F Zn1 1_555 1_555
N2G Zn1A 1_555 1_555
O2 C1 1_555 1_555
C6 C7 1_555 1_555
O2A Zn1A 1_555 1_555
C5A C8A 1_555 1_555
C6A C7A 1_555 1_555
N3A C10A 1_555 1_555

#END
