
#######################################################################
#
#                 Cambridge Crystallographic Data Centre
#                                CCDC 
#
#######################################################################
#
# If this CIF has been generated from an entry in the Cambridge 
# Structural Database, then it will include bibliographic, chemical, 
# crystal, experimental, refinement or atomic coordinate data resulting 
# from the CCDC's data processing and validation procedures.
#
#######################################################################

data_CUQROX
_chemical_formula_moiety         '(C22 H26 N8 O7 Zn2)n'
_symmetry_cell_setting           monoclinic
_symmetry_space_group_name_H-M   'C 2/c'
_symmetry_Int_Tables_number      15
_space_group_name_Hall           '-C 2yc'
loop_
_symmetry_equiv_pos_site_id
_symmetry_equiv_pos_as_xyz
1 x,y,z
2 -x,y,1/2-z
3 1/2+x,1/2+y,z
4 1/2-x,1/2+y,1/2-z
5 -x,-y,-z
6 x,-y,1/2+z
7 1/2-x,1/2-y,-z
8 1/2+x,1/2-y,1/2+z
_cell_length_a                   38.503(5)
_cell_length_b                   9.4511(12)
_cell_length_c                   9.8023(13)
_cell_angle_alpha                90
_cell_angle_beta                 100.578(2)
_cell_angle_gamma                90
_cell_volume                     3506.4
loop_
_atom_site_label
_atom_site_type_symbol
_atom_site_fract_x
_atom_site_fract_y
_atom_site_fract_z
_atom_site_U_iso_or_equiv
_atom_site_thermal_displace_type
Zn1 Zn 0.21400(2) 0.18806(7) 0.09078(7) 0.0219 Uani
N1 N 0.24843(14) 0.3454(6) 0.1536(6) 0.0260 Uani
N2 N 0.27630(13) 0.3840(6) 0.0912(5) 0.0217 Uani
N3 N 0.27621(14) 0.5261(6) 0.2702(6) 0.0261 Uani
O1 O 0.16480(13) 0.2266(6) 0.0915(6) 0.0424 Uani
O2 O 0.1670(2) 0.3940(14) -0.0508(17) 0.1952 Uani
C1 C 0.24891(16) 0.4310(7) 0.2583(7) 0.0267 Uani
C2 C 0.29230(18) 0.4922(7) 0.1644(7) 0.0301 Uani
C3 C 0.2232(2) 0.4225(10) 0.3562(10) 0.0572 Uani
H1 H 0.2007 0.3903 0.3068 0.0860 Uiso
H2 H 0.2205 0.5144 0.3947 0.0860 Uiso
H3 H 0.2319 0.3574 0.4297 0.0860 Uiso
C4 C 0.3234(2) 0.5633(10) 0.1264(9) 0.0498 Uani
H4 H 0.3341 0.5023 0.0676 0.0740 Uiso
H5 H 0.3402 0.5842 0.2090 0.0740 Uiso
H6 H 0.3161 0.6497 0.0780 0.0740 Uiso
C5 C 0.1510(2) 0.3251(10) 0.0166(12) 0.0555 Uani
C6 C 0.1124(2) 0.3584(9) 0.0188(11) 0.0500 Uani
C7 C 0.0960(3) 0.4622(15) -0.0651(17) 0.1138 Uani
H7 H 0.1080 0.5087 -0.1263 0.1370 Uiso
C8 C 0.0943(2) 0.2815(13) 0.0976(11) 0.0627 Uani
H8 H 0.1053 0.2068 0.1504 0.0760 Uiso
C9 C 0.0589(3) 0.3134(11) 0.1006(13) 0.0703 Uani
H9 H 0.0466 0.2608 0.1562 0.0840 Uiso
C10 C 0.0609(3) 0.4993(15) -0.0590(17) 0.1041 Uani
H10 H 0.0501 0.5758 -0.1094 0.1250 Uiso
C11 C 0.0429(2) 0.4201(11) 0.0230(11) 0.0580 Uani
N4 N 0.0065(2) 0.4466(10) 0.0316(10) 0.0741 Uani
O1D O -0.16480(13) 0.7734(6) -0.0915(6) 0.0424 Uani
O2D O -0.1670(2) 0.6060(14) 0.0508(17) 0.1952 Uani
C5D C -0.1510(2) 0.6749(10) -0.0166(12) 0.0555 Uani
C6D C -0.1124(2) 0.6416(9) -0.0188(11) 0.0500 Uani
C7D C -0.0960(3) 0.5378(15) 0.0651(17) 0.1138 Uani
H7D H -0.1080 0.4913 0.1263 0.1370 Uiso
C8D C -0.0943(2) 0.7185(13) -0.0976(11) 0.0627 Uani
H8D H -0.1053 0.7932 -0.1504 0.0760 Uiso
C9D C -0.0589(3) 0.6866(11) -0.1006(13) 0.0703 Uani
H9D H -0.0466 0.7392 -0.1562 0.0840 Uiso
C10D C -0.0609(3) 0.5007(15) 0.0590(17) 0.1041 Uani
H10D H -0.0501 0.4242 0.1094 0.1250 Uiso
C11D C -0.0429(2) 0.5799(11) -0.0230(11) 0.0580 Uani
N4D N -0.0065(2) 0.5534(10) -0.0316(10) 0.0741 Uani
Zn1D Zn -0.21400(2) 0.81194(7) -0.09078(7) 0.0219 Uani
N1D N -0.24843(14) 0.6546(6) -0.1536(6) 0.0260 Uani
N2D N -0.27630(13) 0.6160(6) -0.0912(5) 0.0217 Uani
N3D N -0.27621(14) 0.4739(6) -0.2702(6) 0.0261 Uani
C1D C -0.24891(16) 0.5690(7) -0.2583(7) 0.0267 Uani
C2D C -0.29230(18) 0.5078(7) -0.1644(7) 0.0301 Uani
C3D C -0.2232(2) 0.5775(10) -0.3562(10) 0.0572 Uani
H1D H -0.2007 0.6097 -0.3068 0.0860 Uiso
H2D H -0.2205 0.4856 -0.3947 0.0860 Uiso
H3D H -0.2319 0.6426 -0.4297 0.0860 Uiso
C4D C -0.3234(2) 0.4367(10) -0.1264(9) 0.0498 Uani
H4D H -0.3341 0.4977 -0.0676 0.0740 Uiso
H5D H -0.3402 0.4158 -0.2090 0.0740 Uiso
H6D H -0.3161 0.3503 -0.0780 0.0740 Uiso
Zn1B Zn -0.28600(2) 0.68806(7) 0.09078(7) 0.0219 Uani
Zn1C Zn 0.28600(2) 0.68806(7) 0.40922(7) 0.0219 Uani
Zn1F Zn 0.28600(2) 0.31194(7) -0.09078(7) 0.0219 Uani
Zn1G Zn -0.28600(2) 0.31194(7) -0.40922(7) 0.0219 Uani
N2B N -0.22370(13) 0.8840(6) 0.0912(5) 0.0217 Uani
N2F N 0.22370(13) 0.1160(6) -0.0912(5) 0.0217 Uani
N3C N 0.22379(14) 0.0261(6) 0.2298(6) 0.0261 Uani
N3G N -0.22379(14) 0.9739(6) -0.2298(6) 0.0261 Uani
O3 O 0.1826(5) 0.6874(14) 0.1323(17) 0.1825 Uani
O4 O 0.0429(18) 0.894(4) -0.069(7) 0.2313 Uani
O6 O 0.0471(17) 0.839(5) 0.152(7) 0.2118 Uani
loop_
_atom_site_aniso_label
_atom_site_aniso_U_11
_atom_site_aniso_U_22
_atom_site_aniso_U_33
_atom_site_aniso_U_23
_atom_site_aniso_U_13
_atom_site_aniso_U_12
Zn1 0.0214(5) 0.0215(5) 0.0246(5) -0.0001(3) 0.0088(3) 0.0006(3)
N1 0.027(3) 0.021(3) 0.034(3) -0.005(2) 0.016(2) -0.007(2)
N2 0.020(2) 0.027(3) 0.019(3) -0.002(2) 0.006(2) 0.000(2)
N3 0.028(3) 0.023(3) 0.029(3) -0.003(2) 0.010(2) -0.003(2)
O1 0.025(3) 0.058(4) 0.047(3) 0.010(3) 0.014(2) 0.016(3)
O2 0.059(5) 0.197(12) 0.355(19) 0.213(14) 0.105(8) 0.062(6)
C1 0.022(3) 0.033(4) 0.025(3) -0.005(3) 0.004(3) -0.006(3)
C2 0.033(4) 0.028(4) 0.033(4) 0.001(3) 0.016(3) -0.001(3)
C3 0.059(5) 0.064(6) 0.059(6) -0.027(5) 0.038(5) -0.031(5)
C4 0.044(4) 0.058(6) 0.053(5) -0.016(4) 0.024(4) -0.024(4)
C5 0.027(4) 0.056(6) 0.086(7) 0.020(5) 0.017(4) 0.010(4)
C6 0.027(4) 0.044(5) 0.081(7) 0.010(5) 0.015(4) 0.015(4)
C7 0.054(6) 0.128(12) 0.175(14) 0.086(11) 0.062(8) 0.052(7)
C8 0.032(5) 0.089(8) 0.066(6) 0.019(6) 0.006(4) 0.015(5)
C9 0.039(5) 0.086(8) 0.093(8) 0.025(6) 0.031(5) 0.017(5)
C10 0.040(6) 0.107(10) 0.168(14) 0.074(10) 0.026(7) 0.039(6)
C11 0.032(4) 0.068(7) 0.076(7) 0.004(5) 0.015(4) 0.014(4)
N4 0.038(4) 0.085(7) 0.101(7) 0.012(6) 0.017(5) 0.018(4)
O1D 0.025 0.058 0.047 0.01 0.014 0.016
O2D 0.059 0.197 0.355 0.213 0.105 0.062
C5D 0.027 0.056 0.086 0.02 0.017 0.01
C6D 0.027 0.044 0.081 0.01 0.015 0.015
C7D 0.054 0.128 0.175 0.086 0.062 0.052
C8D 0.032 0.089 0.066 0.019 0.006 0.015
C9D 0.039 0.086 0.093 0.025 0.031 0.017
C10D 0.04 0.107 0.168 0.074 0.026 0.039
C11D 0.032 0.068 0.076 0.004 0.015 0.014
N4D 0.038 0.085 0.101 0.012 0.017 0.018
Zn1D 0.0214 0.0215 0.0246 -0.0001 0.0088 0.0006
N1D 0.027 0.021 0.034 -0.005 0.016 -0.007
N2D 0.02 0.027 0.019 -0.002 0.006 0
N3D 0.028 0.023 0.029 -0.003 0.01 -0.003
C1D 0.022 0.033 0.025 -0.005 0.004 -0.006
C2D 0.033 0.028 0.033 0.001 0.016 -0.001
C3D 0.059 0.064 0.059 -0.027 0.038 -0.031
C4D 0.044 0.058 0.053 -0.016 0.024 -0.024
Zn1B 0.0214 0.0215 0.0246 -0.0001 0.0088 0.0006
Zn1C 0.0214 0.0215 0.0246 0.0001 0.0088 -0.0006
Zn1F 0.0214 0.0215 0.0246 -0.0001 0.0088 0.0006
Zn1G 0.0214 0.0215 0.0246 0.0001 0.0088 -0.0006
N2B 0.02 0.027 0.019 -0.002 0.006 0
N2F 0.02 0.027 0.019 -0.002 0.006 0
N3C 0.028 0.023 0.029 0.003 0.01 0.003
N3G 0.028 0.023 0.029 0.003 0.01 0.003
O3 0.206(15) 0.176(14) 0.161(13) 0.034(9) 0.022(11) -0.023(10)
O4 0.34(4) 0.056(18) 0.28(4) -0.02(2) 0.01(3) 0.02(2)
O6 0.24 0.15 0.24 -0.08 0.03 -0.05
loop_
_geom_bond_atom_site_label_1
_geom_bond_atom_site_label_2
_geom_bond_site_symmetry_1
_geom_bond_site_symmetry_2
Zn1 N1 1_555 1_555
N1 N2 1_555 1_555
N2 C2 1_555 1_555
N3 C1 1_555 1_555
O1 Zn1 1_555 1_555
O2 C5 1_555 1_555
C1 N1 1_555 1_555
C2 N3 1_555 1_555
C3 C1 1_555 1_555
H1 C3 1_555 1_555
H2 C3 1_555 1_555
H3 C3 1_555 1_555
C4 C2 1_555 1_555
H4 C4 1_555 1_555
H5 C4 1_555 1_555
H6 C4 1_555 1_555
C5 O1 1_555 1_555
C6 C5 1_555 1_555
C7 C6 1_555 1_555
H7 C7 1_555 1_555
C8 C6 1_555 1_555
H8 C8 1_555 1_555
C9 C8 1_555 1_555
H9 C9 1_555 1_555
C10 C7 1_555 1_555
H10 C10 1_555 1_555
C11 C9 1_555 1_555
N4 C11 1_555 1_555
O1D C5D 1_555 1_555
O2D C5D 1_555 1_555
C5D C6D 1_555 1_555
C6D C7D 1_555 1_555
C7D H7D 1_555 1_555
C8D C6D 1_555 1_555
H8D C8D 1_555 1_555
C9D C8D 1_555 1_555
H9D C9D 1_555 1_555
C10D C7D 1_555 1_555
H10D C10D 1_555 1_555
C11D C9D 1_555 1_555
N4D N4 1_555 1_555
Zn1D O1D 1_555 1_555
N1D Zn1D 1_555 1_555
N2D N1D 1_555 1_555
N3D C1D 1_555 1_555
C1D N1D 1_555 1_555
C2D N2D 1_555 1_555
C3D C1D 1_555 1_555
H1D C3D 1_555 1_555
H2D C3D 1_555 1_555
H3D C3D 1_555 1_555
C4D C2D 1_555 1_555
H4D C4D 1_555 1_555
H5D C4D 1_555 1_555
H6D C4D 1_555 1_555
Zn1B N2D 1_555 1_555
Zn1C N3 1_555 1_555
Zn1F N2 1_555 1_555
Zn1G N3D 1_555 1_555
N2B Zn1D 1_555 1_555
N2F Zn1 1_555 1_555
N3C Zn1 1_555 1_555
N3G Zn1D 1_555 1_555
C10 C11 1_555 1_555
C10D C11D 1_555 1_555
C11D N4D 1_555 1_555
N3D C2D 1_555 1_555

#END
