
#######################################################################
#
#                 Cambridge Crystallographic Data Centre
#                                CCDC 
#
#######################################################################
#
# If this CIF has been generated from an entry in the Cambridge 
# Structural Database, then it will include bibliographic, chemical, 
# crystal, experimental, refinement or atomic coordinate data resulting 
# from the CCDC's data processing and validation procedures.
#
#######################################################################

data_CUQRIR
_chemical_formula_moiety         '(C24 H28 N6 O7 Zn2)n'
_symmetry_cell_setting           monoclinic
_symmetry_space_group_name_H-M   'C 2/c'
_symmetry_Int_Tables_number      15
_space_group_name_Hall           '-C 2yc'
loop_
_symmetry_equiv_pos_site_id
_symmetry_equiv_pos_as_xyz
1 x,y,z
2 -x,y,1/2-z
3 1/2+x,1/2+y,z
4 1/2-x,1/2+y,1/2-z
5 -x,-y,-z
6 x,-y,1/2+z
7 1/2-x,1/2-y,-z
8 1/2+x,1/2-y,1/2+z
_cell_length_a                   39.356(13)
_cell_length_b                   9.332(3)
_cell_length_c                   9.842(3)
_cell_angle_alpha                90
_cell_angle_beta                 101.864(4)
_cell_angle_gamma                90
_cell_volume                     3537.46
loop_
_atom_site_label
_atom_site_type_symbol
_atom_site_fract_x
_atom_site_fract_y
_atom_site_fract_z
_atom_site_U_iso_or_equiv
_atom_site_thermal_displace_type
Zn1 Zn 0.21419(2) 0.31089(4) 0.08561(4) 0.0230 Uani
N1 N 0.24832(8) 0.1524(4) 0.1514(3) 0.0267 Uani
N2 N 0.27597(8) 0.1155(3) 0.0938(3) 0.0248 Uani
N3 N 0.27571(8) -0.0269(3) 0.2716(3) 0.0268 Uani
O1 O 0.16600(8) 0.2710(4) 0.0823(4) 0.0451 Uani
O2 O 0.16866(16) 0.0976(11) -0.0492(14) 0.2628 Uani
C1 C 0.15240(14) 0.1707(6) 0.0102(9) 0.0700 Uani
C2 C 0.11553(12) 0.1354(6) 0.0140(7) 0.0584 Uani
C3 C 0.09809(17) 0.2111(11) 0.0905(9) 0.0911 Uani
H1 H 0.1087 0.2885 0.1417 0.1100 Uiso
C4 C 0.0991(2) 0.0239(13) -0.0571(18) 0.2007 Uani
H2 H 0.1109 -0.0346 -0.1085 0.2400 Uiso
C5 C 0.0640(2) -0.0052(11) -0.0543(15) 0.1620 Uani
H3 H 0.0529 -0.0813 -0.1062 0.1950 Uiso
C6 C 0.0640(2) 0.1762(14) 0.0952(11) 0.1385 Uani
H4 H 0.0531 0.2285 0.1545 0.1660 Uiso
C7 C 0.04629(15) 0.0738(8) 0.0211(8) 0.0708 Uani
C8 C 0.00985(17) 0.0470(9) 0.0274(9) 0.0910 Uani
H5 H 0.0004 0.1114 0.0814 0.1090 Uiso
C9 C 0.29185(10) 0.0084(4) 0.1680(4) 0.0288 Uani
C10 C 0.32344(13) -0.0606(6) 0.1375(5) 0.0518 Uani
H6 H 0.3170 -0.1456 0.0833 0.0770 Uiso
H7 H 0.3389 -0.0857 0.2231 0.0770 Uiso
H8 H 0.3349 0.0048 0.0865 0.0770 Uiso
C11 C 0.24892(9) 0.0655(4) 0.2560(4) 0.0293 Uani
C12 C 0.22331(14) 0.0723(7) 0.3477(6) 0.0578 Uani
H9 H 0.2345 0.1077 0.4373 0.0870 Uiso
H10 H 0.2143 -0.0219 0.3574 0.0870 Uiso
H11 H 0.2047 0.1353 0.3076 0.0870 Uiso
O1D O -0.16600(8) -0.2710(4) -0.0823(4) 0.0451 Uani
O2D O -0.16866(16) -0.0976(11) 0.0492(14) 0.2628 Uani
C1D C -0.15240(14) -0.1707(6) -0.0102(9) 0.0700 Uani
C2D C -0.11553(12) -0.1354(6) -0.0140(7) 0.0584 Uani
C3D C -0.09809(17) -0.2111(11) -0.0905(9) 0.0911 Uani
H1D H -0.1087 -0.2885 -0.1417 0.1100 Uiso
C4D C -0.0991(2) -0.0239(13) 0.0571(18) 0.2007 Uani
H2D H -0.1109 0.0346 0.1085 0.2400 Uiso
C5D C -0.0640(2) 0.0052(11) 0.0543(15) 0.1620 Uani
H3D H -0.0529 0.0813 0.1062 0.1950 Uiso
C6D C -0.0640(2) -0.1762(14) -0.0952(11) 0.1385 Uani
H4D H -0.0531 -0.2285 -0.1545 0.1660 Uiso
C7D C -0.04629(15) -0.0738(8) -0.0211(8) 0.0708 Uani
C8D C -0.00985(17) -0.0470(9) -0.0274(9) 0.0910 Uani
H5D H -0.0004 -0.1114 -0.0814 0.1090 Uiso
Zn1D Zn -0.21419(2) -0.31089(4) -0.08561(4) 0.0230 Uani
N1D N -0.24832(8) -0.1524(4) -0.1514(3) 0.0267 Uani
N2D N -0.27597(8) -0.1155(3) -0.0938(3) 0.0248 Uani
N3D N -0.27571(8) 0.0269(3) -0.2716(3) 0.0268 Uani
C9D C -0.29185(10) -0.0084(4) -0.1680(4) 0.0288 Uani
C10D C -0.32344(13) 0.0606(6) -0.1375(5) 0.0518 Uani
H6D H -0.3170 0.1456 -0.0833 0.0770 Uiso
H7D H -0.3389 0.0857 -0.2231 0.0770 Uiso
H8D H -0.3349 -0.0048 -0.0865 0.0770 Uiso
C11D C -0.24892(9) -0.0655(4) -0.2560(4) 0.0293 Uani
C12D C -0.22331(14) -0.0723(7) -0.3477(6) 0.0578 Uani
H9D H -0.2345 -0.1077 -0.4373 0.0870 Uiso
H10D H -0.2143 0.0219 -0.3574 0.0870 Uiso
H11D H -0.2047 -0.1353 -0.3076 0.0870 Uiso
Zn1B Zn -0.28581(2) -0.18911(4) 0.08561(4) 0.0230 Uani
Zn1C Zn 0.28581(2) -0.18911(4) 0.41439(4) 0.0230 Uani
Zn1F Zn 0.28581(2) 0.18911(4) -0.08561(4) 0.0230 Uani
Zn1G Zn -0.28581(2) 0.18911(4) -0.41439(4) 0.0230 Uani
N2B N -0.22403(8) -0.3845(3) 0.0938(3) 0.0248 Uani
N2F N 0.22403(8) 0.3845(3) -0.0938(3) 0.0248 Uani
N3C N 0.22429(8) 0.4731(3) 0.2284(3) 0.0268 Uani
N3G N -0.22429(8) -0.4731(3) -0.2284(3) 0.0268 Uani
O3 O 0.1802(5) 0.7989(12) 0.1244(13) 0.2677 Uani
H12 H 0.1631 0.7419 0.1289 0.4010 Uiso
H13 H 0.1770 0.8822 0.1588 0.4010 Uiso
O4 O 0.0919(10) 0.667(2) 0.072(5) 0.6822 Uani
H14 H 0.0814 0.6373 0.1364 1.0230 Uiso
H15 H 0.1095 0.7191 0.1086 1.0230 Uiso
O5 O 0.0267(10) 0.433(4) 0.286(4) 0.7734 Uani
H16 H 0.0438 0.4081 0.3507 1.1600 Uiso
H17 H 0.0285 0.5244 0.2751 1.1600 Uiso
loop_
_atom_site_aniso_label
_atom_site_aniso_U_11
_atom_site_aniso_U_22
_atom_site_aniso_U_33
_atom_site_aniso_U_23
_atom_site_aniso_U_13
_atom_site_aniso_U_12
Zn1 0.0217(3) 0.0240(3) 0.0248(3) -0.00028(15) 0.0085(2) -0.00083(15)
N1 0.0250(16) 0.0257(16) 0.0318(17) 0.0030(13) 0.0113(13) 0.0049(13)
N2 0.0240(15) 0.0279(16) 0.0241(15) 0.0009(13) 0.0088(12) 0.0002(13)
N3 0.0262(16) 0.0265(16) 0.0294(16) 0.0047(13) 0.0095(13) 0.0028(13)
O1 0.0243(15) 0.064(2) 0.0487(19) -0.0095(17) 0.0113(13) -0.0129(15)
O2 0.076(4) 0.251(10) 0.502(18) -0.303(12) 0.154(7) -0.097(5)
C1 0.032(3) 0.056(3) 0.129(6) -0.036(4) 0.033(3) -0.014(2)
C2 0.026(2) 0.053(3) 0.098(4) -0.008(3) 0.017(3) -0.010(2)
C3 0.041(3) 0.154(8) 0.086(5) -0.042(5) 0.031(3) -0.036(4)
C4 0.062(5) 0.156(10) 0.41(2) -0.182(12) 0.109(8) -0.067(6)
C5 0.067(5) 0.121(8) 0.306(17) -0.104(10) 0.057(8) -0.067(5)
C6 0.048(4) 0.250(15) 0.131(8) -0.072(8) 0.050(5) -0.059(6)
C7 0.036(3) 0.090(5) 0.090(5) 0.008(4) 0.021(3) -0.010(3)
C8 0.052(4) 0.115(6) 0.106(6) 0.005(5) 0.016(4) -0.022(4)
C9 0.0282(19) 0.031(2) 0.029(2) 0.0028(17) 0.0098(16) 0.0007(16)
C10 0.050(3) 0.059(3) 0.055(3) 0.024(2) 0.031(2) 0.025(2)
C11 0.028(2) 0.032(2) 0.030(2) 0.0059(17) 0.0109(17) 0.0055(17)
C12 0.051(3) 0.077(4) 0.057(3) 0.040(3) 0.038(3) 0.035(3)
O1D 0.0243 0.064 0.0487 -0.0095 0.0113 -0.0129
O2D 0.076 0.251 0.502 -0.303 0.154 -0.097
C1D 0.032 0.056 0.129 -0.036 0.033 -0.014
C2D 0.026 0.053 0.098 -0.008 0.017 -0.01
C3D 0.041 0.154 0.086 -0.042 0.031 -0.036
C4D 0.062 0.156 0.41 -0.182 0.109 -0.067
C5D 0.067 0.121 0.306 -0.104 0.057 -0.067
C6D 0.048 0.25 0.131 -0.072 0.05 -0.059
C7D 0.036 0.09 0.09 0.008 0.021 -0.01
C8D 0.052 0.115 0.106 0.005 0.016 -0.022
Zn1D 0.0217 0.024 0.0248 -0.00028 0.0085 -0.00083
N1D 0.025 0.0257 0.0318 0.003 0.0113 0.0049
N2D 0.024 0.0279 0.0241 0.0009 0.0088 0.0002
N3D 0.0262 0.0265 0.0294 0.0047 0.0095 0.0028
C9D 0.0282 0.031 0.029 0.0028 0.0098 0.0007
C10D 0.05 0.059 0.055 0.024 0.031 0.025
C11D 0.028 0.032 0.03 0.0059 0.0109 0.0055
C12D 0.051 0.077 0.057 0.04 0.038 0.035
Zn1B 0.0217 0.024 0.0248 -0.00028 0.0085 -0.00083
Zn1C 0.0217 0.024 0.0248 0.00028 0.0085 0.00083
Zn1F 0.0217 0.024 0.0248 -0.00028 0.0085 -0.00083
Zn1G 0.0217 0.024 0.0248 0.00028 0.0085 0.00083
N2B 0.024 0.0279 0.0241 0.0009 0.0088 0.0002
N2F 0.024 0.0279 0.0241 0.0009 0.0088 0.0002
N3C 0.0262 0.0265 0.0294 -0.0047 0.0095 -0.0028
N3G 0.0262 0.0265 0.0294 -0.0047 0.0095 -0.0028
O3 0.47(2) 0.185(12) 0.141(10) -0.021(7) 0.046(12) 0.091(12)
O4 0.79(7) 0.29(3) 0.95(9) 0.24(4) 0.14(6) 0.31(3)
O5 1.04(13) 0.86(7) 0.49(5) -0.21(6) 0.32(7) 0.47(8)
loop_
_geom_bond_atom_site_label_1
_geom_bond_atom_site_label_2
_geom_bond_site_symmetry_1
_geom_bond_site_symmetry_2
Zn1 N1 1_555 1_555
N1 N2 1_555 1_555
N2 C9 1_555 1_555
N3 C9 1_555 1_555
O1 Zn1 1_555 1_555
O2 C1 1_555 1_555
C1 O1 1_555 1_555
C2 C1 1_555 1_555
C3 C2 1_555 1_555
H1 C3 1_555 1_555
C4 C2 1_555 1_555
H2 C4 1_555 1_555
C5 C4 1_555 1_555
H3 C5 1_555 1_555
C6 C3 1_555 1_555
H4 C6 1_555 1_555
C7 C5 1_555 1_555
C8 C7 1_555 1_555
H5 C8 1_555 1_555
C9 C10 1_555 1_555
C10 H6 1_555 1_555
H7 C10 1_555 1_555
H8 C10 1_555 1_555
C11 N1 1_555 1_555
C12 C11 1_555 1_555
H9 C12 1_555 1_555
H10 C12 1_555 1_555
H11 C12 1_555 1_555
O3 H12 1_555 1_555
H13 O3 1_555 1_555
O4 H14 1_555 1_555
H15 O4 1_555 1_555
O5 H16 1_555 1_555
H17 O5 1_555 1_555
O1D C1D 1_555 1_555
O2D C1D 1_555 1_555
C1D C2D 1_555 1_555
C2D C3D 1_555 1_555
C3D H1D 1_555 1_555
C4D C2D 1_555 1_555
H2D C4D 1_555 1_555
C5D C4D 1_555 1_555
H3D C5D 1_555 1_555
C6D C3D 1_555 1_555
H4D C6D 1_555 1_555
C7D C5D 1_555 1_555
C8D C8 1_555 1_555
H5D C8D 1_555 1_555
Zn1D O1D 1_555 1_555
N1D Zn1D 1_555 1_555
N2D N1D 1_555 1_555
N3D C9D 1_555 1_555
C9D N2D 1_555 1_555
C10D C9D 1_555 1_555
H6D C10D 1_555 1_555
H7D C10D 1_555 1_555
H8D C10D 1_555 1_555
C11D N1D 1_555 1_555
C12D C11D 1_555 1_555
H9D C12D 1_555 1_555
H10D C12D 1_555 1_555
H11D C12D 1_555 1_555
Zn1B N2D 1_555 1_555
Zn1C N3 1_555 1_555
Zn1F N2 1_555 1_555
Zn1G N3D 1_555 1_555
N2B Zn1D 1_555 1_555
N2F Zn1 1_555 1_555
N3C Zn1 1_555 1_555
N3G Zn1D 1_555 1_555
N3 C11 1_555 1_555
C6 C7 1_555 1_555
C6D C7D 1_555 1_555
C7D C8D 1_555 1_555
N3D C11D 1_555 1_555

#END
