
#######################################################################
#
#                 Cambridge Crystallographic Data Centre
#                                CCDC 
#
#######################################################################
#
# If this CIF has been generated from an entry in the Cambridge 
# Structural Database, then it will include bibliographic, chemical, 
# crystal, experimental, refinement or atomic coordinate data resulting 
# from the CCDC's data processing and validation procedures.
#
#######################################################################

data_IHENUG
_chemical_formula_moiety         'C108 H48 O37 Zn20'
_symmetry_cell_setting           cubic
_symmetry_space_group_name_H-M   'I m -3'
_symmetry_Int_Tables_number      204
_space_group_name_Hall           '-I 2 2 3'
loop_
_symmetry_equiv_pos_site_id
_symmetry_equiv_pos_as_xyz
1 x,y,z
2 -x,-y,z
3 -x,y,-z
4 x,-y,-z
5 z,x,y
6 z,-x,-y
7 -z,-x,y
8 -z,x,-y
9 y,z,x
10 -y,z,-x
11 y,-z,-x
12 -y,-z,x
13 1/2+x,1/2+y,1/2+z
14 1/2-x,1/2-y,1/2+z
15 1/2-x,1/2+y,1/2-z
16 1/2+x,1/2-y,1/2-z
17 1/2+z,1/2+x,1/2+y
18 1/2+z,1/2-x,1/2-y
19 1/2-z,1/2-x,1/2+y
20 1/2-z,1/2+x,1/2-y
21 1/2+y,1/2+z,1/2+x
22 1/2-y,1/2+z,1/2-x
23 1/2+y,1/2-z,1/2-x
24 1/2-y,1/2-z,1/2+x
25 -x,-y,-z
26 x,y,-z
27 x,-y,z
28 -x,y,z
29 -z,-x,-y
30 -z,x,y
31 z,x,-y
32 z,-x,y
33 -y,-z,-x
34 y,-z,x
35 -y,z,x
36 y,z,-x
37 1/2-x,1/2-y,1/2-z
38 1/2+x,1/2+y,1/2-z
39 1/2+x,1/2-y,1/2+z
40 1/2-x,1/2+y,1/2+z
41 1/2-z,1/2-x,1/2-y
42 1/2-z,1/2+x,1/2+y
43 1/2+z,1/2+x,1/2-y
44 1/2+z,1/2-x,1/2+y
45 1/2-y,1/2-z,1/2-x
46 1/2+y,1/2-z,1/2+x
47 1/2-y,1/2+z,1/2+x
48 1/2+y,1/2+z,1/2-x
_cell_length_a                   26.370(3)
_cell_length_b                   26.370(3)
_cell_length_c                   26.370(3)
_cell_angle_alpha                90
_cell_angle_beta                 90
_cell_angle_gamma                90
_cell_volume                     18337.1
loop_
_atom_site_label
_atom_site_type_symbol
_atom_site_fract_x
_atom_site_fract_y
_atom_site_fract_z
Zn1 Zn -0.0426(5) 0.0426(5) 0.9574(5)
O1 O 0.0000 0.0000 1.0000
O2 O -0.1123(10) 0.030(4) 0.970(4)
C1 C -0.1293(7) 0.0000 1.0000
C2 C -0.1862(5) 0.0000 1.0000
C3 C -0.2120(5) 0.032(3) 0.968(3)
H1 H -0.1944 0.0532 0.9468
C4 C -0.2636(5) 0.032(3) 0.968(3)
H2 H -0.2812 0.0532 0.9468
C5 C -0.2894(5) 0.0000 1.0000
C6 C -0.3462(4) 0.0000 1.0000
C7 C -0.3917(3) 0.0000 1.0000
C8 C -0.44857(15) 0.0000 1.0000
C9 C -0.47428(11) -0.032(5) 0.968(5)
O2C O -0.1123(10) -0.030(4) 1.030(4)
C3C C -0.2120(5) -0.032(3) 1.032(3)
H1C H -0.1944 -0.0532 1.0532
C4C C -0.2636(5) -0.032(3) 1.032(3)
H2C H -0.2812 -0.0532 1.0532
C9C C -0.47428(11) 0.032(5) 1.032(5)
O2X O -0.8877(10) -0.030(4) 1.030(4)
C1A C -0.8707(7) 0.0000 1.0000
C2A C -0.8138(5) 0.0000 1.0000
C3X C -0.7880(5) -0.032(3) 1.032(3)
H1X H -0.8056 -0.0532 1.0532
C4X C -0.7364(5) -0.032(3) 1.032(3)
H2X H -0.7188 -0.0532 1.0532
C5A C -0.7106(5) 0.0000 1.0000
C6A C -0.6538(4) 0.0000 1.0000
C7A C -0.6083(3) 0.0000 1.0000
C8A C -0.55143(15) 0.0000 1.0000
C9X C -0.52572(11) 0.032(5) 1.032(5)
O2Y O -0.1123(10) 0.030(4) 1.030(4)
C3Y C -0.2120(5) 0.032(3) 1.032(3)
H1Y H -0.1944 0.0532 1.0532
C4Y C -0.2636(5) 0.032(3) 1.032(3)
H2Y H -0.2812 0.0532 1.0532
C9Y C -0.47428(11) -0.032(5) 1.032(5)
O2Z O -0.1123(10) -0.030(4) 0.970(4)
C3Z C -0.2120(5) -0.032(3) 0.968(3)
H1Z H -0.1944 -0.0532 0.9468
C4Z C -0.2636(5) -0.032(3) 0.968(3)
H2Z H -0.2812 -0.0532 0.9468
C9Z C -0.47428(11) 0.032(5) 0.968(5)
O2AA O -0.8877(10) 0.030(4) 0.970(4)
C3AA C -0.7880(5) 0.032(3) 0.968(3)
H1AA H -0.8056 0.0532 0.9468
C4AA C -0.7364(5) 0.032(3) 0.968(3)
H2AA H -0.7188 0.0532 0.9468
C9AA C -0.52572(11) -0.032(5) 0.968(5)
O2A O -0.8877(10) -0.030(4) 0.970(4)
C3A C -0.7880(5) -0.032(3) 0.968(3)
H1A H -0.8056 -0.0532 0.9468
C4A C -0.7364(5) -0.032(3) 0.968(3)
H2A H -0.7188 -0.0532 0.9468
C9A C -0.52572(11) 0.032(5) 0.968(5)
O2B O -0.8877(10) 0.030(4) 1.030(4)
C3B C -0.7880(5) 0.032(3) 1.032(3)
H1B H -0.8056 0.0532 1.0532
C4B C -0.7364(5) 0.032(3) 1.032(3)
H2B H -0.7188 0.0532 1.0532
C9B C -0.52572(11) -0.032(5) 1.032(5)
Zn1A Zn -0.9574(5) -0.0426(5) 0.9574(5)
Zn1A_2 Zn 0.0426(5) -0.0426(5) 0.9574(5)
O2A_2 O 0.1123(10) -0.030(4) 0.970(4)
C1A_2 C 0.1293(7) 0.0000 1.0000
C2A_2 C 0.1862(5) 0.0000 1.0000
C3A_2 C 0.2120(5) -0.032(3) 0.968(3)
H1A_2 H 0.1944 -0.0532 0.9468
C4A_2 C 0.2636(5) -0.032(3) 0.968(3)
H2A_2 H 0.2812 -0.0532 0.9468
C5A_2 C 0.2894(5) 0.0000 1.0000
C6A_2 C 0.3462(4) 0.0000 1.0000
C7A_2 C 0.3917(3) 0.0000 1.0000
C8A_2 C 0.44857(15) 0.0000 1.0000
C9A_2 C 0.47428(11) 0.032(5) 0.968(5)
O2B_2 O 0.1123(10) 0.030(4) 1.030(4)
C3B_2 C 0.2120(5) 0.032(3) 1.032(3)
H1B_2 H 0.1944 0.0532 1.0532
C4B_2 C 0.2636(5) 0.032(3) 1.032(3)
H2B_2 H 0.2812 0.0532 1.0532
C9B_2 C 0.47428(11) -0.032(5) 1.032(5)
O2Y_2 O 0.8877(10) 0.030(4) 1.030(4)
C1_2 C 0.8707(7) 0.0000 1.0000
C2_2 C 0.8138(5) 0.0000 1.0000
C3Y_2 C 0.7880(5) 0.032(3) 1.032(3)
H1Y_2 H 0.8056 0.0532 1.0532
C4Y_2 C 0.7364(5) 0.032(3) 1.032(3)
H2Y_2 H 0.7188 0.0532 1.0532
C5_2 C 0.7106(5) 0.0000 1.0000
C6_2 C 0.6538(4) 0.0000 1.0000
C7_2 C 0.6083(3) 0.0000 1.0000
C8_2 C 0.55143(15) 0.0000 1.0000
C9Y_2 C 0.52572(11) -0.032(5) 1.032(5)
O2X_2 O 0.1123(10) -0.030(4) 1.030(4)
C3X_2 C 0.2120(5) -0.032(3) 1.032(3)
H1X_2 H 0.1944 -0.0532 1.0532
C4X_2 C 0.2636(5) -0.032(3) 1.032(3)
H2X_2 H 0.2812 -0.0532 1.0532
C9X_2 C 0.47428(11) 0.032(5) 1.032(5)
O2AA_2 O 0.1123(10) 0.030(4) 0.970(4)
C3AA_2 C 0.2120(5) 0.032(3) 0.968(3)
H1AA_2 H 0.1944 0.0532 0.9468
C4AA_2 C 0.2636(5) 0.032(3) 0.968(3)
H2AA_2 H 0.2812 0.0532 0.9468
C9AA_2 C 0.47428(11) -0.032(5) 0.968(5)
O2Z_2 O 0.8877(10) -0.030(4) 0.970(4)
C3Z_2 C 0.7880(5) -0.032(3) 0.968(3)
H1Z_2 H 0.8056 -0.0532 0.9468
C4Z_2 C 0.7364(5) -0.032(3) 0.968(3)
H2Z_2 H 0.7188 -0.0532 0.9468
C9Z_2 C 0.52572(11) 0.032(5) 0.968(5)
O2_2 O 0.8877(10) 0.030(4) 0.970(4)
C3_2 C 0.7880(5) 0.032(3) 0.968(3)
H1_2 H 0.8056 0.0532 0.9468
C4_2 C 0.7364(5) 0.032(3) 0.968(3)
H2_2 H 0.7188 0.0532 0.9468
C9_2 C 0.52572(11) -0.032(5) 0.968(5)
O2C_2 O 0.8877(10) -0.030(4) 1.030(4)
C3C_2 C 0.7880(5) -0.032(3) 1.032(3)
H1C_2 H 0.8056 -0.0532 1.0532
C4C_2 C 0.7364(5) -0.032(3) 1.032(3)
H2C_2 H 0.7188 -0.0532 1.0532
C9C_2 C 0.52572(11) 0.032(5) 1.032(5)
Zn1B Zn 0.0426(5) 0.0426(5) 1.0426(5)
Zn1C Zn -0.0426(5) -0.0426(5) 1.0426(5)
Zn1Y Zn -0.0426(5) 0.0426(5) 1.0426(5)
Zn1Z Zn -0.0426(5) -0.0426(5) 0.9574(5)
O2E O -0.030(4) 0.1123(10) 0.970(4)
C1E C 0.0000 0.1293(7) 1.0000
C2E C 0.0000 0.1862(5) 1.0000
C3E C -0.032(3) 0.2120(5) 0.968(3)
H1E H -0.0532 0.1944 0.9468
C4E C -0.032(3) 0.2636(5) 0.968(3)
H2E H -0.0532 0.2812 0.9468
C5E C 0.0000 0.2894(5) 1.0000
C6E C 0.0000 0.3462(4) 1.0000
C7E C 0.0000 0.3917(3) 1.0000
C8E C 0.0000 0.44857(15) 1.0000
C9E C -0.032(5) 0.47428(11) 1.032(5)
O2F O 0.030(4) 0.1123(10) 1.030(4)
C3F C 0.032(3) 0.2120(5) 1.032(3)
H1F H 0.0532 0.1944 1.0532
C4F C 0.032(3) 0.2636(5) 1.032(3)
H2F H 0.0532 0.2812 1.0532
C9F C 0.032(5) 0.47428(11) 0.968(5)
O2CA O 0.030(4) 0.8877(10) 1.030(4)
C1D C 0.0000 0.8707(7) 1.0000
C2D C 0.0000 0.8138(5) 1.0000
C3CA C 0.032(3) 0.7880(5) 1.032(3)
H1CA H 0.0532 0.8056 1.0532
C4CA C 0.032(3) 0.7364(5) 1.032(3)
H2CA H 0.0532 0.7188 1.0532
C5D C 0.0000 0.7106(5) 1.0000
C6D C 0.0000 0.6538(4) 1.0000
C7D C 0.0000 0.6083(3) 1.0000
C8D C 0.0000 0.55143(15) 1.0000
C9CA C 0.032(5) 0.52572(11) 0.968(5)
O2BA O 0.030(4) 0.1123(10) 0.970(4)
C3BA C 0.032(3) 0.2120(5) 0.968(3)
H1BA H 0.0532 0.1944 0.9468
C4BA C 0.032(3) 0.2636(5) 0.968(3)
H2BA H 0.0532 0.2812 0.9468
C9BA C 0.032(5) 0.47428(11) 1.032(5)
O2EA O -0.030(4) 0.1123(10) 1.030(4)
C3EA C -0.032(3) 0.2120(5) 1.032(3)
H1EA H -0.0532 0.1944 1.0532
C4EA C -0.032(3) 0.2636(5) 1.032(3)
H2EA H -0.0532 0.2812 1.0532
C9EA C -0.032(5) 0.47428(11) 0.968(5)
O2DA O -0.030(4) 0.8877(10) 0.970(4)
C3DA C -0.032(3) 0.7880(5) 0.968(3)
H1DA H -0.0532 0.8056 0.9468
C4DA C -0.032(3) 0.7364(5) 0.968(3)
H2DA H -0.0532 0.7188 0.9468
C9DA C -0.032(5) 0.52572(11) 1.032(5)
O2D O -0.030(4) 0.8877(10) 1.030(4)
C3D C -0.032(3) 0.7880(5) 1.032(3)
H1D H -0.0532 0.8056 1.0532
C4D C -0.032(3) 0.7364(5) 1.032(3)
H2D H -0.0532 0.7188 1.0532
C9D C -0.032(5) 0.52572(11) 0.968(5)
O2G O 0.030(4) 0.8877(10) 0.970(4)
C3G C 0.032(3) 0.7880(5) 0.968(3)
H1G H 0.0532 0.8056 0.9468
C4G C 0.032(3) 0.7364(5) 0.968(3)
H2G H 0.0532 0.7188 0.9468
C9G C 0.032(5) 0.52572(11) 1.032(5)
Zn1_2 Zn 0.9574(5) 0.0426(5) 0.9574(5)
Zn1A_3 Zn 0.0426(5) 0.9574(5) 0.9574(5)
Zn1B_2 Zn -0.9574(5) 0.0426(5) 1.0426(5)
Zn1C_2 Zn -0.0426(5) 0.9574(5) 1.0426(5)
Zn1C_3 Zn 0.9574(5) -0.0426(5) 1.0426(5)
Zn1X Zn -0.9574(5) -0.0426(5) 1.0426(5)
Zn1X_2 Zn 0.0426(5) -0.0426(5) 1.0426(5)
Zn1X_3 Zn 0.0426(5) 0.9574(5) 1.0426(5)
Zn1Y_2 Zn 0.9574(5) 0.0426(5) 1.0426(5)
Zn1Z_2 Zn -0.0426(5) 0.9574(5) 0.9574(5)
Zn1Z_3 Zn 0.9574(5) -0.0426(5) 0.9574(5)
Zn1AA Zn -0.9574(5) 0.0426(5) 0.9574(5)
Zn1AA_2 Zn 0.0426(5) 0.0426(5) 0.9574(5)
O1_2 O -1.0000 0.0000 1.0000
O2D_2 O -0.030(4) -0.1123(10) 1.030(4)
O2G_2 O -0.970(4) -0.1123(10) 0.970(4)
O2G_3 O 0.030(4) -0.1123(10) 0.970(4)
O2H O -0.970(4) -0.030(4) 0.8877(10)
O2H_2 O 0.030(4) -0.030(4) 0.8877(10)
O2I O -0.030(4) -0.030(4) 1.1123(10)
O2J O 0.030(4) 0.030(4) 1.1123(10)
O2K O -0.030(4) 0.030(4) 0.8877(10)
O2DA_2 O -0.030(4) -0.1123(10) 0.970(4)
O2FA O -0.030(4) 0.030(4) 1.1123(10)
O2HA O -0.030(4) -0.030(4) 0.8877(10)
loop_
_geom_bond_atom_site_label_1
_geom_bond_atom_site_label_2
_geom_bond_site_symmetry_1
_geom_bond_site_symmetry_2
Zn1 O1 1_555 1_555
O1 Zn1A_2 1_555 1_555
O2 Zn1 1_555 1_555
C1 O2 1_555 1_555
C2 C1 1_555 1_555
C3 C2 1_555 1_555
H1 C3 1_555 1_555
C4 C3 1_555 1_555
H2 C4 1_555 1_555
C5 C4 1_555 1_555
C6 C5 1_555 1_555
C7 C6 1_555 1_555
C8 C7 1_555 1_555
C9 C8 1_555 1_555
O2C C1 1_555 1_555
C3C C2 1_555 1_555
H1C C3C 1_555 1_555
C4C C5 1_555 1_555
H2C C4C 1_555 1_555
C9C C8 1_555 1_555
O2X C1A 1_555 1_555
C1A C2A 1_555 1_555
C2A C3X 1_555 1_555
C3X H1X 1_555 1_555
C4X C3X 1_555 1_555
H2X C4X 1_555 1_555
C5A C4X 1_555 1_555
C6A C5A 1_555 1_555
C7A C6A 1_555 1_555
C8A C7A 1_555 1_555
C9X C9C 1_555 1_555
O2Y C1 1_555 1_555
C3Y C2 1_555 1_555
H1Y C3Y 1_555 1_555
C4Y C4 1_555 1_555
H2Y C4Y 1_555 1_555
C9Y C8 1_555 1_555
O2Z C1 1_555 1_555
C3Z C2 1_555 1_555
H1Z C3Z 1_555 1_555
C4Z C4 1_555 1_555
H2Z C4Z 1_555 1_555
C9Z C8 1_555 1_555
O2AA C1A 1_555 1_555
C3AA C2A 1_555 1_555
H1AA C3AA 1_555 1_555
C4AA C5A 1_555 1_555
H2AA C4AA 1_555 1_555
C9AA C9 1_555 1_555
O2A C1A 1_555 1_555
C3A C2A 1_555 1_555
H1A C3A 1_555 1_555
C4A C4X 1_555 1_555
H2A C4A 1_555 1_555
C9A C8A 1_555 1_555
O2B C1A 1_555 1_555
C3B C2A 1_555 1_555
H1B C3B 1_555 1_555
C4B C4X 1_555 1_555
H2B C4B 1_555 1_555
C9B C8A 1_555 1_555
Zn1A O2A 1_555 1_555
Zn1A_2 O2A_2 1_555 1_555
O2A_2 C1A_2 1_555 1_555
C1A_2 C2A_2 1_555 1_555
C2A_2 C3A_2 1_555 1_555
C3A_2 H1A_2 1_555 1_555
C4A_2 C3A_2 1_555 1_555
H2A_2 C4A_2 1_555 1_555
C5A_2 C4A_2 1_555 1_555
C6A_2 C5A_2 1_555 1_555
C7A_2 C6A_2 1_555 1_555
C8A_2 C7A_2 1_555 1_555
C9A_2 C8A_2 1_555 1_555
O2B_2 C1A_2 1_555 1_555
C3B_2 C2A_2 1_555 1_555
H1B_2 C3B_2 1_555 1_555
C4B_2 C5A_2 1_555 1_555
H2B_2 C4B_2 1_555 1_555
C9B_2 C8A_2 1_555 1_555
O2Y_2 C1_2 1_555 1_555
C1_2 C2_2 1_555 1_555
C2_2 C3Y_2 1_555 1_555
C3Y_2 H1Y_2 1_555 1_555
C4Y_2 C3Y_2 1_555 1_555
H2Y_2 C4Y_2 1_555 1_555
C5_2 C4Y_2 1_555 1_555
C6_2 C5_2 1_555 1_555
C7_2 C6_2 1_555 1_555
C8_2 C7_2 1_555 1_555
C9Y_2 C9B_2 1_555 1_555
O2X_2 C1A_2 1_555 1_555
C3X_2 C2A_2 1_555 1_555
H1X_2 C3X_2 1_555 1_555
C4X_2 C4A_2 1_555 1_555
H2X_2 C4X_2 1_555 1_555
C9X_2 C8A_2 1_555 1_555
O2AA_2 C1A_2 1_555 1_555
C3AA_2 C2A_2 1_555 1_555
H1AA_2 C3AA_2 1_555 1_555
C4AA_2 C4A_2 1_555 1_555
H2AA_2 C4AA_2 1_555 1_555
C9AA_2 C8A_2 1_555 1_555
O2Z_2 C1_2 1_555 1_555
C3Z_2 C2_2 1_555 1_555
H1Z_2 C3Z_2 1_555 1_555
C4Z_2 C5_2 1_555 1_555
H2Z_2 C4Z_2 1_555 1_555
C9Z_2 C9A_2 1_555 1_555
O2_2 C1_2 1_555 1_555
C3_2 C2_2 1_555 1_555
H1_2 C3_2 1_555 1_555
C4_2 C4Y_2 1_555 1_555
H2_2 C4_2 1_555 1_555
C9_2 C8_2 1_555 1_555
O2C_2 C1_2 1_555 1_555
C3C_2 C2_2 1_555 1_555
H1C_2 C3C_2 1_555 1_555
C4C_2 C4Y_2 1_555 1_555
H2C_2 C4C_2 1_555 1_555
C9C_2 C8_2 1_555 1_555
Zn1B O1 1_555 1_555
Zn1C O1 1_555 1_555
Zn1Y O1 1_555 1_555
Zn1Z O1 1_555 1_555
O2E Zn1 1_555 1_555
C1E O2E 1_555 1_555
C2E C1E 1_555 1_555
C3E C2E 1_555 1_555
H1E C3E 1_555 1_555
C4E C3E 1_555 1_555
H2E C4E 1_555 1_555
C5E C4E 1_555 1_555
C6E C5E 1_555 1_555
C7E C6E 1_555 1_555
C8E C7E 1_555 1_555
C9E C8E 1_555 1_555
O2F Zn1B 1_555 1_555
C3F C2E 1_555 1_555
H1F C3F 1_555 1_555
C4F C5E 1_555 1_555
H2F C4F 1_555 1_555
C9F C8E 1_555 1_555
O2CA C1D 1_555 1_555
C1D C2D 1_555 1_555
C2D C3CA 1_555 1_555
C3CA H1CA 1_555 1_555
C4CA C3CA 1_555 1_555
H2CA C4CA 1_555 1_555
C5D C4CA 1_555 1_555
C6D C5D 1_555 1_555
C7D C6D 1_555 1_555
C8D C7D 1_555 1_555
C9CA C9F 1_555 1_555
O2BA C1E 1_555 1_555
C3BA C2E 1_555 1_555
H1BA C3BA 1_555 1_555
C4BA C4E 1_555 1_555
H2BA C4BA 1_555 1_555
C9BA C8E 1_555 1_555
O2EA Zn1Y 1_555 1_555
C3EA C2E 1_555 1_555
H1EA C3EA 1_555 1_555
C4EA C4E 1_555 1_555
H2EA C4EA 1_555 1_555
C9EA C8E 1_555 1_555
O2DA C1D 1_555 1_555
C3DA C2D 1_555 1_555
H1DA C3DA 1_555 1_555
C4DA C5D 1_555 1_555
H2DA C4DA 1_555 1_555
C9DA C9E 1_555 1_555
O2D C1D 1_555 1_555
C3D C2D 1_555 1_555
H1D C3D 1_555 1_555
C4D C4CA 1_555 1_555
H2D C4D 1_555 1_555
C9D C8D 1_555 1_555
O2G C1D 1_555 1_555
C3G C2D 1_555 1_555
H1G C3G 1_555 1_555
C4G C4CA 1_555 1_555
H2G C4G 1_555 1_555
C9G C8D 1_555 1_555
Zn1_2 O2_2 1_555 1_555
Zn1A_3 O2G 1_555 1_555
Zn1B_2 O2B 1_555 1_555
Zn1C_2 O2D 1_555 1_555
Zn1C_3 O2C_2 1_555 1_555
Zn1X O2X 1_555 1_555
Zn1X_2 O1 1_555 1_555
Zn1X_3 O2CA 1_555 1_555
Zn1Y_2 O2Y_2 1_555 1_555
Zn1Z_2 O2DA 1_555 1_555
Zn1Z_3 O2Z_2 1_555 1_555
Zn1AA O2AA 1_555 1_555
Zn1AA_2 O1 1_555 1_555
O1_2 Zn1A 1_555 1_555
O2D_2 Zn1C 1_555 1_555
O2G_2 Zn1A 1_555 1_555
O2G_3 Zn1A_2 1_555 1_555
O2H Zn1A 1_555 1_555
O2H_2 Zn1A_2 1_555 1_555
O2I Zn1C 1_555 1_555
O2J Zn1B 1_555 1_555
O2K Zn1 1_555 1_555
O2DA_2 Zn1Z 1_555 1_555
O2FA Zn1Y 1_555 1_555
O2HA Zn1Z 1_555 1_555
C3 C3Y 1_555 1_555
C3 C3Z 1_555 1_555
C5 C4Y 1_555 1_555
C5 C4Z 1_555 1_555
C9 C9Y 1_555 1_555
C9 C9Z 1_555 1_555
O2C Zn1C 1_555 1_555
C3C C4C 1_555 1_555
C3C C3Y 1_555 1_555
C3C C3Z 1_555 1_555
C4C C4Y 1_555 1_555
C4C C4Z 1_555 1_555
C9C C9Y 1_555 1_555
C9C C9Z 1_555 1_555
C3X C3A 1_555 1_555
C3X C3B 1_555 1_555
C5A C4A 1_555 1_555
C5A C4B 1_555 1_555
C8A C9X 1_555 1_555
C8A C9AA 1_555 1_555
C9X C9A 1_555 1_555
C9X C9B 1_555 1_555
O2Y Zn1Y 1_555 1_555
C3Y C4Y 1_555 1_555
C9Y C9B 1_555 1_555
O2Z Zn1Z 1_555 1_555
C3Z C4Z 1_555 1_555
C9Z C9A 1_555 1_555
C3AA C4AA 1_555 1_555
C3AA C3A 1_555 1_555
C3AA C3B 1_555 1_555
C4AA C4A 1_555 1_555
C4AA C4B 1_555 1_555
C9AA C9A 1_555 1_555
C9AA C9B 1_555 1_555
C3A C4A 1_555 1_555
C3B C4B 1_555 1_555
C3A_2 C3X_2 1_555 1_555
C3A_2 C3AA_2 1_555 1_555
C5A_2 C4X_2 1_555 1_555
C5A_2 C4AA_2 1_555 1_555
C9A_2 C9X_2 1_555 1_555
C9A_2 C9AA_2 1_555 1_555
O2B_2 Zn1B 1_555 1_555
C3B_2 C4B_2 1_555 1_555
C3B_2 C3X_2 1_555 1_555
C3B_2 C3AA_2 1_555 1_555
C4B_2 C4X_2 1_555 1_555
C4B_2 C4AA_2 1_555 1_555
C9B_2 C9X_2 1_555 1_555
C9B_2 C9AA_2 1_555 1_555
C3Y_2 C3_2 1_555 1_555
C3Y_2 C3C_2 1_555 1_555
C5_2 C4_2 1_555 1_555
C5_2 C4C_2 1_555 1_555
C8_2 C9Y_2 1_555 1_555
C8_2 C9Z_2 1_555 1_555
C9Y_2 C9_2 1_555 1_555
C9Y_2 C9C_2 1_555 1_555
O2X_2 Zn1X_2 1_555 1_555
C3X_2 C4X_2 1_555 1_555
C9X_2 C9C_2 1_555 1_555
O2AA_2 Zn1AA_2 1_555 1_555
C3AA_2 C4AA_2 1_555 1_555
C9AA_2 C9_2 1_555 1_555
C3Z_2 C4Z_2 1_555 1_555
C3Z_2 C3_2 1_555 1_555
C3Z_2 C3C_2 1_555 1_555
C4Z_2 C4_2 1_555 1_555
C4Z_2 C4C_2 1_555 1_555
C9Z_2 C9_2 1_555 1_555
C9Z_2 C9C_2 1_555 1_555
C3_2 C4_2 1_555 1_555
C3C_2 C4C_2 1_555 1_555
C1E O2F 1_555 1_555
C1E O2EA 1_555 1_555
C3E C3BA 1_555 1_555
C3E C3EA 1_555 1_555
C5E C4BA 1_555 1_555
C5E C4EA 1_555 1_555
C9E C9BA 1_555 1_555
C9E C9EA 1_555 1_555
C3F C4F 1_555 1_555
C3F C3BA 1_555 1_555
C3F C3EA 1_555 1_555
C4F C4BA 1_555 1_555
C4F C4EA 1_555 1_555
C9F C9BA 1_555 1_555
C9F C9EA 1_555 1_555
C3CA C3D 1_555 1_555
C3CA C3G 1_555 1_555
C5D C4D 1_555 1_555
C5D C4G 1_555 1_555
C8D C9CA 1_555 1_555
C8D C9DA 1_555 1_555
C9CA C9D 1_555 1_555
C9CA C9G 1_555 1_555
O2BA Zn1AA_2 1_555 1_555
C3BA C4BA 1_555 1_555
C9BA C9G 1_555 1_555
C3EA C4EA 1_555 1_555
C9EA C9D 1_555 1_555
C3DA C4DA 1_555 1_555
C3DA C3D 1_555 1_555
C3DA C3G 1_555 1_555
C4DA C4D 1_555 1_555
C4DA C4G 1_555 1_555
C9DA C9D 1_555 1_555
C9DA C9G 1_555 1_555
C3D C4D 1_555 1_555
C3G C4G 1_555 1_555
Zn1B_2 O1_2 1_555 1_555
Zn1X O1_2 1_555 1_555
Zn1AA O1_2 1_555 1_555

#END
