
#######################################################################
#
#                 Cambridge Crystallographic Data Centre
#                                CCDC 
#
#######################################################################
#
# If this CIF has been generated from an entry in the Cambridge 
# Structural Database, then it will include bibliographic, chemical, 
# crystal, experimental, refinement or atomic coordinate data resulting 
# from the CCDC's data processing and validation procedures.
#
#######################################################################

data_QADBII
_chemical_formula_moiety         '(C19 H33 N1 O5 Sn2)n'
_symmetry_cell_setting           orthorhombic
_symmetry_space_group_name_H-M   'P 21 21 21'
_symmetry_Int_Tables_number      19
_space_group_name_Hall           'P 2ac 2ab'
loop_
_symmetry_equiv_pos_site_id
_symmetry_equiv_pos_as_xyz
1 x,y,z
2 1/2-x,-y,1/2+z
3 -x,1/2+y,1/2-z
4 1/2+x,1/2-y,-z
_cell_length_a                   10.0725(12)
_cell_length_b                   10.2297(13)
_cell_length_c                   23.500(2)
_cell_angle_alpha                90
_cell_angle_beta                 90
_cell_angle_gamma                90
_cell_volume                     2421.41
loop_
_atom_site_label
_atom_site_type_symbol
_atom_site_fract_x
_atom_site_fract_y
_atom_site_fract_z
_atom_site_U_iso_or_equiv
_atom_site_thermal_displace_type
Sn1 Sn 0.45274(12) 0.32193(12) 0.76461(5) 0.0588 Uani
Sn2 Sn 0.32601(13) 0.69968(15) 0.52513(5) 0.0675 Uani
O1 O 0.5332(15) 0.5100(13) 0.7155(5) 0.0643 Uani
O2 O 0.6445(12) 0.6802(14) 0.6800(5) 0.0667 Uani
O3 O 0.4911(13) 0.5950(15) 0.5693(5) 0.0687 Uani
O4 O 0.6352(14) 0.6958(16) 0.5116(6) 0.0790 Uani
C1 C 0.616(2) 0.555(2) 0.6802(8) 0.0637 Uani
C2 C 0.677(2) 0.474(2) 0.6370(8) 0.0670 Uani
H1 H 0.6128 0.4072 0.6254 0.0800 Uiso
C3 C 0.720(2) 0.551(2) 0.5836(8) 0.0697 Uani
H2 H 0.7881 0.6132 0.5943 0.0830 Uiso
H3 H 0.7598 0.4899 0.5567 0.0830 Uiso
C4 C 0.610(2) 0.621(2) 0.5549(8) 0.0660 Uani
C5 C 0.799(2) 0.4073(17) 0.6594(8) 0.0730 Uani
C6 C 0.886(2) 0.479(2) 0.6924(10) 0.0857 Uani
H4 H 0.8728 0.5679 0.6988 0.1030 Uiso
C7 C 0.992(2) 0.415(2) 0.7154(11) 0.0967 Uani
H5 H 1.0486 0.4593 0.7401 0.1160 Uiso
C8 C 1.019(2) 0.282(2) 0.7026(11) 0.0940 Uani
H6 H 1.0994 0.2441 0.7131 0.1130 Uiso
C9 C 0.924(2) 0.211(2) 0.6742(10) 0.0900 Uani
H7 H 0.9344 0.1217 0.6689 0.1080 Uiso
C10 C 0.812(2) 0.2744(18) 0.6534(10) 0.0843 Uani
H8 H 0.7453 0.2265 0.6353 0.1010 Uiso
C11 C 0.6465(19) 0.293(2) 0.7941(9) 0.0713 Uani
H9 H 0.6813 0.3735 0.8085 0.1070 Uiso
H10 H 0.7013 0.2623 0.7634 0.1070 Uiso
H11 H 0.6459 0.2286 0.8240 0.1070 Uiso
C12 C 0.384(3) 0.241(3) 0.6852(10) 0.0870 Uani
H12 H 0.4583 0.2313 0.6597 0.1310 Uiso
H13 H 0.3199 0.2983 0.6686 0.1310 Uiso
H14 H 0.3449 0.1570 0.6920 0.1310 Uiso
C13 C 0.328(3) 0.461(2) 0.7995(10) 0.0817 Uani
H15 H 0.3083 0.4377 0.8382 0.1230 Uiso
H16 H 0.2476 0.4649 0.7779 0.1230 Uiso
H17 H 0.3714 0.5446 0.7988 0.1230 Uiso
C14 C 0.188(3) 0.604(3) 0.5796(10) 0.0943 Uani
H18 H 0.1088 0.5829 0.5584 0.1420 Uiso
H19 H 0.1651 0.6605 0.6107 0.1420 Uiso
H20 H 0.2264 0.5249 0.5941 0.1420 Uiso
C15 C 0.356(3) 0.623(3) 0.4463(10) 0.0880 Uani
H21 H 0.2767 0.6315 0.4242 0.1320 Uiso
H22 H 0.3795 0.5325 0.4497 0.1320 Uiso
H23 H 0.4272 0.6694 0.4279 0.1320 Uiso
C16 C 0.396(2) 0.893(2) 0.5497(9) 0.0787 Uani
H24 H 0.4873 0.8871 0.5613 0.1180 Uiso
H25 H 0.3433 0.9249 0.5807 0.1180 Uiso
H26 H 0.3887 0.9510 0.5179 0.1180 Uiso
Sn1B Sn 0.54726(12) 0.82193(12) 0.73539(5) 0.0588 Uani
Sn2C Sn 0.82601(13) 0.80032(15) 0.47487(5) 0.0675 Uani
O2B O 0.3555(12) 0.1802(14) 0.8200(5) 0.0667 Uani
O4C O 0.1352(14) 0.8042(16) 0.4884(6) 0.0790 Uani
N1 N 0.065(10) 0.215(6) 0.507(4) 0.1933 Uani
O5 O 0.066(7) 0.359(5) 0.463(4) 0.2033 Uani
C17 C 0.157(7) 0.285(10) 0.480(5) 0.2000 Uani
H27 H 0.2482 0.2808 0.4749 0.2390 Uiso
C18 C 0.175(12) 0.22(2) 0.550(8) 0.1933 Uani
H28 H 0.1873 0.3052 0.5632 0.2970 Uiso
H29 H 0.2553 0.1871 0.5323 0.2970 Uiso
H30 H 0.1526 0.1616 0.5811 0.2970 Uiso
C19 C -0.060(8) 0.271(4) 0.528(6) 0.2033 Uani
H31 H -0.0470 0.3029 0.5665 0.3070 Uiso
H32 H -0.1273 0.2051 0.5284 0.3070 Uiso
H33 H -0.0864 0.3421 0.5043 0.3070 Uiso
loop_
_atom_site_aniso_label
_atom_site_aniso_U_11
_atom_site_aniso_U_22
_atom_site_aniso_U_33
_atom_site_aniso_U_23
_atom_site_aniso_U_13
_atom_site_aniso_U_12
Sn1 0.0655(7) 0.0566(6) 0.0544(6) 0.0011(6) 0.0107(5) 0.0028(6)
Sn2 0.0600(7) 0.0843(10) 0.0581(7) 0.0185(7) -0.0066(5) -0.0062(7)
O1 0.076(8) 0.066(7) 0.051(6) 0.012(5) 0.019(6) -0.002(7)
O2 0.067(7) 0.067(8) 0.066(7) 0.016(7) 0.015(6) 0.003(7)
O3 0.063(8) 0.085(9) 0.058(6) 0.026(6) 0.009(6) -0.003(7)
O4 0.066(8) 0.100(11) 0.071(8) 0.036(8) 0.012(6) -0.006(8)
C1 0.068(11) 0.066(11) 0.057(9) 0.015(9) 0.004(9) 0.004(9)
C2 0.066(11) 0.073(11) 0.062(10) 0.015(9) 0.011(9) 0.007(10)
C3 0.066(11) 0.078(13) 0.065(10) 0.012(10) 0.011(9) -0.001(10)
C4 0.060(11) 0.081(12) 0.057(10) 0.022(9) -0.001(9) 0.006(10)
C5 0.071(13) 0.080(14) 0.068(11) 0.018(10) 0.005(10) 0.006(11)
C6 0.085(14) 0.086(15) 0.086(15) 0.010(13) 0.001(13) 0.005(13)
C7 0.089(16) 0.101(19) 0.100(16) 0.018(15) -0.009(14) 0.004(15)
C8 0.083(15) 0.101(18) 0.098(16) 0.023(14) -0.012(13) 0.014(14)
C9 0.091(16) 0.080(14) 0.099(16) 0.020(13) 0.002(12) 0.013(13)
C10 0.080(14) 0.082(14) 0.091(14) 0.005(12) 0.001(12) 0.011(12)
C11 0.065(11) 0.083(14) 0.066(10) -0.009(10) -0.002(8) 0.005(10)
C12 0.109(17) 0.086(15) 0.066(12) 0.005(11) 0.012(12) -0.003(13)
C13 0.089(14) 0.063(11) 0.093(15) 0.039(11) 0.015(13) 0.015(12)
C14 0.087(16) 0.115(19) 0.081(14) 0.031(14) 0.003(12) -0.021(16)
C15 0.093(17) 0.092(15) 0.079(13) 0.007(12) -0.017(12) 0.002(13)
C16 0.084(14) 0.088(14) 0.064(11) 0.009(11) -0.016(11) -0.002(12)
Sn1B 0.0655 0.0566 0.0544 -0.0011 0.0107 -0.0028
Sn2C 0.06 0.0843 0.0581 0.0185 0.0066 0.0062
O2B 0.067 0.067 0.066 -0.016 0.015 -0.003
O4C 0.066 0.1 0.071 0.036 -0.012 0.006
N1 0.19(10) 0.21(10) 0.18(9) -0.01(8) 0.05(8) 0.00(10)
O5 0.19(7) 0.23(8) 0.19(7) -0.02(6) 0.05(6) 0.00(5)
C17 0.20(11) 0.21(12) 0.19(11) -0.01(9) 0.04(9) 0.00(9)
C18 0.19(12) 0.2(2) 0.19(15) -0.01(15) 0.04(12) 0.00(16)
C19 0.20(12) 0.22(13) 0.19(12) 0.00(10) 0.05(11) 0.00(10)
loop_
_geom_bond_atom_site_label_1
_geom_bond_atom_site_label_2
_geom_bond_site_symmetry_1
_geom_bond_site_symmetry_2
Sn1 O1 1_555 1_555
Sn2 O3 1_555 1_555
N1 C17 1_555 1_555
O1 C1 1_555 1_555
O2 C1 1_555 1_555
O3 C4 1_555 1_555
O4 C4 1_555 1_555
O5 C17 1_555 1_555
C1 C2 1_555 1_555
C2 H1 1_555 1_555
C3 C2 1_555 1_555
H2 C3 1_555 1_555
H3 C3 1_555 1_555
C4 C3 1_555 1_555
C5 C2 1_555 1_555
C6 C5 1_555 1_555
H4 C6 1_555 1_555
C7 C6 1_555 1_555
H5 C7 1_555 1_555
C8 C7 1_555 1_555
H6 C8 1_555 1_555
C9 C8 1_555 1_555
H7 C9 1_555 1_555
C10 C5 1_555 1_555
H8 C10 1_555 1_555
C11 Sn1 1_555 1_555
H9 C11 1_555 1_555
H10 C11 1_555 1_555
H11 C11 1_555 1_555
C12 Sn1 1_555 1_555
H12 C12 1_555 1_555
H13 C12 1_555 1_555
H14 C12 1_555 1_555
C13 Sn1 1_555 1_555
H15 C13 1_555 1_555
H16 C13 1_555 1_555
H17 C13 1_555 1_555
C14 Sn2 1_555 1_555
H18 C14 1_555 1_555
H19 C14 1_555 1_555
H20 C14 1_555 1_555
C15 Sn2 1_555 1_555
H21 C15 1_555 1_555
H22 C15 1_555 1_555
H23 C15 1_555 1_555
C16 Sn2 1_555 1_555
H24 C16 1_555 1_555
H25 C16 1_555 1_555
H26 C16 1_555 1_555
C17 H27 1_555 1_555
C18 N1 1_555 1_555
H28 C18 1_555 1_555
H29 C18 1_555 1_555
H30 C18 1_555 1_555
C19 N1 1_555 1_555
H31 C19 1_555 1_555
H32 C19 1_555 1_555
H33 C19 1_555 1_555
Sn1B O2 1_555 1_555
Sn2C O4 1_555 1_555
O2B Sn1 1_555 1_555
O4C Sn2 1_555 1_555
C9 C10 1_555 1_555

#END
