
#######################################################################
#
#                 Cambridge Crystallographic Data Centre
#                                CCDC 
#
#######################################################################
#
# If this CIF has been generated from an entry in the Cambridge 
# Structural Database, then it will include bibliographic, chemical, 
# crystal, experimental, refinement or atomic coordinate data resulting 
# from the CCDC's data processing and validation procedures.
#
#######################################################################

data_OQUWUU
_chemical_formula_moiety         '(C96 H92 Co5 N32 O86 P2 W24)n'
_symmetry_cell_setting           orthorhombic
_symmetry_space_group_name_H-M   'P b c n'
_symmetry_Int_Tables_number      60
_space_group_name_Hall           '-P 2n 2ab'
loop_
_symmetry_equiv_pos_site_id
_symmetry_equiv_pos_as_xyz
1 x,y,z
2 1/2-x,1/2-y,1/2+z
3 1/2+x,1/2-y,-z
4 -x,y,1/2-z
5 -x,-y,-z
6 1/2+x,1/2+y,1/2-z
7 1/2-x,1/2+y,z
8 x,-y,1/2+z
_cell_length_a                   27.249(5)
_cell_length_b                   27.420(5)
_cell_length_c                   25.189(5)
_cell_angle_alpha                90
_cell_angle_beta                 90
_cell_angle_gamma                90
_cell_volume                     18820.4
loop_
_atom_site_label
_atom_site_type_symbol
_atom_site_fract_x
_atom_site_fract_y
_atom_site_fract_z
W1 W 0.191578(15) 0.819956(15) 0.623289(17)
W2 W 0.036846(15) 0.886586(16) 0.465668(18)
W3 W 0.207415(17) 0.762212(17) 0.391501(19)
W4 W 0.146024(18) 0.930207(17) 0.41937(2)
W5 W 0.256119(18) 0.755895(19) 0.51486(2)
W6 W 0.089188(19) 0.715183(19) 0.43969(2)
W7 W 0.137558(18) 0.709269(17) 0.56367(2)
W8 W 0.032336(17) 0.772421(18) 0.542647(19)
W9 W 0.260237(18) 0.863092(18) 0.44661(2)
W10 W 0.086138(18) 0.882818(18) 0.60168(2)
W11 W 0.196330(18) 0.926449(17) 0.55583(2)
W12 W 0.09440(2) 0.82986(2) 0.36378(2)
Co1 Co -0.09850(5) 0.91062(5) 0.47069(6)
Co2 Co 0.25113(5) 0.71621(5) 0.25760(5)
P1 P 0.14452(8) 0.82089(8) 0.49435(9)
O1 O 0.1527(2) 0.8485(2) 0.5465(3)
O2 O 0.1568(3) 0.9858(3) 0.3925(3)
O3 O -0.0196(3) 0.9139(3) 0.4640(3)
O4 O -0.0249(3) 0.7606(3) 0.5657(3)
O5 O 0.2259(3) 0.7326(3) 0.3353(3)
O6 O 0.2245(3) 0.9790(3) 0.5722(4)
O7 O 0.1946(2) 0.8065(2) 0.4709(3)
O8 O 0.1242(3) 0.8934(3) 0.3608(3)
O9 O 0.1561(3) 0.7226(2) 0.4154(3)
O10 O 0.2424(3) 0.8961(3) 0.5104(3)
O11 O 0.0758(3) 0.8222(4) 0.3011(3)
O12 O 0.0478(3) 0.9092(3) 0.6450(3)
O13 O 0.0592(3) 0.9020(3) 0.5351(3)
O14 O 0.0677(3) 0.6686(3) 0.4015(4)
O15 O 0.1354(3) 0.9324(3) 0.5939(3)
O16 O 0.1170(2) 0.8537(2) 0.4548(3)
O17 O 0.0558(3) 0.8215(3) 0.5892(3)
O18 O 0.0696(3) 0.7245(3) 0.5793(3)
O19 O 0.1151(3) 0.6801(3) 0.4997(3)
O20 O 0.2523(3) 0.8165(3) 0.3909(3)
O21 O 0.1617(3) 0.9434(3) 0.4929(3)
O22 O 0.1558(3) 0.7619(3) 0.6095(3)
O23 O 0.2388(3) 0.7951(3) 0.5748(3)
O24 O 0.2499(3) 0.7338(3) 0.4435(3)
O25 O 0.0219(3) 0.8244(3) 0.4928(3)
O26 O 0.2172(3) 0.8839(3) 0.6124(3)
O27 O 0.0387(3) 0.8596(3) 0.3958(3)
O28 O 0.1587(3) 0.8036(3) 0.3636(3)
O29 O 0.2895(3) 0.8124(3) 0.4870(3)
O30 O 0.2011(3) 0.7172(3) 0.5332(3)
O31 O 0.0327(3) 0.7291(3) 0.4815(3)
O32 O 0.0779(3) 0.9381(3) 0.4391(3)
O33 O 0.0764(3) 0.7701(3) 0.3969(3)
O34 O 0.1141(2) 0.7749(2) 0.5053(3)
O35 O 0.2189(3) 0.8061(3) 0.6823(3)
O36 O 0.1326(3) 0.8497(3) 0.6472(3)
O37 O 0.1455(3) 0.6590(3) 0.6025(4)
O38 O 0.3101(3) 0.8942(3) 0.4250(4)
O39 O 0.3043(3) 0.7235(3) 0.5376(4)
O40 O 0.2076(3) 0.8998(3) 0.4158(3)
O41 O -0.0887(3) 0.9886(3) 0.4738(3)
O42 O -0.1040(3) 0.8325(3) 0.4672(4)
Co3 Co -0.5000 1.0472(3) 0.7500
N1 N -0.4501(10) 0.9961(10) 0.7184(16)
N2 N -0.2481(4) 0.9245(4) 0.5153(5)
N3 N 0.3228(3) 0.7330(3) 0.2846(4)
N4 N -0.3878(7) 0.9609(8) 0.6765(9)
N5 N 0.4033(4) 0.7375(4) 0.2861(4)
N6 N -0.0880(5) 1.0572(4) 0.8062(4)
N7 N -0.1758(4) 0.9154(4) 0.4783(5)
N8 N 0.2257(4) 1.0649(4) 0.2819(4)
N9 N 0.2447(4) 0.7889(4) 0.2286(4)
N10 N 0.2398(4) 0.8682(4) 0.2217(4)
N11 N 0.1803(4) 0.7028(5) 0.2280(5)
N12 N -0.0715(5) 0.9261(4) 0.6365(4)
N13 N 0.0993(5) 0.6995(5) 0.2225(5)
N14 N -0.0985(4) 1.0858(4) 0.8869(4)
N15 N 0.2371(4) 1.1443(4) 0.2828(4)
N16 N -0.0836(4) 0.9053(4) 0.5522(4)
C1 C -0.4195(10) 0.9963(11) 0.6809(11)
H1 H -0.4195 1.0216 0.6564
C2 C -0.394(2) 0.931(2) 0.716(2)
H2 H -0.3794 0.9011 0.7241
C3 C -0.4336(18) 0.9592(18) 0.747(2)
H3 H -0.4445 0.9514 0.7805
C4 C 0.1693(11) 0.7017(10) 0.1779(12)
H4 H 0.1918 0.7023 0.1501
C5 C 0.1174(12) 0.6992(12) 0.1719(13)
H5 H 0.0996 0.6977 0.1404
C6 C 0.0340(8) 0.7105(8) 0.2847(10)
H6 H 0.0567 0.7226 0.3090
C7 C 0.0149(7) 0.7032(9) 0.1996(9)
H7 H 0.0232 0.7007 0.1639
C8 C 0.2648(8) 0.8040(8) 0.1819(9)
H8 H 0.2786 0.7831 0.1570
C9 C -0.3529(6) 0.9515(8) 0.6319(9)
C10 C -0.3430(7) 0.9056(8) 0.6175(9)
H9 H -0.3597 0.8799 0.6335
C11 C -0.3071(6) 0.8959(7) 0.5775(9)
H10 H -0.2990 0.8642 0.5681
C12 C 0.2623(6) 0.8532(7) 0.1760(7)
H11 H 0.2732 0.8721 0.1477
C13 C -0.2548(6) 0.8970(6) 0.4690(7)
H12 H -0.2841 0.8853 0.4551
C14 C 0.3876(5) 0.7597(8) 0.3303(7)
H13 H 0.4068 0.7740 0.3566
C15 C -0.1043(7) 1.1233(6) 0.8509(6)
H14 H -0.1120 1.1554 0.8593
C16 C -0.3286(8) 0.9910(7) 0.6088(9)
H15 H -0.3346 1.0227 0.6202
C17 C 0.4619(5) 0.7322(7) 0.2137(6)
H16 H 0.4364 0.7318 0.1892
C18 C 0.2261(6) 0.9540(5) 0.1977(6)
H17 H 0.2231 0.9455 0.1621
C19 C -0.2960(6) 0.9819(5) 0.5689(7)
H18 H -0.2809 1.0078 0.5516
C20 C -0.0754(7) 0.8766(5) 0.6344(6)
H19 H -0.0734 0.8557 0.6634
C21 C -0.0824(7) 0.8628(5) 0.5842(6)
H20 H -0.0860 0.8309 0.5723
C22 C 0.2330(7) 0.9799(5) 0.3032(6)
H21 H 0.2338 0.9889 0.3388
C23 C 0.3381(6) 0.7573(6) 0.3288(7)
H22 H 0.3174 0.7703 0.3545
C24 C -0.0566(6) 1.0374(6) 0.7185(5)
H23 H -0.0433 1.0685 0.7156
C25 C -0.2082(5) 0.8910(6) 0.4484(7)
H24 H -0.2005 0.8728 0.4184
C26 C 0.2064(6) 1.0816(5) 0.3286(5)
H25 H 0.1914 1.0630 0.3549
C27 C -0.0800(6) 1.0234(6) 0.7643(5)
C28 C 0.4526(5) 0.7331(5) 0.2666(5)
C29 C 0.1390(4) 0.7038(5) 0.2536(5)
H26 H 0.1371 0.7072 0.2903
C30 C -0.1999(4) 0.9351(5) 0.5177(5)
H27 H -0.1855 0.9541 0.5440
C31 C 0.4892(5) 0.7321(6) 0.3027(6)
H28 H 0.4818 0.7312 0.3387
C32 C 0.2431(6) 1.1040(4) 0.2561(5)
H29 H 0.2578 1.1026 0.2228
C33 C 0.2228(6) 1.0022(5) 0.2136(6)
H30 H 0.2168 1.0264 0.1886
C34 C -0.0979(6) 0.9752(5) 0.7699(5)
H31 H -0.1124 0.9652 0.8014
C35 C 0.2365(6) 0.9310(5) 0.2889(6)
H32 H 0.2405 0.9072 0.3148
C36 C -0.0715(5) 0.9583(5) 0.6808(5)
C37 C -0.0766(4) 0.9410(4) 0.5845(5)
H33 H -0.0751 0.9734 0.5738
C38 C -0.0966(8) 1.1052(5) 0.8007(6)
H34 H -0.0973 1.1228 0.7692
C39 C 0.2313(5) 0.8293(4) 0.2515(5)
H35 H 0.2173 0.8307 0.2852
C40 C 0.2283(5) 1.0141(4) 0.2649(5)
C41 C 0.3629(4) 0.7212(5) 0.2604(5)
H36 H 0.3639 0.7036 0.2289
C42 C 0.2341(5) 0.9181(4) 0.2367(5)
C43 C 0.0480(4) 0.7002(6) 0.2357(5)
C44 C 0.2135(6) 1.1305(4) 0.3290(5)
H37 H 0.2040 1.1515 0.3561
C45 C -0.0527(5) 1.0043(6) 0.6761(5)
H38 H -0.0373 1.0137 0.6448
C46 C -0.0901(6) 1.0469(5) 0.8589(5)
H39 H -0.0860 1.0159 0.8732
C47 C -0.2853(4) 0.9348(5) 0.5539(7)
C48 C -0.0935(7) 0.9433(6) 0.7277(5)
H40 H -0.1052 0.9116 0.7308
O43 O -0.4565(10) 1.0229(10) 0.8180(11)
N3C N 0.6772(3) 0.7330(3) 0.2154(4)
N5C N 0.5967(4) 0.7375(4) 0.2139(4)
C14C C 0.6124(5) 0.7597(8) 0.1697(7)
H13C H 0.5932 0.7740 0.1434
C17C C 0.5381(5) 0.7322(7) 0.2863(6)
H16C H 0.5636 0.7318 0.3108
C23C C 0.6619(6) 0.7573(6) 0.1712(7)
H22C H 0.6826 0.7703 0.1455
C28C C 0.5474(5) 0.7331(5) 0.2334(5)
C31C C 0.5108(5) 0.7321(6) 0.1973(6)
H28C H 0.5182 0.7312 0.1613
C41C C 0.6371(4) 0.7212(5) 0.2396(5)
H36C H 0.6361 0.7036 0.2711
N11C N -0.1803(4) 0.7028(5) 0.2720(5)
N13C N -0.0993(5) 0.6995(5) 0.2775(5)
C4C C -0.1693(11) 0.7017(10) 0.3221(12)
H4C H -0.1918 0.7023 0.3499
C5C C -0.1174(12) 0.6992(12) 0.3281(13)
H5C H -0.0996 0.6977 0.3596
C6C C -0.0340(8) 0.7105(8) 0.2153(10)
H6C H -0.0567 0.7226 0.1910
C7C C -0.0149(7) 0.7032(9) 0.3004(9)
H7C H -0.0232 0.7007 0.3361
C29C C -0.1390(4) 0.7038(5) 0.2464(5)
H26C H -0.1371 0.7072 0.2097
C43C C -0.0480(4) 0.7002(6) 0.2643(5)
W1C W -1.191578(15) 0.819956(15) 0.876711(17)
W2C W -1.036846(15) 0.886586(16) 1.034332(18)
W3C W -1.207415(17) 0.762212(17) 1.108499(19)
W4C W -1.146024(18) 0.930207(17) 1.08063(2)
W5C W -1.256119(18) 0.755895(19) 0.98514(2)
W6C W -1.089188(19) 0.715183(19) 1.06031(2)
W7C W -1.137558(18) 0.709269(17) 0.93633(2)
W8C W -1.032336(17) 0.772421(18) 0.957353(19)
W9C W -1.260237(18) 0.863092(18) 1.05339(2)
W10C W -1.086138(18) 0.882818(18) 0.89832(2)
W11C W -1.196330(18) 0.926449(17) 0.94417(2)
W12C W -1.09440(2) 0.82986(2) 1.13622(2)
Co1C Co -0.90150(5) 0.91062(5) 1.02931(6)
Co2C Co -1.25113(5) 0.71621(5) 1.24240(5)
P1C P -1.14452(8) 0.82089(8) 1.00565(9)
O1C O -1.1527(2) 0.8485(2) 0.9535(3)
O2C O -1.1568(3) 0.9858(3) 1.1075(3)
O3C O -0.9804(3) 0.9139(3) 1.0360(3)
O4C O -0.9751(3) 0.7606(3) 0.9343(3)
O5C O -1.2259(3) 0.7326(3) 1.1647(3)
O6C O -1.2245(3) 0.9790(3) 0.9278(4)
O7C O -1.1946(2) 0.8065(2) 1.0291(3)
O8C O -1.1242(3) 0.8934(3) 1.1392(3)
O9C O -1.1561(3) 0.7226(2) 1.0846(3)
O10C O -1.2424(3) 0.8961(3) 0.9896(3)
O11C O -1.0758(3) 0.8222(4) 1.1989(3)
O12C O -1.0478(3) 0.9092(3) 0.8550(3)
O13C O -1.0592(3) 0.9020(3) 0.9649(3)
O14C O -1.0677(3) 0.6686(3) 1.0985(4)
O15C O -1.1354(3) 0.9324(3) 0.9061(3)
O16C O -1.1170(2) 0.8537(2) 1.0452(3)
O17C O -1.0558(3) 0.8215(3) 0.9108(3)
O18C O -1.0696(3) 0.7245(3) 0.9207(3)
O19C O -1.1151(3) 0.6801(3) 1.0003(3)
O20C O -1.2523(3) 0.8165(3) 1.1091(3)
O21C O -1.1617(3) 0.9434(3) 1.0071(3)
O22C O -1.1558(3) 0.7619(3) 0.8905(3)
O23C O -1.2388(3) 0.7951(3) 0.9252(3)
O24C O -1.2499(3) 0.7338(3) 1.0565(3)
O25C O -1.0219(3) 0.8244(3) 1.0072(3)
O26C O -1.2172(3) 0.8839(3) 0.8876(3)
O27C O -1.0387(3) 0.8596(3) 1.1042(3)
O28C O -1.1587(3) 0.8036(3) 1.1364(3)
O29C O -1.2895(3) 0.8124(3) 1.0130(3)
O30C O -1.2011(3) 0.7172(3) 0.9668(3)
O31C O -1.0327(3) 0.7291(3) 1.0185(3)
O32C O -1.0779(3) 0.9381(3) 1.0609(3)
O33C O -1.0764(3) 0.7701(3) 1.1031(3)
O34C O -1.1141(2) 0.7749(2) 0.9947(3)
O35C O -1.2189(3) 0.8061(3) 0.8177(3)
O36C O -1.1326(3) 0.8497(3) 0.8528(3)
O37C O -1.1455(3) 0.6590(3) 0.8975(4)
O38C O -1.3101(3) 0.8942(3) 1.0750(4)
O39C O -1.3043(3) 0.7235(3) 0.9624(4)
O40C O -1.2076(3) 0.8998(3) 1.0842(3)
O41C O -0.9113(3) 0.9886(3) 1.0262(3)
O42C O -0.8960(3) 0.8325(3) 1.0328(4)
N1C N -0.5499(10) 0.9961(10) 0.7816(16)
N2C N -0.7519(4) 0.9245(4) 0.9847(5)
N4C N -0.6122(7) 0.9609(8) 0.8235(9)
N6C N -0.9120(5) 1.0572(4) 0.6938(4)
N7C N -0.8242(4) 0.9154(4) 1.0217(5)
N8C N -1.2257(4) 1.0649(4) 1.2181(4)
N9C N -1.2447(4) 0.7889(4) 1.2714(4)
N10C N -1.2398(4) 0.8682(4) 1.2783(4)
N12C N -0.9285(5) 0.9261(4) 0.8635(4)
N14C N -0.9015(4) 1.0858(4) 0.6131(4)
N15C N -1.2371(4) 1.1443(4) 1.2172(4)
N16C N -0.9164(4) 0.9053(4) 0.9478(4)
C1C C -0.5805(10) 0.9963(11) 0.8191(11)
H1C H -0.5805 1.0216 0.8436
C2C C -0.606(2) 0.931(2) 0.784(2)
H2C H -0.6206 0.9011 0.7759
C3C C -0.5664(18) 0.9592(18) 0.753(2)
H3C H -0.5555 0.9514 0.7195
C8C C -1.2648(8) 0.8040(8) 1.3181(9)
H8C H -1.2786 0.7831 1.3430
C9C C -0.6471(6) 0.9515(8) 0.8681(9)
C10C C -0.6570(7) 0.9056(8) 0.8825(9)
H9C H -0.6403 0.8799 0.8665
C11C C -0.6929(6) 0.8959(7) 0.9225(9)
H10C H -0.7010 0.8642 0.9319
C12C C -1.2623(6) 0.8532(7) 1.3240(7)
H11C H -1.2732 0.8721 1.3523
C13C C -0.7452(6) 0.8970(6) 1.0310(7)
H12C H -0.7159 0.8853 1.0449
C15C C -0.8957(7) 1.1233(6) 0.6491(6)
H14C H -0.8880 1.1554 0.6407
C16C C -0.6714(8) 0.9910(7) 0.8912(9)
H15C H -0.6654 1.0227 0.8798
C18C C -1.2261(6) 0.9540(5) 1.3023(6)
H17C H -1.2231 0.9455 1.3379
C19C C -0.7040(6) 0.9819(5) 0.9311(7)
H18C H -0.7191 1.0078 0.9484
C20C C -0.9246(7) 0.8766(5) 0.8656(6)
H19C H -0.9266 0.8557 0.8366
C21C C -0.9176(7) 0.8628(5) 0.9158(6)
H20C H -0.9140 0.8309 0.9277
C22C C -1.2330(7) 0.9799(5) 1.1968(6)
H21C H -1.2338 0.9889 1.1612
C24C C -0.9434(6) 1.0374(6) 0.7815(5)
H23C H -0.9567 1.0685 0.7844
C25C C -0.7918(5) 0.8910(6) 1.0516(7)
H24C H -0.7995 0.8728 1.0816
C26C C -1.2064(6) 1.0816(5) 1.1714(5)
H25C H -1.1914 1.0630 1.1451
C27C C -0.9200(6) 1.0234(6) 0.7357(5)
C30C C -0.8001(4) 0.9351(5) 0.9823(5)
H27C H -0.8145 0.9541 0.9560
C32C C -1.2431(6) 1.1040(4) 1.2439(5)
H29C H -1.2578 1.1026 1.2772
C33C C -1.2228(6) 1.0022(5) 1.2864(6)
H30C H -1.2168 1.0264 1.3114
C34C C -0.9021(6) 0.9752(5) 0.7301(5)
H31C H -0.8876 0.9652 0.6986
C35C C -1.2365(6) 0.9310(5) 1.2111(6)
H32C H -1.2405 0.9072 1.1852
C36C C -0.9285(5) 0.9583(5) 0.8192(5)
C37C C -0.9234(4) 0.9410(4) 0.9155(5)
H33C H -0.9249 0.9734 0.9262
C38C C -0.9034(8) 1.1052(5) 0.6993(6)
H34C H -0.9027 1.1228 0.7308
C39C C -1.2313(5) 0.8293(4) 1.2485(5)
H35C H -1.2173 0.8307 1.2148
C40C C -1.2283(5) 1.0141(4) 1.2351(5)
C42C C -1.2341(5) 0.9181(4) 1.2633(5)
C44C C -1.2135(6) 1.1305(4) 1.1710(5)
H37C H -1.2040 1.1515 1.1439
C45C C -0.9473(5) 1.0043(6) 0.8239(5)
H38C H -0.9627 1.0137 0.8552
C46C C -0.9099(6) 1.0469(5) 0.6411(5)
H39C H -0.9140 1.0159 0.6268
C47C C -0.7147(4) 0.9348(5) 0.9461(7)
C48C C -0.9065(7) 0.9433(6) 0.7723(5)
H40C H -0.8948 0.9116 0.7692
O43C O -0.5435(10) 1.0229(10) 0.6820(11)
Co1D Co -0.90150(5) 1.08938(5) 0.52931(6)
Co1G Co -0.09850(5) 1.08938(5) 0.97069(6)
Co2A Co 0.24887(5) 0.78379(5) 0.75760(5)
Co2B Co -1.24887(5) 0.78379(5) 0.74240(5)
Co2C_2 Co -0.25113(5) 0.71621(5) 0.24240(5)
Co2C_3 Co 0.74887(5) 0.71621(5) 0.24240(5)
Co2E Co -1.24887(5) 1.21621(5) 1.24240(5)
Co2F Co 0.24887(5) 1.21621(5) 0.25760(5)
O35A O 0.2811(3) 0.6939(3) 0.1823(3)
O35B O -1.2811(3) 0.6939(3) 1.3177(3)
N3C_2 N -1.3228(3) 0.7330(3) 1.2154(4)
N11C_2 N -1.1803(4) 0.7028(5) 1.2720(5)
N14D N -0.9015(4) 0.9142(4) 1.1131(4)
N14G N -0.0985(4) 0.9142(4) 0.3869(4)
N15E N -1.2629(4) 0.6443(4) 1.2172(4)
N15F N 0.2629(4) 0.6443(4) 0.2828(4)
loop_
_geom_bond_atom_site_label_1
_geom_bond_atom_site_label_2
_geom_bond_site_symmetry_1
_geom_bond_site_symmetry_2
W1 O1 1_555 1_555
W2 O3 1_555 1_555
W3 O5 1_555 1_555
W4 O2 1_555 1_555
W5 O7 1_555 1_555
W6 O9 1_555 1_555
W7 O18 1_555 1_555
W8 O4 1_555 1_555
W9 O7 1_555 1_555
W10 O1 1_555 1_555
W11 O1 1_555 1_555
W12 O8 1_555 1_555
Co1 O3 1_555 1_555
Co2 O5 1_555 1_555
P1 O1 1_555 1_555
O6 W11 1_555 1_555
O7 W3 1_555 1_555
O8 W4 1_555 1_555
O9 W3 1_555 1_555
O10 W9 1_555 1_555
O11 W12 1_555 1_555
O12 W10 1_555 1_555
O13 W2 1_555 1_555
O14 W6 1_555 1_555
O15 W10 1_555 1_555
O16 W2 1_555 1_555
O17 W8 1_555 1_555
O18 W8 1_555 1_555
O19 W6 1_555 1_555
O20 W3 1_555 1_555
O21 W4 1_555 1_555
O22 W1 1_555 1_555
O23 W1 1_555 1_555
O24 W3 1_555 1_555
O25 W2 1_555 1_555
O26 W1 1_555 1_555
O27 W2 1_555 1_555
O28 W3 1_555 1_555
O29 W5 1_555 1_555
O30 W5 1_555 1_555
O31 W6 1_555 1_555
O32 W2 1_555 1_555
O33 W6 1_555 1_555
O34 W6 1_555 1_555
O35 W1 1_555 1_555
O36 W1 1_555 1_555
O37 W7 1_555 1_555
O38 W9 1_555 1_555
O39 W5 1_555 1_555
O40 W4 1_555 1_555
O41 Co1 1_555 1_555
O42 Co1 1_555 1_555
Co3 N1 1_555 1_555
N1 C1 1_555 1_555
N2 C13 1_555 1_555
N3 Co2 1_555 1_555
N4 C1 1_555 1_555
N5 C14 1_555 1_555
N6 C27 1_555 1_555
N7 Co1 1_555 1_555
N8 C26 1_555 1_555
N9 Co2 1_555 1_555
N10 C12 1_555 1_555
N11 Co2 1_555 1_555
N12 C20 1_555 1_555
N13 C5 1_555 1_555
N14 C15 1_555 1_555
N15 C32 1_555 1_555
N16 Co1 1_555 1_555
C1 H1 1_555 1_555
C2 N4 1_555 1_555
H2 C2 1_555 1_555
C3 N1 1_555 1_555
H3 C3 1_555 1_555
C4 N11 1_555 1_555
H4 C4 1_555 1_555
C5 C4 1_555 1_555
H5 C5 1_555 1_555
C6 H6 1_555 1_555
C7 H7 1_555 1_555
C8 N9 1_555 1_555
H8 C8 1_555 1_555
C9 N4 1_555 1_555
C10 C9 1_555 1_555
H9 C10 1_555 1_555
C11 C10 1_555 1_555
H10 C11 1_555 1_555
C12 C8 1_555 1_555
H11 C12 1_555 1_555
C13 H12 1_555 1_555
C14 H13 1_555 1_555
C15 H14 1_555 1_555
C16 C9 1_555 1_555
H15 C16 1_555 1_555
C17 H16 1_555 1_555
C18 H17 1_555 1_555
C19 C16 1_555 1_555
H18 C19 1_555 1_555
C20 H19 1_555 1_555
C21 N16 1_555 1_555
H20 C21 1_555 1_555
C22 H21 1_555 1_555
C23 N3 1_555 1_555
H22 C23 1_555 1_555
C24 H23 1_555 1_555
C25 N7 1_555 1_555
H24 C25 1_555 1_555
C26 H25 1_555 1_555
C27 C24 1_555 1_555
C28 N5 1_555 1_555
C29 N11 1_555 1_555
H26 C29 1_555 1_555
C30 N2 1_555 1_555
H27 C30 1_555 1_555
C31 C28 1_555 1_555
H28 C31 1_555 1_555
C32 N8 1_555 1_555
H29 C32 1_555 1_555
C33 C18 1_555 1_555
H30 C33 1_555 1_555
C34 C27 1_555 1_555
H31 C34 1_555 1_555
C35 C22 1_555 1_555
H32 C35 1_555 1_555
C36 N12 1_555 1_555
C37 N12 1_555 1_555
H33 C37 1_555 1_555
C38 N6 1_555 1_555
H34 C38 1_555 1_555
C39 N9 1_555 1_555
H35 C39 1_555 1_555
C40 N8 1_555 1_555
C41 N3 1_555 1_555
H36 C41 1_555 1_555
C42 N10 1_555 1_555
C43 N13 1_555 1_555
C44 N15 1_555 1_555
H37 C44 1_555 1_555
C45 C24 1_555 1_555
H38 C45 1_555 1_555
C46 N6 1_555 1_555
H39 C46 1_555 1_555
C47 N2 1_555 1_555
C48 C34 1_555 1_555
H40 C48 1_555 1_555
O43 Co3 1_555 1_555
N3C C23C 1_555 1_555
N5C C14C 1_555 1_555
C14C H13C 1_555 1_555
C17C C31 1_555 1_555
H16C C17C 1_555 1_555
C23C C14C 1_555 1_555
H22C C23C 1_555 1_555
C28C N5C 1_555 1_555
C31C C17 1_555 1_555
H28C C31C 1_555 1_555
C41C N3C 1_555 1_555
H36C C41C 1_555 1_555
N11C C4C 1_555 1_555
N13C C5C 1_555 1_555
C4C H4C 1_555 1_555
C5C C4C 1_555 1_555
H5C C5C 1_555 1_555
C6C C7 1_555 1_555
H6C C6C 1_555 1_555
C7C C6 1_555 1_555
H7C C7C 1_555 1_555
C29C N11C 1_555 1_555
H26C C29C 1_555 1_555
C43C N13C 1_555 1_555
W1C O1C 1_555 1_555
W2C O3C 1_555 1_555
W3C O5C 1_555 1_555
W4C O2C 1_555 1_555
W5C O7C 1_555 1_555
W6C O9C 1_555 1_555
W7C O18C 1_555 1_555
W8C O4C 1_555 1_555
W9C O7C 1_555 1_555
W10C O1C 1_555 1_555
W11C O1C 1_555 1_555
W12C O8C 1_555 1_555
Co1C O3C 1_555 1_555
Co2C O5C 1_555 1_555
P1C O1C 1_555 1_555
O6C W11C 1_555 1_555
O7C W3C 1_555 1_555
O8C W4C 1_555 1_555
O9C W3C 1_555 1_555
O10C W9C 1_555 1_555
O11C W12C 1_555 1_555
O12C W10C 1_555 1_555
O13C W2C 1_555 1_555
O14C W6C 1_555 1_555
O15C W10C 1_555 1_555
O16C W2C 1_555 1_555
O17C W8C 1_555 1_555
O18C W8C 1_555 1_555
O19C W6C 1_555 1_555
O20C W3C 1_555 1_555
O21C W4C 1_555 1_555
O22C W1C 1_555 1_555
O23C W1C 1_555 1_555
O24C W3C 1_555 1_555
O25C W2C 1_555 1_555
O26C W1C 1_555 1_555
O27C W2C 1_555 1_555
O28C W3C 1_555 1_555
O29C W5C 1_555 1_555
O30C W5C 1_555 1_555
O31C W6C 1_555 1_555
O32C W2C 1_555 1_555
O33C W6C 1_555 1_555
O34C W6C 1_555 1_555
O35C W1C 1_555 1_555
O36C W1C 1_555 1_555
O37C W7C 1_555 1_555
O38C W9C 1_555 1_555
O39C W5C 1_555 1_555
O40C W4C 1_555 1_555
O41C Co1C 1_555 1_555
O42C Co1C 1_555 1_555
N1C Co3 1_555 1_555
N2C C13C 1_555 1_555
N4C C1C 1_555 1_555
N6C C27C 1_555 1_555
N7C Co1C 1_555 1_555
N8C C26C 1_555 1_555
N9C Co2C 1_555 1_555
N10C C12C 1_555 1_555
N12C C20C 1_555 1_555
N14C C15C 1_555 1_555
N15C C32C 1_555 1_555
N16C Co1C 1_555 1_555
C1C N1C 1_555 1_555
H1C C1C 1_555 1_555
C2C N4C 1_555 1_555
H2C C2C 1_555 1_555
C3C N1C 1_555 1_555
H3C C3C 1_555 1_555
C8C N9C 1_555 1_555
H8C C8C 1_555 1_555
C9C N4C 1_555 1_555
C10C C9C 1_555 1_555
H9C C10C 1_555 1_555
C11C C10C 1_555 1_555
H10C C11C 1_555 1_555
C12C C8C 1_555 1_555
H11C C12C 1_555 1_555
C13C H12C 1_555 1_555
C15C H14C 1_555 1_555
C16C C9C 1_555 1_555
H15C C16C 1_555 1_555
C18C H17C 1_555 1_555
C19C C16C 1_555 1_555
H18C C19C 1_555 1_555
C20C H19C 1_555 1_555
C21C N16C 1_555 1_555
H20C C21C 1_555 1_555
C22C H21C 1_555 1_555
C24C H23C 1_555 1_555
C25C N7C 1_555 1_555
H24C C25C 1_555 1_555
C26C H25C 1_555 1_555
C27C C24C 1_555 1_555
C30C N2C 1_555 1_555
H27C C30C 1_555 1_555
C32C N8C 1_555 1_555
H29C C32C 1_555 1_555
C33C C18C 1_555 1_555
H30C C33C 1_555 1_555
C34C C27C 1_555 1_555
H31C C34C 1_555 1_555
C35C C22C 1_555 1_555
H32C C35C 1_555 1_555
C36C N12C 1_555 1_555
C37C N12C 1_555 1_555
H33C C37C 1_555 1_555
C38C N6C 1_555 1_555
H34C C38C 1_555 1_555
C39C N9C 1_555 1_555
H35C C39C 1_555 1_555
C40C N8C 1_555 1_555
C42C N10C 1_555 1_555
C44C N15C 1_555 1_555
H37C C44C 1_555 1_555
C45C C24C 1_555 1_555
H38C C45C 1_555 1_555
C46C N6C 1_555 1_555
H39C C46C 1_555 1_555
C47C N2C 1_555 1_555
C48C C34C 1_555 1_555
H40C C48C 1_555 1_555
O43C Co3 1_555 1_555
Co1D N14C 1_555 1_555
Co1G N14 1_555 1_555
Co2A O35 1_555 1_555
Co2B O35C 1_555 1_555
Co2C_2 N11C 1_555 1_555
Co2C_3 N3C 1_555 1_555
Co2E N15C 1_555 1_555
Co2F N15 1_555 1_555
O35A Co2 1_555 1_555
O35B Co2C 1_555 1_555
N3C_2 Co2C 1_555 1_555
N11C_2 Co2C 1_555 1_555
N14D Co1C 1_555 1_555
N14G Co1 1_555 1_555
N15E Co2C 1_555 1_555
N15F Co2 1_555 1_555
W4 O16 1_555 1_555
W4 O32 1_555 1_555
W5 O23 1_555 1_555
W5 O24 1_555 1_555
W7 O19 1_555 1_555
W7 O22 1_555 1_555
W7 O30 1_555 1_555
W7 O34 1_555 1_555
W8 O25 1_555 1_555
W8 O31 1_555 1_555
W8 O34 1_555 1_555
W9 O20 1_555 1_555
W9 O29 1_555 1_555
W9 O40 1_555 1_555
W10 O13 1_555 1_555
W10 O17 1_555 1_555
W10 O36 1_555 1_555
W11 O10 1_555 1_555
W11 O15 1_555 1_555
W11 O21 1_555 1_555
W11 O26 1_555 1_555
W12 O16 1_555 1_555
W12 O27 1_555 1_555
W12 O28 1_555 1_555
W12 O33 1_555 1_555
P1 O7 1_555 1_555
P1 O16 1_555 1_555
P1 O34 1_555 1_555
N5 C41 1_555 1_555
N7 C30 1_555 1_555
N10 C39 1_555 1_555
N13 C29 1_555 1_555
N14 C46 1_555 1_555
N16 C37 1_555 1_555
C2 C3 1_555 1_555
C6 C43 1_555 1_555
C7 C43 1_555 1_555
C11 C47 1_555 1_555
C13 C25 1_555 1_555
C14 C23 1_555 1_555
C15 C38 1_555 1_555
C17 C28 1_555 1_555
C18 C42 1_555 1_555
C19 C47 1_555 1_555
C20 C21 1_555 1_555
C22 C40 1_555 1_555
C26 C44 1_555 1_555
C33 C40 1_555 1_555
C35 C42 1_555 1_555
C36 C45 1_555 1_555
C36 C48 1_555 1_555
N5C C41C 1_555 1_555
C17C C28C 1_555 1_555
C28C C31C 1_555 1_555
N13C C29C 1_555 1_555
C6C C43C 1_555 1_555
C7C C43C 1_555 1_555
W4C O16C 1_555 1_555
W4C O32C 1_555 1_555
W5C O23C 1_555 1_555
W5C O24C 1_555 1_555
W7C O19C 1_555 1_555
W7C O22C 1_555 1_555
W7C O30C 1_555 1_555
W7C O34C 1_555 1_555
W8C O25C 1_555 1_555
W8C O31C 1_555 1_555
W8C O34C 1_555 1_555
W9C O20C 1_555 1_555
W9C O29C 1_555 1_555
W9C O40C 1_555 1_555
W10C O13C 1_555 1_555
W10C O17C 1_555 1_555
W10C O36C 1_555 1_555
W11C O10C 1_555 1_555
W11C O15C 1_555 1_555
W11C O21C 1_555 1_555
W11C O26C 1_555 1_555
W12C O16C 1_555 1_555
W12C O27C 1_555 1_555
W12C O28C 1_555 1_555
W12C O33C 1_555 1_555
P1C O7C 1_555 1_555
P1C O16C 1_555 1_555
P1C O34C 1_555 1_555
N7C C30C 1_555 1_555
N10C C39C 1_555 1_555
N14C C46C 1_555 1_555
N16C C37C 1_555 1_555
C2C C3C 1_555 1_555
C11C C47C 1_555 1_555
C13C C25C 1_555 1_555
C15C C38C 1_555 1_555
C18C C42C 1_555 1_555
C19C C47C 1_555 1_555
C20C C21C 1_555 1_555
C22C C40C 1_555 1_555
C26C C44C 1_555 1_555
C33C C40C 1_555 1_555
C35C C42C 1_555 1_555
C36C C45C 1_555 1_555
C36C C48C 1_555 1_555

#END
