
#######################################################################
#
#                 Cambridge Crystallographic Data Centre
#                                CCDC 
#
#######################################################################
#
# If this CIF has been generated from an entry in the Cambridge 
# Structural Database, then it will include bibliographic, chemical, 
# crystal, experimental, refinement or atomic coordinate data resulting 
# from the CCDC's data processing and validation procedures.
#
#######################################################################

data_OQUXAB
_chemical_formula_moiety         '(C36 H30 Co2 Ge1 N12 O40 W12)n'
_symmetry_cell_setting           orthorhombic
_symmetry_space_group_name_H-M   'P n m a'
_symmetry_Int_Tables_number      62
_space_group_name_Hall           '-P 2ac 2n'
loop_
_symmetry_equiv_pos_site_id
_symmetry_equiv_pos_as_xyz
1 x,y,z
2 1/2-x,-y,1/2+z
3 1/2+x,1/2-y,1/2-z
4 -x,1/2+y,-z
5 -x,-y,-z
6 1/2+x,y,1/2-z
7 1/2-x,1/2+y,1/2+z
8 x,1/2-y,z
_cell_length_a                   26.8635(13)
_cell_length_b                   20.0627(10)
_cell_length_c                   13.1107(6)
_cell_angle_alpha                90
_cell_angle_beta                 90
_cell_angle_gamma                90
_cell_volume                     7066.07
loop_
_atom_site_label
_atom_site_type_symbol
_atom_site_fract_x
_atom_site_fract_y
_atom_site_fract_z
N5 N 0.0902(5) 0.0183(8) 0.3964(12)
N6 N 0.1467(6) 0.0557(10) 0.2938(15)
C13 C 0.1697(9) 0.0079(11) 0.3564(18)
H11 H 0.2029 -0.0052 0.3550
C14 C 0.1334(8) -0.0154(13) 0.4193(17)
H12 H 0.1371 -0.0482 0.4688
C15 C 0.0441(7) 0.0085(10) 0.4481(15)
C16 C 0.0070(11) 0.0549(17) 0.446(2)
H13 H 0.0112 0.0932 0.4072
C17 C 0.0352(11) -0.0470(15) 0.502(2)
H14 H 0.0590 -0.0807 0.5025
C18 C 0.0997(8) 0.0617(11) 0.3181(16)
H15 H 0.0768 0.0902 0.2876
N5D N -0.0902(5) -0.0183(8) 0.6036(12)
N6D N -0.1467(6) -0.0557(10) 0.7062(15)
C13D C -0.1697(9) -0.0079(11) 0.6436(18)
H11D H -0.2029 0.0052 0.6450
C14D C -0.1334(8) 0.0154(13) 0.5807(17)
H12D H -0.1371 0.0482 0.5312
C15D C -0.0441(7) -0.0085(10) 0.5519(15)
C16D C -0.0070(11) -0.0549(17) 0.554(2)
H13D H -0.0112 -0.0932 0.5928
C17D C -0.0352(11) 0.0470(15) 0.498(2)
H14D H -0.0590 0.0807 0.4975
C18D C -0.0997(8) -0.0617(11) 0.6819(16)
H15D H -0.0768 -0.0902 0.7124
W1 W 0.26675(3) 0.16699(4) 0.87631(6)
W2 W 0.26703(3) 0.07466(4) 1.12006(6)
W3 W 0.26819(3) 0.15799(4) 1.33997(6)
W4 W 0.36929(3) 0.15759(4) 1.19155(6)
W5 W 0.15442(3) 0.16649(4) 1.03839(6)
W6 W 0.15514(4) 0.2500 1.25969(9)
W7 W 0.36851(4) 0.2500 0.94782(9)
Ge1 Ge 0.26413(8) 0.2500 1.11195(17)
Co1 Co 0.25868(14) 0.10972(19) 0.6135(3)
O1 O 0.3753(5) 0.1845(7) 1.0536(10)
O2 O 0.2012(4) 0.1074(6) 1.1031(9)
O3 O 0.2791(4) 0.1083(6) 0.9863(9)
O4 O 0.3369(5) 0.0759(6) 1.1457(10)
O5 O 0.2592(5) -0.0081(7) 1.1025(12)
O6 O 0.2601(5) 0.1272(7) 1.4601(11)
O7 O 0.3386(4) 0.1442(6) 1.3243(10)
O8 O 0.2597(5) 0.1139(7) 0.7743(11)
O9 O 0.4275(5) 0.1285(7) 1.2184(11)
O10 O 0.3376(5) 0.1829(7) 0.8645(10)
O11 O 0.2575(5) 0.0762(6) 1.2642(9)
O12 O 0.2031(5) 0.1857(7) 1.3066(9)
O13 O 0.2860(4) 0.1801(6) 1.1741(9)
O14 O 0.2013(5) 0.1716(6) 0.9317(9)
O15 O 0.4272(8) 0.2500 0.8962(15)
O16 O 0.1249(6) 0.2500 0.9965(14)
O17 O 0.1139(7) 0.2500 1.3584(15)
O18 O 0.1107(5) 0.1135(7) 0.9902(12)
O19 O 0.2551(7) 0.2500 0.8032(15)
O20 O 0.2822(7) 0.2500 1.3621(14)
O21 O 0.3755(6) 0.2500 1.2241(15)
O22 O 0.1271(4) 0.1820(6) 1.1731(9)
N1 N 0.3363(8) 0.0820(12) 0.6106(16)
N2 N 0.6804(7) 0.1240(12) 0.8845(15)
N3 N 0.4182(8) 0.0709(11) 0.6484(15)
N4 N 0.5996(8) 0.1188(11) 0.8453(18)
C1 C 0.3727(11) 0.0984(13) 0.674(2)
H1 H 0.3680 0.1256 0.7311
C2 C 0.4657(10) 0.0825(15) 0.700(2)
C3 C 0.4719(13) 0.1378(18) 0.749(3)
H2 H 0.4467 0.1696 0.7507
C4 C 0.4081(14) 0.0313(16) 0.564(2)
H3 H 0.4312 0.0062 0.5280
C5 C 0.3594(11) 0.0357(13) 0.544(2)
H4 H 0.3430 0.0117 0.4938
C6 C 0.5024(12) 0.0365(18) 0.694(3)
H5 H 0.4970 -0.0036 0.6601
C7 C 0.6453(12) 0.1016(18) 0.817(2)
H6 H 0.6526 0.0775 0.7581
C8 C 0.6535(11) 0.1562(15) 0.962(2)
H7 H 0.6675 0.1751 1.0202
C9 C 0.5479(11) 0.0493(16) 0.739(3)
H8 H 0.5742 0.0197 0.7305
C10 C 0.5540(10) 0.1054(14) 0.795(2)
C11 C 0.5163(12) 0.1492(17) 0.799(3)
H9 H 0.5203 0.1881 0.8364
C12 C 0.6047(8) 0.1555(13) 0.9403(17)
H10 H 0.5793 0.1747 0.9783
O23 O 0.2003(6) 0.2500 1.1116(12)
O24 O 0.2851(6) 0.2500 0.9883(12)
W1G W 0.26675(3) 0.33301(4) 0.87631(6)
W2G W 0.26703(3) 0.42534(4) 1.12006(6)
W3G W 0.26819(3) 0.34201(4) 1.33997(6)
W4G W 0.36929(3) 0.34241(4) 1.19155(6)
W5G W 0.15442(3) 0.33351(4) 1.03839(6)
Co1G Co 0.25868(14) 0.39028(19) 0.6135(3)
O1G O 0.3753(5) 0.3155(7) 1.0536(10)
O2G O 0.2012(4) 0.3926(6) 1.1031(9)
O3G O 0.2791(4) 0.3917(6) 0.9863(9)
O4G O 0.3369(5) 0.4241(6) 1.1457(10)
O5G O 0.2592(5) 0.5081(7) 1.1025(12)
O6G O 0.2601(5) 0.3728(7) 1.4601(11)
O7G O 0.3386(4) 0.3558(6) 1.3243(10)
O8G O 0.2597(5) 0.3861(7) 0.7743(11)
O9G O 0.4275(5) 0.3715(7) 1.2184(11)
O10G O 0.3376(5) 0.3171(7) 0.8645(10)
O11G O 0.2575(5) 0.4238(6) 1.2642(9)
O12G O 0.2031(5) 0.3143(7) 1.3066(9)
O13G O 0.2860(4) 0.3199(6) 1.1741(9)
O14G O 0.2013(5) 0.3284(6) 0.9317(9)
O18G O 0.1107(5) 0.3865(7) 0.9902(12)
O22G O 0.1271(4) 0.3180(6) 1.1731(9)
N1G N 0.3363(8) 0.4180(12) 0.6106(16)
N2G N 0.6804(7) 0.3760(12) 0.8845(15)
N3G N 0.4182(8) 0.4291(11) 0.6484(15)
N4G N 0.5996(8) 0.3812(11) 0.8453(18)
C1G C 0.3727(11) 0.4016(13) 0.674(2)
H1G H 0.3680 0.3744 0.7311
C2G C 0.4657(10) 0.4175(15) 0.700(2)
C3G C 0.4719(13) 0.3622(18) 0.749(3)
H2G H 0.4467 0.3304 0.7507
C4G C 0.4081(14) 0.4687(16) 0.564(2)
H3G H 0.4312 0.4938 0.5280
C5G C 0.3594(11) 0.4643(13) 0.544(2)
H4G H 0.3430 0.4883 0.4938
C6G C 0.5024(12) 0.4635(18) 0.694(3)
H5G H 0.4970 0.5036 0.6601
C7G C 0.6453(12) 0.3984(18) 0.817(2)
H6G H 0.6526 0.4225 0.7581
C8G C 0.6535(11) 0.3438(15) 0.962(2)
H7G H 0.6675 0.3249 1.0202
C9G C 0.5479(11) 0.4507(16) 0.739(3)
H8G H 0.5742 0.4803 0.7305
C10G C 0.5540(10) 0.3946(14) 0.795(2)
C11G C 0.5163(12) 0.3508(17) 0.799(3)
H9G H 0.5203 0.3119 0.8364
C12G C 0.6047(8) 0.3445(13) 0.9403(17)
H10G H 0.5793 0.3253 0.9783
Co1_2 Co 0.25868(14) 0.10972(19) 1.6135(3)
Co1A Co 0.24132(14) -0.10972(19) 1.1135(3)
Co1B Co 0.75868(14) 0.39028(19) 0.8865(3)
Co1E Co 0.75868(14) 0.10972(19) 0.8865(3)
Co1F Co 0.24132(14) 0.60972(19) 1.1135(3)
Co1G_2 Co 0.25868(14) 0.39028(19) 1.6135(3)
O5A O 0.2408(5) 0.0081(7) 0.6025(12)
O5F O 0.2408(5) 0.4919(7) 0.6025(12)
O6_2 O 0.2601(5) 0.1272(7) 0.4601(11)
O6G_2 O 0.2601(5) 0.3728(7) 0.4601(11)
N2B N 0.1804(7) 0.3760(12) 0.6155(15)
N2E N 0.1804(7) 0.1240(12) 0.6155(15)
loop_
_geom_bond_atom_site_label_1
_geom_bond_atom_site_label_2
_geom_bond_site_symmetry_1
_geom_bond_site_symmetry_2
W1 O3 1_555 1_555
W2 O2 1_555 1_555
W3 O6 1_555 1_555
W4 O1 1_555 1_555
W5 O2 1_555 1_555
W6 O12 1_555 1_555
W7 O1 1_555 1_555
Ge1 O13 1_555 1_555
Co1 O8 1_555 1_555
O3 W2 1_555 1_555
O4 W2 1_555 1_555
O5 W2 1_555 1_555
O6 Co1_2 1_555 1_555
O7 W3 1_555 1_555
O8 W1 1_555 1_555
O9 W4 1_555 1_555
O10 W1 1_555 1_555
O11 W2 1_555 1_555
O12 W3 1_555 1_555
O13 W2 1_555 1_555
O14 W1 1_555 1_555
O15 W7 1_555 1_555
O16 W5 1_555 1_555
O17 W6 1_555 1_555
O18 W5 1_555 1_555
O19 W1 1_555 1_555
O20 W3 1_555 1_555
O21 W4 1_555 1_555
O22 W5 1_555 1_555
N1 Co1 1_555 1_555
N2 C7 1_555 1_555
N3 C1 1_555 1_555
N4 C7 1_555 1_555
C1 N1 1_555 1_555
H1 C1 1_555 1_555
C2 N3 1_555 1_555
C3 C2 1_555 1_555
H2 C3 1_555 1_555
C4 N3 1_555 1_555
H3 C4 1_555 1_555
C5 N1 1_555 1_555
H4 C5 1_555 1_555
C6 C2 1_555 1_555
H5 C6 1_555 1_555
C7 H6 1_555 1_555
C8 N2 1_555 1_555
H7 C8 1_555 1_555
C9 C6 1_555 1_555
H8 C9 1_555 1_555
C10 N4 1_555 1_555
C11 C3 1_555 1_555
H9 C11 1_555 1_555
C12 N4 1_555 1_555
H10 C12 1_555 1_555
O23 W5 1_555 1_555
O24 W1 1_555 1_555
N5 C14 1_555 1_555
N6 C13 1_555 1_555
C13 H11 1_555 1_555
C14 C13 1_555 1_555
H12 C14 1_555 1_555
C15 N5 1_555 1_555
C16 C15 1_555 1_555
H13 C16 1_555 1_555
C17 C15 1_555 1_555
H14 C17 1_555 1_555
C18 N5 1_555 1_555
H15 C18 1_555 1_555
W1G O19 1_555 1_555
W2G O2G 1_555 1_555
W3G O20 1_555 1_555
W4G O21 1_555 1_555
W5G O16 1_555 1_555
Co1G O8G 1_555 1_555
O1G W7 1_555 1_555
O2G W5G 1_555 1_555
O3G W1G 1_555 1_555
O4G W2G 1_555 1_555
O5G W2G 1_555 1_555
O6G W3G 1_555 1_555
O7G W3G 1_555 1_555
O8G W1G 1_555 1_555
O9G W4G 1_555 1_555
O10G W7 1_555 1_555
O11G W2G 1_555 1_555
O12G W6 1_555 1_555
O13G Ge1 1_555 1_555
O14G W1G 1_555 1_555
O18G W5G 1_555 1_555
O22G W6 1_555 1_555
N1G Co1G 1_555 1_555
N2G C7G 1_555 1_555
N3G C1G 1_555 1_555
N4G C7G 1_555 1_555
C1G N1G 1_555 1_555
H1G C1G 1_555 1_555
C2G N3G 1_555 1_555
C3G C2G 1_555 1_555
H2G C3G 1_555 1_555
C4G N3G 1_555 1_555
H3G C4G 1_555 1_555
C5G N1G 1_555 1_555
H4G C5G 1_555 1_555
C6G C2G 1_555 1_555
H5G C6G 1_555 1_555
C7G H6G 1_555 1_555
C8G N2G 1_555 1_555
H7G C8G 1_555 1_555
C9G C6G 1_555 1_555
H8G C9G 1_555 1_555
C10G N4G 1_555 1_555
C11G C3G 1_555 1_555
H9G C11G 1_555 1_555
C12G N4G 1_555 1_555
H10G C12G 1_555 1_555
Co1A O5 1_555 1_555
Co1B N2G 1_555 1_555
Co1E N2 1_555 1_555
Co1F O5G 1_555 1_555
Co1G_2 O6G 1_555 1_555
O5A Co1 1_555 1_555
O5F Co1G 1_555 1_555
O6_2 Co1 1_555 1_555
O6G_2 Co1G 1_555 1_555
N2B Co1G 1_555 1_555
N2E Co1 1_555 1_555
N5D C14D 1_555 1_555
N6D C13D 1_555 1_555
C13D H11D 1_555 1_555
C14D C13D 1_555 1_555
H12D C14D 1_555 1_555
C15D N5D 1_555 1_555
C16D C17 1_555 1_555
H13D C16D 1_555 1_555
C17D C16 1_555 1_555
H14D C17D 1_555 1_555
C18D N5D 1_555 1_555
H15D C18D 1_555 1_555
W3 O11 1_555 1_555
W3 O13 1_555 1_555
W4 O4 1_555 1_555
W4 O7 1_555 1_555
W4 O13 1_555 1_555
W5 O14 1_555 1_555
W6 O22 1_555 1_555
W6 O23 1_555 1_555
W7 O10 1_555 1_555
W7 O24 1_555 1_555
Ge1 O23 1_555 1_555
Ge1 O24 1_555 1_555
C4 C5 1_555 1_555
C8 C12 1_555 1_555
C9 C10 1_555 1_555
C10 C11 1_555 1_555
O23 W5G 1_555 1_555
O24 W1G 1_555 1_555
N6 C18 1_555 1_555
W1G O10G 1_555 1_555
W2G O3G 1_555 1_555
W2G O13G 1_555 1_555
W3G O11G 1_555 1_555
W3G O12G 1_555 1_555
W3G O13G 1_555 1_555
W4G O1G 1_555 1_555
W4G O4G 1_555 1_555
W4G O7G 1_555 1_555
W4G O13G 1_555 1_555
W5G O14G 1_555 1_555
W5G O22G 1_555 1_555
C4G C5G 1_555 1_555
C8G C12G 1_555 1_555
C9G C10G 1_555 1_555
C10G C11G 1_555 1_555
N6D C18D 1_555 1_555
C15D C16D 1_555 1_555
C15D C17D 1_555 1_555

#END
