
#######################################################################
#
#                 Cambridge Crystallographic Data Centre
#                                CCDC 
#
#######################################################################
#
# If this CIF has been generated from an entry in the Cambridge 
# Structural Database, then it will include bibliographic, chemical, 
# crystal, experimental, refinement or atomic coordinate data resulting 
# from the CCDC's data processing and validation procedures.
#
#######################################################################

data_OQUXEF
_chemical_formula_moiety         '(C36 H33 B1 Co2 N12 O41 W12)n'
_symmetry_cell_setting           orthorhombic
_symmetry_space_group_name_H-M   'P n m a'
_symmetry_Int_Tables_number      62
_space_group_name_Hall           '-P 2ac 2n'
loop_
_symmetry_equiv_pos_site_id
_symmetry_equiv_pos_as_xyz
1 x,y,z
2 1/2-x,-y,1/2+z
3 1/2+x,1/2-y,1/2-z
4 -x,1/2+y,-z
5 -x,-y,-z
6 1/2+x,y,1/2-z
7 1/2-x,1/2+y,1/2+z
8 x,1/2-y,z
_cell_length_a                   26.780(5)
_cell_length_b                   19.963(5)
_cell_length_c                   12.980(5)
_cell_angle_alpha                90
_cell_angle_beta                 90
_cell_angle_gamma                90
_cell_volume                     6939.23
loop_
_atom_site_label
_atom_site_type_symbol
_atom_site_fract_x
_atom_site_fract_y
_atom_site_fract_z
_atom_site_U_iso_or_equiv
_atom_site_thermal_displace_type
W1 W 0.15367(3) 0.2500 -0.74349(7) 0.0204 Uani
W2 W 0.15436(2) 0.16726(3) -0.52234(5) 0.0202 Uani
W3 W 0.36756(3) 0.2500 -0.43986(7) 0.0198 Uani
W4 W 0.26523(2) 0.07694(3) -0.60737(5) 0.0212 Uani
W5 W 0.26661(2) 0.16761(3) -0.36542(5) 0.0221 Uani
W6 W 0.26503(2) 0.15932(4) -0.82678(5) 0.0263 Uani
W7 W 0.36667(2) 0.15871(3) -0.68231(5) 0.0207 Uani
Co1 Co 0.24085(12) -0.10895(17) -0.6009(2) 0.0534 Uani
B1 B 0.2628(8) 0.2500 -0.599(2) 0.0200 Uiso
O1 O 0.1258(5) 0.2500 -0.4794(11) 0.0197 Uani
O2 O 0.1988(3) 0.1062(5) -0.5885(8) 0.0193 Uani
O3 O 0.3759(4) 0.1824(5) -0.5441(7) 0.0173 Uani
O4 O 0.2552(5) 0.2500 -0.2929(11) 0.0227 Uani
O5 O 0.2389(4) -0.1159(6) -0.7626(8) 0.0260 Uani
O6 O 0.2425(4) -0.1281(7) -0.4470(9) 0.0350 Uani
O7 O 0.4255(5) 0.2500 -0.3838(13) 0.0310 Uani
O8 O 0.2006(4) 0.1695(5) -0.4117(7) 0.0177 Uani
O9 O 0.3365(4) 0.1843(5) -0.3557(8) 0.0190 Uani
O10 O 0.3363(4) 0.0779(5) -0.6350(9) 0.0247 Uani
O11 O 0.1992(3) 0.1848(5) -0.7970(8) 0.0213 Uani
O12 O 0.4242(4) 0.1274(6) -0.7110(9) 0.0303 Uani
O13 O 0.1262(4) 0.1823(5) -0.6562(8) 0.0183 Uani
O14 O 0.3355(3) 0.1452(5) -0.8120(8) 0.0203 Uani
O15 O 0.2782(4) 0.1057(5) -0.4703(8) 0.0180 Uani
O16 O 0.1105(4) 0.1144(5) -0.4761(9) 0.0267 Uani
O17 O 0.2543(4) 0.0780(6) -0.7520(8) 0.0233 Uani
O18 O 0.2825(5) 0.2500 -0.4867(11) 0.0150 Uani
O19 O 0.2063(5) 0.2500 -0.5972(11) 0.0160 Uani
O20 O 0.3758(5) 0.2500 -0.7180(12) 0.0200 Uani
O21 O 0.2777(5) 0.2500 -0.8572(11) 0.0253 Uani
O22 O 0.2814(4) 0.1868(5) -0.6550(8) 0.0173 Uani
O23 O 0.2580(4) -0.0078(5) -0.5892(9) 0.0260 Uani
O24 O 0.1108(6) 0.2500 -0.8404(12) 0.0270 Uani
C1 C 0.0341(7) -0.0827(9) -0.6857(14) 0.0347 Uani
C2 C 0.0264(8) -0.1435(12) -0.7376(18) 0.0530 Uani
H1 H 0.0501 -0.1776 -0.7353 0.0630 Uiso
C3 C -0.0017(8) -0.0329(9) -0.6853(16) 0.0460 Uani
H2 H 0.0035 0.0069 -0.6496 0.0550 Uiso
C4 C 0.0873(10) -0.0341(13) -0.556(2) 0.0640 Uani
H3 H 0.0630 -0.0092 -0.5227 0.0770 Uiso
C5 C 0.1378(9) -0.0380(11) -0.5290(15) 0.0513 Uani
H4 H 0.1525 -0.0144 -0.4751 0.0620 Uiso
C6 C 0.1247(7) -0.0989(10) -0.6666(14) 0.0383 Uani
H5 H 0.1292 -0.1248 -0.7254 0.0460 Uiso
C7 C -0.0188(9) -0.1510(12) -0.794(2) 0.0743 Uani
H6 H -0.0237 -0.1893 -0.8333 0.0900 Uiso
C8 C -0.0476(7) -0.0442(10) -0.7422(15) 0.0417 Uani
H7 H -0.0721 -0.0112 -0.7455 0.0500 Uiso
C9 C -0.0542(7) -0.1046(10) -0.7909(14) 0.0363 Uani
C10 C -0.1467(8) -0.0985(11) -0.8200(17) 0.0470 Uani
H8 H -0.1553 -0.0742 -0.7615 0.0560 Uiso
C11 C -0.1019(7) -0.1553(9) -0.9349(15) 0.0333 Uani
H9 H -0.0761 -0.1760 -0.9707 0.0400 Uiso
N1 N -0.1810(7) -0.1219(9) -0.8921(13) 0.0507 Uani
N2 N -0.0991(6) -0.1156(8) -0.8455(12) 0.0387 Uani
C12 C -0.1528(7) -0.1561(10) -0.9565(17) 0.0450 Uani
H10 H -0.1660 -0.1791 -1.0126 0.0540 Uiso
N3 N 0.1631(7) -0.0819(9) -0.5937(13) 0.0490 Uani
N4 N 0.0805(5) -0.0712(8) -0.6360(13) 0.0403 Uani
O22G O 0.2814(4) 0.3132(5) -0.6550(8) 0.0173 Uani
W2G W 0.15436(2) 0.33274(3) -0.52234(5) 0.0202 Uani
W4G W 0.26523(2) 0.42306(3) -0.60737(5) 0.0212 Uani
W5G W 0.26661(2) 0.33239(3) -0.36542(5) 0.0221 Uani
W6G W 0.26503(2) 0.34068(4) -0.82678(5) 0.0263 Uani
W7G W 0.36667(2) 0.34129(3) -0.68231(5) 0.0207 Uani
Co1G Co 0.24085(12) 0.60895(17) -0.6009(2) 0.0534 Uani
O2G O 0.1988(3) 0.3938(5) -0.5885(8) 0.0193 Uani
O3G O 0.3759(4) 0.3176(5) -0.5441(7) 0.0173 Uani
O5G O 0.2389(4) 0.6159(6) -0.7626(8) 0.0260 Uani
O6G O 0.2425(4) 0.6281(7) -0.4470(9) 0.0350 Uani
O8G O 0.2006(4) 0.3305(5) -0.4117(7) 0.0177 Uani
O9G O 0.3365(4) 0.3157(5) -0.3557(8) 0.0190 Uani
O10G O 0.3363(4) 0.4221(5) -0.6350(9) 0.0247 Uani
O11G O 0.1992(3) 0.3152(5) -0.7970(8) 0.0213 Uani
O12G O 0.4242(4) 0.3726(6) -0.7110(9) 0.0303 Uani
O13G O 0.1262(4) 0.3177(5) -0.6562(8) 0.0183 Uani
O14G O 0.3355(3) 0.3548(5) -0.8120(8) 0.0203 Uani
O15G O 0.2782(4) 0.3943(5) -0.4703(8) 0.0180 Uani
O16G O 0.1105(4) 0.3856(5) -0.4761(9) 0.0267 Uani
O17G O 0.2543(4) 0.4220(6) -0.7520(8) 0.0233 Uani
O23G O 0.2580(4) 0.5078(5) -0.5892(9) 0.0260 Uani
C1G C 0.0341(7) 0.5827(9) -0.6857(14) 0.0347 Uani
C2G C 0.0264(8) 0.6435(12) -0.7376(18) 0.0530 Uani
H1G H 0.0501 0.6776 -0.7353 0.0630 Uiso
C3G C -0.0017(8) 0.5329(9) -0.6853(16) 0.0460 Uani
H2G H 0.0035 0.4931 -0.6496 0.0550 Uiso
C4G C 0.0873(10) 0.5341(13) -0.556(2) 0.0640 Uani
H3G H 0.0630 0.5092 -0.5227 0.0770 Uiso
C5G C 0.1378(9) 0.5380(11) -0.5290(15) 0.0513 Uani
H4G H 0.1525 0.5144 -0.4751 0.0620 Uiso
C6G C 0.1247(7) 0.5989(10) -0.6666(14) 0.0383 Uani
H5G H 0.1292 0.6248 -0.7254 0.0460 Uiso
C7G C -0.0188(9) 0.6510(12) -0.794(2) 0.0743 Uani
H6G H -0.0237 0.6893 -0.8333 0.0900 Uiso
C8G C -0.0476(7) 0.5442(10) -0.7422(15) 0.0417 Uani
H7G H -0.0721 0.5112 -0.7455 0.0500 Uiso
C9G C -0.0542(7) 0.6046(10) -0.7909(14) 0.0363 Uani
C10G C -0.1467(8) 0.5985(11) -0.8200(17) 0.0470 Uani
H8G H -0.1553 0.5742 -0.7615 0.0560 Uiso
C11G C -0.1019(7) 0.6553(9) -0.9349(15) 0.0333 Uani
H9G H -0.0761 0.6760 -0.9707 0.0400 Uiso
N1G N -0.1810(7) 0.6219(9) -0.8921(13) 0.0507 Uani
N2G N -0.0991(6) 0.6156(8) -0.8455(12) 0.0387 Uani
C12G C -0.1528(7) 0.6561(10) -0.9565(17) 0.0450 Uani
H10G H -0.1660 0.6791 -1.0126 0.0540 Uiso
N3G N 0.1631(7) 0.5819(9) -0.5937(13) 0.0490 Uani
N4G N 0.0805(5) 0.5712(8) -0.6360(13) 0.0403 Uani
W5A W 0.23339(2) -0.16761(3) -0.86542(5) 0.0221 Uani
W5F W 0.23339(2) 0.66761(3) -0.86542(5) 0.0221 Uani
W6A W 0.23497(2) -0.15932(4) -0.32678(5) 0.0263 Uani
W6F W 0.23497(2) 0.65932(4) -0.32678(5) 0.0263 Uani
Co1B Co -0.25915(12) 0.60895(17) -0.8991(2) 0.0534 Uani
Co1E Co -0.25915(12) -0.10895(17) -0.8991(2) 0.0534 Uani
O5A O 0.2611(4) 0.1159(6) -0.2626(8) 0.0260 Uani
O5F O 0.2611(4) 0.3841(6) -0.2626(8) 0.0260 Uani
O6A O 0.2575(4) 0.1281(7) -0.9470(9) 0.0350 Uani
O6F O 0.2575(4) 0.3719(7) -0.9470(9) 0.0350 Uani
N1B N 0.3190(7) 0.6219(9) -0.6079(13) 0.0507 Uani
N1E N 0.3190(7) -0.1219(9) -0.6079(13) 0.0507 Uani
O25 O 0.5118(9) 0.2500 -0.536(2) 0.0793 Uani
C13 C 0.4573(5) -0.0085(7) -0.4466(12) 0.0213 Uani
C14 C 0.4654(5) 0.0504(8) -0.4945(15) 0.0333 Uani
H11 H 0.4426 0.0855 -0.4900 0.0400 Uiso
C15 C 0.4032(5) -0.0610(9) -0.3162(14) 0.0337 Uani
H12 H 0.4268 -0.0905 -0.2898 0.0410 Uiso
C16 C 0.3681(6) 0.0149(9) -0.4093(15) 0.0340 Uani
H13 H 0.3633 0.0469 -0.4603 0.0410 Uiso
C17 C 0.3328(6) -0.0075(8) -0.3413(15) 0.0327 Uani
H14 H 0.3000 0.0075 -0.3345 0.0390 Uiso
C18 C 0.5087(7) 0.0563(11) -0.5501(15) 0.0437 Uani
H15 H 0.5143 0.0955 -0.5870 0.0520 Uiso
N5 N 0.4114(4) -0.0180(6) -0.3890(10) 0.0213 Uani
N6 N 0.3561(5) -0.0568(8) -0.2850(12) 0.0337 Uani
C13D C 0.5427(5) 0.0085(7) -0.5534(12) 0.0213 Uani
C14D C 0.5346(5) -0.0504(8) -0.5055(15) 0.0333 Uani
H11D H 0.5574 -0.0855 -0.5100 0.0400 Uiso
C15D C 0.5968(5) 0.0610(9) -0.6838(14) 0.0337 Uani
H12D H 0.5732 0.0905 -0.7102 0.0410 Uiso
C16D C 0.6319(6) -0.0149(9) -0.5907(15) 0.0340 Uani
H13D H 0.6367 -0.0469 -0.5397 0.0410 Uiso
C17D C 0.6672(6) 0.0075(8) -0.6587(15) 0.0327 Uani
H14D H 0.7000 -0.0075 -0.6655 0.0390 Uiso
C18D C 0.4913(7) -0.0563(11) -0.4499(15) 0.0437 Uani
H15D H 0.4857 -0.0955 -0.4130 0.0520 Uiso
N5D N 0.5886(4) 0.0180(6) -0.6110(10) 0.0213 Uani
N6D N 0.6439(5) 0.0568(8) -0.7150(12) 0.0337 Uani
loop_
_atom_site_aniso_label
_atom_site_aniso_U_11
_atom_site_aniso_U_22
_atom_site_aniso_U_33
_atom_site_aniso_U_23
_atom_site_aniso_U_13
_atom_site_aniso_U_12
W1 0.0160(4) 0.0296(5) 0.0156(4) 0.000 -0.0035(3) 0.000
W2 0.0178(3) 0.0215(3) 0.0213(3) 0.0000(3) 0.0019(3) -0.0013(2)
W3 0.0168(4) 0.0296(5) 0.0131(4) 0.000 -0.0032(3) 0.000
W4 0.0211(3) 0.0184(3) 0.0242(3) -0.0059(3) -0.0011(3) -0.0003(2)
W5 0.0290(3) 0.0237(3) 0.0137(3) 0.0024(2) -0.0005(3) 0.0013(2)
W6 0.0249(3) 0.0386(4) 0.0154(3) -0.0128(3) -0.0015(3) -0.0005(3)
W7 0.0149(3) 0.0262(3) 0.0210(3) -0.0032(3) 0.0013(2) 0.0019(2)
Co1 0.0625(19) 0.0531(19) 0.0447(18) -0.0017(15) -0.0003(15) -0.0018(15)
O1 0.022(7) 0.029(8) 0.008(7) 0.000 -0.001(6) 0.000
O2 0.016(4) 0.017(5) 0.025(6) -0.003(4) 0.001(4) -0.001(4)
O3 0.024(5) 0.023(5) 0.005(5) -0.001(4) 0.003(4) 0.003(4)
O4 0.023(7) 0.038(9) 0.007(7) 0.000 -0.003(6) 0.000
O5 0.026(5) 0.033(6) 0.019(6) -0.005(5) 0.003(5) 0.000(5)
O6 0.030(6) 0.060(9) 0.015(6) 0.017(6) 0.006(5) 0.007(6)
O7 0.019(7) 0.045(10) 0.029(10) 0.000 -0.007(7) 0.000
O8 0.023(5) 0.019(5) 0.011(5) -0.003(4) 0.001(4) -0.004(4)
O9 0.023(5) 0.026(5) 0.008(5) 0.003(4) 0.003(4) 0.004(4)
O10 0.015(5) 0.027(6) 0.032(7) -0.010(5) -0.004(5) 0.004(4)
O11 0.015(5) 0.024(5) 0.025(6) -0.008(5) -0.006(4) 0.001(4)
O12 0.025(5) 0.036(7) 0.030(7) -0.015(6) -0.001(5) 0.005(5)
O13 0.021(5) 0.017(5) 0.017(5) -0.005(4) 0.000(4) -0.001(4)
O14 0.015(4) 0.027(6) 0.019(6) -0.002(5) -0.001(4) -0.001(4)
O15 0.025(5) 0.019(5) 0.010(5) -0.002(4) -0.002(4) 0.003(4)
O16 0.026(5) 0.021(5) 0.033(7) -0.002(5) 0.010(5) -0.011(4)
O17 0.016(5) 0.035(6) 0.019(6) -0.011(5) -0.008(4) -0.002(4)
O18 0.015(3) 0.015(3) 0.015(3) 0.000 0.0000(10) 0.000
O19 0.016(3) 0.016(3) 0.016(3) 0.000 0.0000(10) 0.000
O20 0.020(3) 0.020(3) 0.020(3) 0.000 -0.0003(10) 0.000
O21 0.023(7) 0.048(10) 0.005(7) 0.000 0.002(6) 0.000
O22 0.019(5) 0.020(5) 0.013(5) -0.002(4) -0.004(4) -0.003(4)
O23 0.028(5) 0.019(5) 0.031(7) -0.007(5) -0.005(5) -0.005(4)
O24 0.026(8) 0.043(10) 0.012(8) 0.000 -0.004(6) 0.000
C1 0.039(9) 0.039(10) 0.026(9) -0.013(8) 0.005(8) 0.003(8)
C2 0.053(6) 0.053(6) 0.053(6) -0.0001(10) -0.0001(10) 0.0002(10)
C3 0.057(12) 0.026(9) 0.055(14) -0.022(9) 0.013(11) -0.008(9)
C4 0.064(6) 0.064(6) 0.064(6) -0.0003(10) 0.0001(10) 0.0001(10)
C5 0.091(17) 0.042(12) 0.021(10) -0.012(9) -0.001(11) -0.006(11)
C6 0.034(9) 0.063(13) 0.018(9) -0.010(9) 0.007(8) -0.007(9)
C7 0.065(15) 0.048(14) 0.11(2) -0.040(15) -0.053(16) 0.024(11)
C8 0.035(9) 0.048(12) 0.042(12) -0.001(10) 0.014(9) 0.020(9)
C9 0.043(10) 0.041(11) 0.025(9) 0.006(8) 0.013(8) 0.008(8)
C10 0.047(5) 0.047(5) 0.047(5) -0.0002(10) 0.0001(10) 0.0004(10)
C11 0.033(4) 0.034(4) 0.033(4) -0.0002(10) 0.0000(10) 0.0004(10)
N1 0.061(11) 0.056(11) 0.035(10) -0.016(8) -0.007(9) 0.027(9)
N2 0.046(9) 0.037(9) 0.033(9) 0.004(7) -0.011(7) 0.012(7)
C12 0.045(5) 0.045(5) 0.045(5) -0.0003(10) -0.0001(10) 0.0003(10)
N3 0.061(11) 0.053(11) 0.033(10) -0.016(8) 0.007(8) -0.010(9)
N4 0.032(8) 0.049(10) 0.040(10) -0.023(8) -0.002(7) 0.003(7)
O22G 0.019 0.02 0.013 0.002 -0.004 0.003
W2G 0.0178 0.0215 0.0213 0 0.0019 0.0013
W4G 0.0211 0.0184 0.0242 0.0059 -0.0011 0.0003
W5G 0.029 0.0237 0.0137 -0.0024 -0.0005 -0.0013
W6G 0.0249 0.0386 0.0154 0.0128 -0.0015 0.0005
W7G 0.0149 0.0262 0.021 0.0032 0.0013 -0.0019
Co1G 0.0625 0.0531 0.0447 0.0017 -0.0003 0.0018
O2G 0.016 0.017 0.025 0.003 0.001 0.001
O3G 0.024 0.023 0.005 0.001 0.003 -0.003
O5G 0.026 0.033 0.019 0.005 0.003 0
O6G 0.03 0.06 0.015 -0.017 0.006 -0.007
O8G 0.023 0.019 0.011 0.003 0.001 0.004
O9G 0.023 0.026 0.008 -0.003 0.003 -0.004
O10G 0.015 0.027 0.032 0.01 -0.004 -0.004
O11G 0.015 0.024 0.025 0.008 -0.006 -0.001
O12G 0.025 0.036 0.03 0.015 -0.001 -0.005
O13G 0.021 0.017 0.017 0.005 0 0.001
O14G 0.015 0.027 0.019 0.002 -0.001 0.001
O15G 0.025 0.019 0.01 0.002 -0.002 -0.003
O16G 0.026 0.021 0.033 0.002 0.01 0.011
O17G 0.016 0.035 0.019 0.011 -0.008 0.002
O23G 0.028 0.019 0.031 0.007 -0.005 0.005
C1G 0.039 0.039 0.026 0.013 0.005 -0.003
C2G 0.053 0.053 0.053 0.0001 -0.0001 -0.0002
C3G 0.057 0.026 0.055 0.022 0.013 0.008
C4G 0.064 0.064 0.064 0.0003 0.0001 -0.0001
C5G 0.091 0.042 0.021 0.012 -0.001 0.006
C6G 0.034 0.063 0.018 0.01 0.007 0.007
C7G 0.065 0.048 0.11 0.04 -0.053 -0.024
C8G 0.035 0.048 0.042 0.001 0.014 -0.02
C9G 0.043 0.041 0.025 -0.006 0.013 -0.008
C10G 0.047 0.047 0.047 0.0002 0.0001 -0.0004
C11G 0.033 0.034 0.033 0.0002 0 -0.0004
N1G 0.061 0.056 0.035 0.016 -0.007 -0.027
N2G 0.046 0.037 0.033 -0.004 -0.011 -0.012
C12G 0.045 0.045 0.045 0.0003 -0.0001 -0.0003
N3G 0.061 0.053 0.033 0.016 0.007 0.01
N4G 0.032 0.049 0.04 0.023 -0.002 -0.003
W5A 0.029 0.0237 0.0137 -0.0024 0.0005 0.0013
W5F 0.029 0.0237 0.0137 0.0024 0.0005 -0.0013
W6A 0.0249 0.0386 0.0154 0.0128 0.0015 -0.0005
W6F 0.0249 0.0386 0.0154 -0.0128 0.0015 0.0005
Co1B 0.0625 0.0531 0.0447 -0.0017 0.0003 0.0018
Co1E 0.0625 0.0531 0.0447 0.0017 0.0003 -0.0018
O5A 0.026 0.033 0.019 0.005 -0.003 0
O5F 0.026 0.033 0.019 -0.005 -0.003 0
O6A 0.03 0.06 0.015 -0.017 -0.006 0.007
O6F 0.03 0.06 0.015 0.017 -0.006 -0.007
N1B 0.061 0.056 0.035 -0.016 0.007 -0.027
N1E 0.061 0.056 0.035 0.016 0.007 0.027
O25 0.068(16) 0.080(18) 0.09(2) 0.000 0.001(15) 0.000
C13 0.019(7) 0.023(8) 0.022(8) 0.011(6) 0.000(6) 0.008(6)
C14 0.015(7) 0.024(8) 0.061(13) 0.022(8) 0.013(8) 0.005(6)
C15 0.009(6) 0.048(10) 0.044(11) 0.022(9) -0.002(7) -0.002(7)
C16 0.034(4) 0.034(4) 0.034(4) 0.0005(10) 0.0002(10) 0.0001(10)
C17 0.016(7) 0.027(8) 0.055(12) 0.011(9) 0.005(7) -0.006(6)
C18 0.046(11) 0.057(13) 0.028(10) 0.020(10) 0.003(9) 0.007(10)
N5 0.019(6) 0.022(6) 0.023(7) 0.007(5) 0.004(5) 0.005(5)
N6 0.028(7) 0.035(8) 0.038(9) 0.012(7) 0.006(7) -0.009(6)
C13D 0.019 0.023 0.022 0.011 0 0.008
C14D 0.015 0.024 0.061 0.022 0.013 0.005
C15D 0.009 0.048 0.044 0.022 -0.002 -0.002
C16D 0.034 0.034 0.034 0.0005 0.0002 0.0001
C17D 0.016 0.027 0.055 0.011 0.005 -0.006
C18D 0.046 0.057 0.028 0.02 0.003 0.007
N5D 0.019 0.022 0.023 0.007 0.004 0.005
N6D 0.028 0.035 0.038 0.012 0.006 -0.009
loop_
_geom_bond_atom_site_label_1
_geom_bond_atom_site_label_2
_geom_bond_site_symmetry_1
_geom_bond_site_symmetry_2
W1 O11 1_555 1_555
W2 O1 1_555 1_555
W3 O3 1_555 1_555
W4 O2 1_555 1_555
W5 O4 1_555 1_555
W6 O11 1_555 1_555
W7 O3 1_555 1_555
Co1 O5 1_555 1_555
B1 O18 1_555 1_555
O1 W2G 1_555 1_555
O2 W2 1_555 1_555
O4 W5G 1_555 1_555
O5 W5A 1_555 1_555
O6 Co1 1_555 1_555
O7 W3 1_555 1_555
O8 W2 1_555 1_555
O9 W3 1_555 1_555
O10 W4 1_555 1_555
O12 W7 1_555 1_555
O13 W1 1_555 1_555
O14 W6 1_555 1_555
O15 W4 1_555 1_555
O16 W2 1_555 1_555
O17 W4 1_555 1_555
O18 W3 1_555 1_555
O19 W1 1_555 1_555
O20 W7 1_555 1_555
O21 W6 1_555 1_555
O22 W4 1_555 1_555
O23 W4 1_555 1_555
O24 W1 1_555 1_555
C1 C2 1_555 1_555
C2 H1 1_555 1_555
C3 C1 1_555 1_555
H2 C3 1_555 1_555
C4 H3 1_555 1_555
C5 C4 1_555 1_555
H4 C5 1_555 1_555
C6 H5 1_555 1_555
C7 C2 1_555 1_555
H6 C7 1_555 1_555
C8 C3 1_555 1_555
H7 C8 1_555 1_555
C9 C7 1_555 1_555
C10 H8 1_555 1_555
C11 H9 1_555 1_555
N1 C10 1_555 1_555
N2 C9 1_555 1_555
C12 C11 1_555 1_555
H10 C12 1_555 1_555
N3 Co1 1_555 1_555
N4 C1 1_555 1_555
C13 C14 1_555 1_555
C14 H11 1_555 1_555
C15 H12 1_555 1_555
C16 H13 1_555 1_555
C17 C16 1_555 1_555
H14 C17 1_555 1_555
C18 C14 1_555 1_555
H15 C18 1_555 1_555
N5 C13 1_555 1_555
N6 C15 1_555 1_555
O22G B1 1_555 1_555
W2G O19 1_555 1_555
W4G O22G 1_555 1_555
W5G O18 1_555 1_555
W6G O21 1_555 1_555
W7G O20 1_555 1_555
Co1G O5G 1_555 1_555
O2G W2G 1_555 1_555
O3G W3 1_555 1_555
O5G W5F 1_555 1_555
O6G Co1G 1_555 1_555
O8G W2G 1_555 1_555
O9G W3 1_555 1_555
O10G W4G 1_555 1_555
O11G W1 1_555 1_555
O12G W7G 1_555 1_555
O13G W1 1_555 1_555
O14G W6G 1_555 1_555
O15G W4G 1_555 1_555
O16G W2G 1_555 1_555
O17G W4G 1_555 1_555
O23G W4G 1_555 1_555
C1G C2G 1_555 1_555
C2G H1G 1_555 1_555
C3G C1G 1_555 1_555
H2G C3G 1_555 1_555
C4G H3G 1_555 1_555
C5G C4G 1_555 1_555
H4G C5G 1_555 1_555
C6G H5G 1_555 1_555
C7G C2G 1_555 1_555
H6G C7G 1_555 1_555
C8G C3G 1_555 1_555
H7G C8G 1_555 1_555
C9G C7G 1_555 1_555
C10G H8G 1_555 1_555
C11G H9G 1_555 1_555
N1G C10G 1_555 1_555
N2G C9G 1_555 1_555
C12G C11G 1_555 1_555
H10G C12G 1_555 1_555
N3G Co1G 1_555 1_555
N4G C1G 1_555 1_555
W6A O6 1_555 1_555
W6F O6G 1_555 1_555
Co1B N1G 1_555 1_555
Co1E N1 1_555 1_555
O5A W5 1_555 1_555
O5F W5G 1_555 1_555
O6A W6 1_555 1_555
O6F W6G 1_555 1_555
N1B Co1G 1_555 1_555
N1E Co1 1_555 1_555
C13D C18 1_555 1_555
C14D C13D 1_555 1_555
H11D C14D 1_555 1_555
C15D H12D 1_555 1_555
C16D H13D 1_555 1_555
C17D C16D 1_555 1_555
H14D C17D 1_555 1_555
C18D C13 1_555 1_555
H15D C18D 1_555 1_555
N5D C13D 1_555 1_555
N6D C15D 1_555 1_555
W2 O13 1_555 1_555
W2 O19 1_555 1_555
W5 O8 1_555 1_555
W5 O9 1_555 1_555
W5 O15 1_555 1_555
W5 O18 1_555 1_555
W6 O17 1_555 1_555
W6 O22 1_555 1_555
W7 O10 1_555 1_555
W7 O14 1_555 1_555
W7 O22 1_555 1_555
Co1 O23 1_555 1_555
B1 O19 1_555 1_555
B1 O22 1_555 1_555
C4 N4 1_555 1_555
C5 N3 1_555 1_555
C6 N3 1_555 1_555
C6 N4 1_555 1_555
C8 C9 1_555 1_555
C10 N2 1_555 1_555
C11 N2 1_555 1_555
N1 C12 1_555 1_555
C15 N5 1_555 1_555
C16 N5 1_555 1_555
C17 N6 1_555 1_555
O22G W6G 1_555 1_555
O22G W7G 1_555 1_555
W2G O13G 1_555 1_555
W4G O2G 1_555 1_555
W5G O8G 1_555 1_555
W5G O9G 1_555 1_555
W5G O15G 1_555 1_555
W6G O11G 1_555 1_555
W6G O17G 1_555 1_555
W7G O3G 1_555 1_555
W7G O10G 1_555 1_555
W7G O14G 1_555 1_555
Co1G O23G 1_555 1_555
C4G N4G 1_555 1_555
C5G N3G 1_555 1_555
C6G N3G 1_555 1_555
C6G N4G 1_555 1_555
C8G C9G 1_555 1_555
C10G N2G 1_555 1_555
C11G N2G 1_555 1_555
N1G C12G 1_555 1_555
C14D C18D 1_555 1_555
C15D N5D 1_555 1_555
C16D N5D 1_555 1_555
C17D N6D 1_555 1_555

#END
