
#######################################################################
#
#                 Cambridge Crystallographic Data Centre
#                                CCDC 
#
#######################################################################
#
# If this CIF has been generated from an entry in the Cambridge 
# Structural Database, then it will include bibliographic, chemical, 
# crystal, experimental, refinement or atomic coordinate data resulting 
# from the CCDC's data processing and validation procedures.
#
#######################################################################

data_OQUXIJ
_chemical_formula_moiety         '(C36 H34 Co2 N12 O40 W12)n'
_symmetry_cell_setting           orthorhombic
_symmetry_space_group_name_H-M   'P n m a'
_symmetry_Int_Tables_number      62
_space_group_name_Hall           '-P 2ac 2n'
loop_
_symmetry_equiv_pos_site_id
_symmetry_equiv_pos_as_xyz
1 x,y,z
2 1/2-x,-y,1/2+z
3 1/2+x,1/2-y,1/2-z
4 -x,1/2+y,-z
5 -x,-y,-z
6 1/2+x,y,1/2-z
7 1/2-x,1/2+y,1/2+z
8 x,1/2-y,z
_cell_length_a                   26.548(5)
_cell_length_b                   20.076(5)
_cell_length_c                   12.964(5)
_cell_angle_alpha                90
_cell_angle_beta                 90
_cell_angle_gamma                90
_cell_volume                     6909.52
loop_
_atom_site_label
_atom_site_type_symbol
_atom_site_fract_x
_atom_site_fract_y
_atom_site_fract_z
N5 N 0.5886(5) -0.0169(8) 0.8870(11)
N6 N 0.6427(6) -0.0540(9) 0.7758(14)
C13 C 0.6319(6) 0.0163(9) 0.9032(16)
H11 H 0.6371 0.0492 0.9527
C14 C 0.5425(6) -0.0080(8) 0.9451(14)
C15 C 0.5963(6) -0.0612(10) 0.8119(16)
H12 H 0.5729 -0.0922 0.7887
C16 C 0.6669(7) -0.0066(10) 0.8342(18)
H13 H 0.7003 0.0071 0.8281
C17 C 0.5348(7) 0.0502(10) 0.9938(17)
H14 H 0.5587 0.0841 0.9900
C18 C 0.4917(7) 0.0591(11) 1.0487(18)
H15 H 0.4855 0.0993 1.0818
N5D N 0.4114(5) 0.0169(8) 1.1130(11)
N6D N 0.3573(6) 0.0540(9) 1.2242(14)
C13D C 0.3681(6) -0.0163(9) 1.0968(16)
H11D H 0.3629 -0.0492 1.0473
C14D C 0.4575(6) 0.0080(8) 1.0549(14)
C15D C 0.4037(6) 0.0612(10) 1.1881(16)
H12D H 0.4271 0.0922 1.2113
C16D C 0.3331(7) 0.0066(10) 1.1658(18)
H13D H 0.2997 -0.0071 1.1719
C17D C 0.4652(7) -0.0502(10) 1.0062(17)
H14D H 0.4413 -0.0841 1.0100
C18D C 0.5083(7) -0.0591(11) 0.9513(18)
H15D H 0.5145 -0.0993 0.9182
Co1 Co 0.74075(12) 0.10694(17) 0.5966(2)
W1 W 0.84708(2) 0.16718(3) 0.01567(5)
W2 W 0.84766(3) 0.2500 0.23956(7)
W3 W 0.63104(3) 0.2500 -0.06551(7)
W4 W 0.73305(2) 0.07704(3) 0.10493(5)
W5 W 0.73107(3) 0.16945(3) -0.14064(5)
W6 W 0.63182(2) 0.15782(3) 0.18144(5)
W7 W 0.73380(3) 0.15814(5) 0.32371(6)
N1 N 0.6616(6) 0.0811(8) 0.5876(12)
O1 O 0.7457(5) 0.0749(7) 0.2483(10)
O2 O 0.8002(4) 0.1075(5) 0.0842(9)
O3 O 0.8005(4) 0.3153(6) 0.2890(8)
O4 O 0.6624(4) 0.1415(6) 0.3145(8)
O5 O 0.8773(5) 0.2500 -0.0269(12)
O6 O 0.8761(4) 0.1826(5) 0.1511(9)
O7 O 0.6592(4) 0.1821(5) -0.1541(8)
O8 O 0.7214(7) 0.2500 0.3493(13)
O9 O 0.6617(4) 0.0752(6) 0.1329(10)
O10 O 0.8901(4) 0.1129(5) -0.0331(10)
O11 O 0.5707(6) 0.2500 -0.1144(13)
O12 O 0.8017(5) 0.2500 0.0891(11)
O13 O 0.7138(5) 0.2500 -0.0352(11)
O14 O 0.7142(4) 0.1783(6) 0.1610(8)
O15 O 0.7989(4) 0.1722(5) -0.0926(8)
O16 O 0.7432(5) 0.1278(9) 0.4454(10)
O17 O 0.7196(4) 0.1085(5) -0.0307(9)
O18 O 0.7437(5) 0.2500 -0.2209(11)
O19 O 0.5728(4) 0.1285(7) 0.2089(10)
O20 O 0.6251(6) 0.2500 0.2139(12)
O21 O 0.8911(6) 0.2500 0.3384(13)
O22 O 0.6239(4) 0.1848(6) 0.0409(8)
O23 O 0.7415(4) -0.0071(5) 0.0845(10)
C1 C 0.6385(9) 0.0355(10) 0.5231(16)
H1 H 0.6546 0.0120 0.4707
N2 N 0.5803(6) 0.0724(8) 0.6286(12)
C2 C 0.5342(7) 0.0834(10) 0.6819(15)
C3 C 0.4528(7) 0.0444(10) 0.7383(17)
H2 H 0.4279 0.0119 0.7403
C4 C 0.4980(8) 0.0331(10) 0.6854(17)
H3 H 0.5038 -0.0075 0.6530
C5 C 0.4459(7) 0.1041(8) 0.7871(15)
C6 C 0.6259(8) 0.0999(10) 0.6530(16)
H4 H 0.6313 0.1283 0.7086
C7 C 0.4805(10) 0.1522(11) 0.784(2)
H5 H 0.4741 0.1929 0.8152
C8 C 0.5273(8) 0.1417(11) 0.731(2)
H6 H 0.5522 0.1742 0.7318
C9 C 0.5899(10) 0.0301(12) 0.5470(18)
H7 H 0.5665 0.0026 0.5145
N3 N 0.4011(6) 0.1186(8) 0.8445(13)
C10 C 0.3482(9) 0.1568(12) 0.9622(16)
H8 H 0.3355 0.1786 1.0199
C11 C 0.3982(8) 0.1572(11) 0.9344(16)
H9 H 0.4245 0.1786 0.9681
N4 N 0.3198(7) 0.1208(9) 0.8957(13)
C12 C 0.3530(9) 0.0989(13) 0.8236(18)
H10 H 0.3439 0.0734 0.7667
O24 O 0.7372(4) 0.1148(6) -0.2442(8)
Co1G Co 0.74075(12) 0.39306(17) 0.5966(2)
W1G W 0.84708(2) 0.33282(3) 0.01567(5)
W4G W 0.73305(2) 0.42296(3) 0.10493(5)
W5G W 0.73107(3) 0.33055(3) -0.14064(5)
W6G W 0.63182(2) 0.34218(3) 0.18144(5)
W7G W 0.73380(3) 0.34186(5) 0.32371(6)
N1G N 0.6616(6) 0.4189(8) 0.5876(12)
O1G O 0.7457(5) 0.4251(7) 0.2483(10)
O2G O 0.8002(4) 0.3925(5) 0.0842(9)
O3G O 0.8005(4) 0.1847(6) 0.2890(8)
O4G O 0.6624(4) 0.3585(6) 0.3145(8)
O6G O 0.8761(4) 0.3174(5) 0.1511(9)
O7G O 0.6592(4) 0.3179(5) -0.1541(8)
O9G O 0.6617(4) 0.4248(6) 0.1329(10)
O10G O 0.8901(4) 0.3871(5) -0.0331(10)
O14G O 0.7142(4) 0.3217(6) 0.1610(8)
O15G O 0.7989(4) 0.3278(5) -0.0926(8)
O16G O 0.7432(5) 0.3722(9) 0.4454(10)
O17G O 0.7196(4) 0.3915(5) -0.0307(9)
O19G O 0.5728(4) 0.3715(7) 0.2089(10)
O22G O 0.6239(4) 0.3152(6) 0.0409(8)
O23G O 0.7415(4) 0.5071(5) 0.0845(10)
C1G C 0.6385(9) 0.4645(10) 0.5231(16)
H1G H 0.6546 0.4880 0.4707
N2G N 0.5803(6) 0.4276(8) 0.6286(12)
C2G C 0.5342(7) 0.4166(10) 0.6819(15)
C3G C 0.4528(7) 0.4556(10) 0.7383(17)
H2G H 0.4279 0.4881 0.7403
C4G C 0.4980(8) 0.4669(10) 0.6854(17)
H3G H 0.5038 0.5075 0.6530
C5G C 0.4459(7) 0.3959(8) 0.7871(15)
C6G C 0.6259(8) 0.4001(10) 0.6530(16)
H4G H 0.6313 0.3717 0.7086
C7G C 0.4805(10) 0.3478(11) 0.784(2)
H5G H 0.4741 0.3071 0.8152
C8G C 0.5273(8) 0.3583(11) 0.731(2)
H6G H 0.5522 0.3258 0.7318
C9G C 0.5899(10) 0.4699(12) 0.5470(18)
H7G H 0.5665 0.4974 0.5145
N3G N 0.4011(6) 0.3814(8) 0.8445(13)
C10G C 0.3482(9) 0.3432(12) 0.9622(16)
H8G H 0.3355 0.3214 1.0199
C11G C 0.3982(8) 0.3428(11) 0.9344(16)
H9G H 0.4245 0.3214 0.9681
N4G N 0.3198(7) 0.3792(9) 0.8957(13)
C12G C 0.3530(9) 0.4011(13) 0.8236(18)
H10G H 0.3439 0.4266 0.7667
O24G O 0.7372(4) 0.3852(6) -0.2442(8)
Co1_2 Co 0.74075(12) 0.10694(17) -0.4034(2)
Co1A Co 0.75925(12) -0.10694(17) 0.0966(2)
Co1B Co 0.24075(12) 0.39306(17) 0.9034(2)
Co1E Co 0.24075(12) 0.10694(17) 0.9034(2)
Co1F Co 0.75925(12) 0.60694(17) 0.0966(2)
Co1G_2 Co 0.74075(12) 0.39306(17) -0.4034(2)
O23A O 0.7585(4) 0.0071(5) 0.5845(10)
O23F O 0.7585(4) 0.4929(5) 0.5845(10)
N4B N 0.8198(7) 0.3792(9) 0.6043(13)
N4E N 0.8198(7) 0.1208(9) 0.6043(13)
O24_2 O 0.7372(4) 0.1148(6) 0.7558(8)
O24G_2 O 0.7372(4) 0.3852(6) 0.7558(8)
loop_
_geom_bond_atom_site_label_1
_geom_bond_atom_site_label_2
_geom_bond_site_symmetry_1
_geom_bond_site_symmetry_2
Co1 N1 1_555 1_555
W1 O2 1_555 1_555
W2 O3 1_555 1_555
W3 O7 1_555 1_555
W4 O1 1_555 1_555
W5 O7 1_555 1_555
W6 O4 1_555 1_555
W7 O1 1_555 1_555
N1 C1 1_555 1_555
O2 W4 1_555 1_555
O3 W7G 1_555 1_555
O4 W7 1_555 1_555
O5 W1 1_555 1_555
O6 W1 1_555 1_555
O8 W7 1_555 1_555
O9 W4 1_555 1_555
O10 W1 1_555 1_555
O11 W3 1_555 1_555
O12 W1 1_555 1_555
O13 W3 1_555 1_555
O14 W4 1_555 1_555
O15 W1 1_555 1_555
O16 Co1 1_555 1_555
O17 W4 1_555 1_555
O18 W5 1_555 1_555
O19 W6 1_555 1_555
O20 W6 1_555 1_555
O21 W2 1_555 1_555
O22 W3 1_555 1_555
O23 W4 1_555 1_555
C1 H1 1_555 1_555
N2 C2 1_555 1_555
C2 C4 1_555 1_555
C3 H2 1_555 1_555
C4 C3 1_555 1_555
H3 C4 1_555 1_555
C5 C3 1_555 1_555
C6 N1 1_555 1_555
H4 C6 1_555 1_555
C7 C5 1_555 1_555
H5 C7 1_555 1_555
C8 C2 1_555 1_555
H6 C8 1_555 1_555
C9 C1 1_555 1_555
H7 C9 1_555 1_555
N3 C5 1_555 1_555
C10 H8 1_555 1_555
C11 N3 1_555 1_555
H9 C11 1_555 1_555
N4 C10 1_555 1_555
C12 N3 1_555 1_555
H10 C12 1_555 1_555
O24 W5 1_555 1_555
N5 C13 1_555 1_555
N6 C15 1_555 1_555
C13 H11 1_555 1_555
C14 N5 1_555 1_555
C15 N5 1_555 1_555
H12 C15 1_555 1_555
C16 N6 1_555 1_555
H13 C16 1_555 1_555
C17 C14 1_555 1_555
H14 C17 1_555 1_555
C18 C17 1_555 1_555
H15 C18 1_555 1_555
Co1G N1G 1_555 1_555
W1G O5 1_555 1_555
W4G O1G 1_555 1_555
W5G O13 1_555 1_555
W6G O20 1_555 1_555
W7G O8 1_555 1_555
N1G C1G 1_555 1_555
O1G W7G 1_555 1_555
O2G W1G 1_555 1_555
O3G W2 1_555 1_555
O4G W6G 1_555 1_555
O6G W2 1_555 1_555
O7G W3 1_555 1_555
O9G W4G 1_555 1_555
O10G W1G 1_555 1_555
O14G W4G 1_555 1_555
O15G W1G 1_555 1_555
O16G Co1G 1_555 1_555
O17G W4G 1_555 1_555
O19G W6G 1_555 1_555
O22G W3 1_555 1_555
O23G W4G 1_555 1_555
C1G H1G 1_555 1_555
N2G C2G 1_555 1_555
C2G C4G 1_555 1_555
C3G H2G 1_555 1_555
C4G C3G 1_555 1_555
H3G C4G 1_555 1_555
C5G C3G 1_555 1_555
C6G N1G 1_555 1_555
H4G C6G 1_555 1_555
C7G C5G 1_555 1_555
H5G C7G 1_555 1_555
C8G C2G 1_555 1_555
H6G C8G 1_555 1_555
C9G C1G 1_555 1_555
H7G C9G 1_555 1_555
N3G C5G 1_555 1_555
C10G H8G 1_555 1_555
C11G N3G 1_555 1_555
H9G C11G 1_555 1_555
N4G C10G 1_555 1_555
C12G N3G 1_555 1_555
H10G C12G 1_555 1_555
O24G W5G 1_555 1_555
Co1_2 O24 1_555 1_555
Co1A O23 1_555 1_555
Co1B N4G 1_555 1_555
Co1E N4 1_555 1_555
Co1F O23G 1_555 1_555
Co1G_2 O24G 1_555 1_555
O23A Co1 1_555 1_555
O23F Co1G 1_555 1_555
N4B Co1G 1_555 1_555
N4E Co1 1_555 1_555
O24_2 Co1 1_555 1_555
O24G_2 Co1G 1_555 1_555
N5D C13D 1_555 1_555
N6D C15D 1_555 1_555
C13D H11D 1_555 1_555
C14D C18 1_555 1_555
C15D N5D 1_555 1_555
H12D C15D 1_555 1_555
C16D N6D 1_555 1_555
H13D C16D 1_555 1_555
C17D C14D 1_555 1_555
H14D C17D 1_555 1_555
C18D C14 1_555 1_555
H15D C18D 1_555 1_555
W2 O6 1_555 1_555
W2 O12 1_555 1_555
W5 O13 1_555 1_555
W5 O15 1_555 1_555
W5 O17 1_555 1_555
W6 O9 1_555 1_555
W6 O14 1_555 1_555
W6 O22 1_555 1_555
W7 O14 1_555 1_555
W7 O16 1_555 1_555
W7 O3G 1_555 1_555
O12 W1G 1_555 1_555
O18 W5G 1_555 1_555
N2 C6 1_555 1_555
N2 C9 1_555 1_555
C7 C8 1_555 1_555
C10 C11 1_555 1_555
N4 C12 1_555 1_555
C13 C16 1_555 1_555
W1G O6G 1_555 1_555
W4G O2G 1_555 1_555
W5G O7G 1_555 1_555
W5G O15G 1_555 1_555
W5G O17G 1_555 1_555
W6G O9G 1_555 1_555
W6G O14G 1_555 1_555
W6G O22G 1_555 1_555
W7G O4G 1_555 1_555
W7G O14G 1_555 1_555
W7G O16G 1_555 1_555
N2G C6G 1_555 1_555
N2G C9G 1_555 1_555
C7G C8G 1_555 1_555
C10G C11G 1_555 1_555
N4G C12G 1_555 1_555
N5D C14D 1_555 1_555
C13D C16D 1_555 1_555
C17D C18D 1_555 1_555

#END
