
#######################################################################
#
#                 Cambridge Crystallographic Data Centre
#                                CCDC 
#
#######################################################################
#
# If this CIF has been generated from an entry in the Cambridge 
# Structural Database, then it will include bibliographic, chemical, 
# crystal, experimental, refinement or atomic coordinate data resulting 
# from the CCDC's data processing and validation procedures.
#
#######################################################################

data_OQUZIL
_chemical_formula_moiety         '(C36 H35 Ag2 B1 N12 O41 W12)n'
_symmetry_cell_setting           orthorhombic
_symmetry_space_group_name_H-M   'P n m a'
_symmetry_Int_Tables_number      62
_space_group_name_Hall           '-P 2ac 2n'
loop_
_symmetry_equiv_pos_site_id
_symmetry_equiv_pos_as_xyz
1 x,y,z
2 1/2-x,-y,1/2+z
3 1/2+x,1/2-y,1/2-z
4 -x,1/2+y,-z
5 -x,-y,-z
6 1/2+x,y,1/2-z
7 1/2-x,1/2+y,1/2+z
8 x,1/2-y,z
_cell_length_a                   26.664(5)
_cell_length_b                   20.022(5)
_cell_length_c                   12.937(5)
_cell_angle_alpha                90
_cell_angle_beta                 90
_cell_angle_gamma                90
_cell_volume                     6906.63
loop_
_atom_site_label
_atom_site_type_symbol
_atom_site_fract_x
_atom_site_fract_y
_atom_site_fract_z
W1 W 0.15469(5) 0.2500 -0.25235(12)
W2 W 0.15487(4) 0.16719(4) -0.03067(8)
W3 W 0.36799(5) 0.2500 0.05493(11)
W4 W 0.26672(4) 0.16822(5) 0.12835(8)
W5 W 0.26635(4) 0.07766(5) -0.11409(9)
W6 W 0.36799(4) 0.15892(5) -0.18838(8)
W7 W 0.26645(4) 0.15955(5) -0.33397(9)
Ag1 Ag 0.25710(17) 0.1059(2) 0.3908(3)
O1 O 0.2075(7) 0.2500 -0.1054(18)
O2 O 0.2818(5) 0.1884(7) -0.1589(12)
O3 O 0.2564(7) 0.0781(9) -0.2563(16)
O4 O 0.4260(6) 0.1286(9) -0.2174(13)
O5 O 0.3763(8) 0.2500 -0.2244(17)
O6 O 0.3782(5) 0.1838(7) -0.0468(12)
O7 O 0.4273(9) 0.2500 0.1119(19)
O8 O 0.3375(6) 0.1845(8) 0.1400(12)
O9 O 0.2000(6) 0.1714(8) 0.0785(14)
O10 O 0.1115(6) 0.1131(7) 0.0168(13)
O11 O 0.1271(7) 0.2500 0.0076(17)
O12 O 0.1260(5) 0.1848(7) -0.1647(12)
O13 O 0.1109(10) 0.2500 -0.346(2)
O14 O 0.2006(6) 0.3145(9) -0.3033(13)
O15 O 0.2797(9) 0.2500 -0.3640(19)
O16 O 0.3377(6) 0.1460(8) -0.3189(14)
O17 O 0.3372(6) 0.0787(7) -0.1441(14)
O18 O 0.2798(7) 0.1057(8) 0.0231(15)
O19 O 0.2608(6) 0.1162(9) 0.2340(18)
O20 O 0.2567(9) 0.2500 0.201(2)
O21 O 0.2842(9) 0.2500 0.004(2)
O22 O 0.1989(5) 0.1072(7) -0.0974(13)
O23 O 0.2589(6) 0.1261(11) -0.4525(16)
N1 N 0.3354(13) 0.0783(18) 0.394(3)
N2 N 0.6841(10) 0.1208(14) 0.115(2)
N3 N 0.4154(10) 0.0705(12) 0.3607(19)
N4 N 0.5985(9) 0.1187(13) 0.156(2)
C1 C 0.3703(10) 0.0987(15) 0.332(2)
H1 H 0.3656 0.1279 0.2774
C2 C 0.6462(12) 0.0995(16) 0.182(3)
H2 H 0.6530 0.0740 0.2402
C3 C 0.6524(13) 0.1567(15) 0.038(3)
H3 H 0.6656 0.1775 -0.0203
C4 C 0.5011(12) 0.034(2) 0.311(3)
H4 H 0.4957 -0.0068 0.3439
C5 C 0.4632(11) 0.0814(16) 0.305(3)
C6 C 0.4061(11) 0.0355(15) 0.442(2)
H5 H 0.4296 0.0112 0.4793
C7 C 0.3581(13) 0.0396(15) 0.463(3)
H6 H 0.3424 0.0185 0.5187
C8 C 0.4705(14) 0.1398(19) 0.250(3)
H7 H 0.4450 0.1712 0.2437
C9 C 0.5151(17) 0.149(2) 0.208(4)
H8 H 0.5200 0.1891 0.1721
C10 C 0.6036(11) 0.1564(13) 0.060(2)
H9 H 0.5780 0.1761 0.0218
C11 C 0.5554(11) 0.1054(14) 0.213(2)
C12 C 0.5460(14) 0.0484(17) 0.267(3)
H10 H 0.5720 0.0178 0.2750
B1 B 0.2637(13) 0.2500 -0.104(3)
O24 O 0.2599(6) -0.0079(9) -0.0952(15)
O2G O 0.2818(5) 0.3116(7) -0.1589(12)
W2G W 0.15487(4) 0.33281(4) -0.03067(8)
W4G W 0.26672(4) 0.33178(5) 0.12835(8)
W5G W 0.26635(4) 0.42234(5) -0.11409(9)
W6G W 0.36799(4) 0.34108(5) -0.18838(8)
W7G W 0.26645(4) 0.34045(5) -0.33397(9)
Ag1G Ag 0.25710(17) 0.3941(2) 0.3908(3)
O3G O 0.2564(7) 0.4219(9) -0.2563(16)
O4G O 0.4260(6) 0.3714(9) -0.2174(13)
O6G O 0.3782(5) 0.3162(7) -0.0468(12)
O8G O 0.3375(6) 0.3155(8) 0.1400(12)
O9G O 0.2000(6) 0.3286(8) 0.0785(14)
O10G O 0.1115(6) 0.3869(7) 0.0168(13)
O12G O 0.1260(5) 0.3152(7) -0.1647(12)
O14G O 0.2006(6) 0.1855(9) -0.3033(13)
O16G O 0.3377(6) 0.3540(8) -0.3189(14)
O17G O 0.3372(6) 0.4213(7) -0.1441(14)
O18G O 0.2798(7) 0.3943(8) 0.0231(15)
O19G O 0.2608(6) 0.3838(9) 0.2340(18)
O22G O 0.1989(5) 0.3928(7) -0.0974(13)
O23G O 0.2589(6) 0.3739(11) -0.4525(16)
N1G N 0.3354(13) 0.4217(18) 0.394(3)
N2G N 0.6841(10) 0.3792(14) 0.115(2)
N3G N 0.4154(10) 0.4295(12) 0.3607(19)
N4G N 0.5985(9) 0.3813(13) 0.156(2)
C1G C 0.3703(10) 0.4013(15) 0.332(2)
H1G H 0.3656 0.3721 0.2774
C2G C 0.6462(12) 0.4005(16) 0.182(3)
H2G H 0.6530 0.4260 0.2402
C3G C 0.6524(13) 0.3433(15) 0.038(3)
H3G H 0.6656 0.3225 -0.0203
C4G C 0.5011(12) 0.466(2) 0.311(3)
H4G H 0.4957 0.5068 0.3439
C5G C 0.4632(11) 0.4186(16) 0.305(3)
C6G C 0.4061(11) 0.4645(15) 0.442(2)
H5G H 0.4296 0.4888 0.4793
C7G C 0.3581(13) 0.4604(15) 0.463(3)
H6G H 0.3424 0.4815 0.5187
C8G C 0.4705(14) 0.3602(19) 0.250(3)
H7G H 0.4450 0.3288 0.2437
C9G C 0.5151(17) 0.351(2) 0.208(4)
H8G H 0.5200 0.3109 0.1721
C10G C 0.6036(11) 0.3436(13) 0.060(2)
H9G H 0.5780 0.3239 0.0218
C11G C 0.5554(11) 0.3946(14) 0.213(2)
C12G C 0.5460(14) 0.4516(17) 0.267(3)
H10G H 0.5720 0.4822 0.2750
O24G O 0.2599(6) 0.5079(9) -0.0952(15)
Ag1_2 Ag 0.25710(17) 0.1059(2) -0.6092(3)
Ag1A Ag 0.24290(17) -0.1059(2) -0.1092(3)
Ag1B Ag 0.75710(17) 0.3941(2) 0.1092(3)
Ag1E Ag 0.75710(17) 0.1059(2) 0.1092(3)
Ag1F Ag 0.24290(17) 0.6059(2) -0.1092(3)
Ag1G_2 Ag 0.25710(17) 0.3941(2) -0.6092(3)
O23_2 O 0.2589(6) 0.1261(11) 0.5475(16)
O23G_2 O 0.2589(6) 0.3739(11) 0.5475(16)
N2B N 0.1841(10) 0.3792(14) 0.385(2)
N2E N 0.1841(10) 0.1208(14) 0.385(2)
O24A O 0.2401(6) 0.0079(9) 0.4048(15)
O24F O 0.2401(6) 0.4921(9) 0.4048(15)
N5 N 0.4097(7) 0.9816(10) 0.1107(17)
N6 N 0.3538(7) 0.9444(12) 0.2155(19)
C13 C 0.4651(11) 1.0501(15) 0.001(2)
H11 H 0.4417 1.0845 0.0044
C14 C 0.4561(8) 0.9919(11) 0.0528(19)
C15 C 0.4001(10) 0.9400(12) 0.1856(19)
H12 H 0.4235 0.9108 0.2141
C16 C 0.3664(10) 1.0138(15) 0.088(2)
H13 H 0.3618 1.0449 0.0349
C17 C 0.5080(12) 1.0583(17) -0.054(3)
H14 H 0.5133 1.0969 -0.0924
C18 C 0.3312(10) 0.9928(13) 0.154(2)
H15 H 0.2982 1.0077 0.1590
N5D N 0.5903(7) 1.0184(10) -0.1107(17)
N6D N 0.6462(7) 1.0556(12) -0.2155(19)
C13D C 0.5349(11) 0.9499(15) -0.001(2)
H11D H 0.5583 0.9155 -0.0044
C14D C 0.5439(8) 1.0081(11) -0.0528(19)
C15D C 0.5999(10) 1.0600(12) -0.1856(19)
H12D H 0.5765 1.0892 -0.2141
C16D C 0.6336(10) 0.9862(15) -0.088(2)
H13D H 0.6382 0.9551 -0.0349
C17D C 0.4920(12) 0.9417(17) 0.054(3)
H14D H 0.4867 0.9031 0.0924
C18D C 0.6688(10) 1.0072(13) -0.154(2)
H15D H 0.7018 0.9923 -0.1590
O25 O 0.0107(17) 0.2500 0.539(4)
loop_
_geom_bond_atom_site_label_1
_geom_bond_atom_site_label_2
_geom_bond_site_symmetry_1
_geom_bond_site_symmetry_2
W1 O1 1_555 1_555
W2 O1 1_555 1_555
W3 O6 1_555 1_555
W4 O8 1_555 1_555
W5 O2 1_555 1_555
W6 O2 1_555 1_555
W7 O2 1_555 1_555
Ag1 O19 1_555 1_555
O1 B1 1_555 1_555
O2 B1 1_555 1_555
O3 W5 1_555 1_555
O4 W6 1_555 1_555
O5 W6 1_555 1_555
O6 W6 1_555 1_555
O7 W3 1_555 1_555
O8 W3 1_555 1_555
O9 W2 1_555 1_555
O10 W2 1_555 1_555
O11 W2 1_555 1_555
O12 W1 1_555 1_555
O13 W1 1_555 1_555
O14 W1 1_555 1_555
O15 W7 1_555 1_555
O16 W6 1_555 1_555
O17 W5 1_555 1_555
O18 W4 1_555 1_555
O19 W4 1_555 1_555
O20 W4 1_555 1_555
O21 W3 1_555 1_555
O22 W2 1_555 1_555
O23 W7 1_555 1_555
N1 Ag1 1_555 1_555
N2 C2 1_555 1_555
N3 C1 1_555 1_555
N4 C2 1_555 1_555
C1 N1 1_555 1_555
H1 C1 1_555 1_555
C2 H2 1_555 1_555
C3 N2 1_555 1_555
H3 C3 1_555 1_555
C4 H4 1_555 1_555
C5 N3 1_555 1_555
C6 N3 1_555 1_555
H5 C6 1_555 1_555
C7 N1 1_555 1_555
H6 C7 1_555 1_555
C8 C5 1_555 1_555
H7 C8 1_555 1_555
C9 C8 1_555 1_555
H8 C9 1_555 1_555
C10 N4 1_555 1_555
H9 C10 1_555 1_555
C11 N4 1_555 1_555
C12 C4 1_555 1_555
H10 C12 1_555 1_555
B1 O21 1_555 1_555
O24 W5 1_555 1_555
N5 C14 1_555 1_555
N6 C15 1_555 1_555
C13 H11 1_555 1_555
C14 C13 1_555 1_555
C15 N5 1_555 1_555
H12 C15 1_555 1_555
C16 N5 1_555 1_555
H13 C16 1_555 1_555
C17 C13 1_555 1_555
H14 C17 1_555 1_555
C18 N6 1_555 1_555
H15 C18 1_555 1_555
O2G B1 1_555 1_555
W2G O1 1_555 1_555
W4G O20 1_555 1_555
W5G O2G 1_555 1_555
W6G O5 1_555 1_555
W7G O14 1_555 1_555
Ag1G O19G 1_555 1_555
O3G W5G 1_555 1_555
O4G W6G 1_555 1_555
O6G W3 1_555 1_555
O8G W3 1_555 1_555
O9G W2G 1_555 1_555
O10G W2G 1_555 1_555
O12G W1 1_555 1_555
O14G W1 1_555 1_555
O16G W6G 1_555 1_555
O17G W5G 1_555 1_555
O18G W4G 1_555 1_555
O19G W4G 1_555 1_555
O22G W2G 1_555 1_555
O23G W7G 1_555 1_555
N1G Ag1G 1_555 1_555
N2G C2G 1_555 1_555
N3G C1G 1_555 1_555
N4G C2G 1_555 1_555
C1G N1G 1_555 1_555
H1G C1G 1_555 1_555
C2G H2G 1_555 1_555
C3G N2G 1_555 1_555
H3G C3G 1_555 1_555
C4G H4G 1_555 1_555
C5G N3G 1_555 1_555
C6G N3G 1_555 1_555
H5G C6G 1_555 1_555
C7G N1G 1_555 1_555
H6G C7G 1_555 1_555
C8G C5G 1_555 1_555
H7G C8G 1_555 1_555
C9G C8G 1_555 1_555
H8G C9G 1_555 1_555
C10G N4G 1_555 1_555
H9G C10G 1_555 1_555
C11G N4G 1_555 1_555
C12G C4G 1_555 1_555
H10G C12G 1_555 1_555
O24G W5G 1_555 1_555
Ag1_2 O23 1_555 1_555
Ag1A O24 1_555 1_555
Ag1B N2G 1_555 1_555
Ag1E N2 1_555 1_555
Ag1F O24G 1_555 1_555
Ag1G_2 O23G 1_555 1_555
O23_2 Ag1 1_555 1_555
O23G_2 Ag1G 1_555 1_555
N2B Ag1G 1_555 1_555
N2E Ag1 1_555 1_555
O24A Ag1 1_555 1_555
O24F Ag1G 1_555 1_555
N5D C14D 1_555 1_555
N6D C15D 1_555 1_555
C13D H11D 1_555 1_555
C14D C17 1_555 1_555
C15D N5D 1_555 1_555
H12D C15D 1_555 1_555
C16D N5D 1_555 1_555
H13D C16D 1_555 1_555
C17D C14 1_555 1_555
H14D C17D 1_555 1_555
C18D N6D 1_555 1_555
H15D C18D 1_555 1_555
W2 O12 1_555 1_555
W4 O9 1_555 1_555
W4 O21 1_555 1_555
W5 O18 1_555 1_555
W5 O22 1_555 1_555
W6 O17 1_555 1_555
W7 O3 1_555 1_555
W7 O16 1_555 1_555
W7 O14G 1_555 1_555
O11 W2G 1_555 1_555
O15 W7G 1_555 1_555
O21 W4G 1_555 1_555
C3 C10 1_555 1_555
C4 C5 1_555 1_555
C6 C7 1_555 1_555
C9 C11 1_555 1_555
C11 C12 1_555 1_555
C16 C18 1_555 1_555
O2G W6G 1_555 1_555
O2G W7G 1_555 1_555
W2G O12G 1_555 1_555
W4G O8G 1_555 1_555
W4G O9G 1_555 1_555
W5G O18G 1_555 1_555
W5G O22G 1_555 1_555
W6G O6G 1_555 1_555
W6G O17G 1_555 1_555
W7G O3G 1_555 1_555
W7G O16G 1_555 1_555
C3G C10G 1_555 1_555
C4G C5G 1_555 1_555
C6G C7G 1_555 1_555
C9G C11G 1_555 1_555
C11G C12G 1_555 1_555
C13D C14D 1_555 1_555
C13D C17D 1_555 1_555
C16D C18D 1_555 1_555

#END
