
#######################################################################
#
#                 Cambridge Crystallographic Data Centre
#                                CCDC 
#
#######################################################################
#
# If this CIF has been generated from an entry in the Cambridge 
# Structural Database, then it will include bibliographic, chemical, 
# crystal, experimental, refinement or atomic coordinate data resulting 
# from the CCDC's data processing and validation procedures.
#
#######################################################################

data_IKUTUF
_chemical_formula_moiety         '(C39 H37 Dy2 N7 O16)n'
_symmetry_cell_setting           monoclinic
_symmetry_space_group_name_H-M   'C 2/c'
_symmetry_Int_Tables_number      15
_space_group_name_Hall           '-C 2yc'
loop_
_symmetry_equiv_pos_site_id
_symmetry_equiv_pos_as_xyz
1 x,y,z
2 -x,y,1/2-z
3 1/2+x,1/2+y,z
4 1/2-x,1/2+y,1/2-z
5 -x,-y,-z
6 x,-y,1/2+z
7 1/2-x,1/2-y,-z
8 1/2+x,1/2-y,1/2+z
_cell_length_a                   24.5907(8)
_cell_length_b                   17.8811(8)
_cell_length_c                   25.0765(9)
_cell_angle_alpha                90
_cell_angle_beta                 104.335(2)
_cell_angle_gamma                90
_cell_volume                     10683
loop_
_atom_site_label
_atom_site_type_symbol
_atom_site_fract_x
_atom_site_fract_y
_atom_site_fract_z
_atom_site_U_iso_or_equiv
_atom_site_thermal_displace_type
Dy1 Dy 0.40838(2) -0.57644(2) -0.25821(2) 0.0106 Uani
Dy2 Dy 0.71556(2) -0.19097(2) 0.05628(2) 0.0103 Uani
C1 C 0.52257(11) -0.40635(14) -0.13653(10) 0.0152 Uani
C2 C 0.51004(11) -0.73039(15) -0.13083(10) 0.0155 Uani
C3 C 0.74955(11) -0.43583(14) 0.08744(10) 0.0142 Uani
C4 C 0.57725(11) -0.38188(14) -0.11569(10) 0.0146 Uani
H1 H 0.6062 -0.4041 -0.1279 0.0180 Uiso
C5 C 0.45774(11) -0.73978(15) -0.11971(10) 0.0156 Uani
H2 H 0.4282 -0.7082 -0.1358 0.0190 Uiso
C6 C 0.71212(11) -0.42102(15) 0.11952(10) 0.0155 Uani
H3 H 0.6941 -0.3749 0.1170 0.0190 Uiso
C7 C 0.32548(12) -0.61002(18) -0.37838(11) 0.0243 Uani
H4 H 0.3237 -0.6592 -0.3668 0.0290 Uiso
C8 C 0.69779(13) -0.01833(17) 0.09454(12) 0.0267 Uani
H5 H 0.6799 -0.0119 0.0576 0.0320 Uiso
C9 C 0.80056(14) -0.18976(17) 0.18289(12) 0.0280 Uani
H6 H 0.8090 -0.1412 0.1743 0.0340 Uiso
C10 C 0.34158(16) -0.74056(19) -0.23973(13) 0.0363 Uani
H7 H 0.3134 -0.7352 -0.2212 0.0430 Uiso
C11 C 0.58990(11) -0.32410(14) -0.07642(10) 0.0144 Uani
C12 C 0.44973(11) -0.79668(15) -0.08432(10) 0.0155 Uani
C13 C 0.70165(11) -0.47542(15) 0.15549(10) 0.0158 Uani
C14 C 0.54562(12) -0.29141(16) -0.05906(11) 0.0210 Uani
H8 H 0.5529 -0.2531 -0.0332 0.0250 Uiso
C15 C 0.49347(12) -0.84413(16) -0.06028(11) 0.0204 Uani
H9 H 0.4878 -0.8828 -0.0374 0.0240 Uiso
C16 C 0.72757(12) -0.54457(16) 0.15861(11) 0.0205 Uani
H10 H 0.7208 -0.5807 0.1829 0.0250 Uiso
C17 C 0.31662(19) -0.5230(2) -0.45292(14) 0.0509 Uani
H11 H 0.2820 -0.5104 -0.4787 0.0770 Uiso
H12 H 0.3467 -0.5214 -0.4711 0.0770 Uiso
H13 H 0.3239 -0.4877 -0.4231 0.0770 Uiso
C18 C 0.72234(13) 0.03261(17) 0.18717(11) 0.0255 Uani
H14 H 0.7439 -0.0127 0.1943 0.0380 Uiso
H15 H 0.6943 0.0324 0.2078 0.0380 Uiso
H16 H 0.7467 0.0748 0.1979 0.0380 Uiso
C19 C 0.8165(3) -0.2948(3) 0.2441(3) 0.1601 Uani
H17 H 0.7905 -0.2897 0.2668 0.2400 Uiso
H18 H 0.8497 -0.3199 0.2644 0.2400 Uiso
H19 H 0.7995 -0.3234 0.2119 0.2400 Uiso
C20 C 0.41396(19) -0.8186(2) -0.26110(17) 0.0516 Uani
H20 H 0.4210 -0.7736 -0.2792 0.0780 Uiso
H21 H 0.4045 -0.8583 -0.2876 0.0780 Uiso
H22 H 0.4470 -0.8320 -0.2333 0.0780 Uiso
C21 C 0.49068(12) -0.31573(17) -0.08028(11) 0.0223 Uani
C22 C 0.54585(12) -0.83346(17) -0.07065(11) 0.0218 Uani
C23 C 0.76373(12) -0.55986(15) 0.12532(11) 0.0193 Uani
C24 C 0.2960(2) -0.6569(2) -0.47193(15) 0.0601 Uani
H23 H 0.2942 -0.7034 -0.4533 0.0900 Uiso
H24 H 0.3229 -0.6608 -0.4937 0.0900 Uiso
H25 H 0.2597 -0.6457 -0.4954 0.0900 Uiso
C25 C 0.6678(2) 0.1078(2) 0.10980(16) 0.0653 Uani
H26 H 0.6518 0.1053 0.0708 0.0980 Uiso
H27 H 0.6948 0.1477 0.1177 0.0980 Uiso
H28 H 0.6387 0.1170 0.1283 0.0980 Uiso
C26 C 0.8779(3) -0.1799(3) 0.2637(2) 0.1055 Uani
H29 H 0.8806 -0.1305 0.2495 0.1580 Uiso
H30 H 0.9123 -0.2065 0.2657 0.1580 Uiso
H31 H 0.8713 -0.1764 0.2997 0.1580 Uiso
C27 C 0.3501(2) -0.8692(2) -0.20740(16) 0.0591 Uani
H32 H 0.3213 -0.8533 -0.1902 0.0880 Uiso
H33 H 0.3816 -0.8878 -0.1799 0.0880 Uiso
H34 H 0.3358 -0.9082 -0.2334 0.0880 Uiso
C28 C 0.47884(11) -0.37420(16) -0.11824(11) 0.0190 Uani
H35 H 0.4423 -0.3915 -0.1312 0.0230 Uiso
C29 C 0.55441(11) -0.77544(16) -0.10556(10) 0.0180 Uani
H36 H 0.5898 -0.7675 -0.1116 0.0220 Uiso
C30 C 0.77504(11) -0.50511(15) 0.08993(10) 0.0167 Uani
H37 H 0.7997 -0.5152 0.0680 0.0200 Uiso
C31 C 0.50964(11) -0.46934(15) -0.17805(10) 0.0150 Uani
C32 C 0.51672(11) -0.67327(15) -0.17283(10) 0.0166 Uani
C33 C 0.76127(11) -0.37797(14) 0.04791(10) 0.0135 Uani
C34 C 0.64897(11) -0.29891(15) -0.05270(10) 0.0154 Uani
C35 C 0.39206(11) -0.80788(15) -0.07472(10) 0.0160 Uani
C36 C 0.66035(11) -0.46024(15) 0.18969(10) 0.0158 Uani
C37 C 0.44473(13) -0.2804(2) -0.06291(14) 0.0327 Uani
C38 C 0.59190(13) -0.88214(18) -0.04663(12) 0.0287 Uani
C39 C 0.78817(14) -0.63358(17) 0.12612(12) 0.0285 Uani
N1 N 0.31263(12) -0.59740(15) -0.43155(10) 0.0290 Uani
N2 N 0.69536(11) 0.03754(14) 0.12877(10) 0.0292 Uani
N3 N 0.83164(18) -0.21968(19) 0.22735(15) 0.0698 Uani
N4 N 0.36780(14) -0.80625(15) -0.23579(11) 0.0376 Uani
N5 N 0.40804(13) -0.2542(2) -0.05007(14) 0.0577 Uani
N6 N 0.62860(13) -0.92161(18) -0.02848(12) 0.0438 Uani
N7 N 0.80734(15) -0.69207(16) 0.12586(13) 0.0439 Uani
O1 O 0.33981(8) -0.56157(11) -0.34252(8) 0.0231 Uani
O2 O 0.72231(8) -0.07850(10) 0.10843(7) 0.0196 Uani
O3 O 0.76055(9) -0.22121(12) 0.15123(8) 0.0248 Uani
O4 O 0.35181(10) -0.68637(12) -0.26604(9) 0.0339 Uani
O5 O 0.46009(8) -0.49203(12) -0.19136(8) 0.0250 Uani
O6 O 0.47219(8) -0.65166(12) -0.20542(8) 0.0233 Uani
O7 O 0.74535(8) -0.31168(10) 0.05169(8) 0.0178 Uani
O8 O 0.54977(8) -0.49289(11) -0.19591(8) 0.0215 Uani
O9 O 0.56502(8) -0.65371(11) -0.17431(8) 0.0216 Uani
O10 O 0.78588(8) -0.39963(10) 0.01216(7) 0.0164 Uani
O11 O 0.68730(8) -0.33220(10) -0.06776(7) 0.0169 Uani
O12 O 0.35412(8) -0.76127(11) -0.09644(8) 0.0215 Uani
O13 O 0.62665(9) -0.40698(11) 0.17561(8) 0.0243 Uani
O14 O 0.65447(8) -0.24549(10) -0.01974(7) 0.0190 Uani
O15 O 0.38353(8) -0.86178(10) -0.04564(8) 0.0192 Uani
O16 O 0.66177(8) -0.50043(11) 0.23152(7) 0.0173 Uani
Dy1A Dy 0.59162(2) -0.57644(2) -0.24179(2) 0.0106 Uani
Dy1D Dy 0.59162(2) -0.42356(2) 0.25821(2) 0.0106 Uani
Dy2D Dy 0.28444(2) -0.80903(2) -0.05628(2) 0.0103 Uani
Dy2F Dy 0.78444(2) -0.30903(2) -0.05628(2) 0.0103 Uani
O8A O 0.45023(8) -0.49289(11) -0.30409(8) 0.0215 Uani
O9A O 0.43498(8) -0.65371(11) -0.32569(8) 0.0216 Uani
O10F O 0.71412(8) -0.10037(10) -0.01216(7) 0.0164 Uani
O11F O 0.81270(8) -0.16780(10) 0.06776(7) 0.0169 Uani
O12D O 0.64588(8) -0.23873(11) 0.09644(8) 0.0215 Uani
O13D O 0.37335(9) -0.59302(11) -0.17561(8) 0.0243 Uani
O15D O 0.61647(8) -0.13822(10) 0.04564(8) 0.0192 Uani
O16D O 0.33823(8) -0.49957(11) -0.23152(7) 0.0173 Uani
loop_
_atom_site_aniso_label
_atom_site_aniso_U_11
_atom_site_aniso_U_22
_atom_site_aniso_U_33
_atom_site_aniso_U_23
_atom_site_aniso_U_13
_atom_site_aniso_U_12
Dy1 0.00798(5) 0.01342(6) 0.01130(5) -0.00128(4) 0.00388(4) -0.00023(5)
Dy2 0.01042(6) 0.01016(6) 0.01156(5) -0.00044(4) 0.00517(4) -0.00073(4)
C1 0.0136(12) 0.0145(12) 0.0173(12) -0.0034(10) 0.0036(10) -0.0019(11)
C2 0.0154(12) 0.0182(13) 0.0147(11) 0.0025(10) 0.0073(10) 0.0020(11)
C3 0.0153(12) 0.0151(12) 0.0138(11) -0.0007(9) 0.0069(10) -0.0024(11)
C4 0.0139(12) 0.0153(12) 0.0154(11) -0.0038(10) 0.0052(10) -0.0018(11)
C5 0.0133(12) 0.0179(13) 0.0165(12) 0.0037(10) 0.0056(10) 0.0039(11)
C6 0.0152(12) 0.0155(12) 0.0174(12) -0.0024(10) 0.0071(10) 0.0016(11)
C7 0.0197(14) 0.0284(16) 0.0223(14) -0.0028(12) 0.0004(11) -0.0010(13)
C8 0.0330(17) 0.0264(16) 0.0180(13) -0.0034(12) 0.0010(12) 0.0080(14)
C9 0.0340(17) 0.0213(15) 0.0240(14) 0.0035(12) -0.0016(13) 0.0049(14)
C10 0.046(2) 0.0348(19) 0.0307(17) -0.0095(14) 0.0147(16) -0.0142(18)
C11 0.0139(12) 0.0165(13) 0.0136(11) -0.0007(9) 0.0049(10) 0.0063(11)
C12 0.0155(12) 0.0179(13) 0.0157(12) 0.0020(10) 0.0090(10) -0.0012(11)
C13 0.0151(12) 0.0176(13) 0.0170(12) 0.0006(10) 0.0082(10) 0.0021(11)
C14 0.0173(13) 0.0207(14) 0.0247(14) -0.0102(11) 0.0048(11) -0.0002(12)
C15 0.0240(14) 0.0200(14) 0.0221(13) 0.0058(11) 0.0152(12) 0.0061(13)
C16 0.0237(14) 0.0217(14) 0.0195(13) 0.0056(11) 0.0118(11) 0.0042(13)
C17 0.088(3) 0.032(2) 0.0266(17) 0.0012(15) 0.0026(19) 0.007(2)
C18 0.0295(16) 0.0270(16) 0.0200(13) -0.0085(12) 0.0064(12) 0.0011(14)
C19 0.227(9) 0.060(4) 0.116(5) 0.052(4) -0.104(5) -0.046(5)
C20 0.064(3) 0.045(2) 0.054(2) -0.0034(19) 0.030(2) -0.010(2)
C21 0.0151(13) 0.0297(16) 0.0230(13) -0.0088(12) 0.0062(11) 0.0000(12)
C22 0.0205(14) 0.0254(15) 0.0222(13) 0.0072(11) 0.0106(11) 0.0076(13)
C23 0.0255(14) 0.0166(13) 0.0190(12) 0.0059(10) 0.0116(11) 0.0087(12)
C24 0.104(4) 0.039(2) 0.0266(18) -0.0079(17) -0.004(2) -0.001(3)
C25 0.099(4) 0.041(2) 0.039(2) -0.0142(18) -0.015(2) 0.042(3)
C26 0.121(5) 0.050(3) 0.091(4) -0.012(3) -0.077(4) -0.001(3)
C27 0.105(4) 0.038(2) 0.045(2) -0.0063(18) 0.039(3) -0.033(3)
C28 0.0105(11) 0.0245(15) 0.0211(13) -0.0068(11) 0.0022(10) -0.0011(11)
C29 0.0126(12) 0.0245(14) 0.0187(12) 0.0054(11) 0.0073(10) 0.0040(12)
C30 0.0193(13) 0.0173(13) 0.0164(12) 0.0031(10) 0.0101(11) 0.0041(11)
C31 0.0152(12) 0.0154(13) 0.0128(11) -0.0011(10) 0.0003(10) -0.0020(11)
C32 0.0170(12) 0.0177(13) 0.0169(12) 0.0045(10) 0.0075(10) 0.0087(11)
C33 0.0128(11) 0.0145(12) 0.0132(11) 0.0015(9) 0.0033(9) 0.0011(10)
C34 0.0115(12) 0.0188(13) 0.0157(12) -0.0012(10) 0.0030(10) -0.0041(11)
C35 0.0145(12) 0.0192(13) 0.0165(12) -0.0014(10) 0.0080(10) -0.0006(11)
C36 0.0162 0.017 0.0168 -0.0029 0.0091 -0.0005
C37 0.0183(14) 0.0412(19) 0.0388(18) -0.0181(15) 0.0077(13) 0.0036(15)
C38 0.0294(16) 0.0369(18) 0.0258(15) 0.0139(13) 0.0180(13) 0.0143(15)
C39 0.0362(18) 0.0280(16) 0.0284(15) 0.0110(13) 0.0213(14) 0.0107(15)
N1 0.0389(16) 0.0241(14) 0.0195(12) -0.0052(10) -0.0014(11) 0.0045(12)
N2 0.0340(15) 0.0257(14) 0.0225(12) -0.0063(11) -0.0030(11) 0.0156(13)
N3 0.090(3) 0.0292(18) 0.056(2) 0.0045(16) -0.047(2) -0.003(2)
N4 0.060(2) 0.0303(15) 0.0285(14) -0.0047(12) 0.0226(14) -0.0190(15)
N5 0.0278(16) 0.080(3) 0.067(2) -0.029(2) 0.0152(16) 0.0125(18)
N6 0.0414(18) 0.058(2) 0.0378(16) 0.0189(15) 0.0207(14) 0.0316(17)
N7 0.060(2) 0.0273(15) 0.0543(19) 0.0151(14) 0.0329(18) 0.0236(16)
O1 0.0160(9) 0.0308(11) 0.0194(9) -0.0079(8) -0.0017(8) 0.0058(9)
O2 0.0237(10) 0.0172(10) 0.0188(9) -0.0041(8) 0.0071(8) 0.0031(9)
O3 0.0263(11) 0.0294(11) 0.0171(9) 0.0046(8) 0.0021(8) 0.0005(10)
O4 0.0383(13) 0.0357(13) 0.0300(11) -0.0052(10) 0.0128(10) -0.0201(11)
O5 0.0178(10) 0.0333(12) 0.0235(10) -0.0135(9) 0.0044(8) -0.0114(10)
O6 0.0195(10) 0.0311(12) 0.0218(10) 0.0116(9) 0.0097(8) 0.0081(9)
O7 0.0184(9) 0.0117(9) 0.0244(9) 0.0003(7) 0.0075(8) 0.0011(8)
O8 0.0194 0.0233 0.0217 -0.0089 0.0047 0.0026
O9 0.0175(9) 0.0261(11) 0.0227(10) 0.0057(8) 0.0081(8) -0.0037(9)
O10 0.0200(9) 0.0154(9) 0.0165(9) 0.0007(7) 0.0098(8) 0.0007(8)
O11 0.0119(8) 0.0194(10) 0.0203(9) -0.0053(7) 0.0057(7) -0.0039(8)
O12 0.0151(9) 0.0268(11) 0.0261(10) 0.0088(8) 0.0116(8) 0.0033(9)
O13 0.024 0.0262 0.0284 0.0079 0.0172 0.0104
O14 0.0137(9) 0.0212(10) 0.0206(9) -0.0100(8) 0.0016(8) -0.0034(8)
O15 0.0201(9) 0.0176(10) 0.0236(10) 0.0036(8) 0.0127(8) -0.0004(8)
O16 0.0157 0.0229 0.0153 0.0021 0.0077 0.0029
Dy1A 0.00798 0.01342 0.0113 0.00128 0.00388 0.00023
Dy1D 0.00798 0.01342 0.0113 -0.00128 0.00388 -0.00023
Dy2D 0.01042 0.01016 0.01156 -0.00044 0.00517 -0.00073
Dy2F 0.01042 0.01016 0.01156 -0.00044 0.00517 -0.00073
O8A 0.0194 0.0233 0.0217 0.0089 0.0047 -0.0026
O9A 0.0175 0.0261 0.0227 -0.0057 0.0081 0.0037
O10F 0.02 0.0154 0.0165 0.0007 0.0098 0.0007
O11F 0.0119 0.0194 0.0203 -0.0053 0.0057 -0.0039
O12D 0.0151 0.0268 0.0261 0.0088 0.0116 0.0033
O13D 0.024 0.0262 0.0284 0.0079 0.0172 0.0104
O15D 0.0201 0.0176 0.0236 0.0036 0.0127 -0.0004
O16D 0.0157 0.0229 0.0153 0.0021 0.0077 0.0029
loop_
_geom_bond_atom_site_label_1
_geom_bond_atom_site_label_2
_geom_bond_site_symmetry_1
_geom_bond_site_symmetry_2
Dy1 O1 1_555 1_555
Dy2 O2 1_555 1_555
C1 C4 1_555 1_555
C2 C5 1_555 1_555
C3 C6 1_555 1_555
C4 H1 1_555 1_555
C5 H2 1_555 1_555
C6 H3 1_555 1_555
C7 H4 1_555 1_555
C8 H5 1_555 1_555
C9 H6 1_555 1_555
C10 H7 1_555 1_555
C11 C4 1_555 1_555
C12 C5 1_555 1_555
C13 C6 1_555 1_555
C14 C11 1_555 1_555
H8 C14 1_555 1_555
C15 C12 1_555 1_555
H9 C15 1_555 1_555
C16 C13 1_555 1_555
H10 C16 1_555 1_555
C17 H11 1_555 1_555
H12 C17 1_555 1_555
H13 C17 1_555 1_555
C18 H14 1_555 1_555
H15 C18 1_555 1_555
H16 C18 1_555 1_555
C19 H17 1_555 1_555
H18 C19 1_555 1_555
H19 C19 1_555 1_555
C20 H20 1_555 1_555
H21 C20 1_555 1_555
H22 C20 1_555 1_555
C21 C14 1_555 1_555
C22 C15 1_555 1_555
C23 C16 1_555 1_555
C24 H23 1_555 1_555
H24 C24 1_555 1_555
H25 C24 1_555 1_555
C25 H26 1_555 1_555
H27 C25 1_555 1_555
H28 C25 1_555 1_555
C26 H29 1_555 1_555
H30 C26 1_555 1_555
H31 C26 1_555 1_555
C27 H32 1_555 1_555
H33 C27 1_555 1_555
H34 C27 1_555 1_555
C28 C1 1_555 1_555
H35 C28 1_555 1_555
C29 C2 1_555 1_555
H36 C29 1_555 1_555
C30 C3 1_555 1_555
H37 C30 1_555 1_555
C31 C1 1_555 1_555
C32 C2 1_555 1_555
C33 C3 1_555 1_555
C34 C11 1_555 1_555
C35 C12 1_555 1_555
C36 C13 1_555 1_555
C37 C21 1_555 1_555
C38 C22 1_555 1_555
C39 C23 1_555 1_555
N1 C7 1_555 1_555
N2 C8 1_555 1_555
N3 C9 1_555 1_555
N4 C10 1_555 1_555
N5 C37 1_555 1_555
N6 C38 1_555 1_555
N7 C39 1_555 1_555
O1 C7 1_555 1_555
O2 C8 1_555 1_555
O3 Dy2 1_555 1_555
O4 Dy1 1_555 1_555
O5 Dy1 1_555 1_555
O6 Dy1 1_555 1_555
O7 Dy2 1_555 1_555
O8 C31 1_555 1_555
O9 C32 1_555 1_555
O10 C33 1_555 1_555
O11 C34 1_555 1_555
O12 C35 1_555 1_555
O13 C36 1_555 1_555
O14 Dy2 1_555 1_555
O15 C35 1_555 1_555
O16 C36 1_555 1_555
Dy1A O8 1_555 1_555
Dy1D O13 1_555 1_555
Dy2D O12 1_555 1_555
Dy2F O10 1_555 1_555
O8A Dy1 1_555 1_555
O9A Dy1 1_555 1_555
O10F Dy2 1_555 1_555
O11F Dy2 1_555 1_555
O12D Dy2 1_555 1_555
O13D Dy1 1_555 1_555
O15D Dy2 1_555 1_555
O16D Dy1 1_555 1_555
C9 O3 1_555 1_555
C10 O4 1_555 1_555
C17 N1 1_555 1_555
C18 N2 1_555 1_555
C19 N3 1_555 1_555
C20 N4 1_555 1_555
C21 C28 1_555 1_555
C22 C29 1_555 1_555
C23 C30 1_555 1_555
C24 N1 1_555 1_555
C25 N2 1_555 1_555
C26 N3 1_555 1_555
C27 N4 1_555 1_555
C31 O5 1_555 1_555
C32 O6 1_555 1_555
C33 O7 1_555 1_555
C34 O14 1_555 1_555
O9 Dy1A 1_555 1_555
O11 Dy2F 1_555 1_555
O15 Dy2D 1_555 1_555
O16 Dy1D 1_555 1_555

#END
