
#######################################################################
#
#                 Cambridge Crystallographic Data Centre
#                                CCDC 
#
#######################################################################
#
# If this CIF has been generated from an entry in the Cambridge 
# Structural Database, then it will include bibliographic, chemical, 
# crystal, experimental, refinement or atomic coordinate data resulting 
# from the CCDC's data processing and validation procedures.
#
#######################################################################

data_ROQDIM04
_chemical_formula_moiety         '(C4 H12 Fe1 N19 Na1 1-)n'
_symmetry_cell_setting           cubic
_symmetry_space_group_name_H-M   'P a -3'
_symmetry_Int_Tables_number      205
_space_group_name_Hall           '-P 2ac 2ab 3'
loop_
_symmetry_equiv_pos_site_id
_symmetry_equiv_pos_as_xyz
1 x,y,z
2 1/2-x,-y,1/2+z
3 -x,1/2+y,1/2-z
4 1/2+x,1/2-y,-z
5 z,x,y
6 1/2+z,1/2-x,-y
7 1/2-z,-x,1/2+y
8 -z,1/2+x,1/2-y
9 y,z,x
10 -y,1/2+z,1/2-x
11 1/2+y,1/2-z,-x
12 1/2-y,-z,1/2+x
13 -x,-y,-z
14 1/2+x,y,1/2-z
15 x,1/2-y,1/2+z
16 1/2-x,1/2+y,z
17 -z,-x,-y
18 1/2-z,1/2+x,y
19 1/2+z,x,1/2-y
20 z,1/2-x,1/2+y
21 -y,-z,-x
22 y,1/2-z,1/2+x
23 1/2-y,1/2+z,x
24 1/2+y,z,1/2-x
_cell_length_a                   12.9147(4)
_cell_length_b                   12.9147(4)
_cell_length_c                   12.9147(4)
_cell_angle_alpha                90
_cell_angle_beta                 90
_cell_angle_gamma                90
_cell_volume                     2154.04
loop_
_atom_site_label
_atom_site_type_symbol
_atom_site_fract_x
_atom_site_fract_y
_atom_site_fract_z
Fe1 Fe 0.5000 0.0000 1.0000
Na1 Na 1.0000 0.0000 1.0000
N1 N 0.64311(9) -0.05932(9) 0.95666(11)
N2 N 0.72550(9) -0.01845(9) 0.96628(10)
N3 N 0.80685(11) 0.01692(11) 0.97285(13)
N1D N 0.95666(11) -0.35689(9) 0.94068(9)
N2D N 0.96628(10) -0.27450(9) 0.98155(9)
N3D N 0.97285(13) -0.19315(11) 1.01692(11)
N1H N 0.94068(9) -0.04334(11) 0.64311(9)
N2H N 0.98155(9) -0.03372(10) 0.72550(9)
N3H N 1.01692(11) -0.02715(13) 0.80685(11)
N1L N 0.35689(9) 0.05932(9) 1.04334(11)
N2L N 0.27450(9) 0.01845(9) 1.03372(10)
N3L N 0.19315(11) -0.01692(11) 1.02715(13)
N1Q N 0.54334(11) 0.14311(9) 0.94068(9)
N2Q N 0.53372(10) 0.22550(9) 0.98155(9)
N3Q N 0.52715(13) 0.30685(11) 1.01692(11)
N1W N 0.44068(9) -0.04334(11) 0.85689(9)
N2W N 0.48155(9) -0.03372(10) 0.77450(9)
N3W N 0.51692(11) -0.02715(13) 0.69315(11)
Fe1A Fe 1.0000 0.0000 0.5000
Fe1C Fe 1.0000 -0.5000 1.0000
Na1_2 Na 0.0000 0.0000 1.0000
Na1A Na 0.5000 0.0000 0.5000
Na1C Na 0.5000 0.5000 1.0000
N1E N 0.45666(11) -0.14311(9) 1.05932(9)
N1K N 0.55932(9) 0.04334(11) 1.14311(9)
N3L_2 N 1.19315(11) -0.01692(11) 1.02715(13)
N3P N 1.02715(13) 0.19315(11) 0.98308(11)
N3T N 0.98308(11) 0.02715(13) 1.19315(11)
N4 N 0.27202(10) 0.22798(10) 0.77202(10)
C1 C 0.20542(12) 0.29458(12) 0.70542(12)
H1 H 0.1956 0.2617 0.6395
C2 C 0.28594(14) 0.27956(14) 0.87426(13)
H2 H 0.3288 0.2372 0.9178
H3 H 0.2196 0.2890 0.9065
H4 H 0.3184 0.3457 0.8644
H1K H 0.2383 0.3605 0.6956
H1E H 0.1395 0.3044 0.7383
C2E C 0.37426(13) 0.21406(14) 0.72044(14)
H2E H 0.4178 0.1712 0.7628
H3E H 0.4065 0.2804 0.7110
H4E H 0.3644 0.1816 0.6543
C2K C 0.22044(14) 0.12574(13) 0.78594(14)
H2K H 0.2628 0.0822 0.8288
H3K H 0.2110 0.0935 0.7196
H4K H 0.1543 0.1356 0.8184
loop_
_geom_bond_atom_site_label_1
_geom_bond_atom_site_label_2
_geom_bond_site_symmetry_1
_geom_bond_site_symmetry_2
Fe1 N1 1_555 1_555
Na1 N3 1_555 1_555
N1 N2 1_555 1_555
N2 N3 1_555 1_555
N4 C1 1_555 1_555
C1 H1 1_555 1_555
C2 N4 1_555 1_555
H2 C2 1_555 1_555
H3 C2 1_555 1_555
H4 C2 1_555 1_555
N1D N2D 1_555 1_555
N2D N3D 1_555 1_555
N3D Na1 1_555 1_555
N1H N2H 1_555 1_555
N2H N3H 1_555 1_555
N3H Na1 1_555 1_555
N1L Fe1 1_555 1_555
N2L N1L 1_555 1_555
N3L N2L 1_555 1_555
N1Q Fe1 1_555 1_555
N2Q N1Q 1_555 1_555
N3Q N2Q 1_555 1_555
N1W Fe1 1_555 1_555
N2W N1W 1_555 1_555
N3W N2W 1_555 1_555
Fe1A N1H 1_555 1_555
Fe1C N1D 1_555 1_555
Na1_2 N3L 1_555 1_555
Na1A N3W 1_555 1_555
Na1C N3Q 1_555 1_555
N1E Fe1 1_555 1_555
N1K Fe1 1_555 1_555
N3L_2 Na1 1_555 1_555
N3P Na1 1_555 1_555
N3T Na1 1_555 1_555
H1K C1 1_555 1_555
H1E C1 1_555 1_555
C2E N4 1_555 1_555
H2E C2E 1_555 1_555
H3E C2E 1_555 1_555
H4E C2E 1_555 1_555
C2K N4 1_555 1_555
H2K C2K 1_555 1_555
H3K C2K 1_555 1_555
H4K C2K 1_555 1_555

#END
