
#######################################################################
#
#                 Cambridge Crystallographic Data Centre
#                                CCDC 
#
#######################################################################
#
# If this CIF has been generated from an entry in the Cambridge 
# Structural Database, then it will include bibliographic, chemical, 
# crystal, experimental, refinement or atomic coordinate data resulting 
# from the CCDC's data processing and validation procedures.
#
#######################################################################

data_ROQDIM03
_chemical_formula_moiety         '(C4 H12 Fe1 N19 Na1 1-)n'
_symmetry_cell_setting           cubic
_symmetry_space_group_name_H-M   'P a -3'
_symmetry_Int_Tables_number      205
_space_group_name_Hall           '-P 2ac 2ab 3'
loop_
_symmetry_equiv_pos_site_id
_symmetry_equiv_pos_as_xyz
1 x,y,z
2 1/2-x,-y,1/2+z
3 -x,1/2+y,1/2-z
4 1/2+x,1/2-y,-z
5 z,x,y
6 1/2+z,1/2-x,-y
7 1/2-z,-x,1/2+y
8 -z,1/2+x,1/2-y
9 y,z,x
10 -y,1/2+z,1/2-x
11 1/2+y,1/2-z,-x
12 1/2-y,-z,1/2+x
13 -x,-y,-z
14 1/2+x,y,1/2-z
15 x,1/2-y,1/2+z
16 1/2-x,1/2+y,z
17 -z,-x,-y
18 1/2-z,1/2+x,y
19 1/2+z,x,1/2-y
20 z,1/2-x,1/2+y
21 -y,-z,-x
22 y,1/2-z,1/2+x
23 1/2-y,1/2+z,x
24 1/2+y,z,1/2-x
_cell_length_a                   12.8987(6)
_cell_length_b                   12.8987(6)
_cell_length_c                   12.8987(6)
_cell_angle_alpha                90
_cell_angle_beta                 90
_cell_angle_gamma                90
_cell_volume                     2146.04
loop_
_atom_site_label
_atom_site_type_symbol
_atom_site_fract_x
_atom_site_fract_y
_atom_site_fract_z
Fe1 Fe 0.5000 0.0000 1.0000
Na1 Na 1.0000 0.0000 1.0000
N1 N 0.64301(8) -0.06011(9) 0.95619(10)
N2 N 0.72548(8) -0.01904(8) 0.96543(9)
N3 N 0.80704(11) 0.01736(10) 0.97196(12)
N1D N 0.95619(10) -0.35699(8) 0.93989(9)
N2D N 0.96543(9) -0.27452(8) 0.98096(8)
N3D N 0.97196(12) -0.19296(11) 1.01736(10)
N1H N 0.93989(9) -0.04381(10) 0.64301(8)
N2H N 0.98096(8) -0.03457(9) 0.72548(8)
N3H N 1.01736(10) -0.02804(12) 0.80704(11)
N1L N 0.35699(8) 0.06011(9) 1.04381(10)
N2L N 0.27452(8) 0.01904(8) 1.03457(9)
N3L N 0.19296(11) -0.01736(10) 1.02804(12)
N1Q N 0.54381(10) 0.14301(8) 0.93989(9)
N2Q N 0.53457(9) 0.22548(8) 0.98096(8)
N3Q N 0.52804(12) 0.30704(11) 1.01736(10)
N1W N 0.43989(9) -0.04381(10) 0.85699(8)
N2W N 0.48096(8) -0.03457(9) 0.77452(8)
N3W N 0.51736(10) -0.02804(12) 0.69296(11)
Fe1A Fe 1.0000 0.0000 0.5000
Fe1C Fe 1.0000 -0.5000 1.0000
Na1_2 Na 0.0000 0.0000 1.0000
Na1A Na 0.5000 0.0000 0.5000
Na1C Na 0.5000 0.5000 1.0000
N1E N 0.45619(10) -0.14301(8) 1.06011(9)
N1K N 0.56011(9) 0.04381(10) 1.14301(8)
N3L_2 N 1.19296(11) -0.01736(10) 1.02804(12)
N3P N 1.02804(12) 0.19296(11) 0.98264(10)
N3T N 0.98264(10) 0.02804(12) 1.19296(11)
N4 N 0.27268(9) 0.22732(9) 0.77268(9)
C1 C 0.20601(11) 0.29399(11) 0.70601(11)
H1 H 0.1966 0.2613 0.6398
C2 C 0.28656(13) 0.27883(13) 0.87547(12)
H2 H 0.3295 0.2363 0.9189
H3 H 0.2201 0.2882 0.9077
H4 H 0.3190 0.3451 0.8658
H1K H 0.2387 0.3602 0.6966
H1E H 0.1398 0.3034 0.7387
C2E C 0.37547(12) 0.21344(13) 0.72117(13)
H2E H 0.4189 0.1705 0.7637
H3E H 0.4077 0.2799 0.7118
H4E H 0.3658 0.1810 0.6549
C2K C 0.22117(13) 0.12453(12) 0.78656(13)
H2K H 0.2637 0.0811 0.8295
H3K H 0.2118 0.0923 0.7201
H4K H 0.1549 0.1342 0.8190
loop_
_geom_bond_atom_site_label_1
_geom_bond_atom_site_label_2
_geom_bond_site_symmetry_1
_geom_bond_site_symmetry_2
Fe1 N1 1_555 1_555
Na1 N3 1_555 1_555
N1 N2 1_555 1_555
N2 N3 1_555 1_555
N4 C1 1_555 1_555
C1 H1 1_555 1_555
C2 N4 1_555 1_555
H2 C2 1_555 1_555
H3 C2 1_555 1_555
H4 C2 1_555 1_555
N1D N2D 1_555 1_555
N2D N3D 1_555 1_555
N3D Na1 1_555 1_555
N1H N2H 1_555 1_555
N2H N3H 1_555 1_555
N3H Na1 1_555 1_555
N1L Fe1 1_555 1_555
N2L N1L 1_555 1_555
N3L N2L 1_555 1_555
N1Q Fe1 1_555 1_555
N2Q N1Q 1_555 1_555
N3Q N2Q 1_555 1_555
N1W Fe1 1_555 1_555
N2W N1W 1_555 1_555
N3W N2W 1_555 1_555
Fe1A N1H 1_555 1_555
Fe1C N1D 1_555 1_555
Na1_2 N3L 1_555 1_555
Na1A N3W 1_555 1_555
Na1C N3Q 1_555 1_555
N1E Fe1 1_555 1_555
N1K Fe1 1_555 1_555
N3L_2 Na1 1_555 1_555
N3P Na1 1_555 1_555
N3T Na1 1_555 1_555
H1K C1 1_555 1_555
H1E C1 1_555 1_555
C2E N4 1_555 1_555
H2E C2E 1_555 1_555
H3E C2E 1_555 1_555
H4E C2E 1_555 1_555
C2K N4 1_555 1_555
H2K C2K 1_555 1_555
H3K C2K 1_555 1_555
H4K C2K 1_555 1_555

#END
