
#######################################################################
#
#                 Cambridge Crystallographic Data Centre
#                                CCDC 
#
#######################################################################
#
# If this CIF has been generated from an entry in the Cambridge 
# Structural Database, then it will include bibliographic, chemical, 
# crystal, experimental, refinement or atomic coordinate data resulting 
# from the CCDC's data processing and validation procedures.
#
#######################################################################

data_ROQDIM
_chemical_formula_moiety         '(C4 H12 Fe1 N19 Na1 1-)n'
_symmetry_cell_setting           cubic
_symmetry_space_group_name_H-M   'P a -3'
_symmetry_Int_Tables_number      205
_space_group_name_Hall           '-P 2ac 2ab 3'
loop_
_symmetry_equiv_pos_site_id
_symmetry_equiv_pos_as_xyz
1 x,y,z
2 1/2-x,-y,1/2+z
3 -x,1/2+y,1/2-z
4 1/2+x,1/2-y,-z
5 z,x,y
6 1/2+z,1/2-x,-y
7 1/2-z,-x,1/2+y
8 -z,1/2+x,1/2-y
9 y,z,x
10 -y,1/2+z,1/2-x
11 1/2+y,1/2-z,-x
12 1/2-y,-z,1/2+x
13 -x,-y,-z
14 1/2+x,y,1/2-z
15 x,1/2-y,1/2+z
16 1/2-x,1/2+y,z
17 -z,-x,-y
18 1/2-z,1/2+x,y
19 1/2+z,x,1/2-y
20 z,1/2-x,1/2+y
21 -y,-z,-x
22 y,1/2-z,1/2+x
23 1/2-y,1/2+z,x
24 1/2+y,z,1/2-x
_cell_length_a                   12.7956(3)
_cell_length_b                   12.7956(3)
_cell_length_c                   12.7956(3)
_cell_angle_alpha                90
_cell_angle_beta                 90
_cell_angle_gamma                90
_cell_volume                     2094.99
loop_
_atom_site_label
_atom_site_type_symbol
_atom_site_fract_x
_atom_site_fract_y
_atom_site_fract_z
Fe1 Fe 0.5000 0.0000 1.0000
Na1 Na 1.0000 0.0000 1.0000
N1 N 0.64284(7) -0.06266(7) 0.95494(8)
N2 N 0.72578(7) -0.02034(7) 0.96379(8)
N3 N 0.80774(9) 0.01789(8) 0.97022(10)
N1D N 0.95494(8) -0.35716(7) 0.93734(7)
N2D N 0.96379(8) -0.27422(7) 0.97966(7)
N3D N 0.97022(10) -0.19226(9) 1.01789(8)
N1H N 0.93734(7) -0.04506(8) 0.64284(7)
N2H N 0.97966(7) -0.03621(8) 0.72578(7)
N3H N 1.01789(8) -0.02978(10) 0.80774(9)
N1L N 0.35716(7) 0.06266(7) 1.04506(8)
N2L N 0.27422(7) 0.02034(7) 1.03621(8)
N3L N 0.19226(9) -0.01789(8) 1.02978(10)
N1Q N 0.54506(8) 0.14284(7) 0.93734(7)
N2Q N 0.53621(8) 0.22578(7) 0.97966(7)
N3Q N 0.52978(10) 0.30774(9) 1.01789(8)
N1W N 0.43734(7) -0.04506(8) 0.85716(7)
N2W N 0.47966(7) -0.03621(8) 0.77422(7)
N3W N 0.51789(8) -0.02978(10) 0.69226(9)
Fe1A Fe 1.0000 0.0000 0.5000
Fe1C Fe 1.0000 -0.5000 1.0000
Na1_2 Na 0.0000 0.0000 1.0000
Na1A Na 0.5000 0.0000 0.5000
Na1C Na 0.5000 0.5000 1.0000
N1E N 0.45494(8) -0.14284(7) 1.06266(7)
N1K N 0.56266(7) 0.04506(8) 1.14284(7)
N3L_2 N 1.19226(9) -0.01789(8) 1.02978(10)
N3P N 1.02978(10) 0.19226(9) 0.98211(8)
N3T N 0.98211(8) 0.02978(10) 1.19226(9)
N4 N 0.27387(8) 0.22613(8) 0.77387(8)
C1 C 0.20615(9) 0.29385(9) 0.70615(9)
H1 H 0.1965 0.2603 0.6380
C2 C 0.28808(10) 0.27802(10) 0.87779(9)
H2 H 0.3323 0.2342 0.9224
H3 H 0.2198 0.2877 0.9111
H4 H 0.3215 0.3462 0.8679
H1K H 0.2397 0.3620 0.6965
H1E H 0.1380 0.3035 0.7397
C2E C 0.37779(9) 0.21192(10) 0.72198(10)
H2E H 0.4224 0.1677 0.7658
H3E H 0.4111 0.2802 0.7123
H4E H 0.3679 0.1785 0.6538
C2K C 0.22198(10) 0.12221(9) 0.78808(10)
H2K H 0.2658 0.0776 0.8323
H3K H 0.2123 0.0889 0.7198
H4K H 0.1538 0.1321 0.8215
loop_
_geom_bond_atom_site_label_1
_geom_bond_atom_site_label_2
_geom_bond_site_symmetry_1
_geom_bond_site_symmetry_2
Fe1 N1 1_555 1_555
Na1 N3 1_555 1_555
N1 N2 1_555 1_555
N2 N3 1_555 1_555
N4 C1 1_555 1_555
C1 H1 1_555 1_555
C2 N4 1_555 1_555
H2 C2 1_555 1_555
H3 C2 1_555 1_555
H4 C2 1_555 1_555
N1D N2D 1_555 1_555
N2D N3D 1_555 1_555
N3D Na1 1_555 1_555
N1H N2H 1_555 1_555
N2H N3H 1_555 1_555
N3H Na1 1_555 1_555
N1L Fe1 1_555 1_555
N2L N1L 1_555 1_555
N3L N2L 1_555 1_555
N1Q Fe1 1_555 1_555
N2Q N1Q 1_555 1_555
N3Q N2Q 1_555 1_555
N1W Fe1 1_555 1_555
N2W N1W 1_555 1_555
N3W N2W 1_555 1_555
Fe1A N1H 1_555 1_555
Fe1C N1D 1_555 1_555
Na1_2 N3L 1_555 1_555
Na1A N3W 1_555 1_555
Na1C N3Q 1_555 1_555
N1E Fe1 1_555 1_555
N1K Fe1 1_555 1_555
N3L_2 Na1 1_555 1_555
N3P Na1 1_555 1_555
N3T Na1 1_555 1_555
H1K C1 1_555 1_555
H1E C1 1_555 1_555
C2E N4 1_555 1_555
H2E C2E 1_555 1_555
H3E C2E 1_555 1_555
H4E C2E 1_555 1_555
C2K N4 1_555 1_555
H2K C2K 1_555 1_555
H3K C2K 1_555 1_555
H4K C2K 1_555 1_555

#END
