
#######################################################################
#
#                 Cambridge Crystallographic Data Centre
#                                CCDC 
#
#######################################################################
#
# If this CIF has been generated from an entry in the Cambridge 
# Structural Database, then it will include bibliographic, chemical, 
# crystal, experimental, refinement or atomic coordinate data resulting 
# from the CCDC's data processing and validation procedures.
#
#######################################################################

data_ROQFUA03
_chemical_formula_moiety         '(C4 H12 Fe1 K1 N19 1-)n'
_symmetry_cell_setting           cubic
_symmetry_space_group_name_H-M   'P a -3'
_symmetry_Int_Tables_number      205
_space_group_name_Hall           '-P 2ac 2ab 3'
loop_
_symmetry_equiv_pos_site_id
_symmetry_equiv_pos_as_xyz
1 x,y,z
2 1/2-x,-y,1/2+z
3 -x,1/2+y,1/2-z
4 1/2+x,1/2-y,-z
5 z,x,y
6 1/2+z,1/2-x,-y
7 1/2-z,-x,1/2+y
8 -z,1/2+x,1/2-y
9 y,z,x
10 -y,1/2+z,1/2-x
11 1/2+y,1/2-z,-x
12 1/2-y,-z,1/2+x
13 -x,-y,-z
14 1/2+x,y,1/2-z
15 x,1/2-y,1/2+z
16 1/2-x,1/2+y,z
17 -z,-x,-y
18 1/2-z,1/2+x,y
19 1/2+z,x,1/2-y
20 z,1/2-x,1/2+y
21 -y,-z,-x
22 y,1/2-z,1/2+x
23 1/2-y,1/2+z,x
24 1/2+y,z,1/2-x
_cell_length_a                   13.2019(13)
_cell_length_b                   13.2019(13)
_cell_length_c                   13.2019(13)
_cell_angle_alpha                90
_cell_angle_beta                 90
_cell_angle_gamma                90
_cell_volume                     2300.96
loop_
_atom_site_label
_atom_site_type_symbol
_atom_site_fract_x
_atom_site_fract_y
_atom_site_fract_z
Fe1 Fe 0.5000 0.0000 1.0000
K1 K 1.0000 0.0000 1.0000
N1 N 0.63704(13) -0.06402(13) 0.95499(14)
N2 N 0.71544(14) -0.01975(14) 0.96075(15)
N3 N 0.79256(16) 0.02117(18) 0.9645(2)
N1D N 0.95499(14) -0.36296(13) 0.93598(13)
N2D N 0.96075(15) -0.28456(14) 0.98025(14)
N3D N 0.9645(2) -0.20744(16) 1.02117(18)
N1H N 0.93598(13) -0.04501(14) 0.63704(13)
N2H N 0.98025(14) -0.03925(15) 0.71544(14)
N3H N 1.02117(18) -0.0355(2) 0.79256(16)
N1L N 0.36296(13) 0.06402(13) 1.04501(14)
N2L N 0.28456(14) 0.01975(14) 1.03925(15)
N3L N 0.20744(16) -0.02117(18) 1.0355(2)
N1Q N 0.54501(14) 0.13704(13) 0.93598(13)
N2Q N 0.53925(15) 0.21544(14) 0.98025(14)
N3Q N 0.5355(2) 0.29256(16) 1.02117(18)
N1W N 0.43598(13) -0.04501(14) 0.86296(13)
N2W N 0.48025(14) -0.03925(15) 0.78456(14)
N3W N 0.52117(18) -0.0355(2) 0.70744(16)
Fe1A Fe 1.0000 0.0000 0.5000
Fe1C Fe 1.0000 -0.5000 1.0000
K1_2 K 0.0000 0.0000 1.0000
K1A K 0.5000 0.0000 0.5000
K1C K 0.5000 0.5000 1.0000
N1E N 0.45499(14) -0.13704(13) 1.06402(13)
N1K N 0.56402(13) 0.04501(14) 1.13704(13)
N3L_2 N 1.20744(16) -0.02117(18) 1.0355(2)
N3P N 1.0355(2) 0.20744(16) 0.97883(18)
N3T N 0.97883(18) 0.0355(2) 1.20744(16)
N4 N 0.27490(15) 0.22510(15) 0.77490(15)
C1 C 0.20995(19) 0.29005(19) 0.70995(19)
H1 H 0.2033 0.2597 0.6442
C2 C 0.2913(2) 0.2772(2) 0.8741(2)
H2 H 0.3332 0.2357 0.9166
H3 H 0.2272 0.2882 0.9066
H4 H 0.3241 0.3411 0.8628
H1K H 0.2403 0.3558 0.7033
H1E H 0.1442 0.2967 0.7403
C2E C 0.3741(2) 0.2087(2) 0.7228(2)
H2E H 0.4166 0.1668 0.7643
H3E H 0.4066 0.2728 0.7118
H4E H 0.3628 0.1759 0.6589
C2K C 0.2228(2) 0.1259(2) 0.7913(2)
H2K H 0.2643 0.0834 0.8332
H3K H 0.2118 0.0934 0.7272
H4K H 0.1589 0.1372 0.8241
loop_
_geom_bond_atom_site_label_1
_geom_bond_atom_site_label_2
_geom_bond_site_symmetry_1
_geom_bond_site_symmetry_2
Fe1 N1 1_555 1_555
K1 N3 1_555 1_555
N1 N2 1_555 1_555
N2 N3 1_555 1_555
N4 C1 1_555 1_555
C1 H1 1_555 1_555
C2 N4 1_555 1_555
H2 C2 1_555 1_555
H3 C2 1_555 1_555
H4 C2 1_555 1_555
N1D N2D 1_555 1_555
N2D N3D 1_555 1_555
N3D K1 1_555 1_555
N1H N2H 1_555 1_555
N2H N3H 1_555 1_555
N3H K1 1_555 1_555
N1L Fe1 1_555 1_555
N2L N1L 1_555 1_555
N3L N2L 1_555 1_555
N1Q Fe1 1_555 1_555
N2Q N1Q 1_555 1_555
N3Q N2Q 1_555 1_555
N1W Fe1 1_555 1_555
N2W N1W 1_555 1_555
N3W N2W 1_555 1_555
Fe1A N1H 1_555 1_555
Fe1C N1D 1_555 1_555
K1_2 N3L 1_555 1_555
K1A N3W 1_555 1_555
K1C N3Q 1_555 1_555
N1E Fe1 1_555 1_555
N1K Fe1 1_555 1_555
N3L_2 K1 1_555 1_555
N3P K1 1_555 1_555
N3T K1 1_555 1_555
H1K C1 1_555 1_555
H1E C1 1_555 1_555
C2E N4 1_555 1_555
H2E C2E 1_555 1_555
H3E C2E 1_555 1_555
H4E C2E 1_555 1_555
C2K N4 1_555 1_555
H2K C2K 1_555 1_555
H3K C2K 1_555 1_555
H4K C2K 1_555 1_555

#END
