
#######################################################################
#
#                 Cambridge Crystallographic Data Centre
#                                CCDC 
#
#######################################################################
#
# If this CIF has been generated from an entry in the Cambridge 
# Structural Database, then it will include bibliographic, chemical, 
# crystal, experimental, refinement or atomic coordinate data resulting 
# from the CCDC's data processing and validation procedures.
#
#######################################################################

data_ROQFUA08
_chemical_formula_moiety         'C24 Fe1 K6 N117'
_symmetry_cell_setting           cubic
_symmetry_space_group_name_H-M   'F m -3 m'
_symmetry_Int_Tables_number      225
_space_group_name_Hall           '-F 4 2 3'
loop_
_symmetry_equiv_pos_site_id
_symmetry_equiv_pos_as_xyz
1 x,y,z
2 -x,-y,z
3 -x,y,-z
4 x,-y,-z
5 z,x,y
6 z,-x,-y
7 -z,-x,y
8 -z,x,-y
9 y,z,x
10 -y,z,-x
11 y,-z,-x
12 -y,-z,x
13 y,x,-z
14 -y,-x,-z
15 y,-x,z
16 -y,x,z
17 x,z,-y
18 -x,z,y
19 -x,-z,-y
20 x,-z,y
21 z,y,-x
22 z,-y,x
23 -z,y,x
24 -z,-y,-x
25 x,1/2+y,1/2+z
26 -x,1/2-y,1/2+z
27 -x,1/2+y,1/2-z
28 x,1/2-y,1/2-z
29 z,1/2+x,1/2+y
30 z,1/2-x,1/2-y
31 -z,1/2-x,1/2+y
32 -z,1/2+x,1/2-y
33 y,1/2+z,1/2+x
34 -y,1/2+z,1/2-x
35 y,1/2-z,1/2-x
36 -y,1/2-z,1/2+x
37 y,1/2+x,1/2-z
38 -y,1/2-x,1/2-z
39 y,1/2-x,1/2+z
40 -y,1/2+x,1/2+z
41 x,1/2+z,1/2-y
42 -x,1/2+z,1/2+y
43 -x,1/2-z,1/2-y
44 x,1/2-z,1/2+y
45 z,1/2+y,1/2-x
46 z,1/2-y,1/2+x
47 -z,1/2+y,1/2+x
48 -z,1/2-y,1/2-x
49 1/2+x,y,1/2+z
50 1/2-x,-y,1/2+z
51 1/2-x,y,1/2-z
52 1/2+x,-y,1/2-z
53 1/2+z,x,1/2+y
54 1/2+z,-x,1/2-y
55 1/2-z,-x,1/2+y
56 1/2-z,x,1/2-y
57 1/2+y,z,1/2+x
58 1/2-y,z,1/2-x
59 1/2+y,-z,1/2-x
60 1/2-y,-z,1/2+x
61 1/2+y,x,1/2-z
62 1/2-y,-x,1/2-z
63 1/2+y,-x,1/2+z
64 1/2-y,x,1/2+z
65 1/2+x,z,1/2-y
66 1/2-x,z,1/2+y
67 1/2-x,-z,1/2-y
68 1/2+x,-z,1/2+y
69 1/2+z,y,1/2-x
70 1/2+z,-y,1/2+x
71 1/2-z,y,1/2+x
72 1/2-z,-y,1/2-x
73 1/2+x,1/2+y,z
74 1/2-x,1/2-y,z
75 1/2-x,1/2+y,-z
76 1/2+x,1/2-y,-z
77 1/2+z,1/2+x,y
78 1/2+z,1/2-x,-y
79 1/2-z,1/2-x,y
80 1/2-z,1/2+x,-y
81 1/2+y,1/2+z,x
82 1/2-y,1/2+z,-x
83 1/2+y,1/2-z,-x
84 1/2-y,1/2-z,x
85 1/2+y,1/2+x,-z
86 1/2-y,1/2-x,-z
87 1/2+y,1/2-x,z
88 1/2-y,1/2+x,z
89 1/2+x,1/2+z,-y
90 1/2-x,1/2+z,y
91 1/2-x,1/2-z,-y
92 1/2+x,1/2-z,y
93 1/2+z,1/2+y,-x
94 1/2+z,1/2-y,x
95 1/2-z,1/2+y,x
96 1/2-z,1/2-y,-x
97 -x,-y,-z
98 x,y,-z
99 x,-y,z
100 -x,y,z
101 -z,-x,-y
102 -z,x,y
103 z,x,-y
104 z,-x,y
105 -y,-z,-x
106 y,-z,x
107 -y,z,x
108 y,z,-x
109 -y,-x,z
110 y,x,z
111 -y,x,-z
112 y,-x,-z
113 -x,-z,y
114 x,-z,-y
115 x,z,y
116 -x,z,-y
117 -z,-y,x
118 -z,y,-x
119 z,-y,-x
120 z,y,x
121 -x,1/2-y,1/2-z
122 x,1/2+y,1/2-z
123 x,1/2-y,1/2+z
124 -x,1/2+y,1/2+z
125 -z,1/2-x,1/2-y
126 -z,1/2+x,1/2+y
127 z,1/2+x,1/2-y
128 z,1/2-x,1/2+y
129 -y,1/2-z,1/2-x
130 y,1/2-z,1/2+x
131 -y,1/2+z,1/2+x
132 y,1/2+z,1/2-x
133 -y,1/2-x,1/2+z
134 y,1/2+x,1/2+z
135 -y,1/2+x,1/2-z
136 y,1/2-x,1/2-z
137 -x,1/2-z,1/2+y
138 x,1/2-z,1/2-y
139 x,1/2+z,1/2+y
140 -x,1/2+z,1/2-y
141 -z,1/2-y,1/2+x
142 -z,1/2+y,1/2-x
143 z,1/2-y,1/2-x
144 z,1/2+y,1/2+x
145 1/2-x,-y,1/2-z
146 1/2+x,y,1/2-z
147 1/2+x,-y,1/2+z
148 1/2-x,y,1/2+z
149 1/2-z,-x,1/2-y
150 1/2-z,x,1/2+y
151 1/2+z,x,1/2-y
152 1/2+z,-x,1/2+y
153 1/2-y,-z,1/2-x
154 1/2+y,-z,1/2+x
155 1/2-y,z,1/2+x
156 1/2+y,z,1/2-x
157 1/2-y,-x,1/2+z
158 1/2+y,x,1/2+z
159 1/2-y,x,1/2-z
160 1/2+y,-x,1/2-z
161 1/2-x,-z,1/2+y
162 1/2+x,-z,1/2-y
163 1/2+x,z,1/2+y
164 1/2-x,z,1/2-y
165 1/2-z,-y,1/2+x
166 1/2-z,y,1/2-x
167 1/2+z,-y,1/2-x
168 1/2+z,y,1/2+x
169 1/2-x,1/2-y,-z
170 1/2+x,1/2+y,-z
171 1/2+x,1/2-y,z
172 1/2-x,1/2+y,z
173 1/2-z,1/2-x,-y
174 1/2-z,1/2+x,y
175 1/2+z,1/2+x,-y
176 1/2+z,1/2-x,y
177 1/2-y,1/2-z,-x
178 1/2+y,1/2-z,x
179 1/2-y,1/2+z,x
180 1/2+y,1/2+z,-x
181 1/2-y,1/2-x,z
182 1/2+y,1/2+x,z
183 1/2-y,1/2+x,-z
184 1/2+y,1/2-x,-z
185 1/2-x,1/2-z,y
186 1/2+x,1/2-z,-y
187 1/2+x,1/2+z,y
188 1/2-x,1/2+z,-y
189 1/2-z,1/2-y,x
190 1/2-z,1/2+y,-x
191 1/2+z,1/2-y,-x
192 1/2+z,1/2+y,x
_cell_length_a                   13.3607(8)
_cell_length_b                   13.3607(8)
_cell_length_c                   13.3607(8)
_cell_angle_alpha                90
_cell_angle_beta                 90
_cell_angle_gamma                90
_cell_volume                     2385
loop_
_atom_site_label
_atom_site_type_symbol
_atom_site_fract_x
_atom_site_fract_y
_atom_site_fract_z
K1 K 0.5000 0.5000 0.0000
N1 N 0.439(2) 0.1387(5) -0.0346(15)
N2 N 0.4793(4) 0.2162(5) -0.0207(4)
N3 N 0.519(4) 0.2925(5) 0.0000
Fe1 Fe 0.5000 0.0000 0.0000
N1B N 0.561(2) 0.1387(5) 0.0346(15)
N2B N 0.5207(4) 0.2162(5) 0.0207(4)
N3B N 0.481(4) 0.2925(5) 0.0000
N1FB N 0.6387(5) 0.0346(15) 0.061(2)
N2FB N 0.7162(5) 0.0207(4) 0.0207(4)
N3FB N 0.7925(5) 0.0000 -0.019(4)
N1GB N 0.3613(5) 0.0346(15) -0.061(2)
N2GB N 0.2838(5) 0.0207(4) -0.0207(4)
N3GB N 0.2075(5) -0.0000 0.019(4)
N1PB N 0.4654(15) 0.1387(5) 0.061(2)
N2PB N 0.4793(4) 0.2162(5) 0.0207(4)
N3PB N 0.5000 0.2925(5) -0.019(4)
N1RB N 0.5346(15) 0.1387(5) -0.061(2)
N2RB N 0.5207(4) 0.2162(5) -0.0207(4)
N3RB N 0.5000 0.2925(5) 0.019(4)
N1YB N 0.4654(15) 0.061(2) -0.1387(5)
N2YB N 0.4793(4) 0.0207(4) -0.2162(5)
N3YB N 0.5000 -0.019(4) -0.2925(5)
N1GC N 0.3613(5) 0.061(2) 0.0346(15)
N2GC N 0.2838(5) 0.0207(4) 0.0207(4)
N3GC N 0.2075(5) -0.019(4) 0.0000
N1HC N 0.6387(5) 0.061(2) -0.0346(15)
N2HC N 0.7162(5) 0.0207(4) -0.0207(4)
N3HC N 0.7925(5) -0.019(4) 0.0000
N1SC N 0.439(2) 0.1387(5) 0.0346(15)
N1UC N 0.561(2) 0.1387(5) -0.0346(15)
N1ID N 0.439(2) 0.0346(15) -0.1387(5)
N3P N 0.519(4) 0.0000 -0.2925(5)
N1VE N 0.3613(5) 0.0346(15) 0.061(2)
N3EB N 0.2075(5) 0.0000 -0.019(4)
N1WE N 0.6387(5) 0.0346(15) -0.061(2)
N3DB N 0.7925(5) -0.0000 0.019(4)
N1IF N 0.5346(15) 0.1387(5) 0.061(2)
N1KF N 0.4654(15) 0.1387(5) -0.061(2)
N1PF N 0.5346(15) 0.061(2) -0.1387(5)
N2R N 0.5207(4) 0.0207(4) -0.2162(5)
N1XF N 0.3613(5) 0.061(2) -0.0346(15)
N1AG N 0.6387(5) 0.061(2) 0.0346(15)
N1P N 0.439(2) -0.0346(15) -0.1387(5)
N2P N 0.4793(4) -0.0207(4) -0.2162(5)
N1Q N 0.561(2) -0.0346(15) 0.1387(5)
N2Q N 0.5207(4) -0.0207(4) 0.2162(5)
N3Q N 0.481(4) -0.0000 0.2925(5)
N1R N 0.561(2) 0.0346(15) -0.1387(5)
N3R N 0.481(4) 0.0000 -0.2925(5)
N1S N 0.439(2) 0.0346(15) 0.1387(5)
N2S N 0.4793(4) 0.0207(4) 0.2162(5)
N3S N 0.519(4) -0.0000 0.2925(5)
N1DB N 0.6387(5) -0.0346(15) -0.061(2)
N2DB N 0.7162(5) -0.0207(4) -0.0207(4)
N1EB N 0.3613(5) -0.0346(15) 0.061(2)
N2EB N 0.2838(5) -0.0207(4) 0.0207(4)
N1QB N 0.4654(15) -0.1387(5) -0.061(2)
N2QB N 0.4793(4) -0.2162(5) -0.0207(4)
N3QB N 0.5000 -0.2925(5) 0.019(4)
N1SB N 0.5346(15) -0.1387(5) 0.061(2)
N2SB N 0.5207(4) -0.2162(5) 0.0207(4)
N3SB N 0.5000 -0.2925(5) -0.019(4)
N1XB N 0.4654(15) -0.061(2) 0.1387(5)
N2XB N 0.4793(4) -0.0207(4) 0.2162(5)
N3XB N 0.5000 0.019(4) 0.2925(5)
N1ZB N 0.5346(15) 0.061(2) 0.1387(5)
N2ZB N 0.5207(4) 0.0207(4) 0.2162(5)
N3ZB N 0.5000 -0.019(4) 0.2925(5)
N1AC N 0.5346(15) -0.061(2) -0.1387(5)
N2AC N 0.5207(4) -0.0207(4) -0.2162(5)
N3AC N 0.5000 0.019(4) -0.2925(5)
N1FC N 0.6387(5) -0.061(2) 0.0346(15)
N2FC N 0.7162(5) -0.0207(4) 0.0207(4)
N3FC N 0.7925(5) 0.019(4) 0.0000
N1IC N 0.3613(5) -0.061(2) -0.0346(15)
N2IC N 0.2838(5) -0.0207(4) -0.0207(4)
N3IC N 0.2075(5) 0.019(4) 0.0000
N1RC N 0.561(2) -0.1387(5) 0.0346(15)
N3A N 0.481(4) -0.2925(5) 0.0000
N1TC N 0.439(2) -0.1387(5) -0.0346(15)
N3C N 0.519(4) -0.2925(5) 0.0000
N1HD N 0.561(2) 0.0346(15) 0.1387(5)
N1JD N 0.439(2) -0.0346(15) 0.1387(5)
N1KD N 0.561(2) -0.0346(15) -0.1387(5)
N1XE N 0.3613(5) -0.0346(15) -0.061(2)
N1YE N 0.6387(5) -0.0346(15) 0.061(2)
N1HF N 0.5346(15) -0.1387(5) -0.061(2)
N2A N 0.5207(4) -0.2162(5) -0.0207(4)
N1JF N 0.4654(15) -0.1387(5) 0.061(2)
N2C N 0.4793(4) -0.2162(5) 0.0207(4)
N1QF N 0.5346(15) -0.061(2) 0.1387(5)
N1RF N 0.4654(15) -0.061(2) -0.1387(5)
N1SF N 0.4654(15) 0.061(2) 0.1387(5)
N1YF N 0.6387(5) -0.061(2) -0.0346(15)
N1ZF N 0.3613(5) -0.061(2) 0.0346(15)
N1A N 0.561(2) -0.1387(5) -0.0346(15)
N1C N 0.439(2) -0.1387(5) 0.0346(15)
K1_2 K 0.5000 -0.5000 0.0000
K1H K 0.5000 0.0000 -0.5000
K1H_2 K 0.5000 -0.0000 0.5000
K1BA K 0.0000 0.0000 0.0000
K1BA_2 K 1.0000 0.0000 0.0000
N3A_2 N 0.481(4) 0.7075(5) 0.0000
N3C_2 N 0.519(4) 0.7075(5) 0.0000
N3L N 0.2925(5) 0.519(4) 0.0000
N3M N 0.7075(5) 0.481(4) 0.0000
N3N N 0.2925(5) 0.481(4) 0.0000
N3O N 0.7075(5) 0.519(4) 0.0000
N3FA N 0.2925(5) 0.5000 0.019(4)
N3GA N 0.7075(5) 0.5000 -0.019(4)
N3HA N 0.2925(5) 0.5000 -0.019(4)
N3IA N 0.7075(5) 0.5000 0.019(4)
N3NA N 0.519(4) 0.5000 0.2075(5)
N3OA N 0.481(4) 0.5000 -0.2075(5)
N3PA N 0.481(4) 0.5000 0.2075(5)
N3QA N 0.519(4) 0.5000 -0.2075(5)
N3ZA N 0.5000 0.519(4) -0.2075(5)
N3AB N 0.5000 0.481(4) 0.2075(5)
N3BB N 0.5000 0.481(4) -0.2075(5)
N3CB N 0.5000 0.519(4) 0.2075(5)
N3QB_2 N 0.5000 0.7075(5) 0.019(4)
N3SB_2 N 0.5000 0.7075(5) -0.019(4)
N4 N 0.7500 0.2500 -0.2500
C1 C 0.6945(18) 0.2276(15) -0.346(2)
C1E C 0.654(2) 0.3055(18) -0.2276(15)
C1K C 0.7724(15) 0.346(2) -0.3055(18)
C1AA C 0.6945(18) 0.2724(15) -0.154(2)
C1BA C 0.654(2) 0.1945(18) -0.2724(15)
C1GA C 0.7724(15) 0.154(2) -0.1945(18)
C1XA C 0.8055(18) 0.2276(15) -0.154(2)
C1BB C 0.846(2) 0.3055(18) -0.2724(15)
C1FB C 0.7276(15) 0.346(2) -0.1945(18)
C1UB C 0.8055(18) 0.2724(15) -0.346(2)
C1AC C 0.846(2) 0.1945(18) -0.2276(15)
C1BC C 0.7276(15) 0.154(2) -0.3055(18)
C1DD C 0.7724(15) 0.3055(18) -0.346(2)
C1ID C 0.6945(18) 0.346(2) -0.2276(15)
C1OD C 0.654(2) 0.2276(15) -0.3055(18)
C1DE C 0.7724(15) 0.1945(18) -0.154(2)
C1HE C 0.6945(18) 0.154(2) -0.2724(15)
C1LE C 0.654(2) 0.2724(15) -0.1945(18)
C1CF C 0.7276(15) 0.3055(18) -0.154(2)
C1DF C 0.8055(18) 0.346(2) -0.2724(15)
C1IF C 0.846(2) 0.2276(15) -0.1945(18)
C1YF C 0.7276(15) 0.1945(18) -0.346(2)
C1EG C 0.8055(18) 0.154(2) -0.2276(15)
C1FG C 0.846(2) 0.2724(15) -0.3055(18)
loop_
_geom_bond_atom_site_label_1
_geom_bond_atom_site_label_2
_geom_bond_site_symmetry_1
_geom_bond_site_symmetry_2
K1 N3 1_555 1_555
N1 N2 1_555 1_555
N2 N3 1_555 1_555
N3 N2B 1_555 1_555
Fe1 N1 1_555 1_555
N4 C1 1_555 1_555
C1 C1BA 1_555 1_555
N1B N2 1_555 1_555
N2B N1 1_555 1_555
N3B K1 1_555 1_555
N1FB Fe1 1_555 1_555
N2FB N1FB 1_555 1_555
N3FB N2FB 1_555 1_555
N1GB N1 1_555 1_555
N2GB N1GB 1_555 1_555
N3GB N2GB 1_555 1_555
N1PB N1 1_555 1_555
N2PB N1 1_555 1_555
N3PB K1 1_555 1_555
N1RB N1 1_555 1_555
N2RB N1 1_555 1_555
N3RB K1 1_555 1_555
N1YB N1 1_555 1_555
N2YB N1YB 1_555 1_555
N3YB N2YB 1_555 1_555
N1GC N1 1_555 1_555
N2GC N1GB 1_555 1_555
N3GC N2GB 1_555 1_555
N1HC Fe1 1_555 1_555
N2HC N1FB 1_555 1_555
N3HC N2FB 1_555 1_555
N1SC N1 1_555 1_555
N1UC N1 1_555 1_555
N1ID Fe1 1_555 1_555
N3P N2YB 1_555 1_555
N1VE Fe1 1_555 1_555
N3EB N2GB 1_555 1_555
N1WE Fe1 1_555 1_555
N3DB N2FB 1_555 1_555
N1IF N1 1_555 1_555
N1KF N2 1_555 1_555
N1PF Fe1 1_555 1_555
N2R N1YB 1_555 1_555
N1XF N1 1_555 1_555
N1AG Fe1 1_555 1_555
N1P Fe1 1_555 1_555
N2P N1YB 1_555 1_555
N1Q Fe1 1_555 1_555
N2Q N1Q 1_555 1_555
N3Q N2Q 1_555 1_555
N1R Fe1 1_555 1_555
N3R N2YB 1_555 1_555
N1S Fe1 1_555 1_555
N2S N1Q 1_555 1_555
N3S N2Q 1_555 1_555
N1DB Fe1 1_555 1_555
N2DB N1FB 1_555 1_555
N1EB Fe1 1_555 1_555
N2EB N1GB 1_555 1_555
N1QB Fe1 1_555 1_555
N2QB N1QB 1_555 1_555
N3QB N2QB 1_555 1_555
N1SB Fe1 1_555 1_555
N2SB N1QB 1_555 1_555
N3SB N2QB 1_555 1_555
N1XB Fe1 1_555 1_555
N2XB N1Q 1_555 1_555
N3XB N2Q 1_555 1_555
N1ZB Fe1 1_555 1_555
N2ZB N1Q 1_555 1_555
N3ZB N2Q 1_555 1_555
N1AC Fe1 1_555 1_555
N2AC N1YB 1_555 1_555
N3AC N2YB 1_555 1_555
N1FC Fe1 1_555 1_555
N2FC N1FB 1_555 1_555
N3FC N2FB 1_555 1_555
N1IC Fe1 1_555 1_555
N2IC N1GB 1_555 1_555
N3IC N2GB 1_555 1_555
N1RC Fe1 1_555 1_555
N3A N2QB 1_555 1_555
N1TC Fe1 1_555 1_555
N3C N2QB 1_555 1_555
N1HD Fe1 1_555 1_555
N1JD Fe1 1_555 1_555
N1KD Fe1 1_555 1_555
N1XE Fe1 1_555 1_555
N1YE Fe1 1_555 1_555
N1HF Fe1 1_555 1_555
N2A N1QB 1_555 1_555
N1JF Fe1 1_555 1_555
N2C N1QB 1_555 1_555
N1QF Fe1 1_555 1_555
N1RF Fe1 1_555 1_555
N1SF Fe1 1_555 1_555
N1YF Fe1 1_555 1_555
N1ZF Fe1 1_555 1_555
N1A Fe1 1_555 1_555
N1C Fe1 1_555 1_555
K1_2 N3QB 1_555 1_555
K1H N3YB 1_555 1_555
K1H_2 N3Q 1_555 1_555
K1BA N3GB 1_555 1_555
K1BA_2 N3FB 1_555 1_555
N3A_2 K1 1_555 1_555
N3C_2 K1 1_555 1_555
N3L K1 1_555 1_555
N3M K1 1_555 1_555
N3N K1 1_555 1_555
N3O K1 1_555 1_555
N3FA K1 1_555 1_555
N3GA K1 1_555 1_555
N3HA K1 1_555 1_555
N3IA K1 1_555 1_555
N3NA K1 1_555 1_555
N3OA K1 1_555 1_555
N3PA K1 1_555 1_555
N3QA K1 1_555 1_555
N3ZA K1 1_555 1_555
N3AB K1 1_555 1_555
N3BB K1 1_555 1_555
N3CB K1 1_555 1_555
N3QB_2 K1 1_555 1_555
N3SB_2 K1 1_555 1_555
C1E N4 1_555 1_555
C1K N4 1_555 1_555
C1AA N4 1_555 1_555
C1BA N4 1_555 1_555
C1GA N4 1_555 1_555
C1XA N4 1_555 1_555
C1BB N4 1_555 1_555
C1FB N4 1_555 1_555
C1UB N4 1_555 1_555
C1AC N4 1_555 1_555
C1BC N4 1_555 1_555
C1DD N4 1_555 1_555
C1ID N4 1_555 1_555
C1OD N4 1_555 1_555
C1DE N4 1_555 1_555
C1HE N4 1_555 1_555
C1LE N4 1_555 1_555
C1CF N4 1_555 1_555
C1DF N4 1_555 1_555
C1IF N4 1_555 1_555
C1YF N4 1_555 1_555
C1EG N4 1_555 1_555
C1FG N4 1_555 1_555
N2 N2B 1_555 1_555
N2 N3B 1_555 1_555
N2 N1PB 1_555 1_555
N2 N2PB 1_555 1_555
N2 N3PB 1_555 1_555
N2 N1RB 1_555 1_555
N2 N2RB 1_555 1_555
N2 N3RB 1_555 1_555
N2 N1SC 1_555 1_555
N2 N1UC 1_555 1_555
N2 N1IF 1_555 1_555
N3 N2PB 1_555 1_555
N3 N2RB 1_555 1_555
Fe1 N1B 1_555 1_555
Fe1 N1GB 1_555 1_555
Fe1 N1PB 1_555 1_555
Fe1 N1RB 1_555 1_555
Fe1 N1YB 1_555 1_555
Fe1 N1GC 1_555 1_555
Fe1 N1SC 1_555 1_555
Fe1 N1UC 1_555 1_555
Fe1 N1IF 1_555 1_555
Fe1 N1KF 1_555 1_555
Fe1 N1XF 1_555 1_555
C1 C1UB 1_555 1_555
C1 C1BC 1_555 1_555
C1 C1DD 1_555 1_555
C1 C1OD 1_555 1_555
C1 C1HE 1_555 1_555
C1 C1YF 1_555 1_555
N1B N2B 1_555 1_555
N1B N1FB 1_555 1_555
N1B N1PB 1_555 1_555
N1B N2PB 1_555 1_555
N1B N1RB 1_555 1_555
N1B N2RB 1_555 1_555
N1B N1HC 1_555 1_555
N1B N1SC 1_555 1_555
N1B N1UC 1_555 1_555
N1B N1KF 1_555 1_555
N1B N1AG 1_555 1_555
N1B N1ZB 1_555 1_555
N2B N3B 1_555 1_555
N2B N1PB 1_555 1_555
N2B N2PB 1_555 1_555
N2B N3PB 1_555 1_555
N2B N1RB 1_555 1_555
N2B N2RB 1_555 1_555
N2B N3RB 1_555 1_555
N2B N1SC 1_555 1_555
N2B N1UC 1_555 1_555
N2B N1IF 1_555 1_555
N2B N1KF 1_555 1_555
N3B N2PB 1_555 1_555
N3B N2RB 1_555 1_555
N1FB N1HC 1_555 1_555
N1FB N1WE 1_555 1_555
N1FB N1Q 1_555 1_555
N1FB N1ZB 1_555 1_555
N1FB N1FC 1_555 1_555
N1FB N1HD 1_555 1_555
N1FB N1YE 1_555 1_555
N1FB N1YF 1_555 1_555
N2FB N1HC 1_555 1_555
N2FB N2HC 1_555 1_555
N2FB N1WE 1_555 1_555
N2FB N1AG 1_555 1_555
N2FB N1DB 1_555 1_555
N2FB N2DB 1_555 1_555
N2FB N1FC 1_555 1_555
N2FB N2FC 1_555 1_555
N2FB N1YE 1_555 1_555
N2FB N1YF 1_555 1_555
N3FB N2HC 1_555 1_555
N3FB N2DB 1_555 1_555
N3FB N2FC 1_555 1_555
N1GB N1YB 1_555 1_555
N1GB N1GC 1_555 1_555
N1GB N1ID 1_555 1_555
N1GB N1VE 1_555 1_555
N1GB N1P 1_555 1_555
N1GB N1IC 1_555 1_555
N1GB N1XE 1_555 1_555
N1GB N1ZF 1_555 1_555
N2GB N1GC 1_555 1_555
N2GB N2GC 1_555 1_555
N2GB N1VE 1_555 1_555
N2GB N1XF 1_555 1_555
N2GB N1EB 1_555 1_555
N2GB N2EB 1_555 1_555
N2GB N1IC 1_555 1_555
N2GB N2IC 1_555 1_555
N2GB N1XE 1_555 1_555
N2GB N1ZF 1_555 1_555
N3GB N2GC 1_555 1_555
N3GB N2EB 1_555 1_555
N3GB N2IC 1_555 1_555
N1PB N2PB 1_555 1_555
N1PB N2RB 1_555 1_555
N1PB N1GC 1_555 1_555
N1PB N1UC 1_555 1_555
N1PB N1IF 1_555 1_555
N1PB N1KF 1_555 1_555
N1PB N1S 1_555 1_555
N1PB N1ZB 1_555 1_555
N1PB N1SF 1_555 1_555
N2PB N3PB 1_555 1_555
N2PB N1RB 1_555 1_555
N2PB N2RB 1_555 1_555
N2PB N3RB 1_555 1_555
N2PB N1SC 1_555 1_555
N2PB N1UC 1_555 1_555
N2PB N1IF 1_555 1_555
N2PB N1KF 1_555 1_555
N3PB N2RB 1_555 1_555
N1RB N2RB 1_555 1_555
N1RB N1YB 1_555 1_555
N1RB N1HC 1_555 1_555
N1RB N1SC 1_555 1_555
N1RB N1IF 1_555 1_555
N1RB N1KF 1_555 1_555
N1RB N1PF 1_555 1_555
N1RB N1R 1_555 1_555
N2RB N3RB 1_555 1_555
N2RB N1SC 1_555 1_555
N2RB N1UC 1_555 1_555
N2RB N1IF 1_555 1_555
N2RB N1KF 1_555 1_555
N1YB N1KF 1_555 1_555
N1YB N1PF 1_555 1_555
N1YB N1P 1_555 1_555
N1YB N1R 1_555 1_555
N1YB N1KD 1_555 1_555
N1YB N1RF 1_555 1_555
N2YB N1ID 1_555 1_555
N2YB N1PF 1_555 1_555
N2YB N2R 1_555 1_555
N2YB N1P 1_555 1_555
N2YB N2P 1_555 1_555
N2YB N1R 1_555 1_555
N2YB N1AC 1_555 1_555
N2YB N2AC 1_555 1_555
N2YB N1KD 1_555 1_555
N2YB N1RF 1_555 1_555
N3YB N2R 1_555 1_555
N3YB N2P 1_555 1_555
N3YB N2AC 1_555 1_555
N1GC N2GC 1_555 1_555
N1GC N1SC 1_555 1_555
N1GC N1XF 1_555 1_555
N1GC N1S 1_555 1_555
N1GC N1EB 1_555 1_555
N1GC N2EB 1_555 1_555
N1GC N2IC 1_555 1_555
N1GC N1XE 1_555 1_555
N1GC N1ZF 1_555 1_555
N2GC N3GC 1_555 1_555
N2GC N1VE 1_555 1_555
N2GC N3EB 1_555 1_555
N2GC N1XF 1_555 1_555
N2GC N1EB 1_555 1_555
N2GC N2EB 1_555 1_555
N2GC N1IC 1_555 1_555
N2GC N2IC 1_555 1_555
N2GC N3IC 1_555 1_555
N2GC N1XE 1_555 1_555
N2GC N1ZF 1_555 1_555
N3GC N2EB 1_555 1_555
N3GC N2IC 1_555 1_555
N3GC K1BA 1_555 1_555
N1HC N2HC 1_555 1_555
N1HC N1UC 1_555 1_555
N1HC N1AG 1_555 1_555
N1HC N1R 1_555 1_555
N1HC N1DB 1_555 1_555
N1HC N2DB 1_555 1_555
N1HC N2FC 1_555 1_555
N1HC N1YE 1_555 1_555
N1HC N1YF 1_555 1_555
N2HC N3HC 1_555 1_555
N2HC N1WE 1_555 1_555
N2HC N3DB 1_555 1_555
N2HC N1AG 1_555 1_555
N2HC N1DB 1_555 1_555
N2HC N2DB 1_555 1_555
N2HC N1FC 1_555 1_555
N2HC N2FC 1_555 1_555
N2HC N3FC 1_555 1_555
N2HC N1YE 1_555 1_555
N2HC N1YF 1_555 1_555
N3HC N2DB 1_555 1_555
N3HC N2FC 1_555 1_555
N3HC K1BA_2 1_555 1_555
N1SC N1VE 1_555 1_555
N1SC N1IF 1_555 1_555
N1SC N1KF 1_555 1_555
N1SC N1XF 1_555 1_555
N1SC N1SF 1_555 1_555
N1UC N1WE 1_555 1_555
N1UC N1IF 1_555 1_555
N1UC N1KF 1_555 1_555
N1UC N1PF 1_555 1_555
N1UC N1AG 1_555 1_555
N1ID N1KF 1_555 1_555
N1ID N1PF 1_555 1_555
N1ID N2R 1_555 1_555
N1ID N1XF 1_555 1_555
N1ID N1P 1_555 1_555
N1ID N2P 1_555 1_555
N1ID N1R 1_555 1_555
N1ID N1AC 1_555 1_555
N1ID N2AC 1_555 1_555
N1ID N1XE 1_555 1_555
N1ID N1RF 1_555 1_555
N3P N2R 1_555 1_555
N3P N2P 1_555 1_555
N3P N2AC 1_555 1_555
N3P K1H 1_555 1_555
N1VE N1XF 1_555 1_555
N1VE N1S 1_555 1_555
N1VE N1EB 1_555 1_555
N1VE N2EB 1_555 1_555
N1VE N1IC 1_555 1_555
N1VE N2IC 1_555 1_555
N1VE N1JD 1_555 1_555
N1VE N1SF 1_555 1_555
N1VE N1ZF 1_555 1_555
N3EB N2EB 1_555 1_555
N3EB N2IC 1_555 1_555
N3EB K1BA 1_555 1_555
N1WE N1PF 1_555 1_555
N1WE N1AG 1_555 1_555
N1WE N1R 1_555 1_555
N1WE N1DB 1_555 1_555
N1WE N2DB 1_555 1_555
N1WE N1FC 1_555 1_555
N1WE N2FC 1_555 1_555
N1WE N1KD 1_555 1_555
N1WE N1YF 1_555 1_555
N3DB N2DB 1_555 1_555
N3DB N2FC 1_555 1_555
N3DB K1BA_2 1_555 1_555
N1IF N1AG 1_555 1_555
N1IF N1ZB 1_555 1_555
N1IF N1HD 1_555 1_555
N1IF N1SF 1_555 1_555
N1KF N1PF 1_555 1_555
N1KF N1XF 1_555 1_555
N1PF N2R 1_555 1_555
N1PF N1P 1_555 1_555
N1PF N2P 1_555 1_555
N1PF N1AC 1_555 1_555
N1PF N2AC 1_555 1_555
N1PF N1KD 1_555 1_555
N2R N1P 1_555 1_555
N2R N2P 1_555 1_555
N2R N1R 1_555 1_555
N2R N3R 1_555 1_555
N2R N1AC 1_555 1_555
N2R N2AC 1_555 1_555
N2R N3AC 1_555 1_555
N2R N1KD 1_555 1_555
N2R N1RF 1_555 1_555
N1XF N1EB 1_555 1_555
N1XF N2EB 1_555 1_555
N1XF N1IC 1_555 1_555
N1XF N2IC 1_555 1_555
N1XF N1XE 1_555 1_555
N1AG N1DB 1_555 1_555
N1AG N2DB 1_555 1_555
N1AG N1FC 1_555 1_555
N1AG N2FC 1_555 1_555
N1AG N1HD 1_555 1_555
N1AG N1YE 1_555 1_555
N1P N2P 1_555 1_555
N1P N1QB 1_555 1_555
N1P N1AC 1_555 1_555
N1P N2AC 1_555 1_555
N1P N1IC 1_555 1_555
N1P N1KD 1_555 1_555
N1P N1XE 1_555 1_555
N2P N1R 1_555 1_555
N2P N3R 1_555 1_555
N2P N1AC 1_555 1_555
N2P N2AC 1_555 1_555
N2P N3AC 1_555 1_555
N2P N1KD 1_555 1_555
N2P N1RF 1_555 1_555
N1Q N1SB 1_555 1_555
N1Q N1XB 1_555 1_555
N1Q N1ZB 1_555 1_555
N1Q N1FC 1_555 1_555
N1Q N1HD 1_555 1_555
N1Q N1JD 1_555 1_555
N1Q N1YE 1_555 1_555
N1Q N1SF 1_555 1_555
N2Q N1S 1_555 1_555
N2Q N2S 1_555 1_555
N2Q N1XB 1_555 1_555
N2Q N2XB 1_555 1_555
N2Q N1ZB 1_555 1_555
N2Q N2ZB 1_555 1_555
N2Q N1HD 1_555 1_555
N2Q N1JD 1_555 1_555
N2Q N1QF 1_555 1_555
N2Q N1SF 1_555 1_555
N3Q N2S 1_555 1_555
N3Q N2XB 1_555 1_555
N3Q N2ZB 1_555 1_555
N1R N1DB 1_555 1_555
N1R N1AC 1_555 1_555
N1R N2AC 1_555 1_555
N1R N1KD 1_555 1_555
N1R N1RF 1_555 1_555
N3R N2AC 1_555 1_555
N3R K1H 1_555 1_555
N1S N2S 1_555 1_555
N1S N1EB 1_555 1_555
N1S N1XB 1_555 1_555
N1S N2XB 1_555 1_555
N1S N1ZB 1_555 1_555
N1S N2ZB 1_555 1_555
N1S N1HD 1_555 1_555
N1S N1JD 1_555 1_555
N1S N1QF 1_555 1_555
N2S N3S 1_555 1_555
N2S N1XB 1_555 1_555
N2S N2XB 1_555 1_555
N2S N3XB 1_555 1_555
N2S N1ZB 1_555 1_555
N2S N2ZB 1_555 1_555
N2S N3ZB 1_555 1_555
N2S N1HD 1_555 1_555
N2S N1JD 1_555 1_555
N2S N1QF 1_555 1_555
N2S N1SF 1_555 1_555
N3S N2XB 1_555 1_555
N3S N2ZB 1_555 1_555
N3S K1H_2 1_555 1_555
N1DB N2DB 1_555 1_555
N1DB N1AC 1_555 1_555
N1DB N1FC 1_555 1_555
N1DB N2FC 1_555 1_555
N1DB N1KD 1_555 1_555
N1DB N1YE 1_555 1_555
N1DB N1A 1_555 1_555
N2DB N1FC 1_555 1_555
N2DB N2FC 1_555 1_555
N2DB N3FC 1_555 1_555
N2DB N1YE 1_555 1_555
N2DB N1YF 1_555 1_555
N1EB N2EB 1_555 1_555
N1EB N1XB 1_555 1_555
N1EB N1IC 1_555 1_555
N1EB N2IC 1_555 1_555
N1EB N1JD 1_555 1_555
N1EB N1XE 1_555 1_555
N1EB N1C 1_555 1_555
N2EB N1IC 1_555 1_555
N2EB N2IC 1_555 1_555
N2EB N3IC 1_555 1_555
N2EB N1XE 1_555 1_555
N2EB N1ZF 1_555 1_555
N1QB N1AC 1_555 1_555
N1QB N1IC 1_555 1_555
N1QB N1RC 1_555 1_555
N1QB N1HF 1_555 1_555
N1QB N1JF 1_555 1_555
N1QB N1RF 1_555 1_555
N1QB N1A 1_555 1_555
N1QB N1C 1_555 1_555
N2QB N1SB 1_555 1_555
N2QB N2SB 1_555 1_555
N2QB N1RC 1_555 1_555
N2QB N1TC 1_555 1_555
N2QB N1HF 1_555 1_555
N2QB N2A 1_555 1_555
N2QB N1JF 1_555 1_555
N2QB N2C 1_555 1_555
N2QB N1A 1_555 1_555
N2QB N1C 1_555 1_555
N3QB N2SB 1_555 1_555
N3QB N2A 1_555 1_555
N3QB N2C 1_555 1_555
N1SB N2SB 1_555 1_555
N1SB N1XB 1_555 1_555
N1SB N1FC 1_555 1_555
N1SB N1TC 1_555 1_555
N1SB N1HF 1_555 1_555
N1SB N2A 1_555 1_555
N1SB N1JF 1_555 1_555
N1SB N2C 1_555 1_555
N1SB N1QF 1_555 1_555
N1SB N1A 1_555 1_555
N1SB N1C 1_555 1_555
N2SB N3SB 1_555 1_555
N2SB N1RC 1_555 1_555
N2SB N3A 1_555 1_555
N2SB N1TC 1_555 1_555
N2SB N3C 1_555 1_555
N2SB N1HF 1_555 1_555
N2SB N2A 1_555 1_555
N2SB N1JF 1_555 1_555
N2SB N2C 1_555 1_555
N2SB N1A 1_555 1_555
N2SB N1C 1_555 1_555
N3SB N2A 1_555 1_555
N3SB N2C 1_555 1_555
N3SB K1_2 1_555 1_555
N1XB N2XB 1_555 1_555
N1XB N2ZB 1_555 1_555
N1XB N1HD 1_555 1_555
N1XB N1JF 1_555 1_555
N1XB N1QF 1_555 1_555
N1XB N1SF 1_555 1_555
N1XB N1C 1_555 1_555
N2XB N3XB 1_555 1_555
N2XB N1ZB 1_555 1_555
N2XB N2ZB 1_555 1_555
N2XB N3ZB 1_555 1_555
N2XB N1HD 1_555 1_555
N2XB N1JD 1_555 1_555
N2XB N1QF 1_555 1_555
N2XB N1SF 1_555 1_555
N3XB N2ZB 1_555 1_555
N3XB K1H_2 1_555 1_555
N1ZB N2ZB 1_555 1_555
N1ZB N1JD 1_555 1_555
N1ZB N1QF 1_555 1_555
N1ZB N1SF 1_555 1_555
N2ZB N3ZB 1_555 1_555
N2ZB N1HD 1_555 1_555
N2ZB N1JD 1_555 1_555
N2ZB N1QF 1_555 1_555
N2ZB N1SF 1_555 1_555
N3ZB K1H_2 1_555 1_555
N1AC N2AC 1_555 1_555
N1AC N1HF 1_555 1_555
N1AC N1RF 1_555 1_555
N1AC N1A 1_555 1_555
N2AC N3AC 1_555 1_555
N2AC N1KD 1_555 1_555
N2AC N1RF 1_555 1_555
N3AC K1H 1_555 1_555
N1FC N2FC 1_555 1_555
N1FC N1RC 1_555 1_555
N1FC N1YF 1_555 1_555
N1FC N1A 1_555 1_555
N2FC N3FC 1_555 1_555
N2FC N1YE 1_555 1_555
N2FC N1YF 1_555 1_555
N3FC K1BA_2 1_555 1_555
N1IC N2IC 1_555 1_555
N1IC N1TC 1_555 1_555
N1IC N1ZF 1_555 1_555
N1IC N1C 1_555 1_555
N2IC N3IC 1_555 1_555
N2IC N1XE 1_555 1_555
N2IC N1ZF 1_555 1_555
N3IC K1BA 1_555 1_555
N1RC N1YE 1_555 1_555
N1RC N1HF 1_555 1_555
N1RC N2A 1_555 1_555
N1RC N1JF 1_555 1_555
N1RC N2C 1_555 1_555
N1RC N1QF 1_555 1_555
N1RC N1YF 1_555 1_555
N1RC N1A 1_555 1_555
N1RC N1C 1_555 1_555
N3A N2A 1_555 1_555
N3A N2C 1_555 1_555
N3A K1_2 1_555 1_555
N1TC N1XE 1_555 1_555
N1TC N1HF 1_555 1_555
N1TC N2A 1_555 1_555
N1TC N1JF 1_555 1_555
N1TC N2C 1_555 1_555
N1TC N1RF 1_555 1_555
N1TC N1ZF 1_555 1_555
N1TC N1A 1_555 1_555
N1TC N1C 1_555 1_555
N3C N2A 1_555 1_555
N3C N2C 1_555 1_555
N3C K1_2 1_555 1_555
N1HD N1YE 1_555 1_555
N1HD N1QF 1_555 1_555
N1HD N1SF 1_555 1_555
N1JD N1JF 1_555 1_555
N1JD N1QF 1_555 1_555
N1JD N1SF 1_555 1_555
N1JD N1ZF 1_555 1_555
N1KD N1HF 1_555 1_555
N1KD N1RF 1_555 1_555
N1KD N1YF 1_555 1_555
N1XE N1RF 1_555 1_555
N1XE N1ZF 1_555 1_555
N1YE N1QF 1_555 1_555
N1YE N1YF 1_555 1_555
N1HF N2A 1_555 1_555
N1HF N2C 1_555 1_555
N1HF N1RF 1_555 1_555
N1HF N1YF 1_555 1_555
N1HF N1C 1_555 1_555
N2A N1JF 1_555 1_555
N2A N2C 1_555 1_555
N2A N1A 1_555 1_555
N2A N1C 1_555 1_555
N1JF N2C 1_555 1_555
N1JF N1QF 1_555 1_555
N1JF N1ZF 1_555 1_555
N1JF N1A 1_555 1_555
N2C N1A 1_555 1_555
N2C N1C 1_555 1_555
N1YF N1A 1_555 1_555
N1ZF N1C 1_555 1_555
C1E C1AA 1_555 1_555
C1E C1BA 1_555 1_555
C1E C1FB 1_555 1_555
C1E C1ID 1_555 1_555
C1E C1OD 1_555 1_555
C1E C1LE 1_555 1_555
C1E C1CF 1_555 1_555
C1K C1BB 1_555 1_555
C1K C1FB 1_555 1_555
C1K C1UB 1_555 1_555
C1K C1DD 1_555 1_555
C1K C1ID 1_555 1_555
C1K C1DF 1_555 1_555
C1K C1FG 1_555 1_555
C1AA C1XA 1_555 1_555
C1AA C1FB 1_555 1_555
C1AA C1ID 1_555 1_555
C1AA C1DE 1_555 1_555
C1AA C1LE 1_555 1_555
C1AA C1CF 1_555 1_555
C1BA C1BC 1_555 1_555
C1BA C1OD 1_555 1_555
C1BA C1HE 1_555 1_555
C1BA C1LE 1_555 1_555
C1BA C1YF 1_555 1_555
C1GA C1XA 1_555 1_555
C1GA C1AC 1_555 1_555
C1GA C1BC 1_555 1_555
C1GA C1DE 1_555 1_555
C1GA C1HE 1_555 1_555
C1GA C1IF 1_555 1_555
C1GA C1EG 1_555 1_555
C1XA C1AC 1_555 1_555
C1XA C1DE 1_555 1_555
C1XA C1CF 1_555 1_555
C1XA C1IF 1_555 1_555
C1XA C1EG 1_555 1_555
C1BB C1UB 1_555 1_555
C1BB C1AC 1_555 1_555
C1BB C1DD 1_555 1_555
C1BB C1DF 1_555 1_555
C1BB C1IF 1_555 1_555
C1BB C1FG 1_555 1_555
C1FB C1ID 1_555 1_555
C1FB C1LE 1_555 1_555
C1FB C1CF 1_555 1_555
C1FB C1DF 1_555 1_555
C1UB C1DD 1_555 1_555
C1UB C1DF 1_555 1_555
C1UB C1YF 1_555 1_555
C1UB C1FG 1_555 1_555
C1AC C1DE 1_555 1_555
C1AC C1IF 1_555 1_555
C1AC C1EG 1_555 1_555
C1AC C1FG 1_555 1_555
C1BC C1OD 1_555 1_555
C1BC C1HE 1_555 1_555
C1BC C1YF 1_555 1_555
C1BC C1EG 1_555 1_555
C1DD C1DF 1_555 1_555
C1DD C1YF 1_555 1_555
C1DD C1FG 1_555 1_555
C1ID C1LE 1_555 1_555
C1ID C1CF 1_555 1_555
C1ID C1DF 1_555 1_555
C1OD C1HE 1_555 1_555
C1OD C1LE 1_555 1_555
C1OD C1YF 1_555 1_555
C1DE C1CF 1_555 1_555
C1DE C1IF 1_555 1_555
C1DE C1EG 1_555 1_555
C1HE C1YF 1_555 1_555
C1HE C1EG 1_555 1_555
C1LE C1CF 1_555 1_555
C1DF C1FG 1_555 1_555
C1IF C1EG 1_555 1_555
C1IF C1FG 1_555 1_555

#END
