
#######################################################################
#
#                 Cambridge Crystallographic Data Centre
#                                CCDC 
#
#######################################################################
#
# If this CIF has been generated from an entry in the Cambridge 
# Structural Database, then it will include bibliographic, chemical, 
# crystal, experimental, refinement or atomic coordinate data resulting 
# from the CCDC's data processing and validation procedures.
#
#######################################################################

data_ROQFUA07
_chemical_formula_moiety         'C24 Fe1 K6 N117'
_symmetry_cell_setting           cubic
_symmetry_space_group_name_H-M   'F m -3 m'
_symmetry_Int_Tables_number      225
_space_group_name_Hall           '-F 4 2 3'
loop_
_symmetry_equiv_pos_site_id
_symmetry_equiv_pos_as_xyz
1 x,y,z
2 -x,-y,z
3 -x,y,-z
4 x,-y,-z
5 z,x,y
6 z,-x,-y
7 -z,-x,y
8 -z,x,-y
9 y,z,x
10 -y,z,-x
11 y,-z,-x
12 -y,-z,x
13 y,x,-z
14 -y,-x,-z
15 y,-x,z
16 -y,x,z
17 x,z,-y
18 -x,z,y
19 -x,-z,-y
20 x,-z,y
21 z,y,-x
22 z,-y,x
23 -z,y,x
24 -z,-y,-x
25 x,1/2+y,1/2+z
26 -x,1/2-y,1/2+z
27 -x,1/2+y,1/2-z
28 x,1/2-y,1/2-z
29 z,1/2+x,1/2+y
30 z,1/2-x,1/2-y
31 -z,1/2-x,1/2+y
32 -z,1/2+x,1/2-y
33 y,1/2+z,1/2+x
34 -y,1/2+z,1/2-x
35 y,1/2-z,1/2-x
36 -y,1/2-z,1/2+x
37 y,1/2+x,1/2-z
38 -y,1/2-x,1/2-z
39 y,1/2-x,1/2+z
40 -y,1/2+x,1/2+z
41 x,1/2+z,1/2-y
42 -x,1/2+z,1/2+y
43 -x,1/2-z,1/2-y
44 x,1/2-z,1/2+y
45 z,1/2+y,1/2-x
46 z,1/2-y,1/2+x
47 -z,1/2+y,1/2+x
48 -z,1/2-y,1/2-x
49 1/2+x,y,1/2+z
50 1/2-x,-y,1/2+z
51 1/2-x,y,1/2-z
52 1/2+x,-y,1/2-z
53 1/2+z,x,1/2+y
54 1/2+z,-x,1/2-y
55 1/2-z,-x,1/2+y
56 1/2-z,x,1/2-y
57 1/2+y,z,1/2+x
58 1/2-y,z,1/2-x
59 1/2+y,-z,1/2-x
60 1/2-y,-z,1/2+x
61 1/2+y,x,1/2-z
62 1/2-y,-x,1/2-z
63 1/2+y,-x,1/2+z
64 1/2-y,x,1/2+z
65 1/2+x,z,1/2-y
66 1/2-x,z,1/2+y
67 1/2-x,-z,1/2-y
68 1/2+x,-z,1/2+y
69 1/2+z,y,1/2-x
70 1/2+z,-y,1/2+x
71 1/2-z,y,1/2+x
72 1/2-z,-y,1/2-x
73 1/2+x,1/2+y,z
74 1/2-x,1/2-y,z
75 1/2-x,1/2+y,-z
76 1/2+x,1/2-y,-z
77 1/2+z,1/2+x,y
78 1/2+z,1/2-x,-y
79 1/2-z,1/2-x,y
80 1/2-z,1/2+x,-y
81 1/2+y,1/2+z,x
82 1/2-y,1/2+z,-x
83 1/2+y,1/2-z,-x
84 1/2-y,1/2-z,x
85 1/2+y,1/2+x,-z
86 1/2-y,1/2-x,-z
87 1/2+y,1/2-x,z
88 1/2-y,1/2+x,z
89 1/2+x,1/2+z,-y
90 1/2-x,1/2+z,y
91 1/2-x,1/2-z,-y
92 1/2+x,1/2-z,y
93 1/2+z,1/2+y,-x
94 1/2+z,1/2-y,x
95 1/2-z,1/2+y,x
96 1/2-z,1/2-y,-x
97 -x,-y,-z
98 x,y,-z
99 x,-y,z
100 -x,y,z
101 -z,-x,-y
102 -z,x,y
103 z,x,-y
104 z,-x,y
105 -y,-z,-x
106 y,-z,x
107 -y,z,x
108 y,z,-x
109 -y,-x,z
110 y,x,z
111 -y,x,-z
112 y,-x,-z
113 -x,-z,y
114 x,-z,-y
115 x,z,y
116 -x,z,-y
117 -z,-y,x
118 -z,y,-x
119 z,-y,-x
120 z,y,x
121 -x,1/2-y,1/2-z
122 x,1/2+y,1/2-z
123 x,1/2-y,1/2+z
124 -x,1/2+y,1/2+z
125 -z,1/2-x,1/2-y
126 -z,1/2+x,1/2+y
127 z,1/2+x,1/2-y
128 z,1/2-x,1/2+y
129 -y,1/2-z,1/2-x
130 y,1/2-z,1/2+x
131 -y,1/2+z,1/2+x
132 y,1/2+z,1/2-x
133 -y,1/2-x,1/2+z
134 y,1/2+x,1/2+z
135 -y,1/2+x,1/2-z
136 y,1/2-x,1/2-z
137 -x,1/2-z,1/2+y
138 x,1/2-z,1/2-y
139 x,1/2+z,1/2+y
140 -x,1/2+z,1/2-y
141 -z,1/2-y,1/2+x
142 -z,1/2+y,1/2-x
143 z,1/2-y,1/2-x
144 z,1/2+y,1/2+x
145 1/2-x,-y,1/2-z
146 1/2+x,y,1/2-z
147 1/2+x,-y,1/2+z
148 1/2-x,y,1/2+z
149 1/2-z,-x,1/2-y
150 1/2-z,x,1/2+y
151 1/2+z,x,1/2-y
152 1/2+z,-x,1/2+y
153 1/2-y,-z,1/2-x
154 1/2+y,-z,1/2+x
155 1/2-y,z,1/2+x
156 1/2+y,z,1/2-x
157 1/2-y,-x,1/2+z
158 1/2+y,x,1/2+z
159 1/2-y,x,1/2-z
160 1/2+y,-x,1/2-z
161 1/2-x,-z,1/2+y
162 1/2+x,-z,1/2-y
163 1/2+x,z,1/2+y
164 1/2-x,z,1/2-y
165 1/2-z,-y,1/2+x
166 1/2-z,y,1/2-x
167 1/2+z,-y,1/2-x
168 1/2+z,y,1/2+x
169 1/2-x,1/2-y,-z
170 1/2+x,1/2+y,-z
171 1/2+x,1/2-y,z
172 1/2-x,1/2+y,z
173 1/2-z,1/2-x,-y
174 1/2-z,1/2+x,y
175 1/2+z,1/2+x,-y
176 1/2+z,1/2-x,y
177 1/2-y,1/2-z,-x
178 1/2+y,1/2-z,x
179 1/2-y,1/2+z,x
180 1/2+y,1/2+z,-x
181 1/2-y,1/2-x,z
182 1/2+y,1/2+x,z
183 1/2-y,1/2+x,-z
184 1/2+y,1/2-x,-z
185 1/2-x,1/2-z,y
186 1/2+x,1/2-z,-y
187 1/2+x,1/2+z,y
188 1/2-x,1/2+z,-y
189 1/2-z,1/2-y,x
190 1/2-z,1/2+y,-x
191 1/2+z,1/2-y,-x
192 1/2+z,1/2+y,x
_cell_length_a                   13.3511(10)
_cell_length_b                   13.3511(10)
_cell_length_c                   13.3511(10)
_cell_angle_alpha                90
_cell_angle_beta                 90
_cell_angle_gamma                90
_cell_volume                     2379.86
loop_
_atom_site_label
_atom_site_type_symbol
_atom_site_fract_x
_atom_site_fract_y
_atom_site_fract_z
K1 K 0.5000 0.5000 0.0000
N1 N 0.4790(3) 0.2162(4) -0.0210(3)
N2 N 0.519(3) 0.2926(4) 0.0000
Fe1 Fe 0.5000 0.0000 0.0000
N3 N 0.4386(13) 0.1387(3) -0.0349(10)
N1B N 0.5210(3) 0.2162(4) 0.0210(3)
N2B N 0.481(3) 0.2926(4) 0.0000
N3B N 0.5614(13) 0.1387(3) 0.0349(10)
N1FB N 0.7162(4) 0.0210(3) 0.0210(3)
N2FB N 0.7926(4) 0.0000 -0.019(3)
N3FB N 0.6387(3) 0.0349(10) 0.0614(13)
N1GB N 0.2838(4) 0.0210(3) -0.0210(3)
N2GB N 0.2074(4) -0.0000 0.019(3)
N3GB N 0.3613(3) 0.0349(10) -0.0614(13)
N1PB N 0.4790(3) 0.2162(4) 0.0210(3)
N2PB N 0.5000 0.2926(4) -0.019(3)
N3PB N 0.4651(10) 0.1387(3) 0.0614(13)
N1RB N 0.5210(3) 0.2162(4) -0.0210(3)
N2RB N 0.5000 0.2926(4) 0.019(3)
N3RB N 0.5349(10) 0.1387(3) -0.0614(13)
N1YB N 0.4790(3) 0.0210(3) -0.2162(4)
N2YB N 0.5000 -0.019(3) -0.2926(4)
N3YB N 0.4651(10) 0.0614(13) -0.1387(3)
N1GC N 0.2838(4) 0.0210(3) 0.0210(3)
N2GC N 0.2074(4) -0.019(3) 0.0000
N3GC N 0.3613(3) 0.0614(13) 0.0349(10)
N1HC N 0.7162(4) 0.0210(3) -0.0210(3)
N2HC N 0.7926(4) -0.019(3) 0.0000
N3HC N 0.6387(3) 0.0614(13) -0.0349(10)
N3SC N 0.4386(13) 0.1387(3) 0.0349(10)
N3UC N 0.5614(13) 0.1387(3) -0.0349(10)
N2P N 0.519(3) 0.0000 -0.2926(4)
N3ID N 0.4386(13) 0.0349(10) -0.1387(3)
N2EB N 0.2074(4) 0.0000 -0.019(3)
N3VE N 0.3613(3) 0.0349(10) 0.0614(13)
N2DB N 0.7926(4) -0.0000 0.019(3)
N3WE N 0.6387(3) 0.0349(10) -0.0614(13)
N3IF N 0.5349(10) 0.1387(3) 0.0614(13)
N3KF N 0.4651(10) 0.1387(3) -0.0614(13)
N1R N 0.5210(3) 0.0210(3) -0.2162(4)
N3PF N 0.5349(10) 0.0614(13) -0.1387(3)
N3XF N 0.3613(3) 0.0614(13) -0.0349(10)
N3AG N 0.6387(3) 0.0614(13) 0.0349(10)
N1P N 0.4790(3) -0.0210(3) -0.2162(4)
N3P N 0.4386(13) -0.0349(10) -0.1387(3)
N1Q N 0.5210(3) -0.0210(3) 0.2162(4)
N2Q N 0.481(3) -0.0000 0.2926(4)
N3Q N 0.5614(13) -0.0349(10) 0.1387(3)
N2R N 0.481(3) 0.0000 -0.2926(4)
N3R N 0.5614(13) 0.0349(10) -0.1387(3)
N1S N 0.4790(3) 0.0210(3) 0.2162(4)
N2S N 0.519(3) -0.0000 0.2926(4)
N3S N 0.4386(13) 0.0349(10) 0.1387(3)
N1DB N 0.7162(4) -0.0210(3) -0.0210(3)
N3DB N 0.6387(3) -0.0349(10) -0.0614(13)
N1EB N 0.2838(4) -0.0210(3) 0.0210(3)
N3EB N 0.3613(3) -0.0349(10) 0.0614(13)
N1QB N 0.4790(3) -0.2162(4) -0.0210(3)
N2QB N 0.5000 -0.2926(4) 0.019(3)
N3QB N 0.4651(10) -0.1387(3) -0.0614(13)
N1SB N 0.5210(3) -0.2162(4) 0.0210(3)
N2SB N 0.5000 -0.2926(4) -0.019(3)
N3SB N 0.5349(10) -0.1387(3) 0.0614(13)
N1XB N 0.4790(3) -0.0210(3) 0.2162(4)
N2XB N 0.5000 0.019(3) 0.2926(4)
N3XB N 0.4651(10) -0.0614(13) 0.1387(3)
N1ZB N 0.5210(3) 0.0210(3) 0.2162(4)
N2ZB N 0.5000 -0.019(3) 0.2926(4)
N3ZB N 0.5349(10) 0.0614(13) 0.1387(3)
N1AC N 0.5210(3) -0.0210(3) -0.2162(4)
N2AC N 0.5000 0.019(3) -0.2926(4)
N3AC N 0.5349(10) -0.0614(13) -0.1387(3)
N1FC N 0.7162(4) -0.0210(3) 0.0210(3)
N2FC N 0.7926(4) 0.019(3) 0.0000
N3FC N 0.6387(3) -0.0614(13) 0.0349(10)
N1IC N 0.2838(4) -0.0210(3) -0.0210(3)
N2IC N 0.2074(4) 0.019(3) 0.0000
N3IC N 0.3613(3) -0.0614(13) -0.0349(10)
N2A N 0.481(3) -0.2926(4) 0.0000
N3RC N 0.5614(13) -0.1387(3) 0.0349(10)
N2C N 0.519(3) -0.2926(4) 0.0000
N3TC N 0.4386(13) -0.1387(3) -0.0349(10)
N3HD N 0.5614(13) 0.0349(10) 0.1387(3)
N3JD N 0.4386(13) -0.0349(10) 0.1387(3)
N3KD N 0.5614(13) -0.0349(10) -0.1387(3)
N3XE N 0.3613(3) -0.0349(10) -0.0614(13)
N3YE N 0.6387(3) -0.0349(10) 0.0614(13)
N1A N 0.5210(3) -0.2162(4) -0.0210(3)
N3HF N 0.5349(10) -0.1387(3) -0.0614(13)
N1C N 0.4790(3) -0.2162(4) 0.0210(3)
N3JF N 0.4651(10) -0.1387(3) 0.0614(13)
N3QF N 0.5349(10) -0.0614(13) 0.1387(3)
N3RF N 0.4651(10) -0.0614(13) -0.1387(3)
N3SF N 0.4651(10) 0.0614(13) 0.1387(3)
N3YF N 0.6387(3) -0.0614(13) -0.0349(10)
N3ZF N 0.3613(3) -0.0614(13) 0.0349(10)
N3A N 0.5614(13) -0.1387(3) -0.0349(10)
N3C N 0.4386(13) -0.1387(3) 0.0349(10)
K1_2 K 0.5000 -0.5000 0.0000
K1H K 0.5000 0.0000 -0.5000
K1H_2 K 0.5000 -0.0000 0.5000
K1BA K 0.0000 0.0000 0.0000
K1BA_2 K 1.0000 0.0000 0.0000
N2A_2 N 0.481(3) 0.7074(4) 0.0000
N2C_2 N 0.519(3) 0.7074(4) 0.0000
N2L N 0.2926(4) 0.519(3) 0.0000
N2M N 0.7074(4) 0.481(3) 0.0000
N2N N 0.2926(4) 0.481(3) 0.0000
N2O N 0.7074(4) 0.519(3) 0.0000
N2FA N 0.2926(4) 0.5000 0.019(3)
N2GA N 0.7074(4) 0.5000 -0.019(3)
N2HA N 0.2926(4) 0.5000 -0.019(3)
N2IA N 0.7074(4) 0.5000 0.019(3)
N2NA N 0.519(3) 0.5000 0.2074(4)
N2OA N 0.481(3) 0.5000 -0.2074(4)
N2PA N 0.481(3) 0.5000 0.2074(4)
N2QA N 0.519(3) 0.5000 -0.2074(4)
N2ZA N 0.5000 0.519(3) -0.2074(4)
N2AB N 0.5000 0.481(3) 0.2074(4)
N2BB N 0.5000 0.481(3) -0.2074(4)
N2CB N 0.5000 0.519(3) 0.2074(4)
N2QB_2 N 0.5000 0.7074(4) 0.019(3)
N2SB_2 N 0.5000 0.7074(4) -0.019(3)
N4 N 0.7500 0.2500 -0.2500
C1 C 0.693(5) 0.222(2) -0.340(5)
C1E C 0.660(5) 0.307(5) -0.222(2)
C1K C 0.778(2) 0.340(5) -0.307(5)
C1AA C 0.693(5) 0.278(2) -0.160(5)
C1BA C 0.660(5) 0.193(5) -0.278(2)
C1GA C 0.778(2) 0.160(5) -0.193(5)
C1XA C 0.807(5) 0.222(2) -0.160(5)
C1BB C 0.840(5) 0.307(5) -0.278(2)
C1FB C 0.722(2) 0.340(5) -0.193(5)
C1UB C 0.807(5) 0.278(2) -0.340(5)
C1AC C 0.840(5) 0.193(5) -0.222(2)
C1BC C 0.722(2) 0.160(5) -0.307(5)
C1DD C 0.778(2) 0.307(5) -0.340(5)
C1ID C 0.693(5) 0.340(5) -0.222(2)
C1OD C 0.660(5) 0.222(2) -0.307(5)
C1DE C 0.778(2) 0.193(5) -0.160(5)
C1HE C 0.693(5) 0.160(5) -0.278(2)
C1LE C 0.660(5) 0.278(2) -0.193(5)
C1CF C 0.722(2) 0.307(5) -0.160(5)
C1DF C 0.807(5) 0.340(5) -0.278(2)
C1IF C 0.840(5) 0.222(2) -0.193(5)
C1YF C 0.722(2) 0.193(5) -0.340(5)
C1EG C 0.807(5) 0.160(5) -0.222(2)
C1FG C 0.840(5) 0.278(2) -0.307(5)
loop_
_geom_bond_atom_site_label_1
_geom_bond_atom_site_label_2
_geom_bond_site_symmetry_1
_geom_bond_site_symmetry_2
K1 N2 1_555 1_555
N1 N2 1_555 1_555
N2 N1B 1_555 1_555
Fe1 N3 1_555 1_555
N3 N1 1_555 1_555
N4 C1 1_555 1_555
C1 C1BA 1_555 1_555
N1B N1 1_555 1_555
N2B K1 1_555 1_555
N3B N1 1_555 1_555
N1FB N2FB 1_555 1_555
N2FB N1HC 1_555 1_555
N3FB Fe1 1_555 1_555
N1GB N2GB 1_555 1_555
N2GB N1GC 1_555 1_555
N3GB Fe1 1_555 1_555
N1PB N1 1_555 1_555
N2PB K1 1_555 1_555
N3PB N1 1_555 1_555
N1RB N1 1_555 1_555
N2RB K1 1_555 1_555
N3RB N1 1_555 1_555
N1YB N2YB 1_555 1_555
N2YB N1R 1_555 1_555
N3YB Fe1 1_555 1_555
N1GC N1GB 1_555 1_555
N2GC N1GB 1_555 1_555
N3GC Fe1 1_555 1_555
N1HC N1FB 1_555 1_555
N2HC N1FB 1_555 1_555
N3HC Fe1 1_555 1_555
N3SC N1 1_555 1_555
N3UC N1 1_555 1_555
N2P N1YB 1_555 1_555
N3ID Fe1 1_555 1_555
N2EB N1GB 1_555 1_555
N3VE Fe1 1_555 1_555
N2DB N1FB 1_555 1_555
N3WE Fe1 1_555 1_555
N3IF N1 1_555 1_555
N3KF N1 1_555 1_555
N1R N1YB 1_555 1_555
N3PF Fe1 1_555 1_555
N3XF Fe1 1_555 1_555
N3AG Fe1 1_555 1_555
N1P N1YB 1_555 1_555
N3P Fe1 1_555 1_555
N1Q N2Q 1_555 1_555
N2Q N1S 1_555 1_555
N3Q Fe1 1_555 1_555
N2R N1YB 1_555 1_555
N3R Fe1 1_555 1_555
N1S N1Q 1_555 1_555
N2S N1Q 1_555 1_555
N3S Fe1 1_555 1_555
N1DB N1FB 1_555 1_555
N3DB Fe1 1_555 1_555
N1EB N1GB 1_555 1_555
N3EB Fe1 1_555 1_555
N1QB N2QB 1_555 1_555
N2QB N1SB 1_555 1_555
N3QB Fe1 1_555 1_555
N1SB N1QB 1_555 1_555
N2SB N1QB 1_555 1_555
N3SB Fe1 1_555 1_555
N1XB N1Q 1_555 1_555
N2XB N1Q 1_555 1_555
N3XB Fe1 1_555 1_555
N1ZB N1Q 1_555 1_555
N2ZB N1Q 1_555 1_555
N3ZB Fe1 1_555 1_555
N1AC N1YB 1_555 1_555
N2AC N1YB 1_555 1_555
N3AC Fe1 1_555 1_555
N1FC N1FB 1_555 1_555
N2FC N1FB 1_555 1_555
N3FC Fe1 1_555 1_555
N1IC N1GB 1_555 1_555
N2IC N1GB 1_555 1_555
N3IC Fe1 1_555 1_555
N2A N1QB 1_555 1_555
N3RC Fe1 1_555 1_555
N2C N1QB 1_555 1_555
N3TC Fe1 1_555 1_555
N3HD Fe1 1_555 1_555
N3JD Fe1 1_555 1_555
N3KD Fe1 1_555 1_555
N3XE Fe1 1_555 1_555
N3YE Fe1 1_555 1_555
N1A N1QB 1_555 1_555
N3HF Fe1 1_555 1_555
N1C N1QB 1_555 1_555
N3JF Fe1 1_555 1_555
N3QF Fe1 1_555 1_555
N3RF Fe1 1_555 1_555
N3SF Fe1 1_555 1_555
N3YF Fe1 1_555 1_555
N3ZF Fe1 1_555 1_555
N3A Fe1 1_555 1_555
N3C Fe1 1_555 1_555
K1_2 N2QB 1_555 1_555
K1H N2YB 1_555 1_555
K1H_2 N2Q 1_555 1_555
K1BA N2GB 1_555 1_555
K1BA_2 N2FB 1_555 1_555
N2A_2 K1 1_555 1_555
N2C_2 K1 1_555 1_555
N2L K1 1_555 1_555
N2M K1 1_555 1_555
N2N K1 1_555 1_555
N2O K1 1_555 1_555
N2FA K1 1_555 1_555
N2GA K1 1_555 1_555
N2HA K1 1_555 1_555
N2IA K1 1_555 1_555
N2NA K1 1_555 1_555
N2OA K1 1_555 1_555
N2PA K1 1_555 1_555
N2QA K1 1_555 1_555
N2ZA K1 1_555 1_555
N2AB K1 1_555 1_555
N2BB K1 1_555 1_555
N2CB K1 1_555 1_555
N2QB_2 K1 1_555 1_555
N2SB_2 K1 1_555 1_555
C1E N4 1_555 1_555
C1K N4 1_555 1_555
C1AA N4 1_555 1_555
C1BA N4 1_555 1_555
C1GA N4 1_555 1_555
C1XA N4 1_555 1_555
C1BB N4 1_555 1_555
C1FB N4 1_555 1_555
C1UB N4 1_555 1_555
C1AC N4 1_555 1_555
C1BC N4 1_555 1_555
C1DD N4 1_555 1_555
C1ID N4 1_555 1_555
C1OD N4 1_555 1_555
C1DE N4 1_555 1_555
C1HE N4 1_555 1_555
C1LE N4 1_555 1_555
C1CF N4 1_555 1_555
C1DF N4 1_555 1_555
C1IF N4 1_555 1_555
C1YF N4 1_555 1_555
C1EG N4 1_555 1_555
C1FG N4 1_555 1_555
N1 N2B 1_555 1_555
N1 N2PB 1_555 1_555
N1 N2RB 1_555 1_555
N2 N1PB 1_555 1_555
N2 N1RB 1_555 1_555
Fe1 N3B 1_555 1_555
Fe1 N3PB 1_555 1_555
Fe1 N3RB 1_555 1_555
Fe1 N3SC 1_555 1_555
Fe1 N3UC 1_555 1_555
Fe1 N3IF 1_555 1_555
Fe1 N3KF 1_555 1_555
N3 N1B 1_555 1_555
N3 N3GB 1_555 1_555
N3 N1PB 1_555 1_555
N3 N3PB 1_555 1_555
N3 N1RB 1_555 1_555
N3 N3RB 1_555 1_555
N3 N3YB 1_555 1_555
N3 N3GC 1_555 1_555
N3 N3SC 1_555 1_555
N3 N3UC 1_555 1_555
N3 N3XF 1_555 1_555
C1 C1UB 1_555 1_555
C1 C1BC 1_555 1_555
C1 C1DD 1_555 1_555
C1 C1OD 1_555 1_555
C1 C1HE 1_555 1_555
N1B N2B 1_555 1_555
N1B N3B 1_555 1_555
N1B N1PB 1_555 1_555
N1B N2PB 1_555 1_555
N1B N3PB 1_555 1_555
N1B N1RB 1_555 1_555
N1B N2RB 1_555 1_555
N1B N3RB 1_555 1_555
N1B N3SC 1_555 1_555
N1B N3UC 1_555 1_555
N1B N3IF 1_555 1_555
N1B N3KF 1_555 1_555
N2B N1PB 1_555 1_555
N2B N1RB 1_555 1_555
N3B N3FB 1_555 1_555
N3B N1PB 1_555 1_555
N3B N3PB 1_555 1_555
N3B N1RB 1_555 1_555
N3B N3RB 1_555 1_555
N3B N3HC 1_555 1_555
N3B N3SC 1_555 1_555
N3B N3UC 1_555 1_555
N3B N3AG 1_555 1_555
N3B N3ZB 1_555 1_555
N1FB N3FB 1_555 1_555
N1FB N3HC 1_555 1_555
N1FB N3WE 1_555 1_555
N1FB N3AG 1_555 1_555
N1FB N3DB 1_555 1_555
N1FB N3FC 1_555 1_555
N1FB N3YE 1_555 1_555
N1FB N3YF 1_555 1_555
N2FB N1DB 1_555 1_555
N2FB N1FC 1_555 1_555
N3FB N1HC 1_555 1_555
N3FB N3HC 1_555 1_555
N3FB N3WE 1_555 1_555
N3FB N3Q 1_555 1_555
N3FB N1DB 1_555 1_555
N3FB N3ZB 1_555 1_555
N3FB N1FC 1_555 1_555
N3FB N3FC 1_555 1_555
N3FB N3HD 1_555 1_555
N3FB N3YE 1_555 1_555
N1GB N3GB 1_555 1_555
N1GB N3GC 1_555 1_555
N1GB N3VE 1_555 1_555
N1GB N3XF 1_555 1_555
N1GB N3EB 1_555 1_555
N1GB N3IC 1_555 1_555
N1GB N3XE 1_555 1_555
N1GB N3ZF 1_555 1_555
N2GB N1EB 1_555 1_555
N2GB N1IC 1_555 1_555
N3GB N3YB 1_555 1_555
N3GB N1GC 1_555 1_555
N3GB N3GC 1_555 1_555
N3GB N3ID 1_555 1_555
N3GB N3VE 1_555 1_555
N3GB N3P 1_555 1_555
N3GB N1EB 1_555 1_555
N3GB N1IC 1_555 1_555
N3GB N3IC 1_555 1_555
N3GB N3XE 1_555 1_555
N1PB N2PB 1_555 1_555
N1PB N3PB 1_555 1_555
N1PB N1RB 1_555 1_555
N1PB N2RB 1_555 1_555
N1PB N3RB 1_555 1_555
N1PB N3SC 1_555 1_555
N1PB N3UC 1_555 1_555
N1PB N3IF 1_555 1_555
N1PB N3KF 1_555 1_555
N2PB N1RB 1_555 1_555
N3PB N1RB 1_555 1_555
N3PB N3GC 1_555 1_555
N3PB N3IF 1_555 1_555
N3PB N3KF 1_555 1_555
N3PB N3S 1_555 1_555
N3PB N3ZB 1_555 1_555
N3PB N3SF 1_555 1_555
N1RB N2RB 1_555 1_555
N1RB N3RB 1_555 1_555
N1RB N3SC 1_555 1_555
N1RB N3UC 1_555 1_555
N1RB N3IF 1_555 1_555
N1RB N3KF 1_555 1_555
N3RB N3YB 1_555 1_555
N3RB N3HC 1_555 1_555
N3RB N3IF 1_555 1_555
N3RB N3KF 1_555 1_555
N3RB N3PF 1_555 1_555
N3RB N3R 1_555 1_555
N1YB N3YB 1_555 1_555
N1YB N3ID 1_555 1_555
N1YB N3PF 1_555 1_555
N1YB N3P 1_555 1_555
N1YB N3R 1_555 1_555
N1YB N3AC 1_555 1_555
N1YB N3KD 1_555 1_555
N1YB N3RF 1_555 1_555
N2YB N1P 1_555 1_555
N2YB N1AC 1_555 1_555
N3YB N3KF 1_555 1_555
N3YB N1R 1_555 1_555
N3YB N3PF 1_555 1_555
N3YB N1P 1_555 1_555
N3YB N3P 1_555 1_555
N3YB N3R 1_555 1_555
N3YB N1AC 1_555 1_555
N3YB N3RF 1_555 1_555
N1GC N2GC 1_555 1_555
N1GC N3GC 1_555 1_555
N1GC N2EB 1_555 1_555
N1GC N3VE 1_555 1_555
N1GC N3XF 1_555 1_555
N1GC N1EB 1_555 1_555
N1GC N3EB 1_555 1_555
N1GC N1IC 1_555 1_555
N1GC N2IC 1_555 1_555
N1GC N3IC 1_555 1_555
N1GC N3XE 1_555 1_555
N1GC N3ZF 1_555 1_555
N2GC N1EB 1_555 1_555
N2GC N1IC 1_555 1_555
N2GC K1BA 1_555 1_555
N3GC N3SC 1_555 1_555
N3GC N3XF 1_555 1_555
N3GC N3S 1_555 1_555
N3GC N1EB 1_555 1_555
N3GC N3EB 1_555 1_555
N3GC N1IC 1_555 1_555
N3GC N3ZF 1_555 1_555
N1HC N2HC 1_555 1_555
N1HC N3HC 1_555 1_555
N1HC N2DB 1_555 1_555
N1HC N3WE 1_555 1_555
N1HC N3AG 1_555 1_555
N1HC N1DB 1_555 1_555
N1HC N3DB 1_555 1_555
N1HC N1FC 1_555 1_555
N1HC N2FC 1_555 1_555
N1HC N3FC 1_555 1_555
N1HC N3YE 1_555 1_555
N1HC N3YF 1_555 1_555
N2HC N1DB 1_555 1_555
N2HC N1FC 1_555 1_555
N2HC K1BA_2 1_555 1_555
N3HC N3UC 1_555 1_555
N3HC N3AG 1_555 1_555
N3HC N3R 1_555 1_555
N3HC N1DB 1_555 1_555
N3HC N3DB 1_555 1_555
N3HC N1FC 1_555 1_555
N3HC N3YF 1_555 1_555
N3SC N3VE 1_555 1_555
N3SC N3IF 1_555 1_555
N3SC N3KF 1_555 1_555
N3SC N3XF 1_555 1_555
N3SC N3SF 1_555 1_555
N3UC N3WE 1_555 1_555
N3UC N3IF 1_555 1_555
N3UC N3KF 1_555 1_555
N3UC N3PF 1_555 1_555
N3UC N3AG 1_555 1_555
N2P N1R 1_555 1_555
N2P N1P 1_555 1_555
N2P N1AC 1_555 1_555
N2P K1H 1_555 1_555
N3ID N3KF 1_555 1_555
N3ID N1R 1_555 1_555
N3ID N3PF 1_555 1_555
N3ID N3XF 1_555 1_555
N3ID N1P 1_555 1_555
N3ID N3P 1_555 1_555
N3ID N3R 1_555 1_555
N3ID N1AC 1_555 1_555
N3ID N3XE 1_555 1_555
N3ID N3RF 1_555 1_555
N2EB N1EB 1_555 1_555
N2EB N1IC 1_555 1_555
N2EB K1BA 1_555 1_555
N3VE N3XF 1_555 1_555
N3VE N3S 1_555 1_555
N3VE N1EB 1_555 1_555
N3VE N3EB 1_555 1_555
N3VE N1IC 1_555 1_555
N3VE N3JD 1_555 1_555
N3VE N3SF 1_555 1_555
N3VE N3ZF 1_555 1_555
N2DB N1DB 1_555 1_555
N2DB N1FC 1_555 1_555
N2DB K1BA_2 1_555 1_555
N3WE N3PF 1_555 1_555
N3WE N3AG 1_555 1_555
N3WE N3R 1_555 1_555
N3WE N1DB 1_555 1_555
N3WE N3DB 1_555 1_555
N3WE N1FC 1_555 1_555
N3WE N3KD 1_555 1_555
N3WE N3YF 1_555 1_555
N3IF N3AG 1_555 1_555
N3IF N3ZB 1_555 1_555
N3IF N3HD 1_555 1_555
N3IF N3SF 1_555 1_555
N3KF N3PF 1_555 1_555
N3KF N3XF 1_555 1_555
N1R N3PF 1_555 1_555
N1R N1P 1_555 1_555
N1R N3P 1_555 1_555
N1R N2R 1_555 1_555
N1R N3R 1_555 1_555
N1R N1AC 1_555 1_555
N1R N2AC 1_555 1_555
N1R N3AC 1_555 1_555
N1R N3KD 1_555 1_555
N1R N3RF 1_555 1_555
N3PF N1P 1_555 1_555
N3PF N1AC 1_555 1_555
N3PF N3AC 1_555 1_555
N3PF N3KD 1_555 1_555
N3XF N1EB 1_555 1_555
N3XF N1IC 1_555 1_555
N3XF N3IC 1_555 1_555
N3XF N3XE 1_555 1_555
N3AG N1DB 1_555 1_555
N3AG N1FC 1_555 1_555
N3AG N3FC 1_555 1_555
N3AG N3HD 1_555 1_555
N3AG N3YE 1_555 1_555
N1P N3P 1_555 1_555
N1P N2R 1_555 1_555
N1P N3R 1_555 1_555
N1P N1AC 1_555 1_555
N1P N2AC 1_555 1_555
N1P N3AC 1_555 1_555
N1P N3KD 1_555 1_555
N1P N3RF 1_555 1_555
N3P N3QB 1_555 1_555
N3P N1AC 1_555 1_555
N3P N3AC 1_555 1_555
N3P N3IC 1_555 1_555
N3P N3KD 1_555 1_555
N3P N3XE 1_555 1_555
N1Q N3Q 1_555 1_555
N1Q N3S 1_555 1_555
N1Q N3XB 1_555 1_555
N1Q N3ZB 1_555 1_555
N1Q N3HD 1_555 1_555
N1Q N3JD 1_555 1_555
N1Q N3QF 1_555 1_555
N1Q N3SF 1_555 1_555
N2Q N1XB 1_555 1_555
N2Q N1ZB 1_555 1_555
N3Q N1S 1_555 1_555
N3Q N3SB 1_555 1_555
N3Q N1XB 1_555 1_555
N3Q N3XB 1_555 1_555
N3Q N1ZB 1_555 1_555
N3Q N3ZB 1_555 1_555
N3Q N3FC 1_555 1_555
N3Q N3HD 1_555 1_555
N3Q N3JD 1_555 1_555
N3Q N3YE 1_555 1_555
N2R N1AC 1_555 1_555
N2R K1H 1_555 1_555
N3R N3DB 1_555 1_555
N3R N1AC 1_555 1_555
N3R N3AC 1_555 1_555
N3R N3KD 1_555 1_555
N1S N2S 1_555 1_555
N1S N3S 1_555 1_555
N1S N1XB 1_555 1_555
N1S N2XB 1_555 1_555
N1S N3XB 1_555 1_555
N1S N1ZB 1_555 1_555
N1S N2ZB 1_555 1_555
N1S N3ZB 1_555 1_555
N1S N3HD 1_555 1_555
N1S N3JD 1_555 1_555
N1S N3QF 1_555 1_555
N1S N3SF 1_555 1_555
N2S N1XB 1_555 1_555
N2S N1ZB 1_555 1_555
N2S K1H_2 1_555 1_555
N3S N3EB 1_555 1_555
N3S N1XB 1_555 1_555
N3S N3XB 1_555 1_555
N3S N1ZB 1_555 1_555
N3S N3ZB 1_555 1_555
N3S N3HD 1_555 1_555
N3S N3JD 1_555 1_555
N1DB N3DB 1_555 1_555
N1DB N1FC 1_555 1_555
N1DB N2FC 1_555 1_555
N1DB N3FC 1_555 1_555
N1DB N3YE 1_555 1_555
N1DB N3YF 1_555 1_555
N3DB N3AC 1_555 1_555
N3DB N1FC 1_555 1_555
N3DB N3FC 1_555 1_555
N3DB N3KD 1_555 1_555
N3DB N3YE 1_555 1_555
N3DB N3A 1_555 1_555
N1EB N3EB 1_555 1_555
N1EB N1IC 1_555 1_555
N1EB N2IC 1_555 1_555
N1EB N3IC 1_555 1_555
N1EB N3XE 1_555 1_555
N1EB N3ZF 1_555 1_555
N3EB N3XB 1_555 1_555
N3EB N1IC 1_555 1_555
N3EB N3IC 1_555 1_555
N3EB N3JD 1_555 1_555
N3EB N3XE 1_555 1_555
N3EB N3C 1_555 1_555
N1QB N3QB 1_555 1_555
N1QB N3SB 1_555 1_555
N1QB N3RC 1_555 1_555
N1QB N3TC 1_555 1_555
N1QB N3HF 1_555 1_555
N1QB N3JF 1_555 1_555
N1QB N3A 1_555 1_555
N1QB N3C 1_555 1_555
N2QB N1A 1_555 1_555
N2QB N1C 1_555 1_555
N3QB N1SB 1_555 1_555
N3QB N3AC 1_555 1_555
N3QB N3IC 1_555 1_555
N3QB N1A 1_555 1_555
N3QB N3HF 1_555 1_555
N3QB N1C 1_555 1_555
N3QB N3JF 1_555 1_555
N3QB N3RF 1_555 1_555
N3QB N3A 1_555 1_555
N3QB N3C 1_555 1_555
N1SB N2SB 1_555 1_555
N1SB N3SB 1_555 1_555
N1SB N2A 1_555 1_555
N1SB N3RC 1_555 1_555
N1SB N2C 1_555 1_555
N1SB N3TC 1_555 1_555
N1SB N1A 1_555 1_555
N1SB N3HF 1_555 1_555
N1SB N1C 1_555 1_555
N1SB N3JF 1_555 1_555
N1SB N3A 1_555 1_555
N1SB N3C 1_555 1_555
N2SB N1A 1_555 1_555
N2SB N1C 1_555 1_555
N2SB K1_2 1_555 1_555
N3SB N3XB 1_555 1_555
N3SB N3FC 1_555 1_555
N3SB N1A 1_555 1_555
N3SB N3HF 1_555 1_555
N3SB N1C 1_555 1_555
N3SB N3JF 1_555 1_555
N3SB N3QF 1_555 1_555
N3SB N3A 1_555 1_555
N3SB N3C 1_555 1_555
N1XB N2XB 1_555 1_555
N1XB N3XB 1_555 1_555
N1XB N1ZB 1_555 1_555
N1XB N2ZB 1_555 1_555
N1XB N3ZB 1_555 1_555
N1XB N3HD 1_555 1_555
N1XB N3JD 1_555 1_555
N1XB N3QF 1_555 1_555
N1XB N3SF 1_555 1_555
N2XB N1ZB 1_555 1_555
N2XB K1H_2 1_555 1_555
N3XB N1ZB 1_555 1_555
N3XB N3JF 1_555 1_555
N3XB N3QF 1_555 1_555
N3XB N3SF 1_555 1_555
N3XB N3C 1_555 1_555
N1ZB N2ZB 1_555 1_555
N1ZB N3ZB 1_555 1_555
N1ZB N3HD 1_555 1_555
N1ZB N3JD 1_555 1_555
N1ZB N3QF 1_555 1_555
N1ZB N3SF 1_555 1_555
N2ZB K1H_2 1_555 1_555
N3ZB N3QF 1_555 1_555
N3ZB N3SF 1_555 1_555
N1AC N2AC 1_555 1_555
N1AC N3AC 1_555 1_555
N1AC N3KD 1_555 1_555
N1AC N3RF 1_555 1_555
N2AC K1H 1_555 1_555
N3AC N3HF 1_555 1_555
N3AC N3RF 1_555 1_555
N3AC N3A 1_555 1_555
N1FC N2FC 1_555 1_555
N1FC N3FC 1_555 1_555
N1FC N3YE 1_555 1_555
N1FC N3YF 1_555 1_555
N2FC K1BA_2 1_555 1_555
N3FC N3RC 1_555 1_555
N3FC N3YF 1_555 1_555
N3FC N3A 1_555 1_555
N1IC N2IC 1_555 1_555
N1IC N3IC 1_555 1_555
N1IC N3XE 1_555 1_555
N1IC N3ZF 1_555 1_555
N2IC K1BA 1_555 1_555
N3IC N3TC 1_555 1_555
N3IC N3ZF 1_555 1_555
N3IC N3C 1_555 1_555
N2A N1A 1_555 1_555
N2A N1C 1_555 1_555
N2A K1_2 1_555 1_555
N3RC N3YE 1_555 1_555
N3RC N1A 1_555 1_555
N3RC N3HF 1_555 1_555
N3RC N1C 1_555 1_555
N3RC N3JF 1_555 1_555
N3RC N3QF 1_555 1_555
N3RC N3YF 1_555 1_555
N3RC N3A 1_555 1_555
N3RC N3C 1_555 1_555
N2C N1A 1_555 1_555
N2C N1C 1_555 1_555
N2C K1_2 1_555 1_555
N3TC N3XE 1_555 1_555
N3TC N1A 1_555 1_555
N3TC N3HF 1_555 1_555
N3TC N1C 1_555 1_555
N3TC N3JF 1_555 1_555
N3TC N3RF 1_555 1_555
N3TC N3ZF 1_555 1_555
N3TC N3A 1_555 1_555
N3TC N3C 1_555 1_555
N3HD N3YE 1_555 1_555
N3HD N3QF 1_555 1_555
N3HD N3SF 1_555 1_555
N3JD N3JF 1_555 1_555
N3JD N3QF 1_555 1_555
N3JD N3SF 1_555 1_555
N3JD N3ZF 1_555 1_555
N3KD N3HF 1_555 1_555
N3KD N3RF 1_555 1_555
N3KD N3YF 1_555 1_555
N3XE N3RF 1_555 1_555
N3XE N3ZF 1_555 1_555
N3YE N3QF 1_555 1_555
N3YE N3YF 1_555 1_555
N1A N3HF 1_555 1_555
N1A N1C 1_555 1_555
N1A N3JF 1_555 1_555
N1A N3A 1_555 1_555
N1A N3C 1_555 1_555
N3HF N1C 1_555 1_555
N3HF N3RF 1_555 1_555
N3HF N3YF 1_555 1_555
N1C N3JF 1_555 1_555
N1C N3A 1_555 1_555
N1C N3C 1_555 1_555
N3JF N3QF 1_555 1_555
N3JF N3ZF 1_555 1_555
N3YF N3A 1_555 1_555
N3ZF N3C 1_555 1_555
C1E C1AA 1_555 1_555
C1E C1BA 1_555 1_555
C1E C1FB 1_555 1_555
C1E C1ID 1_555 1_555
C1E C1OD 1_555 1_555
C1E C1CF 1_555 1_555
C1K C1BB 1_555 1_555
C1K C1FB 1_555 1_555
C1K C1UB 1_555 1_555
C1K C1DD 1_555 1_555
C1K C1ID 1_555 1_555
C1K C1FG 1_555 1_555
C1AA C1XA 1_555 1_555
C1AA C1FB 1_555 1_555
C1AA C1ID 1_555 1_555
C1AA C1DE 1_555 1_555
C1AA C1LE 1_555 1_555
C1BA C1BC 1_555 1_555
C1BA C1HE 1_555 1_555
C1BA C1LE 1_555 1_555
C1BA C1YF 1_555 1_555
C1GA C1XA 1_555 1_555
C1GA C1AC 1_555 1_555
C1GA C1BC 1_555 1_555
C1GA C1DE 1_555 1_555
C1GA C1HE 1_555 1_555
C1GA C1IF 1_555 1_555
C1XA C1AC 1_555 1_555
C1XA C1CF 1_555 1_555
C1XA C1IF 1_555 1_555
C1XA C1EG 1_555 1_555
C1BB C1UB 1_555 1_555
C1BB C1AC 1_555 1_555
C1BB C1DD 1_555 1_555
C1BB C1DF 1_555 1_555
C1BB C1IF 1_555 1_555
C1FB C1LE 1_555 1_555
C1FB C1CF 1_555 1_555
C1FB C1DF 1_555 1_555
C1UB C1DF 1_555 1_555
C1UB C1YF 1_555 1_555
C1UB C1FG 1_555 1_555
C1AC C1DE 1_555 1_555
C1AC C1EG 1_555 1_555
C1AC C1FG 1_555 1_555
C1BC C1OD 1_555 1_555
C1BC C1YF 1_555 1_555
C1BC C1EG 1_555 1_555
C1DD C1DF 1_555 1_555
C1DD C1YF 1_555 1_555
C1DD C1FG 1_555 1_555
C1ID C1LE 1_555 1_555
C1ID C1CF 1_555 1_555
C1ID C1DF 1_555 1_555
C1OD C1HE 1_555 1_555
C1OD C1LE 1_555 1_555
C1OD C1YF 1_555 1_555
C1DE C1CF 1_555 1_555
C1DE C1IF 1_555 1_555
C1DE C1EG 1_555 1_555
C1HE C1YF 1_555 1_555
C1HE C1EG 1_555 1_555
C1LE C1CF 1_555 1_555
C1DF C1FG 1_555 1_555
C1IF C1EG 1_555 1_555
C1IF C1FG 1_555 1_555

#END
