
#######################################################################
#
#                 Cambridge Crystallographic Data Centre
#                                CCDC 
#
#######################################################################
#
# If this CIF has been generated from an entry in the Cambridge 
# Structural Database, then it will include bibliographic, chemical, 
# crystal, experimental, refinement or atomic coordinate data resulting 
# from the CCDC's data processing and validation procedures.
#
#######################################################################

data_ROQFUA02
_chemical_formula_moiety         '(C4 H12 Fe1 K1 N19 1-)n'
_symmetry_cell_setting           cubic
_symmetry_space_group_name_H-M   'P a -3'
_symmetry_Int_Tables_number      205
_space_group_name_Hall           '-P 2ac 2ab 3'
loop_
_symmetry_equiv_pos_site_id
_symmetry_equiv_pos_as_xyz
1 x,y,z
2 1/2-x,-y,1/2+z
3 -x,1/2+y,1/2-z
4 1/2+x,1/2-y,-z
5 z,x,y
6 1/2+z,1/2-x,-y
7 1/2-z,-x,1/2+y
8 -z,1/2+x,1/2-y
9 y,z,x
10 -y,1/2+z,1/2-x
11 1/2+y,1/2-z,-x
12 1/2-y,-z,1/2+x
13 -x,-y,-z
14 1/2+x,y,1/2-z
15 x,1/2-y,1/2+z
16 1/2-x,1/2+y,z
17 -z,-x,-y
18 1/2-z,1/2+x,y
19 1/2+z,x,1/2-y
20 z,1/2-x,1/2+y
21 -y,-z,-x
22 y,1/2-z,1/2+x
23 1/2-y,1/2+z,x
24 1/2+y,z,1/2-x
_cell_length_a                   13.1676(5)
_cell_length_b                   13.1676(5)
_cell_length_c                   13.1676(5)
_cell_angle_alpha                90
_cell_angle_beta                 90
_cell_angle_gamma                90
_cell_volume                     2283.07
loop_
_atom_site_label
_atom_site_type_symbol
_atom_site_fract_x
_atom_site_fract_y
_atom_site_fract_z
Fe1 Fe 0.5000 0.0000 1.0000
K1 K 1.0000 0.0000 1.0000
N1 N 0.63696(11) -0.06483(11) 0.95472(12)
N2 N 0.71536(12) -0.02008(12) 0.96006(13)
N3 N 0.79265(14) 0.02143(16) 0.96375(18)
N1D N 0.95472(12) -0.36304(11) 0.93517(11)
N2D N 0.96006(13) -0.28464(12) 0.97992(12)
N3D N 0.96375(18) -0.20735(14) 1.02143(16)
N1H N 0.93517(11) -0.04528(12) 0.63696(11)
N2H N 0.97992(12) -0.03994(13) 0.71536(12)
N3H N 1.02143(16) -0.03625(18) 0.79265(14)
N1L N 0.36304(11) 0.06483(11) 1.04528(12)
N2L N 0.28464(12) 0.02008(12) 1.03994(13)
N3L N 0.20735(14) -0.02143(16) 1.03625(18)
N1Q N 0.54528(12) 0.13696(11) 0.93517(11)
N2Q N 0.53994(13) 0.21536(12) 0.97992(12)
N3Q N 0.53625(18) 0.29265(14) 1.02143(16)
N1W N 0.43517(11) -0.04528(12) 0.86304(11)
N2W N 0.47992(12) -0.03994(13) 0.78464(12)
N3W N 0.52143(16) -0.03625(18) 0.70735(14)
Fe1A Fe 1.0000 0.0000 0.5000
Fe1C Fe 1.0000 -0.5000 1.0000
K1_2 K 0.0000 0.0000 1.0000
K1A K 0.5000 0.0000 0.5000
K1C K 0.5000 0.5000 1.0000
N1E N 0.45472(12) -0.13696(11) 1.06483(11)
N1K N 0.56483(11) 0.04528(12) 1.13696(11)
N3L_2 N 1.20735(14) -0.02143(16) 1.03625(18)
N3P N 1.03625(18) 0.20735(14) 0.97857(16)
N3T N 0.97857(16) 0.03625(18) 1.20735(14)
N4 N 0.27540(13) 0.22460(13) 0.77540(13)
C1 C 0.21022(16) 0.28978(16) 0.71022(16)
H1 H 0.2036 0.2591 0.6436
C2 C 0.29208(19) 0.27672(19) 0.87483(18)
H2 H 0.3346 0.2346 0.9178
H3 H 0.2272 0.2879 0.9079
H4 H 0.3253 0.3415 0.8634
H1K H 0.2409 0.3564 0.7036
H1E H 0.1436 0.2964 0.7409
C2E C 0.37483(18) 0.20792(19) 0.72328(19)
H2E H 0.4178 0.1654 0.7654
H3E H 0.4079 0.2728 0.7121
H4E H 0.3634 0.1747 0.6585
C2K C 0.22328(19) 0.12517(18) 0.79208(19)
H2K H 0.2654 0.0822 0.8346
H3K H 0.2121 0.0921 0.7272
H4K H 0.1585 0.1366 0.8253
loop_
_geom_bond_atom_site_label_1
_geom_bond_atom_site_label_2
_geom_bond_site_symmetry_1
_geom_bond_site_symmetry_2
Fe1 N1 1_555 1_555
K1 N3 1_555 1_555
N1 N2 1_555 1_555
N2 N3 1_555 1_555
N4 C1 1_555 1_555
C1 H1 1_555 1_555
C2 N4 1_555 1_555
H2 C2 1_555 1_555
H3 C2 1_555 1_555
H4 C2 1_555 1_555
N1D N2D 1_555 1_555
N2D N3D 1_555 1_555
N3D K1 1_555 1_555
N1H N2H 1_555 1_555
N2H N3H 1_555 1_555
N3H K1 1_555 1_555
N1L Fe1 1_555 1_555
N2L N1L 1_555 1_555
N3L N2L 1_555 1_555
N1Q Fe1 1_555 1_555
N2Q N1Q 1_555 1_555
N3Q N2Q 1_555 1_555
N1W Fe1 1_555 1_555
N2W N1W 1_555 1_555
N3W N2W 1_555 1_555
Fe1A N1H 1_555 1_555
Fe1C N1D 1_555 1_555
K1_2 N3L 1_555 1_555
K1A N3W 1_555 1_555
K1C N3Q 1_555 1_555
N1E Fe1 1_555 1_555
N1K Fe1 1_555 1_555
N3L_2 K1 1_555 1_555
N3P K1 1_555 1_555
N3T K1 1_555 1_555
H1K C1 1_555 1_555
H1E C1 1_555 1_555
C2E N4 1_555 1_555
H2E C2E 1_555 1_555
H3E C2E 1_555 1_555
H4E C2E 1_555 1_555
C2K N4 1_555 1_555
H2K C2K 1_555 1_555
H3K C2K 1_555 1_555
H4K C2K 1_555 1_555

#END
