
#######################################################################
#
#                 Cambridge Crystallographic Data Centre
#                                CCDC 
#
#######################################################################
#
# If this CIF has been generated from an entry in the Cambridge 
# Structural Database, then it will include bibliographic, chemical, 
# crystal, experimental, refinement or atomic coordinate data resulting 
# from the CCDC's data processing and validation procedures.
#
#######################################################################

data_OBATUJ
_chemical_formula_moiety         'C8 H4 Co3 N6'
_symmetry_cell_setting           cubic
_symmetry_space_group_name_H-M   'I -4 3 m'
_symmetry_Int_Tables_number      217
_space_group_name_Hall           'I -4 2 3'
loop_
_symmetry_equiv_pos_site_id
_symmetry_equiv_pos_as_xyz
1 x,y,z
2 -x,-y,z
3 -x,y,-z
4 x,-y,-z
5 z,x,y
6 z,-x,-y
7 -z,-x,y
8 -z,x,-y
9 y,z,x
10 -y,z,-x
11 y,-z,-x
12 -y,-z,x
13 y,x,z
14 -y,-x,z
15 y,-x,-z
16 -y,x,-z
17 x,z,y
18 -x,z,-y
19 -x,-z,y
20 x,-z,-y
21 z,y,x
22 z,-y,-x
23 -z,y,-x
24 -z,-y,x
25 1/2+x,1/2+y,1/2+z
26 1/2-x,1/2-y,1/2+z
27 1/2-x,1/2+y,1/2-z
28 1/2+x,1/2-y,1/2-z
29 1/2+z,1/2+x,1/2+y
30 1/2+z,1/2-x,1/2-y
31 1/2-z,1/2-x,1/2+y
32 1/2-z,1/2+x,1/2-y
33 1/2+y,1/2+z,1/2+x
34 1/2-y,1/2+z,1/2-x
35 1/2+y,1/2-z,1/2-x
36 1/2-y,1/2-z,1/2+x
37 1/2+y,1/2+x,1/2+z
38 1/2-y,1/2-x,1/2+z
39 1/2+y,1/2-x,1/2-z
40 1/2-y,1/2+x,1/2-z
41 1/2+x,1/2+z,1/2+y
42 1/2-x,1/2+z,1/2-y
43 1/2-x,1/2-z,1/2+y
44 1/2+x,1/2-z,1/2-y
45 1/2+z,1/2+y,1/2+x
46 1/2+z,1/2-y,1/2-x
47 1/2-z,1/2+y,1/2-x
48 1/2-z,1/2-y,1/2+x
_cell_length_a                   17.0993(14)
_cell_length_b                   17.0993(14)
_cell_length_c                   17.0993(14)
_cell_angle_alpha                90
_cell_angle_beta                 90
_cell_angle_gamma                90
_cell_volume                     4999.6
loop_
_atom_site_label
_atom_site_type_symbol
_atom_site_fract_x
_atom_site_fract_y
_atom_site_fract_z
_atom_site_U_iso_or_equiv
_atom_site_thermal_displace_type
N1 N 0.47119(16) 0.09093(17) 0.81677(16) 0.0508 Uani
Co1 Co 0.5000 0.0000 0.7500 0.0497 Uiso
C1 C 0.5087(4) 0.12166(16) 0.87834(16) 0.0449 Uani
C2 C 0.4046(2) 0.1347(3) 0.8092(3) 0.0693 Uani
C3 C 0.5846(3) 0.0910(3) 0.9090(3) 0.0710 Uani
H1 H 0.3658 0.1272 0.7719 0.0830 Uiso
N1S N 0.47119(16) 0.18323(16) 0.90907(17) 0.0508 Uani
C2S C 0.4046(2) 0.1908(3) 0.8653(3) 0.0693 Uani
H1S H 0.3658 0.2281 0.8728 0.0830 Uiso
N1A N 0.52881(16) -0.09093(17) 0.81677(16) 0.0508 Uani
C1A C 0.4913(4) -0.12166(16) 0.87834(16) 0.0449 Uani
C2A C 0.5954(2) -0.1347(3) 0.8092(3) 0.0693 Uani
C3A C 0.4154(3) -0.0910(3) 0.9090(3) 0.0710 Uani
H1A H 0.6342 -0.1272 0.7719 0.0830 Uiso
N1Q N 0.52881(16) -0.18323(16) 0.90907(17) 0.0508 Uani
C2Q C 0.5954(2) -0.1908(3) 0.8653(3) 0.0693 Uani
H1Q H 0.6342 -0.2281 0.8728 0.0830 Uiso
N1LA N 0.59093(17) 0.02881(16) 0.68323(16) 0.0508 Uani
N1MA N 0.40907(17) -0.02881(16) 0.68323(16) 0.0508 Uani
Co1P Co 0.5000 -0.2500 1.0000 0.0497 Uiso
Co1R Co 0.5000 0.2500 1.0000 0.0497 Uiso
loop_
_atom_site_aniso_label
_atom_site_aniso_U_11
_atom_site_aniso_U_22
_atom_site_aniso_U_33
_atom_site_aniso_U_23
_atom_site_aniso_U_13
_atom_site_aniso_U_12
N1 0.0520(15) 0.0532(15) 0.0473(14) -0.0050(12) -0.0025(10) 0.0049(11)
C1 0.042(3) 0.0463(12) 0.0463(12) -0.0020(15) 0.0028(15) -0.0028(15)
C2 0.063(2) 0.077(3) 0.068(2) -0.0190(19) -0.0239(19) 0.0210(19)
C3 0.063(3) 0.075(2) 0.075(2) -0.024(3) -0.022(2) 0.022(2)
N1S 0.052 0.0473 0.0532 -0.005 -0.0049 0.0025
C2S 0.063 0.068 0.077 -0.019 -0.021 0.0239
N1A 0.052 0.0532 0.0473 0.005 0.0025 0.0049
C1A 0.042 0.0463 0.0463 0.002 -0.0028 -0.0028
C2A 0.063 0.077 0.068 0.019 0.0239 0.021
C3A 0.063 0.075 0.075 0.024 0.022 0.022
N1Q 0.052 0.0473 0.0532 0.005 0.0049 0.0025
C2Q 0.063 0.068 0.077 0.019 0.021 0.0239
N1LA 0.0532 0.052 0.0473 -0.0025 0.005 -0.0049
N1MA 0.0532 0.052 0.0473 0.0025 -0.005 -0.0049
loop_
_geom_bond_atom_site_label_1
_geom_bond_atom_site_label_2
_geom_bond_site_symmetry_1
_geom_bond_site_symmetry_2
N1 Co1 1_555 1_555
Co1 N1A 1_555 1_555
C1 N1 1_555 1_555
C2 N1 1_555 1_555
C3 C1 1_555 1_555
H1 C2 1_555 1_555
N1S C1 1_555 1_555
C2S C2 1_555 1_555
H1S C2S 1_555 1_555
N1A C1A 1_555 1_555
C1A C3A 1_555 1_555
C2A N1A 1_555 1_555
H1A C2A 1_555 1_555
N1Q C1A 1_555 1_555
C2Q C2A 1_555 1_555
H1Q C2Q 1_555 1_555
N1LA Co1 1_555 1_555
N1MA Co1 1_555 1_555
Co1P N1Q 1_555 1_555
Co1R N1S 1_555 1_555
N1S C2S 1_555 1_555
N1Q C2Q 1_555 1_555

#END
