
#######################################################################
#
#                 Cambridge Crystallographic Data Centre
#                                CCDC 
#
#######################################################################
#
# If this CIF has been generated from an entry in the Cambridge 
# Structural Database, then it will include bibliographic, chemical, 
# crystal, experimental, refinement or atomic coordinate data resulting 
# from the CCDC's data processing and validation procedures.
#
#######################################################################

data_NIJZOV
_chemical_formula_moiety         '(C24 H36 Cu3 Er2 O36)n'
_symmetry_cell_setting           hexagonal
_symmetry_space_group_name_H-M   'P 6/m c c'
_symmetry_Int_Tables_number      192
_space_group_name_Hall           '-P 6 2c'
loop_
_symmetry_equiv_pos_site_id
_symmetry_equiv_pos_as_xyz
1 x,y,z
2 x-y,x,z
3 -y,-x,1/2-z
4 -y,x-y,z
5 x-y,-y,1/2-z
6 -x,-y,z
7 x,x-y,1/2-z
8 -x+y,-x,z
9 y,x,1/2-z
10 y,-x+y,z
11 -x+y,y,1/2-z
12 -x,-x+y,1/2-z
13 -x,-y,-z
14 -x+y,-x,-z
15 y,x,1/2+z
16 y,-x+y,-z
17 -x+y,y,1/2+z
18 x,y,-z
19 -x,-x+y,1/2+z
20 x-y,x,-z
21 -y,-x,1/2+z
22 -y,x-y,-z
23 x-y,-y,1/2+z
24 x,x-y,1/2+z
_cell_length_a                   14.516(4)
_cell_length_b                   14.516(4)
_cell_length_c                   15.279(7)
_cell_angle_alpha                90
_cell_angle_beta                 90
_cell_angle_gamma                120
_cell_volume                     2788.17
loop_
_atom_site_label
_atom_site_type_symbol
_atom_site_fract_x
_atom_site_fract_y
_atom_site_fract_z
O1 O 0.2374(3) -0.237 0.2500
O2 O 0.3875(3) -0.1969(4) 0.3553(4)
O3 O 0.3891(4) -0.0540(4) 0.4114(4)
O4 O 0.5160(6) -0.1623(7) 0.5000
C1 C 0.2629(7) -0.1484(6) 0.3057(7)
Er1 Er 0.333 -0.333 0.2500
Cu1 Cu 0.5000 0.0000 0.5000
C2 C 0.3541(6) -0.1322(6) 0.3619(6)
O3E O 0.6109(4) 0.0540(4) 0.4114(4)
C1B C 0.1484(6) -0.2629(7) 0.1943(7)
C2B C 0.1322(6) -0.3541(6) 0.1381(6)
O2B O 0.1969(4) -0.3875(3) 0.1447(4)
O3B O 0.0540(4) -0.3891(4) 0.0886(4)
O4E O 0.4840(6) 0.1623(7) 0.5000
O3Q O 0.3891(4) -0.0540(4) 0.5886(4)
O3L O 0.6109(4) 0.0540(4) 0.5886(4)
Cu1B Cu 0.0000 -0.5000 0.0000
O1G O 0.5256(3) -0.2374(3) 0.2500
O1C O 0.237 -0.5256(3) 0.2500
O2G O 0.4156(5) -0.3875(3) 0.3553(4)
O2J O 0.4156(5) -0.1969(4) 0.1447(4)
O2C O 0.1969(4) -0.4156(5) 0.3553(4)
O2F O 0.3875(3) -0.4156(5) 0.1447(4)
C2L C 0.6459(6) 0.1322(6) 0.6381(6)
O2L O 0.6125(3) 0.1969(4) 0.6447(4)
C1L C 0.7371(7) 0.1484(6) 0.6943(7)
Er1L Er 0.667 0.333 0.7500
O1L O 0.7626(3) 0.237 0.7500
C1N C 0.8516(6) 0.2629(7) 0.8057(7)
C2N C 0.8678(6) 0.3541(6) 0.8619(6)
O2N O 0.8031(4) 0.3875(3) 0.8553(4)
O3N O 0.9460(4) 0.3891(4) 0.9114(4)
Cu1B_2 Cu 1.0000 0.5000 1.0000
O1S O 0.4744(3) 0.2374(3) 0.7500
O1O O 0.763 0.5256(3) 0.7500
O2S O 0.5844(5) 0.3875(3) 0.6447(4)
O2V O 0.5844(5) 0.1969(4) 0.8553(4)
O2O O 0.8031(4) 0.4156(5) 0.6447(4)
O2R O 0.6125(3) 0.4156(5) 0.8553(4)
C2S C 0.4863(8) 0.3541(6) 0.6381(6)
C1O C 0.8516(6) 0.5887(9) 0.6943(7)
C1R C 0.7371(7) 0.5887(9) 0.8057(7)
C2O C 0.8678(6) 0.5137(8) 0.6381(6)
C1S C 0.4113(9) 0.2629(7) 0.6943(7)
C1V C 0.4113(9) 0.1484(6) 0.8057(7)
C2V C 0.4863(8) 0.1322(6) 0.8619(6)
O3S O 0.4431(6) 0.3891(4) 0.5886(4)
C2R C 0.6459(6) 0.5137(8) 0.8619(6)
O3O O 0.9460(4) 0.5569(6) 0.5886(4)
O3V O 0.4431(6) 0.0540(4) 0.9114(4)
Cu1A Cu 0.5000 0.5000 0.5000
O3R O 0.6109(4) 0.5569(6) 0.9114(4)
Cu1C Cu 1.0000 0.5000 0.5000
Cu1D Cu 0.5000 0.0000 1.0000
Cu1F Cu 0.5000 0.5000 1.0000
C2G C 0.5137(8) -0.3541(6) 0.3619(6)
C1C C 0.1484(6) -0.5887(9) 0.3057(7)
C1F C 0.2629(7) -0.5887(9) 0.1943(7)
C2F C 0.3541(6) -0.5137(8) 0.1381(6)
C2C C 0.1322(6) -0.5137(8) 0.3619(6)
C2J C 0.5137(8) -0.1322(6) 0.1381(6)
O3G O 0.5569(6) -0.3891(4) 0.4114(4)
C1G C 0.5887(9) -0.2629(7) 0.3057(7)
O3F O 0.3891(4) -0.5569(6) 0.0886(4)
O3C O 0.0540(4) -0.5569(6) 0.4114(4)
O3J O 0.5569(6) -0.0540(4) 0.0886(4)
C1J C 0.5887(9) -0.1484(6) 0.1943(7)
Cu1A_2 Cu 0.5000 -0.5000 0.5000
Cu1F_2 Cu 0.5000 -0.5000 0.0000
Cu1C_2 Cu 0.0000 -0.5000 0.5000
Cu1D_2 Cu 0.5000 0.0000 0.0000
O3G_2 O 0.5569(6) 0.6109(4) 0.4114(4)
O3A O 0.4431(6) 0.3891(4) 0.4114(4)
O3M O 0.5569(6) 0.6109(4) 0.5886(4)
O4A O 0.6783(9) 0.5160(6) 0.5000
O4G O 0.3217(9) 0.4840(6) 0.5000
O3D O 0.4431(6) 0.0540(4) 0.0886(4)
O3V_2 O 0.4431(6) 0.0540(4) -0.0886(4)
O3P O 0.5569(6) -0.0540(4) -0.0886(4)
O4D O 0.6783(9) 0.1623(7) 0.0000
O4J O 0.3217(9) -0.1623(7) 0.0000
loop_
_geom_bond_atom_site_label_1
_geom_bond_atom_site_label_2
_geom_bond_site_symmetry_1
_geom_bond_site_symmetry_2
O1 C1 1_555 1_555
O2 Er1 1_555 1_555
O3 Cu1 1_555 1_555
O4 Cu1 1_555 1_555
C1 C2 1_555 1_555
Er1 O1 1_555 1_555
Cu1 O3E 1_555 1_555
C2 O2 1_555 1_555
C1B O1 1_555 1_555
C2B C1B 1_555 1_555
O2B Er1 1_555 1_555
O3B C2B 1_555 1_555
O4E Cu1 1_555 1_555
O3Q Cu1 1_555 1_555
O3L Cu1 1_555 1_555
Cu1B O3B 1_555 1_555
O1G Er1 1_555 1_555
O1C Er1 1_555 1_555
O2G Er1 1_555 1_555
O2J Er1 1_555 1_555
O2C Er1 1_555 1_555
O2F Er1 1_555 1_555
C2L O3L 1_555 1_555
O2L C2L 1_555 1_555
C1L C2L 1_555 1_555
Er1L O2L 1_555 1_555
O1L C1L 1_555 1_555
C1N O1L 1_555 1_555
C2N C1N 1_555 1_555
O2N Er1L 1_555 1_555
O3N C2N 1_555 1_555
Cu1B_2 O3N 1_555 1_555
O1S Er1L 1_555 1_555
O1O Er1L 1_555 1_555
O2S Er1L 1_555 1_555
O2V Er1L 1_555 1_555
O2O Er1L 1_555 1_555
O2R Er1L 1_555 1_555
C2S O2S 1_555 1_555
C1O O1O 1_555 1_555
C1R O1O 1_555 1_555
C2O O2O 1_555 1_555
C1S O1S 1_555 1_555
C1V O1S 1_555 1_555
C2V O2V 1_555 1_555
O3S C2S 1_555 1_555
C2R O2R 1_555 1_555
O3O C2O 1_555 1_555
O3V C2V 1_555 1_555
Cu1A O3S 1_555 1_555
O3R C2R 1_555 1_555
Cu1C O3O 1_555 1_555
Cu1D O3V 1_555 1_555
Cu1F O3R 1_555 1_555
C2G O2G 1_555 1_555
C1C O1C 1_555 1_555
C1F O1C 1_555 1_555
C2F O2F 1_555 1_555
C2C O2C 1_555 1_555
C2J O2J 1_555 1_555
O3G C2G 1_555 1_555
C1G O1G 1_555 1_555
O3F C2F 1_555 1_555
O3C C2C 1_555 1_555
O3J C2J 1_555 1_555
C1J O1G 1_555 1_555
Cu1A_2 O3G 1_555 1_555
Cu1F_2 O3F 1_555 1_555
Cu1C_2 O3C 1_555 1_555
Cu1D_2 O3J 1_555 1_555
O3G_2 Cu1A 1_555 1_555
O3A Cu1A 1_555 1_555
O3M Cu1A 1_555 1_555
O4A Cu1A 1_555 1_555
O4G Cu1A 1_555 1_555
O3D Cu1D_2 1_555 1_555
O3V_2 Cu1D_2 1_555 1_555
O3P Cu1D_2 1_555 1_555
O4D Cu1D_2 1_555 1_555
O4J Cu1D_2 1_555 1_555
O3 C2 1_555 1_555
C2B O2B 1_555 1_555
Er1L O1L 1_555 1_555
C2N O2N 1_555 1_555
C2S C1S 1_555 1_555
C1O C2O 1_555 1_555
C1R C2R 1_555 1_555
C1V C2V 1_555 1_555
C2G C1G 1_555 1_555
C1C C2C 1_555 1_555
C1F C2F 1_555 1_555
C2J C1J 1_555 1_555

#END
