
#######################################################################
#
#                 Cambridge Crystallographic Data Centre
#                                CCDC 
#
#######################################################################
#
# If this CIF has been generated from an entry in the Cambridge 
# Structural Database, then it will include bibliographic, chemical, 
# crystal, experimental, refinement or atomic coordinate data resulting 
# from the CCDC's data processing and validation procedures.
#
#######################################################################

data_VUQJUN
_chemical_formula_moiety         '(C136 H120 Mn8 N8 O40)n'
_symmetry_cell_setting           triclinic
_symmetry_space_group_name_H-M   'P -1'
_symmetry_Int_Tables_number      2
_space_group_name_Hall           '-P 1'
loop_
_symmetry_equiv_pos_site_id
_symmetry_equiv_pos_as_xyz
1 x,y,z
2 -x,-y,-z
_cell_length_a                   13.819(3)
_cell_length_b                   15.382(3)
_cell_length_c                   24.383(5)
_cell_angle_alpha                100.41(3)
_cell_angle_beta                 95.25(3)
_cell_angle_gamma                101.09(3)
_cell_volume                     4959.46
loop_
_atom_site_label
_atom_site_type_symbol
_atom_site_fract_x
_atom_site_fract_y
_atom_site_fract_z
C1 C 0.2156(15) 0.2739(19) 0.9703(7)
Mn1 Mn -0.17461(5) -0.64356(4) 0.67661(3)
Mn2 Mn -0.36787(5) -0.55613(4) 0.72616(3)
Mn3 Mn -0.60876(5) -0.65409(4) 0.67524(3)
Mn4 Mn 0.18142(5) 0.30163(5) 0.73737(4)
C2 C -0.1496(4) -0.3668(3) 0.6769(2)
C3 C -0.2252(5) -0.3217(4) 0.6835(4)
H1 H -0.2880 -0.3530 0.6874
C4 C -0.2088(5) -0.2291(5) 0.6846(4)
H2 H -0.2612 -0.1996 0.6894
C5 C -0.1184(4) -0.1805(4) 0.6788(3)
C6 C -0.0426(5) -0.2265(4) 0.6706(4)
H3 H 0.0194 -0.1960 0.6649
C7 C -0.0590(5) -0.3184(4) 0.6710(4)
H4 H -0.0064 -0.3478 0.6670
C8 C -0.1014(4) -0.0814(4) 0.6799(3)
C9 C -0.1759(5) -0.0416(4) 0.6631(4)
H5 H -0.2391 -0.0771 0.6500
C10 C -0.1592(5) 0.0504(4) 0.6652(4)
H6 H -0.2115 0.0750 0.6527
C11 C -0.0686(4) 0.1066(3) 0.6850(2)
C12 C 0.0044(5) 0.0674(5) 0.7018(5)
H7 H 0.0672 0.1031 0.7156
C13 C -0.0115(5) -0.0252(4) 0.6992(5)
H8 H 0.0413 -0.0497 0.7111
C14 C -0.1668(4) -0.4662(3) 0.6771(2)
C15 C -0.0530(4) 0.2073(3) 0.6875(2)
C16 C -0.1306(4) -0.5485(5) 0.8616(2)
C17 C -0.1636(6) -0.4973(7) 0.9056(3)
H9 H -0.2207 -0.4751 0.8991
C18 C -0.1123(6) -0.4785(8) 0.9594(3)
H10 H -0.1358 -0.4440 0.9886
C19 C -0.0272(5) -0.5100(6) 0.9705(2)
C20 C 0.0063(7) -0.5573(7) 0.9252(3)
H11 H 0.0659 -0.5760 0.9307
C21 C -0.0448(6) -0.5774(7) 0.8729(3)
H12 H -0.0209 -0.6117 0.8438
C22 C -0.1863(4) -0.5688(4) 0.8033(2)
C23 C -0.4347(3) -0.7930(3) 0.60086(19)
C24 C -0.5134(4) -0.8079(3) 0.5592(2)
H13 H -0.5505 -0.7638 0.5574
C25 C -0.5376(4) -0.8882(4) 0.5199(2)
H14 H -0.5903 -0.8966 0.4915
C26 C -0.4863(3) -0.9562(3) 0.5215(2)
C27 C -0.4070(5) -0.9403(4) 0.5635(3)
H15 H -0.3703 -0.9846 0.5655
C28 C -0.3813(4) -0.8599(4) 0.6024(3)
H16 H -0.3272 -0.8506 0.6301
C29 C -0.4083(3) -0.7086(3) 0.64472(18)
C30 C -0.5451(4) -0.5846(4) 0.8523(2)
C31 C -0.6211(5) -0.5735(6) 0.8826(2)
H17 H -0.6861 -0.5883 0.8646
C32 C -0.6030(5) -0.5403(7) 0.9404(3)
H18 H -0.6563 -0.5326 0.9601
C33 C -0.5096(4) -0.5187(6) 0.9689(2)
C34 C -0.4349(5) -0.5323(9) 0.9374(3)
H19 H -0.3703 -0.5211 0.9556
C35 C -0.4508(5) -0.5611(8) 0.8810(3)
H20 H -0.3968 -0.5652 0.8613
C36 C -0.5637(3) -0.6187(3) 0.78992(19)
C37 C -0.5485(4) -0.3542(4) 0.7112(3)
C38 C -0.6460(4) -0.3534(4) 0.6952(3)
H21 H -0.6935 -0.4073 0.6865
C39 C -0.6739(5) -0.2724(4) 0.6919(3)
H22 H -0.7402 -0.2726 0.6808
C40 C -0.6051(5) -0.1915(4) 0.7048(4)
C41 C -0.5064(5) -0.1929(5) 0.7255(5)
H23 H -0.4598 -0.1387 0.7374
C42 C -0.4789(5) -0.2725(4) 0.7282(5)
H24 H -0.4135 -0.2725 0.7413
C43 C -0.6333(5) -0.1040(4) 0.6996(4)
C44 C -0.7132(5) -0.0775(4) 0.7225(4)
H25 H -0.7536 -0.1166 0.7400
C45 C -0.7346(5) 0.0058(4) 0.7200(4)
H26 H -0.7878 0.0228 0.7367
C46 C -0.6771(4) 0.0640(4) 0.6927(3)
C47 C -0.5984(5) 0.0368(4) 0.6697(4)
H27 H -0.5594 0.0746 0.6507
C48 C -0.5757(6) -0.0446(5) 0.6740(4)
H28 H -0.5200 -0.0599 0.6593
C49 C -0.5173(4) -0.4438(4) 0.7107(3)
C50 C -0.6945(4) 0.1572(3) 0.6914(2)
C51 C -0.8389(4) -0.5971(5) 0.5804(2)
C52 C -0.8212(8) -0.5838(11) 0.5290(4)
H29 H -0.7669 -0.6018 0.5141
C53 C -0.8824(9) -0.5433(11) 0.4973(4)
H30 H -0.8657 -0.5309 0.4630
C54 C -0.9670(4) -0.5219(6) 0.5165(3)
C55 C -0.9838(5) -0.5370(6) 0.5680(3)
H31 H -1.0398 -0.5221 0.5824
C56 C -0.9211(5) -0.5737(6) 0.6000(3)
H32 H -0.9353 -0.5825 0.6354
C57 C -0.7690(4) -0.6358(4) 0.6153(2)
C58 C -0.1942(9) -0.7256(8) 0.5493(3)
H33 H -0.1554 -0.7654 0.5584
C59 C -0.3076(15) -0.6961(17) 0.4788(6)
H34 H -0.3425 -0.6809 0.5103
H35 H -0.3525 -0.7381 0.4491
H36 H -0.2814 -0.6422 0.4657
C60 C -0.221(3) -0.797(3) 0.4526(7)
H37 H -0.2510 -0.7867 0.4181
H38 H -0.2519 -0.8560 0.4581
H39 H -0.1510 -0.7951 0.4506
C61 C 0.1169(7) 0.4821(7) 0.7767(5)
H40 H 0.0576 0.4597 0.7526
C62 C 0.2141(18) 0.5977(15) 0.8421(13)
H41 H 0.1916 0.6006 0.8783
H42 H 0.2483 0.6568 0.8390
H43 H 0.2586 0.5568 0.8377
C63 C 0.0665(15) 0.6192(11) 0.7871(11)
H44 H 0.0179 0.5845 0.7564
H45 H 0.1013 0.6726 0.7764
H46 H 0.0338 0.6364 0.8192
N1 N -0.2311(10) -0.7347(8) 0.4951(3)
N2 N 0.1337(9) 0.5675(6) 0.8007(5)
O1 O -0.2544(3) -0.5089(2) 0.67715(17)
O2 O -0.0957(3) -0.5051(2) 0.67618(18)
O3 O -0.1273(3) 0.2359(2) 0.67051(16)
O4 O 0.0290(3) 0.2572(3) 0.7053(2)
O5 O -0.2637(3) -0.5385(3) 0.79668(15)
O6 O -0.1493(3) -0.6125(3) 0.76512(14)
O7 O -0.3336(2) -0.6948(2) 0.68164(13)
O8 O -0.4628(2) -0.6499(2) 0.64568(13)
O9 O -0.4910(3) -0.6257(2) 0.76341(13)
O10 O -0.6509(3) -0.6387(3) 0.76556(13)
O11 O -0.5810(3) -0.5125(2) 0.68906(19)
O12 O -0.4296(3) -0.4416(2) 0.7312(2)
O13 O -0.6319(3) 0.2083(2) 0.67134(16)
O14 O -0.7701(3) 0.1783(2) 0.71227(19)
O15 O -0.6923(3) -0.6542(4) 0.59540(18)
O16 O -0.7853(3) -0.6437(3) 0.66429(16)
O17 O -0.2088(3) -0.6682(3) 0.58696(16)
O18 O 0.1667(4) 0.4307(4) 0.7816(3)
O19 O 0.1597(6) 0.2575(5) 0.8169(3)
C70 C 0.2054(14) 0.2541(17) 0.8633(6)
H47 H 0.2730 0.2543 0.8654
C71 C 0.0481(13) 0.2305(17) 0.9139(9)
H48 H 0.0290 0.1854 0.9358
H49 H 0.0169 0.2085 0.8758
H50 H 0.0275 0.2848 0.9295
H51 H 0.2078 0.3581 0.9836
H52 H 0.2795 0.2979 0.9764
H53 H 0.1824 0.2656 1.0043
N5 N 0.1562(14) 0.2497(17) 0.9150(7)
C1_2 C 0.2156(15) -0.7261(19) 0.9703(7)
Mn1_2 Mn -0.17461(5) -1.64356(4) 0.67661(3)
Mn1_3 Mn -0.17461(5) 0.35644(4) 0.67661(3)
Mn1A Mn 0.17461(5) -0.35644(4) 1.32339(3)
Mn1A_2 Mn -0.82539(5) -1.35644(4) 0.32339(3)
Mn2_2 Mn -0.36787(5) -1.55613(4) 0.72616(3)
Mn2A Mn 0.36787(5) -0.44387(4) 1.27384(3)
Mn2A_2 Mn -0.63213(5) -1.44387(4) 0.27384(3)
Mn2A_3 Mn -0.63213(5) -0.44387(4) 1.27384(3)
Mn3A Mn -0.39124(5) -1.34591(4) 0.32476(3)
Mn3_2 Mn -0.60876(5) 0.34591(4) 0.67524(3)
Mn3A_2 Mn -0.39124(5) -0.34591(4) 1.32476(3)
Mn3A_3 Mn -1.39124(5) -0.34591(4) 0.32476(3)
Mn3_3 Mn -0.60876(5) -1.65409(4) 0.67524(3)
Mn4_2 Mn 0.18142(5) -0.69837(5) 0.73737(4)
Mn4_3 Mn -0.81858(5) -0.69837(5) 0.73737(4)
Mn4_4 Mn -0.81858(5) 0.30163(5) 0.73737(4)
Mn4A Mn -0.18142(5) -0.30163(5) 1.26263(4)
Mn4A_2 Mn -1.18142(5) -0.30163(5) 0.26263(4)
C2_2 C -0.1496(4) -1.3668(3) 0.6769(2)
C3_2 C -0.2252(5) -1.3217(4) 0.6835(4)
H1_2 H -0.2880 -1.3530 0.6874
C4_2 C -0.2088(5) -1.2291(5) 0.6846(4)
H2_2 H -0.2612 -1.1996 0.6894
C5_2 C -0.1184(4) -1.1805(4) 0.6788(3)
C6_2 C -0.0426(5) -1.2265(4) 0.6706(4)
H3_2 H 0.0194 -1.1960 0.6649
C7_2 C -0.0590(5) -1.3184(4) 0.6710(4)
H4_2 H -0.0064 -1.3478 0.6670
C8_2 C -0.1014(4) -1.0814(4) 0.6799(3)
C9_2 C -0.1759(5) -1.0416(4) 0.6631(4)
H5_2 H -0.2391 -1.0771 0.6500
C10_2 C -0.1592(5) -0.9496(4) 0.6652(4)
H6_2 H -0.2115 -0.9250 0.6527
C11_2 C -0.0686(4) -0.8934(3) 0.6850(2)
C12_2 C 0.0044(5) -0.9326(5) 0.7018(5)
H7_2 H 0.0672 -0.8969 0.7156
C13_2 C -0.0115(5) -1.0252(4) 0.6992(5)
H8_2 H 0.0413 -1.0497 0.7111
C14_2 C -0.1668(4) -1.4662(3) 0.6771(2)
C15_2 C -0.0530(4) -0.7927(3) 0.6875(2)
C16A C 0.1306(4) -0.4515(5) 1.1384(2)
C17A C 0.1636(6) -0.5027(7) 1.0944(3)
H9A H 0.2207 -0.5249 1.1009
C18A C 0.1123(6) -0.5215(8) 1.0406(3)
H10A H 0.1358 -0.5560 1.0114
C19A C 0.0272(5) -0.4900(6) 1.0295(2)
C20A C -0.0063(7) -0.4427(7) 1.0748(3)
H11A H -0.0659 -0.4240 1.0693
C21A C 0.0448(6) -0.4226(7) 1.1271(3)
H12A H 0.0209 -0.3883 1.1562
C22A C 0.1863(4) -0.4312(4) 1.1967(2)
C23A C -0.5653(3) -1.2070(3) 0.39914(19)
C24A C -0.4866(4) -1.1921(3) 0.4408(2)
H13A H -0.4495 -1.2362 0.4426
C25A C -0.4624(4) -1.1118(4) 0.4801(2)
H14A H -0.4097 -1.1034 0.5085
C26A C -0.5137(3) -1.0438(3) 0.4785(2)
C27A C -0.5930(5) -1.0597(4) 0.4365(3)
H15A H -0.6297 -1.0154 0.4345
C28A C -0.6187(4) -1.1401(4) 0.3976(3)
H16A H -0.6728 -1.1494 0.3699
C29A C -0.5917(3) -1.2914(3) 0.35528(18)
C30A C -0.4549(4) -0.4154(4) 1.1477(2)
C31A C -0.3789(5) -0.4265(6) 1.1174(2)
H17A H -0.3139 -0.4117 1.1354
C32A C -0.3970(5) -0.4597(7) 1.0596(3)
H18A H -0.3437 -0.4674 1.0399
C33A C -0.4904(4) -0.4813(6) 1.0311(2)
C34A C -0.5651(5) -0.4677(9) 1.0626(3)
H19A H -0.6297 -0.4789 1.0444
C35A C -0.5492(5) -0.4389(8) 1.1190(3)
H20A H -0.6032 -0.4348 1.1387
C36A C -0.4363(3) -0.3813(3) 1.21008(19)
C37_2 C -0.5485(4) -1.3542(4) 0.7112(3)
C38_2 C -0.6460(4) -1.3534(4) 0.6952(3)
H21_2 H -0.6935 -1.4073 0.6865
C39_2 C -0.6739(5) -1.2724(4) 0.6919(3)
H22_2 H -0.7402 -1.2726 0.6808
C40_2 C -0.6051(5) -1.1915(4) 0.7048(4)
C41_2 C -0.5064(5) -1.1929(5) 0.7255(5)
H23_2 H -0.4598 -1.1387 0.7374
C42_2 C -0.4789(5) -1.2725(4) 0.7282(5)
H24_2 H -0.4135 -1.2725 0.7413
C43_2 C -0.6333(5) -1.1040(4) 0.6996(4)
C44_2 C -0.7132(5) -1.0775(4) 0.7225(4)
H25_2 H -0.7536 -1.1166 0.7400
C45_2 C -0.7346(5) -0.9942(4) 0.7200(4)
H26_2 H -0.7878 -0.9772 0.7367
C46_2 C -0.6771(4) -0.9360(4) 0.6927(3)
C47_2 C -0.5984(5) -0.9632(4) 0.6697(4)
H27_2 H -0.5594 -0.9254 0.6507
C48_2 C -0.5757(6) -1.0446(5) 0.6740(4)
H28_2 H -0.5200 -1.0599 0.6593
C49_2 C -0.5173(4) -1.4438(4) 0.7107(3)
C50_2 C -0.6945(4) -0.8428(3) 0.6914(2)
C51A C -1.1611(4) -0.4029(5) 0.4196(2)
C52A C -1.1788(8) -0.4162(11) 0.4710(4)
H29A H -1.2331 -0.3982 0.4859
C53A C -1.1176(9) -0.4567(11) 0.5027(4)
H30A H -1.1343 -0.4691 0.5370
C54A C -1.0330(4) -0.4781(6) 0.4835(3)
C55A C -1.0162(5) -0.4630(6) 0.4320(3)
H31A H -0.9602 -0.4779 0.4176
C56A C -1.0789(5) -0.4263(6) 0.4000(3)
H32A H -1.0647 -0.4175 0.3646
C57A C -1.2310(4) -0.3642(4) 0.3847(2)
C58_2 C -0.1942(9) -1.7256(8) 0.5493(3)
H33_2 H -0.1554 -1.7654 0.5584
C59_2 C -0.3076(15) -1.6961(17) 0.4788(6)
H34_2 H -0.3425 -1.6809 0.5103
H35_2 H -0.3525 -1.7381 0.4491
H36_2 H -0.2814 -1.6422 0.4657
C60_2 C -0.221(3) -1.797(3) 0.4526(7)
H37_2 H -0.2510 -1.7867 0.4181
H38_2 H -0.2519 -1.8560 0.4581
H39_2 H -0.1510 -1.7951 0.4506
C61_2 C 0.1169(7) -0.5179(7) 0.7767(5)
H40_2 H 0.0576 -0.5403 0.7526
C62_2 C 0.2141(18) -0.4023(15) 0.8421(13)
H41_2 H 0.1916 -0.3994 0.8783
H42_2 H 0.2483 -0.3432 0.8390
H43_2 H 0.2586 -0.4432 0.8377
C63_2 C 0.0665(15) -0.3808(11) 0.7871(11)
H44_2 H 0.0179 -0.4155 0.7564
H45_2 H 0.1013 -0.3274 0.7764
H46_2 H 0.0338 -0.3636 0.8192
N1_2 N -0.2311(10) -1.7347(8) 0.4951(3)
N2_2 N 0.1337(9) -0.4325(6) 0.8007(5)
O1_2 O -0.2544(3) -1.5089(2) 0.67715(17)
O2_2 O -0.0957(3) -1.5051(2) 0.67618(18)
O3_2 O -0.1273(3) -0.7641(2) 0.67051(16)
O3_3 O -0.1273(3) -1.7641(2) 0.67051(16)
O4_2 O 0.0290(3) -0.7428(3) 0.7053(2)
O5A O 0.2637(3) -0.4615(3) 1.20332(15)
O5_2 O -0.2637(3) -1.5385(3) 0.79668(15)
O6A O 0.1493(3) -0.3875(3) 1.23488(14)
O6_2 O -0.1493(3) -1.6125(3) 0.76512(14)
O7A O -0.6664(2) -1.3052(2) 0.31836(13)
O7_2 O -0.3336(2) -1.6948(2) 0.68164(13)
O8A O -0.5372(2) -1.3501(2) 0.35432(13)
O8_2 O -0.4628(2) -1.6499(2) 0.64568(13)
O9A O -0.5090(3) -0.3743(2) 1.23659(13)
O9_2 O -0.4910(3) -1.6257(2) 0.76341(13)
O9A_2 O -0.5090(3) -1.3743(2) 0.23659(13)
O10A O -0.3491(3) -0.3613(3) 1.23444(13)
O10_2 O 0.3491(3) 0.3613(3) 0.76556(13)
O10A_2 O -0.3491(3) -1.3613(3) 0.23444(13)
O10_3 O 0.3491(3) -0.6387(3) 0.76556(13)
O11_2 O -0.5810(3) -1.5125(2) 0.68906(19)
O11A O -0.4190(3) -1.4875(2) 0.31094(19)
O12_2 O -0.4296(3) -1.4416(2) 0.7312(2)
O13_2 O -0.6319(3) -0.7917(2) 0.67134(16)
O13A O -0.3681(3) -1.2083(2) 0.32866(16)
O14_2 O -0.7701(3) -0.8217(2) 0.71227(19)
O14_3 O 0.2299(3) 0.1783(2) 0.71227(19)
O14_4 O 0.2299(3) -0.8217(2) 0.71227(19)
O15A O -1.3077(3) -0.3458(4) 0.40460(18)
O15A_2 O -0.3077(3) -1.3458(4) 0.40460(18)
O16A O -1.2147(3) -0.3563(3) 0.33571(16)
O16_2 O 0.2147(3) 0.3563(3) 0.66429(16)
O16A_2 O -0.2147(3) -1.3563(3) 0.33571(16)
O16_3 O 0.2147(3) -0.6437(3) 0.66429(16)
O17_2 O -0.2088(3) -1.6682(3) 0.58696(16)
O18_2 O 0.1667(4) -0.5693(4) 0.7816(3)
O19_2 O 0.1597(6) -0.7425(5) 0.8169(3)
C70_2 C 0.2054(14) -0.7459(17) 0.8633(6)
H47_2 H 0.2730 -0.7457 0.8654
C71_2 C 0.0481(13) -0.7695(17) 0.9139(9)
H48_2 H 0.0290 -0.8146 0.9358
H49_2 H 0.0169 -0.7915 0.8758
H50_2 H 0.0275 -0.7152 0.9295
H51_2 H 0.2078 -0.6419 0.9836
H52_2 H 0.2795 -0.7021 0.9764
H53_2 H 0.1824 -0.7344 1.0043
N5_2 N 0.1562(14) -0.7503(17) 0.9150(7)
C64 C 0.5413(13) 0.7473(10) 0.6003(8)
C65 C 0.671(2) 0.705(2) 0.5486(15)
C66 C 0.546(2) 0.5864(12) 0.5727(14)
N3 N 0.5843(14) 0.6779(12) 0.5731(9)
O20 O 0.5885(10) 0.8259(9) 0.6038(6)
C67 C 0.956(2) 0.851(3) 0.4408(13)
C68 C 0.811(2) 0.915(3) 0.4479(14)
C69 C 0.904(7) 0.897(9) 0.5331(9)
N4 N 0.8886(13) 0.8846(12) 0.4741(7)
O21 O 1.043(3) 0.871(3) 0.4671(16)
loop_
_geom_bond_atom_site_label_1
_geom_bond_atom_site_label_2
_geom_bond_site_symmetry_1
_geom_bond_site_symmetry_2
C1 H51 1_555 1_555
Mn1 O1 1_555 1_555
Mn2 O1 1_555 1_555
Mn3 O8 1_555 1_555
Mn4 O4 1_555 1_555
C2 C3 1_555 1_555
C3 H1 1_555 1_555
C4 C3 1_555 1_555
H2 C4 1_555 1_555
C5 C4 1_555 1_555
C6 C5 1_555 1_555
H3 C6 1_555 1_555
C7 C2 1_555 1_555
H4 C7 1_555 1_555
C8 C5 1_555 1_555
C9 C8 1_555 1_555
H5 C9 1_555 1_555
C10 C9 1_555 1_555
H6 C10 1_555 1_555
C11 C10 1_555 1_555
C12 C11 1_555 1_555
H7 C12 1_555 1_555
C13 C8 1_555 1_555
H8 C13 1_555 1_555
C14 C2 1_555 1_555
C15 C11 1_555 1_555
C16 C17 1_555 1_555
C17 H9 1_555 1_555
C18 C17 1_555 1_555
H10 C18 1_555 1_555
C19 C18 1_555 1_555
C20 C19 1_555 1_555
H11 C20 1_555 1_555
C21 C16 1_555 1_555
H12 C21 1_555 1_555
C22 C16 1_555 1_555
C23 C24 1_555 1_555
C24 H13 1_555 1_555
C25 C24 1_555 1_555
H14 C25 1_555 1_555
C26 C25 1_555 1_555
C27 C26 1_555 1_555
H15 C27 1_555 1_555
C28 C23 1_555 1_555
H16 C28 1_555 1_555
C29 C23 1_555 1_555
C30 C31 1_555 1_555
C31 H17 1_555 1_555
C32 C31 1_555 1_555
H18 C32 1_555 1_555
C33 C32 1_555 1_555
C34 C33 1_555 1_555
H19 C34 1_555 1_555
C35 C30 1_555 1_555
H20 C35 1_555 1_555
C36 C30 1_555 1_555
C37 C38 1_555 1_555
C38 H21 1_555 1_555
C39 C38 1_555 1_555
H22 C39 1_555 1_555
C40 C39 1_555 1_555
C41 C40 1_555 1_555
H23 C41 1_555 1_555
C42 C37 1_555 1_555
H24 C42 1_555 1_555
C43 C40 1_555 1_555
C44 C43 1_555 1_555
H25 C44 1_555 1_555
C45 C44 1_555 1_555
H26 C45 1_555 1_555
C46 C45 1_555 1_555
C47 C46 1_555 1_555
H27 C47 1_555 1_555
C48 C43 1_555 1_555
H28 C48 1_555 1_555
C49 C37 1_555 1_555
C50 C46 1_555 1_555
C51 C52 1_555 1_555
C52 H29 1_555 1_555
C53 C52 1_555 1_555
H30 C53 1_555 1_555
C54 C53 1_555 1_555
C55 C54 1_555 1_555
H31 C55 1_555 1_555
C56 C51 1_555 1_555
H32 C56 1_555 1_555
C57 C51 1_555 1_555
C58 H33 1_555 1_555
C59 H34 1_555 1_555
H35 C59 1_555 1_555
H36 C59 1_555 1_555
C60 H37 1_555 1_555
H38 C60 1_555 1_555
H39 C60 1_555 1_555
C61 H40 1_555 1_555
C62 H41 1_555 1_555
H42 C62 1_555 1_555
H43 C62 1_555 1_555
C63 H44 1_555 1_555
H45 C63 1_555 1_555
H46 C63 1_555 1_555
N1 C58 1_555 1_555
N2 C61 1_555 1_555
O1 C14 1_555 1_555
O2 Mn1 1_555 1_555
O3 C15 1_555 1_555
O4 C15 1_555 1_555
O5 Mn2 1_555 1_555
O6 Mn1 1_555 1_555
O7 Mn1 1_555 1_555
O8 Mn2 1_555 1_555
O9 Mn2 1_555 1_555
O10 Mn3 1_555 1_555
O11 Mn3 1_555 1_555
O12 Mn2 1_555 1_555
O13 C50 1_555 1_555
O14 C50 1_555 1_555
O15 Mn3 1_555 1_555
O16 Mn3 1_555 1_555
O17 Mn1 1_555 1_555
O18 Mn4 1_555 1_555
O19 Mn4 1_555 1_555
C64 N3 1_555 1_555
C65 N3 1_555 1_555
C66 N3 1_555 1_555
C67 N4 1_555 1_555
C68 N4 1_555 1_555
C69 N4 1_555 1_555
O20 C64 1_555 1_555
O21 C67 1_555 1_555
C70 O19 1_555 1_555
H47 C70 1_555 1_555
C71 H48 1_555 1_555
H49 C71 1_555 1_555
H50 C71 1_555 1_555
H52 C1 1_555 1_555
H53 C1 1_555 1_555
N5 C1 1_555 1_555
C1_2 H51_2 1_555 1_555
Mn1_2 O1_2 1_555 1_555
Mn1_3 O3 1_555 1_555
Mn1A O6A 1_555 1_555
Mn1A_2 O7A 1_555 1_555
Mn2_2 O1_2 1_555 1_555
Mn2A O5A 1_555 1_555
Mn2A_2 O7A 1_555 1_555
Mn2A_3 O9A 1_555 1_555
Mn3A O8A 1_555 1_555
Mn3_2 O13 1_555 1_555
Mn3A_2 O9A 1_555 1_555
Mn3A_3 O15A 1_555 1_555
Mn3_3 O8_2 1_555 1_555
Mn4_2 O4_2 1_555 1_555
Mn4_3 O10 1_555 1_555
Mn4_4 O14 1_555 1_555
Mn4A O10A 1_555 1_555
Mn4A_2 O16A 1_555 1_555
C2_2 C3_2 1_555 1_555
C3_2 H1_2 1_555 1_555
C4_2 C3_2 1_555 1_555
H2_2 C4_2 1_555 1_555
C5_2 C4_2 1_555 1_555
C6_2 C5_2 1_555 1_555
H3_2 C6_2 1_555 1_555
C7_2 C2_2 1_555 1_555
H4_2 C7_2 1_555 1_555
C8_2 C5_2 1_555 1_555
C9_2 C8_2 1_555 1_555
H5_2 C9_2 1_555 1_555
C10_2 C9_2 1_555 1_555
H6_2 C10_2 1_555 1_555
C11_2 C10_2 1_555 1_555
C12_2 C11_2 1_555 1_555
H7_2 C12_2 1_555 1_555
C13_2 C8_2 1_555 1_555
H8_2 C13_2 1_555 1_555
C14_2 C2_2 1_555 1_555
C15_2 C11_2 1_555 1_555
C16A C17A 1_555 1_555
C17A H9A 1_555 1_555
C18A C17A 1_555 1_555
H10A C18A 1_555 1_555
C19A C19 1_555 1_555
C20A C19A 1_555 1_555
H11A C20A 1_555 1_555
C21A C16A 1_555 1_555
H12A C21A 1_555 1_555
C22A C16A 1_555 1_555
C23A C24A 1_555 1_555
C24A H13A 1_555 1_555
C25A C24A 1_555 1_555
H14A C25A 1_555 1_555
C26A C26 1_555 1_555
C27A C26A 1_555 1_555
H15A C27A 1_555 1_555
C28A C23A 1_555 1_555
H16A C28A 1_555 1_555
C29A C23A 1_555 1_555
C30A C31A 1_555 1_555
C31A H17A 1_555 1_555
C32A C31A 1_555 1_555
H18A C32A 1_555 1_555
C33A C33 1_555 1_555
C34A C33A 1_555 1_555
H19A C34A 1_555 1_555
C35A C30A 1_555 1_555
H20A C35A 1_555 1_555
C36A C30A 1_555 1_555
C37_2 C38_2 1_555 1_555
C38_2 H21_2 1_555 1_555
C39_2 C38_2 1_555 1_555
H22_2 C39_2 1_555 1_555
C40_2 C39_2 1_555 1_555
C41_2 C40_2 1_555 1_555
H23_2 C41_2 1_555 1_555
C42_2 C37_2 1_555 1_555
H24_2 C42_2 1_555 1_555
C43_2 C40_2 1_555 1_555
C44_2 C43_2 1_555 1_555
H25_2 C44_2 1_555 1_555
C45_2 C44_2 1_555 1_555
H26_2 C45_2 1_555 1_555
C46_2 C45_2 1_555 1_555
C47_2 C46_2 1_555 1_555
H27_2 C47_2 1_555 1_555
C48_2 C43_2 1_555 1_555
H28_2 C48_2 1_555 1_555
C49_2 C37_2 1_555 1_555
C50_2 C46_2 1_555 1_555
C51A C52A 1_555 1_555
C52A H29A 1_555 1_555
C53A C52A 1_555 1_555
H30A C53A 1_555 1_555
C54A C54 1_555 1_555
C55A C54A 1_555 1_555
H31A C55A 1_555 1_555
C56A C51A 1_555 1_555
H32A C56A 1_555 1_555
C57A C51A 1_555 1_555
C58_2 H33_2 1_555 1_555
C59_2 H34_2 1_555 1_555
H35_2 C59_2 1_555 1_555
H36_2 C59_2 1_555 1_555
C60_2 H37_2 1_555 1_555
H38_2 C60_2 1_555 1_555
H39_2 C60_2 1_555 1_555
C61_2 H40_2 1_555 1_555
C62_2 H41_2 1_555 1_555
H42_2 C62_2 1_555 1_555
H43_2 C62_2 1_555 1_555
C63_2 H44_2 1_555 1_555
H45_2 C63_2 1_555 1_555
H46_2 C63_2 1_555 1_555
N1_2 C58_2 1_555 1_555
N2_2 C61_2 1_555 1_555
O1_2 C14_2 1_555 1_555
O2_2 Mn1_2 1_555 1_555
O3_2 Mn1 1_555 1_555
O3_3 Mn1_2 1_555 1_555
O4_2 C15_2 1_555 1_555
O5A C22A 1_555 1_555
O5_2 Mn2_2 1_555 1_555
O6A C22A 1_555 1_555
O6_2 Mn1_2 1_555 1_555
O7A C29A 1_555 1_555
O7_2 Mn1_2 1_555 1_555
O8A Mn2A_2 1_555 1_555
O8_2 Mn2_2 1_555 1_555
O9A C36A 1_555 1_555
O9_2 Mn2_2 1_555 1_555
O9A_2 Mn2A_2 1_555 1_555
O10A Mn3A_2 1_555 1_555
O10_2 Mn4 1_555 1_555
O10A_2 Mn3A 1_555 1_555
O10_3 Mn4_2 1_555 1_555
O11_2 Mn3_3 1_555 1_555
O11A Mn3A 1_555 1_555
O12_2 Mn2_2 1_555 1_555
O13_2 Mn3 1_555 1_555
O13A Mn3A 1_555 1_555
O14_2 Mn4_3 1_555 1_555
O14_3 Mn4 1_555 1_555
O14_4 Mn4_2 1_555 1_555
O15A C57A 1_555 1_555
O15A_2 Mn3A 1_555 1_555
O16A Mn3A_3 1_555 1_555
O16_2 Mn4 1_555 1_555
O16A_2 Mn3A 1_555 1_555
O16_3 Mn4_2 1_555 1_555
O17_2 Mn1_2 1_555 1_555
O18_2 Mn4_2 1_555 1_555
O19_2 Mn4_2 1_555 1_555
C70_2 O19_2 1_555 1_555
H47_2 C70_2 1_555 1_555
C71_2 H48_2 1_555 1_555
H49_2 C71_2 1_555 1_555
H50_2 C71_2 1_555 1_555
H52_2 C1_2 1_555 1_555
H53_2 C1_2 1_555 1_555
N5_2 C1_2 1_555 1_555
Mn2 O7 1_555 1_555
Mn3 O9 1_555 1_555
C6 C7 1_555 1_555
C12 C13 1_555 1_555
C14 O2 1_555 1_555
C20 C21 1_555 1_555
C22 O5 1_555 1_555
C22 O6 1_555 1_555
C27 C28 1_555 1_555
C29 O7 1_555 1_555
C29 O8 1_555 1_555
C34 C35 1_555 1_555
C36 O9 1_555 1_555
C36 O10 1_555 1_555
C41 C42 1_555 1_555
C47 C48 1_555 1_555
C49 O11 1_555 1_555
C49 O12 1_555 1_555
C55 C56 1_555 1_555
C57 O15 1_555 1_555
C57 O16 1_555 1_555
C58 O17 1_555 1_555
C59 N1 1_555 1_555
C60 N1 1_555 1_555
C61 O18 1_555 1_555
C62 N2 1_555 1_555
C63 N2 1_555 1_555
O16 Mn4_3 1_555 1_555
C70 N5 1_555 1_555
C71 N5 1_555 1_555
Mn2_2 O7_2 1_555 1_555
Mn3A O9A_2 1_555 1_555
Mn3_3 O9_2 1_555 1_555
C6_2 C7_2 1_555 1_555
C12_2 C13_2 1_555 1_555
C14_2 O2_2 1_555 1_555
C15_2 O3_2 1_555 1_555
C18A C19A 1_555 1_555
C20A C21A 1_555 1_555
C25A C26A 1_555 1_555
C27A C28A 1_555 1_555
C29A O8A 1_555 1_555
C32A C33A 1_555 1_555
C34A C35A 1_555 1_555
C36A O10A 1_555 1_555
C41_2 C42_2 1_555 1_555
C47_2 C48_2 1_555 1_555
C49_2 O11_2 1_555 1_555
C49_2 O12_2 1_555 1_555
C50_2 O13_2 1_555 1_555
C50_2 O14_2 1_555 1_555
C53A C54A 1_555 1_555
C55A C56A 1_555 1_555
C57A O16A 1_555 1_555
C58_2 O17_2 1_555 1_555
C59_2 N1_2 1_555 1_555
C60_2 N1_2 1_555 1_555
C61_2 O18_2 1_555 1_555
C62_2 N2_2 1_555 1_555
C63_2 N2_2 1_555 1_555
C70_2 N5_2 1_555 1_555
C71_2 N5_2 1_555 1_555

#END
