
#######################################################################
#
#                 Cambridge Crystallographic Data Centre
#                                CCDC 
#
#######################################################################
#
# If this CIF has been generated from an entry in the Cambridge 
# Structural Database, then it will include bibliographic, chemical, 
# crystal, experimental, refinement or atomic coordinate data resulting 
# from the CCDC's data processing and validation procedures.
#
#######################################################################

data_RUGKIP
_chemical_formula_moiety         '(C66 H94 Cr2 F2 Mn2 N2 O38)n'
_symmetry_cell_setting           monoclinic
_symmetry_space_group_name_H-M   'P 21/c'
_symmetry_Int_Tables_number      14
_space_group_name_Hall           '-P 2ybc'
loop_
_symmetry_equiv_pos_site_id
_symmetry_equiv_pos_as_xyz
1 x,y,z
2 -x,1/2+y,1/2-z
3 -x,-y,-z
4 x,1/2-y,1/2+z
_cell_length_a                   16.8907(6)
_cell_length_b                   14.2315(4)
_cell_length_c                   32.9968(10)
_cell_angle_alpha                90
_cell_angle_beta                 91.3408(11)
_cell_angle_gamma                90
_cell_volume                     7929.6
loop_
_atom_site_label
_atom_site_type_symbol
_atom_site_fract_x
_atom_site_fract_y
_atom_site_fract_z
Cr1 Cr -0.12771(3) 0.03388(4) 0.419050(17)
Cr2 Cr 0.37782(3) -0.21895(4) 0.317095(17)
O1 O -0.12756(19) 0.30335(19) 0.44453(8)
O2 O -0.13428(15) 0.16879(17) 0.41053(7)
O3 O 0.14834(14) -0.48429(17) 0.14008(7)
O4 O 0.24556(15) -0.47479(18) 0.07962(7)
O5 O -0.12191(15) 0.06955(18) 0.47723(7)
O6 O -0.01073(15) 0.03798(17) 0.41406(7)
O7 O -0.10655(14) -0.10295(17) 0.42726(7)
O8 O 0.09455(15) -0.05840(17) 0.41477(7)
O9 O -0.00557(15) -0.20596(17) 0.42363(7)
O10 O -0.13342(17) 0.1997(2) 0.51496(8)
O11 O 0.12188(17) -0.35841(18) 0.42333(8)
O12 O 0.26204(15) -0.21280(19) 0.42089(7)
O13 O 0.15805(14) -0.20263(18) 0.35721(7)
O14 O 0.26060(14) -0.20626(17) 0.31529(7)
O15 O 0.36072(14) -0.22780(18) 0.37649(7)
O16 O 0.39330(14) -0.08039(17) 0.32199(7)
O17 O 0.49485(14) -0.21898(17) 0.32231(8)
O18 O 0.38411(15) -0.21640(17) 0.25733(7)
O19 O 0.37254(14) -0.35716(17) 0.30757(7)
O20 O 0.38549(16) -0.31512(18) 0.20363(7)
O21 O 0.37515(14) -0.46107(17) 0.25626(7)
O22 O 0.25033(15) -0.48120(18) 0.18517(7)
O23 O 0.35019(15) -0.46199(19) 0.12288(7)
O24 O 0.49222(15) 0.02591(17) 0.32155(7)
O25 O 0.59657(14) -0.11819(18) 0.31473(8)
C1 C -0.1302(2) 0.2178(3) 0.44315(11)
C2 C 0.0230(2) -0.0422(2) 0.41723(10)
C3 C -0.0342(2) -0.1252(3) 0.42337(10)
C4 C -0.1286(2) 0.1584(3) 0.48228(10)
C5 C 0.0587(3) -0.4122(3) 0.40409(15)
H1 H 0.0087 -0.3984 0.4173
H2 H 0.0705 -0.4794 0.4066
H3 H 0.0543 -0.3953 0.3753
C6 C 0.2297(2) -0.2080(2) 0.35018(10)
C7 C 0.2887(2) -0.2175(3) 0.38640(11)
C8 C 0.4658(2) -0.0556(3) 0.32082(10)
C9 C 0.5256(2) -0.1372(3) 0.31879(11)
C10 C 0.3826(2) -0.2974(3) 0.24057(11)
C11 C 0.37588(19) -0.3803(3) 0.27014(10)
C12 C 0.2788(2) -0.4704(3) 0.11480(11)
C13 C 0.2213(2) -0.4789(2) 0.15023(11)
Mn1 Mn 0.12809(3) -0.20704(4) 0.421740(16)
Mn2 Mn 0.37981(3) -0.46507(4) 0.188790(16)
Cr1A Cr 0.12771(3) -0.46612(4) 0.080950(17)
O3A O -0.14834(14) 0.01571(17) 0.35992(7)
O4A O -0.24556(15) 0.02521(18) 0.42038(7)
O10B O 0.13342(17) -0.1997(2) 0.48504(8)
O24A O 0.50778(15) -0.47409(17) 0.17845(7)
O25A O 0.40343(14) -0.61819(18) 0.18527(8)
Mn1B Mn -0.12809(3) 0.20704(4) 0.578260(16)
Mn2A Mn 0.62019(3) 0.03493(4) 0.311210(16)
O26 O 0.28849(14) 0.09884(17) 0.24970(7)
O27 O 0.15971(14) 0.08136(17) 0.30107(7)
O28 O 0.01205(14) -0.00726(18) 0.27295(7)
O29 O -0.03965(14) 0.12424(17) 0.21541(7)
O30 O 0.09011(14) 0.24690(18) 0.19404(8)
O31 O 0.23672(14) 0.16560(18) 0.17378(7)
C14 C 0.3170(2) 0.1354(3) 0.18089(11)
H4 H 0.3522 0.1750 0.1639
C15 C 0.3217(2) 0.0346(3) 0.16562(12)
H5 H 0.3069 0.0330 0.1364
H6 H 0.2832 -0.0046 0.1802
C16 C 0.4046(2) -0.0065(3) 0.17180(13)
H7 H 0.4425 0.0282 0.1549
H8 H 0.4047 -0.0732 0.1633
C17 C 0.4301(2) 0.0008(3) 0.21648(12)
H9 H 0.3943 -0.0375 0.2332
H10 H 0.4845 -0.0240 0.2202
C18 C 0.4275(2) 0.1033(3) 0.23033(12)
H11 H 0.4442 0.1071 0.2592
H12 H 0.4653 0.1406 0.2145
C19 C 0.3446(2) 0.1452(3) 0.22497(11)
H13 H 0.3465 0.2134 0.2323
C20 C 0.2939(2) 0.1266(3) 0.29089(11)
H14 H 0.2786 0.1934 0.2935
H15 H 0.3491 0.1195 0.3012
C21 C 0.2399(2) 0.0664(3) 0.31495(11)
H16 H 0.2542 -0.0005 0.3117
H17 H 0.2452 0.0826 0.3441
C22 C 0.1035(2) 0.0350(3) 0.32598(11)
H18 H 0.1068 0.0609 0.3538
H19 H 0.1156 -0.0330 0.3274
C23 C 0.0216(2) 0.0492(3) 0.30847(11)
H20 H -0.0181 0.0312 0.3286
H21 H 0.0136 0.1163 0.3015
C24 C -0.0682(2) -0.0099(3) 0.25712(12)
H22 H -0.1032 -0.0316 0.2793
C25 C -0.0722(2) -0.0822(3) 0.22330(13)
H23 H -0.0545 -0.1441 0.2338
H24 H -0.0364 -0.0635 0.2014
C26 C -0.1572(3) -0.0902(3) 0.20627(14)
H25 H -0.1594 -0.1375 0.1843
H26 H -0.1928 -0.1111 0.2279
C27 C -0.1851(2) 0.0050(3) 0.18980(13)
H27 H -0.2407 0.0000 0.1798
H28 H -0.1520 0.0238 0.1668
C28 C -0.1792(2) 0.0794(3) 0.22318(12)
H29 H -0.1933 0.1414 0.2115
H30 H -0.2181 0.0646 0.2442
C29 C -0.0969(2) 0.0859(3) 0.24311(11)
H31 H -0.0998 0.1282 0.2672
C30 C -0.0431(2) 0.2248(3) 0.21570(11)
H32 H -0.0254 0.2486 0.2426
H33 H -0.0984 0.2457 0.2107
C31 C 0.0089(2) 0.2640(3) 0.18367(12)
H34 H -0.0045 0.2342 0.1573
H35 H -0.0003 0.3325 0.1810
C32 C 0.1408(2) 0.2849(3) 0.16427(12)
H36 H 0.1323 0.3536 0.1618
H37 H 0.1290 0.2558 0.1376
C33 C 0.2247(2) 0.2652(3) 0.17713(13)
H38 H 0.2616 0.2993 0.1595
H39 H 0.2343 0.2859 0.2055
O32 O 0.54772(17) 0.1922(2) 0.46207(10)
O33 O 0.42199(16) 0.06296(19) 0.44969(8)
O34 O 0.26954(16) 0.13088(18) 0.42665(8)
O35 O 0.22654(16) 0.2519(2) 0.48979(8)
O36 O 0.3621(4) 0.2739(4) 0.54588(18)
O37 O 0.49842(19) 0.3325(2) 0.51501(9)
C34 C 0.5739(3) 0.3372(4) 0.49870(14)
H40 H 0.6102 0.3671 0.5193
C35 C 0.5677(3) 0.4031(4) 0.46137(16)
H41 H 0.5278 0.3780 0.4417
H42 H 0.5501 0.4662 0.4700
C36 C 0.6485(3) 0.4111(4) 0.44076(17)
H43 H 0.6436 0.4526 0.4167
H44 H 0.6880 0.4390 0.4599
C37 C 0.6750(3) 0.3159(5) 0.42818(16)
H45 H 0.7260 0.3209 0.4142
H46 H 0.6355 0.2885 0.4089
C38 C 0.6849(3) 0.2503(4) 0.46584(16)
H47 H 0.7014 0.1869 0.4570
H48 H 0.7267 0.2755 0.4843
C39 C 0.6069(2) 0.2432(4) 0.48836(15)
H49 H 0.6161 0.2067 0.5139
C40 C 0.5586(2) 0.0926(3) 0.46417(13)
H50 H 0.5515 0.0710 0.4924
H51 H 0.6132 0.0767 0.4563
C41 C 0.5008(3) 0.0437(3) 0.43665(13)
H52 H 0.5070 0.0661 0.4085
H53 H 0.5107 -0.0248 0.4372
C42 C 0.3635(3) 0.0084(3) 0.42802(14)
H54 H 0.3718 -0.0593 0.4336
H55 H 0.3682 0.0187 0.3985
C43 C 0.2831(3) 0.0376(3) 0.44132(14)
H56 H 0.2423 -0.0057 0.4301
H57 H 0.2807 0.0362 0.4713
C44 C 0.1892(2) 0.1635(3) 0.42985(12)
H58 H 0.1532 0.1121 0.4201
C45 C 0.1790(3) 0.2465(3) 0.40098(12)
H59 H 0.2169 0.2968 0.4088
H60 H 0.1909 0.2262 0.3731
C46 C 0.0951(3) 0.2848(3) 0.40194(13)
H61 H 0.0903 0.3400 0.3838
H62 H 0.0574 0.2362 0.3920
C47 C 0.0749(3) 0.3130(3) 0.44477(14)
H63 H 0.0196 0.3360 0.4452
H64 H 0.1102 0.3648 0.4539
C48 C 0.0847(3) 0.2292(3) 0.47359(13)
H65 H 0.0728 0.2497 0.5015
H66 H 0.0459 0.1800 0.4657
C49 C 0.1680(2) 0.1872(3) 0.47343(12)
H67 H 0.1689 0.1283 0.4900
C50 C 0.2261(3) 0.2542(4) 0.53351(14)
C51 C 0.2846(5) 0.3079(6) 0.5547(3)
C52 C 0.4150(4) 0.3058(5) 0.56952(17)
C53 C 0.4961(3) 0.2934(4) 0.55421(13)
H68 H 0.5350 0.3254 0.5724
H69 H 0.5097 0.2258 0.5533
O39 O 0.1374(4) 0.5752(3) 0.49654(11)
H70 H 0.1400 0.6225 0.5117
C55 C 0.1275(6) 0.4964(4) 0.51944(19)
H71 H 0.1445 0.5092 0.5475
H72 H 0.1594 0.4452 0.5086
H73 H 0.0716 0.4783 0.5187
C56 C 0.1378(2) -0.0379(3) 0.20479(10)
C57 C 0.1130(2) -0.0625(3) 0.16630(12)
C58 C 0.1243(3) -0.1507(3) 0.15093(13)
H74 H 0.1066 -0.1664 0.1242
C59 C 0.1624(3) -0.2165(3) 0.17548(13)
H75 H 0.1708 -0.2784 0.1656
C60 C 0.1881(2) -0.1928(3) 0.21422(12)
H76 H 0.2144 -0.2383 0.2308
C61 C 0.1759(2) -0.1033(3) 0.22907(11)
H77 H 0.1937 -0.0871 0.2557
F1 F 0.07684(17) 0.00470(18) 0.14312(7)
N1 N 0.12591(17) 0.0586(2) 0.21815(9)
H78 H 0.1426 0.0644 0.2445
H79 H 0.0736 0.0733 0.2160
H80 H 0.1541 0.0982 0.2024
C62 C 0.3864(3) 0.3123(4) 0.42062(16)
C63 C 0.3651(3) 0.4014(4) 0.4189(2)
C64 C 0.3673(4) 0.4592(5) 0.3852(2)
H81 H 0.3515 0.5233 0.3860
C65 C 0.3930(4) 0.4186(5) 0.3515(3)
H82 H 0.3955 0.4552 0.3275
C66 C 0.4169(4) 0.3231(5) 0.35002(19)
H83 H 0.4335 0.2964 0.3252
C67 C 0.4159(3) 0.2702(4) 0.38425(13)
H84 H 0.4341 0.2071 0.3842
F2 F 0.3386(2) 0.4397(2) 0.45466(12)
N2 N 0.38425(19) 0.2587(2) 0.45821(10)
H85 H 0.4175 0.2854 0.4770
H86 H 0.3998 0.1985 0.4535
H87 H 0.3341 0.2587 0.4676
loop_
_geom_bond_atom_site_label_1
_geom_bond_atom_site_label_2
_geom_bond_site_symmetry_1
_geom_bond_site_symmetry_2
Cr1 O2 1_555 1_555
Cr2 O14 1_555 1_555
O1 C1 1_555 1_555
O2 C1 1_555 1_555
O3 C13 1_555 1_555
O4 C12 1_555 1_555
O5 Cr1 1_555 1_555
O6 Cr1 1_555 1_555
O7 Cr1 1_555 1_555
O8 C2 1_555 1_555
O9 C3 1_555 1_555
O10 C4 1_555 1_555
O11 C5 1_555 1_555
O12 C7 1_555 1_555
O13 C6 1_555 1_555
O14 C6 1_555 1_555
O15 Cr2 1_555 1_555
O16 Cr2 1_555 1_555
O17 Cr2 1_555 1_555
O18 Cr2 1_555 1_555
O19 Cr2 1_555 1_555
O20 C10 1_555 1_555
O21 C11 1_555 1_555
O22 C13 1_555 1_555
O23 C12 1_555 1_555
O24 C8 1_555 1_555
O25 C9 1_555 1_555
C1 C4 1_555 1_555
C2 O6 1_555 1_555
C3 O7 1_555 1_555
C4 O5 1_555 1_555
C5 H1 1_555 1_555
H2 C5 1_555 1_555
H3 C5 1_555 1_555
C6 C7 1_555 1_555
C7 O15 1_555 1_555
C8 O16 1_555 1_555
C9 O17 1_555 1_555
C10 O18 1_555 1_555
C11 O19 1_555 1_555
C12 C13 1_555 1_555
Mn1 O8 1_555 1_555
Mn2 O20 1_555 1_555
O26 C19 1_555 1_555
O27 C21 1_555 1_555
O28 C23 1_555 1_555
O29 C29 1_555 1_555
O30 C31 1_555 1_555
O31 C14 1_555 1_555
C14 H4 1_555 1_555
C15 C14 1_555 1_555
H5 C15 1_555 1_555
H6 C15 1_555 1_555
C16 C15 1_555 1_555
H7 C16 1_555 1_555
H8 C16 1_555 1_555
C17 C16 1_555 1_555
H9 C17 1_555 1_555
H10 C17 1_555 1_555
C18 C17 1_555 1_555
H11 C18 1_555 1_555
H12 C18 1_555 1_555
C19 C14 1_555 1_555
H13 C19 1_555 1_555
C20 O26 1_555 1_555
H14 C20 1_555 1_555
H15 C20 1_555 1_555
C21 C20 1_555 1_555
H16 C21 1_555 1_555
H17 C21 1_555 1_555
C22 O27 1_555 1_555
H18 C22 1_555 1_555
H19 C22 1_555 1_555
C23 C22 1_555 1_555
H20 C23 1_555 1_555
H21 C23 1_555 1_555
C24 O28 1_555 1_555
H22 C24 1_555 1_555
C25 C24 1_555 1_555
H23 C25 1_555 1_555
H24 C25 1_555 1_555
C26 C25 1_555 1_555
H25 C26 1_555 1_555
H26 C26 1_555 1_555
C27 C26 1_555 1_555
H27 C27 1_555 1_555
H28 C27 1_555 1_555
C28 C27 1_555 1_555
H29 C28 1_555 1_555
H30 C28 1_555 1_555
C29 C24 1_555 1_555
H31 C29 1_555 1_555
C30 O29 1_555 1_555
H32 C30 1_555 1_555
H33 C30 1_555 1_555
C31 C30 1_555 1_555
H34 C31 1_555 1_555
H35 C31 1_555 1_555
C32 O30 1_555 1_555
H36 C32 1_555 1_555
H37 C32 1_555 1_555
C33 O31 1_555 1_555
H38 C33 1_555 1_555
H39 C33 1_555 1_555
O32 C39 1_555 1_555
O33 C41 1_555 1_555
O34 C43 1_555 1_555
O35 C49 1_555 1_555
O36 C51 1_555 1_555
O37 C34 1_555 1_555
C34 H40 1_555 1_555
C35 C34 1_555 1_555
H41 C35 1_555 1_555
H42 C35 1_555 1_555
C36 C35 1_555 1_555
H43 C36 1_555 1_555
H44 C36 1_555 1_555
C37 C36 1_555 1_555
H45 C37 1_555 1_555
H46 C37 1_555 1_555
C38 C37 1_555 1_555
H47 C38 1_555 1_555
H48 C38 1_555 1_555
C39 C34 1_555 1_555
H49 C39 1_555 1_555
C40 O32 1_555 1_555
H50 C40 1_555 1_555
H51 C40 1_555 1_555
C41 C40 1_555 1_555
H52 C41 1_555 1_555
H53 C41 1_555 1_555
C42 O33 1_555 1_555
H54 C42 1_555 1_555
H55 C42 1_555 1_555
C43 C42 1_555 1_555
H56 C43 1_555 1_555
H57 C43 1_555 1_555
C44 O34 1_555 1_555
H58 C44 1_555 1_555
C45 C44 1_555 1_555
H59 C45 1_555 1_555
H60 C45 1_555 1_555
C46 C45 1_555 1_555
H61 C46 1_555 1_555
H62 C46 1_555 1_555
C47 C46 1_555 1_555
H63 C47 1_555 1_555
H64 C47 1_555 1_555
C48 C47 1_555 1_555
H65 C48 1_555 1_555
H66 C48 1_555 1_555
C49 C44 1_555 1_555
H67 C49 1_555 1_555
C50 O35 1_555 1_555
C51 C50 1_555 1_555
C52 O36 1_555 1_555
C53 O37 1_555 1_555
H68 C53 1_555 1_555
H69 C53 1_555 1_555
O39 H70 1_555 1_555
C55 O39 1_555 1_555
H71 C55 1_555 1_555
H72 C55 1_555 1_555
H73 C55 1_555 1_555
C56 C57 1_555 1_555
C57 C58 1_555 1_555
C58 H74 1_555 1_555
C59 C58 1_555 1_555
H75 C59 1_555 1_555
C60 C59 1_555 1_555
H76 C60 1_555 1_555
C61 C56 1_555 1_555
H77 C61 1_555 1_555
F1 C57 1_555 1_555
N1 C56 1_555 1_555
H78 N1 1_555 1_555
H79 N1 1_555 1_555
H80 N1 1_555 1_555
C62 C63 1_555 1_555
C63 C64 1_555 1_555
C64 H81 1_555 1_555
C65 C64 1_555 1_555
H82 C65 1_555 1_555
C66 C65 1_555 1_555
H83 C66 1_555 1_555
C67 C62 1_555 1_555
H84 C67 1_555 1_555
F2 C63 1_555 1_555
N2 C62 1_555 1_555
H85 N2 1_555 1_555
H86 N2 1_555 1_555
H87 N2 1_555 1_555
Cr1A O3 1_555 1_555
O3A Cr1 1_555 1_555
O4A Cr1 1_555 1_555
O10B Mn1 1_555 1_555
O24A Mn2 1_555 1_555
O25A Mn2 1_555 1_555
Mn1B O10 1_555 1_555
Mn2A O24 1_555 1_555
O4 Cr1A 1_555 1_555
O9 Mn1 1_555 1_555
O11 Mn1 1_555 1_555
O12 Mn1 1_555 1_555
O13 Mn1 1_555 1_555
O21 Mn2 1_555 1_555
O22 Mn2 1_555 1_555
O23 Mn2 1_555 1_555
O25 Mn2A 1_555 1_555
C2 C3 1_555 1_555
C8 C9 1_555 1_555
C10 C11 1_555 1_555
C18 C19 1_555 1_555
C28 C29 1_555 1_555
C32 C33 1_555 1_555
C38 C39 1_555 1_555
C48 C49 1_555 1_555
C52 C53 1_555 1_555
C60 C61 1_555 1_555
C66 C67 1_555 1_555

#END
