
#######################################################################
#
#                 Cambridge Crystallographic Data Centre
#                                CCDC 
#
#######################################################################
#
# If this CIF has been generated from an entry in the Cambridge 
# Structural Database, then it will include bibliographic, chemical, 
# crystal, experimental, refinement or atomic coordinate data resulting 
# from the CCDC's data processing and validation procedures.
#
#######################################################################

data_POKTIU
_chemical_formula_moiety         '(C24 H20 Cu1 Lu2 N8 O22)n'
_symmetry_cell_setting           monoclinic
_symmetry_space_group_name_H-M   'P 21/c'
_symmetry_Int_Tables_number      14
_space_group_name_Hall           '-P 2ybc'
loop_
_symmetry_equiv_pos_site_id
_symmetry_equiv_pos_as_xyz
1 x,y,z
2 -x,1/2+y,1/2-z
3 -x,-y,-z
4 x,1/2-y,1/2+z
_cell_length_a                   6.0617(8)
_cell_length_b                   23.528(3)
_cell_length_c                   13.3601(15)
_cell_angle_alpha                90
_cell_angle_beta                 112.658(5)
_cell_angle_gamma                90
_cell_volume                     1758.35
loop_
_atom_site_label
_atom_site_type_symbol
_atom_site_fract_x
_atom_site_fract_y
_atom_site_fract_z
Lu1 Lu 0.40019(4) 0.670027(11) 0.390329(19)
Cu1 Cu -0.5000 0.5000 0.0000
O1 O 0.4687(7) 0.74969(18) 0.3090(3)
O2 O 0.1091(9) 0.59966(19) 0.3592(4)
H1 H 0.0835 0.6061 0.4164
H2 H 0.0111 0.5742 0.3233
O3 O 0.3628(9) 0.82669(17) 0.2047(4)
O4 O 0.5372(9) 0.6250(2) 0.5585(4)
H3 H 0.5822 0.6193 0.6263
H4 H 0.5488 0.5937 0.5292
O5 O -0.1884(7) 0.83724(17) -0.0688(3)
O6 O 0.1643(7) 0.79357(16) -0.0220(3)
O7 O 0.5043(8) 0.5622(2) 0.1476(4)
O8 O 0.4015(8) 0.62686(19) 0.2431(4)
O9 O 0.1375(9) 0.5048(2) 0.2288(4)
O10 O -0.2095(7) 0.47160(16) 0.1139(4)
N1 N 0.0217(8) 0.71171(19) 0.2297(4)
N2 N -0.3172(8) 0.7563(2) 0.0400(4)
N3 N 0.0689(10) 0.6394(2) 0.0058(5)
N4 N -0.2802(9) 0.5595(2) -0.0147(4)
C1 C 0.3261(10) 0.7785(2) 0.2320(5)
C2 C 0.0812(10) 0.7520(2) 0.1727(4)
C3 C -0.0838(10) 0.7701(2) 0.0726(4)
C4 C -0.0272(10) 0.8040(2) -0.0115(4)
C5 C -0.3747(10) 0.7175(3) 0.0982(5)
H5 H -0.5335 0.7065 0.0772
C6 C -0.2024(10) 0.6931(2) 0.1896(5)
H6 H -0.2450 0.6631 0.2236
C7 C 0.3587(11) 0.5937(2) 0.1634(5)
C8 C 0.1092(10) 0.5965(2) 0.0766(5)
C9 C -0.0671(10) 0.5564(2) 0.0672(5)
C10 C -0.0397(11) 0.5078(2) 0.1447(5)
C11 C -0.3227(12) 0.6010(3) -0.0862(5)
H7 H -0.4704 0.6034 -0.1438
C12 C -0.1458(12) 0.6411(3) -0.0753(6)
H8 H -0.1784 0.6701 -0.1263
Lu1B Lu -1.40019(4) 0.329973(11) -0.390329(19)
O1B O -1.4687(7) 0.25031(18) -0.3090(3)
O2B O -1.1091(9) 0.40034(19) -0.3592(4)
H1B H -1.0835 0.3939 -0.4164
H2B H -1.0111 0.4258 -0.3233
O3B O -1.3628(9) 0.17331(17) -0.2047(4)
O4B O -1.5372(9) 0.3750(2) -0.5585(4)
H3B H -1.5822 0.3807 -0.6263
H4B H -1.5488 0.4063 -0.5292
O5B O -0.8116(7) 0.16276(17) 0.0688(3)
O6B O -1.1643(7) 0.20643(16) 0.0220(3)
O7B O -1.5043(8) 0.4378(2) -0.1476(4)
O8B O -1.4015(8) 0.37314(19) -0.2431(4)
O9B O -1.1375(9) 0.4952(2) -0.2288(4)
O10B O -0.7905(7) 0.52840(16) -0.1139(4)
N1B N -1.0217(8) 0.28829(19) -0.2297(4)
N2B N -0.6828(8) 0.2437(2) -0.0400(4)
N3B N -1.0689(10) 0.3606(2) -0.0058(5)
N4B N -0.7198(9) 0.4405(2) 0.0147(4)
C1B C -1.3261(10) 0.2215(2) -0.2320(5)
C2B C -1.0812(10) 0.2480(2) -0.1727(4)
C3B C -0.9162(10) 0.2299(2) -0.0726(4)
C4B C -0.9728(10) 0.1960(2) 0.0115(4)
C5B C -0.6253(10) 0.2825(3) -0.0982(5)
H5B H -0.4665 0.2935 -0.0772
C6B C -0.7976(10) 0.3069(2) -0.1896(5)
H6B H -0.7550 0.3369 -0.2236
C7B C -1.3587(11) 0.4063(2) -0.1634(5)
C8B C -1.1092(10) 0.4035(2) -0.0766(5)
C9B C -0.9329(10) 0.4436(2) -0.0672(5)
C10B C -0.9603(11) 0.4922(2) -0.1447(5)
C11B C -0.6773(12) 0.3990(3) 0.0862(5)
H7B H -0.5296 0.3966 0.1438
C12B C -0.8542(12) 0.3589(3) 0.0753(6)
H8B H -0.8216 0.3299 0.1263
Lu1A Lu -1.40019(4) 0.170027(11) 0.109671(19)
Lu1A_2 Lu -0.40019(4) 0.170027(11) 0.109671(19)
Lu1C Lu -0.59981(4) 0.829973(11) -0.109671(19)
Lu1C_2 Lu 0.40019(4) 0.829973(11) -0.109671(19)
Cu1_2 Cu -1.5000 0.5000 0.0000
Cu1_3 Cu 0.5000 0.5000 0.0000
O5A O -1.8116(7) 0.33724(17) -0.4312(3)
O5C O 0.8116(7) 0.66276(17) 0.4312(3)
O6A O -1.1643(7) 0.29357(16) -0.4780(3)
O6C O 0.1643(7) 0.70643(16) 0.4780(3)
O7_2 O -0.4957(8) 0.5622(2) 0.1476(4)
O7B_2 O -0.5043(8) 0.4378(2) -0.1476(4)
N2A N -1.6828(8) 0.2563(2) -0.5400(4)
N2C N 0.6828(8) 0.7437(2) 0.5400(4)
O11 O 0.606(4) 0.504(2) 0.373(2)
H9 H 0.5771 0.5303 0.3264
H10 H 0.6478 0.5195 0.4353
O12 O 0.9878(13) 0.9055(4) 0.1724(8)
H11 H 0.9460 0.9401 0.1676
H12 H 0.9795 0.8830 0.2203
loop_
_geom_bond_atom_site_label_1
_geom_bond_atom_site_label_2
_geom_bond_site_symmetry_1
_geom_bond_site_symmetry_2
Lu1 O1 1_555 1_555
Cu1 O10 1_555 1_555
O1 C1 1_555 1_555
O2 Lu1 1_555 1_555
H1 O2 1_555 1_555
H2 O2 1_555 1_555
O3 C1 1_555 1_555
O4 Lu1 1_555 1_555
H3 O4 1_555 1_555
H4 O4 1_555 1_555
O5 C4 1_555 1_555
O6 C4 1_555 1_555
O7 C7 1_555 1_555
O8 Lu1 1_555 1_555
O9 C10 1_555 1_555
O10 C10 1_555 1_555
N1 Lu1 1_555 1_555
N2 C3 1_555 1_555
N3 C8 1_555 1_555
N4 Cu1 1_555 1_555
C1 C2 1_555 1_555
C2 N1 1_555 1_555
C3 C2 1_555 1_555
C4 C3 1_555 1_555
C5 N2 1_555 1_555
H5 C5 1_555 1_555
C6 N1 1_555 1_555
H6 C6 1_555 1_555
C7 O8 1_555 1_555
C8 C7 1_555 1_555
C9 N4 1_555 1_555
C10 C9 1_555 1_555
C11 N4 1_555 1_555
H7 C11 1_555 1_555
C12 N3 1_555 1_555
H8 C12 1_555 1_555
O11 H9 1_555 1_555
H10 O11 1_555 1_555
O12 H11 1_555 1_555
H12 O12 1_555 1_555
Lu1B O1B 1_555 1_555
O1B C1B 1_555 1_555
O2B Lu1B 1_555 1_555
H1B O2B 1_555 1_555
H2B O2B 1_555 1_555
O3B C1B 1_555 1_555
O4B Lu1B 1_555 1_555
H3B O4B 1_555 1_555
H4B O4B 1_555 1_555
O5B C4B 1_555 1_555
O6B C4B 1_555 1_555
O7B C7B 1_555 1_555
O8B Lu1B 1_555 1_555
O9B C10B 1_555 1_555
O10B Cu1 1_555 1_555
N1B Lu1B 1_555 1_555
N2B C3B 1_555 1_555
N3B C8B 1_555 1_555
N4B Cu1 1_555 1_555
C1B C2B 1_555 1_555
C2B N1B 1_555 1_555
C3B C2B 1_555 1_555
C4B C3B 1_555 1_555
C5B N2B 1_555 1_555
H5B C5B 1_555 1_555
C6B N1B 1_555 1_555
H6B C6B 1_555 1_555
C7B O8B 1_555 1_555
C8B C7B 1_555 1_555
C9B N4B 1_555 1_555
C10B O10B 1_555 1_555
C11B N4B 1_555 1_555
H7B C11B 1_555 1_555
C12B N3B 1_555 1_555
H8B C12B 1_555 1_555
Lu1A O6B 1_555 1_555
Lu1A_2 O5B 1_555 1_555
Lu1C O5 1_555 1_555
Lu1C_2 O6 1_555 1_555
Cu1_2 O7B 1_555 1_555
Cu1_3 O7 1_555 1_555
O5A Lu1B 1_555 1_555
O5C Lu1 1_555 1_555
O6A Lu1B 1_555 1_555
O6C Lu1 1_555 1_555
O7_2 Cu1 1_555 1_555
O7B_2 Cu1 1_555 1_555
N2A Lu1B 1_555 1_555
N2C Lu1 1_555 1_555
N2 Lu1C 1_555 1_555
C5 C6 1_555 1_555
C8 C9 1_555 1_555
C11 C12 1_555 1_555
N2B Lu1A_2 1_555 1_555
C5B C6B 1_555 1_555
C8B C9B 1_555 1_555
C9B C10B 1_555 1_555
C11B C12B 1_555 1_555

#END
