
#######################################################################
#
#                 Cambridge Crystallographic Data Centre
#                                CCDC 
#
#######################################################################
#
# If this CIF has been generated from an entry in the Cambridge 
# Structural Database, then it will include bibliographic, chemical, 
# crystal, experimental, refinement or atomic coordinate data resulting 
# from the CCDC's data processing and validation procedures.
#
#######################################################################

data_POKVIW
_chemical_formula_moiety         '(C24 H26 Cu1 Er2 N8 O25)n'
_symmetry_cell_setting           monoclinic
_symmetry_space_group_name_H-M   'P 21/c'
_symmetry_Int_Tables_number      14
_space_group_name_Hall           '-P 2ybc'
loop_
_symmetry_equiv_pos_site_id
_symmetry_equiv_pos_as_xyz
1 x,y,z
2 -x,1/2+y,1/2-z
3 -x,-y,-z
4 x,1/2-y,1/2+z
_cell_length_a                   6.0607(5)
_cell_length_b                   23.4943(19)
_cell_length_c                   13.3613(9)
_cell_angle_alpha                90
_cell_angle_beta                 112.654(3)
_cell_angle_gamma                90
_cell_volume                     1755.76
loop_
_atom_site_label
_atom_site_type_symbol
_atom_site_fract_x
_atom_site_fract_y
_atom_site_fract_z
Er1 Er 0.09988(4) 0.670183(11) 0.609232(17)
O1 O 0.0977(7) 0.62609(18) 0.7558(4)
O2 O -0.3119(6) 0.66277(16) 0.5685(3)
O3 O 0.3911(8) 0.59956(19) 0.6405(4)
O4 O -0.0376(9) 0.6246(2) 0.4404(4)
N1 N -0.1835(7) 0.74357(19) 0.4595(3)
O5 O 0.3346(6) 0.70627(16) 0.5212(3)
O6 O 0.0304(6) 0.74972(17) 0.6904(3)
N2 N 0.4774(7) 0.71178(18) 0.7700(3)
C1 C 0.1401(10) 0.5931(2) 0.8352(4)
C2 C -0.4725(9) 0.6962(2) 0.5111(4)
H1 H 0.376(12) 0.5709(18) 0.676(5)
H2 H 0.509(8) 0.606(3) 0.623(5)
H3 H -0.027(10) 0.603(2) 0.493(3)
H4 H -0.178(6) 0.619(3) 0.391(3)
C3 C -0.1264(9) 0.7823(2) 0.4009(4)
C4 C -0.4166(9) 0.7298(2) 0.4264(4)
O7 O -0.0048(7) 0.56189(19) 0.8518(4)
C5 C 0.3896(9) 0.5964(2) 0.9229(4)
H5 H 0.0325 0.7932 0.4217
C6 C -0.2982(9) 0.8069(2) 0.3092(4)
C7 C -0.5812(9) 0.7480(2) 0.3270(4)
Cu1 Cu 0.0000 0.5000 1.0000
N3 N 0.4297(9) 0.6395(2) 0.9936(4)
C8 C 0.5665(9) 0.5562(2) 0.9323(4)
H6 H -0.2554 0.8368 0.2748
C9 C -0.8263(9) 0.7214(2) 0.2674(4)
O8 O 0.2903(7) 0.52905(16) 1.1136(3)
N4 N 0.2190(8) 0.44036(19) 0.9853(4)
C10 C 0.6422(11) 0.6418(3) 1.0735(5)
C11 C 0.5387(10) 0.5073(2) 0.8555(4)
O9 O -0.8640(8) 0.67332(17) 0.2951(3)
C12 C 0.1795(11) 0.3984(2) 0.9138(5)
H7 H 0.6744 0.6714 1.1233
O10 O 0.3634(8) 0.50452(19) 0.7705(4)
H8 H 0.0334 0.3958 0.8554
O5_2 O -0.6654(6) 0.70627(16) 0.5212(3)
Er1_2 Er -0.90012(4) 0.670183(11) 0.609232(17)
N2C N -0.5226(7) 0.78822(18) 0.2700(3)
N4B N 0.7810(8) 0.55964(19) 1.0147(4)
Er1C Er -0.90012(4) 0.829817(11) 0.109232(17)
O6C O -0.9696(6) 0.75028(17) 0.1904(3)
C11B C 0.4613(10) 0.4927(2) 1.1445(4)
C8B C 0.4335(9) 0.4438(2) 1.0677(4)
C12B C 0.8205(11) 0.6016(2) 1.0862(5)
Cu1_2 Cu 1.0000 0.5000 1.0000
O8B O 0.7097(7) 0.47095(16) 0.8864(3)
O10B O 0.6366(8) 0.49548(19) 1.2295(4)
C5B C 0.6104(9) 0.4036(2) 1.0771(4)
C10B C 0.3578(11) 0.3582(3) 0.9265(5)
H8B H 0.9666 0.6042 1.1446
O7B O 1.0048(7) 0.43811(19) 1.1482(4)
O8_2 O 1.2903(7) 0.52905(16) 1.1136(3)
O7_2 O 0.9952(7) 0.56189(19) 0.8518(4)
N4_2 N 1.2190(8) 0.44036(19) 0.9853(4)
C1B C 0.8599(10) 0.4069(2) 1.1648(4)
N3B N 0.5703(9) 0.3605(2) 1.0064(4)
H7B H 0.3256 0.3286 0.8767
O1B O 0.9023(7) 0.37391(18) 1.2442(4)
Er1B Er 0.90012(4) 0.329817(11) 1.390768(17)
O5B O 0.6654(6) 0.29373(16) 1.4788(3)
N2B N 0.5226(7) 0.28822(18) 1.2300(3)
N1B N 1.1835(7) 0.25643(19) 1.5405(3)
O2B O 1.3119(6) 0.33723(16) 1.4315(3)
O4B O 1.0376(9) 0.3754(2) 1.5596(4)
O3B O 0.6089(8) 0.40044(19) 1.3595(4)
O6B O 0.9696(6) 0.25028(17) 1.3096(3)
C3B C 1.1264(9) 0.2177(2) 1.5991(4)
C4B C 1.4166(9) 0.2702(2) 1.5736(4)
C2B C 1.4725(9) 0.3038(2) 1.4889(4)
H3B H 1.027(10) 0.397(2) 1.507(3)
H4B H 1.178(6) 0.381(3) 1.609(3)
H1B H 0.624(12) 0.4291(18) 1.324(5)
H2B H 0.491(8) 0.394(3) 1.377(5)
H5B H 0.9675 0.2068 1.5783
C6B C 1.2982(9) 0.1931(2) 1.6908(4)
C7B C 1.5812(9) 0.2520(2) 1.6730(4)
O5B_2 O 1.6654(6) 0.29373(16) 1.4788(3)
N2A N 1.5226(7) 0.21178(18) 1.7300(3)
H6B H 1.2554 0.1632 1.7252
C9B C 1.8263(9) 0.2786(2) 1.7326(4)
Er1B_2 Er 1.90012(4) 0.329817(11) 1.390768(17)
Er1A Er 1.90012(4) 0.170183(11) 1.890768(17)
O9B O 1.8640(8) 0.32668(17) 1.7049(3)
O6A O 1.9696(6) 0.24972(17) 1.8096(3)
O11 O 0.5119(12) 0.5947(4) 0.3269(7)
H9 H 0.4023 0.6197 0.3030
H10 H 0.5194 0.5646 0.2923
O12 O 0.566(4) 0.4929(17) 0.513(2)
H11 H 0.6336 0.5243 0.5110
H12 H 0.6358 0.4669 0.4923
O12B O 0.434(4) 0.5071(17) 0.487(2)
H11B H 0.3664 0.4757 0.4890
H12B H 0.3642 0.5331 0.5077
O13 O -0.028(4) 0.5506(17) 0.599(2)
H13 H 0.0290 0.5612 0.5527
H14 H 0.0656 0.5621 0.6607
O14 O 0.858(3) 0.4767(10) 0.6507(19)
H15 H 0.9617 0.4561 0.6979
H16 H 0.7701 0.4915 0.6803
loop_
_geom_bond_atom_site_label_1
_geom_bond_atom_site_label_2
_geom_bond_site_symmetry_1
_geom_bond_site_symmetry_2
Er1 O1 1_555 1_555
O1 C1 1_555 1_555
O2 Er1 1_555 1_555
O3 Er1 1_555 1_555
O4 Er1 1_555 1_555
N1 Er1 1_555 1_555
O5 Er1 1_555 1_555
O6 Er1 1_555 1_555
N2 Er1 1_555 1_555
C1 O7 1_555 1_555
C2 O2 1_555 1_555
H1 O3 1_555 1_555
H2 O3 1_555 1_555
H3 O4 1_555 1_555
H4 O4 1_555 1_555
C3 N1 1_555 1_555
C4 N1 1_555 1_555
O7 Cu1 1_555 1_555
C5 C1 1_555 1_555
H5 C3 1_555 1_555
C6 C3 1_555 1_555
C7 C4 1_555 1_555
Cu1 O8 1_555 1_555
N3 C5 1_555 1_555
C8 C5 1_555 1_555
H6 C6 1_555 1_555
C9 C7 1_555 1_555
O8 C11B 1_555 1_555
N4 Cu1 1_555 1_555
C10 N3 1_555 1_555
C11 C8 1_555 1_555
O9 C9 1_555 1_555
C12 N4 1_555 1_555
H7 C10 1_555 1_555
O10 C11 1_555 1_555
H8 C12 1_555 1_555
O11 H9 1_555 1_555
H10 O11 1_555 1_555
O12 H11 1_555 1_555
H12 O12 1_555 1_555
O13 H13 1_555 1_555
H14 O13 1_555 1_555
O14 H15 1_555 1_555
H16 O14 1_555 1_555
O5_2 C2 1_555 1_555
Er1_2 O5_2 1_555 1_555
N2C C6 1_555 1_555
N4B C8 1_555 1_555
Er1C N2C 1_555 1_555
O6C C9 1_555 1_555
C11B C8B 1_555 1_555
C8B N4 1_555 1_555
C12B C10 1_555 1_555
Cu1_2 N4B 1_555 1_555
O8B C11 1_555 1_555
O10B C11B 1_555 1_555
C5B C8B 1_555 1_555
C10B C12 1_555 1_555
H8B C12B 1_555 1_555
O7B Cu1_2 1_555 1_555
O8_2 Cu1_2 1_555 1_555
O7_2 Cu1_2 1_555 1_555
N4_2 Cu1_2 1_555 1_555
C1B C5B 1_555 1_555
N3B C5B 1_555 1_555
H7B C10B 1_555 1_555
O1B C1B 1_555 1_555
Er1B O1B 1_555 1_555
O5B Er1B 1_555 1_555
N2B Er1B 1_555 1_555
N1B Er1B 1_555 1_555
O2B Er1B 1_555 1_555
O4B Er1B 1_555 1_555
O3B Er1B 1_555 1_555
O6B Er1B 1_555 1_555
C3B N1B 1_555 1_555
C4B N1B 1_555 1_555
C2B O2B 1_555 1_555
H3B O4B 1_555 1_555
H4B O4B 1_555 1_555
H1B O3B 1_555 1_555
H2B O3B 1_555 1_555
H5B C3B 1_555 1_555
C6B C3B 1_555 1_555
C7B C4B 1_555 1_555
O5B_2 C2B 1_555 1_555
N2A C6B 1_555 1_555
H6B C6B 1_555 1_555
C9B C7B 1_555 1_555
Er1B_2 O5B_2 1_555 1_555
Er1A N2A 1_555 1_555
O9B C9B 1_555 1_555
O6A C9B 1_555 1_555
O12B H11B 1_555 1_555
H12B O12B 1_555 1_555
C2 C4 1_555 1_555
C7 N2C 1_555 1_555
N4B C12B 1_555 1_555
Er1C O6C 1_555 1_555
Cu1_2 O8B 1_555 1_555
C10B N3B 1_555 1_555
O7B C1B 1_555 1_555
C4B C2B 1_555 1_555
C7B N2A 1_555 1_555
Er1A O6A 1_555 1_555

#END
