
#######################################################################
#
#                 Cambridge Crystallographic Data Centre
#                                CCDC 
#
#######################################################################
#
# If this CIF has been generated from an entry in the Cambridge 
# Structural Database, then it will include bibliographic, chemical, 
# crystal, experimental, refinement or atomic coordinate data resulting 
# from the CCDC's data processing and validation procedures.
#
#######################################################################

data_KAPHUH
_chemical_formula_moiety         '(C52 H38 Mn5 N20 O3)n'
_symmetry_cell_setting           orthorhombic
_symmetry_space_group_name_H-M   'P b a m'
_symmetry_Int_Tables_number      55
_space_group_name_Hall           '-P 2 2ab'
loop_
_symmetry_equiv_pos_site_id
_symmetry_equiv_pos_as_xyz
1 x,y,z
2 -x,-y,z
3 1/2+x,1/2-y,-z
4 1/2-x,1/2+y,-z
5 -x,-y,-z
6 x,y,-z
7 1/2-x,1/2+y,z
8 1/2+x,1/2-y,z
_cell_length_a                   16.039(5)
_cell_length_b                   17.851(4)
_cell_length_c                   11.558(3)
_cell_angle_alpha                90
_cell_angle_beta                 90
_cell_angle_gamma                90
_cell_volume                     3309.2
loop_
_atom_site_label
_atom_site_type_symbol
_atom_site_fract_x
_atom_site_fract_y
_atom_site_fract_z
C1 C 0.0859(8) 0.3483(7) 1.000000
C2 C 0.1569(9) 0.4982(7) 1.000000
C3 C 0.2001(6) 0.3924(6) 0.8215(10)
C4 C 0.2519(8) 0.2895(8) 1.000000
C5 C 0.3159(8) 0.4316(8) 1.000000
C6 C 0.4602(7) 0.4506(6) 1.2554(8)
H1 H 0.430109 0.414587 1.214971
C7 C 0.4592(8) 0.4476(7) 1.3716(8)
H2 H 0.430115 0.408946 1.407516
C8 C 0.500000 0.500000 1.4402(9)
C9 C 0.4435(10) 0.1319(8) 1.2553(11)
H3 H 0.473363 0.095516 1.215394
C10 C 0.4496(10) 0.1316(8) 1.3715(10)
H4 H 0.482889 0.096167 1.408074
C11 C 0.4072(6) 0.1832(6) 1.4357(8)
C12 C 0.3658(7) 0.2360(6) 1.3750(8)
H5 H 0.339090 0.274999 1.413454
C13 C 0.3631(7) 0.2320(6) 1.2559(8)
H6 H 0.334030 0.268875 1.215872
N1 N 0.0202(8) 0.3220(7) 1.000000
N2 N 0.1308(8) 0.5571(6) 1.000000
N3 N 0.2031(7) 0.3916(6) 0.7217(9)
N4 N 0.2933(7) 0.2356(6) 1.000000
N5 N 0.3819(6) 0.4472(9) 1.000000
N6 N 0.500000 0.500000 1.1968(8)
N7 N 0.4004(5) 0.1777(5) 1.1949(7)
O1 O 0.4312(7) 0.6070(6) 1.000000
H7 H 0.407883 0.614571 1.075980
Mn1 Mn 0.19965(10) 0.39083(10) 1.000000
Mn2 Mn 0.500000 0.500000 1.000000
Mn3 Mn 0.39321(10) 0.16858(10) 1.000000
C6A C 0.5398(7) 0.5494(6) 1.2554(8)
H1A H 0.569891 0.585413 1.214971
C7A C 0.5408(8) 0.5524(7) 1.3716(8)
H2A H 0.569885 0.591054 1.407516
C6D C 0.5398(7) 0.5494(6) 1.7446(8)
H1D H 0.569891 0.585413 1.785029
C7D C 0.5408(8) 0.5524(7) 1.6284(8)
H2D H 0.569885 0.591054 1.592484
C8D C 0.500000 0.500000 1.5598(9)
N6D N 0.500000 0.500000 1.8032(8)
C6E C 0.4602(7) 0.4506(6) 1.7446(8)
H1E H 0.430109 0.414587 1.785029
C7E C 0.4592(8) 0.4476(7) 1.6284(8)
H2E H 0.430115 0.408946 1.592484
C9E C 0.4435(10) 0.1319(8) 1.7447(11)
H3E H 0.473363 0.095516 1.784606
C10E C 0.4496(10) 0.1316(8) 1.6285(10)
H4E H 0.482889 0.096167 1.591926
C11E C 0.4072(6) 0.1832(6) 1.5643(8)
C12E C 0.3658(7) 0.2360(6) 1.6250(8)
H5E H 0.339090 0.274999 1.586546
C13E C 0.3631(7) 0.2320(6) 1.7441(8)
H6E H 0.334030 0.268875 1.784128
N7E N 0.4004(5) 0.1777(5) 1.8051(7)
H7E H 0.407883 0.614571 0.924020
C1A C 0.9141(8) 0.6517(7) 1.000000
C2A C 0.8431(9) 0.5018(7) 1.000000
C3A C 0.7999(6) 0.6076(6) 0.8215(10)
C4A C 0.7481(8) 0.7105(8) 1.000000
C5A C 0.6841(8) 0.5684(8) 1.000000
C9A C 0.5565(10) 0.8681(8) 1.2553(11)
H3A H 0.526637 0.904484 1.215394
C10A C 0.5504(10) 0.8684(8) 1.3715(10)
H4A H 0.517111 0.903833 1.408074
C11A C 0.5928(6) 0.8168(6) 1.4357(8)
C12A C 0.6342(7) 0.7640(6) 1.3750(8)
H5A H 0.660910 0.725001 1.413454
C13A C 0.6369(7) 0.7680(6) 1.2559(8)
H6A H 0.665970 0.731125 1.215872
N1A N 0.9798(8) 0.6780(7) 1.000000
N2A N 0.8692(8) 0.4429(6) 1.000000
N3A N 0.7969(7) 0.6084(6) 0.7217(9)
N4A N 0.7067(7) 0.7644(6) 1.000000
N5A N 0.6181(6) 0.5528(9) 1.000000
N7A N 0.5996(5) 0.8223(5) 1.1949(7)
O1A O 0.5688(7) 0.3930(6) 1.000000
H7A H 0.592117 0.385429 1.075980
Mn1A Mn 0.80035(10) 0.60917(10) 1.000000
Mn3A Mn 0.60679(10) 0.83142(10) 1.000000
C9D C 0.5565(10) 0.8681(8) 1.7447(11)
H3D H 0.526637 0.904484 1.784606
C10D C 0.5504(10) 0.8684(8) 1.6285(10)
H4D H 0.517111 0.903833 1.591926
C11D C 0.5928(6) 0.8168(6) 1.5643(8)
C12D C 0.6342(7) 0.7640(6) 1.6250(8)
H5D H 0.660910 0.725001 1.586546
C13D C 0.6369(7) 0.7680(6) 1.7441(8)
H6D H 0.665970 0.731125 1.784128
N7D N 0.5996(5) 0.8223(5) 1.8051(7)
H7D H 0.592117 0.385429 0.924020
C3D C 0.7999(6) 0.6076(6) 1.1785(10)
N3D N 0.7969(7) 0.6084(6) 1.2783(9)
C3E C 0.2001(6) 0.3924(6) 1.1785(10)
N3E N 0.2031(7) 0.3916(6) 1.2783(9)
N1B N 0.5202(8) 0.1780(7) 1.000000
N1C N 0.4798(8) 0.8220(7) 1.000000
N2B N 0.6308(8) 0.9429(6) 1.000000
N2C N 0.3692(8) 0.0571(6) 1.000000
N6D_2 N 0.500000 0.500000 0.8032(8)
N7D_2 N 0.5996(5) 0.8223(5) 0.8051(7)
N7E_2 N 0.4004(5) 0.1777(5) 0.8051(7)
Mn2_2 Mn 0.500000 0.500000 2.000000
Mn3_2 Mn 0.39321(10) 0.16858(10) 2.000000
Mn3A_2 Mn 0.60679(10) 0.83142(10) 2.000000
Mn3B Mn -0.10679(10) 0.33142(10) 1.000000
Mn3B_2 Mn 0.89321(10) 0.33142(10) 1.000000
Mn3C Mn 0.10679(10) 0.66858(10) 1.000000
Mn3C_2 Mn 1.10679(10) 0.66858(10) 1.000000
C14 C 0.3096(10) 0.5901(10) 1.2543(15)
H8 H 0.283895 0.551936 1.212655
C15 C 0.3020(8) 0.5864(8) 1.3732(14)
H9 H 0.277647 0.545000 1.408532
C16 C 0.3320(6) 0.6467(6) 1.4397(8)
C17 C 0.3628(10) 0.7036(8) 1.3754(13)
H10 H 0.376832 0.748540 1.411256
C18 C 0.3739(12) 0.6960(10) 1.2556(15)
H11 H 0.401995 0.733601 1.215773
N8 N 0.3461(9) 0.6376(9) 1.1972(10)
C14E C 0.3096(10) 0.5901(10) 1.7457(15)
H8E H 0.283895 0.551936 1.787345
C15E C 0.3020(8) 0.5864(8) 1.6268(14)
H9E H 0.277647 0.545000 1.591468
C16E C 0.3320(6) 0.6467(6) 1.5603(8)
C17E C 0.3628(10) 0.7036(8) 1.6246(13)
H10E H 0.376832 0.748540 1.588744
C18E C 0.3739(12) 0.6960(10) 1.7444(15)
H11E H 0.401995 0.733601 1.784227
N8E N 0.3461(9) 0.6376(9) 1.8028(10)
O2 O 0.2787(11) 0.3874(12) 0.500000
H12 H 0.259783 0.388434 0.576060
H12E H 0.259783 0.388434 0.423940
loop_
_geom_bond_atom_site_label_1
_geom_bond_atom_site_label_2
_geom_bond_site_symmetry_1
_geom_bond_site_symmetry_2
C1 N1 1_555 1_555
C2 N2 1_555 1_555
C3 N3 1_555 1_555
C4 N4 1_555 1_555
C5 N5 1_555 1_555
C6 H1 1_555 1_555
C7 C6 1_555 1_555
H2 C7 1_555 1_555
C8 C7 1_555 1_555
C9 H3 1_555 1_555
C10 C9 1_555 1_555
H4 C10 1_555 1_555
C11 C10 1_555 1_555
C12 C11 1_555 1_555
H5 C12 1_555 1_555
C13 C12 1_555 1_555
H6 C13 1_555 1_555
N1 Mn3B 1_555 1_555
N2 Mn3C 1_555 1_555
N4 Mn3 1_555 1_555
N5 Mn2 1_555 1_555
N6 C6 1_555 1_555
N7 C9 1_555 1_555
O1 H7 1_555 1_555
Mn1 C1 1_555 1_555
Mn2 N6 1_555 1_555
Mn3 N7 1_555 1_555
C14 H8 1_555 1_555
C15 C14 1_555 1_555
H9 C15 1_555 1_555
C16 C15 1_555 1_555
C17 C16 1_555 1_555
H10 C17 1_555 1_555
C18 C17 1_555 1_555
H11 C18 1_555 1_555
N8 C14 1_555 1_555
O2 H12 1_555 1_555
C6A N6 1_555 1_555
H1A C6A 1_555 1_555
C7A C8 1_555 1_555
H2A C7A 1_555 1_555
C6D H1D 1_555 1_555
C7D C6D 1_555 1_555
H2D C7D 1_555 1_555
C8D C8 1_555 1_555
N6D C6D 1_555 1_555
C6E N6D 1_555 1_555
H1E C6E 1_555 1_555
C7E C8D 1_555 1_555
H2E C7E 1_555 1_555
C9E H3E 1_555 1_555
C10E C9E 1_555 1_555
H4E C10E 1_555 1_555
C11E C11 1_555 1_555
C12E C11E 1_555 1_555
H5E C12E 1_555 1_555
C13E C12E 1_555 1_555
H6E C13E 1_555 1_555
N7E C9E 1_555 1_555
H7E O1 1_555 1_555
C1A N1A 1_555 1_555
C2A N2A 1_555 1_555
C3A N3A 1_555 1_555
C4A N4A 1_555 1_555
C5A N5A 1_555 1_555
C9A H3A 1_555 1_555
C10A C9A 1_555 1_555
H4A C10A 1_555 1_555
C11A C10A 1_555 1_555
C12A C11A 1_555 1_555
H5A C12A 1_555 1_555
C13A C12A 1_555 1_555
H6A C13A 1_555 1_555
N1A Mn3C_2 1_555 1_555
N2A Mn3B_2 1_555 1_555
N4A Mn3A 1_555 1_555
N5A Mn2 1_555 1_555
N7A C9A 1_555 1_555
O1A Mn2 1_555 1_555
H7A O1A 1_555 1_555
Mn1A C1A 1_555 1_555
Mn3A N7A 1_555 1_555
C9D H3D 1_555 1_555
C10D C9D 1_555 1_555
H4D C10D 1_555 1_555
C11D C11A 1_555 1_555
C12D C11D 1_555 1_555
H5D C12D 1_555 1_555
C13D C12D 1_555 1_555
H6D C13D 1_555 1_555
N7D C9D 1_555 1_555
H7D O1A 1_555 1_555
C3D Mn1A 1_555 1_555
N3D C3D 1_555 1_555
C3E Mn1 1_555 1_555
N3E C3E 1_555 1_555
N1B Mn3 1_555 1_555
N1C Mn3A 1_555 1_555
N2B Mn3A 1_555 1_555
N2C Mn3 1_555 1_555
N6D_2 Mn2 1_555 1_555
N7D_2 Mn3A 1_555 1_555
N7E_2 Mn3 1_555 1_555
Mn2_2 N6D 1_555 1_555
Mn3_2 N7E 1_555 1_555
Mn3A_2 N7D 1_555 1_555
C14E H8E 1_555 1_555
C15E C14E 1_555 1_555
H9E C15E 1_555 1_555
C16E C16 1_555 1_555
C17E C16E 1_555 1_555
H10E C17E 1_555 1_555
C18E C17E 1_555 1_555
H11E C18E 1_555 1_555
N8E C14E 1_555 1_555
H12E O2 1_555 1_555
C2 Mn1 1_555 1_555
C3 Mn1 1_555 1_555
C4 Mn1 1_555 1_555
C5 Mn1 1_555 1_555
C13 N7 1_555 1_555
O1 Mn2 1_555 1_555
C18 N8 1_555 1_555
C6A C7A 1_555 1_555
C7D C8D 1_555 1_555
C6E C7E 1_555 1_555
C10E C11E 1_555 1_555
C13E N7E 1_555 1_555
C2A Mn1A 1_555 1_555
C3A Mn1A 1_555 1_555
C4A Mn1A 1_555 1_555
C5A Mn1A 1_555 1_555
C13A N7A 1_555 1_555
C10D C11D 1_555 1_555
C13D N7D 1_555 1_555
C15E C16E 1_555 1_555
C18E N8E 1_555 1_555

#END
