
#######################################################################
#
#                 Cambridge Crystallographic Data Centre
#                                CCDC 
#
#######################################################################
#
# If this CIF has been generated from an entry in the Cambridge 
# Structural Database, then it will include bibliographic, chemical, 
# crystal, experimental, refinement or atomic coordinate data resulting 
# from the CCDC's data processing and validation procedures.
#
#######################################################################

data_KAPHOB
_chemical_formula_moiety         '(C52 H44 Mn5 N20 O6)n'
_symmetry_cell_setting           orthorhombic
_symmetry_space_group_name_H-M   'P b a m'
_symmetry_Int_Tables_number      55
_space_group_name_Hall           '-P 2 2ab'
loop_
_symmetry_equiv_pos_site_id
_symmetry_equiv_pos_as_xyz
1 x,y,z
2 -x,-y,z
3 1/2+x,1/2-y,-z
4 1/2-x,1/2+y,-z
5 -x,-y,-z
6 x,y,-z
7 1/2-x,1/2+y,z
8 1/2+x,1/2-y,z
_cell_length_a                   16.2079(18)
_cell_length_b                   17.833(2)
_cell_length_c                   11.6508(12)
_cell_angle_alpha                90
_cell_angle_beta                 90
_cell_angle_gamma                90
_cell_volume                     3367.49
loop_
_atom_site_label
_atom_site_type_symbol
_atom_site_fract_x
_atom_site_fract_y
_atom_site_fract_z
C1 C 0.0884(2) 0.36889(19) 1.000000
C2 C 0.1667(2) 0.5012(2) 1.000000
C3 C 0.19890(15) 0.39990(13) 0.8357(2)
C4 C 0.2385(2) 0.2998(2) 1.000000
C5 C 0.3098(2) 0.43146(19) 1.000000
C6 C 0.4593(2) 0.4495(2) 0.7446(2)
H1 H 0.429639 0.413051 0.784164
C7 C 0.4582(2) 0.4475(2) 0.6266(2)
H2 H 0.428698 0.410130 0.589031
C8 C 0.500000 0.500000 0.5640(3)
C9 C 0.4339(3) 0.1300(2) 0.7457(3)
H3 H 0.460547 0.091980 0.785865
C10 C 0.4388(3) 0.1300(2) 0.6269(3)
H4 H 0.468214 0.092487 0.589506
C11 C 0.40016(18) 0.18545(17) 0.5637(2)
C12 C 0.3592(2) 0.23957(17) 0.6256(2)
H5 H 0.333106 0.278842 0.587710
C13 C 0.3567(2) 0.23576(17) 0.7444(2)
H6 H 0.328285 0.272984 0.783835
N1 N 0.02051(19) 0.35099(18) 1.000000
N2 N 0.1506(2) 0.56365(17) 1.000000
N3 N 0.20029(19) 0.40081(16) 0.7367(2)
N4 N 0.27124(19) 0.24251(16) 1.000000
N5 N 0.37788(19) 0.44824(18) 1.000000
N6 N 0.500000 0.500000 0.8051(2)
N7 N 0.39288(15) 0.18172(13) 0.80501(19)
O1 O 0.43960(18) 0.29312(16) 1.000000
H7 H 0.499051 0.304481 1.000000
H8 H 0.410911 0.331921 1.000000
O2 O 0.43063(16) 0.61000(14) 1.000000
H9 H 0.400489 0.620755 0.929510
Mn1 Mn 0.19940(2) 0.39971(2) 1.000000
Mn2 Mn 0.500000 0.500000 1.000000
Mn3 Mn 0.38922(3) 0.17837(3) 1.000000
C6A C 0.5407(2) 0.5505(2) 0.7446(2)
H1A H 0.570361 0.586949 0.784164
C7A C 0.5418(2) 0.5525(2) 0.6266(2)
H2A H 0.571302 0.589870 0.589031
C6D C 0.5407(2) 0.5505(2) 0.2554(2)
H1D H 0.570361 0.586949 0.215836
C7D C 0.5418(2) 0.5525(2) 0.3734(2)
H2D H 0.571302 0.589870 0.410969
C8D C 0.500000 0.500000 0.4360(3)
N6D N 0.500000 0.500000 0.1949(2)
C6E C 0.4593(2) 0.4495(2) 0.2554(2)
H1E H 0.429639 0.413051 0.215836
C7E C 0.4582(2) 0.4475(2) 0.3734(2)
H2E H 0.428698 0.410130 0.410969
C9E C 0.4339(3) 0.1300(2) 0.2543(3)
H3E H 0.460547 0.091980 0.214135
C10E C 0.4388(3) 0.1300(2) 0.3731(3)
H4E H 0.468214 0.092487 0.410494
C11E C 0.40016(18) 0.18545(17) 0.4363(2)
C12E C 0.3592(2) 0.23957(17) 0.3744(2)
H5E H 0.333106 0.278842 0.412290
C13E C 0.3567(2) 0.23576(17) 0.2556(2)
H6E H 0.328285 0.272984 0.216165
N7E N 0.39288(15) 0.18172(13) 0.19499(19)
H9E H 0.400489 0.620755 1.070490
C1A C 0.9116(2) 0.63111(19) 1.000000
C2A C 0.8333(2) 0.4988(2) 1.000000
C3A C 0.80110(15) 0.60010(13) 0.8357(2)
C4A C 0.7615(2) 0.7002(2) 1.000000
C5A C 0.6902(2) 0.56854(19) 1.000000
C9A C 0.5661(3) 0.8700(2) 0.7457(3)
H3A H 0.539453 0.908020 0.785865
C10A C 0.5612(3) 0.8700(2) 0.6269(3)
H4A H 0.531786 0.907513 0.589506
C11A C 0.59984(18) 0.81455(17) 0.5637(2)
C12A C 0.6408(2) 0.76043(17) 0.6256(2)
H5A H 0.666894 0.721158 0.587710
C13A C 0.6433(2) 0.76424(17) 0.7444(2)
H6A H 0.671715 0.727016 0.783835
N1A N 0.97949(19) 0.64901(18) 1.000000
N2A N 0.8494(2) 0.43635(17) 1.000000
N3A N 0.79971(19) 0.59919(16) 0.7367(2)
N4A N 0.72876(19) 0.75749(16) 1.000000
N5A N 0.62212(19) 0.55176(18) 1.000000
N7A N 0.60712(15) 0.81828(13) 0.80501(19)
O1A O 0.56040(18) 0.70688(16) 1.000000
H7A H 0.500949 0.695519 1.000000
H8A H 0.589089 0.668079 1.000000
O2A O 0.56937(16) 0.39000(14) 1.000000
H9A H 0.599511 0.379245 0.929510
Mn1A Mn 0.80060(2) 0.60029(2) 1.000000
Mn3A Mn 0.61078(3) 0.82163(3) 1.000000
C9D C 0.5661(3) 0.8700(2) 0.2543(3)
H3D H 0.539453 0.908020 0.214135
C10D C 0.5612(3) 0.8700(2) 0.3731(3)
H4D H 0.531786 0.907513 0.410494
C11D C 0.59984(18) 0.81455(17) 0.4363(2)
C12D C 0.6408(2) 0.76043(17) 0.3744(2)
H5D H 0.666894 0.721158 0.412290
C13D C 0.6433(2) 0.76424(17) 0.2556(2)
H6D H 0.671715 0.727016 0.216165
N7D N 0.60712(15) 0.81828(13) 0.19499(19)
H9D H 0.599511 0.379245 1.070490
C3E C 0.19890(15) 0.39990(13) 1.1643(2)
N3E N 0.20029(19) 0.40081(16) 1.2633(2)
C3D C 0.80110(15) 0.60010(13) 1.1643(2)
N3D N 0.79971(19) 0.59919(16) 1.2633(2)
N1B N 0.52051(19) 0.14901(18) 1.000000
N1C N 0.47949(19) 0.85099(18) 1.000000
N2B N 0.6506(2) 0.93635(17) 1.000000
N2C N 0.3494(2) 0.06365(17) 1.000000
N6D_2 N 0.500000 0.500000 1.1949(2)
N7D_2 N 0.60712(15) 0.81828(13) 1.19499(19)
N7E_2 N 0.39288(15) 0.18172(13) 1.19499(19)
Mn2_2 Mn 0.500000 0.500000 0.000000
Mn3_2 Mn 0.38922(3) 0.17837(3) 0.000000
Mn3A_2 Mn 0.61078(3) 0.82163(3) 0.000000
Mn3B Mn -0.11078(3) 0.32163(3) 1.000000
Mn3B_2 Mn 0.88922(3) 0.32163(3) 1.000000
Mn3C Mn 0.11078(3) 0.67837(3) 1.000000
Mn3C_2 Mn 1.11078(3) 0.67837(3) 1.000000
C14 C 0.3106(2) 0.5920(2) 0.7443(3)
H10 H 0.286930 0.552295 0.784304
C15 C 0.3021(2) 0.5932(2) 0.6262(3)
H11 H 0.273998 0.554820 0.588916
C16 C 0.33522(18) 0.65146(16) 0.5641(2)
C17 C 0.3717(3) 0.7074(2) 0.6271(3)
H12 H 0.392299 0.749537 0.590013
C18 C 0.3781(3) 0.7017(2) 0.7456(3)
H13 H 0.403179 0.740585 0.785759
N8 N 0.3500(2) 0.64355(18) 0.8034(2)
C14E C 0.3106(2) 0.5920(2) 0.2557(3)
H10E H 0.286930 0.552295 0.215696
C15E C 0.3021(2) 0.5932(2) 0.3738(3)
H11E H 0.273998 0.554820 0.411084
C16E C 0.33522(18) 0.65146(16) 0.4359(2)
C17E C 0.3717(3) 0.7074(2) 0.3729(3)
H12E H 0.392299 0.749537 0.409987
C18E C 0.3781(3) 0.7017(2) 0.2544(3)
H13E H 0.403179 0.740585 0.214241
N8E N 0.3500(2) 0.64355(18) 0.1966(2)
O3 O 0.2704(3) 0.3966(3) 0.500000
H14 H 0.250747 0.388379 0.576370
H14E H 0.250747 0.388379 0.423630
O4 O 0.1044(8) 0.4552(10) 0.500000
H15 H 0.113223 0.439707 0.578570
H15E H 0.113223 0.439707 0.421430
loop_
_geom_bond_atom_site_label_1
_geom_bond_atom_site_label_2
_geom_bond_site_symmetry_1
_geom_bond_site_symmetry_2
C1 N1 1_555 1_555
C2 N2 1_555 1_555
C3 N3 1_555 1_555
C4 N4 1_555 1_555
C5 N5 1_555 1_555
C6 H1 1_555 1_555
C7 C6 1_555 1_555
H2 C7 1_555 1_555
C8 C7 1_555 1_555
C9 H3 1_555 1_555
C10 C9 1_555 1_555
H4 C10 1_555 1_555
C11 C10 1_555 1_555
C12 C11 1_555 1_555
H5 C12 1_555 1_555
C13 C12 1_555 1_555
H6 C13 1_555 1_555
N1 Mn3B 1_555 1_555
N2 Mn3C 1_555 1_555
N4 Mn3 1_555 1_555
N5 Mn2 1_555 1_555
N6 C6 1_555 1_555
N7 C9 1_555 1_555
O1 H7 1_555 1_555
H8 O1 1_555 1_555
O2 H9 1_555 1_555
Mn1 C1 1_555 1_555
Mn2 N6 1_555 1_555
Mn3 N7 1_555 1_555
C14 H10 1_555 1_555
C15 C14 1_555 1_555
H11 C15 1_555 1_555
C16 C15 1_555 1_555
C17 C16 1_555 1_555
H12 C17 1_555 1_555
C18 C17 1_555 1_555
H13 C18 1_555 1_555
N8 C14 1_555 1_555
O3 H14 1_555 1_555
O4 H15 1_555 1_555
C6A N6 1_555 1_555
H1A C6A 1_555 1_555
C7A C8 1_555 1_555
H2A C7A 1_555 1_555
C6D H1D 1_555 1_555
C7D C6D 1_555 1_555
H2D C7D 1_555 1_555
C8D C8 1_555 1_555
N6D C6D 1_555 1_555
C6E N6D 1_555 1_555
H1E C6E 1_555 1_555
C7E C8D 1_555 1_555
H2E C7E 1_555 1_555
C9E H3E 1_555 1_555
C10E C9E 1_555 1_555
H4E C10E 1_555 1_555
C11E C11 1_555 1_555
C12E C11E 1_555 1_555
H5E C12E 1_555 1_555
C13E C12E 1_555 1_555
H6E C13E 1_555 1_555
N7E C9E 1_555 1_555
H9E O2 1_555 1_555
C1A N1A 1_555 1_555
C2A N2A 1_555 1_555
C3A N3A 1_555 1_555
C4A N4A 1_555 1_555
C5A N5A 1_555 1_555
C9A H3A 1_555 1_555
C10A C9A 1_555 1_555
H4A C10A 1_555 1_555
C11A C10A 1_555 1_555
C12A C11A 1_555 1_555
H5A C12A 1_555 1_555
C13A C12A 1_555 1_555
H6A C13A 1_555 1_555
N1A Mn3C_2 1_555 1_555
N2A Mn3B_2 1_555 1_555
N4A Mn3A 1_555 1_555
N5A Mn2 1_555 1_555
N7A C9A 1_555 1_555
O1A H7A 1_555 1_555
H8A O1A 1_555 1_555
O2A Mn2 1_555 1_555
H9A O2A 1_555 1_555
Mn1A C1A 1_555 1_555
Mn3A N7A 1_555 1_555
C9D H3D 1_555 1_555
C10D C9D 1_555 1_555
H4D C10D 1_555 1_555
C11D C11A 1_555 1_555
C12D C11D 1_555 1_555
H5D C12D 1_555 1_555
C13D C12D 1_555 1_555
H6D C13D 1_555 1_555
N7D C9D 1_555 1_555
H9D O2A 1_555 1_555
C3E Mn1 1_555 1_555
N3E C3E 1_555 1_555
C3D Mn1A 1_555 1_555
N3D C3D 1_555 1_555
N1B Mn3 1_555 1_555
N1C Mn3A 1_555 1_555
N2B Mn3A 1_555 1_555
N2C Mn3 1_555 1_555
N6D_2 Mn2 1_555 1_555
N7D_2 Mn3A 1_555 1_555
N7E_2 Mn3 1_555 1_555
Mn2_2 N6D 1_555 1_555
Mn3_2 N7E 1_555 1_555
Mn3A_2 N7D 1_555 1_555
C14E H10E 1_555 1_555
C15E C14E 1_555 1_555
H11E C15E 1_555 1_555
C16E C16 1_555 1_555
C17E C16E 1_555 1_555
H12E C17E 1_555 1_555
C18E C17E 1_555 1_555
H13E C18E 1_555 1_555
N8E C14E 1_555 1_555
H14E O3 1_555 1_555
H15E O4 1_555 1_555
C2 Mn1 1_555 1_555
C3 Mn1 1_555 1_555
C4 Mn1 1_555 1_555
C5 Mn1 1_555 1_555
C13 N7 1_555 1_555
O1 Mn3 1_555 1_555
O2 Mn2 1_555 1_555
C18 N8 1_555 1_555
C6A C7A 1_555 1_555
C7D C8D 1_555 1_555
C6E C7E 1_555 1_555
C10E C11E 1_555 1_555
C13E N7E 1_555 1_555
C2A Mn1A 1_555 1_555
C3A Mn1A 1_555 1_555
C4A Mn1A 1_555 1_555
C5A Mn1A 1_555 1_555
C13A N7A 1_555 1_555
O1A Mn3A 1_555 1_555
C10D C11D 1_555 1_555
C13D N7D 1_555 1_555
C15E C16E 1_555 1_555
C18E N8E 1_555 1_555

#END
