
#######################################################################
#
#                 Cambridge Crystallographic Data Centre
#                                CCDC 
#
#######################################################################
#
# If this CIF has been generated from an entry in the Cambridge 
# Structural Database, then it will include bibliographic, chemical, 
# crystal, experimental, refinement or atomic coordinate data resulting 
# from the CCDC's data processing and validation procedures.
#
#######################################################################

data_QOCBUH
_chemical_formula_moiety         '(C5 H10 Be3 N1 O13 P3)n'
_symmetry_cell_setting           monoclinic
_symmetry_space_group_name_H-M   'C 2/c'
_symmetry_Int_Tables_number      15
_space_group_name_Hall           '-C 2yc'
loop_
_symmetry_equiv_pos_site_id
_symmetry_equiv_pos_as_xyz
1 x,y,z
2 -x,y,1/2-z
3 1/2+x,1/2+y,z
4 1/2-x,1/2+y,1/2-z
5 -x,-y,-z
6 x,-y,1/2+z
7 1/2-x,1/2-y,-z
8 1/2+x,1/2-y,1/2+z
_cell_length_a                   25.297(6)
_cell_length_b                   4.8861(11)
_cell_length_c                   24.268(5)
_cell_angle_alpha                90
_cell_angle_beta                 118.285(3)
_cell_angle_gamma                90
_cell_volume                     2641.46
loop_
_atom_site_label
_atom_site_type_symbol
_atom_site_fract_x
_atom_site_fract_y
_atom_site_fract_z
Be1 Be 0.18225(15) 0.3240(7) -0.25197(16)
Be2 Be 0.05909(16) 0.3398(8) -0.15930(18)
Be3 Be 0.26266(16) 0.4831(7) 0.07207(16)
P1 P 0.23952(3) 0.83772(14) -0.18451(3)
P2 P 0.06601(3) 0.51133(15) -0.27457(3)
P3 P 0.17740(3) 0.52270(14) -0.06540(3)
O1 O 0.21750(8) 0.5339(4) -0.18809(9)
O2 O 0.26617(8) 0.9304(4) -0.11629(9)
O3 O 0.28771(9) 0.8539(4) -0.20371(9)
O4 O 0.18500(8) 1.0133(4) -0.22633(9)
O5 O 0.11361(8) 0.4157(4) -0.29116(9)
O6 O 0.06912(11) 0.8332(5) -0.26975(13)
H1 H 0.1042 0.8828 -0.2550
O7 O 0.00388(9) 0.4619(5) -0.32854(10)
O8 O 0.07575(9) 0.3937(6) -0.21389(10)
O9 O 0.11163(8) 0.4501(4) -0.09379(9)
O10 O 0.20735(9) 0.4592(4) 0.00346(9)
O11 O 0.20933(8) 0.3406(4) -0.09531(8)
O12 O 0.18362(8) 0.8209(4) -0.07970(10)
O13 O 0.05656(11) 0.0061(5) -0.14836(13)
H2 H 0.0539 -0.0204 -0.1164
Be1_2 Be 0.18225(15) 1.3240(7) -0.25197(16)
Be1C Be 0.31775(15) 0.8240(7) -0.24803(16)
Be2A Be -0.05909(16) 0.3398(8) -0.34070(18)
Be3F Be 0.23734(16) 0.0169(7) -0.07207(16)
Be3F_2 Be 0.23734(16) 1.0169(7) -0.07207(16)
O2F O 0.23383(8) 0.5696(4) 0.11629(9)
O3C O 0.21229(9) 0.3539(4) -0.29629(9)
O4_2 O 0.18500(8) 0.0133(4) -0.22633(9)
O7A O -0.00388(9) 0.4619(5) -0.17146(10)
O11F O 0.29067(8) 0.1594(4) 0.09531(8)
O12F O 0.31638(8) 0.6791(4) 0.07970(10)
N1 N 0.14002(14) 1.1729(7) 0.0692(2)
H3 H 0.1673 1.2936 0.0764
C1 C 0.11675(18) 1.1611(9) 0.1074(2)
H4 H 0.1294 1.2823 0.1408
C2 C 0.07468(19) 0.9737(8) 0.09790(19)
H5 H 0.0579 0.9639 0.1247
C3 C 0.05654(17) 0.7973(8) 0.0487(2)
H6 H 0.0275 0.6663 0.0423
C4 C 0.08044(19) 0.8106(9) 0.0090(2)
H7 H 0.0680 0.6905 -0.0246
C5 C 0.1236(2) 1.0071(9) 0.0198(2)
H8 H 0.1407 1.0237 -0.0065
loop_
_geom_bond_atom_site_label_1
_geom_bond_atom_site_label_2
_geom_bond_site_symmetry_1
_geom_bond_site_symmetry_2
Be1 O1 1_555 1_555
Be2 O8 1_555 1_555
Be3 O10 1_555 1_555
P1 O1 1_555 1_555
P2 O5 1_555 1_555
P3 O9 1_555 1_555
O2 P1 1_555 1_555
O3 P1 1_555 1_555
O4 P1 1_555 1_555
O5 Be1 1_555 1_555
O6 P2 1_555 1_555
H1 O6 1_555 1_555
O7 P2 1_555 1_555
O8 P2 1_555 1_555
O9 Be2 1_555 1_555
O10 P3 1_555 1_555
O11 P3 1_555 1_555
O12 P3 1_555 1_555
O13 Be2 1_555 1_555
H2 O13 1_555 1_555
N1 H3 1_555 1_555
C1 N1 1_555 1_555
H4 C1 1_555 1_555
C2 C1 1_555 1_555
H5 C2 1_555 1_555
C3 C2 1_555 1_555
H6 C3 1_555 1_555
C4 C3 1_555 1_555
H7 C4 1_555 1_555
C5 N1 1_555 1_555
H8 C5 1_555 1_555
Be1_2 O4 1_555 1_555
Be1C O3 1_555 1_555
Be2A O7 1_555 1_555
Be3F O11 1_555 1_555
Be3F_2 O2 1_555 1_555
O2F Be3 1_555 1_555
O3C Be1 1_555 1_555
O4_2 Be1 1_555 1_555
O7A Be2 1_555 1_555
O11F Be3 1_555 1_555
O12F Be3 1_555 1_555
O12 Be3F_2 1_555 1_555
C4 C5 1_555 1_555

#END
