
#######################################################################
#
#                 Cambridge Crystallographic Data Centre
#                                CCDC 
#
#######################################################################
#
# If this CIF has been generated from an entry in the Cambridge 
# Structural Database, then it will include bibliographic, chemical, 
# crystal, experimental, refinement or atomic coordinate data resulting 
# from the CCDC's data processing and validation procedures.
#
#######################################################################

data_MULXUO
_chemical_formula_moiety         '(C25 H21 Cd2 N1 O12)n'
_symmetry_cell_setting           orthorhombic
_symmetry_space_group_name_H-M   'P c c n'
_symmetry_Int_Tables_number      56
_space_group_name_Hall           '-P 2ab 2ac'
loop_
_symmetry_equiv_pos_site_id
_symmetry_equiv_pos_as_xyz
1 x,y,z
2 1/2-x,1/2-y,z
3 -x,1/2+y,1/2-z
4 1/2+x,-y,1/2-z
5 -x,-y,-z
6 1/2+x,1/2+y,-z
7 x,1/2-y,1/2+z
8 1/2-x,y,1/2+z
_cell_length_a                   29.524(14)
_cell_length_b                   11.342(5)
_cell_length_c                   23.007(11)
_cell_angle_alpha                90
_cell_angle_beta                 90
_cell_angle_gamma                90
_cell_volume                     7704.15
loop_
_atom_site_label
_atom_site_type_symbol
_atom_site_fract_x
_atom_site_fract_y
_atom_site_fract_z
N1 N 0.0290(5) 0.3008(12) 0.3810(6)
C24 C -0.0099(5) 0.2171(13) 0.3765(9)
H10 H -0.0370 0.2550 0.3902
H11 H -0.0039 0.1486 0.3998
H12 H -0.0139 0.1941 0.3367
C25 C 0.0382(6) 0.3603(15) 0.4366(7)
H13 H 0.0602 0.3158 0.4582
H14 H 0.0107 0.3660 0.4586
H15 H 0.0498 0.4379 0.4292
Cd1 Cd 0.113253(14) 0.55651(5) 0.310498(17)
Cd2 Cd 0.061623(15) 0.73467(5) 0.908677(18)
C1 C 0.04402(18) 0.5377(5) 0.7176(2)
H1 H 0.0223 0.5285 0.7466
C2 C 0.08295(19) 0.6061(5) 0.7284(2)
C3 C 0.11621(17) 0.6178(5) 0.6859(2)
H2 H 0.1417 0.6639 0.6928
C4 C 0.11102(16) 0.5596(5) 0.6325(2)
C5 C 0.07166(16) 0.4941(5) 0.6223(2)
H3 H 0.0680 0.4563 0.5868
C6 C 0.03784(17) 0.4842(5) 0.6643(2)
C7 C 0.14537(17) 0.5661(5) 0.5856(2)
C8 C 0.19148(16) 0.5746(5) 0.5986(2)
H4 H 0.2002 0.5786 0.6374
C9 C 0.22503(16) 0.5773(5) 0.5558(2)
C10 C 0.27411(16) 0.5844(5) 0.5705(2)
C11 C 0.35140(18) 0.6258(5) 0.5413(2)
C12 C 0.30601(16) 0.6145(5) 0.5282(2)
H5 H 0.2964 0.6272 0.4903
C13 C 0.3520(2) 0.5525(6) 0.7016(2)
C14 C 0.16418(18) 0.5698(5) 0.4837(2)
C15 C 0.21093(17) 0.5728(5) 0.4972(2)
H6 H 0.2323 0.5718 0.4675
C16 C 0.13249(17) 0.5651(5) 0.5271(2)
H7 H 0.1019 0.5613 0.5175
C17 C 0.14964(19) 0.5699(6) 0.4213(2)
C18 C 0.38455(18) 0.6619(6) 0.4946(3)
C19 C 0.0882(2) 0.6660(6) 0.7870(3)
C20 C -0.00419(19) 0.4157(6) 0.6522(2)
O1 O 0.32381(14) 0.5459(4) 0.74203(17)
O2 O 0.39376(13) 0.5462(4) 0.71041(18)
O3 O 0.17691(15) 0.5531(4) 0.38148(17)
O4 O 0.10774(13) 0.5887(5) 0.41046(17)
O5 O 0.37193(14) 0.6529(5) 0.44283(18)
O6 O 0.42285(13) 0.6981(4) 0.50845(19)
O7 O -0.00600(13) 0.3594(4) 0.60484(18)
O8 O -0.03552(14) 0.4191(5) 0.68914(18)
O9 O 0.11996(14) 0.7397(4) 0.79324(19)
O10 O 0.05938(15) 0.6407(5) 0.82444(17)
O11 O 0.0070(2) 0.5843(7) 0.9341(3)
O12 O 0.1087(6) 0.3506(17) 0.3211(9)
C21 C 0.28994(17) 0.5640(5) 0.6269(2)
H8 H 0.2694 0.5439 0.6559
C22 C 0.36678(17) 0.6061(5) 0.5979(2)
H9 H 0.3973 0.6148 0.6068
C23 C 0.33601(17) 0.5733(5) 0.6406(2)
Cd1D Cd -0.113253(14) 0.44349(5) 0.689502(17)
Cd1F Cd 0.113253(14) 0.94349(5) 0.810498(17)
Cd1G Cd 0.386747(14) 0.55651(5) 0.810498(17)
Cd2B Cd -0.061623(15) 0.23467(5) 0.591323(18)
Cd2F Cd 0.061623(15) 0.76533(5) 0.408677(18)
Cd2G Cd 0.438377(15) 0.73467(5) 0.408677(18)
O1G O 0.17619(14) 0.5459(4) 0.24203(17)
O2G O 0.10624(13) 0.5462(4) 0.21041(18)
O4F O 0.10774(13) 0.9113(5) 0.91046(17)
O5G O 0.12807(14) 0.6529(5) 0.94283(18)
O6G O 0.07715(13) 0.6981(4) 1.00845(19)
O7B O 0.00600(13) 0.8594(4) 0.89516(18)
O8D O 0.03552(14) 0.5809(5) 0.31086(18)
O9F O 0.11996(14) 0.7603(4) 0.29324(19)
loop_
_geom_bond_atom_site_label_1
_geom_bond_atom_site_label_2
_geom_bond_site_symmetry_1
_geom_bond_site_symmetry_2
Cd1 O3 1_555 1_555
Cd2 O10 1_555 1_555
C1 H1 1_555 1_555
C2 C1 1_555 1_555
C3 C2 1_555 1_555
H2 C3 1_555 1_555
C4 C3 1_555 1_555
C5 C4 1_555 1_555
H3 C5 1_555 1_555
C6 C1 1_555 1_555
C7 C4 1_555 1_555
C8 C7 1_555 1_555
H4 C8 1_555 1_555
C9 C8 1_555 1_555
C10 C9 1_555 1_555
C11 C12 1_555 1_555
C12 C10 1_555 1_555
H5 C12 1_555 1_555
C13 O1 1_555 1_555
C14 C15 1_555 1_555
C15 C9 1_555 1_555
H6 C15 1_555 1_555
C16 C7 1_555 1_555
H7 C16 1_555 1_555
C17 C14 1_555 1_555
C18 C11 1_555 1_555
C19 C2 1_555 1_555
C20 C6 1_555 1_555
O1 Cd1G 1_555 1_555
O2 C13 1_555 1_555
O3 C17 1_555 1_555
O4 Cd1 1_555 1_555
O5 C18 1_555 1_555
O6 C18 1_555 1_555
O7 C20 1_555 1_555
O8 C20 1_555 1_555
O9 C19 1_555 1_555
O10 C19 1_555 1_555
O11 Cd2 1_555 1_555
O12 Cd1 1_555 1_555
C21 C10 1_555 1_555
H8 C21 1_555 1_555
C22 C11 1_555 1_555
H9 C22 1_555 1_555
C23 C13 1_555 1_555
N1 C24 1_555 1_555
C24 H10 1_555 1_555
H11 C24 1_555 1_555
H12 C24 1_555 1_555
C25 N1 1_555 1_555
H13 C25 1_555 1_555
H14 C25 1_555 1_555
H15 C25 1_555 1_555
Cd1D O8 1_555 1_555
Cd1F O9 1_555 1_555
Cd1G O2 1_555 1_555
Cd2B O7 1_555 1_555
Cd2F O4 1_555 1_555
Cd2G O5 1_555 1_555
O1G Cd1 1_555 1_555
O2G Cd1 1_555 1_555
O4F Cd2 1_555 1_555
O5G Cd2 1_555 1_555
O6G Cd2 1_555 1_555
O7B Cd2 1_555 1_555
O8D Cd1 1_555 1_555
O9F Cd1 1_555 1_555
C5 C6 1_555 1_555
C14 C16 1_555 1_555
C17 O4 1_555 1_555
O6 Cd2G 1_555 1_555
C21 C23 1_555 1_555
C22 C23 1_555 1_555
Cd1F O4F 1_555 1_555

#END
