
#######################################################################
#
#                 Cambridge Crystallographic Data Centre
#                                CCDC 
#
#######################################################################
#
# If this CIF has been generated from an entry in the Cambridge 
# Structural Database, then it will include bibliographic, chemical, 
# crystal, experimental, refinement or atomic coordinate data resulting 
# from the CCDC's data processing and validation procedures.
#
#######################################################################

data_OQUCOU
_chemical_formula_moiety         '(C70 H66 Cd5 N9 O33 1-)n'
_symmetry_cell_setting           monoclinic
_symmetry_space_group_name_H-M   'C 2'
_symmetry_Int_Tables_number      5
_space_group_name_Hall           'C 2y'
loop_
_symmetry_equiv_pos_site_id
_symmetry_equiv_pos_as_xyz
1 x,y,z
2 -x,y,-z
3 1/2+x,1/2+y,z
4 1/2-x,1/2+y,-z
_cell_length_a                   25.6433(8)
_cell_length_b                   13.3904(4)
_cell_length_c                   15.1209(5)
_cell_angle_alpha                90
_cell_angle_beta                 92.753(3)
_cell_angle_gamma                90
_cell_volume                     5186.13
loop_
_atom_site_label
_atom_site_type_symbol
_atom_site_fract_x
_atom_site_fract_y
_atom_site_fract_z
Cd1 Cd 0.5000 -0.00658(6) 0.5000
Cd2 Cd 0.88772(2) -0.07961(4) 0.06400(4)
Cd3 Cd 0.76136(2) 0.04973(5) -0.00230(4)
C1 C 0.9937(4) -0.9407(9) 0.1155(10)
H1 H 1.0161 -0.9947 0.1254
O1 O 0.6863(3) 0.0010(6) 0.1157(5)
N1 N 0.9626(3) -0.3725(6) 0.1038(5)
O2 O 0.8173(3) 0.0187(7) 0.1131(4)
O3 O 0.5955(2) 0.4104(6) 0.0930(5)
O4 O 0.5619(3) -0.0136(6) 0.3703(5)
C2 C 0.6839(3) 0.0931(7) 0.1221(6)
C3 C 0.5652(3) 0.0772(7) 0.3764(6)
C4 C 0.8269(4) 0.0043(8) 0.1939(6)
C5 C 0.9909(4) -0.2192(7) 0.1087(7)
H2 H 1.0129 -0.1640 0.1130
N2 N 0.9391(3) -0.2152(6) 0.0909(6)
N3 N 0.9631(3) -0.7891(6) 0.1064(6)
C6 C 0.9296(3) -0.6334(7) 0.0434(7)
H3 H 0.9099 -0.6689 0.0009
C7 C 0.5983(4) 0.2391(8) 0.3178(6)
H4 H 0.5800 0.2718 0.3610
C8 C 0.9601(3) -0.4778(6) 0.1049(6)
N4 N 0.9415(3) -0.9469(6) 0.0895(6)
C9 C 1.0064(3) -0.3150(8) 0.1193(8)
H5 H 1.0400 -0.3375 0.1342
C10 C 0.9220(3) -0.3079(7) 0.0866(7)
H6 H 0.8876 -0.3266 0.0736
C11 C 0.9893(4) -0.5270(7) 0.1701(7)
H7 H 1.0088 -0.4912 0.2127
C12 C 0.9242(3) -0.8546(7) 0.0837(7)
H8 H 0.8902 -0.8366 0.0666
C13 C 0.6246(3) 0.0874(7) 0.2498(6)
H9 H 0.6237 0.0181 0.2463
C14 C 0.9601(3) -0.6832(6) 0.1072(6)
O5 O 0.7691(3) 0.3802(6) 0.0603(4)
O6 O 0.7076(3) 0.1487(5) 0.0693(5)
C15 C 0.9894(4) -0.6314(7) 0.1715(7)
H10 H 1.0089 -0.6658 0.2150
C16 C 0.9290(3) -0.5295(7) 0.0436(7)
H11 H 0.9077 -0.4950 0.0026
C17 C 0.6356(3) 0.4554(7) 0.1172(6)
C18 C 0.7919(3) 0.4289(8) 0.1224(5)
O7 O 0.9515(3) 0.3769(7) 0.4286(5)
O8 O 0.9290(3) 0.5203(7) 0.3712(5)
C19 C 0.6546(3) 0.2460(7) 0.1956(6)
H12 H 0.6745 0.2824 0.1571
C20 C 0.6530(3) 0.1414(7) 0.1909(5)
C21 C 0.8361(4) 0.2236(8) 0.2807(6)
C22 C 0.8212(3) 0.3747(8) 0.1956(5)
C23 C 0.6258(4) 0.2946(7) 0.2588(6)
O9 O 0.6233(3) 0.3965(5) 0.2695(5)
O10 O 0.8274(3) 0.1284(6) 0.3096(5)
C24 C 0.6533(4) 0.4589(8) 0.2139(6)
H13 H 0.6900 0.4390 0.2201
C25 C 0.8844(3) 0.3736(8) 0.3178(6)
C26 C 0.8103(3) 0.2734(8) 0.2098(6)
H14 H 0.7863 0.2397 0.1726
O11 O 0.5417(3) 0.1270(7) 0.4343(4)
C27 C 0.8746(4) 0.2764(8) 0.3345(6)
H15 H 0.8927 0.2439 0.3807
O12 O 0.8181(3) -0.1962(6) 0.0548(6)
C28 C 0.9242(4) 0.4271(12) 0.3767(6)
C29 C 0.8562(3) 0.4252(9) 0.2488(5)
H16 H 0.8617 0.4931 0.2401
O13 O 0.8620(3) -0.0521(7) 0.2209(5)
C30 C 0.7699(6) -0.0087(14) 0.3208(10)
H17 H 0.7475 -0.0535 0.2870
H18 H 0.7966 -0.0462 0.3527
H19 H 0.7497 0.0277 0.3618
C31 C 1.0071(4) -0.8442(8) 0.1241(11)
H20 H 1.0402 -0.8195 0.1393
C32 C 0.5972(3) 0.1360(8) 0.3142(6)
O14 O 0.8026(3) 0.2062(6) -0.0226(5)
O15 O 0.7902(3) 0.5235(5) 0.1260(5)
C33 C 0.7946(4) 0.0626(9) 0.2598(6)
H21 H 0.7673 0.1010 0.2273
C34 C 0.6476(6) 0.5649(10) 0.2498(9)
H22 H 0.6670 0.6104 0.2150
H23 H 0.6114 0.5835 0.2467
H24 H 0.6608 0.5673 0.3103
O16 O 0.6638(3) 0.4991(8) 0.0643(5)
Cd2A Cd 0.11228(2) -0.07961(4) 0.93600(4)
Cd3A Cd 0.23864(2) 0.04973(5) 1.00230(4)
C1A C 0.0063(4) -0.9407(9) 0.8845(10)
H1A H -0.0161 -0.9947 0.8746
O1A O 0.3137(3) 0.0010(6) 0.8843(5)
N1A N 0.0374(3) -0.3725(6) 0.8962(5)
O2A O 0.1827(3) 0.0187(7) 0.8869(4)
O3A O 0.4045(2) 0.4104(6) 0.9070(5)
O4A O 0.4381(3) -0.0136(6) 0.6297(5)
C2A C 0.3161(3) 0.0931(7) 0.8779(6)
C3A C 0.4348(3) 0.0772(7) 0.6236(6)
C4A C 0.1731(4) 0.0043(8) 0.8061(6)
C5A C 0.0091(4) -0.2192(7) 0.8913(7)
H2A H -0.0129 -0.1640 0.8870
N2A N 0.0609(3) -0.2152(6) 0.9091(6)
N3A N 0.0369(3) -0.7891(6) 0.8936(6)
C6A C 0.0704(3) -0.6334(7) 0.9566(7)
H3A H 0.0901 -0.6689 0.9991
C7A C 0.4017(4) 0.2391(8) 0.6822(6)
H4A H 0.4200 0.2718 0.6390
C8A C 0.0399(3) -0.4778(6) 0.8951(6)
N4A N 0.0585(3) -0.9469(6) 0.9105(6)
C9A C -0.0064(3) -0.3150(8) 0.8807(8)
H5A H -0.0400 -0.3375 0.8658
C10A C 0.0780(3) -0.3079(7) 0.9134(7)
H6A H 0.1124 -0.3266 0.9264
C11A C 0.0107(4) -0.5270(7) 0.8299(7)
H7A H -0.0088 -0.4912 0.7873
C12A C 0.0758(3) -0.8546(7) 0.9163(7)
H8A H 0.1098 -0.8366 0.9334
C13A C 0.3754(3) 0.0874(7) 0.7502(6)
H9A H 0.3763 0.0181 0.7537
C14A C 0.0399(3) -0.6832(6) 0.8928(6)
O5A O 0.2309(3) 0.3802(6) 0.9397(4)
O6A O 0.2924(3) 0.1487(5) 0.9307(5)
C15A C 0.0106(4) -0.6314(7) 0.8285(7)
H10A H -0.0089 -0.6658 0.7850
C16A C 0.0710(3) -0.5295(7) 0.9564(7)
H11A H 0.0923 -0.4950 0.9974
C17A C 0.3644(3) 0.4554(7) 0.8828(6)
C18A C 0.2081(3) 0.4289(8) 0.8776(5)
O7A O 0.0485(3) 0.3769(7) 0.5714(5)
O8A O 0.0710(3) 0.5203(7) 0.6288(5)
C19A C 0.3454(3) 0.2460(7) 0.8044(6)
H12A H 0.3255 0.2824 0.8429
C20A C 0.3470(3) 0.1414(7) 0.8091(5)
C21A C 0.1639(4) 0.2236(8) 0.7193(6)
C22A C 0.1788(3) 0.3747(8) 0.8044(5)
C23A C 0.3742(4) 0.2946(7) 0.7412(6)
O9A O 0.3767(3) 0.3965(5) 0.7305(5)
O10A O 0.1726(3) 0.1284(6) 0.6904(5)
C24A C 0.3467(4) 0.4589(8) 0.7861(6)
H13A H 0.3100 0.4390 0.7799
C25A C 0.1156(3) 0.3736(8) 0.6822(6)
C26A C 0.1897(3) 0.2734(8) 0.7902(6)
H14A H 0.2137 0.2397 0.8274
O11A O 0.4583(3) 0.1270(7) 0.5657(4)
C27A C 0.1254(4) 0.2764(8) 0.6655(6)
H15A H 0.1073 0.2439 0.6193
O12A O 0.1819(3) -0.1962(6) 0.9452(6)
C28A C 0.0758(4) 0.4271(12) 0.6233(6)
C29A C 0.1438(3) 0.4252(9) 0.7512(5)
H16A H 0.1383 0.4931 0.7599
O13A O 0.1380(3) -0.0521(7) 0.7791(5)
C30A C 0.2301(6) -0.0087(14) 0.6792(10)
H17A H 0.2525 -0.0535 0.7130
H18A H 0.2034 -0.0462 0.6473
H19A H 0.2503 0.0277 0.6382
C31A C -0.0071(4) -0.8442(8) 0.8759(11)
H20A H -0.0402 -0.8195 0.8607
C32A C 0.4028(3) 0.1360(8) 0.6858(6)
O14A O 0.1974(3) 0.2062(6) 1.0226(5)
O15A O 0.2098(3) 0.5235(5) 0.8740(5)
C33A C 0.2054(4) 0.0626(9) 0.7402(6)
H21A H 0.2327 0.1010 0.7727
C34A C 0.3524(6) 0.5649(10) 0.7502(9)
H22A H 0.3330 0.6104 0.7850
H23A H 0.3886 0.5835 0.7533
H24A H 0.3392 0.5673 0.6897
O16A O 0.3362(3) 0.4991(8) 0.9357(5)
Cd1B Cd 0.0000 0.49342(6) 0.5000
Cd1B_2 Cd 1.0000 0.49342(6) 0.5000
Cd2_2 Cd 0.88772(2) -1.07961(4) 0.06400(4)
Cd2A_2 Cd 0.11228(2) -1.07961(4) 0.93600(4)
Cd2B Cd 0.38772(2) 0.42039(4) 1.06400(4)
Cd2C Cd 0.61228(2) 0.42039(4) -0.06400(4)
Cd3B Cd 0.26136(2) 0.54973(5) 0.99770(4)
Cd3C Cd 0.73864(2) 0.54973(5) 0.00230(4)
O3B O 0.0955(2) -0.0896(6) 1.0930(5)
O3C O 0.9045(2) -0.0896(6) -0.0930(5)
N4_2 N 0.9415(3) 0.0531(6) 0.0895(6)
N4A_2 N 0.0585(3) 0.0531(6) 0.9105(6)
O5B O 0.2691(3) -0.1198(6) 1.0603(4)
O5C O 0.7309(3) -0.1198(6) -0.0603(4)
O7B O 0.4515(3) -0.1231(7) 0.4286(5)
O7C O 0.5485(3) -0.1231(7) 0.5714(5)
O8B O 0.4290(3) 0.0203(7) 0.3712(5)
O8C O 0.5710(3) 0.0203(7) 0.6288(5)
O15B O 0.2902(3) 0.0235(5) 1.1260(5)
O15C O 0.7098(3) 0.0235(5) -0.1260(5)
O16B O 0.1638(3) -0.0009(8) 1.0643(5)
O16C O 0.8362(3) -0.0009(8) -0.0643(5)
O17 O 0.8998(6) 0.3041(12) 0.6970(9)
N5 N 0.5626(8) 0.2208(19) 0.5907(13)
H25 H 0.5402 0.2044 0.5492
C35 C 0.5542(14) 0.244(3) 0.691(2)
H26 H 0.5179 0.2369 0.7024
H27 H 0.5743 0.1976 0.7274
H28 H 0.5654 0.3107 0.7045
C36 C 0.6262(16) 0.237(5) 0.587(3)
H29 H 0.6367 0.2248 0.5277
H30 H 0.6350 0.3040 0.6038
H31 H 0.6439 0.1910 0.6268
loop_
_geom_bond_atom_site_label_1
_geom_bond_atom_site_label_2
_geom_bond_site_symmetry_1
_geom_bond_site_symmetry_2
Cd1 O4 1_555 1_555
Cd2 O2 1_555 1_555
Cd3 O1 1_555 1_555
C1 H1 1_555 1_555
O1 C2 1_555 1_555
N1 C8 1_555 1_555
O2 Cd3 1_555 1_555
O3 C17 1_555 1_555
O4 C3 1_555 1_555
C2 O6 1_555 1_555
C3 O11 1_555 1_555
C4 O2 1_555 1_555
C5 H2 1_555 1_555
N2 Cd2 1_555 1_555
N3 C12 1_555 1_555
C6 H3 1_555 1_555
C7 H4 1_555 1_555
C8 C11 1_555 1_555
N4 C1 1_555 1_555
C9 N1 1_555 1_555
H5 C9 1_555 1_555
C10 N1 1_555 1_555
H6 C10 1_555 1_555
C11 H7 1_555 1_555
C12 N4 1_555 1_555
H8 C12 1_555 1_555
C13 H9 1_555 1_555
C14 N3 1_555 1_555
O5 C18 1_555 1_555
O6 Cd3 1_555 1_555
C15 C11 1_555 1_555
H10 C15 1_555 1_555
C16 C6 1_555 1_555
H11 C16 1_555 1_555
C17 C24 1_555 1_555
C18 C22 1_555 1_555
O7 C28 1_555 1_555
O8 C28 1_555 1_555
C19 H12 1_555 1_555
C20 C2 1_555 1_555
C21 O10 1_555 1_555
C22 C26 1_555 1_555
C23 C7 1_555 1_555
O9 C23 1_555 1_555
O10 C33 1_555 1_555
C24 O9 1_555 1_555
H13 C24 1_555 1_555
C25 C27 1_555 1_555
C26 C21 1_555 1_555
H14 C26 1_555 1_555
O11 Cd1 1_555 1_555
C27 C21 1_555 1_555
H15 C27 1_555 1_555
O12 Cd2 1_555 1_555
C28 C25 1_555 1_555
C29 C22 1_555 1_555
H16 C29 1_555 1_555
O13 Cd2 1_555 1_555
C30 H17 1_555 1_555
H18 C30 1_555 1_555
H19 C30 1_555 1_555
C31 C1 1_555 1_555
H20 C31 1_555 1_555
C32 C3 1_555 1_555
O14 Cd3 1_555 1_555
O15 C18 1_555 1_555
C33 C4 1_555 1_555
H21 C33 1_555 1_555
C34 C24 1_555 1_555
H22 C34 1_555 1_555
H23 C34 1_555 1_555
H24 C34 1_555 1_555
O16 C17 1_555 1_555
N5 H25 1_555 1_555
C35 N5 1_555 1_555
H26 C35 1_555 1_555
H27 C35 1_555 1_555
H28 C35 1_555 1_555
C36 N5 1_555 1_555
H29 C36 1_555 1_555
H30 C36 1_555 1_555
H31 C36 1_555 1_555
Cd2A O2A 1_555 1_555
Cd3A O1A 1_555 1_555
C1A H1A 1_555 1_555
O1A C2A 1_555 1_555
N1A C8A 1_555 1_555
O2A Cd3A 1_555 1_555
O3A C17A 1_555 1_555
O4A Cd1 1_555 1_555
C2A O6A 1_555 1_555
C3A O4A 1_555 1_555
C4A O2A 1_555 1_555
C5A H2A 1_555 1_555
N2A Cd2A 1_555 1_555
N3A C12A 1_555 1_555
C6A H3A 1_555 1_555
C7A H4A 1_555 1_555
C8A C11A 1_555 1_555
N4A C1A 1_555 1_555
C9A N1A 1_555 1_555
H5A C9A 1_555 1_555
C10A N1A 1_555 1_555
H6A C10A 1_555 1_555
C11A H7A 1_555 1_555
C12A N4A 1_555 1_555
H8A C12A 1_555 1_555
C13A H9A 1_555 1_555
C14A N3A 1_555 1_555
O5A C18A 1_555 1_555
O6A Cd3A 1_555 1_555
C15A C11A 1_555 1_555
H10A C15A 1_555 1_555
C16A C6A 1_555 1_555
H11A C16A 1_555 1_555
C17A C24A 1_555 1_555
C18A C22A 1_555 1_555
O7A C28A 1_555 1_555
O8A C28A 1_555 1_555
C19A H12A 1_555 1_555
C20A C2A 1_555 1_555
C21A O10A 1_555 1_555
C22A C26A 1_555 1_555
C23A C7A 1_555 1_555
O9A C23A 1_555 1_555
O10A C33A 1_555 1_555
C24A O9A 1_555 1_555
H13A C24A 1_555 1_555
C25A C27A 1_555 1_555
C26A C21A 1_555 1_555
H14A C26A 1_555 1_555
O11A Cd1 1_555 1_555
C27A C21A 1_555 1_555
H15A C27A 1_555 1_555
O12A Cd2A 1_555 1_555
C28A C25A 1_555 1_555
C29A C22A 1_555 1_555
H16A C29A 1_555 1_555
O13A Cd2A 1_555 1_555
C30A H17A 1_555 1_555
H18A C30A 1_555 1_555
H19A C30A 1_555 1_555
C31A C1A 1_555 1_555
H20A C31A 1_555 1_555
C32A C3A 1_555 1_555
O14A Cd3A 1_555 1_555
O15A C18A 1_555 1_555
C33A C4A 1_555 1_555
H21A C33A 1_555 1_555
C34A C24A 1_555 1_555
H22A C34A 1_555 1_555
H23A C34A 1_555 1_555
H24A C34A 1_555 1_555
O16A C17A 1_555 1_555
Cd1B O7A 1_555 1_555
Cd1B_2 O7 1_555 1_555
Cd2_2 N4 1_555 1_555
Cd2A_2 N4A 1_555 1_555
Cd2B O3A 1_555 1_555
Cd2C O3 1_555 1_555
Cd3B O5A 1_555 1_555
Cd3C O5 1_555 1_555
O3B Cd2A 1_555 1_555
O3C Cd2 1_555 1_555
N4_2 Cd2 1_555 1_555
N4A_2 Cd2A 1_555 1_555
O5B Cd3A 1_555 1_555
O5C Cd3 1_555 1_555
O7B Cd1 1_555 1_555
O7C Cd1 1_555 1_555
O8B Cd1 1_555 1_555
O8C Cd1 1_555 1_555
O15B Cd3A 1_555 1_555
O15C Cd3 1_555 1_555
O16B Cd2A 1_555 1_555
O16C Cd2 1_555 1_555
Cd3 O16C 1_555 1_555
C4 O13 1_555 1_555
C5 N2 1_555 1_555
C5 C9 1_555 1_555
N2 C10 1_555 1_555
N3 C31 1_555 1_555
C6 C14 1_555 1_555
C7 C32 1_555 1_555
C8 C16 1_555 1_555
C13 C20 1_555 1_555
C13 C32 1_555 1_555
C14 C15 1_555 1_555
O8 Cd1B_2 1_555 1_555
C19 C20 1_555 1_555
C19 C23 1_555 1_555
C25 C29 1_555 1_555
C30 C33 1_555 1_555
O15 Cd3C 1_555 1_555
O16 Cd2C 1_555 1_555
O16 Cd3C 1_555 1_555
Cd3A O16B 1_555 1_555
C3A O11A 1_555 1_555
C4A O13A 1_555 1_555
C5A N2A 1_555 1_555
C5A C9A 1_555 1_555
N2A C10A 1_555 1_555
N3A C31A 1_555 1_555
C6A C14A 1_555 1_555
C7A C32A 1_555 1_555
C8A C16A 1_555 1_555
C13A C20A 1_555 1_555
C13A C32A 1_555 1_555
C14A C15A 1_555 1_555
O8A Cd1B 1_555 1_555
C19A C20A 1_555 1_555
C19A C23A 1_555 1_555
C25A C29A 1_555 1_555
C30A C33A 1_555 1_555
O15A Cd3B 1_555 1_555
O16A Cd2B 1_555 1_555
O16A Cd3B 1_555 1_555

#END
