
#######################################################################
#
#                 Cambridge Crystallographic Data Centre
#                                CCDC 
#
#######################################################################
#
# If this CIF has been generated from an entry in the Cambridge 
# Structural Database, then it will include bibliographic, chemical, 
# crystal, experimental, refinement or atomic coordinate data resulting 
# from the CCDC's data processing and validation procedures.
#
#######################################################################

data_PAXWOB
_chemical_formula_moiety         '(C2 H12 N1 O13 P4 Zn3 1-)n'
_symmetry_cell_setting           orthorhombic
_symmetry_space_group_name_H-M   'F d d 2'
_symmetry_Int_Tables_number      43
_space_group_name_Hall           'F 2 -2d'
loop_
_symmetry_equiv_pos_site_id
_symmetry_equiv_pos_as_xyz
1 x,y,z
2 -x,-y,z
3 1/4+x,1/4-y,1/4+z
4 1/4-x,1/4+y,1/4+z
5 x,1/2+y,1/2+z
6 -x,1/2-y,1/2+z
7 1/4+x,3/4-y,3/4+z
8 1/4-x,3/4+y,3/4+z
9 1/2+x,y,1/2+z
10 1/2-x,-y,1/2+z
11 3/4+x,1/4-y,3/4+z
12 3/4-x,1/4+y,3/4+z
13 1/2+x,1/2+y,z
14 1/2-x,1/2-y,z
15 3/4+x,3/4-y,1/4+z
16 3/4-x,3/4+y,1/4+z
_cell_length_a                   28.528(8)
_cell_length_b                   8.426(3)
_cell_length_c                   16.159(5)
_cell_angle_alpha                90
_cell_angle_beta                 90
_cell_angle_gamma                90
_cell_volume                     3884.25
loop_
_atom_site_label
_atom_site_type_symbol
_atom_site_fract_x
_atom_site_fract_y
_atom_site_fract_z
Zn1 Zn 0.0000 0.0000 0.50018(3)
Zn2 Zn 0.122610(15) 0.25865(5) 0.23405(3)
O1 O 0.05331(11) 0.0649(4) 0.4336(2)
O2 O 0.07547(11) 0.2449(4) 0.3171(2)
O3 O 0.10473(10) 0.2945(3) 0.46288(19)
O4 O 0.09382(10) -0.1769(4) 0.62941(17)
O5 O 0.07814(10) -0.3395(4) 0.5015(2)
O6 O 0.01282(9) -0.1857(3) 0.56638(18)
P1 P 0.06586(3) 0.23337(13) 0.40852(6)
H1 H 0.0291(9) 0.323(4) 0.425(2)
P2 P 0.05834(4) -0.27520(13) 0.58173(6)
H2 H 0.0476(14) -0.401(3) 0.626(2)
Zn2A Zn -0.122610(15) -0.25865(5) 0.23405(3)
Zn2C Zn 0.127390(15) 0.50865(5) 0.48405(3)
Zn2D Zn 0.122610(15) -0.24135(5) 0.73405(3)
Zn2C_2 Zn 0.127390(15) -0.49135(5) 0.48405(3)
Zn2N Zn -0.127390(15) -0.50865(5) 0.48405(3)
Zn2E Zn -0.122610(15) 0.24135(5) 0.73405(3)
Zn2N_2 Zn -0.127390(15) 0.49135(5) 0.48405(3)
O1A O -0.05331(11) -0.0649(4) 0.4336(2)
O2A O -0.07547(11) -0.2449(4) 0.3171(2)
O3A O -0.10473(10) -0.2945(3) 0.46288(19)
O3G O 0.14527(10) 0.0445(3) 0.21288(19)
O3J O -0.14527(10) -0.0445(3) 0.21288(19)
O4A O -0.09382(10) 0.1769(4) 0.62941(17)
O4D O 0.09382(10) 0.3231(4) 0.12941(17)
O4E O -0.09382(10) -0.3231(4) 0.12941(17)
O5A O -0.07814(10) 0.3395(4) 0.5015(2)
O5G O 0.17186(10) 0.4105(4) 0.2515(2)
O5J O -0.17186(10) -0.4105(4) 0.2515(2)
O6A O -0.01282(9) 0.1857(3) 0.56638(18)
P1A P -0.06586(3) -0.23337(13) 0.40852(6)
H1A H -0.0291(9) -0.323(4) 0.425(2)
P2A P -0.05834(4) 0.27520(13) 0.58173(6)
H2A H -0.0476(14) 0.401(3) 0.626(2)
O7 O 0.34937(12) 0.4145(5) 0.5745(2)
H3 H 0.3463 0.3595 0.6161
N1 N 0.32026(14) 0.5067(5) 0.4092(2)
H4 H 0.3219 0.4035 0.4206
H5 H 0.3483 0.5411 0.3928
H6 H 0.2994 0.5227 0.3691
C1 C 0.3038(2) 0.4879(7) 0.5532(3)
H7 H 0.2811 0.4045 0.5425
H8 H 0.2927 0.5487 0.6002
C2 C 0.3062(2) 0.5913(8) 0.4814(4)
H9 H 0.2757 0.6389 0.4721
H10 H 0.3284 0.6760 0.4922
loop_
_geom_bond_atom_site_label_1
_geom_bond_atom_site_label_2
_geom_bond_site_symmetry_1
_geom_bond_site_symmetry_2
Zn1 O1 1_555 1_555
Zn2 O2 1_555 1_555
O1 P1 1_555 1_555
O2 P1 1_555 1_555
O3 P1 1_555 1_555
O4 P2 1_555 1_555
O5 P2 1_555 1_555
O6 Zn1 1_555 1_555
P1 H1 1_555 1_555
P2 O6 1_555 1_555
H2 P2 1_555 1_555
O7 H3 1_555 1_555
N1 H4 1_555 1_555
H5 N1 1_555 1_555
H6 N1 1_555 1_555
C1 O7 1_555 1_555
H7 C1 1_555 1_555
H8 C1 1_555 1_555
C2 N1 1_555 1_555
H9 C2 1_555 1_555
H10 C2 1_555 1_555
Zn2A O2A 1_555 1_555
Zn2C O3 1_555 1_555
Zn2D O4 1_555 1_555
Zn2C_2 O5 1_555 1_555
Zn2N O3A 1_555 1_555
Zn2E O4A 1_555 1_555
Zn2N_2 O5A 1_555 1_555
O1A Zn1 1_555 1_555
O2A P1A 1_555 1_555
O3A P1A 1_555 1_555
O3G Zn2 1_555 1_555
O3J Zn2A 1_555 1_555
O4A P2A 1_555 1_555
O4D Zn2 1_555 1_555
O4E Zn2A 1_555 1_555
O5A P2A 1_555 1_555
O5G Zn2 1_555 1_555
O5J Zn2A 1_555 1_555
O6A Zn1 1_555 1_555
P1A O1A 1_555 1_555
H1A P1A 1_555 1_555
P2A O6A 1_555 1_555
H2A P2A 1_555 1_555
C1 C2 1_555 1_555

#END
