
#######################################################################
#
#                 Cambridge Crystallographic Data Centre
#                                CCDC 
#
#######################################################################
#
# If this CIF has been generated from an entry in the Cambridge 
# Structural Database, then it will include bibliographic, chemical, 
# crystal, experimental, refinement or atomic coordinate data resulting 
# from the CCDC's data processing and validation procedures.
#
#######################################################################

data_JETJOI
_chemical_formula_moiety         '(C18 H8 N2 Na1 O8 Zn1 1-)n'
_symmetry_cell_setting           monoclinic
_symmetry_space_group_name_H-M   'C 2/c'
_symmetry_Int_Tables_number      15
_space_group_name_Hall           '-C 2yc'
loop_
_symmetry_equiv_pos_site_id
_symmetry_equiv_pos_as_xyz
1 x,y,z
2 1/2+x,1/2+y,z
3 -x,y,1/2-z
4 1/2-x,1/2+y,1/2-z
5 -x,-y,-z
6 1/2-x,1/2-y,-z
7 x,-y,1/2+z
8 1/2+x,1/2-y,1/2+z
_cell_length_a                   13.277(6)
_cell_length_b                   14.323(7)
_cell_length_c                   11.328(6)
_cell_angle_alpha                90.00
_cell_angle_beta                 111.73(2)
_cell_angle_gamma                90.00
_cell_volume                     2001.13
loop_
_atom_site_label
_atom_site_type_symbol
_atom_site_fract_x
_atom_site_fract_y
_atom_site_fract_z
N1 N 0.2717(7) 0.2709(8) 0.9766(7)
C9 C 0.1883(5) 0.3150(5) 1.0066(11)
N1E N 0.2283(7) 0.2291(8) 1.0234(7)
C9E C 0.3117(5) 0.1850(5) 0.9934(11)
Zn1 Zn 0.0000 0.11497(3) 0.7500
Na1 Na 0.0000 0.0000 1.0000
O1 O 0.10944(16) 0.03402(15) 0.8745(2)
C1 C 0.1577(2) -0.0209(2) 0.8233(3)
C2 C 0.2442(2) -0.0820(2) 0.9135(3)
C3 C 0.2943(3) -0.1490(2) 0.8657(3)
H1 H 0.2757 -0.1542 0.7783
O2 O 0.1376(2) -0.0250(2) 0.7084(2)
C4 C 0.2740(3) -0.0734(2) 1.0438(3)
H2 H 0.2414 -0.0284 1.0770
C5 C 0.3716(3) -0.2081(2) 0.9466(4)
C6 C 0.3523(3) -0.1320(3) 1.1243(3)
H3 H 0.3728 -0.1258 1.2118
O3 O 0.3999(3) -0.2863(2) 0.7765(5)
C7 C 0.4000(3) -0.1993(3) 1.0755(4)
H4 H 0.4517 -0.2391 1.1302
C8 C 0.4238(4) -0.2819(3) 0.8947(7)
O4 O 0.4909(3) -0.3354(2) 0.9685(6)
Zn1A Zn 0.5000 -0.38503(3) 0.7500
Zn1A_2 Zn -0.5000 -0.38503(3) 0.7500
Na1F Na 0.0000 0.0000 0.5000
Na1A Na 0.5000 -0.5000 1.0000
Na1G Na -0.5000 -0.5000 0.5000
O1B O -0.10944(16) 0.03402(15) 0.6255(2)
O1D O -0.10944(16) -0.03402(15) 1.1255(2)
C1B C -0.1577(2) -0.0209(2) 0.6767(3)
C2B C -0.2442(2) -0.0820(2) 0.5865(3)
C3B C -0.2943(3) -0.1490(2) 0.6343(3)
H1B H -0.2757 -0.1542 0.7217
O2B O -0.1376(2) -0.0250(2) 0.7916(2)
O2F O 0.1376(2) 0.0250(2) 1.2084(2)
C4B C -0.2740(3) -0.0734(2) 0.4562(3)
H2B H -0.2414 -0.0284 0.4230
C5B C -0.3716(3) -0.2081(2) 0.5534(4)
C6B C -0.3523(3) -0.1320(3) 0.3757(3)
H3B H -0.3728 -0.1258 0.2882
O3B O -0.3999(3) -0.2863(2) 0.7235(5)
O3A O -0.1001(3) 0.2137(2) 0.7765(5)
O3C O 0.1001(3) 0.2137(2) 0.7235(5)
C7B C -0.4000(3) -0.1993(3) 0.4245(4)
H4B H -0.4517 -0.2391 0.3698
C8B C -0.4238(4) -0.2819(3) 0.6053(7)
O4B O -0.4909(3) -0.3354(2) 0.5315(6)
O4A O -0.0091(3) 0.1646(2) 0.9685(6)
O4E O 0.0091(3) -0.1646(2) 1.0315(6)
loop_
_geom_bond_atom_site_label_1
_geom_bond_atom_site_label_2
_geom_bond_site_symmetry_1
_geom_bond_site_symmetry_2
Zn1 O1 1_555 1_555
Na1 O1 1_555 1_555
O1 C1 1_555 1_555
C1 C2 1_555 1_555
C2 C3 1_555 1_555
C3 H1 1_555 1_555
O2 C1 1_555 1_555
C4 C2 1_555 1_555
H2 C4 1_555 1_555
C5 C3 1_555 1_555
C6 C4 1_555 1_555
H3 C6 1_555 1_555
O3 C8 1_555 1_555
C7 C5 1_555 1_555
H4 C7 1_555 1_555
C8 C5 1_555 1_555
O4 C8 1_555 1_555
N1 C9 1_555 1_555
C9 N1E 1_555 1_555
Zn1A O3 1_555 1_555
Zn1A_2 O3B 1_555 1_555
Na1F O2 1_555 1_555
Na1A O4 1_555 1_555
Na1G O4B 1_555 1_555
O1B Zn1 1_555 1_555
O1D Na1 1_555 1_555
C1B O1B 1_555 1_555
C2B C1B 1_555 1_555
C3B C2B 1_555 1_555
H1B C3B 1_555 1_555
O2B Na1 1_555 1_555
O2F Na1 1_555 1_555
C4B C2B 1_555 1_555
H2B C4B 1_555 1_555
C5B C3B 1_555 1_555
C6B C4B 1_555 1_555
H3B C6B 1_555 1_555
O3B C8B 1_555 1_555
O3A Zn1 1_555 1_555
O3C Zn1 1_555 1_555
C7B C5B 1_555 1_555
H4B C7B 1_555 1_555
C8B C5B 1_555 1_555
O4B C8B 1_555 1_555
O4A Na1 1_555 1_555
O4E Na1 1_555 1_555
N1E N1 1_555 1_555
C9E N1 1_555 1_555
C6 C7 1_555 1_555
Na1F O1B 1_555 1_555
C1B O2B 1_555 1_555
C6B C7B 1_555 1_555
N1E C9E 1_555 1_555

#END
