
#######################################################################
#
#                 Cambridge Crystallographic Data Centre
#                                CCDC 
#
#######################################################################
#
# If this CIF has been generated from an entry in the Cambridge 
# Structural Database, then it will include bibliographic, chemical, 
# crystal, experimental, refinement or atomic coordinate data resulting 
# from the CCDC's data processing and validation procedures.
#
#######################################################################

data_ORUKET
_chemical_formula_moiety         '(C84 H60 Mg3 N6 O42 P6 6-)n'
_symmetry_cell_setting           hexagonal
_symmetry_space_group_name_H-M   'P 63/m'
_symmetry_Int_Tables_number      176
_space_group_name_Hall           '-P 6c'
loop_
_symmetry_equiv_pos_site_id
_symmetry_equiv_pos_as_xyz
1 x,y,z
2 x-y,x,1/2+z
3 -y,x-y,z
4 -x,-y,1/2+z
5 -x+y,-x,z
6 y,-x+y,1/2+z
7 -x,-y,-z
8 -x+y,-x,1/2-z
9 y,-x+y,-z
10 x,y,1/2-z
11 x-y,x,-z
12 -y,x-y,1/2-z
_cell_length_a                   18.5710(13)
_cell_length_b                   18.5710(13)
_cell_length_c                   28.8779(15)
_cell_angle_alpha                90
_cell_angle_beta                 90
_cell_angle_gamma                120
_cell_volume                     8625.15
loop_
_atom_site_label
_atom_site_type_symbol
_atom_site_fract_x
_atom_site_fract_y
_atom_site_fract_z
Mg1 Mg 0.46969(14) 0.27738(14) 0.2500
P1 P 0.62764(8) 0.23559(8) -0.03822(4)
O1 O 0.5946(2) 0.1573(2) -0.00479(11)
O2 O 0.6184(2) 0.1928(2) -0.08676(12)
O3 O 0.3774(2) 0.1278(3) 0.17005(14)
O4 O 0.5012(2) 0.2192(2) 0.19891(12)
O5 O 0.2689(4) -0.0387(5) -0.1842(3)
O6 O 0.3369(2) -0.1052(2) -0.19920(14)
O7 O 0.3398(3) 0.1810(3) 0.2500
H1 H 0.3208 0.1693 0.2774
O8 O 0.5905(3) 0.3710(3) 0.2500
H2 H 0.6020 0.3952 0.2762
N1 N 0.5700(3) 0.2753(3) -0.03279(14)
C1 C 0.4549(3) 0.1701(3) 0.16716(18)
C2 C 0.4938(3) 0.1658(3) 0.12324(15)
C3 C 0.4427(3) 0.1218(3) 0.08532(17)
H3 H 0.3853 0.0940 0.0890
C4 C 0.4751(3) 0.1188(3) 0.04338(17)
H4 H 0.4402 0.0907 0.0186
C5 C 0.5618(3) 0.1587(3) 0.03816(16)
C6 C 0.6139(3) 0.2007(3) 0.07542(18)
H5 H 0.6713 0.2256 0.0720
C7 C 0.5807(3) 0.2055(3) 0.11760(17)
H6 H 0.6158 0.2348 0.1421
C8 C 0.3292(4) -0.0508(4) -0.1802(2)
C9 C 0.4039(4) 0.0154(4) -0.1530(2)
C10 C 0.4113(5) 0.0895(6) -0.1401(4)
H7 H 0.3684 0.1001 -0.1469
C11 C 0.4821(6) 0.1502(5) -0.1168(3)
H8 H 0.4875 0.2010 -0.1084
C12 C 0.5422(3) 0.1316(3) -0.10719(17)
C13 C 0.5367(4) 0.0590(4) -0.1181(2)
H9 H 0.5786 0.0479 -0.1101
C14 C 0.4662(4) 0.0007(3) -0.1419(2)
H10 H 0.4618 -0.0497 -0.1504
P1B P 0.76441(8) 0.39205(11) -0.03822(4)
O1B O 0.8427(2) 0.4373(3) -0.00479(11)
O2B O 0.8072(2) 0.4256(3) -0.08676(12)
O3B O 0.8722(3) 0.2496(4) 0.17005(14)
O4B O 0.7808(2) 0.2820(3) 0.19891(12)
O5B O 1.0387(5) 0.3076(6) -0.1842(3)
O6B O 1.1052(2) 0.4421(3) -0.19920(14)
N1B N 0.7247(3) 0.2947(4) -0.03279(14)
C1B C 0.8299(3) 0.2848(4) 0.16716(18)
C2B C 0.8342(3) 0.3280(4) 0.12324(15)
C3B C 0.8782(3) 0.3209(4) 0.08532(17)
H3B H 0.9060 0.2913 0.0890
C4B C 0.8812(3) 0.3563(4) 0.04338(17)
H4B H 0.9093 0.3495 0.0186
C5B C 0.8413(3) 0.4031(4) 0.03816(16)
C6B C 0.7993(3) 0.4132(4) 0.07542(18)
H5B H 0.7744 0.4457 0.0720
C7B C 0.7945(3) 0.3752(4) 0.11760(17)
H6B H 0.7652 0.3810 0.1421
C8B C 1.0508(4) 0.3800(6) -0.1802(2)
C9B C 0.9846(4) 0.3885(6) -0.1530(2)
C10B C 0.9105(6) 0.3218(8) -0.1401(4)
H7B H 0.8999 0.2683 -0.1469
C11B C 0.8498(5) 0.3319(8) -0.1168(3)
H8B H 0.7990 0.2865 -0.1084
C12B C 0.8684(3) 0.4106(4) -0.10719(17)
C13B C 0.9410(4) 0.4777(6) -0.1181(2)
H9B H 0.9521 0.5307 -0.1101
C14B C 0.9993(3) 0.4655(5) -0.1419(2)
H10B H 1.0497 0.5115 -0.1504
P1D P 0.60795(11) 0.37236(8) -0.03822(4)
O1D O 0.5627(3) 0.4054(2) -0.00479(11)
O2D O 0.5744(3) 0.3816(2) -0.08676(12)
O3D O 0.7504(4) 0.6226(2) 0.17005(14)
O4D O 0.7180(3) 0.4988(2) 0.19891(12)
O5D O 0.6924(6) 0.7311(4) -0.1842(3)
O6D O 0.5579(3) 0.6631(2) -0.19920(14)
N1D N 0.7053(4) 0.4300(3) -0.03279(14)
C1D C 0.7152(4) 0.5451(3) 0.16716(18)
C2D C 0.6720(4) 0.5062(3) 0.12324(15)
C3D C 0.6791(4) 0.5573(3) 0.08532(17)
H3D H 0.7087 0.6147 0.0890
C4D C 0.6437(4) 0.5249(3) 0.04338(17)
H4D H 0.6505 0.5598 0.0186
C5D C 0.5969(4) 0.4382(3) 0.03816(16)
C6D C 0.5868(4) 0.3861(3) 0.07542(18)
H5D H 0.5543 0.3287 0.0720
C7D C 0.6248(4) 0.4193(3) 0.11760(17)
H6D H 0.6190 0.3842 0.1421
C8D C 0.6200(6) 0.6708(4) -0.1802(2)
C9D C 0.6115(6) 0.5961(4) -0.1530(2)
C10D C 0.6782(8) 0.5887(5) -0.1401(4)
H7D H 0.7317 0.6316 -0.1469
C11D C 0.6681(8) 0.5179(6) -0.1168(3)
H8D H 0.7135 0.5125 -0.1084
C12D C 0.5894(4) 0.4578(3) -0.10719(17)
C13D C 0.5223(6) 0.4633(4) -0.1181(2)
H9D H 0.4693 0.4214 -0.1101
C14D C 0.5345(5) 0.5338(4) -0.1419(2)
H10D H 0.4885 0.5382 -0.1504
H1I H 0.3208 0.1693 0.2226
H2I H 0.6020 0.3952 0.2238
Mg1B Mg 0.72262(14) 0.19231(20) 0.2500
O7B O 0.8190(3) 0.1588(4) 0.2500
H1B H 0.8307 0.1515 0.2774
O8B O 0.6290(3) 0.2195(4) 0.2500
H2B H 0.6048 0.2068 0.2762
H1K H 0.8307 0.1515 0.2226
H2K H 0.6048 0.2068 0.2238
Mg1D Mg 0.80769(20) 0.53031(14) 0.2500
O7D O 0.8412(4) 0.6602(3) 0.2500
H1D H 0.8485 0.6792 0.2774
O8D O 0.7805(4) 0.4095(3) 0.2500
H2D H 0.7932 0.3980 0.2762
H1G H 0.8485 0.6792 0.2226
H2G H 0.7932 0.3980 0.2238
P1F P 0.37236(8) -0.23559(8) 0.03822(4)
O1F O 0.4054(2) -0.1573(2) 0.00479(11)
O2F O 0.3816(2) -0.1928(2) 0.08676(12)
O3F O 0.6226(2) -0.1278(3) -0.17005(14)
O4F O 0.4988(2) -0.2192(2) -0.19891(12)
O5F O 0.7311(4) 0.0387(5) 0.1842(3)
O6F O 0.6631(2) 0.1052(2) 0.19920(14)
N1F N 0.4300(3) -0.2753(3) 0.03279(14)
C1F C 0.5451(3) -0.1701(3) -0.16716(18)
C2F C 0.5062(3) -0.1658(3) -0.12324(15)
C3F C 0.5573(3) -0.1218(3) -0.08532(17)
H3F H 0.6147 -0.0940 -0.0890
C4F C 0.5249(3) -0.1188(3) -0.04338(17)
H4F H 0.5598 -0.0907 -0.0186
C5F C 0.4382(3) -0.1587(3) -0.03816(16)
C6F C 0.3861(3) -0.2007(3) -0.07542(18)
H5F H 0.3287 -0.2256 -0.0720
C7F C 0.4193(3) -0.2055(3) -0.11760(17)
H6F H 0.3842 -0.2348 -0.1421
C8F C 0.6708(4) 0.0508(4) 0.1802(2)
C9F C 0.5961(4) -0.0154(4) 0.1530(2)
C10F C 0.5887(5) -0.0895(6) 0.1401(4)
H7F H 0.6316 -0.1001 0.1469
C11F C 0.5179(6) -0.1502(5) 0.1168(3)
H8F H 0.5125 -0.2010 0.1084
C12F C 0.4578(3) -0.1316(3) 0.10719(17)
C13F C 0.4633(4) -0.0590(4) 0.1181(2)
H9F H 0.4214 -0.0479 0.1101
C14F C 0.5338(4) -0.0007(3) 0.1419(2)
H10F H 0.5382 0.0497 0.1504
P1H P 0.23559(8) -0.39205(11) 0.03822(4)
O1H O 0.1573(2) -0.4373(3) 0.00479(11)
O2H O 0.1928(2) -0.4256(3) 0.08676(12)
O3H O 0.1278(3) -0.2496(4) -0.17005(14)
O4H O 0.2192(2) -0.2820(3) -0.19891(12)
O5H O -0.0387(5) -0.3076(6) 0.1842(3)
O6H O -0.1052(2) -0.4421(3) 0.19920(14)
N1H N 0.2753(3) -0.2947(4) 0.03279(14)
C1H C 0.1701(3) -0.2848(4) -0.16716(18)
C2H C 0.1658(3) -0.3280(4) -0.12324(15)
C3H C 0.1218(3) -0.3209(4) -0.08532(17)
H3H H 0.0940 -0.2913 -0.0890
C4H C 0.1188(3) -0.3563(4) -0.04338(17)
H4H H 0.0907 -0.3495 -0.0186
C5H C 0.1587(3) -0.4031(4) -0.03816(16)
C6H C 0.2007(3) -0.4132(4) -0.07542(18)
H5H H 0.2256 -0.4457 -0.0720
C7H C 0.2055(3) -0.3752(4) -0.11760(17)
H6H H 0.2348 -0.3810 -0.1421
C8H C -0.0508(4) -0.3800(6) 0.1802(2)
C9H C 0.0154(4) -0.3885(6) 0.1530(2)
C10H C 0.0895(6) -0.3218(8) 0.1401(4)
H7H H 0.1001 -0.2683 0.1469
C11H C 0.1502(5) -0.3319(8) 0.1168(3)
H8H H 0.2010 -0.2865 0.1084
C12H C 0.1316(3) -0.4106(4) 0.10719(17)
C13H C 0.0590(4) -0.4777(6) 0.1181(2)
H9H H 0.0479 -0.5307 0.1101
C14H C 0.0007(3) -0.4655(5) 0.1419(2)
H10H H -0.0497 -0.5115 0.1504
P1J P 0.39205(11) -0.37236(8) 0.03822(4)
O1J O 0.4373(3) -0.4054(2) 0.00479(11)
O2J O 0.4256(3) -0.3816(2) 0.08676(12)
O3J O 0.2496(4) -0.6226(2) -0.17005(14)
O4J O 0.2820(3) -0.4988(2) -0.19891(12)
O5J O 0.3076(6) -0.7311(4) 0.1842(3)
O6J O 0.4421(3) -0.6631(2) 0.19920(14)
N1J N 0.2947(4) -0.4300(3) 0.03279(14)
C1J C 0.2848(4) -0.5451(3) -0.16716(18)
C2J C 0.3280(4) -0.5062(3) -0.12324(15)
C3J C 0.3209(4) -0.5573(3) -0.08532(17)
H3J H 0.2913 -0.6147 -0.0890
C4J C 0.3563(4) -0.5249(3) -0.04338(17)
H4J H 0.3495 -0.5598 -0.0186
C5J C 0.4031(4) -0.4382(3) -0.03816(16)
C6J C 0.4132(4) -0.3861(3) -0.07542(18)
H5J H 0.4457 -0.3287 -0.0720
C7J C 0.3752(4) -0.4193(3) -0.11760(17)
H6J H 0.3810 -0.3842 -0.1421
C8J C 0.3800(6) -0.6708(4) 0.1802(2)
C9J C 0.3885(6) -0.5961(4) 0.1530(2)
C10J C 0.3218(8) -0.5887(5) 0.1401(4)
H7J H 0.2683 -0.6316 0.1469
C11J C 0.3319(8) -0.5179(6) 0.1168(3)
H8J H 0.2865 -0.5125 0.1084
C12J C 0.4106(4) -0.4578(3) 0.10719(17)
C13J C 0.4777(6) -0.4633(4) 0.1181(2)
H9J H 0.5307 -0.4214 0.1101
C14J C 0.4655(5) -0.5338(4) 0.1419(2)
H10J H 0.5115 -0.5382 0.1504
Mg1_2 Mg 0.46969(14) -0.72262(14) 0.2500
Mg1A Mg 0.19231(20) -0.53031(14) -0.2500
Mg1A_2 Mg 1.19231(20) 0.46969(14) -0.2500
Mg1C Mg 0.53031(14) -0.27738(14) -0.2500
Mg1C_2 Mg 0.53031(14) 0.72262(14) -0.2500
Mg1D_2 Mg -0.19231(20) -0.46969(14) 0.2500
Mg1E Mg 0.27738(14) -0.19231(20) -0.2500
O4G O 0.7180(3) 0.4988(2) 0.30109(12)
O4I O 0.5012(2) 0.2192(2) 0.30109(12)
O4K O 0.7808(2) 0.2820(3) 0.30109(12)
O6A O 0.4421(3) 0.3369(2) 0.30080(14)
O6C O 0.6631(2) 0.1052(2) 0.30080(14)
O6E O 0.8948(2) 0.5579(3) 0.30080(14)
O6H_2 O 0.8948(2) 0.5579(3) 0.19920(14)
O6J_2 O 0.4421(3) 0.3369(2) 0.19920(14)
loop_
_geom_bond_atom_site_label_1
_geom_bond_atom_site_label_2
_geom_bond_site_symmetry_1
_geom_bond_site_symmetry_2
Mg1 O4 1_555 1_555
P1 O1 1_555 1_555
O1 C5 1_555 1_555
O2 P1 1_555 1_555
O3 C1 1_555 1_555
O4 C1 1_555 1_555
O5 C8 1_555 1_555
O6 C8 1_555 1_555
O7 Mg1 1_555 1_555
H1 O7 1_555 1_555
O8 Mg1 1_555 1_555
H2 O8 1_555 1_555
N1 P1 1_555 1_555
C1 C2 1_555 1_555
C2 C3 1_555 1_555
C3 H3 1_555 1_555
C4 C3 1_555 1_555
H4 C4 1_555 1_555
C5 C4 1_555 1_555
C6 C5 1_555 1_555
H5 C6 1_555 1_555
C7 C2 1_555 1_555
H6 C7 1_555 1_555
C8 C9 1_555 1_555
C9 C10 1_555 1_555
C10 H7 1_555 1_555
C11 C10 1_555 1_555
H8 C11 1_555 1_555
C12 O2 1_555 1_555
C13 C12 1_555 1_555
H9 C13 1_555 1_555
C14 C9 1_555 1_555
H10 C14 1_555 1_555
P1B O1B 1_555 1_555
O1B C5B 1_555 1_555
O2B P1B 1_555 1_555
O3B C1B 1_555 1_555
O4B C1B 1_555 1_555
O5B C8B 1_555 1_555
O6B C8B 1_555 1_555
N1B P1 1_555 1_555
C1B C2B 1_555 1_555
C2B C3B 1_555 1_555
C3B H3B 1_555 1_555
C4B C3B 1_555 1_555
H4B C4B 1_555 1_555
C5B C4B 1_555 1_555
C6B C5B 1_555 1_555
H5B C6B 1_555 1_555
C7B C2B 1_555 1_555
H6B C7B 1_555 1_555
C8B C9B 1_555 1_555
C9B C10B 1_555 1_555
C10B H7B 1_555 1_555
C11B C10B 1_555 1_555
H8B C11B 1_555 1_555
C12B O2B 1_555 1_555
C13B C12B 1_555 1_555
H9B C13B 1_555 1_555
C14B C9B 1_555 1_555
H10B C14B 1_555 1_555
P1D N1 1_555 1_555
O1D P1D 1_555 1_555
O2D P1D 1_555 1_555
O3D C1D 1_555 1_555
O4D C1D 1_555 1_555
O5D C8D 1_555 1_555
O6D C8D 1_555 1_555
N1D P1B 1_555 1_555
C1D C2D 1_555 1_555
C2D C3D 1_555 1_555
C3D H3D 1_555 1_555
C4D C3D 1_555 1_555
H4D C4D 1_555 1_555
C5D O1D 1_555 1_555
C6D C5D 1_555 1_555
H5D C6D 1_555 1_555
C7D C2D 1_555 1_555
H6D C7D 1_555 1_555
C8D C9D 1_555 1_555
C9D C10D 1_555 1_555
C10D H7D 1_555 1_555
C11D C10D 1_555 1_555
H8D C11D 1_555 1_555
C12D O2D 1_555 1_555
C13D C12D 1_555 1_555
H9D C13D 1_555 1_555
C14D C9D 1_555 1_555
H10D C14D 1_555 1_555
H1I O7 1_555 1_555
H2I O8 1_555 1_555
Mg1B O4B 1_555 1_555
O7B Mg1B 1_555 1_555
H1B O7B 1_555 1_555
O8B Mg1B 1_555 1_555
H2B O8B 1_555 1_555
H1K O7B 1_555 1_555
H2K O8B 1_555 1_555
Mg1D O4D 1_555 1_555
O7D Mg1D 1_555 1_555
H1D O7D 1_555 1_555
O8D Mg1D 1_555 1_555
H2D O8D 1_555 1_555
H1G O7D 1_555 1_555
H2G O8D 1_555 1_555
P1F O1F 1_555 1_555
O1F C5F 1_555 1_555
O2F P1F 1_555 1_555
O3F C1F 1_555 1_555
O4F C1F 1_555 1_555
O5F C8F 1_555 1_555
O6F Mg1B 1_555 1_555
N1F P1F 1_555 1_555
C1F C2F 1_555 1_555
C2F C3F 1_555 1_555
C3F H3F 1_555 1_555
C4F C3F 1_555 1_555
H4F C4F 1_555 1_555
C5F C4F 1_555 1_555
C6F C5F 1_555 1_555
H5F C6F 1_555 1_555
C7F C2F 1_555 1_555
H6F C7F 1_555 1_555
C8F O6F 1_555 1_555
C9F C8F 1_555 1_555
C10F C9F 1_555 1_555
H7F C10F 1_555 1_555
C11F C10F 1_555 1_555
H8F C11F 1_555 1_555
C12F O2F 1_555 1_555
C13F C12F 1_555 1_555
H9F C13F 1_555 1_555
C14F C9F 1_555 1_555
H10F C14F 1_555 1_555
P1H O1H 1_555 1_555
O1H C5H 1_555 1_555
O2H P1H 1_555 1_555
O3H C1H 1_555 1_555
O4H C1H 1_555 1_555
O5H C8H 1_555 1_555
O6H C8H 1_555 1_555
N1H P1F 1_555 1_555
C1H C2H 1_555 1_555
C2H C3H 1_555 1_555
C3H H3H 1_555 1_555
C4H C3H 1_555 1_555
H4H C4H 1_555 1_555
C5H C4H 1_555 1_555
C6H C5H 1_555 1_555
H5H C6H 1_555 1_555
C7H C2H 1_555 1_555
H6H C7H 1_555 1_555
C8H C9H 1_555 1_555
C9H C10H 1_555 1_555
C10H H7H 1_555 1_555
C11H C10H 1_555 1_555
H8H C11H 1_555 1_555
C12H O2H 1_555 1_555
C13H C12H 1_555 1_555
H9H C13H 1_555 1_555
C14H C9H 1_555 1_555
H10H C14H 1_555 1_555
P1J N1F 1_555 1_555
O1J P1J 1_555 1_555
O2J P1J 1_555 1_555
O3J C1J 1_555 1_555
O4J C1J 1_555 1_555
O5J C8J 1_555 1_555
O6J C8J 1_555 1_555
N1J P1H 1_555 1_555
C1J C2J 1_555 1_555
C2J C3J 1_555 1_555
C3J H3J 1_555 1_555
C4J C3J 1_555 1_555
H4J C4J 1_555 1_555
C5J O1J 1_555 1_555
C6J C5J 1_555 1_555
H5J C6J 1_555 1_555
C7J C2J 1_555 1_555
H6J C7J 1_555 1_555
C8J C9J 1_555 1_555
C9J C10J 1_555 1_555
C10J H7J 1_555 1_555
C11J C10J 1_555 1_555
H8J C11J 1_555 1_555
C12J O2J 1_555 1_555
C13J C12J 1_555 1_555
H9J C13J 1_555 1_555
C14J C9J 1_555 1_555
H10J C14J 1_555 1_555
Mg1_2 O6J 1_555 1_555
Mg1A O4J 1_555 1_555
Mg1A_2 O6B 1_555 1_555
Mg1C O4F 1_555 1_555
Mg1C_2 O6D 1_555 1_555
Mg1D_2 O6H 1_555 1_555
Mg1E O6 1_555 1_555
O4G Mg1D 1_555 1_555
O4I Mg1 1_555 1_555
O4K Mg1B 1_555 1_555
O6A Mg1 1_555 1_555
O6C Mg1B 1_555 1_555
O6E Mg1D 1_555 1_555
O6H_2 Mg1D 1_555 1_555
O6J_2 Mg1 1_555 1_555
C6 C7 1_555 1_555
C11 C12 1_555 1_555
C13 C14 1_555 1_555
P1B N1B 1_555 1_555
C6B C7B 1_555 1_555
C11B C12B 1_555 1_555
C13B C14B 1_555 1_555
P1D N1D 1_555 1_555
C4D C5D 1_555 1_555
C6D C7D 1_555 1_555
C11D C12D 1_555 1_555
C13D C14D 1_555 1_555
C6F C7F 1_555 1_555
C11F C12F 1_555 1_555
C13F C14F 1_555 1_555
P1H N1H 1_555 1_555
O4H Mg1E 1_555 1_555
C6H C7H 1_555 1_555
C11H C12H 1_555 1_555
C13H C14H 1_555 1_555
P1J N1J 1_555 1_555
C4J C5J 1_555 1_555
C6J C7J 1_555 1_555
C11J C12J 1_555 1_555
C13J C14J 1_555 1_555

#END
