
#######################################################################
#
#                 Cambridge Crystallographic Data Centre
#                                CCDC 
#
#######################################################################
#
# If this CIF has been generated from an entry in the Cambridge 
# Structural Database, then it will include bibliographic, chemical, 
# crystal, experimental, refinement or atomic coordinate data resulting 
# from the CCDC's data processing and validation procedures.
#
#######################################################################

data_WUHMAP
_chemical_formula_moiety         '(C6 H24 Cd2 N2 O12 P2)n'
_symmetry_cell_setting           rhombohedral
_symmetry_space_group_name_H-M   'R -3'
_symmetry_Int_Tables_number      148
_space_group_name_Hall           '-R 3'
loop_
_symmetry_equiv_pos_site_id
_symmetry_equiv_pos_as_xyz
1 x,y,z
2 -x+y,-x,z
3 -y,x-y,z
4 2/3+x,1/3+y,1/3+z
5 2/3-x+y,1/3-x,1/3+z
6 2/3-y,1/3+x-y,1/3+z
7 1/3+x,2/3+y,2/3+z
8 1/3-x+y,2/3-x,2/3+z
9 1/3-y,2/3+x-y,2/3+z
10 -x,-y,-z
11 x-y,x,-z
12 y,-x+y,-z
13 1/3-x,2/3-y,2/3-z
14 1/3+x-y,2/3+x,2/3-z
15 1/3+y,2/3-x+y,2/3-z
16 2/3-x,1/3-y,1/3-z
17 2/3+x-y,1/3+x,1/3-z
18 2/3+y,1/3-x+y,1/3-z
_cell_length_a                   27.4100(8)
_cell_length_b                   27.4100(8)
_cell_length_c                   6.7279(2)
_cell_angle_alpha                90
_cell_angle_beta                 90
_cell_angle_gamma                120
_cell_volume                     4377.52
loop_
_atom_site_label
_atom_site_type_symbol
_atom_site_fract_x
_atom_site_fract_y
_atom_site_fract_z
_atom_site_U_iso_or_equiv
_atom_site_thermal_displace_type
Cd1 Cd 0.30384(14) 0.03606(14) -0.3202(6) 0.0117 Uiso
P1 P 0.4273(4) 0.0388(6) -0.470(2) 0.0117 Uiso
O1 O 0.4815(9) 0.0864(11) -0.538(4) 0.0117 Uiso
O2 O 0.3962(10) 0.0554(10) -0.322(4) 0.0117 Uiso
O3 O 0.3901(11) 0.0074(10) -0.645(4) 0.0117 Uiso
O4 O 0.2104(15) 0.0094(13) -0.238(4) 0.0608 Uiso
N1 N 0.4590(14) 0.0020(13) -0.130(4) 0.0117 Uiso
C1 C 0.4406(14) -0.0141(16) -0.344(5) 0.0117 Uiso
C2 C 0.4510(15) -0.0538(15) -0.052(5) 0.0117 Uiso
C3 C 0.5223(15) 0.0428(19) -0.155(5) 0.0117 Uiso
P1I P 0.5727(4) -0.0388(6) 0.470(2) 0.0117 Uiso
O1I O 0.5185(9) -0.0864(11) 0.538(4) 0.0117 Uiso
O2I O 0.6038(10) -0.0554(10) 0.322(4) 0.0117 Uiso
O3I O 0.6099(11) -0.0074(10) 0.645(4) 0.0117 Uiso
N1I N 0.5410(14) -0.0020(13) 0.130(4) 0.0117 Uiso
C1I C 0.5594(14) 0.0141(16) 0.344(5) 0.0117 Uiso
C2I C 0.5490(15) 0.0538(15) 0.052(5) 0.0117 Uiso
C3I C 0.4777(15) -0.0428(19) 0.155(5) 0.0117 Uiso
Cd1I Cd 0.69616(14) -0.03606(14) 0.3202(6) 0.0117 Uiso
O4I O 0.7896(15) -0.0094(13) 0.238(4) 0.0608 Uiso
Cd1D Cd 0.39889(20) 0.02949(14) -0.9869(6) 0.0117 Uiso
Cd1D_2 Cd 0.39889(20) 0.02949(14) 0.0131(6) 0.0117 Uiso
Cd1Q Cd 0.70273(14) 0.06555(20) 0.6535(6) 0.0117 Uiso
Cd1H Cd 0.29727(14) -0.06555(20) -0.6535(6) 0.0117 Uiso
Cd1M Cd 0.60111(20) -0.02949(14) -0.0131(6) 0.0117 Uiso
Cd1M_2 Cd 0.60111(20) -0.02949(14) 0.9869(6) 0.0117 Uiso
O2Q O 0.7221(10) -0.0075(14) 0.655(4) 0.0117 Uiso
O2H O 0.2779(10) 0.0075(14) -0.655(4) 0.0117 Uiso
O3D O 0.2840(15) -0.0568(11) -0.312(4) 0.0117 Uiso
O3Q O 0.6741(10) -0.0494(15) -0.022(4) 0.0117 Uiso
O3H O 0.3259(10) 0.0494(15) 0.022(4) 0.0117 Uiso
O3M O 0.7160(15) 0.0568(11) 0.312(4) 0.0117 Uiso
N1Q N 0.6687(13) -0.1237(19) 0.463(4) 0.0117 Uiso
N1H N 0.3313(13) 0.1237(19) -0.463(4) 0.0117 Uiso
O5 O 0.2824(21) 0.5722(14) 0.281(6) 0.0912 Uiso
O6 O 0.0835(19) 0.1747(25) 0.823(8) 0.0912 Uiso
O7 O 0.310(2) 0.592(3) 0.780(6) 0.0912 Uiso
O8 O 0.2013(16) 0.5218(19) 0.060(6) 0.0912 Uiso
loop_
_geom_bond_atom_site_label_1
_geom_bond_atom_site_label_2
_geom_bond_site_symmetry_1
_geom_bond_site_symmetry_2
Cd1 O2 1_555 1_555
P1 O1 1_555 1_555
O2 P1 1_555 1_555
O3 P1 1_555 1_555
O4 Cd1 1_555 1_555
N1 C1 1_555 1_555
C1 P1 1_555 1_555
C2 N1 1_555 1_555
C3 N1 1_555 1_555
P1I O1I 1_555 1_555
O2I P1I 1_555 1_555
O3I P1I 1_555 1_555
N1I C1I 1_555 1_555
C1I P1I 1_555 1_555
C2I C3 1_555 1_555
C3I C2 1_555 1_555
Cd1I O2I 1_555 1_555
O4I Cd1I 1_555 1_555
Cd1D O3 1_555 1_555
Cd1D_2 O2 1_555 1_555
Cd1Q O3I 1_555 1_555
Cd1H O3 1_555 1_555
Cd1M O2I 1_555 1_555
Cd1M_2 O3I 1_555 1_555
O2Q Cd1I 1_555 1_555
O2H Cd1 1_555 1_555
O3D Cd1 1_555 1_555
O3Q Cd1I 1_555 1_555
O3H Cd1 1_555 1_555
O3M Cd1I 1_555 1_555
N1Q Cd1I 1_555 1_555
N1H Cd1 1_555 1_555
N1 Cd1D_2 1_555 1_555
N1I C2I 1_555 1_555
N1I C3I 1_555 1_555
N1I Cd1M 1_555 1_555
Cd1D_2 O3H 1_555 1_555
Cd1Q O2Q 1_555 1_555
Cd1Q O3M 1_555 1_555
Cd1H O2H 1_555 1_555
Cd1H O3D 1_555 1_555
Cd1M O3Q 1_555 1_555

#END
