
#######################################################################
#
#                 Cambridge Crystallographic Data Centre
#                                CCDC 
#
#######################################################################
#
# If this CIF has been generated from an entry in the Cambridge 
# Structural Database, then it will include bibliographic, chemical, 
# crystal, experimental, refinement or atomic coordinate data resulting 
# from the CCDC's data processing and validation procedures.
#
#######################################################################

data_COMDOY
_chemical_formula_moiety         '(C13 H10 Ga1 N1 O5)n'
_symmetry_cell_setting           orthorhombic
_symmetry_space_group_name_H-M   'I m m a'
_symmetry_Int_Tables_number      74
_space_group_name_Hall           '-I 2b 2'
loop_
_symmetry_equiv_pos_site_id
_symmetry_equiv_pos_as_xyz
1 x,y,z
2 -x,1/2-y,z
3 -x,1/2+y,-z
4 x,-y,-z
5 1/2+x,1/2+y,1/2+z
6 1/2-x,-y,1/2+z
7 1/2-x,y,1/2-z
8 1/2+x,1/2-y,1/2-z
9 -x,-y,-z
10 x,1/2+y,-z
11 x,1/2-y,z
12 -x,y,z
13 1/2-x,1/2-y,1/2-z
14 1/2+x,y,1/2-z
15 1/2+x,-y,1/2+z
16 1/2-x,1/2+y,1/2+z
_cell_length_a                   18.23(2)
_cell_length_b                   6.734(8)
_cell_length_c                   11.062(12)
_cell_angle_alpha                90
_cell_angle_beta                 90
_cell_angle_gamma                90
_cell_volume                     1357.98
loop_
_atom_site_label
_atom_site_type_symbol
_atom_site_fract_x
_atom_site_fract_y
_atom_site_fract_z
_atom_site_U_iso_or_equiv
_atom_site_thermal_displace_type
Ga1 Ga 0.0000 0.0000 0.5000 0.0269 Uani
O1 O 0.0000 0.2500 0.5792(6) 0.0297 Uani
H1 H -0.0000 0.2500 0.653(2) 0.0450 Uiso
O2 O 0.0790(3) 0.0892(10) 0.3885(5) 0.0607 Uani
C1 C 0.1813(4) 0.2500 0.3052(8) 0.0387 Uani
C2 C 0.1058(4) 0.2500 0.3661(7) 0.0447 Uani
C3 C 0.2153(4) 0.0791(17) 0.2776(9) 0.0717 Uani
H2 H 0.1926 -0.0411 0.2952 0.0860 Uiso
Ga1A Ga 0.0000 0.5000 0.5000 0.0269 Uani
Ga1E Ga 0.5000 0.0000 0.0000 0.0269 Uani
Ga1D Ga 0.5000 0.5000 0.0000 0.0269 Uani
O1B O 0.0000 -0.2500 0.4208(6) 0.0297 Uani
H1B H 0.0000 -0.2500 0.347(2) 0.0450 Uiso
O2J O 0.0790(3) 0.4108(10) 0.3885(5) 0.0607 Uani
O2F O 0.4210(3) 0.0892(10) 0.1115(5) 0.0607 Uani
O2L O 0.4210(3) 0.4108(10) 0.1115(5) 0.0607 Uani
O2C O 0.0790(3) -0.0892(10) 0.6115(5) 0.0607 Uani
O2H O -0.0790(3) -0.0892(10) 0.6115(5) 0.0607 Uani
O2K O -0.0790(3) 0.0892(10) 0.3885(5) 0.0607 Uani
C1F C 0.3187(4) 0.2500 0.1948(8) 0.0387 Uani
C2F C 0.3942(4) 0.2500 0.1339(7) 0.0447 Uani
C3F C 0.2847(4) 0.0791(17) 0.2224(9) 0.0717 Uani
C3L C 0.2847(4) 0.4209(17) 0.2224(9) 0.0717 Uani
C3J C 0.2153(4) 0.4209(17) 0.2776(9) 0.0717 Uani
H2J H 0.1926 0.5411 0.2952 0.0860 Uiso
H2L H 0.3074 0.5411 0.2048 0.0860 Uiso
H2F H 0.3074 -0.0411 0.2048 0.0860 Uiso
N1 N 0.0000 0.2500 0.827(2) 0.1533 Uani
C4 C 0.057(2) 0.2500 0.887(3) 0.2233 Uani
H3 H 0.1018 0.2500 0.8473 0.2670 Uiso
C5 C 0.056(3) 0.2500 1.017(4) 0.3067 Uani
H4 H 0.1010 0.2500 1.0578 0.3680 Uiso
C6 C 0.0000 0.2500 1.077(5) 0.4533 Uani
H5 H 0.0000 0.2500 1.1608 0.5530 Uiso
C4A C -0.057(2) 0.2500 0.887(3) 0.2233 Uani
H3A H -0.1018 0.2500 0.8473 0.2670 Uiso
C5A C -0.056(3) 0.2500 1.017(4) 0.3067 Uani
H4A H -0.1010 0.2500 1.0578 0.3680 Uiso
loop_
_atom_site_aniso_label
_atom_site_aniso_U_11
_atom_site_aniso_U_22
_atom_site_aniso_U_33
_atom_site_aniso_U_23
_atom_site_aniso_U_13
_atom_site_aniso_U_12
Ga1 0.0075(5) 0.0530(10) 0.0201(6) 0.0001(6) 0.000 0.000
O1 0.016(3) 0.060(6) 0.013(3) 0.000 0.000 0.000
O2 0.046(3) 0.072(4) 0.064(3) -0.020(3) 0.041(3) -0.029(3)
C1 0.014(3) 0.068(7) 0.034(4) 0.000 0.011(3) 0.000
C2 0.010(3) 0.104(10) 0.020(4) 0.000 0.005(3) 0.000
C3 0.056(5) 0.061(6) 0.098(7) -0.007(5) 0.055(5) -0.009(4)
Ga1A 0.0075 0.053 0.0201 -0.0001 0 0
Ga1E 0.0075 0.053 0.0201 -0.0001 0 0
Ga1D 0.0075 0.053 0.0201 0.0001 0 0
O1B 0.016 0.06 0.013 0 0 0
O2J 0.046 0.072 0.064 0.02 0.041 0.029
O2F 0.046 0.072 0.064 0.02 0.041 0.029
O2L 0.046 0.072 0.064 -0.02 0.041 -0.029
O2C 0.046 0.072 0.064 -0.02 -0.041 0.029
O2H 0.046 0.072 0.064 -0.02 0.041 -0.029
O2K 0.046 0.072 0.064 -0.02 -0.041 0.029
C1F 0.014 0.068 0.034 0 0.011 0
C2F 0.01 0.104 0.02 0 0.005 0
C3F 0.056 0.061 0.098 0.007 0.055 0.009
C3L 0.056 0.061 0.098 -0.007 0.055 -0.009
C3J 0.056 0.061 0.098 0.007 0.055 0.009
N1 0.17(4) 0.26(6) 0.030(12) 0.000 0.000 0.000
C4 0.15(4) 0.41(10) 0.11(3) 0.000 0.06(3) 0.000
C5 0.21(5) 0.61(16) 0.10(3) 0.000 -0.08(3) 0.000
C6 0.21(9) 1.1(4) 0.05(3) 0.000 0.000 0.000
C4A 0.15 0.41 0.11 0 -0.06 0
C5A 0.21 0.61 0.1 0 0.08 0
loop_
_geom_bond_atom_site_label_1
_geom_bond_atom_site_label_2
_geom_bond_site_symmetry_1
_geom_bond_site_symmetry_2
Ga1 O1 1_555 1_555
O1 H1 1_555 1_555
O2 Ga1 1_555 1_555
C1 C2 1_555 1_555
C2 O2 1_555 1_555
C3 C1 1_555 1_555
H2 C3 1_555 1_555
N1 C4 1_555 1_555
C4 H3 1_555 1_555
C5 C4 1_555 1_555
H4 C5 1_555 1_555
C6 C5 1_555 1_555
H5 C6 1_555 1_555
Ga1A O1 1_555 1_555
Ga1E O2F 1_555 1_555
Ga1D O2L 1_555 1_555
O1B Ga1 1_555 1_555
H1B O1B 1_555 1_555
O2J C2 1_555 1_555
O2F C2F 1_555 1_555
O2L C2F 1_555 1_555
O2C Ga1 1_555 1_555
O2H Ga1 1_555 1_555
O2K Ga1 1_555 1_555
C1F C2F 1_555 1_555
C3F C3 1_555 1_555
C3L C1F 1_555 1_555
C3J C1 1_555 1_555
H2J C3J 1_555 1_555
H2L C3L 1_555 1_555
H2F C3F 1_555 1_555
C4A N1 1_555 1_555
H3A C4A 1_555 1_555
C5A C6 1_555 1_555
H4A C5A 1_555 1_555
Ga1A O2J 1_555 1_555
C1F C3F 1_555 1_555
C3L C3J 1_555 1_555
C4A C5A 1_555 1_555

#END
