
#######################################################################
#
#                 Cambridge Crystallographic Data Centre
#                                CCDC 
#
#######################################################################
#
# If this CIF has been generated from an entry in the Cambridge 
# Structural Database, then it will include bibliographic, chemical, 
# crystal, experimental, refinement or atomic coordinate data resulting 
# from the CCDC's data processing and validation procedures.
#
#######################################################################

data_SABVOH01
_chemical_formula_moiety         '(C8 H5 Al1 O5)n'
_symmetry_cell_setting           orthorhombic
_symmetry_space_group_name_H-M   'P n m a'
_symmetry_Int_Tables_number      62
_space_group_name_Hall           '-P 2ac 2n'
loop_
_symmetry_equiv_pos_site_id
_symmetry_equiv_pos_as_xyz
1 x,y,z
2 1/2-x,-y,1/2+z
3 -x,1/2+y,-z
4 1/2+x,1/2-y,1/2-z
5 -x,-y,-z
6 1/2+x,y,1/2-z
7 x,1/2-y,z
8 1/2-x,1/2+y,1/2+z
_cell_length_a                   17.019(4)
_cell_length_b                   6.5844(16)
_cell_length_c                   12.262(3)
_cell_angle_alpha                90
_cell_angle_beta                 90
_cell_angle_gamma                90
_cell_volume                     1374.08
loop_
_atom_site_label
_atom_site_type_symbol
_atom_site_fract_x
_atom_site_fract_y
_atom_site_fract_z
_atom_site_U_iso_or_equiv
_atom_site_thermal_displace_type
Al1 Al 0.0000 0.0000 0.0000 0.0128 Uani
O1 O 0.00511(10) -0.2500 0.06418(15) 0.0115 Uani
H1 H 0.017(3) -0.2500 0.1284(14) 0.0900 Uiso
O2 O 0.07230(8) -0.0799(2) -0.10917(12) 0.0235 Uani
O3 O 0.41325(8) -0.0798(2) -0.41394(12) 0.0231 Uani
C1 C 0.38409(15) -0.2500 -0.3901(2) 0.0182 Uani
C2 C 0.30865(16) -0.2500 -0.3277(3) 0.0220 Uani
C3 C 0.27391(14) -0.0683(4) -0.2987(2) 0.0388 Uani
H2 H 0.2966 0.0540 -0.3200 0.0470 Uiso
C4 C 0.09934(15) -0.2500 -0.1371(2) 0.0181 Uani
C5 C 0.17087(16) -0.2500 -0.2077(3) 0.0229 Uani
C6 C 0.20527(14) -0.0682(4) -0.2380(2) 0.0398 Uani
H3 H 0.1823 0.0541 -0.2175 0.0480 Uiso
Al1B Al 0.0000 -0.5000 0.0000 0.0128 Uani
Al1A Al 0.5000 -0.0000 -0.5000 0.0128 Uani
Al1C Al 0.5000 -0.5000 -0.5000 0.0128 Uani
O1B O -0.00511(10) 0.2500 -0.06418(15) 0.0115 Uani
H1B H -0.017(3) 0.2500 -0.1284(14) 0.0900 Uiso
O2F O 0.07230(8) -0.4201(2) -0.10917(12) 0.0235 Uani
O2D O -0.07230(8) 0.0799(2) 0.10917(12) 0.0235 Uani
O3F O 0.41325(8) -0.4202(2) -0.41394(12) 0.0231 Uani
O3A O 0.08675(8) 0.0798(2) 0.08606(12) 0.0231 Uani
O3E O -0.08675(8) -0.0798(2) -0.08606(12) 0.0231 Uani
C3F C 0.27391(14) -0.4317(4) -0.2987(2) 0.0388 Uani
H2F H 0.2966 -0.5540 -0.3200 0.0470 Uiso
C6F C 0.20527(14) -0.4318(4) -0.2380(2) 0.0398 Uani
H3F H 0.1823 -0.5541 -0.2175 0.0480 Uiso
loop_
_atom_site_aniso_label
_atom_site_aniso_U_11
_atom_site_aniso_U_22
_atom_site_aniso_U_33
_atom_site_aniso_U_23
_atom_site_aniso_U_13
_atom_site_aniso_U_12
Al1 0.0098(4) 0.0109(4) 0.0177(4) -0.0007(3) 0.0001(3) 0.0001(3)
O1 0.0127(8) 0.0082(8) 0.0136(9) 0.000 0.0001(7) 0.000
O2 0.0234 0.017 0.0301 0.0014 0.0118 0.0035
O3 0.0188 0.0157 0.0349 -0.0014 0.011 -0.0019
C1 0.0151 0.0189 0.0205 0 0.0027 0
C2 0.0183 0.0179 0.0299 0 0.0085 0
C3 0.0354 0.0145 0.0664 0.0032 0.0306 -0.0005
C4 0.0133 0.0172 0.0239 0 0.0031 0
C5 0.0197 0.0184 0.0306 0 0.0102 0
C6 0.0352 0.0145 0.0696 0.0006 0.0315 0.004
Al1B 0.0098 0.0109 0.0177 0.0007 0.0001 -0.0001
Al1A 0.0098 0.0109 0.0177 0.0007 -0.0001 0.0001
Al1C 0.0098 0.0109 0.0177 -0.0007 -0.0001 -0.0001
O1B 0.0127 0.0082 0.0136 0 0.0001 0
O2F 0.0234 0.017 0.0301 -0.0014 0.0118 -0.0035
O2D 0.0234 0.017 0.0301 0.0014 0.0118 0.0035
O3F 0.0188 0.0157 0.0349 0.0014 0.011 0.0019
O3A 0.0188(7) 0.0157(7) 0.0349(9) 0.0014(6) -0.0110(6) -0.0019(6)
O3E 0.0188 0.0157 0.0349 0.0014 -0.011 -0.0019
C3F 0.0354 0.0145 0.0664 -0.0032 0.0306 0.0005
C6F 0.0352 0.0145 0.0696 -0.0006 0.0315 -0.004
loop_
_geom_bond_atom_site_label_1
_geom_bond_atom_site_label_2
_geom_bond_site_symmetry_1
_geom_bond_site_symmetry_2
Al1 O1 1_555 1_555
O1 H1 1_555 1_555
O2 Al1 1_555 1_555
O3 C1 1_555 1_555
C1 C2 1_555 1_555
C2 C3 1_555 1_555
C3 H2 1_555 1_555
C4 O2 1_555 1_555
C5 C4 1_555 1_555
C6 C3 1_555 1_555
H3 C6 1_555 1_555
Al1B O1 1_555 1_555
Al1A O3 1_555 1_555
Al1C O3F 1_555 1_555
O1B Al1 1_555 1_555
H1B O1B 1_555 1_555
O2F C4 1_555 1_555
O2D Al1 1_555 1_555
O3F C1 1_555 1_555
O3A Al1 1_555 1_555
O3E Al1 1_555 1_555
C3F C2 1_555 1_555
H2F C3F 1_555 1_555
C6F C5 1_555 1_555
H3F C6F 1_555 1_555
C5 C6 1_555 1_555
Al1B O2F 1_555 1_555
C3F C6F 1_555 1_555

#END
