
#######################################################################
#
#                 Cambridge Crystallographic Data Centre
#                                CCDC 
#
#######################################################################
#
# If this CIF has been generated from an entry in the Cambridge 
# Structural Database, then it will include bibliographic, chemical, 
# crystal, experimental, refinement or atomic coordinate data resulting 
# from the CCDC's data processing and validation procedures.
#
#######################################################################

data_ICIKAH
_chemical_formula_moiety         'C236 Cd34 Fe1 N6 S56'
_symmetry_cell_setting           monoclinic
_symmetry_space_group_name_H-M   'C 2/c'
_symmetry_Int_Tables_number      15
_space_group_name_Hall           '-C 2yc'
loop_
_symmetry_equiv_pos_site_id
_symmetry_equiv_pos_as_xyz
1 x,y,z
2 1/2+x,1/2+y,z
3 -x,y,1/2-z
4 1/2-x,1/2+y,1/2-z
5 -x,-y,-z
6 1/2-x,1/2-y,-z
7 x,-y,1/2+z
8 1/2+x,1/2-y,1/2+z
_cell_length_a                   48.250(2)
_cell_length_b                   48.650(2)
_cell_length_c                   35.6515(14)
_cell_angle_alpha                90
_cell_angle_beta                 131.386(2)
_cell_angle_gamma                90
_cell_volume                     62788.1
loop_
_atom_site_label
_atom_site_type_symbol
_atom_site_fract_x
_atom_site_fract_y
_atom_site_fract_z
_atom_site_U_iso_or_equiv
_atom_site_thermal_displace_type
S1 S 0.13134(12) 0.87977(10) 0.77844(16) 0.0600 Uani
S2 S 0.25325(13) 1.03770(9) 0.65911(18) 0.0673 Uani
S3 S 0.25273(14) 0.97003(9) 0.87447(16) 0.0637 Uani
S4 S 0.19300(14) 0.87505(9) 0.93493(18) 0.0608 Uani
S5 S 0.14952(14) 0.96416(10) 0.75905(18) 0.0666 Uani
S6 S 0.08463(13) 0.85390(9) 0.53938(14) 0.0601 Uani
S7 S 0.38351(11) 0.86458(9) 0.76556(15) 0.0517 Uani
S8 S 0.24252(11) 0.98579(9) 0.55623(16) 0.0546 Uani
S9 S 0.22549(11) 0.77226(8) 0.62621(16) 0.0533 Uani
S10 S 0.15338(12) 0.83694(9) 0.52395(14) 0.0579 Uani
S11 S 0.44708(11) 0.79552(10) 0.84611(14) 0.0559 Uani
S12 S 0.31555(11) 0.92687(8) 0.65928(15) 0.0473 Uani
S13 S 0.19956(13) 0.93229(9) 1.02122(17) 0.0566 Uani
S14 S 0.33668(11) 0.78357(8) 0.72912(15) 0.0481 Uani
S15 S 0.55256(10) 0.80385(8) 0.98936(15) 0.0484 Uani
S16 S 0.19788(10) 0.80793(8) 0.86501(13) 0.0425 Uani
S17 S 0.11455(10) 0.90844(8) 0.65091(14) 0.0445 Uani
S18 S 0.11943(11) 0.75586(9) 0.51145(15) 0.0514 Uani
S19 S 0.37510(9) 0.81696(8) 0.96864(12) 0.0373 Uani
S20 S 0.27116(11) 0.84874(8) 0.63373(14) 0.0457 Uani
S21 S 0.48323(15) 0.86465(11) 0.9339(3) 0.1231 Uani
S22 S 0.16478(15) 0.98441(9) 0.6626(2) 0.0731 Uani
S23 S 0.19785(14) 0.91172(11) 0.54206(17) 0.0796 Uani
S24 S 0.15450(13) 0.94569(12) 0.87275(17) 0.0759 Uani
S25 S 0.40960(13) 0.92343(13) 0.8523(2) 0.1036 Uani
S26 S 0.15146(12) 1.00504(10) 0.53490(17) 0.0700 Uani
S27 S 0.25367(14) 1.00707(9) 0.77174(19) 0.0671 Uani
S28 S 0.11900(14) 0.92991(11) 0.54014(17) 0.0839 Uani
S29 S 0.30255(8) 0.86862(6) 0.86275(11) 0.0268 Uani
S30 S 0.15877(8) 0.80083(7) 0.63724(11) 0.0294 Uani
S31 S 0.22812(9) 0.92745(7) 0.76133(12) 0.0324 Uani
S32 S 0.13116(10) 0.71912(8) 0.62689(14) 0.0436 Uani
S33 S 0.26942(8) 0.81887(6) 0.74461(11) 0.0278 Uani
S34 S 0.30529(9) 0.89920(7) 0.75571(12) 0.0298 Uani
S35 S 0.19291(8) 0.84729(7) 0.75403(11) 0.0288 Uani
S36 S 0.19376(9) 0.87776(7) 0.64428(12) 0.0329 Uani
S37 S 0.37681(9) 0.83997(7) 0.85365(12) 0.0304 Uani
S38 S 0.23035(10) 0.95555(7) 0.65384(13) 0.0415 Uani
S39 S 0.22471(9) 0.89979(7) 0.86533(12) 0.0337 Uani
S40 S 0.41122(9) 0.88534(8) 0.96009(14) 0.0443 Uani
S41 S 0.26974(9) 0.78367(7) 0.85441(12) 0.0334 Uani
S42 S 0.24240(10) 0.74098(7) 0.73086(13) 0.0424 Uani
S43 S 0.34054(10) 0.91069(8) 0.98218(12) 0.0409 Uani
S44 S 0.04903(9) 0.77794(7) 0.53616(12) 0.0351 Uani
S45 S 0.45978(9) 0.79247(8) 0.97159(13) 0.0393 Uani
S46 S 0.28742(10) 0.84157(8) 0.95471(13) 0.0392 Uani
S47 S 0.15731(9) 0.76940(7) 0.73381(12) 0.0337 Uani
S48 S 0.32787(11) 0.97836(8) 0.75387(14) 0.0482 Uani
S49 S 0.26926(10) 0.94261(8) 0.99627(13) 0.0431 Uani
S50 S 0.08554(9) 0.82865(7) 0.65561(13) 0.0355 Uani
S51 S 0.35249(9) 0.76746(7) 0.84988(13) 0.0389 Uani
S52 S 0.33957(10) 0.95137(7) 0.87649(13) 0.0426 Uani
Cd1 Cd 0.31145(2) 0.857397(19) 0.80238(3) 0.0277 Uani
Cd2 Cd 0.23719(2) 0.885481(19) 0.80932(3) 0.0287 Uani
Cd3 Cd 0.23929(3) 0.914259(19) 0.70402(3) 0.0312 Uani
Cd4 Cd 0.20517(2) 0.837217(19) 0.69687(3) 0.0280 Uani
Cd5 Cd 0.34817(2) 0.90710(2) 0.91723(3) 0.0321 Uani
Cd6 Cd 0.28342(2) 0.777878(19) 0.79926(3) 0.0307 Uani
Cd7 Cd 0.12939(3) 0.86920(2) 0.70573(4) 0.0357 Uani
Cd8 Cd 0.12778(3) 0.89305(2) 0.59803(4) 0.0415 Uani
Cd9 Cd 0.20873(3) 0.86749(2) 0.58940(4) 0.0420 Uani
Cd10 Cd 0.17749(3) 0.75645(2) 0.68516(4) 0.0355 Uani
Cd11 Cd 0.30476(2) 0.82509(2) 0.90434(3) 0.0311 Uani
Cd12 Cd 0.20630(2) 0.80279(2) 0.80145(3) 0.0318 Uani
Cd13 Cd 0.27352(3) 0.96341(2) 0.82476(4) 0.0435 Uani
Cd14 Cd 0.09403(3) 0.81602(2) 0.59551(4) 0.0330 Uani
Cd15 Cd 0.39159(3) 0.80502(2) 0.91689(3) 0.0343 Uani
Cd16 Cd 0.16221(3) 0.79409(2) 0.57017(4) 0.0406 Uani
Cd17 Cd 0.42036(3) 0.88034(2) 0.89696(4) 0.0424 Uani
Cd18 Cd 0.34462(3) 0.93924(2) 0.81358(4) 0.0401 Uani
Cd19 Cd 0.31664(3) 0.88263(2) 0.69899(4) 0.0400 Uani
Cd20 Cd 0.21822(3) 0.85614(2) 0.89683(4) 0.0444 Uani
Cd21 Cd 0.16205(3) 0.94385(2) 0.70561(4) 0.0452 Uani
Cd22 Cd 0.48404(3) 0.81369(2) 0.93375(4) 0.0373 Uani
Cd23 Cd 0.27674(3) 0.92995(2) 0.93433(4) 0.0409 Uani
Cd24 Cd 0.08616(3) 0.73971(2) 0.53964(4) 0.0384 Uani
Cd25 Cd 0.20634(3) 0.92533(2) 0.95756(4) 0.0432 Uani
Cd26 Cd 0.38323(3) 0.81711(2) 0.79607(4) 0.0414 Uani
Cd27 Cd 0.16276(3) 0.96818(3) 0.59316(4) 0.0545 Uani
Cd28 Cd 0.25008(3) 0.94378(2) 0.60517(4) 0.0506 Uani
Cd29 Cd 0.26327(3) 0.99642(2) 0.71165(4) 0.0531 Uani
Cd30 Cd 0.27512(3) 0.80908(2) 0.68007(4) 0.0384 Uani
Cd31 Cd 0.16459(3) 0.92587(3) 0.81646(4) 0.0496 Uani
Cd32 Cd 0.21257(3) 0.97644(2) 1.06809(5) 0.0545 Uani
C19 C 0.08311(6) 0.77288(4) 0.45541(7) 0.0840 Uiso
C20 C 0.06984(6) 0.76154(5) 0.41039(7) 0.1710 Uiso
C21 C 0.04126(6) 0.77434(5) 0.36552(7) 0.2100 Uiso
C22 C 0.02594(6) 0.79849(5) 0.36567(6) 0.2700 Uiso
C23 C 0.03920(6) 0.80983(5) 0.41069(6) 0.1660 Uiso
C24 C 0.06778(5) 0.79702(4) 0.45556(6) 0.0870 Uiso
C25 C 0.03357(5) 0.76595(4) 0.56691(6) 0.0340 Uiso
C26 C -0.00499(5) 0.76513(4) 0.53794(7) 0.0380 Uiso
C27 C -0.01877(5) 0.75715(4) 0.55999(7) 0.0470 Uiso
C28 C 0.00542(5) 0.75080(4) 0.61224(7) 0.0530 Uiso
C29 C 0.04414(5) 0.75214(4) 0.64064(7) 0.0450 Uiso
C30 C 0.05796(5) 0.76015(4) 0.61809(6) 0.0390 Uiso
C31 C 0.15333(5) 0.69407(4) 0.61783(8) 0.0530 Uiso
C32 C 0.14237(6) 0.66700(4) 0.61300(8) 0.1120 Uiso
C33 C 0.15712(6) 0.64620(4) 0.60390(9) 0.1490 Uiso
C34 C 0.18520(6) 0.65392(4) 0.60455(9) 0.1110 Uiso
C35 C 0.19570(6) 0.68079(4) 0.60694(9) 0.0960 Uiso
C36 C 0.18008(6) 0.70161(4) 0.61559(8) 0.0600 Uiso
C37 C 0.15864(5) 0.73946(4) 0.76286(6) 0.0330 Uiso
C38 C 0.13650(5) 0.71760(3) 0.73353(7) 0.0470 Uiso
C39 C 0.13555(5) 0.69305(4) 0.75407(7) 0.0560 Uiso
C40 C 0.15811(6) 0.69074(4) 0.80516(7) 0.0670 Uiso
C41 C 0.18070(6) 0.71343(4) 0.83733(7) 0.0620 Uiso
C42 C 0.18019(5) 0.73729(4) 0.81466(7) 0.0520 Uiso
C43 C 0.24103(5) 0.70997(4) 0.75758(8) 0.0540 Uiso
C44 C 0.24701(5) 0.68537(4) 0.74265(8) 0.0830 Uiso
C45 C 0.24278(6) 0.65953(4) 0.76328(9) 0.0970 Uiso
C46 C 0.23674(6) 0.66288(4) 0.79563(8) 0.0890 Uiso
C47 C 0.23311(5) 0.68608(4) 0.81016(8) 0.0820 Uiso
C48 C 0.23539(5) 0.71152(4) 0.79035(7) 0.0600 Uiso
C55 C 0.15987(6) 0.82505(5) 0.48484(7) 0.1110 Uiso
C56 C 0.19895(6) 0.82457(5) 0.50255(8) 0.2160 Uiso
C57 C 0.20185(7) 0.81657(5) 0.46554(9) 0.6300 Uiso
C58 C 0.17244(7) 0.81026(6) 0.41655(8) 0.7200 Uiso
C59 C 0.14388(7) 0.80729(5) 0.40393(8) 0.2200 Uiso
C60 C 0.13742(6) 0.81370(5) 0.44496(7) 0.1710 Uiso
C61 C 0.03552(5) 0.86425(4) 0.50290(7) 0.1070 Uiso
C62 C 0.00982(5) 0.84783(4) 0.48283(7) 0.0940 Uiso
C63 C -0.02814(5) 0.85648(4) 0.44800(7) 0.1480 Uiso
C64 C -0.04029(5) 0.88085(4) 0.44880(7) 0.1990 Uiso
C65 C -0.00948(5) 0.90172(4) 0.47895(8) 0.1980 Uiso
C66 C 0.03002(5) 0.89371(4) 0.50512(7) 0.1500 Uiso
C67 C 0.15910(7) 0.97879(4) 0.87293(10) 0.1090 Uiso
C68 C 0.13308(7) 0.99595(4) 0.82755(11) 0.1610 Uiso
C69 C 0.14014(8) 1.02697(4) 0.82465(11) 0.1960 Uiso
C70 C 0.16969(8) 1.03666(4) 0.87288(12) 0.2070 Uiso
C71 C 0.19524(8) 1.02243(5) 0.91625(11) 0.1820 Uiso
C72 C 0.19065(8) 0.99180(5) 0.91378(10) 0.1820 Uiso
C73 C 0.15538(9) 0.92188(5) 0.98798(12) 0.1410 Uiso
C74 C 0.15588(9) 0.89156(4) 1.00704(13) 0.2500 Uiso
C75 C 0.11677(10) 0.87596(4) 0.96440(13) 0.3700 Uiso
C76 C 0.08632(9) 0.90013(5) 0.92989(13) 0.2120 Uiso
C77 C 0.08891(9) 0.92405(5) 0.91679(12) 0.1650 Uiso
C78 C 0.12736(9) 0.93576(5) 0.94629(12) 0.1630 Uiso
C79 C 0.13521(7) 1.01088(3) 0.65388(10) 0.1170 Uiso
C80 C 0.10551(7) 1.01699(3) 0.60419(10) 0.1790 Uiso
C81 C 0.08222(7) 1.04093(3) 0.60110(11) 0.2080 Uiso
C82 C 0.09822(8) 1.05148(3) 0.65038(12) 0.2050 Uiso
C83 C 0.13231(8) 1.04960(3) 0.71149(11) 0.3700 Uiso
C84 C 0.15397(7) 1.02414(3) 0.70816(10) 0.2130 Uiso
C85 C 0.08776(6) 0.87976(4) 0.75840(8) 0.1210 Uiso
C86 C 0.05713(5) 0.87111(4) 0.71270(8) 0.1580 Uiso
C87 C 0.01909(5) 0.86875(4) 0.69801(8) 0.1540 Uiso
C88 C 0.01026(6) 0.88848(4) 0.70846(9) 0.4000 Uiso
C89 C 0.03346(6) 0.90980(4) 0.73555(9) 2.0000 Uiso
C90 C 0.07086(6) 0.90819(4) 0.75873(9) 0.6900 Uiso
C91 C 0.15155(5) 0.80011(4) 0.83463(6) 0.0370 Uiso
C92 C 0.12317(5) 0.80390(4) 0.78532(7) 0.0530 Uiso
C93 C 0.08709(5) 0.79413(4) 0.76168(7) 0.0900 Uiso
C94 C 0.08170(6) 0.78206(4) 0.79060(7) 0.0990 Uiso
C95 C 0.10807(6) 0.77811(4) 0.83912(7) 0.1050 Uiso
C96 C 0.14626(6) 0.78740(4) 0.86571(7) 0.0740 Uiso
C97 C 0.36181(5) 0.73490(5) 0.87843(8) 0.0470 Uiso
C98 C 0.33279(5) 0.71755(4) 0.86473(8) 0.0750 Uiso
C99 C 0.34084(5) 0.69192(5) 0.88829(9) 0.0820 Uiso
C100 C 0.37831(5) 0.68203(5) 0.92206(9) 0.0830 Uiso
C101 C 0.40484(5) 0.69992(5) 0.93541(9) 0.0730 Uiso
C102 C 0.39850(5) 0.72583(5) 0.91479(9) 0.0600 Uiso
C103 C 0.34651(6) 0.78399(5) 0.68890(10) 0.0520 Uiso
C104 C 0.34395(6) 0.80646(5) 0.66628(10) 0.0920 Uiso
C105 C 0.35457(6) 0.80655(6) 0.63519(11) 0.1160 Uiso
C106 C 0.36337(7) 0.78273(6) 0.62677(11) 0.1240 Uiso
C107 C 0.36509(7) 0.76066(6) 0.64714(11) 0.2150 Uiso
C108 C 0.35138(6) 0.75949(5) 0.67599(10) 0.1540 Uiso
C109 C 0.20548(7) 0.90105(5) 0.50026(9) 0.1150 Uiso
C110 C 0.21411(7) 0.87092(5) 0.50025(9) 0.3000 Uiso
C111 C 0.21808(7) 0.86197(5) 0.46356(9) 0.5800 Uiso
C112 C 0.23326(8) 0.88320(6) 0.44636(10) 0.9600 Uiso
C113 C 0.23580(8) 0.90875(6) 0.46637(10) 0.2150 Uiso
C114 C 0.22515(7) 0.91620(5) 0.49424(9) 0.1390 Uiso
C115 C 0.07483(6) 0.94709(4) 0.51539(8) 0.1280 Uiso
C116 C 0.06160(6) 0.95160(4) 0.46785(8) 0.2120 Uiso
C117 C 0.02535(7) 0.96176(4) 0.43047(9) 0.3100 Uiso
C118 C 0.01154(6) 0.96632(4) 0.45230(9) 0.2300 Uiso
C119 C 0.02625(6) 0.96939(4) 0.51307(9) 0.2500 Uiso
C120 C 0.07074(6) 0.95470(4) 0.54763(8) 0.1710 Uiso
C127 C 0.11835(8) 1.02555(4) 0.51976(10) 0.0610 Uiso
C128 C 0.08295(7) 1.01651(4) 0.49107(10) 0.1240 Uiso
C129 C 0.05251(8) 1.04233(4) 0.47683(11) 0.1600 Uiso
C130 C 0.07002(8) 1.06032(4) 0.50154(11) 0.1130 Uiso
C131 C 0.10461(8) 1.07134(4) 0.53460(12) 0.0760 Uiso
C132 C 0.12695(8) 1.05330(4) 0.53739(11) 0.1140 Uiso
C133 C 0.09994(6) 0.96505(4) 0.71358(9) 0.1130 Uiso
C134 C 0.07710(7) 0.99328(4) 0.68182(10) 0.4300 Uiso
C135 C 0.04126(7) 0.99099(4) 0.67015(11) 0.6100 Uiso
C136 C 0.02106(6) 0.96647(4) 0.64372(10) 0.2600 Uiso
C137 C 0.03507(6) 0.94331(4) 0.66613(9) 0.3400 Uiso
C138 C 0.07768(6) 0.94135(4) 0.70327(9) 0.2300 Uiso
C139 C 0.20073(7) 0.85560(5) 0.98049(7) 0.0720 Uiso
C140 C 0.17569(7) 0.83428(5) 0.96558(7) 0.1080 Uiso
C141 C 0.18575(7) 0.81670(6) 1.00854(7) 0.1320 Uiso
C142 C 0.21424(8) 0.82401(6) 1.05661(7) 0.1200 Uiso
C143 C 0.23752(8) 0.84692(6) 1.07043(7) 0.0950 Uiso
C144 C 0.23066(7) 0.86229(6) 1.03129(7) 0.0800 Uiso
C145 C 0.28684(6) 0.81161(6) 0.98304(11) 0.0400 Uiso
C146 C 0.27251(6) 0.81518(6) 1.00712(12) 0.0590 Uiso
C147 C 0.27245(6) 0.79185(6) 1.03210(12) 0.0640 Uiso
C148 C 0.28853(6) 0.76787(6) 1.03590(12) 0.0630 Uiso
C149 C 0.30264(5) 0.76432(6) 1.01151(11) 0.0530 Uiso
C150 C 0.30125(5) 0.78686(6) 0.98516(11) 0.0440 Uiso
C151 C 0.38374(5) 0.78485(5) 0.99920(9) 0.0450 Uiso
C152 C 0.40946(5) 0.78478(5) 1.05157(9) 0.0570 Uiso
C153 C 0.41534(5) 0.75871(5) 1.07613(9) 0.0600 Uiso
C154 C 0.39840(5) 0.73596(5) 1.04951(9) 0.0680 Uiso
C155 C 0.37386(5) 0.73565(5) 0.99784(9) 0.0650 Uiso
C156 C 0.36615(5) 0.76107(5) 0.97279(9) 0.0540 Uiso
C157 C 0.44360(6) 0.75868(5) 0.85310(6) 0.0610 Uiso
C158 C 0.46847(5) 0.74554(5) 0.89606(6) 0.0900 Uiso
C159 C 0.46634(5) 0.71646(5) 0.89954(6) 0.1150 Uiso
C160 C 0.44056(5) 0.70194(5) 0.85927(6) 0.1330 Uiso
C161 C 0.41831(6) 0.71587(5) 0.81364(6) 0.2300 Uiso
C162 C 0.41989(6) 0.74522(5) 0.80768(6) 0.1670 Uiso
C163 C 0.40803(6) 0.86489(6) 0.74500(10) 0.0590 Uiso
C164 C 0.43684(6) 0.84942(6) 0.76749(11) 0.2500 Uiso
C165 C 0.45332(6) 0.84168(6) 0.73716(12) 0.2120 Uiso
C166 C 0.44751(7) 0.86537(6) 0.71206(12) 0.1230 Uiso
C167 C 0.42216(7) 0.88232(6) 0.69674(12) 0.1400 Uiso
C168 C 0.40014(6) 0.87858(6) 0.71016(11) 0.1210 Uiso
C169 C 0.32259(7) 0.91548(5) 0.61770(10) 0.0630 Uiso
C170 C 0.31193(7) 0.89104(5) 0.59476(10) 0.1060 Uiso
C171 C 0.32038(7) 0.88181(6) 0.56276(10) 0.1340 Uiso
C172 C 0.34009(8) 0.90227(6) 0.56138(11) 0.1130 Uiso
C173 C 0.35315(8) 0.92524(6) 0.58617(11) 0.0950 Uiso
C174 C 0.34515(7) 0.93325(6) 0.61684(11) 0.0740 Uiso
C175 C 0.28952(8) 0.99520(5) 0.59062(11) 0.0460 Uiso
C176 C 0.30159(8) 0.99732(5) 0.56373(11) 0.0540 Uiso
C177 C 0.33752(8) 1.00539(6) 0.58872(12) 0.0660 Uiso
C178 C 0.36213(8) 1.00922(6) 0.63918(12) 0.0690 Uiso
C179 C 0.35132(8) 1.00719(5) 0.66738(11) 0.0620 Uiso
C180 C 0.31390(8) 1.00059(5) 0.64191(11) 0.0550 Uiso
C181 C 0.22357(8) 1.06166(4) 0.65430(11) 0.0760 Uiso
C182 C 0.22411(9) 1.08834(4) 0.63589(12) 0.0980 Uiso
C183 C 0.20101(9) 1.10928(4) 0.63244(13) 0.1170 Uiso
C184 C 0.18011(9) 1.10417(4) 0.64583(13) 0.1300 Uiso
C185 C 0.17891(8) 1.07709(3) 0.66123(12) 0.1400 Uiso
C186 C 0.20176(8) 1.05610(4) 0.66322(11) 0.1060 Uiso
C187 C 0.28592(7) 1.03220(4) 0.80885(11) 0.1210 Uiso
C188 C 0.27264(8) 1.06001(4) 0.79387(11) 0.1550 Uiso
C189 C 0.29507(8) 1.08216(4) 0.82787(12) 0.3000 Uiso
C190 C 0.33262(8) 1.07335(4) 0.88532(12) 0.6100 Uiso
C191 C 0.33696(8) 1.04647(5) 0.89735(11) 0.8100 Uiso
C192 C 0.31651(7) 1.02615(4) 0.87226(10) 0.5500 Uiso
C193 C 0.26942(7) 1.00172(4) 0.90262(10) 0.1080 Uiso
C194 C 0.24232(7) 1.02081(4) 0.85812(10) 0.4200 Uiso
C196 C 0.30138(8) 1.05130(5) 0.95320(11) 0.3000 Uiso
C197 C 0.30318(8) 1.03476(5) 0.97246(11) 0.1680 Uiso
C198 C 0.29236(7) 1.00456(5) 0.94621(10) 0.1510 Uiso
C199 C 0.29574(7) 0.91999(6) 1.04852(8) 0.0400 Uiso
C200 C 0.30550(8) 0.93007(6) 1.09299(8) 0.0740 Uiso
C201 C 0.32356(8) 0.91310(6) 1.13523(8) 0.1040 Uiso
C202 C 0.33897(8) 0.88708(6) 1.13487(7) 0.0840 Uiso
C203 C 0.32751(7) 0.87732(6) 1.08918(7) 0.0590 Uiso
C204 C 0.30595(7) 0.89383(5) 1.04697(7) 0.0570 Uiso
C205 C 0.36768(6) 0.93863(5) 1.02425(8) 0.0490 Uiso
C206 C 0.37033(7) 0.96280(5) 1.00832(9) 0.0880 Uiso
C207 C 0.39255(7) 0.98506(6) 1.04266(9) 0.1120 Uiso
C208 C 0.41158(7) 0.97748(6) 1.09441(9) 0.0980 Uiso
C209 C 0.40934(7) 0.95440(6) 1.10928(8) 0.0780 Uiso
C210 C 0.38586(7) 0.93387(6) 1.07575(8) 0.0620 Uiso
C211 C 0.44299(7) 0.90775(4) 1.00827(10) 0.0640 Uiso
C212 C 0.43719(7) 0.92668(4) 1.02227(11) 0.1320 Uiso
C213 C 0.46412(8) 0.94299(4) 1.06703(11) 0.1510 Uiso
C214 C 0.49517(7) 0.93410(4) 1.09819(11) 0.1400 Uiso
C215 C 0.50571(7) 0.91080(4) 1.09985(10) 0.2800 Uiso
C216 C 0.47653(7) 0.89254(4) 1.04182(9) 0.2040 Uiso
C217 C 0.48806(5) 0.80895(4) 1.03128(7) 0.0380 Uiso
C218 C 0.47216(5) 0.82339(4) 1.04583(8) 0.0680 Uiso
C219 C 0.49750(6) 0.83522(4) 1.09475(8) 0.0780 Uiso
C220 C 0.53461(6) 0.83335(4) 1.12535(8) 0.0610 Uiso
C221 C 0.54945(5) 0.81813(4) 1.10989(8) 0.0500 Uiso
C222 C 0.52618(5) 0.80573(4) 1.06255(7) 0.0490 Uiso
C223 C 0.03258(5) 0.86836(4) 0.59807(7) 0.0860 Uiso
C224 C 0.03846(5) 0.84150(4) 0.61392(7) 0.0520 Uiso
C225 C 0.01155(5) 0.82346(4) 0.60342(7) 0.0690 Uiso
C226 C -0.02534(5) 0.83302(4) 0.57292(8) 0.0820 Uiso
C227 C -0.03469(5) 0.85899(4) 0.55141(8) 0.1130 Uiso
C228 C -0.00744(5) 0.87894(4) 0.56460(8) 0.1340 Uiso
C229 C 0.56652(6) 0.81145(4) 0.95477(8) 0.0580 Uiso
C230 C 0.60442(6) 0.81769(4) 0.98270(8) 0.0940 Uiso
C231 C 0.61987(7) 0.82428(5) 0.96050(9) 0.1180 Uiso
C232 C 0.59111(7) 0.82585(5) 0.90507(9) 0.1090 Uiso
C233 C 0.55679(7) 0.81807(5) 0.87911(8) 0.1120 Uiso
C234 C 0.54337(7) 0.80971(5) 0.90485(8) 0.0870 Uiso
C235 C 0.50762(7) 0.87703(4) 0.92362(9) 0.2700 Uiso
C236 C 0.54836(7) 0.87698(4) 0.95978(9) 0.4800 Uiso
C237 C 0.56675(7) 0.88641(4) 0.94396(10) 0.3000 Uiso
C238 C 0.54049(8) 0.89417(5) 0.88493(10) 0.2900 Uiso
C239 C 0.50125(8) 0.88818(5) 0.84968(10) 0.6100 Uiso
C240 C 0.49021(7) 0.87913(5) 0.86683(9) 0.3200 Uiso
C241 C 0.35868(9) 1.00578(6) 0.78876(13) 0.0660 Uiso
C242 C 0.38901(9) 1.00350(5) 0.83679(13) 0.1950 Uiso
C243 C 0.42157(10) 1.02430(5) 0.86425(13) 0.2400 Uiso
C244 C 0.40882(10) 1.04783(5) 0.83721(14) 0.1370 Uiso
C245 C 0.37676(11) 1.05200(6) 0.78958(14) 0.1440 Uiso
C246 C 0.35464(10) 1.02965(6) 0.76673(14) 0.1070 Uiso
C247 C 0.4432(14) 0.9466(11) 0.9149(19) 0.2400 Uiso
S2F S 0.25325(13) 0.96230(9) 1.15911(18) 0.0673 Uani
S8F S 0.24252(11) 1.01421(9) 1.05623(16) 0.0546 Uani
S15G S 0.05256(10) 0.69615(8) 0.48936(15) 0.0484 Uani
S26F S 0.15146(12) 0.99496(10) 1.03490(17) 0.0700 Uani
Cd24G Cd 0.58616(3) 0.76029(2) 1.03964(4) 0.0384 Uani
Cd32F Cd 0.21257(3) 1.02356(2) 0.56809(5) 0.0545 Uani
C1 C 0.4523(5) 0.1237(4) 0.6395(6) 0.0641 Uani
C2 C 0.4204(5) 0.1284(4) 0.5896(6) 0.0616 Uani
C3 C 0.3957(5) 0.1487(4) 0.5773(6) 0.0685 Uani
C4 C 0.4018(4) 0.1639(4) 0.6150(6) 0.0601 Uani
C5 C 0.4330(4) 0.1587(3) 0.6641(5) 0.0450 Uani
C6 C 0.4805(4) 0.1795(3) 0.7900(6) 0.0500 Uani
C7 C 0.4581(5) 0.2009(4) 0.7837(7) 0.0703 Uani
C8 C 0.4266(5) 0.2089(4) 0.7352(7) 0.0680 Uani
C9 C 0.4175(4) 0.1946(4) 0.6955(6) 0.0519 Uani
C10 C 0.4411(4) 0.1740(3) 0.7045(5) 0.0456 Uani
C11 C 0.3857(5) 0.2006(4) 0.6442(8) 0.0770 Uani
C12 C 0.3771(5) 0.1857(4) 0.6051(7) 0.0699 Uani
C13 C 0.4872(5) 0.0809(3) 0.7527(6) 0.0594 Uani
C14 C 0.4734(7) 0.0555(4) 0.7549(7) 0.0944 Uani
C15 C 0.4472(9) 0.0589(7) 0.7614(9) 0.1255 Uani
C16 C 0.4346(7) 0.0834(6) 0.7614(10) 0.0992 Uani
C17 C 0.4497(5) 0.1087(5) 0.7595(7) 0.0791 Uani
C18 C 0.4879(8) 0.0306(4) 0.7529(10) 0.1144 Uani
Fe1 Fe 0.5000 0.13679(6) 0.7500 0.0381 Uani
N1 N 0.4584(3) 0.1390(3) 0.6772(4) 0.0447 Uani
N2 N 0.4719(3) 0.1662(3) 0.7509(4) 0.0433 Uani
N3 N 0.4750(4) 0.1063(3) 0.7546(4) 0.0512 Uani
C13B C 0.5128(5) 0.0809(3) 0.7473(6) 0.0594 Uani
C18B C 0.5121(8) 0.0306(4) 0.7471(10) 0.1144 Uani
N1B N 0.5416(3) 0.1390(3) 0.8228(4) 0.0447 Uani
N2B N 0.5281(3) 0.1662(3) 0.7491(4) 0.0433 Uani
N3B N 0.5250(4) 0.1063(3) 0.7454(4) 0.0512 Uani
loop_
_atom_site_aniso_label
_atom_site_aniso_U_11
_atom_site_aniso_U_22
_atom_site_aniso_U_33
_atom_site_aniso_U_23
_atom_site_aniso_U_13
_atom_site_aniso_U_12
S1 0.056(3) 0.082(3) 0.056(3) -0.022(2) 0.043(2) -0.017(2)
S2 0.069(3) 0.043(2) 0.064(3) 0.021(2) 0.033(3) 0.000(2)
S3 0.098(4) 0.051(3) 0.051(3) 0.009(2) 0.053(3) 0.020(2)
S4 0.088(3) 0.049(3) 0.081(3) -0.019(2) 0.071(3) -0.013(2)
S5 0.080(3) 0.058(3) 0.062(3) 0.009(2) 0.047(3) 0.027(2)
S6 0.070(3) 0.053(3) 0.032(2) -0.0036(18) 0.023(2) -0.022(2)
S7 0.041(2) 0.068(3) 0.053(2) 0.015(2) 0.034(2) 0.006(2)
S8 0.052(2) 0.053(2) 0.058(3) 0.023(2) 0.036(2) 0.007(2)
S9 0.048(2) 0.046(2) 0.061(3) -0.011(2) 0.034(2) -0.0068(19)
S10 0.066(3) 0.059(3) 0.033(2) -0.0099(19) 0.026(2) -0.022(2)
S11 0.042 0.083 0.036 0.001 0.0229 0.02
S12 0.049(2) 0.044(2) 0.055(2) 0.0126(19) 0.037(2) 0.0025(18)
S13 0.084 0.049 0.066 -0.028 0.062 -0.022
S14 0.047(2) 0.049(2) 0.053(2) -0.0048(19) 0.035(2) -0.0010(18)
S15 0.032 0.057 0.05 0.0221 0.0245 0.0138
S16 0.041(2) 0.050(2) 0.0324(19) -0.0034(17) 0.0225(18) -0.0054(17)
S17 0.036(2) 0.045(2) 0.039(2) 0.0019(17) 0.0190(18) 0.0018(17)
S18 0.056(2) 0.058(3) 0.055(2) -0.026(2) 0.043(2) -0.028(2)
S19 0.0248 0.053 0.0286 0.0113 0.0153 0.0061
S20 0.054(2) 0.050(2) 0.044(2) 0.0001(18) 0.037(2) -0.0057(19)
S21 0.055 0.053 0.258 -0.037 0.102 -0.013
S22 0.098(4) 0.043(3) 0.111(4) 0.016(3) 0.083(4) 0.015(2)
S23 0.067(3) 0.078(3) 0.046(3) 0.024(2) 0.017(2) -0.023(3)
S24 0.066(3) 0.108(4) 0.049(3) 0.006(3) 0.036(2) 0.042(3)
S25 0.039 0.113 0.116 0.073 0.033 0.003
S26 0.051(3) 0.071(3) 0.063(3) 0.036(2) 0.027(2) -0.001(2)
S27 0.083(3) 0.042(2) 0.078(3) 0.015(2) 0.054(3) 0.003(2)
S28 0.068(3) 0.082(4) 0.046(3) 0.023(2) 0.014(2) -0.030(3)
S29 0.0201(16) 0.0317(18) 0.0200(16) -0.0013(13) 0.0096(14) -0.0017(13)
S30 0.0253(17) 0.0327(18) 0.0253(17) -0.0036(14) 0.0147(15) -0.0050(14)
S31 0.0297(18) 0.0304(18) 0.0262(17) -0.0001(14) 0.0139(16) 0.0012(14)
S32 0.037(2) 0.048(2) 0.037(2) -0.0083(17) 0.0207(18) -0.0146(17)
S33 0.0254(17) 0.0287(17) 0.0249(17) 0.0009(14) 0.0147(15) -0.0001(14)
S34 0.0285(17) 0.0289(18) 0.0259(17) 0.0029(14) 0.0154(15) -0.0031(14)
S35 0.0204(16) 0.0359(19) 0.0238(17) -0.0037(14) 0.0119(14) -0.0033(14)
S36 0.0334(18) 0.0315(18) 0.0245(17) -0.0002(14) 0.0152(16) -0.0048(15)
S37 0.0247(17) 0.0374(19) 0.0260(17) 0.0041(14) 0.0154(15) 0.0021(14)
S38 0.036(2) 0.036(2) 0.039(2) 0.0105(16) 0.0191(18) -0.0023(16)
S39 0.0272(18) 0.042(2) 0.0252(17) -0.0045(15) 0.0145(15) 0.0002(15)
S40 0.025 0.063 0.037 0.0044 0.0171 0.0008
S41 0.0265(17) 0.042(2) 0.0263(18) 0.0002(15) 0.0152(16) -0.0034(15)
S42 0.033(2) 0.039(2) 0.038(2) -0.0052(16) 0.0161(18) -0.0026(16)
S43 0.036(2) 0.054(2) 0.0242(18) 0.0008(16) 0.0163(17) -0.0009(17)
S44 0.0276(18) 0.041(2) 0.0289(18) -0.0066(15) 0.0153(16) -0.0073(15)
S45 0.0245 0.054 0.0314 0.0097 0.0151 0.0065
S46 0.041 0.044 0.0335 -0.007 0.025 -0.0059
S47 0.0252(17) 0.0355(19) 0.0266(18) -0.0005(15) 0.0112(15) -0.0051(14)
S48 0.052 0.044 0.039 0.0064 0.026 -0.0073
S49 0.044(2) 0.048(2) 0.033(2) -0.0093(17) 0.0236(18) -0.0055(18)
S50 0.0259(18) 0.042(2) 0.0331(19) -0.0044(16) 0.0171(16) -0.0015(15)
S51 0.0260(18) 0.043(2) 0.035(2) 0.0053(16) 0.0147(16) 0.0043(15)
S52 0.047(2) 0.039(2) 0.0292(19) -0.0025(16) 0.0198(18) -0.0067(17)
Cd1 0.0238(5) 0.0299(5) 0.0241(5) 0.0025(4) 0.0136(4) -0.0003(4)
Cd2 0.0221(5) 0.0344(5) 0.0216(5) -0.0015(4) 0.0110(4) -0.0007(4)
Cd3 0.0301(5) 0.0298(5) 0.0249(5) 0.0028(4) 0.0144(5) -0.0027(4)
Cd4 0.0243(5) 0.0305(5) 0.0236(5) -0.0009(4) 0.0134(4) -0.0030(4)
Cd5 0.0239(5) 0.0384(6) 0.0230(5) -0.0012(4) 0.0108(4) -0.0039(4)
Cd6 0.0250(5) 0.0323(5) 0.0259(5) 0.0030(4) 0.0131(4) 0.0006(4)
Cd7 0.0253(5) 0.0437(6) 0.0299(5) -0.0035(5) 0.0147(5) 0.0000(4)
Cd8 0.0338(6) 0.0417(6) 0.0313(6) 0.0031(5) 0.0140(5) -0.0045(5)
Cd9 0.0471(6) 0.0442(6) 0.0352(6) -0.0020(5) 0.0274(5) -0.0101(5)
Cd10 0.0312(5) 0.0347(6) 0.0290(5) -0.0007(4) 0.0150(5) -0.0052(4)
Cd11 0.0233 0.0396 0.0244 0.0033 0.0132 0.0019
Cd12 0.0244(5) 0.0377(6) 0.0279(5) -0.0047(4) 0.0150(4) -0.0057(4)
Cd13 0.0518(7) 0.0351(6) 0.0315(6) -0.0032(5) 0.0224(5) -0.0064(5)
Cd14 0.0260(5) 0.0358(6) 0.0296(5) -0.0033(4) 0.0151(5) -0.0035(4)
Cd15 0.0234 0.0456 0.0271 0.0083 0.0138 0.0025
Cd16 0.0405(6) 0.0483(7) 0.0350(6) -0.0117(5) 0.0258(5) -0.0146(5)
Cd17 0.0254 0.0489 0.0424 0.0004 0.018 -0.0039
Cd18 0.0381 0.0391 0.0303 0.0013 0.0172 -0.0091
Cd19 0.0412(6) 0.0443(6) 0.0401(6) 0.0066(5) 0.0292(5) 0.0008(5)
Cd20 0.0503(7) 0.0459(7) 0.0474(7) -0.0100(5) 0.0367(6) -0.0068(5)
Cd21 0.0358(6) 0.0447(6) 0.0413(6) 0.0053(5) 0.0196(5) 0.0058(5)
Cd22 0.0263 0.0489 0.0308 0.0054 0.0164 0.0064
Cd23 0.0383(6) 0.0477(7) 0.0288(6) -0.0062(5) 0.0188(5) -0.0064(5)
Cd24 0.0325(6) 0.0452(6) 0.0365(6) -0.0115(5) 0.0224(5) -0.0104(5)
Cd25 0.0453(6) 0.0460(7) 0.0391(6) -0.0077(5) 0.0283(6) 0.0008(5)
Cd26 0.0362 0.0538 0.0322 0.0026 0.0217 0.0073
Cd27 0.0371(6) 0.0570(8) 0.0512(7) 0.0259(6) 0.0215(6) 0.0030(5)
Cd28 0.0481(7) 0.0469(7) 0.0527(7) 0.0163(6) 0.0316(6) 0.0007(5)
Cd29 0.0530(7) 0.0363(6) 0.0486(7) 0.0093(5) 0.0245(6) -0.0061(5)
Cd30 0.0428(6) 0.0396(6) 0.0379(6) -0.0033(5) 0.0288(5) -0.0042(5)
Cd31 0.0390(6) 0.0635(8) 0.0367(6) -0.0050(5) 0.0210(5) 0.0095(5)
Cd32 0.0513 0.0539 0.0619 -0.0305 0.039 -0.0124
S2F 0.069 0.043 0.064 -0.021 0.033 0
S8F 0.052 0.053 0.058 -0.023 0.036 -0.007
S15G 0.032(2) 0.057(2) 0.050(2) -0.0221(19) 0.0245(19) -0.0138(18)
S26F 0.051 0.071 0.063 -0.036 0.027 0.001
Cd24G 0.0325 0.0452 0.0365 0.0115 0.0224 0.0104
Cd32F 0.0513(7) 0.0539(7) 0.0619(8) 0.0305(6) 0.0390(7) 0.0124(6)
C1 0.079(13) 0.069(12) 0.042(10) -0.015(9) 0.039(10) -0.039(10)
C2 0.053(11) 0.069(12) 0.032(9) 0.009(8) 0.015(9) -0.022(10)
C3 0.057(12) 0.087(14) 0.023(9) 0.005(9) 0.010(9) -0.034(11)
C4 0.029(9) 0.073(12) 0.038(10) 0.018(9) 0.005(8) -0.022(9)
C5 0.024(8) 0.053(10) 0.034(9) 0.014(7) 0.009(7) -0.007(7)
C6 0.043(9) 0.061(10) 0.052(10) -0.004(8) 0.034(8) 0.010(8)
C7 0.060(12) 0.072(13) 0.079(14) 0.009(10) 0.046(11) 0.015(10)
C8 0.056(11) 0.074(13) 0.074(13) 0.017(11) 0.043(11) 0.014(10)
C9 0.030(8) 0.071(11) 0.052(10) 0.024(9) 0.026(8) 0.018(8)
C10 0.031(8) 0.056(10) 0.041(9) 0.006(8) 0.020(8) -0.007(7)
C11 0.033(10) 0.078(14) 0.098(16) 0.025(12) 0.034(11) 0.003(9)
C12 0.042(10) 0.068(13) 0.055(12) 0.013(10) 0.013(9) -0.012(10)
C13 0.070(13) 0.054(11) 0.025(8) 0.003(8) 0.019(9) -0.007(9)
C14 0.12(2) 0.057(14) 0.039(11) 0.005(9) 0.024(12) -0.029(13)
C15 0.12(2) 0.13(3) 0.061(15) 0.034(17) 0.032(16) -0.05(2)
C16 0.092(18) 0.111(19) 0.095(18) 0.036(16) 0.062(16) -0.009(16)
C17 0.064(12) 0.108(16) 0.059(12) 0.021(11) 0.038(11) -0.022(11)
C18 0.16(3) 0.063(13) 0.040(11) -0.016(11) 0.032(16) -0.028(15)
Fe1 0.0309(15) 0.0497(18) 0.0254(15) 0.000 0.0151(13) 0.000
N1 0.047(8) 0.050(8) 0.032(7) -0.003(6) 0.024(6) -0.011(6)
N2 0.033(7) 0.058(8) 0.034(7) 0.010(6) 0.020(6) 0.007(6)
N3 0.051(8) 0.057(9) 0.039(7) 0.007(6) 0.027(7) -0.005(7)
C13B 0.07 0.054 0.025 -0.003 0.019 0.007
C18B 0.16 0.063 0.04 0.016 0.032 0.028
N1B 0.047 0.05 0.032 0.003 0.024 0.011
N2B 0.033 0.058 0.034 -0.01 0.02 -0.007
N3B 0.051 0.057 0.039 -0.007 0.027 0.005
loop_
_geom_bond_atom_site_label_1
_geom_bond_atom_site_label_2
_geom_bond_site_symmetry_1
_geom_bond_site_symmetry_2
S1 Cd7 1_555 1_555
S2 Cd29 1_555 1_555
S3 Cd13 1_555 1_555
S4 Cd20 1_555 1_555
S5 Cd21 1_555 1_555
S6 Cd8 1_555 1_555
S7 Cd19 1_555 1_555
S8 Cd28 1_555 1_555
S9 Cd16 1_555 1_555
S10 Cd9 1_555 1_555
S11 Cd22 1_555 1_555
S12 Cd19 1_555 1_555
S13 Cd25 1_555 1_555
S14 Cd26 1_555 1_555
S15 Cd22 1_555 1_555
S16 Cd12 1_555 1_555
S17 Cd7 1_555 1_555
S18 Cd16 1_555 1_555
S19 Cd11 1_555 1_555
S20 Cd9 1_555 1_555
S21 Cd17 1_555 1_555
S22 Cd21 1_555 1_555
S23 Cd9 1_555 1_555
S24 Cd25 1_555 1_555
S25 Cd17 1_555 1_555
S26 Cd27 1_555 1_555
S27 Cd13 1_555 1_555
S28 Cd8 1_555 1_555
S29 Cd1 1_555 1_555
S30 Cd4 1_555 1_555
S31 Cd2 1_555 1_555
S32 Cd10 1_555 1_555
S33 Cd1 1_555 1_555
S34 Cd1 1_555 1_555
S35 Cd2 1_555 1_555
S36 Cd3 1_555 1_555
S37 Cd1 1_555 1_555
S38 Cd3 1_555 1_555
S39 Cd2 1_555 1_555
S40 Cd5 1_555 1_555
S41 Cd6 1_555 1_555
S42 Cd6 1_555 1_555
S43 Cd5 1_555 1_555
S44 Cd14 1_555 1_555
S45 Cd15 1_555 1_555
S46 Cd11 1_555 1_555
S47 Cd10 1_555 1_555
S48 Cd18 1_555 1_555
S49 Cd23 1_555 1_555
S50 Cd7 1_555 1_555
S51 Cd6 1_555 1_555
S52 Cd5 1_555 1_555
Cd2 S29 1_555 1_555
Cd3 S31 1_555 1_555
Cd4 S33 1_555 1_555
Cd5 S29 1_555 1_555
Cd6 S33 1_555 1_555
Cd7 S35 1_555 1_555
Cd8 S17 1_555 1_555
Cd9 S36 1_555 1_555
Cd10 S30 1_555 1_555
Cd11 S29 1_555 1_555
Cd12 S35 1_555 1_555
Cd13 S31 1_555 1_555
Cd14 S6 1_555 1_555
Cd15 S19 1_555 1_555
Cd16 S10 1_555 1_555
Cd17 S37 1_555 1_555
Cd18 S25 1_555 1_555
Cd19 S20 1_555 1_555
Cd20 S16 1_555 1_555
Cd21 S17 1_555 1_555
Cd22 S21 1_555 1_555
Cd23 S3 1_555 1_555
Cd24 S18 1_555 1_555
Cd25 S4 1_555 1_555
Cd26 S7 1_555 1_555
Cd27 S22 1_555 1_555
Cd28 S12 1_555 1_555
Cd29 S27 1_555 1_555
Cd30 S9 1_555 1_555
Cd31 S1 1_555 1_555
Cd32 S13 1_555 1_555
C1 C2 1_555 1_555
C2 C3 1_555 1_555
C3 C4 1_555 1_555
C4 C5 1_555 1_555
C5 C10 1_555 1_555
C6 C7 1_555 1_555
C7 C8 1_555 1_555
C8 C9 1_555 1_555
C9 C10 1_555 1_555
C10 N2 1_555 1_555
C11 C9 1_555 1_555
C12 C4 1_555 1_555
C13 C14 1_555 1_555
C14 C15 1_555 1_555
C15 C16 1_555 1_555
C16 C17 1_555 1_555
C17 N3 1_555 1_555
C18 C14 1_555 1_555
Fe1 N1 1_555 1_555
N1 C1 1_555 1_555
N2 C6 1_555 1_555
N3 C13 1_555 1_555
C19 S18 1_555 1_555
C20 C19 1_555 1_555
C21 C20 1_555 1_555
C22 C21 1_555 1_555
C23 C22 1_555 1_555
C24 C19 1_555 1_555
C25 S44 1_555 1_555
C26 C25 1_555 1_555
C27 C26 1_555 1_555
C28 C27 1_555 1_555
C29 C28 1_555 1_555
C30 C25 1_555 1_555
C31 S32 1_555 1_555
C32 C31 1_555 1_555
C33 C32 1_555 1_555
C34 C33 1_555 1_555
C35 C34 1_555 1_555
C36 C31 1_555 1_555
C37 S47 1_555 1_555
C38 C37 1_555 1_555
C39 C38 1_555 1_555
C40 C39 1_555 1_555
C41 C40 1_555 1_555
C42 C37 1_555 1_555
C43 S42 1_555 1_555
C44 C43 1_555 1_555
C45 C44 1_555 1_555
C46 C45 1_555 1_555
C47 C46 1_555 1_555
C48 C43 1_555 1_555
C55 S10 1_555 1_555
C56 C55 1_555 1_555
C57 C56 1_555 1_555
C58 C57 1_555 1_555
C59 C58 1_555 1_555
C60 C55 1_555 1_555
C61 S6 1_555 1_555
C62 C61 1_555 1_555
C63 C62 1_555 1_555
C64 C63 1_555 1_555
C65 C64 1_555 1_555
C66 C61 1_555 1_555
C67 S24 1_555 1_555
C68 C67 1_555 1_555
C69 C68 1_555 1_555
C70 C69 1_555 1_555
C71 C70 1_555 1_555
C72 C67 1_555 1_555
C73 S13 1_555 1_555
C74 C73 1_555 1_555
C75 C74 1_555 1_555
C76 C75 1_555 1_555
C77 C76 1_555 1_555
C78 C73 1_555 1_555
C79 S22 1_555 1_555
C80 C79 1_555 1_555
C81 C80 1_555 1_555
C82 C81 1_555 1_555
C83 C82 1_555 1_555
C84 C79 1_555 1_555
C85 S1 1_555 1_555
C86 C85 1_555 1_555
C87 C86 1_555 1_555
C88 C87 1_555 1_555
C89 C88 1_555 1_555
C90 C85 1_555 1_555
C91 S16 1_555 1_555
C92 C91 1_555 1_555
C93 C92 1_555 1_555
C94 C93 1_555 1_555
C95 C94 1_555 1_555
C96 C91 1_555 1_555
C97 S51 1_555 1_555
C98 C97 1_555 1_555
C99 C98 1_555 1_555
C100 C99 1_555 1_555
C101 C100 1_555 1_555
C102 C97 1_555 1_555
C103 S14 1_555 1_555
C104 C103 1_555 1_555
C105 C104 1_555 1_555
C106 C105 1_555 1_555
C107 C106 1_555 1_555
C108 C103 1_555 1_555
C109 S23 1_555 1_555
C110 C109 1_555 1_555
C111 C110 1_555 1_555
C112 C111 1_555 1_555
C113 C112 1_555 1_555
C114 C109 1_555 1_555
C115 S28 1_555 1_555
C116 C115 1_555 1_555
C117 C116 1_555 1_555
C118 C117 1_555 1_555
C119 C118 1_555 1_555
C120 C115 1_555 1_555
C127 S26 1_555 1_555
C128 C127 1_555 1_555
C129 C128 1_555 1_555
C130 C129 1_555 1_555
C131 C130 1_555 1_555
C132 C127 1_555 1_555
C133 S5 1_555 1_555
C134 C133 1_555 1_555
C135 C134 1_555 1_555
C136 C135 1_555 1_555
C137 C136 1_555 1_555
C138 C133 1_555 1_555
C139 S4 1_555 1_555
C140 C139 1_555 1_555
C141 C140 1_555 1_555
C142 C141 1_555 1_555
C143 C142 1_555 1_555
C144 C139 1_555 1_555
C145 S46 1_555 1_555
C146 C145 1_555 1_555
C147 C146 1_555 1_555
C148 C147 1_555 1_555
C149 C148 1_555 1_555
C150 C145 1_555 1_555
C151 S19 1_555 1_555
C152 C151 1_555 1_555
C153 C152 1_555 1_555
C154 C153 1_555 1_555
C155 C154 1_555 1_555
C156 C151 1_555 1_555
C157 S11 1_555 1_555
C158 C157 1_555 1_555
C159 C158 1_555 1_555
C160 C159 1_555 1_555
C161 C160 1_555 1_555
C162 C157 1_555 1_555
C163 S7 1_555 1_555
C164 C163 1_555 1_555
C165 C164 1_555 1_555
C166 C165 1_555 1_555
C167 C166 1_555 1_555
C168 C163 1_555 1_555
C169 S12 1_555 1_555
C170 C169 1_555 1_555
C171 C170 1_555 1_555
C172 C171 1_555 1_555
C173 C172 1_555 1_555
C174 C169 1_555 1_555
C175 S8 1_555 1_555
C176 C175 1_555 1_555
C177 C176 1_555 1_555
C178 C177 1_555 1_555
C179 C178 1_555 1_555
C180 C175 1_555 1_555
C181 S2 1_555 1_555
C182 C181 1_555 1_555
C183 C182 1_555 1_555
C184 C183 1_555 1_555
C185 C184 1_555 1_555
C186 C181 1_555 1_555
C187 S27 1_555 1_555
C188 C187 1_555 1_555
C189 C188 1_555 1_555
C190 C189 1_555 1_555
C191 C190 1_555 1_555
C192 C187 1_555 1_555
C193 S3 1_555 1_555
C194 C193 1_555 1_555
C196 C197 1_555 1_555
C197 C198 1_555 1_555
C198 C193 1_555 1_555
C199 S49 1_555 1_555
C200 C199 1_555 1_555
C201 C200 1_555 1_555
C202 C201 1_555 1_555
C203 C202 1_555 1_555
C204 C199 1_555 1_555
C205 S43 1_555 1_555
C206 C205 1_555 1_555
C207 C206 1_555 1_555
C208 C207 1_555 1_555
C209 C208 1_555 1_555
C210 C205 1_555 1_555
C211 S40 1_555 1_555
C212 C211 1_555 1_555
C213 C212 1_555 1_555
C214 C213 1_555 1_555
C215 C214 1_555 1_555
C216 C211 1_555 1_555
C217 S45 1_555 1_555
C218 C217 1_555 1_555
C219 C218 1_555 1_555
C220 C219 1_555 1_555
C221 C220 1_555 1_555
C222 C217 1_555 1_555
C223 C224 1_555 1_555
C224 S50 1_555 1_555
C225 C224 1_555 1_555
C226 C225 1_555 1_555
C227 C226 1_555 1_555
C228 C223 1_555 1_555
C229 S15 1_555 1_555
C230 C229 1_555 1_555
C231 C230 1_555 1_555
C232 C231 1_555 1_555
C233 C232 1_555 1_555
C234 C229 1_555 1_555
C235 S21 1_555 1_555
C236 C235 1_555 1_555
C237 C236 1_555 1_555
C238 C237 1_555 1_555
C239 C238 1_555 1_555
C240 C235 1_555 1_555
C241 S48 1_555 1_555
C242 C241 1_555 1_555
C243 C242 1_555 1_555
C244 C243 1_555 1_555
C245 C244 1_555 1_555
C246 C241 1_555 1_555
C247 S25 1_555 1_555
S2F Cd32 1_555 1_555
S8F Cd32 1_555 1_555
S15G Cd24 1_555 1_555
S26F Cd32 1_555 1_555
Cd24G S15 1_555 1_555
Cd32F S2 1_555 1_555
C13B C13 1_555 1_555
C18B C18 1_555 1_555
N1B Fe1 1_555 1_555
N2B Fe1 1_555 1_555
N3B Fe1 1_555 1_555
S5 Cd31 1_555 1_555
S8 Cd32F 1_555 1_555
S11 Cd26 1_555 1_555
S14 Cd30 1_555 1_555
S20 Cd30 1_555 1_555
S23 Cd28 1_555 1_555
S24 Cd31 1_555 1_555
S26 Cd32F 1_555 1_555
S28 Cd27 1_555 1_555
S30 Cd14 1_555 1_555
S30 Cd16 1_555 1_555
S31 Cd21 1_555 1_555
S32 Cd24 1_555 1_555
S33 Cd30 1_555 1_555
S34 Cd3 1_555 1_555
S34 Cd18 1_555 1_555
S34 Cd19 1_555 1_555
S35 Cd4 1_555 1_555
S36 Cd4 1_555 1_555
S36 Cd8 1_555 1_555
S37 Cd15 1_555 1_555
S37 Cd26 1_555 1_555
S38 Cd27 1_555 1_555
S38 Cd28 1_555 1_555
S38 Cd29 1_555 1_555
S39 Cd20 1_555 1_555
S39 Cd23 1_555 1_555
S39 Cd31 1_555 1_555
S40 Cd17 1_555 1_555
S41 Cd11 1_555 1_555
S41 Cd12 1_555 1_555
S42 Cd10 1_555 1_555
S43 Cd23 1_555 1_555
S44 Cd24 1_555 1_555
S45 Cd22 1_555 1_555
S46 Cd20 1_555 1_555
S47 Cd12 1_555 1_555
S48 Cd29 1_555 1_555
S49 Cd25 1_555 1_555
S50 Cd14 1_555 1_555
S51 Cd15 1_555 1_555
S52 Cd13 1_555 1_555
S52 Cd18 1_555 1_555
C5 N1 1_555 1_555
C11 C12 1_555 1_555
Fe1 N2 1_555 1_555
Fe1 N3 1_555 1_555
C23 C24 1_555 1_555
C29 C30 1_555 1_555
C35 C36 1_555 1_555
C41 C42 1_555 1_555
C47 C48 1_555 1_555
C59 C60 1_555 1_555
C65 C66 1_555 1_555
C71 C72 1_555 1_555
C77 C78 1_555 1_555
C83 C84 1_555 1_555
C89 C90 1_555 1_555
C95 C96 1_555 1_555
C101 C102 1_555 1_555
C107 C108 1_555 1_555
C113 C114 1_555 1_555
C119 C120 1_555 1_555
C131 C132 1_555 1_555
C137 C138 1_555 1_555
C143 C144 1_555 1_555
C149 C150 1_555 1_555
C155 C156 1_555 1_555
C161 C162 1_555 1_555
C167 C168 1_555 1_555
C173 C174 1_555 1_555
C179 C180 1_555 1_555
C185 C186 1_555 1_555
C191 C192 1_555 1_555
C203 C204 1_555 1_555
C209 C210 1_555 1_555
C215 C216 1_555 1_555
C221 C222 1_555 1_555
C227 C228 1_555 1_555
C233 C234 1_555 1_555
C239 C240 1_555 1_555
C245 C246 1_555 1_555
C13B N3B 1_555 1_555

#END
