
#######################################################################
#
#                 Cambridge Crystallographic Data Centre
#                                CCDC 
#
#######################################################################
#
# If this CIF has been generated from an entry in the Cambridge 
# Structural Database, then it will include bibliographic, chemical, 
# crystal, experimental, refinement or atomic coordinate data resulting 
# from the CCDC's data processing and validation procedures.
#
#######################################################################

data_ICIKEL
_chemical_formula_moiety         'C239 Cd36 N6 Ru1 S56'
_symmetry_cell_setting           monoclinic
_symmetry_space_group_name_H-M   'C 2/c'
_symmetry_Int_Tables_number      15
_space_group_name_Hall           '-C 2yc'
loop_
_symmetry_equiv_pos_site_id
_symmetry_equiv_pos_as_xyz
1 x,y,z
2 1/2+x,1/2+y,z
3 -x,y,1/2-z
4 1/2-x,1/2+y,1/2-z
5 -x,-y,-z
6 1/2-x,1/2-y,-z
7 x,-y,1/2+z
8 1/2+x,1/2-y,1/2+z
_cell_length_a                   48.448(6)
_cell_length_b                   48.898(7)
_cell_length_c                   35.851(5)
_cell_angle_alpha                90
_cell_angle_beta                 131.502(3)
_cell_angle_gamma                90
_cell_volume                     63607.9
loop_
_atom_site_label
_atom_site_type_symbol
_atom_site_fract_x
_atom_site_fract_y
_atom_site_fract_z
_atom_site_U_iso_or_equiv
_atom_site_thermal_displace_type
C1 C 0.3342(7) 0.5169(2) 0.6231(12) 0.2000 Uiso
C2 C 0.3063(6) 0.5024(5) 0.5805(8) 0.5600 Uiso
C3 C 0.3033(4) 0.4743(4) 0.5831(6) 0.2690 Uiso
C4 C 0.3282(5) 0.4608(2) 0.6284(8) 0.1440 Uiso
C5 C 0.3561(5) 0.4754(5) 0.6710(6) 0.2860 Uiso
C6 C 0.3591(6) 0.5034(5) 0.6684(9) 0.3200 Uiso
C7 C 0.0560(3) 0.5563(3) 0.6025(4) 0.2590 Uiso
C8 C 0.0269(4) 0.5467(2) 0.5981(4) 0.1410 Uiso
C9 C -0.0004(3) 0.5306(2) 0.5576(5) 0.1580 Uiso
C10 C 0.0013(3) 0.5241(2) 0.5214(4) 0.1610 Uiso
C11 C 0.0304(3) 0.5337(2) 0.5258(4) 0.1540 Uiso
C12 C 0.0577(3) 0.5498(2) 0.5663(5) 0.1370 Uiso
C13 C 0.0925(3) 0.6363(2) 0.7522(5) 0.0560 Uiso
C14 C 0.0563(4) 0.6456(3) 0.7186(4) 0.1550 Uiso
C15 C 0.0356(3) 0.6471(3) 0.7327(7) 0.2390 Uiso
C16 C 0.0512(5) 0.6393(3) 0.7804(9) 0.1610 Uiso
C17 C 0.0873(6) 0.6300(3) 0.8140(5) 0.1860 Uiso
C18 C 0.1080(3) 0.6285(3) 0.7999(5) 0.1030 Uiso
C19 C 0.1346(2) 0.56331(19) 0.4758(3) 0.0490 Uiso
C20 C 0.1169(3) 0.56750(16) 0.4261(4) 0.0580 Uiso
C21 C 0.0933(3) 0.5477(2) 0.3908(3) 0.0770 Uiso
C22 C 0.0873(3) 0.52366(19) 0.4053(5) 0.0970 Uiso
C23 C 0.1049(4) 0.51947(18) 0.4550(5) 0.1870 Uiso
C24 C 0.1286(3) 0.5393(2) 0.4903(4) 0.1010 Uiso
C25 C 0.4159(3) 0.7276(3) 1.0429(6) 0.0820 Uiso
C26 C 0.4284(5) 0.7399(3) 1.0867(8) 0.1840 Uiso
C27 C 0.4568(6) 0.7279(5) 1.1324(6) 0.2420 Uiso
C28 C 0.4726(5) 0.7036(5) 1.1343(6) 0.5200 Uiso
C29 C 0.4601(5) 0.6913(3) 1.0905(9) 0.2390 Uiso
C30 C 0.4317(4) 0.7033(3) 1.0448(6) 0.1010 Uiso
C31 C 0.2133(5) 0.4672(3) 0.6906(6) 0.0920 Uiso
C32 C 0.2249(4) 0.4410(4) 0.6916(7) 0.1760 Uiso
C33 C 0.1991(7) 0.4210(3) 0.6598(9) 0.1930 Uiso
C34 C 0.1617(6) 0.4272(4) 0.6270(7) 0.2580 Uiso
C35 C 0.1501(3) 0.4534(6) 0.6260(7) 0.3800 Uiso
C36 C 0.1759(6) 0.4734(3) 0.6578(8) 0.2340 Uiso
C37 C 0.3434(4) 0.5780(5) 0.5135(7) 0.1490 Uiso
C38 C 0.3733(8) 0.5618(3) 0.5503(9) 0.1730 Uiso
C39 C 0.4090(5) 0.5717(5) 0.5777(7) 0.2600 Uiso
C40 C 0.4147(5) 0.5976(6) 0.5682(9) 0.2630 Uiso
C41 C 0.3848(8) 0.6138(3) 0.5313(10) 0.2970 Uiso
C42 C 0.3491(6) 0.6039(4) 0.5040(7) 0.1680 Uiso
C43 C 0.1400(3) 0.4960(2) 0.7061(6) 0.0660 Uiso
C44 C 0.1439(4) 0.4715(3) 0.7288(5) 0.1110 Uiso
C45 C 0.1156(5) 0.4523(2) 0.7029(8) 0.1700 Uiso
C46 C 0.0835(4) 0.4577(4) 0.6543(8) 0.1600 Uiso
C47 C 0.0796(4) 0.4822(5) 0.6316(5) 0.9100 Uiso
C48 C 0.1079(5) 0.5013(3) 0.6575(6) 0.4400 Uiso
C49 C 0.3640(4) 0.4885(2) 0.8447(8) 0.0980 Uiso
C50 C 0.3948(5) 0.4808(3) 0.8928(6) 0.1240 Uiso
C51 C 0.4178(4) 0.4602(4) 0.9002(6) 0.1650 Uiso
C52 C 0.4099(6) 0.4473(3) 0.8596(10) 0.2030 Uiso
C53 C 0.3791(7) 0.4550(4) 0.8115(8) 0.2110 Uiso
C54 C 0.3561(4) 0.4756(4) 0.8040(5) 0.2380 Uiso
C55 C 0.1554(3) 0.7160(3) 0.8102(4) 0.0520 Uiso
C56 C 0.1542(4) 0.6928(2) 0.8314(6) 0.1230 Uiso
C57 C 0.1457(5) 0.6951(4) 0.8615(6) 0.1720 Uiso
C58 C 0.1385(5) 0.7206(5) 0.8704(7) 0.1910 Uiso
C59 C 0.1396(7) 0.7439(3) 0.8491(9) 0.6700 Uiso
C60 C 0.1481(5) 0.7416(2) 0.8190(7) 0.2490 Uiso
C61 C 0.0580(4) 0.5908(3) 0.4909(7) 0.0690 Uiso
C62 C 0.0257(19) 0.6019(12) 0.455(3) 0.3600 Uiso
C63 C 0.0089(9) 0.5619(7) 0.4075(13) 0.1660 Uiso
C64 C 0.0638(9) 0.5687(8) 0.4765(15) 0.1970 Uiso
C65 C 0.2323(5) 0.4987(3) 0.5940(8) 0.1060 Uiso
C66 C 0.2016(5) 0.4929(4) 0.5447(7) 0.2800 Uiso
C67 C 0.1929(5) 0.4659(5) 0.5284(6) 0.1690 Uiso
C68 C 0.2149(7) 0.4448(3) 0.5615(10) 0.1770 Uiso
C69 C 0.2455(7) 0.4506(4) 0.6108(9) 0.5400 Uiso
C70 C 0.2542(5) 0.4776(5) 0.6270(6) 0.2900 Uiso
C71 C 0.4009(6) 0.5332(4) 0.7880(9) 0.1080 Uiso
C72 C 0.4243(10) 0.5582(7) 0.8035(15) 0.2140 Uiso
C73 C 0.4663(12) 0.5497(9) 0.8507(18) 0.2800 Uiso
C74 C 0.4255(19) 0.5137(13) 0.832(3) 0.4900 Uiso
C75 C 0.3316(8) 0.6823(5) 1.0084(12) 0.1600 Uiso
C76 C 0.2949(10) 0.6845(7) 0.9951(15) 0.2220 Uiso
C77 C 0.2988(13) 0.7058(9) 1.029(2) 0.2900 Uiso
C78 C 0.3414(9) 0.6998(6) 1.0776(14) 0.2100 Uiso
C79 C 0.3648(10) 0.6859(7) 1.0610(16) 0.2360 Uiso
C80 C 0.4239(5) 0.5526(4) 0.9839(9) 0.0970 Uiso
C81 C 0.4481(8) 0.5502(5) 1.0373(12) 0.1590 Uiso
C82 C 0.4845(8) 0.5365(5) 1.0588(11) 0.1560 Uiso
C83 C 0.4902(10) 0.5288(7) 1.0271(16) 0.2100 Uiso
C84 C 0.4688(10) 0.5314(6) 0.9775(15) 0.2030 Uiso
C85 C 0.4305(5) 0.5433(4) 0.9552(8) 0.1030 Uiso
C86 C -0.0662(4) 0.6893(2) 0.5424(5) 0.0500 Uiso
C87 C -0.0427(4) 0.6917(3) 0.5949(7) 0.0810 Uiso
C88 C -0.0553(6) 0.6836(4) 0.6182(9) 0.1200 Uiso
C89 C -0.0927(7) 0.6750(4) 0.5920(10) 0.1350 Uiso
C90 C -0.1211(6) 0.6760(4) 0.5356(10) 0.1340 Uiso
C91 C -0.1040(5) 0.6832(3) 0.5135(7) 0.0890 Uiso
C92 C 0.3411(3) 0.7597(2) 0.7352(5) 0.0350 Uiso
C95 C 0.2553(5) 0.8384(3) 0.7306(7) 0.0870 Uiso
C98 C 0.3003(4) 0.6432(3) 0.5243(7) 0.0770 Uiso
C101 C 0.2592(4) 0.8353(3) 0.6954(6) 0.0660 Uiso
C104 C 0.1209(4) 0.8159(3) 0.5724(7) 0.0740 Uiso
C108 C 0.5265(4) 0.6678(3) 0.9277(7) 0.0740 Uiso
C110 C 0.1389(4) 0.5083(3) 0.3604(6) 0.0640 Uiso
C114 C 0.1343(3) 0.7375(2) 0.5267(5) 0.0420 Uiso
C117 C 0.1260(4) 0.7618(3) 0.4993(6) 0.0580 Uiso
C119 C 0.2769(7) 0.5805(5) 1.0063(11) 0.1420 Uiso
C120 C 0.2539(4) 0.8130(3) 0.7549(6) 0.0650 Uiso
C121 C 0.2641(4) 0.8109(3) 0.6835(6) 0.0540 Uiso
C122 C 0.3444(6) 0.8530(4) 0.8924(9) 0.1260 Uiso
C123 C 0.2285(4) 0.6848(3) 0.4937(6) 0.0540 Uiso
C124 C 0.1866(4) 0.4991(3) 0.3586(6) 0.0540 Uiso
C125 C 0.5383(7) 0.6169(5) 1.0490(11) 0.1560 Uiso
C126 C 0.4685(6) 0.6064(4) 0.9927(9) 0.1210 Uiso
C127 C 0.1653(4) 0.5046(3) 0.4125(6) 0.0650 Uiso
C128 C 0.0937(4) 0.7986(3) 0.5610(6) 0.0540 Uiso
C129 C 0.1956(3) 0.6060(2) 0.4556(5) 0.0470 Uiso
C130 C -0.0341(4) 0.6674(3) 0.3748(6) 0.0600 Uiso
C131 C 0.1741(4) 0.6229(3) 0.4131(6) 0.0520 Uiso
C132 C 0.5093(8) 0.5954(5) 1.0207(11) 0.1730 Uiso
C133 C 0.3485(3) 0.8052(2) 0.8807(5) 0.0430 Uiso
C134 C 0.1023(3) 0.7738(2) 0.5838(5) 0.0460 Uiso
C135 C 0.2132(4) 0.7311(3) 0.4661(6) 0.0610 Uiso
C136 C 0.5074(5) 0.6222(4) 0.9354(8) 0.1000 Uiso
C137 C 0.3207(6) 0.6036(4) 0.3552(9) 0.1150 Uiso
C138 C 0.4944(3) 0.7491(2) 0.8865(5) 0.0440 Uiso
C139 C 0.3210(4) 0.7982(3) 0.8818(5) 0.0530 Uiso
C140 C 0.3192(7) 0.6834(5) 0.4991(11) 0.1420 Uiso
C141 C 0.1158(3) 0.7141(2) 0.4996(5) 0.0370 Uiso
C142 C 0.3217(6) 0.5762(5) 0.3386(9) 0.1290 Uiso
C143 C 0.1854(6) 0.6176(4) 0.9367(9) 0.1280 Uiso
C144 C 0.1484(4) 0.5064(3) 0.3322(6) 0.0600 Uiso
C145 C 0.1719(6) 0.5862(4) 0.3654(9) 0.1250 Uiso
C146 C 0.1664(4) 0.7805(3) 0.6304(6) 0.0580 Uiso
C147 C 0.3203(3) 0.7858(2) 0.6619(5) 0.0490 Uiso
C148 C 0.2901(6) 0.6753(4) 0.4470(9) 0.1150 Uiso
C149 C 0.0835(4) 0.7379(3) 0.4228(6) 0.0570 Uiso
C150 C 0.2285(4) 0.7066(3) 0.4689(6) 0.0550 Uiso
C151 C 0.4885(4) 0.6769(3) 0.8967(6) 0.0570 Uiso
C152 C 0.1940(5) 0.6086(4) 0.9082(8) 0.1010 Uiso
C153 C 0.1011(4) 0.7612(3) 0.4481(6) 0.0560 Uiso
C154 C 0.3198(3) 0.7619(2) 0.6833(5) 0.0420 Uiso
C155 C 0.1633(6) 0.5983(4) 0.9396(9) 0.1190 Uiso
C156 C 0.2629(3) 0.7866(2) 0.7048(5) 0.0390 Uiso
C157 C 0.5186(3) 0.7433(2) 0.9389(5) 0.0410 Uiso
C158 C 0.2654(5) 0.6534(4) 0.4318(8) 0.0940 Uiso
C159 C 0.2107(3) 0.4947(2) 0.4103(5) 0.0470 Uiso
C160 C 0.3154(5) 0.8464(4) 0.8910(8) 0.1040 Uiso
C161 C 0.3626(3) 0.8066(2) 0.7431(5) 0.0490 Uiso
C162 C 0.5339(5) 0.6420(4) 0.9488(8) 0.1000 Uiso
C163 C -0.0483(3) 0.6831(2) 0.3905(5) 0.0460 Uiso
C164 C 0.2001(3) 0.4971(2) 0.4371(5) 0.0480 Uiso
C165 C 0.1801(4) 0.5851(3) 0.8823(6) 0.0600 Uiso
C166 C 0.4152(5) 0.6173(4) 0.7481(8) 0.0950 Uiso
C167 C 0.1995(3) 0.7123(2) 0.5157(5) 0.0350 Uiso
C168 C 0.5288(6) 0.6447(5) 1.0508(9) 0.1280 Uiso
C169 C 0.3636(3) 0.7819(2) 0.7665(5) 0.0370 Uiso
C170 C 0.4607(3) 0.6581(2) 0.8842(5) 0.0450 Uiso
C171 C 0.4636(5) 0.6351(3) 0.9972(7) 0.0870 Uiso
C172 C 0.5050(3) 0.7352(2) 0.9600(4) 0.0300 Uiso
C173 C 0.3405(4) 0.8083(3) 0.6914(6) 0.0550 Uiso
C174 C -0.0250(3) 0.6952(2) 0.4370(5) 0.0410 Uiso
C175 C 0.4667(3) 0.7329(2) 0.9317(4) 0.0290 Uiso
C176 C 0.0904(3) 0.7133(2) 0.4483(5) 0.0450 Uiso
C177 C 0.2142(3) 0.6879(2) 0.5178(4) 0.0330 Uiso
C178 C 0.3020(5) 0.6093(4) 0.3708(8) 0.1000 Uiso
C179 C 0.2041(3) 0.5792(2) 0.4528(5) 0.0360 Uiso
C180 C 0.0128(3) 0.6907(2) 0.4691(4) 0.0320 Uiso
C181 C 0.4901(4) 0.6527(3) 1.0191(7) 0.0740 Uiso
C182 C 0.2594(3) 0.7884(2) 0.7396(5) 0.0360 Uiso
C183 C 0.1978(3) 0.7344(2) 0.4891(5) 0.0510 Uiso
C184 C 0.4427(3) 0.7393(2) 0.8819(4) 0.0320 Uiso
C185 C 0.1372(3) 0.7645(2) 0.6179(5) 0.0400 Uiso
C186 C 0.3600(4) 0.8312(3) 0.8851(7) 0.0800 Uiso
C187 C 0.4558(3) 0.7476(2) 0.8583(5) 0.0440 Uiso
C188 C 0.3273(5) 0.6647(4) 0.5425(8) 0.0970 Uiso
C189 C 0.2975(5) 0.5557(3) 0.3347(7) 0.0880 Uiso
C190 C -0.0154(5) 0.6194(4) 0.5150(8) 0.1060 Uiso
C191 C 0.1475(5) 0.5750(4) 0.9134(7) 0.0890 Uiso
C192 C 0.1935(5) 0.5684(3) 0.4096(7) 0.0840 Uiso
C193 C 0.3055(5) 0.8200(3) 0.8897(7) 0.0860 Uiso
C194 C 0.1571(4) 0.8062(3) 0.6056(6) 0.0720 Uiso
C195 C 0.1627(4) 0.6129(3) 0.3670(7) 0.0760 Uiso
C196 C 0.2727(5) 0.6378(3) 0.4715(7) 0.0850 Uiso
C197 C 0.4692(4) 0.6315(3) 0.9021(6) 0.0730 Uiso
C198 C 0.2771(4) 0.5614(3) 0.3450(6) 0.0650 Uiso
C199 C 0.2787(5) 0.5871(3) 0.3659(7) 0.0820 Uiso
C200 C 0.0047(4) 0.6634(3) 0.4069(6) 0.0650 Uiso
C201 C 0.1556(4) 0.5672(3) 0.8819(7) 0.0760 Uiso
C202 C 0.0282(4) 0.6753(3) 0.4543(6) 0.0560 Uiso
C203 C -0.0722(8) 0.5987(6) 0.4304(13) 0.2030 Uiso
C206 C 0.2690(8) 0.7461(5) 0.9086(12) 0.1430 Uiso
C207 C 0.0815(8) 0.7830(6) 0.6916(12) 0.1740 Uiso
C208 C 0.2920(7) 0.7561(6) 0.9512(12) 0.1490 Uiso
C209 C 0.4304(16) 0.5197(11) 0.518(2) 0.4300 Uiso
C210 C 0.0797(6) 0.7540(4) 0.6944(9) 0.1210 Uiso
C211 C 0.0330(5) 0.7835(4) 0.5996(8) 0.0930 Uiso
C212 C 0.0592(6) 0.7980(4) 0.6436(9) 0.1130 Uiso
C213 C 0.0323(4) 0.7528(3) 0.6027(7) 0.0790 Uiso
C214 C 0.4194(5) 0.7182(3) 0.7117(7) 0.0820 Uiso
C215 C 0.3917(5) 0.7237(3) 0.6622(7) 0.0880 Uiso
C216 C 0.3538(4) 0.7145(3) 0.6347(6) 0.0690 Uiso
C217 C 0.4149(4) 0.7038(3) 0.7426(6) 0.0720 Uiso
C218 C 0.3767(3) 0.6948(3) 0.7148(5) 0.0520 Uiso
C219 C 0.0566(3) 0.7403(2) 0.6482(6) 0.0480 Uiso
C220 C 0.3482(3) 0.6997(2) 0.6654(5) 0.0360 Uiso
C221 C 0.2986(8) 0.5980(6) 0.9973(12) 0.1690 Uiso
C222 C 0.2732(8) 0.5905(6) 1.0399(12) 0.1690 Uiso
S1 S 0.34175(7) 0.69872(5) 0.86162(11) 0.0268 Uani
S2 S 0.19799(6) 0.63117(5) 0.63675(10) 0.0236 Uani
S3 S 0.23103(7) 0.68091(5) 0.75433(10) 0.0252 Uani
S4 S 0.19554(7) 0.60120(5) 0.74393(11) 0.0274 Uani
S5 S 0.30752(7) 0.65255(5) 0.74546(11) 0.0258 Uani
S6 S 0.27246(7) 0.57268(5) 0.73826(11) 0.0289 Uani
S7 S 0.30655(7) 0.62231(5) 0.85456(11) 0.0310 Uani
S8 S 0.45119(7) 0.72168(5) 0.96230(11) 0.0316 Uani
S9 S 0.26993(7) 0.54461(5) 0.84472(12) 0.0361 Uani
S10 S 0.12396(7) 0.65998(5) 0.64571(10) 0.0261 Uani
S11 S 0.34285(7) 0.72994(5) 0.76480(11) 0.0292 Uani
S12 S 0.08926(7) 0.61395(6) 0.53951(12) 0.0379 Uani
S13 S 0.23052(7) 0.71566(5) 0.64489(11) 0.0285 Uani
S14 S 0.27577(7) 0.60005(5) 0.63473(11) 0.0289 Uani
S15 S 0.16051(7) 0.58965(6) 0.51850(11) 0.0357 Uani
S16 S 0.21347(7) 0.65813(6) 0.54567(11) 0.0338 Uani
S17 S 0.36978(8) 0.77983(6) 0.87147(12) 0.0366 Uani
S18 S 0.04096(7) 0.70687(6) 0.52794(11) 0.0338 Uani
S19 S 0.25841(7) 0.75849(6) 0.76761(12) 0.0357 Uani
S20 S 0.17342(8) 0.52214(6) 0.74597(13) 0.0433 Uani
S21 S 0.14808(7) 0.73228(5) 0.64875(12) 0.0320 Uani
S22 S 0.16120(8) 0.54869(6) 0.62324(12) 0.0377 Uani
S23 S 0.12554(7) 0.68210(6) 0.53124(11) 0.0323 Uani
S24 S 0.41458(7) 0.67079(5) 0.84350(12) 0.0325 Uani
S25 S 0.23046(8) 0.55711(6) 0.50346(12) 0.0384 Uani
S26 S 0.22897(9) 0.65166(6) 0.86479(13) 0.0426 Uani
S27 S 0.41543(9) 0.64604(7) 0.95925(13) 0.0547 Uani
S28 S 0.38031(9) 0.74431(7) 0.98590(14) 0.0464 Uani
S29 S 0.30251(8) 0.69134(6) 0.63453(12) 0.0350 Uani
S30 S 0.38590(8) 0.59136(6) 0.84881(12) 0.0397 Uani
S31 S 0.16376(8) 0.71644(6) 0.76926(13) 0.0422 Uani
S32 S 0.05378(8) 0.70404(7) 0.65359(12) 0.0444 Uani
S33 S 0.25772(9) 0.48524(7) 0.44194(15) 0.0539 Uani
S34 S 0.27471(8) 0.72762(6) 0.87162(13) 0.0447 Uani
S35 S 0.18530(9) 0.57377(6) 0.83914(14) 0.0459 Uani
S36 S 0.35029(10) 0.53569(7) 0.74066(15) 0.0564 Uani
S37 S 0.24640(9) 0.49320(6) 0.72710(15) 0.0534 Uani
S38 S 0.24709(9) 0.53768(7) 0.33912(16) 0.0608 Uani
S39 S 0.24814(11) 0.53015(7) 0.62563(14) 0.0552 Uani
S40 S 0.34611(10) 0.66346(7) 0.97392(13) 0.0554 Uani
S41 S 0.11718(8) 0.63535(6) 0.73286(13) 0.0443 Uani
S42 S 0.36899(9) 0.61942(7) 0.72145(14) 0.0492 Uani
S43 S 0.38114(10) 0.56991(7) 0.95862(15) 0.0667 Uani
S44 S 0.30797(12) 0.62375(7) 0.56652(18) 0.0628 Uani
S45 S 0.34819(10) 0.50416(7) 0.46445(15) 0.0643 Uani
S46 S 0.01972(10) 0.63475(7) 0.57344(19) 0.0741 Uani
S47 S 0.33539(10) 0.51590(6) 0.83646(17) 0.0590 Uani
S48 S 0.30268(11) 0.58850(8) 0.95546(16) 0.0740 Uani
S49 S 0.34440(11) 0.55345(9) 0.62659(16) 0.0736 Uani
S50 S 0.09156(10) 0.57545(9) 0.6450(2) 0.1008 Uani
S51 S -0.05145(7) 0.69692(6) 0.50987(12) 0.0406 Uani
S52 S 0.29984(10) 0.56660(7) 0.47808(15) 0.0534 Uani
Cd1 Cd 0.189215(19) 0.642585(14) 0.69696(3) 0.0241 Uani
Cd2 Cd 0.263236(19) 0.614527(14) 0.69029(3) 0.0250 Uani
Cd3 Cd 0.26130(2) 0.585918(15) 0.79532(3) 0.0276 Uani
Cd4 Cd 0.21701(2) 0.721747(15) 0.69976(3) 0.0262 Uani
Cd5 Cd 0.15243(2) 0.592781(15) 0.58272(3) 0.0280 Uani
Cd6 Cd 0.295183(19) 0.662627(14) 0.80206(3) 0.0252 Uani
Cd7 Cd 0.37071(2) 0.630374(16) 0.79393(3) 0.0310 Uani
Cd8 Cd 0.37244(2) 0.606953(16) 0.90095(3) 0.0368 Uani
Cd9 Cd 0.15683(2) 0.561036(16) 0.68650(3) 0.0343 Uani
Cd10 Cd 0.22722(2) 0.536895(16) 0.67492(3) 0.0358 Uani
Cd11 Cd 0.10907(2) 0.694682(16) 0.58261(3) 0.0289 Uani
Cd12 Cd 0.32306(2) 0.742907(15) 0.81326(3) 0.0315 Uani
Cd13 Cd 0.195699(19) 0.674424(15) 0.59531(3) 0.0264 Uani
Cd14 Cd 0.33841(2) 0.556475(16) 0.79400(4) 0.0392 Uani
Cd15 Cd 0.08066(2) 0.619543(17) 0.60263(4) 0.0370 Uani
Cd16 Cd 0.29106(2) 0.632813(17) 0.90841(4) 0.0390 Uani
Cd17 Cd 0.33802(2) 0.705856(17) 0.92800(3) 0.0353 Uani
Cd18 Cd 0.01677(2) 0.686148(16) 0.56583(3) 0.0321 Uani
Cd19 Cd 0.29388(2) 0.696754(15) 0.69750(3) 0.0272 Uani
Cd20 Cd 0.40616(2) 0.683745(15) 0.90328(3) 0.0294 Uani
Cd21 Cd 0.28265(2) 0.643212(17) 0.60355(4) 0.0368 Uani
Cd22 Cd 0.28721(3) 0.523230(19) 0.43046(4) 0.0548 Uani
Cd23 Cd 0.22523(2) 0.690956(16) 0.81837(3) 0.0340 Uani
Cd24 Cd 0.23729(2) 0.503597(17) 0.78728(4) 0.0458 Uani
Cd25 Cd 0.22373(2) 0.570065(16) 0.56557(3) 0.0344 Uani
Cd26 Cd 0.18391(2) 0.617780(16) 0.79989(3) 0.0355 Uani
Cd27 Cd 0.25019(3) 0.556358(18) 0.89279(4) 0.0476 Uani
Cd28 Cd 0.11754(2) 0.682734(17) 0.70295(3) 0.0345 Uani
Cd29 Cd 0.33722(2) 0.531783(18) 0.90551(4) 0.0459 Uani
Cd30 Cd 0.29345(2) 0.574140(17) 0.54210(4) 0.0397 Uani
Cd31 Cd 0.41441(2) 0.759861(16) 0.95899(3) 0.0338 Uani
Cd32 Cd 0.33568(2) 0.573895(18) 0.68333(4) 0.0442 Uani
C227 C 0.2999(17) 0.6228(12) 1.025(3) 0.4700 Uiso
C228 C 0.4670(12) 0.5225(9) 0.8530(18) 0.2900 Uiso
C229 C -0.0408(9) 0.6246(6) 0.4569(14) 0.2280 Uiso
C232 C 0.259(2) 0.6213(15) 1.043(3) 0.5800 Uiso
C233 C 0.0359(17) 0.5509(10) 0.442(2) 0.3600 Uiso
C234 C 0.3848(8) 0.5251(6) 0.4823(12) 0.1750 Uiso
C235 C 0.4794(8) 0.6318(6) 0.8014(12) 0.1770 Uiso
C236 C -0.0064(14) 0.5830(12) 0.404(2) 0.3300 Uiso
C237 C 0.2355(12) 0.7699(9) 0.8587(18) 0.3100 Uiso
C238 C 0.4149(16) 0.5926(12) 0.717(2) 0.5600 Uiso
C239 C 0.2207(12) 0.7938(9) 0.864(2) 0.3300 Uiso
C240 C 0.2503(13) 0.7887(8) 0.9276(19) 0.2580 Uiso
C241 C 0.4391(8) 0.6301(5) 0.7788(12) 0.1700 Uiso
C242 C 0.4891(4) 0.6119(3) 0.7922(7) 0.1300 Uiso
C243 C 0.2886(5) 0.7785(3) 0.9722(7) 0.1370 Uiso
S33F S 0.25772(9) 0.51476(7) 0.94194(15) 0.0539 Uani
S38F S 0.24709(9) 0.46232(7) 0.83912(16) 0.0608 Uani
S45F S 0.34819(10) 0.49584(7) 0.96445(15) 0.0643 Uani
S51G S 0.44855(7) 0.80308(6) 1.00987(12) 0.0406 Uani
Cd24F Cd 0.23729(2) 0.496403(17) 0.28728(4) 0.0458 Uani
Cd27F Cd 0.25019(3) 0.443642(18) 0.39279(4) 0.0476 Uani
Cd29F Cd 0.33722(2) 0.468217(18) 0.40551(4) 0.0459 Uani
Cd31G Cd -0.08559(2) 0.740139(16) 0.45899(3) 0.0338 Uani
C93 C 0.5121(4) 0.0269(3) 0.2475(7) 0.0760 Uiso
C94 C 0.5697(3) 0.1578(2) 0.3381(5) 0.0350 Uiso
C96 C 0.5257(4) 0.0521(3) 0.2453(6) 0.0670 Uiso
C97 C 0.6008(3) 0.1640(2) 0.3874(5) 0.0440 Uiso
C99 C 0.5540(4) 0.0545(3) 0.2410(7) 0.0780 Uiso
C100 C 0.6068(3) 0.1488(2) 0.4240(5) 0.0500 Uiso
C102 C 0.5829(4) 0.1280(3) 0.4136(6) 0.0540 Uiso
C103 C 0.5124(3) 0.0775(2) 0.2479(5) 0.0440 Uiso
C105 C 0.5509(3) 0.1223(2) 0.3639(5) 0.0500 Uiso
C106 C 0.5503(4) 0.1035(3) 0.2419(6) 0.0580 Uiso
C107 C 0.5666(4) 0.0791(3) 0.2401(7) 0.0750 Uiso
C109 C 0.6235(4) 0.1857(3) 0.3956(6) 0.0540 Uiso
C111 C 0.6168(4) 0.2002(3) 0.3589(6) 0.0550 Uiso
C112 C 0.5198(3) 0.1782(2) 0.2101(5) 0.0480 Uiso
C113 C 0.5428(4) 0.2008(3) 0.2167(6) 0.0580 Uiso
C115 C 0.5746(4) 0.2087(3) 0.2666(6) 0.0550 Uiso
C116 C 0.5837(3) 0.1939(2) 0.3067(5) 0.0450 Uiso
C118 C 0.5609(3) 0.1726(2) 0.2979(5) 0.0370 Uiso
N1 N 0.5445(2) 0.13741(19) 0.3257(4) 0.0395 Uani
N2 N 0.5246(2) 0.10250(19) 0.2456(4) 0.0392 Uani
N3 N 0.4706(2) 0.16497(19) 0.2501(4) 0.0390 Uani
Ru1 Ru 0.5000 0.13459(3) 0.2500 0.0332 Uani
C93B C 0.4879(4) 0.0269(3) 0.2525(7) 0.0760 Uiso
C103B C 0.4876(3) 0.0775(2) 0.2521(5) 0.0440 Uiso
C112B C 0.4802(3) 0.1782(2) 0.2899(5) 0.0480 Uiso
C118B C 0.4391(3) 0.1726(2) 0.2021(5) 0.0370 Uiso
N1B N 0.4555(2) 0.13741(19) 0.1743(4) 0.0395 Uani
N2B N 0.4754(2) 0.10250(19) 0.2544(4) 0.0392 Uani
N3B N 0.5294(2) 0.16497(19) 0.2499(4) 0.0390 Uani
loop_
_atom_site_aniso_label
_atom_site_aniso_U_11
_atom_site_aniso_U_22
_atom_site_aniso_U_33
_atom_site_aniso_U_23
_atom_site_aniso_U_13
_atom_site_aniso_U_12
S1 0.0232(13) 0.0296(14) 0.0220(16) -0.0021(12) 0.0126(13) -0.0054(11)
S2 0.0190(13) 0.0256(13) 0.0173(15) 0.0001(11) 0.0082(12) 0.0002(10)
S3 0.0253(13) 0.0240(13) 0.0204(15) -0.0004(11) 0.0126(13) -0.0011(10)
S4 0.0266(14) 0.0271(14) 0.0224(16) 0.0041(12) 0.0137(13) -0.0006(11)
S5 0.0211(13) 0.0279(14) 0.0234(16) -0.0017(12) 0.0126(13) -0.0007(10)
S6 0.0272(14) 0.0243(14) 0.0221(16) 0.0001(12) 0.0108(13) 0.0012(11)
S7 0.0307(15) 0.0284(14) 0.0203(16) -0.0007(12) 0.0111(13) -0.0061(11)
S8 0.0256(14) 0.0358(15) 0.0247(17) -0.0054(13) 0.0130(14) -0.0059(11)
S9 0.0288(15) 0.0314(15) 0.0323(18) 0.0126(13) 0.0136(14) 0.0003(12)
S10 0.0215(13) 0.0297(14) 0.0229(16) 0.0049(12) 0.0129(13) 0.0029(10)
S11 0.0242(14) 0.0294(14) 0.0219(16) 0.0003(12) 0.0102(13) -0.0045(11)
S12 0.0245(15) 0.0486(18) 0.0323(19) 0.0019(15) 0.0153(15) -0.0006(12)
S13 0.0250(14) 0.0328(15) 0.0237(16) -0.0002(12) 0.0144(13) -0.0011(11)
S14 0.0258(14) 0.0310(15) 0.0253(16) -0.0038(12) 0.0150(13) 0.0006(11)
S15 0.0305(15) 0.0469(17) 0.0201(16) -0.0016(14) 0.0127(14) 0.0004(13)
S16 0.0323(15) 0.0385(16) 0.0273(17) -0.0068(13) 0.0184(15) -0.0032(12)
S17 0.0329(16) 0.0389(16) 0.0290(18) -0.0067(14) 0.0167(15) -0.0108(12)
S18 0.0210(14) 0.0443(17) 0.0274(17) 0.0070(14) 0.0124(14) 0.0054(12)
S19 0.0320(15) 0.0334(15) 0.0287(18) -0.0038(13) 0.0146(15) -0.0019(12)
S20 0.0420(18) 0.0400(17) 0.034(2) 0.0098(15) 0.0193(16) -0.0061(13)
S21 0.0240(14) 0.0325(15) 0.0312(18) 0.0041(13) 0.0148(14) 0.0026(11)
S22 0.0404(17) 0.0308(15) 0.0263(18) -0.0012(13) 0.0155(15) -0.0050(12)
S23 0.0226(14) 0.0442(17) 0.0250(17) 0.0087(13) 0.0136(13) 0.0048(12)
S24 0.0231(14) 0.0352(15) 0.0308(18) -0.0059(13) 0.0143(14) -0.0040(11)
S25 0.0412(17) 0.0408(17) 0.0331(19) -0.0069(14) 0.0246(16) -0.0043(13)
S26 0.0524(19) 0.0445(18) 0.035(2) 0.0017(15) 0.0307(18) -0.0057(14)
S27 0.062(2) 0.0465(19) 0.030(2) -0.0026(16) 0.0197(18) -0.0210(16)
S28 0.052(2) 0.055(2) 0.047(2) -0.0244(17) 0.0391(19) -0.0256(16)
S29 0.0325(16) 0.0391(16) 0.0276(18) -0.0032(13) 0.0175(15) -0.0024(12)
S30 0.0297(16) 0.0362(16) 0.0351(19) 0.0021(14) 0.0138(15) -0.0007(12)
S31 0.0392(17) 0.0452(18) 0.039(2) -0.0055(15) 0.0245(17) -0.0026(14)
S32 0.0348(17) 0.063(2) 0.0291(19) 0.0005(16) 0.0185(16) 0.0128(15)
S33 0.051 0.052 0.057 -0.0296 0.035 -0.0115
S34 0.0392(17) 0.0425(18) 0.043(2) -0.0129(16) 0.0232(17) -0.0075(14)
S35 0.0461(19) 0.0461(18) 0.052(2) 0.0167(17) 0.0353(19) 0.0039(14)
S36 0.062(2) 0.045(2) 0.058(3) 0.0089(18) 0.038(2) 0.0192(16)
S37 0.057(2) 0.0308(17) 0.062(3) 0.0100(16) 0.035(2) -0.0015(14)
S38 0.053 0.0417 0.067 -0.0268 0.031 -0.004
S39 0.084(3) 0.0415(19) 0.044(2) 0.0048(17) 0.044(2) 0.0156(17)
S40 0.064(2) 0.051(2) 0.029(2) -0.0074(16) 0.0214(19) -0.0218(17)
S41 0.0383(17) 0.057(2) 0.046(2) 0.0144(17) 0.0315(18) 0.0064(14)
S42 0.0468(19) 0.057(2) 0.049(2) -0.0142(18) 0.0339(19) -0.0085(15)
S43 0.056(2) 0.059(2) 0.040(2) 0.0171(18) 0.0127(19) -0.0197(17)
S44 0.103(3) 0.044(2) 0.096(4) -0.024(2) 0.089(3) -0.0197(19)
S45 0.053 0.063 0.053 -0.033 0.025 -0.0003
S46 0.042(2) 0.045(2) 0.125(4) -0.011(2) 0.051(3) -0.0023(16)
S47 0.075(3) 0.0342(18) 0.086(3) 0.0172(19) 0.061(3) 0.0120(16)
S48 0.065(2) 0.065(2) 0.047(3) 0.019(2) 0.018(2) -0.0144(19)
S49 0.066(3) 0.102(3) 0.051(3) 0.002(2) 0.038(2) 0.039(2)
S50 0.038(2) 0.105(3) 0.123(5) 0.082(3) 0.038(3) 0.016(2)
S51 0.0263(15) 0.0503(18) 0.038(2) 0.0195(15) 0.0182(15) 0.0126(13)
S52 0.073(2) 0.050(2) 0.067(3) -0.0322(19) 0.059(2) -0.0246(17)
Cd1 0.0211(4) 0.0252(4) 0.0192(4) 0.0023(3) 0.0105(4) 0.0001(3)
Cd2 0.0202(4) 0.0268(4) 0.0203(4) -0.0010(3) 0.0101(4) 0.0001(3)
Cd3 0.0256(4) 0.0255(4) 0.0216(5) 0.0032(3) 0.0114(4) -0.0019(3)
Cd4 0.0229(4) 0.0271(4) 0.0222(5) 0.0022(3) 0.0122(4) 0.0003(3)
Cd5 0.0223(4) 0.0316(4) 0.0204(5) -0.0018(3) 0.0100(4) -0.0034(3)
Cd6 0.0228(4) 0.0258(4) 0.0203(4) -0.0004(3) 0.0114(4) -0.0027(3)
Cd7 0.0219(4) 0.0347(4) 0.0270(5) -0.0025(4) 0.0122(4) -0.0006(3)
Cd8 0.0291(4) 0.0358(5) 0.0265(5) 0.0042(4) 0.0104(4) -0.0048(3)
Cd9 0.0316(4) 0.0327(4) 0.0251(5) 0.0030(4) 0.0131(4) -0.0066(3)
Cd10 0.0395(5) 0.0275(4) 0.0271(5) -0.0022(4) 0.0164(4) -0.0036(3)
Cd11 0.0216(4) 0.0366(4) 0.0230(5) 0.0069(4) 0.0124(4) 0.0025(3)
Cd12 0.0286(4) 0.0304(4) 0.0225(5) -0.0009(4) 0.0114(4) -0.0053(3)
Cd13 0.0216(4) 0.0308(4) 0.0213(5) 0.0023(3) 0.0119(4) 0.0016(3)
Cd14 0.0288(5) 0.0345(5) 0.0372(6) 0.0037(4) 0.0146(4) 0.0020(4)
Cd15 0.0231(4) 0.0396(5) 0.0364(6) -0.0007(4) 0.0147(4) -0.0040(3)
Cd16 0.0430(5) 0.0394(5) 0.0308(5) -0.0005(4) 0.0229(5) -0.0075(4)
Cd17 0.0342(5) 0.0439(5) 0.0273(5) -0.0084(4) 0.0202(4) -0.0119(4)
Cd18 0.0233(4) 0.0408(5) 0.0250(5) 0.0043(4) 0.0130(4) 0.0048(3)
Cd19 0.0225(4) 0.0289(4) 0.0249(5) -0.0036(4) 0.0134(4) -0.0040(3)
Cd20 0.0225(4) 0.0306(4) 0.0255(5) -0.0018(4) 0.0118(4) -0.0034(3)
Cd21 0.0423(5) 0.0363(5) 0.0386(6) -0.0078(4) 0.0297(5) -0.0051(4)
Cd22 0.0533 0.0538 0.067 -0.0361 0.044 -0.018
Cd23 0.0371(5) 0.0369(5) 0.0292(5) -0.0029(4) 0.0225(4) -0.0042(4)
Cd24 0.0402(5) 0.0323(5) 0.0413(6) 0.0107(4) 0.0170(5) -0.0046(4)
Cd25 0.0316(4) 0.0389(5) 0.0259(5) -0.0053(4) 0.0162(4) -0.0050(4)
Cd26 0.0381(5) 0.0377(5) 0.0342(6) 0.0067(4) 0.0254(5) 0.0005(4)
Cd27 0.0461(6) 0.0437(5) 0.0501(7) 0.0190(5) 0.0307(5) 0.0039(4)
Cd28 0.0302(4) 0.0438(5) 0.0256(5) 0.0013(4) 0.0168(4) 0.0045(4)
Cd29 0.0289(5) 0.0469(5) 0.0399(6) 0.0206(5) 0.0135(5) -0.0003(4)
Cd30 0.0410(5) 0.0418(5) 0.0400(6) -0.0117(4) 0.0284(5) -0.0025(4)
Cd31 0.0282(4) 0.0408(5) 0.0300(5) -0.0089(4) 0.0183(4) -0.0091(4)
Cd32 0.0344(5) 0.0512(6) 0.0344(6) -0.0028(5) 0.0175(5) 0.0112(4)
S33F 0.051(2) 0.052(2) 0.057(3) 0.0296(18) 0.035(2) 0.0115(16)
S38F 0.053(2) 0.0417(19) 0.067(3) 0.0268(19) 0.031(2) 0.0040(15)
S45F 0.053(2) 0.063(2) 0.053(3) 0.033(2) 0.025(2) 0.0003(17)
S51G 0.0263 0.0503 0.038 -0.0195 0.0182 -0.0126
Cd24F 0.0402 0.0323 0.0413 -0.0107 0.017 0.0046
Cd27F 0.0461 0.0437 0.0501 -0.019 0.0307 -0.0039
Cd29F 0.0289 0.0469 0.0399 -0.0206 0.0135 0.0003
Cd31G 0.0282 0.0408 0.03 0.0089 0.0183 0.0091
N1 0.039(6) 0.048(6) 0.027(6) 0.006(5) 0.020(5) 0.008(4)
N2 0.034(5) 0.049(6) 0.027(6) -0.001(5) 0.017(5) 0.004(4)
N3 0.033 0.049 0.029 0.002 0.018 -0.001
Ru1 0.0256(7) 0.0428(8) 0.0203(7) 0.000 0.0106(6) 0.000
N1B 0.039 0.048 0.027 -0.006 0.02 -0.008
N2B 0.034 0.049 0.027 0.001 0.017 -0.004
N3B 0.033 0.049 0.029 -0.002 0.018 0.001
loop_
_geom_bond_atom_site_label_1
_geom_bond_atom_site_label_2
_geom_bond_site_symmetry_1
_geom_bond_site_symmetry_2
C1 C2 1_555 1_555
C2 C3 1_555 1_555
C3 C4 1_555 1_555
C4 C5 1_555 1_555
C5 C6 1_555 1_555
C6 C1 1_555 1_555
C7 C8 1_555 1_555
C8 C9 1_555 1_555
C9 C10 1_555 1_555
C10 C11 1_555 1_555
C11 C12 1_555 1_555
C12 C7 1_555 1_555
C13 C14 1_555 1_555
C14 C15 1_555 1_555
C15 C16 1_555 1_555
C16 C17 1_555 1_555
C17 C18 1_555 1_555
C18 C13 1_555 1_555
C19 C20 1_555 1_555
C20 C21 1_555 1_555
C21 C22 1_555 1_555
C22 C23 1_555 1_555
C23 C24 1_555 1_555
C24 C19 1_555 1_555
C25 C26 1_555 1_555
C26 C27 1_555 1_555
C27 C28 1_555 1_555
C28 C29 1_555 1_555
C29 C30 1_555 1_555
C30 C25 1_555 1_555
C31 C32 1_555 1_555
C32 C33 1_555 1_555
C33 C34 1_555 1_555
C34 C35 1_555 1_555
C35 C36 1_555 1_555
C36 C31 1_555 1_555
C37 C38 1_555 1_555
C38 C39 1_555 1_555
C39 C40 1_555 1_555
C40 C41 1_555 1_555
C41 C42 1_555 1_555
C42 C37 1_555 1_555
C43 C44 1_555 1_555
C44 C45 1_555 1_555
C45 C46 1_555 1_555
C46 C47 1_555 1_555
C47 C48 1_555 1_555
C48 C43 1_555 1_555
C49 C50 1_555 1_555
C50 C51 1_555 1_555
C51 C52 1_555 1_555
C52 C53 1_555 1_555
C53 C54 1_555 1_555
C54 C49 1_555 1_555
C55 C56 1_555 1_555
C56 C57 1_555 1_555
C57 C58 1_555 1_555
C58 C59 1_555 1_555
C59 C60 1_555 1_555
C60 C55 1_555 1_555
C61 C62 1_555 1_555
C62 C236 1_555 1_555
C63 C233 1_555 1_555
C64 C61 1_555 1_555
C65 C66 1_555 1_555
C66 C67 1_555 1_555
C67 C68 1_555 1_555
C68 C69 1_555 1_555
C69 C70 1_555 1_555
C70 C65 1_555 1_555
C71 C72 1_555 1_555
C72 C73 1_555 1_555
C73 C228 1_555 1_555
C74 C71 1_555 1_555
C75 C76 1_555 1_555
C76 C77 1_555 1_555
C77 C78 1_555 1_555
C78 C79 1_555 1_555
C79 C75 1_555 1_555
C80 C81 1_555 1_555
C81 C82 1_555 1_555
C82 C83 1_555 1_555
C83 C84 1_555 1_555
C84 C85 1_555 1_555
C85 C80 1_555 1_555
C86 C87 1_555 1_555
C87 C88 1_555 1_555
C88 C89 1_555 1_555
C89 C90 1_555 1_555
C90 C91 1_555 1_555
C91 C86 1_555 1_555
C92 C154 1_555 1_555
C93 C96 1_555 1_555
C94 C97 1_555 1_555
C95 C101 1_555 1_555
C96 C99 1_555 1_555
C97 C100 1_555 1_555
C98 C188 1_555 1_555
C99 C107 1_555 1_555
C100 C102 1_555 1_555
C101 C121 1_555 1_555
C102 C105 1_555 1_555
C103 C96 1_555 1_555
C104 C128 1_555 1_555
C105 N1 1_555 1_555
C106 C107 1_555 1_555
C108 C151 1_555 1_555
C109 C97 1_555 1_555
C110 C127 1_555 1_555
C111 C109 1_555 1_555
C112 C113 1_555 1_555
C113 C115 1_555 1_555
C114 C117 1_555 1_555
C115 C116 1_555 1_555
C116 C111 1_555 1_555
C117 C153 1_555 1_555
C118 C94 1_555 1_555
C119 C221 1_555 1_555
C120 C95 1_555 1_555
C121 C156 1_555 1_555
C122 C160 1_555 1_555
C123 C150 1_555 1_555
C124 C144 1_555 1_555
C125 C132 1_555 1_555
C126 C132 1_555 1_555
C127 C164 1_555 1_555
C128 C134 1_555 1_555
C129 C131 1_555 1_555
C130 C163 1_555 1_555
C131 C195 1_555 1_555
C133 C139 1_555 1_555
C134 C185 1_555 1_555
C135 C150 1_555 1_555
C136 C162 1_555 1_555
C137 C142 1_555 1_555
C138 C157 1_555 1_555
C139 C193 1_555 1_555
C140 C148 1_555 1_555
C141 C114 1_555 1_555
C142 C189 1_555 1_555
C143 C152 1_555 1_555
C144 C110 1_555 1_555
C145 C192 1_555 1_555
C146 C185 1_555 1_555
C147 C154 1_555 1_555
C148 C158 1_555 1_555
C149 C153 1_555 1_555
C151 C170 1_555 1_555
C152 C165 1_555 1_555
C155 C143 1_555 1_555
C156 C182 1_555 1_555
C157 C172 1_555 1_555
C158 C196 1_555 1_555
C159 C124 1_555 1_555
C160 C193 1_555 1_555
C161 C169 1_555 1_555
C162 C108 1_555 1_555
C163 C174 1_555 1_555
C164 C159 1_555 1_555
C165 C201 1_555 1_555
C166 S42 1_555 1_555
C167 C177 1_555 1_555
C168 C125 1_555 1_555
C169 C92 1_555 1_555
C170 C197 1_555 1_555
C171 C126 1_555 1_555
C172 C175 1_555 1_555
C173 C147 1_555 1_555
C174 C180 1_555 1_555
C175 C184 1_555 1_555
C176 C141 1_555 1_555
C177 C123 1_555 1_555
C178 C137 1_555 1_555
C179 C129 1_555 1_555
C180 C202 1_555 1_555
C181 C168 1_555 1_555
C182 C120 1_555 1_555
C183 C135 1_555 1_555
C184 C187 1_555 1_555
C185 S21 1_555 1_555
C186 C122 1_555 1_555
C187 C138 1_555 1_555
C188 C140 1_555 1_555
C189 C198 1_555 1_555
C190 S46 1_555 1_555
C191 C155 1_555 1_555
C192 C179 1_555 1_555
C194 C104 1_555 1_555
C195 C145 1_555 1_555
C196 C98 1_555 1_555
C197 C136 1_555 1_555
C198 C199 1_555 1_555
C199 C178 1_555 1_555
C200 C130 1_555 1_555
C201 C191 1_555 1_555
C202 C200 1_555 1_555
C203 C229 1_555 1_555
C206 C208 1_555 1_555
C207 C210 1_555 1_555
C208 C243 1_555 1_555
C209 C234 1_555 1_555
C210 C219 1_555 1_555
C211 C212 1_555 1_555
C212 C207 1_555 1_555
C213 C211 1_555 1_555
C214 C215 1_555 1_555
C215 C216 1_555 1_555
C216 C220 1_555 1_555
C217 C214 1_555 1_555
C218 C217 1_555 1_555
C219 C213 1_555 1_555
C220 C218 1_555 1_555
C221 S48 1_555 1_555
C222 C119 1_555 1_555
N1 C94 1_555 1_555
N2 C103 1_555 1_555
N3 Ru1 1_555 1_555
S1 Cd6 1_555 1_555
S2 Cd1 1_555 1_555
S3 Cd1 1_555 1_555
S4 Cd1 1_555 1_555
S5 Cd2 1_555 1_555
S6 Cd2 1_555 1_555
S7 Cd3 1_555 1_555
S8 C175 1_555 1_555
S9 Cd3 1_555 1_555
S10 Cd1 1_555 1_555
S11 C92 1_555 1_555
S12 C61 1_555 1_555
S13 Cd4 1_555 1_555
S14 Cd2 1_555 1_555
S15 C19 1_555 1_555
S16 C177 1_555 1_555
S17 C133 1_555 1_555
S18 C180 1_555 1_555
S19 C182 1_555 1_555
S20 C43 1_555 1_555
S21 Cd4 1_555 1_555
S22 Cd5 1_555 1_555
S23 C141 1_555 1_555
S24 C170 1_555 1_555
S25 C179 1_555 1_555
S26 Cd16 1_555 1_555
S27 C171 1_555 1_555
S28 C25 1_555 1_555
S29 C220 1_555 1_555
S30 Cd7 1_555 1_555
S31 C55 1_555 1_555
S32 C219 1_555 1_555
S33 C159 1_555 1_555
S34 C206 1_555 1_555
S35 C165 1_555 1_555
S36 C71 1_555 1_555
S37 C31 1_555 1_555
S38 C198 1_555 1_555
S39 C65 1_555 1_555
S40 C75 1_555 1_555
S41 C13 1_555 1_555
S42 Cd7 1_555 1_555
S43 C80 1_555 1_555
S44 C98 1_555 1_555
S45 Cd22 1_555 1_555
S46 Cd15 1_555 1_555
S47 C49 1_555 1_555
S48 Cd16 1_555 1_555
S49 C1 1_555 1_555
S50 C7 1_555 1_555
S51 C86 1_555 1_555
S52 C37 1_555 1_555
Ru1 N1 1_555 1_555
Cd2 S2 1_555 1_555
Cd3 S4 1_555 1_555
Cd4 S3 1_555 1_555
Cd5 S2 1_555 1_555
Cd6 S3 1_555 1_555
Cd7 S5 1_555 1_555
Cd8 S7 1_555 1_555
Cd9 S4 1_555 1_555
Cd10 S6 1_555 1_555
Cd11 S10 1_555 1_555
Cd12 S1 1_555 1_555
Cd13 S2 1_555 1_555
Cd14 S6 1_555 1_555
Cd15 S10 1_555 1_555
Cd16 S7 1_555 1_555
Cd17 S1 1_555 1_555
Cd18 S18 1_555 1_555
Cd19 S5 1_555 1_555
Cd20 S1 1_555 1_555
Cd21 S14 1_555 1_555
Cd22 S33 1_555 1_555
Cd23 S3 1_555 1_555
Cd24 S9 1_555 1_555
Cd25 S14 1_555 1_555
Cd26 S4 1_555 1_555
Cd27 S9 1_555 1_555
Cd28 S10 1_555 1_555
Cd29 S9 1_555 1_555
Cd30 S25 1_555 1_555
Cd31 S8 1_555 1_555
Cd32 S14 1_555 1_555
C227 C221 1_555 1_555
C228 C74 1_555 1_555
C229 C190 1_555 1_555
C232 C222 1_555 1_555
C233 C64 1_555 1_555
C234 S45 1_555 1_555
C235 C241 1_555 1_555
C236 C63 1_555 1_555
C237 C239 1_555 1_555
C238 C166 1_555 1_555
C239 C240 1_555 1_555
C240 C243 1_555 1_555
C241 C166 1_555 1_555
C242 C235 1_555 1_555
C93B C93 1_555 1_555
C103B C103 1_555 1_555
C112B N3 1_555 1_555
C118B N3 1_555 1_555
N1B Ru1 1_555 1_555
N2B Ru1 1_555 1_555
N3B C112 1_555 1_555
S33F Cd27 1_555 1_555
S38F Cd24 1_555 1_555
S45F Cd29 1_555 1_555
S51G Cd31 1_555 1_555
Cd24F S38 1_555 1_555
Cd27F S33 1_555 1_555
Cd29F S45 1_555 1_555
Cd31G S51 1_555 1_555
C106 N2 1_555 1_555
C116 C118 1_555 1_555
C118 N3B 1_555 1_555
C133 C186 1_555 1_555
C146 C194 1_555 1_555
C149 C176 1_555 1_555
C161 C173 1_555 1_555
C167 C183 1_555 1_555
C171 C181 1_555 1_555
N2 Ru1 1_555 1_555
S5 Cd6 1_555 1_555
S6 Cd3 1_555 1_555
S7 Cd6 1_555 1_555
S8 Cd20 1_555 1_555
S11 Cd12 1_555 1_555
S11 Cd19 1_555 1_555
S12 Cd5 1_555 1_555
S12 Cd15 1_555 1_555
S13 Cd13 1_555 1_555
S13 Cd19 1_555 1_555
S15 Cd5 1_555 1_555
S15 Cd25 1_555 1_555
S16 Cd13 1_555 1_555
S16 Cd21 1_555 1_555
S17 Cd12 1_555 1_555
S17 Cd31 1_555 1_555
S18 Cd11 1_555 1_555
S19 Cd4 1_555 1_555
S19 Cd12 1_555 1_555
S20 Cd9 1_555 1_555
S20 Cd24 1_555 1_555
S21 Cd11 1_555 1_555
S22 Cd9 1_555 1_555
S22 Cd10 1_555 1_555
S23 Cd11 1_555 1_555
S23 Cd13 1_555 1_555
S24 Cd7 1_555 1_555
S24 Cd20 1_555 1_555
S25 Cd25 1_555 1_555
S26 Cd23 1_555 1_555
S26 Cd26 1_555 1_555
S27 Cd8 1_555 1_555
S27 Cd20 1_555 1_555
S28 Cd17 1_555 1_555
S28 Cd31 1_555 1_555
S29 Cd19 1_555 1_555
S29 Cd21 1_555 1_555
S30 Cd8 1_555 1_555
S30 Cd14 1_555 1_555
S31 Cd23 1_555 1_555
S31 Cd28 1_555 1_555
S32 Cd18 1_555 1_555
S32 Cd28 1_555 1_555
S34 Cd17 1_555 1_555
S34 Cd23 1_555 1_555
S35 Cd26 1_555 1_555
S35 Cd27 1_555 1_555
S36 Cd14 1_555 1_555
S36 Cd32 1_555 1_555
S37 Cd10 1_555 1_555
S37 Cd24 1_555 1_555
S38 Cd22 1_555 1_555
S39 Cd10 1_555 1_555
S39 Cd25 1_555 1_555
S40 Cd16 1_555 1_555
S40 Cd17 1_555 1_555
S41 Cd26 1_555 1_555
S41 Cd28 1_555 1_555
S42 Cd32 1_555 1_555
S43 Cd8 1_555 1_555
S43 Cd29 1_555 1_555
S44 Cd21 1_555 1_555
S44 Cd30 1_555 1_555
S46 Cd18 1_555 1_555
S47 Cd14 1_555 1_555
S47 Cd29 1_555 1_555
S48 Cd27 1_555 1_555
S49 Cd30 1_555 1_555
S49 Cd32 1_555 1_555
S50 Cd9 1_555 1_555
S50 Cd15 1_555 1_555
S51 Cd18 1_555 1_555
S52 Cd22 1_555 1_555
S52 Cd30 1_555 1_555
Ru1 N3B 1_555 1_555
C103B N2B 1_555 1_555

#END
