
#######################################################################
#
#                 Cambridge Crystallographic Data Centre
#                                CCDC 
#
#######################################################################
#
# If this CIF has been generated from an entry in the Cambridge 
# Structural Database, then it will include bibliographic, chemical, 
# crystal, experimental, refinement or atomic coordinate data resulting 
# from the CCDC's data processing and validation procedures.
#
#######################################################################

data_IGAGUU
_chemical_formula_moiety         'C126 H116 Cl16 Cr16 Cu11 N21 O66'
_symmetry_cell_setting           hexagonal
_symmetry_space_group_name_H-M   'P 63/m c m'
_symmetry_Int_Tables_number      193
_space_group_name_Hall           '-P 6c 2'
loop_
_symmetry_equiv_pos_site_id
_symmetry_equiv_pos_as_xyz
1 x,y,z
2 -x,-y,1/2+z
3 -y,x-y,z
4 -x+y,-x,z
5 x-y,x,1/2+z
6 y,-x+y,1/2+z
7 x-y,-y,1/2-z
8 -x,-x+y,1/2-z
9 y,x,1/2-z
10 -y,-x,-z
11 x,x-y,-z
12 -x+y,y,-z
13 -x,-y,-z
14 x,y,1/2-z
15 y,-x+y,-z
16 x-y,x,-z
17 -x+y,-x,1/2-z
18 -y,x-y,1/2-z
19 -x+y,y,1/2+z
20 x,x-y,1/2+z
21 -y,-x,1/2+z
22 y,x,z
23 -x,-x+y,z
24 x-y,-y,z
_cell_length_a                   29.72(2)
_cell_length_b                   29.72(2)
_cell_length_c                   26.388(18)
_cell_angle_alpha                90
_cell_angle_beta                 90
_cell_angle_gamma                120
_cell_volume                     20185.3
loop_
_atom_site_label
_atom_site_type_symbol
_atom_site_fract_x
_atom_site_fract_y
_atom_site_fract_z
O7 O 0.3333 0.6667 0.3598(7)
O8 O 0.314(2) 1.0000 0.359(3)
O9 O 0.287(3) 1.0000 0.448(3)
O10 O 0.232(2) 1.0000 0.376(3)
Cu1 Cu 0.23654(16) 0.61827(8) 0.5000
Cr1 Cr -0.0000 0.5837(3) 0.2500
Cr2 Cr -0.0000 0.6781(2) 0.3120(2)
Cl1 Cl 0.2136(2) 0.6689(2) 0.5462(2)
Cl2 Cl 0.3333 0.6667 0.5000
C1 C 0.069(2) 0.7607(18) 0.2500
C2 C 0.1224(13) 0.8073(12) 0.2500
O1 O -0.0000 0.5097(10) 0.2500
O2 O 0.0521(7) 0.6038(6) 0.2971(7)
O3 O 0.0000 0.7124(7) 0.3836(8)
O4 O -0.0000 0.6459(5) 0.2500
O5 O 0.0538(6) 0.6681(6) 0.3416(6)
O6 O 0.0522(7) 0.7445(6) 0.2954(7)
N1 N 0.2481(7) 0.6646(7) 0.4370(6)
H1 H 0.2661 0.6988 0.4469
H2 H 0.2686 0.6595 0.4143
C3 C 0.2004(10) 0.6551(10) 0.4107(9)
C4 C 0.1782(9) 0.6191(8) 0.3729(9)
H3 H 0.1946 0.6001 0.3627
C5 C 0.1158(7) 0.6437(6) 0.3587(6)
C6 C 0.1387(8) 0.6798(7) 0.3965(7)
H4 H 0.1244 0.7012 0.4046
C7 C 0.1812(9) 0.6866(8) 0.4233(8)
H5 H 0.1964 0.7120 0.4492
C8 C 0.1334(9) 0.6095(8) 0.3491(8)
H6 H 0.1152 0.5807 0.3271
C9 C 0.0701(6) 0.6383(5) 0.3303(5)
C10 C 0.1976(14) 0.8734(13) 0.2952(4)
H7 H 0.2147 0.8884 0.3263
C11 C 0.1482(13) 0.8300(12) 0.2950(4)
H8 H 0.1316 0.8154 0.3264
C12 C 0.2215(19) 0.8944(17) 0.2500
N2 N 0.275(2) 0.9410(18) 0.2500
H9 H 0.2904 0.9548 0.2211
O6M O 0.0522(7) 0.7445(6) 0.2046(7)
C10M C 0.1976(14) 0.8734(13) 0.2048(4)
H7M H 0.2147 0.8884 0.1737
C11M C 0.1482(13) 0.8300(12) 0.2050(4)
H8M H 0.1316 0.8154 0.1736
H9M H 0.2904 0.9548 0.2789
Cu1B Cu 0.38173(8) 0.61827(18) 0.5000
Cr1B Cr 0.4163(3) 0.4163(3) 0.2500
Cl1B Cl 0.3311(2) 0.5447(3) 0.5462(2)
O1B O 0.4903(10) 0.4903(10) 0.2500
O2B O 0.3962(6) 0.4483(9) 0.2971(7)
O4B O 0.3541(5) 0.3541(5) 0.2500
O5B O 0.3319(6) 0.3857(8) 0.3416(6)
N1B N 0.3354(7) 0.5835(10) 0.4370(6)
H1B H 0.3012 0.5673 0.4469
H2B H 0.3405 0.6091 0.4143
C3B C 0.3449(10) 0.5453(14) 0.4107(9)
C4B C 0.3809(8) 0.5591(12) 0.3729(9)
H3B H 0.3999 0.5945 0.3627
C5B C 0.3563(6) 0.4721(9) 0.3587(6)
C6B C 0.3202(7) 0.4589(11) 0.3965(7)
H4B H 0.2988 0.4232 0.4046
C7B C 0.3134(8) 0.4946(12) 0.4233(8)
H5B H 0.2880 0.4844 0.4492
C8B C 0.3905(8) 0.5239(12) 0.3491(8)
H6B H 0.4193 0.5345 0.3271
C9B C 0.3617(5) 0.4318(8) 0.3303(5)
Cu1C Cu 0.38173(18) 0.76346(16) 0.5000
Cl1C Cl 0.4553(3) 0.7864(2) 0.5462(2)
O2C O 0.5517(9) 0.9479(7) 0.2971(7)
O5C O 0.6143(8) 0.9462(6) 0.3416(6)
N1C N 0.4165(10) 0.7519(7) 0.4370(6)
H1C H 0.4327 0.7339 0.4469
H2C H 0.3909 0.7314 0.4143
C3C C 0.4547(14) 0.7996(10) 0.4107(9)
C4C C 0.4409(12) 0.8218(9) 0.3729(9)
H3C H 0.4055 0.8054 0.3627
C5C C 0.5279(9) 0.8842(7) 0.3587(6)
C6C C 0.5411(11) 0.8613(8) 0.3965(7)
H4C H 0.5768 0.8756 0.4046
C7C C 0.5054(12) 0.8188(9) 0.4233(8)
H5C H 0.5156 0.8036 0.4492
C8C C 0.4761(12) 0.8666(9) 0.3491(8)
H6C H 0.4655 0.8848 0.3271
C9C C 0.5682(8) 0.9299(6) 0.3303(5)
Cu1A Cu -0.23654(16) 0.38173(8) 0.0000
Cr2G Cr -0.0000 0.6781(2) 0.1880(2)
Cl1G Cl -0.2136(2) 0.4553(3) -0.0462(2)
C1G C -0.069(2) 0.6917(27) 0.2500
C2G C -0.1224(13) 0.6849(18) 0.2500
O2G O -0.0521(7) 0.5517(9) 0.2029(7)
O3G O 0.0000 0.7124(7) 0.1164(8)
O5G O -0.0538(6) 0.6143(8) 0.1584(6)
O6G O -0.0522(7) 0.6923(9) 0.2046(7)
N1G N -0.2481(7) 0.4165(10) 0.0630(6)
H1G H -0.2661 0.4327 0.0531
H2G H -0.2686 0.3909 0.0857
C3G C -0.2004(10) 0.4547(14) 0.0893(9)
C4G C -0.1782(9) 0.4409(12) 0.1271(9)
H3G H -0.1946 0.4055 0.1373
C5G C -0.1158(7) 0.5279(9) 0.1413(6)
C6G C -0.1387(8) 0.5411(11) 0.1035(7)
H4G H -0.1244 0.5768 0.0954
C7G C -0.1812(9) 0.5054(12) 0.0767(8)
H5G H -0.1964 0.5156 0.0508
C8G C -0.1334(9) 0.4761(12) 0.1509(8)
H6G H -0.1152 0.4655 0.1729
C9G C -0.0701(6) 0.5682(8) 0.1697(5)
C10G C -0.1976(14) 0.6758(19) 0.2048(4)
H7G H -0.2147 0.6737 0.1737
C11G C -0.1482(13) 0.6818(18) 0.2050(4)
H8G H -0.1316 0.6838 0.1736
C12G C -0.2215(19) 0.6729(25) 0.2500
N2G N -0.275(2) 0.6660(27) 0.2500
H9G H -0.2904 0.6644 0.2789
O6V O -0.0522(7) 0.6923(9) 0.2954(7)
C10V C -0.1976(14) 0.6758(19) 0.2952(4)
H7V H -0.2147 0.6737 0.3263
C11V C -0.1482(13) 0.6818(18) 0.2950(4)
H8V H -0.1316 0.6838 0.3264
H9V H -0.2904 0.6644 0.2211
Cr2I Cr 0.3219(2) 1.0000 0.6880(2)
Cl1I Cl 0.3311(2) 0.7864(2) 0.4538(2)
O2I O 0.3962(6) 0.9479(7) 0.7029(7)
O3I O 0.2876(7) 1.0000 0.6164(8)
O5I O 0.3319(6) 0.9462(6) 0.6584(6)
N1I N 0.3354(7) 0.7519(7) 0.5630(6)
H1I H 0.3012 0.7339 0.5531
H2I H 0.3405 0.7314 0.5857
C3I C 0.3449(10) 0.7996(10) 0.5893(9)
C4I C 0.3809(8) 0.8218(9) 0.6271(9)
H3I H 0.3999 0.8054 0.6373
C5I C 0.3563(6) 0.8842(7) 0.6413(6)
C6I C 0.3202(7) 0.8613(8) 0.6035(7)
H4I H 0.2988 0.8756 0.5954
C7I C 0.3134(8) 0.8188(9) 0.5767(8)
H5I H 0.2880 0.8036 0.5508
C8I C 0.3905(8) 0.8666(9) 0.6509(8)
H6I H 0.4193 0.8848 0.6729
C9I C 0.3617(5) 0.9299(6) 0.6697(5)
Cr2J Cr 0.0000 0.3219(2) 0.6880(2)
Cl1J Cl 0.2136(2) 0.5447(3) 0.4538(2)
O2J O 0.0521(7) 0.4483(9) 0.7029(7)
O3J O 0.0000 0.2876(7) 0.6164(8)
O5J O 0.0538(6) 0.3857(8) 0.6584(6)
N1J N 0.2481(7) 0.5835(10) 0.5630(6)
H1J H 0.2661 0.5673 0.5531
H2J H 0.2686 0.6091 0.5857
C3J C 0.2004(10) 0.5453(14) 0.5893(9)
C4J C 0.1782(9) 0.5591(12) 0.6271(9)
H3J H 0.1946 0.5945 0.6373
C5J C 0.1158(7) 0.4721(9) 0.6413(6)
C6J C 0.1387(8) 0.4589(11) 0.6035(7)
H4J H 0.1244 0.4232 0.5954
C7J C 0.1812(9) 0.4946(12) 0.5767(8)
H5J H 0.1964 0.4844 0.5508
C8J C 0.1334(9) 0.5239(12) 0.6509(8)
H6J H 0.1152 0.5345 0.6729
C9J C 0.0701(6) 0.4318(8) 0.6697(5)
Cr2K Cr 0.6781(2) 0.6781(2) 0.6880(2)
Cl1K Cl 0.4553(3) 0.6689(2) 0.4538(2)
O2K O 0.5517(9) 0.6038(6) 0.7029(7)
O3K O 0.7124(7) 0.7124(7) 0.6164(8)
O5K O 0.6143(8) 0.6681(6) 0.6584(6)
N1K N 0.4165(10) 0.6646(7) 0.5630(6)
H1K H 0.4327 0.6988 0.5531
H2K H 0.3909 0.6595 0.5857
C3K C 0.4547(14) 0.6551(10) 0.5893(9)
C4K C 0.4409(12) 0.6191(8) 0.6271(9)
H3K H 0.4055 0.6001 0.6373
C5K C 0.5279(9) 0.6437(6) 0.6413(6)
C6K C 0.5411(11) 0.6798(7) 0.6035(7)
H4K H 0.5768 0.7012 0.5954
C7K C 0.5054(12) 0.6866(8) 0.5767(8)
H5K H 0.5156 0.7120 0.5508
C8K C 0.4761(12) 0.6095(8) 0.6509(8)
H6K H 0.4655 0.5807 0.6729
C9K C 0.5682(8) 0.6383(5) 0.6697(5)
O2M O 0.0521(7) 0.6038(6) 0.2029(7)
O5M O 0.0538(6) 0.6681(6) 0.1584(6)
N1M N 0.2481(7) 0.6646(7) 0.0630(6)
H1M H 0.2661 0.6988 0.0531
H2M H 0.2686 0.6595 0.0857
C3M C 0.2004(10) 0.6551(10) 0.0893(9)
C4M C 0.1782(9) 0.6191(8) 0.1271(9)
H3M H 0.1946 0.6001 0.1373
C5M C 0.1158(7) 0.6437(6) 0.1413(6)
C6M C 0.1387(8) 0.6798(7) 0.1035(7)
H4M H 0.1244 0.7012 0.0954
C7M C 0.1812(9) 0.6866(8) 0.0767(8)
H5M H 0.1964 0.7120 0.0508
C8M C 0.1334(9) 0.6095(8) 0.1509(8)
H6M H 0.1152 0.5807 0.1729
C9M C 0.0701(6) 0.6383(5) 0.1697(5)
O2O O 0.4483(9) 1.0521(7) 0.7029(7)
O5O O 0.3857(8) 1.0538(6) 0.6584(6)
N1O N 0.5835(10) 1.2481(7) 0.5630(6)
H1O H 0.5673 1.2661 0.5531
H2O H 0.6091 1.2686 0.5857
C3O C 0.5453(14) 1.2004(10) 0.5893(9)
C4O C 0.5591(12) 1.1782(9) 0.6271(9)
H3O H 0.5945 1.1946 0.6373
C5O C 0.4721(9) 1.1158(7) 0.6413(6)
C6O C 0.4589(11) 1.1387(8) 0.6035(7)
H4O H 0.4232 1.1244 0.5954
C7O C 0.4946(12) 1.1812(9) 0.5767(8)
H5O H 0.4844 1.1964 0.5508
C8O C 0.5239(12) 1.1334(9) 0.6509(8)
H6O H 0.5345 1.1152 0.6729
C9O C 0.4318(8) 1.0701(6) 0.6697(5)
O2Q O 0.3962(6) 0.4483(9) 0.2029(7)
O5Q O 0.3319(6) 0.3857(8) 0.1584(6)
N1Q N 0.3354(7) 0.5835(10) 0.0630(6)
H1Q H 0.3012 0.5673 0.0531
H2Q H 0.3405 0.6091 0.0857
C3Q C 0.3449(10) 0.5453(14) 0.0893(9)
C4Q C 0.3809(8) 0.5591(12) 0.1271(9)
H3Q H 0.3999 0.5945 0.1373
C5Q C 0.3563(6) 0.4721(9) 0.1413(6)
C6Q C 0.3202(7) 0.4589(11) 0.1035(7)
H4Q H 0.2988 0.4232 0.0954
C7Q C 0.3134(8) 0.4946(12) 0.0767(8)
H5Q H 0.2880 0.4844 0.0508
C8Q C 0.3905(8) 0.5239(12) 0.1509(8)
H6Q H 0.4193 0.5345 0.1729
C9Q C 0.3617(5) 0.4318(8) 0.1697(5)
Cu1L Cu -0.23654(16) 0.38173(8) 0.5000
Cl1V Cl -0.2136(2) 0.4553(3) 0.5462(2)
O2V O -0.0521(7) 0.5517(9) 0.2971(7)
O5V O -0.0538(6) 0.6143(8) 0.3416(6)
N1V N -0.2481(7) 0.4165(10) 0.4370(6)
H1V H -0.2661 0.4327 0.4469
H2V H -0.2686 0.3909 0.4143
C3V C -0.2004(10) 0.4547(14) 0.4107(9)
C4V C -0.1782(9) 0.4409(12) 0.3729(9)
H3V H -0.1946 0.4055 0.3627
C5V C -0.1158(7) 0.5279(9) 0.3587(6)
C6V C -0.1387(8) 0.5411(11) 0.3965(7)
H4V H -0.1244 0.5768 0.4046
C7V C -0.1812(9) 0.5054(12) 0.4233(8)
H5V H -0.1964 0.5156 0.4492
C8V C -0.1334(9) 0.4761(12) 0.3491(8)
H6V H -0.1152 0.4655 0.3271
C9V C -0.0701(6) 0.5682(8) 0.3303(5)
Cr1C Cr 0.5837(3) 1.0000 0.2500
Cr2C Cr 0.6781(2) 1.0000 0.3120(2)
C1H C 0.7607(18) 1.069(2) 0.2500
C2H C 0.8073(12) 1.1224(13) 0.2500
O1C O 0.5097(10) 1.0000 0.2500
O3C O 0.7124(7) 1.0000 0.3836(8)
O4C O 0.6459(5) 1.0000 0.2500
O6U O 0.7445(6) 1.0522(7) 0.2954(7)
C10U C 0.8734(13) 1.1976(14) 0.2952(4)
H7U H 0.8884 1.2147 0.3263
C11U C 0.8300(12) 1.1482(13) 0.2950(4)
H8U H 0.8154 1.1316 0.3264
C12H C 0.8944(17) 1.2215(19) 0.2500
N2H N 0.9410(18) 1.275(2) 0.2500
H9U H 0.9548 1.2904 0.2211
O6H O 0.7445(6) 1.0522(7) 0.2046(7)
C10H C 0.8734(13) 1.1976(14) 0.2048(4)
H7H H 0.8884 1.2147 0.1737
C11H C 0.8300(12) 1.1482(13) 0.2050(4)
H8H H 0.8154 1.1316 0.1736
H9H H 0.9548 1.2904 0.2789
C1C C 0.6917(27) 0.931(2) 0.2500
C2C C 0.6849(18) 0.8776(13) 0.2500
O6C O 0.6923(9) 0.9478(7) 0.2954(7)
C10C C 0.6758(19) 0.8024(14) 0.2952(4)
H7C H 0.6737 0.7853 0.3263
C11C C 0.6818(18) 0.8518(13) 0.2950(4)
H8C H 0.6838 0.8684 0.3264
C12C C 0.6729(25) 0.7785(19) 0.2500
N2C N 0.6660(27) 0.725(2) 0.2500
H9C H 0.6644 0.7096 0.2211
O6P O 0.6923(9) 0.9478(7) 0.2046(7)
C10P C 0.6758(19) 0.8024(14) 0.2048(4)
H7P H 0.6737 0.7853 0.1737
C11P C 0.6818(18) 0.8518(13) 0.2050(4)
H8P H 0.6838 0.8684 0.1736
H9P H 0.6644 0.7096 0.2789
C1I C 0.2393(18) 0.931(2) 0.7500
C2I C 0.1927(12) 0.8776(13) 0.7500
O6I O 0.2555(6) 0.9478(7) 0.7046(7)
C10I C 0.1266(13) 0.8024(14) 0.7048(4)
H7I H 0.1116 0.7853 0.6737
C11I C 0.1700(12) 0.8518(13) 0.7050(4)
H8I H 0.1846 0.8684 0.6736
C12I C 0.1056(17) 0.7785(19) 0.7500
N2I N 0.0590(18) 0.725(2) 0.7500
H9I H 0.0452 0.7096 0.7789
O6T O 0.2555(6) 0.9478(7) 0.7954(7)
C10T C 0.1266(13) 0.8024(14) 0.7952(4)
H7T H 0.1116 0.7853 0.8263
C11T C 0.1700(12) 0.8518(13) 0.7950(4)
H8T H 0.1846 0.8684 0.8264
H9T H 0.0452 0.7096 0.7211
C1D C 0.3083(27) 1.069(2) 0.7500
C2D C 0.3151(18) 1.1224(13) 0.7500
O6O O 0.3077(9) 1.0522(7) 0.7046(7)
C10O C 0.3242(19) 1.1976(14) 0.7048(4)
H7O H 0.3263 1.2147 0.6737
C11O C 0.3182(18) 1.1482(13) 0.7050(4)
H8O H 0.3162 1.1316 0.6736
C12D C 0.3271(25) 1.2215(19) 0.7500
N2D N 0.3340(27) 1.275(2) 0.7500
H9O H 0.3356 1.2904 0.7789
O6D O 0.3077(9) 1.0522(7) 0.7954(7)
C10D C 0.3242(19) 1.1976(14) 0.7952(4)
H7D H 0.3263 1.2147 0.8263
C11D C 0.3182(18) 1.1482(13) 0.7950(4)
H8D H 0.3162 1.1316 0.8264
H9D H 0.3356 1.2904 0.7211
O2W O 0.4483(9) 0.3962(6) 0.2971(7)
O5W O 0.3857(8) 0.3319(6) 0.3416(6)
N1W N 0.5835(10) 0.3354(7) 0.4370(6)
H1W H 0.5673 0.3012 0.4469
H2W H 0.6091 0.3405 0.4143
C3W C 0.5453(14) 0.3449(10) 0.4107(9)
C4W C 0.5591(12) 0.3809(8) 0.3729(9)
H3W H 0.5945 0.3999 0.3627
C5W C 0.4721(9) 0.3563(6) 0.3587(6)
C6W C 0.4589(11) 0.3202(7) 0.3965(7)
H4W H 0.4232 0.2988 0.4046
C7W C 0.4946(12) 0.3134(8) 0.4233(8)
H5W H 0.4844 0.2880 0.4492
C8W C 0.5239(12) 0.3905(8) 0.3491(8)
H6W H 0.5345 0.4193 0.3271
C9W C 0.4318(8) 0.3617(5) 0.3303(5)
Cl1A Cl -0.2136(2) 0.3311(2) 0.0462(2)
Cl1L Cl -0.2136(2) 0.3311(2) 0.4538(2)
Cu1M Cu 0.23654(16) 0.61827(8) 0.0000
Cl2A Cl -0.3333 0.3333 0.0000
Cl1M Cl 0.2136(2) 0.6689(2) -0.0462(2)
Cl1S Cl 0.2136(2) 0.5447(3) 0.0462(2)
Cu1D Cu -0.38173(18) 0.23654(16) 0.0000
Cu1E Cu -0.38173(8) 0.38173(18) 0.0000
Cu1N Cu 0.61827(8) 0.38173(18) 0.5000
Cu1O Cu 0.61827(18) 1.23654(16) 0.5000
Cu1Q Cu 0.38173(8) 0.61827(18) 0.0000
Cr1A Cr 0.0000 0.4163(3) 0.7500
Cr1D Cr 0.4163(3) 1.0000 0.7500
Cr1E Cr 0.5837(3) 0.5837(3) 0.7500
Cr2B Cr 0.3219(2) 0.3219(2) 0.3120(2)
Cr2D Cr 0.3219(2) 1.0000 0.8120(2)
Cr2F Cr 0.3219(2) 0.3219(2) 0.1880(2)
Cr2H Cr 0.6781(2) 1.0000 0.1880(2)
Cl2L Cl -0.3333 0.3333 0.5000
Cl2M Cl 0.3333 0.6667 0.0000
O2F O 0.4483(9) 0.3962(6) 0.2029(7)
O2H O 0.6038(6) 1.0521(7) 0.2029(7)
O2P O 0.5517(9) 0.9479(7) 0.2029(7)
O2U O 0.6038(6) 1.0521(7) 0.2971(7)
O4A O 0.0000 0.3541(5) 0.7500
O4D O 0.3541(5) 1.0000 0.7500
O4E O 0.6459(5) 0.6459(5) 0.7500
O5L O -0.0538(6) 0.3319(6) 0.6584(6)
O5N O 0.6681(6) 0.6143(8) 0.6584(6)
O5U O 0.6681(6) 1.0538(6) 0.3416(6)
O6J O 0.0522(7) 0.3077(9) 0.7046(7)
O6K O 0.6923(9) 0.7445(6) 0.7046(7)
O6L O -0.0522(7) 0.2555(6) 0.7046(7)
O6N O 0.7445(6) 0.6923(9) 0.7046(7)
N1A N -0.2481(7) 0.3354(7) -0.0630(6)
N1L N -0.2481(7) 0.3354(7) 0.5630(6)
N1S N 0.2481(7) 0.5835(10) -0.0630(6)
loop_
_geom_bond_atom_site_label_1
_geom_bond_atom_site_label_2
_geom_bond_site_symmetry_1
_geom_bond_site_symmetry_2
Cu1 Cl1 1_555 1_555
Cr1 O1 1_555 1_555
Cr2 O3 1_555 1_555
Cl2 Cu1 1_555 1_555
C1 C2 1_555 1_555
C2 C11 1_555 1_555
O2 Cr1 1_555 1_555
O4 Cr1 1_555 1_555
O5 Cr2 1_555 1_555
O6 Cr2 1_555 1_555
N1 Cu1 1_555 1_555
H1 N1 1_555 1_555
H2 N1 1_555 1_555
C3 N1 1_555 1_555
C4 C3 1_555 1_555
H3 C4 1_555 1_555
C5 C6 1_555 1_555
C6 H4 1_555 1_555
C7 C3 1_555 1_555
H5 C7 1_555 1_555
C8 C4 1_555 1_555
H6 C8 1_555 1_555
C9 O2 1_555 1_555
C10 H7 1_555 1_555
C11 C10 1_555 1_555
H8 C11 1_555 1_555
C12 C10 1_555 1_555
N2 C12 1_555 1_555
H9 N2 1_555 1_555
O6M C1 1_555 1_555
C10M C12 1_555 1_555
H7M C10M 1_555 1_555
C11M C2 1_555 1_555
H8M C11M 1_555 1_555
H9M N2 1_555 1_555
Cu1B Cl2 1_555 1_555
Cr1B O1B 1_555 1_555
Cl1B Cu1B 1_555 1_555
O2B Cr1B 1_555 1_555
O4B Cr1B 1_555 1_555
O5B C9B 1_555 1_555
N1B Cu1B 1_555 1_555
H1B N1B 1_555 1_555
H2B N1B 1_555 1_555
C3B N1B 1_555 1_555
C4B C3B 1_555 1_555
H3B C4B 1_555 1_555
C5B C6B 1_555 1_555
C6B H4B 1_555 1_555
C7B C3B 1_555 1_555
H5B C7B 1_555 1_555
C8B C4B 1_555 1_555
H6B C8B 1_555 1_555
C9B O2B 1_555 1_555
Cu1C Cl2 1_555 1_555
Cl1C Cu1C 1_555 1_555
O2C C9C 1_555 1_555
O5C C9C 1_555 1_555
N1C Cu1C 1_555 1_555
H1C N1C 1_555 1_555
H2C N1C 1_555 1_555
C3C N1C 1_555 1_555
C4C C3C 1_555 1_555
H3C C4C 1_555 1_555
C5C C6C 1_555 1_555
C6C H4C 1_555 1_555
C7C C3C 1_555 1_555
H5C C7C 1_555 1_555
C8C C4C 1_555 1_555
H6C C8C 1_555 1_555
C9C C5C 1_555 1_555
Cu1A Cl1G 1_555 1_555
Cr2G O4 1_555 1_555
C1G C2G 1_555 1_555
C2G C11G 1_555 1_555
O2G Cr1 1_555 1_555
O3G Cr2G 1_555 1_555
O5G Cr2G 1_555 1_555
O6G Cr2G 1_555 1_555
N1G Cu1A 1_555 1_555
H1G N1G 1_555 1_555
H2G N1G 1_555 1_555
C3G N1G 1_555 1_555
C4G C3G 1_555 1_555
H3G C4G 1_555 1_555
C5G C6G 1_555 1_555
C6G H4G 1_555 1_555
C7G C3G 1_555 1_555
H5G C7G 1_555 1_555
C8G C4G 1_555 1_555
H6G C8G 1_555 1_555
C9G O2G 1_555 1_555
C10G H7G 1_555 1_555
C11G C10G 1_555 1_555
H8G C11G 1_555 1_555
C12G C10G 1_555 1_555
N2G C12G 1_555 1_555
H9G N2G 1_555 1_555
O6V Cr2 1_555 1_555
C10V C12G 1_555 1_555
H7V C10V 1_555 1_555
C11V C2G 1_555 1_555
H8V C11V 1_555 1_555
H9V N2G 1_555 1_555
Cr2I O3I 1_555 1_555
Cl1I Cu1C 1_555 1_555
O2I C9I 1_555 1_555
O5I Cr2I 1_555 1_555
N1I Cu1C 1_555 1_555
H1I N1I 1_555 1_555
H2I N1I 1_555 1_555
C3I N1I 1_555 1_555
C4I C3I 1_555 1_555
H3I C4I 1_555 1_555
C5I C6I 1_555 1_555
C6I H4I 1_555 1_555
C7I C3I 1_555 1_555
H5I C7I 1_555 1_555
C8I C4I 1_555 1_555
H6I C8I 1_555 1_555
C9I O5I 1_555 1_555
Cr2J O3J 1_555 1_555
Cl1J Cu1 1_555 1_555
O2J C9J 1_555 1_555
O5J Cr2J 1_555 1_555
N1J Cu1 1_555 1_555
H1J N1J 1_555 1_555
H2J N1J 1_555 1_555
C3J N1J 1_555 1_555
C4J C3J 1_555 1_555
H3J C4J 1_555 1_555
C5J C6J 1_555 1_555
C6J H4J 1_555 1_555
C7J C3J 1_555 1_555
H5J C7J 1_555 1_555
C8J C4J 1_555 1_555
H6J C8J 1_555 1_555
C9J O5J 1_555 1_555
Cr2K O3K 1_555 1_555
Cl1K Cu1B 1_555 1_555
O2K C9K 1_555 1_555
O5K Cr2K 1_555 1_555
N1K Cu1B 1_555 1_555
H1K N1K 1_555 1_555
H2K N1K 1_555 1_555
C3K N1K 1_555 1_555
C4K C3K 1_555 1_555
H3K C4K 1_555 1_555
C5K C6K 1_555 1_555
C6K H4K 1_555 1_555
C7K C3K 1_555 1_555
H5K C7K 1_555 1_555
C8K C4K 1_555 1_555
H6K C8K 1_555 1_555
C9K O5K 1_555 1_555
O2M Cr1 1_555 1_555
O5M Cr2G 1_555 1_555
N1M H1M 1_555 1_555
H2M N1M 1_555 1_555
C3M N1M 1_555 1_555
C4M C3M 1_555 1_555
H3M C4M 1_555 1_555
C5M C6M 1_555 1_555
C6M H4M 1_555 1_555
C7M C3M 1_555 1_555
H5M C7M 1_555 1_555
C8M C4M 1_555 1_555
H6M C8M 1_555 1_555
C9M O2M 1_555 1_555
O2O C9O 1_555 1_555
O5O Cr2I 1_555 1_555
N1O H1O 1_555 1_555
H2O N1O 1_555 1_555
C3O N1O 1_555 1_555
C4O C3O 1_555 1_555
H3O C4O 1_555 1_555
C5O C6O 1_555 1_555
C6O H4O 1_555 1_555
C7O C3O 1_555 1_555
H5O C7O 1_555 1_555
C8O C4O 1_555 1_555
H6O C8O 1_555 1_555
C9O O5O 1_555 1_555
O2Q Cr1B 1_555 1_555
O5Q C9Q 1_555 1_555
N1Q H1Q 1_555 1_555
H2Q N1Q 1_555 1_555
C3Q N1Q 1_555 1_555
C4Q C3Q 1_555 1_555
H3Q C4Q 1_555 1_555
C5Q C6Q 1_555 1_555
C6Q H4Q 1_555 1_555
C7Q C3Q 1_555 1_555
H5Q C7Q 1_555 1_555
C8Q C4Q 1_555 1_555
H6Q C8Q 1_555 1_555
C9Q O2Q 1_555 1_555
Cu1L Cl1V 1_555 1_555
O2V Cr1 1_555 1_555
O5V Cr2 1_555 1_555
N1V Cu1L 1_555 1_555
H1V N1V 1_555 1_555
H2V N1V 1_555 1_555
C3V N1V 1_555 1_555
C4V C3V 1_555 1_555
H3V C4V 1_555 1_555
C5V C6V 1_555 1_555
C6V H4V 1_555 1_555
C7V C3V 1_555 1_555
H5V C7V 1_555 1_555
C8V C4V 1_555 1_555
H6V C8V 1_555 1_555
C9V O2V 1_555 1_555
Cr1C O2C 1_555 1_555
Cr2C O5C 1_555 1_555
C1H C2H 1_555 1_555
C2H C11U 1_555 1_555
O1C Cr1C 1_555 1_555
O3C Cr2C 1_555 1_555
O4C Cr1C 1_555 1_555
O6U Cr2C 1_555 1_555
C10U H7U 1_555 1_555
C11U C10U 1_555 1_555
H8U C11U 1_555 1_555
C12H C10U 1_555 1_555
N2H C12H 1_555 1_555
H9U N2H 1_555 1_555
O6H C1H 1_555 1_555
C10H C12H 1_555 1_555
H7H C10H 1_555 1_555
C11H C2H 1_555 1_555
H8H C11H 1_555 1_555
H9H N2H 1_555 1_555
C1C C2C 1_555 1_555
C2C C11C 1_555 1_555
O6C Cr2C 1_555 1_555
C10C H7C 1_555 1_555
C11C C10C 1_555 1_555
H8C C11C 1_555 1_555
C12C C10C 1_555 1_555
N2C C12C 1_555 1_555
H9C N2C 1_555 1_555
O6P C1C 1_555 1_555
C10P C12C 1_555 1_555
H7P C10P 1_555 1_555
C11P C2C 1_555 1_555
H8P C11P 1_555 1_555
H9P N2C 1_555 1_555
C1I C2I 1_555 1_555
C2I C11I 1_555 1_555
O6I Cr2I 1_555 1_555
C10I H7I 1_555 1_555
C11I C10I 1_555 1_555
H8I C11I 1_555 1_555
C12I C10I 1_555 1_555
N2I C12I 1_555 1_555
H9I N2I 1_555 1_555
O6T C1I 1_555 1_555
C10T C12I 1_555 1_555
H7T C10T 1_555 1_555
C11T C2I 1_555 1_555
H8T C11T 1_555 1_555
H9T N2I 1_555 1_555
C1D C2D 1_555 1_555
C2D C11O 1_555 1_555
O6O Cr2I 1_555 1_555
C10O H7O 1_555 1_555
C11O C10O 1_555 1_555
H8O C11O 1_555 1_555
C12D C10O 1_555 1_555
N2D C12D 1_555 1_555
H9O N2D 1_555 1_555
O6D C1D 1_555 1_555
C10D C12D 1_555 1_555
H7D C10D 1_555 1_555
C11D C2D 1_555 1_555
H8D C11D 1_555 1_555
H9D N2D 1_555 1_555
O2W Cr1B 1_555 1_555
O5W C9W 1_555 1_555
N1W H1W 1_555 1_555
H2W N1W 1_555 1_555
C3W N1W 1_555 1_555
C4W C3W 1_555 1_555
H3W C4W 1_555 1_555
C5W C6W 1_555 1_555
C6W H4W 1_555 1_555
C7W C3W 1_555 1_555
H5W C7W 1_555 1_555
C8W C4W 1_555 1_555
H6W C8W 1_555 1_555
C9W O2W 1_555 1_555
Cl1A Cu1A 1_555 1_555
Cl1L Cu1L 1_555 1_555
Cu1M N1M 1_555 1_555
Cl2A Cu1A 1_555 1_555
Cl1M Cu1M 1_555 1_555
Cl1S Cu1M 1_555 1_555
Cu1D Cl2A 1_555 1_555
Cu1E Cl2A 1_555 1_555
Cu1N N1W 1_555 1_555
Cu1O N1O 1_555 1_555
Cu1Q N1Q 1_555 1_555
Cr1A O2J 1_555 1_555
Cr1D O2I 1_555 1_555
Cr1E O2K 1_555 1_555
Cr2B O4B 1_555 1_555
Cr2D O6T 1_555 1_555
Cr2F O4B 1_555 1_555
Cr2H O4C 1_555 1_555
Cl2L Cu1L 1_555 1_555
Cl2M Cu1M 1_555 1_555
O2F Cr1B 1_555 1_555
O2H Cr1C 1_555 1_555
O2P Cr1C 1_555 1_555
O2U Cr1C 1_555 1_555
O4A Cr2J 1_555 1_555
O4D Cr2I 1_555 1_555
O4E Cr2K 1_555 1_555
O5L Cr2J 1_555 1_555
O5N Cr2K 1_555 1_555
O5U Cr2C 1_555 1_555
O6J Cr2J 1_555 1_555
O6K Cr2K 1_555 1_555
O6L Cr2J 1_555 1_555
O6N Cr2K 1_555 1_555
N1A Cu1A 1_555 1_555
N1L Cu1L 1_555 1_555
N1S Cu1M 1_555 1_555
Cr2 O4 1_555 1_555
C1 O6 1_555 1_555
O5 C9 1_555 1_555
C5 C8 1_555 1_555
C5 C9 1_555 1_555
C6 C7 1_555 1_555
O6M Cr2G 1_555 1_555
C10M C11M 1_555 1_555
O5B Cr2B 1_555 1_555
C5B C8B 1_555 1_555
C5B C9B 1_555 1_555
C6B C7B 1_555 1_555
C5C C8C 1_555 1_555
C6C C7C 1_555 1_555
C1G O6G 1_555 1_555
C1G O6V 1_555 1_555
O5G C9G 1_555 1_555
C5G C8G 1_555 1_555
C5G C9G 1_555 1_555
C6G C7G 1_555 1_555
C10V C11V 1_555 1_555
C5I C8I 1_555 1_555
C5I C9I 1_555 1_555
C6I C7I 1_555 1_555
C5J C8J 1_555 1_555
C5J C9J 1_555 1_555
C6J C7J 1_555 1_555
C5K C8K 1_555 1_555
C5K C9K 1_555 1_555
C6K C7K 1_555 1_555
O5M C9M 1_555 1_555
C5M C8M 1_555 1_555
C5M C9M 1_555 1_555
C6M C7M 1_555 1_555
O2O Cr1D 1_555 1_555
C5O C8O 1_555 1_555
C5O C9O 1_555 1_555
C6O C7O 1_555 1_555
O5Q Cr2F 1_555 1_555
C5Q C8Q 1_555 1_555
C5Q C9Q 1_555 1_555
C6Q C7Q 1_555 1_555
O5V C9V 1_555 1_555
C5V C8V 1_555 1_555
C5V C9V 1_555 1_555
C6V C7V 1_555 1_555
Cr2C O4C 1_555 1_555
C1H O6U 1_555 1_555
O6H Cr2H 1_555 1_555
C10H C11H 1_555 1_555
C1C O6C 1_555 1_555
O6P Cr2H 1_555 1_555
C10P C11P 1_555 1_555
C1I O6I 1_555 1_555
C10T C11T 1_555 1_555
C1D O6O 1_555 1_555
O6D Cr2D 1_555 1_555
C10D C11D 1_555 1_555
O5W Cr2B 1_555 1_555
C5W C8W 1_555 1_555
C5W C9W 1_555 1_555
C6W C7W 1_555 1_555
Cu1Q Cl2M 1_555 1_555
Cr1A O4A 1_555 1_555
Cr1D O4D 1_555 1_555
Cr1E O4E 1_555 1_555
Cr2D O4D 1_555 1_555

#END
