
#######################################################################
#
#                 Cambridge Crystallographic Data Centre
#                                CCDC 
#
#######################################################################
#
# If this CIF has been generated from an entry in the Cambridge 
# Structural Database, then it will include bibliographic, chemical, 
# crystal, experimental, refinement or atomic coordinate data resulting 
# from the CCDC's data processing and validation procedures.
#
#######################################################################

data_IGAHAB
_chemical_formula_moiety         '(C42 H42 Cl7 Cr3 Cu3 N6 O16)n'
_symmetry_cell_setting           hexagonal
_symmetry_space_group_name_H-M   'P -6 c 2'
_symmetry_Int_Tables_number      188
_space_group_name_Hall           'P -6c 2'
loop_
_symmetry_equiv_pos_site_id
_symmetry_equiv_pos_as_xyz
1 x,y,z
2 -y,x-y,z
3 -x+y,-x,z
4 -y,-x,-z
5 x,x-y,-z
6 -x+y,y,-z
7 -x+y,y,1/2+z
8 x,x-y,1/2+z
9 -y,-x,1/2+z
10 x,y,1/2-z
11 -x+y,-x,1/2-z
12 -y,x-y,1/2-z
_cell_length_a                   13.469(12)
_cell_length_b                   13.469(12)
_cell_length_c                   27.51(2)
_cell_angle_alpha                90
_cell_angle_beta                 90
_cell_angle_gamma                120
_cell_volume                     4322.07
loop_
_atom_site_label
_atom_site_type_symbol
_atom_site_fract_x
_atom_site_fract_y
_atom_site_fract_z
Cu1 Cu 0.2222(3) 0.11110(13) 0.0000
Cr1 Cr 0.5145(3) 0.3047(3) 0.2500
Cl1 Cl 0.0000 0.0000 0.0000
Cl2 Cl 0.2600(4) 0.0014(5) -0.05315(14)
O1 O 0.3439(9) 0.2723(8) 0.2500
O2 O 0.4660(7) 0.1915(9) 0.1969(3)
N1 N 0.2008(9) 0.0005(10) 0.0550(4)
H1 H 0.1629 0.0132 0.0794
H2 H 0.1534 -0.0717 0.0438
O3 O 0.6667 0.3333 0.2500
O4 O 0.5829(8) 0.1256(8) 0.1964(3)
C1 C 0.4304(11) -0.0729(9) 0.0747(4)
H3 H 0.4548 -0.1205 0.0605
C2 C 0.3370(10) -0.0688(8) 0.0555(3)
H4 H 0.2984 -0.1136 0.0283
C3 C 0.3009(8) 0.0015(11) 0.0766(4)
C4 C 0.3581(10) 0.0677(8) 0.1169(4)
H5 H 0.3337 0.1153 0.1312
C5 C 0.4514(9) 0.0637(8) 0.1361(3)
C6 C 0.4876(7) -0.0067(10) 0.1150(4)
H6 H 0.5507 -0.0094 0.1280
C7 C 0.5043(13) 0.1331(14) 0.1808(6)
Cu1A Cu -0.11110(13) 0.11110(33) 0.0000
Cr1A Cr -0.3047(3) 0.2098(4) 0.2500
Cl2A Cl -0.0014(5) 0.2586(6) -0.05315(14)
O1A O -0.2723(8) 0.0716(12) 0.2500
O2A O -0.1915(9) 0.2745(11) 0.1969(3)
N1A N -0.0005(10) 0.2003(13) 0.0550(4)
H1A H -0.0132 0.1497 0.0794
H2A H 0.0717 0.2251 0.0438
O4A O -0.1256(8) 0.4573(11) 0.1964(3)
C1A C 0.0729(9) 0.5033(14) 0.0747(4)
H3A H 0.1205 0.5753 0.0605
C2A C 0.0688(8) 0.4058(13) 0.0555(3)
H4A H 0.1136 0.4120 0.0283
C3A C -0.0015(11) 0.2994(14) 0.0766(4)
C4A C -0.0677(8) 0.2904(13) 0.1169(4)
H5A H -0.1153 0.2184 0.1312
C5A C -0.0637(8) 0.3877(12) 0.1361(3)
C6A C 0.0067(10) 0.4943(12) 0.1150(4)
H6A H 0.0094 0.5601 0.1280
C7A C -0.1331(14) 0.3712(19) 0.1808(6)
Cu1B Cu -0.11110(33) -0.2222(3) 0.0000
Cr1B Cr -0.2098(4) -0.5145(3) 0.2500
Cl2B Cl -0.2586(6) -0.2600(4) -0.05315(14)
O1B O -0.0716(12) -0.3439(9) 0.2500
O2B O -0.2745(11) -0.4660(7) 0.1969(3)
N1B N -0.2003(13) -0.2008(9) 0.0550(4)
H1B H -0.1497 -0.1629 0.0794
H2B H -0.2251 -0.1534 0.0438
O4B O -0.4573(11) -0.5829(8) 0.1964(3)
C1B C -0.5033(14) -0.4304(11) 0.0747(4)
H3B H -0.5753 -0.4548 0.0605
C2B C -0.4058(13) -0.3370(10) 0.0555(3)
H4B H -0.4120 -0.2984 0.0283
C3B C -0.2994(14) -0.3009(8) 0.0766(4)
C4B C -0.2904(13) -0.3581(10) 0.1169(4)
H5B H -0.2184 -0.3337 0.1312
C5B C -0.3877(12) -0.4514(9) 0.1361(3)
C6B C -0.4943(12) -0.4876(7) 0.1150(4)
H6B H -0.5601 -0.5507 0.1280
C7B C -0.3712(19) -0.5043(13) 0.1808(6)
Cl2C Cl -0.0014(5) -0.2600(4) 0.05315(14)
O2C O -0.1915(9) -0.4660(7) -0.1969(3)
N1C N -0.0005(10) -0.2008(9) -0.0550(4)
H1C H -0.0132 -0.1629 -0.0794
H2C H 0.0717 -0.1534 -0.0438
O4C O -0.1256(8) -0.5829(8) -0.1964(3)
C1C C 0.0729(9) -0.4304(11) -0.0747(4)
H3C H 0.1205 -0.4548 -0.0605
C2C C 0.0688(8) -0.3370(10) -0.0555(3)
H4C H 0.1136 -0.2984 -0.0283
C3C C -0.0015(11) -0.3009(8) -0.0766(4)
C4C C -0.0677(8) -0.3581(10) -0.1169(4)
H5C H -0.1153 -0.3337 -0.1312
C5C C -0.0637(8) -0.4514(9) -0.1361(3)
C6C C 0.0067(10) -0.4876(7) -0.1150(4)
H6C H 0.0094 -0.5507 -0.1280
C7C C -0.1331(14) -0.5043(13) -0.1808(6)
Cl2D Cl 0.2600(4) 0.2586(6) 0.05315(14)
O2D O 0.4660(7) 0.2745(11) -0.1969(3)
N1D N 0.2008(9) 0.2003(13) -0.0550(4)
H1D H 0.1629 0.1497 -0.0794
H2D H 0.1534 0.2251 -0.0438
O4D O 0.5829(8) 0.4573(11) -0.1964(3)
C1D C 0.4304(11) 0.5033(14) -0.0747(4)
H3D H 0.4548 0.5753 -0.0605
C2D C 0.3370(10) 0.4058(13) -0.0555(3)
H4D H 0.2984 0.4120 -0.0283
C3D C 0.3009(8) 0.2994(14) -0.0766(4)
C4D C 0.3581(10) 0.2904(13) -0.1169(4)
H5D H 0.3337 0.2184 -0.1312
C5D C 0.4514(9) 0.3877(12) -0.1361(3)
C6D C 0.4876(7) 0.4943(12) -0.1150(4)
H6D H 0.5507 0.5601 -0.1280
C7D C 0.5043(13) 0.3712(19) -0.1808(6)
Cl2E Cl -0.2586(6) 0.0014(5) 0.05315(14)
O2E O -0.2745(11) 0.1915(9) -0.1969(3)
N1E N -0.2003(13) 0.0005(10) -0.0550(4)
H1E H -0.1497 0.0132 -0.0794
H2E H -0.2251 -0.0717 -0.0438
O4E O -0.4573(11) 0.1256(8) -0.1964(3)
C1E C -0.5033(14) -0.0729(9) -0.0747(4)
H3E H -0.5753 -0.1205 -0.0605
C2E C -0.4058(13) -0.0688(8) -0.0555(3)
H4E H -0.4120 -0.1136 -0.0283
C3E C -0.2994(14) 0.0015(11) -0.0766(4)
C4E C -0.2904(13) 0.0677(8) -0.1169(4)
H5E H -0.2184 0.1153 -0.1312
C5E C -0.3877(12) 0.0637(8) -0.1361(3)
C6E C -0.4943(12) -0.0067(10) -0.1150(4)
H6E H -0.5601 -0.0094 -0.1280
C7E C -0.3712(19) 0.1331(14) -0.1808(6)
Cr1_2 Cr -0.4855(3) -0.6953(3) 0.2500
Cr1A_2 Cr 0.6953(3) 0.2098(4) 0.2500
Cr1B_2 Cr -0.2098(4) 0.4855(3) 0.2500
Cr1B_3 Cr 0.7902(4) 0.4855(3) 0.2500
Cr1C Cr -0.3047(3) -0.5145(3) -0.2500
Cr1C_2 Cr 0.6953(3) 0.4855(3) -0.2500
Cr1D Cr -0.4855(3) 0.2098(4) -0.2500
Cr1D_2 Cr 0.5145(3) 0.2098(4) -0.2500
Cr1E Cr -0.2098(4) -0.6953(3) -0.2500
Cr1E_2 Cr -0.2098(4) 0.3047(3) -0.2500
O2I O 0.4660(7) 0.1915(9) 0.3031(3)
O2J O -0.2745(11) -0.4660(7) 0.3031(3)
O2K O -0.1915(9) 0.2745(11) 0.3031(3)
O3_2 O -0.3333 -0.6667 0.2500
O3_3 O -0.3333 0.3333 0.2500
O4_2 O -0.4171(8) 0.1256(8) 0.1964(3)
O4A_2 O -0.1256(8) -0.5427(11) 0.1964(3)
O4B_2 O 0.5427(11) 0.4171(8) 0.1964(3)
O4I O -0.4171(8) 0.1256(8) 0.3036(3)
O4J O 0.5427(11) 0.4171(8) 0.3036(3)
O4K O -0.1256(8) -0.5427(11) 0.3036(3)
loop_
_geom_bond_atom_site_label_1
_geom_bond_atom_site_label_2
_geom_bond_site_symmetry_1
_geom_bond_site_symmetry_2
Cu1 Cl1 1_555 1_555
Cr1 O1 1_555 1_555
Cl1 Cu1A 1_555 1_555
Cl2 Cu1 1_555 1_555
O2 Cr1 1_555 1_555
N1 Cu1 1_555 1_555
H1 N1 1_555 1_555
H2 N1 1_555 1_555
O3 Cr1 1_555 1_555
O4 C7 1_555 1_555
C1 H3 1_555 1_555
C2 C1 1_555 1_555
H4 C2 1_555 1_555
C3 N1 1_555 1_555
C4 C3 1_555 1_555
H5 C4 1_555 1_555
C5 C4 1_555 1_555
C6 C1 1_555 1_555
H6 C6 1_555 1_555
C7 O2 1_555 1_555
Cu1A Cl2A 1_555 1_555
Cr1A O1A 1_555 1_555
O2A Cr1A 1_555 1_555
N1A Cu1A 1_555 1_555
H1A N1A 1_555 1_555
H2A N1A 1_555 1_555
O4A C7A 1_555 1_555
C1A H3A 1_555 1_555
C2A C1A 1_555 1_555
H4A C2A 1_555 1_555
C3A N1A 1_555 1_555
C4A C3A 1_555 1_555
H5A C4A 1_555 1_555
C5A C4A 1_555 1_555
C6A C1A 1_555 1_555
H6A C6A 1_555 1_555
C7A O2A 1_555 1_555
Cu1B Cl1 1_555 1_555
Cr1B O1B 1_555 1_555
Cl2B Cu1B 1_555 1_555
O2B Cr1B 1_555 1_555
N1B Cu1B 1_555 1_555
H1B N1B 1_555 1_555
H2B N1B 1_555 1_555
O4B C7B 1_555 1_555
C1B H3B 1_555 1_555
C2B C1B 1_555 1_555
H4B C2B 1_555 1_555
C3B N1B 1_555 1_555
C4B C3B 1_555 1_555
H5B C4B 1_555 1_555
C5B C4B 1_555 1_555
C6B C1B 1_555 1_555
H6B C6B 1_555 1_555
C7B O2B 1_555 1_555
Cl2C Cu1B 1_555 1_555
O2C C7C 1_555 1_555
N1C Cu1B 1_555 1_555
H1C N1C 1_555 1_555
H2C N1C 1_555 1_555
O4C C7C 1_555 1_555
C1C H3C 1_555 1_555
C2C C1C 1_555 1_555
H4C C2C 1_555 1_555
C3C N1C 1_555 1_555
C4C C3C 1_555 1_555
H5C C4C 1_555 1_555
C5C C4C 1_555 1_555
C6C C1C 1_555 1_555
H6C C6C 1_555 1_555
C7C C5C 1_555 1_555
Cl2D Cu1 1_555 1_555
O2D C7D 1_555 1_555
N1D Cu1 1_555 1_555
H1D N1D 1_555 1_555
H2D N1D 1_555 1_555
O4D C7D 1_555 1_555
C1D H3D 1_555 1_555
C2D C1D 1_555 1_555
H4D C2D 1_555 1_555
C3D N1D 1_555 1_555
C4D C3D 1_555 1_555
H5D C4D 1_555 1_555
C5D C4D 1_555 1_555
C6D C1D 1_555 1_555
H6D C6D 1_555 1_555
C7D C5D 1_555 1_555
Cl2E Cu1A 1_555 1_555
O2E C7E 1_555 1_555
N1E Cu1A 1_555 1_555
H1E N1E 1_555 1_555
H2E N1E 1_555 1_555
O4E C7E 1_555 1_555
C1E H3E 1_555 1_555
C2E C1E 1_555 1_555
H4E C2E 1_555 1_555
C3E N1E 1_555 1_555
C4E C3E 1_555 1_555
H5E C4E 1_555 1_555
C5E C4E 1_555 1_555
C6E C1E 1_555 1_555
H6E C6E 1_555 1_555
C7E C5E 1_555 1_555
Cr1_2 O4B 1_555 1_555
Cr1A_2 O3 1_555 1_555
Cr1B_2 O4A 1_555 1_555
Cr1B_3 O3 1_555 1_555
Cr1C O2C 1_555 1_555
Cr1C_2 O4D 1_555 1_555
Cr1D O4E 1_555 1_555
Cr1D_2 O2D 1_555 1_555
Cr1E O4C 1_555 1_555
Cr1E_2 O2E 1_555 1_555
O2I Cr1 1_555 1_555
O2J Cr1B 1_555 1_555
O2K Cr1A 1_555 1_555
O3_2 Cr1B 1_555 1_555
O3_3 Cr1A 1_555 1_555
O4_2 Cr1A 1_555 1_555
O4A_2 Cr1B 1_555 1_555
O4B_2 Cr1 1_555 1_555
O4I Cr1A 1_555 1_555
O4J Cr1 1_555 1_555
O4K Cr1B 1_555 1_555
O4 Cr1A_2 1_555 1_555
C2 C3 1_555 1_555
C5 C6 1_555 1_555
C5 C7 1_555 1_555
C2A C3A 1_555 1_555
C5A C6A 1_555 1_555
C5A C7A 1_555 1_555
C2B C3B 1_555 1_555
C5B C6B 1_555 1_555
C5B C7B 1_555 1_555
C2C C3C 1_555 1_555
C5C C6C 1_555 1_555
C2D C3D 1_555 1_555
C5D C6D 1_555 1_555
C2E C3E 1_555 1_555
C5E C6E 1_555 1_555
Cr1_2 O3_2 1_555 1_555
Cr1B_2 O3_3 1_555 1_555

#END
