
#######################################################################
#
#                 Cambridge Crystallographic Data Centre
#                                CCDC 
#
#######################################################################
#
# If this CIF has been generated from an entry in the Cambridge 
# Structural Database, then it will include bibliographic, chemical, 
# crystal, experimental, refinement or atomic coordinate data resulting 
# from the CCDC's data processing and validation procedures.
#
#######################################################################

data_PIZPIX02
_chemical_formula_moiety         '(C12 H22 Er2 O20)n'
_symmetry_cell_setting           monoclinic
_symmetry_space_group_name_H-M   'P 21/c'
_symmetry_Int_Tables_number      14
_space_group_name_Hall           '-P 2ybc'
loop_
_symmetry_equiv_pos_site_id
_symmetry_equiv_pos_as_xyz
1 x,y,z
2 -x,1/2+y,1/2-z
3 -x,-y,-z
4 x,1/2-y,1/2+z
_cell_length_a                   8.438(3)
_cell_length_b                   17.081(5)
_cell_length_c                   9.585(4)
_cell_angle_alpha                90
_cell_angle_beta                 111.72(3)
_cell_angle_gamma                90
_cell_volume                     1283.4
loop_
_atom_site_label
_atom_site_type_symbol
_atom_site_fract_x
_atom_site_fract_y
_atom_site_fract_z
Er1 Er 0.66309(2) 0.758004(13) 0.97823(2)
O1 O 0.4149(5) 0.7326(2) 0.7719(4)
O2 O 0.4815(4) 0.6922(2) 0.5784(4)
O3 O -0.1577(4) 0.7278(2) 0.3594(4)
O4 O -0.0942(4) 0.7003(2) 0.1593(4)
O5 O 0.6888(4) 0.6225(2) 0.9048(4)
O6 O 0.5417(4) 0.6463(2) 1.0491(4)
O7 O 0.5835(4) 0.8806(2) 0.8422(4)
O8 O 0.8133(4) 0.8625(2) 1.1376(4)
C1 C 0.3775(6) 0.7134(3) 0.6360(5)
C2 C 0.1910(6) 0.7163(3) 0.5394(5)
H1 H 0.1147 0.7326 0.5829
C3 C 0.1298(6) 0.6968(3) 0.3959(5)
H2 H 0.2031 0.6753 0.3537
C4 C -0.0537(6) 0.7082(3) 0.2993(5)
C5 C 0.5977(6) 0.5986(3) 0.9749(5)
C6 C 0.5529(6) 0.5144(3) 0.9694(5)
H3 H 0.6010 0.4801 0.9208
O5B O 0.3112(4) 0.3775(2) 1.0952(4)
O6B O 0.4583(4) 0.3537(2) 0.9509(4)
C5B C 0.4023(6) 0.4014(3) 1.0251(5)
C6B C 0.4471(6) 0.4856(3) 1.0306(5)
H3B H 0.3990 0.5199 1.0792
Er1B Er 0.33691(2) 0.241996(13) 1.02177(2)
O1B O 0.5851(5) 0.2674(2) 1.2281(4)
O2B O 0.5185(4) 0.3078(2) 1.4216(4)
O3B O 1.1577(4) 0.2722(2) 1.6406(4)
O4B O 1.0942(4) 0.2997(2) 1.8407(4)
O7B O 0.4165(4) 0.1194(2) 1.1578(4)
O8B O 0.1867(4) 0.1375(2) 0.8624(4)
C1B C 0.6225(6) 0.2866(3) 1.3640(5)
C2B C 0.8090(6) 0.2837(3) 1.4606(5)
H1B H 0.8853 0.2674 1.4171
C3B C 0.8702(6) 0.3032(3) 1.6041(5)
H2B H 0.7969 0.3247 1.6463
C4B C 1.0537(6) 0.2918(3) 1.7007(5)
Er1_2 Er -0.33691(2) 0.758004(13) -0.02177(2)
Er1A Er 0.33691(2) 0.258004(13) 1.52177(2)
Er1A_2 Er 1.33691(2) 0.258004(13) 1.52177(2)
Er1B_2 Er 1.33691(2) 0.241996(13) 2.02177(2)
Er1C Er -0.33691(2) 0.741996(13) 0.47823(2)
Er1C_2 Er 0.66309(2) 0.741996(13) 0.47823(2)
O2A O 0.5185(4) 0.1922(2) 0.9216(4)
O2C O 0.4815(4) 0.8078(2) 1.0784(4)
O3A O 0.1577(4) 0.2278(2) 1.1406(4)
O3C O 0.8423(4) 0.7722(2) 0.8594(4)
O4_2 O 0.9058(4) 0.7003(2) 1.1593(4)
O4B_2 O 0.0942(4) 0.2997(2) 0.8407(4)
O9 O 0.8239(5) 1.0047(2) 0.9133(4)
O10 O 1.0780(5) 0.5705(3) 1.0624(4)
O11 O 0.3105(5) 0.9705(2) 0.8474(5)
O12 O 1.1564(4) 0.8847(2) 1.3130(4)
loop_
_geom_bond_atom_site_label_1
_geom_bond_atom_site_label_2
_geom_bond_site_symmetry_1
_geom_bond_site_symmetry_2
Er1 O1 1_555 1_555
O1 C1 1_555 1_555
O2 C1 1_555 1_555
O3 C4 1_555 1_555
O4 C4 1_555 1_555
O5 Er1 1_555 1_555
O6 Er1 1_555 1_555
O7 Er1 1_555 1_555
O8 Er1 1_555 1_555
C1 C2 1_555 1_555
C2 H1 1_555 1_555
C3 C2 1_555 1_555
H2 C3 1_555 1_555
C4 C3 1_555 1_555
C5 O5 1_555 1_555
C6 C5 1_555 1_555
H3 C6 1_555 1_555
O5B C5B 1_555 1_555
O6B C5B 1_555 1_555
C5B C6B 1_555 1_555
C6B C6 1_555 1_555
H3B C6B 1_555 1_555
Er1B O5B 1_555 1_555
O1B Er1B 1_555 1_555
O2B C1B 1_555 1_555
O3B C4B 1_555 1_555
O4B C4B 1_555 1_555
O7B Er1B 1_555 1_555
O8B Er1B 1_555 1_555
C1B O1B 1_555 1_555
C2B C1B 1_555 1_555
H1B C2B 1_555 1_555
C3B C2B 1_555 1_555
H2B C3B 1_555 1_555
C4B C3B 1_555 1_555
Er1_2 O4 1_555 1_555
Er1A O2B 1_555 1_555
Er1A_2 O3B 1_555 1_555
Er1B_2 O4B 1_555 1_555
Er1C O3 1_555 1_555
Er1C_2 O2 1_555 1_555
O2A Er1B 1_555 1_555
O2C Er1 1_555 1_555
O3A Er1B 1_555 1_555
O3C Er1 1_555 1_555
O4_2 Er1 1_555 1_555
O4B_2 Er1B 1_555 1_555
O6 C5 1_555 1_555
O6B Er1B 1_555 1_555

#END
