
#######################################################################
#
#                 Cambridge Crystallographic Data Centre
#                                CCDC 
#
#######################################################################
#
# If this CIF has been generated from an entry in the Cambridge 
# Structural Database, then it will include bibliographic, chemical, 
# crystal, experimental, refinement or atomic coordinate data resulting 
# from the CCDC's data processing and validation procedures.
#
#######################################################################

data_GUSMAJ
_chemical_formula_moiety         '(C159 H146 Eu4 N24 O73)n'
_symmetry_cell_setting           cubic
_symmetry_space_group_name_H-M   'I -4 3 d'
_symmetry_Int_Tables_number      220
_space_group_name_Hall           'I -4bd 2c 3'
loop_
_symmetry_equiv_pos_site_id
_symmetry_equiv_pos_as_xyz
1 x,y,z
2 1/2-x,-y,1/2+z
3 -x,1/2+y,1/2-z
4 1/2+x,1/2-y,-z
5 z,x,y
6 1/2+z,1/2-x,-y
7 1/2-z,-x,1/2+y
8 -z,1/2+x,1/2-y
9 y,z,x
10 -y,1/2+z,1/2-x
11 1/2+y,1/2-z,-x
12 1/2-y,-z,1/2+x
13 1/4+y,1/4+x,1/4+z
14 1/4-y,3/4-x,3/4+z
15 3/4+y,1/4-x,3/4-z
16 3/4-y,3/4+x,1/4-z
17 1/4+x,1/4+z,1/4+y
18 3/4-x,3/4+z,1/4-y
19 1/4-x,3/4-z,3/4+y
20 3/4+x,1/4-z,3/4-y
21 1/4+z,1/4+y,1/4+x
22 3/4+z,1/4-y,3/4-x
23 3/4-z,3/4+y,1/4-x
24 1/4-z,3/4-y,3/4+x
25 1/2+x,1/2+y,1/2+z
26 -x,1/2-y,z
27 1/2-x,y,-z
28 x,-y,1/2-z
29 1/2+z,1/2+x,1/2+y
30 z,-x,1/2-y
31 -z,1/2-x,y
32 1/2-z,x,-y
33 1/2+y,1/2+z,1/2+x
34 1/2-y,z,-x
35 y,-z,1/2-x
36 -y,1/2-z,x
37 3/4+y,3/4+x,3/4+z
38 3/4-y,1/4-x,1/4+z
39 1/4+y,3/4-x,1/4-z
40 1/4-y,1/4+x,3/4-z
41 3/4+x,3/4+z,3/4+y
42 1/4-x,1/4+z,3/4-y
43 3/4-x,1/4-z,1/4+y
44 1/4+x,3/4-z,1/4-y
45 3/4+z,3/4+y,3/4+x
46 1/4+z,3/4-y,1/4-x
47 1/4-z,1/4+y,3/4-x
48 3/4-z,1/4-y,1/4+x
_cell_length_a                   27.520(3)
_cell_length_b                   27.520(3)
_cell_length_c                   27.520(3)
_cell_angle_alpha                90
_cell_angle_beta                 90
_cell_angle_gamma                90
_cell_volume                     20842.3
loop_
_atom_site_label
_atom_site_type_symbol
_atom_site_fract_x
_atom_site_fract_y
_atom_site_fract_z
_atom_site_U_iso_or_equiv
_atom_site_thermal_displace_type
Eu1 Eu 0.47617(3) 0.52383(3) 0.02383(3) 0.0788 Uani
N1 N 0.5187(7) 0.3683(6) 0.0170(9) 0.1360 Uani
H1 H 0.5178 0.3370 0.0170 0.1640 Uiso
N2 N 0.4892(8) 0.5251(8) 0.1275(5) 0.1423 Uani
O1 O 0.4789(5) 0.4383(3) 0.0163(5) 0.0983 Uani
O2 O 0.6392(9) 0.3441(9) 0.0152(9) 0.1973 Uani
O3 O 0.4619(5) 0.3016(5) 0.0661(5) 0.1157 Uani
O4 O 0.4920(6) 0.4860(6) 0.1053(4) 0.1240 Uani
O5 O 0.4869(8) 0.5635(6) 0.1040(5) 0.1523 Uani
O6 O 0.4950(9) 0.5257(7) 0.1732(4) 0.1707 Uani
C1 C 0.5000 0.2500 0.1250 0.0753 Uani
C2 C 0.4535(6) 0.2560(7) 0.0922(6) 0.0897 Uani
H3 H 0.4504 0.2290 0.0698 0.1080 Uiso
H4 H 0.4244 0.2579 0.1119 0.1080 Uiso
C3 C 0.4234(7) 0.3184(6) 0.0388(7) 0.0923 Uani
C4 C 0.3785(8) 0.2960(8) 0.0395(10) 0.1257 Uani
H5 H 0.3728 0.2683 0.0579 0.1500 Uiso
C5 C 0.3410(7) 0.3176(9) 0.0103(10) 0.1223 Uani
H6 H 0.3112 0.3021 0.0070 0.1470 Uiso
C6 C 0.3487(8) 0.3586(10) -0.0115(10) 0.1317 Uani
H7 H 0.3250 0.3721 -0.0314 0.1570 Uiso
C7 C 0.3920(10) 0.3818(9) -0.0047(10) 0.1543 Uani
H8 H 0.3953 0.4121 -0.0192 0.1840 Uiso
C8 C 0.4305(9) 0.3657(7) 0.0206(8) 0.1087 Uani
C9 C 0.4793(9) 0.3938(6) 0.0192(7) 0.1090 Uani
C10 C 0.5660(11) 0.3956(14) 0.0147(15) 0.1800 Uani
H9 H 0.5758 0.4004 -0.0189 0.2170 Uiso
H10 H 0.5629 0.4271 0.0301 0.2170 Uiso
C11 C 0.5991(10) 0.3680(13) 0.0383(11) 0.1847 Uani
C12 C 0.6027(10) 0.3588(13) 0.0891(10) 0.1900 Uani
H11 H 0.5802 0.3683 0.1125 0.2280 Uiso
C13 C 0.6464(11) 0.3326(14) 0.0984(10) 0.1927 Uani
H12 H 0.6588 0.3243 0.1287 0.2320 Uiso
C14 C 0.6678(9) 0.3214(12) 0.0519(12) 0.1930 Uani
H13 H 0.6955 0.3027 0.0468 0.2320 Uiso
Eu1O Eu 0.22617(3) 0.22617(3) 0.22617(3) 0.0788 Uani
Eu1Y Eu 0.52383(3) -0.02383(3) 0.02383(3) 0.0788 Uani
Eu1LA Eu 0.77383(3) 0.27383(3) 0.22617(3) 0.0788 Uani
Eu1N Eu 0.27383(3) 0.77383(3) -0.27383(3) 0.0788 Uani
Eu1AA Eu 0.47617(3) 0.47617(3) -0.52383(3) 0.0788 Uani
Eu1JA Eu 0.27383(3) 0.22617(3) -0.22617(3) 0.0788 Uani
Eu1L Eu 0.77383(3) 0.72617(3) 0.27383(3) 0.0788 Uani
Eu1Z Eu 1.02383(3) 0.52383(3) -0.02383(3) 0.0788 Uani
Eu1MA Eu 0.72617(3) 0.72617(3) -0.27383(3) 0.0788 Uani
N1O N 0.3817(6) 0.2687(7) 0.2330(9) 0.1360 Uani
N1Y N 0.4813(7) 0.1317(6) 0.0170(9) 0.1360 Uani
N1LA N 0.6183(6) 0.2313(7) 0.2330(9) 0.1360 Uani
N1F N 0.4830(9) 0.4813(7) -0.1317(6) 0.1360 Uani
N1T N 0.2670(9) 0.6183(6) -0.2313(7) 0.1360 Uani
N1EA N 0.4830(9) 0.5187(7) -0.3683(6) 0.1360 Uani
N1SA N 0.2670(9) 0.3817(6) -0.2687(7) 0.1360 Uani
N1I N 0.6317(6) 0.5170(9) -0.0187(7) 0.1360 Uani
N1R N 0.7313(7) 0.7330(9) 0.1183(6) 0.1360 Uani
N1FA N 0.8683(6) 0.5170(9) 0.0187(7) 0.1360 Uani
N1QA N 0.7687(7) 0.7330(9) -0.1183(6) 0.1360 Uani
H1O H 0.4130 0.2678 0.2330 0.1640 Uiso
H1Y H 0.4822 0.1630 0.0170 0.1640 Uiso
H1LA H 0.5870 0.2322 0.2330 0.1640 Uiso
H1F H 0.4830 0.4822 -0.1630 0.1640 Uiso
H1T H 0.2670 0.5870 -0.2322 0.1640 Uiso
H1EA H 0.4830 0.5178 -0.3370 0.1640 Uiso
H1SA H 0.2670 0.4130 -0.2678 0.1640 Uiso
H1I H 0.6630 0.5170 -0.0178 0.1640 Uiso
H1R H 0.7322 0.7330 0.0870 0.1640 Uiso
H1FA H 0.8370 0.5170 0.0178 0.1640 Uiso
H1QA H 0.7678 0.7330 -0.0870 0.1640 Uiso
N2F N 0.3725(5) 0.5108(8) 0.0251(8) 0.1423 Uani
N2I N 0.4749(8) 0.6275(5) 0.0108(8) 0.1423 Uani
N2O N 0.2249(8) 0.2392(8) 0.1225(5) 0.1423 Uani
N2S N 0.2392(8) 0.1225(5) 0.2249(8) 0.1423 Uani
N2W N 0.1225(5) 0.2249(8) 0.2392(8) 0.1423 Uani
N2Y N 0.5108(8) -0.0251(8) 0.1275(5) 0.1423 Uani
N2BA N 0.6275(5) -0.0108(8) 0.0251(8) 0.1423 Uani
N2HA N 0.5251(8) -0.1275(5) 0.0108(8) 0.1423 Uani
N2LA N 0.7751(8) 0.2608(8) 0.1225(5) 0.1423 Uani
N2OA N 0.7608(8) 0.3775(5) 0.2249(8) 0.1423 Uani
N2RA N 0.8775(5) 0.2751(8) 0.2392(8) 0.1423 Uani
O1O O 0.3117(3) 0.2289(5) 0.2337(5) 0.0983 Uani
O1Y O 0.5211(5) 0.0617(3) 0.0163(5) 0.0983 Uani
O1LA O 0.6883(3) 0.2711(5) 0.2337(5) 0.0983 Uani
O1F O 0.4837(5) 0.5211(5) -0.0617(3) 0.0983 Uani
O1T O 0.2663(5) 0.6883(3) -0.2711(5) 0.0983 Uani
O1EA O 0.4837(5) 0.4789(5) -0.4383(3) 0.0983 Uani
O1SA O 0.2663(5) 0.3117(3) -0.2289(5) 0.0983 Uani
O1I O 0.5617(3) 0.5163(5) 0.0211(5) 0.0983 Uani
O1R O 0.7711(5) 0.7337(5) 0.1883(3) 0.0983 Uani
O1FA O 0.9383(3) 0.5163(5) -0.0211(5) 0.0983 Uani
O1QA O 0.7289(5) 0.7337(5) -0.1883(3) 0.0983 Uani
O1S O 0.2289(5) 0.2337(5) 0.3117(3) 0.0983 Uani
O1W O 0.2337(5) 0.3117(3) 0.2289(5) 0.0983 Uani
O1BA O 0.5163(5) -0.0211(5) -0.0617(3) 0.0983 Uani
O1HA O 0.4383(3) -0.0163(5) 0.0211(5) 0.0983 Uani
O1OA O 0.7711(5) 0.2663(5) 0.3117(3) 0.0983 Uani
O1RA O 0.7663(5) 0.1883(3) 0.2289(5) 0.0983 Uani
O2O O 0.4059(9) 0.3892(9) 0.2348(9) 0.1973 Uani
O2Y O 0.3608(9) 0.1559(9) 0.0152(9) 0.1973 Uani
O2LA O 0.5941(9) 0.1108(9) 0.2348(9) 0.1973 Uani
O2F O 0.4848(9) 0.3608(9) -0.1559(9) 0.1973 Uani
O2T O 0.2652(9) 0.5941(9) -0.1108(9) 0.1973 Uani
O2EA O 0.4848(9) 0.6392(9) -0.3441(9) 0.1973 Uani
O2SA O 0.2652(9) 0.4059(9) -0.3892(9) 0.1973 Uani
O2I O 0.6559(9) 0.5152(9) -0.1392(9) 0.1973 Uani
O2R O 0.6108(9) 0.7348(9) 0.0941(9) 0.1973 Uani
O2FA O 0.8441(9) 0.5152(9) 0.1392(9) 0.1973 Uani
O2QA O 0.8892(9) 0.7348(9) -0.0941(9) 0.1973 Uani
O3O O 0.4484(5) 0.2119(5) 0.1839(5) 0.1157 Uani
O3Y O 0.5381(5) 0.1984(5) 0.0661(5) 0.1157 Uani
O3LA O 0.5516(5) 0.2881(5) 0.1839(5) 0.1157 Uani
O3F O 0.4339(5) 0.5381(5) -0.1984(5) 0.1157 Uani
O3T O 0.3161(5) 0.5516(5) -0.2881(5) 0.1157 Uani
O3EA O 0.4339(5) 0.4619(5) -0.3016(5) 0.1157 Uani
O3SA O 0.3161(5) 0.4484(5) -0.2119(5) 0.1157 Uani
O3I O 0.6984(5) 0.5661(5) 0.0381(5) 0.1157 Uani
O3R O 0.7881(5) 0.6839(5) 0.0516(5) 0.1157 Uani
O3FA O 0.8016(5) 0.5661(5) -0.0381(5) 0.1157 Uani
O3QA O 0.7119(5) 0.6839(5) -0.0516(5) 0.1157 Uani
O4F O 0.3947(4) 0.5080(6) -0.0140(6) 0.1240 Uani
O4I O 0.5140(6) 0.6053(4) 0.0080(6) 0.1240 Uani
O4O O 0.2640(6) 0.2420(6) 0.1447(4) 0.1240 Uani
O4S O 0.2420(6) 0.1447(4) 0.2640(6) 0.1240 Uani
O4W O 0.1447(4) 0.2640(6) 0.2420(6) 0.1240 Uani
O4Y O 0.5080(6) 0.0140(6) 0.1053(4) 0.1240 Uani
O4BA O 0.6053(4) -0.0080(6) -0.0140(6) 0.1240 Uani
O4HA O 0.4860(6) -0.1053(4) 0.0080(6) 0.1240 Uani
O4LA O 0.7360(6) 0.2580(6) 0.1447(4) 0.1240 Uani
O4OA O 0.7580(6) 0.3553(4) 0.2640(6) 0.1240 Uani
O4RA O 0.8553(4) 0.2360(6) 0.2420(6) 0.1240 Uani
O5F O 0.3960(5) 0.5131(8) 0.0635(6) 0.1523 Uani
O5I O 0.4365(6) 0.6040(5) 0.0131(8) 0.1523 Uani
O5O O 0.1865(6) 0.2369(8) 0.1460(5) 0.1523 Uani
O5S O 0.2369(8) 0.1460(5) 0.1865(6) 0.1523 Uani
O5W O 0.1460(5) 0.1865(6) 0.2369(8) 0.1523 Uani
O5Y O 0.5131(8) -0.0635(6) 0.1040(5) 0.1523 Uani
O5BA O 0.6040(5) -0.0131(8) 0.0635(6) 0.1523 Uani
O5HA O 0.5635(6) -0.1040(5) 0.0131(8) 0.1523 Uani
O5LA O 0.8135(6) 0.2631(8) 0.1460(5) 0.1523 Uani
O5OA O 0.7631(8) 0.3540(5) 0.1865(6) 0.1523 Uani
O5RA O 0.8540(5) 0.3135(6) 0.2369(8) 0.1523 Uani
O6F O 0.3268(4) 0.5050(9) 0.0257(7) 0.1707 Uani
O6I O 0.4743(7) 0.6732(4) 0.0050(9) 0.1707 Uani
O6O O 0.2243(7) 0.2450(9) 0.0768(4) 0.1707 Uani
O6S O 0.2450(9) 0.0768(4) 0.2243(7) 0.1707 Uani
O6W O 0.0768(4) 0.2243(7) 0.2450(9) 0.1707 Uani
O6Y O 0.5050(9) -0.0257(7) 0.1732(4) 0.1707 Uani
O6BA O 0.6732(4) -0.0050(9) 0.0257(7) 0.1707 Uani
O6HA O 0.5257(7) -0.1732(4) 0.0050(9) 0.1707 Uani
O6LA O 0.7757(7) 0.2550(9) 0.0768(4) 0.1707 Uani
O6OA O 0.7550(9) 0.4232(4) 0.2243(7) 0.1707 Uani
O6RA O 0.9232(4) 0.2757(7) 0.2450(9) 0.1707 Uani
C1F C 0.3750 0.5000 -0.2500 0.0753 Uani
C1I C 0.7500 0.6250 0.0000 0.0753 Uani
C2O C 0.4940(7) 0.2035(6) 0.1578(6) 0.0897 Uani
C2Y C 0.5465(6) 0.2440(7) 0.0922(6) 0.0897 Uani
C2LA C 0.5060(7) 0.2965(6) 0.1578(6) 0.0897 Uani
C2F C 0.4078(6) 0.5465(6) -0.2440(7) 0.0897 Uani
C2T C 0.3422(6) 0.5060(7) -0.2965(6) 0.0897 Uani
C2EA C 0.4078(6) 0.4535(6) -0.2560(7) 0.0897 Uani
C2SA C 0.3422(6) 0.4940(7) -0.2035(6) 0.0897 Uani
C2I C 0.7440(7) 0.5922(6) 0.0465(6) 0.0897 Uani
C2R C 0.7965(6) 0.6578(6) 0.0060(7) 0.0897 Uani
C2FA C 0.7560(7) 0.5922(6) -0.0465(6) 0.0897 Uani
C2QA C 0.7035(6) 0.6578(6) -0.0060(7) 0.0897 Uani
H3O H 0.5210 0.2004 0.1802 0.1080 Uiso
H3Y H 0.5496 0.2710 0.0698 0.1080 Uiso
H3LA H 0.4790 0.2996 0.1802 0.1080 Uiso
H3F H 0.4302 0.5496 -0.2710 0.1080 Uiso
H3T H 0.3198 0.4790 -0.2996 0.1080 Uiso
H3EA H 0.4302 0.4504 -0.2290 0.1080 Uiso
H3SA H 0.3198 0.5210 -0.2004 0.1080 Uiso
H3I H 0.7710 0.5698 0.0496 0.1080 Uiso
H3R H 0.7996 0.6802 -0.0210 0.1080 Uiso
H3FA H 0.7290 0.5698 -0.0496 0.1080 Uiso
H3QA H 0.7004 0.6802 0.0210 0.1080 Uiso
H4O H 0.4921 0.1744 0.1381 0.1080 Uiso
H4Y H 0.5756 0.2421 0.1119 0.1080 Uiso
H4LA H 0.5079 0.3256 0.1381 0.1080 Uiso
H4F H 0.3881 0.5756 -0.2421 0.1080 Uiso
H4T H 0.3619 0.5079 -0.3256 0.1080 Uiso
H4EA H 0.3881 0.4244 -0.2579 0.1080 Uiso
H4SA H 0.3619 0.4921 -0.1744 0.1080 Uiso
H4I H 0.7421 0.6119 0.0756 0.1080 Uiso
H4R H 0.8256 0.6381 0.0079 0.1080 Uiso
H4FA H 0.7579 0.6119 -0.0756 0.1080 Uiso
H4QA H 0.6744 0.6381 -0.0079 0.1080 Uiso
C3O C 0.4316(6) 0.1734(7) 0.2112(7) 0.0923 Uani
C3Y C 0.5766(7) 0.1816(6) 0.0388(7) 0.0923 Uani
C3LA C 0.5684(6) 0.3266(7) 0.2112(7) 0.0923 Uani
C3F C 0.4612(7) 0.5766(7) -0.1816(6) 0.0923 Uani
C3T C 0.2888(7) 0.5684(6) -0.3266(7) 0.0923 Uani
C3EA C 0.4612(7) 0.4234(7) -0.3184(6) 0.0923 Uani
C3SA C 0.2888(7) 0.4316(6) -0.1734(7) 0.0923 Uani
C3I C 0.6816(6) 0.5388(7) 0.0766(7) 0.0923 Uani
C3R C 0.8266(7) 0.7112(7) 0.0684(6) 0.0923 Uani
C3FA C 0.8184(6) 0.5388(7) -0.0766(7) 0.0923 Uani
C3QA C 0.6734(7) 0.7112(7) -0.0684(6) 0.0923 Uani
C4O C 0.4540(8) 0.1285(8) 0.2105(10) 0.1257 Uani
C4Y C 0.6215(8) 0.2040(8) 0.0395(10) 0.1257 Uani
C4LA C 0.5460(8) 0.3715(8) 0.2105(10) 0.1257 Uani
C4F C 0.4605(10) 0.6215(8) -0.2040(8) 0.1257 Uani
C4T C 0.2895(10) 0.5460(8) -0.3715(8) 0.1257 Uani
C4EA C 0.4605(10) 0.3785(8) -0.2960(8) 0.1257 Uani
C4SA C 0.2895(10) 0.4540(8) -0.1285(8) 0.1257 Uani
C4I C 0.7040(8) 0.5395(10) 0.1215(8) 0.1257 Uani
C4R C 0.8715(8) 0.7105(10) 0.0460(8) 0.1257 Uani
C4FA C 0.7960(8) 0.5395(10) -0.1215(8) 0.1257 Uani
C4QA C 0.6285(8) 0.7105(10) -0.0460(8) 0.1257 Uani
H5O H 0.4817 0.1228 0.1921 0.1500 Uiso
H5Y H 0.6272 0.2317 0.0579 0.1500 Uiso
H5LA H 0.5183 0.3772 0.1921 0.1500 Uiso
H5F H 0.4421 0.6272 -0.2317 0.1500 Uiso
H5T H 0.3079 0.5183 -0.3772 0.1500 Uiso
H5EA H 0.4421 0.3728 -0.2683 0.1500 Uiso
H5SA H 0.3079 0.4817 -0.1228 0.1500 Uiso
H5I H 0.7317 0.5579 0.1272 0.1500 Uiso
H5R H 0.8772 0.6921 0.0183 0.1500 Uiso
H5FA H 0.7683 0.5579 -0.1272 0.1500 Uiso
H5QA H 0.6228 0.6921 -0.0183 0.1500 Uiso
C5O C 0.4324(9) 0.0910(7) 0.2397(10) 0.1223 Uani
C5Y C 0.6590(7) 0.1824(9) 0.0103(10) 0.1223 Uani
C5LA C 0.5676(9) 0.4090(7) 0.2397(10) 0.1223 Uani
C5F C 0.4897(10) 0.6590(7) -0.1824(9) 0.1223 Uani
C5T C 0.2603(10) 0.5676(9) -0.4090(7) 0.1223 Uani
C5EA C 0.4897(10) 0.3410(7) -0.3176(9) 0.1223 Uani
C5SA C 0.2603(10) 0.4324(9) -0.0910(7) 0.1223 Uani
C5I C 0.6824(9) 0.5103(10) 0.1590(7) 0.1223 Uani
C5R C 0.9090(7) 0.7397(10) 0.0676(9) 0.1223 Uani
C5FA C 0.8176(9) 0.5103(10) -0.1590(7) 0.1223 Uani
C5QA C 0.5910(7) 0.7397(10) -0.0676(9) 0.1223 Uani
H6O H 0.4479 0.0612 0.2430 0.1470 Uiso
H6Y H 0.6888 0.1979 0.0070 0.1470 Uiso
H6LA H 0.5521 0.4388 0.2430 0.1470 Uiso
H6F H 0.4930 0.6888 -0.1979 0.1470 Uiso
H6T H 0.2570 0.5521 -0.4388 0.1470 Uiso
H6EA H 0.4930 0.3112 -0.3021 0.1470 Uiso
H6SA H 0.2570 0.4479 -0.0612 0.1470 Uiso
H6I H 0.6979 0.5070 0.1888 0.1470 Uiso
H6R H 0.9388 0.7430 0.0521 0.1470 Uiso
H6FA H 0.8021 0.5070 -0.1888 0.1470 Uiso
H6QA H 0.5612 0.7430 -0.0521 0.1470 Uiso
C6O C 0.3914(10) 0.0987(8) 0.2615(10) 0.1317 Uani
C6Y C 0.6513(8) 0.1414(10) -0.0115(10) 0.1317 Uani
C6LA C 0.6086(10) 0.4013(8) 0.2615(10) 0.1317 Uani
C6F C 0.5115(10) 0.6513(8) -0.1414(10) 0.1317 Uani
C6T C 0.2385(10) 0.6086(10) -0.4013(8) 0.1317 Uani
C6EA C 0.5115(10) 0.3487(8) -0.3586(10) 0.1317 Uani
C6SA C 0.2385(10) 0.3914(10) -0.0987(8) 0.1317 Uani
C6I C 0.6414(10) 0.4885(10) 0.1513(8) 0.1317 Uani
C6R C 0.9013(8) 0.7615(10) 0.1086(10) 0.1317 Uani
C6FA C 0.8586(10) 0.4885(10) -0.1513(8) 0.1317 Uani
C6QA C 0.5987(8) 0.7615(10) -0.1086(10) 0.1317 Uani
H7O H 0.3779 0.0750 0.2814 0.1570 Uiso
H7Y H 0.6750 0.1279 -0.0314 0.1570 Uiso
H7LA H 0.6221 0.4250 0.2814 0.1570 Uiso
H7F H 0.5314 0.6750 -0.1279 0.1570 Uiso
H7T H 0.2186 0.6221 -0.4250 0.1570 Uiso
H7EA H 0.5314 0.3250 -0.3721 0.1570 Uiso
H7SA H 0.2186 0.3779 -0.0750 0.1570 Uiso
H7I H 0.6279 0.4686 0.1750 0.1570 Uiso
H7R H 0.9250 0.7814 0.1221 0.1570 Uiso
H7FA H 0.8721 0.4686 -0.1750 0.1570 Uiso
H7QA H 0.5750 0.7814 -0.1221 0.1570 Uiso
C7O C 0.3682(9) 0.1420(10) 0.2547(10) 0.1543 Uani
C7Y C 0.6080(10) 0.1182(9) -0.0047(10) 0.1543 Uani
C7LA C 0.6318(9) 0.3580(10) 0.2547(10) 0.1543 Uani
C7F C 0.5047(10) 0.6080(10) -0.1182(9) 0.1543 Uani
C7T C 0.2453(10) 0.6318(9) -0.3580(10) 0.1543 Uani
C7EA C 0.5047(10) 0.3920(10) -0.3818(9) 0.1543 Uani
C7SA C 0.2453(10) 0.3682(9) -0.1420(10) 0.1543 Uani
C7I C 0.6182(9) 0.4953(10) 0.1080(10) 0.1543 Uani
C7R C 0.8580(10) 0.7547(10) 0.1318(9) 0.1543 Uani
C7FA C 0.8818(9) 0.4953(10) -0.1080(10) 0.1543 Uani
C7QA C 0.6420(10) 0.7547(10) -0.1318(9) 0.1543 Uani
H8O H 0.3379 0.1453 0.2692 0.1840 Uiso
H8Y H 0.6047 0.0879 -0.0192 0.1840 Uiso
H8LA H 0.6621 0.3547 0.2692 0.1840 Uiso
H8F H 0.5192 0.6047 -0.0879 0.1840 Uiso
H8T H 0.2308 0.6621 -0.3547 0.1840 Uiso
H8EA H 0.5192 0.3953 -0.4121 0.1840 Uiso
H8SA H 0.2308 0.3379 -0.1453 0.1840 Uiso
H8I H 0.5879 0.4808 0.1047 0.1840 Uiso
H8R H 0.8547 0.7692 0.1621 0.1840 Uiso
H8FA H 0.9121 0.4808 -0.1047 0.1840 Uiso
H8QA H 0.6453 0.7692 -0.1621 0.1840 Uiso
C8O C 0.3843(7) 0.1805(9) 0.2294(8) 0.1087 Uani
C8Y C 0.5695(9) 0.1343(7) 0.0206(8) 0.1087 Uani
C8LA C 0.6157(7) 0.3195(9) 0.2294(8) 0.1087 Uani
C8F C 0.4794(8) 0.5695(9) -0.1343(7) 0.1087 Uani
C8T C 0.2706(8) 0.6157(7) -0.3195(9) 0.1087 Uani
C8EA C 0.4794(8) 0.4305(9) -0.3657(7) 0.1087 Uani
C8SA C 0.2706(8) 0.3843(7) -0.1805(9) 0.1087 Uani
C8I C 0.6343(7) 0.5206(8) 0.0695(9) 0.1087 Uani
C8R C 0.8195(9) 0.7294(8) 0.1157(7) 0.1087 Uani
C8FA C 0.8657(7) 0.5206(8) -0.0695(9) 0.1087 Uani
C8QA C 0.6805(9) 0.7294(8) -0.1157(7) 0.1087 Uani
C9O C 0.3562(6) 0.2293(9) 0.2308(7) 0.1090 Uani
C9Y C 0.5207(9) 0.1062(6) 0.0192(7) 0.1090 Uani
C9LA C 0.6438(6) 0.2707(9) 0.2308(7) 0.1090 Uani
C9F C 0.4808(7) 0.5207(9) -0.1062(6) 0.1090 Uani
C9T C 0.2692(7) 0.6438(6) -0.2707(9) 0.1090 Uani
C9EA C 0.4808(7) 0.4793(9) -0.3938(6) 0.1090 Uani
C9SA C 0.2692(7) 0.3562(6) -0.2293(9) 0.1090 Uani
C9I C 0.6062(6) 0.5192(7) 0.0207(9) 0.1090 Uani
C9R C 0.7707(9) 0.7308(7) 0.1438(6) 0.1090 Uani
C9FA C 0.8938(6) 0.5192(7) -0.0207(9) 0.1090 Uani
C9QA C 0.7293(9) 0.7308(7) -0.1438(6) 0.1090 Uani
C10O C 0.3544(14) 0.3160(11) 0.2353(15) 0.1800 Uani
C10Y C 0.4340(11) 0.1044(14) 0.0147(15) 0.1800 Uani
C10LA C 0.6456(14) 0.1840(11) 0.2353(15) 0.1800 Uani
C10F C 0.4853(15) 0.4340(11) -0.1044(14) 0.1800 Uani
C10T C 0.2647(15) 0.6456(14) -0.1840(11) 0.1800 Uani
C10EA C 0.4853(15) 0.5660(11) -0.3956(14) 0.1800 Uani
C10SA C 0.2647(15) 0.3544(14) -0.3160(11) 0.1800 Uani
C10I C 0.6044(14) 0.5147(15) -0.0660(11) 0.1800 Uani
C10R C 0.6840(11) 0.7353(15) 0.1456(14) 0.1800 Uani
C10FA C 0.8956(14) 0.5147(15) 0.0660(11) 0.1800 Uani
C10QA C 0.8160(11) 0.7353(15) -0.1456(14) 0.1800 Uani
H9O H 0.3496 0.3258 0.2689 0.2170 Uiso
H9Y H 0.4242 0.0996 -0.0189 0.2170 Uiso
H9LA H 0.6504 0.1742 0.2689 0.2170 Uiso
H9F H 0.5189 0.4242 -0.0996 0.2170 Uiso
H9T H 0.2311 0.6504 -0.1742 0.2170 Uiso
H9EA H 0.5189 0.5758 -0.4004 0.2170 Uiso
H9SA H 0.2311 0.3496 -0.3258 0.2170 Uiso
H9I H 0.5996 0.4811 -0.0758 0.2170 Uiso
H9R H 0.6742 0.7689 0.1504 0.2170 Uiso
H9FA H 0.9004 0.4811 0.0758 0.2170 Uiso
H9QA H 0.8258 0.7689 -0.1504 0.2170 Uiso
H10O H 0.3229 0.3129 0.2199 0.2170 Uiso
H10Y H 0.4371 0.0729 0.0301 0.2170 Uiso
H10LA H 0.6771 0.1871 0.2199 0.2170 Uiso
H10F H 0.4699 0.4371 -0.0729 0.2170 Uiso
H10T H 0.2801 0.6771 -0.1871 0.2170 Uiso
H10EA H 0.4699 0.5629 -0.4271 0.2170 Uiso
H10SA H 0.2801 0.3229 -0.3129 0.2170 Uiso
H10I H 0.5729 0.5301 -0.0629 0.2170 Uiso
H10R H 0.6871 0.7199 0.1771 0.2170 Uiso
H10FA H 0.9271 0.5301 0.0629 0.2170 Uiso
H10QA H 0.8129 0.7199 -0.1771 0.2170 Uiso
C11O C 0.3820(13) 0.3491(10) 0.2117(11) 0.1847 Uani
C11Y C 0.4009(10) 0.1320(13) 0.0383(11) 0.1847 Uani
C11LA C 0.6180(13) 0.1509(10) 0.2117(11) 0.1847 Uani
C11F C 0.4617(11) 0.4009(10) -0.1320(13) 0.1847 Uani
C11T C 0.2883(11) 0.6180(13) -0.1509(10) 0.1847 Uani
C11EA C 0.4617(11) 0.5991(10) -0.3680(13) 0.1847 Uani
C11SA C 0.2883(11) 0.3820(13) -0.3491(10) 0.1847 Uani
C11I C 0.6320(13) 0.5383(11) -0.0991(10) 0.1847 Uani
C11R C 0.6509(10) 0.7117(11) 0.1180(13) 0.1847 Uani
C11FA C 0.8680(13) 0.5383(11) 0.0991(10) 0.1847 Uani
C11QA C 0.8491(10) 0.7117(11) -0.1180(13) 0.1847 Uani
C12O C 0.3912(13) 0.3527(10) 0.1609(10) 0.1900 Uani
C12Y C 0.3973(10) 0.1412(13) 0.0891(10) 0.1900 Uani
C12LA C 0.6088(13) 0.1473(10) 0.1609(10) 0.1900 Uani
C12F C 0.4109(10) 0.3973(10) -0.1412(13) 0.1900 Uani
C12T C 0.3391(10) 0.6088(13) -0.1473(10) 0.1900 Uani
C12EA C 0.4109(10) 0.6027(10) -0.3588(13) 0.1900 Uani
C12SA C 0.3391(10) 0.3912(13) -0.3527(10) 0.1900 Uani
C12I C 0.6412(13) 0.5891(10) -0.1027(10) 0.1900 Uani
C12R C 0.6473(10) 0.6609(10) 0.1088(13) 0.1900 Uani
C12FA C 0.8588(13) 0.5891(10) 0.1027(10) 0.1900 Uani
C12QA C 0.8527(10) 0.6609(10) -0.1088(13) 0.1900 Uani
H11O H 0.3817 0.3302 0.1375 0.2280 Uiso
H11Y H 0.4198 0.1317 0.1125 0.2280 Uiso
H11LA H 0.6183 0.1698 0.1375 0.2280 Uiso
H11F H 0.3875 0.4198 -0.1317 0.2280 Uiso
H11T H 0.3625 0.6183 -0.1698 0.2280 Uiso
H11EA H 0.3875 0.5802 -0.3683 0.2280 Uiso
H11SA H 0.3625 0.3817 -0.3302 0.2280 Uiso
H11I H 0.6317 0.6125 -0.0802 0.2280 Uiso
H11R H 0.6698 0.6375 0.1183 0.2280 Uiso
H11FA H 0.8683 0.6125 0.0802 0.2280 Uiso
H11QA H 0.8302 0.6375 -0.1183 0.2280 Uiso
C13O C 0.4174(14) 0.3964(11) 0.1516(10) 0.1927 Uani
C13Y C 0.3536(11) 0.1674(14) 0.0984(10) 0.1927 Uani
C13LA C 0.5826(14) 0.1036(11) 0.1516(10) 0.1927 Uani
C13F C 0.4016(10) 0.3536(11) -0.1674(14) 0.1927 Uani
C13T C 0.3484(10) 0.5826(14) -0.1036(11) 0.1927 Uani
C13EA C 0.4016(10) 0.6464(11) -0.3326(14) 0.1927 Uani
C13SA C 0.3484(10) 0.4174(14) -0.3964(11) 0.1927 Uani
C13I C 0.6674(14) 0.5984(10) -0.1464(11) 0.1927 Uani
C13R C 0.6036(11) 0.6516(10) 0.0826(14) 0.1927 Uani
C13FA C 0.8326(14) 0.5984(10) 0.1464(11) 0.1927 Uani
C13QA C 0.8964(11) 0.6516(10) -0.0826(14) 0.1927 Uani
H12O H 0.4257 0.4088 0.1213 0.2320 Uiso
H12Y H 0.3412 0.1757 0.1287 0.2320 Uiso
H12LA H 0.5743 0.0912 0.1213 0.2320 Uiso
H12F H 0.3713 0.3412 -0.1757 0.2320 Uiso
H12T H 0.3787 0.5743 -0.0912 0.2320 Uiso
H12EA H 0.3713 0.6588 -0.3243 0.2320 Uiso
H12SA H 0.3787 0.4257 -0.4088 0.2320 Uiso
H12I H 0.6757 0.6287 -0.1588 0.2320 Uiso
H12R H 0.5912 0.6213 0.0743 0.2320 Uiso
H12FA H 0.8243 0.6287 0.1588 0.2320 Uiso
H12QA H 0.9088 0.6213 -0.0743 0.2320 Uiso
C14O C 0.4286(12) 0.4178(9) 0.1981(12) 0.1930 Uani
C14Y C 0.3322(9) 0.1786(12) 0.0519(12) 0.1930 Uani
C14LA C 0.5714(12) 0.0822(9) 0.1981(12) 0.1930 Uani
C14F C 0.4481(12) 0.3322(9) -0.1786(12) 0.1930 Uani
C14T C 0.3019(12) 0.5714(12) -0.0822(9) 0.1930 Uani
C14EA C 0.4481(12) 0.6678(9) -0.3214(12) 0.1930 Uani
C14SA C 0.3019(12) 0.4286(12) -0.4178(9) 0.1930 Uani
C14I C 0.6786(12) 0.5519(12) -0.1678(9) 0.1930 Uani
C14R C 0.5822(9) 0.6981(12) 0.0714(12) 0.1930 Uani
C14FA C 0.8214(12) 0.5519(12) 0.1678(9) 0.1930 Uani
C14QA C 0.9178(9) 0.6981(12) -0.0714(12) 0.1930 Uani
H13O H 0.4473 0.4455 0.2032 0.2320 Uiso
H13Y H 0.3045 0.1973 0.0468 0.2320 Uiso
H13LA H 0.5527 0.0545 0.2032 0.2320 Uiso
H13F H 0.4532 0.3045 -0.1973 0.2320 Uiso
H13T H 0.2968 0.5527 -0.0545 0.2320 Uiso
H13EA H 0.4532 0.6955 -0.3027 0.2320 Uiso
H13SA H 0.2968 0.4473 -0.4455 0.2320 Uiso
H13I H 0.6973 0.5468 -0.1955 0.2320 Uiso
H13R H 0.5545 0.7032 0.0527 0.2320 Uiso
H13FA H 0.8027 0.5468 0.1955 0.2320 Uiso
H13QA H 0.9455 0.7032 -0.0527 0.2320 Uiso
O7 O 0.7500 0.4151(14) 0.0000 0.2177 Uani
H2 H 0.7541 0.4338 0.0242 0.2610 Uiso
H2Z H 0.7459 0.4338 -0.0242 0.2610 Uiso
loop_
_atom_site_aniso_label
_atom_site_aniso_U_11
_atom_site_aniso_U_22
_atom_site_aniso_U_33
_atom_site_aniso_U_23
_atom_site_aniso_U_13
_atom_site_aniso_U_12
Eu1 0.0788(5) 0.0788(5) 0.0788(5) 0.0038(4) -0.0038(4) -0.0038(4)
N1 0.126(15) 0.072(9) 0.21(2) 0.032(11) -0.021(17) -0.004(10)
N2 0.167(12) 0.177(14) 0.083(10) 0.006(10) -0.005(9) -0.038(13)
O1 0.124(9) 0.053(5) 0.118(9) 0.000(5) -0.044(9) 0.014(6)
O2 0.149(12) 0.201(15) 0.242(18) 0.027(15) -0.033(12) -0.012(11)
O3 0.115(10) 0.094(8) 0.138(11) 0.040(8) -0.033(8) -0.008(7)
O4 0.148(9) 0.158(11) 0.066(6) 0.045(7) -0.028(6) -0.035(9)
O5 0.189(12) 0.172(12) 0.096(8) -0.012(8) -0.007(9) -0.036(11)
O6 0.239(15) 0.206(14) 0.067(7) -0.001(10) -0.009(9) -0.019(13)
C1 0.058(9) 0.058(9) 0.11(2) 0.000 0.000 0.000
C2 0.079(9) 0.113(13) 0.077(10) 0.005(9) -0.002(8) -0.006(9)
C3 0.105(12) 0.070(10) 0.102(12) -0.004(8) -0.004(10) -0.012(9)
C4 0.102(14) 0.095(12) 0.18(2) 0.046(12) -0.035(14) -0.012(11)
C5 0.083(11) 0.142(19) 0.142(19) -0.008(16) -0.023(12) -0.022(12)
C6 0.107(15) 0.138(19) 0.15(2) 0.032(16) -0.031(14) -0.031(14)
C7 0.17(2) 0.133(18) 0.16(2) 0.056(17) -0.10(2) -0.060(18)
C8 0.134(16) 0.094(12) 0.098(13) -0.003(11) -0.007(13) -0.022(11)
C9 0.153(18) 0.084(11) 0.090(11) 0.013(9) -0.026(13) 0.063(13)
C10 0.13(2) 0.20(3) 0.21(4) 0.01(3) -0.04(2) 0.06(2)
C11 0.132(13) 0.190(16) 0.232(19) 0.030(16) -0.023(14) -0.015(12)
C12 0.141(13) 0.197(16) 0.232(19) 0.024(16) -0.025(14) -0.015(12)
C13 0.140(13) 0.202(16) 0.236(19) 0.038(16) -0.029(14) -0.014(12)
C14 0.140(13) 0.199(16) 0.24(2) 0.028(16) -0.033(13) -0.006(13)
Eu1O 0.0788 0.0788 0.0788 0.0038 0.0038 0.0038
Eu1Y 0.0788 0.0788 0.0788 -0.0038 0.0038 -0.0038
Eu1LA 0.0788 0.0788 0.0788 -0.0038 -0.0038 0.0038
Eu1N 0.0788 0.0788 0.0788 -0.0038 -0.0038 0.0038
Eu1AA 0.0788 0.0788 0.0788 0.0038 0.0038 0.0038
Eu1JA 0.0788 0.0788 0.0788 -0.0038 0.0038 -0.0038
Eu1L 0.0788 0.0788 0.0788 -0.0038 0.0038 -0.0038
Eu1Z 0.0788 0.0788 0.0788 -0.0038 -0.0038 0.0038
Eu1MA 0.0788 0.0788 0.0788 0.0038 0.0038 0.0038
N1O 0.072 0.126 0.21 0.021 0.032 0.004
N1Y 0.126 0.072 0.21 -0.032 0.021 -0.004
N1LA 0.072 0.126 0.21 -0.021 -0.032 0.004
N1F 0.21 0.126 0.072 0.004 -0.032 -0.021
N1T 0.21 0.072 0.126 -0.004 -0.021 0.032
N1EA 0.21 0.126 0.072 0.004 0.032 0.021
N1SA 0.21 0.072 0.126 -0.004 0.021 -0.032
N1I 0.072 0.21 0.126 0.021 -0.004 -0.032
N1R 0.126 0.21 0.072 -0.032 0.004 -0.021
N1FA 0.072 0.21 0.126 -0.021 -0.004 0.032
N1QA 0.126 0.21 0.072 0.032 0.004 0.021
N2F 0.083 0.167 0.177 0.038 -0.006 -0.005
N2I 0.177 0.083 0.167 0.005 -0.038 -0.006
N2O 0.177 0.167 0.083 0.005 0.006 0.038
N2S 0.167 0.083 0.177 0.006 0.038 0.005
N2W 0.083 0.177 0.167 0.038 0.005 0.006
N2Y 0.167 0.177 0.083 -0.006 0.005 -0.038
N2BA 0.083 0.167 0.177 -0.038 0.006 -0.005
N2HA 0.177 0.083 0.167 -0.005 0.038 -0.006
N2LA 0.177 0.167 0.083 -0.005 -0.006 0.038
N2OA 0.167 0.083 0.177 -0.006 -0.038 0.005
N2RA 0.083 0.177 0.167 -0.038 -0.005 0.006
O1O 0.053 0.124 0.118 0.044 0 -0.014
O1Y 0.124 0.053 0.118 0 0.044 0.014
O1LA 0.053 0.124 0.118 -0.044 0 -0.014
O1F 0.118 0.124 0.053 -0.014 0 -0.044
O1T 0.118 0.053 0.124 0.014 -0.044 0
O1EA 0.118 0.124 0.053 -0.014 0 0.044
O1SA 0.118 0.053 0.124 0.014 0.044 0
O1I 0.053 0.118 0.124 0.044 0.014 0
O1R 0.124 0.118 0.053 0 -0.014 -0.044
O1FA 0.053 0.118 0.124 -0.044 0.014 0
O1QA 0.124 0.118 0.053 0 -0.014 0.044
O1S 0.124 0.118 0.053 0 -0.014 0.044
O1W 0.118 0.053 0.124 -0.014 0.044 0
O1BA 0.118 0.124 0.053 0.014 0 -0.044
O1HA 0.053 0.118 0.124 -0.044 -0.014 0
O1OA 0.124 0.118 0.053 0 0.014 0.044
O1RA 0.118 0.053 0.124 0.014 -0.044 0
O2O 0.201 0.149 0.242 0.033 0.027 0.012
O2Y 0.149 0.201 0.242 -0.027 0.033 -0.012
O2LA 0.201 0.149 0.242 -0.033 -0.027 0.012
O2F 0.242 0.149 0.201 0.012 -0.027 -0.033
O2T 0.242 0.201 0.149 -0.012 -0.033 0.027
O2EA 0.242 0.149 0.201 0.012 0.027 0.033
O2SA 0.242 0.201 0.149 -0.012 0.033 -0.027
O2I 0.201 0.242 0.149 0.033 -0.012 -0.027
O2R 0.149 0.242 0.201 -0.027 0.012 -0.033
O2FA 0.201 0.242 0.149 -0.033 -0.012 0.027
O2QA 0.149 0.242 0.201 0.027 0.012 0.033
O3O 0.094 0.115 0.138 0.033 0.04 0.008
O3Y 0.115 0.094 0.138 -0.04 0.033 -0.008
O3LA 0.094 0.115 0.138 -0.033 -0.04 0.008
O3F 0.138 0.115 0.094 0.008 -0.04 -0.033
O3T 0.138 0.094 0.115 -0.008 -0.033 0.04
O3EA 0.138 0.115 0.094 0.008 0.04 0.033
O3SA 0.138 0.094 0.115 -0.008 0.033 -0.04
O3I 0.094 0.138 0.115 0.033 -0.008 -0.04
O3R 0.115 0.138 0.094 -0.04 0.008 -0.033
O3FA 0.094 0.138 0.115 -0.033 -0.008 0.04
O3QA 0.115 0.138 0.094 0.04 0.008 0.033
O4F 0.066 0.148 0.158 0.035 -0.045 -0.028
O4I 0.158 0.066 0.148 0.028 -0.035 -0.045
O4O 0.158 0.148 0.066 0.028 0.045 0.035
O4S 0.148 0.066 0.158 0.045 0.035 0.028
O4W 0.066 0.158 0.148 0.035 0.028 0.045
O4Y 0.148 0.158 0.066 -0.045 0.028 -0.035
O4BA 0.066 0.148 0.158 -0.035 0.045 -0.028
O4HA 0.158 0.066 0.148 -0.028 0.035 -0.045
O4LA 0.158 0.148 0.066 -0.028 -0.045 0.035
O4OA 0.148 0.066 0.158 -0.045 -0.035 0.028
O4RA 0.066 0.158 0.148 -0.035 -0.028 0.045
O5F 0.096 0.189 0.172 0.036 0.012 -0.007
O5I 0.172 0.096 0.189 0.007 -0.036 0.012
O5O 0.172 0.189 0.096 0.007 -0.012 0.036
O5S 0.189 0.096 0.172 -0.012 0.036 0.007
O5W 0.096 0.172 0.189 0.036 0.007 -0.012
O5Y 0.189 0.172 0.096 0.012 0.007 -0.036
O5BA 0.096 0.189 0.172 -0.036 -0.012 -0.007
O5HA 0.172 0.096 0.189 -0.007 0.036 0.012
O5LA 0.172 0.189 0.096 -0.007 0.012 0.036
O5OA 0.189 0.096 0.172 0.012 -0.036 0.007
O5RA 0.096 0.172 0.189 -0.036 -0.007 -0.012
O6F 0.067 0.239 0.206 0.019 0.001 -0.009
O6I 0.206 0.067 0.239 0.009 -0.019 0.001
O6O 0.206 0.239 0.067 0.009 -0.001 0.019
O6S 0.239 0.067 0.206 -0.001 0.019 0.009
O6W 0.067 0.206 0.239 0.019 0.009 -0.001
O6Y 0.239 0.206 0.067 0.001 0.009 -0.019
O6BA 0.067 0.239 0.206 -0.019 -0.001 -0.009
O6HA 0.206 0.067 0.239 -0.009 0.019 0.001
O6LA 0.206 0.239 0.067 -0.009 0.001 0.019
O6OA 0.239 0.067 0.206 0.001 -0.019 0.009
O6RA 0.067 0.206 0.239 -0.019 -0.009 -0.001
C1F 0.11 0.058 0.058 0 0 0
C1I 0.058 0.11 0.058 0 0 0
C2O 0.113 0.079 0.077 0.002 0.005 0.006
C2Y 0.079 0.113 0.077 -0.005 0.002 -0.006
C2LA 0.113 0.079 0.077 -0.002 -0.005 0.006
C2F 0.077 0.079 0.113 0.006 -0.005 -0.002
C2T 0.077 0.113 0.079 -0.006 -0.002 0.005
C2EA 0.077 0.079 0.113 0.006 0.005 0.002
C2SA 0.077 0.113 0.079 -0.006 0.002 -0.005
C2I 0.113 0.077 0.079 0.002 -0.006 -0.005
C2R 0.079 0.077 0.113 -0.005 0.006 -0.002
C2FA 0.113 0.077 0.079 -0.002 -0.006 0.005
C2QA 0.079 0.077 0.113 0.005 0.006 0.002
C3O 0.07 0.105 0.102 0.004 -0.004 0.012
C3Y 0.105 0.07 0.102 0.004 0.004 -0.012
C3LA 0.07 0.105 0.102 -0.004 0.004 0.012
C3F 0.102 0.105 0.07 0.012 0.004 -0.004
C3T 0.102 0.07 0.105 -0.012 -0.004 -0.004
C3EA 0.102 0.105 0.07 0.012 -0.004 0.004
C3SA 0.102 0.07 0.105 -0.012 0.004 0.004
C3I 0.07 0.102 0.105 0.004 -0.012 0.004
C3R 0.105 0.102 0.07 0.004 0.012 -0.004
C3FA 0.07 0.102 0.105 -0.004 -0.012 -0.004
C3QA 0.105 0.102 0.07 -0.004 0.012 0.004
C4O 0.095 0.102 0.18 0.035 0.046 0.012
C4Y 0.102 0.095 0.18 -0.046 0.035 -0.012
C4LA 0.095 0.102 0.18 -0.035 -0.046 0.012
C4F 0.18 0.102 0.095 0.012 -0.046 -0.035
C4T 0.18 0.095 0.102 -0.012 -0.035 0.046
C4EA 0.18 0.102 0.095 0.012 0.046 0.035
C4SA 0.18 0.095 0.102 -0.012 0.035 -0.046
C4I 0.095 0.18 0.102 0.035 -0.012 -0.046
C4R 0.102 0.18 0.095 -0.046 0.012 -0.035
C4FA 0.095 0.18 0.102 -0.035 -0.012 0.046
C4QA 0.102 0.18 0.095 0.046 0.012 0.035
C5O 0.142 0.083 0.142 0.023 -0.008 0.022
C5Y 0.083 0.142 0.142 0.008 0.023 -0.022
C5LA 0.142 0.083 0.142 -0.023 0.008 0.022
C5F 0.142 0.083 0.142 0.022 0.008 -0.023
C5T 0.142 0.142 0.083 -0.022 -0.023 -0.008
C5EA 0.142 0.083 0.142 0.022 -0.008 0.023
C5SA 0.142 0.142 0.083 -0.022 0.023 0.008
C5I 0.142 0.142 0.083 0.023 -0.022 0.008
C5R 0.083 0.142 0.142 0.008 0.022 -0.023
C5FA 0.142 0.142 0.083 -0.023 -0.022 -0.008
C5QA 0.083 0.142 0.142 -0.008 0.022 0.023
C6O 0.138 0.107 0.15 0.031 0.032 0.031
C6Y 0.107 0.138 0.15 -0.032 0.031 -0.031
C6LA 0.138 0.107 0.15 -0.031 -0.032 0.031
C6F 0.15 0.107 0.138 0.031 -0.032 -0.031
C6T 0.15 0.138 0.107 -0.031 -0.031 0.032
C6EA 0.15 0.107 0.138 0.031 0.032 0.031
C6SA 0.15 0.138 0.107 -0.031 0.031 -0.032
C6I 0.138 0.15 0.107 0.031 -0.031 -0.032
C6R 0.107 0.15 0.138 -0.032 0.031 -0.031
C6FA 0.138 0.15 0.107 -0.031 -0.031 0.032
C6QA 0.107 0.15 0.138 0.032 0.031 0.031
C7O 0.133 0.17 0.16 0.1 0.056 0.06
C7Y 0.17 0.133 0.16 -0.056 0.1 -0.06
C7LA 0.133 0.17 0.16 -0.1 -0.056 0.06
C7F 0.16 0.17 0.133 0.06 -0.056 -0.1
C7T 0.16 0.133 0.17 -0.06 -0.1 0.056
C7EA 0.16 0.17 0.133 0.06 0.056 0.1
C7SA 0.16 0.133 0.17 -0.06 0.1 -0.056
C7I 0.133 0.16 0.17 0.1 -0.06 -0.056
C7R 0.17 0.16 0.133 -0.056 0.06 -0.1
C7FA 0.133 0.16 0.17 -0.1 -0.06 0.056
C7QA 0.17 0.16 0.133 0.056 0.06 0.1
C8O 0.094 0.134 0.098 0.007 -0.003 0.022
C8Y 0.134 0.094 0.098 0.003 0.007 -0.022
C8LA 0.094 0.134 0.098 -0.007 0.003 0.022
C8F 0.098 0.134 0.094 0.022 0.003 -0.007
C8T 0.098 0.094 0.134 -0.022 -0.007 -0.003
C8EA 0.098 0.134 0.094 0.022 -0.003 0.007
C8SA 0.098 0.094 0.134 -0.022 0.007 0.003
C8I 0.094 0.098 0.134 0.007 -0.022 0.003
C8R 0.134 0.098 0.094 0.003 0.022 -0.007
C8FA 0.094 0.098 0.134 -0.007 -0.022 -0.003
C8QA 0.134 0.098 0.094 -0.003 0.022 0.007
C9O 0.084 0.153 0.09 0.026 0.013 -0.063
C9Y 0.153 0.084 0.09 -0.013 0.026 0.063
C9LA 0.084 0.153 0.09 -0.026 -0.013 -0.063
C9F 0.09 0.153 0.084 -0.063 -0.013 -0.026
C9T 0.09 0.084 0.153 0.063 -0.026 0.013
C9EA 0.09 0.153 0.084 -0.063 0.013 0.026
C9SA 0.09 0.084 0.153 0.063 0.026 -0.013
C9I 0.084 0.09 0.153 0.026 0.063 -0.013
C9R 0.153 0.09 0.084 -0.013 -0.063 -0.026
C9FA 0.084 0.09 0.153 -0.026 0.063 0.013
C9QA 0.153 0.09 0.084 0.013 -0.063 0.026
C10O 0.2 0.13 0.21 0.04 0.01 -0.06
C10Y 0.13 0.2 0.21 -0.01 0.04 0.06
C10LA 0.2 0.13 0.21 -0.04 -0.01 -0.06
C10F 0.21 0.13 0.2 -0.06 -0.01 -0.04
C10T 0.21 0.2 0.13 0.06 -0.04 0.01
C10EA 0.21 0.13 0.2 -0.06 0.01 0.04
C10SA 0.21 0.2 0.13 0.06 0.04 -0.01
C10I 0.2 0.21 0.13 0.04 0.06 -0.01
C10R 0.13 0.21 0.2 -0.01 -0.06 -0.04
C10FA 0.2 0.21 0.13 -0.04 0.06 0.01
C10QA 0.13 0.21 0.2 0.01 -0.06 0.04
C11O 0.19 0.132 0.232 0.023 0.03 0.015
C11Y 0.132 0.19 0.232 -0.03 0.023 -0.015
C11LA 0.19 0.132 0.232 -0.023 -0.03 0.015
C11F 0.232 0.132 0.19 0.015 -0.03 -0.023
C11T 0.232 0.19 0.132 -0.015 -0.023 0.03
C11EA 0.232 0.132 0.19 0.015 0.03 0.023
C11SA 0.232 0.19 0.132 -0.015 0.023 -0.03
C11I 0.19 0.232 0.132 0.023 -0.015 -0.03
C11R 0.132 0.232 0.19 -0.03 0.015 -0.023
C11FA 0.19 0.232 0.132 -0.023 -0.015 0.03
C11QA 0.132 0.232 0.19 0.03 0.015 0.023
C12O 0.197 0.141 0.232 0.025 0.024 0.015
C12Y 0.141 0.197 0.232 -0.024 0.025 -0.015
C12LA 0.197 0.141 0.232 -0.025 -0.024 0.015
C12F 0.232 0.141 0.197 0.015 -0.024 -0.025
C12T 0.232 0.197 0.141 -0.015 -0.025 0.024
C12EA 0.232 0.141 0.197 0.015 0.024 0.025
C12SA 0.232 0.197 0.141 -0.015 0.025 -0.024
C12I 0.197 0.232 0.141 0.025 -0.015 -0.024
C12R 0.141 0.232 0.197 -0.024 0.015 -0.025
C12FA 0.197 0.232 0.141 -0.025 -0.015 0.024
C12QA 0.141 0.232 0.197 0.024 0.015 0.025
C13O 0.202 0.14 0.236 0.029 0.038 0.014
C13Y 0.14 0.202 0.236 -0.038 0.029 -0.014
C13LA 0.202 0.14 0.236 -0.029 -0.038 0.014
C13F 0.236 0.14 0.202 0.014 -0.038 -0.029
C13T 0.236 0.202 0.14 -0.014 -0.029 0.038
C13EA 0.236 0.14 0.202 0.014 0.038 0.029
C13SA 0.236 0.202 0.14 -0.014 0.029 -0.038
C13I 0.202 0.236 0.14 0.029 -0.014 -0.038
C13R 0.14 0.236 0.202 -0.038 0.014 -0.029
C13FA 0.202 0.236 0.14 -0.029 -0.014 0.038
C13QA 0.14 0.236 0.202 0.038 0.014 0.029
C14O 0.199 0.14 0.24 0.033 0.028 0.006
C14Y 0.14 0.199 0.24 -0.028 0.033 -0.006
C14LA 0.199 0.14 0.24 -0.033 -0.028 0.006
C14F 0.24 0.14 0.199 0.006 -0.028 -0.033
C14T 0.24 0.199 0.14 -0.006 -0.033 0.028
C14EA 0.24 0.14 0.199 0.006 0.028 0.033
C14SA 0.24 0.199 0.14 -0.006 0.033 -0.028
C14I 0.199 0.24 0.14 0.033 -0.006 -0.028
C14R 0.14 0.24 0.199 -0.028 0.006 -0.033
C14FA 0.199 0.24 0.14 -0.033 -0.006 0.028
C14QA 0.14 0.24 0.199 0.028 0.006 0.033
O7 0.221(17) 0.211(16) 0.221(17) 0.000 0.008(10) 0.000
loop_
_geom_bond_atom_site_label_1
_geom_bond_atom_site_label_2
_geom_bond_site_symmetry_1
_geom_bond_site_symmetry_2
Eu1 O1 1_555 1_555
N1 H1 1_555 1_555
N2 O4 1_555 1_555
O1 C9 1_555 1_555
O2 C11 1_555 1_555
O3 C2 1_555 1_555
O4 Eu1 1_555 1_555
O5 Eu1 1_555 1_555
O6 N2 1_555 1_555
O7 H2 1_555 1_555
C1 C2 1_555 1_555
C2 H3 1_555 1_555
H4 C2 1_555 1_555
C3 O3 1_555 1_555
C4 C3 1_555 1_555
H5 C4 1_555 1_555
C5 C4 1_555 1_555
H6 C5 1_555 1_555
C6 C5 1_555 1_555
H7 C6 1_555 1_555
C7 C6 1_555 1_555
H8 C7 1_555 1_555
C8 C3 1_555 1_555
C9 N1 1_555 1_555
C10 N1 1_555 1_555
H9 C10 1_555 1_555
H10 C10 1_555 1_555
C11 C10 1_555 1_555
C12 C11 1_555 1_555
H11 C12 1_555 1_555
C13 C12 1_555 1_555
H12 C13 1_555 1_555
C14 O2 1_555 1_555
H13 C14 1_555 1_555
Eu1O O1O 1_555 1_555
Eu1Y O1Y 1_555 1_555
Eu1LA O1LA 1_555 1_555
Eu1N O1T 1_555 1_555
Eu1AA O1EA 1_555 1_555
Eu1JA O1SA 1_555 1_555
Eu1L O1R 1_555 1_555
Eu1Z O1FA 1_555 1_555
Eu1MA O1QA 1_555 1_555
N1O H1O 1_555 1_555
N1Y H1Y 1_555 1_555
N1LA H1LA 1_555 1_555
N1F H1F 1_555 1_555
N1T H1T 1_555 1_555
N1EA H1EA 1_555 1_555
N1SA H1SA 1_555 1_555
N1I H1I 1_555 1_555
N1R H1R 1_555 1_555
N1FA H1FA 1_555 1_555
N1QA H1QA 1_555 1_555
N2F O4F 1_555 1_555
N2I O4I 1_555 1_555
N2O O4O 1_555 1_555
N2S O4S 1_555 1_555
N2W O4W 1_555 1_555
N2Y O4Y 1_555 1_555
N2BA O4BA 1_555 1_555
N2HA O4HA 1_555 1_555
N2LA O4LA 1_555 1_555
N2OA O4OA 1_555 1_555
N2RA O4RA 1_555 1_555
O1O C9O 1_555 1_555
O1Y C9Y 1_555 1_555
O1LA C9LA 1_555 1_555
O1F Eu1 1_555 1_555
O1T C9T 1_555 1_555
O1EA C9EA 1_555 1_555
O1SA C9SA 1_555 1_555
O1I Eu1 1_555 1_555
O1R C9R 1_555 1_555
O1FA C9FA 1_555 1_555
O1QA C9QA 1_555 1_555
O1S Eu1O 1_555 1_555
O1W Eu1O 1_555 1_555
O1BA Eu1Y 1_555 1_555
O1HA Eu1Y 1_555 1_555
O1OA Eu1LA 1_555 1_555
O1RA Eu1LA 1_555 1_555
O2O C11O 1_555 1_555
O2Y C11Y 1_555 1_555
O2LA C11LA 1_555 1_555
O2F C11F 1_555 1_555
O2T C11T 1_555 1_555
O2EA C11EA 1_555 1_555
O2SA C11SA 1_555 1_555
O2I C11I 1_555 1_555
O2R C11R 1_555 1_555
O2FA C11FA 1_555 1_555
O2QA C11QA 1_555 1_555
O3O C2O 1_555 1_555
O3Y C2Y 1_555 1_555
O3LA C2LA 1_555 1_555
O3F C2F 1_555 1_555
O3T C2T 1_555 1_555
O3EA C2EA 1_555 1_555
O3SA C2SA 1_555 1_555
O3I C2I 1_555 1_555
O3R C2R 1_555 1_555
O3FA C2FA 1_555 1_555
O3QA C2QA 1_555 1_555
O4F Eu1 1_555 1_555
O4I Eu1 1_555 1_555
O4O Eu1O 1_555 1_555
O4S Eu1O 1_555 1_555
O4W Eu1O 1_555 1_555
O4Y Eu1Y 1_555 1_555
O4BA Eu1Y 1_555 1_555
O4HA Eu1Y 1_555 1_555
O4LA Eu1LA 1_555 1_555
O4OA Eu1LA 1_555 1_555
O4RA Eu1LA 1_555 1_555
O5F Eu1 1_555 1_555
O5I Eu1 1_555 1_555
O5O Eu1O 1_555 1_555
O5S Eu1O 1_555 1_555
O5W Eu1O 1_555 1_555
O5Y Eu1Y 1_555 1_555
O5BA Eu1Y 1_555 1_555
O5HA Eu1Y 1_555 1_555
O5LA Eu1LA 1_555 1_555
O5OA Eu1LA 1_555 1_555
O5RA Eu1LA 1_555 1_555
O6F N2F 1_555 1_555
O6I N2I 1_555 1_555
O6O N2O 1_555 1_555
O6S N2S 1_555 1_555
O6W N2W 1_555 1_555
O6Y N2Y 1_555 1_555
O6BA N2BA 1_555 1_555
O6HA N2HA 1_555 1_555
O6LA N2LA 1_555 1_555
O6OA N2OA 1_555 1_555
O6RA N2RA 1_555 1_555
H2Z O7 1_555 1_555
C1F C2F 1_555 1_555
C1I C2I 1_555 1_555
C2O C1 1_555 1_555
C2Y C1 1_555 1_555
C2LA C1 1_555 1_555
C2F H3F 1_555 1_555
C2T C1F 1_555 1_555
C2EA C1F 1_555 1_555
C2SA C1F 1_555 1_555
C2I H3I 1_555 1_555
C2R C1I 1_555 1_555
C2FA C1I 1_555 1_555
C2QA C1I 1_555 1_555
H3O C2O 1_555 1_555
H3Y C2Y 1_555 1_555
H3LA C2LA 1_555 1_555
H3T C2T 1_555 1_555
H3EA C2EA 1_555 1_555
H3SA C2SA 1_555 1_555
H3R C2R 1_555 1_555
H3FA C2FA 1_555 1_555
H3QA C2QA 1_555 1_555
H4O C2O 1_555 1_555
H4Y C2Y 1_555 1_555
H4LA C2LA 1_555 1_555
H4F C2F 1_555 1_555
H4T C2T 1_555 1_555
H4EA C2EA 1_555 1_555
H4SA C2SA 1_555 1_555
H4I C2I 1_555 1_555
H4R C2R 1_555 1_555
H4FA C2FA 1_555 1_555
H4QA C2QA 1_555 1_555
C3O O3O 1_555 1_555
C3Y O3Y 1_555 1_555
C3LA O3LA 1_555 1_555
C3F O3F 1_555 1_555
C3T O3T 1_555 1_555
C3EA O3EA 1_555 1_555
C3SA O3SA 1_555 1_555
C3I O3I 1_555 1_555
C3R O3R 1_555 1_555
C3FA O3FA 1_555 1_555
C3QA O3QA 1_555 1_555
C4O C3O 1_555 1_555
C4Y C3Y 1_555 1_555
C4LA C3LA 1_555 1_555
C4F C3F 1_555 1_555
C4T C3T 1_555 1_555
C4EA C3EA 1_555 1_555
C4SA C3SA 1_555 1_555
C4I C3I 1_555 1_555
C4R C3R 1_555 1_555
C4FA C3FA 1_555 1_555
C4QA C3QA 1_555 1_555
H5O C4O 1_555 1_555
H5Y C4Y 1_555 1_555
H5LA C4LA 1_555 1_555
H5F C4F 1_555 1_555
H5T C4T 1_555 1_555
H5EA C4EA 1_555 1_555
H5SA C4SA 1_555 1_555
H5I C4I 1_555 1_555
H5R C4R 1_555 1_555
H5FA C4FA 1_555 1_555
H5QA C4QA 1_555 1_555
C5O C4O 1_555 1_555
C5Y C4Y 1_555 1_555
C5LA C4LA 1_555 1_555
C5F C4F 1_555 1_555
C5T C4T 1_555 1_555
C5EA C4EA 1_555 1_555
C5SA C4SA 1_555 1_555
C5I C4I 1_555 1_555
C5R C4R 1_555 1_555
C5FA C4FA 1_555 1_555
C5QA C4QA 1_555 1_555
H6O C5O 1_555 1_555
H6Y C5Y 1_555 1_555
H6LA C5LA 1_555 1_555
H6F C5F 1_555 1_555
H6T C5T 1_555 1_555
H6EA C5EA 1_555 1_555
H6SA C5SA 1_555 1_555
H6I C5I 1_555 1_555
H6R C5R 1_555 1_555
H6FA C5FA 1_555 1_555
H6QA C5QA 1_555 1_555
C6O C5O 1_555 1_555
C6Y C5Y 1_555 1_555
C6LA C5LA 1_555 1_555
C6F C5F 1_555 1_555
C6T C5T 1_555 1_555
C6EA C5EA 1_555 1_555
C6SA C5SA 1_555 1_555
C6I C5I 1_555 1_555
C6R C5R 1_555 1_555
C6FA C5FA 1_555 1_555
C6QA C5QA 1_555 1_555
H7O C6O 1_555 1_555
H7Y C6Y 1_555 1_555
H7LA C6LA 1_555 1_555
H7F C6F 1_555 1_555
H7T C6T 1_555 1_555
H7EA C6EA 1_555 1_555
H7SA C6SA 1_555 1_555
H7I C6I 1_555 1_555
H7R C6R 1_555 1_555
H7FA C6FA 1_555 1_555
H7QA C6QA 1_555 1_555
C7O C6O 1_555 1_555
C7Y C6Y 1_555 1_555
C7LA C6LA 1_555 1_555
C7F C6F 1_555 1_555
C7T C6T 1_555 1_555
C7EA C6EA 1_555 1_555
C7SA C6SA 1_555 1_555
C7I C6I 1_555 1_555
C7R C6R 1_555 1_555
C7FA C6FA 1_555 1_555
C7QA C6QA 1_555 1_555
H8O C7O 1_555 1_555
H8Y C7Y 1_555 1_555
H8LA C7LA 1_555 1_555
H8F C7F 1_555 1_555
H8T C7T 1_555 1_555
H8EA C7EA 1_555 1_555
H8SA C7SA 1_555 1_555
H8I C7I 1_555 1_555
H8R C7R 1_555 1_555
H8FA C7FA 1_555 1_555
H8QA C7QA 1_555 1_555
C8O C3O 1_555 1_555
C8Y C3Y 1_555 1_555
C8LA C3LA 1_555 1_555
C8F C3F 1_555 1_555
C8T C3T 1_555 1_555
C8EA C3EA 1_555 1_555
C8SA C3SA 1_555 1_555
C8I C3I 1_555 1_555
C8R C3R 1_555 1_555
C8FA C3FA 1_555 1_555
C8QA C3QA 1_555 1_555
C9O N1O 1_555 1_555
C9Y N1Y 1_555 1_555
C9LA N1LA 1_555 1_555
C9F N1F 1_555 1_555
C9T N1T 1_555 1_555
C9EA N1EA 1_555 1_555
C9SA N1SA 1_555 1_555
C9I N1I 1_555 1_555
C9R N1R 1_555 1_555
C9FA N1FA 1_555 1_555
C9QA N1QA 1_555 1_555
C10O N1O 1_555 1_555
C10Y N1Y 1_555 1_555
C10LA N1LA 1_555 1_555
C10F N1F 1_555 1_555
C10T N1T 1_555 1_555
C10EA N1EA 1_555 1_555
C10SA N1SA 1_555 1_555
C10I N1I 1_555 1_555
C10R N1R 1_555 1_555
C10FA N1FA 1_555 1_555
C10QA N1QA 1_555 1_555
H9O C10O 1_555 1_555
H9Y C10Y 1_555 1_555
H9LA C10LA 1_555 1_555
H9F C10F 1_555 1_555
H9T C10T 1_555 1_555
H9EA C10EA 1_555 1_555
H9SA C10SA 1_555 1_555
H9I C10I 1_555 1_555
H9R C10R 1_555 1_555
H9FA C10FA 1_555 1_555
H9QA C10QA 1_555 1_555
H10O C10O 1_555 1_555
H10Y C10Y 1_555 1_555
H10LA C10LA 1_555 1_555
H10F C10F 1_555 1_555
H10T C10T 1_555 1_555
H10EA C10EA 1_555 1_555
H10SA C10SA 1_555 1_555
H10I C10I 1_555 1_555
H10R C10R 1_555 1_555
H10FA C10FA 1_555 1_555
H10QA C10QA 1_555 1_555
C11O C10O 1_555 1_555
C11Y C10Y 1_555 1_555
C11LA C10LA 1_555 1_555
C11F C10F 1_555 1_555
C11T C10T 1_555 1_555
C11EA C10EA 1_555 1_555
C11SA C10SA 1_555 1_555
C11I C10I 1_555 1_555
C11R C10R 1_555 1_555
C11FA C10FA 1_555 1_555
C11QA C10QA 1_555 1_555
C12O C11O 1_555 1_555
C12Y C11Y 1_555 1_555
C12LA C11LA 1_555 1_555
C12F C11F 1_555 1_555
C12T C11T 1_555 1_555
C12EA C11EA 1_555 1_555
C12SA C11SA 1_555 1_555
C12I C11I 1_555 1_555
C12R C11R 1_555 1_555
C12FA C11FA 1_555 1_555
C12QA C11QA 1_555 1_555
H11O C12O 1_555 1_555
H11Y C12Y 1_555 1_555
H11LA C12LA 1_555 1_555
H11F C12F 1_555 1_555
H11T C12T 1_555 1_555
H11EA C12EA 1_555 1_555
H11SA C12SA 1_555 1_555
H11I C12I 1_555 1_555
H11R C12R 1_555 1_555
H11FA C12FA 1_555 1_555
H11QA C12QA 1_555 1_555
C13O C12O 1_555 1_555
C13Y C12Y 1_555 1_555
C13LA C12LA 1_555 1_555
C13F C12F 1_555 1_555
C13T C12T 1_555 1_555
C13EA C12EA 1_555 1_555
C13SA C12SA 1_555 1_555
C13I C12I 1_555 1_555
C13R C12R 1_555 1_555
C13FA C12FA 1_555 1_555
C13QA C12QA 1_555 1_555
H12O C13O 1_555 1_555
H12Y C13Y 1_555 1_555
H12LA C13LA 1_555 1_555
H12F C13F 1_555 1_555
H12T C13T 1_555 1_555
H12EA C13EA 1_555 1_555
H12SA C13SA 1_555 1_555
H12I C13I 1_555 1_555
H12R C13R 1_555 1_555
H12FA C13FA 1_555 1_555
H12QA C13QA 1_555 1_555
C14O O2O 1_555 1_555
C14Y O2Y 1_555 1_555
C14LA O2LA 1_555 1_555
C14F O2F 1_555 1_555
C14T O2T 1_555 1_555
C14EA O2EA 1_555 1_555
C14SA O2SA 1_555 1_555
C14I O2I 1_555 1_555
C14R O2R 1_555 1_555
C14FA O2FA 1_555 1_555
C14QA O2QA 1_555 1_555
H13O C14O 1_555 1_555
H13Y C14Y 1_555 1_555
H13LA C14LA 1_555 1_555
H13F C14F 1_555 1_555
H13T C14T 1_555 1_555
H13EA C14EA 1_555 1_555
H13SA C14SA 1_555 1_555
H13I C14I 1_555 1_555
H13R C14R 1_555 1_555
H13FA C14FA 1_555 1_555
H13QA C14QA 1_555 1_555
N2 O5 1_555 1_555
C7 C8 1_555 1_555
C8 C9 1_555 1_555
C13 C14 1_555 1_555
N2F O5F 1_555 1_555
N2I O5I 1_555 1_555
N2O O5O 1_555 1_555
N2S O5S 1_555 1_555
N2W O5W 1_555 1_555
N2Y O5Y 1_555 1_555
N2BA O5BA 1_555 1_555
N2HA O5HA 1_555 1_555
N2LA O5LA 1_555 1_555
N2OA O5OA 1_555 1_555
N2RA O5RA 1_555 1_555
O1F C9F 1_555 1_555
O1I C9I 1_555 1_555
C7O C8O 1_555 1_555
C7Y C8Y 1_555 1_555
C7LA C8LA 1_555 1_555
C7F C8F 1_555 1_555
C7T C8T 1_555 1_555
C7EA C8EA 1_555 1_555
C7SA C8SA 1_555 1_555
C7I C8I 1_555 1_555
C7R C8R 1_555 1_555
C7FA C8FA 1_555 1_555
C7QA C8QA 1_555 1_555
C8O C9O 1_555 1_555
C8Y C9Y 1_555 1_555
C8LA C9LA 1_555 1_555
C8F C9F 1_555 1_555
C8T C9T 1_555 1_555
C8EA C9EA 1_555 1_555
C8SA C9SA 1_555 1_555
C8I C9I 1_555 1_555
C8R C9R 1_555 1_555
C8FA C9FA 1_555 1_555
C8QA C9QA 1_555 1_555
C13O C14O 1_555 1_555
C13Y C14Y 1_555 1_555
C13LA C14LA 1_555 1_555
C13F C14F 1_555 1_555
C13T C14T 1_555 1_555
C13EA C14EA 1_555 1_555
C13SA C14SA 1_555 1_555
C13I C14I 1_555 1_555
C13R C14R 1_555 1_555
C13FA C14FA 1_555 1_555
C13QA C14QA 1_555 1_555

#END
