
#######################################################################
#
#                 Cambridge Crystallographic Data Centre
#                                CCDC 
#
#######################################################################
#
# If this CIF has been generated from an entry in the Cambridge 
# Structural Database, then it will include bibliographic, chemical, 
# crystal, experimental, refinement or atomic coordinate data resulting 
# from the CCDC's data processing and validation procedures.
#
#######################################################################

data_LIKGUJ
_chemical_formula_moiety         'C76 Cu27 O68'
_symmetry_cell_setting           cubic
_symmetry_space_group_name_H-M   'F m -3 m'
_symmetry_Int_Tables_number      225
_space_group_name_Hall           '-F 4 2 3'
loop_
_symmetry_equiv_pos_site_id
_symmetry_equiv_pos_as_xyz
1 x,y,z
2 -x,-y,z
3 -x,y,-z
4 x,-y,-z
5 z,x,y
6 z,-x,-y
7 -z,-x,y
8 -z,x,-y
9 y,z,x
10 -y,z,-x
11 y,-z,-x
12 -y,-z,x
13 y,x,-z
14 -y,-x,-z
15 y,-x,z
16 -y,x,z
17 x,z,-y
18 -x,z,y
19 -x,-z,-y
20 x,-z,y
21 z,y,-x
22 z,-y,x
23 -z,y,x
24 -z,-y,-x
25 x,1/2+y,1/2+z
26 -x,1/2-y,1/2+z
27 -x,1/2+y,1/2-z
28 x,1/2-y,1/2-z
29 z,1/2+x,1/2+y
30 z,1/2-x,1/2-y
31 -z,1/2-x,1/2+y
32 -z,1/2+x,1/2-y
33 y,1/2+z,1/2+x
34 -y,1/2+z,1/2-x
35 y,1/2-z,1/2-x
36 -y,1/2-z,1/2+x
37 y,1/2+x,1/2-z
38 -y,1/2-x,1/2-z
39 y,1/2-x,1/2+z
40 -y,1/2+x,1/2+z
41 x,1/2+z,1/2-y
42 -x,1/2+z,1/2+y
43 -x,1/2-z,1/2-y
44 x,1/2-z,1/2+y
45 z,1/2+y,1/2-x
46 z,1/2-y,1/2+x
47 -z,1/2+y,1/2+x
48 -z,1/2-y,1/2-x
49 1/2+x,y,1/2+z
50 1/2-x,-y,1/2+z
51 1/2-x,y,1/2-z
52 1/2+x,-y,1/2-z
53 1/2+z,x,1/2+y
54 1/2+z,-x,1/2-y
55 1/2-z,-x,1/2+y
56 1/2-z,x,1/2-y
57 1/2+y,z,1/2+x
58 1/2-y,z,1/2-x
59 1/2+y,-z,1/2-x
60 1/2-y,-z,1/2+x
61 1/2+y,x,1/2-z
62 1/2-y,-x,1/2-z
63 1/2+y,-x,1/2+z
64 1/2-y,x,1/2+z
65 1/2+x,z,1/2-y
66 1/2-x,z,1/2+y
67 1/2-x,-z,1/2-y
68 1/2+x,-z,1/2+y
69 1/2+z,y,1/2-x
70 1/2+z,-y,1/2+x
71 1/2-z,y,1/2+x
72 1/2-z,-y,1/2-x
73 1/2+x,1/2+y,z
74 1/2-x,1/2-y,z
75 1/2-x,1/2+y,-z
76 1/2+x,1/2-y,-z
77 1/2+z,1/2+x,y
78 1/2+z,1/2-x,-y
79 1/2-z,1/2-x,y
80 1/2-z,1/2+x,-y
81 1/2+y,1/2+z,x
82 1/2-y,1/2+z,-x
83 1/2+y,1/2-z,-x
84 1/2-y,1/2-z,x
85 1/2+y,1/2+x,-z
86 1/2-y,1/2-x,-z
87 1/2+y,1/2-x,z
88 1/2-y,1/2+x,z
89 1/2+x,1/2+z,-y
90 1/2-x,1/2+z,y
91 1/2-x,1/2-z,-y
92 1/2+x,1/2-z,y
93 1/2+z,1/2+y,-x
94 1/2+z,1/2-y,x
95 1/2-z,1/2+y,x
96 1/2-z,1/2-y,-x
97 -x,-y,-z
98 x,y,-z
99 x,-y,z
100 -x,y,z
101 -z,-x,-y
102 -z,x,y
103 z,x,-y
104 z,-x,y
105 -y,-z,-x
106 y,-z,x
107 -y,z,x
108 y,z,-x
109 -y,-x,z
110 y,x,z
111 -y,x,-z
112 y,-x,-z
113 -x,-z,y
114 x,-z,-y
115 x,z,y
116 -x,z,-y
117 -z,-y,x
118 -z,y,-x
119 z,-y,-x
120 z,y,x
121 -x,1/2-y,1/2-z
122 x,1/2+y,1/2-z
123 x,1/2-y,1/2+z
124 -x,1/2+y,1/2+z
125 -z,1/2-x,1/2-y
126 -z,1/2+x,1/2+y
127 z,1/2+x,1/2-y
128 z,1/2-x,1/2+y
129 -y,1/2-z,1/2-x
130 y,1/2-z,1/2+x
131 -y,1/2+z,1/2+x
132 y,1/2+z,1/2-x
133 -y,1/2-x,1/2+z
134 y,1/2+x,1/2+z
135 -y,1/2+x,1/2-z
136 y,1/2-x,1/2-z
137 -x,1/2-z,1/2+y
138 x,1/2-z,1/2-y
139 x,1/2+z,1/2+y
140 -x,1/2+z,1/2-y
141 -z,1/2-y,1/2+x
142 -z,1/2+y,1/2-x
143 z,1/2-y,1/2-x
144 z,1/2+y,1/2+x
145 1/2-x,-y,1/2-z
146 1/2+x,y,1/2-z
147 1/2+x,-y,1/2+z
148 1/2-x,y,1/2+z
149 1/2-z,-x,1/2-y
150 1/2-z,x,1/2+y
151 1/2+z,x,1/2-y
152 1/2+z,-x,1/2+y
153 1/2-y,-z,1/2-x
154 1/2+y,-z,1/2+x
155 1/2-y,z,1/2+x
156 1/2+y,z,1/2-x
157 1/2-y,-x,1/2+z
158 1/2+y,x,1/2+z
159 1/2-y,x,1/2-z
160 1/2+y,-x,1/2-z
161 1/2-x,-z,1/2+y
162 1/2+x,-z,1/2-y
163 1/2+x,z,1/2+y
164 1/2-x,z,1/2-y
165 1/2-z,-y,1/2+x
166 1/2-z,y,1/2-x
167 1/2+z,-y,1/2-x
168 1/2+z,y,1/2+x
169 1/2-x,1/2-y,-z
170 1/2+x,1/2+y,-z
171 1/2+x,1/2-y,z
172 1/2-x,1/2+y,z
173 1/2-z,1/2-x,-y
174 1/2-z,1/2+x,y
175 1/2+z,1/2+x,-y
176 1/2+z,1/2-x,y
177 1/2-y,1/2-z,-x
178 1/2+y,1/2-z,x
179 1/2-y,1/2+z,x
180 1/2+y,1/2+z,-x
181 1/2-y,1/2-x,z
182 1/2+y,1/2+x,z
183 1/2-y,1/2+x,-z
184 1/2+y,1/2-x,-z
185 1/2-x,1/2-z,y
186 1/2+x,1/2-z,-y
187 1/2+x,1/2+z,y
188 1/2-x,1/2+z,-y
189 1/2-z,1/2-y,x
190 1/2-z,1/2+y,-x
191 1/2+z,1/2-y,-x
192 1/2+z,1/2+y,x
_cell_length_a                   29.8307(6)
_cell_length_b                   29.8307(6)
_cell_length_c                   29.8307(6)
_cell_angle_alpha                90
_cell_angle_beta                 90
_cell_angle_gamma                90
_cell_volume                     26545.5
loop_
_atom_site_label
_atom_site_type_symbol
_atom_site_fract_x
_atom_site_fract_y
_atom_site_fract_z
_atom_site_U_iso_or_equiv
_atom_site_thermal_displace_type
Cu1 Cu 0.2500 0.2500 0.5000 0.4600 Uani
Cu2 Cu 0.19385(11) 0.30615(11) 0.5000 0.3910 Uani
O1 O 0.1688(7) 0.2720(4) 0.4596(6) 0.4920 Uani
O2 O 0.2193(3) 0.2193(3) 0.4563(4) 0.4343 Uani
O3 O 0.1376(2) 0.3624(2) 0.5000 0.8193 Uani
C1 C 0.1813(11) 0.2315(10) 0.4374(6) 0.4493 Uani
C2 C 0.1235(6) 0.2360(10) 0.3765(6) 0.6500 Uani
C3 C 0.1584(5) 0.2121(4) 0.3987(5) 0.2370 Uani
C4 C 0.1752(4) 0.1752(4) 0.3832(8) 0.4263 Uani
C5 C 0.1578(6) 0.1578(6) 0.3422(6) 0.9300 Uani
O1HA O 0.2720(4) 0.0404(6) 0.3312(7) 0.4920 Uani
O2HA O 0.2193(3) 0.0437(4) 0.2807(3) 0.4343 Uani
C1HA C 0.2315(10) 0.0626(6) 0.3187(11) 0.4493 Uani
C2HA C 0.2360(10) 0.1235(6) 0.3765(6) 0.6500 Uani
C3HA C 0.2121(4) 0.1013(5) 0.3416(5) 0.2370 Uani
C4HA C 0.1752(4) 0.1168(8) 0.3248(4) 0.4263 Uani
O1CB O 0.0404(6) 0.1688(7) 0.2280(4) 0.4920 Uani
O2CB O 0.0437(4) 0.2193(3) 0.2807(3) 0.4343 Uani
C1CB C 0.0626(6) 0.1813(11) 0.2685(10) 0.4493 Uani
C2CB C 0.1235(6) 0.1235(6) 0.2640(10) 0.6500 Uani
C3CB C 0.1013(5) 0.1584(5) 0.2879(4) 0.2370 Uani
C4CB C 0.1168(8) 0.1752(4) 0.3248(4) 0.4263 Uani
O1ED O 0.2720(4) 0.1688(7) 0.4596(6) 0.4920 Uani
C1ED C 0.2315(10) 0.1813(11) 0.4374(6) 0.4493 Uani
C3ED C 0.2121(4) 0.1584(5) 0.3987(5) 0.2370 Uani
O1GE O 0.1688(7) 0.0404(6) 0.2280(4) 0.4920 Uani
C1GE C 0.1813(11) 0.0626(6) 0.2685(10) 0.4493 Uani
C3GE C 0.1584(5) 0.1013(5) 0.2879(4) 0.2370 Uani
O1IF O 0.0404(6) 0.2720(4) 0.3312(7) 0.4920 Uani
C1IF C 0.0626(6) 0.2315(10) 0.3187(11) 0.4493 Uani
C3IF C 0.1013(5) 0.2121(4) 0.3416(5) 0.2370 Uani
Cu2L Cu 0.30615(11) 0.19385(11) 0.5000 0.3910 Uani
O1L O 0.2720(4) 0.1688(7) 0.5404(6) 0.4920 Uani
O2L O 0.2193(3) 0.2193(3) 0.5437(4) 0.4343 Uani
O3L O 0.3624(2) 0.1376(2) 0.5000 0.8193 Uani
C1L C 0.2315(10) 0.1813(11) 0.5626(6) 0.4493 Uani
C2L C 0.2360(10) 0.1235(6) 0.6235(6) 0.6500 Uani
C3L C 0.2121(4) 0.1584(5) 0.6013(5) 0.2370 Uani
C4L C 0.1752(4) 0.1752(4) 0.6168(8) 0.4263 Uani
C5L C 0.1578(6) 0.1578(6) 0.6578(6) 0.9300 Uani
O1RB O 0.0404(6) 0.2720(4) 0.6688(7) 0.4920 Uani
O2RB O 0.0437(4) 0.2193(3) 0.7193(3) 0.4343 Uani
C1RB C 0.0626(6) 0.2315(10) 0.6813(11) 0.4493 Uani
C2RB C 0.1235(6) 0.2360(10) 0.6235(6) 0.6500 Uani
C3RB C 0.1013(5) 0.2121(4) 0.6584(5) 0.2370 Uani
C4RB C 0.1168(8) 0.1752(4) 0.6752(4) 0.4263 Uani
O1QA O 0.1688(7) 0.0404(6) 0.7720(4) 0.4920 Uani
O2QA O 0.2193(3) 0.0437(4) 0.7193(3) 0.4343 Uani
C1QA C 0.1813(11) 0.0626(6) 0.7315(10) 0.4493 Uani
C2QA C 0.1235(6) 0.1235(6) 0.7360(10) 0.6500 Uani
C3QA C 0.1584(5) 0.1013(5) 0.7121(4) 0.2370 Uani
C4QA C 0.1752(4) 0.1168(8) 0.6752(4) 0.4263 Uani
O1SC O 0.1688(7) 0.2720(4) 0.5404(6) 0.4920 Uani
C1SC C 0.1813(11) 0.2315(10) 0.5626(6) 0.4493 Uani
C3SC C 0.1584(5) 0.2121(4) 0.6013(5) 0.2370 Uani
O1SE O 0.0404(6) 0.1688(7) 0.7720(4) 0.4920 Uani
C1SE C 0.0626(6) 0.1813(11) 0.7315(10) 0.4493 Uani
C3SE C 0.1013(5) 0.1584(5) 0.7121(4) 0.2370 Uani
O1YD O 0.2720(4) 0.0404(6) 0.6688(7) 0.4920 Uani
C1YD C 0.2315(10) 0.0626(6) 0.6813(11) 0.4493 Uani
C3YD C 0.2121(4) 0.1013(5) 0.6584(5) 0.2370 Uani
Cu1HA Cu 0.2500 -0.0000 0.2500 0.4600 Uani
Cu2NA Cu 0.19385(11) -0.0000 0.19385(11) 0.3910 Uani
O1NA O 0.1688(7) -0.0404(6) 0.2280(4) 0.4920 Uani
O2NA O 0.2193(3) -0.0437(4) 0.2807(3) 0.4343 Uani
O3NA O 0.1376(2) -0.0000 0.1376(2) 0.8193 Uani
C1NA C 0.1813(11) -0.0626(6) 0.2685(10) 0.4493 Uani
C2NA C 0.1235(6) -0.1235(6) 0.2640(10) 0.6500 Uani
C3NA C 0.1584(5) -0.1013(5) 0.2879(4) 0.2370 Uani
C4NA C 0.1752(4) -0.1168(8) 0.3248(4) 0.4263 Uani
C5N C 0.1578(6) -0.1578(6) 0.3422(6) 0.9300 Uani
O1N O 0.2720(4) -0.1688(7) 0.4596(6) 0.4920 Uani
O2N O 0.2193(3) -0.2193(3) 0.4563(4) 0.4343 Uani
C1N C 0.2315(10) -0.1813(11) 0.4374(6) 0.4493 Uani
C2N C 0.2360(10) -0.1235(6) 0.3765(6) 0.6500 Uani
C3N C 0.2121(4) -0.1584(5) 0.3987(5) 0.2370 Uani
C4N C 0.1752(4) -0.1752(4) 0.3832(8) 0.4263 Uani
O1SB O 0.0404(6) -0.2720(4) 0.3312(7) 0.4920 Uani
O2SB O 0.0437(4) -0.2193(3) 0.2807(3) 0.4343 Uani
C1SB C 0.0626(6) -0.2315(10) 0.3187(11) 0.4493 Uani
C2SB C 0.1235(6) -0.2360(10) 0.3765(6) 0.6500 Uani
C3SB C 0.1013(5) -0.2121(4) 0.3416(5) 0.2370 Uani
C4SB C 0.1168(8) -0.1752(4) 0.3248(4) 0.4263 Uani
O1AE O 0.2720(4) -0.0404(6) 0.3312(7) 0.4920 Uani
C1AE C 0.2315(10) -0.0626(6) 0.3187(11) 0.4493 Uani
C3AE C 0.2121(4) -0.1013(5) 0.3416(5) 0.2370 Uani
O1TC O 0.1688(7) -0.2720(4) 0.4596(6) 0.4920 Uani
C1TC C 0.1813(11) -0.2315(10) 0.4374(6) 0.4493 Uani
C3TC C 0.1584(5) -0.2121(4) 0.3987(5) 0.2370 Uani
O1RE O 0.0404(6) -0.1688(7) 0.2280(4) 0.4920 Uani
C1RE C 0.0626(6) -0.1813(11) 0.2685(10) 0.4493 Uani
C3RE C 0.1013(5) -0.1584(5) 0.2879(4) 0.2370 Uani
Cu1FA Cu 0.2500 0.0000 0.7500 0.4600 Uani
Cu2QA Cu 0.19385(11) -0.0000 0.80615(11) 0.3910 Uani
O3QA O 0.1376(2) -0.0000 0.8624(2) 0.8193 Uani
Cu2PB Cu 0.0000 0.30615(11) 0.30615(11) 0.3910 Uani
O1PB O -0.0404(6) 0.2720(4) 0.3312(7) 0.4920 Uani
O2PB O -0.0437(4) 0.2193(3) 0.2807(3) 0.4343 Uani
O3PB O 0.0000 0.3624(2) 0.3624(2) 0.8193 Uani
C1PB C -0.0626(6) 0.2315(10) 0.3187(11) 0.4493 Uani
C2PB C -0.1235(6) 0.2360(10) 0.3765(6) 0.6500 Uani
C3PB C -0.1013(5) 0.2121(4) 0.3416(5) 0.2370 Uani
C4PB C -0.1168(8) 0.1752(4) 0.3248(4) 0.4263 Uani
C5O C -0.1578(6) 0.1578(6) 0.3422(6) 0.9300 Uani
O1PA O -0.1688(7) 0.0404(6) 0.2280(4) 0.4920 Uani
O2PA O -0.2193(3) 0.0437(4) 0.2807(3) 0.4343 Uani
C1PA C -0.1813(11) 0.0626(6) 0.2685(10) 0.4493 Uani
C2PA C -0.1235(6) 0.1235(6) 0.2640(10) 0.6500 Uani
C3PA C -0.1584(5) 0.1013(5) 0.2879(4) 0.2370 Uani
C4PA C -0.1752(4) 0.1168(8) 0.3248(4) 0.4263 Uani
O1O O -0.2720(4) 0.1688(7) 0.4596(6) 0.4920 Uani
O2O O -0.2193(3) 0.2193(3) 0.4563(4) 0.4343 Uani
C1O C -0.2315(10) 0.1813(11) 0.4374(6) 0.4493 Uani
C2O C -0.2360(10) 0.1235(6) 0.3765(6) 0.6500 Uani
C3O C -0.2121(4) 0.1584(5) 0.3987(5) 0.2370 Uani
C4O C -0.1752(4) 0.1752(4) 0.3832(8) 0.4263 Uani
O1TE O -0.0404(6) 0.1688(7) 0.2280(4) 0.4920 Uani
C1TE C -0.0626(6) 0.1813(11) 0.2685(10) 0.4493 Uani
C3TE C -0.1013(5) 0.1584(5) 0.2879(4) 0.2370 Uani
O1XD O -0.2720(4) 0.0404(6) 0.3312(7) 0.4920 Uani
C1XD C -0.2315(10) 0.0626(6) 0.3187(11) 0.4493 Uani
C3XD C -0.2121(4) 0.1013(5) 0.3416(5) 0.2370 Uani
O1UC O -0.1688(7) 0.2720(4) 0.4596(6) 0.4920 Uani
C1UC C -0.1813(11) 0.2315(10) 0.4374(6) 0.4493 Uani
C3UC C -0.1584(5) 0.2121(4) 0.3987(5) 0.2370 Uani
Cu2RB Cu 0.0000 0.30615(11) 0.69385(11) 0.3910 Uani
O3RB O -0.0000 0.3624(2) 0.6376(2) 0.8193 Uani
Cu1B Cu -0.2500 0.2500 0.5000 0.4600 Uani
Cu1C Cu 0.2500 -0.2500 0.5000 0.4600 Uani
Cu1GA Cu -0.2500 -0.0000 0.2500 0.4600 Uani
Cu1ZA Cu 0.0000 0.2500 0.7500 0.4600 Uani
Cu1AB Cu 0.0000 -0.2500 0.2500 0.4600 Uani
Cu1CB Cu -0.0000 0.2500 0.2500 0.4600 Uani
Cu2B Cu -0.19385(11) 0.30615(11) 0.5000 0.3910 Uani
Cu2C Cu 0.19385(11) -0.30615(11) 0.5000 0.3910 Uani
Cu2N Cu 0.30615(11) -0.19385(11) 0.5000 0.3910 Uani
Cu2O Cu -0.30615(11) 0.19385(11) 0.5000 0.3910 Uani
Cu2FA Cu 0.30615(11) -0.0000 0.69385(11) 0.3910 Uani
Cu2GA Cu -0.30615(11) -0.0000 0.30615(11) 0.3910 Uani
Cu2HA Cu 0.30615(11) -0.0000 0.30615(11) 0.3910 Uani
Cu2PA Cu -0.19385(11) -0.0000 0.19385(11) 0.3910 Uani
Cu2ZA Cu -0.0000 0.19385(11) 0.80615(11) 0.3910 Uani
Cu2AB Cu 0.0000 -0.19385(11) 0.19385(11) 0.3910 Uani
Cu2CB Cu -0.0000 0.19385(11) 0.19385(11) 0.3910 Uani
Cu2SB Cu 0.0000 -0.30615(11) 0.30615(11) 0.3910 Uani
O1FA O 0.2720(4) -0.0404(6) 0.6688(7) 0.4920 Uani
O1UB O 0.3312(7) 0.2280(4) 0.4596(6) 0.4920 Uani
O1YB O -0.0404(6) 0.3312(7) 0.7280(4) 0.4920 Uani
O1ZB O 0.0404(6) 0.3312(7) 0.2720(4) 0.4920 Uani
O1CC O 0.2280(4) -0.0404(6) 0.8312(7) 0.4920 Uani
O1EC O 0.2280(4) 0.0404(6) 0.1688(7) 0.4920 Uani
O1GC O 0.2280(4) 0.3312(7) 0.5404(6) 0.4920 Uani
O1KC O 0.3312(7) -0.0404(6) 0.2720(4) 0.4920 Uani
O1LC O 0.3312(7) 0.0404(6) 0.7280(4) 0.4920 Uani
O1HE O 0.1688(7) -0.0404(6) 0.7720(4) 0.4920 Uani
O1KF O -0.0404(6) 0.2720(4) 0.6688(7) 0.4920 Uani
O1LF O 0.3312(7) 0.2280(4) 0.5404(6) 0.4920 Uani
O1PF O 0.0404(6) 0.3312(7) 0.7280(4) 0.4920 Uani
O1SF O -0.0404(6) 0.3312(7) 0.2720(4) 0.4920 Uani
O1TF O 0.2280(4) 0.0404(6) 0.8312(7) 0.4920 Uani
O1VF O 0.2280(4) -0.0404(6) 0.1688(7) 0.4920 Uani
O1XF O 0.2280(4) 0.3312(7) 0.4596(6) 0.4920 Uani
O1BG O 0.3312(7) 0.0404(6) 0.2720(4) 0.4920 Uani
O1EG O 0.3312(7) -0.0404(6) 0.7280(4) 0.4920 Uani
O2FA O 0.2193(3) -0.0437(4) 0.7193(3) 0.4343 Uani
O2UB O 0.2807(3) 0.2807(3) 0.4563(4) 0.4343 Uani
O2CC O 0.2807(3) -0.0437(4) 0.7807(3) 0.4343 Uani
O2EC O 0.2807(3) 0.0437(4) 0.2193(3) 0.4343 Uani
O2GC O 0.2807(3) 0.2807(3) 0.5437(4) 0.4343 Uani
O2KC O 0.2807(3) -0.0437(4) 0.2193(3) 0.4343 Uani
O2LC O 0.2807(3) 0.0437(4) 0.7807(3) 0.4343 Uani
loop_
_atom_site_aniso_label
_atom_site_aniso_U_11
_atom_site_aniso_U_22
_atom_site_aniso_U_33
_atom_site_aniso_U_23
_atom_site_aniso_U_13
_atom_site_aniso_U_12
Cu1 0.492(5) 0.492(5) 0.396(6) 0.000 0.000 -0.033(6)
Cu2 0.387(4) 0.387(4) 0.399(7) 0.000 0.000 0.040(5)
O1 0.60(2) 0.386(14) 0.49(2) -0.085(10) -0.113(15) -0.028(15)
O2 0.467(11) 0.467(11) 0.369(11) -0.104(5) -0.104(5) -0.101(11)
O3 0.769(19) 0.769(19) 0.92(4) 0.000 0.000 0.13(3)
C1 0.48(3) 0.61(4) 0.258(12) -0.066(15) -0.133(15) -0.22(3)
C2 0.67(3) 0.61(4) 0.67(3) -0.10(2) 0.13(4) 0.10(2)
C3 0.241(13) 0.195(10) 0.275(13) 0.045(9) 0.037(9) 0.120(9)
C4 0.375(9) 0.375(9) 0.529(17) 0.133(9) 0.133(9) 0.188(10)
C5 0.93(13) 0.93(13) 0.93(13) 0.34(7) 0.34(7) -0.34(7)
O1HA 0.386 0.49 0.6 -0.113 0.028 0.085
O2HA 0.467 0.369 0.467 -0.104 0.101 0.104
C1HA 0.61 0.258 0.48 -0.133 0.22 0.066
C2HA 0.61 0.67 0.67 0.13 -0.1 0.1
C3HA 0.195 0.275 0.241 0.037 -0.12 -0.045
C4HA 0.375 0.529 0.375 0.133 -0.188 -0.133
O1CB 0.49 0.6 0.386 0.028 -0.085 0.113
O2CB 0.369 0.467 0.467 0.101 -0.104 0.104
C1CB 0.258 0.48 0.61 0.22 -0.066 0.133
C2CB 0.67 0.67 0.61 -0.1 -0.1 -0.13
C3CB 0.275 0.241 0.195 -0.12 0.045 -0.037
C4CB 0.529 0.375 0.375 -0.188 0.133 -0.133
O1ED 0.386 0.6 0.49 -0.113 -0.085 -0.028
C1ED 0.61 0.48 0.258 -0.133 -0.066 -0.22
C3ED 0.195 0.241 0.275 0.037 0.045 0.12
O1GE 0.6 0.49 0.386 -0.085 0.028 0.113
C1GE 0.48 0.258 0.61 -0.066 0.22 0.133
C3GE 0.241 0.275 0.195 0.045 -0.12 -0.037
O1IF 0.49 0.386 0.6 0.028 -0.113 0.085
C1IF 0.258 0.61 0.48 0.22 -0.133 0.066
C3IF 0.275 0.195 0.241 -0.12 0.037 -0.045
Cu2L 0.387 0.387 0.399 0 0 0.04
O1L 0.386 0.6 0.49 0.113 0.085 -0.028
O2L 0.467 0.467 0.369 0.104 0.104 -0.101
O3L 0.769 0.769 0.92 0 0 0.13
C1L 0.61 0.48 0.258 0.133 0.066 -0.22
C2L 0.61 0.67 0.67 -0.13 0.1 0.1
C3L 0.195 0.241 0.275 -0.037 -0.045 0.12
C4L 0.375 0.375 0.529 -0.133 -0.133 0.188
C5L 0.93 0.93 0.93 -0.34 -0.34 -0.34
O1RB 0.49 0.386 0.6 -0.028 0.113 0.085
O2RB 0.369 0.467 0.467 -0.101 0.104 0.104
C1RB 0.258 0.61 0.48 -0.22 0.133 0.066
C2RB 0.67 0.61 0.67 0.1 -0.13 0.1
C3RB 0.275 0.195 0.241 0.12 -0.037 -0.045
C4RB 0.529 0.375 0.375 0.188 -0.133 -0.133
O1QA 0.6 0.49 0.386 0.085 -0.028 0.113
O2QA 0.467 0.369 0.467 0.104 -0.101 0.104
C1QA 0.48 0.258 0.61 0.066 -0.22 0.133
C2QA 0.67 0.67 0.61 0.1 0.1 -0.13
C3QA 0.241 0.275 0.195 -0.045 0.12 -0.037
C4QA 0.375 0.529 0.375 -0.133 0.188 -0.133
O1SC 0.6 0.386 0.49 0.085 0.113 -0.028
C1SC 0.48 0.61 0.258 0.066 0.133 -0.22
C3SC 0.241 0.195 0.275 -0.045 -0.037 0.12
O1SE 0.49 0.6 0.386 -0.028 0.085 0.113
C1SE 0.258 0.48 0.61 -0.22 0.066 0.133
C3SE 0.275 0.241 0.195 0.12 -0.045 -0.037
O1YD 0.386 0.49 0.6 0.113 -0.028 0.085
C1YD 0.61 0.258 0.48 0.133 -0.22 0.066
C3YD 0.195 0.275 0.241 -0.037 0.12 -0.045
Cu1HA 0.492 0.396 0.492 0 0.033 0
Cu2NA 0.387 0.399 0.387 0 -0.04 0
O1NA 0.6 0.49 0.386 0.085 0.028 -0.113
O2NA 0.467 0.369 0.467 0.104 0.101 -0.104
O3NA 0.769 0.92 0.769 0 -0.13 0
C1NA 0.48 0.258 0.61 0.066 0.22 -0.133
C2NA 0.67 0.67 0.61 0.1 -0.1 0.13
C3NA 0.241 0.275 0.195 -0.045 -0.12 0.037
C4NA 0.375 0.529 0.375 -0.133 -0.188 0.133
C5N 0.93 0.93 0.93 -0.34 0.34 0.34
O1N 0.386 0.6 0.49 0.113 -0.085 0.028
O2N 0.467 0.467 0.369 0.104 -0.104 0.101
C1N 0.61 0.48 0.258 0.133 -0.066 0.22
C2N 0.61 0.67 0.67 -0.13 -0.1 -0.1
C3N 0.195 0.241 0.275 -0.037 0.045 -0.12
C4N 0.375 0.375 0.529 -0.133 0.133 -0.188
O1SB 0.49 0.386 0.6 -0.028 -0.113 -0.085
O2SB 0.369 0.467 0.467 -0.101 -0.104 -0.104
C1SB 0.258 0.61 0.48 -0.22 -0.133 -0.066
C2SB 0.67 0.61 0.67 0.1 0.13 -0.1
C3SB 0.275 0.195 0.241 0.12 0.037 0.045
C4SB 0.529 0.375 0.375 0.188 0.133 0.133
O1AE 0.386 0.49 0.6 0.113 0.028 -0.085
C1AE 0.61 0.258 0.48 0.133 0.22 -0.066
C3AE 0.195 0.275 0.241 -0.037 -0.12 0.045
O1TC 0.6 0.386 0.49 0.085 -0.113 0.028
C1TC 0.48 0.61 0.258 0.066 -0.133 0.22
C3TC 0.241 0.195 0.275 -0.045 0.037 -0.12
O1RE 0.49 0.6 0.386 -0.028 -0.085 -0.113
C1RE 0.258 0.48 0.61 -0.22 -0.066 -0.133
C3RE 0.275 0.241 0.195 0.12 0.045 0.037
Cu1FA 0.492 0.396 0.492 0 -0.033 0
Cu2QA 0.387 0.399 0.387 0 0.04 0
O3QA 0.769 0.92 0.769 0 0.13 0
Cu2PB 0.399 0.387 0.387 -0.04 0 0
O1PB 0.49 0.386 0.6 0.028 0.113 -0.085
O2PB 0.369 0.467 0.467 0.101 0.104 -0.104
O3PB 0.92 0.769 0.769 -0.13 0 0
C1PB 0.258 0.61 0.48 0.22 0.133 -0.066
C2PB 0.67 0.61 0.67 -0.1 -0.13 -0.1
C3PB 0.275 0.195 0.241 -0.12 -0.037 0.045
C4PB 0.529 0.375 0.375 -0.188 -0.133 0.133
C5O 0.93 0.93 0.93 0.34 -0.34 0.34
O1PA 0.6 0.49 0.386 -0.085 -0.028 -0.113
O2PA 0.467 0.369 0.467 -0.104 -0.101 -0.104
C1PA 0.48 0.258 0.61 -0.066 -0.22 -0.133
C2PA 0.67 0.67 0.61 -0.1 0.1 0.13
C3PA 0.241 0.275 0.195 0.045 0.12 0.037
C4PA 0.375 0.529 0.375 0.133 0.188 0.133
O1O 0.386 0.6 0.49 -0.113 0.085 0.028
O2O 0.467 0.467 0.369 -0.104 0.104 0.101
C1O 0.61 0.48 0.258 -0.133 0.066 0.22
C2O 0.61 0.67 0.67 0.13 0.1 -0.1
C3O 0.195 0.241 0.275 0.037 -0.045 -0.12
C4O 0.375 0.375 0.529 0.133 -0.133 -0.188
O1TE 0.49 0.6 0.386 0.028 0.085 -0.113
C1TE 0.258 0.48 0.61 0.22 0.066 -0.133
C3TE 0.275 0.241 0.195 -0.12 -0.045 0.037
O1XD 0.386 0.49 0.6 -0.113 -0.028 -0.085
C1XD 0.61 0.258 0.48 -0.133 -0.22 -0.066
C3XD 0.195 0.275 0.241 0.037 0.12 0.045
O1UC 0.6 0.386 0.49 -0.085 0.113 0.028
C1UC 0.48 0.61 0.258 -0.066 0.133 0.22
C3UC 0.241 0.195 0.275 0.045 -0.037 -0.12
Cu2RB 0.399 0.387 0.387 0.04 0 0
O3RB 0.92 0.769 0.769 0.13 0 0
Cu1B 0.492 0.492 0.396 0 0 0.033
Cu1C 0.492 0.492 0.396 0 0 0.033
Cu1GA 0.492 0.396 0.492 0 -0.033 0
Cu1ZA 0.396 0.492 0.492 -0.033 0 0
Cu1AB 0.396 0.492 0.492 -0.033 0 0
Cu1CB 0.396 0.492 0.492 0.033 0 0
Cu2B 0.387 0.387 0.399 0 0 -0.04
Cu2C 0.387 0.387 0.399 0 0 -0.04
Cu2N 0.387 0.387 0.399 0 0 -0.04
Cu2O 0.387 0.387 0.399 0 0 -0.04
Cu2FA 0.387 0.399 0.387 0 0.04 0
Cu2GA 0.387 0.399 0.387 0 0.04 0
Cu2HA 0.387 0.399 0.387 0 -0.04 0
Cu2PA 0.387 0.399 0.387 0 0.04 0
Cu2ZA 0.399 0.387 0.387 0.04 0 0
Cu2AB 0.399 0.387 0.387 0.04 0 0
Cu2CB 0.399 0.387 0.387 -0.04 0 0
Cu2SB 0.399 0.387 0.387 0.04 0 0
O1FA 0.386 0.49 0.6 -0.113 -0.028 -0.085
O1UB 0.6 0.386 0.49 0.085 0.113 -0.028
O1YB 0.49 0.6 0.386 -0.028 0.085 0.113
O1ZB 0.49 0.6 0.386 0.028 0.085 -0.113
O1CC 0.386 0.49 0.6 0.113 -0.028 0.085
O1EC 0.386 0.49 0.6 0.113 0.028 -0.085
O1GC 0.386 0.6 0.49 -0.113 -0.085 -0.028
O1KC 0.6 0.49 0.386 -0.085 0.028 0.113
O1LC 0.6 0.49 0.386 -0.085 -0.028 -0.113
O1HE 0.6 0.49 0.386 -0.085 -0.028 -0.113
O1KF 0.49 0.386 0.6 -0.028 -0.113 -0.085
O1LF 0.6 0.386 0.49 -0.085 -0.113 -0.028
O1PF 0.49 0.6 0.386 -0.028 -0.085 -0.113
O1SF 0.49 0.6 0.386 0.028 -0.085 0.113
O1TF 0.386 0.49 0.6 -0.113 -0.028 -0.085
O1VF 0.386 0.49 0.6 -0.113 0.028 0.085
O1XF 0.386 0.6 0.49 0.113 0.085 -0.028
O1BG 0.6 0.49 0.386 0.085 0.028 -0.113
O1EG 0.6 0.49 0.386 0.085 -0.028 0.113
O2FA 0.467 0.369 0.467 -0.104 -0.101 -0.104
O2UB 0.467 0.467 0.369 0.104 0.104 -0.101
O2CC 0.467 0.369 0.467 0.104 -0.101 0.104
O2EC 0.467 0.369 0.467 0.104 0.101 -0.104
O2GC 0.467 0.467 0.369 -0.104 -0.104 -0.101
O2KC 0.467 0.369 0.467 -0.104 0.101 0.104
O2LC 0.467 0.369 0.467 -0.104 -0.101 -0.104
loop_
_geom_bond_atom_site_label_1
_geom_bond_atom_site_label_2
_geom_bond_site_symmetry_1
_geom_bond_site_symmetry_2
Cu1 Cu2 1_555 1_555
Cu2 O1 1_555 1_555
O1 Cu1 1_555 1_555
O2 Cu1 1_555 1_555
O3 Cu2 1_555 1_555
C1 O1 1_555 1_555
C2 C3 1_555 1_555
C3 C1 1_555 1_555
C4 C3 1_555 1_555
C5 C4 1_555 1_555
O1HA C1HA 1_555 1_555
O2HA C1HA 1_555 1_555
C1HA C3HA 1_555 1_555
C2HA C3HA 1_555 1_555
C3HA C4HA 1_555 1_555
C4HA C5 1_555 1_555
O1CB C1CB 1_555 1_555
O2CB C1CB 1_555 1_555
C1CB C3CB 1_555 1_555
C2CB C3CB 1_555 1_555
C3CB C4CB 1_555 1_555
C4CB C5 1_555 1_555
O1ED Cu1 1_555 1_555
C1ED O2 1_555 1_555
C3ED C4 1_555 1_555
O1GE C1GE 1_555 1_555
C1GE O2HA 1_555 1_555
C3GE C4HA 1_555 1_555
O1IF C1IF 1_555 1_555
C1IF O2CB 1_555 1_555
C3IF C2 1_555 1_555
Cu2L Cu1 1_555 1_555
O1L Cu1 1_555 1_555
O2L Cu1 1_555 1_555
O3L Cu2L 1_555 1_555
C1L O1L 1_555 1_555
C2L C3L 1_555 1_555
C3L C1L 1_555 1_555
C4L C3L 1_555 1_555
C5L C4L 1_555 1_555
O1RB C1RB 1_555 1_555
O2RB C1RB 1_555 1_555
C1RB C3RB 1_555 1_555
C2RB C3RB 1_555 1_555
C3RB C4RB 1_555 1_555
C4RB C5L 1_555 1_555
O1QA C1QA 1_555 1_555
O2QA C1QA 1_555 1_555
C1QA C3QA 1_555 1_555
C2QA C3QA 1_555 1_555
C3QA C4QA 1_555 1_555
C4QA C5L 1_555 1_555
O1SC Cu1 1_555 1_555
C1SC O2L 1_555 1_555
C3SC C4L 1_555 1_555
O1SE C1SE 1_555 1_555
C1SE O2RB 1_555 1_555
C3SE C4RB 1_555 1_555
O1YD C1YD 1_555 1_555
C1YD O2QA 1_555 1_555
C3YD C2L 1_555 1_555
Cu1HA O1HA 1_555 1_555
Cu2NA O1GE 1_555 1_555
O1NA Cu1HA 1_555 1_555
O2NA Cu1HA 1_555 1_555
O3NA Cu2NA 1_555 1_555
C1NA O1NA 1_555 1_555
C2NA C3NA 1_555 1_555
C3NA C1NA 1_555 1_555
C4NA C3NA 1_555 1_555
C5N C4NA 1_555 1_555
O1N C1N 1_555 1_555
O2N C1N 1_555 1_555
C1N C3N 1_555 1_555
C2N C3N 1_555 1_555
C3N C4N 1_555 1_555
C4N C5N 1_555 1_555
O1SB C1SB 1_555 1_555
O2SB C1SB 1_555 1_555
C1SB C3SB 1_555 1_555
C2SB C3SB 1_555 1_555
C3SB C4SB 1_555 1_555
C4SB C5N 1_555 1_555
O1AE Cu1HA 1_555 1_555
C1AE O2NA 1_555 1_555
C3AE C4NA 1_555 1_555
O1TC C1TC 1_555 1_555
C1TC O2N 1_555 1_555
C3TC C4N 1_555 1_555
O1RE C1RE 1_555 1_555
C1RE O2SB 1_555 1_555
C3RE C2NA 1_555 1_555
Cu1FA O1QA 1_555 1_555
Cu2QA O1QA 1_555 1_555
O3QA Cu2QA 1_555 1_555
Cu2PB O1IF 1_555 1_555
O1PB Cu2PB 1_555 1_555
O2PB C1PB 1_555 1_555
O3PB Cu2PB 1_555 1_555
C1PB O1PB 1_555 1_555
C2PB C3PB 1_555 1_555
C3PB C1PB 1_555 1_555
C4PB C3PB 1_555 1_555
C5O C4PB 1_555 1_555
O1PA C1PA 1_555 1_555
O2PA C1PA 1_555 1_555
C1PA C3PA 1_555 1_555
C2PA C3PA 1_555 1_555
C3PA C4PA 1_555 1_555
C4PA C5O 1_555 1_555
O1O C1O 1_555 1_555
O2O C1O 1_555 1_555
C1O C3O 1_555 1_555
C2O C3O 1_555 1_555
C3O C4O 1_555 1_555
C4O C5O 1_555 1_555
O1TE C1TE 1_555 1_555
C1TE O2PB 1_555 1_555
C3TE C4PB 1_555 1_555
O1XD C1XD 1_555 1_555
C1XD O2PA 1_555 1_555
C3XD C4PA 1_555 1_555
O1UC C1UC 1_555 1_555
C1UC O2O 1_555 1_555
C3UC C2PB 1_555 1_555
Cu2RB O1RB 1_555 1_555
O3RB Cu2RB 1_555 1_555
Cu1B O1O 1_555 1_555
Cu1C O1N 1_555 1_555
Cu1GA O1PA 1_555 1_555
Cu1ZA O1RB 1_555 1_555
Cu1AB O1SB 1_555 1_555
Cu1CB O1CB 1_555 1_555
Cu2B O1UC 1_555 1_555
Cu2C O1TC 1_555 1_555
Cu2N O1N 1_555 1_555
Cu2O O1O 1_555 1_555
Cu2FA O1YD 1_555 1_555
Cu2GA O1XD 1_555 1_555
Cu2HA O1HA 1_555 1_555
Cu2PA O1PA 1_555 1_555
Cu2ZA O1SE 1_555 1_555
Cu2AB O1RE 1_555 1_555
Cu2CB O1CB 1_555 1_555
Cu2SB O1SB 1_555 1_555
O1FA Cu1FA 1_555 1_555
O1UB Cu1 1_555 1_555
O1YB Cu2RB 1_555 1_555
O1ZB Cu2PB 1_555 1_555
O1CC Cu1FA 1_555 1_555
O1EC Cu1HA 1_555 1_555
O1GC Cu1 1_555 1_555
O1KC Cu1HA 1_555 1_555
O1LC Cu1FA 1_555 1_555
O1HE Cu1FA 1_555 1_555
O1KF Cu2RB 1_555 1_555
O1LF Cu1 1_555 1_555
O1PF Cu2RB 1_555 1_555
O1SF Cu2PB 1_555 1_555
O1TF Cu1FA 1_555 1_555
O1VF Cu1HA 1_555 1_555
O1XF Cu1 1_555 1_555
O1BG Cu1HA 1_555 1_555
O1EG Cu1FA 1_555 1_555
O2FA Cu1FA 1_555 1_555
O2UB Cu1 1_555 1_555
O2CC Cu1FA 1_555 1_555
O2EC Cu1HA 1_555 1_555
O2GC Cu1 1_555 1_555
O2KC Cu1HA 1_555 1_555
O2LC Cu1FA 1_555 1_555
Cu2 O1SC 1_555 1_555
Cu2 O1GC 1_555 1_555
Cu2 O1XF 1_555 1_555
O2 C1 1_555 1_555
O2HA Cu1HA 1_555 1_555
C2HA C3ED 1_555 1_555
O2CB Cu1CB 1_555 1_555
C2CB C3GE 1_555 1_555
C4CB C3IF 1_555 1_555
O1ED C1ED 1_555 1_555
O1ED Cu2L 1_555 1_555
C1ED C3ED 1_555 1_555
O1GE Cu1HA 1_555 1_555
C1GE C3GE 1_555 1_555
O1IF Cu1CB 1_555 1_555
C1IF C3IF 1_555 1_555
Cu2L O1L 1_555 1_555
Cu2L O1UB 1_555 1_555
Cu2L O1LF 1_555 1_555
O2L C1L 1_555 1_555
O2RB Cu1ZA 1_555 1_555
C2RB C3SC 1_555 1_555
O2QA Cu1FA 1_555 1_555
C2QA C3SE 1_555 1_555
C4QA C3YD 1_555 1_555
O1SC C1SC 1_555 1_555
C1SC C3SC 1_555 1_555
O1SE Cu1ZA 1_555 1_555
C1SE C3SE 1_555 1_555
O1YD Cu1FA 1_555 1_555
C1YD C3YD 1_555 1_555
Cu1HA Cu2NA 1_555 1_555
Cu1HA Cu2HA 1_555 1_555
Cu2NA O1NA 1_555 1_555
Cu2NA O1EC 1_555 1_555
Cu2NA O1VF 1_555 1_555
O2NA C1NA 1_555 1_555
O2N Cu1C 1_555 1_555
C2N C3AE 1_555 1_555
O2SB Cu1AB 1_555 1_555
C2SB C3TC 1_555 1_555
C4SB C3RE 1_555 1_555
O1AE C1AE 1_555 1_555
O1AE Cu2HA 1_555 1_555
C1AE C3AE 1_555 1_555
O1TC Cu1C 1_555 1_555
C1TC C3TC 1_555 1_555
O1RE Cu1AB 1_555 1_555
C1RE C3RE 1_555 1_555
Cu1FA Cu2QA 1_555 1_555
Cu1FA Cu2FA 1_555 1_555
Cu2QA O1CC 1_555 1_555
Cu2QA O1HE 1_555 1_555
Cu2QA O1TF 1_555 1_555
Cu2PB Cu1CB 1_555 1_555
O1PB Cu1CB 1_555 1_555
O2PB Cu1CB 1_555 1_555
O2PA Cu1GA 1_555 1_555
C2PA C3TE 1_555 1_555
O2O Cu1B 1_555 1_555
C2O C3XD 1_555 1_555
C4O C3UC 1_555 1_555
O1TE Cu1CB 1_555 1_555
O1TE Cu2CB 1_555 1_555
C1TE C3TE 1_555 1_555
O1XD Cu1GA 1_555 1_555
C1XD C3XD 1_555 1_555
O1UC Cu1B 1_555 1_555
C1UC C3UC 1_555 1_555
Cu2RB Cu1ZA 1_555 1_555
Cu1B Cu2B 1_555 1_555
Cu1B Cu2O 1_555 1_555
Cu1C Cu2C 1_555 1_555
Cu1C Cu2N 1_555 1_555
Cu1GA Cu2GA 1_555 1_555
Cu1GA Cu2PA 1_555 1_555
Cu1ZA Cu2ZA 1_555 1_555
Cu1ZA O1YB 1_555 1_555
Cu1ZA O1KF 1_555 1_555
Cu1ZA O1PF 1_555 1_555
Cu1AB Cu2AB 1_555 1_555
Cu1AB Cu2SB 1_555 1_555
Cu1CB Cu2CB 1_555 1_555
Cu1CB O1ZB 1_555 1_555
Cu1CB O1SF 1_555 1_555
Cu2FA O1FA 1_555 1_555
Cu2FA O1LC 1_555 1_555
Cu2FA O1EG 1_555 1_555
Cu2HA O1KC 1_555 1_555
Cu2HA O1BG 1_555 1_555

#END
