
#######################################################################
#
#                 Cambridge Crystallographic Data Centre
#                                CCDC 
#
#######################################################################
#
# If this CIF has been generated from an entry in the Cambridge 
# Structural Database, then it will include bibliographic, chemical, 
# crystal, experimental, refinement or atomic coordinate data resulting 
# from the CCDC's data processing and validation procedures.
#
#######################################################################

data_RUHFUX
_chemical_formula_moiety         'C15 Cu3 Nd3 O26 S3'
_symmetry_cell_setting           cubic
_symmetry_space_group_name_H-M   'P 21 3'
_symmetry_Int_Tables_number      198
_space_group_name_Hall           'P 2ac 2ab 3'
loop_
_symmetry_equiv_pos_site_id
_symmetry_equiv_pos_as_xyz
1 x,y,z
2 1/2-x,-y,1/2+z
3 -x,1/2+y,1/2-z
4 1/2+x,1/2-y,-z
5 z,x,y
6 1/2+z,1/2-x,-y
7 1/2-z,-x,1/2+y
8 -z,1/2+x,1/2-y
9 y,z,x
10 -y,1/2+z,1/2-x
11 1/2+y,1/2-z,-x
12 1/2-y,-z,1/2+x
_cell_length_a                   17.5154(4)
_cell_length_b                   17.5154(4)
_cell_length_c                   17.5154(4)
_cell_angle_alpha                90
_cell_angle_beta                 90
_cell_angle_gamma                90
_cell_volume                     5373.54
loop_
_atom_site_label
_atom_site_type_symbol
_atom_site_fract_x
_atom_site_fract_y
_atom_site_fract_z
_atom_site_U_iso_or_equiv
_atom_site_thermal_displace_type
C1 C 0.7418(4) 0.9971(4) 0.0145(4) 0.0663 Uani
C2 C 0.7653(3) 0.9128(4) 0.0089(3) 0.0493 Uani
C3 C 0.7909(4) 0.8859(3) 0.0903(4) 0.0543 Uani
C4 C 0.9848(18) 1.037(2) 0.1077(12) 0.1510 Uiso
C5 C 0.984(3) 0.960(5) 0.1241(12) 0.2800 Uiso
O1 O 0.8593(3) 0.8672(3) 0.0979(2) 0.0660 Uani
O2 O 0.7410(2) 0.8869(3) 0.1403(2) 0.0583 Uani
O3 O 0.8218(2) 0.9029(2) -0.0448(2) 0.0507 Uani
O4 O 0.6993(2) 0.8707(2) -0.0076(3) 0.0583 Uani
O5 O 0.6802(3) 1.0083(3) 0.0496(3) 0.0710 Uani
O6 O 0.7801(3) 1.0463(3) -0.0182(3) 0.0757 Uani
O7 O 0.5213(4) 0.9787(4) 0.0213(4) 0.1200 Uiso
O8 O 0.9734(3) 0.9734(3) -0.0266(3) 0.0790 Uiso
S1 S 1.0345(5) 1.0000 0.0276(6) 0.0980 Uiso
Nd1 Nd 0.60324(2) 0.89676(2) 0.10324(2) 0.0532 Uani
Cu1 Cu 0.90772(5) 0.84875(5) 0.00006(4) 0.0597 Uani
C4D C 1.1077(12) 0.9848(18) 0.037(2) 0.1510 Uiso
C5D C 1.1241(12) 0.984(3) -0.040(5) 0.2800 Uiso
S1D S 1.0276(6) 1.0345(5) 0.0000 0.0980 Uiso
C4H C 1.037(2) 1.1077(12) -0.0152(18) 0.1510 Uiso
C5H C 0.960(5) 1.1241(12) -0.016(3) 0.2800 Uiso
S1H S 1.0000 1.0276(6) 0.0345(5) 0.0980 Uiso
C1D C 1.0145(4) 0.7418(4) -0.0029(4) 0.0663 Uani
C2D C 1.0089(3) 0.7653(3) -0.0872(4) 0.0493 Uani
C3D C 1.0903(4) 0.7909(4) -0.1141(3) 0.0543 Uani
O1D O 1.0979(2) 0.8593(3) -0.1328(3) 0.0660 Uani
O2D O 1.1403(2) 0.7410(2) -0.1131(3) 0.0583 Uani
O3D O 0.9552(2) 0.8218(2) -0.0971(2) 0.0507 Uani
O4D O 0.9924(3) 0.6993(2) -0.1293(2) 0.0583 Uani
O5D O 1.0496(3) 0.6802(3) 0.0083(3) 0.0710 Uani
O6D O 0.9818(3) 0.7801(3) 0.0463(3) 0.0757 Uani
Cu1D Cu 1.00006(4) 0.90772(5) -0.15125(5) 0.0597 Uani
C1H C 0.9971(4) 1.0145(4) -0.2582(4) 0.0663 Uani
C2H C 0.9128(4) 1.0089(3) -0.2347(3) 0.0493 Uani
C3H C 0.8859(3) 1.0903(4) -0.2091(4) 0.0543 Uani
O1H O 0.8672(3) 1.0979(2) -0.1407(3) 0.0660 Uani
O2H O 0.8869(3) 1.1403(2) -0.2590(2) 0.0583 Uani
O3H O 0.9029(2) 0.9552(2) -0.1782(2) 0.0507 Uani
O4H O 0.8707(2) 0.9924(3) -0.3007(2) 0.0583 Uani
O5H O 1.0083(3) 1.0496(3) -0.3198(3) 0.0710 Uani
O6H O 1.0463(3) 0.9818(3) -0.2199(3) 0.0757 Uani
Cu1H Cu 0.84875(5) 1.00006(4) -0.09228(5) 0.0597 Uani
O2E O 0.6403(2) 0.7590(2) 0.1131(3) 0.0583 Uani
O2K O 0.6131(3) 0.8597(2) 0.2410(2) 0.0583 Uani
O4E O 0.4924(3) 0.8007(2) 0.1293(2) 0.0583 Uani
O4K O 0.6293(2) 1.0076(3) 0.1993(2) 0.0583 Uani
O5E O 0.5496(3) 0.8198(3) -0.0083(3) 0.0710 Uani
O5K O 0.4917(3) 0.9504(3) 0.1802(3) 0.0710 Uani
Nd1A Nd 0.89676(2) 1.10324(2) -0.39676(2) 0.0532 Uani
Nd1C Nd 1.10324(2) 0.60324(2) -0.10324(2) 0.0532 Uani
loop_
_atom_site_aniso_label
_atom_site_aniso_U_11
_atom_site_aniso_U_22
_atom_site_aniso_U_33
_atom_site_aniso_U_23
_atom_site_aniso_U_13
_atom_site_aniso_U_12
C1 0.073(4) 0.055(4) 0.071(4) 0.004(3) 0.042(4) 0.014(3)
C2 0.043(3) 0.063(4) 0.042(3) 0.007(2) 0.002(2) -0.009(2)
C3 0.053(3) 0.050(3) 0.060(4) -0.002(3) -0.006(3) 0.002(3)
O1 0.061(3) 0.091(3) 0.046(2) 0.002(2) 0.005(2) 0.016(2)
O2 0.052(2) 0.076(3) 0.047(2) 0.001(2) 0.0021(18) -0.004(2)
O3 0.066(3) 0.040(2) 0.046(2) 0.0054(17) 0.0108(17) 0.0040(18)
O4 0.052(2) 0.060(3) 0.063(3) 0.002(2) -0.002(2) -0.0075(18)
O5 0.071(3) 0.064(3) 0.078(3) -0.001(2) 0.026(2) 0.005(2)
O6 0.083(4) 0.054(3) 0.090(4) 0.005(2) 0.029(3) -0.007(2)
Nd1 0.05315(17) 0.05315(17) 0.05315(17) -0.00209(14) 0.00209(14) -0.00209(14)
Cu1 0.0611(5) 0.0663(5) 0.0516(4) -0.0006(3) 0.0038(4) 0.0155(4)
C1D 0.071 0.073 0.055 0.014 0.004 0.042
C2D 0.042 0.043 0.063 -0.009 0.007 0.002
C3D 0.06 0.053 0.05 0.002 -0.002 -0.006
O1D 0.046 0.061 0.091 0.016 0.002 0.005
O2D 0.047 0.052 0.076 -0.004 0.001 0.0021
O3D 0.046 0.066 0.04 0.004 0.0054 0.0108
O4D 0.063 0.052 0.06 -0.0075 0.002 -0.002
O5D 0.078 0.071 0.064 0.005 -0.001 0.026
O6D 0.09 0.083 0.054 -0.007 0.005 0.029
Cu1D 0.0516 0.0611 0.0663 0.0155 -0.0006 0.0038
C1H 0.055 0.071 0.073 0.042 0.014 0.004
C2H 0.063 0.042 0.043 0.002 -0.009 0.007
C3H 0.05 0.06 0.053 -0.006 0.002 -0.002
O1H 0.091 0.046 0.061 0.005 0.016 0.002
O2H 0.076 0.047 0.052 0.0021 -0.004 0.001
O3H 0.04 0.046 0.066 0.0108 0.004 0.0054
O4H 0.06 0.063 0.052 -0.002 -0.0075 0.002
O5H 0.064 0.078 0.071 0.026 0.005 -0.001
O6H 0.054 0.09 0.083 0.029 -0.007 0.005
Cu1H 0.0663 0.0516 0.0611 0.0038 0.0155 -0.0006
O2E 0.047 0.052 0.076 -0.004 -0.001 -0.0021
O2K 0.076 0.047 0.052 -0.0021 0.004 0.001
O4E 0.063 0.052 0.06 -0.0075 -0.002 0.002
O4K 0.06 0.063 0.052 0.002 0.0075 0.002
O5E 0.078 0.071 0.064 0.005 0.001 -0.026
O5K 0.064 0.078 0.071 -0.026 -0.005 -0.001
Nd1A 0.05315 0.05315 0.05315 0.00209 -0.00209 -0.00209
Nd1C 0.05315 0.05315 0.05315 -0.00209 -0.00209 0.00209
loop_
_geom_bond_atom_site_label_1
_geom_bond_atom_site_label_2
_geom_bond_site_symmetry_1
_geom_bond_site_symmetry_2
C1 C2 1_555 1_555
C2 C3 1_555 1_555
C3 O1 1_555 1_555
C4 C5 1_555 1_555
C5 S1 1_555 1_555
O1 Cu1 1_555 1_555
O2 C3 1_555 1_555
O3 C2 1_555 1_555
O4 C2 1_555 1_555
O5 C1 1_555 1_555
O6 C1 1_555 1_555
O7 Nd1 1_555 1_555
O8 S1 1_555 1_555
S1 C4 1_555 1_555
Nd1 O2 1_555 1_555
Cu1 O3 1_555 1_555
C4D S1 1_555 1_555
C5D S1 1_555 1_555
S1D C4 1_555 1_555
C4H S1 1_555 1_555
C5H S1D 1_555 1_555
S1H C4 1_555 1_555
C1D C2D 1_555 1_555
C2D C3D 1_555 1_555
C3D O1D 1_555 1_555
O1D Cu1D 1_555 1_555
O2D C3D 1_555 1_555
O3D Cu1 1_555 1_555
O4D C2D 1_555 1_555
O5D C1D 1_555 1_555
O6D Cu1 1_555 1_555
Cu1D O8 1_555 1_555
C1H C2H 1_555 1_555
C2H C3H 1_555 1_555
C3H O1H 1_555 1_555
O1H Cu1H 1_555 1_555
O2H C3H 1_555 1_555
O3H Cu1D 1_555 1_555
O4H C2H 1_555 1_555
O5H C1H 1_555 1_555
O6H Cu1D 1_555 1_555
Cu1H O3 1_555 1_555
O2E Nd1 1_555 1_555
O2K Nd1 1_555 1_555
O4E Nd1 1_555 1_555
O4K Nd1 1_555 1_555
O5E Nd1 1_555 1_555
O5K Nd1 1_555 1_555
Nd1A O2H 1_555 1_555
Nd1C O2D 1_555 1_555
C5 S1H 1_555 1_555
O4 Nd1 1_555 1_555
O5 Nd1 1_555 1_555
O6 Cu1H 1_555 1_555
O8 Cu1 1_555 1_555
O8 S1D 1_555 1_555
O8 S1H 1_555 1_555
O8 Cu1H 1_555 1_555
S1 S1D 1_555 1_555
S1 S1H 1_555 1_555
C4D C5D 1_555 1_555
C4D S1D 1_555 1_555
C4D S1H 1_555 1_555
C5D S1D 1_555 1_555
S1D C4H 1_555 1_555
S1D S1H 1_555 1_555
C4H C5H 1_555 1_555
C4H S1H 1_555 1_555
C5H S1H 1_555 1_555
C1D O6D 1_555 1_555
C2D O3D 1_555 1_555
O3D Cu1D 1_555 1_555
O4D Nd1C 1_555 1_555
O5D Nd1C 1_555 1_555
C1H O6H 1_555 1_555
C2H O3H 1_555 1_555
O3H Cu1H 1_555 1_555
O4H Nd1A 1_555 1_555
O5H Nd1A 1_555 1_555

#END
