
#######################################################################
#
#                 Cambridge Crystallographic Data Centre
#                                CCDC 
#
#######################################################################
#
# If this CIF has been generated from an entry in the Cambridge 
# Structural Database, then it will include bibliographic, chemical, 
# crystal, experimental, refinement or atomic coordinate data resulting 
# from the CCDC's data processing and validation procedures.
#
#######################################################################

data_RUHFIL
_chemical_formula_moiety         'C15 Ce1 Cu7 O28 S3'
_symmetry_cell_setting           cubic
_symmetry_space_group_name_H-M   'P 21 3'
_symmetry_Int_Tables_number      198
_space_group_name_Hall           'P 2ac 2ab 3'
loop_
_symmetry_equiv_pos_site_id
_symmetry_equiv_pos_as_xyz
1 x,y,z
2 1/2-x,-y,1/2+z
3 -x,1/2+y,1/2-z
4 1/2+x,1/2-y,-z
5 z,x,y
6 1/2+z,1/2-x,-y
7 1/2-z,-x,1/2+y
8 -z,1/2+x,1/2-y
9 y,z,x
10 -y,1/2+z,1/2-x
11 1/2+y,1/2-z,-x
12 1/2-y,-z,1/2+x
_cell_length_a                   17.6180(2)
_cell_length_b                   17.6180(2)
_cell_length_c                   17.6180(2)
_cell_angle_alpha                90
_cell_angle_beta                 90
_cell_angle_gamma                90
_cell_volume                     5468.52
loop_
_atom_site_label
_atom_site_type_symbol
_atom_site_fract_x
_atom_site_fract_y
_atom_site_fract_z
_atom_site_U_iso_or_equiv
_atom_site_thermal_displace_type
C1 C 0.4870(3) 0.2592(3) 0.4969(3) 0.0623 Uani
C2 C 0.4904(3) 0.2341(3) 0.4132(3) 0.0563 Uani
C3 C 0.4109(3) 0.2084(3) 0.3864(3) 0.0577 Uani
C4 C 0.453(2) -0.1049(8) 0.489(2) 0.2200 Uiso
C5 C 0.3773(10) 0.0276(19) 0.493(3) 0.3667 Uani
O1 O 0.40319(18) 0.1415(2) 0.3672(2) 0.0727 Uani
O2 O 0.54404(16) 0.17705(17) 0.40356(18) 0.0572 Uani
O3 O 0.4789(3) 0.4789(3) 0.4789(3) 0.1320 Uani
O4 O 0.36056(18) 0.25713(19) 0.3874(2) 0.0663 Uani
O5 O 0.50782(19) 0.29930(17) 0.37120(18) 0.0627 Uani
O6 O 0.4506(2) 0.3190(2) 0.5094(2) 0.0803 Uani
O7 O 0.5183(2) 0.2185(2) 0.5457(2) 0.0770 Uani
O8 O 0.5242(2) 0.0242(2) 0.4758(2) 0.0836 Uani
S1 S 0.4671(10) -0.0100 0.5194(10) 0.1940 Uani
Cu1 Cu 0.49998(3) 0.09204(4) 0.34945(4) 0.0645 Uani
Ce1 Ce 0.397264(16) 0.397264(16) 0.397264(16) 0.0561 Uani
C4G C 0.511(2) -0.047(2) 0.6049(8) 0.2200 Uiso
C5G C 0.507(3) -0.1227(10) 0.4724(19) 0.3667 Uani
S1G S 0.4806(10) -0.0329(10) 0.5100 0.1940 Uani
C4J C 0.3951(8) 0.011(2) 0.547(2) 0.2200 Uiso
C5J C 0.5276(19) 0.007(3) 0.6227(10) 0.3667 Uani
S1J S 0.4900 -0.0194(10) 0.5329(10) 0.1940 Uani
C1D C 0.4969(3) 0.4870(3) 0.2592(3) 0.0623 Uani
C2D C 0.4132(3) 0.4904(3) 0.2341(3) 0.0563 Uani
C3D C 0.3864(3) 0.4109(3) 0.2084(3) 0.0577 Uani
O1D O 0.3672(2) 0.40319(18) 0.1415(2) 0.0727 Uani
O2D O 0.40356(18) 0.54404(16) 0.17705(17) 0.0572 Uani
O4D O 0.3874(2) 0.36056(18) 0.25713(19) 0.0663 Uani
O5D O 0.37120(18) 0.50782(19) 0.29930(17) 0.0627 Uani
O6D O 0.5094(2) 0.4506(2) 0.3190(2) 0.0803 Uani
O7D O 0.5457(2) 0.5183(2) 0.2185(2) 0.0770 Uani
Cu1D Cu 0.34945(4) 0.49998(3) 0.09204(4) 0.0645 Uani
C1H C 0.2592(3) 0.4969(3) 0.4870(3) 0.0623 Uani
C2H C 0.2341(3) 0.4132(3) 0.4904(3) 0.0563 Uani
C3H C 0.2084(3) 0.3864(3) 0.4109(3) 0.0577 Uani
O1H O 0.1415(2) 0.3672(2) 0.40319(18) 0.0727 Uani
O2H O 0.17705(17) 0.40356(18) 0.54404(16) 0.0572 Uani
O4H O 0.25713(19) 0.3874(2) 0.36056(18) 0.0663 Uani
O5H O 0.29930(17) 0.37120(18) 0.50782(19) 0.0627 Uani
O6H O 0.3190(2) 0.5094(2) 0.4506(2) 0.0803 Uani
O7H O 0.2185(2) 0.5457(2) 0.5183(2) 0.0770 Uani
Cu1H Cu 0.09204(4) 0.34945(4) 0.49998(3) 0.0645 Uani
O2C O 0.04404(16) 0.32295(17) 0.59644(18) 0.0572 Uani
O2G O 0.59644(18) 0.04404(16) 0.32295(17) 0.0572 Uani
O2K O 0.32295(17) 0.59644(18) 0.04404(16) 0.0572 Uani
O7C O 0.0183(2) 0.2815(2) 0.4543(2) 0.0770 Uani
O7G O 0.4543(2) 0.0183(2) 0.2815(2) 0.0770 Uani
O7K O 0.2815(2) 0.4543(2) 0.0183(2) 0.0770 Uani
O8B O 0.4758(2) 0.5242(2) 0.0242(2) 0.0836 Uani
O8C O 0.0242(2) 0.4758(2) 0.5242(2) 0.0836 Uani
Cu1B Cu 0.50002(3) 0.59204(4) 0.15055(4) 0.0645 Uani
Cu1F Cu 0.15055(4) 0.50002(3) 0.59204(4) 0.0645 Uani
Cu1G Cu 0.65055(4) -0.00002(3) 0.40796(4) 0.0645 Uani
Cu1J Cu 0.59204(4) 0.15055(4) 0.50002(3) 0.0645 Uani
loop_
_atom_site_aniso_label
_atom_site_aniso_U_11
_atom_site_aniso_U_22
_atom_site_aniso_U_33
_atom_site_aniso_U_23
_atom_site_aniso_U_13
_atom_site_aniso_U_12
C1 0.070(3) 0.065(3) 0.052(3) -0.009(3) 0.006(3) 0.026(3)
C2 0.048(3) 0.056(3) 0.065(3) 0.005(2) 0.000(2) 0.004(2)
C3 0.058(3) 0.054(3) 0.061(3) 0.004(2) -0.001(2) -0.002(2)
C5 0.16(4) 0.57(12) 0.37(8) -0.09(7) 0.17(5) -0.13(5)
O1 0.052(2) 0.060(2) 0.106(3) -0.0170(19) -0.0026(19) 0.0036(18)
O2 0.0532(18) 0.066(2) 0.0523(18) -0.0068(17) -0.0034(16) 0.0132(15)
O3 0.132(3) 0.132(3) 0.132(3) -0.032(3) -0.032(3) -0.032(3)
O4 0.0539(19) 0.064(2) 0.081(2) 0.0065(18) 0.0000(19) 0.0054(17)
O5 0.064(2) 0.058(2) 0.066(2) 0.0084(16) 0.0041(16) 0.0017(17)
O6 0.085(3) 0.080(3) 0.076(3) -0.012(2) -0.005(2) 0.025(2)
O7 0.085(3) 0.089(3) 0.057(2) 0.002(2) -0.0069(19) 0.029(2)
O8 0.0836(19) 0.0836(19) 0.0836(19) 0.008(2) 0.008(2) -0.008(2)
S1 0.170(16) 0.276(19) 0.136(12) 0.041(12) 0.012(10) -0.121(16)
Cu1 0.0558(4) 0.0666(4) 0.0711(4) -0.0156(3) 0.0016(3) 0.0037(3)
Ce1 0.05609(14) 0.05609(14) 0.05609(14) 0.00289(14) 0.00289(14) 0.00289(14)
C5G 0.37 0.16 0.57 0.13 -0.09 -0.17
S1G 0.136 0.17 0.276 0.121 0.041 -0.012
C5J 0.57 0.37 0.16 0.17 0.13 0.09
S1J 0.276 0.136 0.17 0.012 0.121 -0.041
C1D 0.052 0.07 0.065 0.026 -0.009 0.006
C2D 0.065 0.048 0.056 0.004 0.005 0
C3D 0.061 0.058 0.054 -0.002 0.004 -0.001
O1D 0.106 0.052 0.06 0.0036 -0.017 -0.0026
O2D 0.0523 0.0532 0.066 0.0132 -0.0068 -0.0034
O4D 0.081 0.0539 0.064 0.0054 0.0065 0
O5D 0.066 0.064 0.058 0.0017 0.0084 0.0041
O6D 0.076 0.085 0.08 0.025 -0.012 -0.005
O7D 0.057 0.085 0.089 0.029 0.002 -0.0069
Cu1D 0.0711 0.0558 0.0666 0.0037 -0.0156 0.0016
C1H 0.065 0.052 0.07 0.006 0.026 -0.009
C2H 0.056 0.065 0.048 0 0.004 0.005
C3H 0.054 0.061 0.058 -0.001 -0.002 0.004
O1H 0.06 0.106 0.052 -0.0026 0.0036 -0.017
O2H 0.066 0.0523 0.0532 -0.0034 0.0132 -0.0068
O4H 0.064 0.081 0.0539 0 0.0054 0.0065
O5H 0.058 0.066 0.064 0.0041 0.0017 0.0084
O6H 0.08 0.076 0.085 -0.005 0.025 -0.012
O7H 0.089 0.057 0.085 -0.0069 0.029 0.002
Cu1H 0.0666 0.0711 0.0558 0.0016 0.0037 -0.0156
O2C 0.0532 0.066 0.0523 -0.0068 0.0034 -0.0132
O2G 0.0523 0.0532 0.066 -0.0132 -0.0068 0.0034
O2K 0.066 0.0523 0.0532 0.0034 -0.0132 -0.0068
O7C 0.085 0.089 0.057 0.002 0.0069 -0.029
O7G 0.057 0.085 0.089 -0.029 0.002 0.0069
O7K 0.089 0.057 0.085 0.0069 -0.029 0.002
O8B 0.0836 0.0836 0.0836 -0.008 0.008 0.008
O8C 0.0836 0.0836 0.0836 0.008 -0.008 0.008
Cu1B 0.0558 0.0666 0.0711 0.0156 0.0016 -0.0037
Cu1F 0.0711 0.0558 0.0666 -0.0037 0.0156 0.0016
Cu1G 0.0711 0.0558 0.0666 -0.0037 -0.0156 -0.0016
Cu1J 0.0666 0.0711 0.0558 0.0016 -0.0037 0.0156
loop_
_geom_bond_atom_site_label_1
_geom_bond_atom_site_label_2
_geom_bond_site_symmetry_1
_geom_bond_site_symmetry_2
C1 C2 1_555 1_555
C2 C3 1_555 1_555
C3 O1 1_555 1_555
C4 S1 1_555 1_555
C5 S1 1_555 1_555
O1 Cu1 1_555 1_555
O2 C2 1_555 1_555
O3 Ce1 1_555 1_555
O4 C3 1_555 1_555
O5 C2 1_555 1_555
O6 C1 1_555 1_555
O7 C1 1_555 1_555
O8 S1 1_555 1_555
S1 C4G 1_555 1_555
Cu1 O2 1_555 1_555
Ce1 O4 1_555 1_555
C4G S1G 1_555 1_555
C5G C4 1_555 1_555
S1G C4 1_555 1_555
C4J C5 1_555 1_555
C5J S1 1_555 1_555
S1J C4 1_555 1_555
C1D C2D 1_555 1_555
C2D C3D 1_555 1_555
C3D O1D 1_555 1_555
O1D Cu1D 1_555 1_555
O2D C2D 1_555 1_555
O4D Ce1 1_555 1_555
O5D Ce1 1_555 1_555
O6D Ce1 1_555 1_555
O7D C1D 1_555 1_555
Cu1D O2D 1_555 1_555
C1H C2H 1_555 1_555
C2H C3H 1_555 1_555
C3H O1H 1_555 1_555
O1H Cu1H 1_555 1_555
O2H C2H 1_555 1_555
O4H Ce1 1_555 1_555
O5H Ce1 1_555 1_555
O6H Ce1 1_555 1_555
O7H C1H 1_555 1_555
Cu1H O2H 1_555 1_555
O2C Cu1H 1_555 1_555
O2G Cu1 1_555 1_555
O2K Cu1D 1_555 1_555
O7C Cu1H 1_555 1_555
O7G Cu1 1_555 1_555
O7K Cu1D 1_555 1_555
O8B Cu1D 1_555 1_555
O8C Cu1H 1_555 1_555
Cu1B O2D 1_555 1_555
Cu1F O2H 1_555 1_555
Cu1G O8 1_555 1_555
Cu1J O2 1_555 1_555
C5 S1G 1_555 1_555
O5 Ce1 1_555 1_555
O6 Ce1 1_555 1_555
O7 Cu1J 1_555 1_555
O8 Cu1 1_555 1_555
O8 S1G 1_555 1_555
O8 S1J 1_555 1_555
O8 Cu1J 1_555 1_555
S1 C4J 1_555 1_555
C4G C5J 1_555 1_555
C4G S1J 1_555 1_555
C5G S1G 1_555 1_555
C5G S1J 1_555 1_555
S1G C4J 1_555 1_555
C4J S1J 1_555 1_555
C5J S1J 1_555 1_555
C1D O6D 1_555 1_555
C2D O5D 1_555 1_555
C3D O4D 1_555 1_555
O7D Cu1B 1_555 1_555
C1H O6H 1_555 1_555
C2H O5H 1_555 1_555
C3H O4H 1_555 1_555
O7H Cu1F 1_555 1_555
O2G Cu1G 1_555 1_555
O8B Cu1B 1_555 1_555
O8C Cu1F 1_555 1_555

#END
