
#######################################################################
#
#                 Cambridge Crystallographic Data Centre
#                                CCDC 
#
#######################################################################
#
# If this CIF has been generated from an entry in the Cambridge 
# Structural Database, then it will include bibliographic, chemical, 
# crystal, experimental, refinement or atomic coordinate data resulting 
# from the CCDC's data processing and validation procedures.
#
#######################################################################

data_RUHFEH
_chemical_formula_moiety         'C17 H6 Cu7 La1 O29 S4'
_symmetry_cell_setting           cubic
_symmetry_space_group_name_H-M   'P 21 3'
_symmetry_Int_Tables_number      198
_space_group_name_Hall           'P 2ac 2ab 3'
loop_
_symmetry_equiv_pos_site_id
_symmetry_equiv_pos_as_xyz
1 x,y,z
2 1/2-x,-y,1/2+z
3 -x,1/2+y,1/2-z
4 1/2+x,1/2-y,-z
5 z,x,y
6 1/2+z,1/2-x,-y
7 1/2-z,-x,1/2+y
8 -z,1/2+x,1/2-y
9 y,z,x
10 -y,1/2+z,1/2-x
11 1/2+y,1/2-z,-x
12 1/2-y,-z,1/2+x
_cell_length_a                   17.5235(11)
_cell_length_b                   17.5235(11)
_cell_length_c                   17.5235(11)
_cell_angle_alpha                90
_cell_angle_beta                 90
_cell_angle_gamma                90
_cell_volume                     5380.99
loop_
_atom_site_label
_atom_site_type_symbol
_atom_site_fract_x
_atom_site_fract_y
_atom_site_fract_z
S2 S -0.1836(4) 0.2065(5) 0.0249(4)
O9 O -0.1303(11) 0.1561(13) 0.0656(13)
C6 C -0.2782(9) 0.182(2) 0.0511(18)
C7 C -0.188(2) 0.177(3) -0.0722(9)
La1 La 0.10547(2) 0.10547(2) 0.10547(2)
Cu1 Cu -0.08537(6) 0.35388(7) -0.00476(6)
C1 C 0.0206(4) 0.2454(5) 0.0003(5)
O1 O -0.0108(4) 0.2851(4) -0.0495(3)
O2 O 0.0560(4) 0.1846(3) -0.0116(3)
C2 C 0.0135(4) 0.2701(4) 0.0839(4)
O3 O -0.0387(3) 0.3282(3) 0.0916(3)
O4 O -0.0033(3) 0.2057(3) 0.1285(3)
C3 C 0.0935(4) 0.2949(4) 0.1114(4)
O5 O 0.1023(3) 0.3652(3) 0.1295(3)
O6 O 0.1445(3) 0.2458(3) 0.1139(3)
O7 O 0.0261(4) 0.0261(4) 0.0261(4)
S1 S 0.0189(13) 0.5388(8) -0.0202(18)
O8 O -0.0228(4) 0.4772(4) 0.0228(4)
C4 C 0.1027(15) 0.497(2) -0.058(2)
C5 C 0.060(3) 0.601(3) 0.048(3)
S1G S 0.0202(18) 0.5189(13) -0.0388(8)
C4G C 0.058(2) 0.6027(15) 0.003(2)
C5G C -0.048(3) 0.560(3) -0.101(3)
S1J S 0.0388(8) 0.5202(18) -0.0189(13)
C4J C -0.003(2) 0.558(2) -0.1027(15)
C5J C 0.101(3) 0.452(3) -0.060(3)
Cu1D Cu -0.00476(6) -0.08537(6) 0.35388(7)
C1D C 0.0003(5) 0.0206(4) 0.2454(5)
O1D O -0.0495(3) -0.0108(4) 0.2851(4)
O2D O -0.0116(3) 0.0560(4) 0.1846(3)
C2D C 0.0839(4) 0.0135(4) 0.2701(4)
O3D O 0.0916(3) -0.0387(3) 0.3282(3)
O4D O 0.1285(3) -0.0033(3) 0.2057(3)
C3D C 0.1114(4) 0.0935(4) 0.2949(4)
O5D O 0.1295(3) 0.1023(3) 0.3652(3)
O6D O 0.1139(3) 0.1445(3) 0.2458(3)
Cu1H Cu 0.35388(7) -0.00476(6) -0.08537(6)
C1H C 0.2454(5) 0.0003(5) 0.0206(4)
O1H O 0.2851(4) -0.0495(3) -0.0108(4)
O2H O 0.1846(3) -0.0116(3) 0.0560(4)
C2H C 0.2701(4) 0.0839(4) 0.0135(4)
O3H O 0.3282(3) 0.0916(3) -0.0387(3)
O4H O 0.2057(3) 0.1285(3) -0.0033(3)
C3H C 0.2949(4) 0.1114(4) 0.0935(4)
O5H O 0.3652(3) 0.1295(3) 0.1023(3)
O6H O 0.2458(3) 0.1139(3) 0.1445(3)
Cu1C Cu 0.41463(6) 0.14612(7) 0.00476(6)
Cu1G Cu 0.00476(6) 0.41463(6) 0.14612(7)
Cu1J Cu -0.14612(7) 0.50476(6) 0.08537(6)
Cu1K Cu 0.14612(7) 0.00476(6) 0.41463(6)
O3B O 0.0387(3) -0.1718(3) 0.4084(3)
O3F O 0.4084(3) 0.0387(3) -0.1718(3)
O3J O -0.1718(3) 0.4084(3) 0.0387(3)
O5B O -0.1023(3) -0.1348(3) 0.3705(3)
O5F O 0.3705(3) -0.1023(3) -0.1348(3)
O5J O -0.1348(3) 0.3705(3) -0.1023(3)
O8B O 0.0228(4) -0.0228(4) 0.4772(4)
O8C O 0.4772(4) 0.0228(4) -0.0228(4)
loop_
_geom_bond_atom_site_label_1
_geom_bond_atom_site_label_2
_geom_bond_site_symmetry_1
_geom_bond_site_symmetry_2
La1 O2 1_555 1_555
Cu1 O1 1_555 1_555
C1 O1 1_555 1_555
O2 C1 1_555 1_555
C2 C1 1_555 1_555
O3 Cu1 1_555 1_555
O4 La1 1_555 1_555
C3 C2 1_555 1_555
O5 C3 1_555 1_555
O6 La1 1_555 1_555
O7 La1 1_555 1_555
S1 O8 1_555 1_555
O8 Cu1 1_555 1_555
C4 S1 1_555 1_555
C5 S1 1_555 1_555
S2 O9 1_555 1_555
C6 S2 1_555 1_555
C7 S2 1_555 1_555
S1G O8 1_555 1_555
C4G S1 1_555 1_555
C5G S1 1_555 1_555
S1J O8 1_555 1_555
C4J S1 1_555 1_555
C5J C4 1_555 1_555
Cu1D O1D 1_555 1_555
C1D O1D 1_555 1_555
O2D La1 1_555 1_555
C2D C1D 1_555 1_555
O3D Cu1D 1_555 1_555
O4D La1 1_555 1_555
C3D C2D 1_555 1_555
O5D C3D 1_555 1_555
O6D La1 1_555 1_555
Cu1H O1H 1_555 1_555
C1H O1H 1_555 1_555
O2H La1 1_555 1_555
C2H C1H 1_555 1_555
O3H Cu1H 1_555 1_555
O4H La1 1_555 1_555
C3H C2H 1_555 1_555
O5H C3H 1_555 1_555
O6H La1 1_555 1_555
Cu1C O3H 1_555 1_555
Cu1G O3 1_555 1_555
Cu1J O8 1_555 1_555
Cu1K O3D 1_555 1_555
O3B Cu1D 1_555 1_555
O3F Cu1H 1_555 1_555
O3J Cu1 1_555 1_555
O5B Cu1D 1_555 1_555
O5F Cu1H 1_555 1_555
O5J Cu1 1_555 1_555
O8B Cu1D 1_555 1_555
O8C Cu1H 1_555 1_555
C2 O3 1_555 1_555
C2 O4 1_555 1_555
C3 O6 1_555 1_555
O5 Cu1G 1_555 1_555
O8 Cu1G 1_555 1_555
C4 S1G 1_555 1_555
C4 S1J 1_555 1_555
C5 C4G 1_555 1_555
C5 S1J 1_555 1_555
S1G C4G 1_555 1_555
S1G C5G 1_555 1_555
S1G C4J 1_555 1_555
S1G C5J 1_555 1_555
C4G S1J 1_555 1_555
C5G C4J 1_555 1_555
S1J C4J 1_555 1_555
S1J C5J 1_555 1_555
C1D O2D 1_555 1_555
C2D O3D 1_555 1_555
C2D O4D 1_555 1_555
C3D O6D 1_555 1_555
O5D Cu1K 1_555 1_555
C1H O2H 1_555 1_555
C2H O3H 1_555 1_555
C2H O4H 1_555 1_555
C3H O6H 1_555 1_555
O5H Cu1C 1_555 1_555
Cu1C O8C 1_555 1_555
Cu1J O3J 1_555 1_555
Cu1K O8B 1_555 1_555

#END
