
#######################################################################
#
#                 Cambridge Crystallographic Data Centre
#                                CCDC 
#
#######################################################################
#
# If this CIF has been generated from an entry in the Cambridge 
# Structural Database, then it will include bibliographic, chemical, 
# crystal, experimental, refinement or atomic coordinate data resulting 
# from the CCDC's data processing and validation procedures.
#
#######################################################################

data_GUXQAS
_chemical_formula_moiety         '(C16 H14 Cu1 F2 N6 O5)n'
_symmetry_cell_setting           tetragonal
_symmetry_space_group_name_H-M   'I 41/a'
_symmetry_Int_Tables_number      88
_space_group_name_Hall           '-I 4ad'
loop_
_symmetry_equiv_pos_site_id
_symmetry_equiv_pos_as_xyz
1 x,y,z
2 1/2-x,-y,1/2+z
3 3/4-y,1/4+x,1/4+z
4 3/4+y,3/4-x,3/4+z
5 1/2+x,1/2+y,1/2+z
6 -x,1/2-y,z
7 1/4-y,3/4+x,3/4+z
8 1/4+y,1/4-x,1/4+z
9 -x,-y,-z
10 1/2+x,y,1/2-z
11 1/4+y,3/4-x,3/4-z
12 1/4-y,1/4+x,1/4-z
13 1/2-x,1/2-y,1/2-z
14 x,1/2+y,-z
15 3/4+y,1/4-x,1/4-z
16 3/4-y,3/4+x,3/4-z
_cell_length_a                   30.0837(16)
_cell_length_b                   30.0837(16)
_cell_length_c                   8.6670(9)
_cell_angle_alpha                90
_cell_angle_beta                 90
_cell_angle_gamma                90
_cell_volume                     7843.89
loop_
_atom_site_label
_atom_site_type_symbol
_atom_site_fract_x
_atom_site_fract_y
_atom_site_fract_z
_atom_site_U_iso_or_equiv
_atom_site_thermal_displace_type
Cu1 Cu 0.896392(8) 0.234894(8) 0.06588(3) 0.0272 Uani
F1 F 0.74611(9) 0.42776(7) 0.0122(3) 0.1034 Uani
F2 F 0.80480(10) 0.38168(13) 0.4814(2) 0.1665 Uani
O1 O 0.86410(5) 0.22615(6) 0.25911(18) 0.0385 Uani
O2 O 0.85810(6) 0.23021(8) 0.5111(2) 0.0601 Uani
O3 O 0.97340(5) 0.30722(5) 0.34992(17) 0.0293 Uani
O4 O 0.93356(5) 0.28005(5) 0.16025(16) 0.0301 Uani
O5 O 0.72247(5) 0.29286(6) -0.1063(2) 0.0424 Uani
H1 H 0.6989(6) 0.2875(10) -0.056(3) 0.0640 Uiso
N1 N 0.86127(6) 0.28839(6) -0.0628(2) 0.0361 Uani
N2 N 0.84107(6) 0.35962(7) -0.1023(3) 0.0457 Uani
N3 N 0.81013(6) 0.33104(6) -0.1606(2) 0.0343 Uani
N4 N 0.67150(6) 0.35098(6) -0.2902(2) 0.0323 Uani
N5 N 0.68889(7) 0.36716(7) -0.4243(2) 0.0407 Uani
N6 N 0.63944(6) 0.31323(6) -0.4708(2) 0.0326 Uani
C1 C 0.87069(8) 0.33200(8) -0.0467(3) 0.0428 Uani
H2 H 0.8966 0.3418 0.0009 0.0510 Uiso
C2 C 0.82277(7) 0.28943(8) -0.1361(3) 0.0375 Uani
H3 H 0.8068 0.2644 -0.1663 0.0450 Uiso
C3 C 0.76761(7) 0.34787(8) -0.2145(3) 0.0372 Uani
H4 H 0.7601 0.3338 -0.3118 0.0450 Uiso
H5 H 0.7699 0.3796 -0.2323 0.0450 Uiso
C4 C 0.73058(7) 0.33881(8) -0.0967(3) 0.0352 Uani
C5 C 0.68840(8) 0.36512(9) -0.1413(3) 0.0392 Uani
H6 H 0.6657 0.3606 -0.0633 0.0470 Uiso
H7 H 0.6953 0.3966 -0.1449 0.0470 Uiso
C6 C 0.64235(7) 0.31947(8) -0.3199(3) 0.0336 Uani
H8 H 0.6262 0.3039 -0.2460 0.0400 Uiso
C7 C 0.66869(8) 0.34326(8) -0.5285(3) 0.0385 Uani
H9 H 0.6739 0.3465 -0.6337 0.0460 Uiso
C8 C 0.74666(8) 0.35144(10) 0.0649(3) 0.0480 Uani
C9 C 0.75487(12) 0.39375(13) 0.1104(4) 0.0699 Uani
C10 C 0.77372(13) 0.40565(17) 0.2512(4) 0.0977 Uani
H10 H 0.7783 0.4351 0.2791 0.1170 Uiso
C11 C 0.78498(13) 0.3714(2) 0.3448(4) 0.1035 Uani
C12 C 0.77868(12) 0.32784(19) 0.3094(4) 0.0950 Uani
H11 H 0.7873 0.3053 0.3765 0.1140 Uiso
C13 C 0.75885(10) 0.31856(13) 0.1691(3) 0.0665 Uani
H12 H 0.7534 0.2890 0.1434 0.0800 Uiso
C14 C 0.87998(8) 0.23311(7) 0.3915(3) 0.0328 Uani
C15 C 0.92904(7) 0.24441(8) 0.4082(3) 0.0326 Uani
H13 H 0.9343 0.2545 0.5130 0.0390 Uiso
H14 H 0.9462 0.2174 0.3932 0.0390 Uiso
C16 C 0.94628(7) 0.27927(7) 0.2990(2) 0.0250 Uani
Cu1N Cu 0.984894(8) 0.353608(8) 0.18412(3) 0.0272 Uani
Cu1L Cu 0.603608(8) 0.265106(8) -0.56588(3) 0.0272 Uani
O3K O 0.94278(5) 0.22340(5) -0.09992(17) 0.0293 Uani
O4K O 0.96995(5) 0.18356(5) 0.08975(16) 0.0301 Uani
N6L N 0.86056(6) 0.18677(6) -0.0292(2) 0.0326 Uani
loop_
_atom_site_aniso_label
_atom_site_aniso_U_11
_atom_site_aniso_U_22
_atom_site_aniso_U_33
_atom_site_aniso_U_23
_atom_site_aniso_U_13
_atom_site_aniso_U_12
Cu1 0.02621(15) 0.03067(16) 0.02466(15) -0.00107(10) -0.00227(10) -0.00320(10)
F1 0.141(2) 0.0733(14) 0.0960(17) -0.0195(13) -0.0427(15) -0.0307(13)
F2 0.148(2) 0.315(4) 0.0365(11) 0.0112(17) -0.0237(13) -0.157(3)
O1 0.0317(8) 0.0537(10) 0.0302(9) -0.0051(7) 0.0032(7) -0.0123(7)
O2 0.0444(11) 0.1038(16) 0.0322(10) 0.0035(10) 0.0095(8) -0.0257(10)
O3 0.0305(8) 0.0293(8) 0.0282(8) -0.0014(6) -0.0023(6) -0.0048(6)
O4 0.0335(8) 0.0309(8) 0.0259(8) 0.0030(6) -0.0037(6) -0.0063(6)
O5 0.0326(9) 0.0473(10) 0.0474(11) 0.0046(8) 0.0029(8) -0.0010(7)
N1 0.0280(10) 0.0379(11) 0.0425(11) 0.0010(9) -0.0079(9) 0.0034(8)
N2 0.0295(10) 0.0384(11) 0.0692(16) 0.0103(11) -0.0090(10) -0.0041(9)
N3 0.0235(9) 0.0408(11) 0.0386(11) 0.0070(9) -0.0036(8) -0.0005(8)
N4 0.0254(9) 0.0370(10) 0.0344(11) -0.0052(8) -0.0069(8) 0.0032(8)
N5 0.0382(11) 0.0427(11) 0.0411(12) 0.0041(9) -0.0094(9) -0.0088(9)
N6 0.0313(10) 0.0366(10) 0.0299(10) -0.0007(8) -0.0039(8) -0.0037(8)
C1 0.0276(12) 0.0419(14) 0.0589(17) 0.0029(12) -0.0117(11) -0.0018(10)
C2 0.0315(12) 0.0370(13) 0.0440(14) -0.0018(11) -0.0048(10) 0.0002(10)
C3 0.0270(11) 0.0483(14) 0.0364(13) 0.0094(11) -0.0045(10) 0.0040(10)
C4 0.0272(11) 0.0474(14) 0.0309(12) -0.0018(10) -0.0042(9) -0.0010(10)
C5 0.0296(12) 0.0497(14) 0.0382(13) -0.0176(11) -0.0072(10) 0.0042(10)
C6 0.0283(11) 0.0413(13) 0.0312(12) -0.0011(10) -0.0035(9) -0.0019(9)
C7 0.0357(13) 0.0468(14) 0.0331(12) 0.0060(11) -0.0053(10) -0.0072(11)
C8 0.0304(13) 0.080(2) 0.0335(14) -0.0040(13) -0.0032(10) -0.0103(13)
C9 0.069(2) 0.088(3) 0.0527(19) -0.0060(19) -0.0121(16) -0.0230(18)
C10 0.095(3) 0.140(4) 0.058(2) -0.024(3) -0.009(2) -0.063(3)
C11 0.077(3) 0.204(5) 0.0296(17) 0.002(3) -0.0066(16) -0.080(3)
C12 0.064(2) 0.177(5) 0.044(2) 0.027(2) -0.0124(16) -0.040(3)
C13 0.0522(17) 0.109(3) 0.0383(16) 0.0157(16) -0.0060(13) -0.0159(17)
C14 0.0328(12) 0.0353(12) 0.0303(12) 0.0024(10) 0.0021(10) -0.0067(9)
C15 0.0305(12) 0.0392(12) 0.0282(12) 0.0050(10) -0.0026(9) -0.0046(9)
C16 0.0226(10) 0.0247(10) 0.0276(11) -0.0009(8) 0.0008(8) 0.0021(8)
Cu1N 0.03067 0.02621 0.02466 -0.00227 0.00107 0.0032
Cu1L 0.02621 0.03067 0.02466 -0.00107 -0.00227 -0.0032
O3K 0.0293 0.0305 0.0282 0.0023 -0.0014 0.0048
O4K 0.0309 0.0335 0.0259 0.0037 0.003 0.0063
N6L 0.0313 0.0366 0.0299 -0.0007 -0.0039 -0.0037
loop_
_geom_bond_atom_site_label_1
_geom_bond_atom_site_label_2
_geom_bond_site_symmetry_1
_geom_bond_site_symmetry_2
Cu1 O1 1_555 1_555
F1 C9 1_555 1_555
F2 C11 1_555 1_555
O1 C14 1_555 1_555
O2 C14 1_555 1_555
O3 C16 1_555 1_555
O4 Cu1 1_555 1_555
O5 H1 1_555 1_555
N1 Cu1 1_555 1_555
N2 N3 1_555 1_555
N3 C2 1_555 1_555
N4 N5 1_555 1_555
N5 C7 1_555 1_555
N6 C6 1_555 1_555
C1 N1 1_555 1_555
H2 C1 1_555 1_555
C2 N1 1_555 1_555
H3 C2 1_555 1_555
C3 N3 1_555 1_555
H4 C3 1_555 1_555
H5 C3 1_555 1_555
C4 O5 1_555 1_555
C5 N4 1_555 1_555
H6 C5 1_555 1_555
H7 C5 1_555 1_555
C6 N4 1_555 1_555
H8 C6 1_555 1_555
C7 N6 1_555 1_555
H9 C7 1_555 1_555
C8 C4 1_555 1_555
C9 C8 1_555 1_555
C10 C9 1_555 1_555
H10 C10 1_555 1_555
C11 C10 1_555 1_555
C12 C11 1_555 1_555
H11 C12 1_555 1_555
C13 C8 1_555 1_555
H12 C13 1_555 1_555
C14 C15 1_555 1_555
C15 H13 1_555 1_555
H14 C15 1_555 1_555
C16 O4 1_555 1_555
Cu1N O3 1_555 1_555
Cu1L N6 1_555 1_555
O3K Cu1 1_555 1_555
O4K Cu1 1_555 1_555
N6L Cu1 1_555 1_555
O4 Cu1N 1_555 1_555
N2 C1 1_555 1_555
C3 C4 1_555 1_555
C4 C5 1_555 1_555
C12 C13 1_555 1_555
C15 C16 1_555 1_555

#END
