
#######################################################################
#
#                 Cambridge Crystallographic Data Centre
#                                CCDC 
#
#######################################################################
#
# If this CIF has been generated from an entry in the Cambridge 
# Structural Database, then it will include bibliographic, chemical, 
# crystal, experimental, refinement or atomic coordinate data resulting 
# from the CCDC's data processing and validation procedures.
#
#######################################################################

data_GAWMOI
_chemical_formula_moiety         '(C18 H34 O29 Tb2)n'
_symmetry_cell_setting           triclinic
_symmetry_space_group_name_H-M   'P -1'
_symmetry_Int_Tables_number      2
_space_group_name_Hall           '-P 1'
loop_
_symmetry_equiv_pos_site_id
_symmetry_equiv_pos_as_xyz
1 x,y,z
2 -x,-y,-z
_cell_length_a                   6.0783(2)
_cell_length_b                   8.6457(2)
_cell_length_c                   16.1954(5)
_cell_angle_alpha                77.801(2)
_cell_angle_beta                 88.351(2)
_cell_angle_gamma                83.637(1)
_cell_volume                     826.732
loop_
_atom_site_label
_atom_site_type_symbol
_atom_site_fract_x
_atom_site_fract_y
_atom_site_fract_z
C1 C 0.6313(11) 0.7466(7) -0.1655(4)
C2 C 0.5149(11) 0.6036(7) -0.1192(4)
H1 H 0.5684 0.5104 -0.1425
C3 C 0.5646(11) 0.5666(6) -0.0248(4)
H2 H 0.7233 0.5335 -0.0169
C4 C 0.1427(12) 1.2297(7) -0.1644(4)
C5 C -0.0340(12) 1.1589(7) -0.1053(4)
H3 H -0.1274 1.2421 -0.0841
C6 C 0.0815(12) 1.0382(7) -0.0324(4)
H4 H 0.1878 1.0885 -0.0051
C7 C 0.1998(13) 0.7567(9) -0.3877(4)
C8 C 0.2631(13) 0.9234(9) -0.4246(4)
H5 H 0.1433 0.9807 -0.4619
C9 C 0.4751(12) 0.9174(9) -0.4773(4)
H6 H 0.4550 0.8550 -0.5199
O1 O 0.5103(7) 0.8648(5) -0.2048(3)
O2 O 0.8387(7) 0.7337(5) -0.1620(3)
O3 O -0.1771(9) 1.0096(6) -0.3171(3)
H7 H -0.2554 1.0918 -0.3149
H8 H -0.1519 0.9523 -0.3554
O4 O 0.2832(7) 0.6394(5) -0.1340(2)
O6 O 0.5096(8) 0.7083(5) 0.0073(3)
O8 O 0.1899(8) 1.1699(5) -0.2280(3)
O10 O 0.2358(9) 1.3395(5) -0.1454(3)
O11 O -0.1646(8) 1.0705(5) -0.1464(3)
O12 O 0.1949(8) 0.9186(5) -0.0724(3)
O13 O 0.1522(9) 0.7233(5) -0.3096(3)
O14 O 0.1937(12) 0.6660(8) -0.4367(4)
O15 O 0.2828(8) 1.0079(5) -0.3584(3)
O16 O 0.6570(9) 0.8417(6) -0.4264(3)
Tb1 Tb 0.11990(5) 0.89737(3) -0.218090(16)
C1A C 0.3687(11) 0.2534(7) 0.1655(4)
C2A C 0.4851(11) 0.3964(7) 0.1192(4)
H1A H 0.4316 0.4896 0.1425
C3A C 0.4354(11) 0.4334(6) 0.0248(4)
H2A H 0.2767 0.4665 0.0169
C4A C -0.1427(12) 0.7703(7) 0.1644(4)
C5A C 0.0340(12) 0.8411(7) 0.1053(4)
H3A H 0.1274 0.7579 0.0841
C6A C -0.0815(12) 0.9618(7) 0.0324(4)
H4A H -0.1878 0.9115 0.0051
C7A C 0.8002(13) 1.2433(9) -0.6123(4)
C8A C 0.7369(13) 1.0766(9) -0.5754(4)
H5A H 0.8567 1.0193 -0.5381
C9A C 0.5249(12) 1.0826(9) -0.5227(4)
H6A H 0.5450 1.1450 -0.4801
O1A O 0.4897(7) 0.1352(5) 0.2048(3)
O2A O 0.1613(7) 0.2663(5) 0.1620(3)
O2_2 O -0.1613(7) 0.7337(5) -0.1620(3)
O2A_2 O 1.1613(7) 0.2663(5) 0.1620(3)
O3A O 1.1771(9) -0.0096(6) 0.3171(3)
H7A H 1.2554 -0.0918 0.3149
H8A H 1.1519 0.0477 0.3554
O4A O 0.7168(7) 0.3606(5) 0.1340(2)
O6A O 0.4904(8) 0.2917(5) -0.0073(3)
O8A O -0.1899(8) 0.8301(5) 0.2280(3)
O8A_2 O 0.8101(8) -0.1699(5) 0.2280(3)
O10A O -0.2358(9) 0.6605(5) 0.1454(3)
O11A O 0.1646(8) 0.9295(5) 0.1464(3)
O11A_2 O 1.1646(8) -0.0705(5) 0.1464(3)
O12A O -0.1949(8) 1.0814(5) 0.0724(3)
O12A_2 O 0.8051(8) 0.0814(5) 0.0724(3)
O13A O 0.8478(9) 1.2767(5) -0.6904(3)
O13A_2 O 0.8478(9) 0.2767(5) 0.3096(3)
O14A O 0.8063(12) 1.3340(8) -0.5633(4)
O15A O 0.7172(8) 0.9921(5) -0.6416(3)
O15A_2 O 0.7172(8) -0.0079(5) 0.3584(3)
O16A O 0.3430(9) 1.1583(6) -0.5736(3)
Tb1A Tb 0.88010(5) 0.10263(3) 0.218090(16)
Tb1_2 Tb 1.11990(5) 0.89737(3) -0.218090(16)
Tb1A_2 Tb -0.11990(5) 0.10263(3) 0.218090(16)
Tb1A_3 Tb -0.11990(5) 1.10263(3) 0.218090(16)
Tb1A_4 Tb 0.88010(5) 1.10263(3) -0.781910(16)
O5 O 1.3890(10) -0.2736(7) 0.2683(4)
O7 O 0.8983(18) -0.3070(8) 0.4261(4)
O9 O 0.2074(17) 0.4583(11) 0.3220(6)
loop_
_geom_bond_atom_site_label_1
_geom_bond_atom_site_label_2
_geom_bond_site_symmetry_1
_geom_bond_site_symmetry_2
C1 C2 1_555 1_555
C2 H1 1_555 1_555
C3 C2 1_555 1_555
H2 C3 1_555 1_555
C4 C5 1_555 1_555
C5 H3 1_555 1_555
C6 C5 1_555 1_555
H4 C6 1_555 1_555
C7 C8 1_555 1_555
C8 H5 1_555 1_555
C9 C8 1_555 1_555
H6 C9 1_555 1_555
O1 C1 1_555 1_555
O2 C1 1_555 1_555
O3 H7 1_555 1_555
H8 O3 1_555 1_555
O4 C2 1_555 1_555
O6 C3 1_555 1_555
O8 C4 1_555 1_555
O10 C4 1_555 1_555
O11 C5 1_555 1_555
O12 C6 1_555 1_555
O13 C7 1_555 1_555
O14 C7 1_555 1_555
O15 C8 1_555 1_555
O16 C9 1_555 1_555
Tb1 O1 1_555 1_555
C1A C2A 1_555 1_555
C2A H1A 1_555 1_555
C3A C3 1_555 1_555
H2A C3A 1_555 1_555
C4A C5A 1_555 1_555
C5A H3A 1_555 1_555
C6A C6 1_555 1_555
H4A C6A 1_555 1_555
C7A C8A 1_555 1_555
C8A H5A 1_555 1_555
C9A C9 1_555 1_555
H6A C9A 1_555 1_555
O1A C1A 1_555 1_555
O2A C1A 1_555 1_555
O2_2 Tb1 1_555 1_555
O2A_2 Tb1A 1_555 1_555
O3A H7A 1_555 1_555
H8A O3A 1_555 1_555
O4A C2A 1_555 1_555
O6A C3A 1_555 1_555
O8A C4A 1_555 1_555
O8A_2 Tb1A 1_555 1_555
O10A C4A 1_555 1_555
O11A C5A 1_555 1_555
O11A_2 Tb1A 1_555 1_555
O12A C6A 1_555 1_555
O12A_2 Tb1A 1_555 1_555
O13A C7A 1_555 1_555
O13A_2 Tb1A 1_555 1_555
O14A C7A 1_555 1_555
O15A C8A 1_555 1_555
O15A_2 Tb1A 1_555 1_555
O16A C9A 1_555 1_555
Tb1A O1A 1_555 1_555
Tb1_2 O2 1_555 1_555
Tb1A_2 O2A 1_555 1_555
Tb1A_3 O8A 1_555 1_555
Tb1A_4 O13A 1_555 1_555
O3 Tb1 1_555 1_555
O4 Tb1 1_555 1_555
O8 Tb1 1_555 1_555
O11 Tb1 1_555 1_555
O12 Tb1 1_555 1_555
O13 Tb1 1_555 1_555
O15 Tb1 1_555 1_555
C2A C3A 1_555 1_555
C5A C6A 1_555 1_555
C8A C9A 1_555 1_555
O3A Tb1A 1_555 1_555
O4A Tb1A 1_555 1_555
O11A Tb1A_3 1_555 1_555
O12A Tb1A_3 1_555 1_555
O15A Tb1A_4 1_555 1_555

#END
