
#######################################################################
#
#                 Cambridge Crystallographic Data Centre
#                                CCDC 
#
#######################################################################
#
# If this CIF has been generated from an entry in the Cambridge 
# Structural Database, then it will include bibliographic, chemical, 
# crystal, experimental, refinement or atomic coordinate data resulting 
# from the CCDC's data processing and validation procedures.
#
#######################################################################

data_LEQVUZ
_chemical_formula_moiety         'C8 H18 Co1 N2 O31 P1 W5 3+'
_symmetry_cell_setting           cubic
_symmetry_space_group_name_H-M   'I m -3'
_symmetry_Int_Tables_number      204
_space_group_name_Hall           '-I 2 2 3'
loop_
_symmetry_equiv_pos_site_id
_symmetry_equiv_pos_as_xyz
1 x,y,z
2 z,x,y
3 y,z,x
4 1/2+x,1/2+y,1/2+z
5 1/2+z,1/2+x,1/2+y
6 1/2+y,1/2+z,1/2+x
7 -x,-y,z
8 -x,y,-z
9 x,-y,-z
10 z,-x,-y
11 -z,-x,y
12 -z,x,-y
13 -y,z,-x
14 y,-z,-x
15 -y,-z,x
16 1/2-x,1/2-y,1/2+z
17 1/2-x,1/2+y,1/2-z
18 1/2+x,1/2-y,1/2-z
19 1/2+z,1/2-x,1/2-y
20 1/2-z,1/2-x,1/2+y
21 1/2-z,1/2+x,1/2-y
22 1/2-y,1/2+z,1/2-x
23 1/2+y,1/2-z,1/2-x
24 1/2-y,1/2-z,1/2+x
25 -x,-y,-z
26 -z,-x,-y
27 -y,-z,-x
28 1/2-x,1/2-y,1/2-z
29 1/2-z,1/2-x,1/2-y
30 1/2-y,1/2-z,1/2-x
31 x,y,-z
32 x,-y,z
33 -x,y,z
34 -z,x,y
35 z,x,-y
36 z,-x,y
37 y,-z,x
38 -y,z,x
39 y,z,-x
40 1/2+x,1/2+y,1/2-z
41 1/2+x,1/2-y,1/2+z
42 1/2-x,1/2+y,1/2+z
43 1/2-z,1/2+x,1/2+y
44 1/2+z,1/2+x,1/2-y
45 1/2+z,1/2-x,1/2+y
46 1/2+y,1/2-z,1/2+x
47 1/2-y,1/2+z,1/2+x
48 1/2+y,1/2+z,1/2-x
_cell_length_a                   23.162(2)
_cell_length_b                   23.162(2)
_cell_length_c                   23.162(2)
_cell_angle_alpha                90
_cell_angle_beta                 90
_cell_angle_gamma                90
_cell_volume                     12425.9
loop_
_atom_site_label
_atom_site_type_symbol
_atom_site_fract_x
_atom_site_fract_y
_atom_site_fract_z
_atom_site_U_iso_or_equiv
_atom_site_thermal_displace_type
O1 O 0.1044(2) 0.1639(2) 0.0000 0.0313 Uani
O2 O -0.0000 0.1481(4) 0.0423(4) 0.0200 Uani
O3 O 0.0000 0.0000 0.0000 0.0100 Uani
O4 O 0.09885(14) 0.09885(14) 0.09885(14) 0.0234 Uani
P1 P 0.5000 0.5000 0.0000 0.0507 Uani
W1 W 0.423180(9) 0.391490(9) 0.076460(9) 0.0272 Uani
W2 W 0.5000 0.5000 0.153360(17) 0.0239 Uani
W3 W 0.345960(17) 0.5000 0.0000 0.0244 Uani
O5 O 0.5000 0.4681(4) 0.0550(4) 0.0270 Uiso
O6 O 0.5000 0.5000 0.2233(2) 0.0227 Uani
O7 O 0.38927(16) 0.34055(15) 0.11084(16) 0.0340 Uani
O8 O 0.2729(3) 0.5000 0.0000 0.0260 Uani
O9 O 0.44377(13) 0.44302(12) 0.13628(13) 0.0209 Uani
O10 O 0.5000 0.3673(2) 0.0785(2) 0.0310 Uani
O11 O 0.4293(4) 0.3814(4) 0.0000 0.0310 Uiso
O12 O 0.3527(3) 0.4302(3) 0.0612(3) 0.0216 Uiso
O13 O 0.4426(4) 0.4582(4) 0.0000 0.0225 Uiso
W1FA W 0.576820(9) 0.391490(9) 0.076460(9) 0.0272 Uani
W1DA W 0.423180(9) 0.391490(9) -0.076460(9) 0.0272 Uani
O5DA O 0.5000 0.4681(4) -0.0550(4) 0.0270 Uiso
O5EA O 0.5000 0.5319(4) 0.0550(4) 0.0270 Uiso
O5X O 0.5000 0.5319(4) -0.0550(4) 0.0270 Uiso
O9EA O 0.44377(13) 0.55698(12) 0.13628(13) 0.0209 Uani
O9FA O 0.55623(13) 0.44302(12) 0.13628(13) 0.0209 Uani
O9F O 0.55623(13) 0.55698(12) 0.13628(13) 0.0209 Uani
O12DA O 0.3527(3) 0.4302(3) -0.0612(3) 0.0216 Uiso
O12EA O 0.3527(3) 0.5698(3) 0.0612(3) 0.0216 Uiso
O12H O 0.3527(3) 0.5698(3) -0.0612(3) 0.0216 Uiso
O13EA O 0.4426(4) 0.5418(4) 0.0000 0.0225 Uiso
O13FA O 0.5574(4) 0.4582(4) 0.0000 0.0225 Uiso
O13X O 0.5574(4) 0.5418(4) 0.0000 0.0225 Uiso
N2 N 0.32300(16) 0.34917(16) 0.22039(17) 0.0207 Uani
O14 O 0.32356(13) 0.29086(13) 0.22360(13) 0.0218 Uani
C3 C 0.2881(2) 0.3757(2) 0.18330(19) 0.0230 Uani
H2 H 0.2640 0.3550 0.1588 0.0280 Uiso
C4 C 0.2892(2) 0.43682(19) 0.1826(2) 0.0223 Uani
H3 H 0.2628 0.4563 0.1595 0.0270 Uiso
C5 C 0.3279(2) 0.46853(18) 0.2148(2) 0.0230 Uani
C6 C 0.36554(18) 0.43555(19) 0.2508(2) 0.0206 Uani
H4 H 0.3929 0.4546 0.2731 0.0250 Uiso
C7 C 0.36247(19) 0.37842(19) 0.25309(18) 0.0166 Uani
H5 H 0.3874 0.3581 0.2772 0.0200 Uiso
Co1 Co 0.2500 0.2500 0.2500 0.0275 Uani
O14B O 0.29086(13) 0.22360(13) 0.32356(13) 0.0218 Uani
O14A O 0.22360(13) 0.32356(13) 0.29086(13) 0.0218 Uani
O14AA O 0.17644(13) 0.20914(13) 0.27640(13) 0.0218 Uani
O14CA O 0.20914(13) 0.27640(13) 0.17644(13) 0.0218 Uani
O14BA O 0.27640(13) 0.17644(13) 0.20914(13) 0.0218 Uani
C5EA C 0.3279(2) 0.53147(18) 0.2148(2) 0.0230 Uani
C1 C 0.2089(3) 0.3017(3) 0.0000 0.0190 Uani
C2 C 0.2523(3) 0.3468(3) 0.0000 0.0267 Uani
H1 H 0.2583 0.3602 -0.0388 0.0320 Uiso
N1 N 0.1732(3) 0.2639(3) 0.0000 0.0340 Uani
H1DA H 0.2583 0.3602 0.0388 0.0320 Uiso
loop_
_atom_site_aniso_label
_atom_site_aniso_U_11
_atom_site_aniso_U_22
_atom_site_aniso_U_33
_atom_site_aniso_U_23
_atom_site_aniso_U_13
_atom_site_aniso_U_12
O1 0.035(3) 0.025(2) 0.034(3) 0.000 0.000 0.002(2)
O2 0.019(4) 0.018(4) 0.023(4) 0.001(4) 0.000 0.000
O3 0.010(3) 0.010(3) 0.010(3) 0.000 0.000 0.000
O4 0.0234(12) 0.0234(12) 0.0234(12) 0.0037(15) 0.0037(15) 0.0037(15)
P1 0.039(2) 0.065(3) 0.048(3) 0.000 0.000 0.000
W1 0.02780(9) 0.02675(9) 0.02716(9) 0.00671(8) 0.00753(8) 0.00168(8)
W2 0.02548(18) 0.02157(17) 0.02476(18) 0.000 0.000 0.000
W3 0.02532(18) 0.02218(18) 0.02573(18) 0.000 0.000 0.000
O6 0.020(3) 0.039(4) 0.009(3) 0.000 0.000 0.000
O7 0.0376(19) 0.0344(19) 0.0299(18) -0.0151(16) 0.0066(16) -0.0082(17)
O8 0.019(3) 0.031(4) 0.028(3) 0.000 0.000 0.000
O9 0.0274(15) 0.0133(13) 0.0219(15) -0.0115(12) 0.0085(14) -0.0022(13)
O10 0.028(2) 0.044(3) 0.021(2) -0.005(2) 0.000 0.000
W1FA 0.0278 0.02675 0.02716 0.00671 -0.00753 -0.00168
W1DA 0.0278 0.02675 0.02716 -0.00671 -0.00753 0.00168
O9EA 0.0274 0.0133 0.0219 0.0115 0.0085 0.0022
O9FA 0.0274 0.0133 0.0219 -0.0115 -0.0085 0.0022
O9F 0.0274 0.0133 0.0219 0.0115 -0.0085 -0.0022
N2 0.0221(18) 0.0182(18) 0.0219(18) -0.0020(15) 0.0093(16) 0.0015(16)
O14 0.0202(14) 0.0250(16) 0.0201(15) -0.0092(13) 0.0005(13) 0.0009(14)
C3 0.021(2) 0.029(2) 0.019(2) 0.0002(19) 0.0017(19) -0.006(2)
C4 0.018(2) 0.024(2) 0.025(2) 0.0021(19) -0.0036(19) 0.0054(19)
C5 0.035(2) 0.017(2) 0.017(2) 0.0007(17) 0.0040(19) -0.0061(19)
C6 0.0147(19) 0.027(2) 0.020(2) -0.0030(19) -0.0044(18) -0.0018(19)
C7 0.022(2) 0.019(2) 0.0087(18) 0.0012(17) -0.0033(17) -0.0009(18)
Co1 0.0275(3) 0.0275(3) 0.0275(3) 0.0017(4) 0.0017(4) 0.0017(4)
O14B 0.025 0.0201 0.0202 0.0005 0.0009 -0.0092
O14A 0.0201 0.0202 0.025 0.0009 -0.0092 0.0005
O14AA 0.0202 0.025 0.0201 -0.0092 0.0005 0.0009
O14CA 0.025 0.0201 0.0202 0.0005 0.0009 -0.0092
O14BA 0.0201 0.0202 0.025 0.0009 -0.0092 0.0005
C5EA 0.035 0.017 0.017 -0.0007 0.004 0.0061
C1 0.012(3) 0.024(3) 0.021(3) 0.000 0.000 -0.002(3)
C2 0.027(3) 0.032(4) 0.021(3) 0.000 0.000 -0.001(3)
N1 0.046(4) 0.032(3) 0.024(3) 0.000 0.000 -0.011(3)
loop_
_geom_bond_atom_site_label_1
_geom_bond_atom_site_label_2
_geom_bond_site_symmetry_1
_geom_bond_site_symmetry_2
C1 C2 1_555 1_555
C2 H1 1_555 1_555
N1 C1 1_555 1_555
P1 O5 1_555 1_555
W1 O7 1_555 1_555
W2 O5 1_555 1_555
W3 O8 1_555 1_555
O5 O5EA 1_555 1_555
O6 W2 1_555 1_555
O9 W1 1_555 1_555
O10 W1 1_555 1_555
O11 W1 1_555 1_555
O12 W1 1_555 1_555
O13 P1 1_555 1_555
N2 O14 1_555 1_555
O14 Co1 1_555 1_555
C3 N2 1_555 1_555
H2 C3 1_555 1_555
C4 C3 1_555 1_555
H3 C4 1_555 1_555
C5 C4 1_555 1_555
C6 C5 1_555 1_555
H4 C6 1_555 1_555
C7 N2 1_555 1_555
H5 C7 1_555 1_555
Co1 O14B 1_555 1_555
H1DA C2 1_555 1_555
W1FA O10 1_555 1_555
W1DA O11 1_555 1_555
O5DA P1 1_555 1_555
O5EA P1 1_555 1_555
O5X P1 1_555 1_555
O9EA W2 1_555 1_555
O9FA W2 1_555 1_555
O9F W2 1_555 1_555
O12DA W3 1_555 1_555
O12EA W3 1_555 1_555
O12H W3 1_555 1_555
O13EA P1 1_555 1_555
O13FA P1 1_555 1_555
O13X P1 1_555 1_555
O14A Co1 1_555 1_555
O14AA Co1 1_555 1_555
O14CA Co1 1_555 1_555
O14BA Co1 1_555 1_555
C5EA C5 1_555 1_555
W1 O13 1_555 1_555
W2 O9 1_555 1_555
W2 O5EA 1_555 1_555
W3 O12 1_555 1_555
O13 W1DA 1_555 1_555
C6 C7 1_555 1_555
W1FA O9FA 1_555 1_555
W1FA O13FA 1_555 1_555
W1DA O12DA 1_555 1_555
O5DA O5X 1_555 1_555

#END
