
#######################################################################
#
#                 Cambridge Crystallographic Data Centre
#                                CCDC 
#
#######################################################################
#
# If this CIF has been generated from an entry in the Cambridge 
# Structural Database, then it will include bibliographic, chemical, 
# crystal, experimental, refinement or atomic coordinate data resulting 
# from the CCDC's data processing and validation procedures.
#
#######################################################################

data_YAZZEG
_chemical_formula_moiety         '(C40 H38 Dy4 O40)n'
_symmetry_cell_setting           triclinic
_symmetry_space_group_name_H-M   'P -1'
_symmetry_Int_Tables_number      2
_space_group_name_Hall           '-P 1'
loop_
_symmetry_equiv_pos_site_id
_symmetry_equiv_pos_as_xyz
1 x,y,z
2 -x,-y,-z
_cell_length_a                   7.3494(4)
_cell_length_b                   11.4750(6)
_cell_length_c                   16.1852(8)
_cell_angle_alpha                78.7990(10)
_cell_angle_beta                 82.4830(10)
_cell_angle_gamma                79.9550(10)
_cell_volume                     1311.79
loop_
_atom_site_label
_atom_site_type_symbol
_atom_site_fract_x
_atom_site_fract_y
_atom_site_fract_z
Dy1 Dy 0.94154(2) 0.065975(16) -0.226370(11)
Dy2 Dy 0.44429(2) 0.264555(16) -0.236029(11)
O1 O 0.9258(4) 0.2197(3) -0.1455(2)
O3 O 0.6979(4) 0.3437(3) -0.20938(19)
O5 O 0.7329(5) 0.5575(3) 0.1825(2)
O7 O 0.6277(5) 0.7144(3) 0.0914(2)
O9 O 0.9819(6) 0.2418(3) 0.0076(2)
H7 H 0.9947 0.2071 -0.0330
O10 O 0.5812(6) 0.6962(3) -0.0608(2)
H8 H 0.5710 0.7306 -0.0201
O11 O 0.9787(4) 0.2213(3) -0.34341(19)
O12 O 1.1911(5) 0.3175(3) -0.3126(2)
O13 O 0.7977(5) 0.3132(3) -0.4731(2)
H9 H 0.8463 0.2556 -0.4406
O14 O 0.5890(5) 0.1664(3) -0.34210(19)
O15 O 0.8029(4) 0.0042(3) -0.3360(2)
O16 O 0.7969(5) -0.1553(3) -0.4327(2)
H10 H 0.8488 -0.1234 -0.4032
O17 O 1.2712(4) 0.1065(3) -0.19893(17)
O18 O 1.1132(4) -0.0188(3) -0.11176(19)
O19 O 1.6335(4) 0.0939(3) -0.16515(16)
O20 O 1.1873(4) -0.0446(3) -0.3005(2)
H11 H 1.2859 -0.0682 -0.2796
H12 H 1.1981 -0.1004 -0.3266
O21 O 0.8841(5) -0.1382(3) -0.1732(2)
H13 H 0.7910 -0.1685 -0.1731
H14 H 0.9300 -0.1902 -0.1361
O22 O 0.5214(5) 0.4222(3) -0.3533(2)
H15 H 0.5512 0.4837 -0.3440
H16 H 0.5779 0.3948 -0.3942
C1 C 0.7940(6) 0.3926(4) -0.0873(3)
C2 C 0.8703(6) 0.3489(4) -0.0100(3)
C3 C 0.8347(6) 0.4174(4) 0.0537(3)
H17 H 0.8746 0.3853 0.1068
C4 C 0.7396(6) 0.5338(4) 0.0383(3)
C5 C 0.6769(6) 0.5815(4) -0.0405(3)
C6 C 0.6989(6) 0.5106(4) -0.1019(3)
H18 H 0.6502 0.5412 -0.1533
C7 C 0.8079(6) 0.3142(4) -0.1520(3)
C8 C 0.7014(6) 0.6048(4) 0.1079(3)
C9 C 0.9013(6) 0.4041(4) -0.4858(3)
C10 C 1.0329(6) 0.4062(4) -0.4310(3)
C11 C 1.1306(6) 0.5030(4) -0.4464(3)
H19 H 1.2187 0.5054 -0.4107
C12 C 1.0715(6) 0.3084(4) -0.3570(3)
C13 C 0.6498(6) -0.0759(4) -0.4640(3)
C14 C 0.4315(6) 0.1073(4) -0.4720(3)
H20 H 0.3851 0.1793 -0.4530
C15 C 0.5821(6) 0.0319(4) -0.4361(3)
C16 C 0.6626(6) 0.0694(4) -0.3663(3)
C17 C 1.3231(5) -0.0279(4) 0.0184(2)
H21 H 1.2027 -0.0459 0.0297
C18 C 1.5671(5) 0.0472(3) -0.0854(2)
C19 C 1.3868(5) 0.0171(4) -0.0647(2)
C20 C 1.2521(5) 0.0349(4) -0.1285(2)
Dy1A Dy 1.05846(2) 0.934025(16) -0.773630(11)
Dy1_2 Dy 1.94154(2) 0.065975(16) -0.226370(11)
Dy1A_2 Dy 0.05846(2) -0.065975(16) -0.773630(11)
Dy1A_3 Dy 1.05846(2) -0.065975(16) 0.226370(11)
Dy1A_4 Dy 2.05846(2) -0.065975(16) 0.226370(11)
Dy1A_5 Dy 0.05846(2) 0.934025(16) 0.226370(11)
Dy2A Dy 0.55571(2) 0.735445(16) 0.236029(11)
Dy2_2 Dy 1.44429(2) 0.264555(16) -0.236029(11)
Dy2A_2 Dy 0.55571(2) 0.735445(16) -0.763971(11)
Dy2A_3 Dy 0.55571(2) -0.264555(16) -0.763971(11)
Dy2A_4 Dy 1.55571(2) -0.264555(16) 0.236029(11)
O1A O 0.0742(4) 0.7803(3) 0.1455(2)
O1A_2 O 1.0742(4) 0.7803(3) -0.8545(2)
O3A O 0.3021(4) 0.6563(3) 0.20938(19)
O5A O 0.2671(5) 0.4425(3) -0.1825(2)
O7A O 0.3723(5) 0.2856(3) -0.0914(2)
O9A O 0.0181(6) 0.7582(3) -0.0076(2)
H7A H 0.0053 0.7929 0.0330
O10A O 0.4188(6) 0.3038(3) 0.0608(2)
H8A H 0.4290 0.2694 0.0201
O11A O 1.0213(4) 0.7787(3) -0.65659(19)
O12A O 0.8089(5) 0.6825(3) -0.6874(2)
O12_2 O 0.1911(5) 0.3175(3) -0.3126(2)
O12A_2 O 0.8089(5) 0.6825(3) 0.3126(2)
O13A O 1.2023(5) 0.6868(3) -0.5269(2)
H9A H 1.1537 0.7444 -0.5594
O14A O 0.4110(5) -0.1664(3) -0.65790(19)
O14A_2 O 0.4110(5) 0.8336(3) 0.34210(19)
O15A O 0.1971(4) -0.0042(3) -0.6640(2)
O15A_2 O 1.1971(4) 0.9958(3) -0.6640(2)
O16A O 0.2031(5) 0.1553(3) -0.5673(2)
H10A H 0.1512 0.1234 -0.5968
O17A O 1.7288(4) -0.1065(3) 0.19893(17)
O17_2 O 0.2712(4) 0.1065(3) -0.19893(17)
O17A_2 O 0.7288(4) 0.8935(3) -0.80107(17)
O17A_3 O 0.7288(4) 0.8935(3) 0.19893(17)
O18A O 1.8868(4) 0.0188(3) 0.11176(19)
O18A_2 O 0.8868(4) 1.0188(3) -0.88824(19)
O19A O 1.3665(4) -0.0939(3) 0.16515(16)
O19_2 O 0.6335(4) 0.0939(3) -0.16515(16)
O19A_2 O 1.3665(4) 0.9061(3) -0.83485(16)
O19A_3 O 0.3665(4) 0.9061(3) 0.16515(16)
O20A O 0.8127(4) 1.0446(3) -0.6995(2)
H11A H 0.7141 1.0682 -0.7204
H12A H 0.8019 1.1004 -0.6734
O21A O 1.1159(5) 1.1382(3) -0.8268(2)
H13A H 1.2090 1.1685 -0.8269
H14A H 1.0700 1.1902 -0.8639
O22A O 0.4786(5) 0.5778(3) 0.3533(2)
H15A H 0.4488 0.5163 0.3440
H16A H 0.4221 0.6052 0.3942
C1A C 0.2060(6) 0.6074(4) 0.0873(3)
C2A C 0.1297(6) 0.6511(4) 0.0100(3)
C3A C 0.1653(6) 0.5826(4) -0.0537(3)
H17A H 0.1254 0.6147 -0.1068
C4A C 0.2604(6) 0.4662(4) -0.0383(3)
C5A C 0.3231(6) 0.4185(4) 0.0405(3)
C6A C 0.3011(6) 0.4894(4) 0.1019(3)
H18A H 0.3498 0.4588 0.1533
C7A C 0.1921(6) 0.6858(4) 0.1520(3)
C8A C 0.2986(6) 0.3952(4) -0.1079(3)
C9A C 1.0987(6) 0.5959(4) -0.5142(3)
C10A C 0.9671(6) 0.5938(4) -0.5690(3)
C11A C 0.8694(6) 0.4970(4) -0.5536(3)
H19A H 0.7813 0.4946 -0.5893
C12A C 0.9285(6) 0.6916(4) -0.6430(3)
C13A C 0.3502(6) 0.0759(4) -0.5360(3)
C14A C 0.5685(6) -0.1073(4) -0.5280(3)
H20A H 0.6149 -0.1793 -0.5470
C15A C 0.4179(6) -0.0319(4) -0.5639(3)
C16A C 0.3374(6) -0.0694(4) -0.6337(3)
C17A C 1.6769(5) 0.0279(4) -0.0184(2)
H21A H 1.7973 0.0459 -0.0297
C18A C 1.4329(5) -0.0472(3) 0.0854(2)
C19A C 1.6132(5) -0.0171(4) 0.0647(2)
C20A C 1.7479(5) -0.0349(4) 0.1285(2)
O2 O 0.5140(7) 0.8269(5) -0.2225(3)
O4 O 0.9968(8) 0.3707(6) 0.2590(4)
H1 H 1.0558 0.4148 0.2754
H2 H 0.9616 0.4296 0.2241
O6 O 1.2166(9) -0.2395(5) -0.3714(3)
H3 H 1.2146 -0.2342 -0.4225
H4 H 1.2023 -0.3046 -0.3419
O8 O 0.6336(10) 0.6365(5) -0.3395(4)
H5 H 0.6904 0.6631 -0.3843
H6 H 0.5390 0.6716 -0.3168
loop_
_geom_bond_atom_site_label_1
_geom_bond_atom_site_label_2
_geom_bond_site_symmetry_1
_geom_bond_site_symmetry_2
Dy1 O1 1_555 1_555
Dy2 O3 1_555 1_555
O1 C7 1_555 1_555
O3 C7 1_555 1_555
O4 H1 1_555 1_555
H2 O4 1_555 1_555
O5 C8 1_555 1_555
O6 H3 1_555 1_555
H4 O6 1_555 1_555
O7 C8 1_555 1_555
O8 H5 1_555 1_555
H6 O8 1_555 1_555
O9 H7 1_555 1_555
O10 H8 1_555 1_555
O11 Dy1 1_555 1_555
O12 C12 1_555 1_555
O13 H9 1_555 1_555
O14 Dy2 1_555 1_555
O15 Dy1 1_555 1_555
O16 H10 1_555 1_555
O17 Dy1 1_555 1_555
O18 Dy1 1_555 1_555
O19 C18 1_555 1_555
O20 Dy1 1_555 1_555
H11 O20 1_555 1_555
H12 O20 1_555 1_555
O21 Dy1 1_555 1_555
H13 O21 1_555 1_555
H14 O21 1_555 1_555
O22 Dy2 1_555 1_555
H15 O22 1_555 1_555
H16 O22 1_555 1_555
C1 C2 1_555 1_555
C2 O9 1_555 1_555
C3 C2 1_555 1_555
H17 C3 1_555 1_555
C4 C3 1_555 1_555
C5 O10 1_555 1_555
C6 C1 1_555 1_555
H18 C6 1_555 1_555
C7 C1 1_555 1_555
C8 C4 1_555 1_555
C9 O13 1_555 1_555
C10 C9 1_555 1_555
C11 C10 1_555 1_555
H19 C11 1_555 1_555
C12 O11 1_555 1_555
C13 O16 1_555 1_555
C14 H20 1_555 1_555
C15 C13 1_555 1_555
C16 O14 1_555 1_555
C17 H21 1_555 1_555
C18 C19 1_555 1_555
C19 C17 1_555 1_555
C20 O17 1_555 1_555
Dy1A O1A_2 1_555 1_555
Dy1_2 O19 1_555 1_555
Dy1A_2 O15A 1_555 1_555
Dy1A_3 O19A 1_555 1_555
Dy1A_4 O17A 1_555 1_555
Dy1A_5 O1A 1_555 1_555
Dy2A O5 1_555 1_555
Dy2_2 O12 1_555 1_555
Dy2A_2 O12A 1_555 1_555
Dy2A_3 O14A 1_555 1_555
Dy2A_4 O17A 1_555 1_555
O1A C7A 1_555 1_555
O3A Dy2A 1_555 1_555
O5A Dy2 1_555 1_555
O7A Dy2 1_555 1_555
O9A H7A 1_555 1_555
O10A H8A 1_555 1_555
O11A Dy1A 1_555 1_555
O12A C12A 1_555 1_555
O12_2 Dy2 1_555 1_555
O12A_2 Dy2A 1_555 1_555
O13A H9A 1_555 1_555
O14A C16A 1_555 1_555
O14A_2 Dy2A 1_555 1_555
O15A C16A 1_555 1_555
O15A_2 Dy1A 1_555 1_555
O16A H10A 1_555 1_555
O17A C20A 1_555 1_555
O17_2 Dy2 1_555 1_555
O17A_2 Dy1A 1_555 1_555
O17A_3 Dy2A 1_555 1_555
O18A Dy1A_4 1_555 1_555
O18A_2 Dy1A 1_555 1_555
O19A Dy2A_4 1_555 1_555
O19_2 Dy1 1_555 1_555
O19A_2 Dy1A 1_555 1_555
O19A_3 Dy1A_5 1_555 1_555
O20A Dy1A 1_555 1_555
H11A O20A 1_555 1_555
H12A O20A 1_555 1_555
O21A Dy1A 1_555 1_555
H13A O21A 1_555 1_555
H14A O21A 1_555 1_555
O22A Dy2A 1_555 1_555
H15A O22A 1_555 1_555
H16A O22A 1_555 1_555
C1A C2A 1_555 1_555
C2A O9A 1_555 1_555
C3A C2A 1_555 1_555
H17A C3A 1_555 1_555
C4A C3A 1_555 1_555
C5A O10A 1_555 1_555
C6A C1A 1_555 1_555
H18A C6A 1_555 1_555
C7A O3A 1_555 1_555
C8A O5A 1_555 1_555
C9A C11 1_555 1_555
C10A C9A 1_555 1_555
C11A C9 1_555 1_555
H19A C11A 1_555 1_555
C12A O11A 1_555 1_555
C13A C14 1_555 1_555
C14A C13 1_555 1_555
H20A C14A 1_555 1_555
C15A C13A 1_555 1_555
C16A C15A 1_555 1_555
C17A C18 1_555 1_555
H21A C17A 1_555 1_555
C18A C17 1_555 1_555
C19A C17A 1_555 1_555
C20A O18A 1_555 1_555
Dy2 O19_2 1_555 1_555
O7 Dy2A 1_555 1_555
O15 C16 1_555 1_555
O17 Dy2_2 1_555 1_555
O18 C20 1_555 1_555
O19 Dy2_2 1_555 1_555
C4 C5 1_555 1_555
C5 C6 1_555 1_555
C10 C12 1_555 1_555
C14 C15 1_555 1_555
C15 C16 1_555 1_555
C19 C20 1_555 1_555
Dy2A O19A_3 1_555 1_555
Dy2A_2 O17A_2 1_555 1_555
O7A C8A 1_555 1_555
O13A C9A 1_555 1_555
O16A C13A 1_555 1_555
O19A C18A 1_555 1_555
C1A C7A 1_555 1_555
C4A C5A 1_555 1_555
C4A C8A 1_555 1_555
C5A C6A 1_555 1_555
C10A C11A 1_555 1_555
C10A C12A 1_555 1_555
C14A C15A 1_555 1_555
C18A C19A 1_555 1_555
C19A C20A 1_555 1_555

#END
