
#######################################################################
#
#                 Cambridge Crystallographic Data Centre
#                                CCDC 
#
#######################################################################
#
# If this CIF has been generated from an entry in the Cambridge 
# Structural Database, then it will include bibliographic, chemical, 
# crystal, experimental, refinement or atomic coordinate data resulting 
# from the CCDC's data processing and validation procedures.
#
#######################################################################

data_LOQSUG
_chemical_formula_moiety         '(C187 H178 Er4 N24 O61)n'
_symmetry_cell_setting           rhombohedral
_symmetry_space_group_name_H-M   'R 3 c'
_symmetry_Int_Tables_number      161
_space_group_name_Hall           'R 3 -2"c'
loop_
_symmetry_equiv_pos_site_id
_symmetry_equiv_pos_as_xyz
1 x,y,z
2 -y,x-y,z
3 -x+y,-x,z
4 -y,-x,1/2+z
5 -x+y,y,1/2+z
6 x,x-y,1/2+z
7 2/3+x,1/3+y,1/3+z
8 2/3-y,1/3+x-y,1/3+z
9 2/3-x+y,1/3-x,1/3+z
10 2/3-y,1/3-x,5/6+z
11 2/3-x+y,1/3+y,5/6+z
12 2/3+x,1/3+x-y,5/6+z
13 1/3+x,2/3+y,2/3+z
14 1/3-y,2/3+x-y,2/3+z
15 1/3-x+y,2/3-x,2/3+z
16 1/3-y,2/3-x,1/6+z
17 1/3-x+y,2/3+y,1/6+z
18 1/3+x,2/3+x-y,1/6+z
_cell_length_a                   39.386(2)
_cell_length_b                   39.386(2)
_cell_length_c                   24.133(3)
_cell_angle_alpha                90
_cell_angle_beta                 90
_cell_angle_gamma                120
_cell_volume                     32420.9
loop_
_atom_site_label
_atom_site_type_symbol
_atom_site_fract_x
_atom_site_fract_y
_atom_site_fract_z
_atom_site_U_iso_or_equiv
_atom_site_thermal_displace_type
Er1 Er 0.13370(2) 0.31685(2) 0.46478(5) 0.0563 Uani
Er2 Er 0.3333 0.6667 0.36384(6) 0.0565 Uani
N1 N 0.2463(7) 0.3978(6) 0.3987(10) 0.0963 Uani
H1 H 0.2687 0.4096 0.3823 0.1160 Uiso
N2 N 0.4008(5) 0.4524(6) 0.2038(9) 0.0938 Uani
H2 H 0.3825 0.4397 0.2275 0.1130 Uiso
N3 N 0.2058(6) 0.4032(5) 0.0952(8) 0.1014 Uani
H3 H 0.2157 0.4238 0.1158 0.1220 Uiso
N4 N 0.3141(7) 0.5843(7) 0.2368(10) 0.1013 Uani
H4 H 0.3047 0.5657 0.2128 0.1220 Uiso
N5 N 0.1074(6) 0.2571(6) 0.3840(8) 0.1004 Uani
N6 N 0.0711(5) 0.2725(6) 0.5362(8) 0.1034 Uani
N7 N 0.1021(5) 0.3591(6) 0.4152(8) 0.1002 Uani
N8 N 0.3807(7) 0.6458(6) 0.4244(10) 0.1232 Uani
O1 O 0.2623(4) 0.3963(4) 0.2824(7) 0.0871 Uani
O2 O 0.3595(4) 0.4827(5) 0.2569(7) 0.0896 Uani
O3 O 0.2784(5) 0.4552(5) 0.1324(7) 0.0966 Uani
O4 O 0.2659(5) 0.5005(4) 0.2537(7) 0.0858 Uani
O5 O 0.1907(5) 0.3441(4) 0.4141(7) 0.0777 Uani
O6 O 0.4635(4) 0.5025(4) 0.1883(7) 0.0749 Uani
O7 O 0.2065(5) 0.3720(5) 0.0157(7) 0.0844 Uani
O8 O 0.3039(4) 0.6130(4) 0.3058(6) 0.0707 Uani
O9 O 0.1032(5) 0.2865(5) 0.3771(7) 0.1112 Uani
O10 O 0.1309(5) 0.2590(4) 0.4217(6) 0.0909 Uani
O11 O 0.0991(8) 0.2327(5) 0.3465(8) 0.1473 Uani
O12 O 0.0971(4) 0.3058(4) 0.5504(7) 0.0940 Uani
O13 O 0.0732(5) 0.2593(5) 0.4891(7) 0.1159 Uani
O14 O 0.0411(6) 0.2531(7) 0.5657(10) 0.1740 Uani
O15 O 0.0844(5) 0.3350(5) 0.4537(7) 0.1108 Uani
O16 O 0.1365(4) 0.3672(5) 0.4029(7) 0.0944 Uani
O17 O 0.0865(6) 0.3757(7) 0.3910(9) 0.1354 Uani
O18 O 0.3616(5) 0.6257(4) 0.3832(7) 0.0979 Uani
O19 O 0.3796(6) 0.6765(5) 0.4354(9) 0.1371 Uani
O20 O 0.4063(7) 0.6396(6) 0.4452(10) 0.1559 Uani
C1 C 0.2923(6) 0.4590(6) 0.2317(9) 0.0642 Uani
C2 C 0.2846(7) 0.4183(6) 0.2289(9) 0.0770 Uani
H5 H 0.3092 0.4182 0.2262 0.0920 Uiso
H6 H 0.2690 0.4052 0.1965 0.0920 Uiso
C3 C 0.3203(7) 0.4792(7) 0.2769(10) 0.0798 Uani
H7 H 0.3115 0.4642 0.3109 0.0960 Uiso
H8 H 0.3235 0.5049 0.2833 0.0960 Uiso
C4 C 0.3071(7) 0.4769(7) 0.1736(10) 0.0813 Uani
H9 H 0.3129 0.5039 0.1734 0.0980 Uiso
H10 H 0.3311 0.4767 0.1652 0.0980 Uiso
C5 C 0.2567(7) 0.4616(7) 0.2451(11) 0.0831 Uani
H11 H 0.2381 0.4503 0.2150 0.1000 Uiso
H12 H 0.2445 0.4463 0.2782 0.1000 Uiso
C6 C 0.2211(7) 0.3604(7) 0.3834(11) 0.0806 Uani
C7 C 0.2226(6) 0.3403(6) 0.3316(9) 0.0812 Uani
C8 C 0.2437(6) 0.3552(6) 0.2842(8) 0.0794 Uani
C9 C 0.2484(7) 0.3343(6) 0.2441(10) 0.0910 Uani
H13 H 0.2636 0.3466 0.2130 0.1100 Uiso
C10 C 0.2307(7) 0.2958(6) 0.2501(10) 0.0938 Uani
H14 H 0.2354 0.2813 0.2239 0.1120 Uiso
C11 C 0.2067(7) 0.2771(7) 0.2918(9) 0.0897 Uani
H15 H 0.1901 0.2500 0.2931 0.1070 Uiso
C12 C 0.2092(7) 0.3015(6) 0.3311(10) 0.0953 Uani
H16 H 0.1998 0.2894 0.3653 0.1150 Uiso
C13 C 0.2397(7) 0.4167(6) 0.4348(12) 0.0972 Uani
H17 H 0.2374 0.4049 0.4709 0.1170 Uiso
H18 H 0.2153 0.4160 0.4266 0.1170 Uiso
C14 C 0.2737(6) 0.4595(5) 0.4354(11) 0.1108 Uani
C15 C 0.2700(6) 0.4889(7) 0.4113(12) 0.1156 Uani
H19 H 0.2459 0.4840 0.3974 0.1380 Uiso
C16 C 0.3019(7) 0.5254(6) 0.4080(11) 0.1197 Uani
H20 H 0.3018 0.5438 0.3840 0.1430 Uiso
C17 C 0.3340(7) 0.5351(6) 0.4395(12) 0.1239 Uani
H21 H 0.3547 0.5608 0.4400 0.1490 Uiso
C18 C 0.3359(6) 0.5073(7) 0.4702(12) 0.1208 Uani
H22 H 0.3565 0.5140 0.4948 0.1450 Uiso
C19 C 0.3072(6) 0.4695(6) 0.4645(11) 0.1067 Uani
H23 H 0.3104 0.4498 0.4806 0.1280 Uiso
C20 C 0.4324(5) 0.4888(6) 0.2108(10) 0.0738 Uani
C21 C 0.4269(7) 0.5118(7) 0.2644(10) 0.0864 Uani
C22 C 0.3939(7) 0.5080(6) 0.2868(9) 0.0873 Uani
C23 C 0.3926(7) 0.5251(7) 0.3340(9) 0.0869 Uani
H24 H 0.3686 0.5207 0.3478 0.1050 Uiso
C24 C 0.4259(7) 0.5486(7) 0.3613(11) 0.0986 Uani
H25 H 0.4253 0.5599 0.3949 0.1180 Uiso
C25 C 0.4596(7) 0.5556(7) 0.3403(9) 0.0930 Uani
H26 H 0.4834 0.5743 0.3554 0.1120 Uiso
C26 C 0.4578(7) 0.5342(7) 0.2957(9) 0.0927 Uani
H27 H 0.4812 0.5354 0.2857 0.1110 Uiso
C27 C 0.4038(6) 0.4388(8) 0.1485(10) 0.0960 Uani
H28 H 0.4257 0.4341 0.1465 0.1150 Uiso
H29 H 0.4073 0.4580 0.1205 0.1150 Uiso
C28 C 0.3645(5) 0.4003(7) 0.1402(12) 0.1087 Uani
C29 C 0.3367(6) 0.3990(7) 0.1057(12) 0.1233 Uani
H30 H 0.3414 0.4215 0.0866 0.1480 Uiso
C30 C 0.3022(7) 0.3652(7) 0.0986(12) 0.1258 Uani
H31 H 0.2818 0.3656 0.0796 0.1510 Uiso
C31 C 0.2971(6) 0.3309(8) 0.1191(13) 0.1251 Uani
H32 H 0.2738 0.3075 0.1129 0.1510 Uiso
C32 C 0.3267(6) 0.3312(7) 0.1490(13) 0.1241 Uani
H33 H 0.3243 0.3077 0.1612 0.1490 Uiso
C33 C 0.3591(7) 0.3653(7) 0.1606(11) 0.1156 Uani
H34 H 0.3783 0.3653 0.1831 0.1380 Uiso
C34 C 0.2227(7) 0.4003(7) 0.0486(9) 0.0823 Uani
C35 C 0.2648(8) 0.4357(6) 0.0413(7) 0.0940 Uani
C36 C 0.2907(7) 0.4621(6) 0.0790(7) 0.0817 Uani
C37 C 0.3232(8) 0.4947(5) 0.0620(7) 0.0916 Uani
H35 H 0.3382 0.5140 0.0877 0.1100 Uiso
C38 C 0.3346(7) 0.5000(6) 0.0077(7) 0.0918 Uani
H36 H 0.3579 0.5219 -0.0036 0.1100 Uiso
C39 C 0.3108(8) 0.4723(6) -0.0292(7) 0.0923 Uani
H37 H 0.3189 0.4736 -0.0658 0.1100 Uiso
C40 C 0.2755(8) 0.4429(6) -0.0130(7) 0.0942 Uani
H38 H 0.2578 0.4269 -0.0399 0.1130 Uiso
C41 C 0.1684(8) 0.3672(6) 0.1073(8) 0.0869 Uani
H39 H 0.1494 0.3623 0.0784 0.1040 Uiso
H40 H 0.1723 0.3448 0.1098 0.1040 Uiso
C42 C 0.1546(6) 0.3742(7) 0.1617(7) 0.0944 Uani
C43 C 0.1608(6) 0.3576(8) 0.2068(9) 0.1139 Uani
H41 H 0.1743 0.3439 0.2034 0.1360 Uiso
C44 C 0.1475(7) 0.3611(8) 0.2567(8) 0.1129 Uani
H42 H 0.1511 0.3489 0.2873 0.1360 Uiso
C45 C 0.1287(7) 0.3818(8) 0.2634(8) 0.1231 Uani
H43 H 0.1253 0.3896 0.2983 0.1480 Uiso
C46 C 0.1150(6) 0.3910(8) 0.2170(9) 0.1148 Uani
H44 H 0.0959 0.3982 0.2195 0.1380 Uiso
C47 C 0.1300(6) 0.3894(7) 0.1674(8) 0.1061 Uani
H45 H 0.1235 0.3988 0.1362 0.1270 Uiso
C48 C 0.2929(8) 0.5838(8) 0.2726(11) 0.0867 Uani
C49 C 0.2523(6) 0.5478(6) 0.2893(10) 0.0812 Uani
C50 C 0.2375(6) 0.5090(5) 0.2797(11) 0.0926 Uani
C51 C 0.2001(6) 0.4802(7) 0.2839(11) 0.0949 Uani
H46 H 0.1922 0.4552 0.2706 0.1140 Uiso
C52 C 0.1744(7) 0.4883(7) 0.3077(11) 0.1002 Uani
H47 H 0.1487 0.4693 0.3155 0.1200 Uiso
C53 C 0.1885(7) 0.5251(6) 0.3188(12) 0.0994 Uani
H48 H 0.1712 0.5319 0.3343 0.1200 Uiso
C54 C 0.2244(6) 0.5538(6) 0.3108(10) 0.0892 Uani
H49 H 0.2306 0.5792 0.3203 0.1070 Uiso
C55 C 0.3515(8) 0.6121(8) 0.2318(13) 0.1089 Uani
H50 H 0.3651 0.6151 0.2666 0.1310 Uiso
H51 H 0.3533 0.6369 0.2227 0.1310 Uiso
C56 C 0.3715(8) 0.5997(8) 0.1837(10) 0.1164 Uani
C57 C 0.3957(9) 0.5861(8) 0.2001(9) 0.1319 Uani
H52 H 0.4007 0.5851 0.2375 0.1590 Uiso
C58 C 0.4121(8) 0.5742(8) 0.1615(11) 0.1259 Uani
H53 H 0.4246 0.5604 0.1721 0.1510 Uiso
C59 C 0.4107(8) 0.5822(9) 0.1077(10) 0.1330 Uani
H54 H 0.4208 0.5726 0.0810 0.1590 Uiso
C60 C 0.3944(8) 0.6042(8) 0.0920(9) 0.1310 Uani
H55 H 0.3983 0.6147 0.0565 0.1570 Uiso
C61 C 0.3725(8) 0.6106(8) 0.1295(11) 0.1220 Uani
H56 H 0.3582 0.6224 0.1184 0.1470 Uiso
Er1A Er 0.68315(2) 0.81685(3) 0.46478(5) 0.0563 Uani
Er1B Er 0.18315(3) 0.86630(2) 0.46478(5) 0.0563 Uani
Er1N Er 0.51648(3) 0.53297(2) 0.13145(5) 0.0563 Uani
Er1D Er 0.18315(3) 0.31685(2) -0.03522(5) 0.0563 Uani
Er1L Er 0.46703(2) 0.98352(2) 0.13145(5) 0.0563 Uani
Er1C Er 0.68315(2) 0.86630(2) -0.03522(5) 0.0563 Uani
Er1M Er 0.01648(2) 0.48352(3) 0.13145(5) 0.0563 Uani
Er1E Er 0.13370(2) 0.81685(3) -0.03522(5) 0.0563 Uani
N1A N 0.6022(6) 0.8485(9) 0.3987(10) 0.0963 Uani
N1B N 0.1515(9) 0.7537(7) 0.3987(10) 0.0963 Uani
H1A H 0.5904 0.8591 0.3823 0.1160 Uiso
H1B H 0.1409 0.7313 0.3823 0.1160 Uiso
N2A N 0.5476(6) 0.9484(8) 0.2038(9) 0.0938 Uani
N2B N 0.0516(8) 0.5992(5) 0.2038(9) 0.0938 Uani
H2A H 0.5603 0.9428 0.2275 0.1130 Uiso
H2B H 0.0572 0.6175 0.2275 0.1130 Uiso
N3A N 0.5968(5) 0.8026(8) 0.0952(8) 0.1014 Uani
N3B N 0.1974(8) 0.7942(6) 0.0952(8) 0.1014 Uani
H3A H 0.5762 0.7919 0.1158 0.1220 Uiso
H3B H 0.2081 0.7843 0.1158 0.1220 Uiso
N4A N 0.4157(7) 0.7298(10) 0.2368(10) 0.1013 Uani
N4B N 0.2702(10) 0.6859(7) 0.2368(10) 0.1013 Uani
H4A H 0.4343 0.7390 0.2128 0.1220 Uiso
H4B H 0.2610 0.6953 0.2128 0.1220 Uiso
N5A N 0.7429(6) 0.8503(8) 0.3840(8) 0.1004 Uani
N5B N 0.1497(8) 0.8926(6) 0.3840(8) 0.1004 Uani
N6A N 0.7275(6) 0.7986(8) 0.5362(8) 0.1034 Uani
N6B N 0.2014(8) 0.9289(5) 0.5362(8) 0.1034 Uani
N7A N 0.6409(6) 0.7430(8) 0.4152(8) 0.1002 Uani
N7B N 0.2570(8) 0.8979(5) 0.4152(8) 0.1002 Uani
N8A N 0.3542(6) 0.7349(9) 0.4244(10) 0.1232 Uani
N8B N 0.2651(9) 0.6193(7) 0.4244(10) 0.1232 Uani
O1A O 0.6037(4) 0.8660(6) 0.2824(7) 0.0871 Uani
O1B O 0.1340(6) 0.7377(4) 0.2824(7) 0.0871 Uani
O2A O 0.5173(5) 0.8768(6) 0.2569(7) 0.0896 Uani
O2B O 0.1232(6) 0.6405(4) 0.2569(7) 0.0896 Uani
O3A O 0.5448(5) 0.8232(7) 0.1324(7) 0.0966 Uani
O3B O 0.1768(7) 0.7216(5) 0.1324(7) 0.0966 Uani
O4A O 0.4995(4) 0.7654(6) 0.2537(7) 0.0858 Uani
O4B O 0.2346(6) 0.7341(5) 0.2537(7) 0.0858 Uani
O5A O 0.6559(4) 0.8466(6) 0.4141(7) 0.0777 Uani
O5B O 0.1534(6) 0.8093(5) 0.4141(7) 0.0777 Uani
O6A O 0.4975(4) 0.9610(6) 0.1883(7) 0.0749 Uani
O6B O 0.0390(6) 0.5365(4) 0.1883(7) 0.0749 Uani
O6G O 0.1642(4) 0.2943(6) 0.5216(7) 0.0749 Uani
O6H O 0.7057(6) 0.8698(4) 0.5216(7) 0.0749 Uani
O6F O 0.1302(4) 0.8358(4) 0.5216(7) 0.0749 Uani
O7A O 0.6280(5) 0.8345(7) 0.0157(7) 0.0844 Uani
O7B O 0.1655(7) 0.7935(5) 0.0157(7) 0.0844 Uani
O7D O 0.1655(7) 0.3720(5) 0.5157(7) 0.0844 Uani
O7C O 0.6280(5) 0.7935(5) 0.5157(7) 0.0844 Uani
O7E O 0.2065(5) 0.8345(7) 0.5157(7) 0.0844 Uani
O8A O 0.3870(4) 0.6909(6) 0.3058(6) 0.0707 Uani
O8B O 0.3091(6) 0.6961(4) 0.3058(6) 0.0707 Uani
O9A O 0.7135(5) 0.8167(7) 0.3771(7) 0.1112 Uani
O9B O 0.1833(7) 0.8968(5) 0.3771(7) 0.1112 Uani
O10A O 0.7410(4) 0.8719(6) 0.4217(6) 0.0909 Uani
O10B O 0.1281(6) 0.8691(5) 0.4217(6) 0.0909 Uani
O11A O 0.7673(5) 0.8664(9) 0.3465(8) 0.1473 Uani
O11B O 0.1336(9) 0.9009(8) 0.3465(8) 0.1473 Uani
O12A O 0.6942(4) 0.7913(6) 0.5504(7) 0.0940 Uani
O12B O 0.2087(6) 0.9029(4) 0.5504(7) 0.0940 Uani
O13A O 0.7407(5) 0.8139(7) 0.4891(7) 0.1159 Uani
O13B O 0.1861(7) 0.9268(5) 0.4891(7) 0.1159 Uani
O14A O 0.7469(7) 0.7880(9) 0.5657(10) 0.1740 Uani
O14B O 0.2120(9) 0.9589(6) 0.5657(10) 0.1740 Uani
O15A O 0.6650(5) 0.7494(7) 0.4537(7) 0.1108 Uani
O15B O 0.2506(7) 0.9156(5) 0.4537(7) 0.1108 Uani
O16A O 0.6328(5) 0.7693(6) 0.4029(7) 0.0944 Uani
O16B O 0.2307(6) 0.8635(4) 0.4029(7) 0.0944 Uani
O17A O 0.6243(7) 0.7108(9) 0.3910(9) 0.1354 Uani
O17B O 0.2892(9) 0.9135(6) 0.3910(9) 0.1354 Uani
O18A O 0.3743(4) 0.7359(6) 0.3832(7) 0.0979 Uani
O18B O 0.2641(6) 0.6384(5) 0.3832(7) 0.0979 Uani
O19A O 0.3235(5) 0.7031(8) 0.4354(9) 0.1371 Uani
O19B O 0.2969(8) 0.6204(6) 0.4354(9) 0.1371 Uani
O20B O 0.2333(9) 0.5937(7) 0.4452(10) 0.1559 Uani
O20A O 0.3604(6) 0.7667(9) 0.4452(10) 0.1559 Uani
C1A C 0.5410(6) 0.8333(8) 0.2317(9) 0.0642 Uani
C1B C 0.1667(8) 0.7077(6) 0.2317(9) 0.0642 Uani
C2A C 0.5817(6) 0.8663(9) 0.2289(9) 0.0770 Uani
C2B C 0.1337(9) 0.7154(7) 0.2289(9) 0.0770 Uani
H5A H 0.5818 0.8910 0.2262 0.0920 Uiso
H5B H 0.1090 0.6908 0.2262 0.0920 Uiso
H6A H 0.5948 0.8638 0.1965 0.0920 Uiso
H6B H 0.1362 0.7310 0.1965 0.0920 Uiso
C3A C 0.5208(7) 0.8411(10) 0.2769(10) 0.0798 Uani
C3B C 0.1589(10) 0.6797(7) 0.2769(10) 0.0798 Uani
H7A H 0.5358 0.8473 0.3109 0.0960 Uiso
H7B H 0.1527 0.6885 0.3109 0.0960 Uiso
H8A H 0.4951 0.8186 0.2833 0.0960 Uiso
H8B H 0.1814 0.6765 0.2833 0.0960 Uiso
C4A C 0.5231(7) 0.8302(10) 0.1736(10) 0.0813 Uani
C4B C 0.1698(10) 0.6929(7) 0.1736(10) 0.0813 Uani
H9A H 0.4961 0.8090 0.1734 0.0980 Uiso
H9B H 0.1910 0.6871 0.1734 0.0980 Uiso
H10A H 0.5233 0.8544 0.1652 0.0980 Uiso
H10B H 0.1456 0.6689 0.1652 0.0980 Uiso
C5A C 0.5384(7) 0.7951(10) 0.2451(11) 0.0831 Uani
C5B C 0.2049(10) 0.7433(7) 0.2451(11) 0.0831 Uani
H11A H 0.5497 0.7878 0.2150 0.1000 Uiso
H11B H 0.2122 0.7619 0.2150 0.1000 Uiso
H12A H 0.5537 0.7982 0.2782 0.1000 Uiso
H12B H 0.2018 0.7555 0.2782 0.1000 Uiso
C6A C 0.6396(7) 0.8607(10) 0.3834(11) 0.0806 Uani
C6B C 0.1393(10) 0.7789(7) 0.3834(11) 0.0806 Uani
C7A C 0.6597(6) 0.8823(8) 0.3316(9) 0.0812 Uani
C7B C 0.1177(8) 0.7774(6) 0.3316(9) 0.0812 Uani
C8A C 0.6448(6) 0.8885(8) 0.2842(8) 0.0794 Uani
C8B C 0.1115(8) 0.7563(6) 0.2842(8) 0.0794 Uani
C9A C 0.6657(6) 0.9141(9) 0.2441(10) 0.0910 Uani
C9B C 0.0859(9) 0.7516(7) 0.2441(10) 0.0910 Uani
H13A H 0.6534 0.9170 0.2130 0.1100 Uiso
H13B H 0.0830 0.7364 0.2130 0.1100 Uiso
C10A C 0.7042(6) 0.9349(9) 0.2501(10) 0.0938 Uani
C10B C 0.0651(9) 0.7693(7) 0.2501(10) 0.0938 Uani
H14A H 0.7187 0.9541 0.2239 0.1120 Uiso
H14B H 0.0459 0.7646 0.2239 0.1120 Uiso
C11A C 0.7229(7) 0.9296(10) 0.2918(9) 0.0897 Uani
C11B C 0.0704(10) 0.7933(7) 0.2918(9) 0.0897 Uani
H15A H 0.7500 0.9401 0.2931 0.1070 Uiso
H15B H 0.0599 0.8099 0.2931 0.1070 Uiso
C12A C 0.6985(6) 0.9077(9) 0.3311(10) 0.0953 Uani
C12B C 0.0923(9) 0.7908(7) 0.3311(10) 0.0953 Uani
H16A H 0.7106 0.9104 0.3653 0.1150 Uiso
H16B H 0.0896 0.8002 0.3653 0.1150 Uiso
C13A C 0.5833(6) 0.8230(9) 0.4348(12) 0.0972 Uani
C13B C 0.1770(9) 0.7603(7) 0.4348(12) 0.0972 Uani
H17A H 0.5951 0.8325 0.4709 0.1170 Uiso
H17B H 0.1675 0.7626 0.4709 0.1170 Uiso
H18A H 0.5840 0.7993 0.4266 0.1170 Uiso
H18B H 0.2007 0.7847 0.4266 0.1170 Uiso
C14A C 0.5405(5) 0.8142(8) 0.4354(11) 0.1108 Uani
C14B C 0.1858(8) 0.7263(6) 0.4354(11) 0.1108 Uani
C15A C 0.5111(7) 0.7811(9) 0.4113(12) 0.1156 Uani
C15B C 0.2189(9) 0.7300(6) 0.4113(12) 0.1156 Uani
H19A H 0.5160 0.7619 0.3974 0.1380 Uiso
H19B H 0.2381 0.7541 0.3974 0.1380 Uiso
C16A C 0.4746(6) 0.7765(9) 0.4080(11) 0.1197 Uani
C16B C 0.2235(9) 0.6981(7) 0.4080(11) 0.1197 Uani
H20A H 0.4562 0.7580 0.3840 0.1430 Uiso
H20B H 0.2420 0.6982 0.3840 0.1430 Uiso
C17A C 0.4649(6) 0.7989(9) 0.4395(12) 0.1239 Uani
C17B C 0.2011(9) 0.6660(7) 0.4395(12) 0.1239 Uani
H21A H 0.4392 0.7939 0.4400 0.1490 Uiso
H21B H 0.2061 0.6453 0.4400 0.1490 Uiso
C18A C 0.4927(7) 0.8286(9) 0.4702(12) 0.1208 Uani
C18B C 0.1714(9) 0.6641(6) 0.4702(12) 0.1208 Uani
H22A H 0.4860 0.8425 0.4948 0.1450 Uiso
H22B H 0.1575 0.6435 0.4948 0.1450 Uiso
C19A C 0.5305(6) 0.8377(8) 0.4645(11) 0.1067 Uani
C19B C 0.1623(8) 0.6928(6) 0.4645(11) 0.1067 Uani
H23A H 0.5502 0.8606 0.4806 0.1280 Uiso
H23B H 0.1394 0.6896 0.4806 0.1280 Uiso
C20A C 0.5112(6) 0.9436(8) 0.2108(10) 0.0738 Uani
C20B C 0.0564(8) 0.5676(5) 0.2108(10) 0.0738 Uani
C21A C 0.4882(7) 0.9151(10) 0.2644(10) 0.0864 Uani
C21B C 0.0849(10) 0.5731(7) 0.2644(10) 0.0864 Uani
C22A C 0.4920(6) 0.8859(9) 0.2868(9) 0.0873 Uani
C22B C 0.1141(9) 0.6061(7) 0.2868(9) 0.0873 Uani
C23A C 0.4749(7) 0.8675(10) 0.3340(9) 0.0869 Uani
C23B C 0.1325(10) 0.6074(7) 0.3340(9) 0.0869 Uani
H24A H 0.4793 0.8479 0.3478 0.1050 Uiso
H24B H 0.1521 0.6314 0.3478 0.1050 Uiso
C24A C 0.4514(7) 0.8773(10) 0.3613(11) 0.0986 Uani
C24B C 0.1227(10) 0.5741(7) 0.3613(11) 0.0986 Uani
H25A H 0.4401 0.8654 0.3949 0.1180 Uiso
H25B H 0.1346 0.5747 0.3949 0.1180 Uiso
C25A C 0.4444(7) 0.9040(10) 0.3403(9) 0.0930 Uani
C25B C 0.0960(10) 0.5404(7) 0.3403(9) 0.0930 Uani
H26A H 0.4257 0.9091 0.3554 0.1120 Uiso
H26B H 0.0909 0.5166 0.3554 0.1120 Uiso
C26A C 0.4658(7) 0.9236(10) 0.2957(9) 0.0927 Uani
C26B C 0.0764(10) 0.5422(7) 0.2957(9) 0.0927 Uani
H27A H 0.4646 0.9458 0.2857 0.1110 Uiso
H27B H 0.0542 0.5188 0.2857 0.1110 Uiso
C27A C 0.5612(8) 0.9650(10) 0.1485(10) 0.0960 Uani
C27B C 0.0350(10) 0.5962(6) 0.1485(10) 0.0960 Uani
H28A H 0.5659 0.9916 0.1465 0.1150 Uiso
H28B H 0.0084 0.5743 0.1465 0.1150 Uiso
H29A H 0.5420 0.9493 0.1205 0.1150 Uiso
H29B H 0.0507 0.5927 0.1205 0.1150 Uiso
C28A C 0.5997(7) 0.9642(9) 0.1402(12) 0.1087 Uani
C28B C 0.0358(9) 0.6355(5) 0.1402(12) 0.1087 Uani
C29A C 0.6010(7) 0.9377(9) 0.1057(12) 0.1233 Uani
C29B C 0.0623(9) 0.6633(6) 0.1057(12) 0.1233 Uani
H30A H 0.5785 0.9199 0.0866 0.1480 Uiso
H30B H 0.0801 0.6586 0.0866 0.1480 Uiso
C30A C 0.6348(7) 0.9370(10) 0.0986(12) 0.1258 Uani
C30B C 0.0630(10) 0.6978(7) 0.0986(12) 0.1258 Uani
H31A H 0.6344 0.9162 0.0796 0.1510 Uiso
H31B H 0.0838 0.7182 0.0796 0.1510 Uiso
C31A C 0.6691(8) 0.9662(10) 0.1191(13) 0.1251 Uani
C31B C 0.0338(10) 0.7029(6) 0.1191(13) 0.1251 Uani
H32A H 0.6925 0.9663 0.1129 0.1510 Uiso
H32B H 0.0337 0.7262 0.1129 0.1510 Uiso
C32A C 0.6688(7) 0.9955(9) 0.1490(13) 0.1241 Uani
C32B C 0.0045(9) 0.6733(6) 0.1490(13) 0.1241 Uani
H33A H 0.6923 1.0166 0.1612 0.1490 Uiso
H33B H -0.0166 0.6757 0.1612 0.1490 Uiso
C33A C 0.6347(7) 0.9938(10) 0.1606(11) 0.1156 Uani
C33B C 0.0062(10) 0.6409(7) 0.1606(11) 0.1156 Uani
H34A H 0.6347 1.0130 0.1831 0.1380 Uiso
H34B H -0.0130 0.6217 0.1831 0.1380 Uiso
C34A C 0.5997(7) 0.8224(10) 0.0486(9) 0.0823 Uani
C34B C 0.1776(10) 0.7773(7) 0.0486(9) 0.0823 Uani
C35A C 0.5643(6) 0.8291(10) 0.0413(7) 0.0940 Uani
C35B C 0.1709(10) 0.7352(8) 0.0413(7) 0.0940 Uani
C36A C 0.5379(6) 0.8286(9) 0.0790(7) 0.0817 Uani
C36B C 0.1714(9) 0.7093(7) 0.0790(7) 0.0817 Uani
C37A C 0.5053(5) 0.8285(9) 0.0620(7) 0.0916 Uani
C37B C 0.1715(9) 0.6768(8) 0.0620(7) 0.0916 Uani
H35A H 0.4860 0.8242 0.0877 0.1100 Uiso
H35B H 0.1758 0.6618 0.0877 0.1100 Uiso
C38A C 0.5000(6) 0.8346(9) 0.0077(7) 0.0918 Uani
C38B C 0.1654(9) 0.6654(7) 0.0077(7) 0.0918 Uani
H36A H 0.4781 0.8360 -0.0036 0.1100 Uiso
H36B H 0.1640 0.6421 -0.0036 0.1100 Uiso
C39A C 0.5277(6) 0.8385(10) -0.0292(7) 0.0923 Uani
C39B C 0.1615(10) 0.6892(8) -0.0292(7) 0.0923 Uani
H37A H 0.5264 0.8453 -0.0658 0.1100 Uiso
H37B H 0.1547 0.6811 -0.0658 0.1100 Uiso
C40A C 0.5571(6) 0.8326(10) -0.0130(7) 0.0942 Uani
C40B C 0.1674(10) 0.7245(8) -0.0130(7) 0.0942 Uani
H38A H 0.5731 0.8309 -0.0399 0.1130 Uiso
H38B H 0.1691 0.7422 -0.0399 0.1130 Uiso
C41A C 0.6328(6) 0.8012(10) 0.1073(8) 0.0869 Uani
C41B C 0.1988(10) 0.8316(8) 0.1073(8) 0.0869 Uani
H39A H 0.6377 0.7871 0.0784 0.1040 Uiso
H39B H 0.2129 0.8506 0.0784 0.1040 Uiso
H40A H 0.6552 0.8275 0.1098 0.1040 Uiso
H40B H 0.1725 0.8277 0.1098 0.1040 Uiso
C42A C 0.6258(7) 0.7804(9) 0.1617(7) 0.0944 Uani
C42B C 0.2196(9) 0.8454(6) 0.1617(7) 0.0944 Uani
C43A C 0.6424(8) 0.8032(10) 0.2068(9) 0.1139 Uani
C43B C 0.1968(10) 0.8392(6) 0.2068(9) 0.1139 Uani
H41A H 0.6561 0.8304 0.2034 0.1360 Uiso
H41B H 0.1696 0.8257 0.2034 0.1360 Uiso
C44A C 0.6389(8) 0.7864(11) 0.2567(8) 0.1129 Uani
C44B C 0.2136(11) 0.8525(7) 0.2567(8) 0.1129 Uani
H42A H 0.6511 0.8022 0.2873 0.1360 Uiso
H42B H 0.1978 0.8489 0.2873 0.1360 Uiso
C45A C 0.6182(8) 0.7469(11) 0.2634(8) 0.1231 Uani
C45B C 0.2531(11) 0.8713(7) 0.2634(8) 0.1231 Uani
H43A H 0.6104 0.7357 0.2983 0.1480 Uiso
H43B H 0.2643 0.8747 0.2983 0.1480 Uiso
C46A C 0.6090(8) 0.7240(10) 0.2170(9) 0.1148 Uani
C46B C 0.2760(10) 0.8850(6) 0.2170(9) 0.1148 Uani
H44A H 0.6018 0.6977 0.2195 0.1380 Uiso
H44B H 0.3023 0.9041 0.2195 0.1380 Uiso
C47A C 0.6106(7) 0.7406(9) 0.1674(8) 0.1061 Uani
C47B C 0.2594(9) 0.8700(6) 0.1674(8) 0.1061 Uani
H45A H 0.6012 0.7247 0.1362 0.1270 Uiso
H45B H 0.2753 0.8765 0.1362 0.1270 Uiso
C48A C 0.4162(8) 0.7091(11) 0.2726(11) 0.0867 Uani
C48B C 0.2909(11) 0.7071(8) 0.2726(11) 0.0867 Uani
C49A C 0.4522(6) 0.7045(8) 0.2893(10) 0.0812 Uani
C49B C 0.2955(8) 0.7477(6) 0.2893(10) 0.0812 Uani
C50A C 0.4910(5) 0.7285(8) 0.2797(11) 0.0926 Uani
C50B C 0.2715(8) 0.7625(6) 0.2797(11) 0.0926 Uani
C51A C 0.5198(7) 0.7199(9) 0.2839(11) 0.0949 Uani
C51B C 0.2801(9) 0.7999(6) 0.2839(11) 0.0949 Uani
H46A H 0.5448 0.7370 0.2706 0.1140 Uiso
H46B H 0.2630 0.8078 0.2706 0.1140 Uiso
C52A C 0.5117(7) 0.6861(10) 0.3077(11) 0.1002 Uani
C52B C 0.3139(10) 0.8256(7) 0.3077(11) 0.1002 Uani
H47A H 0.5307 0.6794 0.3155 0.1200 Uiso
H47B H 0.3206 0.8513 0.3155 0.1200 Uiso
C53A C 0.4749(6) 0.6634(9) 0.3188(12) 0.0994 Uani
C53B C 0.3366(9) 0.8115(7) 0.3188(12) 0.0994 Uani
H48A H 0.4681 0.6393 0.3343 0.1200 Uiso
H48B H 0.3607 0.8288 0.3343 0.1200 Uiso
C54A C 0.4462(6) 0.6706(8) 0.3108(10) 0.0892 Uani
C54B C 0.3294(8) 0.7756(6) 0.3108(10) 0.0892 Uani
H49A H 0.4208 0.6514 0.3203 0.1070 Uiso
H49B H 0.3486 0.7694 0.3203 0.1070 Uiso
C55A C 0.3879(8) 0.7394(11) 0.2318(13) 0.1089 Uani
C55B C 0.2606(11) 0.6485(8) 0.2318(13) 0.1089 Uani
H50A H 0.3849 0.7500 0.2666 0.1310 Uiso
H50B H 0.2500 0.6349 0.2666 0.1310 Uiso
H51A H 0.3631 0.7164 0.2227 0.1310 Uiso
H51B H 0.2836 0.6467 0.2227 0.1310 Uiso
C56A C 0.4003(8) 0.7718(11) 0.1837(10) 0.1164 Uani
C56B C 0.2282(11) 0.6285(8) 0.1837(10) 0.1164 Uani
C57A C 0.4139(8) 0.8096(12) 0.2001(9) 0.1319 Uani
C57B C 0.1904(12) 0.6043(9) 0.2001(9) 0.1319 Uani
H52A H 0.4149 0.8156 0.2375 0.1590 Uiso
H52B H 0.1844 0.5993 0.2375 0.1590 Uiso
C58A C 0.4258(8) 0.8379(11) 0.1615(11) 0.1259 Uani
C58B C 0.1621(11) 0.5879(8) 0.1615(11) 0.1259 Uani
H53A H 0.4396 0.8642 0.1721 0.1510 Uiso
H53B H 0.1358 0.5754 0.1721 0.1510 Uiso
C59A C 0.4178(9) 0.8285(12) 0.1077(10) 0.1330 Uani
C59B C 0.1715(12) 0.5893(8) 0.1077(10) 0.1330 Uani
H54A H 0.4274 0.8482 0.0810 0.1590 Uiso
H54B H 0.1518 0.5792 0.0810 0.1590 Uiso
C60A C 0.3958(8) 0.7902(11) 0.0920(9) 0.1310 Uani
C60B C 0.2098(11) 0.6056(8) 0.0920(9) 0.1310 Uani
H55A H 0.3853 0.7836 0.0565 0.1570 Uiso
H55B H 0.2164 0.6017 0.0565 0.1570 Uiso
C61A C 0.3894(8) 0.7619(11) 0.1295(11) 0.1220 Uani
C61B C 0.2381(11) 0.6275(8) 0.1295(11) 0.1220 Uani
H56A H 0.3776 0.7358 0.1184 0.1470 Uiso
H56B H 0.2642 0.6418 0.1184 0.1470 Uiso
O21 O 0.2237(6) 0.5291(7) 0.0927(10) 0.1530 Uani
C62 C 0.2623(8) 0.5331(9) 0.0837(13) 0.1400 Uani
H57 H 0.2591 0.5080 0.0722 0.1680 Uiso
H58 H 0.2769 0.5406 0.1181 0.1680 Uiso
C63 C 0.2850(7) 0.5637(10) 0.0396(13) 0.1358 Uani
H59 H 0.2912 0.5891 0.0530 0.2040 Uiso
H60 H 0.2693 0.5578 0.0067 0.2040 Uiso
H61 H 0.3087 0.5636 0.0311 0.2040 Uiso
C64 C 0.2045(8) 0.5007(9) 0.1364(12) 0.1362 Uani
H62 H 0.2205 0.5097 0.1696 0.1630 Uiso
H63 H 0.2024 0.4759 0.1255 0.1630 Uiso
C65 C 0.1639(7) 0.4940(9) 0.1495(13) 0.1337 Uani
H64 H 0.1503 0.4920 0.1155 0.2010 Uiso
H65 H 0.1663 0.5156 0.1708 0.2010 Uiso
H66 H 0.1496 0.4702 0.1703 0.2010 Uiso
loop_
_atom_site_aniso_label
_atom_site_aniso_U_11
_atom_site_aniso_U_22
_atom_site_aniso_U_33
_atom_site_aniso_U_23
_atom_site_aniso_U_13
_atom_site_aniso_U_12
Er1 0.0572(4) 0.0569(5) 0.0544(4) 0.0004(4) 0.0009(4) 0.0282(4)
Er2 0.0551(5) 0.0551(5) 0.0592(8) 0.000 0.000 0.0275(2)
N1 0.085(6) 0.094(6) 0.093(6) 0.005(6) 0.022(6) 0.032(5)
N2 0.075 0.097 0.104 0.005 0.033 0.039
N3 0.111 0.089 0.095 -0.024 -0.016 0.043
N4 0.107(7) 0.083(6) 0.096(7) -0.032(6) 0.000(6) 0.034(6)
N5 0.106(8) 0.083(7) 0.100(8) 0.000(7) -0.004(7) 0.038(7)
N6 0.090(8) 0.099(8) 0.113(8) 0.001(7) 0.022(7) 0.041(7)
N7 0.102(8) 0.109(8) 0.094(8) 0.010(7) -0.014(7) 0.056(7)
N8 0.134(12) 0.089(10) 0.123(12) 0.006(10) -0.050(10) 0.038(10)
O1 0.091(5) 0.077(5) 0.084(5) 0.005(5) 0.007(5) 0.035(5)
O2 0.082(6) 0.090(6) 0.086(7) -0.005(6) -0.001(6) 0.035(6)
O3 0.094(6) 0.088(6) 0.083(7) -0.008(6) -0.005(6) 0.027(6)
O4 0.091(5) 0.078(5) 0.092(5) -0.015(5) 0.003(5) 0.045(4)
O5 0.074(5) 0.083(5) 0.081(5) 0.014(4) 0.022(4) 0.043(4)
O6 0.037 0.085 0.09 0.001 0.015 0.021
O7 0.078 0.078 0.084 -0.018 -0.018 0.029
O8 0.087(6) 0.057(5) 0.068(6) -0.048(5) -0.016(5) 0.036(5)
O9 0.110(7) 0.103(7) 0.099(7) 0.011(6) -0.023(6) 0.037(6)
O10 0.099(6) 0.080(6) 0.094(6) 0.006(5) -0.001(6) 0.045(5)
O11 0.196(16) 0.083(11) 0.126(14) -0.046(10) -0.049(12) 0.042(11)
O12 0.097(6) 0.091(6) 0.102(6) -0.005(6) 0.018(6) 0.053(5)
O13 0.105(7) 0.090(7) 0.121(7) -0.003(6) -0.002(6) 0.025(6)
O14 0.121(13) 0.164(15) 0.170(16) -0.004(14) 0.087(12) 0.021(12)
O15 0.098(6) 0.119(7) 0.111(7) -0.001(6) 0.004(6) 0.051(6)
O16 0.100(6) 0.100(6) 0.086(6) 0.009(5) 0.003(6) 0.052(5)
O17 0.148(12) 0.159(13) 0.137(13) 0.050(11) -0.015(11) 0.105(11)
O18 0.107(7) 0.076(6) 0.107(7) -0.009(6) -0.018(6) 0.043(6)
O19 0.138(11) 0.106(10) 0.118(11) -0.011(10) -0.047(10) 0.024(10)
O20 0.157(14) 0.137(13) 0.165(15) 0.019(12) -0.080(12) 0.067(11)
C1 0.070(6) 0.067(5) 0.070(6) -0.003(5) 0.003(5) 0.045(5)
C2 0.090(6) 0.071(5) 0.079(6) -0.003(5) 0.000(5) 0.047(5)
C3 0.084(6) 0.079(6) 0.082(7) -0.009(6) -0.006(6) 0.045(6)
C4 0.082(7) 0.082(7) 0.080(7) 0.000(6) 0.001(6) 0.041(6)
C5 0.080(6) 0.081(6) 0.088(6) -0.003(5) 0.000(6) 0.040(5)
C6 0.080(6) 0.081(6) 0.087(6) 0.008(5) 0.014(5) 0.045(5)
C7 0.086(6) 0.081(6) 0.085(6) 0.009(5) 0.007(6) 0.048(5)
C8 0.085(6) 0.076(6) 0.081(6) 0.000(5) 0.010(5) 0.043(5)
C9 0.100(7) 0.077(7) 0.089(7) -0.005(6) 0.014(7) 0.039(6)
C10 0.102(8) 0.081(7) 0.092(8) 0.002(7) 0.003(7) 0.041(7)
C11 0.096(8) 0.085(7) 0.089(8) -0.001(7) 0.008(7) 0.046(7)
C12 0.097(6) 0.085(6) 0.090(6) 0.005(6) 0.010(6) 0.035(5)
C13 0.098(6) 0.094(6) 0.093(6) -0.011(5) 0.013(5) 0.043(5)
C14 0.103(7) 0.102(7) 0.103(8) -0.012(7) 0.011(7) 0.033(7)
C15 0.107(7) 0.103(7) 0.112(8) -0.008(7) 0.009(7) 0.034(7)
C16 0.113(8) 0.104(8) 0.115(8) -0.005(8) 0.005(7) 0.034(7)
C17 0.116(8) 0.101(8) 0.121(9) -0.009(8) 0.010(8) 0.029(8)
C18 0.107(8) 0.111(9) 0.117(9) -0.004(8) 0.003(8) 0.034(8)
C19 0.096(8) 0.105(8) 0.108(8) -0.011(7) 0.012(7) 0.042(7)
C20 0.032 0.077 0.092 0.001 0.016 0.012
C21 0.07 0.091 0.094 -0.005 0.01 0.037
C22 0.081 0.091 0.09 -0.013 0.005 0.043
C23 0.075 0.091 0.09 -0.029 -0.006 0.038
C24 0.108 0.093 0.097 -0.02 -0.005 0.052
C25 0.096 0.093 0.091 -0.021 -0.003 0.048
C26 0.085 0.092 0.098 -0.013 0.004 0.042
C27 0.09 0.097 0.1 -0.01 0.011 0.046
C28 0.103 0.101 0.118 -0.008 0.01 0.048
C29 0.141 0.11 0.122 -0.007 0.004 0.065
C30 0.147 0.114 0.124 -0.011 0.003 0.071
C31 0.136 0.109 0.126 -0.014 -0.001 0.058
C32 0.144 0.112 0.123 -0.005 0.004 0.069
C33 0.132 0.105 0.112 0 0.017 0.061
C34 0.066 0.079 0.087 -0.013 -0.008 0.025
C35 0.102 0.09 0.086 -0.013 -0.019 0.045
C36 0.06 0.081 0.085 -0.008 -0.004 0.021
C37 0.096 0.086 0.08 -0.001 0.01 0.036
C38 0.09 0.094 0.086 0.003 -0.002 0.042
C39 0.091 0.088 0.089 0.002 0.008 0.038
C40 0.093 0.095 0.088 -0.011 -0.009 0.042
C41 0.055 0.078 0.102 -0.007 -0.004 0.014
C42 0.069 0.089 0.102 -0.012 -0.003 0.022
C43 0.123 0.099 0.111 -0.011 -0.004 0.049
C44 0.117 0.102 0.112 -0.003 0.004 0.049
C45 0.147 0.105 0.112 -0.011 0.002 0.059
C46 0.128 0.097 0.115 -0.001 0.007 0.053
C47 0.107 0.089 0.109 -0.008 0.004 0.039
C48 0.091(6) 0.080(6) 0.088(7) -0.023(6) -0.003(6) 0.042(5)
C49 0.089(6) 0.075(6) 0.089(6) -0.015(6) -0.004(6) 0.048(5)
C50 0.091(6) 0.082(6) 0.095(6) -0.008(5) -0.002(5) 0.036(5)
C51 0.087(7) 0.090(7) 0.102(7) -0.010(6) 0.005(7) 0.040(6)
C52 0.091(8) 0.096(8) 0.102(8) -0.003(7) 0.000(7) 0.038(7)
C53 0.094(8) 0.089(8) 0.101(8) -0.006(7) -0.001(7) 0.035(7)
C54 0.094(7) 0.079(6) 0.093(7) -0.014(6) 0.004(6) 0.042(6)
C55 0.104(7) 0.087(7) 0.104(7) -0.024(7) 0.003(7) 0.024(6)
C56 0.110(8) 0.095(8) 0.112(8) -0.018(7) 0.008(8) 0.027(7)
C57 0.119(9) 0.108(9) 0.117(9) -0.019(8) 0.001(8) 0.018(8)
C58 0.115(9) 0.106(9) 0.123(10) -0.016(9) 0.006(9) 0.030(8)
C59 0.121(10) 0.110(10) 0.127(10) -0.028(9) 0.007(10) 0.027(9)
C60 0.122(10) 0.109(10) 0.121(10) -0.020(9) 0.003(9) 0.027(9)
C61 0.113(9) 0.103(8) 0.110(9) -0.024(8) 0.001(8) 0.024(8)
Er1A 0.0569 0.0577 0.0544 0.0005 -0.0004 0.0287
Er1B 0.0577 0.0572 0.0544 -0.0009 -0.0005 0.029
Er1N 0.0577 0.0572 0.0544 -0.0009 -0.0005 0.029
Er1D 0.0577 0.0569 0.0544 0.0004 -0.0005 0.0287
Er1L 0.0572 0.0569 0.0544 0.0004 0.0009 0.0282
Er1C 0.0569 0.0572 0.0544 -0.0009 -0.0004 0.0282
Er1M 0.0569 0.0577 0.0544 0.0005 -0.0004 0.0287
Er1E 0.0572 0.0577 0.0544 0.0005 0.0009 0.029
N1A 0.094 0.115 0.093 0.017 -0.005 0.062
N1B 0.115 0.085 0.093 -0.022 -0.017 0.053
N2A 0.097 0.094 0.104 0.028 -0.005 0.058
N2B 0.094 0.075 0.104 -0.033 -0.028 0.036
N3A 0.089 0.114 0.095 0.008 0.024 0.046
N3B 0.114 0.111 0.095 0.016 -0.008 0.068
N4A 0.083 0.122 0.096 0.032 0.032 0.049
N4B 0.122 0.107 0.096 0 -0.032 0.073
N5A 0.083 0.113 0.1 -0.004 0 0.045
N5B 0.113 0.106 0.1 0.004 0.004 0.068
N6A 0.099 0.107 0.113 0.021 -0.001 0.058
N6B 0.107 0.09 0.113 -0.022 -0.021 0.049
N7A 0.109 0.099 0.094 -0.024 -0.01 0.053
N7B 0.099 0.102 0.094 0.014 0.024 0.046
N8A 0.089 0.147 0.123 -0.056 -0.006 0.051
N8B 0.147 0.134 0.123 0.05 0.056 0.096
O1A 0.077 0.098 0.084 0.002 -0.005 0.042
O1B 0.098 0.091 0.084 -0.007 -0.002 0.056
O2A 0.09 0.102 0.086 0.004 0.005 0.055
O2B 0.102 0.082 0.086 0.001 -0.004 0.047
O3A 0.088 0.128 0.083 0.003 0.008 0.061
O3B 0.128 0.094 0.083 0.005 -0.003 0.067
O4A 0.078 0.079 0.092 0.018 0.015 0.033
O4B 0.079 0.091 0.092 -0.003 -0.018 0.046
O5A 0.083 0.071 0.081 0.008 -0.014 0.04
O5B 0.071 0.074 0.081 -0.022 -0.008 0.031
O6A 0.085 0.08 0.09 0.014 -0.001 0.064
O6B 0.08 0.037 0.09 -0.015 -0.014 0.016
O6G 0.085 0.08 0.09 0.014 -0.001 0.064
O6H 0.08 0.037 0.09 -0.015 -0.014 0.016
O6F 0.037 0.085 0.09 0.001 0.015 0.021
O7A 0.078 0.098 0.084 0 0.018 0.049
O7B 0.098 0.078 0.084 0.018 0 0.049
O7D 0.098 0.078 0.084 -0.018 0 0.049
O7C 0.078 0.078 0.084 0.018 0.018 0.029
O7E 0.078 0.098 0.084 0 -0.018 0.049
O8A 0.057 0.072 0.068 0.032 0.048 0.021
O8B 0.072 0.087 0.068 0.016 -0.032 0.051
O9A 0.103 0.139 0.099 -0.034 -0.011 0.066
O9B 0.139 0.11 0.099 0.023 0.034 0.073
O10A 0.08 0.089 0.094 -0.007 -0.006 0.035
O10B 0.089 0.099 0.094 0.001 0.007 0.054
O11A 0.083 0.195 0.126 -0.003 0.046 0.041
O11B 0.195 0.196 0.126 0.049 0.003 0.154
O12A 0.091 0.082 0.102 0.023 0.005 0.038
O12B 0.082 0.097 0.102 -0.018 -0.023 0.044
O13A 0.09 0.145 0.121 0.001 0.003 0.065
O13B 0.145 0.105 0.121 0.002 -0.001 0.08
O14A 0.164 0.243 0.17 0.091 0.004 0.143
O14B 0.243 0.121 0.17 -0.087 -0.091 0.1
O15A 0.119 0.115 0.111 0.005 0.001 0.068
O15B 0.115 0.098 0.111 -0.004 -0.005 0.047
O16A 0.1 0.096 0.086 -0.006 -0.009 0.048
O16B 0.096 0.1 0.086 -0.003 0.006 0.048
O17A 0.159 0.097 0.137 -0.065 -0.05 0.054
O17B 0.097 0.148 0.137 0.015 0.065 0.043
O18A 0.076 0.097 0.107 -0.009 0.009 0.033
O18B 0.097 0.107 0.107 0.018 0.009 0.064
O19A 0.106 0.196 0.118 -0.036 0.011 0.082
O19B 0.196 0.138 0.118 0.047 0.036 0.114
O20B 0.16 0.157 0.165 0.08 0.099 0.09
O20A 0.137 0.16 0.165 -0.099 -0.019 0.07
C1A 0.067 0.047 0.07 0.006 0.003 0.022
C1B 0.047 0.07 0.07 -0.003 -0.006 0.025
C2A 0.071 0.067 0.079 0.003 0.003 0.024
C2B 0.067 0.09 0.079 0 -0.003 0.043
C3A 0.079 0.073 0.082 0.003 0.009 0.034
C3B 0.073 0.084 0.082 0.006 -0.003 0.039
C4A 0.082 0.082 0.08 0.001 0 0.041
C4B 0.082 0.082 0.08 -0.001 -0.001 0.041
C5A 0.081 0.081 0.088 0.003 0.003 0.041
C5B 0.081 0.08 0.088 0 -0.003 0.04
C6A 0.081 0.071 0.087 0.006 -0.008 0.036
C6B 0.071 0.08 0.087 -0.014 -0.006 0.035
C7A 0.081 0.071 0.085 -0.002 -0.009 0.033
C7B 0.071 0.086 0.085 -0.007 0.002 0.038
C8A 0.076 0.075 0.081 0.01 0 0.033
C8B 0.075 0.085 0.081 -0.01 -0.01 0.042
C9A 0.077 0.099 0.089 0.019 0.005 0.038
C9B 0.099 0.1 0.089 -0.014 -0.019 0.061
C10A 0.081 0.101 0.092 0.001 -0.002 0.04
C10B 0.101 0.102 0.092 -0.003 -0.001 0.061
C11A 0.085 0.089 0.089 0.009 0.001 0.039
C11B 0.089 0.096 0.089 -0.008 -0.009 0.05
C12A 0.085 0.112 0.09 0.005 -0.005 0.05
C12B 0.112 0.097 0.09 -0.01 -0.005 0.062
C13A 0.094 0.106 0.093 0.024 0.011 0.051
C13B 0.106 0.098 0.093 -0.013 -0.024 0.055
C14A 0.102 0.139 0.103 0.023 0.012 0.069
C14B 0.139 0.103 0.103 -0.011 -0.023 0.07
C15A 0.103 0.142 0.112 0.017 0.008 0.069
C15B 0.142 0.107 0.112 -0.009 -0.017 0.073
C16A 0.104 0.149 0.115 0.01 0.005 0.07
C16B 0.149 0.113 0.115 -0.005 -0.01 0.079
C17A 0.101 0.159 0.121 0.019 0.009 0.072
C17B 0.159 0.116 0.121 -0.01 -0.019 0.087
C18A 0.111 0.15 0.117 0.007 0.004 0.077
C18B 0.15 0.107 0.117 -0.003 -0.007 0.073
C19A 0.105 0.117 0.108 0.023 0.011 0.063
C19B 0.117 0.096 0.108 -0.012 -0.023 0.054
C20A 0.077 0.085 0.092 0.015 -0.001 0.065
C20B 0.085 0.032 0.092 -0.016 -0.015 0.02
C21A 0.091 0.087 0.094 0.015 0.005 0.054
C21B 0.087 0.07 0.094 -0.01 -0.015 0.033
C22A 0.091 0.086 0.09 0.018 0.013 0.048
C22B 0.086 0.081 0.09 -0.005 -0.018 0.038
C23A 0.091 0.09 0.09 0.023 0.029 0.053
C23B 0.09 0.075 0.09 0.006 -0.023 0.037
C24A 0.093 0.097 0.097 0.015 0.02 0.041
C24B 0.097 0.108 0.097 0.005 -0.015 0.056
C25A 0.093 0.093 0.091 0.018 0.021 0.045
C25B 0.093 0.096 0.091 0.003 -0.018 0.048
C26A 0.092 0.093 0.098 0.017 0.013 0.05
C26B 0.093 0.085 0.098 -0.004 -0.017 0.043
C27A 0.097 0.095 0.1 0.021 0.01 0.051
C27B 0.095 0.09 0.1 -0.011 -0.021 0.044
C28A 0.101 0.108 0.118 0.018 0.008 0.053
C28B 0.108 0.103 0.118 -0.01 -0.018 0.055
C29A 0.11 0.121 0.122 0.011 0.007 0.045
C29B 0.121 0.141 0.122 -0.004 -0.011 0.076
C30A 0.114 0.119 0.124 0.014 0.011 0.043
C30B 0.119 0.147 0.124 -0.003 -0.014 0.076
C31A 0.109 0.129 0.126 0.013 0.014 0.051
C31B 0.129 0.136 0.126 0.001 -0.013 0.078
C32A 0.112 0.118 0.123 0.009 0.005 0.043
C32B 0.118 0.144 0.123 -0.004 -0.009 0.075
C33A 0.105 0.115 0.112 0.017 0 0.044
C33B 0.115 0.132 0.112 -0.017 -0.017 0.071
C34A 0.079 0.095 0.087 0.005 0.013 0.054
C34B 0.095 0.066 0.087 0.008 -0.005 0.041
C35A 0.09 0.102 0.086 -0.006 0.013 0.045
C35B 0.102 0.102 0.086 0.019 0.006 0.057
C36A 0.081 0.099 0.085 0.004 0.008 0.06
C36B 0.099 0.06 0.085 0.004 -0.004 0.039
C37A 0.086 0.11 0.08 0.011 0.001 0.05
C37B 0.11 0.096 0.08 -0.01 -0.011 0.06
C38A 0.094 0.1 0.086 -0.005 -0.003 0.052
C38B 0.1 0.09 0.086 0.002 0.005 0.048
C39A 0.088 0.103 0.089 0.006 -0.002 0.05
C39B 0.103 0.091 0.089 -0.008 -0.006 0.053
C40A 0.095 0.104 0.088 0.002 0.011 0.053
C40B 0.104 0.093 0.088 0.009 -0.002 0.051
C41A 0.078 0.105 0.102 0.003 0.007 0.064
C41B 0.105 0.055 0.102 0.004 -0.003 0.041
C42A 0.089 0.114 0.102 0.009 0.012 0.067
C42B 0.114 0.069 0.102 0.003 -0.009 0.047
C43A 0.099 0.124 0.111 0.007 0.011 0.05
C43B 0.124 0.123 0.111 0.004 -0.007 0.074
C44A 0.102 0.121 0.112 0.007 0.003 0.053
C44B 0.121 0.117 0.112 -0.004 -0.007 0.068
C45A 0.105 0.134 0.112 0.013 0.011 0.046
C45B 0.134 0.147 0.112 -0.002 -0.013 0.088
C46A 0.097 0.119 0.115 0.008 0.001 0.044
C46B 0.119 0.128 0.115 -0.007 -0.008 0.075
C47A 0.089 0.118 0.109 0.012 0.008 0.05
C47B 0.118 0.107 0.109 -0.004 -0.012 0.068
C48A 0.08 0.087 0.088 0.02 0.023 0.038
C48B 0.087 0.091 0.088 0.003 -0.02 0.049
C49A 0.075 0.068 0.089 0.011 0.015 0.027
C49B 0.068 0.089 0.089 0.004 -0.011 0.041
C50A 0.082 0.101 0.095 0.006 0.008 0.046
C50B 0.101 0.091 0.095 0.002 -0.006 0.055
C51A 0.09 0.097 0.102 0.015 0.01 0.05
C51B 0.097 0.087 0.102 -0.005 -0.015 0.047
C52A 0.096 0.111 0.102 0.003 0.003 0.058
C52B 0.111 0.091 0.102 0 -0.003 0.053
C53A 0.089 0.113 0.101 0.005 0.006 0.054
C53B 0.113 0.094 0.101 0.001 -0.005 0.059
C54A 0.079 0.089 0.093 0.018 0.014 0.037
C54B 0.089 0.094 0.093 -0.004 -0.018 0.052
C55A 0.087 0.143 0.104 0.027 0.024 0.063
C55B 0.143 0.104 0.104 -0.003 -0.027 0.08
C56A 0.095 0.151 0.112 0.026 0.018 0.068
C56B 0.151 0.11 0.112 -0.008 -0.026 0.083
C57A 0.108 0.191 0.117 0.02 0.019 0.09
C57B 0.191 0.119 0.117 -0.001 -0.02 0.101
C58A 0.106 0.161 0.123 0.022 0.016 0.076
C58B 0.161 0.115 0.123 -0.006 -0.022 0.085
C59A 0.11 0.177 0.127 0.035 0.028 0.083
C59B 0.177 0.121 0.127 -0.007 -0.035 0.094
C60A 0.109 0.177 0.121 0.023 0.02 0.082
C60B 0.177 0.122 0.121 -0.003 -0.023 0.095
C61A 0.103 0.168 0.11 0.025 0.024 0.079
C61B 0.168 0.113 0.11 -0.001 -0.025 0.089
O21 0.139(11) 0.133(11) 0.139(12) -0.033(10) 0.009(10) 0.032(10)
C62 0.120(11) 0.128(11) 0.128(11) -0.017(10) 0.001(10) 0.029(10)
C63 0.120(15) 0.133(16) 0.138(16) 0.014(14) -0.036(14) 0.051(13)
C64 0.117(9) 0.119(9) 0.122(9) -0.012(8) 0.002(9) 0.021(8)
C65 0.113(15) 0.121(15) 0.149(17) -0.033(14) -0.019(14) 0.045(13)
loop_
_geom_bond_atom_site_label_1
_geom_bond_atom_site_label_2
_geom_bond_site_symmetry_1
_geom_bond_site_symmetry_2
Er1 O5 1_555 1_555
Er2 O8 1_555 1_555
N1 H1 1_555 1_555
N2 H2 1_555 1_555
N3 H3 1_555 1_555
N4 H4 1_555 1_555
N5 O9 1_555 1_555
N6 O12 1_555 1_555
N7 O15 1_555 1_555
N8 O18 1_555 1_555
O1 C2 1_555 1_555
O2 C3 1_555 1_555
O3 C4 1_555 1_555
O4 C5 1_555 1_555
O5 C6 1_555 1_555
O6 C20 1_555 1_555
O7 C34 1_555 1_555
O8 C48 1_555 1_555
O9 Er1 1_555 1_555
O10 Er1 1_555 1_555
O11 N5 1_555 1_555
O12 Er1 1_555 1_555
O13 Er1 1_555 1_555
O14 N6 1_555 1_555
O15 Er1 1_555 1_555
O16 Er1 1_555 1_555
O17 N7 1_555 1_555
O18 Er2 1_555 1_555
O19 Er2 1_555 1_555
O20 N8 1_555 1_555
O21 C62 1_555 1_555
C1 C2 1_555 1_555
C2 H5 1_555 1_555
H6 C2 1_555 1_555
C3 C1 1_555 1_555
H7 C3 1_555 1_555
H8 C3 1_555 1_555
C4 C1 1_555 1_555
H9 C4 1_555 1_555
H10 C4 1_555 1_555
C5 C1 1_555 1_555
H11 C5 1_555 1_555
H12 C5 1_555 1_555
C6 N1 1_555 1_555
C7 C6 1_555 1_555
C8 O1 1_555 1_555
C9 C8 1_555 1_555
H13 C9 1_555 1_555
C10 C9 1_555 1_555
H14 C10 1_555 1_555
C11 C10 1_555 1_555
H15 C11 1_555 1_555
C12 C7 1_555 1_555
H16 C12 1_555 1_555
C13 N1 1_555 1_555
H17 C13 1_555 1_555
H18 C13 1_555 1_555
C14 C13 1_555 1_555
C15 C14 1_555 1_555
H19 C15 1_555 1_555
C16 C15 1_555 1_555
H20 C16 1_555 1_555
C17 C16 1_555 1_555
H21 C17 1_555 1_555
C18 C17 1_555 1_555
H22 C18 1_555 1_555
C19 C14 1_555 1_555
H23 C19 1_555 1_555
C20 N2 1_555 1_555
C21 C20 1_555 1_555
C22 O2 1_555 1_555
C23 C22 1_555 1_555
H24 C23 1_555 1_555
C24 C23 1_555 1_555
H25 C24 1_555 1_555
C25 C24 1_555 1_555
H26 C25 1_555 1_555
C26 C21 1_555 1_555
H27 C26 1_555 1_555
C27 N2 1_555 1_555
H28 C27 1_555 1_555
H29 C27 1_555 1_555
C28 C27 1_555 1_555
C29 C28 1_555 1_555
H30 C29 1_555 1_555
C30 C29 1_555 1_555
H31 C30 1_555 1_555
C31 C30 1_555 1_555
H32 C31 1_555 1_555
C32 C31 1_555 1_555
H33 C32 1_555 1_555
C33 C28 1_555 1_555
H34 C33 1_555 1_555
C34 N3 1_555 1_555
C35 C34 1_555 1_555
C36 O3 1_555 1_555
C37 C36 1_555 1_555
H35 C37 1_555 1_555
C38 C37 1_555 1_555
H36 C38 1_555 1_555
C39 C38 1_555 1_555
H37 C39 1_555 1_555
C40 C35 1_555 1_555
H38 C40 1_555 1_555
C41 N3 1_555 1_555
H39 C41 1_555 1_555
H40 C41 1_555 1_555
C42 C41 1_555 1_555
C43 C42 1_555 1_555
H41 C43 1_555 1_555
C44 C43 1_555 1_555
H42 C44 1_555 1_555
C45 C44 1_555 1_555
H43 C45 1_555 1_555
C46 C45 1_555 1_555
H44 C46 1_555 1_555
C47 C42 1_555 1_555
H45 C47 1_555 1_555
C48 N4 1_555 1_555
C49 C48 1_555 1_555
C50 O4 1_555 1_555
C51 C50 1_555 1_555
H46 C51 1_555 1_555
C52 C51 1_555 1_555
H47 C52 1_555 1_555
C53 C52 1_555 1_555
H48 C53 1_555 1_555
C54 C49 1_555 1_555
H49 C54 1_555 1_555
C55 N4 1_555 1_555
H50 C55 1_555 1_555
H51 C55 1_555 1_555
C56 C55 1_555 1_555
C57 C56 1_555 1_555
H52 C57 1_555 1_555
C58 C57 1_555 1_555
H53 C58 1_555 1_555
C59 C58 1_555 1_555
H54 C59 1_555 1_555
C60 C59 1_555 1_555
H55 C60 1_555 1_555
C61 C56 1_555 1_555
H56 C61 1_555 1_555
C62 H57 1_555 1_555
H58 C62 1_555 1_555
C63 C62 1_555 1_555
H59 C63 1_555 1_555
H60 C63 1_555 1_555
H61 C63 1_555 1_555
C64 O21 1_555 1_555
H62 C64 1_555 1_555
H63 C64 1_555 1_555
C65 C64 1_555 1_555
H64 C65 1_555 1_555
H65 C65 1_555 1_555
H66 C65 1_555 1_555
Er1A O5A 1_555 1_555
Er1B O5B 1_555 1_555
Er1N O6 1_555 1_555
Er1D O7 1_555 1_555
Er1L O6A 1_555 1_555
Er1C O7A 1_555 1_555
Er1M O6B 1_555 1_555
Er1E O7B 1_555 1_555
N1A H1A 1_555 1_555
N1B H1B 1_555 1_555
N2A H2A 1_555 1_555
N2B H2B 1_555 1_555
N3A H3A 1_555 1_555
N3B H3B 1_555 1_555
N4A H4A 1_555 1_555
N4B H4B 1_555 1_555
N5A O9A 1_555 1_555
N5B O9B 1_555 1_555
N6A O12A 1_555 1_555
N6B O12B 1_555 1_555
N7A O15A 1_555 1_555
N7B O15B 1_555 1_555
N8A O18A 1_555 1_555
N8B O18B 1_555 1_555
O1A C2A 1_555 1_555
O1B C2B 1_555 1_555
O2A C3A 1_555 1_555
O2B C3B 1_555 1_555
O3A C4A 1_555 1_555
O3B C4B 1_555 1_555
O4A C5A 1_555 1_555
O4B C5B 1_555 1_555
O5A C6A 1_555 1_555
O5B C6B 1_555 1_555
O6A C20A 1_555 1_555
O6B C20B 1_555 1_555
O6G Er1 1_555 1_555
O6H Er1A 1_555 1_555
O6F Er1B 1_555 1_555
O7A C34A 1_555 1_555
O7B C34B 1_555 1_555
O7D Er1 1_555 1_555
O7C Er1A 1_555 1_555
O7E Er1B 1_555 1_555
O8A Er2 1_555 1_555
O8B Er2 1_555 1_555
O9A Er1A 1_555 1_555
O9B Er1B 1_555 1_555
O10A Er1A 1_555 1_555
O10B Er1B 1_555 1_555
O11A N5A 1_555 1_555
O11B N5B 1_555 1_555
O12A Er1A 1_555 1_555
O12B Er1B 1_555 1_555
O13A Er1A 1_555 1_555
O13B Er1B 1_555 1_555
O14A N6A 1_555 1_555
O14B N6B 1_555 1_555
O15A Er1A 1_555 1_555
O15B Er1B 1_555 1_555
O16A Er1A 1_555 1_555
O16B Er1B 1_555 1_555
O17A N7A 1_555 1_555
O17B N7B 1_555 1_555
O18A Er2 1_555 1_555
O18B Er2 1_555 1_555
O19A Er2 1_555 1_555
O19B Er2 1_555 1_555
O20B N8B 1_555 1_555
O20A N8A 1_555 1_555
C1A C2A 1_555 1_555
C1B C2B 1_555 1_555
C2A H5A 1_555 1_555
C2B H5B 1_555 1_555
H6A C2A 1_555 1_555
H6B C2B 1_555 1_555
C3A C1A 1_555 1_555
C3B C1B 1_555 1_555
H7A C3A 1_555 1_555
H7B C3B 1_555 1_555
H8A C3A 1_555 1_555
H8B C3B 1_555 1_555
C4A C1A 1_555 1_555
C4B C1B 1_555 1_555
H9A C4A 1_555 1_555
H9B C4B 1_555 1_555
H10A C4A 1_555 1_555
H10B C4B 1_555 1_555
C5A C1A 1_555 1_555
C5B C1B 1_555 1_555
H11A C5A 1_555 1_555
H11B C5B 1_555 1_555
H12A C5A 1_555 1_555
H12B C5B 1_555 1_555
C6A N1A 1_555 1_555
C6B N1B 1_555 1_555
C7A C6A 1_555 1_555
C7B C6B 1_555 1_555
C8A O1A 1_555 1_555
C8B O1B 1_555 1_555
C9A C8A 1_555 1_555
C9B C8B 1_555 1_555
H13A C9A 1_555 1_555
H13B C9B 1_555 1_555
C10A C9A 1_555 1_555
C10B C9B 1_555 1_555
H14A C10A 1_555 1_555
H14B C10B 1_555 1_555
C11A C10A 1_555 1_555
C11B C10B 1_555 1_555
H15A C11A 1_555 1_555
H15B C11B 1_555 1_555
C12A C7A 1_555 1_555
C12B C7B 1_555 1_555
H16A C12A 1_555 1_555
H16B C12B 1_555 1_555
C13A N1A 1_555 1_555
C13B N1B 1_555 1_555
H17A C13A 1_555 1_555
H17B C13B 1_555 1_555
H18A C13A 1_555 1_555
H18B C13B 1_555 1_555
C14A C13A 1_555 1_555
C14B C13B 1_555 1_555
C15A C14A 1_555 1_555
C15B C14B 1_555 1_555
H19A C15A 1_555 1_555
H19B C15B 1_555 1_555
C16A C15A 1_555 1_555
C16B C15B 1_555 1_555
H20A C16A 1_555 1_555
H20B C16B 1_555 1_555
C17A C16A 1_555 1_555
C17B C16B 1_555 1_555
H21A C17A 1_555 1_555
H21B C17B 1_555 1_555
C18A C17A 1_555 1_555
C18B C17B 1_555 1_555
H22A C18A 1_555 1_555
H22B C18B 1_555 1_555
C19A C14A 1_555 1_555
C19B C14B 1_555 1_555
H23A C19A 1_555 1_555
H23B C19B 1_555 1_555
C20A N2A 1_555 1_555
C20B N2B 1_555 1_555
C21A C20A 1_555 1_555
C21B C20B 1_555 1_555
C22A O2A 1_555 1_555
C22B O2B 1_555 1_555
C23A C22A 1_555 1_555
C23B C22B 1_555 1_555
H24A C23A 1_555 1_555
H24B C23B 1_555 1_555
C24A C23A 1_555 1_555
C24B C23B 1_555 1_555
H25A C24A 1_555 1_555
H25B C24B 1_555 1_555
C25A C24A 1_555 1_555
C25B C24B 1_555 1_555
H26A C25A 1_555 1_555
H26B C25B 1_555 1_555
C26A C21A 1_555 1_555
C26B C21B 1_555 1_555
H27A C26A 1_555 1_555
H27B C26B 1_555 1_555
C27A N2A 1_555 1_555
C27B N2B 1_555 1_555
H28A C27A 1_555 1_555
H28B C27B 1_555 1_555
H29A C27A 1_555 1_555
H29B C27B 1_555 1_555
C28A C27A 1_555 1_555
C28B C27B 1_555 1_555
C29A C28A 1_555 1_555
C29B C28B 1_555 1_555
H30A C29A 1_555 1_555
H30B C29B 1_555 1_555
C30A C29A 1_555 1_555
C30B C29B 1_555 1_555
H31A C30A 1_555 1_555
H31B C30B 1_555 1_555
C31A C30A 1_555 1_555
C31B C30B 1_555 1_555
H32A C31A 1_555 1_555
H32B C31B 1_555 1_555
C32A C31A 1_555 1_555
C32B C31B 1_555 1_555
H33A C32A 1_555 1_555
H33B C32B 1_555 1_555
C33A C28A 1_555 1_555
C33B C28B 1_555 1_555
H34A C33A 1_555 1_555
H34B C33B 1_555 1_555
C34A N3A 1_555 1_555
C34B N3B 1_555 1_555
C35A C34A 1_555 1_555
C35B C34B 1_555 1_555
C36A O3A 1_555 1_555
C36B O3B 1_555 1_555
C37A C36A 1_555 1_555
C37B C36B 1_555 1_555
H35A C37A 1_555 1_555
H35B C37B 1_555 1_555
C38A C37A 1_555 1_555
C38B C37B 1_555 1_555
H36A C38A 1_555 1_555
H36B C38B 1_555 1_555
C39A C38A 1_555 1_555
C39B C38B 1_555 1_555
H37A C39A 1_555 1_555
H37B C39B 1_555 1_555
C40A C35A 1_555 1_555
C40B C35B 1_555 1_555
H38A C40A 1_555 1_555
H38B C40B 1_555 1_555
C41A N3A 1_555 1_555
C41B N3B 1_555 1_555
H39A C41A 1_555 1_555
H39B C41B 1_555 1_555
H40A C41A 1_555 1_555
H40B C41B 1_555 1_555
C42A C41A 1_555 1_555
C42B C41B 1_555 1_555
C43A C42A 1_555 1_555
C43B C42B 1_555 1_555
H41A C43A 1_555 1_555
H41B C43B 1_555 1_555
C44A C43A 1_555 1_555
C44B C43B 1_555 1_555
H42A C44A 1_555 1_555
H42B C44B 1_555 1_555
C45A C44A 1_555 1_555
C45B C44B 1_555 1_555
H43A C45A 1_555 1_555
H43B C45B 1_555 1_555
C46A C45A 1_555 1_555
C46B C45B 1_555 1_555
H44A C46A 1_555 1_555
H44B C46B 1_555 1_555
C47A C42A 1_555 1_555
C47B C42B 1_555 1_555
H45A C47A 1_555 1_555
H45B C47B 1_555 1_555
C48A N4A 1_555 1_555
C48B N4B 1_555 1_555
C49A C48A 1_555 1_555
C49B C48B 1_555 1_555
C50A O4A 1_555 1_555
C50B O4B 1_555 1_555
C51A C50A 1_555 1_555
C51B C50B 1_555 1_555
H46A C51A 1_555 1_555
H46B C51B 1_555 1_555
C52A C51A 1_555 1_555
C52B C51B 1_555 1_555
H47A C52A 1_555 1_555
H47B C52B 1_555 1_555
C53A C52A 1_555 1_555
C53B C52B 1_555 1_555
H48A C53A 1_555 1_555
H48B C53B 1_555 1_555
C54A C49A 1_555 1_555
C54B C49B 1_555 1_555
H49A C54A 1_555 1_555
H49B C54B 1_555 1_555
C55A N4A 1_555 1_555
C55B N4B 1_555 1_555
H50A C55A 1_555 1_555
H50B C55B 1_555 1_555
H51A C55A 1_555 1_555
H51B C55B 1_555 1_555
C56A C55A 1_555 1_555
C56B C55B 1_555 1_555
C57A C56A 1_555 1_555
C57B C56B 1_555 1_555
H52A C57A 1_555 1_555
H52B C57B 1_555 1_555
C58A C57A 1_555 1_555
C58B C57B 1_555 1_555
H53A C58A 1_555 1_555
H53B C58B 1_555 1_555
C59A C58A 1_555 1_555
C59B C58B 1_555 1_555
H54A C59A 1_555 1_555
H54B C59B 1_555 1_555
C60A C59A 1_555 1_555
C60B C59B 1_555 1_555
H55A C60A 1_555 1_555
H55B C60B 1_555 1_555
C61A C56A 1_555 1_555
C61B C56B 1_555 1_555
H56A C61A 1_555 1_555
H56B C61B 1_555 1_555
N5 O10 1_555 1_555
N6 O13 1_555 1_555
N7 O16 1_555 1_555
N8 O19 1_555 1_555
C7 C8 1_555 1_555
C11 C12 1_555 1_555
C18 C19 1_555 1_555
C21 C22 1_555 1_555
C25 C26 1_555 1_555
C32 C33 1_555 1_555
C35 C36 1_555 1_555
C39 C40 1_555 1_555
C46 C47 1_555 1_555
C49 C50 1_555 1_555
C53 C54 1_555 1_555
C60 C61 1_555 1_555
N5A O10A 1_555 1_555
N5B O10B 1_555 1_555
N6A O13A 1_555 1_555
N6B O13B 1_555 1_555
N7A O16A 1_555 1_555
N7B O16B 1_555 1_555
N8A O19A 1_555 1_555
N8B O19B 1_555 1_555
O8A C48A 1_555 1_555
O8B C48B 1_555 1_555
C7A C8A 1_555 1_555
C7B C8B 1_555 1_555
C11A C12A 1_555 1_555
C11B C12B 1_555 1_555
C18A C19A 1_555 1_555
C18B C19B 1_555 1_555
C21A C22A 1_555 1_555
C21B C22B 1_555 1_555
C25A C26A 1_555 1_555
C25B C26B 1_555 1_555
C32A C33A 1_555 1_555
C32B C33B 1_555 1_555
C35A C36A 1_555 1_555
C35B C36B 1_555 1_555
C39A C40A 1_555 1_555
C39B C40B 1_555 1_555
C46A C47A 1_555 1_555
C46B C47B 1_555 1_555
C49A C50A 1_555 1_555
C49B C50B 1_555 1_555
C53A C54A 1_555 1_555
C53B C54B 1_555 1_555
C60A C61A 1_555 1_555
C60B C61B 1_555 1_555

#END
