
#######################################################################
#
#                 Cambridge Crystallographic Data Centre
#                                CCDC 
#
#######################################################################
#
# If this CIF has been generated from an entry in the Cambridge 
# Structural Database, then it will include bibliographic, chemical, 
# crystal, experimental, refinement or atomic coordinate data resulting 
# from the CCDC's data processing and validation procedures.
#
#######################################################################

data_LOQSEQ
_chemical_formula_moiety         '(C187 H178 N24 O61 Pr4)n'
_symmetry_cell_setting           rhombohedral
_symmetry_space_group_name_H-M   'R 3 c'
_symmetry_Int_Tables_number      161
_space_group_name_Hall           'R 3 -2"c'
loop_
_symmetry_equiv_pos_site_id
_symmetry_equiv_pos_as_xyz
1 x,y,z
2 -y,x-y,z
3 -x+y,-x,z
4 -y,-x,1/2+z
5 -x+y,y,1/2+z
6 x,x-y,1/2+z
7 2/3+x,1/3+y,1/3+z
8 2/3-y,1/3+x-y,1/3+z
9 2/3-x+y,1/3-x,1/3+z
10 2/3-y,1/3-x,5/6+z
11 2/3-x+y,1/3+y,5/6+z
12 2/3+x,1/3+x-y,5/6+z
13 1/3+x,2/3+y,2/3+z
14 1/3-y,2/3+x-y,2/3+z
15 1/3-x+y,2/3-x,2/3+z
16 1/3-y,2/3-x,1/6+z
17 1/3-x+y,2/3+y,1/6+z
18 1/3+x,2/3+x-y,1/6+z
_cell_length_a                   39.597(2)
_cell_length_b                   39.597(2)
_cell_length_c                   24.266(3)
_cell_angle_alpha                90
_cell_angle_beta                 90
_cell_angle_gamma                120
_cell_volume                     32949.8
loop_
_atom_site_label
_atom_site_type_symbol
_atom_site_fract_x
_atom_site_fract_y
_atom_site_fract_z
_atom_site_U_iso_or_equiv
_atom_site_thermal_displace_type
Pr1 Pr 0.13271(4) 0.31618(4) 0.4657(2) 0.0799 Uani
Pr2 Pr 0.3333 0.6667 0.3673(2) 0.0794 Uani
N1 N 0.2484(7) 0.3961(6) 0.3990(10) 0.1569 Uani
H1 H 0.2733 0.4073 0.3946 0.1880 Uiso
N2 N 0.3980(6) 0.4563(6) 0.2126(10) 0.1561 Uani
H2 H 0.3806 0.4428 0.2368 0.1880 Uiso
N3 N 0.2075(7) 0.4049(5) 0.0942(9) 0.1601 Uani
H3 H 0.2118 0.4252 0.1127 0.1920 Uiso
N4 N 0.3078(6) 0.5845(6) 0.2269(10) 0.1662 Uani
H4 H 0.2966 0.5741 0.1961 0.1990 Uiso
N5 N 0.1061(7) 0.2589(7) 0.3827(10) 0.1514 Uani
N6 N 0.0694(6) 0.2754(7) 0.5393(10) 0.1572 Uani
N7 N 0.1046(6) 0.3573(6) 0.4082(10) 0.1390 Uani
N8 N 0.3694(7) 0.6380(6) 0.4258(10) 0.1420 Uani
O1 O 0.2637(5) 0.3974(5) 0.2778(8) 0.1439 Uani
O2 O 0.3581(6) 0.4865(5) 0.2583(9) 0.1509 Uani
O3 O 0.2809(5) 0.4544(5) 0.1323(8) 0.1340 Uani
O4 O 0.2658(5) 0.5016(5) 0.2551(9) 0.1514 Uani
O5 O 0.1912(6) 0.3447(6) 0.4200(9) 0.1474 Uani
O6 O 0.4628(5) 0.5008(5) 0.1937(9) 0.1409 Uani
O7 O 0.2048(5) 0.3732(5) 0.0148(9) 0.1380 Uani
O8 O 0.3068(6) 0.6161(5) 0.3022(9) 0.1372 Uani
O9 O 0.0983(5) 0.2853(5) 0.3810(8) 0.1503 Uani
O10 O 0.1302(6) 0.2594(5) 0.4181(8) 0.1573 Uani
O11 O 0.1029(6) 0.2394(6) 0.3395(9) 0.1941 Uani
O12 O 0.0969(5) 0.3043(5) 0.5619(8) 0.1487 Uani
O13 O 0.0752(5) 0.2588(5) 0.4983(7) 0.1541 Uani
O14 O 0.0378(5) 0.2593(5) 0.5656(8) 0.1727 Uani
O15 O 0.0865(5) 0.3333(5) 0.4443(8) 0.1528 Uani
O16 O 0.1400(5) 0.3707(5) 0.3979(9) 0.1414 Uani
O17 O 0.0900(5) 0.3777(6) 0.3899(10) 0.2002 Uani
O18 O 0.3597(5) 0.6255(5) 0.3788(9) 0.1558 Uani
O19 O 0.3716(6) 0.6705(5) 0.4384(8) 0.1743 Uani
O20 O 0.3932(7) 0.6297(6) 0.4479(10) 0.2234 Uani
C1 C 0.2898(9) 0.4581(9) 0.2310(13) 0.1424 Uani
C2 C 0.2839(7) 0.4188(5) 0.2299(9) 0.1422 Uani
H5 H 0.2691 0.4053 0.1974 0.1710 Uiso
H6 H 0.3091 0.4201 0.2278 0.1710 Uiso
C3 C 0.3219(6) 0.4806(7) 0.2777(9) 0.1498 Uani
H7 H 0.3238 0.5055 0.2857 0.1800 Uiso
H8 H 0.3146 0.4653 0.3113 0.1800 Uiso
C4 C 0.3062(7) 0.4807(6) 0.1737(8) 0.1533 Uani
H9 H 0.3054 0.5048 0.1733 0.1840 Uiso
H10 H 0.3329 0.4867 0.1678 0.1840 Uiso
C5 C 0.2560(6) 0.4632(6) 0.2436(10) 0.1546 Uani
H11 H 0.2383 0.4541 0.2124 0.1850 Uiso
H12 H 0.2422 0.4471 0.2750 0.1850 Uiso
C6 C 0.2240(6) 0.3582(7) 0.3865(9) 0.1491 Uani
C7 C 0.2257(4) 0.3379(6) 0.3375(8) 0.1410 Uani
C8 C 0.2469(5) 0.3576(5) 0.2927(9) 0.1433 Uani
C9 C 0.2479(5) 0.3372(6) 0.2471(8) 0.1486 Uani
H13 H 0.2628 0.3505 0.2166 0.1780 Uiso
C10 C 0.2265(6) 0.2966(6) 0.2468(9) 0.1499 Uani
H14 H 0.2265 0.2828 0.2157 0.1800 Uiso
C11 C 0.2056(5) 0.2771(5) 0.2923(10) 0.1376 Uani
H15 H 0.1917 0.2500 0.2926 0.1650 Uiso
C12 C 0.2049(5) 0.2980(5) 0.3386(8) 0.1514 Uani
H16 H 0.1905 0.2849 0.3696 0.1820 Uiso
C13 C 0.2292(7) 0.4161(6) 0.4203(10) 0.1590 Uiso
H17 H 0.2175 0.4059 0.4560 0.1910 Uiso
H18 H 0.2094 0.4143 0.3951 0.1910 Uiso
C14 C 0.2625(6) 0.4572(6) 0.4247(7) 0.1472 Uani
C15 C 0.2699(7) 0.4924(8) 0.4064(8) 0.1652 Uani
H19 H 0.2511 0.4943 0.3858 0.1980 Uiso
C16 C 0.3050(8) 0.5257(6) 0.4181(9) 0.1621 Uani
H20 H 0.3101 0.5499 0.4049 0.1940 Uiso
C17 C 0.3321(6) 0.5224(6) 0.4492(10) 0.1702 Uani
H21 H 0.3555 0.5446 0.4581 0.2040 Uiso
C18 C 0.3248(7) 0.4865(8) 0.4676(9) 0.1574 Uani
H22 H 0.3437 0.4845 0.4877 0.1890 Uiso
C19 C 0.2895(8) 0.4532(6) 0.4563(8) 0.1651 Uani
H23 H 0.2841 0.4290 0.4696 0.1980 Uiso
C20 C 0.4281(6) 0.4942(7) 0.2182(9) 0.1381 Uani
C21 C 0.4234(5) 0.5110(6) 0.2714(7) 0.1461 Uani
C22 C 0.3896(5) 0.5066(6) 0.2915(10) 0.1401 Uani
C23 C 0.3869(6) 0.5229(5) 0.3410(10) 0.1537 Uani
H24 H 0.3633 0.5195 0.3538 0.1850 Uiso
C24 C 0.4220(5) 0.5449(6) 0.3706(8) 0.1451 Uani
H25 H 0.4215 0.5560 0.4041 0.1740 Uiso
C25 C 0.4559(6) 0.5499(6) 0.3510(9) 0.1601 Uani
H26 H 0.4788 0.5651 0.3706 0.1920 Uiso
C26 C 0.4572(6) 0.5322(5) 0.3006(9) 0.1484 Uani
H27 H 0.4805 0.5349 0.2878 0.1770 Uiso
C27 C 0.4018(6) 0.4440(7) 0.1581(10) 0.1542 Uani
H28 H 0.4247 0.4412 0.1569 0.1850 Uiso
H29 H 0.4055 0.4640 0.1318 0.1850 Uiso
C28 C 0.3680(6) 0.4073(5) 0.1419(7) 0.1558 Uani
C29 C 0.3430(6) 0.4071(5) 0.1037(7) 0.1612 Uani
H30 H 0.3472 0.4303 0.0881 0.1940 Uiso
C30 C 0.3115(7) 0.3726(7) 0.0883(8) 0.1826 Uani
H31 H 0.2946 0.3724 0.0615 0.2190 Uiso
C31 C 0.3043(6) 0.3378(7) 0.1119(10) 0.1752 Uani
H32 H 0.2823 0.3145 0.1018 0.2100 Uiso
C32 C 0.3298(6) 0.3378(6) 0.1503(10) 0.1610 Uani
H33 H 0.3256 0.3145 0.1659 0.1940 Uiso
C33 C 0.3615(6) 0.3727(5) 0.1652(8) 0.1731 Uani
H34 H 0.3787 0.3730 0.1914 0.2080 Uiso
C34 C 0.2267(8) 0.4059(6) 0.0472(10) 0.1508 Uani
C35 C 0.2680(8) 0.4391(6) 0.0423(11) 0.1331 Uani
C36 C 0.2908(8) 0.4652(7) 0.0826(9) 0.1296 Uani
C37 C 0.3275(8) 0.4944(7) 0.0680(10) 0.1477 Uani
H35 H 0.3458 0.5085 0.0952 0.1770 Uiso
C38 C 0.3375(8) 0.5029(6) 0.0124(11) 0.1449 Uani
H36 H 0.3616 0.5240 0.0028 0.1730 Uiso
C39 C 0.3121(7) 0.4805(7) -0.0277(9) 0.1388 Uani
H37 H 0.3176 0.4874 -0.0647 0.1660 Uiso
C40 C 0.2777(7) 0.4471(7) -0.0123(10) 0.1380 Uani
H38 H 0.2613 0.4301 -0.0392 0.1650 Uiso
C41 C 0.1780(8) 0.3640(5) 0.1095(10) 0.1538 Uani
H39 H 0.1585 0.3517 0.0808 0.1840 Uiso
H40 H 0.1903 0.3484 0.1160 0.1840 Uiso
C42 C 0.1600(7) 0.3687(4) 0.1618(10) 0.1547 Uani
C43 C 0.1624(6) 0.3643(5) 0.2170(12) 0.1564 Uani
H41 H 0.1791 0.3558 0.2297 0.1880 Uiso
C44 C 0.1417(8) 0.3719(6) 0.2538(8) 0.1799 Uani
H42 H 0.1445 0.3694 0.2914 0.2160 Uiso
C45 C 0.1155(7) 0.3836(6) 0.2343(11) 0.1748 Uani
H43 H 0.1002 0.3883 0.2588 0.2090 Uiso
C46 C 0.1131(6) 0.3881(6) 0.1789(13) 0.1744 Uani
H44 H 0.0964 0.3964 0.1656 0.2090 Uiso
C47 C 0.1352(9) 0.3805(6) 0.1423(9) 0.1798 Uani
H45 H 0.1332 0.3834 0.1046 0.2160 Uiso
C48 C 0.2874(7) 0.5816(7) 0.2741(8) 0.1553 Uani
C49 C 0.2504(5) 0.5432(6) 0.2839(5) 0.1568 Uani
C50 C 0.2406(7) 0.5044(8) 0.2810(8) 0.1598 Uani
C51 C 0.2033(8) 0.4760(6) 0.2930(9) 0.1602 Uani
H46 H 0.1970 0.4500 0.2912 0.1920 Uiso
C52 C 0.1748(6) 0.4846(6) 0.3076(9) 0.1611 Uani
H47 H 0.1496 0.4648 0.3154 0.1930 Uiso
C53 C 0.1844(6) 0.5234(7) 0.3106(10) 0.1646 Uani
H48 H 0.1657 0.5300 0.3201 0.1970 Uiso
C54 C 0.2228(7) 0.5525(5) 0.2989(8) 0.1592 Uani
H49 H 0.2296 0.5786 0.3013 0.1910 Uiso
C55 C 0.3491(6) 0.6059(6) 0.2328(9) 0.1509 Uani
H50 H 0.3557 0.5992 0.2681 0.1810 Uiso
H51 H 0.3573 0.6334 0.2338 0.1810 Uiso
C56 C 0.3718(4) 0.5998(4) 0.1899(9) 0.1637 Uani
C57 C 0.3934(5) 0.5834(5) 0.2042(9) 0.1631 Uani
H52 H 0.3940 0.5761 0.2405 0.1960 Uiso
C58 C 0.4149(6) 0.5777(6) 0.1630(11) 0.1670 Uani
H53 H 0.4298 0.5663 0.1717 0.2000 Uiso
C59 C 0.4138(6) 0.5888(5) 0.1103(10) 0.1833 Uani
H54 H 0.4284 0.5853 0.0832 0.2200 Uiso
C60 C 0.3913(6) 0.6053(6) 0.0965(8) 0.1587 Uani
H55 H 0.3906 0.6127 0.0603 0.1910 Uiso
C61 C 0.3701(6) 0.6108(5) 0.1370(9) 0.1702 Uani
H56 H 0.3549 0.6218 0.1284 0.2040 Uiso
Pr1A Pr 0.68382(4) 0.81653(6) 0.4657(2) 0.0799 Uani
Pr1B Pr 0.18347(6) 0.86729(4) 0.4657(2) 0.0799 Uani
Pr1N Pr 0.51680(6) 0.53396(4) 0.1324(2) 0.0799 Uani
Pr1D Pr 0.18347(6) 0.31618(4) -0.0343(2) 0.0799 Uani
Pr1L Pr 0.46604(4) 0.98285(4) 0.1324(2) 0.0799 Uani
Pr1C Pr 0.68382(4) 0.86729(4) -0.0343(2) 0.0799 Uani
Pr1M Pr 0.01715(4) 0.48320(6) 0.1324(2) 0.0799 Uani
Pr1E Pr 0.13271(4) 0.81653(6) -0.0343(2) 0.0799 Uani
N1A N 0.6039(6) 0.8523(9) 0.3990(10) 0.1569 Uani
N1B N 0.1477(9) 0.7516(7) 0.3990(10) 0.1569 Uani
H1A H 0.5927 0.8660 0.3946 0.1880 Uiso
H1B H 0.1340 0.7267 0.3946 0.1880 Uiso
N2A N 0.5437(6) 0.9417(8) 0.2126(10) 0.1561 Uani
N2B N 0.0583(8) 0.6020(6) 0.2126(10) 0.1561 Uani
H2A H 0.5572 0.9378 0.2368 0.1880 Uiso
H2B H 0.0622 0.6194 0.2368 0.1880 Uiso
N3A N 0.5951(5) 0.8026(9) 0.0942(9) 0.1601 Uani
N3B N 0.1974(9) 0.7925(7) 0.0942(9) 0.1601 Uani
H3A H 0.5748 0.7866 0.1127 0.1920 Uiso
H3B H 0.2134 0.7882 0.1127 0.1920 Uiso
N4A N 0.4155(6) 0.7233(8) 0.2269(10) 0.1662 Uani
N4B N 0.2767(8) 0.6922(6) 0.2269(10) 0.1662 Uani
H4A H 0.4259 0.7225 0.1961 0.1990 Uiso
H4B H 0.2775 0.7034 0.1961 0.1990 Uiso
N5A N 0.7411(7) 0.8472(10) 0.3827(10) 0.1514 Uani
N5B N 0.1528(10) 0.8939(7) 0.3827(10) 0.1514 Uani
N6A N 0.7246(7) 0.7940(9) 0.5393(10) 0.1572 Uani
N6B N 0.2060(9) 0.9306(6) 0.5393(10) 0.1572 Uani
N7A N 0.6427(6) 0.7473(8) 0.4082(10) 0.1390 Uani
N7B N 0.2527(8) 0.8954(6) 0.4082(10) 0.1390 Uani
N8A N 0.3620(6) 0.7314(9) 0.4258(10) 0.1420 Uani
N8B N 0.2686(9) 0.6306(7) 0.4258(10) 0.1420 Uani
O1A O 0.6026(5) 0.8663(7) 0.2778(8) 0.1439 Uani
O1B O 0.1337(7) 0.7363(5) 0.2778(8) 0.1439 Uani
O2A O 0.5135(5) 0.8716(8) 0.2583(9) 0.1509 Uani
O2B O 0.1284(8) 0.6419(6) 0.2583(9) 0.1509 Uani
O3A O 0.5456(5) 0.8265(7) 0.1323(8) 0.1340 Uani
O3B O 0.1735(7) 0.7191(5) 0.1323(8) 0.1340 Uani
O4A O 0.4984(5) 0.7642(7) 0.2551(9) 0.1514 Uani
O4B O 0.2358(7) 0.7342(5) 0.2551(9) 0.1514 Uani
O5A O 0.6553(6) 0.8465(8) 0.4200(9) 0.1474 Uani
O5B O 0.1535(8) 0.8088(6) 0.4200(9) 0.1474 Uani
O6A O 0.4992(5) 0.9620(7) 0.1937(9) 0.1409 Uani
O6B O 0.0380(7) 0.5372(5) 0.1937(9) 0.1409 Uani
O6G O 0.1659(5) 0.2953(7) 0.5270(9) 0.1409 Uani
O6H O 0.7047(7) 0.8705(5) 0.5270(9) 0.1409 Uani
O6F O 0.1295(5) 0.8341(5) 0.5270(9) 0.1409 Uani
O7A O 0.6268(5) 0.8316(7) 0.0148(9) 0.1380 Uani
O7B O 0.1684(7) 0.7952(5) 0.0148(9) 0.1380 Uani
O7D O 0.1684(7) 0.3732(5) 0.5148(9) 0.1380 Uani
O7C O 0.6268(5) 0.7952(5) 0.5148(9) 0.1380 Uani
O7E O 0.2048(5) 0.8316(7) 0.5148(9) 0.1380 Uani
O8A O 0.3839(5) 0.6907(8) 0.3022(9) 0.1372 Uani
O8B O 0.3093(8) 0.6932(6) 0.3022(9) 0.1372 Uani
O9A O 0.7147(5) 0.8130(7) 0.3810(8) 0.1503 Uani
O9B O 0.1870(7) 0.9017(5) 0.3810(8) 0.1503 Uani
O10A O 0.7406(5) 0.8708(8) 0.4181(8) 0.1573 Uani
O10B O 0.1292(8) 0.8698(6) 0.4181(8) 0.1573 Uani
O11A O 0.7606(6) 0.8635(8) 0.3395(9) 0.1941 Uani
O11B O 0.1365(8) 0.8971(6) 0.3395(9) 0.1941 Uani
O12A O 0.6957(5) 0.7926(7) 0.5619(8) 0.1487 Uani
O12B O 0.2074(7) 0.9031(5) 0.5619(8) 0.1487 Uani
O13A O 0.7412(5) 0.8164(7) 0.4983(7) 0.1541 Uani
O13B O 0.1836(7) 0.9248(5) 0.4983(7) 0.1541 Uani
O14A O 0.7407(5) 0.7785(7) 0.5656(8) 0.1727 Uani
O14B O 0.2215(7) 0.9622(5) 0.5656(8) 0.1727 Uani
O15A O 0.6667(5) 0.7532(7) 0.4443(8) 0.1528 Uani
O15B O 0.2468(7) 0.9135(5) 0.4443(8) 0.1528 Uani
O16A O 0.6293(5) 0.7693(7) 0.3979(9) 0.1414 Uani
O16B O 0.2307(7) 0.8600(5) 0.3979(9) 0.1414 Uani
O17A O 0.6223(6) 0.7123(8) 0.3899(10) 0.2002 Uani
O17B O 0.2877(8) 0.9100(5) 0.3899(10) 0.2002 Uani
O18A O 0.3745(5) 0.7342(7) 0.3788(9) 0.1558 Uani
O18B O 0.2658(7) 0.6403(5) 0.3788(9) 0.1558 Uani
O19A O 0.3295(5) 0.7011(8) 0.4384(8) 0.1743 Uani
O19B O 0.2989(8) 0.6284(6) 0.4384(8) 0.1743 Uani
O20B O 0.2365(9) 0.6068(7) 0.4479(10) 0.2234 Uani
O20A O 0.3703(6) 0.7635(9) 0.4479(10) 0.2234 Uani
C1A C 0.5419(9) 0.8317(13) 0.2310(13) 0.1424 Uani
C1B C 0.1683(13) 0.7102(9) 0.2310(13) 0.1424 Uani
C2A C 0.5812(5) 0.8651(9) 0.2299(9) 0.1422 Uani
C2B C 0.1349(9) 0.7161(7) 0.2299(9) 0.1422 Uani
H5A H 0.5947 0.8638 0.1974 0.1710 Uiso
H5B H 0.1362 0.7309 0.1974 0.1710 Uiso
H6A H 0.5799 0.8890 0.2278 0.1710 Uiso
H6B H 0.1110 0.6909 0.2278 0.1710 Uiso
C3A C 0.5194(7) 0.8413(9) 0.2777(9) 0.1498 Uani
C3B C 0.1587(9) 0.6781(6) 0.2777(9) 0.1498 Uani
H7A H 0.4945 0.8183 0.2857 0.1800 Uiso
H7B H 0.1817 0.6762 0.2857 0.1800 Uiso
H8A H 0.5347 0.8493 0.3113 0.1800 Uiso
H8B H 0.1507 0.6854 0.3113 0.1800 Uiso
C4A C 0.5193(6) 0.8255(9) 0.1737(8) 0.1533 Uani
C4B C 0.1745(9) 0.6938(7) 0.1737(8) 0.1533 Uani
H9A H 0.4952 0.8006 0.1733 0.1840 Uiso
H9B H 0.1994 0.6946 0.1733 0.1840 Uiso
H10A H 0.5133 0.8462 0.1678 0.1840 Uiso
H10B H 0.1538 0.6671 0.1678 0.1840 Uiso
C5A C 0.5368(6) 0.7928(8) 0.2436(10) 0.1546 Uani
C5B C 0.2072(8) 0.7440(6) 0.2436(10) 0.1546 Uani
H11A H 0.5459 0.7842 0.2124 0.1850 Uiso
H11B H 0.2158 0.7617 0.2124 0.1850 Uiso
H12A H 0.5529 0.7951 0.2750 0.1850 Uiso
H12B H 0.2049 0.7578 0.2750 0.1850 Uiso
C6A C 0.6418(7) 0.8658(9) 0.3865(9) 0.1491 Uani
C6B C 0.1342(9) 0.7760(6) 0.3865(9) 0.1491 Uani
C7A C 0.6621(6) 0.8878(7) 0.3375(8) 0.1410 Uani
C7B C 0.1122(7) 0.7743(4) 0.3375(8) 0.1410 Uani
C8A C 0.6424(5) 0.8893(7) 0.2927(9) 0.1433 Uani
C8B C 0.1107(7) 0.7531(5) 0.2927(9) 0.1433 Uani
C9A C 0.6628(6) 0.9107(8) 0.2471(8) 0.1486 Uani
C9B C 0.0893(8) 0.7521(5) 0.2471(8) 0.1486 Uani
H13A H 0.6495 0.9123 0.2166 0.1780 Uiso
H13B H 0.0877 0.7372 0.2166 0.1780 Uiso
C10A C 0.7034(6) 0.9299(8) 0.2468(9) 0.1499 Uani
C10B C 0.0701(8) 0.7735(6) 0.2468(9) 0.1499 Uani
H14A H 0.7172 0.9437 0.2157 0.1800 Uiso
H14B H 0.0563 0.7735 0.2157 0.1800 Uiso
C11A C 0.7229(5) 0.9285(7) 0.2923(10) 0.1376 Uani
C11B C 0.0715(7) 0.7944(5) 0.2923(10) 0.1376 Uani
H15A H 0.7500 0.9417 0.2926 0.1650 Uiso
H15B H 0.0583 0.8083 0.2926 0.1650 Uiso
C12A C 0.7020(5) 0.9069(7) 0.3386(8) 0.1514 Uani
C12B C 0.0931(7) 0.7951(5) 0.3386(8) 0.1514 Uani
H16A H 0.7151 0.9056 0.3696 0.1820 Uiso
H16B H 0.0944 0.8095 0.3696 0.1820 Uiso
C13A C 0.5839(6) 0.8131(9) 0.4203(10) 0.1590 Uiso
C13B C 0.1869(9) 0.7708(7) 0.4203(10) 0.1590 Uiso
H17A H 0.5941 0.8116 0.4560 0.1910 Uiso
H17B H 0.1884 0.7825 0.4560 0.1910 Uiso
H18A H 0.5857 0.7951 0.3951 0.1910 Uiso
H18B H 0.2049 0.7906 0.3951 0.1910 Uiso
C14A C 0.5428(6) 0.8053(8) 0.4247(7) 0.1472 Uani
C14B C 0.1947(8) 0.7375(6) 0.4247(7) 0.1472 Uani
C15A C 0.5076(8) 0.7775(11) 0.4064(8) 0.1652 Uani
C15B C 0.2225(11) 0.7301(7) 0.4064(8) 0.1652 Uani
H19A H 0.5057 0.7568 0.3858 0.1980 Uiso
H19B H 0.2432 0.7489 0.3858 0.1980 Uiso
C16A C 0.4743(6) 0.7793(10) 0.4181(9) 0.1621 Uani
C16B C 0.2207(10) 0.6950(8) 0.4181(9) 0.1621 Uani
H20A H 0.4501 0.7602 0.4049 0.1940 Uiso
H20B H 0.2398 0.6899 0.4049 0.1940 Uiso
C17A C 0.4776(6) 0.8097(8) 0.4492(10) 0.1702 Uani
C17B C 0.1903(8) 0.6679(6) 0.4492(10) 0.1702 Uani
H21A H 0.4554 0.8109 0.4581 0.2040 Uiso
H21B H 0.1891 0.6445 0.4581 0.2040 Uiso
C18A C 0.5135(8) 0.8383(11) 0.4676(9) 0.1574 Uani
C18B C 0.1617(11) 0.6752(7) 0.4676(9) 0.1574 Uani
H22A H 0.5155 0.8592 0.4877 0.1890 Uiso
H22B H 0.1408 0.6563 0.4877 0.1890 Uiso
C19A C 0.5468(6) 0.8363(10) 0.4563(8) 0.1651 Uani
C19B C 0.1637(10) 0.7105(8) 0.4563(8) 0.1651 Uani
H23A H 0.5710 0.8551 0.4696 0.1980 Uiso
H23B H 0.1449 0.7159 0.4696 0.1980 Uiso
C20A C 0.5058(7) 0.9339(9) 0.2182(9) 0.1381 Uani
C20B C 0.0661(9) 0.5719(6) 0.2182(9) 0.1381 Uani
C21A C 0.4890(6) 0.9124(8) 0.2714(7) 0.1461 Uani
C21B C 0.0876(8) 0.5766(5) 0.2714(7) 0.1461 Uani
C22A C 0.4934(6) 0.8830(8) 0.2915(10) 0.1401 Uani
C22B C 0.1170(8) 0.6104(5) 0.2915(10) 0.1401 Uani
C23A C 0.4771(5) 0.8640(8) 0.3410(10) 0.1537 Uani
C23B C 0.1360(8) 0.6131(6) 0.3410(10) 0.1537 Uani
H24A H 0.4805 0.8438 0.3538 0.1850 Uiso
H24B H 0.1562 0.6367 0.3538 0.1850 Uiso
C24A C 0.4551(6) 0.8771(8) 0.3706(8) 0.1451 Uani
C24B C 0.1229(8) 0.5780(5) 0.3706(8) 0.1451 Uani
H25A H 0.4440 0.8655 0.4041 0.1740 Uiso
H25B H 0.1345 0.5785 0.4041 0.1740 Uiso
C25A C 0.4501(6) 0.9060(8) 0.3510(9) 0.1601 Uani
C25B C 0.0940(8) 0.5441(6) 0.3510(9) 0.1601 Uani
H26A H 0.4349 0.9137 0.3706 0.1920 Uiso
H26B H 0.0863 0.5212 0.3706 0.1920 Uiso
C26A C 0.4678(5) 0.9250(8) 0.3006(9) 0.1484 Uani
C26B C 0.0750(8) 0.5428(6) 0.3006(9) 0.1484 Uani
H27A H 0.4651 0.9456 0.2878 0.1770 Uiso
H27B H 0.0544 0.5195 0.2878 0.1770 Uiso
C27A C 0.5560(7) 0.9578(9) 0.1581(10) 0.1542 Uani
C27B C 0.0422(9) 0.5982(6) 0.1581(10) 0.1542 Uani
H28A H 0.5588 0.9835 0.1569 0.1850 Uiso
H28B H 0.0165 0.5753 0.1569 0.1850 Uiso
H29A H 0.5360 0.9415 0.1318 0.1850 Uiso
H29B H 0.0585 0.5945 0.1318 0.1850 Uiso
C28A C 0.5927(5) 0.9607(8) 0.1419(7) 0.1558 Uani
C28B C 0.0393(8) 0.6320(6) 0.1419(7) 0.1558 Uani
C29A C 0.5929(5) 0.9359(8) 0.1037(7) 0.1612 Uani
C29B C 0.0641(8) 0.6570(6) 0.1037(7) 0.1612 Uani
H30A H 0.5697 0.9169 0.0881 0.1940 Uiso
H30B H 0.0831 0.6528 0.0881 0.1940 Uiso
C30A C 0.6274(7) 0.9389(10) 0.0883(8) 0.1826 Uani
C30B C 0.0611(10) 0.6885(7) 0.0883(8) 0.1826 Uani
H31A H 0.6276 0.9222 0.0615 0.2190 Uiso
H31B H 0.0778 0.7054 0.0615 0.2190 Uiso
C31A C 0.6622(7) 0.9665(9) 0.1119(10) 0.1752 Uani
C31B C 0.0335(9) 0.6957(6) 0.1119(10) 0.1752 Uani
H32A H 0.6855 0.9678 0.1018 0.2100 Uiso
H32B H 0.0322 0.7177 0.1018 0.2100 Uiso
C32A C 0.6622(6) 0.9920(8) 0.1503(10) 0.1610 Uani
C32B C 0.0080(8) 0.6702(6) 0.1503(10) 0.1610 Uani
H33A H 0.6855 1.0111 0.1659 0.1940 Uiso
H33B H -0.0111 0.6744 0.1659 0.1940 Uiso
C33A C 0.6273(5) 0.9888(8) 0.1652(8) 0.1731 Uani
C33B C 0.0112(8) 0.6385(6) 0.1652(8) 0.1731 Uani
H34A H 0.6270 1.0057 0.1914 0.2080 Uiso
H34B H -0.0057 0.6213 0.1914 0.2080 Uiso
C34A C 0.5941(6) 0.8208(10) 0.0472(10) 0.1508 Uani
C34B C 0.1792(10) 0.7733(8) 0.0472(10) 0.1508 Uani
C35A C 0.5609(6) 0.8289(10) 0.0423(11) 0.1331 Uani
C35B C 0.1711(10) 0.7320(8) 0.0423(11) 0.1331 Uani
C36A C 0.5348(7) 0.8256(11) 0.0826(9) 0.1296 Uani
C36B C 0.1744(11) 0.7092(8) 0.0826(9) 0.1296 Uani
C37A C 0.5056(7) 0.8331(11) 0.0680(10) 0.1477 Uani
C37B C 0.1669(11) 0.6725(8) 0.0680(10) 0.1477 Uani
H35A H 0.4915 0.8373 0.0952 0.1770 Uiso
H35B H 0.1627 0.6542 0.0952 0.1770 Uiso
C38A C 0.4971(6) 0.8346(10) 0.0124(11) 0.1449 Uani
C38B C 0.1654(10) 0.6625(8) 0.0124(11) 0.1449 Uani
H36A H 0.4760 0.8376 0.0028 0.1730 Uiso
H36B H 0.1624 0.6384 0.0028 0.1730 Uiso
C39A C 0.5195(7) 0.8316(10) -0.0277(9) 0.1388 Uani
C39B C 0.1684(10) 0.6879(7) -0.0277(9) 0.1388 Uani
H37A H 0.5126 0.8302 -0.0647 0.1660 Uiso
H37B H 0.1698 0.6824 -0.0647 0.1660 Uiso
C40A C 0.5529(7) 0.8306(10) -0.0123(10) 0.1380 Uani
C40B C 0.1694(10) 0.7223(7) -0.0123(10) 0.1380 Uani
H38A H 0.5699 0.8312 -0.0392 0.1650 Uiso
H38B H 0.1688 0.7387 -0.0392 0.1650 Uiso
C41A C 0.6360(5) 0.8140(9) 0.1095(10) 0.1538 Uani
C41B C 0.1860(9) 0.8220(8) 0.1095(10) 0.1538 Uani
H39A H 0.6483 0.8068 0.0808 0.1840 Uiso
H39B H 0.1932 0.8415 0.0808 0.1840 Uiso
H40A H 0.6516 0.8419 0.1160 0.1840 Uiso
H40B H 0.1581 0.8097 0.1160 0.1840 Uiso
C42A C 0.6313(4) 0.7913(8) 0.1618(10) 0.1547 Uani
C42B C 0.2087(8) 0.8400(7) 0.1618(10) 0.1547 Uani
C43A C 0.6357(5) 0.7981(8) 0.2170(12) 0.1564 Uani
C43B C 0.2019(8) 0.8376(6) 0.2170(12) 0.1564 Uani
H41A H 0.6442 0.8233 0.2297 0.1880 Uiso
H41B H 0.1767 0.8209 0.2297 0.1880 Uiso
C44A C 0.6281(6) 0.7698(10) 0.2538(8) 0.1799 Uani
C44B C 0.2302(10) 0.8583(8) 0.2538(8) 0.1799 Uani
H42A H 0.6306 0.7751 0.2914 0.2160 Uiso
H42B H 0.2249 0.8555 0.2914 0.2160 Uiso
C45A C 0.6164(6) 0.7319(9) 0.2343(11) 0.1748 Uani
C45B C 0.2681(9) 0.8845(7) 0.2343(11) 0.1748 Uani
H43A H 0.6117 0.7119 0.2588 0.2090 Uiso
H43B H 0.2881 0.8998 0.2588 0.2090 Uiso
C46A C 0.6119(6) 0.7250(8) 0.1789(13) 0.1744 Uani
C46B C 0.2750(8) 0.8869(6) 0.1789(13) 0.1744 Uani
H44A H 0.6036 0.7000 0.1656 0.2090 Uiso
H44B H 0.3000 0.9036 0.1656 0.2090 Uiso
C47A C 0.6195(6) 0.7547(11) 0.1423(9) 0.1798 Uani
C47B C 0.2453(11) 0.8648(9) 0.1423(9) 0.1798 Uani
H45A H 0.6166 0.7498 0.1046 0.2160 Uiso
H45B H 0.2502 0.8668 0.1046 0.2160 Uiso
C48A C 0.4184(7) 0.7058(10) 0.2741(8) 0.1553 Uani
C48B C 0.2942(10) 0.7126(7) 0.2741(8) 0.1553 Uani
C49A C 0.4568(6) 0.7072(8) 0.2839(5) 0.1568 Uani
C49B C 0.2928(8) 0.7496(5) 0.2839(5) 0.1568 Uani
C50A C 0.4956(8) 0.7362(11) 0.2810(8) 0.1598 Uani
C50B C 0.2638(11) 0.7594(7) 0.2810(8) 0.1598 Uani
C51A C 0.5240(6) 0.7273(10) 0.2930(9) 0.1602 Uani
C51B C 0.2727(10) 0.7967(8) 0.2930(9) 0.1602 Uani
H46A H 0.5500 0.7470 0.2912 0.1920 Uiso
H46B H 0.2530 0.8030 0.2912 0.1920 Uiso
C52A C 0.5154(6) 0.6902(8) 0.3076(9) 0.1611 Uani
C52B C 0.3098(8) 0.8252(6) 0.3076(9) 0.1611 Uani
H47A H 0.5352 0.6848 0.3154 0.1930 Uiso
H47B H 0.3152 0.8504 0.3154 0.1930 Uiso
C53A C 0.4766(7) 0.6610(9) 0.3106(10) 0.1646 Uani
C53B C 0.3390(9) 0.8156(6) 0.3106(10) 0.1646 Uani
H48A H 0.4700 0.6357 0.3201 0.1970 Uiso
H48B H 0.3643 0.8343 0.3201 0.1970 Uiso
C54A C 0.4475(5) 0.6703(9) 0.2989(8) 0.1592 Uani
C54B C 0.3297(9) 0.7772(7) 0.2989(8) 0.1592 Uani
H49A H 0.4214 0.6510 0.3013 0.1910 Uiso
H49B H 0.3490 0.7704 0.3013 0.1910 Uiso
C55A C 0.3941(6) 0.7432(8) 0.2328(9) 0.1509 Uani
C55B C 0.2568(8) 0.6509(6) 0.2328(9) 0.1509 Uani
H50A H 0.4008 0.7565 0.2681 0.1810 Uiso
H50B H 0.2435 0.6443 0.2681 0.1810 Uiso
H51A H 0.3666 0.7239 0.2338 0.1810 Uiso
H51B H 0.2761 0.6427 0.2338 0.1810 Uiso
C56A C 0.4002(4) 0.7720(6) 0.1899(9) 0.1637 Uani
C56B C 0.2280(6) 0.6282(4) 0.1899(9) 0.1637 Uani
C57A C 0.4166(5) 0.8100(7) 0.2042(9) 0.1631 Uani
C57B C 0.1900(7) 0.6066(5) 0.2042(9) 0.1631 Uani
H52A H 0.4239 0.8179 0.2405 0.1960 Uiso
H52B H 0.1821 0.6060 0.2405 0.1960 Uiso
C58A C 0.4223(6) 0.8372(8) 0.1630(11) 0.1670 Uani
C58B C 0.1628(8) 0.5851(6) 0.1630(11) 0.1670 Uani
H53A H 0.4337 0.8635 0.1717 0.2000 Uiso
H53B H 0.1365 0.5702 0.1717 0.2000 Uiso
C59A C 0.4112(5) 0.8250(8) 0.1103(10) 0.1833 Uani
C59B C 0.1750(8) 0.5862(6) 0.1103(10) 0.1833 Uani
H54A H 0.4147 0.8431 0.0832 0.2200 Uiso
H54B H 0.1569 0.5716 0.0832 0.2200 Uiso
C60A C 0.3947(6) 0.7860(8) 0.0965(8) 0.1587 Uani
C60B C 0.2140(8) 0.6087(6) 0.0965(8) 0.1587 Uani
H55A H 0.3873 0.7779 0.0603 0.1910 Uiso
H55B H 0.2221 0.6094 0.0603 0.1910 Uiso
C61A C 0.3892(5) 0.7593(8) 0.1370(9) 0.1702 Uani
C61B C 0.2407(8) 0.6299(6) 0.1370(9) 0.1702 Uani
H56A H 0.3782 0.7331 0.1284 0.2040 Uiso
H56B H 0.2669 0.6451 0.1284 0.2040 Uiso
O21 O 0.2204(5) 0.5271(5) 0.0890(8) 0.1574 Uani
C62 C 0.2601(7) 0.5359(8) 0.0894(12) 0.1723 Uani
H57 H 0.2619 0.5144 0.0734 0.2070 Uiso
H58 H 0.2694 0.5393 0.1271 0.2070 Uiso
C63 C 0.2857(6) 0.5733(6) 0.0563(11) 0.1393 Uani
H59 H 0.2801 0.5682 0.0177 0.2090 Uiso
H60 H 0.3127 0.5819 0.0629 0.2090 Uiso
H61 H 0.2802 0.5933 0.0677 0.2090 Uiso
C64 C 0.2055(8) 0.4990(8) 0.1349(11) 0.1667 Uani
H62 H 0.2213 0.5103 0.1676 0.2000 Uiso
H63 H 0.2062 0.4755 0.1253 0.2000 Uiso
C65 C 0.1631(7) 0.4892(8) 0.1454(12) 0.1911 Uani
H64 H 0.1616 0.5126 0.1430 0.2890 Uiso
H65 H 0.1551 0.4781 0.1814 0.2890 Uiso
H66 H 0.1463 0.4709 0.1182 0.2890 Uiso
loop_
_atom_site_aniso_label
_atom_site_aniso_U_11
_atom_site_aniso_U_22
_atom_site_aniso_U_33
_atom_site_aniso_U_23
_atom_site_aniso_U_13
_atom_site_aniso_U_12
Pr1 0.0789(9) 0.0786(9) 0.0817(10) -0.0003(9) -0.0004(9) 0.0391(8)
Pr2 0.0791(9) 0.0791(9) 0.080(2) 0.000 0.000 0.0395(5)
N1 0.163(6) 0.163(6) 0.156(7) 0.033(6) 0.062(6) 0.090(6)
N2 0.127 0.166 0.163 -0.047 -0.018 0.064
N3 0.149 0.157 0.163 0.039 -0.009 0.068
N4 0.189(8) 0.145(7) 0.160(8) 0.022(7) 0.058(7) 0.080(7)
N5 0.157(8) 0.165(8) 0.145(9) 0.010(8) 0.038(8) 0.090(8)
N6 0.160(9) 0.167(9) 0.149(9) 0.027(8) 0.048(9) 0.085(8)
N7 0.159(8) 0.155(8) 0.145(8) 0.034(8) 0.033(8) 0.110(7)
N8 0.162(11) 0.152(11) 0.142(12) 0.064(11) 0.028(11) 0.101(10)
O1 0.159(6) 0.153(6) 0.145(7) 0.025(6) 0.046(6) 0.097(5)
O2 0.168(8) 0.155(7) 0.150(8) 0.009(7) 0.055(7) 0.096(7)
O3 0.156(8) 0.133(8) 0.138(9) 0.015(8) 0.044(8) 0.091(7)
O4 0.176(6) 0.141(6) 0.149(7) 0.027(6) 0.059(6) 0.088(6)
O5 0.160(6) 0.154(6) 0.149(6) 0.026(5) 0.043(6) 0.094(5)
O6 0.095 0.162 0.152 -0.049 -0.02 0.054
O7 0.079 0.148 0.154 0.028 -0.013 0.032
O8 0.172(8) 0.119(7) 0.153(8) 0.041(7) 0.051(7) 0.097(7)
O9 0.162(7) 0.159(7) 0.147(8) 0.026(7) 0.026(7) 0.093(7)
O10 0.173(7) 0.163(7) 0.148(8) 0.023(7) 0.041(7) 0.093(6)
O11 0.172(13) 0.215(14) 0.153(14) -0.025(13) -0.005(12) 0.065(11)
O12 0.167(7) 0.152(7) 0.154(8) 0.036(7) 0.054(7) 0.100(6)
O13 0.165(7) 0.158(7) 0.149(8) 0.019(7) 0.037(7) 0.088(7)
O14 0.154(14) 0.179(14) 0.146(16) 0.001(12) 0.063(13) 0.054(12)
O15 0.159(7) 0.164(7) 0.153(8) 0.020(7) 0.033(7) 0.094(6)
O16 0.149(7) 0.160(7) 0.155(7) 0.031(6) 0.027(7) 0.107(6)
O17 0.165(13) 0.236(15) 0.210(16) 0.055(14) 0.046(13) 0.108(12)
O18 0.166(8) 0.152(8) 0.154(9) 0.023(8) 0.053(8) 0.083(7)
O19 0.178(11) 0.162(12) 0.155(12) 0.034(12) 0.041(11) 0.064(11)
O20 0.217(16) 0.197(15) 0.213(17) 0.028(14) 0.012(15) 0.071(14)
C1 0.158(7) 0.144(7) 0.142(8) 0.014(7) 0.058(7) 0.088(7)
C2 0.162(7) 0.147(7) 0.148(8) 0.020(7) 0.052(7) 0.100(7)
C3 0.167(8) 0.152(8) 0.148(8) 0.011(8) 0.052(8) 0.093(7)
C4 0.168(8) 0.152(8) 0.148(9) 0.019(8) 0.055(8) 0.086(8)
C5 0.169(7) 0.153(7) 0.149(7) 0.021(7) 0.052(7) 0.086(7)
C6 0.160(6) 0.155(6) 0.158(6) 0.024(6) 0.052(6) 0.098(6)
C7 0.157(7) 0.152(7) 0.151(7) 0.023(7) 0.048(7) 0.105(6)
C8 0.161(7) 0.148(7) 0.150(7) 0.021(7) 0.048(7) 0.099(6)
C9 0.166(8) 0.152(8) 0.159(8) 0.025(8) 0.046(7) 0.103(7)
C10 0.165(9) 0.149(9) 0.155(9) 0.030(9) 0.045(8) 0.093(8)
C11 0.153(8) 0.150(8) 0.150(9) 0.021(8) 0.051(8) 0.106(7)
C12 0.159(6) 0.158(6) 0.153(7) 0.019(6) 0.048(6) 0.091(6)
C14 0.169(8) 0.158(8) 0.155(8) 0.065(7) 0.078(7) 0.112(7)
C15 0.179(7) 0.165(7) 0.161(7) 0.055(7) 0.081(7) 0.093(7)
C16 0.176(9) 0.163(9) 0.161(9) 0.054(9) 0.074(9) 0.095(8)
C17 0.182(9) 0.168(9) 0.168(10) 0.055(9) 0.082(9) 0.093(9)
C18 0.174(8) 0.169(8) 0.159(9) 0.065(8) 0.094(8) 0.108(7)
C19 0.180(8) 0.168(8) 0.166(8) 0.053(8) 0.084(7) 0.101(7)
C20 0.075 0.154 0.157 -0.052 -0.022 0.036
C21 0.11 0.165 0.153 -0.054 -0.019 0.061
C22 0.084 0.155 0.155 -0.065 -0.034 0.04
C23 0.132 0.171 0.153 -0.07 -0.037 0.072
C24 0.098 0.161 0.158 -0.058 -0.021 0.051
C25 0.142 0.177 0.159 -0.06 -0.019 0.078
C26 0.111 0.161 0.156 -0.052 -0.01 0.055
C27 0.133 0.167 0.156 -0.044 -0.015 0.07
C28 0.138 0.162 0.158 -0.045 -0.025 0.068
C29 0.149 0.163 0.161 -0.033 -0.006 0.07
C30 0.215 0.177 0.165 -0.046 -0.02 0.105
C31 0.203 0.167 0.159 -0.039 -0.017 0.095
C32 0.15 0.168 0.159 -0.036 -0.006 0.075
C33 0.184 0.171 0.162 -0.044 -0.024 0.087
C34 0.114 0.154 0.163 0.057 0.001 0.051
C35 0.06 0.151 0.158 0.039 -0.022 0.03
C36 0.057 0.134 0.158 0.05 -0.006 0.018
C37 0.108 0.154 0.163 0.034 -0.035 0.052
C38 0.099 0.149 0.164 0.046 -0.01 0.045
C39 0.09 0.152 0.155 0.041 -0.026 0.046
C40 0.078 0.154 0.158 0.054 -0.008 0.04
C41 0.115 0.162 0.164 0.045 0.003 0.054
C42 0.126 0.169 0.16 0.034 -0.01 0.067
C43 0.12 0.173 0.168 0.038 -0.001 0.067
C44 0.195 0.188 0.169 0.039 0.002 0.105
C45 0.184 0.176 0.167 0.033 -0.01 0.092
C46 0.177 0.18 0.17 0.039 0 0.092
C47 0.196 0.179 0.17 0.042 0.009 0.098
C48 0.177(8) 0.144(7) 0.154(8) 0.023(7) 0.060(7) 0.087(7)
C49 0.181(7) 0.141(7) 0.157(8) 0.030(7) 0.054(7) 0.087(7)
C50 0.178(7) 0.149(7) 0.154(7) 0.031(7) 0.054(7) 0.083(6)
C51 0.182(8) 0.150(8) 0.158(8) 0.030(8) 0.062(8) 0.090(7)
C52 0.181(9) 0.149(9) 0.162(9) 0.024(9) 0.066(9) 0.089(8)
C53 0.185(9) 0.147(9) 0.163(9) 0.031(9) 0.056(9) 0.084(8)
C54 0.183(8) 0.144(8) 0.155(8) 0.031(8) 0.063(8) 0.085(7)
C55 0.178(8) 0.134(7) 0.154(8) 0.016(7) 0.057(8) 0.088(7)
C56 0.182(9) 0.145(9) 0.159(10) 0.024(9) 0.052(9) 0.078(8)
C57 0.182(9) 0.148(8) 0.160(9) 0.008(8) 0.057(9) 0.083(8)
C58 0.183(10) 0.152(9) 0.157(11) 0.016(10) 0.053(10) 0.077(8)
C59 0.196(11) 0.157(10) 0.158(11) 0.019(10) 0.041(11) 0.059(9)
C60 0.179(10) 0.141(9) 0.160(11) 0.001(9) 0.064(10) 0.083(8)
C61 0.184(9) 0.155(9) 0.156(10) 0.016(9) 0.058(9) 0.073(8)
Pr1A 0.0786 0.0793 0.0817 -0.0001 0.0003 0.0395
Pr1B 0.0793 0.0789 0.0817 0.0004 0.0001 0.0398
Pr1N 0.0793 0.0789 0.0817 0.0004 0.0001 0.0398
Pr1D 0.0793 0.0786 0.0817 -0.0003 0.0001 0.0395
Pr1L 0.0789 0.0786 0.0817 -0.0003 -0.0004 0.0391
Pr1C 0.0786 0.0789 0.0817 0.0004 0.0003 0.0391
Pr1M 0.0786 0.0793 0.0817 -0.0001 0.0003 0.0395
Pr1E 0.0789 0.0793 0.0817 -0.0001 -0.0004 0.0398
N1A 0.163 0.146 0.156 0.029 -0.033 0.073
N1B 0.146 0.163 0.156 -0.062 -0.029 0.073
N2A 0.166 0.165 0.163 0.029 0.047 0.102
N2B 0.165 0.127 0.163 0.018 -0.029 0.063
N3A 0.157 0.17 0.163 -0.048 -0.039 0.089
N3B 0.17 0.149 0.163 0.009 0.048 0.081
N4A 0.145 0.174 0.16 0.036 -0.022 0.065
N4B 0.174 0.189 0.16 -0.058 -0.036 0.109
N5A 0.165 0.142 0.145 0.028 -0.01 0.075
N5B 0.142 0.157 0.145 -0.038 -0.028 0.067
N6A 0.167 0.157 0.149 0.021 -0.027 0.082
N6B 0.157 0.16 0.149 -0.048 -0.021 0.075
N7A 0.155 0.094 0.145 -0.001 -0.034 0.045
N7B 0.094 0.159 0.145 -0.033 0.001 0.049
N8A 0.152 0.112 0.142 -0.036 -0.064 0.051
N8B 0.112 0.162 0.142 -0.028 0.036 0.061
O1A 0.153 0.118 0.145 0.021 -0.025 0.056
O1B 0.118 0.159 0.145 -0.046 -0.021 0.062
O2A 0.155 0.131 0.15 0.046 -0.009 0.059
O2B 0.131 0.168 0.15 -0.055 -0.046 0.072
O3A 0.133 0.107 0.138 0.029 -0.015 0.042
O3B 0.107 0.156 0.138 -0.044 -0.029 0.065
O4A 0.141 0.141 0.149 0.032 -0.027 0.053
O4B 0.141 0.176 0.149 -0.059 -0.032 0.088
O5A 0.154 0.126 0.149 0.017 -0.026 0.06
O5B 0.126 0.16 0.149 -0.043 -0.017 0.066
O6A 0.162 0.149 0.152 0.029 0.049 0.108
O6B 0.149 0.095 0.152 0.02 -0.029 0.041
O6G 0.162 0.149 0.152 0.029 0.049 0.108
O6H 0.149 0.095 0.152 0.02 -0.029 0.041
O6F 0.095 0.162 0.152 -0.049 -0.02 0.054
O7A 0.148 0.163 0.154 -0.041 -0.028 0.116
O7B 0.163 0.079 0.154 0.013 0.041 0.047
O7D 0.163 0.148 0.154 0.028 0.041 0.116
O7C 0.148 0.079 0.154 0.013 -0.028 0.032
O7E 0.079 0.163 0.154 -0.041 -0.013 0.047
O8A 0.119 0.097 0.153 0.01 -0.041 0.022
O8B 0.097 0.172 0.153 -0.051 -0.01 0.075
O9A 0.159 0.135 0.147 0 -0.026 0.066
O9B 0.135 0.162 0.147 -0.026 0 0.069
O10A 0.163 0.15 0.148 0.018 -0.023 0.07
O10B 0.15 0.173 0.148 -0.041 -0.018 0.08
O11A 0.215 0.257 0.153 0.02 0.025 0.15
O11B 0.257 0.172 0.153 0.005 -0.02 0.107
O12A 0.152 0.119 0.154 0.018 -0.036 0.052
O12B 0.119 0.167 0.154 -0.054 -0.018 0.067
O13A 0.158 0.147 0.149 0.018 -0.019 0.07
O13B 0.147 0.165 0.149 -0.037 -0.018 0.077
O14A 0.179 0.225 0.146 0.062 -0.001 0.125
O14B 0.225 0.154 0.146 -0.063 -0.062 0.1
O15A 0.164 0.135 0.153 0.013 -0.02 0.07
O15B 0.135 0.159 0.153 -0.033 -0.013 0.065
O16A 0.16 0.095 0.155 -0.004 -0.031 0.053
O16B 0.095 0.149 0.155 -0.027 0.004 0.042
O17A 0.236 0.185 0.21 -0.009 -0.055 0.128
O17B 0.185 0.165 0.21 -0.046 0.009 0.057
O18A 0.152 0.152 0.154 0.03 -0.023 0.069
O18B 0.152 0.166 0.154 -0.053 -0.03 0.083
O19A 0.162 0.212 0.155 0.007 -0.034 0.098
O19B 0.212 0.178 0.155 -0.041 -0.007 0.114
O20B 0.272 0.217 0.213 -0.012 0.016 0.146
O20A 0.197 0.272 0.213 -0.016 -0.028 0.126
C1A 0.144 0.126 0.142 0.044 -0.014 0.056
C1B 0.126 0.158 0.142 -0.058 -0.044 0.07
C2A 0.147 0.109 0.148 0.032 -0.02 0.047
C2B 0.109 0.162 0.148 -0.052 -0.032 0.062
C3A 0.152 0.133 0.148 0.041 -0.011 0.059
C3B 0.133 0.167 0.148 -0.052 -0.041 0.074
C4A 0.152 0.148 0.148 0.036 -0.019 0.066
C4B 0.148 0.168 0.148 -0.055 -0.036 0.082
C5A 0.153 0.15 0.149 0.031 -0.021 0.067
C5B 0.15 0.169 0.149 -0.052 -0.031 0.083
C6A 0.155 0.119 0.158 0.028 -0.024 0.057
C6B 0.119 0.16 0.158 -0.052 -0.028 0.062
C7A 0.152 0.099 0.151 0.025 -0.023 0.047
C7B 0.099 0.157 0.151 -0.048 -0.025 0.052
C8A 0.148 0.111 0.15 0.027 -0.021 0.049
C8B 0.111 0.161 0.15 -0.048 -0.027 0.062
C9A 0.152 0.112 0.159 0.021 -0.025 0.049
C9B 0.112 0.166 0.159 -0.046 -0.021 0.063
C10A 0.149 0.128 0.155 0.015 -0.03 0.056
C10B 0.128 0.165 0.155 -0.045 -0.015 0.072
C11A 0.15 0.091 0.15 0.03 -0.021 0.044
C11B 0.091 0.153 0.15 -0.051 -0.03 0.047
C12A 0.158 0.135 0.153 0.029 -0.019 0.067
C12B 0.135 0.159 0.153 -0.048 -0.029 0.068
C14A 0.158 0.103 0.155 0.013 -0.065 0.046
C14B 0.103 0.169 0.155 -0.078 -0.013 0.057
C15A 0.165 0.158 0.161 0.026 -0.055 0.072
C15B 0.158 0.179 0.161 -0.081 -0.026 0.086
C16A 0.163 0.149 0.161 0.02 -0.054 0.068
C16B 0.149 0.176 0.161 -0.074 -0.02 0.081
C17A 0.168 0.164 0.168 0.027 -0.055 0.075
C17B 0.164 0.182 0.168 -0.082 -0.027 0.089
C18A 0.169 0.127 0.159 0.029 -0.065 0.061
C18B 0.127 0.174 0.159 -0.094 -0.029 0.066
C19A 0.168 0.146 0.166 0.031 -0.053 0.067
C19B 0.146 0.18 0.166 -0.084 -0.031 0.079
C20A 0.154 0.157 0.157 0.03 0.052 0.118
C20B 0.157 0.075 0.157 0.022 -0.03 0.039
C21A 0.165 0.153 0.153 0.035 0.054 0.104
C21B 0.153 0.11 0.153 0.019 -0.035 0.049
C22A 0.155 0.159 0.155 0.031 0.065 0.115
C22B 0.159 0.084 0.155 0.034 -0.031 0.044
C23A 0.171 0.159 0.153 0.033 0.07 0.099
C23B 0.159 0.132 0.153 0.037 -0.033 0.06
C24A 0.161 0.157 0.158 0.037 0.058 0.11
C24B 0.157 0.098 0.158 0.021 -0.037 0.047
C25A 0.177 0.163 0.159 0.041 0.06 0.099
C25B 0.163 0.142 0.159 0.019 -0.041 0.064
C26A 0.161 0.162 0.156 0.042 0.052 0.106
C26B 0.162 0.111 0.156 0.01 -0.042 0.056
C27A 0.167 0.16 0.156 0.029 0.044 0.097
C27B 0.16 0.133 0.156 0.015 -0.029 0.063
C28A 0.162 0.164 0.158 0.02 0.045 0.094
C28B 0.164 0.138 0.158 0.025 -0.02 0.07
C29A 0.163 0.172 0.161 0.027 0.033 0.093
C29B 0.172 0.149 0.161 0.006 -0.027 0.079
C30A 0.177 0.182 0.165 0.026 0.046 0.072
C30B 0.182 0.215 0.165 0.02 -0.026 0.11
C31A 0.167 0.18 0.159 0.022 0.039 0.072
C31B 0.18 0.203 0.159 0.017 -0.022 0.108
C32A 0.168 0.168 0.159 0.03 0.036 0.093
C32B 0.168 0.15 0.159 0.006 -0.03 0.075
C33A 0.171 0.181 0.162 0.02 0.044 0.084
C33B 0.181 0.184 0.162 0.024 -0.02 0.097
C34A 0.154 0.166 0.163 -0.056 -0.057 0.103
C34B 0.166 0.114 0.163 -0.001 0.056 0.063
C35A 0.151 0.151 0.158 -0.061 -0.039 0.121
C35B 0.151 0.06 0.158 0.022 0.061 0.03
C36A 0.134 0.155 0.158 -0.056 -0.05 0.116
C36B 0.155 0.057 0.158 0.006 0.056 0.039
C37A 0.154 0.158 0.163 -0.069 -0.034 0.102
C37B 0.158 0.108 0.163 0.035 0.069 0.056
C38A 0.149 0.158 0.164 -0.056 -0.046 0.104
C38B 0.158 0.099 0.164 0.01 0.056 0.054
C39A 0.152 0.15 0.155 -0.067 -0.041 0.106
C39B 0.15 0.09 0.155 0.026 0.067 0.044
C40A 0.154 0.152 0.158 -0.062 -0.054 0.114
C40B 0.152 0.078 0.158 0.008 0.062 0.038
C41A 0.162 0.169 0.164 -0.042 -0.045 0.108
C41B 0.169 0.115 0.164 -0.003 0.042 0.061
C42A 0.169 0.161 0.16 -0.044 -0.034 0.102
C42B 0.161 0.126 0.16 0.01 0.044 0.059
C43A 0.173 0.159 0.168 -0.039 -0.038 0.106
C43B 0.159 0.12 0.168 0.001 0.039 0.053
C44A 0.188 0.173 0.169 -0.037 -0.039 0.083
C44B 0.173 0.195 0.169 -0.002 0.037 0.09
C45A 0.176 0.176 0.167 -0.043 -0.033 0.084
C45B 0.176 0.184 0.167 0.01 0.043 0.092
C46A 0.18 0.173 0.17 -0.039 -0.039 0.088
C46B 0.173 0.177 0.17 0 0.039 0.085
C47A 0.179 0.179 0.17 -0.033 -0.042 0.081
C47B 0.179 0.196 0.17 -0.009 0.033 0.098
C48A 0.144 0.147 0.154 0.037 -0.023 0.057
C48B 0.147 0.177 0.154 -0.06 -0.037 0.09
C49A 0.141 0.148 0.157 0.024 -0.03 0.054
C49B 0.148 0.181 0.157 -0.054 -0.024 0.094
C50A 0.149 0.161 0.154 0.023 -0.031 0.066
C50B 0.161 0.178 0.154 -0.054 -0.023 0.095
C51A 0.15 0.152 0.158 0.032 -0.03 0.06
C51B 0.152 0.182 0.158 -0.062 -0.032 0.092
C52A 0.149 0.152 0.162 0.042 -0.024 0.06
C52B 0.152 0.181 0.162 -0.066 -0.042 0.092
C53A 0.147 0.164 0.163 0.025 -0.031 0.063
C53B 0.164 0.185 0.163 -0.056 -0.025 0.101
C54A 0.144 0.157 0.155 0.032 -0.031 0.059
C54B 0.157 0.183 0.155 -0.063 -0.032 0.098
C55A 0.134 0.136 0.154 0.041 -0.016 0.046
C55B 0.136 0.178 0.154 -0.057 -0.041 0.09
C56A 0.145 0.171 0.159 0.028 -0.024 0.067
C56B 0.171 0.182 0.159 -0.052 -0.028 0.104
C57A 0.148 0.164 0.16 0.049 -0.008 0.065
C57B 0.164 0.182 0.16 -0.057 -0.049 0.099
C58A 0.152 0.181 0.157 0.037 -0.016 0.075
C58B 0.181 0.183 0.157 -0.053 -0.037 0.106
C59A 0.157 0.235 0.158 0.022 -0.019 0.098
C59B 0.235 0.196 0.158 -0.041 -0.022 0.137
C60A 0.141 0.154 0.16 0.063 -0.001 0.058
C60B 0.154 0.179 0.16 -0.064 -0.063 0.096
C61A 0.155 0.193 0.156 0.042 -0.016 0.082
C61B 0.193 0.184 0.156 -0.058 -0.042 0.111
O21 0.186(12) 0.177(12) 0.143(13) 0.039(10) 0.034(12) 0.116(11)
C62 0.187(14) 0.182(13) 0.141(14) 0.028(12) 0.055(14) 0.087(13)
C63 0.184(16) 0.160(15) 0.134(17) 0.022(14) 0.068(15) 0.131(13)
C64 0.186(11) 0.158(10) 0.144(11) 0.033(10) 0.064(11) 0.077(10)
C65 0.21(2) 0.189(18) 0.14(2) 0.047(17) 0.010(19) 0.074(18)
loop_
_geom_bond_atom_site_label_1
_geom_bond_atom_site_label_2
_geom_bond_site_symmetry_1
_geom_bond_site_symmetry_2
Pr1 O5 1_555 1_555
Pr2 O8 1_555 1_555
N1 H1 1_555 1_555
N2 H2 1_555 1_555
N3 H3 1_555 1_555
N4 H4 1_555 1_555
N5 O9 1_555 1_555
N6 O12 1_555 1_555
N7 O15 1_555 1_555
N8 O18 1_555 1_555
O1 C2 1_555 1_555
O2 C3 1_555 1_555
O3 C4 1_555 1_555
O4 C5 1_555 1_555
O5 C6 1_555 1_555
O6 C20 1_555 1_555
O7 C34 1_555 1_555
O8 C48 1_555 1_555
O9 Pr1 1_555 1_555
O10 Pr1 1_555 1_555
O11 N5 1_555 1_555
O12 Pr1 1_555 1_555
O13 Pr1 1_555 1_555
O14 N6 1_555 1_555
O15 Pr1 1_555 1_555
O16 Pr1 1_555 1_555
O17 N7 1_555 1_555
O18 Pr2 1_555 1_555
O19 Pr2 1_555 1_555
O20 N8 1_555 1_555
O21 C62 1_555 1_555
C1 C2 1_555 1_555
C2 H5 1_555 1_555
H6 C2 1_555 1_555
C3 C1 1_555 1_555
H7 C3 1_555 1_555
H8 C3 1_555 1_555
C4 C1 1_555 1_555
H9 C4 1_555 1_555
H10 C4 1_555 1_555
C5 C1 1_555 1_555
H11 C5 1_555 1_555
H12 C5 1_555 1_555
C6 N1 1_555 1_555
C7 C6 1_555 1_555
C8 O1 1_555 1_555
C9 C8 1_555 1_555
H13 C9 1_555 1_555
C10 C9 1_555 1_555
H14 C10 1_555 1_555
C11 C10 1_555 1_555
H15 C11 1_555 1_555
C12 C7 1_555 1_555
H16 C12 1_555 1_555
C13 N1 1_555 1_555
H17 C13 1_555 1_555
H18 C13 1_555 1_555
C14 C13 1_555 1_555
C15 C14 1_555 1_555
H19 C15 1_555 1_555
C16 C15 1_555 1_555
H20 C16 1_555 1_555
C17 C16 1_555 1_555
H21 C17 1_555 1_555
C18 C17 1_555 1_555
H22 C18 1_555 1_555
C19 C14 1_555 1_555
H23 C19 1_555 1_555
C20 N2 1_555 1_555
C21 C20 1_555 1_555
C22 O2 1_555 1_555
C23 C22 1_555 1_555
H24 C23 1_555 1_555
C24 C23 1_555 1_555
H25 C24 1_555 1_555
C25 C24 1_555 1_555
H26 C25 1_555 1_555
C26 C21 1_555 1_555
H27 C26 1_555 1_555
C27 N2 1_555 1_555
H28 C27 1_555 1_555
H29 C27 1_555 1_555
C28 C27 1_555 1_555
C29 C28 1_555 1_555
H30 C29 1_555 1_555
C30 C29 1_555 1_555
H31 C30 1_555 1_555
C31 C30 1_555 1_555
H32 C31 1_555 1_555
C32 C31 1_555 1_555
H33 C32 1_555 1_555
C33 C28 1_555 1_555
H34 C33 1_555 1_555
C34 N3 1_555 1_555
C35 C34 1_555 1_555
C36 O3 1_555 1_555
C37 C36 1_555 1_555
H35 C37 1_555 1_555
C38 C37 1_555 1_555
H36 C38 1_555 1_555
C39 C38 1_555 1_555
H37 C39 1_555 1_555
C40 C35 1_555 1_555
H38 C40 1_555 1_555
C41 N3 1_555 1_555
H39 C41 1_555 1_555
H40 C41 1_555 1_555
C42 C41 1_555 1_555
C43 C42 1_555 1_555
H41 C43 1_555 1_555
C44 C43 1_555 1_555
H42 C44 1_555 1_555
C45 C44 1_555 1_555
H43 C45 1_555 1_555
C46 C45 1_555 1_555
H44 C46 1_555 1_555
C47 C42 1_555 1_555
H45 C47 1_555 1_555
C48 N4 1_555 1_555
C49 C48 1_555 1_555
C50 O4 1_555 1_555
C51 C50 1_555 1_555
H46 C51 1_555 1_555
C52 C51 1_555 1_555
H47 C52 1_555 1_555
C53 C52 1_555 1_555
H48 C53 1_555 1_555
C54 C49 1_555 1_555
H49 C54 1_555 1_555
C55 N4 1_555 1_555
H50 C55 1_555 1_555
H51 C55 1_555 1_555
C56 C55 1_555 1_555
C57 C56 1_555 1_555
H52 C57 1_555 1_555
C58 C57 1_555 1_555
H53 C58 1_555 1_555
C59 C58 1_555 1_555
H54 C59 1_555 1_555
C60 C59 1_555 1_555
H55 C60 1_555 1_555
C61 C56 1_555 1_555
H56 C61 1_555 1_555
C62 H57 1_555 1_555
H58 C62 1_555 1_555
C63 C62 1_555 1_555
H59 C63 1_555 1_555
H60 C63 1_555 1_555
H61 C63 1_555 1_555
C64 O21 1_555 1_555
H62 C64 1_555 1_555
H63 C64 1_555 1_555
C65 C64 1_555 1_555
H64 C65 1_555 1_555
H65 C65 1_555 1_555
H66 C65 1_555 1_555
Pr1A O5A 1_555 1_555
Pr1B O5B 1_555 1_555
Pr1N O6 1_555 1_555
Pr1D O7 1_555 1_555
Pr1L O6A 1_555 1_555
Pr1C O7A 1_555 1_555
Pr1M O6B 1_555 1_555
Pr1E O7B 1_555 1_555
N1A H1A 1_555 1_555
N1B H1B 1_555 1_555
N2A H2A 1_555 1_555
N2B H2B 1_555 1_555
N3A H3A 1_555 1_555
N3B H3B 1_555 1_555
N4A H4A 1_555 1_555
N4B H4B 1_555 1_555
N5A O9A 1_555 1_555
N5B O9B 1_555 1_555
N6A O12A 1_555 1_555
N6B O12B 1_555 1_555
N7A O15A 1_555 1_555
N7B O15B 1_555 1_555
N8A O18A 1_555 1_555
N8B O18B 1_555 1_555
O1A C2A 1_555 1_555
O1B C2B 1_555 1_555
O2A C3A 1_555 1_555
O2B C3B 1_555 1_555
O3A C4A 1_555 1_555
O3B C4B 1_555 1_555
O4A C5A 1_555 1_555
O4B C5B 1_555 1_555
O5A C6A 1_555 1_555
O5B C6B 1_555 1_555
O6A C20A 1_555 1_555
O6B C20B 1_555 1_555
O6G Pr1 1_555 1_555
O6H Pr1A 1_555 1_555
O6F Pr1B 1_555 1_555
O7A C34A 1_555 1_555
O7B C34B 1_555 1_555
O7D Pr1 1_555 1_555
O7C Pr1A 1_555 1_555
O7E Pr1B 1_555 1_555
O8A Pr2 1_555 1_555
O8B Pr2 1_555 1_555
O9A Pr1A 1_555 1_555
O9B Pr1B 1_555 1_555
O10A Pr1A 1_555 1_555
O10B Pr1B 1_555 1_555
O11A N5A 1_555 1_555
O11B N5B 1_555 1_555
O12A Pr1A 1_555 1_555
O12B Pr1B 1_555 1_555
O13A Pr1A 1_555 1_555
O13B Pr1B 1_555 1_555
O14A N6A 1_555 1_555
O14B N6B 1_555 1_555
O15A Pr1A 1_555 1_555
O15B Pr1B 1_555 1_555
O16A Pr1A 1_555 1_555
O16B Pr1B 1_555 1_555
O17A N7A 1_555 1_555
O17B N7B 1_555 1_555
O18A Pr2 1_555 1_555
O18B Pr2 1_555 1_555
O19A Pr2 1_555 1_555
O19B Pr2 1_555 1_555
O20B N8B 1_555 1_555
O20A N8A 1_555 1_555
C1A C2A 1_555 1_555
C1B C2B 1_555 1_555
C2A H5A 1_555 1_555
C2B H5B 1_555 1_555
H6A C2A 1_555 1_555
H6B C2B 1_555 1_555
C3A C1A 1_555 1_555
C3B C1B 1_555 1_555
H7A C3A 1_555 1_555
H7B C3B 1_555 1_555
H8A C3A 1_555 1_555
H8B C3B 1_555 1_555
C4A C1A 1_555 1_555
C4B C1B 1_555 1_555
H9A C4A 1_555 1_555
H9B C4B 1_555 1_555
H10A C4A 1_555 1_555
H10B C4B 1_555 1_555
C5A C1A 1_555 1_555
C5B C1B 1_555 1_555
H11A C5A 1_555 1_555
H11B C5B 1_555 1_555
H12A C5A 1_555 1_555
H12B C5B 1_555 1_555
C6A N1A 1_555 1_555
C6B N1B 1_555 1_555
C7A C6A 1_555 1_555
C7B C6B 1_555 1_555
C8A O1A 1_555 1_555
C8B O1B 1_555 1_555
C9A C8A 1_555 1_555
C9B C8B 1_555 1_555
H13A C9A 1_555 1_555
H13B C9B 1_555 1_555
C10A C9A 1_555 1_555
C10B C9B 1_555 1_555
H14A C10A 1_555 1_555
H14B C10B 1_555 1_555
C11A C10A 1_555 1_555
C11B C10B 1_555 1_555
H15A C11A 1_555 1_555
H15B C11B 1_555 1_555
C12A C7A 1_555 1_555
C12B C7B 1_555 1_555
H16A C12A 1_555 1_555
H16B C12B 1_555 1_555
C13A N1A 1_555 1_555
C13B N1B 1_555 1_555
H17A C13A 1_555 1_555
H17B C13B 1_555 1_555
H18A C13A 1_555 1_555
H18B C13B 1_555 1_555
C14A C13A 1_555 1_555
C14B C13B 1_555 1_555
C15A C14A 1_555 1_555
C15B C14B 1_555 1_555
H19A C15A 1_555 1_555
H19B C15B 1_555 1_555
C16A C15A 1_555 1_555
C16B C15B 1_555 1_555
H20A C16A 1_555 1_555
H20B C16B 1_555 1_555
C17A C16A 1_555 1_555
C17B C16B 1_555 1_555
H21A C17A 1_555 1_555
H21B C17B 1_555 1_555
C18A C17A 1_555 1_555
C18B C17B 1_555 1_555
H22A C18A 1_555 1_555
H22B C18B 1_555 1_555
C19A C14A 1_555 1_555
C19B C14B 1_555 1_555
H23A C19A 1_555 1_555
H23B C19B 1_555 1_555
C20A N2A 1_555 1_555
C20B N2B 1_555 1_555
C21A C20A 1_555 1_555
C21B C20B 1_555 1_555
C22A O2A 1_555 1_555
C22B O2B 1_555 1_555
C23A C22A 1_555 1_555
C23B C22B 1_555 1_555
H24A C23A 1_555 1_555
H24B C23B 1_555 1_555
C24A C23A 1_555 1_555
C24B C23B 1_555 1_555
H25A C24A 1_555 1_555
H25B C24B 1_555 1_555
C25A C24A 1_555 1_555
C25B C24B 1_555 1_555
H26A C25A 1_555 1_555
H26B C25B 1_555 1_555
C26A C21A 1_555 1_555
C26B C21B 1_555 1_555
H27A C26A 1_555 1_555
H27B C26B 1_555 1_555
C27A N2A 1_555 1_555
C27B N2B 1_555 1_555
H28A C27A 1_555 1_555
H28B C27B 1_555 1_555
H29A C27A 1_555 1_555
H29B C27B 1_555 1_555
C28A C27A 1_555 1_555
C28B C27B 1_555 1_555
C29A C28A 1_555 1_555
C29B C28B 1_555 1_555
H30A C29A 1_555 1_555
H30B C29B 1_555 1_555
C30A C29A 1_555 1_555
C30B C29B 1_555 1_555
H31A C30A 1_555 1_555
H31B C30B 1_555 1_555
C31A C30A 1_555 1_555
C31B C30B 1_555 1_555
H32A C31A 1_555 1_555
H32B C31B 1_555 1_555
C32A C31A 1_555 1_555
C32B C31B 1_555 1_555
H33A C32A 1_555 1_555
H33B C32B 1_555 1_555
C33A C28A 1_555 1_555
C33B C28B 1_555 1_555
H34A C33A 1_555 1_555
H34B C33B 1_555 1_555
C34A N3A 1_555 1_555
C34B N3B 1_555 1_555
C35A C34A 1_555 1_555
C35B C34B 1_555 1_555
C36A O3A 1_555 1_555
C36B O3B 1_555 1_555
C37A C36A 1_555 1_555
C37B C36B 1_555 1_555
H35A C37A 1_555 1_555
H35B C37B 1_555 1_555
C38A C37A 1_555 1_555
C38B C37B 1_555 1_555
H36A C38A 1_555 1_555
H36B C38B 1_555 1_555
C39A C38A 1_555 1_555
C39B C38B 1_555 1_555
H37A C39A 1_555 1_555
H37B C39B 1_555 1_555
C40A C35A 1_555 1_555
C40B C35B 1_555 1_555
H38A C40A 1_555 1_555
H38B C40B 1_555 1_555
C41A N3A 1_555 1_555
C41B N3B 1_555 1_555
H39A C41A 1_555 1_555
H39B C41B 1_555 1_555
H40A C41A 1_555 1_555
H40B C41B 1_555 1_555
C42A C41A 1_555 1_555
C42B C41B 1_555 1_555
C43A C42A 1_555 1_555
C43B C42B 1_555 1_555
H41A C43A 1_555 1_555
H41B C43B 1_555 1_555
C44A C43A 1_555 1_555
C44B C43B 1_555 1_555
H42A C44A 1_555 1_555
H42B C44B 1_555 1_555
C45A C44A 1_555 1_555
C45B C44B 1_555 1_555
H43A C45A 1_555 1_555
H43B C45B 1_555 1_555
C46A C45A 1_555 1_555
C46B C45B 1_555 1_555
H44A C46A 1_555 1_555
H44B C46B 1_555 1_555
C47A C42A 1_555 1_555
C47B C42B 1_555 1_555
H45A C47A 1_555 1_555
H45B C47B 1_555 1_555
C48A N4A 1_555 1_555
C48B N4B 1_555 1_555
C49A C48A 1_555 1_555
C49B C48B 1_555 1_555
C50A O4A 1_555 1_555
C50B O4B 1_555 1_555
C51A C50A 1_555 1_555
C51B C50B 1_555 1_555
H46A C51A 1_555 1_555
H46B C51B 1_555 1_555
C52A C51A 1_555 1_555
C52B C51B 1_555 1_555
H47A C52A 1_555 1_555
H47B C52B 1_555 1_555
C53A C52A 1_555 1_555
C53B C52B 1_555 1_555
H48A C53A 1_555 1_555
H48B C53B 1_555 1_555
C54A C49A 1_555 1_555
C54B C49B 1_555 1_555
H49A C54A 1_555 1_555
H49B C54B 1_555 1_555
C55A N4A 1_555 1_555
C55B N4B 1_555 1_555
H50A C55A 1_555 1_555
H50B C55B 1_555 1_555
H51A C55A 1_555 1_555
H51B C55B 1_555 1_555
C56A C55A 1_555 1_555
C56B C55B 1_555 1_555
C57A C56A 1_555 1_555
C57B C56B 1_555 1_555
H52A C57A 1_555 1_555
H52B C57B 1_555 1_555
C58A C57A 1_555 1_555
C58B C57B 1_555 1_555
H53A C58A 1_555 1_555
H53B C58B 1_555 1_555
C59A C58A 1_555 1_555
C59B C58B 1_555 1_555
H54A C59A 1_555 1_555
H54B C59B 1_555 1_555
C60A C59A 1_555 1_555
C60B C59B 1_555 1_555
H55A C60A 1_555 1_555
H55B C60B 1_555 1_555
C61A C56A 1_555 1_555
C61B C56B 1_555 1_555
H56A C61A 1_555 1_555
H56B C61B 1_555 1_555
N5 O10 1_555 1_555
N6 O13 1_555 1_555
N7 O16 1_555 1_555
N8 O19 1_555 1_555
C7 C8 1_555 1_555
C11 C12 1_555 1_555
C18 C19 1_555 1_555
C21 C22 1_555 1_555
C25 C26 1_555 1_555
C32 C33 1_555 1_555
C35 C36 1_555 1_555
C39 C40 1_555 1_555
C46 C47 1_555 1_555
C49 C50 1_555 1_555
C53 C54 1_555 1_555
C60 C61 1_555 1_555
N5A O10A 1_555 1_555
N5B O10B 1_555 1_555
N6A O13A 1_555 1_555
N6B O13B 1_555 1_555
N7A O16A 1_555 1_555
N7B O16B 1_555 1_555
N8A O19A 1_555 1_555
N8B O19B 1_555 1_555
O8A C48A 1_555 1_555
O8B C48B 1_555 1_555
C7A C8A 1_555 1_555
C7B C8B 1_555 1_555
C11A C12A 1_555 1_555
C11B C12B 1_555 1_555
C18A C19A 1_555 1_555
C18B C19B 1_555 1_555
C21A C22A 1_555 1_555
C21B C22B 1_555 1_555
C25A C26A 1_555 1_555
C25B C26B 1_555 1_555
C32A C33A 1_555 1_555
C32B C33B 1_555 1_555
C35A C36A 1_555 1_555
C35B C36B 1_555 1_555
C39A C40A 1_555 1_555
C39B C40B 1_555 1_555
C46A C47A 1_555 1_555
C46B C47B 1_555 1_555
C49A C50A 1_555 1_555
C49B C50B 1_555 1_555
C53A C54A 1_555 1_555
C53B C54B 1_555 1_555
C60A C61A 1_555 1_555
C60B C61B 1_555 1_555

#END
