
#######################################################################
#
#                 Cambridge Crystallographic Data Centre
#                                CCDC 
#
#######################################################################
#
# If this CIF has been generated from an entry in the Cambridge 
# Structural Database, then it will include bibliographic, chemical, 
# crystal, experimental, refinement or atomic coordinate data resulting 
# from the CCDC's data processing and validation procedures.
#
#######################################################################

data_LOQSOA
_chemical_formula_moiety         '(C191 H188 N24 O62 Tb4)n'
_symmetry_cell_setting           rhombohedral
_symmetry_space_group_name_H-M   'R 3 c'
_symmetry_Int_Tables_number      161
_space_group_name_Hall           'R 3 -2"c'
loop_
_symmetry_equiv_pos_site_id
_symmetry_equiv_pos_as_xyz
1 x,y,z
2 -y,x-y,z
3 -x+y,-x,z
4 -y,-x,1/2+z
5 -x+y,y,1/2+z
6 x,x-y,1/2+z
7 2/3+x,1/3+y,1/3+z
8 2/3-y,1/3+x-y,1/3+z
9 2/3-x+y,1/3-x,1/3+z
10 2/3-y,1/3-x,5/6+z
11 2/3-x+y,1/3+y,5/6+z
12 2/3+x,1/3+x-y,5/6+z
13 1/3+x,2/3+y,2/3+z
14 1/3-y,2/3+x-y,2/3+z
15 1/3-x+y,2/3-x,2/3+z
16 1/3-y,2/3-x,1/6+z
17 1/3-x+y,2/3+y,1/6+z
18 1/3+x,2/3+x-y,1/6+z
_cell_length_a                   39.560(2)
_cell_length_b                   39.560(2)
_cell_length_c                   24.2198(14)
_cell_angle_alpha                90
_cell_angle_beta                 90
_cell_angle_gamma                120
_cell_volume                     32825.7
loop_
_atom_site_label
_atom_site_type_symbol
_atom_site_fract_x
_atom_site_fract_y
_atom_site_fract_z
_atom_site_U_iso_or_equiv
_atom_site_thermal_displace_type
Tb1 Tb 0.865504(9) 0.682711(10) 0.53452(2) 0.0681 Uani
Tb2 Tb 0.6667 0.3333 0.63674(3) 0.0678 Uani
N1 N 0.7520(3) 0.6040(3) 0.6089(5) 0.1293 Uani
H1 H 0.7318 0.5936 0.6300 0.1550 Uiso
N2 N 0.6011(2) 0.5500(2) 0.7998(4) 0.1253 Uani
H2 H 0.6229 0.5617 0.7821 0.1500 Uiso
N3 N 0.7949(2) 0.5930(2) 0.9070(3) 0.1310 Uani
H3 H 0.7903 0.5713 0.8924 0.1570 Uiso
N4 N 0.6878(3) 0.4171(3) 0.7679(5) 0.1341 Uani
H4 H 0.7014 0.4331 0.7937 0.1610 Uiso
N5 N 0.8890(2) 0.7415(2) 0.6174(3) 0.1266 Uani
N6 N 0.9282(2) 0.7272(2) 0.4650(3) 0.1224 Uani
N7 N 0.89981(18) 0.6424(2) 0.5854(3) 0.1146 Uani
N8 N 0.6209(2) 0.35542(19) 0.5752(3) 0.1290 Uani
O1 O 0.7369(2) 0.6024(2) 0.7192(3) 0.1088 Uani
O2 O 0.64223(17) 0.51863(19) 0.7408(3) 0.0998 Uani
O3 O 0.7200(2) 0.5451(2) 0.8668(3) 0.1073 Uani
O4 O 0.7350(2) 0.49933(19) 0.7487(3) 0.1068 Uani
O5 O 0.80721(18) 0.65528(18) 0.5839(3) 0.0977 Uani
O6 O 0.53712(16) 0.49864(17) 0.8105(3) 0.0953 Uani
O7 O 0.79333(19) 0.62677(19) 0.9806(3) 0.0992 Uani
O8 O 0.69494(16) 0.38711(15) 0.6963(3) 0.0893 Uani
O9 O 0.89740(19) 0.71515(18) 0.6233(3) 0.1314 Uani
O10 O 0.86878(18) 0.74110(19) 0.5779(3) 0.1121 Uani
O11 O 0.8937(3) 0.7644(2) 0.6566(3) 0.1722 Uani
O12 O 0.90140(18) 0.69474(18) 0.4491(3) 0.1176 Uani
O13 O 0.9260(2) 0.7412(2) 0.5099(3) 0.1379 Uani
O14 O 0.96003(19) 0.7423(3) 0.4383(4) 0.2038 Uani
O15 O 0.91685(19) 0.6652(2) 0.5455(3) 0.1291 Uani
O16 O 0.86491(14) 0.63319(19) 0.5967(3) 0.1077 Uani
O17 O 0.91176(19) 0.6203(2) 0.6027(4) 0.1762 Uani
O18 O 0.63876(19) 0.37459(17) 0.6169(3) 0.1080 Uani
O19 O 0.6201(2) 0.32436(17) 0.5643(3) 0.1432 Uani
O20 O 0.6070(2) 0.3690(2) 0.5416(4) 0.1789 Uani
C1 C 0.70807(19) 0.5406(2) 0.7694(4) 0.0702 Uani
C2 C 0.7142(2) 0.5822(2) 0.7728(4) 0.0877 Uani
H5 H 0.7292 0.5957 0.8053 0.1050 Uiso
H6 H 0.6894 0.5815 0.7740 0.1050 Uiso
C3 C 0.6797(2) 0.5204(2) 0.7223(4) 0.0863 Uani
H7 H 0.6757 0.4944 0.7164 0.1040 Uiso
H8 H 0.6893 0.5353 0.6884 0.1040 Uiso
C4 C 0.6935(3) 0.5203(3) 0.8200(4) 0.0978 Uani
H9 H 0.6929 0.4955 0.8187 0.1180 Uiso
H10 H 0.6671 0.5152 0.8262 0.1180 Uiso
C5 C 0.7456(3) 0.5424(3) 0.7589(5) 0.1000 Uani
H11 H 0.7628 0.5532 0.7906 0.1200 Uiso
H12 H 0.7584 0.5584 0.7269 0.1200 Uiso
C6 C 0.7797(3) 0.6381(3) 0.6166(5) 0.1084 Uani
C7 C 0.7763(3) 0.6591(2) 0.6698(4) 0.1070 Uani
C8 C 0.7534(2) 0.6431(2) 0.7177(3) 0.0937 Uani
C9 C 0.7525(3) 0.6648(2) 0.7609(4) 0.1092 Uani
H13 H 0.7420 0.6531 0.7947 0.1310 Uiso
C10 C 0.7678(3) 0.7053(2) 0.7536(4) 0.1176 Uani
H14 H 0.7617 0.7200 0.7775 0.1410 Uiso
C11 C 0.7922(3) 0.7218(3) 0.7092(4) 0.1136 Uani
H15 H 0.8066 0.7489 0.7068 0.1360 Uiso
C12 C 0.7964(3) 0.7001(2) 0.6679(4) 0.1128 Uani
H16 H 0.8128 0.7129 0.6382 0.1350 Uiso
C13 C 0.7559(4) 0.5848(3) 0.5657(6) 0.1391 Uani
H17 H 0.7816 0.5875 0.5671 0.1670 Uiso
H18 H 0.7542 0.5969 0.5318 0.1670 Uiso
C14 C 0.72541(11) 0.54141(14) 0.56395(15) 0.1464 Uani
C15 C 0.73214(11) 0.51396(16) 0.59067(14) 0.1487 Uani
H19 H 0.7553 0.5218 0.6099 0.1780 Uiso
C16 C 0.70404(15) 0.47538(18) 0.5880(2) 0.1494 Uani
H20 H 0.7083 0.4569 0.6055 0.1790 Uiso
C17 C 0.67018(19) 0.4634(2) 0.5604(3) 0.1550 Uani
H21 H 0.6515 0.4371 0.5599 0.1860 Uiso
C18 C 0.6630(2) 0.4899(2) 0.5331(3) 0.1548 Uani
H22 H 0.6402 0.4817 0.5131 0.1860 Uiso
C19 C 0.69065(19) 0.5287(2) 0.5364(3) 0.1409 Uani
H23 H 0.6858 0.5470 0.5195 0.1690 Uiso
C20 C 0.5716(2) 0.5141(3) 0.7843(5) 0.1018 Uani
C21 C 0.5751(2) 0.4921(2) 0.7344(4) 0.1014 Uani
C22 C 0.6087(2) 0.4942(2) 0.7111(4) 0.0986 Uani
C23 C 0.6103(2) 0.4752(3) 0.6644(4) 0.1090 Uani
H24 H 0.6337 0.4777 0.6517 0.1310 Uiso
C24 C 0.5748(2) 0.4519(2) 0.6370(5) 0.1140 Uani
H25 H 0.5745 0.4406 0.6032 0.1370 Uiso
C25 C 0.5408(3) 0.4457(2) 0.6596(4) 0.1093 Uani
H26 H 0.5171 0.4274 0.6438 0.1310 Uiso
C26 C 0.5408(2) 0.4659(3) 0.7051(4) 0.1033 Uani
H27 H 0.5170 0.4624 0.7176 0.1240 Uiso
C27 C 0.5938(2) 0.5675(3) 0.8479(4) 0.1270 Uani
H28 H 0.5813 0.5486 0.8774 0.1520 Uiso
H29 H 0.5781 0.5792 0.8387 0.1520 Uiso
C28 C 0.63470(15) 0.59781(10) 0.86276(15) 0.1299 Uani
C29 C 0.66068(18) 0.59603(10) 0.89903(14) 0.1481 Uani
H30 H 0.6551 0.5725 0.9153 0.1780 Uiso
C30 C 0.69520(19) 0.62978(14) 0.9106(2) 0.1470 Uani
H31 H 0.7128 0.6288 0.9351 0.1770 Uiso
C31 C 0.70401(19) 0.6647(2) 0.8867(3) 0.1518 Uani
H32 H 0.7276 0.6870 0.8948 0.1820 Uiso
C32 C 0.67837(19) 0.6668(2) 0.8512(3) 0.1517 Uani
H33 H 0.6841 0.6905 0.8354 0.1820 Uiso
C33 C 0.64442(19) 0.63367(19) 0.8391(3) 0.1327 Uani
H34 H 0.6271 0.6349 0.8143 0.1590 Uiso
C34 C 0.7733(2) 0.5956(3) 0.9485(4) 0.1138 Uani
C35 C 0.7348(2) 0.56434(18) 0.9591(3) 0.0994 Uani
C36 C 0.7084(2) 0.53803(18) 0.9200(3) 0.0984 Uani
C37 C 0.6731(2) 0.50714(19) 0.9350(3) 0.1069 Uani
H35 H 0.6548 0.4923 0.9081 0.1280 Uiso
C38 C 0.6646(3) 0.49794(19) 0.9907(3) 0.1139 Uani
H36 H 0.6439 0.4739 1.0019 0.1360 Uiso
C39 C 0.6879(2) 0.52566(19) 1.0284(3) 0.1113 Uani
H37 H 0.6787 0.5242 1.0642 0.1340 Uiso
C40 C 0.7241(2) 0.5554(2) 1.0145(3) 0.1114 Uani
H38 H 0.7418 0.5698 1.0422 0.1340 Uiso
C41 C 0.8272(3) 0.6311(2) 0.8897(4) 0.1282 Uani
H39 H 0.8180 0.6495 0.8848 0.1540 Uiso
H40 H 0.8476 0.6414 0.9175 0.1540 Uiso
C42 C 0.84293(12) 0.62573(8) 0.8365(2) 0.1336 Uani
C43 C 0.83573(13) 0.64224(7) 0.7900(3) 0.1470 Uani
H41 H 0.8202 0.6537 0.7930 0.1770 Uiso
C44 C 0.85146(16) 0.64142(11) 0.7405(3) 0.1599 Uani
H42 H 0.8466 0.6526 0.7100 0.1920 Uiso
C45 C 0.8742(2) 0.6248(2) 0.7341(3) 0.1633 Uani
H43 H 0.8843 0.6244 0.6996 0.1960 Uiso
C46 C 0.8822(2) 0.6085(2) 0.7794(3) 0.1579 Uani
H44 H 0.8980 0.5974 0.7759 0.1890 Uiso
C47 C 0.86622(19) 0.60902(19) 0.8295(3) 0.1414 Uani
H45 H 0.8713 0.5978 0.8598 0.1700 Uiso
C48 C 0.7025(3) 0.4135(3) 0.7252(5) 0.1029 Uani
C49 C 0.74612(14) 0.45216(16) 0.71186(14) 0.1100 Uani
C50 C 0.76253(14) 0.49264(16) 0.72429(13) 0.1053 Uani
C51 C 0.80060(17) 0.5226(2) 0.71538(18) 0.1098 Uani
H46 H 0.8081 0.5482 0.7251 0.1320 Uiso
C52 C 0.8274(2) 0.5137(2) 0.6915(3) 0.1134 Uani
H47 H 0.8531 0.5329 0.6853 0.1360 Uiso
C53 C 0.8141(2) 0.4754(2) 0.6776(3) 0.1164 Uani
H48 H 0.8311 0.4687 0.6608 0.1400 Uiso
C54 C 0.7760(2) 0.4466(3) 0.6880(3) 0.1103 Uani
H49 H 0.7692 0.4212 0.6786 0.1330 Uiso
C55 C 0.6487(4) 0.3940(4) 0.7711(7) 0.1392 Uani
H50 H 0.6432 0.3673 0.7738 0.1670 Uiso
H51 H 0.6379 0.3963 0.7363 0.1670 Uiso
C56 C 0.62781(13) 0.39951(10) 0.8131(3) 0.1422 Uani
C57 C 0.60356(13) 0.41496(9) 0.8014(3) 0.1499 Uani
H52 H 0.5998 0.4202 0.7652 0.1800 Uiso
C58 C 0.58548(16) 0.42213(13) 0.8441(3) 0.1616 Uani
H53 H 0.5694 0.4324 0.8364 0.1940 Uiso
C59 C 0.5904(2) 0.4146(2) 0.8986(3) 0.1717 Uani
H54 H 0.5778 0.4198 0.9270 0.2060 Uiso
C60 C 0.6142(2) 0.3993(2) 0.9100(3) 0.1613 Uani
H55 H 0.6178 0.3939 0.9462 0.1940 Uiso
C61 C 0.6323(2) 0.3923(2) 0.8679(3) 0.1477 Uani
H56 H 0.6484 0.3822 0.8760 0.1780 Uiso
Tb1A Tb 0.317289(10) 0.182793(13) 0.53452(2) 0.0681 Uani
Tb1B Tb 0.817207(13) 0.134496(9) 0.53452(2) 0.0681 Uani
Tb1H Tb 0.483874(13) 0.467829(9) 0.86785(2) 0.0681 Uani
Tb1D Tb 0.817207(13) 0.682711(10) 1.03452(2) 0.0681 Uani
Tb1F Tb 0.532171(9) 0.016044(10) 0.86785(2) 0.0681 Uani
Tb1C Tb 0.317289(10) 0.134496(9) 1.03452(2) 0.0681 Uani
Tb1G Tb 0.983956(10) 0.516126(13) 0.86785(2) 0.0681 Uani
Tb1E Tb 0.865504(9) 0.182793(13) 1.03452(2) 0.0681 Uani
N1A N 0.3960(3) 0.1480(4) 0.6089(5) 0.1293 Uani
N1B N 0.8520(4) 0.2480(3) 0.6089(5) 0.1293 Uani
H1A H 0.4064 0.1382 0.6300 0.1550 Uiso
H1B H 0.8618 0.2682 0.6300 0.1550 Uiso
N2A N 0.4500(2) 0.0511(3) 0.7998(4) 0.1253 Uani
N2B N 0.9489(3) 0.3989(2) 0.7998(4) 0.1253 Uani
H2A H 0.4383 0.0612 0.7821 0.1500 Uiso
H2B H 0.9388 0.3771 0.7821 0.1500 Uiso
N3A N 0.4070(2) 0.2019(3) 0.9070(3) 0.1310 Uani
N3B N 0.7981(3) 0.2051(2) 0.9070(3) 0.1310 Uani
H3A H 0.4287 0.2190 0.8924 0.1570 Uiso
H3B H 0.7810 0.2097 0.8924 0.1570 Uiso
N4A N 0.5829(3) 0.2707(4) 0.7679(5) 0.1341 Uani
N4B N 0.7293(4) 0.3122(3) 0.7679(5) 0.1341 Uani
H4A H 0.5669 0.2683 0.7937 0.1610 Uiso
H4B H 0.7317 0.2986 0.7937 0.1610 Uiso
N5A N 0.2585(2) 0.1475(3) 0.6174(3) 0.1266 Uani
N5B N 0.8525(3) 0.1110(2) 0.6174(3) 0.1266 Uani
N6A N 0.2728(2) 0.2010(3) 0.4650(3) 0.1224 Uani
N6B N 0.7990(3) 0.0718(2) 0.4650(3) 0.1224 Uani
N7A N 0.3576(2) 0.25741(27) 0.5854(3) 0.1146 Uani
N7B N 0.74259(27) 0.10019(18) 0.5854(3) 0.1146 Uani
N8A N 0.64458(19) 0.26548(28) 0.5752(3) 0.1290 Uani
N8B N 0.73452(28) 0.3791(2) 0.5752(3) 0.1290 Uani
O1A O 0.3976(2) 0.1345(3) 0.7192(3) 0.1088 Uani
O1B O 0.8655(3) 0.2631(2) 0.7192(3) 0.1088 Uani
O2A O 0.48137(19) 0.12360(25) 0.7408(3) 0.0998 Uani
O2B O 0.87640(25) 0.35777(17) 0.7408(3) 0.0998 Uani
O3A O 0.4549(2) 0.1749(3) 0.8668(3) 0.1073 Uani
O3B O 0.8251(3) 0.2800(2) 0.8668(3) 0.1073 Uani
O4A O 0.50067(19) 0.23567(28) 0.7487(3) 0.1068 Uani
O4B O 0.76433(28) 0.2650(2) 0.7487(3) 0.1068 Uani
O5A O 0.34472(18) 0.15193(25) 0.5839(3) 0.0977 Uani
O5B O 0.84807(25) 0.19279(18) 0.5839(3) 0.0977 Uani
O6A O 0.50136(17) 0.03848(23) 0.8105(3) 0.0953 Uani
O6B O 0.96152(23) 0.46288(16) 0.8105(3) 0.0953 Uani
O6M O 0.83469(17) 0.70515(23) 0.4772(3) 0.0953 Uani
O6N O 0.29485(23) 0.12955(16) 0.4772(3) 0.0953 Uani
O6L O 0.87045(16) 0.16531(17) 0.4772(3) 0.0953 Uani
O7A O 0.37323(19) 0.16656(27) 0.9806(3) 0.0992 Uani
O7B O 0.83344(27) 0.20667(19) 0.9806(3) 0.0992 Uani
O7D O 0.83344(27) 0.62677(19) 0.4806(3) 0.0992 Uani
O7C O 0.37323(19) 0.20667(19) 0.4806(3) 0.0992 Uani
O7E O 0.79333(19) 0.16656(27) 0.4806(3) 0.0992 Uani
O8A O 0.61289(15) 0.30783(22) 0.6963(3) 0.0893 Uani
O8B O 0.69217(22) 0.30506(16) 0.6963(3) 0.0893 Uani
O9A O 0.28485(18) 0.18225(26) 0.6233(3) 0.1314 Uani
O9B O 0.81775(26) 0.10260(19) 0.6233(3) 0.1314 Uani
O10A O 0.25890(19) 0.12768(26) 0.5779(3) 0.1121 Uani
O10B O 0.87232(26) 0.13122(18) 0.5779(3) 0.1121 Uani
O11A O 0.2356(2) 0.1293(4) 0.6566(3) 0.1722 Uani
O11B O 0.8707(4) 0.1063(3) 0.6566(3) 0.1722 Uani
O12A O 0.30526(18) 0.20666(25) 0.4491(3) 0.1176 Uani
O12B O 0.79334(25) 0.09860(18) 0.4491(3) 0.1176 Uani
O13A O 0.2588(2) 0.1848(3) 0.5099(3) 0.1379 Uani
O13B O 0.8152(3) 0.0740(2) 0.5099(3) 0.1379 Uani
O14A O 0.2577(3) 0.21773(36) 0.4383(4) 0.2038 Uani
O14B O 0.78227(36) 0.03997(19) 0.4383(4) 0.2038 Uani
O15A O 0.3348(2) 0.25165(28) 0.5455(3) 0.1291 Uani
O15B O 0.74835(28) 0.08315(19) 0.5455(3) 0.1291 Uani
O16A O 0.36681(19) 0.23172(24) 0.5967(3) 0.1077 Uani
O16B O 0.76828(24) 0.13509(14) 0.5967(3) 0.1077 Uani
O17A O 0.3797(2) 0.29146(28) 0.6027(4) 0.1762 Uani
O17B O 0.70854(28) 0.08824(19) 0.6027(4) 0.1762 Uani
O18A O 0.62541(17) 0.26417(25) 0.6169(3) 0.1080 Uani
O18B O 0.73583(25) 0.36124(19) 0.6169(3) 0.1080 Uani
O19A O 0.67564(17) 0.29574(26) 0.5643(3) 0.1432 Uani
O19B O 0.70426(26) 0.3799(2) 0.5643(3) 0.1432 Uani
O20B O 0.7620(3) 0.3930(2) 0.5416(4) 0.1789 Uani
O20A O 0.6310(2) 0.2380(3) 0.5416(4) 0.1789 Uani
C1A C 0.4594(2) 0.16747(28) 0.7694(4) 0.0702 Uani
C1B C 0.83253(28) 0.29193(19) 0.7694(4) 0.0702 Uani
C2A C 0.4178(2) 0.1320(3) 0.7728(4) 0.0877 Uani
C2B C 0.8680(3) 0.2858(2) 0.7728(4) 0.0877 Uani
H5A H 0.4043 0.1335 0.8053 0.1050 Uiso
H5B H 0.8665 0.2708 0.8053 0.1050 Uiso
H6A H 0.4185 0.1079 0.7740 0.1050 Uiso
H6B H 0.8921 0.3106 0.7740 0.1050 Uiso
C3A C 0.4796(2) 0.1593(3) 0.7223(4) 0.0863 Uani
C3B C 0.8407(3) 0.3203(2) 0.7223(4) 0.0863 Uani
H7A H 0.5056 0.1813 0.7164 0.1040 Uiso
H7B H 0.8187 0.3243 0.7164 0.1040 Uiso
H8A H 0.4647 0.1540 0.6884 0.1040 Uiso
H8B H 0.8460 0.3107 0.6884 0.1040 Uiso
C4A C 0.4797(3) 0.1732(4) 0.8200(4) 0.0978 Uani
C4B C 0.8268(4) 0.3065(3) 0.8200(4) 0.0978 Uani
H9A H 0.5045 0.1974 0.8187 0.1180 Uiso
H9B H 0.8026 0.3071 0.8187 0.1180 Uiso
H10A H 0.4848 0.1519 0.8262 0.1180 Uiso
H10B H 0.8481 0.3329 0.8262 0.1180 Uiso
C5A C 0.4576(3) 0.2032(4) 0.7589(5) 0.1000 Uani
C5B C 0.7968(4) 0.2544(3) 0.7589(5) 0.1000 Uani
H11A H 0.4468 0.2096 0.7906 0.1200 Uiso
H11B H 0.7904 0.2372 0.7906 0.1200 Uiso
H12A H 0.4416 0.2000 0.7269 0.1200 Uiso
H12B H 0.8000 0.2416 0.7269 0.1200 Uiso
C6A C 0.3619(3) 0.1416(4) 0.6166(5) 0.1084 Uani
C6B C 0.8584(4) 0.2203(3) 0.6166(5) 0.1084 Uani
C7A C 0.3409(2) 0.1172(4) 0.6698(4) 0.1070 Uani
C7B C 0.8828(4) 0.2237(3) 0.6698(4) 0.1070 Uani
C8A C 0.3569(2) 0.1103(3) 0.7177(3) 0.0937 Uani
C8B C 0.8897(3) 0.2466(2) 0.7177(3) 0.0937 Uani
C9A C 0.3352(2) 0.0877(4) 0.7609(4) 0.1092 Uani
C9B C 0.9123(4) 0.2475(3) 0.7609(4) 0.1092 Uani
H13A H 0.3469 0.0889 0.7947 0.1310 Uiso
H13B H 0.9111 0.2580 0.7947 0.1310 Uiso
C10A C 0.2947(2) 0.0625(4) 0.7536(4) 0.1176 Uani
C10B C 0.9375(4) 0.2322(3) 0.7536(4) 0.1176 Uani
H14A H 0.2800 0.0417 0.7775 0.1410 Uiso
H14B H 0.9583 0.2383 0.7775 0.1410 Uiso
C11A C 0.2782(3) 0.0704(4) 0.7092(4) 0.1136 Uani
C11B C 0.9296(4) 0.2078(3) 0.7092(4) 0.1136 Uani
H15A H 0.2511 0.0577 0.7068 0.1360 Uiso
H15B H 0.9423 0.1934 0.7068 0.1360 Uiso
C12A C 0.2999(2) 0.0963(4) 0.6679(4) 0.1128 Uani
C12B C 0.9037(4) 0.2036(3) 0.6679(4) 0.1128 Uani
H16A H 0.2871 0.0999 0.6382 0.1350 Uiso
H16B H 0.9001 0.1872 0.6382 0.1350 Uiso
C13A C 0.4152(3) 0.1711(5) 0.5657(6) 0.1391 Uani
C13B C 0.8289(5) 0.2441(4) 0.5657(6) 0.1391 Uani
H17A H 0.4125 0.1941 0.5671 0.1670 Uiso
H17B H 0.8059 0.2184 0.5671 0.1670 Uiso
H18A H 0.4031 0.1573 0.5318 0.1670 Uiso
H18B H 0.8427 0.2458 0.5318 0.1670 Uiso
C14A C 0.45859(14) 0.18400(18) 0.56395(15) 0.1464 Uani
C14B C 0.81600(18) 0.27459(11) 0.56395(15) 0.1464 Uani
C15A C 0.48604(16) 0.21818(19) 0.59067(14) 0.1487 Uani
C15B C 0.78182(19) 0.26786(11) 0.59067(14) 0.1487 Uani
H19A H 0.4782 0.2335 0.6099 0.1780 Uiso
H19B H 0.7665 0.2447 0.6099 0.1780 Uiso
C16A C 0.52462(18) 0.22866(23) 0.5880(2) 0.1494 Uani
C16B C 0.77134(23) 0.29596(15) 0.5880(2) 0.1494 Uani
H20A H 0.5431 0.2514 0.6055 0.1790 Uiso
H20B H 0.7486 0.2917 0.6055 0.1790 Uiso
C17A C 0.5366(2) 0.20678(28) 0.5604(3) 0.1550 Uani
C17B C 0.79322(28) 0.32982(19) 0.5604(3) 0.1550 Uani
H21A H 0.5629 0.2144 0.5599 0.1860 Uiso
H21B H 0.7856 0.3485 0.5599 0.1860 Uiso
C18A C 0.5101(2) 0.1731(3) 0.5331(3) 0.1548 Uani
C18B C 0.8269(3) 0.3370(2) 0.5331(3) 0.1548 Uani
H22A H 0.5183 0.1585 0.5131 0.1860 Uiso
H22B H 0.8415 0.3598 0.5131 0.1860 Uiso
C19A C 0.4713(2) 0.16195(28) 0.5364(3) 0.1409 Uani
C19B C 0.83805(28) 0.30935(19) 0.5364(3) 0.1409 Uani
H23A H 0.4530 0.1388 0.5195 0.1690 Uiso
H23B H 0.8612 0.3142 0.5195 0.1690 Uiso
C20A C 0.4859(3) 0.0575(4) 0.7843(5) 0.1018 Uani
C20B C 0.9425(4) 0.4284(2) 0.7843(5) 0.1018 Uani
C21A C 0.5079(2) 0.0830(3) 0.7344(4) 0.1014 Uani
C21B C 0.9170(3) 0.4249(2) 0.7344(4) 0.1014 Uani
C22A C 0.5058(2) 0.1145(3) 0.7111(4) 0.0986 Uani
C22B C 0.8855(3) 0.3913(2) 0.7111(4) 0.0986 Uani
C23A C 0.5248(3) 0.1351(4) 0.6644(4) 0.1090 Uani
C23B C 0.8649(4) 0.3897(2) 0.6644(4) 0.1090 Uani
H24A H 0.5223 0.1560 0.6517 0.1310 Uiso
H24B H 0.8440 0.3663 0.6517 0.1310 Uiso
C24A C 0.5481(2) 0.1229(3) 0.6370(5) 0.1140 Uani
C24B C 0.8771(3) 0.4252(2) 0.6370(5) 0.1140 Uani
H25A H 0.5594 0.1339 0.6032 0.1370 Uiso
H25B H 0.8661 0.4255 0.6032 0.1370 Uiso
C25A C 0.5543(2) 0.0951(4) 0.6596(4) 0.1093 Uani
C25B C 0.9049(4) 0.4592(3) 0.6596(4) 0.1093 Uani
H26A H 0.5726 0.0897 0.6438 0.1310 Uiso
H26B H 0.9103 0.4829 0.6438 0.1310 Uiso
C26A C 0.5341(3) 0.0749(4) 0.7051(4) 0.1033 Uani
C26B C 0.9251(4) 0.4592(2) 0.7051(4) 0.1033 Uani
H27A H 0.5376 0.0546 0.7176 0.1240 Uiso
H27B H 0.9454 0.4830 0.7176 0.1240 Uiso
C27A C 0.4325(3) 0.0263(4) 0.8479(4) 0.1270 Uani
C27B C 0.9737(4) 0.4062(2) 0.8479(4) 0.1270 Uani
H28A H 0.4514 0.0327 0.8774 0.1520 Uiso
H28B H 0.9673 0.4187 0.8774 0.1520 Uiso
H29A H 0.4208 -0.0011 0.8387 0.1520 Uiso
H29B H 1.0011 0.4219 0.8387 0.1520 Uiso
C28A C 0.40219(10) 0.03689(18) 0.86276(15) 0.1299 Uani
C28B C 0.96311(18) 0.36530(15) 0.86276(15) 0.1299 Uani
C29A C 0.40397(10) 0.06465(21) 0.89903(14) 0.1481 Uani
C29B C 0.93535(21) 0.33932(18) 0.89903(14) 0.1481 Uani
H30A H 0.4275 0.0826 0.9153 0.1780 Uiso
H30B H 0.9174 0.3449 0.9153 0.1780 Uiso
C30A C 0.37022(14) 0.06542(24) 0.9106(2) 0.1470 Uani
C30B C 0.93458(24) 0.30480(19) 0.9106(2) 0.1470 Uani
H31A H 0.3712 0.0840 0.9351 0.1770 Uiso
H31B H 0.9160 0.2872 0.9351 0.1770 Uiso
C31A C 0.3353(2) 0.03931(28) 0.8867(3) 0.1518 Uani
C31B C 0.96069(28) 0.29599(19) 0.8867(3) 0.1518 Uani
H32A H 0.3130 0.0406 0.8948 0.1820 Uiso
H32B H 0.9594 0.2724 0.8948 0.1820 Uiso
C32A C 0.3332(2) 0.01157(28) 0.8512(3) 0.1517 Uani
C32B C 0.98843(28) 0.32163(19) 0.8512(3) 0.1517 Uani
H33A H 0.3095 -0.0064 0.8354 0.1820 Uiso
H33B H 1.0064 0.3159 0.8354 0.1820 Uiso
C33A C 0.36633(19) 0.01075(27) 0.8391(3) 0.1327 Uani
C33B C 0.98925(27) 0.35558(19) 0.8391(3) 0.1327 Uani
H34A H 0.3651 -0.0078 0.8143 0.1590 Uiso
H34B H 1.0078 0.3729 0.8143 0.1590 Uiso
C34A C 0.4044(3) 0.1777(4) 0.9485(4) 0.1138 Uani
C34B C 0.8223(4) 0.2267(2) 0.9485(4) 0.1138 Uani
C35A C 0.43566(18) 0.17046(27) 0.9591(3) 0.0994 Uani
C35B C 0.82954(27) 0.2652(2) 0.9591(3) 0.0994 Uani
C36A C 0.46197(18) 0.17037(27) 0.9200(3) 0.0984 Uani
C36B C 0.82963(27) 0.2916(2) 0.9200(3) 0.0984 Uani
C37A C 0.49286(19) 0.16596(28) 0.9350(3) 0.1069 Uani
C37B C 0.83404(28) 0.3269(2) 0.9350(3) 0.1069 Uani
H35A H 0.5077 0.1625 0.9081 0.1280 Uiso
H35B H 0.8375 0.3452 0.9081 0.1280 Uiso
C38A C 0.50206(19) 0.16666(36) 0.9907(3) 0.1139 Uani
C38B C 0.83334(36) 0.3354(3) 0.9907(3) 0.1139 Uani
H36A H 0.5261 0.1700 1.0019 0.1360 Uiso
H36B H 0.8300 0.3561 1.0019 0.1360 Uiso
C39A C 0.47434(19) 0.16224(28) 1.0284(3) 0.1113 Uani
C39B C 0.83776(28) 0.3121(2) 1.0284(3) 0.1113 Uani
H37A H 0.4758 0.1545 1.0642 0.1340 Uiso
H37B H 0.8455 0.3213 1.0642 0.1340 Uiso
C40A C 0.4446(2) 0.1687(3) 1.0145(3) 0.1114 Uani
C40B C 0.8313(3) 0.2759(2) 1.0145(3) 0.1114 Uani
H38A H 0.4302 0.1720 1.0422 0.1340 Uiso
H38B H 0.8280 0.2582 1.0422 0.1340 Uiso
C41A C 0.3689(2) 0.1961(4) 0.8897(4) 0.1282 Uani
C41B C 0.8039(4) 0.1728(3) 0.8897(4) 0.1282 Uani
H39A H 0.3505 0.1685 0.8848 0.1540 Uiso
H39B H 0.8315 0.1820 0.8848 0.1540 Uiso
H40A H 0.3586 0.2062 0.9175 0.1540 Uiso
H40B H 0.7938 0.1524 0.9175 0.1540 Uiso
C42A C 0.37427(8) 0.21720(14) 0.8365(2) 0.1336 Uani
C42B C 0.78280(14) 0.15707(12) 0.8365(2) 0.1336 Uani
C43A C 0.35776(7) 0.19349(15) 0.7900(3) 0.1470 Uani
C43B C 0.80651(15) 0.16427(13) 0.7900(3) 0.1470 Uani
H41A H 0.3463 0.1665 0.7930 0.1770 Uiso
H41B H 0.8335 0.1798 0.7930 0.1770 Uiso
C44A C 0.35858(11) 0.21004(19) 0.7405(3) 0.1599 Uani
C44B C 0.78996(19) 0.14854(16) 0.7405(3) 0.1599 Uani
H42A H 0.3474 0.1940 0.7100 0.1920 Uiso
H42B H 0.8060 0.1534 0.7100 0.1920 Uiso
C45A C 0.3752(2) 0.2494(3) 0.7341(3) 0.1633 Uani
C45B C 0.7506(3) 0.1258(2) 0.7341(3) 0.1633 Uani
H43A H 0.3756 0.2599 0.6996 0.1960 Uiso
H43B H 0.7401 0.1157 0.6996 0.1960 Uiso
C46A C 0.3915(2) 0.2737(3) 0.7794(3) 0.1579 Uani
C46B C 0.7263(3) 0.1178(2) 0.7794(3) 0.1579 Uani
H44A H 0.4026 0.3006 0.7759 0.1890 Uiso
H44B H 0.6994 0.1020 0.7759 0.1890 Uiso
C47A C 0.39098(19) 0.25720(27) 0.8295(3) 0.1414 Uani
C47B C 0.74280(27) 0.13378(19) 0.8295(3) 0.1414 Uani
H45A H 0.4022 0.2735 0.8598 0.1700 Uiso
H45B H 0.7265 0.1287 0.8598 0.1700 Uiso
C48A C 0.5865(3) 0.2890(4) 0.7252(5) 0.1029 Uani
C48B C 0.7110(4) 0.2975(3) 0.7252(5) 0.1029 Uani
C49A C 0.54784(16) 0.29396(21) 0.71186(14) 0.1100 Uani
C49B C 0.70604(21) 0.25388(14) 0.71186(14) 0.1100 Uani
C50A C 0.50736(16) 0.26989(21) 0.72429(13) 0.1053 Uani
C50B C 0.73011(21) 0.23747(14) 0.72429(13) 0.1053 Uani
C51A C 0.4774(2) 0.27800(26) 0.71538(18) 0.1098 Uani
C51B C 0.72200(26) 0.19940(17) 0.71538(18) 0.1098 Uani
H46A H 0.4518 0.2599 0.7251 0.1320 Uiso
H46B H 0.7401 0.1919 0.7251 0.1320 Uiso
C52A C 0.4863(2) 0.3137(3) 0.6915(3) 0.1134 Uani
C52B C 0.6863(3) 0.1726(2) 0.6915(3) 0.1134 Uani
H47A H 0.4671 0.3202 0.6853 0.1360 Uiso
H47B H 0.6798 0.1469 0.6853 0.1360 Uiso
C53A C 0.5246(2) 0.3387(3) 0.6776(3) 0.1164 Uani
C53B C 0.6613(3) 0.1859(2) 0.6776(3) 0.1164 Uani
H48A H 0.5313 0.3624 0.6608 0.1400 Uiso
H48B H 0.6376 0.1689 0.6608 0.1400 Uiso
C54A C 0.5534(3) 0.3294(4) 0.6880(3) 0.1103 Uani
C54B C 0.6706(4) 0.2240(2) 0.6880(3) 0.1103 Uani
H49A H 0.5788 0.3480 0.6786 0.1330 Uiso
H49B H 0.6520 0.2308 0.6786 0.1330 Uiso
C55A C 0.6060(4) 0.2547(6) 0.7711(7) 0.1392 Uani
C55B C 0.7453(6) 0.3513(4) 0.7711(7) 0.1392 Uani
H50A H 0.6327 0.2759 0.7738 0.1670 Uiso
H50B H 0.7241 0.3568 0.7738 0.1670 Uiso
H51A H 0.6037 0.2416 0.7363 0.1670 Uiso
H51B H 0.7584 0.3621 0.7363 0.1670 Uiso
C56A C 0.60049(10) 0.22830(16) 0.8131(3) 0.1422 Uani
C56B C 0.77170(16) 0.37219(13) 0.8131(3) 0.1422 Uani
C57A C 0.58504(9) 0.18860(16) 0.8014(3) 0.1499 Uani
C57B C 0.81140(16) 0.39644(13) 0.8014(3) 0.1499 Uani
H52A H 0.5798 0.1796 0.7652 0.1800 Uiso
H52B H 0.8204 0.4002 0.7652 0.1800 Uiso
C58A C 0.57787(13) 0.16335(21) 0.8441(3) 0.1616 Uani
C58B C 0.83665(21) 0.41452(16) 0.8441(3) 0.1616 Uani
H53A H 0.5676 0.1370 0.8364 0.1940 Uiso
H53B H 0.8630 0.4306 0.8364 0.1940 Uiso
C59A C 0.5854(2) 0.1758(3) 0.8986(3) 0.1717 Uani
C59B C 0.8242(3) 0.4096(2) 0.8986(3) 0.1717 Uani
H54A H 0.5802 0.1580 0.9270 0.2060 Uiso
H54B H 0.8420 0.4222 0.9270 0.2060 Uiso
C60A C 0.6007(2) 0.2149(3) 0.9100(3) 0.1613 Uani
C60B C 0.7851(3) 0.3858(2) 0.9100(3) 0.1613 Uani
H55A H 0.6061 0.2239 0.9462 0.1940 Uiso
H55B H 0.7761 0.3822 0.9462 0.1940 Uiso
C61A C 0.6077(2) 0.2400(3) 0.8679(3) 0.1477 Uani
C61B C 0.7600(3) 0.3677(2) 0.8679(3) 0.1477 Uani
H56A H 0.6178 0.2662 0.8760 0.1780 Uiso
H56B H 0.7338 0.3516 0.8760 0.1780 Uiso
O21 O 0.77961(17) 0.4723(3) 0.9070(4) 0.1617 Uani
C62 C 0.7414(3) 0.4677(3) 0.9167(5) 0.1540 Uani
H57 H 0.7284 0.4643 0.8815 0.1850 Uiso
H58 H 0.7446 0.4914 0.9334 0.1850 Uiso
C63 C 0.7160(3) 0.4338(4) 0.9532(6) 0.1660 Uani
H59 H 0.7114 0.4100 0.9359 0.2490 Uiso
H60 H 0.6915 0.4329 0.9589 0.2490 Uiso
H61 H 0.7287 0.4368 0.9881 0.2490 Uiso
C64 C 0.8019(2) 0.4979(4) 0.8626(5) 0.1491 Uani
H62 H 0.8041 0.5231 0.8686 0.1790 Uiso
H63 H 0.7879 0.4874 0.8283 0.1790 Uiso
C65 C 0.8424(2) 0.5035(5) 0.8567(7) 0.2042 Uani
H64 H 0.8536 0.5056 0.8926 0.3060 Uiso
H65 H 0.8585 0.5268 0.8360 0.3060 Uiso
H66 H 0.8410 0.4815 0.8376 0.3060 Uiso
O22 O 0.9671(3) 0.6080(2) 0.1303(4) 0.2123 Uani
C66 C 0.9671(4) 0.6270(4) 0.1809(5) 0.2176 Uani
H67 H 0.9574 0.6078 0.2104 0.2610 Uiso
H68 H 0.9492 0.6369 0.1771 0.2610 Uiso
C67 C 1.0068(4) 0.6602(4) 0.1969(6) 0.2210 Uani
H69 H 1.0231 0.6499 0.2085 0.3310 Uiso
H70 H 1.0041 0.6747 0.2266 0.3310 Uiso
H71 H 1.0185 0.6771 0.1657 0.3310 Uiso
C68 C 0.9310(4) 0.5740(4) 0.1114(6) 0.2190 Uani
H72 H 0.9120 0.5817 0.1020 0.2630 Uiso
H73 H 0.9202 0.5547 0.1407 0.2630 Uiso
C69 C 0.9397(6) 0.5563(4) 0.0605(6) 0.2568 Uani
H74 H 0.9362 0.5677 0.0276 0.3850 Uiso
H75 H 0.9221 0.5286 0.0599 0.3850 Uiso
H76 H 0.9661 0.5614 0.0622 0.3850 Uiso
loop_
_atom_site_aniso_label
_atom_site_aniso_U_11
_atom_site_aniso_U_22
_atom_site_aniso_U_33
_atom_site_aniso_U_23
_atom_site_aniso_U_13
_atom_site_aniso_U_12
Tb1 0.06933(14) 0.06805(15) 0.06733(17) 0.00003(16) 0.00066(17) 0.03473(13)
Tb2 0.0671(2) 0.0671(2) 0.0693(4) 0.000 0.000 0.03356(11)
N1 0.118(3) 0.124(3) 0.116(3) 0.004(3) 0.015(3) 0.038(3)
N2 0.108 0.13 0.132 0.011 0.036 0.055
N3 0.133 0.135 0.117 -0.027 -0.017 0.061
N4 0.140(3) 0.110(3) 0.137(3) -0.018(3) 0.008(3) 0.051(3)
N5 0.121(4) 0.123(4) 0.113(4) -0.012(4) -0.005(4) 0.044(3)
N6 0.107(4) 0.131(4) 0.126(4) 0.017(4) 0.013(4) 0.057(3)
N7 0.122(3) 0.127(3) 0.113(4) 0.008(3) -0.018(3) 0.076(3)
N8 0.143(4) 0.115(4) 0.131(5) 0.017(4) -0.030(4) 0.066(3)
O1 0.116(2) 0.106(2) 0.097(3) 0.003(2) 0.009(2) 0.050(2)
O2 0.092(3) 0.111(3) 0.098(3) -0.009(3) 0.001(3) 0.052(2)
O3 0.104(3) 0.109(3) 0.090(3) -0.001(3) 0.000(3) 0.039(3)
O4 0.113(2) 0.097(2) 0.115(3) -0.011(2) 0.011(2) 0.056(2)
O5 0.096(2) 0.108(2) 0.095(3) 0.017(2) 0.006(2) 0.0554(19)
O6 0.0552 0.112 0.103 0.012 0.021 0.0301
O7 0.1 0.109 0.083 -0.026 -0.025 0.048
O8 0.115(2) 0.080(2) 0.095(3) -0.032(2) -0.013(2) 0.0654(17)
O9 0.121(3) 0.132(3) 0.117(3) 0.000(3) -0.026(3) 0.045(3)
O10 0.122(3) 0.107(3) 0.103(3) 0.001(3) -0.001(3) 0.054(3)
O11 0.186(5) 0.153(4) 0.170(5) -0.023(4) -0.011(4) 0.079(3)
O12 0.115(3) 0.127(3) 0.118(3) -0.005(3) 0.010(3) 0.066(2)
O13 0.116(3) 0.133(3) 0.135(4) -0.002(3) -0.002(3) 0.040(3)
O14 0.121(4) 0.200(8) 0.210(7) -0.013(6) 0.106(5) 0.020(5)
O15 0.103(3) 0.149(3) 0.134(4) 0.000(3) -0.007(3) 0.062(3)
O16 0.111(3) 0.129(3) 0.099(3) 0.005(3) -0.007(3) 0.072(2)
O17 0.163(5) 0.216(6) 0.174(7) 0.050(6) -0.020(5) 0.113(4)
O18 0.125(3) 0.097(3) 0.116(3) 0.001(3) -0.019(3) 0.066(2)
O19 0.157(5) 0.129(4) 0.111(4) -0.007(4) -0.052(4) 0.047(4)
O20 0.209(5) 0.147(4) 0.198(6) 0.022(4) -0.089(5) 0.102(4)
C1 0.084(2) 0.080(2) 0.075(3) -0.001(2) -0.005(2) 0.0624(17)
C2 0.109(3) 0.089(3) 0.087(3) -0.001(3) -0.009(3) 0.066(2)
C3 0.104(3) 0.091(3) 0.087(3) -0.007(3) -0.013(3) 0.066(2)
C4 0.096(3) 0.105(3) 0.096(3) 0.013(3) -0.001(3) 0.053(3)
C5 0.100(3) 0.103(3) 0.104(3) 0.010(3) 0.001(3) 0.056(3)
C6 0.110(3) 0.110(3) 0.104(3) 0.011(3) 0.012(3) 0.054(3)
C7 0.113(3) 0.109(3) 0.093(3) 0.018(3) 0.002(3) 0.051(3)
C8 0.104(3) 0.098(3) 0.089(3) -0.004(3) 0.010(3) 0.058(2)
C9 0.122(4) 0.103(3) 0.097(4) -0.001(3) 0.016(3) 0.052(3)
C10 0.127(4) 0.107(4) 0.106(4) 0.011(4) 0.009(4) 0.049(3)
C11 0.121(4) 0.113(4) 0.098(4) 0.006(4) 0.006(4) 0.052(3)
C12 0.118(3) 0.109(3) 0.101(3) 0.006(3) 0.012(3) 0.049(3)
C13 0.132(4) 0.123(3) 0.124(4) 0.006(3) 0.004(3) 0.035(3)
C14 0.140(4) 0.129(4) 0.126(4) 0.003(4) 0.008(4) 0.034(4)
C15 0.145(4) 0.130(4) 0.134(4) -0.001(4) 0.005(4) 0.041(4)
C16 0.150(4) 0.127(4) 0.139(4) 0.007(4) -0.001(4) 0.045(4)
C17 0.156(4) 0.129(4) 0.145(4) 0.006(4) -0.001(4) 0.045(4)
C18 0.139(4) 0.143(4) 0.139(4) 0.009(4) -0.009(4) 0.038(4)
C19 0.137(4) 0.130(4) 0.128(4) 0.004(4) 0.006(4) 0.046(4)
C20 0.057 0.114 0.116 -0.001 0.003 0.029
C21 0.065 0.123 0.111 0.001 0.011 0.043
C22 0.078 0.11 0.097 -0.012 0.008 0.039
C23 0.091 0.125 0.107 -0.03 -0.008 0.051
C24 0.1 0.126 0.114 -0.023 -0.01 0.055
C25 0.096 0.124 0.108 -0.015 0.002 0.055
C26 0.065 0.116 0.114 -0.008 0.005 0.034
C27 0.121 0.125 0.125 -0.003 0.021 0.054
C28 0.11 0.13 0.139 -0.008 0.016 0.052
C29 0.157 0.137 0.147 -0.007 0.012 0.071
C30 0.134 0.143 0.157 -0.011 0.008 0.064
C31 0.156 0.14 0.154 -0.02 -0.004 0.07
C32 0.173 0.139 0.147 0.007 0.024 0.081
C33 0.124 0.129 0.138 -0.001 0.018 0.058
C34 0.124 0.126 0.092 -0.011 -0.003 0.063
C35 0.076 0.115 0.093 -0.019 -0.022 0.037
C36 0.072 0.115 0.09 -0.008 0.004 0.033
C37 0.094 0.114 0.09 -0.003 0.01 0.035
C38 0.112 0.124 0.095 -0.012 -0.004 0.051
C39 0.095 0.122 0.102 -0.006 -0.002 0.043
C40 0.103 0.123 0.097 -0.016 -0.009 0.048
C41 0.128 0.132 0.118 -0.009 0 0.06
C42 0.124 0.139 0.126 -0.019 -0.008 0.057
C43 0.158 0.148 0.133 -0.014 0 0.075
C44 0.188 0.157 0.141 -0.015 -0.011 0.091
C45 0.195 0.158 0.142 -0.014 0.002 0.092
C46 0.181 0.156 0.147 -0.014 -0.003 0.092
C47 0.148 0.14 0.131 -0.017 -0.003 0.068
C48 0.122(3) 0.097(3) 0.114(3) -0.020(3) 0.008(3) 0.073(2)
C49 0.127(3) 0.093(3) 0.122(3) -0.006(3) 0.000(3) 0.064(3)
C50 0.112(3) 0.097(3) 0.112(3) -0.009(3) 0.007(3) 0.056(2)
C51 0.111(3) 0.099(3) 0.128(4) -0.011(3) 0.011(3) 0.059(3)
C52 0.113(4) 0.107(4) 0.127(4) -0.013(4) 0.007(4) 0.060(3)
C53 0.115(4) 0.106(4) 0.128(5) -0.003(4) 0.008(4) 0.055(3)
C54 0.120(3) 0.098(3) 0.119(3) -0.020(3) 0.007(3) 0.059(3)
C55 0.143(4) 0.121(3) 0.143(4) -0.010(3) 0.009(3) 0.058(3)
C56 0.145(4) 0.119(4) 0.152(4) -0.012(4) 0.013(4) 0.058(3)
C57 0.147(4) 0.129(4) 0.159(4) -0.012(4) 0.012(4) 0.058(4)
C58 0.153(4) 0.138(4) 0.162(4) -0.008(4) 0.009(4) 0.049(4)
C59 0.154(5) 0.147(5) 0.171(5) -0.010(5) 0.009(5) 0.043(5)
C60 0.159(4) 0.139(4) 0.156(4) -0.002(4) 0.002(4) 0.052(4)
C61 0.143(4) 0.130(4) 0.151(4) -0.012(4) 0.005(4) 0.054(4)
Tb1A 0.06805 0.06792 0.06733 0.00063 -3e-05 0.03332
Tb1B 0.06792 0.06933 0.06733 -0.00066 -0.00063 0.0346
Tb1H 0.06792 0.06933 0.06733 -0.00066 -0.00063 0.0346
Tb1D 0.06792 0.06805 0.06733 3e-05 -0.00063 0.03332
Tb1F 0.06933 0.06805 0.06733 3e-05 0.00066 0.03473
Tb1C 0.06805 0.06933 0.06733 -0.00066 -3e-05 0.03473
Tb1G 0.06805 0.06792 0.06733 0.00063 -3e-05 0.03332
Tb1E 0.06933 0.06792 0.06733 0.00063 0.00066 0.0346
N1A 0.124 0.166 0.116 0.011 -0.004 0.086
N1B 0.166 0.118 0.116 -0.015 -0.011 0.08
N2A 0.13 0.128 0.132 0.025 -0.011 0.075
N2B 0.128 0.108 0.132 -0.036 -0.025 0.053
N3A 0.135 0.146 0.117 0.01 0.027 0.074
N3B 0.146 0.133 0.117 0.017 -0.01 0.072
N4A 0.11 0.148 0.137 0.026 0.018 0.059
N4B 0.148 0.14 0.137 -0.008 -0.026 0.089
N5A 0.123 0.156 0.113 0.007 0.012 0.079
N5B 0.156 0.121 0.113 0.005 -0.007 0.077
N6A 0.131 0.124 0.126 -0.004 -0.017 0.074
N6B 0.124 0.107 0.126 -0.013 0.004 0.05
N7A 0.127 0.097 0.113 -0.026 -0.008 0.051
N7B 0.097 0.122 0.113 0.018 0.026 0.046
N8A 0.115 0.126 0.131 -0.047 -0.017 0.049
N8B 0.126 0.143 0.131 0.03 0.047 0.077
O1A 0.106 0.122 0.097 0.006 -0.003 0.056
O1B 0.122 0.116 0.097 -0.009 -0.006 0.066
O2A 0.111 0.099 0.098 0.01 0.009 0.059
O2B 0.099 0.092 0.098 -0.001 -0.01 0.04
O3A 0.109 0.135 0.09 0.001 0.001 0.07
O3B 0.135 0.104 0.09 0 -0.001 0.065
O4A 0.097 0.098 0.115 0.022 0.011 0.041
O4B 0.098 0.113 0.115 -0.011 -0.022 0.057
O5A 0.108 0.0932 0.095 -0.011 -0.017 0.0526
O5B 0.0932 0.096 0.095 -0.006 0.011 0.0406
O6A 0.112 0.107 0.103 0.009 -0.012 0.0819
O6B 0.107 0.0552 0.103 -0.021 -0.009 0.0251
O6M 0.112 0.107 0.103 0.009 -0.012 0.0819
O6N 0.107 0.0552 0.103 -0.021 -0.009 0.0251
O6L 0.0552 0.112 0.103 0.012 0.021 0.0301
O7A 0.109 0.113 0.083 0.001 0.026 0.061
O7B 0.113 0.1 0.083 0.025 -0.001 0.052
O7D 0.113 0.109 0.083 -0.026 -0.001 0.061
O7C 0.109 0.1 0.083 0.025 0.026 0.048
O7E 0.1 0.113 0.083 0.001 -0.025 0.052
O8A 0.08 0.0642 0.095 0.019 0.032 0.0146
O8B 0.0642 0.115 0.095 0.013 -0.019 0.0496
O9A 0.132 0.163 0.117 -0.026 0 0.087
O9B 0.163 0.121 0.117 0.026 0.026 0.076
O10A 0.107 0.121 0.103 -0.002 -0.001 0.053
O10B 0.121 0.122 0.103 0.001 0.002 0.068
O11A 0.153 0.181 0.17 0.012 0.023 0.074
O11B 0.181 0.186 0.17 0.011 -0.012 0.107
O12A 0.127 0.11 0.118 0.015 0.005 0.061
O12B 0.11 0.115 0.118 -0.01 -0.015 0.049
O13A 0.133 0.169 0.135 0 0.002 0.093
O13B 0.169 0.116 0.135 0.002 0 0.076
O14A 0.2 0.281 0.21 0.119 0.013 0.18
O14B 0.281 0.121 0.21 -0.106 -0.119 0.101
O15A 0.149 0.128 0.134 -0.007 0 0.087
O15B 0.128 0.103 0.134 0.007 0.007 0.041
O16A 0.129 0.096 0.099 -0.012 -0.005 0.057
O16B 0.096 0.111 0.099 0.007 0.012 0.039
O17A 0.216 0.153 0.174 -0.07 -0.05 0.103
O17B 0.153 0.163 0.174 0.02 0.07 0.05
O18A 0.097 0.09 0.116 -0.02 -0.001 0.031
O18B 0.09 0.125 0.116 0.019 0.02 0.059
O19A 0.129 0.192 0.111 -0.045 0.007 0.082
O19B 0.192 0.157 0.111 0.052 0.045 0.11
O20B 0.152 0.209 0.198 0.089 0.111 0.107
O20A 0.147 0.152 0.198 -0.111 -0.022 0.045
C1A 0.08 0.0392 0.075 -0.004 0.001 0.0176
C1B 0.0392 0.084 0.075 0.005 0.004 0.0216
C2A 0.089 0.066 0.087 -0.008 0.001 0.023
C2B 0.066 0.109 0.087 0.009 0.008 0.043
C3A 0.091 0.063 0.087 -0.006 0.007 0.025
C3B 0.063 0.104 0.087 0.013 0.006 0.038
C4A 0.105 0.095 0.096 -0.014 -0.013 0.052
C4B 0.095 0.096 0.096 0.001 0.014 0.043
C5A 0.103 0.091 0.104 -0.009 -0.01 0.047
C5B 0.091 0.1 0.104 -0.001 0.009 0.044
C6A 0.11 0.112 0.104 0.001 -0.011 0.056
C6B 0.112 0.11 0.104 -0.012 -0.001 0.056
C7A 0.109 0.12 0.093 -0.016 -0.018 0.058
C7B 0.12 0.113 0.093 -0.002 0.016 0.062
C8A 0.098 0.086 0.089 0.014 0.004 0.04
C8B 0.086 0.104 0.089 -0.01 -0.014 0.046
C9A 0.103 0.121 0.097 0.017 0.001 0.051
C9B 0.121 0.122 0.097 -0.016 -0.017 0.07
C10A 0.107 0.136 0.106 -0.002 -0.011 0.058
C10B 0.136 0.127 0.106 -0.009 0.002 0.078
C11A 0.113 0.13 0.098 0 -0.006 0.061
C11B 0.13 0.121 0.098 -0.006 0 0.069
C12A 0.109 0.129 0.101 0.006 -0.006 0.06
C12B 0.129 0.118 0.101 -0.012 -0.006 0.069
C13A 0.123 0.185 0.124 -0.002 -0.006 0.088
C13B 0.185 0.132 0.124 -0.004 0.002 0.097
C14A 0.129 0.201 0.126 0.005 -0.003 0.095
C14B 0.201 0.14 0.126 -0.008 -0.005 0.106
C15A 0.13 0.193 0.134 0.006 0.001 0.089
C15B 0.193 0.145 0.134 -0.005 -0.006 0.104
C16A 0.127 0.187 0.139 -0.008 -0.007 0.082
C16B 0.187 0.15 0.139 0.001 0.008 0.105
C17A 0.129 0.195 0.145 -0.007 -0.006 0.084
C17B 0.195 0.156 0.145 0.001 0.007 0.111
C18A 0.143 0.206 0.139 -0.018 -0.009 0.105
C18B 0.206 0.139 0.139 0.009 0.018 0.101
C19A 0.13 0.175 0.128 0.002 -0.004 0.084
C19B 0.175 0.137 0.128 -0.006 -0.002 0.091
C20A 0.114 0.113 0.116 0.004 0.001 0.085
C20B 0.113 0.057 0.116 -0.003 -0.004 0.028
C21A 0.123 0.102 0.111 0.01 -0.001 0.08
C21B 0.102 0.065 0.111 -0.011 -0.01 0.022
C22A 0.11 0.11 0.097 0.02 0.012 0.071
C22B 0.11 0.078 0.097 -0.008 -0.02 0.039
C23A 0.125 0.114 0.107 0.022 0.03 0.074
C23B 0.114 0.091 0.107 0.008 -0.022 0.04
C24A 0.126 0.116 0.114 0.013 0.023 0.071
C24B 0.116 0.1 0.114 0.01 -0.013 0.045
C25A 0.124 0.11 0.108 0.017 0.015 0.069
C25B 0.11 0.096 0.108 -0.002 -0.017 0.041
C26A 0.116 0.113 0.114 0.013 0.008 0.082
C26B 0.113 0.065 0.114 -0.005 -0.013 0.031
C27A 0.125 0.138 0.125 0.024 0.003 0.071
C27B 0.138 0.121 0.125 -0.021 -0.024 0.067
C28A 0.13 0.136 0.139 0.024 0.008 0.078
C28B 0.136 0.11 0.139 -0.016 -0.024 0.058
C29A 0.137 0.152 0.147 0.019 0.007 0.066
C29B 0.152 0.157 0.147 -0.012 -0.019 0.086
C30A 0.143 0.149 0.157 0.019 0.011 0.079
C30B 0.149 0.134 0.157 -0.008 -0.019 0.07
C31A 0.14 0.156 0.154 0.016 0.02 0.07
C31B 0.156 0.156 0.154 0.004 -0.016 0.086
C32A 0.139 0.15 0.147 0.017 -0.007 0.058
C32B 0.15 0.173 0.147 -0.024 -0.017 0.092
C33A 0.129 0.137 0.138 0.019 0.001 0.071
C33B 0.137 0.124 0.138 -0.018 -0.019 0.066
C34A 0.126 0.124 0.092 0.008 0.011 0.063
C34B 0.124 0.124 0.092 0.003 -0.008 0.061
C35A 0.115 0.117 0.093 -0.003 0.019 0.078
C35B 0.117 0.076 0.093 0.022 0.003 0.039
C36A 0.115 0.121 0.09 0.012 0.008 0.082
C36B 0.121 0.072 0.09 -0.004 -0.012 0.039
C37A 0.114 0.138 0.09 0.013 0.003 0.079
C37B 0.138 0.094 0.09 -0.01 -0.013 0.059
C38A 0.124 0.134 0.095 0.008 0.012 0.073
C38B 0.134 0.112 0.095 0.004 -0.008 0.061
C39A 0.122 0.131 0.102 0.004 0.006 0.079
C39B 0.131 0.095 0.102 0.002 -0.004 0.052
C40A 0.123 0.13 0.097 0.007 0.016 0.075
C40B 0.13 0.103 0.097 0.009 -0.007 0.055
C41A 0.132 0.14 0.118 0.009 0.009 0.072
C41B 0.14 0.128 0.118 0 -0.009 0.068
C42A 0.139 0.149 0.126 0.011 0.019 0.082
C42B 0.149 0.124 0.126 0.008 -0.011 0.067
C43A 0.148 0.156 0.133 0.014 0.014 0.073
C43B 0.156 0.158 0.133 0 -0.014 0.083
C44A 0.157 0.163 0.141 0.004 0.015 0.066
C44B 0.163 0.188 0.141 0.011 -0.004 0.097
C45A 0.158 0.169 0.142 0.016 0.014 0.066
C45B 0.169 0.195 0.142 -0.002 -0.016 0.103
C46A 0.156 0.153 0.147 0.011 0.014 0.064
C46B 0.153 0.181 0.147 0.003 -0.011 0.089
C47A 0.14 0.152 0.131 0.014 0.017 0.072
C47B 0.152 0.148 0.131 0.003 -0.014 0.08
C48A 0.097 0.073 0.114 0.028 0.02 0.024
C48B 0.073 0.122 0.114 -0.008 -0.028 0.049
C49A 0.093 0.092 0.122 0.006 0.006 0.029
C49B 0.092 0.127 0.122 0 -0.006 0.063
C50A 0.097 0.097 0.112 0.016 0.009 0.041
C50B 0.097 0.112 0.112 -0.007 -0.016 0.056
C51A 0.099 0.092 0.128 0.022 0.011 0.04
C51B 0.092 0.111 0.128 -0.011 -0.022 0.052
C52A 0.107 0.1 0.127 0.02 0.013 0.047
C52B 0.1 0.113 0.127 -0.007 -0.02 0.053
C53A 0.106 0.111 0.128 0.011 0.003 0.051
C53B 0.111 0.115 0.128 -0.008 -0.011 0.06
C54A 0.098 0.1 0.119 0.027 0.02 0.039
C54B 0.1 0.12 0.119 -0.007 -0.027 0.061
C55A 0.121 0.148 0.143 0.019 0.01 0.063
C55B 0.148 0.143 0.143 -0.009 -0.019 0.085
C56A 0.119 0.148 0.152 0.025 0.012 0.061
C56B 0.148 0.145 0.152 -0.013 -0.025 0.087
C57A 0.129 0.16 0.159 0.024 0.012 0.071
C57B 0.16 0.147 0.159 -0.012 -0.024 0.089
C58A 0.138 0.193 0.162 0.017 0.008 0.089
C58B 0.193 0.153 0.162 -0.009 -0.017 0.104
C59A 0.147 0.215 0.171 0.019 0.01 0.104
C59B 0.215 0.154 0.171 -0.009 -0.019 0.111
C60A 0.139 0.194 0.156 0.004 0.002 0.087
C60B 0.194 0.159 0.156 -0.002 -0.004 0.107
C61A 0.13 0.165 0.151 0.017 0.012 0.076
C61B 0.165 0.143 0.151 -0.005 -0.017 0.089
O21 0.135(5) 0.162(5) 0.161(5) 0.003(5) 0.014(5) 0.054(4)
C62 0.132(5) 0.158(5) 0.146(5) 0.003(5) 0.008(5) 0.053(5)
C63 0.152(7) 0.157(7) 0.182(9) 0.014(7) -0.004(7) 0.072(6)
C64 0.133(4) 0.141(4) 0.142(5) -0.002(4) 0.009(4) 0.045(4)
C65 0.170(9) 0.203(10) 0.190(10) 0.031(9) -0.038(9) 0.056(9)
O22 0.220(4) 0.210(4) 0.209(5) 0.004(4) 0.002(4) 0.109(3)
C66 0.232(7) 0.204(7) 0.206(7) -0.013(7) 0.008(7) 0.101(7)
C67 0.218(6) 0.222(6) 0.219(6) -0.004(5) 0.006(5) 0.107(4)
C68 0.243(7) 0.197(7) 0.197(7) -0.007(7) 0.008(7) 0.095(7)
C69 0.252(13) 0.235(13) 0.201(13) 0.018(12) 0.035(13) 0.060(13)
loop_
_geom_bond_atom_site_label_1
_geom_bond_atom_site_label_2
_geom_bond_site_symmetry_1
_geom_bond_site_symmetry_2
Tb1 O5 1_555 1_555
Tb2 O8 1_555 1_555
N1 H1 1_555 1_555
N2 H2 1_555 1_555
N3 H3 1_555 1_555
N4 H4 1_555 1_555
N5 O9 1_555 1_555
N6 O12 1_555 1_555
N7 O15 1_555 1_555
N8 O18 1_555 1_555
O1 C2 1_555 1_555
O2 C3 1_555 1_555
O3 C4 1_555 1_555
O4 C5 1_555 1_555
O5 C6 1_555 1_555
O6 C20 1_555 1_555
O7 C34 1_555 1_555
O8 C48 1_555 1_555
O9 Tb1 1_555 1_555
O10 Tb1 1_555 1_555
O11 N5 1_555 1_555
O12 Tb1 1_555 1_555
O13 Tb1 1_555 1_555
O14 N6 1_555 1_555
O15 Tb1 1_555 1_555
O16 Tb1 1_555 1_555
O17 N7 1_555 1_555
O18 Tb2 1_555 1_555
O19 Tb2 1_555 1_555
O20 N8 1_555 1_555
O21 C62 1_555 1_555
O22 C66 1_555 1_555
C1 C2 1_555 1_555
C2 H5 1_555 1_555
H6 C2 1_555 1_555
C3 C1 1_555 1_555
H7 C3 1_555 1_555
H8 C3 1_555 1_555
C4 C1 1_555 1_555
H9 C4 1_555 1_555
H10 C4 1_555 1_555
C5 C1 1_555 1_555
H11 C5 1_555 1_555
H12 C5 1_555 1_555
C6 N1 1_555 1_555
C7 C6 1_555 1_555
C8 O1 1_555 1_555
C9 C8 1_555 1_555
H13 C9 1_555 1_555
C10 C9 1_555 1_555
H14 C10 1_555 1_555
C11 C10 1_555 1_555
H15 C11 1_555 1_555
C12 C7 1_555 1_555
H16 C12 1_555 1_555
C13 N1 1_555 1_555
H17 C13 1_555 1_555
H18 C13 1_555 1_555
C14 C13 1_555 1_555
C15 C14 1_555 1_555
H19 C15 1_555 1_555
C16 C15 1_555 1_555
H20 C16 1_555 1_555
C17 C16 1_555 1_555
H21 C17 1_555 1_555
C18 C17 1_555 1_555
H22 C18 1_555 1_555
C19 C14 1_555 1_555
H23 C19 1_555 1_555
C20 N2 1_555 1_555
C21 C20 1_555 1_555
C22 O2 1_555 1_555
C23 C22 1_555 1_555
H24 C23 1_555 1_555
C24 C23 1_555 1_555
H25 C24 1_555 1_555
C25 C24 1_555 1_555
H26 C25 1_555 1_555
C26 C21 1_555 1_555
H27 C26 1_555 1_555
C27 N2 1_555 1_555
H28 C27 1_555 1_555
H29 C27 1_555 1_555
C28 C27 1_555 1_555
C29 C28 1_555 1_555
H30 C29 1_555 1_555
C30 C29 1_555 1_555
H31 C30 1_555 1_555
C31 C30 1_555 1_555
H32 C31 1_555 1_555
C32 C31 1_555 1_555
H33 C32 1_555 1_555
C33 C28 1_555 1_555
H34 C33 1_555 1_555
C34 N3 1_555 1_555
C35 C34 1_555 1_555
C36 O3 1_555 1_555
C37 C36 1_555 1_555
H35 C37 1_555 1_555
C38 C37 1_555 1_555
H36 C38 1_555 1_555
C39 C38 1_555 1_555
H37 C39 1_555 1_555
C40 C35 1_555 1_555
H38 C40 1_555 1_555
C41 N3 1_555 1_555
H39 C41 1_555 1_555
H40 C41 1_555 1_555
C42 C41 1_555 1_555
C43 C42 1_555 1_555
H41 C43 1_555 1_555
C44 C43 1_555 1_555
H42 C44 1_555 1_555
C45 C44 1_555 1_555
H43 C45 1_555 1_555
C46 C45 1_555 1_555
H44 C46 1_555 1_555
C47 C42 1_555 1_555
H45 C47 1_555 1_555
C48 N4 1_555 1_555
C49 C48 1_555 1_555
C50 O4 1_555 1_555
C51 C50 1_555 1_555
H46 C51 1_555 1_555
C52 C51 1_555 1_555
H47 C52 1_555 1_555
C53 C52 1_555 1_555
H48 C53 1_555 1_555
C54 C49 1_555 1_555
H49 C54 1_555 1_555
C55 N4 1_555 1_555
H50 C55 1_555 1_555
H51 C55 1_555 1_555
C56 C55 1_555 1_555
C57 C56 1_555 1_555
H52 C57 1_555 1_555
C58 C57 1_555 1_555
H53 C58 1_555 1_555
C59 C58 1_555 1_555
H54 C59 1_555 1_555
C60 C59 1_555 1_555
H55 C60 1_555 1_555
C61 C56 1_555 1_555
H56 C61 1_555 1_555
C62 H57 1_555 1_555
H58 C62 1_555 1_555
C63 C62 1_555 1_555
H59 C63 1_555 1_555
H60 C63 1_555 1_555
H61 C63 1_555 1_555
C64 O21 1_555 1_555
H62 C64 1_555 1_555
H63 C64 1_555 1_555
C65 C64 1_555 1_555
H64 C65 1_555 1_555
H65 C65 1_555 1_555
H66 C65 1_555 1_555
C66 H67 1_555 1_555
H68 C66 1_555 1_555
C67 C66 1_555 1_555
H69 C67 1_555 1_555
H70 C67 1_555 1_555
H71 C67 1_555 1_555
C68 O22 1_555 1_555
H72 C68 1_555 1_555
H73 C68 1_555 1_555
C69 C68 1_555 1_555
H74 C69 1_555 1_555
H75 C69 1_555 1_555
H76 C69 1_555 1_555
Tb1A O5A 1_555 1_555
Tb1B O5B 1_555 1_555
Tb1H O6 1_555 1_555
Tb1D O7 1_555 1_555
Tb1F O6A 1_555 1_555
Tb1C O7A 1_555 1_555
Tb1G O6B 1_555 1_555
Tb1E O7B 1_555 1_555
N1A H1A 1_555 1_555
N1B H1B 1_555 1_555
N2A H2A 1_555 1_555
N2B H2B 1_555 1_555
N3A H3A 1_555 1_555
N3B H3B 1_555 1_555
N4A H4A 1_555 1_555
N4B H4B 1_555 1_555
N5A O9A 1_555 1_555
N5B O9B 1_555 1_555
N6A O12A 1_555 1_555
N6B O12B 1_555 1_555
N7A O15A 1_555 1_555
N7B O15B 1_555 1_555
N8A O18A 1_555 1_555
N8B O18B 1_555 1_555
O1A C2A 1_555 1_555
O1B C2B 1_555 1_555
O2A C3A 1_555 1_555
O2B C3B 1_555 1_555
O3A C4A 1_555 1_555
O3B C4B 1_555 1_555
O4A C5A 1_555 1_555
O4B C5B 1_555 1_555
O5A C6A 1_555 1_555
O5B C6B 1_555 1_555
O6A C20A 1_555 1_555
O6B C20B 1_555 1_555
O6M Tb1 1_555 1_555
O6N Tb1A 1_555 1_555
O6L Tb1B 1_555 1_555
O7A C34A 1_555 1_555
O7B C34B 1_555 1_555
O7D Tb1 1_555 1_555
O7C Tb1A 1_555 1_555
O7E Tb1B 1_555 1_555
O8A Tb2 1_555 1_555
O8B Tb2 1_555 1_555
O9A Tb1A 1_555 1_555
O9B Tb1B 1_555 1_555
O10A Tb1A 1_555 1_555
O10B Tb1B 1_555 1_555
O11A N5A 1_555 1_555
O11B N5B 1_555 1_555
O12A Tb1A 1_555 1_555
O12B Tb1B 1_555 1_555
O13A Tb1A 1_555 1_555
O13B Tb1B 1_555 1_555
O14A N6A 1_555 1_555
O14B N6B 1_555 1_555
O15A Tb1A 1_555 1_555
O15B Tb1B 1_555 1_555
O16A Tb1A 1_555 1_555
O16B Tb1B 1_555 1_555
O17A N7A 1_555 1_555
O17B N7B 1_555 1_555
O18A Tb2 1_555 1_555
O18B Tb2 1_555 1_555
O19A Tb2 1_555 1_555
O19B Tb2 1_555 1_555
O20B N8B 1_555 1_555
O20A N8A 1_555 1_555
C1A C2A 1_555 1_555
C1B C2B 1_555 1_555
C2A H5A 1_555 1_555
C2B H5B 1_555 1_555
H6A C2A 1_555 1_555
H6B C2B 1_555 1_555
C3A C1A 1_555 1_555
C3B C1B 1_555 1_555
H7A C3A 1_555 1_555
H7B C3B 1_555 1_555
H8A C3A 1_555 1_555
H8B C3B 1_555 1_555
C4A C1A 1_555 1_555
C4B C1B 1_555 1_555
H9A C4A 1_555 1_555
H9B C4B 1_555 1_555
H10A C4A 1_555 1_555
H10B C4B 1_555 1_555
C5A C1A 1_555 1_555
C5B C1B 1_555 1_555
H11A C5A 1_555 1_555
H11B C5B 1_555 1_555
H12A C5A 1_555 1_555
H12B C5B 1_555 1_555
C6A N1A 1_555 1_555
C6B N1B 1_555 1_555
C7A C6A 1_555 1_555
C7B C6B 1_555 1_555
C8A O1A 1_555 1_555
C8B O1B 1_555 1_555
C9A C8A 1_555 1_555
C9B C8B 1_555 1_555
H13A C9A 1_555 1_555
H13B C9B 1_555 1_555
C10A C9A 1_555 1_555
C10B C9B 1_555 1_555
H14A C10A 1_555 1_555
H14B C10B 1_555 1_555
C11A C10A 1_555 1_555
C11B C10B 1_555 1_555
H15A C11A 1_555 1_555
H15B C11B 1_555 1_555
C12A C7A 1_555 1_555
C12B C7B 1_555 1_555
H16A C12A 1_555 1_555
H16B C12B 1_555 1_555
C13A N1A 1_555 1_555
C13B N1B 1_555 1_555
H17A C13A 1_555 1_555
H17B C13B 1_555 1_555
H18A C13A 1_555 1_555
H18B C13B 1_555 1_555
C14A C13A 1_555 1_555
C14B C13B 1_555 1_555
C15A C14A 1_555 1_555
C15B C14B 1_555 1_555
H19A C15A 1_555 1_555
H19B C15B 1_555 1_555
C16A C15A 1_555 1_555
C16B C15B 1_555 1_555
H20A C16A 1_555 1_555
H20B C16B 1_555 1_555
C17A C16A 1_555 1_555
C17B C16B 1_555 1_555
H21A C17A 1_555 1_555
H21B C17B 1_555 1_555
C18A C17A 1_555 1_555
C18B C17B 1_555 1_555
H22A C18A 1_555 1_555
H22B C18B 1_555 1_555
C19A C14A 1_555 1_555
C19B C14B 1_555 1_555
H23A C19A 1_555 1_555
H23B C19B 1_555 1_555
C20A N2A 1_555 1_555
C20B N2B 1_555 1_555
C21A C20A 1_555 1_555
C21B C20B 1_555 1_555
C22A O2A 1_555 1_555
C22B O2B 1_555 1_555
C23A C22A 1_555 1_555
C23B C22B 1_555 1_555
H24A C23A 1_555 1_555
H24B C23B 1_555 1_555
C24A C23A 1_555 1_555
C24B C23B 1_555 1_555
H25A C24A 1_555 1_555
H25B C24B 1_555 1_555
C25A C24A 1_555 1_555
C25B C24B 1_555 1_555
H26A C25A 1_555 1_555
H26B C25B 1_555 1_555
C26A C21A 1_555 1_555
C26B C21B 1_555 1_555
H27A C26A 1_555 1_555
H27B C26B 1_555 1_555
C27A N2A 1_555 1_555
C27B N2B 1_555 1_555
H28A C27A 1_555 1_555
H28B C27B 1_555 1_555
H29A C27A 1_555 1_555
H29B C27B 1_555 1_555
C28A C27A 1_555 1_555
C28B C27B 1_555 1_555
C29A C28A 1_555 1_555
C29B C28B 1_555 1_555
H30A C29A 1_555 1_555
H30B C29B 1_555 1_555
C30A C29A 1_555 1_555
C30B C29B 1_555 1_555
H31A C30A 1_555 1_555
H31B C30B 1_555 1_555
C31A C30A 1_555 1_555
C31B C30B 1_555 1_555
H32A C31A 1_555 1_555
H32B C31B 1_555 1_555
C32A C31A 1_555 1_555
C32B C31B 1_555 1_555
H33A C32A 1_555 1_555
H33B C32B 1_555 1_555
C33A C28A 1_555 1_555
C33B C28B 1_555 1_555
H34A C33A 1_555 1_555
H34B C33B 1_555 1_555
C34A N3A 1_555 1_555
C34B N3B 1_555 1_555
C35A C34A 1_555 1_555
C35B C34B 1_555 1_555
C36A O3A 1_555 1_555
C36B O3B 1_555 1_555
C37A C36A 1_555 1_555
C37B C36B 1_555 1_555
H35A C37A 1_555 1_555
H35B C37B 1_555 1_555
C38A C37A 1_555 1_555
C38B C37B 1_555 1_555
H36A C38A 1_555 1_555
H36B C38B 1_555 1_555
C39A C38A 1_555 1_555
C39B C38B 1_555 1_555
H37A C39A 1_555 1_555
H37B C39B 1_555 1_555
C40A C35A 1_555 1_555
C40B C35B 1_555 1_555
H38A C40A 1_555 1_555
H38B C40B 1_555 1_555
C41A N3A 1_555 1_555
C41B N3B 1_555 1_555
H39A C41A 1_555 1_555
H39B C41B 1_555 1_555
H40A C41A 1_555 1_555
H40B C41B 1_555 1_555
C42A C41A 1_555 1_555
C42B C41B 1_555 1_555
C43A C42A 1_555 1_555
C43B C42B 1_555 1_555
H41A C43A 1_555 1_555
H41B C43B 1_555 1_555
C44A C43A 1_555 1_555
C44B C43B 1_555 1_555
H42A C44A 1_555 1_555
H42B C44B 1_555 1_555
C45A C44A 1_555 1_555
C45B C44B 1_555 1_555
H43A C45A 1_555 1_555
H43B C45B 1_555 1_555
C46A C45A 1_555 1_555
C46B C45B 1_555 1_555
H44A C46A 1_555 1_555
H44B C46B 1_555 1_555
C47A C42A 1_555 1_555
C47B C42B 1_555 1_555
H45A C47A 1_555 1_555
H45B C47B 1_555 1_555
C48A N4A 1_555 1_555
C48B N4B 1_555 1_555
C49A C48A 1_555 1_555
C49B C48B 1_555 1_555
C50A O4A 1_555 1_555
C50B O4B 1_555 1_555
C51A C50A 1_555 1_555
C51B C50B 1_555 1_555
H46A C51A 1_555 1_555
H46B C51B 1_555 1_555
C52A C51A 1_555 1_555
C52B C51B 1_555 1_555
H47A C52A 1_555 1_555
H47B C52B 1_555 1_555
C53A C52A 1_555 1_555
C53B C52B 1_555 1_555
H48A C53A 1_555 1_555
H48B C53B 1_555 1_555
C54A C49A 1_555 1_555
C54B C49B 1_555 1_555
H49A C54A 1_555 1_555
H49B C54B 1_555 1_555
C55A N4A 1_555 1_555
C55B N4B 1_555 1_555
H50A C55A 1_555 1_555
H50B C55B 1_555 1_555
H51A C55A 1_555 1_555
H51B C55B 1_555 1_555
C56A C55A 1_555 1_555
C56B C55B 1_555 1_555
C57A C56A 1_555 1_555
C57B C56B 1_555 1_555
H52A C57A 1_555 1_555
H52B C57B 1_555 1_555
C58A C57A 1_555 1_555
C58B C57B 1_555 1_555
H53A C58A 1_555 1_555
H53B C58B 1_555 1_555
C59A C58A 1_555 1_555
C59B C58B 1_555 1_555
H54A C59A 1_555 1_555
H54B C59B 1_555 1_555
C60A C59A 1_555 1_555
C60B C59B 1_555 1_555
H55A C60A 1_555 1_555
H55B C60B 1_555 1_555
C61A C56A 1_555 1_555
C61B C56B 1_555 1_555
H56A C61A 1_555 1_555
H56B C61B 1_555 1_555
N5 O10 1_555 1_555
N6 O13 1_555 1_555
N7 O16 1_555 1_555
N8 O19 1_555 1_555
C7 C8 1_555 1_555
C11 C12 1_555 1_555
C18 C19 1_555 1_555
C21 C22 1_555 1_555
C25 C26 1_555 1_555
C32 C33 1_555 1_555
C35 C36 1_555 1_555
C39 C40 1_555 1_555
C46 C47 1_555 1_555
C49 C50 1_555 1_555
C53 C54 1_555 1_555
C60 C61 1_555 1_555
N5A O10A 1_555 1_555
N5B O10B 1_555 1_555
N6A O13A 1_555 1_555
N6B O13B 1_555 1_555
N7A O16A 1_555 1_555
N7B O16B 1_555 1_555
N8A O19A 1_555 1_555
N8B O19B 1_555 1_555
O8A C48A 1_555 1_555
O8B C48B 1_555 1_555
C7A C8A 1_555 1_555
C7B C8B 1_555 1_555
C11A C12A 1_555 1_555
C11B C12B 1_555 1_555
C18A C19A 1_555 1_555
C18B C19B 1_555 1_555
C21A C22A 1_555 1_555
C21B C22B 1_555 1_555
C25A C26A 1_555 1_555
C25B C26B 1_555 1_555
C32A C33A 1_555 1_555
C32B C33B 1_555 1_555
C35A C36A 1_555 1_555
C35B C36B 1_555 1_555
C39A C40A 1_555 1_555
C39B C40B 1_555 1_555
C46A C47A 1_555 1_555
C46B C47B 1_555 1_555
C49A C50A 1_555 1_555
C49B C50B 1_555 1_555
C53A C54A 1_555 1_555
C53B C54B 1_555 1_555
C60A C61A 1_555 1_555
C60B C61B 1_555 1_555

#END
