
#######################################################################
#
#                 Cambridge Crystallographic Data Centre
#                                CCDC 
#
#######################################################################
#
# If this CIF has been generated from an entry in the Cambridge 
# Structural Database, then it will include bibliographic, chemical, 
# crystal, experimental, refinement or atomic coordinate data resulting 
# from the CCDC's data processing and validation procedures.
#
#######################################################################

data_KEFFEI
_chemical_formula_moiety         '(C5 H9 Dy1 N2 O8)n'
_symmetry_cell_setting           orthorhombic
_symmetry_space_group_name_H-M   'C 2 2 21'
_symmetry_Int_Tables_number      20
_space_group_name_Hall           'C 2c 2'
loop_
_symmetry_equiv_pos_site_id
_symmetry_equiv_pos_as_xyz
1 x,y,z
2 -x,-y,1/2+z
3 x,-y,-z
4 -x,y,1/2-z
5 1/2+x,1/2+y,z
6 1/2-x,1/2-y,1/2+z
7 1/2+x,1/2-y,-z
8 1/2-x,1/2+y,1/2-z
_cell_length_a                   6.682(2)
_cell_length_b                   18.446(7)
_cell_length_c                   8.477(3)
_cell_angle_alpha                90
_cell_angle_beta                 90
_cell_angle_gamma                90
_cell_volume                     1044.84
loop_
_atom_site_label
_atom_site_type_symbol
_atom_site_fract_x
_atom_site_fract_y
_atom_site_fract_z
C1 C 0.5000 0.8752(3) 0.2500
H1 H 0.500 0.8248 0.250
C2 C 0.0739(11) 1.00000 0.5000
H2 H 0.2131 1.00000 0.500
C3 C -0.2660(9) 0.7440(3) 0.0264(6)
H3 H -0.2874 0.7827 -0.0418
O1 O 0.3358(5) 0.90537(18) 0.2690(8)
O2 O -0.0136(11) 0.95020(17) 0.4317(4)
O3 O -0.1807(6) 0.7575(2) 0.1526(4)
O4 O -0.3258(6) 0.68314(19) -0.0178(5)
Dy1 Dy -0.0000 0.857359(11) 0.2500
C3C C 0.2660(9) 0.7440(3) 0.4736(6)
H3C H 0.2874 0.7827 0.5418
O1C O 0.6642(5) 0.90537(18) 0.2310(8)
O1C_2 O -0.3358(5) 0.90537(18) 0.2310(8)
O2B O -0.0136(11) 1.04980(17) 0.5683(4)
O2C O 0.0136(11) 0.95020(17) 0.0683(4)
O3C O 0.1807(6) 0.7575(2) 0.3474(4)
O4C O 0.3258(6) 0.68314(19) 0.5178(5)
O4E O -0.1742(6) 0.81686(19) 0.4822(5)
O4F O 0.1742(6) 0.81686(19) 0.0178(5)
Dy1_2 Dy 1.0000 0.857359(11) 0.2500
Dy1A Dy -0.0000 1.142641(11) 0.7500
Dy1E Dy -0.5000 0.642641(11) -0.2500
Dy1E_2 Dy 0.5000 0.642641(11) 0.7500
C4 C -0.5 0.9053(4) 0.7500
H4 H -0.5 0.860(4) 0.750
N1 N -0.3639(9) 0.9369(3) 0.6683(7)
H5 H -0.3586 0.9835 0.6652
H6 H -0.2779 0.9115 0.6168
N1C N -0.6361(9) 0.9369(3) 0.8317(7)
H5C H -0.6414 0.9835 0.8348
H6C H -0.7221 0.9115 0.8832
loop_
_geom_bond_atom_site_label_1
_geom_bond_atom_site_label_2
_geom_bond_site_symmetry_1
_geom_bond_site_symmetry_2
C1 H1 1_555 1_555
C2 H2 1_555 1_555
C3 H3 1_555 1_555
O1 C1 1_555 1_555
O2 C2 1_555 1_555
O3 C3 1_555 1_555
O4 C3 1_555 1_555
Dy1 O1 1_555 1_555
C4 H4 1_555 1_555
N1 C4 1_555 1_555
H5 N1 1_555 1_555
H6 N1 1_555 1_555
C3C H3C 1_555 1_555
O1C C1 1_555 1_555
O1C_2 Dy1 1_555 1_555
O2B C2 1_555 1_555
O2C Dy1 1_555 1_555
O3C Dy1 1_555 1_555
O4C C3C 1_555 1_555
O4E Dy1 1_555 1_555
O4F Dy1 1_555 1_555
Dy1_2 O1C 1_555 1_555
Dy1A O2B 1_555 1_555
Dy1E O4 1_555 1_555
Dy1E_2 O4C 1_555 1_555
N1C C4 1_555 1_555
H5C N1C 1_555 1_555
H6C N1C 1_555 1_555
O2 Dy1 1_555 1_555
O3 Dy1 1_555 1_555
C3C O3C 1_555 1_555

#END
