
#######################################################################
#
#                 Cambridge Crystallographic Data Centre
#                                CCDC 
#
#######################################################################
#
# If this CIF has been generated from an entry in the Cambridge 
# Structural Database, then it will include bibliographic, chemical, 
# crystal, experimental, refinement or atomic coordinate data resulting 
# from the CCDC's data processing and validation procedures.
#
#######################################################################

data_CUPHIG
_chemical_formula_moiety         'C22 H14 Cu8 N4 O16'
_symmetry_cell_setting           rhombohedral
_symmetry_space_group_name_H-M   'R -3 m'
_symmetry_Int_Tables_number      166
_space_group_name_Hall           '-R 3 2"'
loop_
_symmetry_equiv_pos_site_id
_symmetry_equiv_pos_as_xyz
1 x,y,z
2 -y,x-y,z
3 -x+y,-x,z
4 x-y,-y,-z
5 -x,-x+y,-z
6 y,x,-z
7 2/3+x,1/3+y,1/3+z
8 2/3-y,1/3+x-y,1/3+z
9 2/3-x+y,1/3-x,1/3+z
10 2/3+x-y,1/3-y,1/3-z
11 2/3-x,1/3-x+y,1/3-z
12 2/3+y,1/3+x,1/3-z
13 1/3+x,2/3+y,2/3+z
14 1/3-y,2/3+x-y,2/3+z
15 1/3-x+y,2/3-x,2/3+z
16 1/3+x-y,2/3-y,2/3-z
17 1/3-x,2/3-x+y,2/3-z
18 1/3+y,2/3+x,2/3-z
19 -x,-y,-z
20 y,-x+y,-z
21 x-y,x,-z
22 -x+y,y,z
23 x,x-y,z
24 -y,-x,z
25 1/3-x,2/3-y,2/3-z
26 1/3+y,2/3-x+y,2/3-z
27 1/3+x-y,2/3+x,2/3-z
28 1/3-x+y,2/3+y,2/3+z
29 1/3+x,2/3+x-y,2/3+z
30 1/3-y,2/3-x,2/3+z
31 2/3-x,1/3-y,1/3-z
32 2/3+y,1/3-x+y,1/3-z
33 2/3+x-y,1/3+x,1/3-z
34 2/3-x+y,1/3+y,1/3+z
35 2/3+x,1/3+x-y,1/3+z
36 2/3-y,1/3-x,1/3+z
_cell_length_a                   18.7387(3)
_cell_length_b                   18.7387(3)
_cell_length_c                   37.4863(8)
_cell_angle_alpha                90
_cell_angle_beta                 90
_cell_angle_gamma                120
_cell_volume                     11399.4
loop_
_atom_site_label
_atom_site_type_symbol
_atom_site_fract_x
_atom_site_fract_y
_atom_site_fract_z
_atom_site_U_iso_or_equiv
_atom_site_thermal_displace_type
C1 C 0.5120(2) 0.4880(2) 0.53467(14) 0.1012 Uani
C2 C 0.5267(2) 0.4733(2) 0.57142(12) 0.0723 Uani
C3 C 0.47021(19) 0.40133(19) 0.58897(8) 0.0603 Uani
H1 H 0.4211 0.3624 0.5772 0.0720 Uiso
C4 C 0.48540(16) 0.38656(16) 0.62322(7) 0.0402 Uani
C5 C 0.55688(12) 0.44312(12) 0.64049(9) 0.0353 Uani
H2 H 0.5671 0.4329 0.6642 0.0420 Uiso
C6 C 0.42713(15) 0.30607(15) 0.64074(6) 0.0356 Uani
C7 C 0.5432(6) 0.5672(4) 0.52306(19) 0.0972 Uani
H3 H 0.5683 0.6135 0.5386 0.1170 Uiso
Cu1 Cu 0.37924(3) 0.189622(13) 0.696095(11) 0.0260 Uani
N1 N 0.5741(4) 0.5350(5) 0.51275(16) 0.1009 Uani
O1 O 0.44469(11) 0.29495(11) 0.67180(4) 0.0402 Uani
O2 O 0.36607(11) 0.25636(11) 0.62271(5) 0.0434 Uani
O3 O 0.4409(2) 0.22045(11) 0.74660(8) 0.0687 Uani
H4 H 0.4318 0.2535 0.7569 0.1030 Uiso
C1E C 0.4880(2) 0.5120(2) 0.46533(14) 0.1012 Uani
C2E C 0.4733(2) 0.5267(2) 0.42858(12) 0.0723 Uani
C3E C 0.40133(19) 0.47021(19) 0.41103(8) 0.0603 Uani
H1E H 0.3624 0.4211 0.4228 0.0720 Uiso
C4E C 0.38656(16) 0.48540(16) 0.37678(7) 0.0402 Uani
C5E C 0.44312(12) 0.55688(12) 0.35951(9) 0.0353 Uani
H2E H 0.4329 0.5671 0.3358 0.0420 Uiso
C6E C 0.30607(15) 0.42713(15) 0.35926(6) 0.0356 Uani
C7E C 0.5672(4) 0.5432(6) 0.47694(19) 0.0972 Uani
H3E H 0.6135 0.5683 0.4614 0.1170 Uiso
N1E N 0.5350(5) 0.5741(4) 0.48725(16) 0.1009 Uani
O1E O 0.29495(11) 0.44469(11) 0.32820(4) 0.0402 Uani
O2E O 0.25636(11) 0.36607(11) 0.37729(5) 0.0434 Uani
C3R C 0.52979(19) 0.59867(19) 0.41103(8) 0.0603 Uani
H1R H 0.5789 0.6376 0.4228 0.0720 Uiso
C4R C 0.51460(16) 0.61344(16) 0.37678(7) 0.0402 Uani
C6R C 0.57287(15) 0.69393(15) 0.35926(6) 0.0356 Uani
C7R C 0.4568(6) 0.4328(4) 0.47694(19) 0.0972 Uani
H3R H 0.4317 0.3865 0.4614 0.1170 Uiso
N1R N 0.4259(4) 0.4650(5) 0.48725(16) 0.1009 Uani
O1R O 0.55531(11) 0.70505(11) 0.32820(4) 0.0402 Uani
O2R O 0.63393(11) 0.74364(11) 0.37729(5) 0.0434 Uani
C3W C 0.59867(19) 0.52979(19) 0.58897(8) 0.0603 Uani
H1W H 0.6376 0.5789 0.5772 0.0720 Uiso
C4W C 0.61344(16) 0.51460(16) 0.62322(7) 0.0402 Uani
C6W C 0.69393(15) 0.57287(15) 0.64074(6) 0.0356 Uani
C7W C 0.4328(4) 0.4568(6) 0.52306(19) 0.0972 Uani
H3W H 0.3865 0.4317 0.5386 0.1170 Uiso
N1W N 0.4650(5) 0.4259(4) 0.51275(16) 0.1009 Uani
O1W O 0.70505(11) 0.55531(11) 0.67180(4) 0.0402 Uani
O2W O 0.74364(11) 0.63393(11) 0.62271(5) 0.0434 Uani
H4V H 0.4318 0.1783 0.7569 0.1030 Uiso
Cu1J Cu 0.28743(3) 0.143715(33) 0.637238(11) 0.0260 Uani
O3J O 0.2258(2) 0.11288(23) 0.58673(8) 0.0687 Uani
H4J H 0.2349 0.1550 0.5764 0.1030 Uiso
H4DA H 0.2349 0.0798 0.5764 0.1030 Uiso
Cu1B Cu 0.810382(33) 0.62076(3) 0.696095(11) 0.0260 Uani
Cu1D Cu 0.62076(3) 0.810382(33) 0.303905(11) 0.0260 Uani
Cu1E Cu 0.189622(13) 0.37924(3) 0.303905(11) 0.0260 Uani
Cu1K Cu 0.856289(13) 0.71257(3) 0.637238(11) 0.0260 Uani
Cu1L Cu 0.71257(3) 0.856289(13) 0.362762(11) 0.0260 Uani
Cu1N Cu 0.143715(33) 0.28743(3) 0.362762(11) 0.0260 Uani
O1J O 0.22198(11) 0.18359(16) 0.66153(4) 0.0402 Uani
O1V O 0.44469(11) 0.14974(16) 0.67180(4) 0.0402 Uani
O1DA O 0.22198(11) 0.03838(11) 0.66153(4) 0.0402 Uani
O2J O 0.30060(11) 0.22362(16) 0.71062(5) 0.0434 Uani
O2V O 0.36607(11) 0.10971(16) 0.62271(5) 0.0434 Uani
O2DA O 0.30060(11) 0.07697(11) 0.71062(5) 0.0434 Uani
loop_
_atom_site_aniso_label
_atom_site_aniso_U_11
_atom_site_aniso_U_22
_atom_site_aniso_U_33
_atom_site_aniso_U_23
_atom_site_aniso_U_13
_atom_site_aniso_U_12
C1 0.081(2) 0.081(2) 0.061(3) 0.034(2) -0.034(2) -0.020(3)
C2 0.0606(18) 0.0606(18) 0.046(2) 0.0231(14) -0.0231(14) -0.007(2)
C3 0.0461(16) 0.0506(17) 0.0445(16) 0.0133(14) -0.0146(13) -0.0055(14)
C4 0.0354(13) 0.0364(13) 0.0345(13) 0.0069(11) -0.0021(11) 0.0072(11)
C5 0.0359(12) 0.0359(12) 0.0279(16) 0.0002(7) -0.0002(7) 0.0133(15)
C6 0.0289(12) 0.0375(13) 0.0333(12) 0.0028(10) -0.0001(10) 0.0113(10)
C7 0.065(4) 0.112(6) 0.057(4) 0.035(4) -0.018(4) 0.001(4)
Cu1 0.0196(2) 0.0339(2) 0.0198(2) -0.00069(9) -0.00139(17) 0.00981(12)
N1 0.112(5) 0.064(4) 0.056(4) 0.016(3) -0.036(4) -0.009(3)
O1 0.0351(9) 0.0362(9) 0.0351(9) 0.0052(7) -0.0035(7) 0.0072(8)
O2 0.0344(9) 0.0431(10) 0.0327(9) 0.0076(8) -0.0060(7) 0.0043(8)
O3 0.077(2) 0.0783(17) 0.0503(18) -0.0158(9) -0.0316(17) 0.0385(12)
C1E 0.081 0.081 0.061 0.034 -0.034 -0.02
C2E 0.0606 0.0606 0.046 0.0231 -0.0231 -0.007
C3E 0.0506 0.0461 0.0445 0.0146 -0.0133 -0.0055
C4E 0.0364 0.0354 0.0345 0.0021 -0.0069 0.0072
C5E 0.0359 0.0359 0.0279 0.0002 -0.0002 0.0133
C6E 0.0375 0.0289 0.0333 0.0001 -0.0028 0.0113
C7E 0.112 0.065 0.057 0.018 -0.035 0.001
N1E 0.064 0.112 0.056 0.036 -0.016 -0.009
O1E 0.0362 0.0351 0.0351 0.0035 -0.0052 0.0072
O2E 0.0431 0.0344 0.0327 0.006 -0.0076 0.0043
C3R 0.0461 0.0506 0.0445 0.0133 -0.0146 -0.0055
C4R 0.0354 0.0364 0.0345 0.0069 -0.0021 0.0072
C6R 0.0289 0.0375 0.0333 0.0028 -0.0001 0.0113
C7R 0.065 0.112 0.057 0.035 -0.018 0.001
N1R 0.112 0.064 0.056 0.016 -0.036 -0.009
O1R 0.0351 0.0362 0.0351 0.0052 -0.0035 0.0072
O2R 0.0344 0.0431 0.0327 0.0076 -0.006 0.0043
C3W 0.0506 0.0461 0.0445 0.0146 -0.0133 -0.0055
C4W 0.0364 0.0354 0.0345 0.0021 -0.0069 0.0072
C6W 0.0375 0.0289 0.0333 0.0001 -0.0028 0.0113
C7W 0.112 0.065 0.057 0.018 -0.035 0.001
N1W 0.064 0.112 0.056 0.036 -0.016 -0.009
O1W 0.0362 0.0351 0.0351 0.0035 -0.0052 0.0072
O2W 0.0431 0.0344 0.0327 0.006 -0.0076 0.0043
Cu1J 0.0196 0.03388 0.0198 -0.0007 -0.00139 0.00979
O3J 0.077 0.0783 0.0503 -0.0158 -0.0316 0.0385
Cu1B 0.03388 0.0196 0.0198 0.00139 0.0007 0.00979
Cu1D 0.0196 0.03388 0.0198 -0.0007 -0.00139 0.00979
Cu1E 0.0339 0.0196 0.0198 0.00139 0.00069 0.00981
Cu1K 0.0339 0.0196 0.0198 0.00139 0.00069 0.00981
Cu1L 0.0196 0.0339 0.0198 -0.00069 -0.00139 0.00981
Cu1N 0.03388 0.0196 0.0198 0.00139 0.0007 0.00979
O1J 0.0351 0.0569 0.0351 -0.0087 -0.0035 0.0279
O1V 0.0351 0.0569 0.0351 -0.0087 -0.0035 0.0279
O1DA 0.0351 0.0362 0.0351 0.0052 -0.0035 0.0072
O2J 0.0344 0.0689 0.0327 -0.0136 -0.006 0.0301
O2V 0.0344 0.0689 0.0327 -0.0136 -0.006 0.0301
O2DA 0.0344 0.0431 0.0327 0.0076 -0.006 0.0043
loop_
_geom_bond_atom_site_label_1
_geom_bond_atom_site_label_2
_geom_bond_site_symmetry_1
_geom_bond_site_symmetry_2
C1 C2 1_555 1_555
C2 C3 1_555 1_555
C3 H1 1_555 1_555
C4 C3 1_555 1_555
C5 C4 1_555 1_555
H2 C5 1_555 1_555
C6 C4 1_555 1_555
C7 C1 1_555 1_555
H3 C7 1_555 1_555
Cu1 O1 1_555 1_555
N1 C1 1_555 1_555
O1 C6 1_555 1_555
O2 C6 1_555 1_555
O3 Cu1 1_555 1_555
H4 O3 1_555 1_555
C1E C2E 1_555 1_555
C2E C3E 1_555 1_555
C3E H1E 1_555 1_555
C4E C3E 1_555 1_555
C5E C4E 1_555 1_555
H2E C5E 1_555 1_555
C6E C4E 1_555 1_555
C7E N1 1_555 1_555
H3E C7E 1_555 1_555
N1E C7 1_555 1_555
O1E C6E 1_555 1_555
O2E C6E 1_555 1_555
C3R C2E 1_555 1_555
H1R C3R 1_555 1_555
C4R C5E 1_555 1_555
C6R C4R 1_555 1_555
C7R C1E 1_555 1_555
H3R C7R 1_555 1_555
N1R C1E 1_555 1_555
O1R C6R 1_555 1_555
O2R C6R 1_555 1_555
C3W C2 1_555 1_555
H1W C3W 1_555 1_555
C4W C5 1_555 1_555
C6W C4W 1_555 1_555
C7W C1 1_555 1_555
H3W C7W 1_555 1_555
N1W C1 1_555 1_555
O1W C6W 1_555 1_555
O2W C6W 1_555 1_555
H4V O3 1_555 1_555
Cu1J O2 1_555 1_555
O3J Cu1J 1_555 1_555
H4J O3J 1_555 1_555
H4DA O3J 1_555 1_555
Cu1B O1W 1_555 1_555
Cu1D O1R 1_555 1_555
Cu1E O1E 1_555 1_555
Cu1K O2W 1_555 1_555
Cu1L O2R 1_555 1_555
Cu1N O2E 1_555 1_555
O1J Cu1J 1_555 1_555
O1V Cu1 1_555 1_555
O1DA Cu1J 1_555 1_555
O2J Cu1 1_555 1_555
O2V Cu1J 1_555 1_555
O2DA Cu1 1_555 1_555
C7 N1 1_555 1_555
N1 N1E 1_555 1_555
C1E C7E 1_555 1_555
C1E N1E 1_555 1_555
C7E N1E 1_555 1_555
C3R C4R 1_555 1_555
C7R N1R 1_555 1_555
C7R N1W 1_555 1_555
N1R C7W 1_555 1_555
N1R N1W 1_555 1_555
C3W C4W 1_555 1_555
C7W N1W 1_555 1_555

#END
