
#######################################################################
#
#                 Cambridge Crystallographic Data Centre
#                                CCDC 
#
#######################################################################
#
# If this CIF has been generated from an entry in the Cambridge 
# Structural Database, then it will include bibliographic, chemical, 
# crystal, experimental, refinement or atomic coordinate data resulting 
# from the CCDC's data processing and validation procedures.
#
#######################################################################

data_NACYUM
_chemical_formula_moiety         '(C40 H44 Co2 N8 O20 P2 V2)n'
_symmetry_cell_setting           monoclinic
_symmetry_space_group_name_H-M   'P 21/c'
_symmetry_Int_Tables_number      14
_space_group_name_Hall           '-P 2ybc'
loop_
_symmetry_equiv_pos_site_id
_symmetry_equiv_pos_as_xyz
1 x,y,z
2 -x,1/2+y,1/2-z
3 -x,-y,-z
4 x,1/2-y,1/2+z
_cell_length_a                   8.7734(18)
_cell_length_b                   17.264(4)
_cell_length_c                   15.507(3)
_cell_angle_alpha                90
_cell_angle_beta                 93.94(3)
_cell_angle_gamma                90
_cell_volume                     2343.2
loop_
_atom_site_label
_atom_site_type_symbol
_atom_site_fract_x
_atom_site_fract_y
_atom_site_fract_z
Co1 Co 0.19178(5) 0.23958(3) 0.36555(3)
V1 V 0.05877(6) 0.01800(3) 0.66584(4)
P1 P 0.05624(9) 0.10682(5) 0.48980(5)
N1 N 0.2837(3) 0.05061(16) 0.59954(17)
O1 O 0.0818(2) 0.19068(13) 0.46690(15)
O2 O -0.0421(3) 0.06552(14) 0.41904(15)
O3 O -0.0129(2) 0.09689(14) 0.57726(15)
O4 O 0.1490(3) 0.10604(14) 0.73947(15)
O5 O 0.3175(3) 0.20069(14) 0.76557(15)
O6 O 0.2242(3) -0.04514(14) 0.73063(15)
O7 O 0.4603(3) -0.09281(16) 0.74160(17)
O8 O -0.0864(3) 0.00135(15) 0.72145(17)
C1 C 0.2414(4) 0.0574(2) 0.5055(2)
H1 H 0.2346 0.0052 0.4790
H2 H 0.3205 0.0872 0.4772
C2 C 0.3366(4) 0.1253(2) 0.6376(2)
H3 H 0.3130 0.1670 0.5949
H4 H 0.4490 0.1233 0.6488
C3 C 0.2652(4) 0.1456(2) 0.7211(2)
C4 C 0.3918(4) -0.0128(2) 0.6201(2)
H5 H 0.4971 0.0080 0.6253
H6 H 0.3853 -0.0511 0.5725
C5 C 0.3581(4) -0.0531(2) 0.7043(2)
N2 N 0.3929(3) 0.25577(17) 0.44975(18)
N3 N 1.0028(3) 0.27198(17) 0.77273(18)
C6 C 0.5262(4) 0.2201(2) 0.4390(2)
H7 H 0.5367 0.1922 0.3869
C7 C 0.6490(4) 0.2219(2) 0.5000(2)
H8 H 0.7409 0.1953 0.4899
C8 C 0.6361(4) 0.2630(2) 0.5763(2)
C9 C 0.4993(4) 0.3020(2) 0.5869(2)
H9 H 0.4864 0.3316 0.6376
C10 C 0.3829(4) 0.2969(2) 0.5223(2)
H10 H 0.2907 0.3241 0.5299
C11 C 1.0274(4) 0.2809(2) 0.6889(2)
H11 H 1.1288 0.2904 0.6739
C12 C 0.9133(4) 0.2768(2) 0.6235(2)
H12 H 0.9365 0.2815 0.5647
C13 C 0.7637(4) 0.2658(2) 0.6450(2)
C14 C 0.7370(4) 0.2573(2) 0.7316(2)
H13 H 0.6360 0.2496 0.7485
C15 C 0.8585(4) 0.2602(2) 0.7930(2)
H14 H 0.8391 0.2536 0.8521
O9 O 0.1159(3) 0.35044(15) 0.40230(16)
H15 H 0.038(4) 0.366(2) 0.426(2)
H16 H 0.119(5) 0.375(3) 0.355(2)
O10 O 0.2697(3) 0.13255(15) 0.31659(17)
H17 H 0.209(4) 0.098(2) 0.302(3)
H18 H 0.357(4) 0.122(3) 0.301(4)
P1C P 0.05624(9) 0.39318(5) -0.01020(5)
N1C N 0.2837(3) 0.44939(16) 0.09954(17)
O1C O 0.0818(2) 0.30932(13) -0.03310(15)
O2C O -0.0421(3) 0.43448(14) -0.08096(15)
O3C O -0.0129(2) 0.40311(14) 0.07726(15)
O4C O 0.1490(3) 0.39396(14) 0.23947(15)
O5C O 0.3175(3) 0.29931(14) 0.26557(15)
O6C O 0.2242(3) 0.54514(14) 0.23063(15)
O7C O 0.4603(3) 0.59281(16) 0.24160(17)
C1C C 0.2414(4) 0.4426(2) 0.0055(2)
H1C H 0.2346 0.4948 -0.0210
H2C H 0.3205 0.4128 -0.0228
C2C C 0.3366(4) 0.3747(2) 0.1376(2)
H3C H 0.3130 0.3330 0.0949
H4C H 0.4490 0.3767 0.1488
C3C C 0.2652(4) 0.3544(2) 0.2211(2)
C4C C 0.3918(4) 0.5128(2) 0.1201(2)
H5C H 0.4971 0.4920 0.1253
H6C H 0.3853 0.5511 0.0725
C5C C 0.3581(4) 0.5531(2) 0.2043(2)
N2C N -0.6071(3) 0.24423(17) -0.05025(18)
N3C N 0.0028(3) 0.22802(17) 0.27273(18)
C6C C -0.4738(4) 0.2799(2) -0.0610(2)
H7C H -0.4633 0.3078 -0.1131
C7C C -0.3510(4) 0.2781(2) 0.0000(2)
H8C H -0.2591 0.3047 -0.0101
C8C C -0.3639(4) 0.2370(2) 0.0763(2)
C9C C -0.5007(4) 0.1980(2) 0.0869(2)
H9C H -0.5136 0.1684 0.1376
C10C C -0.6171(4) 0.2031(2) 0.0223(2)
H10C H -0.7093 0.1759 0.0299
C11C C 0.0274(4) 0.2191(2) 0.1889(2)
H11C H 0.1288 0.2096 0.1739
C12C C -0.0867(4) 0.2232(2) 0.1235(2)
H12C H -0.0635 0.2185 0.0647
C13C C -0.2363(4) 0.2342(2) 0.1450(2)
C14C C -0.2630(4) 0.2427(2) 0.2316(2)
H13C H -0.3640 0.2504 0.2485
C15C C -0.1415(4) 0.2398(2) 0.2930(2)
H14C H -0.1609 0.2464 0.3521
Co1C Co 0.19178(5) 0.26042(3) -0.13445(3)
V1C V 0.05877(6) 0.48200(3) 0.16584(4)
O9C O 0.1159(3) 0.14956(15) -0.09770(16)
H15C H 0.038(4) 0.134(2) -0.074(2)
H16C H 0.119(5) 0.125(3) -0.145(2)
O10C O 0.2697(3) 0.36745(15) -0.18341(17)
H17C H 0.209(4) 0.402(2) -0.198(3)
H18C H 0.357(4) 0.378(3) -0.199(4)
O8C O -0.0864(3) 0.49865(15) 0.22145(17)
O2B O 0.0421(3) -0.06552(14) 0.58096(15)
V1B V -0.05877(6) -0.01800(3) 0.33416(4)
Co1C_2 Co 0.19178(5) 0.26042(3) 0.86555(3)
Co1C_3 Co 1.19178(5) 0.26042(3) 0.86555(3)
V1A V -0.05877(6) 0.51800(3) -0.16584(4)
Co1C_4 Co -0.80822(5) 0.26042(3) -0.13445(3)
O5_2 O 0.3175(3) 0.20069(14) -0.23443(15)
N2C_2 N 0.3929(3) 0.24423(17) -0.05025(18)
N3_2 N 0.0028(3) 0.27198(17) -0.22727(18)
O2A O 0.0421(3) 0.56552(14) 0.08096(15)
N4 N 0.8570(3) 0.08299(17) 0.95844(19)
C16 C 0.7410(4) 0.0791(2) 0.89286(15)
H19 H 0.7574 0.0989 0.8371
C17 C 0.6012(3) 0.0462(2) 0.90890(16)
H20 H 0.5219 0.0435 0.8641
C18 C 0.5773(2) 0.01720(17) 0.99051(18)
C19 C 0.6933(3) 0.02113(16) 1.05609(14)
H21 H 0.6769 0.0013 1.1119
C20 C 0.8331(2) 0.05402(17) 1.04006(16)
H22 H 0.9124 0.0567 1.0849
C18B C 0.4227(2) -0.01720(17) 1.00949(18)
C17B C 0.3988(3) -0.0462(2) 1.09110(16)
C16B C 0.2590(4) -0.0791(2) 1.10714(15)
N4B N 0.1430(3) -0.08299(17) 1.04156(19)
C20B C 0.1669(2) -0.05402(17) 0.95994(16)
C19B C 0.3067(3) -0.02113(16) 0.94391(14)
H21B H 0.3231 -0.0013 0.8881
H22B H 0.0876 -0.0567 0.9151
H19B H 0.2426 -0.0989 1.1629
H20B H 0.4781 -0.0435 1.1359
loop_
_geom_bond_atom_site_label_1
_geom_bond_atom_site_label_2
_geom_bond_site_symmetry_1
_geom_bond_site_symmetry_2
Co1 O1 1_555 1_555
V1 N1 1_555 1_555
P1 O1 1_555 1_555
N1 C1 1_555 1_555
O2 P1 1_555 1_555
O3 V1 1_555 1_555
O4 V1 1_555 1_555
O5 C3 1_555 1_555
O6 V1 1_555 1_555
O7 C5 1_555 1_555
O8 V1 1_555 1_555
C1 P1 1_555 1_555
H1 C1 1_555 1_555
H2 C1 1_555 1_555
C2 N1 1_555 1_555
H3 C2 1_555 1_555
H4 C2 1_555 1_555
C3 O4 1_555 1_555
C4 N1 1_555 1_555
H5 C4 1_555 1_555
H6 C4 1_555 1_555
C5 O6 1_555 1_555
N2 Co1 1_555 1_555
N3 C11 1_555 1_555
C6 N2 1_555 1_555
H7 C6 1_555 1_555
C7 C6 1_555 1_555
H8 C7 1_555 1_555
C8 C7 1_555 1_555
C9 C8 1_555 1_555
H9 C9 1_555 1_555
C10 N2 1_555 1_555
H10 C10 1_555 1_555
C11 H11 1_555 1_555
C12 C11 1_555 1_555
H12 C12 1_555 1_555
C13 C8 1_555 1_555
C14 C13 1_555 1_555
H13 C14 1_555 1_555
C15 N3 1_555 1_555
H14 C15 1_555 1_555
O9 Co1 1_555 1_555
H15 O9 1_555 1_555
H16 O9 1_555 1_555
O10 Co1 1_555 1_555
H17 O10 1_555 1_555
H18 O10 1_555 1_555
N4 C16 1_555 1_555
C16 H19 1_555 1_555
C17 C16 1_555 1_555
H20 C17 1_555 1_555
C18 C17 1_555 1_555
C19 C18 1_555 1_555
H21 C19 1_555 1_555
C20 N4 1_555 1_555
H22 C20 1_555 1_555
P1C O1C 1_555 1_555
N1C C1C 1_555 1_555
O1C Co1C 1_555 1_555
O2C P1C 1_555 1_555
O3C P1C 1_555 1_555
O4C C3C 1_555 1_555
O5C Co1 1_555 1_555
O6C C5C 1_555 1_555
O7C C5C 1_555 1_555
C1C P1C 1_555 1_555
H1C C1C 1_555 1_555
H2C C1C 1_555 1_555
C2C N1C 1_555 1_555
H3C C2C 1_555 1_555
H4C C2C 1_555 1_555
C3C O5C 1_555 1_555
C4C N1C 1_555 1_555
H5C C4C 1_555 1_555
H6C C4C 1_555 1_555
C5C C4C 1_555 1_555
N2C C6C 1_555 1_555
N3C Co1 1_555 1_555
C6C H7C 1_555 1_555
C7C C6C 1_555 1_555
H8C C7C 1_555 1_555
C8C C7C 1_555 1_555
C9C C8C 1_555 1_555
H9C C9C 1_555 1_555
C10C N2C 1_555 1_555
H10C C10C 1_555 1_555
C11C N3C 1_555 1_555
H11C C11C 1_555 1_555
C12C C11C 1_555 1_555
H12C C12C 1_555 1_555
C13C C8C 1_555 1_555
C14C C13C 1_555 1_555
H13C C14C 1_555 1_555
C15C N3C 1_555 1_555
H14C C15C 1_555 1_555
Co1C O9C 1_555 1_555
V1C N1C 1_555 1_555
O9C H15C 1_555 1_555
H16C O9C 1_555 1_555
O10C Co1C 1_555 1_555
H17C O10C 1_555 1_555
H18C O10C 1_555 1_555
O8C V1C 1_555 1_555
O2B V1 1_555 1_555
V1B O2 1_555 1_555
Co1C_2 O5 1_555 1_555
Co1C_3 N3 1_555 1_555
V1A O2C 1_555 1_555
Co1C_4 N2C 1_555 1_555
O5_2 Co1C 1_555 1_555
N2C_2 Co1C 1_555 1_555
N3_2 Co1C 1_555 1_555
O2A V1C 1_555 1_555
C18B C18 1_555 1_555
C17B C18B 1_555 1_555
C16B C17B 1_555 1_555
N4B C16B 1_555 1_555
C20B N4B 1_555 1_555
C19B C18B 1_555 1_555
H21B C19B 1_555 1_555
H22B C20B 1_555 1_555
H19B C16B 1_555 1_555
H20B C17B 1_555 1_555
P1 O3 1_555 1_555
C2 C3 1_555 1_555
C4 C5 1_555 1_555
C9 C10 1_555 1_555
C12 C13 1_555 1_555
C14 C15 1_555 1_555
C19 C20 1_555 1_555
O3C V1C 1_555 1_555
O4C V1C 1_555 1_555
O6C V1C 1_555 1_555
C2C C3C 1_555 1_555
C9C C10C 1_555 1_555
C12C C13C 1_555 1_555
C14C C15C 1_555 1_555
C20B C19B 1_555 1_555

#END
