
#######################################################################
#
#                 Cambridge Crystallographic Data Centre
#                                CCDC 
#
#######################################################################
#
# If this CIF has been generated from an entry in the Cambridge 
# Structural Database, then it will include bibliographic, chemical, 
# crystal, experimental, refinement or atomic coordinate data resulting 
# from the CCDC's data processing and validation procedures.
#
#######################################################################

data_NACYOG
_chemical_formula_moiety         '(C40 H46 Cd2 N8 O21 P2 V2)n'
_symmetry_cell_setting           monoclinic
_symmetry_space_group_name_H-M   'P 21/c'
_symmetry_Int_Tables_number      14
_space_group_name_Hall           '-P 2ybc'
loop_
_symmetry_equiv_pos_site_id
_symmetry_equiv_pos_as_xyz
1 x,y,z
2 -x,1/2+y,1/2-z
3 -x,-y,-z
4 x,1/2-y,1/2+z
_cell_length_a                   9.1267(18)
_cell_length_b                   17.610(4)
_cell_length_c                   15.361(3)
_cell_angle_alpha                90
_cell_angle_beta                 93.06(3)
_cell_angle_gamma                90
_cell_volume                     2465.32
loop_
_atom_site_label
_atom_site_type_symbol
_atom_site_fract_x
_atom_site_fract_y
_atom_site_fract_z
Cd1 Cd 0.82055(3) 0.243145(15) 0.634090(16)
V1 V 0.92997(6) 0.01176(3) 0.33242(4)
P1 P 0.95177(10) 0.10470(5) 0.50723(6)
N1 N 0.7242(3) 0.04732(17) 0.40745(19)
O1 O 0.9290(3) 0.18867(15) 0.52150(17)
O2 O 1.0491(3) 0.06978(15) 0.58080(17)
O3 O 1.0146(3) 0.08768(15) 0.41792(16)
O4 O 0.8451(3) 0.09997(16) 0.26091(17)
O5 O 0.6867(3) 0.19560(16) 0.24235(18)
O6 O 0.7642(3) -0.04750(16) 0.27391(17)
O7 O 0.5337(3) -0.08834(18) 0.2692(2)
O8 O 1.0631(3) -0.00637(17) 0.27033(18)
C1 C 0.7733(4) 0.0560(2) 0.5009(2)
H1 H 0.7826 0.0055 0.5289
H2 H 0.7004 0.0860 0.5318
C2 C 0.6694(4) 0.1198(2) 0.3693(2)
H3 H 0.6907 0.1612 0.4117
H4 H 0.5616 0.1165 0.3592
C3 C 0.7368(4) 0.1397(2) 0.2841(2)
C4 C 0.6180(4) -0.0151(2) 0.3925(2)
H5 H 0.5169 0.0050 0.3941
H6 H 0.6320 -0.0533 0.4396
C5 C 0.6380(4) -0.0530(2) 0.3047(2)
N2 N 0.6108(3) 0.25821(18) 0.5452(2)
N3 N 0.0160(4) 0.2681(2) 0.2322(2)
C6 C 0.4853(4) 0.2212(2) 0.5576(3)
H7 H 0.4781 0.1923 0.6094
C7 C 0.3659(4) 0.2232(2) 0.4984(3)
H8 H 0.2785 0.1965 0.5097
C8 C 0.3753(4) 0.2649(2) 0.4219(2)
C9 C 0.5050(4) 0.3040(2) 0.4090(3)
H9 H 0.5155 0.3332 0.3577
C10 C 0.6186(4) 0.2995(2) 0.4725(3)
H10 H 0.7061 0.3271 0.4640
C11 C -0.0055(4) 0.2740(2) 0.3173(3)
H11 H -0.1031 0.2793 0.3351
C12 C 0.1079(4) 0.2727(2) 0.3807(3)
H12 H 0.0880 0.2758 0.4406
C13 C 0.2509(4) 0.2667(2) 0.3556(3)
C14 C 0.2742(5) 0.2609(3) 0.2668(3)
H13 H 0.3708 0.2565 0.2472
C15 C 0.1545(5) 0.2618(3) 0.2079(3)
H14 H 0.1709 0.2578 0.1475
O9 O 0.8942(3) 0.36287(16) 0.59144(19)
H15 H 0.975(5) 0.376(3) 0.570(3)
H16 H 0.889(7) 0.386(4) 0.641(3)
O10 O 0.7419(3) 0.13004(17) 0.6980(2)
H17 H 0.805(4) 0.096(2) 0.708(3)
H18 H 0.660(4) 0.116(3) 0.716(4)
P1C P 0.95177(10) 0.39530(5) 1.00723(6)
N1C N 0.7242(3) 0.45268(17) 0.90745(19)
O1C O 0.9290(3) 0.31133(15) 1.02150(17)
O2C O 1.0491(3) 0.43022(15) 1.08080(17)
O3C O 1.0146(3) 0.41232(15) 0.91792(16)
O4C O 0.8451(3) 0.40003(16) 0.76091(17)
O5C O 0.6867(3) 0.30440(16) 0.74235(18)
O6C O 0.7642(3) 0.54750(16) 0.77391(17)
O7C O 0.5337(3) 0.58834(18) 0.7692(2)
C1C C 0.7733(4) 0.4440(2) 1.0009(2)
H1C H 0.7826 0.4945 1.0289
H2C H 0.7004 0.4140 1.0318
C2C C 0.6694(4) 0.3802(2) 0.8693(2)
H3C H 0.6907 0.3388 0.9117
H4C H 0.5616 0.3835 0.8592
C3C C 0.7368(4) 0.3603(2) 0.7841(2)
C4C C 0.6180(4) 0.5151(2) 0.8925(2)
H5C H 0.5169 0.4950 0.8941
H6C H 0.6320 0.5533 0.9396
C5C C 0.6380(4) 0.5530(2) 0.8047(2)
N2C N 1.6108(3) 0.24179(18) 1.0452(2)
N3C N 1.0160(4) 0.2319(2) 0.7322(2)
C6C C 1.4853(4) 0.2788(2) 1.0576(3)
H7C H 1.4781 0.3077 1.1094
C7C C 1.3659(4) 0.2768(2) 0.9984(3)
H8C H 1.2785 0.3035 1.0097
C8C C 1.3753(4) 0.2351(2) 0.9219(2)
C9C C 1.5050(4) 0.1960(2) 0.9090(3)
H9C H 1.5155 0.1668 0.8577
C10C C 1.6186(4) 0.2005(2) 0.9725(3)
H10C H 1.7061 0.1729 0.9640
C11C C 0.9945(4) 0.2260(2) 0.8173(3)
H11C H 0.8969 0.2207 0.8351
C12C C 1.1079(4) 0.2273(2) 0.8807(3)
H12C H 1.0880 0.2242 0.9406
C13C C 1.2509(4) 0.2333(2) 0.8556(3)
C14C C 1.2742(5) 0.2391(3) 0.7668(3)
H13C H 1.3708 0.2435 0.7472
C15C C 1.1545(5) 0.2382(3) 0.7079(3)
H14C H 1.1709 0.2422 0.6475
Cd1C Cd 0.82055(3) 0.256855(15) 1.134090(16)
V1C V 0.92997(6) 0.48824(3) 0.83242(4)
O9C O 0.8942(3) 0.13713(16) 1.09144(19)
H15C H 0.975(5) 0.124(3) 1.070(3)
H16C H 0.889(7) 0.114(4) 1.141(3)
O10C O 0.7419(3) 0.36996(17) 1.1980(2)
H17C H 0.805(4) 0.404(2) 1.208(3)
H18C H 0.660(4) 0.384(3) 1.216(4)
O8C O 1.0631(3) 0.50637(17) 0.77033(18)
O2B O 0.9509(3) -0.06978(15) 0.41920(17)
V1B V 1.07003(6) -0.01176(3) 0.66758(4)
Cd1C_2 Cd 0.82055(3) 0.256855(15) 0.134090(16)
Cd1C_3 Cd -0.17945(3) 0.256855(15) 0.134090(16)
V1A V 1.07003(6) 0.51176(3) 1.16758(4)
Cd1C_4 Cd 1.82055(3) 0.256855(15) 1.134090(16)
O5_2 O 0.6867(3) 0.19560(16) 1.24235(18)
N2C_2 N 0.6108(3) 0.24179(18) 1.0452(2)
N3_2 N 1.0160(4) 0.2681(2) 1.2322(2)
O2A O 0.9509(3) 0.56978(15) 0.91920(17)
N4 N 0.1524(3) 0.4197(2) 0.5370(2)
C16 C 0.2600(4) 0.4226(2) 0.60448(19)
H19 H 0.2401 0.4033 0.6604
C17 C 0.3966(4) 0.4536(2) 0.5901(2)
H20 H 0.4701 0.4556 0.6362
C18 C 0.4257(3) 0.4818(2) 0.5083(3)
C19 C 0.3181(4) 0.4789(2) 0.4408(2)
H21 H 0.3380 0.4982 0.3849
C20 C 0.1815(4) 0.4479(2) 0.4552(2)
H22 H 0.1080 0.4459 0.4091
C18B C 0.5743(3) 0.5182(2) 0.4917(3)
C17B C 0.6034(4) 0.5464(2) 0.4099(2)
C16B C 0.7400(4) 0.5774(2) 0.39552(19)
N4B N 0.8476(3) 0.5803(2) 0.4630(2)
C20B C 0.8185(4) 0.5521(2) 0.5448(2)
C19B C 0.6819(4) 0.5211(2) 0.5592(2)
H21B H 0.6620 0.5018 0.6151
H22B H 0.8920 0.5541 0.5909
H19B H 0.7599 0.5967 0.3396
H20B H 0.5299 0.5444 0.3638
O11 O 0.3013(7) 0.0869(4) 0.3428(4)
loop_
_geom_bond_atom_site_label_1
_geom_bond_atom_site_label_2
_geom_bond_site_symmetry_1
_geom_bond_site_symmetry_2
Cd1 O1 1_555 1_555
V1 N1 1_555 1_555
P1 O1 1_555 1_555
N1 C1 1_555 1_555
O2 P1 1_555 1_555
O3 V1 1_555 1_555
O4 V1 1_555 1_555
O5 C3 1_555 1_555
O6 V1 1_555 1_555
O7 C5 1_555 1_555
O8 V1 1_555 1_555
C1 P1 1_555 1_555
H1 C1 1_555 1_555
H2 C1 1_555 1_555
C2 N1 1_555 1_555
H3 C2 1_555 1_555
H4 C2 1_555 1_555
C3 O4 1_555 1_555
C4 N1 1_555 1_555
H5 C4 1_555 1_555
H6 C4 1_555 1_555
C5 O6 1_555 1_555
N2 Cd1 1_555 1_555
N3 C11 1_555 1_555
C6 N2 1_555 1_555
H7 C6 1_555 1_555
C7 C6 1_555 1_555
H8 C7 1_555 1_555
C8 C7 1_555 1_555
C9 C8 1_555 1_555
H9 C9 1_555 1_555
C10 N2 1_555 1_555
H10 C10 1_555 1_555
C11 H11 1_555 1_555
C12 C11 1_555 1_555
H12 C12 1_555 1_555
C13 C8 1_555 1_555
C14 C13 1_555 1_555
H13 C14 1_555 1_555
C15 N3 1_555 1_555
H14 C15 1_555 1_555
O9 Cd1 1_555 1_555
H15 O9 1_555 1_555
H16 O9 1_555 1_555
O10 Cd1 1_555 1_555
H17 O10 1_555 1_555
H18 O10 1_555 1_555
N4 C16 1_555 1_555
C16 H19 1_555 1_555
C17 C16 1_555 1_555
H20 C17 1_555 1_555
C18 C17 1_555 1_555
C19 C18 1_555 1_555
H21 C19 1_555 1_555
C20 N4 1_555 1_555
H22 C20 1_555 1_555
P1C O1C 1_555 1_555
N1C C1C 1_555 1_555
O1C Cd1C 1_555 1_555
O2C P1C 1_555 1_555
O3C P1C 1_555 1_555
O4C C3C 1_555 1_555
O5C Cd1 1_555 1_555
O6C C5C 1_555 1_555
O7C C5C 1_555 1_555
C1C P1C 1_555 1_555
H1C C1C 1_555 1_555
H2C C1C 1_555 1_555
C2C N1C 1_555 1_555
H3C C2C 1_555 1_555
H4C C2C 1_555 1_555
C3C O5C 1_555 1_555
C4C N1C 1_555 1_555
H5C C4C 1_555 1_555
H6C C4C 1_555 1_555
C5C C4C 1_555 1_555
N2C C6C 1_555 1_555
N3C Cd1 1_555 1_555
C6C H7C 1_555 1_555
C7C C6C 1_555 1_555
H8C C7C 1_555 1_555
C8C C7C 1_555 1_555
C9C C8C 1_555 1_555
H9C C9C 1_555 1_555
C10C N2C 1_555 1_555
H10C C10C 1_555 1_555
C11C N3C 1_555 1_555
H11C C11C 1_555 1_555
C12C C11C 1_555 1_555
H12C C12C 1_555 1_555
C13C C8C 1_555 1_555
C14C C13C 1_555 1_555
H13C C14C 1_555 1_555
C15C N3C 1_555 1_555
H14C C15C 1_555 1_555
Cd1C O9C 1_555 1_555
V1C N1C 1_555 1_555
O9C H15C 1_555 1_555
H16C O9C 1_555 1_555
O10C Cd1C 1_555 1_555
H17C O10C 1_555 1_555
H18C O10C 1_555 1_555
O8C V1C 1_555 1_555
O2B V1 1_555 1_555
V1B O2 1_555 1_555
Cd1C_2 O5 1_555 1_555
Cd1C_3 N3 1_555 1_555
V1A O2C 1_555 1_555
Cd1C_4 N2C 1_555 1_555
O5_2 Cd1C 1_555 1_555
N2C_2 Cd1C 1_555 1_555
N3_2 Cd1C 1_555 1_555
O2A V1C 1_555 1_555
C18B C18 1_555 1_555
C17B C18B 1_555 1_555
C16B C17B 1_555 1_555
N4B C16B 1_555 1_555
C20B N4B 1_555 1_555
C19B C18B 1_555 1_555
H21B C19B 1_555 1_555
H22B C20B 1_555 1_555
H19B C16B 1_555 1_555
H20B C17B 1_555 1_555
P1 O3 1_555 1_555
C2 C3 1_555 1_555
C4 C5 1_555 1_555
C9 C10 1_555 1_555
C12 C13 1_555 1_555
C14 C15 1_555 1_555
C19 C20 1_555 1_555
O3C V1C 1_555 1_555
O4C V1C 1_555 1_555
O6C V1C 1_555 1_555
C2C C3C 1_555 1_555
C9C C10C 1_555 1_555
C12C C13C 1_555 1_555
C14C C15C 1_555 1_555
C20B C19B 1_555 1_555

#END
