
#######################################################################
#
#                 Cambridge Crystallographic Data Centre
#                                CCDC 
#
#######################################################################
#
# If this CIF has been generated from an entry in the Cambridge 
# Structural Database, then it will include bibliographic, chemical, 
# crystal, experimental, refinement or atomic coordinate data resulting 
# from the CCDC's data processing and validation procedures.
#
#######################################################################

data_LUMQOB
_chemical_formula_moiety         '(C9 H6 Cl1 Cu1 N1 O3)n'
_symmetry_cell_setting           rhombohedral
_symmetry_space_group_name_H-M   'R -3'
_symmetry_Int_Tables_number      148
_space_group_name_Hall           '-R 3'
loop_
_symmetry_equiv_pos_site_id
_symmetry_equiv_pos_as_xyz
1 x,y,z
2 -y,x-y,z
3 -x+y,-x,z
4 2/3+x,1/3+y,1/3+z
5 2/3-y,1/3+x-y,1/3+z
6 2/3-x+y,1/3-x,1/3+z
7 1/3+x,2/3+y,2/3+z
8 1/3-y,2/3+x-y,2/3+z
9 1/3-x+y,2/3-x,2/3+z
10 -x,-y,-z
11 y,-x+y,-z
12 x-y,x,-z
13 1/3-x,2/3-y,2/3-z
14 1/3+y,2/3-x+y,2/3-z
15 1/3+x-y,2/3+x,2/3-z
16 2/3-x,1/3-y,1/3-z
17 2/3+y,1/3-x+y,1/3-z
18 2/3+x-y,1/3+x,1/3-z
_cell_length_a                   26.861(3)
_cell_length_b                   26.861(3)
_cell_length_c                   7.0282(15)
_cell_angle_alpha                90
_cell_angle_beta                 90
_cell_angle_gamma                120
_cell_volume                     4391.56
loop_
_atom_site_label
_atom_site_type_symbol
_atom_site_fract_x
_atom_site_fract_y
_atom_site_fract_z
_atom_site_U_iso_or_equiv
_atom_site_thermal_displace_type
Cu1 Cu 0.456900(19) 1.012217(19) 0.90457(6) 0.0222 Uani
Cl1 Cl 0.43863(6) 0.78895(6) 0.28119(19) 0.0616 Uani
O1 O 0.48793(10) 0.96099(11) 0.8778(3) 0.0234 Uani
N1 N 0.42709(13) 0.99801(12) 0.6497(4) 0.0218 Uani
C1 C 0.44606(15) 0.92148(15) 0.5725(5) 0.0225 Uani
C2 C 0.43583(16) 0.88056(16) 0.4281(5) 0.0289 Uani
H1 H 0.4201 0.8825 0.3124 0.0350 Uiso
O2 O 0.42974(12) 1.06646(12) 0.9127(4) 0.0338 Uani
C3 C 0.40493(17) 1.03576(17) 0.5922(5) 0.0283 Uani
H2 H 0.3656 1.0128 0.5480 0.0340 Uiso
H3 H 0.4279 1.0604 0.4886 0.0340 Uiso
C4 C 0.42646(15) 0.96167(15) 0.5304(5) 0.0236 Uani
H4 H 0.4125 0.9610 0.4088 0.0280 Uiso
C5 C 0.40713(16) 1.07209(16) 0.7600(5) 0.0268 Uani
C6 C 0.47144(18) 0.83428(18) 0.6333(6) 0.0390 Uani
H5 H 0.4785 0.8042 0.6558 0.0470 Uiso
C7 C 0.44903(18) 0.83824(18) 0.4588(6) 0.0366 Uani
C8 C 0.48322(18) 0.87489(17) 0.7726(6) 0.0334 Uani
H6 H 0.4983 0.8720 0.8884 0.0400 Uiso
C9 C 0.47284(14) 0.92027(15) 0.7426(5) 0.0217 Uani
O3 O 0.38689(13) 1.10410(13) 0.7465(4) 0.0403 Uani
Cu1G Cu 0.321116(19) 1.111350(27) 0.57124(6) 0.0222 Uani
Cu1I Cu 0.543100(19) 0.987783(19) 1.09543(6) 0.0222 Uani
O1I O 0.51207(10) 1.03901(11) 1.1222(3) 0.0234 Uani
O3E O 0.38388(18) 0.94644(13) 1.0798(4) 0.0403 Uani
loop_
_atom_site_aniso_label
_atom_site_aniso_U_11
_atom_site_aniso_U_22
_atom_site_aniso_U_33
_atom_site_aniso_U_23
_atom_site_aniso_U_13
_atom_site_aniso_U_12
Cu1 0.0245(3) 0.0308(3) 0.0183(2) -0.00160(18) -0.00382(17) 0.0191(2)
Cl1 0.0828(10) 0.0638(8) 0.0617(8) -0.0400(7) -0.0324(7) 0.0542(8)
O1 0.0257(13) 0.0299(14) 0.0211(12) -0.0049(10) -0.0060(10) 0.0188(12)
N1 0.0235(16) 0.0284(17) 0.0191(15) 0.0010(12) 0.0002(12) 0.0171(14)
C1 0.0199(18) 0.0248(19) 0.0220(17) -0.0025(14) 0.0000(14) 0.0106(15)
C2 0.029(2) 0.036(2) 0.0255(19) -0.0090(16) -0.0062(16) 0.0192(18)
O2 0.0468(17) 0.0489(18) 0.0251(14) -0.0109(12) -0.0143(12) 0.0384(15)
C3 0.036(2) 0.035(2) 0.0257(19) -0.0004(16) -0.0054(16) 0.0265(19)
C4 0.0203(18) 0.029(2) 0.0200(17) -0.0004(14) -0.0021(14) 0.0113(16)
C5 0.0263(19) 0.030(2) 0.028(2) -0.0016(15) -0.0038(15) 0.0171(17)
C6 0.045(3) 0.034(2) 0.049(3) -0.0105(19) -0.016(2) 0.028(2)
C7 0.036(2) 0.035(2) 0.043(2) -0.0174(19) -0.0126(19) 0.021(2)
C8 0.038(2) 0.035(2) 0.033(2) -0.0087(17) -0.0132(17) 0.0227(19)
C9 0.0181(17) 0.0258(19) 0.0221(17) -0.0021(14) -0.0012(13) 0.0116(15)
O3 0.060(2) 0.0498(19) 0.0333(16) -0.0102(13) -0.0170(14) 0.0440(17)
Cu1G 0.0308 0.0171 0.0183 -0.00222 0.0016 0.0117
Cu1I 0.0245 0.0308 0.0183 -0.0016 -0.00382 0.0191
O1I 0.0257 0.0299 0.0211 -0.0049 -0.006 0.0188
O3E 0.0218 0.06 0.0333 0.017 0.0068 0.016
loop_
_geom_bond_atom_site_label_1
_geom_bond_atom_site_label_2
_geom_bond_site_symmetry_1
_geom_bond_site_symmetry_2
Cu1 O1 1_555 1_555
Cl1 C7 1_555 1_555
O1 C9 1_555 1_555
N1 Cu1 1_555 1_555
C1 C2 1_555 1_555
C2 H1 1_555 1_555
O2 Cu1 1_555 1_555
C3 N1 1_555 1_555
H2 C3 1_555 1_555
H3 C3 1_555 1_555
C4 N1 1_555 1_555
H4 C4 1_555 1_555
C5 O2 1_555 1_555
C6 H5 1_555 1_555
C7 C2 1_555 1_555
C8 C6 1_555 1_555
H6 C8 1_555 1_555
C9 C1 1_555 1_555
O3 C5 1_555 1_555
Cu1G O3 1_555 1_555
Cu1I O1 1_555 1_555
O1I Cu1 1_555 1_555
O3E Cu1 1_555 1_555
C1 C4 1_555 1_555
C3 C5 1_555 1_555
C6 C7 1_555 1_555
C8 C9 1_555 1_555
Cu1I O1I 1_555 1_555

#END
