
#######################################################################
#
#                 Cambridge Crystallographic Data Centre
#                                CCDC 
#
#######################################################################
#
# If this CIF has been generated from an entry in the Cambridge 
# Structural Database, then it will include bibliographic, chemical, 
# crystal, experimental, refinement or atomic coordinate data resulting 
# from the CCDC's data processing and validation procedures.
#
#######################################################################

data_FERVUV
_chemical_formula_moiety         'C50 H24 Ag8 Fe8 N29'
_symmetry_cell_setting           rhombohedral
_symmetry_space_group_name_H-M   'R -3 m'
_symmetry_Int_Tables_number      166
_space_group_name_Hall           '-R 3 2"'
loop_
_symmetry_equiv_pos_site_id
_symmetry_equiv_pos_as_xyz
1 x,y,z
2 -y,x-y,z
3 -x+y,-x,z
4 x-y,-y,-z
5 -x,-x+y,-z
6 y,x,-z
7 2/3+x,1/3+y,1/3+z
8 2/3-y,1/3+x-y,1/3+z
9 2/3-x+y,1/3-x,1/3+z
10 2/3+x-y,1/3-y,1/3-z
11 2/3-x,1/3-x+y,1/3-z
12 2/3+y,1/3+x,1/3-z
13 1/3+x,2/3+y,2/3+z
14 1/3-y,2/3+x-y,2/3+z
15 1/3-x+y,2/3-x,2/3+z
16 1/3+x-y,2/3-y,2/3-z
17 1/3-x,2/3-x+y,2/3-z
18 1/3+y,2/3+x,2/3-z
19 -x,-y,-z
20 y,-x+y,-z
21 x-y,x,-z
22 -x+y,y,z
23 x,x-y,z
24 -y,-x,z
25 1/3-x,2/3-y,2/3-z
26 1/3+y,2/3-x+y,2/3-z
27 1/3+x-y,2/3+x,2/3-z
28 1/3-x+y,2/3+y,2/3+z
29 1/3+x,2/3+x-y,2/3+z
30 1/3-y,2/3-x,2/3+z
31 2/3-x,1/3-y,1/3-z
32 2/3+y,1/3-x+y,1/3-z
33 2/3+x-y,1/3+x,1/3-z
34 2/3-x+y,1/3+y,1/3+z
35 2/3+x,1/3+x-y,1/3+z
36 2/3-y,1/3-x,1/3+z
_cell_length_a                   26.242(2)
_cell_length_b                   26.242(2)
_cell_length_c                   9.5644(13)
_cell_angle_alpha                90
_cell_angle_beta                 90
_cell_angle_gamma                120
_cell_volume                     5704.04
loop_
_atom_site_label
_atom_site_type_symbol
_atom_site_fract_x
_atom_site_fract_y
_atom_site_fract_z
Ag1 Ag 0.29860(4) 0.29860(4) 0.5000
Fe1 Fe 0.3333 0.1667 0.1667
N1 N 0.4210(3) 0.21048(16) 0.1733(8)
N2 N 0.3317(2) 0.2188(2) 0.3076(7)
N3 N 0.63614(18) 0.36386(18) 0.1654(8)
C1 C 0.4512(3) 0.2700(3) 0.1735(8)
H1 H 0.4304 0.2901 0.1751
C2 C 0.5127(3) 0.3022(3) 0.1713(8)
H2 H 0.5326 0.3431 0.1705
C3 C 0.5438(4) 0.27191(18) 0.1702(12)
C4 C 0.6089(4) 0.30445(19) 0.1645(10)
C5 C 0.3269(4) 0.2516(3) 0.3815(8)
N1A N 0.78952(16) 0.21052(34) 0.1733(8)
N3A N 0.63614(18) 0.27228(25) 0.1654(8)
C1A C 0.7300(3) 0.1812(4) 0.1735(8)
H1A H 0.7099 0.1403 0.1751
C2A C 0.6978(3) 0.2105(4) 0.1713(8)
H2A H 0.6569 0.1895 0.1705
C3A C 0.72809(18) 0.27189(44) 0.1702(12)
C4A C 0.69555(19) 0.30445(44) 0.1645(10)
N1B N 0.78948(34) 0.5790(3) 0.1733(8)
N3B N 0.72772(25) 0.36386(18) 0.1654(8)
C1B C 0.8188(4) 0.5488(3) 0.1735(8)
H1B H 0.8597 0.5696 0.1751
C2B C 0.7895(4) 0.4873(3) 0.1713(8)
H2B H 0.8105 0.4674 0.1705
C3B C 0.72811(44) 0.4562(4) 0.1702(12)
C4B C 0.69555(44) 0.3911(4) 0.1645(10)
C1U C 0.8188(4) 0.2700(3) 0.1735(8)
H1U H 0.8597 0.2901 0.1751
C2U C 0.7895(4) 0.3022(3) 0.1713(8)
H2U H 0.8105 0.3431 0.1705
C1V C 0.4512(3) 0.1812(4) 0.1735(8)
H1V H 0.4304 0.1403 0.1751
C2V C 0.5127(3) 0.2105(4) 0.1713(8)
H2V H 0.5326 0.1895 0.1705
C1W C 0.7300(3) 0.5488(3) 0.1735(8)
H1W H 0.7099 0.5696 0.1751
C2W C 0.6978(3) 0.4873(3) 0.1713(8)
H2W H 0.6569 0.4674 0.1705
Fe1A Fe 0.8333 0.1666 0.1667
N2A N 0.7812(2) 0.1129(3) 0.3076(7)
C5A C 0.7484(3) 0.0753(5) 0.3815(8)
N2E N 0.2188(2) 0.3317(2) 0.6924(7)
C5E C 0.2516(3) 0.3269(4) 0.6185(8)
N2J N 0.3350(2) 0.2204(3) 0.0257(7)
C5J C 0.3398(4) 0.2580(5) -0.0482(8)
Ag1T Ag 1.00000(6) 0.29860(4) 0.5000
N2U N 0.8871(3) 0.2188(2) 0.3076(7)
C5U C 0.9247(5) 0.2516(3) 0.3815(8)
Ag1S Ag 0.29860(4) 0.00000(6) 0.5000
N2V N 0.3317(2) 0.1129(3) 0.3076(7)
C5V C 0.3269(4) 0.0753(5) 0.3815(8)
N1J N 0.2457(3) 0.12281(34) 0.1600(8)
N3J N 0.03053(18) 0.06105(25) 0.1679(8)
C1J C 0.2155(3) 0.1521(4) 0.1598(8)
H1J H 0.2363 0.1930 0.1582
C2J C 0.1540(3) 0.1228(4) 0.1620(8)
H2J H 0.1341 0.1438 0.1628
C3J C 0.1229(4) 0.06144(44) 0.1631(12)
C4J C 0.0578(4) 0.02888(44) 0.1688(10)
N1K N -0.12285(16) -0.2457(3) 0.1600(8)
N3K N 0.03053(18) -0.03053(18) 0.1679(8)
C1K C -0.0633(3) -0.2155(3) 0.1598(8)
H1K H -0.0432 -0.2363 0.1582
C2K C -0.0311(3) -0.1540(3) 0.1620(8)
H2K H 0.0098 -0.1341 0.1628
C3K C -0.06142(18) -0.1229(4) 0.1631(12)
C4K C -0.02888(19) -0.0578(4) 0.1688(10)
N1I N -0.12281(34) 0.12285(16) 0.1600(8)
N3I N -0.06105(25) -0.03053(18) 0.1679(8)
C1I C -0.1521(4) 0.0633(3) 0.1598(8)
H1I H -0.1930 0.0432 0.1582
C2I C -0.1228(4) 0.0311(3) 0.1620(8)
H2I H -0.1438 -0.0098 0.1628
C3I C -0.06144(44) 0.06142(18) 0.1631(12)
C4I C -0.02888(44) 0.02888(19) 0.1688(10)
C1FA C -0.1521(4) -0.2155(3) 0.1598(8)
H1FA H -0.1930 -0.2363 0.1582
C2FA C -0.1228(4) -0.1540(3) 0.1620(8)
H2FA H -0.1438 -0.1341 0.1628
C1DA C 0.2155(3) 0.0633(3) 0.1598(8)
H1DA H 0.2363 0.0432 0.1582
C2DA C 0.1540(3) 0.0311(3) 0.1620(8)
H2DA H 0.1341 -0.0098 0.1628
C1EA C -0.0633(3) 0.1521(4) 0.1598(8)
H1EA H -0.0432 0.1930 0.1582
C2EA C -0.0311(3) 0.1228(4) 0.1620(8)
H2EA H 0.0098 0.1438 0.1628
Ag1DA Ag 0.36807(4) 0.03473(4) -0.1667
N2DA N 0.3350(2) 0.1145(2) 0.0257(7)
C5DA C 0.3398(4) 0.0817(3) -0.0482(8)
N2IA N 0.4479(2) 0.0016(2) -0.3591(7)
C5IA C 0.4151(3) 0.0064(4) -0.2852(8)
Ag1G Ag 0.36807(4) 0.33333(6) -0.1667
Ag1EA Ag 0.96527(4) 0.33333(6) -0.1667
N2EA N 0.8855(2) 0.2204(3) 0.0257(7)
C5EA C 0.9183(3) 0.2580(5) -0.0482(8)
N2I N 0.7796(3) 0.1145(2) 0.0257(7)
C5I C 0.7420(5) 0.0817(3) -0.0482(8)
N2T N 1.1129(3) 0.3317(2) 0.6924(7)
C5T C 1.0753(5) 0.3269(4) 0.6185(8)
Fe1B Fe 0.8334 0.6667 0.1667
Ag1A Ag 0.70140(4) 0.00000(6) 0.5000
Ag1H Ag 0.66667(6) 0.03473(4) -0.1667
Fe1A_2 Fe -0.1667 0.1666 0.1667
Fe1B_2 Fe -0.1666 -0.3333 0.1667
Fe1E Fe 0.1667 0.3333 0.8333
Fe1E_2 Fe 1.1667 0.3333 0.8333
Fe1H Fe 0.5001 0.0000 -0.5000
N1I_2 N 0.87719(34) 0.12285(16) 0.1600(8)
N1K_2 N 0.87715(16) 0.7543(3) 0.1600(8)
N2B N 0.8871(3) 0.6683(2) 0.3076(7)
N2K N 0.8855(2) 0.6650(2) 0.0257(7)
N2W N 0.7812(2) 0.6683(2) 0.3076(7)
N2FA N 0.7796(3) 0.6650(2) 0.0257(7)
C5G C 0.4151(3) 0.4086(5) -0.2852(8)
C5S C 0.2516(3) -0.0753(5) 0.6185(8)
C5HA C 0.9936(4) 0.4086(5) -0.2852(8)
loop_
_geom_bond_atom_site_label_1
_geom_bond_atom_site_label_2
_geom_bond_site_symmetry_1
_geom_bond_site_symmetry_2
Ag1 C5 1_555 1_555
Fe1 N1 1_555 1_555
N1 C1 1_555 1_555
N2 Fe1 1_555 1_555
N3 C4 1_555 1_555
C1 H1 1_555 1_555
C2 C1 1_555 1_555
H2 C2 1_555 1_555
C3 C2 1_555 1_555
C4 C3 1_555 1_555
C5 N2 1_555 1_555
N1A C1A 1_555 1_555
N3A C4 1_555 1_555
C1A H1A 1_555 1_555
C2A C1A 1_555 1_555
H2A C2A 1_555 1_555
C3A C2A 1_555 1_555
C4A N3A 1_555 1_555
N1B C1B 1_555 1_555
N3B C4A 1_555 1_555
C1B H1B 1_555 1_555
C2B C1B 1_555 1_555
H2B C2B 1_555 1_555
C3B C2B 1_555 1_555
C4B N3 1_555 1_555
C1U N1A 1_555 1_555
H1U C1U 1_555 1_555
C2U C3A 1_555 1_555
H2U C2U 1_555 1_555
C1V N1 1_555 1_555
H1V C1V 1_555 1_555
C2V C3 1_555 1_555
H2V C2V 1_555 1_555
C1W N1B 1_555 1_555
H1W C1W 1_555 1_555
C2W C3B 1_555 1_555
H2W C2W 1_555 1_555
Fe1A N1A 1_555 1_555
N2A Fe1A 1_555 1_555
C5A N2A 1_555 1_555
N2E C5E 1_555 1_555
C5E Ag1 1_555 1_555
N2J Fe1 1_555 1_555
C5J N2J 1_555 1_555
Ag1T C5U 1_555 1_555
N2U Fe1A 1_555 1_555
C5U N2U 1_555 1_555
Ag1S C5V 1_555 1_555
N2V Fe1 1_555 1_555
C5V N2V 1_555 1_555
N1J Fe1 1_555 1_555
N3J C4J 1_555 1_555
C1J N1J 1_555 1_555
H1J C1J 1_555 1_555
C2J C1J 1_555 1_555
H2J C2J 1_555 1_555
C3J C2J 1_555 1_555
C4J C3J 1_555 1_555
N1K C1K 1_555 1_555
N3K C4J 1_555 1_555
C1K H1K 1_555 1_555
C2K C1K 1_555 1_555
H2K C2K 1_555 1_555
C3K C2K 1_555 1_555
C4K N3K 1_555 1_555
N1I C1I 1_555 1_555
N3I C4K 1_555 1_555
C1I H1I 1_555 1_555
C2I C1I 1_555 1_555
H2I C2I 1_555 1_555
C3I C2I 1_555 1_555
C4I N3J 1_555 1_555
C1FA N1K 1_555 1_555
H1FA C1FA 1_555 1_555
C2FA C3K 1_555 1_555
H2FA C2FA 1_555 1_555
C1DA N1J 1_555 1_555
H1DA C1DA 1_555 1_555
C2DA C3J 1_555 1_555
H2DA C2DA 1_555 1_555
C1EA N1I 1_555 1_555
H1EA C1EA 1_555 1_555
C2EA C3I 1_555 1_555
H2EA C2EA 1_555 1_555
Ag1DA C5DA 1_555 1_555
N2DA Fe1 1_555 1_555
C5DA N2DA 1_555 1_555
N2IA C5IA 1_555 1_555
C5IA Ag1DA 1_555 1_555
Ag1G C5J 1_555 1_555
Ag1EA C5EA 1_555 1_555
N2EA Fe1A 1_555 1_555
C5EA N2EA 1_555 1_555
N2I Fe1A 1_555 1_555
C5I N2I 1_555 1_555
N2T C5T 1_555 1_555
C5T Ag1T 1_555 1_555
Fe1B N1B 1_555 1_555
Ag1A C5A 1_555 1_555
Ag1H C5I 1_555 1_555
Fe1A_2 N1I 1_555 1_555
Fe1B_2 N1K 1_555 1_555
Fe1E N2E 1_555 1_555
Fe1E_2 N2T 1_555 1_555
Fe1H N2IA 1_555 1_555
N1I_2 Fe1A 1_555 1_555
N1K_2 Fe1B 1_555 1_555
N2B Fe1B 1_555 1_555
N2K Fe1B 1_555 1_555
N2W Fe1B 1_555 1_555
N2FA Fe1B 1_555 1_555
C5G Ag1G 1_555 1_555
C5S Ag1S 1_555 1_555
C5HA Ag1EA 1_555 1_555
C3A C4A 1_555 1_555
N3B C4B 1_555 1_555
C3B C4B 1_555 1_555
C1U C2U 1_555 1_555
C1V C2V 1_555 1_555
C1W C2W 1_555 1_555
C3K C4K 1_555 1_555
N3I C4I 1_555 1_555
C3I C4I 1_555 1_555
C1FA C2FA 1_555 1_555
C1DA C2DA 1_555 1_555
C1EA C2EA 1_555 1_555

#END
