
#######################################################################
#
#                 Cambridge Crystallographic Data Centre
#                                CCDC 
#
#######################################################################
#
# If this CIF has been generated from an entry in the Cambridge 
# Structural Database, then it will include bibliographic, chemical, 
# crystal, experimental, refinement or atomic coordinate data resulting 
# from the CCDC's data processing and validation procedures.
#
#######################################################################

data_RUZDAS
_chemical_formula_moiety         '(C6 H20 Mn2 N2 O12 P2)n'
_symmetry_cell_setting           monoclinic
_symmetry_space_group_name_H-M   'P 21/n'
_symmetry_Int_Tables_number      14
_space_group_name_Hall           '-P 2yn'
loop_
_symmetry_equiv_pos_site_id
_symmetry_equiv_pos_as_xyz
1 x,y,z
2 1/2-x,1/2+y,1/2-z
3 -x,-y,-z
4 1/2+x,1/2-y,1/2+z
_cell_length_a                   5.616(3)
_cell_length_b                   15.431(3)
_cell_length_c                   9.445(3)
_cell_angle_alpha                90
_cell_angle_beta                 91.72(2)
_cell_angle_gamma                90
_cell_volume                     818.14
loop_
_atom_site_label
_atom_site_type_symbol
_atom_site_fract_x
_atom_site_fract_y
_atom_site_fract_z
Mn1 Mn 0.21529(5) 0.668262(19) 0.55653(3)
P1 P -0.29257(8) 0.69725(3) 0.35161(5)
H1 H -0.29007(11) 0.604(3) 0.34803(12)
O1 O -0.3370(2) 0.72749(10) 0.19952(15)
O2 O -0.4931(2) 0.72322(9) 0.44733(15)
O3 O -0.0463(2) 0.72566(10) 0.40694(15)
O4 O 0.2345(2) 0.55257(10) 0.41746(16)
O5 O 0.0674(2) 0.42317(9) 0.37042(15)
O6 O 0.4822(3) 0.62333(12) 0.72732(18)
H2 H 0.610(6) 0.607(2) 0.703(3)
H3 H 0.507(6) 0.660(2) 0.783(4)
C1 C 0.0871(3) 0.49322(13) 0.4389(2)
Mn1B Mn -0.21529(5) 0.331738(19) 0.44347(3)
Mn1_2 Mn -0.78471(5) 0.668262(19) 0.55653(3)
Mn1A Mn 0.28471(5) 0.168262(19) 0.94347(3)
Mn1B_2 Mn 0.78471(5) 0.331738(19) 0.44347(3)
Mn1C Mn -0.28471(5) 0.831738(19) 0.05653(3)
P1B P 0.29257(8) 0.30275(3) 0.64839(5)
H1B H 0.29007(11) 0.396(3) 0.65197(12)
O1B O 0.3370(2) 0.27251(10) 0.80048(15)
O1A O -0.1630(2) 0.22749(10) 0.30048(15)
O1C O 0.1630(2) 0.77251(10) 0.69952(15)
O2B O 0.4931(2) 0.27678(9) 0.55267(15)
O2_2 O 0.5069(2) 0.72322(9) 0.44733(15)
O2B_2 O -0.5069(2) 0.27678(9) 0.55267(15)
O3B O 0.0463(2) 0.27434(10) 0.59306(15)
O4B O -0.2345(2) 0.44743(10) 0.58254(16)
O5B O -0.0674(2) 0.57683(9) 0.62958(15)
O6B O -0.4822(3) 0.37667(12) 0.27268(18)
H2B H -0.610(6) 0.393(2) 0.297(3)
H3B H -0.507(6) 0.340(2) 0.217(4)
C1B C -0.0871(3) 0.50678(13) 0.5611(2)
N1 N -0.2839(3) 0.83504(12) 0.64351(19)
H4 H -0.1389 0.8142 0.6633
H5 H -0.3623 0.7986 0.5859
H6 H -0.3626 0.8409 0.7233
C2 C -0.2638(4) 0.92044(15) 0.5737(2)
H7 H -0.1761 0.9143 0.4873
H8 H -0.1765 0.9600 0.6358
C3 C -0.5095(4) 0.95721(15) 0.5388(3)
H9 H -0.5993 0.9163 0.4803
H10 H -0.5943 0.9658 0.6257
N1B N -0.7161(3) 1.16496(12) 0.35649(19)
H4B H -0.8611 1.1858 0.3367
H5B H -0.6377 1.2014 0.4141
H6B H -0.6374 1.1591 0.2767
C2B C -0.7362(4) 1.07956(15) 0.4263(2)
H7B H -0.8239 1.0857 0.5127
H8B H -0.8235 1.0400 0.3642
C3B C -0.4905(4) 1.04279(15) 0.4612(3)
H9B H -0.4007 1.0837 0.5197
H10B H -0.4057 1.0342 0.3743
loop_
_geom_bond_atom_site_label_1
_geom_bond_atom_site_label_2
_geom_bond_site_symmetry_1
_geom_bond_site_symmetry_2
Mn1 O3 1_555 1_555
P1 H1 1_555 1_555
O1 P1 1_555 1_555
O2 P1 1_555 1_555
O3 P1 1_555 1_555
O4 Mn1 1_555 1_555
O5 C1 1_555 1_555
O6 Mn1 1_555 1_555
H2 O6 1_555 1_555
H3 O6 1_555 1_555
N1 H4 1_555 1_555
H5 N1 1_555 1_555
H6 N1 1_555 1_555
C1 O4 1_555 1_555
C2 N1 1_555 1_555
H7 C2 1_555 1_555
H8 C2 1_555 1_555
C3 C2 1_555 1_555
H9 C3 1_555 1_555
H10 C3 1_555 1_555
Mn1B O5 1_555 1_555
Mn1_2 O2 1_555 1_555
Mn1A O1B 1_555 1_555
Mn1B_2 O2B 1_555 1_555
Mn1C O1 1_555 1_555
P1B H1B 1_555 1_555
O1B P1B 1_555 1_555
O1A Mn1B 1_555 1_555
O1C Mn1 1_555 1_555
O2B P1B 1_555 1_555
O2_2 Mn1 1_555 1_555
O2B_2 Mn1B 1_555 1_555
O3B Mn1B 1_555 1_555
O4B Mn1B 1_555 1_555
O5B Mn1 1_555 1_555
O6B Mn1B 1_555 1_555
H2B O6B 1_555 1_555
H3B O6B 1_555 1_555
N1B H4B 1_555 1_555
H5B N1B 1_555 1_555
H6B N1B 1_555 1_555
C1B C1 1_555 1_555
C2B N1B 1_555 1_555
H7B C2B 1_555 1_555
H8B C2B 1_555 1_555
C3B C3 1_555 1_555
H9B C3B 1_555 1_555
H10B C3B 1_555 1_555
P1B O3B 1_555 1_555
O4B C1B 1_555 1_555
O5B C1B 1_555 1_555
C2B C3B 1_555 1_555

#END
