
#######################################################################
#
#                 Cambridge Crystallographic Data Centre
#                                CCDC 
#
#######################################################################
#
# If this CIF has been generated from an entry in the Cambridge 
# Structural Database, then it will include bibliographic, chemical, 
# crystal, experimental, refinement or atomic coordinate data resulting 
# from the CCDC's data processing and validation procedures.
#
#######################################################################

data_RAKPEZ
_chemical_formula_moiety         '(C18 H42 Cl1 La2 N6 O18 P6)n'
_symmetry_cell_setting           monoclinic
_symmetry_space_group_name_H-M   'C c'
_symmetry_Int_Tables_number      9
_space_group_name_Hall           'C -2yc'
loop_
_symmetry_equiv_pos_site_id
_symmetry_equiv_pos_as_xyz
1 x,y,z
2 x,-y,1/2+z
3 1/2+x,1/2+y,z
4 1/2+x,1/2-y,1/2+z
_cell_length_a                   6.0394(12)
_cell_length_b                   26.524(5)
_cell_length_c                   23.431(5)
_cell_angle_alpha                90
_cell_angle_beta                 93.71(3)
_cell_angle_gamma                90
_cell_volume                     3745.52
loop_
_atom_site_label
_atom_site_type_symbol
_atom_site_fract_x
_atom_site_fract_y
_atom_site_fract_z
La1 La 0.75400(17) 0.80541(4) 0.94478(6)
La2 La -0.25320(16) 0.77503(4) 0.55484(5)
P1 P -0.1145(10) 0.8989(2) 0.6244(3)
P2 P 1.2608(10) 0.86030(18) 1.0223(2)
P3 P 0.7850(10) 0.76698(18) 1.1070(2)
P4 P 1.2315(9) 1.17240(18) 0.9819(2)
P5 P 0.7157(9) 0.73626(18) 1.3932(2)
P6 P 0.6042(10) 0.9325(2) 0.8843(3)
O1 O -0.240(2) 0.8511(5) 0.6181(6)
O2 O -0.082(3) 0.9339(5) 0.5748(6)
O3 O -0.226(3) 0.9279(5) 0.6739(6)
O4 O 1.036(3) 0.8633(5) 0.9843(6)
O5 O 1.271(3) 0.8188(5) 1.0676(6)
O6 O 1.473(3) 0.8620(5) 0.9879(6)
O7 O 0.576(3) 0.7406(6) 1.1258(7)
O8 O 0.994(3) 0.7428(5) 1.1328(6)
O9 O 0.783(3) 0.7743(5) 1.0439(6)
O10 O 1.459(3) 1.1694(5) 1.0168(7)
O11 O 1.037(3) 1.1717(5) 1.0191(6)
O12 O 1.220(3) 1.2114(5) 0.9360(7)
O13 O 0.919(2) 0.7088(4) 1.3730(5)
O14 O 0.496(3) 0.7115(6) 1.3686(7)
O15 O 0.712(3) 0.7374(5) 1.4601(6)
O16 O 0.700(4) 0.9674(8) 0.8414(9)
O17 O 0.577(4) 0.9600(8) 0.9379(10)
O18 O 0.723(3) 0.8840(6) 0.8877(7)
C1 C 0.170(4) 0.8857(7) 0.6517(9)
H1 H 0.2297 0.9155 0.6712
H2 H 0.2593 0.8792 0.6195
C2 C 0.428(4) 0.8384(7) 0.7209(9)
H3 H 0.4560 0.8059 0.7388
H4 H 0.5329 0.8427 0.6915
C3 C 0.464(4) 0.8798(7) 0.7654(9)
H5 H 0.4459 0.9124 0.7469
H6 H 0.6140 0.8778 0.7826
C4 C 0.072(4) 0.8757(8) 0.7852(9)
H7 H -0.0300 0.8701 0.8149
H8 H 0.0386 0.9085 0.7683
C5 C 0.037(4) 0.8351(7) 0.7395(9)
H9 H -0.1136 0.8372 0.7227
H10 H 0.0557 0.8022 0.7573
C6 C 1.274(4) 0.9208(7) 1.0625(9)
H11 H 1.1420 0.9241 1.0839
H12 H 1.4019 0.9205 1.0897
C7 C 1.386(4) 1.0110(7) 1.0539(9)
H13 H 1.5327 1.0028 1.0709
H14 H 1.2934 1.0203 1.0844
C8 C 1.404(4) 1.0557(8) 1.0125(10)
H15 H 1.4679 1.0846 1.0329
H16 H 1.5006 1.0468 0.9825
C9 C 1.079(4) 1.0221(8) 0.9550(10)
H17 H 0.9310 1.0299 0.9388
H18 H 1.1698 1.0131 0.9239
C10 C 1.067(4) 0.9782(8) 0.9954(10)
H19 H 0.9675 0.9864 1.0249
H20 H 1.0072 0.9491 0.9746
C11 C 0.771(5) 0.8320(9) 1.1308(11)
H21 H 0.8988 0.8497 1.1178
H22 H 0.6401 0.8472 1.1115
C12 C 0.563(5) 0.8215(11) 1.2146(14)
H23 H 0.5575 0.7855 1.2072
H24 H 0.4360 0.8367 1.1937
C13 C 0.543(5) 0.8310(11) 1.2826(12)
H25 H 0.5467 0.8667 1.2916
H26 H 0.4084 0.8164 1.2957
C14 C 0.941(7) 0.8297(15) 1.2929(16)
H27 H 1.0675 0.8121 1.3112
H28 H 0.9451 0.8645 1.3055
C15 C 0.947(7) 0.8268(14) 1.2276(16)
H29 H 1.0709 0.8470 1.2168
H30 H 0.9790 0.7921 1.2179
C16 C 1.189(4) 1.1115(7) 0.9438(10)
H31 H 1.0524 1.1127 0.9198
H32 H 1.3106 1.1056 0.9195
C17 C 0.718(5) 0.8006(9) 1.3704(11)
H33 H 0.8423 0.8178 1.3902
H34 H 0.5830 0.8169 1.3810
C18 C 0.311(4) 0.9184(8) 0.8541(10)
H35 H 0.2195 0.9096 0.8852
H36 H 0.2484 0.9484 0.8358
N1 N 0.194(3) 0.8399(6) 0.6938(8)
H37 H 0.1766 0.8116 0.6719
N2 N 0.304(3) 0.8755(6) 0.8109(7)
H38 H 0.3289 0.8459 0.8299
N3 N 1.289(3) 0.9651(6) 1.0228(8)
H39 H 1.3795 0.9565 0.9949
N4 N 1.178(3) 1.0689(6) 0.9866(8)
H40 H 1.0896 1.0781 1.0148
N5 N 0.762(4) 0.8416(8) 1.1934(9)
H41 H 0.7523 0.8756 1.1973
N6 N 0.736(4) 0.8059(7) 1.3073(9)
H42 H 0.7353 0.7742 1.2924
La1_2 La 1.75400(17) 0.80541(4) 0.94478(6)
La1B La 1.25400(17) 1.30541(4) 0.94478(6)
La1C La 1.25400(17) 0.69459(4) 1.44478(6)
La1C_2 La 0.25400(17) 0.69459(4) 1.44478(6)
La2C La 1.24680(16) 0.72497(4) 1.05484(5)
La2C_2 La 0.24680(16) 0.72497(4) 1.05484(5)
La2A La 1.74680(16) 1.22497(4) 1.05484(5)
La2A_2 La 0.74680(16) 1.22497(4) 1.05484(5)
La2_2 La 0.74680(16) 0.77503(4) 1.55484(5)
O5C O -0.229(3) 0.6812(5) 0.5676(6)
O6_2 O 0.473(3) 0.8620(5) 0.9879(6)
O7C O 0.076(3) 0.7594(6) 0.6258(7)
O8C O -0.506(3) 0.7572(5) 0.6328(6)
O10A O -0.541(3) 0.8306(5) 0.5168(7)
O11A O 0.037(3) 0.8283(5) 0.5191(6)
O12B O 0.720(3) 0.7114(5) 0.9360(7)
O13C O 0.419(2) 0.7912(4) 0.8730(5)
O14C O 0.996(3) 0.7885(6) 0.8686(7)
O15C O 1.212(3) 0.7626(5) 0.9601(6)
O15_2 O -0.288(3) 0.7374(5) 0.4601(6)
Cl1 Cl 0.7693(18) 0.9567(4) 1.1746(4)
loop_
_geom_bond_atom_site_label_1
_geom_bond_atom_site_label_2
_geom_bond_site_symmetry_1
_geom_bond_site_symmetry_2
La1 O4 1_555 1_555
La2 O1 1_555 1_555
P1 O1 1_555 1_555
P2 O4 1_555 1_555
P3 O7 1_555 1_555
P4 O10 1_555 1_555
P5 O13 1_555 1_555
P6 O16 1_555 1_555
O2 P1 1_555 1_555
O3 P1 1_555 1_555
O5 P2 1_555 1_555
O6 P2 1_555 1_555
O7 La2C_2 1_555 1_555
O8 P3 1_555 1_555
O9 La1 1_555 1_555
O10 La2A 1_555 1_555
O11 P4 1_555 1_555
O12 P4 1_555 1_555
O13 La1C 1_555 1_555
O14 P5 1_555 1_555
O15 P5 1_555 1_555
O17 P6 1_555 1_555
O18 La1 1_555 1_555
C1 P1 1_555 1_555
H1 C1 1_555 1_555
H2 C1 1_555 1_555
C2 H3 1_555 1_555
H4 C2 1_555 1_555
C3 C2 1_555 1_555
H5 C3 1_555 1_555
H6 C3 1_555 1_555
C4 H7 1_555 1_555
H8 C4 1_555 1_555
C5 C4 1_555 1_555
H9 C5 1_555 1_555
H10 C5 1_555 1_555
C6 P2 1_555 1_555
H11 C6 1_555 1_555
H12 C6 1_555 1_555
C7 H13 1_555 1_555
H14 C7 1_555 1_555
C8 C7 1_555 1_555
H15 C8 1_555 1_555
H16 C8 1_555 1_555
C9 H17 1_555 1_555
H18 C9 1_555 1_555
C10 C9 1_555 1_555
H19 C10 1_555 1_555
H20 C10 1_555 1_555
C11 P3 1_555 1_555
H21 C11 1_555 1_555
H22 C11 1_555 1_555
C12 H23 1_555 1_555
H24 C12 1_555 1_555
C13 C12 1_555 1_555
H25 C13 1_555 1_555
H26 C13 1_555 1_555
C14 H27 1_555 1_555
H28 C14 1_555 1_555
C15 C14 1_555 1_555
H29 C15 1_555 1_555
H30 C15 1_555 1_555
C16 P4 1_555 1_555
H31 C16 1_555 1_555
H32 C16 1_555 1_555
C17 P5 1_555 1_555
H33 C17 1_555 1_555
H34 C17 1_555 1_555
C18 P6 1_555 1_555
H35 C18 1_555 1_555
H36 C18 1_555 1_555
N1 C1 1_555 1_555
H37 N1 1_555 1_555
N2 C3 1_555 1_555
H38 N2 1_555 1_555
N3 C6 1_555 1_555
H39 N3 1_555 1_555
N4 C8 1_555 1_555
H40 N4 1_555 1_555
N5 C11 1_555 1_555
H41 N5 1_555 1_555
N6 C13 1_555 1_555
H42 N6 1_555 1_555
La1_2 O6 1_555 1_555
La1B O12 1_555 1_555
La1C_2 O14 1_555 1_555
La2C O5 1_555 1_555
La2A_2 O11 1_555 1_555
La2_2 O15 1_555 1_555
O5C La2 1_555 1_555
O6_2 La1 1_555 1_555
O7C La2 1_555 1_555
O8C La2 1_555 1_555
O10A La2 1_555 1_555
O11A La2 1_555 1_555
O12B La1 1_555 1_555
O13C La1 1_555 1_555
O14C La1 1_555 1_555
O15C La1 1_555 1_555
O15_2 La2 1_555 1_555
P3 O9 1_555 1_555
P6 O18 1_555 1_555
O8 La2C 1_555 1_555
O15 La1C_2 1_555 1_555
C2 N1 1_555 1_555
C4 N2 1_555 1_555
C5 N1 1_555 1_555
C7 N3 1_555 1_555
C9 N4 1_555 1_555
C10 N3 1_555 1_555
C12 N5 1_555 1_555
C14 N6 1_555 1_555
C15 N5 1_555 1_555
C16 N4 1_555 1_555
C17 N6 1_555 1_555
C18 N2 1_555 1_555
La2C O15C 1_555 1_555

#END
