
#######################################################################
#
#                 Cambridge Crystallographic Data Centre
#                                CCDC 
#
#######################################################################
#
# If this CIF has been generated from an entry in the Cambridge 
# Structural Database, then it will include bibliographic, chemical, 
# crystal, experimental, refinement or atomic coordinate data resulting 
# from the CCDC's data processing and validation procedures.
#
#######################################################################

data_QOGPIM
_chemical_formula_moiety         'C226 N58 Zn19'
_symmetry_cell_setting           tetragonal
_symmetry_space_group_name_H-M   'P 42/m n m'
_symmetry_Int_Tables_number      136
_space_group_name_Hall           '-P 4n 2n'
loop_
_symmetry_equiv_pos_site_id
_symmetry_equiv_pos_as_xyz
1 x,y,z
2 1/2-y,1/2+x,1/2+z
3 1/2+y,1/2-x,1/2+z
4 y,x,-z
5 -x,-y,z
6 1/2-x,1/2+y,1/2-z
7 1/2+x,1/2-y,1/2-z
8 -y,-x,-z
9 -x,-y,-z
10 1/2+y,1/2-x,1/2-z
11 1/2-y,1/2+x,1/2-z
12 -y,-x,z
13 x,y,-z
14 1/2+x,1/2-y,1/2+z
15 1/2-x,1/2+y,1/2+z
16 y,x,z
_cell_length_a                   30.8800(8)
_cell_length_b                   30.8800(8)
_cell_length_c                   33.781(2)
_cell_angle_alpha                90
_cell_angle_beta                 90
_cell_angle_gamma                90
_cell_volume                     32212.7
loop_
_atom_site_label
_atom_site_type_symbol
_atom_site_fract_x
_atom_site_fract_y
_atom_site_fract_z
_atom_site_U_iso_or_equiv
_atom_site_thermal_displace_type
Zn1 Zn 0.29172(7) 0.15594(7) 0.21571(7) 0.0820 Uani
Zn2 Zn 0.47942(7) 0.18601(7) 0.22450(7) 0.0930 Uani
Zn3 Zn 0.38369(7) 0.24752(7) 0.08733(8) 0.0943 Uani
Zn4 Zn 0.5000 0.0000 0.2500 0.0840 Uani
N1 N 0.3473(6) 0.1694(5) 0.2440(8) 0.0640 Uani
N2 N 0.4205(6) 0.1787(6) 0.2504(10) 0.0873 Uani
C1 C 0.3899(15) 0.1646(7) 0.2266(9) 0.0923 Uani
C2 C 0.3581(15) 0.1904(7) 0.2802(9) 0.0997 Uani
C3 C 0.3274(12) 0.2057(9) 0.3123(11) 0.1800 Uani
C4 C 0.369(3) 0.2291(9) 0.3442(9) 0.4167 Uani
C5 C 0.404(2) 0.229(5) 0.390(4) 1.0100 Uani
C6 C 0.4210(10) 0.2157(9) 0.3192(11) 0.1600 Uani
C7 C 0.4035(13) 0.1967(8) 0.2886(10) 0.0867 Uani
C8 C 0.3192(10) 0.2425(11) 0.3772(11) 0.2700 Uani
N3 N 0.4713(9) 0.2207(7) 0.1742(6) 0.0740 Uani
N4 N 0.4342(6) 0.2463(10) 0.1236(5) 0.0910 Uani
C10 C 0.4401(9) 0.2142(9) 0.1490(9) 0.0727 Uani
C11 C 0.4887(11) 0.2610(15) 0.1673(12) 0.0967 Uani
C12 C 0.5207(17) 0.2857(14) 0.1834(12) 0.1567 Uani
C13 C 0.5269(10) 0.3323(17) 0.169(2) 0.2233 Uani
C14 C 0.499(2) 0.355(5) 0.138(4) 0.9100 Uani
C15 C 0.4764(15) 0.3262(10) 0.1203(10) 0.2100 Uani
C16 C 0.4661(13) 0.2838(18) 0.1345(16) 0.1433 Uani
C17 C 0.5600(12) 0.3588(9) 0.1873(11) 0.2467 Uani
C18 C 0.5164(13) 0.3983(10) 0.1214(15) 0.2900 Uani
N5 N 0.3414(4) 0.2043(4) 0.1118(5) 0.0910 Uiso
N6 N 0.3051(5) 0.1706(5) 0.1593(4) 0.0880 Uiso
C19 C 0.3294(5) 0.2057(5) 0.1494(5) 0.0610 Uiso
C20 C 0.3387(10) 0.1600(10) 0.0958(10) 0.0550 Uiso
C21 C 0.3478(11) 0.1443(12) 0.0600(12) 0.1030 Uiso
C22 C 0.332(2) 0.099(2) 0.049(2) 0.2200 Uiso
C23 C 0.3098(13) 0.0804(13) 0.0849(13) 0.1180 Uiso
C24 C 0.2955(11) 0.0983(12) 0.1205(11) 0.0890 Uiso
C25 C 0.3124(10) 0.1391(11) 0.1268(10) 0.0680 Uiso
C27 C 0.2857(13) 0.0314(13) 0.0774(12) 0.1370 Uiso
N7 N 0.2410(5) 0.1885(4) 0.2352(6) 0.0680 Uani
C35 C 0.2235(5) 0.2235(5) 0.2156(7) 0.0460 Uani
C36 C 0.2177(6) 0.1818(8) 0.2729(8) 0.1013 Uani
C37 C 0.2231(9) 0.1573(8) 0.3058(10) 0.1467 Uani
C38 C 0.1981(8) 0.1641(9) 0.3363(12) 0.1900 Uani
C39 C 0.2048(9) 0.1376(10) 0.3720(9) 0.2167 Uani
N8 N 0.4048(7) 0.2313(6) 0.0330(5) 0.0953 Uani
C40 C 0.3816(8) 0.2386(7) 0.0000 0.0567 Uani
C41 C 0.440(2) 0.2078(18) 0.0235(18) 0.0700 Uani
C42 C 0.472(2) 0.1906(15) 0.0410(13) 0.0867 Uani
C43 C 0.5005(16) 0.1680(14) 0.0220(9) 0.0900 Uani
C44 C 0.5370(11) 0.1459(14) 0.0433(9) 0.1267 Uani
N9 N 0.4977(6) 0.1260(7) 0.2135(7) 0.0820 Uani
N10 N 0.5037(8) 0.0532(8) 0.2207(7) 0.0840 Uani
C48 C 0.4851(11) 0.0874(13) 0.2315(9) 0.1133 Uani
C49 C 0.5302(12) 0.1133(13) 0.1888(10) 0.0750 Uiso
C50 C 0.5563(9) 0.1353(9) 0.1624(10) 0.1000 Uani
C51 C 0.5857(13) 0.1133(13) 0.1420(9) 0.1133 Uani
C52 C 0.5900(9) 0.0660(17) 0.1442(11) 0.1433 Uani
C53 C 0.5592(14) 0.0461(13) 0.1742(10) 0.1233 Uani
C54 C 0.5318(11) 0.0669(12) 0.1937(12) 0.1010 Uani
C55 C 0.6210(8) 0.1371(8) 0.1107(7) 0.1533 Uani
C56 C 0.6236(9) 0.0410(9) 0.1198(8) 0.1667 Uani
N12 N 0.3584(8) 0.3088(8) 0.1068(8) 0.0510 Uiso
C62 C 0.3317(15) 0.3317(15) 0.0865(18) 0.0800 Uiso
C63 C 0.3524(8) 0.3194(8) 0.1461(10) 0.0620 Uiso
C64 C 0.3717(8) 0.3117(8) 0.1864(9) 0.0330 Uiso
C65 C 0.3544(9) 0.3137(9) 0.2182(10) 0.0450 Uiso
C66 C 0.3735(12) 0.3054(12) 0.2560(12) 0.1060 Uiso
N13 N 0.5268(7) 0.2099(5) 0.2588(5) 0.0950 Uani
N14 N 0.5937(6) 0.2209(6) 0.2764(5) 0.0910 Uani
C67 C 0.5662(8) 0.1947(7) 0.2595(7) 0.0767 Uani
C68 C 0.5273(9) 0.2508(6) 0.2740(5) 0.1450 Uiso
C69 C 0.5700(8) 0.2546(7) 0.2866(7) 0.1650 Uiso
C70 C 0.5870(6) 0.2952(9) 0.2952(9) 0.2867 Uani
C71 C 0.5614(10) 0.3320(6) 0.2912(9) 0.2467 Uani
C72 C 0.5187(9) 0.3281(7) 0.2786(8) 0.4500 Uani
C73 C 0.5017(6) 0.2875(10) 0.2700(7) 0.0770 Uiso
C74 C 0.572(2) 0.3818(9) 0.2991(15) 0.2400 Uiso
C75 C 0.4898(17) 0.3717(13) 0.2740(13) 0.2200 Uiso
Zn1I Zn 0.65594(7) 0.20828(7) 0.28429(7) 0.0820 Uani
Zn1J Zn 0.34406(7) -0.20828(7) 0.28429(7) 0.0820 Uani
Zn1D Zn 0.70828(7) -0.15594(7) 0.21571(7) 0.0820 Uani
Zn1O Zn 0.15594(7) 0.29172(7) 0.21571(7) 0.0820 Uani
Zn1F Zn 0.79172(7) 0.34406(7) 0.28429(7) 0.0820 Uani
Zn2I Zn 0.68601(7) 0.02058(7) 0.27550(7) 0.0930 Uani
Zn2J Zn 0.31399(7) -0.02058(7) 0.27550(7) 0.0930 Uani
Zn2D Zn 0.52058(7) -0.18601(7) 0.22450(7) 0.0930 Uani
Zn3I Zn 0.74752(7) 0.11631(7) 0.41267(8) 0.0943 Uani
Zn3J Zn 0.25248(7) -0.11631(7) 0.41267(8) 0.0943 Uani
Zn3D Zn 0.61631(7) -0.24752(7) 0.08733(8) 0.0943 Uani
Zn3L Zn 0.38369(7) 0.24752(7) -0.08733(8) 0.0943 Uani
Zn3O Zn 0.24752(7) 0.38369(7) 0.08733(8) 0.0943 Uani
Zn3B Zn 0.74752(7) 0.11631(7) 0.58733(8) 0.0943 Uani
Zn3F Zn 0.88369(7) 0.25248(7) 0.41267(8) 0.0943 Uani
N1I N 0.6694(5) 0.1527(6) 0.2560(8) 0.0640 Uani
N1J N 0.3306(5) -0.1527(6) 0.2560(8) 0.0640 Uani
N1D N 0.6527(6) -0.1694(5) 0.2440(8) 0.0640 Uani
N2I N 0.6787(6) 0.0795(6) 0.2496(10) 0.0873 Uani
N2J N 0.3213(6) -0.0795(6) 0.2496(10) 0.0873 Uani
N2D N 0.5795(6) -0.1787(6) 0.2504(10) 0.0873 Uani
C1I C 0.6646(7) 0.1101(15) 0.2734(9) 0.0923 Uani
C1J C 0.3354(7) -0.1101(15) 0.2734(9) 0.0923 Uani
C1D C 0.6101(15) -0.1646(7) 0.2266(9) 0.0923 Uani
C2I C 0.6904(7) 0.1419(15) 0.2198(9) 0.0997 Uani
C2J C 0.3096(7) -0.1419(15) 0.2198(9) 0.0997 Uani
C2D C 0.6419(15) -0.1904(7) 0.2802(9) 0.0997 Uani
C3I C 0.7057(9) 0.1726(12) 0.1877(11) 0.1800 Uani
C3J C 0.2943(9) -0.1726(12) 0.1877(11) 0.1800 Uani
C3D C 0.6726(12) -0.2057(9) 0.3123(11) 0.1800 Uani
C4I C 0.7291(9) 0.131(3) 0.1558(9) 0.4167 Uani
C4J C 0.2709(9) -0.131(3) 0.1558(9) 0.4167 Uani
C4D C 0.631(3) -0.2291(9) 0.3442(9) 0.4167 Uani
C5I C 0.729(5) 0.096(2) 0.110(4) 1.0100 Uani
C5J C 0.271(5) -0.096(2) 0.110(4) 1.0100 Uani
C5D C 0.596(2) -0.229(5) 0.390(4) 1.0100 Uani
C6I C 0.7157(9) 0.0790(10) 0.1808(11) 0.1600 Uani
C6J C 0.2843(9) -0.0790(10) 0.1808(11) 0.1600 Uani
C6D C 0.5790(10) -0.2157(9) 0.3192(11) 0.1600 Uani
C7I C 0.6967(8) 0.0965(13) 0.2114(10) 0.0867 Uani
C7J C 0.3033(8) -0.0965(13) 0.2114(10) 0.0867 Uani
C7D C 0.5965(13) -0.1967(8) 0.2886(10) 0.0867 Uani
C8I C 0.7425(11) 0.1808(10) 0.1228(11) 0.2700 Uani
C8J C 0.2575(11) -0.1808(10) 0.1228(11) 0.2700 Uani
C8D C 0.6808(10) -0.2425(11) 0.3772(11) 0.2700 Uani
N3I N 0.7207(7) 0.0287(9) 0.3258(6) 0.0740 Uani
N3J N 0.2793(7) -0.0287(9) 0.3258(6) 0.0740 Uani
N3D N 0.5287(9) -0.2207(7) 0.1742(6) 0.0740 Uani
N4I N 0.7463(10) 0.0658(6) 0.3764(5) 0.0910 Uani
N4J N 0.2537(10) -0.0658(6) 0.3764(5) 0.0910 Uani
N4D N 0.5658(6) -0.2463(10) 0.1236(5) 0.0910 Uani
C10I C 0.7142(9) 0.0599(9) 0.3510(9) 0.0727 Uani
C10J C 0.2858(9) -0.0599(9) 0.3510(9) 0.0727 Uani
C10D C 0.5599(9) -0.2142(9) 0.1490(9) 0.0727 Uani
C11I C 0.7610(15) 0.0113(11) 0.3327(12) 0.0967 Uani
C11J C 0.2390(15) -0.0113(11) 0.3327(12) 0.0967 Uani
C11D C 0.5113(11) -0.2610(15) 0.1673(12) 0.0967 Uani
C12I C 0.7857(14) -0.0207(17) 0.3166(12) 0.1567 Uani
C12J C 0.2143(14) 0.0207(17) 0.3166(12) 0.1567 Uani
C12D C 0.4793(17) -0.2857(14) 0.1834(12) 0.1567 Uani
C13I C 0.8323(17) -0.0269(10) 0.331(2) 0.2233 Uani
C13J C 0.1677(17) 0.0269(10) 0.331(2) 0.2233 Uani
C13D C 0.4731(10) -0.3323(17) 0.169(2) 0.2233 Uani
C14I C 0.855(5) 0.001(2) 0.362(4) 0.9100 Uani
C14J C 0.145(5) -0.001(2) 0.362(4) 0.9100 Uani
C14D C 0.501(2) -0.355(5) 0.138(4) 0.9100 Uani
C15I C 0.8262(10) 0.0236(15) 0.3797(10) 0.2100 Uani
C15J C 0.1738(10) -0.0236(15) 0.3797(10) 0.2100 Uani
C15D C 0.5236(15) -0.3262(10) 0.1203(10) 0.2100 Uani
C16I C 0.7838(18) 0.0339(13) 0.3655(16) 0.1433 Uani
C16J C 0.2162(18) -0.0339(13) 0.3655(16) 0.1433 Uani
C16D C 0.5339(13) -0.2838(18) 0.1345(16) 0.1433 Uani
C17I C 0.8588(9) -0.0600(12) 0.3127(11) 0.2467 Uani
C17J C 0.1412(9) 0.0600(12) 0.3127(11) 0.2467 Uani
C17D C 0.4400(12) -0.3588(9) 0.1873(11) 0.2467 Uani
C18I C 0.8983(10) -0.0164(13) 0.3786(15) 0.2900 Uani
C18J C 0.1017(10) 0.0164(13) 0.3786(15) 0.2900 Uani
C18D C 0.4836(13) -0.3983(10) 0.1214(15) 0.2900 Uani
N5I N 0.7043(4) 0.1586(4) 0.3882(5) 0.0910 Uiso
N5J N 0.2957(4) -0.1586(4) 0.3882(5) 0.0910 Uiso
N5D N 0.6586(4) -0.2043(4) 0.1118(5) 0.0910 Uiso
N6I N 0.6706(5) 0.1949(5) 0.3407(4) 0.0880 Uiso
N6J N 0.3294(5) -0.1949(5) 0.3407(4) 0.0880 Uiso
N6D N 0.6949(5) -0.1706(5) 0.1593(4) 0.0880 Uiso
C19I C 0.7057(5) 0.1706(5) 0.3506(5) 0.0610 Uiso
C19J C 0.2943(5) -0.1706(5) 0.3506(5) 0.0610 Uiso
C19D C 0.6706(5) -0.2057(5) 0.1494(5) 0.0610 Uiso
C20I C 0.6600(10) 0.1613(10) 0.4042(10) 0.0550 Uiso
C20J C 0.3400(10) -0.1613(10) 0.4042(10) 0.0550 Uiso
C20D C 0.6613(10) -0.1600(10) 0.0958(10) 0.0550 Uiso
C21I C 0.6443(12) 0.1522(11) 0.4400(12) 0.1030 Uiso
C21J C 0.3557(12) -0.1522(11) 0.4400(12) 0.1030 Uiso
C21D C 0.6522(11) -0.1443(12) 0.0600(12) 0.1030 Uiso
C22I C 0.599(2) 0.168(2) 0.451(2) 0.2200 Uiso
C22J C 0.401(2) -0.168(2) 0.451(2) 0.2200 Uiso
C22D C 0.668(2) -0.099(2) 0.049(2) 0.2200 Uiso
C23I C 0.5804(13) 0.1902(13) 0.4151(13) 0.1180 Uiso
C23J C 0.4196(13) -0.1902(13) 0.4151(13) 0.1180 Uiso
C23D C 0.6902(13) -0.0804(13) 0.0849(13) 0.1180 Uiso
C24I C 0.5983(12) 0.2045(11) 0.3795(11) 0.0890 Uiso
C24J C 0.4017(12) -0.2045(11) 0.3795(11) 0.0890 Uiso
C24D C 0.7045(11) -0.0983(12) 0.1205(11) 0.0890 Uiso
C25I C 0.6391(11) 0.1876(10) 0.3732(10) 0.0680 Uiso
C25J C 0.3609(11) -0.1876(10) 0.3732(10) 0.0680 Uiso
C25D C 0.6876(10) -0.1391(11) 0.1268(10) 0.0680 Uiso
C27I C 0.5314(13) 0.2143(13) 0.4226(12) 0.1370 Uiso
C27J C 0.4686(13) -0.2143(13) 0.4226(12) 0.1370 Uiso
C27D C 0.7143(13) -0.0314(13) 0.0774(12) 0.1370 Uiso
N7O N 0.1885(4) 0.2410(5) 0.2352(6) 0.0680 Uani
N7I N 0.6885(4) 0.2590(5) 0.2648(6) 0.0680 Uani
N7F N 0.7410(5) 0.3115(4) 0.2648(6) 0.0680 Uani
N7J N 0.3115(4) -0.2590(5) 0.2648(6) 0.0680 Uani
N7D N 0.7590(5) -0.1885(4) 0.2352(6) 0.0680 Uani
C35I C 0.7235(5) 0.2765(5) 0.2844(7) 0.0460 Uani
C36O C 0.1818(8) 0.2177(6) 0.2729(8) 0.1013 Uani
C36I C 0.6818(8) 0.2823(6) 0.2271(8) 0.1013 Uani
C36F C 0.7177(6) 0.3182(8) 0.2271(8) 0.1013 Uani
C37O C 0.1573(8) 0.2231(9) 0.3058(10) 0.1467 Uani
C37I C 0.6573(8) 0.2769(9) 0.1942(10) 0.1467 Uani
C37F C 0.7231(9) 0.3427(8) 0.1942(10) 0.1467 Uani
C38O C 0.1641(9) 0.1981(8) 0.3363(12) 0.1900 Uani
C38I C 0.6641(9) 0.3019(8) 0.1637(12) 0.1900 Uani
C38F C 0.6981(8) 0.3359(9) 0.1637(12) 0.1900 Uani
C39O C 0.1376(10) 0.2048(9) 0.3720(9) 0.2167 Uani
C39I C 0.6376(10) 0.2952(9) 0.1280(9) 0.2167 Uani
C39F C 0.7048(9) 0.3624(10) 0.1280(9) 0.2167 Uani
N8L N 0.4048(7) 0.2313(6) -0.0330(5) 0.0953 Uani
N8I N 0.7313(6) 0.0952(7) 0.4670(5) 0.0953 Uani
N8B N 0.7313(6) 0.0952(7) 0.5330(5) 0.0953 Uani
N8J N 0.2687(6) -0.0952(7) 0.4670(5) 0.0953 Uani
N8D N 0.5952(7) -0.2313(6) 0.0330(5) 0.0953 Uani
C40B C 0.7386(7) 0.1184(8) 0.5000 0.0567 Uani
C41L C 0.440(2) 0.2078(18) -0.0235(18) 0.0700 Uani
C41I C 0.7078(18) 0.060(2) 0.4765(18) 0.0700 Uani
C41B C 0.7078(18) 0.060(2) 0.5235(18) 0.0700 Uani
C42L C 0.472(2) 0.1906(15) -0.0410(13) 0.0867 Uani
C42I C 0.6906(15) 0.028(2) 0.4590(13) 0.0867 Uani
C42B C 0.6906(15) 0.028(2) 0.5410(13) 0.0867 Uani
C43L C 0.5005(16) 0.1680(14) -0.0220(9) 0.0900 Uani
C43I C 0.6680(14) -0.0005(16) 0.4780(9) 0.0900 Uani
C43B C 0.6680(14) -0.0005(16) 0.5220(9) 0.0900 Uani
C44L C 0.5370(11) 0.1459(14) -0.0433(9) 0.1267 Uani
C44I C 0.6459(14) -0.0370(11) 0.4567(9) 0.1267 Uani
C44B C 0.6459(14) -0.0370(11) 0.5433(9) 0.1267 Uani
N9I N 0.6260(7) 0.0023(6) 0.2865(7) 0.0820 Uani
N9J N 0.3740(7) -0.0023(6) 0.2865(7) 0.0820 Uani
N9D N 0.5023(6) -0.1260(7) 0.2135(7) 0.0820 Uani
N10I N 0.5532(8) -0.0037(8) 0.2793(7) 0.0840 Uani
N10J N 0.4468(8) 0.0037(8) 0.2793(7) 0.0840 Uani
N10D N 0.4963(8) -0.0532(8) 0.2207(7) 0.0840 Uani
C48I C 0.5874(13) 0.0149(11) 0.2685(9) 0.1133 Uani
C48J C 0.4126(13) -0.0149(11) 0.2685(9) 0.1133 Uani
C48D C 0.5149(11) -0.0874(13) 0.2315(9) 0.1133 Uani
C49I C 0.6133(13) -0.0302(12) 0.3112(10) 0.0750 Uiso
C49J C 0.3867(13) 0.0302(12) 0.3112(10) 0.0750 Uiso
C49D C 0.4698(12) -0.1133(13) 0.1888(10) 0.0750 Uiso
C50I C 0.6353(9) -0.0563(9) 0.3376(10) 0.1000 Uani
C50J C 0.3647(9) 0.0563(9) 0.3376(10) 0.1000 Uani
C50D C 0.4437(9) -0.1353(9) 0.1624(10) 0.1000 Uani
C51I C 0.6133(13) -0.0857(13) 0.3580(9) 0.1133 Uani
C51J C 0.3867(13) 0.0857(13) 0.3580(9) 0.1133 Uani
C51D C 0.4143(13) -0.1133(13) 0.1420(9) 0.1133 Uani
C52I C 0.5660(17) -0.0900(9) 0.3558(11) 0.1433 Uani
C52J C 0.4340(17) 0.0900(9) 0.3558(11) 0.1433 Uani
C52D C 0.4100(9) -0.0660(17) 0.1442(11) 0.1433 Uani
C53I C 0.5461(13) -0.0592(14) 0.3258(10) 0.1233 Uani
C53J C 0.4539(13) 0.0592(14) 0.3258(10) 0.1233 Uani
C53D C 0.4408(14) -0.0461(13) 0.1742(10) 0.1233 Uani
C54I C 0.5669(12) -0.0318(11) 0.3063(12) 0.1010 Uani
C54J C 0.4331(12) 0.0318(11) 0.3063(12) 0.1010 Uani
C54D C 0.4682(11) -0.0669(12) 0.1937(12) 0.1010 Uani
C55I C 0.6371(8) -0.1210(8) 0.3893(7) 0.1533 Uani
C55J C 0.3629(8) 0.1210(8) 0.3893(7) 0.1533 Uani
C55D C 0.3790(8) -0.1371(8) 0.1107(7) 0.1533 Uani
C56I C 0.5410(9) -0.1236(9) 0.3802(8) 0.1667 Uani
C56J C 0.4590(9) 0.1236(9) 0.3802(8) 0.1667 Uani
C56D C 0.3764(9) -0.0410(9) 0.1198(8) 0.1667 Uani
N12O N 0.3088(8) 0.3584(8) 0.1068(8) 0.0510 Uiso
N12I N 0.8088(8) 0.1416(8) 0.3932(8) 0.0510 Uiso
N12F N 0.8584(8) 0.1912(8) 0.3932(8) 0.0510 Uiso
N12J N 0.1912(8) -0.1416(8) 0.3932(8) 0.0510 Uiso
N12D N 0.6416(8) -0.3088(8) 0.1068(8) 0.0510 Uiso
C62I C 0.8317(15) 0.1683(15) 0.4135(18) 0.0800 Uiso
C63O C 0.3194(8) 0.3524(8) 0.1461(10) 0.0620 Uiso
C63I C 0.8194(8) 0.1476(8) 0.3539(10) 0.0620 Uiso
C63F C 0.8524(8) 0.1806(8) 0.3539(10) 0.0620 Uiso
C64O C 0.3117(8) 0.3717(8) 0.1864(9) 0.0330 Uiso
C64I C 0.8117(8) 0.1283(8) 0.3136(9) 0.0330 Uiso
C64F C 0.8717(8) 0.1883(8) 0.3136(9) 0.0330 Uiso
C65O C 0.3137(9) 0.3544(9) 0.2182(10) 0.0450 Uiso
C65I C 0.8137(9) 0.1456(9) 0.2818(10) 0.0450 Uiso
C65F C 0.8544(9) 0.1863(9) 0.2818(10) 0.0450 Uiso
C66O C 0.3054(12) 0.3735(12) 0.2560(12) 0.1060 Uiso
C66I C 0.8054(12) 0.1265(12) 0.2440(12) 0.1060 Uiso
C66F C 0.8735(12) 0.1946(12) 0.2440(12) 0.1060 Uiso
N13I N 0.7099(5) -0.0268(7) 0.2412(5) 0.0950 Uani
N13J N 0.2901(5) 0.0268(7) 0.2412(5) 0.0950 Uani
N13D N 0.4732(7) -0.2099(5) 0.2588(5) 0.0950 Uani
N14I N 0.7209(6) -0.0937(6) 0.2236(5) 0.0910 Uani
N14J N 0.2791(6) 0.0937(6) 0.2236(5) 0.0910 Uani
N14D N 0.4063(6) -0.2209(6) 0.2764(5) 0.0910 Uani
C67I C 0.6947(7) -0.0662(8) 0.2405(7) 0.0767 Uani
C67J C 0.3053(7) 0.0662(8) 0.2405(7) 0.0767 Uani
C67D C 0.4338(8) -0.1947(7) 0.2595(7) 0.0767 Uani
C68I C 0.7508(6) -0.0273(9) 0.2260(5) 0.1450 Uiso
C68J C 0.2492(6) 0.0273(9) 0.2260(5) 0.1450 Uiso
C68D C 0.4727(9) -0.2508(6) 0.2740(5) 0.1450 Uiso
C69I C 0.7546(7) -0.0700(8) 0.2134(7) 0.1650 Uiso
C69J C 0.2454(7) 0.0700(8) 0.2134(7) 0.1650 Uiso
C69D C 0.4300(8) -0.2546(7) 0.2866(7) 0.1650 Uiso
C70I C 0.7952(9) -0.0870(6) 0.2048(9) 0.2867 Uani
C70J C 0.2048(9) 0.0870(6) 0.2048(9) 0.2867 Uani
C70D C 0.4130(6) -0.2952(9) 0.2952(9) 0.2867 Uani
C71I C 0.8320(6) -0.0614(10) 0.2088(9) 0.2467 Uani
C71J C 0.1680(6) 0.0614(10) 0.2088(9) 0.2467 Uani
C71D C 0.4386(10) -0.3320(6) 0.2912(9) 0.2467 Uani
C72I C 0.8281(7) -0.0187(9) 0.2214(8) 0.4500 Uani
C72J C 0.1719(7) 0.0187(9) 0.2214(8) 0.4500 Uani
C72D C 0.4813(9) -0.3281(7) 0.2786(8) 0.4500 Uani
C73I C 0.7875(10) -0.0017(6) 0.2300(7) 0.0770 Uiso
C73J C 0.2125(10) 0.0017(6) 0.2300(7) 0.0770 Uiso
C73D C 0.4983(6) -0.2875(10) 0.2700(7) 0.0770 Uiso
C74I C 0.8818(9) -0.072(2) 0.2009(15) 0.2400 Uiso
C74J C 0.1182(9) 0.072(2) 0.2009(15) 0.2400 Uiso
C74D C 0.428(2) -0.3818(9) 0.2991(15) 0.2400 Uiso
C75I C 0.8717(13) 0.0102(17) 0.2260(13) 0.2200 Uiso
C75J C 0.1283(13) -0.0102(17) 0.2260(13) 0.2200 Uiso
C75D C 0.5102(17) -0.3717(13) 0.2740(13) 0.2200 Uiso
loop_
_atom_site_aniso_label
_atom_site_aniso_U_11
_atom_site_aniso_U_22
_atom_site_aniso_U_33
_atom_site_aniso_U_23
_atom_site_aniso_U_13
_atom_site_aniso_U_12
Zn1 0.062(2) 0.079(2) 0.105(2) 0.0365(14) 0.0106(15) 0.0073(15)
Zn2 0.057(2) 0.066(2) 0.156(3) 0.0157(18) -0.0282(17) 0.0023(14)
Zn3 0.087(2) 0.087(2) 0.109(3) 0.0425(15) 0.044(2) 0.0326(14)
Zn4 0.058(2) 0.058(2) 0.136(4) 0.000 0.000 0.000
N1 0.049(19) 0.064(12) 0.079(15) 0.029(11) -0.059(16) -0.003(10)
N2 0.021(18) 0.091(14) 0.15(3) 0.038(15) -0.04(2) -0.016(12)
C1 0.02(2) 0.087(18) 0.17(3) 0.078(17) 0.00(2) 0.018(17)
C2 0.17(4) 0.049(16) 0.08(3) 0.02(2) -0.12(3) -0.029(19)
C3 0.32(5) 0.15(3) 0.07(2) 0.00(2) 0.04(3) 0.15(3)
C4 1.17(15) 0.06(2) 0.02(2) -0.029(17) 0.04(5) 0.19(5)
C5 0.13(5) 1.9(5) 1.0(3) -0.1(2) 0.05(9) 0.21(12)
C6 0.17(3) 0.15(2) 0.16(3) -0.07(2) -0.14(3) -0.033(19)
C7 0.05(3) 0.12(2) 0.09(3) -0.051(17) 0.00(2) 0.047(19)
C8 0.26(4) 0.27(4) 0.28(4) -0.16(3) 0.01(3) 0.10(3)
N3 0.060(15) 0.030(14) 0.132(19) 0.083(14) 0.001(15) -0.006(13)
N4 0.10(2) 0.14(2) 0.033(13) 0.030(15) 0.023(14) 0.106(19)
C10 0.039(16) 0.15(3) 0.029(15) 0.024(19) -0.040(13) 0.068(17)
C11 0.04(2) 0.09(4) 0.16(3) 0.05(3) 0.01(2) -0.04(3)
C12 0.11(3) 0.07(3) 0.29(4) 0.04(2) 0.02(3) -0.09(2)
C13 0.04(2) 0.16(5) 0.47(7) -0.09(4) 0.06(3) -0.11(2)
C14 0.23(7) 1.6(3) 0.9(2) -1.0(2) 0.18(9) -0.50(14)
C15 0.36(6) 0.050(19) 0.22(4) 0.13(2) 0.19(4) 0.04(2)
C16 0.06(2) 0.22(5) 0.15(4) -0.10(4) 0.05(3) -0.06(4)
C17 0.24(3) 0.11(2) 0.39(5) 0.01(3) -0.07(3) -0.14(3)
C18 0.29(5) 0.13(3) 0.45(6) 0.14(3) -0.03(4) -0.08(3)
N7 0.057(15) 0.034(11) 0.113(17) 0.031(12) -0.008(11) 0.019(12)
C35 0.039(12) 0.039(12) 0.06(2) 0.006(11) 0.006(11) -0.001(19)
C36 0.084(17) 0.16(2) 0.060(18) -0.011(18) 0.078(15) -0.027(16)
C37 0.18(3) 0.19(3) 0.07(2) 0.16(2) 0.036(19) -0.03(2)
C38 0.19(3) 0.29(4) 0.09(2) 0.10(2) 0.06(2) -0.10(3)
C39 0.25(3) 0.32(4) 0.08(2) 0.13(2) 0.02(2) -0.07(2)
N8 0.092(19) 0.144(16) 0.05(2) 0.076(13) -0.025(14) 0.041(15)
C40 0.03(2) 0.040(18) 0.10(4) 0.000 0.000 0.009(15)
C41 0.00(3) 0.04(3) 0.17(6) -0.06(4) 0.04(4) 0.08(3)
C42 0.00(3) 0.12(5) 0.14(4) -0.01(3) -0.01(3) 0.14(4)
C43 0.04(3) 0.19(4) 0.04(3) -0.01(2) -0.01(2) 0.15(3)
C44 0.06(3) 0.29(5) 0.03(2) 0.01(3) 0.00(2) 0.17(3)
N9 0.032(12) 0.07(2) 0.144(16) -0.061(15) -0.021(12) 0.011(13)
N10 0.052(17) 0.05(2) 0.15(2) 0.000(15) 0.021(14) 0.025(13)
C48 0.13(3) 0.03(2) 0.18(3) 0.05(2) -0.08(2) -0.05(2)
C50 0.08(2) 0.13(3) 0.09(2) -0.02(2) 0.023(17) 0.01(2)
C51 0.15(3) 0.11(3) 0.08(2) -0.03(2) -0.01(2) -0.04(3)
C52 0.08(2) 0.19(4) 0.16(3) -0.14(3) 0.01(2) 0.05(3)
C53 0.07(2) 0.21(4) 0.09(2) 0.00(2) 0.036(18) -0.05(3)
C54 0.023(19) 0.14(4) 0.14(3) -0.07(2) 0.057(18) 0.053(19)
C55 0.13(2) 0.19(3) 0.14(2) 0.03(2) 0.041(18) -0.006(18)
C56 0.19(2) 0.17(2) 0.14(2) -0.02(2) 0.01(2) 0.03(2)
N13 0.104(17) 0.026(12) 0.155(16) -0.045(10) -0.046(13) -0.031(11)
N14 0.024(14) 0.104(16) 0.145(16) 0.002(12) -0.039(10) 0.038(12)
C67 0.000(17) 0.08(2) 0.15(2) 0.022(15) -0.035(15) 0.003(15)
C70 0.13(5) 0.24(7) 0.49(10) -0.10(6) -0.29(6) 0.23(5)
C71 0.08(4) 0.11(5) 0.55(12) -0.13(6) -0.16(6) -0.07(4)
C72 0.17(5) 0.08(4) 1.1(2) -0.29(7) -0.47(9) 0.20(4)
Zn1I 0.079 0.062 0.105 0.0106 -0.0365 -0.0073
Zn1J 0.079 0.062 0.105 -0.0106 0.0365 -0.0073
Zn1D 0.062 0.079 0.105 -0.0365 -0.0106 0.0073
Zn1O 0.079 0.062 0.105 0.0106 0.0365 0.0073
Zn1F 0.062 0.079 0.105 0.0365 -0.0106 -0.0073
Zn2I 0.066 0.057 0.156 -0.0282 -0.0157 -0.0023
Zn2J 0.066 0.057 0.156 0.0282 0.0157 -0.0023
Zn2D 0.057 0.066 0.156 -0.0157 0.0282 0.0023
Zn3I 0.087 0.087 0.109 0.044 -0.0425 -0.0326
Zn3J 0.087 0.087 0.109 -0.044 0.0425 -0.0326
Zn3D 0.087 0.087 0.109 -0.0425 -0.044 0.0326
Zn3L 0.087 0.087 0.109 -0.0425 -0.044 0.0326
Zn3O 0.087 0.087 0.109 0.044 0.0425 0.0326
Zn3B 0.087 0.087 0.109 -0.044 0.0425 -0.0326
Zn3F 0.087 0.087 0.109 0.0425 -0.044 -0.0326
N1I 0.064 0.049 0.079 -0.059 -0.029 0.003
N1J 0.064 0.049 0.079 0.059 0.029 0.003
N1D 0.049 0.064 0.079 -0.029 0.059 -0.003
N2I 0.091 0.021 0.15 -0.04 -0.038 0.016
N2J 0.091 0.021 0.15 0.04 0.038 0.016
N2D 0.021 0.091 0.15 -0.038 0.04 -0.016
C1I 0.087 0.02 0.17 0 -0.078 -0.018
C1J 0.087 0.02 0.17 0 0.078 -0.018
C1D 0.02 0.087 0.17 -0.078 0 0.018
C2I 0.049 0.17 0.08 -0.12 -0.02 0.029
C2J 0.049 0.17 0.08 0.12 0.02 0.029
C2D 0.17 0.049 0.08 -0.02 0.12 -0.029
C3I 0.15 0.32 0.07 0.04 0 -0.15
C3J 0.15 0.32 0.07 -0.04 0 -0.15
C3D 0.32 0.15 0.07 0 -0.04 0.15
C4I 0.06 1.17 0.02 0.04 0.029 -0.19
C4J 0.06 1.17 0.02 -0.04 -0.029 -0.19
C4D 1.17 0.06 0.02 0.029 -0.04 0.19
C5I 1.9 0.13 1 0.05 0.1 -0.21
C5J 1.9 0.13 1 -0.05 -0.1 -0.21
C5D 0.13 1.9 1 0.1 -0.05 0.21
C6I 0.15 0.17 0.16 -0.14 0.07 0.033
C6J 0.15 0.17 0.16 0.14 -0.07 0.033
C6D 0.17 0.15 0.16 0.07 0.14 -0.033
C7I 0.12 0.05 0.09 0 0.051 -0.047
C7J 0.12 0.05 0.09 0 -0.051 -0.047
C7D 0.05 0.12 0.09 0.051 0 0.047
C8I 0.27 0.26 0.28 0.01 0.16 -0.1
C8J 0.27 0.26 0.28 -0.01 -0.16 -0.1
C8D 0.26 0.27 0.28 0.16 -0.01 0.1
N3I 0.03 0.06 0.132 0.001 -0.083 0.006
N3J 0.03 0.06 0.132 -0.001 0.083 0.006
N3D 0.06 0.03 0.132 -0.083 -0.001 -0.006
N4I 0.14 0.1 0.033 0.023 -0.03 -0.106
N4J 0.14 0.1 0.033 -0.023 0.03 -0.106
N4D 0.1 0.14 0.033 -0.03 -0.023 0.106
C10I 0.15 0.039 0.029 -0.04 -0.024 -0.068
C10J 0.15 0.039 0.029 0.04 0.024 -0.068
C10D 0.039 0.15 0.029 -0.024 0.04 0.068
C11I 0.09 0.04 0.16 0.01 -0.05 0.04
C11J 0.09 0.04 0.16 -0.01 0.05 0.04
C11D 0.04 0.09 0.16 -0.05 -0.01 -0.04
C12I 0.07 0.11 0.29 0.02 -0.04 0.09
C12J 0.07 0.11 0.29 -0.02 0.04 0.09
C12D 0.11 0.07 0.29 -0.04 -0.02 -0.09
C13I 0.16 0.04 0.47 0.06 0.09 0.11
C13J 0.16 0.04 0.47 -0.06 -0.09 0.11
C13D 0.04 0.16 0.47 0.09 -0.06 -0.11
C14I 1.6 0.23 0.9 0.18 1 0.5
C14J 1.6 0.23 0.9 -0.18 -1 0.5
C14D 0.23 1.6 0.9 1 -0.18 -0.5
C15I 0.05 0.36 0.22 0.19 -0.13 -0.04
C15J 0.05 0.36 0.22 -0.19 0.13 -0.04
C15D 0.36 0.05 0.22 -0.13 -0.19 0.04
C16I 0.22 0.06 0.15 0.05 0.1 0.06
C16J 0.22 0.06 0.15 -0.05 -0.1 0.06
C16D 0.06 0.22 0.15 0.1 -0.05 -0.06
C17I 0.11 0.24 0.39 -0.07 -0.01 0.14
C17J 0.11 0.24 0.39 0.07 0.01 0.14
C17D 0.24 0.11 0.39 -0.01 0.07 -0.14
C18I 0.13 0.29 0.45 -0.03 -0.14 0.08
C18J 0.13 0.29 0.45 0.03 0.14 0.08
C18D 0.29 0.13 0.45 -0.14 0.03 -0.08
N7O 0.034 0.057 0.113 -0.008 0.031 0.019
N7I 0.034 0.057 0.113 -0.008 -0.031 -0.019
N7F 0.057 0.034 0.113 0.031 0.008 -0.019
N7J 0.034 0.057 0.113 0.008 0.031 -0.019
N7D 0.057 0.034 0.113 -0.031 0.008 0.019
C35I 0.039 0.039 0.06 0.006 -0.006 0.001
C36O 0.16 0.084 0.06 0.078 -0.011 -0.027
C36I 0.16 0.084 0.06 0.078 0.011 0.027
C36F 0.084 0.16 0.06 -0.011 -0.078 0.027
C37O 0.19 0.18 0.07 0.036 0.16 -0.03
C37I 0.19 0.18 0.07 0.036 -0.16 0.03
C37F 0.18 0.19 0.07 0.16 -0.036 0.03
C38O 0.29 0.19 0.09 0.06 0.1 -0.1
C38I 0.29 0.19 0.09 0.06 -0.1 0.1
C38F 0.19 0.29 0.09 0.1 -0.06 0.1
C39O 0.32 0.25 0.08 0.02 0.13 -0.07
C39I 0.32 0.25 0.08 0.02 -0.13 0.07
C39F 0.25 0.32 0.08 0.13 -0.02 0.07
N8L 0.092 0.144 0.05 -0.076 0.025 0.041
N8I 0.144 0.092 0.05 -0.025 -0.076 -0.041
N8B 0.144 0.092 0.05 0.025 0.076 -0.041
N8J 0.144 0.092 0.05 0.025 0.076 -0.041
N8D 0.092 0.144 0.05 -0.076 0.025 0.041
C40B 0.04 0.03 0.1 0 0 -0.009
C41L 0 0.04 0.17 0.06 -0.04 0.08
C41I 0.04 0 0.17 0.04 0.06 -0.08
C41B 0.04 0 0.17 -0.04 -0.06 -0.08
C42L 0 0.12 0.14 0.01 0.01 0.14
C42I 0.12 0 0.14 -0.01 0.01 -0.14
C42B 0.12 0 0.14 0.01 -0.01 -0.14
C43L 0.04 0.19 0.04 0.01 0.01 0.15
C43I 0.19 0.04 0.04 -0.01 0.01 -0.15
C43B 0.19 0.04 0.04 0.01 -0.01 -0.15
C44L 0.06 0.29 0.03 -0.01 0 0.17
C44I 0.29 0.06 0.03 0 -0.01 -0.17
C44B 0.29 0.06 0.03 0 0.01 -0.17
N9I 0.07 0.032 0.144 -0.021 0.061 -0.011
N9J 0.07 0.032 0.144 0.021 -0.061 -0.011
N9D 0.032 0.07 0.144 0.061 0.021 0.011
N10I 0.05 0.052 0.15 0.021 0 -0.025
N10J 0.05 0.052 0.15 -0.021 0 -0.025
N10D 0.052 0.05 0.15 0 -0.021 0.025
C48I 0.03 0.13 0.18 -0.08 -0.05 0.05
C48J 0.03 0.13 0.18 0.08 0.05 0.05
C48D 0.13 0.03 0.18 -0.05 0.08 -0.05
C50I 0.13 0.08 0.09 0.023 0.02 -0.01
C50J 0.13 0.08 0.09 -0.023 -0.02 -0.01
C50D 0.08 0.13 0.09 0.02 -0.023 0.01
C51I 0.11 0.15 0.08 -0.01 0.03 0.04
C51J 0.11 0.15 0.08 0.01 -0.03 0.04
C51D 0.15 0.11 0.08 0.03 0.01 -0.04
C52I 0.19 0.08 0.16 0.01 0.14 -0.05
C52J 0.19 0.08 0.16 -0.01 -0.14 -0.05
C52D 0.08 0.19 0.16 0.14 -0.01 0.05
C53I 0.21 0.07 0.09 0.036 0 0.05
C53J 0.21 0.07 0.09 -0.036 0 0.05
C53D 0.07 0.21 0.09 0 -0.036 -0.05
C54I 0.14 0.023 0.14 0.057 0.07 -0.053
C54J 0.14 0.023 0.14 -0.057 -0.07 -0.053
C54D 0.023 0.14 0.14 0.07 -0.057 0.053
C55I 0.19 0.13 0.14 0.041 -0.03 0.006
C55J 0.19 0.13 0.14 -0.041 0.03 0.006
C55D 0.13 0.19 0.14 -0.03 -0.041 -0.006
C56I 0.17 0.19 0.14 0.01 0.02 -0.03
C56J 0.17 0.19 0.14 -0.01 -0.02 -0.03
C56D 0.19 0.17 0.14 0.02 -0.01 0.03
N13I 0.026 0.104 0.155 -0.046 0.045 0.031
N13J 0.026 0.104 0.155 0.046 -0.045 0.031
N13D 0.104 0.026 0.155 0.045 0.046 -0.031
N14I 0.104 0.024 0.145 -0.039 -0.002 -0.038
N14J 0.104 0.024 0.145 0.039 0.002 -0.038
N14D 0.024 0.104 0.145 -0.002 0.039 0.038
C67I 0.08 0 0.15 -0.035 -0.022 -0.003
C67J 0.08 0 0.15 0.035 0.022 -0.003
C67D 0 0.08 0.15 -0.022 0.035 0.003
C70I 0.24 0.13 0.49 -0.29 0.1 -0.23
C70J 0.24 0.13 0.49 0.29 -0.1 -0.23
C70D 0.13 0.24 0.49 0.1 0.29 0.23
C71I 0.11 0.08 0.55 -0.16 0.13 0.07
C71J 0.11 0.08 0.55 0.16 -0.13 0.07
C71D 0.08 0.11 0.55 0.13 0.16 -0.07
C72I 0.08 0.17 1.1 -0.47 0.29 -0.2
C72J 0.08 0.17 1.1 0.47 -0.29 -0.2
C72D 0.17 0.08 1.1 0.29 0.47 0.2
loop_
_geom_bond_atom_site_label_1
_geom_bond_atom_site_label_2
_geom_bond_site_symmetry_1
_geom_bond_site_symmetry_2
Zn1 N1 1_555 1_555
Zn2 N2 1_555 1_555
Zn3 N4 1_555 1_555
Zn4 N10 1_555 1_555
N1 C1 1_555 1_555
N2 C1 1_555 1_555
C2 N1 1_555 1_555
C3 C2 1_555 1_555
C4 C3 1_555 1_555
C5 C4 1_555 1_555
C6 C4 1_555 1_555
C7 N2 1_555 1_555
C8 C4 1_555 1_555
N3 Zn2 1_555 1_555
N4 C10 1_555 1_555
C10 N3 1_555 1_555
C11 N3 1_555 1_555
C12 C11 1_555 1_555
C13 C12 1_555 1_555
C14 C13 1_555 1_555
C15 C14 1_555 1_555
C16 N4 1_555 1_555
C17 C13 1_555 1_555
C18 C14 1_555 1_555
N5 Zn3 1_555 1_555
N6 Zn1 1_555 1_555
C19 N5 1_555 1_555
C20 N5 1_555 1_555
C21 C20 1_555 1_555
C22 C21 1_555 1_555
C23 C22 1_555 1_555
C24 C23 1_555 1_555
C25 N6 1_555 1_555
C27 C23 1_555 1_555
N7 Zn1 1_555 1_555
C35 N7 1_555 1_555
C36 N7 1_555 1_555
C37 C36 1_555 1_555
C38 C37 1_555 1_555
C39 C38 1_555 1_555
N8 Zn3 1_555 1_555
C40 N8 1_555 1_555
C41 N8 1_555 1_555
C42 C41 1_555 1_555
C43 C42 1_555 1_555
C44 C43 1_555 1_555
N9 Zn2 1_555 1_555
N10 C48 1_555 1_555
C48 N9 1_555 1_555
C49 N9 1_555 1_555
C50 C49 1_555 1_555
C51 C50 1_555 1_555
C52 C51 1_555 1_555
C53 C52 1_555 1_555
C54 N10 1_555 1_555
C55 C51 1_555 1_555
C56 C52 1_555 1_555
N12 Zn3 1_555 1_555
C62 N12 1_555 1_555
C63 N12 1_555 1_555
C64 C63 1_555 1_555
C65 C64 1_555 1_555
C66 C65 1_555 1_555
N13 Zn2 1_555 1_555
N14 C67 1_555 1_555
C67 N13 1_555 1_555
C68 N13 1_555 1_555
C69 N14 1_555 1_555
C70 C69 1_555 1_555
C71 C70 1_555 1_555
C72 C71 1_555 1_555
C73 C68 1_555 1_555
C74 C71 1_555 1_555
C75 C72 1_555 1_555
Zn1I N14 1_555 1_555
Zn1J N1J 1_555 1_555
Zn1D N1D 1_555 1_555
Zn1O N7O 1_555 1_555
Zn1F N7F 1_555 1_555
Zn2I N2I 1_555 1_555
Zn2J N2J 1_555 1_555
Zn2D N2D 1_555 1_555
Zn3I N4I 1_555 1_555
Zn3J N4J 1_555 1_555
Zn3D N4D 1_555 1_555
Zn3L N8L 1_555 1_555
Zn3O N12O 1_555 1_555
Zn3B N8B 1_555 1_555
Zn3F N12F 1_555 1_555
N1I Zn1I 1_555 1_555
N1J C1J 1_555 1_555
N1D C1D 1_555 1_555
N2I C1I 1_555 1_555
N2J C1J 1_555 1_555
N2D C1D 1_555 1_555
C1I N1I 1_555 1_555
C2I N1I 1_555 1_555
C2J N1J 1_555 1_555
C2D N1D 1_555 1_555
C3I C2I 1_555 1_555
C3J C2J 1_555 1_555
C3D C2D 1_555 1_555
C4I C3I 1_555 1_555
C4J C3J 1_555 1_555
C4D C3D 1_555 1_555
C5I C4I 1_555 1_555
C5J C4J 1_555 1_555
C5D C4D 1_555 1_555
C6I C4I 1_555 1_555
C6J C4J 1_555 1_555
C6D C4D 1_555 1_555
C7I N2I 1_555 1_555
C7J N2J 1_555 1_555
C7D N2D 1_555 1_555
C8I C4I 1_555 1_555
C8J C4J 1_555 1_555
C8D C4D 1_555 1_555
N3I Zn2I 1_555 1_555
N3J Zn2J 1_555 1_555
N3D Zn2D 1_555 1_555
N4I C10I 1_555 1_555
N4J C10J 1_555 1_555
N4D C10D 1_555 1_555
C10I N3I 1_555 1_555
C10J N3J 1_555 1_555
C10D N3D 1_555 1_555
C11I N3I 1_555 1_555
C11J N3J 1_555 1_555
C11D N3D 1_555 1_555
C12I C11I 1_555 1_555
C12J C11J 1_555 1_555
C12D C11D 1_555 1_555
C13I C12I 1_555 1_555
C13J C12J 1_555 1_555
C13D C12D 1_555 1_555
C14I C13I 1_555 1_555
C14J C13J 1_555 1_555
C14D C13D 1_555 1_555
C15I C14I 1_555 1_555
C15J C14J 1_555 1_555
C15D C14D 1_555 1_555
C16I N4I 1_555 1_555
C16J N4J 1_555 1_555
C16D N4D 1_555 1_555
C17I C13I 1_555 1_555
C17J C13J 1_555 1_555
C17D C13D 1_555 1_555
C18I C14I 1_555 1_555
C18J C14J 1_555 1_555
C18D C14D 1_555 1_555
N5I Zn3I 1_555 1_555
N5J Zn3J 1_555 1_555
N5D Zn3D 1_555 1_555
N6I Zn1I 1_555 1_555
N6J Zn1J 1_555 1_555
N6D Zn1D 1_555 1_555
C19I N5I 1_555 1_555
C19J N5J 1_555 1_555
C19D N5D 1_555 1_555
C20I N5I 1_555 1_555
C20J N5J 1_555 1_555
C20D N5D 1_555 1_555
C21I C20I 1_555 1_555
C21J C20J 1_555 1_555
C21D C20D 1_555 1_555
C22I C21I 1_555 1_555
C22J C21J 1_555 1_555
C22D C21D 1_555 1_555
C23I C22I 1_555 1_555
C23J C22J 1_555 1_555
C23D C22D 1_555 1_555
C24I C23I 1_555 1_555
C24J C23J 1_555 1_555
C24D C23D 1_555 1_555
C25I N6I 1_555 1_555
C25J N6J 1_555 1_555
C25D N6D 1_555 1_555
C27I C23I 1_555 1_555
C27J C23J 1_555 1_555
C27D C23D 1_555 1_555
N7O C35 1_555 1_555
N7I Zn1I 1_555 1_555
N7F C35I 1_555 1_555
N7J Zn1J 1_555 1_555
N7D Zn1D 1_555 1_555
C35I N7I 1_555 1_555
C36O C36 1_555 1_555
C36I N7I 1_555 1_555
C36F N7F 1_555 1_555
C37O C36O 1_555 1_555
C37I C36I 1_555 1_555
C37F C36F 1_555 1_555
C38O C38 1_555 1_555
C38I C37I 1_555 1_555
C38F C37F 1_555 1_555
C39O C38O 1_555 1_555
C39I C38I 1_555 1_555
C39F C38F 1_555 1_555
N8L C40 1_555 1_555
N8I Zn3I 1_555 1_555
N8B C40B 1_555 1_555
N8J Zn3J 1_555 1_555
N8D Zn3D 1_555 1_555
C40B N8I 1_555 1_555
C41L C41 1_555 1_555
C41I N8I 1_555 1_555
C41B N8B 1_555 1_555
C42L C41L 1_555 1_555
C42I C41I 1_555 1_555
C42B C41B 1_555 1_555
C43L C43 1_555 1_555
C43I C42I 1_555 1_555
C43B C42B 1_555 1_555
C44L C43L 1_555 1_555
C44I C43I 1_555 1_555
C44B C43B 1_555 1_555
N9I Zn2I 1_555 1_555
N9J Zn2J 1_555 1_555
N9D Zn2D 1_555 1_555
N10I Zn4 1_555 1_555
N10J Zn4 1_555 1_555
N10D Zn4 1_555 1_555
C48I N9I 1_555 1_555
C48J N9J 1_555 1_555
C48D N9D 1_555 1_555
C49I N9I 1_555 1_555
C49J N9J 1_555 1_555
C49D N9D 1_555 1_555
C50I C49I 1_555 1_555
C50J C49J 1_555 1_555
C50D C49D 1_555 1_555
C51I C50I 1_555 1_555
C51J C50J 1_555 1_555
C51D C50D 1_555 1_555
C52I C51I 1_555 1_555
C52J C51J 1_555 1_555
C52D C51D 1_555 1_555
C53I C52I 1_555 1_555
C53J C52J 1_555 1_555
C53D C52D 1_555 1_555
C54I N10I 1_555 1_555
C54J N10J 1_555 1_555
C54D N10D 1_555 1_555
C55I C51I 1_555 1_555
C55J C51J 1_555 1_555
C55D C51D 1_555 1_555
C56I C52I 1_555 1_555
C56J C52J 1_555 1_555
C56D C52D 1_555 1_555
N12O C62 1_555 1_555
N12I Zn3I 1_555 1_555
N12F C62I 1_555 1_555
N12J Zn3J 1_555 1_555
N12D Zn3D 1_555 1_555
C62I N12I 1_555 1_555
C63O C63 1_555 1_555
C63I N12I 1_555 1_555
C63F N12F 1_555 1_555
C64O C63O 1_555 1_555
C64I C63I 1_555 1_555
C64F C63F 1_555 1_555
C65O C65 1_555 1_555
C65I C64I 1_555 1_555
C65F C64F 1_555 1_555
C66O C65O 1_555 1_555
C66I C65I 1_555 1_555
C66F C65F 1_555 1_555
N13I Zn2I 1_555 1_555
N13J Zn2J 1_555 1_555
N13D Zn2D 1_555 1_555
N14I Zn1D 1_555 1_555
N14J Zn1 1_555 1_555
N14D Zn1J 1_555 1_555
C67I N13I 1_555 1_555
C67J N13J 1_555 1_555
C67D N13D 1_555 1_555
C68I N13I 1_555 1_555
C68J N13J 1_555 1_555
C68D N13D 1_555 1_555
C69I N14I 1_555 1_555
C69J N14J 1_555 1_555
C69D N14D 1_555 1_555
C70I C69I 1_555 1_555
C70J C69J 1_555 1_555
C70D C69D 1_555 1_555
C71I C70I 1_555 1_555
C71J C70J 1_555 1_555
C71D C70D 1_555 1_555
C72I C71I 1_555 1_555
C72J C71J 1_555 1_555
C72D C71D 1_555 1_555
C73I C68I 1_555 1_555
C73J C68J 1_555 1_555
C73D C68D 1_555 1_555
C74I C71I 1_555 1_555
C74J C71J 1_555 1_555
C74D C71D 1_555 1_555
C75I C72I 1_555 1_555
C75J C72J 1_555 1_555
C75D C72D 1_555 1_555
C2 C7 1_555 1_555
C6 C7 1_555 1_555
C11 C16 1_555 1_555
C15 C16 1_555 1_555
N6 C19 1_555 1_555
C20 C25 1_555 1_555
C24 C25 1_555 1_555
C49 C54 1_555 1_555
C53 C54 1_555 1_555
C68 C69 1_555 1_555
C72 C73 1_555 1_555
C2I C7I 1_555 1_555
C2J C7J 1_555 1_555
C2D C7D 1_555 1_555
C6I C7I 1_555 1_555
C6J C7J 1_555 1_555
C6D C7D 1_555 1_555
C11I C16I 1_555 1_555
C11J C16J 1_555 1_555
C11D C16D 1_555 1_555
C15I C16I 1_555 1_555
C15J C16J 1_555 1_555
C15D C16D 1_555 1_555
N6I C19I 1_555 1_555
N6J C19J 1_555 1_555
N6D C19D 1_555 1_555
C20I C25I 1_555 1_555
C20J C25J 1_555 1_555
C20D C25D 1_555 1_555
C24I C25I 1_555 1_555
C24J C25J 1_555 1_555
C24D C25D 1_555 1_555
N7O C36O 1_555 1_555
C36I C36F 1_555 1_555
C37O C38O 1_555 1_555
C38I C38F 1_555 1_555
N8L C41L 1_555 1_555
C41I C41B 1_555 1_555
C42L C43L 1_555 1_555
C43I C43B 1_555 1_555
N10I C48I 1_555 1_555
N10J C48J 1_555 1_555
N10D C48D 1_555 1_555
C49I C54I 1_555 1_555
C49J C54J 1_555 1_555
C49D C54D 1_555 1_555
C53I C54I 1_555 1_555
C53J C54J 1_555 1_555
C53D C54D 1_555 1_555
N12O C63O 1_555 1_555
C63I C63F 1_555 1_555
C64O C65O 1_555 1_555
C65I C65F 1_555 1_555
N14I C67I 1_555 1_555
N14J C67J 1_555 1_555
N14D C67D 1_555 1_555
C68I C69I 1_555 1_555
C68J C69J 1_555 1_555
C68D C69D 1_555 1_555
C72I C73I 1_555 1_555
C72J C73J 1_555 1_555
C72D C73D 1_555 1_555

#END
