
#######################################################################
#
#                 Cambridge Crystallographic Data Centre
#                                CCDC 
#
#######################################################################
#
# If this CIF has been generated from an entry in the Cambridge 
# Structural Database, then it will include bibliographic, chemical, 
# crystal, experimental, refinement or atomic coordinate data resulting 
# from the CCDC's data processing and validation procedures.
#
#######################################################################

data_QUTVIM
_chemical_formula_moiety         '(C9 H10 Fe1 K1 N7 1-)n'
_symmetry_cell_setting           monoclinic
_symmetry_space_group_name_H-M   'C 2/c'
_symmetry_Int_Tables_number      15
_space_group_name_Hall           '-C 2yc'
loop_
_symmetry_equiv_pos_site_id
_symmetry_equiv_pos_as_xyz
1 x,y,z
2 -x,y,1/2-z
3 1/2+x,1/2+y,z
4 1/2-x,1/2+y,1/2-z
5 -x,-y,-z
6 x,-y,1/2+z
7 1/2-x,1/2-y,-z
8 1/2+x,1/2-y,1/2+z
_cell_length_a                   15.3805(17)
_cell_length_b                   8.4335(10)
_cell_length_c                   13.8969(18)
_cell_angle_alpha                90
_cell_angle_beta                 107.583(3)
_cell_angle_gamma                90
_cell_volume                     1718.37
loop_
_atom_site_label
_atom_site_type_symbol
_atom_site_fract_x
_atom_site_fract_y
_atom_site_fract_z
K1 K 0.5000 0.78005(2) 0.2500
C1 C 0.68696(3) 0.43878(6) 0.43054(4)
N1 N 0.64609(3) 0.54778(6) 0.39134(4)
Fe1 Fe 0.7500 0.2500 0.5000
C2 C 0.66491(3) 0.12016(6) 0.39849(4)
N2 N 0.61384(3) 0.04506(6) 0.33794(4)
N3 N 0.88911(3) 0.24558(6) 0.37880(3)
C3 C 0.83635(3) 0.24825(6) 0.42231(4)
C1A C 0.31304(3) 0.43878(6) 0.06946(4)
N1A N 0.35391(3) 0.54778(6) 0.10866(4)
C2A C 0.33509(3) 1.12016(6) 0.10151(4)
N2A N 0.38616(3) 1.04506(6) 0.16206(4)
N3C N 0.61089(3) 0.74558(6) 0.12120(3)
C3C C 0.66365(3) 0.74825(6) 0.07769(4)
K1_2 K 0.5000 -0.21995(2) 0.2500
K1B K 1.0000 0.28005(2) 0.2500
C1F C 0.81304(3) 0.06122(6) 0.56946(4)
Fe1A Fe 0.2500 0.2500 0.0000
Fe1A_2 Fe 0.2500 1.2500 0.0000
Fe1C Fe 0.7500 0.7500 0.0000
C2F C 0.83509(3) 0.37984(6) 0.60151(4)
N2_2 N 0.61384(3) 1.04506(6) 0.33794(4)
N3B N 0.38911(3) 0.74558(6) 0.37880(3)
C3F C 0.66365(3) 0.25175(6) 0.57769(4)
N5 N 0.38190(6) 0.24885(10) 0.34831(7)
H11 H 0.3791 0.1842 0.2932
C7 C 0.29254(8) 0.32822(17) 0.32689(10)
H12 H 0.2923 0.3962 0.3840
H13 H 0.2444 0.2482 0.3166
H14 H 0.2816 0.3930 0.2659
C8 C 0.45671(7) 0.36620(15) 0.35603(10)
H15 H 0.4437 0.4263 0.2929
H16 H 0.5148 0.3100 0.3682
H17 H 0.4606 0.4392 0.4120
C9 C 0.40312(9) 0.14510(18) 0.43793(13)
H18 H 0.4083 0.2094 0.4982
H19 H 0.4609 0.0900 0.4454
H20 H 0.3542 0.0670 0.4297
loop_
_geom_bond_atom_site_label_1
_geom_bond_atom_site_label_2
_geom_bond_site_symmetry_1
_geom_bond_site_symmetry_2
K1 N1 1_555 1_555
C1 N1 1_555 1_555
Fe1 C1 1_555 1_555
C2 Fe1 1_555 1_555
N2 C2 1_555 1_555
N3 C3 1_555 1_555
C3 Fe1 1_555 1_555
N5 H11 1_555 1_555
C7 N5 1_555 1_555
H12 C7 1_555 1_555
H13 C7 1_555 1_555
H14 C7 1_555 1_555
C8 N5 1_555 1_555
H15 C8 1_555 1_555
H16 C8 1_555 1_555
H17 C8 1_555 1_555
C9 N5 1_555 1_555
H18 C9 1_555 1_555
H19 C9 1_555 1_555
H20 C9 1_555 1_555
C1A N1A 1_555 1_555
N1A K1 1_555 1_555
C2A N2A 1_555 1_555
N2A K1 1_555 1_555
N3C K1 1_555 1_555
C3C N3C 1_555 1_555
K1_2 N2 1_555 1_555
K1B N3 1_555 1_555
C1F Fe1 1_555 1_555
Fe1A C1A 1_555 1_555
Fe1A_2 C2A 1_555 1_555
Fe1C C3C 1_555 1_555
C2F Fe1 1_555 1_555
N2_2 K1 1_555 1_555
N3B K1 1_555 1_555
C3F Fe1 1_555 1_555

#END
