
#######################################################################
#
#                 Cambridge Crystallographic Data Centre
#                                CCDC 
#
#######################################################################
#
# If this CIF has been generated from an entry in the Cambridge 
# Structural Database, then it will include bibliographic, chemical, 
# crystal, experimental, refinement or atomic coordinate data resulting 
# from the CCDC's data processing and validation procedures.
#
#######################################################################

data_MAKRAU
_chemical_formula_moiety         '(C58 H51 K1 N6 Ni1 O15)n'
_symmetry_cell_setting           triclinic
_symmetry_space_group_name_H-M   'P -1'
_symmetry_Int_Tables_number      2
_space_group_name_Hall           '-P 1'
loop_
_symmetry_equiv_pos_site_id
_symmetry_equiv_pos_as_xyz
1 x,y,z
2 -x,-y,-z
_cell_length_a                   12.6368(13)
_cell_length_b                   14.4827(15)
_cell_length_c                   18.082(2)
_cell_angle_alpha                83.373(2)
_cell_angle_beta                 69.732(2)
_cell_angle_gamma                85.888(2)
_cell_volume                     3081.84
loop_
_atom_site_label
_atom_site_type_symbol
_atom_site_fract_x
_atom_site_fract_y
_atom_site_fract_z
Ni1 Ni 0.207335(17) 0.023311(14) 0.484004(12)
C1 C 0.22751(14) 0.22828(12) 0.48168(10)
C2 C 0.21777(15) 0.31363(13) 0.43553(11)
H1 H 0.2407 0.3716 0.4403
C3 C 0.16914(16) 0.29414(13) 0.38398(11)
H2 H 0.1522 0.3360 0.3463
C4 C 0.14830(14) 0.19664(12) 0.39810(10)
N1 N 0.18841(12) 0.15573(10) 0.45665(8)
C5 C 0.08994(14) 0.15206(13) 0.36168(10)
C6 C 0.07212(14) 0.05812(13) 0.37670(10)
C7 C 0.00225(15) 0.01117(13) 0.34756(11)
H3 H -0.0439 0.0387 0.3202
C8 C 0.01473(15) -0.07983(14) 0.36657(11)
H4 H -0.0217 -0.1274 0.3557
C9 C 0.09533(15) -0.08999(12) 0.40713(10)
N2 N 0.12577(12) -0.00435(10) 0.41707(8)
C10 C 0.14341(15) -0.17472(13) 0.42529(11)
C11 C 0.21498(15) -0.18085(13) 0.46924(10)
C12 C 0.27054(16) -0.26531(13) 0.48783(11)
H5 H 0.2714 -0.3223 0.4686
C13 C 0.32114(16) -0.24671(14) 0.53832(12)
H6 H 0.3622 -0.2888 0.5617
C14 C 0.30019(15) -0.15013(13) 0.54952(11)
N3 N 0.23749(12) -0.10909(10) 0.50422(8)
C15 C 0.33459(15) -0.10609(13) 0.60072(10)
C16 C 0.31768(15) -0.01205(13) 0.60662(11)
C17 C 0.33983(18) 0.03413(15) 0.66472(12)
H7 H 0.3641 0.0061 0.7052
C18 C 0.31930(18) 0.12552(15) 0.65053(11)
H8 H 0.3257 0.1726 0.6795
C19 C 0.28530(15) 0.13617(13) 0.58137(10)
N4 N 0.27865(12) 0.05143(10) 0.55749(8)
C20 C 0.26734(14) 0.22179(13) 0.54402(10)
C21 C 0.04534(15) 0.20786(13) 0.30327(10)
C22 C -0.03836(16) 0.27521(14) 0.32627(11)
H9 H -0.0684 0.2864 0.3793
C23 C -0.07862(16) 0.32654(14) 0.27193(12)
H10 H -0.1353 0.3720 0.2885
C24 C -0.03564(15) 0.31089(14) 0.19421(11)
C25 C 0.04984(18) 0.24516(17) 0.16900(12)
H11 H 0.0810 0.2358 0.1156
C26 C 0.08902(17) 0.19313(15) 0.22404(11)
H12 H 0.1456 0.1476 0.2074
C27 C -0.0452(2) 0.3562(2) 0.06529(13)
H13 H -0.0302 0.2913 0.0553
H14 H 0.0240 0.3895 0.0397
C28 C -0.1372(2) 0.3979(2) 0.03383(14)
O1 O -0.08513(14) 0.36451(13) 0.14675(9)
O2 O -0.23051(15) 0.40924(19) 0.07563(11)
O3 O -0.10115(16) 0.41701(19) -0.04088(10)
H15 H -0.1534 0.4383 -0.0554
C29 C 0.12658(16) -0.25896(13) 0.39058(11)
C30 C 0.15463(18) -0.25687(13) 0.30980(11)
H16 H 0.1760 -0.2009 0.2788
C31 C 0.15225(18) -0.33495(14) 0.27282(11)
H17 H 0.1713 -0.3311 0.2181
C32 C 0.12142(16) -0.41815(13) 0.31803(11)
C33 C 0.08727(17) -0.42048(14) 0.40015(11)
H18 H 0.0628 -0.4757 0.4314
C34 C 0.08934(17) -0.34255(14) 0.43516(11)
H19 H 0.0653 -0.3454 0.4901
C35 C 0.13917(17) -0.49741(15) 0.20684(12)
H20 H 0.0913 -0.4477 0.1934
H21 H 0.1148 -0.5554 0.1970
C36 C 0.25951(17) -0.48267(15) 0.15170(11)
O4 O 0.12146(12) -0.50031(9) 0.28842(8)
O5 O 0.33859(12) -0.48976(12) 0.17752(8)
O6 O 0.27041(13) -0.46585(15) 0.08002(9)
C37 C 0.38699(15) -0.16204(13) 0.65464(11)
C38 C 0.32346(17) -0.22295(16) 0.71417(13)
H22 H 0.2499 -0.2329 0.7177
C39 C 0.36596(17) -0.27011(16) 0.76929(12)
H23 H 0.3213 -0.3114 0.8093
C40 C 0.47390(17) -0.25598(14) 0.76488(11)
C41 C 0.54182(16) -0.19856(15) 0.70330(12)
H24 H 0.6166 -0.1914 0.6984
C42 C 0.49764(17) -0.15148(15) 0.64866(11)
H25 H 0.5432 -0.1122 0.6073
C43 C 0.60467(18) -0.27564(19) 0.83375(13)
H26 H 0.6042 -0.2083 0.8298
H27 H 0.6717 -0.2971 0.7930
C44 C 0.60523(18) -0.31550(18) 0.91428(13)
O7 O 0.50777(12) -0.30489(11) 0.82346(8)
O8 O 0.69297(15) -0.28821(18) 0.92646(11)
H28 H 0.6923 -0.3094 0.9707
O9 O 0.53831(13) -0.36639(12) 0.96014(9)
C45 C 0.29927(15) 0.30841(13) 0.56833(10)
C46 C 0.22514(16) 0.38305(14) 0.58785(12)
H29 H 0.1520 0.3797 0.5877
C47 C 0.25754(17) 0.46251(15) 0.60751(12)
H30 H 0.2064 0.5126 0.6203
C48 C 0.36719(16) 0.46873(14) 0.60837(11)
C49 C 0.44113(16) 0.39449(13) 0.59038(11)
H31 H 0.5137 0.3971 0.5919
C50 C 0.40739(15) 0.31536(13) 0.56987(11)
H32 H 0.4586 0.2654 0.5567
C51 C 0.50220(17) 0.56436(15) 0.62549(12)
H33 H 0.5148 0.6304 0.6202
H34 H 0.5552 0.5384 0.5791
C52 C 0.52495(17) 0.51921(14) 0.69833(11)
O10 O 0.39045(12) 0.55153(10) 0.62822(9)
O11 O 0.63276(12) 0.52530(13) 0.68773(9)
H35 H 0.6450 0.5032 0.7280
O12 O 0.45627(13) 0.48677(13) 0.75671(9)
C53 C 0.2362(3) 0.3068(3) 0.9160(2)
H36 H 0.2307 0.2451 0.9375
C54 C 0.1850(3) 0.4261(3) 0.8297(2)
H37 H 0.2012 0.4643 0.8642
H38 H 0.1106 0.4419 0.8282
H39 H 0.2392 0.4365 0.7773
C55 C 0.1325(5) 0.2654(4) 0.8293(3)
H40 H 0.1015 0.2157 0.8694
H41 H 0.1849 0.2402 0.7832
H42 H 0.0727 0.2995 0.8157
N5 N 0.1910(2) 0.3278(2) 0.85929(14)
O13 O 0.28161(17) 0.35465(19) 0.94269(12)
K1 K 0.42860(4) 0.50226(4) 0.91774(3)
O2A O 0.23051(15) 0.59076(19) 0.92437(11)
O5A O 0.66141(12) 0.48976(12) 0.82248(8)
O6_2 O 0.27041(13) 0.53415(15) 1.08002(9)
O7_2 O 0.50777(12) 0.69511(11) 0.82346(8)
O9_2 O 0.53831(13) 0.63361(12) 0.96014(9)
O9A O 0.46169(13) 0.36639(12) 1.03986(9)
K1_2 K 0.42860(4) -0.49774(4) -0.08226(3)
K1_3 K 0.42860(4) -0.49774(4) 0.91774(3)
K1A K -0.42860(4) 0.49774(4) 0.08226(3)
K1A_2 K 0.57140(4) -0.50226(4) 0.08226(3)
K1A_3 K 0.57140(4) -0.50226(4) 1.08226(3)
N6 N 0.5312(5) 0.1207(4) 0.7658(3)
C56 C 0.5303(6) 0.2131(6) 0.7352(5)
H43 H 0.4602 0.2285 0.7264
H44 H 0.5918 0.2222 0.6860
H45 H 0.5384 0.2523 0.7721
O14 O 0.3494(6) 0.1144(7) 0.8603(6)
C57 C 0.4394(6) 0.0764(6) 0.8211(4)
H46 H 0.4458 0.0120 0.8299
C58 C 0.6082(6) 0.0547(5) 0.7358(5)
H47 H 0.6025 0.0403 0.6869
H48 H 0.5953 -0.0000 0.7727
H49 H 0.6822 0.0765 0.7263
O15 O 0.0452(5) 0.1253(4) 0.0131(4)
H50 H 0.0408 0.0781 0.0479
H51 H -0.0224 0.1413 0.0187
loop_
_geom_bond_atom_site_label_1
_geom_bond_atom_site_label_2
_geom_bond_site_symmetry_1
_geom_bond_site_symmetry_2
Ni1 N1 1_555 1_555
C1 C2 1_555 1_555
C2 H1 1_555 1_555
C3 C2 1_555 1_555
H2 C3 1_555 1_555
C4 C3 1_555 1_555
N1 C1 1_555 1_555
C5 C4 1_555 1_555
C6 C5 1_555 1_555
C7 C6 1_555 1_555
H3 C7 1_555 1_555
C8 C7 1_555 1_555
H4 C8 1_555 1_555
C9 C8 1_555 1_555
N2 Ni1 1_555 1_555
C10 C9 1_555 1_555
C11 C10 1_555 1_555
C12 C11 1_555 1_555
H5 C12 1_555 1_555
C13 C12 1_555 1_555
H6 C13 1_555 1_555
C14 C13 1_555 1_555
N3 Ni1 1_555 1_555
C15 C14 1_555 1_555
C16 C15 1_555 1_555
C17 C16 1_555 1_555
H7 C17 1_555 1_555
C18 C17 1_555 1_555
H8 C18 1_555 1_555
C19 C18 1_555 1_555
N4 Ni1 1_555 1_555
C20 C1 1_555 1_555
C21 C5 1_555 1_555
C22 C21 1_555 1_555
H9 C22 1_555 1_555
C23 C22 1_555 1_555
H10 C23 1_555 1_555
C24 C23 1_555 1_555
C25 C24 1_555 1_555
H11 C25 1_555 1_555
C26 C21 1_555 1_555
H12 C26 1_555 1_555
C27 H13 1_555 1_555
H14 C27 1_555 1_555
C28 C27 1_555 1_555
O1 C24 1_555 1_555
O2 C28 1_555 1_555
O3 C28 1_555 1_555
H15 O3 1_555 1_555
C29 C10 1_555 1_555
C30 C29 1_555 1_555
H16 C30 1_555 1_555
C31 C30 1_555 1_555
H17 C31 1_555 1_555
C32 C31 1_555 1_555
C33 C32 1_555 1_555
H18 C33 1_555 1_555
C34 C29 1_555 1_555
H19 C34 1_555 1_555
C35 H20 1_555 1_555
H21 C35 1_555 1_555
C36 C35 1_555 1_555
O4 C32 1_555 1_555
O5 C36 1_555 1_555
O6 C36 1_555 1_555
C37 C15 1_555 1_555
C38 C37 1_555 1_555
H22 C38 1_555 1_555
C39 C38 1_555 1_555
H23 C39 1_555 1_555
C40 C39 1_555 1_555
C41 C40 1_555 1_555
H24 C41 1_555 1_555
C42 C37 1_555 1_555
H25 C42 1_555 1_555
C43 H26 1_555 1_555
H27 C43 1_555 1_555
C44 C43 1_555 1_555
O7 C40 1_555 1_555
O8 C44 1_555 1_555
H28 O8 1_555 1_555
O9 C44 1_555 1_555
C45 C20 1_555 1_555
C46 C45 1_555 1_555
H29 C46 1_555 1_555
C47 C46 1_555 1_555
H30 C47 1_555 1_555
C48 C47 1_555 1_555
C49 C48 1_555 1_555
H31 C49 1_555 1_555
C50 C45 1_555 1_555
H32 C50 1_555 1_555
C51 H33 1_555 1_555
H34 C51 1_555 1_555
C52 C51 1_555 1_555
O10 C48 1_555 1_555
O11 C52 1_555 1_555
H35 O11 1_555 1_555
O12 C52 1_555 1_555
C53 H36 1_555 1_555
C54 H37 1_555 1_555
H38 C54 1_555 1_555
H39 C54 1_555 1_555
C55 H40 1_555 1_555
H41 C55 1_555 1_555
H42 C55 1_555 1_555
N5 C53 1_555 1_555
O13 C53 1_555 1_555
K1 O12 1_555 1_555
N6 C56 1_555 1_555
C56 H43 1_555 1_555
H44 C56 1_555 1_555
H45 C56 1_555 1_555
O14 C57 1_555 1_555
C57 N6 1_555 1_555
H46 C57 1_555 1_555
C58 N6 1_555 1_555
H47 C58 1_555 1_555
H48 C58 1_555 1_555
H49 C58 1_555 1_555
O15 H50 1_555 1_555
H51 O15 1_555 1_555
O2A K1 1_555 1_555
O5A K1 1_555 1_555
O6_2 K1 1_555 1_555
O7_2 K1 1_555 1_555
O9_2 K1 1_555 1_555
O9A K1 1_555 1_555
K1_2 O6 1_555 1_555
K1_3 O7 1_555 1_555
K1A O2 1_555 1_555
K1A_2 O5 1_555 1_555
K1A_3 O9 1_555 1_555
C4 N1 1_555 1_555
C6 N2 1_555 1_555
C9 N2 1_555 1_555
C11 N3 1_555 1_555
C14 N3 1_555 1_555
C16 N4 1_555 1_555
C19 N4 1_555 1_555
C19 C20 1_555 1_555
C25 C26 1_555 1_555
C27 O1 1_555 1_555
C33 C34 1_555 1_555
C35 O4 1_555 1_555
C41 C42 1_555 1_555
C43 O7 1_555 1_555
O9 K1_3 1_555 1_555
C49 C50 1_555 1_555
C51 O10 1_555 1_555
C54 N5 1_555 1_555
C55 N5 1_555 1_555
O13 K1 1_555 1_555

#END
