
#######################################################################
#
#                 Cambridge Crystallographic Data Centre
#                                CCDC 
#
#######################################################################
#
# If this CIF has been generated from an entry in the Cambridge 
# Structural Database, then it will include bibliographic, chemical, 
# crystal, experimental, refinement or atomic coordinate data resulting 
# from the CCDC's data processing and validation procedures.
#
#######################################################################

data_XINRAP
_chemical_formula_moiety         '(C4 H7 Co1 N3 O3)n'
_symmetry_cell_setting           tetragonal
_symmetry_space_group_name_H-M   'I 41/a'
_symmetry_Int_Tables_number      88
_space_group_name_Hall           '-I 4ad'
loop_
_symmetry_equiv_pos_site_id
_symmetry_equiv_pos_as_xyz
1 x,y,z
2 3/4-y,1/4+x,1/4+z
3 1/2-x,-y,1/2+z
4 3/4+y,3/4-x,3/4+z
5 1/2+x,1/2+y,1/2+z
6 1/4-y,3/4+x,3/4+z
7 -x,1/2-y,z
8 1/4+y,1/4-x,1/4+z
9 -x,-y,-z
10 1/4+y,3/4-x,3/4-z
11 1/2+x,y,1/2-z
12 1/4-y,1/4+x,1/4-z
13 1/2-x,1/2-y,1/2-z
14 3/4+y,1/4-x,1/4-z
15 x,1/2+y,-z
16 3/4-y,3/4+x,3/4-z
_cell_length_a                   16.515(6)
_cell_length_b                   16.515(6)
_cell_length_c                   18.161(7)
_cell_angle_alpha                90
_cell_angle_beta                 90
_cell_angle_gamma                90
_cell_volume                     4953.33
loop_
_atom_site_label
_atom_site_type_symbol
_atom_site_fract_x
_atom_site_fract_y
_atom_site_fract_z
_atom_site_U_iso_or_equiv
_atom_site_thermal_displace_type
Co1 Co 0.92367(4) 0.50966(4) 0.41684(4) 0.0450 Uani
O1 O 0.8829(3) 0.6144(2) 0.4904(2) 0.0610 Uani
O2 O 0.7991(3) 0.5505(2) 0.1618(2) 0.0783 Uani
O3 O 0.9573(2) 0.4248(2) 0.3387(2) 0.0767 Uani
N1 N 0.8734(2) 0.5943(2) 0.3471(2) 0.0420 Uani
N2 N 0.8095(2) 0.7113(2) 0.3266(2) 0.0433 Uani
N3 N 0.8055(2) 0.6652(2) 0.2624(2) 0.0453 Uani
C1 C 0.8501(3) 0.6669(3) 0.3743(3) 0.0423 Uani
C2 C 0.8441(3) 0.5970(3) 0.2773(3) 0.0463 Uani
C3 C 0.8691(4) 0.6874(3) 0.4526(3) 0.0617 Uani
H1 H 0.9168 0.7216 0.4550 0.0740 Uiso
H2 H 0.8241 0.7163 0.4747 0.0740 Uiso
C4 C 0.8493(4) 0.5306(3) 0.2218(3) 0.0663 Uani
H3 H 0.9048 0.5242 0.2053 0.0800 Uiso
H4 H 0.8318 0.4799 0.2436 0.0800 Uiso
H5 H 0.842(5) 0.586(7) 0.480(7) 0.2700 Uiso
Co1E Co 0.74034(4) 0.67367(4) 0.16684(4) 0.0450 Uani
Co1I Co 0.75966(4) 0.82633(4) 0.33316(4) 0.0450 Uani
O2G O 0.8005(2) 0.4509(3) 0.4118(2) 0.0783 Uani
N2O N 1.0387(2) 0.5595(2) 0.4234(2) 0.0433 Uani
N3G N 0.9152(2) 0.4445(2) 0.5124(2) 0.0453 Uani
loop_
_atom_site_aniso_label
_atom_site_aniso_U_11
_atom_site_aniso_U_22
_atom_site_aniso_U_33
_atom_site_aniso_U_23
_atom_site_aniso_U_13
_atom_site_aniso_U_12
Co1 0.0408(4) 0.0454(4) 0.0489(4) 0.0136(3) -0.0057(3) -0.0032(3)
O1 0.077(3) 0.051(2) 0.055(2) 0.0096(19) -0.004(2) 0.018(2)
O2 0.108(3) 0.057(2) 0.070(3) -0.023(2) -0.045(3) 0.033(2)
O3 0.092(3) 0.067(3) 0.071(3) -0.012(2) -0.008(2) 0.004(2)
N1 0.040(2) 0.040(2) 0.046(3) 0.0001(19) -0.005(2) 0.0060(18)
N2 0.045(2) 0.039(2) 0.046(2) -0.003(2) -0.013(2) 0.0013(19)
N3 0.045(2) 0.041(2) 0.050(3) -0.003(2) -0.012(2) 0.0009(19)
C1 0.042(3) 0.040(3) 0.045(3) 0.006(2) -0.005(2) 0.000(2)
C2 0.039(3) 0.038(3) 0.062(4) 0.001(3) -0.012(3) 0.001(2)
C3 0.068(4) 0.063(4) 0.054(3) -0.002(3) -0.015(3) 0.011(3)
C4 0.082(4) 0.055(4) 0.062(4) -0.001(3) -0.024(3) 0.017(3)
Co1E 0.0454 0.0408 0.0489 -0.0057 -0.0136 0.0032
Co1I 0.0454 0.0408 0.0489 -0.0057 -0.0136 0.0032
O2G 0.057 0.108 0.07 0.045 -0.023 -0.033
N2O 0.039 0.045 0.046 0.013 -0.003 -0.0013
N3G 0.041 0.045 0.05 0.012 -0.003 -0.0009
loop_
_geom_bond_atom_site_label_1
_geom_bond_atom_site_label_2
_geom_bond_site_symmetry_1
_geom_bond_site_symmetry_2
Co1 O1 1_555 1_555
O1 C3 1_555 1_555
O2 C4 1_555 1_555
O3 Co1 1_555 1_555
N1 Co1 1_555 1_555
N2 N3 1_555 1_555
N3 C2 1_555 1_555
C1 N1 1_555 1_555
C2 N1 1_555 1_555
C3 C1 1_555 1_555
H1 C3 1_555 1_555
H2 C3 1_555 1_555
C4 C2 1_555 1_555
H3 C4 1_555 1_555
H4 C4 1_555 1_555
H5 O1 1_555 1_555
Co1E O2 1_555 1_555
Co1I N2 1_555 1_555
O2G Co1 1_555 1_555
N2O Co1 1_555 1_555
N3G Co1 1_555 1_555
N2 C1 1_555 1_555
N3 Co1E 1_555 1_555

#END
