
#######################################################################
#
#                 Cambridge Crystallographic Data Centre
#                                CCDC 
#
#######################################################################
#
# If this CIF has been generated from an entry in the Cambridge 
# Structural Database, then it will include bibliographic, chemical, 
# crystal, experimental, refinement or atomic coordinate data resulting 
# from the CCDC's data processing and validation procedures.
#
#######################################################################

data_DAGJED
_chemical_formula_moiety         '(C96 H93 Cd3 N15 O21)n'
_symmetry_cell_setting           triclinic
_symmetry_space_group_name_H-M   'P -1'
_symmetry_Int_Tables_number      2
_space_group_name_Hall           '-P 1'
loop_
_symmetry_equiv_pos_site_id
_symmetry_equiv_pos_as_xyz
1 x,y,z
2 -x,-y,-z
_cell_length_a                   8.945(5)
_cell_length_b                   14.856(5)
_cell_length_c                   19.861(5)
_cell_angle_alpha                91.644(5)
_cell_angle_beta                 101.974(5)
_cell_angle_gamma                93.755(5)
_cell_volume                     2573.88
loop_
_atom_site_label
_atom_site_type_symbol
_atom_site_fract_x
_atom_site_fract_y
_atom_site_fract_z
Cd1 Cd 0.95981(3) 1.02052(2) 1.27183(2)
Cd2 Cd 0.0000 0.5000 1.0000
N1 N 0.7845(3) 0.9680(2) 1.17891(15)
N2 N 0.6580(3) 0.8994(2) 1.08237(14)
N3 N 0.2111(4) 0.5470(2) 0.96044(15)
N4 N 0.4042(3) 0.6378(2) 0.94616(15)
N5 N 0.8509(3) 0.91339(19) 0.77785(15)
N6 N 0.6971(3) 0.8621(2) 0.84331(14)
N7 N 0.7949(8) 0.9176(5) 1.4461(3)
O1 O -0.1602(3) 0.52699(18) 0.89670(12)
O2 O -0.0851(3) 0.67361(18) 0.89670(13)
O3 O -0.0189(3) 0.13819(17) 0.35219(14)
O4 O -0.2078(3) 0.15518(18) 0.26364(14)
O5 O -0.8510(4) 0.87443(19) 0.23842(15)
O6 O -0.8664(3) 0.94224(19) 0.33649(14)
O7 O 0.7834(3) 0.9460(2) 1.33410(15)
O8 O 0.0457(3) 0.34899(18) 0.96595(14)
H1 H -0.0412 0.3241 0.9322
H2 H 0.0602 0.3123 1.0055
C1 C 0.6831(4) 0.8806(2) 0.96325(18)
H3 H 0.7428 0.9349 0.9670
C2 C 0.6265(4) 0.8482(2) 1.01876(18)
C3 C 0.5366(4) 0.7678(2) 1.01364(18)
H4 H 0.5002 0.7469 1.0514
C4 C 0.5019(4) 0.7189(2) 0.95103(18)
C5 C 0.5565(4) 0.7486(2) 0.89493(18)
H5 H 0.5330 0.7154 0.8532
C6 C 0.6472(4) 0.8290(2) 0.90227(18)
C7 C 0.7967(4) 0.9294(2) 1.12041(18)
H6 H 0.8890 0.9232 1.1068
C8 C 0.6301(5) 0.9632(3) 1.1787(2)
H7 H 0.5872 0.9854 1.2141
C9 C 0.5503(4) 0.9217(3) 1.1198(2)
H8 H 0.4445 0.9103 1.1069
C10 C 0.2768(4) 0.6286(2) 0.97112(18)
H9 H 0.2392 0.6752 0.9936
C11 C 0.3025(6) 0.5008(3) 0.9265(3)
H10 H 0.2852 0.4402 0.9122
C12 C 0.4211(6) 0.5559(3) 0.9169(3)
H11 H 0.4988 0.5412 0.8947
C13 C 0.8419(4) 0.8925(2) 0.84038(18)
H12 H 0.9241 0.8978 0.8780
C14 C 0.7055(4) 0.8960(2) 0.73832(18)
H13 H 0.6775 0.9051 0.6914
C15 C 0.6098(4) 0.8641(2) 0.77742(18)
H14 H 0.5060 0.8468 0.7630
C16 C -0.1422(4) 0.6004(3) 0.86687(18)
C17 C -0.1891(4) 0.5961(2) 0.78944(17)
C18 C -0.2451(4) 0.5151(2) 0.75288(18)
H15 H -0.2611 0.4634 0.7766
C19 C -0.2768(4) 0.5111(2) 0.68189(18)
H16 H -0.3125 0.4564 0.6583
C20 C -0.2563(4) 0.5875(2) 0.64482(16)
C21 C -0.2046(4) 0.6688(2) 0.68124(17)
H17 H -0.1926 0.7209 0.6575
C22 C -0.1709(4) 0.6729(2) 0.75232(17)
H18 H -0.1355 0.7277 0.7758
C23 C -0.2913(4) 0.5808(2) 0.56813(16)
C24 C -0.2535(4) 0.5057(2) 0.53353(17)
H19 H -0.2036 0.4606 0.5588
C25 C -0.2886(4) 0.4966(2) 0.46210(16)
C26 C -0.3637(4) 0.5647(2) 0.42521(17)
H20 H -0.3852 0.5601 0.3773
C27 C -0.4076(4) 0.6395(2) 0.45837(16)
C28 C -0.3675(4) 0.6476(2) 0.53003(16)
H21 H -0.3920 0.6984 0.5528
C29 C -0.2483(4) 0.4152(2) 0.42684(17)
C30 C -0.3429(4) 0.3778(2) 0.36625(19)
H22 H -0.4339 0.4036 0.3483
C31 C -0.3035(4) 0.3034(2) 0.33269(19)
H23 H -0.3671 0.2809 0.2917
C32 C -0.1715(4) 0.2614(2) 0.35869(18)
C33 C -0.0774(4) 0.2973(2) 0.41961(18)
H24 H 0.0117 0.2700 0.4383
C34 C -0.1152(4) 0.3732(2) 0.45260(18)
H25 H -0.0501 0.3966 0.4929
C35 C -0.1298(4) 0.1792(2) 0.3221(2)
C36 C -0.5037(4) 0.7065(2) 0.41882(17)
C37 C -0.5021(4) 0.7210(3) 0.35010(19)
H26 H -0.4345 0.6913 0.3290
C38 C -0.5994(5) 0.7791(3) 0.31226(19)
H27 H -0.5971 0.7869 0.2662
C39 C -0.6997(4) 0.8256(2) 0.34222(18)
C40 C -0.7001(5) 0.8119(3) 0.4108(2)
H28 H -0.7654 0.8430 0.4322
C41 C -0.6053(4) 0.7529(3) 0.44803(19)
H29 H -0.6099 0.7441 0.4938
C42 C -0.8137(4) 0.8850(2) 0.3019(2)
C43 C 0.7396(8) 0.9651(5) 1.3877(4)
C44 C 0.6278(8) 1.0319(4) 1.3980(3)
H30 H 0.5434 1.0016 1.4132
H31 H 0.5907 1.0597 1.3553
H32 H 0.6774 1.0773 1.4321
C45 C 0.7394(8) 0.9312(5) 1.5094(2)
H33 H 0.7191 0.9934 1.5148
H34 H 0.8156 0.9155 1.5480
H35 H 0.6468 0.8936 1.5072
C46 C 0.8966(7) 0.8473(4) 1.4344(3)
H36 H 0.8505 0.7891 1.4414
H37 H 0.9934 0.8577 1.4662
H38 H 0.9123 0.8492 1.3881
Cd1A Cd -0.95981(3) -0.02052(2) 0.72817(2)
N1A N -0.7845(3) 0.0320(2) 0.82109(15)
N2A N -0.6580(3) 0.1006(2) 0.91763(14)
N3A N -0.2111(4) 0.4530(2) 1.03956(15)
N4A N -0.4042(3) 0.3622(2) 1.05384(15)
N5A N -0.8509(3) 0.08661(19) 1.22215(15)
N6A N -0.6971(3) 0.1379(2) 1.15669(14)
N7A N -0.7949(8) 0.0824(5) 0.5539(3)
O1A O 0.1602(3) 0.47301(18) 1.10330(12)
O2A O 0.0851(3) 0.32639(18) 1.10330(13)
O3A O 0.0189(3) 0.86181(17) 1.64781(14)
O4A O 0.2078(3) 0.84482(18) 1.73636(14)
O5A O 0.8510(4) 0.12557(19) 1.76158(15)
O6A O 0.8664(3) 0.05776(19) 1.66351(14)
O7A O -0.7834(3) 0.0540(2) 0.66590(15)
O8A O -0.0457(3) 0.65101(18) 1.03405(14)
H1A H 0.0412 0.6759 1.0678
H2A H -0.0602 0.6877 0.9945
C1A C -0.6831(4) 0.1194(2) 1.03675(18)
H3A H -0.7428 0.0651 1.0330
C2A C -0.6265(4) 0.1518(2) 0.98124(18)
C3A C -0.5366(4) 0.2322(2) 0.98636(18)
H4A H -0.5002 0.2531 0.9486
C4A C -0.5019(4) 0.2811(2) 1.04897(18)
C5A C -0.5565(4) 0.2514(2) 1.10507(18)
H5A H -0.5330 0.2846 1.1468
C6A C -0.6472(4) 0.1710(2) 1.09773(18)
C7A C -0.7967(4) 0.0706(2) 0.87959(18)
H6A H -0.8890 0.0768 0.8932
C8A C -0.6301(5) 0.0368(3) 0.8213(2)
H7A H -0.5872 0.0146 0.7859
C9A C -0.5503(4) 0.0783(3) 0.8802(2)
H8A H -0.4445 0.0897 0.8931
C10A C -0.2768(4) 0.3714(2) 1.02888(18)
H9A H -0.2392 0.3248 1.0064
C11A C -0.3025(6) 0.4992(3) 1.0735(3)
H10A H -0.2852 0.5598 1.0878
C12A C -0.4211(6) 0.4441(3) 1.0831(3)
H11A H -0.4988 0.4588 1.1053
C13A C -0.8419(4) 0.1075(2) 1.15962(18)
H12A H -0.9241 0.1022 1.1220
C14A C -0.7055(4) 0.1040(2) 1.26168(18)
H13A H -0.6775 0.0949 1.3086
C15A C -0.6098(4) 0.1359(2) 1.22258(18)
H14A H -0.5060 0.1532 1.2370
C16A C 0.1422(4) 0.3996(3) 1.13313(18)
C17A C 0.1891(4) 0.4039(2) 1.21056(17)
C18A C 0.2451(4) 0.4849(2) 1.24712(18)
H15A H 0.2611 0.5366 1.2234
C19A C 0.2768(4) 0.4889(2) 1.31811(18)
H16A H 0.3125 0.5436 1.3417
C20A C 0.2563(4) 0.4125(2) 1.35518(16)
C21A C 0.2046(4) 0.3312(2) 1.31876(17)
H17A H 0.1926 0.2791 1.3425
C22A C 0.1709(4) 0.3271(2) 1.24768(17)
H18A H 0.1355 0.2723 1.2242
C23A C 0.2913(4) 0.4192(2) 1.43187(16)
C24A C 0.2535(4) 0.4943(2) 1.46647(17)
H19A H 0.2036 0.5394 1.4412
C25A C 0.2886(4) 0.5034(2) 1.53790(16)
C26A C 0.3637(4) 0.4353(2) 1.57479(17)
H20A H 0.3852 0.4399 1.6227
C27A C 0.4076(4) 0.3605(2) 1.54163(16)
C28A C 0.3675(4) 0.3524(2) 1.46997(16)
H21A H 0.3920 0.3016 1.4472
C29A C 0.2483(4) 0.5848(2) 1.57316(17)
C30A C 0.3429(4) 0.6222(2) 1.63375(19)
H22A H 0.4339 0.5964 1.6517
C31A C 0.3035(4) 0.6966(2) 1.66731(19)
H23A H 0.3671 0.7191 1.7083
C32A C 0.1715(4) 0.7386(2) 1.64131(18)
C33A C 0.0774(4) 0.7027(2) 1.58039(18)
H24A H -0.0117 0.7300 1.5617
C34A C 0.1152(4) 0.6268(2) 1.54740(18)
H25A H 0.0501 0.6034 1.5071
C35A C 0.1298(4) 0.8208(2) 1.6779(2)
C36A C 0.5037(4) 0.2935(2) 1.58118(17)
C37A C 0.5021(4) 0.2790(3) 1.64990(19)
H26A H 0.4345 0.3087 1.6710
C38A C 0.5994(5) 0.2209(3) 1.68774(19)
H27A H 0.5971 0.2131 1.7338
C39A C 0.6997(4) 0.1744(2) 1.65778(18)
C40A C 0.7001(5) 0.1881(3) 1.5892(2)
H28A H 0.7654 0.1570 1.5678
C41A C 0.6053(4) 0.2471(3) 1.55197(19)
H29A H 0.6099 0.2559 1.5062
C42A C 0.8137(4) 0.1150(2) 1.6981(2)
C43A C -0.7396(8) 0.0349(5) 0.6123(4)
C44A C -0.6278(8) -0.0319(4) 0.6020(3)
H30A H -0.5434 -0.0016 0.5868
H31A H -0.5907 -0.0597 0.6447
H32A H -0.6774 -0.0773 0.5679
C45A C -0.7394(8) 0.0688(5) 0.4906(2)
H33A H -0.7191 0.0066 0.4852
H34A H -0.8156 0.0845 0.4520
H35A H -0.6468 0.1064 0.4928
C46A C -0.8966(7) 0.1527(4) 0.5656(3)
H36A H -0.8505 0.2109 0.5586
H37A H -0.9934 0.1423 0.5338
H38A H -0.9123 0.1508 0.6119
Cd1_2 Cd -1.04019(3) 0.02052(2) 1.27183(2)
Cd1_3 Cd -1.04019(3) 1.02052(2) 0.27183(2)
Cd1_4 Cd -0.04019(3) 0.02052(2) 0.27183(2)
Cd1A_2 Cd 0.04019(3) 0.97948(2) 1.72817(2)
Cd1A_3 Cd 1.04019(3) -0.02052(2) 1.72817(2)
Cd1A_4 Cd 1.04019(3) 0.97948(2) 0.72817(2)
N5_2 N -1.1491(3) -0.08661(19) 0.77785(15)
N5A_2 N 1.1491(3) 1.08661(19) 1.22215(15)
O3_2 O 0.9811(3) 1.13819(17) 1.35219(14)
O3A_2 O -0.9811(3) -0.13819(17) 0.64781(14)
O4_2 O 0.7922(3) 1.15518(18) 1.26364(14)
O4A_2 O -0.7922(3) -0.15518(18) 0.73636(14)
O6_2 O 1.1336(3) 0.94224(19) 1.33649(14)
O6A_2 O -1.1336(3) 0.05776(19) 0.66351(14)
O9 O 0.3562(4) 0.6404(2) 0.13258(16)
H39 H 0.2834 0.5886 0.1202
H40 H 0.4613 0.6351 0.1680
O10 O 0.1710(4) 0.7818(2) 0.11764(16)
H41 H 0.2534 0.7357 0.1291
H42 H 0.1639 0.8069 0.1554
O11 O 0.1691(4) 0.7955(2) 0.87753(18)
H43 H 0.0973 0.7439 0.8737
H44 H 0.1878 0.8083 0.8382
O12 O 0.1704(6) 0.9020(3) 1.0016(3)
H45 H 0.1797 0.8655 0.9692
H46 H 0.1348 0.8604 1.0236
C48 C 0.7281(10) 0.6455(5) 0.2285(4)
C49 C 0.7477(8) 0.7410(4) 0.2128(4)
H47 H 0.6507 0.7619 0.1911
H48 H 0.7879 0.7757 0.2549
H49 H 0.8180 0.7479 0.1824
C50 C 0.8437(9) 0.5075(4) 0.2653(5)
H50 H 0.7376 0.4881 0.2615
H51 H 0.8817 0.4783 0.2292
H52 H 0.9014 0.4918 0.3092
C51 C 1.0066(8) 0.6600(5) 0.2640(8)
H53 H 0.9897 0.7228 0.2588
H54 H 1.0730 0.6523 0.3077
H55 H 1.0533 0.6387 0.2277
N9 N 0.8614(8) 0.6094(5) 0.2605(5)
O13 O 0.6100(4) 0.5937(3) 0.2223(2)
loop_
_geom_bond_atom_site_label_1
_geom_bond_atom_site_label_2
_geom_bond_site_symmetry_1
_geom_bond_site_symmetry_2
Cd1 N1 1_555 1_555
Cd2 N3 1_555 1_555
N1 C7 1_555 1_555
N2 C2 1_555 1_555
N3 C10 1_555 1_555
N4 C4 1_555 1_555
N5 C13 1_555 1_555
N6 C6 1_555 1_555
N7 C43 1_555 1_555
O1 Cd2 1_555 1_555
O2 C16 1_555 1_555
O3 C35 1_555 1_555
O4 C35 1_555 1_555
O5 C42 1_555 1_555
O6 C42 1_555 1_555
O7 Cd1 1_555 1_555
O8 Cd2 1_555 1_555
H1 O8 1_555 1_555
H2 O8 1_555 1_555
C1 H3 1_555 1_555
C2 C1 1_555 1_555
C3 C2 1_555 1_555
H4 C3 1_555 1_555
C4 C3 1_555 1_555
C5 C4 1_555 1_555
H5 C5 1_555 1_555
C6 C1 1_555 1_555
C7 N2 1_555 1_555
H6 C7 1_555 1_555
C8 N1 1_555 1_555
H7 C8 1_555 1_555
C9 N2 1_555 1_555
H8 C9 1_555 1_555
C10 N4 1_555 1_555
H9 C10 1_555 1_555
C11 N3 1_555 1_555
H10 C11 1_555 1_555
C12 N4 1_555 1_555
H11 C12 1_555 1_555
C13 N6 1_555 1_555
H12 C13 1_555 1_555
C14 N5 1_555 1_555
H13 C14 1_555 1_555
C15 N6 1_555 1_555
H14 C15 1_555 1_555
C16 O1 1_555 1_555
C17 C16 1_555 1_555
C18 C17 1_555 1_555
H15 C18 1_555 1_555
C19 C18 1_555 1_555
H16 C19 1_555 1_555
C20 C19 1_555 1_555
C21 C20 1_555 1_555
H17 C21 1_555 1_555
C22 C17 1_555 1_555
H18 C22 1_555 1_555
C23 C20 1_555 1_555
C24 C23 1_555 1_555
H19 C24 1_555 1_555
C25 C24 1_555 1_555
C26 C25 1_555 1_555
H20 C26 1_555 1_555
C27 C26 1_555 1_555
C28 C23 1_555 1_555
H21 C28 1_555 1_555
C29 C25 1_555 1_555
C30 C29 1_555 1_555
H22 C30 1_555 1_555
C31 C30 1_555 1_555
H23 C31 1_555 1_555
C32 C31 1_555 1_555
C33 C32 1_555 1_555
H24 C33 1_555 1_555
C34 C29 1_555 1_555
H25 C34 1_555 1_555
C35 C32 1_555 1_555
C36 C27 1_555 1_555
C37 C36 1_555 1_555
H26 C37 1_555 1_555
C38 C37 1_555 1_555
H27 C38 1_555 1_555
C39 C38 1_555 1_555
C40 C39 1_555 1_555
H28 C40 1_555 1_555
C41 C36 1_555 1_555
H29 C41 1_555 1_555
C42 C39 1_555 1_555
C43 O7 1_555 1_555
C44 C43 1_555 1_555
H30 C44 1_555 1_555
H31 C44 1_555 1_555
H32 C44 1_555 1_555
C45 N7 1_555 1_555
H33 C45 1_555 1_555
H34 C45 1_555 1_555
H35 C45 1_555 1_555
C46 N7 1_555 1_555
H36 C46 1_555 1_555
H37 C46 1_555 1_555
H38 C46 1_555 1_555
O9 H39 1_555 1_555
H40 O9 1_555 1_555
O10 H41 1_555 1_555
H42 O10 1_555 1_555
O11 H43 1_555 1_555
H44 O11 1_555 1_555
O12 H45 1_555 1_555
H46 O12 1_555 1_555
C48 C49 1_555 1_555
C49 H47 1_555 1_555
H48 C49 1_555 1_555
H49 C49 1_555 1_555
C50 H50 1_555 1_555
H51 C50 1_555 1_555
H52 C50 1_555 1_555
C51 H53 1_555 1_555
H54 C51 1_555 1_555
H55 C51 1_555 1_555
N9 C48 1_555 1_555
O13 C48 1_555 1_555
Cd1A N1A 1_555 1_555
N1A C7A 1_555 1_555
N2A C2A 1_555 1_555
N3A Cd2 1_555 1_555
N4A C4A 1_555 1_555
N5A C13A 1_555 1_555
N6A C6A 1_555 1_555
N7A C43A 1_555 1_555
O1A Cd2 1_555 1_555
O2A C16A 1_555 1_555
O3A C35A 1_555 1_555
O4A C35A 1_555 1_555
O5A C42A 1_555 1_555
O6A C42A 1_555 1_555
O7A Cd1A 1_555 1_555
O8A Cd2 1_555 1_555
H1A O8A 1_555 1_555
H2A O8A 1_555 1_555
C1A H3A 1_555 1_555
C2A C1A 1_555 1_555
C3A C2A 1_555 1_555
H4A C3A 1_555 1_555
C4A C3A 1_555 1_555
C5A C4A 1_555 1_555
H5A C5A 1_555 1_555
C6A C1A 1_555 1_555
C7A N2A 1_555 1_555
H6A C7A 1_555 1_555
C8A N1A 1_555 1_555
H7A C8A 1_555 1_555
C9A N2A 1_555 1_555
H8A C9A 1_555 1_555
C10A N3A 1_555 1_555
H9A C10A 1_555 1_555
C11A N3A 1_555 1_555
H10A C11A 1_555 1_555
C12A N4A 1_555 1_555
H11A C12A 1_555 1_555
C13A N6A 1_555 1_555
H12A C13A 1_555 1_555
C14A N5A 1_555 1_555
H13A C14A 1_555 1_555
C15A N6A 1_555 1_555
H14A C15A 1_555 1_555
C16A O1A 1_555 1_555
C17A C16A 1_555 1_555
C18A C17A 1_555 1_555
H15A C18A 1_555 1_555
C19A C18A 1_555 1_555
H16A C19A 1_555 1_555
C20A C19A 1_555 1_555
C21A C20A 1_555 1_555
H17A C21A 1_555 1_555
C22A C17A 1_555 1_555
H18A C22A 1_555 1_555
C23A C20A 1_555 1_555
C24A C23A 1_555 1_555
H19A C24A 1_555 1_555
C25A C24A 1_555 1_555
C26A C25A 1_555 1_555
H20A C26A 1_555 1_555
C27A C26A 1_555 1_555
C28A C23A 1_555 1_555
H21A C28A 1_555 1_555
C29A C25A 1_555 1_555
C30A C29A 1_555 1_555
H22A C30A 1_555 1_555
C31A C30A 1_555 1_555
H23A C31A 1_555 1_555
C32A C31A 1_555 1_555
C33A C32A 1_555 1_555
H24A C33A 1_555 1_555
C34A C29A 1_555 1_555
H25A C34A 1_555 1_555
C35A C32A 1_555 1_555
C36A C27A 1_555 1_555
C37A C36A 1_555 1_555
H26A C37A 1_555 1_555
C38A C37A 1_555 1_555
H27A C38A 1_555 1_555
C39A C38A 1_555 1_555
C40A C39A 1_555 1_555
H28A C40A 1_555 1_555
C41A C36A 1_555 1_555
H29A C41A 1_555 1_555
C42A C39A 1_555 1_555
C43A O7A 1_555 1_555
C44A C43A 1_555 1_555
H30A C44A 1_555 1_555
H31A C44A 1_555 1_555
H32A C44A 1_555 1_555
C45A N7A 1_555 1_555
H33A C45A 1_555 1_555
H34A C45A 1_555 1_555
H35A C45A 1_555 1_555
C46A N7A 1_555 1_555
H36A C46A 1_555 1_555
H37A C46A 1_555 1_555
H38A C46A 1_555 1_555
Cd1_2 N5A 1_555 1_555
Cd1_3 O6 1_555 1_555
Cd1_4 O3 1_555 1_555
Cd1A_2 O3A 1_555 1_555
Cd1A_3 O6A 1_555 1_555
Cd1A_4 N5 1_555 1_555
N5_2 Cd1A 1_555 1_555
N5A_2 Cd1 1_555 1_555
O3_2 Cd1 1_555 1_555
O3A_2 Cd1A 1_555 1_555
O4_2 Cd1 1_555 1_555
O4A_2 Cd1A 1_555 1_555
O6_2 Cd1 1_555 1_555
O6A_2 Cd1A 1_555 1_555
O4 Cd1_4 1_555 1_555
C5 C6 1_555 1_555
C8 C9 1_555 1_555
C11 C12 1_555 1_555
C14 C15 1_555 1_555
C21 C22 1_555 1_555
C27 C28 1_555 1_555
C33 C34 1_555 1_555
C40 C41 1_555 1_555
C50 N9 1_555 1_555
C51 N9 1_555 1_555
N4A C10A 1_555 1_555
O4A Cd1A_2 1_555 1_555
C5A C6A 1_555 1_555
C8A C9A 1_555 1_555
C11A C12A 1_555 1_555
C14A C15A 1_555 1_555
C21A C22A 1_555 1_555
C27A C28A 1_555 1_555
C33A C34A 1_555 1_555
C40A C41A 1_555 1_555

#END
