
#######################################################################
#
#                 Cambridge Crystallographic Data Centre
#                                CCDC 
#
#######################################################################
#
# If this CIF has been generated from an entry in the Cambridge 
# Structural Database, then it will include bibliographic, chemical, 
# crystal, experimental, refinement or atomic coordinate data resulting 
# from the CCDC's data processing and validation procedures.
#
#######################################################################

data_BUCSEY
_chemical_formula_moiety         '(C52 H44 Fe4 Ni3 O20 2+)n'
_symmetry_cell_setting           monoclinic
_symmetry_space_group_name_H-M   'P 21/n'
_symmetry_Int_Tables_number      14
_space_group_name_Hall           '-P 2yn'
loop_
_symmetry_equiv_pos_site_id
_symmetry_equiv_pos_as_xyz
1 x,y,z
2 1/2-x,1/2+y,1/2-z
3 -x,-y,-z
4 1/2+x,1/2-y,1/2+z
_cell_length_a                   13.4422(19)
_cell_length_b                   15.265(2)
_cell_length_c                   15.858(2)
_cell_angle_alpha                90
_cell_angle_beta                 94.543(2)
_cell_angle_gamma                90
_cell_volume                     3243.76
loop_
_atom_site_label
_atom_site_type_symbol
_atom_site_fract_x
_atom_site_fract_y
_atom_site_fract_z
Ni1 Ni 0.0000 0.0000 0.0000
Ni2 Ni -0.26204(8) 0.40944(7) -0.50295(7)
Fe1 Fe -0.21482(13) 0.15315(11) 0.25792(11)
Fe2 Fe -0.24385(17) 0.18834(12) -0.22419(12)
O1 O -0.3985(6) 0.3376(5) 0.3282(5)
O2 O -0.2408(5) 0.3578(4) 0.3783(4)
O3 O -0.0829(5) 0.0843(4) 0.0634(4)
O4 O -0.2370(5) 0.0317(4) 0.0534(5)
O5 O -0.1109(5) 0.4230(6) -0.4854(6)
H1 H -0.0965 0.4567 -0.4443
O6 O -0.0861(4) -0.1072(3) 0.0224(3)
H2 H -0.0704 -0.1258 0.0818
H3 H -0.0664 -0.1556 -0.0143
O7 O -0.2248(5) -0.0397(4) -0.1153(4)
O8 O -0.0776(5) 0.0269(4) -0.1109(4)
O9 O -0.4013(6) 0.2585(5) -0.4205(5)
O10 O -0.2456(5) 0.2880(4) -0.4497(4)
C1 C -0.3045(8) 0.3300(7) 0.3268(6)
C2 C -0.2708(8) 0.2769(7) 0.2518(6)
C3 C -0.1706(8) 0.2762(7) 0.2310(7)
H4 H -0.1236 0.3145 0.2597
C4 C -0.1401(8) 0.2213(7) 0.1704(7)
H5 H -0.0736 0.2250 0.1543
C5 C -0.2074(8) 0.1578(6) 0.1303(6)
C6 C -0.3080(7) 0.1611(7) 0.1493(7)
H6 H -0.3548 0.1220 0.1215
C7 C -0.3409(8) 0.2219(7) 0.2090(7)
H7 H -0.4093 0.2251 0.2196
C8 C -0.1744(7) 0.0848(6) 0.0763(5)
C9 C -0.189(2) 0.1354(12) 0.3869(10)
H8 H -0.1935 0.1791 0.4291
C10 C -0.1056(16) 0.1086(13) 0.3440(13)
H9 H -0.0400 0.1320 0.3509
C11 C -0.1400(18) 0.0392(11) 0.2883(9)
H10 H -0.0983 0.0063 0.2544
C12 C -0.2411(19) 0.0261(14) 0.2902(17)
H11 H -0.2821 -0.0126 0.2557
C13 C -0.2683(16) 0.0770(18) 0.3482(15)
H12 H -0.3345 0.0774 0.3652
C14 C -0.1603(7) 0.0119(6) -0.1421(6)
C15 C -0.1965(7) 0.0616(6) -0.2217(6)
C16 C -0.2966(9) 0.0662(8) -0.2475(8)
H13 H -0.3425 0.0313 -0.2196
C17 C -0.3315(8) 0.1199(8) -0.3125(8)
H14 H -0.4006 0.1182 -0.3307
C18 C -0.2704(7) 0.1763(6) -0.3526(6)
C19 C -0.1691(8) 0.1703(7) -0.3269(7)
H15 H -0.1230 0.2059 -0.3538
C20 C -0.1338(8) 0.1135(7) -0.2632(6)
H16 H -0.0641 0.1107 -0.2480
C21 C -0.3084(8) 0.2468(7) -0.4125(7)
C22 C -0.2885(16) 0.2175(10) -0.1075(9)
H17 H -0.3197 0.1800 -0.0697
C23 C -0.3374(15) 0.2649(12) -0.1759(13)
H18 H -0.4070 0.2647 -0.1918
C24 C -0.264(2) 0.3127(9) -0.2162(9)
H19 H -0.2758 0.3501 -0.2638
C25 C -0.1696(17) 0.2949(10) -0.1727(12)
H20 H -0.1073 0.3182 -0.1862
C26 C -0.1849(16) 0.2360(9) -0.1056(9)
H21 H -0.1345 0.2131 -0.0663
H22 H -0.0731 0.3785 -0.4959
Ni2C Ni 0.23796(8) 0.09056(7) -0.00295(7)
Ni2_2 Ni -0.26204(8) 0.40944(7) 0.49705(7)
Ni2A Ni -0.23796(8) -0.09056(7) 0.00295(7)
Ni2B Ni 0.26204(8) -0.40944(7) -0.49705(7)
Ni2B_2 Ni 0.26204(8) -0.40944(7) 0.50295(7)
Fe1B Fe 0.21482(13) -0.15315(11) -0.25792(11)
Fe2B Fe 0.24385(17) -0.18834(12) 0.22419(12)
O1B O 0.3985(6) -0.3376(5) -0.3282(5)
O2B O 0.2408(5) -0.3578(4) -0.3783(4)
O2_2 O -0.2408(5) 0.3578(4) -0.6217(4)
O2B_2 O 0.2408(5) -0.3578(4) 0.6217(4)
O3B O 0.0829(5) -0.0843(4) -0.0634(4)
O4B O 0.2370(5) -0.0317(4) -0.0534(5)
O4A O -0.2630(5) 0.5317(4) -0.5534(5)
O4C O 0.2630(5) -0.5317(4) 0.5534(5)
O5B O 0.1109(5) -0.4230(6) 0.4854(6)
H1B H 0.0965 -0.4567 0.4443
O6B O 0.0861(4) 0.1072(3) -0.0224(3)
O6A O -0.4139(4) 0.3928(3) -0.5224(3)
O6C O 0.4139(4) -0.3928(3) 0.5224(3)
H2B H 0.0704 0.1258 -0.0818
H2A H -0.4296 0.3742 -0.5818
H2C H 0.4296 -0.3742 0.5818
H3B H 0.0664 0.1556 0.0143
H3A H -0.4336 0.3444 -0.4857
H3C H 0.4336 -0.3444 0.4857
O7B O 0.2248(5) 0.0397(4) 0.1153(4)
O7A O -0.2752(5) 0.4603(4) -0.3847(4)
O7C O 0.2752(5) -0.4603(4) 0.3847(4)
O8B O 0.0776(5) -0.0269(4) 0.1109(4)
O9B O 0.4013(6) -0.2585(5) 0.4205(5)
O10B O 0.2456(5) -0.2880(4) 0.4497(4)
C1B C 0.3045(8) -0.3300(7) -0.3268(6)
C2B C 0.2708(8) -0.2769(7) -0.2518(6)
C3B C 0.1706(8) -0.2762(7) -0.2310(7)
H4B H 0.1236 -0.3145 -0.2597
C4B C 0.1401(8) -0.2213(7) -0.1704(7)
H5B H 0.0736 -0.2250 -0.1543
C5B C 0.2074(8) -0.1578(6) -0.1303(6)
C6B C 0.3080(7) -0.1611(7) -0.1493(7)
H6B H 0.3548 -0.1220 -0.1215
C7B C 0.3409(8) -0.2219(7) -0.2090(7)
H7B H 0.4093 -0.2251 -0.2196
C8B C 0.1744(7) -0.0848(6) -0.0763(5)
C9B C 0.189(2) -0.1354(12) -0.3869(10)
H8B H 0.1935 -0.1791 -0.4291
C10B C 0.1056(16) -0.1086(13) -0.3440(13)
H9B H 0.0400 -0.1320 -0.3509
C11B C 0.1400(18) -0.0392(11) -0.2883(9)
H10B H 0.0983 -0.0063 -0.2544
C12B C 0.2411(19) -0.0261(14) -0.2902(17)
H11B H 0.2821 0.0126 -0.2557
C13B C 0.2683(16) -0.0770(18) -0.3482(15)
H12B H 0.3345 -0.0774 -0.3652
C14B C 0.1603(7) -0.0119(6) 0.1421(6)
C15B C 0.1965(7) -0.0616(6) 0.2217(6)
C16B C 0.2966(9) -0.0662(8) 0.2475(8)
H13B H 0.3425 -0.0313 0.2196
C17B C 0.3315(8) -0.1199(8) 0.3125(8)
H14B H 0.4006 -0.1182 0.3307
C18B C 0.2704(7) -0.1763(6) 0.3526(6)
C19B C 0.1691(8) -0.1703(7) 0.3269(7)
H15B H 0.1230 -0.2059 0.3538
C20B C 0.1338(8) -0.1135(7) 0.2632(6)
H16B H 0.0641 -0.1107 0.2480
C21B C 0.3084(8) -0.2468(7) 0.4125(7)
C22B C 0.2885(16) -0.2175(10) 0.1075(9)
H17B H 0.3197 -0.1800 0.0697
C23B C 0.3374(15) -0.2649(12) 0.1759(13)
H18B H 0.4070 -0.2647 0.1918
C24B C 0.264(2) -0.3127(9) 0.2162(9)
H19B H 0.2758 -0.3501 0.2638
C25B C 0.1696(17) -0.2949(10) 0.1727(12)
H20B H 0.1073 -0.3182 0.1862
C26B C 0.1849(16) -0.2360(9) 0.1056(9)
H21B H 0.1345 -0.2131 0.0663
H22B H 0.0731 -0.3785 0.4959
loop_
_geom_bond_atom_site_label_1
_geom_bond_atom_site_label_2
_geom_bond_site_symmetry_1
_geom_bond_site_symmetry_2
Ni1 O3 1_555 1_555
Ni2 O5 1_555 1_555
Fe1 C2 1_555 1_555
Fe2 C15 1_555 1_555
O1 C1 1_555 1_555
O2 C1 1_555 1_555
O3 C8 1_555 1_555
O4 C8 1_555 1_555
O5 H1 1_555 1_555
O6 Ni1 1_555 1_555
H2 O6 1_555 1_555
H3 O6 1_555 1_555
O7 C14 1_555 1_555
O8 Ni1 1_555 1_555
O9 C21 1_555 1_555
O10 Ni2 1_555 1_555
C1 C2 1_555 1_555
C2 C3 1_555 1_555
C3 Fe1 1_555 1_555
H4 C3 1_555 1_555
C4 Fe1 1_555 1_555
H5 C4 1_555 1_555
C5 Fe1 1_555 1_555
C6 Fe1 1_555 1_555
H6 C6 1_555 1_555
C7 Fe1 1_555 1_555
H7 C7 1_555 1_555
C8 C5 1_555 1_555
C9 Fe1 1_555 1_555
H8 C9 1_555 1_555
C10 Fe1 1_555 1_555
H9 C10 1_555 1_555
C11 Fe1 1_555 1_555
H10 C11 1_555 1_555
C12 Fe1 1_555 1_555
H11 C12 1_555 1_555
C13 Fe1 1_555 1_555
H12 C13 1_555 1_555
C14 O8 1_555 1_555
C15 C14 1_555 1_555
C16 Fe2 1_555 1_555
H13 C16 1_555 1_555
C17 Fe2 1_555 1_555
H14 C17 1_555 1_555
C18 Fe2 1_555 1_555
C19 Fe2 1_555 1_555
H15 C19 1_555 1_555
C20 Fe2 1_555 1_555
H16 C20 1_555 1_555
C21 O10 1_555 1_555
C22 Fe2 1_555 1_555
H17 C22 1_555 1_555
C23 Fe2 1_555 1_555
H18 C23 1_555 1_555
C24 Fe2 1_555 1_555
H19 C24 1_555 1_555
C25 Fe2 1_555 1_555
H20 C25 1_555 1_555
C26 Fe2 1_555 1_555
H21 C26 1_555 1_555
H22 O5 1_555 1_555
Ni2C O4B 1_555 1_555
Ni2_2 O2 1_555 1_555
Ni2A O4 1_555 1_555
Ni2B O2B 1_555 1_555
Ni2B_2 O2B_2 1_555 1_555
Fe1B C2B 1_555 1_555
Fe2B C15B 1_555 1_555
O1B C1B 1_555 1_555
O2B C1B 1_555 1_555
O2_2 Ni2 1_555 1_555
O3B Ni1 1_555 1_555
O4B C8B 1_555 1_555
O4A Ni2 1_555 1_555
O4C Ni2B_2 1_555 1_555
O5B Ni2B_2 1_555 1_555
H1B O5B 1_555 1_555
O6B Ni1 1_555 1_555
O6A Ni2 1_555 1_555
O6C Ni2B_2 1_555 1_555
H2B O6B 1_555 1_555
H2A O6A 1_555 1_555
H2C O6C 1_555 1_555
H3B O6B 1_555 1_555
H3A O6A 1_555 1_555
H3C O6C 1_555 1_555
O7B Ni2C 1_555 1_555
O7A Ni2 1_555 1_555
O7C Ni2B_2 1_555 1_555
O8B Ni1 1_555 1_555
O9B C21B 1_555 1_555
O10B Ni2B_2 1_555 1_555
C1B C2B 1_555 1_555
C2B C3B 1_555 1_555
C3B Fe1B 1_555 1_555
H4B C3B 1_555 1_555
C4B Fe1B 1_555 1_555
H5B C4B 1_555 1_555
C5B Fe1B 1_555 1_555
C6B Fe1B 1_555 1_555
H6B C6B 1_555 1_555
C7B Fe1B 1_555 1_555
H7B C7B 1_555 1_555
C8B O3B 1_555 1_555
C9B Fe1B 1_555 1_555
H8B C9B 1_555 1_555
C10B Fe1B 1_555 1_555
H9B C10B 1_555 1_555
C11B Fe1B 1_555 1_555
H10B C11B 1_555 1_555
C12B Fe1B 1_555 1_555
H11B C12B 1_555 1_555
C13B Fe1B 1_555 1_555
H12B C13B 1_555 1_555
C14B O7B 1_555 1_555
C15B C14B 1_555 1_555
C16B Fe2B 1_555 1_555
H13B C16B 1_555 1_555
C17B Fe2B 1_555 1_555
H14B C17B 1_555 1_555
C18B Fe2B 1_555 1_555
C19B Fe2B 1_555 1_555
H15B C19B 1_555 1_555
C20B Fe2B 1_555 1_555
H16B C20B 1_555 1_555
C21B O10B 1_555 1_555
C22B Fe2B 1_555 1_555
H17B C22B 1_555 1_555
C23B Fe2B 1_555 1_555
H18B C23B 1_555 1_555
C24B Fe2B 1_555 1_555
H19B C24B 1_555 1_555
C25B Fe2B 1_555 1_555
H20B C25B 1_555 1_555
C26B Fe2B 1_555 1_555
H21B C26B 1_555 1_555
H22B O5B 1_555 1_555
O6 Ni2A 1_555 1_555
O7 Ni2A 1_555 1_555
C2 C7 1_555 1_555
C3 C4 1_555 1_555
C4 C5 1_555 1_555
C5 C6 1_555 1_555
C6 C7 1_555 1_555
C9 C10 1_555 1_555
C9 C13 1_555 1_555
C10 C11 1_555 1_555
C11 C12 1_555 1_555
C12 C13 1_555 1_555
C15 C16 1_555 1_555
C15 C20 1_555 1_555
C16 C17 1_555 1_555
C17 C18 1_555 1_555
C18 C19 1_555 1_555
C18 C21 1_555 1_555
C19 C20 1_555 1_555
C22 C23 1_555 1_555
C22 C26 1_555 1_555
C23 C24 1_555 1_555
C24 C25 1_555 1_555
C25 C26 1_555 1_555
Ni2C O6B 1_555 1_555
O8B C14B 1_555 1_555
C2B C7B 1_555 1_555
C3B C4B 1_555 1_555
C4B C5B 1_555 1_555
C5B C6B 1_555 1_555
C5B C8B 1_555 1_555
C6B C7B 1_555 1_555
C9B C10B 1_555 1_555
C9B C13B 1_555 1_555
C10B C11B 1_555 1_555
C11B C12B 1_555 1_555
C12B C13B 1_555 1_555
C15B C16B 1_555 1_555
C15B C20B 1_555 1_555
C16B C17B 1_555 1_555
C17B C18B 1_555 1_555
C18B C19B 1_555 1_555
C18B C21B 1_555 1_555
C19B C20B 1_555 1_555
C22B C23B 1_555 1_555
C22B C26B 1_555 1_555
C23B C24B 1_555 1_555
C24B C25B 1_555 1_555
C25B C26B 1_555 1_555

#END
