
#######################################################################
#
#                 Cambridge Crystallographic Data Centre
#                                CCDC 
#
#######################################################################
#
# If this CIF has been generated from an entry in the Cambridge 
# Structural Database, then it will include bibliographic, chemical, 
# crystal, experimental, refinement or atomic coordinate data resulting 
# from the CCDC's data processing and validation procedures.
#
#######################################################################

data_BOTLED
_chemical_formula_moiety         '(C10 H12 Eu4 O28)n'
_symmetry_cell_setting           triclinic
_symmetry_space_group_name_H-M   'P -1'
_symmetry_Int_Tables_number      2
_space_group_name_Hall           '-P 1'
loop_
_symmetry_equiv_pos_site_id
_symmetry_equiv_pos_as_xyz
1 x,y,z
2 -x,-y,-z
_cell_length_a                   6.2924(7)
_cell_length_b                   8.6702(10)
_cell_length_c                   12.9527(15)
_cell_angle_alpha                105.432(2)
_cell_angle_beta                 90.451(2)
_cell_angle_gamma                105.1180(10)
_cell_volume                     655.329
loop_
_atom_site_label
_atom_site_type_symbol
_atom_site_fract_x
_atom_site_fract_y
_atom_site_fract_z
C1 C -0.0544(12) 0.5519(10) 1.0458(6)
C2 C 0.4052(16) 0.4205(13) 0.4795(8)
C3 C 0.2657(13) 1.1045(10) 0.7805(6)
Eu1 Eu 0.44137(7) 0.47133(5) 0.74264(3)
Eu2 Eu 0.19080(6) 0.83336(5) 0.92483(3)
O1 O 0.5125(9) 0.7692(7) 0.8395(5)
O2 O 0.7975(9) 0.6690(7) 0.8387(5)
O3 O 0.8397(9) 0.9319(7) 0.9245(5)
O4 O 0.3606(13) 0.3714(10) 0.3806(5)
O5 O 0.3140(11) 0.3508(9) 0.5464(5)
O6 O 0.1651(10) 0.9604(7) 0.7770(5)
O7 O 0.2337(10) 1.1835(7) 0.7168(5)
O8 O 0.5575(10) 1.3411(7) 0.8736(5)
O9 O 0.4942(9) 1.1160(7) 0.9335(5)
C4 C 0.7169(12) 0.7927(9) 0.8687(6)
C5 C 0.4565(12) 1.1967(10) 0.8711(6)
O10 O -0.0198(10) 0.7021(7) 1.0554(5)
O11 O 0.1407(5) 0.6016(4) 0.7052(3)
H1 H 0.1650 0.7111 0.6749
H2 H 0.1332 0.6461 0.7908
O12 O 0.7322(5) 0.3286(4) 0.6617(3)
H3 H 0.6098 0.2794 0.6599
H4 H 0.7692 0.3248 0.6023
O13 O -0.1733(5) 0.4715(4) 1.1032(3)
C1A C 0.0544(12) 0.4481(10) 0.9542(6)
O10A O 0.0198(10) 0.2979(7) 0.9446(5)
O13A O 0.1733(5) 0.5285(4) 0.8968(3)
C2A C 0.5948(16) 0.5795(13) 0.5205(8)
O4A O 0.6394(13) 0.6286(10) 0.6194(5)
O5A O 0.6860(11) 0.6492(9) 0.4536(5)
C3A C -0.2657(13) -0.1045(10) 1.2195(6)
Eu1A Eu -0.44137(7) 0.52867(5) 1.25736(3)
Eu2A Eu -0.19080(6) 0.16664(5) 1.07517(3)
O1A O -0.5125(9) 0.2308(7) 1.1605(5)
O2A O -0.7975(9) 0.3310(7) 1.1613(5)
O3A O -0.8397(9) 0.0681(7) 1.0755(5)
O6A O -0.1651(10) 0.0396(7) 1.2230(5)
O7A O -0.2337(10) -0.1835(7) 1.2832(5)
O8A O -0.5575(10) -0.3411(7) 1.1264(5)
O9A O -0.4942(9) -0.1160(7) 1.0665(5)
C4A C -0.7169(12) 0.2073(9) 1.1313(6)
C5A C -0.4565(12) -0.1967(10) 1.1289(6)
O11A O -0.1407(5) 0.3984(4) 1.2948(3)
H1A H -0.1650 0.2889 1.3251
H2A H -0.1332 0.3539 1.2092
O12A O -0.7322(5) 0.6714(4) 1.3383(3)
H3A H -0.6098 0.7206 1.3401
H4A H -0.7692 0.6752 1.3977
Eu1_2 Eu 0.44137(7) 1.47133(5) 0.74264(3)
Eu1A_2 Eu -0.44137(7) -0.47133(5) 1.25736(3)
Eu1A_3 Eu 0.55863(7) 0.52867(5) 0.25736(3)
Eu2_2 Eu -0.80920(6) -0.16664(5) 0.92483(3)
Eu2_3 Eu 1.19080(6) 0.83336(5) 0.92483(3)
Eu2A_2 Eu -1.19080(6) 0.16664(5) 1.07517(3)
Eu2A_3 Eu 0.80920(6) 1.16664(5) 1.07517(3)
O2_2 O -0.2025(9) 0.6690(7) 0.8387(5)
O2A_2 O 0.2025(9) 0.3310(7) 1.1613(5)
O3_2 O -0.1603(9) -0.0681(7) 0.9245(5)
O3_3 O -0.1603(9) 0.9319(7) 0.9245(5)
O3A_2 O 0.1603(9) 0.0681(7) 1.0755(5)
O3A_3 O 0.1603(9) 1.0681(7) 1.0755(5)
O4_2 O -0.6394(13) 0.3714(10) 1.3806(5)
O5A_2 O -0.3140(11) 0.6492(9) 1.4536(5)
O7_2 O 0.2337(10) 0.1835(7) 0.7168(5)
O7A_2 O -0.2337(10) 0.8165(7) 1.2832(5)
O8_2 O 0.5575(10) 0.3411(7) 0.8736(5)
O8A_2 O -0.5575(10) 0.6589(7) 1.1264(5)
O9_2 O -0.5058(9) 0.1160(7) 0.9335(5)
O9A_2 O 0.5058(9) 0.8840(7) 1.0665(5)
O14 O 0.7224(5) 0.0219(4) 0.6926(3)
O15 O 0.8626(5) 0.2378(4) 0.4572(3)
loop_
_geom_bond_atom_site_label_1
_geom_bond_atom_site_label_2
_geom_bond_site_symmetry_1
_geom_bond_site_symmetry_2
C1 O10 1_555 1_555
C2 O4 1_555 1_555
C3 O6 1_555 1_555
Eu1 O1 1_555 1_555
Eu2 O1 1_555 1_555
O1 C4 1_555 1_555
O2 Eu1 1_555 1_555
O3 C4 1_555 1_555
O4 Eu1A_3 1_555 1_555
O5 C2 1_555 1_555
O6 Eu2 1_555 1_555
O7 C3 1_555 1_555
O8 C5 1_555 1_555
O9 Eu2 1_555 1_555
C4 O2 1_555 1_555
C5 C3 1_555 1_555
O10 Eu2 1_555 1_555
O11 Eu1 1_555 1_555
H1 O11 1_555 1_555
H2 O11 1_555 1_555
O12 Eu1 1_555 1_555
H3 O12 1_555 1_555
H4 O12 1_555 1_555
O13 C1 1_555 1_555
C1A C1 1_555 1_555
O10A C1A 1_555 1_555
O13A Eu1 1_555 1_555
C2A C2 1_555 1_555
O4A Eu1 1_555 1_555
O5A C2A 1_555 1_555
C3A O6A 1_555 1_555
Eu1A O13 1_555 1_555
Eu2A O13 1_555 1_555
O1A Eu1A 1_555 1_555
O2A Eu1A 1_555 1_555
O3A C4A 1_555 1_555
O6A Eu2A 1_555 1_555
O7A C3A 1_555 1_555
O8A C5A 1_555 1_555
O9A Eu2A 1_555 1_555
C4A O1A 1_555 1_555
C5A C3A 1_555 1_555
O11A Eu1A 1_555 1_555
H1A O11A 1_555 1_555
H2A O11A 1_555 1_555
O12A Eu1A 1_555 1_555
H3A O12A 1_555 1_555
H4A O12A 1_555 1_555
Eu1_2 O7 1_555 1_555
Eu1A_2 O7A 1_555 1_555
Eu1A_3 O5A 1_555 1_555
Eu2_2 O3A 1_555 1_555
Eu2_3 O2 1_555 1_555
Eu2A_2 O2A 1_555 1_555
Eu2A_3 O3 1_555 1_555
O2_2 Eu2 1_555 1_555
O2A_2 Eu2A 1_555 1_555
O3_2 Eu2A 1_555 1_555
O3_3 Eu2 1_555 1_555
O3A_2 Eu2A 1_555 1_555
O3A_3 Eu2 1_555 1_555
O4_2 Eu1A 1_555 1_555
O5A_2 Eu1A 1_555 1_555
O7_2 Eu1 1_555 1_555
O7A_2 Eu1A 1_555 1_555
O8_2 Eu1 1_555 1_555
O8A_2 Eu1A 1_555 1_555
O9_2 Eu2A 1_555 1_555
O9A_2 Eu2 1_555 1_555
Eu1 O5 1_555 1_555
Eu2 O13A 1_555 1_555
O3 Eu2_3 1_555 1_555
O8 Eu1_2 1_555 1_555
O9 C5 1_555 1_555
O9 Eu2A_3 1_555 1_555
C1A O13A 1_555 1_555
O10A Eu2A 1_555 1_555
C2A O4A 1_555 1_555
Eu2A O1A 1_555 1_555
O2A C4A 1_555 1_555
O3A Eu2A_2 1_555 1_555
O8A Eu1A_2 1_555 1_555
O9A C5A 1_555 1_555
O9A Eu2_2 1_555 1_555
Eu2_2 O9_2 1_555 1_555
Eu2A_3 O9A_2 1_555 1_555

#END
