
#######################################################################
#
#                 Cambridge Crystallographic Data Centre
#                                CCDC 
#
#######################################################################
#
# If this CIF has been generated from an entry in the Cambridge 
# Structural Database, then it will include bibliographic, chemical, 
# crystal, experimental, refinement or atomic coordinate data resulting 
# from the CCDC's data processing and validation procedures.
#
#######################################################################

data_KOSJAF
_chemical_formula_moiety         '(C8 H3 Co2 O6)n'
_symmetry_cell_setting           rhombohedral
_symmetry_space_group_name_H-M   'R 3 m'
_symmetry_Int_Tables_number      160
_space_group_name_Hall           'R 3 -2"'
loop_
_symmetry_equiv_pos_site_id
_symmetry_equiv_pos_as_xyz
1 x,y,z
2 -y,x-y,z
3 -x+y,-x,z
4 -x+y,y,z
5 -y,-x,z
6 x,x-y,z
7 1/3+x,2/3+y,2/3+z
8 1/3-y,2/3+x-y,2/3+z
9 1/3-x+y,2/3-x,2/3+z
10 1/3-x+y,2/3+y,2/3+z
11 1/3-y,2/3-x,2/3+z
12 1/3+x,2/3+x-y,2/3+z
13 2/3+x,1/3+y,1/3+z
14 2/3-y,1/3+x-y,1/3+z
15 2/3-x+y,1/3-x,1/3+z
16 2/3-x+y,1/3+y,1/3+z
17 2/3-y,1/3-x,1/3+z
18 2/3+x,1/3+x-y,1/3+z
_cell_length_a                   25.8419(17)
_cell_length_b                   25.8419
_cell_length_c                   6.7810(7)
_cell_angle_alpha                90
_cell_angle_beta                 90
_cell_angle_gamma                120
_cell_volume                     3921.69
loop_
_atom_site_label
_atom_site_type_symbol
_atom_site_fract_x
_atom_site_fract_y
_atom_site_fract_z
_atom_site_U_iso_or_equiv
_atom_site_thermal_displace_type
D1 D 0.2042(6) 0.2155(6) 0.0181(21) 0.0900 Uiso
C1 C 0.6573(8) 0.8763(8) -0.1620(29) 0.0180 Uiso
C2 C 0.6645(10) 0.8323(5) -0.253(4) 0.0130 Uiso
C3 C 0.6399(7) 0.8669(7) 0.0453(29) 0.0150 Uiso
C4 C 0.6321(6) 0.9089(6) 0.1640(24) 0.0044 Uiso
H1 H 0.6776(25) 0.8388(13) -0.413(10) 0.0620 Uiso
O1 O 0.6700(8) 0.9255(7) -0.2524(29) 0.0100 Uiso
O2 O 0.6497(9) 0.9617(9) 0.0897(26) 0.0210 Uiso
O3 O 0.6084(8) 0.8903(7) 0.3303(30) 0.0110 Uiso
C5 C 0.6285(11) 0.8142(6) 0.125(4) 0.0260 Uiso
H2 H 0.6159(22) 0.8080(11) 0.285(8) 0.0370 Uiso
Co1 Co 0.6239(16) 0.9534(26) -0.441(6) 0.0010 Uiso
C3E C 0.6399(7) 0.7730(10) 0.0453(29) 0.0150 Uiso
C4E C 0.6321(6) 0.7232(8) 0.1640(24) 0.0044 Uiso
O2E O 0.6497(9) 0.6880(13) 0.0897(26) 0.0210 Uiso
O3E O 0.6084(8) 0.7181(11) 0.3303(30) 0.0110 Uiso
C1E C 0.6573(8) 0.7810(11) -0.1620(29) 0.0180 Uiso
O1E O 0.6700(8) 0.7445(11) -0.2524(29) 0.0100 Uiso
Co1E Co 0.6239(16) 0.6705(31) -0.441(6) 0.0010 Uiso
O1H O 0.5888(11) 0.9967(8) -0.5857(29) 0.0100 Uiso
O1I O 0.5888(11) 0.5922(7) -0.5857(29) 0.0100 Uiso
O2H O 0.6453(13) 1.0170(9) -0.2436(26) 0.0210 Uiso
O2I O 0.6453(13) 0.6284(9) -0.2436(26) 0.0210 Uiso
O2M O 0.7050(9) 1.0213(13) -0.5770(26) 0.0210 Uiso
O2P O 0.7050(9) 0.6836(9) -0.5770(26) 0.0210 Uiso
O3_2 O 0.6084(8) 0.8903(7) -0.6697(30) 0.0110 Uiso
O3E_2 O 0.6084(8) 0.7181(11) -0.6697(30) 0.0110 Uiso
Co1_2 Co 0.6239(16) 0.9534(26) 0.559(6) 0.0010 Uiso
Co1E_2 Co 0.6239(16) 0.6705(31) 0.559(6) 0.0010 Uiso
Co1H Co 0.6628(31) 1.0428(16) -0.774(6) 0.0010 Uiso
Co1H_2 Co 0.6628(31) 1.0428(16) 0.226(6) 0.0010 Uiso
Co1I Co 0.6628(31) 0.6201(26) -0.774(6) 0.0010 Uiso
Co1I_2 Co 0.6628(31) 0.6201(26) 0.226(6) 0.0010 Uiso
Co1M Co 0.7133(26) 1.0038(31) -0.108(6) 0.0010 Uiso
Co1P Co 0.7133(26) 0.7094(16) -0.108(6) 0.0010 Uiso
loop_
_geom_bond_atom_site_label_1
_geom_bond_atom_site_label_2
_geom_bond_site_symmetry_1
_geom_bond_site_symmetry_2
C1 C2 1_555 1_555
C2 H1 1_555 1_555
C3 C1 1_555 1_555
C4 C3 1_555 1_555
O1 C1 1_555 1_555
O2 C4 1_555 1_555
O3 C4 1_555 1_555
C5 C3 1_555 1_555
H2 C5 1_555 1_555
Co1 O1 1_555 1_555
C3E C5 1_555 1_555
C4E C3E 1_555 1_555
O2E C4E 1_555 1_555
O3E C4E 1_555 1_555
C1E C2 1_555 1_555
O1E C1E 1_555 1_555
Co1E O1E 1_555 1_555
O1H Co1 1_555 1_555
O1I Co1E 1_555 1_555
O2H Co1 1_555 1_555
O2I Co1E 1_555 1_555
O2M Co1 1_555 1_555
O2P Co1E 1_555 1_555
O3_2 Co1 1_555 1_555
O3E_2 Co1E 1_555 1_555
Co1_2 O3 1_555 1_555
Co1E_2 O3E 1_555 1_555
Co1H Co1 1_555 1_555
Co1H_2 O2 1_555 1_555
Co1I Co1E 1_555 1_555
Co1I_2 O2E 1_555 1_555
Co1M O1 1_555 1_555
Co1P O2E 1_555 1_555
O2 Co1M 1_555 1_555
Co1 Co1M 1_555 1_555
C3E C1E 1_555 1_555
O1E Co1P 1_555 1_555
Co1E Co1P 1_555 1_555
O1H Co1H 1_555 1_555
O1I Co1I 1_555 1_555
O2H Co1M 1_555 1_555
O2I Co1P 1_555 1_555
O2M Co1H 1_555 1_555
O2P Co1I 1_555 1_555
Co1_2 Co1H_2 1_555 1_555
Co1E_2 Co1I_2 1_555 1_555
Co1H_2 Co1M 1_555 1_555
Co1I_2 Co1P 1_555 1_555

#END
