
#######################################################################
#
#                 Cambridge Crystallographic Data Centre
#                                CCDC 
#
#######################################################################
#
# If this CIF has been generated from an entry in the Cambridge 
# Structural Database, then it will include bibliographic, chemical, 
# crystal, experimental, refinement or atomic coordinate data resulting 
# from the CCDC's data processing and validation procedures.
#
#######################################################################

data_KOSKAG
_chemical_formula_moiety         '(C8 H6 Co2 O6)n'
_symmetry_cell_setting           rhombohedral
_symmetry_space_group_name_H-M   'R 3 m'
_symmetry_Int_Tables_number      160
_space_group_name_Hall           'R 3 -2"'
loop_
_symmetry_equiv_pos_site_id
_symmetry_equiv_pos_as_xyz
1 x,y,z
2 -y,x-y,z
3 -x+y,-x,z
4 -x+y,y,z
5 -y,-x,z
6 x,x-y,z
7 1/3+x,2/3+y,2/3+z
8 1/3-y,2/3+x-y,2/3+z
9 1/3-x+y,2/3-x,2/3+z
10 1/3-x+y,2/3+y,2/3+z
11 1/3-y,2/3-x,2/3+z
12 1/3+x,2/3+x-y,2/3+z
13 2/3+x,1/3+y,1/3+z
14 2/3-y,1/3+x-y,1/3+z
15 2/3-x+y,1/3-x,1/3+z
16 2/3-x+y,1/3+y,1/3+z
17 2/3-y,1/3-x,1/3+z
18 2/3+x,1/3+x-y,1/3+z
_cell_length_a                   25.9008(11)
_cell_length_b                   25.9008
_cell_length_c                   6.8104(4)
_cell_angle_alpha                90
_cell_angle_beta                 90
_cell_angle_gamma                120
_cell_volume                     3956.67
loop_
_atom_site_label
_atom_site_type_symbol
_atom_site_fract_x
_atom_site_fract_y
_atom_site_fract_z
_atom_site_U_iso_or_equiv
_atom_site_thermal_displace_type
D1 D 0.2059(5) 0.2157(5) 0.0010(20) 0.0890 Uiso
D2 D 0.7756(7) 0.9478(6) 0.4234(26) 0.1040 Uiso
D3 D 0.5760(10) 0.1521(20) 0.526(6) 0.2300 Uiso
D4 D 0.5872(24) 0.174(5) 0.164(16) 0.7800 Uiso
C1 C 0.6578(6) 0.8758(6) -0.1677(27) 0.0130 Uiso
C2 C 0.6676(8) 0.8338(4) -0.2612(35) 0.0090 Uiso
C3 C 0.6425(6) 0.8683(6) 0.0414(26) 0.0190 Uiso
C4 C 0.6357(5) 0.9108(6) 0.1609(24) 0.0150 Uiso
H1 H 0.6761(14) 0.8380(7) -0.406(7) 0.0350 Uiso
O1 O 0.6747(5) 0.9287(5) -0.2532(24) 0.0000 Uiso
O2 O 0.6538(6) 0.9638(7) 0.0898(22) 0.0110 Uiso
O3 O 0.6130(6) 0.8968(7) 0.3324(23) 0.0190 Uiso
C5 C 0.6295(8) 0.8147(4) 0.1369(28) 0.0080 Uiso
H2 H 0.6204(15) 0.8102(7) 0.267(7) 0.0180 Uiso
Co1 Co 0.6275(13) 0.9556(20) -0.435(5) 0.0030 Uiso
C3E C 0.6425(6) 0.7742(8) 0.0414(26) 0.0190 Uiso
C4E C 0.6357(5) 0.7249(8) 0.1609(24) 0.0150 Uiso
O2E O 0.6538(6) 0.6900(9) 0.0898(22) 0.0110 Uiso
O3E O 0.6130(6) 0.7162(9) 0.3324(23) 0.0190 Uiso
C1E C 0.6578(6) 0.7820(8) -0.1677(27) 0.0130 Uiso
O1E O 0.6747(5) 0.7460(7) -0.2532(24) 0.0000 Uiso
Co1E Co 0.6275(13) 0.6719(24) -0.435(5) 0.0030 Uiso
O1H O 0.5873(7) 0.9920(5) -0.5865(24) 0.0000 Uiso
O1I O 0.5873(7) 0.5954(5) -0.5865(24) 0.0000 Uiso
O2H O 0.6433(9) 1.0129(6) -0.2435(22) 0.0110 Uiso
O2I O 0.6433(9) 0.6305(7) -0.2435(22) 0.0110 Uiso
O2M O 0.7029(7) 1.0233(9) -0.5769(22) 0.0110 Uiso
O2P O 0.7029(7) 0.6795(6) -0.5769(22) 0.0110 Uiso
O3_2 O 0.6130(6) 0.8968(7) -0.6676(23) 0.0190 Uiso
O3E_2 O 0.6130(6) 0.7162(9) -0.6676(23) 0.0190 Uiso
Co1_2 Co 0.6275(13) 0.9556(20) 0.565(5) 0.0030 Uiso
Co1E_2 Co 0.6275(13) 0.6719(24) 0.565(5) 0.0030 Uiso
Co1H Co 0.6614(24) 1.0392(13) -0.768(5) 0.0030 Uiso
Co1H_2 Co 0.6614(24) 1.0392(13) 0.232(5) 0.0030 Uiso
Co1I Co 0.6614(24) 0.6223(20) -0.768(5) 0.0030 Uiso
Co1I_2 Co 0.6614(24) 0.6223(20) 0.232(5) 0.0030 Uiso
Co1M Co 0.7111(20) 1.0052(24) -0.102(5) 0.0030 Uiso
Co1P Co 0.7111(20) 0.7058(13) -0.102(5) 0.0030 Uiso
loop_
_geom_bond_atom_site_label_1
_geom_bond_atom_site_label_2
_geom_bond_site_symmetry_1
_geom_bond_site_symmetry_2
C1 C2 1_555 1_555
C2 H1 1_555 1_555
C3 C1 1_555 1_555
C4 C3 1_555 1_555
O1 C1 1_555 1_555
O2 C4 1_555 1_555
O3 C4 1_555 1_555
C5 C3 1_555 1_555
H2 C5 1_555 1_555
Co1 O1 1_555 1_555
C3E C5 1_555 1_555
C4E C3E 1_555 1_555
O2E C4E 1_555 1_555
O3E C4E 1_555 1_555
C1E C2 1_555 1_555
O1E C1E 1_555 1_555
Co1E O1E 1_555 1_555
O1H Co1 1_555 1_555
O1I Co1E 1_555 1_555
O2H Co1 1_555 1_555
O2I Co1E 1_555 1_555
O2M Co1 1_555 1_555
O2P Co1E 1_555 1_555
O3_2 Co1 1_555 1_555
O3E_2 Co1E 1_555 1_555
Co1_2 O3 1_555 1_555
Co1E_2 O3E 1_555 1_555
Co1H Co1 1_555 1_555
Co1H_2 O2 1_555 1_555
Co1I Co1E 1_555 1_555
Co1I_2 O2E 1_555 1_555
Co1M O1 1_555 1_555
Co1P O2E 1_555 1_555
O2 Co1M 1_555 1_555
Co1 Co1M 1_555 1_555
C3E C1E 1_555 1_555
O1E Co1P 1_555 1_555
Co1E Co1P 1_555 1_555
O1H Co1H 1_555 1_555
O1I Co1I 1_555 1_555
O2H Co1M 1_555 1_555
O2I Co1P 1_555 1_555
O2M Co1H 1_555 1_555
O2P Co1I 1_555 1_555
Co1_2 Co1H_2 1_555 1_555
Co1E_2 Co1I_2 1_555 1_555
Co1H_2 Co1M 1_555 1_555
Co1I_2 Co1P 1_555 1_555

#END
