
#######################################################################
#
#                 Cambridge Crystallographic Data Centre
#                                CCDC 
#
#######################################################################
#
# If this CIF has been generated from an entry in the Cambridge 
# Structural Database, then it will include bibliographic, chemical, 
# crystal, experimental, refinement or atomic coordinate data resulting 
# from the CCDC's data processing and validation procedures.
#
#######################################################################

data_KOSLOV
_chemical_formula_moiety         '(C8 H6 Ni2 O6)n'
_symmetry_cell_setting           rhombohedral
_symmetry_space_group_name_H-M   'R 3 m'
_symmetry_Int_Tables_number      160
_space_group_name_Hall           'R 3 -2"'
loop_
_symmetry_equiv_pos_site_id
_symmetry_equiv_pos_as_xyz
1 x,y,z
2 -y,x-y,z
3 -x+y,-x,z
4 -x+y,y,z
5 -y,-x,z
6 x,x-y,z
7 1/3+x,2/3+y,2/3+z
8 1/3-y,2/3+x-y,2/3+z
9 1/3-x+y,2/3-x,2/3+z
10 1/3-x+y,2/3+y,2/3+z
11 1/3-y,2/3-x,2/3+z
12 1/3+x,2/3+x-y,2/3+z
13 2/3+x,1/3+y,1/3+z
14 2/3-y,1/3+x-y,1/3+z
15 2/3-x+y,1/3-x,1/3+z
16 2/3-x+y,1/3+y,1/3+z
17 2/3-y,1/3-x,1/3+z
18 2/3+x,1/3+x-y,1/3+z
_cell_length_a                   25.802(5)
_cell_length_b                   25.802
_cell_length_c                   6.7613(17)
_cell_angle_alpha                90
_cell_angle_beta                 90
_cell_angle_gamma                120
_cell_volume                     3898.23
loop_
_atom_site_label
_atom_site_type_symbol
_atom_site_fract_x
_atom_site_fract_y
_atom_site_fract_z
_atom_site_U_iso_or_equiv
_atom_site_thermal_displace_type
D1 D 0.2100(11) 0.2170(13) 0.013(4) 0.0800 Uiso
D2 D 0.7783(17) 0.9530(17) 0.419(6) 0.1660 Uiso
D3 D 0.5778(9) 0.1556(19) 0.530(6) 0.0970 Uiso
D4 D 0.5865(19) 0.173(4) -0.022(14) 0.2600 Uiso
C1 C 0.6615(18) 0.8775(19) -0.173(7) 0.0070 Uiso
C2 C 0.6718(25) 0.8359(13) -0.252(10) 0.0010 Uiso
C3 C 0.6469(16) 0.8685(17) 0.057(6) 0.0200 Uiso
C4 C 0.6341(21) 0.9105(18) 0.171(6) 0.0320 Uiso
H1 H 0.670(6) 0.8348(28) -0.394(24) 0.0700 Uiso
O1 O 0.6709(20) 0.9227(21) -0.237(7) 0.0110 Uiso
O2 O 0.6550(18) 0.9626(18) 0.083(8) 0.0150 Uiso
O3 O 0.6120(28) 0.8921(26) 0.347(10) 0.0660 Uiso
C5 C 0.6314(23) 0.8157(12) 0.129(7) 0.0060 Uiso
H2 H 0.620(4) 0.8102(22) 0.282(15) 0.0200 Uiso
Ni1 Ni 0.6274(10) 0.9542(16) -0.443(4) 0.0080 Uiso
C3E C 0.6469(16) 0.7784(23) 0.057(6) 0.0200 Uiso
C4E C 0.6341(21) 0.7236(28) 0.171(6) 0.0320 Uiso
O2E O 0.6550(18) 0.6924(25) 0.083(8) 0.0150 Uiso
O3E O 0.6120(28) 0.7199(38) 0.347(10) 0.0660 Uiso
C1E C 0.6615(18) 0.7840(26) -0.173(7) 0.0070 Uiso
O1E O 0.6709(20) 0.7482(29) -0.237(7) 0.0110 Uiso
Ni1E Ni 0.6274(10) 0.6732(19) -0.443(4) 0.0080 Uiso
O1H O 0.5851(29) 0.9958(20) -0.570(7) 0.0110 Uiso
O1I O 0.5851(29) 0.5894(21) -0.570(7) 0.0110 Uiso
O2H O 0.6409(25) 1.0117(18) -0.250(8) 0.0150 Uiso
O2I O 0.6409(25) 0.6293(18) -0.250(8) 0.0150 Uiso
O2M O 0.7041(18) 1.0257(25) -0.584(8) 0.0150 Uiso
O2P O 0.7041(18) 0.6783(18) -0.584(8) 0.0150 Uiso
O3_2 O 0.6120(28) 0.8921(26) -0.653(10) 0.0660 Uiso
O3E_2 O 0.6120(28) 0.7199(38) -0.653(10) 0.0660 Uiso
Ni1_2 Ni 0.6274(10) 0.9542(16) 0.557(4) 0.0080 Uiso
Ni1E_2 Ni 0.6274(10) 0.6732(19) 0.557(4) 0.0080 Uiso
Ni1H Ni 0.6601(19) 1.0393(10) -0.776(4) 0.0080 Uiso
Ni1H_2 Ni 0.6601(19) 1.0393(10) 0.224(4) 0.0080 Uiso
Ni1I Ni 0.6601(19) 0.6209(16) -0.776(4) 0.0080 Uiso
Ni1I_2 Ni 0.6601(19) 0.6209(16) 0.224(4) 0.0080 Uiso
Ni1M Ni 0.7125(16) 1.0065(19) -0.110(4) 0.0080 Uiso
Ni1P Ni 0.7125(16) 0.7059(10) -0.110(4) 0.0080 Uiso
loop_
_geom_bond_atom_site_label_1
_geom_bond_atom_site_label_2
_geom_bond_site_symmetry_1
_geom_bond_site_symmetry_2
C1 C2 1_555 1_555
C2 H1 1_555 1_555
C3 C1 1_555 1_555
C4 C3 1_555 1_555
O1 C1 1_555 1_555
O2 C4 1_555 1_555
O3 C4 1_555 1_555
C5 C3 1_555 1_555
H2 C5 1_555 1_555
Ni1 O1 1_555 1_555
C3E C5 1_555 1_555
C4E C3E 1_555 1_555
O2E C4E 1_555 1_555
O3E C4E 1_555 1_555
C1E C2 1_555 1_555
O1E C1E 1_555 1_555
Ni1E O1E 1_555 1_555
O1H Ni1 1_555 1_555
O1I Ni1E 1_555 1_555
O2H Ni1 1_555 1_555
O2I Ni1E 1_555 1_555
O2M Ni1 1_555 1_555
O2P Ni1E 1_555 1_555
O3_2 Ni1 1_555 1_555
O3E_2 Ni1E 1_555 1_555
Ni1_2 O3 1_555 1_555
Ni1E_2 O3E 1_555 1_555
Ni1H Ni1 1_555 1_555
Ni1H_2 O2 1_555 1_555
Ni1I Ni1E 1_555 1_555
Ni1I_2 O2E 1_555 1_555
Ni1M O1 1_555 1_555
Ni1P O2E 1_555 1_555
O2 Ni1M 1_555 1_555
Ni1 Ni1M 1_555 1_555
C3E C1E 1_555 1_555
O1E Ni1P 1_555 1_555
Ni1E Ni1P 1_555 1_555
O1H Ni1H 1_555 1_555
O1I Ni1I 1_555 1_555
O2H Ni1M 1_555 1_555
O2I Ni1P 1_555 1_555
O2M Ni1H 1_555 1_555
O2P Ni1I 1_555 1_555
Ni1_2 Ni1H_2 1_555 1_555
Ni1E_2 Ni1I_2 1_555 1_555
Ni1H_2 Ni1M 1_555 1_555
Ni1I_2 Ni1P 1_555 1_555

#END
