
#######################################################################
#
#                 Cambridge Crystallographic Data Centre
#                                CCDC 
#
#######################################################################
#
# If this CIF has been generated from an entry in the Cambridge 
# Structural Database, then it will include bibliographic, chemical, 
# crystal, experimental, refinement or atomic coordinate data resulting 
# from the CCDC's data processing and validation procedures.
#
#######################################################################

data_KOSLAH
_chemical_formula_moiety         '(C8 H5 Co2 O6)n'
_symmetry_cell_setting           rhombohedral
_symmetry_space_group_name_H-M   'R -3'
_symmetry_Int_Tables_number      148
_space_group_name_Hall           '-R 3'
loop_
_symmetry_equiv_pos_site_id
_symmetry_equiv_pos_as_xyz
1 x,y,z
2 -y,x-y,z
3 -x+y,-x,z
4 1/3+x,2/3+y,2/3+z
5 1/3-y,2/3+x-y,2/3+z
6 1/3-x+y,2/3-x,2/3+z
7 2/3+x,1/3+y,1/3+z
8 2/3-y,1/3+x-y,1/3+z
9 2/3-x+y,1/3-x,1/3+z
10 -x,-y,-z
11 y,-x+y,-z
12 x-y,x,-z
13 2/3-x,1/3-y,1/3-z
14 2/3+y,1/3-x+y,1/3-z
15 2/3+x-y,1/3+x,1/3-z
16 1/3-x,2/3-y,2/3-z
17 1/3+y,2/3-x+y,2/3-z
18 1/3+x-y,2/3+x,2/3-z
_cell_length_a                   25.8781(10)
_cell_length_b                   25.8781
_cell_length_c                   6.88197(33)
_cell_angle_alpha                90
_cell_angle_beta                 90
_cell_angle_gamma                120
_cell_volume                     3991.24
loop_
_atom_site_label
_atom_site_type_symbol
_atom_site_fract_x
_atom_site_fract_y
_atom_site_fract_z
_atom_site_U_iso_or_equiv
_atom_site_thermal_displace_type
D1 D 0.4642(5) 0.3493(4) 0.2501(15) 0.0650 Uiso
D2 D 0.4587(5) 0.2999(4) 0.6734(18) 0.1300 Uiso
D3 D 0.2400(8) 0.4877(7) 0.8515(27) 0.1520 Uiso
Co1 Co 0.3814(12) 0.3505(12) 0.132(4) 0.0040 Uiso
O1 O 0.3246(6) 0.2940(6) 0.3646(19) 0.0090 Uiso
O2 O 0.3006(6) 0.2281(6) 0.5986(17) 0.0087 Uiso
O3 O 0.3570(6) 0.2745(7) -0.0028(23) 0.0120 Uiso
C1 C 0.3143(6) 0.2450(6) 0.4264(14) 0.0133 Uiso
C2 C 0.3296(5) 0.2087(5) 0.2869(17) 0.0103 Uiso
C3 C 0.3463(5) 0.2251(6) 0.0882(16) 0.0180 Uiso
C4 C 0.3501(5) 0.1811(6) -0.0292(15) 0.0080 Uiso
H1 H 0.3633(8) 0.1945(7) -0.166(4) 0.0100 Uiso
O1L O 0.3421(6) 0.0393(6) -0.0313(19) 0.0090 Uiso
O2L O 0.3661(6) 0.1052(6) -0.2653(17) 0.0087 Uiso
O3L O 0.3097(6) 0.0588(7) 0.3361(23) 0.0120 Uiso
C1L C 0.3524(6) 0.0883(6) -0.0931(14) 0.0133 Uiso
C2L C 0.3371(5) 0.1246(5) 0.0464(17) 0.0103 Uiso
C3L C 0.3204(5) 0.1082(6) 0.2451(16) 0.0180 Uiso
C4L C 0.3166(5) 0.1522(6) 0.3625(15) 0.0080 Uiso
H1L H 0.3034(8) 0.1388(7) 0.499(4) 0.0100 Uiso
Co1J Co 0.3505(12) -0.0309(17) -0.132(4) 0.0040 Uiso
Co1E Co 0.3024(17) 0.2853(12) -0.201(4) 0.0040 Uiso
Co1E_2 Co 0.3024(17) 0.2853(12) 0.799(4) 0.0040 Uiso
Co1L Co 0.2853(12) -0.0172(12) 0.201(4) 0.0040 Uiso
Co1G Co 0.3162(12) 0.3642(17) 0.465(4) 0.0040 Uiso
Co1Q Co 0.3642(17) 0.0481(12) -0.465(4) 0.0040 Uiso
Co1Q_2 Co 0.3642(17) 0.0481(12) 0.535(4) 0.0040 Uiso
O1J O 0.2940(6) -0.0306(8) -0.3646(19) 0.0090 Uiso
O1E O 0.3027(8) 0.3421(6) 0.0313(19) 0.0090 Uiso
O2G O 0.4386(6) 0.4058(8) -0.0681(17) 0.0087 Uiso
O2Q O 0.4058(8) -0.0327(6) 0.0681(17) 0.0087 Uiso
O3J O 0.2745(7) -0.0825(9) 0.0028(23) 0.0120 Uiso
O3G O 0.3922(7) 0.4158(9) 0.3305(23) 0.0120 Uiso
O3Q O 0.4158(9) 0.0237(6) -0.3305(23) 0.0120 Uiso
loop_
_geom_bond_atom_site_label_1
_geom_bond_atom_site_label_2
_geom_bond_site_symmetry_1
_geom_bond_site_symmetry_2
Co1 O1 1_555 1_555
O1 C1 1_555 1_555
O2 C1 1_555 1_555
O3 Co1 1_555 1_555
C1 C2 1_555 1_555
C2 C3 1_555 1_555
C3 O3 1_555 1_555
C4 C3 1_555 1_555
H1 C4 1_555 1_555
O1L C1L 1_555 1_555
O2L C1L 1_555 1_555
O3L C3L 1_555 1_555
C1L C2L 1_555 1_555
C2L C4 1_555 1_555
C3L C2L 1_555 1_555
C4L C2 1_555 1_555
H1L C4L 1_555 1_555
Co1J O1L 1_555 1_555
Co1E Co1 1_555 1_555
Co1E_2 O2 1_555 1_555
Co1L O1L 1_555 1_555
Co1G Co1 1_555 1_555
Co1Q O2L 1_555 1_555
Co1Q_2 O3L 1_555 1_555
O1J Co1J 1_555 1_555
O1E Co1 1_555 1_555
O2G Co1 1_555 1_555
O2Q Co1J 1_555 1_555
O3J Co1J 1_555 1_555
O3G Co1 1_555 1_555
O3Q Co1J 1_555 1_555
O1 Co1G 1_555 1_555
O3 Co1E 1_555 1_555
O3L Co1L 1_555 1_555
C3L C4L 1_555 1_555
Co1J Co1L 1_555 1_555
Co1J Co1Q 1_555 1_555
Co1E O1E 1_555 1_555
Co1E_2 Co1G 1_555 1_555
Co1L Co1Q_2 1_555 1_555
Co1L O3J 1_555 1_555
Co1G O3G 1_555 1_555
Co1Q O1J 1_555 1_555
Co1Q O3Q 1_555 1_555

#END
