
#######################################################################
#
#                 Cambridge Crystallographic Data Centre
#                                CCDC 
#
#######################################################################
#
# If this CIF has been generated from an entry in the Cambridge 
# Structural Database, then it will include bibliographic, chemical, 
# crystal, experimental, refinement or atomic coordinate data resulting 
# from the CCDC's data processing and validation procedures.
#
#######################################################################

data_BOLZIN
_chemical_formula_moiety         'C312 H132 O110 Zr50'
_symmetry_cell_setting           cubic
_symmetry_space_group_name_H-M   'I m -3'
_symmetry_Int_Tables_number      204
_space_group_name_Hall           '-I 2 2 3'
loop_
_symmetry_equiv_pos_site_id
_symmetry_equiv_pos_as_xyz
1 x,y,z
2 -x,-y,z
3 -x,y,-z
4 x,-y,-z
5 z,x,y
6 z,-x,-y
7 -z,-x,y
8 -z,x,-y
9 y,z,x
10 -y,z,-x
11 y,-z,-x
12 -y,-z,x
13 1/2+x,1/2+y,1/2+z
14 1/2-x,1/2-y,1/2+z
15 1/2-x,1/2+y,1/2-z
16 1/2+x,1/2-y,1/2-z
17 1/2+z,1/2+x,1/2+y
18 1/2+z,1/2-x,1/2-y
19 1/2-z,1/2-x,1/2+y
20 1/2-z,1/2+x,1/2-y
21 1/2+y,1/2+z,1/2+x
22 1/2-y,1/2+z,1/2-x
23 1/2+y,1/2-z,1/2-x
24 1/2-y,1/2-z,1/2+x
25 -x,-y,-z
26 x,y,-z
27 x,-y,z
28 -x,y,z
29 -z,-x,-y
30 -z,x,y
31 z,x,-y
32 z,-x,y
33 -y,-z,-x
34 y,-z,x
35 -y,z,x
36 y,z,-x
37 1/2-x,1/2-y,1/2-z
38 1/2+x,1/2+y,1/2-z
39 1/2+x,1/2-y,1/2+z
40 1/2-x,1/2+y,1/2+z
41 1/2-z,1/2-x,1/2-y
42 1/2-z,1/2+x,1/2+y
43 1/2+z,1/2+x,1/2-y
44 1/2+z,1/2-x,1/2+y
45 1/2-y,1/2-z,1/2-x
46 1/2+y,1/2-z,1/2+x
47 1/2-y,1/2+z,1/2+x
48 1/2+y,1/2+z,1/2-x
_cell_length_a                   44.0261(18)
_cell_length_b                   44.0261(18)
_cell_length_c                   44.0261(18)
_cell_angle_alpha                90
_cell_angle_beta                 90
_cell_angle_gamma                90
_cell_volume                     85335.7
loop_
_atom_site_label
_atom_site_type_symbol
_atom_site_fract_x
_atom_site_fract_y
_atom_site_fract_z
Zr1 Zr 0.25251(2) 0.19377(2) 0.24744(2)
O1 O 0.33205(7) 0.20959(7) 0.24464(7)
O2 O 0.29738(7) 0.17122(7) 0.24485(7)
O3 O 0.20989(7) 0.16739(8) 0.24812(6)
O4 O 0.17161(7) 0.20169(7) 0.25184(7)
O5 O 0.22484(7) 0.22000(8) 0.27751(9)
O6 O 0.22233(13) 0.22233(13) 0.22233(13)
C1 C 0.32413(10) 0.18188(11) 0.24417(9)
C2 C 0.18189(10) 0.17498(11) 0.25008(12)
C3 C 0.34991(12) 0.15959(11) 0.24277(14)
C4 C 0.15983(13) 0.14977(12) 0.24970(16)
C5 C 0.47150(15) 0.03141(16) 0.2369(3)
C6 C 0.34394(17) 0.12881(15) 0.2407(2)
H1 H 0.3237 0.1213 0.2405
C7 C 0.12911(15) 0.15536(15) 0.25183(19)
H2 H 0.1221 0.1757 0.2533
C8 C 0.37954(16) 0.16949(18) 0.2415(2)
H3 H 0.3838 0.1906 0.2401
C9 C 0.44334(15) 0.01634(15) 0.2370(3)
H4 H 0.4248 0.0274 0.2371
C10 C 0.39755(15) 0.11885(16) 0.2393(3)
C11 C 0.16931(17) 0.12039(15) 0.2481(2)
H5 H 0.1905 0.1163 0.2473
C12 C 0.36984(17) 0.10845(15) 0.2390(3)
H6 H 0.3665 0.0872 0.2376
C13 C 0.47279(17) 0.06401(17) 0.2373(4)
C14 C 0.40346(16) 0.14857(16) 0.2425(3)
H7 H 0.4237 0.1554 0.2453
C15 C 0.5000 0.01615(19) 0.2362(4)
C16 C 0.10846(16) 0.13203(16) 0.2519(2)
H8 H 0.0873 0.1361 0.2539
C17 C 0.44530(16) 0.08114(15) 0.2383(3)
C18 C 0.5000 0.0791(2) 0.2372(5)
H9 H 0.5000 0.1007 0.2371
C19 C 0.11901(17) 0.10223(16) 0.2491(3)
C20 C 0.42300(16) 0.09776(15) 0.2401(3)
C21 C 0.0153(3) -0.0000 0.2506(4)
C22 C 0.03186(18) 0.02830(16) 0.2484(4)
C23 C 0.06402(17) 0.02737(16) 0.2491(3)
C24 C 0.08178(18) 0.05506(18) 0.2502(3)
C25 C 0.14926(18) 0.09632(18) 0.2475(3)
H10 H 0.1565 0.0760 0.2459
C26 C 0.0798(2) -0.0000 0.2494(4)
H11 H 0.1013 0.0000 0.2498
C27 C 0.01500(18) 0.05571(15) 0.2496(3)
H12 H 0.0255 0.0745 0.2503
C28 C 0.09747(19) 0.07672(19) 0.2506(4)
O1A O 0.66795(7) -0.20959(7) 0.24464(7)
O2A O 0.70262(7) -0.17122(7) 0.24485(7)
C1A C 0.67587(10) -0.18188(11) 0.24417(9)
C3A C 0.65009(12) -0.15959(11) 0.24277(14)
C5A C 0.52850(15) -0.03141(16) 0.2369(3)
C6A C 0.65606(17) -0.12881(15) 0.2407(2)
H1A H 0.6763 -0.1213 0.2405
C8A C 0.62046(16) -0.16949(18) 0.2415(2)
H3A H 0.6162 -0.1906 0.2401
C9A C 0.55666(15) -0.01634(15) 0.2370(3)
H4A H 0.5752 -0.0274 0.2371
C10A C 0.60245(15) -0.11885(16) 0.2393(3)
C12A C 0.63016(17) -0.10845(15) 0.2390(3)
H6A H 0.6335 -0.0872 0.2376
C13A C 0.52721(17) -0.06401(17) 0.2373(4)
C14A C 0.59654(16) -0.14857(16) 0.2425(3)
H7A H 0.5763 -0.1554 0.2453
C15A C 0.5000 -0.01615(19) 0.2362(4)
C17A C 0.55470(16) -0.08114(15) 0.2383(3)
C18A C 0.5000 -0.0791(2) 0.2372(5)
H9A H 0.5000 -0.1007 0.2371
C20A C 0.57700(16) -0.09776(15) 0.2401(3)
O1Z O 0.33205(7) -0.20959(7) 0.24464(7)
O2Z O 0.29738(7) -0.17122(7) 0.24485(7)
C1Z C 0.32413(10) -0.18188(11) 0.24417(9)
C3Z C 0.34991(12) -0.15959(11) 0.24277(14)
C5Z C 0.47150(15) -0.03141(16) 0.2369(3)
C6Z C 0.34394(17) -0.12881(15) 0.2407(2)
H1Z H 0.3237 -0.1213 0.2405
C8Z C 0.37954(16) -0.16949(18) 0.2415(2)
H3Z H 0.3838 -0.1906 0.2401
C9Z C 0.44334(15) -0.01634(15) 0.2370(3)
H4Z H 0.4248 -0.0274 0.2371
C10Z C 0.39755(15) -0.11885(16) 0.2393(3)
C12Z C 0.36984(17) -0.10845(15) 0.2390(3)
H6Z H 0.3665 -0.0872 0.2376
C13Z C 0.47279(17) -0.06401(17) 0.2373(4)
C14Z C 0.40346(16) -0.14857(16) 0.2425(3)
H7Z H 0.4237 -0.1554 0.2453
C17Z C 0.44530(16) -0.08114(15) 0.2383(3)
C20Z C 0.42300(16) -0.09776(15) 0.2401(3)
O1AA O 0.66795(7) 0.20959(7) 0.24464(7)
O2AA O 0.70262(7) 0.17122(7) 0.24485(7)
C1AA C 0.67587(10) 0.18188(11) 0.24417(9)
C3AA C 0.65009(12) 0.15959(11) 0.24277(14)
C5AA C 0.52850(15) 0.03141(16) 0.2369(3)
C6AA C 0.65606(17) 0.12881(15) 0.2407(2)
H1AA H 0.6763 0.1213 0.2405
C8AA C 0.62046(16) 0.16949(18) 0.2415(2)
H3AA H 0.6162 0.1906 0.2401
C9AA C 0.55666(15) 0.01634(15) 0.2370(3)
H4AA H 0.5752 0.0274 0.2371
C10AA C 0.60245(15) 0.11885(16) 0.2393(3)
C12AA C 0.63016(17) 0.10845(15) 0.2390(3)
H6AA H 0.6335 0.0872 0.2376
C13AA C 0.52721(17) 0.06401(17) 0.2373(4)
C14AA C 0.59654(16) 0.14857(16) 0.2425(3)
H7AA H 0.5763 0.1554 0.2453
C17AA C 0.55470(16) 0.08114(15) 0.2383(3)
C20AA C 0.57700(16) 0.09776(15) 0.2401(3)
O3A O -0.20989(7) -0.16739(8) 0.24812(6)
O4A O -0.17161(7) -0.20169(7) 0.25184(7)
C2A C -0.18189(10) -0.17498(11) 0.25008(12)
C4A C -0.15983(13) -0.14977(12) 0.24970(16)
C7A C -0.12911(15) -0.15536(15) 0.25183(19)
H2A H -0.1221 -0.1757 0.2533
C11A C -0.16931(17) -0.12039(15) 0.2481(2)
H5A H -0.1905 -0.1163 0.2473
C16A C -0.10846(16) -0.13203(16) 0.2519(2)
H8A H -0.0873 -0.1361 0.2539
C19A C -0.11901(17) -0.10223(16) 0.2491(3)
C21A C -0.0153(3) -0.0000 0.2506(4)
C22A C -0.03186(18) -0.02830(16) 0.2484(4)
C23A C -0.06402(17) -0.02737(16) 0.2491(3)
C24A C -0.08178(18) -0.05506(18) 0.2502(3)
C25A C -0.14926(18) -0.09632(18) 0.2475(3)
H10A H -0.1565 -0.0760 0.2459
C26A C -0.0798(2) -0.0000 0.2494(4)
H11A H -0.1013 0.0000 0.2498
C27A C -0.01500(18) -0.05571(15) 0.2496(3)
H12A H -0.0255 -0.0745 0.2503
C28A C -0.09747(19) -0.07672(19) 0.2506(4)
O3Z O 0.20989(7) -0.16739(8) 0.24812(6)
O4Z O 0.17161(7) -0.20169(7) 0.25184(7)
C2Z C 0.18189(10) -0.17498(11) 0.25008(12)
C4Z C 0.15983(13) -0.14977(12) 0.24970(16)
C7Z C 0.12911(15) -0.15536(15) 0.25183(19)
H2Z H 0.1221 -0.1757 0.2533
C11Z C 0.16931(17) -0.12039(15) 0.2481(2)
H5Z H 0.1905 -0.1163 0.2473
C16Z C 0.10846(16) -0.13203(16) 0.2519(2)
H8Z H 0.0873 -0.1361 0.2539
C19Z C 0.11901(17) -0.10223(16) 0.2491(3)
C22Z C 0.03186(18) -0.02830(16) 0.2484(4)
C23Z C 0.06402(17) -0.02737(16) 0.2491(3)
C24Z C 0.08178(18) -0.05506(18) 0.2502(3)
C25Z C 0.14926(18) -0.09632(18) 0.2475(3)
H10Z H 0.1565 -0.0760 0.2459
C27Z C 0.01500(18) -0.05571(15) 0.2496(3)
H12Z H 0.0255 -0.0745 0.2503
C28Z C 0.09747(19) -0.07672(19) 0.2506(4)
O3AA O -0.20989(7) 0.16739(8) 0.24812(6)
O4AA O -0.17161(7) 0.20169(7) 0.25184(7)
C2AA C -0.18189(10) 0.17498(11) 0.25008(12)
C4AA C -0.15983(13) 0.14977(12) 0.24970(16)
C7AA C -0.12911(15) 0.15536(15) 0.25183(19)
H2AA H -0.1221 0.1757 0.2533
C11AA C -0.16931(17) 0.12039(15) 0.2481(2)
H5AA H -0.1905 0.1163 0.2473
C16AA C -0.10846(16) 0.13203(16) 0.2519(2)
H8AA H -0.0873 0.1361 0.2539
C19AA C -0.11901(17) 0.10223(16) 0.2491(3)
C22AA C -0.03186(18) 0.02830(16) 0.2484(4)
C23AA C -0.06402(17) 0.02737(16) 0.2491(3)
C24AA C -0.08178(18) 0.05506(18) 0.2502(3)
C25AA C -0.14926(18) 0.09632(18) 0.2475(3)
H10AA H -0.1565 0.0760 0.2459
C27AA C -0.01500(18) 0.05571(15) 0.2496(3)
H12AA H -0.0255 0.0745 0.2503
C28AA C -0.09747(19) 0.07672(19) 0.2506(4)
Zr1A Zr -0.25251(2) -0.19377(2) 0.24744(2)
O1A_2 O -0.33205(7) -0.20959(7) 0.24464(7)
O2A_2 O -0.29738(7) -0.17122(7) 0.24485(7)
O5A O -0.22484(7) -0.22000(8) 0.27751(9)
O6A O -0.22233(13) -0.22233(13) 0.22233(13)
C1A_2 C -0.32413(10) -0.18188(11) 0.24417(9)
C3A_2 C -0.34991(12) -0.15959(11) 0.24277(14)
C5A_2 C -0.47150(15) -0.03141(16) 0.2369(3)
C6A_2 C -0.34394(17) -0.12881(15) 0.2407(2)
H1A_2 H -0.3237 -0.1213 0.2405
C8A_2 C -0.37954(16) -0.16949(18) 0.2415(2)
H3A_2 H -0.3838 -0.1906 0.2401
C9A_2 C -0.44334(15) -0.01634(15) 0.2370(3)
H4A_2 H -0.4248 -0.0274 0.2371
C10A_2 C -0.39755(15) -0.11885(16) 0.2393(3)
C12A_2 C -0.36984(17) -0.10845(15) 0.2390(3)
H6A_2 H -0.3665 -0.0872 0.2376
C13A_2 C -0.47279(17) -0.06401(17) 0.2373(4)
C14A_2 C -0.40346(16) -0.14857(16) 0.2425(3)
H7A_2 H -0.4237 -0.1554 0.2453
C15A_2 C -0.5000 -0.01615(19) 0.2362(4)
C17A_2 C -0.44530(16) -0.08114(15) 0.2383(3)
C18A_2 C -0.5000 -0.0791(2) 0.2372(5)
H9A_2 H -0.5000 -0.1007 0.2371
C20A_2 C -0.42300(16) -0.09776(15) 0.2401(3)
O1_2 O -0.66795(7) 0.20959(7) 0.24464(7)
O2_2 O -0.70262(7) 0.17122(7) 0.24485(7)
C1_2 C -0.67587(10) 0.18188(11) 0.24417(9)
C3_2 C -0.65009(12) 0.15959(11) 0.24277(14)
C5_2 C -0.52850(15) 0.03141(16) 0.2369(3)
C6_2 C -0.65606(17) 0.12881(15) 0.2407(2)
H1_2 H -0.6763 0.1213 0.2405
C8_2 C -0.62046(16) 0.16949(18) 0.2415(2)
H3_2 H -0.6162 0.1906 0.2401
C9_2 C -0.55666(15) 0.01634(15) 0.2370(3)
H4_2 H -0.5752 0.0274 0.2371
C10_2 C -0.60245(15) 0.11885(16) 0.2393(3)
C12_2 C -0.63016(17) 0.10845(15) 0.2390(3)
H6_2 H -0.6335 0.0872 0.2376
C13_2 C -0.52721(17) 0.06401(17) 0.2373(4)
C14_2 C -0.59654(16) 0.14857(16) 0.2425(3)
H7_2 H -0.5763 0.1554 0.2453
C15_2 C -0.5000 0.01615(19) 0.2362(4)
C17_2 C -0.55470(16) 0.08114(15) 0.2383(3)
C18_2 C -0.5000 0.0791(2) 0.2372(5)
H9_2 H -0.5000 0.1007 0.2371
C20_2 C -0.57700(16) 0.09776(15) 0.2401(3)
O1AA_2 O -0.33205(7) 0.20959(7) 0.24464(7)
O2AA_2 O -0.29738(7) 0.17122(7) 0.24485(7)
C1AA_2 C -0.32413(10) 0.18188(11) 0.24417(9)
C3AA_2 C -0.34991(12) 0.15959(11) 0.24277(14)
C5AA_2 C -0.47150(15) 0.03141(16) 0.2369(3)
C6AA_2 C -0.34394(17) 0.12881(15) 0.2407(2)
H1AA_2 H -0.3237 0.1213 0.2405
C8AA_2 C -0.37954(16) 0.16949(18) 0.2415(2)
H3AA_2 H -0.3838 0.1906 0.2401
C9AA_2 C -0.44334(15) 0.01634(15) 0.2370(3)
H4AA_2 H -0.4248 0.0274 0.2371
C10AA_2 C -0.39755(15) 0.11885(16) 0.2393(3)
C12AA_2 C -0.36984(17) 0.10845(15) 0.2390(3)
H6AA_2 H -0.3665 0.0872 0.2376
C13AA_2 C -0.47279(17) 0.06401(17) 0.2373(4)
C14AA_2 C -0.40346(16) 0.14857(16) 0.2425(3)
H7AA_2 H -0.4237 0.1554 0.2453
C17AA_2 C -0.44530(16) 0.08114(15) 0.2383(3)
C20AA_2 C -0.42300(16) 0.09776(15) 0.2401(3)
O1Z_2 O -0.66795(7) -0.20959(7) 0.24464(7)
O2Z_2 O -0.70262(7) -0.17122(7) 0.24485(7)
C1Z_2 C -0.67587(10) -0.18188(11) 0.24417(9)
C3Z_2 C -0.65009(12) -0.15959(11) 0.24277(14)
C5Z_2 C -0.52850(15) -0.03141(16) 0.2369(3)
C6Z_2 C -0.65606(17) -0.12881(15) 0.2407(2)
H1Z_2 H -0.6763 -0.1213 0.2405
C8Z_2 C -0.62046(16) -0.16949(18) 0.2415(2)
H3Z_2 H -0.6162 -0.1906 0.2401
C9Z_2 C -0.55666(15) -0.01634(15) 0.2370(3)
H4Z_2 H -0.5752 -0.0274 0.2371
C10Z_2 C -0.60245(15) -0.11885(16) 0.2393(3)
C12Z_2 C -0.63016(17) -0.10845(15) 0.2390(3)
H6Z_2 H -0.6335 -0.0872 0.2376
C13Z_2 C -0.52721(17) -0.06401(17) 0.2373(4)
C14Z_2 C -0.59654(16) -0.14857(16) 0.2425(3)
H7Z_2 H -0.5763 -0.1554 0.2453
C17Z_2 C -0.55470(16) -0.08114(15) 0.2383(3)
C20Z_2 C -0.57700(16) -0.09776(15) 0.2401(3)
Zr1D Zr 0.24744(2) 0.25251(2) 0.19377(2)
O3D O 0.24812(6) 0.20989(7) 0.16739(8)
O4D O 0.25184(7) 0.17161(7) 0.20169(7)
O5D O 0.27751(9) 0.22484(7) 0.22000(8)
C2D C 0.25008(12) 0.18189(10) 0.17498(11)
C4D C 0.24970(16) 0.15983(13) 0.14977(12)
C7D C 0.25183(19) 0.12911(15) 0.15536(15)
H2D H 0.2533 0.1221 0.1757
C11D C 0.2481(2) 0.16931(17) 0.12039(15)
H5D H 0.2473 0.1905 0.1163
C16D C 0.2519(2) 0.10846(16) 0.13203(16)
H8D H 0.2539 0.0873 0.1361
C19D C 0.2491(3) 0.11901(17) 0.10223(16)
C21D C 0.2506(4) 0.0153(3) 0.0000
C22D C 0.2484(4) 0.03186(18) 0.02830(16)
C23D C 0.2491(3) 0.06402(17) 0.02737(16)
C24D C 0.2502(3) 0.08178(18) 0.05506(18)
C25D C 0.2475(3) 0.14926(18) 0.09632(18)
H10D H 0.2459 0.1565 0.0760
C26D C 0.2494(4) 0.0798(2) 0.0000
H11D H 0.2498 0.1013 0.0000
C27D C 0.2496(3) 0.01500(18) 0.05571(15)
H12D H 0.2503 0.0255 0.0745
C28D C 0.2506(4) 0.09747(19) 0.07672(19)
O3E O 0.24812(6) -0.20989(7) -0.16739(8)
O4E O 0.25184(7) -0.17161(7) -0.20169(7)
C2E C 0.25008(12) -0.18189(10) -0.17498(11)
C4E C 0.24970(16) -0.15983(13) -0.14977(12)
C7E C 0.25183(19) -0.12911(15) -0.15536(15)
H2E H 0.2533 -0.1221 -0.1757
C11E C 0.2481(2) -0.16931(17) -0.12039(15)
H5E H 0.2473 -0.1905 -0.1163
C16E C 0.2519(2) -0.10846(16) -0.13203(16)
H8E H 0.2539 -0.0873 -0.1361
C19E C 0.2491(3) -0.11901(17) -0.10223(16)
C21E C 0.2506(4) -0.0153(3) 0.0000
C22E C 0.2484(4) -0.03186(18) -0.02830(16)
C23E C 0.2491(3) -0.06402(17) -0.02737(16)
C24E C 0.2502(3) -0.08178(18) -0.05506(18)
C25E C 0.2475(3) -0.14926(18) -0.09632(18)
H10E H 0.2459 -0.1565 -0.0760
C26E C 0.2494(4) -0.0798(2) 0.0000
H11E H 0.2498 -0.1013 0.0000
C27E C 0.2496(3) -0.01500(18) -0.05571(15)
H12E H 0.2503 -0.0255 -0.0745
C28E C 0.2506(4) -0.09747(19) -0.07672(19)
O3DA O 0.24812(6) 0.20989(7) -0.16739(8)
O4DA O 0.25184(7) 0.17161(7) -0.20169(7)
C2DA C 0.25008(12) 0.18189(10) -0.17498(11)
C4DA C 0.24970(16) 0.15983(13) -0.14977(12)
C7DA C 0.25183(19) 0.12911(15) -0.15536(15)
H2DA H 0.2533 0.1221 -0.1757
C11DA C 0.2481(2) 0.16931(17) -0.12039(15)
H5DA H 0.2473 0.1905 -0.1163
C16DA C 0.2519(2) 0.10846(16) -0.13203(16)
H8DA H 0.2539 0.0873 -0.1361
C19DA C 0.2491(3) 0.11901(17) -0.10223(16)
C22DA C 0.2484(4) 0.03186(18) -0.02830(16)
C23DA C 0.2491(3) 0.06402(17) -0.02737(16)
C24DA C 0.2502(3) 0.08178(18) -0.05506(18)
C25DA C 0.2475(3) 0.14926(18) -0.09632(18)
H10DA H 0.2459 0.1565 -0.0760
C27DA C 0.2496(3) 0.01500(18) -0.05571(15)
H12DA H 0.2503 0.0255 -0.0745
C28DA C 0.2506(4) 0.09747(19) -0.07672(19)
O3EA O 0.24812(6) -0.20989(7) 0.16739(8)
O4EA O 0.25184(7) -0.17161(7) 0.20169(7)
C2EA C 0.25008(12) -0.18189(10) 0.17498(11)
C4EA C 0.24970(16) -0.15983(13) 0.14977(12)
C7EA C 0.25183(19) -0.12911(15) 0.15536(15)
H2EA H 0.2533 -0.1221 0.1757
C11EA C 0.2481(2) -0.16931(17) 0.12039(15)
H5EA H 0.2473 -0.1905 0.1163
C16EA C 0.2519(2) -0.10846(16) 0.13203(16)
H8EA H 0.2539 -0.0873 0.1361
C19EA C 0.2491(3) -0.11901(17) 0.10223(16)
C22EA C 0.2484(4) -0.03186(18) 0.02830(16)
C23EA C 0.2491(3) -0.06402(17) 0.02737(16)
C24EA C 0.2502(3) -0.08178(18) 0.05506(18)
C25EA C 0.2475(3) -0.14926(18) 0.09632(18)
H10EA H 0.2459 -0.1565 0.0760
C27EA C 0.2496(3) -0.01500(18) 0.05571(15)
H12EA H 0.2503 -0.0255 0.0745
C28EA C 0.2506(4) -0.09747(19) 0.07672(19)
Zr1E Zr 0.24744(2) -0.25251(2) -0.19377(2)
O5E O 0.27751(9) -0.22484(7) -0.22000(8)
O6C O 0.22233(13) -0.22233(13) -0.22233(13)
Zr1F Zr -0.24744(2) -0.25251(2) 0.19377(2)
O3F O -0.24812(6) -0.20989(7) 0.16739(8)
O4F O -0.25184(7) -0.17161(7) 0.20169(7)
O5F O -0.27751(9) -0.22484(7) 0.22000(8)
C2F C -0.25008(12) -0.18189(10) 0.17498(11)
C4F C -0.24970(16) -0.15983(13) 0.14977(12)
C7F C -0.25183(19) -0.12911(15) 0.15536(15)
H2F H -0.2533 -0.1221 0.1757
C11F C -0.2481(2) -0.16931(17) 0.12039(15)
H5F H -0.2473 -0.1905 0.1163
C16F C -0.2519(2) -0.10846(16) 0.13203(16)
H8F H -0.2539 -0.0873 0.1361
C19F C -0.2491(3) -0.11901(17) 0.10223(16)
C21F C -0.2506(4) -0.0153(3) 0.0000
C22F C -0.2484(4) -0.03186(18) 0.02830(16)
C23F C -0.2491(3) -0.06402(17) 0.02737(16)
C24F C -0.2502(3) -0.08178(18) 0.05506(18)
C25F C -0.2475(3) -0.14926(18) 0.09632(18)
H10F H -0.2459 -0.1565 0.0760
C26F C -0.2494(4) -0.0798(2) 0.0000
H11F H -0.2498 -0.1013 0.0000
C27F C -0.2496(3) -0.01500(18) 0.05571(15)
H12F H -0.2503 -0.0255 0.0745
C28F C -0.2506(4) -0.09747(19) 0.07672(19)
O3G O -0.24812(6) 0.20989(7) -0.16739(8)
O4G O -0.25184(7) 0.17161(7) -0.20169(7)
C2G C -0.25008(12) 0.18189(10) -0.17498(11)
C4G C -0.24970(16) 0.15983(13) -0.14977(12)
C7G C -0.25183(19) 0.12911(15) -0.15536(15)
H2G H -0.2533 0.1221 -0.1757
C11G C -0.2481(2) 0.16931(17) -0.12039(15)
H5G H -0.2473 0.1905 -0.1163
C16G C -0.2519(2) 0.10846(16) -0.13203(16)
H8G H -0.2539 0.0873 -0.1361
C19G C -0.2491(3) 0.11901(17) -0.10223(16)
C21G C -0.2506(4) 0.0153(3) 0.0000
C22G C -0.2484(4) 0.03186(18) -0.02830(16)
C23G C -0.2491(3) 0.06402(17) -0.02737(16)
C24G C -0.2502(3) 0.08178(18) -0.05506(18)
C25G C -0.2475(3) 0.14926(18) -0.09632(18)
H10G H -0.2459 0.1565 -0.0760
C26G C -0.2494(4) 0.0798(2) 0.0000
H11G H -0.2498 0.1013 0.0000
C27G C -0.2496(3) 0.01500(18) -0.05571(15)
H12G H -0.2503 0.0255 -0.0745
C28G C -0.2506(4) 0.09747(19) -0.07672(19)
O3BA O -0.24812(6) -0.20989(7) -0.16739(8)
O4BA O -0.25184(7) -0.17161(7) -0.20169(7)
C2BA C -0.25008(12) -0.18189(10) -0.17498(11)
C4BA C -0.24970(16) -0.15983(13) -0.14977(12)
C7BA C -0.25183(19) -0.12911(15) -0.15536(15)
H2BA H -0.2533 -0.1221 -0.1757
C11BA C -0.2481(2) -0.16931(17) -0.12039(15)
H5BA H -0.2473 -0.1905 -0.1163
C16BA C -0.2519(2) -0.10846(16) -0.13203(16)
H8BA H -0.2539 -0.0873 -0.1361
C19BA C -0.2491(3) -0.11901(17) -0.10223(16)
C22BA C -0.2484(4) -0.03186(18) -0.02830(16)
C23BA C -0.2491(3) -0.06402(17) -0.02737(16)
C24BA C -0.2502(3) -0.08178(18) -0.05506(18)
C25BA C -0.2475(3) -0.14926(18) -0.09632(18)
H10BA H -0.2459 -0.1565 -0.0760
C27BA C -0.2496(3) -0.01500(18) -0.05571(15)
H12BA H -0.2503 -0.0255 -0.0745
C28BA C -0.2506(4) -0.09747(19) -0.07672(19)
O3CA O -0.24812(6) 0.20989(7) 0.16739(8)
O4CA O -0.25184(7) 0.17161(7) 0.20169(7)
C2CA C -0.25008(12) 0.18189(10) 0.17498(11)
C4CA C -0.24970(16) 0.15983(13) 0.14977(12)
C7CA C -0.25183(19) 0.12911(15) 0.15536(15)
H2CA H -0.2533 0.1221 0.1757
C11CA C -0.2481(2) 0.16931(17) 0.12039(15)
H5CA H -0.2473 0.1905 0.1163
C16CA C -0.2519(2) 0.10846(16) 0.13203(16)
H8CA H -0.2539 0.0873 0.1361
C19CA C -0.2491(3) 0.11901(17) 0.10223(16)
C22CA C -0.2484(4) 0.03186(18) 0.02830(16)
C23CA C -0.2491(3) 0.06402(17) 0.02737(16)
C24CA C -0.2502(3) 0.08178(18) 0.05506(18)
C25CA C -0.2475(3) 0.14926(18) 0.09632(18)
H10CA H -0.2459 0.1565 0.0760
C27CA C -0.2496(3) 0.01500(18) 0.05571(15)
H12CA H -0.2503 0.0255 0.0745
C28CA C -0.2506(4) 0.09747(19) 0.07672(19)
Zr1G Zr -0.24744(2) 0.25251(2) -0.19377(2)
O5G O -0.27751(9) 0.22484(7) -0.22000(8)
O6B O -0.22233(13) 0.22233(13) -0.22233(13)
Zr1H Zr 0.19377(2) 0.24744(2) 0.25251(2)
O5H O 0.22000(8) 0.27751(9) 0.22484(7)
Zr1I Zr -0.19377(2) 0.24744(2) -0.25251(2)
O5I O -0.22000(8) 0.27751(9) -0.22484(7)
Zr1J Zr 0.19377(2) -0.24744(2) -0.25251(2)
O5J O 0.22000(8) -0.27751(9) -0.22484(7)
Zr1K Zr -0.19377(2) -0.24744(2) 0.25251(2)
O5K O -0.22000(8) -0.27751(9) 0.22484(7)
Zr1Z Zr 0.25251(2) -0.19377(2) 0.24744(2)
O5Z O 0.22484(7) -0.22000(8) 0.27751(9)
Zr1AA Zr -0.25251(2) 0.19377(2) 0.24744(2)
O5AA O -0.22484(7) 0.22000(8) 0.27751(9)
O1NA O 0.25536(7) 0.16795(7) 0.29041(7)
O2NA O 0.25515(7) 0.20262(7) 0.32878(7)
C1NA C 0.25583(9) 0.17587(10) 0.31812(11)
C3NA C 0.25723(14) 0.15009(12) 0.34041(11)
C5NA C 0.2631(3) 0.02850(15) 0.46859(16)
C6NA C 0.2593(2) 0.15606(17) 0.37119(15)
H1NA H 0.2595 0.1763 0.3787
C8NA C 0.2585(2) 0.12046(16) 0.33051(18)
H3NA H 0.2599 0.1162 0.3094
C9NA C 0.2630(3) 0.05666(15) 0.48366(15)
H4NA H 0.2629 0.0752 0.4726
C10NA C 0.2607(3) 0.10245(15) 0.38115(16)
C12NA C 0.2610(3) 0.13016(17) 0.39155(15)
H6NA H 0.2624 0.1335 0.4128
C13NA C 0.2627(4) 0.02721(17) 0.43599(17)
C14NA C 0.2575(3) 0.09654(16) 0.35143(16)
H7NA H 0.2547 0.0763 0.3446
C15S C 0.2638(4) -0.0000 0.48385(19)
C17NA C 0.2617(3) 0.05470(16) 0.41886(15)
C18S C 0.2628(5) 0.0000 0.4209(2)
H9S H 0.2629 -0.0000 0.3993
C20NA C 0.2599(3) 0.07700(16) 0.40224(15)
O1OA O 0.25536(7) -0.16795(7) 0.70959(7)
O2OA O 0.25515(7) -0.20262(7) 0.67122(7)
C1OA C 0.25583(9) -0.17587(10) 0.68188(11)
C3OA C 0.25723(14) -0.15009(12) 0.65959(11)
C5OA C 0.2631(3) -0.02850(15) 0.53141(16)
C6OA C 0.2593(2) -0.15606(17) 0.62881(15)
H1OA H 0.2595 -0.1763 0.6213
C8OA C 0.2585(2) -0.12046(16) 0.66949(18)
H3OA H 0.2599 -0.1162 0.6906
C9OA C 0.2630(3) -0.05666(15) 0.51634(15)
H4OA H 0.2629 -0.0752 0.5274
C10OA C 0.2607(3) -0.10245(15) 0.61885(16)
C12OA C 0.2610(3) -0.13016(17) 0.60845(15)
H6OA H 0.2624 -0.1335 0.5872
C13OA C 0.2627(4) -0.02721(17) 0.56401(17)
C14OA C 0.2575(3) -0.09654(16) 0.64857(16)
H7OA H 0.2547 -0.0763 0.6554
C15R C 0.2638(4) 0.0000 0.51615(19)
C17OA C 0.2617(3) -0.05470(16) 0.58114(15)
C18R C 0.2628(5) 0.0000 0.5791(2)
H9R H 0.2629 -0.0000 0.6007
C20OA C 0.2599(3) -0.07700(16) 0.59776(15)
O1R O 0.25536(7) 0.16795(7) 0.70959(7)
O2R O 0.25515(7) 0.20262(7) 0.67122(7)
C1R C 0.25583(9) 0.17587(10) 0.68188(11)
C3R C 0.25723(14) 0.15009(12) 0.65959(11)
C5R C 0.2631(3) 0.02850(15) 0.53141(16)
C6R C 0.2593(2) 0.15606(17) 0.62881(15)
H1R H 0.2595 0.1763 0.6213
C8R C 0.2585(2) 0.12046(16) 0.66949(18)
H3R H 0.2599 0.1162 0.6906
C9R C 0.2630(3) 0.05666(15) 0.51634(15)
H4R H 0.2629 0.0752 0.5274
C10R C 0.2607(3) 0.10245(15) 0.61885(16)
C12R C 0.2610(3) 0.13016(17) 0.60845(15)
H6R H 0.2624 0.1335 0.5872
C13R C 0.2627(4) 0.02721(17) 0.56401(17)
C14R C 0.2575(3) 0.09654(16) 0.64857(16)
H7R H 0.2547 0.0763 0.6554
C17R C 0.2617(3) 0.05470(16) 0.58114(15)
C20R C 0.2599(3) 0.07700(16) 0.59776(15)
O1S O 0.25536(7) -0.16795(7) 0.29041(7)
O2S O 0.25515(7) -0.20262(7) 0.32878(7)
C1S C 0.25583(9) -0.17587(10) 0.31812(11)
C3S C 0.25723(14) -0.15009(12) 0.34041(11)
C5S C 0.2631(3) -0.02850(15) 0.46859(16)
C6S C 0.2593(2) -0.15606(17) 0.37119(15)
H1S H 0.2595 -0.1763 0.3787
C8S C 0.2585(2) -0.12046(16) 0.33051(18)
H3S H 0.2599 -0.1162 0.3094
C9S C 0.2630(3) -0.05666(15) 0.48366(15)
H4S H 0.2629 -0.0752 0.4726
C10S C 0.2607(3) -0.10245(15) 0.38115(16)
C12S C 0.2610(3) -0.13016(17) 0.39155(15)
H6S H 0.2624 -0.1335 0.4128
C13S C 0.2627(4) -0.02721(17) 0.43599(17)
C14S C 0.2575(3) -0.09654(16) 0.35143(16)
H7S H 0.2547 -0.0763 0.3446
C17S C 0.2617(3) -0.05470(16) 0.41886(15)
C20S C 0.2599(3) -0.07700(16) 0.40224(15)
Zr1_2 Zr -0.74749(2) 0.19377(2) 0.24744(2)
Zr1A_2 Zr 0.74749(2) -0.19377(2) 0.24744(2)
Zr1B Zr -0.25251(2) 0.19377(2) -0.24744(2)
Zr1C Zr 0.25251(2) -0.19377(2) -0.24744(2)
Zr1C_2 Zr 0.25251(2) -0.19377(2) 0.75256(2)
Zr1Q Zr -0.25256(2) 0.24749(2) 0.30623(2)
Zr1R Zr 0.25256(2) 0.24749(2) 0.69377(2)
Zr1S Zr 0.25256(2) -0.24749(2) 0.30623(2)
Zr1U Zr -0.69377(2) -0.25256(2) 0.24749(2)
Zr1U_2 Zr 0.30623(2) -0.25256(2) 0.24749(2)
Zr1V Zr -0.30623(2) 0.25256(2) 0.24749(2)
Zr1V_2 Zr 0.69377(2) 0.25256(2) 0.24749(2)
Zr1X Zr -0.25251(2) -0.19377(2) -0.24744(2)
Zr1Y Zr 0.25251(2) 0.19377(2) -0.24744(2)
Zr1Y_2 Zr 0.25251(2) 0.19377(2) 0.75256(2)
Zr1Z_2 Zr -0.74749(2) -0.19377(2) 0.24744(2)
Zr1AA_2 Zr 0.74749(2) 0.19377(2) 0.24744(2)
Zr1BA Zr -0.24744(2) -0.25251(2) -0.19377(2)
Zr1CA Zr -0.24744(2) 0.25251(2) 0.19377(2)
Zr1DA Zr 0.24744(2) 0.25251(2) -0.19377(2)
Zr1EA Zr 0.24744(2) -0.25251(2) 0.19377(2)
Zr1GA Zr 0.19377(2) -0.24744(2) 0.25251(2)
Zr1HA Zr -0.19377(2) 0.24744(2) 0.25251(2)
Zr1JA Zr 0.24749(2) 0.30623(2) 0.25256(2)
Zr1KA Zr -0.24749(2) -0.30623(2) 0.25256(2)
Zr1LA Zr -0.24749(2) 0.30623(2) -0.25256(2)
Zr1MA Zr 0.24749(2) -0.30623(2) -0.25256(2)
Zr1NA Zr 0.25256(2) 0.24749(2) 0.30623(2)
Zr1OA Zr 0.25256(2) -0.24749(2) -0.30623(2)
Zr1OA_2 Zr 0.25256(2) -0.24749(2) 0.69377(2)
Zr1PA Zr -0.25256(2) -0.24749(2) 0.30623(2)
Zr1QA Zr -0.25256(2) 0.24749(2) -0.30623(2)
Zr1RA Zr -0.69377(2) 0.25256(2) 0.24749(2)
Zr1RA_2 Zr 0.30623(2) 0.25256(2) 0.24749(2)
Zr1SA Zr -0.30623(2) 0.25256(2) -0.24749(2)
Zr1TA Zr 0.30623(2) -0.25256(2) -0.24749(2)
Zr1UA Zr -0.30623(2) -0.25256(2) 0.24749(2)
Zr1UA_2 Zr 0.69377(2) -0.25256(2) 0.24749(2)
O1Q O -0.25536(7) 0.16795(7) 0.29041(7)
O1JA O 0.16795(7) 0.29041(7) 0.25536(7)
O1KA O -0.16795(7) -0.29041(7) 0.25536(7)
O1LA O -0.16795(7) 0.29041(7) -0.25536(7)
O1MA O 0.16795(7) -0.29041(7) -0.25536(7)
O1PA O -0.25536(7) -0.16795(7) 0.29041(7)
O1RA O 0.29041(7) 0.25536(7) 0.16795(7)
O1SA O -0.29041(7) 0.25536(7) -0.16795(7)
O1TA O 0.29041(7) -0.25536(7) -0.16795(7)
O1UA O -0.29041(7) -0.25536(7) 0.16795(7)
O2D O 0.24485(7) 0.29738(7) 0.17122(7)
O2E O 0.24485(7) -0.29738(7) -0.17122(7)
O2F O -0.24485(7) -0.29738(7) 0.17122(7)
O2G O -0.24485(7) 0.29738(7) -0.17122(7)
O2H O 0.17122(7) 0.24485(7) 0.29738(7)
O2I O -0.17122(7) 0.24485(7) -0.29738(7)
O2J O 0.17122(7) -0.24485(7) -0.29738(7)
O2K O -0.17122(7) -0.24485(7) 0.29738(7)
O3H O 0.16739(8) 0.24812(6) 0.20989(7)
O3I O -0.16739(8) 0.24812(6) -0.20989(7)
O3J O 0.16739(8) -0.24812(6) -0.20989(7)
O3K O -0.16739(8) -0.24812(6) 0.20989(7)
O4B O -0.17161(7) 0.20169(7) -0.25184(7)
O4C O 0.17161(7) -0.20169(7) -0.25184(7)
O4H O 0.20169(7) 0.25184(7) 0.17161(7)
O4I O -0.20169(7) 0.25184(7) -0.17161(7)
O4J O 0.20169(7) -0.25184(7) -0.17161(7)
O4K O -0.20169(7) -0.25184(7) 0.17161(7)
O5B O -0.22484(7) 0.22000(8) -0.27751(9)
O5C O 0.22484(7) -0.22000(8) -0.27751(9)
O5U O 0.28000(8) -0.22249(9) 0.27516(7)
O5V O -0.28000(8) 0.22249(9) 0.27516(7)
O5CA O -0.27751(9) 0.22484(7) 0.22000(8)
O5EA O 0.27751(9) -0.22484(7) 0.22000(8)
O5JA O 0.27516(7) 0.28000(8) 0.22249(9)
O5KA O -0.27516(7) -0.28000(8) 0.22249(9)
O5LA O -0.27516(7) 0.28000(8) -0.22249(9)
O5MA O 0.27516(7) -0.28000(8) -0.22249(9)
O5NA O 0.22249(9) 0.27516(7) 0.28000(8)
O5OA O 0.22249(9) -0.27516(7) -0.28000(8)
O5PA O -0.22249(9) -0.27516(7) 0.28000(8)
O5QA O -0.22249(9) 0.27516(7) -0.28000(8)
O5RA O 0.28000(8) 0.22249(9) 0.27516(7)
O5UA O -0.28000(8) -0.22249(9) 0.27516(7)
O6Z O 0.22233(13) -0.22233(13) 0.22233(13)
O6AA O -0.22233(13) 0.22233(13) 0.22233(13)
loop_
_geom_bond_atom_site_label_1
_geom_bond_atom_site_label_2
_geom_bond_site_symmetry_1
_geom_bond_site_symmetry_2
Zr1 O2 1_555 1_555
O1 C1 1_555 1_555
O2 C1 1_555 1_555
O3 Zr1 1_555 1_555
O4 C2 1_555 1_555
O5 Zr1 1_555 1_555
O6 Zr1 1_555 1_555
C1 C3 1_555 1_555
C2 O3 1_555 1_555
C3 C6 1_555 1_555
C4 C2 1_555 1_555
C5 C9 1_555 1_555
C6 H1 1_555 1_555
C7 C4 1_555 1_555
H2 C7 1_555 1_555
C8 C3 1_555 1_555
H3 C8 1_555 1_555
C9 H4 1_555 1_555
C10 C12 1_555 1_555
C11 C4 1_555 1_555
H5 C11 1_555 1_555
C12 C6 1_555 1_555
H6 C12 1_555 1_555
C13 C5 1_555 1_555
C14 C8 1_555 1_555
H7 C14 1_555 1_555
C15 C5 1_555 1_555
C16 C7 1_555 1_555
H8 C16 1_555 1_555
C17 C13 1_555 1_555
C18 C13 1_555 1_555
H9 C18 1_555 1_555
C19 C16 1_555 1_555
C20 C10 1_555 1_555
C21 C22 1_555 1_555
C22 C23 1_555 1_555
C23 C24 1_555 1_555
C24 C28 1_555 1_555
C25 C11 1_555 1_555
H10 C25 1_555 1_555
C26 C23 1_555 1_555
H11 C26 1_555 1_555
C27 C22 1_555 1_555
H12 C27 1_555 1_555
C28 C19 1_555 1_555
O1A C1A 1_555 1_555
O2A C1A 1_555 1_555
C1A C3A 1_555 1_555
C3A C6A 1_555 1_555
C5A C9A 1_555 1_555
C6A H1A 1_555 1_555
C8A C3A 1_555 1_555
H3A C8A 1_555 1_555
C9A H4A 1_555 1_555
C10A C12A 1_555 1_555
C12A C6A 1_555 1_555
H6A C12A 1_555 1_555
C13A C5A 1_555 1_555
C14A C8A 1_555 1_555
H7A C14A 1_555 1_555
C15A C15 1_555 1_555
C17A C13A 1_555 1_555
C18A C13A 1_555 1_555
H9A C18A 1_555 1_555
C20A C10A 1_555 1_555
O1Z C1Z 1_555 1_555
O2Z C1Z 1_555 1_555
C1Z C3Z 1_555 1_555
C3Z C6Z 1_555 1_555
C5Z C15A 1_555 1_555
C6Z H1Z 1_555 1_555
C8Z C3Z 1_555 1_555
H3Z C8Z 1_555 1_555
C9Z C9 1_555 1_555
H4Z C9Z 1_555 1_555
C10Z C12Z 1_555 1_555
C12Z C6Z 1_555 1_555
H6Z C12Z 1_555 1_555
C13Z C18A 1_555 1_555
C14Z C8Z 1_555 1_555
H7Z C14Z 1_555 1_555
C17Z C13Z 1_555 1_555
C20Z C10Z 1_555 1_555
O1AA C1AA 1_555 1_555
O2AA C1AA 1_555 1_555
C1AA C3AA 1_555 1_555
C3AA C6AA 1_555 1_555
C5AA C15 1_555 1_555
C6AA H1AA 1_555 1_555
C8AA C3AA 1_555 1_555
H3AA C8AA 1_555 1_555
C9AA C9A 1_555 1_555
H4AA C9AA 1_555 1_555
C10AA C12AA 1_555 1_555
C12AA C6AA 1_555 1_555
H6AA C12AA 1_555 1_555
C13AA C18 1_555 1_555
C14AA C8AA 1_555 1_555
H7AA C14AA 1_555 1_555
C17AA C13AA 1_555 1_555
C20AA C10AA 1_555 1_555
O3A C2A 1_555 1_555
O4A C2A 1_555 1_555
C2A C4A 1_555 1_555
C4A C7A 1_555 1_555
C7A H2A 1_555 1_555
C11A C4A 1_555 1_555
H5A C11A 1_555 1_555
C16A C7A 1_555 1_555
H8A C16A 1_555 1_555
C19A C16A 1_555 1_555
C21A C21 1_555 1_555
C22A C21A 1_555 1_555
C23A C22A 1_555 1_555
C24A C23A 1_555 1_555
C25A C11A 1_555 1_555
H10A C25A 1_555 1_555
C26A C23A 1_555 1_555
H11A C26A 1_555 1_555
C27A C22A 1_555 1_555
H12A C27A 1_555 1_555
C28A C19A 1_555 1_555
O3Z C2Z 1_555 1_555
O4Z C2Z 1_555 1_555
C2Z C4Z 1_555 1_555
C4Z C7Z 1_555 1_555
C7Z H2Z 1_555 1_555
C11Z C4Z 1_555 1_555
H5Z C11Z 1_555 1_555
C16Z C7Z 1_555 1_555
H8Z C16Z 1_555 1_555
C19Z C16Z 1_555 1_555
C22Z C21 1_555 1_555
C23Z C26 1_555 1_555
C24Z C23Z 1_555 1_555
C25Z C11Z 1_555 1_555
H10Z C25Z 1_555 1_555
C27Z C27A 1_555 1_555
H12Z C27Z 1_555 1_555
C28Z C19Z 1_555 1_555
O3AA C2AA 1_555 1_555
O4AA C2AA 1_555 1_555
C2AA C4AA 1_555 1_555
C4AA C7AA 1_555 1_555
C7AA H2AA 1_555 1_555
C11AA C4AA 1_555 1_555
H5AA C11AA 1_555 1_555
C16AA C7AA 1_555 1_555
H8AA C16AA 1_555 1_555
C19AA C16AA 1_555 1_555
C22AA C21A 1_555 1_555
C23AA C26A 1_555 1_555
C24AA C23AA 1_555 1_555
C25AA C11AA 1_555 1_555
H10AA C25AA 1_555 1_555
C27AA C27 1_555 1_555
H12AA C27AA 1_555 1_555
C28AA C19AA 1_555 1_555
Zr1A O3A 1_555 1_555
O1A_2 C1A_2 1_555 1_555
O2A_2 Zr1A 1_555 1_555
O5A Zr1A 1_555 1_555
O6A Zr1A 1_555 1_555
C1A_2 O2A_2 1_555 1_555
C3A_2 C1A_2 1_555 1_555
C5A_2 C9A_2 1_555 1_555
C6A_2 C3A_2 1_555 1_555
H1A_2 C6A_2 1_555 1_555
C8A_2 C3A_2 1_555 1_555
H3A_2 C8A_2 1_555 1_555
C9A_2 H4A_2 1_555 1_555
C10A_2 C12A_2 1_555 1_555
C12A_2 C6A_2 1_555 1_555
H6A_2 C12A_2 1_555 1_555
C13A_2 C5A_2 1_555 1_555
C14A_2 C8A_2 1_555 1_555
H7A_2 C14A_2 1_555 1_555
C15A_2 C5A_2 1_555 1_555
C17A_2 C13A_2 1_555 1_555
C18A_2 C13A_2 1_555 1_555
H9A_2 C18A_2 1_555 1_555
C20A_2 C10A_2 1_555 1_555
O1_2 C1_2 1_555 1_555
O2_2 C1_2 1_555 1_555
C1_2 C3_2 1_555 1_555
C3_2 C6_2 1_555 1_555
C5_2 C9_2 1_555 1_555
C6_2 H1_2 1_555 1_555
C8_2 C3_2 1_555 1_555
H3_2 C8_2 1_555 1_555
C9_2 H4_2 1_555 1_555
C10_2 C12_2 1_555 1_555
C12_2 C6_2 1_555 1_555
H6_2 C12_2 1_555 1_555
C13_2 C5_2 1_555 1_555
C14_2 C8_2 1_555 1_555
H7_2 C14_2 1_555 1_555
C15_2 C15A_2 1_555 1_555
C17_2 C13_2 1_555 1_555
C18_2 C13_2 1_555 1_555
H9_2 C18_2 1_555 1_555
C20_2 C10_2 1_555 1_555
O1AA_2 C1AA_2 1_555 1_555
O2AA_2 C1AA_2 1_555 1_555
C1AA_2 C3AA_2 1_555 1_555
C3AA_2 C6AA_2 1_555 1_555
C5AA_2 C15_2 1_555 1_555
C6AA_2 H1AA_2 1_555 1_555
C8AA_2 C3AA_2 1_555 1_555
H3AA_2 C8AA_2 1_555 1_555
C9AA_2 C9A_2 1_555 1_555
H4AA_2 C9AA_2 1_555 1_555
C10AA_2 C12AA_2 1_555 1_555
C12AA_2 C6AA_2 1_555 1_555
H6AA_2 C12AA_2 1_555 1_555
C13AA_2 C18_2 1_555 1_555
C14AA_2 C8AA_2 1_555 1_555
H7AA_2 C14AA_2 1_555 1_555
C17AA_2 C13AA_2 1_555 1_555
C20AA_2 C10AA_2 1_555 1_555
O1Z_2 C1Z_2 1_555 1_555
O2Z_2 C1Z_2 1_555 1_555
C1Z_2 C3Z_2 1_555 1_555
C3Z_2 C6Z_2 1_555 1_555
C5Z_2 C15A_2 1_555 1_555
C6Z_2 H1Z_2 1_555 1_555
C8Z_2 C3Z_2 1_555 1_555
H3Z_2 C8Z_2 1_555 1_555
C9Z_2 C9_2 1_555 1_555
H4Z_2 C9Z_2 1_555 1_555
C10Z_2 C12Z_2 1_555 1_555
C12Z_2 C6Z_2 1_555 1_555
H6Z_2 C12Z_2 1_555 1_555
C13Z_2 C18A_2 1_555 1_555
C14Z_2 C8Z_2 1_555 1_555
H7Z_2 C14Z_2 1_555 1_555
C17Z_2 C13Z_2 1_555 1_555
C20Z_2 C10Z_2 1_555 1_555
Zr1D Zr1 1_555 1_555
O3D Zr1D 1_555 1_555
O4D Zr1 1_555 1_555
O5D Zr1 1_555 1_555
C2D O3D 1_555 1_555
C4D C2D 1_555 1_555
C7D C4D 1_555 1_555
H2D C7D 1_555 1_555
C11D C4D 1_555 1_555
H5D C11D 1_555 1_555
C16D C7D 1_555 1_555
H8D C16D 1_555 1_555
C19D C16D 1_555 1_555
C21D C22D 1_555 1_555
C22D C23D 1_555 1_555
C23D C24D 1_555 1_555
C24D C28D 1_555 1_555
C25D C11D 1_555 1_555
H10D C25D 1_555 1_555
C26D C23D 1_555 1_555
H11D C26D 1_555 1_555
C27D C22D 1_555 1_555
H12D C27D 1_555 1_555
C28D C19D 1_555 1_555
O3E C2E 1_555 1_555
O4E C2E 1_555 1_555
C2E C4E 1_555 1_555
C4E C7E 1_555 1_555
C7E H2E 1_555 1_555
C11E C4E 1_555 1_555
H5E C11E 1_555 1_555
C16E C7E 1_555 1_555
H8E C16E 1_555 1_555
C19E C16E 1_555 1_555
C21E C21D 1_555 1_555
C22E C21E 1_555 1_555
C23E C22E 1_555 1_555
C24E C23E 1_555 1_555
C25E C11E 1_555 1_555
H10E C25E 1_555 1_555
C26E C23E 1_555 1_555
H11E C26E 1_555 1_555
C27E C22E 1_555 1_555
H12E C27E 1_555 1_555
C28E C19E 1_555 1_555
O3DA C2DA 1_555 1_555
O4DA C2DA 1_555 1_555
C2DA C4DA 1_555 1_555
C4DA C7DA 1_555 1_555
C7DA H2DA 1_555 1_555
C11DA C4DA 1_555 1_555
H5DA C11DA 1_555 1_555
C16DA C7DA 1_555 1_555
H8DA C16DA 1_555 1_555
C19DA C16DA 1_555 1_555
C22DA C21D 1_555 1_555
C23DA C26D 1_555 1_555
C24DA C23DA 1_555 1_555
C25DA C11DA 1_555 1_555
H10DA C25DA 1_555 1_555
C27DA C27E 1_555 1_555
H12DA C27DA 1_555 1_555
C28DA C19DA 1_555 1_555
O3EA C2EA 1_555 1_555
O4EA C2EA 1_555 1_555
C2EA C4EA 1_555 1_555
C4EA C7EA 1_555 1_555
C7EA H2EA 1_555 1_555
C11EA C4EA 1_555 1_555
H5EA C11EA 1_555 1_555
C16EA C7EA 1_555 1_555
H8EA C16EA 1_555 1_555
C19EA C16EA 1_555 1_555
C22EA C21E 1_555 1_555
C23EA C26E 1_555 1_555
C24EA C23EA 1_555 1_555
C25EA C11EA 1_555 1_555
H10EA C25EA 1_555 1_555
C27EA C27D 1_555 1_555
H12EA C27EA 1_555 1_555
C28EA C19EA 1_555 1_555
Zr1E O3E 1_555 1_555
O5E Zr1E 1_555 1_555
O6C Zr1E 1_555 1_555
Zr1F Zr1A 1_555 1_555
O3F Zr1F 1_555 1_555
O4F Zr1A 1_555 1_555
O5F Zr1A 1_555 1_555
C2F O3F 1_555 1_555
C4F C2F 1_555 1_555
C7F C4F 1_555 1_555
H2F C7F 1_555 1_555
C11F C4F 1_555 1_555
H5F C11F 1_555 1_555
C16F C7F 1_555 1_555
H8F C16F 1_555 1_555
C19F C16F 1_555 1_555
C21F C22F 1_555 1_555
C22F C23F 1_555 1_555
C23F C24F 1_555 1_555
C24F C28F 1_555 1_555
C25F C11F 1_555 1_555
H10F C25F 1_555 1_555
C26F C23F 1_555 1_555
H11F C26F 1_555 1_555
C27F C22F 1_555 1_555
H12F C27F 1_555 1_555
C28F C19F 1_555 1_555
O3G C2G 1_555 1_555
O4G C2G 1_555 1_555
C2G C4G 1_555 1_555
C4G C7G 1_555 1_555
C7G H2G 1_555 1_555
C11G C4G 1_555 1_555
H5G C11G 1_555 1_555
C16G C7G 1_555 1_555
H8G C16G 1_555 1_555
C19G C16G 1_555 1_555
C21G C21F 1_555 1_555
C22G C21G 1_555 1_555
C23G C22G 1_555 1_555
C24G C23G 1_555 1_555
C25G C11G 1_555 1_555
H10G C25G 1_555 1_555
C26G C23G 1_555 1_555
H11G C26G 1_555 1_555
C27G C22G 1_555 1_555
H12G C27G 1_555 1_555
C28G C19G 1_555 1_555
O3BA C2BA 1_555 1_555
O4BA C2BA 1_555 1_555
C2BA C4BA 1_555 1_555
C4BA C7BA 1_555 1_555
C7BA H2BA 1_555 1_555
C11BA C4BA 1_555 1_555
H5BA C11BA 1_555 1_555
C16BA C7BA 1_555 1_555
H8BA C16BA 1_555 1_555
C19BA C16BA 1_555 1_555
C22BA C21F 1_555 1_555
C23BA C26F 1_555 1_555
C24BA C23BA 1_555 1_555
C25BA C11BA 1_555 1_555
H10BA C25BA 1_555 1_555
C27BA C27G 1_555 1_555
H12BA C27BA 1_555 1_555
C28BA C19BA 1_555 1_555
O3CA C2CA 1_555 1_555
O4CA C2CA 1_555 1_555
C2CA C4CA 1_555 1_555
C4CA C7CA 1_555 1_555
C7CA H2CA 1_555 1_555
C11CA C4CA 1_555 1_555
H5CA C11CA 1_555 1_555
C16CA C7CA 1_555 1_555
H8CA C16CA 1_555 1_555
C19CA C16CA 1_555 1_555
C22CA C21G 1_555 1_555
C23CA C26G 1_555 1_555
C24CA C23CA 1_555 1_555
C25CA C11CA 1_555 1_555
H10CA C25CA 1_555 1_555
C27CA C27F 1_555 1_555
H12CA C27CA 1_555 1_555
C28CA C19CA 1_555 1_555
Zr1G O3G 1_555 1_555
O5G Zr1G 1_555 1_555
O6B Zr1G 1_555 1_555
Zr1H Zr1 1_555 1_555
O5H Zr1D 1_555 1_555
Zr1I Zr1G 1_555 1_555
O5I Zr1G 1_555 1_555
Zr1J Zr1E 1_555 1_555
O5J Zr1E 1_555 1_555
Zr1K O4A 1_555 1_555
O5K Zr1F 1_555 1_555
Zr1Z O2Z 1_555 1_555
O5Z Zr1Z 1_555 1_555
Zr1AA O3AA 1_555 1_555
O5AA Zr1AA 1_555 1_555
O1NA Zr1 1_555 1_555
O2NA C1NA 1_555 1_555
C1NA O1NA 1_555 1_555
C3NA C1NA 1_555 1_555
C5NA C9NA 1_555 1_555
C6NA C3NA 1_555 1_555
H1NA C6NA 1_555 1_555
C8NA C3NA 1_555 1_555
H3NA C8NA 1_555 1_555
C9NA H4NA 1_555 1_555
C10NA C12NA 1_555 1_555
C12NA C6NA 1_555 1_555
H6NA C12NA 1_555 1_555
C13NA C5NA 1_555 1_555
C14NA C8NA 1_555 1_555
H7NA C14NA 1_555 1_555
C15S C5NA 1_555 1_555
C17NA C13NA 1_555 1_555
C18S C13NA 1_555 1_555
H9S C18S 1_555 1_555
C20NA C10NA 1_555 1_555
O1OA C1OA 1_555 1_555
O2OA C1OA 1_555 1_555
C1OA C3OA 1_555 1_555
C3OA C6OA 1_555 1_555
C5OA C9OA 1_555 1_555
C6OA H1OA 1_555 1_555
C8OA C3OA 1_555 1_555
H3OA C8OA 1_555 1_555
C9OA H4OA 1_555 1_555
C10OA C12OA 1_555 1_555
C12OA C6OA 1_555 1_555
H6OA C12OA 1_555 1_555
C13OA C5OA 1_555 1_555
C14OA C8OA 1_555 1_555
H7OA C14OA 1_555 1_555
C15R C15S 1_555 1_555
C17OA C13OA 1_555 1_555
C18R C13OA 1_555 1_555
H9R C18R 1_555 1_555
C20OA C10OA 1_555 1_555
O1R C1R 1_555 1_555
O2R C1R 1_555 1_555
C1R C3R 1_555 1_555
C3R C6R 1_555 1_555
C5R C15R 1_555 1_555
C6R H1R 1_555 1_555
C8R C3R 1_555 1_555
H3R C8R 1_555 1_555
C9R C9NA 1_555 1_555
H4R C9R 1_555 1_555
C10R C12R 1_555 1_555
C12R C6R 1_555 1_555
H6R C12R 1_555 1_555
C13R C18R 1_555 1_555
C14R C8R 1_555 1_555
H7R C14R 1_555 1_555
C17R C13R 1_555 1_555
C20R C10R 1_555 1_555
O1S Zr1Z 1_555 1_555
O2S C1S 1_555 1_555
C1S O1S 1_555 1_555
C3S C1S 1_555 1_555
C5S C15S 1_555 1_555
C6S C3S 1_555 1_555
H1S C6S 1_555 1_555
C8S C3S 1_555 1_555
H3S C8S 1_555 1_555
C9S C9OA 1_555 1_555
H4S C9S 1_555 1_555
C10S C12S 1_555 1_555
C12S C6S 1_555 1_555
H6S C12S 1_555 1_555
C13S C18S 1_555 1_555
C14S C8S 1_555 1_555
H7S C14S 1_555 1_555
C17S C13S 1_555 1_555
C20S C10S 1_555 1_555
Zr1_2 O2_2 1_555 1_555
Zr1A_2 O2A 1_555 1_555
Zr1B O4G 1_555 1_555
Zr1C O4E 1_555 1_555
Zr1C_2 O1OA 1_555 1_555
Zr1Q Zr1AA 1_555 1_555
Zr1R O2R 1_555 1_555
Zr1S Zr1Z 1_555 1_555
Zr1U O1Z_2 1_555 1_555
Zr1U_2 O1Z 1_555 1_555
Zr1V O1AA_2 1_555 1_555
Zr1V_2 O1AA 1_555 1_555
Zr1X O4BA 1_555 1_555
Zr1Y O4DA 1_555 1_555
Zr1Y_2 O1R 1_555 1_555
Zr1Z_2 O2Z_2 1_555 1_555
Zr1AA_2 O2AA 1_555 1_555
Zr1BA O3BA 1_555 1_555
Zr1CA O3CA 1_555 1_555
Zr1DA O3DA 1_555 1_555
Zr1EA O3EA 1_555 1_555
Zr1GA O4Z 1_555 1_555
Zr1HA O4AA 1_555 1_555
Zr1JA Zr1D 1_555 1_555
Zr1KA Zr1F 1_555 1_555
Zr1LA Zr1G 1_555 1_555
Zr1MA Zr1E 1_555 1_555
Zr1NA Zr1 1_555 1_555
Zr1OA Zr1J 1_555 1_555
Zr1OA_2 O2OA 1_555 1_555
Zr1PA Zr1A 1_555 1_555
Zr1QA Zr1I 1_555 1_555
Zr1RA O1_2 1_555 1_555
Zr1RA_2 Zr1 1_555 1_555
Zr1SA Zr1G 1_555 1_555
Zr1TA Zr1E 1_555 1_555
Zr1UA Zr1A 1_555 1_555
Zr1UA_2 O1A 1_555 1_555
O1Q Zr1AA 1_555 1_555
O1JA Zr1H 1_555 1_555
O1KA Zr1K 1_555 1_555
O1LA Zr1I 1_555 1_555
O1MA Zr1J 1_555 1_555
O1PA Zr1A 1_555 1_555
O1RA Zr1D 1_555 1_555
O1SA Zr1G 1_555 1_555
O1TA Zr1E 1_555 1_555
O1UA Zr1F 1_555 1_555
O2D Zr1D 1_555 1_555
O2E Zr1E 1_555 1_555
O2F Zr1F 1_555 1_555
O2G Zr1G 1_555 1_555
O2H Zr1H 1_555 1_555
O2I Zr1I 1_555 1_555
O2J Zr1J 1_555 1_555
O2K Zr1K 1_555 1_555
O3H Zr1H 1_555 1_555
O3I Zr1I 1_555 1_555
O3J Zr1J 1_555 1_555
O3K Zr1K 1_555 1_555
O4B Zr1I 1_555 1_555
O4C Zr1J 1_555 1_555
O4H Zr1D 1_555 1_555
O4I Zr1G 1_555 1_555
O4J Zr1E 1_555 1_555
O4K Zr1F 1_555 1_555
O5B Zr1I 1_555 1_555
O5C Zr1J 1_555 1_555
O5U Zr1Z 1_555 1_555
O5V Zr1AA 1_555 1_555
O5CA Zr1AA 1_555 1_555
O5EA Zr1Z 1_555 1_555
O5JA Zr1D 1_555 1_555
O5KA Zr1F 1_555 1_555
O5LA Zr1G 1_555 1_555
O5MA Zr1E 1_555 1_555
O5NA Zr1H 1_555 1_555
O5OA Zr1J 1_555 1_555
O5PA Zr1K 1_555 1_555
O5QA Zr1I 1_555 1_555
O5RA Zr1 1_555 1_555
O5UA Zr1A 1_555 1_555
O6Z Zr1Z 1_555 1_555
O6AA Zr1AA 1_555 1_555
O1 Zr1RA_2 1_555 1_555
O4 Zr1H 1_555 1_555
O5 Zr1H 1_555 1_555
O5 Zr1NA 1_555 1_555
O6 Zr1D 1_555 1_555
O6 Zr1H 1_555 1_555
C10 C14 1_555 1_555
C17 C20 1_555 1_555
C19 C25 1_555 1_555
C5A C15A 1_555 1_555
C10A C14A 1_555 1_555
C17A C20A 1_555 1_555
C5Z C9Z 1_555 1_555
C5Z C13Z 1_555 1_555
C10Z C14Z 1_555 1_555
C17Z C20Z 1_555 1_555
C5AA C9AA 1_555 1_555
C5AA C13AA 1_555 1_555
C10AA C14AA 1_555 1_555
C17AA C20AA 1_555 1_555
C19A C25A 1_555 1_555
C24A C28A 1_555 1_555
O3Z Zr1Z 1_555 1_555
C19Z C25Z 1_555 1_555
C22Z C23Z 1_555 1_555
C22Z C27Z 1_555 1_555
C24Z C28Z 1_555 1_555
C19AA C25AA 1_555 1_555
C22AA C23AA 1_555 1_555
C22AA C27AA 1_555 1_555
C24AA C28AA 1_555 1_555
Zr1A Zr1K 1_555 1_555
O1A_2 Zr1UA 1_555 1_555
O5A Zr1K 1_555 1_555
O5A Zr1PA 1_555 1_555
O6A Zr1F 1_555 1_555
O6A Zr1K 1_555 1_555
C10A_2 C14A_2 1_555 1_555
C17A_2 C20A_2 1_555 1_555
C5_2 C15_2 1_555 1_555
C10_2 C14_2 1_555 1_555
C17_2 C20_2 1_555 1_555
O2AA_2 Zr1AA 1_555 1_555
C5AA_2 C9AA_2 1_555 1_555
C5AA_2 C13AA_2 1_555 1_555
C10AA_2 C14AA_2 1_555 1_555
C17AA_2 C20AA_2 1_555 1_555
C5Z_2 C9Z_2 1_555 1_555
C5Z_2 C13Z_2 1_555 1_555
C10Z_2 C14Z_2 1_555 1_555
C17Z_2 C20Z_2 1_555 1_555
Zr1D O5D 1_555 1_555
Zr1D Zr1H 1_555 1_555
Zr1D Zr1RA_2 1_555 1_555
O4D C2D 1_555 1_555
O5D Zr1RA_2 1_555 1_555
C19D C25D 1_555 1_555
C19E C25E 1_555 1_555
C24E C28E 1_555 1_555
C19DA C25DA 1_555 1_555
C22DA C23DA 1_555 1_555
C22DA C27DA 1_555 1_555
C24DA C28DA 1_555 1_555
O4EA Zr1Z 1_555 1_555
C19EA C25EA 1_555 1_555
C22EA C23EA 1_555 1_555
C22EA C27EA 1_555 1_555
C24EA C28EA 1_555 1_555
Zr1E Zr1C 1_555 1_555
O5E Zr1C 1_555 1_555
O5E Zr1TA 1_555 1_555
O6C Zr1J 1_555 1_555
O6C Zr1C 1_555 1_555
Zr1F O5F 1_555 1_555
Zr1F Zr1K 1_555 1_555
Zr1F Zr1UA 1_555 1_555
O4F C2F 1_555 1_555
O5F Zr1UA 1_555 1_555
C19F C25F 1_555 1_555
C19G C25G 1_555 1_555
C24G C28G 1_555 1_555
C19BA C25BA 1_555 1_555
C22BA C23BA 1_555 1_555
C22BA C27BA 1_555 1_555
C24BA C28BA 1_555 1_555
O4CA Zr1AA 1_555 1_555
C19CA C25CA 1_555 1_555
C22CA C23CA 1_555 1_555
C22CA C27CA 1_555 1_555
C24CA C28CA 1_555 1_555
Zr1G Zr1B 1_555 1_555
O5G Zr1B 1_555 1_555
O5G Zr1SA 1_555 1_555
O6B Zr1I 1_555 1_555
O6B Zr1B 1_555 1_555
Zr1H O5H 1_555 1_555
Zr1H Zr1JA 1_555 1_555
Zr1H Zr1NA 1_555 1_555
O5H Zr1JA 1_555 1_555
Zr1I O5I 1_555 1_555
Zr1I Zr1B 1_555 1_555
Zr1I Zr1LA 1_555 1_555
O5I Zr1LA 1_555 1_555
Zr1J O5J 1_555 1_555
Zr1J Zr1C 1_555 1_555
Zr1J Zr1MA 1_555 1_555
O5J Zr1MA 1_555 1_555
Zr1K O5K 1_555 1_555
Zr1K Zr1KA 1_555 1_555
Zr1K Zr1PA 1_555 1_555
O5K Zr1KA 1_555 1_555
Zr1Z Zr1U_2 1_555 1_555
Zr1Z Zr1EA 1_555 1_555
Zr1Z Zr1GA 1_555 1_555
O5Z Zr1S 1_555 1_555
O5Z Zr1GA 1_555 1_555
Zr1AA Zr1V 1_555 1_555
Zr1AA Zr1CA 1_555 1_555
Zr1AA Zr1HA 1_555 1_555
O5AA Zr1Q 1_555 1_555
O5AA Zr1HA 1_555 1_555
O2NA Zr1NA 1_555 1_555
C10NA C14NA 1_555 1_555
C17NA C20NA 1_555 1_555
C5OA C15R 1_555 1_555
C10OA C14OA 1_555 1_555
C17OA C20OA 1_555 1_555
C5R C9R 1_555 1_555
C5R C13R 1_555 1_555
C10R C14R 1_555 1_555
C17R C20R 1_555 1_555
O2S Zr1S 1_555 1_555
C5S C9S 1_555 1_555
C5S C13S 1_555 1_555
C10S C14S 1_555 1_555
C17S C20S 1_555 1_555
Zr1_2 Zr1RA 1_555 1_555
Zr1A_2 Zr1UA_2 1_555 1_555
Zr1B Zr1QA 1_555 1_555
Zr1B Zr1SA 1_555 1_555
Zr1B O5B 1_555 1_555
Zr1C Zr1OA 1_555 1_555
Zr1C Zr1TA 1_555 1_555
Zr1C O5C 1_555 1_555
Zr1C_2 Zr1OA_2 1_555 1_555
Zr1Q Zr1V 1_555 1_555
Zr1Q Zr1HA 1_555 1_555
Zr1Q O5V 1_555 1_555
Zr1R Zr1Y_2 1_555 1_555
Zr1S Zr1U_2 1_555 1_555
Zr1S Zr1GA 1_555 1_555
Zr1S O5U 1_555 1_555
Zr1U Zr1Z_2 1_555 1_555
Zr1U_2 Zr1EA 1_555 1_555
Zr1U_2 O5U 1_555 1_555
Zr1U_2 O5EA 1_555 1_555
Zr1V Zr1CA 1_555 1_555
Zr1V O5V 1_555 1_555
Zr1V O5CA 1_555 1_555
Zr1V_2 Zr1AA_2 1_555 1_555
Zr1X Zr1BA 1_555 1_555
Zr1Y Zr1DA 1_555 1_555
Zr1CA Zr1HA 1_555 1_555
Zr1CA O5CA 1_555 1_555
Zr1CA O6AA 1_555 1_555
Zr1EA Zr1GA 1_555 1_555
Zr1EA O5EA 1_555 1_555
Zr1EA O6Z 1_555 1_555
Zr1GA O6Z 1_555 1_555
Zr1HA O6AA 1_555 1_555
Zr1JA Zr1NA 1_555 1_555
Zr1JA Zr1RA_2 1_555 1_555
Zr1JA O5JA 1_555 1_555
Zr1JA O5NA 1_555 1_555
Zr1KA Zr1PA 1_555 1_555
Zr1KA Zr1UA 1_555 1_555
Zr1KA O5KA 1_555 1_555
Zr1KA O5PA 1_555 1_555
Zr1LA Zr1QA 1_555 1_555
Zr1LA Zr1SA 1_555 1_555
Zr1LA O5LA 1_555 1_555
Zr1LA O5QA 1_555 1_555
Zr1MA Zr1OA 1_555 1_555
Zr1MA Zr1TA 1_555 1_555
Zr1MA O5MA 1_555 1_555
Zr1MA O5OA 1_555 1_555
Zr1NA Zr1RA_2 1_555 1_555
Zr1NA O5NA 1_555 1_555
Zr1NA O5RA 1_555 1_555
Zr1OA Zr1TA 1_555 1_555
Zr1OA O5C 1_555 1_555
Zr1OA O5OA 1_555 1_555
Zr1PA Zr1UA 1_555 1_555
Zr1PA O5PA 1_555 1_555
Zr1PA O5UA 1_555 1_555
Zr1QA Zr1SA 1_555 1_555
Zr1QA O5B 1_555 1_555
Zr1QA O5QA 1_555 1_555
Zr1RA_2 O5JA 1_555 1_555
Zr1RA_2 O5RA 1_555 1_555
Zr1SA O5LA 1_555 1_555
Zr1TA O5MA 1_555 1_555
Zr1UA O5KA 1_555 1_555
Zr1UA O5UA 1_555 1_555

#END
