
#######################################################################
#
#                 Cambridge Crystallographic Data Centre
#                                CCDC 
#
#######################################################################
#
# If this CIF has been generated from an entry in the Cambridge 
# Structural Database, then it will include bibliographic, chemical, 
# crystal, experimental, refinement or atomic coordinate data resulting 
# from the CCDC's data processing and validation procedures.
#
#######################################################################

data_EVEGIV
_chemical_formula_moiety         '(C18 H18 Cu2 N10 O6)n'
_symmetry_cell_setting           rhombohedral
_symmetry_space_group_name_H-M   'R -3 m'
_symmetry_Int_Tables_number      166
_space_group_name_Hall           '-R 3 2"'
loop_
_symmetry_equiv_pos_site_id
_symmetry_equiv_pos_as_xyz
1 x,y,z
2 y,x,-z
3 -y,x-y,z
4 -x+y,-x,z
5 1/3+x,2/3+y,2/3+z
6 1/3-y,2/3+x-y,2/3+z
7 1/3-x+y,2/3-x,2/3+z
8 2/3+x,1/3+y,1/3+z
9 2/3-y,1/3+x-y,1/3+z
10 2/3-x+y,1/3-x,1/3+z
11 -x,-x+y,-z
12 x-y,-y,-z
13 1/3+y,2/3+x,2/3-z
14 1/3-x,2/3-x+y,2/3-z
15 1/3+x-y,2/3-y,2/3-z
16 2/3+y,1/3+x,1/3-z
17 2/3-x,1/3-x+y,1/3-z
18 2/3+x-y,1/3-y,1/3-z
19 -x,-y,-z
20 -y,-x,z
21 y,-x+y,-z
22 x-y,x,-z
23 2/3-x,1/3-y,1/3-z
24 2/3+y,1/3-x+y,1/3-z
25 2/3+x-y,1/3+x,1/3-z
26 1/3-x,2/3-y,2/3-z
27 1/3+y,2/3-x+y,2/3-z
28 1/3+x-y,2/3+x,2/3-z
29 x,x-y,z
30 -x+y,y,z
31 2/3-y,1/3-x,1/3+z
32 2/3+x,1/3+x-y,1/3+z
33 2/3-x+y,1/3+y,1/3+z
34 1/3-y,2/3-x,2/3+z
35 1/3+x,2/3+x-y,2/3+z
36 1/3-x+y,2/3+y,2/3+z
_cell_length_a                   23.0400(15)
_cell_length_b                   23.0400(15)
_cell_length_c                   25.1398(18)
_cell_angle_alpha                90
_cell_angle_beta                 90
_cell_angle_gamma                120
_cell_volume                     11557.3
loop_
_atom_site_label
_atom_site_type_symbol
_atom_site_fract_x
_atom_site_fract_y
_atom_site_fract_z
O4 O 0.5971(14) 0.29856(69) 0.0978(15)
O5 O 0.9357(16) 0.46785(78) 0.9826(19)
C1A C -0.099770 0.695190 0.294400
H1A H -0.053420 0.716510 0.285920
N1U N -0.236370 0.632370 0.319400
C4Q C 0.502617 -0.696247 0.928143
H3Q H 0.514207 -0.654777 0.94472
N2Q N 0.468197 -0.713357 0.879633
Cu1 Cu 0.76747(78) 0.00000 0.50000
Cu2 Cu 0.57987(68) -0.08679 0.66667
N1 N 0.632370 -0.131260 0.680600
C1 C 0.695190 -0.099770 0.705600
H1 H 0.716510 -0.053420 0.714080
C2 C 0.601120 -0.199350 0.668080
C3 C 0.726440 -0.136770 0.718120
H2 H 0.768990 -0.115560 0.735100
O1 O 0.545130 -0.227580 0.645730
N2 N 0.848220 0.046690 0.453700
C4 C 0.865530 0.029580 0.405190
H3 H 0.835650 -0.011890 0.38861
C5 C 0.892250 0.107790 0.478090
C6 C 0.926880 0.073580 0.381070
H4 H 0.938620 0.061950 0.348140
O2 O 0.876810 0.123090 0.521430
N3 N 0.672360 -0.052430 0.522480
C7 C 0.550520 -0.142790 0.570700
H5 H 0.509180 -0.173450 0.587070
C8 C 0.621230 -0.103470 0.492350
H6 H 0.627860 -0.107460 0.455520
C9 C 0.662570 -0.046570 0.576720
C10 C 0.560310 -0.148650 0.516460
H7 H 0.525600 -0.183300 0.496000
N4 N 0.601650 -0.091750 0.600830
O3 O 0.708240 -0.000980 0.603650
N1BA N 0.632370 -0.236370 0.680600
C1BA C 0.695190 -0.205040 0.705600
H1BA H 0.716510 -0.230070 0.714080
N2S N 0.953310 0.151780 0.453700
C4S C 0.970420 0.134470 0.405190
H3S H 1.011890 0.164350 0.38861
N3K N 0.724790 0.052430 0.477520
C7K C 0.693310 0.142790 0.429300
H5K H 0.682630 0.173450 0.412930
C8K C 0.724700 0.103470 0.507650
H6K H 0.735320 0.107460 0.544480
C9K C 0.709140 0.046570 0.423280
C10K C 0.708960 0.148650 0.483540
H7K H 0.708900 0.183300 0.504000
N4K N 0.693400 0.091750 0.399170
O3K O 0.709220 0.000980 0.396350
Cu1S Cu 1.00000 0.23253(78) 0.50000
Cu2F Cu 0.66667(68) 0.08680(68) 0.33334
Cu2W Cu 0.57988 -0.33333(68) 0.66666
N1O N 0.535407 -0.034297 0.652733
N2K N 0.801530 -0.046690 0.546300
N4O N 0.574917 -0.065017 0.732503
loop_
_geom_bond_atom_site_label_1
_geom_bond_atom_site_label_2
_geom_bond_site_symmetry_1
_geom_bond_site_symmetry_2
Cu1 N2 1_555 1_555
Cu2 N1 1_555 1_555
N1 C1 1_555 1_555
C1 H1 1_555 1_555
C2 N1 1_555 1_555
C3 C1 1_555 1_555
H2 C3 1_555 1_555
O1 C2 1_555 1_555
N2 C4 1_555 1_555
C4 H3 1_555 1_555
C5 N2 1_555 1_555
C6 C4 1_555 1_555
H4 C6 1_555 1_555
O2 C5 1_555 1_555
N3 Cu1 1_555 1_555
C7 H5 1_555 1_555
C8 N3 1_555 1_555
H6 C8 1_555 1_555
C9 N3 1_555 1_555
C10 C7 1_555 1_555
H7 C10 1_555 1_555
N4 Cu2 1_555 1_555
O3 C9 1_555 1_555
N1BA C2 1_555 1_555
C1BA C3 1_555 1_555
H1BA C1BA 1_555 1_555
N2S C5 1_555 1_555
C4S C6 1_555 1_555
H3S C4S 1_555 1_555
N3K Cu1 1_555 1_555
C7K H5K 1_555 1_555
C8K N3K 1_555 1_555
H6K C8K 1_555 1_555
C9K N3K 1_555 1_555
C10K C7K 1_555 1_555
H7K C10K 1_555 1_555
N4K C7K 1_555 1_555
O3K C9K 1_555 1_555
Cu1S N2S 1_555 1_555
Cu2F N4K 1_555 1_555
Cu2W N1BA 1_555 1_555
N1O Cu2 1_555 1_555
N2K Cu1 1_555 1_555
N4O Cu2 1_555 1_555
C7 N4 1_555 1_555
C8 C10 1_555 1_555
C9 N4 1_555 1_555
N1BA C1BA 1_555 1_555
N2S C4S 1_555 1_555
C8K C10K 1_555 1_555
C9K N4K 1_555 1_555

#END
