
#######################################################################
#
#                 Cambridge Crystallographic Data Centre
#                                CCDC 
#
#######################################################################
#
# If this CIF has been generated from an entry in the Cambridge 
# Structural Database, then it will include bibliographic, chemical, 
# crystal, experimental, refinement or atomic coordinate data resulting 
# from the CCDC's data processing and validation procedures.
#
#######################################################################

data_EVEGUH
_chemical_formula_moiety         '(C24 H18 Cu3 Li2 N13 O16)n'
_symmetry_cell_setting           cubic
_symmetry_space_group_name_H-M   'P n -3 m'
_symmetry_Int_Tables_number      224
_space_group_name_Hall           '-P 4bc 2bc 3'
loop_
_symmetry_equiv_pos_site_id
_symmetry_equiv_pos_as_xyz
1 x,y,z
2 z,x,y
3 y,z,x
4 1/2+y,1/2+x,-z
5 1/2+y,-x,1/2+z
6 -y,1/2+x,1/2+z
7 1/2+x,1/2+z,-y
8 -x,1/2+z,1/2+y
9 1/2+x,-z,1/2+y
10 1/2+z,1/2+y,-x
11 1/2+z,-y,1/2+x
12 -z,1/2+y,1/2+x
13 1/2+x,1/2+y,-z
14 1/2+x,-y,1/2+z
15 -x,1/2+y,1/2+z
16 -z,1/2+x,1/2+y
17 1/2+z,1/2+x,-y
18 1/2+z,-x,1/2+y
19 1/2+y,-z,1/2+x
20 -y,1/2+z,1/2+x
21 1/2+y,1/2+z,-x
22 y,x,z
23 x,z,y
24 z,y,x
25 -x,-y,-z
26 -z,-x,-y
27 -y,-z,-x
28 1/2-y,1/2-x,z
29 1/2-y,x,1/2-z
30 y,1/2-x,1/2-z
31 1/2-x,1/2-z,y
32 x,1/2-z,1/2-y
33 1/2-x,z,1/2-y
34 1/2-z,1/2-y,x
35 1/2-z,y,1/2-x
36 z,1/2-y,1/2-x
37 1/2-x,1/2-y,z
38 1/2-x,y,1/2-z
39 x,1/2-y,1/2-z
40 z,1/2-x,1/2-y
41 1/2-z,1/2-x,y
42 1/2-z,x,1/2-y
43 1/2-y,z,1/2-x
44 y,1/2-z,1/2-x
45 1/2-y,1/2-z,x
46 -y,-x,-z
47 -x,-z,-y
48 -z,-y,-x
_cell_length_a                   15.6475(5)
_cell_length_b                   15.6475(5)
_cell_length_c                   15.6475(5)
_cell_angle_alpha                90
_cell_angle_beta                 90
_cell_angle_gamma                90
_cell_volume                     3831.2
loop_
_atom_site_label
_atom_site_type_symbol
_atom_site_fract_x
_atom_site_fract_y
_atom_site_fract_z
_atom_site_U_iso_or_equiv
_atom_site_thermal_displace_type
O2 O 0.4203(4) 0.5797(4) 0.0000 0.1013 Uani
Li1 Li 0.5272(14) 0.5272(14) -0.0272(14) 0.0660 Uani
O2Q O 0.5000 0.5797(4) 0.0797(4) 0.1013 Uani
O2QA O 0.5797(4) 0.5000 0.0797(4) 0.1013 Uani
O2X O 0.5797(4) 0.4203(4) 0.0000 0.1013 Uani
O2OA O 0.5000 0.4203(4) -0.0797(4) 0.1013 Uani
O2S O 0.4203(4) 0.5000 -0.0797(4) 0.1013 Uani
Li1Q Li 0.4728(14) 0.4728(14) 0.0272(14) 0.0660 Uani
N2 N 0.6312(16) 0.6312(16) -0.1312(16) 0.1310 Uiso
O4 O 0.5756(14) 0.5756(14) -0.147(3) 0.2180 Uiso
O5 O 0.6773(16) 0.6773(16) -0.1773(16) 0.4200 Uiso
O4EA O 0.5756(14) 0.647(3) -0.0756(14) 0.2180 Uiso
O4HA O 0.647(3) 0.5756(14) -0.0756(14) 0.2180 Uiso
Cu1 Cu 0.5000 0.7500 0.2500 0.0462 Uani
N1 N 0.41159(19) 0.82247(19) 0.1952(2) 0.0519 Uani
C1 C 0.3721(2) 0.7829(4) 0.1279(2) 0.0496 Uani
C2 C 0.3269(3) 0.9471(4) 0.1731(3) 0.0687 Uani
O1 O 0.3962(2) 0.7123(3) 0.1038(2) 0.0658 Uani
C3 C 0.3899(3) 0.9026(3) 0.2159(3) 0.0657 Uani
N1HA N 0.3048(2) 0.82247(19) 0.08841(19) 0.0519 Uani
C3HA C 0.2841(3) 0.9026(3) 0.1101(3) 0.0657 Uani
N1G N 0.58841(19) 0.6952(2) 0.32247(19) 0.0519 Uani
C1G C 0.6279(2) 0.6279(2) 0.2829(4) 0.0496 Uani
C2G C 0.6731(3) 0.6731(3) 0.4471(4) 0.0687 Uani
O1G O 0.6038(2) 0.6038(2) 0.2123(3) 0.0658 Uani
C3G C 0.6101(3) 0.7159(3) 0.4026(3) 0.0657 Uani
N1Q N 0.6952(2) 0.58841(19) 0.32247(19) 0.0519 Uani
C3Q C 0.7159(3) 0.6101(3) 0.4026(3) 0.0657 Uani
N1LA N 0.41159(19) 0.67753(19) 0.3048(2) 0.0519 Uani
C1LA C 0.3721(2) 0.7171(4) 0.3721(2) 0.0496 Uani
C2LA C 0.3269(3) 0.5529(4) 0.3269(3) 0.0687 Uani
O1LA O 0.3962(2) 0.7877(3) 0.3962(2) 0.0658 Uani
C3LA C 0.3899(3) 0.5974(3) 0.2841(3) 0.0657 Uani
N1GA N 0.3048(2) 0.67753(19) 0.41159(19) 0.0519 Uani
C3GA C 0.2841(3) 0.5974(3) 0.3899(3) 0.0657 Uani
N1TA N 0.58841(19) 0.8048(2) 0.17753(19) 0.0519 Uani
C1TA C 0.6279(2) 0.8721(2) 0.2171(4) 0.0496 Uani
C2TA C 0.6731(3) 0.8269(3) 0.0529(4) 0.0687 Uani
O1TA O 0.6038(2) 0.8962(2) 0.2877(3) 0.0658 Uani
C3TA C 0.6101(3) 0.7841(3) 0.0974(3) 0.0657 Uani
N1P N 0.6952(2) 0.91159(19) 0.17753(19) 0.0519 Uani
C3P C 0.7159(3) 0.8899(3) 0.0974(3) 0.0657 Uani
Cu1HA Cu 0.2500 0.7500 0.0000 0.0462 Uani
Cu1Q Cu 0.7500 0.5000 0.2500 0.0462 Uani
N1S N 0.17753(19) 0.6952(2) -0.08841(19) 0.0519 Uani
C1S C 0.2171(4) 0.6279(2) -0.1279(2) 0.0496 Uani
C2S C 0.0529(4) 0.6731(3) -0.1731(3) 0.0687 Uani
O1S O 0.2877(3) 0.6038(2) -0.1038(2) 0.0658 Uani
C3S C 0.0974(3) 0.7159(3) -0.1101(3) 0.0657 Uani
N1SA N 0.17753(19) 0.58841(19) -0.1952(2) 0.0519 Uani
C3SA C 0.0974(3) 0.6101(3) -0.2159(3) 0.0657 Uani
N1IA N 0.1952(2) 0.67753(19) 0.08841(19) 0.0519 Uani
C1IA C 0.1279(2) 0.7171(4) 0.1279(2) 0.0496 Uani
C2IA C 0.1731(3) 0.5529(4) 0.1731(3) 0.0687 Uani
O1IA O 0.1038(2) 0.7877(3) 0.1038(2) 0.0658 Uani
C3IA C 0.2159(3) 0.5974(3) 0.1101(3) 0.0657 Uani
N1JA N 0.08841(19) 0.67753(19) 0.1952(2) 0.0519 Uani
C3JA C 0.1101(3) 0.5974(3) 0.2159(3) 0.0657 Uani
Cu1T Cu 0.2500 0.7500 0.5000 0.0462 Uani
Cu1O Cu 0.7500 1.0000 0.2500 0.0462 Uani
N1R N 0.32247(19) 0.8048(2) -0.08841(19) 0.0519 Uani
N1U N 0.82247(19) 0.41159(19) 0.1952(2) 0.0519 Uani
N1Y N 0.8048(2) 0.58841(19) 0.17753(19) 0.0519 Uani
N1BA N 0.67753(19) 0.41159(19) 0.3048(2) 0.0519 Uani
Cu1A Cu 0.2500 0.5000 -0.2500 0.0462 Uani
Cu1F Cu -0.0000 0.7500 0.2500 0.0462 Uani
loop_
_atom_site_aniso_label
_atom_site_aniso_U_11
_atom_site_aniso_U_22
_atom_site_aniso_U_33
_atom_site_aniso_U_23
_atom_site_aniso_U_13
_atom_site_aniso_U_12
O2 0.104(5) 0.104(5) 0.096(7) -0.054(5) -0.054(5) 0.059(6)
Li1 0.066(8) 0.066(8) 0.066(8) -0.005(9) -0.005(9) 0.005(9)
O2Q 0.096 0.104 0.104 -0.059 -0.054 0.054
O2QA 0.104 0.096 0.104 -0.054 -0.059 0.054
O2X 0.104 0.104 0.096 -0.054 -0.054 0.059
O2OA 0.096 0.104 0.104 -0.059 -0.054 0.054
O2S 0.104 0.096 0.104 -0.054 -0.059 0.054
Li1Q 0.066 0.066 0.066 -0.005 -0.005 0.005
Cu1 0.0426(6) 0.0480(5) 0.0480(5) -0.0074(3) 0.000 0.000
N1 0.0498(17) 0.0496(17) 0.0562(19) -0.0041(14) -0.0048(14) -0.0007(13)
C1 0.0469(17) 0.055(3) 0.0469(17) 0.0006(16) 0.006(2) -0.0006(16)
C2 0.078(3) 0.050(3) 0.078(3) -0.007(2) -0.005(3) 0.007(2)
O1 0.0707(17) 0.056(2) 0.0707(17) -0.0161(14) 0.010(2) 0.0161(14)
C3 0.068(3) 0.057(2) 0.072(3) -0.012(2) -0.003(2) -0.004(2)
N1HA 0.0562 0.0496 0.0498 0.0007 -0.0048 0.0041
C3HA 0.072 0.057 0.068 0.004 -0.003 0.012
N1G 0.0498 0.0562 0.0496 -0.0041 0.0007 0.0048
C1G 0.0469 0.0469 0.055 0.0006 0.0006 -0.006
C2G 0.078 0.078 0.05 -0.007 -0.007 0.005
O1G 0.0707 0.0707 0.056 -0.0161 -0.0161 -0.01
C3G 0.068 0.072 0.057 -0.012 0.004 0.003
N1Q 0.0562 0.0498 0.0496 0.0007 -0.0041 0.0048
C3Q 0.072 0.068 0.057 0.004 -0.012 0.003
N1LA 0.0498 0.0496 0.0562 -0.0041 0.0048 0.0007
C1LA 0.0469 0.055 0.0469 0.0006 -0.006 0.0006
C2LA 0.078 0.05 0.078 -0.007 0.005 -0.007
O1LA 0.0707 0.056 0.0707 -0.0161 -0.01 -0.0161
C3LA 0.068 0.057 0.072 -0.012 0.003 0.004
N1GA 0.0562 0.0496 0.0498 0.0007 0.0048 -0.0041
C3GA 0.072 0.057 0.068 0.004 0.003 -0.012
N1TA 0.0498 0.0562 0.0496 -0.0041 -0.0007 -0.0048
C1TA 0.0469 0.0469 0.055 0.0006 -0.0006 0.006
C2TA 0.078 0.078 0.05 -0.007 0.007 -0.005
O1TA 0.0707 0.0707 0.056 -0.0161 0.0161 0.01
C3TA 0.068 0.072 0.057 -0.012 -0.004 -0.003
N1P 0.0562 0.0498 0.0496 0.0007 0.0041 -0.0048
C3P 0.072 0.068 0.057 0.004 0.012 -0.003
Cu1HA 0.048 0.048 0.0426 0 0 0.0074
Cu1Q 0.048 0.0426 0.048 0 -0.0074 0
N1S 0.0496 0.0562 0.0498 -0.0048 0.0007 0.0041
C1S 0.055 0.0469 0.0469 0.006 0.0006 -0.0006
C2S 0.05 0.078 0.078 -0.005 -0.007 0.007
O1S 0.056 0.0707 0.0707 0.01 -0.0161 0.0161
C3S 0.057 0.072 0.068 -0.003 0.004 0.012
N1SA 0.0496 0.0498 0.0562 -0.0048 -0.0041 -0.0007
C3SA 0.057 0.068 0.072 -0.003 -0.012 -0.004
N1IA 0.0562 0.0496 0.0498 -0.0007 0.0048 0.0041
C1IA 0.0469 0.055 0.0469 -0.0006 -0.006 -0.0006
C2IA 0.078 0.05 0.078 0.007 0.005 0.007
O1IA 0.0707 0.056 0.0707 0.0161 -0.01 0.0161
C3IA 0.072 0.057 0.068 -0.004 0.003 0.012
N1JA 0.0498 0.0496 0.0562 0.0041 0.0048 -0.0007
C3JA 0.068 0.057 0.072 0.012 0.003 -0.004
Cu1T 0.048 0.048 0.0426 0 0 -0.0074
Cu1O 0.048 0.0426 0.048 0 0.0074 0
N1R 0.0496 0.0562 0.0498 0.0048 -0.0007 0.0041
N1U 0.0496 0.0498 0.0562 -0.0048 -0.0041 -0.0007
N1Y 0.0562 0.0498 0.0496 -0.0007 -0.0041 -0.0048
N1BA 0.0496 0.0498 0.0562 0.0048 -0.0041 0.0007
Cu1A 0.048 0.0426 0.048 0 -0.0074 0
Cu1F 0.0426 0.048 0.048 0.0074 0 0
loop_
_geom_bond_atom_site_label_1
_geom_bond_atom_site_label_2
_geom_bond_site_symmetry_1
_geom_bond_site_symmetry_2
Cu1 N1 1_555 1_555
N1 C1 1_555 1_555
C1 O1 1_555 1_555
C2 C3 1_555 1_555
C3 N1 1_555 1_555
O2 Li1 1_555 1_555
Li1 O2Q 1_555 1_555
N2 O4 1_555 1_555
O4 O4EA 1_555 1_555
O5 N2 1_555 1_555
N1HA C1 1_555 1_555
C3HA C2 1_555 1_555
O2Q O2 1_555 1_555
O2QA Li1 1_555 1_555
O2X Li1 1_555 1_555
O2OA Li1 1_555 1_555
O2S O2 1_555 1_555
O4EA N2 1_555 1_555
O4HA N2 1_555 1_555
Li1Q O2 1_555 1_555
N1G Cu1 1_555 1_555
C1G N1G 1_555 1_555
C2G C3G 1_555 1_555
O1G C1G 1_555 1_555
C3G N1G 1_555 1_555
N1Q C1G 1_555 1_555
C3Q C2G 1_555 1_555
N1LA Cu1 1_555 1_555
C1LA N1LA 1_555 1_555
C2LA C3LA 1_555 1_555
O1LA C1LA 1_555 1_555
C3LA N1LA 1_555 1_555
N1GA C1LA 1_555 1_555
C3GA C2LA 1_555 1_555
N1TA Cu1 1_555 1_555
C1TA N1TA 1_555 1_555
C2TA C3TA 1_555 1_555
O1TA C1TA 1_555 1_555
C3TA N1TA 1_555 1_555
N1P C1TA 1_555 1_555
C3P C2TA 1_555 1_555
Cu1HA N1HA 1_555 1_555
Cu1Q N1Q 1_555 1_555
N1S Cu1HA 1_555 1_555
C1S N1S 1_555 1_555
C2S C3S 1_555 1_555
O1S C1S 1_555 1_555
C3S N1S 1_555 1_555
N1SA C1S 1_555 1_555
C3SA C2S 1_555 1_555
N1IA Cu1HA 1_555 1_555
C1IA N1IA 1_555 1_555
C2IA C3IA 1_555 1_555
O1IA C1IA 1_555 1_555
C3IA N1IA 1_555 1_555
N1JA C1IA 1_555 1_555
C3JA C2IA 1_555 1_555
Cu1T N1GA 1_555 1_555
Cu1O N1P 1_555 1_555
N1R Cu1HA 1_555 1_555
N1U Cu1Q 1_555 1_555
N1Y Cu1Q 1_555 1_555
N1BA Cu1Q 1_555 1_555
Cu1A N1SA 1_555 1_555
Cu1F N1JA 1_555 1_555
Li1 O2S 1_555 1_555
Li1 Li1Q 1_555 1_555
O4 O4HA 1_555 1_555
N1HA C3HA 1_555 1_555
O2Q O2QA 1_555 1_555
O2Q Li1Q 1_555 1_555
O2QA O2X 1_555 1_555
O2QA Li1Q 1_555 1_555
O2X O2OA 1_555 1_555
O2X Li1Q 1_555 1_555
O2OA O2S 1_555 1_555
O2OA Li1Q 1_555 1_555
O2S Li1Q 1_555 1_555
O4EA O4HA 1_555 1_555
N1Q C3Q 1_555 1_555
N1GA C3GA 1_555 1_555
N1P C3P 1_555 1_555
N1SA C3SA 1_555 1_555
N1JA C3JA 1_555 1_555

#END
