
#######################################################################
#
#                 Cambridge Crystallographic Data Centre
#                                CCDC 
#
#######################################################################
#
# If this CIF has been generated from an entry in the Cambridge 
# Structural Database, then it will include bibliographic, chemical, 
# crystal, experimental, refinement or atomic coordinate data resulting 
# from the CCDC's data processing and validation procedures.
#
#######################################################################

data_EVEGOB
_chemical_formula_moiety         '(C24 H20 Cu3 N19 O11)n'
_symmetry_cell_setting           cubic
_symmetry_space_group_name_H-M   'P n -3 m'
_symmetry_Int_Tables_number      224
_space_group_name_Hall           '-P 4bc 2bc 3'
loop_
_symmetry_equiv_pos_site_id
_symmetry_equiv_pos_as_xyz
1 x,y,z
2 z,x,y
3 y,z,x
4 1/2+y,1/2+x,-z
5 1/2+y,-x,1/2+z
6 -y,1/2+x,1/2+z
7 1/2+x,1/2+z,-y
8 -x,1/2+z,1/2+y
9 1/2+x,-z,1/2+y
10 1/2+z,1/2+y,-x
11 1/2+z,-y,1/2+x
12 -z,1/2+y,1/2+x
13 1/2+x,1/2+y,-z
14 1/2+x,-y,1/2+z
15 -x,1/2+y,1/2+z
16 -z,1/2+x,1/2+y
17 1/2+z,1/2+x,-y
18 1/2+z,-x,1/2+y
19 1/2+y,-z,1/2+x
20 -y,1/2+z,1/2+x
21 1/2+y,1/2+z,-x
22 y,x,z
23 x,z,y
24 z,y,x
25 -x,-y,-z
26 -z,-x,-y
27 -y,-z,-x
28 1/2-y,1/2-x,z
29 1/2-y,x,1/2-z
30 y,1/2-x,1/2-z
31 1/2-x,1/2-z,y
32 x,1/2-z,1/2-y
33 1/2-x,z,1/2-y
34 1/2-z,1/2-y,x
35 1/2-z,y,1/2-x
36 z,1/2-y,1/2-x
37 1/2-x,1/2-y,z
38 1/2-x,y,1/2-z
39 x,1/2-y,1/2-z
40 z,1/2-x,1/2-y
41 1/2-z,1/2-x,y
42 1/2-z,x,1/2-y
43 1/2-y,z,1/2-x
44 y,1/2-z,1/2-x
45 1/2-y,1/2-z,x
46 -y,-x,-z
47 -x,-z,-y
48 -z,-y,-x
_cell_length_a                   15.6702(5)
_cell_length_b                   15.6702(5)
_cell_length_c                   15.6702(5)
_cell_angle_alpha                90
_cell_angle_beta                 90
_cell_angle_gamma                90
_cell_volume                     3847.9
loop_
_atom_site_label
_atom_site_type_symbol
_atom_site_fract_x
_atom_site_fract_y
_atom_site_fract_z
_atom_site_U_iso_or_equiv
_atom_site_thermal_displace_type
N2 N 0.5000 0.566(3) 0.066(3) 0.1000 Uiso
N2Q N 0.566(3) 0.5000 0.066(3) 0.1000 Uiso
N2QA N 0.566(3) 0.434(3) 0.0000 0.1000 Uiso
N2X N 0.5000 0.434(3) -0.066(3) 0.1000 Uiso
N2OA N 0.434(3) 0.5000 -0.066(3) 0.1000 Uiso
N2S N 0.434(3) 0.566(3) 0.0000 0.1000 Uiso
O3 O 0.5000 1.0000 0.0000 0.3300 Uiso
O5 O 0.066(3) 1.066(3) 0.138(3) 0.2700 Uiso
O6 O 0.167(3) 1.167(3) 0.167(3) 0.3700 Uiso
N3 N 0.121(3) 1.121(3) 0.121(3) 0.2200 Uiso
O5A O 0.138(3) 1.066(3) 0.066(3) 0.2700 Uiso
O5B O 0.066(3) 1.138(3) 0.066(3) 0.2700 Uiso
Cu1 Cu 0.5000 0.7500 0.2500 0.1134 Uani
N1 N 0.4122(5) 0.8210(6) 0.1945(6) 0.1140 Uani
C1 C 0.3739(8) 0.7783(15) 0.1261(8) 0.1263 Uani
C2 C 0.3270(8) 0.9471(10) 0.1730(8) 0.1363 Uani
O1 O 0.3952(5) 0.7079(8) 0.1048(5) 0.1257 Uani
C3 C 0.3915(8) 0.9020(8) 0.2176(9) 0.1350 Uani
N1HA N 0.3055(6) 0.8210(6) 0.0878(5) 0.1140 Uani
C3HA C 0.2824(9) 0.9020(8) 0.1085(8) 0.1350 Uani
N1G N 0.5878(5) 0.6945(6) 0.3210(6) 0.1140 Uani
C1G C 0.6261(8) 0.6261(8) 0.2783(15) 0.1263 Uani
C2G C 0.6730(8) 0.6730(8) 0.4471(10) 0.1363 Uani
O1G O 0.6048(5) 0.6048(5) 0.2079(8) 0.1257 Uani
C3G C 0.6085(8) 0.7176(9) 0.4020(8) 0.1350 Uani
N1Q N 0.6945(6) 0.5878(5) 0.3210(6) 0.1140 Uani
C3Q C 0.7176(9) 0.6085(8) 0.4020(8) 0.1350 Uani
N1LA N 0.4122(5) 0.6790(6) 0.3055(6) 0.1140 Uani
C1LA C 0.3739(8) 0.7217(15) 0.3739(8) 0.1263 Uani
C2LA C 0.3270(8) 0.5529(10) 0.3270(8) 0.1363 Uani
O1LA O 0.3952(5) 0.7921(8) 0.3952(5) 0.1257 Uani
C3LA C 0.3915(8) 0.5980(8) 0.2824(9) 0.1350 Uani
N1GA N 0.3055(6) 0.6790(6) 0.4122(5) 0.1140 Uani
C3GA C 0.2824(9) 0.5980(8) 0.3915(8) 0.1350 Uani
N1TA N 0.5878(5) 0.8055(6) 0.1790(6) 0.1140 Uani
C1TA C 0.6261(8) 0.8739(8) 0.2217(15) 0.1263 Uani
C2TA C 0.6730(8) 0.8270(8) 0.0529(10) 0.1363 Uani
O1TA O 0.6048(5) 0.8952(5) 0.2921(8) 0.1257 Uani
C3TA C 0.6085(8) 0.7824(9) 0.0980(8) 0.1350 Uani
N1P N 0.6945(6) 0.9122(5) 0.1790(6) 0.1140 Uani
C3P C 0.7176(9) 0.8915(8) 0.0980(8) 0.1350 Uani
Cu1HA Cu 0.2500 0.7500 0.0000 0.1134 Uani
Cu1Q Cu 0.7500 0.5000 0.2500 0.1134 Uani
N1S N 0.1790(6) 0.6945(6) -0.0878(5) 0.1140 Uani
C1S C 0.2217(15) 0.6261(8) -0.1261(8) 0.1263 Uani
C2S C 0.0529(10) 0.6730(8) -0.1730(8) 0.1363 Uani
O1S O 0.2921(8) 0.6048(5) -0.1048(5) 0.1257 Uani
C3S C 0.0980(8) 0.7176(9) -0.1085(8) 0.1350 Uani
N1SA N 0.1790(6) 0.5878(5) -0.1945(6) 0.1140 Uani
C3SA C 0.0980(8) 0.6085(8) -0.2176(9) 0.1350 Uani
N1IA N 0.1945(6) 0.6790(6) 0.0878(5) 0.1140 Uani
C1IA C 0.1261(8) 0.7217(15) 0.1261(8) 0.1263 Uani
C2IA C 0.1730(8) 0.5529(10) 0.1730(8) 0.1363 Uani
O1IA O 0.1048(5) 0.7921(8) 0.1048(5) 0.1257 Uani
C3IA C 0.2176(9) 0.5980(8) 0.1085(8) 0.1350 Uani
N1JA N 0.0878(5) 0.6790(6) 0.1945(6) 0.1140 Uani
C3JA C 0.1085(8) 0.5980(8) 0.2176(9) 0.1350 Uani
Cu1T Cu 0.2500 0.7500 0.5000 0.1134 Uani
Cu1O Cu 0.7500 1.0000 0.2500 0.1134 Uani
N1R N 0.3210(6) 0.8055(6) -0.0878(5) 0.1140 Uani
N1U N 0.8210(6) 0.4122(5) 0.1945(6) 0.1140 Uani
N1Y N 0.8055(6) 0.5878(5) 0.1790(6) 0.1140 Uani
N1BA N 0.6790(6) 0.4122(5) 0.3055(6) 0.1140 Uani
Cu1A Cu 0.2500 0.5000 -0.2500 0.1134 Uani
Cu1F Cu 0.0000 0.7500 0.2500 0.1134 Uani
loop_
_atom_site_aniso_label
_atom_site_aniso_U_11
_atom_site_aniso_U_22
_atom_site_aniso_U_33
_atom_site_aniso_U_23
_atom_site_aniso_U_13
_atom_site_aniso_U_12
Cu1 0.116(2) 0.1121(15) 0.1121(15) -0.0203(16) 0.000 0.000
N1 0.107(6) 0.102(6) 0.133(7) 0.006(6) 0.006(6) 0.001(5)
C1 0.115(8) 0.149(17) 0.115(8) 0.013(8) -0.023(11) -0.013(8)
C2 0.151(9) 0.107(13) 0.151(9) 0.007(7) 0.006(13) -0.007(7)
O1 0.136(6) 0.105(7) 0.136(6) -0.020(5) -0.011(7) 0.020(5)
C3 0.139(9) 0.112(9) 0.154(11) -0.008(8) 0.022(8) -0.004(8)
N1HA 0.133 0.102 0.107 -0.001 0.006 -0.006
C3HA 0.154 0.112 0.139 0.004 0.022 0.008
N1G 0.107 0.133 0.102 0.006 -0.001 -0.006
C1G 0.115 0.115 0.149 0.013 0.013 0.023
C2G 0.151 0.151 0.107 0.007 0.007 -0.006
O1G 0.136 0.136 0.105 -0.02 -0.02 0.011
C3G 0.139 0.154 0.112 -0.008 0.004 -0.022
N1Q 0.133 0.107 0.102 -0.001 0.006 -0.006
C3Q 0.154 0.139 0.112 0.004 -0.008 -0.022
N1LA 0.107 0.102 0.133 0.006 -0.006 -0.001
C1LA 0.115 0.149 0.115 0.013 0.023 0.013
C2LA 0.151 0.107 0.151 0.007 -0.006 0.007
O1LA 0.136 0.105 0.136 -0.02 0.011 -0.02
C3LA 0.139 0.112 0.154 -0.008 -0.022 0.004
N1GA 0.133 0.102 0.107 -0.001 -0.006 0.006
C3GA 0.154 0.112 0.139 0.004 -0.022 -0.008
N1TA 0.107 0.133 0.102 0.006 0.001 0.006
C1TA 0.115 0.115 0.149 0.013 -0.013 -0.023
C2TA 0.151 0.151 0.107 0.007 -0.007 0.006
O1TA 0.136 0.136 0.105 -0.02 0.02 -0.011
C3TA 0.139 0.154 0.112 -0.008 -0.004 0.022
N1P 0.133 0.107 0.102 -0.001 -0.006 0.006
C3P 0.154 0.139 0.112 0.004 0.008 0.022
Cu1HA 0.1121 0.1121 0.116 0 0 0.0203
Cu1Q 0.1121 0.116 0.1121 0 -0.0203 0
N1S 0.102 0.133 0.107 0.006 -0.001 -0.006
C1S 0.149 0.115 0.115 -0.023 0.013 -0.013
C2S 0.107 0.151 0.151 0.006 0.007 -0.007
O1S 0.105 0.136 0.136 -0.011 -0.02 0.02
C3S 0.112 0.154 0.139 0.022 0.004 0.008
N1SA 0.102 0.107 0.133 0.006 0.006 0.001
C3SA 0.112 0.139 0.154 0.022 -0.008 -0.004
N1IA 0.133 0.102 0.107 0.001 -0.006 -0.006
C1IA 0.115 0.149 0.115 -0.013 0.023 -0.013
C2IA 0.151 0.107 0.151 -0.007 -0.006 -0.007
O1IA 0.136 0.105 0.136 0.02 0.011 0.02
C3IA 0.154 0.112 0.139 -0.004 -0.022 0.008
N1JA 0.107 0.102 0.133 -0.006 -0.006 0.001
C3JA 0.139 0.112 0.154 0.008 -0.022 -0.004
Cu1T 0.1121 0.1121 0.116 0 0 -0.0203
Cu1O 0.1121 0.116 0.1121 0 0.0203 0
N1R 0.102 0.133 0.107 -0.006 0.001 -0.006
N1U 0.102 0.107 0.133 0.006 0.006 0.001
N1Y 0.133 0.107 0.102 0.001 0.006 0.006
N1BA 0.102 0.107 0.133 -0.006 0.006 -0.001
Cu1A 0.1121 0.116 0.1121 0 -0.0203 0
Cu1F 0.116 0.1121 0.1121 0.0203 0 0
loop_
_geom_bond_atom_site_label_1
_geom_bond_atom_site_label_2
_geom_bond_site_symmetry_1
_geom_bond_site_symmetry_2
Cu1 N1 1_555 1_555
N1 C1 1_555 1_555
C1 O1 1_555 1_555
C2 C3 1_555 1_555
C3 N1 1_555 1_555
N2 N2Q 1_555 1_555
O5 N3 1_555 1_555
O6 N3 1_555 1_555
N3 O5A 1_555 1_555
N1HA C1 1_555 1_555
C3HA C2 1_555 1_555
N2Q N2QA 1_555 1_555
N2QA N2X 1_555 1_555
N2X N2OA 1_555 1_555
N2OA N2S 1_555 1_555
N2S N2 1_555 1_555
O5A O5 1_555 1_555
O5B O5 1_555 1_555
N1G Cu1 1_555 1_555
C1G N1G 1_555 1_555
C2G C3G 1_555 1_555
O1G C1G 1_555 1_555
C3G N1G 1_555 1_555
N1Q C1G 1_555 1_555
C3Q C2G 1_555 1_555
N1LA Cu1 1_555 1_555
C1LA N1LA 1_555 1_555
C2LA C3LA 1_555 1_555
O1LA C1LA 1_555 1_555
C3LA N1LA 1_555 1_555
N1GA C1LA 1_555 1_555
C3GA C2LA 1_555 1_555
N1TA Cu1 1_555 1_555
C1TA N1TA 1_555 1_555
C2TA C3TA 1_555 1_555
O1TA C1TA 1_555 1_555
C3TA N1TA 1_555 1_555
N1P C1TA 1_555 1_555
C3P C2TA 1_555 1_555
Cu1HA N1HA 1_555 1_555
Cu1Q N1Q 1_555 1_555
N1S Cu1HA 1_555 1_555
C1S N1S 1_555 1_555
C2S C3S 1_555 1_555
O1S C1S 1_555 1_555
C3S N1S 1_555 1_555
N1SA C1S 1_555 1_555
C3SA C2S 1_555 1_555
N1IA Cu1HA 1_555 1_555
C1IA N1IA 1_555 1_555
C2IA C3IA 1_555 1_555
O1IA C1IA 1_555 1_555
C3IA N1IA 1_555 1_555
N1JA C1IA 1_555 1_555
C3JA C2IA 1_555 1_555
Cu1T N1GA 1_555 1_555
Cu1O N1P 1_555 1_555
N1R Cu1HA 1_555 1_555
N1U Cu1Q 1_555 1_555
N1Y Cu1Q 1_555 1_555
N1BA Cu1Q 1_555 1_555
Cu1A N1SA 1_555 1_555
Cu1F N1JA 1_555 1_555
N3 O5B 1_555 1_555
N1HA C3HA 1_555 1_555
O5A O5B 1_555 1_555
N1Q C3Q 1_555 1_555
N1GA C3GA 1_555 1_555
N1P C3P 1_555 1_555
N1SA C3SA 1_555 1_555
N1JA C3JA 1_555 1_555

#END
