
#######################################################################
#
#                 Cambridge Crystallographic Data Centre
#                                CCDC 
#
#######################################################################
#
# If this CIF has been generated from an entry in the Cambridge 
# Structural Database, then it will include bibliographic, chemical, 
# crystal, experimental, refinement or atomic coordinate data resulting 
# from the CCDC's data processing and validation procedures.
#
#######################################################################

data_QATKOO
_chemical_formula_moiety         'C24 H23 N1 O18 Tb6'
_symmetry_cell_setting           monoclinic
_symmetry_space_group_name_H-M   'P 2/c'
_symmetry_Int_Tables_number      13
_space_group_name_Hall           '-P 2yc'
loop_
_symmetry_equiv_pos_site_id
_symmetry_equiv_pos_as_xyz
1 x,y,z
2 -x,y,1/2-z
3 -x,-y,-z
4 x,-y,1/2+z
_cell_length_a                   15.175(8)
_cell_length_b                   10.927(6)
_cell_length_c                   20.718(11)
_cell_angle_alpha                90
_cell_angle_beta                 108.441(6)
_cell_angle_gamma                90
_cell_volume                     3258.99
loop_
_atom_site_label
_atom_site_type_symbol
_atom_site_fract_x
_atom_site_fract_y
_atom_site_fract_z
O9 O 0.5000 0.8001(14) 0.2500
O10 O 0.071(2) -0.022(2) 0.0597(15)
O11 O 0.1887(17) 0.331(2) 0.0319(13)
O12 O 0.444(3) 0.388(4) 0.1015(19)
Tb1 Tb -0.386310(16) 0.03561(2) -0.032915(11)
C1 C -0.2140(4) 0.1489(7) 0.0244(3)
C2 C -0.1289(4) 0.2192(7) 0.0625(3)
C3 C -0.0695(5) 0.1764(7) 0.1232(4)
H1 H -0.0827 0.1011 0.1412
C4 C -0.1094(5) 0.3308(9) 0.0375(3)
H2 H -0.1504 0.3621 -0.0039
C5 C -0.0305(5) 0.3968(8) 0.0726(3)
H3 H -0.0181 0.4731 0.0553
C6 C 0.0305(4) 0.3505(6) 0.1333(3)
C7 C 0.0089(4) 0.2416(6) 0.1581(3)
H4 H 0.0488 0.2107 0.2001
C8 C 0.1155(5) 0.4248(6) 0.1698(3)
H5 H 0.1567 0.4272 0.1412
H6 H 0.0958 0.5098 0.1743
C9 C 0.2342(4) 0.2890(5) 0.2448(3)
C10 C 0.2488(4) 0.2298(6) 0.1886(3)
H7 H 0.2126 0.2529 0.1438
C11 C 0.2900(4) 0.2507(6) 0.3107(3)
H8 H 0.2800 0.2855 0.3498
C12 C 0.3583(4) 0.1638(6) 0.3185(3)
C13 C 0.4183(4) 0.1272(5) 0.3891(3)
C14 C 0.3724(4) 0.1068(6) 0.2628(3)
H9 H 0.4200 0.0473 0.2688
C15 C 0.3150(4) 0.1386(7) 0.1974(3)
C16 C 0.3282(4) 0.0753(7) 0.1365(3)
C17 C 0.1559(4) 0.4435(6) 0.2953(4)
H10 H 0.1565 0.3818 0.3304
H11 H 0.0939 0.4829 0.2810
C18 C 0.2285(4) 0.5396(5) 0.3267(3)
C19 C 0.2167(6) 0.6149(8) 0.3769(5)
H12 H 0.1633 0.6050 0.3909
C20 C 0.3076(6) 0.5557(7) 0.3091(4)
H13 H 0.3181 0.5043 0.2753
C21 C 0.2809(6) 0.7046(8) 0.4071(4)
H14 H 0.2700 0.7565 0.4406
C22 C 0.3723(5) 0.6445(8) 0.3393(4)
H15 H 0.4258 0.6538 0.3252
C23 C 0.3608(4) 0.7196(5) 0.3893(3)
C24 C 0.4322(4) 0.8131(5) 0.4230(3)
N1 N 0.1688(3) 0.3809(5) 0.2366(3)
O1 O -0.2746(3) 0.1982(5) -0.0258(2)
O2 O -0.2254(4) 0.0425(4) 0.0430(3)
O3 O 0.3072(4) 0.1277(6) 0.0799(2)
O4 O 0.3611(4) -0.0318(4) 0.1437(3)
O5 O 0.4928(3) 0.0760(5) 0.3929(2)
O6 O 0.3895(3) 0.1526(4) 0.4378(2)
O7 O 0.5084(3) 0.8104(4) 0.4119(2)
O8 O 0.4129(4) 0.8890(4) 0.4622(2)
Tb1A Tb 0.386310(16) 0.03561(2) 0.532915(11)
Tb1A_2 Tb 0.386310(16) 1.03561(2) 0.532915(11)
Tb1B Tb 0.386310(16) -0.03561(2) 0.032915(11)
Tb1C Tb 0.613690(16) -0.03561(2) 0.467085(11)
Tb1C_2 Tb 0.613690(16) 0.96439(2) 0.467085(11)
O3B O -0.3072(4) -0.1277(6) -0.0799(2)
O4B O -0.3611(4) 0.0318(4) -0.1437(3)
O5C O -0.5072(3) -0.0760(5) -0.1071(2)
O6A O -0.3895(3) 0.1526(4) 0.0622(2)
O7C O -0.4916(3) 0.1896(4) -0.0881(2)
O8A O -0.4129(4) -0.1110(4) 0.0378(2)
loop_
_geom_bond_atom_site_label_1
_geom_bond_atom_site_label_2
_geom_bond_site_symmetry_1
_geom_bond_site_symmetry_2
Tb1 O1 1_555 1_555
C1 C2 1_555 1_555
C2 C3 1_555 1_555
C3 H1 1_555 1_555
C4 C2 1_555 1_555
H2 C4 1_555 1_555
C5 C4 1_555 1_555
H3 C5 1_555 1_555
C6 C5 1_555 1_555
C7 C3 1_555 1_555
H4 C7 1_555 1_555
C8 C6 1_555 1_555
H5 C8 1_555 1_555
H6 C8 1_555 1_555
C9 C10 1_555 1_555
C10 H7 1_555 1_555
C11 C9 1_555 1_555
H8 C11 1_555 1_555
C12 C11 1_555 1_555
C13 C12 1_555 1_555
C14 C12 1_555 1_555
H9 C14 1_555 1_555
C15 C10 1_555 1_555
C16 C15 1_555 1_555
C17 H10 1_555 1_555
H11 C17 1_555 1_555
C18 C17 1_555 1_555
C19 C18 1_555 1_555
H12 C19 1_555 1_555
C20 C18 1_555 1_555
H13 C20 1_555 1_555
C21 C19 1_555 1_555
H14 C21 1_555 1_555
C22 C20 1_555 1_555
H15 C22 1_555 1_555
C23 C21 1_555 1_555
C24 C23 1_555 1_555
N1 C8 1_555 1_555
O1 C1 1_555 1_555
O2 Tb1 1_555 1_555
O3 C16 1_555 1_555
O4 C16 1_555 1_555
O5 C13 1_555 1_555
O6 C13 1_555 1_555
O7 C24 1_555 1_555
O8 C24 1_555 1_555
Tb1A O6 1_555 1_555
Tb1A_2 O8 1_555 1_555
Tb1B O3 1_555 1_555
Tb1C O5 1_555 1_555
Tb1C_2 O7 1_555 1_555
O3B Tb1 1_555 1_555
O4B Tb1 1_555 1_555
O5C Tb1 1_555 1_555
O6A Tb1 1_555 1_555
O7C Tb1 1_555 1_555
O8A Tb1 1_555 1_555
C1 O2 1_555 1_555
C6 C7 1_555 1_555
C9 N1 1_555 1_555
C14 C15 1_555 1_555
C17 N1 1_555 1_555
C22 C23 1_555 1_555
O4 Tb1B 1_555 1_555

#END
