
#######################################################################
#
#                 Cambridge Crystallographic Data Centre
#                                CCDC 
#
#######################################################################
#
# If this CIF has been generated from an entry in the Cambridge 
# Structural Database, then it will include bibliographic, chemical, 
# crystal, experimental, refinement or atomic coordinate data resulting 
# from the CCDC's data processing and validation procedures.
#
#######################################################################

data_QATKII
_chemical_formula_moiety         'C24 H21 Eu6 N1 O18'
_symmetry_cell_setting           monoclinic
_symmetry_space_group_name_H-M   'P 2/c'
_symmetry_Int_Tables_number      13
_space_group_name_Hall           '-P 2yc'
loop_
_symmetry_equiv_pos_site_id
_symmetry_equiv_pos_as_xyz
1 x,y,z
2 -x,y,1/2-z
3 -x,-y,-z
4 x,-y,1/2+z
_cell_length_a                   15.849(9)
_cell_length_b                   10.271(6)
_cell_length_c                   21.178(13)
_cell_angle_alpha                90
_cell_angle_beta                 108.936(7)
_cell_angle_gamma                90
_cell_volume                     3260.89
loop_
_atom_site_label
_atom_site_type_symbol
_atom_site_fract_x
_atom_site_fract_y
_atom_site_fract_z
O9 O 0.5000 0.2832(19) 0.2500
O10 O 0.2071(15) 0.851(2) 0.0368(12)
O11 O 0.365(4) 1.024(5) 0.073(3)
Eu1 Eu 0.39255(3) 0.54098(5) 0.53337(2)
O1 O 0.3895(5) 0.6599(8) 0.4348(3)
C1 C 0.4162(7) 0.6317(11) 0.3860(5)
C2 C 0.3554(6) 0.6609(10) 0.3156(5)
C3 C 0.3718(7) 0.6005(11) 0.2618(5)
H1 H 0.4192 0.5428 0.2687
C4 C 0.3161(6) 0.6285(10) 0.1979(5)
C5 C 0.2486(6) 0.7173(11) 0.1865(5)
H2 H 0.2141 0.7364 0.1428
C6 C 0.2299(6) 0.7818(10) 0.2407(5)
C7 C 0.2849(6) 0.7480(10) 0.3060(5)
H3 H 0.2738 0.7843 0.3428
C8 C 0.3346(7) 0.5648(11) 0.1383(6)
C9 C 0.1116(8) 0.9192(12) 0.1645(6)
H4 H 0.1493 0.9133 0.1365
H5 H 0.0980 1.0105 0.1679
C10 C 0.0260(7) 0.8479(12) 0.1307(5)
C11 C 0.0036(7) 0.7306(12) 0.1526(6)
H6 H 0.0419 0.6929 0.1913
C12 C -0.0755(7) 0.6680(12) 0.1178(6)
H7 H -0.0887 0.5882 0.1332
C13 C -0.1353(6) 0.7216(12) 0.0605(5)
C14 C -0.1157(7) 0.8444(15) 0.0395(6)
H8 H -0.1567 0.8853 0.0032
C15 C -0.0351(8) 0.9048(13) 0.0730(6)
H9 H -0.0211 0.9838 0.0573
C16 C -0.2204(7) 0.6544(14) 0.0237(5)
C17 C 0.1489(7) 0.9417(10) 0.2871(6)
H10 H 0.1464 0.8796 0.3210
H11 H 0.0916 0.9855 0.2713
C18 C 0.2199(7) 1.0416(9) 0.3192(6)
C19 C 0.2178(8) 1.1098(13) 0.3739(6)
H12 H 0.1708 1.0959 0.3903
C20 C 0.2836(8) 1.1994(13) 0.4058(6)
H13 H 0.2786 1.2457 0.4422
C21 C 0.3557(7) 1.2208(11) 0.3849(5)
C22 C 0.3564(7) 1.1555(11) 0.3259(5)
H14 H 0.4023 1.1707 0.3085
C23 C 0.2900(8) 1.0706(11) 0.2950(6)
H15 H 0.2913 1.0301 0.2560
C24 C 0.4334(7) 1.3039(11) 0.4218(5)
N1 N 0.1620(5) 0.8705(8) 0.2316(4)
O2 O 0.3691(6) 0.4564(7) 0.1452(4)
O3 O 0.3151(6) 0.6283(8) 0.0831(3)
O4 O -0.2342(5) 0.5383(7) 0.0400(5)
O5 O -0.2806(5) 0.7166(9) -0.0227(4)
O6 O 0.4234(5) 1.3838(8) 0.4646(4)
O7 O 0.5069(5) 1.2894(8) 0.4102(4)
O8 O 0.4905(5) 0.5821(9) 0.3915(4)
Eu1_2 Eu 0.39255(3) 1.54098(5) 0.53337(2)
Eu1A Eu -0.39255(3) 0.54098(5) -0.03337(2)
Eu1B Eu 0.60745(3) 0.45902(5) 0.46663(2)
Eu1B_2 Eu 0.60745(3) 1.45902(5) 0.46663(2)
Eu1C Eu 0.39255(3) 0.45902(5) 0.03337(2)
O2C O 0.3691(6) 0.5436(7) 0.6452(4)
O3C O 0.3151(6) 0.3717(8) 0.5831(3)
O4A O 0.2342(5) 0.5383(7) 0.4600(5)
O5A O 0.2806(5) 0.7166(9) 0.5227(4)
O6_2 O 0.4234(5) 0.3838(8) 0.4646(4)
O7B O 0.4931(5) 0.7106(8) 0.5898(4)
O8B O 0.5095(5) 0.4179(9) 0.6085(4)
loop_
_geom_bond_atom_site_label_1
_geom_bond_atom_site_label_2
_geom_bond_site_symmetry_1
_geom_bond_site_symmetry_2
Eu1 O1 1_555 1_555
O1 C1 1_555 1_555
C1 C2 1_555 1_555
C2 C3 1_555 1_555
C3 H1 1_555 1_555
C4 C3 1_555 1_555
C5 C4 1_555 1_555
H2 C5 1_555 1_555
C6 C5 1_555 1_555
C7 C2 1_555 1_555
H3 C7 1_555 1_555
C8 C4 1_555 1_555
C9 H4 1_555 1_555
H5 C9 1_555 1_555
C10 C9 1_555 1_555
C11 C10 1_555 1_555
H6 C11 1_555 1_555
C12 C11 1_555 1_555
H7 C12 1_555 1_555
C13 C12 1_555 1_555
C14 C13 1_555 1_555
H8 C14 1_555 1_555
C15 C10 1_555 1_555
H9 C15 1_555 1_555
C16 C13 1_555 1_555
C17 H10 1_555 1_555
H11 C17 1_555 1_555
C18 C17 1_555 1_555
C19 C18 1_555 1_555
H12 C19 1_555 1_555
C20 C19 1_555 1_555
H13 C20 1_555 1_555
C21 C20 1_555 1_555
C22 C21 1_555 1_555
H14 C22 1_555 1_555
C23 C18 1_555 1_555
H15 C23 1_555 1_555
C24 C21 1_555 1_555
N1 C6 1_555 1_555
O2 C8 1_555 1_555
O3 C8 1_555 1_555
O4 C16 1_555 1_555
O5 C16 1_555 1_555
O6 C24 1_555 1_555
O7 C24 1_555 1_555
O8 C1 1_555 1_555
Eu1_2 O6 1_555 1_555
Eu1A O4 1_555 1_555
Eu1B O8 1_555 1_555
Eu1B_2 O7 1_555 1_555
Eu1C O2 1_555 1_555
O2C Eu1 1_555 1_555
O3C Eu1 1_555 1_555
O4A Eu1 1_555 1_555
O5A Eu1 1_555 1_555
O6_2 Eu1 1_555 1_555
O7B Eu1 1_555 1_555
O8B Eu1 1_555 1_555
C6 C7 1_555 1_555
C9 N1 1_555 1_555
C14 C15 1_555 1_555
C17 N1 1_555 1_555
C22 C23 1_555 1_555
O3 Eu1C 1_555 1_555
O5 Eu1A 1_555 1_555

#END
