
#######################################################################
#
#                 Cambridge Crystallographic Data Centre
#                                CCDC 
#
#######################################################################
#
# If this CIF has been generated from an entry in the Cambridge 
# Structural Database, then it will include bibliographic, chemical, 
# crystal, experimental, refinement or atomic coordinate data resulting 
# from the CCDC's data processing and validation procedures.
#
#######################################################################

data_BIWSOQ
_chemical_formula_moiety         'C384 H2 Cl7 Cu59 N279 O25'
_symmetry_cell_setting           cubic
_symmetry_space_group_name_H-M   'I m -3 m'
_symmetry_Int_Tables_number      229
_space_group_name_Hall           '-I 4 2 3'
loop_
_symmetry_equiv_pos_site_id
_symmetry_equiv_pos_as_xyz
1 x,y,z
2 z,x,y
3 y,z,x
4 y,x,-z
5 y,-x,z
6 -y,x,z
7 x,z,-y
8 -x,z,y
9 x,-z,y
10 z,y,-x
11 z,-y,x
12 -z,y,x
13 1/2+x,1/2+y,1/2+z
14 1/2+z,1/2+x,1/2+y
15 1/2+y,1/2+z,1/2+x
16 1/2+y,1/2+x,1/2-z
17 1/2+y,1/2-x,1/2+z
18 1/2-y,1/2+x,1/2+z
19 1/2+x,1/2+z,1/2-y
20 1/2-x,1/2+z,1/2+y
21 1/2+x,1/2-z,1/2+y
22 1/2+z,1/2+y,1/2-x
23 1/2+z,1/2-y,1/2+x
24 1/2-z,1/2+y,1/2+x
25 -x,-y,z
26 -x,y,-z
27 x,-y,-z
28 z,-x,-y
29 -z,-x,y
30 -z,x,-y
31 -y,z,-x
32 y,-z,-x
33 -y,-z,x
34 -y,-x,-z
35 -x,-z,-y
36 -z,-y,-x
37 1/2-x,1/2-y,1/2+z
38 1/2-x,1/2+y,1/2-z
39 1/2+x,1/2-y,1/2-z
40 1/2+z,1/2-x,1/2-y
41 1/2-z,1/2-x,1/2+y
42 1/2-z,1/2+x,1/2-y
43 1/2-y,1/2+z,1/2-x
44 1/2+y,1/2-z,1/2-x
45 1/2-y,1/2-z,1/2+x
46 1/2-y,1/2-x,1/2-z
47 1/2-x,1/2-z,1/2-y
48 1/2-z,1/2-y,1/2-x
49 -x,-y,-z
50 -z,-x,-y
51 -y,-z,-x
52 -y,-x,z
53 -y,x,-z
54 y,-x,-z
55 -x,-z,y
56 x,-z,-y
57 -x,z,-y
58 -z,-y,x
59 -z,y,-x
60 z,-y,-x
61 1/2-x,1/2-y,1/2-z
62 1/2-z,1/2-x,1/2-y
63 1/2-y,1/2-z,1/2-x
64 1/2-y,1/2-x,1/2+z
65 1/2-y,1/2+x,1/2-z
66 1/2+y,1/2-x,1/2-z
67 1/2-x,1/2-z,1/2+y
68 1/2+x,1/2-z,1/2-y
69 1/2-x,1/2+z,1/2-y
70 1/2-z,1/2-y,1/2+x
71 1/2-z,1/2+y,1/2-x
72 1/2+z,1/2-y,1/2-x
73 x,y,-z
74 x,-y,z
75 -x,y,z
76 -z,x,y
77 z,x,-y
78 z,-x,y
79 y,-z,x
80 -y,z,x
81 y,z,-x
82 y,x,z
83 x,z,y
84 z,y,x
85 1/2+x,1/2+y,1/2-z
86 1/2+x,1/2-y,1/2+z
87 1/2-x,1/2+y,1/2+z
88 1/2-z,1/2+x,1/2+y
89 1/2+z,1/2+x,1/2-y
90 1/2+z,1/2-x,1/2+y
91 1/2+y,1/2-z,1/2+x
92 1/2-y,1/2+z,1/2+x
93 1/2+y,1/2+z,1/2-x
94 1/2+y,1/2+x,1/2+z
95 1/2+x,1/2+z,1/2+y
96 1/2+z,1/2+y,1/2+x
_cell_length_a                   28.526(9)
_cell_length_b                   28.526(9)
_cell_length_c                   28.526(9)
_cell_angle_alpha                90
_cell_angle_beta                 90
_cell_angle_gamma                90
_cell_volume                     23212.5
loop_
_atom_site_label
_atom_site_type_symbol
_atom_site_fract_x
_atom_site_fract_y
_atom_site_fract_z
O2 O 0.348(4) 0.0000 0.0000
Cu1 Cu 0.5000 0.08940(15) 0.0000
Cl1 Cl 0.5000 0.0000 0.0000
N1 N 0.4513(5) 0.0861(5) 0.0522(5)
N2 N 0.4197(7) 0.1169(6) 0.0588(6)
N3 N 0.2374(9) 0.2374(9) 0.1760(13)
C1 C 0.4004(11) 0.0991(8) 0.0991(8)
O1 O 0.5000 0.1684(9) 0.0000
C2 C 0.3680(16) 0.1311(13) 0.1311(13)
C4 C 0.3515(11) 0.1720(12) 0.1140(13)
C6 C 0.3130(13) 0.1934(12) 0.1346(13)
C8 C 0.2936(18) 0.1710(12) 0.1710(12)
C10 C 0.2565(17) 0.1983(13) 0.1983(13)
Cu1G Cu 0.5000 -0.0000 0.08940(15)
Cu1F Cu 0.5000 0.0000 -0.08940(15)
Cu1UB Cu 0.5000 -0.08940(15) 0.0000
Cu1B Cu 0.08940(15) 0.0000 0.5000
Cu1I Cu -0.0000 0.08940(15) 0.5000
Cu1A Cu -0.0000 0.5000 0.08940(15)
Cu1C Cu 0.08940(15) 0.5000 0.0000
Cu1B_2 Cu 0.08940(15) 0.0000 -0.5000
Cu1I_2 Cu 0.0000 0.08940(15) -0.5000
Cu1XB Cu -0.0000 0.5000 -0.08940(15)
Cu1AC Cu 0.91060(15) 0.0000 0.5000
Cu1I_3 Cu 1.0000 0.08940(15) 0.5000
Cu1A_2 Cu 1.0000 0.5000 0.08940(15)
Cu1E Cu 0.91060(15) 0.5000 0.0000
Cu1AC_2 Cu 0.91060(15) 0.0000 -0.5000
Cu1I_4 Cu 1.0000 0.08940(15) -0.5000
Cu1XB_2 Cu 1.0000 0.5000 -0.08940(15)
Cu1J Cu -0.0000 -0.08940(15) 0.5000
Cu1E_2 Cu -0.08940(15) 0.5000 0.0000
Cu1J_2 Cu 0.0000 -0.08940(15) -0.5000
Cu1J_3 Cu 1.0000 -0.08940(15) 0.5000
Cu1C_2 Cu 1.08940(15) 0.5000 0.0000
Cu1AC_3 Cu -0.08940(15) 0.0000 0.5000
Cu1C_3 Cu 0.08940(15) -0.5000 0.0000
Cu1A_3 Cu 0.0000 -0.5000 0.08940(15)
Cu1E_3 Cu 0.91060(15) -0.5000 0.0000
Cu1A_4 Cu 1.0000 -0.5000 0.08940(15)
Cu1XB_3 Cu 0.0000 -0.5000 -0.08940(15)
Cu1XB_4 Cu 1.0000 -0.5000 -0.08940(15)
Cu1J_4 Cu 1.0000 -0.08940(15) -0.5000
Cu1XB_5 Cu -0.0000 0.5000 0.91060(15)
Cu1C_4 Cu 0.08940(15) 0.5000 1.0000
Cu1_2 Cu 0.5000 0.08940(15) 1.0000
Cu1F_2 Cu 0.5000 -0.0000 0.91060(15)
Cu1XB_6 Cu 0.0000 -0.5000 0.91060(15)
Cu1C_5 Cu 0.08940(15) -0.5000 1.0000
Cu1UB_2 Cu 0.5000 -0.08940(15) 1.0000
Cu1G_2 Cu -0.5000 -0.0000 0.08940(15)
Cu1_3 Cu -0.5000 0.08940(15) 0.0000
Cu1F_3 Cu -0.5000 -0.0000 0.91060(15)
Cu1_4 Cu -0.5000 0.08940(15) 1.0000
Cu1E_4 Cu -0.08940(15) 0.5000 1.0000
Cu1UB_3 Cu 0.5000 0.91060(15) 0.0000
Cu1G_3 Cu 0.5000 1.0000 0.08940(15)
Cu1B_3 Cu 0.08940(15) 1.0000 0.5000
Cu1J_5 Cu -0.0000 0.91060(15) 0.5000
Cu1UB_4 Cu -0.5000 0.91060(15) 0.0000
Cu1G_4 Cu -0.5000 1.0000 0.08940(15)
Cu1AC_4 Cu -0.08940(15) 1.0000 0.5000
Cu1J_6 Cu -0.0000 0.91060(15) -0.5000
Cu1B_4 Cu 0.08940(15) 1.0000 -0.5000
Cu1F_4 Cu 0.5000 1.0000 -0.08940(15)
Cu1AC_5 Cu -0.08940(15) 0.0000 -0.5000
Cu1A_5 Cu 0.0000 0.5000 -0.91060(15)
Cu1C_6 Cu 0.08940(15) 0.5000 -1.0000
Cu1_5 Cu 0.5000 0.08940(15) -1.0000
Cu1G_5 Cu 0.5000 0.0000 -0.91060(15)
Cu1B_5 Cu 1.08940(15) 0.0000 0.5000
Cl1B Cl 0.0000 0.0000 0.5000
Cl1A Cl 0.0000 0.5000 0.0000
Cl1B_2 Cl 0.0000 0.0000 -0.5000
Cl1B_3 Cl 1.0000 0.0000 0.5000
Cl1A_2 Cl 1.0000 0.5000 0.0000
Cl1B_4 Cl 1.0000 0.0000 -0.5000
N1DC N 0.4513(5) 0.0522(5) 0.0861(5)
N1B N 0.0861(5) 0.0522(5) 0.4513(5)
N1EC N 0.0522(5) 0.0861(5) 0.4513(5)
N1A N 0.0522(5) 0.4513(5) 0.0861(5)
N1CC N 0.0861(5) 0.4513(5) 0.0522(5)
N1TB N 0.4513(5) 0.0861(5) -0.0522(5)
N1F N 0.4513(5) 0.0522(5) -0.0861(5)
N1BC N 0.0861(5) 0.0522(5) -0.4513(5)
N1I N 0.0522(5) 0.0861(5) -0.4513(5)
N1XB N 0.0522(5) 0.4513(5) -0.0861(5)
N1C N 0.0861(5) 0.4513(5) -0.0522(5)
N1VB N 0.5487(5) 0.0861(5) 0.0522(5)
N1G N 0.5487(5) 0.0522(5) 0.0861(5)
N1AC N 0.9139(5) 0.0522(5) 0.4513(5)
N1K N 0.9478(5) 0.0861(5) 0.4513(5)
N1WB N 0.9478(5) 0.4513(5) 0.0861(5)
N1E N 0.9139(5) 0.4513(5) 0.0522(5)
N1Y N 0.5487(5) 0.0861(5) -0.0522(5)
N1DB N 0.5487(5) 0.0522(5) -0.0861(5)
N1DA N 0.9139(5) 0.0522(5) -0.4513(5)
N1FB N 0.9478(5) 0.0861(5) -0.4513(5)
N1CA N 0.9478(5) 0.4513(5) -0.0861(5)
N1ZA N 0.9139(5) 0.4513(5) -0.0522(5)
N1H N 0.4513(5) -0.0522(5) 0.0861(5)
N1UB N 0.4513(5) -0.0861(5) 0.0522(5)
N1D N 0.0861(5) -0.4513(5) 0.0522(5)
N1YB N 0.0522(5) -0.4513(5) 0.0861(5)
N1J N 0.0522(5) -0.0861(5) 0.4513(5)
N1ZB N 0.0861(5) -0.0522(5) 0.4513(5)
N1BB N 0.5487(5) -0.0522(5) 0.0861(5)
N1X N 0.5487(5) -0.0861(5) 0.0522(5)
N1YA N 0.9139(5) -0.4513(5) 0.0522(5)
N1BA N 0.9478(5) -0.4513(5) 0.0861(5)
N1EB N 0.9478(5) -0.0861(5) 0.4513(5)
N1FA N 0.9139(5) -0.0522(5) 0.4513(5)
N1CB N 0.4513(5) -0.0522(5) -0.0861(5)
N1Z N 0.4513(5) -0.0861(5) -0.0522(5)
N1AB N 0.0861(5) -0.4513(5) -0.0522(5)
N1AA N 0.0522(5) -0.4513(5) -0.0861(5)
N1GB N 0.0522(5) -0.0861(5) -0.4513(5)
N1EA N 0.0861(5) -0.0522(5) -0.4513(5)
N1HA N 0.5487(5) -0.0522(5) -0.0861(5)
N1VA N 0.5487(5) -0.0861(5) -0.0522(5)
N1GA N 0.9139(5) -0.4513(5) -0.0522(5)
N1WA N 0.9478(5) -0.4513(5) -0.0861(5)
N1IA N 0.9478(5) -0.0861(5) -0.4513(5)
N1XA N 0.9139(5) -0.0522(5) -0.4513(5)
N1BC_2 N 0.0861(5) 0.0522(5) 0.5487(5)
N1I_2 N 0.0522(5) 0.0861(5) 0.5487(5)
N1XB_2 N 0.0522(5) 0.4513(5) 0.9139(5)
N1C_2 N 0.0861(5) 0.4513(5) 0.9478(5)
N1TB_2 N 0.4513(5) 0.0861(5) 0.9478(5)
N1F_2 N 0.4513(5) 0.0522(5) 0.9139(5)
N1EA_2 N 0.0861(5) -0.0522(5) 0.5487(5)
N1GB_2 N 0.0522(5) -0.0861(5) 0.5487(5)
N1AA_2 N 0.0522(5) -0.4513(5) 0.9139(5)
N1AB_2 N 0.0861(5) -0.4513(5) 0.9478(5)
N1Z_2 N 0.4513(5) -0.0861(5) 0.9478(5)
N1CB_2 N 0.4513(5) -0.0522(5) 0.9139(5)
N1K_2 N -0.0522(5) 0.0861(5) 0.4513(5)
N1AC_2 N -0.0861(5) 0.0522(5) 0.4513(5)
N1G_2 N -0.4513(5) 0.0522(5) 0.0861(5)
N1VB_2 N -0.4513(5) 0.0861(5) 0.0522(5)
N1E_2 N -0.0861(5) 0.4513(5) 0.0522(5)
N1WB_2 N -0.0522(5) 0.4513(5) 0.0861(5)
N1FB_2 N -0.0522(5) 0.0861(5) 0.5487(5)
N1DA_2 N -0.0861(5) 0.0522(5) 0.5487(5)
N1DB_2 N -0.4513(5) 0.0522(5) 0.9139(5)
N1Y_2 N -0.4513(5) 0.0861(5) 0.9478(5)
N1ZA_2 N -0.0861(5) 0.4513(5) 0.9478(5)
N1CA_2 N -0.0522(5) 0.4513(5) 0.9139(5)
N1YB_2 N 0.0522(5) 0.5487(5) 0.0861(5)
N1D_2 N 0.0861(5) 0.5487(5) 0.0522(5)
N1UB_2 N 0.4513(5) 0.9139(5) 0.0522(5)
N1H_2 N 0.4513(5) 0.9478(5) 0.0861(5)
N1ZB_2 N 0.0861(5) 0.9478(5) 0.4513(5)
N1J_2 N 0.0522(5) 0.9139(5) 0.4513(5)
N1BA_2 N -0.0522(5) 0.5487(5) 0.0861(5)
N1YA_2 N -0.0861(5) 0.5487(5) 0.0522(5)
N1X_2 N -0.4513(5) 0.9139(5) 0.0522(5)
N1BB_2 N -0.4513(5) 0.9478(5) 0.0861(5)
N1FA_2 N -0.0861(5) 0.9478(5) 0.4513(5)
N1EB_2 N -0.0522(5) 0.9139(5) 0.4513(5)
N1AB_3 N 0.0861(5) 0.5487(5) -0.0522(5)
N1AA_3 N 0.0522(5) 0.5487(5) -0.0861(5)
N1GB_3 N 0.0522(5) 0.9139(5) -0.4513(5)
N1EA_3 N 0.0861(5) 0.9478(5) -0.4513(5)
N1CB_3 N 0.4513(5) 0.9478(5) -0.0861(5)
N1Z_3 N 0.4513(5) 0.9139(5) -0.0522(5)
N1B_2 N 0.0861(5) 0.0522(5) -0.5487(5)
N1EC_2 N 0.0522(5) 0.0861(5) -0.5487(5)
N1A_2 N 0.0522(5) 0.4513(5) -0.9139(5)
N1CC_2 N 0.0861(5) 0.4513(5) -0.9478(5)
N1_2 N 0.4513(5) 0.0861(5) -0.9478(5)
N1DC_2 N 0.4513(5) 0.0522(5) -0.9139(5)
N1ZB_3 N 0.0861(5) -0.0522(5) -0.5487(5)
N1K_3 N -0.0522(5) 0.0861(5) -0.5487(5)
N1FB_3 N -0.0522(5) 0.0861(5) -0.4513(5)
N1WA_2 N -0.0522(5) 0.5487(5) -0.0861(5)
N1CA_3 N -0.0522(5) 0.4513(5) -0.0861(5)
N1XA_2 N 0.9139(5) -0.0522(5) 0.5487(5)
N1DA_3 N 0.9139(5) 0.0522(5) 0.5487(5)
N1I_3 N 1.0522(5) 0.0861(5) 0.5487(5)
N1EC_3 N 1.0522(5) 0.0861(5) 0.4513(5)
N1FB_4 N 0.9478(5) 0.0861(5) 0.5487(5)
N1A_3 N 1.0522(5) 0.4513(5) 0.0861(5)
N1YB_3 N 1.0522(5) 0.5487(5) 0.0861(5)
N1BA_3 N 0.9478(5) 0.5487(5) 0.0861(5)
N1YA_3 N 0.9139(5) 0.5487(5) 0.0522(5)
N1GA_2 N 0.9139(5) 0.5487(5) -0.0522(5)
N1AC_3 N 0.9139(5) 0.0522(5) -0.5487(5)
N1FA_3 N 0.9139(5) -0.0522(5) -0.5487(5)
N1I_4 N 1.0522(5) 0.0861(5) -0.4513(5)
N1K_4 N 0.9478(5) 0.0861(5) -0.5487(5)
N1EC_4 N 1.0522(5) 0.0861(5) -0.5487(5)
N1XB_3 N 1.0522(5) 0.4513(5) -0.0861(5)
N1WA_3 N 0.9478(5) 0.5487(5) -0.0861(5)
N1AA_4 N 1.0522(5) 0.5487(5) -0.0861(5)
N1EB_3 N -0.0522(5) -0.0861(5) 0.4513(5)
N1IA_2 N -0.0522(5) -0.0861(5) 0.5487(5)
N1ZA_3 N -0.0861(5) 0.4513(5) -0.0522(5)
N1GA_3 N -0.0861(5) 0.5487(5) -0.0522(5)
N1J_3 N 0.0522(5) -0.0861(5) -0.5487(5)
N1EB_4 N -0.0522(5) -0.0861(5) -0.5487(5)
N1IA_3 N -0.0522(5) -0.0861(5) -0.4513(5)
N1J_4 N 1.0522(5) -0.0861(5) 0.4513(5)
N1GB_4 N 1.0522(5) -0.0861(5) 0.5487(5)
N1IA_4 N 0.9478(5) -0.0861(5) 0.5487(5)
N1C_3 N 1.0861(5) 0.4513(5) -0.0522(5)
N1D_3 N 1.0861(5) 0.5487(5) 0.0522(5)
N1CC_3 N 1.0861(5) 0.4513(5) 0.0522(5)
N1AB_4 N 1.0861(5) 0.5487(5) -0.0522(5)
N1XA_3 N -0.0861(5) -0.0522(5) 0.5487(5)
N1FA_4 N -0.0861(5) -0.0522(5) 0.4513(5)
N2DC N 0.4197(7) 0.0588(6) 0.1169(6)
N2B N 0.1169(6) 0.0588(6) 0.4197(7)
N2EC N 0.0588(6) 0.1169(6) 0.4197(7)
N2A N 0.0588(6) 0.4197(7) 0.1169(6)
N2CC N 0.1169(6) 0.4197(7) 0.0588(6)
N2TB N 0.4197(7) 0.1169(6) -0.0588(6)
N2F N 0.4197(7) 0.0588(6) -0.1169(6)
N2BC N 0.1169(6) 0.0588(6) -0.4197(7)
N2I N 0.0588(6) 0.1169(6) -0.4197(7)
N2XB N 0.0588(6) 0.4197(7) -0.1169(6)
N2C N 0.1169(6) 0.4197(7) -0.0588(6)
N2VB N 0.5803(7) 0.1169(6) 0.0588(6)
N2G N 0.5803(7) 0.0588(6) 0.1169(6)
N2AC N 0.8831(6) 0.0588(6) 0.4197(7)
N2K N 0.9412(6) 0.1169(6) 0.4197(7)
N2WB N 0.9412(6) 0.4197(7) 0.1169(6)
N2E N 0.8831(6) 0.4197(7) 0.0588(6)
N2Y N 0.5803(7) 0.1169(6) -0.0588(6)
N2DB N 0.5803(7) 0.0588(6) -0.1169(6)
N2DA N 0.8831(6) 0.0588(6) -0.4197(7)
N2FB N 0.9412(6) 0.1169(6) -0.4197(7)
N2CA N 0.9412(6) 0.4197(7) -0.1169(6)
N2ZA N 0.8831(6) 0.4197(7) -0.0588(6)
N2H N 0.4197(7) -0.0588(6) 0.1169(6)
N2UB N 0.4197(7) -0.1169(6) 0.0588(6)
N2D N 0.1169(6) -0.4197(7) 0.0588(6)
N2YB N 0.0588(6) -0.4197(7) 0.1169(6)
N2J N 0.0588(6) -0.1169(6) 0.4197(7)
N2ZB N 0.1169(6) -0.0588(6) 0.4197(7)
N2BB N 0.5803(7) -0.0588(6) 0.1169(6)
N2X N 0.5803(7) -0.1169(6) 0.0588(6)
N2YA N 0.8831(6) -0.4197(7) 0.0588(6)
N2BA N 0.9412(6) -0.4197(7) 0.1169(6)
N2EB N 0.9412(6) -0.1169(6) 0.4197(7)
N2FA N 0.8831(6) -0.0588(6) 0.4197(7)
N2CB N 0.4197(7) -0.0588(6) -0.1169(6)
N2Z N 0.4197(7) -0.1169(6) -0.0588(6)
N2AB N 0.1169(6) -0.4197(7) -0.0588(6)
N2AA N 0.0588(6) -0.4197(7) -0.1169(6)
N2GB N 0.0588(6) -0.1169(6) -0.4197(7)
N2EA N 0.1169(6) -0.0588(6) -0.4197(7)
N2HA N 0.5803(7) -0.0588(6) -0.1169(6)
N2VA N 0.5803(7) -0.1169(6) -0.0588(6)
N2GA N 0.8831(6) -0.4197(7) -0.0588(6)
N2WA N 0.9412(6) -0.4197(7) -0.1169(6)
N2IA N 0.9412(6) -0.1169(6) -0.4197(7)
N2XA N 0.8831(6) -0.0588(6) -0.4197(7)
N2BC_2 N 0.1169(6) 0.0588(6) 0.5803(7)
N2I_2 N 0.0588(6) 0.1169(6) 0.5803(7)
N2XB_2 N 0.0588(6) 0.4197(7) 0.8831(6)
N2C_2 N 0.1169(6) 0.4197(7) 0.9412(6)
N2TB_2 N 0.4197(7) 0.1169(6) 0.9412(6)
N2F_2 N 0.4197(7) 0.0588(6) 0.8831(6)
N2EA_2 N 0.1169(6) -0.0588(6) 0.5803(7)
N2GB_2 N 0.0588(6) -0.1169(6) 0.5803(7)
N2AA_2 N 0.0588(6) -0.4197(7) 0.8831(6)
N2AB_2 N 0.1169(6) -0.4197(7) 0.9412(6)
N2Z_2 N 0.4197(7) -0.1169(6) 0.9412(6)
N2CB_2 N 0.4197(7) -0.0588(6) 0.8831(6)
N2K_2 N -0.0588(6) 0.1169(6) 0.4197(7)
N2AC_2 N -0.1169(6) 0.0588(6) 0.4197(7)
N2G_2 N -0.4197(7) 0.0588(6) 0.1169(6)
N2VB_2 N -0.4197(7) 0.1169(6) 0.0588(6)
N2E_2 N -0.1169(6) 0.4197(7) 0.0588(6)
N2WB_2 N -0.0588(6) 0.4197(7) 0.1169(6)
N2FB_2 N -0.0588(6) 0.1169(6) 0.5803(7)
N2DA_2 N -0.1169(6) 0.0588(6) 0.5803(7)
N2DB_2 N -0.4197(7) 0.0588(6) 0.8831(6)
N2Y_2 N -0.4197(7) 0.1169(6) 0.9412(6)
N2ZA_2 N -0.1169(6) 0.4197(7) 0.9412(6)
N2CA_2 N -0.0588(6) 0.4197(7) 0.8831(6)
N2YB_2 N 0.0588(6) 0.5803(7) 0.1169(6)
N2D_2 N 0.1169(6) 0.5803(7) 0.0588(6)
N2UB_2 N 0.4197(7) 0.8831(6) 0.0588(6)
N2H_2 N 0.4197(7) 0.9412(6) 0.1169(6)
N2ZB_2 N 0.1169(6) 0.9412(6) 0.4197(7)
N2J_2 N 0.0588(6) 0.8831(6) 0.4197(7)
N2BA_2 N -0.0588(6) 0.5803(7) 0.1169(6)
N2YA_2 N -0.1169(6) 0.5803(7) 0.0588(6)
N2X_2 N -0.4197(7) 0.8831(6) 0.0588(6)
N2BB_2 N -0.4197(7) 0.9412(6) 0.1169(6)
N2FA_2 N -0.1169(6) 0.9412(6) 0.4197(7)
N2EB_2 N -0.0588(6) 0.8831(6) 0.4197(7)
N2AB_3 N 0.1169(6) 0.5803(7) -0.0588(6)
N2AA_3 N 0.0588(6) 0.5803(7) -0.1169(6)
N2GB_3 N 0.0588(6) 0.8831(6) -0.4197(7)
N2EA_3 N 0.1169(6) 0.9412(6) -0.4197(7)
N2CB_3 N 0.4197(7) 0.9412(6) -0.1169(6)
N2Z_3 N 0.4197(7) 0.8831(6) -0.0588(6)
N2B_2 N 0.1169(6) 0.0588(6) -0.5803(7)
N2EC_2 N 0.0588(6) 0.1169(6) -0.5803(7)
N2A_2 N 0.0588(6) 0.4197(7) -0.8831(6)
N2CC_2 N 0.1169(6) 0.4197(7) -0.9412(6)
N2_2 N 0.4197(7) 0.1169(6) -0.9412(6)
N2DC_2 N 0.4197(7) 0.0588(6) -0.8831(6)
N3A N 0.1760(13) 0.2374(9) 0.2374(9)
N3B N 0.2374(9) 0.1760(13) 0.2374(9)
N3C N 0.2374(9) 0.2374(9) -0.1760(13)
N3I N 0.1760(13) 0.2374(9) -0.2374(9)
N3F N 0.2374(9) 0.1760(13) -0.2374(9)
N3E N 0.7626(9) 0.2374(9) 0.1760(13)
N3K N 0.8240(13) 0.2374(9) 0.2374(9)
N3G N 0.7626(9) 0.1760(13) 0.2374(9)
N3ZA N 0.7626(9) 0.2374(9) -0.1760(13)
N3FB N 0.8240(13) 0.2374(9) -0.2374(9)
N3DB N 0.7626(9) 0.1760(13) -0.2374(9)
N3H N 0.2374(9) -0.1760(13) 0.2374(9)
N3J N 0.1760(13) -0.2374(9) 0.2374(9)
N3D N 0.2374(9) -0.2374(9) 0.1760(13)
N3BB N 0.7626(9) -0.1760(13) 0.2374(9)
N3EB N 0.8240(13) -0.2374(9) 0.2374(9)
N3YA N 0.7626(9) -0.2374(9) 0.1760(13)
N3CB N 0.2374(9) -0.1760(13) -0.2374(9)
N3GB N 0.1760(13) -0.2374(9) -0.2374(9)
N3AB N 0.2374(9) -0.2374(9) -0.1760(13)
N3XA N 0.7626(9) -0.1760(13) -0.2374(9)
N3WA N 0.8240(13) -0.2374(9) -0.2374(9)
N3VA N 0.7626(9) -0.2374(9) -0.1760(13)
N3F_2 N 0.2374(9) 0.1760(13) 0.7626(9)
N3C_2 N 0.2374(9) 0.2374(9) 0.8240(13)
N3I_2 N 0.1760(13) 0.2374(9) 0.7626(9)
N3CB_2 N 0.2374(9) -0.1760(13) 0.7626(9)
N3AB_2 N 0.2374(9) -0.2374(9) 0.8240(13)
N3GB_2 N 0.1760(13) -0.2374(9) 0.7626(9)
N3K_2 N -0.1760(13) 0.2374(9) 0.2374(9)
N3E_2 N -0.2374(9) 0.2374(9) 0.1760(13)
N3G_2 N -0.2374(9) 0.1760(13) 0.2374(9)
N3FB_2 N -0.1760(13) 0.2374(9) 0.7626(9)
N3ZA_2 N -0.2374(9) 0.2374(9) 0.8240(13)
N3DB_2 N -0.2374(9) 0.1760(13) 0.7626(9)
N3J_2 N 0.1760(13) 0.7626(9) 0.2374(9)
N3H_2 N 0.2374(9) 0.8240(13) 0.2374(9)
N3D_2 N 0.2374(9) 0.7626(9) 0.1760(13)
N3EB_2 N -0.1760(13) 0.7626(9) 0.2374(9)
N3BB_2 N -0.2374(9) 0.8240(13) 0.2374(9)
N3YA_2 N -0.2374(9) 0.7626(9) 0.1760(13)
N3AB_3 N 0.2374(9) 0.7626(9) -0.1760(13)
N3CB_3 N 0.2374(9) 0.8240(13) -0.2374(9)
N3GB_3 N 0.1760(13) 0.7626(9) -0.2374(9)
N3B_2 N 0.2374(9) 0.1760(13) -0.7626(9)
N3_2 N 0.2374(9) 0.2374(9) -0.8240(13)
N3A_2 N 0.1760(13) 0.2374(9) -0.7626(9)
C1B C 0.0991(8) 0.0991(8) 0.4004(11)
C1A C 0.0991(8) 0.4004(11) 0.0991(8)
C1F C 0.4004(11) 0.0991(8) -0.0991(8)
C1I C 0.0991(8) 0.0991(8) -0.4004(11)
C1C C 0.0991(8) 0.4004(11) -0.0991(8)
C1G C 0.5996(11) 0.0991(8) 0.0991(8)
C1K C 0.9009(8) 0.0991(8) 0.4004(11)
C1E C 0.9009(8) 0.4004(11) 0.0991(8)
C1DB C 0.5996(11) 0.0991(8) -0.0991(8)
C1FB C 0.9009(8) 0.0991(8) -0.4004(11)
C1ZA C 0.9009(8) 0.4004(11) -0.0991(8)
C1H C 0.4004(11) -0.0991(8) 0.0991(8)
C1D C 0.0991(8) -0.4004(11) 0.0991(8)
C1J C 0.0991(8) -0.0991(8) 0.4004(11)
C1BB C 0.5996(11) -0.0991(8) 0.0991(8)
C1YA C 0.9009(8) -0.4004(11) 0.0991(8)
C1EB C 0.9009(8) -0.0991(8) 0.4004(11)
C1CB C 0.4004(11) -0.0991(8) -0.0991(8)
C1AB C 0.0991(8) -0.4004(11) -0.0991(8)
C1GB C 0.0991(8) -0.0991(8) -0.4004(11)
C1VA C 0.5996(11) -0.0991(8) -0.0991(8)
C1WA C 0.9009(8) -0.4004(11) -0.0991(8)
C1XA C 0.9009(8) -0.0991(8) -0.4004(11)
C1I_2 C 0.0991(8) 0.0991(8) 0.5996(11)
C1C_2 C 0.0991(8) 0.4004(11) 0.9009(8)
C1F_2 C 0.4004(11) 0.0991(8) 0.9009(8)
C1GB_2 C 0.0991(8) -0.0991(8) 0.5996(11)
C1AB_2 C 0.0991(8) -0.4004(11) 0.9009(8)
C1CB_2 C 0.4004(11) -0.0991(8) 0.9009(8)
C1K_2 C -0.0991(8) 0.0991(8) 0.4004(11)
C1G_2 C -0.4004(11) 0.0991(8) 0.0991(8)
C1E_2 C -0.0991(8) 0.4004(11) 0.0991(8)
C1FB_2 C -0.0991(8) 0.0991(8) 0.5996(11)
C1DB_2 C -0.4004(11) 0.0991(8) 0.9009(8)
C1ZA_2 C -0.0991(8) 0.4004(11) 0.9009(8)
C1D_2 C 0.0991(8) 0.5996(11) 0.0991(8)
C1H_2 C 0.4004(11) 0.9009(8) 0.0991(8)
C1J_2 C 0.0991(8) 0.9009(8) 0.4004(11)
C1YA_2 C -0.0991(8) 0.5996(11) 0.0991(8)
C1BB_2 C -0.4004(11) 0.9009(8) 0.0991(8)
C1EB_2 C -0.0991(8) 0.9009(8) 0.4004(11)
C1AB_3 C 0.0991(8) 0.5996(11) -0.0991(8)
C1GB_3 C 0.0991(8) 0.9009(8) -0.4004(11)
C1CB_3 C 0.4004(11) 0.9009(8) -0.0991(8)
C1B_2 C 0.0991(8) 0.0991(8) -0.5996(11)
C1A_2 C 0.0991(8) 0.4004(11) -0.9009(8)
C1_2 C 0.4004(11) 0.0991(8) -0.9009(8)
O1G O 0.5000 -0.0000 0.1684(9)
O1F O 0.5000 0.0000 -0.1684(9)
O1UB O 0.5000 -0.1684(9) 0.0000
O1B O 0.1684(9) 0.0000 0.5000
O1I O -0.0000 0.1684(9) 0.5000
O1A O -0.0000 0.5000 0.1684(9)
O1C O 0.1684(9) 0.5000 0.0000
O1B_2 O 0.1684(9) 0.0000 -0.5000
O1I_2 O 0.0000 0.1684(9) -0.5000
O1XB O -0.0000 0.5000 -0.1684(9)
O1AC O 0.8316(9) 0.0000 0.5000
O1I_3 O 1.0000 0.1684(9) 0.5000
O1A_2 O 1.0000 0.5000 0.1684(9)
O1E O 0.8316(9) 0.5000 0.0000
O1AC_2 O 0.8316(9) 0.0000 -0.5000
O1I_4 O 1.0000 0.1684(9) -0.5000
O1XB_2 O 1.0000 0.5000 -0.1684(9)
O1J O -0.0000 -0.1684(9) 0.5000
O1E_2 O -0.1684(9) 0.5000 0.0000
O1J_2 O 0.0000 -0.1684(9) -0.5000
O1J_3 O 1.0000 -0.1684(9) 0.5000
O1C_2 O 1.1684(9) 0.5000 0.0000
O1AC_3 O -0.1684(9) 0.0000 0.5000
C2B C 0.1311(13) 0.1311(13) 0.3680(16)
C2A C 0.1311(13) 0.3680(16) 0.1311(13)
C2F C 0.3680(16) 0.1311(13) -0.1311(13)
C2I C 0.1311(13) 0.1311(13) -0.3680(16)
C2C C 0.1311(13) 0.3680(16) -0.1311(13)
C2G C 0.6320(16) 0.1311(13) 0.1311(13)
C2K C 0.8689(13) 0.1311(13) 0.3680(16)
C2E C 0.8689(13) 0.3680(16) 0.1311(13)
C2DB C 0.6320(16) 0.1311(13) -0.1311(13)
C2FB C 0.8689(13) 0.1311(13) -0.3680(16)
C2ZA C 0.8689(13) 0.3680(16) -0.1311(13)
C2H C 0.3680(16) -0.1311(13) 0.1311(13)
C2D C 0.1311(13) -0.3680(16) 0.1311(13)
C2J C 0.1311(13) -0.1311(13) 0.3680(16)
C2BB C 0.6320(16) -0.1311(13) 0.1311(13)
C2YA C 0.8689(13) -0.3680(16) 0.1311(13)
C2EB C 0.8689(13) -0.1311(13) 0.3680(16)
C2CB C 0.3680(16) -0.1311(13) -0.1311(13)
C2AB C 0.1311(13) -0.3680(16) -0.1311(13)
C2GB C 0.1311(13) -0.1311(13) -0.3680(16)
C2VA C 0.6320(16) -0.1311(13) -0.1311(13)
C2WA C 0.8689(13) -0.3680(16) -0.1311(13)
C2XA C 0.8689(13) -0.1311(13) -0.3680(16)
C2I_2 C 0.1311(13) 0.1311(13) 0.6320(16)
C2C_2 C 0.1311(13) 0.3680(16) 0.8689(13)
C2F_2 C 0.3680(16) 0.1311(13) 0.8689(13)
C2GB_2 C 0.1311(13) -0.1311(13) 0.6320(16)
C2AB_2 C 0.1311(13) -0.3680(16) 0.8689(13)
C2CB_2 C 0.3680(16) -0.1311(13) 0.8689(13)
C2K_2 C -0.1311(13) 0.1311(13) 0.3680(16)
C2G_2 C -0.3680(16) 0.1311(13) 0.1311(13)
C2E_2 C -0.1311(13) 0.3680(16) 0.1311(13)
C2FB_2 C -0.1311(13) 0.1311(13) 0.6320(16)
C2DB_2 C -0.3680(16) 0.1311(13) 0.8689(13)
C2ZA_2 C -0.1311(13) 0.3680(16) 0.8689(13)
C2D_2 C 0.1311(13) 0.6320(16) 0.1311(13)
C2H_2 C 0.3680(16) 0.8689(13) 0.1311(13)
C2J_2 C 0.1311(13) 0.8689(13) 0.3680(16)
C2YA_2 C -0.1311(13) 0.6320(16) 0.1311(13)
C2BB_2 C -0.3680(16) 0.8689(13) 0.1311(13)
C2EB_2 C -0.1311(13) 0.8689(13) 0.3680(16)
C2AB_3 C 0.1311(13) 0.6320(16) -0.1311(13)
C2GB_3 C 0.1311(13) 0.8689(13) -0.3680(16)
C2CB_3 C 0.3680(16) 0.8689(13) -0.1311(13)
C2B_2 C 0.1311(13) 0.1311(13) -0.6320(16)
C2A_2 C 0.1311(13) 0.3680(16) -0.8689(13)
C2_2 C 0.3680(16) 0.1311(13) -0.8689(13)
C4DC C 0.3515(11) 0.1140(13) 0.1720(12)
C4B C 0.1720(12) 0.1140(13) 0.3515(11)
C4EC C 0.1140(13) 0.1720(12) 0.3515(11)
C4A C 0.1140(13) 0.3515(11) 0.1720(12)
C4CC C 0.1720(12) 0.3515(11) 0.1140(13)
C4TB C 0.3515(11) 0.1720(12) -0.1140(13)
C4F C 0.3515(11) 0.1140(13) -0.1720(12)
C4BC C 0.1720(12) 0.1140(13) -0.3515(11)
C4I C 0.1140(13) 0.1720(12) -0.3515(11)
C4XB C 0.1140(13) 0.3515(11) -0.1720(12)
C4C C 0.1720(12) 0.3515(11) -0.1140(13)
C4VB C 0.6485(11) 0.1720(12) 0.1140(13)
C4G C 0.6485(11) 0.1140(13) 0.1720(12)
C4AC C 0.8280(12) 0.1140(13) 0.3515(11)
C4K C 0.8860(13) 0.1720(12) 0.3515(11)
C4WB C 0.8860(13) 0.3515(11) 0.1720(12)
C4E C 0.8280(12) 0.3515(11) 0.1140(13)
C4Y C 0.6485(11) 0.1720(12) -0.1140(13)
C4DB C 0.6485(11) 0.1140(13) -0.1720(12)
C4DA C 0.8280(12) 0.1140(13) -0.3515(11)
C4FB C 0.8860(13) 0.1720(12) -0.3515(11)
C4CA C 0.8860(13) 0.3515(11) -0.1720(12)
C4ZA C 0.8280(12) 0.3515(11) -0.1140(13)
C4H C 0.3515(11) -0.1140(13) 0.1720(12)
C4UB C 0.3515(11) -0.1720(12) 0.1140(13)
C4D C 0.1720(12) -0.3515(11) 0.1140(13)
C4YB C 0.1140(13) -0.3515(11) 0.1720(12)
C4J C 0.1140(13) -0.1720(12) 0.3515(11)
C4ZB C 0.1720(12) -0.1140(13) 0.3515(11)
C4BB C 0.6485(11) -0.1140(13) 0.1720(12)
C4X C 0.6485(11) -0.1720(12) 0.1140(13)
C4YA C 0.8280(12) -0.3515(11) 0.1140(13)
C4BA C 0.8860(13) -0.3515(11) 0.1720(12)
C4EB C 0.8860(13) -0.1720(12) 0.3515(11)
C4FA C 0.8280(12) -0.1140(13) 0.3515(11)
C4CB C 0.3515(11) -0.1140(13) -0.1720(12)
C4Z C 0.3515(11) -0.1720(12) -0.1140(13)
C4AB C 0.1720(12) -0.3515(11) -0.1140(13)
C4AA C 0.1140(13) -0.3515(11) -0.1720(12)
C4GB C 0.1140(13) -0.1720(12) -0.3515(11)
C4EA C 0.1720(12) -0.1140(13) -0.3515(11)
C4HA C 0.6485(11) -0.1140(13) -0.1720(12)
C4VA C 0.6485(11) -0.1720(12) -0.1140(13)
C4GA C 0.8280(12) -0.3515(11) -0.1140(13)
C4WA C 0.8860(13) -0.3515(11) -0.1720(12)
C4IA C 0.8860(13) -0.1720(12) -0.3515(11)
C4XA C 0.8280(12) -0.1140(13) -0.3515(11)
C4BC_2 C 0.1720(12) 0.1140(13) 0.6485(11)
C4I_2 C 0.1140(13) 0.1720(12) 0.6485(11)
C4XB_2 C 0.1140(13) 0.3515(11) 0.8280(12)
C4C_2 C 0.1720(12) 0.3515(11) 0.8860(13)
C4TB_2 C 0.3515(11) 0.1720(12) 0.8860(13)
C4F_2 C 0.3515(11) 0.1140(13) 0.8280(12)
C4EA_2 C 0.1720(12) -0.1140(13) 0.6485(11)
C4GB_2 C 0.1140(13) -0.1720(12) 0.6485(11)
C4AA_2 C 0.1140(13) -0.3515(11) 0.8280(12)
C4AB_2 C 0.1720(12) -0.3515(11) 0.8860(13)
C4Z_2 C 0.3515(11) -0.1720(12) 0.8860(13)
C4CB_2 C 0.3515(11) -0.1140(13) 0.8280(12)
C4K_2 C -0.1140(13) 0.1720(12) 0.3515(11)
C4AC_2 C -0.1720(12) 0.1140(13) 0.3515(11)
C4G_2 C -0.3515(11) 0.1140(13) 0.1720(12)
C4VB_2 C -0.3515(11) 0.1720(12) 0.1140(13)
C4E_2 C -0.1720(12) 0.3515(11) 0.1140(13)
C4WB_2 C -0.1140(13) 0.3515(11) 0.1720(12)
C4FB_2 C -0.1140(13) 0.1720(12) 0.6485(11)
C4DA_2 C -0.1720(12) 0.1140(13) 0.6485(11)
C4DB_2 C -0.3515(11) 0.1140(13) 0.8280(12)
C4Y_2 C -0.3515(11) 0.1720(12) 0.8860(13)
C4ZA_2 C -0.1720(12) 0.3515(11) 0.8860(13)
C4CA_2 C -0.1140(13) 0.3515(11) 0.8280(12)
C4YB_2 C 0.1140(13) 0.6485(11) 0.1720(12)
C4D_2 C 0.1720(12) 0.6485(11) 0.1140(13)
C4UB_2 C 0.3515(11) 0.8280(12) 0.1140(13)
C4H_2 C 0.3515(11) 0.8860(13) 0.1720(12)
C4ZB_2 C 0.1720(12) 0.8860(13) 0.3515(11)
C4J_2 C 0.1140(13) 0.8280(12) 0.3515(11)
C4BA_2 C -0.1140(13) 0.6485(11) 0.1720(12)
C4YA_2 C -0.1720(12) 0.6485(11) 0.1140(13)
C4X_2 C -0.3515(11) 0.8280(12) 0.1140(13)
C4BB_2 C -0.3515(11) 0.8860(13) 0.1720(12)
C4FA_2 C -0.1720(12) 0.8860(13) 0.3515(11)
C4EB_2 C -0.1140(13) 0.8280(12) 0.3515(11)
C4AB_3 C 0.1720(12) 0.6485(11) -0.1140(13)
C4AA_3 C 0.1140(13) 0.6485(11) -0.1720(12)
C4GB_3 C 0.1140(13) 0.8280(12) -0.3515(11)
C4EA_3 C 0.1720(12) 0.8860(13) -0.3515(11)
C4CB_3 C 0.3515(11) 0.8860(13) -0.1720(12)
C4Z_3 C 0.3515(11) 0.8280(12) -0.1140(13)
C4B_2 C 0.1720(12) 0.1140(13) -0.6485(11)
C4EC_2 C 0.1140(13) 0.1720(12) -0.6485(11)
C4A_2 C 0.1140(13) 0.3515(11) -0.8280(12)
C4CC_2 C 0.1720(12) 0.3515(11) -0.8860(13)
C4_2 C 0.3515(11) 0.1720(12) -0.8860(13)
C4DC_2 C 0.3515(11) 0.1140(13) -0.8280(12)
C6DC C 0.3130(13) 0.1346(13) 0.1934(12)
C6B C 0.1934(12) 0.1346(13) 0.3130(13)
C6EC C 0.1346(13) 0.1934(12) 0.3130(13)
C6A C 0.1346(13) 0.3130(13) 0.1934(12)
C6CC C 0.1934(12) 0.3130(13) 0.1346(13)
C6TB C 0.3130(13) 0.1934(12) -0.1346(13)
C6F C 0.3130(13) 0.1346(13) -0.1934(12)
C6BC C 0.1934(12) 0.1346(13) -0.3130(13)
C6I C 0.1346(13) 0.1934(12) -0.3130(13)
C6XB C 0.1346(13) 0.3130(13) -0.1934(12)
C6C C 0.1934(12) 0.3130(13) -0.1346(13)
C6VB C 0.6870(13) 0.1934(12) 0.1346(13)
C6G C 0.6870(13) 0.1346(13) 0.1934(12)
C6AC C 0.8066(12) 0.1346(13) 0.3130(13)
C6K C 0.8654(13) 0.1934(12) 0.3130(13)
C6WB C 0.8654(13) 0.3130(13) 0.1934(12)
C6E C 0.8066(12) 0.3130(13) 0.1346(13)
C6Y C 0.6870(13) 0.1934(12) -0.1346(13)
C6DB C 0.6870(13) 0.1346(13) -0.1934(12)
C6DA C 0.8066(12) 0.1346(13) -0.3130(13)
C6FB C 0.8654(13) 0.1934(12) -0.3130(13)
C6CA C 0.8654(13) 0.3130(13) -0.1934(12)
C6ZA C 0.8066(12) 0.3130(13) -0.1346(13)
C6H C 0.3130(13) -0.1346(13) 0.1934(12)
C6UB C 0.3130(13) -0.1934(12) 0.1346(13)
C6D C 0.1934(12) -0.3130(13) 0.1346(13)
C6YB C 0.1346(13) -0.3130(13) 0.1934(12)
C6J C 0.1346(13) -0.1934(12) 0.3130(13)
C6ZB C 0.1934(12) -0.1346(13) 0.3130(13)
C6BB C 0.6870(13) -0.1346(13) 0.1934(12)
C6X C 0.6870(13) -0.1934(12) 0.1346(13)
C6YA C 0.8066(12) -0.3130(13) 0.1346(13)
C6BA C 0.8654(13) -0.3130(13) 0.1934(12)
C6EB C 0.8654(13) -0.1934(12) 0.3130(13)
C6FA C 0.8066(12) -0.1346(13) 0.3130(13)
C6CB C 0.3130(13) -0.1346(13) -0.1934(12)
C6Z C 0.3130(13) -0.1934(12) -0.1346(13)
C6AB C 0.1934(12) -0.3130(13) -0.1346(13)
C6AA C 0.1346(13) -0.3130(13) -0.1934(12)
C6GB C 0.1346(13) -0.1934(12) -0.3130(13)
C6EA C 0.1934(12) -0.1346(13) -0.3130(13)
C6HA C 0.6870(13) -0.1346(13) -0.1934(12)
C6VA C 0.6870(13) -0.1934(12) -0.1346(13)
C6GA C 0.8066(12) -0.3130(13) -0.1346(13)
C6WA C 0.8654(13) -0.3130(13) -0.1934(12)
C6IA C 0.8654(13) -0.1934(12) -0.3130(13)
C6XA C 0.8066(12) -0.1346(13) -0.3130(13)
C6BC_2 C 0.1934(12) 0.1346(13) 0.6870(13)
C6I_2 C 0.1346(13) 0.1934(12) 0.6870(13)
C6XB_2 C 0.1346(13) 0.3130(13) 0.8066(12)
C6C_2 C 0.1934(12) 0.3130(13) 0.8654(13)
C6TB_2 C 0.3130(13) 0.1934(12) 0.8654(13)
C6F_2 C 0.3130(13) 0.1346(13) 0.8066(12)
C6EA_2 C 0.1934(12) -0.1346(13) 0.6870(13)
C6GB_2 C 0.1346(13) -0.1934(12) 0.6870(13)
C6AA_2 C 0.1346(13) -0.3130(13) 0.8066(12)
C6AB_2 C 0.1934(12) -0.3130(13) 0.8654(13)
C6Z_2 C 0.3130(13) -0.1934(12) 0.8654(13)
C6CB_2 C 0.3130(13) -0.1346(13) 0.8066(12)
C6K_2 C -0.1346(13) 0.1934(12) 0.3130(13)
C6AC_2 C -0.1934(12) 0.1346(13) 0.3130(13)
C6G_2 C -0.3130(13) 0.1346(13) 0.1934(12)
C6VB_2 C -0.3130(13) 0.1934(12) 0.1346(13)
C6E_2 C -0.1934(12) 0.3130(13) 0.1346(13)
C6WB_2 C -0.1346(13) 0.3130(13) 0.1934(12)
C6FB_2 C -0.1346(13) 0.1934(12) 0.6870(13)
C6DA_2 C -0.1934(12) 0.1346(13) 0.6870(13)
C6DB_2 C -0.3130(13) 0.1346(13) 0.8066(12)
C6Y_2 C -0.3130(13) 0.1934(12) 0.8654(13)
C6ZA_2 C -0.1934(12) 0.3130(13) 0.8654(13)
C6CA_2 C -0.1346(13) 0.3130(13) 0.8066(12)
C6YB_2 C 0.1346(13) 0.6870(13) 0.1934(12)
C6D_2 C 0.1934(12) 0.6870(13) 0.1346(13)
C6UB_2 C 0.3130(13) 0.8066(12) 0.1346(13)
C6H_2 C 0.3130(13) 0.8654(13) 0.1934(12)
C6ZB_2 C 0.1934(12) 0.8654(13) 0.3130(13)
C6J_2 C 0.1346(13) 0.8066(12) 0.3130(13)
C6BA_2 C -0.1346(13) 0.6870(13) 0.1934(12)
C6YA_2 C -0.1934(12) 0.6870(13) 0.1346(13)
C6X_2 C -0.3130(13) 0.8066(12) 0.1346(13)
C6BB_2 C -0.3130(13) 0.8654(13) 0.1934(12)
C6FA_2 C -0.1934(12) 0.8654(13) 0.3130(13)
C6EB_2 C -0.1346(13) 0.8066(12) 0.3130(13)
C6AB_3 C 0.1934(12) 0.6870(13) -0.1346(13)
C6AA_3 C 0.1346(13) 0.6870(13) -0.1934(12)
C6GB_3 C 0.1346(13) 0.8066(12) -0.3130(13)
C6EA_3 C 0.1934(12) 0.8654(13) -0.3130(13)
C6CB_3 C 0.3130(13) 0.8654(13) -0.1934(12)
C6Z_3 C 0.3130(13) 0.8066(12) -0.1346(13)
C6B_2 C 0.1934(12) 0.1346(13) -0.6870(13)
C6EC_2 C 0.1346(13) 0.1934(12) -0.6870(13)
C6A_2 C 0.1346(13) 0.3130(13) -0.8066(12)
C6CC_2 C 0.1934(12) 0.3130(13) -0.8654(13)
C6_2 C 0.3130(13) 0.1934(12) -0.8654(13)
C6DC_2 C 0.3130(13) 0.1346(13) -0.8066(12)
C8B C 0.1710(12) 0.1710(12) 0.2936(18)
C8A C 0.1710(12) 0.2936(18) 0.1710(12)
C8F C 0.2936(18) 0.1710(12) -0.1710(12)
C8I C 0.1710(12) 0.1710(12) -0.2936(18)
C8C C 0.1710(12) 0.2936(18) -0.1710(12)
C8G C 0.7064(18) 0.1710(12) 0.1710(12)
C8K C 0.8290(12) 0.1710(12) 0.2936(18)
C8E C 0.8290(12) 0.2936(18) 0.1710(12)
C8DB C 0.7064(18) 0.1710(12) -0.1710(12)
C8FB C 0.8290(12) 0.1710(12) -0.2936(18)
C8ZA C 0.8290(12) 0.2936(18) -0.1710(12)
C8H C 0.2936(18) -0.1710(12) 0.1710(12)
C8D C 0.1710(12) -0.2936(18) 0.1710(12)
C8J C 0.1710(12) -0.1710(12) 0.2936(18)
C8BB C 0.7064(18) -0.1710(12) 0.1710(12)
C8YA C 0.8290(12) -0.2936(18) 0.1710(12)
C8EB C 0.8290(12) -0.1710(12) 0.2936(18)
C8CB C 0.2936(18) -0.1710(12) -0.1710(12)
C8AB C 0.1710(12) -0.2936(18) -0.1710(12)
C8GB C 0.1710(12) -0.1710(12) -0.2936(18)
C8VA C 0.7064(18) -0.1710(12) -0.1710(12)
C8WA C 0.8290(12) -0.2936(18) -0.1710(12)
C8XA C 0.8290(12) -0.1710(12) -0.2936(18)
C8I_2 C 0.1710(12) 0.1710(12) 0.7064(18)
C8C_2 C 0.1710(12) 0.2936(18) 0.8290(12)
C8F_2 C 0.2936(18) 0.1710(12) 0.8290(12)
C8GB_2 C 0.1710(12) -0.1710(12) 0.7064(18)
C8AB_2 C 0.1710(12) -0.2936(18) 0.8290(12)
C8CB_2 C 0.2936(18) -0.1710(12) 0.8290(12)
C8K_2 C -0.1710(12) 0.1710(12) 0.2936(18)
C8G_2 C -0.2936(18) 0.1710(12) 0.1710(12)
C8E_2 C -0.1710(12) 0.2936(18) 0.1710(12)
C8FB_2 C -0.1710(12) 0.1710(12) 0.7064(18)
C8DB_2 C -0.2936(18) 0.1710(12) 0.8290(12)
C8ZA_2 C -0.1710(12) 0.2936(18) 0.8290(12)
C8D_2 C 0.1710(12) 0.7064(18) 0.1710(12)
C8H_2 C 0.2936(18) 0.8290(12) 0.1710(12)
C8J_2 C 0.1710(12) 0.8290(12) 0.2936(18)
C8YA_2 C -0.1710(12) 0.7064(18) 0.1710(12)
C8BB_2 C -0.2936(18) 0.8290(12) 0.1710(12)
C8EB_2 C -0.1710(12) 0.8290(12) 0.2936(18)
C8AB_3 C 0.1710(12) 0.7064(18) -0.1710(12)
C8GB_3 C 0.1710(12) 0.8290(12) -0.2936(18)
C8CB_3 C 0.2936(18) 0.8290(12) -0.1710(12)
C8B_2 C 0.1710(12) 0.1710(12) -0.7064(18)
C8A_2 C 0.1710(12) 0.2936(18) -0.8290(12)
C8_2 C 0.2936(18) 0.1710(12) -0.8290(12)
C10A C 0.1983(13) 0.2565(17) 0.1983(13)
C10B C 0.1983(13) 0.1983(13) 0.2565(17)
C10F C 0.2565(17) 0.1983(13) -0.1983(13)
C10C C 0.1983(13) 0.2565(17) -0.1983(13)
C10I C 0.1983(13) 0.1983(13) -0.2565(17)
C10G C 0.7435(17) 0.1983(13) 0.1983(13)
C10E C 0.8017(13) 0.2565(17) 0.1983(13)
C10K C 0.8017(13) 0.1983(13) 0.2565(17)
C10DB C 0.7435(17) 0.1983(13) -0.1983(13)
C10ZA C 0.8017(13) 0.2565(17) -0.1983(13)
C10FB C 0.8017(13) 0.1983(13) -0.2565(17)
C10H C 0.2565(17) -0.1983(13) 0.1983(13)
C10J C 0.1983(13) -0.1983(13) 0.2565(17)
C10D C 0.1983(13) -0.2565(17) 0.1983(13)
C10BB C 0.7435(17) -0.1983(13) 0.1983(13)
C10EB C 0.8017(13) -0.1983(13) 0.2565(17)
C10YA C 0.8017(13) -0.2565(17) 0.1983(13)
C10CB C 0.2565(17) -0.1983(13) -0.1983(13)
C10GB C 0.1983(13) -0.1983(13) -0.2565(17)
C10AB C 0.1983(13) -0.2565(17) -0.1983(13)
C10VA C 0.7435(17) -0.1983(13) -0.1983(13)
C10XA C 0.8017(13) -0.1983(13) -0.2565(17)
C10WA C 0.8017(13) -0.2565(17) -0.1983(13)
C10I_2 C 0.1983(13) 0.1983(13) 0.7435(17)
C10F_2 C 0.2565(17) 0.1983(13) 0.8017(13)
C10C_2 C 0.1983(13) 0.2565(17) 0.8017(13)
C10GB_2 C 0.1983(13) -0.1983(13) 0.7435(17)
C10CB_2 C 0.2565(17) -0.1983(13) 0.8017(13)
C10AB_2 C 0.1983(13) -0.2565(17) 0.8017(13)
C10K_2 C -0.1983(13) 0.1983(13) 0.2565(17)
C10E_2 C -0.1983(13) 0.2565(17) 0.1983(13)
C10G_2 C -0.2565(17) 0.1983(13) 0.1983(13)
C10FB_2 C -0.1983(13) 0.1983(13) 0.7435(17)
C10ZA_2 C -0.1983(13) 0.2565(17) 0.8017(13)
C10DB_2 C -0.2565(17) 0.1983(13) 0.8017(13)
C10D_2 C 0.1983(13) 0.7435(17) 0.1983(13)
C10J_2 C 0.1983(13) 0.8017(13) 0.2565(17)
C10H_2 C 0.2565(17) 0.8017(13) 0.1983(13)
C10YA_2 C -0.1983(13) 0.7435(17) 0.1983(13)
C10EB_2 C -0.1983(13) 0.8017(13) 0.2565(17)
C10BB_2 C -0.2565(17) 0.8017(13) 0.1983(13)
C10AB_3 C 0.1983(13) 0.7435(17) -0.1983(13)
C10CB_3 C 0.2565(17) 0.8017(13) -0.1983(13)
C10GB_3 C 0.1983(13) 0.8017(13) -0.2565(17)
C10B_2 C 0.1983(13) 0.1983(13) -0.7435(17)
C10_2 C 0.2565(17) 0.1983(13) -0.8017(13)
C10A_2 C 0.1983(13) 0.2565(17) -0.8017(13)
loop_
_geom_bond_atom_site_label_1
_geom_bond_atom_site_label_2
_geom_bond_site_symmetry_1
_geom_bond_site_symmetry_2
Cu1 Cl1 1_555 1_555
Cl1 Cu1G 1_555 1_555
N1 Cu1 1_555 1_555
N2 N1 1_555 1_555
N3 C10 1_555 1_555
C1 N2 1_555 1_555
O1 Cu1 1_555 1_555
C2 C1 1_555 1_555
C4 C2 1_555 1_555
C6 C4 1_555 1_555
C8 C6 1_555 1_555
C10 C8 1_555 1_555
Cu1G N1DC 1_555 1_555
Cu1F Cl1 1_555 1_555
Cu1UB Cl1 1_555 1_555
Cu1B Cl1B 1_555 1_555
Cu1I Cl1B 1_555 1_555
Cu1A Cl1A 1_555 1_555
Cu1C Cl1A 1_555 1_555
Cu1B_2 Cl1B_2 1_555 1_555
Cu1I_2 Cl1B_2 1_555 1_555
Cu1XB Cl1A 1_555 1_555
Cu1AC Cl1B_3 1_555 1_555
Cu1I_3 Cl1B_3 1_555 1_555
Cu1A_2 Cl1A_2 1_555 1_555
Cu1E Cl1A_2 1_555 1_555
Cu1AC_2 Cl1B_4 1_555 1_555
Cu1I_4 Cl1B_4 1_555 1_555
Cu1XB_2 Cl1A_2 1_555 1_555
Cu1J Cl1B 1_555 1_555
Cu1E_2 Cl1A 1_555 1_555
Cu1J_2 Cl1B_2 1_555 1_555
Cu1J_3 Cl1B_3 1_555 1_555
Cu1C_2 Cl1A_2 1_555 1_555
Cu1AC_3 Cl1B 1_555 1_555
Cu1C_3 N1D 1_555 1_555
Cu1A_3 N1YB 1_555 1_555
Cu1E_3 N1YA 1_555 1_555
Cu1A_4 N1BA 1_555 1_555
Cu1XB_3 N1AA 1_555 1_555
Cu1XB_4 N1WA 1_555 1_555
Cu1J_4 Cl1B_4 1_555 1_555
Cu1XB_5 N1XB_2 1_555 1_555
Cu1C_4 N1C_2 1_555 1_555
Cu1_2 N1TB_2 1_555 1_555
Cu1F_2 N1F_2 1_555 1_555
Cu1XB_6 N1AA_2 1_555 1_555
Cu1C_5 N1AB_2 1_555 1_555
Cu1UB_2 N1Z_2 1_555 1_555
Cu1G_2 N1G_2 1_555 1_555
Cu1_3 N1VB_2 1_555 1_555
Cu1F_3 N1DB_2 1_555 1_555
Cu1_4 N1Y_2 1_555 1_555
Cu1E_4 N1ZA_2 1_555 1_555
Cu1UB_3 N1UB_2 1_555 1_555
Cu1G_3 N1H_2 1_555 1_555
Cu1B_3 N1ZB_2 1_555 1_555
Cu1J_5 N1J_2 1_555 1_555
Cu1UB_4 N1X_2 1_555 1_555
Cu1G_4 N1BB_2 1_555 1_555
Cu1AC_4 N1FA_2 1_555 1_555
Cu1J_6 N1GB_3 1_555 1_555
Cu1B_4 N1EA_3 1_555 1_555
Cu1F_4 N1CB_3 1_555 1_555
Cu1AC_5 Cl1B_2 1_555 1_555
Cu1A_5 N1A_2 1_555 1_555
Cu1C_6 N1CC_2 1_555 1_555
Cu1_5 N1_2 1_555 1_555
Cu1G_5 N1DC_2 1_555 1_555
Cu1B_5 Cl1B_3 1_555 1_555
N1DC N1 1_555 1_555
N1B Cu1B 1_555 1_555
N1EC Cu1I 1_555 1_555
N1A Cu1A 1_555 1_555
N1CC Cu1C 1_555 1_555
N1TB Cu1 1_555 1_555
N1F Cu1F 1_555 1_555
N1BC Cu1B_2 1_555 1_555
N1I Cu1I_2 1_555 1_555
N1XB Cu1XB 1_555 1_555
N1C Cu1C 1_555 1_555
N1VB Cu1 1_555 1_555
N1G Cu1G 1_555 1_555
N1AC Cu1AC 1_555 1_555
N1K Cu1I_3 1_555 1_555
N1WB Cu1A_2 1_555 1_555
N1E Cu1E 1_555 1_555
N1Y Cu1 1_555 1_555
N1DB Cu1F 1_555 1_555
N1DA Cu1AC_2 1_555 1_555
N1FB Cu1I_4 1_555 1_555
N1CA Cu1XB_2 1_555 1_555
N1ZA Cu1E 1_555 1_555
N1H Cu1G 1_555 1_555
N1UB Cu1UB 1_555 1_555
N1D N1YB 1_555 1_555
N1YB N2YB 1_555 1_555
N1J Cu1J 1_555 1_555
N1ZB Cu1B 1_555 1_555
N1BB Cu1G 1_555 1_555
N1X Cu1UB 1_555 1_555
N1YA N1BA 1_555 1_555
N1BA N2BA 1_555 1_555
N1EB Cu1J_3 1_555 1_555
N1FA Cu1AC 1_555 1_555
N1CB Cu1F 1_555 1_555
N1Z Cu1UB 1_555 1_555
N1AB Cu1C_3 1_555 1_555
N1AA N1AB 1_555 1_555
N1GB Cu1J_2 1_555 1_555
N1EA Cu1B_2 1_555 1_555
N1HA Cu1F 1_555 1_555
N1VA Cu1UB 1_555 1_555
N1GA Cu1E_3 1_555 1_555
N1WA N1GA 1_555 1_555
N1IA Cu1J_4 1_555 1_555
N1XA Cu1AC_2 1_555 1_555
N1BC_2 Cu1B 1_555 1_555
N1I_2 Cu1I 1_555 1_555
N1XB_2 N1C_2 1_555 1_555
N1C_2 N2C_2 1_555 1_555
N1TB_2 N1F_2 1_555 1_555
N1F_2 N2F_2 1_555 1_555
N1EA_2 Cu1B 1_555 1_555
N1GB_2 Cu1J 1_555 1_555
N1AA_2 N1AB_2 1_555 1_555
N1AB_2 N2AB_2 1_555 1_555
N1Z_2 N1CB_2 1_555 1_555
N1CB_2 Cu1F_2 1_555 1_555
N1K_2 Cu1I 1_555 1_555
N1AC_2 Cu1AC_3 1_555 1_555
N1G_2 N1VB_2 1_555 1_555
N1VB_2 N2VB_2 1_555 1_555
N1E_2 Cu1E_2 1_555 1_555
N1WB_2 Cu1A 1_555 1_555
N1FB_2 Cu1I 1_555 1_555
N1DA_2 Cu1AC_3 1_555 1_555
N1DB_2 N1Y_2 1_555 1_555
N1Y_2 N2Y_2 1_555 1_555
N1ZA_2 N1CA_2 1_555 1_555
N1CA_2 Cu1XB_5 1_555 1_555
N1YB_2 Cu1A 1_555 1_555
N1D_2 Cu1C 1_555 1_555
N1UB_2 N1H_2 1_555 1_555
N1H_2 N2H_2 1_555 1_555
N1ZB_2 N1J_2 1_555 1_555
N1J_2 N2J_2 1_555 1_555
N1BA_2 Cu1A 1_555 1_555
N1YA_2 Cu1E_2 1_555 1_555
N1X_2 N1BB_2 1_555 1_555
N1BB_2 N2BB_2 1_555 1_555
N1FA_2 N1EB_2 1_555 1_555
N1EB_2 Cu1J_5 1_555 1_555
N1AB_3 Cu1C 1_555 1_555
N1AA_3 Cu1XB 1_555 1_555
N1GB_3 N1EA_3 1_555 1_555
N1EA_3 N2EA_3 1_555 1_555
N1CB_3 N1Z_3 1_555 1_555
N1Z_3 Cu1UB_3 1_555 1_555
N1B_2 Cu1B_2 1_555 1_555
N1EC_2 Cu1I_2 1_555 1_555
N1A_2 N1CC_2 1_555 1_555
N1CC_2 N2CC_2 1_555 1_555
N1_2 N1DC_2 1_555 1_555
N1DC_2 N2DC_2 1_555 1_555
N1ZB_3 Cu1B_2 1_555 1_555
N1K_3 Cu1I_2 1_555 1_555
N1FB_3 Cu1I_2 1_555 1_555
N1WA_2 Cu1XB 1_555 1_555
N1CA_3 Cu1XB 1_555 1_555
N1XA_2 Cu1AC 1_555 1_555
N1DA_3 Cu1AC 1_555 1_555
N1I_3 Cu1I_3 1_555 1_555
N1EC_3 Cu1I_3 1_555 1_555
N1FB_4 Cu1I_3 1_555 1_555
N1A_3 Cu1A_2 1_555 1_555
N1YB_3 Cu1A_2 1_555 1_555
N1BA_3 Cu1A_2 1_555 1_555
N1YA_3 Cu1E 1_555 1_555
N1GA_2 Cu1E 1_555 1_555
N1AC_3 Cu1AC_2 1_555 1_555
N1FA_3 Cu1AC_2 1_555 1_555
N1I_4 Cu1I_4 1_555 1_555
N1K_4 Cu1I_4 1_555 1_555
N1EC_4 Cu1I_4 1_555 1_555
N1XB_3 Cu1XB_2 1_555 1_555
N1WA_3 Cu1XB_2 1_555 1_555
N1AA_4 Cu1XB_2 1_555 1_555
N1EB_3 Cu1J 1_555 1_555
N1IA_2 Cu1J 1_555 1_555
N1ZA_3 Cu1E_2 1_555 1_555
N1GA_3 Cu1E_2 1_555 1_555
N1J_3 Cu1J_2 1_555 1_555
N1EB_4 Cu1J_2 1_555 1_555
N1IA_3 Cu1J_2 1_555 1_555
N1J_4 Cu1J_3 1_555 1_555
N1GB_4 Cu1J_3 1_555 1_555
N1IA_4 Cu1J_3 1_555 1_555
N1C_3 Cu1C_2 1_555 1_555
N1D_3 Cu1C_2 1_555 1_555
N1CC_3 Cu1C_2 1_555 1_555
N1AB_4 Cu1C_2 1_555 1_555
N1XA_3 Cu1AC_3 1_555 1_555
N1FA_4 Cu1AC_3 1_555 1_555
N2DC C1 1_555 1_555
N2B N1B 1_555 1_555
N2EC N1EC 1_555 1_555
N2A N1A 1_555 1_555
N2CC N1CC 1_555 1_555
N2TB N1TB 1_555 1_555
N2F N1F 1_555 1_555
N2BC N1BC 1_555 1_555
N2I N1I 1_555 1_555
N2XB N1XB 1_555 1_555
N2C N1C 1_555 1_555
N2VB N1VB 1_555 1_555
N2G N1G 1_555 1_555
N2AC N1AC 1_555 1_555
N2K N1K 1_555 1_555
N2WB N1WB 1_555 1_555
N2E N1E 1_555 1_555
N2Y N1Y 1_555 1_555
N2DB N1DB 1_555 1_555
N2DA N1DA 1_555 1_555
N2FB N1FB 1_555 1_555
N2CA N1CA 1_555 1_555
N2ZA N1ZA 1_555 1_555
N2H N1H 1_555 1_555
N2UB N1UB 1_555 1_555
N2D N1D 1_555 1_555
N2YB C1D 1_555 1_555
N2J N1J 1_555 1_555
N2ZB N1ZB 1_555 1_555
N2BB N1BB 1_555 1_555
N2X N1X 1_555 1_555
N2YA N1YA 1_555 1_555
N2BA C1YA 1_555 1_555
N2EB N1EB 1_555 1_555
N2FA N1FA 1_555 1_555
N2CB N1CB 1_555 1_555
N2Z N1Z 1_555 1_555
N2AB N1AB 1_555 1_555
N2AA N1AA 1_555 1_555
N2GB N1GB 1_555 1_555
N2EA N1EA 1_555 1_555
N2HA N1HA 1_555 1_555
N2VA N1VA 1_555 1_555
N2GA N1GA 1_555 1_555
N2WA N1WA 1_555 1_555
N2IA N1IA 1_555 1_555
N2XA N1XA 1_555 1_555
N2BC_2 N1BC_2 1_555 1_555
N2I_2 N1I_2 1_555 1_555
N2XB_2 N1XB_2 1_555 1_555
N2C_2 C1C_2 1_555 1_555
N2TB_2 N1TB_2 1_555 1_555
N2F_2 C1F_2 1_555 1_555
N2EA_2 N1EA_2 1_555 1_555
N2GB_2 N1GB_2 1_555 1_555
N2AA_2 N1AA_2 1_555 1_555
N2AB_2 C1AB_2 1_555 1_555
N2Z_2 N1Z_2 1_555 1_555
N2CB_2 N1CB_2 1_555 1_555
N2K_2 N1K_2 1_555 1_555
N2AC_2 N1AC_2 1_555 1_555
N2G_2 N1G_2 1_555 1_555
N2VB_2 C1G_2 1_555 1_555
N2E_2 N1E_2 1_555 1_555
N2WB_2 N1WB_2 1_555 1_555
N2FB_2 N1FB_2 1_555 1_555
N2DA_2 N1DA_2 1_555 1_555
N2DB_2 N1DB_2 1_555 1_555
N2Y_2 C1DB_2 1_555 1_555
N2ZA_2 N1ZA_2 1_555 1_555
N2CA_2 N1CA_2 1_555 1_555
N2YB_2 N1YB_2 1_555 1_555
N2D_2 N1D_2 1_555 1_555
N2UB_2 N1UB_2 1_555 1_555
N2H_2 C1H_2 1_555 1_555
N2ZB_2 N1ZB_2 1_555 1_555
N2J_2 C1J_2 1_555 1_555
N2BA_2 N1BA_2 1_555 1_555
N2YA_2 N1YA_2 1_555 1_555
N2X_2 N1X_2 1_555 1_555
N2BB_2 C1BB_2 1_555 1_555
N2FA_2 N1FA_2 1_555 1_555
N2EB_2 N1EB_2 1_555 1_555
N2AB_3 N1AB_3 1_555 1_555
N2AA_3 N1AA_3 1_555 1_555
N2GB_3 N1GB_3 1_555 1_555
N2EA_3 C1GB_3 1_555 1_555
N2CB_3 N1CB_3 1_555 1_555
N2Z_3 N1Z_3 1_555 1_555
N2B_2 N1B_2 1_555 1_555
N2EC_2 N1EC_2 1_555 1_555
N2A_2 N1A_2 1_555 1_555
N2CC_2 C1A_2 1_555 1_555
N2_2 N1_2 1_555 1_555
N2DC_2 C1_2 1_555 1_555
N3A C10A 1_555 1_555
N3B C10 1_555 1_555
N3C C10F 1_555 1_555
N3I C10C 1_555 1_555
N3F C10F 1_555 1_555
N3E C10G 1_555 1_555
N3K C10E 1_555 1_555
N3G C10G 1_555 1_555
N3ZA C10DB 1_555 1_555
N3FB C10ZA 1_555 1_555
N3DB C10DB 1_555 1_555
N3H C10H 1_555 1_555
N3J C10J 1_555 1_555
N3D C10H 1_555 1_555
N3BB C10BB 1_555 1_555
N3EB C10EB 1_555 1_555
N3YA C10BB 1_555 1_555
N3CB C10CB 1_555 1_555
N3GB C10GB 1_555 1_555
N3AB C10CB 1_555 1_555
N3XA C10VA 1_555 1_555
N3WA C10XA 1_555 1_555
N3VA C10VA 1_555 1_555
N3F_2 C10I_2 1_555 1_555
N3C_2 C10F_2 1_555 1_555
N3I_2 C10I_2 1_555 1_555
N3CB_2 C10GB_2 1_555 1_555
N3AB_2 C10CB_2 1_555 1_555
N3GB_2 C10GB_2 1_555 1_555
N3K_2 C10K_2 1_555 1_555
N3E_2 C10E_2 1_555 1_555
N3G_2 C10K_2 1_555 1_555
N3FB_2 C10FB_2 1_555 1_555
N3ZA_2 C10ZA_2 1_555 1_555
N3DB_2 C10FB_2 1_555 1_555
N3J_2 C10D_2 1_555 1_555
N3H_2 C10J_2 1_555 1_555
N3D_2 C10D_2 1_555 1_555
N3EB_2 C10YA_2 1_555 1_555
N3BB_2 C10EB_2 1_555 1_555
N3YA_2 C10YA_2 1_555 1_555
N3AB_3 C10AB_3 1_555 1_555
N3CB_3 C10CB_3 1_555 1_555
N3GB_3 C10AB_3 1_555 1_555
N3B_2 C10B_2 1_555 1_555
N3_2 C10_2 1_555 1_555
N3A_2 C10B_2 1_555 1_555
C1B N2B 1_555 1_555
C1A N2A 1_555 1_555
C1F N2TB 1_555 1_555
C1I N2BC 1_555 1_555
C1C N2XB 1_555 1_555
C1G N2VB 1_555 1_555
C1K N2AC 1_555 1_555
C1E N2WB 1_555 1_555
C1DB N2Y 1_555 1_555
C1FB N2DA 1_555 1_555
C1ZA N2CA 1_555 1_555
C1H N2H 1_555 1_555
C1D N2D 1_555 1_555
C1J N2J 1_555 1_555
C1BB N2BB 1_555 1_555
C1YA N2YA 1_555 1_555
C1EB N2EB 1_555 1_555
C1CB N2CB 1_555 1_555
C1AB N2AB 1_555 1_555
C1GB N2GB 1_555 1_555
C1VA N2HA 1_555 1_555
C1WA N2GA 1_555 1_555
C1XA N2IA 1_555 1_555
C1I_2 N2BC_2 1_555 1_555
C1C_2 N2XB_2 1_555 1_555
C1F_2 N2TB_2 1_555 1_555
C1GB_2 N2EA_2 1_555 1_555
C1AB_2 N2AA_2 1_555 1_555
C1CB_2 N2Z_2 1_555 1_555
C1K_2 N2K_2 1_555 1_555
C1G_2 N2G_2 1_555 1_555
C1E_2 N2E_2 1_555 1_555
C1FB_2 N2FB_2 1_555 1_555
C1DB_2 N2DB_2 1_555 1_555
C1ZA_2 N2ZA_2 1_555 1_555
C1D_2 N2YB_2 1_555 1_555
C1H_2 N2UB_2 1_555 1_555
C1J_2 N2ZB_2 1_555 1_555
C1YA_2 N2BA_2 1_555 1_555
C1BB_2 N2X_2 1_555 1_555
C1EB_2 N2FA_2 1_555 1_555
C1AB_3 N2AB_3 1_555 1_555
C1GB_3 N2GB_3 1_555 1_555
C1CB_3 N2CB_3 1_555 1_555
C1B_2 N2B_2 1_555 1_555
C1A_2 N2A_2 1_555 1_555
C1_2 N2_2 1_555 1_555
O1G Cu1G 1_555 1_555
O1F Cu1F 1_555 1_555
O1UB Cu1UB 1_555 1_555
O1B Cu1B 1_555 1_555
O1I Cu1I 1_555 1_555
O1A Cu1A 1_555 1_555
O1C Cu1C 1_555 1_555
O1B_2 Cu1B_2 1_555 1_555
O1I_2 Cu1I_2 1_555 1_555
O1XB Cu1XB 1_555 1_555
O1AC Cu1AC 1_555 1_555
O1I_3 Cu1I_3 1_555 1_555
O1A_2 Cu1A_2 1_555 1_555
O1E Cu1E 1_555 1_555
O1AC_2 Cu1AC_2 1_555 1_555
O1I_4 Cu1I_4 1_555 1_555
O1XB_2 Cu1XB_2 1_555 1_555
O1J Cu1J 1_555 1_555
O1E_2 Cu1E_2 1_555 1_555
O1J_2 Cu1J_2 1_555 1_555
O1J_3 Cu1J_3 1_555 1_555
O1C_2 Cu1C_2 1_555 1_555
O1AC_3 Cu1AC_3 1_555 1_555
C2B C1B 1_555 1_555
C2A C1A 1_555 1_555
C2F C1F 1_555 1_555
C2I C1I 1_555 1_555
C2C C1C 1_555 1_555
C2G C1G 1_555 1_555
C2K C1K 1_555 1_555
C2E C1E 1_555 1_555
C2DB C1DB 1_555 1_555
C2FB C1FB 1_555 1_555
C2ZA C1ZA 1_555 1_555
C2H C1H 1_555 1_555
C2D C1D 1_555 1_555
C2J C1J 1_555 1_555
C2BB C1BB 1_555 1_555
C2YA C1YA 1_555 1_555
C2EB C1EB 1_555 1_555
C2CB C1CB 1_555 1_555
C2AB C1AB 1_555 1_555
C2GB C1GB 1_555 1_555
C2VA C1VA 1_555 1_555
C2WA C1WA 1_555 1_555
C2XA C1XA 1_555 1_555
C2I_2 C1I_2 1_555 1_555
C2C_2 C1C_2 1_555 1_555
C2F_2 C1F_2 1_555 1_555
C2GB_2 C1GB_2 1_555 1_555
C2AB_2 C1AB_2 1_555 1_555
C2CB_2 C1CB_2 1_555 1_555
C2K_2 C1K_2 1_555 1_555
C2G_2 C1G_2 1_555 1_555
C2E_2 C1E_2 1_555 1_555
C2FB_2 C1FB_2 1_555 1_555
C2DB_2 C1DB_2 1_555 1_555
C2ZA_2 C1ZA_2 1_555 1_555
C2D_2 C1D_2 1_555 1_555
C2H_2 C1H_2 1_555 1_555
C2J_2 C1J_2 1_555 1_555
C2YA_2 C1YA_2 1_555 1_555
C2BB_2 C1BB_2 1_555 1_555
C2EB_2 C1EB_2 1_555 1_555
C2AB_3 C1AB_3 1_555 1_555
C2GB_3 C1GB_3 1_555 1_555
C2CB_3 C1CB_3 1_555 1_555
C2B_2 C1B_2 1_555 1_555
C2A_2 C1A_2 1_555 1_555
C2_2 C1_2 1_555 1_555
C4DC C2 1_555 1_555
C4B C2B 1_555 1_555
C4EC C2B 1_555 1_555
C4A C2A 1_555 1_555
C4CC C2A 1_555 1_555
C4TB C2F 1_555 1_555
C4F C2F 1_555 1_555
C4BC C2I 1_555 1_555
C4I C2I 1_555 1_555
C4XB C2C 1_555 1_555
C4C C2C 1_555 1_555
C4VB C2G 1_555 1_555
C4G C2G 1_555 1_555
C4AC C2K 1_555 1_555
C4K C2K 1_555 1_555
C4WB C2E 1_555 1_555
C4E C2E 1_555 1_555
C4Y C2DB 1_555 1_555
C4DB C2DB 1_555 1_555
C4DA C2FB 1_555 1_555
C4FB C2FB 1_555 1_555
C4CA C2ZA 1_555 1_555
C4ZA C2ZA 1_555 1_555
C4H C2H 1_555 1_555
C4UB C2H 1_555 1_555
C4D C2D 1_555 1_555
C4YB C2D 1_555 1_555
C4J C2J 1_555 1_555
C4ZB C2J 1_555 1_555
C4BB C2BB 1_555 1_555
C4X C2BB 1_555 1_555
C4YA C2YA 1_555 1_555
C4BA C2YA 1_555 1_555
C4EB C2EB 1_555 1_555
C4FA C2EB 1_555 1_555
C4CB C2CB 1_555 1_555
C4Z C2CB 1_555 1_555
C4AB C2AB 1_555 1_555
C4AA C2AB 1_555 1_555
C4GB C2GB 1_555 1_555
C4EA C2GB 1_555 1_555
C4HA C2VA 1_555 1_555
C4VA C2VA 1_555 1_555
C4GA C2WA 1_555 1_555
C4WA C2WA 1_555 1_555
C4IA C2XA 1_555 1_555
C4XA C2XA 1_555 1_555
C4BC_2 C2I_2 1_555 1_555
C4I_2 C2I_2 1_555 1_555
C4XB_2 C2C_2 1_555 1_555
C4C_2 C2C_2 1_555 1_555
C4TB_2 C2F_2 1_555 1_555
C4F_2 C2F_2 1_555 1_555
C4EA_2 C2GB_2 1_555 1_555
C4GB_2 C2GB_2 1_555 1_555
C4AA_2 C2AB_2 1_555 1_555
C4AB_2 C2AB_2 1_555 1_555
C4Z_2 C2CB_2 1_555 1_555
C4CB_2 C2CB_2 1_555 1_555
C4K_2 C2K_2 1_555 1_555
C4AC_2 C2K_2 1_555 1_555
C4G_2 C2G_2 1_555 1_555
C4VB_2 C2G_2 1_555 1_555
C4E_2 C2E_2 1_555 1_555
C4WB_2 C2E_2 1_555 1_555
C4FB_2 C2FB_2 1_555 1_555
C4DA_2 C2FB_2 1_555 1_555
C4DB_2 C2DB_2 1_555 1_555
C4Y_2 C2DB_2 1_555 1_555
C4ZA_2 C2ZA_2 1_555 1_555
C4CA_2 C2ZA_2 1_555 1_555
C4YB_2 C2D_2 1_555 1_555
C4D_2 C2D_2 1_555 1_555
C4UB_2 C2H_2 1_555 1_555
C4H_2 C2H_2 1_555 1_555
C4ZB_2 C2J_2 1_555 1_555
C4J_2 C2J_2 1_555 1_555
C4BA_2 C2YA_2 1_555 1_555
C4YA_2 C2YA_2 1_555 1_555
C4X_2 C2BB_2 1_555 1_555
C4BB_2 C2BB_2 1_555 1_555
C4FA_2 C2EB_2 1_555 1_555
C4EB_2 C2EB_2 1_555 1_555
C4AB_3 C2AB_3 1_555 1_555
C4AA_3 C2AB_3 1_555 1_555
C4GB_3 C2GB_3 1_555 1_555
C4EA_3 C2GB_3 1_555 1_555
C4CB_3 C2CB_3 1_555 1_555
C4Z_3 C2CB_3 1_555 1_555
C4B_2 C2B_2 1_555 1_555
C4EC_2 C2B_2 1_555 1_555
C4A_2 C2A_2 1_555 1_555
C4CC_2 C2A_2 1_555 1_555
C4_2 C2_2 1_555 1_555
C4DC_2 C2_2 1_555 1_555
C6DC C8 1_555 1_555
C6B C4B 1_555 1_555
C6EC C4EC 1_555 1_555
C6A C4A 1_555 1_555
C6CC C4CC 1_555 1_555
C6TB C4TB 1_555 1_555
C6F C4F 1_555 1_555
C6BC C4BC 1_555 1_555
C6I C4I 1_555 1_555
C6XB C4XB 1_555 1_555
C6C C4C 1_555 1_555
C6VB C4VB 1_555 1_555
C6G C4G 1_555 1_555
C6AC C4AC 1_555 1_555
C6K C4K 1_555 1_555
C6WB C4WB 1_555 1_555
C6E C4E 1_555 1_555
C6Y C4Y 1_555 1_555
C6DB C4DB 1_555 1_555
C6DA C4DA 1_555 1_555
C6FB C4FB 1_555 1_555
C6CA C4CA 1_555 1_555
C6ZA C4ZA 1_555 1_555
C6H C4H 1_555 1_555
C6UB C4UB 1_555 1_555
C6D C4D 1_555 1_555
C6YB C4YB 1_555 1_555
C6J C4J 1_555 1_555
C6ZB C4ZB 1_555 1_555
C6BB C4BB 1_555 1_555
C6X C4X 1_555 1_555
C6YA C4YA 1_555 1_555
C6BA C4BA 1_555 1_555
C6EB C4EB 1_555 1_555
C6FA C4FA 1_555 1_555
C6CB C4CB 1_555 1_555
C6Z C4Z 1_555 1_555
C6AB C4AB 1_555 1_555
C6AA C4AA 1_555 1_555
C6GB C4GB 1_555 1_555
C6EA C4EA 1_555 1_555
C6HA C4HA 1_555 1_555
C6VA C4VA 1_555 1_555
C6GA C4GA 1_555 1_555
C6WA C4WA 1_555 1_555
C6IA C4IA 1_555 1_555
C6XA C4XA 1_555 1_555
C6BC_2 C4BC_2 1_555 1_555
C6I_2 C4I_2 1_555 1_555
C6XB_2 C4XB_2 1_555 1_555
C6C_2 C4C_2 1_555 1_555
C6TB_2 C4TB_2 1_555 1_555
C6F_2 C4F_2 1_555 1_555
C6EA_2 C4EA_2 1_555 1_555
C6GB_2 C4GB_2 1_555 1_555
C6AA_2 C4AA_2 1_555 1_555
C6AB_2 C4AB_2 1_555 1_555
C6Z_2 C4Z_2 1_555 1_555
C6CB_2 C4CB_2 1_555 1_555
C6K_2 C4K_2 1_555 1_555
C6AC_2 C4AC_2 1_555 1_555
C6G_2 C4G_2 1_555 1_555
C6VB_2 C4VB_2 1_555 1_555
C6E_2 C4E_2 1_555 1_555
C6WB_2 C4WB_2 1_555 1_555
C6FB_2 C4FB_2 1_555 1_555
C6DA_2 C4DA_2 1_555 1_555
C6DB_2 C4DB_2 1_555 1_555
C6Y_2 C4Y_2 1_555 1_555
C6ZA_2 C4ZA_2 1_555 1_555
C6CA_2 C4CA_2 1_555 1_555
C6YB_2 C4YB_2 1_555 1_555
C6D_2 C4D_2 1_555 1_555
C6UB_2 C4UB_2 1_555 1_555
C6H_2 C4H_2 1_555 1_555
C6ZB_2 C4ZB_2 1_555 1_555
C6J_2 C4J_2 1_555 1_555
C6BA_2 C4BA_2 1_555 1_555
C6YA_2 C4YA_2 1_555 1_555
C6X_2 C4X_2 1_555 1_555
C6BB_2 C4BB_2 1_555 1_555
C6FA_2 C4FA_2 1_555 1_555
C6EB_2 C4EB_2 1_555 1_555
C6AB_3 C4AB_3 1_555 1_555
C6AA_3 C4AA_3 1_555 1_555
C6GB_3 C4GB_3 1_555 1_555
C6EA_3 C4EA_3 1_555 1_555
C6CB_3 C4CB_3 1_555 1_555
C6Z_3 C4Z_3 1_555 1_555
C6B_2 C4B_2 1_555 1_555
C6EC_2 C4EC_2 1_555 1_555
C6A_2 C4A_2 1_555 1_555
C6CC_2 C4CC_2 1_555 1_555
C6_2 C4_2 1_555 1_555
C6DC_2 C4DC_2 1_555 1_555
C8B C6B 1_555 1_555
C8A C6A 1_555 1_555
C8F C6TB 1_555 1_555
C8I C6BC 1_555 1_555
C8C C6XB 1_555 1_555
C8G C6VB 1_555 1_555
C8K C6AC 1_555 1_555
C8E C6WB 1_555 1_555
C8DB C6Y 1_555 1_555
C8FB C6DA 1_555 1_555
C8ZA C6CA 1_555 1_555
C8H C6H 1_555 1_555
C8D C6D 1_555 1_555
C8J C6J 1_555 1_555
C8BB C6BB 1_555 1_555
C8YA C6YA 1_555 1_555
C8EB C6EB 1_555 1_555
C8CB C6CB 1_555 1_555
C8AB C6AB 1_555 1_555
C8GB C6GB 1_555 1_555
C8VA C6HA 1_555 1_555
C8WA C6GA 1_555 1_555
C8XA C6IA 1_555 1_555
C8I_2 C6BC_2 1_555 1_555
C8C_2 C6XB_2 1_555 1_555
C8F_2 C6TB_2 1_555 1_555
C8GB_2 C6EA_2 1_555 1_555
C8AB_2 C6AA_2 1_555 1_555
C8CB_2 C6Z_2 1_555 1_555
C8K_2 C6K_2 1_555 1_555
C8G_2 C6G_2 1_555 1_555
C8E_2 C6E_2 1_555 1_555
C8FB_2 C6FB_2 1_555 1_555
C8DB_2 C6DB_2 1_555 1_555
C8ZA_2 C6ZA_2 1_555 1_555
C8D_2 C6YB_2 1_555 1_555
C8H_2 C6UB_2 1_555 1_555
C8J_2 C6ZB_2 1_555 1_555
C8YA_2 C6BA_2 1_555 1_555
C8BB_2 C6X_2 1_555 1_555
C8EB_2 C6FA_2 1_555 1_555
C8AB_3 C6AB_3 1_555 1_555
C8GB_3 C6GB_3 1_555 1_555
C8CB_3 C6CB_3 1_555 1_555
C8B_2 C6B_2 1_555 1_555
C8A_2 C6A_2 1_555 1_555
C8_2 C6_2 1_555 1_555
C10A N3 1_555 1_555
C10B N3A 1_555 1_555
C10F C8F 1_555 1_555
C10C N3C 1_555 1_555
C10I N3I 1_555 1_555
C10G C8G 1_555 1_555
C10E N3E 1_555 1_555
C10K N3K 1_555 1_555
C10DB C8DB 1_555 1_555
C10ZA N3ZA 1_555 1_555
C10FB N3FB 1_555 1_555
C10H C8H 1_555 1_555
C10J N3H 1_555 1_555
C10D N3J 1_555 1_555
C10BB C8BB 1_555 1_555
C10EB N3BB 1_555 1_555
C10YA N3EB 1_555 1_555
C10CB C8CB 1_555 1_555
C10GB N3CB 1_555 1_555
C10AB N3GB 1_555 1_555
C10VA C8VA 1_555 1_555
C10XA N3XA 1_555 1_555
C10WA N3WA 1_555 1_555
C10I_2 C8I_2 1_555 1_555
C10F_2 N3F_2 1_555 1_555
C10C_2 N3C_2 1_555 1_555
C10GB_2 C8GB_2 1_555 1_555
C10CB_2 N3CB_2 1_555 1_555
C10AB_2 N3AB_2 1_555 1_555
C10K_2 C8K_2 1_555 1_555
C10E_2 N3K_2 1_555 1_555
C10G_2 N3E_2 1_555 1_555
C10FB_2 C8FB_2 1_555 1_555
C10ZA_2 N3FB_2 1_555 1_555
C10DB_2 N3ZA_2 1_555 1_555
C10D_2 C8D_2 1_555 1_555
C10J_2 N3J_2 1_555 1_555
C10H_2 N3H_2 1_555 1_555
C10YA_2 C8YA_2 1_555 1_555
C10EB_2 N3EB_2 1_555 1_555
C10BB_2 N3BB_2 1_555 1_555
C10AB_3 C8AB_3 1_555 1_555
C10CB_3 N3AB_3 1_555 1_555
C10GB_3 N3CB_3 1_555 1_555
C10B_2 C8B_2 1_555 1_555
C10_2 N3B_2 1_555 1_555
C10A_2 N3_2 1_555 1_555
N1DC N2DC 1_555 1_555
N1B N1EC 1_555 1_555
N1A N1CC 1_555 1_555
N1TB N1F 1_555 1_555
N1BC N1I 1_555 1_555
N1XB N1C 1_555 1_555
N1VB N1G 1_555 1_555
N1AC N1K 1_555 1_555
N1WB N1E 1_555 1_555
N1Y N1DB 1_555 1_555
N1DA N1FB 1_555 1_555
N1CA N1ZA 1_555 1_555
N1H N1UB 1_555 1_555
N1J N1ZB 1_555 1_555
N1BB N1X 1_555 1_555
N1EB N1FA 1_555 1_555
N1CB N1Z 1_555 1_555
N1GB N1EA 1_555 1_555
N1HA N1VA 1_555 1_555
N1IA N1XA 1_555 1_555
N1BC_2 N1I_2 1_555 1_555
N1EA_2 N1GB_2 1_555 1_555
N1K_2 N1AC_2 1_555 1_555
N1E_2 N1WB_2 1_555 1_555
N1FB_2 N1DA_2 1_555 1_555
N1YB_2 N1D_2 1_555 1_555
N1BA_2 N1YA_2 1_555 1_555
N1AB_3 N1AA_3 1_555 1_555
N1B_2 N1EC_2 1_555 1_555
N1ZB_3 N1J_3 1_555 1_555
N1WA_2 N1GA_3 1_555 1_555
N1CA_3 N1ZA_3 1_555 1_555
N1XA_2 N1IA_4 1_555 1_555
N1DA_3 N1FB_4 1_555 1_555
N1A_3 N1CC_3 1_555 1_555
N1YB_3 N1D_3 1_555 1_555
N1BA_3 N1YA_3 1_555 1_555
N1GA_2 N1WA_3 1_555 1_555
N1AC_3 N1K_4 1_555 1_555
N1XB_3 N1C_3 1_555 1_555
N1AA_4 N1AB_4 1_555 1_555
N1EB_3 N1FA_4 1_555 1_555
N1IA_2 N1XA_3 1_555 1_555
N2EC C1B 1_555 1_555
N2CC C1A 1_555 1_555
N2F C1F 1_555 1_555
N2I C1I 1_555 1_555
N2C C1C 1_555 1_555
N2G C1G 1_555 1_555
N2K C1K 1_555 1_555
N2E C1E 1_555 1_555
N2DB C1DB 1_555 1_555
N2FB C1FB 1_555 1_555
N2ZA C1ZA 1_555 1_555
N2UB C1H 1_555 1_555
N2ZB C1J 1_555 1_555
N2X C1BB 1_555 1_555
N2FA C1EB 1_555 1_555
N2Z C1CB 1_555 1_555
N2AA C1AB 1_555 1_555
N2EA C1GB 1_555 1_555
N2VA C1VA 1_555 1_555
N2WA C1WA 1_555 1_555
N2XA C1XA 1_555 1_555
N2I_2 C1I_2 1_555 1_555
N2GB_2 C1GB_2 1_555 1_555
N2CB_2 C1CB_2 1_555 1_555
N2AC_2 C1K_2 1_555 1_555
N2WB_2 C1E_2 1_555 1_555
N2DA_2 C1FB_2 1_555 1_555
N2CA_2 C1ZA_2 1_555 1_555
N2D_2 C1D_2 1_555 1_555
N2YA_2 C1YA_2 1_555 1_555
N2EB_2 C1EB_2 1_555 1_555
N2AA_3 C1AB_3 1_555 1_555
N2Z_3 C1CB_3 1_555 1_555
N2EC_2 C1B_2 1_555 1_555
N3B C10B 1_555 1_555
N3F C10I 1_555 1_555
N3G C10K 1_555 1_555
N3DB C10FB 1_555 1_555
N3D C10D 1_555 1_555
N3YA C10YA 1_555 1_555
N3AB C10AB 1_555 1_555
N3VA C10WA 1_555 1_555
N3I_2 C10C_2 1_555 1_555
N3GB_2 C10AB_2 1_555 1_555
N3G_2 C10G_2 1_555 1_555
N3DB_2 C10DB_2 1_555 1_555
N3D_2 C10H_2 1_555 1_555
N3YA_2 C10BB_2 1_555 1_555
N3GB_3 C10GB_3 1_555 1_555
N3A_2 C10A_2 1_555 1_555
C4DC C6DC 1_555 1_555
C6EC C8B 1_555 1_555
C6CC C8A 1_555 1_555
C6F C8F 1_555 1_555
C6I C8I 1_555 1_555
C6C C8C 1_555 1_555
C6G C8G 1_555 1_555
C6K C8K 1_555 1_555
C6E C8E 1_555 1_555
C6DB C8DB 1_555 1_555
C6FB C8FB 1_555 1_555
C6ZA C8ZA 1_555 1_555
C6UB C8H 1_555 1_555
C6YB C8D 1_555 1_555
C6ZB C8J 1_555 1_555
C6X C8BB 1_555 1_555
C6BA C8YA 1_555 1_555
C6FA C8EB 1_555 1_555
C6Z C8CB 1_555 1_555
C6AA C8AB 1_555 1_555
C6EA C8GB 1_555 1_555
C6VA C8VA 1_555 1_555
C6WA C8WA 1_555 1_555
C6XA C8XA 1_555 1_555
C6I_2 C8I_2 1_555 1_555
C6C_2 C8C_2 1_555 1_555
C6F_2 C8F_2 1_555 1_555
C6GB_2 C8GB_2 1_555 1_555
C6AB_2 C8AB_2 1_555 1_555
C6CB_2 C8CB_2 1_555 1_555
C6AC_2 C8K_2 1_555 1_555
C6VB_2 C8G_2 1_555 1_555
C6WB_2 C8E_2 1_555 1_555
C6DA_2 C8FB_2 1_555 1_555
C6Y_2 C8DB_2 1_555 1_555
C6CA_2 C8ZA_2 1_555 1_555
C6D_2 C8D_2 1_555 1_555
C6H_2 C8H_2 1_555 1_555
C6J_2 C8J_2 1_555 1_555
C6YA_2 C8YA_2 1_555 1_555
C6BB_2 C8BB_2 1_555 1_555
C6EB_2 C8EB_2 1_555 1_555
C6AA_3 C8AB_3 1_555 1_555
C6EA_3 C8GB_3 1_555 1_555
C6Z_3 C8CB_3 1_555 1_555
C6EC_2 C8B_2 1_555 1_555
C6CC_2 C8A_2 1_555 1_555
C6DC_2 C8_2 1_555 1_555
C8B C10B 1_555 1_555
C8A C10A 1_555 1_555
C8I C10I 1_555 1_555
C8C C10C 1_555 1_555
C8K C10K 1_555 1_555
C8E C10E 1_555 1_555
C8FB C10FB 1_555 1_555
C8ZA C10ZA 1_555 1_555
C8D C10D 1_555 1_555
C8J C10J 1_555 1_555
C8YA C10YA 1_555 1_555
C8EB C10EB 1_555 1_555
C8AB C10AB 1_555 1_555
C8GB C10GB 1_555 1_555
C8WA C10WA 1_555 1_555
C8XA C10XA 1_555 1_555
C8C_2 C10C_2 1_555 1_555
C8F_2 C10F_2 1_555 1_555
C8AB_2 C10AB_2 1_555 1_555
C8CB_2 C10CB_2 1_555 1_555
C8G_2 C10G_2 1_555 1_555
C8E_2 C10E_2 1_555 1_555
C8DB_2 C10DB_2 1_555 1_555
C8ZA_2 C10ZA_2 1_555 1_555
C8H_2 C10H_2 1_555 1_555
C8J_2 C10J_2 1_555 1_555
C8BB_2 C10BB_2 1_555 1_555
C8EB_2 C10EB_2 1_555 1_555
C8GB_3 C10GB_3 1_555 1_555
C8CB_3 C10CB_3 1_555 1_555
C8A_2 C10A_2 1_555 1_555
C8_2 C10_2 1_555 1_555

#END
