
#######################################################################
#
#                 Cambridge Crystallographic Data Centre
#                                CCDC 
#
#######################################################################
#
# If this CIF has been generated from an entry in the Cambridge 
# Structural Database, then it will include bibliographic, chemical, 
# crystal, experimental, refinement or atomic coordinate data resulting 
# from the CCDC's data processing and validation procedures.
#
#######################################################################

data_GAKTET
_chemical_formula_moiety         '(C44 H46 Cu2 N10 O15)n'
_symmetry_cell_setting           orthorhombic
_symmetry_space_group_name_H-M   'P c 21 n'
_symmetry_Int_Tables_number      33
_space_group_name_Hall           'P -2n -2ac'
loop_
_symmetry_equiv_pos_site_id
_symmetry_equiv_pos_as_xyz
1 x,y,z
2 1/2+x,1/2+y,1/2-z
3 1/2-x,y,1/2+z
4 -x,1/2+y,-z
_cell_length_a                   15.814(2)
_cell_length_b                   15.9037(10)
_cell_length_c                   18.4974(16)
_cell_angle_alpha                90
_cell_angle_beta                 90
_cell_angle_gamma                90
_cell_volume                     4652.12
loop_
_atom_site_label
_atom_site_type_symbol
_atom_site_fract_x
_atom_site_fract_y
_atom_site_fract_z
C1 C 0.7115(3) 0.1165(3) 0.1718(3)
C2 C 0.7098(3) 0.1182(3) 0.3114(3)
C3 C 0.7461(8) 0.1604(8) 0.2427(6)
H1 H 0.7338 0.2208 0.2423
C4 C 0.8463(10) 0.1439(11) 0.2412(8)
H2 H 0.8690 0.1626 0.1958
H3 H 0.8571 0.0848 0.2469
H4 H 0.8727 0.1743 0.2799
C5 C 0.3994(4) 0.0363(5) 0.1672(4)
H5 H 0.3913 0.0122 0.2124
C6 C 0.3494(4) 0.0100(5) 0.1106(4)
H6 H 0.3094 -0.0322 0.1176
C7 C 0.3593(4) 0.0471(4) 0.0428(3)
C8 C 0.4191(3) 0.1091(4) 0.0360(3)
H7 H 0.4265 0.1367 -0.0079
C9 C 0.4685(4) 0.1303(4) 0.0957(3)
H8 H 0.5099 0.1712 0.0898
C10 C 0.3076(4) 0.0172(4) -0.0204(4)
C11 C 0.2363(5) -0.0333(5) -0.0124(4)
H9 H 0.2185 -0.0484 0.0338
C12 C 0.1932(5) -0.0604(5) -0.0695(5)
H10 H 0.1455 -0.0932 -0.0611
C13 C 0.2799(5) 0.0039(5) -0.1457(4)
H11 H 0.2952 0.0181 -0.1927
C14 C 0.3286(5) 0.0345(5) -0.0904(4)
H12 H 0.3759 0.0671 -0.1005
C15 C 0.4699(3) 0.0939(4) 0.3807(3)
H13 H 0.5135 0.0552 0.3862
C16 C 0.4199(3) 0.1123(4) 0.4412(3)
H14 H 0.4298 0.0854 0.4850
C17 C 0.3552(4) 0.1710(4) 0.4351(3)
C18 C 0.3428(4) 0.2054(5) 0.3663(4)
H15 H 0.2995 0.2439 0.3585
C19 C 0.3955(4) 0.1819(5) 0.3099(4)
H16 H 0.3856 0.2053 0.2646
C20 C 0.3068(4) 0.1986(4) 0.4983(3)
C21 C 0.3212(4) 0.1665(4) 0.5655(4)
H17 H 0.3609 0.1241 0.5720
C22 C 0.2761(5) 0.1975(5) 0.6244(4)
H18 H 0.2862 0.1735 0.6694
C23 C 0.2061(5) 0.2892(5) 0.5537(4)
H19 H 0.1672 0.3327 0.5486
C24 C 0.2450(4) 0.2608(5) 0.4932(4)
H20 H 0.2305 0.2827 0.4483
C25 C 0.8706(4) -0.0227(4) 0.5490(3)
H21 H 0.8381 -0.0114 0.5897
C26 C 0.9363(4) -0.0803(4) 0.5556(3)
H22 H 0.9484 -0.1049 0.6001
C27 C 0.9844(4) -0.1010(3) 0.4940(3)
C28 C 0.9649(4) -0.0590(3) 0.4311(4)
H23 H 0.9962 -0.0690 0.3894
C29 C 0.8986(4) -0.0019(4) 0.4297(4)
H24 H 0.8859 0.0246 0.3862
C30 C 1.0501(4) -0.1683(3) 0.4991(3)
C31 C 1.1123(4) -0.1784(3) 0.4476(3)
H25 H 1.1152 -0.1412 0.4088
C32 C 1.1093(4) -0.2887(4) 0.5583(3)
H26 H 1.1075 -0.3269 0.5964
C33 C 1.1703(3) -0.2430(3) 0.4528(3)
H27 H 1.2116 -0.2485 0.4173
C34 C 1.0507(4) -0.2249(4) 0.5567(3)
H28 H 1.0116 -0.2195 0.5939
C35 C 0.6359(4) -0.0302(4) 0.5569(3)
H29 H 0.6531 -0.0050 0.5999
C36 C 0.5768(4) -0.0942(4) 0.5598(3)
H30 H 0.5559 -0.1119 0.6042
C37 C 0.5485(4) -0.1322(4) 0.4967(3)
C38 C 0.5857(4) -0.1060(4) 0.4327(3)
H31 H 0.5708 -0.1312 0.3892
C39 C 0.6453(4) -0.0421(3) 0.4340(3)
H32 H 0.6696 -0.0262 0.3903
C40 C 0.4805(4) -0.1971(4) 0.4985(3)
C41 C 0.4228(4) -0.1992(4) 0.5546(3)
H33 H 0.4270 -0.1602 0.5919
C42 C 0.3591(4) -0.2583(4) 0.5559(4)
H34 H 0.3204 -0.2574 0.5937
C43 C 0.4074(3) -0.3163(3) 0.4506(3)
H35 H 0.4034 -0.3572 0.4148
C44 C 0.4717(3) -0.2569(3) 0.4457(3)
H36 H 0.5086 -0.2577 0.4065
Cu1 Cu 0.54696(4) 0.11334(5) 0.23956(3)
Cu2 Cu 0.75001(4) 0.09919(4) 0.49020(3)
N1 N 0.4599(3) 0.0959(4) 0.1596(2)
N2 N 0.2134(4) -0.0439(4) -0.1373(4)
N3 N 0.4588(3) 0.1281(3) 0.3165(2)
N4 N 0.2196(4) 0.2592(4) 0.6205(4)
N5 N 0.8518(3) 0.0168(3) 0.4883(3)
N6 N 0.3512(3) -0.3172(3) 0.5043(3)
N7 N 0.6700(3) -0.0024(3) 0.4929(3)
N8 N 1.1685(3) -0.2982(3) 0.5079(3)
N9 N 0.5490(8) 0.3319(7) 0.2425(5)
O1 O 0.7582(2) 0.1052(3) 0.11935(16)
O2 O 0.6319(2) 0.1129(3) 0.16630(17)
O3 O 0.7562(2) 0.1055(3) 0.36448(16)
O4 O 0.6307(2) 0.1173(3) 0.31602(18)
O5 O 0.5225(6) 0.2765(5) 0.2077(4)
O6 O 0.6257(9) 0.3444(12) 0.2604(9)
O7 O 0.5017(9) 0.3862(9) 0.2690(6)
O11 O 0.5556(4) -0.0360(4) 0.2565(3)
Cu2B Cu 0.74999(4) 0.09919(4) -0.00980(3)
Cu2C Cu 0.24999(4) -0.40081(4) 0.50980(3)
Cu2C_2 Cu 1.24999(4) -0.40081(4) 0.50980(3)
N6C N 0.6488(3) 0.1828(3) 0.4957(3)
N8C N 0.8315(3) 0.2018(3) 0.4921(3)
O1B O 0.7418(2) 0.1052(3) 0.61935(16)
N10 N 0.4294(10) 0.2047(11) 0.7819(10)
O8 O 0.4543(10) 0.2314(17) 0.7292(8)
O9 O 0.4669(10) 0.1455(9) 0.8077(8)
O10 O 0.3802(8) 0.2354(9) 0.8330(7)
O12 O 0.6951(5) -0.1171(6) 0.1951(4)
O13 O 0.1636(5) 0.3766(5) 0.7265(4)
O14 O 0.4154(7) 0.8691(6) 0.2814(6)
O15 O 0.440(2) 0.0346(16) 0.6581(8)
loop_
_geom_bond_atom_site_label_1
_geom_bond_atom_site_label_2
_geom_bond_site_symmetry_1
_geom_bond_site_symmetry_2
C1 C3 1_555 1_555
C2 C3 1_555 1_555
C3 H1 1_555 1_555
C4 C3 1_555 1_555
H2 C4 1_555 1_555
H3 C4 1_555 1_555
H4 C4 1_555 1_555
C5 H5 1_555 1_555
C6 C5 1_555 1_555
H6 C6 1_555 1_555
C7 C6 1_555 1_555
C8 C7 1_555 1_555
H7 C8 1_555 1_555
C9 C8 1_555 1_555
H8 C9 1_555 1_555
C10 C7 1_555 1_555
C11 C10 1_555 1_555
H9 C11 1_555 1_555
C12 C11 1_555 1_555
H10 C12 1_555 1_555
C13 H11 1_555 1_555
C14 C10 1_555 1_555
H12 C14 1_555 1_555
C15 H13 1_555 1_555
C16 C15 1_555 1_555
H14 C16 1_555 1_555
C17 C16 1_555 1_555
C18 C17 1_555 1_555
H15 C18 1_555 1_555
C19 C18 1_555 1_555
H16 C19 1_555 1_555
C20 C17 1_555 1_555
C21 C20 1_555 1_555
H17 C21 1_555 1_555
C22 C21 1_555 1_555
H18 C22 1_555 1_555
C23 H19 1_555 1_555
C24 C20 1_555 1_555
H20 C24 1_555 1_555
C25 H21 1_555 1_555
C26 C25 1_555 1_555
H22 C26 1_555 1_555
C27 C26 1_555 1_555
C28 C27 1_555 1_555
H23 C28 1_555 1_555
C29 C28 1_555 1_555
H24 C29 1_555 1_555
C30 C27 1_555 1_555
C31 C30 1_555 1_555
H25 C31 1_555 1_555
C32 H26 1_555 1_555
C33 C31 1_555 1_555
H27 C33 1_555 1_555
C34 C30 1_555 1_555
H28 C34 1_555 1_555
C35 H29 1_555 1_555
C36 C35 1_555 1_555
H30 C36 1_555 1_555
C37 C36 1_555 1_555
C38 C37 1_555 1_555
H31 C38 1_555 1_555
C39 C38 1_555 1_555
H32 C39 1_555 1_555
C40 C37 1_555 1_555
C41 C40 1_555 1_555
H33 C41 1_555 1_555
C42 C41 1_555 1_555
H34 C42 1_555 1_555
C43 H35 1_555 1_555
C44 C40 1_555 1_555
H36 C44 1_555 1_555
Cu1 N1 1_555 1_555
Cu2 N5 1_555 1_555
N1 C5 1_555 1_555
N2 C12 1_555 1_555
N3 C15 1_555 1_555
N4 C22 1_555 1_555
N5 C25 1_555 1_555
N6 C42 1_555 1_555
N7 C35 1_555 1_555
N8 C32 1_555 1_555
N9 O5 1_555 1_555
N10 O8 1_555 1_555
O1 C1 1_555 1_555
O2 C1 1_555 1_555
O3 C2 1_555 1_555
O4 C2 1_555 1_555
O5 Cu1 1_555 1_555
O6 N9 1_555 1_555
O7 N9 1_555 1_555
O9 N10 1_555 1_555
O10 N10 1_555 1_555
O11 Cu1 1_555 1_555
Cu2B O1 1_555 1_555
Cu2C N6 1_555 1_555
Cu2C_2 N8 1_555 1_555
N6C Cu2 1_555 1_555
N8C Cu2 1_555 1_555
O1B Cu2 1_555 1_555
C9 N1 1_555 1_555
C13 C14 1_555 1_555
C13 N2 1_555 1_555
C19 N3 1_555 1_555
C23 C24 1_555 1_555
C23 N4 1_555 1_555
C29 N5 1_555 1_555
C32 C34 1_555 1_555
C33 N8 1_555 1_555
C39 N7 1_555 1_555
C43 C44 1_555 1_555
C43 N6 1_555 1_555
Cu1 N3 1_555 1_555
Cu1 O2 1_555 1_555
Cu1 O4 1_555 1_555
Cu2 N7 1_555 1_555
Cu2 O3 1_555 1_555

#END
