
#######################################################################
#
#                 Cambridge Crystallographic Data Centre
#                                CCDC 
#
#######################################################################
#
# If this CIF has been generated from an entry in the Cambridge 
# Structural Database, then it will include bibliographic, chemical, 
# crystal, experimental, refinement or atomic coordinate data resulting 
# from the CCDC's data processing and validation procedures.
#
#######################################################################

data_GAHSEQ
_chemical_formula_moiety         '(C72 H70 O23 Pr2)n'
_symmetry_cell_setting           monoclinic
_symmetry_space_group_name_H-M   'P 2/c'
_symmetry_Int_Tables_number      13
_space_group_name_Hall           '-P 2yc'
loop_
_symmetry_equiv_pos_site_id
_symmetry_equiv_pos_as_xyz
1 x,y,z
2 -x,y,1/2-z
3 -x,-y,-z
4 x,-y,1/2+z
_cell_length_a                   43.7247(5)
_cell_length_b                   12.93615(17)
_cell_length_c                   8.49651(12)
_cell_angle_alpha                90
_cell_angle_beta                 94.3334(12)
_cell_angle_gamma                90
_cell_volume                     4792.14
loop_
_atom_site_label
_atom_site_type_symbol
_atom_site_fract_x
_atom_site_fract_y
_atom_site_fract_z
O13 O 0.07765(18) 0.8255(7) -0.0003(8)
H35 H 0.0845 0.7645 0.0142
H36 H 0.0837 0.8495 -0.0856
Pr1 Pr 0.0000 1.00530(3) 0.7500
Pr2 Pr 0.5000 0.53222(7) -0.2500
O1 O 0.44640(10) 0.5885(5) -0.2053(6)
O2 O 0.02794(8) 0.9566(4) 0.5024(4)
O3 O 0.05478(9) 0.9439(4) 0.7288(5)
O4 O 0.46954(11) 0.5201(5) 0.0054(7)
O5 O 0.25330(8) 1.1198(3) 0.3568(5)
O6 O 0.24718(8) 0.3440(3) 0.2155(5)
O7 O 0.19737(9) 0.3884(3) 0.3414(5)
O8 O 0.02780(11) 1.1630(4) 0.6723(6)
H1 H 0.0150 1.2092 0.6288
H2 H 0.0412 1.1474 0.6034
O9 O 0.30461(9) 1.0751(3) 0.2446(6)
C1 C 0.22501(12) 1.1474(5) 0.4214(7)
H3 H 0.2077 1.1269 0.3478
H4 H 0.2244 1.2223 0.4381
H5 H 0.2235 1.1118 0.5224
C2 C 0.16967(14) 0.4093(5) 0.4159(9)
H6 H 0.1562 0.4529 0.3466
H7 H 0.1747 0.4452 0.5161
H8 H 0.1593 0.3440 0.4359
C3 C 0.27425(12) 0.3167(4) 0.1416(7)
H9 H 0.2735 0.3470 0.0357
H10 H 0.2756 0.2413 0.1336
H11 H 0.2923 0.3430 0.2047
C4 C 0.13490(11) 0.8495(4) 0.5052(6)
C5 C 0.05364(11) 0.9363(5) 0.5823(6)
C6 C 0.31476(11) 0.7209(4) 0.0035(7)
H12 H 0.3004 0.7639 -0.0551
C7 C 0.18609(12) 0.7798(5) 0.5487(7)
H13 H 0.2019 0.7531 0.6203
C8 C 0.10659(12) 0.8810(5) 0.5723(7)
H14 H 0.1075 0.8862 0.6841
C9 C 0.15881(12) 0.8113(5) 0.6046(7)
H15 H 0.1563 0.8066 0.7145
C10 C 0.34262(12) 0.6977(5) -0.0573(7)
H16 H 0.3470 0.7252 -0.1569
C11 C 0.39346(13) 0.6159(5) -0.0450(8)
H17 H 0.3950 0.6409 -0.1492
C12 C 0.33146(15) 1.0562(6) 0.1657(10)
H18 H 0.3258 1.0244 0.0628
H19 H 0.3450 1.0094 0.2292
H20 H 0.3421 1.1216 0.1503
C13 C 0.07991(12) 0.9032(5) 0.4976(7)
H21 H 0.0776 0.8975 0.3858
C14 C 0.23657(11) 0.9412(4) 0.3491(6)
H22 H 0.2175 0.9587 0.3888
C15 C 0.41758(13) 0.5682(6) 0.0203(8)
H23 H 0.4172 0.5397 0.1231
C16 C 0.19078(11) 0.7863(4) 0.3922(7)
C17 C 0.28599(13) 0.9918(4) 0.2639(7)
C18 C 0.25639(10) 0.6289(4) 0.2364(6)
C19 C 0.26242(11) 0.5230(4) 0.2028(6)
H24 H 0.2806 0.5053 0.1545
C20 C 0.30759(10) 0.6819(4) 0.1488(6)
C21 C 0.36414(11) 0.6354(4) 0.0245(7)
C22 C 0.29276(11) 0.8925(4) 0.2329(6)
H25 H 0.3124 0.8764 0.1981
C23 C 0.13897(13) 0.8521(6) 0.3449(7)
H26 H 0.1227 0.8747 0.2724
C24 C 0.32938(12) 0.6171(5) 0.2299(7)
H27 H 0.3250 0.5883 0.3286
C25 C 0.44591(13) 0.5588(6) -0.0684(9)
C26 C 0.27134(11) 0.8111(4) 0.2509(6)
C27 C 0.21449(12) 0.4721(4) 0.3098(7)
C28 C 0.24259(11) 0.8359(4) 0.3143(6)
C29 C 0.25711(12) 1.0177(4) 0.3277(7)
C30 C 0.35687(12) 0.5946(5) 0.1691(7)
H28 H 0.3711 0.5507 0.2263
C31 C 0.20714(11) 0.5719(4) 0.3321(6)
H29 H 0.1878 0.5880 0.3702
C32 C 0.22096(10) 0.7581(4) 0.3322(6)
C33 C 0.22760(11) 0.6546(4) 0.2998(6)
C34 C 0.24264(11) 0.4470(4) 0.2384(6)
C35 C 0.16654(13) 0.8218(6) 0.2905(7)
H30 H 0.1691 0.8253 0.1806
C36 C 0.27804(11) 0.7079(4) 0.2142(6)
O10 O 0.0000 0.8167(7) 0.7500
H31 H -0.0019 0.7774 0.8331
O11 O 0.5063(2) 0.6970(7) -0.0992(15)
H32 H 0.5048 0.7509 -0.1634
H33 H 0.5244 0.6996 -0.0461
O12 O 0.5000 0.3683(18) -0.2500
H34 H 0.4892 0.3146 -0.1686
H31A H 0.0019 0.7774 0.6669
H34A H 0.5108 0.3146 -0.3314
O1A O -0.44640(10) 0.5885(5) 1.7053(6)
O2A O -0.02794(8) 0.9566(4) 0.9976(4)
O3A O -0.05478(9) 0.9439(4) 0.7712(5)
O4A O -0.46954(11) 0.5201(5) 1.4946(7)
O5A O -0.25330(8) 1.1198(3) 1.1432(5)
O6A O -0.24718(8) 0.3440(3) 1.2845(5)
O7A O -0.19737(9) 0.3884(3) 1.1586(5)
O8A O -0.02780(11) 1.1630(4) 0.8277(6)
H1A H -0.0150 1.2092 0.8712
H2A H -0.0412 1.1474 0.8966
O9A O -0.30461(9) 1.0751(3) 1.2554(6)
C1A C -0.22501(12) 1.1474(5) 1.0786(7)
H3A H -0.2077 1.1269 1.1522
H4A H -0.2244 1.2223 1.0619
H5A H -0.2235 1.1118 0.9776
C2A C -0.16967(14) 0.4093(5) 1.0841(9)
H6A H -0.1562 0.4529 1.1534
H7A H -0.1747 0.4452 0.9839
H8A H -0.1593 0.3440 1.0641
C3A C -0.27425(12) 0.3167(4) 1.3584(7)
H9A H -0.2735 0.3470 1.4643
H10A H -0.2756 0.2413 1.3664
H11A H -0.2923 0.3430 1.2953
C4A C -0.13490(11) 0.8495(4) 0.9948(6)
C5A C -0.05364(11) 0.9363(5) 0.9177(6)
C6A C -0.31476(11) 0.7209(4) 1.4965(7)
H12A H -0.3004 0.7639 1.5551
C7A C -0.18609(12) 0.7798(5) 0.9513(7)
H13A H -0.2019 0.7531 0.8797
C8A C -0.10659(12) 0.8810(5) 0.9277(7)
H14A H -0.1075 0.8862 0.8159
C9A C -0.15881(12) 0.8113(5) 0.8954(7)
H15A H -0.1563 0.8066 0.7855
C10A C -0.34262(12) 0.6977(5) 1.5573(7)
H16A H -0.3470 0.7252 1.6569
C11A C -0.39346(13) 0.6159(5) 1.5450(8)
H17A H -0.3950 0.6409 1.6492
C12A C -0.33146(15) 1.0562(6) 1.3343(10)
H18A H -0.3258 1.0244 1.4372
H19A H -0.3450 1.0094 1.2708
H20A H -0.3421 1.1216 1.3497
C13A C -0.07991(12) 0.9032(5) 1.0024(7)
H21A H -0.0776 0.8975 1.1142
C14A C -0.23657(11) 0.9412(4) 1.1509(6)
H22A H -0.2175 0.9587 1.1112
C15A C -0.41758(13) 0.5682(6) 1.4797(8)
H23A H -0.4172 0.5397 1.3769
C16A C -0.19078(11) 0.7863(4) 1.1078(7)
C17A C -0.28599(13) 0.9918(4) 1.2361(7)
C18A C -0.25639(10) 0.6289(4) 1.2636(6)
C19A C -0.26242(11) 0.5230(4) 1.2972(6)
H24A H -0.2806 0.5053 1.3455
C20A C -0.30759(10) 0.6819(4) 1.3512(6)
C21A C -0.36414(11) 0.6354(4) 1.4755(7)
C22A C -0.29276(11) 0.8925(4) 1.2671(6)
H25A H -0.3124 0.8764 1.3019
C23A C -0.13897(13) 0.8521(6) 1.1551(7)
H26A H -0.1227 0.8747 1.2276
C24A C -0.32938(12) 0.6171(5) 1.2701(7)
H27A H -0.3250 0.5883 1.1714
C25A C -0.44591(13) 0.5588(6) 1.5684(9)
C26A C -0.27134(11) 0.8111(4) 1.2491(6)
C27A C -0.21449(12) 0.4721(4) 1.1902(7)
C28A C -0.24259(11) 0.8359(4) 1.1857(6)
C29A C -0.25711(12) 1.0177(4) 1.1723(7)
C30A C -0.35687(12) 0.5946(5) 1.3309(7)
H28A H -0.3711 0.5507 1.2737
C31A C -0.20714(11) 0.5719(4) 1.1679(6)
H29A H -0.1878 0.5880 1.1298
C32A C -0.22096(10) 0.7581(4) 1.1678(6)
C33A C -0.22760(11) 0.6546(4) 1.2002(6)
C34A C -0.24264(11) 0.4470(4) 1.2616(6)
C35A C -0.16654(13) 0.8218(6) 1.2095(7)
H30A H -0.1691 0.8253 1.3194
C36A C -0.27804(11) 0.7079(4) 1.2858(6)
O11A O 0.4937(2) 0.6970(7) -0.4008(15)
H32A H 0.4952 0.7509 -0.3366
H33A H 0.4756 0.6996 -0.4539
Pr1B Pr -0.0000 0.99470(3) 0.2500
Pr1B_2 Pr 0.0000 0.99470(3) 1.2500
Pr2_2 Pr -0.5000 0.53222(7) 1.7500
Pr2B Pr -0.5000 0.46778(7) 1.2500
Pr2B_2 Pr 0.5000 0.46778(7) 0.2500
O1A_2 O 0.55360(10) 0.5885(5) -0.2947(6)
O2B O -0.02794(8) 1.0434(4) 0.4976(4)
O2C O 0.02794(8) 1.0434(4) 1.0024(4)
O4A_2 O 0.53046(11) 0.5201(5) -0.5054(7)
O4B O 0.53046(11) 0.4799(5) -0.0054(7)
O4C O 0.46954(11) 0.4799(5) -0.4946(7)
loop_
_geom_bond_atom_site_label_1
_geom_bond_atom_site_label_2
_geom_bond_site_symmetry_1
_geom_bond_site_symmetry_2
Pr1 O2 1_555 1_555
Pr2 O1 1_555 1_555
O1 C25 1_555 1_555
O2 C5 1_555 1_555
O3 Pr1 1_555 1_555
O4 Pr2 1_555 1_555
O5 C1 1_555 1_555
O6 C3 1_555 1_555
O7 C2 1_555 1_555
O8 Pr1 1_555 1_555
H1 O8 1_555 1_555
H2 O8 1_555 1_555
O9 C12 1_555 1_555
C1 H3 1_555 1_555
H4 C1 1_555 1_555
H5 C1 1_555 1_555
C2 H6 1_555 1_555
H7 C2 1_555 1_555
H8 C2 1_555 1_555
C3 H9 1_555 1_555
H10 C3 1_555 1_555
H11 C3 1_555 1_555
C4 C8 1_555 1_555
C5 O3 1_555 1_555
C6 H12 1_555 1_555
C7 H13 1_555 1_555
C8 H14 1_555 1_555
C9 C4 1_555 1_555
H15 C9 1_555 1_555
C10 C6 1_555 1_555
H16 C10 1_555 1_555
C11 H17 1_555 1_555
C12 H18 1_555 1_555
H19 C12 1_555 1_555
H20 C12 1_555 1_555
C13 C5 1_555 1_555
H21 C13 1_555 1_555
C14 H22 1_555 1_555
C15 C11 1_555 1_555
H23 C15 1_555 1_555
C16 C7 1_555 1_555
C17 O9 1_555 1_555
C18 C19 1_555 1_555
C19 H24 1_555 1_555
C20 C6 1_555 1_555
C21 C10 1_555 1_555
C22 C17 1_555 1_555
H25 C22 1_555 1_555
C23 C4 1_555 1_555
H26 C23 1_555 1_555
C24 C20 1_555 1_555
H27 C24 1_555 1_555
C25 O4 1_555 1_555
C26 C22 1_555 1_555
C27 O7 1_555 1_555
C28 C14 1_555 1_555
C29 O5 1_555 1_555
C30 C21 1_555 1_555
H28 C30 1_555 1_555
C31 C27 1_555 1_555
H29 C31 1_555 1_555
C32 C16 1_555 1_555
C33 C18 1_555 1_555
C34 O6 1_555 1_555
C35 C16 1_555 1_555
H30 C35 1_555 1_555
C36 C18 1_555 1_555
O10 Pr1 1_555 1_555
H31 O10 1_555 1_555
O11 Pr2 1_555 1_555
H32 O11 1_555 1_555
H33 O11 1_555 1_555
O12 Pr2 1_555 1_555
H34 O12 1_555 1_555
O13 H35 1_555 1_555
H36 O13 1_555 1_555
H31A O10 1_555 1_555
H34A O12 1_555 1_555
O1A C25A 1_555 1_555
O2A Pr1 1_555 1_555
O3A Pr1 1_555 1_555
O4A C25A 1_555 1_555
O5A C1A 1_555 1_555
O6A C3A 1_555 1_555
O7A C2A 1_555 1_555
O8A Pr1 1_555 1_555
H1A O8A 1_555 1_555
H2A O8A 1_555 1_555
O9A C12A 1_555 1_555
C1A H3A 1_555 1_555
H4A C1A 1_555 1_555
H5A C1A 1_555 1_555
C2A H6A 1_555 1_555
H7A C2A 1_555 1_555
H8A C2A 1_555 1_555
C3A H9A 1_555 1_555
H10A C3A 1_555 1_555
H11A C3A 1_555 1_555
C4A C8A 1_555 1_555
C5A O2A 1_555 1_555
C6A H12A 1_555 1_555
C7A H13A 1_555 1_555
C8A H14A 1_555 1_555
C9A C4A 1_555 1_555
H15A C9A 1_555 1_555
C10A C6A 1_555 1_555
H16A C10A 1_555 1_555
C11A H17A 1_555 1_555
C12A H18A 1_555 1_555
H19A C12A 1_555 1_555
H20A C12A 1_555 1_555
C13A C5A 1_555 1_555
H21A C13A 1_555 1_555
C14A H22A 1_555 1_555
C15A C11A 1_555 1_555
H23A C15A 1_555 1_555
C16A C7A 1_555 1_555
C17A O9A 1_555 1_555
C18A C19A 1_555 1_555
C19A H24A 1_555 1_555
C20A C6A 1_555 1_555
C21A C10A 1_555 1_555
C22A C17A 1_555 1_555
H25A C22A 1_555 1_555
C23A C4A 1_555 1_555
H26A C23A 1_555 1_555
C24A C20A 1_555 1_555
H27A C24A 1_555 1_555
C25A C15A 1_555 1_555
C26A C22A 1_555 1_555
C27A O7A 1_555 1_555
C28A C14A 1_555 1_555
C29A O5A 1_555 1_555
C30A C21A 1_555 1_555
H28A C30A 1_555 1_555
C31A C27A 1_555 1_555
H29A C31A 1_555 1_555
C32A C16A 1_555 1_555
C33A C18A 1_555 1_555
C34A O6A 1_555 1_555
C35A C16A 1_555 1_555
H30A C35A 1_555 1_555
C36A C18A 1_555 1_555
O11A Pr2 1_555 1_555
H32A O11A 1_555 1_555
H33A O11A 1_555 1_555
Pr1B O2 1_555 1_555
Pr1B_2 O2A 1_555 1_555
Pr2_2 O1A 1_555 1_555
Pr2B O4A 1_555 1_555
Pr2B_2 O4 1_555 1_555
O1A_2 Pr2 1_555 1_555
O2B Pr1 1_555 1_555
O2C Pr1 1_555 1_555
O4A_2 Pr2 1_555 1_555
O4B Pr2 1_555 1_555
O4C Pr2 1_555 1_555
C7 C9 1_555 1_555
C8 C13 1_555 1_555
C11 C21 1_555 1_555
C14 C29 1_555 1_555
C15 C25 1_555 1_555
C17 C29 1_555 1_555
C19 C34 1_555 1_555
C20 C36 1_555 1_555
C23 C35 1_555 1_555
C24 C30 1_555 1_555
C26 C28 1_555 1_555
C26 C36 1_555 1_555
C27 C34 1_555 1_555
C28 C32 1_555 1_555
C31 C33 1_555 1_555
C32 C33 1_555 1_555
O3A C5A 1_555 1_555
O4A Pr2_2 1_555 1_555
C7A C9A 1_555 1_555
C8A C13A 1_555 1_555
C11A C21A 1_555 1_555
C14A C29A 1_555 1_555
C17A C29A 1_555 1_555
C19A C34A 1_555 1_555
C20A C36A 1_555 1_555
C23A C35A 1_555 1_555
C24A C30A 1_555 1_555
C26A C28A 1_555 1_555
C26A C36A 1_555 1_555
C27A C34A 1_555 1_555
C28A C32A 1_555 1_555
C31A C33A 1_555 1_555
C32A C33A 1_555 1_555
Pr1B O2B 1_555 1_555
Pr1B_2 O2C 1_555 1_555
Pr2B_2 O4B 1_555 1_555

#END
