
#######################################################################
#
#                 Cambridge Crystallographic Data Centre
#                                CCDC 
#
#######################################################################
#
# If this CIF has been generated from an entry in the Cambridge 
# Structural Database, then it will include bibliographic, chemical, 
# crystal, experimental, refinement or atomic coordinate data resulting 
# from the CCDC's data processing and validation procedures.
#
#######################################################################

data_SAKRAZ
_chemical_formula_moiety         '(C22 H25 N1 O9 Zn2)n'
_symmetry_cell_setting           orthorhombic
_symmetry_space_group_name_H-M   'P 21 21 21'
_symmetry_Int_Tables_number      19
_space_group_name_Hall           'P 2ac 2ab'
loop_
_symmetry_equiv_pos_site_id
_symmetry_equiv_pos_as_xyz
1 x,y,z
2 1/2-x,-y,1/2+z
3 -x,1/2+y,1/2-z
4 1/2+x,1/2-y,-z
_cell_length_a                   10.334(2)
_cell_length_b                   11.672(2)
_cell_length_c                   20.341(4)
_cell_angle_alpha                90
_cell_angle_beta                 90
_cell_angle_gamma                90
_cell_volume                     2453.5
loop_
_atom_site_label
_atom_site_type_symbol
_atom_site_fract_x
_atom_site_fract_y
_atom_site_fract_z
_atom_site_U_iso_or_equiv
_atom_site_thermal_displace_type
Zn1 Zn 0.84731(3) 0.32513(3) -0.011465(19) 0.0100 Uani
Zn2 Zn 0.53438(3) 0.41947(3) -0.007170(19) 0.0096 Uani
O1 O 0.8234(2) 0.4171(2) 0.07101(11) 0.0172 Uani
O2 O 0.6091(2) 0.4462(2) 0.08297(11) 0.0201 Uani
O3 O 0.9052(2) 0.5399(2) 0.40334(12) 0.0189 Uani
O4 O 0.6944(2) 0.5838(2) 0.40903(12) 0.0219 Uani
C1 C 0.7237(3) 0.4436(3) 0.10387(15) 0.0131 Uani
C2 C 0.7439(3) 0.4758(3) 0.17451(16) 0.0146 Uani
C3 C 0.8663(3) 0.4648(3) 0.20312(17) 0.0195 Uani
H1 H 0.9359 0.4393 0.1781 0.0230 Uiso
C4 C 0.6405(3) 0.5173(3) 0.21160(17) 0.0172 Uani
H2 H 0.5600 0.5281 0.1920 0.0210 Uiso
C5 C 0.8839(3) 0.4921(3) 0.26940(16) 0.0197 Uani
H3 H 0.9652 0.4854 0.2886 0.0240 Uiso
C6 C 0.6576(3) 0.5424(3) 0.27736(17) 0.0171 Uani
H4 H 0.5881 0.5680 0.3024 0.0200 Uiso
C7 C 0.7790(3) 0.5293(3) 0.30636(16) 0.0141 Uani
C8 C 0.7948(3) 0.5541(3) 0.37917(15) 0.0119 Uani
O5 O 0.6496(2) 0.26876(19) -0.00984(12) 0.0136 Uani
O6 O 0.5313(2) 0.1197(2) 0.02414(13) 0.0190 Uani
O7 O 0.8707(2) 0.16134(17) 0.00579(12) 0.0120 Uani
C9 C 0.6375(3) 0.1688(3) 0.01257(14) 0.0111 Uani
C10 C 0.7600(3) 0.1049(3) 0.03165(17) 0.0159 Uani
H5 H 0.7559 0.0277 0.0128 0.0190 Uiso
C11 C 0.7664(3) 0.0942(3) 0.10628(18) 0.0238 Uani
H6 H 0.8433 0.0533 0.1184 0.0360 Uiso
H7 H 0.6918 0.0533 0.1218 0.0360 Uiso
H8 H 0.7681 0.1692 0.1256 0.0360 Uiso
O8 O 0.4555(2) 0.58719(19) -0.00177(12) 0.0201 Uani
N1 N 0.4403(3) 0.7655(2) 0.04140(17) 0.0267 Uani
C12 C 0.4846(3) 0.6611(3) 0.03948(17) 0.0195 Uani
H9 H 0.5433 0.6400 0.0720 0.0230 Uiso
C13 C 0.4802(5) 0.8470(4) 0.0935(2) 0.0408 Uani
H10 H 0.5453 0.8122 0.1206 0.0610 Uiso
H11 H 0.4066 0.8666 0.1200 0.0610 Uiso
H12 H 0.5146 0.9151 0.0736 0.0610 Uiso
C14 C 0.3409(4) 0.8036(4) -0.0053(3) 0.0424 Uani
H13 H 0.3239 0.7437 -0.0364 0.0630 Uiso
H14 H 0.3709 0.8706 -0.0281 0.0630 Uiso
H15 H 0.2628 0.8216 0.0182 0.0630 Uiso
Zn1A Zn 0.65269(3) 0.67487(3) 0.488535(19) 0.0100 Uani
Zn1C Zn 0.34731(3) 0.17487(3) 0.011465(19) 0.0100 Uani
Zn2A Zn 0.96562(3) 0.58053(3) 0.492830(19) 0.0096 Uani
Zn2C Zn 1.03438(3) 0.08053(3) 0.007170(19) 0.0096 Uani
O3A O 0.5948(2) 0.4601(2) -0.09666(12) 0.0189 Uani
O4A O 0.8056(2) 0.4162(2) -0.09097(12) 0.0219 Uani
O6C O 1.0313(2) 0.3803(2) -0.02414(13) 0.0190 Uani
O7C O 0.3707(2) 0.33866(17) -0.00579(12) 0.0120 Uani
O9 O 0.8906(4) 0.1796(3) -0.17282(18) 0.0495 Uani
H16 H 0.9441 0.1436 -0.1513 0.0740 Uiso
C15 C 0.7742(4) -0.0011(3) -0.1882(2) 0.0291 Uani
C16 C 0.7909(4) -0.1075(4) -0.2176(2) 0.0317 Uani
H17 H 0.8424 -0.1142 -0.2549 0.0380 Uiso
C17 C 0.7315(5) -0.2027(4) -0.1919(3) 0.0467 Uani
H18 H 0.7438 -0.2739 -0.2115 0.0560 Uiso
C18 C 0.6529(5) -0.1929(5) -0.1366(3) 0.0487 Uani
H19 H 0.6099 -0.2568 -0.1203 0.0590 Uiso
C19 C 0.6390(5) -0.0878(5) -0.1061(3) 0.0510 Uani
H20 H 0.5891 -0.0813 -0.0683 0.0610 Uiso
C20 C 0.6997(5) 0.0078(4) -0.1320(2) 0.0390 Uani
H21 H 0.6902 0.0786 -0.1115 0.0470 Uiso
C21 C 0.8321(5) 0.1051(4) -0.2203(2) 0.0346 Uani
H22 H 0.8982 0.0811 -0.2520 0.0420 Uiso
C22 C 0.7321(5) 0.1748(4) -0.2555(3) 0.0403 Uani
H23 H 0.7727 0.2400 -0.2756 0.0600 Uiso
H24 H 0.6679 0.2003 -0.2248 0.0600 Uiso
H25 H 0.6917 0.1288 -0.2888 0.0600 Uiso
loop_
_atom_site_aniso_label
_atom_site_aniso_U_11
_atom_site_aniso_U_22
_atom_site_aniso_U_33
_atom_site_aniso_U_23
_atom_site_aniso_U_13
_atom_site_aniso_U_12
Zn1 0.0034(2) 0.0152(2) 0.0115(2) 0.00049(12) 0.00061(12) -0.00024(11)
Zn2 0.00348(19) 0.0154(2) 0.00979(19) -0.00015(12) -0.00011(11) -0.00058(11)
O1 0.0135(11) 0.0256(11) 0.0125(10) -0.0060(9) 0.0019(8) -0.0044(10)
O2 0.0180(12) 0.0273(12) 0.0150(11) -0.0067(9) -0.0053(10) 0.0090(10)
O3 0.0164(11) 0.0248(11) 0.0155(12) -0.0057(9) -0.0073(9) 0.0033(10)
O4 0.0095(10) 0.0394(13) 0.0169(12) -0.0088(11) 0.0056(9) -0.0059(10)
C1 0.0133(14) 0.0154(13) 0.0107(14) -0.0015(10) -0.0020(12) 0.0029(11)
C2 0.0133(14) 0.0187(13) 0.0118(15) -0.0020(11) -0.0015(12) 0.0013(12)
C3 0.0100(14) 0.0325(16) 0.0160(15) -0.0060(13) 0.0008(12) 0.0034(12)
C4 0.0088(12) 0.0310(17) 0.0119(14) -0.0012(13) -0.0040(12) -0.0030(13)
C5 0.0077(13) 0.0326(17) 0.0189(17) -0.0036(13) 0.0001(12) 0.0054(14)
C6 0.0061(13) 0.0294(16) 0.0157(16) -0.0058(12) 0.0008(12) 0.0027(12)
C7 0.0107(14) 0.0205(13) 0.0112(15) -0.0024(11) 0.0008(11) -0.0006(12)
C8 0.0100(13) 0.0163(13) 0.0095(14) -0.0019(10) 0.0030(11) -0.0066(11)
O5 0.0035(9) 0.0185(10) 0.0189(11) 0.0007(9) 0.0011(9) -0.0016(8)
O6 0.0046(11) 0.0201(10) 0.0323(14) 0.0046(10) -0.0005(10) -0.0004(8)
O7 0.0048(10) 0.0124(9) 0.0188(11) 0.0011(8) 0.0040(9) -0.0021(8)
C9 0.0019(13) 0.0217(14) 0.0097(14) 0.0030(11) 0.0008(9) -0.0014(10)
C10 0.0052(14) 0.0212(13) 0.0213(16) 0.0063(12) 0.0051(12) -0.0050(11)
C11 0.0087(15) 0.0389(19) 0.0239(17) 0.0123(15) 0.0024(12) 0.0005(14)
O8 0.0170(12) 0.0142(11) 0.0292(14) -0.0004(9) -0.0029(10) 0.0024(8)
N1 0.0258(16) 0.0170(13) 0.0373(17) -0.0010(12) 0.0010(14) 0.0011(12)
C12 0.0174(16) 0.0158(13) 0.0253(17) 0.0026(12) 0.0009(13) 0.0053(13)
C13 0.050(3) 0.0243(18) 0.048(3) -0.0068(17) 0.002(2) -0.0038(19)
C14 0.031(2) 0.0322(18) 0.064(3) 0.012(2) 0.000(2) 0.0144(17)
Zn1A 0.0034 0.0152 0.0115 -0.00049 -0.00061 -0.00024
Zn1C 0.0034 0.0152 0.0115 0.00049 -0.00061 0.00024
Zn2A 0.00348 0.0154 0.00979 0.00015 0.00011 -0.00058
Zn2C 0.00348 0.0154 0.00979 -0.00015 0.00011 0.00058
O3A 0.0164 0.0248 0.0155 0.0057 0.0073 0.0033
O4A 0.0095 0.0394 0.0169 0.0088 -0.0056 -0.0059
O6C 0.0046 0.0201 0.0323 0.0046 0.0005 0.0004
O7C 0.0048 0.0124 0.0188 0.0011 -0.004 0.0021
O9 0.058(2) 0.0366(16) 0.054(2) -0.0062(14) -0.0246(18) -0.0101(16)
C15 0.0278(18) 0.0304(18) 0.029(2) -0.0026(14) -0.0068(16) 0.0007(16)
C16 0.030(2) 0.0350(17) 0.030(2) -0.0081(16) 0.0005(18) -0.0013(18)
C17 0.054(3) 0.040(2) 0.046(3) 0.004(2) -0.008(3) -0.011(2)
C18 0.038(3) 0.056(3) 0.052(3) 0.014(2) -0.008(2) -0.017(2)
C19 0.032(2) 0.068(3) 0.053(3) 0.005(3) 0.007(2) -0.006(2)
C20 0.036(2) 0.045(2) 0.036(3) -0.0009(18) 0.0001(18) 0.003(2)
C21 0.034(2) 0.0378(19) 0.032(2) -0.0055(17) -0.0077(19) -0.0011(18)
C22 0.039(2) 0.035(2) 0.047(3) 0.001(2) -0.014(2) 0.001(2)
loop_
_geom_bond_atom_site_label_1
_geom_bond_atom_site_label_2
_geom_bond_site_symmetry_1
_geom_bond_site_symmetry_2
Zn1 O1 1_555 1_555
Zn2 O2 1_555 1_555
O1 C1 1_555 1_555
O2 C1 1_555 1_555
O3 C8 1_555 1_555
O4 C8 1_555 1_555
C1 C2 1_555 1_555
C2 C3 1_555 1_555
C3 H1 1_555 1_555
C4 C2 1_555 1_555
H2 C4 1_555 1_555
C5 C3 1_555 1_555
H3 C5 1_555 1_555
C6 C4 1_555 1_555
H4 C6 1_555 1_555
C7 C5 1_555 1_555
C8 C7 1_555 1_555
O5 Zn1 1_555 1_555
O6 C9 1_555 1_555
O7 Zn1 1_555 1_555
C9 O5 1_555 1_555
C10 O7 1_555 1_555
H5 C10 1_555 1_555
C11 C10 1_555 1_555
H6 C11 1_555 1_555
H7 C11 1_555 1_555
H8 C11 1_555 1_555
O8 Zn2 1_555 1_555
N1 C12 1_555 1_555
C12 O8 1_555 1_555
H9 C12 1_555 1_555
C13 N1 1_555 1_555
H10 C13 1_555 1_555
H11 C13 1_555 1_555
H12 C13 1_555 1_555
C14 N1 1_555 1_555
H13 C14 1_555 1_555
H14 C14 1_555 1_555
H15 C14 1_555 1_555
O9 H16 1_555 1_555
C15 C16 1_555 1_555
C16 H17 1_555 1_555
C17 C16 1_555 1_555
H18 C17 1_555 1_555
C18 C17 1_555 1_555
H19 C18 1_555 1_555
C19 C18 1_555 1_555
H20 C19 1_555 1_555
C20 C15 1_555 1_555
H21 C20 1_555 1_555
C21 O9 1_555 1_555
H22 C21 1_555 1_555
C22 C21 1_555 1_555
H23 C22 1_555 1_555
H24 C22 1_555 1_555
H25 C22 1_555 1_555
Zn1A O4 1_555 1_555
Zn1C O6 1_555 1_555
Zn2A O3 1_555 1_555
Zn2C O7 1_555 1_555
O3A Zn2 1_555 1_555
O4A Zn1 1_555 1_555
O6C Zn1 1_555 1_555
O7C Zn2 1_555 1_555
Zn2 O5 1_555 1_555
C6 C7 1_555 1_555
C9 C10 1_555 1_555
C15 C21 1_555 1_555
C19 C20 1_555 1_555
Zn1C O7C 1_555 1_555

#END
