
#######################################################################
#
#                 Cambridge Crystallographic Data Centre
#                                CCDC 
#
#######################################################################
#
# If this CIF has been generated from an entry in the Cambridge 
# Structural Database, then it will include bibliographic, chemical, 
# crystal, experimental, refinement or atomic coordinate data resulting 
# from the CCDC's data processing and validation procedures.
#
#######################################################################

data_SAKRED
_chemical_formula_moiety         '(C22 H25 N1 O9 Zn2)n'
_symmetry_cell_setting           orthorhombic
_symmetry_space_group_name_H-M   'P 21 21 21'
_symmetry_Int_Tables_number      19
_space_group_name_Hall           'P 2ac 2ab'
loop_
_symmetry_equiv_pos_site_id
_symmetry_equiv_pos_as_xyz
1 x,y,z
2 1/2-x,-y,1/2+z
3 -x,1/2+y,1/2-z
4 1/2+x,1/2-y,-z
_cell_length_a                   10.337(2)
_cell_length_b                   11.649(2)
_cell_length_c                   20.464(4)
_cell_angle_alpha                90
_cell_angle_beta                 90
_cell_angle_gamma                90
_cell_volume                     2464.19
loop_
_atom_site_label
_atom_site_type_symbol
_atom_site_fract_x
_atom_site_fract_y
_atom_site_fract_z
_atom_site_U_iso_or_equiv
_atom_site_thermal_displace_type
Zn1 Zn 0.04354(3) 0.42234(3) -0.00678(2) 0.0142 Uani
Zn2 Zn 0.35700(3) 0.32479(3) -0.00728(2) 0.0144 Uani
O1 O 0.3329(2) 0.4141(2) 0.07553(12) 0.0225 Uani
O2 O 0.1219(3) 0.4579(2) 0.07990(12) 0.0240 Uani
O3 O 0.3818(2) 0.5353(2) 0.40725(12) 0.0238 Uani
O4 O 0.1800(2) 0.6088(2) 0.40491(13) 0.0243 Uani
C1 C 0.2329(3) 0.4467(3) 0.10468(16) 0.0186 Uani
C2 C 0.2454(3) 0.4778(3) 0.17575(17) 0.0193 Uani
C3 C 0.1384(3) 0.5187(3) 0.20975(17) 0.0222 Uani
H1 H 0.0596 0.5274 0.1884 0.0270 Uiso
C4 C 0.3629(4) 0.4654(4) 0.20773(18) 0.0281 Uani
H2 H 0.4346 0.4385 0.1850 0.0340 Uiso
C5 C 0.1489(3) 0.5467(3) 0.27605(17) 0.0226 Uani
H3 H 0.0773 0.5743 0.2986 0.0270 Uiso
C6 C 0.3740(3) 0.4929(4) 0.27356(17) 0.0257 Uani
H4 H 0.4531 0.4844 0.2947 0.0310 Uiso
C7 C 0.2666(3) 0.5332(3) 0.30809(16) 0.0185 Uani
C8 C 0.2772(3) 0.5620(3) 0.37939(17) 0.0189 Uani
O5 O 0.1586(2) 0.2708(2) -0.00535(12) 0.0189 Uani
O6 O 0.0403(2) 0.1156(2) 0.01848(13) 0.0217 Uani
O7 O 0.3801(2) 0.15880(19) 0.00706(14) 0.0190 Uani
C9 C 0.1460(3) 0.1670(3) 0.01210(15) 0.0167 Uani
C10 C 0.2676(3) 0.1004(3) 0.02896(19) 0.0218 Uani
H5 H 0.2636 0.0254 0.0073 0.0260 Uiso
C11 C 0.2732(3) 0.0813(4) 0.1028(2) 0.0334 Uani
H6 H 0.3501 0.0392 0.1136 0.0500 Uiso
H7 H 0.1986 0.0385 0.1165 0.0500 Uiso
H8 H 0.2743 0.1541 0.1247 0.0500 Uiso
O8 O -0.0392(2) 0.5892(2) -0.00522(13) 0.0229 Uani
N1 N -0.0678(3) 0.7663(3) 0.03800(19) 0.0311 Uani
C12 C -0.0168(4) 0.6628(3) 0.03705(19) 0.0245 Uani
H9 H 0.0401 0.6435 0.0705 0.0290 Uiso
C13 C -0.1616(5) 0.8018(4) -0.0110(3) 0.0493 Uani
H10 H -0.1723 0.7416 -0.0426 0.0740 Uiso
H11 H -0.1313 0.8700 -0.0325 0.0740 Uiso
H12 H -0.2431 0.8172 0.0097 0.0740 Uiso
C14 C -0.0372(6) 0.8489(4) 0.0890(3) 0.0497 Uani
H13 H 0.0269 0.8171 0.1177 0.0750 Uiso
H14 H -0.1140 0.8663 0.1134 0.0750 Uiso
H15 H -0.0042 0.9179 0.0695 0.0750 Uiso
Zn1A Zn 0.45646(3) 0.57766(3) 0.49322(2) 0.0142 Uani
Zn1C Zn 0.54354(3) 0.07766(3) 0.00678(2) 0.0142 Uani
Zn2A Zn 0.14300(3) 0.67521(3) 0.49272(2) 0.0144 Uani
Zn2C Zn -0.14300(3) 0.17521(3) 0.00728(2) 0.0144 Uani
O3A O 0.1182(2) 0.4647(2) -0.09275(12) 0.0238 Uani
O4A O 0.3200(2) 0.3912(2) -0.09509(13) 0.0243 Uani
O6C O 0.5403(2) 0.3844(2) -0.01848(13) 0.0217 Uani
O7C O -0.1199(2) 0.34120(19) -0.00706(14) 0.0190 Uani
O9 O 0.3979(5) 0.1429(5) -0.2645(3) 0.0820 Uani
H16 H 0.4138 0.2063 -0.2799 0.1230 Uiso
C15 C 0.1691(6) -0.1768(6) -0.1435(4) 0.0630 Uani
H17 H 0.1377 -0.2457 -0.1269 0.0750 Uiso
C16 C 0.2417(7) -0.1761(5) -0.2006(3) 0.0573 Uani
H18 H 0.2644 -0.2441 -0.2215 0.0690 Uiso
C17 C 0.2795(5) -0.0700(5) -0.2253(3) 0.0510 Uani
H19 H 0.3270 -0.0684 -0.2639 0.0610 Uiso
C18 C 0.2499(5) 0.0338(5) -0.1953(3) 0.0470 Uani
C19 C 0.1829(6) 0.0301(6) -0.1362(3) 0.0557 Uani
H20 H 0.1653 0.0979 -0.1138 0.0670 Uiso
C20 C 0.1427(6) -0.0727(6) -0.1109(3) 0.0553 Uani
H21 H 0.0975 -0.0740 -0.0716 0.0670 Uiso
C21 C 0.2844(6) 0.1497(5) -0.2248(3) 0.0530 Uani
H22 H 0.2984 0.2056 -0.1896 0.0640 Uiso
C22 C 0.1800(7) 0.1920(6) -0.2690(3) 0.0627 Uani
H23 H 0.2043 0.2651 -0.2868 0.0940 Uiso
H24 H 0.1010 0.1999 -0.2448 0.0940 Uiso
H25 H 0.1674 0.1381 -0.3039 0.0940 Uiso
loop_
_atom_site_aniso_label
_atom_site_aniso_U_11
_atom_site_aniso_U_22
_atom_site_aniso_U_33
_atom_site_aniso_U_23
_atom_site_aniso_U_13
_atom_site_aniso_U_12
Zn1 0.00633(19) 0.0237(2) 0.01260(19) 0.00041(14) -0.00020(12) -0.00015(12)
Zn2 0.00617(19) 0.0239(2) 0.0131(2) -0.00022(14) 0.00018(13) -0.00009(12)
O1 0.0158(11) 0.0359(13) 0.0157(11) -0.0040(10) 0.0027(9) -0.0032(11)
O2 0.0213(12) 0.0339(13) 0.0169(11) -0.0049(10) -0.0051(10) 0.0106(11)
O3 0.0182(12) 0.0358(13) 0.0175(12) -0.0056(10) -0.0074(10) 0.0035(11)
O4 0.0114(10) 0.0466(15) 0.0150(12) -0.0073(11) 0.0019(9) -0.0012(10)
C1 0.0171(16) 0.0262(15) 0.0126(15) -0.0007(12) -0.0031(12) -0.0036(13)
C2 0.0140(15) 0.0277(15) 0.0162(15) -0.0015(13) -0.0011(13) -0.0003(13)
C3 0.0116(15) 0.0389(18) 0.0161(16) -0.0021(14) -0.0021(13) -0.0023(14)
C4 0.0163(16) 0.052(2) 0.0159(16) -0.0069(16) -0.0047(14) 0.0089(17)
C5 0.0095(14) 0.0387(19) 0.0196(17) -0.0033(14) 0.0004(13) -0.0021(14)
C6 0.0119(14) 0.050(2) 0.0152(16) -0.0063(15) -0.0053(13) 0.0061(15)
C7 0.0124(14) 0.0293(15) 0.0137(15) -0.0009(13) -0.0003(12) -0.0003(13)
C8 0.0133(15) 0.0268(15) 0.0167(15) 0.0000(13) -0.0003(12) -0.0043(12)
O5 0.0079(10) 0.0249(10) 0.0239(12) 0.0049(11) -0.0008(10) 0.0026(8)
O6 0.0073(10) 0.0290(11) 0.0287(13) 0.0016(11) -0.0004(10) -0.0024(9)
O7 0.0040(9) 0.0229(9) 0.0301(13) 0.0053(10) 0.0007(10) 0.0005(8)
C9 0.0094(15) 0.0280(15) 0.0128(14) 0.0020(12) 0.0022(11) 0.0001(11)
C10 0.0044(13) 0.0273(14) 0.0337(19) 0.0070(14) 0.0037(13) -0.0035(12)
C11 0.0103(16) 0.055(2) 0.035(2) 0.020(2) -0.0015(14) -0.0006(17)
O8 0.0148(11) 0.0245(11) 0.0293(13) -0.0009(10) -0.0021(10) 0.0028(8)
N1 0.0264(16) 0.0246(14) 0.0423(19) -0.0055(14) -0.0007(15) 0.0054(13)
C12 0.0205(17) 0.0230(15) 0.0300(18) -0.0015(15) 0.0022(14) 0.0040(14)
C13 0.045(3) 0.040(2) 0.063(3) 0.015(2) -0.008(3) 0.021(2)
C14 0.056(3) 0.029(2) 0.064(3) -0.024(2) 0.004(3) 0.001(2)
Zn1A 0.00633 0.0237 0.0126 -0.00041 0.0002 -0.00015
Zn1C 0.00633 0.0237 0.0126 0.00041 0.0002 0.00015
Zn2A 0.00617 0.0239 0.0131 0.00022 -0.00018 -9e-05
Zn2C 0.00617 0.0239 0.0131 -0.00022 -0.00018 9e-05
O3A 0.0182 0.0358 0.0175 0.0056 0.0074 0.0035
O4A 0.0114 0.0466 0.015 0.0073 -0.0019 -0.0012
O6C 0.0073 0.029 0.0287 0.0016 0.0004 0.0024
O7C 0.004 0.0229 0.0301 0.0053 -0.0007 -0.0005
O9 0.060(3) 0.082(3) 0.104(4) 0.030(3) 0.020(3) -0.003(3)
C15 0.054(3) 0.072(4) 0.063(4) 0.013(3) -0.021(3) -0.015(3)
C16 0.070(4) 0.062(3) 0.040(3) -0.006(3) -0.008(3) -0.015(3)
C17 0.043(3) 0.065(3) 0.045(3) -0.007(3) 0.003(2) -0.002(3)
C18 0.036(2) 0.058(3) 0.047(3) -0.018(2) -0.008(2) 0.003(2)
C19 0.050(3) 0.072(3) 0.045(3) -0.015(3) 0.002(3) -0.001(3)
C20 0.050(3) 0.075(4) 0.041(3) -0.007(3) 0.006(3) -0.009(3)
C21 0.049(3) 0.054(3) 0.056(3) -0.010(3) 0.004(3) -0.012(2)
C22 0.058(3) 0.063(3) 0.067(4) -0.010(3) 0.006(3) -0.005(3)
loop_
_geom_bond_atom_site_label_1
_geom_bond_atom_site_label_2
_geom_bond_site_symmetry_1
_geom_bond_site_symmetry_2
Zn1 O2 1_555 1_555
Zn2 O1 1_555 1_555
O1 C1 1_555 1_555
O2 C1 1_555 1_555
O3 C8 1_555 1_555
O4 C8 1_555 1_555
C1 C2 1_555 1_555
C2 C3 1_555 1_555
C3 H1 1_555 1_555
C4 C2 1_555 1_555
H2 C4 1_555 1_555
C5 C3 1_555 1_555
H3 C5 1_555 1_555
C6 C4 1_555 1_555
H4 C6 1_555 1_555
C7 C5 1_555 1_555
C8 C7 1_555 1_555
O5 Zn1 1_555 1_555
O6 C9 1_555 1_555
O7 Zn2 1_555 1_555
C9 O5 1_555 1_555
C10 O7 1_555 1_555
H5 C10 1_555 1_555
C11 C10 1_555 1_555
H6 C11 1_555 1_555
H7 C11 1_555 1_555
H8 C11 1_555 1_555
O8 Zn1 1_555 1_555
N1 C12 1_555 1_555
C12 O8 1_555 1_555
H9 C12 1_555 1_555
C13 N1 1_555 1_555
H10 C13 1_555 1_555
H11 C13 1_555 1_555
H12 C13 1_555 1_555
C14 N1 1_555 1_555
H13 C14 1_555 1_555
H14 C14 1_555 1_555
H15 C14 1_555 1_555
O9 H16 1_555 1_555
C15 H17 1_555 1_555
C16 C15 1_555 1_555
H18 C16 1_555 1_555
C17 C16 1_555 1_555
H19 C17 1_555 1_555
C18 C17 1_555 1_555
C19 C18 1_555 1_555
H20 C19 1_555 1_555
C20 C15 1_555 1_555
H21 C20 1_555 1_555
C21 O9 1_555 1_555
H22 C21 1_555 1_555
C22 C21 1_555 1_555
H23 C22 1_555 1_555
H24 C22 1_555 1_555
H25 C22 1_555 1_555
Zn1A O3 1_555 1_555
Zn1C O7 1_555 1_555
Zn2A O4 1_555 1_555
Zn2C O6 1_555 1_555
O3A Zn1 1_555 1_555
O4A Zn2 1_555 1_555
O6C Zn2 1_555 1_555
O7C Zn1 1_555 1_555
Zn2 O5 1_555 1_555
C6 C7 1_555 1_555
C9 C10 1_555 1_555
C18 C21 1_555 1_555
C19 C20 1_555 1_555
Zn2C O7C 1_555 1_555

#END
