
#######################################################################
#
#                 Cambridge Crystallographic Data Centre
#                                CCDC 
#
#######################################################################
#
# If this CIF has been generated from an entry in the Cambridge 
# Structural Database, then it will include bibliographic, chemical, 
# crystal, experimental, refinement or atomic coordinate data resulting 
# from the CCDC's data processing and validation procedures.
#
#######################################################################

data_ICODIP01
_chemical_formula_moiety         '(C54 H26 N12 O25 Zn2)n'
_symmetry_cell_setting           cubic
_symmetry_space_group_name_H-M   'I 41 3 2'
_symmetry_Int_Tables_number      214
_space_group_name_Hall           'I 4bd 2c 3'
loop_
_symmetry_equiv_pos_site_id
_symmetry_equiv_pos_as_xyz
1 x,y,z
2 -x,1/2-y,z
3 x,-y,1/2-z
4 1/2-x,y,-z
5 z,x,y
6 y,z,x
7 -z,1/2-x,y
8 1/2-y,z,-x
9 z,-x,1/2-y
10 -y,1/2-z,x
11 1/2-z,x,-y
12 y,-z,1/2-x
13 1/4-y,1/4-x,1/4-z
14 3/4+y,1/4+x,1/4-z
15 1/4+y,1/4-x,3/4+z
16 1/4-y,3/4+x,1/4+z
17 1/4-x,1/4-z,1/4-y
18 1/4-z,1/4-y,1/4-x
19 3/4+x,1/4+z,1/4-y
20 1/4-z,3/4+y,1/4+x
21 1/4+x,1/4-z,3/4+y
22 3/4+z,1/4+y,1/4-x
23 1/4-x,3/4+z,1/4+y
24 1/4+z,1/4-y,3/4+x
25 1/2+x,1/2+y,1/2+z
26 1/2-x,-y,1/2+z
27 1/2+x,1/2-y,-z
28 -x,1/2+y,1/2-z
29 1/2+z,1/2+x,1/2+y
30 1/2+y,1/2+z,1/2+x
31 1/2-z,-x,1/2+y
32 -y,1/2+z,1/2-x
33 1/2+z,1/2-x,-y
34 1/2-y,-z,1/2+x
35 -z,1/2+x,1/2-y
36 1/2+y,1/2-z,-x
37 3/4-y,3/4-x,3/4-z
38 1/4+y,3/4+x,3/4-z
39 3/4+y,3/4-x,1/4+z
40 3/4-y,1/4+x,3/4+z
41 3/4-x,3/4-z,3/4-y
42 3/4-z,3/4-y,3/4-x
43 1/4+x,3/4+z,3/4-y
44 3/4-z,1/4+y,3/4+x
45 3/4+x,3/4-z,1/4+y
46 1/4+z,3/4+y,3/4-x
47 3/4-x,1/4+z,3/4+y
48 3/4+z,3/4-y,1/4+x
_cell_length_a                   36.044(5)
_cell_length_b                   36.044(5)
_cell_length_c                   36.044(5)
_cell_angle_alpha                90
_cell_angle_beta                 90
_cell_angle_gamma                90
_cell_volume                     46827.3
loop_
_atom_site_label
_atom_site_type_symbol
_atom_site_fract_x
_atom_site_fract_y
_atom_site_fract_z
_atom_site_U_iso_or_equiv
_atom_site_thermal_displace_type
Zn1 Zn 0.60928(3) 1.0000 0.7500 0.0418 Uani
Zn2 Zn 0.62631(2) 1.12369(2) 0.8750 0.0599 Uani
O1 O 0.63533(11) 1.04181(11) 0.77492(12) 0.0467 Uani
N1 N 0.74303(14) 1.23053(14) 0.70268(14) 0.0470 Uani
C1 C 0.67462(17) 1.09423(16) 0.76717(16) 0.0397 Uani
C2 C 0.74365(16) 1.20448(16) 0.72942(16) 0.0400 Uani
O2 O 0.68036(14) 1.12747(15) 0.88139(12) 0.0717 Uani
N2 N 0.45377(14) 0.99590(15) 0.55462(15) 0.0500 Uani
O3 O 0.57700(12) 1.00922(12) 0.70699(11) 0.0483 Uani
C3 C 0.48231(18) 0.97604(17) 0.56473(17) 0.0467 Uani
C4 C 0.52456(18) 1.03802(18) 0.67907(17) 0.0490 Uani
C5 C 0.47177(18) 1.06631(18) 0.65034(18) 0.0487 Uani
N3 N 0.71669(16) 1.17867(14) 0.72818(14) 0.0563 Uani
H1 H 0.7041 1.1783 0.7079 0.0670 Uiso
C6 C 0.49931(17) 1.01261(17) 0.62181(17) 0.0487 Uani
O4 O 0.55058(16) 1.05526(16) 0.73673(15) 0.0907 Uani
O5 O 0.41261(15) 1.08907(14) 0.63209(14) 0.0693 Uani
O6 O 0.65886(17) 1.05193(15) 0.71823(14) 0.0900 Uani
C7 C 0.47130(19) 1.03980(18) 0.62249(18) 0.0520 Uani
H2 H 0.4528 1.0400 0.6045 0.0630 Uiso
C8 C 0.52564(18) 1.01187(18) 0.64980(18) 0.0520 Uani
H3 H 0.5442 0.9940 0.6494 0.0630 Uiso
C9 C 0.71134(19) 1.15657(19) 0.79193(18) 0.0543 Uani
H4 H 0.7239 1.1773 0.8009 0.0650 Uiso
C10 C 0.69849(19) 1.13046(19) 0.81653(17) 0.0533 Uani
O7 O 0.44788(17) 1.12461(16) 0.66631(16) 0.0853 Uani
N4 N 0.50304(15) 0.98533(14) 0.59410(14) 0.0543 Uani
H5 H 0.5226 0.9719 0.5965 0.0650 Uiso
C11 C 0.65528(17) 1.06160(18) 0.75228(18) 0.0457 Uani
C12 C 0.68902(16) 1.11973(18) 0.74192(17) 0.0487 Uani
H6 H 0.6873 1.1149 0.7166 0.0580 Uiso
C13 C 0.67909(17) 1.10035(17) 0.80353(18) 0.0473 Uani
H7 H 0.6688 1.0838 0.8204 0.0570 Uiso
C14 C 0.70609(16) 1.15273(17) 0.75419(18) 0.0450 Uani
C15 C 0.49767(18) 1.06539(18) 0.67826(19) 0.0547 Uani
H8 H 0.4971 1.0833 0.6968 0.0660 Uiso
C16 C 0.55252(18) 1.03364(19) 0.71066(17) 0.0480 Uani
C17 C 0.4413(2) 1.0962(2) 0.6499(2) 0.0583 Uani
C18 C 0.7043(3) 1.1375(3) 0.8588(2) 0.0923 Uani
O8 O 0.7380(3) 1.1469(3) 0.86683(17) 0.1680 Uani
Zn1G Zn 0.5000 0.7500 0.39072(3) 0.0418 Uani
Zn1H Zn 0.7500 1.39072(3) 0.5000 0.0418 Uani
Zn1K Zn 1.0000 1.2500 0.89072(3) 0.0418 Uani
Zn1BA Zn 0.2500 1.10928(3) 0.5000 0.0418 Uani
Zn2G Zn 0.37631(2) 0.8750 0.37369(2) 0.0599 Uani
Zn2Q Zn 0.3750 1.12631(2) 0.62369(2) 0.0599 Uani
Zn2T Zn 0.87631(2) 1.3750 0.87369(2) 0.0599 Uani
Zn2U Zn 0.6250 1.37369(2) 0.62369(2) 0.0599 Uani
Zn2B Zn 0.62631(2) 0.87631(2) 0.6250 0.0599 Uani
O1DA O 0.72508(12) 1.36467(11) 0.54181(11) 0.0467 Uani
O1EA O 0.95819(11) 1.27492(12) 0.86467(11) 0.0467 Uani
O1B O 0.63533(11) 0.95819(11) 0.72508(12) 0.0467 Uani
N1DA N 0.79732(14) 1.25697(14) 0.73053(14) 0.0470 Uani
N1EA N 0.76947(14) 1.20268(14) 0.75697(14) 0.0470 Uani
C1DA C 0.73283(16) 1.32538(17) 0.59423(16) 0.0397 Uani
C1EA C 0.90577(16) 1.26717(16) 0.82538(17) 0.0397 Uani
C2DA C 0.77058(16) 1.25635(16) 0.70448(16) 0.0400 Uani
C2EA C 0.79552(16) 1.22942(16) 0.75635(16) 0.0400 Uani
O2DA O 0.61861(12) 1.31964(14) 0.62747(15) 0.0717 Uani
O2EA O 0.87253(15) 1.38139(12) 0.81964(14) 0.0717 Uani
O2JA O 0.62253(15) 1.06964(14) 0.86861(12) 0.0717 Uani
N2HA N 0.44538(15) 0.95377(14) 0.50410(15) 0.0500 Uani
N2IA N 0.49590(15) 0.94538(15) 0.54623(14) 0.0500 Uani
O3HA O 0.29301(11) 1.07700(12) 0.49078(12) 0.0483 Uani
O3IA O 0.50922(12) 0.79301(11) 0.42300(12) 0.0483 Uani
O3B O 0.57700(12) 0.99078(12) 0.79301(11) 0.0483 Uani
C3HA C 0.43527(17) 0.98231(18) 0.52396(17) 0.0467 Uani
C3IA C 0.47604(17) 0.93527(17) 0.51769(18) 0.0467 Uani
C4HA C 0.32093(17) 1.02456(18) 0.46198(18) 0.0490 Uani
C4IA C 0.53802(18) 0.82093(17) 0.47544(18) 0.0490 Uani
C5HA C 0.34966(18) 0.97177(18) 0.43369(18) 0.0487 Uani
C5IA C 0.56631(18) 0.84966(18) 0.52823(18) 0.0487 Uani
N3DA N 0.77182(14) 1.28331(16) 0.67867(14) 0.0563 Uani
N3EA N 0.82133(14) 1.22818(14) 0.78331(16) 0.0563 Uani
H1DA H 0.7921 1.2959 0.6783 0.0670 Uiso
H1EA H 0.8217 1.2079 0.7959 0.0670 Uiso
C6HA C 0.37819(17) 0.99931(17) 0.48739(17) 0.0487 Uani
C6IA C 0.51261(17) 0.87819(17) 0.50069(17) 0.0487 Uani
O4HA O 0.26327(15) 1.05058(16) 0.44474(16) 0.0907 Uani
O4IA O 0.55526(16) 0.76327(15) 0.44942(16) 0.0907 Uani
O5HA O 0.36791(14) 0.91261(15) 0.41093(14) 0.0693 Uani
O5IA O 0.58907(14) 0.86791(14) 0.58739(15) 0.0693 Uani
O5Q O 0.61791(14) 1.16093(14) 0.83739(15) 0.0693 Uani
O5CA O 0.58907(14) 1.13209(14) 0.91261(15) 0.0693 Uani
O6DA O 0.78177(14) 1.34114(17) 0.55193(15) 0.0900 Uani
O6EA O 0.94807(15) 1.21823(14) 0.84114(17) 0.0900 Uani
C7HA C 0.37751(18) 0.97130(19) 0.46020(18) 0.0520 Uani
C7IA C 0.53980(18) 0.87751(18) 0.52870(19) 0.0520 Uani
H2HA H 0.3955 0.9528 0.4600 0.0630 Uiso
H2IA H 0.5400 0.8955 0.5472 0.0630 Uiso
C8HA C 0.35020(18) 1.02564(18) 0.48813(18) 0.0520 Uani
C8IA C 0.51187(18) 0.85020(18) 0.47436(18) 0.0520 Uani
H3HA H 0.3506 1.0442 0.5060 0.0630 Uiso
H3IA H 0.4940 0.8506 0.4558 0.0630 Uiso
C9DA C 0.70807(18) 1.28866(19) 0.65657(19) 0.0543 Uani
C9EA C 0.84343(19) 1.29193(18) 0.78866(19) 0.0543 Uani
H4DA H 0.6991 1.2761 0.6773 0.0650 Uiso
H4EA H 0.8227 1.3009 0.7761 0.0650 Uiso
C10DA C 0.68347(17) 1.30151(19) 0.63046(19) 0.0533 Uani
C10EA C 0.86954(19) 1.31653(17) 0.80151(19) 0.0533 Uani
O7HA O 0.33369(16) 0.94788(17) 0.37539(16) 0.0853 Uani
O7IA O 0.62461(16) 0.83369(16) 0.55212(17) 0.0853 Uani
N4HA N 0.40590(14) 1.00304(15) 0.51467(14) 0.0543 Uani
N4IA N 0.48533(14) 0.90590(14) 0.49696(15) 0.0543 Uani
H5HA H 0.4035 1.0226 0.5281 0.0650 Uiso
H5IA H 0.4719 0.9035 0.4774 0.0650 Uiso
C11DA C 0.74772(18) 1.34472(17) 0.56160(18) 0.0457 Uani
C11EA C 0.93840(18) 1.25228(18) 0.84472(17) 0.0457 Uani
C12DA C 0.75808(17) 1.31098(16) 0.61973(18) 0.0487 Uani
C12EA C 0.88027(18) 1.24192(17) 0.81098(16) 0.0487 Uani
H6DA H 0.7834 1.3127 0.6149 0.0580 Uiso
H6EA H 0.8851 1.2166 0.8127 0.0580 Uiso
C13DA C 0.69647(18) 1.32091(17) 0.60035(17) 0.0473 Uani
C13EA C 0.89965(17) 1.30353(18) 0.82091(17) 0.0473 Uani
H7DA H 0.6796 1.3312 0.5838 0.0570 Uiso
H7EA H 0.9162 1.3204 0.8312 0.0570 Uiso
C14DA C 0.74581(18) 1.29391(16) 0.65273(17) 0.0450 Uani
C14EA C 0.84727(17) 1.25419(18) 0.79391(16) 0.0450 Uani
C15HA C 0.32174(19) 0.99767(18) 0.43461(18) 0.0547 Uani
C15IA C 0.56539(18) 0.82174(19) 0.50233(18) 0.0547 Uani
H8HA H 0.3032 0.9971 0.4167 0.0660 Uiso
H8IA H 0.5833 0.8032 0.5029 0.0660 Uiso
C16HA C 0.28934(17) 1.05252(18) 0.46636(19) 0.0480 Uani
C16IA C 0.53364(19) 0.78934(17) 0.44748(18) 0.0480 Uani
C17HA C 0.3501(2) 0.9413(2) 0.4038(2) 0.0583 Uani
C17IA C 0.5962(2) 0.8501(2) 0.5587(2) 0.0583 Uani
C18DA C 0.6412(2) 1.2957(3) 0.6375(3) 0.0923 Uani
C18EA C 0.8625(3) 1.3588(2) 0.7957(3) 0.0923 Uani
O8DA O 0.63317(17) 1.2620(3) 0.6469(3) 0.1680 Uani
O8EA O 0.8531(3) 1.36683(17) 0.7620(3) 0.1680 Uani
O9 O 0.58220(18) 1.06182(18) 0.80640(17) 0.0959 Uiso
loop_
_atom_site_aniso_label
_atom_site_aniso_U_11
_atom_site_aniso_U_22
_atom_site_aniso_U_33
_atom_site_aniso_U_23
_atom_site_aniso_U_13
_atom_site_aniso_U_12
Zn1 0.0409(6) 0.0420(6) 0.0424(6) -0.0126(5) 0.000 0.000
Zn2 0.0720(5) 0.0720(5) 0.0358(6) 0.0067(4) 0.0067(4) 0.0062(7)
O1 0.043(3) 0.044(3) 0.053(3) -0.008(2) -0.003(2) -0.008(2)
N1 0.040(3) 0.053(3) 0.048(3) 0.004(3) -0.004(2) -0.010(3)
C1 0.044(4) 0.035(3) 0.040(4) -0.003(3) -0.002(3) 0.002(3)
C2 0.035(4) 0.046(4) 0.039(4) 0.013(3) 0.002(3) -0.002(3)
O2 0.077(3) 0.100(4) 0.038(3) 0.022(3) 0.014(3) -0.004(3)
N2 0.044(3) 0.048(3) 0.058(4) -0.025(3) -0.023(3) 0.015(3)
O3 0.046(3) 0.057(3) 0.042(3) -0.018(2) -0.009(2) 0.008(2)
C3 0.056(4) 0.040(4) 0.044(4) 0.007(3) -0.015(4) 0.015(3)
C4 0.057(4) 0.049(4) 0.041(4) -0.007(3) 0.002(3) 0.010(3)
C5 0.048 0.048 0.05 -0.013 0.002 0.012
N3 0.078(4) 0.053(3) 0.038(3) 0.019(3) -0.030(3) -0.041(3)
C6 0.043(4) 0.055(4) 0.048(4) 0.000(3) -0.019(3) 0.009(3)
O4 0.095(4) 0.085(4) 0.092(4) -0.050(4) -0.046(3) 0.034(3)
O5 0.049 0.071 0.088 -0.012 -0.003 0.027
O6 0.131(5) 0.088(4) 0.051(3) -0.021(3) 0.028(3) -0.049(4)
C7 0.048 0.052 0.056 0.003 -0.005 0.017
C8 0.049(4) 0.051(4) 0.056(4) -0.008(3) -0.011(3) 0.024(3)
C9 0.063(5) 0.046(4) 0.054(5) -0.014(3) 0.000(4) -0.007(4)
C10 0.059(4) 0.067(5) 0.034(4) -0.009(3) 0.017(3) -0.027(4)
O7 0.097 0.053 0.106 -0.023 -0.011 0.022
N4 0.049(3) 0.064(4) 0.050(3) -0.024(3) -0.021(3) 0.029(3)
C11 0.050(4) 0.055(4) 0.032(4) -0.013(3) -0.002(3) -0.015(3)
C12 0.046(4) 0.059(4) 0.041(4) -0.006(3) -0.001(3) -0.016(3)
C13 0.051(4) 0.041(4) 0.050(4) -0.006(3) 0.007(3) -0.016(3)
C14 0.045(4) 0.047(4) 0.043(4) -0.003(3) -0.012(3) -0.014(3)
C15 0.056 0.056 0.052 -0.02 -0.001 0.016
C16 0.053(4) 0.044(4) 0.047(4) -0.015(3) -0.004(3) -0.008(3)
C17 0.07 0.051 0.054 -0.002 0.011 0.026
C18 0.132(8) 0.110(7) 0.035(4) 0.014(4) -0.025(5) -0.082(6)
O8 0.174(8) 0.267(10) 0.063(5) 0.000(5) -0.014(5) -0.135(8)
Zn1G 0.042 0.0424 0.0409 0 0 0.0126
Zn1H 0.0424 0.0409 0.042 0 0.0126 0
Zn1K 0.042 0.0424 0.0409 0 0 0.0126
Zn1BA 0.0424 0.0409 0.042 0 -0.0126 0
Zn2G 0.072 0.0358 0.072 -0.0067 0.0062 -0.0067
Zn2Q 0.0358 0.072 0.072 0.0062 0.0067 0.0067
Zn2T 0.072 0.0358 0.072 -0.0067 0.0062 -0.0067
Zn2U 0.0358 0.072 0.072 -0.0062 -0.0067 0.0067
Zn2B 0.072 0.072 0.0358 0.0067 -0.0067 -0.0062
O1DA 0.053 0.043 0.044 0.008 0.008 -0.003
O1EA 0.044 0.053 0.043 0.003 -0.008 0.008
O1B 0.043 0.044 0.053 -0.008 0.003 0.008
N1DA 0.048 0.04 0.053 0.01 -0.004 -0.004
N1EA 0.053 0.048 0.04 0.004 -0.01 -0.004
C1DA 0.04 0.044 0.035 -0.002 0.003 -0.002
C1EA 0.035 0.04 0.044 0.002 0.002 0.003
C2DA 0.039 0.035 0.046 0.002 -0.013 0.002
C2EA 0.046 0.039 0.035 -0.002 -0.002 -0.013
O2DA 0.038 0.077 0.1 0.004 -0.022 0.014
O2EA 0.1 0.038 0.077 -0.014 -0.004 -0.022
O2JA 0.1 0.077 0.038 0.014 0.022 -0.004
N2HA 0.058 0.044 0.048 -0.015 -0.025 0.023
N2IA 0.048 0.058 0.044 -0.023 -0.015 0.025
O3HA 0.042 0.046 0.057 -0.008 -0.018 0.009
O3IA 0.057 0.042 0.046 -0.009 -0.008 0.018
O3B 0.046 0.057 0.042 -0.018 0.009 -0.008
C3HA 0.044 0.056 0.04 -0.015 0.007 0.015
C3IA 0.04 0.044 0.056 -0.015 -0.015 -0.007
C4HA 0.041 0.057 0.049 -0.01 -0.007 -0.002
C4IA 0.049 0.041 0.057 0.002 -0.01 0.007
C5HA 0.05 0.048 0.048 -0.012 -0.013 -0.002
C5IA 0.048 0.05 0.048 0.002 -0.012 0.013
N3DA 0.038 0.078 0.053 0.041 -0.019 -0.03
N3EA 0.053 0.038 0.078 0.03 -0.041 -0.019
C6HA 0.048 0.043 0.055 -0.009 0 0.019
C6IA 0.055 0.048 0.043 -0.019 -0.009 0
O4HA 0.092 0.095 0.085 -0.034 -0.05 0.046
O4IA 0.085 0.092 0.095 -0.046 -0.034 0.05
O5HA 0.088 0.049 0.071 -0.027 -0.012 0.003
O5IA 0.071 0.088 0.049 -0.003 -0.027 0.012
O5Q 0.088 0.071 0.049 0.027 -0.003 -0.012
O5CA 0.071 0.088 0.049 -0.003 0.027 -0.012
O6DA 0.051 0.131 0.088 0.049 0.021 0.028
O6EA 0.088 0.051 0.131 -0.028 -0.049 0.021
C7HA 0.056 0.048 0.052 -0.017 0.003 0.005
C7IA 0.052 0.056 0.048 -0.005 -0.017 -0.003
C8HA 0.056 0.049 0.051 -0.024 -0.008 0.011
C8IA 0.051 0.056 0.049 -0.011 -0.024 0.008
C9DA 0.054 0.063 0.046 0.007 0.014 0
C9EA 0.046 0.054 0.063 0 -0.007 0.014
C10DA 0.034 0.059 0.067 0.027 0.009 0.017
C10EA 0.067 0.034 0.059 -0.017 -0.027 0.009
O7HA 0.106 0.097 0.053 -0.022 -0.023 0.011
O7IA 0.053 0.106 0.097 -0.011 -0.022 0.023
N4HA 0.05 0.049 0.064 -0.029 -0.024 0.021
N4IA 0.064 0.05 0.049 -0.021 -0.029 0.024
C11DA 0.032 0.05 0.055 0.015 0.013 -0.002
C11EA 0.055 0.032 0.05 0.002 -0.015 0.013
C12DA 0.041 0.046 0.059 0.016 0.006 -0.001
C12EA 0.059 0.041 0.046 0.001 -0.016 0.006
C13DA 0.05 0.051 0.041 0.016 0.006 0.007
C13EA 0.041 0.05 0.051 -0.007 -0.016 0.006
C14DA 0.043 0.045 0.047 0.014 0.003 -0.012
C14EA 0.047 0.043 0.045 0.012 -0.014 0.003
C15HA 0.052 0.056 0.056 -0.016 -0.02 0.001
C15IA 0.056 0.052 0.056 -0.001 -0.016 0.02
C16HA 0.047 0.053 0.044 0.008 -0.015 0.004
C16IA 0.044 0.047 0.053 -0.004 0.008 0.015
C17HA 0.054 0.07 0.051 -0.026 -0.002 -0.011
C17IA 0.051 0.054 0.07 0.011 -0.026 0.002
C18DA 0.035 0.132 0.11 0.082 -0.014 -0.025
C18EA 0.11 0.035 0.132 0.025 -0.082 -0.014
O8DA 0.063 0.174 0.267 0.135 0 -0.014
O8EA 0.267 0.063 0.174 0.014 -0.135 0
loop_
_geom_bond_atom_site_label_1
_geom_bond_atom_site_label_2
_geom_bond_site_symmetry_1
_geom_bond_site_symmetry_2
Zn1 O1 1_555 1_555
Zn2 O2 1_555 1_555
O1 C11 1_555 1_555
N1 C2 1_555 1_555
C1 C11 1_555 1_555
C2 N3 1_555 1_555
O2 C18 1_555 1_555
N2 C3 1_555 1_555
O3 Zn1 1_555 1_555
C3 N4 1_555 1_555
C4 C8 1_555 1_555
C5 C7 1_555 1_555
N3 H1 1_555 1_555
C6 C7 1_555 1_555
O4 C16 1_555 1_555
O5 C17 1_555 1_555
O6 C11 1_555 1_555
C7 H2 1_555 1_555
C8 C6 1_555 1_555
H3 C8 1_555 1_555
C9 H4 1_555 1_555
C10 C9 1_555 1_555
O7 C17 1_555 1_555
N4 C6 1_555 1_555
H5 N4 1_555 1_555
C12 C1 1_555 1_555
H6 C12 1_555 1_555
C13 C1 1_555 1_555
H7 C13 1_555 1_555
C14 N3 1_555 1_555
C15 C4 1_555 1_555
H8 C15 1_555 1_555
C16 O3 1_555 1_555
C17 C5 1_555 1_555
C18 C10 1_555 1_555
O8 C18 1_555 1_555
Zn1G O3IA 1_555 1_555
Zn1H O1DA 1_555 1_555
Zn1K O1EA 1_555 1_555
Zn1BA O3HA 1_555 1_555
Zn2G O5HA 1_555 1_555
Zn2Q O5 1_555 1_555
Zn2T O2EA 1_555 1_555
Zn2U O2DA 1_555 1_555
Zn2B O5IA 1_555 1_555
O1DA C11DA 1_555 1_555
O1EA C11EA 1_555 1_555
O1B Zn1 1_555 1_555
N1DA C2DA 1_555 1_555
N1EA C2 1_555 1_555
C1DA C11DA 1_555 1_555
C1EA C11EA 1_555 1_555
C2DA N1 1_555 1_555
C2EA N1DA 1_555 1_555
O2DA C18DA 1_555 1_555
O2EA C18EA 1_555 1_555
O2JA Zn2 1_555 1_555
N2HA C3HA 1_555 1_555
N2IA C3 1_555 1_555
O3HA C16HA 1_555 1_555
O3IA C16IA 1_555 1_555
O3B Zn1 1_555 1_555
C3HA N2 1_555 1_555
C3IA N2HA 1_555 1_555
C4HA C8HA 1_555 1_555
C4IA C8IA 1_555 1_555
C5HA C7HA 1_555 1_555
C5IA C7IA 1_555 1_555
N3DA C2DA 1_555 1_555
N3EA C2EA 1_555 1_555
H1DA N3DA 1_555 1_555
H1EA N3EA 1_555 1_555
C6HA C7HA 1_555 1_555
C6IA C7IA 1_555 1_555
O4HA C16HA 1_555 1_555
O4IA C16IA 1_555 1_555
O5HA C17HA 1_555 1_555
O5IA C17IA 1_555 1_555
O5Q Zn2 1_555 1_555
O5CA Zn2 1_555 1_555
O6DA C11DA 1_555 1_555
O6EA C11EA 1_555 1_555
C7HA H2HA 1_555 1_555
C7IA H2IA 1_555 1_555
C8HA C6HA 1_555 1_555
C8IA C6IA 1_555 1_555
H3HA C8HA 1_555 1_555
H3IA C8IA 1_555 1_555
C9DA H4DA 1_555 1_555
C9EA H4EA 1_555 1_555
C10DA C9DA 1_555 1_555
C10EA C9EA 1_555 1_555
O7HA C17HA 1_555 1_555
O7IA C17IA 1_555 1_555
N4HA C3HA 1_555 1_555
N4IA C3IA 1_555 1_555
H5HA N4HA 1_555 1_555
H5IA N4IA 1_555 1_555
C12DA C1DA 1_555 1_555
C12EA C1EA 1_555 1_555
H6DA C12DA 1_555 1_555
H6EA C12EA 1_555 1_555
C13DA C1DA 1_555 1_555
C13EA C1EA 1_555 1_555
H7DA C13DA 1_555 1_555
H7EA C13EA 1_555 1_555
C14DA N3DA 1_555 1_555
C14EA N3EA 1_555 1_555
C15HA C4HA 1_555 1_555
C15IA C4IA 1_555 1_555
H8HA C15HA 1_555 1_555
H8IA C15IA 1_555 1_555
C16HA C4HA 1_555 1_555
C16IA C4IA 1_555 1_555
C17HA C5HA 1_555 1_555
C17IA C5IA 1_555 1_555
C18DA C10DA 1_555 1_555
C18EA C10EA 1_555 1_555
O8DA C18DA 1_555 1_555
O8EA C18EA 1_555 1_555
C4 C16 1_555 1_555
C5 C15 1_555 1_555
C9 C14 1_555 1_555
C10 C13 1_555 1_555
C12 C14 1_555 1_555
N1EA C2EA 1_555 1_555
N2IA C3IA 1_555 1_555
C5HA C15HA 1_555 1_555
C5IA C15IA 1_555 1_555
C6HA N4HA 1_555 1_555
C6IA N4IA 1_555 1_555
C9DA C14DA 1_555 1_555
C9EA C14EA 1_555 1_555
C10DA C13DA 1_555 1_555
C10EA C13EA 1_555 1_555
C12DA C14DA 1_555 1_555
C12EA C14EA 1_555 1_555

#END
