
#######################################################################
#
#                 Cambridge Crystallographic Data Centre
#                                CCDC 
#
#######################################################################
#
# If this CIF has been generated from an entry in the Cambridge 
# Structural Database, then it will include bibliographic, chemical, 
# crystal, experimental, refinement or atomic coordinate data resulting 
# from the CCDC's data processing and validation procedures.
#
#######################################################################

data_GAHPEN
_chemical_formula_moiety         '(C56 H38 Cd3 N2 O12)n'
_symmetry_cell_setting           triclinic
_symmetry_space_group_name_H-M   'P -1'
_symmetry_Int_Tables_number      2
_space_group_name_Hall           '-P 1'
loop_
_symmetry_equiv_pos_site_id
_symmetry_equiv_pos_as_xyz
1 x,y,z
2 -x,-y,-z
_cell_length_a                   9.2637(14)
_cell_length_b                   13.273(2)
_cell_length_c                   14.160(2)
_cell_angle_alpha                116.073(2)
_cell_angle_beta                 91.045(3)
_cell_angle_gamma                105.585(2)
_cell_volume                     1487.58
loop_
_atom_site_label
_atom_site_type_symbol
_atom_site_fract_x
_atom_site_fract_y
_atom_site_fract_z
C1 C 0.7158(7) 0.0223(5) 0.1347(5)
C2 C 0.7679(7) 0.0888(5) 0.2505(5)
C3 C 0.6967(8) 0.1652(6) 0.3185(5)
H1 H 0.6116 0.1743 0.2913
C4 C 0.7506(8) 0.2276(6) 0.4256(5)
H2 H 0.7011 0.2785 0.4700
C5 C 0.8772(7) 0.2167(5) 0.4694(5)
C6 C 0.9470(8) 0.1400(6) 0.3998(5)
H3 H 1.0327 0.1318 0.4271
C7 C 0.8963(8) 0.0768(6) 0.2945(5)
H4 H 0.9457 0.0254 0.2508
C8 C 0.9415(8) 0.2845(5) 0.5870(5)
H5 H 1.0522 0.3060 0.5920
C9 C 0.8974(8) 0.2094(6) 0.6448(5)
C10 C 0.9961(9) 0.2344(6) 0.7332(6)
H6 H 1.0894 0.2926 0.7526
C11 C 0.9588(8) 0.1755(6) 0.7919(6)
H7 H 1.0251 0.1949 0.8516
C12 C 0.8208(8) 0.0860(6) 0.7621(5)
C13 C 0.7287(9) 0.0573(6) 0.6735(6)
H8 H 0.6387 -0.0047 0.6507
C14 C 0.7675(8) 0.1201(6) 0.6157(6)
H9 H 0.7018 0.0996 0.5553
C15 C 0.7819(9) 0.0243(6) 0.8302(6)
C16 C 0.9032(8) 0.4001(5) 0.6446(5)
C17 C 0.7789(8) 0.4077(6) 0.6945(5)
H10 H 0.7117 0.3396 0.6912
C18 C 0.7508(8) 0.5143(5) 0.7500(5)
H11 H 0.6639 0.5167 0.7818
C19 C 0.8499(8) 0.6166(5) 0.7585(5)
C20 C 0.9698(8) 0.6085(6) 0.7041(6)
H12 H 1.0354 0.6762 0.7056
C21 C 0.9949(8) 0.5023(6) 0.6473(6)
H13 H 1.0761 0.4990 0.6095
C22 C 0.8275(8) 0.7333(5) 0.8260(5)
C23 C 0.2691(10) -0.2687(8) -0.0773(8)
H14 H 0.2380 -0.2287 -0.1095
C24 C 0.1584(10) -0.3469(8) -0.0564(8)
H15 H 0.0565 -0.3574 -0.0746
C25 C 0.1960(9) -0.4076(8) -0.0101(8)
C26 C 0.3450(10) -0.3792(9) 0.0206(9)
H16 H 0.3778 -0.4152 0.0565
C27 C 0.4529(11) -0.2977(9) 0.0008(9)
H17 H 0.5547 -0.2778 0.0270
C28 C 0.0789(8) -0.4912(8) 0.0174(8)
H18 H 0.0967 -0.5672 -0.0141
H19 H 0.0945 -0.4613 0.0941
Cd1 Cd 1.0000 0.0000 0.0000
Cd2 Cd 0.60028(5) -0.11647(4) -0.08142(3)
N1 N 0.4139(6) -0.2482(5) -0.0542(5)
O1 O 0.7814(5) -0.0496(3) 0.0748(3)
O2 O 0.6057(5) 0.0356(4) 0.0935(3)
O3 O 0.8613(7) 0.0594(5) 0.9140(4)
O4 O 0.6618(6) -0.0627(5) 0.7953(5)
O5 O 0.9413(6) 0.8204(4) 0.8636(4)
O6 O 0.6948(6) 0.7328(4) 0.8415(4)
C23A C -0.2691(10) -0.7313(8) 0.0773(8)
H14A H -0.2380 -0.7713 0.1095
C24A C -0.1584(10) -0.6531(8) 0.0564(8)
H15A H -0.0565 -0.6426 0.0746
C25A C -0.1960(9) -0.5924(8) 0.0101(8)
C26A C -0.3450(10) -0.6208(9) -0.0206(9)
H16A H -0.3778 -0.5848 -0.0565
C27A C -0.4529(11) -0.7023(9) -0.0008(9)
H17A H -0.5547 -0.7222 -0.0270
C28A C -0.0789(8) -0.5088(8) -0.0174(8)
H18A H -0.0967 -0.4328 0.0141
H19A H -0.0945 -0.5387 -0.0941
N1A N -0.4139(6) -0.7518(5) 0.0542(5)
C1A C -0.7158(7) -1.0223(5) -0.1347(5)
C2A C -0.7679(7) -1.0888(5) -0.2505(5)
C3A C -0.6967(8) -1.1652(6) -0.3185(5)
H1A H -0.6116 -1.1743 -0.2913
C4A C -0.7506(8) -1.2276(6) -0.4256(5)
H2A H -0.7011 -1.2785 -0.4700
C5A C -0.8772(7) -1.2167(5) -0.4694(5)
C6A C -0.9470(8) -1.1400(6) -0.3998(5)
H3A H -1.0327 -1.1318 -0.4271
C7A C -0.8963(8) -1.0768(6) -0.2945(5)
H4A H -0.9457 -1.0254 -0.2508
C8A C -0.9415(8) -1.2845(5) -0.5870(5)
H5A H -1.0522 -1.3060 -0.5920
C9A C -0.8974(8) -1.2094(6) -0.6448(5)
C10A C -0.9961(9) -1.2344(6) -0.7332(6)
H6A H -1.0894 -1.2926 -0.7526
C11A C -0.9588(8) -1.1755(6) -0.7919(6)
H7A H -1.0251 -1.1949 -0.8516
C12A C -0.8208(8) -1.0860(6) -0.7621(5)
C13A C -0.7287(9) -1.0573(6) -0.6735(6)
H8A H -0.6387 -0.9953 -0.6507
C14A C -0.7675(8) -1.1201(6) -0.6157(6)
H9A H -0.7018 -1.0996 -0.5553
C15A C -0.7819(9) -1.0243(6) -0.8302(6)
C16A C -0.9032(8) -1.4001(5) -0.6446(5)
C17A C -0.7789(8) -1.4077(6) -0.6945(5)
H10A H -0.7117 -1.3396 -0.6912
C18A C -0.7508(8) -1.5143(5) -0.7500(5)
H11A H -0.6639 -1.5167 -0.7818
C19A C -0.8499(8) -1.6166(5) -0.7585(5)
C20A C -0.9698(8) -1.6085(6) -0.7041(6)
H12A H -1.0354 -1.6762 -0.7056
C21A C -0.9949(8) -1.5023(6) -0.6473(6)
H13A H -1.0761 -1.4990 -0.6095
C22A C -0.8275(8) -1.7333(5) -0.8260(5)
Cd2A Cd -0.60028(5) -0.88353(4) 0.08142(3)
O1A O -0.7814(5) -0.9504(3) -0.0748(3)
O2A O -0.6057(5) -1.0356(4) -0.0935(3)
O3A O -0.8613(7) -1.0594(5) -0.9140(4)
O4A O -0.6618(6) -0.9373(5) -0.7953(5)
O5A O -0.9413(6) -1.8204(4) -0.8636(4)
O6A O -0.6948(6) -1.7328(4) -0.8415(4)
Cd1_2 Cd -1.0000 -2.0000 -1.0000
Cd1_3 Cd -1.0000 -1.0000 -1.0000
Cd1_4 Cd -1.0000 -1.0000 0.0000
Cd1_5 Cd 1.0000 -0.0000 1.0000
Cd1_6 Cd 1.0000 1.0000 1.0000
Cd2_2 Cd -0.39972(5) -1.11647(4) -0.08142(3)
Cd2_3 Cd 0.60028(5) -0.11647(4) 0.91858(3)
Cd2_4 Cd 0.60028(5) 0.88353(4) 0.91858(3)
Cd2A_2 Cd -0.60028(5) -1.88353(4) -0.91858(3)
Cd2A_3 Cd -0.60028(5) -0.88353(4) -0.91858(3)
Cd2A_4 Cd 0.39972(5) 0.11647(4) 0.08142(3)
O1A_2 O 1.2186(5) 0.0496(3) -0.0748(3)
O2_2 O -0.3943(5) -0.9644(4) 0.0935(3)
O2A_2 O 0.3943(5) -0.0356(4) -0.0935(3)
O3_2 O 0.8613(7) 0.0594(5) -0.0860(4)
O3A_2 O 1.1387(7) -0.0594(5) 0.0860(4)
O4_2 O 0.6618(6) -0.0627(5) -0.2047(5)
O4A_2 O -0.6618(6) -0.9373(5) 0.2047(5)
O5_2 O 0.9413(6) -0.1796(4) -0.1364(4)
O5A_2 O 1.0587(6) 0.1796(4) 0.1364(4)
O6_2 O 0.6948(6) -0.2672(4) -0.1585(4)
O6A_2 O -0.6948(6) -0.7328(4) 0.1585(4)
loop_
_geom_bond_atom_site_label_1
_geom_bond_atom_site_label_2
_geom_bond_site_symmetry_1
_geom_bond_site_symmetry_2
C1 C2 1_555 1_555
C2 C3 1_555 1_555
C3 H1 1_555 1_555
C4 C3 1_555 1_555
H2 C4 1_555 1_555
C5 C4 1_555 1_555
C6 C5 1_555 1_555
H3 C6 1_555 1_555
C7 C2 1_555 1_555
H4 C7 1_555 1_555
C8 C5 1_555 1_555
H5 C8 1_555 1_555
C9 C8 1_555 1_555
C10 C9 1_555 1_555
H6 C10 1_555 1_555
C11 C10 1_555 1_555
H7 C11 1_555 1_555
C12 C11 1_555 1_555
C13 C12 1_555 1_555
H8 C13 1_555 1_555
C14 C9 1_555 1_555
H9 C14 1_555 1_555
C15 C12 1_555 1_555
C16 C8 1_555 1_555
C17 C16 1_555 1_555
H10 C17 1_555 1_555
C18 C17 1_555 1_555
H11 C18 1_555 1_555
C19 C18 1_555 1_555
C20 C19 1_555 1_555
H12 C20 1_555 1_555
C21 C16 1_555 1_555
H13 C21 1_555 1_555
C22 C19 1_555 1_555
C23 H14 1_555 1_555
C24 C23 1_555 1_555
H15 C24 1_555 1_555
C25 C24 1_555 1_555
C26 C25 1_555 1_555
H16 C26 1_555 1_555
C27 C26 1_555 1_555
H17 C27 1_555 1_555
C28 C25 1_555 1_555
H18 C28 1_555 1_555
H19 C28 1_555 1_555
Cd1 O1 1_555 1_555
Cd2 N1 1_555 1_555
N1 C23 1_555 1_555
O1 C1 1_555 1_555
O2 C1 1_555 1_555
O3 C15 1_555 1_555
O4 C15 1_555 1_555
O5 C22 1_555 1_555
O6 C22 1_555 1_555
C23A H14A 1_555 1_555
C24A C23A 1_555 1_555
H15A C24A 1_555 1_555
C25A C24A 1_555 1_555
C26A C25A 1_555 1_555
H16A C26A 1_555 1_555
C27A C26A 1_555 1_555
H17A C27A 1_555 1_555
C28A C28 1_555 1_555
H18A C28A 1_555 1_555
H19A C28A 1_555 1_555
N1A C23A 1_555 1_555
C1A C2A 1_555 1_555
C2A C3A 1_555 1_555
C3A H1A 1_555 1_555
C4A C3A 1_555 1_555
H2A C4A 1_555 1_555
C5A C4A 1_555 1_555
C6A C5A 1_555 1_555
H3A C6A 1_555 1_555
C7A C2A 1_555 1_555
H4A C7A 1_555 1_555
C8A C5A 1_555 1_555
H5A C8A 1_555 1_555
C9A C8A 1_555 1_555
C10A C9A 1_555 1_555
H6A C10A 1_555 1_555
C11A C10A 1_555 1_555
H7A C11A 1_555 1_555
C12A C11A 1_555 1_555
C13A C12A 1_555 1_555
H8A C13A 1_555 1_555
C14A C9A 1_555 1_555
H9A C14A 1_555 1_555
C15A C12A 1_555 1_555
C16A C8A 1_555 1_555
C17A C16A 1_555 1_555
H10A C17A 1_555 1_555
C18A C17A 1_555 1_555
H11A C18A 1_555 1_555
C19A C18A 1_555 1_555
C20A C19A 1_555 1_555
H12A C20A 1_555 1_555
C21A C16A 1_555 1_555
H13A C21A 1_555 1_555
C22A C19A 1_555 1_555
Cd2A N1A 1_555 1_555
O1A C1A 1_555 1_555
O2A C1A 1_555 1_555
O3A C15A 1_555 1_555
O4A C15A 1_555 1_555
O5A C22A 1_555 1_555
O6A C22A 1_555 1_555
Cd1_2 O5A 1_555 1_555
Cd1_3 O3A 1_555 1_555
Cd1_4 O1A 1_555 1_555
Cd1_5 O3 1_555 1_555
Cd1_6 O5 1_555 1_555
Cd2_2 O2A 1_555 1_555
Cd2_3 O4 1_555 1_555
Cd2_4 O6 1_555 1_555
Cd2A_2 O6A 1_555 1_555
Cd2A_3 O4A 1_555 1_555
Cd2A_4 O2 1_555 1_555
O1A_2 Cd1 1_555 1_555
O2_2 Cd2A 1_555 1_555
O2A_2 Cd2 1_555 1_555
O3_2 Cd1 1_555 1_555
O3A_2 Cd1 1_555 1_555
O4_2 Cd2 1_555 1_555
O4A_2 Cd2A 1_555 1_555
O5_2 Cd1 1_555 1_555
O5A_2 Cd1 1_555 1_555
O6_2 Cd2 1_555 1_555
O6A_2 Cd2A 1_555 1_555
C6 C7 1_555 1_555
C13 C14 1_555 1_555
C20 C21 1_555 1_555
C27 N1 1_555 1_555
Cd2 O1 1_555 1_555
Cd2 O2 1_555 1_555
C25A C28A 1_555 1_555
C27A N1A 1_555 1_555
C6A C7A 1_555 1_555
C13A C14A 1_555 1_555
C20A C21A 1_555 1_555
Cd2A O1A 1_555 1_555
Cd2A O2A 1_555 1_555
Cd2_2 O2_2 1_555 1_555
Cd2A_4 O2A_2 1_555 1_555

#END
