
#######################################################################
#
#                 Cambridge Crystallographic Data Centre
#                                CCDC 
#
#######################################################################
#
# If this CIF has been generated from an entry in the Cambridge 
# Structural Database, then it will include bibliographic, chemical, 
# crystal, experimental, refinement or atomic coordinate data resulting 
# from the CCDC's data processing and validation procedures.
#
#######################################################################

data_GOSKEG
_chemical_formula_moiety         '(C136 H94 N10 O26 Zn6)n'
_symmetry_cell_setting           triclinic
_symmetry_space_group_name_H-M   'P -1'
_symmetry_Int_Tables_number      2
_space_group_name_Hall           '-P 1'
loop_
_symmetry_equiv_pos_site_id
_symmetry_equiv_pos_as_xyz
1 x,y,z
2 -x,-y,-z
_cell_length_a                   10.117(5)
_cell_length_b                   29.539(5)
_cell_length_c                   29.556(5)
_cell_angle_alpha                91.446(5)
_cell_angle_beta                 93.321(5)
_cell_angle_gamma                91.615(5)
_cell_volume                     8811.16
loop_
_atom_site_label
_atom_site_type_symbol
_atom_site_fract_x
_atom_site_fract_y
_atom_site_fract_z
Zn1 Zn 0.10060(6) 0.767944(18) 0.224255(18)
Zn2 Zn 0.39529(6) 0.772337(18) 0.233517(18)
Zn3 Zn -0.26718(6) 0.961429(19) 0.40323(2)
Zn4 Zn -0.23600(6) 0.595315(19) 1.037753(19)
Zn5 Zn 0.75233(6) 0.948250(19) 0.051120(19)
Zn6 Zn -0.25868(7) 0.59400(2) 0.40641(2)
C1 C 0.1180(6) 0.62371(17) 0.37162(18)
C2 C 0.1177(6) 0.65635(17) 0.33843(17)
H1 H 0.0355 0.6666 0.3260
C3 C 0.2318(6) 0.67370(18) 0.32344(18)
C4 C 0.3510(6) 0.65871(18) 0.34109(17)
H2 H 0.4315 0.6709 0.3308
C5 C 0.3545(6) 0.62528(18) 0.37451(17)
C6 C 0.2366(6) 0.60899(18) 0.38902(18)
H3 H 0.2374 0.5869 0.4118
C7 C -0.0088(6) 0.60537(19) 0.38897(19)
C8 C 0.2328(7) 0.70924(17) 0.28789(17)
C9 C 0.1563(5) 0.62729(17) 1.07336(16)
C10 C 0.2723(5) 0.61198(17) 1.05669(16)
H4 H 0.2680 0.5899 1.0327
C11 C 0.3948(5) 0.62831(16) 1.07446(16)
C12 C 0.3991(5) 0.66010(17) 1.10964(17)
H5 H 0.4826 0.6714 1.1222
C13 C 0.2837(5) 0.67602(16) 1.12711(16)
C14 C 0.1636(6) 0.65937(17) 1.10821(17)
H6 H 0.0841 0.6703 1.1195
C15 C 0.0272(5) 0.60809(19) 1.05370(18)
C16 C 0.5163(5) 0.61123(18) 1.05522(17)
C17 C 0.2872(7) 0.70988(17) 1.16674(18)
C18 C -0.1630(6) 0.9002(2) 0.97352(19)
H7 H -0.1106 0.8870 0.9972
C19 C -0.1500(6) 0.8849(2) 0.9299(2)
H8 H -0.0896 0.8616 0.9242
C20 C -0.2244(6) 0.90296(19) 0.89323(19)
C21 C -0.3070(6) 0.9370(2) 0.90507(19)
H9 H -0.3581 0.9517 0.8821
C22 C -0.3168(6) 0.95050(17) 0.95069(17)
H10 H -0.3770 0.9734 0.9578
C23 C -0.1143(7) 0.8321(3) 0.7968(2)
H11 H -0.0424 0.8131 0.7912
C24 C -0.1132(7) 0.8559(3) 0.8376(2)
H12 H -0.0405 0.8534 0.8591
C25 C -0.2159(6) 0.8832(2) 0.84738(18)
C26 C -0.3121(6) 0.88958(19) 0.81300(18)
H13 H -0.3789 0.9109 0.8176
C27 C -0.3130(6) 0.86534(19) 0.77168(19)
H14 H -0.3810 0.8700 0.7489
C28 C -0.3329(7) 0.6418(2) 0.9580(2)
H15 H -0.4035 0.6472 0.9771
C29 C -0.3326(7) 0.6638(3) 0.9176(2)
H16 H -0.4019 0.6837 0.9097
C30 C -0.2327(6) 0.6574(2) 0.88828(18)
C31 C -0.1428(7) 0.6270(2) 0.9021(2)
H17 H -0.0744 0.6194 0.8828
C32 C -0.1477(7) 0.6066(2) 0.9437(2)
H18 H -0.0795 0.5866 0.9523
C33 C -0.1199(8) 0.7025(2) 0.7787(2)
H19 H -0.0511 0.6968 0.7590
C34 C -0.1257(7) 0.6775(2) 0.8178(2)
H20 H -0.0605 0.6557 0.8245
C35 C -0.2247(6) 0.6840(2) 0.84635(18)
C36 C -0.3194(8) 0.7162(3) 0.8352(2)
H21 H -0.3894 0.7214 0.8546
C37 C -0.3111(8) 0.7405(3) 0.7957(2)
H22 H -0.3780 0.7614 0.7881
C38 C -0.2167(6) 0.8349(2) 0.76369(18)
C39 C -0.2089(6) 0.7353(2) 0.76727(18)
C40 C -0.2048(6) 0.7603(2) 0.72413(18)
C41 C -0.2182(6) 0.8050(2) 0.72218(17)
C42 C -0.2361(6) 0.8287(2) 0.67845(17)
C43 C -0.3102(6) 0.81097(19) 0.63997(19)
H23 H -0.3546 0.7824 0.6420
C44 C -0.3212(6) 0.83271(19) 0.60021(18)
H24 H -0.3713 0.8190 0.5751
C45 C -0.2583(5) 0.87588(19) 0.59584(17)
C46 C -0.1931(6) 0.8954(2) 0.63391(19)
H25 H -0.1540 0.9250 0.6325
C47 C -0.1838(6) 0.8725(2) 0.67415(18)
H26 H -0.1400 0.8872 0.7000
C48 C -0.2886(10) 0.8962(3) 0.4723(3)
H27 H -0.2938 0.8762 0.4465
C49 C -0.3066(10) 0.8784(3) 0.5152(3)
H28 H -0.3521 0.8499 0.5167
C50 C -0.2652(6) 0.8983(2) 0.55210(18)
C51 C -0.2152(11) 0.9382(3) 0.5454(3)
H29 H -0.1810 0.9557 0.5711
C52 C -0.2085(11) 0.9572(3) 0.5020(3)
H30 H -0.1595 0.9848 0.4994
C53 C -0.1924(7) 0.7303(2) 0.68394(18)
C54 C -0.2811(8) 0.6944(2) 0.6750(2)
H31 H -0.3448 0.6873 0.6963
C55 C -0.2787(9) 0.6686(3) 0.6356(3)
H32 H -0.3411 0.6442 0.6303
C56 C -0.1873(8) 0.6775(2) 0.6036(2)
C57 C -0.0963(7) 0.7110(3) 0.6130(2)
H33 H -0.0311 0.7172 0.5920
C58 C -0.0960(7) 0.7374(2) 0.6541(2)
H34 H -0.0285 0.7600 0.6607
C59 C -0.2694(11) 0.5977(3) 0.5027(3)
H35 H -0.3145 0.5691 0.4988
C60 C -0.2552(11) 0.6168(4) 0.5483(3)
H36 H -0.2944 0.6008 0.5718
C61 C -0.1927(8) 0.6543(3) 0.5587(2)
C62 C -0.1607(9) 0.6791(3) 0.5195(3)
H37 H -0.1311 0.7099 0.5224
C63 C -0.1738(10) 0.6571(3) 0.4770(3)
H38 H -0.1423 0.6724 0.4517
C64 C 0.7024(6) 1.27613(17) 0.2403(2)
C65 C 0.7164(6) 1.27795(17) 0.1953(2)
C66 C 0.7070(6) 1.23368(18) 0.2663(2)
C67 C 0.8095(7) 1.2038(2) 0.2617(3)
H39 H 0.8773 1.2108 0.2419
C68 C 0.8148(7) 1.1644(2) 0.2851(3)
H40 H 0.8825 1.1437 0.2794
C69 C 0.7246(6) 1.15399(19) 0.3168(2)
C70 C 0.6263(8) 1.1833(2) 0.3215(2)
H41 H 0.5604 1.1769 0.3422
C71 C 0.6190(7) 1.2231(2) 0.2962(3)
H42 H 0.5487 1.2431 0.3008
C72 C 0.8343(6) 1.0419(2) 0.3618(2)
H43 H 0.9094 1.0236 0.3596
C73 C 0.8338(7) 1.0836(2) 0.3399(3)
H44 H 0.9063 1.0919 0.3225
C74 C 0.7351(6) 1.11112(18) 0.3430(2)
C75 C 0.6368(7) 1.0979(2) 0.3707(2)
H45 H 0.5669 1.1177 0.3763
C76 C 0.6395(7) 1.0564(2) 0.3902(2)
H46 H 0.5691 1.0478 0.4084
C77 C 0.6775(9) 1.3983(2) 0.3207(2)
C78 C 0.7702(9) 1.3652(2) 0.3316(3)
H47 H 0.8325 1.3704 0.3566
C79 C 0.7720(9) 1.3253(2) 0.3065(3)
H48 H 0.8336 1.3030 0.3153
C80 C 0.6879(7) 1.31667(18) 0.2692(2)
C81 C 0.5918(6) 1.3483(2) 0.2597(2)
H49 H 0.5276 1.3422 0.2354
C82 C 0.5874(7) 1.3883(2) 0.2847(2)
H50 H 0.5210 1.4093 0.2770
C83 C 0.6668(9) 1.5237(2) 0.3418(2)
H51 H 0.6426 1.5495 0.3250
C84 C 0.6476(9) 1.4818(2) 0.3210(2)
H52 H 0.6082 1.4793 0.2911
C85 C 0.6858(8) 1.4429(2) 0.3437(2)
C86 C 0.7306(11) 1.4513(3) 0.3866(3)
H53 H 0.7509 1.4265 0.4054
C87 C 0.7490(10) 1.4963(3) 0.4051(3)
H54 H 0.7875 1.5003 0.4350
C88 C 0.7328(6) 1.32063(17) 0.1708(2)
C89 C 0.8073(6) 1.35780(18) 0.1891(2)
H55 H 0.8517 1.3554 0.2181
C90 C 0.8189(6) 1.39762(19) 0.1667(2)
H56 H 0.8684 1.4224 0.1809
C91 C 0.7601(6) 1.40257(17) 0.1239(2)
C92 C 0.6915(6) 1.36485(19) 0.1036(2)
H57 H 0.6526 1.3666 0.0737
C93 C 0.6801(6) 1.32448(19) 0.1273(2)
H58 H 0.6344 1.2991 0.1128
C94 C 0.8318(10) 1.5241(3) 0.0954(3)
H59 H 0.8815 1.5487 0.1098
C95 C 0.8374(9) 1.4806(3) 0.1162(3)
H60 H 0.8965 1.4769 0.1419
C96 C 0.7634(6) 1.44618(18) 0.1006(2)
C97 C 0.6916(9) 1.4553(2) 0.0611(2)
H61 H 0.6389 1.4316 0.0463
C98 C 0.6930(9) 1.4975(2) 0.0420(2)
H62 H 0.6393 1.5019 0.0151
C99 C 0.7139(6) 1.23537(18) 0.1666(2)
C100 C 0.6122(6) 1.20260(19) 0.1696(2)
H63 H 0.5401 1.2085 0.1879
C101 C 0.6160(7) 1.1621(2) 0.1463(3)
H64 H 0.5470 1.1402 0.1496
C102 C 0.7143(6) 1.15176(18) 0.1185(2)
C103 C 0.8085(6) 1.18518(18) 0.1118(2)
H65 H 0.8739 1.1801 0.0906
C104 C 0.8087(6) 1.22653(18) 0.13599(19)
H66 H 0.8753 1.2490 0.1313
C105 C 0.6684(6) 1.02547(17) 0.10288(18)
H67 H 0.6200 1.0020 0.1165
C106 C 0.6575(6) 1.06853(18) 0.1179(2)
H68 H 0.6033 1.0746 0.1424
C107 C 0.7243(6) 1.10469(18) 0.09817(19)
C108 C 0.7993(6) 1.09336(17) 0.06355(19)
H69 H 0.8450 1.1165 0.0484
C109 C 0.8110(6) 1.04852(17) 0.04970(18)
H70 H 0.8666 1.0416 0.0258
C110 C 0.1044(5) 0.92390(17) 0.37101(17)
C111 C 0.2228(5) 0.94170(16) 0.38720(17)
H71 H 0.2263 0.9654 0.4096
C112 C 0.3400(5) 0.92538(16) 0.37124(16)
C113 C 0.3339(5) 0.89122(16) 0.34001(16)
H72 H 0.4140 0.8800 0.3295
C114 C 0.2141(6) 0.87194(17) 0.32276(17)
C115 C 0.0975(5) 0.88872(16) 0.33881(17)
H73 H 0.0140 0.8762 0.3278
C116 C -0.0204(6) 0.94321(18) 0.38836(19)
C117 C 0.4717(5) 0.94621(18) 0.38977(19)
C118 C 0.2095(7) 0.83281(18) 0.28866(17)
C119 C 0.2582(5) 0.86678(15) 0.13438(16)
C120 C 0.3765(6) 0.88163(16) 0.11728(17)
H74 H 0.4580 0.8696 0.1283
C121 C 0.3754(5) 0.91450(16) 0.08372(16)
C122 C 0.2556(5) 0.93112(17) 0.06923(17)
H75 H 0.2541 0.9535 0.0467
C123 C 0.1368(5) 0.91696(16) 0.08578(16)
C124 C 0.1393(5) 0.88387(16) 0.11801(16)
H76 H 0.0586 0.8727 0.1290
C125 C 0.2593(6) 0.83065(16) 0.17015(17)
C126 C 0.5000(6) 0.93088(18) 0.06419(18)
C127 C 0.7351(12) 0.8302(3) 0.3169(4)
H77 H 0.6594 0.8413 0.2986
H78 H 0.8169 0.8451 0.3079
H79 H 0.7238 0.8370 0.3490
C128 C 0.8532(8) 0.7592(4) 0.3345(3)
H80 H 0.8525 0.7266 0.3275
H81 H 0.8445 0.7643 0.3671
H82 H 0.9368 0.7732 0.3259
C129 C 0.6569(8) 0.7625(3) 0.2775(3)
C130 C 0.6689(9) 0.7083(3) 0.2714(3)
H83 H 0.6037 0.6969 0.2477
H84 H 0.6520 0.6939 0.3000
H85 H 0.7582 0.7014 0.2626
C131 C -0.2508(9) 0.7107(3) 0.1474(3)
H86 H -0.1758 0.6993 0.1658
H87 H -0.2423 0.7020 0.1155
H88 H -0.3337 0.6977 0.1577
C132 C -0.3601(9) 0.7865(4) 0.1261(3)
H89 H -0.3513 0.8193 0.1322
H90 H -0.4464 0.7754 0.1353
H91 H -0.3531 0.7802 0.0936
C133 C -0.1674(7) 0.7826(2) 0.1817(2)
C134 C -0.1646(9) 0.8332(3) 0.1886(3)
H92 H -0.0947 0.8422 0.2117
H93 H -0.2504 0.8427 0.1987
H94 H -0.1469 0.8477 0.1600
C135 C 0.0101(6) 0.93642(19) 0.06860(17)
C136 C 0.4822(6) 0.60874(19) 0.39363(19)
N1 N 0.7433(6) 0.7795(3) 0.3095(2)
N2 N -0.2520(6) 0.7631(2) 0.1525(2)
N3 N -0.2413(5) 0.61349(14) 0.97202(14)
N4 N -0.2449(4) 0.93235(14) 0.98432(14)
N5 N -0.2651(5) 0.93898(15) 0.46654(15)
N6 N -0.2304(6) 0.61420(17) 0.47023(17)
N7 N 0.7373(5) 1.02736(15) 0.38480(15)
N8 N 0.7463(4) 1.01490(13) 0.06901(14)
N9 N 0.7649(4) 1.53133(15) 0.05937(15)
N10 N 0.7171(5) 1.53027(15) 0.38379(16)
O1 O -0.1149(4) 0.62364(13) 0.37475(13)
O2 O -0.0051(4) 0.57444(14) 0.41638(14)
O3 O 0.1224(4) 0.72127(12) 0.27200(12)
O4 O 0.3452(4) 0.72336(12) 0.27721(11)
O5 O 0.5875(4) 0.62537(12) 0.37829(12)
O6 O 0.4865(4) 0.58104(14) 0.42402(14)
O7 O -0.0767(4) 0.62469(12) 1.06860(12)
O8 O 0.0227(4) 0.57770(13) 1.02382(12)
O9 O 0.5081(3) 0.58014(12) 1.02541(12)
O10 O 0.6278(3) 0.62952(11) 1.06956(11)
O11 O 0.3977(4) 0.72330(11) 1.18350(11)
O12 O 0.1766(4) 0.72194(12) 1.17869(11)
O13 O -0.0091(4) 0.97215(12) 0.42068(13)
O14 O -0.1307(4) 0.92917(11) 0.36985(11)
O15 O 0.4740(4) 0.97602(12) 0.42072(12)
O16 O 0.5745(3) 0.93192(12) 0.37263(12)
O17 O 0.3200(4) 0.81932(12) 0.27814(12)
O18 O 0.0997(4) 0.81771(12) 0.27351(12)
O19 O 0.1487(4) 0.81633(11) 0.18136(11)
O20 O 0.3708(4) 0.81810(12) 0.18525(12)
O21 O 0.6087(4) 0.91648(12) 0.08169(12)
O22 O 0.4934(4) 0.95724(12) 0.03188(13)
O23 O -0.0958(3) 0.91784(11) 0.08190(11)
O24 O 0.0131(4) 0.96955(12) 0.04266(12)
O25 O -0.0895(4) 0.75813(13) 0.20580(13)
O26 O 0.5807(4) 0.78218(14) 0.25226(14)
Zn1_2 Zn 0.10060(6) 0.767944(18) 1.224255(18)
Zn2_2 Zn 0.39529(6) 0.772337(18) 1.233517(18)
Zn3_2 Zn 0.73282(6) 0.961429(19) 0.40323(2)
Zn4_2 Zn 0.76400(6) 0.595315(19) 1.037753(19)
Zn4_3 Zn 0.76400(6) 1.595315(19) 0.037753(19)
Zn5_2 Zn -0.24767(6) 0.948250(19) 0.051120(19)
Zn5_3 Zn -0.24767(6) 0.948250(19) 1.051120(19)
Zn6_2 Zn 0.74132(7) 0.59400(2) 0.40641(2)
Zn6_3 Zn 0.74132(7) 1.59400(2) 0.40641(2)
N4_2 N 0.7551(4) 0.93235(14) -0.01568(14)
N7_2 N -0.2627(5) 1.02736(15) 0.38480(15)
N9_2 N -0.2351(4) 0.53133(15) 1.05937(15)
N10_2 N -0.2829(5) 0.53027(15) 0.38379(16)
O5_2 O -0.4125(4) 0.62537(12) 0.37829(12)
O10_2 O -0.3722(3) 0.62952(11) 1.06956(11)
O11_2 O 0.3977(4) 0.72330(11) 0.18350(11)
O12_2 O 0.1766(4) 0.72194(12) 0.17869(11)
O16_2 O -0.4255(3) 0.93192(12) 0.37263(12)
O23_2 O 0.9042(3) 0.91784(11) 0.08190(11)
loop_
_geom_bond_atom_site_label_1
_geom_bond_atom_site_label_2
_geom_bond_site_symmetry_1
_geom_bond_site_symmetry_2
Zn1 O3 1_555 1_555
Zn2 O4 1_555 1_555
Zn3 N5 1_555 1_555
Zn4 N3 1_555 1_555
Zn5 N8 1_555 1_555
Zn6 N6 1_555 1_555
C1 C2 1_555 1_555
C2 H1 1_555 1_555
C3 C2 1_555 1_555
C4 C3 1_555 1_555
H2 C4 1_555 1_555
C5 C4 1_555 1_555
C6 C1 1_555 1_555
H3 C6 1_555 1_555
C7 C1 1_555 1_555
C8 C3 1_555 1_555
C9 C10 1_555 1_555
C10 H4 1_555 1_555
C11 C10 1_555 1_555
C12 C11 1_555 1_555
H5 C12 1_555 1_555
C13 C12 1_555 1_555
C14 C9 1_555 1_555
H6 C14 1_555 1_555
C15 C9 1_555 1_555
C16 C11 1_555 1_555
C17 C13 1_555 1_555
C18 H7 1_555 1_555
C19 C18 1_555 1_555
H8 C19 1_555 1_555
C20 C19 1_555 1_555
C21 C20 1_555 1_555
H9 C21 1_555 1_555
C22 C21 1_555 1_555
H10 C22 1_555 1_555
C23 H11 1_555 1_555
C24 C23 1_555 1_555
H12 C24 1_555 1_555
C25 C20 1_555 1_555
C26 C25 1_555 1_555
H13 C26 1_555 1_555
C27 C26 1_555 1_555
H14 C27 1_555 1_555
C28 H15 1_555 1_555
C29 C28 1_555 1_555
H16 C29 1_555 1_555
C30 C29 1_555 1_555
C31 C30 1_555 1_555
H17 C31 1_555 1_555
C32 C31 1_555 1_555
H18 C32 1_555 1_555
C33 H19 1_555 1_555
C34 C33 1_555 1_555
H20 C34 1_555 1_555
C35 C30 1_555 1_555
C36 C35 1_555 1_555
H21 C36 1_555 1_555
C37 C36 1_555 1_555
H22 C37 1_555 1_555
C38 C23 1_555 1_555
C39 C33 1_555 1_555
C40 C39 1_555 1_555
C41 C38 1_555 1_555
C42 C41 1_555 1_555
C43 C42 1_555 1_555
H23 C43 1_555 1_555
C44 C43 1_555 1_555
H24 C44 1_555 1_555
C45 C44 1_555 1_555
C46 C45 1_555 1_555
H25 C46 1_555 1_555
C47 C42 1_555 1_555
H26 C47 1_555 1_555
C48 H27 1_555 1_555
C49 C48 1_555 1_555
H28 C49 1_555 1_555
C50 C45 1_555 1_555
C51 C50 1_555 1_555
H29 C51 1_555 1_555
C52 C51 1_555 1_555
H30 C52 1_555 1_555
C53 C40 1_555 1_555
C54 C53 1_555 1_555
H31 C54 1_555 1_555
C55 C54 1_555 1_555
H32 C55 1_555 1_555
C56 C55 1_555 1_555
C57 C56 1_555 1_555
H33 C57 1_555 1_555
C58 C53 1_555 1_555
H34 C58 1_555 1_555
C59 H35 1_555 1_555
C60 C59 1_555 1_555
H36 C60 1_555 1_555
C61 C56 1_555 1_555
C62 C61 1_555 1_555
H37 C62 1_555 1_555
C63 C62 1_555 1_555
H38 C63 1_555 1_555
C64 C65 1_555 1_555
C65 C88 1_555 1_555
C66 C64 1_555 1_555
C67 C66 1_555 1_555
H39 C67 1_555 1_555
C68 C67 1_555 1_555
H40 C68 1_555 1_555
C69 C68 1_555 1_555
C70 C69 1_555 1_555
H41 C70 1_555 1_555
C71 C66 1_555 1_555
H42 C71 1_555 1_555
C72 H43 1_555 1_555
C73 C72 1_555 1_555
H44 C73 1_555 1_555
C74 C69 1_555 1_555
C75 C74 1_555 1_555
H45 C75 1_555 1_555
C76 C75 1_555 1_555
H46 C76 1_555 1_555
C77 C78 1_555 1_555
C78 H47 1_555 1_555
C79 C78 1_555 1_555
H48 C79 1_555 1_555
C80 C64 1_555 1_555
C81 C80 1_555 1_555
H49 C81 1_555 1_555
C82 C77 1_555 1_555
H50 C82 1_555 1_555
C83 H51 1_555 1_555
C84 C83 1_555 1_555
H52 C84 1_555 1_555
C85 C77 1_555 1_555
C86 C85 1_555 1_555
H53 C86 1_555 1_555
C87 C86 1_555 1_555
H54 C87 1_555 1_555
C88 C89 1_555 1_555
C89 H55 1_555 1_555
C90 C89 1_555 1_555
H56 C90 1_555 1_555
C91 C90 1_555 1_555
C92 C91 1_555 1_555
H57 C92 1_555 1_555
C93 C88 1_555 1_555
H58 C93 1_555 1_555
C94 H59 1_555 1_555
C95 C94 1_555 1_555
H60 C95 1_555 1_555
C96 C91 1_555 1_555
C97 C96 1_555 1_555
H61 C97 1_555 1_555
C98 C97 1_555 1_555
H62 C98 1_555 1_555
C99 C65 1_555 1_555
C100 C99 1_555 1_555
H63 C100 1_555 1_555
C101 C100 1_555 1_555
H64 C101 1_555 1_555
C102 C101 1_555 1_555
C103 C102 1_555 1_555
H65 C103 1_555 1_555
C104 C99 1_555 1_555
H66 C104 1_555 1_555
C105 H67 1_555 1_555
C106 C105 1_555 1_555
H68 C106 1_555 1_555
C107 C102 1_555 1_555
C108 C107 1_555 1_555
H69 C108 1_555 1_555
C109 C108 1_555 1_555
H70 C109 1_555 1_555
C110 C111 1_555 1_555
C111 H71 1_555 1_555
C112 C111 1_555 1_555
C113 C112 1_555 1_555
H72 C113 1_555 1_555
C114 C113 1_555 1_555
C115 C110 1_555 1_555
H73 C115 1_555 1_555
C116 C110 1_555 1_555
C117 C112 1_555 1_555
C118 C114 1_555 1_555
C119 C120 1_555 1_555
C120 H74 1_555 1_555
C121 C120 1_555 1_555
C122 C121 1_555 1_555
H75 C122 1_555 1_555
C123 C122 1_555 1_555
C124 C119 1_555 1_555
H76 C124 1_555 1_555
C125 C119 1_555 1_555
C126 C121 1_555 1_555
C127 H77 1_555 1_555
H78 C127 1_555 1_555
H79 C127 1_555 1_555
C128 H80 1_555 1_555
H81 C128 1_555 1_555
H82 C128 1_555 1_555
C129 C130 1_555 1_555
C130 H83 1_555 1_555
H84 C130 1_555 1_555
H85 C130 1_555 1_555
C131 H86 1_555 1_555
H87 C131 1_555 1_555
H88 C131 1_555 1_555
C132 H89 1_555 1_555
H90 C132 1_555 1_555
H91 C132 1_555 1_555
C133 C134 1_555 1_555
C134 H92 1_555 1_555
H93 C134 1_555 1_555
H94 C134 1_555 1_555
C135 C123 1_555 1_555
C136 C5 1_555 1_555
N1 C127 1_555 1_555
N2 C131 1_555 1_555
N3 C28 1_555 1_555
N4 C18 1_555 1_555
N5 C48 1_555 1_555
N6 C59 1_555 1_555
N7 C72 1_555 1_555
N8 C105 1_555 1_555
N9 C94 1_555 1_555
N10 C83 1_555 1_555
O1 Zn6 1_555 1_555
O2 C7 1_555 1_555
O3 C8 1_555 1_555
O4 C8 1_555 1_555
O5 C136 1_555 1_555
O6 C136 1_555 1_555
O7 Zn4 1_555 1_555
O8 C15 1_555 1_555
O9 C16 1_555 1_555
O10 C16 1_555 1_555
O11 C17 1_555 1_555
O12 C17 1_555 1_555
O13 C116 1_555 1_555
O14 Zn3 1_555 1_555
O15 C117 1_555 1_555
O16 C117 1_555 1_555
O17 Zn2 1_555 1_555
O18 Zn1 1_555 1_555
O19 Zn1 1_555 1_555
O20 Zn2 1_555 1_555
O21 Zn5 1_555 1_555
O22 C126 1_555 1_555
O23 C135 1_555 1_555
O24 C135 1_555 1_555
O25 Zn1 1_555 1_555
O26 Zn2 1_555 1_555
Zn1_2 O12 1_555 1_555
Zn2_2 O11 1_555 1_555
Zn3_2 N7 1_555 1_555
Zn4_2 O10 1_555 1_555
Zn4_3 N9 1_555 1_555
Zn5_2 O23 1_555 1_555
Zn5_3 N4 1_555 1_555
Zn6_2 O5 1_555 1_555
Zn6_3 N10 1_555 1_555
N4_2 Zn5 1_555 1_555
N7_2 Zn3 1_555 1_555
N9_2 Zn4 1_555 1_555
N10_2 Zn6 1_555 1_555
O5_2 Zn6 1_555 1_555
O10_2 Zn4 1_555 1_555
O11_2 Zn2 1_555 1_555
O12_2 Zn1 1_555 1_555
O16_2 Zn3 1_555 1_555
O23_2 Zn5 1_555 1_555
C5 C6 1_555 1_555
C7 O1 1_555 1_555
C13 C14 1_555 1_555
C15 O7 1_555 1_555
C22 N4 1_555 1_555
C24 C25 1_555 1_555
C27 C38 1_555 1_555
C32 N3 1_555 1_555
C34 C35 1_555 1_555
C37 C39 1_555 1_555
C40 C41 1_555 1_555
C46 C47 1_555 1_555
C49 C50 1_555 1_555
C52 N5 1_555 1_555
C57 C58 1_555 1_555
C60 C61 1_555 1_555
C63 N6 1_555 1_555
C70 C71 1_555 1_555
C73 C74 1_555 1_555
C76 N7 1_555 1_555
C79 C80 1_555 1_555
C81 C82 1_555 1_555
C84 C85 1_555 1_555
C87 N10 1_555 1_555
C92 C93 1_555 1_555
C95 C96 1_555 1_555
C98 N9 1_555 1_555
C103 C104 1_555 1_555
C106 C107 1_555 1_555
C109 N8 1_555 1_555
C114 C115 1_555 1_555
C116 O14 1_555 1_555
C118 O17 1_555 1_555
C118 O18 1_555 1_555
C123 C124 1_555 1_555
C125 O19 1_555 1_555
C125 O20 1_555 1_555
C126 O21 1_555 1_555
C128 N1 1_555 1_555
C129 N1 1_555 1_555
C129 O26 1_555 1_555
C132 N2 1_555 1_555
C133 N2 1_555 1_555
C133 O25 1_555 1_555
O16 Zn3_2 1_555 1_555

#END
