
#######################################################################
#
#                 Cambridge Crystallographic Data Centre
#                                CCDC 
#
#######################################################################
#
# If this CIF has been generated from an entry in the Cambridge 
# Structural Database, then it will include bibliographic, chemical, 
# crystal, experimental, refinement or atomic coordinate data resulting 
# from the CCDC's data processing and validation procedures.
#
#######################################################################

data_RESZIA
_chemical_formula_moiety         'C46 H30 Cd7 N9 O15'
_symmetry_cell_setting           monoclinic
_symmetry_space_group_name_H-M   'C 2/c'
_symmetry_Int_Tables_number      15
_space_group_name_Hall           '-C 2yc'
loop_
_symmetry_equiv_pos_site_id
_symmetry_equiv_pos_as_xyz
1 x,y,z
2 -x,y,1/2-z
3 1/2+x,1/2+y,z
4 1/2-x,1/2+y,1/2-z
5 -x,-y,-z
6 x,-y,1/2+z
7 1/2-x,1/2-y,-z
8 1/2+x,1/2-y,1/2+z
_cell_length_a                   10.393(2)
_cell_length_b                   23.046(6)
_cell_length_c                   28.526(5)
_cell_angle_alpha                90
_cell_angle_beta                 95.381(4)
_cell_angle_gamma                90
_cell_volume                     6802.35
loop_
_atom_site_label
_atom_site_type_symbol
_atom_site_fract_x
_atom_site_fract_y
_atom_site_fract_z
O6 O 0.6309(11) 0.3340(14) 0.0157(6)
Cd1 Cd 0.52161(5) 0.20250(4) 0.022231(17)
C1 C 0.7086(8) 0.2162(5) 0.0938(3)
C2 C 0.8174(7) 0.2305(4) 0.1311(2)
C3 C 0.8046(8) 0.2201(5) 0.1774(3)
H1 H 0.7358 0.1975 0.1853
C4 C 0.9302(7) 0.2553(5) 0.1199(2)
C5 C 0.9562(9) 0.2720(7) 0.0686(4)
C6 C 0.4467(7) 0.0679(6) 0.0480(3)
C7 C 0.5486(8) 0.0561(6) 0.0839(3)
H2 H 0.6068 0.0852 0.0938
C8 C 0.5602(9) 0.0054(7) 0.1028(4)
H3 H 0.6237 -0.0007 0.1275
C9 C 0.4801(9) -0.0408(6) 0.0872(4)
H4 H 0.4927 -0.0774 0.1004
C10 C 0.3756(8) -0.0308(7) 0.0497(4)
H5 H 0.3193 -0.0601 0.0385
C11 C 0.3669(8) 0.0248(6) 0.0322(3)
C12 C 0.3086(7) 0.1010(6) -0.0074(3)
C13 C 0.2375(8) 0.1432(6) -0.0404(3)
C14 C 0.2304(7) 0.1324(5) -0.0884(3)
H6 H 0.2657 0.0990 -0.1002
C15 C 0.1684(9) 0.1734(6) -0.1181(3)
H7 H 0.1649 0.1688 -0.1506
C16 C 0.1121(8) 0.2208(6) -0.0992(3)
H8 H 0.0701 0.2479 -0.1193
C17 C 0.1771(8) 0.1902(6) -0.0235(3)
H9 H 0.1786 0.1951 0.0089
C18 C 0.1660(6) 0.0113(4) -0.0237(3)
H10 H 0.1918 -0.0287 -0.0274
H11 H 0.1349 0.0265 -0.0544
C19 C 0.0585(6) 0.0152(4) 0.0105(3)
H12 H 0.0882 -0.0024 0.0404
H13 H 0.0382 0.0556 0.0161
N1 N 0.4117(5) 0.1169(4) 0.0234(2)
N2 N 0.2796(6) 0.0469(5) -0.0025(2)
N3 N 0.1160(5) 0.2293(3) -0.0518(2)
C20 C 1.1301(13) 0.2446(11) 0.2354(5)
O1 O 1.2465(10) 0.2376(7) 0.2251(3)
O2 O 0.7056(8) 0.2375(7) 0.0556(3)
O3 O 0.6176(10) 0.1889(8) 0.1036(3)
C21 C 0.8915(10) 0.2422(10) 0.2135(3)
C22 C 1.0120(12) 0.2589(12) 0.2011(4)
C23 C 1.0172(13) 0.2733(12) 0.1546(5)
H14 H 1.0848 0.2968 0.1468
O4 O 0.9040(10) 0.3155(6) 0.0527(3)
O5 O 1.0462(18) 0.2497(8) 0.0506(6)
C1A C 1.2914(8) 0.2162(5) 0.4062(3)
C2A C 1.1826(7) 0.2305(4) 0.3689(2)
C3A C 1.1954(8) 0.2201(5) 0.3226(3)
H1A H 1.2642 0.1975 0.3147
C4A C 1.0698(7) 0.2553(5) 0.3801(2)
C5A C 1.0438(9) 0.2720(7) 0.4314(4)
C20A C 0.8699(13) 0.2446(11) 0.2646(5)
O1A O 0.7535(10) 0.2376(7) 0.2749(3)
O2A O 1.2944(8) 0.2375(7) 0.4444(3)
O3A O 1.3824(10) 0.1889(8) 0.3964(3)
C21A C 1.1085(10) 0.2422(10) 0.2865(3)
C22A C 0.9880(12) 0.2589(12) 0.2989(4)
C23A C 0.9828(13) 0.2733(12) 0.3454(5)
H14A H 0.9152 0.2968 0.3532
O4A O 1.0960(10) 0.3155(6) 0.4473(3)
O5A O 0.9538(18) 0.2497(8) 0.4494(6)
C6D C -0.4467(7) -0.0679(6) -0.0480(3)
C7D C -0.5486(8) -0.0561(6) -0.0839(3)
H2D H -0.6068 -0.0852 -0.0938
C8D C -0.5602(9) -0.0054(7) -0.1028(4)
H3D H -0.6237 0.0007 -0.1275
C9D C -0.4801(9) 0.0408(6) -0.0872(4)
H4D H -0.4927 0.0774 -0.1004
C10D C -0.3756(8) 0.0308(7) -0.0497(4)
H5D H -0.3193 0.0601 -0.0385
C11D C -0.3669(8) -0.0248(6) -0.0322(3)
C12D C -0.3086(7) -0.1010(6) 0.0074(3)
C13D C -0.2375(8) -0.1432(6) 0.0404(3)
C14D C -0.2304(7) -0.1324(5) 0.0884(3)
H6D H -0.2657 -0.0990 0.1002
C15D C -0.1684(9) -0.1734(6) 0.1181(3)
H7D H -0.1649 -0.1688 0.1506
C16D C -0.1121(8) -0.2208(6) 0.0992(3)
H8D H -0.0701 -0.2479 0.1193
C17D C -0.1771(8) -0.1902(6) 0.0235(3)
H9D H -0.1786 -0.1951 -0.0089
C18D C -0.1660(6) -0.0113(4) 0.0237(3)
H10D H -0.1918 0.0287 0.0274
H11D H -0.1349 -0.0265 0.0544
C19D C -0.0585(6) -0.0152(4) -0.0105(3)
H12D H -0.0882 0.0024 -0.0404
H13D H -0.0382 -0.0556 -0.0161
N1D N -0.4117(5) -0.1169(4) -0.0234(2)
N2D N -0.2796(6) -0.0469(5) 0.0025(2)
N3D N -0.1160(5) -0.2293(3) 0.0518(2)
Cd1A Cd 1.47839(5) 0.20250(4) 0.477769(17)
Cd1B Cd 0.02161(5) -0.29750(4) 0.022231(17)
Cd1D Cd -0.52161(5) -0.20250(4) -0.022231(17)
Cd1F Cd -0.02161(5) 0.29750(4) -0.022231(17)
Cd1F_2 Cd 0.97839(5) 0.29750(4) -0.022231(17)
Cd1G Cd 1.02161(5) 0.29750(4) 0.522231(17)
N1A N 1.5883(5) 0.1169(4) 0.4766(2)
N3F N 0.3840(5) 0.2707(3) 0.0518(2)
N3G N 1.6160(5) 0.2707(3) 0.4482(2)
O4F O 0.5960(10) 0.1845(6) -0.0527(3)
O4G O 1.4040(10) 0.1845(6) 0.5527(3)
O5F O 0.4538(18) 0.2503(8) -0.0506(6)
O5G O 1.5462(18) 0.2503(8) 0.5506(6)
loop_
_geom_bond_atom_site_label_1
_geom_bond_atom_site_label_2
_geom_bond_site_symmetry_1
_geom_bond_site_symmetry_2
Cd1 N1 1_555 1_555
C1 C2 1_555 1_555
C2 C3 1_555 1_555
C3 H1 1_555 1_555
C4 C2 1_555 1_555
C5 C4 1_555 1_555
C6 C7 1_555 1_555
C7 H2 1_555 1_555
C8 C7 1_555 1_555
H3 C8 1_555 1_555
C9 C8 1_555 1_555
H4 C9 1_555 1_555
C10 C9 1_555 1_555
H5 C10 1_555 1_555
C11 C6 1_555 1_555
C12 C13 1_555 1_555
C13 C14 1_555 1_555
C14 H6 1_555 1_555
C15 C14 1_555 1_555
H7 C15 1_555 1_555
C16 C15 1_555 1_555
H8 C16 1_555 1_555
C17 C13 1_555 1_555
H9 C17 1_555 1_555
C18 H10 1_555 1_555
H11 C18 1_555 1_555
C19 C18 1_555 1_555
H12 C19 1_555 1_555
H13 C19 1_555 1_555
N1 C6 1_555 1_555
N2 C11 1_555 1_555
N3 C16 1_555 1_555
C20 O1 1_555 1_555
O2 Cd1 1_555 1_555
O3 Cd1 1_555 1_555
C21 C3 1_555 1_555
C22 C20 1_555 1_555
C23 C4 1_555 1_555
H14 C23 1_555 1_555
O4 C5 1_555 1_555
O5 C5 1_555 1_555
C1A C2A 1_555 1_555
C2A C3A 1_555 1_555
C3A H1A 1_555 1_555
C4A C2A 1_555 1_555
C5A C4A 1_555 1_555
C20A C21 1_555 1_555
O1A C20A 1_555 1_555
O2A C1A 1_555 1_555
O3A C1A 1_555 1_555
C21A C20 1_555 1_555
C22A C20A 1_555 1_555
C23A C4A 1_555 1_555
H14A C23A 1_555 1_555
O4A C5A 1_555 1_555
O5A C5A 1_555 1_555
C6D C7D 1_555 1_555
C7D H2D 1_555 1_555
C8D C7D 1_555 1_555
H3D C8D 1_555 1_555
C9D C8D 1_555 1_555
H4D C9D 1_555 1_555
C10D C9D 1_555 1_555
H5D C10D 1_555 1_555
C11D C6D 1_555 1_555
C12D C13D 1_555 1_555
C13D C14D 1_555 1_555
C14D H6D 1_555 1_555
C15D C14D 1_555 1_555
H7D C15D 1_555 1_555
C16D C15D 1_555 1_555
H8D C16D 1_555 1_555
C17D C13D 1_555 1_555
H9D C17D 1_555 1_555
C18D H10D 1_555 1_555
H11D C18D 1_555 1_555
C19D C19 1_555 1_555
H12D C19D 1_555 1_555
H13D C19D 1_555 1_555
N1D C6D 1_555 1_555
N2D C11D 1_555 1_555
N3D C16D 1_555 1_555
Cd1A O2A 1_555 1_555
Cd1B N3D 1_555 1_555
Cd1D N1D 1_555 1_555
Cd1F N3 1_555 1_555
Cd1F_2 O4 1_555 1_555
Cd1G O4A 1_555 1_555
N1A Cd1A 1_555 1_555
N3F Cd1 1_555 1_555
N3G Cd1A 1_555 1_555
O4F Cd1 1_555 1_555
O4G Cd1A 1_555 1_555
O5F Cd1 1_555 1_555
O5G Cd1A 1_555 1_555
C1 O2 1_555 1_555
C1 O3 1_555 1_555
C10 C11 1_555 1_555
C12 N1 1_555 1_555
C12 N2 1_555 1_555
C17 N3 1_555 1_555
C18 N2 1_555 1_555
C21 C22 1_555 1_555
C22 C23 1_555 1_555
O5 Cd1F_2 1_555 1_555
C3A C21A 1_555 1_555
O3A Cd1A 1_555 1_555
C21A C22A 1_555 1_555
C22A C23A 1_555 1_555
O5A Cd1G 1_555 1_555
C10D C11D 1_555 1_555
C12D N1D 1_555 1_555
C12D N2D 1_555 1_555
C17D N3D 1_555 1_555
C18D C19D 1_555 1_555
C18D N2D 1_555 1_555

#END
