
#######################################################################
#
#                 Cambridge Crystallographic Data Centre
#                                CCDC 
#
#######################################################################
#
# If this CIF has been generated from an entry in the Cambridge 
# Structural Database, then it will include bibliographic, chemical, 
# crystal, experimental, refinement or atomic coordinate data resulting 
# from the CCDC's data processing and validation procedures.
#
#######################################################################

data_DOMDAL
_chemical_formula_moiety         '(C28 H17 Cl12 N2 O9 Tb1)n'
_symmetry_cell_setting           tetragonal
_symmetry_space_group_name_H-M   'I 41/a'
_symmetry_Int_Tables_number      88
_space_group_name_Hall           '-I 4ad'
loop_
_symmetry_equiv_pos_site_id
_symmetry_equiv_pos_as_xyz
1 x,y,z
2 3/4-y,1/4+x,1/4+z
3 1/4+y,1/4-x,1/4+z
4 1/2+x,1/2+y,1/2+z
5 1/4-y,3/4+x,3/4+z
6 -x,1/2-y,z
7 1/2-x,-y,1/2+z
8 3/4+y,3/4-x,3/4+z
9 -x,-y,-z
10 1/4+y,3/4-x,3/4-z
11 3/4-y,3/4+x,3/4-z
12 1/2-x,1/2-y,1/2-z
13 3/4+y,1/4-x,1/4-z
14 x,1/2+y,-z
15 1/2+x,y,1/2-z
16 1/4-y,1/4+x,1/4-z
_cell_length_a                   28.486(5)
_cell_length_b                   28.486(5)
_cell_length_c                   46.678(5)
_cell_angle_alpha                90
_cell_angle_beta                 90
_cell_angle_gamma                90
_cell_volume                     37877
loop_
_atom_site_label
_atom_site_type_symbol
_atom_site_fract_x
_atom_site_fract_y
_atom_site_fract_z
_atom_site_U_iso_or_equiv
_atom_site_thermal_displace_type
Tb1 Tb 0.79547(2) 0.16387(2) 0.254157(13) 0.1434 Uani
C1 C 0.6781(5) 0.0934(4) 0.3020(5) 0.2117 Uani
C2 C 0.6425(5) 0.0684(5) 0.2881(3) 0.1550 Uani
C3 C 0.6000(4) 0.0610(4) 0.3007(3) 0.1200 Uani
C4 C 0.5903(4) 0.0758(4) 0.3281(2) 0.1097 Uani
C5 C 0.6269(5) 0.0969(4) 0.3424(2) 0.1150 Uani
C6 C 0.6709(4) 0.1051(4) 0.3298(3) 0.1320 Uani
C7 C 0.5424(4) 0.0697(7) 0.3405(3) 0.2183 Uani
H1 H 0.5392 0.0378 0.3330 0.2640 Uiso
C8 C 0.3732(5) 0.1365(4) 0.2789(3) 0.1253 Uani
C9 C 0.4177(4) 0.1188(4) 0.2957(2) 0.1127 Uani
C10 C 0.4198(4) 0.0749(4) 0.3074(2) 0.1143 Uani
C11 C 0.4600(5) 0.0600(4) 0.3218(2) 0.1150 Uani
C12 C 0.5004(4) 0.0871(4) 0.32483(19) 0.1090 Uani
C13 C 0.4986(4) 0.1318(4) 0.3121(2) 0.1063 Uani
C14 C 0.4579(4) 0.1472(3) 0.2976(2) 0.1087 Uani
C15 C 0.5051(6) 0.0041(5) 0.4565(3) 0.1327 Uani
C16 C 0.5150(4) 0.0214(4) 0.4270(2) 0.1200 Uani
C17 C 0.5006(3) 0.0644(4) 0.4180(2) 0.1097 Uani
C18 C 0.5111(4) 0.0812(4) 0.3908(2) 0.1120 Uani
C19 C 0.5353(4) 0.0546(4) 0.3710(2) 0.1147 Uani
C20 C 0.5511(4) 0.0115(5) 0.3800(2) 0.1347 Uani
C21 C 0.5400(4) -0.0050(4) 0.4084(2) 0.1317 Uani
C22 C 0.8537(6) 0.2596(9) 0.2612(3) 0.1720 Uani
H2 H 0.8279 0.2731 0.2545 0.2020 Uiso
C23 C 0.9327(9) 0.2682(11) 0.2780(6) 0.3067 Uani
H3 H 0.9391 0.2776 0.2973 0.4580 Uiso
H4 H 0.9582 0.2776 0.2658 0.4580 Uiso
H5 H 0.9292 0.2347 0.2772 0.4580 Uiso
C24 C 0.8871(8) 0.3426(8) 0.2662(5) 0.2633 Uani
H6 H 0.8554 0.3512 0.2615 0.3910 Uiso
H7 H 0.9079 0.3535 0.2515 0.3910 Uiso
H8 H 0.8957 0.3565 0.2842 0.3910 Uiso
C25 C 0.7698(7) 0.1019(8) 0.1957(6) 0.2380 Uani
H9 H 0.7847 0.1236 0.1847 0.3030 Uiso
C26 C 0.7571(9) 0.0603(9) 0.1498(5) 0.2900 Uani
H10 H 0.7742 0.0872 0.1431 0.4370 Uiso
H11 H 0.7269 0.0592 0.1407 0.4370 Uiso
H12 H 0.7743 0.0323 0.1452 0.4370 Uiso
N1 N 0.7510(6) 0.0635(7) 0.1811(5) 0.2573 Uani
N2 N 0.8906(7) 0.2900(6) 0.2685(3) 0.1897 Uani
O1 O 0.7281(6) 0.1295(6) 0.2742(3) 0.3340 Uiso
O2 O 0.7493(9) 0.0811(10) 0.2962(6) 0.4000 Uiso
O3 O 0.3476(3) 0.1641(3) 0.29144(19) 0.1397 Uani
O4 O 0.3658(4) 0.1215(3) 0.2555(2) 0.1697 Uani
O5 O 0.4662(4) -0.0157(3) 0.45928(17) 0.1510 Uani
O6 O 0.5354(4) 0.0090(3) 0.4757(2) 0.1603 Uani
O7 O 0.8539(4) 0.2188(4) 0.2628(2) 0.1587 Uani
O8 O 0.7658(4) 0.1069(4) 0.2213(2) 0.1910 Uani
O9 O 0.8375(5) 0.1296(5) 0.2976(3) 0.3553 Uani
H13 H 0.8192 0.1281 0.3112 0.5350 Uiso
Cl1 Cl 0.65424(18) 0.04925(18) 0.25341(10) 0.2220 Uani
Cl2 Cl 0.55925(13) 0.03083(13) 0.28092(8) 0.1637 Uani
Cl3 Cl 0.61937(11) 0.11727(12) 0.37772(6) 0.1393 Uani
Cl4 Cl 0.71430(13) 0.13292(16) 0.34901(10) 0.1843 Uani
Cl5 Cl 0.37107(13) 0.03974(12) 0.30546(9) 0.1683 Uani
Cl6 Cl 0.45896(12) 0.00313(11) 0.33537(8) 0.1560 Uani
Cl7 Cl 0.54419(9) 0.16999(11) 0.31439(6) 0.1265 Uani
Cl8 Cl 0.45628(12) 0.20219(10) 0.28251(7) 0.1443 Uani
Cl9 Cl 0.46993(11) 0.09915(10) 0.44179(6) 0.1349 Uani
Cl10 Cl 0.49451(10) 0.13807(10) 0.38254(6) 0.1353 Uani
Cl11 Cl 0.58138(14) -0.02597(14) 0.35717(7) 0.1690 Uani
Cl12 Cl 0.55979(15) -0.06048(12) 0.41843(8) 0.1753 Uani
C27 C 0.7143(7) 0.1033(9) 0.2890(6) 0.6800 Uiso
C28 C 0.7287(19) 0.0269(16) 0.1941(8) 0.6900 Uani
H14 H 0.7187 0.0047 0.1799 1.0370 Uiso
H15 H 0.7019 0.0384 0.2044 1.0370 Uiso
H16 H 0.7499 0.0119 0.2072 1.0370 Uiso
H17 H 0.8394 0.1522 0.3097 2.0000 Uiso
Tb1N Tb 0.29547(2) 0.16387(2) 0.245843(13) 0.1434 Uani
Tb1I Tb 0.41387(2) -0.04547(2) 0.495843(13) 0.1434 Uani
Tb1A Tb 0.58613(2) 0.04547(2) 0.504157(13) 0.1434 Uani
O3N O 0.8476(3) 0.1641(3) 0.20856(19) 0.1397 Uani
O4N O 0.8658(4) 0.1215(3) 0.2445(2) 0.1697 Uani
O5J O 0.7657(3) 0.2162(4) 0.29072(17) 0.1510 Uani
O6G O 0.7590(3) 0.2146(4) 0.2257(2) 0.1603 Uani
loop_
_atom_site_aniso_label
_atom_site_aniso_U_11
_atom_site_aniso_U_22
_atom_site_aniso_U_33
_atom_site_aniso_U_23
_atom_site_aniso_U_13
_atom_site_aniso_U_12
Tb1 0.1673(7) 0.1448(6) 0.1180(6) -0.0293(4) 0.0807(4) -0.0312(4)
C1 0.147 0.27 0.218 -0.074 0.131 -0.025
C2 0.155 0.165 0.145 -0.043 0.051 -0.036
C3 0.127 0.121 0.112 0.008 0.027 -0.018
C4 0.109 0.131 0.089 0.031 0.014 0.01
C5 0.139 0.113 0.093 0.008 0.022 0.024
C6 0.108 0.138 0.15 -0.003 0.044 -0.005
C7 0.1 0.42 0.135 0.173 0.033 0.043
C8 0.156 0.1 0.12 -0.002 -0.022 -0.018
C9 0.135 0.118 0.085 0.009 -0.017 -0.012
C10 0.133 0.102 0.108 0.013 -0.01 -0.012
C11 0.131 0.118 0.096 0.03 0.012 0.01
C12 0.11 0.143 0.074 0.032 0.013 0.006
C13 0.115 0.132 0.072 0.012 -0.002 -0.003
C14 0.143 0.102 0.081 0.01 -0.007 -0.011
C15 0.161 0.13 0.107 0.053 0.033 0.02
C16 0.147 0.117 0.096 0.051 0.041 0.024
C17 0.126 0.119 0.084 0.039 0.022 0.012
C18 0.111 0.119 0.106 0.055 0.003 0.015
C19 0.111 0.14 0.093 0.046 0.018 0.017
C20 0.126 0.173 0.105 0.032 0.032 0.026
C21 0.153 0.137 0.105 0.055 0.024 0.027
C22 0.179(14) 0.229(19) 0.108(9) -0.047(13) 0.077(9) -0.059(17)
C23 0.21(2) 0.39(4) 0.32(3) -0.17(3) 0.03(2) -0.01(2)
C24 0.33(3) 0.22(2) 0.24(2) -0.032(17) 0.09(2) -0.08(2)
C25 0.208(18) 0.216(19) 0.29(3) -0.11(2) 0.064(19) -0.041(14)
C26 0.30(3) 0.35(3) 0.22(2) -0.11(2) 0.08(2) -0.08(2)
N1 0.220(15) 0.282(19) 0.27(2) -0.151(18) 0.101(14) -0.073(14)
N2 0.215(16) 0.205(15) 0.149(10) -0.057(10) 0.080(11) -0.035(13)
O3 0.146 0.147 0.126 0.008 -0.044 -0.017
O4 0.233 0.155 0.121 -0.001 -0.051 -0.024
O5 0.184 0.161 0.108 0.066 0.034 0.02
O6 0.199 0.162 0.12 0.085 0.06 0.043
O7 0.192(9) 0.152(7) 0.132(7) -0.042(7) 0.060(6) -0.024(7)
O8 0.193(9) 0.216(10) 0.164(8) -0.071(8) 0.103(8) -0.056(7)
O9 0.244(14) 0.63(4) 0.192(12) 0.082(17) 0.070(11) 0.038(18)
Cl1 0.236 0.237 0.193 -0.099 0.109 -0.054
Cl2 0.167 0.182 0.142 0.005 0.014 -0.033
Cl3 0.154 0.166 0.0978 0.0174 0.0157 0.0201
Cl4 0.136 0.209 0.208 -0.038 0.018 -0.018
Cl5 0.176 0.129 0.2 0.027 -0.043 -0.04
Cl6 0.165 0.133 0.17 0.056 0.017 0.012
Cl7 0.12 0.159 0.1006 0.0256 0.0013 -0.024
Cl8 0.162 0.121 0.15 0.0365 -0.034 -0.0215
Cl9 0.159 0.141 0.1047 0.0436 0.0227 0.0394
Cl10 0.143 0.14 0.123 0.0719 0.0021 0.0105
Cl11 0.183 0.204 0.12 0.024 0.047 0.046
Cl12 0.228 0.148 0.15 0.057 0.047 0.058
C28 0.93(11) 0.72(8) 0.42(5) -0.32(5) 0.46(6) -0.64(9)
Tb1N 0.1673 0.1448 0.118 0.0293 -0.0807 -0.0312
Tb1I 0.1448 0.1673 0.118 0.0807 0.0293 0.0312
Tb1A 0.1448 0.1673 0.118 0.0807 0.0293 0.0312
O3N 0.146(7) 0.147(7) 0.126(6) -0.008(5) 0.044(5) -0.017(5)
O4N 0.233(10) 0.155(7) 0.121(6) 0.001(6) 0.051(7) -0.024(7)
O5J 0.161 0.184 0.108 -0.034 0.066 -0.02
O6G 0.162 0.199 0.12 -0.06 0.085 -0.043
loop_
_geom_bond_atom_site_label_1
_geom_bond_atom_site_label_2
_geom_bond_site_symmetry_1
_geom_bond_site_symmetry_2
Tb1 O1 1_555 1_555
C1 C2 1_555 1_555
C2 C3 1_555 1_555
C3 C4 1_555 1_555
C4 C5 1_555 1_555
C5 C6 1_555 1_555
C6 C1 1_555 1_555
C7 C4 1_555 1_555
H1 C7 1_555 1_555
C8 C9 1_555 1_555
C9 C10 1_555 1_555
C10 C11 1_555 1_555
C11 C12 1_555 1_555
C12 C7 1_555 1_555
C13 C12 1_555 1_555
C14 C9 1_555 1_555
C15 C16 1_555 1_555
C16 C17 1_555 1_555
C17 C18 1_555 1_555
C18 C19 1_555 1_555
C19 C7 1_555 1_555
C20 C19 1_555 1_555
C21 C16 1_555 1_555
C22 H2 1_555 1_555
C23 H3 1_555 1_555
H4 C23 1_555 1_555
H5 C23 1_555 1_555
C24 H6 1_555 1_555
H7 C24 1_555 1_555
H8 C24 1_555 1_555
C25 H9 1_555 1_555
C26 H10 1_555 1_555
H11 C26 1_555 1_555
H12 C26 1_555 1_555
N1 C25 1_555 1_555
N2 C22 1_555 1_555
O1 C27 1_555 1_555
O2 C27 1_555 1_555
O3 C8 1_555 1_555
O4 C8 1_555 1_555
O5 C15 1_555 1_555
O6 C15 1_555 1_555
O7 Tb1 1_555 1_555
O8 Tb1 1_555 1_555
O9 Tb1 1_555 1_555
H13 O9 1_555 1_555
Cl1 C2 1_555 1_555
Cl2 C3 1_555 1_555
Cl3 C5 1_555 1_555
Cl4 C6 1_555 1_555
Cl5 C10 1_555 1_555
Cl6 C11 1_555 1_555
Cl7 C13 1_555 1_555
Cl8 C14 1_555 1_555
Cl9 C17 1_555 1_555
Cl10 C18 1_555 1_555
Cl11 C20 1_555 1_555
Cl12 C21 1_555 1_555
C27 C1 1_555 1_555
C28 N1 1_555 1_555
H14 C28 1_555 1_555
H15 C28 1_555 1_555
H16 C28 1_555 1_555
H17 O9 1_555 1_555
Tb1N O3 1_555 1_555
Tb1I O5 1_555 1_555
Tb1A O6 1_555 1_555
O3N Tb1 1_555 1_555
O4N Tb1 1_555 1_555
O5J Tb1 1_555 1_555
O6G Tb1 1_555 1_555
C13 C14 1_555 1_555
C20 C21 1_555 1_555
C22 O7 1_555 1_555
C23 N2 1_555 1_555
C24 N2 1_555 1_555
C25 O8 1_555 1_555
C26 N1 1_555 1_555
O4 Tb1N 1_555 1_555

#END
