
#######################################################################
#
#                 Cambridge Crystallographic Data Centre
#                                CCDC 
#
#######################################################################
#
# If this CIF has been generated from an entry in the Cambridge 
# Structural Database, then it will include bibliographic, chemical, 
# crystal, experimental, refinement or atomic coordinate data resulting 
# from the CCDC's data processing and validation procedures.
#
#######################################################################

data_AVEHAM
_chemical_formula_moiety         '(C61 H49 Cu2 N5 O11)n'
_symmetry_cell_setting           monoclinic
_symmetry_space_group_name_H-M   'P 21/c'
_symmetry_Int_Tables_number      14
_space_group_name_Hall           '-P 2ybc'
loop_
_symmetry_equiv_pos_site_id
_symmetry_equiv_pos_as_xyz
1 x,y,z
2 -x,1/2+y,1/2-z
3 -x,-y,-z
4 x,1/2-y,1/2+z
_cell_length_a                   12.656(2)
_cell_length_b                   9.2408(15)
_cell_length_c                   25.544(4)
_cell_angle_alpha                90
_cell_angle_beta                 96.158(4)
_cell_angle_gamma                90
_cell_volume                     2970.17
loop_
_atom_site_label
_atom_site_type_symbol
_atom_site_fract_x
_atom_site_fract_y
_atom_site_fract_z
C1 C 0.8815(5) 0.0613(7) 0.4172(2)
C2 C 0.8173(5) 0.0896(7) 0.3664(2)
C3 C 0.7368(5) -0.0017(7) 0.3471(2)
H1 H 0.7217 -0.0825 0.3667
C4 C 0.8404(6) 0.2066(7) 0.3357(2)
H2 H 0.8957 0.2685 0.3476
C5 C 0.6784(5) 0.0236(7) 0.2999(2)
H3 H 0.6234 -0.0389 0.2880
C6 C 0.7833(6) 0.2323(8) 0.2884(2)
H4 H 0.8000 0.3118 0.2686
C7 C 0.7008(5) 0.1419(7) 0.2695(2)
C8 C 0.3241(15) 0.074(2) 0.1839(7)
H5 H 0.2526 0.0512 0.1756
C9 C 0.3598(10) 0.1273(17) 0.2335(7)
H6 H 0.3124 0.1446 0.2582
C10 C 0.3934(13) 0.055(2) 0.1478(7)
H7 H 0.3696 0.0203 0.1144
C11 C 0.4691(8) 0.1546(13) 0.2457(5)
H8 H 0.4947 0.1861 0.2792
C12 C 0.4994(10) 0.0870(14) 0.1605(4)
H9 H 0.5462 0.0750 0.1352
C13 C 0.5372(7) 0.1354(10) 0.2089(3)
C14 C 0.7021(6) 0.2228(8) 0.1792(2)
C15 C 0.7935(7) 0.1572(8) 0.1674(3)
H10 H 0.8179 0.0753 0.1861
C16 C 0.6656(6) 0.3465(8) 0.1517(2)
H11 H 0.6040 0.3929 0.1596
C17 C 0.7214(5) 0.3982(8) 0.1132(2)
H12 H 0.6974 0.4807 0.0947
C18 C 0.8497(6) 0.2101(7) 0.1285(2)
H13 H 0.9119 0.1645 0.1211
C19 C 0.8138(5) 0.3304(7) 0.1008(2)
C20 C 0.8776(5) 0.3924(7) 0.0607(2)
C21 C 1.1177(7) 0.0706(8) 0.0324(4)
H14 H 1.0571 0.0869 0.0492
C22 C 1.1692(8) -0.0503(9) 0.0449(4)
H15 H 1.1506 -0.1118 0.0713
C23 C 1.2213(8) 0.1527(10) -0.0270(4)
H16 H 1.2407 0.2219 -0.0506
C24 C 1.2849(7) 0.0125(9) -0.0184(3)
H17 H 1.3434 -0.0092 -0.0361
C25 C 1.2480(6) -0.0776(8) 0.0177(3)
C26 C 1.3100(7) -0.2279(9) 0.0285(3)
H18 H 1.3329 -0.2365 0.0659
H19 H 1.2620 -0.3074 0.0186
C27 C 1.4437(5) -0.3730(7) 0.0027(2)
C28 C 1.4124(6) -0.4945(7) 0.0266(3)
H20 H 1.3529 -0.4918 0.0450
C29 C 1.5314(6) -0.3774(7) -0.0238(3)
H21 H 1.5537 -0.2944 -0.0401
N1 N 0.6454(5) 0.1690(7) 0.2202(2)
N2 N 1.1419(4) 0.1738(5) -0.0016(2)
O1 O 0.8620(3) -0.0552(5) 0.44076(15)
O2 O 0.9510(4) 0.1518(4) 0.43372(15)
O3 O 0.8585(4) 0.5219(5) 0.04715(17)
O4 O 0.9456(3) 0.3135(5) 0.04331(15)
O5 O 1.3942(4) -0.2377(6) 0.0018(2)
Cu1 Cu 1.05155(6) 0.37445(7) -0.00305(2)
C21B C 1.8823(7) -1.0706(8) -0.0324(4)
H14B H 1.9429 -1.0869 -0.0492
C22B C 1.8308(8) -0.9497(9) -0.0449(4)
H15B H 1.8494 -0.8882 -0.0713
C23B C 1.7787(8) -1.1527(10) 0.0270(4)
H16B H 1.7593 -1.2219 0.0506
C24B C 1.7151(7) -1.0125(9) 0.0184(3)
H17B H 1.6566 -0.9908 0.0361
C25B C 1.7520(6) -0.9224(8) -0.0177(3)
C26B C 1.6900(7) -0.7721(9) -0.0285(3)
H18B H 1.6671 -0.7635 -0.0659
H19B H 1.7380 -0.6926 -0.0186
C27B C 1.5563(5) -0.6270(7) -0.0027(2)
C28B C 1.5876(6) -0.5055(7) -0.0266(3)
H20B H 1.6471 -0.5082 -0.0450
C29B C 1.4686(6) -0.6226(7) 0.0238(3)
H21B H 1.4463 -0.7056 0.0401
N2B N 1.8581(4) -1.1738(5) 0.0016(2)
O5B O 1.6058(4) -0.7623(6) -0.0018(2)
C1B C 1.1185(5) 0.9387(7) -0.4172(2)
C2B C 1.1827(5) 0.9104(7) -0.3664(2)
C3B C 1.2632(5) 1.0017(7) -0.3471(2)
H1B H 1.2783 1.0825 -0.3667
C4B C 1.1596(6) 0.7934(7) -0.3357(2)
H2B H 1.1043 0.7315 -0.3476
C5B C 1.3216(5) 0.9764(7) -0.2999(2)
H3B H 1.3766 1.0389 -0.2880
C6B C 1.2167(6) 0.7677(8) -0.2884(2)
H4B H 1.2000 0.6882 -0.2686
C7B C 1.2992(5) 0.8581(7) -0.2695(2)
C8B C 1.6759(15) 0.926(2) -0.1839(7)
H5B H 1.7474 0.9488 -0.1756
C9B C 1.6402(10) 0.8727(17) -0.2335(7)
H6B H 1.6876 0.8554 -0.2582
C10B C 1.6066(13) 0.945(2) -0.1478(7)
H7B H 1.6304 0.9797 -0.1144
C11B C 1.5309(8) 0.8454(13) -0.2457(5)
H8B H 1.5053 0.8139 -0.2792
C12B C 1.5006(10) 0.9130(14) -0.1605(4)
H9B H 1.4538 0.9250 -0.1352
C13B C 1.4628(7) 0.8646(10) -0.2089(3)
C14B C 1.2979(6) 0.7772(8) -0.1792(2)
C15B C 1.2065(7) 0.8428(8) -0.1674(3)
H10B H 1.1821 0.9247 -0.1861
C16B C 1.3344(6) 0.6535(8) -0.1517(2)
H11B H 1.3960 0.6071 -0.1596
C17B C 1.2786(5) 0.6018(8) -0.1132(2)
H12B H 1.3026 0.5193 -0.0947
C18B C 1.1503(6) 0.7899(7) -0.1285(2)
H13B H 1.0881 0.8355 -0.1211
C19B C 1.1862(5) 0.6696(7) -0.1008(2)
C20B C 1.1224(5) 0.6076(7) -0.0607(2)
N1B N 1.3546(5) 0.8310(7) -0.2202(2)
O1B O 1.1380(3) 1.0552(5) -0.44076(15)
O2B O 1.0490(4) 0.8482(4) -0.43372(15)
O3B O 1.1415(4) 0.4781(5) -0.04715(17)
O4B O 1.0544(3) 0.6865(5) -0.04331(15)
Cu1B Cu 0.94845(6) 0.62555(7) 0.00305(2)
N2B_2 N 0.8581(4) 0.8262(5) 0.0016(2)
O1A O 1.1380(3) 0.4448(5) 0.05924(15)
O1C O 0.8620(3) 0.5552(5) -0.05924(15)
O2A O 1.0490(4) 0.6518(4) 0.06628(15)
O2C O 0.9510(4) 0.3482(4) -0.06628(15)
Cu1A Cu 0.94845(6) -0.12555(7) 0.50305(2)
Cu1A_2 Cu 0.94845(6) 0.87445(7) -0.49695(2)
Cu1B_2 Cu 1.94845(6) -1.37445(7) 0.00305(2)
Cu1C Cu 1.05155(6) 0.12555(7) 0.49695(2)
Cu1C_2 Cu 1.05155(6) 1.12555(7) -0.50305(2)
N3 N 0.0972(11) 0.1727(17) 0.2785(6)
C30 C 0.0592(16) 0.028(2) 0.2635(8)
C31 C 0.0890(18) 0.290(3) 0.2373(8)
H22 H 0.1171 0.3789 0.2527
H23 H 0.0159 0.3040 0.2239
H24 H 0.1290 0.2628 0.2089
O6 O 0.0539(14) 0.043(2) 0.2057(8)
C32 C 0.1280(15) 0.240(2) 0.3283(8)
H25 H 0.1484 0.3386 0.3227
H26 H 0.1870 0.1887 0.3463
H27 H 0.0694 0.2385 0.3492
loop_
_geom_bond_atom_site_label_1
_geom_bond_atom_site_label_2
_geom_bond_site_symmetry_1
_geom_bond_site_symmetry_2
C1 C2 1_555 1_555
C2 C3 1_555 1_555
C3 H1 1_555 1_555
C4 C2 1_555 1_555
H2 C4 1_555 1_555
C5 C3 1_555 1_555
H3 C5 1_555 1_555
C6 C4 1_555 1_555
H4 C6 1_555 1_555
C7 C5 1_555 1_555
C8 H5 1_555 1_555
C9 C8 1_555 1_555
H6 C9 1_555 1_555
C10 C8 1_555 1_555
H7 C10 1_555 1_555
C11 C9 1_555 1_555
H8 C11 1_555 1_555
C12 C10 1_555 1_555
H9 C12 1_555 1_555
C13 C11 1_555 1_555
C14 C15 1_555 1_555
C15 H10 1_555 1_555
C16 C14 1_555 1_555
H11 C16 1_555 1_555
C17 C16 1_555 1_555
H12 C17 1_555 1_555
C18 C15 1_555 1_555
H13 C18 1_555 1_555
C19 C17 1_555 1_555
C20 C19 1_555 1_555
C21 H14 1_555 1_555
C22 C21 1_555 1_555
H15 C22 1_555 1_555
C23 H16 1_555 1_555
C24 C23 1_555 1_555
H17 C24 1_555 1_555
C25 C22 1_555 1_555
C26 C25 1_555 1_555
H18 C26 1_555 1_555
H19 C26 1_555 1_555
C27 C28 1_555 1_555
C28 H20 1_555 1_555
C29 C27 1_555 1_555
H21 C29 1_555 1_555
N1 C7 1_555 1_555
N2 C21 1_555 1_555
O1 C1 1_555 1_555
O2 C1 1_555 1_555
O3 C20 1_555 1_555
O4 C20 1_555 1_555
O5 C26 1_555 1_555
Cu1 N2 1_555 1_555
N3 C30 1_555 1_555
C30 O6 1_555 1_555
C31 N3 1_555 1_555
H22 C31 1_555 1_555
H23 C31 1_555 1_555
H24 C31 1_555 1_555
C32 N3 1_555 1_555
H25 C32 1_555 1_555
H26 C32 1_555 1_555
H27 C32 1_555 1_555
C21B H14B 1_555 1_555
C22B C21B 1_555 1_555
H15B C22B 1_555 1_555
C23B H16B 1_555 1_555
C24B C23B 1_555 1_555
H17B C24B 1_555 1_555
C25B C22B 1_555 1_555
C26B C25B 1_555 1_555
H18B C26B 1_555 1_555
H19B C26B 1_555 1_555
C27B C28B 1_555 1_555
C28B C29 1_555 1_555
H20B C28B 1_555 1_555
C29B C28 1_555 1_555
H21B C29B 1_555 1_555
N2B C21B 1_555 1_555
O5B C26B 1_555 1_555
C1B C2B 1_555 1_555
C2B C3B 1_555 1_555
C3B H1B 1_555 1_555
C4B C2B 1_555 1_555
H2B C4B 1_555 1_555
C5B C3B 1_555 1_555
H3B C5B 1_555 1_555
C6B C4B 1_555 1_555
H4B C6B 1_555 1_555
C7B C5B 1_555 1_555
C8B H5B 1_555 1_555
C9B C8B 1_555 1_555
H6B C9B 1_555 1_555
C10B C8B 1_555 1_555
H7B C10B 1_555 1_555
C11B C9B 1_555 1_555
H8B C11B 1_555 1_555
C12B C10B 1_555 1_555
H9B C12B 1_555 1_555
C13B C11B 1_555 1_555
C14B C15B 1_555 1_555
C15B H10B 1_555 1_555
C16B C14B 1_555 1_555
H11B C16B 1_555 1_555
C17B C16B 1_555 1_555
H12B C17B 1_555 1_555
C18B C15B 1_555 1_555
H13B C18B 1_555 1_555
C19B C17B 1_555 1_555
C20B C19B 1_555 1_555
N1B C7B 1_555 1_555
O1B C1B 1_555 1_555
O2B C1B 1_555 1_555
O3B Cu1 1_555 1_555
O4B C20B 1_555 1_555
Cu1B O3 1_555 1_555
N2B_2 Cu1B 1_555 1_555
O1A Cu1 1_555 1_555
O1C Cu1B 1_555 1_555
O2A Cu1B 1_555 1_555
O2C Cu1 1_555 1_555
Cu1A O1 1_555 1_555
Cu1A_2 O2B 1_555 1_555
Cu1B_2 N2B 1_555 1_555
Cu1C O2 1_555 1_555
Cu1C_2 O1B 1_555 1_555
C6 C7 1_555 1_555
C12 C13 1_555 1_555
C13 N1 1_555 1_555
C14 N1 1_555 1_555
C18 C19 1_555 1_555
C23 N2 1_555 1_555
C24 C25 1_555 1_555
C27 O5 1_555 1_555
O4 Cu1 1_555 1_555
C23B N2B 1_555 1_555
C24B C25B 1_555 1_555
C27B C29B 1_555 1_555
C27B O5B 1_555 1_555
C6B C7B 1_555 1_555
C12B C13B 1_555 1_555
C13B N1B 1_555 1_555
C14B N1B 1_555 1_555
C18B C19B 1_555 1_555
C20B O3B 1_555 1_555
O4B Cu1B 1_555 1_555

#END
