
#######################################################################
#
#                 Cambridge Crystallographic Data Centre
#                                CCDC 
#
#######################################################################
#
# If this CIF has been generated from an entry in the Cambridge 
# Structural Database, then it will include bibliographic, chemical, 
# crystal, experimental, refinement or atomic coordinate data resulting 
# from the CCDC's data processing and validation procedures.
#
#######################################################################

data_MUMLIR
_chemical_formula_moiety         '(C28 H18 N12 O8 Zn3)n'
_symmetry_cell_setting           monoclinic
_symmetry_space_group_name_H-M   'C 2/c'
_symmetry_Int_Tables_number      15
_space_group_name_Hall           '-C 2yc'
loop_
_symmetry_equiv_pos_site_id
_symmetry_equiv_pos_as_xyz
1 x,y,z
2 -x,y,1/2-z
3 1/2+x,1/2+y,z
4 1/2-x,1/2+y,1/2-z
5 -x,-y,-z
6 x,-y,1/2+z
7 1/2-x,1/2-y,-z
8 1/2+x,1/2-y,1/2+z
_cell_length_a                   20.861(5)
_cell_length_b                   15.959(5)
_cell_length_c                   13.286(5)
_cell_angle_alpha                90
_cell_angle_beta                 96.789(5)
_cell_angle_gamma                90
_cell_volume                     4392.17
loop_
_atom_site_label
_atom_site_type_symbol
_atom_site_fract_x
_atom_site_fract_y
_atom_site_fract_z
Zn1 Zn 1.0000 0.36265(5) 0.2500
Zn2 Zn 0.82918(2) 0.44368(3) 0.01080(4)
C1 C 0.8490(3) 0.5813(4) 0.1636(4)
H1 H 0.8889 0.5602 0.1906
C2 C 0.7573(2) 0.5931(3) 0.0723(4)
H2 H 0.7215 0.5825 0.0252
C3 C 0.8237(3) 0.6525(4) 0.1909(5)
H3 H 0.8420 0.6895 0.2402
C4 C 0.7223(2) 0.7321(3) 0.1289(4)
C5 C 0.6591(3) 0.7232(4) 0.0871(5)
H4 H 0.6444 0.6717 0.0610
C6 C 0.6174(2) 0.7906(3) 0.0838(5)
H5 H 0.5747 0.7841 0.0559
C7 C 0.6389(2) 0.8679(3) 0.1218(4)
C8 C 0.7027(2) 0.8751(3) 0.1633(4)
H6 H 0.7181 0.9265 0.1884
C9 C 0.7437(2) 0.8071(3) 0.1679(4)
H7 H 0.7861 0.8126 0.1977
C10 C 0.5950(2) 0.9391(3) 0.1175(3)
C11 C 0.8893(2) 0.3028(3) 0.1401(3)
C12 C 0.8370(2) 0.2417(3) 0.1075(4)
H8 H 0.8022 0.2605 0.0631
C13 C 0.8366(2) 0.1645(3) 0.1367(4)
H9 H 0.8710 0.1453 0.1815
C14 C 0.7841(3) 0.1055(4) 0.1024(5)
N1 N 0.80784(19) 0.5432(3) 0.0898(3)
N2 N 0.76478(19) 0.6617(3) 0.1323(3)
N3 N 0.60498(17) 1.0142(2) 0.0765(3)
N4 N 0.55173(18) 1.0618(2) 0.0881(3)
N5 N 0.51256(18) 1.0169(3) 0.1358(3)
N6 N 0.53867(17) 0.9399(2) 0.1549(3)
O1 O 0.88412(14) 0.3782(2) 0.1134(2)
O2 O 0.93789(14) 0.2771(2) 0.1969(3)
O3 O 0.7904(2) 0.0306(3) 0.1226(3)
O4 O 0.7357(2) 0.1320(3) 0.0483(3)
Zn2A Zn 1.17082(2) 0.44368(3) 0.48920(4)
C1A C 1.1510(3) 0.5813(4) 0.3364(4)
H1A H 1.1111 0.5602 0.3094
C2A C 1.2427(2) 0.5931(3) 0.4277(4)
H2A H 1.2785 0.5825 0.4748
C3A C 1.1763(3) 0.6525(4) 0.3091(5)
H3A H 1.1580 0.6895 0.2598
C4A C 1.2777(2) 0.7321(3) 0.3711(4)
C5A C 1.3409(3) 0.7232(4) 0.4129(5)
H4A H 1.3556 0.6717 0.4390
C6A C 1.3826(2) 0.7906(3) 0.4162(5)
H5A H 1.4253 0.7841 0.4441
C7A C 1.3611(2) 0.8679(3) 0.3782(4)
C8A C 1.2973(2) 0.8751(3) 0.3367(4)
H6A H 1.2819 0.9265 0.3116
C9A C 1.2563(2) 0.8071(3) 0.3321(4)
H7A H 1.2139 0.8126 0.3023
C10A C 1.4050(2) 0.9391(3) 0.3825(3)
C11A C 1.1107(2) 0.3028(3) 0.3599(3)
C12A C 1.1630(2) 0.2417(3) 0.3925(4)
H8A H 1.1978 0.2605 0.4369
C13A C 1.1634(2) 0.1645(3) 0.3633(4)
H9A H 1.1290 0.1453 0.3185
C14A C 1.2159(3) 0.1055(4) 0.3976(5)
N1A N 1.19216(19) 0.5432(3) 0.4102(3)
N2A N 1.23522(19) 0.6617(3) 0.3677(3)
N3A N 1.39502(17) 1.0142(2) 0.4235(3)
N4A N 1.44827(18) 1.0618(2) 0.4119(3)
N5A N 1.48744(18) 1.0169(3) 0.3642(3)
N6A N 1.46133(17) 0.9399(2) 0.3451(3)
O1A O 1.11588(14) 0.3782(2) 0.3866(2)
O2A O 1.06211(14) 0.2771(2) 0.3031(3)
O3A O 1.2096(2) 0.0306(3) 0.3774(3)
O4A O 1.2643(2) 0.1320(3) 0.4517(3)
Zn1B Zn 0.5000 0.86265(5) 0.2500
Zn1B_2 Zn 1.5000 0.86265(5) 0.2500
Zn2F Zn 0.67082(2) 0.05632(3) -0.01080(4)
Zn2F_2 Zn 0.67082(2) 1.05632(3) -0.01080(4)
Zn2G Zn 1.32918(2) 0.05632(3) 0.51080(4)
Zn2G_2 Zn 1.32918(2) 1.05632(3) 0.51080(4)
N3F N 0.89502(17) 0.4858(2) -0.0765(3)
N3G N 1.10498(17) 0.4858(2) 0.5765(3)
N6B N 1.03867(17) 0.4399(2) 0.1549(3)
N6C N 0.96133(17) 0.4399(2) 0.3451(3)
O4F O 0.7643(2) 0.3680(3) -0.0483(3)
O4G O 1.2357(2) 0.3680(3) 0.5483(3)
loop_
_geom_bond_atom_site_label_1
_geom_bond_atom_site_label_2
_geom_bond_site_symmetry_1
_geom_bond_site_symmetry_2
Zn1 O2 1_555 1_555
Zn2 N1 1_555 1_555
C1 H1 1_555 1_555
C2 H2 1_555 1_555
C3 C1 1_555 1_555
H3 C3 1_555 1_555
C4 C5 1_555 1_555
C5 H4 1_555 1_555
C6 C5 1_555 1_555
H5 C6 1_555 1_555
C7 C6 1_555 1_555
C8 C7 1_555 1_555
H6 C8 1_555 1_555
C9 C4 1_555 1_555
H7 C9 1_555 1_555
C10 C7 1_555 1_555
C11 C12 1_555 1_555
C12 H8 1_555 1_555
C13 C12 1_555 1_555
H9 C13 1_555 1_555
C14 C13 1_555 1_555
N1 C1 1_555 1_555
N2 C2 1_555 1_555
N3 C10 1_555 1_555
N4 N3 1_555 1_555
N5 N4 1_555 1_555
N6 C10 1_555 1_555
O1 Zn2 1_555 1_555
O2 C11 1_555 1_555
O3 C14 1_555 1_555
O4 C14 1_555 1_555
Zn2A N1A 1_555 1_555
C1A H1A 1_555 1_555
C2A H2A 1_555 1_555
C3A C1A 1_555 1_555
H3A C3A 1_555 1_555
C4A C5A 1_555 1_555
C5A H4A 1_555 1_555
C6A C5A 1_555 1_555
H5A C6A 1_555 1_555
C7A C6A 1_555 1_555
C8A C7A 1_555 1_555
H6A C8A 1_555 1_555
C9A C4A 1_555 1_555
H7A C9A 1_555 1_555
C10A C7A 1_555 1_555
C11A C12A 1_555 1_555
C12A H8A 1_555 1_555
C13A C12A 1_555 1_555
H9A C13A 1_555 1_555
C14A C13A 1_555 1_555
N1A C1A 1_555 1_555
N2A C2A 1_555 1_555
N3A C10A 1_555 1_555
N4A N3A 1_555 1_555
N5A N4A 1_555 1_555
N6A C10A 1_555 1_555
O1A Zn2A 1_555 1_555
O2A Zn1 1_555 1_555
O3A C14A 1_555 1_555
O4A C14A 1_555 1_555
Zn1B N6 1_555 1_555
Zn1B_2 N6A 1_555 1_555
Zn2F O4 1_555 1_555
Zn2F_2 N3 1_555 1_555
Zn2G O4A 1_555 1_555
Zn2G_2 N3A 1_555 1_555
N3F Zn2 1_555 1_555
N3G Zn2A 1_555 1_555
N6B Zn1 1_555 1_555
N6C Zn1 1_555 1_555
O4F Zn2 1_555 1_555
O4G Zn2A 1_555 1_555
C2 N1 1_555 1_555
C3 N2 1_555 1_555
C4 N2 1_555 1_555
C8 C9 1_555 1_555
C11 O1 1_555 1_555
N5 N6 1_555 1_555
C2A N1A 1_555 1_555
C3A N2A 1_555 1_555
C4A N2A 1_555 1_555
C8A C9A 1_555 1_555
C11A O1A 1_555 1_555
C11A O2A 1_555 1_555
N5A N6A 1_555 1_555

#END
