
#######################################################################
#
#                 Cambridge Crystallographic Data Centre
#                                CCDC 
#
#######################################################################
#
# If this CIF has been generated from an entry in the Cambridge 
# Structural Database, then it will include bibliographic, chemical, 
# crystal, experimental, refinement or atomic coordinate data resulting 
# from the CCDC's data processing and validation procedures.
#
#######################################################################

data_CEMYUQ
_chemical_formula_moiety         'C43 H4 Fe2 N8 O2 Pt4'
_symmetry_cell_setting           tetragonal
_symmetry_space_group_name_H-M   'P 4/m m m'
_symmetry_Int_Tables_number      123
_space_group_name_Hall           '-P 4 2'
loop_
_symmetry_equiv_pos_site_id
_symmetry_equiv_pos_as_xyz
1 x,y,z
2 -x,-y,z
3 x,-y,-z
4 -x,y,-z
5 -y,-x,-z
6 y,x,-z
7 y,-x,z
8 -y,x,z
9 -x,-y,-z
10 x,y,-z
11 -x,y,z
12 x,-y,z
13 y,x,z
14 -y,-x,z
15 -y,x,-z
16 y,-x,-z
_cell_length_a                   7.1407(6)
_cell_length_b                   7.1407(6)
_cell_length_c                   20.489(4)
_cell_angle_alpha                90
_cell_angle_beta                 90
_cell_angle_gamma                90
_cell_volume                     1044.73
loop_
_atom_site_label
_atom_site_type_symbol
_atom_site_fract_x
_atom_site_fract_y
_atom_site_fract_z
N3 N 0.0000 0.0000 0.7201
C9 C 0.0000 0.0000 0.7201
C10 C 0.0000 0.0000 0.6592
C11 C 0.0000 0.0000 0.7211
C12 C -0.0000 -0.0000 0.7744
O1 O 0.0000 -0.5000 0.5000
O2 O -0.0000 -0.0000 0.912(9)
Pt1 Pt 0.0000 0.0000 0.5000
Fe1 Fe -0.5000 -0.5000 0.5000
N1 N -0.5000 -0.5000 0.5969(10)
N2 N -0.3100(16) -0.3100(16) 0.5000
C1 C -0.192(2) -0.192(2) 0.5000
C2 C -0.5000 -0.5000 0.7329(13)
C3 C -0.342(4) -0.5000 0.6308(14)
C4 C -0.5000 -0.5000 0.931(2)
C5 C -0.5000 -0.5000 0.864(2)
C6 C -0.5000 -0.5000 0.8048(16)
C7 C -0.333(5) -0.5000 0.6996(15)
C8 C -0.364(15) -0.5000 0.965(2)
C3A C -0.658(4) -0.5000 0.6308(14)
C7A C -0.667(5) -0.5000 0.6996(15)
C8A C -0.636(15) -0.5000 0.965(2)
N1B N -0.5000 -0.5000 1.4031(10)
C2B C -0.5000 -0.5000 1.2671(13)
C3B C -0.342(4) -0.5000 1.3692(14)
C4B C -0.5000 -0.5000 1.069(2)
C5B C -0.5000 -0.5000 1.136(2)
C6B C -0.5000 -0.5000 1.1952(16)
C7B C -0.333(5) -0.5000 1.3004(15)
C8B C -0.364(15) -0.5000 1.035(2)
C3C C -0.658(4) -0.5000 1.3692(14)
C7C C -0.667(5) -0.5000 1.3004(15)
C8C C -0.636(15) -0.5000 1.035(2)
C3D C -0.5000 -0.658(4) 1.3692(14)
C7D C -0.5000 -0.667(5) 1.3004(15)
C8D C -0.5000 -0.636(15) 1.035(2)
C3E C -0.5000 -0.342(4) 1.3692(14)
C7E C -0.5000 -0.333(5) 1.3004(15)
C8E C -0.5000 -0.364(15) 1.035(2)
C3F C -0.5000 -0.658(4) 0.6308(14)
C7F C -0.5000 -0.667(5) 0.6996(15)
C8F C -0.5000 -0.636(15) 0.965(2)
C3G C -0.5000 -0.342(4) 0.6308(14)
C7G C -0.5000 -0.333(5) 0.6996(15)
C8G C -0.5000 -0.364(15) 0.965(2)
N2A N -0.6900(16) -0.6900(16) 0.5000
C1A C -0.808(2) -0.808(2) 0.5000
N2B N -0.3100(16) -0.6900(16) 0.5000
C1B C -0.192(2) -0.808(2) 0.5000
N2C N -0.6900(16) -0.3100(16) 0.5000
C1C C -0.808(2) -0.192(2) 0.5000
Pt1_2 Pt -1.0000 -1.0000 0.5000
Pt1_3 Pt -1.0000 0.0000 0.5000
Pt1_4 Pt 0.0000 -1.0000 0.5000
Fe1_2 Fe -0.5000 -0.5000 1.5000
N1B_2 N -0.5000 -0.5000 0.4031(10)
C1A_2 C 0.192(2) 0.192(2) 0.5000
C1B_2 C -0.192(2) 0.192(2) 0.5000
C1C_2 C 0.192(2) -0.192(2) 0.5000
loop_
_geom_bond_atom_site_label_1
_geom_bond_atom_site_label_2
_geom_bond_site_symmetry_1
_geom_bond_site_symmetry_2
Pt1 C1 1_555 1_555
Fe1 N1 1_555 1_555
N1 C3 1_555 1_555
N2 Fe1 1_555 1_555
C1 N2 1_555 1_555
C2 C6 1_555 1_555
C3 C7 1_555 1_555
C4 C5 1_555 1_555
C5 C6 1_555 1_555
C7 C2 1_555 1_555
C8 C4 1_555 1_555
N3 C10 1_555 1_555
C9 C10 1_555 1_555
C10 C11 1_555 1_555
C11 C12 1_555 1_555
C12 N3 1_555 1_555
C3A N1 1_555 1_555
C7A C2 1_555 1_555
C8A C4 1_555 1_555
N1B C3B 1_555 1_555
C2B C6B 1_555 1_555
C3B C7B 1_555 1_555
C4B C5B 1_555 1_555
C5B C6B 1_555 1_555
C7B C2B 1_555 1_555
C8B C8 1_555 1_555
C3C N1B 1_555 1_555
C7C C2B 1_555 1_555
C8C C8A 1_555 1_555
C3D N1B 1_555 1_555
C7D C2B 1_555 1_555
C8D C4B 1_555 1_555
C3E N1B 1_555 1_555
C7E C2B 1_555 1_555
C8E C4B 1_555 1_555
C3F N1 1_555 1_555
C7F C2 1_555 1_555
C8F C4 1_555 1_555
C3G N1 1_555 1_555
C7G C2 1_555 1_555
C8G C4 1_555 1_555
N2A Fe1 1_555 1_555
C1A N2A 1_555 1_555
N2B Fe1 1_555 1_555
C1B N2B 1_555 1_555
N2C Fe1 1_555 1_555
C1C N2C 1_555 1_555
Pt1_2 C1A 1_555 1_555
Pt1_3 C1C 1_555 1_555
Pt1_4 C1B 1_555 1_555
Fe1_2 N1B 1_555 1_555
N1B_2 Fe1 1_555 1_555
C1A_2 Pt1 1_555 1_555
C1B_2 Pt1 1_555 1_555
C1C_2 Pt1 1_555 1_555
C3 C3F 1_555 1_555
C3 C3G 1_555 1_555
C7 C7F 1_555 1_555
C7 C7G 1_555 1_555
C8 C8F 1_555 1_555
C8 C8G 1_555 1_555
C9 C12 1_555 1_555
C3A C7A 1_555 1_555
C3A C3F 1_555 1_555
C3A C3G 1_555 1_555
C7A C7F 1_555 1_555
C7A C7G 1_555 1_555
C8A C8F 1_555 1_555
C8A C8G 1_555 1_555
C3B C3D 1_555 1_555
C3B C3E 1_555 1_555
C4B C8B 1_555 1_555
C4B C8C 1_555 1_555
C7B C7D 1_555 1_555
C7B C7E 1_555 1_555
C8B C8D 1_555 1_555
C8B C8E 1_555 1_555
C3C C7C 1_555 1_555
C3C C3D 1_555 1_555
C3C C3E 1_555 1_555
C7C C7D 1_555 1_555
C7C C7E 1_555 1_555
C8C C8D 1_555 1_555
C8C C8E 1_555 1_555
C3D C7D 1_555 1_555
C8D C8F 1_555 1_555
C3E C7E 1_555 1_555
C8E C8G 1_555 1_555
C3F C7F 1_555 1_555
C3G C7G 1_555 1_555

#END
