
#######################################################################
#
#                 Cambridge Crystallographic Data Centre
#                                CCDC 
#
#######################################################################
#
# If this CIF has been generated from an entry in the Cambridge 
# Structural Database, then it will include bibliographic, chemical, 
# crystal, experimental, refinement or atomic coordinate data resulting 
# from the CCDC's data processing and validation procedures.
#
#######################################################################

data_MOXNIY
_chemical_formula_moiety         '(C30 H48 Mn2 N2 O11)n'
_symmetry_cell_setting           orthorhombic
_symmetry_space_group_name_H-M   'P 21 21 21'
_symmetry_Int_Tables_number      19
_space_group_name_Hall           'P 2ac 2ab'
loop_
_symmetry_equiv_pos_site_id
_symmetry_equiv_pos_as_xyz
1 x,y,z
2 1/2-x,-y,1/2+z
3 -x,1/2+y,1/2-z
4 1/2+x,1/2-y,-z
_cell_length_a                   13.085(6)
_cell_length_b                   14.106(7)
_cell_length_c                   18.175(9)
_cell_angle_alpha                90
_cell_angle_beta                 90
_cell_angle_gamma                90
_cell_volume                     3354.69
loop_
_atom_site_label
_atom_site_type_symbol
_atom_site_fract_x
_atom_site_fract_y
_atom_site_fract_z
Mn1 Mn 1.24024(3) 0.48619(4) 0.42018(2)
Mn2 Mn 1.28306(3) 0.51069(4) 0.58329(2)
O1 O 1.7250(2) 0.12754(19) 0.41538(18)
O2 O 1.7115(2) 0.14952(19) 0.53558(17)
O3 O 1.4273(2) 0.4567(2) 0.54645(16)
O4 O 1.39489(19) 0.4522(2) 0.42786(17)
C1 C 1.7088(2) 0.1785(3) 0.4702(3)
C2 C 1.4533(3) 0.4416(3) 0.4809(2)
C3 C 1.7447(4) 0.3154(4) 0.3900(3)
H1 H 1.7260 0.2775 0.3483
H2 H 1.8165 0.3084 0.3995
H3 H 1.7297 0.3808 0.3800
C4 C 1.6844(3) 0.2832(2) 0.4569(2)
C5 C 1.7134(3) 0.3441(3) 0.5230(3)
H4 H 1.7083 0.3075 0.5680
H5 H 1.7830 0.3670 0.5181
C6 C 1.6389(3) 0.4265(3) 0.5244(3)
H6 H 1.6744 0.4855 0.5146
H7 H 1.6065 0.4310 0.5722
C7 C 1.5592(3) 0.4081(3) 0.4653(2)
H8 H 1.5821 0.4412 0.4209
C8 C 1.5671(3) 0.3006(3) 0.4492(2)
C9 C 1.5245(4) 0.2736(4) 0.3730(3)
H9 H 1.5315 0.2065 0.3657
H10 H 1.5619 0.3068 0.3356
H11 H 1.4536 0.2907 0.3703
C10 C 1.5058(3) 0.2446(3) 0.5050(4)
H12 H 1.5118 0.1781 0.4945
H13 H 1.4353 0.2630 0.5024
H14 H 1.5315 0.2570 0.5535
O5 O 1.09796(19) 0.5308(2) 0.46069(15)
O6 O 1.13054(19) 0.5622(2) 0.57745(17)
O7 O 0.7850(2) 0.86842(17) 0.58180(17)
O8 O 0.8263(2) 0.85958(19) 0.46427(16)
C11 C 1.0726(3) 0.5598(3) 0.5225(2)
C12 C 0.8154(3) 0.8245(3) 0.5269(2)
C13 C 0.9173(3) 0.5264(3) 0.5935(2)
H15 H 0.9236 0.4617 0.5780
H16 H 0.8464 0.5414 0.6009
H17 H 0.9538 0.5353 0.6388
C14 C 0.9620(2) 0.5919(2) 0.53429(19)
C15 C 0.8981(3) 0.5855(3) 0.4644(2)
H18 H 0.9404 0.5975 0.4216
H19 H 0.8685 0.5228 0.4598
C16 C 0.8158(3) 0.6584(3) 0.4699(2)
H20 H 0.7498 0.6282 0.4763
H21 H 0.8137 0.6966 0.4255
C17 C 0.8407(3) 0.7196(2) 0.5357(2)
H22 H 0.7994 0.6960 0.5768
C18 C 0.9543(3) 0.6998(2) 0.5556(2)
C19 C 0.9764(4) 0.7211(4) 0.6341(3)
H23 H 0.9698 0.7881 0.6425
H24 H 1.0447 0.7015 0.6457
H25 H 0.9288 0.6877 0.6648
C20 C 1.0265(3) 0.7564(3) 0.5073(4)
H26 H 1.0223 0.8223 0.5202
H27 H 1.0076 0.7483 0.4566
H28 H 1.0951 0.7344 0.5145
O9 O 1.19626(19) 0.4629(2) 0.31228(13)
O10 O 1.18481(18) 0.46652(18) 0.19340(11)
C21 C 1.2346(2) 0.4813(2) 0.2503(2)
C22 C 1.3392(3) 0.5216(4) 0.2458(2)
H29 H 1.3575 0.5305 0.1951
H30 H 1.3868 0.4788 0.2685
H31 H 1.3410 0.5815 0.2709
Mn1C Mn 0.74024(3) 1.01381(4) 0.57982(2)
Mn1C_2 Mn 1.74024(3) 0.01381(4) 0.57982(2)
Mn2A Mn 1.21694(3) 0.48931(4) 0.08329(2)
Mn2C Mn 0.78306(3) 0.98931(4) 0.41671(2)
Mn2C_2 Mn 1.78306(3) -0.01069(4) 0.41671(2)
O1C O 1.2250(2) 0.37246(19) 0.58462(18)
O2C O 1.2115(2) 0.35048(19) 0.46442(17)
O7C O 1.2850(2) 0.63158(17) 0.41820(17)
O8C O 1.3263(2) 0.64042(19) 0.53573(16)
O10A O 1.31519(18) 0.53348(18) 0.69340(11)
N1 N 1.0627(4) 0.8031(3) 0.3095(3)
N2 N 0.9552(4) 0.7113(4) 0.2545(4)
C23 C 1.1044(6) 0.8898(5) 0.3422(5)
H32 H 1.0512 0.9363 0.3464
H33 H 1.1580 0.9140 0.3115
H34 H 1.1312 0.8758 0.3902
C24 C 0.9686(5) 0.7926(4) 0.2874(4)
H35 H 0.9174 0.8374 0.2943
C25 C 1.1099(5) 0.7247(5) 0.2927(5)
H36 H 1.1781 0.7116 0.3028
C26 C 1.0483(6) 0.6691(6) 0.2601(6)
H37 H 1.0644 0.6088 0.2429
C27 C 0.8632(18) 0.7055(16) 0.2089(8)
H38 H 0.8381 0.7682 0.1963
H39 H 0.8762 0.6705 0.1639
C28 C 0.7916(18) 0.656(2) 0.2555(15)
H40 H 0.7900 0.6898 0.3019
H41 H 0.8214 0.5943 0.2656
C29 C 0.6794(8) 0.6380(6) 0.2335(5)
H42 H 0.6401 0.6963 0.2356
H43 H 0.6751 0.6123 0.1841
C30 C 0.6423(7) 0.5701(5) 0.2870(4)
H44 H 0.5715 0.5567 0.2776
H45 H 0.6494 0.5960 0.3356
H46 H 0.6812 0.5126 0.2833
O11 O 1.0176(5) 0.9361(5) 0.1755(4)
H51 H 1.0106 0.9610 0.1332
H52 H 0.9588 0.9340 0.1954
loop_
_geom_bond_atom_site_label_1
_geom_bond_atom_site_label_2
_geom_bond_site_symmetry_1
_geom_bond_site_symmetry_2
Mn1 Mn2 1_555 1_555
Mn2 O3 1_555 1_555
O1 C1 1_555 1_555
O2 C1 1_555 1_555
O3 C2 1_555 1_555
O4 Mn1 1_555 1_555
C1 C4 1_555 1_555
C2 O4 1_555 1_555
C3 H1 1_555 1_555
H2 C3 1_555 1_555
H3 C3 1_555 1_555
C4 C3 1_555 1_555
C5 C4 1_555 1_555
H4 C5 1_555 1_555
H5 C5 1_555 1_555
C6 C5 1_555 1_555
H6 C6 1_555 1_555
H7 C6 1_555 1_555
C7 C2 1_555 1_555
H8 C7 1_555 1_555
C8 C4 1_555 1_555
C9 C8 1_555 1_555
H9 C9 1_555 1_555
H10 C9 1_555 1_555
H11 C9 1_555 1_555
C10 C8 1_555 1_555
H12 C10 1_555 1_555
H13 C10 1_555 1_555
H14 C10 1_555 1_555
O5 Mn1 1_555 1_555
O6 Mn2 1_555 1_555
O7 C12 1_555 1_555
O8 C12 1_555 1_555
C11 O5 1_555 1_555
C12 C17 1_555 1_555
C13 H15 1_555 1_555
H16 C13 1_555 1_555
H17 C13 1_555 1_555
C14 C11 1_555 1_555
C15 C14 1_555 1_555
H18 C15 1_555 1_555
H19 C15 1_555 1_555
C16 C15 1_555 1_555
H20 C16 1_555 1_555
H21 C16 1_555 1_555
C17 C16 1_555 1_555
H22 C17 1_555 1_555
C18 C14 1_555 1_555
C19 C18 1_555 1_555
H23 C19 1_555 1_555
H24 C19 1_555 1_555
H25 C19 1_555 1_555
C20 C18 1_555 1_555
H26 C20 1_555 1_555
H27 C20 1_555 1_555
H28 C20 1_555 1_555
O9 Mn1 1_555 1_555
O10 C21 1_555 1_555
C21 O9 1_555 1_555
C22 C21 1_555 1_555
H29 C22 1_555 1_555
H30 C22 1_555 1_555
H31 C22 1_555 1_555
N1 C23 1_555 1_555
N2 C24 1_555 1_555
C23 H32 1_555 1_555
H33 C23 1_555 1_555
H34 C23 1_555 1_555
C24 N1 1_555 1_555
H35 C24 1_555 1_555
C25 N1 1_555 1_555
H36 C25 1_555 1_555
C26 N2 1_555 1_555
H37 C26 1_555 1_555
C27 N2 1_555 1_555
H38 C27 1_555 1_555
H39 C27 1_555 1_555
C28 C27 1_555 1_555
H40 C28 1_555 1_555
H41 C28 1_555 1_555
C29 C28 1_555 1_555
H42 C29 1_555 1_555
H43 C29 1_555 1_555
C30 C29 1_555 1_555
H44 C30 1_555 1_555
H45 C30 1_555 1_555
H46 C30 1_555 1_555
O11 H51 1_555 1_555
H52 O11 1_555 1_555
Mn1C O7 1_555 1_555
Mn1C_2 O2 1_555 1_555
Mn2A O10 1_555 1_555
Mn2C O8 1_555 1_555
Mn2C_2 O1 1_555 1_555
O1C Mn2 1_555 1_555
O2C Mn1 1_555 1_555
O7C Mn1 1_555 1_555
O8C Mn2 1_555 1_555
O10A Mn2 1_555 1_555
C6 C7 1_555 1_555
C7 C8 1_555 1_555
O6 C11 1_555 1_555
C13 C14 1_555 1_555
C17 C18 1_555 1_555
C25 C26 1_555 1_555
Mn1C Mn2C 1_555 1_555
Mn1C_2 Mn2C_2 1_555 1_555

#END
