
#######################################################################
#
#                 Cambridge Crystallographic Data Centre
#                                CCDC 
#
#######################################################################
#
# If this CIF has been generated from an entry in the Cambridge 
# Structural Database, then it will include bibliographic, chemical, 
# crystal, experimental, refinement or atomic coordinate data resulting 
# from the CCDC's data processing and validation procedures.
#
#######################################################################

data_UHOMEL
_chemical_formula_moiety         '(C18 H22 N4 O7 Zn1)n'
_symmetry_cell_setting           orthorhombic
_symmetry_space_group_name_H-M   'P 21 21 2'
_symmetry_Int_Tables_number      18
_space_group_name_Hall           'P 2 2ab'
loop_
_symmetry_equiv_pos_site_id
_symmetry_equiv_pos_as_xyz
1 x,y,z
2 -x,-y,z
3 1/2-x,1/2+y,-z
4 1/2+x,1/2-y,-z
_cell_length_a                   17.655(7)
_cell_length_b                   21.733(8)
_cell_length_c                   5.626(2)
_cell_angle_alpha                90
_cell_angle_beta                 90
_cell_angle_gamma                90
_cell_volume                     2158.67
loop_
_atom_site_label
_atom_site_type_symbol
_atom_site_fract_x
_atom_site_fract_y
_atom_site_fract_z
_atom_site_U_iso_or_equiv
_atom_site_thermal_displace_type
Zn1 Zn 0.82758(2) 0.295947(18) 0.15468(7) 0.0282 Uani
C1 C 0.8605(2) 0.3818(2) -0.2436(8) 0.0397 Uani
H1 H 0.8970 0.3525 -0.2816 0.0480 Uiso
C2 C 0.8521(2) 0.43181(19) -0.3905(9) 0.0447 Uani
H2 H 0.8835 0.4365 -0.5220 0.0530 Uiso
C3 C 0.7663(2) 0.41647(18) 0.0052(8) 0.0413 Uani
H3 H 0.7378 0.4120 0.1434 0.0490 Uiso
C4 C 0.7535(2) 0.46677(18) -0.1371(10) 0.0482 Uani
H4 H 0.7162 0.4952 -0.0973 0.0580 Uiso
C5 C 0.7973(2) 0.47493(17) -0.3436(9) 0.0417 Uani
C6 C 0.7867(3) 0.52639(19) -0.5072(9) 0.0467 Uani
H5 H 0.8228 0.5318 -0.6258 0.0560 Uiso
C7 C 0.7306(3) 0.5653(2) -0.4999(10) 0.0533 Uani
H6 H 0.6946 0.5594 -0.3813 0.0640 Uiso
C8 C 0.7187(3) 0.61804(19) -0.6624(10) 0.0464 Uani
C9 C 0.7640(2) 0.63061(19) -0.8612(10) 0.0473 Uani
H7 H 0.8041 0.6047 -0.8994 0.0570 Uiso
C10 C 0.7490(2) 0.68140(18) -1.0001(9) 0.0413 Uani
H8 H 0.7801 0.6895 -1.1297 0.0490 Uiso
C11 C 0.6603(3) 0.6581(2) -0.6153(10) 0.0570 Uani
H9 H 0.6292 0.6517 -0.4841 0.0690 Uiso
C12 C 0.6477(3) 0.7082(2) -0.7644(9) 0.0510 Uani
H10 H 0.6078 0.7346 -0.7303 0.0610 Uiso
C13 C 0.98005(19) 0.28692(16) 0.2009(6) 0.0300 Uani
C14 C 1.05614(19) 0.27543(17) 0.3192(7) 0.0314 Uani
H11 H 1.0962 0.2882 0.2090 0.0380 Uiso
C15 C 1.06316(19) 0.20520(17) 0.3594(8) 0.0375 Uani
H12 H 1.0370 0.1945 0.5053 0.0450 Uiso
H13 H 1.0379 0.1840 0.2300 0.0450 Uiso
C16 C 1.1438(2) 0.1825(2) 0.3749(8) 0.0420 Uani
H14 H 1.1725 0.2013 0.2470 0.0510 Uiso
H15 H 1.1438 0.1384 0.3476 0.0510 Uiso
C17 C 1.1851(2) 0.19490(16) 0.6066(7) 0.0333 Uani
C18 C 1.0591(2) 0.37086(18) 0.5382(8) 0.0379 Uani
N1 N 0.81837(18) 0.37334(13) -0.0474(6) 0.0315 Uani
N2 N 0.69084(18) 0.71967(13) -0.9546(6) 0.0334 Uani
N3 N 1.06606(18) 0.30870(15) 0.5391(6) 0.0353 Uani
H16 H 1.0763 0.2894 0.6687 0.0420 Uiso
N4 N 1.0594(2) 0.39816(17) 0.7540(8) 0.0505 Uani
H17 H 1.0577 0.4376 0.7646 0.0610 Uiso
H18 H 1.0613 0.3761 0.8807 0.0610 Uiso
O1 O 0.92215(13) 0.29063(13) 0.3374(5) 0.0356 Uani
O2 O 0.97694(16) 0.28949(16) -0.0175(5) 0.0443 Uani
O3 O 1.25646(15) 0.20149(16) 0.5836(6) 0.0459 Uani
O4 O 1.15180(18) 0.19541(19) 0.7963(5) 0.0576 Uani
O5 O 1.05641(19) 0.39972(13) 0.3481(7) 0.0501 Uani
Zn1B Zn 0.67242(2) 0.795947(18) -1.15468(7) 0.0282 Uani
Zn1C Zn 1.32758(2) 0.204053(18) 0.84532(7) 0.0282 Uani
N2B N 0.80916(18) 0.21967(13) -0.0454(6) 0.0334 Uani
O3C O 0.75646(15) 0.29851(16) 0.4164(6) 0.0459 Uani
O6 O 1.0525(7) 0.0931(5) 0.858(2) 0.2487 Uani
H19 H 1.0858 0.1165 0.7976 0.3730 Uiso
H20 H 1.0733 0.0592 0.8963 0.3730 Uiso
O7 O 1.0000 0.5000 0.0899(14) 0.1723 Uani
H21 H 1.0162 0.4711 0.1781 0.2590 Uiso
H21A H 0.9838 0.5289 0.1781 0.2590 Uiso
loop_
_atom_site_aniso_label
_atom_site_aniso_U_11
_atom_site_aniso_U_22
_atom_site_aniso_U_33
_atom_site_aniso_U_23
_atom_site_aniso_U_13
_atom_site_aniso_U_12
Zn1 0.0266(2) 0.02842(19) 0.0295(2) 0.00108(17) -0.00319(16) -0.00075(14)
C1 0.041(2) 0.042(2) 0.036(2) 0.0055(18) 0.0026(17) 0.0039(17)
C2 0.047(2) 0.045(2) 0.042(3) 0.0071(19) 0.0053(19) 0.0000(17)
C3 0.046(2) 0.0348(19) 0.043(2) 0.0039(18) 0.0036(19) 0.0075(16)
C4 0.052(2) 0.0316(18) 0.061(3) 0.003(2) 0.001(2) 0.0131(16)
C5 0.042(2) 0.0330(18) 0.050(2) 0.007(2) -0.009(2) -0.0063(15)
C6 0.051(2) 0.037(2) 0.052(3) 0.010(2) -0.004(2) 0.0002(17)
C7 0.056(3) 0.049(2) 0.055(3) 0.016(2) 0.007(2) 0.005(2)
C8 0.055(2) 0.0372(19) 0.047(2) 0.007(2) -0.008(2) 0.0015(17)
C9 0.040(2) 0.0378(19) 0.064(3) 0.010(2) -0.002(2) 0.0077(15)
C10 0.041(2) 0.0348(18) 0.048(3) 0.0073(19) -0.0012(19) 0.0039(15)
C11 0.072(3) 0.048(2) 0.051(3) 0.017(2) 0.012(3) 0.011(2)
C12 0.066(3) 0.045(2) 0.042(2) 0.011(2) 0.009(2) 0.018(2)
C13 0.0275(16) 0.0306(17) 0.032(2) 0.0011(14) -0.0010(14) 0.0023(13)
C14 0.0224(15) 0.0417(18) 0.0301(19) 0.0002(16) -0.0003(14) -0.0003(13)
C15 0.0291(16) 0.0393(18) 0.044(2) -0.010(2) -0.0086(17) 0.0009(15)
C16 0.041(2) 0.050(2) 0.035(2) -0.0090(18) -0.0114(18) 0.0139(17)
C17 0.0310(18) 0.0362(19) 0.0326(18) 0.0019(15) -0.0032(14) 0.0070(14)
C18 0.0319(18) 0.0348(19) 0.047(2) 0.0048(18) 0.0008(17) -0.0021(14)
N1 0.0344(16) 0.0286(14) 0.0314(16) 0.0038(12) -0.0035(14) -0.0029(12)
N2 0.0369(17) 0.0275(14) 0.0358(17) 0.0021(12) -0.0045(13) 0.0032(11)
N3 0.0343(15) 0.0399(18) 0.0318(16) 0.0026(14) -0.0083(13) -0.0015(12)
N4 0.064(2) 0.0376(19) 0.050(2) -0.0034(17) 0.007(2) -0.0047(17)
O1 0.0216(10) 0.0518(15) 0.0335(13) 0.0046(15) 0.0002(10) -0.0002(10)
O2 0.0378(14) 0.0653(19) 0.0299(14) 0.0062(15) -0.0023(11) 0.0044(14)
O3 0.0299(13) 0.0665(19) 0.0412(16) 0.0047(16) -0.0059(11) -0.0011(13)
O4 0.0419(16) 0.099(3) 0.0318(15) -0.0018(18) 0.0028(13) 0.0034(16)
O5 0.0569(18) 0.0442(16) 0.0491(19) 0.0115(16) 0.0008(17) -0.0001(13)
Zn1B 0.0266 0.02842 0.0295 -0.00108 -0.00319 0.00075
Zn1C 0.0266 0.02842 0.0295 0.00108 0.00319 0.00075
N2B 0.0369 0.0275 0.0358 -0.0021 -0.0045 -0.0032
O3C 0.0299 0.0665 0.0412 0.0047 0.0059 0.0011
O6 0.233(12) 0.269(12) 0.244(12) 0.061(11) 0.028(12) -0.067(9)
O7 0.364(17) 0.094(5) 0.059(4) 0.000 0.000 0.126(8)
loop_
_geom_bond_atom_site_label_1
_geom_bond_atom_site_label_2
_geom_bond_site_symmetry_1
_geom_bond_site_symmetry_2
Zn1 N1 1_555 1_555
C1 H1 1_555 1_555
C2 C1 1_555 1_555
H2 C2 1_555 1_555
C3 H3 1_555 1_555
C4 C3 1_555 1_555
H4 C4 1_555 1_555
C5 C2 1_555 1_555
C6 C5 1_555 1_555
H5 C6 1_555 1_555
C7 C6 1_555 1_555
H6 C7 1_555 1_555
C8 C7 1_555 1_555
C9 C8 1_555 1_555
H7 C9 1_555 1_555
C10 C9 1_555 1_555
H8 C10 1_555 1_555
C11 C8 1_555 1_555
H9 C11 1_555 1_555
C12 C11 1_555 1_555
H10 C12 1_555 1_555
C13 C14 1_555 1_555
C14 H11 1_555 1_555
C15 C14 1_555 1_555
H12 C15 1_555 1_555
H13 C15 1_555 1_555
C16 C15 1_555 1_555
H14 C16 1_555 1_555
H15 C16 1_555 1_555
C17 C16 1_555 1_555
C18 N3 1_555 1_555
N1 C1 1_555 1_555
N2 C10 1_555 1_555
N3 C14 1_555 1_555
H16 N3 1_555 1_555
N4 C18 1_555 1_555
H17 N4 1_555 1_555
H18 N4 1_555 1_555
O1 Zn1 1_555 1_555
O2 C13 1_555 1_555
O3 C17 1_555 1_555
O4 C17 1_555 1_555
O5 C18 1_555 1_555
O6 H19 1_555 1_555
H20 O6 1_555 1_555
O7 H21 1_555 1_555
Zn1B N2 1_555 1_555
Zn1C O3 1_555 1_555
N2B Zn1 1_555 1_555
O3C Zn1 1_555 1_555
H21A O7 1_555 1_555
C3 N1 1_555 1_555
C4 C5 1_555 1_555
C12 N2 1_555 1_555
C13 O1 1_555 1_555

#END
