
#######################################################################
#
#                 Cambridge Crystallographic Data Centre
#                                CCDC 
#
#######################################################################
#
# If this CIF has been generated from an entry in the Cambridge 
# Structural Database, then it will include bibliographic, chemical, 
# crystal, experimental, refinement or atomic coordinate data resulting 
# from the CCDC's data processing and validation procedures.
#
#######################################################################

data_UKUPUL
_chemical_formula_moiety         '(C16 H58 N8 O57 Si8 V18)n'
_symmetry_cell_setting           tetragonal
_symmetry_space_group_name_H-M   'P -4 21 c'
_symmetry_Int_Tables_number      114
_space_group_name_Hall           'P -4 2n'
loop_
_symmetry_equiv_pos_site_id
_symmetry_equiv_pos_as_xyz
1 x,y,z
2 -x,-y,z
3 y,-x,-z
4 -y,x,-z
5 1/2-x,1/2+y,1/2-z
6 1/2+x,1/2-y,1/2-z
7 1/2-y,1/2-x,1/2+z
8 1/2+y,1/2+x,1/2+z
_cell_length_a                   16.169(2)
_cell_length_b                   16.169(2)
_cell_length_c                   18.199(4)
_cell_angle_alpha                90
_cell_angle_beta                 90
_cell_angle_gamma                90
_cell_volume                     4757.88
loop_
_atom_site_label
_atom_site_type_symbol
_atom_site_fract_x
_atom_site_fract_y
_atom_site_fract_z
V1 V 0.9958(2) 1.17754(14) 0.13593(12)
V2 V 1.0000 1.0000 0.20302(17)
V3 V 0.82468(16) 1.16897(16) -0.0001(2)
V4 V 0.75315(17) 0.99543(13) 0.00755(12)
V5 V 0.7861(2) 0.7486(2) 0.27242(19)
Si1 Si 0.8230(3) 0.9070(3) 0.1623(3)
Si2 Si 0.8201(3) 1.0854(3) 0.1622(3)
O1 O 0.9152(7) 1.2026(7) 0.0640(7)
O2 O 1.0000 1.0000 0.2929(7)
O3 O 0.7912(5) 0.9975(8) 0.1944(5)
O4 O 0.9910(7) 1.2494(6) 0.1952(5)
O5 O 0.6539(8) 0.9944(6) 0.0097(5)
O6 O 0.7568(6) 1.2407(6) 0.0002(7)
O7 O 0.7816(7) 0.8333(8) 0.2028(7)
O8 O 0.7932(7) 1.0858(6) 0.0745(6)
O9 O 0.7998(6) 0.9085(6) 0.0760(8)
O10 O 0.9220(8) 1.0862(7) 0.1639(7)
O11 O 0.9258(7) 0.9113(7) 0.1726(6)
O12 O 1.0746(7) 1.2072(7) 0.0605(7)
O13 O 0.8695(9) 0.7489(11) 0.3236(7)
O14 O 0.7818(8) 1.1626(7) 0.2064(7)
N1 N 0.7000(14) 0.8153(10) 0.3411(10)
N2 N 0.6743(12) 1.1739(9) 0.3236(11)
C1 C 0.706(2) 0.9071(14) 0.3432(17)
H1 H 0.7112 0.9270 0.2931
H2 H 0.7565 0.9218 0.3688
C2 C 0.6351(17) 0.9529(14) 0.379(2)
H3 H 0.5847 0.9374 0.3538
H4 H 0.6303 0.9328 0.4292
C3 C 0.6380(15) 1.0453(12) 0.3823(12)
H5 H 0.5821 1.0643 0.3919
H6 H 0.6710 1.0601 0.4248
C4 C 0.665(2) 1.0871(15) 0.328(2)
H7 H 0.6308 1.0719 0.2867
H8 H 0.7198 1.0648 0.3178
V1A V 1.0042(2) 0.82246(14) 0.13593(12)
V3A V 1.17532(16) 0.83103(16) -0.0001(2)
V4A V 1.24685(17) 1.00457(13) 0.00755(12)
Si1A Si 1.1770(3) 1.0930(3) 0.1623(3)
Si2A Si 1.1799(3) 0.9146(3) 0.1622(3)
O1A O 1.0848(7) 0.7974(7) 0.0640(7)
O3A O 1.2088(5) 1.0025(8) 0.1944(5)
O4A O 1.0090(7) 0.7506(6) 0.1952(5)
O5A O 1.3461(8) 1.0056(6) 0.0097(5)
O6A O 1.2432(6) 0.7593(6) 0.0002(7)
O7A O 1.2184(7) 1.1667(8) 0.2028(7)
O8A O 1.2068(7) 0.9142(6) 0.0745(6)
O9A O 1.2002(6) 1.0915(6) 0.0760(8)
O10A O 1.0780(8) 0.9138(7) 0.1639(7)
O11A O 1.0742(7) 1.0887(7) 0.1726(6)
O12A O 0.9254(7) 0.7928(7) 0.0605(7)
O14A O 1.2182(8) 0.8374(7) 0.2064(7)
V1B V 1.17754(14) 1.0042(2) -0.13593(12)
V2B V 1.0000 1.0000 -0.20302(17)
V3B V 1.16897(16) 1.17532(16) 0.0001(2)
V4B V 0.99543(13) 1.24685(17) -0.00755(12)
Si1B Si 0.9070(3) 1.1770(3) -0.1623(3)
Si2B Si 1.0854(3) 1.1799(3) -0.1622(3)
O1B O 1.2026(7) 1.0848(7) -0.0640(7)
O2B O 1.0000 1.0000 -0.2929(7)
O3B O 0.9975(8) 1.2088(5) -0.1944(5)
O4B O 1.2494(6) 1.0090(7) -0.1952(5)
O5B O 0.9944(6) 1.3461(8) -0.0097(5)
O6B O 1.2407(6) 1.2432(6) -0.0002(7)
O7B O 0.8333(8) 1.2184(7) -0.2028(7)
O8B O 1.0858(6) 1.2068(7) -0.0745(6)
O9B O 0.9085(6) 1.2002(6) -0.0760(8)
O10B O 1.0862(7) 1.0780(8) -0.1639(7)
O11B O 0.9113(7) 1.0742(7) -0.1726(6)
O12B O 1.2072(7) 0.9254(7) -0.0605(7)
O14B O 1.1626(7) 1.2182(8) -0.2064(7)
V1C V 0.82246(14) 0.9958(2) -0.13593(12)
V3C V 0.83103(16) 0.82468(16) 0.0001(2)
V4C V 1.00457(13) 0.75315(17) -0.00755(12)
Si1C Si 1.0930(3) 0.8230(3) -0.1623(3)
Si2C Si 0.9146(3) 0.8201(3) -0.1622(3)
O1C O 0.7974(7) 0.9152(7) -0.0640(7)
O3C O 1.0025(8) 0.7912(5) -0.1944(5)
O4C O 0.7506(6) 0.9910(7) -0.1952(5)
O5C O 1.0056(6) 0.6539(8) -0.0097(5)
O6C O 0.7593(6) 0.7568(6) -0.0002(7)
O7C O 1.1667(8) 0.7816(7) -0.2028(7)
O8C O 0.9142(6) 0.7932(7) -0.0745(6)
O9C O 1.0915(6) 0.7998(6) -0.0760(8)
O10C O 0.9138(7) 0.9220(8) -0.1639(7)
O11C O 1.0887(7) 0.9258(7) -0.1726(6)
O12C O 0.7928(7) 1.0746(7) -0.0605(7)
O14C O 0.8374(7) 0.7818(8) -0.2064(7)
V5A V 1.2139(2) 1.2514(2) 0.27242(19)
O13A O 1.1305(9) 1.2511(11) 0.3236(7)
N1A N 1.3000(14) 1.1847(10) 0.3411(10)
N2A N 1.3257(12) 0.8261(9) 0.3236(11)
C1A C 1.294(2) 1.0929(14) 0.3432(17)
H1A H 1.2888 1.0730 0.2931
H2A H 1.2435 1.0782 0.3688
C2A C 1.3649(17) 1.0471(14) 0.379(2)
H3A H 1.4153 1.0626 0.3538
H4A H 1.3697 1.0672 0.4292
C3A C 1.3620(15) 0.9547(12) 0.3823(12)
H5A H 1.4179 0.9357 0.3919
H6A H 1.3290 0.9399 0.4248
C4A C 1.335(2) 0.9129(15) 0.328(2)
H7A H 1.3692 0.9281 0.2867
H8A H 1.2802 0.9352 0.3178
V5B V 0.7486(2) 1.2139(2) -0.27242(19)
O13B O 0.7489(11) 1.1305(9) -0.3236(7)
N1B N 0.8153(10) 1.3000(14) -0.3411(10)
N2B N 1.1739(9) 1.3257(12) -0.3236(11)
C1B C 0.9071(14) 1.294(2) -0.3432(17)
H1B H 0.9270 1.2888 -0.2931
H2B H 0.9218 1.2435 -0.3688
C2B C 0.9529(14) 1.3649(17) -0.379(2)
H3B H 0.9374 1.4153 -0.3538
H4B H 0.9328 1.3697 -0.4292
C3B C 1.0453(12) 1.3620(15) -0.3823(12)
H5B H 1.0643 1.4179 -0.3919
H6B H 1.0601 1.3290 -0.4248
C4B C 1.0871(15) 1.335(2) -0.328(2)
H7B H 1.0719 1.3692 -0.2867
H8B H 1.0648 1.2802 -0.3178
V5C V 1.2514(2) 0.7861(2) -0.27242(19)
O13C O 1.2511(11) 0.8695(9) -0.3236(7)
N1C N 1.1847(10) 0.7000(14) -0.3411(10)
N2C N 0.8261(9) 0.6743(12) -0.3236(11)
C1C C 1.0929(14) 0.706(2) -0.3432(17)
H1C H 1.0730 0.7112 -0.2931
H2C H 1.0782 0.7565 -0.3688
C2C C 1.0471(14) 0.6351(17) -0.379(2)
H3C H 1.0626 0.5847 -0.3538
H4C H 1.0672 0.6303 -0.4292
C3C C 0.9547(12) 0.6380(15) -0.3823(12)
H5C H 0.9357 0.5821 -0.3919
H6C H 0.9399 0.6710 -0.4248
C4C C 0.9129(15) 0.665(2) -0.328(2)
H7C H 0.9281 0.6308 -0.2867
H8C H 0.9352 0.7198 -0.3178
V5D V 0.7139(2) 1.2486(2) 0.22758(19)
V5E V 1.2861(2) 0.7514(2) 0.22758(19)
V5F V 0.7514(2) 0.7139(2) -0.22758(19)
V5G V 1.2486(2) 1.2861(2) -0.22758(19)
O14D O 0.7182(8) 0.6626(7) 0.2936(7)
O14E O 1.2818(8) 1.3374(7) 0.2936(7)
O14F O 1.3374(7) 0.7182(8) -0.2936(7)
O14G O 0.6626(7) 1.2818(8) -0.2936(7)
N2D N 0.8257(12) 0.6739(9) 0.1764(11)
N2E N 1.1743(12) 1.3261(9) 0.1764(11)
N2F N 1.3261(9) 0.8257(12) -0.1764(11)
N2G N 0.6739(9) 1.1743(12) -0.1764(11)
O15 O 0.0000 0.0000 0.0000
O16 O 0.024(4) 0.755(4) 0.369(3)
O17 O -0.138(5) 0.247(5) 0.345(4)
loop_
_geom_bond_atom_site_label_1
_geom_bond_atom_site_label_2
_geom_bond_site_symmetry_1
_geom_bond_site_symmetry_2
V1 O1 1_555 1_555
V2 O2 1_555 1_555
V3 O1 1_555 1_555
V4 O5 1_555 1_555
V5 O7 1_555 1_555
Si1 O3 1_555 1_555
Si2 O3 1_555 1_555
O1 V4B 1_555 1_555
O4 V1 1_555 1_555
O6 V3 1_555 1_555
O7 Si1 1_555 1_555
O8 V3 1_555 1_555
O9 V4 1_555 1_555
O10 V1 1_555 1_555
O11 V2 1_555 1_555
O12 V1 1_555 1_555
O13 V5 1_555 1_555
O14 Si2 1_555 1_555
N1 V5 1_555 1_555
N2 C4 1_555 1_555
C1 N1 1_555 1_555
H1 C1 1_555 1_555
H2 C1 1_555 1_555
C2 C1 1_555 1_555
H3 C2 1_555 1_555
H4 C2 1_555 1_555
C3 C2 1_555 1_555
H5 C3 1_555 1_555
H6 C3 1_555 1_555
C4 C3 1_555 1_555
H7 C4 1_555 1_555
H8 C4 1_555 1_555
V1A O11 1_555 1_555
V3A O1A 1_555 1_555
V4A O5A 1_555 1_555
Si1A O3A 1_555 1_555
Si2A O3A 1_555 1_555
O1A V1A 1_555 1_555
O4A V1A 1_555 1_555
O6A V3A 1_555 1_555
O7A Si1A 1_555 1_555
O8A V3A 1_555 1_555
O9A V4A 1_555 1_555
O10A V2 1_555 1_555
O11A V1 1_555 1_555
O12A V1A 1_555 1_555
O14A Si2A 1_555 1_555
V1B O1B 1_555 1_555
V2B O2B 1_555 1_555
V3B O12 1_555 1_555
V4B O12 1_555 1_555
Si1B O3B 1_555 1_555
Si2B O3B 1_555 1_555
O1B V4A 1_555 1_555
O4B V1B 1_555 1_555
O5B V4B 1_555 1_555
O6B V3B 1_555 1_555
O7B Si1B 1_555 1_555
O8B V3B 1_555 1_555
O9B V3 1_555 1_555
O10B V1B 1_555 1_555
O11B V2B 1_555 1_555
O12B V3A 1_555 1_555
O14B Si2B 1_555 1_555
V1C O11B 1_555 1_555
V3C O9 1_555 1_555
V4C O1A 1_555 1_555
Si1C O3C 1_555 1_555
Si2C O3C 1_555 1_555
O1C V4 1_555 1_555
O4C V1C 1_555 1_555
O5C V4C 1_555 1_555
O6C V3C 1_555 1_555
O7C Si1C 1_555 1_555
O8C V3C 1_555 1_555
O9C V3A 1_555 1_555
O10C V2B 1_555 1_555
O11C V1B 1_555 1_555
O12C V3 1_555 1_555
O14C Si2C 1_555 1_555
V5A O7A 1_555 1_555
O13A V5A 1_555 1_555
N1A V5A 1_555 1_555
N2A C4A 1_555 1_555
C1A N1A 1_555 1_555
H1A C1A 1_555 1_555
H2A C1A 1_555 1_555
C2A C1A 1_555 1_555
H3A C2A 1_555 1_555
H4A C2A 1_555 1_555
C3A C2A 1_555 1_555
H5A C3A 1_555 1_555
H6A C3A 1_555 1_555
C4A C3A 1_555 1_555
H7A C4A 1_555 1_555
H8A C4A 1_555 1_555
V5B O7B 1_555 1_555
O13B V5B 1_555 1_555
N1B V5B 1_555 1_555
N2B C4B 1_555 1_555
C1B N1B 1_555 1_555
H1B C1B 1_555 1_555
H2B C1B 1_555 1_555
C2B C1B 1_555 1_555
H3B C2B 1_555 1_555
H4B C2B 1_555 1_555
C3B C2B 1_555 1_555
H5B C3B 1_555 1_555
H6B C3B 1_555 1_555
C4B C3B 1_555 1_555
H7B C4B 1_555 1_555
H8B C4B 1_555 1_555
V5C O7C 1_555 1_555
O13C V5C 1_555 1_555
N1C V5C 1_555 1_555
N2C C4C 1_555 1_555
C1C N1C 1_555 1_555
H1C C1C 1_555 1_555
H2C C1C 1_555 1_555
C2C C1C 1_555 1_555
H3C C2C 1_555 1_555
H4C C2C 1_555 1_555
C3C C2C 1_555 1_555
H5C C3C 1_555 1_555
H6C C3C 1_555 1_555
C4C C3C 1_555 1_555
H7C C4C 1_555 1_555
H8C C4C 1_555 1_555
V5D O14 1_555 1_555
V5E O14A 1_555 1_555
V5F O14C 1_555 1_555
V5G O14B 1_555 1_555
O14D V5 1_555 1_555
O14E V5A 1_555 1_555
O14F V5C 1_555 1_555
O14G V5B 1_555 1_555
N2D V5 1_555 1_555
N2E V5A 1_555 1_555
N2F V5C 1_555 1_555
N2G V5B 1_555 1_555
V2 O10 1_555 1_555
V2 O11A 1_555 1_555
V4 O8 1_555 1_555
V4 O12C 1_555 1_555
Si1 O9 1_555 1_555
Si1 O11 1_555 1_555
Si2 O8 1_555 1_555
Si2 O10 1_555 1_555
N2 V5D 1_555 1_555
V1A O10A 1_555 1_555
V4A O8A 1_555 1_555
V4A O12B 1_555 1_555
Si1A O9A 1_555 1_555
Si1A O11A 1_555 1_555
Si2A O8A 1_555 1_555
Si2A O10A 1_555 1_555
O9A V3B 1_555 1_555
O12A V3C 1_555 1_555
O12A V4C 1_555 1_555
V1B O12B 1_555 1_555
V2B O10B 1_555 1_555
V2B O11C 1_555 1_555
V3B O1B 1_555 1_555
V4B O8B 1_555 1_555
V4B O9B 1_555 1_555
Si1B O9B 1_555 1_555
Si1B O11B 1_555 1_555
Si2B O8B 1_555 1_555
Si2B O10B 1_555 1_555
V1C O1C 1_555 1_555
V1C O10C 1_555 1_555
V1C O12C 1_555 1_555
V3C O1C 1_555 1_555
V4C O8C 1_555 1_555
V4C O9C 1_555 1_555
Si1C O9C 1_555 1_555
Si1C O11C 1_555 1_555
Si2C O8C 1_555 1_555
Si2C O10C 1_555 1_555
N2A V5E 1_555 1_555
N2B V5G 1_555 1_555
N2C V5F 1_555 1_555

#END
