
#######################################################################
#
#                 Cambridge Crystallographic Data Centre
#                                CCDC 
#
#######################################################################
#
# If this CIF has been generated from an entry in the Cambridge 
# Structural Database, then it will include bibliographic, chemical, 
# crystal, experimental, refinement or atomic coordinate data resulting 
# from the CCDC's data processing and validation procedures.
#
#######################################################################

data_MIHHUG
_chemical_formula_moiety         '(C43 H54 Cd1 N4 O9)n'
_symmetry_cell_setting           orthorhombic
_symmetry_space_group_name_H-M   'P 21 21 21'
_symmetry_Int_Tables_number      19
_space_group_name_Hall           'P 2ac 2ab'
loop_
_symmetry_equiv_pos_site_id
_symmetry_equiv_pos_as_xyz
1 x,y,z
2 1/2-x,-y,1/2+z
3 -x,1/2+y,1/2-z
4 1/2+x,1/2-y,-z
_cell_length_a                   13.8756(8)
_cell_length_b                   15.1162(8)
_cell_length_c                   19.2999(10)
_cell_angle_alpha                90
_cell_angle_beta                 90
_cell_angle_gamma                90
_cell_volume                     4048.08
loop_
_atom_site_label
_atom_site_type_symbol
_atom_site_fract_x
_atom_site_fract_y
_atom_site_fract_z
_atom_site_U_iso_or_equiv
_atom_site_thermal_displace_type
Cd1 Cd -0.19736(3) 0.13952(3) -0.03281(2) 0.0303 Uani
O1 O -0.3049(4) 0.0465(3) 0.1323(2) 0.0423 Uani
H1 H -0.2596 0.0322 0.1074 0.0630 Uiso
N1 N -0.2052(5) 0.1835(4) -0.1481(3) 0.0363 Uani
C1 C -0.3290(5) 0.1368(5) 0.1199(3) 0.0310 Uani
H2 H -0.2703 0.1698 0.1084 0.0370 Uiso
C2 C -0.2006(6) 0.2218(5) -0.2908(3) 0.0370 Uani
C3 C -0.4026(5) 0.1473(5) 0.0607(3) 0.0297 Uani
H3 H -0.4156 0.2109 0.0573 0.0360 Uiso
C4 C -0.4251(5) 0.1659(4) -0.0607(3) 0.0290 Uani
H4 H -0.4086 0.1452 -0.1067 0.0350 Uiso
H5 H -0.4113 0.2288 -0.0588 0.0350 Uiso
C5 C -0.4278(6) 0.2956(6) 0.2597(4) 0.0433 Uani
C6 C -0.1767(5) 0.1401(6) -0.2656(3) 0.0423 Uani
H6 H -0.1582 0.0952 -0.2958 0.0510 Uiso
C7 C -0.3847(5) 0.2672(5) 0.1954(4) 0.0337 Uani
N2 N -0.4558(5) 0.2358(5) 0.3099(3) 0.0497 Uani
C8 C -0.3719(5) 0.1737(5) 0.1865(3) 0.0337 Uani
C9 C -0.3989(6) 0.1182(5) 0.2374(3) 0.0407 Uani
H7 H -0.3897 0.0576 0.2326 0.0490 Uiso
C10 C -0.1925(7) 0.2364(5) -0.3693(3) 0.0400 Uani
H8 H -0.1975 0.2996 -0.3800 0.0480 Uiso
N3 N -0.3667(5) 0.2128(4) -0.3935(3) 0.0410 Uani
C11 C -0.4988(5) 0.1041(5) 0.0739(4) 0.0390 Uani
H9 H -0.5415 0.1454 0.0971 0.0470 Uiso
H10 H -0.4905 0.0530 0.1037 0.0470 Uiso
C12 C -0.1803(5) 0.1241(4) -0.1933(3) 0.0370 Uani
H11 H -0.1641 0.0680 -0.1774 0.0450 Uiso
C13 C -0.2285(5) 0.2677(5) -0.1707(4) 0.0353 Uani
C14 C -0.3775(5) 0.0224(5) -0.0199(4) 0.0420 Uani
H12 H -0.3466 -0.0093 0.0177 0.0500 Uiso
H13 H -0.3469 0.0046 -0.0629 0.0500 Uiso
C15 C -0.3609(6) 0.3326(5) 0.1472(4) 0.0433 Uani
H14 H -0.3325 0.3162 0.1054 0.0520 Uiso
C16 C -0.2300(5) 0.2892(4) -0.2428(3) 0.0330 Uani
C17 C -0.2689(6) 0.1847(5) -0.4096(3) 0.0353 Uani
H15 H -0.2630 0.1222 -0.3966 0.0420 Uiso
C18 C -0.2833(7) 0.4128(5) -0.1443(4) 0.0533 Uani
H16 H -0.3004 0.4550 -0.1114 0.0640 Uiso
O2 O -0.3604(6) 0.4875(4) 0.1147(4) 0.0663 Uani
O3 O -0.3212(8) 0.5140(5) -0.2309(5) 0.0987 Uani
C19 C -0.2604(6) 0.3730(5) -0.2633(4) 0.0447 Uani
H17 H -0.2625 0.3875 -0.3101 0.0540 Uiso
C20 C -0.2874(7) 0.4342(5) -0.2144(4) 0.0500 Uani
C21 C -0.4416(6) 0.1527(6) 0.2986(4) 0.0467 Uani
H18 H -0.4605 0.1129 0.3327 0.0560 Uiso
C22 C -0.4387(7) 0.3859(6) 0.2727(5) 0.0573 Uani
H19 H -0.4620 0.4045 0.3155 0.0690 Uiso
C23 C -0.2552(6) 0.3324(5) -0.1235(4) 0.0407 Uani
H20 H -0.2535 0.3196 -0.0763 0.0490 Uiso
C24 C -0.4331(6) 0.1423(6) -0.4188(4) 0.0507 Uani
H21 H -0.4992 0.1626 -0.4147 0.0600 Uiso
H22 H -0.4258 0.0900 -0.3902 0.0600 Uiso
C25 C -0.3779(7) 0.4179(5) 0.1597(5) 0.0540 Uani
C26 C -0.4159(7) 0.4466(5) 0.2241(5) 0.0547 Uani
H23 H -0.4249 0.5066 0.2327 0.0660 Uiso
C27 C -0.3390(10) 0.4645(6) 0.0459(6) 0.0900 Uani
H24 H -0.3294 0.5172 0.0190 0.1350 Uiso
H25 H -0.3916 0.4312 0.0267 0.1350 Uiso
H26 H -0.2814 0.4293 0.0448 0.1350 Uiso
O4 O -0.1026(4) 0.2027(4) -0.3930(3) 0.0500 Uani
H27 H -0.0979 0.2108 -0.4348 0.0750 Uiso
C32 C -0.2499(6) 0.1919(5) -0.4891(4) 0.0413 Uani
H37 H -0.2150 0.2459 -0.4994 0.0490 Uiso
H38 H -0.2117 0.1421 -0.5049 0.0490 Uiso
C33 C -0.3487(7) 0.1925(5) -0.5257(5) 0.0500 Uani
H39 H -0.3412 0.1842 -0.5758 0.0600 Uiso
C34 C -0.3950(8) 0.2800(6) -0.5098(5) 0.0673 Uani
H40 H -0.4614 0.2801 -0.5257 0.0810 Uiso
H41 H -0.3608 0.3272 -0.5334 0.0810 Uiso
C35 C -0.4124(6) 0.1185(5) -0.4940(4) 0.0417 Uani
H42 H -0.4742 0.1201 -0.5185 0.0500 Uiso
C36 C -0.3688(6) 0.0269(5) -0.5066(4) 0.0423 Uani
O5 O -0.3449(4) -0.0214(4) -0.4566(3) 0.0500 Uani
O6 O -0.3600(5) -0.0009(4) -0.5675(3) 0.0533 Uani
C37 C -0.3913(7) 0.2945(5) -0.4304(5) 0.0570 Uani
H43 H -0.3437 0.3396 -0.4199 0.0680 Uiso
H44 H -0.4535 0.3157 -0.4145 0.0680 Uiso
C38 C -0.5426(6) 0.0757(5) 0.0051(4) 0.0407 Uani
H45 H -0.6104 0.0593 0.0115 0.0490 Uiso
C39 C -0.5341(5) 0.1518(5) -0.0487(3) 0.0367 Uani
H46 H -0.5632 0.1320 -0.0923 0.0440 Uiso
C40 C -0.4861(6) -0.0024(5) -0.0223(5) 0.0467 Uani
H47 H -0.5054 -0.0155 -0.0695 0.0560 Uiso
H48 H -0.4981 -0.0543 0.0060 0.0560 Uiso
C41 C -0.5888(6) 0.2333(5) -0.0233(4) 0.0380 Uani
O7 O -0.6797(3) 0.2296(3) -0.0293(3) 0.0433 Uani
O8 O -0.5474(4) 0.2946(3) 0.0060(3) 0.0493 Uani
N4 N -0.3637(4) 0.1199(3) -0.0096(3) 0.0277 Uani
C43 C -0.3481(15) 0.5357(11) -0.2857(10) 0.1377 Uani
H51 H -0.3681 0.5964 -0.2842 0.2060 Uiso
H52 H -0.4015 0.4993 -0.2993 0.2060 Uiso
H53 H -0.2967 0.5291 -0.3186 0.2060 Uiso
O5A O -0.1551(4) 0.0214(4) 0.0434(3) 0.0500 Uani
O6A O -0.1400(5) 0.0009(4) -0.0675(3) 0.0533 Uani
O7C O -0.1797(3) 0.2704(3) 0.0293(3) 0.0433 Uani
O8C O -0.0474(4) 0.2054(3) -0.0060(3) 0.0493 Uani
Cd1A Cd -0.30264(3) -0.13952(3) -0.53281(2) 0.0303 Uani
Cd1C Cd -0.69736(3) 0.36048(3) 0.03281(2) 0.0303 Uani
C28 C -0.5040(11) 0.2705(8) -0.2200(7) 0.0963 Uani
H28 H -0.4524 0.2987 -0.1944 0.1150 Uiso
H29 H -0.5506 0.2486 -0.1867 0.1150 Uiso
C29 C -0.5518(10) 0.3382(12) -0.2651(7) 0.1117 Uani
H30 H -0.5018 0.3593 -0.2969 0.1340 Uiso
C30 C -0.6391(14) 0.3155(18) -0.3104(11) 0.2257 Uani
H31 H -0.6563 0.3660 -0.3379 0.3360 Uiso
H32 H -0.6925 0.2994 -0.2814 0.3360 Uiso
H33 H -0.6233 0.2669 -0.3403 0.3360 Uiso
C31 C -0.4652(9) 0.1967(7) -0.2578(7) 0.0860 Uani
H34 H -0.4366 0.1555 -0.2261 0.1290 Uiso
H35 H -0.4171 0.2174 -0.2897 0.1290 Uiso
H36 H -0.5160 0.1680 -0.2830 0.1290 Uiso
C42 C -0.5785(14) 0.4116(15) -0.2253(10) 0.1667 Uani
H49 H -0.5243 0.4294 -0.1968 0.2010 Uiso
H50 H -0.6307 0.3947 -0.1946 0.2010 Uiso
O9 O -0.6134(15) 0.4972(13) -0.2726(10) 0.2933 Uani
H54 H -0.6304 0.5376 -0.2470 0.4380 Uiso
loop_
_atom_site_aniso_label
_atom_site_aniso_U_11
_atom_site_aniso_U_22
_atom_site_aniso_U_33
_atom_site_aniso_U_23
_atom_site_aniso_U_13
_atom_site_aniso_U_12
Cd1 0.0318 0.0318 0.0273 0.0011 0.0027 -0.001
O1 0.048 0.039 0.04 0.004 0.001 0.016
N1 0.034 0.045 0.03 0.004 -0.006 0.004
C1 0.037 0.036 0.02 -0.003 0.01 0.006
C2 0.034 0.047 0.03 0.005 -0.005 -0.009
C3 0.03 0.032 0.027 0.002 0.005 -0.008
C4 0.038 0.029 0.02 0.011 -0.004 0.001
C5 0.039 0.056 0.035 -0.007 0 -0.001
C6 0.047 0.049 0.031 -0.013 -0.005 0.015
C7 0.03 0.04 0.031 -0.005 -0.005 0
N2 0.05 0.064 0.035 0 0.016 0.004
C8 0.038 0.043 0.02 -0.006 -0.002 0.007
C9 0.051 0.041 0.03 0.004 0.003 0.005
C10 0.052 0.039 0.029 0.002 -0.002 -0.011
N3 0.046 0.041 0.036 -0.009 -0.007 0.012
C11 0.034 0.038 0.045 0.01 0.004 -0.001
C12 0.043 0.031 0.037 0.01 -0.007 0.007
C13 0.031 0.033 0.042 -0.001 -0.001 -0.004
C14 0.041 0.036 0.049 -0.008 -0.005 0.002
C15 0.043 0.048 0.039 -0.007 0.014 -0.001
C16 0.037 0.035 0.027 -0.002 -0.005 -0.001
C17 0.052 0.031 0.023 -0.003 -0.005 0.001
C18 0.067 0.04 0.053 -0.013 0.002 0
O2 0.092 0.039 0.068 0.001 0.018 -0.001
O3 0.143 0.057 0.096 0.017 -0.043 0.029
C19 0.056 0.046 0.032 0.004 -0.006 -0.001
C20 0.059 0.037 0.054 0 -0.009 0.003
C21 0.056 0.054 0.03 0.006 0.009 -0.001
C22 0.049 0.064 0.059 -0.02 0.015 0.002
C23 0.044 0.052 0.026 0.004 0.004 -0.005
C24 0.041 0.056 0.055 -0.008 -0.002 0.017
C25 0.06 0.038 0.064 -0.004 0.003 -0.011
C26 0.059 0.037 0.068 -0.012 0.014 -0.001
C27 0.142 0.049 0.079 0.024 0.042 0.001
O4 0.042 0.081 0.027 -0.007 0.006 -0.002
C32 0.056 0.032 0.036 -0.007 0.005 0.01
C33 0.072 0.04 0.038 -0.006 -0.022 0.022
C34 0.084 0.066 0.052 -0.011 -0.034 0.028
C35 0.038 0.042 0.045 -0.011 -0.019 0.017
C36 0.036 0.043 0.048 -0.007 -0.009 0.008
O5 0.052 0.053 0.045 0.003 -0.004 0.007
O6 0.078 0.041 0.041 -0.013 -0.008 0.015
C37 0.069 0.041 0.061 -0.017 -0.02 0.029
C38 0.032 0.034 0.056 -0.003 0 -0.012
C39 0.037 0.04 0.033 -0.006 -0.005 0.003
C40 0.051 0.034 0.055 -0.001 -0.009 -0.001
C41 0.039 0.045 0.03 0.012 0.004 0.007
O7 0.03 0.055 0.045 0 -0.005 0.008
O8 0.05 0.035 0.063 -0.014 -0.007 0.005
N4 0.025 0.031 0.027 -0.005 -0.002 0.009
C43 0.167 0.108 0.138 -0.014 0.048 -0.013
O5A 0.052 0.053 0.045 -0.003 0.004 0.007
O6A 0.078 0.041 0.041 0.013 0.008 0.015
O7C 0.03 0.055 0.045 0 0.005 -0.008
O8C 0.05 0.035 0.063 -0.014 0.007 -0.005
Cd1A 0.0318 0.0318 0.0273 -0.0011 -0.0027 -0.001
Cd1C 0.0318 0.0318 0.0273 0.0011 -0.0027 0.001
C28 0.105 0.103 0.081 0.005 -0.006 -0.01
C29 0.076 0.179 0.08 0.017 0.01 0.026
C30 0.088 0.44 0.149 -0.08 -0.007 0
C31 0.087 0.058 0.113 -0.002 0.023 -0.022
C42 0.117 0.24 0.143 -0.038 0.038 0.079
O9 0.3 0.34 0.24 -0.127 -0.113 0.2
loop_
_geom_bond_atom_site_label_1
_geom_bond_atom_site_label_2
_geom_bond_site_symmetry_1
_geom_bond_site_symmetry_2
Cd1 N1 1_555 1_555
O1 H1 1_555 1_555
N1 C12 1_555 1_555
C1 O1 1_555 1_555
H2 C1 1_555 1_555
C2 C6 1_555 1_555
C3 C1 1_555 1_555
H3 C3 1_555 1_555
C4 H4 1_555 1_555
H5 C4 1_555 1_555
C5 C7 1_555 1_555
C6 H6 1_555 1_555
C7 C8 1_555 1_555
N2 C5 1_555 1_555
C8 C1 1_555 1_555
C9 C8 1_555 1_555
H7 C9 1_555 1_555
C10 C2 1_555 1_555
H8 C10 1_555 1_555
N3 C17 1_555 1_555
C11 C3 1_555 1_555
H9 C11 1_555 1_555
H10 C11 1_555 1_555
C12 C6 1_555 1_555
H11 C12 1_555 1_555
C13 N1 1_555 1_555
C14 H12 1_555 1_555
H13 C14 1_555 1_555
C15 C7 1_555 1_555
H14 C15 1_555 1_555
C16 C2 1_555 1_555
C17 C10 1_555 1_555
H15 C17 1_555 1_555
C18 H16 1_555 1_555
O2 C25 1_555 1_555
O3 C20 1_555 1_555
C19 C16 1_555 1_555
H17 C19 1_555 1_555
C20 C18 1_555 1_555
C21 N2 1_555 1_555
H18 C21 1_555 1_555
C22 C5 1_555 1_555
H19 C22 1_555 1_555
C23 C13 1_555 1_555
H20 C23 1_555 1_555
C24 N3 1_555 1_555
H21 C24 1_555 1_555
H22 C24 1_555 1_555
C25 C15 1_555 1_555
C26 C22 1_555 1_555
H23 C26 1_555 1_555
C27 O2 1_555 1_555
H24 C27 1_555 1_555
H25 C27 1_555 1_555
H26 C27 1_555 1_555
O4 C10 1_555 1_555
H27 O4 1_555 1_555
C28 H28 1_555 1_555
H29 C28 1_555 1_555
C29 C28 1_555 1_555
H30 C29 1_555 1_555
C30 C29 1_555 1_555
H31 C30 1_555 1_555
H32 C30 1_555 1_555
H33 C30 1_555 1_555
C31 C28 1_555 1_555
H34 C31 1_555 1_555
H35 C31 1_555 1_555
H36 C31 1_555 1_555
C32 C17 1_555 1_555
H37 C32 1_555 1_555
H38 C32 1_555 1_555
C33 C32 1_555 1_555
H39 C33 1_555 1_555
C34 C33 1_555 1_555
H40 C34 1_555 1_555
H41 C34 1_555 1_555
C35 C24 1_555 1_555
H42 C35 1_555 1_555
C36 C35 1_555 1_555
O5 C36 1_555 1_555
O6 C36 1_555 1_555
C37 N3 1_555 1_555
H43 C37 1_555 1_555
H44 C37 1_555 1_555
C38 C11 1_555 1_555
H45 C38 1_555 1_555
C39 C4 1_555 1_555
H46 C39 1_555 1_555
C40 C14 1_555 1_555
H47 C40 1_555 1_555
H48 C40 1_555 1_555
C41 C39 1_555 1_555
O7 C41 1_555 1_555
O8 C41 1_555 1_555
N4 Cd1 1_555 1_555
C42 C29 1_555 1_555
H49 C42 1_555 1_555
H50 C42 1_555 1_555
C43 O3 1_555 1_555
H51 C43 1_555 1_555
H52 C43 1_555 1_555
H53 C43 1_555 1_555
O9 C42 1_555 1_555
H54 O9 1_555 1_555
O5A Cd1 1_555 1_555
O6A Cd1 1_555 1_555
O7C Cd1 1_555 1_555
O8C Cd1 1_555 1_555
Cd1A O5 1_555 1_555
Cd1C O7 1_555 1_555
C3 N4 1_555 1_555
C4 N4 1_555 1_555
C9 C21 1_555 1_555
C13 C16 1_555 1_555
C14 N4 1_555 1_555
C18 C23 1_555 1_555
C19 C20 1_555 1_555
C25 C26 1_555 1_555
C33 C35 1_555 1_555
C34 C37 1_555 1_555
O6 Cd1A 1_555 1_555
C38 C39 1_555 1_555
C38 C40 1_555 1_555
O8 Cd1C 1_555 1_555

#END
