
#######################################################################
#
#                 Cambridge Crystallographic Data Centre
#                                CCDC 
#
#######################################################################
#
# If this CIF has been generated from an entry in the Cambridge 
# Structural Database, then it will include bibliographic, chemical, 
# crystal, experimental, refinement or atomic coordinate data resulting 
# from the CCDC's data processing and validation procedures.
#
#######################################################################

data_MIHHIU
_chemical_formula_moiety         '(C38 H42 Cd1 N4 O8)n'
_symmetry_cell_setting           orthorhombic
_symmetry_space_group_name_H-M   'P 21 21 21'
_symmetry_Int_Tables_number      19
_space_group_name_Hall           'P 2ac 2ab'
loop_
_symmetry_equiv_pos_site_id
_symmetry_equiv_pos_as_xyz
1 x,y,z
2 1/2-x,-y,1/2+z
3 -x,1/2+y,1/2-z
4 1/2+x,1/2-y,-z
_cell_length_a                   13.8639(8)
_cell_length_b                   15.1012(8)
_cell_length_c                   19.4313(11)
_cell_angle_alpha                90
_cell_angle_beta                 90
_cell_angle_gamma                90
_cell_volume                     4068.17
loop_
_atom_site_label
_atom_site_type_symbol
_atom_site_fract_x
_atom_site_fract_y
_atom_site_fract_z
_atom_site_U_iso_or_equiv
_atom_site_thermal_displace_type
Cd1 Cd -0.20171(3) 0.36143(2) 1.035198(19) 0.0289 Uani
O1 O -0.3030(3) 0.4476(2) 0.86755(19) 0.0407 Uani
H1 H -0.2584 0.4620 0.8929 0.0610 Uiso
N1 N -0.3667(3) 0.3805(3) 1.0074(2) 0.0300 Uani
O2 O -0.6850(3) 0.2709(3) 1.0248(2) 0.0413 Uani
N2 N -0.2113(4) 0.3198(3) 1.1503(2) 0.0323 Uani
O3 O -0.1019(3) 0.3083(3) 1.3927(2) 0.0433 Uani
H2 H -0.0561 0.2869 1.3717 0.0650 Uiso
C1 C -0.4027(3) 0.3505(4) 0.9378(3) 0.0270 Uani
H3 H -0.4162 0.2871 0.9421 0.0320 Uiso
C2 C -0.3283(4) 0.3597(4) 0.8805(2) 0.0303 Uani
H4 H -0.2703 0.3265 0.8932 0.0370 Uiso
C3 C -0.2014(5) 0.2833(3) 1.2927(3) 0.0323 Uani
C4 C -0.5387(4) 0.3512(4) 1.0438(3) 0.0400 Uani
H5 H -0.5689 0.3726 1.0862 0.0480 Uiso
C5 C -0.2327(4) 0.2374(4) 1.1748(3) 0.0327 Uani
O4 O -0.5512(3) 0.2060(3) 0.9909(2) 0.0457 Uani
C6 C -0.3706(4) 0.3199(4) 0.8150(3) 0.0327 Uani
C7 C -0.1822(4) 0.3643(4) 1.2660(3) 0.0430 Uani
H6 H -0.1641 0.4099 1.2954 0.0520 Uiso
C8 C -0.5008(4) 0.3959(4) 0.9222(3) 0.0377 Uani
H7 H -0.4907 0.4472 0.8931 0.0450 Uiso
H8 H -0.5428 0.3550 0.8980 0.0450 Uiso
C9 C -0.3854(4) 0.2262(4) 0.8068(3) 0.0340 Uani
C10 C -0.2304(4) 0.2164(4) 1.2462(3) 0.0320 Uani
C11 C -0.3951(4) 0.3717(5) 0.7613(3) 0.0427 Uani
H9 H -0.3834 0.4322 0.7642 0.0510 Uiso
C12 C -0.4279(4) 0.1987(4) 0.7438(3) 0.0390 Uani
C13 C -0.5472(4) 0.4239(4) 0.9894(3) 0.0387 Uani
H10 H -0.6148 0.4403 0.9822 0.0470 Uiso
C14 C -0.5958(4) 0.2688(4) 1.0185(3) 0.0340 Uani
N3 N -0.4541(4) 0.2545(4) 0.6931(3) 0.0460 Uani
C15 C -0.1889(5) 0.3810(3) 1.1954(3) 0.0380 Uani
H11 H -0.1769 0.4382 1.1797 0.0460 Uiso
C16 C -0.4209(5) 0.0469(5) 0.7830(4) 0.0540 Uani
H12 H -0.4329 -0.0131 0.7762 0.0650 Uiso
C17 C -0.2815(5) 0.0894(4) 1.1489(3) 0.0483 Uani
H13 H -0.2983 0.0464 1.1167 0.0580 Uiso
C18 C -0.2583(5) 0.1695(4) 1.1276(3) 0.0393 Uani
H14 H -0.2588 0.1818 1.0807 0.0470 Uiso
C19 C -0.4301(4) 0.3340(4) 1.0586(3) 0.0300 Uani
H15 H -0.4147 0.3546 1.1046 0.0360 Uiso
H16 H -0.4176 0.2709 1.0569 0.0360 Uiso
C20 C -0.3625(4) 0.1624(4) 0.8566(3) 0.0403 Uani
H17 H -0.3356 0.1800 0.8982 0.0480 Uiso
C21 C -0.4889(5) 0.5034(4) 1.0167(4) 0.0500 Uani
H18 H -0.5094 0.5180 1.0631 0.0600 Uiso
H19 H -0.4994 0.5547 0.9876 0.0600 Uiso
C22 C -0.4433(5) 0.1062(5) 0.7336(4) 0.0533 Uani
H20 H -0.4693 0.0865 0.6922 0.0640 Uiso
O5 O -0.3627(4) 0.0070(3) 0.8917(3) 0.0657 Uani
C23 C -0.2565(4) 0.1294(4) 1.2664(3) 0.0393 Uani
H21 H -0.2562 0.1150 1.3129 0.0470 Uiso
C24 C -0.1874(4) 0.2698(4) 1.3694(3) 0.0363 Uani
H22 H -0.1872 0.2064 1.3799 0.0430 Uiso
C25 C -0.2814(5) 0.0673(4) 1.2205(3) 0.0447 Uani
C26 C -0.3816(4) 0.4780(4) 1.0165(3) 0.0380 Uani
H23 H -0.3493 0.5093 0.9795 0.0460 Uiso
H24 H -0.3526 0.4965 1.0596 0.0460 Uiso
O6 O -0.3098(6) -0.0144(3) 1.2407(3) 0.0840 Uani
C27 C -0.4366(5) 0.3389(4) 0.7023(3) 0.0433 Uani
H25 H -0.4530 0.3783 0.6675 0.0520 Uiso
C28 C -0.3790(5) 0.0767(4) 0.8450(3) 0.0487 Uani
C29 C -0.3411(8) 0.0332(6) 0.9597(5) 0.0930 Uani
H26 H -0.3313 -0.0184 0.9877 0.1400 Uiso
H27 H -0.3937 0.0672 0.9778 0.1400 Uiso
H28 H -0.2836 0.0686 0.9597 0.1400 Uiso
C30 C -0.2655(4) 0.3167(4) 1.4130(3) 0.0317 Uani
H29 H -0.2633 0.3798 1.4013 0.0380 Uiso
N4 N -0.3647(4) 0.2847(3) 1.3970(3) 0.0387 Uani
C31 C -0.2448(5) 0.3092(4) 1.4899(3) 0.0367 Uani
H30 H -0.2064 0.3592 1.5050 0.0440 Uiso
H31 H -0.2091 0.2553 1.4993 0.0440 Uiso
C32 C -0.3420(5) 0.3078(4) 1.5284(3) 0.0410 Uani
H32 H -0.3329 0.3160 1.5780 0.0490 Uiso
C33 C -0.4082(5) 0.3793(4) 1.4982(3) 0.0417 Uani
H33 H -0.4692 0.3764 1.5236 0.0500 Uiso
C34 C -0.3921(7) 0.2186(4) 1.5125(4) 0.0607 Uani
H34 H -0.3607 0.1709 1.5372 0.0730 Uiso
H35 H -0.4592 0.2208 1.5264 0.0730 Uiso
C35 C -0.3670(4) 0.4739(4) 1.5091(3) 0.0347 Uani
C36 C -0.4308(4) 0.3545(5) 1.4235(3) 0.0453 Uani
H36 H -0.4968 0.3334 1.4206 0.0540 Uiso
H37 H -0.4253 0.4068 1.3948 0.0540 Uiso
C37 C -0.3847(6) 0.2032(5) 1.4351(4) 0.0523 Uani
H38 H -0.3337 0.1607 1.4262 0.0630 Uiso
H39 H -0.4448 0.1779 1.4187 0.0630 Uiso
O7 O -0.3506(4) 0.4978(3) 1.5685(2) 0.0523 Uani
O8 O -0.3467(3) 0.5209(3) 1.4584(3) 0.0480 Uani
C38 C -0.3219(14) -0.0850(9) 1.1958(9) 0.1657 Uani
H40 H -0.3429 -0.1361 1.2210 0.2480 Uiso
H41 H -0.2617 -0.0977 1.1735 0.2480 Uiso
H42 H -0.3694 -0.0699 1.1618 0.2480 Uiso
O2C O -0.1850(3) 0.2291(3) 0.9752(2) 0.0413 Uani
O4C O -0.0512(3) 0.2940(3) 1.0091(2) 0.0457 Uani
O7A O -0.1494(4) 0.5022(3) 1.0685(2) 0.0523 Uani
O8A O -0.1533(3) 0.4791(3) 0.9584(3) 0.0480 Uani
Cd1C Cd -0.70171(3) 0.13857(2) 0.964802(19) 0.0289 Uani
Cd1A Cd -0.29829(3) 0.63857(2) 1.535198(19) 0.0289 Uani
loop_
_atom_site_aniso_label
_atom_site_aniso_U_11
_atom_site_aniso_U_22
_atom_site_aniso_U_33
_atom_site_aniso_U_23
_atom_site_aniso_U_13
_atom_site_aniso_U_12
Cd1 0.03153(17) 0.02797(17) 0.02715(17) 0.00011(17) -0.00279(18) 0.00088(18)
O1 0.048 0.038 0.036 0.0054 -0.005 -0.023
N1 0.034 0.028 0.028 -0.0007 0.0034 -0.0024
O2 0.034 0.05 0.04 -0.0016 0.0026 -0.0072
N2 0.037(3) 0.029(2) 0.031(2) 0.0027(18) -0.004(2) 0.001(2)
O3 0.034(2) 0.067(3) 0.029(2) -0.013(2) 0.0005(18) 0.006(2)
C1 0.024 0.025 0.032 -0.007 -0.0056 0
C2 0.033 0.03 0.028 0.004 -0.0072 -0.002
C3 0.035(3) 0.033(3) 0.029(3) -0.004(2) 0.002(3) 0.000(3)
C4 0.035 0.042 0.043 -0.01 0.005 -0.004
C5 0.030(3) 0.036(3) 0.032(3) 0.001(2) 0.002(2) 0.002(2)
O4 0.044 0.038 0.055 -0.013 0.01 -0.006
C6 0.032 0.043 0.023 -0.002 0.003 -0.003
C7 0.056(4) 0.040(3) 0.033(3) -0.007(3) -0.003(3) -0.012(3)
C8 0.033 0.032 0.048 0.008 -0.009 0
C9 0.03 0.04 0.032 -0.005 -0.001 0.003
C10 0.033(3) 0.031(3) 0.032(3) -0.001(2) 0.001(2) 0.000(2)
C11 0.045 0.047 0.036 0.003 -0.004 0
C12 0.036 0.044 0.037 -0.015 -0.003 0.003
C13 0.027 0.029 0.06 -0.001 -0.001 0.004
C14 0.041 0.036 0.025 0.003 0.001 -0.015
N3 0.05 0.06 0.028 -0.011 -0.007 -0.003
C15 0.050(4) 0.029(3) 0.035(3) 0.006(2) -0.001(3) -0.008(3)
C16 0.058 0.034 0.07 -0.017 -0.011 0
C17 0.062(5) 0.043(4) 0.040(3) -0.007(3) -0.007(3) -0.009(3)
C18 0.049(4) 0.042(3) 0.027(3) -0.004(2) 0.001(3) -0.010(3)
C19 0.032 0.035 0.023 0 -0.003 -0.002
C20 0.046 0.041 0.034 -0.007 -0.01 0.001
C21 0.039 0.036 0.075 -0.015 0.007 0.005
C22 0.054 0.055 0.051 -0.02 -0.018 -0.004
O5 0.091 0.034 0.072 0 -0.022 0.003
C23 0.052(3) 0.034(3) 0.032(3) 0.005(3) 0.008(2) 0.001(3)
C24 0.044(4) 0.037(3) 0.028(3) 0.000(2) 0.006(3) 0.000(3)
C25 0.050(4) 0.031(3) 0.053(4) 0.005(3) 0.007(3) -0.006(3)
C26 0.041 0.029 0.044 -0.01 0.005 -0.008
O6 0.133(6) 0.035(3) 0.084(4) -0.001(3) 0.023(4) -0.014(3)
C27 0.05 0.047 0.033 0.004 0.001 0
C28 0.057 0.038 0.051 0 -0.01 0.003
C29 0.15 0.058 0.071 0.03 -0.038 -0.013
C30 0.040(3) 0.031(3) 0.024(3) -0.005(2) 0.002(2) -0.010(2)
N4 0.043(3) 0.039(3) 0.034(3) -0.012(2) 0.003(2) -0.008(2)
C31 0.049(3) 0.030(3) 0.031(3) -0.003(2) 0.007(3) -0.005(3)
C32 0.058(4) 0.036(3) 0.029(3) -0.003(3) 0.013(3) -0.016(3)
C33 0.044(3) 0.031(3) 0.050(3) -0.013(3) 0.015(3) -0.014(3)
C34 0.096(6) 0.035(4) 0.051(4) -0.003(3) 0.027(4) -0.025(4)
C35 0.032(3) 0.029(3) 0.043(3) -0.006(3) 0.009(3) -0.006(2)
C36 0.034(3) 0.052(4) 0.050(4) -0.009(3) -0.001(3) -0.007(3)
C37 0.060(4) 0.041(4) 0.056(4) -0.005(3) 0.008(3) -0.021(3)
O7 0.071(3) 0.047(3) 0.039(3) -0.011(2) 0.003(2) -0.016(2)
O8 0.055(3) 0.038(2) 0.051(3) -0.003(2) 0.005(3) -0.0097(19)
C38 0.224(19) 0.097(9) 0.176(14) -0.017(10) 0.009(14) -0.038(11)
O2C 0.034(2) 0.050(2) 0.040(2) -0.0016(18) -0.0026(19) 0.0072(18)
O4C 0.044(2) 0.038(2) 0.055(3) -0.013(2) -0.010(2) 0.006(2)
O7A 0.071 0.047 0.039 0.011 -0.003 -0.016
O8A 0.055 0.038 0.051 0.003 -0.005 -0.0097
Cd1C 0.03153 0.02797 0.02715 0.00011 0.00279 -0.00088
Cd1A 0.03153 0.02797 0.02715 -0.00011 0.00279 0.00088
loop_
_geom_bond_atom_site_label_1
_geom_bond_atom_site_label_2
_geom_bond_site_symmetry_1
_geom_bond_site_symmetry_2
Cd1 N1 1_555 1_555
O1 H1 1_555 1_555
N1 C1 1_555 1_555
O2 C14 1_555 1_555
N2 Cd1 1_555 1_555
O3 H2 1_555 1_555
C1 H3 1_555 1_555
C2 O1 1_555 1_555
H4 C2 1_555 1_555
C3 C7 1_555 1_555
C4 H5 1_555 1_555
C5 N2 1_555 1_555
O4 C14 1_555 1_555
C6 C2 1_555 1_555
C7 H6 1_555 1_555
C8 C1 1_555 1_555
H7 C8 1_555 1_555
H8 C8 1_555 1_555
C9 C6 1_555 1_555
C10 C3 1_555 1_555
C11 C6 1_555 1_555
H9 C11 1_555 1_555
C12 C9 1_555 1_555
C13 C4 1_555 1_555
H10 C13 1_555 1_555
C14 C4 1_555 1_555
N3 C12 1_555 1_555
C15 N2 1_555 1_555
H11 C15 1_555 1_555
C16 H12 1_555 1_555
C17 H13 1_555 1_555
C18 C5 1_555 1_555
H14 C18 1_555 1_555
C19 N1 1_555 1_555
H15 C19 1_555 1_555
H16 C19 1_555 1_555
C20 C9 1_555 1_555
H17 C20 1_555 1_555
C21 C13 1_555 1_555
H18 C21 1_555 1_555
H19 C21 1_555 1_555
C22 C12 1_555 1_555
H20 C22 1_555 1_555
O5 C28 1_555 1_555
C23 C10 1_555 1_555
H21 C23 1_555 1_555
C24 O3 1_555 1_555
H22 C24 1_555 1_555
C25 C17 1_555 1_555
C26 N1 1_555 1_555
H23 C26 1_555 1_555
H24 C26 1_555 1_555
O6 C25 1_555 1_555
C27 C11 1_555 1_555
H25 C27 1_555 1_555
C28 C16 1_555 1_555
C29 O5 1_555 1_555
H26 C29 1_555 1_555
H27 C29 1_555 1_555
H28 C29 1_555 1_555
C30 C24 1_555 1_555
H29 C30 1_555 1_555
N4 C30 1_555 1_555
C31 C30 1_555 1_555
H30 C31 1_555 1_555
H31 C31 1_555 1_555
C32 C31 1_555 1_555
H32 C32 1_555 1_555
C33 C32 1_555 1_555
H33 C33 1_555 1_555
C34 C32 1_555 1_555
H34 C34 1_555 1_555
H35 C34 1_555 1_555
C35 C33 1_555 1_555
C36 N4 1_555 1_555
H36 C36 1_555 1_555
H37 C36 1_555 1_555
C37 N4 1_555 1_555
H38 C37 1_555 1_555
H39 C37 1_555 1_555
O7 C35 1_555 1_555
O8 C35 1_555 1_555
C38 O6 1_555 1_555
H40 C38 1_555 1_555
H41 C38 1_555 1_555
H42 C38 1_555 1_555
O2C Cd1 1_555 1_555
O4C Cd1 1_555 1_555
O7A Cd1 1_555 1_555
O8A Cd1 1_555 1_555
Cd1C O2 1_555 1_555
Cd1A O7 1_555 1_555
C1 C2 1_555 1_555
C3 C24 1_555 1_555
C4 C19 1_555 1_555
C5 C10 1_555 1_555
O4 Cd1C 1_555 1_555
C7 C15 1_555 1_555
C8 C13 1_555 1_555
N3 C27 1_555 1_555
C16 C22 1_555 1_555
C17 C18 1_555 1_555
C20 C28 1_555 1_555
C21 C26 1_555 1_555
C23 C25 1_555 1_555
C33 C36 1_555 1_555
C34 C37 1_555 1_555
O8 Cd1A 1_555 1_555

#END
