
#######################################################################
#
#                 Cambridge Crystallographic Data Centre
#                                CCDC 
#
#######################################################################
#
# If this CIF has been generated from an entry in the Cambridge 
# Structural Database, then it will include bibliographic, chemical, 
# crystal, experimental, refinement or atomic coordinate data resulting 
# from the CCDC's data processing and validation procedures.
#
#######################################################################

data_DEKPUF
_chemical_formula_moiety         'C7 H16 N4 Ni1 O12 P5 Zn4'
_symmetry_cell_setting           monoclinic
_symmetry_space_group_name_H-M   'C 2/c'
_symmetry_Int_Tables_number      15
_space_group_name_Hall           '-C 2yc'
loop_
_symmetry_equiv_pos_site_id
_symmetry_equiv_pos_as_xyz
1 x,y,z
2 1/2+x,1/2+y,z
3 -x,y,1/2-z
4 1/2-x,1/2+y,1/2-z
5 -x,-y,-z
6 1/2-x,1/2-y,-z
7 x,-y,1/2+z
8 1/2+x,1/2-y,1/2+z
_cell_length_a                   22.139(4)
_cell_length_b                   13.661(3)
_cell_length_c                   10.481(2)
_cell_angle_alpha                90
_cell_angle_beta                 90.06(3)
_cell_angle_gamma                90
_cell_volume                     3169.88
loop_
_atom_site_label
_atom_site_type_symbol
_atom_site_fract_x
_atom_site_fract_y
_atom_site_fract_z
_atom_site_U_iso_or_equiv
_atom_site_thermal_displace_type
Zn1 Zn 0.39842(3) 0.04063(5) 0.68857(6) 0.0450 Uani
Zn2 Zn 0.25709(3) 0.11128(4) 0.44731(5) 0.0344 Uani
P1 P 0.35017(7) 0.23624(10) 0.58136(13) 0.0425 Uani
H1 H 0.391(2) 0.295(4) 0.545(5) 0.0430 Uiso
P2 P 0.26430(5) -0.02043(9) 0.68033(10) 0.0322 Uani
H2 H 0.2344(19) -0.105(3) 0.651(4) 0.0230 Uiso
P3 P 0.47238(11) -0.0273(2) 0.9354(2) 0.0371 Uani
O2 O 0.4134(5) -0.028(2) 0.8442(17) 0.0824 Uani
O3 O 0.46576(18) 0.0148(5) 0.5843(4) 0.0843 Uani
O4 O 0.32841(16) -0.0351(3) 0.6347(3) 0.0448 Uani
O5 O 0.37616(19) 0.1768(3) 0.6902(4) 0.0553 Uani
O6 O 0.23099(16) 0.0590(3) 0.6088(3) 0.0428 Uani
O7 O 0.33529(17) 0.1756(3) 0.4641(3) 0.0490 Uani
O8 O 0.2969(2) 0.2950(3) 0.6288(4) 0.0570 Uani
O9 O 0.26017(16) -0.0054(2) 0.8238(3) 0.0371 Uani
Zn2E Zn 0.24291(3) 0.38872(4) 0.55269(5) 0.0344 Uani
Zn2F Zn 0.25709(3) -0.11128(4) 0.94731(5) 0.0344 Uani
P3F P 0.47238(11) 0.0273(2) 0.4354(2) 0.0371 Uani
P3B P 0.52762(11) -0.0273(2) 0.5646(2) 0.0371 Uani
O3F O 0.46576(18) -0.0148(5) 1.0843(4) 0.0843 Uani
O3B O 0.53424(18) 0.0148(5) 0.9157(4) 0.0843 Uani
O8E O 0.2031(2) 0.2050(3) 0.3712(4) 0.0570 Uani
O9F O 0.26017(16) 0.0054(2) 0.3238(3) 0.0371 Uani
Ni1 Ni 0.2500 0.2500 0.0000 0.0433 Uani
C1 C 0.3755(3) 0.2621(5) 0.0220(6) 0.0640 Uani
H3 H 0.4120 0.2218 0.0270 0.0800 Uiso
C2 C 0.3538(3) 0.2787(5) 0.1566(6) 0.0627 Uani
H4 H 0.3557 0.2158 0.2015 0.0800 Uiso
C3 C 0.3923(4) 0.3512(7) 0.2306(8) 0.0823 Uani
H5 H 0.4293 0.3186 0.2565 0.0800 Uiso
H6 H 0.3708 0.3695 0.3075 0.0800 Uiso
C4 C 0.4079(5) 0.4382(8) 0.1632(10) 0.1073 Uani
H7 H 0.3719 0.4775 0.1503 0.0800 Uiso
H8 H 0.4361 0.4762 0.2140 0.0800 Uiso
C5 C 0.4369(5) 0.4149(9) 0.0319(11) 0.1226 Uani
H9 H 0.4462 0.4752 -0.0130 0.0800 Uiso
H10 H 0.4742 0.3787 0.0438 0.0800 Uiso
C6 C 0.3916(4) 0.3535(7) -0.0457(8) 0.0870 Uani
H11 H 0.3554 0.3917 -0.0607 0.0800 Uiso
H12 H 0.4092 0.3375 -0.1278 0.0800 Uiso
N1 N 0.3286(2) 0.2035(3) -0.0456(4) 0.0487 Uani
H13 H 0.3322 0.1400 -0.0241 0.0800 Uiso
H14 H 0.3338 0.2087 -0.1305 0.0800 Uiso
N2 N 0.2112(2) 0.1928(3) -0.1460(4) 0.0490 Uani
H15 H 0.2308 0.2119 -0.2171 0.0800 Uiso
H16 H 0.2139 0.1272 -0.1408 0.0800 Uiso
C2E C 0.1462(3) 0.2213(5) -0.1566(6) 0.0627 Uani
N1E N 0.1714(2) 0.2965(3) 0.0456(4) 0.0487 Uani
N2E N 0.2888(2) 0.3072(3) 0.1460(4) 0.0490 Uani
loop_
_atom_site_aniso_label
_atom_site_aniso_U_11
_atom_site_aniso_U_22
_atom_site_aniso_U_33
_atom_site_aniso_U_23
_atom_site_aniso_U_13
_atom_site_aniso_U_12
Zn1 0.0443(3) 0.0550(4) 0.0356(3) 0.0035(3) 0.0087(2) 0.0164(3)
Zn2 0.0524(3) 0.0336(3) 0.0172(3) -0.00121(19) -0.0012(2) 0.0017(2)
P1 0.0546(8) 0.0396(7) 0.0334(7) -0.0031(5) -0.0051(5) -0.0040(6)
P2 0.0437(6) 0.0331(6) 0.0198(5) 0.0004(4) 0.0022(4) 0.0035(5)
P3 0.0331 0.0509 0.0274 0.0059 -0.0003 -0.0039
O2 0.070(6) 0.115(17) 0.062(7) 0.037(9) -0.035(5) -0.023(7)
O3 0.040(2) 0.170(6) 0.043(2) -0.032(3) 0.0021(18) 0.024(3)
O4 0.049(2) 0.047(2) 0.0384(19) 0.0008(15) 0.0088(15) 0.0099(16)
O5 0.070(2) 0.055(2) 0.041(2) -0.0137(17) -0.0231(18) 0.022(2)
O6 0.051(2) 0.055(2) 0.0223(15) 0.0078(14) 0.0047(14) 0.0135(16)
O7 0.058(2) 0.057(2) 0.0319(18) -0.0050(16) 0.0030(15) -0.0173(18)
O8 0.077 0.055 0.039 0.0052 -0.0103 0.022
O9 0.0564 0.0336 0.0213 0.0037 0.0021 0.0031
Zn2E 0.0524 0.0336 0.0172 -0.00121 -0.0012 0.0017
Zn2F 0.0524 0.0336 0.0172 0.00121 -0.0012 -0.0017
P3F 0.0331(13) 0.0509(16) 0.0274(13) -0.0059(10) -0.0003(9) 0.0039(10)
P3B 0.0331 0.0509 0.0274 -0.0059 -0.0003 0.0039
O3F 0.04 0.17 0.043 0.032 0.0021 -0.024
O3B 0.04 0.17 0.043 0.032 0.0021 -0.024
O8E 0.077 0.055 0.039 0.0052 -0.0103 0.022
O9F 0.0564 0.0336 0.0213 -0.0037 0.0021 -0.0031
Ni1 0.0703(6) 0.0286(4) 0.0309(5) -0.0043(3) 0.0210(4) -0.0028(4)
C1 0.073(4) 0.063(4) 0.056(4) -0.019(3) 0.026(3) -0.017(3)
C2 0.08 0.061 0.047 -0.008 0.019 -0.006
C3 0.08 0.094 0.073 -0.026 0.013 -0.014
C4 0.126 0.1 0.096 -0.02 -0.015 -0.024
C5 0.107(7) 0.143(9) 0.118(8) -0.026(7) 0.030(6) -0.080(7)
C6 0.099(6) 0.096(6) 0.066(5) 0.007(4) 0.012(4) -0.028(5)
N1 0.067(3) 0.038(2) 0.041(2) -0.0085(18) 0.022(2) -0.003(2)
N2 0.075 0.034 0.038 -0.0057 0.018 -0.003
C2E 0.08 0.061 0.047 -0.008 0.019 -0.006
N1E 0.067 0.038 0.041 -0.0085 0.022 -0.003
N2E 0.075 0.034 0.038 -0.0057 0.018 -0.003
loop_
_geom_bond_atom_site_label_1
_geom_bond_atom_site_label_2
_geom_bond_site_symmetry_1
_geom_bond_site_symmetry_2
Zn1 O2 1_555 1_555
Zn2 O6 1_555 1_555
Ni1 N1 1_555 1_555
P1 H1 1_555 1_555
P2 H2 1_555 1_555
P3 O2 1_555 1_555
O3 Zn1 1_555 1_555
O4 Zn1 1_555 1_555
O5 Zn1 1_555 1_555
O6 P2 1_555 1_555
O7 Zn2 1_555 1_555
O8 P1 1_555 1_555
O9 P2 1_555 1_555
C1 H3 1_555 1_555
C2 C1 1_555 1_555
H4 C2 1_555 1_555
C3 C2 1_555 1_555
H5 C3 1_555 1_555
H6 C3 1_555 1_555
C4 C3 1_555 1_555
H7 C4 1_555 1_555
H8 C4 1_555 1_555
C5 C4 1_555 1_555
H9 C5 1_555 1_555
H10 C5 1_555 1_555
C6 C1 1_555 1_555
H11 C6 1_555 1_555
H12 C6 1_555 1_555
N1 C1 1_555 1_555
H13 N1 1_555 1_555
H14 N1 1_555 1_555
N2 Ni1 1_555 1_555
H15 N2 1_555 1_555
H16 N2 1_555 1_555
Zn2E O8 1_555 1_555
Zn2F O9 1_555 1_555
P3F O3 1_555 1_555
P3B O3 1_555 1_555
O3F P3 1_555 1_555
O3B P3 1_555 1_555
O8E Zn2 1_555 1_555
O9F Zn2 1_555 1_555
C2E N2 1_555 1_555
N1E Ni1 1_555 1_555
N2E Ni1 1_555 1_555
P1 O5 1_555 1_555
P1 O7 1_555 1_555
P2 O4 1_555 1_555
C2 N2E 1_555 1_555
C5 C6 1_555 1_555

#END
