
#######################################################################
#
#                 Cambridge Crystallographic Data Centre
#                                CCDC 
#
#######################################################################
#
# If this CIF has been generated from an entry in the Cambridge 
# Structural Database, then it will include bibliographic, chemical, 
# crystal, experimental, refinement or atomic coordinate data resulting 
# from the CCDC's data processing and validation procedures.
#
#######################################################################

data_ADABIS
_chemical_formula_moiety         '(C18 H14 Cu2 N10 O6)n'
_symmetry_cell_setting           monoclinic
_symmetry_space_group_name_H-M   'C 2/c'
_symmetry_Int_Tables_number      15
_space_group_name_Hall           '-C 2yc'
loop_
_symmetry_equiv_pos_site_id
_symmetry_equiv_pos_as_xyz
1 x,y,z
2 -x,y,1/2-z
3 1/2+x,1/2+y,z
4 1/2-x,1/2+y,1/2-z
5 -x,-y,-z
6 x,-y,1/2+z
7 1/2-x,1/2-y,-z
8 1/2+x,1/2-y,1/2+z
_cell_length_a                   28.561(5)
_cell_length_b                   9.3537(18)
_cell_length_c                   9.2553(15)
_cell_angle_alpha                90
_cell_angle_beta                 116.753(10)
_cell_angle_gamma                90
_cell_volume                     2207.89
loop_
_atom_site_label
_atom_site_type_symbol
_atom_site_fract_x
_atom_site_fract_y
_atom_site_fract_z
_atom_site_U_iso_or_equiv
_atom_site_thermal_displace_type
Cu1 Cu 0.1923(5) 0.828(2) 0.346(2) 0.0790 Uiso
O1 O 0.1252(16) 1.103(4) 0.384(4) 0.0790 Uiso
O2 O 0.1445(16) 1.185(4) 0.634(4) 0.0790 Uiso
N1 N 0.2254(10) 1.021(3) 0.775(3) 0.0790 Uiso
N2 N 0.2627(9) 0.920(4) 0.819(3) 0.0790 Uiso
N3 N 0.2549(10) 0.847(3) 0.687(4) 0.0790 Uiso
N4 N 0.2135(11) 0.900(3) 0.561(3) 0.0790 Uiso
N5 N 0.1410(9) 0.6864(16) 0.380(3) 0.0790 Uiso
C1 C 0.1508(7) 1.106(2) 0.532(4) 0.0790 Uiso
C2 C 0.1960(6) 1.0065(19) 0.617(2) 0.0790 Uiso
C3 C 0.0957(9) 0.7389(15) 0.3695(19) 0.0790 Uiso
C4 C 0.0560(7) 0.6564(18) 0.3748(12) 0.0790 Uiso
C5 C 0.0643(4) 0.5096(18) 0.3923(10) 0.0790 Uiso
C6 C 0.1107(4) 0.4518(15) 0.404(2) 0.0790 Uiso
C7 C 0.1479(6) 0.5438(16) 0.397(3) 0.0790 Uiso
C8 C 0.0230(3) 0.413(2) 0.39913(10) 0.0790 Uiso
C9 C 0.00000 0.320(2) 0.25000 0.0790 Uiso
H1 H 0.090363 0.840446 0.35738 0.0947 Uiso
H2 H 0.024317 0.698776 0.366799 0.0947 Uiso
H3 H 0.116877 0.35058 0.415838 0.0947 Uiso
H4 H 0.179896 0.503917 0.404751 0.0947 Uiso
H5 H -0.003708 0.46889 0.403515 0.0947 Uiso
H6 H 0.038239 0.355018 0.491833 0.0947 Uiso
H7 H 0.02337 0.24148 0.23773 0.0947 Uiso
Cu1A Cu -0.1923(5) 0.828(2) 0.154(2) 0.0790 Uiso
Cu1D Cu -0.1923(5) 1.172(2) -0.346(2) 0.0790 Uiso
Cu1E Cu 0.1923(5) 1.172(2) 0.846(2) 0.0790 Uiso
Cu1F Cu 0.3077(5) 0.672(2) 0.654(2) 0.0790 Uiso
Cu1G Cu -0.3077(5) 0.672(2) -0.154(2) 0.0790 Uiso
O1A O -0.1252(16) 1.103(4) 0.116(4) 0.0790 Uiso
O2A O -0.1445(16) 1.185(4) -0.134(4) 0.0790 Uiso
O2D O -0.1445(16) 0.815(4) 0.366(4) 0.0790 Uiso
O2E O 0.1445(16) 0.815(4) 0.134(4) 0.0790 Uiso
N1A N -0.2254(10) 1.021(3) -0.275(3) 0.0790 Uiso
N1D N -0.2254(10) 0.979(3) 0.225(3) 0.0790 Uiso
N1E N 0.2254(10) 0.979(3) 0.275(3) 0.0790 Uiso
N2A N -0.2627(9) 0.920(4) -0.319(3) 0.0790 Uiso
N3A N -0.2549(10) 0.847(3) -0.187(4) 0.0790 Uiso
N3F N 0.2451(10) 0.653(3) 0.313(4) 0.0790 Uiso
N3G N -0.2451(10) 0.653(3) 0.187(4) 0.0790 Uiso
N4A N -0.2135(11) 0.900(3) -0.061(3) 0.0790 Uiso
N5A N -0.1410(9) 0.6864(16) 0.120(3) 0.0790 Uiso
C1A C -0.1508(7) 1.106(2) -0.032(4) 0.0790 Uiso
C2A C -0.1960(6) 1.0065(19) -0.117(2) 0.0790 Uiso
C3A C -0.0957(9) 0.7389(15) 0.1305(19) 0.0790 Uiso
C4A C -0.0560(7) 0.6564(18) 0.1252(12) 0.0790 Uiso
C5A C -0.0643(4) 0.5096(18) 0.1077(10) 0.0790 Uiso
C6A C -0.1107(4) 0.4518(15) 0.096(2) 0.0790 Uiso
C7A C -0.1479(6) 0.5438(16) 0.103(3) 0.0790 Uiso
C8A C -0.0230(3) 0.413(2) 0.10087(10) 0.0790 Uiso
H1A H -0.090363 0.840446 0.14262 0.0947 Uiso
H2A H -0.024317 0.698776 0.133201 0.0947 Uiso
H3A H -0.116877 0.35058 0.084162 0.0947 Uiso
H4A H -0.179896 0.503917 0.095249 0.0947 Uiso
H5A H 0.003708 0.46889 0.096485 0.0947 Uiso
H6A H -0.038239 0.355018 0.008167 0.0947 Uiso
H7A H -0.02337 0.24148 0.26227 0.0947 Uiso
O3 O -0.0017(19) 1.122(2) 0.458(7) 0.0790 Uiso
C10 C 0.00000 1.00000 0.50000 0.0790 Uiso
O3D O 0.0017(19) 0.878(2) 0.542(7) 0.0790 Uiso
loop_
_geom_bond_atom_site_label_1
_geom_bond_atom_site_label_2
_geom_bond_site_symmetry_1
_geom_bond_site_symmetry_2
Cu1 N4 1_555 1_555
O1 C1 1_555 1_555
O2 C1 1_555 1_555
N1 N2 1_555 1_555
N2 N3 1_555 1_555
N3 N4 1_555 1_555
N4 C2 1_555 1_555
N5 Cu1 1_555 1_555
C1 C2 1_555 1_555
C2 N1 1_555 1_555
C3 N5 1_555 1_555
C4 C3 1_555 1_555
C5 C4 1_555 1_555
C6 C5 1_555 1_555
C7 N5 1_555 1_555
C8 C5 1_555 1_555
C9 C8 1_555 1_555
H1 C3 1_555 1_555
H2 C4 1_555 1_555
H3 C6 1_555 1_555
H4 C7 1_555 1_555
H5 C8 1_555 1_555
H6 C8 1_555 1_555
H7 C9 1_555 1_555
O3 C10 1_555 1_555
C10 O3D 1_555 1_555
Cu1A O2D 1_555 1_555
Cu1D O2A 1_555 1_555
Cu1E O2 1_555 1_555
Cu1F N3 1_555 1_555
Cu1G N3A 1_555 1_555
O1A C1A 1_555 1_555
O2A C1A 1_555 1_555
O2E Cu1 1_555 1_555
N1A Cu1D 1_555 1_555
N1D Cu1A 1_555 1_555
N1E Cu1 1_555 1_555
N2A N1A 1_555 1_555
N3A N2A 1_555 1_555
N3F Cu1 1_555 1_555
N3G Cu1A 1_555 1_555
N4A Cu1A 1_555 1_555
N5A Cu1A 1_555 1_555
C1A C2A 1_555 1_555
C2A N1A 1_555 1_555
C3A N5A 1_555 1_555
C4A C3A 1_555 1_555
C5A C4A 1_555 1_555
C6A C5A 1_555 1_555
C7A N5A 1_555 1_555
C8A C9 1_555 1_555
H1A C3A 1_555 1_555
H2A C4A 1_555 1_555
H3A C6A 1_555 1_555
H4A C7A 1_555 1_555
H5A C8A 1_555 1_555
H6A C8A 1_555 1_555
H7A C9 1_555 1_555
N1 Cu1E 1_555 1_555
C6 C7 1_555 1_555
N3A N4A 1_555 1_555
N4A C2A 1_555 1_555
C5A C8A 1_555 1_555
C6A C7A 1_555 1_555

#END
