
#######################################################################
#
#                 Cambridge Crystallographic Data Centre
#                                CCDC 
#
#######################################################################
#
# If this CIF has been generated from an entry in the Cambridge 
# Structural Database, then it will include bibliographic, chemical, 
# crystal, experimental, refinement or atomic coordinate data resulting 
# from the CCDC's data processing and validation procedures.
#
#######################################################################

data_ADABUE
_chemical_formula_moiety         '(C17 H20 Cu2 N10 O7)n'
_symmetry_cell_setting           monoclinic
_symmetry_space_group_name_H-M   'C 2/c'
_symmetry_Int_Tables_number      15
_space_group_name_Hall           '-C 2yc'
loop_
_symmetry_equiv_pos_site_id
_symmetry_equiv_pos_as_xyz
1 x,y,z
2 -x,y,1/2-z
3 1/2+x,1/2+y,z
4 1/2-x,1/2+y,1/2-z
5 -x,-y,-z
6 x,-y,1/2+z
7 1/2-x,1/2-y,-z
8 1/2+x,1/2-y,1/2+z
_cell_length_a                   28.612(2)
_cell_length_b                   9.3899(7)
_cell_length_c                   9.2741(8)
_cell_angle_alpha                90
_cell_angle_beta                 92.657(10)
_cell_angle_gamma                90
_cell_volume                     2488.94
loop_
_atom_site_label
_atom_site_type_symbol
_atom_site_fract_x
_atom_site_fract_y
_atom_site_fract_z
_atom_site_U_iso_or_equiv
_atom_site_thermal_displace_type
Cu1 Cu 0.30754(3) 0.66933(7) 0.12004(7) 0.0143 Uani
C1 C 0.3806(2) 0.9883(8) -0.1022(9) 0.0324 Uani
H1 H 0.3730 1.0774 -0.1431 0.0390 Uiso
C2 C 0.3473(2) 0.9111(7) -0.0368(8) 0.0288 Uani
H2 H 0.3168 0.9485 -0.0356 0.0350 Uiso
C3 C 0.4349(2) 0.8040(7) -0.0426(9) 0.0318 Uani
H3 H 0.4649 0.7635 -0.0434 0.0380 Uiso
N1 N 0.35573(18) 0.7845(6) 0.0260(5) 0.0186 Uani
C4 C 0.4261(2) 0.9351(7) -0.1084(7) 0.0244 Uani
C5 C 0.3993(2) 0.7335(7) 0.0238(8) 0.0288 Uani
H4 H 0.4060 0.6460 0.0693 0.0350 Uiso
C6 C 0.4632(2) 1.0197(7) -0.1804(9) 0.0313 Uani
H5 H 0.4787 1.0821 -0.1083 0.0380 Uiso
H6 H 0.4480 1.0807 -0.2544 0.0380 Uiso
C7 C 0.5000 0.9309(11) -0.2500 0.0336 Uani
H7 H 0.4848 0.8700 -0.3224 0.0400 Uiso
N2 N 0.27842(18) 0.6061(5) -0.0723(5) 0.0173 Uani
N3 N 0.24377(17) 0.6551(5) -0.1592(5) 0.0154 Uani
N4 N 0.24145(18) 0.5795(5) -0.2797(5) 0.0200 Uani
C8 C 0.2968(2) 0.4981(6) -0.1404(6) 0.0180 Uani
N5 N 0.27503(17) 0.4799(5) -0.2690(5) 0.0166 Uani
C9 C 0.3378(2) 0.4054(6) -0.0992(7) 0.0193 Uani
O1 O 0.34730(16) 0.3184(4) -0.1983(5) 0.0227 Uani
O2 O 0.35748(18) 0.4203(5) 0.0204(5) 0.0307 Uani
Cu1A Cu 0.69246(3) 0.66933(7) -0.62004(7) 0.0143 Uani
Cu1D Cu 0.69246(3) 0.33067(7) -0.12004(7) 0.0143 Uani
Cu1E Cu 0.30754(3) 0.33067(7) -0.37996(7) 0.0143 Uani
Cu1F Cu 0.19246(3) 0.83067(7) -0.12004(7) 0.0143 Uani
Cu1G Cu 0.80754(3) 0.83067(7) -0.37996(7) 0.0143 Uani
C1A C 0.6194(2) 0.9883(8) -0.3978(9) 0.0324 Uani
H1A H 0.6270 1.0774 -0.3569 0.0390 Uiso
C2A C 0.6527(2) 0.9111(7) -0.4632(8) 0.0288 Uani
H2A H 0.6832 0.9485 -0.4644 0.0350 Uiso
C3A C 0.5651(2) 0.8040(7) -0.4574(9) 0.0318 Uani
H3A H 0.5351 0.7635 -0.4566 0.0380 Uiso
N1A N 0.64427(18) 0.7845(6) -0.5260(5) 0.0186 Uani
C4A C 0.5739(2) 0.9351(7) -0.3916(7) 0.0244 Uani
C5A C 0.6007(2) 0.7335(7) -0.5238(8) 0.0288 Uani
H4A H 0.5940 0.6460 -0.5693 0.0350 Uiso
C6A C 0.5368(2) 1.0197(7) -0.3196(9) 0.0313 Uani
H5A H 0.5213 1.0821 -0.3917 0.0380 Uiso
H6A H 0.5520 1.0807 -0.2456 0.0380 Uiso
H7A H 0.5152 0.8700 -0.1776 0.0400 Uiso
N2A N 0.72158(18) 0.6061(5) -0.4277(5) 0.0173 Uani
N3A N 0.75623(17) 0.6551(5) -0.3408(5) 0.0154 Uani
N3F N 0.25623(17) 0.8449(5) 0.1592(5) 0.0154 Uani
N3G N 0.74377(17) 0.8449(5) -0.6592(5) 0.0154 Uani
N4A N 0.75855(18) 0.5795(5) -0.2203(5) 0.0200 Uani
C8A C 0.7032(2) 0.4981(6) -0.3596(6) 0.0180 Uani
N5A N 0.72497(17) 0.4799(5) -0.2310(5) 0.0166 Uani
N5D N 0.72497(17) 0.5201(5) -0.7310(5) 0.0166 Uani
N5E N 0.27503(17) 0.5201(5) 0.2310(5) 0.0166 Uani
C9A C 0.6622(2) 0.4054(6) -0.4008(7) 0.0193 Uani
O1A O 0.65270(16) 0.3184(4) -0.3017(5) 0.0227 Uani
O1D O 0.65270(16) 0.6816(4) -0.8017(5) 0.0227 Uani
O1E O 0.34730(16) 0.6816(4) 0.3017(5) 0.0227 Uani
O2A O 0.64252(18) 0.4203(5) -0.5204(5) 0.0307 Uani
O3 O 0.4559(2) 0.3663(9) 0.0145(10) 0.0748 Uani
H8 H 0.4282 0.3875 -0.0065 0.1120 Uiso
H9 H 0.4632 0.3898 0.0989 0.1120 Uiso
O4 O 0.5000 0.5273(14) 0.2500 0.0823 Uani
H10 H 0.4821 0.4764 0.1996 0.1240 Uiso
H10A H 0.5179 0.4764 0.3004 0.1240 Uiso
O3A O 0.5441(2) 0.3663(9) 0.4855(10) 0.0748 Uani
H8A H 0.5718 0.3875 0.5065 0.1120 Uiso
H9A H 0.5368 0.3898 0.4011 0.1120 Uiso
loop_
_atom_site_aniso_label
_atom_site_aniso_U_11
_atom_site_aniso_U_22
_atom_site_aniso_U_33
_atom_site_aniso_U_23
_atom_site_aniso_U_13
_atom_site_aniso_U_12
Cu1 0.0182(4) 0.0149(4) 0.0099(4) 0.0017(3) 0.0013(3) -0.0021(3)
C1 0.027(3) 0.025(3) 0.046(4) 0.018(3) 0.009(3) 0.008(3)
C2 0.021(3) 0.029(3) 0.037(4) 0.013(3) 0.009(3) 0.010(3)
C3 0.022(3) 0.028(3) 0.046(4) 0.011(3) 0.009(3) 0.010(3)
N1 0.020(2) 0.023(2) 0.013(2) 0.0017(19) 0.0025(19) -0.001(2)
C4 0.021(3) 0.022(3) 0.031(3) 0.000(3) 0.010(3) 0.000(2)
C5 0.025(3) 0.018(3) 0.044(4) 0.011(3) 0.008(3) 0.004(3)
C6 0.028(3) 0.020(3) 0.048(4) 0.004(3) 0.023(3) -0.001(3)
C7 0.033(5) 0.030(5) 0.040(6) 0.000 0.024(5) 0.000
N2 0.023(3) 0.015(2) 0.014(2) 0.0013(18) 0.0023(19) -0.0014(19)
N3 0.018(2) 0.014(2) 0.014(2) -0.0015(18) 0.0001(19) 0.0033(19)
N4 0.020(3) 0.025(3) 0.015(2) -0.005(2) 0.0018(19) 0.006(2)
C8 0.026(3) 0.017(3) 0.011(3) -0.003(2) 0.002(2) -0.002(2)
N5 0.018(2) 0.018(2) 0.014(2) 0.0001(19) 0.0016(19) 0.0017(19)
C9 0.024(3) 0.018(3) 0.016(3) 0.001(2) 0.001(2) -0.001(2)
O1 0.026(2) 0.023(2) 0.019(2) -0.0036(17) -0.0004(18) 0.0085(17)
O2 0.038(3) 0.037(3) 0.016(2) -0.0049(19) -0.010(2) 0.010(2)
Cu1A 0.0182 0.0149 0.0099 -0.0017 0.0013 0.0021
Cu1D 0.0182 0.0149 0.0099 0.0017 0.0013 -0.0021
Cu1E 0.0182 0.0149 0.0099 -0.0017 0.0013 0.0021
Cu1F 0.0182 0.0149 0.0099 0.0017 0.0013 -0.0021
Cu1G 0.0182 0.0149 0.0099 -0.0017 0.0013 0.0021
C1A 0.027 0.025 0.046 -0.018 0.009 -0.008
C2A 0.021 0.029 0.037 -0.013 0.009 -0.01
C3A 0.022 0.028 0.046 -0.011 0.009 -0.01
N1A 0.02 0.023 0.013 -0.0017 0.0025 0.001
C4A 0.021 0.022 0.031 0 0.01 0
C5A 0.025 0.018 0.044 -0.011 0.008 -0.004
C6A 0.028 0.02 0.048 -0.004 0.023 0.001
N2A 0.023 0.015 0.014 -0.0013 0.0023 0.0014
N3A 0.018 0.014 0.014 0.0015 0.0001 -0.0033
N3F 0.018 0.014 0.014 -0.0015 0.0001 0.0033
N3G 0.018 0.014 0.014 0.0015 0.0001 -0.0033
N4A 0.02 0.025 0.015 0.005 0.0018 -0.006
C8A 0.026 0.017 0.011 0.003 0.002 0.002
N5A 0.018 0.018 0.014 -0.0001 0.0016 -0.0017
N5D 0.018 0.018 0.014 0.0001 0.0016 0.0017
N5E 0.018 0.018 0.014 -0.0001 0.0016 -0.0017
C9A 0.024 0.018 0.016 -0.001 0.001 0.001
O1A 0.026 0.023 0.019 0.0036 -0.0004 -0.0085
O1D 0.026 0.023 0.019 -0.0036 -0.0004 0.0085
O1E 0.026 0.023 0.019 0.0036 -0.0004 -0.0085
O2A 0.038 0.037 0.016 0.0049 -0.01 -0.01
O3 0.041(4) 0.079(5) 0.103(7) 0.000(5) -0.011(4) 0.020(4)
O4 0.054(6) 0.089(9) 0.103(10) 0.000 -0.006(6) 0.000
O3A 0.041 0.079 0.103 0 -0.011 -0.02
loop_
_geom_bond_atom_site_label_1
_geom_bond_atom_site_label_2
_geom_bond_site_symmetry_1
_geom_bond_site_symmetry_2
Cu1 N1 1_555 1_555
C1 H1 1_555 1_555
C2 C1 1_555 1_555
H2 C2 1_555 1_555
C3 H3 1_555 1_555
N1 C2 1_555 1_555
C4 C1 1_555 1_555
C5 C3 1_555 1_555
H4 C5 1_555 1_555
C6 C4 1_555 1_555
H5 C6 1_555 1_555
H6 C6 1_555 1_555
C7 C6 1_555 1_555
H7 C7 1_555 1_555
N2 Cu1 1_555 1_555
N3 N2 1_555 1_555
N4 N3 1_555 1_555
C8 N2 1_555 1_555
N5 N4 1_555 1_555
C9 C8 1_555 1_555
O1 C9 1_555 1_555
O2 C9 1_555 1_555
O3 H8 1_555 1_555
H9 O3 1_555 1_555
O4 H10 1_555 1_555
Cu1A N1A 1_555 1_555
Cu1D N5A 1_555 1_555
Cu1E N5 1_555 1_555
Cu1F N3 1_555 1_555
Cu1G N3A 1_555 1_555
C1A H1A 1_555 1_555
C2A C1A 1_555 1_555
H2A C2A 1_555 1_555
C3A H3A 1_555 1_555
N1A C2A 1_555 1_555
C4A C1A 1_555 1_555
C5A C3A 1_555 1_555
H4A C5A 1_555 1_555
C6A C7 1_555 1_555
H5A C6A 1_555 1_555
H6A C6A 1_555 1_555
H7A C7 1_555 1_555
N2A Cu1A 1_555 1_555
N3A N2A 1_555 1_555
N3F Cu1 1_555 1_555
N3G Cu1A 1_555 1_555
N4A N3A 1_555 1_555
C8A N2A 1_555 1_555
N5A N4A 1_555 1_555
N5D Cu1A 1_555 1_555
N5E Cu1 1_555 1_555
C9A C8A 1_555 1_555
O1A Cu1D 1_555 1_555
O1D Cu1A 1_555 1_555
O1E Cu1 1_555 1_555
O2A C9A 1_555 1_555
O3A H8A 1_555 1_555
H9A O3A 1_555 1_555
H10A O4 1_555 1_555
C3 C4 1_555 1_555
N1 C5 1_555 1_555
C8 N5 1_555 1_555
O1 Cu1E 1_555 1_555
C3A C4A 1_555 1_555
N1A C5A 1_555 1_555
C4A C6A 1_555 1_555
C8A N5A 1_555 1_555
C9A O1A 1_555 1_555

#END
