
#######################################################################
#
#                 Cambridge Crystallographic Data Centre
#                                CCDC 
#
#######################################################################
#
# If this CIF has been generated from an entry in the Cambridge 
# Structural Database, then it will include bibliographic, chemical, 
# crystal, experimental, refinement or atomic coordinate data resulting 
# from the CCDC's data processing and validation procedures.
#
#######################################################################

data_GOGSIF
_chemical_formula_moiety         '(C70 H114 Co5 N10 O22)n'
_symmetry_cell_setting           monoclinic
_symmetry_space_group_name_H-M   'P 21'
_symmetry_Int_Tables_number      4
_space_group_name_Hall           'P 2yb'
loop_
_symmetry_equiv_pos_site_id
_symmetry_equiv_pos_as_xyz
1 x,y,z
2 -x,1/2+y,-z
_cell_length_a                   14.443(4)
_cell_length_b                   14.537(4)
_cell_length_c                   22.015(5)
_cell_angle_alpha                90
_cell_angle_beta                 99.973(4)
_cell_angle_gamma                90
_cell_volume                     4552.38
loop_
_atom_site_label
_atom_site_type_symbol
_atom_site_fract_x
_atom_site_fract_y
_atom_site_fract_z
N1 N 0.699(2) 0.119(2) 0.8757(15)
N2 N 0.542(2) 0.056(2) 0.7973(15)
N3 N 1.057(2) -0.047(2) 0.9340(15)
N4 N 0.914(2) 0.078(2) 0.9365(14)
N5 N 1.222(2) -0.099(2) 0.8633(15)
N6 N 1.338(2) -0.037(2) 0.7845(15)
N7 N 0.549(3) -0.325(3) 0.4591(17)
N8 N 0.458(3) -0.208(3) 0.5287(19)
O1 O 0.7149(19) 0.2932(19) 0.9323(14)
O2 O 0.9118(17) 0.2647(18) 1.0007(12)
H1 H 0.9417 0.3090 0.9775
H2 H 0.9599 0.2235 1.0215
O3 O 0.758(2) 0.4015(19) 1.0019(14)
O4 O 0.3499(19) -0.021(2) 0.6442(12)
H3 H 0.2831 -0.0270 0.6467
O5 O 0.771(2) 0.1177(18) 1.0086(13)
O6 O 0.7671(19) 0.2228(18) 1.0807(13)
O7 O 0.857(2) 0.2374(19) 0.8634(12)
O8 O 0.965(3) 0.333(3) 0.9048(16)
O9 O 1.055(2) -0.2107(19) 0.8624(13)
O10 O 0.970(3) -0.298(3) 0.9113(19)
O11 O 0.493(2) -0.116(2) 0.7388(13)
O12 O 0.460(4) -0.197(3) 0.6548(18)
O13 O 0.519(2) 0.066(2) 0.6583(14)
O14 O 0.521(3) -0.037(3) 0.5889(18)
O15 O 0.378(2) 0.138(2) 0.7340(13)
O16 O 0.344(3) 0.196(2) 0.6407(15)
O17 O 0.266(4) 0.079(4) 0.524(2)
O18 O 0.349(4) -0.032(5) 0.5114(19)
O19 O 0.287(4) -0.199(4) 0.576(3)
O20 O 0.194(3) -0.127(4) 0.627(2)
C1 C 0.713(3) 0.372(3) 0.952(2)
C2 C 0.656(4) 0.443(3) 0.909(2)
C3 C 0.639(6) 0.530(4) 0.943(4)
H4 H 0.6990 0.5560 0.9616
H5 H 0.6039 0.5158 0.9751
H6 H 0.6054 0.5737 0.9152
C4 C 0.560(4) 0.398(5) 0.880(4)
H7 H 0.5226 0.4417 0.8531
H8 H 0.5265 0.3795 0.9117
H9 H 0.5713 0.3450 0.8559
C5 C 0.708(6) 0.463(7) 0.854(4)
H10 H 0.7673 0.4928 0.8697
H11 H 0.6707 0.5029 0.8250
H12 H 0.7198 0.4066 0.8345
C6 C 0.759(3) 0.145(2) 1.0606(17)
C7 C 0.732(4) 0.069(3) 1.103(2)
C8 C 0.645(9) 0.103(6) 1.130(7)
H13 H 0.6661 0.1409 1.1656
H14 H 0.6115 0.0509 1.1421
C9 C 0.708(11) -0.021(5) 1.068(4)
H16 H 0.7620 -0.0600 1.0727
H17 H 0.6877 -0.0078 1.0246
H18 H 0.6578 -0.0515 1.0833
C10 C 0.815(9) 0.055(10) 1.157(5)
H19 H 0.8550 0.1079 1.1611
H20 H 0.8504 0.0015 1.1496
H21 H 0.7907 0.0463 1.1949
H23 H 0.5868 0.0869 1.0863
C14 C 0.918(3) 0.293(3) 0.8603(17)
C15 C 0.945(4) 0.310(3) 0.796(2)
C16 C 0.871(7) 0.271(7) 0.745(2)
H31 H 0.8897 0.2825 0.7058
H32 H 0.8118 0.2990 0.7461
H33 H 0.8664 0.2053 0.7505
C17 C 0.960(9) 0.413(4) 0.787(4)
H34 H 0.9764 0.4227 0.7472
H35 H 1.0107 0.4344 0.8183
H36 H 0.9039 0.4456 0.7903
C18 C 1.040(6) 0.258(8) 0.797(4)
H37 H 1.0599 0.2662 0.7575
H38 H 1.0321 0.1938 0.8040
H39 H 1.0875 0.2827 0.8287
C19 C 0.988(3) -0.261(3) 0.8655(19)
C20 C 0.921(4) -0.282(4) 0.804(2)
C21 C 0.980(6) -0.312(8) 0.755(3)
H40 H 0.9387 -0.3255 0.7168
H41 H 1.0156 -0.3657 0.7691
H42 H 1.0216 -0.2629 0.7485
C22 C 0.865(7) -0.195(4) 0.784(5)
H43 H 0.8231 -0.2057 0.7456
H44 H 0.9073 -0.1459 0.7786
H45 H 0.8287 -0.1779 0.8149
C23 C 0.858(5) -0.363(4) 0.817(3)
H46 H 0.8162 -0.3801 0.7805
H47 H 0.8229 -0.3457 0.8486
H48 H 0.8976 -0.4151 0.8318
C24 C 0.492(3) -0.189(3) 0.711(2)
C25 C 0.533(4) -0.276(4) 0.743(2)
C26 C 0.575(8) -0.253(6) 0.810(3)
H49 H 0.5271 -0.2269 0.8303
H50 H 0.6251 -0.2096 0.8110
H51 H 0.5987 -0.3082 0.8312
C27 C 0.606(5) -0.316(5) 0.709(3)
H52 H 0.6312 -0.3716 0.7285
H53 H 0.6564 -0.2723 0.7090
H54 H 0.5778 -0.3288 0.6669
C28 C 0.455(7) -0.343(5) 0.739(5)
H55 H 0.4068 -0.3197 0.7596
H56 H 0.4781 -0.4003 0.7570
H57 H 0.4287 -0.3530 0.6959
C29 C 0.561(2) 0.013(3) 0.627(2)
C30 C 0.668(3) 0.023(4) 0.635(2)
C31 C 0.714(4) -0.011(6) 0.700(3)
H58 H 0.7003 -0.0750 0.7045
H59 H 0.6893 0.0237 0.7311
H60 H 0.7807 -0.0023 0.7055
C32 C 0.705(5) -0.025(7) 0.583(3)
H61 H 0.6894 -0.0895 0.5830
H62 H 0.7723 -0.0186 0.5890
H63 H 0.6775 0.0017 0.5444
C33 C 0.692(5) 0.128(4) 0.634(4)
H64 H 0.6672 0.1594 0.6665
H65 H 0.6646 0.1541 0.5951
H66 H 0.7590 0.1362 0.6407
C34 C 0.349(3) 0.201(3) 0.698(2)
C35 C 0.319(5) 0.290(4) 0.722(3)
C36 C 0.316(9) 0.286(6) 0.791(4)
H67 H 0.2683 0.2436 0.7981
H68 H 0.3028 0.3459 0.8054
H69 H 0.3761 0.2655 0.8129
C37 C 0.231(8) 0.326(6) 0.686(4)
H70 H 0.2365 0.3280 0.6428
H71 H 0.2190 0.3867 0.6995
H72 H 0.1797 0.2862 0.6908
C38 C 0.396(7) 0.360(4) 0.717(5)
H73 H 0.4040 0.3643 0.6749
H74 H 0.4538 0.3399 0.7419
H75 H 0.3785 0.4185 0.7313
C39 C 0.284(4) 0.015(5) 0.496(2)
C40 C 0.218(4) -0.004(5) 0.434(2)
C41 C 0.209(9) 0.087(7) 0.396(4)
H76 H 0.1682 0.0768 0.3571
H77 H 0.2704 0.1046 0.3879
H78 H 0.1845 0.1346 0.4181
C42 C 0.121(5) -0.034(10) 0.446(5)
H79 H 0.1264 -0.0906 0.4678
H80 H 0.0797 -0.0414 0.4067
H81 H 0.0959 0.0127 0.4693
C43 C 0.264(9) -0.080(9) 0.400(5)
H82 H 0.2639 -0.1365 0.4218
H83 H 0.3269 -0.0623 0.3971
H84 H 0.2280 -0.0869 0.3589
C44 C 0.218(5) -0.194(5) 0.599(3)
C45 C 0.150(5) -0.278(5) 0.592(4)
C46 C 0.165(9) -0.334(7) 0.652(5)
H85 H 0.1252 -0.3876 0.6469
H86 H 0.1498 -0.2970 0.6848
H87 H 0.2296 -0.3532 0.6617
C47 C 0.172(9) -0.338(8) 0.538(6)
H88 H 0.1291 -0.3895 0.5317
H89 H 0.2352 -0.3609 0.5479
H90 H 0.1651 -0.3023 0.5010
C48 C 0.048(5) -0.242(7) 0.576(7)
H91 H 0.0048 -0.2924 0.5685
H92 H 0.0412 -0.2029 0.5405
H93 H 0.0337 -0.2066 0.6107
C49 C 0.660(3) 0.166(3) 0.8272(19)
H94 H 0.6862 0.2216 0.8187
C50 C 0.582(3) 0.135(3) 0.7889(19)
H95 H 0.5552 0.1720 0.7558
C51 C 0.584(3) 0.009(3) 0.845(2)
H96 H 0.5591 -0.0485 0.8525
C52 C 0.662(3) 0.039(3) 0.885(2)
H97 H 0.6893 0.0020 0.9176
C53 C 1.007(3) -0.014(3) 0.8834(18)
H98 H 1.0200 -0.0346 0.8456
C54 C 0.937(3) 0.048(3) 0.8838(19)
H99 H 0.9040 0.0703 0.8466
C55 C 0.965(3) 0.046(3) 0.9871(19)
H100 H 0.9518 0.0657 1.0250
C56 C 1.037(3) -0.018(3) 0.9859(18)
H101 H 1.0703 -0.0396 1.0229
C57 C 1.230(3) -0.142(3) 0.8129(19)
H102 H 1.1954 -0.1957 0.8030
C58 C 1.288(3) -0.111(3) 0.7737(19)
H103 H 1.2910 -0.1443 0.7381
C59 C 1.327(3) 0.010(3) 0.8353(18)
H104 H 1.3586 0.0658 0.8437
C60 C 1.272(3) -0.022(3) 0.875(2)
H105 H 1.2696 0.0107 0.9108
C61 C 0.545(5) -0.236(4) 0.450(3)
H106 H 0.5729 -0.2108 0.4188
C62 C 0.501(5) -0.179(4) 0.484(3)
H107 H 0.5022 -0.1161 0.4763
C63 C 0.461(4) -0.297(3) 0.537(2)
H108 H 0.4301 -0.3216 0.5668
C64 C 0.508(5) -0.355(4) 0.504(2)
H109 H 0.5112 -0.4171 0.5138
Co1 Co 0.8101(3) 0.1878(3) 0.9393(2)
Co2 Co 1.1533(4) -0.1646(3) 0.9320(2)
Co3 Co 0.4304(4) 0.0079(4) 0.7244(2)
Co4 Co 0.3974(5) -0.1183(4) 0.5878(3)
Co5 Co 0.3787(6) 0.0873(5) 0.5945(3)
N6_2 N 0.338(2) -0.037(2) 0.7845(15)
N7A N 0.451(3) 0.175(3) 0.5409(17)
O2A O 1.0882(17) -0.2353(18) 0.9993(12)
H1A H 1.0583 -0.1910 1.0225
H2A H 1.0401 -0.2765 0.9785
O3A O 1.242(2) -0.0985(19) 0.9981(14)
O6A O 1.2329(19) -0.2772(18) 0.9193(13)
Co2A Co 0.8467(4) 0.3354(3) 1.0680(2)
Co3_2 Co 1.4304(4) 0.0079(4) 0.7244(2)
Co5A Co 0.6213(6) -0.4127(5) 0.4055(3)
N9 N 0.455(10) 0.307(6) 1.040(4)
C65 C 0.364(7) 0.284(7) 1.011(6)
H110 H 0.3124 0.3090 1.0251
C66 C 0.351(9) 0.225(8) 0.961(6)
H111 H 0.2903 0.2096 0.9414
N10 N 0.428(14) 0.188(7) 0.939(5)
C67 C 0.519(11) 0.211(10) 0.968(8)
H112 H 0.5702 0.1861 0.9539
C68 C 0.532(6) 0.270(9) 1.018(7)
H113 H 0.5923 0.2855 1.0376
O21 O 0.998(16) 0.526(8) 0.268(7)
O22 O 0.917(12) 0.420(10) 0.307(7)
C69 C 0.962(13) 0.495(11) 0.311(6)
C70 C 0.956(10) 0.552(9) 0.370(5)
C71 C 0.852(11) 0.575(16) 0.371(10)
C72 C 1.014(16) 0.641(11) 0.370(7)
C73 C 0.996(15) 0.493(14) 0.428(7)
loop_
_geom_bond_atom_site_label_1
_geom_bond_atom_site_label_2
_geom_bond_site_symmetry_1
_geom_bond_site_symmetry_2
N1 C49 1_555 1_555
N2 C50 1_555 1_555
N3 C53 1_555 1_555
N4 C54 1_555 1_555
N5 C57 1_555 1_555
N6 C58 1_555 1_555
N7 C61 1_555 1_555
N8 C62 1_555 1_555
O1 C1 1_555 1_555
O2 H1 1_555 1_555
H2 O2 1_555 1_555
O3 C1 1_555 1_555
O4 H3 1_555 1_555
O5 C6 1_555 1_555
O6 C6 1_555 1_555
O7 C14 1_555 1_555
O8 C14 1_555 1_555
O9 C19 1_555 1_555
O10 C19 1_555 1_555
O11 C24 1_555 1_555
O12 C24 1_555 1_555
O13 C29 1_555 1_555
O14 C29 1_555 1_555
O15 C34 1_555 1_555
O16 C34 1_555 1_555
O17 C39 1_555 1_555
O18 C39 1_555 1_555
O19 C44 1_555 1_555
O20 C44 1_555 1_555
C1 C2 1_555 1_555
C2 C3 1_555 1_555
C3 H4 1_555 1_555
H5 C3 1_555 1_555
H6 C3 1_555 1_555
C4 C2 1_555 1_555
H7 C4 1_555 1_555
H8 C4 1_555 1_555
H9 C4 1_555 1_555
C5 C2 1_555 1_555
H10 C5 1_555 1_555
H11 C5 1_555 1_555
H12 C5 1_555 1_555
C6 C7 1_555 1_555
C7 C8 1_555 1_555
C8 H13 1_555 1_555
H14 C8 1_555 1_555
C9 C7 1_555 1_555
H16 C9 1_555 1_555
H17 C9 1_555 1_555
H18 C9 1_555 1_555
C10 C7 1_555 1_555
H19 C10 1_555 1_555
H20 C10 1_555 1_555
H21 C10 1_555 1_555
H23 C8 1_555 1_555
C14 C15 1_555 1_555
C15 C16 1_555 1_555
C16 H31 1_555 1_555
H32 C16 1_555 1_555
H33 C16 1_555 1_555
C17 C15 1_555 1_555
H34 C17 1_555 1_555
H35 C17 1_555 1_555
H36 C17 1_555 1_555
C18 C15 1_555 1_555
H37 C18 1_555 1_555
H38 C18 1_555 1_555
H39 C18 1_555 1_555
C19 C20 1_555 1_555
C20 C21 1_555 1_555
C21 H40 1_555 1_555
H41 C21 1_555 1_555
H42 C21 1_555 1_555
C22 C20 1_555 1_555
H43 C22 1_555 1_555
H44 C22 1_555 1_555
H45 C22 1_555 1_555
C23 C20 1_555 1_555
H46 C23 1_555 1_555
H47 C23 1_555 1_555
H48 C23 1_555 1_555
C24 C25 1_555 1_555
C25 C26 1_555 1_555
C26 H49 1_555 1_555
H50 C26 1_555 1_555
H51 C26 1_555 1_555
C27 C25 1_555 1_555
H52 C27 1_555 1_555
H53 C27 1_555 1_555
H54 C27 1_555 1_555
C28 C25 1_555 1_555
H55 C28 1_555 1_555
H56 C28 1_555 1_555
H57 C28 1_555 1_555
C29 C30 1_555 1_555
C30 C31 1_555 1_555
C31 H58 1_555 1_555
H59 C31 1_555 1_555
H60 C31 1_555 1_555
C32 C30 1_555 1_555
H61 C32 1_555 1_555
H62 C32 1_555 1_555
H63 C32 1_555 1_555
C33 C30 1_555 1_555
H64 C33 1_555 1_555
H65 C33 1_555 1_555
H66 C33 1_555 1_555
C34 C35 1_555 1_555
C35 C36 1_555 1_555
C36 H67 1_555 1_555
H68 C36 1_555 1_555
H69 C36 1_555 1_555
C37 C35 1_555 1_555
H70 C37 1_555 1_555
H71 C37 1_555 1_555
H72 C37 1_555 1_555
C38 C35 1_555 1_555
H73 C38 1_555 1_555
H74 C38 1_555 1_555
H75 C38 1_555 1_555
C39 C40 1_555 1_555
C40 C41 1_555 1_555
C41 H76 1_555 1_555
H77 C41 1_555 1_555
H78 C41 1_555 1_555
C42 C40 1_555 1_555
H79 C42 1_555 1_555
H80 C42 1_555 1_555
H81 C42 1_555 1_555
C43 C40 1_555 1_555
H82 C43 1_555 1_555
H83 C43 1_555 1_555
H84 C43 1_555 1_555
C44 C45 1_555 1_555
C45 C46 1_555 1_555
C46 H85 1_555 1_555
H86 C46 1_555 1_555
H87 C46 1_555 1_555
C47 C45 1_555 1_555
H88 C47 1_555 1_555
H89 C47 1_555 1_555
H90 C47 1_555 1_555
C48 C45 1_555 1_555
H91 C48 1_555 1_555
H92 C48 1_555 1_555
H93 C48 1_555 1_555
C49 H94 1_555 1_555
C50 C49 1_555 1_555
H95 C50 1_555 1_555
C51 N2 1_555 1_555
H96 C51 1_555 1_555
C52 N1 1_555 1_555
H97 C52 1_555 1_555
C53 H98 1_555 1_555
C54 C53 1_555 1_555
H99 C54 1_555 1_555
C55 N4 1_555 1_555
H100 C55 1_555 1_555
C56 N3 1_555 1_555
H101 C56 1_555 1_555
C57 H102 1_555 1_555
C58 C57 1_555 1_555
H103 C58 1_555 1_555
C59 N6 1_555 1_555
H104 C59 1_555 1_555
C60 N5 1_555 1_555
H105 C60 1_555 1_555
C61 H106 1_555 1_555
C62 C61 1_555 1_555
H107 C62 1_555 1_555
C63 N8 1_555 1_555
H108 C63 1_555 1_555
C64 N7 1_555 1_555
H109 C64 1_555 1_555
N9 C65 1_555 1_555
C65 H110 1_555 1_555
C66 C65 1_555 1_555
H111 C66 1_555 1_555
N10 C66 1_555 1_555
C67 N10 1_555 1_555
H112 C67 1_555 1_555
C68 N9 1_555 1_555
H113 C68 1_555 1_555
O21 C69 1_555 1_555
O22 C69 1_555 1_555
C69 C70 1_555 1_555
C70 C71 1_555 1_555
C72 C70 1_555 1_555
C73 C70 1_555 1_555
Co1 N1 1_555 1_555
Co2 N3 1_555 1_555
Co3 N2 1_555 1_555
Co4 N8 1_555 1_555
Co5 O4 1_555 1_555
N6_2 Co3 1_555 1_555
N7A Co5 1_555 1_555
O2A Co2 1_555 1_555
H1A O2A 1_555 1_555
H2A O2A 1_555 1_555
O3A Co2 1_555 1_555
O6A Co2 1_555 1_555
Co2A O2 1_555 1_555
Co3_2 N6 1_555 1_555
Co5A N7 1_555 1_555
N4 Co1 1_555 1_555
N5 Co2 1_555 1_555
O1 Co1 1_555 1_555
O2 Co1 1_555 1_555
O3 Co2A 1_555 1_555
O4 Co3 1_555 1_555
O4 Co4 1_555 1_555
O5 Co1 1_555 1_555
O6 Co2A 1_555 1_555
O7 Co1 1_555 1_555
O9 Co2 1_555 1_555
O11 Co3 1_555 1_555
O12 Co4 1_555 1_555
O13 Co3 1_555 1_555
O13 Co5 1_555 1_555
O14 Co4 1_555 1_555
O15 Co3 1_555 1_555
O16 Co5 1_555 1_555
O17 Co5 1_555 1_555
O18 Co4 1_555 1_555
O19 Co4 1_555 1_555
C51 C52 1_555 1_555
C55 C56 1_555 1_555
C59 C60 1_555 1_555
C63 C64 1_555 1_555
C67 C68 1_555 1_555

#END
