
#######################################################################
#
#                 Cambridge Crystallographic Data Centre
#                                CCDC 
#
#######################################################################
#
# If this CIF has been generated from an entry in the Cambridge 
# Structural Database, then it will include bibliographic, chemical, 
# crystal, experimental, refinement or atomic coordinate data resulting 
# from the CCDC's data processing and validation procedures.
#
#######################################################################

data_BIPLIX
_chemical_formula_moiety         '(C84 H94 Co2 N12 O50 Zn6)n'
_symmetry_cell_setting           triclinic
_symmetry_space_group_name_H-M   'P -1'
_symmetry_Int_Tables_number      2
_space_group_name_Hall           '-P 1'
loop_
_symmetry_equiv_pos_site_id
_symmetry_equiv_pos_as_xyz
1 x,y,z
2 -x,-y,-z
_cell_length_a                   16.082(5)
_cell_length_b                   17.074(5)
_cell_length_c                   27.878(5)
_cell_angle_alpha                92.586(5)
_cell_angle_beta                 105.969(5)
_cell_angle_gamma                117.000(5)
_cell_volume                     6426.87
loop_
_atom_site_label
_atom_site_type_symbol
_atom_site_fract_x
_atom_site_fract_y
_atom_site_fract_z
C1 C 0.3370(6) -0.5766(6) 0.7964(4)
C2 C 0.3116(6) -0.5112(6) 0.8159(4)
C3 C 0.3067(8) -0.5064(7) 0.8653(4)
H1 H 0.3204 -0.5444 0.8862
C4 C 0.2818(8) -0.4464(7) 0.8835(4)
H2 H 0.2719 -0.4482 0.9155
C5 C 0.2711(6) -0.3842(6) 0.8567(4)
C6 C 0.2720(9) -0.3924(7) 0.8085(4)
H3 H 0.2584 -0.3540 0.7879
C7 C 0.2917(8) -0.4540(8) 0.7880(4)
H4 H 0.2916 -0.4571 0.7538
C8 C 0.3282(7) -0.2420(7) 0.9040(4)
C9 C 0.2970(6) -0.1852(5) 0.9257(3)
C10 C 0.3576(7) -0.1019(7) 0.9574(4)
H5 H 0.4273 -0.0752 0.9656
C11 C 0.3167(8) -0.0564(7) 0.9774(5)
H6 H 0.3577 0.0019 0.9981
C12 C 0.2143(8) -0.0991(6) 0.9661(4)
H7 H 0.1834 -0.0707 0.9786
C13 C 0.1578(6) -0.1866(6) 0.9353(4)
C14 C 0.0493(7) -0.2425(6) 0.9195(4)
C15 C -0.0845(6) -0.3835(6) 0.8698(3)
C16 C -0.1449(6) -0.3704(6) 0.8291(3)
H8 H -0.1176 -0.3187 0.8150
C17 C -0.2429(6) -0.4303(5) 0.8089(3)
H9 H -0.2839 -0.4190 0.7816
C18 C -0.2836(6) -0.5079(6) 0.8277(3)
C19 C -0.2245(7) -0.5189(6) 0.8684(4)
H10 H -0.2527 -0.5701 0.8828
C20 C -0.1230(6) -0.4581(6) 0.8904(4)
H11 H -0.0825 -0.4683 0.9185
C21 C -0.3897(6) -0.5775(6) 0.8043(3)
C22 C 0.3284(7) -0.2375(6) 1.1404(3)
C23 C 0.2753(6) -0.2764(6) 1.0871(3)
C24 C 0.1721(6) -0.3212(6) 1.0674(3)
H12 H 0.1349 -0.3232 1.0890
C25 C 0.1239(6) -0.3627(6) 1.0167(3)
H13 H 0.0539 -0.3889 1.0032
C26 C 0.1755(6) -0.3667(6) 0.9857(3)
C27 C 0.2785(6) -0.3238(6) 1.0046(3)
H14 H 0.3159 -0.3233 0.9834
C28 C 0.3243(6) -0.2819(6) 1.0557(3)
H15 H 0.3943 -0.2555 1.0694
C29 C 0.0812(6) -0.4951(6) 0.9193(3)
C30 C 0.0306(6) -0.5234(5) 0.8616(3)
C31 C -0.0260(7) -0.6105(6) 0.8338(4)
H16 H -0.0370 -0.6608 0.8497
C32 C -0.0650(7) -0.6201(6) 0.7825(4)
H17 H -0.1075 -0.6791 0.7627
C33 C -0.0462(7) -0.5492(6) 0.7580(4)
H18 H -0.0721 -0.5578 0.7220
C34 C 0.0133(6) -0.4636(5) 0.7889(3)
C35 C 0.0465(6) -0.3764(5) 0.7726(3)
C36 C 0.1432(5) -0.2165(5) 0.8052(3)
C37 C 0.0992(6) -0.1656(5) 0.8099(4)
H19 H 0.0362 -0.1915 0.8143
C38 C 0.1479(7) -0.0767(6) 0.8081(4)
H20 H 0.1178 -0.0409 0.8112
C39 C 0.2377(5) -0.0381(5) 0.8020(3)
C40 C 0.2805(6) -0.0897(6) 0.7953(4)
H21 H 0.3420 -0.0636 0.7892
C41 C 0.2335(6) -0.1803(6) 0.7974(4)
H22 H 0.2628 -0.2165 0.7935
C42 C 0.2893(7) 0.0601(6) 0.8009(4)
C43 C 0.4203(6) 0.3267(6) 0.6457(3)
C44 C 0.4133(6) 0.3263(6) 0.5904(3)
C45 C 0.4143(6) 0.2580(6) 0.5631(4)
H23 H 0.4194 0.2117 0.5791
C46 C 0.4082(7) 0.2558(6) 0.5129(3)
H24 H 0.4053 0.2064 0.4939
C47 C 0.4061(6) 0.3265(5) 0.4895(3)
C48 C 0.4073(6) 0.3959(6) 0.5178(3)
H25 H 0.4059 0.4443 0.5028
C49 C 0.4108(6) 0.3954(6) 0.5685(3)
H26 H 0.4113 0.4432 0.5876
C50 C 0.4673(6) 0.3607(6) 0.4199(3)
C51 C 0.4307(5) 0.3455(5) 0.3632(3)
C52 C 0.4863(7) 0.3754(7) 0.3311(4)
H27 H 0.5557 0.4144 0.3448
C53 C 0.4398(8) 0.3481(8) 0.2795(4)
H28 H 0.4776 0.3661 0.2572
C54 C 0.3398(7) 0.2953(7) 0.2599(4)
H29 H 0.3078 0.2786 0.2241
C55 C 0.2846(6) 0.2660(6) 0.2920(3)
C56 C 0.1779(6) 0.2101(6) 0.2811(4)
C57 C 0.0495(6) 0.1484(6) 0.3194(3)
C58 C 0.0101(7) 0.0569(7) 0.3177(4)
H30 H 0.0473 0.0279 0.3148
C59 C -0.0841(7) 0.0087(7) 0.3201(4)
H31 H -0.1116 -0.0541 0.3187
C60 C -0.1386(6) 0.0490(6) 0.3246(3)
C61 C -0.2434(8) -0.0044(8) 0.3240(4)
C62 C -0.0995(7) 0.1406(7) 0.3251(4)
H32 H -0.1384 0.1684 0.3269
C63 C -0.0068(7) 0.1912(6) 0.3230(4)
H33 H 0.0196 0.2538 0.3240
C64 C 0.4024(8) -0.0438(7) 0.2864(4)
C65 C 0.3676(7) 0.0135(7) 0.3079(4)
C66 C 0.2678(8) -0.0174(8) 0.2968(5)
H34 H 0.2225 -0.0715 0.2726
C67 C 0.2318(8) 0.0261(9) 0.3191(5)
H35 H 0.1628 0.0064 0.3079
C68 C 0.2977(6) 0.1018(6) 0.3597(4)
C69 C 0.3976(7) 0.1342(6) 0.3701(4)
H36 H 0.4431 0.1872 0.3951
C70 C 0.4335(7) 0.0910(7) 0.3449(5)
H37 H 0.5028 0.1143 0.3529
C71 C 0.2169(7) 0.0914(6) 0.4180(4)
C72 C 0.1712(7) 0.1334(7) 0.4434(4)
C73 C 0.1195(9) 0.0998(7) 0.4750(5)
H38 H 0.1059 0.0426 0.4830
C74 C 0.0875(10) 0.1508(8) 0.4951(5)
H39 H 0.0536 0.1297 0.5188
C75 C 0.1026(8) 0.2312(7) 0.4822(4)
H40 H 0.0797 0.2663 0.4961
C76 C 0.1532(6) 0.2593(6) 0.4478(3)
C77 C 0.1786(6) 0.3451(5) 0.4288(4)
C78 C 0.2575(6) 0.4337(5) 0.3769(3)
C79 C 0.3222(6) 0.5191(6) 0.4103(4)
H41 H 0.3532 0.5231 0.4453
C80 C 0.3386(6) 0.5953(6) 0.3908(3)
H42 H 0.3763 0.6520 0.4134
C81 C 0.3026(6) 0.5922(5) 0.3402(3)
C82 C 0.2449(7) 0.5092(6) 0.3065(3)
H43 H 0.2202 0.5064 0.2710
C83 C 0.2239(6) 0.4307(6) 0.3255(3)
H44 H 0.1859 0.3743 0.3026
C84 C 0.3252(7) 0.6767(7) 0.3202(4)
N1 N 0.2517(5) -0.3217(5) 0.8784(3)
N2 N 0.2015(5) -0.2248(4) 0.9176(3)
N3 N 0.0177(4) -0.3215(4) 0.8909(3)
N4 N 0.0984(5) -0.3084(4) 0.8116(3)
N5 N 0.0469(4) -0.4547(4) 0.8385(3)
N6 N 0.1251(5) -0.4077(4) 0.9320(3)
N7 N 0.3904(5) 0.3202(4) 0.4376(2)
N8 N 0.3330(5) 0.2942(4) 0.3433(3)
N9 N 0.1510(5) 0.2011(5) 0.3220(3)
N10 N 0.2293(4) 0.3538(4) 0.3971(2)
N11 N 0.1851(5) 0.2100(5) 0.4298(3)
N12 N 0.2606(5) 0.1409(5) 0.3882(3)
O1 O 0.4161(5) -0.2175(5) 0.9086(3)
O2 O -0.0069(5) -0.2177(5) 0.9307(3)
O3 O 0.1578(6) 0.2137(7) 0.7512(4)
O4 O 0.0269(5) -0.3710(4) 0.7265(2)
O5 O 0.2346(7) 0.2325(5) 0.8671(3)
O6 O 0.0754(5) -0.5529(4) 0.9461(2)
O7 O 0.5457(5) 0.9018(5) 0.3760(3)
O8 O 0.3477(5) -0.5735(4) 0.7531(3)
O9 O 0.3512(5) -0.6276(4) 0.8238(3)
O10 O -0.4466(4) -0.5525(4) 0.7762(3)
O11 O -0.4143(4) -0.6536(4) 0.8138(3)
O12 O 0.4210(4) -0.1898(4) 1.1564(2)
O13 O 0.2781(4) -0.2556(4) 1.1711(2)
O14 O 0.3760(4) 0.0926(4) 0.7962(2)
O15 O 0.2461(4) 0.1031(4) 0.8055(3)
O16 O 0.3615(4) 0.2449(4) 0.7550(2)
O17 O 0.4370(4) 0.2607(4) 0.8642(2)
O18 O 0.1200(5) 0.1753(5) 0.2351(3)
O19 O 0.5543(4) 0.4004(4) 0.4459(2)
O20 O 0.2110(6) 0.0179(5) 0.4271(4)
O21 O 0.1497(5) 0.3979(4) 0.4412(3)
O22 O 0.3893(5) 0.3720(5) 0.6642(2)
O23 O 0.4564(6) 0.2859(5) 0.6696(3)
O24 O -0.2935(5) 0.0328(5) 0.3233(3)
O25 O -0.2767(5) -0.0865(6) 0.3246(3)
O26 O 0.2996(4) 0.6682(4) 0.2723(2)
O27 O 0.3685(5) 0.7488(5) 0.3502(3)
O28 O 0.4949(5) -0.0070(4) 0.2926(3)
O29 O 0.3375(5) -0.1237(5) 0.2658(3)
O30 O 0.4970(4) 0.8134(3) 0.2674(2)
Co1 Co 0.12351(8) -0.33952(7) 0.87833(4)
Co2 Co 0.25804(7) 0.25439(7) 0.38569(4)
Zn1 Zn 0.41551(7) 0.36207(6) 0.73604(4)
Zn2 Zn 0.47203(6) 0.21738(6) 0.79810(4)
Zn3 Zn 0.28991(7) 0.23499(7) 0.80717(4)
Zn4 Zn 0.35300(6) 0.77531(6) 0.24348(4)
Zn5 Zn 0.57437(7) 0.93078(7) 0.31092(4)
O8_2 O 0.3477(5) 0.4265(4) 0.7531(3)
O9_2 O 0.3512(5) 0.3724(4) 0.8238(3)
O10_2 O 0.5534(4) 0.4475(4) 0.7762(3)
O11_2 O 0.5857(4) 0.3464(4) 0.8138(3)
O12A O 0.5790(4) 0.1898(4) 0.8436(2)
O13_2 O 0.2781(4) 0.7444(4) 0.1711(2)
O24_2 O 0.7065(5) 1.0328(5) 0.3233(3)
O25_2 O 0.7233(5) 0.9135(6) 0.3246(3)
O28_2 O 0.4949(5) 0.9930(4) 0.2926(3)
O29_2 O 0.3375(5) 0.8763(5) 0.2658(3)
O30A O 0.5030(4) 0.1866(3) 0.7326(2)
Zn1_2 Zn -0.58449(7) -0.63793(6) 0.73604(4)
Zn1_3 Zn 0.41551(7) -0.63793(6) 0.73604(4)
Zn2_2 Zn -0.52797(6) -0.78262(6) 0.79810(4)
Zn2A Zn 0.52797(6) -0.21738(6) 1.20190(4)
Zn2A_2 Zn 0.52797(6) 0.78262(6) 0.20190(4)
Zn3_2 Zn 0.28991(7) -0.76501(7) 0.80717(4)
Zn4_2 Zn 0.35300(6) -0.22469(6) 0.24348(4)
Zn4_3 Zn 0.35300(6) -0.22469(6) 1.24348(4)
Zn5_2 Zn -0.42563(7) -0.06922(7) 0.31092(4)
Zn5_3 Zn 0.57437(7) -0.06922(7) 0.31092(4)
O31 O 0.1835(12) -0.4127(11) 0.5883(7)
O32 O -0.0111(12) -0.5419(11) 0.5467(7)
O33 O -0.0556(12) -0.4725(11) 0.6310(7)
O34 O 0.0975(12) -0.5368(11) 0.6524(7)
O35 O 0.1573(9) -0.3413(10) 0.6750(5)
O36 O 0.0410(9) -0.3518(9) 0.5660(6)
Zn6 Zn 0.0716(2) -0.4424(2) 0.60934(11)
O37 O 0.3950(7) 0.1412(6) 0.9253(4)
O38 O 0.5063(7) -0.0559(6) 1.0992(4)
O39 O 0.5520(8) 0.4320(7) 0.9219(5)
O40 O 0.5809(9) 0.5839(10) 0.8601(6)
O41 O 0.1863(11) 0.0838(9) 0.9137(6)
O42 O 0.0000 -0.0000 1.0000
O43 O -0.2082(8) -0.3046(8) 0.9293(5)
O44 O 0.2525(8) -0.5464(8) 1.0122(5)
O45 O 0.3572(8) -0.0388(7) 0.4487(4)
O46 O 0.7673(11) 0.5808(13) 0.3658(7)
O47 O 0.5547(10) 1.0273(8) 0.4440(4)
O48 O 0.2994(12) 0.7843(11) 0.4234(7)
O49 O 0.7505(7) 0.5072(8) 0.4549(5)
O50 O 0.3295(12) -0.1918(11) 0.6878(7)
loop_
_geom_bond_atom_site_label_1
_geom_bond_atom_site_label_2
_geom_bond_site_symmetry_1
_geom_bond_site_symmetry_2
C1 C2 1_555 1_555
C2 C3 1_555 1_555
C3 H1 1_555 1_555
C4 C3 1_555 1_555
H2 C4 1_555 1_555
C5 C4 1_555 1_555
C6 C5 1_555 1_555
H3 C6 1_555 1_555
C7 C2 1_555 1_555
H4 C7 1_555 1_555
C8 C9 1_555 1_555
C9 C10 1_555 1_555
C10 H5 1_555 1_555
C11 C10 1_555 1_555
H6 C11 1_555 1_555
C12 C11 1_555 1_555
H7 C12 1_555 1_555
C13 C12 1_555 1_555
C14 C13 1_555 1_555
C15 C16 1_555 1_555
C16 H8 1_555 1_555
C17 C16 1_555 1_555
H9 C17 1_555 1_555
C18 C17 1_555 1_555
C19 C18 1_555 1_555
H10 C19 1_555 1_555
C20 C15 1_555 1_555
H11 C20 1_555 1_555
C21 C18 1_555 1_555
C22 C23 1_555 1_555
C23 C24 1_555 1_555
C24 H12 1_555 1_555
C25 C24 1_555 1_555
H13 C25 1_555 1_555
C26 C25 1_555 1_555
C27 C26 1_555 1_555
H14 C27 1_555 1_555
C28 C23 1_555 1_555
H15 C28 1_555 1_555
C29 C30 1_555 1_555
C30 C31 1_555 1_555
C31 H16 1_555 1_555
C32 C31 1_555 1_555
H17 C32 1_555 1_555
C33 C32 1_555 1_555
H18 C33 1_555 1_555
C34 C33 1_555 1_555
C35 C34 1_555 1_555
C36 C37 1_555 1_555
C37 H19 1_555 1_555
C38 C37 1_555 1_555
H20 C38 1_555 1_555
C39 C38 1_555 1_555
C40 C39 1_555 1_555
H21 C40 1_555 1_555
C41 C36 1_555 1_555
H22 C41 1_555 1_555
C42 C39 1_555 1_555
C43 C44 1_555 1_555
C44 C45 1_555 1_555
C45 H23 1_555 1_555
C46 C45 1_555 1_555
H24 C46 1_555 1_555
C47 C46 1_555 1_555
C48 C47 1_555 1_555
H25 C48 1_555 1_555
C49 C44 1_555 1_555
H26 C49 1_555 1_555
C50 C51 1_555 1_555
C51 C52 1_555 1_555
C52 H27 1_555 1_555
C53 C52 1_555 1_555
H28 C53 1_555 1_555
C54 C53 1_555 1_555
H29 C54 1_555 1_555
C55 C54 1_555 1_555
C56 C55 1_555 1_555
C57 C58 1_555 1_555
C58 H30 1_555 1_555
C59 C58 1_555 1_555
H31 C59 1_555 1_555
C60 C59 1_555 1_555
C61 C60 1_555 1_555
C62 C60 1_555 1_555
H32 C62 1_555 1_555
C63 C57 1_555 1_555
H33 C63 1_555 1_555
C64 C65 1_555 1_555
C65 C66 1_555 1_555
C66 H34 1_555 1_555
C67 C66 1_555 1_555
H35 C67 1_555 1_555
C68 C67 1_555 1_555
C69 C68 1_555 1_555
H36 C69 1_555 1_555
C70 C65 1_555 1_555
H37 C70 1_555 1_555
C71 C72 1_555 1_555
C72 C73 1_555 1_555
C73 H38 1_555 1_555
C74 C73 1_555 1_555
H39 C74 1_555 1_555
C75 C74 1_555 1_555
H40 C75 1_555 1_555
C76 C75 1_555 1_555
C77 C76 1_555 1_555
C78 C79 1_555 1_555
C79 H41 1_555 1_555
C80 C79 1_555 1_555
H42 C80 1_555 1_555
C81 C80 1_555 1_555
C82 C81 1_555 1_555
H43 C82 1_555 1_555
C83 C78 1_555 1_555
H44 C83 1_555 1_555
C84 C81 1_555 1_555
N1 C5 1_555 1_555
N2 C9 1_555 1_555
N3 C14 1_555 1_555
N4 C35 1_555 1_555
N5 C30 1_555 1_555
N6 C26 1_555 1_555
N7 C47 1_555 1_555
N8 C51 1_555 1_555
N9 C56 1_555 1_555
N10 C77 1_555 1_555
N11 C72 1_555 1_555
N12 C68 1_555 1_555
O1 C8 1_555 1_555
O2 C14 1_555 1_555
O3 Zn3 1_555 1_555
O4 C35 1_555 1_555
O5 Zn3 1_555 1_555
O6 C29 1_555 1_555
O7 Zn5 1_555 1_555
O8 C1 1_555 1_555
O9 C1 1_555 1_555
O10 C21 1_555 1_555
O11 C21 1_555 1_555
O12 C22 1_555 1_555
O13 C22 1_555 1_555
O14 C42 1_555 1_555
O15 C42 1_555 1_555
O16 Zn1 1_555 1_555
O17 Zn2 1_555 1_555
O18 C56 1_555 1_555
O19 C50 1_555 1_555
O20 C71 1_555 1_555
O21 C77 1_555 1_555
O22 C43 1_555 1_555
O23 C43 1_555 1_555
O24 C61 1_555 1_555
O25 C61 1_555 1_555
O26 C84 1_555 1_555
O27 C84 1_555 1_555
O28 C64 1_555 1_555
O29 C64 1_555 1_555
O30 Zn4 1_555 1_555
Co1 N1 1_555 1_555
Co2 N7 1_555 1_555
Zn1 O22 1_555 1_555
Zn2 O14 1_555 1_555
Zn3 O15 1_555 1_555
Zn4 O26 1_555 1_555
Zn5 O30 1_555 1_555
O31 Zn6 1_555 1_555
O32 Zn6 1_555 1_555
O33 Zn6 1_555 1_555
O34 Zn6 1_555 1_555
O35 Zn6 1_555 1_555
O36 Zn6 1_555 1_555
O8_2 Zn1 1_555 1_555
O9_2 Zn3 1_555 1_555
O10_2 Zn1 1_555 1_555
O11_2 Zn2 1_555 1_555
O12A Zn2 1_555 1_555
O13_2 Zn4 1_555 1_555
O24_2 Zn5 1_555 1_555
O25_2 Zn5 1_555 1_555
O28_2 Zn5 1_555 1_555
O29_2 Zn4 1_555 1_555
O30A Zn2 1_555 1_555
Zn1_2 O10 1_555 1_555
Zn1_3 O8 1_555 1_555
Zn2_2 O11 1_555 1_555
Zn2A O12 1_555 1_555
Zn2A_2 O30 1_555 1_555
Zn3_2 O9 1_555 1_555
Zn4_2 O29 1_555 1_555
Zn4_3 O13 1_555 1_555
Zn5_2 O24 1_555 1_555
Zn5_3 O28 1_555 1_555
C6 C7 1_555 1_555
C8 N1 1_555 1_555
C13 N2 1_555 1_555
C15 N3 1_555 1_555
C19 C20 1_555 1_555
C27 C28 1_555 1_555
C29 N6 1_555 1_555
C34 N5 1_555 1_555
C36 N4 1_555 1_555
C40 C41 1_555 1_555
C48 C49 1_555 1_555
C50 N7 1_555 1_555
C55 N8 1_555 1_555
C57 N9 1_555 1_555
C62 C63 1_555 1_555
C69 C70 1_555 1_555
C71 N12 1_555 1_555
C76 N11 1_555 1_555
C78 N10 1_555 1_555
C82 C83 1_555 1_555
N2 Co1 1_555 1_555
N3 Co1 1_555 1_555
N4 Co1 1_555 1_555
N5 Co1 1_555 1_555
N6 Co1 1_555 1_555
N8 Co2 1_555 1_555
N9 Co2 1_555 1_555
N10 Co2 1_555 1_555
N11 Co2 1_555 1_555
N12 Co2 1_555 1_555
O16 Zn2 1_555 1_555
O16 Zn3 1_555 1_555
O17 Zn3 1_555 1_555
O25 Zn5_2 1_555 1_555

#END
