
#######################################################################
#
#                 Cambridge Crystallographic Data Centre
#                                CCDC 
#
#######################################################################
#
# If this CIF has been generated from an entry in the Cambridge 
# Structural Database, then it will include bibliographic, chemical, 
# crystal, experimental, refinement or atomic coordinate data resulting 
# from the CCDC's data processing and validation procedures.
#
#######################################################################

data_WUJRUQ
_chemical_formula_moiety         '(C98 H72 Cd4 N10 O20 S10)n'
_symmetry_cell_setting           triclinic
_symmetry_space_group_name_H-M   'P -1'
_symmetry_Int_Tables_number      2
_space_group_name_Hall           '-P 1'
loop_
_symmetry_equiv_pos_site_id
_symmetry_equiv_pos_as_xyz
1 x,y,z
2 -x,-y,-z
_cell_length_a                   12.219(5)
_cell_length_b                   12.815(6)
_cell_length_c                   20.585(8)
_cell_angle_alpha                95.187(6)
_cell_angle_beta                 92.184(6)
_cell_angle_gamma                105.724(5)
_cell_volume                     3083.41
loop_
_atom_site_label
_atom_site_type_symbol
_atom_site_fract_x
_atom_site_fract_y
_atom_site_fract_z
S5 S 0.52649(15) 0.23738(15) 0.18911(9)
S6 S 0.41150(16) 0.10187(15) 0.21063(9)
N5 N 0.1260(8) 0.1986(8) 0.3128(5)
N6 N 0.4457(8) 0.3145(7) -0.0162(4)
C45 C 0.3069(5) 0.1494(5) 0.2507(4)
C46 C 0.2163(9) 0.0689(7) 0.2746(4)
H26 H 0.2160 -0.0040 0.2696
C47 C 0.2949(5) 0.2535(5) 0.2577(3)
H27 H 0.3464 0.3075 0.2384
C48 C 0.2161(8) 0.2799(7) 0.2896(4)
H28 H 0.2180 0.3529 0.2977
C49 C 0.3874(6) 0.1897(6) 0.0708(3)
H29 H 0.3369 0.1287 0.0846
C50 C 0.4789(5) 0.2591(4) 0.1106(3)
C51 C 0.5391(7) 0.3534(6) 0.0878(4)
H30 H 0.5951 0.4028 0.1156
C52 C 0.5199(12) 0.3784(9) 0.0242(5)
H31 H 0.5629 0.4440 0.0114
C53 C 0.3806(8) 0.2221(8) 0.0089(4)
H32 H 0.3245 0.1755 -0.0201
C54 C 0.1308(6) 0.0989(6) 0.3046(4)
H33 H 0.0729 0.0451 0.3198
Cd1 Cd 0.29108(3) 0.68231(3) 0.236293(17)
Cd2 Cd 0.77683(4) 1.54427(4) 0.28985(2)
S1 S 0.54351(15) 1.17446(13) 0.50112(8)
S2 S 0.37210(15) 1.11449(14) 0.48035(9)
S3 S -0.06677(12) 0.11714(12) 0.07024(7)
S4 S 0.06972(12) 0.20991(12) 0.02796(7)
O1 O 0.4614(4) 0.7925(4) 0.1916(2)
O2 O 0.2953(3) 0.7706(3) 0.13998(19)
O3 O 0.2590(4) 0.5736(4) 0.3329(2)
O4 O 0.4322(4) 0.6316(4) 0.2995(2)
O5 O 0.7619(3) 1.4235(3) 0.18712(19)
O6 O 0.8688(6) 1.5969(4) 0.1983(3)
O7 O 0.7947(5) 1.7294(4) 0.3248(3)
O8 O 0.8855(4) 1.6537(4) 0.3875(3)
N1 N 0.6890(4) 1.4184(4) 0.3568(2)
N2 N 0.3233(4) 0.8292(4) 0.3178(2)
N3 N 0.2252(5) 0.5189(4) 0.1704(2)
N4 N 0.0474(5) -0.1484(4) 0.1686(3)
O9 O 0.5962(4) 1.5412(3) 0.2450(2)
O10 O 0.1043(3) 0.6955(3) 0.23915(19)
C1 C 0.7099(5) 1.3266(5) 0.4515(3)
H1 H 0.7557 1.3142 0.4854
C2 C 0.5942(5) 1.2688(4) 0.4432(3)
C3 C 0.5233(5) 1.2886(4) 0.3933(3)
H2 H 0.4453 1.2552 0.3877
C4 C 0.5841(4) 1.3662(4) 0.3513(2)
H3 H 0.5414 1.3795 0.3162
C5 C 0.7532(6) 1.3985(5) 0.4111(3)
H4 H 0.8293 1.4382 0.4183
C6 C 0.3947(5) 0.8114(4) 0.1454(3)
C7 C 0.4514(5) 0.8921(4) 0.0962(2)
C8 C 0.5614(4) 0.9648(4) 0.1115(3)
H5 H 0.6023 0.9631 0.1502
C9 C 0.6051(5) 1.0357(4) 0.0694(3)
H6 H 0.6737 1.0873 0.0826
C10 C 0.5584(4) 1.0394(4) 0.0088(3)
C11 C 0.3947(5) 0.8888(4) 0.0373(3)
H7 H 0.3241 0.8384 0.0274
C12 C 0.2660(5) 0.5006(4) 0.1103(3)
H8 H 0.3246 0.5561 0.0972
C13 C 0.2265(5) 0.4049(5) 0.0672(3)
H9 H 0.2610 0.3938 0.0286
C14 C 0.1322(5) 0.3279(5) 0.0861(3)
C15 C 0.0874(6) 0.3451(5) 0.1475(3)
H10 H 0.0272 0.2919 0.1613
C16 C 0.1331(6) 0.4391(5) 0.1857(3)
H11 H 0.1000 0.4505 0.2247
C17 C 0.1185(7) -0.0832(6) 0.1304(3)
H12 H 0.1889 -0.0951 0.1228
C18 C 0.0879(5) 0.0028(5) 0.1018(3)
H13 H 0.1400 0.0496 0.0784
C19 C -0.0183(4) 0.0163(4) 0.1088(3)
C20 C -0.0871(6) -0.0479(6) 0.1447(4)
H14 H -0.1602 -0.0409 0.1497
C21 C 0.3655(7) 0.5862(5) 0.3357(4)
C22 C 0.4518(5) 0.9928(5) 0.3789(3)
H15 H 0.5241 1.0414 0.3858
C23 C 0.4260(4) 0.9037(4) 0.3302(2)
H16 H 0.4844 0.8952 0.3044
C24 C 0.3595(6) 1.0035(4) 0.4168(3)
C25 C 0.2581(5) 0.9309(5) 0.4095(3)
H17 H 0.1998 0.9361 0.4363
C26 C 0.8766(5) 1.4855(5) 0.0986(3)
C27 C 0.9780(4) 1.5662(4) 0.0797(3)
H18 H 1.0106 1.6292 0.1076
C28 C 1.0277(5) 1.5487(4) 0.0184(2)
C29 C 1.1224(4) 1.6312(4) -0.0008(3)
C30 C 0.8355(4) 1.3853(4) 0.0591(2)
C31 C 0.8324(6) 1.5018(5) 0.1649(3)
C32 C 0.4024(9) 0.5434(7) 0.4019(3)
C33 C 0.8641(6) 1.7343(5) 0.3738(3)
C34 C 0.9023(5) 1.8421(5) 0.4163(3)
C35 C 0.8736(6) 1.9352(5) 0.3955(3)
H19 H 0.8299 1.9286 0.3566
C36 C 0.9595(8) 1.8483(5) 0.4721(3)
H20 H 0.9661 1.7844 0.4880
C37 C -0.0515(8) -0.1269(7) 0.1755(5)
H21 H -0.1011 -0.1673 0.2030
C38 C 0.2426(5) 0.8422(5) 0.3572(3)
H22 H 0.1716 0.7913 0.3509
C39 C 0.5401(6) 0.5362(5) 0.4896(3)
C40 C 0.6479(9) 0.5849(9) 0.5122(5)
H23 H 0.6991 0.6408 0.4942
C41 C 0.9098(6) 2.0343(6) 0.4323(3)
C42 C 1.0137(6) 1.9534(5) 0.5105(4)
C43 C 0.3302(11) 0.4644(9) 0.4315(4)
H24 H 0.2564 0.4392 0.4123
C44 C 0.5309(13) 0.5939(11) 0.4231(5)
H25 H 0.5868 0.6433 0.4033
O1A O 0.5386(4) 1.2075(4) -0.1916(2)
O2A O 0.7047(3) 1.2294(3) -0.13998(19)
C6A C 0.6053(5) 1.1886(4) -0.1454(3)
C7A C 0.5486(5) 1.1079(4) -0.0962(2)
C8A C 0.4386(4) 1.0352(4) -0.1115(3)
H5A H 0.3977 1.0369 -0.1502
C9A C 0.3949(5) 0.9643(4) -0.0694(3)
H6A H 0.3263 0.9127 -0.0826
C10A C 0.4416(4) 0.9606(4) -0.0088(3)
C11A C 0.6053(5) 1.1112(4) -0.0373(3)
H7A H 0.6759 1.1616 -0.0274
O3A O 0.7410(4) 0.4264(4) 0.6671(2)
O4A O 0.5678(4) 0.3684(4) 0.7005(2)
C21A C 0.6345(7) 0.4138(5) 0.6643(4)
C32A C 0.5976(9) 0.4566(7) 0.5981(3)
C39A C 0.4599(6) 0.4638(5) 0.5104(3)
C40A C 0.3521(9) 0.4151(9) 0.4878(5)
H23A H 0.3009 0.3592 0.5058
C43A C 0.6698(11) 0.5356(9) 0.5685(4)
H24A H 0.7436 0.5608 0.5877
C44A C 0.4691(13) 0.4061(11) 0.5769(5)
H25A H 0.4132 0.3567 0.5967
O5A O 1.2381(3) 1.5765(3) -0.18712(19)
O6A O 1.1312(6) 1.4031(4) -0.1983(3)
C26A C 1.1234(5) 1.5145(5) -0.0986(3)
C27A C 1.0220(4) 1.4338(4) -0.0797(3)
H18A H 0.9894 1.3708 -0.1076
C28A C 0.9723(5) 1.4513(4) -0.0184(2)
C29A C 0.8776(4) 1.3688(4) 0.0008(3)
C30A C 1.1645(4) 1.6147(4) -0.0591(2)
C31A C 1.1676(6) 1.4982(5) -0.1649(3)
O7A O 1.2053(5) 2.2706(4) 0.6752(3)
O8A O 1.1145(4) 2.3463(4) 0.6125(3)
C33A C 1.1359(6) 2.2657(5) 0.6262(3)
C34A C 1.0977(5) 2.1579(5) 0.5837(3)
C35A C 1.1264(6) 2.0648(5) 0.6045(3)
H19A H 1.1701 2.0714 0.6434
C36A C 1.0405(8) 2.1517(5) 0.5279(3)
H20A H 1.0339 2.2156 0.5120
C41A C 1.0902(6) 1.9657(6) 0.5677(3)
C42A C 0.9863(6) 2.0466(5) 0.4895(4)
Cd1A Cd 0.70892(3) 0.31769(3) 0.763707(17)
Cd2A Cd 0.22317(4) -0.54427(4) 0.71015(2)
S1A S 0.45649(15) -0.17446(13) 0.49888(8)
S2A S 0.62790(15) -0.11449(14) 0.51965(9)
S3A S 1.06677(12) 0.88286(12) 0.92976(7)
S4A S 0.93028(12) 0.79009(12) 0.97204(7)
N1A N 0.3110(4) -0.4184(4) 0.6432(2)
N2A N 0.6767(4) 0.1708(4) 0.6822(2)
N3A N 0.7748(5) 0.4811(4) 0.8296(2)
N4A N 0.9526(5) 1.1484(4) 0.8314(3)
O9A O 0.4038(4) -0.5412(3) 0.7550(2)
O10A O 0.8957(3) 0.3045(3) 0.76085(19)
C1A C 0.2901(5) -0.3266(5) 0.5485(3)
H1A H 0.2443 -0.3142 0.5146
C2A C 0.4058(5) -0.2688(4) 0.5568(3)
C3A C 0.4767(5) -0.2886(4) 0.6067(3)
H2A H 0.5547 -0.2552 0.6123
C4A C 0.4159(4) -0.3662(4) 0.6487(2)
H3A H 0.4586 -0.3795 0.6838
C5A C 0.2468(6) -0.3985(5) 0.5889(3)
H4A H 0.1707 -0.4382 0.5817
C12A C 0.7340(5) 0.4994(4) 0.8897(3)
H8A H 0.6754 0.4439 0.9028
C13A C 0.7735(5) 0.5951(5) 0.9328(3)
H9A H 0.7390 0.6062 0.9714
C14A C 0.8678(5) 0.6721(5) 0.9139(3)
C15A C 0.9126(6) 0.6549(5) 0.8525(3)
H10A H 0.9728 0.7081 0.8387
C16A C 0.8669(6) 0.5609(5) 0.8143(3)
H11A H 0.9000 0.5495 0.7753
C17A C 0.8815(7) 1.0832(6) 0.8696(3)
H12A H 0.8111 1.0951 0.8772
C18A C 0.9121(5) 0.9972(5) 0.8982(3)
H13A H 0.8600 0.9504 0.9216
C19A C 1.0183(4) 0.9837(4) 0.8912(3)
C20A C 1.0871(6) 1.0479(6) 0.8553(4)
H14A H 1.1602 1.0409 0.8503
C22A C 0.5482(5) 0.0072(5) 0.6211(3)
H15A H 0.4759 -0.0414 0.6142
C23A C 0.5740(4) 0.0963(4) 0.6698(2)
H16A H 0.5156 0.1048 0.6956
C24A C 0.6405(6) -0.0035(4) 0.5832(3)
C25A C 0.7419(5) 0.0691(5) 0.5905(3)
H17A H 0.8002 0.0639 0.5637
C37A C 1.0515(8) 1.1269(7) 0.8245(5)
H21A H 1.1011 1.1673 0.7970
C38A C 0.7574(5) 0.1578(5) 0.6428(3)
H22A H 0.8284 0.2087 0.6491
Cd1A_2 Cd 0.70892(3) 1.31769(3) -0.236293(17)
Cd2A_2 Cd 1.22317(4) 1.45573(4) -0.28985(2)
Cd2A_3 Cd 1.22317(4) 2.45573(4) 0.71015(2)
O1A_2 O 0.5386(4) 0.2075(4) 0.8084(2)
O2A_2 O 0.7047(3) 0.2294(3) 0.86002(19)
O5A_2 O 0.2381(3) -0.4235(3) 0.81288(19)
O6A_2 O 0.1312(6) -0.5969(4) 0.8017(3)
O7A_2 O 0.2053(5) -0.7294(4) 0.6752(3)
O8A_2 O 0.1145(4) -0.6537(4) 0.6125(3)
loop_
_geom_bond_atom_site_label_1
_geom_bond_atom_site_label_2
_geom_bond_site_symmetry_1
_geom_bond_site_symmetry_2
Cd1 O1 1_555 1_555
Cd2 O5 1_555 1_555
S1 S2 1_555 1_555
S2 C24 1_555 1_555
S3 S4 1_555 1_555
S4 C14 1_555 1_555
O1 C6 1_555 1_555
O2 Cd1 1_555 1_555
O3 Cd1 1_555 1_555
O4 Cd1 1_555 1_555
O5 C31 1_555 1_555
O6 Cd2 1_555 1_555
O7 Cd2 1_555 1_555
O8 Cd2 1_555 1_555
N1 Cd2 1_555 1_555
N2 Cd1 1_555 1_555
N3 Cd1 1_555 1_555
N4 C17 1_555 1_555
O9 Cd2 1_555 1_555
O10 Cd1 1_555 1_555
C1 H1 1_555 1_555
C2 S1 1_555 1_555
C3 C2 1_555 1_555
H2 C3 1_555 1_555
C4 N1 1_555 1_555
H3 C4 1_555 1_555
C5 N1 1_555 1_555
H4 C5 1_555 1_555
C6 O2 1_555 1_555
C7 C6 1_555 1_555
C8 C7 1_555 1_555
H5 C8 1_555 1_555
C9 C8 1_555 1_555
H6 C9 1_555 1_555
C10 C9 1_555 1_555
C11 C7 1_555 1_555
H7 C11 1_555 1_555
C12 N3 1_555 1_555
H8 C12 1_555 1_555
C13 C12 1_555 1_555
H9 C13 1_555 1_555
C14 C13 1_555 1_555
C15 C14 1_555 1_555
H10 C15 1_555 1_555
C16 N3 1_555 1_555
H11 C16 1_555 1_555
C17 H12 1_555 1_555
C18 C17 1_555 1_555
H13 C18 1_555 1_555
C19 S3 1_555 1_555
C20 C19 1_555 1_555
H14 C20 1_555 1_555
C21 O3 1_555 1_555
C22 H15 1_555 1_555
C23 N2 1_555 1_555
H16 C23 1_555 1_555
C24 C22 1_555 1_555
C25 C24 1_555 1_555
H17 C25 1_555 1_555
C26 C27 1_555 1_555
C27 H18 1_555 1_555
C28 C27 1_555 1_555
C29 C28 1_555 1_555
C30 C26 1_555 1_555
C31 O6 1_555 1_555
C32 C21 1_555 1_555
C33 O7 1_555 1_555
C34 C33 1_555 1_555
C35 C34 1_555 1_555
H19 C35 1_555 1_555
C36 C34 1_555 1_555
H20 C36 1_555 1_555
C37 N4 1_555 1_555
H21 C37 1_555 1_555
C38 N2 1_555 1_555
H22 C38 1_555 1_555
C39 C40 1_555 1_555
C40 H23 1_555 1_555
C41 C35 1_555 1_555
C42 C36 1_555 1_555
C43 C32 1_555 1_555
H24 C43 1_555 1_555
C44 C32 1_555 1_555
H25 C44 1_555 1_555
S5 S6 1_555 1_555
S6 C45 1_555 1_555
N5 C48 1_555 1_555
N6 C52 1_555 1_555
C45 C46 1_555 1_555
C46 H26 1_555 1_555
C47 C45 1_555 1_555
H27 C47 1_555 1_555
C48 C47 1_555 1_555
H28 C48 1_555 1_555
C49 H29 1_555 1_555
C50 S5 1_555 1_555
C51 C50 1_555 1_555
H30 C51 1_555 1_555
C52 C51 1_555 1_555
H31 C52 1_555 1_555
C53 N6 1_555 1_555
H32 C53 1_555 1_555
C54 N5 1_555 1_555
H33 C54 1_555 1_555
O1A C6A 1_555 1_555
O2A C6A 1_555 1_555
C6A C7A 1_555 1_555
C7A C8A 1_555 1_555
C8A H5A 1_555 1_555
C9A C8A 1_555 1_555
H6A C9A 1_555 1_555
C10A C10 1_555 1_555
C11A C10 1_555 1_555
H7A C11A 1_555 1_555
O3A C21A 1_555 1_555
O4A C21A 1_555 1_555
C21A C32A 1_555 1_555
C32A C43A 1_555 1_555
C39A C39 1_555 1_555
C40A C43 1_555 1_555
H23A C40A 1_555 1_555
C43A C40 1_555 1_555
H24A C43A 1_555 1_555
C44A C32A 1_555 1_555
H25A C44A 1_555 1_555
O5A C31A 1_555 1_555
O6A C31A 1_555 1_555
C26A C27A 1_555 1_555
C27A H18A 1_555 1_555
C28A C28 1_555 1_555
C29A C30 1_555 1_555
C30A C29 1_555 1_555
C31A C26A 1_555 1_555
O7A C33A 1_555 1_555
O8A C33A 1_555 1_555
C33A C34A 1_555 1_555
C34A C35A 1_555 1_555
C35A H19A 1_555 1_555
C36A C34A 1_555 1_555
H20A C36A 1_555 1_555
C41A C42 1_555 1_555
C42A C41 1_555 1_555
Cd1A O3A 1_555 1_555
Cd2A N1A 1_555 1_555
S1A S2A 1_555 1_555
S2A C24A 1_555 1_555
S3A S4A 1_555 1_555
S4A C14A 1_555 1_555
N1A C4A 1_555 1_555
N2A Cd1A 1_555 1_555
N3A Cd1A 1_555 1_555
N4A C17A 1_555 1_555
O9A Cd2A 1_555 1_555
O10A Cd1A 1_555 1_555
C1A H1A 1_555 1_555
C2A S1A 1_555 1_555
C3A C2A 1_555 1_555
H2A C3A 1_555 1_555
C4A C3A 1_555 1_555
H3A C4A 1_555 1_555
C5A N1A 1_555 1_555
H4A C5A 1_555 1_555
C12A N3A 1_555 1_555
H8A C12A 1_555 1_555
C13A C12A 1_555 1_555
H9A C13A 1_555 1_555
C14A C13A 1_555 1_555
C15A C14A 1_555 1_555
H10A C15A 1_555 1_555
C16A N3A 1_555 1_555
H11A C16A 1_555 1_555
C17A H12A 1_555 1_555
C18A C17A 1_555 1_555
H13A C18A 1_555 1_555
C19A S3A 1_555 1_555
C20A C19A 1_555 1_555
H14A C20A 1_555 1_555
C22A H15A 1_555 1_555
C23A N2A 1_555 1_555
H16A C23A 1_555 1_555
C24A C22A 1_555 1_555
C25A C24A 1_555 1_555
H17A C25A 1_555 1_555
C37A N4A 1_555 1_555
H21A C37A 1_555 1_555
C38A N2A 1_555 1_555
H22A C38A 1_555 1_555
Cd1A_2 O1A 1_555 1_555
Cd2A_2 O5A 1_555 1_555
Cd2A_3 O7A 1_555 1_555
O1A_2 Cd1A 1_555 1_555
O2A_2 Cd1A 1_555 1_555
O5A_2 Cd2A 1_555 1_555
O6A_2 Cd2A 1_555 1_555
O7A_2 Cd2A 1_555 1_555
O8A_2 Cd2A 1_555 1_555
O4 C21 1_555 1_555
O8 C33 1_555 1_555
C1 C2 1_555 1_555
C1 C5 1_555 1_555
C3 C4 1_555 1_555
C11 C10A 1_555 1_555
C15 C16 1_555 1_555
C18 C19 1_555 1_555
C20 C37 1_555 1_555
C22 C23 1_555 1_555
C25 C38 1_555 1_555
C26 C31 1_555 1_555
C39 C44 1_555 1_555
C42 C42A 1_555 1_555
C46 C54 1_555 1_555
C49 C50 1_555 1_555
C49 C53 1_555 1_555
O2A Cd1A_2 1_555 1_555
C7A C11A 1_555 1_555
C9A C10A 1_555 1_555
O4A Cd1A 1_555 1_555
C39A C40A 1_555 1_555
C39A C44A 1_555 1_555
O6A Cd2A_2 1_555 1_555
C26A C30A 1_555 1_555
C27A C28A 1_555 1_555
C28A C29A 1_555 1_555
O8A Cd2A_3 1_555 1_555
C35A C41A 1_555 1_555
C36A C42A 1_555 1_555
C1A C2A 1_555 1_555
C1A C5A 1_555 1_555
C15A C16A 1_555 1_555
C18A C19A 1_555 1_555
C20A C37A 1_555 1_555
C22A C23A 1_555 1_555
C25A C38A 1_555 1_555

#END
