
#######################################################################
#
#                 Cambridge Crystallographic Data Centre
#                                CCDC 
#
#######################################################################
#
# If this CIF has been generated from an entry in the Cambridge 
# Structural Database, then it will include bibliographic, chemical, 
# crystal, experimental, refinement or atomic coordinate data resulting 
# from the CCDC's data processing and validation procedures.
#
#######################################################################

data_GABGOI
_chemical_formula_moiety         '(C63 H84 N16 O18 Zn3)n'
_symmetry_cell_setting           monoclinic
_symmetry_space_group_name_H-M   'P 21/c'
_symmetry_Int_Tables_number      14
_space_group_name_Hall           '-P 2ybc'
loop_
_symmetry_equiv_pos_site_id
_symmetry_equiv_pos_as_xyz
1 x,y,z
2 -x,1/2+y,1/2-z
3 -x,-y,-z
4 x,1/2-y,1/2+z
_cell_length_a                   24.4031(7)
_cell_length_b                   17.1178(4)
_cell_length_c                   16.0742(6)
_cell_angle_alpha                90
_cell_angle_beta                 94.521(3)
_cell_angle_gamma                90
_cell_volume                     6693.74
loop_
_atom_site_label
_atom_site_type_symbol
_atom_site_fract_x
_atom_site_fract_y
_atom_site_fract_z
N13 N 0.5000 0.5000 0.5000
O13 O 0.4308(6) 0.5028(11) 0.5742(10)
C46 C 0.4566(15) 0.537(3) 0.523(2)
H43 H 0.4458 0.5870 0.5011
C47 C 0.4997(11) 0.412(2) 0.4907(16)
H44 H 0.4697 0.3908 0.5184
H45 H 0.4958 0.3980 0.4327
H46 H 0.5338 0.3919 0.5158
C48 C 0.5446(13) 0.534(2) 0.456(2)
H47 H 0.5431 0.5902 0.4621
H48 H 0.5791 0.5154 0.4804
H49 H 0.5411 0.5216 0.3973
O13B O 0.5692(6) 0.4972(11) 0.4258(10)
C46B C 0.5434(15) 0.463(3) 0.477(2)
H43B H 0.5542 0.4130 0.4989
C47B C 0.5003(11) 0.588(2) 0.5093(16)
H44B H 0.5303 0.6092 0.4816
H45B H 0.5042 0.6020 0.5673
H46B H 0.4662 0.6081 0.4842
C48B C 0.4554(13) 0.466(2) 0.544(2)
H47B H 0.4569 0.4098 0.5379
H48B H 0.4209 0.4846 0.5196
H49B H 0.4589 0.4784 0.6027
N14 N 0.9126(13) 0.1522(16) 0.2848(19)
O14 O 0.8800(9) 0.0946(11) 0.3839(13)
C49 C 0.8713(17) 0.109(2) 0.307(3)
H50 H 0.8413 0.0918 0.2725
C50 C 0.9187(14) 0.182(2) 0.201(2)
H51 H 0.9143 0.1394 0.1617
H52 H 0.9546 0.2042 0.1987
H53 H 0.8912 0.2207 0.1873
C51 C 0.9581(15) 0.1751(19) 0.346(2)
H54 H 0.9440 0.1837 0.3993
H55 H 0.9746 0.2223 0.3277
H56 H 0.9851 0.1343 0.3506
N15 N 0.669(2) 0.029(3) 0.390(3)
O15 O 0.5890(11) 0.0291(15) 0.4399(17)
C52 C 0.627(3) 0.068(4) 0.416(3)
H57 H 0.6266 0.1221 0.4169
C53 C 0.717(2) 0.071(3) 0.359(3)
H58 H 0.7067 0.0920 0.3051
H59 H 0.7469 0.0349 0.3559
H60 H 0.7275 0.1120 0.3974
C54 C 0.674(2) -0.057(3) 0.386(3)
H61 H 0.6379 -0.0795 0.3902
H62 H 0.6981 -0.0747 0.4319
H63 H 0.6876 -0.0721 0.3345
N16 N 1.0000 0.5000 0.5000
O16 O 1.0491(18) 0.399(2) 0.468(2)
C55 C 1.007(3) 0.423(5) 0.496(4)
H64 H 0.9810 0.3857 0.5158
C56 C 1.038(2) 0.558(4) 0.474(3)
H65 H 1.0703 0.5380 0.4511
H66 H 1.0174 0.5890 0.4323
H67 H 1.0487 0.5907 0.5213
C57 C 0.948(3) 0.526(4) 0.534(3)
H68 H 0.9302 0.4783 0.5486
H69 H 0.9563 0.5564 0.5838
H70 H 0.9251 0.5547 0.4948
O16B O 0.9509(18) 0.601(2) 0.532(2)
C55B C 0.993(3) 0.577(5) 0.504(4)
H64B H 1.0190 0.6143 0.4842
C56B C 0.962(2) 0.442(4) 0.526(3)
H65B H 0.9297 0.4620 0.5489
H66B H 0.9826 0.4110 0.5677
H67B H 0.9513 0.4093 0.4787
C57B C 1.052(3) 0.474(4) 0.466(3)
H68B H 1.0698 0.5217 0.4514
H69B H 1.0437 0.4436 0.4162
H70B H 1.0749 0.4453 0.5052
Zn1 Zn 0.43142(2) 0.28480(4) 0.80330(4)
Zn2 Zn 0.07741(3) 0.30486(4) 0.20304(4)
Zn3 Zn -0.25876(3) 0.34069(4) 0.46968(4)
N1 N 0.4448(2) 0.3068(3) 0.9264(3)
N2 N 0.4833(3) 0.3542(3) 1.0418(3)
N3 N 0.6278(3) 0.3602(5) 1.2693(5)
N4 N 0.6881(3) 0.3202(4) 1.3724(5)
N5 N 0.3636(2) 0.3232(3) 0.7381(4)
N6 N 0.3068(2) 0.3801(4) 0.6445(4)
N7 N 0.2001(2) 0.3890(4) 0.3723(4)
N8 N 0.1440(2) 0.3357(3) 0.2763(4)
N9 N -0.2197(3) 0.2545(4) 0.5342(4)
N10 N -0.1541(4) 0.1772(5) 0.5825(5)
N11 N -0.0773(4) -0.0746(5) 0.5180(5)
N12 N -0.0827(3) -0.1564(3) 0.4142(4)
O1 O 0.43438(17) 0.1701(2) 0.7858(3)
O2 O 0.36151(16) 0.1639(2) 0.8599(3)
O3 O 0.53101(18) -0.0668(2) 0.7150(3)
O4 O 0.50317(17) -0.1826(2) 0.7538(3)
O5 O 0.3467(2) -0.1980(3) 0.9328(3)
O6 O 0.29743(17) -0.0925(2) 0.9539(3)
O7 O 0.00978(17) 0.3438(2) 0.2485(3)
O8 O 0.04426(19) 0.4613(3) 0.2348(3)
O9 O -0.1743(2) 0.3140(3) 0.3599(3)
O10 O -0.20413(18) 0.4143(2) 0.4302(3)
O11 O -0.14446(19) 0.6788(3) 0.3519(3)
O12 O -0.06536(18) 0.6918(3) 0.2934(3)
C1 C 0.4820(3) 0.3538(4) 0.9585(4)
H1 H 0.5049 0.3836 0.9277
C2 C 0.4197(4) 0.2761(5) 0.9925(5)
H2 H 0.3906 0.2408 0.9887
C3 C 0.4441(4) 0.3053(5) 1.0632(5)
H3 H 0.4353 0.2939 1.1172
C4 C 0.5207(4) 0.4024(5) 1.0974(5)
H4 H 0.4993 0.4376 1.1293
H5 H 0.5440 0.4336 1.0643
C5 C 0.5552(4) 0.3517(6) 1.1552(6)
H6 H 0.5308 0.3212 1.1873
H7 H 0.5744 0.3152 1.1216
C6 C 0.5915(5) 0.3846(8) 1.2075(7)
H8 H 0.5703 0.4238 1.2344
H9 H 0.6142 0.4137 1.1714
C7 C 0.6503(8) 0.3769(11) 1.3476(11)
H10 H 0.6414 0.4198 1.3793
C8 C 0.7046(6) 0.2879(9) 1.2967(9)
H11 H 0.7366 0.2598 1.2902
C9 C 0.6633(7) 0.3064(10) 1.2335(10)
H12 H 0.6600 0.2872 1.1792
C10 C 0.3110(3) 0.3026(5) 0.7508(6)
H13 H 0.3011 0.2692 0.7926
C11 C 0.3588(3) 0.3708(4) 0.6753(4)
H14 H 0.3884 0.3959 0.6538
C12 C 0.2756(3) 0.3375(6) 0.6942(6)
H15 H 0.2374 0.3333 0.6900
C13 C 0.2851(3) 0.4296(4) 0.5747(4)
H16 H 0.3153 0.4568 0.5516
H17 H 0.2606 0.4685 0.5952
C14 C 0.2544(3) 0.3818(4) 0.5069(5)
H18 H 0.2805 0.3521 0.4771
H19 H 0.2303 0.3451 0.5321
C15 C 0.2209(3) 0.4332(4) 0.4463(4)
H20 H 0.1901 0.4549 0.4735
H21 H 0.2434 0.4763 0.4295
C16 C 0.2308(3) 0.3624(6) 0.3132(6)
H22 H 0.2688 0.3670 0.3126
C17 C 0.1965(3) 0.3275(6) 0.2544(6)
H23 H 0.2070 0.3023 0.2070
C18 C 0.1488(3) 0.3744(4) 0.3453(5)
H24 H 0.1188 0.3906 0.3732
C19 C -0.1743(4) 0.2199(4) 0.5196(5)
H25 H -0.1577 0.2249 0.4698
C20 C -0.2242(5) 0.2391(7) 0.6152(7)
H26 H -0.2510 0.2596 0.6469
C21 C -0.1843(5) 0.1897(7) 0.6440(7)
H27 H -0.1793 0.1687 0.6974
C22 C -0.1033(5) 0.1304(6) 0.5866(7)
H28 H -0.0838 0.1359 0.6412
H29 H -0.0796 0.1487 0.5451
C23 C -0.1184(5) 0.0413(6) 0.5700(7)
H30 H -0.1373 0.0203 0.6160
H31 H -0.1424 0.0362 0.5192
C24 C -0.0662(5) -0.0011(6) 0.5619(7)
H32 H -0.0418 0.0307 0.5314
H33 H -0.0484 -0.0114 0.6169
C25 C -0.0847(6) -0.1450(7) 0.5508(7)
H34 H -0.0875 -0.1565 0.6069
C26 C -0.0874(5) -0.1963(6) 0.4866(6)
H35 H -0.0918 -0.2501 0.4911
C27 C -0.0761(4) -0.0852(5) 0.4363(5)
H36 H -0.0710 -0.0449 0.3990
C28 C 0.3987(2) 0.1331(3) 0.8230(4)
C29 C 0.4035(2) 0.0452(3) 0.8234(3)
C30 C 0.4449(2) 0.0085(3) 0.7858(4)
H37 H 0.4694 0.0384 0.7577
C31 C 0.4512(2) -0.0715(3) 0.7883(3)
C32 C 0.4989(2) -0.1079(3) 0.7493(3)
C33 C 0.4153(2) -0.1155(3) 0.8309(4)
H38 H 0.4192 -0.1695 0.8331
C34 C 0.3730(2) -0.0796(3) 0.8709(4)
C35 C 0.3369(3) -0.1286(4) 0.9223(4)
C36 C 0.3673(2) 0.0007(3) 0.8655(4)
H39 H 0.3387 0.0250 0.8905
C37 C 0.0076(2) 0.4168(4) 0.2542(4)
C38 C -0.0436(2) 0.4508(3) 0.2875(4)
C39 C -0.0838(2) 0.4036(3) 0.3150(4)
H40 H -0.0802 0.3496 0.3120
C40 C -0.1298(2) 0.4356(3) 0.3473(4)
C41 C -0.1723(2) 0.3829(4) 0.3801(4)
C42 C -0.1351(2) 0.5162(3) 0.3499(4)
H41 H -0.1656 0.5379 0.3724
C43 C -0.0963(2) 0.5650(3) 0.3199(4)
C44 C -0.0495(2) 0.5315(3) 0.2889(4)
H42 H -0.0225 0.5633 0.2693
C45 C -0.1034(2) 0.6518(3) 0.3225(4)
Zn1A Zn 0.56858(2) -0.21520(4) 0.69670(4)
Zn2A Zn -0.07741(3) -0.19514(4) 0.29696(4)
Zn2A_2 Zn -0.07741(3) 0.80486(4) 0.29696(4)
Zn3_2 Zn 0.74124(3) 0.34069(4) 1.46968(4)
Zn3A Zn 0.25876(3) -0.15931(4) 1.03032(4)
N4_2 N -0.3119(3) 0.3202(4) 0.3724(5)
N12A N 0.0827(3) 0.3436(3) 0.0858(4)
O4A O 0.49683(17) 0.3174(2) 0.7462(3)
O6A O -0.29743(17) 0.4075(2) 0.5461(3)
O12A O 0.06536(18) 0.1918(3) 0.2066(3)
loop_
_geom_bond_atom_site_label_1
_geom_bond_atom_site_label_2
_geom_bond_site_symmetry_1
_geom_bond_site_symmetry_2
Zn1 N1 1_555 1_555
Zn2 N8 1_555 1_555
Zn3 N9 1_555 1_555
N1 C1 1_555 1_555
N2 C1 1_555 1_555
N3 C6 1_555 1_555
N4 C7 1_555 1_555
N5 Zn1 1_555 1_555
N6 C11 1_555 1_555
N7 C15 1_555 1_555
N8 C17 1_555 1_555
N9 C19 1_555 1_555
N10 C19 1_555 1_555
N11 C24 1_555 1_555
N12 C26 1_555 1_555
O1 Zn1 1_555 1_555
O2 C28 1_555 1_555
O3 C32 1_555 1_555
O4 C32 1_555 1_555
O5 C35 1_555 1_555
O6 C35 1_555 1_555
O7 Zn2 1_555 1_555
O8 C37 1_555 1_555
O9 C41 1_555 1_555
O10 Zn3 1_555 1_555
O11 C45 1_555 1_555
O12 C45 1_555 1_555
C1 H1 1_555 1_555
C2 N1 1_555 1_555
H2 C2 1_555 1_555
C3 N2 1_555 1_555
H3 C3 1_555 1_555
C4 N2 1_555 1_555
H4 C4 1_555 1_555
H5 C4 1_555 1_555
C5 C4 1_555 1_555
H6 C5 1_555 1_555
H7 C5 1_555 1_555
C6 C5 1_555 1_555
H8 C6 1_555 1_555
H9 C6 1_555 1_555
C7 N3 1_555 1_555
H10 C7 1_555 1_555
C8 N4 1_555 1_555
H11 C8 1_555 1_555
C9 N3 1_555 1_555
H12 C9 1_555 1_555
C10 N5 1_555 1_555
H13 C10 1_555 1_555
C11 N5 1_555 1_555
H14 C11 1_555 1_555
C12 N6 1_555 1_555
H15 C12 1_555 1_555
C13 N6 1_555 1_555
H16 C13 1_555 1_555
H17 C13 1_555 1_555
C14 C13 1_555 1_555
H18 C14 1_555 1_555
H19 C14 1_555 1_555
C15 C14 1_555 1_555
H20 C15 1_555 1_555
H21 C15 1_555 1_555
C16 N7 1_555 1_555
H22 C16 1_555 1_555
C17 C16 1_555 1_555
H23 C17 1_555 1_555
C18 N7 1_555 1_555
H24 C18 1_555 1_555
C19 H25 1_555 1_555
C20 N9 1_555 1_555
H26 C20 1_555 1_555
C21 N10 1_555 1_555
H27 C21 1_555 1_555
C22 N10 1_555 1_555
H28 C22 1_555 1_555
H29 C22 1_555 1_555
C23 C22 1_555 1_555
H30 C23 1_555 1_555
H31 C23 1_555 1_555
C24 C23 1_555 1_555
H32 C24 1_555 1_555
H33 C24 1_555 1_555
C25 N11 1_555 1_555
H34 C25 1_555 1_555
C26 C25 1_555 1_555
H35 C26 1_555 1_555
C27 N11 1_555 1_555
H36 C27 1_555 1_555
C28 O1 1_555 1_555
C29 C28 1_555 1_555
C30 C29 1_555 1_555
H37 C30 1_555 1_555
C31 C30 1_555 1_555
C32 C31 1_555 1_555
C33 C31 1_555 1_555
H38 C33 1_555 1_555
C34 C33 1_555 1_555
C35 C34 1_555 1_555
C36 C29 1_555 1_555
H39 C36 1_555 1_555
C37 O7 1_555 1_555
C38 C37 1_555 1_555
C39 C38 1_555 1_555
H40 C39 1_555 1_555
C40 C39 1_555 1_555
C41 O10 1_555 1_555
C42 C40 1_555 1_555
H41 C42 1_555 1_555
C43 C42 1_555 1_555
C44 C38 1_555 1_555
H42 C44 1_555 1_555
C45 C43 1_555 1_555
N13 C46 1_555 1_555
O13 C46 1_555 1_555
C46 H43 1_555 1_555
H43 C47B 1_555 1_555
C47 N13 1_555 1_555
H44 C47 1_555 1_555
H45 C47 1_555 1_555
H46 C47 1_555 1_555
C48 N13 1_555 1_555
H47 C48 1_555 1_555
H48 C48 1_555 1_555
H49 C48 1_555 1_555
N14 C49 1_555 1_555
O14 C49 1_555 1_555
C49 H50 1_555 1_555
C50 N14 1_555 1_555
H51 C50 1_555 1_555
H52 C50 1_555 1_555
H53 C50 1_555 1_555
C51 N14 1_555 1_555
H54 C51 1_555 1_555
H55 C51 1_555 1_555
H56 C51 1_555 1_555
N15 C52 1_555 1_555
O15 C52 1_555 1_555
C52 H57 1_555 1_555
C53 N15 1_555 1_555
H58 C53 1_555 1_555
H59 C53 1_555 1_555
H60 C53 1_555 1_555
C54 N15 1_555 1_555
H61 C54 1_555 1_555
H62 C54 1_555 1_555
H63 C54 1_555 1_555
N16 C55 1_555 1_555
O16 C55 1_555 1_555
C55 H64 1_555 1_555
H64 C56B 1_555 1_555
C56 N16 1_555 1_555
H65 C56 1_555 1_555
H66 C56 1_555 1_555
H67 C56 1_555 1_555
C57 N16 1_555 1_555
H68 C57 1_555 1_555
H69 C57 1_555 1_555
H70 C57 1_555 1_555
Zn1A O4 1_555 1_555
Zn2A N12 1_555 1_555
Zn2A_2 O12 1_555 1_555
Zn3_2 N4 1_555 1_555
Zn3A O6 1_555 1_555
N4_2 Zn3 1_555 1_555
N12A Zn2 1_555 1_555
O4A Zn1 1_555 1_555
O6A Zn3 1_555 1_555
O12A Zn2 1_555 1_555
O13B C48 1_555 1_555
C46B N13 1_555 1_555
H43B C47 1_555 1_555
C47B N13 1_555 1_555
H44B C47B 1_555 1_555
H45B C47B 1_555 1_555
H46B C47B 1_555 1_555
C48B N13 1_555 1_555
H47B C47 1_555 1_555
H48B O13 1_555 1_555
H49B O13 1_555 1_555
O16B C57 1_555 1_555
C55B N16 1_555 1_555
H64B C56 1_555 1_555
C56B N16 1_555 1_555
H65B C57 1_555 1_555
H66B C55 1_555 1_555
H67B C56B 1_555 1_555
C57B N16 1_555 1_555
H68B C56 1_555 1_555
H69B O16 1_555 1_555
H70B O16 1_555 1_555
N8 C18 1_555 1_555
N12 C27 1_555 1_555
C2 C3 1_555 1_555
C8 C9 1_555 1_555
C10 C12 1_555 1_555
C20 C21 1_555 1_555
C34 C36 1_555 1_555
C40 C41 1_555 1_555
C43 C44 1_555 1_555
O13 C48B 1_555 1_555
C46 C47B 1_555 1_555
C46 C48B 1_555 1_555
C46 H48B 1_555 1_555
C47 C46B 1_555 1_555
C47 C48B 1_555 1_555
C48 C46B 1_555 1_555
C48 C47B 1_555 1_555
H47 C47B 1_555 1_555
H48 O13B 1_555 1_555
H48 C46B 1_555 1_555
H49 O13B 1_555 1_555
O16 C57B 1_555 1_555
C55 C56B 1_555 1_555
C55 C57B 1_555 1_555
C56 C55B 1_555 1_555
C56 C57B 1_555 1_555
H65 C57B 1_555 1_555
H66 C55B 1_555 1_555
C57 C55B 1_555 1_555
C57 C56B 1_555 1_555
H68 C56B 1_555 1_555
H69 O16B 1_555 1_555
H70 O16B 1_555 1_555
O13B C46B 1_555 1_555
C46B H43B 1_555 1_555
C48B H47B 1_555 1_555
C48B H48B 1_555 1_555
C48B H49B 1_555 1_555
O16B C55B 1_555 1_555
C55B H64B 1_555 1_555
C56B H65B 1_555 1_555
C56B H66B 1_555 1_555
C57B H68B 1_555 1_555
C57B H69B 1_555 1_555
C57B H70B 1_555 1_555

#END
