
#######################################################################
#
#                 Cambridge Crystallographic Data Centre
#                                CCDC 
#
#######################################################################
#
# If this CIF has been generated from an entry in the Cambridge 
# Structural Database, then it will include bibliographic, chemical, 
# crystal, experimental, refinement or atomic coordinate data resulting 
# from the CCDC's data processing and validation procedures.
#
#######################################################################

data_TEJGIA
_chemical_formula_moiety         '(C14 H22 N4 O19 Sm2)n'
_symmetry_cell_setting           monoclinic
_symmetry_space_group_name_H-M   'P 21/c'
_symmetry_Int_Tables_number      14
_space_group_name_Hall           '-P 2ybc'
loop_
_symmetry_equiv_pos_site_id
_symmetry_equiv_pos_as_xyz
1 x,y,z
2 -x,1/2+y,1/2-z
3 -x,-y,-z
4 x,1/2-y,1/2+z
_cell_length_a                   10.2815(2)
_cell_length_b                   11.2928(3)
_cell_length_c                   23.2652(5)
_cell_angle_alpha                90
_cell_angle_beta                 108.526(1)
_cell_angle_gamma                90
_cell_volume                     2561.27
loop_
_atom_site_label
_atom_site_type_symbol
_atom_site_fract_x
_atom_site_fract_y
_atom_site_fract_z
Sm1 Sm 0.61600(2) -0.313690(19) 0.225820(10)
Sm2 Sm 0.19613(3) -0.41173(2) -0.064290(10)
O1 O 1.1803(4) 0.0593(3) 0.25064(16)
O2 O 1.1548(4) 0.0112(3) 0.33939(15)
O3 O 0.9944(4) -0.1671(4) 0.36893(16)
O4 O 0.7946(4) -0.2439(3) 0.31806(15)
O5 O -0.0706(4) -0.4156(3) 0.05476(17)
O6 O 0.0597(4) -0.3627(4) -0.00070(15)
O7 O 0.3525(4) -0.3732(4) 0.03256(15)
O8 O 0.5179(3) -0.3234(3) 0.11608(14)
O9 O 0.4295(4) 0.0552(3) 0.19904(15)
O10 O 0.5279(4) -0.1134(3) 0.18410(15)
O11 O 0.4435(4) -0.0214(3) 0.31086(15)
O12 O 0.5227(4) -0.1962(3) 0.29163(15)
O13 O 0.2169(6) -0.1917(4) -0.0571(2)
O14 O 0.3884(5) -0.3541(4) -0.0980(2)
O15 O 0.3598(4) -0.5794(3) -0.03391(18)
N1 N 0.9669(5) -0.0715(4) 0.18545(19)
H1 H 1.0067 -0.0327 0.1639
N2 N 0.8184(5) -0.1876(4) 0.20888(18)
N3 N 0.1257(4) -0.3707(4) 0.16039(19)
H2 H 0.0454 -0.3809 0.1636
N4 N 0.3499(4) -0.3404(4) 0.18651(17)
C1 C 0.8542(6) -0.1388(5) 0.1637(2)
C2 C 1.0088(5) -0.0748(4) 0.2487(2)
C3 C 0.9154(5) -0.1487(4) 0.2619(2)
C4 C 0.7809(7) -0.1526(6) 0.0973(3)
H3 H 0.8278 -0.1080 0.0748
H4 H 0.6886 -0.1239 0.0881
H5 H 0.7792 -0.2347 0.0864
C5 C 1.1247(5) 0.0027(4) 0.2831(2)
C6 C 0.9014(5) -0.1889(4) 0.3204(2)
C7 C 0.2432(5) -0.3520(5) 0.2072(2)
C8 C 0.1570(5) -0.3707(5) 0.1067(2)
C9 C 0.2966(5) -0.3519(4) 0.1239(2)
C10 C 0.2452(6) -0.3458(6) 0.2712(2)
H6 H 0.1540 -0.3576 0.2729
H7 H 0.2782 -0.2696 0.2877
H8 H 0.3045 -0.4064 0.2943
C11 C 0.0421(5) -0.3855(4) 0.0492(2)
C12 C 0.3939(5) -0.3487(4) 0.0882(2)
C13 C 0.4795(5) -0.0459(4) 0.2145(2)
C14 C 0.4823(5) -0.0917(4) 0.2782(2)
Sm1A Sm 1.38400(2) 0.186310(19) 0.274180(10)
Sm1A_2 Sm 0.38400(2) 0.186310(19) 0.274180(10)
Sm2C Sm 1.19613(3) -0.08827(2) 0.435710(10)
Sm2B Sm -0.19613(3) -0.58827(2) 0.064290(10)
O1A O 0.8197(4) -0.4407(3) 0.24936(16)
O2C O 0.1548(4) -0.5112(3) -0.16061(15)
O3C O -0.0056(4) -0.3329(4) -0.13107(16)
O5B O 0.0706(4) -0.5844(3) -0.05476(17)
O9A O 0.5705(4) -0.4448(3) 0.30096(15)
O11A O 0.5565(4) -0.5214(3) 0.18914(15)
O16 O 0.4140(16) -0.0807(11) 0.0433(6)
O18 O 0.0455(11) -0.9336(8) 0.0984(4)
O19 O 0.2544(11) -0.6741(9) 0.0671(4)
O20 O 0.4498(6) -0.8495(5) 0.0857(2)
loop_
_geom_bond_atom_site_label_1
_geom_bond_atom_site_label_2
_geom_bond_site_symmetry_1
_geom_bond_site_symmetry_2
Sm1 O4 1_555 1_555
Sm2 O6 1_555 1_555
O1 C5 1_555 1_555
O2 C5 1_555 1_555
O3 C6 1_555 1_555
O4 C6 1_555 1_555
O5 C11 1_555 1_555
O6 C11 1_555 1_555
O7 Sm2 1_555 1_555
O8 Sm1 1_555 1_555
O9 C13 1_555 1_555
O10 Sm1 1_555 1_555
O11 C14 1_555 1_555
O12 Sm1 1_555 1_555
O13 Sm2 1_555 1_555
O14 Sm2 1_555 1_555
O15 Sm2 1_555 1_555
N1 H1 1_555 1_555
N2 Sm1 1_555 1_555
N3 H2 1_555 1_555
N4 Sm1 1_555 1_555
C1 N1 1_555 1_555
C2 N1 1_555 1_555
C3 N2 1_555 1_555
C4 C1 1_555 1_555
H3 C4 1_555 1_555
H4 C4 1_555 1_555
H5 C4 1_555 1_555
C5 C2 1_555 1_555
C6 C3 1_555 1_555
C7 N3 1_555 1_555
C8 N3 1_555 1_555
C9 N4 1_555 1_555
C10 C7 1_555 1_555
H6 C10 1_555 1_555
H7 C10 1_555 1_555
H8 C10 1_555 1_555
C11 C8 1_555 1_555
C12 O7 1_555 1_555
C13 O10 1_555 1_555
C14 O12 1_555 1_555
Sm1A O1 1_555 1_555
Sm1A_2 O9 1_555 1_555
Sm2C O2 1_555 1_555
Sm2B O5 1_555 1_555
O1A Sm1 1_555 1_555
O2C Sm2 1_555 1_555
O3C Sm2 1_555 1_555
O5B Sm2 1_555 1_555
O9A Sm1 1_555 1_555
O11A Sm1 1_555 1_555
O3 Sm2C 1_555 1_555
O8 C12 1_555 1_555
O11 Sm1A_2 1_555 1_555
N2 C1 1_555 1_555
N4 C7 1_555 1_555
C2 C3 1_555 1_555
C8 C9 1_555 1_555
C9 C12 1_555 1_555
C13 C14 1_555 1_555

#END
