
#######################################################################
#
#                 Cambridge Crystallographic Data Centre
#                                CCDC 
#
#######################################################################
#
# If this CIF has been generated from an entry in the Cambridge 
# Structural Database, then it will include bibliographic, chemical, 
# crystal, experimental, refinement or atomic coordinate data resulting 
# from the CCDC's data processing and validation procedures.
#
#######################################################################

data_TEJGEW
_chemical_formula_moiety         '(C14 H22 Gd2 N4 O19)n'
_symmetry_cell_setting           monoclinic
_symmetry_space_group_name_H-M   'P 21/c'
_symmetry_Int_Tables_number      14
_space_group_name_Hall           '-P 2ybc'
loop_
_symmetry_equiv_pos_site_id
_symmetry_equiv_pos_as_xyz
1 x,y,z
2 -x,1/2+y,1/2-z
3 -x,-y,-z
4 x,1/2-y,1/2+z
_cell_length_a                   10.2288(3)
_cell_length_b                   11.2962(4)
_cell_length_c                   23.3343(8)
_cell_angle_alpha                90
_cell_angle_beta                 108.721(2)
_cell_angle_gamma                90
_cell_volume                     2553.55
loop_
_atom_site_label
_atom_site_type_symbol
_atom_site_fract_x
_atom_site_fract_y
_atom_site_fract_z
Gd1 Gd 0.613955(19) 0.314677(16) 0.225146(8)
Gd2 Gd 1.19417(2) 0.090860(19) 0.435800(9)
O1 O 0.7923(3) 0.2481(3) 0.31736(13)
O2 O 0.9910(4) 0.1655(3) 0.36925(15)
O3 O 1.1549(3) -0.0105(3) 0.34026(13)
O4 O 1.1823(3) -0.0591(3) 0.25183(14)
O5 O 0.5197(3) 0.3240(2) 0.11607(13)
O6 O 0.3514(3) 0.3670(3) 0.03164(14)
O7 O 0.0560(3) 0.3632(3) -0.00175(14)
O8 O -0.0749(3) 0.4160(3) 0.05407(15)
O9 O 0.4450(3) 0.0222(2) 0.31171(13)
O10 O 0.5219(3) 0.1980(2) 0.29126(13)
O11 O 0.4284(3) -0.0552(2) 0.20023(13)
O12 O 0.5239(4) 0.1154(3) 0.18369(14)
O13 O 1.2061(5) 0.3115(3) 0.4420(2)
O14 O 1.3814(4) 0.1502(4) 0.40003(18)
O15 O 1.3616(3) -0.0718(3) 0.46545(16)
N1 N 0.8154(4) 0.1879(3) 0.20884(16)
N2 N 0.9663(4) 0.0719(3) 0.18578(16)
H1 H 1.0073 0.0337 0.1646
N3 N 0.3489(4) 0.3405(3) 0.18554(16)
N4 N 0.1236(4) 0.3709(4) 0.15915(17)
H2 H 0.0428 0.3814 0.1621
C1 C 0.8511(5) 0.1389(4) 0.1633(2)
C2 C 0.9134(4) 0.1485(4) 0.26187(19)
C3 C 1.0076(4) 0.0751(4) 0.24872(19)
C4 C 0.7773(6) 0.1535(5) 0.0969(2)
H3 H 0.8245 0.1091 0.0744
H4 H 0.7760 0.2357 0.0863
H5 H 0.6844 0.1250 0.0874
C5 C 0.8993(5) 0.1896(4) 0.32033(19)
C6 C 1.1252(4) -0.0021(4) 0.28400(19)
C7 C 0.2419(4) 0.3524(4) 0.20607(19)
C8 C 0.2970(4) 0.3511(4) 0.12336(18)
C9 C 0.1558(4) 0.3700(4) 0.10580(19)
C10 C 0.2443(5) 0.3475(5) 0.2704(2)
H6 H 0.1526 0.3589 0.2720
H7 H 0.3037 0.4087 0.2932
H8 H 0.2783 0.2717 0.2873
C11 C 0.3943(4) 0.3466(4) 0.08759(18)
C12 C 0.0390(4) 0.3850(4) 0.04818(19)
C13 C 0.4821(4) 0.0928(4) 0.27836(19)
C14 C 0.4766(4) 0.0465(4) 0.21502(19)
Gd1A Gd 1.386045(19) -0.185323(16) 0.274854(8)
Gd1A_2 Gd 0.386045(19) -0.185323(16) 0.274854(8)
Gd2C Gd 0.19417(2) 0.409140(19) -0.064200(9)
Gd2A Gd -0.19417(2) 0.590860(19) 0.064200(9)
O4A O 0.8177(3) 0.4409(3) 0.24817(14)
O6C O 1.3514(3) 0.1330(3) 0.53164(14)
O7C O 1.0560(3) 0.1368(3) 0.49825(14)
O8A O 1.0749(3) -0.0840(3) 0.44593(15)
O9A O 0.5550(3) 0.5222(2) 0.18829(13)
O11A O 0.5716(3) 0.4448(2) 0.29977(13)
O16 O 0.4495(6) 0.8531(4) 0.0856(2)
O17 O 0.0672(6) 0.9413(5) 0.1025(2)
O18 O 0.2591(6) 0.6770(6) 0.0665(2)
O20 O 0.3160(13) 0.0679(9) 0.0582(4)
loop_
_geom_bond_atom_site_label_1
_geom_bond_atom_site_label_2
_geom_bond_site_symmetry_1
_geom_bond_site_symmetry_2
Gd1 O1 1_555 1_555
Gd2 O2 1_555 1_555
O1 C5 1_555 1_555
O2 C5 1_555 1_555
O3 Gd2 1_555 1_555
O4 C6 1_555 1_555
O5 Gd1 1_555 1_555
O6 C11 1_555 1_555
O7 C12 1_555 1_555
O8 C12 1_555 1_555
O9 C13 1_555 1_555
O10 Gd1 1_555 1_555
O11 C14 1_555 1_555
O12 Gd1 1_555 1_555
O13 Gd2 1_555 1_555
O14 Gd2 1_555 1_555
O15 Gd2 1_555 1_555
N1 Gd1 1_555 1_555
N2 H1 1_555 1_555
N3 Gd1 1_555 1_555
N4 H2 1_555 1_555
C1 N1 1_555 1_555
C2 N1 1_555 1_555
C3 N2 1_555 1_555
C4 C1 1_555 1_555
H3 C4 1_555 1_555
H4 C4 1_555 1_555
H5 C4 1_555 1_555
C5 C2 1_555 1_555
C6 O3 1_555 1_555
C7 N3 1_555 1_555
C8 N3 1_555 1_555
C9 N4 1_555 1_555
C10 C7 1_555 1_555
H6 C10 1_555 1_555
H7 C10 1_555 1_555
H8 C10 1_555 1_555
C11 O5 1_555 1_555
C12 C9 1_555 1_555
C13 O10 1_555 1_555
C14 O12 1_555 1_555
Gd1A O4 1_555 1_555
Gd1A_2 O9 1_555 1_555
Gd2C O6 1_555 1_555
Gd2A O8 1_555 1_555
O4A Gd1 1_555 1_555
O6C Gd2 1_555 1_555
O7C Gd2 1_555 1_555
O8A Gd2 1_555 1_555
O9A Gd1 1_555 1_555
O11A Gd1 1_555 1_555
O7 Gd2C 1_555 1_555
O11 Gd1A_2 1_555 1_555
N2 C1 1_555 1_555
N4 C7 1_555 1_555
C2 C3 1_555 1_555
C3 C6 1_555 1_555
C8 C9 1_555 1_555
C8 C11 1_555 1_555
C13 C14 1_555 1_555

#END
