
#######################################################################
#
#                 Cambridge Crystallographic Data Centre
#                                CCDC 
#
#######################################################################
#
# If this CIF has been generated from an entry in the Cambridge 
# Structural Database, then it will include bibliographic, chemical, 
# crystal, experimental, refinement or atomic coordinate data resulting 
# from the CCDC's data processing and validation procedures.
#
#######################################################################

data_TEJGAS
_chemical_formula_moiety         '(C14 H22 Eu2 N4 O19)n'
_symmetry_cell_setting           monoclinic
_symmetry_space_group_name_H-M   'P 21/c'
_symmetry_Int_Tables_number      14
_space_group_name_Hall           '-P 2ybc'
loop_
_symmetry_equiv_pos_site_id
_symmetry_equiv_pos_as_xyz
1 x,y,z
2 -x,1/2+y,1/2-z
3 -x,-y,-z
4 x,1/2-y,1/2+z
_cell_length_a                   10.2064(2)
_cell_length_b                   11.2487(2)
_cell_length_c                   23.2345(4)
_cell_angle_alpha                90
_cell_angle_beta                 108.636(1)
_cell_angle_gamma                90
_cell_volume                     2527.66
loop_
_atom_site_label
_atom_site_type_symbol
_atom_site_fract_x
_atom_site_fract_y
_atom_site_fract_z
Eu1 Eu 0.11424(2) 0.186380(18) -0.274920(9)
Eu2 Eu -0.30549(2) 0.08970(2) -0.564380(10)
O1 O 0.6812(4) 0.5599(3) -0.24860(16)
O2 O 0.6545(4) 0.5110(3) -0.16011(15)
O3 O 0.4909(4) 0.3356(4) -0.13103(17)
O4 O 0.2925(3) 0.2537(3) -0.18284(14)
O5 O -0.5746(4) 0.0855(3) -0.44573(17)
O6 O -0.4436(4) 0.1362(4) -0.50177(16)
O7 O -0.1488(3) 0.1320(4) -0.46857(15)
O8 O 0.0182(3) 0.1771(3) -0.38431(14)
O9 O -0.0248(4) -0.1139(3) -0.18353(15)
O10 O 0.0710(4) 0.0562(3) -0.19968(15)
O11 O -0.0215(4) -0.1963(3) -0.29122(15)
O12 O 0.0553(4) -0.0212(3) -0.31139(15)
O13 O -0.2934(5) 0.3104(4) -0.5588(2)
O14 O -0.1165(5) 0.1491(4) -0.6000(2)
O15 O -0.1380(4) -0.0740(3) -0.53394(18)
N1 N 0.4668(4) 0.4300(4) -0.31446(19)
N2 N 0.3159(4) 0.3136(3) -0.29132(18)
N3 N -0.3765(4) 0.1297(4) -0.34085(19)
H1 H -0.467(6) 0.095(5) -0.336(3)
N4 N -0.1522(4) 0.1603(4) -0.31454(17)
C1 C 0.3512(5) 0.3619(5) -0.3362(2)
C2 C 0.5073(5) 0.4264(4) -0.2514(2)
C3 C 0.4133(5) 0.3527(4) -0.2386(2)
C4 C 0.2780(7) 0.3478(6) -0.4029(2)
H2 H 0.3261 0.3921 -0.4253
H3 H 0.1852 0.3771 -0.4125
H4 H 0.2760 0.2653 -0.4137
C5 C 0.6247(4) 0.5030(4) -0.2163(2)
C6 C 0.3994(5) 0.3124(4) -0.1799(2)
C7 C -0.2583(5) 0.1488(4) -0.2941(2)
C8 C -0.3453(5) 0.1299(4) -0.3943(2)
C9 C -0.2042(5) 0.1494(4) -0.3770(2)
C10 C -0.2560(5) 0.1544(5) -0.2298(2)
H5 H -0.3480 0.1432 -0.2281
H6 H -0.2218 0.2306 -0.2130
H7 H -0.1968 0.0930 -0.2068
C11 C -0.4599(5) 0.1149(4) -0.4522(2)
C12 C -0.1075(4) 0.1542(4) -0.4132(2)
C13 C 0.0221(5) -0.0456(4) -0.2149(2)
C14 C 0.0180(4) -0.0917(4) -0.2781(2)
Eu1A Eu 0.88576(2) 0.686380(18) -0.225080(9)
Eu1A_2 Eu -0.11424(2) -0.313620(18) -0.225080(9)
Eu2C Eu 0.69451(2) 0.41030(2) -0.064380(10)
Eu2B Eu -0.69451(2) -0.08970(2) -0.435620(10)
O1A O 0.3188(4) 0.0599(3) -0.25140(16)
O2C O -0.3455(4) -0.0110(3) -0.66011(15)
O3C O -0.5091(4) 0.1644(4) -0.63103(17)
O5B O -0.4254(4) -0.0855(3) -0.55427(17)
O9A O 0.0248(4) 0.3861(3) -0.31647(15)
O11A O 0.0215(4) 0.3037(3) -0.20878(15)
O16 O 0.1905(17) 0.5660(13) -0.5580(7)
O17 O -0.2411(7) -0.1772(6) -0.4330(3)
O18 O 0.5671(7) 0.5610(5) -0.3979(2)
O19 O 0.0507(6) 0.3524(5) -0.5860(2)
loop_
_geom_bond_atom_site_label_1
_geom_bond_atom_site_label_2
_geom_bond_site_symmetry_1
_geom_bond_site_symmetry_2
Eu1 O4 1_555 1_555
Eu2 O6 1_555 1_555
O1 C5 1_555 1_555
O2 C5 1_555 1_555
O3 C6 1_555 1_555
O4 C6 1_555 1_555
O5 C11 1_555 1_555
O6 C11 1_555 1_555
O7 Eu2 1_555 1_555
O8 Eu1 1_555 1_555
O9 C13 1_555 1_555
O10 Eu1 1_555 1_555
O11 C14 1_555 1_555
O12 Eu1 1_555 1_555
O13 Eu2 1_555 1_555
O14 Eu2 1_555 1_555
O15 Eu2 1_555 1_555
N1 C1 1_555 1_555
N2 Eu1 1_555 1_555
N3 H1 1_555 1_555
N4 Eu1 1_555 1_555
C1 N2 1_555 1_555
C2 N1 1_555 1_555
C3 N2 1_555 1_555
C4 C1 1_555 1_555
H2 C4 1_555 1_555
H3 C4 1_555 1_555
H4 C4 1_555 1_555
C5 C2 1_555 1_555
C6 C3 1_555 1_555
C7 N3 1_555 1_555
C8 N3 1_555 1_555
C9 N4 1_555 1_555
C10 C7 1_555 1_555
H5 C10 1_555 1_555
H6 C10 1_555 1_555
H7 C10 1_555 1_555
C11 C8 1_555 1_555
C12 O7 1_555 1_555
C13 O10 1_555 1_555
C14 O12 1_555 1_555
Eu1A O1 1_555 1_555
Eu1A_2 O9 1_555 1_555
Eu2C O2 1_555 1_555
Eu2B O5 1_555 1_555
O1A Eu1 1_555 1_555
O2C Eu2 1_555 1_555
O3C Eu2 1_555 1_555
O5B Eu2 1_555 1_555
O9A Eu1 1_555 1_555
O11A Eu1 1_555 1_555
O3 Eu2C 1_555 1_555
O8 C12 1_555 1_555
O11 Eu1A_2 1_555 1_555
N4 C7 1_555 1_555
C2 C3 1_555 1_555
C8 C9 1_555 1_555
C9 C12 1_555 1_555
C13 C14 1_555 1_555

#END
