
#######################################################################
#
#                 Cambridge Crystallographic Data Centre
#                                CCDC 
#
#######################################################################
#
# If this CIF has been generated from an entry in the Cambridge 
# Structural Database, then it will include bibliographic, chemical, 
# crystal, experimental, refinement or atomic coordinate data resulting 
# from the CCDC's data processing and validation procedures.
#
#######################################################################

data_TORJER
_chemical_formula_moiety         '(C24 H26 N1 O13 Tb1)n'
_symmetry_cell_setting           orthorhombic
_symmetry_space_group_name_H-M   'P n m a'
_symmetry_Int_Tables_number      62
_space_group_name_Hall           '-P 2ac 2n'
loop_
_symmetry_equiv_pos_site_id
_symmetry_equiv_pos_as_xyz
1 x,y,z
2 1/2-x,-y,1/2+z
3 -x,1/2+y,-z
4 1/2+x,1/2-y,1/2-z
5 -x,-y,-z
6 1/2+x,y,1/2-z
7 x,1/2-y,z
8 1/2-x,1/2+y,1/2+z
_cell_length_a                   10.932(3)
_cell_length_b                   16.713(4)
_cell_length_c                   18.893(5)
_cell_angle_alpha                90
_cell_angle_beta                 90
_cell_angle_gamma                90
_cell_volume                     3451.87
loop_
_atom_site_label
_atom_site_type_symbol
_atom_site_fract_x
_atom_site_fract_y
_atom_site_fract_z
N1 N 0.4244(9) 0.2500 1.0350(5)
Tb1 Tb 0.29423(5) 0.2500 0.70461(3)
O1 O 0.1853(10) 0.2500 0.8070(5)
O2 O -0.0111(8) 0.2500 0.8362(5)
O3 O 0.3560(11) 0.2500 1.1638(5)
H1 H 0.3640 0.2500 1.2069
O4 O 0.1592(19) 0.2500 1.1926(7)
O5 O 0.3629(7) -0.1498(5) 1.1838(4)
O6 O 0.2147(7) -0.1533(5) 1.1081(5)
C1 C 0.1004(11) 0.2500 0.8530(7)
C2 C 0.1368(10) 0.2500 0.9280(7)
C3 C 0.0471(13) 0.2500 0.9811(8)
H2 H -0.0356 0.2500 0.9696
C4 C 0.0848(14) 0.2500 1.0511(8)
H3 H 0.0257 0.2500 1.0865
C5 C 0.2055(12) 0.2500 1.0703(8)
C6 C 0.2933(9) 0.2500 1.0184(7)
C7 C 0.2576(11) 0.2500 0.9447(6)
H4 H 0.3165 0.2500 0.9092
C8 C 0.241(2) 0.2500 1.1479(9)
C9 C 0.4883(8) 0.1754(5) 1.0092(5)
H5 H 0.4805 0.1721 0.9582
H6 H 0.5747 0.1791 1.0205
C10 C 0.4365(8) 0.1005(5) 1.0421(5)
C11 C 0.4744(9) 0.0752(6) 1.1093(5)
H7 H 0.5286 0.1066 1.1352
C12 C 0.4331(9) 0.0057(6) 1.1368(5)
H8 H 0.4615 -0.0104 1.1810
C13 C 0.3504(8) -0.0421(5) 1.1018(5)
C14 C 0.3081(8) -0.0164(6) 1.0366(6)
H9 H 0.2502 -0.0468 1.0126
C15 C 0.3508(9) 0.0543(5) 1.0066(5)
H10 H 0.3218 0.0706 0.9626
C16 C 0.3078(7) -0.1185(6) 1.1317(5)
O7 O 0.3915(6) 0.1475(5) 0.7715(5)
H11 H 0.4759 0.1433 0.7583
H12 H 0.3868 0.1593 0.8189
O5F O 0.3629(7) 0.6498(5) 1.1838(4)
O6F O 0.2147(7) 0.6533(5) 1.1081(5)
C9F C 0.4883(8) 0.3246(5) 1.0092(5)
H5F H 0.4805 0.3279 0.9582
H6F H 0.5747 0.3209 1.0205
C10F C 0.4365(8) 0.3995(5) 1.0421(5)
C11F C 0.4744(9) 0.4248(6) 1.1093(5)
H7F H 0.5286 0.3934 1.1352
C12F C 0.4331(9) 0.4943(6) 1.1368(5)
H8F H 0.4615 0.5104 1.1810
C13F C 0.3504(8) 0.5421(5) 1.1018(5)
C14F C 0.3081(8) 0.5164(6) 1.0366(6)
H9F H 0.2502 0.5468 1.0126
C15F C 0.3508(9) 0.4457(5) 1.0066(5)
H10F H 0.3218 0.4294 0.9626
C16F C 0.3078(7) 0.6185(6) 1.1317(5)
O7F O 0.3915(6) 0.3525(5) 0.7715(5)
H11F H 0.4759 0.3567 0.7583
H12F H 0.3868 0.3407 0.8189
Tb1A Tb 0.20577(5) -0.2500 1.20461(3)
Tb1A_2 Tb 0.20577(5) 0.7500 1.20461(3)
Tb1C Tb -0.20577(5) 0.2500 0.79539(3)
O2C O 0.4889(8) 0.2500 0.6638(5)
O5A O 0.1371(7) 0.1498(5) 0.6838(4)
O5G O 0.1371(7) 0.3502(5) 0.6838(4)
O6A O 0.2853(7) 0.1533(5) 0.6081(5)
O6G O 0.2853(7) 0.3467(5) 0.6081(5)
O8 O 0.7704(16) -0.0431(12) 1.1637(10)
H13 H 0.8428 -0.0425 1.1407
H14 H 0.7175 -0.0756 1.1834
O9 O 0.983(2) -0.0395(19) 1.0998(15)
H15 H 1.0301 -0.0424 1.1355
H16 H 1.0287 -0.0597 1.0682
O10 O 0.663(4) 0.2500 1.1464(19)
H17 H 0.5846 0.2500 1.1492
loop_
_geom_bond_atom_site_label_1
_geom_bond_atom_site_label_2
_geom_bond_site_symmetry_1
_geom_bond_site_symmetry_2
N1 C6 1_555 1_555
Tb1 O1 1_555 1_555
O1 C1 1_555 1_555
O2 C1 1_555 1_555
O3 H1 1_555 1_555
O4 C8 1_555 1_555
O5 C16 1_555 1_555
O6 C16 1_555 1_555
C1 C2 1_555 1_555
C2 C3 1_555 1_555
C3 H2 1_555 1_555
C4 C3 1_555 1_555
H3 C4 1_555 1_555
C5 C4 1_555 1_555
C6 C5 1_555 1_555
C7 C2 1_555 1_555
H4 C7 1_555 1_555
C8 O3 1_555 1_555
C9 N1 1_555 1_555
H5 C9 1_555 1_555
H6 C9 1_555 1_555
C10 C9 1_555 1_555
C11 C10 1_555 1_555
H7 C11 1_555 1_555
C12 C11 1_555 1_555
H8 C12 1_555 1_555
C13 C12 1_555 1_555
C14 C13 1_555 1_555
H9 C14 1_555 1_555
C15 C10 1_555 1_555
H10 C15 1_555 1_555
C16 C13 1_555 1_555
O7 Tb1 1_555 1_555
H11 O7 1_555 1_555
H12 O7 1_555 1_555
O8 H13 1_555 1_555
H14 O8 1_555 1_555
O9 H15 1_555 1_555
H16 O9 1_555 1_555
O10 H17 1_555 1_555
O5F C16F 1_555 1_555
O6F C16F 1_555 1_555
C9F N1 1_555 1_555
H5F C9F 1_555 1_555
H6F C9F 1_555 1_555
C10F C9F 1_555 1_555
C11F C10F 1_555 1_555
H7F C11F 1_555 1_555
C12F C11F 1_555 1_555
H8F C12F 1_555 1_555
C13F C12F 1_555 1_555
C14F C13F 1_555 1_555
H9F C14F 1_555 1_555
C15F C10F 1_555 1_555
H10F C15F 1_555 1_555
C16F C13F 1_555 1_555
O7F Tb1 1_555 1_555
H11F O7F 1_555 1_555
H12F O7F 1_555 1_555
Tb1A O5 1_555 1_555
Tb1A_2 O5F 1_555 1_555
Tb1C O2 1_555 1_555
O2C Tb1 1_555 1_555
O5A Tb1 1_555 1_555
O5G Tb1 1_555 1_555
O6A Tb1 1_555 1_555
O6G Tb1 1_555 1_555
O6 Tb1A 1_555 1_555
C5 C8 1_555 1_555
C6 C7 1_555 1_555
C14 C15 1_555 1_555
O6F Tb1A_2 1_555 1_555
C14F C15F 1_555 1_555

#END
