
#######################################################################
#
#                 Cambridge Crystallographic Data Centre
#                                CCDC 
#
#######################################################################
#
# If this CIF has been generated from an entry in the Cambridge 
# Structural Database, then it will include bibliographic, chemical, 
# crystal, experimental, refinement or atomic coordinate data resulting 
# from the CCDC's data processing and validation procedures.
#
#######################################################################

data_TORKAO
_chemical_formula_moiety         '(C24 H26 Eu1 N1 O13)n'
_symmetry_cell_setting           orthorhombic
_symmetry_space_group_name_H-M   'P n m a'
_symmetry_Int_Tables_number      62
_space_group_name_Hall           '-P 2ac 2n'
loop_
_symmetry_equiv_pos_site_id
_symmetry_equiv_pos_as_xyz
1 x,y,z
2 1/2-x,-y,1/2+z
3 -x,1/2+y,-z
4 1/2+x,1/2-y,1/2-z
5 -x,-y,-z
6 1/2+x,y,1/2-z
7 x,1/2-y,z
8 1/2-x,1/2+y,1/2+z
_cell_length_a                   11.048(3)
_cell_length_b                   16.702(4)
_cell_length_c                   18.739(5)
_cell_angle_alpha                90
_cell_angle_beta                 90
_cell_angle_gamma                90
_cell_volume                     3457.79
loop_
_atom_site_label
_atom_site_type_symbol
_atom_site_fract_x
_atom_site_fract_y
_atom_site_fract_z
N1 N 0.4242(7) 0.2500 1.0350(4)
Eu1 Eu 0.29712(4) 0.2500 0.70476(2)
O1 O 0.1839(7) 0.2500 0.8073(4)
O2 O -0.0091(6) 0.2500 0.8384(4)
O3 O 0.3610(9) 0.2500 1.1641(4)
H1 H 0.3729 0.2500 1.2072
O4 O 0.1690(16) 0.2500 1.1959(6)
O5 O 0.3604(6) -0.1495(4) 1.1818(4)
O6 O 0.2118(5) -0.1521(4) 1.1066(4)
C1 C 0.1007(8) 0.2500 0.8527(5)
C2 C 0.1391(9) 0.2500 0.9291(5)
C3 C 0.0527(10) 0.2500 0.9851(7)
H2 H -0.0294 0.2500 0.9743
C4 C 0.0879(11) 0.2500 1.0525(6)
H3 H 0.0294 0.2500 1.0881
C5 C 0.2114(9) 0.2500 1.0722(6)
C6 C 0.2952(7) 0.2500 1.0185(6)
C7 C 0.2595(8) 0.2500 0.9454(5)
H4 H 0.3174 0.2500 0.9093
C8 C 0.2468(17) 0.2500 1.1519(7)
C9 C 0.4883(6) 0.1754(4) 1.0075(4)
H5 H 0.4794 0.1724 0.9561
H6 H 0.5740 0.1790 1.0183
C10 C 0.4367(6) 0.1007(4) 1.0411(4)
C11 C 0.4718(7) 0.0758(5) 1.1090(4)
H7 H 0.5251 0.1069 1.1356
C12 C 0.4284(7) 0.0064(5) 1.1364(4)
H8 H 0.4553 -0.0101 1.1810
C13 C 0.3464(6) -0.0404(4) 1.1008(4)
C14 C 0.3063(6) -0.0158(5) 1.0358(5)
H9 H 0.2480 -0.0458 1.0120
C15 C 0.3518(7) 0.0548(4) 1.0037(4)
H10 H 0.3257 0.0703 0.9586
C16 C 0.3042(6) -0.1176(5) 1.1310(4)
O7 O 0.3941(6) 0.1489(5) 0.7753(4)
H11 H 0.4784 0.1447 0.7621
H12 H 0.3893 0.1607 0.8227
O5F O 0.3604(6) 0.6495(4) 1.1818(4)
O6F O 0.2118(5) 0.6521(4) 1.1066(4)
C9F C 0.4883(6) 0.3246(4) 1.0075(4)
H5F H 0.4794 0.3276 0.9561
H6F H 0.5740 0.3210 1.0183
C10F C 0.4367(6) 0.3993(4) 1.0411(4)
C11F C 0.4718(7) 0.4242(5) 1.1090(4)
H7F H 0.5251 0.3931 1.1356
C12F C 0.4284(7) 0.4936(5) 1.1364(4)
H8F H 0.4553 0.5101 1.1810
C13F C 0.3464(6) 0.5404(4) 1.1008(4)
C14F C 0.3063(6) 0.5158(5) 1.0358(5)
H9F H 0.2480 0.5458 1.0120
C15F C 0.3518(7) 0.4452(4) 1.0037(4)
H10F H 0.3257 0.4297 0.9586
C16F C 0.3042(6) 0.6176(5) 1.1310(4)
O7F O 0.3941(6) 0.3511(5) 0.7753(4)
H11F H 0.4784 0.3553 0.7621
H12F H 0.3893 0.3393 0.8227
Eu1A Eu 0.20288(4) -0.2500 1.20476(2)
Eu1A_2 Eu 0.20288(4) 0.7500 1.20476(2)
Eu1C Eu -0.20288(4) 0.2500 0.79524(2)
O2C O 0.4909(6) 0.2500 0.6616(4)
O5A O 0.1396(6) 0.1495(4) 0.6818(4)
O5G O 0.1396(6) 0.3505(4) 0.6818(4)
O6A O 0.2882(5) 0.1521(4) 0.6066(4)
O6G O 0.2882(5) 0.3479(4) 0.6066(4)
O8 O 0.7666(12) -0.0396(8) 1.1677(7)
H13 H 0.8390 -0.0389 1.1447
H14 H 0.7137 -0.0721 1.1873
O9 O 0.9794(19) -0.0443(18) 1.1065(14)
H15 H 1.0266 -0.0473 1.1422
H16 H 1.0252 -0.0646 1.0749
O10 O 0.668(3) 0.2500 1.1443(17)
loop_
_geom_bond_atom_site_label_1
_geom_bond_atom_site_label_2
_geom_bond_site_symmetry_1
_geom_bond_site_symmetry_2
N1 C6 1_555 1_555
Eu1 O1 1_555 1_555
O1 C1 1_555 1_555
O2 C1 1_555 1_555
O3 H1 1_555 1_555
O4 C8 1_555 1_555
O5 C16 1_555 1_555
O6 C16 1_555 1_555
C1 C2 1_555 1_555
C2 C3 1_555 1_555
C3 H2 1_555 1_555
C4 C3 1_555 1_555
H3 C4 1_555 1_555
C5 C4 1_555 1_555
C6 C5 1_555 1_555
C7 C2 1_555 1_555
H4 C7 1_555 1_555
C8 O3 1_555 1_555
C9 N1 1_555 1_555
H5 C9 1_555 1_555
H6 C9 1_555 1_555
C10 C9 1_555 1_555
C11 C10 1_555 1_555
H7 C11 1_555 1_555
C12 C11 1_555 1_555
H8 C12 1_555 1_555
C13 C12 1_555 1_555
C14 C13 1_555 1_555
H9 C14 1_555 1_555
C15 C10 1_555 1_555
H10 C15 1_555 1_555
C16 C13 1_555 1_555
O7 Eu1 1_555 1_555
H11 O7 1_555 1_555
H12 O7 1_555 1_555
O8 H13 1_555 1_555
H14 O8 1_555 1_555
O9 H15 1_555 1_555
H16 O9 1_555 1_555
O5F C16F 1_555 1_555
O6F C16F 1_555 1_555
C9F N1 1_555 1_555
H5F C9F 1_555 1_555
H6F C9F 1_555 1_555
C10F C9F 1_555 1_555
C11F C10F 1_555 1_555
H7F C11F 1_555 1_555
C12F C11F 1_555 1_555
H8F C12F 1_555 1_555
C13F C12F 1_555 1_555
C14F C13F 1_555 1_555
H9F C14F 1_555 1_555
C15F C10F 1_555 1_555
H10F C15F 1_555 1_555
C16F C13F 1_555 1_555
O7F Eu1 1_555 1_555
H11F O7F 1_555 1_555
H12F O7F 1_555 1_555
Eu1A O5 1_555 1_555
Eu1A_2 O5F 1_555 1_555
Eu1C O2 1_555 1_555
O2C Eu1 1_555 1_555
O5A Eu1 1_555 1_555
O5G Eu1 1_555 1_555
O6A Eu1 1_555 1_555
O6G Eu1 1_555 1_555
O6 Eu1A 1_555 1_555
C5 C8 1_555 1_555
C6 C7 1_555 1_555
C14 C15 1_555 1_555
O6F Eu1A_2 1_555 1_555
C14F C15F 1_555 1_555

#END
