
#######################################################################
#
#                 Cambridge Crystallographic Data Centre
#                                CCDC 
#
#######################################################################
#
# If this CIF has been generated from an entry in the Cambridge 
# Structural Database, then it will include bibliographic, chemical, 
# crystal, experimental, refinement or atomic coordinate data resulting 
# from the CCDC's data processing and validation procedures.
#
#######################################################################

data_OLANAS
_chemical_formula_moiety         '(C92 H84 Co2 N12 Na2 O64 Zn8)n'
_symmetry_cell_setting           monoclinic
_symmetry_space_group_name_H-M   'C 2/m'
_symmetry_Int_Tables_number      12
_space_group_name_Hall           '-C 2y'
loop_
_symmetry_equiv_pos_site_id
_symmetry_equiv_pos_as_xyz
1 x,y,z
2 -x,y,-z
3 1/2+x,1/2+y,z
4 1/2-x,1/2+y,-z
5 -x,-y,-z
6 x,-y,z
7 1/2-x,1/2-y,-z
8 1/2+x,1/2-y,z
_cell_length_a                   19.108(5)
_cell_length_b                   28.704(5)
_cell_length_c                   13.646(5)
_cell_angle_alpha                90
_cell_angle_beta                 99.582(5)
_cell_angle_gamma                90
_cell_volume                     7380.08
loop_
_atom_site_label
_atom_site_type_symbol
_atom_site_fract_x
_atom_site_fract_y
_atom_site_fract_z
Zn1 Zn 0.19707(4) 0.31411(3) 0.60688(6)
Zn2 Zn 0.31612(6) 0.5000 0.19872(9)
Zn3 Zn 0.19214(12) 0.5000 -0.03083(12)
Co1 Co 0.0000 0.27867(3) 0.0000
Na1 Na 0.0966(2) 0.0000 -0.0148(3)
O1 O -0.1149(3) 0.2010(2) -0.2068(5)
O2 O -0.0941(3) 0.36862(18) 0.1653(4)
O3 O 0.1294(4) 0.2959(2) 0.4506(4)
O4 O 0.1917(3) 0.3574(2) 0.4837(4)
O5 O 0.2415(4) 0.4512(3) 0.2009(6)
O6 O 0.1729(6) 0.4465(3) 0.0562(5)
O7 O 0.1619(3) 0.2641(2) -0.3178(4)
O8 O 0.1796(4) 0.1962(3) -0.3923(5)
O9 O 0.1109(3) 0.05283(17) -0.2009(5)
O10 O 0.1017(5) 0.0705(2) -0.0473(6)
O11 O 0.3015(4) 0.5000 0.0287(6)
O12 O 0.0000 0.0000 0.0000
O13 O 0.2928(3) 0.2883(2) 0.5749(5)
O14 O 0.1103(5) 0.3573(4) 0.6391(6)
O15 O 0.2576(4) 0.3466(3) 0.7257(6)
O16 O 0.3354(5) 0.5000 0.3555(6)
O17 O 0.1995(11) 0.4485(4) -0.1381(9)
N1 N -0.0205(2) 0.23110(15) -0.1041(3)
N2 N -0.0985(2) 0.28160(15) -0.0176(3)
N3 N -0.0092(2) 0.32572(17) 0.1010(3)
C1 C -0.0884(3) 0.2261(2) -0.1405(5)
C2 C -0.1354(3) 0.2566(2) -0.0911(4)
C3 C -0.2074(3) 0.2640(3) -0.1187(5)
H1 H -0.2334 0.2478 -0.1717
C4 C -0.2402(3) 0.2968(2) -0.0640(5)
H2 H -0.2887 0.3023 -0.0807
C5 C -0.2009(3) 0.3209(2) 0.0142(5)
H3 H -0.2223 0.3417 0.0522
C6 C -0.1289(3) 0.31288(19) 0.0337(4)
C7 C -0.0762(3) 0.3380(2) 0.1072(4)
C8 C 0.0492(3) 0.34670(19) 0.1641(4)
C9 C 0.0883(3) 0.3808(2) 0.1286(4)
H4 H 0.0740 0.3924 0.0648
C10 C 0.1481(4) 0.3982(2) 0.1858(4)
C11 C 0.1679(3) 0.3829(2) 0.2814(5)
H5 H 0.2077 0.3955 0.3211
C12 C 0.1288(3) 0.3486(2) 0.3192(4)
C13 C 0.0695(3) 0.3300(2) 0.2604(4)
H6 H 0.0435 0.3067 0.2849
C14 C 0.1956(5) 0.4345(3) 0.1451(6)
C15 C 0.1511(4) 0.3324(3) 0.4244(5)
C16 C 0.0299(3) 0.20421(19) -0.1453(4)
C17 C 0.0674(3) 0.2233(2) -0.2127(4)
H7 H 0.0611 0.2548 -0.2280
C18 C 0.1135(3) 0.1982(2) -0.2585(5)
C19 C 0.1225(4) 0.1508(2) -0.2353(5)
H8 H 0.1518 0.1326 -0.2677
C20 C 0.0877(4) 0.1310(2) -0.1643(5)
C21 C 0.0414(3) 0.1580(2) -0.1181(5)
H9 H 0.0186 0.1450 -0.0696
C22 C 0.1549(4) 0.2207(3) -0.3291(5)
C23 C 0.1014(5) 0.0815(3) -0.1339(7)
Zn1A Zn -0.19707(4) 0.31411(3) -0.60688(6)
Zn2A Zn -0.31612(6) 0.5000 -0.19872(9)
Zn3A Zn -0.19214(12) 0.5000 0.03083(12)
Na1A Na -0.0966(2) -0.0000 0.0148(3)
O1A O 0.1149(3) 0.2010(2) 0.2068(5)
O2A O 0.0941(3) 0.36862(18) -0.1653(4)
O3A O -0.1294(4) 0.2959(2) -0.4506(4)
O4A O -0.1917(3) 0.3574(2) -0.4837(4)
O5A O -0.2415(4) 0.4512(3) -0.2009(6)
O6A O -0.1729(6) 0.4465(3) -0.0562(5)
O7A O -0.1619(3) 0.2641(2) 0.3178(4)
O8A O -0.1796(4) 0.1962(3) 0.3923(5)
O9A O -0.1109(3) 0.05283(17) 0.2009(5)
O10A O -0.1017(5) 0.0705(2) 0.0473(6)
O11A O -0.3015(4) 0.5000 -0.0287(6)
O13A O -0.2928(3) 0.2883(2) -0.5749(5)
O14A O -0.1103(5) 0.3573(4) -0.6391(6)
O15A O -0.2576(4) 0.3466(3) -0.7257(6)
O16A O -0.3354(5) 0.5000 -0.3555(6)
O17A O -0.1995(11) 0.4485(4) 0.1381(9)
N1A N 0.0205(2) 0.23110(15) 0.1041(3)
N2A N 0.0985(2) 0.28160(15) 0.0176(3)
N3A N 0.0092(2) 0.32572(17) -0.1010(3)
C1A C 0.0884(3) 0.2261(2) 0.1405(5)
C2A C 0.1354(3) 0.2566(2) 0.0911(4)
C3A C 0.2074(3) 0.2640(3) 0.1187(5)
H1A H 0.2334 0.2478 0.1717
C4A C 0.2402(3) 0.2968(2) 0.0640(5)
H2A H 0.2887 0.3023 0.0807
C5A C 0.2009(3) 0.3209(2) -0.0142(5)
H3A H 0.2223 0.3417 -0.0522
C6A C 0.1289(3) 0.31288(19) -0.0337(4)
C7A C 0.0762(3) 0.3380(2) -0.1072(4)
C8A C -0.0492(3) 0.34670(19) -0.1641(4)
C9A C -0.0883(3) 0.3808(2) -0.1286(4)
H4A H -0.0740 0.3924 -0.0648
C10A C -0.1481(4) 0.3982(2) -0.1858(4)
C11A C -0.1679(3) 0.3829(2) -0.2814(5)
H5A H -0.2077 0.3955 -0.3211
C12A C -0.1288(3) 0.3486(2) -0.3192(4)
C13A C -0.0695(3) 0.3300(2) -0.2604(4)
H6A H -0.0435 0.3067 -0.2849
C14A C -0.1956(5) 0.4345(3) -0.1451(6)
C15A C -0.1511(4) 0.3324(3) -0.4244(5)
C16A C -0.0299(3) 0.20421(19) 0.1453(4)
C17A C -0.0674(3) 0.2233(2) 0.2127(4)
H7A H -0.0611 0.2548 0.2280
C18A C -0.1135(3) 0.1982(2) 0.2585(5)
C19A C -0.1225(4) 0.1508(2) 0.2353(5)
H8A H -0.1518 0.1326 0.2677
C20A C -0.0877(4) 0.1310(2) 0.1643(5)
C21A C -0.0414(3) 0.1580(2) 0.1181(5)
H9A H -0.0186 0.1450 0.0696
C22A C -0.1549(4) 0.2207(3) 0.3291(5)
C23A C -0.1014(5) 0.0815(3) 0.1339(7)
Zn1D Zn -0.19707(4) -0.31411(3) -0.60688(6)
Co1D Co 0.0000 -0.27867(3) 0.0000
O1D O 0.1149(3) -0.2010(2) 0.2068(5)
O2D O 0.0941(3) -0.36862(18) -0.1653(4)
O3D O -0.1294(4) -0.2959(2) -0.4506(4)
O4D O -0.1917(3) -0.3574(2) -0.4837(4)
O5D O -0.2415(4) -0.4512(3) -0.2009(6)
O6D O -0.1729(6) -0.4465(3) -0.0562(5)
O7D O -0.1619(3) -0.2641(2) 0.3178(4)
O8D O -0.1796(4) -0.1962(3) 0.3923(5)
O9D O -0.1109(3) -0.05283(17) 0.2009(5)
O10D O -0.1017(5) -0.0705(2) 0.0473(6)
O13D O -0.2928(3) -0.2883(2) -0.5749(5)
O14D O -0.1103(5) -0.3573(4) -0.6391(6)
O15D O -0.2576(4) -0.3466(3) -0.7257(6)
N1D N 0.0205(2) -0.23110(15) 0.1041(3)
N2D N 0.0985(2) -0.28160(15) 0.0176(3)
N3D N 0.0092(2) -0.32572(17) -0.1010(3)
C1D C 0.0884(3) -0.2261(2) 0.1405(5)
C2D C 0.1354(3) -0.2566(2) 0.0911(4)
C3D C 0.2074(3) -0.2640(3) 0.1187(5)
H1D H 0.2334 -0.2478 0.1717
C4D C 0.2402(3) -0.2968(2) 0.0640(5)
H2D H 0.2887 -0.3023 0.0807
C5D C 0.2009(3) -0.3209(2) -0.0142(5)
H3D H 0.2223 -0.3417 -0.0522
C6D C 0.1289(3) -0.31288(19) -0.0337(4)
C7D C 0.0762(3) -0.3380(2) -0.1072(4)
C8D C -0.0492(3) -0.34670(19) -0.1641(4)
C9D C -0.0883(3) -0.3808(2) -0.1286(4)
H4D H -0.0740 -0.3924 -0.0648
C10D C -0.1481(4) -0.3982(2) -0.1858(4)
C11D C -0.1679(3) -0.3829(2) -0.2814(5)
H5D H -0.2077 -0.3955 -0.3211
C12D C -0.1288(3) -0.3486(2) -0.3192(4)
C13D C -0.0695(3) -0.3300(2) -0.2604(4)
H6D H -0.0435 -0.3067 -0.2849
C14D C -0.1956(5) -0.4345(3) -0.1451(6)
C15D C -0.1511(4) -0.3324(3) -0.4244(5)
C16D C -0.0299(3) -0.20421(19) 0.1453(4)
C17D C -0.0674(3) -0.2233(2) 0.2127(4)
H7D H -0.0611 -0.2548 0.2280
C18D C -0.1135(3) -0.1982(2) 0.2585(5)
C19D C -0.1225(4) -0.1508(2) 0.2353(5)
H8D H -0.1518 -0.1326 0.2677
C20D C -0.0877(4) -0.1310(2) 0.1643(5)
C21D C -0.0414(3) -0.1580(2) 0.1181(5)
H9D H -0.0186 -0.1450 0.0696
C22D C -0.1549(4) -0.2207(3) 0.3291(5)
C23D C -0.1014(5) -0.0815(3) 0.1339(7)
Zn1E Zn 0.19707(4) -0.31411(3) 0.60688(6)
O1E O -0.1149(3) -0.2010(2) -0.2068(5)
O2E O -0.0941(3) -0.36862(18) 0.1653(4)
O3E O 0.1294(4) -0.2959(2) 0.4506(4)
O4E O 0.1917(3) -0.3574(2) 0.4837(4)
O5E O 0.2415(4) -0.4512(3) 0.2009(6)
O6E O 0.1729(6) -0.4465(3) 0.0562(5)
O7E O 0.1619(3) -0.2641(2) -0.3178(4)
O8E O 0.1796(4) -0.1962(3) -0.3923(5)
O9E O 0.1109(3) -0.05283(17) -0.2009(5)
O10E O 0.1017(5) -0.0705(2) -0.0473(6)
O13E O 0.2928(3) -0.2883(2) 0.5749(5)
O14E O 0.1103(5) -0.3573(4) 0.6391(6)
O15E O 0.2576(4) -0.3466(3) 0.7257(6)
N1E N -0.0205(2) -0.23110(15) -0.1041(3)
N2E N -0.0985(2) -0.28160(15) -0.0176(3)
N3E N -0.0092(2) -0.32572(17) 0.1010(3)
C1E C -0.0884(3) -0.2261(2) -0.1405(5)
C2E C -0.1354(3) -0.2566(2) -0.0911(4)
C3E C -0.2074(3) -0.2640(3) -0.1187(5)
H1E H -0.2334 -0.2478 -0.1717
C4E C -0.2402(3) -0.2968(2) -0.0640(5)
H2E H -0.2887 -0.3023 -0.0807
C5E C -0.2009(3) -0.3209(2) 0.0142(5)
H3E H -0.2223 -0.3417 0.0522
C6E C -0.1289(3) -0.31288(19) 0.0337(4)
C7E C -0.0762(3) -0.3380(2) 0.1072(4)
C8E C 0.0492(3) -0.34670(19) 0.1641(4)
C9E C 0.0883(3) -0.3808(2) 0.1286(4)
H4E H 0.0740 -0.3924 0.0648
C10E C 0.1481(4) -0.3982(2) 0.1858(4)
C11E C 0.1679(3) -0.3829(2) 0.2814(5)
H5E H 0.2077 -0.3955 0.3211
C12E C 0.1288(3) -0.3486(2) 0.3192(4)
C13E C 0.0695(3) -0.3300(2) 0.2604(4)
H6E H 0.0435 -0.3067 0.2849
C14E C 0.1956(5) -0.4345(3) 0.1451(6)
C15E C 0.1511(4) -0.3324(3) 0.4244(5)
C16E C 0.0299(3) -0.20421(19) -0.1453(4)
C17E C 0.0674(3) -0.2233(2) -0.2127(4)
H7E H 0.0611 -0.2548 -0.2280
C18E C 0.1135(3) -0.1982(2) -0.2585(5)
C19E C 0.1225(4) -0.1508(2) -0.2353(5)
H8E H 0.1518 -0.1326 -0.2677
C20E C 0.0877(4) -0.1310(2) -0.1643(5)
C21E C 0.0414(3) -0.1580(2) -0.1181(5)
H9E H 0.0186 -0.1450 -0.0696
C22E C 0.1549(4) -0.2207(3) -0.3291(5)
C23E C 0.1014(5) -0.0815(3) -0.1339(7)
O17E O 0.1995(11) 0.5515(4) -0.1381(9)
O17D O -0.1995(11) 0.5515(4) 0.1381(9)
Zn1_2 Zn 0.19707(4) 0.31411(3) -0.39312(6)
Zn1A_2 Zn -0.19707(4) 0.31411(3) 0.39312(6)
Zn1D_2 Zn -0.19707(4) -0.31411(3) 0.39312(6)
Zn1E_2 Zn 0.19707(4) -0.31411(3) -0.39312(6)
Zn2_2 Zn 0.31612(6) -0.5000 0.19872(9)
Zn2A_2 Zn -0.31612(6) -0.5000 -0.19872(9)
Zn2B Zn -0.18388(6) 0.0000 0.19872(9)
Zn2C Zn 0.18388(6) 0.0000 -0.19872(9)
Zn3_2 Zn 0.19214(12) -0.5000 -0.03083(12)
Zn3A_2 Zn -0.19214(12) -0.5000 0.03083(12)
Na1B Na -0.4034(2) 0.5000 -0.0148(3)
Na1C Na 0.4034(2) 0.5000 0.0148(3)
O5D_2 O -0.2415(4) 0.5488(3) -0.2009(6)
O5E_2 O 0.2415(4) 0.5488(3) 0.2009(6)
O6D_2 O -0.1729(6) 0.5535(3) -0.0562(5)
O6E_2 O 0.1729(6) 0.5535(3) 0.0562(5)
O7_2 O 0.1619(3) 0.2641(2) 0.6822(4)
O7A_2 O -0.1619(3) 0.2641(2) -0.6822(4)
O7D_2 O -0.1619(3) -0.2641(2) -0.6822(4)
O7E_2 O 0.1619(3) -0.2641(2) 0.6822(4)
O9B O -0.3891(3) 0.55283(17) -0.2009(5)
O9C O 0.3891(3) 0.55283(17) 0.2009(5)
O9F O 0.3891(3) 0.44717(17) 0.2009(5)
O9G O -0.3891(3) 0.44717(17) -0.2009(5)
O11B O -0.1985(4) -0.0000 0.0287(6)
O11C O 0.1985(4) 0.0000 -0.0287(6)
O18 O 0.0525(3) 0.09639(17) -0.5447(4)
O19 O -0.0384(12) 0.0699(7) -0.596(2)
O20 O 0.059(4) 0.472(3) -0.119(6)
loop_
_geom_bond_atom_site_label_1
_geom_bond_atom_site_label_2
_geom_bond_site_symmetry_1
_geom_bond_site_symmetry_2
Zn1 O3 1_555 1_555
Zn2 O5 1_555 1_555
Zn3 O6 1_555 1_555
Co1 N1 1_555 1_555
Na1 O9 1_555 1_555
O1 C1 1_555 1_555
O2 C7 1_555 1_555
O3 C15 1_555 1_555
O4 Zn1 1_555 1_555
O5 C14 1_555 1_555
O6 C14 1_555 1_555
O7 C22 1_555 1_555
O8 C22 1_555 1_555
O9 C23 1_555 1_555
O10 Na1 1_555 1_555
O11 Zn2 1_555 1_555
O12 Na1 1_555 1_555
O13 Zn1 1_555 1_555
O14 Zn1 1_555 1_555
O15 Zn1 1_555 1_555
O16 Zn2 1_555 1_555
O17 Zn3 1_555 1_555
N1 C1 1_555 1_555
N2 Co1 1_555 1_555
N3 Co1 1_555 1_555
C1 C2 1_555 1_555
C2 N2 1_555 1_555
C3 C2 1_555 1_555
H1 C3 1_555 1_555
C4 C3 1_555 1_555
H2 C4 1_555 1_555
C5 C4 1_555 1_555
H3 C5 1_555 1_555
C6 N2 1_555 1_555
C7 N3 1_555 1_555
C8 N3 1_555 1_555
C9 C8 1_555 1_555
H4 C9 1_555 1_555
C10 C9 1_555 1_555
C11 C10 1_555 1_555
H5 C11 1_555 1_555
C12 C11 1_555 1_555
C13 C8 1_555 1_555
H6 C13 1_555 1_555
C14 C10 1_555 1_555
C15 O4 1_555 1_555
C16 N1 1_555 1_555
C17 C16 1_555 1_555
H7 C17 1_555 1_555
C18 C17 1_555 1_555
C19 C18 1_555 1_555
H8 C19 1_555 1_555
C20 C19 1_555 1_555
C21 C16 1_555 1_555
H9 C21 1_555 1_555
C22 C18 1_555 1_555
C23 O10 1_555 1_555
Zn1A O3A 1_555 1_555
Zn2A O5A 1_555 1_555
Zn3A O6A 1_555 1_555
Na1A O12 1_555 1_555
O1A C1A 1_555 1_555
O2A C7A 1_555 1_555
O3A C15A 1_555 1_555
O4A Zn1A 1_555 1_555
O5A C14A 1_555 1_555
O6A C14A 1_555 1_555
O7A C22A 1_555 1_555
O8A C22A 1_555 1_555
O9A Na1A 1_555 1_555
O10A Na1A 1_555 1_555
O11A Zn2A 1_555 1_555
O13A Zn1A 1_555 1_555
O14A Zn1A 1_555 1_555
O15A Zn1A 1_555 1_555
O16A Zn2A 1_555 1_555
O17A Zn3A 1_555 1_555
N1A Co1 1_555 1_555
N2A Co1 1_555 1_555
N3A Co1 1_555 1_555
C1A N1A 1_555 1_555
C2A N2A 1_555 1_555
C3A C2A 1_555 1_555
H1A C3A 1_555 1_555
C4A C3A 1_555 1_555
H2A C4A 1_555 1_555
C5A C4A 1_555 1_555
H3A C5A 1_555 1_555
C6A N2A 1_555 1_555
C7A N3A 1_555 1_555
C8A N3A 1_555 1_555
C9A C8A 1_555 1_555
H4A C9A 1_555 1_555
C10A C9A 1_555 1_555
C11A C10A 1_555 1_555
H5A C11A 1_555 1_555
C12A C11A 1_555 1_555
C13A C8A 1_555 1_555
H6A C13A 1_555 1_555
C14A C10A 1_555 1_555
C15A O4A 1_555 1_555
C16A N1A 1_555 1_555
C17A C16A 1_555 1_555
H7A C17A 1_555 1_555
C18A C17A 1_555 1_555
C19A C18A 1_555 1_555
H8A C19A 1_555 1_555
C20A C19A 1_555 1_555
C21A C16A 1_555 1_555
H9A C21A 1_555 1_555
C22A C18A 1_555 1_555
C23A O9A 1_555 1_555
Zn1D O3D 1_555 1_555
Co1D N1D 1_555 1_555
O1D C1D 1_555 1_555
O2D C7D 1_555 1_555
O3D C15D 1_555 1_555
O4D Zn1D 1_555 1_555
O5D C14D 1_555 1_555
O6D C14D 1_555 1_555
O7D C22D 1_555 1_555
O8D C22D 1_555 1_555
O9D Na1A 1_555 1_555
O10D Na1A 1_555 1_555
O13D Zn1D 1_555 1_555
O14D Zn1D 1_555 1_555
O15D Zn1D 1_555 1_555
N1D C1D 1_555 1_555
N2D Co1D 1_555 1_555
N3D Co1D 1_555 1_555
C1D C2D 1_555 1_555
C2D N2D 1_555 1_555
C3D C2D 1_555 1_555
H1D C3D 1_555 1_555
C4D C3D 1_555 1_555
H2D C4D 1_555 1_555
C5D C4D 1_555 1_555
H3D C5D 1_555 1_555
C6D N2D 1_555 1_555
C7D N3D 1_555 1_555
C8D N3D 1_555 1_555
C9D C8D 1_555 1_555
H4D C9D 1_555 1_555
C10D C9D 1_555 1_555
C11D C10D 1_555 1_555
H5D C11D 1_555 1_555
C12D C11D 1_555 1_555
C13D C8D 1_555 1_555
H6D C13D 1_555 1_555
C14D C10D 1_555 1_555
C15D O4D 1_555 1_555
C16D N1D 1_555 1_555
C17D C16D 1_555 1_555
H7D C17D 1_555 1_555
C18D C17D 1_555 1_555
C19D C18D 1_555 1_555
H8D C19D 1_555 1_555
C20D C19D 1_555 1_555
C21D C16D 1_555 1_555
H9D C21D 1_555 1_555
C22D C18D 1_555 1_555
C23D O9D 1_555 1_555
Zn1E O3E 1_555 1_555
O1E C1E 1_555 1_555
O2E C7E 1_555 1_555
O3E C15E 1_555 1_555
O4E Zn1E 1_555 1_555
O5E C14E 1_555 1_555
O6E C14E 1_555 1_555
O7E C22E 1_555 1_555
O8E C22E 1_555 1_555
O9E Na1 1_555 1_555
O10E Na1 1_555 1_555
O13E Zn1E 1_555 1_555
O14E Zn1E 1_555 1_555
O15E Zn1E 1_555 1_555
N1E Co1D 1_555 1_555
N2E Co1D 1_555 1_555
N3E Co1D 1_555 1_555
C1E N1E 1_555 1_555
C2E N2E 1_555 1_555
C3E C2E 1_555 1_555
H1E C3E 1_555 1_555
C4E C3E 1_555 1_555
H2E C4E 1_555 1_555
C5E C4E 1_555 1_555
H3E C5E 1_555 1_555
C6E N2E 1_555 1_555
C7E N3E 1_555 1_555
C8E N3E 1_555 1_555
C9E C8E 1_555 1_555
H4E C9E 1_555 1_555
C10E C9E 1_555 1_555
C11E C10E 1_555 1_555
H5E C11E 1_555 1_555
C12E C11E 1_555 1_555
C13E C8E 1_555 1_555
H6E C13E 1_555 1_555
C14E C10E 1_555 1_555
C15E O4E 1_555 1_555
C16E N1E 1_555 1_555
C17E C16E 1_555 1_555
H7E C17E 1_555 1_555
C18E C17E 1_555 1_555
C19E C18E 1_555 1_555
H8E C19E 1_555 1_555
C20E C19E 1_555 1_555
C21E C16E 1_555 1_555
H9E C21E 1_555 1_555
C22E C18E 1_555 1_555
C23E O9E 1_555 1_555
O17E Zn3 1_555 1_555
O17D Zn3A 1_555 1_555
Zn1_2 O7 1_555 1_555
Zn1A_2 O7A 1_555 1_555
Zn1D_2 O7D 1_555 1_555
Zn1E_2 O7E 1_555 1_555
Zn2_2 O5E 1_555 1_555
Zn2A_2 O5D 1_555 1_555
Zn2B O9A 1_555 1_555
Zn2C O9 1_555 1_555
Zn3_2 O6E 1_555 1_555
Zn3A_2 O6D 1_555 1_555
Na1B O11A 1_555 1_555
Na1C O11 1_555 1_555
O5D_2 Zn2A 1_555 1_555
O5E_2 Zn2 1_555 1_555
O6D_2 Zn3A 1_555 1_555
O6E_2 Zn3 1_555 1_555
O7_2 Zn1 1_555 1_555
O7A_2 Zn1A 1_555 1_555
O7D_2 Zn1D 1_555 1_555
O7E_2 Zn1E 1_555 1_555
O9B Zn2A 1_555 1_555
O9C Zn2 1_555 1_555
O9F Zn2 1_555 1_555
O9G Zn2A 1_555 1_555
O11B Na1A 1_555 1_555
O11C Na1 1_555 1_555
Zn3 O11 1_555 1_555
C5 C6 1_555 1_555
C6 C7 1_555 1_555
C12 C13 1_555 1_555
C12 C15 1_555 1_555
C20 C21 1_555 1_555
C20 C23 1_555 1_555
Zn3A O11A 1_555 1_555
O10A C23A 1_555 1_555
C1A C2A 1_555 1_555
C5A C6A 1_555 1_555
C6A C7A 1_555 1_555
C12A C13A 1_555 1_555
C12A C15A 1_555 1_555
C20A C21A 1_555 1_555
C20A C23A 1_555 1_555
O9D Zn2B 1_555 1_555
O10D C23D 1_555 1_555
C5D C6D 1_555 1_555
C6D C7D 1_555 1_555
C12D C13D 1_555 1_555
C12D C15D 1_555 1_555
C20D C21D 1_555 1_555
C20D C23D 1_555 1_555
O9E Zn2C 1_555 1_555
O10E C23E 1_555 1_555
C1E C2E 1_555 1_555
C5E C6E 1_555 1_555
C6E C7E 1_555 1_555
C12E C13E 1_555 1_555
C12E C15E 1_555 1_555
C20E C21E 1_555 1_555
C20E C23E 1_555 1_555
Zn2B O11B 1_555 1_555
Zn2C O11C 1_555 1_555
Na1B O9B 1_555 1_555
Na1B O9G 1_555 1_555
Na1C O9C 1_555 1_555
Na1C O9F 1_555 1_555

#END
