
#######################################################################
#
#                 Cambridge Crystallographic Data Centre
#                                CCDC 
#
#######################################################################
#
# If this CIF has been generated from an entry in the Cambridge 
# Structural Database, then it will include bibliographic, chemical, 
# crystal, experimental, refinement or atomic coordinate data resulting 
# from the CCDC's data processing and validation procedures.
#
#######################################################################

data_AVIHOE
_chemical_formula_moiety         '(C9 H5 O7 Tm1)n'
_symmetry_cell_setting           tetragonal
_symmetry_space_group_name_H-M   'P 41 2 2'
_symmetry_Int_Tables_number      91
_space_group_name_Hall           'P 4w 2c'
loop_
_symmetry_equiv_pos_site_id
_symmetry_equiv_pos_as_xyz
1 x,y,z
2 -x,-y,1/2+z
3 x,-y,1/2-z
4 -x,y,-z
5 -y,-x,1/4-z
6 y,x,3/4-z
7 y,-x,3/4+z
8 -y,x,1/4+z
_cell_length_a                   10.2000(4)
_cell_length_b                   10.2000(4)
_cell_length_c                   14.4386(9)
_cell_angle_alpha                90
_cell_angle_beta                 90
_cell_angle_gamma                90
_cell_volume                     1502.19
loop_
_atom_site_label
_atom_site_type_symbol
_atom_site_fract_x
_atom_site_fract_y
_atom_site_fract_z
Tm1 Tm 0.14978(2) 0.85022(2) 0.1250
O1 O -0.6650(4) 0.9265(5) 0.1919(3)
O2 O -0.0648(4) 0.8852(5) 0.1001(3)
O3 O -0.2399(5) 0.9039(4) 0.0128(3)
C1 C -0.1811(6) 0.9115(6) 0.0898(4)
C2 C -0.2594(6) 0.9584(7) 0.1727(4)
C3 C -0.4625(8) 1.0000 0.2500
C4 C -0.3943(6) 0.9573(6) 0.1727(4)
H1 H -0.4407 0.9272 0.1198
C5 C -0.1918(8) 1.0000 0.2500
H2 H -0.0987 1.0000 0.2500
O4 O 0.3132(4) 0.6868(4) 0.1250
C6 C -0.6102(9) 1.0000 0.2500
O2B O -0.0648(4) 1.1148(5) 0.3999(3)
C1B C -0.1811(6) 1.0885(6) 0.4102(4)
C2B C -0.2594(6) 1.0416(7) 0.3273(4)
C4B C -0.3943(6) 1.0427(6) 0.3273(4)
H1B H -0.4407 1.0728 0.3802
O1B O -0.6650(4) 1.0735(5) 0.3081(3)
O3B O -0.2399(5) 1.0961(4) 0.4872(3)
Tm1_2 Tm -0.85022(2) 0.85022(2) 0.1250
Tm1A Tm -0.14978(2) 1.14978(2) 0.6250
Tm1B Tm -0.85022(2) 1.14978(2) 0.3750
Tm1B_2 Tm 0.14978(2) 1.14978(2) 0.3750
Tm1C Tm -0.14978(2) 0.85022(2) -0.1250
O1_2 O 0.3350(4) 0.9265(5) 0.1919(3)
O1D O 0.0735(5) 0.6650(4) 0.0581(3)
O2D O 0.1148(5) 1.0648(4) 0.1499(3)
O3C O 0.2399(5) 0.9039(4) -0.0128(3)
O3G O 0.0961(4) 0.7601(5) 0.2628(3)
loop_
_geom_bond_atom_site_label_1
_geom_bond_atom_site_label_2
_geom_bond_site_symmetry_1
_geom_bond_site_symmetry_2
Tm1 O2 1_555 1_555
O1 C6 1_555 1_555
O2 C1 1_555 1_555
O3 C1 1_555 1_555
C1 C2 1_555 1_555
C2 C4 1_555 1_555
C3 C4 1_555 1_555
C4 H1 1_555 1_555
C5 C2 1_555 1_555
H2 C5 1_555 1_555
O4 Tm1 1_555 1_555
C6 C3 1_555 1_555
O2B C1B 1_555 1_555
C1B C2B 1_555 1_555
C2B C5 1_555 1_555
C4B C3 1_555 1_555
H1B C4B 1_555 1_555
O1B C6 1_555 1_555
O3B C1B 1_555 1_555
Tm1_2 O1 1_555 1_555
Tm1A O3B 1_555 1_555
Tm1B O1B 1_555 1_555
Tm1B_2 O2B 1_555 1_555
Tm1C O3 1_555 1_555
O1_2 Tm1 1_555 1_555
O1D Tm1 1_555 1_555
O2D Tm1 1_555 1_555
O3C Tm1 1_555 1_555
O3G Tm1 1_555 1_555
C2B C4B 1_555 1_555

#END
