
#######################################################################
#
#                 Cambridge Crystallographic Data Centre
#                                CCDC 
#
#######################################################################
#
# If this CIF has been generated from an entry in the Cambridge 
# Structural Database, then it will include bibliographic, chemical, 
# crystal, experimental, refinement or atomic coordinate data resulting 
# from the CCDC's data processing and validation procedures.
#
#######################################################################

data_KUTRUO
_chemical_formula_moiety         '(C39 H50 Co1 N6 Na2 O22 Zn1 1+)n'
_symmetry_cell_setting           monoclinic
_symmetry_space_group_name_H-M   'C 2/c'
_symmetry_Int_Tables_number      15
_space_group_name_Hall           '-C 2yc'
loop_
_symmetry_equiv_pos_site_id
_symmetry_equiv_pos_as_xyz
1 x,y,z
2 -x,y,1/2-z
3 1/2+x,1/2+y,z
4 1/2-x,1/2+y,1/2-z
5 -x,-y,-z
6 x,-y,1/2+z
7 1/2-x,1/2-y,-z
8 1/2+x,1/2-y,1/2+z
_cell_length_a                   17.317(5)
_cell_length_b                   25.397(5)
_cell_length_c                   21.540(5)
_cell_angle_alpha                90
_cell_angle_beta                 94.431(5)
_cell_angle_gamma                90
_cell_volume                     9444.97
loop_
_atom_site_label
_atom_site_type_symbol
_atom_site_fract_x
_atom_site_fract_y
_atom_site_fract_z
_atom_site_U_iso_or_equiv
_atom_site_thermal_displace_type
Na1 Na -0.3760(5) 0.1407(3) -0.2792(3) 0.1914 Uani
O10 O -0.5000 0.1160(5) -0.2500 0.1438 Uani
O11 O -0.3783(5) 0.1962(4) -0.3875(5) 0.1645 Uani
O12 O -0.3446(11) 0.2135(7) -0.2219(7) 0.2566 Uani
O13 O -0.3786(15) 0.0900(9) -0.3508(12) 0.3577 Uani
O14 O -0.2415(17) 0.1518(12) -0.2655(14) 0.4221 Uani
O15 O -0.263(4) 0.081(2) -0.245(3) 0.6461 Uani
O16 O -0.4193(18) 0.0677(13) -0.2207(16) 0.4411 Uani
Na1A Na -0.6240(5) 0.1407(3) -0.2208(3) 0.1914 Uani
O11A O -0.6217(5) 0.1962(4) -0.1125(5) 0.1645 Uani
O12A O -0.6554(11) 0.2135(7) -0.2781(7) 0.2566 Uani
O13A O -0.6214(15) 0.0900(9) -0.1492(12) 0.3577 Uani
O14A O -0.7585(17) 0.1518(12) -0.2345(14) 0.4221 Uani
O15A O -0.737(4) 0.081(2) -0.255(3) 0.6461 Uani
O16A O -0.5807(18) 0.0677(13) -0.2793(16) 0.4411 Uani
C1 C -0.1270(3) -0.1897(2) -0.4344(3) 0.0537 Uani
H1 H -0.1718 -0.2072 -0.4523 0.0650 Uiso
C2 C -0.0685(4) -0.2188(2) -0.4040(4) 0.0708 Uani
H2 H -0.0730 -0.2560 -0.4014 0.0850 Uiso
C3 C -0.0054(4) -0.1944(3) -0.3782(4) 0.0794 Uani
H3 H 0.0348 -0.2143 -0.3568 0.0950 Uiso
C4 C 0.0009(4) -0.1408(3) -0.3827(4) 0.0682 Uani
H4 H 0.0459 -0.1233 -0.3652 0.0820 Uiso
C5 C -0.0587(3) -0.1128(2) -0.4127(3) 0.0476 Uani
C6 C -0.0595(3) -0.0544(2) -0.4178(3) 0.0505 Uani
C7 C -0.1343(3) 0.01796(19) -0.4539(3) 0.0463 Uani
C8 C -0.1278(4) 0.0464(2) -0.5087(3) 0.0510 Uani
H5 H -0.1100 0.0296 -0.5443 0.0610 Uiso
C9 C -0.1476(3) 0.0994(2) -0.5108(3) 0.0492 Uani
H6 H -0.1421 0.1189 -0.5478 0.0590 Uiso
C10 C -0.1750(3) 0.12379(19) -0.4605(3) 0.0445 Uani
C11 C -0.1806(4) 0.0957(2) -0.4058(3) 0.0526 Uani
H7 H -0.1982 0.1128 -0.3703 0.0630 Uiso
C12 C -0.1609(4) 0.0430(2) -0.4025(3) 0.0527 Uani
H8 H -0.1655 0.0239 -0.3650 0.0630 Uiso
C13 C -0.1959(3) 0.1810(2) -0.4644(3) 0.0456 Uani
C14 C -0.9300(4) 0.0862(2) -0.4278(3) 0.0554 Uani
H9 H -0.9503 0.0566 -0.4504 0.0670 Uiso
C15 C -0.9701(4) 0.1059(3) -0.3796(3) 0.0722 Uani
H10 H -1.0178 0.0905 -0.3702 0.0870 Uiso
C16 C -0.9401(5) 0.1477(3) -0.3459(4) 0.0867 Uani
H11 H -0.9668 0.1622 -0.3130 0.1040 Uiso
C17 C -0.8696(5) 0.1685(3) -0.3607(3) 0.0742 Uani
H12 H -0.8469 0.1968 -0.3370 0.0890 Uiso
C18 C -0.8331(4) 0.1481(2) -0.4094(3) 0.0517 Uani
C19 C -0.7587(3) 0.1683(2) -0.4286(3) 0.0503 Uani
C20 C -0.6608(3) 0.1576(2) -0.4974(3) 0.0519 Uani
C21 C -0.5982(4) 0.1289(3) -0.4753(4) 0.0733 Uani
H13 H -0.6038 0.0997 -0.4486 0.0880 Uiso
C22 C -0.5232(4) 0.1442(3) -0.4936(4) 0.0871 Uani
H14 H -0.4788 0.1252 -0.4776 0.1050 Uiso
C23 C -0.5143(4) 0.1849(3) -0.5332(4) 0.0801 Uani
C24 C -0.5770(5) 0.2123(3) -0.5543(5) 0.0860 Uani
H15 H -0.5716 0.2408 -0.5821 0.1030 Uiso
C25 C -0.6495(4) 0.1993(3) -0.5359(4) 0.0664 Uani
H16 H -0.6929 0.2200 -0.5506 0.0800 Uiso
C26 C -0.4339(6) 0.1999(3) -0.5558(4) 0.0819 Uani
C27 C -0.2588(5) 0.0226(2) -1.0864(3) 0.0701 Uani
H17 H -0.2282 0.0413 -1.1137 0.0840 Uiso
C28 C -0.3022(6) -0.0201(3) -1.1084(4) 0.0976 Uani
H18 H -0.3010 -0.0306 -1.1506 0.1170 Uiso
C29 C -0.3463(8) -0.0468(4) -1.0701(5) 0.1260 Uani
H19 H -0.3748 -0.0769 -1.0846 0.1510 Uiso
C30 C -0.3491(6) -0.0294(3) -1.0093(4) 0.1008 Uani
H20 H -0.3807 -0.0471 -0.9816 0.1210 Uiso
C31 C -0.3059(4) 0.0134(2) -0.9896(3) 0.0614 Uani
C32 C -0.3057(4) 0.0346(2) -0.9263(3) 0.0565 Uani
C33 C -0.2521(3) 0.0999(2) -0.8569(2) 0.0465 Uani
C34 C -0.3158(4) 0.1276(3) -0.8400(3) 0.0671 Uani
H21 H -0.3620 0.1286 -0.8669 0.0810 Uiso
C35 C -0.3120(4) 0.1538(3) -0.7836(4) 0.0803 Uani
H22 H -0.3557 0.1729 -0.7718 0.0960 Uiso
C36 C -0.2430(4) 0.1526(3) -0.7432(3) 0.0613 Uani
C37 C -0.1848(4) 0.1227(3) -0.7609(3) 0.0782 Uani
H23 H -0.1385 0.1205 -0.7343 0.0940 Uiso
C38 C -0.1893(4) 0.0950(3) -0.8157(3) 0.0703 Uani
H24 H -0.1482 0.0722 -0.8249 0.0840 Uiso
C39 C -0.2387(4) 0.1819(3) -0.6832(3) 0.0711 Uani
Co1 Co -0.19396(4) -0.09018(2) -0.48474(3) 0.0399 Uani
N1 N -0.1222(3) -0.13715(16) -0.4393(2) 0.0438 Uani
N2 N -0.1190(3) -0.03721(16) -0.4527(2) 0.0476 Uani
N3 N -0.8636(3) 0.10754(16) -0.4435(2) 0.0472 Uani
N4 N -0.7371(3) 0.14523(16) -0.4795(2) 0.0455 Uani
N5 N -0.2595(3) 0.03795(17) -1.0264(2) 0.0529 Uani
N6 N -0.2559(3) 0.07455(17) -0.9163(2) 0.0453 Uani
O1 O -0.0076(3) -0.02743(18) -0.3911(3) 0.0756 Uani
O2 O -0.2007(2) 0.20202(16) -0.5173(2) 0.0565 Uani
O3 O -0.2059(3) 0.20535(15) -0.4150(2) 0.0582 Uani
O4 O -0.7223(3) 0.20300(19) -0.3979(2) 0.0752 Uani
O5 O -0.4323(5) 0.2296(4) -0.5992(4) 0.1348 Uani
O6 O -0.3783(4) 0.1828(2) -0.5261(4) 0.1012 Uani
O7 O -0.3470(3) 0.0147(2) -0.8875(2) 0.0778 Uani
O8 O -0.1821(4) 0.2095(4) -0.6702(3) 0.1377 Uani
O9 O -0.2954(3) 0.1795(2) -0.6520(2) 0.0848 Uani
Zn1 Zn -0.29467(4) 0.21700(2) -0.57292(3) 0.0457 Uani
Co1D Co -0.80604(4) 0.09018(2) -0.51526(3) 0.0399 Uani
Co1E Co -0.19396(4) 0.09018(2) -0.98474(3) 0.0399 Uani
N3D N -0.1364(3) -0.10754(16) -0.5565(2) 0.0472 Uani
N4D N -0.2629(3) -0.14523(16) -0.5205(2) 0.0455 Uani
N5E N -0.2595(3) -0.03795(17) -0.5264(2) 0.0529 Uani
N6E N -0.2559(3) -0.07455(17) -0.4163(2) 0.0453 Uani
O3F O -0.2941(3) 0.29465(15) -0.5850(2) 0.0582 Uani
Zn1F Zn -0.20533(4) 0.28300(2) -0.42708(3) 0.0457 Uani
loop_
_atom_site_aniso_label
_atom_site_aniso_U_11
_atom_site_aniso_U_22
_atom_site_aniso_U_33
_atom_site_aniso_U_23
_atom_site_aniso_U_13
_atom_site_aniso_U_12
Na1 0.213(7) 0.196(6) 0.159(5) -0.004(5) -0.025(5) -0.009(5)
O10 0.208(11) 0.118(8) 0.113(7) 0.000 0.062(7) 0.000
O11 0.107(6) 0.172(8) 0.220(9) -0.015(7) 0.048(6) -0.021(5)
O12 0.284(14) 0.312(15) 0.172(10) -0.069(10) 0.006(10) -0.037(11)
O13 0.396(19) 0.318(17) 0.348(18) -0.018(15) -0.042(15) -0.047(15)
O14 0.40(2) 0.44(2) 0.42(2) -0.058(17) -0.009(17) 0.053(17)
O15 0.66(4) 0.65(3) 0.63(3) 0.05(2) 0.06(2) -0.02(2)
O16 0.41(2) 0.43(2) 0.48(2) -0.031(18) 0.013(17) 0.091(17)
Na1A 0.213 0.196 0.159 0.004 -0.025 0.009
O11A 0.107 0.172 0.22 0.015 0.048 0.021
O12A 0.284 0.312 0.172 0.069 0.006 0.037
O13A 0.396 0.318 0.348 0.018 -0.042 0.047
O14A 0.4 0.44 0.42 0.058 -0.009 -0.053
O15A 0.66 0.65 0.63 -0.05 0.06 0.02
O16A 0.41 0.43 0.48 0.031 0.013 -0.091
C1 0.055(3) 0.033(3) 0.072(4) 0.004(2) -0.003(3) -0.009(2)
C2 0.070(4) 0.044(3) 0.096(5) 0.012(3) -0.009(4) 0.001(3)
C3 0.058(4) 0.062(4) 0.115(6) 0.015(4) -0.014(4) 0.003(3)
C4 0.049(3) 0.067(4) 0.087(5) 0.003(3) -0.006(3) -0.007(3)
C5 0.043(3) 0.041(3) 0.059(3) 0.000(2) 0.005(2) -0.013(2)
C6 0.051(3) 0.041(3) 0.060(3) -0.004(2) 0.008(3) -0.012(2)
C7 0.056(3) 0.030(2) 0.054(3) -0.004(2) 0.012(2) -0.012(2)
C8 0.069(4) 0.033(3) 0.054(3) -0.006(2) 0.024(3) -0.008(2)
C9 0.064(3) 0.036(3) 0.049(3) 0.002(2) 0.014(3) -0.011(2)
C10 0.043(3) 0.034(2) 0.057(3) -0.006(2) 0.008(2) -0.010(2)
C11 0.067(4) 0.045(3) 0.047(3) -0.010(2) 0.013(3) -0.010(3)
C12 0.074(4) 0.040(3) 0.045(3) 0.001(2) 0.011(3) -0.010(3)
C13 0.031(2) 0.040(3) 0.067(3) -0.002(3) 0.011(2) -0.005(2)
C14 0.062(4) 0.047(3) 0.058(3) -0.004(2) 0.009(3) -0.021(3)
C15 0.071(4) 0.078(4) 0.071(4) -0.012(3) 0.028(3) -0.022(4)
C16 0.095(6) 0.091(5) 0.079(5) -0.033(4) 0.038(4) -0.026(4)
C17 0.087(5) 0.068(4) 0.070(4) -0.027(3) 0.022(4) -0.026(4)
C18 0.062(3) 0.041(3) 0.052(3) -0.003(2) 0.003(3) -0.013(2)
C19 0.057(3) 0.041(3) 0.053(3) -0.008(2) 0.004(2) -0.011(2)
C20 0.043(3) 0.040(3) 0.072(4) -0.006(3) -0.001(3) -0.007(2)
C21 0.057(4) 0.053(4) 0.108(6) -0.003(4) -0.005(4) 0.000(3)
C22 0.050(4) 0.087(6) 0.122(7) -0.032(5) -0.008(4) 0.020(4)
C23 0.069(5) 0.056(4) 0.118(6) -0.027(4) 0.025(4) -0.026(4)
C24 0.070(5) 0.072(5) 0.119(7) -0.001(4) 0.026(5) -0.018(4)
C25 0.056(4) 0.051(3) 0.093(5) 0.007(3) 0.011(3) -0.015(3)
C26 0.095(6) 0.066(5) 0.085(5) -0.010(4) 0.008(5) -0.018(4)
C27 0.107(6) 0.047(3) 0.054(4) -0.009(3) -0.008(4) 0.000(3)
C28 0.159(9) 0.072(5) 0.057(4) -0.014(4) -0.022(5) -0.024(5)
C29 0.208(13) 0.079(6) 0.085(6) -0.017(5) -0.027(7) -0.068(7)
C30 0.136(8) 0.071(5) 0.092(6) 0.003(4) -0.014(5) -0.051(5)
C31 0.080(4) 0.047(3) 0.055(3) 0.001(3) -0.009(3) -0.011(3)
C32 0.060(4) 0.045(3) 0.064(4) 0.002(3) 0.002(3) -0.007(3)
C33 0.049(3) 0.045(3) 0.046(3) -0.008(2) 0.007(2) 0.004(2)
C34 0.055(4) 0.076(4) 0.069(4) -0.012(3) -0.004(3) 0.015(3)
C35 0.058(4) 0.100(6) 0.083(5) -0.034(4) 0.006(3) 0.022(4)
C36 0.059(4) 0.071(4) 0.055(3) -0.019(3) 0.011(3) 0.010(3)
C37 0.063(4) 0.100(6) 0.069(4) -0.029(4) -0.012(3) 0.022(4)
C38 0.067(4) 0.082(5) 0.061(4) -0.021(3) 0.000(3) 0.029(3)
C39 0.060(4) 0.080(5) 0.074(4) -0.029(4) 0.010(3) 0.007(3)
Co1 0.0486(4) 0.0267(4) 0.0444(4) 0.0020(3) 0.0031(3) -0.0071(3)
N1 0.048(2) 0.034(2) 0.050(2) 0.0013(18) 0.0073(19) -0.0070(18)
N2 0.061(3) 0.029(2) 0.053(3) -0.0009(18) 0.006(2) -0.0105(19)
N3 0.057(3) 0.032(2) 0.053(3) -0.0028(18) 0.006(2) -0.0103(19)
N4 0.044(2) 0.035(2) 0.057(3) 0.0014(19) 0.001(2) -0.0052(18)
N5 0.074(3) 0.032(2) 0.051(3) -0.0002(19) -0.006(2) 0.006(2)
N6 0.052(3) 0.038(2) 0.046(2) -0.0054(18) 0.004(2) 0.0048(19)
O1 0.068(3) 0.053(2) 0.104(4) -0.013(2) -0.004(3) -0.024(2)
O2 0.049(2) 0.050(2) 0.072(3) 0.011(2) 0.0151(19) 0.0046(17)
O3 0.069(3) 0.039(2) 0.068(3) -0.0104(18) 0.014(2) 0.0046(18)
O4 0.078(3) 0.071(3) 0.077(3) -0.025(2) 0.009(2) -0.034(2)
O5 0.114(6) 0.146(7) 0.150(7) 0.006(6) 0.047(5) -0.046(5)
O6 0.074(4) 0.088(4) 0.145(6) -0.050(4) 0.030(4) -0.014(3)
O7 0.086(3) 0.072(3) 0.077(3) -0.001(2) 0.016(3) -0.031(3)
O8 0.096(5) 0.221(9) 0.099(5) -0.085(5) 0.026(4) -0.054(5)
O9 0.099(4) 0.090(4) 0.068(3) -0.033(3) 0.023(3) -0.015(3)
Zn1 0.0533(4) 0.0389(4) 0.0462(4) -0.0089(2) 0.0114(3) -0.0046(3)
Co1D 0.0486 0.0267 0.0444 0.002 0.0031 -0.0071
Co1E 0.0486 0.0267 0.0444 -0.002 0.0031 0.0071
N3D 0.057 0.032 0.053 -0.0028 0.006 -0.0103
N4D 0.044 0.035 0.057 0.0014 0.001 -0.0052
N5E 0.074 0.032 0.051 0.0002 -0.006 -0.006
N6E 0.052 0.038 0.046 0.0054 0.004 -0.0048
O3F 0.069 0.039 0.068 -0.0104 0.014 0.0046
Zn1F 0.0533 0.0389 0.0462 -0.0089 0.0114 -0.0046
loop_
_geom_bond_atom_site_label_1
_geom_bond_atom_site_label_2
_geom_bond_site_symmetry_1
_geom_bond_site_symmetry_2
C1 H1 1_555 1_555
C2 C1 1_555 1_555
H2 C2 1_555 1_555
C3 C2 1_555 1_555
H3 C3 1_555 1_555
C4 C3 1_555 1_555
H4 C4 1_555 1_555
C5 C4 1_555 1_555
C6 C5 1_555 1_555
C7 C8 1_555 1_555
C8 H5 1_555 1_555
C9 C8 1_555 1_555
H6 C9 1_555 1_555
C10 C9 1_555 1_555
C11 C10 1_555 1_555
H7 C11 1_555 1_555
C12 C7 1_555 1_555
H8 C12 1_555 1_555
C13 C10 1_555 1_555
C14 H9 1_555 1_555
C15 C14 1_555 1_555
H10 C15 1_555 1_555
C16 C15 1_555 1_555
H11 C16 1_555 1_555
C17 C16 1_555 1_555
H12 C17 1_555 1_555
C18 C17 1_555 1_555
C19 C18 1_555 1_555
C20 C21 1_555 1_555
C21 H13 1_555 1_555
C22 C21 1_555 1_555
H14 C22 1_555 1_555
C23 C22 1_555 1_555
C24 C23 1_555 1_555
H15 C24 1_555 1_555
C25 C20 1_555 1_555
H16 C25 1_555 1_555
C26 C23 1_555 1_555
C27 H17 1_555 1_555
C28 C27 1_555 1_555
H18 C28 1_555 1_555
C29 C28 1_555 1_555
H19 C29 1_555 1_555
C30 C29 1_555 1_555
H20 C30 1_555 1_555
C31 C30 1_555 1_555
C32 C31 1_555 1_555
C33 C34 1_555 1_555
C34 H21 1_555 1_555
C35 C34 1_555 1_555
H22 C35 1_555 1_555
C36 C35 1_555 1_555
C37 C36 1_555 1_555
H23 C37 1_555 1_555
C38 C33 1_555 1_555
H24 C38 1_555 1_555
C39 C36 1_555 1_555
Co1 N1 1_555 1_555
N1 C1 1_555 1_555
N2 C6 1_555 1_555
N3 C14 1_555 1_555
N4 C19 1_555 1_555
N5 C27 1_555 1_555
N6 C32 1_555 1_555
O1 C6 1_555 1_555
O2 C13 1_555 1_555
O3 C13 1_555 1_555
O4 C19 1_555 1_555
O5 C26 1_555 1_555
O6 C26 1_555 1_555
O7 C32 1_555 1_555
O8 C39 1_555 1_555
O9 C39 1_555 1_555
Zn1 O2 1_555 1_555
Na1 O10 1_555 1_555
O10 Na1A 1_555 1_555
O11 Na1 1_555 1_555
O12 Na1 1_555 1_555
O13 Na1 1_555 1_555
O14 Na1 1_555 1_555
O15 Na1 1_555 1_555
O16 Na1 1_555 1_555
Co1D N3 1_555 1_555
Co1E N5 1_555 1_555
N3D Co1 1_555 1_555
N4D Co1 1_555 1_555
N5E Co1 1_555 1_555
N6E Co1 1_555 1_555
O3F Zn1 1_555 1_555
Zn1F O3 1_555 1_555
Na1A O11A 1_555 1_555
O12A Na1A 1_555 1_555
O13A Na1A 1_555 1_555
O14A Na1A 1_555 1_555
O15A Na1A 1_555 1_555
O16A Na1A 1_555 1_555
C5 N1 1_555 1_555
C7 N2 1_555 1_555
C11 C12 1_555 1_555
C18 N3 1_555 1_555
C20 N4 1_555 1_555
C24 C25 1_555 1_555
C31 N5 1_555 1_555
C33 N6 1_555 1_555
C37 C38 1_555 1_555
Co1 N2 1_555 1_555
N4 Co1D 1_555 1_555
N6 Co1E 1_555 1_555
O5 Zn1 1_555 1_555
O6 Zn1 1_555 1_555
O9 Zn1 1_555 1_555

#END
