
#######################################################################
#
#                 Cambridge Crystallographic Data Centre
#                                CCDC 
#
#######################################################################
#
# If this CIF has been generated from an entry in the Cambridge 
# Structural Database, then it will include bibliographic, chemical, 
# crystal, experimental, refinement or atomic coordinate data resulting 
# from the CCDC's data processing and validation procedures.
#
#######################################################################

data_BIBBUL
_chemical_formula_moiety         '(C24 H28 N6 O6 Zn1)n'
_symmetry_cell_setting           orthorhombic
_symmetry_space_group_name_H-M   'P 21 21 21'
_symmetry_Int_Tables_number      19
_space_group_name_Hall           'P 2ac 2ab'
loop_
_symmetry_equiv_pos_site_id
_symmetry_equiv_pos_as_xyz
1 x,y,z
2 1/2-x,-y,1/2+z
3 -x,1/2+y,1/2-z
4 1/2+x,1/2-y,-z
_cell_length_a                   8.7076(14)
_cell_length_b                   15.686(3)
_cell_length_c                   19.368(3)
_cell_angle_alpha                90
_cell_angle_beta                 90
_cell_angle_gamma                90
_cell_volume                     2645.43
loop_
_atom_site_label
_atom_site_type_symbol
_atom_site_fract_x
_atom_site_fract_y
_atom_site_fract_z
_atom_site_U_iso_or_equiv
_atom_site_thermal_displace_type
Zn1 Zn 0.55705(8) 0.96223(5) 0.25761(4) 0.0392 Uani
N1 N 0.4313(7) 0.8611(3) 0.2869(3) 0.0410 Uani
N2 N 0.2973(6) 0.7431(4) 0.2791(3) 0.0433 Uani
N3 N -0.4358(6) 0.5698(3) 0.2422(3) 0.0413 Uani
N4 N -0.3026(6) 0.6840(4) 0.2684(4) 0.0487 Uani
N5 N 0.4747(7) 0.9290(4) 0.0063(3) 0.0507 Uani
N6 N 0.8127(7) 0.8415(4) -0.0452(3) 0.0457 Uani
O1 O 0.7073(7) 1.0341(4) 0.1142(3) 0.0673 Uani
O2 O 0.6446(6) 0.9169(3) 0.1712(3) 0.0530 Uani
O3 O 0.8829(6) 1.0167(4) -0.0945(3) 0.0543 Uani
O4 O 0.7503(5) 1.0201(3) -0.1911(3) 0.0503 Uani
C1 C 0.7024(8) 0.9557(5) 0.1207(4) 0.0460 Uani
C2 C 0.7812(8) 0.8977(5) 0.0690(4) 0.0417 Uani
C3 C 0.9004(8) 0.8473(5) 0.0923(4) 0.0527 Uani
H1 H 0.9285 0.8491 0.1386 0.0630 Uiso
C4 C 0.9771(9) 0.7952(5) 0.0483(4) 0.0577 Uani
H2 H 1.0584 0.7616 0.0635 0.0690 Uiso
C5 C 0.9295(10) 0.7937(5) -0.0211(4) 0.0553 Uani
H3 H 0.9811 0.7581 -0.0517 0.0660 Uiso
C6 C 0.7415(7) 0.8940(4) -0.0008(4) 0.0370 Uani
C7 C 0.6071(8) 0.9416(5) -0.0284(3) 0.0423 Uani
C8 C 0.6139(8) 0.9885(5) -0.0893(4) 0.0450 Uani
C9 C 0.4763(8) 1.0224(5) -0.1145(5) 0.0603 Uani
H4 H 0.4753 1.0540 -0.1551 0.0730 Uiso
C10 C 0.3431(10) 1.0088(6) -0.0787(5) 0.0683 Uani
H5 H 0.2509 1.0311 -0.0949 0.0820 Uiso
C11 C 0.3460(8) 0.9624(6) -0.0191(4) 0.0633 Uani
H6 H 0.2545 0.9537 0.0047 0.0760 Uiso
C12 C 0.7623(9) 1.0094(5) -0.1259(4) 0.0443 Uani
C13 C 0.4337(8) 0.8206(5) 0.3490(4) 0.0440 Uani
H7 H 0.4833 0.8403 0.3885 0.0530 Uiso
C14 C 0.3538(9) 0.7482(5) 0.3445(4) 0.0557 Uani
H8 H 0.3393 0.7085 0.3795 0.0670 Uiso
C15 C 0.3458(7) 0.8128(4) 0.2440(4) 0.0423 Uani
C16 C 0.3089(10) 0.8320(6) 0.1727(4) 0.0600 Uani
H9 H 0.2789 0.7806 0.1495 0.0900 Uiso
H10 H 0.3973 0.8559 0.1503 0.0900 Uiso
H11 H 0.2259 0.8722 0.1712 0.0900 Uiso
C17 C 0.2030(7) 0.6735(5) 0.2506(6) 0.0590 Uani
H12 H 0.2135 0.6236 0.2798 0.0710 Uiso
H13 H 0.2410 0.6588 0.2050 0.0710 Uiso
C18 C 0.0328(9) 0.6973(7) 0.2453(6) 0.0853 Uani
H14 H 0.0229 0.7464 0.2152 0.1030 Uiso
H15 H -0.0219 0.6504 0.2238 0.1030 Uiso
C19 C -0.0402(10) 0.7168(7) 0.3116(6) 0.0843 Uani
H16 H 0.0184 0.7615 0.3340 0.1010 Uiso
H17 H -0.0339 0.6665 0.3407 0.1010 Uiso
C20 C -0.2055(8) 0.7444(5) 0.3081(5) 0.0580 Uani
H18 H -0.2457 0.7493 0.3547 0.0700 Uiso
H19 H -0.2111 0.8002 0.2868 0.0700 Uiso
C21 C -0.3465(8) 0.6935(5) 0.2013(4) 0.0513 Uani
H20 H -0.3243 0.7393 0.1725 0.0620 Uiso
C22 C -0.4294(9) 0.6226(5) 0.1849(4) 0.0530 Uani
H21 H -0.4743 0.6115 0.1423 0.0640 Uiso
C23 C -0.3600(8) 0.6096(5) 0.2939(4) 0.0483 Uani
C24 C -0.3350(10) 0.5779(6) 0.3634(4) 0.0650 Uani
H22 H -0.4151 0.5385 0.3753 0.0970 Uiso
H23 H -0.3360 0.6248 0.3953 0.0970 Uiso
H24 H -0.2375 0.5495 0.3657 0.0970 Uiso
Zn1A Zn 0.94295(8) 1.03777(5) -0.24239(4) 0.0392 Uani
Zn1B Zn -0.55705(8) 0.46223(5) 0.24239(4) 0.0392 Uani
N3B N 0.4358(6) 1.0698(3) 0.2578(3) 0.0413 Uani
O4A O 0.7497(5) 0.9799(3) 0.3089(3) 0.0503 Uani
O5 O 0.624(2) 0.7366(17) 0.5043(15) 0.3480 Uiso
O6 O 0.9673(12) 0.0854(6) 0.0326(6) 0.1500 Uiso
H25 H 0.8915 0.0707 0.0567 0.1790 Uiso
H26 H 0.9427 0.0649 -0.0059 0.1790 Uiso
loop_
_atom_site_aniso_label
_atom_site_aniso_U_11
_atom_site_aniso_U_22
_atom_site_aniso_U_33
_atom_site_aniso_U_23
_atom_site_aniso_U_13
_atom_site_aniso_U_12
Zn1 0.0408(4) 0.0361(4) 0.0407(5) -0.0024(3) 0.0022(4) 0.0001(3)
N1 0.039(3) 0.040(3) 0.044(3) -0.002(2) 0.000(3) -0.006(3)
N2 0.033(3) 0.037(3) 0.060(4) -0.013(3) 0.002(3) -0.004(3)
N3 0.036(2) 0.037(3) 0.051(3) 0.003(3) 0.003(3) -0.001(2)
N4 0.037(3) 0.037(3) 0.072(5) -0.006(3) 0.001(3) -0.004(3)
N5 0.049(4) 0.055(4) 0.048(4) 0.000(3) 0.004(3) 0.004(3)
N6 0.053(3) 0.048(4) 0.036(3) -0.001(3) -0.002(3) 0.005(3)
O1 0.079(4) 0.053(4) 0.070(4) 0.004(3) 0.017(3) 0.001(3)
O2 0.060(3) 0.060(3) 0.039(3) -0.005(2) 0.003(3) -0.002(3)
O3 0.049(3) 0.063(4) 0.051(3) 0.003(3) -0.001(2) -0.010(3)
O4 0.050(3) 0.054(3) 0.047(3) 0.010(2) 0.008(2) 0.001(3)
C1 0.040(4) 0.058(5) 0.040(4) 0.001(4) -0.005(3) 0.005(4)
C2 0.046(4) 0.049(4) 0.030(4) 0.008(3) 0.003(3) -0.003(3)
C3 0.054(5) 0.061(5) 0.043(4) 0.001(4) 0.001(4) 0.013(4)
C4 0.056(5) 0.064(5) 0.053(5) 0.003(4) -0.003(4) 0.021(4)
C5 0.066(5) 0.044(4) 0.056(5) -0.007(3) 0.007(4) 0.001(4)
C6 0.040(3) 0.031(3) 0.040(4) 0.002(3) 0.007(3) -0.001(3)
C7 0.046(4) 0.055(4) 0.026(3) -0.002(3) 0.003(3) -0.001(3)
C8 0.050(4) 0.042(4) 0.043(4) 0.000(3) 0.001(3) -0.002(3)
C9 0.055(5) 0.065(5) 0.061(5) 0.013(4) 0.000(4) 0.023(4)
C10 0.051(5) 0.087(7) 0.067(6) 0.014(5) -0.002(4) 0.005(5)
C11 0.042(4) 0.088(6) 0.060(5) 0.005(5) 0.009(4) 0.008(5)
C12 0.051(4) 0.041(4) 0.041(4) 0.000(3) 0.011(4) 0.001(3)
C13 0.043(4) 0.052(4) 0.037(4) 0.004(3) -0.001(4) -0.005(4)
C14 0.052(4) 0.058(5) 0.057(5) 0.006(4) -0.002(4) -0.006(4)
C15 0.037(3) 0.038(4) 0.052(4) 0.002(3) 0.001(3) 0.002(3)
C16 0.065(5) 0.063(5) 0.052(5) -0.002(4) -0.010(4) -0.017(4)
C17 0.043(4) 0.044(4) 0.090(7) -0.024(5) -0.002(5) -0.011(3)
C18 0.045(5) 0.078(6) 0.133(10) -0.028(7) 0.012(7) -0.012(4)
C19 0.045(4) 0.096(7) 0.112(9) -0.043(6) 0.009(6) -0.009(5)
C20 0.036(4) 0.048(5) 0.090(7) -0.015(4) -0.003(4) -0.009(3)
C21 0.045(4) 0.050(5) 0.059(5) 0.016(4) -0.005(4) -0.002(4)
C22 0.045(4) 0.067(5) 0.047(4) 0.002(4) -0.003(4) -0.010(4)
C23 0.036(4) 0.047(4) 0.062(5) 0.006(4) 0.000(4) -0.010(3)
C24 0.067(5) 0.079(6) 0.049(5) 0.004(4) -0.005(4) -0.013(5)
Zn1A 0.0408 0.0361 0.0407 0.0024 -0.0022 0.0001
Zn1B 0.0408 0.0361 0.0407 0.0024 0.0022 -0.0001
N3B 0.036 0.037 0.051 -0.003 0.003 0.001
O4A 0.05 0.054 0.047 -0.01 -0.008 0.001
loop_
_geom_bond_atom_site_label_1
_geom_bond_atom_site_label_2
_geom_bond_site_symmetry_1
_geom_bond_site_symmetry_2
Zn1 N1 1_555 1_555
N1 C13 1_555 1_555
N2 C14 1_555 1_555
N3 C22 1_555 1_555
N4 C20 1_555 1_555
N5 C7 1_555 1_555
N6 C5 1_555 1_555
O1 C1 1_555 1_555
O2 Zn1 1_555 1_555
O3 C12 1_555 1_555
O4 C12 1_555 1_555
C1 O2 1_555 1_555
C2 C1 1_555 1_555
C3 C2 1_555 1_555
H1 C3 1_555 1_555
C4 C3 1_555 1_555
H2 C4 1_555 1_555
C5 C4 1_555 1_555
H3 C5 1_555 1_555
C6 N6 1_555 1_555
C7 C6 1_555 1_555
C8 C7 1_555 1_555
C9 C8 1_555 1_555
H4 C9 1_555 1_555
C10 C9 1_555 1_555
H5 C10 1_555 1_555
C11 N5 1_555 1_555
H6 C11 1_555 1_555
C12 C8 1_555 1_555
C13 H7 1_555 1_555
C14 C13 1_555 1_555
H8 C14 1_555 1_555
C15 N1 1_555 1_555
C16 C15 1_555 1_555
H9 C16 1_555 1_555
H10 C16 1_555 1_555
H11 C16 1_555 1_555
C17 N2 1_555 1_555
H12 C17 1_555 1_555
H13 C17 1_555 1_555
C18 C17 1_555 1_555
H14 C18 1_555 1_555
H15 C18 1_555 1_555
C19 C18 1_555 1_555
H16 C19 1_555 1_555
H17 C19 1_555 1_555
C20 C19 1_555 1_555
H18 C20 1_555 1_555
H19 C20 1_555 1_555
C21 N4 1_555 1_555
H20 C21 1_555 1_555
C22 C21 1_555 1_555
H21 C22 1_555 1_555
C23 N3 1_555 1_555
C24 C23 1_555 1_555
H22 C24 1_555 1_555
H23 C24 1_555 1_555
H24 C24 1_555 1_555
O6 H25 1_555 1_555
H26 O6 1_555 1_555
Zn1A O4 1_555 1_555
Zn1B N3 1_555 1_555
N3B Zn1 1_555 1_555
O4A Zn1 1_555 1_555
N2 C15 1_555 1_555
N4 C23 1_555 1_555
C2 C6 1_555 1_555
C10 C11 1_555 1_555

#END
