
#######################################################################
#
#                 Cambridge Crystallographic Data Centre
#                                CCDC 
#
#######################################################################
#
# If this CIF has been generated from an entry in the Cambridge 
# Structural Database, then it will include bibliographic, chemical, 
# crystal, experimental, refinement or atomic coordinate data resulting 
# from the CCDC's data processing and validation procedures.
#
#######################################################################

data_PITPEP
_chemical_formula_moiety         '(C12 H20 Al1 O10 P3)n'
_symmetry_cell_setting           rhombohedral
_symmetry_space_group_name_H-M   'R -3'
_symmetry_Int_Tables_number      148
_space_group_name_Hall           '-R 3'
loop_
_symmetry_equiv_pos_site_id
_symmetry_equiv_pos_as_xyz
1 x,y,z
2 -y,x-y,z
3 -x+y,-x,z
4 2/3+x,1/3+y,1/3+z
5 2/3-y,1/3+x-y,1/3+z
6 2/3-x+y,1/3-x,1/3+z
7 1/3+x,2/3+y,2/3+z
8 1/3-y,2/3+x-y,2/3+z
9 1/3-x+y,2/3-x,2/3+z
10 -x,-y,-z
11 y,-x+y,-z
12 x-y,x,-z
13 1/3-x,2/3-y,2/3-z
14 1/3+y,2/3-x+y,2/3-z
15 1/3+x-y,2/3+x,2/3-z
16 2/3-x,1/3-y,1/3-z
17 2/3+y,1/3-x+y,1/3-z
18 2/3+x-y,1/3+x,1/3-z
_cell_length_a                   35.285(3)
_cell_length_b                   35.285(3)
_cell_length_c                   12.398(3)
_cell_angle_alpha                90
_cell_angle_beta                 90
_cell_angle_gamma                120
_cell_volume                     13367.9
loop_
_atom_site_label
_atom_site_type_symbol
_atom_site_fract_x
_atom_site_fract_y
_atom_site_fract_z
_atom_site_U_iso_or_equiv
_atom_site_thermal_displace_type
Al1 Al 0.02308(4) 0.70867(4) 0.25457(9) 0.0235 Uani
O1 O -0.00001(9) 0.71804(9) 0.1159(2) 0.0325 Uani
H1 H -0.0275 0.7050 0.1259 0.0390 Uiso
H2 H -0.0052 0.6992 0.0669 0.0390 Uiso
O2 O 0.08201(9) 0.74419(9) 0.5432(2) 0.0333 Uani
H3 H 0.0920 0.7618 0.4934 0.0500 Uiso
O3 O 0.04187(9) 0.69684(9) 0.3836(2) 0.0286 Uani
O4 O 0.02033(9) 0.66922(9) 0.5748(2) 0.0278 Uani
O5 O 0.21548(9) 0.85873(9) 0.2601(2) 0.0322 Uani
O6 O 0.19705(9) 0.85023(9) 0.4579(2) 0.0338 Uani
H4 H 0.1727 0.8360 0.4309 0.0510 Uiso
O7 O 0.27456(9) 0.89704(9) 0.4000(2) 0.0327 Uani
O8 O 0.11867(10) 0.76177(9) 0.0475(2) 0.0392 Uani
H5 H 0.1231 0.7767 0.1018 0.0590 Uiso
O9 O 0.07002(9) 0.68870(9) -0.0217(2) 0.0288 Uani
O10 O 0.06452(8) 0.70414(9) 0.1742(2) 0.0274 Uani
P1 P 0.05678(4) 0.69682(4) 0.49686(8) 0.0257 Uani
P2 P 0.23232(4) 0.85723(4) 0.37317(9) 0.0288 Uani
P3 P 0.09341(4) 0.71243(4) 0.07884(9) 0.0269 Uani
C1 C 0.13243(13) 0.70311(13) 0.4190(3) 0.0269 Uani
C2 C 0.17032(13) 0.74282(14) 0.4421(3) 0.0279 Uani
C3 C 0.19883(13) 0.76713(13) 0.3576(3) 0.0260 Uani
C4 C 0.18845(14) 0.75189(14) 0.2505(3) 0.0277 Uani
C5 C 0.15024(13) 0.71181(14) 0.2290(3) 0.0264 Uani
C6 C 0.12402(13) 0.68620(13) 0.3140(3) 0.0274 Uani
C7 C 0.09655(13) 0.67905(14) 0.5029(3) 0.0311 Uani
H6 H 0.1095 0.6847 0.5743 0.0370 Uiso
H7 H 0.0822 0.6478 0.4897 0.0370 Uiso
C8 C 0.18116(15) 0.75854(15) 0.5579(3) 0.0399 Uani
H8 H 0.1583 0.7382 0.6046 0.0610 Uiso
H9 H 0.1836 0.7868 0.5642 0.0610 Uiso
H10 H 0.2084 0.7606 0.5780 0.0610 Uiso
C9 C 0.23996(13) 0.81065(13) 0.3814(3) 0.0306 Uani
H11 H 0.2626 0.8146 0.3307 0.0370 Uiso
H12 H 0.2502 0.8094 0.4532 0.0370 Uiso
C10 C 0.21845(15) 0.77766(15) 0.1582(4) 0.0437 Uani
H13 H 0.2429 0.8040 0.1856 0.0660 Uiso
H14 H 0.2026 0.7850 0.1072 0.0660 Uiso
H15 H 0.2288 0.7603 0.1232 0.0660 Uiso
C11 C 0.13424(14) 0.69791(14) 0.1141(3) 0.0338 Uani
H16 H 0.1218 0.6665 0.1072 0.0400 Uiso
H17 H 0.1588 0.7121 0.0647 0.0400 Uiso
C12 C 0.08679(14) 0.64012(14) 0.2953(4) 0.0416 Uani
H18 H 0.0852 0.6331 0.2200 0.0620 Uiso
H19 H 0.0598 0.6381 0.3177 0.0620 Uiso
H20 H 0.0918 0.6199 0.3363 0.0620 Uiso
Al1D Al -0.04200(4) 0.64774(6) 0.58790(9) 0.0235 Uani
Al1H Al 0.01892(6) 0.64359(4) -0.07876(9) 0.0235 Uani
Al1L Al 0.31025(4) 0.95800(4) 0.41210(9) 0.0235 Uani
O4H O -0.01778(13) 0.64634(9) 0.2415(2) 0.0278 Uani
O7L O 0.05877(9) 0.76963(9) 0.2667(2) 0.0327 Uani
O9D O -0.02203(9) 0.71465(13) 0.3116(2) 0.0288 Uani
loop_
_atom_site_aniso_label
_atom_site_aniso_U_11
_atom_site_aniso_U_22
_atom_site_aniso_U_33
_atom_site_aniso_U_23
_atom_site_aniso_U_13
_atom_site_aniso_U_12
Al1 0.0225(7) 0.0279(7) 0.0197(6) -0.0001(6) -0.0001(5) 0.0124(6)
O1 0.0353(18) 0.0396(19) 0.0235(16) -0.0042(14) -0.0033(14) 0.0195(16)
O2 0.0375(19) 0.0335(18) 0.0259(16) -0.0046(14) -0.0020(14) 0.0156(15)
O3 0.0292(17) 0.0380(18) 0.0201(15) 0.0006(13) -0.0036(13) 0.0180(15)
O4 0.0263(17) 0.0359(18) 0.0228(15) 0.0008(13) 0.0021(13) 0.0167(15)
O5 0.0304(17) 0.0308(18) 0.0310(17) 0.0036(14) -0.0019(14) 0.0120(15)
O6 0.0258(17) 0.0328(18) 0.0354(17) -0.0085(14) -0.0041(14) 0.0091(15)
O7 0.0270(17) 0.0262(17) 0.0361(17) -0.0022(14) -0.0032(14) 0.0067(14)
O8 0.047(2) 0.0268(18) 0.0312(17) -0.0036(14) 0.0066(15) 0.0089(16)
O9 0.0273(17) 0.0305(17) 0.0205(15) -0.0022(13) 0.0002(13) 0.0084(14)
O10 0.0267(17) 0.0323(17) 0.0243(15) 0.0011(13) 0.0039(13) 0.0155(14)
P1 0.0247(6) 0.0329(7) 0.0213(6) 0.0009(5) 0.0001(5) 0.0157(6)
P2 0.0274(7) 0.0272(7) 0.0292(6) -0.0036(5) -0.0030(5) 0.0116(6)
P3 0.0246(6) 0.0281(7) 0.0234(6) -0.0020(5) 0.0020(5) 0.0098(6)
C1 0.025(2) 0.029(3) 0.030(2) 0.000(2) 0.000(2) 0.016(2)
C2 0.029(3) 0.029(3) 0.029(2) -0.005(2) -0.002(2) 0.017(2)
C3 0.026(2) 0.025(2) 0.030(2) -0.003(2) -0.002(2) 0.015(2)
C4 0.026(2) 0.033(3) 0.031(2) 0.001(2) 0.000(2) 0.020(2)
C5 0.024(2) 0.028(3) 0.030(2) -0.007(2) -0.003(2) 0.015(2)
C6 0.024(2) 0.024(2) 0.037(3) -0.004(2) -0.003(2) 0.014(2)
C7 0.030(3) 0.034(3) 0.032(2) 0.003(2) -0.001(2) 0.018(2)
C8 0.040(3) 0.046(3) 0.025(2) -0.004(2) -0.005(2) 0.015(3)
C9 0.027(3) 0.031(3) 0.033(3) -0.001(2) -0.002(2) 0.014(2)
C10 0.035(3) 0.047(3) 0.035(3) -0.004(2) 0.009(2) 0.010(3)
C11 0.028(3) 0.037(3) 0.032(3) -0.007(2) 0.000(2) 0.013(2)
C12 0.036(3) 0.034(3) 0.046(3) -0.005(2) 0.003(2) 0.011(2)
Al1D 0.0279 0.0256 0.0197 0 0.0001 0.0155
Al1H 0.0256 0.0225 0.0197 0.0001 0 0.0101
Al1L 0.0225 0.0279 0.0197 -0.0001 -0.0001 0.0124
O4H 0.0288 0.0263 0.0228 -0.0021 -0.0013 0.0096
O7L 0.027 0.0262 0.0361 -0.0022 -0.0032 0.0067
O9D 0.0305 0.041 0.0205 0.0024 0.0022 0.0221
loop_
_geom_bond_atom_site_label_1
_geom_bond_atom_site_label_2
_geom_bond_site_symmetry_1
_geom_bond_site_symmetry_2
Al1 O1 1_555 1_555
O1 H1 1_555 1_555
H2 O1 1_555 1_555
O2 H3 1_555 1_555
O3 Al1 1_555 1_555
O4 P1 1_555 1_555
O5 P2 1_555 1_555
O6 H4 1_555 1_555
O7 P2 1_555 1_555
O8 H5 1_555 1_555
O9 P3 1_555 1_555
O10 Al1 1_555 1_555
P1 O2 1_555 1_555
P2 O6 1_555 1_555
P3 O8 1_555 1_555
C1 C2 1_555 1_555
C2 C3 1_555 1_555
C3 C4 1_555 1_555
C4 C5 1_555 1_555
C5 C6 1_555 1_555
C6 C1 1_555 1_555
C7 P1 1_555 1_555
H6 C7 1_555 1_555
H7 C7 1_555 1_555
C8 C2 1_555 1_555
H8 C8 1_555 1_555
H9 C8 1_555 1_555
H10 C8 1_555 1_555
C9 P2 1_555 1_555
H11 C9 1_555 1_555
H12 C9 1_555 1_555
C10 C4 1_555 1_555
H13 C10 1_555 1_555
H14 C10 1_555 1_555
H15 C10 1_555 1_555
C11 P3 1_555 1_555
H16 C11 1_555 1_555
H17 C11 1_555 1_555
C12 C6 1_555 1_555
H18 C12 1_555 1_555
H19 C12 1_555 1_555
H20 C12 1_555 1_555
Al1D O4 1_555 1_555
Al1H O9 1_555 1_555
Al1L O7 1_555 1_555
O4H Al1 1_555 1_555
O7L Al1 1_555 1_555
O9D Al1 1_555 1_555
O3 P1 1_555 1_555
O10 P3 1_555 1_555
C1 C7 1_555 1_555
C3 C9 1_555 1_555
C5 C11 1_555 1_555

#END
