
#######################################################################
#
#                 Cambridge Crystallographic Data Centre
#                                CCDC 
#
#######################################################################
#
# If this CIF has been generated from an entry in the Cambridge 
# Structural Database, then it will include bibliographic, chemical, 
# crystal, experimental, refinement or atomic coordinate data resulting 
# from the CCDC's data processing and validation procedures.
#
#######################################################################

data_AWUPOZ
_chemical_formula_moiety         'C100 H52 In8 Mn1 N6 O30'
_symmetry_cell_setting           orthorhombic
_symmetry_space_group_name_H-M   'P n n m'
_symmetry_Int_Tables_number      58
_space_group_name_Hall           '-P 2 2n'
loop_
_symmetry_equiv_pos_site_id
_symmetry_equiv_pos_as_xyz
1 x,y,z
2 -x,-y,z
3 1/2-x,1/2+y,1/2-z
4 1/2+x,1/2-y,1/2-z
5 -x,-y,-z
6 x,y,-z
7 1/2+x,1/2-y,1/2+z
8 1/2-x,1/2+y,1/2+z
_cell_length_a                   23.4939(13)
_cell_length_b                   23.4954(14)
_cell_length_c                   31.9724(18)
_cell_angle_alpha                90
_cell_angle_beta                 90
_cell_angle_gamma                90
_cell_volume                     17648.7
loop_
_atom_site_label
_atom_site_type_symbol
_atom_site_fract_x
_atom_site_fract_y
_atom_site_fract_z
In1 In 0.5000 0.0000 0.750014(11)
Mn1 Mn 0.5000 0.5000 0.5000
O1 O 0.46901(14) 0.09070(13) 0.76008(10)
N1 N 0.43851(16) 0.43921(17) 0.5000
O2 O 0.48221(12) 0.06064(13) 0.69547(10)
O3 O 0.09071(13) 0.46928(15) 0.76009(11)
O4 O 0.06053(12) 0.48218(12) 0.69505(10)
C1 C 0.46801(16) 0.09864(18) 0.72049(19)
N2 N 0.4915(5) 0.5041(10) 0.56224(16)
O5 O 0.4325(2) 0.5680(2) 0.5000
C2 C 0.42675(15) 0.42669(16) 0.57532(12)
C3 C 0.44880(16) 0.15612(17) 0.70376(15)
C4 C 0.41064(17) 0.26062(17) 0.67391(14)
C5 C 0.41435(15) 0.41494(15) 0.53498(12)
C6 C 0.4286(2) 0.1962(2) 0.73139(15)
H1 H 0.4283 0.1887 0.7599
C7 C 0.26056(16) 0.41037(18) 0.67403(14)
C8 C 0.38794(16) 0.31538(16) 0.65700(12)
C9 C 0.39504(16) 0.39488(17) 0.60981(11)
C10 C 0.31525(16) 0.38749(18) 0.65673(12)
C11 C 0.33919(17) 0.33916(18) 0.67228(13)
H2 H 0.3213 0.3213 0.6946
C12 C 0.34448(16) 0.41733(18) 0.62529(12)
H3 H 0.3303 0.4515 0.6150
C13 C 0.1972(2) 0.4284(2) 0.73094(15)
H4 H 0.1904 0.4289 0.7596
C14 C 0.46738(15) 0.46801(17) 0.58890(11)
C15 C 0.40808(19) 0.2497(2) 0.71579(15)
H5 H 0.3932 0.2766 0.7341
C16 C 0.24837(19) 0.4070(2) 0.71620(15)
H6 H 0.2743 0.3905 0.7345
C17 C 0.4517(2) 0.16756(19) 0.66157(15)
H7 H 0.4655 0.1402 0.6432
C18 C 0.4339(2) 0.2202(2) 0.64655(15)
H8 H 0.4375 0.2287 0.6182
C19 C 0.41790(16) 0.34395(17) 0.62525(11)
H9 H 0.4519 0.3295 0.6148
C20 C 0.21928(19) 0.4344(2) 0.64656(15)
H10 H 0.2272 0.4378 0.6182
C21 C 0.37367(18) 0.37413(19) 0.52128(11)
H11 H 0.3511 0.3515 0.5384
C22 C 0.16787(18) 0.4524(2) 0.66208(16)
H12 H 0.1407 0.4671 0.6439
C23 C 0.47986(19) 0.4804(2) 0.63120(14)
H13 H 0.4629 0.4641 0.6546
C24 C 0.09880(19) 0.46797(18) 0.7212(2)
C25 C 0.15580(17) 0.44911(18) 0.70378(16)
O1A O 0.53099(14) 0.90930(13) 0.76008(10)
N1A N 0.56149(16) 0.56079(17) 0.5000
O2A O 0.51779(12) 0.93936(13) 0.69547(10)
O3A O 0.90929(13) 0.53072(15) 0.76009(11)
O4A O 0.93947(12) 0.51782(12) 0.69505(10)
C1A C 0.53199(16) 0.90136(18) 0.72049(19)
N2A N 0.5085(5) 0.4959(10) 0.56224(16)
C2A C 0.57325(15) 0.57331(16) 0.57532(12)
C3A C 0.55120(16) 0.84388(17) 0.70376(15)
C4A C 0.58936(17) 0.73938(17) 0.67391(14)
C5A C 0.58565(15) 0.58506(15) 0.53498(12)
C6A C 0.5714(2) 0.8038(2) 0.73139(15)
H1A H 0.5717 0.8113 0.7599
C7A C 0.73944(16) 0.58963(18) 0.67403(14)
C8A C 0.61206(16) 0.68462(16) 0.65700(12)
C9A C 0.60496(16) 0.60512(17) 0.60981(11)
C10A C 0.68475(16) 0.61251(18) 0.65673(12)
C11A C 0.66081(17) 0.66084(18) 0.67228(13)
H2A H 0.6787 0.6787 0.6946
C12A C 0.65552(16) 0.58267(18) 0.62529(12)
H3A H 0.6697 0.5485 0.6150
C13A C 0.8028(2) 0.5716(2) 0.73094(15)
H4A H 0.8096 0.5711 0.7596
C14A C 0.53262(15) 0.53199(17) 0.58890(11)
C15A C 0.59192(19) 0.7503(2) 0.71579(15)
H5A H 0.6068 0.7234 0.7341
C16A C 0.75163(19) 0.5930(2) 0.71620(15)
H6A H 0.7257 0.6095 0.7345
C17A C 0.5483(2) 0.83244(19) 0.66157(15)
H7A H 0.5345 0.8598 0.6432
C18A C 0.5661(2) 0.7798(2) 0.64655(15)
H8A H 0.5625 0.7713 0.6182
C19A C 0.58210(16) 0.65605(17) 0.62525(11)
H9A H 0.5481 0.6705 0.6148
C20A C 0.78072(19) 0.5656(2) 0.64656(15)
H10A H 0.7728 0.5622 0.6182
C21A C 0.62633(18) 0.62587(19) 0.52128(11)
H11A H 0.6489 0.6485 0.5384
C22A C 0.83213(18) 0.5476(2) 0.66208(16)
H12A H 0.8593 0.5329 0.6439
C23A C 0.52014(19) 0.5196(2) 0.63120(14)
H13A H 0.5371 0.5359 0.6546
C24A C 0.90120(19) 0.53203(18) 0.7212(2)
C25A C 0.84420(17) 0.55089(18) 0.70378(16)
O1D O 0.53099(14) 0.90930(13) 0.23992(10)
O2D O 0.51779(12) 0.93936(13) 0.30453(10)
O3D O 0.90929(13) 0.53072(15) 0.23991(11)
O4D O 0.93947(12) 0.51782(12) 0.30495(10)
C1D C 0.53199(16) 0.90136(18) 0.27951(19)
N2D N 0.5085(5) 0.4959(10) 0.43776(16)
C2D C 0.57325(15) 0.57331(16) 0.42468(12)
C3D C 0.55120(16) 0.84388(17) 0.29624(15)
C4D C 0.58936(17) 0.73938(17) 0.32609(14)
C5D C 0.58565(15) 0.58506(15) 0.46502(12)
C6D C 0.5714(2) 0.8038(2) 0.26861(15)
H1D H 0.5717 0.8113 0.2401
C7D C 0.73944(16) 0.58963(18) 0.32597(14)
C8D C 0.61206(16) 0.68462(16) 0.34300(12)
C9D C 0.60496(16) 0.60512(17) 0.39019(11)
C10D C 0.68475(16) 0.61251(18) 0.34327(12)
C11D C 0.66081(17) 0.66084(18) 0.32772(13)
H2D H 0.6787 0.6787 0.3054
C12D C 0.65552(16) 0.58267(18) 0.37471(12)
H3D H 0.6697 0.5485 0.3850
C13D C 0.8028(2) 0.5716(2) 0.26906(15)
H4D H 0.8096 0.5711 0.2404
C14D C 0.53262(15) 0.53199(17) 0.41110(11)
C15D C 0.59192(19) 0.7503(2) 0.28421(15)
H5D H 0.6068 0.7234 0.2659
C16D C 0.75163(19) 0.5930(2) 0.28380(15)
H6D H 0.7257 0.6095 0.2655
C17D C 0.5483(2) 0.83244(19) 0.33843(15)
H7D H 0.5345 0.8598 0.3568
C18D C 0.5661(2) 0.7798(2) 0.35345(15)
H8D H 0.5625 0.7713 0.3818
C19D C 0.58210(16) 0.65605(17) 0.37475(11)
H9D H 0.5481 0.6705 0.3852
C20D C 0.78072(19) 0.5656(2) 0.35344(15)
H10D H 0.7728 0.5622 0.3818
C21D C 0.62633(18) 0.62587(19) 0.47872(11)
H11D H 0.6489 0.6485 0.4616
C22D C 0.83213(18) 0.5476(2) 0.33792(16)
H12D H 0.8593 0.5329 0.3561
C23D C 0.52014(19) 0.5196(2) 0.36880(14)
H13D H 0.5371 0.5359 0.3454
C24D C 0.90120(19) 0.53203(18) 0.2788(2)
C25D C 0.84420(17) 0.55089(18) 0.29622(16)
O1E O 0.46901(14) 0.09070(13) 0.23992(10)
O2E O 0.48221(12) 0.06064(13) 0.30453(10)
O3E O 0.09071(13) 0.46928(15) 0.23991(11)
O4E O 0.06053(12) 0.48218(12) 0.30495(10)
C1E C 0.46801(16) 0.09864(18) 0.27951(19)
N2E N 0.4915(5) 0.5041(10) 0.43776(16)
C2E C 0.42675(15) 0.42669(16) 0.42468(12)
C3E C 0.44880(16) 0.15612(17) 0.29624(15)
C4E C 0.41064(17) 0.26062(17) 0.32609(14)
C5E C 0.41435(15) 0.41494(15) 0.46502(12)
C6E C 0.4286(2) 0.1962(2) 0.26861(15)
H1E H 0.4283 0.1887 0.2401
C7E C 0.26056(16) 0.41037(18) 0.32597(14)
C8E C 0.38794(16) 0.31538(16) 0.34300(12)
C9E C 0.39504(16) 0.39488(17) 0.39019(11)
C10E C 0.31525(16) 0.38749(18) 0.34327(12)
C11E C 0.33919(17) 0.33916(18) 0.32772(13)
H2E H 0.3213 0.3213 0.3054
C12E C 0.34448(16) 0.41733(18) 0.37471(12)
H3E H 0.3303 0.4515 0.3850
C13E C 0.1972(2) 0.4284(2) 0.26906(15)
H4E H 0.1904 0.4289 0.2404
C14E C 0.46738(15) 0.46801(17) 0.41110(11)
C15E C 0.40808(19) 0.2497(2) 0.28421(15)
H5E H 0.3932 0.2766 0.2659
C16E C 0.24837(19) 0.4070(2) 0.28380(15)
H6E H 0.2743 0.3905 0.2655
C17E C 0.4517(2) 0.16756(19) 0.33843(15)
H7E H 0.4655 0.1402 0.3568
C18E C 0.4339(2) 0.2202(2) 0.35345(15)
H8E H 0.4375 0.2287 0.3818
C19E C 0.41790(16) 0.34395(17) 0.37475(11)
H9E H 0.4519 0.3295 0.3852
C20E C 0.21928(19) 0.4344(2) 0.35344(15)
H10E H 0.2272 0.4378 0.3818
C21E C 0.37367(18) 0.37413(19) 0.47872(11)
H11E H 0.3511 0.3515 0.4616
C22E C 0.16787(18) 0.4524(2) 0.33792(16)
H12E H 0.1407 0.4671 0.3561
C23E C 0.47986(19) 0.4804(2) 0.36880(14)
H13E H 0.4629 0.4641 0.3454
C24E C 0.09880(19) 0.46797(18) 0.2788(2)
C25E C 0.15580(17) 0.44911(18) 0.29622(16)
In1D In 0.5000 0.0000 0.249986(11)
O5A O 0.5675(2) 0.4320(2) 0.5000
In1_2 In 0.5000 1.0000 0.750014(11)
In1B In -0.0000 0.5000 0.749986(11)
In1B_2 In 1.0000 0.5000 0.749986(11)
In1D_2 In 0.5000 1.0000 0.249986(11)
In1F In -0.0000 0.5000 0.250014(11)
In1F_2 In 1.0000 0.5000 0.250014(11)
O1A_2 O 0.53099(14) -0.09070(13) 0.76008(10)
O1D_2 O 0.53099(14) -0.09070(13) 0.23992(10)
O2A_2 O 0.51779(12) -0.06064(13) 0.69547(10)
O2D_2 O 0.51779(12) -0.06064(13) 0.30453(10)
O3B O 0.40929(13) -0.03072(15) 0.73991(11)
O3C O 0.59071(13) 0.03072(15) 0.73991(11)
O3F O 0.59071(13) 0.03072(15) 0.26009(11)
O3G O 0.40929(13) -0.03072(15) 0.26009(11)
O4B O 0.43947(12) -0.01782(12) 0.80495(10)
O4C O 0.56053(12) 0.01782(12) 0.80495(10)
O4F O 0.56053(12) 0.01782(12) 0.19505(10)
O4G O 0.43947(12) -0.01782(12) 0.19505(10)
loop_
_geom_bond_atom_site_label_1
_geom_bond_atom_site_label_2
_geom_bond_site_symmetry_1
_geom_bond_site_symmetry_2
In1 O1 1_555 1_555
Mn1 N1 1_555 1_555
O1 C1 1_555 1_555
N1 C5 1_555 1_555
O2 In1 1_555 1_555
O3 C24 1_555 1_555
O4 C24 1_555 1_555
C1 O2 1_555 1_555
N2 Mn1 1_555 1_555
O5 Mn1 1_555 1_555
C2 C5 1_555 1_555
C3 C1 1_555 1_555
C4 C8 1_555 1_555
C5 C21 1_555 1_555
C6 C3 1_555 1_555
H1 C6 1_555 1_555
C7 C10 1_555 1_555
C8 C11 1_555 1_555
C9 C2 1_555 1_555
C10 C11 1_555 1_555
C11 H2 1_555 1_555
C12 C9 1_555 1_555
H3 C12 1_555 1_555
C13 H4 1_555 1_555
C14 N2 1_555 1_555
C15 C4 1_555 1_555
H5 C15 1_555 1_555
C16 C7 1_555 1_555
H6 C16 1_555 1_555
C17 C3 1_555 1_555
H7 C17 1_555 1_555
C18 C4 1_555 1_555
H8 C18 1_555 1_555
C19 C8 1_555 1_555
H9 C19 1_555 1_555
C20 C7 1_555 1_555
H10 C20 1_555 1_555
C21 H11 1_555 1_555
C22 C20 1_555 1_555
H12 C22 1_555 1_555
C23 C14 1_555 1_555
H13 C23 1_555 1_555
C24 C25 1_555 1_555
C25 C13 1_555 1_555
O1A C1A 1_555 1_555
N1A Mn1 1_555 1_555
O2A C1A 1_555 1_555
O3A C24A 1_555 1_555
O4A C24A 1_555 1_555
C1A C3A 1_555 1_555
N2A Mn1 1_555 1_555
C2A C5A 1_555 1_555
C3A C6A 1_555 1_555
C4A C8A 1_555 1_555
C5A N1A 1_555 1_555
C6A H1A 1_555 1_555
C7A C10A 1_555 1_555
C8A C11A 1_555 1_555
C9A C2A 1_555 1_555
C10A C11A 1_555 1_555
C11A H2A 1_555 1_555
C12A C9A 1_555 1_555
H3A C12A 1_555 1_555
C13A H4A 1_555 1_555
C14A N2 1_555 1_555
C15A C4A 1_555 1_555
H5A C15A 1_555 1_555
C16A C7A 1_555 1_555
H6A C16A 1_555 1_555
C17A C3A 1_555 1_555
H7A C17A 1_555 1_555
C18A C4A 1_555 1_555
H8A C18A 1_555 1_555
C19A C8A 1_555 1_555
H9A C19A 1_555 1_555
C20A C7A 1_555 1_555
H10A C20A 1_555 1_555
C21A C5A 1_555 1_555
H11A C21A 1_555 1_555
C22A C20A 1_555 1_555
H12A C22A 1_555 1_555
C23A C23 1_555 1_555
H13A C23A 1_555 1_555
C24A C25A 1_555 1_555
C25A C13A 1_555 1_555
O1D C1D 1_555 1_555
O2D C1D 1_555 1_555
O3D C24D 1_555 1_555
O4D C24D 1_555 1_555
C1D C3D 1_555 1_555
N2D Mn1 1_555 1_555
C2D C5D 1_555 1_555
C3D C6D 1_555 1_555
C4D C8D 1_555 1_555
C5D N1A 1_555 1_555
C6D H1D 1_555 1_555
C7D C10D 1_555 1_555
C8D C11D 1_555 1_555
C9D C2D 1_555 1_555
C10D C11D 1_555 1_555
C11D H2D 1_555 1_555
C12D C9D 1_555 1_555
H3D C12D 1_555 1_555
C13D H4D 1_555 1_555
C14D N2D 1_555 1_555
C15D C4D 1_555 1_555
H5D C15D 1_555 1_555
C16D C7D 1_555 1_555
H6D C16D 1_555 1_555
C17D C3D 1_555 1_555
H7D C17D 1_555 1_555
C18D C4D 1_555 1_555
H8D C18D 1_555 1_555
C19D C8D 1_555 1_555
H9D C19D 1_555 1_555
C20D C7D 1_555 1_555
H10D C20D 1_555 1_555
C21D C21A 1_555 1_555
H11D C21D 1_555 1_555
C22D C20D 1_555 1_555
H12D C22D 1_555 1_555
C23D C14D 1_555 1_555
H13D C23D 1_555 1_555
C24D C25D 1_555 1_555
C25D C13D 1_555 1_555
O1E C1E 1_555 1_555
O2E C1E 1_555 1_555
O3E C24E 1_555 1_555
O4E C24E 1_555 1_555
C1E C3E 1_555 1_555
N2E Mn1 1_555 1_555
C2E C5E 1_555 1_555
C3E C6E 1_555 1_555
C4E C8E 1_555 1_555
C5E N1 1_555 1_555
C6E H1E 1_555 1_555
C7E C10E 1_555 1_555
C8E C11E 1_555 1_555
C9E C2E 1_555 1_555
C10E C11E 1_555 1_555
C11E H2E 1_555 1_555
C12E C9E 1_555 1_555
H3E C12E 1_555 1_555
C13E H4E 1_555 1_555
C14E N2D 1_555 1_555
C15E C4E 1_555 1_555
H5E C15E 1_555 1_555
C16E C7E 1_555 1_555
H6E C16E 1_555 1_555
C17E C3E 1_555 1_555
H7E C17E 1_555 1_555
C18E C4E 1_555 1_555
H8E C18E 1_555 1_555
C19E C8E 1_555 1_555
H9E C19E 1_555 1_555
C20E C7E 1_555 1_555
H10E C20E 1_555 1_555
C21E C21 1_555 1_555
H11E C21E 1_555 1_555
C22E C20E 1_555 1_555
H12E C22E 1_555 1_555
C23E C23D 1_555 1_555
H13E C23E 1_555 1_555
C24E C25E 1_555 1_555
C25E C13E 1_555 1_555
In1D O1E 1_555 1_555
O5A Mn1 1_555 1_555
In1_2 O1A 1_555 1_555
In1B O3 1_555 1_555
In1B_2 O3A 1_555 1_555
In1D_2 O1D 1_555 1_555
In1F O3E 1_555 1_555
In1F_2 O3D 1_555 1_555
O1A_2 In1 1_555 1_555
O1D_2 In1D 1_555 1_555
O2A_2 In1 1_555 1_555
O2D_2 In1D 1_555 1_555
O3B In1 1_555 1_555
O3C In1 1_555 1_555
O3F In1D 1_555 1_555
O3G In1D 1_555 1_555
O4B In1 1_555 1_555
O4C In1 1_555 1_555
O4F In1D 1_555 1_555
O4G In1D 1_555 1_555
O4 In1B 1_555 1_555
C2 C14 1_555 1_555
C6 C15 1_555 1_555
C9 C19 1_555 1_555
C10 C12 1_555 1_555
C13 C16 1_555 1_555
C14 N2A 1_555 1_555
C17 C18 1_555 1_555
C22 C25 1_555 1_555
O2A In1_2 1_555 1_555
O4A In1B_2 1_555 1_555
N2A C14A 1_555 1_555
C2A C14A 1_555 1_555
C6A C15A 1_555 1_555
C9A C19A 1_555 1_555
C10A C12A 1_555 1_555
C13A C16A 1_555 1_555
C14A C23A 1_555 1_555
C17A C18A 1_555 1_555
C22A C25A 1_555 1_555
O2D In1D_2 1_555 1_555
O4D In1F_2 1_555 1_555
C2D C14D 1_555 1_555
C5D C21D 1_555 1_555
C6D C15D 1_555 1_555
C9D C19D 1_555 1_555
C10D C12D 1_555 1_555
C13D C16D 1_555 1_555
C14D N2E 1_555 1_555
C17D C18D 1_555 1_555
C22D C25D 1_555 1_555
O2E In1D 1_555 1_555
O4E In1F 1_555 1_555
N2E C14E 1_555 1_555
C2E C14E 1_555 1_555
C5E C21E 1_555 1_555
C6E C15E 1_555 1_555
C9E C19E 1_555 1_555
C10E C12E 1_555 1_555
C13E C16E 1_555 1_555
C14E C23E 1_555 1_555
C17E C18E 1_555 1_555
C22E C25E 1_555 1_555

#END
