
#######################################################################
#
#                 Cambridge Crystallographic Data Centre
#                                CCDC 
#
#######################################################################
#
# If this CIF has been generated from an entry in the Cambridge 
# Structural Database, then it will include bibliographic, chemical, 
# crystal, experimental, refinement or atomic coordinate data resulting 
# from the CCDC's data processing and validation procedures.
#
#######################################################################

data_DITTEH
_chemical_formula_moiety         '(C33 H25 N1 O16 Zn4)n'
_symmetry_cell_setting           orthorhombic
_symmetry_space_group_name_H-M   'P 21 21 21'
_symmetry_Int_Tables_number      19
_space_group_name_Hall           'P 2ac 2ab'
loop_
_symmetry_equiv_pos_site_id
_symmetry_equiv_pos_as_xyz
1 x,y,z
2 1/2-x,-y,1/2+z
3 1/2+x,1/2-y,-z
4 -x,1/2+y,1/2-z
_cell_length_a                   18.478(5)
_cell_length_b                   12.181(4)
_cell_length_c                   23.055(7)
_cell_angle_alpha                90
_cell_angle_beta                 90
_cell_angle_gamma                90
_cell_volume                     5189.23
loop_
_atom_site_label
_atom_site_type_symbol
_atom_site_fract_x
_atom_site_fract_y
_atom_site_fract_z
Zn1 Zn 0.29917(2) 1.23754(4) 0.18567(2)
Zn2 Zn 0.20014(2) 1.23794(4) 0.29952(2)
Zn3 Zn 0.17020(2) 1.06638(4) 0.20422(2)
Zn4 Zn 0.31982(2) 1.06147(4) 0.28798(2)
C1 C 0.1140(2) 1.4627(4) 0.1750(2)
C2 C 0.0461(2) 1.4898(4) 0.19855(19)
H1 H 0.0306 1.4566 0.2327
C3 C 0.0023(2) 1.5658(4) 0.17096(18)
C4 C 0.0251(2) 1.6159(4) 0.1202(2)
H2 H -0.0045 1.6670 0.1020
C5 C 0.0921(2) 1.5901(4) 0.09624(18)
C6 C 0.1348(2) 1.5126(4) 0.1234(2)
H3 H 0.1788 1.4931 0.1066
C7 C 0.1611(2) 1.3805(4) 0.20324(19)
C8 C -0.0690(2) 1.5948(4) 0.1986(2)
C9 C 0.1171(3) 1.6485(4) 0.04146(19)
C10 C 0.0688(3) 1.6923(5) 0.0029(2)
H4 H 0.0195 1.6833 0.0095
C11 C 0.0913(3) 1.7497(5) -0.0458(2)
H5 H 0.0574 1.7813 -0.0705
C12 C 0.1644(2) 1.7598(4) -0.05743(19)
C13 C 0.2134(3) 1.7101(5) -0.0197(2)
H6 H 0.2627 1.7145 -0.0274
C14 C 0.1900(2) 1.6547(5) 0.0288(2)
H7 H 0.2235 1.6213 0.0531
C15 C 0.1906(3) 1.8181(4) -0.11105(19)
C16 C 0.4970(2) 1.0360(4) 0.17268(18)
C17 C 0.5427(2) 0.9648(3) 0.20083(18)
H8 H 0.5277 0.9299 0.2346
C18 C 0.6123(2) 0.9448(4) 0.17860(18)
C19 C 0.6338(3) 0.9982(4) 0.1273(2)
H9 H 0.6799 0.9858 0.1124
C20 C 0.5871(2) 1.0692(4) 0.0987(2)
C21 C 0.5190(2) 1.0899(4) 0.1224(2)
H10 H 0.4881 1.1399 0.1046
C22 C 0.4233(2) 1.0650(3) 0.19760(16)
C23 C 0.6631(2) 0.8687(3) 0.20925(18)
C24 C 0.6104(3) 1.1289(4) 0.04575(19)
C25 C 0.5600(3) 1.1603(5) 0.0025(2)
H11 H 0.5116 1.1402 0.0061
C26 C 0.5829(3) 1.2226(5) -0.0464(3)
H12 H 0.5493 1.2458 -0.0738
C27 C 0.6552(3) 1.2483(5) -0.0531(2)
C28 C 0.7031(3) 1.2094(6) -0.0140(3)
H13 H 0.7520 1.2241 -0.0196
C29 C 0.6829(3) 1.1486(7) 0.0343(3)
H14 H 0.7181 1.1209 0.0590
C30 C 0.6790(3) 1.3163(4) -0.10478(19)
C31 C 0.4207(4) 1.3452(7) 0.1309(4)
H15 H 0.4392 1.3258 0.1670
C32 C 0.5445(4) 1.4083(8) 0.0994(5)
H16 H 0.5562 1.3784 0.1367
H17 H 0.5549 1.4855 0.0991
H18 H 0.5728 1.3722 0.0701
C33 C 0.4461(8) 1.4350(11) 0.0322(5)
H19 H 0.4875 1.4615 0.0114
H20 H 0.4126 1.4943 0.0383
H21 H 0.4229 1.3781 0.0101
O1 O 0.24784(12) 1.1384(3) 0.24341(11)
O2 O 0.2852(3) 0.9211(4) 0.3177(3)
H22 H 0.2401 0.9151 0.3321
H23 H 0.3146 0.8622 0.3170
O3 O 0.1845(4) 0.9113(5) 0.1734(3)
H24 H 0.2108 0.8624 0.1936
H25 H 0.1641 0.8917 0.1394
O4 O 0.22282(16) 1.3625(3) 0.18058(14)
O5 O 0.13799(16) 1.3359(3) 0.25027(14)
O6 O -0.08482(16) 1.5493(3) 0.24576(14)
O7 O -0.10781(16) 1.6646(3) 0.17144(14)
O8 O 0.14176(19) 1.8600(3) -0.14342(13)
O9 O 0.2569(2) 1.8244(3) -0.12069(15)
O10 O 0.38427(16) 1.1268(3) 0.16945(13)
O11 O 0.40803(16) 1.0187(3) 0.24540(14)
O12 O 0.72610(15) 0.8610(3) 0.18730(14)
O13 O 0.63902(15) 0.8176(3) 0.25237(13)
O14 O 0.62874(18) 1.3474(3) -0.13847(14)
O15 O 0.74353(17) 1.3347(3) -0.11236(13)
O16 O 0.35685(18) 1.3311(3) 0.12109(15)
N1 N 0.4689(4) 1.3915(8) 0.0877(4)
Zn1B Zn 0.79917(2) 1.26246(4) -0.18567(2)
Zn1C Zn 0.70083(2) 0.73754(4) 0.31433(2)
Zn2A Zn 0.29986(2) 1.76206(4) -0.20048(2)
Zn2C Zn -0.20014(2) 1.73794(4) 0.20048(2)
Zn2C_2 Zn 0.79986(2) 0.73794(4) 0.20048(2)
Zn3B Zn 0.67020(2) 1.43362(4) -0.20422(2)
Zn3C Zn -0.17020(2) 1.56638(4) 0.29578(2)
Zn4A Zn 0.18018(2) 1.93853(4) -0.21202(2)
O6C O 0.08482(16) 1.0493(3) 0.25424(14)
O7C O 0.10781(16) 1.1646(3) 0.32856(14)
O8A O 0.35824(19) 1.1400(3) 0.35658(13)
O9A O 0.2431(2) 1.1756(3) 0.37931(15)
O12C O 0.27390(15) 1.3610(3) 0.31270(14)
O13C O 0.36098(15) 1.3176(3) 0.24763(13)
O14B O 0.12874(18) 1.1526(3) 0.13847(14)
O15B O 0.24353(17) 1.1653(3) 0.11236(13)
loop_
_geom_bond_atom_site_label_1
_geom_bond_atom_site_label_2
_geom_bond_site_symmetry_1
_geom_bond_site_symmetry_2
Zn1 O1 1_555 1_555
Zn2 O1 1_555 1_555
Zn3 O1 1_555 1_555
Zn4 O1 1_555 1_555
C1 C2 1_555 1_555
C2 H1 1_555 1_555
C3 C2 1_555 1_555
C4 C3 1_555 1_555
H2 C4 1_555 1_555
C5 C4 1_555 1_555
C6 C1 1_555 1_555
H3 C6 1_555 1_555
C7 C1 1_555 1_555
C8 C3 1_555 1_555
C9 C5 1_555 1_555
C10 C9 1_555 1_555
H4 C10 1_555 1_555
C11 C10 1_555 1_555
H5 C11 1_555 1_555
C12 C11 1_555 1_555
C13 C12 1_555 1_555
H6 C13 1_555 1_555
C14 C9 1_555 1_555
H7 C14 1_555 1_555
C15 C12 1_555 1_555
C16 C17 1_555 1_555
C17 H8 1_555 1_555
C18 C17 1_555 1_555
C19 C18 1_555 1_555
H9 C19 1_555 1_555
C20 C19 1_555 1_555
C21 C16 1_555 1_555
H10 C21 1_555 1_555
C22 C16 1_555 1_555
C23 C18 1_555 1_555
C24 C20 1_555 1_555
C25 C24 1_555 1_555
H11 C25 1_555 1_555
C26 C25 1_555 1_555
H12 C26 1_555 1_555
C27 C26 1_555 1_555
C28 C27 1_555 1_555
H13 C28 1_555 1_555
C29 C24 1_555 1_555
H14 C29 1_555 1_555
C30 C27 1_555 1_555
C31 H15 1_555 1_555
C32 H16 1_555 1_555
H17 C32 1_555 1_555
H18 C32 1_555 1_555
C33 H19 1_555 1_555
H20 C33 1_555 1_555
H21 C33 1_555 1_555
O2 Zn4 1_555 1_555
H22 O2 1_555 1_555
H23 O2 1_555 1_555
O3 Zn3 1_555 1_555
H24 O3 1_555 1_555
H25 O3 1_555 1_555
O4 Zn1 1_555 1_555
O5 Zn2 1_555 1_555
O6 C8 1_555 1_555
O7 C8 1_555 1_555
O8 C15 1_555 1_555
O9 C15 1_555 1_555
O10 Zn1 1_555 1_555
O11 Zn4 1_555 1_555
O12 C23 1_555 1_555
O13 C23 1_555 1_555
O14 C30 1_555 1_555
O15 C30 1_555 1_555
O16 Zn1 1_555 1_555
N1 C31 1_555 1_555
Zn1B O15 1_555 1_555
Zn1C O13 1_555 1_555
Zn2A O9 1_555 1_555
Zn2C O7 1_555 1_555
Zn2C_2 O12 1_555 1_555
Zn3B O14 1_555 1_555
Zn3C O6 1_555 1_555
Zn4A O8 1_555 1_555
O6C Zn3 1_555 1_555
O7C Zn2 1_555 1_555
O8A Zn4 1_555 1_555
O9A Zn2 1_555 1_555
O12C Zn2 1_555 1_555
O13C Zn1 1_555 1_555
O14B Zn3 1_555 1_555
O15B Zn1 1_555 1_555
C5 C6 1_555 1_555
C7 O4 1_555 1_555
C7 O5 1_555 1_555
C13 C14 1_555 1_555
C20 C21 1_555 1_555
C22 O10 1_555 1_555
C22 O11 1_555 1_555
C28 C29 1_555 1_555
C31 O16 1_555 1_555
C32 N1 1_555 1_555
C33 N1 1_555 1_555

#END
