
#######################################################################
#
#                 Cambridge Crystallographic Data Centre
#                                CCDC 
#
#######################################################################
#
# If this CIF has been generated from an entry in the Cambridge 
# Structural Database, then it will include bibliographic, chemical, 
# crystal, experimental, refinement or atomic coordinate data resulting 
# from the CCDC's data processing and validation procedures.
#
#######################################################################

data_BAMKOS
_chemical_formula_moiety         '(C22 H27 Cr2 Cu2 N6 O15 1-)n'
_symmetry_cell_setting           monoclinic
_symmetry_space_group_name_H-M   'P 21/c'
_symmetry_Int_Tables_number      14
_space_group_name_Hall           '-P 2ybc'
loop_
_symmetry_equiv_pos_site_id
_symmetry_equiv_pos_as_xyz
1 x,y,z
2 -x,1/2+y,1/2-z
3 -x,-y,-z
4 x,1/2-y,1/2+z
_cell_length_a                   9.6691(3)
_cell_length_b                   17.4598(5)
_cell_length_c                   20.4487(6)
_cell_angle_alpha                90
_cell_angle_beta                 94.891(2)
_cell_angle_gamma                90
_cell_volume                     3439.59
loop_
_atom_site_label
_atom_site_type_symbol
_atom_site_fract_x
_atom_site_fract_y
_atom_site_fract_z
Cu1 Cu 0.30000(5) 0.50752(3) 0.52443(3)
Cu2 Cu -0.00015(5) 0.47758(3) 0.42703(3)
O1 O 0.3135(3) 0.9030(2) 0.08153(17)
O2 O 0.1087(3) 0.9016(2) 0.12555(16)
O3 O 0.0481(4) 0.5562(3) 0.3293(2)
O4 O -0.1229(4) 0.5644(2) 0.39258(19)
O5 O 0.1213(3) 0.5394(2) 0.48474(16)
H1 H 0.124(8) 0.582(2) 0.465(3)
N1 N 0.2779(4) 0.4110(2) 0.46916(18)
N2 N 0.1506(4) 0.3971(2) 0.43645(19)
N3 N 0.2845(4) 0.3003(2) 0.4201(2)
N4 N 0.4589(4) 0.0364(2) 0.08032(19)
N5 N 0.5803(4) 0.0643(2) 0.05820(19)
N6 N 0.5830(4) 0.0827(3) 0.1640(2)
C1 C 0.3565(5) 0.3523(3) 0.4582(2)
H2 H 0.4488 0.3471 0.4744
C2 C 0.1570(5) 0.3308(3) 0.4086(3)
H3 H 0.0835 0.3074 0.3841
C3 C 0.3332(6) 0.2271(3) 0.3952(3)
H4 H 0.2573 0.1906 0.3932
H5 H 0.4065 0.2074 0.4260
C4 C 0.3868(5) 0.2329(3) 0.3284(3)
C5 C 0.3554(6) 0.2926(3) 0.2855(3)
H6 H 0.2981 0.3321 0.2973
C6 C 0.4093(7) 0.2938(4) 0.2247(3)
H7 H 0.3869 0.3338 0.1957
C7 C 0.4961(6) 0.2358(4) 0.2071(3)
H8 H 0.5340 0.2376 0.1668
C8 C 0.5267(5) 0.1749(3) 0.2493(3)
C9 C 0.4721(5) 0.1738(3) 0.3092(3)
H9 H 0.4924 0.1328 0.3375
C10 C 0.6229(6) 0.1112(4) 0.2310(3)
H10 H 0.7175 0.1301 0.2335
H11 H 0.6193 0.0694 0.2621
C11 C 0.4626(5) 0.0477(3) 0.1433(2)
H12 H 0.3933 0.0338 0.1698
C12 C 0.6517(5) 0.0924(3) 0.1099(3)
H13 H 0.7380 0.1158 0.1094
C13 C 0.2273(5) 0.8753(3) 0.1176(3)
C14 C 0.2753(6) 0.8031(4) 0.1532(4)
H14 H 0.3546 0.8157 0.1836
H15 H 0.3069 0.7674 0.1213
C15 C 0.1683(6) 0.7630(4) 0.1910(4)
C16 C 0.1408(8) 0.7877(5) 0.2512(4)
H16 H 0.1880 0.8298 0.2699
C17 C 0.0413(8) 0.7500(5) 0.2857(4)
H17 H 0.0239 0.7680 0.3270
C18 C -0.0294(7) 0.6892(5) 0.2612(5)
C19 C -0.0007(7) 0.6644(5) 0.2005(5)
H18 H -0.0479 0.6221 0.1822
C20 C 0.0973(7) 0.7007(5) 0.1653(4)
H19 H 0.1147 0.6825 0.1240
C21 C -0.1312(7) 0.6448(6) 0.2991(5)
H20 H -0.1809 0.6804 0.3250
H21 H -0.1986 0.6200 0.2681
C22 C -0.0628(6) 0.5854(4) 0.3436(3)
Cu1A Cu 0.70000(5) 0.00752(3) -0.02443(3)
Cu1C Cu 0.30000(5) -0.00752(3) 0.02443(3)
Cu1C_2 Cu 0.30000(5) 0.99248(3) 0.02443(3)
Cu2A Cu 0.00015(5) 0.97758(3) 0.07297(3)
Cu2B Cu 0.00015(5) 0.52242(3) 0.57297(3)
O1C O 0.3135(3) 0.5970(2) 0.58153(17)
O2A O -0.1087(3) 0.4016(2) 0.37445(16)
O5B O -0.1213(3) 0.4606(2) 0.51526(16)
N4C N 0.4589(4) 0.4636(2) 0.58032(19)
N5A N 0.4197(4) 0.5643(2) 0.44180(19)
Cr1 Cr 0.3661(5) -0.02774(18) 0.34909(19)
Cr2 Cr 0.3799(6) -0.1511(2) 0.4636(2)
O6 O 0.3396(18) -0.0245(7) 0.2735(6)
O7 O 0.307(2) 0.0355(13) 0.3903(11)
O8 O 0.573(4) -0.0146(14) 0.3752(17)
O9 O 0.366(2) -0.1149(9) 0.3851(7)
O10 O 0.4029(16) -0.2260(9) 0.4678(7)
O11 O 0.455(3) -0.0994(13) 0.5145(12)
O12 O 0.569(2) -0.1864(14) 0.4450(9)
O13 O 0.1103(7) 0.6953(3) 0.4704(4)
H22 H 0.0566 0.7271 0.4496
H23 H 0.1929 0.7124 0.4730
O14 O -0.111(2) 0.8123(12) 0.4633(10)
O15 O 0.0884(17) 0.4295(9) 0.2604(7)
loop_
_geom_bond_atom_site_label_1
_geom_bond_atom_site_label_2
_geom_bond_site_symmetry_1
_geom_bond_site_symmetry_2
Cu1 O5 1_555 1_555
Cu2 O3 1_555 1_555
O1 C13 1_555 1_555
O2 C13 1_555 1_555
O3 C22 1_555 1_555
O4 Cu2 1_555 1_555
O5 Cu2 1_555 1_555
H1 O5 1_555 1_555
N1 Cu1 1_555 1_555
N2 Cu2 1_555 1_555
N3 C1 1_555 1_555
N4 N5 1_555 1_555
N5 C12 1_555 1_555
N6 C10 1_555 1_555
C1 N1 1_555 1_555
H2 C1 1_555 1_555
C2 N2 1_555 1_555
H3 C2 1_555 1_555
C3 N3 1_555 1_555
H4 C3 1_555 1_555
H5 C3 1_555 1_555
C4 C3 1_555 1_555
C5 C4 1_555 1_555
H6 C5 1_555 1_555
C6 C5 1_555 1_555
H7 C6 1_555 1_555
C7 C6 1_555 1_555
H8 C7 1_555 1_555
C8 C7 1_555 1_555
C9 C4 1_555 1_555
H9 C9 1_555 1_555
C10 C8 1_555 1_555
H10 C10 1_555 1_555
H11 C10 1_555 1_555
C11 N4 1_555 1_555
H12 C11 1_555 1_555
C12 N6 1_555 1_555
H13 C12 1_555 1_555
C13 C14 1_555 1_555
C14 H14 1_555 1_555
H15 C14 1_555 1_555
C15 C14 1_555 1_555
C16 C15 1_555 1_555
H16 C16 1_555 1_555
C17 C16 1_555 1_555
H17 C17 1_555 1_555
C18 C17 1_555 1_555
C19 C18 1_555 1_555
H18 C19 1_555 1_555
C20 C15 1_555 1_555
H19 C20 1_555 1_555
C21 C18 1_555 1_555
H20 C21 1_555 1_555
H21 C21 1_555 1_555
C22 O4 1_555 1_555
Cr1 O6 1_555 1_555
Cr2 O9 1_555 1_555
O7 Cr1 1_555 1_555
O8 Cr1 1_555 1_555
O9 Cr1 1_555 1_555
O10 Cr2 1_555 1_555
O11 Cr2 1_555 1_555
O12 Cr2 1_555 1_555
O13 H22 1_555 1_555
H23 O13 1_555 1_555
Cu1A N5 1_555 1_555
Cu1C N4 1_555 1_555
Cu1C_2 O1 1_555 1_555
Cu2A O2 1_555 1_555
Cu2B O5 1_555 1_555
O1C Cu1 1_555 1_555
O2A Cu2 1_555 1_555
O5B Cu2 1_555 1_555
N4C Cu1 1_555 1_555
N5A Cu1 1_555 1_555
N1 N2 1_555 1_555
N3 C2 1_555 1_555
N6 C11 1_555 1_555
C8 C9 1_555 1_555
C19 C20 1_555 1_555
C21 C22 1_555 1_555
Cu2B O5B 1_555 1_555

#END
