
#######################################################################
#
#                 Cambridge Crystallographic Data Centre
#                                CCDC 
#
#######################################################################
#
# If this CIF has been generated from an entry in the Cambridge 
# Structural Database, then it will include bibliographic, chemical, 
# crystal, experimental, refinement or atomic coordinate data resulting 
# from the CCDC's data processing and validation procedures.
#
#######################################################################

data_EKETOF
_chemical_formula_moiety         '(C20 H16 Eu1 N5 O8)n'
_symmetry_cell_setting           monoclinic
_symmetry_space_group_name_H-M   'C 2/c'
_symmetry_Int_Tables_number      15
_space_group_name_Hall           '-C 2yc'
loop_
_symmetry_equiv_pos_site_id
_symmetry_equiv_pos_as_xyz
1 x,y,z
2 -x,y,1/2-z
3 1/2+x,1/2+y,z
4 1/2-x,1/2+y,1/2-z
5 -x,-y,-z
6 x,-y,1/2+z
7 1/2-x,1/2-y,-z
8 1/2+x,1/2-y,1/2+z
_cell_length_a                   19.974(14)
_cell_length_b                   13.135(10)
_cell_length_c                   9.901(7)
_cell_angle_alpha                90
_cell_angle_beta                 113.308(11)
_cell_angle_gamma                90
_cell_volume                     2385.62
loop_
_atom_site_label
_atom_site_type_symbol
_atom_site_fract_x
_atom_site_fract_y
_atom_site_fract_z
Eu1 Eu 0.0000 0.05855(2) 0.2500
O1 O 0.08380(19) 0.0845(3) 0.1487(4)
O2 O 0.08962(18) -0.0059(3) -0.0341(4)
O3 O -0.04008(18) -0.1175(3) 0.2964(4)
O4 O -0.0000 -0.2574(5) 0.2500
N1 N 0.4310(2) 0.2817(3) 0.6137(5)
N2 N 0.3979(2) 0.2652(3) 0.4685(4)
H1 H 0.4091 0.2968 0.4042
N3 N 0.0000 -0.1687(5) 0.2500
C1 C 0.1157(3) 0.0532(4) 0.0713(5)
C2 C 0.1921(2) 0.0901(4) 0.1093(5)
C3 C 0.2322(2) 0.1270(4) 0.2469(5)
H2 H 0.2117 0.1296 0.3164
C4 C 0.3031(2) 0.1607(4) 0.2836(5)
C5 C 0.3312(3) 0.1599(5) 0.1770(6)
H3 H 0.3782 0.1838 0.1993
C6 C 0.2904(3) 0.1241(5) 0.0381(6)
H4 H 0.3099 0.1244 -0.0331
C7 C 0.2214(3) 0.0880(4) 0.0040(6)
H5 H 0.1943 0.0622 -0.0893
C8 C 0.3456(3) 0.1942(4) 0.4342(5)
C9 C 0.3437(3) 0.1624(5) 0.5641(6)
H6 H 0.3131 0.1137 0.5774
C10 C 0.3976(3) 0.2185(4) 0.6717(6)
H7 H 0.4089 0.2125 0.7720
O3A O 0.04008(18) -0.1175(3) 0.2036(4)
O1A O -0.08380(19) 0.0845(3) 0.3513(4)
O2A O -0.08962(18) -0.0059(3) 0.5341(4)
N1A N -0.4310(2) 0.2817(3) -0.1137(5)
N2A N -0.3979(2) 0.2652(3) 0.0315(4)
H1A H -0.4091 0.2968 0.0958
C1A C -0.1157(3) 0.0532(4) 0.4287(5)
C2A C -0.1921(2) 0.0901(4) 0.3907(5)
C3A C -0.2322(2) 0.1270(4) 0.2531(5)
H2A H -0.2117 0.1296 0.1836
C4A C -0.3031(2) 0.1607(4) 0.2164(5)
C5A C -0.3312(3) 0.1599(5) 0.3230(6)
H3A H -0.3782 0.1838 0.3007
C6A C -0.2904(3) 0.1241(5) 0.4619(6)
H4A H -0.3099 0.1244 0.5331
C7A C -0.2214(3) 0.0880(4) 0.4960(6)
H5A H -0.1943 0.0622 0.5893
C8A C -0.3456(3) 0.1942(4) 0.0658(5)
C9A C -0.3437(3) 0.1624(5) -0.0641(6)
H6A H -0.3131 0.1137 -0.0774
C10A C -0.3976(3) 0.2185(4) -0.1717(6)
H7A H -0.4089 0.2125 -0.2720
Eu1D Eu 0.0000 -0.05855(2) -0.2500
Eu1D_2 Eu -0.0000 -0.05855(2) 0.7500
Eu1F Eu -0.5000 0.44145(2) -0.2500
Eu1F_2 Eu 0.5000 0.44145(2) 0.7500
O2D O -0.08962(18) 0.0059(3) 0.0341(4)
O2E O 0.08962(18) 0.0059(3) 0.4659(4)
N1F N 0.0690(2) 0.2183(3) 0.3863(5)
N1G N -0.0690(2) 0.2183(3) 0.1137(5)
O5 O 0.0240(13) 0.463(3) 0.987(5)
loop_
_geom_bond_atom_site_label_1
_geom_bond_atom_site_label_2
_geom_bond_site_symmetry_1
_geom_bond_site_symmetry_2
Eu1 O1 1_555 1_555
O1 C1 1_555 1_555
O2 C1 1_555 1_555
O3 Eu1 1_555 1_555
O4 N3 1_555 1_555
N1 N2 1_555 1_555
N2 H1 1_555 1_555
N3 O3 1_555 1_555
C1 C2 1_555 1_555
C2 C3 1_555 1_555
C3 H2 1_555 1_555
C4 C3 1_555 1_555
C5 C4 1_555 1_555
H3 C5 1_555 1_555
C6 C5 1_555 1_555
H4 C6 1_555 1_555
C7 C2 1_555 1_555
H5 C7 1_555 1_555
C8 N2 1_555 1_555
C9 C8 1_555 1_555
H6 C9 1_555 1_555
C10 N1 1_555 1_555
H7 C10 1_555 1_555
O3A Eu1 1_555 1_555
O1A Eu1 1_555 1_555
O2A C1A 1_555 1_555
N1A N2A 1_555 1_555
N2A H1A 1_555 1_555
C1A O1A 1_555 1_555
C2A C1A 1_555 1_555
C3A C2A 1_555 1_555
H2A C3A 1_555 1_555
C4A C3A 1_555 1_555
C5A C4A 1_555 1_555
H3A C5A 1_555 1_555
C6A C5A 1_555 1_555
H4A C6A 1_555 1_555
C7A C2A 1_555 1_555
H5A C7A 1_555 1_555
C8A N2A 1_555 1_555
C9A C8A 1_555 1_555
H6A C9A 1_555 1_555
C10A N1A 1_555 1_555
H7A C10A 1_555 1_555
Eu1D O2 1_555 1_555
Eu1D_2 O2A 1_555 1_555
Eu1F N1A 1_555 1_555
Eu1F_2 N1 1_555 1_555
O2D Eu1 1_555 1_555
O2E Eu1 1_555 1_555
N1F Eu1 1_555 1_555
N1G Eu1 1_555 1_555
N3 O3A 1_555 1_555
C4 C8 1_555 1_555
C6 C7 1_555 1_555
C9 C10 1_555 1_555
C4A C8A 1_555 1_555
C6A C7A 1_555 1_555
C9A C10A 1_555 1_555

#END
