
#######################################################################
#
#                 Cambridge Crystallographic Data Centre
#                                CCDC 
#
#######################################################################
#
# If this CIF has been generated from an entry in the Cambridge 
# Structural Database, then it will include bibliographic, chemical, 
# crystal, experimental, refinement or atomic coordinate data resulting 
# from the CCDC's data processing and validation procedures.
#
#######################################################################

data_EKETUL
_chemical_formula_moiety         '(C20 H16 N5 O8 Tb1)n'
_symmetry_cell_setting           monoclinic
_symmetry_space_group_name_H-M   'C 2/c'
_symmetry_Int_Tables_number      15
_space_group_name_Hall           '-C 2yc'
loop_
_symmetry_equiv_pos_site_id
_symmetry_equiv_pos_as_xyz
1 x,y,z
2 -x,y,1/2-z
3 1/2+x,1/2+y,z
4 1/2-x,1/2+y,1/2-z
5 -x,-y,-z
6 x,-y,1/2+z
7 1/2-x,1/2-y,-z
8 1/2+x,1/2-y,1/2+z
_cell_length_a                   20.010(4)
_cell_length_b                   13.193(3)
_cell_length_c                   9.8950(19)
_cell_angle_alpha                90
_cell_angle_beta                 113.142(3)
_cell_angle_gamma                90
_cell_volume                     2402.01
loop_
_atom_site_label
_atom_site_type_symbol
_atom_site_fract_x
_atom_site_fract_y
_atom_site_fract_z
Tb1 Tb 0.5000 0.44129(2) 0.2500
O1 O 0.41754(18) 0.4159(3) 0.3529(4)
O2 O 0.41092(17) 0.5067(3) 0.5357(3)
O3 O 0.54069(18) 0.6157(3) 0.2042(4)
O4 O 0.5000 0.7582(5) 0.2500
C1 C 0.3852(2) 0.4471(4) 0.4304(5)
C2 C 0.3082(2) 0.4099(4) 0.3915(5)
C3 C 0.2683(2) 0.3726(4) 0.2527(5)
H1 H 0.2888 0.3695 0.1831
C4 C 0.1964(2) 0.3392(4) 0.2168(5)
C5 C 0.1677(3) 0.3413(5) 0.3223(6)
H2 H 0.1204 0.3190 0.2993
C6 C 0.2086(3) 0.3761(5) 0.4619(6)
H3 H 0.1891 0.3753 0.5332
C7 C 0.2790(3) 0.4125(4) 0.4972(6)
H4 H 0.3060 0.4381 0.5905
C8 C 0.1538(2) 0.3053(4) 0.0647(5)
C9 C 0.1549(3) 0.3372(5) -0.0663(6)
H5 H 0.1852 0.3861 -0.0798
C10 C 0.1019(3) 0.2820(4) -0.1741(6)
H6 H 0.0904 0.2892 -0.2743
N1 N 0.0691(2) 0.2169(3) -0.1162(4)
N2 N 0.1019(2) 0.2334(3) 0.0302(4)
H7 H 0.0909 0.2014 0.0943
N3 N 0.5000 0.6670(5) 0.2500
O3A O 0.45931(18) 0.6157(3) 0.2958(4)
O1A O 0.58246(18) 0.4159(3) 0.1471(4)
O2A O 0.58908(17) 0.5067(3) -0.0357(3)
C1A C 0.6148(2) 0.4471(4) 0.0696(5)
C2A C 0.6918(2) 0.4099(4) 0.1085(5)
C3A C 0.7317(2) 0.3726(4) 0.2473(5)
H1A H 0.7112 0.3695 0.3169
C4A C 0.8036(2) 0.3392(4) 0.2832(5)
C5A C 0.8323(3) 0.3413(5) 0.1777(6)
H2A H 0.8796 0.3190 0.2007
C6A C 0.7914(3) 0.3761(5) 0.0381(6)
H3A H 0.8109 0.3753 -0.0332
C7A C 0.7210(3) 0.4125(4) 0.0028(6)
H4A H 0.6940 0.4381 -0.0905
C8A C 0.8462(2) 0.3053(4) 0.4353(5)
C9A C 0.8451(3) 0.3372(5) 0.5663(6)
H5A H 0.8148 0.3861 0.5798
C10A C 0.8981(3) 0.2820(4) 0.6741(6)
H6A H 0.9096 0.2892 0.7743
N1A N 0.9309(2) 0.2169(3) 0.6162(4)
N2A N 0.8981(2) 0.2334(3) 0.4698(4)
H7A H 0.9091 0.2014 0.4057
Tb1D Tb 0.5000 0.55871(2) -0.2500
Tb1D_2 Tb 0.5000 0.55871(2) 0.7500
Tb1F Tb -0.0000 0.05871(2) -0.2500
Tb1F_2 Tb 1.0000 0.05871(2) 0.7500
O2D O 0.58908(17) 0.4933(3) 0.4643(3)
O2E O 0.41092(17) 0.4933(3) 0.0357(3)
N1F N 0.4309(2) 0.2831(3) 0.1162(4)
N1G N 0.5691(2) 0.2831(3) 0.3838(4)
O5 O 0.016(3) 0.469(3) -0.542(8)
loop_
_geom_bond_atom_site_label_1
_geom_bond_atom_site_label_2
_geom_bond_site_symmetry_1
_geom_bond_site_symmetry_2
Tb1 O1 1_555 1_555
O1 C1 1_555 1_555
O2 C1 1_555 1_555
O3 Tb1 1_555 1_555
O4 N3 1_555 1_555
C1 C2 1_555 1_555
C2 C3 1_555 1_555
C3 H1 1_555 1_555
C4 C3 1_555 1_555
C5 C4 1_555 1_555
H2 C5 1_555 1_555
C6 C5 1_555 1_555
H3 C6 1_555 1_555
C7 C2 1_555 1_555
H4 C7 1_555 1_555
C8 C4 1_555 1_555
C9 C8 1_555 1_555
H5 C9 1_555 1_555
C10 C9 1_555 1_555
H6 C10 1_555 1_555
N1 C10 1_555 1_555
N2 C8 1_555 1_555
H7 N2 1_555 1_555
N3 O3 1_555 1_555
O3A Tb1 1_555 1_555
O1A Tb1 1_555 1_555
O2A C1A 1_555 1_555
C1A O1A 1_555 1_555
C2A C1A 1_555 1_555
C3A C2A 1_555 1_555
H1A C3A 1_555 1_555
C4A C3A 1_555 1_555
C5A C4A 1_555 1_555
H2A C5A 1_555 1_555
C6A C5A 1_555 1_555
H3A C6A 1_555 1_555
C7A C2A 1_555 1_555
H4A C7A 1_555 1_555
C8A C4A 1_555 1_555
C9A C8A 1_555 1_555
H5A C9A 1_555 1_555
C10A C9A 1_555 1_555
H6A C10A 1_555 1_555
N1A C10A 1_555 1_555
N2A C8A 1_555 1_555
H7A N2A 1_555 1_555
Tb1D O2A 1_555 1_555
Tb1D_2 O2 1_555 1_555
Tb1F N1 1_555 1_555
Tb1F_2 N1A 1_555 1_555
O2D Tb1 1_555 1_555
O2E Tb1 1_555 1_555
N1F Tb1 1_555 1_555
N1G Tb1 1_555 1_555
C6 C7 1_555 1_555
N1 N2 1_555 1_555
N3 O3A 1_555 1_555
C6A C7A 1_555 1_555
N1A N2A 1_555 1_555

#END
