
#######################################################################
#
#                 Cambridge Crystallographic Data Centre
#                                CCDC 
#
#######################################################################
#
# If this CIF has been generated from an entry in the Cambridge 
# Structural Database, then it will include bibliographic, chemical, 
# crystal, experimental, refinement or atomic coordinate data resulting 
# from the CCDC's data processing and validation procedures.
#
#######################################################################

data_LITCIC
_chemical_formula_moiety         '(C68 H60 Ni4 O32)n'
_symmetry_cell_setting           triclinic
_symmetry_space_group_name_H-M   'P -1'
_symmetry_Int_Tables_number      2
_space_group_name_Hall           '-P 1'
loop_
_symmetry_equiv_pos_site_id
_symmetry_equiv_pos_as_xyz
1 x,y,z
2 -x,-y,-z
_cell_length_a                   11.080(3)
_cell_length_b                   16.583(4)
_cell_length_c                   16.600(4)
_cell_angle_alpha                68.533(5)
_cell_angle_beta                 89.208(4)
_cell_angle_gamma                89.167(4)
_cell_volume                     2838.07
loop_
_atom_site_label
_atom_site_type_symbol
_atom_site_fract_x
_atom_site_fract_y
_atom_site_fract_z
Ni1 Ni 0.64014(4) 1.00459(3) 0.49658(3)
Ni2 Ni 0.49827(4) 0.81226(3) 0.50446(4)
O1 O 0.3568(3) 0.90845(18) 0.62862(19)
O2 O 0.6522(3) 0.9169(2) 0.6274(2)
H1 H 0.7270 0.9070 0.6429
H2 H 0.6194 0.8681 0.6329
C1 C 0.1082(4) 0.7217(3) 0.4872(3)
H3 H 0.1812 0.6935 0.4867
C2 C 0.0379(4) 0.5204(3) 0.5712(3)
C3 C 0.0021(4) 0.5857(3) 0.4964(3)
C4 C 0.0351(4) 0.4310(3) 0.5761(3)
O3 O 0.4963(3) 0.6774(2) 0.5397(3)
H4 H 0.4980 0.6408 0.5913
H5 H 0.4935 0.6508 0.5047
C5 C 0.4081(4) 0.8361(3) 0.6668(3)
C6 C 0.3951(4) 0.7973(3) 0.7630(3)
C7 C 0.5785(5) 0.5569(3) 0.9398(3)
C8 C 0.4254(4) 0.7110(3) 0.8084(3)
H6 H 0.4480 0.6761 0.7777
C9 C 0.4606(5) 0.5837(3) 0.9492(3)
O4 O 0.8573(4) 0.6283(3) 0.8065(3)
C10 C 0.0004(4) 0.6774(3) 0.4921(3)
C11 C 0.0696(5) 0.3654(3) 0.6554(4)
H7 H 0.0660 0.3079 0.6599
C12 C 0.0788(4) 0.5352(3) 0.6457(3)
H8 H 0.0823 0.5919 0.6438
O5 O 0.1570(4) 0.4790(3) 0.7915(2)
C13 C 0.6187(5) 0.4728(3) 0.9918(3)
O6 O 0.9335(4) 0.4819(3) 0.9100(3)
C14 C 0.4229(5) 0.6754(3) 0.8977(3)
C15 C 0.3590(5) 0.8485(3) 0.8089(4)
H9 H 0.3394 0.9065 0.7790
O7 O 0.3189(3) 0.80585(19) 0.4853(2)
C16 C 0.1126(5) 0.4705(4) 0.7185(4)
O8 O 0.1335(6) 0.3228(3) 0.8029(3)
C17 C 0.3870(6) 0.7296(4) 0.9420(4)
H10 H 0.3868 0.7076 1.0022
C18 C 0.1070(6) 0.3821(3) 0.7241(4)
C19 C 0.7410(5) 0.4470(3) 0.9833(3)
H11 H 0.7685 0.3927 1.0194
C20 C 0.6636(5) 0.6118(4) 0.8781(4)
H12 H 0.6407 0.6683 0.8449
C21 C 0.3126(11) 0.8673(5) 0.9505(6)
C22 C 0.7754(6) 0.5837(4) 0.8673(4)
C23 C 0.8172(6) 0.5009(4) 0.9231(4)
C24 C 0.8088(8) 0.7050(5) 0.7350(5)
H13 H 0.8672 0.7242 0.6888
H14 H 0.7921 0.7508 0.7561
H15 H 0.7357 0.6896 0.7140
O9 O 0.2831(7) 0.9470(4) 0.9065(4)
H16 H 0.2625 0.9711 0.9397
C25 C 0.1679(7) 0.5656(4) 0.7888(4)
H17 H 0.2200 0.5975 0.7415
H18 H 0.2014 0.5647 0.8421
H19 H 0.0897 0.5929 0.7808
O10 O 0.3009(9) 0.8341(4) 1.0290(4)
C26 C 0.9753(6) 0.3968(5) 0.9630(5)
H20 H 1.0607 0.3924 0.9548
H21 H 0.9347 0.3543 0.9468
H22 H 0.9584 0.3869 1.0227
C27 C 0.3516(6) 0.8153(4) 0.8983(4)
C28 C 0.1176(12) 0.2343(6) 0.8154(6)
H23 H 0.1743 0.2179 0.7798
H24 H 0.0369 0.2259 0.7999
H25 H 0.1308 0.1992 0.8751
C29 C -0.1082(4) 0.7204(3) 0.4938(3)
H26 H -0.1806 0.6916 0.4973
C30 C -0.1104(3) 0.8055(2) 0.4902(3)
C31 C -0.0006(3) 0.8482(2) 0.4850(3)
H27 H -0.0012 0.9051 0.4829
C32 C 0.1089(3) 0.8073(2) 0.4831(3)
O11 O 0.4701(3) 0.79492(19) 0.6316(2)
O12 O 0.5024(2) 0.93993(15) 0.46513(17)
H28 H 0.5001 0.9615 0.4017
O13 O 0.2233(2) 0.92800(17) 0.4754(2)
C33 C -0.2290(3) 0.8482(3) 0.4929(3)
O14 O -0.2301(2) 0.93023(17) 0.4661(2)
O15 O -0.3171(2) 0.79949(18) 0.5240(2)
C34 C 0.2259(4) 0.8506(3) 0.4820(3)
O16 O 0.5247(4) 0.8171(3) 0.3765(3)
H29 H 0.5426 0.7740 0.3622
H30 H 0.5191 0.8627 0.3312
O1A O 0.6432(3) 0.09155(18) 1.37138(19)
C5A C 0.5919(4) 0.1639(3) 1.3332(3)
C6A C 0.6049(4) 0.2027(3) 1.2370(3)
C7A C 0.4215(5) 0.4431(3) 1.0602(3)
C8A C 0.5746(4) 0.2890(3) 1.1916(3)
H6A H 0.5520 0.3239 1.2223
C9A C 0.5394(5) 0.4163(3) 1.0508(3)
O4A O 0.1427(4) 0.3717(3) 1.1935(3)
C13A C 0.3813(5) 0.5272(3) 1.0082(3)
O6A O 0.0665(4) 0.5181(3) 1.0900(3)
C14A C 0.5771(5) 0.3246(3) 1.1023(3)
C15A C 0.6410(5) 0.1515(3) 1.1911(4)
H9A H 0.6606 0.0935 1.2210
C17A C 0.6130(6) 0.2704(4) 1.0580(4)
H10A H 0.6132 0.2924 0.9978
C19A C 0.2590(5) 0.5530(3) 1.0167(3)
H11A H 0.2315 0.6073 0.9806
C20A C 0.3364(5) 0.3882(4) 1.1219(4)
H12A H 0.3593 0.3317 1.1551
C21A C 0.6874(11) 0.1327(5) 1.0495(6)
C22A C 0.2246(6) 0.4163(4) 1.1327(4)
C23A C 0.1828(6) 0.4991(4) 1.0769(4)
C24A C 0.1912(8) 0.2950(5) 1.2650(5)
H13A H 0.1328 0.2758 1.3112
H14A H 0.2079 0.2492 1.2439
H15A H 0.2643 0.3104 1.2860
O9A O 0.7169(7) 0.0530(4) 1.0935(4)
H16A H 0.7375 0.0289 1.0603
O10A O 0.6991(9) 0.1659(4) 0.9710(4)
C26A C 0.0247(6) 0.6032(5) 1.0370(5)
H20A H -0.0607 0.6076 1.0452
H21A H 0.0653 0.6457 1.0532
H22A H 0.0416 0.6131 0.9773
C27A C 0.6484(6) 0.1847(4) 1.1017(4)
O11A O 0.5299(3) 0.20508(19) 1.3684(2)
C1A C -0.1082(4) 0.2783(3) 0.5128(3)
H3A H -0.1812 0.3065 0.5133
C2A C -0.0379(4) 0.4796(3) 0.4288(3)
C3A C -0.0021(4) 0.4143(3) 0.5036(3)
C4A C -0.0351(4) 0.5690(3) 0.4239(3)
C10A C -0.0004(4) 0.3226(3) 0.5079(3)
C11A C -0.0696(5) 0.6346(3) 0.3446(4)
H7A H -0.0660 0.6921 0.3401
C12A C -0.0788(4) 0.4648(3) 0.3543(3)
H8A H -0.0823 0.4081 0.3562
O5A O -0.1570(4) 0.5210(3) 0.2085(2)
O7A O -0.3189(3) 0.19415(19) 0.5147(2)
C16A C -0.1126(5) 0.5295(4) 0.2815(4)
O8A O -0.1335(6) 0.6772(3) 0.1971(3)
C18A C -0.1070(6) 0.6179(3) 0.2759(4)
C25A C -0.1679(7) 0.4344(4) 0.2112(4)
H17A H -0.2200 0.4025 0.2585
H18A H -0.2014 0.4353 0.1579
H19A H -0.0897 0.4071 0.2192
C28A C -0.1176(12) 0.7657(6) 0.1846(6)
H23A H -0.1743 0.7821 0.2202
H24A H -0.0369 0.7741 0.2001
H25A H -0.1308 0.8008 0.1249
C29A C 0.1082(4) 0.2796(3) 0.5062(3)
H26A H 0.1806 0.3084 0.5027
C30A C 0.1104(3) 0.1945(2) 0.5098(3)
C31A C 0.0006(3) 0.1518(2) 0.5150(3)
H27A H 0.0012 0.0949 0.5171
C32A C -0.1089(3) 0.1927(2) 0.5169(3)
O13A O -0.2233(2) 0.07200(17) 0.5246(2)
C33A C 0.2290(3) 0.1518(3) 0.5071(3)
O14A O 0.2301(2) 0.06977(17) 0.5339(2)
O15A O 0.3171(2) 0.20051(18) 0.4760(2)
C34A C -0.2259(4) 0.1494(3) 0.5180(3)
Ni1A Ni -0.64014(4) -0.00459(3) 0.50342(3)
Ni2A Ni -0.49827(4) 0.18774(3) 0.49554(4)
O2A O -0.6522(3) 0.0831(2) 0.3726(2)
H1A H -0.7270 0.0930 0.3571
H2A H -0.6194 0.1319 0.3671
O3A O -0.4963(3) 0.3226(2) 0.4603(3)
H4A H -0.4980 0.3592 0.4087
H5A H -0.4935 0.3492 0.4953
O12A O -0.5024(2) 0.06007(15) 0.53487(17)
H28A H -0.5001 0.0385 0.5983
O16A O -0.5247(4) 0.1829(3) 0.6235(3)
H29A H -0.5426 0.2260 0.6378
H30A H -0.5191 0.1373 0.6688
Ni1_2 Ni -0.35986(4) 0.00459(3) 0.49658(3)
Ni1_3 Ni -0.35986(4) 1.00459(3) 0.49658(3)
Ni1_4 Ni 0.64014(4) 0.00459(3) 1.49658(3)
Ni1A_2 Ni 0.35986(4) -0.00459(3) 0.50342(3)
Ni1A_3 Ni 0.35986(4) 0.99541(3) 0.50342(3)
Ni2_2 Ni -0.50173(4) -0.18774(3) 0.50446(4)
Ni2_3 Ni -0.50173(4) 0.81226(3) 0.50446(4)
Ni2A_2 Ni 0.50173(4) 0.18774(3) 0.49554(4)
Ni2A_3 Ni 0.50173(4) 0.18774(3) 1.49554(4)
Ni2A_4 Ni 0.50173(4) 1.18774(3) 0.49554(4)
O1_2 O -0.6432(3) -0.09155(18) 0.62862(19)
O1A_2 O 0.6432(3) 1.09155(18) 0.37138(19)
O11A_2 O -0.4701(3) 0.20508(19) 0.3684(2)
O12_2 O -0.4976(2) -0.06007(15) 0.46513(17)
O12A_2 O 0.4976(2) 1.06007(15) 0.53487(17)
O13_2 O -0.7767(2) -0.07200(17) 0.4754(2)
O13A_2 O 0.7767(2) 1.07200(17) 0.5246(2)
O14_2 O 0.7699(2) 0.93023(17) 0.4661(2)
O14A_2 O -0.7699(2) 0.06977(17) 0.5339(2)
O15_2 O 0.6829(2) 0.79949(18) 0.5240(2)
O15A_2 O -0.6829(2) 0.20051(18) 0.4760(2)
loop_
_geom_bond_atom_site_label_1
_geom_bond_atom_site_label_2
_geom_bond_site_symmetry_1
_geom_bond_site_symmetry_2
Ni1 O2 1_555 1_555
Ni2 O3 1_555 1_555
O1 C5 1_555 1_555
O2 H1 1_555 1_555
H2 O2 1_555 1_555
C1 H3 1_555 1_555
C2 C3 1_555 1_555
C3 C10 1_555 1_555
C4 C2 1_555 1_555
O3 H4 1_555 1_555
H5 O3 1_555 1_555
C5 C6 1_555 1_555
C6 C8 1_555 1_555
C7 C9 1_555 1_555
C8 H6 1_555 1_555
C9 C14 1_555 1_555
O4 C22 1_555 1_555
C10 C1 1_555 1_555
C11 C4 1_555 1_555
H7 C11 1_555 1_555
C12 C2 1_555 1_555
H8 C12 1_555 1_555
O5 C16 1_555 1_555
C13 C7 1_555 1_555
O6 C23 1_555 1_555
C14 C8 1_555 1_555
C15 C6 1_555 1_555
H9 C15 1_555 1_555
O7 Ni2 1_555 1_555
C16 C12 1_555 1_555
O8 C18 1_555 1_555
C17 C14 1_555 1_555
H10 C17 1_555 1_555
C18 C11 1_555 1_555
C19 C13 1_555 1_555
H11 C19 1_555 1_555
C20 C7 1_555 1_555
H12 C20 1_555 1_555
C21 O9 1_555 1_555
C22 C20 1_555 1_555
C23 C19 1_555 1_555
C24 O4 1_555 1_555
H13 C24 1_555 1_555
H14 C24 1_555 1_555
H15 C24 1_555 1_555
O9 H16 1_555 1_555
C25 O5 1_555 1_555
H17 C25 1_555 1_555
H18 C25 1_555 1_555
H19 C25 1_555 1_555
O10 C21 1_555 1_555
C26 O6 1_555 1_555
H20 C26 1_555 1_555
H21 C26 1_555 1_555
H22 C26 1_555 1_555
C27 C15 1_555 1_555
C28 O8 1_555 1_555
H23 C28 1_555 1_555
H24 C28 1_555 1_555
H25 C28 1_555 1_555
C29 C10 1_555 1_555
H26 C29 1_555 1_555
C30 C29 1_555 1_555
C31 C30 1_555 1_555
H27 C31 1_555 1_555
C32 C1 1_555 1_555
O11 Ni2 1_555 1_555
O12 Ni1 1_555 1_555
H28 O12 1_555 1_555
O13 C34 1_555 1_555
C33 C30 1_555 1_555
O14 C33 1_555 1_555
O15 C33 1_555 1_555
C34 O7 1_555 1_555
O16 Ni2 1_555 1_555
H29 O16 1_555 1_555
H30 O16 1_555 1_555
O1A C5A 1_555 1_555
C5A C6A 1_555 1_555
C6A C8A 1_555 1_555
C7A C9A 1_555 1_555
C8A H6A 1_555 1_555
C9A C13 1_555 1_555
O4A C22A 1_555 1_555
C13A C9 1_555 1_555
O6A C23A 1_555 1_555
C14A C8A 1_555 1_555
C15A C6A 1_555 1_555
H9A C15A 1_555 1_555
C17A C14A 1_555 1_555
H10A C17A 1_555 1_555
C19A C13A 1_555 1_555
H11A C19A 1_555 1_555
C20A C7A 1_555 1_555
H12A C20A 1_555 1_555
C21A O9A 1_555 1_555
C22A C20A 1_555 1_555
C23A C19A 1_555 1_555
C24A O4A 1_555 1_555
H13A C24A 1_555 1_555
H14A C24A 1_555 1_555
H15A C24A 1_555 1_555
O9A H16A 1_555 1_555
O10A C21A 1_555 1_555
C26A O6A 1_555 1_555
H20A C26A 1_555 1_555
H21A C26A 1_555 1_555
H22A C26A 1_555 1_555
C27A C15A 1_555 1_555
O11A C5A 1_555 1_555
C1A H3A 1_555 1_555
C2A C3A 1_555 1_555
C3A C4 1_555 1_555
C4A C3 1_555 1_555
C10A C1A 1_555 1_555
C11A C4A 1_555 1_555
H7A C11A 1_555 1_555
C12A C2A 1_555 1_555
H8A C12A 1_555 1_555
O5A C16A 1_555 1_555
O7A C34A 1_555 1_555
C16A C12A 1_555 1_555
O8A C18A 1_555 1_555
C18A C11A 1_555 1_555
C25A O5A 1_555 1_555
H17A C25A 1_555 1_555
H18A C25A 1_555 1_555
H19A C25A 1_555 1_555
C28A O8A 1_555 1_555
H23A C28A 1_555 1_555
H24A C28A 1_555 1_555
H25A C28A 1_555 1_555
C29A C10A 1_555 1_555
H26A C29A 1_555 1_555
C30A C29A 1_555 1_555
C31A C30A 1_555 1_555
H27A C31A 1_555 1_555
C32A C1A 1_555 1_555
O13A C34A 1_555 1_555
C33A C30A 1_555 1_555
O14A C33A 1_555 1_555
O15A C33A 1_555 1_555
C34A C32A 1_555 1_555
Ni1A O2A 1_555 1_555
Ni2A O7A 1_555 1_555
O2A H1A 1_555 1_555
H2A O2A 1_555 1_555
O3A Ni2A 1_555 1_555
H4A O3A 1_555 1_555
H5A O3A 1_555 1_555
O12A Ni1A 1_555 1_555
H28A O12A 1_555 1_555
O16A Ni2A 1_555 1_555
H29A O16A 1_555 1_555
H30A O16A 1_555 1_555
Ni1_2 O13A 1_555 1_555
Ni1_3 O14 1_555 1_555
Ni1_4 O1A 1_555 1_555
Ni1A_2 O14A 1_555 1_555
Ni1A_3 Ni1 1_555 1_555
Ni2_2 Ni1A 1_555 1_555
Ni2_3 O15 1_555 1_555
Ni2A_2 O15A 1_555 1_555
Ni2A_3 O11A 1_555 1_555
Ni2A_4 Ni1 1_555 1_555
O1_2 Ni1A 1_555 1_555
O1A_2 Ni1 1_555 1_555
O11A_2 Ni2A 1_555 1_555
O12_2 Ni1A 1_555 1_555
O12A_2 Ni1 1_555 1_555
O13_2 Ni1A 1_555 1_555
O13A_2 Ni1 1_555 1_555
O14_2 Ni1 1_555 1_555
O14A_2 Ni1A 1_555 1_555
O15_2 Ni2 1_555 1_555
O15A_2 Ni2A 1_555 1_555
Ni2 O12 1_555 1_555
Ni2 Ni1A_3 1_555 1_555
O1 Ni1A_3 1_555 1_555
C5 O11 1_555 1_555
C16 C18 1_555 1_555
C17 C27 1_555 1_555
C21 C27 1_555 1_555
C22 C23 1_555 1_555
C31 C32 1_555 1_555
C32 C34 1_555 1_555
O12 Ni1A_3 1_555 1_555
O13 Ni1A_3 1_555 1_555
C7A C13A 1_555 1_555
C9A C14A 1_555 1_555
C17A C27A 1_555 1_555
C21A C27A 1_555 1_555
C22A C23A 1_555 1_555
C2A C4A 1_555 1_555
C3A C10A 1_555 1_555
C16A C18A 1_555 1_555
C31A C32A 1_555 1_555
Ni1A Ni1_2 1_555 1_555
Ni2A O12A 1_555 1_555
Ni2A Ni1_2 1_555 1_555
O12A Ni1_2 1_555 1_555
Ni1_2 O12_2 1_555 1_555
Ni1_4 Ni2A_3 1_555 1_555
Ni1A_3 O12A_2 1_555 1_555
Ni2_2 O12_2 1_555 1_555
Ni2A_4 O12A_2 1_555 1_555

#END
