
#######################################################################
#
#                 Cambridge Crystallographic Data Centre
#                                CCDC 
#
#######################################################################
#
# If this CIF has been generated from an entry in the Cambridge 
# Structural Database, then it will include bibliographic, chemical, 
# crystal, experimental, refinement or atomic coordinate data resulting 
# from the CCDC's data processing and validation procedures.
#
#######################################################################

data_ZUDWUS
_chemical_formula_moiety         'C10 H8 F10 Fe13 N30 O7'
_symmetry_cell_setting           monoclinic
_symmetry_space_group_name_H-M   'P 2/m'
_symmetry_Int_Tables_number      10
_space_group_name_Hall           '-P 2y'
loop_
_symmetry_equiv_pos_site_id
_symmetry_equiv_pos_as_xyz
1 x,y,z
2 -x,y,-z
3 -x,-y,-z
4 x,-y,z
_cell_length_a                   6.6118(6)
_cell_length_b                   12.4325(11)
_cell_length_c                   8.8075(7)
_cell_angle_alpha                90
_cell_angle_beta                 107.723(3)
_cell_angle_gamma                90
_cell_volume                     689.626
loop_
_atom_site_label
_atom_site_type_symbol
_atom_site_fract_x
_atom_site_fract_y
_atom_site_fract_z
Fe1 Fe 0.5000 0.0000 1.0000
Fe2 Fe 1.0000 0.0000 1.0000
Fe3 Fe 0.5000 0.36653(6) 0.5000
Fe4 Fe 0.0000 0.5000 0.5000
F1 F 0.8042(5) 0.0000 1.1388(4)
F2 F 0.2183(4) 0.38055(18) 0.5425(3)
O1 O 0.3939(6) 0.5000 0.3340(5)
O2 O -0.0035(8) 0.5000 0.2577(5)
N1 N 0.7972(5) 0.1250(3) 0.8589(4)
N2 N 0.5890(5) 0.1212(3) 0.8501(4)
N3 N 0.4812(5) 0.1927(3) 0.7506(4)
N4 N 0.6162(5) 0.2471(3) 0.6892(4)
C1 C 0.8082(6) 0.2050(3) 0.7593(5)
N5 N 0.9897(6) 0.2360(4) 0.7306(6)
H1 H 0.9865 0.2863 0.6629
H2 H 1.1080 0.2054 0.7802
C2 C 0.176(2) 0.5000 0.2290(18)
F2A F -0.2183(4) 0.38055(18) 0.4575(3)
O1A O -0.3939(6) 0.5000 0.6660(5)
O2A O 0.0035(8) 0.5000 0.7423(5)
C2A C -0.176(2) 0.5000 0.7710(18)
Fe3B Fe 0.5000 -0.36653(6) 0.5000
F2C F 0.2183(4) -0.38055(18) 0.5425(3)
N1C N 0.7972(5) -0.1250(3) 0.8589(4)
N2C N 0.5890(5) -0.1212(3) 0.8501(4)
N3C N 0.4812(5) -0.1927(3) 0.7506(4)
N4C N 0.6162(5) -0.2471(3) 0.6892(4)
C1C C 0.8082(6) -0.2050(3) 0.7593(5)
N5C N 0.9897(6) -0.2360(4) 0.7306(6)
H1C H 0.9865 -0.2863 0.6629
H2C H 1.1080 -0.2054 0.7802
N1A N 0.2028(5) 0.1250(3) 1.1411(4)
N2A N 0.4110(5) 0.1212(3) 1.1499(4)
N3A N 0.5188(5) 0.1927(3) 1.2494(4)
N4A N 0.3838(5) 0.2471(3) 1.3108(4)
C1A C 0.1918(6) 0.2050(3) 1.2407(5)
N5A N 0.0103(6) 0.2360(4) 1.2694(6)
H1A H 0.0135 0.2863 1.3371
H2A H -0.1080 0.2054 1.2198
N1B N 0.2028(5) -0.1250(3) 1.1411(4)
N2B N 0.4110(5) -0.1212(3) 1.1499(4)
N3B N 0.5188(5) -0.1927(3) 1.2494(4)
N4B N 0.3838(5) -0.2471(3) 1.3108(4)
C1B C 0.1918(6) -0.2050(3) 1.2407(5)
N5B N 0.0103(6) -0.2360(4) 1.2694(6)
H1B H 0.0135 -0.2863 1.3371
H2B H -0.1080 -0.2054 1.2198
F1A F 0.1958(5) 0.0000 0.8612(4)
F2A_2 F 0.7817(4) 0.38055(18) 0.4575(3)
Fe2_2 Fe 0.0000 0.0000 1.0000
Fe3_2 Fe -0.5000 0.36653(6) 0.5000
Fe3_3 Fe 0.5000 0.36653(6) 1.5000
Fe3B_2 Fe -0.5000 0.63347(6) 0.5000
Fe3B_3 Fe 0.5000 -0.36653(6) 1.5000
Fe3B_4 Fe 0.5000 0.63347(6) 0.5000
Fe4_2 Fe 0.0000 -0.5000 0.5000
Fe4_3 Fe 1.0000 0.5000 0.5000
F1A_2 F 1.1958(5) 0.0000 0.8612(4)
F2B F -0.2183(4) 0.61945(18) 0.4575(3)
F2B_2 F 0.7817(4) -0.38055(18) 0.4575(3)
F2C_2 F 0.2183(4) 0.61945(18) 0.5425(3)
O1_2 O 0.3939(6) -0.5000 0.3340(5)
O1A_2 O 0.6061(6) -0.5000 0.6660(5)
O1A_3 O 0.6061(6) 0.5000 0.6660(5)
N1A_2 N 1.2028(5) 0.1250(3) 1.1411(4)
N1B_2 N 1.2028(5) -0.1250(3) 1.1411(4)
N4A_2 N 0.3838(5) 0.2471(3) 0.3108(4)
N4B_2 N 0.3838(5) -0.2471(3) 0.3108(4)
C3 C -0.1875(16) 0.0000 0.5031(11)
N6 N -0.050(4) -0.0477(18) 0.460(2)
C3A C 0.1875(16) 0.0000 0.4969(11)
N6A N 0.050(4) -0.0477(18) 0.540(2)
N6B N 0.050(4) 0.0477(18) 0.540(2)
N6C N -0.050(4) 0.0477(18) 0.460(2)
C4 C 0.5000 0.4010(7) 1.0000
N7 N 0.437(2) 0.5000 0.9086(17)
N7A N 0.563(2) 0.5000 1.0914(17)
C4B C 0.5000 0.5990(7) 1.0000
loop_
_geom_bond_atom_site_label_1
_geom_bond_atom_site_label_2
_geom_bond_site_symmetry_1
_geom_bond_site_symmetry_2
Fe1 F1 1_555 1_555
Fe2 F1 1_555 1_555
Fe3 F2 1_555 1_555
Fe4 F2 1_555 1_555
O1 Fe3 1_555 1_555
O2 Fe4 1_555 1_555
N1 Fe2 1_555 1_555
N2 Fe1 1_555 1_555
N3 N2 1_555 1_555
N4 Fe3 1_555 1_555
C1 N1 1_555 1_555
N5 C1 1_555 1_555
H1 N5 1_555 1_555
H2 N5 1_555 1_555
C2 O1 1_555 1_555
C3 N6 1_555 1_555
N6 C3A 1_555 1_555
C4 N7 1_555 1_555
N7 N7A 1_555 1_555
F2A Fe4 1_555 1_555
O1A C2A 1_555 1_555
O2A Fe4 1_555 1_555
C2A O2A 1_555 1_555
Fe3B F2C 1_555 1_555
F2C Fe4_2 1_555 1_555
N1C Fe2 1_555 1_555
N2C Fe1 1_555 1_555
N3C N2C 1_555 1_555
N4C Fe3B 1_555 1_555
C1C N1C 1_555 1_555
N5C C1C 1_555 1_555
H1C N5C 1_555 1_555
H2C N5C 1_555 1_555
N1A N2A 1_555 1_555
N2A Fe1 1_555 1_555
N3A N2A 1_555 1_555
N4A N3A 1_555 1_555
C1A N1A 1_555 1_555
N5A C1A 1_555 1_555
H1A N5A 1_555 1_555
H2A N5A 1_555 1_555
N1B N2B 1_555 1_555
N2B Fe1 1_555 1_555
N3B N2B 1_555 1_555
N4B N3B 1_555 1_555
C1B N1B 1_555 1_555
N5B C1B 1_555 1_555
H1B N5B 1_555 1_555
H2B N5B 1_555 1_555
F1A Fe1 1_555 1_555
F2A_2 Fe3 1_555 1_555
Fe2_2 N1A 1_555 1_555
Fe3_2 F2A 1_555 1_555
Fe3_3 N4A 1_555 1_555
Fe3B_2 O1A 1_555 1_555
Fe3B_3 N4B 1_555 1_555
Fe3B_4 O1 1_555 1_555
Fe4_3 F2A_2 1_555 1_555
F1A_2 Fe2 1_555 1_555
F2B Fe4 1_555 1_555
F2B_2 Fe3B 1_555 1_555
F2C_2 Fe4 1_555 1_555
O1_2 Fe3B 1_555 1_555
O1A_2 Fe3B 1_555 1_555
O1A_3 Fe3 1_555 1_555
N1A_2 Fe2 1_555 1_555
N1B_2 Fe2 1_555 1_555
N4A_2 Fe3 1_555 1_555
N4B_2 Fe3B 1_555 1_555
C3A N6A 1_555 1_555
N6A C3 1_555 1_555
N6B C3 1_555 1_555
N6C C3 1_555 1_555
N7A C4 1_555 1_555
C4B N7 1_555 1_555
O2 C2 1_555 1_555
N1 N2 1_555 1_555
N3 N4 1_555 1_555
N4 C1 1_555 1_555
O1A Fe3_2 1_555 1_555
N1C N2C 1_555 1_555
N3C N4C 1_555 1_555
N4C C1C 1_555 1_555
N4A C1A 1_555 1_555
N1B Fe2_2 1_555 1_555
N4B C1B 1_555 1_555
F1A Fe2_2 1_555 1_555
Fe3B_2 F2B 1_555 1_555
Fe3B_4 F2C_2 1_555 1_555
Fe3B_4 O1A_3 1_555 1_555
C3A N6B 1_555 1_555
C3A N6C 1_555 1_555
N7A C4B 1_555 1_555

#END
