
#######################################################################
#
#                 Cambridge Crystallographic Data Centre
#                                CCDC 
#
#######################################################################
#
# If this CIF has been generated from an entry in the Cambridge 
# Structural Database, then it will include bibliographic, chemical, 
# crystal, experimental, refinement or atomic coordinate data resulting 
# from the CCDC's data processing and validation procedures.
#
#######################################################################

data_IMACZN01
_chemical_formula_moiety         '(C8 H18 N2 O11 Zn1)n'
_symmetry_cell_setting           orthorhombic
_symmetry_space_group_name_H-M   'C 2 2 2'
_symmetry_Int_Tables_number      21
_space_group_name_Hall           'C 2 2'
loop_
_symmetry_equiv_pos_site_id
_symmetry_equiv_pos_as_xyz
1 x,y,z
2 -x,-y,z
3 x,-y,-z
4 -x,y,-z
5 1/2+x,1/2+y,z
6 1/2-x,1/2-y,z
7 1/2+x,1/2-y,-z
8 1/2-x,1/2+y,-z
_cell_length_a                   12.9511(18)
_cell_length_b                   17.855(2)
_cell_length_c                   6.6597(8)
_cell_angle_alpha                90
_cell_angle_beta                 90
_cell_angle_gamma                90
_cell_volume                     1540
loop_
_atom_site_label
_atom_site_type_symbol
_atom_site_fract_x
_atom_site_fract_y
_atom_site_fract_z
_atom_site_U_iso_or_equiv
_atom_site_thermal_displace_type
Zn1 Zn 0.7500 0.2500 0.11981(4) 0.0191 Uani
O1 O 0.66495(16) 0.31603(10) 0.2902(3) 0.0285 Uani
O2 O 0.80602(17) 0.38412(13) 0.3399(5) 0.0389 Uani
O3 O 0.64809(17) 0.19955(11) -0.0514(3) 0.0285 Uani
O4 O 0.6156(3) 0.30575(13) -0.2159(4) 0.0528 Uani
N1 N 0.7078(3) 0.5000 0.5000 0.0253 Uani
N2 N 0.5000 0.23915(16) -0.5000 0.0219 Uani
C1 C 0.6436(2) 0.43494(13) 0.4365(5) 0.0270 Uani
H1 H 0.5928 0.4511 0.3341 0.0320 Uiso
H2 H 0.6052 0.4149 0.5534 0.0320 Uiso
C2 C 0.7130(2) 0.37445(13) 0.3500(5) 0.0229 Uani
C3 C 0.5420(2) 0.19243(13) -0.3347(4) 0.0247 Uani
H3 H 0.5847 0.1518 -0.3921 0.0300 Uiso
H4 H 0.4841 0.1691 -0.2603 0.0300 Uiso
C4 C 0.6068(2) 0.23822(14) -0.1908(4) 0.0252 Uani
H7 H 0.746(7) 0.511(6) 0.384(12) 0.2400 Uiso
H8 H 0.537(7) 0.277(5) -0.55(2) 0.2400 Uiso
Zn1C Zn 0.2500 0.2500 -1.11981(4) 0.0191 Uani
Zn1B Zn 0.7500 0.7500 0.88019(4) 0.0191 Uani
O1B O 0.66495(16) 0.68397(10) 0.7098(3) 0.0285 Uani
O1E O 0.83505(16) 0.18397(10) 0.2902(3) 0.0285 Uani
O2B O 0.80602(17) 0.61588(13) 0.6601(5) 0.0389 Uani
O3C O 0.35191(17) 0.19955(11) -0.9486(3) 0.0285 Uani
O3E O 0.85191(17) 0.30045(11) -0.0514(3) 0.0285 Uani
O4C O 0.3844(3) 0.30575(13) -0.7841(4) 0.0528 Uani
C1B C 0.6436(2) 0.56506(13) 0.5635(5) 0.0270 Uani
H1B H 0.5928 0.5489 0.6659 0.0320 Uiso
H2B H 0.6052 0.5851 0.4466 0.0320 Uiso
C2B C 0.7130(2) 0.62555(13) 0.6500(5) 0.0229 Uani
C3C C 0.4580(2) 0.19243(13) -0.6653(4) 0.0247 Uani
H3C H 0.4153 0.1518 -0.6079 0.0300 Uiso
H4C H 0.5159 0.1691 -0.7397 0.0300 Uiso
C4C C 0.3932(2) 0.23822(14) -0.8092(4) 0.0252 Uani
H7B H 0.746(7) 0.489(6) 0.616(12) 0.2400 Uiso
H8C H 0.463(7) 0.277(5) -0.45(2) 0.2400 Uiso
O5 O 0.7847(8) 0.5533(2) 0.1416(6) 0.1761 Uani
H5 H 0.784(9) 0.597(4) 0.193(19) 0.2400 Uiso
H6 H 0.845(3) 0.546(7) 0.09(2) 0.2400 Uiso
O6 O 0.5000 0.4240(4) 0.0000 0.1353 Uani
H9 H 0.442(5) 0.450(6) 0.06(3) 0.2400 Uiso
H9C H 0.558(5) 0.450(6) -0.06(3) 0.2400 Uiso
O7 O 1.0000 0.5000 0.301(3) 0.2003 Uani
H10 H 0.999(12) 0.450(5) 0.23(3) 0.2400 Uiso
H10A H 1.001(12) 0.550(5) 0.23(3) 0.2400 Uiso
loop_
_atom_site_aniso_label
_atom_site_aniso_U_11
_atom_site_aniso_U_22
_atom_site_aniso_U_33
_atom_site_aniso_U_23
_atom_site_aniso_U_13
_atom_site_aniso_U_12
Zn1 0.02258(18) 0.01889(15) 0.01574(15) 0.000 0.000 0.00035(17)
O1 0.0329(10) 0.0201(7) 0.0326(10) -0.0090(7) 0.0077(8) -0.0038(7)
O2 0.0244(10) 0.0399(11) 0.0525(18) -0.0165(11) 0.0047(10) 0.0020(9)
O3 0.0321(10) 0.0305(8) 0.0228(8) -0.0006(7) -0.0100(8) -0.0018(8)
O4 0.080(2) 0.0324(10) 0.0460(14) 0.0100(9) -0.0315(15) -0.0148(12)
N1 0.0272(14) 0.0187(11) 0.0299(14) -0.0099(11) 0.000 0.000
N2 0.0237(12) 0.0245(16) 0.0176(10) 0.000 -0.0054(9) 0.000
C1 0.0242(11) 0.0204(9) 0.0365(13) -0.0087(9) 0.0023(11) -0.0026(9)
C2 0.0292(11) 0.0188(9) 0.0206(12) -0.0025(8) 0.0025(10) 0.0010(8)
C3 0.0270(11) 0.0265(10) 0.0205(10) -0.0007(8) -0.0086(9) -0.0005(9)
C4 0.0252(10) 0.0328(15) 0.0177(9) -0.0031(9) -0.0047(8) -0.0028(9)
Zn1C 0.02258 0.01889 0.01574 0 0 -0.00035
Zn1B 0.02258 0.01889 0.01574 0 0 -0.00035
O1B 0.0329 0.0201 0.0326 -0.009 -0.0077 0.0038
O1E 0.0329 0.0201 0.0326 0.009 -0.0077 -0.0038
O2B 0.0244 0.0399 0.0525 -0.0165 -0.0047 -0.002
O3C 0.0321 0.0305 0.0228 0.0006 -0.01 0.0018
O3E 0.0321 0.0305 0.0228 0.0006 0.01 -0.0018
O4C 0.08 0.0324 0.046 -0.01 -0.0315 0.0148
C1B 0.0242 0.0204 0.0365 -0.0087 -0.0023 0.0026
C2B 0.0292 0.0188 0.0206 -0.0025 -0.0025 -0.001
C3C 0.027 0.0265 0.0205 0.0007 -0.0086 0.0005
C4C 0.0252 0.0328 0.0177 0.0031 -0.0047 0.0028
O5 0.419(12) 0.0502(16) 0.059(2) -0.0191(15) 0.102(4) -0.092(4)
O6 0.171(9) 0.067(4) 0.168(9) 0.000 -0.069(9) 0.000
O7 0.257(13) 0.083(4) 0.261(18) 0.000 0.000 0.027(9)
loop_
_geom_bond_atom_site_label_1
_geom_bond_atom_site_label_2
_geom_bond_site_symmetry_1
_geom_bond_site_symmetry_2
Zn1 O1 1_555 1_555
O1 C2 1_555 1_555
O2 C2 1_555 1_555
O3 Zn1 1_555 1_555
O4 C4 1_555 1_555
N1 C1 1_555 1_555
N2 C3 1_555 1_555
C1 H1 1_555 1_555
H2 C1 1_555 1_555
C2 C1 1_555 1_555
C3 H3 1_555 1_555
H4 C3 1_555 1_555
C4 O3 1_555 1_555
O5 H5 1_555 1_555
O6 H9 1_555 1_555
O7 H10 1_555 1_555
H6 O5 1_555 1_555
H7 N1 1_555 1_555
H8 N2 1_555 1_555
Zn1C O3C 1_555 1_555
Zn1B O1B 1_555 1_555
O1B C2B 1_555 1_555
O1E Zn1 1_555 1_555
O2B C2B 1_555 1_555
O3C C4C 1_555 1_555
O3E Zn1 1_555 1_555
O4C C4C 1_555 1_555
C1B N1 1_555 1_555
H1B C1B 1_555 1_555
H2B C1B 1_555 1_555
C2B C1B 1_555 1_555
C3C N2 1_555 1_555
H3C C3C 1_555 1_555
H4C C3C 1_555 1_555
C4C C3C 1_555 1_555
H7B N1 1_555 1_555
H8C N2 1_555 1_555
H9C O6 1_555 1_555
H10A O7 1_555 1_555
C3 C4 1_555 1_555

#END
