
#######################################################################
#
#                 Cambridge Crystallographic Data Centre
#                                CCDC 
#
#######################################################################
#
# If this CIF has been generated from an entry in the Cambridge 
# Structural Database, then it will include bibliographic, chemical, 
# crystal, experimental, refinement or atomic coordinate data resulting 
# from the CCDC's data processing and validation procedures.
#
#######################################################################

data_AQOLEZ
_chemical_formula_moiety         'C120 H24 Cl8 Co32 N121 O12'
_symmetry_cell_setting           cubic
_symmetry_space_group_name_H-M   'P m -3 m'
_symmetry_Int_Tables_number      221
_space_group_name_Hall           '-P 4 2 3'
loop_
_symmetry_equiv_pos_site_id
_symmetry_equiv_pos_as_xyz
1 x,y,z
2 -y,x,z
3 -x,-y,z
4 y,-x,z
5 x,-z,y
6 x,-y,-z
7 x,z,-y
8 z,y,-x
9 -x,y,-z
10 -z,y,x
11 z,x,y
12 y,z,x
13 -y,-z,x
14 z,-x,-y
15 -y,z,-x
16 -z,-x,y
17 -z,x,-y
18 y,-z,-x
19 y,x,-z
20 -y,-x,-z
21 -x,z,y
22 -x,-z,-y
23 z,-y,x
24 -z,-y,-x
25 -x,-y,-z
26 y,-x,-z
27 x,y,-z
28 -y,x,-z
29 -x,z,-y
30 -x,y,z
31 -x,-z,y
32 -z,-y,x
33 x,-y,z
34 z,-y,-x
35 -z,-x,-y
36 -y,-z,-x
37 y,z,-x
38 -z,x,y
39 y,-z,x
40 z,x,-y
41 z,-x,y
42 -y,z,x
43 -y,-x,z
44 y,x,z
45 x,-z,-y
46 x,z,y
47 -z,y,-x
48 z,y,x
_cell_length_a                   18.7059(4)
_cell_length_b                   18.7059(4)
_cell_length_c                   18.7059(4)
_cell_angle_alpha                90
_cell_angle_beta                 90
_cell_angle_gamma                90
_cell_volume                     6545.39
loop_
_atom_site_label
_atom_site_type_symbol
_atom_site_fract_x
_atom_site_fract_y
_atom_site_fract_z
Co1 Co 0.0000 0.36896(5) 0.5000
Cl1 Cl 0.0000 0.5000 0.5000
N1 N 0.07344(14) 0.37229(15) 0.57635(16)
N2 N 0.12803(17) 0.32884(18) 0.58845(18)
C1 C 0.2288(3) 0.32054(19) 0.67946(19)
C2 C 0.1638(3) 0.3524(2) 0.6476(2)
O1 O -0.0000 0.2525(4) 0.5000
C3 C 0.2597(2) 0.2597(2) 0.6503(3)
H1 H 0.2386 0.2386 0.6092
C4 C 0.022(2) 0.1940(15) 0.5562(14)
N1P N 0.42365(16) 0.07344(14) 0.62771(15)
N2P N 0.41155(18) 0.12803(17) 0.67116(18)
C1P C 0.32054(19) 0.2288(3) 0.67946(19)
C2P C 0.3524(2) 0.1638(3) 0.6476(2)
C3P C 0.3497(3) 0.2597(2) 0.7403(2)
H1P H 0.3908 0.2386 0.7614
N1Q N 0.37229(15) 0.42365(16) 0.92656(14)
N2Q N 0.32884(18) 0.41155(18) 0.87197(17)
C1Q C 0.32054(19) 0.32054(19) 0.7712(3)
C2Q C 0.3524(2) 0.3524(2) 0.8362(3)
C3Q C 0.2597(2) 0.3497(3) 0.7403(2)
H1Q H 0.2386 0.3908 0.7614
N1QA N 0.37229(15) 0.07344(14) 0.57635(16)
N2QA N 0.32884(18) 0.12803(17) 0.58845(18)
N1RA N 0.07344(14) 0.42365(16) 0.62771(15)
N2RA N 0.12803(17) 0.41155(18) 0.67116(18)
N1TA N 0.42365(16) 0.37229(15) 0.92656(14)
N2TA N 0.41155(18) 0.32884(18) 0.87197(17)
C4H C -0.022(2) 0.1940(15) 0.4438(14)
C4Z C 0.022(2) 0.1940(15) 0.4438(14)
C4CA C -0.022(2) 0.1940(15) 0.5562(14)
Co1A Co -0.36896(5) 0.0000 0.5000
Cl1A Cl -0.5000 0.0000 0.5000
N1A N -0.37229(15) 0.07344(14) 0.57635(16)
N2A N -0.32884(18) 0.12803(17) 0.58845(18)
C1A C -0.32054(19) 0.2288(3) 0.67946(19)
C2A C -0.3524(2) 0.1638(3) 0.6476(2)
O1A O -0.2525(4) 0.0000 0.5000
C3A C -0.2597(2) 0.2597(2) 0.6503(3)
H1A H -0.2386 0.2386 0.6092
C4A C -0.1940(15) 0.022(2) 0.5562(14)
N1U N -0.07344(14) 0.42365(16) 0.62771(15)
N2U N -0.12803(17) 0.41155(18) 0.67116(18)
C1U C -0.2288(3) 0.32054(19) 0.67946(19)
C2U C -0.1638(3) 0.3524(2) 0.6476(2)
C3U C -0.2597(2) 0.3497(3) 0.7403(2)
H1U H -0.2386 0.3908 0.7614
N1G N -0.42365(16) 0.37229(15) 0.92656(14)
N2G N -0.41155(18) 0.32884(18) 0.87197(17)
C1G C -0.32054(19) 0.32054(19) 0.7712(3)
C2G C -0.3524(2) 0.3524(2) 0.8362(3)
C3G C -0.3497(3) 0.2597(2) 0.7403(2)
H1G H -0.3908 0.2386 0.7614
N1CA N -0.07344(14) 0.37229(15) 0.57635(16)
N2CA N -0.12803(17) 0.32884(18) 0.58845(18)
N1MA N -0.42365(16) 0.07344(14) 0.62771(15)
N2MA N -0.41155(18) 0.12803(17) 0.67116(18)
N1IA N -0.37229(15) 0.42365(16) 0.92656(14)
N2IA N -0.32884(18) 0.41155(18) 0.87197(17)
C4S C -0.1940(15) -0.022(2) 0.4438(14)
C4AA C -0.1940(15) 0.022(2) 0.4438(14)
C4PA C -0.1940(15) -0.022(2) 0.5562(14)
Co1B Co 0.0000 0.63104(5) 0.5000
O1B O 0.0000 0.7475(4) 0.5000
C4B C -0.022(2) 0.8060(15) 0.5562(14)
C4E C 0.022(2) 0.8060(15) 0.4438(14)
C4X C -0.022(2) 0.8060(15) 0.4438(14)
C4FA C 0.022(2) 0.8060(15) 0.5562(14)
Co1C Co 0.36896(5) 0.0000 0.5000
Cl1A_2 Cl 0.5000 0.0000 0.5000
N1C N 0.37229(15) -0.07344(14) 0.57635(16)
N2C N 0.32884(18) -0.12803(17) 0.58845(18)
C1C C 0.32054(19) -0.2288(3) 0.67946(19)
C2C C 0.3524(2) -0.1638(3) 0.6476(2)
O1C O 0.2525(4) 0.0000 0.5000
C3C C 0.2597(2) -0.2597(2) 0.6503(3)
H1C H 0.2386 -0.2386 0.6092
C4C C 0.1940(15) -0.022(2) 0.5562(14)
N1F N 0.07344(14) -0.42365(16) 0.62771(15)
N2F N 0.12803(17) -0.41155(18) 0.67116(18)
C1F C 0.2288(3) -0.32054(19) 0.67946(19)
C2F C 0.1638(3) -0.3524(2) 0.6476(2)
C3F C 0.2597(2) -0.3497(3) 0.7403(2)
H1F H 0.2386 -0.3908 0.7614
N1W N 0.42365(16) -0.37229(15) 0.92656(14)
N2W N 0.41155(18) -0.32884(18) 0.87197(17)
C1W C 0.32054(19) -0.32054(19) 0.7712(3)
C2W C 0.3524(2) -0.3524(2) 0.8362(3)
C3W C 0.3497(3) -0.2597(2) 0.7403(2)
H1W H 0.3908 -0.2386 0.7614
N1FA N 0.07344(14) -0.37229(15) 0.57635(16)
N2FA N 0.12803(17) -0.32884(18) 0.58845(18)
N1HA N 0.42365(16) -0.07344(14) 0.62771(15)
N2HA N 0.41155(18) -0.12803(17) 0.67116(18)
N1JA N 0.37229(15) -0.42365(16) 0.92656(14)
N2JA N 0.32884(18) -0.41155(18) 0.87197(17)
C4R C 0.1940(15) 0.022(2) 0.4438(14)
C4Y C 0.1940(15) -0.022(2) 0.4438(14)
C4QA C 0.1940(15) 0.022(2) 0.5562(14)
Co1C_2 Co 0.36896(5) 1.0000 0.5000
N1C_2 N 0.37229(15) 0.92656(14) 0.57635(16)
N2C_2 N 0.32884(18) 0.87197(17) 0.58845(18)
C1C_2 C 0.32054(19) 0.7712(3) 0.67946(19)
C2C_2 C 0.3524(2) 0.8362(3) 0.6476(2)
O1C_2 O 0.2525(4) 1.0000 0.5000
C3C_2 C 0.2597(2) 0.7403(2) 0.6503(3)
H1C_2 H 0.2386 0.7614 0.6092
C4C_2 C 0.1940(15) 0.978(2) 0.5562(14)
N1F_2 N 0.07344(14) 0.57635(16) 0.62771(15)
N2F_2 N 0.12803(17) 0.58845(18) 0.67116(18)
C1F_2 C 0.2288(3) 0.67946(19) 0.67946(19)
C2F_2 C 0.1638(3) 0.6476(2) 0.6476(2)
C3F_2 C 0.2597(2) 0.6503(3) 0.7403(2)
H1F_2 H 0.2386 0.6092 0.7614
N1W_2 N 0.42365(16) 0.62771(15) 0.92656(14)
N2W_2 N 0.41155(18) 0.67116(18) 0.87197(17)
C1W_2 C 0.32054(19) 0.67946(19) 0.7712(3)
C2W_2 C 0.3524(2) 0.6476(2) 0.8362(3)
C3W_2 C 0.3497(3) 0.7403(2) 0.7403(2)
H1W_2 H 0.3908 0.7614 0.7614
N1FA_2 N 0.07344(14) 0.62771(15) 0.57635(16)
N2FA_2 N 0.12803(17) 0.67116(18) 0.58845(18)
N1HA_2 N 0.42365(16) 0.92656(14) 0.62771(15)
N2HA_2 N 0.41155(18) 0.87197(17) 0.67116(18)
N1JA_2 N 0.37229(15) 0.57635(16) 0.92656(14)
N2JA_2 N 0.32884(18) 0.58845(18) 0.87197(17)
C4R_2 C 0.1940(15) 1.022(2) 0.4438(14)
C4Y_2 C 0.1940(15) 0.978(2) 0.4438(14)
C4QA_2 C 0.1940(15) 1.022(2) 0.5562(14)
Co1D Co 0.0000 0.5000 0.36896(5)
N1D N 0.07344(14) 0.42365(16) 0.37229(15)
N2D N 0.12803(17) 0.41155(18) 0.32884(18)
C1D C 0.2288(3) 0.32054(19) 0.32054(19)
C2D C 0.1638(3) 0.3524(2) 0.3524(2)
O1D O -0.0000 0.5000 0.2525(4)
C3D C 0.2597(2) 0.3497(3) 0.2597(2)
H1D H 0.2386 0.3908 0.2386
C4D C 0.022(2) 0.4438(14) 0.1940(15)
N1I N 0.42365(16) 0.37229(15) 0.07344(14)
N2I N 0.41155(18) 0.32884(18) 0.12803(17)
C1I C 0.32054(19) 0.32054(19) 0.2288(3)
C2I C 0.3524(2) 0.3524(2) 0.1638(3)
C3I C 0.3497(3) 0.2597(2) 0.2597(2)
H1I H 0.3908 0.2386 0.2386
N1R N 0.37229(15) 0.07344(14) 0.42365(16)
N2R N 0.32884(18) 0.12803(17) 0.41155(18)
C1R C 0.32054(19) 0.2288(3) 0.32054(19)
C2R C 0.3524(2) 0.1638(3) 0.3524(2)
C3R C 0.2597(2) 0.2597(2) 0.3497(3)
H1R H 0.2386 0.2386 0.3908
N1LA N 0.37229(15) 0.42365(16) 0.07344(14)
N2LA N 0.32884(18) 0.41155(18) 0.12803(17)
N1Z N 0.07344(14) 0.37229(15) 0.42365(16)
N2Z N 0.12803(17) 0.32884(18) 0.41155(18)
N1KA N 0.42365(16) 0.07344(14) 0.37229(15)
N2KA N 0.41155(18) 0.12803(17) 0.32884(18)
C4T C -0.022(2) 0.5562(14) 0.1940(15)
C4SA C 0.022(2) 0.5562(14) 0.1940(15)
C4DA C -0.022(2) 0.4438(14) 0.1940(15)
Co1B_2 Co -0.0000 -0.36896(5) 0.5000
O1B_2 O 0.0000 -0.2525(4) 0.5000
C4E_2 C 0.022(2) -0.1940(15) 0.4438(14)
C4B_2 C -0.022(2) -0.1940(15) 0.5562(14)
C4FA_2 C 0.022(2) -0.1940(15) 0.5562(14)
C4X_2 C -0.022(2) -0.1940(15) 0.4438(14)
N1E N 0.07344(14) 0.62771(15) 0.42365(16)
N2E N 0.12803(17) 0.67116(18) 0.41155(18)
C1E C 0.2288(3) 0.67946(19) 0.32054(19)
C2E C 0.1638(3) 0.6476(2) 0.3524(2)
C3E C 0.2597(2) 0.7403(2) 0.3497(3)
H1E H 0.2386 0.7614 0.3908
N1O N 0.42365(16) 0.92656(14) 0.37229(15)
N2O N 0.41155(18) 0.87197(17) 0.32884(18)
C1O C 0.32054(19) 0.7712(3) 0.32054(19)
C2O C 0.3524(2) 0.8362(3) 0.3524(2)
C3O C 0.3497(3) 0.7403(2) 0.2597(2)
H1O H 0.3908 0.7614 0.2386
N1K N 0.37229(15) 0.57635(16) 0.07344(14)
N2K N 0.32884(18) 0.58845(18) 0.12803(17)
C1K C 0.32054(19) 0.67946(19) 0.2288(3)
C2K C 0.3524(2) 0.6476(2) 0.1638(3)
C3K C 0.2597(2) 0.6503(3) 0.2597(2)
H1K H 0.2386 0.6092 0.2386
N1Y N 0.37229(15) 0.92656(14) 0.42365(16)
N2Y N 0.32884(18) 0.87197(17) 0.41155(18)
N1SA N 0.07344(14) 0.57635(16) 0.37229(15)
N2SA N 0.12803(17) 0.58845(18) 0.32884(18)
N1EA N 0.42365(16) 0.62771(15) 0.07344(14)
N2EA N 0.41155(18) 0.67116(18) 0.12803(17)
Co1F Co 0.0000 -0.5000 0.63104(5)
O1F O 0.0000 -0.5000 0.7475(4)
C4F C 0.022(2) -0.4438(14) 0.8060(15)
C4U C -0.022(2) -0.5562(14) 0.8060(15)
C4RA C 0.022(2) -0.5562(14) 0.8060(15)
C4BA C -0.022(2) -0.4438(14) 0.8060(15)
Co1F_2 Co 0.0000 0.5000 0.63104(5)
O1F_2 O 0.0000 0.5000 0.7475(4)
C4F_2 C 0.022(2) 0.5562(14) 0.8060(15)
C4U_2 C -0.022(2) 0.4438(14) 0.8060(15)
C4RA_2 C 0.022(2) 0.4438(14) 0.8060(15)
C4BA_2 C -0.022(2) 0.5562(14) 0.8060(15)
Co1G Co -0.5000 0.36896(5) 1.0000
O1G O -0.5000 0.2525(4) 1.0000
C4G C -0.4438(14) 0.1940(15) 0.978(2)
C4I C -0.5562(14) 0.1940(15) 1.022(2)
C4TA C -0.5562(14) 0.1940(15) 0.978(2)
C4UA C -0.4438(14) 0.1940(15) 1.022(2)
Co1G_2 Co 0.5000 0.36896(5) 1.0000
N1G_2 N 0.57635(16) 0.37229(15) 0.92656(14)
N2G_2 N 0.58845(18) 0.32884(18) 0.87197(17)
C1G_2 C 0.67946(19) 0.32054(19) 0.7712(3)
C2G_2 C 0.6476(2) 0.3524(2) 0.8362(3)
O1G_2 O 0.5000 0.2525(4) 1.0000
C3G_2 C 0.6503(3) 0.2597(2) 0.7403(2)
H1G_2 H 0.6092 0.2386 0.7614
C4G_2 C 0.5562(14) 0.1940(15) 0.978(2)
N1A_2 N 0.62771(15) 0.07344(14) 0.57635(16)
N2A_2 N 0.67116(18) 0.12803(17) 0.58845(18)
C1A_2 C 0.67946(19) 0.2288(3) 0.67946(19)
C2A_2 C 0.6476(2) 0.1638(3) 0.6476(2)
C3A_2 C 0.7403(2) 0.2597(2) 0.6503(3)
H1A_2 H 0.7614 0.2386 0.6092
N1U_2 N 0.92656(14) 0.42365(16) 0.62771(15)
N2U_2 N 0.87197(17) 0.41155(18) 0.67116(18)
C1U_2 C 0.7712(3) 0.32054(19) 0.67946(19)
C2U_2 C 0.8362(3) 0.3524(2) 0.6476(2)
C3U_2 C 0.7403(2) 0.3497(3) 0.7403(2)
H1U_2 H 0.7614 0.3908 0.7614
N1MA_2 N 0.57635(16) 0.07344(14) 0.62771(15)
N2MA_2 N 0.58845(18) 0.12803(17) 0.67116(18)
N1IA_2 N 0.62771(15) 0.42365(16) 0.92656(14)
N2IA_2 N 0.67116(18) 0.41155(18) 0.87197(17)
N1CA_2 N 0.92656(14) 0.37229(15) 0.57635(16)
N2CA_2 N 0.87197(17) 0.32884(18) 0.58845(18)
C4I_2 C 0.4438(14) 0.1940(15) 1.022(2)
C4TA_2 C 0.4438(14) 0.1940(15) 0.978(2)
C4UA_2 C 0.5562(14) 0.1940(15) 1.022(2)
Co1_2 Co 1.0000 0.36896(5) 0.5000
N1H N 0.92656(14) 0.37229(15) 0.42365(16)
N2H N 0.87197(17) 0.32884(18) 0.41155(18)
C1H C 0.7712(3) 0.32054(19) 0.32054(19)
C2H C 0.8362(3) 0.3524(2) 0.3524(2)
O1_2 O 1.0000 0.2525(4) 0.5000
C3H C 0.7403(2) 0.2597(2) 0.3497(3)
H1H H 0.7614 0.2386 0.3908
C4H_2 C 0.978(2) 0.1940(15) 0.4438(14)
N1J N 0.57635(16) 0.07344(14) 0.37229(15)
N2J N 0.58845(18) 0.12803(17) 0.32884(18)
C1J C 0.67946(19) 0.2288(3) 0.32054(19)
C2J C 0.6476(2) 0.1638(3) 0.3524(2)
C3J C 0.6503(3) 0.2597(2) 0.2597(2)
H1J H 0.6092 0.2386 0.2386
N1L N 0.62771(15) 0.42365(16) 0.07344(14)
N2L N 0.67116(18) 0.41155(18) 0.12803(17)
C1L C 0.67946(19) 0.32054(19) 0.2288(3)
C2L C 0.6476(2) 0.3524(2) 0.1638(3)
C3L C 0.7403(2) 0.3497(3) 0.2597(2)
H1L H 0.7614 0.3908 0.2386
N1AA N 0.62771(15) 0.07344(14) 0.42365(16)
N2AA N 0.67116(18) 0.12803(17) 0.41155(18)
N1DA N 0.92656(14) 0.42365(16) 0.37229(15)
N2DA N 0.87197(17) 0.41155(18) 0.32884(18)
N1UA N 0.57635(16) 0.37229(15) 0.07344(14)
N2UA N 0.58845(18) 0.32884(18) 0.12803(17)
C4_2 C 1.022(2) 0.1940(15) 0.5562(14)
C4CA_2 C 0.978(2) 0.1940(15) 0.5562(14)
C4Z_2 C 1.022(2) 0.1940(15) 0.4438(14)
Co1A_2 Co 0.63104(5) 0.0000 0.5000
Co1C_3 Co -0.63104(5) 0.0000 0.5000
Co1D_2 Co 1.0000 0.5000 0.36896(5)
Co1F_3 Co 1.0000 0.5000 0.63104(5)
Co1G_3 Co 0.5000 0.36896(5) 0.0000
Co1J Co -0.5000 0.0000 0.36896(5)
Co1J_2 Co 0.5000 0.0000 0.36896(5)
Co1J_3 Co 0.5000 1.0000 0.36896(5)
Co1K Co 0.36896(5) -0.5000 1.0000
Co1K_2 Co 0.36896(5) 0.5000 0.0000
Co1K_3 Co 0.36896(5) 0.5000 1.0000
Co1L Co -0.36896(5) 0.5000 1.0000
Co1L_2 Co 0.63104(5) 0.5000 0.0000
Co1L_3 Co 0.63104(5) 0.5000 1.0000
Co1M Co -0.5000 0.0000 0.63104(5)
Co1M_2 Co 0.5000 0.0000 0.63104(5)
Co1M_3 Co 0.5000 1.0000 0.63104(5)
Co1V Co 0.5000 -0.36896(5) 1.0000
Co1V_2 Co 0.5000 0.63104(5) 0.0000
Co1V_3 Co 0.5000 0.63104(5) 1.0000
Cl1_2 Cl 0.0000 -0.5000 0.5000
Cl1_3 Cl 1.0000 0.5000 0.5000
Cl1A_3 Cl 0.5000 1.0000 0.5000
Cl1G Cl -0.5000 0.5000 1.0000
Cl1G_2 Cl 0.5000 0.5000 1.0000
N1_2 N 1.07344(14) 0.37229(15) 0.57635(16)
N1B N -0.07344(14) -0.37229(15) 0.57635(16)
N1B_2 N -0.07344(14) 0.62771(15) 0.57635(16)
N1E_2 N 0.07344(14) -0.37229(15) 0.42365(16)
N1H_2 N -0.07344(14) 0.37229(15) 0.42365(16)
N1I_2 N -0.57635(16) 0.37229(15) 1.07344(14)
N1I_3 N 0.42365(16) 0.37229(15) 1.07344(14)
N1R_2 N 0.37229(15) 1.07344(14) 0.42365(16)
N1S N -0.37229(15) -0.07344(14) 0.42365(16)
N1T N -0.07344(14) 0.57635(16) 0.37229(15)
N1U_3 N -0.07344(14) -0.57635(16) 0.62771(15)
N1X N -0.07344(14) -0.37229(15) 0.42365(16)
N1X_2 N -0.07344(14) 0.62771(15) 0.42365(16)
N1Y_2 N 0.37229(15) -0.07344(14) 0.42365(16)
N1Z_2 N 1.07344(14) 0.37229(15) 0.42365(16)
N1AA_2 N -0.37229(15) 0.07344(14) 0.42365(16)
N1BA N -0.07344(14) -0.42365(16) 0.62771(15)
N1BA_2 N -0.07344(14) 0.57635(16) 0.62771(15)
N1DA_2 N -0.07344(14) 0.42365(16) 0.37229(15)
N1PA N -0.37229(15) -0.07344(14) 0.57635(16)
N1QA_2 N 0.37229(15) 1.07344(14) 0.57635(16)
N1RA_2 N 0.07344(14) -0.57635(16) 0.62771(15)
N1TA_2 N -0.57635(16) 0.37229(15) 0.92656(14)
N1UA_2 N -0.42365(16) 0.37229(15) 1.07344(14)
N1UA_3 N 0.57635(16) 0.37229(15) 1.07344(14)
loop_
_geom_bond_atom_site_label_1
_geom_bond_atom_site_label_2
_geom_bond_site_symmetry_1
_geom_bond_site_symmetry_2
Co1 Cl1 1_555 1_555
Cl1 Co1B 1_555 1_555
N1 Co1 1_555 1_555
N2 N1 1_555 1_555
C1 C2 1_555 1_555
C2 N2 1_555 1_555
O1 Co1 1_555 1_555
C3 C1 1_555 1_555
H1 C3 1_555 1_555
C4 O1 1_555 1_555
N1P N2P 1_555 1_555
N2P C2P 1_555 1_555
C1P C3 1_555 1_555
C2P C1P 1_555 1_555
C3P C1P 1_555 1_555
H1P C3P 1_555 1_555
N1Q N2Q 1_555 1_555
N2Q C2Q 1_555 1_555
C1Q C3P 1_555 1_555
C2Q C1Q 1_555 1_555
C3Q C1 1_555 1_555
H1Q C3Q 1_555 1_555
N1QA N1P 1_555 1_555
N2QA C2P 1_555 1_555
N1RA N1 1_555 1_555
N2RA C2 1_555 1_555
N1TA N1Q 1_555 1_555
N2TA C2Q 1_555 1_555
C4H O1 1_555 1_555
C4Z O1 1_555 1_555
C4CA O1 1_555 1_555
Co1A Cl1A 1_555 1_555
Cl1A Co1C_3 1_555 1_555
N1A Co1A 1_555 1_555
N2A N1A 1_555 1_555
C1A C2A 1_555 1_555
C2A N2A 1_555 1_555
O1A Co1A 1_555 1_555
C3A C1A 1_555 1_555
H1A C3A 1_555 1_555
C4A O1A 1_555 1_555
N1U N2U 1_555 1_555
N2U C2U 1_555 1_555
C1U C3A 1_555 1_555
C2U C1U 1_555 1_555
C3U C1U 1_555 1_555
H1U C3U 1_555 1_555
N1G N2G 1_555 1_555
N2G C2G 1_555 1_555
C1G C3U 1_555 1_555
C2G C1G 1_555 1_555
C3G C1A 1_555 1_555
H1G C3G 1_555 1_555
N1CA Co1 1_555 1_555
N2CA C2U 1_555 1_555
N1MA N1A 1_555 1_555
N2MA C2A 1_555 1_555
N1IA N1G 1_555 1_555
N2IA C2G 1_555 1_555
C4S O1A 1_555 1_555
C4AA O1A 1_555 1_555
C4PA O1A 1_555 1_555
Co1B O1B 1_555 1_555
O1B C4B 1_555 1_555
C4B C4FA 1_555 1_555
C4E O1B 1_555 1_555
C4X O1B 1_555 1_555
C4FA O1B 1_555 1_555
Co1C N1QA 1_555 1_555
Cl1A_2 Co1C 1_555 1_555
N1C Co1C 1_555 1_555
N2C N1C 1_555 1_555
C1C C2C 1_555 1_555
C2C N2C 1_555 1_555
O1C Co1C 1_555 1_555
C3C C1C 1_555 1_555
H1C C3C 1_555 1_555
C4C O1C 1_555 1_555
N1F N2F 1_555 1_555
N2F C2F 1_555 1_555
C1F C3C 1_555 1_555
C2F C1F 1_555 1_555
C3F C1F 1_555 1_555
H1F C3F 1_555 1_555
N1W N2W 1_555 1_555
N2W C2W 1_555 1_555
C1W C3F 1_555 1_555
C2W C1W 1_555 1_555
C3W C1C 1_555 1_555
H1W C3W 1_555 1_555
N1FA N1F 1_555 1_555
N2FA C2F 1_555 1_555
N1HA N1C 1_555 1_555
N2HA C2C 1_555 1_555
N1JA N1W 1_555 1_555
N2JA C2W 1_555 1_555
C4R O1C 1_555 1_555
C4Y O1C 1_555 1_555
C4QA O1C 1_555 1_555
Co1C_2 N1C_2 1_555 1_555
N1C_2 N2C_2 1_555 1_555
N2C_2 C2C_2 1_555 1_555
C1C_2 C2C_2 1_555 1_555
C2C_2 N2HA_2 1_555 1_555
O1C_2 Co1C_2 1_555 1_555
C3C_2 C1C_2 1_555 1_555
H1C_2 C3C_2 1_555 1_555
C4C_2 O1C_2 1_555 1_555
N1F_2 N2F_2 1_555 1_555
N2F_2 C2F_2 1_555 1_555
C1F_2 C3C_2 1_555 1_555
C2F_2 C1F_2 1_555 1_555
C3F_2 C1F_2 1_555 1_555
H1F_2 C3F_2 1_555 1_555
N1W_2 N2W_2 1_555 1_555
N2W_2 C2W_2 1_555 1_555
C1W_2 C3F_2 1_555 1_555
C2W_2 C1W_2 1_555 1_555
C3W_2 C1C_2 1_555 1_555
H1W_2 C3W_2 1_555 1_555
N1FA_2 Co1B 1_555 1_555
N2FA_2 C2F_2 1_555 1_555
N1HA_2 N1C_2 1_555 1_555
N2HA_2 N1HA_2 1_555 1_555
N1JA_2 N1W_2 1_555 1_555
N2JA_2 C2W_2 1_555 1_555
C4R_2 O1C_2 1_555 1_555
C4Y_2 O1C_2 1_555 1_555
C4QA_2 O1C_2 1_555 1_555
Co1D Cl1 1_555 1_555
N1D Co1D 1_555 1_555
N2D N1D 1_555 1_555
C1D C2D 1_555 1_555
C2D N2D 1_555 1_555
O1D Co1D 1_555 1_555
C3D C1D 1_555 1_555
H1D C3D 1_555 1_555
C4D O1D 1_555 1_555
N1I N2I 1_555 1_555
N2I C2I 1_555 1_555
C1I C3D 1_555 1_555
C2I C1I 1_555 1_555
C3I C1I 1_555 1_555
H1I C3I 1_555 1_555
N1R Co1C 1_555 1_555
N2R N1R 1_555 1_555
C1R C3I 1_555 1_555
C2R N2R 1_555 1_555
C3R C1D 1_555 1_555
H1R C3R 1_555 1_555
N1LA N1I 1_555 1_555
N2LA C2I 1_555 1_555
N1Z Co1 1_555 1_555
N2Z C2D 1_555 1_555
N1KA N1R 1_555 1_555
N2KA C2R 1_555 1_555
C4T O1D 1_555 1_555
C4SA O1D 1_555 1_555
C4DA O1D 1_555 1_555
Co1B_2 N1FA 1_555 1_555
O1B_2 Co1B_2 1_555 1_555
C4E_2 O1B_2 1_555 1_555
C4B_2 O1B_2 1_555 1_555
C4FA_2 O1B_2 1_555 1_555
C4X_2 O1B_2 1_555 1_555
N1E Co1B 1_555 1_555
N2E N1E 1_555 1_555
C1E C2E 1_555 1_555
C2E N2E 1_555 1_555
C3E C1E 1_555 1_555
H1E C3E 1_555 1_555
N1O N2O 1_555 1_555
N2O C2O 1_555 1_555
C1O C3E 1_555 1_555
C2O C1O 1_555 1_555
C3O C1O 1_555 1_555
H1O C3O 1_555 1_555
N1K N2K 1_555 1_555
N2K C2K 1_555 1_555
C1K C3O 1_555 1_555
C2K C1K 1_555 1_555
C3K C1E 1_555 1_555
H1K C3K 1_555 1_555
N1Y Co1C_2 1_555 1_555
N2Y C2O 1_555 1_555
N1SA Co1D 1_555 1_555
N2SA C2E 1_555 1_555
N1EA N1K 1_555 1_555
N2EA C2K 1_555 1_555
Co1F N1F 1_555 1_555
O1F Co1F 1_555 1_555
C4F O1F 1_555 1_555
C4U O1F 1_555 1_555
C4RA O1F 1_555 1_555
C4BA O1F 1_555 1_555
Co1F_2 Cl1 1_555 1_555
O1F_2 Co1F_2 1_555 1_555
C4F_2 O1F_2 1_555 1_555
C4U_2 O1F_2 1_555 1_555
C4RA_2 O1F_2 1_555 1_555
C4BA_2 O1F_2 1_555 1_555
Co1G N1G 1_555 1_555
O1G Co1G 1_555 1_555
C4G O1G 1_555 1_555
C4I O1G 1_555 1_555
C4TA O1G 1_555 1_555
C4UA O1G 1_555 1_555
Co1G_2 N1TA 1_555 1_555
N1G_2 Co1G_2 1_555 1_555
N2G_2 N1G_2 1_555 1_555
C1G_2 C2G_2 1_555 1_555
C2G_2 N2G_2 1_555 1_555
O1G_2 Co1G_2 1_555 1_555
C3G_2 C1G_2 1_555 1_555
H1G_2 C3G_2 1_555 1_555
C4G_2 O1G_2 1_555 1_555
N1A_2 N2A_2 1_555 1_555
N2A_2 C2A_2 1_555 1_555
C1A_2 C3G_2 1_555 1_555
C2A_2 C1A_2 1_555 1_555
C3A_2 C1A_2 1_555 1_555
H1A_2 C3A_2 1_555 1_555
N1U_2 N2U_2 1_555 1_555
N2U_2 C2U_2 1_555 1_555
C1U_2 C3A_2 1_555 1_555
C2U_2 C1U_2 1_555 1_555
C3U_2 C1G_2 1_555 1_555
H1U_2 C3U_2 1_555 1_555
N1MA_2 N1A_2 1_555 1_555
N2MA_2 C2A_2 1_555 1_555
N1IA_2 N1G_2 1_555 1_555
N2IA_2 C2G_2 1_555 1_555
N1CA_2 N1U_2 1_555 1_555
N2CA_2 C2U_2 1_555 1_555
C4I_2 O1G_2 1_555 1_555
C4TA_2 O1G_2 1_555 1_555
C4UA_2 O1G_2 1_555 1_555
Co1_2 N1CA_2 1_555 1_555
N1H Co1_2 1_555 1_555
N2H N1H 1_555 1_555
C1H C2H 1_555 1_555
C2H N2H 1_555 1_555
O1_2 Co1_2 1_555 1_555
C3H C1H 1_555 1_555
H1H C3H 1_555 1_555
C4H_2 O1_2 1_555 1_555
N1J N2J 1_555 1_555
N2J C2J 1_555 1_555
C1J C3H 1_555 1_555
C2J C1J 1_555 1_555
C3J C1J 1_555 1_555
H1J C3J 1_555 1_555
N1L N2L 1_555 1_555
N2L C2L 1_555 1_555
C1L C3J 1_555 1_555
C2L C1L 1_555 1_555
C3L C1H 1_555 1_555
H1L C3L 1_555 1_555
N1AA N1J 1_555 1_555
N2AA C2J 1_555 1_555
N1DA N1H 1_555 1_555
N2DA C2H 1_555 1_555
N1UA N1L 1_555 1_555
N2UA C2L 1_555 1_555
C4_2 O1_2 1_555 1_555
C4CA_2 O1_2 1_555 1_555
C4Z_2 O1_2 1_555 1_555
Co1A_2 Cl1A_2 1_555 1_555
Co1D_2 N1DA 1_555 1_555
Co1F_3 N1U_2 1_555 1_555
Co1G_3 N1I 1_555 1_555
Co1J Cl1A 1_555 1_555
Co1J_2 Cl1A_2 1_555 1_555
Co1J_3 N1O 1_555 1_555
Co1K N1JA 1_555 1_555
Co1K_2 N1LA 1_555 1_555
Co1K_3 N1Q 1_555 1_555
Co1L N1IA 1_555 1_555
Co1L_2 N1L 1_555 1_555
Co1L_3 N1IA_2 1_555 1_555
Co1M Cl1A 1_555 1_555
Co1M_2 N1P 1_555 1_555
Co1M_3 N1HA_2 1_555 1_555
Co1V N1W 1_555 1_555
Co1V_2 N1EA 1_555 1_555
Co1V_3 N1W_2 1_555 1_555
Cl1_2 Co1B_2 1_555 1_555
Cl1_3 Co1_2 1_555 1_555
Cl1A_3 Co1C_2 1_555 1_555
Cl1G Co1G 1_555 1_555
Cl1G_2 Co1G_2 1_555 1_555
N1_2 Co1_2 1_555 1_555
N1B Co1B_2 1_555 1_555
N1B_2 Co1B 1_555 1_555
N1E_2 Co1B_2 1_555 1_555
N1H_2 Co1 1_555 1_555
N1I_2 Co1G 1_555 1_555
N1I_3 Co1G_2 1_555 1_555
N1R_2 Co1C_2 1_555 1_555
N1S Co1A 1_555 1_555
N1T Co1D 1_555 1_555
N1U_3 Co1F 1_555 1_555
N1X Co1B_2 1_555 1_555
N1X_2 Co1B 1_555 1_555
N1Y_2 Co1C 1_555 1_555
N1Z_2 Co1_2 1_555 1_555
N1AA_2 Co1A 1_555 1_555
N1BA Co1F 1_555 1_555
N1BA_2 Co1F_2 1_555 1_555
N1DA_2 Co1D 1_555 1_555
N1PA Co1A 1_555 1_555
N1QA_2 Co1C_2 1_555 1_555
N1RA_2 Co1F 1_555 1_555
N1TA_2 Co1G 1_555 1_555
N1UA_2 Co1G 1_555 1_555
N1UA_3 Co1G_2 1_555 1_555
C4 C4CA 1_555 1_555
C1Q C3Q 1_555 1_555
N1QA N2QA 1_555 1_555
N1RA N2RA 1_555 1_555
N1RA Co1F_2 1_555 1_555
N1TA N2TA 1_555 1_555
C4H C4Z 1_555 1_555
C4A C4PA 1_555 1_555
N1U N1CA 1_555 1_555
N1U Co1F_2 1_555 1_555
C1G C3G 1_555 1_555
N1CA N2CA 1_555 1_555
N1MA N2MA 1_555 1_555
N1MA Co1M 1_555 1_555
N1IA N2IA 1_555 1_555
C4S C4AA 1_555 1_555
C4E C4X 1_555 1_555
Cl1A_2 Co1M_2 1_555 1_555
C4C C4QA 1_555 1_555
C1W C3W 1_555 1_555
N1FA N2FA 1_555 1_555
N1HA N2HA 1_555 1_555
N1HA Co1M_2 1_555 1_555
N1JA N2JA 1_555 1_555
C4R C4Y 1_555 1_555
C4C_2 C4QA_2 1_555 1_555
N1F_2 N1FA_2 1_555 1_555
N1F_2 Co1F_2 1_555 1_555
C1W_2 C3W_2 1_555 1_555
N1FA_2 N2FA_2 1_555 1_555
N1JA_2 N2JA_2 1_555 1_555
N1JA_2 Co1K_3 1_555 1_555
C4R_2 C4Y_2 1_555 1_555
N1D N1Z 1_555 1_555
C4D C4DA 1_555 1_555
C1R C2R 1_555 1_555
C1R C3R 1_555 1_555
N1LA N2LA 1_555 1_555
N1Z N2Z 1_555 1_555
N1KA N2KA 1_555 1_555
N1KA Co1J_2 1_555 1_555
C4T C4SA 1_555 1_555
C4E_2 C4X_2 1_555 1_555
C4B_2 C4FA_2 1_555 1_555
N1E N1SA 1_555 1_555
N1O N1Y 1_555 1_555
N1K Co1K_2 1_555 1_555
C1K C3K 1_555 1_555
N1Y N2Y 1_555 1_555
N1SA N2SA 1_555 1_555
N1EA N2EA 1_555 1_555
Co1F Cl1_2 1_555 1_555
C4F C4BA 1_555 1_555
C4U C4RA 1_555 1_555
C4F_2 C4BA_2 1_555 1_555
C4U_2 C4RA_2 1_555 1_555
C4G C4UA 1_555 1_555
C4I C4TA 1_555 1_555
C4G_2 C4UA_2 1_555 1_555
N1A_2 Co1A_2 1_555 1_555
C1U_2 C3U_2 1_555 1_555
N1MA_2 N2MA_2 1_555 1_555
N1MA_2 Co1M_2 1_555 1_555
N1IA_2 N2IA_2 1_555 1_555
N1CA_2 N2CA_2 1_555 1_555
C4I_2 C4TA_2 1_555 1_555
C4H_2 C4Z_2 1_555 1_555
N1J Co1J_2 1_555 1_555
C1L C3L 1_555 1_555
N1AA N2AA 1_555 1_555
N1AA Co1A_2 1_555 1_555
N1DA N2DA 1_555 1_555
N1UA N2UA 1_555 1_555
N1UA Co1G_3 1_555 1_555
C4_2 C4CA_2 1_555 1_555
Co1D_2 Cl1_3 1_555 1_555
Co1F_3 Cl1_3 1_555 1_555
Co1J_3 Cl1A_3 1_555 1_555
Co1K_3 Cl1G_2 1_555 1_555
Co1L Cl1G 1_555 1_555
Co1L_3 Cl1G_2 1_555 1_555
Co1M_3 Cl1A_3 1_555 1_555
Co1V_3 Cl1G_2 1_555 1_555
N1B N1BA 1_555 1_555
N1B_2 N1BA_2 1_555 1_555
N1H_2 N1DA_2 1_555 1_555
N1T N1X_2 1_555 1_555

#END
