
#######################################################################
#
#                 Cambridge Crystallographic Data Centre
#                                CCDC 
#
#######################################################################
#
# If this CIF has been generated from an entry in the Cambridge 
# Structural Database, then it will include bibliographic, chemical, 
# crystal, experimental, refinement or atomic coordinate data resulting 
# from the CCDC's data processing and validation procedures.
#
#######################################################################

data_AQOLOJ
_chemical_formula_moiety         'C120 H168 Cl6 Co36 N125 O12'
_symmetry_cell_setting           cubic
_symmetry_space_group_name_H-M   'P m -3 m'
_symmetry_Int_Tables_number      221
_space_group_name_Hall           '-P 4 2 3'
loop_
_symmetry_equiv_pos_site_id
_symmetry_equiv_pos_as_xyz
1 x,y,z
2 -x,-y,z
3 -x,y,-z
4 x,-y,-z
5 z,x,y
6 z,-x,-y
7 -z,-x,y
8 -z,x,-y
9 y,z,x
10 -y,z,-x
11 y,-z,-x
12 -y,-z,x
13 y,x,-z
14 -y,-x,-z
15 y,-x,z
16 -y,x,z
17 x,z,-y
18 -x,z,y
19 -x,-z,-y
20 x,-z,y
21 z,y,-x
22 z,-y,x
23 -z,y,x
24 -z,-y,-x
25 -x,-y,-z
26 x,y,-z
27 x,-y,z
28 -x,y,z
29 -z,-x,-y
30 -z,x,y
31 z,x,-y
32 z,-x,y
33 -y,-z,-x
34 y,-z,x
35 -y,z,x
36 y,z,-x
37 -y,-x,z
38 y,x,z
39 -y,x,-z
40 y,-x,-z
41 -x,-z,y
42 x,-z,-y
43 x,z,y
44 -x,z,-y
45 -z,-y,x
46 -z,y,-x
47 z,-y,-x
48 z,y,x
_cell_length_a                   18.7940(7)
_cell_length_b                   18.7940(7)
_cell_length_c                   18.7940(7)
_cell_angle_alpha                90
_cell_angle_beta                 90
_cell_angle_gamma                90
_cell_volume                     6638.31
loop_
_atom_site_label
_atom_site_type_symbol
_atom_site_fract_x
_atom_site_fract_y
_atom_site_fract_z
Co1 Co 0.0000 0.5000 0.36725(4)
Cl1 Cl 0.0000 0.5000 0.5000
N1 N 0.07569(10) 0.42227(11) 0.37154(11)
N2 N 0.1267(9) 0.4057(8) 0.3301(10)
O1 O 0.0000 0.5000 0.2517(2)
C1 C 0.26235(14) 0.35264(19) 0.26235(14)
H1 H 0.2413 0.3935 0.2413
C2 C 0.23188(19) 0.32315(14) 0.32315(14)
C3 C 0.16761(19) 0.35387(14) 0.35387(14)
C4 C 0.0346(10) 0.5388(8) 0.2048(6)
H2 H 0.0163 0.5876 0.2057
H3 H 0.0280 0.5186 0.1572
H4 H 0.0854 0.5391 0.2167
N1D N 0.37154(11) 0.07569(10) 0.42227(11)
N2D N 0.3301(10) 0.1267(9) 0.4057(8)
C1D C 0.26235(14) 0.26235(14) 0.35264(19)
H1D H 0.2413 0.2413 0.3935
C2D C 0.32315(14) 0.23188(19) 0.32315(14)
C3D C 0.35387(14) 0.16761(19) 0.35387(14)
N1H N 0.42227(11) 0.37154(11) 0.07569(10)
N2H N 0.4057(8) 0.3301(10) 0.1267(9)
C1H C 0.35264(19) 0.26235(14) 0.26235(14)
H1H H 0.3935 0.2413 0.2413
C2H C 0.32315(14) 0.32315(14) 0.23188(19)
C3H C 0.35387(14) 0.35387(14) 0.16761(19)
N1KA N 0.42227(11) 0.07569(10) 0.37154(11)
N2KA N 0.4057(8) 0.1267(9) 0.3301(10)
N1PA N 0.07569(10) 0.37154(11) 0.42227(11)
N2PA N 0.1267(9) 0.3301(10) 0.4057(8)
N1UA N 0.37154(11) 0.42227(11) 0.07569(10)
N2UA N 0.3301(10) 0.4057(8) 0.1267(9)
C4A C -0.0346(10) 0.4612(8) 0.2048(6)
H2A H -0.0163 0.4124 0.2057
H3A H -0.0280 0.4814 0.1572
H4A H -0.0854 0.4609 0.2167
C4Z C 0.0346(10) 0.4612(8) 0.2048(6)
H2Z H 0.0163 0.4124 0.2057
H3Z H 0.0280 0.4814 0.1572
H4Z H 0.0854 0.4609 0.2167
C4AA C -0.0346(10) 0.5388(8) 0.2048(6)
H2AA H -0.0163 0.5876 0.2057
H3AA H -0.0280 0.5186 0.1572
H4AA H -0.0854 0.5391 0.2167
Co1B Co 0.0000 0.5000 0.63275(4)
O1B O 0.0000 0.5000 0.7483(2)
C4B C -0.0346(10) 0.5388(8) 0.7952(6)
H2B H -0.0163 0.5876 0.7943
H3B H -0.0280 0.5186 0.8428
H4B H -0.0854 0.5391 0.7833
C4C C 0.0346(10) 0.4612(8) 0.7952(6)
H2C H 0.0163 0.4124 0.7943
H3C H 0.0280 0.4814 0.8428
H4C H 0.0854 0.4609 0.7833
C4X C -0.0346(10) 0.4612(8) 0.7952(6)
H2X H -0.0163 0.4124 0.7943
H3X H -0.0280 0.4814 0.8428
H4X H -0.0854 0.4609 0.7833
C4Y C 0.0346(10) 0.5388(8) 0.7952(6)
H2Y H 0.0163 0.5876 0.7943
H3Y H 0.0280 0.5186 0.8428
H4Y H 0.0854 0.5391 0.7833
N1C N 0.07569(10) 0.57773(11) 0.62846(11)
N2C N 0.1267(9) 0.5943(8) 0.6699(10)
C1C C 0.26235(14) 0.64736(19) 0.73765(14)
H1C H 0.2413 0.6065 0.7587
C2C C 0.23188(19) 0.67685(14) 0.67685(14)
C3C C 0.16761(19) 0.64613(14) 0.64613(14)
N1E N 0.37154(11) 0.92431(10) 0.57773(11)
N2E N 0.3301(10) 0.8733(9) 0.5943(8)
C1E C 0.26235(14) 0.73765(14) 0.64736(19)
H1E H 0.2413 0.7587 0.6065
C2E C 0.32315(14) 0.76812(19) 0.67685(14)
C3E C 0.35387(14) 0.83239(19) 0.64613(14)
N1J N 0.42227(11) 0.62846(11) 0.92431(10)
N2J N 0.4057(8) 0.6699(10) 0.8733(9)
C1J C 0.35264(19) 0.73765(14) 0.73765(14)
H1J H 0.3935 0.7587 0.7587
C2J C 0.32315(14) 0.67685(14) 0.76812(19)
C3J C 0.35387(14) 0.64613(14) 0.83239(19)
N1MA N 0.42227(11) 0.92431(10) 0.62846(11)
N2MA N 0.4057(8) 0.8733(9) 0.6699(10)
N1OA N 0.07569(10) 0.62846(11) 0.57773(11)
N2OA N 0.1267(9) 0.6699(10) 0.5943(8)
N1TA N 0.37154(11) 0.57773(11) 0.92431(10)
N2TA N 0.3301(10) 0.5943(8) 0.8733(9)
Co1D Co 0.36725(4) 0.0000 0.5000
Cl1D Cl 0.5000 0.0000 0.5000
O1D O 0.2517(2) 0.0000 0.5000
C4D C 0.2048(6) 0.0346(10) 0.5388(8)
H2D H 0.2057 0.0163 0.5876
H3D H 0.1572 0.0280 0.5186
H4D H 0.2167 0.0854 0.5391
C4E C 0.2048(6) -0.0346(10) 0.4612(8)
H2E H 0.2057 -0.0163 0.4124
H3E H 0.1572 -0.0280 0.4814
H4E H 0.2167 -0.0854 0.4609
C4DA C 0.2048(6) 0.0346(10) 0.4612(8)
H2DA H 0.2057 0.0163 0.4124
H3DA H 0.1572 0.0280 0.4814
H4DA H 0.2167 0.0854 0.4609
C4EA C 0.2048(6) -0.0346(10) 0.5388(8)
H2EA H 0.2057 -0.0163 0.5876
H3EA H 0.1572 -0.0280 0.5186
H4EA H 0.2167 -0.0854 0.5391
Co1D_2 Co 0.36725(4) 1.0000 0.5000
Cl1D_2 Cl 0.5000 1.0000 0.5000
O1D_2 O 0.2517(2) 1.0000 0.5000
C4E_2 C 0.2048(6) 0.9654(10) 0.4612(8)
H2E_2 H 0.2057 0.9837 0.4124
H3E_2 H 0.1572 0.9720 0.4814
H4E_2 H 0.2167 0.9146 0.4609
C4D_2 C 0.2048(6) 1.0346(10) 0.5388(8)
H2D_2 H 0.2057 1.0163 0.5876
H3D_2 H 0.1572 1.0280 0.5186
H4D_2 H 0.2167 1.0854 0.5391
C4EA_2 C 0.2048(6) 0.9654(10) 0.5388(8)
H2EA_2 H 0.2057 0.9837 0.5876
H3EA_2 H 0.1572 0.9720 0.5186
H4EA_2 H 0.2167 0.9146 0.5391
C4DA_2 C 0.2048(6) 1.0346(10) 0.4612(8)
H2DA_2 H 0.2057 1.0163 0.4124
H3DA_2 H 0.1572 1.0280 0.4814
H4DA_2 H 0.2167 1.0854 0.4609
Co1F Co 0.63275(4) 1.0000 0.5000
N1F N 0.62846(11) 0.92431(10) 0.42227(11)
N2F N 0.6699(10) 0.8733(9) 0.4057(8)
O1F O 0.7483(2) 1.0000 0.5000
C1F C 0.73765(14) 0.73765(14) 0.35264(19)
H1F H 0.7587 0.7587 0.3935
C2F C 0.67685(14) 0.76812(19) 0.32315(14)
C3F C 0.64613(14) 0.83239(19) 0.35387(14)
C4F C 0.7952(6) 0.9654(10) 0.5388(8)
H2F H 0.7943 0.9837 0.5876
H3F H 0.8428 0.9720 0.5186
H4F H 0.7833 0.9146 0.5391
N1K N 0.57773(11) 0.62846(11) 0.07569(10)
N2K N 0.5943(8) 0.6699(10) 0.1267(9)
C1K C 0.64736(19) 0.73765(14) 0.26235(14)
H1K H 0.6065 0.7587 0.2413
C2K C 0.67685(14) 0.67685(14) 0.23188(19)
C3K C 0.64613(14) 0.64613(14) 0.16761(19)
N1A N 0.92431(10) 0.57773(11) 0.37154(11)
N2A N 0.8733(9) 0.5943(8) 0.3301(10)
C1A C 0.73765(14) 0.64736(19) 0.26235(14)
H1A H 0.7587 0.6065 0.2413
C2A C 0.76812(19) 0.67685(14) 0.32315(14)
C3A C 0.83239(19) 0.64613(14) 0.35387(14)
N1RA N 0.62846(11) 0.57773(11) 0.07569(10)
N2RA N 0.6699(10) 0.5943(8) 0.1267(9)
N1JA N 0.57773(11) 0.92431(10) 0.37154(11)
N2JA N 0.5943(8) 0.8733(9) 0.3301(10)
N1NA N 0.92431(10) 0.62846(11) 0.42227(11)
N2NA N 0.8733(9) 0.6699(10) 0.4057(8)
C4G C 0.7952(6) 1.0346(10) 0.4612(8)
H2G H 0.7943 1.0163 0.4124
H3G H 0.8428 1.0280 0.4814
H4G H 0.7833 1.0854 0.4609
C4BA C 0.7952(6) 0.9654(10) 0.4612(8)
H2BA H 0.7943 0.9837 0.4124
H3BA H 0.8428 0.9720 0.4814
H4BA H 0.7833 0.9146 0.4609
C4CA C 0.7952(6) 1.0346(10) 0.5388(8)
H2CA H 0.7943 1.0163 0.5876
H3CA H 0.8428 1.0280 0.5186
H4CA H 0.7833 1.0854 0.5391
Co1F_2 Co 0.63275(4) 0.0000 0.5000
N1G N 0.62846(11) 0.07569(10) 0.57773(11)
N2G N 0.6699(10) 0.1267(9) 0.5943(8)
O1F_2 O 0.7483(2) 0.0000 0.5000
C1G C 0.73765(14) 0.26235(14) 0.64736(19)
H1G H 0.7587 0.2413 0.6065
C2G C 0.67685(14) 0.23188(19) 0.67685(14)
C3G C 0.64613(14) 0.16761(19) 0.64613(14)
C4G_2 C 0.7952(6) 0.0346(10) 0.4612(8)
H2G_2 H 0.7943 0.0163 0.4124
H3G_2 H 0.8428 0.0280 0.4814
H4G_2 H 0.7833 0.0854 0.4609
N1I N 0.57773(11) 0.37154(11) 0.92431(10)
N2I N 0.5943(8) 0.3301(10) 0.8733(9)
C1I C 0.64736(19) 0.26235(14) 0.73765(14)
H1I H 0.6065 0.2413 0.7587
C2I C 0.67685(14) 0.32315(14) 0.76812(19)
C3I C 0.64613(14) 0.35387(14) 0.83239(19)
N1B N 0.92431(10) 0.42227(11) 0.62846(11)
N2B N 0.8733(9) 0.4057(8) 0.6699(10)
C1B C 0.73765(14) 0.35264(19) 0.73765(14)
H1B H 0.7587 0.3935 0.7587
C2B C 0.76812(19) 0.32315(14) 0.67685(14)
C3B C 0.83239(19) 0.35387(14) 0.64613(14)
N1SA N 0.62846(11) 0.42227(11) 0.92431(10)
N2SA N 0.6699(10) 0.4057(8) 0.8733(9)
N1LA N 0.57773(11) 0.07569(10) 0.62846(11)
N2LA N 0.5943(8) 0.1267(9) 0.6699(10)
N1QA N 0.92431(10) 0.37154(11) 0.57773(11)
N2QA N 0.8733(9) 0.3301(10) 0.5943(8)
C4F_2 C 0.7952(6) -0.0346(10) 0.5388(8)
H2F_2 H 0.7943 -0.0163 0.5876
H3F_2 H 0.8428 -0.0280 0.5186
H4F_2 H 0.7833 -0.0854 0.5391
C4CA_2 C 0.7952(6) 0.0346(10) 0.5388(8)
H2CA_2 H 0.7943 0.0163 0.5876
H3CA_2 H 0.8428 0.0280 0.5186
H4CA_2 H 0.7833 0.0854 0.5391
C4BA_2 C 0.7952(6) -0.0346(10) 0.4612(8)
H2BA_2 H 0.7943 -0.0163 0.4124
H3BA_2 H 0.8428 -0.0280 0.4814
H4BA_2 H 0.7833 -0.0854 0.4609
Co1H Co 0.5000 0.36725(4) 0.0000
O1H O 0.5000 0.2517(2) 0.0000
C4H C 0.5388(8) 0.2048(6) 0.0346(10)
H2H H 0.5876 0.2057 0.0163
H3H H 0.5186 0.1572 0.0280
H4H H 0.5391 0.2167 0.0854
C4I C 0.4612(8) 0.2048(6) -0.0346(10)
H2I H 0.4124 0.2057 -0.0163
H3I H 0.4814 0.1572 -0.0280
H4I H 0.4609 0.2167 -0.0854
C4HA C 0.4612(8) 0.2048(6) 0.0346(10)
H2HA H 0.4124 0.2057 0.0163
H3HA H 0.4814 0.1572 0.0280
H4HA H 0.4609 0.2167 0.0854
C4IA C 0.5388(8) 0.2048(6) -0.0346(10)
H2IA H 0.5876 0.2057 -0.0163
H3IA H 0.5186 0.1572 -0.0280
H4IA H 0.5391 0.2167 -0.0854
Co1H_2 Co 0.5000 0.36725(4) 1.0000
O1H_2 O 0.5000 0.2517(2) 1.0000
C4I_2 C 0.4612(8) 0.2048(6) 0.9654(10)
H2I_2 H 0.4124 0.2057 0.9837
H3I_2 H 0.4814 0.1572 0.9720
H4I_2 H 0.4609 0.2167 0.9146
C4H_2 C 0.5388(8) 0.2048(6) 1.0346(10)
H2H_2 H 0.5876 0.2057 1.0163
H3H_2 H 0.5186 0.1572 1.0280
H4H_2 H 0.5391 0.2167 1.0854
C4IA_2 C 0.5388(8) 0.2048(6) 0.9654(10)
H2IA_2 H 0.5876 0.2057 0.9837
H3IA_2 H 0.5186 0.1572 0.9720
H4IA_2 H 0.5391 0.2167 0.9146
C4HA_2 C 0.4612(8) 0.2048(6) 1.0346(10)
H2HA_2 H 0.4124 0.2057 1.0163
H3HA_2 H 0.4814 0.1572 1.0280
H4HA_2 H 0.4609 0.2167 1.0854
Co1J Co 0.5000 0.63275(4) 1.0000
O1J O 0.5000 0.7483(2) 1.0000
C4J C 0.5388(8) 0.7952(6) 0.9654(10)
H2J H 0.5876 0.7943 0.9837
H3J H 0.5186 0.8428 0.9720
H4J H 0.5391 0.7833 0.9146
C4K C 0.4612(8) 0.7952(6) 1.0346(10)
H2K H 0.4124 0.7943 1.0163
H3K H 0.4814 0.8428 1.0280
H4K H 0.4609 0.7833 1.0854
C4FA C 0.4612(8) 0.7952(6) 0.9654(10)
H2FA H 0.4124 0.7943 0.9837
H3FA H 0.4814 0.8428 0.9720
H4FA H 0.4609 0.7833 0.9146
C4GA C 0.5388(8) 0.7952(6) 1.0346(10)
H2GA H 0.5876 0.7943 1.0163
H3GA H 0.5186 0.8428 1.0280
H4GA H 0.5391 0.7833 1.0854
Co1J_2 Co 0.5000 0.63275(4) 0.0000
O1J_2 O 0.5000 0.7483(2) 0.0000
C4K_2 C 0.4612(8) 0.7952(6) 0.0346(10)
H2K_2 H 0.4124 0.7943 0.0163
H3K_2 H 0.4814 0.8428 0.0280
H4K_2 H 0.4609 0.7833 0.0854
C4J_2 C 0.5388(8) 0.7952(6) -0.0346(10)
H2J_2 H 0.5876 0.7943 -0.0163
H3J_2 H 0.5186 0.8428 -0.0280
H4J_2 H 0.5391 0.7833 -0.0854
C4GA_2 C 0.5388(8) 0.7952(6) 0.0346(10)
H2GA_2 H 0.5876 0.7943 0.0163
H3GA_2 H 0.5186 0.8428 0.0280
H4GA_2 H 0.5391 0.7833 0.0854
C4FA_2 C 0.4612(8) 0.7952(6) -0.0346(10)
H2FA_2 H 0.4124 0.7943 -0.0163
H3FA_2 H 0.4814 0.8428 -0.0280
H4FA_2 H 0.4609 0.7833 -0.0854
N1L N 0.42227(11) 0.07569(10) -0.37154(11)
N2L N 0.4057(8) 0.1267(9) -0.3301(10)
C1L C 0.35264(19) 0.26235(14) -0.26235(14)
H1L H 0.3935 0.2413 -0.2413
C2L C 0.32315(14) 0.23188(19) -0.32315(14)
C3L C 0.35387(14) 0.16761(19) -0.35387(14)
N1P N 0.07569(10) 0.37154(11) -0.42227(11)
N2P N 0.1267(9) 0.3301(10) -0.4057(8)
C1P C 0.26235(14) 0.26235(14) -0.35264(19)
H1P H 0.2413 0.2413 -0.3935
C2P C 0.23188(19) 0.32315(14) -0.32315(14)
C3P C 0.16761(19) 0.35387(14) -0.35387(14)
N1T N 0.37154(11) 0.42227(11) -0.07569(10)
N2T N 0.3301(10) 0.4057(8) -0.1267(9)
C1T C 0.26235(14) 0.35264(19) -0.26235(14)
H1T H 0.2413 0.3935 -0.2413
C2T C 0.32315(14) 0.32315(14) -0.23188(19)
C3T C 0.35387(14) 0.35387(14) -0.16761(19)
N1Y N 0.07569(10) 0.42227(11) -0.37154(11)
N2Y N 0.1267(9) 0.4057(8) -0.3301(10)
N1DA N 0.37154(11) 0.07569(10) -0.42227(11)
N2DA N 0.3301(10) 0.1267(9) -0.4057(8)
N1IA N 0.42227(11) 0.37154(11) -0.07569(10)
N2IA N 0.4057(8) 0.3301(10) -0.1267(9)
N1L_2 N 0.42227(11) 0.07569(10) 0.62846(11)
N2L_2 N 0.4057(8) 0.1267(9) 0.6699(10)
C1L_2 C 0.35264(19) 0.26235(14) 0.73765(14)
H1L_2 H 0.3935 0.2413 0.7587
C2L_2 C 0.32315(14) 0.23188(19) 0.67685(14)
C3L_2 C 0.35387(14) 0.16761(19) 0.64613(14)
N1P_2 N 0.07569(10) 0.37154(11) 0.57773(11)
N2P_2 N 0.1267(9) 0.3301(10) 0.5943(8)
C1P_2 C 0.26235(14) 0.26235(14) 0.64736(19)
H1P_2 H 0.2413 0.2413 0.6065
C2P_2 C 0.23188(19) 0.32315(14) 0.67685(14)
C3P_2 C 0.16761(19) 0.35387(14) 0.64613(14)
N1T_2 N 0.37154(11) 0.42227(11) 0.92431(10)
N2T_2 N 0.3301(10) 0.4057(8) 0.8733(9)
C1T_2 C 0.26235(14) 0.35264(19) 0.73765(14)
H1T_2 H 0.2413 0.3935 0.7587
C2T_2 C 0.32315(14) 0.32315(14) 0.76812(19)
C3T_2 C 0.35387(14) 0.35387(14) 0.83239(19)
N1Y_2 N 0.07569(10) 0.42227(11) 0.62846(11)
N2Y_2 N 0.1267(9) 0.4057(8) 0.6699(10)
N1DA_2 N 0.37154(11) 0.07569(10) 0.57773(11)
N2DA_2 N 0.3301(10) 0.1267(9) 0.5943(8)
N1IA_2 N 0.42227(11) 0.37154(11) 0.92431(10)
N2IA_2 N 0.4057(8) 0.3301(10) 0.8733(9)
N1N N 0.42227(11) -0.07569(10) 0.37154(11)
N2N N 0.4057(8) -0.1267(9) 0.3301(10)
C1N C 0.35264(19) -0.26235(14) 0.26235(14)
H1N H 0.3935 -0.2413 0.2413
C2N C 0.32315(14) -0.23188(19) 0.32315(14)
C3N C 0.35387(14) -0.16761(19) 0.35387(14)
N1S N 0.07569(10) -0.37154(11) 0.42227(11)
N2S N 0.1267(9) -0.3301(10) 0.4057(8)
C1S C 0.26235(14) -0.26235(14) 0.35264(19)
H1S H 0.2413 -0.2413 0.3935
C2S C 0.23188(19) -0.32315(14) 0.32315(14)
C3S C 0.16761(19) -0.35387(14) 0.35387(14)
N1U N 0.37154(11) -0.42227(11) 0.07569(10)
N2U N 0.3301(10) -0.4057(8) 0.1267(9)
C1U C 0.26235(14) -0.35264(19) 0.26235(14)
H1U H 0.2413 -0.3935 0.2413
C2U C 0.32315(14) -0.32315(14) 0.23188(19)
C3U C 0.35387(14) -0.35387(14) 0.16761(19)
N1Z N 0.07569(10) -0.42227(11) 0.37154(11)
N2Z N 0.1267(9) -0.4057(8) 0.3301(10)
N1EA N 0.37154(11) -0.07569(10) 0.42227(11)
N2EA N 0.3301(10) -0.1267(9) 0.4057(8)
N1GA N 0.42227(11) -0.37154(11) 0.07569(10)
N2GA N 0.4057(8) -0.3301(10) 0.1267(9)
Co1P Co 0.0000 0.36725(4) 0.5000
O1P O 0.0000 0.2517(2) 0.5000
C4PA C 0.0346(10) 0.2048(6) 0.5388(8)
H2PA H 0.0163 0.2057 0.5876
H3PA H 0.0280 0.1572 0.5186
H4PA H 0.0854 0.2167 0.5391
C4QA C -0.0346(10) 0.2048(6) 0.4612(8)
H2QA H -0.0163 0.2057 0.4124
H3QA H -0.0280 0.1572 0.4814
H4QA H -0.0854 0.2167 0.4609
C4P C 0.0346(10) 0.2048(6) 0.4612(8)
H2P H 0.0163 0.2057 0.4124
H3P H 0.0280 0.1572 0.4814
H4P H 0.0854 0.2167 0.4609
C4Q C -0.0346(10) 0.2048(6) 0.5388(8)
H2Q H -0.0163 0.2057 0.5876
H3Q H -0.0280 0.1572 0.5186
H4Q H -0.0854 0.2167 0.5391
Co1J_3 Co -0.5000 0.63275(4) 0.0000
N1K_2 N -0.42227(11) 0.62846(11) 0.07569(10)
N2K_2 N -0.4057(8) 0.6699(10) 0.1267(9)
O1J_3 O -0.5000 0.7483(2) 0.0000
C1K_2 C -0.35264(19) 0.73765(14) 0.26235(14)
H1K_2 H -0.3935 0.7587 0.2413
C2K_2 C -0.32315(14) 0.67685(14) 0.23188(19)
C3K_2 C -0.35387(14) 0.64613(14) 0.16761(19)
C4K_3 C -0.5388(8) 0.7952(6) 0.0346(10)
H2K_3 H -0.5876 0.7943 0.0163
H3K_3 H -0.5186 0.8428 0.0280
H4K_3 H -0.5391 0.7833 0.0854
N1A_2 N -0.07569(10) 0.57773(11) 0.37154(11)
N2A_2 N -0.1267(9) 0.5943(8) 0.3301(10)
C1A_2 C -0.26235(14) 0.64736(19) 0.26235(14)
H1A_2 H -0.2413 0.6065 0.2413
C2A_2 C -0.23188(19) 0.67685(14) 0.32315(14)
C3A_2 C -0.16761(19) 0.64613(14) 0.35387(14)
N1F_2 N -0.37154(11) 0.92431(10) 0.42227(11)
N2F_2 N -0.3301(10) 0.8733(9) 0.4057(8)
C1F_2 C -0.26235(14) 0.73765(14) 0.35264(19)
H1F_2 H -0.2413 0.7587 0.3935
C2F_2 C -0.32315(14) 0.76812(19) 0.32315(14)
C3F_2 C -0.35387(14) 0.83239(19) 0.35387(14)
N1NA_2 N -0.07569(10) 0.62846(11) 0.42227(11)
N2NA_2 N -0.1267(9) 0.6699(10) 0.4057(8)
N1RA_2 N -0.37154(11) 0.57773(11) 0.07569(10)
N2RA_2 N -0.3301(10) 0.5943(8) 0.1267(9)
N1JA_2 N -0.42227(11) 0.92431(10) 0.37154(11)
N2JA_2 N -0.4057(8) 0.8733(9) 0.3301(10)
C4J_3 C -0.4612(8) 0.7952(6) -0.0346(10)
H2J_3 H -0.4124 0.7943 -0.0163
H3J_3 H -0.4814 0.8428 -0.0280
H4J_3 H -0.4609 0.7833 -0.0854
C4GA_3 C -0.4612(8) 0.7952(6) 0.0346(10)
H2GA_3 H -0.4124 0.7943 0.0163
H3GA_3 H -0.4814 0.8428 0.0280
H4GA_3 H -0.4609 0.7833 0.0854
C4FA_3 C -0.5388(8) 0.7952(6) -0.0346(10)
H2FA_3 H -0.5876 0.7943 -0.0163
H3FA_3 H -0.5186 0.8428 -0.0280
H4FA_3 H -0.5391 0.7833 -0.0854
Co1_2 Co -0.0000 -0.5000 0.36725(4)
Co1_3 Co 1.0000 0.5000 0.36725(4)
Co1B_2 Co 0.0000 0.5000 -0.36725(4)
Co1B_3 Co 1.0000 0.5000 0.63275(4)
Co1D_3 Co 0.36725(4) -0.0000 -0.5000
Co1F_3 Co -0.36725(4) 1.0000 0.5000
Co1J_4 Co 0.5000 -0.36725(4) 0.0000
Co1L Co 0.5000 0.0000 -0.36725(4)
Co1L_2 Co 0.5000 0.0000 0.63275(4)
Co1L_3 Co 0.5000 1.0000 0.63275(4)
Co1N Co -0.5000 1.0000 0.36725(4)
Co1N_2 Co 0.5000 0.0000 0.36725(4)
Co1N_3 Co 0.5000 1.0000 0.36725(4)
Co1P_2 Co 0.0000 0.36725(4) -0.5000
Co1P_3 Co 1.0000 0.36725(4) 0.5000
Co1R Co 0.0000 -0.36725(4) 0.5000
Co1R_2 Co 0.0000 0.63275(4) 0.5000
Co1R_3 Co 1.0000 0.63275(4) 0.5000
Co1T Co 0.36725(4) -0.5000 0.0000
Co1T_2 Co 0.36725(4) 0.5000 0.0000
Co1T_3 Co 0.36725(4) 0.5000 1.0000
Co1V Co -0.36725(4) 0.5000 0.0000
Co1V_2 Co 0.63275(4) 0.5000 0.0000
Co1V_3 Co 0.63275(4) 0.5000 1.0000
Cl1H Cl -0.5000 0.5000 0.0000
Cl1H_2 Cl 0.5000 0.5000 0.0000
Cl1H_3 Cl 0.5000 0.5000 1.0000
N1B_2 N -0.07569(10) 0.42227(11) 0.62846(11)
N1D_2 N 0.37154(11) 1.07569(10) 0.42227(11)
N1E_2 N 0.37154(11) -0.07569(10) 0.57773(11)
N1F_3 N 0.62846(11) -0.07569(10) 0.42227(11)
N1G_2 N 0.62846(11) 1.07569(10) 0.57773(11)
N1H_2 N 0.42227(11) 0.37154(11) 1.07569(10)
N1I_2 N 0.57773(11) 0.37154(11) -0.07569(10)
N1J_2 N -0.57773(11) 0.62846(11) -0.07569(10)
N1J_3 N 0.42227(11) 0.62846(11) -0.07569(10)
N1K_3 N 0.57773(11) 0.62846(11) 1.07569(10)
N1Q N -0.07569(10) 0.37154(11) 0.42227(11)
N1X N -0.07569(10) 0.57773(11) 0.62846(11)
N1Z_2 N 0.07569(10) 0.57773(11) 0.37154(11)
N1AA N -0.07569(10) 0.42227(11) 0.37154(11)
N1BA N 0.62846(11) -0.07569(10) 0.57773(11)
N1BA_2 N 0.62846(11) 0.92431(10) 0.57773(11)
N1CA N 0.62846(11) 0.07569(10) 0.42227(11)
N1CA_2 N 0.62846(11) 1.07569(10) 0.42227(11)
N1DA_3 N 0.37154(11) 1.07569(10) 0.57773(11)
N1EA_2 N 0.37154(11) 0.92431(10) 0.42227(11)
N1FA N -0.42227(11) 0.62846(11) -0.07569(10)
N1FA_2 N 0.57773(11) 0.62846(11) -0.07569(10)
N1FA_3 N 0.57773(11) 0.62846(11) 0.92431(10)
N1GA_2 N -0.57773(11) 0.62846(11) 0.07569(10)
N1GA_3 N 0.42227(11) 0.62846(11) 0.07569(10)
N1GA_4 N 0.42227(11) 0.62846(11) 1.07569(10)
N1HA N 0.57773(11) 0.37154(11) 0.07569(10)
N1HA_2 N 0.57773(11) 0.37154(11) 1.07569(10)
N1QA_2 N -0.07569(10) 0.37154(11) 0.57773(11)
loop_
_geom_bond_atom_site_label_1
_geom_bond_atom_site_label_2
_geom_bond_site_symmetry_1
_geom_bond_site_symmetry_2
Co1 Cl1 1_555 1_555
Cl1 Co1B 1_555 1_555
N1 Co1 1_555 1_555
N2 N1 1_555 1_555
O1 Co1 1_555 1_555
C1 H1 1_555 1_555
C2 C1 1_555 1_555
C3 N2 1_555 1_555
C4 O1 1_555 1_555
H2 C4 1_555 1_555
H3 C4 1_555 1_555
H4 C4 1_555 1_555
N1D N2D 1_555 1_555
N2D C3D 1_555 1_555
C1D C2 1_555 1_555
H1D C1D 1_555 1_555
C2D C1D 1_555 1_555
C3D C2D 1_555 1_555
N1H N2H 1_555 1_555
N2H C3H 1_555 1_555
C1H C2D 1_555 1_555
H1H C1H 1_555 1_555
C2H C1 1_555 1_555
C3H C2H 1_555 1_555
N1KA N1D 1_555 1_555
N2KA C3D 1_555 1_555
N1PA N1 1_555 1_555
N2PA C3 1_555 1_555
N1UA N1H 1_555 1_555
N2UA C3H 1_555 1_555
C4A O1 1_555 1_555
H2A C4A 1_555 1_555
H3A C4A 1_555 1_555
H4A C4A 1_555 1_555
C4Z O1 1_555 1_555
H2Z C4A 1_555 1_555
H3Z C4Z 1_555 1_555
H4Z C4Z 1_555 1_555
C4AA O1 1_555 1_555
H2AA C4 1_555 1_555
H3AA C4AA 1_555 1_555
H4AA C4AA 1_555 1_555
Co1B O1B 1_555 1_555
O1B C4B 1_555 1_555
C4B H2B 1_555 1_555
H2B C4Y 1_555 1_555
H3B C4B 1_555 1_555
H4B C4B 1_555 1_555
C4C O1B 1_555 1_555
H2C C4C 1_555 1_555
H3C C4C 1_555 1_555
H4C C4C 1_555 1_555
C4X O1B 1_555 1_555
H2X C4C 1_555 1_555
H3X C4X 1_555 1_555
H4X C4X 1_555 1_555
C4Y O1B 1_555 1_555
H2Y C4B 1_555 1_555
H3Y C4Y 1_555 1_555
H4Y C4Y 1_555 1_555
N1C Co1B 1_555 1_555
N2C N1C 1_555 1_555
C1C H1C 1_555 1_555
C2C C1C 1_555 1_555
C3C N2C 1_555 1_555
N1E N2E 1_555 1_555
N2E C3E 1_555 1_555
C1E C2C 1_555 1_555
H1E C1E 1_555 1_555
C2E C1E 1_555 1_555
C3E C2E 1_555 1_555
N1J N2J 1_555 1_555
N2J C3J 1_555 1_555
C1J C2E 1_555 1_555
H1J C1J 1_555 1_555
C2J C1C 1_555 1_555
C3J C2J 1_555 1_555
N1MA N1E 1_555 1_555
N2MA C3E 1_555 1_555
N1OA N1C 1_555 1_555
N2OA C3C 1_555 1_555
N1TA N1J 1_555 1_555
N2TA C3J 1_555 1_555
Co1D N1D 1_555 1_555
Cl1D Co1D 1_555 1_555
O1D Co1D 1_555 1_555
C4D O1D 1_555 1_555
H2D C4D 1_555 1_555
H3D C4D 1_555 1_555
H4D C4D 1_555 1_555
C4E O1D 1_555 1_555
H2E C4E 1_555 1_555
H3E C4E 1_555 1_555
H4E C4E 1_555 1_555
C4DA O1D 1_555 1_555
H2DA C4E 1_555 1_555
H3DA C4DA 1_555 1_555
H4DA C4DA 1_555 1_555
C4EA O1D 1_555 1_555
H2EA C4D 1_555 1_555
H3EA C4EA 1_555 1_555
H4EA C4EA 1_555 1_555
Co1D_2 N1E 1_555 1_555
Cl1D_2 Co1D_2 1_555 1_555
O1D_2 Co1D_2 1_555 1_555
C4E_2 O1D_2 1_555 1_555
H2E_2 C4E_2 1_555 1_555
H3E_2 C4E_2 1_555 1_555
H4E_2 C4E_2 1_555 1_555
C4D_2 O1D_2 1_555 1_555
H2D_2 C4D_2 1_555 1_555
H3D_2 C4D_2 1_555 1_555
H4D_2 C4D_2 1_555 1_555
C4EA_2 O1D_2 1_555 1_555
H2EA_2 C4D_2 1_555 1_555
H3EA_2 C4EA_2 1_555 1_555
H4EA_2 C4EA_2 1_555 1_555
C4DA_2 O1D_2 1_555 1_555
H2DA_2 C4E_2 1_555 1_555
H3DA_2 C4DA_2 1_555 1_555
H4DA_2 C4DA_2 1_555 1_555
Co1F Cl1D_2 1_555 1_555
N1F Co1F 1_555 1_555
N2F N1F 1_555 1_555
O1F Co1F 1_555 1_555
C1F H1F 1_555 1_555
C2F C1F 1_555 1_555
C3F N2F 1_555 1_555
C4F O1F 1_555 1_555
H2F C4F 1_555 1_555
H3F C4F 1_555 1_555
H4F C4F 1_555 1_555
N1K N2K 1_555 1_555
N2K C3K 1_555 1_555
C1K C2F 1_555 1_555
H1K C1K 1_555 1_555
C2K C1K 1_555 1_555
C3K C2K 1_555 1_555
N1A N2A 1_555 1_555
N2A C3A 1_555 1_555
C1A C2K 1_555 1_555
H1A C1A 1_555 1_555
C2A C1F 1_555 1_555
C3A C2A 1_555 1_555
N1RA N1K 1_555 1_555
N2RA C3K 1_555 1_555
N1JA N1F 1_555 1_555
N2JA C3F 1_555 1_555
N1NA N1A 1_555 1_555
N2NA C3A 1_555 1_555
C4G O1F 1_555 1_555
H2G C4G 1_555 1_555
H3G C4G 1_555 1_555
H4G C4G 1_555 1_555
C4BA O1F 1_555 1_555
H2BA C4G 1_555 1_555
H3BA C4BA 1_555 1_555
H4BA C4BA 1_555 1_555
C4CA O1F 1_555 1_555
H2CA C4F 1_555 1_555
H3CA C4CA 1_555 1_555
H4CA C4CA 1_555 1_555
Co1F_2 Cl1D 1_555 1_555
N1G Co1F_2 1_555 1_555
N2G N1G 1_555 1_555
O1F_2 Co1F_2 1_555 1_555
C1G H1G 1_555 1_555
C2G C1G 1_555 1_555
C3G N2G 1_555 1_555
C4G_2 O1F_2 1_555 1_555
H2G_2 C4G_2 1_555 1_555
H3G_2 C4G_2 1_555 1_555
H4G_2 C4G_2 1_555 1_555
N1I N2I 1_555 1_555
N2I C3I 1_555 1_555
C1I C2G 1_555 1_555
H1I C1I 1_555 1_555
C2I C1I 1_555 1_555
C3I C2I 1_555 1_555
N1B N2B 1_555 1_555
N2B C3B 1_555 1_555
C1B C2I 1_555 1_555
H1B C1B 1_555 1_555
C2B C1G 1_555 1_555
C3B C2B 1_555 1_555
N1SA N1I 1_555 1_555
N2SA C3I 1_555 1_555
N1LA N1G 1_555 1_555
N2LA C3G 1_555 1_555
N1QA N1B 1_555 1_555
N2QA C3B 1_555 1_555
C4F_2 O1F_2 1_555 1_555
H2F_2 C4F_2 1_555 1_555
H3F_2 C4F_2 1_555 1_555
H4F_2 C4F_2 1_555 1_555
C4CA_2 O1F_2 1_555 1_555
H2CA_2 C4F_2 1_555 1_555
H3CA_2 C4CA_2 1_555 1_555
H4CA_2 C4CA_2 1_555 1_555
C4BA_2 O1F_2 1_555 1_555
H2BA_2 C4G_2 1_555 1_555
H3BA_2 C4BA_2 1_555 1_555
H4BA_2 C4BA_2 1_555 1_555
Co1H N1H 1_555 1_555
O1H Co1H 1_555 1_555
C4H O1H 1_555 1_555
H2H C4H 1_555 1_555
H3H C4H 1_555 1_555
H4H C4H 1_555 1_555
C4I O1H 1_555 1_555
H2I C4I 1_555 1_555
H3I C4I 1_555 1_555
H4I C4I 1_555 1_555
C4HA O1H 1_555 1_555
H2HA C4I 1_555 1_555
H3HA C4HA 1_555 1_555
H4HA C4HA 1_555 1_555
C4IA O1H 1_555 1_555
H2IA C4H 1_555 1_555
H3IA C4IA 1_555 1_555
H4IA C4IA 1_555 1_555
Co1H_2 N1I 1_555 1_555
O1H_2 Co1H_2 1_555 1_555
C4I_2 O1H_2 1_555 1_555
H2I_2 C4I_2 1_555 1_555
H3I_2 C4I_2 1_555 1_555
H4I_2 C4I_2 1_555 1_555
C4H_2 O1H_2 1_555 1_555
H2H_2 C4H_2 1_555 1_555
H3H_2 C4H_2 1_555 1_555
H4H_2 C4H_2 1_555 1_555
C4IA_2 O1H_2 1_555 1_555
H2IA_2 C4H_2 1_555 1_555
H3IA_2 C4IA_2 1_555 1_555
H4IA_2 C4IA_2 1_555 1_555
C4HA_2 O1H_2 1_555 1_555
H2HA_2 C4I_2 1_555 1_555
H3HA_2 C4HA_2 1_555 1_555
H4HA_2 C4HA_2 1_555 1_555
Co1J N1J 1_555 1_555
O1J Co1J 1_555 1_555
C4J O1J 1_555 1_555
H2J C4J 1_555 1_555
H3J C4J 1_555 1_555
H4J C4J 1_555 1_555
C4K O1J 1_555 1_555
H2K C4K 1_555 1_555
H3K C4K 1_555 1_555
H4K C4K 1_555 1_555
C4FA O1J 1_555 1_555
H2FA C4K 1_555 1_555
H3FA C4FA 1_555 1_555
H4FA C4FA 1_555 1_555
C4GA O1J 1_555 1_555
H2GA C4J 1_555 1_555
H3GA C4GA 1_555 1_555
H4GA C4GA 1_555 1_555
Co1J_2 N1K 1_555 1_555
O1J_2 Co1J_2 1_555 1_555
C4K_2 O1J_2 1_555 1_555
H2K_2 C4K_2 1_555 1_555
H3K_2 C4K_2 1_555 1_555
H4K_2 C4K_2 1_555 1_555
C4J_2 O1J_2 1_555 1_555
H2J_2 C4J_2 1_555 1_555
H3J_2 C4J_2 1_555 1_555
H4J_2 C4J_2 1_555 1_555
C4GA_2 O1J_2 1_555 1_555
H2GA_2 C4J_2 1_555 1_555
H3GA_2 C4GA_2 1_555 1_555
H4GA_2 C4GA_2 1_555 1_555
C4FA_2 O1J_2 1_555 1_555
H2FA_2 C4K_2 1_555 1_555
H3FA_2 C4FA_2 1_555 1_555
H4FA_2 C4FA_2 1_555 1_555
N1L N2L 1_555 1_555
N2L C3L 1_555 1_555
C1L H1L 1_555 1_555
C2L C1L 1_555 1_555
C3L C2L 1_555 1_555
N1P N2P 1_555 1_555
N2P C3P 1_555 1_555
C1P C2L 1_555 1_555
H1P C1P 1_555 1_555
C2P C1P 1_555 1_555
C3P C2P 1_555 1_555
N1T N2T 1_555 1_555
N2T C3T 1_555 1_555
C1T C2P 1_555 1_555
H1T C1T 1_555 1_555
C2T C1L 1_555 1_555
C3T C2T 1_555 1_555
N1Y N1P 1_555 1_555
N2Y C3P 1_555 1_555
N1DA N1L 1_555 1_555
N2DA C3L 1_555 1_555
N1IA Co1H 1_555 1_555
N2IA C3T 1_555 1_555
N1L_2 N2L_2 1_555 1_555
N2L_2 C3L_2 1_555 1_555
C1L_2 H1L_2 1_555 1_555
C2L_2 C1L_2 1_555 1_555
C3L_2 C2L_2 1_555 1_555
N1P_2 N2P_2 1_555 1_555
N2P_2 C3P_2 1_555 1_555
C1P_2 C2L_2 1_555 1_555
H1P_2 C1P_2 1_555 1_555
C2P_2 C1P_2 1_555 1_555
C3P_2 C2P_2 1_555 1_555
N1T_2 N2T_2 1_555 1_555
N2T_2 C3T_2 1_555 1_555
C1T_2 C2P_2 1_555 1_555
H1T_2 C1T_2 1_555 1_555
C2T_2 C1L_2 1_555 1_555
C3T_2 C2T_2 1_555 1_555
N1Y_2 Co1B 1_555 1_555
N2Y_2 C3P_2 1_555 1_555
N1DA_2 Co1D 1_555 1_555
N2DA_2 C3L_2 1_555 1_555
N1IA_2 Co1H_2 1_555 1_555
N2IA_2 C3T_2 1_555 1_555
N1N N2N 1_555 1_555
N2N C3N 1_555 1_555
C1N H1N 1_555 1_555
C2N C1N 1_555 1_555
C3N C2N 1_555 1_555
N1S N2S 1_555 1_555
N2S C3S 1_555 1_555
C1S C2N 1_555 1_555
H1S C1S 1_555 1_555
C2S C1S 1_555 1_555
C3S C2S 1_555 1_555
N1U N2U 1_555 1_555
N2U C3U 1_555 1_555
C1U C2S 1_555 1_555
H1U C1U 1_555 1_555
C2U C1N 1_555 1_555
C3U C2U 1_555 1_555
N1Z N1S 1_555 1_555
N2Z C3S 1_555 1_555
N1EA Co1D 1_555 1_555
N2EA C3N 1_555 1_555
N1GA N1U 1_555 1_555
N2GA C3U 1_555 1_555
Co1P Cl1 1_555 1_555
O1P Co1P 1_555 1_555
C4PA O1P 1_555 1_555
H2PA C4PA 1_555 1_555
H3PA C4PA 1_555 1_555
H4PA C4PA 1_555 1_555
C4QA O1P 1_555 1_555
H2QA C4QA 1_555 1_555
H3QA C4QA 1_555 1_555
H4QA C4QA 1_555 1_555
C4P O1P 1_555 1_555
H2P C4QA 1_555 1_555
H3P C4P 1_555 1_555
H4P C4P 1_555 1_555
C4Q O1P 1_555 1_555
H2Q C4PA 1_555 1_555
H3Q C4Q 1_555 1_555
H4Q C4Q 1_555 1_555
Co1J_3 N1K_2 1_555 1_555
N1K_2 N2K_2 1_555 1_555
N2K_2 C3K_2 1_555 1_555
O1J_3 Co1J_3 1_555 1_555
C1K_2 H1K_2 1_555 1_555
C2K_2 C1K_2 1_555 1_555
C3K_2 C2K_2 1_555 1_555
C4K_3 O1J_3 1_555 1_555
H2K_3 C4K_3 1_555 1_555
H3K_3 C4K_3 1_555 1_555
H4K_3 C4K_3 1_555 1_555
N1A_2 Co1 1_555 1_555
N2A_2 N1A_2 1_555 1_555
C1A_2 C2K_2 1_555 1_555
H1A_2 C1A_2 1_555 1_555
C2A_2 C1A_2 1_555 1_555
C3A_2 N2A_2 1_555 1_555
N1F_2 N2F_2 1_555 1_555
N2F_2 C3F_2 1_555 1_555
C1F_2 C2A_2 1_555 1_555
H1F_2 C1F_2 1_555 1_555
C2F_2 C1K_2 1_555 1_555
C3F_2 C2F_2 1_555 1_555
N1NA_2 N1A_2 1_555 1_555
N2NA_2 C3A_2 1_555 1_555
N1RA_2 N1K_2 1_555 1_555
N2RA_2 C3K_2 1_555 1_555
N1JA_2 N1F_2 1_555 1_555
N2JA_2 C3F_2 1_555 1_555
C4J_3 O1J_3 1_555 1_555
H2J_3 C4J_3 1_555 1_555
H3J_3 C4J_3 1_555 1_555
H4J_3 C4J_3 1_555 1_555
C4GA_3 O1J_3 1_555 1_555
H2GA_3 C4J_3 1_555 1_555
H3GA_3 C4GA_3 1_555 1_555
H4GA_3 C4GA_3 1_555 1_555
C4FA_3 O1J_3 1_555 1_555
H2FA_3 C4K_3 1_555 1_555
H3FA_3 C4FA_3 1_555 1_555
H4FA_3 C4FA_3 1_555 1_555
Co1_2 N1Z 1_555 1_555
Co1_3 N1A 1_555 1_555
Co1B_2 N1Y 1_555 1_555
Co1B_3 N1B 1_555 1_555
Co1D_3 N1DA 1_555 1_555
Co1F_3 N1F_2 1_555 1_555
Co1J_4 N1GA 1_555 1_555
Co1L N1L 1_555 1_555
Co1L_2 Cl1D 1_555 1_555
Co1L_3 N1MA 1_555 1_555
Co1N N1JA_2 1_555 1_555
Co1N_2 N1KA 1_555 1_555
Co1N_3 Cl1D_2 1_555 1_555
Co1P_2 N1P 1_555 1_555
Co1P_3 N1QA 1_555 1_555
Co1R N1S 1_555 1_555
Co1R_2 Cl1 1_555 1_555
Co1R_3 N1NA 1_555 1_555
Co1T N1U 1_555 1_555
Co1T_2 N1UA 1_555 1_555
Co1T_3 N1TA 1_555 1_555
Co1V N1RA_2 1_555 1_555
Co1V_2 N1RA 1_555 1_555
Co1V_3 N1SA 1_555 1_555
Cl1H Co1J_3 1_555 1_555
Cl1H_2 Co1H 1_555 1_555
Cl1H_3 Co1H_2 1_555 1_555
N1B_2 Co1B 1_555 1_555
N1D_2 Co1D_2 1_555 1_555
N1E_2 Co1D 1_555 1_555
N1F_3 Co1F_2 1_555 1_555
N1G_2 Co1F 1_555 1_555
N1H_2 Co1H_2 1_555 1_555
N1I_2 Co1H 1_555 1_555
N1J_2 Co1J_3 1_555 1_555
N1J_3 Co1J_2 1_555 1_555
N1K_3 Co1J 1_555 1_555
N1Q Co1P 1_555 1_555
N1X Co1B 1_555 1_555
N1Z_2 Co1 1_555 1_555
N1AA Co1 1_555 1_555
N1BA Co1F_2 1_555 1_555
N1BA_2 Co1F 1_555 1_555
N1CA Co1F_2 1_555 1_555
N1CA_2 Co1F 1_555 1_555
N1DA_3 Co1D_2 1_555 1_555
N1EA_2 Co1D_2 1_555 1_555
N1FA Co1J_3 1_555 1_555
N1FA_2 Co1J_2 1_555 1_555
N1FA_3 Co1J 1_555 1_555
N1GA_2 Co1J_3 1_555 1_555
N1GA_3 Co1J_2 1_555 1_555
N1GA_4 Co1J 1_555 1_555
N1HA Co1H 1_555 1_555
N1HA_2 Co1H_2 1_555 1_555
N1QA_2 Co1P 1_555 1_555
C2 C3 1_555 1_555
C4 C4Z 1_555 1_555
C4 C4AA 1_555 1_555
H2 C4AA 1_555 1_555
C1H C2H 1_555 1_555
N1KA N2KA 1_555 1_555
N1PA N2PA 1_555 1_555
N1PA Co1P 1_555 1_555
N1UA N2UA 1_555 1_555
C4A C4Z 1_555 1_555
C4A C4AA 1_555 1_555
H2A C4Z 1_555 1_555
C4Z H2Z 1_555 1_555
C4AA H2AA 1_555 1_555
C4B C4X 1_555 1_555
C4B C4Y 1_555 1_555
C4C C4X 1_555 1_555
C4C C4Y 1_555 1_555
H2C C4X 1_555 1_555
C4X H2X 1_555 1_555
C4Y H2Y 1_555 1_555
C2C C3C 1_555 1_555
C1J C2J 1_555 1_555
N1MA N2MA 1_555 1_555
N1OA N2OA 1_555 1_555
N1OA Co1R_2 1_555 1_555
N1TA N2TA 1_555 1_555
Cl1D Co1N_2 1_555 1_555
C4D C4DA 1_555 1_555
C4D C4EA 1_555 1_555
H2D C4EA 1_555 1_555
C4E C4DA 1_555 1_555
C4E C4EA 1_555 1_555
H2E C4DA 1_555 1_555
C4DA H2DA 1_555 1_555
C4EA H2EA 1_555 1_555
Cl1D_2 Co1L_3 1_555 1_555
C4E_2 C4EA_2 1_555 1_555
C4E_2 C4DA_2 1_555 1_555
H2E_2 C4DA_2 1_555 1_555
C4D_2 C4EA_2 1_555 1_555
C4D_2 C4DA_2 1_555 1_555
H2D_2 C4EA_2 1_555 1_555
C4EA_2 H2EA_2 1_555 1_555
C4DA_2 H2DA_2 1_555 1_555
C2F C3F 1_555 1_555
C4F C4BA 1_555 1_555
C4F C4CA 1_555 1_555
H2F C4CA 1_555 1_555
C1A C2A 1_555 1_555
N1RA N2RA 1_555 1_555
N1JA N2JA 1_555 1_555
N1JA Co1N_3 1_555 1_555
N1NA N2NA 1_555 1_555
C4G C4BA 1_555 1_555
C4G C4CA 1_555 1_555
H2G C4BA 1_555 1_555
C4BA H2BA 1_555 1_555
C4CA H2CA 1_555 1_555
C2G C3G 1_555 1_555
C4G_2 C4CA_2 1_555 1_555
C4G_2 C4BA_2 1_555 1_555
H2G_2 C4BA_2 1_555 1_555
C1B C2B 1_555 1_555
N1SA N2SA 1_555 1_555
N1LA N2LA 1_555 1_555
N1LA Co1L_2 1_555 1_555
N1QA N2QA 1_555 1_555
C4F_2 C4CA_2 1_555 1_555
C4F_2 C4BA_2 1_555 1_555
H2F_2 C4CA_2 1_555 1_555
C4CA_2 H2CA_2 1_555 1_555
C4BA_2 H2BA_2 1_555 1_555
C4H C4HA 1_555 1_555
C4H C4IA 1_555 1_555
H2H C4IA 1_555 1_555
C4I C4HA 1_555 1_555
C4I C4IA 1_555 1_555
H2I C4HA 1_555 1_555
C4HA H2HA 1_555 1_555
C4IA H2IA 1_555 1_555
C4I_2 C4IA_2 1_555 1_555
C4I_2 C4HA_2 1_555 1_555
H2I_2 C4HA_2 1_555 1_555
C4H_2 C4IA_2 1_555 1_555
C4H_2 C4HA_2 1_555 1_555
H2H_2 C4IA_2 1_555 1_555
C4IA_2 H2IA_2 1_555 1_555
C4HA_2 H2HA_2 1_555 1_555
Co1J Cl1H_3 1_555 1_555
C4J C4FA 1_555 1_555
C4J C4GA 1_555 1_555
H2J C4GA 1_555 1_555
C4K C4FA 1_555 1_555
C4K C4GA 1_555 1_555
H2K C4FA 1_555 1_555
C4FA H2FA 1_555 1_555
C4GA H2GA 1_555 1_555
Co1J_2 Cl1H_2 1_555 1_555
C4K_2 C4GA_2 1_555 1_555
C4K_2 C4FA_2 1_555 1_555
H2K_2 C4FA_2 1_555 1_555
C4J_2 C4GA_2 1_555 1_555
C4J_2 C4FA_2 1_555 1_555
H2J_2 C4GA_2 1_555 1_555
C4GA_2 H2GA_2 1_555 1_555
C4FA_2 H2FA_2 1_555 1_555
N1T N1IA 1_555 1_555
N1T Co1T_2 1_555 1_555
C1T C2T 1_555 1_555
N1Y N2Y 1_555 1_555
N1DA N2DA 1_555 1_555
N1IA N2IA 1_555 1_555
N1L_2 N1DA_2 1_555 1_555
N1L_2 Co1L_2 1_555 1_555
N1P_2 N1Y_2 1_555 1_555
N1P_2 Co1P 1_555 1_555
N1T_2 N1IA_2 1_555 1_555
N1T_2 Co1T_3 1_555 1_555
C1T_2 C2T_2 1_555 1_555
N1Y_2 N2Y_2 1_555 1_555
N1DA_2 N2DA_2 1_555 1_555
N1IA_2 N2IA_2 1_555 1_555
N1N N1EA 1_555 1_555
N1N Co1N_2 1_555 1_555
C1U C2U 1_555 1_555
N1Z N2Z 1_555 1_555
N1EA N2EA 1_555 1_555
N1GA N2GA 1_555 1_555
C4PA C4P 1_555 1_555
C4PA C4Q 1_555 1_555
H2PA C4Q 1_555 1_555
C4QA C4P 1_555 1_555
C4QA C4Q 1_555 1_555
H2QA C4P 1_555 1_555
C4P H2P 1_555 1_555
C4Q H2Q 1_555 1_555
C4K_3 C4GA_3 1_555 1_555
C4K_3 C4FA_3 1_555 1_555
H2K_3 C4FA_3 1_555 1_555
C2A_2 C3A_2 1_555 1_555
C1F_2 C2F_2 1_555 1_555
N1NA_2 N2NA_2 1_555 1_555
N1NA_2 Co1R_2 1_555 1_555
N1RA_2 N2RA_2 1_555 1_555
N1JA_2 N2JA_2 1_555 1_555
C4J_3 C4GA_3 1_555 1_555
C4J_3 C4FA_3 1_555 1_555
H2J_3 C4GA_3 1_555 1_555
C4GA_3 H2GA_3 1_555 1_555
C4FA_3 H2FA_3 1_555 1_555
Co1T_2 Cl1H_2 1_555 1_555
Co1T_3 Cl1H_3 1_555 1_555
Co1V Cl1H 1_555 1_555
Co1V_2 Cl1H_2 1_555 1_555
Co1V_3 Cl1H_3 1_555 1_555
N1B_2 N1QA_2 1_555 1_555
N1Q N1AA 1_555 1_555

#END
