
#######################################################################
#
#                 Cambridge Crystallographic Data Centre
#                                CCDC 
#
#######################################################################
#
# If this CIF has been generated from an entry in the Cambridge 
# Structural Database, then it will include bibliographic, chemical, 
# crystal, experimental, refinement or atomic coordinate data resulting 
# from the CCDC's data processing and validation procedures.
#
#######################################################################

data_AQOLID
_chemical_formula_moiety         'C96 H48 Cl5 Co24 N96 O1'
_symmetry_cell_setting           cubic
_symmetry_space_group_name_H-M   'F m -3 c'
_symmetry_Int_Tables_number      226
_space_group_name_Hall           '-F 4a 2 3'
loop_
_symmetry_equiv_pos_site_id
_symmetry_equiv_pos_as_xyz
1 x,y,z
2 -x,-y,z
3 -x,y,-z
4 x,-y,-z
5 z,x,y
6 z,-x,-y
7 -z,-x,y
8 -z,x,-y
9 y,z,x
10 -y,z,-x
11 y,-z,-x
12 -y,-z,x
13 1/2+y,1/2+x,1/2-z
14 1/2-y,1/2-x,1/2-z
15 1/2+y,1/2-x,1/2+z
16 1/2-y,1/2+x,1/2+z
17 1/2+x,1/2+z,1/2-y
18 1/2-x,1/2+z,1/2+y
19 1/2-x,1/2-z,1/2-y
20 1/2+x,1/2-z,1/2+y
21 1/2+z,1/2+y,1/2-x
22 1/2+z,1/2-y,1/2+x
23 1/2-z,1/2+y,1/2+x
24 1/2-z,1/2-y,1/2-x
25 x,1/2+y,1/2+z
26 -x,1/2-y,1/2+z
27 -x,1/2+y,1/2-z
28 x,1/2-y,1/2-z
29 z,1/2+x,1/2+y
30 z,1/2-x,1/2-y
31 -z,1/2-x,1/2+y
32 -z,1/2+x,1/2-y
33 y,1/2+z,1/2+x
34 -y,1/2+z,1/2-x
35 y,1/2-z,1/2-x
36 -y,1/2-z,1/2+x
37 1/2+y,x,-z
38 1/2-y,-x,-z
39 1/2+y,-x,z
40 1/2-y,x,z
41 1/2+x,z,-y
42 1/2-x,z,y
43 1/2-x,-z,-y
44 1/2+x,-z,y
45 1/2+z,y,-x
46 1/2+z,-y,x
47 1/2-z,y,x
48 1/2-z,-y,-x
49 1/2+x,y,1/2+z
50 1/2-x,-y,1/2+z
51 1/2-x,y,1/2-z
52 1/2+x,-y,1/2-z
53 1/2+z,x,1/2+y
54 1/2+z,-x,1/2-y
55 1/2-z,-x,1/2+y
56 1/2-z,x,1/2-y
57 1/2+y,z,1/2+x
58 1/2-y,z,1/2-x
59 1/2+y,-z,1/2-x
60 1/2-y,-z,1/2+x
61 y,1/2+x,-z
62 -y,1/2-x,-z
63 y,1/2-x,z
64 -y,1/2+x,z
65 x,1/2+z,-y
66 -x,1/2+z,y
67 -x,1/2-z,-y
68 x,1/2-z,y
69 z,1/2+y,-x
70 z,1/2-y,x
71 -z,1/2+y,x
72 -z,1/2-y,-x
73 1/2+x,1/2+y,z
74 1/2-x,1/2-y,z
75 1/2-x,1/2+y,-z
76 1/2+x,1/2-y,-z
77 1/2+z,1/2+x,y
78 1/2+z,1/2-x,-y
79 1/2-z,1/2-x,y
80 1/2-z,1/2+x,-y
81 1/2+y,1/2+z,x
82 1/2-y,1/2+z,-x
83 1/2+y,1/2-z,-x
84 1/2-y,1/2-z,x
85 y,x,1/2-z
86 -y,-x,1/2-z
87 y,-x,1/2+z
88 -y,x,1/2+z
89 x,z,1/2-y
90 -x,z,1/2+y
91 -x,-z,1/2-y
92 x,-z,1/2+y
93 z,y,1/2-x
94 z,-y,1/2+x
95 -z,y,1/2+x
96 -z,-y,1/2-x
97 -x,-y,-z
98 x,y,-z
99 x,-y,z
100 -x,y,z
101 -z,-x,-y
102 -z,x,y
103 z,x,-y
104 z,-x,y
105 -y,-z,-x
106 y,-z,x
107 -y,z,x
108 y,z,-x
109 1/2-y,1/2-x,1/2+z
110 1/2+y,1/2+x,1/2+z
111 1/2-y,1/2+x,1/2-z
112 1/2+y,1/2-x,1/2-z
113 1/2-x,1/2-z,1/2+y
114 1/2+x,1/2-z,1/2-y
115 1/2+x,1/2+z,1/2+y
116 1/2-x,1/2+z,1/2-y
117 1/2-z,1/2-y,1/2+x
118 1/2-z,1/2+y,1/2-x
119 1/2+z,1/2-y,1/2-x
120 1/2+z,1/2+y,1/2+x
121 -x,1/2-y,1/2-z
122 x,1/2+y,1/2-z
123 x,1/2-y,1/2+z
124 -x,1/2+y,1/2+z
125 -z,1/2-x,1/2-y
126 -z,1/2+x,1/2+y
127 z,1/2+x,1/2-y
128 z,1/2-x,1/2+y
129 -y,1/2-z,1/2-x
130 y,1/2-z,1/2+x
131 -y,1/2+z,1/2+x
132 y,1/2+z,1/2-x
133 1/2-y,-x,z
134 1/2+y,x,z
135 1/2-y,x,-z
136 1/2+y,-x,-z
137 1/2-x,-z,y
138 1/2+x,-z,-y
139 1/2+x,z,y
140 1/2-x,z,-y
141 1/2-z,-y,x
142 1/2-z,y,-x
143 1/2+z,-y,-x
144 1/2+z,y,x
145 1/2-x,-y,1/2-z
146 1/2+x,y,1/2-z
147 1/2+x,-y,1/2+z
148 1/2-x,y,1/2+z
149 1/2-z,-x,1/2-y
150 1/2-z,x,1/2+y
151 1/2+z,x,1/2-y
152 1/2+z,-x,1/2+y
153 1/2-y,-z,1/2-x
154 1/2+y,-z,1/2+x
155 1/2-y,z,1/2+x
156 1/2+y,z,1/2-x
157 -y,1/2-x,z
158 y,1/2+x,z
159 -y,1/2+x,-z
160 y,1/2-x,-z
161 -x,1/2-z,y
162 x,1/2-z,-y
163 x,1/2+z,y
164 -x,1/2+z,-y
165 -z,1/2-y,x
166 -z,1/2+y,-x
167 z,1/2-y,-x
168 z,1/2+y,x
169 1/2-x,1/2-y,-z
170 1/2+x,1/2+y,-z
171 1/2+x,1/2-y,z
172 1/2-x,1/2+y,z
173 1/2-z,1/2-x,-y
174 1/2-z,1/2+x,y
175 1/2+z,1/2+x,-y
176 1/2+z,1/2-x,y
177 1/2-y,1/2-z,-x
178 1/2+y,1/2-z,x
179 1/2-y,1/2+z,x
180 1/2+y,1/2+z,-x
181 -y,-x,1/2+z
182 y,x,1/2+z
183 -y,x,1/2-z
184 y,-x,1/2-z
185 -x,-z,1/2+y
186 x,-z,1/2-y
187 x,z,1/2+y
188 -x,z,1/2-y
189 -z,-y,1/2+x
190 -z,y,1/2-x
191 z,-y,1/2-x
192 z,y,1/2+x
_cell_length_a                   37.0668(10)
_cell_length_b                   37.0668(10)
_cell_length_c                   37.0668(10)
_cell_angle_alpha                90
_cell_angle_beta                 90
_cell_angle_gamma                90
_cell_volume                     50927.8
loop_
_atom_site_label
_atom_site_type_symbol
_atom_site_fract_x
_atom_site_fract_y
_atom_site_fract_z
_atom_site_U_iso_or_equiv
_atom_site_thermal_displace_type
Co1 Co 0.24613(2) 0.5000 0.31374(2) 0.0198 Uani
Cl1 Cl 0.2500 0.5000 0.2500 0.0249 Uani
N1 N 0.28391(5) 0.53665(4) 0.31591(5) 0.0225 Uani
N2 N 0.31070(5) 0.53650(4) 0.29175(5) 0.0223 Uani
C1 C 0.32027(6) 0.58208(6) 0.32626(6) 0.0254 Uani
C2 C 0.33780(6) 0.61453(6) 0.34077(6) 0.0253 Uani
C3 C 0.32421(6) 0.63158(6) 0.37132(6) 0.0254 Uani
H1 H 0.3033 0.6222 0.3827 0.0300 Uiso
N3 N 0.33304(5) 0.56378(5) 0.29722(5) 0.0261 Uani
C4 C 0.28932(6) 0.56494(5) 0.33743(6) 0.0256 Uani
H2 H 0.2744 0.5720 0.3570 0.0310 Uiso
N1E N 0.31591(5) 0.71609(5) 0.46335(4) 0.0225 Uani
N2E N 0.29175(5) 0.68930(5) 0.46350(4) 0.0223 Uani
C1E C 0.32626(6) 0.67973(6) 0.41792(6) 0.0254 Uani
C2E C 0.34077(6) 0.66220(6) 0.38547(6) 0.0253 Uani
C3E C 0.37132(6) 0.67579(6) 0.36842(6) 0.0254 Uani
H1E H 0.3827 0.6967 0.3778 0.0300 Uiso
N3E N 0.29722(5) 0.66696(5) 0.43622(5) 0.0261 Uani
C4E C 0.33743(6) 0.71068(6) 0.43506(5) 0.0256 Uani
H2E H 0.3570 0.7256 0.4280 0.0310 Uiso
N1K N 0.46335(4) 0.68409(5) 0.28391(5) 0.0225 Uani
N2K N 0.46350(4) 0.70825(5) 0.31070(5) 0.0223 Uani
C1K C 0.41792(6) 0.67374(6) 0.32027(6) 0.0254 Uani
C2K C 0.38547(6) 0.65923(6) 0.33780(6) 0.0253 Uani
C3K C 0.36842(6) 0.62868(6) 0.32421(6) 0.0254 Uani
H1K H 0.3778 0.6173 0.3033 0.0300 Uiso
N3K N 0.43622(5) 0.70278(5) 0.33304(5) 0.0261 Uani
C4K C 0.43506(5) 0.66257(6) 0.28932(6) 0.0256 Uani
H2K H 0.4280 0.6430 0.2744 0.0310 Uiso
Co1E Co 0.31374(2) 0.75387(2) 0.5000 0.0198 Uani
Cl1E Cl 0.2500 0.7500 0.5000 0.0249 Uani
Co1K Co 0.5000 0.68626(2) 0.24613(2) 0.0198 Uani
Cl1K Cl 0.5000 0.7500 0.2500 0.0249 Uani
Co1GA Co 0.5000 0.81374(2) 0.25387(2) 0.0198 Uani
N1GA N 0.46335(4) 0.81591(5) 0.21609(5) 0.0225 Uani
N2GA N 0.46350(4) 0.79175(5) 0.18930(5) 0.0223 Uani
C1GA C 0.41792(6) 0.82626(6) 0.17973(6) 0.0254 Uani
C2GA C 0.38547(6) 0.84077(6) 0.16220(6) 0.0253 Uani
C3GA C 0.36842(6) 0.87132(6) 0.17579(6) 0.0254 Uani
H1GA H 0.3778 0.8827 0.1967 0.0300 Uiso
N3GA N 0.43622(5) 0.79722(5) 0.16696(5) 0.0261 Uani
C4GA C 0.43506(5) 0.83743(6) 0.21068(6) 0.0256 Uani
H2GA H 0.4280 0.8570 0.2256 0.0310 Uiso
N1AA N 0.28391(5) 0.96335(4) 0.18409(5) 0.0225 Uani
N2AA N 0.31070(5) 0.96350(4) 0.20825(5) 0.0223 Uani
C1AA C 0.32027(6) 0.91792(6) 0.17374(6) 0.0254 Uani
C2AA C 0.33780(6) 0.88547(6) 0.15923(6) 0.0253 Uani
C3AA C 0.32421(6) 0.86842(6) 0.12868(6) 0.0254 Uani
H1AA H 0.3033 0.8778 0.1173 0.0300 Uiso
N3AA N 0.33304(5) 0.93622(5) 0.20278(5) 0.0261 Uani
C4AA C 0.28932(6) 0.93506(5) 0.16257(6) 0.0256 Uani
H2AA H 0.2744 0.9280 0.1430 0.0310 Uiso
N1BA N 0.31591(5) 0.78391(5) 0.03665(4) 0.0225 Uani
N2BA N 0.29175(5) 0.81070(5) 0.03650(4) 0.0223 Uani
C1BA C 0.32626(6) 0.82027(6) 0.08208(6) 0.0254 Uani
C2BA C 0.34077(6) 0.83780(6) 0.11453(6) 0.0253 Uani
C3BA C 0.37132(6) 0.82421(6) 0.13158(6) 0.0254 Uani
H1BA H 0.3827 0.8033 0.1222 0.0300 Uiso
N3BA N 0.29722(5) 0.83304(5) 0.06378(5) 0.0261 Uani
C4BA C 0.33743(6) 0.78932(6) 0.06494(5) 0.0256 Uani
H2BA H 0.3570 0.7744 0.0720 0.0310 Uiso
N1LA N 0.03665(4) 0.71609(5) 0.31591(5) 0.0225 Uani
N2LA N 0.03650(4) 0.68930(5) 0.29175(5) 0.0223 Uani
C1LA C 0.08208(6) 0.67973(6) 0.32626(6) 0.0254 Uani
C2LA C 0.11453(6) 0.66220(6) 0.34077(6) 0.0253 Uani
C3LA C 0.13158(6) 0.67579(6) 0.37132(6) 0.0254 Uani
H1LA H 0.1222 0.6967 0.3827 0.0300 Uiso
N3LA N 0.06378(5) 0.66696(5) 0.29722(5) 0.0261 Uani
C4LA C 0.06494(5) 0.71068(6) 0.33743(6) 0.0256 Uani
H2LA H 0.0720 0.7256 0.3570 0.0310 Uiso
N1PA N 0.21609(5) 0.68409(5) 0.46335(4) 0.0225 Uani
N2PA N 0.18930(5) 0.70825(5) 0.46350(4) 0.0223 Uani
C1PA C 0.17973(6) 0.67374(6) 0.41792(6) 0.0254 Uani
C2PA C 0.16220(6) 0.65923(6) 0.38547(6) 0.0253 Uani
C3PA C 0.17579(6) 0.62868(6) 0.36842(6) 0.0254 Uani
H1PA H 0.1967 0.6173 0.3778 0.0300 Uiso
N3PA N 0.16696(5) 0.70278(5) 0.43622(5) 0.0261 Uani
C4PA C 0.21068(6) 0.66257(6) 0.43506(5) 0.0256 Uani
H2PA H 0.2256 0.6430 0.4280 0.0310 Uiso
N1TA N 0.18409(5) 0.53665(4) 0.28391(5) 0.0225 Uani
N2TA N 0.20825(5) 0.53650(4) 0.31070(5) 0.0223 Uani
C1TA C 0.17374(6) 0.58208(6) 0.32027(6) 0.0254 Uani
C2TA C 0.15923(6) 0.61453(6) 0.33780(6) 0.0253 Uani
C3TA C 0.12868(6) 0.63158(6) 0.32421(6) 0.0254 Uani
H1TA H 0.1173 0.6222 0.3033 0.0300 Uiso
N3TA N 0.20278(5) 0.56378(5) 0.33304(5) 0.0261 Uani
C4TA C 0.16257(6) 0.56494(5) 0.28932(6) 0.0256 Uani
H2TA H 0.1430 0.5720 0.2744 0.0310 Uiso
Co1PA Co 0.25387(2) 0.68626(2) 0.5000 0.0198 Uani
Co1TA Co 0.18626(2) 0.5000 0.24613(2) 0.0198 Uani
Co1XA Co 0.25387(2) 0.5000 0.18626(2) 0.0198 Uani
N1XA N 0.21609(5) 0.53665(4) 0.18409(5) 0.0225 Uani
N2XA N 0.18930(5) 0.53650(4) 0.20825(5) 0.0223 Uani
C1XA C 0.17973(6) 0.58208(6) 0.17374(6) 0.0254 Uani
C2XA C 0.16220(6) 0.61453(6) 0.15923(6) 0.0253 Uani
C3XA C 0.17579(6) 0.63158(6) 0.12868(6) 0.0254 Uani
H1XA H 0.1967 0.6222 0.1173 0.0300 Uiso
N3XA N 0.16696(5) 0.56378(5) 0.20278(5) 0.0261 Uani
C4XA C 0.21068(6) 0.56494(5) 0.16257(6) 0.0256 Uani
H2XA H 0.2256 0.5720 0.1430 0.0310 Uiso
N1BB N 0.18409(5) 0.71609(5) 0.03665(4) 0.0225 Uani
N2BB N 0.20825(5) 0.68930(5) 0.03650(4) 0.0223 Uani
C1BB C 0.17374(6) 0.67973(6) 0.08208(6) 0.0254 Uani
C2BB C 0.15923(6) 0.66220(6) 0.11453(6) 0.0253 Uani
C3BB C 0.12868(6) 0.67579(6) 0.13158(6) 0.0254 Uani
H1BB H 0.1173 0.6967 0.1222 0.0300 Uiso
N3BB N 0.20278(5) 0.66696(5) 0.06378(5) 0.0261 Uani
C4BB C 0.16257(6) 0.71068(6) 0.06494(5) 0.0256 Uani
H2BB H 0.1430 0.7256 0.0720 0.0310 Uiso
N1FB N 0.03665(4) 0.68409(5) 0.21609(5) 0.0225 Uani
N2FB N 0.03650(4) 0.70825(5) 0.18930(5) 0.0223 Uani
C1FB C 0.08208(6) 0.67374(6) 0.17973(6) 0.0254 Uani
C2FB C 0.11453(6) 0.65923(6) 0.16220(6) 0.0253 Uani
C3FB C 0.13158(6) 0.62868(6) 0.17579(6) 0.0254 Uani
H1FB H 0.1222 0.6173 0.1967 0.0300 Uiso
N3FB N 0.06378(5) 0.70278(5) 0.16696(5) 0.0261 Uani
C4FB C 0.06494(5) 0.66257(6) 0.21068(6) 0.0256 Uani
H2FB H 0.0720 0.6430 0.2256 0.0310 Uiso
Co1BB Co 0.18626(2) 0.75387(2) 0.0000 0.0198 Uani
Co1FB Co 0.0000 0.68626(2) 0.25387(2) 0.0198 Uani
N1KB N 0.46335(4) 0.78391(5) 0.31591(5) 0.0225 Uani
N2KB N 0.46350(4) 0.81070(5) 0.29175(5) 0.0223 Uani
C1KB C 0.41792(6) 0.82027(6) 0.32626(6) 0.0254 Uani
C2KB C 0.38547(6) 0.83780(6) 0.34077(6) 0.0253 Uani
C3KB C 0.36842(6) 0.82421(6) 0.37132(6) 0.0254 Uani
H1KB H 0.3778 0.8033 0.3827 0.0300 Uiso
N3KB N 0.43622(5) 0.83304(5) 0.29722(5) 0.0261 Uani
C4KB C 0.43506(5) 0.78932(6) 0.33743(6) 0.0256 Uani
H2KB H 0.4280 0.7744 0.3570 0.0310 Uiso
N1LB N 0.28391(5) 0.81591(5) 0.46335(4) 0.0225 Uani
N2LB N 0.31070(5) 0.79175(5) 0.46350(4) 0.0223 Uani
C1LB C 0.32027(6) 0.82626(6) 0.41792(6) 0.0254 Uani
C2LB C 0.33780(6) 0.84077(6) 0.38547(6) 0.0253 Uani
C3LB C 0.32421(6) 0.87132(6) 0.36842(6) 0.0254 Uani
H1LB H 0.3033 0.8827 0.3778 0.0300 Uiso
N3LB N 0.33304(5) 0.79722(5) 0.43622(5) 0.0261 Uani
C4LB C 0.28932(6) 0.83743(6) 0.43506(5) 0.0256 Uani
H2LB H 0.2744 0.8570 0.4280 0.0310 Uiso
N1QB N 0.31591(5) 0.96335(4) 0.28391(5) 0.0225 Uani
N2QB N 0.29175(5) 0.96350(4) 0.31070(5) 0.0223 Uani
C1QB C 0.32626(6) 0.91792(6) 0.32027(6) 0.0254 Uani
C2QB C 0.34077(6) 0.88547(6) 0.33780(6) 0.0253 Uani
C3QB C 0.37132(6) 0.86842(6) 0.32421(6) 0.0254 Uani
H1QB H 0.3827 0.8778 0.3033 0.0300 Uiso
N3QB N 0.29722(5) 0.93622(5) 0.33304(5) 0.0261 Uani
C4QB C 0.33743(6) 0.93506(5) 0.28932(6) 0.0256 Uani
H2QB H 0.3570 0.9280 0.2744 0.0310 Uiso
N1UB N 0.21609(5) 0.96335(4) 0.31591(5) 0.0225 Uani
N2UB N 0.18930(5) 0.96350(4) 0.29175(5) 0.0223 Uani
C1UB C 0.17973(6) 0.91792(6) 0.32626(6) 0.0254 Uani
C2UB C 0.16220(6) 0.88547(6) 0.34077(6) 0.0253 Uani
C3UB C 0.17579(6) 0.86842(6) 0.37132(6) 0.0254 Uani
H1UB H 0.1967 0.8778 0.3827 0.0300 Uiso
N3UB N 0.16696(5) 0.93622(5) 0.29722(5) 0.0261 Uani
C4UB C 0.21068(6) 0.93506(5) 0.33743(6) 0.0256 Uani
H2UB H 0.2256 0.9280 0.3570 0.0310 Uiso
N1AC N 0.18409(5) 0.78391(5) 0.46335(4) 0.0225 Uani
N2AC N 0.20825(5) 0.81070(5) 0.46350(4) 0.0223 Uani
C1AC C 0.17374(6) 0.82027(6) 0.41792(6) 0.0254 Uani
C2AC C 0.15923(6) 0.83780(6) 0.38547(6) 0.0253 Uani
C3AC C 0.12868(6) 0.82421(6) 0.36842(6) 0.0254 Uani
H1AC H 0.1173 0.8033 0.3778 0.0300 Uiso
N3AC N 0.20278(5) 0.83304(5) 0.43622(5) 0.0261 Uani
C4AC C 0.16257(6) 0.78932(6) 0.43506(5) 0.0256 Uani
H2AC H 0.1430 0.7744 0.4280 0.0310 Uiso
N1BC N 0.03665(4) 0.81591(5) 0.28391(5) 0.0225 Uani
N2BC N 0.03650(4) 0.79175(5) 0.31070(5) 0.0223 Uani
C1BC C 0.08208(6) 0.82626(6) 0.32027(6) 0.0254 Uani
C2BC C 0.11453(6) 0.84077(6) 0.33780(6) 0.0253 Uani
C3BC C 0.13158(6) 0.87132(6) 0.32421(6) 0.0254 Uani
H1BC H 0.1222 0.8827 0.3033 0.0300 Uiso
N3BC N 0.06378(5) 0.79722(5) 0.33304(5) 0.0261 Uani
C4BC C 0.06494(5) 0.83743(6) 0.28932(6) 0.0256 Uani
H2BC H 0.0720 0.8570 0.2744 0.0310 Uiso
Co1AC Co 0.18626(2) 0.74613(2) 0.5000 0.0198 Uani
Co1BC Co -0.0000 0.81374(2) 0.24613(2) 0.0198 Uani
Co1GC Co 0.5000 0.75387(2) 0.18626(2) 0.0198 Uani
N1GC N 0.46335(4) 0.71609(5) 0.18409(5) 0.0225 Uani
N2GC N 0.46350(4) 0.68930(5) 0.20825(5) 0.0223 Uani
C1GC C 0.41792(6) 0.67973(6) 0.17374(6) 0.0254 Uani
C2GC C 0.38547(6) 0.66220(6) 0.15923(6) 0.0253 Uani
C3GC C 0.36842(6) 0.67579(6) 0.12868(6) 0.0254 Uani
H1GC H 0.3778 0.6967 0.1173 0.0300 Uiso
N3GC N 0.43622(5) 0.66696(5) 0.20278(5) 0.0261 Uani
C4GC C 0.43506(5) 0.71068(6) 0.16257(6) 0.0256 Uani
H2GC H 0.4280 0.7256 0.1430 0.0310 Uiso
N1MC N 0.28391(5) 0.68409(5) 0.03665(4) 0.0225 Uani
N2MC N 0.31070(5) 0.70825(5) 0.03650(4) 0.0223 Uani
C1MC C 0.32027(6) 0.67374(6) 0.08208(6) 0.0254 Uani
C2MC C 0.33780(6) 0.65923(6) 0.11453(6) 0.0253 Uani
C3MC C 0.32421(6) 0.62868(6) 0.13158(6) 0.0254 Uani
H1MC H 0.3033 0.6173 0.1222 0.0300 Uiso
N3MC N 0.33304(5) 0.70278(5) 0.06378(5) 0.0261 Uani
C4MC C 0.28932(6) 0.66257(6) 0.06494(5) 0.0256 Uani
H2MC H 0.2744 0.6430 0.0720 0.0310 Uiso
N1NC N 0.31591(5) 0.53665(4) 0.21609(5) 0.0225 Uani
N2NC N 0.29175(5) 0.53650(4) 0.18930(5) 0.0223 Uani
C1NC C 0.32626(6) 0.58208(6) 0.17973(6) 0.0254 Uani
C2NC C 0.34077(6) 0.61453(6) 0.16220(6) 0.0253 Uani
C3NC C 0.37132(6) 0.63158(6) 0.17579(6) 0.0254 Uani
H1NC H 0.3827 0.6222 0.1967 0.0300 Uiso
N3NC N 0.29722(5) 0.56378(5) 0.16696(5) 0.0261 Uani
C4NC C 0.33743(6) 0.56494(5) 0.21068(6) 0.0256 Uani
H2NC H 0.3570 0.5720 0.2256 0.0310 Uiso
N1L N 0.03665(4) 0.78391(5) 0.18409(5) 0.0225 Uani
N2L N 0.03650(4) 0.81070(5) 0.20825(5) 0.0223 Uani
C1L C 0.08208(6) 0.82027(6) 0.17374(6) 0.0254 Uani
C2L C 0.11453(6) 0.83780(6) 0.15923(6) 0.0253 Uani
C3L C 0.13158(6) 0.82421(6) 0.12868(6) 0.0254 Uani
H1L H 0.1222 0.8033 0.1173 0.0300 Uiso
N3L N 0.06378(5) 0.83304(5) 0.20278(5) 0.0261 Uani
C4L C 0.06494(5) 0.78932(6) 0.16257(6) 0.0256 Uani
H2L H 0.0720 0.7744 0.1430 0.0310 Uiso
N1Q N 0.21609(5) 0.81591(5) 0.03665(4) 0.0225 Uani
N2Q N 0.18930(5) 0.79175(5) 0.03650(4) 0.0223 Uani
C1Q C 0.17973(6) 0.82626(6) 0.08208(6) 0.0254 Uani
C2Q C 0.16220(6) 0.84077(6) 0.11453(6) 0.0253 Uani
C3Q C 0.17579(6) 0.87132(6) 0.13158(6) 0.0254 Uani
H1Q H 0.1967 0.8827 0.1222 0.0300 Uiso
N3Q N 0.16696(5) 0.79722(5) 0.06378(5) 0.0261 Uani
C4Q C 0.21068(6) 0.83743(6) 0.06494(5) 0.0256 Uani
H2Q H 0.2256 0.8570 0.0720 0.0310 Uiso
N1W N 0.18409(5) 0.96335(4) 0.21609(5) 0.0225 Uani
N2W N 0.20825(5) 0.96350(4) 0.18930(5) 0.0223 Uani
C1W C 0.17374(6) 0.91792(6) 0.17973(6) 0.0254 Uani
C2W C 0.15923(6) 0.88547(6) 0.16220(6) 0.0253 Uani
C3W C 0.12868(6) 0.86842(6) 0.17579(6) 0.0254 Uani
H1W H 0.1173 0.8778 0.1967 0.0300 Uiso
N3W N 0.20278(5) 0.93622(5) 0.16696(5) 0.0261 Uani
C4W C 0.16257(6) 0.93506(5) 0.21068(6) 0.0256 Uani
H2W H 0.1430 0.9280 0.2256 0.0310 Uiso
Co1L Co -0.0000 0.74613(2) 0.18626(2) 0.0198 Uani
Co1Q Co 0.25387(2) 0.81374(2) 0.0000 0.0198 Uani
Co1W Co 0.18626(2) 1.0000 0.25387(2) 0.0198 Uani
Co1AA Co 0.24613(2) 1.0000 0.18626(2) 0.0198 Uani
Co1BA Co 0.31374(2) 0.74613(2) 0.0000 0.0198 Uani
Co1LA Co 0.0000 0.75387(2) 0.31374(2) 0.0198 Uani
Co1KB Co 0.5000 0.74613(2) 0.31374(2) 0.0198 Uani
Co1LB Co 0.24613(2) 0.81374(2) 0.5000 0.0198 Uani
Co1QB Co 0.31374(2) 1.0000 0.24613(2) 0.0198 Uani
Co1UB Co 0.25387(2) 1.0000 0.31374(2) 0.0198 Uani
Co1MC Co 0.24613(2) 0.68626(2) 0.0000 0.0198 Uani
Co1NC Co 0.31374(2) 0.5000 0.25387(2) 0.0198 Uani
Cl1L Cl -0.0000 0.7500 0.2500 0.0249 Uani
Cl1Q Cl 0.2500 0.7500 0.0000 0.0249 Uani
N1TC N 0.28391(5) 0.46335(4) 0.31591(5) 0.0225 Uani
N1YC N 0.31591(5) 0.71609(5) 0.53665(4) 0.0225 Uani
N1AD N 0.53665(4) 0.68409(5) 0.28391(5) 0.0225 Uani
N1AE N 0.53665(4) 0.81591(5) 0.21609(5) 0.0225 Uani
N1FE N 0.21609(5) 0.68409(5) 0.53665(4) 0.0225 Uani
N1JE N 0.18409(5) 0.46335(4) 0.28391(5) 0.0225 Uani
N1NE N 0.21609(5) 0.46335(4) 0.18409(5) 0.0225 Uani
N1RE N 0.18409(5) 0.71609(5) -0.03665(4) 0.0225 Uani
N1VE N -0.03665(4) 0.68409(5) 0.21609(5) 0.0225 Uani
N1QF N 0.18409(5) 0.78391(5) 0.53665(4) 0.0225 Uani
N1VF N -0.03665(4) 0.81591(5) 0.28391(5) 0.0225 Uani
N1AG N 0.53665(4) 0.71609(5) 0.18409(5) 0.0225 Uani
N2YC N 0.29175(5) 0.68930(5) 0.53650(4) 0.0223 Uani
N2FD N -0.03650(4) 0.81070(5) 0.20825(5) 0.0223 Uani
N2KD N 0.18930(5) 0.79175(5) -0.03650(4) 0.0223 Uani
N2AE N 0.53650(4) 0.79175(5) 0.18930(5) 0.0223 Uani
N2BE N -0.03650(4) 0.68930(5) 0.29175(5) 0.0223 Uani
N2FE N 0.18930(5) 0.70825(5) 0.53650(4) 0.0223 Uani
N2JE N 0.20825(5) 0.46350(4) 0.31070(5) 0.0223 Uani
N2NE N 0.18930(5) 0.46350(4) 0.20825(5) 0.0223 Uani
N2AF N 0.53650(4) 0.81070(5) 0.29175(5) 0.0223 Uani
N2FF N 0.31070(5) 0.79175(5) 0.53650(4) 0.0223 Uani
N2AG N 0.53650(4) 0.68930(5) 0.20825(5) 0.0223 Uani
N2HG N 0.29175(5) 0.46350(4) 0.18930(5) 0.0223 Uani
O1 O 0.2428(4) 0.5000 0.3754(5) 0.1840 Uani
loop_
_atom_site_aniso_label
_atom_site_aniso_U_11
_atom_site_aniso_U_22
_atom_site_aniso_U_33
_atom_site_aniso_U_23
_atom_site_aniso_U_13
_atom_site_aniso_U_12
Co1 0.0201(2) 0.0125(2) 0.0269(3) 0.000 0.00120(16) 0.000
Cl1 0.0257(5) 0.0232(7) 0.0257(5) 0.000 0.000 0.000
N1 0.0258(9) 0.0182(8) 0.0235(9) -0.0013(7) 0.0020(7) 0.0007(7)
N2 0.0258(9) 0.0170(8) 0.0240(9) 0.0011(7) -0.0021(7) -0.0043(7)
C1 0.0289(11) 0.0221(10) 0.0251(11) -0.0056(9) 0.0014(9) -0.0023(9)
C2 0.0255(11) 0.0232(11) 0.0272(11) -0.0054(9) 0.0026(9) -0.0051(9)
C3 0.0238(10) 0.0264(11) 0.0260(11) -0.0038(9) 0.0059(9) -0.0084(9)
N3 0.0288(10) 0.0239(10) 0.0256(10) -0.0035(8) 0.0025(8) -0.0064(8)
C4 0.0296(11) 0.0199(10) 0.0272(11) -0.0068(9) 0.0020(9) 0.0001(9)
N1E 0.0235 0.0258 0.0182 0.0007 0.0013 -0.002
N2E 0.024 0.0258 0.017 -0.0043 -0.0011 0.0021
C1E 0.0251 0.0289 0.0221 -0.0023 0.0056 -0.0014
C2E 0.0272 0.0255 0.0232 -0.0051 0.0054 -0.0026
C3E 0.026 0.0238 0.0264 -0.0084 0.0038 -0.0059
N3E 0.0256 0.0288 0.0239 -0.0064 0.0035 -0.0025
C4E 0.0272 0.0296 0.0199 0.0001 0.0068 -0.002
N1K 0.0182 0.0235 0.0258 -0.002 -0.0007 -0.0013
N2K 0.017 0.024 0.0258 0.0021 0.0043 0.0011
C1K 0.0221 0.0251 0.0289 -0.0014 0.0023 -0.0056
C2K 0.0232 0.0272 0.0255 -0.0026 0.0051 -0.0054
C3K 0.0264 0.026 0.0238 -0.0059 0.0084 -0.0038
N3K 0.0239 0.0256 0.0288 -0.0025 0.0064 -0.0035
C4K 0.0199 0.0272 0.0296 -0.002 -0.0001 -0.0068
Co1E 0.0269 0.0201 0.0125 0 0 -0.0012
Cl1E 0.0257 0.0257 0.0232 0 0 0
Co1K 0.0125 0.0269 0.0201 -0.0012 0 0
Cl1K 0.0232 0.0257 0.0257 0 0 0
Co1GA 0.0125 0.0269 0.0201 -0.0012 0 0
N1GA 0.0182 0.0235 0.0258 -0.002 0.0007 0.0013
N2GA 0.017 0.024 0.0258 0.0021 -0.0043 -0.0011
C1GA 0.0221 0.0251 0.0289 -0.0014 -0.0023 0.0056
C2GA 0.0232 0.0272 0.0255 -0.0026 -0.0051 0.0054
C3GA 0.0264 0.026 0.0238 -0.0059 -0.0084 0.0038
N3GA 0.0239 0.0256 0.0288 -0.0025 -0.0064 0.0035
C4GA 0.0199 0.0272 0.0296 -0.002 0.0001 0.0068
N1AA 0.0258 0.0182 0.0235 -0.0013 -0.002 -0.0007
N2AA 0.0258 0.017 0.024 0.0011 0.0021 0.0043
C1AA 0.0289 0.0221 0.0251 -0.0056 -0.0014 0.0023
C2AA 0.0255 0.0232 0.0272 -0.0054 -0.0026 0.0051
C3AA 0.0238 0.0264 0.026 -0.0038 -0.0059 0.0084
N3AA 0.0288 0.0239 0.0256 -0.0035 -0.0025 0.0064
C4AA 0.0296 0.0199 0.0272 -0.0068 -0.002 -0.0001
N1BA 0.0235 0.0258 0.0182 0.0007 -0.0013 0.002
N2BA 0.024 0.0258 0.017 -0.0043 0.0011 -0.0021
C1BA 0.0251 0.0289 0.0221 -0.0023 -0.0056 0.0014
C2BA 0.0272 0.0255 0.0232 -0.0051 -0.0054 0.0026
C3BA 0.026 0.0238 0.0264 -0.0084 -0.0038 0.0059
N3BA 0.0256 0.0288 0.0239 -0.0064 -0.0035 0.0025
C4BA 0.0272 0.0296 0.0199 0.0001 -0.0068 0.002
N1LA 0.0182 0.0258 0.0235 -0.002 -0.0013 -0.0007
N2LA 0.017 0.0258 0.024 0.0021 0.0011 0.0043
C1LA 0.0221 0.0289 0.0251 -0.0014 -0.0056 0.0023
C2LA 0.0232 0.0255 0.0272 -0.0026 -0.0054 0.0051
C3LA 0.0264 0.0238 0.026 -0.0059 -0.0038 0.0084
N3LA 0.0239 0.0288 0.0256 -0.0025 -0.0035 0.0064
C4LA 0.0199 0.0296 0.0272 -0.002 -0.0068 -0.0001
N1PA 0.0258 0.0235 0.0182 -0.0013 0.0007 0.002
N2PA 0.0258 0.024 0.017 0.0011 -0.0043 -0.0021
C1PA 0.0289 0.0251 0.0221 -0.0056 -0.0023 0.0014
C2PA 0.0255 0.0272 0.0232 -0.0054 -0.0051 0.0026
C3PA 0.0238 0.026 0.0264 -0.0038 -0.0084 0.0059
N3PA 0.0288 0.0256 0.0239 -0.0035 -0.0064 0.0025
C4PA 0.0296 0.0272 0.0199 -0.0068 0.0001 0.002
N1TA 0.0235 0.0182 0.0258 0.0007 -0.002 0.0013
N2TA 0.024 0.017 0.0258 -0.0043 0.0021 -0.0011
C1TA 0.0251 0.0221 0.0289 -0.0023 -0.0014 0.0056
C2TA 0.0272 0.0232 0.0255 -0.0051 -0.0026 0.0054
C3TA 0.026 0.0264 0.0238 -0.0084 -0.0059 0.0038
N3TA 0.0256 0.0239 0.0288 -0.0064 -0.0025 0.0035
C4TA 0.0272 0.0199 0.0296 0.0001 -0.002 0.0068
Co1PA 0.0201 0.0269 0.0125 0 0 0.0012
Co1TA 0.0269 0.0125 0.0201 0 -0.0012 0
Co1XA 0.0201 0.0125 0.0269 0 0.0012 0
N1XA 0.0258 0.0182 0.0235 0.0013 0.002 -0.0007
N2XA 0.0258 0.017 0.024 -0.0011 -0.0021 0.0043
C1XA 0.0289 0.0221 0.0251 0.0056 0.0014 0.0023
C2XA 0.0255 0.0232 0.0272 0.0054 0.0026 0.0051
C3XA 0.0238 0.0264 0.026 0.0038 0.0059 0.0084
N3XA 0.0288 0.0239 0.0256 0.0035 0.0025 0.0064
C4XA 0.0296 0.0199 0.0272 0.0068 0.002 -0.0001
N1BB 0.0235 0.0258 0.0182 -0.0007 0.0013 0.002
N2BB 0.024 0.0258 0.017 0.0043 -0.0011 -0.0021
C1BB 0.0251 0.0289 0.0221 0.0023 0.0056 0.0014
C2BB 0.0272 0.0255 0.0232 0.0051 0.0054 0.0026
C3BB 0.026 0.0238 0.0264 0.0084 0.0038 0.0059
N3BB 0.0256 0.0288 0.0239 0.0064 0.0035 0.0025
C4BB 0.0272 0.0296 0.0199 -0.0001 0.0068 0.002
N1FB 0.0182 0.0235 0.0258 0.002 -0.0007 0.0013
N2FB 0.017 0.024 0.0258 -0.0021 0.0043 -0.0011
C1FB 0.0221 0.0251 0.0289 0.0014 0.0023 0.0056
C2FB 0.0232 0.0272 0.0255 0.0026 0.0051 0.0054
C3FB 0.0264 0.026 0.0238 0.0059 0.0084 0.0038
N3FB 0.0239 0.0256 0.0288 0.0025 0.0064 0.0035
C4FB 0.0199 0.0272 0.0296 0.002 -0.0001 0.0068
Co1BB 0.0269 0.0201 0.0125 0 0 0.0012
Co1FB 0.0125 0.0269 0.0201 0.0012 0 0
N1KB 0.0182 0.0258 0.0235 0.002 0.0013 -0.0007
N2KB 0.017 0.0258 0.024 -0.0021 -0.0011 0.0043
C1KB 0.0221 0.0289 0.0251 0.0014 0.0056 0.0023
C2KB 0.0232 0.0255 0.0272 0.0026 0.0054 0.0051
C3KB 0.0264 0.0238 0.026 0.0059 0.0038 0.0084
N3KB 0.0239 0.0288 0.0256 0.0025 0.0035 0.0064
C4KB 0.0199 0.0296 0.0272 0.002 0.0068 -0.0001
N1LB 0.0258 0.0235 0.0182 0.0013 -0.0007 0.002
N2LB 0.0258 0.024 0.017 -0.0011 0.0043 -0.0021
C1LB 0.0289 0.0251 0.0221 0.0056 0.0023 0.0014
C2LB 0.0255 0.0272 0.0232 0.0054 0.0051 0.0026
C3LB 0.0238 0.026 0.0264 0.0038 0.0084 0.0059
N3LB 0.0288 0.0256 0.0239 0.0035 0.0064 0.0025
C4LB 0.0296 0.0272 0.0199 0.0068 -0.0001 0.002
N1QB 0.0235 0.0182 0.0258 -0.0007 0.002 0.0013
N2QB 0.024 0.017 0.0258 0.0043 -0.0021 -0.0011
C1QB 0.0251 0.0221 0.0289 0.0023 0.0014 0.0056
C2QB 0.0272 0.0232 0.0255 0.0051 0.0026 0.0054
C3QB 0.026 0.0264 0.0238 0.0084 0.0059 0.0038
N3QB 0.0256 0.0239 0.0288 0.0064 0.0025 0.0035
C4QB 0.0272 0.0199 0.0296 -0.0001 0.002 0.0068
N1UB 0.0258 0.0182 0.0235 0.0013 -0.002 0.0007
N2UB 0.0258 0.017 0.024 -0.0011 0.0021 -0.0043
C1UB 0.0289 0.0221 0.0251 0.0056 -0.0014 -0.0023
C2UB 0.0255 0.0232 0.0272 0.0054 -0.0026 -0.0051
C3UB 0.0238 0.0264 0.026 0.0038 -0.0059 -0.0084
N3UB 0.0288 0.0239 0.0256 0.0035 -0.0025 -0.0064
C4UB 0.0296 0.0199 0.0272 0.0068 -0.002 0.0001
N1AC 0.0235 0.0258 0.0182 -0.0007 -0.0013 -0.002
N2AC 0.024 0.0258 0.017 0.0043 0.0011 0.0021
C1AC 0.0251 0.0289 0.0221 0.0023 -0.0056 -0.0014
C2AC 0.0272 0.0255 0.0232 0.0051 -0.0054 -0.0026
C3AC 0.026 0.0238 0.0264 0.0084 -0.0038 -0.0059
N3AC 0.0256 0.0288 0.0239 0.0064 -0.0035 -0.0025
C4AC 0.0272 0.0296 0.0199 -0.0001 -0.0068 -0.002
N1BC 0.0182 0.0235 0.0258 0.002 0.0007 -0.0013
N2BC 0.017 0.024 0.0258 -0.0021 -0.0043 0.0011
C1BC 0.0221 0.0251 0.0289 0.0014 -0.0023 -0.0056
C2BC 0.0232 0.0272 0.0255 0.0026 -0.0051 -0.0054
C3BC 0.0264 0.026 0.0238 0.0059 -0.0084 -0.0038
N3BC 0.0239 0.0256 0.0288 0.0025 -0.0064 -0.0035
C4BC 0.0199 0.0272 0.0296 0.002 0.0001 -0.0068
Co1AC 0.0269 0.0201 0.0125 0 0 -0.0012
Co1BC 0.0125 0.0269 0.0201 0.0012 0 0
Co1GC 0.0125 0.0201 0.0269 0.0012 0 0
N1GC 0.0182 0.0258 0.0235 0.002 -0.0013 0.0007
N2GC 0.017 0.0258 0.024 -0.0021 0.0011 -0.0043
C1GC 0.0221 0.0289 0.0251 0.0014 -0.0056 -0.0023
C2GC 0.0232 0.0255 0.0272 0.0026 -0.0054 -0.0051
C3GC 0.0264 0.0238 0.026 0.0059 -0.0038 -0.0084
N3GC 0.0239 0.0288 0.0256 0.0025 -0.0035 -0.0064
C4GC 0.0199 0.0296 0.0272 0.002 -0.0068 0.0001
N1MC 0.0258 0.0235 0.0182 0.0013 0.0007 -0.002
N2MC 0.0258 0.024 0.017 -0.0011 -0.0043 0.0021
C1MC 0.0289 0.0251 0.0221 0.0056 -0.0023 -0.0014
C2MC 0.0255 0.0272 0.0232 0.0054 -0.0051 -0.0026
C3MC 0.0238 0.026 0.0264 0.0038 -0.0084 -0.0059
N3MC 0.0288 0.0256 0.0239 0.0035 -0.0064 -0.0025
C4MC 0.0296 0.0272 0.0199 0.0068 0.0001 -0.002
N1NC 0.0235 0.0182 0.0258 -0.0007 -0.002 -0.0013
N2NC 0.024 0.017 0.0258 0.0043 0.0021 0.0011
C1NC 0.0251 0.0221 0.0289 0.0023 -0.0014 -0.0056
C2NC 0.0272 0.0232 0.0255 0.0051 -0.0026 -0.0054
C3NC 0.026 0.0264 0.0238 0.0084 -0.0059 -0.0038
N3NC 0.0256 0.0239 0.0288 0.0064 -0.0025 -0.0035
C4NC 0.0272 0.0199 0.0296 -0.0001 -0.002 -0.0068
N1L 0.0182 0.0258 0.0235 -0.002 0.0013 0.0007
N2L 0.017 0.0258 0.024 0.0021 -0.0011 -0.0043
C1L 0.0221 0.0289 0.0251 -0.0014 0.0056 -0.0023
C2L 0.0232 0.0255 0.0272 -0.0026 0.0054 -0.0051
C3L 0.0264 0.0238 0.026 -0.0059 0.0038 -0.0084
N3L 0.0239 0.0288 0.0256 -0.0025 0.0035 -0.0064
C4L 0.0199 0.0296 0.0272 -0.002 0.0068 0.0001
N1Q 0.0258 0.0235 0.0182 -0.0013 -0.0007 -0.002
N2Q 0.0258 0.024 0.017 0.0011 0.0043 0.0021
C1Q 0.0289 0.0251 0.0221 -0.0056 0.0023 -0.0014
C2Q 0.0255 0.0272 0.0232 -0.0054 0.0051 -0.0026
C3Q 0.0238 0.026 0.0264 -0.0038 0.0084 -0.0059
N3Q 0.0288 0.0256 0.0239 -0.0035 0.0064 -0.0025
C4Q 0.0296 0.0272 0.0199 -0.0068 -0.0001 -0.002
N1W 0.0235 0.0182 0.0258 0.0007 0.002 -0.0013
N2W 0.024 0.017 0.0258 -0.0043 -0.0021 0.0011
C1W 0.0251 0.0221 0.0289 -0.0023 0.0014 -0.0056
C2W 0.0272 0.0232 0.0255 -0.0051 0.0026 -0.0054
C3W 0.026 0.0264 0.0238 -0.0084 0.0059 -0.0038
N3W 0.0256 0.0239 0.0288 -0.0064 0.0025 -0.0035
C4W 0.0272 0.0199 0.0296 0.0001 0.002 -0.0068
Co1L 0.0125 0.0201 0.0269 -0.0012 0 0
Co1Q 0.0201 0.0269 0.0125 0 0 -0.0012
Co1W 0.0269 0.0125 0.0201 0 0.0012 0
Co1AA 0.0201 0.0125 0.0269 0 -0.0012 0
Co1BA 0.0269 0.0201 0.0125 0 0 0.0012
Co1LA 0.0125 0.0201 0.0269 -0.0012 0 0
Co1KB 0.0125 0.0201 0.0269 0.0012 0 0
Co1LB 0.0201 0.0269 0.0125 0 0 0.0012
Co1QB 0.0269 0.0125 0.0201 0 0.0012 0
Co1UB 0.0201 0.0125 0.0269 0 -0.0012 0
Co1MC 0.0201 0.0269 0.0125 0 0 -0.0012
Co1NC 0.0269 0.0125 0.0201 0 -0.0012 0
Cl1L 0.0232 0.0257 0.0257 0 0 0
Cl1Q 0.0257 0.0257 0.0232 0 0 0
N1TC 0.0258 0.0182 0.0235 0.0013 0.002 -0.0007
N1YC 0.0235 0.0258 0.0182 -0.0007 -0.0013 -0.002
N1AD 0.0182 0.0235 0.0258 -0.002 0.0007 0.0013
N1AE 0.0182 0.0235 0.0258 -0.002 -0.0007 -0.0013
N1FE 0.0258 0.0235 0.0182 0.0013 -0.0007 0.002
N1JE 0.0235 0.0182 0.0258 -0.0007 -0.002 -0.0013
N1NE 0.0258 0.0182 0.0235 -0.0013 0.002 0.0007
N1RE 0.0235 0.0258 0.0182 0.0007 -0.0013 0.002
N1VE 0.0182 0.0235 0.0258 0.002 0.0007 -0.0013
N1QF 0.0235 0.0258 0.0182 0.0007 0.0013 -0.002
N1VF 0.0182 0.0235 0.0258 0.002 -0.0007 0.0013
N1AG 0.0182 0.0258 0.0235 0.002 0.0013 -0.0007
N2YC 0.024 0.0258 0.017 0.0043 0.0011 0.0021
N2FD 0.017 0.0258 0.024 0.0021 0.0011 0.0043
N2KD 0.0258 0.024 0.017 -0.0011 -0.0043 0.0021
N2AE 0.017 0.024 0.0258 0.0021 0.0043 0.0011
N2BE 0.017 0.0258 0.024 0.0021 -0.0011 -0.0043
N2FE 0.0258 0.024 0.017 -0.0011 0.0043 -0.0021
N2JE 0.024 0.017 0.0258 0.0043 0.0021 0.0011
N2NE 0.0258 0.017 0.024 0.0011 -0.0021 -0.0043
N2AF 0.017 0.0258 0.024 -0.0021 0.0011 -0.0043
N2FF 0.0258 0.024 0.017 0.0011 -0.0043 -0.0021
N2AG 0.017 0.0258 0.024 -0.0021 -0.0011 0.0043
N2HG 0.024 0.017 0.0258 -0.0043 0.0021 -0.0011
O1 0.110(11) 0.31(3) 0.132(14) 0.000 -0.041(10) 0.000
loop_
_geom_bond_atom_site_label_1
_geom_bond_atom_site_label_2
_geom_bond_site_symmetry_1
_geom_bond_site_symmetry_2
Co1 Cl1 1_555 1_555
Cl1 Co1TA 1_555 1_555
N1 Co1 1_555 1_555
N2 N1 1_555 1_555
C1 C2 1_555 1_555
C2 C3 1_555 1_555
C3 H1 1_555 1_555
N3 N2 1_555 1_555
C4 N1 1_555 1_555
H2 C4 1_555 1_555
N1E N2E 1_555 1_555
N2E N3E 1_555 1_555
C1E C2E 1_555 1_555
C2E C3 1_555 1_555
C3E C2E 1_555 1_555
H1E C3E 1_555 1_555
N3E C1E 1_555 1_555
C4E N1E 1_555 1_555
H2E C4E 1_555 1_555
N1K N2K 1_555 1_555
N2K N3K 1_555 1_555
C1K C2K 1_555 1_555
C2K C3E 1_555 1_555
C3K C2 1_555 1_555
H1K C3K 1_555 1_555
N3K C1K 1_555 1_555
C4K N1K 1_555 1_555
H2K C4K 1_555 1_555
Co1E N1E 1_555 1_555
Cl1E Co1E 1_555 1_555
Co1K N1K 1_555 1_555
Cl1K Co1K 1_555 1_555
Co1GA Cl1K 1_555 1_555
N1GA Co1GA 1_555 1_555
N2GA N1GA 1_555 1_555
C1GA C2GA 1_555 1_555
C2GA C3GA 1_555 1_555
C3GA H1GA 1_555 1_555
N3GA N2GA 1_555 1_555
C4GA N1GA 1_555 1_555
H2GA C4GA 1_555 1_555
N1AA N2AA 1_555 1_555
N2AA N3AA 1_555 1_555
C1AA C2AA 1_555 1_555
C2AA C3GA 1_555 1_555
C3AA C2AA 1_555 1_555
H1AA C3AA 1_555 1_555
N3AA C1AA 1_555 1_555
C4AA N1AA 1_555 1_555
H2AA C4AA 1_555 1_555
N1BA N2BA 1_555 1_555
N2BA N3BA 1_555 1_555
C1BA C2BA 1_555 1_555
C2BA C3AA 1_555 1_555
C3BA C2GA 1_555 1_555
H1BA C3BA 1_555 1_555
N3BA C1BA 1_555 1_555
C4BA N1BA 1_555 1_555
H2BA C4BA 1_555 1_555
N1LA N2LA 1_555 1_555
N2LA N3LA 1_555 1_555
C1LA C2LA 1_555 1_555
C2LA C3LA 1_555 1_555
C3LA H1LA 1_555 1_555
N3LA C1LA 1_555 1_555
C4LA N1LA 1_555 1_555
H2LA C4LA 1_555 1_555
N1PA N2PA 1_555 1_555
N2PA N3PA 1_555 1_555
C1PA C2PA 1_555 1_555
C2PA C3LA 1_555 1_555
C3PA C2PA 1_555 1_555
H1PA C3PA 1_555 1_555
N3PA C1PA 1_555 1_555
C4PA N1PA 1_555 1_555
H2PA C4PA 1_555 1_555
N1TA N2TA 1_555 1_555
N2TA Co1 1_555 1_555
C1TA C2TA 1_555 1_555
C2TA C3PA 1_555 1_555
C3TA C2LA 1_555 1_555
H1TA C3TA 1_555 1_555
N3TA N2TA 1_555 1_555
C4TA N1TA 1_555 1_555
H2TA C4TA 1_555 1_555
Co1PA N2E 1_555 1_555
Co1TA N1TA 1_555 1_555
Co1XA Cl1 1_555 1_555
N1XA Co1XA 1_555 1_555
N2XA Co1TA 1_555 1_555
C1XA C2XA 1_555 1_555
C2XA C3XA 1_555 1_555
C3XA H1XA 1_555 1_555
N3XA N2XA 1_555 1_555
C4XA N1XA 1_555 1_555
H2XA C4XA 1_555 1_555
N1BB N2BB 1_555 1_555
N2BB N3BB 1_555 1_555
C1BB C2BB 1_555 1_555
C2BB C3XA 1_555 1_555
C3BB C2BB 1_555 1_555
H1BB C3BB 1_555 1_555
N3BB C1BB 1_555 1_555
C4BB N1BB 1_555 1_555
H2BB C4BB 1_555 1_555
N1FB N2FB 1_555 1_555
N2FB N3FB 1_555 1_555
C1FB C2FB 1_555 1_555
C2FB C3BB 1_555 1_555
C3FB C2XA 1_555 1_555
H1FB C3FB 1_555 1_555
N3FB C1FB 1_555 1_555
C4FB N1FB 1_555 1_555
H2FB C4FB 1_555 1_555
Co1BB N1BB 1_555 1_555
Co1FB N2LA 1_555 1_555
N1KB N2KB 1_555 1_555
N2KB Co1GA 1_555 1_555
C1KB C2KB 1_555 1_555
C2KB C3KB 1_555 1_555
C3KB H1KB 1_555 1_555
N3KB N2KB 1_555 1_555
C4KB N1KB 1_555 1_555
H2KB C4KB 1_555 1_555
N1LB N2LB 1_555 1_555
N2LB Co1E 1_555 1_555
C1LB C2LB 1_555 1_555
C2LB C3KB 1_555 1_555
C3LB C2LB 1_555 1_555
H1LB C3LB 1_555 1_555
N3LB N2LB 1_555 1_555
C4LB N1LB 1_555 1_555
H2LB C4LB 1_555 1_555
N1QB N2QB 1_555 1_555
N2QB N3QB 1_555 1_555
C1QB C2QB 1_555 1_555
C2QB C3LB 1_555 1_555
C3QB C2KB 1_555 1_555
H1QB C3QB 1_555 1_555
N3QB C1QB 1_555 1_555
C4QB N1QB 1_555 1_555
H2QB C4QB 1_555 1_555
N1UB N2UB 1_555 1_555
N2UB N3UB 1_555 1_555
C1UB C2UB 1_555 1_555
C2UB C3UB 1_555 1_555
C3UB H1UB 1_555 1_555
N3UB C1UB 1_555 1_555
C4UB N1UB 1_555 1_555
H2UB C4UB 1_555 1_555
N1AC N2AC 1_555 1_555
N2AC N3AC 1_555 1_555
C1AC C2AC 1_555 1_555
C2AC C3UB 1_555 1_555
C3AC C2AC 1_555 1_555
H1AC C3AC 1_555 1_555
N3AC C1AC 1_555 1_555
C4AC N1AC 1_555 1_555
H2AC C4AC 1_555 1_555
N1BC N2BC 1_555 1_555
N2BC N3BC 1_555 1_555
C1BC C2BC 1_555 1_555
C2BC C3AC 1_555 1_555
C3BC C2UB 1_555 1_555
H1BC C3BC 1_555 1_555
N3BC C1BC 1_555 1_555
C4BC N1BC 1_555 1_555
H2BC C4BC 1_555 1_555
Co1AC Cl1E 1_555 1_555
Co1BC N1BC 1_555 1_555
Co1GC Cl1K 1_555 1_555
N1GC Co1GC 1_555 1_555
N2GC Co1K 1_555 1_555
C1GC C2GC 1_555 1_555
C2GC C3GC 1_555 1_555
C3GC H1GC 1_555 1_555
N3GC N2GC 1_555 1_555
C4GC N1GC 1_555 1_555
H2GC C4GC 1_555 1_555
N1MC N2MC 1_555 1_555
N2MC N3MC 1_555 1_555
C1MC C2MC 1_555 1_555
C2MC C3GC 1_555 1_555
C3MC C2MC 1_555 1_555
H1MC C3MC 1_555 1_555
N3MC C1MC 1_555 1_555
C4MC N1MC 1_555 1_555
H2MC C4MC 1_555 1_555
N1NC N2NC 1_555 1_555
N2NC Co1XA 1_555 1_555
C1NC C2NC 1_555 1_555
C2NC C3MC 1_555 1_555
C3NC C2GC 1_555 1_555
H1NC C3NC 1_555 1_555
N3NC N2NC 1_555 1_555
C4NC N1NC 1_555 1_555
H2NC C4NC 1_555 1_555
N1L N2L 1_555 1_555
N2L Co1BC 1_555 1_555
C1L C2L 1_555 1_555
C2L C3L 1_555 1_555
C3L H1L 1_555 1_555
N3L N2L 1_555 1_555
C4L N1L 1_555 1_555
H2L C4L 1_555 1_555
N1Q N2Q 1_555 1_555
N2Q Co1BB 1_555 1_555
C1Q C2Q 1_555 1_555
C2Q C3L 1_555 1_555
C3Q C2Q 1_555 1_555
H1Q C3Q 1_555 1_555
N3Q N2Q 1_555 1_555
C4Q N1Q 1_555 1_555
H2Q C4Q 1_555 1_555
N1W N2W 1_555 1_555
N2W N3W 1_555 1_555
C1W C2W 1_555 1_555
C2W C3Q 1_555 1_555
C3W C2L 1_555 1_555
H1W C3W 1_555 1_555
N3W C1W 1_555 1_555
C4W N1W 1_555 1_555
H2W C4W 1_555 1_555
Co1L N2FB 1_555 1_555
Co1Q N2BA 1_555 1_555
Co1W N2UB 1_555 1_555
Co1AA N1AA 1_555 1_555
Co1BA N1BA 1_555 1_555
Co1LA N1LA 1_555 1_555
Co1KB N2K 1_555 1_555
Co1LB Cl1E 1_555 1_555
Co1QB N2AA 1_555 1_555
Co1UB N2QB 1_555 1_555
Co1MC N2BB 1_555 1_555
Co1NC Cl1 1_555 1_555
Cl1L Co1FB 1_555 1_555
Cl1Q Co1BB 1_555 1_555
N1TC Co1 1_555 1_555
N1YC Co1E 1_555 1_555
N1AD Co1K 1_555 1_555
N1AE Co1GA 1_555 1_555
N1FE Co1PA 1_555 1_555
N1JE Co1TA 1_555 1_555
N1NE Co1XA 1_555 1_555
N1RE Co1BB 1_555 1_555
N1VE Co1FB 1_555 1_555
N1QF Co1AC 1_555 1_555
N1VF Co1BC 1_555 1_555
N1AG Co1GC 1_555 1_555
N2YC Co1PA 1_555 1_555
N2FD Co1BC 1_555 1_555
N2KD Co1BB 1_555 1_555
N2AE Co1GC 1_555 1_555
N2BE Co1FB 1_555 1_555
N2FE Co1AC 1_555 1_555
N2JE Co1 1_555 1_555
N2NE Co1TA 1_555 1_555
N2AF Co1GA 1_555 1_555
N2FF Co1E 1_555 1_555
N2AG Co1K 1_555 1_555
N2HG Co1XA 1_555 1_555
N2 Co1NC 1_555 1_555
C1 N3 1_555 1_555
C1 C4 1_555 1_555
C1E C4E 1_555 1_555
C1K C4K 1_555 1_555
C2K C3K 1_555 1_555
Cl1E Co1PA 1_555 1_555
Cl1K Co1KB 1_555 1_555
N2GA Co1GC 1_555 1_555
C1GA N3GA 1_555 1_555
C1GA C4GA 1_555 1_555
C1AA C4AA 1_555 1_555
C1BA C4BA 1_555 1_555
C2BA C3BA 1_555 1_555
C1LA C4LA 1_555 1_555
N1PA Co1PA 1_555 1_555
N2PA Co1AC 1_555 1_555
C1PA C4PA 1_555 1_555
C1TA N3TA 1_555 1_555
C1TA C4TA 1_555 1_555
C2TA C3TA 1_555 1_555
N1XA N2XA 1_555 1_555
C1XA N3XA 1_555 1_555
C1XA C4XA 1_555 1_555
C1BB C4BB 1_555 1_555
N1FB Co1FB 1_555 1_555
C1FB C4FB 1_555 1_555
C2FB C3FB 1_555 1_555
N1KB Co1KB 1_555 1_555
C1KB N3KB 1_555 1_555
C1KB C4KB 1_555 1_555
N1LB Co1LB 1_555 1_555
C1LB N3LB 1_555 1_555
C1LB C4LB 1_555 1_555
N1QB Co1QB 1_555 1_555
C1QB C4QB 1_555 1_555
C2QB C3QB 1_555 1_555
N1UB Co1UB 1_555 1_555
C1UB C4UB 1_555 1_555
N1AC Co1AC 1_555 1_555
N2AC Co1LB 1_555 1_555
C1AC C4AC 1_555 1_555
N2BC Co1LA 1_555 1_555
C1BC C4BC 1_555 1_555
C2BC C3BC 1_555 1_555
Co1BC Cl1L 1_555 1_555
N1GC N2GC 1_555 1_555
C1GC N3GC 1_555 1_555
C1GC C4GC 1_555 1_555
N1MC Co1MC 1_555 1_555
N2MC Co1BA 1_555 1_555
C1MC C4MC 1_555 1_555
N1NC Co1NC 1_555 1_555
C1NC N3NC 1_555 1_555
C1NC C4NC 1_555 1_555
C2NC C3NC 1_555 1_555
N1L Co1L 1_555 1_555
C1L N3L 1_555 1_555
C1L C4L 1_555 1_555
N1Q Co1Q 1_555 1_555
C1Q N3Q 1_555 1_555
C1Q C4Q 1_555 1_555
N1W Co1W 1_555 1_555
N2W Co1AA 1_555 1_555
C1W C4W 1_555 1_555
C2W C3W 1_555 1_555
Co1L Cl1L 1_555 1_555
Co1Q Cl1Q 1_555 1_555
Co1BA Cl1Q 1_555 1_555
Co1LA Cl1L 1_555 1_555
Co1MC Cl1Q 1_555 1_555
N1YC N2YC 1_555 1_555
N1AE N2AE 1_555 1_555
N1FE N2FE 1_555 1_555
N1JE N2JE 1_555 1_555
N1NE N2NE 1_555 1_555
N1AG N2AG 1_555 1_555

#END
