
#######################################################################
#
#                 Cambridge Crystallographic Data Centre
#                                CCDC 
#
#######################################################################
#
# If this CIF has been generated from an entry in the Cambridge 
# Structural Database, then it will include bibliographic, chemical, 
# crystal, experimental, refinement or atomic coordinate data resulting 
# from the CCDC's data processing and validation procedures.
#
#######################################################################

data_AQOLUP
_chemical_formula_moiety         '(C96 H48 Cl3 Co12 N72 O24 3-)n'
_symmetry_cell_setting           cubic
_symmetry_space_group_name_H-M   'F m -3 c'
_symmetry_Int_Tables_number      226
_space_group_name_Hall           '-F 4a 2 3'
loop_
_symmetry_equiv_pos_site_id
_symmetry_equiv_pos_as_xyz
1 x,y,z
2 -x,-y,z
3 -x,y,-z
4 x,-y,-z
5 z,x,y
6 z,-x,-y
7 -z,-x,y
8 -z,x,-y
9 y,z,x
10 -y,z,-x
11 y,-z,-x
12 -y,-z,x
13 1/2+y,1/2+x,1/2-z
14 1/2-y,1/2-x,1/2-z
15 1/2+y,1/2-x,1/2+z
16 1/2-y,1/2+x,1/2+z
17 1/2+x,1/2+z,1/2-y
18 1/2-x,1/2+z,1/2+y
19 1/2-x,1/2-z,1/2-y
20 1/2+x,1/2-z,1/2+y
21 1/2+z,1/2+y,1/2-x
22 1/2+z,1/2-y,1/2+x
23 1/2-z,1/2+y,1/2+x
24 1/2-z,1/2-y,1/2-x
25 x,1/2+y,1/2+z
26 -x,1/2-y,1/2+z
27 -x,1/2+y,1/2-z
28 x,1/2-y,1/2-z
29 z,1/2+x,1/2+y
30 z,1/2-x,1/2-y
31 -z,1/2-x,1/2+y
32 -z,1/2+x,1/2-y
33 y,1/2+z,1/2+x
34 -y,1/2+z,1/2-x
35 y,1/2-z,1/2-x
36 -y,1/2-z,1/2+x
37 1/2+y,x,-z
38 1/2-y,-x,-z
39 1/2+y,-x,z
40 1/2-y,x,z
41 1/2+x,z,-y
42 1/2-x,z,y
43 1/2-x,-z,-y
44 1/2+x,-z,y
45 1/2+z,y,-x
46 1/2+z,-y,x
47 1/2-z,y,x
48 1/2-z,-y,-x
49 1/2+x,y,1/2+z
50 1/2-x,-y,1/2+z
51 1/2-x,y,1/2-z
52 1/2+x,-y,1/2-z
53 1/2+z,x,1/2+y
54 1/2+z,-x,1/2-y
55 1/2-z,-x,1/2+y
56 1/2-z,x,1/2-y
57 1/2+y,z,1/2+x
58 1/2-y,z,1/2-x
59 1/2+y,-z,1/2-x
60 1/2-y,-z,1/2+x
61 y,1/2+x,-z
62 -y,1/2-x,-z
63 y,1/2-x,z
64 -y,1/2+x,z
65 x,1/2+z,-y
66 -x,1/2+z,y
67 -x,1/2-z,-y
68 x,1/2-z,y
69 z,1/2+y,-x
70 z,1/2-y,x
71 -z,1/2+y,x
72 -z,1/2-y,-x
73 1/2+x,1/2+y,z
74 1/2-x,1/2-y,z
75 1/2-x,1/2+y,-z
76 1/2+x,1/2-y,-z
77 1/2+z,1/2+x,y
78 1/2+z,1/2-x,-y
79 1/2-z,1/2-x,y
80 1/2-z,1/2+x,-y
81 1/2+y,1/2+z,x
82 1/2-y,1/2+z,-x
83 1/2+y,1/2-z,-x
84 1/2-y,1/2-z,x
85 y,x,1/2-z
86 -y,-x,1/2-z
87 y,-x,1/2+z
88 -y,x,1/2+z
89 x,z,1/2-y
90 -x,z,1/2+y
91 -x,-z,1/2-y
92 x,-z,1/2+y
93 z,y,1/2-x
94 z,-y,1/2+x
95 -z,y,1/2+x
96 -z,-y,1/2-x
97 -x,-y,-z
98 x,y,-z
99 x,-y,z
100 -x,y,z
101 -z,-x,-y
102 -z,x,y
103 z,x,-y
104 z,-x,y
105 -y,-z,-x
106 y,-z,x
107 -y,z,x
108 y,z,-x
109 1/2-y,1/2-x,1/2+z
110 1/2+y,1/2+x,1/2+z
111 1/2-y,1/2+x,1/2-z
112 1/2+y,1/2-x,1/2-z
113 1/2-x,1/2-z,1/2+y
114 1/2+x,1/2-z,1/2-y
115 1/2+x,1/2+z,1/2+y
116 1/2-x,1/2+z,1/2-y
117 1/2-z,1/2-y,1/2+x
118 1/2-z,1/2+y,1/2-x
119 1/2+z,1/2-y,1/2-x
120 1/2+z,1/2+y,1/2+x
121 -x,1/2-y,1/2-z
122 x,1/2+y,1/2-z
123 x,1/2-y,1/2+z
124 -x,1/2+y,1/2+z
125 -z,1/2-x,1/2-y
126 -z,1/2+x,1/2+y
127 z,1/2+x,1/2-y
128 z,1/2-x,1/2+y
129 -y,1/2-z,1/2-x
130 y,1/2-z,1/2+x
131 -y,1/2+z,1/2+x
132 y,1/2+z,1/2-x
133 1/2-y,-x,z
134 1/2+y,x,z
135 1/2-y,x,-z
136 1/2+y,-x,-z
137 1/2-x,-z,y
138 1/2+x,-z,-y
139 1/2+x,z,y
140 1/2-x,z,-y
141 1/2-z,-y,x
142 1/2-z,y,-x
143 1/2+z,-y,-x
144 1/2+z,y,x
145 1/2-x,-y,1/2-z
146 1/2+x,y,1/2-z
147 1/2+x,-y,1/2+z
148 1/2-x,y,1/2+z
149 1/2-z,-x,1/2-y
150 1/2-z,x,1/2+y
151 1/2+z,x,1/2-y
152 1/2+z,-x,1/2+y
153 1/2-y,-z,1/2-x
154 1/2+y,-z,1/2+x
155 1/2-y,z,1/2+x
156 1/2+y,z,1/2-x
157 -y,1/2-x,z
158 y,1/2+x,z
159 -y,1/2+x,-z
160 y,1/2-x,-z
161 -x,1/2-z,y
162 x,1/2-z,-y
163 x,1/2+z,y
164 -x,1/2+z,-y
165 -z,1/2-y,x
166 -z,1/2+y,-x
167 z,1/2-y,-x
168 z,1/2+y,x
169 1/2-x,1/2-y,-z
170 1/2+x,1/2+y,-z
171 1/2+x,1/2-y,z
172 1/2-x,1/2+y,z
173 1/2-z,1/2-x,-y
174 1/2-z,1/2+x,y
175 1/2+z,1/2+x,-y
176 1/2+z,1/2-x,y
177 1/2-y,1/2-z,-x
178 1/2+y,1/2-z,x
179 1/2-y,1/2+z,x
180 1/2+y,1/2+z,-x
181 -y,-x,1/2+z
182 y,x,1/2+z
183 -y,x,1/2-z
184 y,-x,1/2-z
185 -x,-z,1/2+y
186 x,-z,1/2-y
187 x,z,1/2+y
188 -x,z,1/2-y
189 -z,-y,1/2+x
190 -z,y,1/2-x
191 z,-y,1/2-x
192 z,y,1/2+x
_cell_length_a                   37.0728(12)
_cell_length_b                   37.0728(12)
_cell_length_c                   37.0728(12)
_cell_angle_alpha                90
_cell_angle_beta                 90
_cell_angle_gamma                90
_cell_volume                     50952.6
loop_
_atom_site_label
_atom_site_type_symbol
_atom_site_fract_x
_atom_site_fract_y
_atom_site_fract_z
Co1 Co 0.68434(2) 0.75298(2) 0.5000
Cl1 Cl 0.7500 0.7500 0.5000
N1 N 0.68459(7) 0.71542(8) 0.46313(7)
O1 O 0.63129(16) 0.75705(16) 0.5000
N2 N 0.68866(7) 0.79089(8) 0.46315(7)
C1 C 0.66340(9) 0.70942(10) 0.43473(9)
O2 O 0.6128(4) 0.7312(4) 0.5000
N3 N 0.66673(8) 0.79631(8) 0.43549(7)
C2 C 0.67517(9) 0.67990(10) 0.41721(9)
H1 H 0.6432 0.7237 0.4279
C3 C 0.66050(9) 0.66281(9) 0.38449(9)
C4 C 0.67679(9) 0.63223(9) 0.37005(9)
H2 H 0.6978 0.6226 0.3812
N1SC N 0.68459(7) 0.71542(8) 0.53687(7)
N2SC N 0.68866(7) 0.79089(8) 0.53685(7)
Co1MA Co 0.74702(2) 0.68434(2) 0.5000
Co1JB Co 0.75298(2) 0.81566(2) 0.5000
Co1UB Co 0.81566(2) 0.74702(2) 0.5000
N2MA N 0.70911(8) 0.68866(7) 0.46315(7)
N1JB N 0.71542(8) 0.81541(7) 0.46313(7)
N2DE N 0.70911(8) 0.68866(7) 0.53685(7)
N1CF N 0.71542(8) 0.81541(7) 0.53687(7)
N1MA N 0.78458(8) 0.68459(7) 0.46313(7)
O1MA O 0.74295(16) 0.63129(16) 0.5000
N1DE N 0.78458(8) 0.68459(7) 0.53687(7)
O1JB O 0.75705(16) 0.86871(16) 0.5000
N2JB N 0.79089(8) 0.81134(7) 0.46315(7)
N2CF N 0.79089(8) 0.81134(7) 0.53685(7)
N2UB N 0.81134(7) 0.70911(8) 0.46315(7)
N1UB N 0.81541(7) 0.78458(8) 0.46313(7)
O1UB O 0.86871(16) 0.74295(16) 0.5000
N1LF N 0.81541(7) 0.78458(8) 0.53687(7)
N2LF N 0.81134(7) 0.70911(8) 0.53685(7)
N3MA N 0.70369(8) 0.66673(8) 0.43549(7)
C1JB C 0.70942(10) 0.83660(9) 0.43473(9)
C2JB C 0.67990(10) 0.82483(9) 0.41721(9)
C1MA C 0.79058(10) 0.66340(9) 0.43473(9)
O2MA O 0.7688(4) 0.6128(4) 0.5000
O2JB O 0.7312(4) 0.8872(4) 0.5000
N3JB N 0.79631(8) 0.83327(8) 0.43549(7)
N3UB N 0.83327(8) 0.70369(8) 0.43549(7)
C1UB C 0.83660(9) 0.79058(10) 0.43473(9)
O2UB O 0.8872(4) 0.7688(4) 0.5000
H1JB H 0.7237 0.8568 0.4279
C3JB C 0.66281(9) 0.83950(9) 0.38449(9)
C2MA C 0.82010(10) 0.67517(9) 0.41721(9)
H1MA H 0.7763 0.6432 0.4279
C2UB C 0.82483(9) 0.82010(10) 0.41721(9)
H1UB H 0.8568 0.7763 0.4279
C4G C 0.62995(9) 0.67679(9) 0.36777(9)
C4JB C 0.63223(9) 0.82321(9) 0.37005(9)
C4LB C 0.67679(9) 0.87005(9) 0.36777(9)
C3MA C 0.83719(9) 0.66050(9) 0.38449(9)
C3UB C 0.83950(9) 0.83719(9) 0.38449(9)
C3J C 0.66281(9) 0.61551(9) 0.33950(9)
C3G C 0.61551(9) 0.66050(9) 0.33719(9)
H2G H 0.6188 0.6978 0.3774
H2JB H 0.6226 0.8022 0.3812
C3SB C 0.61551(9) 0.83719(9) 0.33950(9)
C3LB C 0.66050(9) 0.88449(9) 0.33719(9)
H2LB H 0.6978 0.8812 0.3774
C4MA C 0.86777(9) 0.67679(9) 0.37005(9)
C4PA C 0.82321(9) 0.62995(9) 0.36777(9)
C4UB C 0.82321(9) 0.86777(9) 0.37005(9)
C4YB C 0.87005(9) 0.82321(9) 0.36777(9)
C2J C 0.67990(10) 0.58279(9) 0.32483(9)
C4J C 0.63223(9) 0.62995(9) 0.32321(9)
C2G C 0.58279(9) 0.67517(9) 0.32010(10)
C2SB C 0.58279(9) 0.82010(10) 0.32483(9)
C4SB C 0.62995(9) 0.86777(9) 0.32321(9)
C2LB C 0.67517(9) 0.91721(9) 0.32010(10)
H2MA H 0.8774 0.6978 0.3812
C3RA C 0.88449(9) 0.66281(9) 0.33950(9)
C3PA C 0.83950(9) 0.61551(9) 0.33719(9)
H2PA H 0.8022 0.6188 0.3774
H2UB H 0.8022 0.8774 0.3812
C3CC C 0.83719(9) 0.88449(9) 0.33950(9)
C3YB C 0.88449(9) 0.83950(9) 0.33719(9)
H2YB H 0.8812 0.8022 0.3774
N3MC N 0.66673(8) 0.56451(7) 0.29631(8)
C1J C 0.70942(10) 0.56527(9) 0.33660(9)
H2J H 0.6226 0.6188 0.3022
N3SB N 0.56451(7) 0.70369(8) 0.33327(8)
C1G C 0.56527(9) 0.66340(9) 0.29058(10)
N3DA N 0.56451(7) 0.83327(8) 0.29631(8)
C1SB C 0.56527(9) 0.79058(10) 0.33660(9)
H2SB H 0.6188 0.8774 0.3022
N3CC N 0.70369(8) 0.93549(7) 0.33327(8)
C1LB C 0.66340(9) 0.93473(9) 0.29058(10)
C2RA C 0.91721(9) 0.67990(10) 0.32483(9)
C4RA C 0.87005(9) 0.63223(9) 0.32321(9)
C2PA C 0.82483(9) 0.58279(9) 0.32010(10)
C2CC C 0.82010(10) 0.91721(9) 0.32483(9)
C4CC C 0.86777(9) 0.87005(9) 0.32321(9)
C2YB C 0.91721(9) 0.82483(9) 0.32010(10)
N2MC N 0.68866(7) 0.53685(7) 0.29089(8)
N1J N 0.71542(8) 0.53687(7) 0.31541(7)
H1J H 0.7237 0.5721 0.3568
N2SB N 0.53685(7) 0.70911(8) 0.31134(7)
N1G N 0.53687(7) 0.68459(7) 0.28458(8)
H1G H 0.5721 0.6432 0.2763
N2DA N 0.53685(7) 0.81134(7) 0.29089(8)
N1SB N 0.53687(7) 0.78458(8) 0.31541(7)
H1SB H 0.5721 0.7763 0.3568
N2CC N 0.70911(8) 0.96315(7) 0.31134(7)
N1LB N 0.68459(7) 0.96313(7) 0.28458(8)
H1LB H 0.6432 0.9279 0.2763
N3ZA N 0.93549(7) 0.66673(8) 0.29631(8)
C1RA C 0.93473(9) 0.70942(10) 0.33660(9)
H2RA H 0.8812 0.6226 0.3022
N3J N 0.79631(8) 0.56451(7) 0.33327(8)
C1PA C 0.83660(9) 0.56527(9) 0.29058(10)
N3Q N 0.83327(8) 0.93549(7) 0.29631(8)
C1CC C 0.79058(10) 0.93473(9) 0.33660(9)
H2CC H 0.8774 0.8812 0.3022
N3RA N 0.93549(7) 0.79631(8) 0.33327(8)
C1YB C 0.93473(9) 0.83660(9) 0.29058(10)
Co1MC Co 0.68434(2) 0.5000 0.25298(2)
Co1J Co 0.75298(2) 0.5000 0.31566(2)
Co1SB Co 0.5000 0.74702(2) 0.31566(2)
Co1G Co 0.5000 0.68434(2) 0.24702(2)
Co1DA Co 0.5000 0.81566(2) 0.25298(2)
Co1CC Co 0.74702(2) 1.0000 0.31566(2)
Co1LB Co 0.68434(2) 1.0000 0.24702(2)
N2ZA N 0.96315(7) 0.68866(7) 0.29089(8)
N1RA N 0.96313(7) 0.71542(8) 0.31541(7)
H1RA H 0.9279 0.7237 0.3568
N2J N 0.79089(8) 0.53685(7) 0.31134(7)
N1PA N 0.81541(7) 0.53687(7) 0.28458(8)
H1PA H 0.8568 0.5721 0.2763
N2Q N 0.81134(7) 0.96315(7) 0.29089(8)
N1CC N 0.78458(8) 0.96313(7) 0.31541(7)
H1CC H 0.7763 0.9279 0.3568
N2RA N 0.96315(7) 0.79089(8) 0.31134(7)
N1YB N 0.96313(7) 0.81541(7) 0.28458(8)
H1YB H 0.9279 0.8568 0.2763
Cl1J Cl 0.7500 0.5000 0.2500
N1MC N 0.68459(7) 0.53687(7) 0.21542(8)
O1J O 0.75705(16) 0.5000 0.36871(16)
N1CD N 0.71542(8) 0.46313(7) 0.31541(7)
N2CD N 0.79089(8) 0.46315(7) 0.31134(7)
Cl1G Cl 0.5000 0.7500 0.2500
O1SB O 0.5000 0.74295(16) 0.36871(16)
N1JF N 0.46313(7) 0.78458(8) 0.31541(7)
N2JF N 0.46315(7) 0.70911(8) 0.31134(7)
O1G O 0.5000 0.63129(16) 0.24295(16)
N2G N 0.53685(7) 0.68866(7) 0.20911(8)
N1XC N 0.46313(7) 0.68459(7) 0.28458(8)
N2XC N 0.46315(7) 0.68866(7) 0.20911(8)
N1DA N 0.53687(7) 0.81541(7) 0.21542(8)
O1DA O 0.5000 0.86871(16) 0.25705(16)
N1WD N 0.46313(7) 0.81541(7) 0.21542(8)
N2WD N 0.46315(7) 0.81134(7) 0.29089(8)
Cl1Q Cl 0.7500 1.0000 0.2500
N2LB N 0.68866(7) 0.96315(7) 0.20911(8)
Co1ZA Co 1.0000 0.68434(2) 0.25298(2)
Co1RA Co 1.0000 0.75298(2) 0.31566(2)
Co1PA Co 0.81566(2) 0.5000 0.24702(2)
Co1Q Co 0.81566(2) 1.0000 0.25298(2)
Co1YB Co 1.0000 0.81566(2) 0.24702(2)
Co1GB Co 0.74702(2) 0.5000 0.18434(2)
N2GB N 0.70911(8) 0.53685(7) 0.18866(7)
C1MC C 0.66340(9) 0.56527(9) 0.20942(10)
N2XE N 0.70911(8) 0.46315(7) 0.18866(7)
O2J O 0.7312(4) 0.5000 0.3872(4)
N1IE N 0.81541(7) 0.46313(7) 0.28458(8)
Co1PC Co 0.5000 0.75298(2) 0.18434(2)
O2SB O 0.5000 0.7688(4) 0.3872(4)
O2G O 0.5000 0.6128(4) 0.2688(4)
N1PC N 0.53687(7) 0.71542(8) 0.18459(7)
N3G N 0.56451(7) 0.66673(8) 0.20369(8)
N2PC N 0.53685(7) 0.79089(8) 0.18866(7)
C1DA C 0.56527(9) 0.83660(9) 0.20942(10)
O2DA O 0.5000 0.8872(4) 0.2312(4)
Co1FA Co 0.75298(2) 1.0000 0.18434(2)
N1FA N 0.71542(8) 0.96313(7) 0.18459(7)
N3LB N 0.66673(8) 0.93549(7) 0.20369(8)
N1YD N 0.71542(8) 1.03687(7) 0.18459(7)
N1ZA N 0.96313(7) 0.68459(7) 0.21542(8)
O1ZA O 1.0000 0.63129(16) 0.25705(16)
Cl1U Cl 1.0000 0.7500 0.2500
N1SE N 1.03687(7) 0.68459(7) 0.21542(8)
N2SE N 1.03685(7) 0.68866(7) 0.29089(8)
O1PA O 0.86871(16) 0.5000 0.24295(16)
N2PA N 0.81134(7) 0.53685(7) 0.20911(8)
N2IE N 0.81134(7) 0.46315(7) 0.20911(8)
N1Q N 0.81541(7) 0.96313(7) 0.21542(8)
N2YB N 0.96315(7) 0.81134(7) 0.20911(8)
N1GB N 0.78458(8) 0.53687(7) 0.18459(7)
O1GB O 0.74295(16) 0.5000 0.13129(16)
N1XE N 0.78458(8) 0.46313(7) 0.18459(7)
N3GB N 0.70369(8) 0.56451(7) 0.16673(8)
C2MC C 0.67517(9) 0.58279(9) 0.17990(10)
H1MC H 0.6432 0.5721 0.2237
C1PC C 0.56527(9) 0.70942(10) 0.16340(9)
C2PC C 0.58279(9) 0.67990(10) 0.17517(9)
N3PC N 0.56451(7) 0.79631(8) 0.16673(8)
C2DA C 0.58279(9) 0.82483(9) 0.17990(10)
H1DA H 0.5721 0.8568 0.2237
O1FA O 0.75705(16) 1.0000 0.13129(16)
N2FA N 0.79089(8) 0.96315(7) 0.18866(7)
N2YD N 0.79089(8) 1.03685(7) 0.18866(7)
C1FA C 0.70942(10) 0.93473(9) 0.16340(9)
C2FA C 0.67990(10) 0.91721(9) 0.17517(9)
N2U N 0.96315(7) 0.70911(8) 0.18866(7)
C1ZA C 0.93473(9) 0.66340(9) 0.20942(10)
O2ZA O 1.0000 0.6128(4) 0.2312(4)
Co1U Co 1.0000 0.74702(2) 0.18434(2)
O2PA O 0.8872(4) 0.5000 0.2688(4)
N3PA N 0.83327(8) 0.56451(7) 0.20369(8)
C1Q C 0.83660(9) 0.93473(9) 0.20942(10)
N1U N 0.96313(7) 0.78458(8) 0.18459(7)
N3YB N 0.93549(7) 0.83327(8) 0.20369(8)
C1GB C 0.79058(10) 0.56527(9) 0.16340(9)
O2GB O 0.7688(4) 0.5000 0.1128(4)
C3MC C 0.66050(9) 0.61551(9) 0.16281(9)
H1PC H 0.5721 0.7237 0.1432
C3PC C 0.61551(9) 0.66281(9) 0.16050(9)
C3DA C 0.61551(9) 0.83950(9) 0.16281(9)
O2FA O 0.7312(4) 1.0000 0.1128(4)
N3FA N 0.79631(8) 0.93549(7) 0.16673(8)
H1FA H 0.7237 0.9279 0.1432
C3FA C 0.66281(9) 0.88449(9) 0.16050(9)
N3U N 0.93549(7) 0.70369(8) 0.16673(8)
C2ZA C 0.91721(9) 0.67517(9) 0.17990(10)
H1ZA H 0.9279 0.6432 0.2237
C2GB C 0.82010(10) 0.58279(9) 0.17517(9)
C2Q C 0.82483(9) 0.91721(9) 0.17990(10)
H1Q H 0.8568 0.9279 0.2237
C1U C 0.93473(9) 0.79058(10) 0.16340(9)
C2U C 0.91721(9) 0.82010(10) 0.17517(9)
H1GB H 0.7763 0.5721 0.1432
C4MC C 0.67679(9) 0.62995(9) 0.13223(9)
C4PC C 0.62995(9) 0.63223(9) 0.17679(9)
C4FC C 0.63223(9) 0.67679(9) 0.12995(9)
C4DA C 0.62995(9) 0.82321(9) 0.13223(9)
C4FA C 0.63223(9) 0.87005(9) 0.17679(9)
C4AA C 0.67679(9) 0.86777(9) 0.12995(9)
C3ZA C 0.88449(9) 0.66050(9) 0.16281(9)
C3GB C 0.83719(9) 0.61551(9) 0.16050(9)
C3Q C 0.83950(9) 0.88449(9) 0.16281(9)
H1U H 0.9279 0.7763 0.1432
C3U C 0.88449(9) 0.83719(9) 0.16050(9)
C3FC C 0.66281(9) 0.66050(9) 0.11551(9)
H2MC H 0.6978 0.6188 0.1226
H2PC H 0.6188 0.6226 0.1978
H2FC H 0.6226 0.6978 0.1188
H2DA H 0.6188 0.8022 0.1226
C3AA C 0.66050(9) 0.83719(9) 0.11551(9)
H2FA H 0.6226 0.8812 0.1978
H2AA H 0.6978 0.8774 0.1188
C4ZA C 0.87005(9) 0.67679(9) 0.13223(9)
C4GB C 0.86777(9) 0.62995(9) 0.17679(9)
C4XA C 0.82321(9) 0.63223(9) 0.12995(9)
C4Q C 0.82321(9) 0.87005(9) 0.13223(9)
C4U C 0.87005(9) 0.86777(9) 0.17679(9)
C4M C 0.86777(9) 0.82321(9) 0.12995(9)
C2FC C 0.67990(10) 0.67517(9) 0.08279(9)
C2AA C 0.67517(9) 0.82010(10) 0.08279(9)
C3XA C 0.83950(9) 0.66281(9) 0.11551(9)
H2ZA H 0.8812 0.6978 0.1226
H2GB H 0.8774 0.6188 0.1978
H2XA H 0.8022 0.6226 0.1188
C3M C 0.83719(9) 0.83950(9) 0.11551(9)
H2Q H 0.8022 0.8812 0.1226
H2U H 0.8812 0.8774 0.1978
H2M H 0.8774 0.8022 0.1188
N3AA N 0.66673(8) 0.70369(8) 0.06451(7)
C1FC C 0.70942(10) 0.66340(9) 0.06527(9)
N3M N 0.70369(8) 0.83327(8) 0.06451(7)
C1AA C 0.66340(9) 0.79058(10) 0.06527(9)
C2XA C 0.82483(9) 0.67990(10) 0.08279(9)
C2M C 0.82010(10) 0.82483(9) 0.08279(9)
N2AA N 0.68866(7) 0.70911(8) 0.03685(7)
N1FC N 0.71542(8) 0.68459(7) 0.03687(7)
H1FC H 0.7237 0.6432 0.0721
N2M N 0.70911(8) 0.81134(7) 0.03685(7)
N1AA N 0.68459(7) 0.78458(8) 0.03687(7)
H1AA H 0.6432 0.7763 0.0721
N3FC N 0.79631(8) 0.66673(8) 0.06451(7)
C1XA C 0.83660(9) 0.70942(10) 0.06527(9)
N3XA N 0.83327(8) 0.79631(8) 0.06451(7)
C1M C 0.79058(10) 0.83660(9) 0.06527(9)
Co1AA Co 0.68434(2) 0.74702(2) 0.0000
Co1FC Co 0.75298(2) 0.68434(2) 0.0000
Co1M Co 0.74702(2) 0.81566(2) 0.0000
N2FC N 0.79089(8) 0.68866(7) 0.03685(7)
N1XA N 0.81541(7) 0.71542(8) 0.03687(7)
H1XA H 0.8568 0.7237 0.0721
N2XA N 0.81134(7) 0.79089(8) 0.03685(7)
N1M N 0.78458(8) 0.81541(7) 0.03687(7)
H1M H 0.7763 0.8568 0.0721
Co1XA Co 0.81566(2) 0.75298(2) 0.0000
loop_
_geom_bond_atom_site_label_1
_geom_bond_atom_site_label_2
_geom_bond_site_symmetry_1
_geom_bond_site_symmetry_2
Co1 Cl1 1_555 1_555
Cl1 Co1MA 1_555 1_555
N1 Co1 1_555 1_555
O1 Co1 1_555 1_555
N2 Co1 1_555 1_555
C1 N1 1_555 1_555
O2 O1 1_555 1_555
N3 N2 1_555 1_555
C2 C1 1_555 1_555
H1 C1 1_555 1_555
C3 C2 1_555 1_555
C4 C3 1_555 1_555
H2 C4 1_555 1_555
N1SC Co1 1_555 1_555
N2SC Co1 1_555 1_555
Co1MA N2MA 1_555 1_555
Co1JB Cl1 1_555 1_555
Co1UB Cl1 1_555 1_555
N2MA N1 1_555 1_555
N1JB N2 1_555 1_555
N2DE N1SC 1_555 1_555
N1CF N2SC 1_555 1_555
N1MA Co1MA 1_555 1_555
O1MA Co1MA 1_555 1_555
N1DE Co1MA 1_555 1_555
O1JB Co1JB 1_555 1_555
N2JB Co1JB 1_555 1_555
N2CF Co1JB 1_555 1_555
N2UB Co1UB 1_555 1_555
N1UB Co1UB 1_555 1_555
O1UB Co1UB 1_555 1_555
N1LF Co1UB 1_555 1_555
N2LF Co1UB 1_555 1_555
N3MA C2 1_555 1_555
C1JB N1JB 1_555 1_555
C2JB N3 1_555 1_555
C1MA N1MA 1_555 1_555
O2MA O1MA 1_555 1_555
O2JB O1JB 1_555 1_555
N3JB N2JB 1_555 1_555
N3UB N2UB 1_555 1_555
C1UB N1UB 1_555 1_555
O2UB O1UB 1_555 1_555
H1JB C1JB 1_555 1_555
C3JB C2JB 1_555 1_555
C2MA C1MA 1_555 1_555
H1MA C1MA 1_555 1_555
C2UB N3JB 1_555 1_555
H1UB C1UB 1_555 1_555
C4G C3 1_555 1_555
C4JB C3JB 1_555 1_555
C4LB C3JB 1_555 1_555
C3MA C2MA 1_555 1_555
C3UB C2UB 1_555 1_555
C3J C4 1_555 1_555
C3G C4G 1_555 1_555
H2G C4G 1_555 1_555
H2JB C4JB 1_555 1_555
C3SB C4JB 1_555 1_555
C3LB C4LB 1_555 1_555
H2LB C4LB 1_555 1_555
C4MA C3MA 1_555 1_555
C4PA C3MA 1_555 1_555
C4UB C3UB 1_555 1_555
C4YB C3UB 1_555 1_555
C2J C3J 1_555 1_555
C4J C3J 1_555 1_555
C2G C3G 1_555 1_555
C2SB C3SB 1_555 1_555
C4SB C3SB 1_555 1_555
C2LB C3LB 1_555 1_555
H2MA C4MA 1_555 1_555
C3RA C4MA 1_555 1_555
C3PA C4PA 1_555 1_555
H2PA C4PA 1_555 1_555
H2UB C4UB 1_555 1_555
C3CC C4UB 1_555 1_555
C3YB C4YB 1_555 1_555
H2YB C4YB 1_555 1_555
N3MC C2J 1_555 1_555
C1J C2J 1_555 1_555
H2J C4J 1_555 1_555
N3SB C2G 1_555 1_555
C1G C2G 1_555 1_555
N3DA C2SB 1_555 1_555
C1SB C2SB 1_555 1_555
H2SB C4SB 1_555 1_555
N3CC C2LB 1_555 1_555
C1LB C2LB 1_555 1_555
C2RA C3RA 1_555 1_555
C4RA C3RA 1_555 1_555
C2PA C3PA 1_555 1_555
C2CC C3CC 1_555 1_555
C4CC C3CC 1_555 1_555
C2YB C3YB 1_555 1_555
N2MC N3MC 1_555 1_555
N1J C1J 1_555 1_555
H1J C1J 1_555 1_555
N2SB N3SB 1_555 1_555
N1G C1G 1_555 1_555
H1G C1G 1_555 1_555
N2DA N3DA 1_555 1_555
N1SB C1SB 1_555 1_555
H1SB C1SB 1_555 1_555
N2CC N3CC 1_555 1_555
N1LB C1LB 1_555 1_555
H1LB C1LB 1_555 1_555
N3ZA C2RA 1_555 1_555
C1RA C2RA 1_555 1_555
H2RA C4RA 1_555 1_555
N3J C2PA 1_555 1_555
C1PA C2PA 1_555 1_555
N3Q C2CC 1_555 1_555
C1CC C2CC 1_555 1_555
H2CC C4CC 1_555 1_555
N3RA C2YB 1_555 1_555
C1YB C2YB 1_555 1_555
Co1MC N2MC 1_555 1_555
Co1J N1J 1_555 1_555
Co1SB N2SB 1_555 1_555
Co1G N1G 1_555 1_555
Co1DA N2DA 1_555 1_555
Co1CC N2CC 1_555 1_555
Co1LB N1LB 1_555 1_555
N2ZA N3ZA 1_555 1_555
N1RA C1RA 1_555 1_555
H1RA C1RA 1_555 1_555
N2J N3J 1_555 1_555
N1PA C1PA 1_555 1_555
H1PA C1PA 1_555 1_555
N2Q N3Q 1_555 1_555
N1CC C1CC 1_555 1_555
H1CC C1CC 1_555 1_555
N2RA N3RA 1_555 1_555
N1YB C1YB 1_555 1_555
H1YB C1YB 1_555 1_555
Cl1J Co1MC 1_555 1_555
N1MC Co1MC 1_555 1_555
O1J Co1J 1_555 1_555
N1CD Co1J 1_555 1_555
N2CD Co1J 1_555 1_555
Cl1G Co1SB 1_555 1_555
O1SB Co1SB 1_555 1_555
N1JF Co1SB 1_555 1_555
N2JF Co1SB 1_555 1_555
O1G Co1G 1_555 1_555
N2G Co1G 1_555 1_555
N1XC Co1G 1_555 1_555
N2XC Co1G 1_555 1_555
N1DA Co1DA 1_555 1_555
O1DA Co1DA 1_555 1_555
N1WD Co1DA 1_555 1_555
N2WD Co1DA 1_555 1_555
Cl1Q Co1CC 1_555 1_555
N2LB Co1LB 1_555 1_555
Co1ZA N2ZA 1_555 1_555
Co1RA N1RA 1_555 1_555
Co1PA N1PA 1_555 1_555
Co1Q N2Q 1_555 1_555
Co1YB N1YB 1_555 1_555
Co1GB Cl1J 1_555 1_555
N2GB N1MC 1_555 1_555
C1MC N1MC 1_555 1_555
N2XE Co1GB 1_555 1_555
O2J O1J 1_555 1_555
N1IE N2CD 1_555 1_555
Co1PC Cl1G 1_555 1_555
O2SB O1SB 1_555 1_555
O2G O1G 1_555 1_555
N1PC N2G 1_555 1_555
N3G N2G 1_555 1_555
N2PC N1DA 1_555 1_555
C1DA N1DA 1_555 1_555
O2DA O1DA 1_555 1_555
Co1FA Cl1Q 1_555 1_555
N1FA N2LB 1_555 1_555
N3LB N2LB 1_555 1_555
N1YD Co1FA 1_555 1_555
N1ZA Co1ZA 1_555 1_555
O1ZA Co1ZA 1_555 1_555
Cl1U Co1ZA 1_555 1_555
N1SE Co1ZA 1_555 1_555
N2SE Co1ZA 1_555 1_555
O1PA Co1PA 1_555 1_555
N2PA Co1PA 1_555 1_555
N2IE Co1PA 1_555 1_555
N1Q Co1Q 1_555 1_555
N2YB Co1YB 1_555 1_555
N1GB Co1GB 1_555 1_555
O1GB Co1GB 1_555 1_555
N1XE Co1GB 1_555 1_555
N3GB N2GB 1_555 1_555
C2MC C1MC 1_555 1_555
H1MC C1MC 1_555 1_555
C1PC N1PC 1_555 1_555
C2PC N3G 1_555 1_555
N3PC N2PC 1_555 1_555
C2DA C1DA 1_555 1_555
H1DA C1DA 1_555 1_555
O1FA Co1FA 1_555 1_555
N2FA Co1FA 1_555 1_555
N2YD Co1FA 1_555 1_555
C1FA N1FA 1_555 1_555
C2FA N3LB 1_555 1_555
N2U N1ZA 1_555 1_555
C1ZA N1ZA 1_555 1_555
O2ZA O1ZA 1_555 1_555
Co1U Cl1U 1_555 1_555
O2PA O1PA 1_555 1_555
N3PA N2PA 1_555 1_555
C1Q N1Q 1_555 1_555
N1U N2YB 1_555 1_555
N3YB N2YB 1_555 1_555
C1GB N1GB 1_555 1_555
O2GB O1GB 1_555 1_555
C3MC C2MC 1_555 1_555
H1PC C1PC 1_555 1_555
C3PC C2PC 1_555 1_555
C3DA C2DA 1_555 1_555
O2FA O1FA 1_555 1_555
N3FA N2FA 1_555 1_555
H1FA C1FA 1_555 1_555
C3FA C2FA 1_555 1_555
N3U N2U 1_555 1_555
C2ZA C1ZA 1_555 1_555
H1ZA C1ZA 1_555 1_555
C2GB N3PA 1_555 1_555
C2Q C1Q 1_555 1_555
H1Q C1Q 1_555 1_555
C1U N1U 1_555 1_555
C2U N3YB 1_555 1_555
H1GB C1GB 1_555 1_555
C4MC C3MC 1_555 1_555
C4PC C3MC 1_555 1_555
C4FC C3PC 1_555 1_555
C4DA C3DA 1_555 1_555
C4FA C3DA 1_555 1_555
C4AA C3FA 1_555 1_555
C3ZA C2ZA 1_555 1_555
C3GB C2GB 1_555 1_555
C3Q C2Q 1_555 1_555
H1U C1U 1_555 1_555
C3U C2U 1_555 1_555
C3FC C4MC 1_555 1_555
H2MC C4MC 1_555 1_555
H2PC C4PC 1_555 1_555
H2FC C4FC 1_555 1_555
H2DA C4DA 1_555 1_555
C3AA C4DA 1_555 1_555
H2FA C4FA 1_555 1_555
H2AA C4AA 1_555 1_555
C4ZA C3ZA 1_555 1_555
C4GB C3ZA 1_555 1_555
C4XA C3GB 1_555 1_555
C4Q C3Q 1_555 1_555
C4U C3Q 1_555 1_555
C4M C3U 1_555 1_555
C2FC C3FC 1_555 1_555
C2AA C3AA 1_555 1_555
C3XA C4ZA 1_555 1_555
H2ZA C4ZA 1_555 1_555
H2GB C4GB 1_555 1_555
H2XA C4XA 1_555 1_555
C3M C4Q 1_555 1_555
H2Q C4Q 1_555 1_555
H2U C4U 1_555 1_555
H2M C4M 1_555 1_555
N3AA C2FC 1_555 1_555
C1FC C2FC 1_555 1_555
N3M C2AA 1_555 1_555
C1AA C2AA 1_555 1_555
C2XA C3XA 1_555 1_555
C2M C3M 1_555 1_555
N2AA N3AA 1_555 1_555
N1FC C1FC 1_555 1_555
H1FC C1FC 1_555 1_555
N2M N3M 1_555 1_555
N1AA C1AA 1_555 1_555
H1AA C1AA 1_555 1_555
N3FC C2XA 1_555 1_555
C1XA C2XA 1_555 1_555
N3XA C2M 1_555 1_555
C1M C2M 1_555 1_555
Co1AA N2AA 1_555 1_555
Co1FC N1FC 1_555 1_555
Co1M N2M 1_555 1_555
N2FC N3FC 1_555 1_555
N1XA C1XA 1_555 1_555
H1XA C1XA 1_555 1_555
N2XA N3XA 1_555 1_555
N1M C1M 1_555 1_555
H1M C1M 1_555 1_555
Co1XA N1XA 1_555 1_555
Co1MA N2DE 1_555 1_555
Co1JB N1JB 1_555 1_555
Co1JB N1CF 1_555 1_555
N2MA N3MA 1_555 1_555
N1MA N2UB 1_555 1_555
N1DE N2LF 1_555 1_555
N2JB N1UB 1_555 1_555
N2CF N1LF 1_555 1_555
C1JB C2JB 1_555 1_555
N3UB C2MA 1_555 1_555
C1UB C2UB 1_555 1_555
C3G C4J 1_555 1_555
C3LB C4SB 1_555 1_555
C3PA C4RA 1_555 1_555
C3YB C4CC 1_555 1_555
N2MC N1J 1_555 1_555
N2SB N1G 1_555 1_555
N2DA N1SB 1_555 1_555
N1SB Co1SB 1_555 1_555
N2CC N1LB 1_555 1_555
Co1J N2J 1_555 1_555
Co1J Cl1J 1_555 1_555
Co1G Cl1G 1_555 1_555
Co1DA Cl1G 1_555 1_555
Co1CC N1CC 1_555 1_555
Co1LB Cl1Q 1_555 1_555
N2ZA N1RA 1_555 1_555
N2J N1PA 1_555 1_555
N2Q N1CC 1_555 1_555
N2RA N1YB 1_555 1_555
N2RA Co1RA 1_555 1_555
Cl1J Co1PA 1_555 1_555
N1JF N2WD 1_555 1_555
N2JF N1XC 1_555 1_555
Cl1Q Co1Q 1_555 1_555
Co1RA Cl1U 1_555 1_555
Co1PA N1IE 1_555 1_555
Co1YB Cl1U 1_555 1_555
Co1GB N2GB 1_555 1_555
Co1PC N1PC 1_555 1_555
Co1PC N2PC 1_555 1_555
Co1FA N1FA 1_555 1_555
N2PA N1GB 1_555 1_555
N2IE N1XE 1_555 1_555
N1Q N2FA 1_555 1_555
N3GB C2MC 1_555 1_555
C1PC C2PC 1_555 1_555
N3PC C2DA 1_555 1_555
C1FA C2FA 1_555 1_555
N2U Co1U 1_555 1_555
Co1U N1U 1_555 1_555
C1GB C2GB 1_555 1_555
C3PC C4PC 1_555 1_555
N3FA C2Q 1_555 1_555
C3FA C4FA 1_555 1_555
N3U C2ZA 1_555 1_555
C1U C2U 1_555 1_555
C4FC C3FC 1_555 1_555
C4AA C3AA 1_555 1_555
C3GB C4GB 1_555 1_555
C3U C4U 1_555 1_555
C4XA C3XA 1_555 1_555
C4M C3M 1_555 1_555
N2AA N1FC 1_555 1_555
N2M N1AA 1_555 1_555
N1AA Co1AA 1_555 1_555
Co1FC N2FC 1_555 1_555
Co1M N1M 1_555 1_555
N2FC N1XA 1_555 1_555
N2XA N1M 1_555 1_555
N2XA Co1XA 1_555 1_555

#END
