
#######################################################################
#
#                 Cambridge Crystallographic Data Centre
#                                CCDC 
#
#######################################################################
#
# If this CIF has been generated from an entry in the Cambridge 
# Structural Database, then it will include bibliographic, chemical, 
# crystal, experimental, refinement or atomic coordinate data resulting 
# from the CCDC's data processing and validation procedures.
#
#######################################################################

data_AQOMEA
_chemical_formula_moiety         'C120 H48 Cl5 Co24 N120 O12'
_symmetry_cell_setting           cubic
_symmetry_space_group_name_H-M   'F m -3 c'
_symmetry_Int_Tables_number      226
_space_group_name_Hall           '-F 4a 2 3'
loop_
_symmetry_equiv_pos_site_id
_symmetry_equiv_pos_as_xyz
1 x,y,z
2 -x,-y,z
3 -x,y,-z
4 x,-y,-z
5 z,x,y
6 z,-x,-y
7 -z,-x,y
8 -z,x,-y
9 y,z,x
10 -y,z,-x
11 y,-z,-x
12 -y,-z,x
13 1/2+y,1/2+x,1/2-z
14 1/2-y,1/2-x,1/2-z
15 1/2+y,1/2-x,1/2+z
16 1/2-y,1/2+x,1/2+z
17 1/2+x,1/2+z,1/2-y
18 1/2-x,1/2+z,1/2+y
19 1/2-x,1/2-z,1/2-y
20 1/2+x,1/2-z,1/2+y
21 1/2+z,1/2+y,1/2-x
22 1/2+z,1/2-y,1/2+x
23 1/2-z,1/2+y,1/2+x
24 1/2-z,1/2-y,1/2-x
25 x,1/2+y,1/2+z
26 -x,1/2-y,1/2+z
27 -x,1/2+y,1/2-z
28 x,1/2-y,1/2-z
29 z,1/2+x,1/2+y
30 z,1/2-x,1/2-y
31 -z,1/2-x,1/2+y
32 -z,1/2+x,1/2-y
33 y,1/2+z,1/2+x
34 -y,1/2+z,1/2-x
35 y,1/2-z,1/2-x
36 -y,1/2-z,1/2+x
37 1/2+y,x,-z
38 1/2-y,-x,-z
39 1/2+y,-x,z
40 1/2-y,x,z
41 1/2+x,z,-y
42 1/2-x,z,y
43 1/2-x,-z,-y
44 1/2+x,-z,y
45 1/2+z,y,-x
46 1/2+z,-y,x
47 1/2-z,y,x
48 1/2-z,-y,-x
49 1/2+x,y,1/2+z
50 1/2-x,-y,1/2+z
51 1/2-x,y,1/2-z
52 1/2+x,-y,1/2-z
53 1/2+z,x,1/2+y
54 1/2+z,-x,1/2-y
55 1/2-z,-x,1/2+y
56 1/2-z,x,1/2-y
57 1/2+y,z,1/2+x
58 1/2-y,z,1/2-x
59 1/2+y,-z,1/2-x
60 1/2-y,-z,1/2+x
61 y,1/2+x,-z
62 -y,1/2-x,-z
63 y,1/2-x,z
64 -y,1/2+x,z
65 x,1/2+z,-y
66 -x,1/2+z,y
67 -x,1/2-z,-y
68 x,1/2-z,y
69 z,1/2+y,-x
70 z,1/2-y,x
71 -z,1/2+y,x
72 -z,1/2-y,-x
73 1/2+x,1/2+y,z
74 1/2-x,1/2-y,z
75 1/2-x,1/2+y,-z
76 1/2+x,1/2-y,-z
77 1/2+z,1/2+x,y
78 1/2+z,1/2-x,-y
79 1/2-z,1/2-x,y
80 1/2-z,1/2+x,-y
81 1/2+y,1/2+z,x
82 1/2-y,1/2+z,-x
83 1/2+y,1/2-z,-x
84 1/2-y,1/2-z,x
85 y,x,1/2-z
86 -y,-x,1/2-z
87 y,-x,1/2+z
88 -y,x,1/2+z
89 x,z,1/2-y
90 -x,z,1/2+y
91 -x,-z,1/2-y
92 x,-z,1/2+y
93 z,y,1/2-x
94 z,-y,1/2+x
95 -z,y,1/2+x
96 -z,-y,1/2-x
97 -x,-y,-z
98 x,y,-z
99 x,-y,z
100 -x,y,z
101 -z,-x,-y
102 -z,x,y
103 z,x,-y
104 z,-x,y
105 -y,-z,-x
106 y,-z,x
107 -y,z,x
108 y,z,-x
109 1/2-y,1/2-x,1/2+z
110 1/2+y,1/2+x,1/2+z
111 1/2-y,1/2+x,1/2-z
112 1/2+y,1/2-x,1/2-z
113 1/2-x,1/2-z,1/2+y
114 1/2+x,1/2-z,1/2-y
115 1/2+x,1/2+z,1/2+y
116 1/2-x,1/2+z,1/2-y
117 1/2-z,1/2-y,1/2+x
118 1/2-z,1/2+y,1/2-x
119 1/2+z,1/2-y,1/2-x
120 1/2+z,1/2+y,1/2+x
121 -x,1/2-y,1/2-z
122 x,1/2+y,1/2-z
123 x,1/2-y,1/2+z
124 -x,1/2+y,1/2+z
125 -z,1/2-x,1/2-y
126 -z,1/2+x,1/2+y
127 z,1/2+x,1/2-y
128 z,1/2-x,1/2+y
129 -y,1/2-z,1/2-x
130 y,1/2-z,1/2+x
131 -y,1/2+z,1/2+x
132 y,1/2+z,1/2-x
133 1/2-y,-x,z
134 1/2+y,x,z
135 1/2-y,x,-z
136 1/2+y,-x,-z
137 1/2-x,-z,y
138 1/2+x,-z,-y
139 1/2+x,z,y
140 1/2-x,z,-y
141 1/2-z,-y,x
142 1/2-z,y,-x
143 1/2+z,-y,-x
144 1/2+z,y,x
145 1/2-x,-y,1/2-z
146 1/2+x,y,1/2-z
147 1/2+x,-y,1/2+z
148 1/2-x,y,1/2+z
149 1/2-z,-x,1/2-y
150 1/2-z,x,1/2+y
151 1/2+z,x,1/2-y
152 1/2+z,-x,1/2+y
153 1/2-y,-z,1/2-x
154 1/2+y,-z,1/2+x
155 1/2-y,z,1/2+x
156 1/2+y,z,1/2-x
157 -y,1/2-x,z
158 y,1/2+x,z
159 -y,1/2+x,-z
160 y,1/2-x,-z
161 -x,1/2-z,y
162 x,1/2-z,-y
163 x,1/2+z,y
164 -x,1/2+z,-y
165 -z,1/2-y,x
166 -z,1/2+y,-x
167 z,1/2-y,-x
168 z,1/2+y,x
169 1/2-x,1/2-y,-z
170 1/2+x,1/2+y,-z
171 1/2+x,1/2-y,z
172 1/2-x,1/2+y,z
173 1/2-z,1/2-x,-y
174 1/2-z,1/2+x,y
175 1/2+z,1/2+x,-y
176 1/2+z,1/2-x,y
177 1/2-y,1/2-z,-x
178 1/2+y,1/2-z,x
179 1/2-y,1/2+z,x
180 1/2+y,1/2+z,-x
181 -y,-x,1/2+z
182 y,x,1/2+z
183 -y,x,1/2-z
184 y,-x,1/2-z
185 -x,-z,1/2+y
186 x,-z,1/2-y
187 x,z,1/2+y
188 -x,z,1/2-y
189 -z,-y,1/2+x
190 -z,y,1/2-x
191 z,-y,1/2-x
192 z,y,1/2+x
_cell_length_a                   37.7048(13)
_cell_length_b                   37.7048(13)
_cell_length_c                   37.7048(13)
_cell_angle_alpha                90
_cell_angle_beta                 90
_cell_angle_gamma                90
_cell_volume                     53603.1
loop_
_atom_site_label
_atom_site_type_symbol
_atom_site_fract_x
_atom_site_fract_y
_atom_site_fract_z
Co1 Co 0.74601(2) 0.5000 0.31708(2)
Cl1 Cl 0.7500 0.5000 0.2500
O1 O 0.74469(10) 0.5000 0.37332(10)
N1 N 0.68299(6) 0.46194(6) 0.28527(6)
N2 N 0.70678(6) 0.46194(6) 0.31211(6)
N3 N 0.70131(6) 0.43492(6) 0.33377(7)
C1 C 0.66224(8) 0.43388(7) 0.29014(8)
H1 H 0.6435 0.4270 0.2756
C2 C 0.67329(8) 0.41677(7) 0.32053(8)
C3 C 0.65929(7) 0.38450(8) 0.33775(7)
C4 C 0.62944(8) 0.36763(8) 0.32424(8)
H2 H 0.6186 0.3765 0.3039
C5 C 0.7241(4) 0.5110(6) 0.3930(4)
C5TC C 0.7241(4) 0.4890(6) 0.3930(4)
N1F N 0.71473(6) 0.31701(6) 0.46194(6)
N2F N 0.68789(6) 0.29322(6) 0.46194(6)
N3F N 0.66623(7) 0.29869(6) 0.43492(6)
C1F C 0.70986(8) 0.33776(8) 0.43388(7)
H1F H 0.7244 0.3565 0.4270
C2F C 0.67947(8) 0.32671(8) 0.41677(7)
C3F C 0.66225(7) 0.34071(7) 0.38450(8)
C4F C 0.67576(8) 0.37056(8) 0.36763(8)
H2F H 0.6961 0.3814 0.3765
N1I N 0.53806(6) 0.28527(6) 0.31701(6)
N2I N 0.53806(6) 0.31211(6) 0.29322(6)
N3I N 0.56508(6) 0.33377(7) 0.29869(6)
C1I C 0.56612(7) 0.29014(8) 0.33776(8)
H1I H 0.5730 0.2756 0.3565
C2I C 0.58323(7) 0.32053(8) 0.32671(8)
C3I C 0.61550(8) 0.33775(7) 0.34071(7)
C4I C 0.63237(8) 0.32424(8) 0.37056(8)
H2I H 0.6235 0.3039 0.3814
Co1F Co 0.68292(2) 0.25399(2) 0.5000
Cl1F Cl 0.7500 0.2500 0.5000
O1F O 0.62668(10) 0.25531(10) 0.5000
C5F C 0.6070(4) 0.2759(4) 0.5110(6)
C5VC C 0.6070(4) 0.2759(4) 0.4890(6)
Co1I Co 0.5000 0.31708(2) 0.25399(2)
Cl1I Cl 0.5000 0.2500 0.2500
O1I O 0.5000 0.37332(10) 0.25531(10)
C5I C 0.4890(6) 0.3930(4) 0.2759(4)
C5CD C 0.5110(6) 0.3930(4) 0.2759(4)
Co1IA Co 0.5000 0.18292(2) 0.24601(2)
O1IA O 0.5000 0.12668(10) 0.24469(10)
N1IA N 0.53806(6) 0.21473(6) 0.18299(6)
N2IA N 0.53806(6) 0.18789(6) 0.20678(6)
N3IA N 0.56508(6) 0.16623(7) 0.20131(6)
C1IA C 0.56612(7) 0.20986(8) 0.16224(8)
H1IA H 0.5730 0.2244 0.1435
C2IA C 0.58323(7) 0.17947(8) 0.17329(8)
C3IA C 0.61550(8) 0.16225(7) 0.15929(7)
C4IA C 0.63237(8) 0.17576(8) 0.12944(8)
H2IA H 0.6235 0.1961 0.1186
C5IA C 0.4890(6) 0.1070(4) 0.2241(4)
C5YD C 0.5110(6) 0.1070(4) 0.2241(4)
N1AA N 0.68299(6) 0.03806(6) 0.21473(6)
N2AA N 0.70678(6) 0.03806(6) 0.18789(6)
N3AA N 0.70131(6) 0.06508(6) 0.16623(7)
C1AA C 0.66224(8) 0.06612(7) 0.20986(8)
H1AA H 0.6435 0.0730 0.2244
C2AA C 0.67329(8) 0.08323(7) 0.17947(8)
C3AA C 0.65929(7) 0.11550(8) 0.16225(7)
C4AA C 0.62944(8) 0.13237(8) 0.17576(8)
H2AA H 0.6186 0.1235 0.1961
N1EA N 0.71473(6) 0.18299(6) 0.03806(6)
N2EA N 0.68789(6) 0.20678(6) 0.03806(6)
N3EA N 0.66623(7) 0.20131(6) 0.06508(6)
C1EA C 0.70986(8) 0.16224(8) 0.06612(7)
H1EA H 0.7244 0.1435 0.0730
C2EA C 0.67947(8) 0.17329(8) 0.08323(7)
C3EA C 0.66225(7) 0.15929(7) 0.11550(8)
C4EA C 0.67576(8) 0.12944(8) 0.13237(8)
H2EA H 0.6961 0.1186 0.1235
N1LA N 0.96194(6) 0.31701(6) 0.28527(6)
N2LA N 0.96194(6) 0.29322(6) 0.31211(6)
N3LA N 0.93492(6) 0.29869(6) 0.33377(7)
C1LA C 0.93388(7) 0.33776(8) 0.29014(8)
H1LA H 0.9270 0.3565 0.2756
C2LA C 0.91677(7) 0.32671(8) 0.32053(8)
C3LA C 0.88450(8) 0.34071(7) 0.33775(7)
C4LA C 0.86763(8) 0.37056(8) 0.32424(8)
H2LA H 0.8765 0.3814 0.3039
N1OA N 0.81701(6) 0.28527(6) 0.46194(6)
N2OA N 0.79322(6) 0.31211(6) 0.46194(6)
N3OA N 0.79869(6) 0.33377(7) 0.43492(6)
C1OA C 0.83776(8) 0.29014(8) 0.43388(7)
H1OA H 0.8565 0.2756 0.4270
C2OA C 0.82671(8) 0.32053(8) 0.41677(7)
C3OA C 0.84071(7) 0.33775(7) 0.38450(8)
C4OA C 0.87056(8) 0.32424(8) 0.36763(8)
H2OA H 0.8814 0.3039 0.3765
N1RA N 0.78527(6) 0.46194(6) 0.31701(6)
N2RA N 0.81211(6) 0.46194(6) 0.29322(6)
N3RA N 0.83377(7) 0.43492(6) 0.29869(6)
C1RA C 0.79014(8) 0.43388(7) 0.33776(8)
H1RA H 0.7756 0.4270 0.3565
C2RA C 0.82053(8) 0.41677(7) 0.32671(8)
C3RA C 0.83775(7) 0.38450(8) 0.34071(7)
C4RA C 0.82424(8) 0.36763(8) 0.37056(8)
H2RA H 0.8039 0.3765 0.3814
Co1OA Co 0.75399(2) 0.31708(2) 0.5000
O1OA O 0.75531(10) 0.37332(10) 0.5000
C5OA C 0.7759(4) 0.3930(4) 0.5110(6)
C5IE C 0.7759(4) 0.3930(4) 0.4890(6)
Co1RA Co 0.81708(2) 0.5000 0.25399(2)
O1RA O 0.87332(10) 0.5000 0.25531(10)
C5RA C 0.8930(4) 0.5110(6) 0.2759(4)
C5LE C 0.8930(4) 0.4890(6) 0.2759(4)
Co1XA Co 0.75399(2) 0.5000 0.18292(2)
O1XA O 0.75531(10) 0.5000 0.12668(10)
N1XA N 0.81701(6) 0.46194(6) 0.21473(6)
N2XA N 0.79322(6) 0.46194(6) 0.18789(6)
N3XA N 0.79869(6) 0.43492(6) 0.16623(7)
C1XA C 0.83776(8) 0.43388(7) 0.20986(8)
H1XA H 0.8565 0.4270 0.2244
C2XA C 0.82671(8) 0.41677(7) 0.17947(8)
C3XA C 0.84071(7) 0.38450(8) 0.16225(7)
C4XA C 0.87056(8) 0.36763(8) 0.17576(8)
H2XA H 0.8814 0.3765 0.1961
C5XA C 0.7759(4) 0.5110(6) 0.1070(4)
C5NE C 0.7759(4) 0.4890(6) 0.1070(4)
N1AB N 0.78527(6) 0.31701(6) 0.03806(6)
N2AB N 0.81211(6) 0.29322(6) 0.03806(6)
N3AB N 0.83377(7) 0.29869(6) 0.06508(6)
C1AB C 0.79014(8) 0.33776(8) 0.06612(7)
H1AB H 0.7756 0.3565 0.0730
C2AB C 0.82053(8) 0.32671(8) 0.08323(7)
C3AB C 0.83775(7) 0.34071(7) 0.11550(8)
C4AB C 0.82424(8) 0.37056(8) 0.13237(8)
H2AB H 0.8039 0.3814 0.1235
N1DB N 0.96194(6) 0.28527(6) 0.18299(6)
N2DB N 0.96194(6) 0.31211(6) 0.20678(6)
N3DB N 0.93492(6) 0.33377(7) 0.20131(6)
C1DB C 0.93388(7) 0.29014(8) 0.16224(8)
H1DB H 0.9270 0.2756 0.1435
C2DB C 0.91677(7) 0.32053(8) 0.17329(8)
C3DB C 0.88450(8) 0.33775(7) 0.15929(7)
C4DB C 0.86763(8) 0.32424(8) 0.12944(8)
H2DB H 0.8765 0.3039 0.1186
Co1AB Co 0.81708(2) 0.25399(2) 0.0000
O1AB O 0.87332(10) 0.25531(10) 0.0000
C5AB C 0.8930(4) 0.2759(4) -0.0110(6)
C5UE C 0.8930(4) 0.2759(4) 0.0110(6)
Co1DB Co 1.0000 0.31708(2) 0.24601(2)
O1DB O 1.0000 0.37332(10) 0.24469(10)
C5DB C 1.0110(6) 0.3930(4) 0.2241(4)
C5XE C 0.9890(6) 0.3930(4) 0.2241(4)
N1KB N 0.53806(6) 0.18299(6) 0.28527(6)
N2KB N 0.53806(6) 0.20678(6) 0.31211(6)
N3KB N 0.56508(6) 0.20131(6) 0.33377(7)
C1KB C 0.56612(7) 0.16224(8) 0.29014(8)
H1KB H 0.5730 0.1435 0.2756
C2KB C 0.58323(7) 0.17329(8) 0.32053(8)
C3KB C 0.61550(8) 0.15929(7) 0.33775(7)
C4KB C 0.63237(8) 0.12944(8) 0.32424(8)
H2KB H 0.6235 0.1186 0.3039
N1OB N 0.68299(6) 0.21473(6) 0.46194(6)
N2OB N 0.70678(6) 0.18789(6) 0.46194(6)
N3OB N 0.70131(6) 0.16623(7) 0.43492(6)
C1OB C 0.66224(8) 0.20986(8) 0.43388(7)
H1OB H 0.6435 0.2244 0.4270
C2OB C 0.67329(8) 0.17947(8) 0.41677(7)
C3OB C 0.65929(7) 0.16225(7) 0.38450(8)
C4OB C 0.62944(8) 0.17576(8) 0.36763(8)
H2OB H 0.6186 0.1961 0.3765
N1SB N 0.71473(6) 0.03806(6) 0.31701(6)
N2SB N 0.68789(6) 0.03806(6) 0.29322(6)
N3SB N 0.66623(7) 0.06508(6) 0.29869(6)
C1SB C 0.70986(8) 0.06612(7) 0.33776(8)
H1SB H 0.7244 0.0730 0.3565
C2SB C 0.67947(8) 0.08323(7) 0.32671(8)
C3SB C 0.66225(7) 0.11550(8) 0.34071(7)
C4SB C 0.67576(8) 0.13237(8) 0.37056(8)
H2SB H 0.6961 0.1235 0.3814
N1UB N 0.81701(6) 0.03806(6) 0.28527(6)
N2UB N 0.79322(6) 0.03806(6) 0.31211(6)
N3UB N 0.79869(6) 0.06508(6) 0.33377(7)
C1UB C 0.83776(8) 0.06612(7) 0.29014(8)
H1UB H 0.8565 0.0730 0.2756
C2UB C 0.82671(8) 0.08323(7) 0.32053(8)
C3UB C 0.84071(7) 0.11550(8) 0.33775(7)
C4UB C 0.87056(8) 0.13237(8) 0.32424(8)
H2UB H 0.8814 0.1235 0.3039
N1XB N 0.78527(6) 0.18299(6) 0.46194(6)
N2XB N 0.81211(6) 0.20678(6) 0.46194(6)
N3XB N 0.83377(7) 0.20131(6) 0.43492(6)
C1XB C 0.79014(8) 0.16224(8) 0.43388(7)
H1XB H 0.7756 0.1435 0.4270
C2XB C 0.82053(8) 0.17329(8) 0.41677(7)
C3XB C 0.83775(7) 0.15929(7) 0.38450(8)
C4XB C 0.82424(8) 0.12944(8) 0.36763(8)
H2XB H 0.8039 0.1186 0.3765
N1DC N 0.96194(6) 0.21473(6) 0.31701(6)
N2DC N 0.96194(6) 0.18789(6) 0.29322(6)
N3DC N 0.93492(6) 0.16623(7) 0.29869(6)
C1DC C 0.93388(7) 0.20986(8) 0.33776(8)
H1DC H 0.9270 0.2244 0.3565
C2DC C 0.91677(7) 0.17947(8) 0.32671(8)
C3DC C 0.88450(8) 0.16225(7) 0.34071(7)
C4DC C 0.86763(8) 0.17576(8) 0.37056(8)
H2DC H 0.8765 0.1961 0.3814
Co1XB Co 0.81708(2) 0.24601(2) 0.5000
O1XB O 0.87332(10) 0.24469(10) 0.5000
C5XB C 0.8930(4) 0.2241(4) 0.5110(6)
C5RF C 0.8930(4) 0.2241(4) 0.4890(6)
Co1DC Co 1.0000 0.18292(2) 0.25399(2)
O1DC O 1.0000 0.12668(10) 0.25531(10)
C5DC C 1.0110(6) 0.1070(4) 0.2759(4)
C5TF C 0.9890(6) 0.1070(4) 0.2759(4)
Co1GC Co 0.5000 0.25399(2) 0.18292(2)
O1GC O 0.5000 0.25531(10) 0.12668(10)
N1GC N 0.53806(6) 0.31701(6) 0.21473(6)
N2GC N 0.53806(6) 0.29322(6) 0.18789(6)
N3GC N 0.56508(6) 0.29869(6) 0.16623(7)
C1GC C 0.56612(7) 0.33776(8) 0.20986(8)
H1GC H 0.5730 0.3565 0.2244
C2GC C 0.58323(7) 0.32671(8) 0.17947(8)
C3GC C 0.61550(8) 0.34071(7) 0.16225(7)
C4GC C 0.63237(8) 0.37056(8) 0.17576(8)
H2GC H 0.6235 0.3814 0.1961
C5GC C 0.4890(6) 0.2759(4) 0.1070(4)
C5AG C 0.5110(6) 0.2759(4) 0.1070(4)
N1JC N 0.68299(6) 0.28527(6) 0.03806(6)
N2JC N 0.70678(6) 0.31211(6) 0.03806(6)
N3JC N 0.70131(6) 0.33377(7) 0.06508(6)
C1JC C 0.66224(8) 0.29014(8) 0.06612(7)
H1JC H 0.6435 0.2756 0.0730
C2JC C 0.67329(8) 0.32053(8) 0.08323(7)
C3JC C 0.65929(7) 0.33775(7) 0.11550(8)
C4JC C 0.62944(8) 0.32424(8) 0.13237(8)
H2JC H 0.6186 0.3039 0.1235
N1PC N 0.71473(6) 0.46194(6) 0.18299(6)
N2PC N 0.68789(6) 0.46194(6) 0.20678(6)
N3PC N 0.66623(7) 0.43492(6) 0.20131(6)
C1PC C 0.70986(8) 0.43388(7) 0.16224(8)
H1PC H 0.7244 0.4270 0.1435
C2PC C 0.67947(8) 0.41677(7) 0.17329(8)
C3PC C 0.66225(7) 0.38450(8) 0.15929(7)
C4PC C 0.67576(8) 0.36763(8) 0.12944(8)
H2PC H 0.6961 0.3765 0.1186
N1L N 0.96194(6) 0.18299(6) 0.21473(6)
N2L N 0.96194(6) 0.20678(6) 0.18789(6)
N3L N 0.93492(6) 0.20131(6) 0.16623(7)
C1L C 0.93388(7) 0.16224(8) 0.20986(8)
H1L H 0.9270 0.1435 0.2244
C2L C 0.91677(7) 0.17329(8) 0.17947(8)
C3L C 0.88450(8) 0.15929(7) 0.16225(7)
C4L C 0.86763(8) 0.12944(8) 0.17576(8)
H2L H 0.8765 0.1186 0.1961
N1R N 0.81701(6) 0.21473(6) 0.03806(6)
N2R N 0.79322(6) 0.18789(6) 0.03806(6)
N3R N 0.79869(6) 0.16623(7) 0.06508(6)
C1R C 0.83776(8) 0.20986(8) 0.06612(7)
H1R H 0.8565 0.2244 0.0730
C2R C 0.82671(8) 0.17947(8) 0.08323(7)
C3R C 0.84071(7) 0.16225(7) 0.11550(8)
C4R C 0.87056(8) 0.17576(8) 0.13237(8)
H2R H 0.8814 0.1961 0.1235
N1U N 0.78527(6) 0.03806(6) 0.18299(6)
N2U N 0.81211(6) 0.03806(6) 0.20678(6)
N3U N 0.83377(7) 0.06508(6) 0.20131(6)
C1U C 0.79014(8) 0.06612(7) 0.16224(8)
H1U H 0.7756 0.0730 0.1435
C2U C 0.82053(8) 0.08323(7) 0.17329(8)
C3U C 0.83775(7) 0.11550(8) 0.15929(7)
C4U C 0.82424(8) 0.13237(8) 0.12944(8)
H2U H 0.8039 0.1235 0.1186
Co1L Co 1.0000 0.24601(2) 0.18292(2)
Co1R Co 0.75399(2) 0.18292(2) 0.0000
Co1U Co 0.81708(2) 0.0000 0.24601(2)
Co1AA Co 0.74601(2) -0.0000 0.18292(2)
Co1EA Co 0.68292(2) 0.24601(2) 0.0000
Co1LA Co 1.0000 0.25399(2) 0.31708(2)
Co1KB Co 0.5000 0.24601(2) 0.31708(2)
Co1OB Co 0.74601(2) 0.18292(2) 0.5000
Co1SB Co 0.68292(2) -0.0000 0.25399(2)
Co1UB Co 0.75399(2) 0.0000 0.31708(2)
Co1JC Co 0.74601(2) 0.31708(2) 0.0000
Co1PC Co 0.68292(2) 0.5000 0.24601(2)
Cl1L Cl 1.0000 0.2500 0.2500
Cl1R Cl 0.7500 0.2500 0.0000
N1VC N 0.71473(6) 0.31701(6) 0.53806(6)
N1FD N 1.03806(6) 0.18299(6) 0.21473(6)
N1HD N 0.81701(6) 0.21473(6) -0.03806(6)
N1YD N 0.46194(6) 0.21473(6) 0.18299(6)
N1BE N 1.03806(6) 0.31701(6) 0.28527(6)
N1IE N 0.81701(6) 0.28527(6) 0.53806(6)
N1LE N 0.78527(6) 0.53806(6) 0.31701(6)
N1NE N 0.81701(6) 0.53806(6) 0.21473(6)
N1AF N 0.46194(6) 0.18299(6) 0.28527(6)
N1EF N 0.68299(6) 0.21473(6) 0.53806(6)
N1AG N 0.46194(6) 0.31701(6) 0.21473(6)
N1FG N 0.71473(6) 0.53806(6) 0.18299(6)
N2TC N 0.70678(6) 0.53806(6) 0.31211(6)
N2VC N 0.68789(6) 0.29322(6) 0.53806(6)
N2CD N 0.46194(6) 0.31211(6) 0.29322(6)
N2YD N 0.46194(6) 0.18789(6) 0.20678(6)
N2IE N 0.79322(6) 0.31211(6) 0.53806(6)
N2LE N 0.81211(6) 0.53806(6) 0.29322(6)
N2NE N 0.79322(6) 0.53806(6) 0.18789(6)
N2UE N 0.81211(6) 0.29322(6) -0.03806(6)
N2XE N 1.03806(6) 0.31211(6) 0.20678(6)
N2RF N 0.81211(6) 0.20678(6) 0.53806(6)
N2TF N 1.03806(6) 0.18789(6) 0.29322(6)
N2AG N 0.46194(6) 0.29322(6) 0.18789(6)
N4 N 0.7240(6) 0.5177(6) 0.4263(3)
N4TC N 0.7240(6) 0.4823(6) 0.4263(3)
N4F N 0.5737(3) 0.2760(6) 0.5177(6)
N4VC N 0.5737(3) 0.2760(6) 0.4823(6)
N4I N 0.4823(6) 0.4263(3) 0.2760(6)
N4CD N 0.5177(6) 0.4263(3) 0.2760(6)
N4IA N 0.4823(6) 0.0737(3) 0.2240(6)
N4YD N 0.5177(6) 0.0737(3) 0.2240(6)
N4OA N 0.7760(6) 0.4263(3) 0.5177(6)
N4IE N 0.7760(6) 0.4263(3) 0.4823(6)
N4RA N 0.9263(3) 0.5177(6) 0.2760(6)
N4LE N 0.9263(3) 0.4823(6) 0.2760(6)
N4XA N 0.7760(6) 0.5177(6) 0.0737(3)
N4NE N 0.7760(6) 0.4823(6) 0.0737(3)
N4AB N 0.9263(3) 0.2760(6) -0.0177(6)
N4UE N 0.9263(3) 0.2760(6) 0.0177(6)
N4DB N 1.0177(6) 0.4263(3) 0.2240(6)
N4XE N 0.9823(6) 0.4263(3) 0.2240(6)
N4XB N 0.9263(3) 0.2240(6) 0.5177(6)
N4RF N 0.9263(3) 0.2240(6) 0.4823(6)
N4DC N 1.0177(6) 0.0737(3) 0.2760(6)
N4TF N 0.9823(6) 0.0737(3) 0.2760(6)
N4GC N 0.4823(6) 0.2760(6) 0.0737(3)
N4AG N 0.5177(6) 0.2760(6) 0.0737(3)
loop_
_geom_bond_atom_site_label_1
_geom_bond_atom_site_label_2
_geom_bond_site_symmetry_1
_geom_bond_site_symmetry_2
Co1 Cl1 1_555 1_555
Cl1 Co1RA 1_555 1_555
O1 Co1 1_555 1_555
N1 N2 1_555 1_555
N2 Co1 1_555 1_555
N3 N2 1_555 1_555
C1 N1 1_555 1_555
H1 C1 1_555 1_555
C2 N3 1_555 1_555
C3 C2 1_555 1_555
C4 C3 1_555 1_555
H2 C4 1_555 1_555
C5 O1 1_555 1_555
N4 N4TC 1_555 1_555
C5TC O1 1_555 1_555
N1F N2F 1_555 1_555
N2F N3F 1_555 1_555
N3F C2F 1_555 1_555
C1F N1F 1_555 1_555
H1F C1F 1_555 1_555
C2F C1F 1_555 1_555
C3F C2F 1_555 1_555
C4F C3 1_555 1_555
H2F C4F 1_555 1_555
N1I N2I 1_555 1_555
N2I N3I 1_555 1_555
N3I C2I 1_555 1_555
C1I N1I 1_555 1_555
H1I C1I 1_555 1_555
C2I C1I 1_555 1_555
C3I C4 1_555 1_555
C4I C3F 1_555 1_555
H2I C4I 1_555 1_555
Co1F N2F 1_555 1_555
Cl1F Co1F 1_555 1_555
O1F Co1F 1_555 1_555
C5F O1F 1_555 1_555
C5VC O1F 1_555 1_555
Co1I N2I 1_555 1_555
Cl1I Co1I 1_555 1_555
O1I Co1I 1_555 1_555
C5I O1I 1_555 1_555
C5CD O1I 1_555 1_555
Co1IA Cl1I 1_555 1_555
O1IA Co1IA 1_555 1_555
N1IA N2IA 1_555 1_555
N2IA Co1IA 1_555 1_555
N3IA N2IA 1_555 1_555
C1IA N1IA 1_555 1_555
H1IA C1IA 1_555 1_555
C2IA N3IA 1_555 1_555
C3IA C2IA 1_555 1_555
C4IA C3IA 1_555 1_555
H2IA C4IA 1_555 1_555
C5IA O1IA 1_555 1_555
C5YD O1IA 1_555 1_555
N1AA N2AA 1_555 1_555
N2AA N3AA 1_555 1_555
N3AA C2AA 1_555 1_555
C1AA N1AA 1_555 1_555
H1AA C1AA 1_555 1_555
C2AA C1AA 1_555 1_555
C3AA C2AA 1_555 1_555
C4AA C3IA 1_555 1_555
H2AA C4AA 1_555 1_555
N1EA N2EA 1_555 1_555
N2EA N3EA 1_555 1_555
N3EA C2EA 1_555 1_555
C1EA N1EA 1_555 1_555
H1EA C1EA 1_555 1_555
C2EA C1EA 1_555 1_555
C3EA C4IA 1_555 1_555
C4EA C3AA 1_555 1_555
H2EA C4EA 1_555 1_555
N1LA N2LA 1_555 1_555
N2LA N3LA 1_555 1_555
N3LA C2LA 1_555 1_555
C1LA N1LA 1_555 1_555
H1LA C1LA 1_555 1_555
C2LA C1LA 1_555 1_555
C3LA C2LA 1_555 1_555
C4LA C3LA 1_555 1_555
H2LA C4LA 1_555 1_555
N1OA N2OA 1_555 1_555
N2OA N3OA 1_555 1_555
N3OA C2OA 1_555 1_555
C1OA N1OA 1_555 1_555
H1OA C1OA 1_555 1_555
C2OA C1OA 1_555 1_555
C3OA C2OA 1_555 1_555
C4OA C3LA 1_555 1_555
H2OA C4OA 1_555 1_555
N1RA Co1 1_555 1_555
N2RA N1RA 1_555 1_555
N3RA N2RA 1_555 1_555
C1RA N1RA 1_555 1_555
H1RA C1RA 1_555 1_555
C2RA N3RA 1_555 1_555
C3RA C4LA 1_555 1_555
C4RA C3OA 1_555 1_555
H2RA C4RA 1_555 1_555
Co1OA N1F 1_555 1_555
O1OA Co1OA 1_555 1_555
C5OA O1OA 1_555 1_555
C5IE O1OA 1_555 1_555
Co1RA N2RA 1_555 1_555
O1RA Co1RA 1_555 1_555
C5RA O1RA 1_555 1_555
C5LE O1RA 1_555 1_555
Co1XA Cl1 1_555 1_555
O1XA Co1XA 1_555 1_555
N1XA Co1RA 1_555 1_555
N2XA Co1XA 1_555 1_555
N3XA N2XA 1_555 1_555
C1XA N1XA 1_555 1_555
H1XA C1XA 1_555 1_555
C2XA N3XA 1_555 1_555
C3XA C2XA 1_555 1_555
C4XA C3XA 1_555 1_555
H2XA C4XA 1_555 1_555
C5XA O1XA 1_555 1_555
C5NE O1XA 1_555 1_555
N1AB N2AB 1_555 1_555
N2AB N3AB 1_555 1_555
N3AB C2AB 1_555 1_555
C1AB N1AB 1_555 1_555
H1AB C1AB 1_555 1_555
C2AB C1AB 1_555 1_555
C3AB C2AB 1_555 1_555
C4AB C3XA 1_555 1_555
H2AB C4AB 1_555 1_555
N1DB N2DB 1_555 1_555
N2DB N3DB 1_555 1_555
N3DB C2DB 1_555 1_555
C1DB N1DB 1_555 1_555
H1DB C1DB 1_555 1_555
C2DB C1DB 1_555 1_555
C3DB C4XA 1_555 1_555
C4DB C3AB 1_555 1_555
H2DB C4DB 1_555 1_555
Co1AB N2AB 1_555 1_555
O1AB Co1AB 1_555 1_555
C5AB O1AB 1_555 1_555
C5UE O1AB 1_555 1_555
Co1DB N1LA 1_555 1_555
O1DB Co1DB 1_555 1_555
C5DB O1DB 1_555 1_555
C5XE O1DB 1_555 1_555
N1KB Co1IA 1_555 1_555
N2KB N1KB 1_555 1_555
N3KB N2KB 1_555 1_555
C1KB N1KB 1_555 1_555
H1KB C1KB 1_555 1_555
C2KB N3KB 1_555 1_555
C3KB C2KB 1_555 1_555
C4KB C3KB 1_555 1_555
H2KB C4KB 1_555 1_555
N1OB Co1F 1_555 1_555
N2OB N1OB 1_555 1_555
N3OB N2OB 1_555 1_555
C1OB N1OB 1_555 1_555
H1OB C1OB 1_555 1_555
C2OB N3OB 1_555 1_555
C3OB C2OB 1_555 1_555
C4OB C3KB 1_555 1_555
H2OB C4OB 1_555 1_555
N1SB N2SB 1_555 1_555
N2SB N3SB 1_555 1_555
N3SB C2SB 1_555 1_555
C1SB N1SB 1_555 1_555
H1SB C1SB 1_555 1_555
C2SB C1SB 1_555 1_555
C3SB C4KB 1_555 1_555
C4SB C3OB 1_555 1_555
H2SB C4SB 1_555 1_555
N1UB N2UB 1_555 1_555
N2UB N3UB 1_555 1_555
N3UB C2UB 1_555 1_555
C1UB N1UB 1_555 1_555
H1UB C1UB 1_555 1_555
C2UB C1UB 1_555 1_555
C3UB C2UB 1_555 1_555
C4UB C3UB 1_555 1_555
H2UB C4UB 1_555 1_555
N1XB N2XB 1_555 1_555
N2XB N3XB 1_555 1_555
N3XB C2XB 1_555 1_555
C1XB N1XB 1_555 1_555
H1XB C1XB 1_555 1_555
C2XB C1XB 1_555 1_555
C3XB C2XB 1_555 1_555
C4XB C3UB 1_555 1_555
H2XB C4XB 1_555 1_555
N1DC N2DC 1_555 1_555
N2DC N3DC 1_555 1_555
N3DC C2DC 1_555 1_555
C1DC N1DC 1_555 1_555
H1DC C1DC 1_555 1_555
C2DC C1DC 1_555 1_555
C3DC C4UB 1_555 1_555
C4DC C3XB 1_555 1_555
H2DC C4DC 1_555 1_555
Co1XB Cl1F 1_555 1_555
O1XB Co1XB 1_555 1_555
C5XB O1XB 1_555 1_555
C5RF O1XB 1_555 1_555
Co1DC N2DC 1_555 1_555
O1DC Co1DC 1_555 1_555
C5DC O1DC 1_555 1_555
C5TF O1DC 1_555 1_555
Co1GC Cl1I 1_555 1_555
O1GC Co1GC 1_555 1_555
N1GC Co1I 1_555 1_555
N2GC Co1GC 1_555 1_555
N3GC N2GC 1_555 1_555
C1GC N1GC 1_555 1_555
H1GC C1GC 1_555 1_555
C2GC N3GC 1_555 1_555
C3GC C2GC 1_555 1_555
C4GC C3GC 1_555 1_555
H2GC C4GC 1_555 1_555
C5GC O1GC 1_555 1_555
C5AG O1GC 1_555 1_555
N1JC N2JC 1_555 1_555
N2JC N3JC 1_555 1_555
N3JC C2JC 1_555 1_555
C1JC N1JC 1_555 1_555
H1JC C1JC 1_555 1_555
C2JC C1JC 1_555 1_555
C3JC C2JC 1_555 1_555
C4JC C3GC 1_555 1_555
H2JC C4JC 1_555 1_555
N1PC Co1XA 1_555 1_555
N2PC N1PC 1_555 1_555
N3PC N2PC 1_555 1_555
C1PC N1PC 1_555 1_555
H1PC C1PC 1_555 1_555
C2PC N3PC 1_555 1_555
C3PC C4GC 1_555 1_555
C4PC C3JC 1_555 1_555
H2PC C4PC 1_555 1_555
N1L Co1DC 1_555 1_555
N2L N1L 1_555 1_555
N3L N2L 1_555 1_555
C1L N1L 1_555 1_555
H1L C1L 1_555 1_555
C2L N3L 1_555 1_555
C3L C2L 1_555 1_555
C4L C3L 1_555 1_555
H2L C4L 1_555 1_555
N1R Co1AB 1_555 1_555
N2R N1R 1_555 1_555
N3R N2R 1_555 1_555
C1R N1R 1_555 1_555
H1R C1R 1_555 1_555
C2R N3R 1_555 1_555
C3R C2R 1_555 1_555
C4R C3L 1_555 1_555
H2R C4R 1_555 1_555
N1U N2U 1_555 1_555
N2U N3U 1_555 1_555
N3U C2U 1_555 1_555
C1U N1U 1_555 1_555
H1U C1U 1_555 1_555
C2U C1U 1_555 1_555
C3U C4L 1_555 1_555
C4U C3R 1_555 1_555
H2U C4U 1_555 1_555
Co1L N1DB 1_555 1_555
Co1R N1EA 1_555 1_555
Co1U N1UB 1_555 1_555
Co1AA N2AA 1_555 1_555
Co1EA N2EA 1_555 1_555
Co1LA N2LA 1_555 1_555
Co1KB N1I 1_555 1_555
Co1OB Cl1F 1_555 1_555
Co1SB N1AA 1_555 1_555
Co1UB N1SB 1_555 1_555
Co1JC N1AB 1_555 1_555
Co1PC Cl1 1_555 1_555
Cl1L Co1DB 1_555 1_555
Cl1R Co1AB 1_555 1_555
N1VC Co1OA 1_555 1_555
N1FD Co1DC 1_555 1_555
N1HD Co1AB 1_555 1_555
N1YD Co1GC 1_555 1_555
N1BE Co1DB 1_555 1_555
N1IE Co1XB 1_555 1_555
N1LE Co1 1_555 1_555
N1NE Co1RA 1_555 1_555
N1AF Co1IA 1_555 1_555
N1EF Co1F 1_555 1_555
N1AG Co1I 1_555 1_555
N1FG Co1XA 1_555 1_555
N2TC Co1 1_555 1_555
N2VC Co1F 1_555 1_555
N2CD Co1I 1_555 1_555
N2YD Co1IA 1_555 1_555
N2IE Co1OA 1_555 1_555
N2LE Co1RA 1_555 1_555
N2NE Co1XA 1_555 1_555
N2UE Co1AB 1_555 1_555
N2XE Co1DB 1_555 1_555
N2RF Co1XB 1_555 1_555
N2TF Co1DC 1_555 1_555
N2AG Co1GC 1_555 1_555
N4F N4VC 1_555 1_555
N4I N4CD 1_555 1_555
N4IA N4YD 1_555 1_555
N4OA N4IE 1_555 1_555
N4RA N4LE 1_555 1_555
N4XA N4NE 1_555 1_555
N4AB N4UE 1_555 1_555
N4DB N4XE 1_555 1_555
N4XB N4RF 1_555 1_555
N4DC N4TF 1_555 1_555
N4GC N4AG 1_555 1_555
N1 Co1PC 1_555 1_555
C1 C2 1_555 1_555
C5 C5TC 1_555 1_555
C3F C4F 1_555 1_555
C2I C3I 1_555 1_555
C3I C4I 1_555 1_555
Cl1F Co1OA 1_555 1_555
C5F C5VC 1_555 1_555
Cl1I Co1KB 1_555 1_555
C5I C5CD 1_555 1_555
N1IA Co1GC 1_555 1_555
C1IA C2IA 1_555 1_555
C5IA C5YD 1_555 1_555
C3AA C4AA 1_555 1_555
C2EA C3EA 1_555 1_555
C3EA C4EA 1_555 1_555
N1OA Co1XB 1_555 1_555
N2OA Co1OA 1_555 1_555
C3OA C4OA 1_555 1_555
C1RA C2RA 1_555 1_555
C2RA C3RA 1_555 1_555
C3RA C4RA 1_555 1_555
C5OA C5IE 1_555 1_555
C5RA C5LE 1_555 1_555
N1XA N2XA 1_555 1_555
C1XA C2XA 1_555 1_555
C5XA C5NE 1_555 1_555
C3AB C4AB 1_555 1_555
N2DB Co1DB 1_555 1_555
C2DB C3DB 1_555 1_555
C3DB C4DB 1_555 1_555
C5AB C5UE 1_555 1_555
C5DB C5XE 1_555 1_555
N2KB Co1KB 1_555 1_555
C1KB C2KB 1_555 1_555
N2OB Co1OB 1_555 1_555
C1OB C2OB 1_555 1_555
C3OB C4OB 1_555 1_555
N2SB Co1SB 1_555 1_555
C2SB C3SB 1_555 1_555
C3SB C4SB 1_555 1_555
N2UB Co1UB 1_555 1_555
N1XB Co1OB 1_555 1_555
N2XB Co1XB 1_555 1_555
C3XB C4XB 1_555 1_555
N1DC Co1LA 1_555 1_555
C2DC C3DC 1_555 1_555
C3DC C4DC 1_555 1_555
C5XB C5RF 1_555 1_555
Co1DC Cl1L 1_555 1_555
C5DC C5TF 1_555 1_555
N1GC N2GC 1_555 1_555
C1GC C2GC 1_555 1_555
C5GC C5AG 1_555 1_555
N1JC Co1EA 1_555 1_555
N2JC Co1JC 1_555 1_555
C3JC C4JC 1_555 1_555
N2PC Co1PC 1_555 1_555
C1PC C2PC 1_555 1_555
C2PC C3PC 1_555 1_555
C3PC C4PC 1_555 1_555
N2L Co1L 1_555 1_555
C1L C2L 1_555 1_555
N2R Co1R 1_555 1_555
C1R C2R 1_555 1_555
C3R C4R 1_555 1_555
N1U Co1AA 1_555 1_555
N2U Co1U 1_555 1_555
C2U C3U 1_555 1_555
C3U C4U 1_555 1_555
Co1L Cl1L 1_555 1_555
Co1R Cl1R 1_555 1_555
Co1EA Cl1R 1_555 1_555
Co1LA Cl1L 1_555 1_555
Co1JC Cl1R 1_555 1_555
N1VC N2VC 1_555 1_555
N1YD N2YD 1_555 1_555
N1IE N2IE 1_555 1_555
N1LE N2LE 1_555 1_555
N1NE N2NE 1_555 1_555
N1AG N2AG 1_555 1_555

#END
