
#######################################################################
#
#                 Cambridge Crystallographic Data Centre
#                                CCDC 
#
#######################################################################
#
# If this CIF has been generated from an entry in the Cambridge 
# Structural Database, then it will include bibliographic, chemical, 
# crystal, experimental, refinement or atomic coordinate data resulting 
# from the CCDC's data processing and validation procedures.
#
#######################################################################

data_AQOMAW
_chemical_formula_moiety         'C120 H72 Cl6 Co33 N73 O12'
_symmetry_cell_setting           cubic
_symmetry_space_group_name_H-M   'P m -3 m'
_symmetry_Int_Tables_number      221
_space_group_name_Hall           '-P 4 2 3'
loop_
_symmetry_equiv_pos_site_id
_symmetry_equiv_pos_as_xyz
1 x,y,z
2 -x,-y,z
3 -x,y,-z
4 x,-y,-z
5 z,x,y
6 z,-x,-y
7 -z,-x,y
8 -z,x,-y
9 y,z,x
10 -y,z,-x
11 y,-z,-x
12 -y,-z,x
13 y,x,-z
14 -y,-x,-z
15 y,-x,z
16 -y,x,z
17 x,z,-y
18 -x,z,y
19 -x,-z,-y
20 x,-z,y
21 z,y,-x
22 z,-y,x
23 -z,y,x
24 -z,-y,-x
25 -x,-y,-z
26 x,y,-z
27 x,-y,z
28 -x,y,z
29 -z,-x,-y
30 -z,x,y
31 z,x,-y
32 z,-x,y
33 -y,-z,-x
34 y,-z,x
35 -y,z,x
36 y,z,-x
37 -y,-x,z
38 y,x,z
39 -y,x,-z
40 y,-x,-z
41 -x,-z,y
42 x,-z,-y
43 x,z,y
44 -x,z,-y
45 -z,-y,x
46 -z,y,-x
47 z,-y,-x
48 z,y,x
_cell_length_a                   18.8345(7)
_cell_length_b                   18.8345(7)
_cell_length_c                   18.8345(7)
_cell_angle_alpha                90
_cell_angle_beta                 90
_cell_angle_gamma                90
_cell_volume                     6681.32
loop_
_atom_site_label
_atom_site_type_symbol
_atom_site_fract_x
_atom_site_fract_y
_atom_site_fract_z
Co1 Co 0.36808(4) 0.0000 0.5000
Cl1 Cl 0.5000 0.0000 0.5000
O1 O 0.2488(2) 0.0000 0.5000
N1 N 0.37154(10) 0.07406(9) 0.57762(11)
C1 C 0.35155(13) 0.16474(16) 0.64845(13)
C2 C 0.32005(12) 0.22839(17) 0.67995(12)
C3 C 0.34951(18) 0.25930(12) 0.74070(12)
H1 H 0.3905 0.2385 0.7615
C4 C 0.32826(12) 0.12903(10) 0.58949(11)
H2 H 0.2880 0.1413 0.5617
N1G N 0.42238(11) 0.37154(10) 0.92594(9)
C1G C 0.35155(13) 0.35155(13) 0.83526(16)
C2G C 0.32005(12) 0.32005(12) 0.77161(17)
C3G C 0.25930(12) 0.34951(18) 0.74070(12)
H1G H 0.2385 0.3905 0.7615
C4G C 0.41051(11) 0.32826(12) 0.87097(10)
H2G H 0.4383 0.2880 0.8587
N1J N 0.07406(9) 0.42238(11) 0.62846(10)
C1J C 0.16474(16) 0.35155(13) 0.64845(13)
C2J C 0.22839(17) 0.32005(12) 0.67995(12)
C3J C 0.25930(12) 0.25930(12) 0.65049(18)
H1J H 0.2385 0.2385 0.6095
C4J C 0.12903(10) 0.41051(11) 0.67174(12)
H2J H 0.1413 0.4383 0.7120
N1KA N 0.07406(9) 0.37154(10) 0.57762(11)
C4KA C 0.12903(10) 0.32826(12) 0.58949(11)
H2KA H 0.1413 0.2880 0.5617
N1OA N 0.37154(10) 0.42238(11) 0.92594(9)
C4OA C 0.32826(12) 0.41051(11) 0.87097(10)
H2OA H 0.2880 0.4383 0.8587
N1SA N 0.42238(11) 0.07406(9) 0.62846(10)
C4SA C 0.41051(11) 0.12903(10) 0.67174(12)
H2SA H 0.4383 0.1413 0.7120
Co1A Co 0.63192(4) 0.0000 0.5000
O1A O 0.7512(2) 0.0000 0.5000
N1B N 0.62846(10) 0.07406(9) 0.42238(11)
C1B C 0.64845(13) 0.16474(16) 0.35155(13)
C2B C 0.67995(12) 0.22839(17) 0.32005(12)
C3B C 0.65049(18) 0.25930(12) 0.25930(12)
H1B H 0.6095 0.2385 0.2385
C4B C 0.67174(12) 0.12903(10) 0.41051(11)
H2B H 0.7120 0.1413 0.4383
N1D N 0.57762(11) 0.37154(10) 0.07406(9)
C1D C 0.64845(13) 0.35155(13) 0.16474(16)
C2D C 0.67995(12) 0.32005(12) 0.22839(17)
C3D C 0.74070(12) 0.34951(18) 0.25930(12)
H1D H 0.7615 0.3905 0.2385
C4D C 0.58949(11) 0.32826(12) 0.12903(10)
H2D H 0.5617 0.2880 0.1413
N1K N 0.92594(9) 0.42238(11) 0.37154(10)
C1K C 0.83526(16) 0.35155(13) 0.35155(13)
C2K C 0.77161(17) 0.32005(12) 0.32005(12)
C3K C 0.74070(12) 0.25930(12) 0.34951(18)
H1K H 0.7615 0.2385 0.3905
C4K C 0.87097(10) 0.41051(11) 0.32826(12)
H2K H 0.8587 0.4383 0.2880
N1LA N 0.92594(9) 0.37154(10) 0.42238(11)
C4LA C 0.87097(10) 0.32826(12) 0.41051(11)
H2LA H 0.8587 0.2880 0.4383
N1NA N 0.62846(10) 0.42238(11) 0.07406(9)
C4NA C 0.67174(12) 0.41051(11) 0.12903(10)
H2NA H 0.7120 0.4383 0.1413
N1UA N 0.57762(11) 0.07406(9) 0.37154(10)
C4UA C 0.58949(11) 0.12903(10) 0.32826(12)
H2UA H 0.5617 0.1413 0.2880
Co1D Co 0.5000 0.36808(4) 0.0000
Cl1D Cl 0.5000 0.5000 0.0000
O1D O 0.5000 0.2488(2) 0.0000
Co1E Co 0.5000 0.63192(4) 0.0000
O1E O 0.5000 0.7512(2) 0.0000
N1F N 0.42238(11) 0.62846(10) 0.07406(9)
C1F C 0.35155(13) 0.64845(13) 0.16474(16)
C2F C 0.32005(12) 0.67995(12) 0.22839(17)
C3F C 0.25930(12) 0.65049(18) 0.25930(12)
H1F H 0.2385 0.6095 0.2385
C4F C 0.41051(11) 0.67174(12) 0.12903(10)
H2F H 0.4383 0.7120 0.1413
N1H N 0.07406(9) 0.57762(11) 0.37154(10)
C1H C 0.16474(16) 0.64845(13) 0.35155(13)
C2H C 0.22839(17) 0.67995(12) 0.32005(12)
C3H C 0.25930(12) 0.74070(12) 0.34951(18)
H1H H 0.2385 0.7615 0.3905
C4H C 0.12903(10) 0.58949(11) 0.32826(12)
H2H H 0.1413 0.5617 0.2880
N1C N 0.37154(10) 0.92594(9) 0.42238(11)
C1C C 0.35155(13) 0.83526(16) 0.35155(13)
C2C C 0.32005(12) 0.77161(17) 0.32005(12)
C3C C 0.34951(18) 0.74070(12) 0.25930(12)
H1C H 0.3905 0.7615 0.2385
C4C C 0.32826(12) 0.87097(10) 0.41051(11)
H2C H 0.2880 0.8587 0.4383
N1RA N 0.42238(11) 0.92594(9) 0.37154(10)
C4RA C 0.41051(11) 0.87097(10) 0.32826(12)
H2RA H 0.4383 0.8587 0.2880
N1MA N 0.07406(9) 0.62846(10) 0.42238(11)
C4MA C 0.12903(10) 0.67174(12) 0.41051(11)
H2MA H 0.1413 0.7120 0.4383
N1PA N 0.37154(10) 0.57762(11) 0.07406(9)
C4PA C 0.32826(12) 0.58949(11) 0.12903(10)
H2PA H 0.2880 0.5617 0.1413
Co1D_2 Co 0.5000 0.36808(4) 1.0000
Cl1D_2 Cl 0.5000 0.5000 1.0000
O1D_2 O 0.5000 0.2488(2) 1.0000
Co1H Co 0.0000 0.5000 0.36808(4)
O1H O -0.0000 0.5000 0.2488(2)
Co1I Co -0.0000 0.5000 0.63192(4)
O1I O 0.0000 0.5000 0.7512(2)
Co1H_2 Co 1.0000 0.5000 0.36808(4)
O1H_2 O 1.0000 0.5000 0.2488(2)
Co1L Co 0.0000 0.36808(4) 0.5000
O1L O -0.0000 0.2488(2) 0.5000
N1L N 0.07406(9) 0.37154(10) 0.42238(11)
C1L C 0.16474(16) 0.35155(13) 0.35155(13)
C2L C 0.22839(17) 0.32005(12) 0.32005(12)
C3L C 0.25930(12) 0.34951(18) 0.25930(12)
H1L H 0.2385 0.3905 0.2385
C4L C 0.12903(10) 0.32826(12) 0.41051(11)
H2L H 0.1413 0.2880 0.4383
N1S N 0.37154(10) 0.42238(11) 0.07406(9)
C1S C 0.35155(13) 0.35155(13) 0.16474(16)
C2S C 0.32005(12) 0.32005(12) 0.22839(17)
C3S C 0.34951(18) 0.25930(12) 0.25930(12)
H1S H 0.3905 0.2385 0.2385
C4S C 0.32826(12) 0.41051(11) 0.12903(10)
H2S H 0.2880 0.4383 0.1413
N1V N 0.42238(11) 0.07406(9) 0.37154(10)
C1V C 0.35155(13) 0.16474(16) 0.35155(13)
C2V C 0.32005(12) 0.22839(17) 0.32005(12)
C3V C 0.25930(12) 0.25930(12) 0.34951(18)
H1V H 0.2385 0.2385 0.3905
C4V C 0.41051(11) 0.12903(10) 0.32826(12)
H2V H 0.4383 0.1413 0.2880
N1Y N 0.37154(10) 0.07406(9) 0.42238(11)
C4Y C 0.32826(12) 0.12903(10) 0.41051(11)
H2Y H 0.2880 0.1413 0.4383
N1CA N 0.42238(11) 0.37154(10) 0.07406(9)
C4CA C 0.41051(11) 0.32826(12) 0.12903(10)
H2CA H 0.4383 0.2880 0.1413
N1GA N 0.07406(9) 0.42238(11) 0.37154(10)
C4GA C 0.12903(10) 0.41051(11) 0.32826(12)
H2GA H 0.1413 0.4383 0.2880
N1L_2 N 0.07406(9) 0.37154(10) 1.42238(11)
C1L_2 C 0.16474(16) 0.35155(13) 1.35155(13)
C2L_2 C 0.22839(17) 0.32005(12) 1.32005(12)
C3L_2 C 0.25930(12) 0.34951(18) 1.25930(12)
H1L_2 H 0.2385 0.3905 1.2385
C4L_2 C 0.12903(10) 0.32826(12) 1.41051(11)
H2L_2 H 0.1413 0.2880 1.4383
N1S_2 N 0.37154(10) 0.42238(11) 1.07406(9)
C1S_2 C 0.35155(13) 0.35155(13) 1.16474(16)
C2S_2 C 0.32005(12) 0.32005(12) 1.22839(17)
C3S_2 C 0.34951(18) 0.25930(12) 1.25930(12)
H1S_2 H 0.3905 0.2385 1.2385
C4S_2 C 0.32826(12) 0.41051(11) 1.12903(10)
H2S_2 H 0.2880 0.4383 1.1413
N1V_2 N 0.42238(11) 0.07406(9) 1.37154(10)
C1V_2 C 0.35155(13) 0.16474(16) 1.35155(13)
C2V_2 C 0.32005(12) 0.22839(17) 1.32005(12)
C3V_2 C 0.25930(12) 0.25930(12) 1.34951(18)
H1V_2 H 0.2385 0.2385 1.3905
C4V_2 C 0.41051(11) 0.12903(10) 1.32826(12)
H2V_2 H 0.4383 0.1413 1.2880
N1Y_2 N 0.37154(10) 0.07406(9) 1.42238(11)
C4Y_2 C 0.32826(12) 0.12903(10) 1.41051(11)
H2Y_2 H 0.2880 0.1413 1.4383
N1CA_2 N 0.42238(11) 0.37154(10) 1.07406(9)
C4CA_2 C 0.41051(11) 0.32826(12) 1.12903(10)
H2CA_2 H 0.4383 0.2880 1.1413
N1GA_2 N 0.07406(9) 0.42238(11) 1.37154(10)
C4GA_2 C 0.12903(10) 0.41051(11) 1.32826(12)
H2GA_2 H 0.1413 0.4383 1.2880
Co1M Co -0.0000 -0.36808(4) 0.5000
O1M O 0.0000 -0.2488(2) 0.5000
N1N N 0.07406(9) -0.37154(10) 0.57762(11)
C1N C 0.16474(16) -0.35155(13) 0.64845(13)
C2N C 0.22839(17) -0.32005(12) 0.67995(12)
C3N C 0.25930(12) -0.34951(18) 0.74070(12)
H1N H 0.2385 -0.3905 0.7615
C4N C 0.12903(10) -0.32826(12) 0.58949(11)
H2N H 0.1413 -0.2880 0.5617
N1P N 0.37154(10) -0.42238(11) 0.92594(9)
C1P C 0.35155(13) -0.35155(13) 0.83526(16)
C2P C 0.32005(12) -0.32005(12) 0.77161(17)
C3P C 0.34951(18) -0.25930(12) 0.74070(12)
H1P H 0.3905 -0.2385 0.7615
C4P C 0.32826(12) -0.41051(11) 0.87097(10)
H2P H 0.2880 -0.4383 0.8587
N1W N 0.42238(11) -0.07406(9) 0.62846(10)
C1W C 0.35155(13) -0.16474(16) 0.64845(13)
C2W C 0.32005(12) -0.22839(17) 0.67995(12)
C3W C 0.25930(12) -0.25930(12) 0.65049(18)
H1W H 0.2385 -0.2385 0.6095
C4W C 0.41051(11) -0.12903(10) 0.67174(12)
H2W H 0.4383 -0.1413 0.7120
N1Z N 0.37154(10) -0.07406(9) 0.57762(11)
C4Z C 0.32826(12) -0.12903(10) 0.58949(11)
H2Z H 0.2880 -0.1413 0.5617
N1BA N 0.42238(11) -0.37154(10) 0.92594(9)
C4BA C 0.41051(11) -0.32826(12) 0.87097(10)
H2BA H 0.4383 -0.2880 0.8587
N1IA N 0.07406(9) -0.42238(11) 0.62846(10)
C4IA C 0.12903(10) -0.41051(11) 0.67174(12)
H2IA H 0.1413 -0.4383 0.7120
N1N_2 N 0.07406(9) 0.62846(10) 0.57762(11)
C1N_2 C 0.16474(16) 0.64845(13) 0.64845(13)
C2N_2 C 0.22839(17) 0.67995(12) 0.67995(12)
C3N_2 C 0.25930(12) 0.65049(18) 0.74070(12)
H1N_2 H 0.2385 0.6095 0.7615
C4N_2 C 0.12903(10) 0.67174(12) 0.58949(11)
H2N_2 H 0.1413 0.7120 0.5617
N1P_2 N 0.37154(10) 0.57762(11) 0.92594(9)
C1P_2 C 0.35155(13) 0.64845(13) 0.83526(16)
C2P_2 C 0.32005(12) 0.67995(12) 0.77161(17)
C3P_2 C 0.34951(18) 0.74070(12) 0.74070(12)
H1P_2 H 0.3905 0.7615 0.7615
C4P_2 C 0.32826(12) 0.58949(11) 0.87097(10)
H2P_2 H 0.2880 0.5617 0.8587
N1W_2 N 0.42238(11) 0.92594(9) 0.62846(10)
C1W_2 C 0.35155(13) 0.83526(16) 0.64845(13)
C2W_2 C 0.32005(12) 0.77161(17) 0.67995(12)
C3W_2 C 0.25930(12) 0.74070(12) 0.65049(18)
H1W_2 H 0.2385 0.7615 0.6095
C4W_2 C 0.41051(11) 0.87097(10) 0.67174(12)
H2W_2 H 0.4383 0.8587 0.7120
N1Z_2 N 0.37154(10) 0.92594(9) 0.57762(11)
C4Z_2 C 0.32826(12) 0.87097(10) 0.58949(11)
H2Z_2 H 0.2880 0.8587 0.5617
N1BA_2 N 0.42238(11) 0.62846(10) 0.92594(9)
C4BA_2 C 0.41051(11) 0.67174(12) 0.87097(10)
H2BA_2 H 0.4383 0.7120 0.8587
N1IA_2 N 0.07406(9) 0.57762(11) 0.62846(10)
C4IA_2 C 0.12903(10) 0.58949(11) 0.67174(12)
H2IA_2 H 0.1413 0.5617 0.7120
N1O N -0.07406(9) 0.37154(10) 0.57762(11)
C1O C -0.16474(16) 0.35155(13) 0.64845(13)
C2O C -0.22839(17) 0.32005(12) 0.67995(12)
C3O C -0.25930(12) 0.34951(18) 0.74070(12)
H1O H -0.2385 0.3905 0.7615
C4O C -0.12903(10) 0.32826(12) 0.58949(11)
H2O H -0.1413 0.2880 0.5617
N1R N -0.37154(10) 0.42238(11) 0.92594(9)
C1R C -0.35155(13) 0.35155(13) 0.83526(16)
C2R C -0.32005(12) 0.32005(12) 0.77161(17)
C3R C -0.34951(18) 0.25930(12) 0.74070(12)
H1R H -0.3905 0.2385 0.7615
C4R C -0.32826(12) 0.41051(11) 0.87097(10)
H2R H -0.2880 0.4383 0.8587
N1T N -0.42238(11) 0.07406(9) 0.62846(10)
C1T C -0.35155(13) 0.16474(16) 0.64845(13)
C2T C -0.32005(12) 0.22839(17) 0.67995(12)
C3T C -0.25930(12) 0.25930(12) 0.65049(18)
H1T H -0.2385 0.2385 0.6095
C4T C -0.41051(11) 0.12903(10) 0.67174(12)
H2T H -0.4383 0.1413 0.7120
N1AA N -0.37154(10) 0.07406(9) 0.57762(11)
C4AA C -0.32826(12) 0.12903(10) 0.58949(11)
H2AA H -0.2880 0.1413 0.5617
N1DA N -0.42238(11) 0.37154(10) 0.92594(9)
C4DA C -0.41051(11) 0.32826(12) 0.87097(10)
H2DA H -0.4383 0.2880 0.8587
N1FA N -0.07406(9) 0.42238(11) 0.62846(10)
C4FA C -0.12903(10) 0.41051(11) 0.67174(12)
H2FA H -0.1413 0.4383 0.7120
Co1T Co 0.5000 -0.0000 0.63192(4)
O1T O 0.5000 0.0000 0.7512(2)
Co1U Co 0.5000 0.0000 0.36808(4)
O1U O 0.5000 -0.0000 0.2488(2)
Co1_2 Co 0.36808(4) 0.0000 1.5000
Co1_3 Co 0.36808(4) 1.0000 0.5000
Co1A_2 Co -0.36808(4) 0.0000 0.5000
Co1D_3 Co -0.5000 0.36808(4) 1.0000
Co1E_2 Co 0.5000 -0.36808(4) 1.0000
Co1E_3 Co 0.5000 0.63192(4) 1.0000
Co1H_3 Co -0.0000 0.5000 1.36808(4)
Co1I_2 Co -0.0000 -0.5000 0.63192(4)
Co1L_2 Co 0.0000 0.36808(4) 1.5000
Co1L_3 Co 1.0000 0.36808(4) 0.5000
Co1M_2 Co -0.0000 0.63192(4) 0.5000
Co1P Co 0.36808(4) -0.5000 1.0000
Co1P_2 Co 0.36808(4) 0.5000 0.0000
Co1P_3 Co 0.36808(4) 0.5000 1.0000
Co1Q Co -0.36808(4) 0.5000 1.0000
Co1Q_2 Co 0.63192(4) 0.5000 0.0000
Co1Q_3 Co 0.63192(4) 0.5000 1.0000
Co1T_2 Co -0.5000 -0.0000 0.63192(4)
Co1T_3 Co 0.5000 1.0000 0.63192(4)
Co1U_2 Co 0.5000 -0.0000 1.36808(4)
Co1U_3 Co 0.5000 1.0000 0.36808(4)
Cl1H Cl 0.0000 -0.5000 0.5000
Cl1H_2 Cl 0.0000 0.5000 0.5000
Cl1H_3 Cl 1.0000 0.5000 0.5000
N1A N 0.62846(10) -0.07406(9) 0.57762(11)
N1C_2 N 0.37154(10) -0.07406(9) 0.42238(11)
N1D_2 N 0.57762(11) 0.37154(10) 1.07406(9)
N1E N 0.57762(11) 0.62846(10) -0.07406(9)
N1G_2 N 0.42238(11) 0.37154(10) -0.07406(9)
N1H_2 N 1.07406(9) 0.57762(11) 0.37154(10)
N1I N -0.07406(9) 0.57762(11) 0.62846(10)
N1K_2 N -0.07406(9) 0.42238(11) 0.37154(10)
N1M N -0.07406(9) -0.37154(10) 0.42238(11)
N1T_2 N 0.57762(11) 0.07406(9) 0.62846(10)
N1U N 0.57762(11) -0.07406(9) 0.37154(10)
N1X N 0.62846(10) -0.07406(9) 0.42238(11)
N1AA_2 N 0.62846(10) 0.07406(9) 0.57762(11)
N1BA_3 N 0.42238(11) 0.62846(10) -0.07406(9)
N1DA_2 N 0.57762(11) 0.37154(10) -0.07406(9)
N1DA_3 N 0.57762(11) 0.37154(10) 0.92594(9)
N1EA N 0.57762(11) 0.62846(10) 0.07406(9)
N1GA_3 N 1.07406(9) 0.42238(11) 0.37154(10)
N1HA N -0.07406(9) 0.57762(11) 0.37154(10)
N1HA_2 N 0.92594(9) 0.57762(11) 0.37154(10)
N1JA N -0.07406(9) -0.37154(10) 0.57762(11)
N1LA_2 N -0.07406(9) 0.37154(10) 0.42238(11)
N1MA_2 N 0.07406(9) -0.37154(10) 0.42238(11)
N1RA_2 N 0.42238(11) -0.07406(9) 0.37154(10)
N1TA N 0.57762(11) -0.07406(9) 0.62846(10)
loop_
_geom_bond_atom_site_label_1
_geom_bond_atom_site_label_2
_geom_bond_site_symmetry_1
_geom_bond_site_symmetry_2
Co1 Cl1 1_555 1_555
Cl1 Co1A 1_555 1_555
O1 Co1 1_555 1_555
N1 Co1 1_555 1_555
C1 C2 1_555 1_555
C2 C3 1_555 1_555
C3 H1 1_555 1_555
C4 N1 1_555 1_555
H2 C4 1_555 1_555
N1G C4G 1_555 1_555
C1G C2G 1_555 1_555
C2G C3 1_555 1_555
C3G C2G 1_555 1_555
H1G C3G 1_555 1_555
C4G C1G 1_555 1_555
H2G C4G 1_555 1_555
N1J C4J 1_555 1_555
C1J C2J 1_555 1_555
C2J C3G 1_555 1_555
C3J C2 1_555 1_555
H1J C3J 1_555 1_555
C4J C1J 1_555 1_555
H2J C4J 1_555 1_555
N1KA N1J 1_555 1_555
C4KA C1J 1_555 1_555
H2KA C4KA 1_555 1_555
N1OA N1G 1_555 1_555
C4OA C1G 1_555 1_555
H2OA C4OA 1_555 1_555
N1SA N1 1_555 1_555
C4SA C1 1_555 1_555
H2SA C4SA 1_555 1_555
Co1A O1A 1_555 1_555
N1B Co1A 1_555 1_555
C1B C2B 1_555 1_555
C2B C3B 1_555 1_555
C3B H1B 1_555 1_555
C4B N1B 1_555 1_555
H2B C4B 1_555 1_555
N1D C4D 1_555 1_555
C1D C2D 1_555 1_555
C2D C3B 1_555 1_555
C3D C2D 1_555 1_555
H1D C3D 1_555 1_555
C4D C1D 1_555 1_555
H2D C4D 1_555 1_555
N1K C4K 1_555 1_555
C1K C2K 1_555 1_555
C2K C3D 1_555 1_555
C3K C2B 1_555 1_555
H1K C3K 1_555 1_555
C4K C1K 1_555 1_555
H2K C4K 1_555 1_555
N1LA N1K 1_555 1_555
C4LA C1K 1_555 1_555
H2LA C4LA 1_555 1_555
N1NA N1D 1_555 1_555
C4NA C1D 1_555 1_555
H2NA C4NA 1_555 1_555
N1UA N1B 1_555 1_555
C4UA C1B 1_555 1_555
H2UA C4UA 1_555 1_555
Co1D N1D 1_555 1_555
Cl1D Co1D 1_555 1_555
O1D Co1D 1_555 1_555
Co1E Cl1D 1_555 1_555
O1E Co1E 1_555 1_555
N1F Co1E 1_555 1_555
C1F C2F 1_555 1_555
C2F C3F 1_555 1_555
C3F H1F 1_555 1_555
C4F N1F 1_555 1_555
H2F C4F 1_555 1_555
N1H C4H 1_555 1_555
C1H C2H 1_555 1_555
C2H C3F 1_555 1_555
C3H C2H 1_555 1_555
H1H C3H 1_555 1_555
C4H C1H 1_555 1_555
H2H C4H 1_555 1_555
N1C C4C 1_555 1_555
C1C C2C 1_555 1_555
C2C C3H 1_555 1_555
C3C C2F 1_555 1_555
H1C C3C 1_555 1_555
C4C C1C 1_555 1_555
H2C C4C 1_555 1_555
N1RA N1C 1_555 1_555
C4RA C1C 1_555 1_555
H2RA C4RA 1_555 1_555
N1MA N1H 1_555 1_555
C4MA C1H 1_555 1_555
H2MA C4MA 1_555 1_555
N1PA N1F 1_555 1_555
C4PA C1F 1_555 1_555
H2PA C4PA 1_555 1_555
Co1D_2 N1G 1_555 1_555
Cl1D_2 Co1D_2 1_555 1_555
O1D_2 Co1D_2 1_555 1_555
Co1H N1H 1_555 1_555
O1H Co1H 1_555 1_555
Co1I N1J 1_555 1_555
O1I Co1I 1_555 1_555
Co1H_2 N1K 1_555 1_555
O1H_2 Co1H_2 1_555 1_555
Co1L N1KA 1_555 1_555
O1L Co1L 1_555 1_555
N1L Co1L 1_555 1_555
C1L C2L 1_555 1_555
C2L C3L 1_555 1_555
C3L H1L 1_555 1_555
C4L N1L 1_555 1_555
H2L C4L 1_555 1_555
N1S C4S 1_555 1_555
C1S C2S 1_555 1_555
C2S C3L 1_555 1_555
C3S C2S 1_555 1_555
H1S C3S 1_555 1_555
C4S C1S 1_555 1_555
H2S C4S 1_555 1_555
N1V C4V 1_555 1_555
C1V C2V 1_555 1_555
C2V C3S 1_555 1_555
C3V C2L 1_555 1_555
H1V C3V 1_555 1_555
C4V C1V 1_555 1_555
H2V C4V 1_555 1_555
N1Y Co1 1_555 1_555
C4Y C1V 1_555 1_555
H2Y C4Y 1_555 1_555
N1CA Co1D 1_555 1_555
C4CA C1S 1_555 1_555
H2CA C4CA 1_555 1_555
N1GA Co1H 1_555 1_555
C4GA C1L 1_555 1_555
H2GA C4GA 1_555 1_555
N1L_2 C4L_2 1_555 1_555
C1L_2 C2L_2 1_555 1_555
C2L_2 C3L_2 1_555 1_555
C3L_2 H1L_2 1_555 1_555
C4L_2 C1L_2 1_555 1_555
H2L_2 C4L_2 1_555 1_555
N1S_2 C4S_2 1_555 1_555
C1S_2 C2S_2 1_555 1_555
C2S_2 C3L_2 1_555 1_555
C3S_2 C2S_2 1_555 1_555
H1S_2 C3S_2 1_555 1_555
C4S_2 C1S_2 1_555 1_555
H2S_2 C4S_2 1_555 1_555
N1V_2 C4V_2 1_555 1_555
C1V_2 C2V_2 1_555 1_555
C2V_2 C3S_2 1_555 1_555
C3V_2 C2L_2 1_555 1_555
H1V_2 C3V_2 1_555 1_555
C4V_2 C1V_2 1_555 1_555
H2V_2 C4V_2 1_555 1_555
N1Y_2 N1V_2 1_555 1_555
C4Y_2 C1V_2 1_555 1_555
H2Y_2 C4Y_2 1_555 1_555
N1CA_2 Co1D_2 1_555 1_555
C4CA_2 C1S_2 1_555 1_555
H2CA_2 C4CA_2 1_555 1_555
N1GA_2 N1L_2 1_555 1_555
C4GA_2 C1L_2 1_555 1_555
H2GA_2 C4GA_2 1_555 1_555
Co1M O1M 1_555 1_555
N1N Co1M 1_555 1_555
C1N C2N 1_555 1_555
C2N C3N 1_555 1_555
C3N H1N 1_555 1_555
C4N N1N 1_555 1_555
H2N C4N 1_555 1_555
N1P C4P 1_555 1_555
C1P C2P 1_555 1_555
C2P C3N 1_555 1_555
C3P C2P 1_555 1_555
H1P C3P 1_555 1_555
C4P C1P 1_555 1_555
H2P C4P 1_555 1_555
N1W C4W 1_555 1_555
C1W C2W 1_555 1_555
C2W C3P 1_555 1_555
C3W C2N 1_555 1_555
H1W C3W 1_555 1_555
C4W C1W 1_555 1_555
H2W C4W 1_555 1_555
N1Z Co1 1_555 1_555
C4Z C1W 1_555 1_555
H2Z C4Z 1_555 1_555
N1BA N1P 1_555 1_555
C4BA C1P 1_555 1_555
H2BA C4BA 1_555 1_555
N1IA N1N 1_555 1_555
C4IA C1N 1_555 1_555
H2IA C4IA 1_555 1_555
N1N_2 C4N_2 1_555 1_555
C1N_2 C2N_2 1_555 1_555
C2N_2 C3N_2 1_555 1_555
C3N_2 H1N_2 1_555 1_555
C4N_2 C1N_2 1_555 1_555
H2N_2 C4N_2 1_555 1_555
N1P_2 C4P_2 1_555 1_555
C1P_2 C2P_2 1_555 1_555
C2P_2 C3N_2 1_555 1_555
C3P_2 C2P_2 1_555 1_555
H1P_2 C3P_2 1_555 1_555
C4P_2 C1P_2 1_555 1_555
H2P_2 C4P_2 1_555 1_555
N1W_2 C4W_2 1_555 1_555
C1W_2 C2W_2 1_555 1_555
C2W_2 C3P_2 1_555 1_555
C3W_2 C2N_2 1_555 1_555
H1W_2 C3W_2 1_555 1_555
C4W_2 C1W_2 1_555 1_555
H2W_2 C4W_2 1_555 1_555
N1Z_2 N1W_2 1_555 1_555
C4Z_2 C1W_2 1_555 1_555
H2Z_2 C4Z_2 1_555 1_555
N1BA_2 N1P_2 1_555 1_555
C4BA_2 C1P_2 1_555 1_555
H2BA_2 C4BA_2 1_555 1_555
N1IA_2 Co1I 1_555 1_555
C4IA_2 C1N_2 1_555 1_555
H2IA_2 C4IA_2 1_555 1_555
N1O Co1L 1_555 1_555
C1O C2O 1_555 1_555
C2O C3O 1_555 1_555
C3O H1O 1_555 1_555
C4O N1O 1_555 1_555
H2O C4O 1_555 1_555
N1R C4R 1_555 1_555
C1R C2R 1_555 1_555
C2R C3O 1_555 1_555
C3R C2R 1_555 1_555
H1R C3R 1_555 1_555
C4R C1R 1_555 1_555
H2R C4R 1_555 1_555
N1T C4T 1_555 1_555
C1T C2T 1_555 1_555
C2T C3R 1_555 1_555
C3T C2O 1_555 1_555
H1T C3T 1_555 1_555
C4T C1T 1_555 1_555
H2T C4T 1_555 1_555
N1AA N1T 1_555 1_555
C4AA C1T 1_555 1_555
H2AA C4AA 1_555 1_555
N1DA N1R 1_555 1_555
C4DA C1R 1_555 1_555
H2DA C4DA 1_555 1_555
N1FA Co1I 1_555 1_555
C4FA C1O 1_555 1_555
H2FA C4FA 1_555 1_555
Co1T Cl1 1_555 1_555
O1T Co1T 1_555 1_555
Co1U Cl1 1_555 1_555
O1U Co1U 1_555 1_555
Co1_2 N1Y_2 1_555 1_555
Co1_3 N1C 1_555 1_555
Co1A_2 N1AA 1_555 1_555
Co1D_3 N1DA 1_555 1_555
Co1E_2 N1BA 1_555 1_555
Co1E_3 Cl1D_2 1_555 1_555
Co1H_3 N1GA_2 1_555 1_555
Co1I_2 N1IA 1_555 1_555
Co1L_2 N1L_2 1_555 1_555
Co1L_3 N1LA 1_555 1_555
Co1M_2 N1MA 1_555 1_555
Co1P N1P 1_555 1_555
Co1P_2 Cl1D 1_555 1_555
Co1P_3 N1OA 1_555 1_555
Co1Q N1R 1_555 1_555
Co1Q_2 N1NA 1_555 1_555
Co1Q_3 Cl1D_2 1_555 1_555
Co1T_2 N1T 1_555 1_555
Co1T_3 N1W_2 1_555 1_555
Co1U_2 N1V_2 1_555 1_555
Co1U_3 N1RA 1_555 1_555
Cl1H Co1M 1_555 1_555
Cl1H_2 Co1H 1_555 1_555
Cl1H_3 Co1H_2 1_555 1_555
N1A Co1A 1_555 1_555
N1C_2 Co1 1_555 1_555
N1D_2 Co1D_2 1_555 1_555
N1E Co1E 1_555 1_555
N1G_2 Co1D 1_555 1_555
N1H_2 Co1H_2 1_555 1_555
N1I Co1I 1_555 1_555
N1K_2 Co1H 1_555 1_555
N1M Co1M 1_555 1_555
N1T_2 Co1T 1_555 1_555
N1U Co1U 1_555 1_555
N1X Co1A 1_555 1_555
N1AA_2 Co1A 1_555 1_555
N1BA_3 Co1E 1_555 1_555
N1DA_2 Co1D 1_555 1_555
N1DA_3 Co1D_2 1_555 1_555
N1EA Co1E 1_555 1_555
N1GA_3 Co1H_2 1_555 1_555
N1HA Co1H 1_555 1_555
N1HA_2 Co1H_2 1_555 1_555
N1JA Co1M 1_555 1_555
N1LA_2 Co1L 1_555 1_555
N1MA_2 Co1M 1_555 1_555
N1RA_2 Co1U 1_555 1_555
N1TA Co1T 1_555 1_555
C1 C4 1_555 1_555
C2J C3J 1_555 1_555
N1KA C4KA 1_555 1_555
N1OA C4OA 1_555 1_555
N1SA C4SA 1_555 1_555
N1SA Co1T 1_555 1_555
C1B C4B 1_555 1_555
C2K C3K 1_555 1_555
N1LA C4LA 1_555 1_555
N1NA C4NA 1_555 1_555
N1UA C4UA 1_555 1_555
N1UA Co1U 1_555 1_555
Cl1D Co1Q_2 1_555 1_555
C1F C4F 1_555 1_555
C2C C3C 1_555 1_555
N1RA C4RA 1_555 1_555
N1MA C4MA 1_555 1_555
N1PA C4PA 1_555 1_555
N1PA Co1P_2 1_555 1_555
Cl1D_2 Co1P_3 1_555 1_555
Co1I Cl1H_2 1_555 1_555
Co1L Cl1H_2 1_555 1_555
N1L N1GA 1_555 1_555
C1L C4L 1_555 1_555
N1S N1CA 1_555 1_555
N1S Co1P_2 1_555 1_555
N1V N1Y 1_555 1_555
N1V Co1U 1_555 1_555
C2V C3V 1_555 1_555
N1Y C4Y 1_555 1_555
N1CA C4CA 1_555 1_555
N1GA C4GA 1_555 1_555
N1S_2 N1CA_2 1_555 1_555
N1S_2 Co1P_3 1_555 1_555
C2V_2 C3V_2 1_555 1_555
N1Y_2 C4Y_2 1_555 1_555
N1CA_2 C4CA_2 1_555 1_555
N1GA_2 C4GA_2 1_555 1_555
C1N C4N 1_555 1_555
N1W N1Z 1_555 1_555
N1W Co1T 1_555 1_555
C2W C3W 1_555 1_555
N1Z C4Z 1_555 1_555
N1BA C4BA 1_555 1_555
N1IA C4IA 1_555 1_555
N1N_2 N1IA_2 1_555 1_555
N1N_2 Co1M_2 1_555 1_555
N1P_2 Co1P_3 1_555 1_555
C2W_2 C3W_2 1_555 1_555
N1Z_2 C4Z_2 1_555 1_555
N1Z_2 Co1_3 1_555 1_555
N1BA_2 C4BA_2 1_555 1_555
N1BA_2 Co1E_3 1_555 1_555
N1IA_2 C4IA_2 1_555 1_555
N1O N1FA 1_555 1_555
C1O C4O 1_555 1_555
C2T C3T 1_555 1_555
N1AA C4AA 1_555 1_555
N1DA C4DA 1_555 1_555
N1FA C4FA 1_555 1_555
Co1I_2 Cl1H 1_555 1_555
Co1L_3 Cl1H_3 1_555 1_555
Co1M_2 Cl1H_2 1_555 1_555
N1A N1TA 1_555 1_555
N1C_2 N1RA_2 1_555 1_555
N1K_2 N1LA_2 1_555 1_555
N1T_2 N1AA_2 1_555 1_555
N1U N1X 1_555 1_555

#END
