
#######################################################################
#
#                 Cambridge Crystallographic Data Centre
#                                CCDC 
#
#######################################################################
#
# If this CIF has been generated from an entry in the Cambridge 
# Structural Database, then it will include bibliographic, chemical, 
# crystal, experimental, refinement or atomic coordinate data resulting 
# from the CCDC's data processing and validation procedures.
#
#######################################################################

data_JALLOA
_chemical_formula_moiety         '(C9 H16 Ce3 O17)n'
_symmetry_cell_setting           cubic
_symmetry_space_group_name_H-M   'F d -3 m'
_symmetry_Int_Tables_number      227
_space_group_name_Hall           '-F 4vw 2vw 3'
loop_
_symmetry_equiv_pos_site_id
_symmetry_equiv_pos_as_xyz
1 x,y,z
2 -y,1/4+x,1/4+z
3 1/4-x,1/4-y,z
4 1/4+y,-x,1/4+z
5 1/4+x,-z,1/4+y
6 x,1/4-y,1/4-z
7 1/4+x,1/4+z,-y
8 1/4+z,1/4+y,-x
9 1/4-x,y,1/4-z
10 -z,1/4+y,1/4+x
11 z,x,y
12 y,z,x
13 1/4-y,1/4-z,x
14 z,1/4-x,1/4-y
15 1/4-y,z,1/4-x
16 1/4-z,1/4-x,y
17 1/4-z,x,1/4-y
18 y,1/4-z,1/4-x
19 1/4+y,1/4+x,-z
20 -y,-x,-z
21 -x,1/4+z,1/4+y
22 -x,-z,-y
23 1/4+z,-y,1/4+x
24 -z,-y,-x
25 x,1/2+y,1/2+z
26 -y,3/4+x,3/4+z
27 1/4-x,3/4-y,1/2+z
28 1/4+y,1/2-x,3/4+z
29 1/4+x,1/2-z,3/4+y
30 x,3/4-y,3/4-z
31 1/4+x,3/4+z,1/2-y
32 1/4+z,3/4+y,1/2-x
33 1/4-x,1/2+y,3/4-z
34 -z,3/4+y,3/4+x
35 z,1/2+x,1/2+y
36 y,1/2+z,1/2+x
37 1/4-y,3/4-z,1/2+x
38 z,3/4-x,3/4-y
39 1/4-y,1/2+z,3/4-x
40 1/4-z,3/4-x,1/2+y
41 1/4-z,1/2+x,3/4-y
42 y,3/4-z,3/4-x
43 1/4+y,3/4+x,1/2-z
44 -y,1/2-x,1/2-z
45 -x,3/4+z,3/4+y
46 -x,1/2-z,1/2-y
47 1/4+z,1/2-y,3/4+x
48 -z,1/2-y,1/2-x
49 1/2+x,y,1/2+z
50 1/2-y,1/4+x,3/4+z
51 3/4-x,1/4-y,1/2+z
52 3/4+y,-x,3/4+z
53 3/4+x,-z,3/4+y
54 1/2+x,1/4-y,3/4-z
55 3/4+x,1/4+z,1/2-y
56 3/4+z,1/4+y,1/2-x
57 3/4-x,y,3/4-z
58 1/2-z,1/4+y,3/4+x
59 1/2+z,x,1/2+y
60 1/2+y,z,1/2+x
61 3/4-y,1/4-z,1/2+x
62 1/2+z,1/4-x,3/4-y
63 3/4-y,z,3/4-x
64 3/4-z,1/4-x,1/2+y
65 3/4-z,x,3/4-y
66 1/2+y,1/4-z,3/4-x
67 3/4+y,1/4+x,1/2-z
68 1/2-y,-x,1/2-z
69 1/2-x,1/4+z,3/4+y
70 1/2-x,-z,1/2-y
71 3/4+z,-y,3/4+x
72 1/2-z,-y,1/2-x
73 1/2+x,1/2+y,z
74 1/2-y,3/4+x,1/4+z
75 3/4-x,3/4-y,z
76 3/4+y,1/2-x,1/4+z
77 3/4+x,1/2-z,1/4+y
78 1/2+x,3/4-y,1/4-z
79 3/4+x,3/4+z,-y
80 3/4+z,3/4+y,-x
81 3/4-x,1/2+y,1/4-z
82 1/2-z,3/4+y,1/4+x
83 1/2+z,1/2+x,y
84 1/2+y,1/2+z,x
85 3/4-y,3/4-z,x
86 1/2+z,3/4-x,1/4-y
87 3/4-y,1/2+z,1/4-x
88 3/4-z,3/4-x,y
89 3/4-z,1/2+x,1/4-y
90 1/2+y,3/4-z,1/4-x
91 3/4+y,3/4+x,-z
92 1/2-y,1/2-x,-z
93 1/2-x,3/4+z,1/4+y
94 1/2-x,1/2-z,-y
95 3/4+z,1/2-y,1/4+x
96 1/2-z,1/2-y,-x
97 -x,-y,-z
98 y,3/4-x,3/4-z
99 3/4+x,3/4+y,-z
100 3/4-y,x,3/4-z
101 3/4-x,z,3/4-y
102 -x,3/4+y,3/4+z
103 3/4-x,3/4-z,y
104 3/4-z,3/4-y,x
105 3/4+x,-y,3/4+z
106 z,3/4-y,3/4-x
107 -z,-x,-y
108 -y,-z,-x
109 3/4+y,3/4+z,-x
110 -z,3/4+x,3/4+y
111 3/4+y,-z,3/4+x
112 3/4+z,3/4+x,-y
113 3/4+z,-x,3/4+y
114 -y,3/4+z,3/4+x
115 3/4-y,3/4-x,z
116 y,x,z
117 x,3/4-z,3/4-y
118 x,z,y
119 3/4-z,y,3/4-x
120 z,y,x
121 -x,1/2-y,1/2-z
122 y,1/4-x,1/4-z
123 3/4+x,1/4+y,1/2-z
124 3/4-y,1/2+x,1/4-z
125 3/4-x,1/2+z,1/4-y
126 -x,1/4+y,1/4+z
127 3/4-x,1/4-z,1/2+y
128 3/4-z,1/4-y,1/2+x
129 3/4+x,1/2-y,1/4+z
130 z,1/4-y,1/4-x
131 -z,1/2-x,1/2-y
132 -y,1/2-z,1/2-x
133 3/4+y,1/4+z,1/2-x
134 -z,1/4+x,1/4+y
135 3/4+y,1/2-z,1/4+x
136 3/4+z,1/4+x,1/2-y
137 3/4+z,1/2-x,1/4+y
138 -y,1/4+z,1/4+x
139 3/4-y,1/4-x,1/2+z
140 y,1/2+x,1/2+z
141 x,1/4-z,1/4-y
142 x,1/2+z,1/2+y
143 3/4-z,1/2+y,1/4-x
144 z,1/2+y,1/2+x
145 1/2-x,-y,1/2-z
146 1/2+y,3/4-x,1/4-z
147 1/4+x,3/4+y,1/2-z
148 1/4-y,x,1/4-z
149 1/4-x,z,1/4-y
150 1/2-x,3/4+y,1/4+z
151 1/4-x,3/4-z,1/2+y
152 1/4-z,3/4-y,1/2+x
153 1/4+x,-y,1/4+z
154 1/2+z,3/4-y,1/4-x
155 1/2-z,-x,1/2-y
156 1/2-y,-z,1/2-x
157 1/4+y,3/4+z,1/2-x
158 1/2-z,3/4+x,1/4+y
159 1/4+y,-z,1/4+x
160 1/4+z,3/4+x,1/2-y
161 1/4+z,-x,1/4+y
162 1/2-y,3/4+z,1/4+x
163 1/4-y,3/4-x,1/2+z
164 1/2+y,x,1/2+z
165 1/2+x,3/4-z,1/4-y
166 1/2+x,z,1/2+y
167 1/4-z,y,1/4-x
168 1/2+z,y,1/2+x
169 1/2-x,1/2-y,-z
170 1/2+y,1/4-x,3/4-z
171 1/4+x,1/4+y,-z
172 1/4-y,1/2+x,3/4-z
173 1/4-x,1/2+z,3/4-y
174 1/2-x,1/4+y,3/4+z
175 1/4-x,1/4-z,y
176 1/4-z,1/4-y,x
177 1/4+x,1/2-y,3/4+z
178 1/2+z,1/4-y,3/4-x
179 1/2-z,1/2-x,-y
180 1/2-y,1/2-z,-x
181 1/4+y,1/4+z,-x
182 1/2-z,1/4+x,3/4+y
183 1/4+y,1/2-z,3/4+x
184 1/4+z,1/4+x,-y
185 1/4+z,1/2-x,3/4+y
186 1/2-y,1/4+z,3/4+x
187 1/4-y,1/4-x,z
188 1/2+y,1/2+x,z
189 1/2+x,1/4-z,3/4-y
190 1/2+x,1/2+z,y
191 1/4-z,1/2+y,3/4-x
192 1/2+z,1/2+y,x
_cell_length_a                   36.4514(18)
_cell_length_b                   36.4514(18)
_cell_length_c                   36.4514(18)
_cell_angle_alpha                90
_cell_angle_beta                 90
_cell_angle_gamma                90
_cell_volume                     48433.1
loop_
_atom_site_label
_atom_site_type_symbol
_atom_site_fract_x
_atom_site_fract_y
_atom_site_fract_z
_atom_site_U_iso_or_equiv
_atom_site_thermal_displace_type
O5 O 0.875 0.375 0.375 0.2533 Uiso
Ce1 Ce 0.79970(10) 0.22670(15) 0.45030(10) 0.0423 Uiso
O1 O 0.76430(45) 0.1809(12) 0.48570(45) 0.1046 Uiso
O2 O 0.78865(87) 0.28865(87) 0.46135(87) 0.1046 Uiso
C1 C 0.78307(47) 0.28307(47) 0.37678(63) 0.1046 Uiso
C2 C 0.80313(44) 0.30313(44) 0.34938(74) 0.1046 Uiso
C3 C 0.78782(67) 0.33345(51) 0.33345(51) 0.1046 Uiso
O3 O 0.79959(36) 0.25634(30) 0.39018(42) 0.1046 Uiso
O4 O 0.78140(42) 0.17500(48) 0.41160(69) 0.1046 Uiso
C1MD C 0.78307(47) 0.37678(63) 0.28307(47) 0.1046 Uiso
C2MD C 0.80313(44) 0.34938(74) 0.30313(44) 0.1046 Uiso
O3MD O 0.79959(36) 0.39018(42) 0.25634(30) 0.1046 Uiso
C3GB C 0.83345(51) 0.33345(51) 0.28782(67) 0.1046 Uiso
O3GB O 0.75634(30) 0.39018(42) 0.29959(36) 0.1046 Uiso
C1KF C 0.87678(63) 0.28307(47) 0.28307(47) 0.1046 Uiso
C2KF C 0.84938(74) 0.30313(44) 0.30313(44) 0.1046 Uiso
O3KF O 0.89018(42) 0.25634(30) 0.29959(36) 0.1046 Uiso
C3DC C 0.83345(51) 0.28782(67) 0.33345(51) 0.1046 Uiso
O3DC O 0.89018(42) 0.29959(36) 0.25634(30) 0.1046 Uiso
O3EG O 0.75634(30) 0.29959(36) 0.39018(42) 0.1046 Uiso
Ce1O Ce 0.79970(10) 0.45030(10) 0.22670(15) 0.0423 Uiso
O1O O 0.76430(45) 0.48570(45) 0.1809(12) 0.1046 Uiso
O4O O 0.83840(69) 0.46860(42) 0.17500(48) 0.1046 Uiso
O4MD O 0.78140(42) 0.41160(69) 0.17500(48) 0.1046 Uiso
O4JF O 0.83840(69) 0.17500(48) 0.46860(42) 0.1046 Uiso
Ce1DF Ce 0.70030(10) 0.20030(10) 0.47670(15) 0.0423 Uiso
O1DF O 0.73570(45) 0.23570(45) 0.4309(12) 0.1046 Uiso
O4NC O 0.71860(42) 0.16160(69) 0.42500(48) 0.1046 Uiso
O4DF O 0.66160(69) 0.21860(42) 0.42500(48) 0.1046 Uiso
Ce1G Ce 0.70030(10) 0.47670(15) 0.20030(10) 0.0423 Uiso
Ce1S Ce 0.77330(15) 0.20030(10) 0.54970(10) 0.0423 Uiso
Ce1CD Ce 0.77330(15) 0.54970(10) 0.20030(10) 0.0423 Uiso
Ce1NA Ce 0.79970(10) 0.29970(10) 0.52330(15) 0.0423 Uiso
Ce1DB Ce 0.95030(10) 0.22670(15) 0.29970(10) 0.0423 Uiso
Ce1GB Ce 0.72670(15) 0.45030(10) 0.29970(10) 0.0423 Uiso
Ce1DC Ce 0.95030(10) 0.29970(10) 0.22670(15) 0.0423 Uiso
Ce1KC Ce 0.72670(15) 0.29970(10) 0.45030(10) 0.0423 Uiso
O1G O 0.73570(45) 0.4309(12) 0.23570(45) 0.1046 Uiso
O1S O 0.8191(12) 0.23570(45) 0.51430(45) 0.1046 Uiso
O1CD O 0.8191(12) 0.51430(45) 0.23570(45) 0.1046 Uiso
O1KC O 0.6809(12) 0.26430(45) 0.48570(45) 0.1046 Uiso
O2O O 0.78865(87) 0.46135(87) 0.28865(87) 0.1046 Uiso
O2S O 0.71135(87) 0.21135(87) 0.53865(87) 0.1046 Uiso
O3O O 0.85982(42) 0.45041(36) 0.25634(30) 0.1046 Uiso
O3DF O 0.64018(42) 0.20041(36) 0.50634(30) 0.1046 Uiso
O3JF O 0.85982(42) 0.25634(30) 0.45041(36) 0.1046 Uiso
O3NC O 0.70041(36) 0.14018(42) 0.50634(30) 0.1046 Uiso
loop_
_geom_bond_atom_site_label_1
_geom_bond_atom_site_label_2
_geom_bond_site_symmetry_1
_geom_bond_site_symmetry_2
Ce1 O1 1_555 1_555
O1 Ce1DF 1_555 1_555
O2 Ce1 1_555 1_555
C1 C2 1_555 1_555
C2 C3 1_555 1_555
C3 C2MD 1_555 1_555
O3 Ce1 1_555 1_555
O4 Ce1 1_555 1_555
C1MD C2MD 1_555 1_555
C2MD C3GB 1_555 1_555
O3MD C1MD 1_555 1_555
C3GB C2KF 1_555 1_555
O3GB C1MD 1_555 1_555
C1KF C2KF 1_555 1_555
C2KF C3DC 1_555 1_555
O3KF C1KF 1_555 1_555
C3DC C2 1_555 1_555
O3DC C1KF 1_555 1_555
O3EG C1 1_555 1_555
Ce1O O3MD 1_555 1_555
O1O Ce1O 1_555 1_555
O4O Ce1O 1_555 1_555
O4MD Ce1O 1_555 1_555
O4JF Ce1 1_555 1_555
Ce1DF O1DF 1_555 1_555
O1DF Ce1 1_555 1_555
O4NC Ce1DF 1_555 1_555
O4DF Ce1DF 1_555 1_555
Ce1G O1O 1_555 1_555
Ce1S O1 1_555 1_555
Ce1CD O1O 1_555 1_555
Ce1NA O2 1_555 1_555
Ce1DB O3KF 1_555 1_555
Ce1GB O3GB 1_555 1_555
Ce1DC O3DC 1_555 1_555
Ce1KC O2 1_555 1_555
O1G Ce1O 1_555 1_555
O1S Ce1 1_555 1_555
O1CD Ce1O 1_555 1_555
O1KC Ce1DF 1_555 1_555
O2O Ce1O 1_555 1_555
O2S Ce1DF 1_555 1_555
O3O Ce1O 1_555 1_555
O3DF Ce1DF 1_555 1_555
O3JF Ce1 1_555 1_555
O3NC Ce1DF 1_555 1_555
C1 O3 1_555 1_555
O3EG Ce1KC 1_555 1_555
O1DF Ce1KC 1_555 1_555
Ce1G O1G 1_555 1_555
Ce1S O1S 1_555 1_555
Ce1S O2S 1_555 1_555
Ce1CD O1CD 1_555 1_555
Ce1NA O1S 1_555 1_555
Ce1GB O1G 1_555 1_555
Ce1GB O2O 1_555 1_555
Ce1KC O1KC 1_555 1_555

#END
