
#######################################################################
#
#                 Cambridge Crystallographic Data Centre
#                                CCDC 
#
#######################################################################
#
# If this CIF has been generated from an entry in the Cambridge 
# Structural Database, then it will include bibliographic, chemical, 
# crystal, experimental, refinement or atomic coordinate data resulting 
# from the CCDC's data processing and validation procedures.
#
#######################################################################

data_NELVAC
_chemical_formula_moiety         '(C18 H42 N2 O18 P6 Zn4 2-)n'
_symmetry_cell_setting           monoclinic
_symmetry_space_group_name_H-M   'P 21/c'
_symmetry_Int_Tables_number      14
_space_group_name_Hall           '-P 2ybc'
loop_
_symmetry_equiv_pos_site_id
_symmetry_equiv_pos_as_xyz
1 x,y,z
2 -x,1/2+y,1/2-z
3 -x,-y,-z
4 x,1/2-y,1/2+z
_cell_length_a                   10.8658(17)
_cell_length_b                   16.605(2)
_cell_length_c                   10.3926(16)
_cell_angle_alpha                90
_cell_angle_beta                 103.965(2)
_cell_angle_gamma                90
_cell_volume                     1819.68
loop_
_atom_site_label
_atom_site_type_symbol
_atom_site_fract_x
_atom_site_fract_y
_atom_site_fract_z
C7 C -0.0777(10) 0.4836(5) 0.5918(9)
H14 H -0.0305 0.5066 0.6761
C8 C -0.1120(10) 0.5488(6) 0.4857(11)
H15 H -0.1565 0.5922 0.5177
H16 H -0.1681 0.5265 0.4067
C9 C -0.199(2) 0.4510(13) 0.605(2)
H17 H -0.2467 0.4925 0.6345
H18 H -0.1840 0.4076 0.6675
H19 H -0.2456 0.4313 0.5200
N1 N -0.0034(8) 0.4193(4) 0.5475(7)
H20 H 0.0188 0.3822 0.6121
H21 H -0.0520 0.3948 0.4757
C7B C 0.0777(10) 0.5164(5) 0.4082(9)
H14B H 0.0305 0.4934 0.3239
C8B C 0.1120(10) 0.4512(6) 0.5143(11)
H15B H 0.1565 0.4078 0.4823
H16B H 0.1681 0.4735 0.5933
C9B C 0.199(2) 0.5490(13) 0.395(2)
H17B H 0.2467 0.5075 0.3655
H18B H 0.1840 0.5924 0.3325
H19B H 0.2456 0.5687 0.4800
N1B N 0.0034(8) 0.5807(4) 0.4525(7)
H20B H -0.0188 0.6178 0.3879
H21B H 0.0520 0.6052 0.5243
Zn1 Zn 0.05502(7) 0.16658(5) 0.40351(8)
Zn2 Zn 0.13487(7) -0.16469(5) 0.31690(8)
P1 P 0.21256(19) 0.00579(11) 0.4555(2)
P2 P 0.13789(17) 0.22292(11) 0.69260(18)
P3 P 0.79138(17) 0.26003(10) 0.90951(18)
O1 O 0.2201(6) -0.0636(3) 0.3668(6)
O2 O 0.0933(5) 0.0541(3) 0.4095(6)
O3 O 0.2258(7) -0.0224(3) 0.6017(6)
H1 H 0.1947 -0.0674 0.6018
O4 O 0.0479(5) 0.1572(3) 0.7154(5)
O5 O 0.1437(5) 0.2314(3) 0.5484(5)
O6 O 0.1029(5) 0.3060(3) 0.7403(5)
O7 O 0.8717(4) 0.3315(3) 0.8809(5)
O8 O 0.7940(5) 0.2535(3) 1.0552(5)
O9 O 0.8359(5) 0.1808(3) 0.8598(5)
C1 C 0.3498(8) 0.0687(5) 0.4689(10)
H2 H 0.3376 0.1171 0.5166
H3 H 0.3531 0.0850 0.3802
C2 C 0.4782(8) 0.0331(6) 0.5367(11)
H4 H 0.4740 0.0132 0.6233
H5 H 0.5410 0.0758 0.5505
C3 C 0.2944(7) 0.1948(5) 0.7851(8)
H6 H 0.2980 0.1995 0.8790
H7 H 0.3087 0.1388 0.7670
C4 C 0.4003(7) 0.2448(5) 0.7544(8)
H8 H 0.3832 0.3013 0.7664
H9 H 0.4012 0.2369 0.6621
C5 C 0.6337(7) 0.2803(5) 0.8165(8)
H10 H 0.6327 0.2782 0.7230
H11 H 0.6120 0.3348 0.8360
C6 C 0.5309(7) 0.2240(5) 0.8410(8)
H12 H 0.5520 0.1690 0.8230
H13 H 0.5285 0.2271 0.9335
Zn1B Zn 0.94498(7) -0.16658(5) 0.59649(8)
Zn1C Zn 0.05502(7) 0.33342(5) 0.90351(8)
Zn1C_2 Zn 1.05502(7) 0.33342(5) 0.90351(8)
Zn1C_3 Zn 0.05502(7) 0.33342(5) -0.09649(8)
Zn1_2 Zn 1.05502(7) 0.16658(5) 0.40351(8)
Zn2B Zn 0.86513(7) 0.16469(5) 0.68310(8)
Zn2B_2 Zn -0.13487(7) 0.16469(5) 0.68310(8)
Zn2A Zn 0.86513(7) 0.33531(5) 1.18310(8)
Zn2A_2 Zn -0.13487(7) 0.33531(5) 0.18310(8)
Zn2A_3 Zn 0.86513(7) 0.33531(5) 0.18310(8)
P1B P 0.78744(19) -0.00579(11) 0.5445(2)
P2C P 0.13789(17) 0.27708(11) 0.19260(18)
P3C P 0.79138(17) 0.23997(10) 0.40951(18)
O1B O 0.7799(6) 0.0636(3) 0.6332(6)
O2B O 0.9067(5) -0.0541(3) 0.5905(6)
O3B O 0.7742(7) 0.0224(3) 0.3983(6)
H1B H 0.8053 0.0674 0.3982
O4C O 0.0479(5) 0.3428(3) 0.2154(5)
O4B O -0.0479(5) -0.1572(3) 0.2846(5)
O4_2 O 1.0479(5) 0.1572(3) 0.7154(5)
O5C O 0.1437(5) 0.2686(3) 0.0484(5)
O5B O 0.8563(5) -0.2314(3) 0.4516(5)
O6C O 0.1029(5) 0.1940(3) 0.2403(5)
O6A O 0.8971(5) -0.1940(3) 0.7597(5)
O7C O 0.8717(4) 0.1685(3) 0.3809(5)
O7C_2 O -0.1283(4) 0.1685(3) 0.3809(5)
O7A O 1.1283(4) -0.1685(3) 0.6191(5)
O8C O 0.7940(5) 0.2465(3) 0.5552(5)
O8A O 0.2060(5) -0.2465(3) 0.4448(5)
O9C O 0.8359(5) 0.3192(3) 0.3598(5)
O9B O 0.1641(5) -0.1808(3) 0.1402(5)
C1B C 0.6502(8) -0.0687(5) 0.5311(10)
H2B H 0.6624 -0.1171 0.4834
H3B H 0.6469 -0.0850 0.6198
C2B C 0.5218(8) -0.0331(6) 0.4633(11)
H4B H 0.5260 -0.0132 0.3767
H5B H 0.4590 -0.0758 0.4495
C3C C 0.2944(7) 0.3052(5) 0.2851(8)
H6C H 0.2980 0.3005 0.3790
H7C H 0.3087 0.3612 0.2670
C4C C 0.4003(7) 0.2552(5) 0.2544(8)
H8C H 0.3832 0.1987 0.2664
H9C H 0.4012 0.2631 0.1621
C5C C 0.6337(7) 0.2197(5) 0.3165(8)
H10C H 0.6327 0.2218 0.2230
H11C H 0.6120 0.1652 0.3360
C6C C 0.5309(7) 0.2760(5) 0.3410(8)
H12C H 0.5520 0.3310 0.3230
H13C H 0.5285 0.2729 0.4335
loop_
_geom_bond_atom_site_label_1
_geom_bond_atom_site_label_2
_geom_bond_site_symmetry_1
_geom_bond_site_symmetry_2
Zn1 O2 1_555 1_555
Zn2 O1 1_555 1_555
P1 O1 1_555 1_555
P2 O4 1_555 1_555
P3 O7 1_555 1_555
O2 P1 1_555 1_555
O3 P1 1_555 1_555
H1 O3 1_555 1_555
O4 Zn2B_2 1_555 1_555
O5 Zn1 1_555 1_555
O6 P2 1_555 1_555
O7 Zn1C_2 1_555 1_555
O8 P3 1_555 1_555
O9 P3 1_555 1_555
C1 P1 1_555 1_555
H2 C1 1_555 1_555
H3 C1 1_555 1_555
C2 C1 1_555 1_555
H4 C2 1_555 1_555
H5 C2 1_555 1_555
C3 P2 1_555 1_555
H6 C3 1_555 1_555
H7 C3 1_555 1_555
C4 C3 1_555 1_555
H8 C4 1_555 1_555
H9 C4 1_555 1_555
C5 P3 1_555 1_555
H10 C5 1_555 1_555
H11 C5 1_555 1_555
C6 C4 1_555 1_555
H12 C6 1_555 1_555
H13 C6 1_555 1_555
C7 H14 1_555 1_555
C8 C7 1_555 1_555
H15 C8 1_555 1_555
H16 C8 1_555 1_555
C9 C7 1_555 1_555
H17 C9 1_555 1_555
H18 C9 1_555 1_555
H19 C9 1_555 1_555
N1 C7 1_555 1_555
H20 N1 1_555 1_555
H21 N1 1_555 1_555
Zn1B O2B 1_555 1_555
Zn1C O6 1_555 1_555
Zn1C_3 O5C 1_555 1_555
Zn1_2 O7C 1_555 1_555
Zn2B O9 1_555 1_555
Zn2A O8 1_555 1_555
Zn2A_2 O4C 1_555 1_555
Zn2A_3 O9C 1_555 1_555
P1B O1B 1_555 1_555
P2C O4C 1_555 1_555
P3C O7C 1_555 1_555
O1B Zn2B 1_555 1_555
O2B P1B 1_555 1_555
O3B P1B 1_555 1_555
H1B O3B 1_555 1_555
O4B Zn2 1_555 1_555
O4_2 Zn2B 1_555 1_555
O5C P2C 1_555 1_555
O5B Zn1B 1_555 1_555
O6C Zn1 1_555 1_555
O6A Zn1B 1_555 1_555
O7C_2 Zn1 1_555 1_555
O7A Zn1B 1_555 1_555
O8C Zn2B 1_555 1_555
O8A Zn2 1_555 1_555
O9C P3C 1_555 1_555
O9B Zn2 1_555 1_555
C1B P1B 1_555 1_555
H2B C1B 1_555 1_555
H3B C1B 1_555 1_555
C2B C2 1_555 1_555
H4B C2B 1_555 1_555
H5B C2B 1_555 1_555
C3C P2C 1_555 1_555
H6C C3C 1_555 1_555
H7C C3C 1_555 1_555
C4C C3C 1_555 1_555
H8C C4C 1_555 1_555
H9C C4C 1_555 1_555
C5C P3C 1_555 1_555
H10C C5C 1_555 1_555
H11C C5C 1_555 1_555
C6C C4C 1_555 1_555
H12C C6C 1_555 1_555
H13C C6C 1_555 1_555
C7B H14B 1_555 1_555
C8B N1 1_555 1_555
H15B C8B 1_555 1_555
H16B C8B 1_555 1_555
C9B C7B 1_555 1_555
H17B C9B 1_555 1_555
H18B C9B 1_555 1_555
H19B C9B 1_555 1_555
N1B C8 1_555 1_555
H20B N1B 1_555 1_555
H21B N1B 1_555 1_555
P2 O5 1_555 1_555
C5 C6 1_555 1_555
P2C O6C 1_555 1_555
P3C O8C 1_555 1_555
C1B C2B 1_555 1_555
C5C C6C 1_555 1_555
C7B C8B 1_555 1_555
C7B N1B 1_555 1_555

#END
