
#######################################################################
#
#                 Cambridge Crystallographic Data Centre
#                                CCDC 
#
#######################################################################
#
# If this CIF has been generated from an entry in the Cambridge 
# Structural Database, then it will include bibliographic, chemical, 
# crystal, experimental, refinement or atomic coordinate data resulting 
# from the CCDC's data processing and validation procedures.
#
#######################################################################

data_LAZHUR
_chemical_formula_moiety         '(C41 H38 Co2 N4 O15)n'
_symmetry_cell_setting           monoclinic
_symmetry_space_group_name_H-M   'P 2/c'
_symmetry_Int_Tables_number      13
_space_group_name_Hall           '-P 2yc'
loop_
_symmetry_equiv_pos_site_id
_symmetry_equiv_pos_as_xyz
1 x,y,z
2 -x,y,1/2-z
3 -x,-y,-z
4 x,-y,1/2+z
_cell_length_a                   10.4063(12)
_cell_length_b                   9.3137(11)
_cell_length_c                   23.889(3)
_cell_angle_alpha                90
_cell_angle_beta                 91.603(2)
_cell_angle_gamma                90
_cell_volume                     2314.44
loop_
_atom_site_label
_atom_site_type_symbol
_atom_site_fract_x
_atom_site_fract_y
_atom_site_fract_z
C1 C 0.1259(3) 0.1962(4) -0.61720(13)
H1 H 0.1879 0.1306 -0.6279
C2 C 0.6145(3) -0.2465(3) -0.26518(13)
H2 H 0.5991 -0.2921 -0.3012
H3 H 0.6914 -0.1881 -0.2672
C3 C 0.4350(4) 0.1338(4) -0.38829(15)
H4 H 0.3643 0.0752 -0.3823
C4 C 0.0687(4) 0.4080(4) -0.56765(16)
H5 H 0.0915 0.4841 -0.5442
C5 C -0.0012(3) 0.1777(4) -0.63519(14)
C6 C 0.1609(3) 0.3115(4) -0.58340(13)
C7 C -0.0390(4) 0.0537(4) -0.67094(16)
C8 C 0.5490(3) 0.1139(4) -0.35798(14)
C9 C 0.7059(3) -0.4649(4) -0.23152(14)
C10 C 0.4284(4) 0.2413(4) -0.42718(15)
H6 H 0.3508 0.2535 -0.4469
C11 C 0.3002(4) 0.3308(4) -0.56585(15)
C12 C -0.0920(4) 0.2771(4) -0.61973(17)
H7 H -0.1771 0.2661 -0.6319
C13 C 0.7080(4) -0.5741(4) -0.19224(17)
H8 H 0.6576 -0.5684 -0.1608
C14 C 0.6519(4) 0.1967(5) -0.3721(2)
H9 H 0.7324 0.1811 -0.3553
C15 C 0.5000 -0.1542(4) -0.2500
C16 C 0.7818(4) -0.4793(4) -0.27711(15)
H10 H 0.7819 -0.4091 -0.3048
C17 C -0.0573(4) 0.3932(5) -0.58626(18)
H11 H -0.1186 0.4607 -0.5764
C18 C 0.6346(4) 0.3026(5) -0.4112(2)
H12 H 0.7050 0.3601 -0.4191
C19 C 0.8570(4) -0.5984(4) -0.28113(16)
H13 H 0.9096 -0.6060 -0.3118
C20 C 0.7855(4) -0.6910(4) -0.20041(17)
H14 H 0.7853 -0.7640 -0.1739
Co1 Co -0.0000 -0.14072(6) -0.7500
Co2 Co 0.5000 0.5000 -0.5000
N1 N 0.8600(3) -0.7059(3) -0.24343(12)
N2 N 0.5242(3) 0.3297(3) -0.43907(12)
O1 O 0.3817(3) 0.2642(4) -0.59217(14)
O2 O 0.3241(2) 0.4192(2) -0.52710(9)
O3 O 0.0477(3) -0.0367(3) -0.68210(11)
O4 O -0.1489(3) 0.0418(4) -0.68996(18)
O5 O 0.5679(2) 0.0190(2) -0.31657(10)
O6 O 0.6297(3) -0.3532(2) -0.22187(10)
O7 O 0.6003(3) 0.3719(3) -0.55986(11)
C21 C 0.4597(3) -0.0627(3) -0.30009(13)
H19 H 0.4299 -0.1236 -0.3307
H20 H 0.3901 0.0009 -0.2902
C1A C -0.1259(3) 0.1962(4) -0.88280(13)
H1A H -0.1879 0.1306 -0.8721
C2A C 0.3855(3) -0.2465(3) -0.23482(13)
H2A H 0.4009 -0.2921 -0.1988
H3A H 0.3086 -0.1881 -0.2328
C3A C 0.5650(4) 0.1338(4) -0.11171(15)
H4A H 0.6357 0.0752 -0.1177
C4A C -0.0687(4) 0.4080(4) -0.93235(16)
H5A H -0.0915 0.4841 -0.9558
C5A C 0.0012(3) 0.1777(4) -0.86481(14)
C6A C -0.1609(3) 0.3115(4) -0.91660(13)
C7A C 0.0390(4) 0.0537(4) -0.82906(16)
C8A C 0.4510(3) 0.1139(4) -0.14202(14)
C9A C 0.2941(3) -0.4649(4) -0.26848(14)
C10A C 0.5716(4) 0.2413(4) -0.07282(15)
H6A H 0.6492 0.2535 -0.0531
C11A C -0.3002(4) 0.3308(4) -0.93415(15)
C12A C 0.0920(4) 0.2771(4) -0.88027(17)
H7A H 0.1771 0.2661 -0.8681
C13A C 0.2920(4) -0.5741(4) -0.30776(17)
H8A H 0.3424 -0.5684 -0.3392
C14A C 0.3481(4) 0.1967(5) -0.1279(2)
H9A H 0.2676 0.1811 -0.1447
C16A C 0.2182(4) -0.4793(4) -0.22289(15)
H10A H 0.2181 -0.4091 -0.1952
C17A C 0.0573(4) 0.3932(5) -0.91374(18)
H11A H 0.1186 0.4607 -0.9236
C18A C 0.3654(4) 0.3026(5) -0.0888(2)
H12A H 0.2950 0.3601 -0.0809
C19A C 0.1430(4) -0.5984(4) -0.21887(16)
H13A H 0.0904 -0.6060 -0.1882
C20A C 0.2145(4) -0.6910(4) -0.29959(17)
H14A H 0.2147 -0.7640 -0.3261
Co1B Co 0.0000 -0.85928(6) -0.2500
Co1B_2 Co 1.0000 -0.85928(6) -0.2500
Co2A Co 0.5000 0.5000 0.0000
Co2A_2 Co -0.5000 0.5000 -1.0000
N1A N 0.1400(3) -0.7059(3) -0.25657(12)
N1B N 0.1400(3) -0.2941(3) -0.75657(12)
N1C N -0.1400(3) -0.2941(3) -0.74343(12)
N2A N 0.4758(3) 0.3297(3) -0.06093(12)
N2B N 0.4758(3) 0.6703(3) -0.56093(12)
O1A O -0.3817(3) 0.2642(4) -0.90783(14)
O2A O -0.3241(2) 0.4192(2) -0.97290(9)
O2B O 0.6759(2) 0.5808(2) -0.47290(9)
O3A O -0.0477(3) -0.0367(3) -0.81790(11)
O4A O 0.1489(3) 0.0418(4) -0.81004(18)
O5A O 0.4321(2) 0.0190(2) -0.18343(10)
O6A O 0.3703(3) -0.3532(2) -0.27813(10)
O7B O 0.3997(3) 0.6281(3) -0.44014(11)
C21A C 0.5403(3) -0.0627(3) -0.19991(13)
H19A H 0.5701 -0.1236 -0.1693
H20A H 0.6099 0.0009 -0.2098
O8 O 0.243(3) -1.1106(17) -0.4825(6)
H15 H 0.3118 -1.1593 -0.4804
H16 H 0.2143 -1.1099 -0.5162
loop_
_geom_bond_atom_site_label_1
_geom_bond_atom_site_label_2
_geom_bond_site_symmetry_1
_geom_bond_site_symmetry_2
C1 H1 1_555 1_555
C2 H2 1_555 1_555
H3 C2 1_555 1_555
C3 H4 1_555 1_555
C4 H5 1_555 1_555
C5 C1 1_555 1_555
C6 C1 1_555 1_555
C7 C5 1_555 1_555
C8 C3 1_555 1_555
C9 C13 1_555 1_555
C10 C3 1_555 1_555
H6 C10 1_555 1_555
C11 C6 1_555 1_555
C12 C5 1_555 1_555
H7 C12 1_555 1_555
C13 H8 1_555 1_555
C14 C8 1_555 1_555
H9 C14 1_555 1_555
C15 C2 1_555 1_555
C16 C9 1_555 1_555
H10 C16 1_555 1_555
C17 C4 1_555 1_555
H11 C17 1_555 1_555
C18 C14 1_555 1_555
H12 C18 1_555 1_555
C19 C16 1_555 1_555
H13 C19 1_555 1_555
C20 C13 1_555 1_555
H14 C20 1_555 1_555
Co1 O3 1_555 1_555
Co2 N2 1_555 1_555
N1 C19 1_555 1_555
N2 C10 1_555 1_555
O1 C11 1_555 1_555
O2 C11 1_555 1_555
O3 C7 1_555 1_555
O4 C7 1_555 1_555
O5 C8 1_555 1_555
O6 C2 1_555 1_555
O7 Co2 1_555 1_555
O8 H15 1_555 1_555
H16 O8 1_555 1_555
C21 C15 1_555 1_555
H19 C21 1_555 1_555
H20 C21 1_555 1_555
C1A H1A 1_555 1_555
C2A C15 1_555 1_555
H2A C2A 1_555 1_555
H3A C2A 1_555 1_555
C3A H4A 1_555 1_555
C4A H5A 1_555 1_555
C5A C1A 1_555 1_555
C6A C1A 1_555 1_555
C7A C5A 1_555 1_555
C8A C3A 1_555 1_555
C9A C13A 1_555 1_555
C10A C3A 1_555 1_555
H6A C10A 1_555 1_555
C11A C6A 1_555 1_555
C12A C5A 1_555 1_555
H7A C12A 1_555 1_555
C13A H8A 1_555 1_555
C14A C8A 1_555 1_555
H9A C14A 1_555 1_555
C16A C9A 1_555 1_555
H10A C16A 1_555 1_555
C17A C4A 1_555 1_555
H11A C17A 1_555 1_555
C18A C14A 1_555 1_555
H12A C18A 1_555 1_555
C19A C16A 1_555 1_555
H13A C19A 1_555 1_555
C20A C13A 1_555 1_555
H14A C20A 1_555 1_555
Co1B N1A 1_555 1_555
Co1B_2 N1 1_555 1_555
Co2A N2A 1_555 1_555
Co2A_2 O2A 1_555 1_555
N1A C19A 1_555 1_555
N1B Co1 1_555 1_555
N1C Co1 1_555 1_555
N2A C10A 1_555 1_555
N2B Co2 1_555 1_555
O1A C11A 1_555 1_555
O2A C11A 1_555 1_555
O2B Co2 1_555 1_555
O3A Co1 1_555 1_555
O4A C7A 1_555 1_555
O5A C8A 1_555 1_555
O6A C2A 1_555 1_555
O7B Co2 1_555 1_555
C21A C15 1_555 1_555
H19A C21A 1_555 1_555
H20A C21A 1_555 1_555
C4 C6 1_555 1_555
C9 O6 1_555 1_555
C12 C17 1_555 1_555
C18 N2 1_555 1_555
C20 N1 1_555 1_555
Co2 O2 1_555 1_555
O5 C21 1_555 1_555
C4A C6A 1_555 1_555
C7A O3A 1_555 1_555
C9A O6A 1_555 1_555
C12A C17A 1_555 1_555
C18A N2A 1_555 1_555
C20A N1A 1_555 1_555
O5A C21A 1_555 1_555

#END
