
#######################################################################
#
#                 Cambridge Crystallographic Data Centre
#                                CCDC 
#
#######################################################################
#
# If this CIF has been generated from an entry in the Cambridge 
# Structural Database, then it will include bibliographic, chemical, 
# crystal, experimental, refinement or atomic coordinate data resulting 
# from the CCDC's data processing and validation procedures.
#
#######################################################################

data_LAZJIH
_chemical_formula_moiety         '(C35 H30 N4 O12 Zn1 2+)n'
_symmetry_cell_setting           tetragonal
_symmetry_space_group_name_H-M   'I 41/a c d'
_symmetry_Int_Tables_number      142
_space_group_name_Hall           '-I 4bd 2c'
loop_
_symmetry_equiv_pos_site_id
_symmetry_equiv_pos_as_xyz
1 x,y,z
2 1/2-x,-y,1/2+z
3 1/4-y,3/4+x,1/4+z
4 1/4+y,1/4-x,3/4+z
5 1/2-x,y,-z
6 x,-y,1/2-z
7 1/4+y,3/4+x,3/4-z
8 1/4-y,1/4-x,1/4-z
9 1/2+x,1/2+y,1/2+z
10 -x,1/2-y,z
11 3/4-y,1/4+x,3/4+z
12 3/4+y,3/4-x,1/4+z
13 -x,1/2+y,1/2-z
14 1/2+x,1/2-y,-z
15 3/4+y,1/4+x,1/4-z
16 3/4-y,3/4-x,3/4-z
17 -x,-y,-z
18 1/2+x,y,1/2-z
19 3/4+y,1/4-x,3/4-z
20 3/4-y,3/4+x,1/4-z
21 1/2+x,-y,z
22 -x,y,1/2+z
23 3/4-y,1/4-x,1/4+z
24 3/4+y,3/4+x,3/4+z
25 1/2-x,1/2-y,1/2-z
26 x,1/2+y,-z
27 1/4+y,3/4-x,1/4-z
28 1/4-y,1/4+x,3/4-z
29 x,1/2-y,1/2+z
30 1/2-x,1/2+y,z
31 1/4-y,3/4-x,3/4+z
32 1/4+y,1/4+x,1/4+z
_cell_length_a                   16.1936(9)
_cell_length_b                   16.1936(9)
_cell_length_c                   29.884(3)
_cell_angle_alpha                90
_cell_angle_beta                 90
_cell_angle_gamma                90
_cell_volume                     7836.56
loop_
_atom_site_label
_atom_site_type_symbol
_atom_site_fract_x
_atom_site_fract_y
_atom_site_fract_z
_atom_site_U_iso_or_equiv
_atom_site_thermal_displace_type
C1 C 0.2500 0.3049(3) 0.0000 0.0363 Uani
H1 H 0.2500 0.3623 0.0000 0.0430 Uiso
C2 C 0.2579(2) 0.2630(2) 0.04035(11) 0.0361 Uani
C3 C 0.2570(2) 0.1766(2) 0.04037(12) 0.0384 Uani
C4 C 0.2500 0.1375(3) 0.0000 0.0397 Uani
H2 H 0.2500 0.0801 0.0000 0.0480 Uiso
C5 C 0.2749(2) 0.3165(2) 0.08104(11) 0.0372 Uani
C6 C 0.25849(19) 0.12604(19) 0.08238(11) 0.0335 Uani
O1 O 0.22018(14) 0.37120(14) 0.08873(8) 0.0368 Uani
O2 O 0.33923(14) 0.30651(15) 0.10205(8) 0.0405 Uani
O3 O 0.27539(14) 0.05000(15) 0.07609(8) 0.0383 Uani
O4 O 0.24344(15) 0.15697(15) 0.11884(8) 0.0374 Uani
Zn1 Zn 0.22251(2) 0.47251(2) 0.1250 0.0313 Uani
C2D C 0.2421(2) 0.2630(2) -0.04035(11) 0.0361 Uani
C3D C 0.2430(2) 0.1766(2) -0.04037(12) 0.0384 Uani
C5D C 0.2251(2) 0.3165(2) -0.08104(11) 0.0372 Uani
C6D C 0.24151(19) 0.12604(19) -0.08238(11) 0.0335 Uani
O1D O 0.27982(14) 0.37120(14) -0.08873(8) 0.0368 Uani
O1N O 0.12120(14) 0.47018(14) 0.16127(8) 0.0368 Uani
O2D O 0.16077(14) 0.30651(15) -0.10205(8) 0.0405 Uani
O3D O 0.22461(14) 0.05000(15) -0.07609(8) 0.0383 Uani
O3Z O 0.30000(15) 0.47461(14) 0.17391(8) 0.0383 Uani
O3CA O 0.22461(14) 0.55000(15) 0.07609(8) 0.0383 Uani
O4D O 0.25656(15) 0.15697(15) -0.11884(8) 0.0374 Uani
Zn1D Zn 0.27749(2) 0.47251(2) -0.1250 0.0313 Uani
Zn1S Zn 0.27749(2) -0.02749(2) 0.1250 0.0313 Uani
Zn1W Zn 0.22251(2) -0.02749(2) -0.1250 0.0313 Uani
C7 C -0.0000 0.2500 0.1250 0.0430 Uani
C8 C 0.0681(2) 0.2335(3) 0.15920(12) 0.0476 Uani
H3 H 0.1229 0.2454 0.1478 0.0570 Uiso
H4 H 0.0660 0.1781 0.1715 0.0570 Uiso
C9 C 0.0835(3) 0.2933(3) 0.23327(14) 0.0510 Uani
C10 C 0.1415(2) 0.3507(2) 0.24318(12) 0.0460 Uani
H5 H 0.1528 0.3937 0.2235 0.0550 Uiso
C11 C 0.1836(2) 0.3437(2) 0.28328(12) 0.0440 Uani
H6 H 0.2228 0.3832 0.2910 0.0530 Uiso
C12 C 0.1120(2) 0.2263(2) 0.30215(12) 0.0429 Uani
H7 H 0.1016 0.1847 0.3228 0.0510 Uiso
C13 C 0.0686(2) 0.2297(3) 0.26339(12) 0.0448 Uani
H8 H 0.0291 0.1897 0.2570 0.0540 Uiso
N1 N 0.16887(19) 0.28242(17) 0.31035(10) 0.0400 Uani
H9 H 0.1974 0.2784 0.3345 0.0480 Uiso
O5 O 0.03618(16) 0.29922(16) 0.19157(8) 0.0456 Uani
C8G C 0.0165(3) 0.1819(2) 0.09080(12) 0.0476 Uani
C8I C -0.0681(2) 0.2665(3) 0.15920(12) 0.0476 Uani
C8N C -0.0165(3) 0.3181(2) 0.09080(12) 0.0476 Uani
H3G H 0.0046 0.1271 0.1022 0.0570 Uiso
H3I H -0.1229 0.2546 0.1478 0.0570 Uiso
H3N H -0.0046 0.3729 0.1022 0.0570 Uiso
H4G H 0.0719 0.1840 0.0785 0.0570 Uiso
H4I H -0.0660 0.3219 0.1715 0.0570 Uiso
H4N H -0.0719 0.3160 0.0785 0.0570 Uiso
C9G C -0.0433(3) 0.1665(3) 0.01673(14) 0.0510 Uani
C9I C -0.0835(3) 0.2067(3) 0.23327(14) 0.0510 Uani
C9N C 0.0433(3) 0.3335(3) 0.01673(14) 0.0510 Uani
C10G C -0.1007(2) 0.1085(2) 0.00682(12) 0.0460 Uani
C10I C -0.1415(2) 0.1493(2) 0.24318(12) 0.0460 Uani
C10N C 0.1007(2) 0.3915(2) 0.00682(12) 0.0460 Uani
H5G H -0.1437 0.0972 0.0265 0.0550 Uiso
H5I H -0.1528 0.1063 0.2235 0.0550 Uiso
H5N H 0.1437 0.4028 0.0265 0.0550 Uiso
C11G C -0.0937(2) 0.0664(2) -0.03328(12) 0.0440 Uani
C11I C -0.1836(2) 0.1563(2) 0.28328(12) 0.0440 Uani
C11N C 0.0937(2) 0.4336(2) -0.03328(12) 0.0440 Uani
H6G H -0.1332 0.0272 -0.0410 0.0530 Uiso
H6I H -0.2228 0.1168 0.2910 0.0530 Uiso
H6N H 0.1332 0.4728 -0.0410 0.0530 Uiso
C12G C 0.0237(2) 0.1380(2) -0.05215(12) 0.0429 Uani
C12I C -0.1120(2) 0.2737(2) 0.30215(12) 0.0429 Uani
C12N C -0.0237(2) 0.3620(2) -0.05215(12) 0.0429 Uani
H7G H 0.0653 0.1484 -0.0728 0.0510 Uiso
H7I H -0.1016 0.3153 0.3228 0.0510 Uiso
H7N H -0.0653 0.3516 -0.0728 0.0510 Uiso
C13G C 0.0203(3) 0.1814(2) -0.01339(12) 0.0448 Uani
C13I C -0.0686(2) 0.2703(3) 0.26339(12) 0.0448 Uani
C13N C -0.0203(3) 0.3186(2) -0.01339(12) 0.0448 Uani
H8G H 0.0603 0.2209 -0.0070 0.0540 Uiso
H8I H -0.0291 0.3103 0.2570 0.0540 Uiso
H8N H -0.0603 0.2791 -0.0070 0.0540 Uiso
N1G N -0.03242(17) 0.08113(19) -0.06035(10) 0.0400 Uani
N1I N -0.16887(19) 0.21758(17) 0.31035(10) 0.0400 Uani
N1N N 0.03242(17) 0.41887(19) -0.06035(10) 0.0400 Uani
H9G H -0.0284 0.0526 -0.0845 0.0480 Uiso
H9I H -0.1974 0.2216 0.3345 0.0480 Uiso
H9N H 0.0284 0.4474 -0.0845 0.0480 Uiso
O5G O -0.04922(16) 0.21382(16) 0.05843(8) 0.0456 Uani
O5I O -0.03618(16) 0.20078(16) 0.19157(8) 0.0456 Uani
O5N O 0.04922(16) 0.28618(16) 0.05843(8) 0.0456 Uani
loop_
_atom_site_aniso_label
_atom_site_aniso_U_11
_atom_site_aniso_U_22
_atom_site_aniso_U_33
_atom_site_aniso_U_23
_atom_site_aniso_U_13
_atom_site_aniso_U_12
C1 0.043(2) 0.032(2) 0.034(2) 0.000 0.020(2) 0.000
C2 0.0344(17) 0.0407(18) 0.0332(17) 0.0125(14) 0.0126(14) 0.0171(14)
C3 0.0325(16) 0.0398(19) 0.0428(19) -0.0118(15) 0.0158(14) -0.0133(15)
C4 0.038(2) 0.034(3) 0.047(3) 0.000 0.017(2) 0.000
C5 0.0401(19) 0.0434(19) 0.0282(16) 0.0165(14) 0.0089(14) 0.0152(14)
C6 0.0315(15) 0.0355(17) 0.0336(17) -0.0173(14) -0.0041(13) -0.0055(13)
O1 0.0388(12) 0.0316(12) 0.0401(13) 0.0000(10) 0.0114(10) -0.0004(9)
O2 0.0359(12) 0.0477(13) 0.0379(13) -0.0123(11) 0.0028(10) 0.0161(10)
O3 0.0419(13) 0.0400(12) 0.0329(12) 0.0146(10) 0.0131(10) 0.0093(10)
O4 0.0403(12) 0.0366(12) 0.0353(12) -0.0099(10) 0.0145(10) 0.0027(10)
Zn1 0.0302(2) 0.0302(2) 0.0335(3) 0.00148(15) -0.00148(15) -0.00328(19)
C2D 0.0344 0.0407 0.0332 -0.0125 0.0126 -0.0171
C3D 0.0325 0.0398 0.0428 0.0118 0.0158 0.0133
C5D 0.0401 0.0434 0.0282 -0.0165 0.0089 -0.0152
C6D 0.0315 0.0355 0.0336 0.0173 -0.0041 0.0055
O1D 0.0388 0.0316 0.0401 0 0.0114 0.0004
O1N 0.0316 0.0388 0.0401 -0.0114 0 -0.0004
O2D 0.0359 0.0477 0.0379 0.0123 0.0028 -0.0161
O3D 0.0419 0.04 0.0329 -0.0146 0.0131 -0.0093
O3Z 0.04 0.0419 0.0329 0.0131 -0.0146 -0.0093
O3CA 0.0419 0.04 0.0329 0.0146 -0.0131 -0.0093
O4D 0.0403 0.0366 0.0353 0.0099 0.0145 -0.0027
Zn1D 0.0302 0.0302 0.0335 -0.00148 -0.00148 0.00328
Zn1S 0.0302 0.0302 0.0335 0.00148 0.00148 0.00328
Zn1W 0.0302 0.0302 0.0335 -0.00148 0.00148 -0.00328
C7 0.048(2) 0.048(2) 0.033(3) 0.000 0.000 -0.013(3)
C8 0.0396(19) 0.062(2) 0.0411(19) -0.0073(18) -0.0002(16) 0.0029(17)
C9 0.052(2) 0.051(2) 0.050(2) -0.0055(18) -0.0082(18) 0.0013(18)
C10 0.045(2) 0.058(2) 0.0349(19) -0.0064(17) 0.0123(15) -0.0188(17)
C11 0.0431(19) 0.047(2) 0.042(2) 0.0037(16) -0.0038(15) -0.0025(16)
C12 0.0433(19) 0.0438(19) 0.0416(19) -0.0078(16) 0.0149(16) 0.0003(15)
C13 0.044(2) 0.051(2) 0.0393(19) -0.0071(17) 0.0153(16) -0.0003(16)
N1 0.0485(17) 0.0377(15) 0.0338(14) -0.0083(12) -0.0066(13) 0.0135(13)
O5 0.0490(14) 0.0482(13) 0.0395(13) 0.0051(11) -0.0010(11) 0.0036(11)
C8G 0.062 0.0396 0.0411 -0.0002 -0.0073 0.0029
C8I 0.0396 0.062 0.0411 0.0073 0.0002 0.0029
C8N 0.062 0.0396 0.0411 0.0002 0.0073 0.0029
C9G 0.051 0.052 0.05 -0.0082 -0.0055 0.0013
C9I 0.052 0.051 0.05 0.0055 0.0082 0.0013
C9N 0.051 0.052 0.05 0.0082 0.0055 0.0013
C10G 0.058 0.045 0.0349 0.0123 -0.0064 -0.0188
C10I 0.045 0.058 0.0349 0.0064 -0.0123 -0.0188
C10N 0.058 0.045 0.0349 -0.0123 0.0064 -0.0188
C11G 0.047 0.0431 0.042 -0.0038 0.0037 -0.0025
C11I 0.0431 0.047 0.042 -0.0037 0.0038 -0.0025
C11N 0.047 0.0431 0.042 0.0038 -0.0037 -0.0025
C12G 0.0438 0.0433 0.0416 0.0149 -0.0078 0.0003
C12I 0.0433 0.0438 0.0416 0.0078 -0.0149 0.0003
C12N 0.0438 0.0433 0.0416 -0.0149 0.0078 0.0003
C13G 0.051 0.044 0.0393 0.0153 -0.0071 -0.0003
C13I 0.044 0.051 0.0393 0.0071 -0.0153 -0.0003
C13N 0.051 0.044 0.0393 -0.0153 0.0071 -0.0003
N1G 0.0377 0.0485 0.0338 -0.0066 -0.0083 0.0135
N1I 0.0485 0.0377 0.0338 0.0083 0.0066 0.0135
N1N 0.0377 0.0485 0.0338 0.0066 0.0083 0.0135
O5G 0.0482 0.049 0.0395 -0.001 0.0051 0.0036
O5I 0.049 0.0482 0.0395 -0.0051 0.001 0.0036
O5N 0.0482 0.049 0.0395 0.001 -0.0051 0.0036
loop_
_geom_bond_atom_site_label_1
_geom_bond_atom_site_label_2
_geom_bond_site_symmetry_1
_geom_bond_site_symmetry_2
C1 H1 1_555 1_555
C2 C1 1_555 1_555
C3 C2 1_555 1_555
C4 C3 1_555 1_555
H2 C4 1_555 1_555
C5 C2 1_555 1_555
C6 C3 1_555 1_555
C7 C8 1_555 1_555
C8 H3 1_555 1_555
H4 C8 1_555 1_555
C9 C10 1_555 1_555
C10 H5 1_555 1_555
C11 C10 1_555 1_555
H6 C11 1_555 1_555
C12 H7 1_555 1_555
C13 C9 1_555 1_555
H8 C13 1_555 1_555
N1 C11 1_555 1_555
H9 N1 1_555 1_555
O1 C5 1_555 1_555
O2 C5 1_555 1_555
O3 C6 1_555 1_555
O4 C6 1_555 1_555
O5 C8 1_555 1_555
Zn1 O1 1_555 1_555
C2D C1 1_555 1_555
C3D C4 1_555 1_555
C5D C2D 1_555 1_555
C6D C3D 1_555 1_555
C8G C7 1_555 1_555
C8I C7 1_555 1_555
C8N C7 1_555 1_555
H3G C8G 1_555 1_555
H3I C8I 1_555 1_555
H3N C8N 1_555 1_555
H4G C8G 1_555 1_555
H4I C8I 1_555 1_555
H4N C8N 1_555 1_555
C9G C10G 1_555 1_555
C9I C10I 1_555 1_555
C9N C10N 1_555 1_555
C10G H5G 1_555 1_555
C10I H5I 1_555 1_555
C10N H5N 1_555 1_555
C11G C10G 1_555 1_555
C11I C10I 1_555 1_555
C11N C10N 1_555 1_555
H6G C11G 1_555 1_555
H6I C11I 1_555 1_555
H6N C11N 1_555 1_555
C12G H7G 1_555 1_555
C12I H7I 1_555 1_555
C12N H7N 1_555 1_555
C13G C9G 1_555 1_555
C13I C9I 1_555 1_555
C13N C9N 1_555 1_555
H8G C13G 1_555 1_555
H8I C13I 1_555 1_555
H8N C13N 1_555 1_555
N1G C11G 1_555 1_555
N1I C11I 1_555 1_555
N1N C11N 1_555 1_555
H9G N1G 1_555 1_555
H9I N1I 1_555 1_555
H9N N1N 1_555 1_555
O1D C5D 1_555 1_555
O1N Zn1 1_555 1_555
O2D C5D 1_555 1_555
O3D C6D 1_555 1_555
O3Z Zn1 1_555 1_555
O3CA Zn1 1_555 1_555
O4D C6D 1_555 1_555
O5G C8G 1_555 1_555
O5I C8I 1_555 1_555
O5N C8N 1_555 1_555
Zn1D O1D 1_555 1_555
Zn1S O3 1_555 1_555
Zn1W O3D 1_555 1_555
C9 O5 1_555 1_555
C12 C13 1_555 1_555
C12 N1 1_555 1_555
C2D C3D 1_555 1_555
C9G O5G 1_555 1_555
C9I O5I 1_555 1_555
C9N O5N 1_555 1_555
C12G C13G 1_555 1_555
C12G N1G 1_555 1_555
C12I C13I 1_555 1_555
C12I N1I 1_555 1_555
C12N C13N 1_555 1_555
C12N N1N 1_555 1_555

#END
