
#######################################################################
#
#                 Cambridge Crystallographic Data Centre
#                                CCDC 
#
#######################################################################
#
# If this CIF has been generated from an entry in the Cambridge 
# Structural Database, then it will include bibliographic, chemical, 
# crystal, experimental, refinement or atomic coordinate data resulting 
# from the CCDC's data processing and validation procedures.
#
#######################################################################

data_AQUCOG
_chemical_formula_moiety         '(C8 H2 Ne2 Ni2 O6)n'
_symmetry_cell_setting           rhombohedral
_symmetry_space_group_name_H-M   'R -3'
_symmetry_Int_Tables_number      148
_space_group_name_Hall           '-R 3'
loop_
_symmetry_equiv_pos_site_id
_symmetry_equiv_pos_as_xyz
1 x,y,z
2 -y,x-y,z
3 -x+y,-x,z
4 2/3+x,1/3+y,1/3+z
5 2/3-y,1/3+x-y,1/3+z
6 2/3-x+y,1/3-x,1/3+z
7 1/3+x,2/3+y,2/3+z
8 1/3-y,2/3+x-y,2/3+z
9 1/3-x+y,2/3-x,2/3+z
10 -x,-y,-z
11 y,-x+y,-z
12 x-y,x,-z
13 1/3-x,2/3-y,2/3-z
14 1/3+y,2/3-x+y,2/3-z
15 1/3+x-y,2/3+x,2/3-z
16 2/3-x,1/3-y,1/3-z
17 2/3+y,1/3-x+y,1/3-z
18 2/3+x-y,1/3+x,1/3-z
_cell_length_a                   25.7542(3)
_cell_length_b                   25.7542(3)
_cell_length_c                   6.7550(3)
_cell_angle_alpha                90
_cell_angle_beta                 90
_cell_angle_gamma                120
_cell_volume                     3880.18
loop_
_atom_site_label
_atom_site_type_symbol
_atom_site_fract_x
_atom_site_fract_y
_atom_site_fract_z
_atom_site_U_iso_or_equiv
_atom_site_thermal_displace_type
Ni1 Ni 0.61862(8) 0.64787(9) 0.3529(3) 0.0517 Uiso
O1 O 0.437857 0.407712 0.437046 0.0517 Uiso
O2 O 0.368793 0.365412 0.218203 0.0517 Uiso
O3 O 0.613564 0.583693 0.15751 0.0517 Uiso
C1 C 0.41774 0.407263 0.255159 0.0517 Uiso
C2 C 0.46225 0.45323 0.118479 0.0517 Uiso
C3 C 0.559044 0.548737 0.079096 0.0517 Uiso
C4 C 0.517431 0.497293 0.194567 0.0517 Uiso
H1 H 0.528002 0.493244 0.327656 0.0621 Uiso
O1I O 0.562143 0.592288 -0.437046 0.0517 Uiso
O2I O 0.631207 0.634588 -0.218203 0.0517 Uiso
O3I O 0.386436 0.416307 -0.15751 0.0517 Uiso
C1I C 0.58226 0.592737 -0.255159 0.0517 Uiso
C2I C 0.53775 0.54677 -0.118479 0.0517 Uiso
C3I C 0.440956 0.451263 -0.079096 0.0517 Uiso
C4I C 0.482569 0.502707 -0.194567 0.0517 Uiso
H1I H 0.471998 0.506756 -0.327656 0.0621 Uiso
Ni1I Ni 0.38138(8) 0.35213(9) -0.3529(3) 0.0517 Uiso
Ni1_2 Ni 0.61862(8) 0.64787(9) -0.6471(3) 0.0517 Uiso
Ni1I_2 Ni 0.38138(8) 0.35213(9) 0.6471(3) 0.0517 Uiso
Ni1E Ni 0.69592(12) 0.71471(8) -0.3138(3) 0.0517 Uiso
Ni1P Ni 0.31454(9) 0.36258(12) -0.0196(3) 0.0517 Uiso
Ni1G Ni 0.68546(9) 0.63742(12) 0.0196(3) 0.0517 Uiso
Ni1N Ni 0.30408(12) 0.28529(8) 0.3138(3) 0.0517 Uiso
O1_2 O 0.437857 0.407712 -0.562954 0.0517 Uiso
O1I_2 O 0.562143 0.592288 0.562954 0.0517 Uiso
O2D O 0.301255 0.336714 -0.448464 0.0517 Uiso
O2Q O 0.670048 0.702126 0.115130 0.0517 Uiso
O2H O 0.329952 0.297874 -0.115130 0.0517 Uiso
O2M O 0.698745 0.663286 0.448464 0.0517 Uiso
O3E O 0.636796 0.719769 0.49084 0.0517 Uiso
O3N O 0.363204 0.280231 -0.49084 0.0517 Uiso
Ne1 Ne 0.1686(7) 0.5092(6) 0.168(2) 0.1540 Uiso
Ne2 Ne 0.000 0.000 0.500 0.1540 Uiso
loop_
_geom_bond_atom_site_label_1
_geom_bond_atom_site_label_2
_geom_bond_site_symmetry_1
_geom_bond_site_symmetry_2
Ni1 O3 1_555 1_555
O1 C1 1_555 1_555
O2 C1 1_555 1_555
O3 C3 1_555 1_555
C1 C2 1_555 1_555
C2 C4 1_555 1_555
C3 C4 1_555 1_555
C4 H1 1_555 1_555
O1I C1I 1_555 1_555
O2I C1I 1_555 1_555
O3I C3I 1_555 1_555
C1I C2I 1_555 1_555
C2I C3 1_555 1_555
C3I C2 1_555 1_555
C4I C2I 1_555 1_555
H1I C4I 1_555 1_555
Ni1I O3I 1_555 1_555
Ni1_2 O1I 1_555 1_555
Ni1I_2 O1 1_555 1_555
Ni1E O2I 1_555 1_555
Ni1P O2 1_555 1_555
Ni1G O3 1_555 1_555
Ni1N O2 1_555 1_555
O1_2 Ni1I 1_555 1_555
O1I_2 Ni1 1_555 1_555
O2D Ni1I 1_555 1_555
O2Q Ni1 1_555 1_555
O2H Ni1I 1_555 1_555
O2M Ni1 1_555 1_555
O3E Ni1 1_555 1_555
O3N Ni1I 1_555 1_555
O2I Ni1G 1_555 1_555
O3I Ni1P 1_555 1_555
C3I C4I 1_555 1_555
Ni1P O2H 1_555 1_555
Ni1G O2Q 1_555 1_555

#END
