
#######################################################################
#
#                 Cambridge Crystallographic Data Centre
#                                CCDC 
#
#######################################################################
#
# If this CIF has been generated from an entry in the Cambridge 
# Structural Database, then it will include bibliographic, chemical, 
# crystal, experimental, refinement or atomic coordinate data resulting 
# from the CCDC's data processing and validation procedures.
#
#######################################################################

data_AQUCUM
_chemical_formula_moiety         '(C8 H2 Ne2 Ni2 O6)n'
_symmetry_cell_setting           rhombohedral
_symmetry_space_group_name_H-M   'R -3'
_symmetry_Int_Tables_number      148
_space_group_name_Hall           '-R 3'
loop_
_symmetry_equiv_pos_site_id
_symmetry_equiv_pos_as_xyz
1 x,y,z
2 -y,x-y,z
3 -x+y,-x,z
4 2/3+x,1/3+y,1/3+z
5 2/3-y,1/3+x-y,1/3+z
6 2/3-x+y,1/3-x,1/3+z
7 1/3+x,2/3+y,2/3+z
8 1/3-y,2/3+x-y,2/3+z
9 1/3-x+y,2/3-x,2/3+z
10 -x,-y,-z
11 y,-x+y,-z
12 x-y,x,-z
13 1/3-x,2/3-y,2/3-z
14 1/3+y,2/3-x+y,2/3-z
15 1/3+x-y,2/3+x,2/3-z
16 2/3-x,1/3-y,1/3-z
17 2/3+y,1/3-x+y,1/3-z
18 2/3+x-y,1/3+x,1/3-z
_cell_length_a                   25.7611(4)
_cell_length_b                   25.7611(4)
_cell_length_c                   6.7565(3)
_cell_angle_alpha                90
_cell_angle_beta                 90
_cell_angle_gamma                120
_cell_volume                     3883.12
loop_
_atom_site_label
_atom_site_type_symbol
_atom_site_fract_x
_atom_site_fract_y
_atom_site_fract_z
_atom_site_U_iso_or_equiv
_atom_site_thermal_displace_type
Ni1 Ni 0.61749(10) 0.64832(10) 0.3537(4) 0.0337 Uiso
O1 O 0.436919 0.407457 0.430968 0.0337 Uiso
O2 O 0.367878 0.365292 0.211973 0.0337 Uiso
O3 O 0.611372 0.585523 0.155521 0.0337 Uiso
C1 C 0.416609 0.407372 0.249678 0.0337 Uiso
C2 C 0.460763 0.454094 0.114119 0.0337 Uiso
C3 C 0.55692 0.550362 0.076891 0.0337 Uiso
C4 C 0.515753 0.49831 0.190871 0.0337 Uiso
H1 H 0.526496 0.49396 0.32337 0.0405 Uiso
O1I O 0.563081 0.592543 -0.430968 0.0337 Uiso
O2I O 0.632122 0.634708 -0.211973 0.0337 Uiso
O3I O 0.388628 0.414477 -0.155521 0.0337 Uiso
C1I C 0.583391 0.592628 -0.249678 0.0337 Uiso
C2I C 0.539237 0.545906 -0.114119 0.0337 Uiso
C3I C 0.44308 0.449638 -0.076891 0.0337 Uiso
C4I C 0.484247 0.50169 -0.190871 0.0337 Uiso
H1I H 0.473504 0.50604 -0.32337 0.0405 Uiso
Ni1I Ni 0.38251(10) 0.35168(10) -0.3537(4) 0.0337 Uiso
Ni1_2 Ni 0.61749(10) 0.64832(10) -0.6463(4) 0.0337 Uiso
Ni1I_2 Ni 0.38251(10) 0.35168(10) 0.6463(4) 0.0337 Uiso
Ni1E Ni 0.69750(14) 0.71584(10) -0.3130(4) 0.0337 Uiso
Ni1P Ni 0.31499(10) 0.36416(14) -0.0204(4) 0.0337 Uiso
Ni1G Ni 0.68501(10) 0.63584(14) 0.0204(4) 0.0337 Uiso
Ni1N Ni 0.30250(14) 0.28416(10) 0.3130(4) 0.0337 Uiso
O1_2 O 0.436919 0.407457 -0.569032 0.0337 Uiso
O1I_2 O 0.563081 0.592543 0.569032 0.0337 Uiso
O2D O 0.301375 0.335919 -0.454694 0.0337 Uiso
O2Q O 0.669253 0.701211 0.121360 0.0337 Uiso
O2H O 0.330747 0.298789 -0.121360 0.0337 Uiso
O2M O 0.698625 0.664081 0.454694 0.0337 Uiso
O3E O 0.640818 0.721961 0.488854 0.0337 Uiso
O3N O 0.359182 0.278039 -0.488854 0.0337 Uiso
Ne1 Ne 0.1560(3) 0.5027(3) 0.1730(11) 0.1000 Uiso
Ne2 Ne 0.000 0.000 0.500 0.1000 Uiso
loop_
_geom_bond_atom_site_label_1
_geom_bond_atom_site_label_2
_geom_bond_site_symmetry_1
_geom_bond_site_symmetry_2
Ni1 O3 1_555 1_555
O1 C1 1_555 1_555
O2 C1 1_555 1_555
O3 C3 1_555 1_555
C1 C2 1_555 1_555
C2 C4 1_555 1_555
C3 C4 1_555 1_555
C4 H1 1_555 1_555
O1I C1I 1_555 1_555
O2I C1I 1_555 1_555
O3I C3I 1_555 1_555
C1I C2I 1_555 1_555
C2I C3 1_555 1_555
C3I C2 1_555 1_555
C4I C2I 1_555 1_555
H1I C4I 1_555 1_555
Ni1I O3I 1_555 1_555
Ni1_2 O1I 1_555 1_555
Ni1I_2 O1 1_555 1_555
Ni1E O2I 1_555 1_555
Ni1P O2 1_555 1_555
Ni1G O3 1_555 1_555
Ni1N O2 1_555 1_555
O1_2 Ni1I 1_555 1_555
O1I_2 Ni1 1_555 1_555
O2D Ni1I 1_555 1_555
O2Q Ni1 1_555 1_555
O2H Ni1I 1_555 1_555
O2M Ni1 1_555 1_555
O3E Ni1 1_555 1_555
O3N Ni1I 1_555 1_555
O2I Ni1G 1_555 1_555
O3I Ni1P 1_555 1_555
C3I C4I 1_555 1_555
Ni1P O2H 1_555 1_555
Ni1G O2Q 1_555 1_555

#END
