
#######################################################################
#
#                 Cambridge Crystallographic Data Centre
#                                CCDC 
#
#######################################################################
#
# If this CIF has been generated from an entry in the Cambridge 
# Structural Database, then it will include bibliographic, chemical, 
# crystal, experimental, refinement or atomic coordinate data resulting 
# from the CCDC's data processing and validation procedures.
#
#######################################################################

data_AQUDOH
_chemical_formula_moiety         '(C17 H14 Cu2 N10 Ne1 O4)n'
_symmetry_cell_setting           monoclinic
_symmetry_space_group_name_H-M   'C 2/c'
_symmetry_Int_Tables_number      15
_space_group_name_Hall           '-C 2yc'
loop_
_symmetry_equiv_pos_site_id
_symmetry_equiv_pos_as_xyz
1 x,y,z
2 -x,y,1/2-z
3 1/2+x,1/2+y,z
4 1/2-x,1/2+y,1/2-z
5 -x,-y,-z
6 x,-y,1/2+z
7 1/2-x,1/2-y,-z
8 1/2+x,1/2-y,1/2+z
_cell_length_a                   28.7444(11)
_cell_length_b                   9.2672(5)
_cell_length_c                   9.3295(4)
_cell_angle_alpha                90
_cell_angle_beta                 116.097(3)
_cell_angle_gamma                90
_cell_volume                     2231.83
loop_
_atom_site_label
_atom_site_type_symbol
_atom_site_fract_x
_atom_site_fract_y
_atom_site_fract_z
_atom_site_U_iso_or_equiv
_atom_site_thermal_displace_type
Cu1 Cu 0.18782(17) 0.8307(6) 0.3137(6) 0.0550 Uiso
O1 O 0.1282(5) 1.0730(16) 0.3449(16) 0.0700 Uiso
O2 O 0.1390(5) 1.1799(17) 0.5742(16) 0.0700 Uiso
N1 N 0.2196(4) 1.0088(16) 0.7398(11) 0.0700 Uiso
N2 N 0.2559(4) 0.9053(17) 0.7928(12) 0.0700 Uiso
N3 N 0.2505(4) 0.8258(12) 0.6685(16) 0.0700 Uiso
N4 N 0.2114(4) 0.8766(14) 0.5377(13) 0.0700 Uiso
N5 N 0.1430(3) 0.6608(7) 0.3308(10) 0.0700 Uiso
C1 C 0.1493(2) 1.0886(11) 0.4906(15) 0.0700 Uiso
C2 C 0.1930(2) 0.9887(9) 0.5840(10) 0.0700 Uiso
C3 C 0.1108(4) 0.7196(8) 0.3847(12) 0.0700 Uiso
C4 C 0.0730(4) 0.6439(9) 0.4080(11) 0.0700 Uiso
C5 C 0.06843(16) 0.4973(9) 0.3725(4) 0.0700 Uiso
C6 C 0.1010(2) 0.4330(7) 0.3168(11) 0.0700 Uiso
C7 C 0.1376(3) 0.5186(7) 0.2976(13) 0.0700 Uiso
C8 C 0.02817(12) 0.4078(12) 0.39506(12) 0.0700 Uiso
C9 C 0.000 0.3137(12) 0.250 0.0700 Uiso
H1 H 0.114278 0.820932 0.408723 0.0845 Uiso
H2 H 0.050946 0.690645 0.446847 0.0845 Uiso
H3 H 0.098311 0.331908 0.292053 0.0845 Uiso
H4 H 0.16012 0.474283 0.258945 0.0845 Uiso
H5 H 0.044837 0.348102 0.487942 0.0845 Uiso
H6 H 0.003825 0.470557 0.408656 0.0845 Uiso
H7 H 0.02454(6) 0.2539(12) 0.2338(3) 0.0845 Uiso
N5A N -0.1430(3) 0.6608(7) 0.1692(10) 0.0700 Uiso
C3A C -0.1108(4) 0.7196(8) 0.1153(12) 0.0700 Uiso
C4A C -0.0730(4) 0.6439(9) 0.0920(11) 0.0700 Uiso
C5A C -0.06843(16) 0.4973(9) 0.1275(4) 0.0700 Uiso
C6A C -0.1010(2) 0.4330(7) 0.1832(11) 0.0700 Uiso
C7A C -0.1376(3) 0.5186(7) 0.2024(13) 0.0700 Uiso
C8A C -0.02817(12) 0.4078(12) 0.10494(12) 0.0700 Uiso
H1A H -0.114278 0.820932 0.091277 0.0845 Uiso
H2A H -0.050946 0.690645 0.053153 0.0845 Uiso
H3A H -0.098311 0.331908 0.207947 0.0845 Uiso
H4A H -0.16012 0.474283 0.241055 0.0845 Uiso
H5A H -0.044837 0.348102 0.012058 0.0845 Uiso
H6A H -0.003825 0.470557 0.091344 0.0845 Uiso
H7A H -0.02454(6) 0.2539(12) 0.2662(3) 0.0845 Uiso
Cu1A Cu -0.18782(17) 0.8307(6) 0.1863(6) 0.0550 Uiso
O1A O -0.1282(5) 1.0730(16) 0.1551(16) 0.0700 Uiso
O2A O -0.1390(5) 1.1799(17) -0.0742(16) 0.0700 Uiso
N1A N -0.2196(4) 1.0088(16) -0.2398(11) 0.0700 Uiso
N2A N -0.2559(4) 0.9053(17) -0.2928(12) 0.0700 Uiso
N3A N -0.2505(4) 0.8258(12) -0.1685(16) 0.0700 Uiso
N4A N -0.2114(4) 0.8766(14) -0.0377(13) 0.0700 Uiso
C1A C -0.1493(2) 1.0886(11) 0.0094(15) 0.0700 Uiso
C2A C -0.1930(2) 0.9887(9) -0.0840(10) 0.0700 Uiso
Cu1D Cu -0.18782(17) 1.1693(6) -0.3137(6) 0.0550 Uiso
Cu1E Cu 0.18782(17) 1.1693(6) 0.8137(6) 0.0550 Uiso
Cu1F Cu 0.31218(17) 0.6693(6) 0.6863(6) 0.0550 Uiso
Cu1G Cu -0.31218(17) 0.6693(6) -0.1863(6) 0.0550 Uiso
O2D O -0.1390(5) 0.8201(17) 0.4258(16) 0.0700 Uiso
O2E O 0.1390(5) 0.8201(17) 0.0742(16) 0.0700 Uiso
N1D N -0.2196(4) 0.9912(16) 0.2602(11) 0.0700 Uiso
N1E N 0.2196(4) 0.9912(16) 0.2398(11) 0.0700 Uiso
N3F N 0.2495(4) 0.6742(12) 0.3315(16) 0.0700 Uiso
N3G N -0.2495(4) 0.6742(12) 0.1685(16) 0.0700 Uiso
Ne1 Ne 0.000 0.016(6) 0.250 0.2110 Uiso
loop_
_geom_bond_atom_site_label_1
_geom_bond_atom_site_label_2
_geom_bond_site_symmetry_1
_geom_bond_site_symmetry_2
Cu1 N4 1_555 1_555
O1 C1 1_555 1_555
O2 C1 1_555 1_555
N1 N2 1_555 1_555
N2 N3 1_555 1_555
N3 N4 1_555 1_555
N4 C2 1_555 1_555
N5 Cu1 1_555 1_555
C1 C2 1_555 1_555
C2 N1 1_555 1_555
C3 N5 1_555 1_555
C4 C3 1_555 1_555
C5 C4 1_555 1_555
C6 C5 1_555 1_555
C7 N5 1_555 1_555
C8 C5 1_555 1_555
C9 C8 1_555 1_555
H1 C3 1_555 1_555
H2 C4 1_555 1_555
H3 C6 1_555 1_555
H4 C7 1_555 1_555
H5 C8 1_555 1_555
H6 C8 1_555 1_555
H7 C9 1_555 1_555
N5A C3A 1_555 1_555
C3A C4A 1_555 1_555
C4A C5A 1_555 1_555
C5A C6A 1_555 1_555
C6A C7A 1_555 1_555
C7A N5A 1_555 1_555
C8A C9 1_555 1_555
H1A C3A 1_555 1_555
H2A C4A 1_555 1_555
H3A C6A 1_555 1_555
H4A C7A 1_555 1_555
H5A C8A 1_555 1_555
H6A C8A 1_555 1_555
H7A C9 1_555 1_555
Cu1A N5A 1_555 1_555
O1A C1A 1_555 1_555
O2A C1A 1_555 1_555
N1A N2A 1_555 1_555
N2A N3A 1_555 1_555
N3A N4A 1_555 1_555
N4A Cu1A 1_555 1_555
C1A C2A 1_555 1_555
C2A N1A 1_555 1_555
Cu1D O2A 1_555 1_555
Cu1E O2 1_555 1_555
Cu1F N3 1_555 1_555
Cu1G N3A 1_555 1_555
O2D Cu1A 1_555 1_555
O2E Cu1 1_555 1_555
N1D Cu1A 1_555 1_555
N1E Cu1 1_555 1_555
N3F Cu1 1_555 1_555
N3G Cu1A 1_555 1_555
N1 Cu1E 1_555 1_555
C6 C7 1_555 1_555
C5A C8A 1_555 1_555
N1A Cu1D 1_555 1_555
N4A C2A 1_555 1_555

#END
