
#######################################################################
#
#                 Cambridge Crystallographic Data Centre
#                                CCDC 
#
#######################################################################
#
# If this CIF has been generated from an entry in the Cambridge 
# Structural Database, then it will include bibliographic, chemical, 
# crystal, experimental, refinement or atomic coordinate data resulting 
# from the CCDC's data processing and validation procedures.
#
#######################################################################

data_AQUDAT
_chemical_formula_moiety         '(C17 H14 Cu2 N10 Ne2 O4)n'
_symmetry_cell_setting           monoclinic
_symmetry_space_group_name_H-M   'C 2/c'
_symmetry_Int_Tables_number      15
_space_group_name_Hall           '-C 2yc'
loop_
_symmetry_equiv_pos_site_id
_symmetry_equiv_pos_as_xyz
1 x,y,z
2 -x,y,1/2-z
3 1/2+x,1/2+y,z
4 1/2-x,1/2+y,1/2-z
5 -x,-y,-z
6 x,-y,1/2+z
7 1/2-x,1/2-y,-z
8 1/2+x,1/2-y,1/2+z
_cell_length_a                   28.6315(13)
_cell_length_b                   9.2743(5)
_cell_length_c                   9.2833(5)
_cell_angle_alpha                90
_cell_angle_beta                 116.615(4)
_cell_angle_gamma                90
_cell_volume                     2203.86
loop_
_atom_site_label
_atom_site_type_symbol
_atom_site_fract_x
_atom_site_fract_y
_atom_site_fract_z
_atom_site_U_iso_or_equiv
_atom_site_thermal_displace_type
Cu1 Cu 0.18764(18) 0.8269(6) 0.3103(7) 0.0430 Uiso
O1 O 0.1271(6) 1.0664(17) 0.334(2) 0.0360 Uiso
O2 O 0.1372(5) 1.176(2) 0.5621(17) 0.0360 Uiso
N1 N 0.2208(5) 1.0110(17) 0.7329(14) 0.0360 Uiso
N2 N 0.2577(4) 0.9082(19) 0.7884(14) 0.0360 Uiso
N3 N 0.2512(4) 0.8247(15) 0.6652(18) 0.0360 Uiso
N4 N 0.2109(5) 0.8722(16) 0.5326(14) 0.0360 Uiso
N5 N 0.1422(3) 0.6614(8) 0.3189(12) 0.0360 Uiso
C1 C 0.1482(3) 1.0844(13) 0.4805(19) 0.0360 Uiso
C2 C 0.1928(3) 0.9864(11) 0.5767(13) 0.0360 Uiso
C3 C 0.1110(5) 0.7198(9) 0.3772(13) 0.0360 Uiso
C4 C 0.0740(4) 0.6438(10) 0.4047(12) 0.0360 Uiso
C5 C 0.06917(17) 0.4974(9) 0.3689(5) 0.0360 Uiso
C6 C 0.1007(3) 0.4335(8) 0.3086(12) 0.0360 Uiso
C7 C 0.1366(3) 0.5193(8) 0.2854(14) 0.0360 Uiso
C8 C 0.02973(13) 0.4077(12) 0.39570(14) 0.0360 Uiso
C9 C 0.000 0.3136(13) 0.250 0.0360 Uiso
H1 H 0.114705 0.821055 0.401414 0.0434 Uiso
H2 H 0.052662 0.6903 0.44649 0.0434 Uiso
H3 H 0.097777 0.3325 0.283528 0.0434 Uiso
H4 H 0.158355 0.475305 0.243733 0.0434 Uiso
H5 H 0.047508 0.347965 0.489059 0.0434 Uiso
H6 H 0.005764 0.470107 0.411951 0.0434 Uiso
H7 H 0.02411(7) 0.2538(13) 0.2312(3) 0.0434 Uiso
N5A N -0.1422(3) 0.6614(8) 0.1811(12) 0.0360 Uiso
C3A C -0.1110(5) 0.7198(9) 0.1228(13) 0.0360 Uiso
C4A C -0.0740(4) 0.6438(10) 0.0953(12) 0.0360 Uiso
C5A C -0.06917(17) 0.4974(9) 0.1311(5) 0.0360 Uiso
C6A C -0.1007(3) 0.4335(8) 0.1914(12) 0.0360 Uiso
C7A C -0.1366(3) 0.5193(8) 0.2146(14) 0.0360 Uiso
C8A C -0.02973(13) 0.4077(12) 0.10430(14) 0.0360 Uiso
H1A H -0.114705 0.821055 0.098586 0.0434 Uiso
H2A H -0.052662 0.6903 0.05351 0.0434 Uiso
H3A H -0.097777 0.3325 0.216472 0.0434 Uiso
H4A H -0.158355 0.475305 0.256267 0.0434 Uiso
H5A H -0.047508 0.347965 0.010941 0.0434 Uiso
H6A H -0.005764 0.470107 0.088049 0.0434 Uiso
H7A H -0.02411(7) 0.2538(13) 0.2688(3) 0.0434 Uiso
Cu1A Cu -0.18764(18) 0.8269(6) 0.1897(7) 0.0430 Uiso
O1A O -0.1271(6) 1.0664(17) 0.166(2) 0.0360 Uiso
O2A O -0.1372(5) 1.176(2) -0.0621(17) 0.0360 Uiso
N1A N -0.2208(5) 1.0110(17) -0.2329(14) 0.0360 Uiso
N2A N -0.2577(4) 0.9082(19) -0.2884(14) 0.0360 Uiso
N3A N -0.2512(4) 0.8247(15) -0.1652(18) 0.0360 Uiso
N4A N -0.2109(5) 0.8722(16) -0.0326(14) 0.0360 Uiso
C1A C -0.1482(3) 1.0844(13) 0.0195(19) 0.0360 Uiso
C2A C -0.1928(3) 0.9864(11) -0.0767(13) 0.0360 Uiso
Cu1D Cu -0.18764(18) 1.1731(6) -0.3103(7) 0.0430 Uiso
Cu1E Cu 0.18764(18) 1.1731(6) 0.8103(7) 0.0430 Uiso
Cu1F Cu 0.31236(18) 0.6731(6) 0.6897(7) 0.0430 Uiso
Cu1G Cu -0.31236(18) 0.6731(6) -0.1897(7) 0.0430 Uiso
O2D O -0.1372(5) 0.824(2) 0.4379(17) 0.0360 Uiso
O2E O 0.1372(5) 0.824(2) 0.0621(17) 0.0360 Uiso
N1D N -0.2208(5) 0.9890(17) 0.2671(14) 0.0360 Uiso
N1E N 0.2208(5) 0.9890(17) 0.2329(14) 0.0360 Uiso
N3F N 0.2488(4) 0.6753(15) 0.3348(18) 0.0360 Uiso
N3G N -0.2488(4) 0.6753(15) 0.1652(18) 0.0360 Uiso
Ne1 Ne 0.000 -0.010(4) 0.250 0.1080 Uiso
Ne2 Ne 0.000 0.000 0.000 0.1080 Uiso
loop_
_geom_bond_atom_site_label_1
_geom_bond_atom_site_label_2
_geom_bond_site_symmetry_1
_geom_bond_site_symmetry_2
Cu1 N4 1_555 1_555
O1 C1 1_555 1_555
O2 C1 1_555 1_555
N1 N2 1_555 1_555
N2 N3 1_555 1_555
N3 N4 1_555 1_555
N4 C2 1_555 1_555
N5 Cu1 1_555 1_555
C1 C2 1_555 1_555
C2 N1 1_555 1_555
C3 N5 1_555 1_555
C4 C3 1_555 1_555
C5 C4 1_555 1_555
C6 C5 1_555 1_555
C7 N5 1_555 1_555
C8 C5 1_555 1_555
C9 C8 1_555 1_555
H1 C3 1_555 1_555
H2 C4 1_555 1_555
H3 C6 1_555 1_555
H4 C7 1_555 1_555
H5 C8 1_555 1_555
H6 C8 1_555 1_555
H7 C9 1_555 1_555
N5A C3A 1_555 1_555
C3A C4A 1_555 1_555
C4A C5A 1_555 1_555
C5A C6A 1_555 1_555
C6A C7A 1_555 1_555
C7A N5A 1_555 1_555
C8A C9 1_555 1_555
H1A C3A 1_555 1_555
H2A C4A 1_555 1_555
H3A C6A 1_555 1_555
H4A C7A 1_555 1_555
H5A C8A 1_555 1_555
H6A C8A 1_555 1_555
H7A C9 1_555 1_555
Cu1A N5A 1_555 1_555
O1A C1A 1_555 1_555
O2A C1A 1_555 1_555
N1A N2A 1_555 1_555
N2A N3A 1_555 1_555
N3A N4A 1_555 1_555
N4A Cu1A 1_555 1_555
C1A C2A 1_555 1_555
C2A N1A 1_555 1_555
Cu1D O2A 1_555 1_555
Cu1E O2 1_555 1_555
Cu1F N3 1_555 1_555
Cu1G N3A 1_555 1_555
O2D Cu1A 1_555 1_555
O2E Cu1 1_555 1_555
N1D Cu1A 1_555 1_555
N1E Cu1 1_555 1_555
N3F Cu1 1_555 1_555
N3G Cu1A 1_555 1_555
N1 Cu1E 1_555 1_555
C6 C7 1_555 1_555
C5A C8A 1_555 1_555
N1A Cu1D 1_555 1_555
N4A C2A 1_555 1_555

#END
