
#######################################################################
#
#                 Cambridge Crystallographic Data Centre
#                                CCDC 
#
#######################################################################
#
# If this CIF has been generated from an entry in the Cambridge 
# Structural Database, then it will include bibliographic, chemical, 
# crystal, experimental, refinement or atomic coordinate data resulting 
# from the CCDC's data processing and validation procedures.
#
#######################################################################

data_AQUDEX
_chemical_formula_moiety         '(C17 H14 Cu2 N10 Ne2 O4)n'
_symmetry_cell_setting           monoclinic
_symmetry_space_group_name_H-M   'C 2/c'
_symmetry_Int_Tables_number      15
_space_group_name_Hall           '-C 2yc'
loop_
_symmetry_equiv_pos_site_id
_symmetry_equiv_pos_as_xyz
1 x,y,z
2 -x,y,1/2-z
3 1/2+x,1/2+y,z
4 1/2-x,1/2+y,1/2-z
5 -x,-y,-z
6 x,-y,1/2+z
7 1/2-x,1/2-y,-z
8 1/2+x,1/2-y,1/2+z
_cell_length_a                   28.6841(11)
_cell_length_b                   9.2655(5)
_cell_length_c                   9.3005(4)
_cell_angle_alpha                90
_cell_angle_beta                 116.369(3)
_cell_angle_gamma                90
_cell_volume                     2214.63
loop_
_atom_site_label
_atom_site_type_symbol
_atom_site_fract_x
_atom_site_fract_y
_atom_site_fract_z
_atom_site_U_iso_or_equiv
_atom_site_thermal_displace_type
Cu1 Cu 0.18800(16) 0.8292(5) 0.3140(6) 0.0540 Uiso
O1 O 0.1284(5) 1.0703(15) 0.3384(17) 0.0570 Uiso
O2 O 0.1379(5) 1.1780(17) 0.5668(15) 0.0570 Uiso
N1 N 0.2204(4) 1.0125(15) 0.7372(12) 0.0570 Uiso
N2 N 0.2571(3) 0.9096(16) 0.7932(12) 0.0570 Uiso
N3 N 0.2513(4) 0.8265(12) 0.6706(16) 0.0570 Uiso
N4 N 0.2117(4) 0.8745(13) 0.5379(13) 0.0570 Uiso
N5 N 0.1432(3) 0.6607(7) 0.3229(10) 0.0570 Uiso
C1 C 0.1491(2) 1.0869(11) 0.4848(16) 0.0570 Uiso
C2 C 0.1933(2) 0.9885(9) 0.5813(11) 0.0570 Uiso
C3 C 0.1121(4) 0.7200(7) 0.3808(11) 0.0570 Uiso
C4 C 0.0746(4) 0.6450(9) 0.4069(10) 0.0570 Uiso
C5 C 0.06924(16) 0.4987(8) 0.3699(4) 0.0570 Uiso
C6 C 0.1007(2) 0.4339(7) 0.3100(11) 0.0570 Uiso
C7 C 0.1371(3) 0.5187(7) 0.2883(13) 0.0570 Uiso
C8 C 0.02929(12) 0.4100(11) 0.39526(13) 0.0570 Uiso
C9 C 0.000 0.3159(11) 0.250 0.0570 Uiso
H1 H 0.116168 0.821138 0.40582 0.0686 Uiso
H2 H 0.053368 0.692109 0.448515 0.0686 Uiso
H3 H 0.097401 0.332918 0.284216 0.0686 Uiso
H4 H 0.158784 0.474054 0.246854 0.0686 Uiso
H5 H 0.046475 0.350312 0.488505 0.0686 Uiso
H6 H 0.005313 0.473252 0.410377 0.0686 Uiso
H7 H 0.02417(6) 0.2560(11) 0.2317(3) 0.0686 Uiso
N5A N -0.1432(3) 0.6607(7) 0.1771(10) 0.0570 Uiso
C3A C -0.1121(4) 0.7200(7) 0.1192(11) 0.0570 Uiso
C4A C -0.0746(4) 0.6450(9) 0.0931(10) 0.0570 Uiso
C5A C -0.06924(16) 0.4987(8) 0.1301(4) 0.0570 Uiso
C6A C -0.1007(2) 0.4339(7) 0.1900(11) 0.0570 Uiso
C7A C -0.1371(3) 0.5187(7) 0.2117(13) 0.0570 Uiso
C8A C -0.02929(12) 0.4100(11) 0.10474(13) 0.0570 Uiso
H1A H -0.116168 0.821138 0.09418 0.0686 Uiso
H2A H -0.053368 0.692109 0.051485 0.0686 Uiso
H3A H -0.097401 0.332918 0.215784 0.0686 Uiso
H4A H -0.158784 0.474054 0.253146 0.0686 Uiso
H5A H -0.046475 0.350312 0.011495 0.0686 Uiso
H6A H -0.005313 0.473252 0.089623 0.0686 Uiso
H7A H -0.02417(6) 0.2560(11) 0.2683(3) 0.0686 Uiso
Cu1A Cu -0.18800(16) 0.8292(5) 0.1860(6) 0.0540 Uiso
O1A O -0.1284(5) 1.0703(15) 0.1616(17) 0.0570 Uiso
O2A O -0.1379(5) 1.1780(17) -0.0668(15) 0.0570 Uiso
N1A N -0.2204(4) 1.0125(15) -0.2372(12) 0.0570 Uiso
N2A N -0.2571(3) 0.9096(16) -0.2932(12) 0.0570 Uiso
N3A N -0.2513(4) 0.8265(12) -0.1706(16) 0.0570 Uiso
N4A N -0.2117(4) 0.8745(13) -0.0379(13) 0.0570 Uiso
C1A C -0.1491(2) 1.0869(11) 0.0152(16) 0.0570 Uiso
C2A C -0.1933(2) 0.9885(9) -0.0813(11) 0.0570 Uiso
Cu1D Cu -0.18800(16) 1.1708(5) -0.3140(6) 0.0540 Uiso
Cu1E Cu 0.18800(16) 1.1708(5) 0.8140(6) 0.0540 Uiso
Cu1F Cu 0.31200(16) 0.6708(5) 0.6860(6) 0.0540 Uiso
Cu1G Cu -0.31200(16) 0.6708(5) -0.1860(6) 0.0540 Uiso
O2D O -0.1379(5) 0.8220(17) 0.4332(15) 0.0570 Uiso
O2E O 0.1379(5) 0.8220(17) 0.0668(15) 0.0570 Uiso
N1D N -0.2204(4) 0.9875(15) 0.2628(12) 0.0570 Uiso
N1E N 0.2204(4) 0.9875(15) 0.2372(12) 0.0570 Uiso
N3F N 0.2487(4) 0.6735(12) 0.3294(16) 0.0570 Uiso
N3G N -0.2487(4) 0.6735(12) 0.1706(16) 0.0570 Uiso
Ne1 Ne 0.000 0.008(5) 0.250 0.1720 Uiso
Ne2 Ne 0.000 0.000 0.000 0.1720 Uiso
loop_
_geom_bond_atom_site_label_1
_geom_bond_atom_site_label_2
_geom_bond_site_symmetry_1
_geom_bond_site_symmetry_2
Cu1 N4 1_555 1_555
O1 C1 1_555 1_555
O2 C1 1_555 1_555
N1 N2 1_555 1_555
N2 N3 1_555 1_555
N3 N4 1_555 1_555
N4 C2 1_555 1_555
N5 Cu1 1_555 1_555
C1 C2 1_555 1_555
C2 N1 1_555 1_555
C3 N5 1_555 1_555
C4 C3 1_555 1_555
C5 C4 1_555 1_555
C6 C5 1_555 1_555
C7 N5 1_555 1_555
C8 C5 1_555 1_555
C9 C8 1_555 1_555
H1 C3 1_555 1_555
H2 C4 1_555 1_555
H3 C6 1_555 1_555
H4 C7 1_555 1_555
H5 C8 1_555 1_555
H6 C8 1_555 1_555
H7 C9 1_555 1_555
N5A C3A 1_555 1_555
C3A C4A 1_555 1_555
C4A C5A 1_555 1_555
C5A C6A 1_555 1_555
C6A C7A 1_555 1_555
C7A N5A 1_555 1_555
C8A C9 1_555 1_555
H1A C3A 1_555 1_555
H2A C4A 1_555 1_555
H3A C6A 1_555 1_555
H4A C7A 1_555 1_555
H5A C8A 1_555 1_555
H6A C8A 1_555 1_555
H7A C9 1_555 1_555
Cu1A N5A 1_555 1_555
O1A C1A 1_555 1_555
O2A C1A 1_555 1_555
N1A N2A 1_555 1_555
N2A N3A 1_555 1_555
N3A N4A 1_555 1_555
N4A Cu1A 1_555 1_555
C1A C2A 1_555 1_555
C2A N1A 1_555 1_555
Cu1D O2A 1_555 1_555
Cu1E O2 1_555 1_555
Cu1F N3 1_555 1_555
Cu1G N3A 1_555 1_555
O2D Cu1A 1_555 1_555
O2E Cu1 1_555 1_555
N1D Cu1A 1_555 1_555
N1E Cu1 1_555 1_555
N3F Cu1 1_555 1_555
N3G Cu1A 1_555 1_555
N1 Cu1E 1_555 1_555
C6 C7 1_555 1_555
C5A C8A 1_555 1_555
N1A Cu1D 1_555 1_555
N4A C2A 1_555 1_555

#END
