
#######################################################################
#
#                 Cambridge Crystallographic Data Centre
#                                CCDC 
#
#######################################################################
#
# If this CIF has been generated from an entry in the Cambridge 
# Structural Database, then it will include bibliographic, chemical, 
# crystal, experimental, refinement or atomic coordinate data resulting 
# from the CCDC's data processing and validation procedures.
#
#######################################################################

data_DUZKAM
_chemical_formula_moiety         '(C39 H34 Cu3 Li1 Mn2 N6 O20 1-)n'
_symmetry_cell_setting           tetragonal
_symmetry_space_group_name_H-M   'P 4/m m m'
_symmetry_Int_Tables_number      123
_space_group_name_Hall           '-P 4 2'
loop_
_symmetry_equiv_pos_site_id
_symmetry_equiv_pos_as_xyz
1 x,y,z
2 -x,-y,z
3 -y,x,z
4 y,-x,z
5 -x,y,-z
6 x,-y,-z
7 y,x,-z
8 -y,-x,-z
9 -x,-y,-z
10 x,y,-z
11 y,-x,-z
12 -y,x,-z
13 x,-y,z
14 -x,y,z
15 -y,-x,z
16 y,x,z
_cell_length_a                   36.71(2)
_cell_length_b                   36.71(2)
_cell_length_c                   15.414(9)
_cell_angle_alpha                90
_cell_angle_beta                 90
_cell_angle_gamma                90
_cell_volume                     20772.3
loop_
_atom_site_label
_atom_site_type_symbol
_atom_site_fract_x
_atom_site_fract_y
_atom_site_fract_z
Li1 Li 0.1440 0.2798 0.2506
Cu1 Cu -0.0000 0.33016(12) 0.2727(3)
Cu2 Cu 0.14874(14) 0.5000 0.2694(3)
Cu3 Cu 0.24185(10) 0.24185(10) 0.2335(3)
Mn1 Mn 0.14392(12) 0.35117(12) 0.2500(3)
N1 N 0.0545(6) 0.3181(7) 0.3384(15)
N2 N 0.1334(5) 0.4636(5) 0.3373(12)
N3 N 0.1906(6) 0.2622(7) 0.1707(14)
O1 O 0.0330(5) 0.3579(5) 0.2027(12)
O2 O 0.0974(4) 0.3629(4) 0.1931(10)
O3 O 0.1102(4) 0.3183(5) 0.3230(12)
O4 O 0.1762(5) 0.4610(5) 0.1828(12)
O5 O 0.1711(9) 0.3951(8) 0.181(2)
O6 O 0.1366(5) 0.3915(5) 0.3431(12)
O7 O 0.1601(4) 0.3147(4) 0.1656(10)
O8 O 0.1920(6) 0.3390(6) 0.3063(15)
O9 O 0.2366(4) 0.2863(4) 0.3008(9)
C1 C 0.0641(7) 0.3565(11) 0.226(3)
C2 C 0.0776 0.3216 0.2847
C3 C 0.1427 0.4285 0.3023
C4 C 0.1571 0.4329 0.2054
C5 C 0.2078(16) 0.3040(17) 0.312(3)
C6 C 0.1904(8) 0.2905(8) 0.221(2)
C7 C 0.0507(9) 0.2937(7) 0.4219(16)
C8 C 0.0463(10) 0.3137(9) 0.5000
C9 C 0.0466(7) 0.2585(6) 0.4158(13)
C10 C 0.0360 0.2415 0.5000
H1 H 0.0222 0.2195 0.5000
C11 C 0.1110(6) 0.4592(6) 0.4213(13)
C12 C 0.1311(11) 0.4510(14) 0.5000
C13 C 0.1717(11) 0.4484(14) 0.5000
C14 C 0.1894(7) 0.2489(7) 0.0771(15)
C15 C 0.2001(9) 0.2653(8) 0.0000
C16 C 0.2274(13) 0.2989(12) 0.0000
C17 C 0.1603(7) 0.2202(8) 0.0806(17)
C18 C 0.1355(11) 0.2097(12) 0.0000
H2 H 0.1117 0.1996 0.0000
C19 C 0.0781(6) 0.4542(7) 0.3995(14)
C20 C 0.0569(11) 0.4498(11) 0.318(2)
H3 H 0.0733 0.4517 0.2683
H4 H 0.0384 0.4689 0.3148
H5 H 0.0451 0.4258 0.3180
C21 C 0.0652(11) 0.4534(11) 0.5000
H6 H 0.0394 0.4517 0.5000
C22 C 0.0355(16) 0.3556(11) 0.5000
C23 C 0.0476(8) 0.2398(8) 0.3228(16)
H7 H 0.0557 0.2576 0.2796
H8 H 0.0231 0.2312 0.3077
H9 H 0.0645 0.2192 0.3238
C24 C 0.1342(7) 0.2066(7) 0.1409(17)
H10 H 0.1434 0.2097 0.2001
H11 H 0.1300 0.1806 0.1298
H12 H 0.1113 0.2200 0.1343
O10 O 0.0280(11) 0.3023(13) 0.143(3)
N1I N 0.0545(6) 0.3181(7) 0.6616(15)
O1I O 0.0330(5) 0.3579(5) 0.7973(12)
O2I O 0.0974(4) 0.3629(4) 0.8069(10)
O3I O 0.1102(4) 0.3183(5) 0.6770(12)
C1I C 0.0641(7) 0.3565(11) 0.774(3)
C2I C 0.0776 0.3216 0.7153
C7I C 0.0507(9) 0.2937(7) 0.5781(16)
C9I C 0.0466(7) 0.2585(6) 0.5842(13)
C23I C 0.0476(8) 0.2398(8) 0.6772(16)
H7I H 0.0557 0.2576 0.7204
H8I H 0.0231 0.2312 0.6923
H9I H 0.0645 0.2192 0.6762
N2I N 0.1334(5) 0.4636(5) 0.6627(12)
O4I O 0.1762(5) 0.4610(5) 0.8172(12)
O5I O 0.1711(9) 0.3951(8) 0.819(2)
O6I O 0.1366(5) 0.3915(5) 0.6569(12)
C3I C 0.1427 0.4285 0.6977
C4I C 0.1571 0.4329 0.7946
C11I C 0.1110(6) 0.4592(6) 0.5787(13)
C19I C 0.0781(6) 0.4542(7) 0.6005(14)
C20I C 0.0569(11) 0.4498(11) 0.682(2)
H3I H 0.0733 0.4517 0.7317
H4I H 0.0384 0.4689 0.6852
H5I H 0.0451 0.4258 0.6820
N3I N 0.1906(6) 0.2622(7) -0.1707(14)
O7I O 0.1601(4) 0.3147(4) -0.1656(10)
O8I O 0.1920(6) 0.3390(6) -0.3063(15)
O9I O 0.2366(4) 0.2863(4) -0.3008(9)
C5I C 0.2078(16) 0.3040(17) -0.312(3)
C6I C 0.1904(8) 0.2905(8) -0.221(2)
C14I C 0.1894(7) 0.2489(7) -0.0771(15)
C17I C 0.1603(7) 0.2202(8) -0.0806(17)
C24I C 0.1342(7) 0.2066(7) -0.1409(17)
H10I H 0.1434 0.2097 -0.2001
H11I H 0.1300 0.1806 -0.1298
H12I H 0.1113 0.2200 -0.1343
Mn1I Mn 0.14392(12) 0.35117(12) 0.7500(3)
O10M O -0.0280(11) 0.3023(13) 0.143(3)
Cu1D Cu -0.0000 0.33016(12) 0.7273(3)
Cu2E Cu 0.14874(14) 0.5000 0.7306(3)
Cu3F Cu 0.24185(10) 0.24185(10) -0.2335(3)
Mn1I_2 Mn 0.14392(12) 0.35117(12) -0.2500(3)
N1M N -0.0545(6) 0.3181(7) 0.3384(15)
N2L N 0.1334(5) 0.5364(5) 0.3373(12)
N3O N 0.2622(7) 0.1906(6) 0.1707(14)
O1M O -0.0330(5) 0.3579(5) 0.2027(12)
O4L O 0.1762(5) 0.5390(5) 0.1828(12)
O7I_2 O 0.1601(4) 0.3147(4) 0.8344(10)
O8I_2 O 0.1920(6) 0.3390(6) 0.6937(15)
O9O O 0.2863(4) 0.2366(4) 0.3008(9)
loop_
_geom_bond_atom_site_label_1
_geom_bond_atom_site_label_2
_geom_bond_site_symmetry_1
_geom_bond_site_symmetry_2
Cu1 N1 1_555 1_555
Cu2 N2 1_555 1_555
Cu3 N3 1_555 1_555
Mn1 O2 1_555 1_555
N1 C2 1_555 1_555
N2 C3 1_555 1_555
N3 C6 1_555 1_555
O1 Cu1 1_555 1_555
O2 C1 1_555 1_555
O3 Mn1 1_555 1_555
O4 Cu2 1_555 1_555
O5 Mn1 1_555 1_555
O6 Mn1 1_555 1_555
O7 Mn1 1_555 1_555
O8 Mn1 1_555 1_555
O9 Cu3 1_555 1_555
C1 O1 1_555 1_555
C2 O3 1_555 1_555
C3 O6 1_555 1_555
C4 O4 1_555 1_555
C5 O8 1_555 1_555
C6 O7 1_555 1_555
C7 N1 1_555 1_555
C8 C7 1_555 1_555
C9 C7 1_555 1_555
C10 C9 1_555 1_555
H1 C10 1_555 1_555
C11 N2 1_555 1_555
C12 C11 1_555 1_555
C13 C12 1_555 1_555
C14 N3 1_555 1_555
C15 C14 1_555 1_555
C16 C15 1_555 1_555
C17 C14 1_555 1_555
C18 C17 1_555 1_555
H2 C18 1_555 1_555
C19 C11 1_555 1_555
C20 C19 1_555 1_555
H3 C20 1_555 1_555
H4 C20 1_555 1_555
H5 C20 1_555 1_555
C21 C19 1_555 1_555
H6 C21 1_555 1_555
C22 C8 1_555 1_555
C23 C9 1_555 1_555
H7 C23 1_555 1_555
H8 C23 1_555 1_555
H9 C23 1_555 1_555
C24 C17 1_555 1_555
H10 C24 1_555 1_555
H11 C24 1_555 1_555
H12 C24 1_555 1_555
O10 Cu1 1_555 1_555
N1I C2I 1_555 1_555
O1I C1I 1_555 1_555
O2I C1I 1_555 1_555
O3I C2I 1_555 1_555
C1I C2I 1_555 1_555
C7I C8 1_555 1_555
C9I C10 1_555 1_555
C23I C9I 1_555 1_555
H7I C23I 1_555 1_555
H8I C23I 1_555 1_555
H9I C23I 1_555 1_555
N2I C3I 1_555 1_555
O4I C4I 1_555 1_555
O5I C4I 1_555 1_555
O6I C3I 1_555 1_555
C3I C4I 1_555 1_555
C11I C12 1_555 1_555
C19I C21 1_555 1_555
C20I C19I 1_555 1_555
H3I C20I 1_555 1_555
H4I C20I 1_555 1_555
H5I C20I 1_555 1_555
N3I C6I 1_555 1_555
O7I C6I 1_555 1_555
O8I C5I 1_555 1_555
O9I C5I 1_555 1_555
C5I C6I 1_555 1_555
C14I C15 1_555 1_555
C17I C18 1_555 1_555
C24I C17I 1_555 1_555
H10I C24I 1_555 1_555
H11I C24I 1_555 1_555
H12I C24I 1_555 1_555
Mn1I O2I 1_555 1_555
O10M Cu1 1_555 1_555
Cu1D N1I 1_555 1_555
Cu2E N2I 1_555 1_555
Cu3F N3I 1_555 1_555
Mn1I_2 O7I 1_555 1_555
N1M Cu1 1_555 1_555
N2L Cu2 1_555 1_555
N3O Cu3 1_555 1_555
O1M Cu1 1_555 1_555
O4L Cu2 1_555 1_555
O7I_2 Mn1I 1_555 1_555
O8I_2 Mn1I 1_555 1_555
O9O Cu3 1_555 1_555
O5 C4 1_555 1_555
O9 C5 1_555 1_555
C1 C2 1_555 1_555
C3 C4 1_555 1_555
C5 C6 1_555 1_555
N1I C7I 1_555 1_555
O1I Cu1D 1_555 1_555
O3I Mn1I 1_555 1_555
C7I C9I 1_555 1_555
N2I C11I 1_555 1_555
O4I Cu2E 1_555 1_555
O5I Mn1I 1_555 1_555
O6I Mn1I 1_555 1_555
C11I C19I 1_555 1_555
N3I C14I 1_555 1_555
O8I Mn1I_2 1_555 1_555
O9I Cu3F 1_555 1_555
C14I C17I 1_555 1_555

#END
