
#######################################################################
#
#                 Cambridge Crystallographic Data Centre
#                                CCDC 
#
#######################################################################
#
# If this CIF has been generated from an entry in the Cambridge 
# Structural Database, then it will include bibliographic, chemical, 
# crystal, experimental, refinement or atomic coordinate data resulting 
# from the CCDC's data processing and validation procedures.
#
#######################################################################

data_ORAWAH
_chemical_formula_moiety         '(C120 H66 Cu12 O57)n'
_symmetry_cell_setting           cubic
_symmetry_space_group_name_H-M   'F m -3 m'
_symmetry_Int_Tables_number      225
_space_group_name_Hall           '-F 4 2 3'
loop_
_symmetry_equiv_pos_site_id
_symmetry_equiv_pos_as_xyz
1 x,y,z
2 -x,-y,z
3 x,-y,-z
4 -x,y,-z
5 z,x,y
6 y,z,x
7 -z,-x,y
8 -y,z,-x
9 z,-x,-y
10 -y,-z,x
11 -z,x,-y
12 y,-z,-x
13 -y,-x,-z
14 y,x,-z
15 y,-x,z
16 -y,x,z
17 -x,-z,-y
18 -z,-y,-x
19 x,z,-y
20 -z,y,x
21 x,-z,y
22 z,y,-x
23 -x,z,y
24 z,-y,x
25 x,1/2+y,1/2+z
26 -x,1/2-y,1/2+z
27 x,1/2-y,1/2-z
28 -x,1/2+y,1/2-z
29 z,1/2+x,1/2+y
30 y,1/2+z,1/2+x
31 -z,1/2-x,1/2+y
32 -y,1/2+z,1/2-x
33 z,1/2-x,1/2-y
34 -y,1/2-z,1/2+x
35 -z,1/2+x,1/2-y
36 y,1/2-z,1/2-x
37 -y,1/2-x,1/2-z
38 y,1/2+x,1/2-z
39 y,1/2-x,1/2+z
40 -y,1/2+x,1/2+z
41 -x,1/2-z,1/2-y
42 -z,1/2-y,1/2-x
43 x,1/2+z,1/2-y
44 -z,1/2+y,1/2+x
45 x,1/2-z,1/2+y
46 z,1/2+y,1/2-x
47 -x,1/2+z,1/2+y
48 z,1/2-y,1/2+x
49 1/2+x,y,1/2+z
50 1/2-x,-y,1/2+z
51 1/2+x,-y,1/2-z
52 1/2-x,y,1/2-z
53 1/2+z,x,1/2+y
54 1/2+y,z,1/2+x
55 1/2-z,-x,1/2+y
56 1/2-y,z,1/2-x
57 1/2+z,-x,1/2-y
58 1/2-y,-z,1/2+x
59 1/2-z,x,1/2-y
60 1/2+y,-z,1/2-x
61 1/2-y,-x,1/2-z
62 1/2+y,x,1/2-z
63 1/2+y,-x,1/2+z
64 1/2-y,x,1/2+z
65 1/2-x,-z,1/2-y
66 1/2-z,-y,1/2-x
67 1/2+x,z,1/2-y
68 1/2-z,y,1/2+x
69 1/2+x,-z,1/2+y
70 1/2+z,y,1/2-x
71 1/2-x,z,1/2+y
72 1/2+z,-y,1/2+x
73 1/2+x,1/2+y,z
74 1/2-x,1/2-y,z
75 1/2+x,1/2-y,-z
76 1/2-x,1/2+y,-z
77 1/2+z,1/2+x,y
78 1/2+y,1/2+z,x
79 1/2-z,1/2-x,y
80 1/2-y,1/2+z,-x
81 1/2+z,1/2-x,-y
82 1/2-y,1/2-z,x
83 1/2-z,1/2+x,-y
84 1/2+y,1/2-z,-x
85 1/2-y,1/2-x,-z
86 1/2+y,1/2+x,-z
87 1/2+y,1/2-x,z
88 1/2-y,1/2+x,z
89 1/2-x,1/2-z,-y
90 1/2-z,1/2-y,-x
91 1/2+x,1/2+z,-y
92 1/2-z,1/2+y,x
93 1/2+x,1/2-z,y
94 1/2+z,1/2+y,-x
95 1/2-x,1/2+z,y
96 1/2+z,1/2-y,x
97 -x,-y,-z
98 x,y,-z
99 -x,y,z
100 x,-y,z
101 -z,-x,-y
102 -y,-z,-x
103 z,x,-y
104 y,-z,x
105 -z,x,y
106 y,z,-x
107 z,-x,y
108 -y,z,x
109 y,x,z
110 -y,-x,z
111 -y,x,-z
112 y,-x,-z
113 x,z,y
114 z,y,x
115 -x,-z,y
116 z,-y,-x
117 -x,z,-y
118 -z,-y,x
119 x,-z,-y
120 -z,y,-x
121 -x,1/2-y,1/2-z
122 x,1/2+y,1/2-z
123 -x,1/2+y,1/2+z
124 x,1/2-y,1/2+z
125 -z,1/2-x,1/2-y
126 -y,1/2-z,1/2-x
127 z,1/2+x,1/2-y
128 y,1/2-z,1/2+x
129 -z,1/2+x,1/2+y
130 y,1/2+z,1/2-x
131 z,1/2-x,1/2+y
132 -y,1/2+z,1/2+x
133 y,1/2+x,1/2+z
134 -y,1/2-x,1/2+z
135 -y,1/2+x,1/2-z
136 y,1/2-x,1/2-z
137 x,1/2+z,1/2+y
138 z,1/2+y,1/2+x
139 -x,1/2-z,1/2+y
140 z,1/2-y,1/2-x
141 -x,1/2+z,1/2-y
142 -z,1/2-y,1/2+x
143 x,1/2-z,1/2-y
144 -z,1/2+y,1/2-x
145 1/2-x,-y,1/2-z
146 1/2+x,y,1/2-z
147 1/2-x,y,1/2+z
148 1/2+x,-y,1/2+z
149 1/2-z,-x,1/2-y
150 1/2-y,-z,1/2-x
151 1/2+z,x,1/2-y
152 1/2+y,-z,1/2+x
153 1/2-z,x,1/2+y
154 1/2+y,z,1/2-x
155 1/2+z,-x,1/2+y
156 1/2-y,z,1/2+x
157 1/2+y,x,1/2+z
158 1/2-y,-x,1/2+z
159 1/2-y,x,1/2-z
160 1/2+y,-x,1/2-z
161 1/2+x,z,1/2+y
162 1/2+z,y,1/2+x
163 1/2-x,-z,1/2+y
164 1/2+z,-y,1/2-x
165 1/2-x,z,1/2-y
166 1/2-z,-y,1/2+x
167 1/2+x,-z,1/2-y
168 1/2-z,y,1/2-x
169 1/2-x,1/2-y,-z
170 1/2+x,1/2+y,-z
171 1/2-x,1/2+y,z
172 1/2+x,1/2-y,z
173 1/2-z,1/2-x,-y
174 1/2-y,1/2-z,-x
175 1/2+z,1/2+x,-y
176 1/2+y,1/2-z,x
177 1/2-z,1/2+x,y
178 1/2+y,1/2+z,-x
179 1/2+z,1/2-x,y
180 1/2-y,1/2+z,x
181 1/2+y,1/2+x,z
182 1/2-y,1/2-x,z
183 1/2-y,1/2+x,-z
184 1/2+y,1/2-x,-z
185 1/2+x,1/2+z,y
186 1/2+z,1/2+y,x
187 1/2-x,1/2-z,y
188 1/2+z,1/2-y,-x
189 1/2-x,1/2+z,-y
190 1/2-z,1/2-y,x
191 1/2+x,1/2-z,-y
192 1/2-z,1/2+y,-x
_cell_length_a                   36.240(4)
_cell_length_b                   36.240
_cell_length_c                   36.240
_cell_angle_alpha                90
_cell_angle_beta                 90
_cell_angle_gamma                90
_cell_volume                     47595.4
loop_
_atom_site_label
_atom_site_type_symbol
_atom_site_fract_x
_atom_site_fract_y
_atom_site_fract_z
_atom_site_U_iso_or_equiv
_atom_site_thermal_displace_type
Cu1 Cu 0.20628(3) 1.0000 0.20628(3) 0.0468 Uani
Cu2 Cu 0.15505(3) 1.0000 0.15505(3) 0.0474 Uani
C1 C 0.21446(17) 0.95047(16) 0.14741(17) 0.0543 Uani
C2 C 0.23505(18) 0.92005(16) 0.12678(17) 0.0660 Uani
C3 C 0.2185(2) 0.90317(16) 0.09683(16) 0.0574 Uani
H1 H 0.1956 0.9122 0.0878 0.0690 Uiso
C4 C 0.2692(2) 0.90938(19) 0.1374(2) 0.0883 Uani
H2 H 0.2803 0.9212 0.1580 0.1060 Uiso
C5 C 0.2894(3) 0.88113(15) 0.11887(15) 0.0970 Uani
C6 C 0.3255(4) 0.86990(18) 0.13010(18) 0.1010 Uani
C7 C 0.3416(2) 0.8856(3) 0.1584(2) 0.1110 Uani
H3 H 0.3326 0.9086 0.1674 0.1330 Uiso
O1 O 0.22986(13) 0.96180(12) 0.17591(12) 0.0633 Uani
O2 O 0.18576(12) 0.96223(12) 0.13268(13) 0.0650 Uani
O3 O 0.2500 1.0000 0.2500 0.0830 Uani
O4 O 0.11227(19) 1.0000 0.11227(19) 0.1047 Uani
C1GB C 0.45047(16) 0.85259(17) 0.28554(17) 0.0543 Uani
C2GB C 0.42005(16) 0.87322(17) 0.26495(18) 0.0660 Uani
C3GB C 0.40317(16) 0.90317(16) 0.2815(2) 0.0574 Uani
H1GB H 0.4122 0.9122 0.3044 0.0690 Uiso
C4GB C 0.40938(19) 0.8626(2) 0.2308(2) 0.0883 Uani
H2GB H 0.4212 0.8420 0.2197 0.1060 Uiso
C5GB C 0.38113(15) 0.88113(15) 0.2106(3) 0.0970 Uani
C6GB C 0.36990(18) 0.86990(18) 0.1745(4) 0.1010 Uani
C7GB C 0.3856(3) 0.8416(2) 0.1584(2) 0.1110 Uani
H3GB H 0.4086 0.8326 0.1674 0.1330 Uiso
O1GB O 0.46180(12) 0.82409(12) 0.27014(13) 0.0633 Uani
O2GB O 0.46223(12) 0.86732(13) 0.31424(12) 0.0650 Uani
C1DC C 0.35259(17) 0.71446(17) 0.04953(16) 0.0543 Uani
C2DC C 0.37322(17) 0.73505(18) 0.07995(16) 0.0660 Uani
C3DC C 0.40317(16) 0.7185(2) 0.09683(16) 0.0574 Uani
H1DC H 0.4122 0.6956 0.0878 0.0690 Uiso
C4DC C 0.3626(2) 0.7692(2) 0.09062(19) 0.0883 Uani
H2DC H 0.3420 0.7803 0.0788 0.1060 Uiso
C5DC C 0.38113(15) 0.7894(3) 0.11887(15) 0.0970 Uani
C6DC C 0.36990(18) 0.8255(4) 0.13010(18) 0.1010 Uani
C7DC C 0.3416(2) 0.8416(2) 0.1144(3) 0.1110 Uani
H3DC H 0.3326 0.8326 0.0914 0.1330 Uiso
O1DC O 0.32409(12) 0.72986(13) 0.03820(12) 0.0633 Uani
O2DC O 0.36732(13) 0.68576(12) 0.03777(12) 0.0650 Uani
C1ND C 0.21446(17) 0.85259(17) 0.04953(16) 0.0543 Uani
C2ND C 0.23505(18) 0.87322(17) 0.07995(16) 0.0660 Uani
C4ND C 0.2692(2) 0.8626(2) 0.09062(19) 0.0883 Uani
H2ND H 0.2803 0.8420 0.0788 0.1060 Uiso
O1ND O 0.22986(13) 0.82409(12) 0.03820(12) 0.0633 Uani
O2ND O 0.18576(12) 0.86732(13) 0.03777(12) 0.0650 Uani
C1KF C 0.35259(17) 0.95047(16) 0.28554(17) 0.0543 Uani
C2KF C 0.37322(17) 0.92005(16) 0.26495(18) 0.0660 Uani
C4KF C 0.3626(2) 0.90938(19) 0.2308(2) 0.0883 Uani
H2KF H 0.3420 0.9212 0.2197 0.1060 Uiso
O1KF O 0.32409(12) 0.96180(12) 0.27014(13) 0.0633 Uani
O2KF O 0.36732(13) 0.96223(12) 0.31424(12) 0.0650 Uani
C1XF C 0.45047(16) 0.71446(17) 0.14741(17) 0.0543 Uani
C2XF C 0.42005(16) 0.73505(18) 0.12678(17) 0.0660 Uani
C4XF C 0.40938(19) 0.7692(2) 0.1374(2) 0.0883 Uani
H2XF H 0.4212 0.7803 0.1580 0.1060 Uiso
O1XF O 0.46180(12) 0.72986(13) 0.17591(12) 0.0633 Uani
O2XF O 0.46223(12) 0.68576(12) 0.13268(13) 0.0650 Uani
Cu1H Cu 0.20628(3) 0.79372(3) 0.0000 0.0468 Uani
Cu2H Cu 0.15505(3) 0.84495(3) 0.0000 0.0474 Uani
C1H C 0.14741(17) 0.78554(17) 0.04953(16) 0.0543 Uani
C2H C 0.12678(17) 0.76495(18) 0.07995(16) 0.0660 Uani
C3H C 0.09683(16) 0.7815(2) 0.09683(16) 0.0574 Uani
H1H H 0.0878 0.8044 0.0878 0.0690 Uiso
C4H C 0.1374(2) 0.7308(2) 0.09062(19) 0.0883 Uani
H2H H 0.1580 0.7197 0.0788 0.1060 Uiso
C5H C 0.11887(15) 0.7106(3) 0.11887(15) 0.0970 Uani
C6H C 0.13010(18) 0.6745(4) 0.13010(18) 0.1010 Uani
C7H C 0.1584(2) 0.6584(2) 0.1144(3) 0.1110 Uani
H3H H 0.1674 0.6674 0.0914 0.1330 Uiso
O1H O 0.17591(12) 0.77014(13) 0.03820(12) 0.0633 Uani
O2H O 0.13268(13) 0.81424(12) 0.03777(12) 0.0650 Uani
O3H O 0.2500 0.7500 0.0000 0.0830 Uani
O4H O 0.11227(19) 0.88773(19) 0.0000 0.1047 Uani
C1UB C 0.28554(17) 0.54953(16) 0.14741(17) 0.0543 Uani
C2UB C 0.26495(18) 0.57995(16) 0.12678(17) 0.0660 Uani
C3UB C 0.2815(2) 0.59683(16) 0.09683(16) 0.0574 Uani
H1UB H 0.3044 0.5878 0.0878 0.0690 Uiso
C4UB C 0.2308(2) 0.59062(19) 0.1374(2) 0.0883 Uani
H2UB H 0.2197 0.5788 0.1580 0.1060 Uiso
C5UB C 0.2106(3) 0.61887(15) 0.11887(15) 0.0970 Uani
C6UB C 0.1745(4) 0.63010(18) 0.13010(18) 0.1010 Uani
C7UB C 0.1584(2) 0.6144(3) 0.1584(2) 0.1110 Uani
H3UB H 0.1674 0.5914 0.1674 0.1330 Uiso
O1UB O 0.27014(13) 0.53820(12) 0.17591(12) 0.0633 Uani
O2UB O 0.31424(12) 0.53777(12) 0.13268(13) 0.0650 Uani
C1EA C 0.04953(16) 0.64741(17) 0.28554(17) 0.0543 Uani
C2EA C 0.07995(16) 0.62678(17) 0.26495(18) 0.0660 Uani
C3EA C 0.09683(16) 0.59683(16) 0.2815(2) 0.0574 Uani
H1EA H 0.0878 0.5878 0.3044 0.0690 Uiso
C4EA C 0.09062(19) 0.6374(2) 0.2308(2) 0.0883 Uani
H2EA H 0.0788 0.6580 0.2197 0.1060 Uiso
C5EA C 0.11887(15) 0.61887(15) 0.2106(3) 0.0970 Uani
C6EA C 0.13010(18) 0.63010(18) 0.1745(4) 0.1010 Uani
C7EA C 0.1144(3) 0.6584(2) 0.1584(2) 0.1110 Uani
H3EA H 0.0914 0.6674 0.1674 0.1330 Uiso
O1EA O 0.03820(12) 0.67591(12) 0.27014(13) 0.0633 Uani
O2EA O 0.03777(12) 0.63268(13) 0.31424(12) 0.0650 Uani
C1ED C 0.04953(16) 0.78554(17) 0.14741(17) 0.0543 Uani
C2ED C 0.07995(16) 0.76495(18) 0.12678(17) 0.0660 Uani
C4ED C 0.09062(19) 0.7308(2) 0.1374(2) 0.0883 Uani
H2ED H 0.0788 0.7197 0.1580 0.1060 Uiso
O1ED O 0.03820(12) 0.77014(13) 0.17591(12) 0.0633 Uani
O2ED O 0.03777(12) 0.81424(12) 0.13268(13) 0.0650 Uani
C1FG C 0.28554(17) 0.64741(17) 0.04953(16) 0.0543 Uani
C2FG C 0.26495(18) 0.62678(17) 0.07995(16) 0.0660 Uani
C4FG C 0.2308(2) 0.6374(2) 0.09062(19) 0.0883 Uani
H2FG H 0.2197 0.6580 0.0788 0.1060 Uiso
O1FG O 0.27014(13) 0.67591(12) 0.03820(12) 0.0633 Uani
O2FG O 0.31424(12) 0.63268(13) 0.03777(12) 0.0650 Uani
C1IE C 0.14741(17) 0.54953(16) 0.28554(17) 0.0543 Uani
C2IE C 0.12678(17) 0.57995(16) 0.26495(18) 0.0660 Uani
C4IE C 0.1374(2) 0.59062(19) 0.2308(2) 0.0883 Uani
H2IE H 0.1580 0.5788 0.2197 0.1060 Uiso
O1IE O 0.17591(12) 0.53820(12) 0.27014(13) 0.0633 Uani
O2IE O 0.13268(13) 0.53777(12) 0.31424(12) 0.0650 Uani
Cu1I Cu -0.0000 0.79372(3) 0.20628(3) 0.0468 Uani
Cu2I Cu 0.0000 0.84495(3) 0.15505(3) 0.0474 Uani
C1I C 0.04953(16) 0.85259(17) 0.21446(17) 0.0543 Uani
C2I C 0.07995(16) 0.87322(17) 0.23505(18) 0.0660 Uani
C3I C 0.09683(16) 0.90317(16) 0.2185(2) 0.0574 Uani
H1I H 0.0878 0.9122 0.1956 0.0690 Uiso
C4I C 0.09062(19) 0.8626(2) 0.2692(2) 0.0883 Uani
H2I H 0.0788 0.8420 0.2803 0.1060 Uiso
C5I C 0.11887(15) 0.88113(15) 0.2894(3) 0.0970 Uani
C6I C 0.13010(18) 0.86990(18) 0.3255(4) 0.1010 Uani
C7I C 0.1144(3) 0.8416(2) 0.3416(2) 0.1110 Uani
H3I H 0.0914 0.8326 0.3326 0.1330 Uiso
O1I O 0.03820(12) 0.82409(12) 0.22986(13) 0.0633 Uani
O2I O 0.03777(12) 0.86732(13) 0.18576(12) 0.0650 Uani
O3I O 0.0000 0.7500 0.2500 0.0830 Uani
O4I O -0.0000 0.88773(19) 0.11227(19) 0.1047 Uani
C1BA C 0.14741(17) 0.71446(17) 0.45047(16) 0.0543 Uani
C2BA C 0.12678(17) 0.73505(18) 0.42005(16) 0.0660 Uani
C3BA C 0.09683(16) 0.7185(2) 0.40317(16) 0.0574 Uani
H1BA H 0.0878 0.6956 0.4122 0.0690 Uiso
C4BA C 0.1374(2) 0.7692(2) 0.40938(19) 0.0883 Uani
H2BA H 0.1580 0.7803 0.4212 0.1060 Uiso
C5BA C 0.11887(15) 0.7894(3) 0.38113(15) 0.0970 Uani
C6BA C 0.13010(18) 0.8255(4) 0.36990(18) 0.1010 Uani
C7BA C 0.1584(2) 0.8416(2) 0.3856(3) 0.1110 Uani
H3BA H 0.1674 0.8326 0.4086 0.1330 Uiso
O1BA O 0.17591(12) 0.72986(13) 0.46180(12) 0.0633 Uani
O2BA O 0.13268(13) 0.68576(12) 0.46223(12) 0.0650 Uani
C1YA C 0.28554(17) 0.95047(16) 0.35259(17) 0.0543 Uani
C2YA C 0.26495(18) 0.92005(16) 0.37322(17) 0.0660 Uani
C3YA C 0.2815(2) 0.90317(16) 0.40317(16) 0.0574 Uani
H1YA H 0.3044 0.9122 0.4122 0.0690 Uiso
C4YA C 0.2308(2) 0.90938(19) 0.3626(2) 0.0883 Uani
H2YA H 0.2197 0.9212 0.3420 0.1060 Uiso
C5YA C 0.2106(3) 0.88113(15) 0.38113(15) 0.0970 Uani
C6YA C 0.1745(4) 0.86990(18) 0.36990(18) 0.1010 Uani
C7YA C 0.1584(2) 0.8856(3) 0.3416(2) 0.1110 Uani
H3YA H 0.1674 0.9086 0.3326 0.1330 Uiso
O1YA O 0.27014(13) 0.96180(12) 0.32409(12) 0.0633 Uani
O2YA O 0.31424(12) 0.96223(12) 0.36732(13) 0.0650 Uani
C1ID C 0.14741(17) 0.95047(16) 0.21446(17) 0.0543 Uani
C2ID C 0.12678(17) 0.92005(16) 0.23505(18) 0.0660 Uani
C4ID C 0.1374(2) 0.90938(19) 0.2692(2) 0.0883 Uani
H2ID H 0.1580 0.9212 0.2803 0.1060 Uiso
O1ID O 0.17591(12) 0.96180(12) 0.22986(13) 0.0633 Uani
O2ID O 0.13268(13) 0.96223(12) 0.18576(12) 0.0650 Uani
C1DE C 0.04953(16) 0.71446(17) 0.35259(17) 0.0543 Uani
C2DE C 0.07995(16) 0.73505(18) 0.37322(17) 0.0660 Uani
C4DE C 0.09062(19) 0.7692(2) 0.3626(2) 0.0883 Uani
H2DE H 0.0788 0.7803 0.3420 0.1060 Uiso
O1DE O 0.03820(12) 0.72986(13) 0.32409(12) 0.0633 Uani
O2DE O 0.03777(12) 0.68576(12) 0.36732(13) 0.0650 Uani
C1FF C 0.28554(17) 0.85259(17) 0.45047(16) 0.0543 Uani
C2FF C 0.26495(18) 0.87322(17) 0.42005(16) 0.0660 Uani
C4FF C 0.2308(2) 0.8626(2) 0.40938(19) 0.0883 Uani
H2FF H 0.2197 0.8420 0.4212 0.1060 Uiso
O1FF O 0.27014(13) 0.82409(12) 0.46180(12) 0.0633 Uani
O2FF O 0.31424(12) 0.86732(13) 0.46223(12) 0.0650 Uani
Cu1D Cu 0.20628(3) 1.20628(3) 0.0000 0.0468 Uani
Cu2D Cu 0.15505(3) 1.15505(3) 0.0000 0.0474 Uani
C1R C 0.21446(17) 1.14741(17) 0.04953(16) 0.0543 Uani
C2R C 0.23505(18) 1.12678(17) 0.07995(16) 0.0660 Uani
C3R C 0.2185(2) 1.09683(16) 0.09683(16) 0.0574 Uani
H1R H 0.1956 1.0878 0.0878 0.0690 Uiso
C4R C 0.2692(2) 1.1374(2) 0.09062(19) 0.0883 Uani
H2R H 0.2803 1.1580 0.0788 0.1060 Uiso
C5R C 0.2894(3) 1.11887(15) 0.11887(15) 0.0970 Uani
C6R C 0.3255(4) 1.13010(18) 0.13010(18) 0.1010 Uani
C7R C 0.3416(2) 1.1584(2) 0.1144(3) 0.1110 Uani
H3R H 0.3326 1.1674 0.0914 0.1330 Uiso
O1R O 0.22986(13) 1.17591(12) 0.03820(12) 0.0633 Uani
O2R O 0.18576(12) 1.13268(13) 0.03777(12) 0.0650 Uani
O4D O 0.11227(19) 1.11227(19) 0.0000 0.1047 Uani
C1HC C 0.45047(16) 1.28554(17) 0.14741(17) 0.0543 Uani
C2HC C 0.42005(16) 1.26495(18) 0.12678(17) 0.0660 Uani
C3HC C 0.40317(16) 1.2815(2) 0.09683(16) 0.0574 Uani
H1HC H 0.4122 1.3044 0.0878 0.0690 Uiso
C4HC C 0.40938(19) 1.2308(2) 0.1374(2) 0.0883 Uani
H2HC H 0.4212 1.2197 0.1580 0.1060 Uiso
C5HC C 0.38113(15) 1.2106(3) 0.11887(15) 0.0970 Uani
C6HC C 0.36990(18) 1.1745(4) 0.13010(18) 0.1010 Uani
C7HC C 0.3856(3) 1.1584(2) 0.1584(2) 0.1110 Uani
H3HC H 0.4086 1.1674 0.1674 0.1330 Uiso
O1HC O 0.46180(12) 1.27014(13) 0.17591(12) 0.0633 Uani
O2HC O 0.46223(12) 1.31424(12) 0.13268(13) 0.0650 Uani
C1MB C 0.35259(17) 1.04953(16) 0.28554(17) 0.0543 Uani
C2MB C 0.37322(17) 1.07995(16) 0.26495(18) 0.0660 Uani
C3MB C 0.40317(16) 1.09683(16) 0.2815(2) 0.0574 Uani
H1MB H 0.4122 1.0878 0.3044 0.0690 Uiso
C4MB C 0.3626(2) 1.09062(19) 0.2308(2) 0.0883 Uani
H2MB H 0.3420 1.0788 0.2197 0.1060 Uiso
C5MB C 0.38113(15) 1.11887(15) 0.2106(3) 0.0970 Uani
C6MB C 0.36990(18) 1.13010(18) 0.1745(4) 0.1010 Uani
C7MB C 0.3416(2) 1.1144(3) 0.1584(2) 0.1110 Uani
H3MB H 0.3326 1.0914 0.1674 0.1330 Uiso
O1MB O 0.32409(12) 1.03820(12) 0.27014(13) 0.0633 Uani
O2MB O 0.36732(13) 1.03777(12) 0.31424(12) 0.0650 Uani
C1UC C 0.21446(17) 1.04953(16) 0.14741(17) 0.0543 Uani
C2UC C 0.23505(18) 1.07995(16) 0.12678(17) 0.0660 Uani
C4UC C 0.2692(2) 1.09062(19) 0.1374(2) 0.0883 Uani
H2UC H 0.2803 1.0788 0.1580 0.1060 Uiso
O1UC O 0.22986(13) 1.03820(12) 0.17591(12) 0.0633 Uani
O2UC O 0.18576(12) 1.03777(12) 0.13268(13) 0.0650 Uani
C1PF C 0.35259(17) 1.28554(17) 0.04953(16) 0.0543 Uani
C2PF C 0.37322(17) 1.26495(18) 0.07995(16) 0.0660 Uani
C4PF C 0.3626(2) 1.2308(2) 0.09062(19) 0.0883 Uani
H2PF H 0.3420 1.2197 0.0788 0.1060 Uiso
O1PF O 0.32409(12) 1.27014(13) 0.03820(12) 0.0633 Uani
O2PF O 0.36732(13) 1.31424(12) 0.03777(12) 0.0650 Uani
C1WE C 0.45047(16) 1.14741(17) 0.28554(17) 0.0543 Uani
C2WE C 0.42005(16) 1.12678(17) 0.26495(18) 0.0660 Uani
C4WE C 0.40938(19) 1.1374(2) 0.2308(2) 0.0883 Uani
H2WE H 0.4212 1.1580 0.2197 0.1060 Uiso
O1WE O 0.46180(12) 1.17591(12) 0.27014(13) 0.0633 Uani
O2WE O 0.46223(12) 1.13268(13) 0.31424(12) 0.0650 Uani
Cu1YA Cu 0.29372(3) 1.0000 0.29372(3) 0.0468 Uani
Cu2YA Cu 0.34495(3) 1.0000 0.34495(3) 0.0474 Uani
O4YA O 0.38773(19) 1.0000 0.38773(19) 0.1047 Uani
Cu1GB Cu 0.5000 0.79372(3) 0.29372(3) 0.0468 Uani
Cu2GB Cu 0.5000 0.84495(3) 0.34495(3) 0.0474 Uani
O4GB O 0.5000 0.88773(19) 0.38773(19) 0.1047 Uani
Cu1Z Cu 0.20628(3) 0.5000 0.29372(3) 0.0468 Uani
Cu1BA Cu 0.20628(3) 0.70628(3) 0.5000 0.0468 Uani
Cu1EA Cu 0.0000 0.70628(3) 0.29372(3) 0.0468 Uani
Cu1BB Cu 0.29372(3) 0.79372(3) 0.5000 0.0468 Uani
Cu1CB Cu 0.5000 1.20628(3) 0.29372(3) 0.0468 Uani
Cu1UB Cu 0.29372(3) 0.5000 0.20628(3) 0.0468 Uani
Cu1YB Cu 0.5000 0.70628(3) 0.20628(3) 0.0468 Uani
Cu1ZB Cu 0.29372(3) 1.29372(3) 0.0000 0.0468 Uani
Cu1CC Cu 0.5000 1.29372(3) 0.20628(3) 0.0468 Uani
Cu1DC Cu 0.29372(3) 0.70628(3) 0.0000 0.0468 Uani
Cu2Z Cu 0.15505(3) 0.5000 0.34495(3) 0.0474 Uani
Cu2BA Cu 0.15505(3) 0.65505(3) 0.5000 0.0474 Uani
Cu2EA Cu 0.0000 0.65505(3) 0.34495(3) 0.0474 Uani
Cu2BB Cu 0.34495(3) 0.84495(3) 0.5000 0.0474 Uani
Cu2CB Cu 0.5000 1.15505(3) 0.34495(3) 0.0474 Uani
Cu2UB Cu 0.34495(3) 0.5000 0.15505(3) 0.0474 Uani
Cu2YB Cu 0.5000 0.65505(3) 0.15505(3) 0.0474 Uani
Cu2ZB Cu 0.34495(3) 1.34495(3) 0.0000 0.0474 Uani
Cu2CC Cu 0.5000 1.34495(3) 0.15505(3) 0.0474 Uani
Cu2DC Cu 0.34495(3) 0.65505(3) 0.0000 0.0474 Uani
O1D O 0.17591(12) 1.22986(13) -0.03820(12) 0.0633 Uani
O1N O -0.03820(12) 0.77014(13) 0.17591(12) 0.0633 Uani
O1T O 0.22986(13) 0.82409(12) -0.03820(12) 0.0633 Uani
O1W O 0.17591(12) 1.03820(12) 0.22986(13) 0.0633 Uani
O1HB O 0.53820(12) 0.77014(13) 0.32409(12) 0.0633 Uani
O1XC O 0.17591(12) 1.22986(13) 0.03820(12) 0.0633 Uani
O1YC O -0.03820(12) 0.82409(12) 0.22986(13) 0.0633 Uani
O1BD O 0.17591(12) 0.77014(13) -0.03820(12) 0.0633 Uani
O1HD O 0.22986(13) 1.17591(12) -0.03820(12) 0.0633 Uani
O1NE O 0.27014(13) 1.03820(12) 0.32409(12) 0.0633 Uani
O1SE O 0.53820(12) 0.82409(12) 0.27014(13) 0.0633 Uani
O1CF O 0.46180(12) 0.77014(13) 0.32409(12) 0.0633 Uani
O2D O 0.13268(13) 1.18576(12) -0.03777(12) 0.0650 Uani
O2N O -0.03777(12) 0.81424(12) 0.13268(13) 0.0650 Uani
O2T O 0.18576(12) 0.86732(13) -0.03777(12) 0.0650 Uani
O2W O 0.13268(13) 1.03777(12) 0.18576(12) 0.0650 Uani
O2HB O 0.53777(12) 0.81424(12) 0.36732(13) 0.0650 Uani
O2XC O 0.13268(13) 1.18576(12) 0.03777(12) 0.0650 Uani
O2YC O -0.03777(12) 0.86732(13) 0.18576(12) 0.0650 Uani
O2BD O 0.13268(13) 0.81424(12) -0.03777(12) 0.0650 Uani
O2HD O 0.18576(12) 1.13268(13) -0.03777(12) 0.0650 Uani
O2NE O 0.31424(12) 1.03777(12) 0.36732(13) 0.0650 Uani
O2SE O 0.53777(12) 0.86732(13) 0.31424(12) 0.0650 Uani
O2CF O 0.46223(12) 0.81424(12) 0.36732(13) 0.0650 Uani
O3D O 0.2500 1.2500 0.0000 0.0830 Uani
O3GB O 0.5000 0.7500 0.2500 0.0830 Uani
loop_
_atom_site_aniso_label
_atom_site_aniso_U_11
_atom_site_aniso_U_22
_atom_site_aniso_U_33
_atom_site_aniso_U_23
_atom_site_aniso_U_13
_atom_site_aniso_U_12
Cu1 0.0501(6) 0.0401(8) 0.0501(6) 0.000 -0.0115(6) 0.000
Cu2 0.0502(6) 0.0419(8) 0.0502(6) 0.000 -0.0083(6) 0.000
C1 0.056(2) 0.049(2) 0.058(2) -0.0046(16) -0.0098(17) 0.0022(17)
C2 0.066(2) 0.067(2) 0.065(2) -0.0048(17) -0.0047(17) 0.0047(17)
C3 0.058(3) 0.0571(19) 0.0571(19) 0.0001(18) -0.0027(13) 0.0027(13)
C4 0.089(3) 0.088(3) 0.088(3) -0.0050(18) -0.0027(18) 0.0043(18)
C5 0.097(3) 0.097(2) 0.097(2) -0.0016(19) -0.0012(13) 0.0012(13)
C6 0.101(3) 0.101(2) 0.101(2) -0.0018(19) -0.0008(14) 0.0008(14)
C7 0.111(2) 0.111(3) 0.111(2) -0.0015(10) -0.0010(14) 0.0015(10)
O1 0.072(3) 0.055(2) 0.063(3) -0.014(2) -0.017(2) 0.014(2)
O2 0.071(3) 0.057(3) 0.067(3) -0.016(2) -0.010(2) 0.011(2)
O3 0.062(5) 0.125(13) 0.062(5) 0.000 -0.015(7) 0.000
O4 0.092 0.130 0.092 0.000 -0.042 0.000
C1GB 0.049 0.058 0.056 -0.0098 -0.0022 0.0046
C2GB 0.067 0.065 0.066 -0.0047 -0.0047 0.0048
C3GB 0.0571 0.0571 0.058 -0.0027 -0.0027 -0.0001
C4GB 0.088 0.088 0.089 -0.0027 -0.0043 0.005
C5GB 0.097 0.097 0.097 -0.0012 -0.0012 0.0016
C6GB 0.101 0.101 0.101 -0.0008 -0.0008 0.0018
C7GB 0.111 0.111 0.111 -0.001 -0.0015 0.0015
O1GB 0.055 0.063 0.072 -0.017 -0.014 0.014
O2GB 0.057 0.067 0.071 -0.01 -0.011 0.016
C1DC 0.058 0.056 0.049 -0.0022 -0.0046 0.0098
C2DC 0.065 0.066 0.067 -0.0047 -0.0048 0.0047
C3DC 0.0571 0.058 0.0571 -0.0027 0.0001 0.0027
C4DC 0.088 0.089 0.088 -0.0043 -0.005 0.0027
C5DC 0.097 0.097 0.097 -0.0012 -0.0016 0.0012
C6DC 0.101 0.101 0.101 -0.0008 -0.0018 0.0008
C7DC 0.111 0.111 0.111 -0.0015 -0.0015 0.001
O1DC 0.063 0.072 0.055 -0.014 -0.014 0.017
O2DC 0.067 0.071 0.057 -0.011 -0.016 0.01
C1ND 0.056 0.058 0.049 -0.0046 -0.0022 0.0098
C2ND 0.066 0.065 0.067 -0.0048 -0.0047 0.0047
C4ND 0.089 0.088 0.088 -0.005 -0.0043 0.0027
O1ND 0.072 0.063 0.055 -0.014 -0.014 0.017
O2ND 0.071 0.067 0.057 -0.016 -0.011 0.01
C1KF 0.058 0.049 0.056 -0.0022 -0.0098 0.0046
C2KF 0.065 0.067 0.066 -0.0047 -0.0047 0.0048
C4KF 0.088 0.088 0.089 -0.0043 -0.0027 0.005
O1KF 0.063 0.055 0.072 -0.014 -0.017 0.014
O2KF 0.067 0.057 0.071 -0.011 -0.01 0.016
C1XF 0.049 0.056 0.058 -0.0098 -0.0046 0.0022
C2XF 0.067 0.066 0.065 -0.0047 -0.0048 0.0047
C4XF 0.088 0.089 0.088 -0.0027 -0.005 0.0043
O1XF 0.055 0.072 0.063 -0.017 -0.014 0.014
O2XF 0.057 0.071 0.067 -0.01 -0.016 0.011
Cu1H 0.0501 0.0501 0.0401 0 0 0.0115
Cu2H 0.0502 0.0502 0.0419 0 0 0.0083
C1H 0.058 0.056 0.049 0.0022 0.0046 0.0098
C2H 0.065 0.066 0.067 0.0047 0.0048 0.0047
C3H 0.0571 0.058 0.0571 0.0027 -0.0001 0.0027
C4H 0.088 0.089 0.088 0.0043 0.005 0.0027
C5H 0.097 0.097 0.097 0.0012 0.0016 0.0012
C6H 0.101 0.101 0.101 0.0008 0.0018 0.0008
C7H 0.111 0.111 0.111 0.0015 0.0015 0.001
O1H 0.063 0.072 0.055 0.014 0.014 0.017
O2H 0.067 0.071 0.057 0.011 0.016 0.01
O3H 0.062 0.062 0.125 0 0 0.015
O4H 0.092 0.092 0.13 0 0 0.042
C1UB 0.056 0.049 0.058 0.0046 0.0098 0.0022
C2UB 0.066 0.067 0.065 0.0048 0.0047 0.0047
C3UB 0.058 0.0571 0.0571 -0.0001 0.0027 0.0027
C4UB 0.089 0.088 0.088 0.005 0.0027 0.0043
C5UB 0.097 0.097 0.097 0.0016 0.0012 0.0012
C6UB 0.101 0.101 0.101 0.0018 0.0008 0.0008
C7UB 0.111 0.111 0.111 0.0015 0.001 0.0015
O1UB 0.072 0.055 0.063 0.014 0.017 0.014
O2UB 0.071 0.057 0.067 0.016 0.01 0.011
C1EA 0.049 0.058 0.056 0.0098 0.0022 0.0046
C2EA 0.067 0.065 0.066 0.0047 0.0047 0.0048
C3EA 0.0571 0.0571 0.058 0.0027 0.0027 -0.0001
C4EA 0.088 0.088 0.089 0.0027 0.0043 0.005
C5EA 0.097 0.097 0.097 0.0012 0.0012 0.0016
C6EA 0.101 0.101 0.101 0.0008 0.0008 0.0018
C7EA 0.111 0.111 0.111 0.001 0.0015 0.0015
O1EA 0.055 0.063 0.072 0.017 0.014 0.014
O2EA 0.057 0.067 0.071 0.01 0.011 0.016
C1ED 0.049 0.056 0.058 0.0098 0.0046 0.0022
C2ED 0.067 0.066 0.065 0.0047 0.0048 0.0047
C4ED 0.088 0.089 0.088 0.0027 0.005 0.0043
O1ED 0.055 0.072 0.063 0.017 0.014 0.014
O2ED 0.057 0.071 0.067 0.01 0.016 0.011
C1FG 0.056 0.058 0.049 0.0046 0.0022 0.0098
C2FG 0.066 0.065 0.067 0.0048 0.0047 0.0047
C4FG 0.089 0.088 0.088 0.005 0.0043 0.0027
O1FG 0.072 0.063 0.055 0.014 0.014 0.017
O2FG 0.071 0.067 0.057 0.016 0.011 0.01
C1IE 0.058 0.049 0.056 0.0022 0.0098 0.0046
C2IE 0.065 0.067 0.066 0.0047 0.0047 0.0048
C4IE 0.088 0.088 0.089 0.0043 0.0027 0.005
O1IE 0.063 0.055 0.072 0.014 0.017 0.014
O2IE 0.067 0.057 0.071 0.011 0.01 0.016
Cu1I 0.0401 0.0501 0.0501 0.0115 0 0
Cu2I 0.0419 0.0502 0.0502 0.0083 0 0
C1I 0.049 0.058 0.056 0.0098 -0.0022 -0.0046
C2I 0.067 0.065 0.066 0.0047 -0.0047 -0.0048
C3I 0.0571 0.0571 0.058 0.0027 -0.0027 0.0001
C4I 0.088 0.088 0.089 0.0027 -0.0043 -0.005
C5I 0.097 0.097 0.097 0.0012 -0.0012 -0.0016
C6I 0.101 0.101 0.101 0.0008 -0.0008 -0.0018
C7I 0.111 0.111 0.111 0.001 -0.0015 -0.0015
O1I 0.055 0.063 0.072 0.017 -0.014 -0.014
O2I 0.057 0.067 0.071 0.01 -0.011 -0.016
O3I 0.125 0.062 0.062 0.015 0 0
O4I 0.13 0.092 0.092 0.042 0 0
C1BA 0.058 0.056 0.049 0.0022 -0.0046 -0.0098
C2BA 0.065 0.066 0.067 0.0047 -0.0048 -0.0047
C3BA 0.0571 0.058 0.0571 0.0027 0.0001 -0.0027
C4BA 0.088 0.089 0.088 0.0043 -0.005 -0.0027
C5BA 0.097 0.097 0.097 0.0012 -0.0016 -0.0012
C6BA 0.101 0.101 0.101 0.0008 -0.0018 -0.0008
C7BA 0.111 0.111 0.111 0.0015 -0.0015 -0.001
O1BA 0.063 0.072 0.055 0.014 -0.014 -0.017
O2BA 0.067 0.071 0.057 0.011 -0.016 -0.01
C1YA 0.056 0.049 0.058 0.0046 -0.0098 -0.0022
C2YA 0.066 0.067 0.065 0.0048 -0.0047 -0.0047
C3YA 0.058 0.0571 0.0571 -0.0001 -0.0027 -0.0027
C4YA 0.089 0.088 0.088 0.005 -0.0027 -0.0043
C5YA 0.097 0.097 0.097 0.0016 -0.0012 -0.0012
C6YA 0.101 0.101 0.101 0.0018 -0.0008 -0.0008
C7YA 0.111 0.111 0.111 0.0015 -0.001 -0.0015
O1YA 0.072 0.055 0.063 0.014 -0.017 -0.014
O2YA 0.071 0.057 0.067 0.016 -0.01 -0.011
C1ID 0.058 0.049 0.056 0.0022 -0.0098 -0.0046
C2ID 0.065 0.067 0.066 0.0047 -0.0047 -0.0048
C4ID 0.088 0.088 0.089 0.0043 -0.0027 -0.005
O1ID 0.063 0.055 0.072 0.014 -0.017 -0.014
O2ID 0.067 0.057 0.071 0.011 -0.01 -0.016
C1DE 0.049 0.056 0.058 0.0098 -0.0046 -0.0022
C2DE 0.067 0.066 0.065 0.0047 -0.0048 -0.0047
C4DE 0.088 0.089 0.088 0.0027 -0.005 -0.0043
O1DE 0.055 0.072 0.063 0.017 -0.014 -0.014
O2DE 0.057 0.071 0.067 0.01 -0.016 -0.011
C1FF 0.056 0.058 0.049 0.0046 -0.0022 -0.0098
C2FF 0.066 0.065 0.067 0.0048 -0.0047 -0.0047
C4FF 0.089 0.088 0.088 0.005 -0.0043 -0.0027
O1FF 0.072 0.063 0.055 0.014 -0.014 -0.017
O2FF 0.071 0.067 0.057 0.016 -0.011 -0.01
Cu1D 0.0501 0.0501 0.0401 0 0 -0.0115
Cu2D 0.0502 0.0502 0.0419 0 0 -0.0083
C1R 0.056 0.058 0.049 0.0046 -0.0022 -0.0098
C2R 0.066 0.065 0.067 0.0048 -0.0047 -0.0047
C3R 0.058 0.0571 0.0571 -0.0001 -0.0027 -0.0027
C4R 0.089 0.088 0.088 0.005 -0.0043 -0.0027
C5R 0.097 0.097 0.097 0.0016 -0.0012 -0.0012
C6R 0.101 0.101 0.101 0.0018 -0.0008 -0.0008
C7R 0.111 0.111 0.111 0.0015 -0.0015 -0.001
O1R 0.072 0.063 0.055 0.014 -0.014 -0.017
O2R 0.071 0.067 0.057 0.016 -0.011 -0.01
O4D 0.092 0.092 0.13 0 0 -0.042
C1HC 0.049 0.056 0.058 0.0098 -0.0046 -0.0022
C2HC 0.067 0.066 0.065 0.0047 -0.0048 -0.0047
C3HC 0.0571 0.058 0.0571 0.0027 0.0001 -0.0027
C4HC 0.088 0.089 0.088 0.0027 -0.005 -0.0043
C5HC 0.097 0.097 0.097 0.0012 -0.0016 -0.0012
C6HC 0.101 0.101 0.101 0.0008 -0.0018 -0.0008
C7HC 0.111 0.111 0.111 0.001 -0.0015 -0.0015
O1HC 0.055 0.072 0.063 0.017 -0.014 -0.014
O2HC 0.057 0.071 0.067 0.01 -0.016 -0.011
C1MB 0.058 0.049 0.056 0.0022 -0.0098 -0.0046
C2MB 0.065 0.067 0.066 0.0047 -0.0047 -0.0048
C3MB 0.0571 0.0571 0.058 0.0027 -0.0027 0.0001
C4MB 0.088 0.088 0.089 0.0043 -0.0027 -0.005
C5MB 0.097 0.097 0.097 0.0012 -0.0012 -0.0016
C6MB 0.101 0.101 0.101 0.0008 -0.0008 -0.0018
C7MB 0.111 0.111 0.111 0.0015 -0.001 -0.0015
O1MB 0.063 0.055 0.072 0.014 -0.017 -0.014
O2MB 0.067 0.057 0.071 0.011 -0.01 -0.016
C1UC 0.056 0.049 0.058 0.0046 -0.0098 -0.0022
C2UC 0.066 0.067 0.065 0.0048 -0.0047 -0.0047
C4UC 0.089 0.088 0.088 0.005 -0.0027 -0.0043
O1UC 0.072 0.055 0.063 0.014 -0.017 -0.014
O2UC 0.071 0.057 0.067 0.016 -0.01 -0.011
C1PF 0.058 0.056 0.049 0.0022 -0.0046 -0.0098
C2PF 0.065 0.066 0.067 0.0047 -0.0048 -0.0047
C4PF 0.088 0.089 0.088 0.0043 -0.005 -0.0027
O1PF 0.063 0.072 0.055 0.014 -0.014 -0.017
O2PF 0.067 0.071 0.057 0.011 -0.016 -0.01
C1WE 0.049 0.058 0.056 0.0098 -0.0022 -0.0046
C2WE 0.067 0.065 0.066 0.0047 -0.0047 -0.0048
C4WE 0.088 0.088 0.089 0.0027 -0.0043 -0.005
O1WE 0.055 0.063 0.072 0.017 -0.014 -0.014
O2WE 0.057 0.067 0.071 0.01 -0.011 -0.016
Cu1YA 0.0501 0.0401 0.0501 0 -0.0115 0
Cu2YA 0.0502 0.0419 0.0502 0 -0.0083 0
O4YA 0.092 0.13 0.092 0 -0.042 0
Cu1GB 0.0401 0.0501 0.0501 -0.0115 0 0
Cu2GB 0.0419 0.0502 0.0502 -0.0083 0 0
O4GB 0.13 0.092 0.092 -0.042 0 0
Cu1Z 0.0501 0.0401 0.0501 0 0.0115 0
Cu1BA 0.0501 0.0501 0.0401 0 0 -0.0115
Cu1EA 0.0401 0.0501 0.0501 0.0115 0 0
Cu1BB 0.0501 0.0501 0.0401 0 0 -0.0115
Cu1CB 0.0401 0.0501 0.0501 0.0115 0 0
Cu1UB 0.0501 0.0401 0.0501 0 0.0115 0
Cu1YB 0.0401 0.0501 0.0501 -0.0115 0 0
Cu1ZB 0.0501 0.0501 0.0401 0 0 -0.0115
Cu1CC 0.0401 0.0501 0.0501 0.0115 0 0
Cu1DC 0.0501 0.0501 0.0401 0 0 0.0115
Cu2Z 0.0502 0.0419 0.0502 0 0.0083 0
Cu2BA 0.0502 0.0502 0.0419 0 0 -0.0083
Cu2EA 0.0419 0.0502 0.0502 0.0083 0 0
Cu2BB 0.0502 0.0502 0.0419 0 0 -0.0083
Cu2CB 0.0419 0.0502 0.0502 0.0083 0 0
Cu2UB 0.0502 0.0419 0.0502 0 0.0083 0
Cu2YB 0.0419 0.0502 0.0502 -0.0083 0 0
Cu2ZB 0.0502 0.0502 0.0419 0 0 -0.0083
Cu2CC 0.0419 0.0502 0.0502 0.0083 0 0
Cu2DC 0.0502 0.0502 0.0419 0 0 0.0083
O1D 0.063 0.072 0.055 0.014 -0.014 -0.017
O1N 0.055 0.072 0.063 0.017 -0.014 -0.014
O1T 0.072 0.063 0.055 0.014 0.014 0.017
O1W 0.063 0.055 0.072 -0.014 -0.017 0.014
O1HB 0.055 0.072 0.063 -0.017 -0.014 0.014
O1XC 0.063 0.072 0.055 -0.014 0.014 -0.017
O1YC 0.055 0.063 0.072 0.017 0.014 0.014
O1BD 0.063 0.072 0.055 -0.014 -0.014 0.017
O1HD 0.072 0.063 0.055 -0.014 0.014 -0.017
O1NE 0.072 0.055 0.063 -0.014 -0.017 0.014
O1SE 0.055 0.063 0.072 -0.017 0.014 -0.014
O1CF 0.055 0.072 0.063 -0.017 0.014 -0.014
O2D 0.067 0.071 0.057 0.011 -0.016 -0.01
O2N 0.057 0.071 0.067 0.01 -0.016 -0.011
O2T 0.071 0.067 0.057 0.016 0.011 0.01
O2W 0.067 0.057 0.071 -0.011 -0.01 0.016
O2HB 0.057 0.071 0.067 -0.01 -0.016 0.011
O2XC 0.067 0.071 0.057 -0.011 0.016 -0.01
O2YC 0.057 0.067 0.071 0.01 0.011 0.016
O2BD 0.067 0.071 0.057 -0.011 -0.016 0.01
O2HD 0.071 0.067 0.057 -0.016 0.011 -0.01
O2NE 0.071 0.057 0.067 -0.016 -0.01 0.011
O2SE 0.057 0.067 0.071 -0.01 0.011 -0.016
O2CF 0.057 0.071 0.067 -0.01 0.016 -0.011
O3D 0.062 0.062 0.125 0 0 -0.015
O3GB 0.125 0.062 0.062 -0.015 0 0
loop_
_geom_bond_atom_site_label_1
_geom_bond_atom_site_label_2
_geom_bond_site_symmetry_1
_geom_bond_site_symmetry_2
Cu1 Cu2 1_555 1_555
Cu2 O2 1_555 1_555
C1 C2 1_555 1_555
C2 C3 1_555 1_555
C3 H1 1_555 1_555
C4 C2 1_555 1_555
H2 C4 1_555 1_555
C5 C4 1_555 1_555
C6 C5 1_555 1_555
C7 C6 1_555 1_555
H3 C7 1_555 1_555
O1 Cu1 1_555 1_555
O2 C1 1_555 1_555
O3 Cu1 1_555 1_555
O4 Cu2 1_555 1_555
C1GB C2GB 1_555 1_555
C2GB C3GB 1_555 1_555
C3GB H1GB 1_555 1_555
C4GB C2GB 1_555 1_555
H2GB C4GB 1_555 1_555
C5GB C4GB 1_555 1_555
C6GB C7 1_555 1_555
C7GB C6GB 1_555 1_555
H3GB C7GB 1_555 1_555
O1GB C1GB 1_555 1_555
O2GB C1GB 1_555 1_555
C1DC C2DC 1_555 1_555
C2DC C3DC 1_555 1_555
C3DC H1DC 1_555 1_555
C4DC C2DC 1_555 1_555
H2DC C4DC 1_555 1_555
C5DC C4DC 1_555 1_555
C6DC C7GB 1_555 1_555
C7DC C6 1_555 1_555
H3DC C7DC 1_555 1_555
O1DC C1DC 1_555 1_555
O2DC C1DC 1_555 1_555
C1ND C2ND 1_555 1_555
C2ND C3 1_555 1_555
C4ND C5 1_555 1_555
H2ND C4ND 1_555 1_555
O1ND C1ND 1_555 1_555
O2ND C1ND 1_555 1_555
C1KF C2KF 1_555 1_555
C2KF C3GB 1_555 1_555
C4KF C5GB 1_555 1_555
H2KF C4KF 1_555 1_555
O1KF C1KF 1_555 1_555
O2KF C1KF 1_555 1_555
C1XF C2XF 1_555 1_555
C2XF C3DC 1_555 1_555
C4XF C5DC 1_555 1_555
H2XF C4XF 1_555 1_555
O1XF C1XF 1_555 1_555
O2XF C1XF 1_555 1_555
Cu1H O1ND 1_555 1_555
Cu2H O2ND 1_555 1_555
C1H C2H 1_555 1_555
C2H C3H 1_555 1_555
C3H H1H 1_555 1_555
C4H C2H 1_555 1_555
H2H C4H 1_555 1_555
C5H C4H 1_555 1_555
C6H C5H 1_555 1_555
C7H C6H 1_555 1_555
H3H C7H 1_555 1_555
O1H Cu1H 1_555 1_555
O2H Cu2H 1_555 1_555
O3H Cu1H 1_555 1_555
O4H Cu2H 1_555 1_555
C1UB C2UB 1_555 1_555
C2UB C3UB 1_555 1_555
C3UB H1UB 1_555 1_555
C4UB C2UB 1_555 1_555
H2UB C4UB 1_555 1_555
C5UB C4UB 1_555 1_555
C6UB C7H 1_555 1_555
C7UB C6UB 1_555 1_555
H3UB C7UB 1_555 1_555
O1UB C1UB 1_555 1_555
O2UB C1UB 1_555 1_555
C1EA C2EA 1_555 1_555
C2EA C3EA 1_555 1_555
C3EA H1EA 1_555 1_555
C4EA C2EA 1_555 1_555
H2EA C4EA 1_555 1_555
C5EA C4EA 1_555 1_555
C6EA C7UB 1_555 1_555
C7EA C6H 1_555 1_555
H3EA C7EA 1_555 1_555
O1EA C1EA 1_555 1_555
O2EA C1EA 1_555 1_555
C1ED C2ED 1_555 1_555
C2ED C3H 1_555 1_555
C4ED C5H 1_555 1_555
H2ED C4ED 1_555 1_555
O1ED C1ED 1_555 1_555
O2ED C1ED 1_555 1_555
C1FG C2FG 1_555 1_555
C2FG C3UB 1_555 1_555
C4FG C5UB 1_555 1_555
H2FG C4FG 1_555 1_555
O1FG C1FG 1_555 1_555
O2FG C1FG 1_555 1_555
C1IE C2IE 1_555 1_555
C2IE C3EA 1_555 1_555
C4IE C5EA 1_555 1_555
H2IE C4IE 1_555 1_555
O1IE C1IE 1_555 1_555
O2IE C1IE 1_555 1_555
Cu1I O1ED 1_555 1_555
Cu2I O2ED 1_555 1_555
C1I C2I 1_555 1_555
C2I C3I 1_555 1_555
C3I H1I 1_555 1_555
C4I C2I 1_555 1_555
H2I C4I 1_555 1_555
C5I C4I 1_555 1_555
C6I C5I 1_555 1_555
C7I C6I 1_555 1_555
H3I C7I 1_555 1_555
O1I Cu1I 1_555 1_555
O2I Cu2I 1_555 1_555
O3I Cu1I 1_555 1_555
O4I Cu2I 1_555 1_555
C1BA C2BA 1_555 1_555
C2BA C3BA 1_555 1_555
C3BA H1BA 1_555 1_555
C4BA C2BA 1_555 1_555
H2BA C4BA 1_555 1_555
C5BA C4BA 1_555 1_555
C6BA C7I 1_555 1_555
C7BA C6BA 1_555 1_555
H3BA C7BA 1_555 1_555
O1BA C1BA 1_555 1_555
O2BA C1BA 1_555 1_555
C1YA C2YA 1_555 1_555
C2YA C3YA 1_555 1_555
C3YA H1YA 1_555 1_555
C4YA C2YA 1_555 1_555
H2YA C4YA 1_555 1_555
C5YA C4YA 1_555 1_555
C6YA C7BA 1_555 1_555
C7YA C6I 1_555 1_555
H3YA C7YA 1_555 1_555
O1YA C1YA 1_555 1_555
O2YA C1YA 1_555 1_555
C1ID C2ID 1_555 1_555
C2ID C3I 1_555 1_555
C4ID C5I 1_555 1_555
H2ID C4ID 1_555 1_555
O1ID Cu1 1_555 1_555
O2ID Cu2 1_555 1_555
C1DE C2DE 1_555 1_555
C2DE C3BA 1_555 1_555
C4DE C5BA 1_555 1_555
H2DE C4DE 1_555 1_555
O1DE C1DE 1_555 1_555
O2DE C1DE 1_555 1_555
C1FF C2FF 1_555 1_555
C2FF C3YA 1_555 1_555
C4FF C5YA 1_555 1_555
H2FF C4FF 1_555 1_555
O1FF C1FF 1_555 1_555
O2FF C1FF 1_555 1_555
Cu1D Cu2D 1_555 1_555
Cu2D O2R 1_555 1_555
C1R C2R 1_555 1_555
C2R C3R 1_555 1_555
C3R H1R 1_555 1_555
C4R C2R 1_555 1_555
H2R C4R 1_555 1_555
C5R C4R 1_555 1_555
C6R C5R 1_555 1_555
C7R C6R 1_555 1_555
H3R C7R 1_555 1_555
O1R Cu1D 1_555 1_555
O2R C1R 1_555 1_555
O4D Cu2D 1_555 1_555
C1HC C2HC 1_555 1_555
C2HC C3HC 1_555 1_555
C3HC H1HC 1_555 1_555
C4HC C2HC 1_555 1_555
H2HC C4HC 1_555 1_555
C5HC C4HC 1_555 1_555
C6HC C7R 1_555 1_555
C7HC C6HC 1_555 1_555
H3HC C7HC 1_555 1_555
O1HC C1HC 1_555 1_555
O2HC C1HC 1_555 1_555
C1MB C2MB 1_555 1_555
C2MB C3MB 1_555 1_555
C3MB H1MB 1_555 1_555
C4MB C2MB 1_555 1_555
H2MB C4MB 1_555 1_555
C5MB C4MB 1_555 1_555
C6MB C7HC 1_555 1_555
C7MB C6R 1_555 1_555
H3MB C7MB 1_555 1_555
O1MB C1MB 1_555 1_555
O2MB C1MB 1_555 1_555
C1UC C2UC 1_555 1_555
C2UC C3R 1_555 1_555
C4UC C5R 1_555 1_555
H2UC C4UC 1_555 1_555
O1UC Cu1 1_555 1_555
O2UC Cu2 1_555 1_555
C1PF C2PF 1_555 1_555
C2PF C3HC 1_555 1_555
C4PF C5HC 1_555 1_555
H2PF C4PF 1_555 1_555
O1PF C1PF 1_555 1_555
O2PF C1PF 1_555 1_555
C1WE C2WE 1_555 1_555
C2WE C3MB 1_555 1_555
C4WE C5MB 1_555 1_555
H2WE C4WE 1_555 1_555
O1WE C1WE 1_555 1_555
O2WE C1WE 1_555 1_555
Cu1YA O3 1_555 1_555
Cu2YA O2KF 1_555 1_555
O4YA Cu2YA 1_555 1_555
Cu1GB O1GB 1_555 1_555
Cu2GB O2GB 1_555 1_555
O4GB Cu2GB 1_555 1_555
Cu1Z O1IE 1_555 1_555
Cu1BA O1BA 1_555 1_555
Cu1EA O1EA 1_555 1_555
Cu1BB O1FF 1_555 1_555
Cu1CB O1WE 1_555 1_555
Cu1UB O1UB 1_555 1_555
Cu1YB O1XF 1_555 1_555
Cu1ZB O1PF 1_555 1_555
Cu1CC O1HC 1_555 1_555
Cu1DC O1DC 1_555 1_555
Cu2Z O2IE 1_555 1_555
Cu2BA O2BA 1_555 1_555
Cu2EA O2EA 1_555 1_555
Cu2BB O2FF 1_555 1_555
Cu2CB O2WE 1_555 1_555
Cu2UB O2UB 1_555 1_555
Cu2YB O2XF 1_555 1_555
Cu2ZB O2PF 1_555 1_555
Cu2CC O2HC 1_555 1_555
Cu2DC O2DC 1_555 1_555
O1D Cu1D 1_555 1_555
O1N Cu1I 1_555 1_555
O1T Cu1H 1_555 1_555
O1W Cu1 1_555 1_555
O1HB Cu1GB 1_555 1_555
O1XC Cu1D 1_555 1_555
O1YC Cu1I 1_555 1_555
O1BD Cu1H 1_555 1_555
O1HD Cu1D 1_555 1_555
O1NE Cu1YA 1_555 1_555
O1SE Cu1GB 1_555 1_555
O1CF Cu1GB 1_555 1_555
O2D Cu2D 1_555 1_555
O2N Cu2I 1_555 1_555
O2T Cu2H 1_555 1_555
O2W Cu2 1_555 1_555
O2HB Cu2GB 1_555 1_555
O2XC Cu2D 1_555 1_555
O2YC Cu2I 1_555 1_555
O2BD Cu2H 1_555 1_555
O2HD Cu2D 1_555 1_555
O2NE Cu2YA 1_555 1_555
O2SE Cu2GB 1_555 1_555
O2CF Cu2GB 1_555 1_555
O3D Cu1D 1_555 1_555
O3GB Cu1GB 1_555 1_555
C1 O1 1_555 1_555
C5GB C6GB 1_555 1_555
C5DC C6DC 1_555 1_555
C6DC C7DC 1_555 1_555
C2ND C4ND 1_555 1_555
C2KF C4KF 1_555 1_555
O1KF Cu1YA 1_555 1_555
C2XF C4XF 1_555 1_555
Cu1H Cu2H 1_555 1_555
C1H O1H 1_555 1_555
C1H O2H 1_555 1_555
O3H Cu1DC 1_555 1_555
C5UB C6UB 1_555 1_555
C5EA C6EA 1_555 1_555
C6EA C7EA 1_555 1_555
C2ED C4ED 1_555 1_555
C2FG C4FG 1_555 1_555
O1FG Cu1DC 1_555 1_555
O2FG Cu2DC 1_555 1_555
C2IE C4IE 1_555 1_555
Cu1I Cu2I 1_555 1_555
C1I O1I 1_555 1_555
C1I O2I 1_555 1_555
O3I Cu1EA 1_555 1_555
C5BA C6BA 1_555 1_555
C5YA C6YA 1_555 1_555
C6YA C7YA 1_555 1_555
O1YA Cu1YA 1_555 1_555
O2YA Cu2YA 1_555 1_555
C1ID O1ID 1_555 1_555
C1ID O2ID 1_555 1_555
C2ID C4ID 1_555 1_555
C2DE C4DE 1_555 1_555
O1DE Cu1EA 1_555 1_555
O2DE Cu2EA 1_555 1_555
C2FF C4FF 1_555 1_555
C1R O1R 1_555 1_555
C5HC C6HC 1_555 1_555
C5MB C6MB 1_555 1_555
C6MB C7MB 1_555 1_555
O1MB Cu1YA 1_555 1_555
O2MB Cu2YA 1_555 1_555
C1UC O1UC 1_555 1_555
C1UC O2UC 1_555 1_555
C2UC C4UC 1_555 1_555
C2PF C4PF 1_555 1_555
C2WE C4WE 1_555 1_555
Cu1YA Cu2YA 1_555 1_555
Cu1GB Cu2GB 1_555 1_555
Cu1Z Cu2Z 1_555 1_555
Cu1BA Cu2BA 1_555 1_555
Cu1EA Cu2EA 1_555 1_555
Cu1BB Cu2BB 1_555 1_555
Cu1CB Cu2CB 1_555 1_555
Cu1UB Cu2UB 1_555 1_555
Cu1YB Cu2YB 1_555 1_555
Cu1YB O3GB 1_555 1_555
Cu1ZB Cu2ZB 1_555 1_555
Cu1ZB O3D 1_555 1_555
Cu1CC Cu2CC 1_555 1_555
Cu1DC Cu2DC 1_555 1_555

#END
