
#######################################################################
#
#                 Cambridge Crystallographic Data Centre
#                                CCDC 
#
#######################################################################
#
# If this CIF has been generated from an entry in the Cambridge 
# Structural Database, then it will include bibliographic, chemical, 
# crystal, experimental, refinement or atomic coordinate data resulting 
# from the CCDC's data processing and validation procedures.
#
#######################################################################

data_VOCKUT
_chemical_formula_moiety         '(C26 H26 Co2 N4 O11)n'
_symmetry_cell_setting           triclinic
_symmetry_space_group_name_H-M   'P -1'
_symmetry_Int_Tables_number      2
_space_group_name_Hall           '-P 1'
loop_
_symmetry_equiv_pos_site_id
_symmetry_equiv_pos_as_xyz
1 x,y,z
2 -x,-y,-z
_cell_length_a                   10.53440(10)
_cell_length_b                   11.9073(2)
_cell_length_c                   14.0461(3)
_cell_angle_alpha                106.6450(10)
_cell_angle_beta                 101.9770(10)
_cell_angle_gamma                112.0780(10)
_cell_volume                     1462.4
loop_
_atom_site_label
_atom_site_type_symbol
_atom_site_fract_x
_atom_site_fract_y
_atom_site_fract_z
Co1 Co 0.19149(8) -0.00864(7) 0.21280(5)
Co2 Co 0.55129(8) 0.27080(7) 0.31163(5)
O1 O 0.4012(4) 0.3005(4) 0.3818(3)
O2 O 0.2152(4) 0.1112(4) 0.3602(3)
O3 O 0.4027(5) -0.0705(4) 0.5763(3)
O4 O 0.3335(4) -0.2843(4) 0.5435(3)
O5 O 0.2159(4) 0.1358(4) 0.1508(3)
O6 O 0.4466(4) 0.2541(4) 0.1623(3)
O7 O 0.1610(4) -0.1336(4) 0.0598(3)
O8 O 0.3918(4) -0.0805(5) 0.0692(3)
O9 O 0.4252(4) 0.0602(4) 0.2584(3)
H1 H 0.436(9) 0.025(8) 0.210(7)
H2 H 0.476(9) 0.045(8) 0.311(7)
N1 N 0.3293(5) 0.5177(4) 0.6310(3)
N2 N 0.1640(5) -0.1624(5) 0.2679(3)
N3 N 0.0395(5) 0.0714(5) -0.1581(3)
N4 N 0.2786(5) -0.2489(4) -0.2516(3)
C1 C 0.2996(6) 0.2333(5) 0.4061(4)
C2 C 0.2758(6) 0.3076(6) 0.5019(4)
C3 C 0.1996(9) 0.2432(7) 0.5556(6)
H3 H 0.1542 0.1494 0.5301
C4 C 0.1911(11) 0.3184(7) 0.6468(6)
H4 H 0.1388 0.2769 0.6849
C5 C 0.2589(8) 0.4536(6) 0.6820(5)
H5 H 0.2551 0.5040 0.7464
C6 C 0.3362(6) 0.4436(5) 0.5416(4)
H6 H 0.3858 0.4877 0.5036
C7 C 0.3331(6) -0.1906(6) 0.5187(4)
C8 C 0.2371(6) -0.2300(6) 0.4061(4)
C9 C 0.1439(7) -0.3619(6) 0.3378(5)
H7 H 0.1382 -0.4304 0.3612
C10 C 0.0598(8) -0.3924(6) 0.2356(5)
H8 H -0.0063 -0.4816 0.1883
C11 C 0.0740(7) -0.2910(6) 0.2040(5)
H9 H 0.0173 -0.3125 0.1332
C12 C 0.2428(6) -0.1345(6) 0.3679(4)
H10 H 0.3056 -0.0443 0.4144
C13 C 0.3092(6) 0.1830(5) 0.1118(4)
C14 C 0.2526(6) 0.1497(5) -0.0056(4)
C15 C 0.3375(6) 0.1513(6) -0.0689(5)
H11 H 0.4396 0.1806 -0.0389
C16 C 0.2688(7) 0.1088(7) -0.1779(5)
H12 H 0.3232 0.1059 -0.2239
C17 C 0.1218(6) 0.0712(6) -0.2182(4)
H13 H 0.0768 0.0438 -0.2925
C18 C 0.1054(6) 0.1089(5) -0.0537(4)
H14 H 0.0473 0.1072 -0.0102
C19 C 0.2569(6) -0.1307(5) 0.0196(4)
C20 C 0.2076(6) -0.1892(5) -0.1001(4)
C21 C 0.0665(6) -0.2310(6) -0.1667(4)
H15 H -0.0067 -0.2262 -0.1384
C22 C 0.0354(6) -0.2801(6) -0.2757(4)
H16 H -0.0594 -0.3074 -0.3232
C23 C 0.1420(6) -0.2891(6) -0.3145(4)
H17 H 0.1179 -0.3254 -0.3893
C24 C 0.3097(6) -0.1978(5) -0.1460(4)
H18 H 0.4071 -0.1658 -0.1004
N3A N -0.0395(5) -0.0714(5) 0.1581(3)
O4A O 0.6665(4) 0.2843(4) 0.4565(3)
N1A N 0.6707(5) 0.4823(4) 0.3690(3)
N4A N 0.7214(5) 0.2489(4) 0.2516(3)
Co2A Co 0.44871(8) -0.27080(7) 0.68837(5)
Co2A_2 Co 0.44871(8) 0.72920(7) 0.68837(5)
Co1A Co -0.19149(8) 0.00864(7) -0.21280(5)
Co2A_3 Co 0.44871(8) -0.27080(7) -0.31163(5)
O10 O 1.2719(6) 0.5504(5) 1.0522(4)
C25 C 1.3253(6) 0.4785(5) 1.2459(4)
C26 C 1.2762(6) 0.4683(5) 1.1154(4)
O11 O 1.2928(6) 0.5234(5) 0.9467(4)
loop_
_geom_bond_atom_site_label_1
_geom_bond_atom_site_label_2
_geom_bond_site_symmetry_1
_geom_bond_site_symmetry_2
Co1 O2 1_555 1_555
Co2 O1 1_555 1_555
O1 C1 1_555 1_555
O2 C1 1_555 1_555
O3 C7 1_555 1_555
O4 C7 1_555 1_555
O5 Co1 1_555 1_555
O6 Co2 1_555 1_555
O7 Co1 1_555 1_555
O8 C19 1_555 1_555
O9 Co1 1_555 1_555
H1 O9 1_555 1_555
H2 O9 1_555 1_555
N1 C5 1_555 1_555
N2 Co1 1_555 1_555
N3 C17 1_555 1_555
N4 C23 1_555 1_555
C1 C2 1_555 1_555
C2 C3 1_555 1_555
C3 H3 1_555 1_555
C4 C3 1_555 1_555
H4 C4 1_555 1_555
C5 C4 1_555 1_555
H5 C5 1_555 1_555
C6 N1 1_555 1_555
H6 C6 1_555 1_555
C7 C8 1_555 1_555
C8 C9 1_555 1_555
C9 H7 1_555 1_555
C10 C9 1_555 1_555
H8 C10 1_555 1_555
C11 N2 1_555 1_555
H9 C11 1_555 1_555
C12 N2 1_555 1_555
H10 C12 1_555 1_555
C13 O5 1_555 1_555
C14 C13 1_555 1_555
C15 C14 1_555 1_555
H11 C15 1_555 1_555
C16 C15 1_555 1_555
H12 C16 1_555 1_555
C17 C16 1_555 1_555
H13 C17 1_555 1_555
C18 N3 1_555 1_555
H14 C18 1_555 1_555
C19 O7 1_555 1_555
C20 C19 1_555 1_555
C21 C20 1_555 1_555
H15 C21 1_555 1_555
C22 C21 1_555 1_555
H16 C22 1_555 1_555
C23 C22 1_555 1_555
H17 C23 1_555 1_555
C24 N4 1_555 1_555
H18 C24 1_555 1_555
O10 C26 1_555 1_555
C25 C26 1_555 1_555
N3A Co1 1_555 1_555
O4A Co2 1_555 1_555
N1A Co2 1_555 1_555
N4A Co2 1_555 1_555
Co2A O4 1_555 1_555
Co2A_2 N1 1_555 1_555
Co1A N3 1_555 1_555
Co2A_3 N4 1_555 1_555
Co2 O9 1_555 1_555
O6 C13 1_555 1_555
C2 C6 1_555 1_555
C8 C12 1_555 1_555
C10 C11 1_555 1_555
C14 C18 1_555 1_555
C20 C24 1_555 1_555

#END
