
#######################################################################
#
#                 Cambridge Crystallographic Data Centre
#                                CCDC 
#
#######################################################################
#
# If this CIF has been generated from an entry in the Cambridge 
# Structural Database, then it will include bibliographic, chemical, 
# crystal, experimental, refinement or atomic coordinate data resulting 
# from the CCDC's data processing and validation procedures.
#
#######################################################################

data_KAHKUB02
_chemical_formula_moiety         '(C9 H5 Fe1 K1 N8 1-)n'
_symmetry_cell_setting           monoclinic
_symmetry_space_group_name_H-M   'C 2/c'
_symmetry_Int_Tables_number      15
_space_group_name_Hall           '-C 2yc'
loop_
_symmetry_equiv_pos_site_id
_symmetry_equiv_pos_as_xyz
1 x,y,z
2 -x,y,1/2-z
3 1/2+x,1/2+y,z
4 1/2-x,1/2+y,1/2-z
5 -x,-y,-z
6 x,-y,1/2+z
7 1/2-x,1/2-y,-z
8 1/2+x,1/2-y,1/2+z
_cell_length_a                   13.462(12)
_cell_length_b                   8.767(7)
_cell_length_c                   15.125(14)
_cell_angle_alpha                90
_cell_angle_beta                 111.93(4)
_cell_angle_gamma                90
_cell_volume                     1655.91
loop_
_atom_site_label
_atom_site_type_symbol
_atom_site_fract_x
_atom_site_fract_y
_atom_site_fract_z
Fe1 Fe 0.2500 0.2500 1.0000
K1 K 0.0000 -0.24844(12) 0.7500
C1 C 0.1653(3) 0.0815(4) 0.9251(3)
C2 C 0.1655(3) 0.4030(4) 0.9096(3)
C3 C 0.3374(3) 0.2320(4) 0.9228(2)
N1 N 0.1197(3) -0.0245(4) 0.8851(3)
N2 N 0.1190(3) 0.4948(4) 0.8552(3)
N3 N 0.3867(3) 0.2166(4) 0.8757(3)
K1_2 K -0.0000 0.75156(12) 0.7500
K1B K 0.5000 0.25156(12) 0.7500
K1F K 0.5000 0.74844(12) 1.2500
K1F_2 K 0.5000 -0.25156(12) 1.2500
K1D K 0.0000 0.24844(12) 1.2500
C1F C 0.3347(3) 0.4185(4) 1.0749(3)
C2F C 0.3345(3) 0.0970(4) 1.0904(3)
C3F C 0.1626(3) 0.2680(4) 1.0772(2)
N1F N 0.3803(3) 0.5245(4) 1.1149(3)
N1A N -0.1197(3) -0.0245(4) 0.6149(3)
N2F N 0.3810(3) 0.0052(4) 1.1448(3)
N2_2 N 0.1190(3) -0.5052(4) 0.8552(3)
N2A N -0.1190(3) -0.5052(4) 0.6448(3)
N3F N 0.1133(3) 0.2834(4) 1.1243(3)
N3B N -0.1133(3) -0.2834(4) 0.8757(3)
N3C N 0.1133(3) -0.2834(4) 0.6243(3)
C4 C 0.1177(4) 0.3497(6) 0.5734(4)
H1 H 0.1159 0.4313 0.5335
C5 C 0.1230(4) 0.1212(5) 0.6287(4)
H2 H 0.1261 0.0154 0.6328
C6 C 0.1197(4) 0.2148(7) 0.6935(3)
H3 H 0.1191 0.1884 0.7529
N4 N 0.1213(3) 0.2071(5) 0.5530(3)
H4 H 0.1224 0.1721 0.5003
N5 N 0.1171(3) 0.3598(4) 0.6590(3)
H5 H 0.1153 0.4428 0.6887
loop_
_geom_bond_atom_site_label_1
_geom_bond_atom_site_label_2
_geom_bond_site_symmetry_1
_geom_bond_site_symmetry_2
Fe1 C1 1_555 1_555
K1 N1 1_555 1_555
C1 N1 1_555 1_555
C2 Fe1 1_555 1_555
C3 Fe1 1_555 1_555
N2 C2 1_555 1_555
N3 C3 1_555 1_555
C4 H1 1_555 1_555
C5 H2 1_555 1_555
C6 C5 1_555 1_555
H3 C6 1_555 1_555
N4 C4 1_555 1_555
H4 N4 1_555 1_555
N5 C4 1_555 1_555
H5 N5 1_555 1_555
K1_2 N2 1_555 1_555
K1B N3 1_555 1_555
K1F N1F 1_555 1_555
K1F_2 N2F 1_555 1_555
K1D N3F 1_555 1_555
C1F Fe1 1_555 1_555
C2F Fe1 1_555 1_555
C3F Fe1 1_555 1_555
N1F C1F 1_555 1_555
N1A K1 1_555 1_555
N2F C2F 1_555 1_555
N2_2 K1 1_555 1_555
N2A K1 1_555 1_555
N3F C3F 1_555 1_555
N3B K1 1_555 1_555
N3C K1 1_555 1_555
C5 N4 1_555 1_555
C6 N5 1_555 1_555

#END
