
#######################################################################
#
#                 Cambridge Crystallographic Data Centre
#                                CCDC 
#
#######################################################################
#
# If this CIF has been generated from an entry in the Cambridge 
# Structural Database, then it will include bibliographic, chemical, 
# crystal, experimental, refinement or atomic coordinate data resulting 
# from the CCDC's data processing and validation procedures.
#
#######################################################################

data_FAVZEJ
_chemical_formula_moiety         '(C3 H8 Ag1 N7 O4)n'
_symmetry_cell_setting           monoclinic
_symmetry_space_group_name_H-M   'C c'
_symmetry_Int_Tables_number      9
_space_group_name_Hall           'C -2yc'
loop_
_symmetry_equiv_pos_site_id
_symmetry_equiv_pos_as_xyz
1 x,y,z
2 x,-y,1/2+z
3 1/2+x,1/2+y,z
4 1/2+x,1/2-y,1/2+z
_cell_length_a                   8.181(2)
_cell_length_b                   10.269(3)
_cell_length_c                   11.347(3)
_cell_angle_alpha                90
_cell_angle_beta                 105.88(2)
_cell_angle_gamma                90
_cell_volume                     916.89
loop_
_atom_site_label
_atom_site_type_symbol
_atom_site_fract_x
_atom_site_fract_y
_atom_site_fract_z
_atom_site_U_iso_or_equiv
_atom_site_thermal_displace_type
Ag1 Ag 0.62484(6) 0.36285(7) 0.25395(6) 0.0534 Uani
O1 O 0.4221(15) 0.2703(10) 0.3593(13) 0.0848 Uani
H1 H 0.3892 0.1814 0.3457 0.1280 Uiso
H2 H 0.3231 0.3045 0.3425 0.1280 Uiso
N1 N 0.5577(11) 0.5694(9) 0.3477(7) 0.0459 Uani
N2 N 0.3199(11) 0.6961(9) 0.3575(7) 0.0455 Uani
N3 N 0.5196(11) 0.6277(7) 0.5393(7) 0.0432 Uani
N4 N 0.7674(13) 0.5282(10) 0.5240(8) 0.0580 Uani
H3 H 0.8268 0.4920 0.4813 0.0700 Uiso
H4 H 0.8063 0.5326 0.6024 0.0700 Uiso
N5 N 0.3540(17) 0.6355(10) 0.1628(10) 0.0697 Uani
H5 H 0.4075 0.5934 0.1193 0.0840 Uiso
H6 H 0.2631 0.6779 0.1277 0.0840 Uiso
N6 N 0.2687(12) 0.7221(10) 0.5475(9) 0.0580 Uani
H7 H 0.2996 0.7143 0.6259 0.0700 Uiso
H8 H 0.1720 0.7566 0.5116 0.0700 Uiso
C1 C 0.6145(13) 0.5776(11) 0.4687(9) 0.0451 Uani
C2 C 0.4177(14) 0.6351(9) 0.2958(10) 0.0443 Uani
C3 C 0.3720(14) 0.6801(11) 0.4805(9) 0.0464 Uani
N7 N 1.0489(16) 0.4461(10) 0.3158(10) 0.0654 Uani
O2 O 0.9100(11) 0.5047(9) 0.2970(10) 0.0732 Uani
O3 O 1.127(2) 0.4159(17) 0.4200(13) 0.1332 Uani
O4 O 1.1026(19) 0.4130(14) 0.2314(13) 0.0862 Uani
Ag1B Ag 0.12484(6) 0.86285(7) 0.25395(6) 0.0534 Uani
Ag1A Ag 0.62484(6) 0.63715(7) 0.75395(6) 0.0534 Uani
N2B N 0.8199(11) 0.1961(9) 0.3575(7) 0.0455 Uani
N3A N 0.5196(11) 0.3723(7) 0.0393(7) 0.0432 Uani
loop_
_atom_site_aniso_label
_atom_site_aniso_U_11
_atom_site_aniso_U_22
_atom_site_aniso_U_33
_atom_site_aniso_U_23
_atom_site_aniso_U_13
_atom_site_aniso_U_12
Ag1 0.0544(5) 0.0633(5) 0.0423(4) 0.0004(7) 0.0127(3) 0.0030(7)
O1 0.074(6) 0.065(6) 0.133(9) 0.008(6) 0.058(6) 0.009(5)
N1 0.046(5) 0.055(5) 0.037(4) -0.002(4) 0.012(3) 0.008(4)
N2 0.047(5) 0.052(4) 0.036(4) 0.006(4) 0.009(3) 0.012(4)
N3 0.042(5) 0.051(5) 0.033(4) 0.002(3) 0.004(3) 0.009(3)
N4 0.059(6) 0.065(6) 0.044(5) -0.008(4) 0.004(4) 0.019(4)
N5 0.073(8) 0.093(8) 0.040(5) -0.005(5) 0.010(5) 0.025(5)
N6 0.055(6) 0.075(7) 0.047(5) 0.004(4) 0.019(4) 0.016(4)
C1 0.048(5) 0.050(5) 0.037(4) -0.003(4) 0.011(4) 0.008(4)
C2 0.049(6) 0.043(5) 0.043(5) 0.006(4) 0.016(4) 0.009(4)
C3 0.055(6) 0.044(5) 0.043(5) 0.000(4) 0.018(5) -0.003(4)
N7 0.075 0.055 0.06 -0.003 0.008 -0.013
O2 0.044 0.076 0.096 -0.018 0.013 0.014
O3 0.152 0.142 0.07 0.043 -0.03 -0.036
O4 0.072 0.118 0.074 -0.021 0.029 0.012
Ag1B 0.0544 0.0633 0.0423 0.0004 0.0127 0.003
Ag1A 0.0544 0.0633 0.0423 -0.0004 0.0127 -0.003
N2B 0.047 0.052 0.036 0.006 0.009 0.012
N3A 0.042 0.051 0.033 -0.002 0.004 -0.009
loop_
_geom_bond_atom_site_label_1
_geom_bond_atom_site_label_2
_geom_bond_site_symmetry_1
_geom_bond_site_symmetry_2
Ag1 O1 1_555 1_555
O1 H1 1_555 1_555
H2 O1 1_555 1_555
N1 Ag1 1_555 1_555
N2 C2 1_555 1_555
N3 C1 1_555 1_555
N4 H3 1_555 1_555
H4 N4 1_555 1_555
N5 H5 1_555 1_555
H6 N5 1_555 1_555
N6 H7 1_555 1_555
H8 N6 1_555 1_555
C1 N1 1_555 1_555
C2 N1 1_555 1_555
C3 N2 1_555 1_555
N7 O2 1_555 1_555
O2 Ag1 1_555 1_555
O3 N7 1_555 1_555
O4 N7 1_555 1_555
Ag1B N2 1_555 1_555
Ag1A N3 1_555 1_555
N2B Ag1 1_555 1_555
N3A Ag1 1_555 1_555
N3 C3 1_555 1_555
N4 C1 1_555 1_555
N5 C2 1_555 1_555
N6 C3 1_555 1_555

#END
