
#######################################################################
#
#                 Cambridge Crystallographic Data Centre
#                                CCDC 
#
#######################################################################
#
# If this CIF has been generated from an entry in the Cambridge 
# Structural Database, then it will include bibliographic, chemical, 
# crystal, experimental, refinement or atomic coordinate data resulting 
# from the CCDC's data processing and validation procedures.
#
#######################################################################

data_UJIZET
_chemical_formula_moiety         '(C18 H34 Nd2 O21)n'
_symmetry_cell_setting           orthorhombic
_symmetry_space_group_name_H-M   'C m c m'
_symmetry_Int_Tables_number      63
_space_group_name_Hall           '-C 2c 2'
loop_
_symmetry_equiv_pos_site_id
_symmetry_equiv_pos_as_xyz
1 x,y,z
2 -x,-y,1/2+z
3 -x,y,1/2-z
4 x,-y,-z
5 1/2+x,1/2+y,z
6 1/2-x,1/2-y,1/2+z
7 1/2-x,1/2+y,1/2-z
8 1/2+x,1/2-y,-z
9 -x,-y,-z
10 x,y,1/2-z
11 x,-y,1/2+z
12 -x,y,z
13 1/2-x,1/2-y,-z
14 1/2+x,1/2+y,1/2-z
15 1/2+x,1/2-y,1/2+z
16 1/2-x,1/2+y,z
_cell_length_a                   24.0265(16)
_cell_length_b                   8.7253(6)
_cell_length_c                   19.4746(13)
_cell_angle_alpha                90
_cell_angle_beta                 90
_cell_angle_gamma                90
_cell_volume                     4082.62
loop_
_atom_site_label
_atom_site_type_symbol
_atom_site_fract_x
_atom_site_fract_y
_atom_site_fract_z
C1 C 0.12042(15) 0.5000 0.5000
C2 C 0.05825(15) 0.5000 0.5000
C3 C 0.02879(11) 0.6259(3) 0.47534(15)
H1 H 0.0484 0.7126 0.4584
C4 C 0.21562(10) 0.2921(3) 0.38026(12)
C5 C 0.20634(12) 0.2034(3) 0.31492(12)
H2 H 0.1670 0.1702 0.3132
H3 H 0.2298 0.1100 0.3160
C6 C 0.21956(17) 0.2928(4) 0.2500
H4 H 0.1979 0.3893 0.2500
H5 H 0.2595 0.3202 0.2500
Nd1 Nd 0.241932(7) 0.5000 0.5000
O1 O 0.14651(7) 0.6184(2) 0.48046(10)
O2 O 0.20864(8) 0.4355(2) 0.38114(9)
O3 O 0.23046(8) 0.2230(2) 0.43457(9)
O4 O 0.32697(8) 0.4102(2) 0.43621(10)
H6 H 0.3544 0.4647 0.4254
H7 H 0.3395 0.3235 0.4468
C1H C -0.12042(15) 0.5000 0.5000
C2H C -0.05825(15) 0.5000 0.5000
C3K C -0.02879(11) 0.6259(3) 0.47534(15)
C3H C -0.02879(11) 0.3741(3) 0.52466(15)
C3C C 0.02879(11) 0.3741(3) 0.52466(15)
H1C H 0.0484 0.2874 0.5416
H1H H -0.0484 0.2874 0.5416
H1K H -0.0484 0.7126 0.4584
C4I C 0.21562(10) 0.2921(3) 0.11974(12)
C4C C 0.21562(10) 0.7079(3) 0.61974(12)
C4J C 0.21562(10) 0.7079(3) 0.88026(12)
C5I C 0.20634(12) 0.2034(3) 0.18508(12)
C5C C 0.20634(12) 0.7966(3) 0.68508(12)
C5J C 0.20634(12) 0.7966(3) 0.81492(12)
H2I H 0.1670 0.1702 0.1868
H2C H 0.1670 0.8298 0.6868
H2J H 0.1670 0.8298 0.8132
H3I H 0.2298 0.1100 0.1840
H3C H 0.2298 0.8900 0.6840
H3J H 0.2298 0.8900 0.8160
C6C C 0.21956(17) 0.7072(4) 0.7500
H4C H 0.1979 0.6107 0.7500
H5C H 0.2595 0.6798 0.7500
Nd1H Nd -0.241932(7) 0.5000 0.5000
Nd1L Nd 0.258068(7) -0.0000 0.5000
Nd1I Nd 0.241932(7) 0.5000 0.0000
Nd1E Nd 0.258068(7) 0.0000 0.0000
Nd1L_2 Nd 0.258068(7) 1.0000 0.5000
Nd1I_2 Nd 0.241932(7) 0.5000 1.0000
Nd1E_2 Nd 0.258068(7) 1.0000 1.0000
O1K O -0.14651(7) 0.6184(2) 0.48046(10)
O1H O -0.14651(7) 0.3816(2) 0.51954(10)
O1C O 0.14651(7) 0.3816(2) 0.51954(10)
O2I O 0.20864(8) 0.4355(2) 0.11886(9)
O2C O 0.20864(8) 0.5645(2) 0.61886(9)
O2J O 0.20864(8) 0.5645(2) 0.88114(9)
O2K O -0.20864(8) 0.4355(2) 0.38114(9)
O2H O -0.20864(8) 0.5645(2) 0.61886(9)
O3I O 0.23046(8) 0.2230(2) 0.06543(9)
O3C O 0.23046(8) 0.7770(2) 0.56543(9)
O3J O 0.23046(8) 0.7770(2) 0.93457(9)
O3L O 0.26954(8) 0.2770(2) 0.56543(9)
O3O O 0.26954(8) 0.7230(2) 0.43457(9)
O3K O -0.23046(8) 0.2230(2) 0.43457(9)
O3H O -0.23046(8) 0.7770(2) 0.56543(9)
O3G O -0.26954(8) 0.2770(2) 0.56543(9)
O3D O -0.26954(8) 0.7230(2) 0.43457(9)
O4C O 0.32697(8) 0.5898(2) 0.56379(10)
O4K O -0.32697(8) 0.4102(2) 0.43621(10)
O4H O -0.32697(8) 0.5898(2) 0.56379(10)
H6C H 0.3544 0.5353 0.5746
H6K H -0.3544 0.4647 0.4254
H6H H -0.3544 0.5353 0.5746
H7C H 0.3395 0.6765 0.5532
H7K H -0.3395 0.3235 0.4468
H7H H -0.3395 0.6765 0.5532
O5 O 0.41973(12) 0.5811(4) 0.40505(18)
H8 H 0.4242 0.6644 0.3842
H10 H 0.4334 0.5049 0.3848
O6 O 0.5000 0.5000 0.5000
O7 O 0.44265(12) 0.3405(4) 0.32086(16)
H12 H 0.4163 0.2777 0.3246
H13 H 0.4294 0.4155 0.3423
O8 O 0.37827(12) 0.0869(3) 0.32019(12)
H16 H 0.3944 0.1703 0.3285
H17 H 0.3555 0.0344 0.3429
O9 O 0.44279(12) 0.8299(3) 0.32306(15)
H19 H 0.4267 0.9139 0.3300
H20 H 0.4774 0.8423 0.3251
loop_
_geom_bond_atom_site_label_1
_geom_bond_atom_site_label_2
_geom_bond_site_symmetry_1
_geom_bond_site_symmetry_2
C1 C2 1_555 1_555
C2 C3 1_555 1_555
C3 H1 1_555 1_555
C4 C5 1_555 1_555
C5 H2 1_555 1_555
H3 C5 1_555 1_555
C6 C5 1_555 1_555
H4 C6 1_555 1_555
H5 C6 1_555 1_555
Nd1 O1 1_555 1_555
O1 C1 1_555 1_555
O2 C4 1_555 1_555
O3 C4 1_555 1_555
O4 Nd1 1_555 1_555
H6 O4 1_555 1_555
H7 O4 1_555 1_555
O5 H8 1_555 1_555
H10 O5 1_555 1_555
O7 H12 1_555 1_555
H13 O7 1_555 1_555
O8 H16 1_555 1_555
H17 O8 1_555 1_555
O9 H19 1_555 1_555
H20 O9 1_555 1_555
C1H C2H 1_555 1_555
C2H C3K 1_555 1_555
C3K C3 1_555 1_555
C3H C2H 1_555 1_555
C3C C2 1_555 1_555
H1C C3C 1_555 1_555
H1H C3H 1_555 1_555
H1K C3K 1_555 1_555
C4I C5I 1_555 1_555
C4C C5C 1_555 1_555
C4J C5J 1_555 1_555
C5I C6 1_555 1_555
C5C H2C 1_555 1_555
C5J H2J 1_555 1_555
H2I C5I 1_555 1_555
H3I C5I 1_555 1_555
H3C C5C 1_555 1_555
H3J C5J 1_555 1_555
C6C C5C 1_555 1_555
H4C C6C 1_555 1_555
H5C C6C 1_555 1_555
Nd1H O1K 1_555 1_555
Nd1L O3 1_555 1_555
Nd1I O2I 1_555 1_555
Nd1E O3I 1_555 1_555
Nd1L_2 O3C 1_555 1_555
Nd1I_2 O2J 1_555 1_555
Nd1E_2 O3J 1_555 1_555
O1K C1H 1_555 1_555
O1H C1H 1_555 1_555
O1C C1 1_555 1_555
O2I C4I 1_555 1_555
O2C Nd1 1_555 1_555
O2J C4J 1_555 1_555
O2K Nd1H 1_555 1_555
O2H Nd1H 1_555 1_555
O3I C4I 1_555 1_555
O3C Nd1 1_555 1_555
O3J C4J 1_555 1_555
O3L Nd1 1_555 1_555
O3O Nd1 1_555 1_555
O3K Nd1H 1_555 1_555
O3H Nd1H 1_555 1_555
O3G Nd1H 1_555 1_555
O3D Nd1H 1_555 1_555
O4C Nd1 1_555 1_555
O4K Nd1H 1_555 1_555
O4H Nd1H 1_555 1_555
H6C O4C 1_555 1_555
H6K O4K 1_555 1_555
H6H O4H 1_555 1_555
H7C O4C 1_555 1_555
H7K O4K 1_555 1_555
H7H O4H 1_555 1_555
Nd1 O2 1_555 1_555
Nd1 O3 1_555 1_555
Nd1 O1C 1_555 1_555
C3H C3C 1_555 1_555
C4C O2C 1_555 1_555
C4C O3C 1_555 1_555
C5J C6C 1_555 1_555
Nd1H O1H 1_555 1_555
Nd1L O3L 1_555 1_555
Nd1I O3I 1_555 1_555
Nd1L_2 O3O 1_555 1_555
Nd1I_2 O3J 1_555 1_555

#END
