
#######################################################################
#
#                 Cambridge Crystallographic Data Centre
#                                CCDC 
#
#######################################################################
#
# If this CIF has been generated from an entry in the Cambridge 
# Structural Database, then it will include bibliographic, chemical, 
# crystal, experimental, refinement or atomic coordinate data resulting 
# from the CCDC's data processing and validation procedures.
#
#######################################################################

data_QUZZES
_chemical_formula_moiety         '(C34 H28 Mg2 N2 O12)n'
_symmetry_cell_setting           monoclinic
_symmetry_space_group_name_H-M   'C 2/c'
_symmetry_Int_Tables_number      15
_space_group_name_Hall           '-C 2yc'
loop_
_symmetry_equiv_pos_site_id
_symmetry_equiv_pos_as_xyz
1 x,y,z
2 -x,y,1/2-z
3 1/2+x,1/2+y,z
4 1/2-x,1/2+y,1/2-z
5 -x,-y,-z
6 x,-y,1/2+z
7 1/2-x,1/2-y,-z
8 1/2+x,1/2-y,1/2+z
_cell_length_a                   16.469(2)
_cell_length_b                   15.5386(12)
_cell_length_c                   14.540(3)
_cell_angle_alpha                90
_cell_angle_beta                 117.500(19)
_cell_angle_gamma                90
_cell_volume                     3300.44
loop_
_atom_site_label
_atom_site_type_symbol
_atom_site_fract_x
_atom_site_fract_y
_atom_site_fract_z
Mg1 Mg 0.5000 0.49169(7) 0.7500
Mg2 Mg 0.5000 0.5000 0.5000
O1 O 0.58799(15) 0.58415(14) 0.75518(16)
O2 O 0.57563(15) 0.59357(13) 0.59774(15)
O3 O 0.91706(14) 0.90533(13) 0.91490(15)
O4 O 0.91903(14) 0.89850(13) 0.76338(15)
O5 O 0.41553(12) 0.48161(12) 0.57755(14)
H1 H 0.3643(16) 0.5076(16) 0.543(2)
H2 H 0.407(2) 0.4312(11) 0.5740(11)
C1 C 0.60618(17) 0.61723(16) 0.6889(2)
C2 C 0.67375(18) 0.68976(16) 0.7234(2)
C3 C 0.75630(19) 0.67662(18) 0.8098(2)
H3 H 0.7664 0.6258 0.8473
C4 C 0.82505(19) 0.73884(18) 0.8415(2)
H4 H 0.8806 0.7287 0.8999
C5 C 0.81237(17) 0.81395(16) 0.78872(19)
C6 C 0.72647(17) 0.83208(17) 0.7019(2)
C7 C 0.7077(2) 0.91255(18) 0.6502(2)
H5 H 0.7533 0.9543 0.6714
C8 C 0.6241(2) 0.9295(2) 0.5701(3)
H6 H 0.6126 0.9827 0.5371
C9 C 0.5551(2) 0.8671(2) 0.5370(3)
H7 H 0.4980 0.8791 0.4818
C10 C 0.57060(19) 0.7889(2) 0.5846(2)
H8 H 0.5239 0.7482 0.5614
C11 C 0.65671(17) 0.76871(17) 0.6688(2)
C12 C 0.88857(17) 0.87817(16) 0.8247(2)
O1A O 0.41201(15) 0.58415(14) 0.74482(16)
O2A O 0.42437(15) 0.59357(13) 0.90226(15)
O3A O 0.08294(14) 0.90533(13) 0.58510(15)
O4A O 0.08097(14) 0.89850(13) 0.73662(15)
O5A O 0.58447(12) 0.48161(12) 0.92245(14)
H1A H 0.6357(16) 0.5076(16) 0.957(2)
H2A H 0.593(2) 0.4312(11) 0.9260(11)
C1A C 0.39382(17) 0.61723(16) 0.8111(2)
C2A C 0.32625(18) 0.68976(16) 0.7766(2)
C3A C 0.24370(19) 0.67662(18) 0.6902(2)
H3A H 0.2336 0.6258 0.6527
C4A C 0.17495(19) 0.73884(18) 0.6585(2)
H4A H 0.1194 0.7287 0.6001
C5A C 0.18763(17) 0.81395(16) 0.71128(19)
C6A C 0.27353(17) 0.83208(17) 0.7981(2)
C7A C 0.2923(2) 0.91255(18) 0.8498(2)
H5A H 0.2467 0.9543 0.8286
C8A C 0.3759(2) 0.9295(2) 0.9299(3)
H6A H 0.3874 0.9827 0.9629
C9A C 0.4449(2) 0.8671(2) 0.9630(3)
H7A H 0.5020 0.8791 1.0182
C10A C 0.42940(19) 0.7889(2) 0.9154(2)
H8A H 0.4761 0.7482 0.9386
C11A C 0.34329(17) 0.76871(17) 0.8312(2)
C12A C 0.11143(17) 0.87817(16) 0.6753(2)
Mg1B Mg 0.0000 0.99169(7) 0.7500
Mg1B_2 Mg 1.0000 0.99169(7) 0.7500
Mg2A Mg 0.5000 0.5000 1.0000
Mg2B Mg 0.0000 1.0000 0.5000
Mg2C Mg 1.0000 1.0000 1.0000
O2D O 0.42437(15) 0.40643(13) 0.40226(15)
O3C O 0.58294(14) 0.40533(13) 0.58510(15)
O3G O 0.41706(14) 0.59467(13) 0.41490(15)
O4B O 0.41903(14) 0.39850(13) 0.76338(15)
O4C O 0.58097(14) 0.39850(13) 0.73662(15)
O5D O 0.58447(12) 0.51839(12) 0.42245(14)
N1 N 0.23508(18) 0.5280(2) 0.4363(2)
C13 C 0.1936(2) 0.4590(3) 0.3807(3)
H9 H 0.2280 0.4090 0.3921
C14 C 0.1032(2) 0.4564(3) 0.3071(3)
H10 H 0.0780 0.4060 0.2705
C15 C 0.0495(2) 0.5302(2) 0.2880(3)
C16 C 0.0929(2) 0.6028(2) 0.3435(3)
H11 H 0.0608 0.6543 0.3322
C17 C 0.1842(2) 0.5991(2) 0.4159(3)
H12 H 0.2117 0.6489 0.4525
N1A N -0.23508(18) 0.5280(2) 0.0637(2)
C13A C -0.1936(2) 0.4590(3) 0.1193(3)
H9A H -0.2280 0.4090 0.1079
C14A C -0.1032(2) 0.4564(3) 0.1929(3)
H10A H -0.0780 0.4060 0.2295
C15A C -0.0495(2) 0.5302(2) 0.2120(3)
C16A C -0.0929(2) 0.6028(2) 0.1565(3)
H11A H -0.0608 0.6543 0.1678
C17A C -0.1842(2) 0.5991(2) 0.0841(3)
H12A H -0.2117 0.6489 0.0475
O6 O 0.3593(3) 0.3131(2) 0.5645(3)
H13 H 0.371(5) 0.266(3) 0.601(4)
H14 H 0.366(5) 0.299(2) 0.512(3)
O7 O 0.6201(3) 0.6950(2) 0.9296(3)
H15 H 0.610(4) 0.661(3) 0.875(3)
H16 H 0.620(4) 0.658(3) 0.976(3)
loop_
_geom_bond_atom_site_label_1
_geom_bond_atom_site_label_2
_geom_bond_site_symmetry_1
_geom_bond_site_symmetry_2
Mg1 O1 1_555 1_555
Mg2 O2 1_555 1_555
O1 C1 1_555 1_555
O2 C1 1_555 1_555
O3 C12 1_555 1_555
O4 C12 1_555 1_555
O5 Mg1 1_555 1_555
H1 O5 1_555 1_555
H2 O5 1_555 1_555
C1 C2 1_555 1_555
C2 C3 1_555 1_555
C3 H3 1_555 1_555
C4 C3 1_555 1_555
H4 C4 1_555 1_555
C5 C4 1_555 1_555
C6 C5 1_555 1_555
C7 C6 1_555 1_555
H5 C7 1_555 1_555
C8 C7 1_555 1_555
H6 C8 1_555 1_555
C9 C8 1_555 1_555
H7 C9 1_555 1_555
C10 C9 1_555 1_555
H8 C10 1_555 1_555
C11 C2 1_555 1_555
C12 C5 1_555 1_555
N1 C13 1_555 1_555
C13 H9 1_555 1_555
C14 C13 1_555 1_555
H10 C14 1_555 1_555
C15 C14 1_555 1_555
C16 C15 1_555 1_555
H11 C16 1_555 1_555
C17 N1 1_555 1_555
H12 C17 1_555 1_555
O6 H13 1_555 1_555
H14 O6 1_555 1_555
O7 H15 1_555 1_555
H16 O7 1_555 1_555
O1A Mg1 1_555 1_555
O2A C1A 1_555 1_555
O3A C12A 1_555 1_555
O4A C12A 1_555 1_555
O5A Mg1 1_555 1_555
H1A O5A 1_555 1_555
H2A O5A 1_555 1_555
C1A O1A 1_555 1_555
C2A C1A 1_555 1_555
C3A C2A 1_555 1_555
H3A C3A 1_555 1_555
C4A C3A 1_555 1_555
H4A C4A 1_555 1_555
C5A C4A 1_555 1_555
C6A C5A 1_555 1_555
C7A C6A 1_555 1_555
H5A C7A 1_555 1_555
C8A C7A 1_555 1_555
H6A C8A 1_555 1_555
C9A C8A 1_555 1_555
H7A C9A 1_555 1_555
C10A C9A 1_555 1_555
H8A C10A 1_555 1_555
C11A C2A 1_555 1_555
C12A C5A 1_555 1_555
Mg1B O4A 1_555 1_555
Mg1B_2 O4 1_555 1_555
Mg2A O2A 1_555 1_555
Mg2B O3A 1_555 1_555
Mg2C O3 1_555 1_555
O2D Mg2 1_555 1_555
O3C Mg2 1_555 1_555
O3G Mg2 1_555 1_555
O4B Mg1 1_555 1_555
O4C Mg1 1_555 1_555
O5D Mg2 1_555 1_555
N1A C13A 1_555 1_555
C13A H9A 1_555 1_555
C14A C13A 1_555 1_555
H10A C14A 1_555 1_555
C15A C15 1_555 1_555
C16A C15A 1_555 1_555
H11A C16A 1_555 1_555
C17A N1A 1_555 1_555
H12A C17A 1_555 1_555
Mg2 O5 1_555 1_555
C6 C11 1_555 1_555
C10 C11 1_555 1_555
C16 C17 1_555 1_555
O5A Mg2A 1_555 1_555
C6A C11A 1_555 1_555
C10A C11A 1_555 1_555
C14A C15A 1_555 1_555
C16A C17A 1_555 1_555

#END
