
#######################################################################
#
#                 Cambridge Crystallographic Data Centre
#                                CCDC 
#
#######################################################################
#
# If this CIF has been generated from an entry in the Cambridge 
# Structural Database, then it will include bibliographic, chemical, 
# crystal, experimental, refinement or atomic coordinate data resulting 
# from the CCDC's data processing and validation procedures.
#
#######################################################################

data_EHEKUY
_chemical_formula_moiety         '(C178 H146 Cl4 N16 O32 Ru8 S4)n'
_symmetry_cell_setting           triclinic
_symmetry_space_group_name_H-M   'P -1'
_symmetry_Int_Tables_number      2
_space_group_name_Hall           '-P 1'
loop_
_symmetry_equiv_pos_site_id
_symmetry_equiv_pos_as_xyz
1 x,y,z
2 -x,-y,-z
_cell_length_a                   15.2978(13)
_cell_length_b                   15.5927(13)
_cell_length_c                   22.148(2)
_cell_angle_alpha                88.841(4)
_cell_angle_beta                 86.538(4)
_cell_angle_gamma                62.085(2)
_cell_volume                     4659.62
loop_
_atom_site_label
_atom_site_type_symbol
_atom_site_fract_x
_atom_site_fract_y
_atom_site_fract_z
Ru1 Ru 0.93816(2) 0.98624(2) 0.021844(12)
Ru2 Ru 0.73479(2) 0.66959(2) 0.215949(12)
Ru3 Ru 0.75830(2) 0.56629(2) 0.295072(12)
Ru4 Ru 0.935608(19) 0.068616(19) 0.482670(12)
S1 S 0.49283(8) 1.22216(7) 0.01775(5)
S2 S 0.51783(7) 0.71123(7) 0.47889(5)
O1 O 1.03828(17) 0.87626(18) 0.06970(11)
O2 O 1.16029(17) 0.90255(17) 0.02751(11)
O3 O 0.92201(17) 1.07599(17) 0.09036(11)
O4 O 1.04029(18) 1.10650(17) 0.04667(11)
O5 O 0.88424(17) 0.60708(16) 0.19979(10)
O6 O 0.90669(17) 0.50818(17) 0.27842(11)
O7 O 0.73669(17) 0.76777(17) 0.27390(11)
O8 O 0.76105(18) 0.66530(17) 0.35115(10)
O9 O 0.58575(17) 0.72876(17) 0.23429(11)
O10 O 0.61063(18) 0.62654(18) 0.31171(11)
O11 O 0.72898(17) 0.57199(17) 0.16010(11)
O12 O 0.74932(18) 0.47176(17) 0.23781(11)
O13 O 1.03264(17) 0.09413(17) 0.42914(10)
O14 O 1.15952(16) -0.04069(16) 0.46320(10)
O15 O 0.94901(17) 0.14415(16) 0.55149(10)
O16 O 1.07429(17) 0.00896(16) 0.58589(10)
N1 N 0.8129(2) 0.9658(2) 0.06159(13)
N2 N 0.5748(2) 1.1175(2) 0.03908(15)
N3 N 0.4174(2) 1.1966(2) -0.01543(15)
N4 N 0.7187(2) 0.7668(2) 0.13823(13)
N5 N 0.7796(2) 0.4649(2) 0.37195(14)
N6 N 0.5980(2) 0.6017(2) 0.46189(14)
N7 N 0.4264(2) 0.6975(2) 0.50768(14)
N8 N 0.8100(2) 0.2052(2) 0.45352(13)
C1 C 1.1288(2) 0.8580(2) 0.06430(16)
C2 C 1.1990(2) 0.7817(2) 0.10328(16)
C3 C 1.3003(2) 0.7546(2) 0.09688(17)
C4 C 1.3673(3) 0.6830(3) 0.13310(19)
C5 C 1.4762(3) 0.6522(3) 0.1255(2)
C6 C 1.3308(3) 0.6404(3) 0.1768(2)
C7 C 1.2312(3) 0.6678(3) 0.1837(2)
C8 C 1.1650(3) 0.7377(3) 0.1466(2)
C9 C 0.9774(2) 1.1167(2) 0.09023(16)
C10 C 0.9708(2) 1.1757(2) 0.14320(16)
C11 C 0.9306(2) 1.1623(2) 0.19826(17)
C12 C 0.9244(2) 1.2161(2) 0.24897(17)
C13 C 0.8777(3) 1.2047(3) 0.30792(18)
C14 C 0.9605(3) 1.2827(2) 0.24363(18)
C15 C 1.0010(3) 1.2959(3) 0.1889(2)
C16 C 1.0063(3) 1.2425(2) 0.13851(17)
C17 C 0.7526(2) 0.9411(2) 0.06405(15)
C18 C 0.6821(2) 0.9075(2) 0.06628(16)
C19 C 0.7023(2) 0.8285(2) 0.10506(16)
C20 C 0.5929(2) 0.9534(2) 0.03315(16)
C21 C 0.5445(2) 1.0524(2) 0.02043(16)
C22 C 0.4536(2) 1.0990(2) -0.01113(16)
C23 C 0.9399(2) 0.5390(2) 0.23381(16)
C24 C 1.0487(2) 0.4944(2) 0.22184(16)
C25 C 1.0882(2) 0.5080(2) 0.16611(17)
C26 C 1.1891(2) 0.4649(3) 0.15302(19)
C27 C 1.2325(3) 0.4759(3) 0.0924(2)
C28 C 1.2516(2) 0.4088(3) 0.1978(2)
C29 C 1.2135(3) 0.3945(3) 0.2534(2)
C30 C 1.1120(2) 0.4366(2) 0.26550(17)
C31 C 0.7459(2) 0.7479(2) 0.33013(16)
C32 C 0.7349(2) 0.8231(2) 0.37322(17)
C33 C 0.7197(2) 0.9143(2) 0.35219(16)
C34 C 0.7052(2) 0.9878(2) 0.39201(18)
C35 C 0.6864(3) 1.0863(2) 0.3695(2)
C36 C 0.7067(3) 0.9687(3) 0.45350(19)
C37 C 0.7225(3) 0.8789(3) 0.47508(19)
C38 C 0.7363(3) 0.8060(2) 0.43509(18)
C39 C 0.5536(2) 0.6957(2) 0.27859(16)
C40 C 0.4450(2) 0.7381(2) 0.29237(18)
C41 C 0.3793(2) 0.8137(2) 0.25866(18)
C42 C 0.2774(2) 0.8530(3) 0.2708(2)
C43 C 0.2060(3) 0.9340(3) 0.2344(2)
C44 C 0.2430(3) 0.8164(3) 0.3191(2)
C45 C 0.3089(3) 0.7412(3) 0.3537(2)
C46 C 0.4098(3) 0.7017(3) 0.3408(2)
C47 C 0.7350(2) 0.4930(2) 0.18227(16)
C48 C 0.7237(2) 0.4254(2) 0.14134(16)
C49 C 0.7131(2) 0.3474(2) 0.16603(17)
C50 C 0.7011(2) 0.2833(2) 0.12890(18)
C51 C 0.6868(3) 0.2009(3) 0.1550(2)
C52 C 0.7013(3) 0.2976(3) 0.06675(19)
C53 C 0.7113(3) 0.3752(3) 0.04225(19)
C54 C 0.7216(2) 0.4400(2) 0.07938(17)
C55 C 0.7438(2) 0.4309(2) 0.40498(16)
C56 C 0.7012(2) 0.3877(2) 0.44409(16)
C57 C 0.7588(2) 0.2874(2) 0.45038(15)
C58 C 0.6029(2) 0.4427(2) 0.47248(16)
C59 C 0.5554(2) 0.5448(2) 0.47809(16)
C60 C 0.4553(2) 0.6005(2) 0.50496(16)
C61 C 1.1249(2) 0.0339(2) 0.42871(15)
C62 C 1.1946(2) 0.0514(2) 0.38775(16)
C63 C 1.2957(2) -0.0108(2) 0.38768(16)
C64 C 1.3626(2) 0.0074(2) 0.35097(18)
C65 C 1.4720(3) -0.0589(3) 0.3527(2)
C66 C 1.3251(3) 0.0868(3) 0.3137(2)
C67 C 1.2237(3) 0.1486(3) 0.3121(2)
C68 C 1.1582(2) 0.1313(2) 0.34977(18)
C69 C 1.0134(2) 0.0991(2) 0.59050(15)
C70 C 1.0155(2) 0.1545(2) 0.64317(15)
C71 C 1.0659(2) 0.1048(2) 0.69308(16)
C72 C 1.0688(2) 0.1551(2) 0.74376(17)
C73 C 1.1232(3) 0.1027(3) 0.79801(18)
C74 C 1.0208(3) 0.2560(2) 0.74255(17)
C75 C 0.9704(3) 0.3054(2) 0.69213(19)
C76 C 0.9673(3) 0.2550(2) 0.64284(17)
H1 H 1.3238 0.7861 0.0678
H2 H 1.5050 0.6322 0.1636
H3 H 1.5069 0.6013 0.0972
H4 H 1.4851 0.7065 0.1119
H5 H 1.3748 0.5916 0.2025
H6 H 1.2084 0.6376 0.2136
H7 H 1.0967 0.7555 0.1511
H8 H 0.9066 1.1159 0.2011
H9 H 0.8877 1.1402 0.3115
H10 H 0.9061 1.2198 0.3404
H11 H 0.8081 1.2483 0.3093
H12 H 0.9576 1.3196 0.2783
H13 H 1.0246 1.3425 0.1858
H14 H 1.0335 1.2524 0.1008
H15 H 1.0441 0.5473 0.1367
H16 H 1.1878 0.4833 0.0620
H17 H 1.2431 0.5309 0.0926
H18 H 1.2938 0.4193 0.0832
H19 H 1.3216 0.3796 0.1905
H20 H 1.2564 0.3571 0.2835
H21 H 1.0857 0.4257 0.3031
H22 H 0.7195 0.9255 0.3099
H23 H 0.7194 1.0793 0.3304
H24 H 0.6176 1.1265 0.3666
H25 H 0.7117 1.1144 0.3965
H26 H 0.6978 1.0183 0.4815
H27 H 0.7222 0.8678 0.5177
H28 H 0.7461 0.7442 0.4499
H29 H 0.4038 0.8391 0.2263
H30 H 0.2332 0.9291 0.1938
H31 H 0.1458 0.9304 0.2339
H32 H 0.1933 0.9945 0.2513
H33 H 0.1735 0.8433 0.3284
H34 H 0.2846 0.7167 0.3868
H35 H 0.4552 0.6500 0.3646
H36 H 0.7143 0.3380 0.2085
H37 H 0.7185 0.1813 0.1919
H38 H 0.6172 0.2220 0.1627
H39 H 0.7130 0.1483 0.1272
H40 H 0.6939 0.2541 0.0408
H41 H 0.7111 0.3840 -0.0004
H42 H 0.7274 0.4940 0.0626
H43 H 1.3200 -0.0662 0.4128
H44 H 1.4833 -0.1232 0.3630
H45 H 1.5041 -0.0607 0.3146
H46 H 1.4991 -0.0368 0.3827
H47 H 1.3706 0.0993 0.2885
H48 H 1.2000 0.2029 0.2858
H49 H 1.0889 0.1741 0.3498
H50 H 1.0984 0.0356 0.6926
H51 H 1.1776 0.0427 0.7858
H52 H 1.1470 0.1415 0.8173
H53 H 1.0797 0.0920 0.8257
H54 H 1.0224 0.2922 0.7761
H55 H 0.9374 0.3747 0.6921
H56 H 0.9324 0.2889 0.6086
Ru1A Ru 1.06184(2) 1.01376(2) -0.021844(12)
Ru1A_2 Ru 0.06184(2) 1.01376(2) -0.021844(12)
Ru2A Ru 0.26521(2) 1.33041(2) -0.215949(12)
Ru3A Ru 0.24170(2) 1.43371(2) -0.295072(12)
Ru3A_2 Ru 0.24170(2) 0.43371(2) 0.704928(12)
Ru4A Ru 0.064392(19) 0.931384(19) 0.517330(12)
Ru4A_2 Ru 1.064392(19) -0.068616(19) 0.517330(12)
Ru4_2 Ru -0.064392(19) 1.068616(19) 0.482670(12)
S1A S 0.50717(8) 0.77784(7) -0.01775(5)
S2A S 0.48217(7) 0.28877(7) 0.52111(5)
O1A O 0.96172(17) 1.12374(18) -0.06970(11)
O2A O 0.83971(17) 1.09745(17) -0.02751(11)
O3A O 1.07799(17) 0.92401(17) -0.09036(11)
O4A O 0.95971(18) 0.89350(17) -0.04667(11)
O5A O 0.11576(17) 1.39292(16) -0.19979(10)
O6A O 0.09331(17) 1.49182(17) -0.27842(11)
O7A O 0.26331(17) 1.23223(17) -0.27390(11)
O8A O 0.23895(18) 1.33470(17) -0.35115(10)
O9A O 0.41425(17) 1.27124(17) -0.23429(11)
O10A O 0.38937(18) 1.37346(18) -0.31171(11)
O11A O 0.27102(17) 1.42801(17) -0.16010(11)
O12A O 0.25068(18) 1.52824(17) -0.23781(11)
O13A O 0.96736(17) -0.09413(17) 0.57086(10)
O13A_2 O -0.03264(17) 0.90587(17) 0.57086(10)
O14A O 0.84048(16) 0.04069(16) 0.53680(10)
O14_2 O 0.15952(16) 0.95931(16) 0.46320(10)
O15A O 1.05099(17) -0.14415(16) 0.44851(10)
O15A_2 O 0.05099(17) 0.85585(16) 0.44851(10)
O16A O 0.92571(17) -0.00896(16) 0.41411(10)
O16_2 O 0.07429(17) 1.00896(16) 0.58589(10)
N1A N 0.1871(2) 1.0342(2) -0.06159(13)
N1A_2 N 1.1871(2) 1.0342(2) -0.06159(13)
N2A N 0.4252(2) 0.8825(2) -0.03908(15)
N3A N 0.5826(2) 0.8034(2) 0.01543(15)
N4A N 0.2813(2) 1.2332(2) -0.13823(13)
N5A N 0.2204(2) 0.5351(2) 0.62805(14)
N5A_2 N 0.2204(2) 1.5351(2) -0.37195(14)
N6A N 0.4020(2) 0.3983(2) 0.53811(14)
N7A N 0.5736(2) 0.3025(2) 0.49232(14)
N8A N 0.1900(2) 0.7948(2) 0.54648(13)
C1A C 0.8712(2) 1.1420(2) -0.06430(16)
C2A C 0.8010(2) 1.2183(2) -0.10328(16)
C3A C 0.6997(2) 1.2454(2) -0.09688(17)
C4A C 0.6327(3) 1.3170(3) -0.13310(19)
C5A C 0.5238(3) 1.3478(3) -0.1255(2)
C6A C 0.6692(3) 1.3596(3) -0.1768(2)
C7A C 0.7688(3) 1.3322(3) -0.1837(2)
C8A C 0.8350(3) 1.2623(3) -0.1466(2)
C9A C 1.0226(2) 0.8833(2) -0.09023(16)
C10A C 1.0292(2) 0.8243(2) -0.14320(16)
C11A C 1.0694(2) 0.8377(2) -0.19826(17)
C12A C 1.0756(2) 0.7839(2) -0.24897(17)
C13A C 1.1223(3) 0.7953(3) -0.30792(18)
C14A C 1.0395(3) 0.7173(2) -0.24363(18)
C15A C 0.9990(3) 0.7041(3) -0.1889(2)
C16A C 0.9937(3) 0.7575(2) -0.13851(17)
C17A C 0.2474(2) 1.0589(2) -0.06405(15)
C18A C 0.3179(2) 1.0925(2) -0.06628(16)
C19A C 0.2977(2) 1.1715(2) -0.10506(16)
C20A C 0.4071(2) 1.0466(2) -0.03315(16)
C21A C 0.4555(2) 0.9476(2) -0.02043(16)
C22A C 0.5464(2) 0.9010(2) 0.01113(16)
C23A C 0.0601(2) 1.4610(2) -0.23381(16)
C24A C -0.0487(2) 1.5056(2) -0.22184(16)
C25A C -0.0882(2) 1.4920(2) -0.16611(17)
C26A C -0.1891(2) 1.5351(3) -0.15302(19)
C27A C -0.2325(3) 1.5241(3) -0.0924(2)
C28A C -0.2516(2) 1.5912(3) -0.1978(2)
C29A C -0.2135(3) 1.6055(3) -0.2534(2)
C30A C -0.1120(2) 1.5634(2) -0.26550(17)
C31A C 0.2541(2) 1.2521(2) -0.33013(16)
C32A C 0.2651(2) 1.1769(2) -0.37322(17)
C33A C 0.2803(2) 1.0857(2) -0.35219(16)
C34A C 0.2948(2) 1.0122(2) -0.39201(18)
C35A C 0.3136(3) 0.9137(2) -0.3695(2)
C36A C 0.2933(3) 1.0313(3) -0.45350(19)
C37A C 0.2775(3) 1.1211(3) -0.47508(19)
C38A C 0.2637(3) 1.1940(2) -0.43509(18)
C39A C 0.4464(2) 1.3043(2) -0.27859(16)
C40A C 0.5550(2) 1.2619(2) -0.29237(18)
C41A C 0.6207(2) 1.1863(2) -0.25866(18)
C42A C 0.7226(2) 1.1470(3) -0.2708(2)
C43A C 0.7940(3) 1.0660(3) -0.2344(2)
C44A C 0.7570(3) 1.1836(3) -0.3191(2)
C45A C 0.6911(3) 1.2588(3) -0.3537(2)
C46A C 0.5902(3) 1.2983(3) -0.3408(2)
C47A C 0.2650(2) 1.5070(2) -0.18227(16)
C48A C 0.2763(2) 1.5746(2) -0.14134(16)
C49A C 0.2869(2) 1.6526(2) -0.16603(17)
C50A C 0.2989(2) 1.7167(2) -0.12890(18)
C51A C 0.3132(3) 1.7991(3) -0.1550(2)
C52A C 0.2987(3) 1.7024(3) -0.06675(19)
C53A C 0.2887(3) 1.6248(3) -0.04225(19)
C54A C 0.2784(2) 1.5600(2) -0.07938(17)
C55A C 0.2562(2) 0.5691(2) 0.59502(16)
C56A C 0.2988(2) 0.6123(2) 0.55591(16)
C57A C 0.2412(2) 0.7126(2) 0.54962(15)
C58A C 0.3971(2) 0.5573(2) 0.52752(16)
C59A C 0.4446(2) 0.4552(2) 0.52191(16)
C60A C 0.5447(2) 0.3995(2) 0.49504(16)
C61A C 0.8751(2) -0.0339(2) 0.57129(15)
C62A C 0.8054(2) -0.0514(2) 0.61225(16)
C63A C 0.7043(2) 0.0108(2) 0.61232(16)
C64A C 0.6374(2) -0.0074(2) 0.64903(18)
C65A C 0.5280(3) 0.0589(3) 0.6473(2)
C66A C 0.6749(3) -0.0868(3) 0.6863(2)
C67A C 0.7763(3) -0.1486(3) 0.6879(2)
C68A C 0.8418(2) -0.1313(2) 0.65023(18)
C69A C 0.9866(2) -0.0991(2) 0.40950(15)
C70A C 0.9845(2) -0.1545(2) 0.35683(15)
C71A C 0.9341(2) -0.1048(2) 0.30692(16)
C72A C 0.9312(2) -0.1551(2) 0.25624(17)
C73A C 0.8768(3) -0.1027(3) 0.20199(18)
C74A C 0.9792(3) -0.2560(2) 0.25745(17)
C75A C 1.0296(3) -0.3054(2) 0.30787(19)
C76A C 1.0327(3) -0.2550(2) 0.35716(17)
H1A H 0.6762 1.2139 -0.0678
H2A H 0.4950 1.3678 -0.1636
H3A H 0.4931 1.3987 -0.0972
H4A H 0.5149 1.2935 -0.1119
H5A H 0.6252 1.4084 -0.2025
H6A H 0.7916 1.3624 -0.2136
H7A H 0.9033 1.2445 -0.1511
H8A H 1.0934 0.8841 -0.2011
H9A H 1.1123 0.8598 -0.3115
H10A H 1.0939 0.7802 -0.3404
H11A H 1.1919 0.7517 -0.3093
H12A H 1.0424 0.6804 -0.2783
H13A H 0.9754 0.6575 -0.1858
H14A H 0.9665 0.7476 -0.1008
H15A H -0.0441 1.4527 -0.1367
H16A H -0.1878 1.5167 -0.0620
H17A H -0.2431 1.4691 -0.0926
H18A H -0.2938 1.5807 -0.0832
H19A H -0.3216 1.6204 -0.1905
H20A H -0.2564 1.6429 -0.2835
H21A H -0.0857 1.5743 -0.3031
H22A H 0.2805 1.0745 -0.3099
H23A H 0.2806 0.9207 -0.3304
H24A H 0.3824 0.8735 -0.3666
H25A H 0.2883 0.8856 -0.3965
H26A H 0.3022 0.9817 -0.4815
H27A H 0.2778 1.1322 -0.5177
H28A H 0.2539 1.2558 -0.4499
H29A H 0.5962 1.1609 -0.2263
H30A H 0.7668 1.0709 -0.1938
H31A H 0.8542 1.0696 -0.2339
H32A H 0.8067 1.0055 -0.2513
H33A H 0.8265 1.1567 -0.3284
H34A H 0.7154 1.2833 -0.3868
H35A H 0.5448 1.3500 -0.3646
H36A H 0.2857 1.6620 -0.2085
H37A H 0.2815 1.8187 -0.1919
H38A H 0.3828 1.7780 -0.1627
H39A H 0.2870 1.8517 -0.1272
H40A H 0.3061 1.7459 -0.0408
H41A H 0.2889 1.6160 0.0004
H42A H 0.2726 1.5060 -0.0626
H43A H 0.6800 0.0662 0.5872
H44A H 0.5167 0.1232 0.6370
H45A H 0.4959 0.0607 0.6854
H46A H 0.5009 0.0368 0.6173
H47A H 0.6294 -0.0993 0.7115
H48A H 0.8000 -0.2029 0.7142
H49A H 0.9111 -0.1741 0.6502
H50A H 0.9016 -0.0356 0.3074
H51A H 0.8224 -0.0427 0.2142
H52A H 0.8530 -0.1415 0.1827
H53A H 0.9203 -0.0920 0.1743
H54A H 0.9776 -0.2922 0.2239
H55A H 1.0626 -0.3747 0.3079
H56A H 1.0676 -0.2889 0.3914
Cl1 Cl 0.55530(19) 0.43911(16) 0.31125(10)
Cl2 Cl 0.48831(13) 0.29640(14) 0.28570(9)
C94 C 0.5163(6) 0.3565(5) 0.3431(3)
Cl3 Cl 0.25369(17) 0.51671(15) 0.40261(10)
Cl4 Cl 0.2905(2) 0.31588(16) 0.41713(9)
C93 C 0.2259(4) 0.4355(5) 0.4474(3)
C77 C 0.7557(3) 0.9257(4) 0.9083(2)
C78 C 0.6678(3) 0.9340(3) 0.87678(19)
C79 C 0.6574(3) 0.8539(3) 0.8647(2)
C80 C 0.5744(3) 0.8625(3) 0.8347(2)
C81 C 0.5034(3) 0.9516(3) 0.81654(19)
C82 C 0.4148(3) 0.9640(3) 0.7861(2)
C83 C 0.5163(3) 1.0318(3) 0.82830(19)
C84 C 0.5972(3) 1.0226(3) 0.85893(19)
H57 H 0.8081 0.9159 0.8792
H58 H 0.7782 0.8711 0.9348
H59 H 0.7380 0.9826 0.9311
H60 H 0.7067 0.7912 0.8764
H61 H 0.5676 0.8062 0.8272
H62 H 0.4311 0.9071 0.7629
H63 H 0.3939 1.0182 0.7598
H64 H 0.3631 0.9741 0.8154
H65 H 0.4690 1.0945 0.8153
H66 H 0.6034 1.0798 0.8678
C85 C 1.0522(3) 0.3014(3) -0.0368(2)
C86 C 1.0261(3) 0.4038(3) -0.01727(18)
C87 C 0.9498(3) 0.4544(3) 0.02598(19)
C88 C 1.0767(3) 0.4516(3) -0.04272(18)
H67 H 1.1009 0.2564 -0.0114
H68 H 1.0783 0.2912 -0.0774
H69 H 0.9948 0.2931 -0.0332
H70 H 0.9146 0.4233 0.0444
H71 H 1.1305 0.4191 -0.0718
C85A C 0.9478(3) 0.6986(3) 0.0368(2)
C86A C 0.9739(3) 0.5962(3) 0.01727(18)
C87A C 1.0502(3) 0.5456(3) -0.02598(19)
C88A C 0.9233(3) 0.5484(3) 0.04272(18)
H67A H 0.8991 0.7436 0.0114
H68A H 0.9217 0.7088 0.0774
H69A H 1.0052 0.7069 0.0332
H70A H 1.0854 0.5767 -0.0444
H71A H 0.8695 0.5809 0.0718
C89 C 0.0014(4) 0.6797(3) 0.5327(2)
C90 C 0.0004(3) 0.5874(3) 0.51620(19)
C91 C 0.0335(3) 0.5086(3) 0.55474(19)
C92 C -0.0333(3) 0.5764(3) 0.4610(2)
H72 H 0.0627 0.6770 0.5191
H73 H -0.0072 0.6885 0.5755
H74 H -0.0512 0.7332 0.5144
H75 H 0.0575 0.5127 0.5924
H76 H -0.0574 0.6292 0.4334
C89A C -0.0014(4) 0.3203(3) 0.4673(2)
C90A C -0.0004(3) 0.4126(3) 0.48380(19)
C91A C -0.0335(3) 0.4914(3) 0.44526(19)
C92A C 0.0333(3) 0.4236(3) 0.5390(2)
H72A H -0.0627 0.3230 0.4809
H73A H 0.0072 0.3115 0.4245
H74A H 0.0512 0.2668 0.4856
H75A H -0.0575 0.4873 0.4076
H76A H 0.0574 0.3708 0.5666
loop_
_geom_bond_atom_site_label_1
_geom_bond_atom_site_label_2
_geom_bond_site_symmetry_1
_geom_bond_site_symmetry_2
Ru1 O1 1_555 1_555
Ru2 Ru3 1_555 1_555
Ru3 O6 1_555 1_555
Ru4 O13 1_555 1_555
Cl1 C94 1_555 1_555
Cl2 C94 1_555 1_555
Cl3 C93 1_555 1_555
Cl4 C93 1_555 1_555
S1 N2 1_555 1_555
S2 N6 1_555 1_555
O1 C1 1_555 1_555
O2 C1 1_555 1_555
O3 Ru1 1_555 1_555
O4 C9 1_555 1_555
O5 Ru2 1_555 1_555
O6 C23 1_555 1_555
O7 Ru2 1_555 1_555
O8 Ru3 1_555 1_555
O9 Ru2 1_555 1_555
O10 Ru3 1_555 1_555
O11 Ru2 1_555 1_555
O12 Ru3 1_555 1_555
O13 C61 1_555 1_555
O14 C61 1_555 1_555
O15 Ru4 1_555 1_555
O16 C69 1_555 1_555
N1 Ru1 1_555 1_555
N2 C21 1_555 1_555
N3 S1 1_555 1_555
N4 Ru2 1_555 1_555
N5 Ru3 1_555 1_555
N6 C59 1_555 1_555
N7 S2 1_555 1_555
N8 Ru4 1_555 1_555
C1 C2 1_555 1_555
C2 C3 1_555 1_555
C3 C4 1_555 1_555
C4 C5 1_555 1_555
C5 H2 1_555 1_555
C6 C4 1_555 1_555
C7 C6 1_555 1_555
C8 C2 1_555 1_555
C9 O3 1_555 1_555
C10 C9 1_555 1_555
C11 C10 1_555 1_555
C12 C11 1_555 1_555
C13 C12 1_555 1_555
C14 C12 1_555 1_555
C15 C14 1_555 1_555
C16 C10 1_555 1_555
C17 N1 1_555 1_555
C18 C17 1_555 1_555
C19 N4 1_555 1_555
C20 C18 1_555 1_555
C21 C20 1_555 1_555
C22 N3 1_555 1_555
C23 O5 1_555 1_555
C24 C23 1_555 1_555
C25 C24 1_555 1_555
C26 C25 1_555 1_555
C27 C26 1_555 1_555
C28 C26 1_555 1_555
C29 C28 1_555 1_555
C30 C24 1_555 1_555
C31 O7 1_555 1_555
C32 C31 1_555 1_555
C33 C32 1_555 1_555
C34 C33 1_555 1_555
C35 C34 1_555 1_555
C36 C34 1_555 1_555
C37 C36 1_555 1_555
C38 C32 1_555 1_555
C39 O9 1_555 1_555
C40 C39 1_555 1_555
C41 C40 1_555 1_555
C42 C41 1_555 1_555
C43 C42 1_555 1_555
C44 C42 1_555 1_555
C45 C44 1_555 1_555
C46 C40 1_555 1_555
C47 O11 1_555 1_555
C48 C47 1_555 1_555
C49 C48 1_555 1_555
C50 C49 1_555 1_555
C51 C50 1_555 1_555
C52 C50 1_555 1_555
C53 C52 1_555 1_555
C54 C48 1_555 1_555
C55 N5 1_555 1_555
C56 C55 1_555 1_555
C57 N8 1_555 1_555
C58 C56 1_555 1_555
C59 C58 1_555 1_555
C60 N7 1_555 1_555
C61 C62 1_555 1_555
C62 C63 1_555 1_555
C63 C64 1_555 1_555
C64 C65 1_555 1_555
C65 H44 1_555 1_555
C66 C64 1_555 1_555
C67 C66 1_555 1_555
C68 C62 1_555 1_555
C69 O15 1_555 1_555
C70 C69 1_555 1_555
C71 C70 1_555 1_555
C72 C71 1_555 1_555
C73 C72 1_555 1_555
C74 C72 1_555 1_555
C75 C74 1_555 1_555
C76 C70 1_555 1_555
C77 C78 1_555 1_555
C78 C79 1_555 1_555
C79 C80 1_555 1_555
C80 C81 1_555 1_555
C81 C82 1_555 1_555
C82 H62 1_555 1_555
C83 C81 1_555 1_555
C84 C78 1_555 1_555
C85 C86 1_555 1_555
C86 C87 1_555 1_555
C87 H70 1_555 1_555
C88 C86 1_555 1_555
C89 C90 1_555 1_555
C90 C91 1_555 1_555
C91 H75 1_555 1_555
C92 C90 1_555 1_555
H1 C3 1_555 1_555
H3 C5 1_555 1_555
H4 C5 1_555 1_555
H5 C6 1_555 1_555
H6 C7 1_555 1_555
H7 C8 1_555 1_555
H8 C11 1_555 1_555
H9 C13 1_555 1_555
H10 C13 1_555 1_555
H11 C13 1_555 1_555
H12 C14 1_555 1_555
H13 C15 1_555 1_555
H14 C16 1_555 1_555
H15 C25 1_555 1_555
H16 C27 1_555 1_555
H17 C27 1_555 1_555
H18 C27 1_555 1_555
H19 C28 1_555 1_555
H20 C29 1_555 1_555
H21 C30 1_555 1_555
H22 C33 1_555 1_555
H23 C35 1_555 1_555
H24 C35 1_555 1_555
H25 C35 1_555 1_555
H26 C36 1_555 1_555
H27 C37 1_555 1_555
H28 C38 1_555 1_555
H29 C41 1_555 1_555
H30 C43 1_555 1_555
H31 C43 1_555 1_555
H32 C43 1_555 1_555
H33 C44 1_555 1_555
H34 C45 1_555 1_555
H35 C46 1_555 1_555
H36 C49 1_555 1_555
H37 C51 1_555 1_555
H38 C51 1_555 1_555
H39 C51 1_555 1_555
H40 C52 1_555 1_555
H41 C53 1_555 1_555
H42 C54 1_555 1_555
H43 C63 1_555 1_555
H45 C65 1_555 1_555
H46 C65 1_555 1_555
H47 C66 1_555 1_555
H48 C67 1_555 1_555
H49 C68 1_555 1_555
H50 C71 1_555 1_555
H51 C73 1_555 1_555
H52 C73 1_555 1_555
H53 C73 1_555 1_555
H54 C74 1_555 1_555
H55 C75 1_555 1_555
H56 C76 1_555 1_555
H57 C77 1_555 1_555
H58 C77 1_555 1_555
H59 C77 1_555 1_555
H60 C79 1_555 1_555
H61 C80 1_555 1_555
H63 C82 1_555 1_555
H64 C82 1_555 1_555
H65 C83 1_555 1_555
H66 C84 1_555 1_555
H67 C85 1_555 1_555
H68 C85 1_555 1_555
H69 C85 1_555 1_555
H71 C88 1_555 1_555
H72 C89 1_555 1_555
H73 C89 1_555 1_555
H74 C89 1_555 1_555
H76 C92 1_555 1_555
Ru1A Ru1 1_555 1_555
Ru1A_2 N1A 1_555 1_555
Ru2A Ru3A 1_555 1_555
Ru3A O6A 1_555 1_555
Ru3A_2 N5A 1_555 1_555
Ru4A Ru4_2 1_555 1_555
Ru4A_2 Ru4 1_555 1_555
S1A N2A 1_555 1_555
S2A N6A 1_555 1_555
O1A Ru1A 1_555 1_555
O2A Ru1 1_555 1_555
O3A Ru1A 1_555 1_555
O4A Ru1 1_555 1_555
O5A Ru2A 1_555 1_555
O6A C23A 1_555 1_555
O7A Ru2A 1_555 1_555
O8A Ru3A 1_555 1_555
O9A Ru2A 1_555 1_555
O10A Ru3A 1_555 1_555
O11A Ru2A 1_555 1_555
O12A Ru3A 1_555 1_555
O13A Ru4A_2 1_555 1_555
O13A_2 Ru4A 1_555 1_555
O14A Ru4 1_555 1_555
O14_2 Ru4A 1_555 1_555
O15A Ru4A_2 1_555 1_555
O15A_2 Ru4A 1_555 1_555
O16A Ru4 1_555 1_555
O16_2 Ru4A 1_555 1_555
N1A C17A 1_555 1_555
N1A_2 Ru1A 1_555 1_555
N2A C21A 1_555 1_555
N3A S1A 1_555 1_555
N4A Ru2A 1_555 1_555
N5A C55A 1_555 1_555
N5A_2 Ru3A 1_555 1_555
N6A C59A 1_555 1_555
N7A S2A 1_555 1_555
N8A Ru4A 1_555 1_555
C1A O1A 1_555 1_555
C2A C1A 1_555 1_555
C3A C2A 1_555 1_555
C4A C3A 1_555 1_555
C5A C4A 1_555 1_555
C6A C4A 1_555 1_555
C7A C6A 1_555 1_555
C8A C2A 1_555 1_555
C9A O3A 1_555 1_555
C10A C9A 1_555 1_555
C11A C10A 1_555 1_555
C12A C11A 1_555 1_555
C13A C12A 1_555 1_555
C14A C12A 1_555 1_555
C15A C14A 1_555 1_555
C16A C10A 1_555 1_555
C17A C18A 1_555 1_555
C18A C19A 1_555 1_555
C19A N4A 1_555 1_555
C20A C22 1_555 1_555
C21A C20A 1_555 1_555
C22A C20 1_555 1_555
C23A O5A 1_555 1_555
C24A C23A 1_555 1_555
C25A C24A 1_555 1_555
C26A C25A 1_555 1_555
C27A C26A 1_555 1_555
C28A C26A 1_555 1_555
C29A C28A 1_555 1_555
C30A C24A 1_555 1_555
C31A O7A 1_555 1_555
C32A C31A 1_555 1_555
C33A C32A 1_555 1_555
C34A C33A 1_555 1_555
C35A C34A 1_555 1_555
C36A C34A 1_555 1_555
C37A C36A 1_555 1_555
C38A C32A 1_555 1_555
C39A O9A 1_555 1_555
C40A C39A 1_555 1_555
C41A C40A 1_555 1_555
C42A C41A 1_555 1_555
C43A C42A 1_555 1_555
C44A C42A 1_555 1_555
C45A C44A 1_555 1_555
C46A C40A 1_555 1_555
C47A O11A 1_555 1_555
C48A C47A 1_555 1_555
C49A C48A 1_555 1_555
C50A C49A 1_555 1_555
C51A C50A 1_555 1_555
C52A C50A 1_555 1_555
C53A C52A 1_555 1_555
C54A C48A 1_555 1_555
C55A C56A 1_555 1_555
C56A C57A 1_555 1_555
C57A N8A 1_555 1_555
C58A C60 1_555 1_555
C59A C58A 1_555 1_555
C60A C58 1_555 1_555
C61A O13A 1_555 1_555
C62A C61A 1_555 1_555
C63A C62A 1_555 1_555
C64A C63A 1_555 1_555
C65A C64A 1_555 1_555
C66A C64A 1_555 1_555
C67A C66A 1_555 1_555
C68A C62A 1_555 1_555
C69A O15A 1_555 1_555
C70A C69A 1_555 1_555
C71A C70A 1_555 1_555
C72A C71A 1_555 1_555
C73A C72A 1_555 1_555
C74A C72A 1_555 1_555
C75A C74A 1_555 1_555
C76A C70A 1_555 1_555
C85A C86A 1_555 1_555
C86A C87A 1_555 1_555
C87A C88 1_555 1_555
C88A C87 1_555 1_555
C89A C90A 1_555 1_555
C90A C91A 1_555 1_555
C91A C92 1_555 1_555
C92A C91 1_555 1_555
H1A C3A 1_555 1_555
H2A C5A 1_555 1_555
H3A C5A 1_555 1_555
H4A C5A 1_555 1_555
H5A C6A 1_555 1_555
H6A C7A 1_555 1_555
H7A C8A 1_555 1_555
H8A C11A 1_555 1_555
H9A C13A 1_555 1_555
H10A C13A 1_555 1_555
H11A C13A 1_555 1_555
H12A C14A 1_555 1_555
H13A C15A 1_555 1_555
H14A C16A 1_555 1_555
H15A C25A 1_555 1_555
H16A C27A 1_555 1_555
H17A C27A 1_555 1_555
H18A C27A 1_555 1_555
H19A C28A 1_555 1_555
H20A C29A 1_555 1_555
H21A C30A 1_555 1_555
H22A C33A 1_555 1_555
H23A C35A 1_555 1_555
H24A C35A 1_555 1_555
H25A C35A 1_555 1_555
H26A C36A 1_555 1_555
H27A C37A 1_555 1_555
H28A C38A 1_555 1_555
H29A C41A 1_555 1_555
H30A C43A 1_555 1_555
H31A C43A 1_555 1_555
H32A C43A 1_555 1_555
H33A C44A 1_555 1_555
H34A C45A 1_555 1_555
H35A C46A 1_555 1_555
H36A C49A 1_555 1_555
H37A C51A 1_555 1_555
H38A C51A 1_555 1_555
H39A C51A 1_555 1_555
H40A C52A 1_555 1_555
H41A C53A 1_555 1_555
H42A C54A 1_555 1_555
H43A C63A 1_555 1_555
H44A C65A 1_555 1_555
H45A C65A 1_555 1_555
H46A C65A 1_555 1_555
H47A C66A 1_555 1_555
H48A C67A 1_555 1_555
H49A C68A 1_555 1_555
H50A C71A 1_555 1_555
H51A C73A 1_555 1_555
H52A C73A 1_555 1_555
H53A C73A 1_555 1_555
H54A C74A 1_555 1_555
H55A C75A 1_555 1_555
H56A C76A 1_555 1_555
H67A C85A 1_555 1_555
H68A C85A 1_555 1_555
H69A C85A 1_555 1_555
H70A C87A 1_555 1_555
H71A C88A 1_555 1_555
H72A C89A 1_555 1_555
H73A C89A 1_555 1_555
H74A C89A 1_555 1_555
H75A C91A 1_555 1_555
H76A C92A 1_555 1_555
O2 Ru1A 1_555 1_555
O4 Ru1A 1_555 1_555
O8 C31 1_555 1_555
O10 C39 1_555 1_555
O12 C47 1_555 1_555
O14 Ru4A_2 1_555 1_555
O16 Ru4A_2 1_555 1_555
C7 C8 1_555 1_555
C15 C16 1_555 1_555
C18 C19 1_555 1_555
C21 C22 1_555 1_555
C29 C30 1_555 1_555
C37 C38 1_555 1_555
C45 C46 1_555 1_555
C53 C54 1_555 1_555
C56 C57 1_555 1_555
C59 C60 1_555 1_555
C67 C68 1_555 1_555
C75 C76 1_555 1_555
C83 C84 1_555 1_555
O2A C1A 1_555 1_555
O4A C9A 1_555 1_555
O8A C31A 1_555 1_555
O10A C39A 1_555 1_555
O12A C47A 1_555 1_555
O14A C61A 1_555 1_555
O16A C69A 1_555 1_555
N3A C22A 1_555 1_555
N7A C60A 1_555 1_555
C7A C8A 1_555 1_555
C15A C16A 1_555 1_555
C18A C20A 1_555 1_555
C21A C22A 1_555 1_555
C29A C30A 1_555 1_555
C37A C38A 1_555 1_555
C45A C46A 1_555 1_555
C53A C54A 1_555 1_555
C56A C58A 1_555 1_555
C59A C60A 1_555 1_555
C67A C68A 1_555 1_555
C75A C76A 1_555 1_555
C86A C88A 1_555 1_555
C90A C92A 1_555 1_555

#END
