
#######################################################################
#
#                 Cambridge Crystallographic Data Centre
#                                CCDC 
#
#######################################################################
#
# If this CIF has been generated from an entry in the Cambridge 
# Structural Database, then it will include bibliographic, chemical, 
# crystal, experimental, refinement or atomic coordinate data resulting 
# from the CCDC's data processing and validation procedures.
#
#######################################################################

data_ABIXOZ
_chemical_formula_moiety         '(C16 H76 Co3 Mo12 N8 O71 P8)n'
_symmetry_cell_setting           triclinic
_symmetry_space_group_name_H-M   'P -1'
_symmetry_Int_Tables_number      2
_space_group_name_Hall           '-P 1'
loop_
_symmetry_equiv_pos_site_id
_symmetry_equiv_pos_as_xyz
1 x,y,z
2 -x,-y,-z
_cell_length_a                   12.7846(11)
_cell_length_b                   12.8311(11)
_cell_length_c                   15.9937(17)
_cell_angle_alpha                67.358(4)
_cell_angle_beta                 67.224(5)
_cell_angle_gamma                63.053(2)
_cell_volume                     2085.14
loop_
_atom_site_label
_atom_site_type_symbol
_atom_site_fract_x
_atom_site_fract_y
_atom_site_fract_z
Mo1 Mo 0.66155(4) 0.70436(3) 0.15697(3)
Mo2 Mo 0.20636(4) 1.15811(3) 0.16284(3)
Mo3 Mo 0.20000(4) 0.96118(3) 0.15867(3)
Mo4 Mo 0.47623(4) 1.16176(3) 0.16503(3)
Mo5 Mo 0.46194(4) 0.70115(3) 0.15402(3)
Mo6 Mo 0.66947(4) 0.96767(3) 0.16436(3)
Co1 Co 0.5000 1.0000 0.0000
Co2 Co 0.03364(6) 1.52729(6) 0.38380(5)
P1 P 0.21071(11) 1.28542(11) 0.30999(9)
P2 P 0.79428(11) 0.69981(11) 0.30515(9)
P3 P 0.20704(12) 0.70239(11) 0.31838(9)
P4 P 0.40718(11) 0.90026(10) 0.27181(8)
O1 O 0.2349(3) 0.7232(3) 0.3975(2)
O2 O 0.7747(3) 1.0314(3) 0.1042(3)
O3 O 0.7265(3) 0.6750(3) 0.4083(3)
O4 O 0.1901(3) 1.2158(3) 0.4135(2)
O5 O 0.3640(3) 0.8528(3) 0.3752(2)
O6 O 0.1568(3) 1.4208(3) 0.2959(2)
O7 O 0.7548(3) 0.6457(3) 0.2553(2)
O8 O -0.0731(3) 1.4153(3) 0.4329(3)
O9 O 0.7623(3) 0.6014(3) 0.0970(3)
O10 O 0.3490(3) 1.2493(3) 0.2654(2)
O11 O 0.5153(3) 0.5974(3) 0.0949(3)
O12 O 0.9314(3) 0.6441(3) 0.2902(2)
O13 O 0.7463(3) 0.8312(3) 0.0942(2)
O14 O 0.7576(3) 0.8382(3) 0.2627(2)
O15 O 0.5405(3) 1.2668(3) 0.1049(3)
O16 O 0.1004(3) 1.2602(3) 0.1057(3)
O17 O 0.3605(3) 1.0404(3) 0.2383(2)
O18 O 0.5473(3) 0.8542(3) 0.2346(2)
O19 O 0.1400(3) 0.8250(3) 0.2595(2)
O20 O 0.3274(3) 0.6387(3) 0.2552(2)
O21 O 0.0924(3) 1.0155(3) 0.1024(3)
O22 O 0.1518(3) 1.2481(3) 0.2628(2)
O23 O 0.3350(3) 1.2400(3) 0.0991(2)
O24 O 0.1071(3) 1.3921(3) 0.5027(2)
O25 O 0.1305(3) 0.6262(3) 0.3699(3)
O26 O 0.3200(3) 0.8242(3) 0.0885(2)
O27 O 0.3577(3) 0.8541(3) 0.2227(2)
O28 O 0.1321(3) 1.0430(3) 0.2577(2)
O29 O 0.5478(3) 0.6298(3) 0.2517(2)
O30 O 0.5625(3) 1.0540(3) 0.2612(2)
O31 O 0.5573(3) 1.0506(3) 0.0819(2)
O32 O 0.3101(3) 1.0508(3) 0.0768(2)
O33 O 0.5519(3) 0.8118(3) 0.0731(2)
O31A O 0.4427(3) 0.9494(3) -0.0819(2)
O32A O 0.6899(3) 0.9492(3) -0.0768(2)
O33A O 0.4481(3) 1.1882(3) -0.0731(2)
Mo1A Mo 0.33845(4) 1.29564(3) -0.15697(3)
Mo2A Mo 0.79364(4) 0.84189(3) -0.16284(3)
Mo3A Mo 0.80000(4) 1.03882(3) -0.15867(3)
Mo4A Mo 0.52377(4) 0.83824(3) -0.16503(3)
Mo5A Mo 0.53806(4) 1.29885(3) -0.15402(3)
Mo6A Mo 0.33053(4) 1.03233(3) -0.16436(3)
P2A P 0.20572(11) 1.30019(11) -0.30515(9)
O3A O 0.2735(3) 1.3250(3) -0.4083(3)
O7A O 0.2452(3) 1.3543(3) -0.2553(2)
O12A O 0.0686(3) 1.3559(3) -0.2902(2)
O14A O 0.2424(3) 1.1618(3) -0.2627(2)
O9A O 0.2377(3) 1.3986(3) -0.0970(3)
O13A O 0.2537(3) 1.1688(3) -0.0942(2)
P4A P 0.59282(11) 1.09974(10) -0.27181(8)
O5A O 0.6360(3) 1.1472(3) -0.3752(2)
O17A O 0.6395(3) 0.9596(3) -0.2383(2)
O18A O 0.4527(3) 1.1458(3) -0.2346(2)
O27A O 0.6423(3) 1.1459(3) -0.2227(2)
O29A O 0.4522(3) 1.3702(3) -0.2517(2)
O16A O 0.8996(3) 0.7398(3) -0.1057(3)
P1A P 0.78929(11) 0.71458(11) -0.30999(9)
O4A O 0.8099(3) 0.7842(3) -0.4135(2)
O6A O 0.8432(3) 0.5792(3) -0.2959(2)
O10A O 0.6510(3) 0.7507(3) -0.2654(2)
O22A O 0.8482(3) 0.7519(3) -0.2628(2)
O23A O 0.6650(3) 0.7600(3) -0.0991(2)
O28A O 0.8679(3) 0.9570(3) -0.2577(2)
P3A P 0.79296(12) 1.29761(11) -0.31838(9)
O1A O 0.7651(3) 1.2768(3) -0.3975(2)
O19A O 0.8600(3) 1.1750(3) -0.2595(2)
O20A O 0.6726(3) 1.3613(3) -0.2552(2)
O25A O 0.8695(3) 1.3738(3) -0.3699(3)
O21A O 0.9076(3) 0.9845(3) -0.1024(3)
O26A O 0.6800(3) 1.1758(3) -0.0885(2)
O15A O 0.4595(3) 0.7332(3) -0.1049(3)
O30A O 0.4375(3) 0.9460(3) -0.2612(2)
O11A O 0.4847(3) 1.4026(3) -0.0949(3)
O2A O 0.2253(3) 0.9686(3) -0.1042(3)
Co2A Co 0.96636(6) 0.47271(6) -0.38380(5)
O24A O -0.1071(3) 1.6079(3) 0.4973(2)
O8A O 1.0731(3) 0.5847(3) -0.4329(3)
O12_2 O -0.0686(3) 1.6441(3) 0.2902(2)
O25_2 O 0.1305(3) 1.6262(3) 0.3699(3)
Co2_2 Co 1.03364(6) 0.52729(6) 0.38380(5)
Co2A_2 Co -0.03364(6) 1.47271(6) 0.61620(5)
Co2_3 Co 0.03364(6) 0.52729(6) 0.38380(5)
Co2A_3 Co -0.03364(6) 1.47271(6) -0.38380(5)
Co2A_4 Co 0.96636(6) 1.47271(6) -0.38380(5)
O12A_2 O 1.0686(3) 0.3559(3) -0.2902(2)
O24_2 O 1.1071(3) 0.3921(3) -0.4973(2)
O24A_2 O 0.8929(3) 0.6079(3) -0.5027(2)
O25A_2 O 0.8695(3) 0.3738(3) -0.3699(3)
C1 C 0.074(2) 0.5873(17) 0.1090(10)
H1 H 0.0330 0.5501 0.1664
C2 C 0.2309(12) 0.7086(19) 0.0270(12)
H2 H 0.2798 0.7462 -0.0241
C3 C 0.2580(13) 0.5828(11) 0.0844(11)
H3 H 0.2985 0.5435 0.1316
C4 C 0.0320(9) 0.7144(14) 0.0468(11)
H4 H -0.0156 0.7508 0.0045
N1 N 0.2059(17) 0.5376(17) 0.0488(17)
N2 N 0.0953(10) 0.7583(13) 0.0787(13)
C5 C 0.4643(7) 0.1287(6) 0.4714(5)
H5 H 0.4228 0.2074 0.4780
C6 C 0.5815(7) 0.0546(6) 0.4883(5)
H6 H 0.6490 0.0778 0.4595
N3 N 0.4164(5) 0.0652(5) 0.4422(4)
N3A N 0.5836(5) -0.0652(5) 0.5578(4)
C5A C 0.5357(7) -0.1287(6) 0.5286(5)
H5A H 0.5772 -0.2074 0.5220
C6A C 0.4185(7) -0.0546(6) 0.5117(5)
H6A H 0.3510 -0.0778 0.5405
C7 C 0.4694(7) 0.6001(7) 0.5319(6)
H7 H 0.4706 0.6399 0.5691
C8 C 0.3802(6) 0.5407(7) 0.5607(5)
H8 H 0.2963 0.5790 0.5774
N4 N 0.5545(5) 0.5910(5) 0.4410(4)
N4A N 0.4455(5) 0.4090(5) 0.5590(4)
C7A C 0.5306(7) 0.3999(7) 0.4681(6)
H7A H 0.5294 0.3601 0.4309
C8A C 0.6198(6) 0.4593(7) 0.4393(5)
H8A H 0.7037 0.4210 0.4226
C9 C 0.1078(7) -0.0444(7) 0.5291(5)
H9 H 0.1550 -0.0552 0.5658
C10 C 0.0386(6) -0.1239(6) 0.5516(5)
H10 H 0.0734 -0.2074 0.5607
N5 N 0.0931(5) 0.0529(5) 0.4422(4)
N5A N -0.0931(5) -0.0529(5) 0.5578(4)
C9A C -0.1078(7) 0.0444(7) 0.4709(5)
H9A H -0.1550 0.0552 0.4342
C10A C -0.0386(6) 0.1239(6) 0.4484(5)
H10A H -0.0734 0.2074 0.4393
O34 O 0.8928(5) 0.3908(5) 0.2787(4)
O35 O 0.4573(6) 0.3821(5) 0.2915(5)
O36 O -0.0000 0.5000 0.0000
O37 O 0.8763(5) 0.9321(7) 0.3191(6)
O38 O 0.7178(15) 0.3227(15) 0.1586(13)
loop_
_geom_bond_atom_site_label_1
_geom_bond_atom_site_label_2
_geom_bond_site_symmetry_1
_geom_bond_site_symmetry_2
Mo1 Mo5 1_555 1_555
Mo2 Mo3 1_555 1_555
Mo3 O19 1_555 1_555
Mo4 Mo6 1_555 1_555
Mo5 O11 1_555 1_555
Mo6 O2 1_555 1_555
Co1 O31 1_555 1_555
Co2 O6 1_555 1_555
P1 O4 1_555 1_555
P2 O3 1_555 1_555
P3 O1 1_555 1_555
P4 O5 1_555 1_555
O6 P1 1_555 1_555
O7 Mo1 1_555 1_555
O8 Co2 1_555 1_555
O9 Mo1 1_555 1_555
O10 Mo4 1_555 1_555
O12 P2 1_555 1_555
O13 Mo1 1_555 1_555
O14 Mo6 1_555 1_555
O15 Mo4 1_555 1_555
O16 Mo2 1_555 1_555
O17 Mo2 1_555 1_555
O18 Mo1 1_555 1_555
O19 P3 1_555 1_555
O20 Mo5 1_555 1_555
O21 Mo3 1_555 1_555
O22 Mo2 1_555 1_555
O23 Mo2 1_555 1_555
O24 Co2 1_555 1_555
O25 P3 1_555 1_555
O26 Mo3 1_555 1_555
O27 Mo3 1_555 1_555
O28 Mo2 1_555 1_555
O29 Mo1 1_555 1_555
O30 Mo4 1_555 1_555
O31 Mo4 1_555 1_555
O32 Mo2 1_555 1_555
O33 Mo1 1_555 1_555
C1 H1 1_555 1_555
C2 H2 1_555 1_555
C3 C2 1_555 1_555
H3 C3 1_555 1_555
C4 C1 1_555 1_555
H4 C4 1_555 1_555
N1 C1 1_555 1_555
N2 C2 1_555 1_555
C5 H5 1_555 1_555
C6 C5 1_555 1_555
H6 C6 1_555 1_555
N3 C5 1_555 1_555
C7 H7 1_555 1_555
C8 C7 1_555 1_555
H8 C8 1_555 1_555
N4 C7 1_555 1_555
C9 H9 1_555 1_555
C10 C9 1_555 1_555
H10 C10 1_555 1_555
N5 C9 1_555 1_555
O31A Co1 1_555 1_555
O32A Co1 1_555 1_555
O33A Co1 1_555 1_555
Mo1A O33A 1_555 1_555
Mo2A O32A 1_555 1_555
Mo3A O32A 1_555 1_555
Mo4A O31A 1_555 1_555
Mo5A O33A 1_555 1_555
Mo6A O31A 1_555 1_555
P2A O3A 1_555 1_555
O7A Mo1A 1_555 1_555
O12A P2A 1_555 1_555
O14A Mo6A 1_555 1_555
O9A Mo1A 1_555 1_555
O13A Mo1A 1_555 1_555
P4A O5A 1_555 1_555
O17A Mo2A 1_555 1_555
O18A Mo1A 1_555 1_555
O27A Mo3A 1_555 1_555
O29A Mo1A 1_555 1_555
O16A Mo2A 1_555 1_555
P1A O4A 1_555 1_555
O6A P1A 1_555 1_555
O10A Mo4A 1_555 1_555
O22A Mo2A 1_555 1_555
O23A Mo2A 1_555 1_555
O28A Mo2A 1_555 1_555
P3A O1A 1_555 1_555
O19A Mo3A 1_555 1_555
O20A Mo5A 1_555 1_555
O25A P3A 1_555 1_555
O21A Mo3A 1_555 1_555
O26A Mo3A 1_555 1_555
O15A Mo4A 1_555 1_555
O30A Mo4A 1_555 1_555
O11A Mo5A 1_555 1_555
O2A Mo6A 1_555 1_555
Co2A O6A 1_555 1_555
O24A Co2 1_555 1_555
O8A Co2A 1_555 1_555
O12_2 Co2 1_555 1_555
O25_2 Co2 1_555 1_555
Co2_2 O12 1_555 1_555
Co2A_2 O24 1_555 1_555
Co2_3 O25 1_555 1_555
Co2A_3 O12A 1_555 1_555
Co2A_4 O25A 1_555 1_555
O12A_2 Co2A 1_555 1_555
O24_2 Co2A 1_555 1_555
O24A_2 Co2A 1_555 1_555
O25A_2 Co2A 1_555 1_555
N3A C6 1_555 1_555
C5A N3A 1_555 1_555
H5A C5A 1_555 1_555
C6A N3 1_555 1_555
H6A C6A 1_555 1_555
N4A C8 1_555 1_555
C7A N4A 1_555 1_555
H7A C7A 1_555 1_555
C8A N4 1_555 1_555
H8A C8A 1_555 1_555
N5A C10 1_555 1_555
C9A N5A 1_555 1_555
H9A C9A 1_555 1_555
C10A N5 1_555 1_555
H10A C10A 1_555 1_555
Mo3 O28 1_555 1_555
Mo3 O32 1_555 1_555
Mo4 O17 1_555 1_555
Mo4 O23 1_555 1_555
Mo5 O26 1_555 1_555
Mo5 O27 1_555 1_555
Mo5 O29 1_555 1_555
Mo5 O33 1_555 1_555
Mo6 O13 1_555 1_555
Mo6 O18 1_555 1_555
Mo6 O30 1_555 1_555
Mo6 O31 1_555 1_555
Co1 O32 1_555 1_555
Co1 O33 1_555 1_555
P1 O10 1_555 1_555
P1 O22 1_555 1_555
P2 O7 1_555 1_555
P2 O14 1_555 1_555
P3 O20 1_555 1_555
P4 O17 1_555 1_555
P4 O18 1_555 1_555
P4 O27 1_555 1_555
C3 N1 1_555 1_555
C4 N2 1_555 1_555
Mo1A Mo5A 1_555 1_555
Mo2A Mo3A 1_555 1_555
Mo3A O28A 1_555 1_555
Mo4A Mo6A 1_555 1_555
Mo4A O17A 1_555 1_555
Mo4A O23A 1_555 1_555
Mo5A O27A 1_555 1_555
Mo5A O29A 1_555 1_555
Mo5A O26A 1_555 1_555
Mo6A O13A 1_555 1_555
Mo6A O18A 1_555 1_555
Mo6A O30A 1_555 1_555
P2A O7A 1_555 1_555
P2A O14A 1_555 1_555
P4A O17A 1_555 1_555
P4A O18A 1_555 1_555
P4A O27A 1_555 1_555
P1A O10A 1_555 1_555
P1A O22A 1_555 1_555
P3A O19A 1_555 1_555
P3A O20A 1_555 1_555
O24A Co2A_2 1_555 1_555
C5A C6A 1_555 1_555
C7A C8A 1_555 1_555
C9A C10A 1_555 1_555

#END
