
#######################################################################
#
#                 Cambridge Crystallographic Data Centre
#                                CCDC 
#
#######################################################################
#
# If this CIF has been generated from an entry in the Cambridge 
# Structural Database, then it will include bibliographic, chemical, 
# crystal, experimental, refinement or atomic coordinate data resulting 
# from the CCDC's data processing and validation procedures.
#
#######################################################################

data_DAMFEF
_chemical_formula_moiety         'C40 H16 N7 O20 Zn7'
_symmetry_cell_setting           monoclinic
_symmetry_space_group_name_H-M   'C 2/m'
_symmetry_Int_Tables_number      12
_space_group_name_Hall           '-C 2y'
loop_
_symmetry_equiv_pos_site_id
_symmetry_equiv_pos_as_xyz
1 x,y,z
2 -x,y,-z
3 1/2+x,1/2+y,z
4 1/2-x,1/2+y,-z
5 -x,-y,-z
6 x,-y,z
7 1/2-x,1/2-y,-z
8 1/2+x,1/2-y,z
_cell_length_a                   14.299(2)
_cell_length_b                   16.325(2)
_cell_length_c                   9.5574(7)
_cell_angle_alpha                90
_cell_angle_beta                 100.729(10)
_cell_angle_gamma                90
_cell_volume                     2191.99
loop_
_atom_site_label
_atom_site_type_symbol
_atom_site_fract_x
_atom_site_fract_y
_atom_site_fract_z
Zn1 Zn 0.51996(6) 0.5000 0.65760(8)
O1 O 0.4205(3) 0.4132(3) 0.5885(4)
O2 O 0.3798(3) 0.4132(3) 0.3531(4)
O3 O 0.1194(15) 0.2515(13) 0.072(3)
O4 O 0.0654(18) 0.2972(17) -0.200(3)
N1 N 0.5073(4) 0.5000 0.8670(6)
N2 N 0.2339(9) 0.3206(8) 0.2308(14)
H1 H 0.2700 0.3628 0.2321
C1 C 0.3741(4) 0.3867(4) 0.4749(6)
C2 C 0.3091(4) 0.3156(4) 0.4853(6)
C3 C 0.2439(6) 0.2859(5) 0.3683(7)
C4 C 0.3128(6) 0.2777(5) 0.6124(7)
H2 H 0.3566 0.2965 0.6902
C5 C 0.1813(18) 0.3063(17) 0.090(2)
C6 C 0.191(2) 0.350(3) -0.041(3)
H3 H 0.2051 0.4058 -0.0105
H4 H 0.2487 0.3283 -0.0657
C7 C 0.125(3) 0.357(2) -0.175(4)
C8 C 0.4045(15) 0.5000 0.883(2)
C9 C 0.4547(12) 0.4266(10) 0.9016(16)
C10 C 0.6084(14) 0.5000 0.964(2)
C11 C 0.5552(12) 0.4288(10) 0.9396(16)
O1F O 0.0795(3) 0.0868(3) 0.4115(4)
O2F O 0.1202(3) 0.0868(3) 0.6469(4)
O3F O 0.3806(15) 0.2485(13) 0.928(3)
O4F O 0.4346(18) 0.2028(17) 1.200(3)
N2F N 0.2661(9) 0.1794(8) 0.7692(14)
H1F H 0.2300 0.1372 0.7679
C1F C 0.1259(4) 0.1133(4) 0.5251(6)
C2F C 0.1909(4) 0.1844(4) 0.5147(6)
C3F C 0.2561(6) 0.2141(5) 0.6317(7)
C4F C 0.1872(6) 0.2223(5) 0.3876(7)
H2F H 0.1434 0.2035 0.3098
C5F C 0.3187(18) 0.1937(17) 0.910(2)
C6F C 0.309(2) 0.150(3) 1.041(3)
H3F H 0.2949 0.0942 1.0105
H4F H 0.2513 0.1717 1.0657
C7F C 0.375(3) 0.143(2) 1.175(4)
N1A N 0.4927(4) 0.5000 1.1330(6)
C8A C 0.5955(15) 0.5000 1.117(2)
C9A C 0.5453(12) 0.4266(10) 1.0984(16)
C10A C 0.3916(14) 0.5000 1.036(2)
C11A C 0.4448(12) 0.4288(10) 1.0604(16)
C9D C 0.5453(12) 0.5734(10) 1.0984(16)
C11D C 0.4448(12) 0.5712(10) 1.0604(16)
C9E C 0.4547(12) 0.5734(10) 0.9016(16)
C11E C 0.5552(12) 0.5712(10) 0.9396(16)
Zn1A Zn 0.48004(6) 0.5000 0.34240(8)
O1A O 0.5795(3) 0.4132(3) 0.4115(4)
O2A O 0.6202(3) 0.4132(3) 0.6469(4)
O3A O 0.8806(15) 0.2515(13) 0.928(3)
O4A O 0.9346(18) 0.2972(17) 1.200(3)
N2A N 0.7661(9) 0.3206(8) 0.7692(14)
H1A H 0.7300 0.3628 0.7679
C1A C 0.6259(4) 0.3867(4) 0.5251(6)
C2A C 0.6909(4) 0.3156(4) 0.5147(6)
C3A C 0.7561(6) 0.2859(5) 0.6317(7)
C4A C 0.6872(6) 0.2777(5) 0.3876(7)
H2A H 0.6434 0.2965 0.3098
C5A C 0.8187(18) 0.3063(17) 0.910(2)
C6A C 0.809(2) 0.350(3) 1.041(3)
H3A H 0.7949 0.4058 1.0105
H4A H 0.7513 0.3283 1.0657
C7A C 0.875(3) 0.357(2) 1.175(4)
O1G O 0.9205(3) 0.0868(3) 0.5885(4)
O2G O 0.8798(3) 0.0868(3) 0.3531(4)
O3G O 0.6194(15) 0.2485(13) 0.072(3)
O4G O 0.5654(18) 0.2028(17) -0.200(3)
N2G N 0.7339(9) 0.1794(8) 0.2308(14)
H1G H 0.7700 0.1372 0.2321
C1G C 0.8741(4) 0.1133(4) 0.4749(6)
C2G C 0.8091(4) 0.1844(4) 0.4853(6)
C3G C 0.7439(6) 0.2141(5) 0.3683(7)
C4G C 0.8128(6) 0.2223(5) 0.6124(7)
H2G H 0.8566 0.2035 0.6902
C5G C 0.6813(18) 0.1937(17) 0.090(2)
C6G C 0.691(2) 0.150(3) -0.041(3)
H3G H 0.7051 0.0942 -0.0105
H4G H 0.7487 0.1717 -0.0657
C7G C 0.625(3) 0.143(2) -0.175(4)
Zn1A_2 Zn 0.48004(6) 0.5000 1.34240(8)
Zn1B Zn 0.01996(6) 0.0000 0.65760(8)
Zn1B_2 Zn 1.01996(6) 0.0000 0.65760(8)
Zn1C Zn -0.01996(6) 0.0000 0.34240(8)
Zn1C_2 Zn 0.98004(6) 0.0000 0.34240(8)
O1D O 0.5795(3) 0.5868(3) 0.4115(4)
O1E O 0.4205(3) 0.5868(3) 0.5885(4)
O2D O 0.6202(3) 0.5868(3) 0.6469(4)
O2E O 0.3798(3) 0.5868(3) 0.3531(4)
N1A_2 N 0.4927(4) 0.5000 0.1330(6)
loop_
_geom_bond_atom_site_label_1
_geom_bond_atom_site_label_2
_geom_bond_site_symmetry_1
_geom_bond_site_symmetry_2
Zn1 O1 1_555 1_555
O1 C1 1_555 1_555
O2 C1 1_555 1_555
O3 C5 1_555 1_555
O4 C7 1_555 1_555
N1 Zn1 1_555 1_555
N2 H1 1_555 1_555
C1 C2 1_555 1_555
C2 C3 1_555 1_555
C3 N2 1_555 1_555
C4 C2 1_555 1_555
H2 C4 1_555 1_555
C5 N2 1_555 1_555
C6 C5 1_555 1_555
H3 C6 1_555 1_555
H4 C6 1_555 1_555
C7 C6 1_555 1_555
C8 N1 1_555 1_555
C9 N1 1_555 1_555
C10 N1 1_555 1_555
C11 N1 1_555 1_555
O1F C1F 1_555 1_555
O2F C1F 1_555 1_555
O3F C5F 1_555 1_555
O4F C7F 1_555 1_555
N2F H1F 1_555 1_555
C1F C2F 1_555 1_555
C2F C3F 1_555 1_555
C3F C4 1_555 1_555
C4F C3 1_555 1_555
H2F C4F 1_555 1_555
C5F N2F 1_555 1_555
C6F C5F 1_555 1_555
H3F C6F 1_555 1_555
H4F C6F 1_555 1_555
C7F C6F 1_555 1_555
N1A C8A 1_555 1_555
C8A C10 1_555 1_555
C9A C11 1_555 1_555
C10A C8 1_555 1_555
C11A C9 1_555 1_555
C9D N1A 1_555 1_555
C11D N1A 1_555 1_555
C9E N1 1_555 1_555
C11E N1 1_555 1_555
Zn1A O2 1_555 1_555
O1A Zn1A 1_555 1_555
O2A Zn1 1_555 1_555
O3A C5A 1_555 1_555
O4A C7A 1_555 1_555
N2A H1A 1_555 1_555
C1A O1A 1_555 1_555
C2A C1A 1_555 1_555
C3A N2A 1_555 1_555
C4A C2A 1_555 1_555
H2A C4A 1_555 1_555
C5A N2A 1_555 1_555
C6A C5A 1_555 1_555
H3A C6A 1_555 1_555
H4A C6A 1_555 1_555
C7A C6A 1_555 1_555
O1G C1G 1_555 1_555
O2G C1G 1_555 1_555
O3G C5G 1_555 1_555
O4G C7G 1_555 1_555
N2G H1G 1_555 1_555
C1G C2G 1_555 1_555
C2G C3G 1_555 1_555
C3G C4A 1_555 1_555
C4G C3A 1_555 1_555
H2G C4G 1_555 1_555
C5G N2G 1_555 1_555
C6G C5G 1_555 1_555
H3G C6G 1_555 1_555
H4G C6G 1_555 1_555
C7G C6G 1_555 1_555
Zn1A_2 N1A 1_555 1_555
Zn1B O2F 1_555 1_555
Zn1B_2 O1G 1_555 1_555
Zn1C O1F 1_555 1_555
Zn1C_2 O2G 1_555 1_555
O1D Zn1A 1_555 1_555
O1E Zn1 1_555 1_555
O2D Zn1 1_555 1_555
O2E Zn1A 1_555 1_555
N1A_2 Zn1A 1_555 1_555
C8 C9 1_555 1_555
C8 C9E 1_555 1_555
C9 C11 1_555 1_555
C10 C11 1_555 1_555
C10 C11E 1_555 1_555
N2F C3F 1_555 1_555
C2F C4F 1_555 1_555
N1A C9A 1_555 1_555
N1A C10A 1_555 1_555
N1A C11A 1_555 1_555
C8A C9A 1_555 1_555
C8A C9D 1_555 1_555
C9A C11A 1_555 1_555
C10A C11A 1_555 1_555
C10A C11D 1_555 1_555
C9D C11D 1_555 1_555
C9D C11E 1_555 1_555
C11D C9E 1_555 1_555
C9E C11E 1_555 1_555
O2A C1A 1_555 1_555
C2A C3A 1_555 1_555
N2G C3G 1_555 1_555
C2G C4G 1_555 1_555

#END
