
#######################################################################
#
#                 Cambridge Crystallographic Data Centre
#                                CCDC 
#
#######################################################################
#
# If this CIF has been generated from an entry in the Cambridge 
# Structural Database, then it will include bibliographic, chemical, 
# crystal, experimental, refinement or atomic coordinate data resulting 
# from the CCDC's data processing and validation procedures.
#
#######################################################################

data_NOQKUB
_chemical_formula_moiety         '(C110 H73 Co3 N14 O8)n'
_symmetry_cell_setting           triclinic
_symmetry_space_group_name_H-M   'P -1'
_symmetry_Int_Tables_number      2
_space_group_name_Hall           '-P 1'
loop_
_symmetry_equiv_pos_site_id
_symmetry_equiv_pos_as_xyz
1 x,y,z
2 -x,-y,-z
_cell_length_a                   11.4712(6)
_cell_length_b                   11.6147(7)
_cell_length_c                   19.8781(10)
_cell_angle_alpha                81.156(5)
_cell_angle_beta                 74.921(5)
_cell_angle_gamma                65.987(6)
_cell_volume                     2332.49
loop_
_atom_site_label
_atom_site_type_symbol
_atom_site_fract_x
_atom_site_fract_y
_atom_site_fract_z
N6 N -0.348(2) 0.519(3) 0.2805(11)
C39 C -0.308(3) 0.477(3) 0.3394(13)
H26 H -0.3529 0.5191 0.3814
C40 C -0.188(3) 0.357(3) 0.3362(12)
H27 H -0.1581 0.3249 0.3782
C41 C -0.120(3) 0.292(3) 0.2791(11)
C42 C -0.166(3) 0.347(3) 0.2172(12)
H28 H -0.1221 0.3069 0.1744
C43 C -0.270(3) 0.454(4) 0.2185(14)
H29 H -0.30(2) 0.44(2) 0.172(12)
C44 C 0.0047(13) 0.1806(12) 0.2783(7)
C45 C 0.0232(14) 0.1094(15) 0.3404(5)
H30 H -0.0410 0.1349 0.3823
C46 C 0.1355(15) 0.0008(14) 0.3412(5)
H31 H 0.1481 -0.0478 0.3836
C47 C 0.2293(12) -0.0365(11) 0.2799(6)
C48 C 0.2109(13) 0.0347(13) 0.2178(5)
H32 H 0.2750 0.0092 0.1759
C49 C 0.0986(14) 0.1433(13) 0.2170(5)
H33 H 0.0859 0.1920 0.1746
C50 C 0.3469(12) -0.1559(11) 0.2813(7)
C51 C 0.3590(14) -0.2352(15) 0.3413(6)
H34 H 0.2927 -0.2128 0.3827
C52 C 0.4680(17) -0.3473(14) 0.3407(6)
H35 H 0.4763 -0.4015 0.3816
C53 C 0.5651(14) -0.3801(12) 0.2801(8)
C54 C 0.5530(13) -0.3008(14) 0.2201(6)
H36 H 0.6193 -0.3232 0.1787
C55 C 0.4439(14) -0.1887(12) 0.2208(5)
H37 H 0.4357 -0.1345 0.1798
C56 C 0.688(4) -0.517(3) 0.281(2)
C57 C 0.723(3) -0.576(3) 0.3430(17)
H38 H 0.6813 -0.5337 0.3852
C58 C 0.818(3) -0.698(3) 0.3435(14)
H39 H 0.8416 -0.7382 0.3860
N7 N 0.879(3) -0.760(2) 0.2817(17)
C59 C 0.845(4) -0.700(3) 0.2195(14)
H40 H 0.8861 -0.7427 0.1772
C60 C 0.749(4) -0.579(3) 0.2190(17)
H41 H 0.7258 -0.5381 0.1765
N6_2 N 0.652(2) -0.481(3) 0.2805(11)
C39_2 C 0.692(3) -0.523(3) 0.3394(13)
H26_2 H 0.6471 -0.4809 0.3814
C40_2 C 0.812(3) -0.643(3) 0.3362(12)
H27_2 H 0.8419 -0.6751 0.3782
C41_2 C 0.880(3) -0.708(3) 0.2791(11)
C42_2 C 0.834(3) -0.653(3) 0.2172(12)
H28_2 H 0.8779 -0.6931 0.1744
C43_2 C 0.730(3) -0.546(4) 0.2185(14)
H29_2 H 0.70(2) -0.56(2) 0.172(12)
C44_2 C 1.0047(13) -0.8194(12) 0.2783(7)
C53_2 C -0.4349(14) 0.6199(12) 0.2801(8)
C56_2 C -0.312(4) 0.483(3) 0.281(2)
C57_2 C -0.277(3) 0.424(3) 0.3430(17)
H38_2 H -0.3187 0.4663 0.3852
C58_2 C -0.182(3) 0.302(3) 0.3435(14)
N7_2 N -0.121(3) 0.240(2) 0.2817(17)
C59_2 C -0.155(4) 0.300(3) 0.2195(14)
H40_2 H -0.1139 0.2573 0.1772
C60_2 C -0.251(4) 0.421(3) 0.2190(17)
H41_2 H -0.2742 0.4619 0.1765
Co1 Co 0.5000 0.5000 0.0000
Co2 Co -0.0000 0.5000 0.0000
Co3 Co -0.0000 1.0000 0.0000
N1 N 0.3221(5) 0.6487(4) 0.0129(2)
N2 N 0.1457(5) 0.8261(4) 0.0126(2)
N3 N 0.4547(5) 0.4260(5) 0.1069(3)
N4 N 0.1005(5) 0.0177(5) 0.8911(3)
N5 N 0.0251(5) 0.5234(5) 0.1005(3)
O1 O 0.3921(4) 0.4195(4) -0.0311(2)
O2 O 0.1950(4) 0.4548(4) -0.0450(2)
O3 O -0.0480(4) 0.6870(4) -0.0326(2)
O4 O -0.0764(4) 0.8855(4) -0.0281(2)
C1 C 0.2724(6) 0.4900(5) -0.0286(3)
C2 C 0.2318(5) 0.6215(5) -0.0079(3)
C3 C 0.1216(6) 0.7316(5) -0.0074(3)
C4 C 0.2656(6) 0.7709(5) 0.0249(3)
H1 H 0.3068 0.8146 0.0407
C5 C -0.0093(6) 0.7682(5) -0.0241(3)
C6 C 0.4246(10) 0.4938(9) 0.1594(4)
H2 H 0.4109 0.5805 0.1502
C7 C 0.4112(11) 0.4478(10) 0.2279(4)
H3 H 0.3881 0.5028 0.2641
C8 C 0.4312(9) 0.3222(10) 0.2440(4)
C9 C 0.4620(9) 0.2503(8) 0.1868(4)
H4 H 0.4756 0.1635 0.1941
C10 C 0.4727(8) 0.3044(7) 0.1202(4)
H5 H 0.4937 0.2535 0.0823
C11 C 0.4151(12) 0.2688(12) 0.3168(4)
C12 C 0.4273(15) 0.3259(15) 0.3681(5)
H6 H 0.4487 0.3985 0.3565
C13 C 0.4085(15) 0.2787(15) 0.4381(5)
H7 H 0.4194 0.3187 0.4730
C14 C 0.3745(13) 0.1744(13) 0.4568(5)
C15 C 0.3654(14) 0.1185(12) 0.4045(5)
H8 H 0.3461 0.0448 0.4151
C16 C 0.3837(13) 0.1662(12) 0.3355(5)
H9 H 0.3739 0.1255 0.3006
C17 C 0.3433(11) 0.1336(11) 0.5320(4)
C18 C 0.3773(13) 0.1750(13) 0.5838(5)
H10 H 0.4275 0.2259 0.5703
C19 C 0.3407(11) 0.1447(11) 0.6535(5)
H11 H 0.3655 0.1747 0.6872
C20 C 0.2670(10) 0.0699(8) 0.6748(4)
C21 C 0.2391(13) 0.0258(10) 0.6237(4)
H12 H 0.1925 -0.0285 0.6371
C22 C 0.2753(13) 0.0560(11) 0.5533(5)
H13 H 0.2531 0.0230 0.5198
C23 C 0.2135(9) 0.0472(7) 0.7492(4)
C24 C 0.2740(8) 0.0442(8) 0.8027(4)
H14 H 0.3551 0.0542 0.7913
C25 C 0.2168(7) 0.0268(7) 0.8719(4)
H15 H 0.2621 0.0212 0.9068
C26 C 0.0903(10) 0.0400(8) 0.7721(4)
H16 H 0.0415 0.0451 0.7389
C27 C 0.0394(8) 0.0255(8) 0.8422(4)
H17 H -0.0444 0.0208 0.8559
C28 C 0.1156(7) 0.4320(7) 0.1294(3)
H18 H 0.1808 0.3669 0.1010
C29 C 0.1203(8) 0.4263(8) 0.1979(4)
H19 H 0.1857 0.3569 0.2160
C30 C 0.0305(8) 0.5210(8) 0.2410(4)
C31 C -0.0611(9) 0.6198(7) 0.2086(4)
H20 H -0.1243 0.6893 0.2346
C32 C -0.0598(8) 0.6164(7) 0.1401(3)
H21 H -0.1233 0.6845 0.1199
C33 C 0.0272(8) 0.5173(8) 0.3161(4)
C34 C 0.0639(13) 0.4009(11) 0.3543(5)
H22 H 0.0967 0.3250 0.3308
C35 C 0.0531(14) 0.3948(12) 0.4253(5)
H23 H 0.0776 0.3148 0.4500
C36 C 0.0072(10) 0.5036(9) 0.4613(4)
C37 C -0.0159(15) 0.6107(12) 0.4231(5)
H24 H -0.0414 0.6866 0.4454
C38 C -0.0044(16) 0.6166(11) 0.3515(5)
H25 H -0.0202 0.6964 0.3268
N5A N -0.0251(5) 0.4766(5) 0.8995(3)
C28A C -0.1156(7) 0.5680(7) 0.8706(3)
H18A H -0.1808 0.6331 0.8990
C29A C -0.1203(8) 0.5737(8) 0.8021(4)
H19A H -0.1857 0.6431 0.7840
C30A C -0.0305(8) 0.4790(8) 0.7590(4)
C31A C 0.0611(9) 0.3802(7) 0.7914(4)
H20A H 0.1243 0.3107 0.7654
C32A C 0.0598(8) 0.3836(7) 0.8599(3)
H21A H 0.1233 0.3155 0.8801
C33A C -0.0272(8) 0.4827(8) 0.6839(4)
C34A C -0.0639(13) 0.5991(11) 0.6457(5)
H22A H -0.0967 0.6750 0.6692
C35A C -0.0531(14) 0.6052(12) 0.5747(5)
H23A H -0.0776 0.6852 0.5500
C36A C -0.0072(10) 0.4964(9) 0.5387(4)
C37A C 0.0159(15) 0.3893(12) 0.5769(5)
H24A H 0.0414 0.3134 0.5546
C38A C 0.0044(16) 0.3834(11) 0.6485(5)
H25A H 0.0202 0.3036 0.6732
N1A N -0.3221(5) 0.3513(4) -0.0129(2)
N2A N -0.1457(5) 0.1739(4) -0.0126(2)
O1A O -0.3921(4) 0.5805(4) 0.0311(2)
O2A O -0.1950(4) 0.5452(4) 0.0450(2)
O3A O 0.0480(4) 0.3130(4) 0.0326(2)
O4A O 0.0764(4) 0.1145(4) 0.0281(2)
C1A C -0.2724(6) 0.5100(5) 0.0286(3)
C2A C -0.2318(5) 0.3785(5) 0.0079(3)
C3A C -0.1216(6) 0.2684(5) 0.0074(3)
C4A C -0.2656(6) 0.2291(5) -0.0249(3)
H1A H -0.3068 0.1854 -0.0407
C5A C 0.0093(6) 0.2318(5) 0.0241(3)
N3A N 0.5453(5) 0.5740(5) -0.1069(3)
N4A N 0.8995(5) 0.9823(5) -0.8911(3)
C6A C 0.5754(10) 0.5062(9) -0.1594(4)
H2A H 0.5891 0.4195 -0.1502
C7A C 0.5888(11) 0.5522(10) -0.2279(4)
H3A H 0.6119 0.4972 -0.2641
C8A C 0.5688(9) 0.6778(10) -0.2440(4)
C9A C 0.5380(9) 0.7497(8) -0.1868(4)
H4A H 0.5244 0.8365 -0.1941
C10A C 0.5273(8) 0.6956(7) -0.1202(4)
H5A H 0.5063 0.7465 -0.0823
C11A C 0.5849(12) 0.7312(12) -0.3168(4)
C12A C 0.5727(15) 0.6741(15) -0.3681(5)
H6A H 0.5513 0.6015 -0.3565
C13A C 0.5915(15) 0.7213(15) -0.4381(5)
H7A H 0.5806 0.6813 -0.4730
C14A C 0.6255(13) 0.8256(13) -0.4568(5)
C15A C 0.6346(14) 0.8815(12) -0.4045(5)
H8A H 0.6539 0.9552 -0.4151
C16A C 0.6163(13) 0.8338(12) -0.3355(5)
H9A H 0.6261 0.8745 -0.3006
C17A C 0.6567(11) 0.8664(11) -0.5320(4)
C18A C 0.6227(13) 0.8250(13) -0.5838(5)
H10A H 0.5725 0.7741 -0.5703
C19A C 0.6593(11) 0.8553(11) -0.6535(5)
H11A H 0.6345 0.8253 -0.6872
C20A C 0.7330(10) 0.9301(8) -0.6748(4)
C21A C 0.7609(13) 0.9742(10) -0.6237(4)
H12A H 0.8075 1.0285 -0.6371
C22A C 0.7247(13) 0.9440(11) -0.5533(5)
H13A H 0.7469 0.9770 -0.5198
C23A C 0.7865(9) 0.9528(7) -0.7492(4)
C24A C 0.7260(8) 0.9558(8) -0.8027(4)
H14A H 0.6449 0.9458 -0.7913
C25A C 0.7832(7) 0.9732(7) -0.8719(4)
H15A H 0.7379 0.9788 -0.9068
C26A C 0.9097(10) 0.9600(8) -0.7721(4)
H16A H 0.9585 0.9549 -0.7389
C27A C 0.9606(8) 0.9745(8) -0.8422(4)
H17A H 1.0444 0.9792 -0.8559
Co1_2 Co -0.5000 0.5000 0.0000
Co2_2 Co -0.0000 0.5000 1.0000
Co3_2 Co 0.0000 0.0000 0.0000
Co3_3 Co -0.0000 -0.0000 1.0000
Co3_4 Co 1.0000 1.0000 -1.0000
N1A_2 N 0.6779(5) 0.3513(4) -0.0129(2)
N2A_2 N -0.1457(5) 1.1739(4) -0.0126(2)
N4_2 N 0.1005(5) 1.0177(5) -0.1089(3)
N4A_2 N -0.1005(5) 0.9823(5) 0.1089(3)
N5A_2 N -0.0251(5) 0.4766(5) -0.1005(3)
O1A_2 O 0.6079(4) 0.5805(4) 0.0311(2)
O4A_2 O 0.0764(4) 1.1145(4) 0.0281(2)
loop_
_geom_bond_atom_site_label_1
_geom_bond_atom_site_label_2
_geom_bond_site_symmetry_1
_geom_bond_site_symmetry_2
Co1 N1 1_555 1_555
Co2 N5 1_555 1_555
Co3 N2 1_555 1_555
N1 C2 1_555 1_555
N2 C3 1_555 1_555
N3 Co1 1_555 1_555
N4 C25 1_555 1_555
N5 C28 1_555 1_555
O1 Co1 1_555 1_555
O2 Co2 1_555 1_555
O3 Co2 1_555 1_555
O4 Co3 1_555 1_555
C1 O1 1_555 1_555
C2 C1 1_555 1_555
C3 C2 1_555 1_555
C4 N1 1_555 1_555
H1 C4 1_555 1_555
C5 O3 1_555 1_555
C6 N3 1_555 1_555
H2 C6 1_555 1_555
C7 C6 1_555 1_555
H3 C7 1_555 1_555
C8 C7 1_555 1_555
C9 C8 1_555 1_555
H4 C9 1_555 1_555
C10 N3 1_555 1_555
H5 C10 1_555 1_555
C11 C8 1_555 1_555
C12 C11 1_555 1_555
H6 C12 1_555 1_555
C13 C12 1_555 1_555
H7 C13 1_555 1_555
C14 C13 1_555 1_555
C15 C14 1_555 1_555
H8 C15 1_555 1_555
C16 C11 1_555 1_555
H9 C16 1_555 1_555
C17 C14 1_555 1_555
C18 C17 1_555 1_555
H10 C18 1_555 1_555
C19 C18 1_555 1_555
H11 C19 1_555 1_555
C20 C19 1_555 1_555
C21 C20 1_555 1_555
H12 C21 1_555 1_555
C22 C17 1_555 1_555
H13 C22 1_555 1_555
C23 C20 1_555 1_555
C24 C23 1_555 1_555
H14 C24 1_555 1_555
C25 C24 1_555 1_555
H15 C25 1_555 1_555
C26 C23 1_555 1_555
H16 C26 1_555 1_555
C27 N4 1_555 1_555
H17 C27 1_555 1_555
C28 H18 1_555 1_555
C29 C28 1_555 1_555
H19 C29 1_555 1_555
C30 C29 1_555 1_555
C31 C30 1_555 1_555
H20 C31 1_555 1_555
C32 N5 1_555 1_555
H21 C32 1_555 1_555
C33 C30 1_555 1_555
C34 C33 1_555 1_555
H22 C34 1_555 1_555
C35 C34 1_555 1_555
H23 C35 1_555 1_555
C36 C35 1_555 1_555
C37 C36 1_555 1_555
H24 C37 1_555 1_555
C38 C33 1_555 1_555
H25 C38 1_555 1_555
N6 C39 1_555 1_555
C39 H26 1_555 1_555
H26 C57_2 1_555 1_555
C40 C39 1_555 1_555
H27 C40 1_555 1_555
C41 C40 1_555 1_555
C42 C41 1_555 1_555
H28 C42 1_555 1_555
C43 N6 1_555 1_555
H29 C43 1_555 1_555
C44 C41 1_555 1_555
C45 C44 1_555 1_555
H30 C45 1_555 1_555
C46 C45 1_555 1_555
H31 C46 1_555 1_555
C47 C46 1_555 1_555
C48 C47 1_555 1_555
H32 C48 1_555 1_555
C49 C44 1_555 1_555
H33 C49 1_555 1_555
C50 C47 1_555 1_555
C51 C50 1_555 1_555
H34 C51 1_555 1_555
C52 C51 1_555 1_555
H35 C52 1_555 1_555
C53 C52 1_555 1_555
C54 C53 1_555 1_555
H36 C54 1_555 1_555
C55 C50 1_555 1_555
H37 C55 1_555 1_555
C56 C53 1_555 1_555
C57 C56 1_555 1_555
H38 C57 1_555 1_555
C58 C57 1_555 1_555
H39 C58 1_555 1_555
N7 C58 1_555 1_555
C59 N7 1_555 1_555
H40 C59 1_555 1_555
C60 C56 1_555 1_555
H41 C60 1_555 1_555
N5A C28A 1_555 1_555
C28A H18A 1_555 1_555
C29A C28A 1_555 1_555
H19A C29A 1_555 1_555
C30A C29A 1_555 1_555
C31A C30A 1_555 1_555
H20A C31A 1_555 1_555
C32A N5A 1_555 1_555
H21A C32A 1_555 1_555
C33A C30A 1_555 1_555
C34A C33A 1_555 1_555
H22A C34A 1_555 1_555
C35A C34A 1_555 1_555
H23A C35A 1_555 1_555
C36A C36 1_555 1_555
C37A C36A 1_555 1_555
H24A C37A 1_555 1_555
C38A C33A 1_555 1_555
H25A C38A 1_555 1_555
N1A C2A 1_555 1_555
N2A C3A 1_555 1_555
O1A C1A 1_555 1_555
O2A Co2 1_555 1_555
O3A Co2 1_555 1_555
O4A C5A 1_555 1_555
C1A O2A 1_555 1_555
C2A C1A 1_555 1_555
C3A C2A 1_555 1_555
C4A N1A 1_555 1_555
H1A C4A 1_555 1_555
C5A O3A 1_555 1_555
N3A Co1 1_555 1_555
N4A C25A 1_555 1_555
C6A N3A 1_555 1_555
H2A C6A 1_555 1_555
C7A C6A 1_555 1_555
H3A C7A 1_555 1_555
C8A C7A 1_555 1_555
C9A C8A 1_555 1_555
H4A C9A 1_555 1_555
C10A N3A 1_555 1_555
H5A C10A 1_555 1_555
C11A C8A 1_555 1_555
C12A C11A 1_555 1_555
H6A C12A 1_555 1_555
C13A C12A 1_555 1_555
H7A C13A 1_555 1_555
C14A C13A 1_555 1_555
C15A C14A 1_555 1_555
H8A C15A 1_555 1_555
C16A C11A 1_555 1_555
H9A C16A 1_555 1_555
C17A C14A 1_555 1_555
C18A C17A 1_555 1_555
H10A C18A 1_555 1_555
C19A C18A 1_555 1_555
H11A C19A 1_555 1_555
C20A C19A 1_555 1_555
C21A C20A 1_555 1_555
H12A C21A 1_555 1_555
C22A C17A 1_555 1_555
H13A C22A 1_555 1_555
C23A C20A 1_555 1_555
C24A C23A 1_555 1_555
H14A C24A 1_555 1_555
C25A C24A 1_555 1_555
H15A C25A 1_555 1_555
C26A C23A 1_555 1_555
H16A C26A 1_555 1_555
C27A N4A 1_555 1_555
H17A C27A 1_555 1_555
Co1_2 N1A 1_555 1_555
Co2_2 N5A 1_555 1_555
Co3_2 N2A 1_555 1_555
Co3_3 N4 1_555 1_555
Co3_4 N4A 1_555 1_555
N1A_2 Co1 1_555 1_555
N2A_2 Co3 1_555 1_555
N4_2 Co3 1_555 1_555
N4A_2 Co3 1_555 1_555
N5A_2 Co2 1_555 1_555
O1A_2 Co1 1_555 1_555
O4A_2 Co3 1_555 1_555
N6_2 C53 1_555 1_555
C39_2 C56 1_555 1_555
H26_2 C57 1_555 1_555
C40_2 C57 1_555 1_555
H27_2 C58 1_555 1_555
C41_2 C58 1_555 1_555
C42_2 N7 1_555 1_555
H28_2 C59 1_555 1_555
C43_2 C56 1_555 1_555
H29_2 C60 1_555 1_555
C44_2 N7 1_555 1_555
C53_2 N6 1_555 1_555
C56_2 C39 1_555 1_555
C57_2 N6 1_555 1_555
H38_2 C39 1_555 1_555
C58_2 C40 1_555 1_555
N7_2 C41 1_555 1_555
C59_2 C41 1_555 1_555
H40_2 C42 1_555 1_555
C60_2 N6 1_555 1_555
H41_2 C43 1_555 1_555
N2 C4 1_555 1_555
O2 C1 1_555 1_555
O4 C5 1_555 1_555
C3 C5 1_555 1_555
C9 C10 1_555 1_555
C15 C16 1_555 1_555
C21 C22 1_555 1_555
C26 C27 1_555 1_555
C31 C32 1_555 1_555
C37 C38 1_555 1_555
C39 C57_2 1_555 1_555
C40 C57_2 1_555 1_555
H27 C58_2 1_555 1_555
C41 C58_2 1_555 1_555
C42 C43 1_555 1_555
C42 N7_2 1_555 1_555
C42 C60_2 1_555 1_555
H28 C59_2 1_555 1_555
C43 C56_2 1_555 1_555
C43 C59_2 1_555 1_555
H29 C60_2 1_555 1_555
C44 N7_2 1_555 1_555
C48 C49 1_555 1_555
C54 C55 1_555 1_555
C57 N6_2 1_555 1_555
C57 C39_2 1_555 1_555
H38 C39_2 1_555 1_555
C58 C40_2 1_555 1_555
N7 C41_2 1_555 1_555
C59 C60 1_555 1_555
C59 C41_2 1_555 1_555
C59 C43_2 1_555 1_555
H40 C42_2 1_555 1_555
C60 N6_2 1_555 1_555
C60 C42_2 1_555 1_555
H41 C43_2 1_555 1_555
C31A C32A 1_555 1_555
C35A C36A 1_555 1_555
C37A C38A 1_555 1_555
N2A C4A 1_555 1_555
O1A Co1_2 1_555 1_555
O4A Co3_2 1_555 1_555
C3A C5A 1_555 1_555
C9A C10A 1_555 1_555
C15A C16A 1_555 1_555
C21A C22A 1_555 1_555
C26A C27A 1_555 1_555
N6_2 C39_2 1_555 1_555
N6_2 C43_2 1_555 1_555
C39_2 H26_2 1_555 1_555
C39_2 C40_2 1_555 1_555
C40_2 H27_2 1_555 1_555
C40_2 C41_2 1_555 1_555
C41_2 C42_2 1_555 1_555
C41_2 C44_2 1_555 1_555
C42_2 H28_2 1_555 1_555
C42_2 C43_2 1_555 1_555
C43_2 H29_2 1_555 1_555
C53_2 C56_2 1_555 1_555
C56_2 C57_2 1_555 1_555
C56_2 C60_2 1_555 1_555
C57_2 H38_2 1_555 1_555
C57_2 C58_2 1_555 1_555
C58_2 N7_2 1_555 1_555
N7_2 C59_2 1_555 1_555
C59_2 H40_2 1_555 1_555
C59_2 C60_2 1_555 1_555
C60_2 H41_2 1_555 1_555

#END
