
#######################################################################
#
#                 Cambridge Crystallographic Data Centre
#                                CCDC 
#
#######################################################################
#
# If this CIF has been generated from an entry in the Cambridge 
# Structural Database, then it will include bibliographic, chemical, 
# crystal, experimental, refinement or atomic coordinate data resulting 
# from the CCDC's data processing and validation procedures.
#
#######################################################################

data_IGULIH
_chemical_formula_moiety         'C31 H8 Cl1 Cu4 N25 O7'
_symmetry_cell_setting           cubic
_symmetry_space_group_name_H-M   'P m -3 m'
_symmetry_Int_Tables_number      221
_space_group_name_Hall           '-P 4 2 3'
loop_
_symmetry_equiv_pos_site_id
_symmetry_equiv_pos_as_xyz
1 x,y,z
2 -x,-y,z
3 -x,y,-z
4 x,-y,-z
5 z,x,y
6 z,-x,-y
7 -z,-x,y
8 -z,x,-y
9 y,z,x
10 -y,z,-x
11 y,-z,-x
12 -y,-z,x
13 y,x,-z
14 -y,-x,-z
15 y,-x,z
16 -y,x,z
17 x,z,-y
18 -x,z,y
19 -x,-z,-y
20 x,-z,y
21 z,y,-x
22 z,-y,x
23 -z,y,x
24 -z,-y,-x
25 -x,-y,-z
26 x,y,-z
27 x,-y,z
28 -x,y,z
29 -z,-x,-y
30 -z,x,y
31 z,x,-y
32 z,-x,y
33 -y,-z,-x
34 y,-z,x
35 -y,z,x
36 y,z,-x
37 -y,-x,z
38 y,x,z
39 -y,x,-z
40 y,-x,-z
41 -x,-z,y
42 x,-z,-y
43 x,z,y
44 -x,z,-y
45 -z,-y,x
46 -z,y,-x
47 z,-y,-x
48 z,y,x
_cell_length_a                   17.5355(12)
_cell_length_b                   17.5355(12)
_cell_length_c                   17.5355(12)
_cell_angle_alpha                90
_cell_angle_beta                 90
_cell_angle_gamma                90
_cell_volume                     5392.06
loop_
_atom_site_label
_atom_site_type_symbol
_atom_site_fract_x
_atom_site_fract_y
_atom_site_fract_z
Cl1 Cl 0.0000 0.0000 0.5000
Cu1 Cu -0.0000 0.14383(5) 0.5000
Cu1A Cu 0.0000 -0.14383(5) 0.5000
Cu1L Cu 0.14383(5) 0.0000 0.5000
Cu1M Cu -0.14383(5) 0.0000 0.5000
O2 O -0.0000 0.2687(3) 0.5000
C7 C 0.5000 0.359(3) 0.422(3)
N5 N 0.5000 0.3905(10) 0.5000
C7B C 0.5000 0.359(3) 0.578(3)
C7T C 0.422(3) 0.359(3) 0.5000
C7V C 0.578(3) 0.359(3) 0.5000
C1 C 0.185(2) 0.1446(13) 0.3336(19)
C2 C 0.1892(9) 0.2240(7) 0.2240(7)
C3 C 0.2233(5) 0.1616(5) 0.2589(5)
C4 C 0.2915(7) 0.1326(6) 0.2294(7)
C5 C 0.327(4) 0.168(2) 0.168(2)
C6 C 0.3977(13) 0.1349(8) 0.1349(8)
N1 N 0.1127(5) 0.1610(6) 0.3500(6)
N2 N 0.0989(13) 0.1443(10) 0.4232(13)
N3 N 0.1626(13) 0.1145(9) 0.4525(6)
N4 N 0.2151(4) 0.1153(4) 0.3973(4)
H1 H 0.2634 0.0985 0.4023
O1 O 0.4222(9) 0.0833(6) 0.1772(8)
C1D C 0.3336(19) 0.185(2) 0.1446(13)
C2D C 0.2240(7) 0.1892(9) 0.2240(7)
C3D C 0.2589(5) 0.2233(5) 0.1616(5)
C4D C 0.2294(7) 0.2915(7) 0.1326(6)
C5D C 0.168(2) 0.327(4) 0.168(2)
C6D C 0.1349(8) 0.3977(13) 0.1349(8)
N1D N 0.3500(6) 0.1127(5) 0.1610(6)
N2D N 0.4232(13) 0.0989(13) 0.1443(10)
N3D N 0.4525(6) 0.1626(13) 0.1145(9)
N4D N 0.3973(4) 0.2151(4) 0.1153(4)
H1D H 0.4023 0.2634 0.0985
O1D O 0.1772(8) 0.4222(9) 0.0833(6)
C1H C 0.1446(13) 0.3336(19) 0.185(2)
C2H C 0.2240(7) 0.2240(7) 0.1892(9)
C3H C 0.1616(5) 0.2589(5) 0.2233(5)
C4H C 0.1326(6) 0.2294(7) 0.2915(7)
C5H C 0.168(2) 0.168(2) 0.327(4)
C6H C 0.1349(8) 0.1349(8) 0.3977(13)
N1H N 0.1610(6) 0.3500(6) 0.1127(5)
N2H N 0.1443(10) 0.4232(13) 0.0989(13)
N3H N 0.1145(9) 0.4525(6) 0.1626(13)
N4H N 0.1153(4) 0.3973(4) 0.2151(4)
H1H H 0.0985 0.4023 0.2634
O1H O 0.0833(6) 0.1772(8) 0.4222(9)
C1KA C 0.1446(13) 0.185(2) 0.3336(19)
C3KA C 0.1616(5) 0.2233(5) 0.2589(5)
C4KA C 0.1326(6) 0.2915(7) 0.2294(7)
N1KA N 0.1610(6) 0.1127(5) 0.3500(6)
N2KA N 0.1443(10) 0.0989(13) 0.4232(13)
N3KA N 0.1145(9) 0.1626(13) 0.4525(6)
N4KA N 0.1153(4) 0.2151(4) 0.3973(4)
H1KA H 0.0985 0.2634 0.4023
O1KA O 0.0833(6) 0.4222(9) 0.1772(8)
C1PA C 0.185(2) 0.3336(19) 0.1446(13)
C3PA C 0.2233(5) 0.2589(5) 0.1616(5)
C4PA C 0.2915(7) 0.2294(7) 0.1326(6)
N1PA N 0.1127(5) 0.3500(6) 0.1610(6)
N2PA N 0.0989(13) 0.4232(13) 0.1443(10)
N3PA N 0.1626(13) 0.4525(6) 0.1145(9)
N4PA N 0.2151(4) 0.3973(4) 0.1153(4)
H1PA H 0.2634 0.4023 0.0985
O1PA O 0.4222(9) 0.1772(8) 0.0833(6)
C1UA C 0.3336(19) 0.1446(13) 0.185(2)
C3UA C 0.2589(5) 0.1616(5) 0.2233(5)
C4UA C 0.2294(7) 0.1326(6) 0.2915(7)
N1UA N 0.3500(6) 0.1610(6) 0.1127(5)
N2UA N 0.4232(13) 0.1443(10) 0.0989(13)
N3UA N 0.4525(6) 0.1145(9) 0.1626(13)
N4UA N 0.3973(4) 0.1153(4) 0.2151(4)
H1UA H 0.4023 0.0985 0.2634
O1UA O 0.1772(8) 0.0833(6) 0.4222(9)
loop_
_geom_bond_atom_site_label_1
_geom_bond_atom_site_label_2
_geom_bond_site_symmetry_1
_geom_bond_site_symmetry_2
C1 C3 1_555 1_555
C2 C3 1_555 1_555
C3 C4 1_555 1_555
C4 C5 1_555 1_555
C5 C6 1_555 1_555
C6 O1 1_555 1_555
N1 C1 1_555 1_555
N2 N1 1_555 1_555
N3 N2 1_555 1_555
N4 C1 1_555 1_555
H1 N4 1_555 1_555
O1 N1D 1_555 1_555
Cl1 Cu1 1_555 1_555
C7 N5 1_555 1_555
N5 C7B 1_555 1_555
C1D C6 1_555 1_555
C2D C2 1_555 1_555
C3D C5 1_555 1_555
C4D C3D 1_555 1_555
C5D C4D 1_555 1_555
C6D C5D 1_555 1_555
N1D C4 1_555 1_555
N2D C6 1_555 1_555
N3D C6 1_555 1_555
N4D C5 1_555 1_555
H1D N4D 1_555 1_555
O1D C6D 1_555 1_555
C1H C6D 1_555 1_555
C2H C2 1_555 1_555
C3H C5D 1_555 1_555
C4H N1 1_555 1_555
C5H C3 1_555 1_555
C6H C1 1_555 1_555
N1H C4D 1_555 1_555
N2H C6D 1_555 1_555
N3H C6D 1_555 1_555
N4H C5D 1_555 1_555
H1H N4H 1_555 1_555
O1H N1 1_555 1_555
C1KA C1 1_555 1_555
C3KA C3 1_555 1_555
C4KA C5D 1_555 1_555
N1KA N1 1_555 1_555
N2KA N2 1_555 1_555
N3KA N3 1_555 1_555
N4KA N1 1_555 1_555
H1KA N4KA 1_555 1_555
O1KA C6D 1_555 1_555
C1PA C4D 1_555 1_555
C3PA C2 1_555 1_555
C4PA C5 1_555 1_555
N1PA C5D 1_555 1_555
N2PA C6D 1_555 1_555
N3PA C6D 1_555 1_555
N4PA C5D 1_555 1_555
H1PA N4PA 1_555 1_555
O1PA C6 1_555 1_555
C1UA C4 1_555 1_555
C3UA C3 1_555 1_555
C4UA C1 1_555 1_555
N1UA C5 1_555 1_555
N2UA C6 1_555 1_555
N3UA C6 1_555 1_555
N4UA C5 1_555 1_555
H1UA N4UA 1_555 1_555
O1UA N2 1_555 1_555
Cu1A Cl1 1_555 1_555
Cu1L Cl1 1_555 1_555
Cu1M Cl1 1_555 1_555
C7T N5 1_555 1_555
C7V N5 1_555 1_555
C4 C4UA 1_555 1_555
C5 N1D 1_555 1_555
C5 C3UA 1_555 1_555
C6 N1D 1_555 1_555
C6 N4D 1_555 1_555
C6 C1UA 1_555 1_555
C6 N1UA 1_555 1_555
C6 N4UA 1_555 1_555
N1 C5H 1_555 1_555
N1 C6H 1_555 1_555
N2 C6H 1_555 1_555
N2 O1H 1_555 1_555
N3 N4 1_555 1_555
N3 C6H 1_555 1_555
N3 O1UA 1_555 1_555
N4 C5H 1_555 1_555
N4 C6H 1_555 1_555
N4 N1KA 1_555 1_555
N4 O1UA 1_555 1_555
O1 N2D 1_555 1_555
O1 N2UA 1_555 1_555
O1 N3UA 1_555 1_555
O1 N4UA 1_555 1_555
C1D C3D 1_555 1_555
C1D N1D 1_555 1_555
C1D N4D 1_555 1_555
C1D C4PA 1_555 1_555
C1D C1UA 1_555 1_555
C2D C3D 1_555 1_555
C2D C2H 1_555 1_555
C2D C3KA 1_555 1_555
C3D C3PA 1_555 1_555
C3D C3UA 1_555 1_555
C4D C4PA 1_555 1_555
C5D N1H 1_555 1_555
C5D C3PA 1_555 1_555
C6D N1H 1_555 1_555
C6D N4H 1_555 1_555
C6D C1PA 1_555 1_555
C6D N1PA 1_555 1_555
C6D N4PA 1_555 1_555
N1D N2D 1_555 1_555
N1D N1UA 1_555 1_555
N1D N4UA 1_555 1_555
N2D N3D 1_555 1_555
N2D O1PA 1_555 1_555
N2D N2UA 1_555 1_555
N3D N4D 1_555 1_555
N3D O1PA 1_555 1_555
N3D N3UA 1_555 1_555
N4D O1PA 1_555 1_555
N4D N1UA 1_555 1_555
O1D N1H 1_555 1_555
O1D N2H 1_555 1_555
O1D N2PA 1_555 1_555
O1D N3PA 1_555 1_555
O1D N4PA 1_555 1_555
C1H C3H 1_555 1_555
C1H N1H 1_555 1_555
C1H N4H 1_555 1_555
C1H C4KA 1_555 1_555
C1H C1PA 1_555 1_555
C2H C3H 1_555 1_555
C2H C3UA 1_555 1_555
C3H C4H 1_555 1_555
C3H C3KA 1_555 1_555
C3H C3PA 1_555 1_555
C4H C5H 1_555 1_555
C4H C1KA 1_555 1_555
C4H C4KA 1_555 1_555
C5H C6H 1_555 1_555
C5H C3KA 1_555 1_555
C5H N1KA 1_555 1_555
C5H N4KA 1_555 1_555
C5H C4UA 1_555 1_555
C6H O1H 1_555 1_555
C6H C1KA 1_555 1_555
C6H N1KA 1_555 1_555
C6H N2KA 1_555 1_555
C6H N3KA 1_555 1_555
C6H N4KA 1_555 1_555
C6H O1UA 1_555 1_555
N1H N2H 1_555 1_555
N1H N1PA 1_555 1_555
N1H N4PA 1_555 1_555
N2H N3H 1_555 1_555
N2H O1KA 1_555 1_555
N2H N2PA 1_555 1_555
N3H N4H 1_555 1_555
N3H O1KA 1_555 1_555
N3H N3PA 1_555 1_555
N4H O1KA 1_555 1_555
N4H N1PA 1_555 1_555
O1H N2KA 1_555 1_555
O1H N3KA 1_555 1_555
O1H N4KA 1_555 1_555
C1KA C3KA 1_555 1_555
C1KA N1KA 1_555 1_555
C1KA N4KA 1_555 1_555
C3KA C4KA 1_555 1_555
C4KA N1PA 1_555 1_555
N1KA N2KA 1_555 1_555
N1KA C4UA 1_555 1_555
N1KA O1UA 1_555 1_555
N2KA N3KA 1_555 1_555
N2KA O1UA 1_555 1_555
N3KA N4KA 1_555 1_555
O1KA N1PA 1_555 1_555
O1KA N2PA 1_555 1_555
C1PA C3PA 1_555 1_555
C1PA N1PA 1_555 1_555
C1PA N4PA 1_555 1_555
C3PA C4PA 1_555 1_555
C4PA N1UA 1_555 1_555
N1PA N2PA 1_555 1_555
N2PA N3PA 1_555 1_555
N3PA N4PA 1_555 1_555
O1PA N1UA 1_555 1_555
O1PA N2UA 1_555 1_555
C1UA C3UA 1_555 1_555
C1UA N1UA 1_555 1_555
C1UA N4UA 1_555 1_555
C3UA C4UA 1_555 1_555
N1UA N2UA 1_555 1_555
N2UA N3UA 1_555 1_555
N3UA N4UA 1_555 1_555

#END
