
#######################################################################
#
#                 Cambridge Crystallographic Data Centre
#                                CCDC 
#
#######################################################################
#
# If this CIF has been generated from an entry in the Cambridge 
# Structural Database, then it will include bibliographic, chemical, 
# crystal, experimental, refinement or atomic coordinate data resulting 
# from the CCDC's data processing and validation procedures.
#
#######################################################################

data_REBRIA
_chemical_formula_moiety         '(C1 H6 Al9 N1 O51 P12 4-)n'
_symmetry_cell_setting           cubic
_symmetry_space_group_name_H-M   'I -4 3 m'
_symmetry_Int_Tables_number      217
_space_group_name_Hall           'I -4 2 3'
loop_
_symmetry_equiv_pos_site_id
_symmetry_equiv_pos_as_xyz
1 x,y,z
2 -x,-y,z
3 -x,y,-z
4 x,-y,-z
5 z,x,y
6 z,-x,-y
7 -z,-x,y
8 -z,x,-y
9 y,z,x
10 -y,z,-x
11 y,-z,-x
12 -y,-z,x
13 y,x,z
14 -y,-x,z
15 y,-x,-z
16 -y,x,-z
17 x,z,y
18 -x,z,-y
19 -x,-z,y
20 x,-z,-y
21 z,y,x
22 z,-y,-x
23 -z,y,-x
24 -z,-y,x
25 1/2+x,1/2+y,1/2+z
26 1/2-x,1/2-y,1/2+z
27 1/2-x,1/2+y,1/2-z
28 1/2+x,1/2-y,1/2-z
29 1/2+z,1/2+x,1/2+y
30 1/2+z,1/2-x,1/2-y
31 1/2-z,1/2-x,1/2+y
32 1/2-z,1/2+x,1/2-y
33 1/2+y,1/2+z,1/2+x
34 1/2-y,1/2+z,1/2-x
35 1/2+y,1/2-z,1/2-x
36 1/2-y,1/2-z,1/2+x
37 1/2+y,1/2+x,1/2+z
38 1/2-y,1/2-x,1/2+z
39 1/2+y,1/2-x,1/2-z
40 1/2-y,1/2+x,1/2-z
41 1/2+x,1/2+z,1/2+y
42 1/2-x,1/2+z,1/2-y
43 1/2-x,1/2-z,1/2+y
44 1/2+x,1/2-z,1/2-y
45 1/2+z,1/2+y,1/2+x
46 1/2+z,1/2-y,1/2-x
47 1/2-z,1/2+y,1/2-x
48 1/2-z,1/2-y,1/2+x
_cell_length_a                   16.7727(2)
_cell_length_b                   16.7727(2)
_cell_length_c                   16.7727(2)
_cell_angle_alpha                90
_cell_angle_beta                 90
_cell_angle_gamma                90
_cell_volume                     4718.55
loop_
_atom_site_label
_atom_site_type_symbol
_atom_site_fract_x
_atom_site_fract_y
_atom_site_fract_z
C2 C 1.1418(4) 0.6734(5) 1.1418(4)
N2 N 1.1951(4) 0.6268(3) 1.1951(3)
O4 O 1.0000 1.0000 1.0000
O5 O 1.0949(7) 1.0949(7) 1.0949(7)
O6 O 1.0549(7) 1.2430(8) 1.0549(7)
Al1 Al 1.0000 0.5000 1.0000
Al2 Al 1.2500 0.5000 1.0000
P1 P 1.12254(8) 0.43536(11) 1.12254(8)
O1 O 1.1440(2) 0.3513(3) 1.1440(2)
O2 O 1.1945(2) 0.4831(2) 1.0922(2)
O3 O 1.0581(2) 0.4359(3) 1.0581(2)
Al1BA Al 1.5000 0.5000 1.0000
Al1FA Al 1.0000 0.5000 1.5000
Al1BA_2 Al 0.5000 0.5000 1.0000
Al1FA_2 Al 1.0000 0.5000 0.5000
Al2T Al 1.0000 0.5000 1.2500
Al2A Al 0.7500 0.5000 1.0000
Al2U Al 1.0000 0.5000 0.7500
Al2M Al 1.5000 0.7500 1.0000
Al2L Al 1.5000 0.2500 1.0000
Al2E Al 1.0000 0.7500 1.5000
Al2D Al 1.0000 0.2500 1.5000
Al2L_2 Al 0.5000 0.2500 1.0000
Al2M_2 Al 0.5000 0.7500 1.0000
Al2E_2 Al 1.0000 0.7500 0.5000
Al2D_2 Al 1.0000 0.2500 0.5000
P1A P 0.87746(8) 0.56464(11) 1.12254(8)
P1B P 0.87746(8) 0.43536(11) 0.87746(8)
P1C P 1.12254(8) 0.56464(11) 0.87746(8)
P1EA P 1.37746(8) 0.62254(8) 1.06464(11)
P1DA P 1.37746(8) 0.37746(8) 0.93536(11)
P1GA P 1.06464(11) 0.62254(8) 1.37746(8)
P1HA P 0.93536(11) 0.37746(8) 1.37746(8)
P1CA P 0.62254(8) 0.37746(8) 1.06464(11)
P1BA P 0.62254(8) 0.62254(8) 0.93536(11)
P1FA P 0.93536(11) 0.62254(8) 0.62254(8)
P1IA P 1.06464(11) 0.37746(8) 0.62254(8)
O1A O 0.8560(2) 0.6487(3) 1.1440(2)
O1B O 0.8560(2) 0.3513(3) 0.8560(2)
O1C O 1.1440(2) 0.6487(3) 0.8560(2)
O1EA O 1.3560(2) 0.6440(2) 1.1487(3)
O1DA O 1.3560(2) 0.3560(2) 0.8513(3)
O1GA O 1.1487(3) 0.6440(2) 1.3560(2)
O1HA O 0.8513(3) 0.3560(2) 1.3560(2)
O1CA O 0.6440(2) 0.3560(2) 1.1487(3)
O1BA O 0.6440(2) 0.6440(2) 0.8513(3)
O1FA O 0.8513(3) 0.6440(2) 0.6440(2)
O1IA O 1.1487(3) 0.3560(2) 0.6440(2)
O2T O 1.0922(2) 0.4831(2) 1.1945(2)
O2A O 0.8055(2) 0.5169(2) 1.0922(2)
O2W O 0.9078(2) 0.5169(2) 1.1945(2)
O2B O 0.8055(2) 0.4831(2) 0.9078(2)
O2V O 0.9078(2) 0.4831(2) 0.8055(2)
O2C O 1.1945(2) 0.5169(2) 0.9078(2)
O2U O 1.0922(2) 0.5169(2) 0.8055(2)
O2OA O 1.3055(2) 0.5922(2) 1.0169(2)
O2EA O 1.4078(2) 0.6945(2) 1.0169(2)
O2PA O 1.3055(2) 0.4078(2) 0.9831(2)
O2DA O 1.4078(2) 0.3055(2) 0.9831(2)
O2GA O 1.0169(2) 0.5922(2) 1.3055(2)
O2MA O 1.0169(2) 0.6945(2) 1.4078(2)
O2HA O 0.9831(2) 0.4078(2) 1.3055(2)
O2LA O 0.9831(2) 0.3055(2) 1.4078(2)
O2QA O 0.6945(2) 0.4078(2) 1.0169(2)
O2CA O 0.5922(2) 0.3055(2) 1.0169(2)
O2NA O 0.6945(2) 0.5922(2) 0.9831(2)
O2BA O 0.5922(2) 0.6945(2) 0.9831(2)
O2FA O 0.9831(2) 0.5922(2) 0.6945(2)
O2JA O 0.9831(2) 0.6945(2) 0.5922(2)
O2IA O 1.0169(2) 0.4078(2) 0.6945(2)
O2KA O 1.0169(2) 0.3055(2) 0.5922(2)
O2M O 1.5169(2) 0.8055(2) 1.0922(2)
O2N O 1.4831(2) 0.8055(2) 0.9078(2)
O2BA_2 O 1.5922(2) 0.6945(2) 0.9831(2)
O2L O 1.4831(2) 0.1945(2) 1.0922(2)
O2O O 1.5169(2) 0.1945(2) 0.9078(2)
O2CA_2 O 1.5922(2) 0.3055(2) 1.0169(2)
O3A O 0.9419(2) 0.5641(3) 1.0581(2)
O3B O 0.9419(2) 0.4359(3) 0.9419(2)
O3C O 1.0581(2) 0.5641(3) 0.9419(2)
O3EA O 1.4419(2) 0.5581(2) 1.0641(3)
O3DA O 1.4419(2) 0.4419(2) 0.9359(3)
O3GA O 1.0641(3) 0.5581(2) 1.4419(2)
O3HA O 0.9359(3) 0.4419(2) 1.4419(2)
O3CA O 0.5581(2) 0.4419(2) 1.0641(3)
O3BA O 0.5581(2) 0.5581(2) 0.9359(3)
O3FA O 0.9359(3) 0.5581(2) 0.5581(2)
O3IA O 1.0641(3) 0.4419(2) 0.5581(2)
O3BA_2 O 1.5581(2) 0.5581(2) 0.9359(3)
O3CA_2 O 1.5581(2) 0.4419(2) 1.0641(3)
O3FA_2 O 0.9359(3) 0.5581(2) 1.5581(2)
O3IA_2 O 1.0641(3) 0.4419(2) 1.5581(2)
loop_
_geom_bond_atom_site_label_1
_geom_bond_atom_site_label_2
_geom_bond_site_symmetry_1
_geom_bond_site_symmetry_2
Al1 O3 1_555 1_555
Al2 O2 1_555 1_555
P1 O1 1_555 1_555
O2 P1 1_555 1_555
O3 P1 1_555 1_555
C2 N2 1_555 1_555
Al1BA O3EA 1_555 1_555
Al1FA O3GA 1_555 1_555
Al1BA_2 O3CA 1_555 1_555
Al1FA_2 O3FA 1_555 1_555
Al2T O2T 1_555 1_555
Al2A O2A 1_555 1_555
Al2U O2V 1_555 1_555
Al2M O2EA 1_555 1_555
Al2L O2DA 1_555 1_555
Al2E O2MA 1_555 1_555
Al2D O2LA 1_555 1_555
Al2L_2 O2CA 1_555 1_555
Al2M_2 O2BA 1_555 1_555
Al2E_2 O2JA 1_555 1_555
Al2D_2 O2KA 1_555 1_555
P1A O1A 1_555 1_555
P1B O1B 1_555 1_555
P1C O1C 1_555 1_555
P1EA O1EA 1_555 1_555
P1DA O1DA 1_555 1_555
P1GA O1GA 1_555 1_555
P1HA O1HA 1_555 1_555
P1CA O1CA 1_555 1_555
P1BA O1BA 1_555 1_555
P1FA O1FA 1_555 1_555
P1IA O1IA 1_555 1_555
O2T P1 1_555 1_555
O2A P1A 1_555 1_555
O2W Al2T 1_555 1_555
O2B Al2A 1_555 1_555
O2V P1B 1_555 1_555
O2C Al2 1_555 1_555
O2U Al2U 1_555 1_555
O2OA Al2 1_555 1_555
O2EA P1EA 1_555 1_555
O2PA Al2 1_555 1_555
O2DA P1DA 1_555 1_555
O2GA Al2T 1_555 1_555
O2MA P1GA 1_555 1_555
O2HA Al2T 1_555 1_555
O2LA P1HA 1_555 1_555
O2QA Al2A 1_555 1_555
O2CA P1CA 1_555 1_555
O2NA Al2A 1_555 1_555
O2BA P1BA 1_555 1_555
O2FA Al2U 1_555 1_555
O2JA P1FA 1_555 1_555
O2IA Al2U 1_555 1_555
O2KA P1IA 1_555 1_555
O2M Al2M 1_555 1_555
O2N Al2M 1_555 1_555
O2BA_2 Al2M 1_555 1_555
O2L Al2L 1_555 1_555
O2O Al2L 1_555 1_555
O2CA_2 Al2L 1_555 1_555
O3A Al1 1_555 1_555
O3B Al1 1_555 1_555
O3C Al1 1_555 1_555
O3EA P1EA 1_555 1_555
O3DA Al1BA 1_555 1_555
O3GA P1GA 1_555 1_555
O3HA Al1FA 1_555 1_555
O3CA P1CA 1_555 1_555
O3BA Al1BA_2 1_555 1_555
O3FA P1FA 1_555 1_555
O3IA Al1FA_2 1_555 1_555
O3BA_2 Al1BA 1_555 1_555
O3CA_2 Al1BA 1_555 1_555
O3FA_2 Al1FA 1_555 1_555
O3IA_2 Al1FA 1_555 1_555
P1A O2W 1_555 1_555
P1A O3A 1_555 1_555
P1B O2B 1_555 1_555
P1B O3B 1_555 1_555
P1C O2C 1_555 1_555
P1C O2U 1_555 1_555
P1C O3C 1_555 1_555
P1EA O2OA 1_555 1_555
P1DA O2PA 1_555 1_555
P1DA O3DA 1_555 1_555
P1GA O2GA 1_555 1_555
P1HA O2HA 1_555 1_555
P1HA O3HA 1_555 1_555
P1CA O2QA 1_555 1_555
P1BA O2NA 1_555 1_555
P1BA O3BA 1_555 1_555
P1FA O2FA 1_555 1_555
P1IA O2IA 1_555 1_555
P1IA O3IA 1_555 1_555

#END
