
#######################################################################
#
#                 Cambridge Crystallographic Data Centre
#                                CCDC 
#
#######################################################################
#
# If this CIF has been generated from an entry in the Cambridge 
# Structural Database, then it will include bibliographic, chemical, 
# crystal, experimental, refinement or atomic coordinate data resulting 
# from the CCDC's data processing and validation procedures.
#
#######################################################################

data_REBROG
_chemical_formula_moiety         '(C1 H6 Al18 N2 O99 P24 8-)n'
_symmetry_cell_setting           cubic
_symmetry_space_group_name_H-M   'I -4 3 m'
_symmetry_Int_Tables_number      217
_space_group_name_Hall           'I -4 2 3'
loop_
_symmetry_equiv_pos_site_id
_symmetry_equiv_pos_as_xyz
1 x,y,z
2 -x,-y,z
3 -x,y,-z
4 x,-y,-z
5 z,x,y
6 z,-x,-y
7 -z,-x,y
8 -z,x,-y
9 y,z,x
10 -y,z,-x
11 y,-z,-x
12 -y,-z,x
13 y,x,z
14 -y,-x,z
15 y,-x,-z
16 -y,x,-z
17 x,z,y
18 -x,z,-y
19 -x,-z,y
20 x,-z,-y
21 z,y,x
22 z,-y,-x
23 -z,y,-x
24 -z,-y,x
25 1/2+x,1/2+y,1/2+z
26 1/2-x,1/2-y,1/2+z
27 1/2-x,1/2+y,1/2-z
28 1/2+x,1/2-y,1/2-z
29 1/2+z,1/2+x,1/2+y
30 1/2+z,1/2-x,1/2-y
31 1/2-z,1/2-x,1/2+y
32 1/2-z,1/2+x,1/2-y
33 1/2+y,1/2+z,1/2+x
34 1/2-y,1/2+z,1/2-x
35 1/2+y,1/2-z,1/2-x
36 1/2-y,1/2-z,1/2+x
37 1/2+y,1/2+x,1/2+z
38 1/2-y,1/2-x,1/2+z
39 1/2+y,1/2-x,1/2-z
40 1/2-y,1/2+x,1/2-z
41 1/2+x,1/2+z,1/2+y
42 1/2-x,1/2+z,1/2-y
43 1/2-x,1/2-z,1/2+y
44 1/2+x,1/2-z,1/2-y
45 1/2+z,1/2+y,1/2+x
46 1/2+z,1/2-y,1/2-x
47 1/2-z,1/2+y,1/2-x
48 1/2-z,1/2-y,1/2+x
_cell_length_a                   16.7824(3)
_cell_length_b                   16.7824(3)
_cell_length_c                   16.7824(3)
_cell_angle_alpha                90
_cell_angle_beta                 90
_cell_angle_gamma                90
_cell_volume                     4726.75
loop_
_atom_site_label
_atom_site_type_symbol
_atom_site_fract_x
_atom_site_fract_y
_atom_site_fract_z
N1 N 0.2035(3) 0.7965(3) 0.2035(3)
C2 C -0.1703(4) 0.6454(3) 0.3546(3)
N2 N -0.1202(2) 0.6973(3) 0.3027(2)
O4 O 0.0000 1.0000 0.0000
O5 O -0.0860(16) 0.9140(16) 0.0860(16)
O6 O 0.7668(11) 0.9472(13) 0.0528(13)
Al1 Al 0.0000 0.5000 0.5000
Al2 Al 0.0000 0.5000 0.2500
P1 P 0.07057(7) 0.62188(5) 0.37812(5)
O1 O 0.1569(3) 0.6408(2) 0.3592(2)
O2 O 0.02625(19) 0.59235(18) 0.30515(17)
O3 O 0.0672(3) 0.55688(17) 0.44312(17)
Al1BA Al 0.0000 0.5000 0.0000
Al1FA Al 0.0000 1.0000 0.5000
Al1FA_2 Al 0.0000 0.0000 0.5000
Al1BA_2 Al 0.0000 0.5000 1.0000
Al1H Al 0.5000 0.5000 0.0000
Al1H_2 Al -0.5000 0.5000 0.0000
Al2R Al 0.0000 0.7500 0.5000
Al2P Al 0.0000 0.2500 0.5000
Al2B Al 0.0000 0.5000 0.7500
Al2T Al 0.2500 0.5000 0.0000
Al2V Al -0.2500 0.5000 0.0000
Al2D Al 0.2500 1.0000 0.5000
Al2F Al -0.2500 1.0000 0.5000
Al2F_2 Al -0.2500 0.0000 0.5000
Al2D_2 Al 0.2500 0.0000 0.5000
Al2V_2 Al -0.2500 0.5000 1.0000
Al2T_2 Al 0.2500 0.5000 1.0000
Al2B_2 Al 0.0000 0.5000 -0.2500
Al2P_2 Al 0.0000 1.2500 0.5000
Al2R_2 Al -0.0000 -0.2500 0.5000
Al2_2 Al 0.0000 0.5000 1.2500
Al2H Al 0.5000 0.2500 0.0000
Al2J Al 0.5000 0.7500 0.0000
Al2J_2 Al -0.5000 0.7500 0.0000
Al2H_2 Al -0.5000 0.2500 0.0000
P1A P -0.07057(7) 0.37812(5) 0.37812(5)
P1B P -0.07057(7) 0.62188(5) 0.62188(5)
P1C P 0.07057(7) 0.37812(5) 0.62188(5)
P1DA P 0.12188(5) 0.42943(7) 0.12188(5)
P1BA P -0.12188(5) 0.57057(7) 0.12188(5)
P1FA P 0.12188(5) 0.87812(5) 0.57057(7)
P1GA P -0.12188(5) 0.87812(5) 0.42943(7)
P1IA P -0.12188(5) 0.12188(5) 0.57057(7)
P1HA P 0.12188(5) 0.12188(5) 0.42943(7)
P1CA P -0.12188(5) 0.42943(7) 0.87812(5)
P1EA P 0.12188(5) 0.57057(7) 0.87812(5)
P1EA_2 P 0.12188(5) 0.57057(7) -0.12188(5)
P1CA_2 P -0.12188(5) 0.42943(7) -0.12188(5)
P1HA_2 P 0.12188(5) 1.12188(5) 0.42943(7)
P1IA_2 P -0.12188(5) 1.12188(5) 0.57057(7)
P1GA_2 P -0.12188(5) -0.12188(5) 0.42943(7)
P1FA_2 P 0.12188(5) -0.12188(5) 0.57057(7)
P1BA_2 P -0.12188(5) 0.57057(7) 1.12188(5)
P1DA_2 P 0.12188(5) 0.42943(7) 1.12188(5)
P1I P 0.37812(5) 0.37812(5) -0.07057(7)
P1K P 0.37812(5) 0.62188(5) 0.07057(7)
P1J P -0.37812(5) 0.62188(5) -0.07057(7)
P1H P -0.37812(5) 0.37812(5) 0.07057(7)
O1A O -0.1569(3) 0.3592(2) 0.3592(2)
O1B O -0.1569(3) 0.6408(2) 0.6408(2)
O1C O 0.1569(3) 0.3592(2) 0.6408(2)
O1DA O 0.1408(2) 0.3431(3) 0.1408(2)
O1BA O -0.1408(2) 0.6569(3) 0.1408(2)
O1FA O 0.1408(2) 0.8592(2) 0.6569(3)
O1GA O -0.1408(2) 0.8592(2) 0.3431(3)
O1IA O -0.1408(2) 0.1408(2) 0.6569(3)
O1HA O 0.1408(2) 0.1408(2) 0.3431(3)
O1CA O -0.1408(2) 0.3431(3) 0.8592(2)
O1EA O 0.1408(2) 0.6569(3) 0.8592(2)
O1EA_2 O 0.1408(2) 0.6569(3) -0.1408(2)
O1CA_2 O -0.1408(2) 0.3431(3) -0.1408(2)
O1HA_2 O 0.1408(2) 1.1408(2) 0.3431(3)
O1IA_2 O -0.1408(2) 1.1408(2) 0.6569(3)
O1GA_2 O -0.1408(2) -0.1408(2) 0.3431(3)
O1FA_2 O 0.1408(2) -0.1408(2) 0.6569(3)
O1BA_2 O -0.1408(2) 0.6569(3) 1.1408(2)
O1DA_2 O 0.1408(2) 0.3431(3) 1.1408(2)
O1I O 0.3592(2) 0.3592(2) -0.1569(3)
O1K O 0.3592(2) 0.6408(2) 0.1569(3)
O1J O -0.3592(2) 0.6408(2) -0.1569(3)
O1H O -0.3592(2) 0.3592(2) 0.1569(3)
O2S O 0.02625(19) 0.69485(17) 0.40765(18)
O2A O -0.02625(19) 0.40765(18) 0.30515(17)
O2Q O -0.02625(19) 0.30515(17) 0.40765(18)
O2B O -0.02625(19) 0.59235(18) 0.69485(17)
O2R O -0.02625(19) 0.69485(17) 0.59235(18)
O2C O 0.02625(19) 0.40765(18) 0.69485(17)
O2P O 0.02625(19) 0.30515(17) 0.59235(18)
O2LA O 0.09235(18) 0.47375(19) 0.19485(17)
O2DA O 0.19485(17) 0.47375(19) 0.09235(18)
O2MA O -0.09235(18) 0.52625(19) 0.19485(17)
O2BA O -0.19485(17) 0.52625(19) 0.09235(18)
O2FA O 0.09235(18) 0.80515(17) 0.52625(19)
O2UA O 0.19485(17) 0.90765(18) 0.52625(19)
O2GA O -0.09235(18) 0.80515(17) 0.47375(19)
O2SA O -0.19485(17) 0.90765(18) 0.47375(19)
O2IA O -0.09235(18) 0.19485(17) 0.52625(19)
O2RA O -0.19485(17) 0.09235(18) 0.52625(19)
O2HA O 0.09235(18) 0.19485(17) 0.47375(19)
O2TA O 0.19485(17) 0.09235(18) 0.47375(19)
O2KA O -0.09235(18) 0.47375(19) 0.80515(17)
O2CA O -0.19485(17) 0.47375(19) 0.90765(18)
O2JA O 0.09235(18) 0.52625(19) 0.80515(17)
O2EA O 0.19485(17) 0.52625(19) 0.90765(18)
O2JA_2 O 0.09235(18) 0.52625(19) -0.19485(17)
O2EA_2 O 0.19485(17) 0.52625(19) -0.09235(18)
O2KA_2 O -0.09235(18) 0.47375(19) -0.19485(17)
O2CA_2 O -0.19485(17) 0.47375(19) -0.09235(18)
O2HA_2 O 0.09235(18) 1.19485(17) 0.47375(19)
O2TA_2 O 0.19485(17) 1.09235(18) 0.47375(19)
O2IA_2 O -0.09235(18) 1.19485(17) 0.52625(19)
O2RA_2 O -0.19485(17) 1.09235(18) 0.52625(19)
O2GA_2 O -0.09235(18) -0.19485(17) 0.47375(19)
O2SA_2 O -0.19485(17) -0.09235(18) 0.47375(19)
O2FA_2 O 0.09235(18) -0.19485(17) 0.52625(19)
O2UA_2 O 0.19485(17) -0.09235(18) 0.52625(19)
O2MA_2 O -0.09235(18) 0.52625(19) 1.19485(17)
O2BA_2 O -0.19485(17) 0.52625(19) 1.09235(18)
O2LA_2 O 0.09235(18) 0.47375(19) 1.19485(17)
O2DA_2 O 0.19485(17) 0.47375(19) 1.09235(18)
O2U O 0.30515(17) 0.40765(18) -0.02625(19)
O2I O 0.40765(18) 0.30515(17) -0.02625(19)
O2T O 0.30515(17) 0.59235(18) 0.02625(19)
O2K O 0.40765(18) 0.69485(17) 0.02625(19)
O2V O -0.30515(17) 0.59235(18) -0.02625(19)
O2J O -0.40765(18) 0.69485(17) -0.02625(19)
O2W O -0.30515(17) 0.40765(18) 0.02625(19)
O2H O -0.40765(18) 0.30515(17) 0.02625(19)
O2D O 0.30515(17) 1.02625(19) 0.59235(18)
O2E O 0.30515(17) 0.97375(19) 0.40765(18)
O2F O -0.30515(17) 0.97375(19) 0.59235(18)
O2G O -0.30515(17) 1.02625(19) 0.40765(18)
O2F_2 O -0.30515(17) -0.02625(19) 0.59235(18)
O2G_2 O -0.30515(17) 0.02625(19) 0.40765(18)
O2D_2 O 0.30515(17) 0.02625(19) 0.59235(18)
O2E_2 O 0.30515(17) -0.02625(19) 0.40765(18)
O2V_2 O -0.30515(17) 0.59235(18) 0.97375(19)
O2W_2 O -0.30515(17) 0.40765(18) 1.02625(19)
O2T_2 O 0.30515(17) 0.59235(18) 1.02625(19)
O2U_2 O 0.30515(17) 0.40765(18) 0.97375(19)
O3A O -0.0672(3) 0.44312(17) 0.44312(17)
O3B O -0.0672(3) 0.55688(17) 0.55688(17)
O3C O 0.0672(3) 0.44312(17) 0.55688(17)
O3DA O 0.05688(17) 0.4328(3) 0.05688(17)
O3BA O -0.05688(17) 0.5672(3) 0.05688(17)
O3FA O 0.05688(17) 0.94312(17) 0.5672(3)
O3GA O -0.05688(17) 0.94312(17) 0.4328(3)
O3IA O -0.05688(17) 0.05688(17) 0.5672(3)
O3HA O 0.05688(17) 0.05688(17) 0.4328(3)
O3CA O -0.05688(17) 0.4328(3) 0.94312(17)
O3EA O 0.05688(17) 0.5672(3) 0.94312(17)
O3EA_2 O 0.05688(17) 0.5672(3) -0.05688(17)
O3CA_2 O -0.05688(17) 0.4328(3) -0.05688(17)
O3HA_2 O 0.05688(17) 1.05688(17) 0.4328(3)
O3IA_2 O -0.05688(17) 1.05688(17) 0.5672(3)
O3GA_2 O -0.05688(17) -0.05688(17) 0.4328(3)
O3FA_2 O 0.05688(17) -0.05688(17) 0.5672(3)
O3BA_2 O -0.05688(17) 0.5672(3) 1.05688(17)
O3DA_2 O 0.05688(17) 0.4328(3) 1.05688(17)
O3I O 0.44312(17) 0.44312(17) -0.0672(3)
O3K O 0.44312(17) 0.55688(17) 0.0672(3)
O3J O -0.44312(17) 0.55688(17) -0.0672(3)
O3H O -0.44312(17) 0.44312(17) 0.0672(3)
O3H_2 O 0.55688(17) 0.44312(17) 0.0672(3)
O3J_2 O 0.55688(17) 0.55688(17) -0.0672(3)
loop_
_geom_bond_atom_site_label_1
_geom_bond_atom_site_label_2
_geom_bond_site_symmetry_1
_geom_bond_site_symmetry_2
Al1 O3 1_555 1_555
Al2 O2 1_555 1_555
P1 O1 1_555 1_555
O2 P1 1_555 1_555
O3 P1 1_555 1_555
C2 N2 1_555 1_555
Al1BA O3DA 1_555 1_555
Al1FA O3FA 1_555 1_555
Al1FA_2 O3IA 1_555 1_555
Al1BA_2 O3CA 1_555 1_555
Al1H O3I 1_555 1_555
Al1H_2 O3J 1_555 1_555
Al2R O2S 1_555 1_555
Al2P O2Q 1_555 1_555
Al2B O2B 1_555 1_555
Al2T O2DA 1_555 1_555
Al2V O2BA 1_555 1_555
Al2D O2UA 1_555 1_555
Al2F O2SA 1_555 1_555
Al2F_2 O2RA 1_555 1_555
Al2D_2 O2TA 1_555 1_555
Al2V_2 O2CA 1_555 1_555
Al2T_2 O2EA 1_555 1_555
Al2B_2 O2JA_2 1_555 1_555
Al2P_2 O2HA_2 1_555 1_555
Al2R_2 O2GA_2 1_555 1_555
Al2_2 O2MA_2 1_555 1_555
Al2H O2I 1_555 1_555
Al2J O2K 1_555 1_555
Al2J_2 O2J 1_555 1_555
Al2H_2 O2H 1_555 1_555
P1A O1A 1_555 1_555
P1B O1B 1_555 1_555
P1C O1C 1_555 1_555
P1DA O1DA 1_555 1_555
P1BA O1BA 1_555 1_555
P1FA O1FA 1_555 1_555
P1GA O1GA 1_555 1_555
P1IA O1IA 1_555 1_555
P1HA O1HA 1_555 1_555
P1CA O1CA 1_555 1_555
P1EA O1EA 1_555 1_555
P1EA_2 O1EA_2 1_555 1_555
P1CA_2 O1CA_2 1_555 1_555
P1HA_2 O1HA_2 1_555 1_555
P1IA_2 O1IA_2 1_555 1_555
P1GA_2 O1GA_2 1_555 1_555
P1FA_2 O1FA_2 1_555 1_555
P1BA_2 O1BA_2 1_555 1_555
P1DA_2 O1DA_2 1_555 1_555
P1I O1I 1_555 1_555
P1K O1K 1_555 1_555
P1J O1J 1_555 1_555
P1H O1H 1_555 1_555
O2S P1 1_555 1_555
O2A Al2 1_555 1_555
O2Q P1A 1_555 1_555
O2B P1B 1_555 1_555
O2R Al2R 1_555 1_555
O2C Al2B 1_555 1_555
O2P Al2P 1_555 1_555
O2LA Al2 1_555 1_555
O2DA P1DA 1_555 1_555
O2MA Al2 1_555 1_555
O2BA P1BA 1_555 1_555
O2FA Al2R 1_555 1_555
O2UA P1FA 1_555 1_555
O2GA Al2R 1_555 1_555
O2SA P1GA 1_555 1_555
O2IA Al2P 1_555 1_555
O2RA P1IA 1_555 1_555
O2HA Al2P 1_555 1_555
O2TA P1HA 1_555 1_555
O2KA Al2B 1_555 1_555
O2CA P1CA 1_555 1_555
O2JA Al2B 1_555 1_555
O2EA P1EA 1_555 1_555
O2JA_2 P1EA_2 1_555 1_555
O2EA_2 Al2T 1_555 1_555
O2KA_2 Al2B_2 1_555 1_555
O2CA_2 Al2V 1_555 1_555
O2HA_2 P1HA_2 1_555 1_555
O2TA_2 Al2D 1_555 1_555
O2IA_2 Al2P_2 1_555 1_555
O2RA_2 Al2F 1_555 1_555
O2GA_2 P1GA_2 1_555 1_555
O2SA_2 Al2F_2 1_555 1_555
O2FA_2 Al2R_2 1_555 1_555
O2UA_2 Al2D_2 1_555 1_555
O2MA_2 P1BA_2 1_555 1_555
O2BA_2 Al2V_2 1_555 1_555
O2LA_2 Al2_2 1_555 1_555
O2DA_2 Al2T_2 1_555 1_555
O2U Al2T 1_555 1_555
O2I P1I 1_555 1_555
O2T Al2T 1_555 1_555
O2K P1K 1_555 1_555
O2V Al2V 1_555 1_555
O2J P1J 1_555 1_555
O2W Al2V 1_555 1_555
O2H P1H 1_555 1_555
O2D Al2D 1_555 1_555
O2E Al2D 1_555 1_555
O2F Al2F 1_555 1_555
O2G Al2F 1_555 1_555
O2F_2 Al2F_2 1_555 1_555
O2G_2 Al2F_2 1_555 1_555
O2D_2 Al2D_2 1_555 1_555
O2E_2 Al2D_2 1_555 1_555
O2V_2 Al2V_2 1_555 1_555
O2W_2 Al2V_2 1_555 1_555
O2T_2 Al2T_2 1_555 1_555
O2U_2 Al2T_2 1_555 1_555
O3A Al1 1_555 1_555
O3B Al1 1_555 1_555
O3C Al1 1_555 1_555
O3DA P1DA 1_555 1_555
O3BA Al1BA 1_555 1_555
O3FA P1FA 1_555 1_555
O3GA Al1FA 1_555 1_555
O3IA P1IA 1_555 1_555
O3HA Al1FA_2 1_555 1_555
O3CA P1CA 1_555 1_555
O3EA Al1BA_2 1_555 1_555
O3EA_2 Al1BA 1_555 1_555
O3CA_2 Al1BA 1_555 1_555
O3HA_2 Al1FA 1_555 1_555
O3IA_2 Al1FA 1_555 1_555
O3GA_2 Al1FA_2 1_555 1_555
O3FA_2 Al1FA_2 1_555 1_555
O3BA_2 Al1BA_2 1_555 1_555
O3DA_2 Al1BA_2 1_555 1_555
O3I P1I 1_555 1_555
O3K Al1H 1_555 1_555
O3J P1J 1_555 1_555
O3H Al1H_2 1_555 1_555
O3H_2 Al1H 1_555 1_555
O3J_2 Al1H 1_555 1_555
P1A O2A 1_555 1_555
P1A O3A 1_555 1_555
P1B O2R 1_555 1_555
P1B O3B 1_555 1_555
P1C O2C 1_555 1_555
P1C O2P 1_555 1_555
P1C O3C 1_555 1_555
P1DA O2LA 1_555 1_555
P1BA O2MA 1_555 1_555
P1BA O3BA 1_555 1_555
P1FA O2FA 1_555 1_555
P1GA O2GA 1_555 1_555
P1GA O3GA 1_555 1_555
P1IA O2IA 1_555 1_555
P1HA O2HA 1_555 1_555
P1HA O3HA 1_555 1_555
P1CA O2KA 1_555 1_555
P1EA O2JA 1_555 1_555
P1EA O3EA 1_555 1_555
P1EA_2 O2EA_2 1_555 1_555
P1EA_2 O3EA_2 1_555 1_555
P1CA_2 O2KA_2 1_555 1_555
P1CA_2 O2CA_2 1_555 1_555
P1CA_2 O3CA_2 1_555 1_555
P1HA_2 O2TA_2 1_555 1_555
P1HA_2 O3HA_2 1_555 1_555
P1IA_2 O2IA_2 1_555 1_555
P1IA_2 O2RA_2 1_555 1_555
P1IA_2 O3IA_2 1_555 1_555
P1GA_2 O2SA_2 1_555 1_555
P1GA_2 O3GA_2 1_555 1_555
P1FA_2 O2FA_2 1_555 1_555
P1FA_2 O2UA_2 1_555 1_555
P1FA_2 O3FA_2 1_555 1_555
P1BA_2 O2BA_2 1_555 1_555
P1BA_2 O3BA_2 1_555 1_555
P1DA_2 O2LA_2 1_555 1_555
P1DA_2 O2DA_2 1_555 1_555
P1DA_2 O3DA_2 1_555 1_555
P1I O2U 1_555 1_555
P1K O2T 1_555 1_555
P1K O3K 1_555 1_555
P1J O2V 1_555 1_555
P1H O2W 1_555 1_555
P1H O3H 1_555 1_555

#END
