
#######################################################################
#
#                 Cambridge Crystallographic Data Centre
#                                CCDC 
#
#######################################################################
#
# If this CIF has been generated from an entry in the Cambridge 
# Structural Database, then it will include bibliographic, chemical, 
# crystal, experimental, refinement or atomic coordinate data resulting 
# from the CCDC's data processing and validation procedures.
#
#######################################################################

data_EPISOM
_chemical_formula_moiety         '(C57 H36 Cu4 O20)n'
_symmetry_cell_setting           tetragonal
_symmetry_space_group_name_H-M   'P 4/n c c'
_symmetry_Int_Tables_number      130
_space_group_name_Hall           '-P 4a 2ac'
loop_
_symmetry_equiv_pos_site_id
_symmetry_equiv_pos_as_xyz
1 x,y,z
2 1/2-x,1/2-y,z
3 1/2-y,x,z
4 y,1/2-x,z
5 -x,1/2+y,1/2-z
6 1/2+x,-y,1/2-z
7 1/2+y,1/2+x,1/2-z
8 -y,-x,1/2-z
9 -x,-y,-z
10 1/2+x,1/2+y,-z
11 1/2+y,-x,-z
12 -y,1/2+x,-z
13 x,1/2-y,1/2+z
14 1/2-x,y,1/2+z
15 1/2-y,1/2-x,1/2+z
16 y,x,1/2+z
_cell_length_a                   18.900(3)
_cell_length_b                   18.900(3)
_cell_length_c                   33.561(7)
_cell_angle_alpha                90
_cell_angle_beta                 90
_cell_angle_gamma                90
_cell_volume                     11988.3
loop_
_atom_site_label
_atom_site_type_symbol
_atom_site_fract_x
_atom_site_fract_y
_atom_site_fract_z
_atom_site_U_iso_or_equiv
_atom_site_thermal_displace_type
Cu1 Cu 0.04988(3) 0.48508(2) 0.219622(15) 0.0338 Uani
C1 C 0.2500 0.7500 0.0000 0.0417 Uani
O1 O 0.05577(16) 0.58454(15) 0.20193(8) 0.0440 Uani
O2 O -0.00547(14) 0.63711(15) 0.25159(9) 0.0410 Uani
C2 C 0.1886(3) 0.7616(3) 0.02890(14) 0.0450 Uani
C3 C 0.1863(2) 0.8233(2) 0.05244(14) 0.0437 Uani
H1 H 0.2146 0.8618 0.0456 0.0520 Uiso
O3 O -0.02585(14) 0.89934(15) 0.24876(9) 0.0447 Uani
C4 C 0.1430(3) 0.8279(2) 0.08543(14) 0.0483 Uani
H2 H 0.1414 0.8700 0.0997 0.0580 Uiso
O4 O 0.02024(16) 0.95738(14) 0.19561(8) 0.0463 Uani
O5 O 0.09571(15) 0.43230(15) 0.16920(9) 0.0540 Uani
C5 C 0.1013(3) 0.7706(3) 0.09799(14) 0.0493 Uani
C6 C 0.0994(2) 0.7109(3) 0.07296(14) 0.0470 Uani
H3 H 0.0689 0.6737 0.0790 0.0570 Uiso
C7 C 0.1421(3) 0.7065(3) 0.03951(15) 0.0507 Uani
H4 H 0.1399 0.6662 0.0237 0.0610 Uiso
C8 C 0.0660(3) 0.7714(2) 0.13707(14) 0.0440 Uani
C9 C 0.0458(2) 0.8327(2) 0.15591(15) 0.0477 Uani
H5 H 0.0505 0.8754 0.1425 0.0570 Uiso
C10 C 0.0183(2) 0.8331(2) 0.19437(14) 0.0370 Uani
C11 C 0.0104(3) 0.7692(2) 0.21349(14) 0.0400 Uani
H6 H -0.0096 0.7689 0.2388 0.0480 Uiso
C12 C 0.0307(2) 0.7051(2) 0.19661(14) 0.0417 Uani
C13 C 0.0586(2) 0.7072(2) 0.15777(15) 0.0490 Uani
H7 H 0.0723 0.6652 0.1455 0.0590 Uiso
C14 C 0.0019(2) 0.9007(2) 0.21502(18) 0.0460 Uani
C15 C 0.0267(2) 0.6372(2) 0.21828(17) 0.0393 Uani
Cu1A Cu 0.45012(3) 1.01492(2) 0.219622(15) 0.0338 Uani
Cu1K Cu 0.51492(2) 0.54988(3) -0.219622(15) 0.0338 Uani
Cu1J Cu -0.01492(2) 0.95012(3) -0.219622(15) 0.0338 Uani
Cu1F Cu -0.01492(2) 0.54988(3) 0.280378(15) 0.0338 Uani
Cu1D Cu -0.04988(3) 0.98508(2) 0.280378(15) 0.0338 Uani
Cu1B Cu 0.01492(2) 1.04988(3) 0.219622(15) 0.0338 Uani
Cu1E Cu 0.54988(3) 0.51492(2) 0.280378(15) 0.0338 Uani
Cu1C Cu 0.48508(2) 0.45012(3) 0.219622(15) 0.0338 Uani
Cu1G Cu 0.51492(2) 0.95012(3) 0.280378(15) 0.0338 Uani
Cu1N Cu 0.01492(2) 0.45012(3) -0.280378(15) 0.0338 Uani
Cu1H Cu -0.04988(3) 0.51492(2) -0.219622(15) 0.0338 Uani
Cu1M Cu 0.45012(3) 0.48508(2) -0.280378(15) 0.0338 Uani
Cu1O Cu 0.48508(2) 1.04988(3) -0.280378(15) 0.0338 Uani
Cu1I Cu 0.54988(3) 0.98508(2) -0.219622(15) 0.0338 Uani
Cu1L Cu 0.04988(3) 1.01492(2) -0.280378(15) 0.0338 Uani
O1A O 0.44423(16) 0.91546(15) 0.20193(8) 0.0440 Uani
O1K O 0.41546(15) 0.55577(16) -0.20193(8) 0.0440 Uani
O1J O 0.08454(15) 0.94423(16) -0.20193(8) 0.0440 Uani
O1F O 0.08454(15) 0.55577(16) 0.29807(8) 0.0440 Uani
O1D O -0.05577(16) 1.08454(15) 0.29807(8) 0.0440 Uani
O1G O 0.41546(15) 0.94423(16) 0.29807(8) 0.0440 Uani
O2A O 0.50547(14) 0.86289(15) 0.25159(9) 0.0410 Uani
O2K O 0.36289(15) 0.49453(14) -0.25159(9) 0.0410 Uani
O2J O 0.13711(15) 1.00547(14) -0.25159(9) 0.0410 Uani
O2F O 0.13711(15) 0.49453(14) 0.24841(9) 0.0410 Uani
O2B O -0.13711(15) 0.99453(14) 0.25159(9) 0.0410 Uani
C2A C 0.3114(3) 0.7384(3) 0.02890(14) 0.0450 Uani
C2K C 0.2384(3) 0.6886(3) -0.02890(14) 0.0450 Uani
C2J C 0.2616(3) 0.8114(3) -0.02890(14) 0.0450 Uani
C3A C 0.3137(2) 0.6767(2) 0.05244(14) 0.0437 Uani
C3K C 0.1767(2) 0.6863(2) -0.05244(14) 0.0437 Uani
C3J C 0.3233(2) 0.8137(2) -0.05244(14) 0.0437 Uani
H1A H 0.2854 0.6382 0.0456 0.0520 Uiso
H1K H 0.1382 0.7146 -0.0456 0.0520 Uiso
H1J H 0.3618 0.7854 -0.0456 0.0520 Uiso
O3A O 0.52585(14) 0.60066(15) 0.24876(9) 0.0447 Uani
O3K O 0.10066(15) 0.47415(14) -0.24876(9) 0.0447 Uani
O3J O 0.39934(15) 1.02585(14) -0.24876(9) 0.0447 Uani
O3D O 0.02585(14) 0.39934(15) 0.25124(9) 0.0447 Uani
O3C O -0.10066(15) 0.52585(14) 0.24876(9) 0.0447 Uani
O3B O 0.60066(15) 0.97415(14) 0.24876(9) 0.0447 Uani
C4A C 0.3570(3) 0.6721(2) 0.08543(14) 0.0483 Uani
C4K C 0.1721(2) 0.6430(3) -0.08543(14) 0.0483 Uani
C4J C 0.3279(2) 0.8570(3) -0.08543(14) 0.0483 Uani
H2A H 0.3586 0.6300 0.0997 0.0580 Uiso
H2K H 0.1300 0.6414 -0.0997 0.0580 Uiso
H2J H 0.3700 0.8586 -0.0997 0.0580 Uiso
O4A O 0.47976(16) 0.54262(14) 0.19561(8) 0.0463 Uani
O4K O 0.04262(14) 0.52024(16) -0.19561(8) 0.0463 Uani
O4J O 0.45738(14) 0.97976(16) -0.19561(8) 0.0463 Uani
O4C O -0.04262(14) 0.47976(16) 0.19561(8) 0.0463 Uani
O4D O -0.02024(16) 0.45738(14) 0.30439(8) 0.0463 Uani
O4G O 0.04262(14) 0.97976(16) 0.30439(8) 0.0463 Uani
O4E O 0.52024(16) 1.04262(14) 0.30439(8) 0.0463 Uani
O5F O -0.06770(15) 0.59571(15) 0.33080(9) 0.0540 Uani
O5D O -0.09571(15) 0.93230(15) 0.33080(9) 0.0540 Uani
O5G O 0.56770(15) 0.90429(15) 0.33080(9) 0.0540 Uani
C5A C 0.3987(3) 0.7294(3) 0.09799(14) 0.0493 Uani
C5K C 0.2294(3) 0.6013(3) -0.09799(14) 0.0493 Uani
C5J C 0.2706(3) 0.8987(3) -0.09799(14) 0.0493 Uani
C6A C 0.4006(2) 0.7891(3) 0.07296(14) 0.0470 Uani
C6K C 0.2891(3) 0.5994(2) -0.07296(14) 0.0470 Uani
C6J C 0.2109(3) 0.9006(2) -0.07296(14) 0.0470 Uani
H3A H 0.4311 0.8263 0.0790 0.0570 Uiso
H3K H 0.3263 0.5689 -0.0790 0.0570 Uiso
H3J H 0.1737 0.9311 -0.0790 0.0570 Uiso
C7A C 0.3579(3) 0.7935(3) 0.03951(15) 0.0507 Uani
C7K C 0.2935(3) 0.6421(3) -0.03951(15) 0.0507 Uani
C7J C 0.2065(3) 0.8579(3) -0.03951(15) 0.0507 Uani
H4A H 0.3601 0.8338 0.0237 0.0610 Uiso
H4K H 0.3338 0.6399 -0.0237 0.0610 Uiso
H4J H 0.1662 0.8601 -0.0237 0.0610 Uiso
C8A C 0.4340(3) 0.7286(2) 0.13707(14) 0.0440 Uani
C8K C 0.2286(2) 0.5660(3) -0.13707(14) 0.0440 Uani
C8J C 0.2714(2) 0.9340(3) -0.13707(14) 0.0440 Uani
C9A C 0.4542(2) 0.6673(2) 0.15591(15) 0.0477 Uani
C9K C 0.1673(2) 0.5458(2) -0.15591(15) 0.0477 Uani
C9J C 0.3327(2) 0.9542(2) -0.15591(15) 0.0477 Uani
H5A H 0.4495 0.6246 0.1425 0.0570 Uiso
H5K H 0.1246 0.5505 -0.1425 0.0570 Uiso
H5J H 0.3754 0.9495 -0.1425 0.0570 Uiso
C10A C 0.4817(2) 0.6669(2) 0.19437(14) 0.0370 Uani
C10K C 0.1669(2) 0.5183(2) -0.19437(14) 0.0370 Uani
C10J C 0.3331(2) 0.9817(2) -0.19437(14) 0.0370 Uani
C11A C 0.4896(3) 0.7308(2) 0.21349(14) 0.0400 Uani
C11K C 0.2308(2) 0.5104(3) -0.21349(14) 0.0400 Uani
C11J C 0.2692(2) 0.9896(3) -0.21349(14) 0.0400 Uani
H6A H 0.5096 0.7311 0.2388 0.0480 Uiso
H6K H 0.2311 0.4904 -0.2388 0.0480 Uiso
H6J H 0.2689 1.0096 -0.2388 0.0480 Uiso
C12A C 0.4693(2) 0.7949(2) 0.19661(14) 0.0417 Uani
C12K C 0.2949(2) 0.5307(2) -0.19661(14) 0.0417 Uani
C12J C 0.2051(2) 0.9693(2) -0.19661(14) 0.0417 Uani
C13A C 0.4414(2) 0.7928(2) 0.15777(15) 0.0490 Uani
C13K C 0.2928(2) 0.5586(2) -0.15777(15) 0.0490 Uani
C13J C 0.2072(2) 0.9414(2) -0.15777(15) 0.0490 Uani
H7A H 0.4277 0.8348 0.1455 0.0590 Uiso
H7K H 0.3348 0.5723 -0.1455 0.0590 Uiso
H7J H 0.1652 0.9277 -0.1455 0.0590 Uiso
C14A C 0.4981(2) 0.5993(2) 0.21502(18) 0.0460 Uani
C14K C 0.0993(2) 0.5019(2) -0.21502(18) 0.0460 Uani
C14J C 0.4007(2) 0.9981(2) -0.21502(18) 0.0460 Uani
C15A C 0.4733(2) 0.8628(2) 0.21828(17) 0.0393 Uani
C15K C 0.3628(2) 0.5267(2) -0.21828(17) 0.0393 Uani
C15J C 0.1372(2) 0.9733(2) -0.21828(17) 0.0393 Uani
loop_
_atom_site_aniso_label
_atom_site_aniso_U_11
_atom_site_aniso_U_22
_atom_site_aniso_U_33
_atom_site_aniso_U_23
_atom_site_aniso_U_13
_atom_site_aniso_U_12
Cu1 0.0334(4) 0.0327(3) 0.0352(3) -0.0031(3) 0.0035(3) -0.0022(2)
C1 0.042 0.042 0.041 0 0 0
O1 0.058 0.032 0.042 0.001 0.0143 0.0046
O2 0.045 0.041 0.037 0.004 0.012 -0.0009
C2 0.048 0.057 0.03 0.006 0.004 0.004
C3 0.059 0.033 0.039 0.009 0.013 -0.01
O3 0.06 0.046 0.028 0.0005 0.0246 0.0111
C4 0.063 0.043 0.039 0 0.001 -0.005
O4 0.068 0.026 0.0449 -0.0034 0.0091 -0.0004
O5 0.063(2) 0.051(2) 0.048(2) -0.0165(17) 0.0267(17) -0.0112(17)
C5 0.073 0.033 0.042 -0.006 0.011 0.004
C6 0.064 0.045 0.032 0.003 0.004 -0.003
C7 0.059 0.055 0.038 0 -0.001 -0.003
C8 0.048 0.045 0.039 -0.008 0.008 0
C9 0.058 0.035 0.05 -0.003 0.002 0.006
C10 0.045 0.03 0.036 -0.004 0 0.004
C11 0.037 0.046 0.037 0 0.011 -0.004
C12 0.055 0.034 0.036 -0.007 0.003 0.008
C13 0.061 0.04 0.046 0.002 -0.002 0.004
C14 0.047 0.034 0.057 -0.004 -0.015 0.007
C15 0.028 0.038 0.052 0.006 -0.009 -0.004
Cu1A 0.0334 0.0327 0.0352 0.0031 -0.0035 -0.0022
Cu1K 0.0327 0.0334 0.0352 -0.0035 -0.0031 0.0022
Cu1J 0.0327 0.0334 0.0352 0.0035 0.0031 0.0022
Cu1F 0.0327 0.0334 0.0352 -0.0035 0.0031 -0.0022
Cu1D 0.0334 0.0327 0.0352 0.0031 0.0035 0.0022
Cu1B 0.0327 0.0334 0.0352 0.0035 0.0031 0.0022
Cu1E 0.0334 0.0327 0.0352 -0.0031 -0.0035 0.0022
Cu1C 0.0327 0.0334 0.0352 -0.0035 -0.0031 0.0022
Cu1G 0.0327 0.0334 0.0352 0.0035 -0.0031 -0.0022
Cu1N 0.0327 0.0334 0.0352 -0.0035 0.0031 -0.0022
Cu1H 0.0334 0.0327 0.0352 -0.0031 0.0035 -0.0022
Cu1M 0.0334 0.0327 0.0352 -0.0031 -0.0035 0.0022
Cu1O 0.0327 0.0334 0.0352 0.0035 -0.0031 -0.0022
Cu1I 0.0334 0.0327 0.0352 0.0031 -0.0035 -0.0022
Cu1L 0.0334 0.0327 0.0352 0.0031 0.0035 0.0022
O1A 0.058 0.032 0.042 -0.001 -0.0143 0.0046
O1K 0.032 0.058 0.042 -0.0143 0.001 -0.0046
O1J 0.032 0.058 0.042 0.0143 -0.001 -0.0046
O1F 0.032(2) 0.058(2) 0.042(2) -0.0143(16) -0.0010(16) 0.0046(16)
O1D 0.058 0.032 0.042 -0.001 0.0143 -0.0046
O1G 0.032 0.058 0.042 0.0143 0.001 0.0046
O2A 0.045 0.041 0.037 -0.004 -0.012 -0.0009
O2K 0.041 0.045 0.037 -0.012 0.004 0.0009
O2J 0.041 0.045 0.037 0.012 -0.004 0.0009
O2F 0.041(2) 0.045(2) 0.037(2) -0.0120(18) -0.0040(15) -0.0009(15)
O2B 0.041 0.045 0.037 0.012 -0.004 0.0009
C2A 0.048 0.057 0.03 -0.006 -0.004 0.004
C2K 0.057 0.048 0.03 -0.004 0.006 -0.004
C2J 0.057 0.048 0.03 0.004 -0.006 -0.004
C3A 0.059 0.033 0.039 -0.009 -0.013 -0.01
C3K 0.033 0.059 0.039 -0.013 0.009 0.01
C3J 0.033 0.059 0.039 0.013 -0.009 0.01
O3A 0.06 0.046 0.028 -0.0005 -0.0246 0.0111
O3K 0.046 0.06 0.028 -0.0246 0.0005 -0.0111
O3J 0.046 0.06 0.028 0.0246 -0.0005 -0.0111
O3D 0.06 0.046 0.028 -0.0005 0.0246 -0.0111
O3C 0.046 0.06 0.028 -0.0246 0.0005 -0.0111
O3B 0.046 0.06 0.028 0.0246 -0.0005 -0.0111
C4A 0.063 0.043 0.039 0 -0.001 -0.005
C4K 0.043 0.063 0.039 -0.001 0 0.005
C4J 0.043 0.063 0.039 0.001 0 0.005
O4A 0.068 0.026 0.0449 0.0034 -0.0091 -0.0004
O4K 0.026 0.068 0.0449 -0.0091 -0.0034 0.0004
O4J 0.026 0.068 0.0449 0.0091 0.0034 0.0004
O4C 0.026 0.068 0.0449 -0.0091 -0.0034 0.0004
O4D 0.068 0.026 0.0449 0.0034 0.0091 0.0004
O4G 0.026 0.068 0.0449 0.0091 -0.0034 -0.0004
O4E 0.068 0.026 0.0449 -0.0034 -0.0091 0.0004
O5F 0.051 0.063 0.048 -0.0267 0.0165 -0.0112
O5D 0.063 0.051 0.048 0.0165 0.0267 0.0112
O5G 0.051 0.063 0.048 0.0267 -0.0165 -0.0112
C5A 0.073 0.033 0.042 0.006 -0.011 0.004
C5K 0.033 0.073 0.042 -0.011 -0.006 -0.004
C5J 0.033 0.073 0.042 0.011 0.006 -0.004
C6A 0.064 0.045 0.032 -0.003 -0.004 -0.003
C6K 0.045 0.064 0.032 -0.004 0.003 0.003
C6J 0.045 0.064 0.032 0.004 -0.003 0.003
C7A 0.059 0.055 0.038 0 0.001 -0.003
C7K 0.055 0.059 0.038 0.001 0 0.003
C7J 0.055 0.059 0.038 -0.001 0 0.003
C8A 0.048 0.045 0.039 0.008 -0.008 0
C8K 0.045 0.048 0.039 -0.008 -0.008 0
C8J 0.045 0.048 0.039 0.008 0.008 0
C9A 0.058 0.035 0.05 0.003 -0.002 0.006
C9K 0.035 0.058 0.05 -0.002 -0.003 -0.006
C9J 0.035 0.058 0.05 0.002 0.003 -0.006
C10A 0.045 0.03 0.036 0.004 0 0.004
C10K 0.03 0.045 0.036 0 -0.004 -0.004
C10J 0.03 0.045 0.036 0 0.004 -0.004
C11A 0.037 0.046 0.037 0 -0.011 -0.004
C11K 0.046 0.037 0.037 -0.011 0 0.004
C11J 0.046 0.037 0.037 0.011 0 0.004
C12A 0.055 0.034 0.036 0.007 -0.003 0.008
C12K 0.034 0.055 0.036 -0.003 -0.007 -0.008
C12J 0.034 0.055 0.036 0.003 0.007 -0.008
C13A 0.061 0.04 0.046 -0.002 0.002 0.004
C13K 0.04 0.061 0.046 0.002 0.002 -0.004
C13J 0.04 0.061 0.046 -0.002 -0.002 -0.004
C14A 0.047 0.034 0.057 0.004 0.015 0.007
C14K 0.034 0.047 0.057 0.015 -0.004 -0.007
C14J 0.034 0.047 0.057 -0.015 0.004 -0.007
C15A 0.028 0.038 0.052 -0.006 0.009 -0.004
C15K 0.038 0.028 0.052 0.009 0.006 0.004
C15J 0.038 0.028 0.052 -0.009 -0.006 0.004
loop_
_geom_bond_atom_site_label_1
_geom_bond_atom_site_label_2
_geom_bond_site_symmetry_1
_geom_bond_site_symmetry_2
Cu1 O1 1_555 1_555
C1 C2 1_555 1_555
O1 C15 1_555 1_555
O2 C15 1_555 1_555
C2 C3 1_555 1_555
C3 H1 1_555 1_555
O3 C14 1_555 1_555
C4 C3 1_555 1_555
H2 C4 1_555 1_555
O4 C14 1_555 1_555
O5 Cu1 1_555 1_555
C5 C4 1_555 1_555
C6 C5 1_555 1_555
H3 C6 1_555 1_555
C7 C2 1_555 1_555
H4 C7 1_555 1_555
C8 C5 1_555 1_555
C9 C8 1_555 1_555
H5 C9 1_555 1_555
C10 C9 1_555 1_555
C11 C10 1_555 1_555
H6 C11 1_555 1_555
C12 C11 1_555 1_555
C13 C8 1_555 1_555
H7 C13 1_555 1_555
C14 C10 1_555 1_555
C15 C12 1_555 1_555
Cu1A Cu1G 1_555 1_555
Cu1K Cu1M 1_555 1_555
Cu1J Cu1L 1_555 1_555
Cu1F Cu1 1_555 1_555
Cu1D O3 1_555 1_555
Cu1B O4 1_555 1_555
Cu1E Cu1C 1_555 1_555
Cu1C O4A 1_555 1_555
Cu1G O1G 1_555 1_555
Cu1N Cu1H 1_555 1_555
Cu1H O4K 1_555 1_555
Cu1M O2K 1_555 1_555
Cu1O Cu1I 1_555 1_555
Cu1I O4J 1_555 1_555
Cu1L O2J 1_555 1_555
O1A Cu1A 1_555 1_555
O1K Cu1K 1_555 1_555
O1J Cu1J 1_555 1_555
O1F Cu1F 1_555 1_555
O1D Cu1D 1_555 1_555
O2A Cu1G 1_555 1_555
O2K C15K 1_555 1_555
O2J C15J 1_555 1_555
O2F Cu1 1_555 1_555
O2B Cu1D 1_555 1_555
C2A C1 1_555 1_555
C2K C1 1_555 1_555
C2J C1 1_555 1_555
C3A C2A 1_555 1_555
C3K C2K 1_555 1_555
C3J C2J 1_555 1_555
H1A C3A 1_555 1_555
H1K C3K 1_555 1_555
H1J C3J 1_555 1_555
O3A Cu1E 1_555 1_555
O3K Cu1N 1_555 1_555
O3J Cu1O 1_555 1_555
O3D Cu1 1_555 1_555
O3C Cu1F 1_555 1_555
O3B Cu1G 1_555 1_555
C4A C3A 1_555 1_555
C4K C3K 1_555 1_555
C4J C3J 1_555 1_555
H2A C4A 1_555 1_555
H2K C4K 1_555 1_555
H2J C4J 1_555 1_555
O4A C14A 1_555 1_555
O4K C14K 1_555 1_555
O4J C14J 1_555 1_555
O4C Cu1 1_555 1_555
O4D Cu1F 1_555 1_555
O4G Cu1D 1_555 1_555
O4E Cu1G 1_555 1_555
O5F Cu1F 1_555 1_555
O5D Cu1D 1_555 1_555
O5G Cu1G 1_555 1_555
C5A C4A 1_555 1_555
C5K C4K 1_555 1_555
C5J C4J 1_555 1_555
C6A C5A 1_555 1_555
C6K C5K 1_555 1_555
C6J C5J 1_555 1_555
H3A C6A 1_555 1_555
H3K C6K 1_555 1_555
H3J C6J 1_555 1_555
C7A C2A 1_555 1_555
C7K C2K 1_555 1_555
C7J C2J 1_555 1_555
H4A C7A 1_555 1_555
H4K C7K 1_555 1_555
H4J C7J 1_555 1_555
C8A C5A 1_555 1_555
C8K C5K 1_555 1_555
C8J C5J 1_555 1_555
C9A C8A 1_555 1_555
C9K C8K 1_555 1_555
C9J C8J 1_555 1_555
H5A C9A 1_555 1_555
H5K C9K 1_555 1_555
H5J C9J 1_555 1_555
C10A C9A 1_555 1_555
C10K C9K 1_555 1_555
C10J C9J 1_555 1_555
C11A C10A 1_555 1_555
C11K C10K 1_555 1_555
C11J C10J 1_555 1_555
H6A C11A 1_555 1_555
H6K C11K 1_555 1_555
H6J C11J 1_555 1_555
C12A C11A 1_555 1_555
C12K C11K 1_555 1_555
C12J C11J 1_555 1_555
C13A C8A 1_555 1_555
C13K C8K 1_555 1_555
C13J C8J 1_555 1_555
H7A C13A 1_555 1_555
H7K C13K 1_555 1_555
H7J C13J 1_555 1_555
C14A O3A 1_555 1_555
C14K O3K 1_555 1_555
C14J O3J 1_555 1_555
C15A O1A 1_555 1_555
C15K O1K 1_555 1_555
C15J O1J 1_555 1_555
O2 Cu1F 1_555 1_555
C6 C7 1_555 1_555
C12 C13 1_555 1_555
Cu1D Cu1B 1_555 1_555
O2A C15A 1_555 1_555
C6A C7A 1_555 1_555
C6K C7K 1_555 1_555
C6J C7J 1_555 1_555
C10A C14A 1_555 1_555
C10K C14K 1_555 1_555
C10J C14J 1_555 1_555
C12A C13A 1_555 1_555
C12A C15A 1_555 1_555
C12K C13K 1_555 1_555
C12K C15K 1_555 1_555
C12J C13J 1_555 1_555
C12J C15J 1_555 1_555

#END
