
#######################################################################
#
#                 Cambridge Crystallographic Data Centre
#                                CCDC 
#
#######################################################################
#
# If this CIF has been generated from an entry in the Cambridge 
# Structural Database, then it will include bibliographic, chemical, 
# crystal, experimental, refinement or atomic coordinate data resulting 
# from the CCDC's data processing and validation procedures.
#
#######################################################################

data_NIKKIC
_chemical_formula_moiety         '(C51 H36 Er1 N5 O10)n'
_symmetry_cell_setting           monoclinic
_symmetry_space_group_name_H-M   'P 21/c'
_symmetry_Int_Tables_number      14
_space_group_name_Hall           '-P 2ybc'
loop_
_symmetry_equiv_pos_site_id
_symmetry_equiv_pos_as_xyz
1 x,y,z
2 -x,1/2+y,1/2-z
3 -x,-y,-z
4 x,1/2-y,1/2+z
_cell_length_a                   8.5175(2)
_cell_length_b                   28.1745(6)
_cell_length_c                   21.4217(5)
_cell_angle_alpha                90
_cell_angle_beta                 97.1026(7)
_cell_angle_gamma                90
_cell_volume                     5101.25
loop_
_atom_site_label
_atom_site_type_symbol
_atom_site_fract_x
_atom_site_fract_y
_atom_site_fract_z
Er1 Er 1.29497(3) 0.058314(8) 0.006439(10)
C1 C 1.6964(6) -0.05535(19) -0.4749(2)
C2 C 1.6097(6) -0.0839(2) -0.4339(2)
H1 H 1.5882 -0.1170 -0.4374
C3 C 1.5663(6) -0.05414(19) -0.3898(2)
H2 H 1.5071 -0.0624 -0.3566
C4 C 1.6252(6) -0.00772(19) -0.4020(2)
C5 C 1.6146(6) 0.0328(2) -0.3634(2)
C6 C 1.6562(6) 0.07873(19) -0.3799(2)
C7 C 1.6592(6) 0.12053(19) -0.3411(2)
H3 H 1.6453 0.1213 -0.2978
C8 C 1.6850(6) 0.1581(2) -0.3765(2)
H4 H 1.6907 0.1903 -0.3633
C9 C 1.7028(6) 0.14016(19) -0.4393(2)
C10 C 1.7191(6) 0.1686(2) -0.4922(2)
C11 C 1.7521(6) 0.15069(19) -0.5507(2)
C12 C 1.7699(6) 0.17965(19) -0.6053(2)
H5 H 1.7523 0.2129 -0.6093
C13 C 1.8164(6) 0.15038(19) -0.6494(2)
H6 H 1.8357 0.1593 -0.6905
C14 C 1.8315(6) 0.10328(19) -0.6232(2)
C15 C 1.8859(6) 0.06300(19) -0.6523(2)
C16 C 1.8894(6) 0.01669(18) -0.6270(2)
C17 C 1.9598(6) -0.02460(19) -0.6523(2)
H7 H 2.0172 -0.0250 -0.6876
C18 C 1.9298(6) -0.0624(2) -0.6170(2)
H8 H 1.9625 -0.0942 -0.6227
C19 C 1.8389(6) -0.04542(19) -0.5693(2)
C20 C 1.7723(6) -0.07329(18) -0.5248(2)
N1 N 1.6971(5) -0.00938(16) -0.45568(19)
N2 N 1.6890(5) 0.09221(16) -0.43868(19)
H10 H 1.6992 0.0730 -0.4704
N3 N 1.7878(5) 0.10481(16) -0.56368(18)
N4 N 1.8212(5) 0.00297(16) -0.57539(19)
H12 H 1.7744 0.0217 -0.5505
C21 C 1.5666(6) 0.02560(18) -0.2995(2)
C22 C 1.4527(6) 0.05415(19) -0.2766(2)
H13 H 1.3952 0.0763 -0.3039
C23 C 1.4221(6) 0.05078(18) -0.2149(2)
H14 H 1.3473 0.0714 -0.1996
C24 C 1.5008(6) 0.01714(19) -0.1754(2)
C25 C 1.6053(6) -0.0136(2) -0.1988(2)
H15 H 1.6533 -0.0383 -0.1730
C26 C 1.6403(6) -0.0085(2) -0.2597(2)
H16 H 1.7165 -0.0289 -0.2746
C27 C 1.4761(6) 0.01510(19) -0.1072(2)
O1 O 1.3960(5) 0.04689(14) -0.08594(17)
O2 O 1.5380(4) -0.01923(13) -0.07433(16)
C28 C 1.6959(6) 0.22037(19) -0.4862(2)
C29 C 1.5551(6) 0.2411(2) -0.5187(3)
H17 H 1.4807 0.2224 -0.5446
C30 C 1.5308(6) 0.2895(2) -0.5112(3)
H18 H 1.4378 0.3039 -0.5320
C31 C 1.6390(6) 0.3171(2) -0.4740(2)
C32 C 1.7741(6) 0.2972(2) -0.4442(3)
H19 H 1.8504 0.3165 -0.4201
C33 C 1.8001(7) 0.2488(2) -0.4492(3)
H20 H 1.8918 0.2350 -0.4265
C34 C 1.6081(7) 0.3700(2) -0.4699(3)
O3 O 1.7227(5) 0.39603(14) -0.4502(2)
O4 O 1.4690(4) 0.38404(14) -0.48790(18)
C35 C 1.9378(6) 0.06925(18) -0.7158(2)
C36 C 1.8745(6) 0.0411(2) -0.7656(2)
H21 H 1.7938 0.0190 -0.7592
C37 C 1.9252(6) 0.04415(19) -0.8245(2)
H22 H 1.8814 0.0239 -0.8575
C38 C 2.0414(6) 0.07729(19) -0.8349(2)
C39 C 2.1038(6) 0.10708(19) -0.7863(2)
H23 H 2.1801 0.1303 -0.7937
C40 C 2.0544(6) 0.10289(18) -0.7266(2)
H24 H 2.0995 0.1227 -0.6933
C41 C 2.1124(6) 0.07665(19) -0.8956(2)
O5 O 2.0849(4) 0.04123(13) -0.93236(16)
O6 O 2.2125(4) 0.10733(13) -0.90771(15)
C42 C 1.7845(6) -0.12610(18) -0.5297(2)
C43 C 1.8534(6) -0.1527(2) -0.4778(3)
H25 H 1.8933 -0.1370 -0.4399
C44 C 1.8634(7) -0.2017(2) -0.4817(3)
H26 H 1.9107 -0.2193 -0.4465
C45 C 1.8041(6) -0.2254(2) -0.5371(2)
C46 C 1.7363(6) -0.1996(2) -0.5881(2)
H27 H 1.6964 -0.2154 -0.6259
C47 C 1.7259(7) -0.1504(2) -0.5844(2)
H28 H 1.6781 -0.1330 -0.6198
C48 C 1.8212(7) -0.2781(2) -0.5388(3)
O7 O 1.8703(5) -0.30159(14) -0.49316(18)
O8 O 1.7728(5) -0.29680(14) -0.59506(18)
H29 H 1.7874 -0.3263 -0.5938
O9 O 1.0914(4) 0.08656(15) -0.05948(17)
C49 C 0.9688(7) 0.1110(2) -0.0688(3)
H30 H 0.9396 0.1293 -0.0348
N5 N 0.8781(5) 0.11291(18) -0.1226(2)
C50 C 0.9159(9) 0.0852(3) -0.1767(3)
H31 H 0.9365 0.1068 -0.2106
H32 H 0.8264 0.0645 -0.1914
H33 H 1.0100 0.0658 -0.1642
C51 C 0.7338(8) 0.1414(3) -0.1306(4)
H34 H 0.6415 0.1203 -0.1364
H35 H 0.7338 0.1618 -0.1676
H36 H 0.7290 0.1610 -0.0932
O10 O 1.2105(4) -0.01766(14) -0.02018(16)
H37 H 1.1403 -0.0287 0.0093
H38 H 1.3028 -0.0388 -0.0188
Er1B Er 1.70503(3) -0.058314(8) -0.006439(10)
Er1C Er 1.29497(3) 0.441686(8) -0.493561(10)
Er1_2 Er 2.29497(3) 0.058314(8) -0.993561(10)
O2B O 1.4620(4) 0.01923(13) 0.07433(16)
O4C O 1.4690(4) 0.11596(14) 0.01210(18)
O5_2 O 1.0849(4) 0.04123(13) 0.06764(16)
O6_2 O 1.2125(4) 0.10733(13) 0.09229(15)
loop_
_geom_bond_atom_site_label_1
_geom_bond_atom_site_label_2
_geom_bond_site_symmetry_1
_geom_bond_site_symmetry_2
Er1 O1 1_555 1_555
C1 C2 1_555 1_555
C2 H1 1_555 1_555
C3 C2 1_555 1_555
H2 C3 1_555 1_555
C4 C3 1_555 1_555
C5 C4 1_555 1_555
C6 C5 1_555 1_555
C7 C6 1_555 1_555
H3 C7 1_555 1_555
C8 C7 1_555 1_555
H4 C8 1_555 1_555
C9 C8 1_555 1_555
C10 C9 1_555 1_555
C11 C10 1_555 1_555
C12 C11 1_555 1_555
H5 C12 1_555 1_555
C13 C12 1_555 1_555
H6 C13 1_555 1_555
C14 C13 1_555 1_555
C15 C14 1_555 1_555
C16 C15 1_555 1_555
C17 C16 1_555 1_555
H7 C17 1_555 1_555
C18 C17 1_555 1_555
H8 C18 1_555 1_555
C19 C18 1_555 1_555
C20 C1 1_555 1_555
N1 C1 1_555 1_555
N2 C6 1_555 1_555
H10 N2 1_555 1_555
N3 C11 1_555 1_555
N4 C16 1_555 1_555
H12 N4 1_555 1_555
C21 C5 1_555 1_555
C22 C21 1_555 1_555
H13 C22 1_555 1_555
C23 C22 1_555 1_555
H14 C23 1_555 1_555
C24 C23 1_555 1_555
C25 C24 1_555 1_555
H15 C25 1_555 1_555
C26 C21 1_555 1_555
H16 C26 1_555 1_555
C27 C24 1_555 1_555
O1 C27 1_555 1_555
O2 C27 1_555 1_555
C28 C10 1_555 1_555
C29 C28 1_555 1_555
H17 C29 1_555 1_555
C30 C29 1_555 1_555
H18 C30 1_555 1_555
C31 C30 1_555 1_555
C32 C31 1_555 1_555
H19 C32 1_555 1_555
C33 C28 1_555 1_555
H20 C33 1_555 1_555
C34 C31 1_555 1_555
O3 C34 1_555 1_555
O4 C34 1_555 1_555
C35 C15 1_555 1_555
C36 C35 1_555 1_555
H21 C36 1_555 1_555
C37 C36 1_555 1_555
H22 C37 1_555 1_555
C38 C37 1_555 1_555
C39 C38 1_555 1_555
H23 C39 1_555 1_555
C40 C35 1_555 1_555
H24 C40 1_555 1_555
C41 C38 1_555 1_555
O5 C41 1_555 1_555
O6 C41 1_555 1_555
C42 C20 1_555 1_555
C43 C42 1_555 1_555
H25 C43 1_555 1_555
C44 C43 1_555 1_555
H26 C44 1_555 1_555
C45 C44 1_555 1_555
C46 C45 1_555 1_555
H27 C46 1_555 1_555
C47 C42 1_555 1_555
H28 C47 1_555 1_555
C48 C45 1_555 1_555
O7 C48 1_555 1_555
O8 C48 1_555 1_555
H29 O8 1_555 1_555
O9 Er1 1_555 1_555
C49 O9 1_555 1_555
H30 C49 1_555 1_555
N5 C49 1_555 1_555
C50 N5 1_555 1_555
H31 C50 1_555 1_555
H32 C50 1_555 1_555
H33 C50 1_555 1_555
C51 N5 1_555 1_555
H34 C51 1_555 1_555
H35 C51 1_555 1_555
H36 C51 1_555 1_555
O10 Er1 1_555 1_555
H37 O10 1_555 1_555
H38 O10 1_555 1_555
Er1B O2 1_555 1_555
Er1C O4 1_555 1_555
Er1_2 O5 1_555 1_555
O2B Er1 1_555 1_555
O4C Er1 1_555 1_555
O5_2 Er1 1_555 1_555
O6_2 Er1 1_555 1_555
C4 N1 1_555 1_555
C9 N2 1_555 1_555
C14 N3 1_555 1_555
C19 C20 1_555 1_555
C19 N4 1_555 1_555
C25 C26 1_555 1_555
C32 C33 1_555 1_555
C39 C40 1_555 1_555
O6 Er1_2 1_555 1_555
C46 C47 1_555 1_555

#END
