
#######################################################################
#
#                 Cambridge Crystallographic Data Centre
#                                CCDC 
#
#######################################################################
#
# If this CIF has been generated from an entry in the Cambridge 
# Structural Database, then it will include bibliographic, chemical, 
# crystal, experimental, refinement or atomic coordinate data resulting 
# from the CCDC's data processing and validation procedures.
#
#######################################################################

data_SUVPUW
_chemical_formula_moiety         '(C130 H106 Co6 N9 O28 1-)n'
_symmetry_cell_setting           monoclinic
_symmetry_space_group_name_H-M   'P 21/n'
_symmetry_Int_Tables_number      14
_space_group_name_Hall           '-P 2yn'
loop_
_symmetry_equiv_pos_site_id
_symmetry_equiv_pos_as_xyz
1 x,y,z
2 1/2-x,1/2+y,1/2-z
3 -x,-y,-z
4 1/2+x,1/2-y,1/2+z
_cell_length_a                   15.6069(4)
_cell_length_b                   26.4325(8)
_cell_length_c                   16.6221(5)
_cell_angle_alpha                90
_cell_angle_beta                 90.155(2)
_cell_angle_gamma                90
_cell_volume                     6857.08
loop_
_atom_site_label
_atom_site_type_symbol
_atom_site_fract_x
_atom_site_fract_y
_atom_site_fract_z
Co1 Co 0.41582(5) 0.36329(3) 0.74952(5)
Co2 Co 0.54511(5) 0.25655(3) 0.75191(5)
Co3 Co 0.13883(5) 0.12329(3) 0.25012(5)
O1 O 0.6199(2) 0.26428(14) 0.6497(2)
O2 O 0.7064(2) 0.33095(14) 0.6726(2)
C1 C 0.6831(3) 0.2919(2) 0.6353(3)
O3 O 0.8656(2) 0.18929(15) 0.3292(2)
C2 C 0.8958(3) 0.2266(2) 0.3664(3)
O4 O 0.9636(2) 0.24993(15) 0.3514(2)
C3 C 0.8436(3) 0.2445(2) 0.4369(3)
C4 C 0.7898(4) 0.2871(2) 0.4275(4)
C5 C 0.7854(5) 0.3146(3) 0.3538(4)
H1 H 0.8211 0.3056 0.3107
C6 C 0.7306(6) 0.3534(4) 0.3457(5)
H2 H 0.7264 0.3701 0.2958
C7 C 0.6792(6) 0.3698(3) 0.4100(5)
H3 H 0.6431 0.3979 0.4032
C8 C 0.6813(5) 0.3454(3) 0.4817(4)
H4 H 0.6464 0.3567 0.5241
C9 C 0.7360(4) 0.3029(2) 0.4933(3)
C10 C 0.7387(3) 0.2759(2) 0.5658(3)
C11 C 0.7909(3) 0.2337(2) 0.5747(3)
C12 C 0.7943(5) 0.2055(3) 0.6482(4)
H5 H 0.7614 0.2160 0.6924
C13 C 0.8438(5) 0.1639(3) 0.6546(5)
H6 H 0.8447 0.1459 0.7034
C14 C 0.8944(5) 0.1469(3) 0.5900(5)
H7 H 0.9275 0.1174 0.5954
C15 C 0.8952(4) 0.1729(2) 0.5202(4)
H8 H 0.9305 0.1618 0.4781
C16 C 0.8435(3) 0.2171(2) 0.5089(3)
O5 O 0.4423(2) 0.24311(14) 0.6747(2)
O6 O 0.3871(3) 0.31998(15) 0.6513(2)
C17 C 0.3969(3) 0.2741(2) 0.6378(3)
O7 O 0.1506(2) 0.23879(14) 0.3283(2)
O8 O 0.1917(2) 0.15870(14) 0.3499(2)
C18 C 0.1913(3) 0.2051(2) 0.3640(3)
C19 C 0.2446(3) 0.2225(2) 0.4356(3)
C20 C 0.2058(3) 0.2330(2) 0.5081(4)
C21 C 0.1143(4) 0.2304(3) 0.5191(4)
H9 H 0.0789 0.2231 0.4748
C22 C 0.0784(4) 0.2383(3) 0.5926(5)
H10 H 0.0186 0.2360 0.5984
C23 C 0.1302(5) 0.2499(4) 0.6604(5)
H11 H 0.1046 0.2547 0.7110
C24 C 0.2163(4) 0.2540(3) 0.6527(4)
H12 H 0.2499 0.2613 0.6983
C25 C 0.2571(4) 0.2475(2) 0.5765(4)
C26 C 0.3449(3) 0.2541(2) 0.5662(3)
C27 C 0.3841(3) 0.2456(2) 0.4929(4)
C28 C 0.4742(4) 0.2531(3) 0.4806(4)
H13 H 0.5090 0.2631 0.5240
C29 C 0.5093(4) 0.2460(3) 0.4084(5)
H14 H 0.5683 0.2517 0.4015
C30 C 0.4593(5) 0.2300(4) 0.3418(5)
H15 H 0.4850 0.2252 0.2913
C31 C 0.3745(4) 0.2215(3) 0.3511(4)
H16 H 0.3422 0.2103 0.3067
C32 C 0.3331(4) 0.2289(2) 0.4255(4)
O9 O 0.0785(3) 0.07119(15) 0.3249(2)
O10 O -0.0589(3) 0.09169(16) 0.3481(2)
C33 C 0.0094(4) 0.0682(2) 0.3629(3)
C34 C 0.1266(5) 0.1046(3) 0.5882(5)
H17 H 0.1573 0.1351 0.5935
C35 C 0.0931(4) 0.0914(2) 0.5158(4)
H18 H 0.1015 0.1128 0.4713
C36 C 0.0458(4) 0.0463(2) 0.5059(4)
C37 C 0.0064(4) 0.0325(2) 0.4340(3)
C38 C -0.0365(4) -0.0131(2) 0.4262(4)
C39 C -0.0724(5) -0.0285(3) 0.3509(4)
H19 H -0.0660 -0.0078 0.3054
C40 C -0.1156(6) -0.0728(3) 0.3444(5)
H20 H -0.1385 -0.0825 0.2943
O11 O -0.0516(2) 0.07994(15) 0.1702(2)
O12 O 0.0890(2) 0.08867(15) 0.1475(2)
C41 C 0.0161(4) 0.07118(19) 0.1325(3)
C42 C -0.0241(4) 0.0515(2) -0.0101(3)
C43 C 0.0090(3) 0.0350(2) 0.0634(3)
C44 C 0.0327(4) -0.0154(2) 0.0760(3)
C45 C 0.0653(6) -0.0332(3) 0.1501(4)
H21 H 0.0723 -0.0104 0.1929
C46 C 0.0865(8) -0.0815(3) 0.1607(5)
H22 H 0.1062 -0.0923 0.2114
C47 C 0.0801(7) -0.1174(3) 0.0970(5)
H23 H 0.0975 -0.1510 0.1050
C48 C 0.0486(5) -0.1025(2) 0.0247(4)
H24 H 0.0428 -0.1265 -0.0168
N1 N 0.5710(3) 0.17673(16) 0.7526(3)
C49 C 0.5817(5) 0.1509(2) 0.6858(4)
H25 H 0.5676 0.1669 0.6370
C50 C 0.6121(6) 0.1021(3) 0.6825(4)
H26 H 0.6180 0.0857 0.6326
C51 C 0.6336(4) 0.0775(2) 0.7520(4)
C52 C 0.6217(8) 0.1038(3) 0.8219(5)
H27 H 0.6360 0.0888 0.8714
C53 C 0.5888(7) 0.1526(3) 0.8202(5)
H28 H 0.5787 0.1692 0.8693
C54 C 0.6730(4) 0.0260(2) 0.7509(4)
C55 C 0.6982(6) 0.0020(3) 0.6799(5)
H29 H 0.6865 0.0171 0.6299
C56 C 0.7397(6) -0.0434(3) 0.6831(5)
H30 H 0.7540 -0.0592 0.6343
N2 N 0.7610(3) -0.06654(17) 0.7513(3)
C57 C 0.7346(5) -0.0454(3) 0.8185(4)
H31 H 0.7468 -0.0620 0.8672
C58 C 0.6901(5) -0.0004(3) 0.8214(4)
H32 H 0.6713 0.0124 0.8711
O13 O 0.2850(6) 0.3966(3) 0.7259(6)
C59 C 0.2880(14) 0.4923(7) 0.6928(13)
C60 C 0.2700(16) 0.4340(6) 0.6782(12)
N3 N 0.2382(18) 0.4249(8) 0.6051(12)
C61 C 0.235(2) 0.4638(11) 0.5414(16)
C62 C 0.224(3) 0.3741(10) 0.573(3)
O14 O 0.53318(17) 0.33213(10) 0.75658(18)
O9B O -0.0785(3) -0.07119(15) 0.6751(2)
O10B O 0.0589(3) -0.09169(16) 0.6519(2)
C33B C -0.0094(4) -0.0682(2) 0.6371(3)
C34B C -0.1266(5) -0.1046(3) 0.4118(5)
H17B H -0.1573 -0.1351 0.4065
C35B C -0.0931(4) -0.0914(2) 0.4842(4)
H18B H -0.1015 -0.1128 0.5287
C36B C -0.0458(4) -0.0463(2) 0.4941(4)
C37B C -0.0064(4) -0.0325(2) 0.5660(3)
C38B C 0.0365(4) 0.0131(2) 0.5738(4)
C39B C 0.0724(5) 0.0285(3) 0.6491(4)
H19B H 0.0660 0.0078 0.6946
C40B C 0.1156(6) 0.0728(3) 0.6556(5)
H20B H 0.1385 0.0825 0.7057
O11B O 0.0516(2) -0.07994(15) -0.1702(2)
O12B O -0.0890(2) -0.08867(15) -0.1475(2)
C41B C -0.0161(4) -0.07118(19) -0.1325(3)
C42B C 0.0241(4) -0.0515(2) 0.0101(3)
C43B C -0.0090(3) -0.0350(2) -0.0634(3)
C44B C -0.0327(4) 0.0154(2) -0.0760(3)
C45B C -0.0653(6) 0.0332(3) -0.1501(4)
H21B H -0.0723 0.0104 -0.1929
C46B C -0.0865(8) 0.0815(3) -0.1607(5)
H22B H -0.1062 0.0923 -0.2114
C47B C -0.0801(7) 0.1174(3) -0.0970(5)
H23B H -0.0975 0.1510 -0.1050
C48B C -0.0486(5) 0.1025(2) -0.0247(4)
H24B H -0.0428 0.1265 0.0168
Co1B Co -0.41582(5) -0.36329(3) -0.74952(5)
Co2B Co -0.54511(5) -0.25655(3) -0.75191(5)
Co3B Co -0.13883(5) -0.12329(3) -0.25012(5)
O1B O -0.6199(2) -0.26428(14) -0.6497(2)
O2B O -0.7064(2) -0.33095(14) -0.6726(2)
C1B C -0.6831(3) -0.2919(2) -0.6353(3)
O3B O -0.8656(2) -0.18929(15) -0.3292(2)
C2B C -0.8958(3) -0.2266(2) -0.3664(3)
O4B O -0.9636(2) -0.24993(15) -0.3514(2)
C3B C -0.8436(3) -0.2445(2) -0.4369(3)
C4B C -0.7898(4) -0.2871(2) -0.4275(4)
C5B C -0.7854(5) -0.3146(3) -0.3538(4)
H1B H -0.8211 -0.3056 -0.3107
C6B C -0.7306(6) -0.3534(4) -0.3457(5)
H2B H -0.7264 -0.3701 -0.2958
C7B C -0.6792(6) -0.3698(3) -0.4100(5)
H3B H -0.6431 -0.3979 -0.4032
C8B C -0.6813(5) -0.3454(3) -0.4817(4)
H4B H -0.6464 -0.3567 -0.5241
C9B C -0.7360(4) -0.3029(2) -0.4933(3)
C10B C -0.7387(3) -0.2759(2) -0.5658(3)
C11B C -0.7909(3) -0.2337(2) -0.5747(3)
C12B C -0.7943(5) -0.2055(3) -0.6482(4)
H5B H -0.7614 -0.2160 -0.6924
C13B C -0.8438(5) -0.1639(3) -0.6546(5)
H6B H -0.8447 -0.1459 -0.7034
C14B C -0.8944(5) -0.1469(3) -0.5900(5)
H7B H -0.9275 -0.1174 -0.5954
C15B C -0.8952(4) -0.1729(2) -0.5202(4)
H8B H -0.9305 -0.1618 -0.4781
C16B C -0.8435(3) -0.2171(2) -0.5089(3)
O5B O -0.4423(2) -0.24311(14) -0.6747(2)
O6B O -0.3871(3) -0.31998(15) -0.6513(2)
C17B C -0.3969(3) -0.2741(2) -0.6378(3)
O7B O -0.1506(2) -0.23879(14) -0.3283(2)
O8B O -0.1917(2) -0.15870(14) -0.3499(2)
C18B C -0.1913(3) -0.2051(2) -0.3640(3)
C19B C -0.2446(3) -0.2225(2) -0.4356(3)
C20B C -0.2058(3) -0.2330(2) -0.5081(4)
C21B C -0.1143(4) -0.2304(3) -0.5191(4)
H9B H -0.0789 -0.2231 -0.4748
C22B C -0.0784(4) -0.2383(3) -0.5926(5)
H10B H -0.0186 -0.2360 -0.5984
C23B C -0.1302(5) -0.2499(4) -0.6604(5)
H11B H -0.1046 -0.2547 -0.7110
C24B C -0.2163(4) -0.2540(3) -0.6527(4)
H12B H -0.2499 -0.2613 -0.6983
C25B C -0.2571(4) -0.2475(2) -0.5765(4)
C26B C -0.3449(3) -0.2541(2) -0.5662(3)
C27B C -0.3841(3) -0.2456(2) -0.4929(4)
C28B C -0.4742(4) -0.2531(3) -0.4806(4)
H13B H -0.5090 -0.2631 -0.5240
C29B C -0.5093(4) -0.2460(3) -0.4084(5)
H14B H -0.5683 -0.2517 -0.4015
C30B C -0.4593(5) -0.2300(4) -0.3418(5)
H15B H -0.4850 -0.2252 -0.2913
C31B C -0.3745(4) -0.2215(3) -0.3511(4)
H16B H -0.3422 -0.2103 -0.3067
C32B C -0.3331(4) -0.2289(2) -0.4255(4)
N1B N -0.5710(3) -0.17673(16) -0.7526(3)
C49B C -0.5817(5) -0.1509(2) -0.6858(4)
H25B H -0.5676 -0.1669 -0.6370
C50B C -0.6121(6) -0.1021(3) -0.6825(4)
H26B H -0.6180 -0.0857 -0.6326
C51B C -0.6336(4) -0.0775(2) -0.7520(4)
C52B C -0.6217(8) -0.1038(3) -0.8219(5)
H27B H -0.6360 -0.0888 -0.8714
C53B C -0.5888(7) -0.1526(3) -0.8202(5)
H28B H -0.5787 -0.1692 -0.8693
C54B C -0.6730(4) -0.0260(2) -0.7509(4)
C55B C -0.6982(6) -0.0020(3) -0.6799(5)
H29B H -0.6865 -0.0171 -0.6299
C56B C -0.7397(6) 0.0434(3) -0.6831(5)
H30B H -0.7540 0.0592 -0.6343
N2B N -0.7610(3) 0.06654(17) -0.7513(3)
C57B C -0.7346(5) 0.0454(3) -0.8185(4)
H31B H -0.7468 0.0620 -0.8672
C58B C -0.6901(5) 0.0004(3) -0.8214(4)
H32B H -0.6713 -0.0124 -0.8711
O13B O -0.2850(6) -0.3966(3) -0.7259(6)
C59B C -0.2880(14) -0.4923(7) -0.6928(13)
C60B C -0.2700(16) -0.4340(6) -0.6782(12)
N3B N -0.2382(18) -0.4249(8) -0.6051(12)
C61B C -0.235(2) -0.4638(11) -0.5414(16)
C62B C -0.224(3) -0.3741(10) -0.573(3)
O14B O -0.53318(17) -0.33213(10) -0.75658(18)
Co1A Co -0.91582(5) -0.13671(3) -0.24952(5)
Co1A_2 Co 0.08418(5) -0.13671(3) -0.24952(5)
Co1A_3 Co 0.08418(5) -0.13671(3) 0.75048(5)
Co1C Co -0.08418(5) 0.13671(3) 0.24952(5)
Co1C_2 Co 0.91582(5) 0.13671(3) 0.24952(5)
Co2A Co -1.04511(5) -0.24345(3) -0.25191(5)
Co2A_2 Co -0.04511(5) -0.24345(3) -0.25191(5)
Co2C Co 0.04511(5) 0.24345(3) 0.25191(5)
Co2C_2 Co 1.04511(5) 0.24345(3) 0.25191(5)
Co3_2 Co -0.86117(5) 0.12329(3) -0.74988(5)
Co3A Co -0.63883(5) -0.37671(3) -0.75012(5)
Co3B_2 Co -0.13883(5) -0.12329(3) 0.74988(5)
Co3B_3 Co 0.86117(5) -0.12329(3) 0.74988(5)
Co3C Co 0.63883(5) 0.37671(3) 0.75012(5)
O2A O -0.2064(2) -0.16905(14) -0.1726(2)
O2C O 0.2064(2) 0.16905(14) 0.1726(2)
O3A O -0.3656(2) -0.31071(15) -0.8292(2)
O3C O 0.3656(2) 0.31071(15) 0.8292(2)
O4A O -0.4636(2) -0.25007(15) -0.8514(2)
O4C O 0.4636(2) 0.25007(15) 0.8514(2)
O7A O -0.6506(2) -0.26121(14) -0.8283(2)
O7C O 0.6506(2) 0.26121(14) 0.8283(2)
O9B_2 O -0.0785(3) -0.07119(15) -0.3249(2)
O10A O -0.4411(3) -0.40831(16) -0.8481(2)
O10C O 0.4411(3) 0.40831(16) 0.8481(2)
O11A O -0.4484(2) -0.42006(15) -0.6702(2)
O11C O 0.4484(2) 0.42006(15) 0.6702(2)
N2_2 N -0.2390(3) -0.06654(17) -0.2487(3)
N2B_2 N 0.2390(3) 0.06654(17) 0.2487(3)
O14A O -0.03318(17) -0.16787(10) -0.25658(18)
O14C O 0.03318(17) 0.16787(10) 0.25658(18)
C63 C 0.4240(11) 0.1505(6) 0.1303(11)
N4 N 0.4699(16) 0.1052(9) 0.0948(16)
C64 C 0.522(2) 0.0793(14) 0.158(2)
C65 C 0.383(6) 0.031(2) 0.656(2)
N5 N 0.393(2) 0.0670(11) 0.590(2)
C66 C 0.407(3) 0.0445(18) 0.511(2)
C67 C 0.1764(12) 0.3551(8) 0.8949(14)
N6 N 0.2492(10) 0.3863(6) 0.8913(9)
C68 C 0.2603(13) 0.4251(8) 0.9535(12)
loop_
_geom_bond_atom_site_label_1
_geom_bond_atom_site_label_2
_geom_bond_site_symmetry_1
_geom_bond_site_symmetry_2
Co1 O6 1_555 1_555
Co2 O1 1_555 1_555
Co3 O8 1_555 1_555
O1 C1 1_555 1_555
O2 C1 1_555 1_555
C1 C10 1_555 1_555
O3 C2 1_555 1_555
C2 O4 1_555 1_555
O4 Co2C_2 1_555 1_555
C3 C2 1_555 1_555
C4 C3 1_555 1_555
C5 C4 1_555 1_555
H1 C5 1_555 1_555
C6 C5 1_555 1_555
H2 C6 1_555 1_555
C7 C6 1_555 1_555
H3 C7 1_555 1_555
C8 C7 1_555 1_555
H4 C8 1_555 1_555
C9 C4 1_555 1_555
C10 C9 1_555 1_555
C11 C10 1_555 1_555
C12 C11 1_555 1_555
H5 C12 1_555 1_555
C13 C12 1_555 1_555
H6 C13 1_555 1_555
C14 C13 1_555 1_555
H7 C14 1_555 1_555
C15 C14 1_555 1_555
H8 C15 1_555 1_555
C16 C3 1_555 1_555
O5 Co2 1_555 1_555
O6 C17 1_555 1_555
C17 O5 1_555 1_555
O7 C18 1_555 1_555
O8 C18 1_555 1_555
C18 C19 1_555 1_555
C19 C20 1_555 1_555
C20 C21 1_555 1_555
C21 H9 1_555 1_555
C22 C21 1_555 1_555
H10 C22 1_555 1_555
C23 C22 1_555 1_555
H11 C23 1_555 1_555
C24 C23 1_555 1_555
H12 C24 1_555 1_555
C25 C20 1_555 1_555
C26 C17 1_555 1_555
C27 C26 1_555 1_555
C28 C27 1_555 1_555
H13 C28 1_555 1_555
C29 C28 1_555 1_555
H14 C29 1_555 1_555
C30 C29 1_555 1_555
H15 C30 1_555 1_555
C31 C30 1_555 1_555
H16 C31 1_555 1_555
C32 C19 1_555 1_555
O9 Co3 1_555 1_555
O10 C33 1_555 1_555
C33 O9 1_555 1_555
C34 H17 1_555 1_555
C35 C34 1_555 1_555
H18 C35 1_555 1_555
C36 C35 1_555 1_555
C37 C33 1_555 1_555
C38 C37 1_555 1_555
C39 C38 1_555 1_555
H19 C39 1_555 1_555
C40 C39 1_555 1_555
H20 C40 1_555 1_555
O11 C41 1_555 1_555
O12 Co3 1_555 1_555
C41 O12 1_555 1_555
C42 C43 1_555 1_555
C43 C41 1_555 1_555
C44 C43 1_555 1_555
C45 C44 1_555 1_555
H21 C45 1_555 1_555
C46 C45 1_555 1_555
H22 C46 1_555 1_555
C47 C46 1_555 1_555
H23 C47 1_555 1_555
C48 C47 1_555 1_555
H24 C48 1_555 1_555
N1 Co2 1_555 1_555
C49 N1 1_555 1_555
H25 C49 1_555 1_555
C50 C49 1_555 1_555
H26 C50 1_555 1_555
C51 C50 1_555 1_555
C52 C51 1_555 1_555
H27 C52 1_555 1_555
C53 N1 1_555 1_555
H28 C53 1_555 1_555
C54 C51 1_555 1_555
C55 C54 1_555 1_555
H29 C55 1_555 1_555
C56 C55 1_555 1_555
H30 C56 1_555 1_555
N2 C56 1_555 1_555
C57 N2 1_555 1_555
H31 C57 1_555 1_555
C58 C54 1_555 1_555
H32 C58 1_555 1_555
O13 Co1 1_555 1_555
C59 C60 1_555 1_555
C60 O13 1_555 1_555
N3 C60 1_555 1_555
C61 N3 1_555 1_555
C62 N3 1_555 1_555
O14 Co1 1_555 1_555
C63 N4 1_555 1_555
N4 C64 1_555 1_555
C65 N5 1_555 1_555
N5 C66 1_555 1_555
C67 N6 1_555 1_555
N6 C68 1_555 1_555
O9B C33B 1_555 1_555
O10B C33B 1_555 1_555
C33B C37B 1_555 1_555
C34B C40 1_555 1_555
H17B C34B 1_555 1_555
C35B C34B 1_555 1_555
H18B C35B 1_555 1_555
C36B C38 1_555 1_555
C37B C36B 1_555 1_555
C38B C36 1_555 1_555
C39B C38B 1_555 1_555
H19B C39B 1_555 1_555
C40B C34 1_555 1_555
H20B C40B 1_555 1_555
O11B C41B 1_555 1_555
O12B C41B 1_555 1_555
C41B C43B 1_555 1_555
C42B C44 1_555 1_555
C43B C42B 1_555 1_555
C44B C42 1_555 1_555
C45B C44B 1_555 1_555
H21B C45B 1_555 1_555
C46B C45B 1_555 1_555
H22B C46B 1_555 1_555
C47B C46B 1_555 1_555
H23B C47B 1_555 1_555
C48B C42 1_555 1_555
H24B C48B 1_555 1_555
Co1B O6B 1_555 1_555
Co2B O1B 1_555 1_555
Co3B O12B 1_555 1_555
O1B C1B 1_555 1_555
O2B C1B 1_555 1_555
C1B C10B 1_555 1_555
O3B C2B 1_555 1_555
C2B O4B 1_555 1_555
O4B Co2A 1_555 1_555
C3B C2B 1_555 1_555
C4B C3B 1_555 1_555
C5B C4B 1_555 1_555
H1B C5B 1_555 1_555
C6B C5B 1_555 1_555
H2B C6B 1_555 1_555
C7B C6B 1_555 1_555
H3B C7B 1_555 1_555
C8B C7B 1_555 1_555
H4B C8B 1_555 1_555
C9B C4B 1_555 1_555
C10B C9B 1_555 1_555
C11B C10B 1_555 1_555
C12B C11B 1_555 1_555
H5B C12B 1_555 1_555
C13B C12B 1_555 1_555
H6B C13B 1_555 1_555
C14B C13B 1_555 1_555
H7B C14B 1_555 1_555
C15B C14B 1_555 1_555
H8B C15B 1_555 1_555
C16B C3B 1_555 1_555
O5B Co2B 1_555 1_555
O6B C17B 1_555 1_555
C17B O5B 1_555 1_555
O7B C18B 1_555 1_555
O8B Co3B 1_555 1_555
C18B O8B 1_555 1_555
C19B C18B 1_555 1_555
C20B C19B 1_555 1_555
C21B C20B 1_555 1_555
H9B C21B 1_555 1_555
C22B C21B 1_555 1_555
H10B C22B 1_555 1_555
C23B C22B 1_555 1_555
H11B C23B 1_555 1_555
C24B C23B 1_555 1_555
H12B C24B 1_555 1_555
C25B C20B 1_555 1_555
C26B C17B 1_555 1_555
C27B C26B 1_555 1_555
C28B C27B 1_555 1_555
H13B C28B 1_555 1_555
C29B C28B 1_555 1_555
H14B C29B 1_555 1_555
C30B C29B 1_555 1_555
H15B C30B 1_555 1_555
C31B C30B 1_555 1_555
H16B C31B 1_555 1_555
C32B C19B 1_555 1_555
N1B Co2B 1_555 1_555
C49B N1B 1_555 1_555
H25B C49B 1_555 1_555
C50B C49B 1_555 1_555
H26B C50B 1_555 1_555
C51B C50B 1_555 1_555
C52B C51B 1_555 1_555
H27B C52B 1_555 1_555
C53B N1B 1_555 1_555
H28B C53B 1_555 1_555
C54B C51B 1_555 1_555
C55B C54B 1_555 1_555
H29B C55B 1_555 1_555
C56B C55B 1_555 1_555
H30B C56B 1_555 1_555
N2B C56B 1_555 1_555
C57B N2B 1_555 1_555
H31B C57B 1_555 1_555
C58B C54B 1_555 1_555
H32B C58B 1_555 1_555
O13B Co1B 1_555 1_555
C59B C60B 1_555 1_555
C60B O13B 1_555 1_555
N3B C60B 1_555 1_555
C61B N3B 1_555 1_555
C62B N3B 1_555 1_555
O14B Co1B 1_555 1_555
Co1A O3B 1_555 1_555
Co1A_2 O11B 1_555 1_555
Co1A_3 O10B 1_555 1_555
Co1C O10 1_555 1_555
Co1C_2 O3 1_555 1_555
Co2A_2 O7B 1_555 1_555
Co2C O7 1_555 1_555
Co3_2 N2B 1_555 1_555
Co3A O2B 1_555 1_555
Co3B_2 O9B 1_555 1_555
Co3B_3 N2 1_555 1_555
Co3C O2 1_555 1_555
O2A Co3B 1_555 1_555
O2C Co3 1_555 1_555
O3A Co1B 1_555 1_555
O3C Co1 1_555 1_555
O4A Co2B 1_555 1_555
O4C Co2 1_555 1_555
O7A Co2B 1_555 1_555
O7C Co2 1_555 1_555
O9B_2 Co3B 1_555 1_555
O10A Co1B 1_555 1_555
O10C Co1 1_555 1_555
O11A Co1B 1_555 1_555
O11C Co1 1_555 1_555
N2_2 Co3B 1_555 1_555
N2B_2 Co3 1_555 1_555
O14A Co3B 1_555 1_555
O14C Co3 1_555 1_555
Co2 O14 1_555 1_555
C8 C9 1_555 1_555
C11 C16 1_555 1_555
C15 C16 1_555 1_555
C24 C25 1_555 1_555
C25 C26 1_555 1_555
C27 C32 1_555 1_555
C31 C32 1_555 1_555
C36 C37 1_555 1_555
O11 Co1C 1_555 1_555
C48 C42B 1_555 1_555
C52 C53 1_555 1_555
C57 C58 1_555 1_555
O14 Co3C 1_555 1_555
C35B C36B 1_555 1_555
C37B C38B 1_555 1_555
C39B C40B 1_555 1_555
C43B C44B 1_555 1_555
C47B C48B 1_555 1_555
Co2B O14B 1_555 1_555
C8B C9B 1_555 1_555
C11B C16B 1_555 1_555
C15B C16B 1_555 1_555
C24B C25B 1_555 1_555
C25B C26B 1_555 1_555
C27B C32B 1_555 1_555
C31B C32B 1_555 1_555
C52B C53B 1_555 1_555
C57B C58B 1_555 1_555
O14B Co3A 1_555 1_555
Co1A_2 O14A 1_555 1_555
Co1C O14C 1_555 1_555
Co2A_2 O14A 1_555 1_555
Co2C O14C 1_555 1_555

#END
