
#######################################################################
#
#                 Cambridge Crystallographic Data Centre
#                                CCDC 
#
#######################################################################
#
# If this CIF has been generated from an entry in the Cambridge 
# Structural Database, then it will include bibliographic, chemical, 
# crystal, experimental, refinement or atomic coordinate data resulting 
# from the CCDC's data processing and validation procedures.
#
#######################################################################

data_JUVROJ
_chemical_formula_moiety         '(C36 H26 Cd3 O23)n'
_symmetry_cell_setting           triclinic
_symmetry_space_group_name_H-M   'P -1'
_symmetry_Int_Tables_number      2
_space_group_name_Hall           '-P 1'
loop_
_symmetry_equiv_pos_site_id
_symmetry_equiv_pos_as_xyz
1 x,y,z
2 -x,-y,-z
_cell_length_a                   9.9428(8)
_cell_length_b                   10.4394(8)
_cell_length_c                   14.5779(12)
_cell_angle_alpha                107.050(5)
_cell_angle_beta                 109.127(6)
_cell_angle_gamma                90.079(5)
_cell_volume                     1358.8
loop_
_atom_site_label
_atom_site_type_symbol
_atom_site_fract_x
_atom_site_fract_y
_atom_site_fract_z
Cd1 Cd 1.0000 1.0000 0.0000
Cd2 Cd 1.10428(4) 1.29784(4) 0.20177(3)
O1 O 0.8974(4) 1.1851(4) 0.0697(3)
O2 O 0.4093(5) 1.0402(6) -0.2087(3)
O3 O 0.8531(5) 1.3158(6) 0.2013(3)
O4 O 0.1840(5) 0.4925(4) -0.6622(3)
O5 O 0.3348(5) 1.2982(6) 0.1898(4)
C1 C 0.8085(6) 1.2384(6) 0.1141(4)
O6 O 0.0991(5) 0.5160(4) -0.8150(3)
C2 C 0.4086(6) 1.1968(5) 0.0473(4)
C3 C 0.5543(6) 1.2328(5) 0.1035(4)
H1 H 0.5848 1.2759 0.1736
C4 C 0.6092(6) 1.1388(6) -0.0504(4)
H2 H 0.6768 1.1191 -0.0826
C5 C 0.6519(6) 1.2037(6) 0.0542(4)
O7 O 0.1721(4) 1.1778(5) 0.0516(4)
C6 C 0.3638(7) 1.1339(6) -0.0569(5)
H3 H 0.2665 1.1120 -0.0941
O8 O 0.0860(7) 0.9710(5) -0.8501(3)
C7 C 0.1516(7) 0.5654(6) -0.7204(5)
O9 O 0.3672(6) 0.9707(4) -0.4253(3)
C8 C 0.4625(8) 1.1032(7) -0.1067(5)
C9 C 0.1286(6) 1.0284(6) -0.7573(4)
C10 C 0.2983(7) 1.2256(6) 0.1005(5)
O10 O 0.1408(6) 1.1509(4) -0.7141(3)
C11 C 0.1463(7) 0.7967(6) -0.7346(4)
H4 H 0.0988 0.7586 -0.8044
C12 C 0.1908(7) 0.7162(5) -0.6725(4)
C13 C 0.2648(8) 0.7678(7) -0.5705(5)
H5 H 0.2951 0.7108 -0.5310
C14 C 0.1742(7) 0.9373(5) -0.6903(4)
C15 C 0.5111(9) 0.9827(9) -0.2593(6)
H6 H 0.5755 0.9340 -0.2192
H7 H 0.5678 1.0547 -0.2638
C16 C 0.2462(8) 0.9933(6) -0.5858(5)
H8 H 0.2619 1.0864 -0.5563
C17 C 0.2949(8) 0.9094(6) -0.5252(5)
C18 C 0.4330(10) 0.8899(8) -0.3634(5)
H9 H 0.4990 0.8367 -0.3908
H10 H 0.3611 0.8290 -0.3613
Cd2A Cd -0.10428(4) 0.70216(4) -1.20177(3)
O1A O 0.1026(4) 0.8149(4) -1.0697(3)
O2A O 0.5907(5) 0.9598(6) -0.7913(3)
O3A O 0.1469(5) 0.6842(6) -1.2013(3)
O4A O 0.8160(5) 1.5075(4) -0.3378(3)
O5A O 0.6652(5) 0.7018(6) -1.1898(4)
C1A C 0.1915(6) 0.7616(6) -1.1141(4)
O6A O 0.9009(5) 1.4840(4) -0.1850(3)
C2A C 0.5914(6) 0.8032(5) -1.0473(4)
C3A C 0.4457(6) 0.7672(5) -1.1035(4)
H1A H 0.4152 0.7241 -1.1736
C4A C 0.3908(6) 0.8612(6) -0.9496(4)
H2A H 0.3232 0.8809 -0.9174
C5A C 0.3481(6) 0.7963(6) -1.0542(4)
O7A O 0.8279(4) 0.8222(5) -1.0516(4)
C6A C 0.6362(7) 0.8661(6) -0.9431(5)
H3A H 0.7335 0.8880 -0.9059
O8A O 0.9140(7) 1.0290(5) -0.1499(3)
C7A C 0.8484(7) 1.4346(6) -0.2796(5)
O9A O 0.6328(6) 1.0293(4) -0.5747(3)
C8A C 0.5375(8) 0.8968(7) -0.8933(5)
C9A C 0.8714(6) 0.9716(6) -0.2427(4)
C10A C 0.7017(7) 0.7744(6) -1.1005(5)
O10A O 0.8592(6) 0.8491(4) -0.2859(3)
C11A C 0.8537(7) 1.2033(6) -0.2654(4)
H4A H 0.9012 1.2414 -0.1956
C12A C 0.8092(7) 1.2838(5) -0.3275(4)
C13A C 0.7352(8) 1.2322(7) -0.4295(5)
H5A H 0.7049 1.2892 -0.4690
C14A C 0.8258(7) 1.0627(5) -0.3097(4)
C15A C 0.4889(9) 1.0173(9) -0.7407(6)
H6A H 0.4245 1.0660 -0.7808
H7A H 0.4322 0.9453 -0.7362
C16A C 0.7538(8) 1.0067(6) -0.4142(5)
H8A H 0.7381 0.9136 -0.4437
C17A C 0.7051(8) 1.0906(6) -0.4748(5)
C18A C 0.5670(10) 1.1101(8) -0.6366(5)
H9A H 0.5010 1.1633 -0.6092
H10A H 0.6389 1.1710 -0.6387
Cd1_2 Cd -0.0000 1.0000 -1.0000
Cd1_3 Cd 0.0000 1.0000 0.0000
Cd1_4 Cd 1.0000 1.0000 -1.0000
Cd2_2 Cd 0.10428(4) 0.29784(4) -0.79823(3)
Cd2_3 Cd 0.10428(4) 1.29784(4) -0.79823(3)
Cd2_4 Cd 0.10428(4) 1.29784(4) 0.20177(3)
Cd2A_2 Cd 0.89572(4) 0.70216(4) -1.20177(3)
Cd2A_3 Cd 0.89572(4) 0.70216(4) -0.20177(3)
Cd2A_4 Cd 0.89572(4) 1.70216(4) -0.20177(3)
O1A_2 O 1.1026(4) 0.8149(4) -0.0697(3)
O4_2 O 1.1840(5) 1.4925(4) 0.3378(3)
O4A_2 O -0.1840(5) 0.5075(4) -1.3378(3)
O5_2 O 1.3348(5) 1.2982(6) 0.1898(4)
O5A_2 O -0.3348(5) 0.7018(6) -1.1898(4)
O6_2 O 1.0991(5) 1.5160(4) 0.1850(3)
O6A_2 O -0.0991(5) 0.4840(4) -1.1850(3)
O7_2 O 1.1721(4) 1.1778(5) 0.0516(4)
O7A_2 O -0.1721(4) 0.8222(5) -1.0516(4)
O7A_3 O 0.8279(4) 0.8222(5) -0.0516(4)
O8_2 O 1.0860(7) 0.9710(5) 0.1499(3)
O10_2 O 1.1408(6) 1.1509(4) 0.2859(3)
O10A_2 O -0.1408(6) 0.8491(4) -1.2859(3)
O11 O 0.780(2) 1.524(2) 0.3471(12)
O12 O 0.8340(18) 1.493(3) 0.0026(16)
O13 O 0.516(2) 1.469(2) 0.402(2)
loop_
_geom_bond_atom_site_label_1
_geom_bond_atom_site_label_2
_geom_bond_site_symmetry_1
_geom_bond_site_symmetry_2
Cd1 O1 1_555 1_555
Cd2 O1 1_555 1_555
O1 C1 1_555 1_555
O2 C8 1_555 1_555
O3 Cd2 1_555 1_555
O4 C7 1_555 1_555
O5 C10 1_555 1_555
C1 O3 1_555 1_555
O6 C7 1_555 1_555
C2 C3 1_555 1_555
C3 H1 1_555 1_555
C4 H2 1_555 1_555
C5 C1 1_555 1_555
O7 C10 1_555 1_555
C6 C2 1_555 1_555
H3 C6 1_555 1_555
O8 C9 1_555 1_555
C7 C12 1_555 1_555
O9 C17 1_555 1_555
C8 C4 1_555 1_555
C9 O10 1_555 1_555
C10 C2 1_555 1_555
O10 Cd2_3 1_555 1_555
C11 H4 1_555 1_555
C12 C11 1_555 1_555
C13 C12 1_555 1_555
H5 C13 1_555 1_555
C14 C9 1_555 1_555
C15 O2 1_555 1_555
H6 C15 1_555 1_555
H7 C15 1_555 1_555
C16 C14 1_555 1_555
H8 C16 1_555 1_555
C17 C13 1_555 1_555
C18 O9 1_555 1_555
H9 C18 1_555 1_555
H10 C18 1_555 1_555
Cd2A O1A 1_555 1_555
O1A C1A 1_555 1_555
O2A C8A 1_555 1_555
O3A Cd2A 1_555 1_555
O4A C7A 1_555 1_555
O5A C10A 1_555 1_555
C1A O3A 1_555 1_555
O6A C7A 1_555 1_555
C2A C3A 1_555 1_555
C3A H1A 1_555 1_555
C4A H2A 1_555 1_555
C5A C1A 1_555 1_555
O7A C10A 1_555 1_555
C6A C2A 1_555 1_555
H3A C6A 1_555 1_555
O8A Cd1 1_555 1_555
C7A C12A 1_555 1_555
O9A C17A 1_555 1_555
C8A C4A 1_555 1_555
C9A O8A 1_555 1_555
C10A C2A 1_555 1_555
O10A C9A 1_555 1_555
C11A H4A 1_555 1_555
C12A C11A 1_555 1_555
C13A C12A 1_555 1_555
H5A C13A 1_555 1_555
C14A C9A 1_555 1_555
C15A O2A 1_555 1_555
H6A C15A 1_555 1_555
H7A C15A 1_555 1_555
C16A C14A 1_555 1_555
H8A C16A 1_555 1_555
C17A C13A 1_555 1_555
C18A O9A 1_555 1_555
H9A C18A 1_555 1_555
H10A C18A 1_555 1_555
Cd1_2 O8 1_555 1_555
Cd1_3 O7 1_555 1_555
Cd1_4 O7A 1_555 1_555
Cd2_2 O4 1_555 1_555
Cd2_4 O5 1_555 1_555
Cd2A_2 O5A 1_555 1_555
Cd2A_3 O10A 1_555 1_555
Cd2A_4 O4A 1_555 1_555
O1A_2 Cd1 1_555 1_555
O4_2 Cd2 1_555 1_555
O4A_2 Cd2A 1_555 1_555
O5_2 Cd2 1_555 1_555
O5A_2 Cd2A 1_555 1_555
O6_2 Cd2 1_555 1_555
O6A_2 Cd2A 1_555 1_555
O7_2 Cd1 1_555 1_555
O7A_2 Cd2A 1_555 1_555
O7A_3 Cd1 1_555 1_555
O8_2 Cd1 1_555 1_555
O10_2 Cd2 1_555 1_555
O10A_2 Cd2A 1_555 1_555
Cd2 O7_2 1_555 1_555
O6 Cd2_2 1_555 1_555
C3 C5 1_555 1_555
C4 C5 1_555 1_555
O7 Cd2_4 1_555 1_555
C6 C8 1_555 1_555
C11 C14 1_555 1_555
C15 C18 1_555 1_555
C16 C17 1_555 1_555
O1A Cd1_2 1_555 1_555
O6A Cd2A_4 1_555 1_555
C3A C5A 1_555 1_555
C4A C5A 1_555 1_555
O7A Cd2A_2 1_555 1_555
C6A C8A 1_555 1_555
C11A C14A 1_555 1_555
C15A C18A 1_555 1_555
C16A C17A 1_555 1_555
Cd1_2 O7A_2 1_555 1_555
Cd2A_3 O1A_2 1_555 1_555
Cd2A_3 O7A_3 1_555 1_555

#END
