
#######################################################################
#
#                 Cambridge Crystallographic Data Centre
#                                CCDC 
#
#######################################################################
#
# If this CIF has been generated from an entry in the Cambridge 
# Structural Database, then it will include bibliographic, chemical, 
# crystal, experimental, refinement or atomic coordinate data resulting 
# from the CCDC's data processing and validation procedures.
#
#######################################################################

data_DAXJET
_chemical_formula_moiety         'C36 H26 Fe8 N30 O1'
_symmetry_cell_setting           rhombohedral
_symmetry_space_group_name_H-M   'R -3 m'
_symmetry_Int_Tables_number      166
_space_group_name_Hall           '-R 3 2"'
loop_
_symmetry_equiv_pos_site_id
_symmetry_equiv_pos_as_xyz
1 x,y,z
2 -y,x-y,z
3 -x+y,-x,z
4 y,x,-z
5 x-y,-y,-z
6 -x,-x+y,-z
7 2/3+x,1/3+y,1/3+z
8 2/3-y,1/3+x-y,1/3+z
9 2/3-x+y,1/3-x,1/3+z
10 2/3+y,1/3+x,1/3-z
11 2/3+x-y,1/3-y,1/3-z
12 2/3-x,1/3-x+y,1/3-z
13 1/3+x,2/3+y,2/3+z
14 1/3-y,2/3+x-y,2/3+z
15 1/3-x+y,2/3-x,2/3+z
16 1/3+y,2/3+x,2/3-z
17 1/3+x-y,2/3-y,2/3-z
18 1/3-x,2/3-x+y,2/3-z
19 -x,-y,-z
20 y,-x+y,-z
21 x-y,x,-z
22 -y,-x,z
23 -x+y,y,z
24 x,x-y,z
25 1/3-x,2/3-y,2/3-z
26 1/3+y,2/3-x+y,2/3-z
27 1/3+x-y,2/3+x,2/3-z
28 1/3-y,2/3-x,2/3+z
29 1/3-x+y,2/3+y,2/3+z
30 1/3+x,2/3+x-y,2/3+z
31 2/3-x,1/3-y,1/3-z
32 2/3+y,1/3-x+y,1/3-z
33 2/3+x-y,1/3+x,1/3-z
34 2/3-y,1/3-x,1/3+z
35 2/3-x+y,1/3+y,1/3+z
36 2/3+x,1/3+x-y,1/3+z
_cell_length_a                   22.505(3)
_cell_length_b                   22.505(3)
_cell_length_c                   7.3716(19)
_cell_angle_alpha                90
_cell_angle_beta                 90
_cell_angle_gamma                120
_cell_volume                     3233.33
loop_
_atom_site_label
_atom_site_type_symbol
_atom_site_fract_x
_atom_site_fract_y
_atom_site_fract_z
O1 O 0.1279(4) 0.2086(3) -0.2238(7)
Fe1 Fe -0.3333 0.3333 -0.6667
Fe2 Fe -0.3333 0.3333 -0.1667
N1 N -0.25695(22) 0.25691(30) -0.5426(5)
N2 N -0.28995(20) 0.28996(27) -0.4951(4)
N3 N -0.29198(19) 0.29198(25) -0.3154(4)
N4 N -0.26076(19) 0.26077(25) -0.2427(4)
C1 C -0.2117(5) 0.1495(6) -0.4788(10)
H3 H -0.2428 0.1374 -0.5776
C2 C -0.2183(5) 0.1579(6) -0.2182(11)
H4 H -0.2539 0.1513 -0.1367
C3 C -0.20198(23) 0.20198(30) -0.3616(7)
C4 C -0.23929(23) 0.23927(30) -0.3860(6)
Fe1I Fe -0.0000 0.0000 0.0000
Fe1K Fe -0.0000 0.9999 0.0000
Fe1I_2 Fe -1.0000 0.0000 0.0000
Fe2I Fe -0.0000 0.0000 -0.5000
Fe2K Fe -0.0000 0.9999 -0.5000
Fe2I_2 Fe -1.0000 0.0000 -0.5000
N1I N -0.07642(30) 0.07638(22) -0.1241(5)
N1A N -0.25691(30) 0.48614(37) -0.5426(5)
N1K N -0.07638(22) 0.84719(37) -0.1241(5)
N1B N -0.48614(37) 0.25695(22) -0.5426(5)
N1J N -0.84719(37) 0.07642(30) -0.1241(5)
N2I N -0.04337(27) 0.04338(20) -0.1716(4)
N2A N -0.28996(27) 0.42009(34) -0.4951(4)
N2K N -0.04338(20) 0.91324(34) -0.1716(4)
N2B N -0.42009(34) 0.28995(20) -0.4951(4)
N2O N -0.37671(27) 0.37672(20) -0.8382(4)
N2P N -0.24658(34) 0.37671(27) -0.8382(4)
N2Q N -0.37672(20) 0.24658(34) -0.8382(4)
N2J N -0.91324(34) 0.04337(27) -0.1716(4)
N3I N -0.04135(25) 0.04135(19) -0.3513(4)
N3A N -0.29198(25) 0.41604(31) -0.3154(4)
N3K N -0.04135(19) 0.91729(31) -0.3513(4)
N3B N -0.41604(31) 0.29198(19) -0.3154(4)
N3O N -0.37469(25) 0.37469(19) -0.0179(4)
N3P N -0.25063(31) 0.37469(25) -0.0179(4)
N3Q N -0.37469(19) 0.25063(31) -0.0179(4)
N3J N -0.91729(31) 0.04135(25) -0.3513(4)
N4I N -0.07256(25) 0.07257(19) -0.4240(4)
N4A N -0.26077(25) 0.47847(31) -0.2427(4)
N4K N -0.07257(19) 0.85486(31) -0.4240(4)
N4B N -0.47847(31) 0.26076(19) -0.2427(4)
N4J N -0.85486(31) 0.07256(25) -0.4240(4)
C1U C -0.1495(6) 0.2117(5) -0.4788(10)
C1I C -0.1838(6) 0.1216(5) -0.1879(10)
C1DA C -0.1216(5) 0.1838(6) -0.1879(10)
C1A C -0.1495(6) 0.6388(8) -0.4788(10)
C1W C -0.2117(5) 0.6388(8) -0.4788(10)
C1K C -0.1216(5) 0.6945(8) -0.1879(10)
C1EA C -0.1838(6) 0.6945(8) -0.1879(10)
C1B C -0.6388(8) 0.2117(5) -0.4788(10)
C1V C -0.6388(8) 0.1495(6) -0.4788(10)
C1J C -0.6945(8) 0.1838(6) -0.1879(10)
C1FA C -0.6945(8) 0.1216(5) -0.1879(10)
H3U H -0.1374 0.2428 -0.5776
H3I H -0.1959 0.0905 -0.0891
H3DA H -0.0905 0.1959 -0.0891
H3A H -0.1374 0.6198 -0.5776
H3W H -0.2428 0.6198 -0.5776
H3K H -0.0905 0.7135 -0.0891
H3EA H -0.1959 0.7135 -0.0891
H3B H -0.6198 0.2428 -0.5776
H3V H -0.6198 0.1374 -0.5776
H3FA H -0.7135 0.0905 -0.0891
H3J H -0.7135 0.1959 -0.0891
C2DA C -0.1150(5) 0.1754(6) -0.4485(11)
C2I C -0.1754(6) 0.1150(5) -0.4485(11)
C2U C -0.1579(6) 0.2183(5) -0.2182(11)
C2A C -0.1579(6) 0.6238(8) -0.2182(11)
C2EA C -0.1754(6) 0.7095(8) -0.4485(11)
C2K C -0.1150(5) 0.7095(8) -0.4485(11)
C2W C -0.2183(5) 0.6238(8) -0.2182(11)
C2B C -0.6238(8) 0.2183(5) -0.2182(11)
C2V C -0.6238(8) 0.1579(6) -0.2182(11)
C2J C -0.7095(8) 0.1754(6) -0.4485(11)
C2FA C -0.7095(8) 0.1150(5) -0.4485(11)
H4I H -0.1820 0.0794 -0.5300
H4DA H -0.0794 0.1820 -0.5300
H4U H -0.1513 0.2539 -0.1367
H4A H -0.1513 0.5948 -0.1367
H4K H -0.0794 0.7385 -0.5300
H4EA H -0.1820 0.7385 -0.5300
H4W H -0.2539 0.5948 -0.1367
H4B H -0.5948 0.2539 -0.1367
H4V H -0.5948 0.1513 -0.1367
H4FA H -0.7385 0.0794 -0.5300
H4J H -0.7385 0.1820 -0.5300
C3I C -0.13135(30) 0.13135(23) -0.3051(7)
C3A C -0.20198(30) 0.59604(38) -0.3616(7)
C3K C -0.13135(23) 0.73729(38) -0.3051(7)
C3B C -0.59604(38) 0.20198(23) -0.3616(7)
C3J C -0.73729(38) 0.13135(30) -0.3051(7)
C4I C -0.09406(30) 0.09404(23) -0.2807(6)
C4A C -0.23927(30) 0.52144(38) -0.3860(6)
C4K C -0.09404(23) 0.81189(38) -0.2807(6)
C4B C -0.52144(38) 0.23929(23) -0.3860(6)
C4J C -0.81189(38) 0.09406(30) -0.2807(6)
loop_
_geom_bond_atom_site_label_1
_geom_bond_atom_site_label_2
_geom_bond_site_symmetry_1
_geom_bond_site_symmetry_2
Fe1 N2 1_555 1_555
Fe2 N3 1_555 1_555
N1 N2 1_555 1_555
N2 N3 1_555 1_555
N3 N4 1_555 1_555
N4 C4 1_555 1_555
C1 H3 1_555 1_555
C2 H4 1_555 1_555
C3 C1 1_555 1_555
C4 N1 1_555 1_555
Fe1I N2I 1_555 1_555
Fe1K N2K 1_555 1_555
Fe1I_2 N2J 1_555 1_555
Fe2I N3I 1_555 1_555
Fe2K N3K 1_555 1_555
Fe2I_2 N3J 1_555 1_555
N1I N2I 1_555 1_555
N1A N2A 1_555 1_555
N1K N2K 1_555 1_555
N1B N2B 1_555 1_555
N1J N2J 1_555 1_555
N2I N3I 1_555 1_555
N2A Fe1 1_555 1_555
N2K N3K 1_555 1_555
N2B Fe1 1_555 1_555
N2O Fe1 1_555 1_555
N2P Fe1 1_555 1_555
N2Q Fe1 1_555 1_555
N2J N3J 1_555 1_555
N3I N4I 1_555 1_555
N3A Fe2 1_555 1_555
N3K N4K 1_555 1_555
N3B Fe2 1_555 1_555
N3O Fe2 1_555 1_555
N3P Fe2 1_555 1_555
N3Q Fe2 1_555 1_555
N3J N4J 1_555 1_555
N4I C4I 1_555 1_555
N4A N3A 1_555 1_555
N4K C4K 1_555 1_555
N4B N3B 1_555 1_555
N4J C4J 1_555 1_555
C1U C1 1_555 1_555
C1I C2 1_555 1_555
C1DA C1I 1_555 1_555
C1A C1W 1_555 1_555
C1W H3W 1_555 1_555
C1K C1EA 1_555 1_555
C1EA H3EA 1_555 1_555
C1B C1V 1_555 1_555
C1V H3V 1_555 1_555
C1J C1FA 1_555 1_555
C1FA H3FA 1_555 1_555
H3U C1U 1_555 1_555
H3I C1I 1_555 1_555
H3DA C1DA 1_555 1_555
H3A C1A 1_555 1_555
H3K C1K 1_555 1_555
H3B C1B 1_555 1_555
H3J C1J 1_555 1_555
C2DA C1U 1_555 1_555
C2I C1 1_555 1_555
C2U C2 1_555 1_555
C2A C1K 1_555 1_555
C2EA C1W 1_555 1_555
C2K C1A 1_555 1_555
C2W C1EA 1_555 1_555
C2B C1J 1_555 1_555
C2V C1FA 1_555 1_555
C2J C1B 1_555 1_555
C2FA C1V 1_555 1_555
H4I C2I 1_555 1_555
H4DA C2DA 1_555 1_555
H4U C2U 1_555 1_555
H4A C2A 1_555 1_555
H4K C2K 1_555 1_555
H4EA C2EA 1_555 1_555
H4W C2W 1_555 1_555
H4B C2B 1_555 1_555
H4V C2V 1_555 1_555
H4FA C2FA 1_555 1_555
H4J C2J 1_555 1_555
C3I C1I 1_555 1_555
C3A C1A 1_555 1_555
C3K C1K 1_555 1_555
C3B C1B 1_555 1_555
C3J C1J 1_555 1_555
C4I N1I 1_555 1_555
C4A N1A 1_555 1_555
C4K N1K 1_555 1_555
C4B N1B 1_555 1_555
C4J N1J 1_555 1_555
C2 C3 1_555 1_555
C3 C4 1_555 1_555
C3 C1U 1_555 1_555
C3 C2U 1_555 1_555
N2A N3A 1_555 1_555
N2B N3B 1_555 1_555
N4A C4A 1_555 1_555
N4B C4B 1_555 1_555
C1DA C2U 1_555 1_555
C1DA C3I 1_555 1_555
C1W C3A 1_555 1_555
C1EA C3K 1_555 1_555
C1V C3B 1_555 1_555
C1FA C3J 1_555 1_555
C2DA C2I 1_555 1_555
C2DA C3I 1_555 1_555
C2I C3I 1_555 1_555
C2A C2W 1_555 1_555
C2A C3A 1_555 1_555
C2EA C2K 1_555 1_555
C2EA C3K 1_555 1_555
C2K C3K 1_555 1_555
C2W C3A 1_555 1_555
C2B C2V 1_555 1_555
C2B C3B 1_555 1_555
C2V C3B 1_555 1_555
C2J C2FA 1_555 1_555
C2J C3J 1_555 1_555
C2FA C3J 1_555 1_555
C3I C4I 1_555 1_555
C3A C4A 1_555 1_555
C3K C4K 1_555 1_555
C3B C4B 1_555 1_555
C3J C4J 1_555 1_555

#END
