
#######################################################################
#
#                 Cambridge Crystallographic Data Centre
#                                CCDC 
#
#######################################################################
#
# If this CIF has been generated from an entry in the Cambridge 
# Structural Database, then it will include bibliographic, chemical, 
# crystal, experimental, refinement or atomic coordinate data resulting 
# from the CCDC's data processing and validation procedures.
#
#######################################################################

data_FEYQUW
_chemical_formula_moiety         '(C28 H36 N2 O14 Pr2)n'
_symmetry_cell_setting           orthorhombic
_symmetry_space_group_name_H-M   'P b c n'
_symmetry_Int_Tables_number      60
_space_group_name_Hall           '-P 2n 2ab'
loop_
_symmetry_equiv_pos_site_id
_symmetry_equiv_pos_as_xyz
1 x,y,z
2 1/2-x,1/2-y,1/2+z
3 -x,y,1/2-z
4 1/2+x,1/2-y,-z
5 -x,-y,-z
6 1/2+x,1/2+y,1/2-z
7 x,-y,1/2+z
8 1/2-x,1/2+y,z
_cell_length_a                   21.9415(10)
_cell_length_b                   7.7878(3)
_cell_length_c                   19.6649(9)
_cell_angle_alpha                90
_cell_angle_beta                 90
_cell_angle_gamma                90
_cell_volume                     3360.26
loop_
_atom_site_label
_atom_site_type_symbol
_atom_site_fract_x
_atom_site_fract_y
_atom_site_fract_z
Pr1 Pr 0.281278(10) 0.57803(2) 0.055639(11)
O1 O 0.16737(14) 0.5539(4) 0.05631(18)
O2 O 0.24907(14) 0.8333(4) -0.01929(15)
O3 O 0.13899(14) 0.2857(4) 0.07558(19)
O4 O 0.32081(18) 0.6691(4) -0.06078(18)
O5 O 0.26276(13) 0.6924(4) -0.37474(15)
O6 O 0.32003(15) 0.5033(4) -0.32475(17)
O7 O 0.37167(14) 0.3912(4) 0.03622(17)
H1 H 0.3624 0.2881 0.0424
H2 H 0.3943 0.3958 -0.0058
C1 C 0.2914(2) 0.8042(6) -0.0629(2)
C2 C 0.12760(19) 0.4404(5) 0.0685(2)
C3 C 0.3538(4) 0.8957(7) -0.1671(3)
C4 C 0.3046(3) 0.9406(6) -0.1149(3)
H3 H 0.3169 1.0441 -0.0912
H4 H 0.2671 0.9663 -0.1390
C5 C 0.06175(19) 0.4955(6) 0.0709(3)
H5 H 0.0591 0.6144 0.0853
H6 H 0.0397 0.4256 0.1035
C6 C 0.2988(2) 0.6493(6) -0.3271(2)
C12 C 0.03345(19) 0.4756(6) 0.0011(3)
H11 H 0.0556 0.5470 -0.0309
H12 H 0.0378 0.3572 -0.0134
C14 C 0.3091(7) 0.7848(16) -0.2150(6)
C15 C 0.3353(6) 0.7816(15) -0.2862(5)
Pr1D Pr -0.281278(10) 0.42197(2) -0.055639(11)
Pr1G Pr 0.218722(10) 1.07803(2) 0.055639(11)
Pr1G_2 Pr 0.218722(10) 0.07803(2) 0.055639(11)
Pr1F Pr 0.281278(10) 0.42197(2) -0.444361(11)
Pr1A Pr 0.218722(10) 0.92197(2) -0.444361(11)
Pr1C Pr -0.218722(10) 0.92197(2) -0.055639(11)
Pr1A_2 Pr 0.218722(10) -0.07803(2) -0.444361(11)
O1D O -0.16737(14) 0.4461(4) -0.05631(18)
O2G O 0.25093(14) 0.3333(4) -0.01929(15)
O2D O -0.24907(14) 0.1667(4) 0.01929(15)
O2C O -0.25093(14) 0.6667(4) 0.01929(15)
O3D O -0.13899(14) 0.7143(4) -0.07558(19)
O3G O 0.36101(14) 0.7857(4) 0.07558(19)
O3C O -0.36101(14) 0.2143(4) -0.07558(19)
O4G O 0.17919(18) 0.1691(4) -0.06078(18)
O4D O -0.32081(18) 0.3309(4) 0.06078(18)
O5G O 0.23724(13) 0.1924(4) -0.37474(15)
O5F O 0.26276(13) 0.3076(4) 0.12526(15)
O5A O 0.23724(13) 0.8076(4) 0.12526(15)
O5E O -0.23724(13) 0.1924(4) -0.12526(15)
O5B O -0.26276(13) 0.6924(4) -0.12526(15)
O6G O 0.17997(15) 0.0033(4) -0.32475(17)
O6F O 0.32003(15) 0.4967(4) 0.17525(17)
O6B O -0.32003(15) 0.5033(4) -0.17525(17)
O7D O -0.37167(14) 0.6088(4) -0.03622(17)
H1D H -0.3624 0.7119 -0.0424
H2D H -0.3943 0.6042 0.0058
C1G C 0.2086(2) 0.3042(6) -0.0629(2)
C2D C -0.12760(19) 0.5596(5) -0.0685(2)
C3G C 0.1462(4) 0.3957(7) -0.1671(3)
C4G C 0.1954(3) 0.4406(6) -0.1149(3)
H3G H 0.1831 0.5441 -0.0912
H4G H 0.2329 0.4663 -0.1390
C5D C -0.06175(19) 0.5045(6) -0.0709(3)
H5D H -0.0591 0.3856 -0.0853
H6D H -0.0397 0.5744 -0.1035
C6G C 0.2012(2) 0.1493(6) -0.3271(2)
C12D C -0.03345(19) 0.5244(6) -0.0011(3)
H11D H -0.0556 0.4530 0.0309
H12D H -0.0378 0.6428 0.0134
C14G C 0.1909(7) 0.2848(16) -0.2150(6)
C15G C 0.1647(6) 0.2816(15) -0.2862(5)
N1 N 0.4367(2) 0.4048(6) 0.9153(2)
C7 C 0.4866(2) 0.4019(6) 0.7850(2)
C8 C 0.5220(2) 0.4383(7) 0.8416(3)
H7 H 0.5633 0.4630 0.8369
C9 C 0.4953(3) 0.4376(7) 0.9046(3)
H8 H 0.5197 0.4616 0.9421
C10 C 0.4255(2) 0.3670(7) 0.7955(3)
H9 H 0.4000 0.3414 0.7591
C11 C 0.4031(2) 0.3710(8) 0.8611(3)
H10 H 0.3619 0.3486 0.8676
N1B N 0.5633(2) 0.4048(6) 0.5847(2)
C7B C 0.5134(2) 0.4019(6) 0.7150(2)
C8B C 0.4780(2) 0.4383(7) 0.6584(3)
H7B H 0.4367 0.4630 0.6631
C9B C 0.5047(3) 0.4376(7) 0.5954(3)
H8B H 0.4803 0.4616 0.5579
C10B C 0.5745(2) 0.3670(7) 0.7045(3)
H9B H 0.6000 0.3414 0.7409
C11B C 0.5969(2) 0.3710(8) 0.6389(3)
H10B H 0.6381 0.3486 0.6324
loop_
_geom_bond_atom_site_label_1
_geom_bond_atom_site_label_2
_geom_bond_site_symmetry_1
_geom_bond_site_symmetry_2
Pr1 O1 1_555 1_555
O1 C2 1_555 1_555
O2 Pr1 1_555 1_555
O3 C2 1_555 1_555
O4 Pr1 1_555 1_555
O5 C6 1_555 1_555
O6 C6 1_555 1_555
O7 Pr1 1_555 1_555
H1 O7 1_555 1_555
H2 O7 1_555 1_555
N1 C9 1_555 1_555
C1 O2 1_555 1_555
C2 C5 1_555 1_555
C3 C4 1_555 1_555
C4 C1 1_555 1_555
H3 C4 1_555 1_555
H4 C4 1_555 1_555
C5 H5 1_555 1_555
H6 C5 1_555 1_555
C6 C15 1_555 1_555
C7 C8 1_555 1_555
C8 H7 1_555 1_555
C9 C8 1_555 1_555
H8 C9 1_555 1_555
C10 C7 1_555 1_555
H9 C10 1_555 1_555
C11 N1 1_555 1_555
H10 C11 1_555 1_555
C12 C5 1_555 1_555
H11 C12 1_555 1_555
H12 C12 1_555 1_555
C14 C3 1_555 1_555
C15 C14 1_555 1_555
Pr1D O1D 1_555 1_555
Pr1G O2 1_555 1_555
Pr1G_2 O3 1_555 1_555
Pr1F O5 1_555 1_555
Pr1A O5 1_555 1_555
Pr1C O2C 1_555 1_555
Pr1A_2 O5G 1_555 1_555
O1D C2D 1_555 1_555
O2G Pr1 1_555 1_555
O2D Pr1D 1_555 1_555
O2C Pr1D 1_555 1_555
O3D Pr1C 1_555 1_555
O3G Pr1 1_555 1_555
O3C Pr1D 1_555 1_555
O4G Pr1G_2 1_555 1_555
O4D Pr1D 1_555 1_555
O5G Pr1F 1_555 1_555
O5F Pr1 1_555 1_555
O5A Pr1 1_555 1_555
O5E Pr1D 1_555 1_555
O5B Pr1D 1_555 1_555
O6G Pr1A_2 1_555 1_555
O6F Pr1 1_555 1_555
O6B Pr1D 1_555 1_555
O7D Pr1D 1_555 1_555
H1D O7D 1_555 1_555
H2D O7D 1_555 1_555
N1B C9B 1_555 1_555
C1G O2G 1_555 1_555
C2D O3D 1_555 1_555
C3G C4G 1_555 1_555
C4G C1G 1_555 1_555
H3G C4G 1_555 1_555
H4G C4G 1_555 1_555
C5D C2D 1_555 1_555
H5D C5D 1_555 1_555
H6D C5D 1_555 1_555
C6G O5G 1_555 1_555
C7B C7 1_555 1_555
C8B C7B 1_555 1_555
H7B C8B 1_555 1_555
C9B C8B 1_555 1_555
H8B C9B 1_555 1_555
C10B C7B 1_555 1_555
H9B C10B 1_555 1_555
C11B N1B 1_555 1_555
H10B C11B 1_555 1_555
C12D C12 1_555 1_555
H11D C12D 1_555 1_555
H12D C12D 1_555 1_555
C14G C3G 1_555 1_555
C15G C6G 1_555 1_555
O4 C1 1_555 1_555
O6 Pr1F 1_555 1_555
C10 C11 1_555 1_555
Pr1G O5A 1_555 1_555
Pr1G_2 O2G 1_555 1_555
Pr1G_2 O5F 1_555 1_555
Pr1C O5B 1_555 1_555
O4G C1G 1_555 1_555
O6G C6G 1_555 1_555
C5D C12D 1_555 1_555
C10B C11B 1_555 1_555
C14G C15G 1_555 1_555

#END
