
#######################################################################
#
#                 Cambridge Crystallographic Data Centre
#                                CCDC 
#
#######################################################################
#
# If this CIF has been generated from an entry in the Cambridge 
# Structural Database, then it will include bibliographic, chemical, 
# crystal, experimental, refinement or atomic coordinate data resulting 
# from the CCDC's data processing and validation procedures.
#
#######################################################################

data_QIKYOA
_chemical_formula_moiety         'C24 H20 Co7 N32 O2'
_symmetry_cell_setting           orthorhombic
_symmetry_space_group_name_H-M   'P n n m'
_symmetry_Int_Tables_number      58
_space_group_name_Hall           '-P 2 2n'
loop_
_symmetry_equiv_pos_site_id
_symmetry_equiv_pos_as_xyz
1 x,y,z
2 -x,-y,z
3 1/2-x,1/2+y,1/2-z
4 1/2+x,1/2-y,1/2-z
5 -x,-y,-z
6 x,y,-z
7 1/2+x,1/2-y,1/2+z
8 1/2-x,1/2+y,1/2+z
_cell_length_a                   12.2143(13)
_cell_length_b                   13.8051(15)
_cell_length_c                   16.5293(17)
_cell_angle_alpha                90
_cell_angle_beta                 90
_cell_angle_gamma                90
_cell_volume                     2787.16
loop_
_atom_site_label
_atom_site_type_symbol
_atom_site_fract_x
_atom_site_fract_y
_atom_site_fract_z
Co1 Co 1.0000 0.0000 0.5000
N1 N 0.9309(5) 0.0915(4) 0.5896(4)
N2 N 1.1313(7) 0.0954(6) 0.5000
N3 N 0.8667(5) 0.0725(4) 0.6537(4)
N4 N 0.9548(5) 0.1849(4) 0.5874(4)
Co2 Co 1.06725(11) 0.23852(9) 0.5000
N5 N 1.2262(8) 0.0731(7) 0.5000
C1 C 0.8537(6) 0.1604(5) 0.6879(5)
N6 N 0.9068(5) 0.2301(5) 0.6488(4)
O1 O 0.9969(7) 0.3743(5) 0.5000
N7 N 0.6723(5) 0.2215(5) 0.9009(4)
C2 C 0.7913(7) 0.1787(6) 0.7614(5)
H1 H 0.9963 0.3972 0.4529
C3 C 0.7535(7) 0.2725(6) 0.7769(5)
C4 C 0.7679(9) 0.1085(6) 0.8183(6)
C5 C 0.6943(7) 0.2899(6) 0.8461(5)
H2 H 0.7684 0.3236 0.7399
H3 H 0.7923 0.0438 0.8107
C6 C 0.7083(8) 0.1334(6) 0.8865(6)
H4 H 0.6678 0.3536 0.8554
H5 H 0.6925 0.0841 0.9249
N8 N 1.3161(12) 0.0541(10) 0.4849(12)
N8E N 1.3161(12) 0.0541(10) 0.5151(12)
H1E H 0.9963 0.3972 0.5471
N1A N 1.0691(5) -0.0915(4) 0.5896(4)
N2A N 0.8687(7) -0.0954(6) 0.5000
N3A N 1.1333(5) -0.0725(4) 0.6537(4)
N4A N 1.0452(5) -0.1849(4) 0.5874(4)
Co2A Co 0.93275(11) -0.23852(9) 0.5000
N5A N 0.7738(8) -0.0731(7) 0.5000
C1A C 1.1463(6) -0.1604(5) 0.6879(5)
N6A N 1.0932(5) -0.2301(5) 0.6488(4)
O1A O 1.0031(7) -0.3743(5) 0.5000
N7A N 1.3277(5) -0.2215(5) 0.9009(4)
C2A C 1.2087(7) -0.1787(6) 0.7614(5)
H1A H 1.0037 -0.3972 0.4529
C3A C 1.2465(7) -0.2725(6) 0.7769(5)
C4A C 1.2321(9) -0.1085(6) 0.8183(6)
C5A C 1.3057(7) -0.2899(6) 0.8461(5)
H2A H 1.2316 -0.3236 0.7399
H3A H 1.2077 -0.0438 0.8107
C6A C 1.2917(8) -0.1334(6) 0.8865(6)
H4A H 1.3322 -0.3536 0.8554
H5A H 1.3075 -0.0841 0.9249
N8A N 0.6839(12) -0.0541(10) 0.4849(12)
N8D N 0.6839(12) -0.0541(10) 0.5151(12)
H1D H 1.0037 -0.3972 0.5471
N1D N 1.0691(5) -0.0915(4) 0.4104(4)
N3D N 1.1333(5) -0.0725(4) 0.3463(4)
N4D N 1.0452(5) -0.1849(4) 0.4126(4)
C1D C 1.1463(6) -0.1604(5) 0.3121(5)
N6D N 1.0932(5) -0.2301(5) 0.3512(4)
N7D N 1.3277(5) -0.2215(5) 0.0991(4)
C2D C 1.2087(7) -0.1787(6) 0.2386(5)
C3D C 1.2465(7) -0.2725(6) 0.2231(5)
C4D C 1.2321(9) -0.1085(6) 0.1817(6)
C5D C 1.3057(7) -0.2899(6) 0.1539(5)
H2D H 1.2316 -0.3236 0.2601
H3D H 1.2077 -0.0438 0.1893
C6D C 1.2917(8) -0.1334(6) 0.1135(6)
H4D H 1.3322 -0.3536 0.1446
H5D H 1.3075 -0.0841 0.0751
N1E N 0.9309(5) 0.0915(4) 0.4104(4)
N3E N 0.8667(5) 0.0725(4) 0.3463(4)
N4E N 0.9548(5) 0.1849(4) 0.4126(4)
C1E C 0.8537(6) 0.1604(5) 0.3121(5)
N6E N 0.9068(5) 0.2301(5) 0.3512(4)
N7E N 0.6723(5) 0.2215(5) 0.0991(4)
C2E C 0.7913(7) 0.1787(6) 0.2386(5)
C3E C 0.7535(7) 0.2725(6) 0.2231(5)
C4E C 0.7679(9) 0.1085(6) 0.1817(6)
C5E C 0.6943(7) 0.2899(6) 0.1539(5)
H2E H 0.7684 0.3236 0.2601
H3E H 0.7923 0.0438 0.1893
C6E C 0.7083(8) 0.1334(6) 0.1135(6)
H4E H 0.6678 0.3536 0.1446
H5E H 0.6925 0.0841 0.0751
Co2B Co 1.43275(11) -0.26148(9) 0.0000
Co2B_2 Co 1.43275(11) -0.26148(9) 1.0000
Co2C Co 0.56725(11) 0.26148(9) 0.0000
Co2C_2 Co 0.56725(11) 0.26148(9) 1.0000
N7B N 0.8277(5) -0.2785(5) 0.5991(4)
N7C N 1.1723(5) 0.2785(5) 0.5991(4)
N7F N 1.1723(5) 0.2785(5) 0.4009(4)
N7G N 0.8277(5) -0.2785(5) 0.4009(4)
loop_
_geom_bond_atom_site_label_1
_geom_bond_atom_site_label_2
_geom_bond_site_symmetry_1
_geom_bond_site_symmetry_2
Co1 N1 1_555 1_555
N1 N3 1_555 1_555
N2 Co1 1_555 1_555
N3 C1 1_555 1_555
N4 N1 1_555 1_555
Co2 N2 1_555 1_555
N5 N2 1_555 1_555
C1 N6 1_555 1_555
N6 N4 1_555 1_555
O1 Co2 1_555 1_555
N7 C5 1_555 1_555
C2 C1 1_555 1_555
H1 O1 1_555 1_555
C3 C2 1_555 1_555
C4 C2 1_555 1_555
C5 C3 1_555 1_555
H2 C3 1_555 1_555
H3 C4 1_555 1_555
C6 N7 1_555 1_555
H4 C5 1_555 1_555
H5 C6 1_555 1_555
N8 N5 1_555 1_555
N8E N5 1_555 1_555
H1E O1 1_555 1_555
N1A Co1 1_555 1_555
N2A Co1 1_555 1_555
N3A N1A 1_555 1_555
N4A N1A 1_555 1_555
Co2A N2A 1_555 1_555
N5A N2A 1_555 1_555
C1A N3A 1_555 1_555
N6A N4A 1_555 1_555
O1A Co2A 1_555 1_555
N7A C5A 1_555 1_555
C2A C1A 1_555 1_555
H1A O1A 1_555 1_555
C3A C2A 1_555 1_555
C4A C2A 1_555 1_555
C5A C3A 1_555 1_555
H2A C3A 1_555 1_555
H3A C4A 1_555 1_555
C6A N7A 1_555 1_555
H4A C5A 1_555 1_555
H5A C6A 1_555 1_555
N8A N5A 1_555 1_555
N8D N5A 1_555 1_555
H1D O1A 1_555 1_555
N1D Co1 1_555 1_555
N3D N1D 1_555 1_555
N4D Co2A 1_555 1_555
C1D N3D 1_555 1_555
N6D N4D 1_555 1_555
N7D C5D 1_555 1_555
C2D C1D 1_555 1_555
C3D C2D 1_555 1_555
C4D C2D 1_555 1_555
C5D C3D 1_555 1_555
H2D C3D 1_555 1_555
H3D C4D 1_555 1_555
C6D N7D 1_555 1_555
H4D C5D 1_555 1_555
H5D C6D 1_555 1_555
N1E Co1 1_555 1_555
N3E N1E 1_555 1_555
N4E Co2 1_555 1_555
C1E N3E 1_555 1_555
N6E N4E 1_555 1_555
N7E C5E 1_555 1_555
C2E C1E 1_555 1_555
C3E C2E 1_555 1_555
C4E C2E 1_555 1_555
C5E C3E 1_555 1_555
H2E C3E 1_555 1_555
H3E C4E 1_555 1_555
C6E N7E 1_555 1_555
H4E C5E 1_555 1_555
H5E C6E 1_555 1_555
Co2B N7D 1_555 1_555
Co2B_2 N7A 1_555 1_555
Co2C N7E 1_555 1_555
Co2C_2 N7 1_555 1_555
N7B Co2A 1_555 1_555
N7C Co2 1_555 1_555
N7F Co2 1_555 1_555
N7G Co2A 1_555 1_555
N4 Co2 1_555 1_555
C4 C6 1_555 1_555
N4A Co2A 1_555 1_555
C1A N6A 1_555 1_555
C4A C6A 1_555 1_555
N1D N4D 1_555 1_555
C1D N6D 1_555 1_555
C4D C6D 1_555 1_555
N1E N4E 1_555 1_555
C1E N6E 1_555 1_555
C4E C6E 1_555 1_555

#END
