
#######################################################################
#
#                 Cambridge Crystallographic Data Centre
#                                CCDC 
#
#######################################################################
#
# If this CIF has been generated from an entry in the Cambridge 
# Structural Database, then it will include bibliographic, chemical, 
# crystal, experimental, refinement or atomic coordinate data resulting 
# from the CCDC's data processing and validation procedures.
#
#######################################################################

data_OJUPEQ
_chemical_formula_moiety         '(C142 H128 N8 O66 Zn8)n'
_symmetry_cell_setting           monoclinic
_symmetry_space_group_name_H-M   'C 2/c'
_symmetry_Int_Tables_number      15
_space_group_name_Hall           '-C 2yc'
loop_
_symmetry_equiv_pos_site_id
_symmetry_equiv_pos_as_xyz
1 x,y,z
2 -x,y,1/2-z
3 1/2+x,1/2+y,z
4 1/2-x,1/2+y,1/2-z
5 -x,-y,-z
6 x,-y,1/2+z
7 1/2-x,1/2-y,-z
8 1/2+x,1/2-y,1/2+z
_cell_length_a                   32.4109(10)
_cell_length_b                   19.2358(10)
_cell_length_c                   31.4795(12)
_cell_angle_alpha                90
_cell_angle_beta                 109.208(2)
_cell_angle_gamma                90
_cell_volume                     18533.3
loop_
_atom_site_label
_atom_site_type_symbol
_atom_site_fract_x
_atom_site_fract_y
_atom_site_fract_z
C1 C 0.35752(9) 0.29037(16) 0.56809(10)
C2 C 0.35278(9) 0.22273(17) 0.58445(10)
C3 C 0.34925(9) 0.16549(16) 0.55644(10)
C4 C 0.35292(9) 0.17400(17) 0.51287(11)
C5 C 0.14254(9) 0.25971(17) 0.50281(10)
C6 C 0.36099(9) 0.29881(16) 0.52557(10)
C7 C 0.15668(9) 0.13928(16) 0.50298(10)
C8 C 0.31585(10) 0.41339(16) 0.51608(10)
C9 C 0.31001(10) 0.39467(16) 0.55948(10)
C10 C 0.33138(10) 0.33854(16) 0.58516(10)
C11 C 0.31137(10) 0.30032(16) 0.61160(9)
C12 C 0.32823(9) 0.22804(17) 0.61634(10)
C13 C 0.29380(10) 0.16666(16) 0.61406(10)
C14 C 0.28959(10) 0.11289(16) 0.57918(10)
C15 C 0.31720(10) 0.11016(16) 0.55385(10)
C16 C 0.30153(10) 0.08538(16) 0.50871(11)
C17 C 0.32725(10) 0.11832(16) 0.48317(11)
C18 C 0.19874(10) 0.35828(17) 0.56780(10)
C19 C 0.19507(10) 0.28416(17) 0.57896(10)
C20 C 0.16724(9) 0.23836(17) 0.54926(10)
C21 C 0.17829(10) 0.16730(17) 0.54882(10)
C22 C 0.21899(10) 0.14421(16) 0.57611(10)
C23 C 0.24443(10) 0.09559(16) 0.55891(10)
C24 C 0.22896(10) 0.07100(15) 0.51495(10)
C25 C 0.25781(10) 0.06806(16) 0.48926(10)
C26 C 0.26647(10) 0.41074(16) 0.55731(10)
C27 C 0.24633(10) 0.37349(17) 0.58336(10)
C28 C 0.26898(10) 0.31625(16) 0.60962(10)
C29 C 0.23697(10) 0.26028(17) 0.60726(10)
C30 C 0.24827(10) 0.19050(17) 0.60702(10)
C31 C 0.35899(10) 0.43415(17) 0.50979(10)
C32 C 0.33751(10) 0.08876(18) 0.44343(11)
C33 C 0.33240(10) 0.17965(17) 0.65499(10)
O1 O 0.40095(8) 0.45410(16) 0.58806(8)
C34 C 0.39972(10) 0.43954(17) 0.55073(11)
O2 O 0.43385(7) 0.42309(12) 0.53814(8)
C35 C 0.47581(10) 0.42067(18) 0.57333(12)
H1 H 0.4752 0.4514 0.5983
H2 H 0.4986 0.4383 0.5615
C36 C 0.48754(10) 0.34756(18) 0.59111(11)
O3 O 0.46279(7) 0.29868(12) 0.57114(8)
O4 O 0.52137(8) 0.34032(13) 0.62416(9)
O5 O 0.33378(8) 0.48356(14) 0.43566(8)
C37 C 0.35592(10) 0.48747(17) 0.47418(11)
O6 O 0.38033(8) 0.54246(12) 0.49288(8)
C38 C 0.38114(13) 0.59628(19) 0.46155(12)
H3 H 0.3961 0.6377 0.4784
H4 H 0.3508 0.6097 0.4442
C39 C 0.40452(11) 0.57353(19) 0.42900(13)
O7 O 0.42402(9) 0.51765(16) 0.43405(10)
O8 O 0.40134(10) 0.61783(14) 0.39827(9)
O9 O 0.39233(8) 0.15631(15) 0.42478(10)
C40 C 0.38258(11) 0.10781(18) 0.44253(11)
O10 O 0.40985(8) 0.05948(14) 0.46721(8)
C41 C 0.45535(11) 0.0673(2) 0.47251(13)
H5 H 0.4581 0.0881 0.4448
H6 H 0.4692 0.0208 0.4764
C42 C 0.47954(11) 0.11297(18) 0.51286(12)
O11 O 0.45765(8) 0.14422(13) 0.53330(8)
O12 O 0.51984(8) 0.11538(16) 0.52055(10)
O13 O 0.3093(15) -0.0244(9) 0.4475(12)
C43 C 0.32423(11) 0.01565(19) 0.42768(13)
O14 O 0.3265(7) 0.0086(7) 0.3864(4)
C44 C 0.3200(6) -0.0605(9) 0.3672(6)
H7 H 0.3047 -0.0578 0.3343
H8 H 0.3020 -0.0885 0.3808
C45 C 0.3651(2) -0.0945(3) 0.3767(2)
O15 O 0.38830(9) -0.10027(15) 0.41619(9)
O16 O 0.37081(14) -0.1183(3) 0.34290(15)
O17 O 0.36834(10) 0.06894(16) 0.65801(14)
C46 C 0.37068(11) 0.12965(19) 0.66627(11)
O18 O 0.40687(8) 0.16498(14) 0.68475(8)
C47 C 0.44799(11) 0.1283(2) 0.69856(12)
H9 H 0.4425 0.0776 0.6960
H10 H 0.4642 0.1391 0.7304
C48 C 0.47522(11) 0.14887(18) 0.66967(11)
O19 O 0.45538(8) 0.17112(14) 0.63078(8)
O20 O 0.51520(8) 0.13888(17) 0.68702(9)
O21 O 0.30065(11) 0.1792(2) 0.71336(10)
C49 C 0.32433(11) 0.20724(19) 0.69677(11)
O22 O 0.34700(9) 0.26429(14) 0.71049(8)
C50 C 0.34787(14) 0.2917(2) 0.75368(13)
H11 H 0.3192 0.2838 0.7577
H12 H 0.3532 0.3425 0.7545
C51 C 0.38357(11) 0.2568(2) 0.79177(12)
O23 O 0.39600(9) 0.19821(15) 0.78480(9)
O24 O 0.39634(9) 0.28899(13) 0.82852(8)
Zn1 Zn 0.48268(2) 0.20253(2) 0.58728(2)
Zn2 Zn 0.58128(2) 0.39082(3) 0.65820(2)
Zn3 Zn 0.57069(2) 0.18291(3) 0.55420(2)
Zn4 Zn 0.56812(2) 0.13607(3) 0.66473(2)
O25 O 0.54642(7) 0.19601(12) 0.60839(8)
O26 O 0.55540(9) 0.49110(14) 0.64182(9)
O27 O 0.56954(12) 0.39205(18) 0.71878(10)
O28 O 0.53497(10) 0.27297(18) 0.51814(10)
C52 C 0.49643(16) 0.2795(3) 0.49372(17)
H13 H 0.4771 0.2426 0.4941
N1 N 0.47917(13) 0.3338(2) 0.46665(13)
C53 C 0.50694(17) 0.3905(3) 0.46158(17)
H14 H 0.5280 0.4021 0.4915
H15 H 0.4886 0.4320 0.4503
C54 C 0.5316(2) 0.3741(3) 0.4304(2)
H16 H 0.5494 0.4143 0.4284
H17 H 0.5110 0.3634 0.4005
H18 H 0.5506 0.3339 0.4419
C55 C 0.43146(16) 0.3357(3) 0.44381(18)
H19 H 0.4202 0.3814 0.4496
H20 H 0.4176 0.2995 0.4570
C56 C 0.4183(2) 0.3245(4) 0.3940(2)
H21 H 0.3864 0.3264 0.3809
H22 H 0.4286 0.2789 0.3880
H23 H 0.4312 0.3609 0.3806
O29 O 0.62114(9) 0.25216(15) 0.58271(11)
O30 O 0.59071(12) 0.1744(2) 0.49730(11)
C57 C 0.6283(5) 0.1547(9) 0.4979(5)
H24 H 0.6444 0.1272 0.5229
N2 N 0.6479(4) 0.1680(8) 0.4678(5)
C58 C 0.6259(6) 0.2138(9) 0.4288(5)
H25 H 0.5939 0.2107 0.4222
H26 H 0.6325 0.1966 0.4021
C59 C 0.6395(8) 0.2881(9) 0.4366(10)
H27 H 0.6248 0.3151 0.4094
H28 H 0.6712 0.2915 0.4436
H29 H 0.6314 0.3064 0.4618
C60 C 0.6960(5) 0.1505(11) 0.4777(6)
H30 H 0.7129 0.1936 0.4785
H31 H 0.7077 0.1272 0.5073
C61 C 0.6997(8) 0.1029(12) 0.4409(8)
H32 H 0.7303 0.0892 0.4474
H33 H 0.6895 0.1274 0.4120
H34 H 0.6818 0.0614 0.4394
O31 O 0.5885(3) 0.0528(5) 0.7183(3)
O32 O 0.64358(11) 0.43506(18) 0.69255(11)
C62 C 0.6718(4) 0.4510(10) 0.6767(5)
H35 H 0.6671 0.4365 0.6467
N3 N 0.7075(3) 0.4855(7) 0.6958(4)
C63 C 0.7323(5) 0.5303(8) 0.6754(5)
H36 H 0.7435 0.5709 0.6951
H37 H 0.7126 0.5479 0.6462
C64 C 0.7688(7) 0.4941(11) 0.6681(9)
H38 H 0.7824 0.5243 0.6514
H39 H 0.7904 0.4821 0.6972
H40 H 0.7582 0.4516 0.6508
C65 C 0.7117(7) 0.5078(10) 0.7462(5)
H41 H 0.6825 0.5135 0.7494
H42 H 0.7280 0.5521 0.7545
C66 C 0.7366(9) 0.4485(13) 0.7758(7)
H43 H 0.7404 0.4587 0.8074
H44 H 0.7202 0.4052 0.7670
H45 H 0.7654 0.4435 0.7721
O33 O 0.53182(19) 0.0489(3) 0.61971(19)
C67 C 0.5236(4) -0.0047(5) 0.6362(4)
H46 H 0.5410 -0.0161 0.6661
N4 N 0.4916(4) -0.0481(5) 0.6143(4)
C68 C 0.4582(4) -0.0293(7) 0.5731(5)
H47 H 0.4700 0.0062 0.5574
H48 H 0.4503 -0.0707 0.5534
C69 C 0.4188(4) -0.0018(8) 0.5801(7)
H49 H 0.4051 0.0327 0.5569
H50 H 0.3982 -0.0399 0.5784
H51 H 0.4267 0.0201 0.6098
C70 C 0.4893(6) -0.1167(7) 0.6345(5)
H52 H 0.5087 -0.1167 0.6662
H53 H 0.4591 -0.1249 0.6342
C71 C 0.5028(6) -0.1756(7) 0.6094(6)
H54 H 0.5066 -0.2184 0.6271
H55 H 0.4801 -0.1826 0.5802
H56 H 0.5304 -0.1636 0.6048
C1F C 0.14248(9) 0.20963(16) 0.43191(10)
C2F C 0.14722(9) 0.27727(17) 0.41555(10)
C3F C 0.15075(9) 0.33451(16) 0.44356(10)
C4F C 0.14708(9) 0.32600(17) 0.48713(11)
C5F C 0.35746(9) 0.24029(17) 0.49719(10)
C6F C 0.13901(9) 0.20119(16) 0.47443(10)
C7F C 0.34332(9) 0.36072(16) 0.49702(10)
C8F C 0.18415(10) 0.08661(16) 0.48392(10)
C9F C 0.18999(10) 0.10533(16) 0.44052(10)
C10F C 0.16862(10) 0.16146(16) 0.41484(10)
C11F C 0.18863(10) 0.19968(16) 0.38840(9)
C12F C 0.17177(9) 0.27196(17) 0.38366(10)
C13F C 0.20620(10) 0.33334(16) 0.38594(10)
C14F C 0.21041(10) 0.38711(16) 0.42082(10)
C15F C 0.18280(10) 0.38984(16) 0.44615(10)
C16F C 0.19847(10) 0.41462(16) 0.49129(11)
C17F C 0.17275(10) 0.38168(16) 0.51683(11)
C18F C 0.30126(10) 0.14172(17) 0.43220(10)
C19F C 0.30493(10) 0.21584(17) 0.42104(10)
C20F C 0.33276(9) 0.26164(17) 0.45074(10)
C21F C 0.32171(10) 0.33270(17) 0.45118(10)
C22F C 0.28101(10) 0.35579(16) 0.42389(10)
C23F C 0.25557(10) 0.40441(16) 0.44109(10)
C24F C 0.27104(10) 0.42900(15) 0.48505(10)
C25F C 0.24219(10) 0.43194(16) 0.51074(10)
C26F C 0.23353(10) 0.08926(16) 0.44269(10)
C27F C 0.25367(10) 0.12651(17) 0.41664(10)
C28F C 0.23102(10) 0.18375(16) 0.39038(10)
C29F C 0.26303(10) 0.23972(17) 0.39274(10)
C30F C 0.25173(10) 0.30950(17) 0.39298(10)
C31F C 0.14101(10) 0.06585(17) 0.49021(10)
C32F C 0.16249(10) 0.41124(18) 0.55657(11)
C33F C 0.16760(10) 0.32035(17) 0.34501(10)
O1F O 0.09905(8) 0.04590(16) 0.41194(8)
C34F C 0.10028(10) 0.06046(17) 0.44927(11)
O2F O 0.06615(7) 0.07691(12) 0.46186(8)
C35F C 0.02419(10) 0.07933(18) 0.42667(12)
H1F H 0.0248 0.0486 0.4017
H2F H 0.0014 0.0617 0.4385
C36F C 0.01246(10) 0.15244(18) 0.40889(11)
O3F O 0.03721(7) 0.20132(12) 0.42886(8)
O4F O -0.02137(8) 0.15968(13) 0.37584(9)
O5F O 0.16622(8) 0.01644(14) 0.56434(8)
C37F C 0.14408(10) 0.01253(17) 0.52582(11)
O6F O 0.11967(8) -0.04246(12) 0.50712(8)
C38F C 0.11886(13) -0.09628(19) 0.53845(12)
H3F H 0.1039 -0.1377 0.5216
H4F H 0.1492 -0.1097 0.5558
C39F C 0.09548(11) -0.07353(19) 0.57100(13)
O7F O 0.07598(9) -0.01765(16) 0.56595(10)
O8F O 0.09866(10) -0.11783(14) 0.60173(9)
O9F O 0.10767(8) 0.34369(15) 0.57522(10)
C40F C 0.11742(11) 0.39219(18) 0.55747(11)
O10F O 0.09015(8) 0.44052(14) 0.53279(8)
C41F C 0.04465(11) 0.4327(2) 0.52749(13)
H5F H 0.0419 0.4119 0.5552
H6F H 0.0308 0.4792 0.5236
C42F C 0.02046(11) 0.38703(18) 0.48714(12)
O11F O 0.04235(8) 0.35578(13) 0.46670(8)
O12F O -0.01984(8) 0.38462(16) 0.47945(10)
O13F O 0.1907(15) 0.5244(9) 0.5525(12)
C43F C 0.17577(11) 0.48435(19) 0.57232(13)
O14F O 0.1735(7) 0.4914(7) 0.6136(4)
C44F C 0.1800(6) 0.5605(9) 0.6328(6)
H7F H 0.1953 0.5578 0.6657
H8F H 0.1980 0.5885 0.6192
C45F C 0.1349(2) 0.5945(3) 0.6233(2)
O15F O 0.11170(9) 0.60027(15) 0.58381(9)
O16F O 0.12919(14) 0.6183(3) 0.65710(15)
O17F O 0.13166(10) 0.43106(16) 0.34199(14)
C46F C 0.12932(11) 0.37035(19) 0.33373(11)
O18F O 0.09313(8) 0.33502(14) 0.31525(8)
C47F C 0.05201(11) 0.3717(2) 0.30144(12)
H9F H 0.0575 0.4224 0.3040
H10F H 0.0358 0.3609 0.2696
C48F C 0.02478(11) 0.35113(18) 0.33033(11)
O19F O 0.04462(8) 0.32888(14) 0.36922(8)
O20F O -0.01520(8) 0.36112(17) 0.31298(9)
O21F O 0.19935(11) 0.3208(2) 0.28664(10)
C49F C 0.17567(11) 0.29276(19) 0.30323(11)
O22F O 0.15300(9) 0.23571(14) 0.28951(8)
C50F C 0.15213(14) 0.2083(2) 0.24632(13)
H11F H 0.1808 0.2162 0.2423
H12F H 0.1468 0.1575 0.2455
C51F C 0.11643(11) 0.2432(2) 0.20823(12)
O23F O 0.10400(9) 0.30179(15) 0.21520(9)
O24F O 0.10366(9) 0.21101(13) 0.17148(8)
Zn1A Zn 0.51732(2) 0.20253(2) 0.91272(2)
Zn2A Zn 0.41872(2) 0.39082(3) 0.84180(2)
Zn3A Zn 0.42931(2) 0.18291(3) 0.94580(2)
Zn4A Zn 0.43188(2) 0.13607(3) 0.83527(2)
O25A O 0.45358(7) 0.19601(12) 0.89161(8)
O26A O 0.44460(9) 0.49110(14) 0.85818(9)
O27A O 0.43046(12) 0.39205(18) 0.78122(10)
O28A O 0.46503(10) 0.27297(18) 0.98186(10)
C52A C 0.50357(16) 0.2795(3) 1.00628(17)
H13A H 0.5229 0.2426 1.0059
N1A N 0.52083(13) 0.3338(2) 1.03335(13)
C53A C 0.49306(17) 0.3905(3) 1.03842(17)
H14A H 0.4720 0.4021 1.0085
H15A H 0.5114 0.4320 1.0497
C54A C 0.4684(2) 0.3741(3) 1.0696(2)
H16A H 0.4506 0.4143 1.0716
H17A H 0.4890 0.3634 1.0995
H18A H 0.4494 0.3339 1.0581
C55A C 0.56854(16) 0.3357(3) 1.05619(18)
H19A H 0.5798 0.3814 1.0504
H20A H 0.5824 0.2995 1.0430
C56A C 0.5817(2) 0.3245(4) 1.1060(2)
H21A H 0.6136 0.3264 1.1191
H22A H 0.5714 0.2789 1.1120
H23A H 0.5688 0.3609 1.1194
O29A O 0.37886(9) 0.25216(15) 0.91729(11)
O30A O 0.40929(12) 0.1744(2) 1.00270(11)
C57A C 0.3717(5) 0.1547(9) 1.0021(5)
H24A H 0.3556 0.1272 0.9771
N2A N 0.3521(4) 0.1680(8) 1.0322(5)
C58A C 0.3741(6) 0.2138(9) 1.0712(5)
H25A H 0.4061 0.2107 1.0778
H26A H 0.3675 0.1966 1.0979
C59A C 0.3605(8) 0.2881(9) 1.0634(10)
H27A H 0.3752 0.3151 1.0906
H28A H 0.3288 0.2915 1.0564
H29A H 0.3686 0.3064 1.0382
C60A C 0.3040(5) 0.1505(11) 1.0223(6)
H30A H 0.2871 0.1936 1.0215
H31A H 0.2923 0.1272 0.9927
C61A C 0.3003(8) 0.1029(12) 1.0591(8)
H32A H 0.2697 0.0892 1.0526
H33A H 0.3105 0.1274 1.0880
H34A H 0.3182 0.0614 1.0606
O31A O 0.4115(3) 0.0528(5) 0.7817(3)
O32A O 0.35642(11) 0.43506(18) 0.80745(11)
C62A C 0.3282(4) 0.4510(10) 0.8233(5)
H35A H 0.3329 0.4365 0.8533
N3A N 0.2925(3) 0.4855(7) 0.8042(4)
C63A C 0.2677(5) 0.5303(8) 0.8246(5)
H36A H 0.2565 0.5709 0.8049
H37A H 0.2874 0.5479 0.8538
C64A C 0.2312(7) 0.4941(11) 0.8319(9)
H38A H 0.2176 0.5243 0.8486
H39A H 0.2096 0.4821 0.8028
H40A H 0.2418 0.4516 0.8492
C65A C 0.2883(7) 0.5078(10) 0.7538(5)
H41A H 0.3175 0.5135 0.7506
H42A H 0.2720 0.5521 0.7455
C66A C 0.2634(9) 0.4485(13) 0.7242(7)
H43A H 0.2596 0.4587 0.6926
H44A H 0.2798 0.4052 0.7330
H45A H 0.2346 0.4435 0.7279
O33A O 0.46818(19) 0.0489(3) 0.88029(19)
C67A C 0.4764(4) -0.0047(5) 0.8638(4)
H46A H 0.4590 -0.0161 0.8339
N4A N 0.5084(4) -0.0481(5) 0.8857(4)
C68A C 0.5418(4) -0.0293(7) 0.9269(5)
H47A H 0.5300 0.0062 0.9426
H48A H 0.5497 -0.0707 0.9466
C69A C 0.5812(4) -0.0018(8) 0.9199(7)
H49A H 0.5949 0.0327 0.9431
H50A H 0.6018 -0.0399 0.9216
H51A H 0.5733 0.0201 0.8902
C70A C 0.5107(6) -0.1167(7) 0.8655(5)
H52A H 0.4913 -0.1167 0.8338
H53A H 0.5409 -0.1249 0.8658
C71A C 0.4972(6) -0.1756(7) 0.8906(6)
H54A H 0.4934 -0.2184 0.8729
H55A H 0.5199 -0.1826 0.9198
H56A H 0.4696 -0.1636 0.8952
O3A O 0.53721(7) 0.29868(12) 0.92886(8)
O4A O 0.47863(8) 0.34032(13) 0.87584(9)
O8D O 0.59866(10) 0.38217(14) 0.60173(9)
O8E O 0.40134(10) 0.38217(14) 0.89827(9)
O11A O 0.54235(8) 0.14422(13) 0.96670(8)
O12A O 0.48016(8) 0.11538(16) 0.97945(10)
O15D O 0.61170(9) 0.10027(15) 0.58381(9)
O15E O 0.38830(9) 0.10027(15) 0.91619(9)
O16D O 0.62919(14) 0.1183(3) 0.65710(15)
O16E O 0.37081(14) 0.1183(3) 0.84290(15)
O19A O 0.54462(8) 0.17112(14) 0.86922(8)
O20A O 0.48480(8) 0.13888(17) 0.81298(9)
O23A O 0.60400(9) 0.19821(15) 0.71520(9)
O24A O 0.60366(9) 0.28899(13) 0.67148(8)
Zn1F Zn 0.01732(2) 0.29747(2) 0.41272(2)
Zn2B Zn 0.08128(2) -0.10918(3) 0.65820(2)
Zn2D Zn 0.41872(2) 0.60918(3) 0.34180(2)
Zn2F Zn -0.08128(2) 0.10918(3) 0.34180(2)
Zn2G Zn 0.08128(2) 0.10918(3) 0.15820(2)
Zn3B Zn 0.07069(2) 0.68291(3) 0.55420(2)
Zn3D Zn 0.42931(2) -0.18291(3) 0.44580(2)
Zn3F Zn -0.07069(2) 0.31709(3) 0.44580(2)
Zn4B Zn 0.06812(2) 0.63607(3) 0.66473(2)
Zn4D Zn 0.43188(2) -0.13607(3) 0.33527(2)
Zn4F Zn -0.06812(2) 0.36393(3) 0.33527(2)
Zn4G Zn 0.06812(2) 0.36393(3) 0.16473(2)
loop_
_geom_bond_atom_site_label_1
_geom_bond_atom_site_label_2
_geom_bond_site_symmetry_1
_geom_bond_site_symmetry_2
C1 C2 1_555 1_555
C2 C3 1_555 1_555
C3 C4 1_555 1_555
C4 C17 1_555 1_555
C5 C20 1_555 1_555
C6 C1 1_555 1_555
C7 C21 1_555 1_555
C8 C9 1_555 1_555
C9 C10 1_555 1_555
C10 C1 1_555 1_555
C11 C10 1_555 1_555
C12 C2 1_555 1_555
C13 C12 1_555 1_555
C14 C13 1_555 1_555
C15 C3 1_555 1_555
C16 C15 1_555 1_555
C17 C16 1_555 1_555
C18 C19 1_555 1_555
C19 C20 1_555 1_555
C20 C21 1_555 1_555
C21 C22 1_555 1_555
C22 C23 1_555 1_555
C23 C14 1_555 1_555
C24 C23 1_555 1_555
C25 C16 1_555 1_555
C26 C9 1_555 1_555
C27 C18 1_555 1_555
C28 C11 1_555 1_555
C29 C19 1_555 1_555
C30 C13 1_555 1_555
C31 C8 1_555 1_555
C32 C17 1_555 1_555
C33 C12 1_555 1_555
O1 C34 1_555 1_555
C34 C31 1_555 1_555
O2 C34 1_555 1_555
C35 O2 1_555 1_555
H1 C35 1_555 1_555
H2 C35 1_555 1_555
C36 C35 1_555 1_555
O3 C36 1_555 1_555
O4 C36 1_555 1_555
O5 C37 1_555 1_555
C37 C31 1_555 1_555
O6 C37 1_555 1_555
C38 O6 1_555 1_555
H3 C38 1_555 1_555
H4 C38 1_555 1_555
C39 C38 1_555 1_555
O7 C39 1_555 1_555
O8 C39 1_555 1_555
O9 C40 1_555 1_555
C40 C32 1_555 1_555
O10 C40 1_555 1_555
C41 O10 1_555 1_555
H5 C41 1_555 1_555
H6 C41 1_555 1_555
C42 C41 1_555 1_555
O11 C42 1_555 1_555
O12 C42 1_555 1_555
O13 C43 1_555 1_555
C43 C32 1_555 1_555
O14 C43 1_555 1_555
C44 O14 1_555 1_555
H7 C44 1_555 1_555
H8 C44 1_555 1_555
C45 C44 1_555 1_555
O15 C45 1_555 1_555
O16 C45 1_555 1_555
O17 C46 1_555 1_555
C46 C33 1_555 1_555
O18 C46 1_555 1_555
C47 O18 1_555 1_555
H9 C47 1_555 1_555
H10 C47 1_555 1_555
C48 C47 1_555 1_555
O19 C48 1_555 1_555
O20 C48 1_555 1_555
O21 C49 1_555 1_555
C49 C33 1_555 1_555
O22 C49 1_555 1_555
C50 O22 1_555 1_555
H11 C50 1_555 1_555
H12 C50 1_555 1_555
C51 C50 1_555 1_555
O23 C51 1_555 1_555
O24 C51 1_555 1_555
Zn1 O3 1_555 1_555
Zn2 O4 1_555 1_555
Zn3 O12 1_555 1_555
Zn4 O20 1_555 1_555
O25 Zn1 1_555 1_555
O26 Zn2 1_555 1_555
O27 Zn2 1_555 1_555
O28 Zn3 1_555 1_555
C52 O28 1_555 1_555
H13 C52 1_555 1_555
N1 C52 1_555 1_555
C53 N1 1_555 1_555
H14 C53 1_555 1_555
H15 C53 1_555 1_555
C54 C53 1_555 1_555
H16 C54 1_555 1_555
H17 C54 1_555 1_555
H18 C54 1_555 1_555
C55 N1 1_555 1_555
H19 C55 1_555 1_555
H20 C55 1_555 1_555
C56 C55 1_555 1_555
H21 C56 1_555 1_555
H22 C56 1_555 1_555
H23 C56 1_555 1_555
O29 Zn3 1_555 1_555
O30 Zn3 1_555 1_555
C57 O30 1_555 1_555
H24 C57 1_555 1_555
N2 C57 1_555 1_555
C58 N2 1_555 1_555
H25 C58 1_555 1_555
H26 C58 1_555 1_555
C59 C58 1_555 1_555
H27 C59 1_555 1_555
H28 C59 1_555 1_555
H29 C59 1_555 1_555
C60 N2 1_555 1_555
H30 C60 1_555 1_555
H31 C60 1_555 1_555
C61 C60 1_555 1_555
H32 C61 1_555 1_555
H33 C61 1_555 1_555
H34 C61 1_555 1_555
O31 Zn4 1_555 1_555
O32 Zn2 1_555 1_555
C62 O32 1_555 1_555
H35 C62 1_555 1_555
N3 C62 1_555 1_555
C63 N3 1_555 1_555
H36 C63 1_555 1_555
H37 C63 1_555 1_555
C64 C63 1_555 1_555
H38 C64 1_555 1_555
H39 C64 1_555 1_555
H40 C64 1_555 1_555
C65 N3 1_555 1_555
H41 C65 1_555 1_555
H42 C65 1_555 1_555
C66 C65 1_555 1_555
H43 C66 1_555 1_555
H44 C66 1_555 1_555
H45 C66 1_555 1_555
O33 Zn4 1_555 1_555
C67 O33 1_555 1_555
H46 C67 1_555 1_555
N4 C67 1_555 1_555
C68 N4 1_555 1_555
H47 C68 1_555 1_555
H48 C68 1_555 1_555
C69 C68 1_555 1_555
H49 C69 1_555 1_555
H50 C69 1_555 1_555
H51 C69 1_555 1_555
C70 N4 1_555 1_555
H52 C70 1_555 1_555
H53 C70 1_555 1_555
C71 C70 1_555 1_555
H54 C71 1_555 1_555
H55 C71 1_555 1_555
H56 C71 1_555 1_555
C1F C2F 1_555 1_555
C2F C3F 1_555 1_555
C3F C4F 1_555 1_555
C4F C5 1_555 1_555
C5F C4 1_555 1_555
C6F C5 1_555 1_555
C7F C6 1_555 1_555
C8F C7 1_555 1_555
C9F C8F 1_555 1_555
C10F C1F 1_555 1_555
C11F C10F 1_555 1_555
C12F C2F 1_555 1_555
C13F C12F 1_555 1_555
C14F C13F 1_555 1_555
C15F C3F 1_555 1_555
C16F C15F 1_555 1_555
C17F C18 1_555 1_555
C18F C17 1_555 1_555
C19F C18F 1_555 1_555
C20F C5F 1_555 1_555
C21F C7F 1_555 1_555
C22F C21F 1_555 1_555
C23F C14F 1_555 1_555
C24F C8 1_555 1_555
C25F C26 1_555 1_555
C26F C25 1_555 1_555
C27F C18F 1_555 1_555
C28F C11F 1_555 1_555
C29F C19F 1_555 1_555
C30F C13F 1_555 1_555
C31F C7 1_555 1_555
C32F C18 1_555 1_555
C33F C12F 1_555 1_555
O1F C34F 1_555 1_555
C34F C31F 1_555 1_555
O2F C34F 1_555 1_555
C35F O2F 1_555 1_555
H1F C35F 1_555 1_555
H2F C35F 1_555 1_555
C36F C35F 1_555 1_555
O3F C36F 1_555 1_555
O4F C36F 1_555 1_555
O5F C37F 1_555 1_555
C37F C31F 1_555 1_555
O6F C37F 1_555 1_555
C38F O6F 1_555 1_555
H3F C38F 1_555 1_555
H4F C38F 1_555 1_555
C39F C38F 1_555 1_555
O7F C39F 1_555 1_555
O8F C39F 1_555 1_555
O9F C40F 1_555 1_555
C40F C32F 1_555 1_555
O10F C40F 1_555 1_555
C41F O10F 1_555 1_555
H5F C41F 1_555 1_555
H6F C41F 1_555 1_555
C42F C41F 1_555 1_555
O11F C42F 1_555 1_555
O12F C42F 1_555 1_555
O13F C43F 1_555 1_555
C43F C32F 1_555 1_555
O14F C43F 1_555 1_555
C44F O14F 1_555 1_555
H7F C44F 1_555 1_555
H8F C44F 1_555 1_555
C45F C44F 1_555 1_555
O15F C45F 1_555 1_555
O16F C45F 1_555 1_555
O17F C46F 1_555 1_555
C46F C33F 1_555 1_555
O18F C46F 1_555 1_555
C47F O18F 1_555 1_555
H9F C47F 1_555 1_555
H10F C47F 1_555 1_555
C48F C47F 1_555 1_555
O19F C48F 1_555 1_555
O20F C48F 1_555 1_555
O21F C49F 1_555 1_555
C49F C33F 1_555 1_555
O22F C49F 1_555 1_555
C50F O22F 1_555 1_555
H11F C50F 1_555 1_555
H12F C50F 1_555 1_555
C51F C50F 1_555 1_555
O23F C51F 1_555 1_555
O24F C51F 1_555 1_555
Zn1A O25A 1_555 1_555
Zn2A O24 1_555 1_555
Zn3A O25A 1_555 1_555
Zn4A O23 1_555 1_555
O25A Zn4A 1_555 1_555
O26A Zn2A 1_555 1_555
O27A Zn2A 1_555 1_555
O28A Zn3A 1_555 1_555
C52A O28A 1_555 1_555
H13A C52A 1_555 1_555
N1A C52A 1_555 1_555
C53A N1A 1_555 1_555
H14A C53A 1_555 1_555
H15A C53A 1_555 1_555
C54A C53A 1_555 1_555
H16A C54A 1_555 1_555
H17A C54A 1_555 1_555
H18A C54A 1_555 1_555
C55A N1A 1_555 1_555
H19A C55A 1_555 1_555
H20A C55A 1_555 1_555
C56A C55A 1_555 1_555
H21A C56A 1_555 1_555
H22A C56A 1_555 1_555
H23A C56A 1_555 1_555
O29A Zn3A 1_555 1_555
O30A Zn3A 1_555 1_555
C57A O30A 1_555 1_555
H24A C57A 1_555 1_555
N2A C57A 1_555 1_555
C58A N2A 1_555 1_555
H25A C58A 1_555 1_555
H26A C58A 1_555 1_555
C59A C58A 1_555 1_555
H27A C59A 1_555 1_555
H28A C59A 1_555 1_555
H29A C59A 1_555 1_555
C60A N2A 1_555 1_555
H30A C60A 1_555 1_555
H31A C60A 1_555 1_555
C61A C60A 1_555 1_555
H32A C61A 1_555 1_555
H33A C61A 1_555 1_555
H34A C61A 1_555 1_555
O31A Zn4A 1_555 1_555
O32A Zn2A 1_555 1_555
C62A O32A 1_555 1_555
H35A C62A 1_555 1_555
N3A C62A 1_555 1_555
C63A N3A 1_555 1_555
H36A C63A 1_555 1_555
H37A C63A 1_555 1_555
C64A C63A 1_555 1_555
H38A C64A 1_555 1_555
H39A C64A 1_555 1_555
H40A C64A 1_555 1_555
C65A N3A 1_555 1_555
H41A C65A 1_555 1_555
H42A C65A 1_555 1_555
C66A C65A 1_555 1_555
H43A C66A 1_555 1_555
H44A C66A 1_555 1_555
H45A C66A 1_555 1_555
O33A Zn4A 1_555 1_555
C67A O33A 1_555 1_555
H46A C67A 1_555 1_555
N4A C67A 1_555 1_555
C68A N4A 1_555 1_555
H47A C68A 1_555 1_555
H48A C68A 1_555 1_555
C69A C68A 1_555 1_555
H49A C69A 1_555 1_555
H50A C69A 1_555 1_555
H51A C69A 1_555 1_555
C70A N4A 1_555 1_555
H52A C70A 1_555 1_555
H53A C70A 1_555 1_555
C71A C70A 1_555 1_555
H54A C71A 1_555 1_555
H55A C71A 1_555 1_555
H56A C71A 1_555 1_555
O3A Zn1A 1_555 1_555
O4A Zn2A 1_555 1_555
O8D Zn2 1_555 1_555
O8E Zn2A 1_555 1_555
O11A Zn1A 1_555 1_555
O12A Zn3A 1_555 1_555
O15D Zn3 1_555 1_555
O15E Zn3A 1_555 1_555
O16D Zn4 1_555 1_555
O16E Zn4A 1_555 1_555
O19A Zn1A 1_555 1_555
O20A Zn4A 1_555 1_555
O23A Zn4 1_555 1_555
O24A Zn2 1_555 1_555
Zn1F O3F 1_555 1_555
Zn2B O8F 1_555 1_555
Zn2D O8 1_555 1_555
Zn2F O4F 1_555 1_555
Zn2G O24F 1_555 1_555
Zn3B O15F 1_555 1_555
Zn3D O15 1_555 1_555
Zn3F O12F 1_555 1_555
Zn4B O16F 1_555 1_555
Zn4D O16 1_555 1_555
Zn4F O20F 1_555 1_555
Zn4G O23F 1_555 1_555
C6 C5F 1_555 1_555
C7 C6F 1_555 1_555
C8 C7F 1_555 1_555
C11 C12 1_555 1_555
C13 C33 1_555 1_555
C14 C15 1_555 1_555
C22 C30 1_555 1_555
C24 C25 1_555 1_555
C24 C8F 1_555 1_555
C26 C27 1_555 1_555
C27 C28 1_555 1_555
C28 C29 1_555 1_555
C29 C30 1_555 1_555
C31 C7F 1_555 1_555
C32 C18F 1_555 1_555
O11 Zn1 1_555 1_555
O19 Zn1 1_555 1_555
Zn3 O25 1_555 1_555
Zn4 O25 1_555 1_555
C1F C6F 1_555 1_555
C4F C17F 1_555 1_555
C8F C31F 1_555 1_555
C9F C10F 1_555 1_555
C9F C26F 1_555 1_555
C11F C12F 1_555 1_555
C13F C33F 1_555 1_555
C14F C15F 1_555 1_555
C16F C17F 1_555 1_555
C16F C25F 1_555 1_555
C17F C32F 1_555 1_555
C19F C20F 1_555 1_555
C20F C21F 1_555 1_555
C22F C23F 1_555 1_555
C22F C30F 1_555 1_555
C23F C24F 1_555 1_555
C24F C25F 1_555 1_555
C26F C27F 1_555 1_555
C27F C28F 1_555 1_555
C28F C29F 1_555 1_555
C29F C30F 1_555 1_555
O11F Zn1F 1_555 1_555
O19F Zn1F 1_555 1_555

#END
