
#######################################################################
#
#                 Cambridge Crystallographic Data Centre
#                                CCDC 
#
#######################################################################
#
# If this CIF has been generated from an entry in the Cambridge 
# Structural Database, then it will include bibliographic, chemical, 
# crystal, experimental, refinement or atomic coordinate data resulting 
# from the CCDC's data processing and validation procedures.
#
#######################################################################

data_OJUPIU
_chemical_formula_moiety         'C144 H114 N6 O77 Zn33'
_symmetry_cell_setting           rhombohedral
_symmetry_space_group_name_H-M   'R -3'
_symmetry_Int_Tables_number      148
_space_group_name_Hall           '-R 3'
loop_
_symmetry_equiv_pos_site_id
_symmetry_equiv_pos_as_xyz
1 x,y,z
2 -y,x-y,z
3 -x+y,-x,z
4 2/3+x,1/3+y,1/3+z
5 2/3-y,1/3+x-y,1/3+z
6 2/3-x+y,1/3-x,1/3+z
7 1/3+x,2/3+y,2/3+z
8 1/3-y,2/3+x-y,2/3+z
9 1/3-x+y,2/3-x,2/3+z
10 -x,-y,-z
11 y,-x+y,-z
12 x-y,x,-z
13 1/3-x,2/3-y,2/3-z
14 1/3+y,2/3-x+y,2/3-z
15 1/3+x-y,2/3+x,2/3-z
16 2/3-x,1/3-y,1/3-z
17 2/3+y,1/3-x+y,1/3-z
18 2/3+x-y,1/3+x,1/3-z
_cell_length_a                   18.4160(4)
_cell_length_b                   18.4160(4)
_cell_length_c                   54.0709(12)
_cell_angle_alpha                90
_cell_angle_beta                 90
_cell_angle_gamma                120
_cell_volume                     15881.3
loop_
_atom_site_label
_atom_site_type_symbol
_atom_site_fract_x
_atom_site_fract_y
_atom_site_fract_z
C1 C 0.52587(18) 0.39852(18) 0.30292(5)
C2 C 0.50062(17) 0.37780(18) 0.32930(5)
C3 C 0.55964(18) 0.44406(18) 0.34431(5)
C4 C 0.57322(18) 0.42792(18) 0.36856(5)
C5 C 0.53098(18) 0.34413(19) 0.37756(5)
C6 C 0.47296(17) 0.27887(19) 0.36289(5)
C7 C 0.46005(17) 0.29645(18) 0.33807(5)
C8 C 0.59065(19) 0.3334(2) 0.39317(5)
C9 C 0.66762(19) 0.41049(19) 0.39373(5)
C10 C 0.65654(19) 0.47494(18) 0.38088(5)
C11 C 0.7034(2) 0.56874(19) 0.38584(5)
O1 O 0.6493(2) 0.6449(2) 0.36333(5)
C12 C 0.6532(2) 0.61220(19) 0.38179(6)
O2 O 0.6119(2) 0.6063(2) 0.40206(5)
C13 C 0.5588(3) 0.6443(3) 0.40186(8)
H1 H 0.5136 0.6164 0.3897
H2 H 0.5918 0.7040 0.3977
C14 C 0.5244(4) 0.6331(5) 0.42701(9)
H3 H 0.5695 0.6696 0.4384
H4 H 0.5035 0.5750 0.4322
C15 C 0.4537(3) 0.6528(3) 0.42900(8)
O3 O 0.4353(2) 0.6796(2) 0.41089(7)
O4 O 0.4201(2) 0.6410(3) 0.45000(6)
O5 O 0.7743(15) 0.5646(14) 0.4231(3)
C16 C 0.7621(2) 0.6033(2) 0.40771(6)
O6 O 0.807(2) 0.6849(6) 0.4052(3)
C17 C 0.8589(12) 0.7371(15) 0.4257(5)
H5 H 0.9098 0.7855 0.4192
H6 H 0.8755 0.7047 0.4362
C18 C 0.8108(13) 0.7661(17) 0.4402(4)
H7 H 0.7650 0.7184 0.4489
H8 H 0.7861 0.7900 0.4291
C19 C 0.8690(11) 0.8344(14) 0.4597(4)
O7 O 0.9376(6) 0.8414(12) 0.4644(3)
O8 O 0.8380(6) 0.8757(7) 0.46900(19)
Zn1 Zn 0.3333 0.6667 0.45621(2)
Zn2 Zn 0.3333 0.6667 0.39076(2)
O9 O 0.3333 0.6667 0.49241(9)
O10 O 0.3469(4) 0.5842(4) 0.36850(10)
O11 O 1.0000 1.0000 0.5000
Zn3 Zn 0.91122(7) 0.88806(7) 0.51049(2)
C20 C 0.3215(12) 0.5132(12) 0.3749(4)
H9 H 0.2904 0.4938 0.3896
N1 N 0.3366(11) 0.4616(10) 0.3615(3)
C21 C 0.3424(16) 0.4777(15) 0.3352(3)
H10 H 0.3195 0.4220 0.3277
H11 H 0.3004 0.4945 0.3321
C22 C 0.4114(19) 0.5318(18) 0.3191(5)
H12 H 0.3913 0.5260 0.3022
H13 H 0.4348 0.5895 0.3244
H14 H 0.4543 0.5159 0.3199
C23 C 0.3559(13) 0.4029(12) 0.3750(4)
H15 H 0.4059 0.4065 0.3673
H16 H 0.3711 0.4235 0.3919
C24 C 0.2925(17) 0.3151(14) 0.3762(6)
H17 H 0.3140 0.2849 0.3855
H18 H 0.2430 0.3094 0.3844
H19 H 0.2780 0.2923 0.3596
C1A C 0.60148(18) 0.12735(25) 0.30292(5)
C2A C 0.62220(18) 0.12282(25) 0.32930(5)
C3A C 0.55594(18) 0.11558(25) 0.34431(5)
C4A C 0.57208(18) 0.14530(25) 0.36856(5)
C5A C 0.65587(19) 0.18685(26) 0.37756(5)
C6A C 0.72113(19) 0.19409(25) 0.36289(5)
C7A C 0.70355(18) 0.16360(25) 0.33807(5)
C8A C 0.6666(2) 0.25725(28) 0.39317(5)
C9A C 0.58951(19) 0.25713(27) 0.39373(5)
C10A C 0.52506(18) 0.18160(26) 0.38088(5)
C11A C 0.43126(19) 0.13466(28) 0.38584(5)
O1A O 0.3551(2) 0.0044(3) 0.36333(5)
C12A C 0.38780(19) 0.04100(28) 0.38179(6)
O2A O 0.3937(2) 0.0056(3) 0.40206(5)
C13A C 0.3557(3) -0.0855(4) 0.40186(8)
H1A H 0.3836 -0.1028 0.3897
H2A H 0.2960 -0.1122 0.3977
C14A C 0.3669(5) -0.1087(6) 0.42701(9)
H3A H 0.3304 -0.1001 0.4384
H4A H 0.4250 -0.0715 0.4322
C15A C 0.3472(3) -0.1991(4) 0.42900(8)
O3A O 0.3204(2) -0.2443(3) 0.41089(7)
O4A O 0.3590(3) -0.2209(4) 0.45000(6)
O5A O 0.4354(14) 0.2097(21) 0.4231(3)
C16A C 0.3967(2) 0.1588(3) 0.40771(6)
O6A O 0.3151(6) 0.1221(21) 0.4052(3)
C17A C 0.2629(15) 0.1218(19) 0.4257(5)
H5A H 0.2145 0.1243 0.4192
H6A H 0.2953 0.1708 0.4362
C18A C 0.2339(17) 0.0447(21) 0.4402(4)
H7A H 0.2816 0.0466 0.4489
H8A H 0.2100 -0.0039 0.4291
C19A C 0.1656(14) 0.0346(18) 0.4597(4)
O7A O 0.1586(12) 0.0962(13) 0.4644(3)
O8A O 0.1243(7) -0.0377(9) 0.46900(19)
C1B C 0.87265(25) 0.47413(18) 0.30292(5)
C2B C 0.87718(25) 0.49938(17) 0.32930(5)
C3B C 0.88442(25) 0.44036(18) 0.34431(5)
C4B C 0.85470(25) 0.42678(18) 0.36856(5)
C5B C 0.81315(26) 0.46902(18) 0.37756(5)
C6B C 0.80591(25) 0.52704(17) 0.36289(5)
C7B C 0.83640(25) 0.53995(17) 0.33807(5)
C8B C 0.74275(28) 0.40935(19) 0.39317(5)
C9B C 0.74287(27) 0.33238(19) 0.39373(5)
C10B C 0.81840(26) 0.34346(19) 0.38088(5)
C11B C 0.86534(28) 0.2966(2) 0.38584(5)
O1B O 0.9956(3) 0.3507(2) 0.36333(5)
C12B C 0.95900(28) 0.3468(2) 0.38179(6)
O2B O 0.9944(3) 0.3881(2) 0.40206(5)
C13B C 1.0855(4) 0.4412(3) 0.40186(8)
H1B H 1.1028 0.4864 0.3897
H2B H 1.1122 0.4082 0.3977
C14B C 1.1087(6) 0.4756(4) 0.42701(9)
H3B H 1.1001 0.4305 0.4384
H4B H 1.0715 0.4965 0.4322
C15B C 1.1991(4) 0.5463(3) 0.42900(8)
O3B O 1.2443(3) 0.5647(2) 0.41089(7)
O4B O 1.2209(4) 0.5799(2) 0.45000(6)
O5B O 0.7903(21) 0.2257(15) 0.4231(3)
C16B C 0.8412(3) 0.2379(2) 0.40771(6)
O6B O 0.8779(21) 0.193(2) 0.4052(3)
C17B C 0.8782(19) 0.1411(12) 0.4257(5)
H5B H 0.8757 0.0902 0.4192
H6B H 0.8292 0.1245 0.4362
C18B C 0.9553(21) 0.1892(13) 0.4402(4)
H7B H 0.9534 0.2350 0.4489
H8B H 1.0039 0.2139 0.4291
C19B C 0.9654(18) 0.1310(11) 0.4597(4)
O7B O 0.9038(13) 0.0624(6) 0.4644(3)
O8B O 1.0377(9) 0.1620(6) 0.46900(19)
C1L C 0.80746(18) 0.26815(18) 0.36375(5)
C2L C 0.83271(17) 0.28887(18) 0.33737(5)
C3L C 0.77369(18) 0.22261(18) 0.32236(5)
C4L C 0.76011(18) 0.23875(18) 0.29811(5)
C5L C 0.80235(18) 0.32254(19) 0.28911(5)
C6L C 0.86037(17) 0.38780(19) 0.30378(5)
C7L C 0.87328(17) 0.37022(18) 0.32860(5)
C8L C 0.74268(19) 0.3333(2) 0.27350(5)
C9L C 0.66571(19) 0.25618(19) 0.27294(5)
C10L C 0.67679(19) 0.19173(18) 0.28579(5)
C11L C 0.6299(2) 0.09793(19) 0.28083(5)
O1L O 0.6840(2) 0.0218(2) 0.30334(5)
C12L C 0.6801(2) 0.05447(19) 0.28488(6)
O2L O 0.7214(2) 0.0604(2) 0.26461(5)
C13L C 0.7745(3) 0.0224(3) 0.26481(8)
H1L H 0.8197 0.0503 0.2770
H2L H 0.7415 -0.0373 0.2690
C14L C 0.8089(4) 0.0336(5) 0.23966(9)
H3L H 0.7638 -0.0029 0.2283
H4L H 0.8298 0.0917 0.2345
C15L C 0.8796(3) 0.0139(3) 0.23767(8)
O3L O 0.8980(2) -0.0129(2) 0.25578(7)
O4L O 0.9132(2) 0.0257(3) 0.21667(6)
O5L O 0.5590(15) 0.1021(14) 0.2436(3)
C16L C 0.5712(2) 0.0634(2) 0.25896(6)
O6L O 0.526(2) -0.0182(6) 0.2615(3)
C17L C 0.4744(12) -0.0704(15) 0.2410(5)
H5L H 0.4235 -0.1188 0.2475
H6L H 0.4578 -0.0380 0.2305
C18L C 0.5225(13) -0.0994(17) 0.2265(4)
H7L H 0.5683 -0.0517 0.2178
H8L H 0.5472 -0.1233 0.2376
C19L C 0.4643(11) -0.1677(14) 0.2070(4)
O7L O 0.3957(6) -0.1747(12) 0.2023(3)
O8L O 0.4953(6) -0.2090(7) 0.19767(19)
C1M C 0.73185(18) 0.53932(25) 0.36375(5)
C2M C 0.71113(18) 0.54385(25) 0.33737(5)
C3M C 0.77739(18) 0.55109(25) 0.32236(5)
C4M C 0.76125(18) 0.52137(25) 0.29811(5)
C5M C 0.67746(19) 0.47982(26) 0.28911(5)
C6M C 0.61220(19) 0.47258(25) 0.30378(5)
C7M C 0.62978(18) 0.50307(25) 0.32860(5)
C8M C 0.6667(2) 0.40942(28) 0.27350(5)
C9M C 0.74382(19) 0.40954(27) 0.27294(5)
C10M C 0.80827(18) 0.48507(26) 0.28579(5)
C11M C 0.90207(19) 0.53201(28) 0.28083(5)
O1M O 0.9782(2) 0.6623(3) 0.30334(5)
C12M C 0.94553(19) 0.62567(28) 0.28488(6)
O2M O 0.9396(2) 0.6611(3) 0.26461(5)
C13M C 0.9776(3) 0.7522(4) 0.26481(8)
H1M H 0.9497 0.7695 0.2770
H2M H 1.0373 0.7789 0.2690
C14M C 0.9664(5) 0.7754(6) 0.23966(9)
H3M H 1.0029 0.7668 0.2283
H4M H 0.9083 0.7382 0.2345
C15M C 0.9861(3) 0.8658(4) 0.23767(8)
O3M O 1.0129(2) 0.9110(3) 0.25578(7)
O4M O 0.9743(3) 0.8876(4) 0.21667(6)
O5M O 0.8979(14) 0.4570(21) 0.2436(3)
C16M C 0.9366(2) 0.5079(3) 0.25896(6)
O6M O 1.0182(6) 0.5446(21) 0.2615(3)
C17M C 1.0704(15) 0.5449(19) 0.2410(5)
H5M H 1.1188 0.5424 0.2475
H6M H 1.0380 0.4959 0.2305
C18M C 1.0994(17) 0.6220(21) 0.2265(4)
H7M H 1.0517 0.6201 0.2178
H8M H 1.1233 0.6706 0.2376
C19M C 1.1677(14) 0.6321(18) 0.2070(4)
O7M O 1.1747(12) 0.5705(13) 0.2023(3)
O8M O 1.2090(7) 0.7044(9) 0.19767(19)
C1N C 0.46068(25) 0.19254(18) 0.36375(5)
C2N C 0.45615(25) 0.16729(17) 0.33737(5)
C3N C 0.44891(25) 0.22631(18) 0.32236(5)
C4N C 0.47863(25) 0.23989(18) 0.29811(5)
C5N C 0.52018(26) 0.19765(18) 0.28911(5)
C6N C 0.52742(25) 0.13963(17) 0.30378(5)
C7N C 0.49693(25) 0.12672(17) 0.32860(5)
C8N C 0.59058(28) 0.25732(19) 0.27350(5)
C9N C 0.59046(27) 0.33429(19) 0.27294(5)
C10N C 0.51493(26) 0.32321(19) 0.28579(5)
C11N C 0.46799(28) 0.3701(2) 0.28083(5)
O1N O 0.3377(3) 0.3160(2) 0.30334(5)
C12N C 0.37433(28) 0.3199(2) 0.28488(6)
O2N O 0.3389(3) 0.2786(2) 0.26461(5)
C13N C 0.2478(4) 0.2255(3) 0.26481(8)
H1N H 0.2305 0.1803 0.2770
H2N H 0.2211 0.2585 0.2690
C14N C 0.2246(6) 0.1911(4) 0.23966(9)
H3N H 0.2332 0.2362 0.2283
H4N H 0.2618 0.1702 0.2345
C15N C 0.1342(4) 0.1204(3) 0.23767(8)
O3N O 0.0890(3) 0.1020(2) 0.25578(7)
O4N O 0.1124(4) 0.0868(2) 0.21667(6)
O5N O 0.5430(21) 0.4410(15) 0.2436(3)
C16N C 0.4921(3) 0.4288(2) 0.25896(6)
O6N O 0.4554(21) 0.474(2) 0.2615(3)
C17N C 0.4551(19) 0.5256(12) 0.2410(5)
H5N H 0.4576 0.5765 0.2475
H6N H 0.5041 0.5422 0.2305
C18N C 0.3780(21) 0.4775(13) 0.2265(4)
H7N H 0.3799 0.4317 0.2178
H8N H 0.3294 0.4528 0.2376
C19N C 0.3679(18) 0.5357(11) 0.2070(4)
O7N O 0.4295(13) 0.6043(6) 0.2023(3)
O8N O 0.2956(9) 0.5047(6) 0.19767(19)
Zn3K Zn 0.02316(10) -0.08878(7) 0.48951(2)
Zn2_2 Zn 0.3333 -0.3333 0.39076(2)
O10_2 O 0.3469(4) -0.4158(4) 0.36850(10)
C20_2 C 0.3215(12) -0.4868(12) 0.3749(4)
H9_2 H 0.2904 -0.5062 0.3896
N1_2 N 0.3366(11) -0.5384(10) 0.3615(3)
C21_2 C 0.3424(16) -0.5223(15) 0.3352(3)
H10_2 H 0.3195 -0.5780 0.3277
H11_2 H 0.3004 -0.5055 0.3321
C22_2 C 0.4114(19) -0.4682(18) 0.3191(5)
H12_2 H 0.3913 -0.4740 0.3022
H13_2 H 0.4348 -0.4105 0.3244
H14_2 H 0.4543 -0.4841 0.3199
C23_2 C 0.3559(13) -0.5971(12) 0.3750(4)
H15_2 H 0.4059 -0.5935 0.3673
H16_2 H 0.3711 -0.5765 0.3919
C24_2 C 0.2925(17) -0.6849(14) 0.3762(6)
H17_2 H 0.3140 -0.7151 0.3855
H18_2 H 0.2430 -0.6906 0.3844
H19_2 H 0.2780 -0.7077 0.3596
O10A O 0.4158(4) 0.7627(6) 0.36850(10)
C20A C 0.4868(12) 0.8083(17) 0.3749(4)
H9A H 0.5062 0.7966 0.3896
N1A N 0.5384(10) 0.8750(15) 0.3615(3)
C21A C 0.5223(15) 0.8647(22) 0.3352(3)
H10A H 0.5780 0.8975 0.3277
H11A H 0.5055 0.8059 0.3321
C22A C 0.4682(18) 0.8796(26) 0.3191(5)
H12A H 0.4740 0.8653 0.3022
H13A H 0.4105 0.8453 0.3244
H14A H 0.4841 0.9384 0.3199
C23A C 0.5971(12) 0.9530(18) 0.3750(4)
H15A H 0.5935 0.9994 0.3673
H16A H 0.5765 0.9476 0.3919
C24A C 0.6849(14) 0.9774(22) 0.3762(6)
H17A H 0.7151 1.0291 0.3855
H18A H 0.6906 0.9336 0.3844
H19A H 0.7077 0.9857 0.3596
O10B O 0.2373(6) 0.6531(4) 0.36850(10)
C20B C 0.1917(17) 0.6785(12) 0.3749(4)
H9B H 0.2034 0.7096 0.3896
N1B N 0.1250(15) 0.6634(11) 0.3615(3)
C21B C 0.1353(22) 0.6576(16) 0.3352(3)
H10B H 0.1025 0.6805 0.3277
H11B H 0.1941 0.6996 0.3321
C22B C 0.1204(26) 0.5886(19) 0.3191(5)
H12B H 0.1347 0.6087 0.3022
H13B H 0.1547 0.5652 0.3244
H14B H 0.0616 0.5457 0.3199
C23B C 0.0470(18) 0.6441(13) 0.3750(4)
H15B H 0.0006 0.5941 0.3673
H16B H 0.0524 0.6289 0.3919
C24B C 0.0226(22) 0.7075(17) 0.3762(6)
H17B H -0.0291 0.6860 0.3855
H18B H 0.0664 0.7570 0.3844
H19B H 0.0143 0.7220 0.3596
Zn1_2 Zn 0.3333 -0.3333 0.45621(2)
O9_2 O 0.3333 -0.3333 0.49241(9)
Zn3K_2 Zn 1.02316(10) 0.91122(7) 0.48951(2)
Zn3J Zn 0.88806(7) 0.97684(10) 0.48951(2)
Zn3I Zn 1.08878(7) 1.11194(7) 0.48951(2)
Zn3A Zn 1.11194(7) 1.02316(10) 0.51049(2)
O10A_2 O 0.4158(4) -0.2373(6) 0.36850(10)
C20A_2 C 0.4868(12) -0.1917(17) 0.3749(4)
H9A_2 H 0.5062 -0.2034 0.3896
N1A_2 N 0.5384(10) -0.1250(15) 0.3615(3)
C21A_2 C 0.5223(15) -0.1353(22) 0.3352(3)
H10A_2 H 0.5780 -0.1025 0.3277
H11A_2 H 0.5055 -0.1941 0.3321
C22A_2 C 0.4682(18) -0.1204(26) 0.3191(5)
H12A_2 H 0.4740 -0.1347 0.3022
H13A_2 H 0.4105 -0.1547 0.3244
H14A_2 H 0.4841 -0.0616 0.3199
C23A_2 C 0.5971(12) -0.0470(18) 0.3750(4)
H15A_2 H 0.5935 -0.0006 0.3673
H16A_2 H 0.5765 -0.0524 0.3919
C24A_2 C 0.6849(14) -0.0226(22) 0.3762(6)
H17A_2 H 0.7151 0.0291 0.3855
H18A_2 H 0.6906 -0.0664 0.3844
H19A_2 H 0.7077 -0.0143 0.3596
O10B_2 O 0.2373(6) -0.3469(4) 0.36850(10)
C20B_2 C 0.1917(17) -0.3215(12) 0.3749(4)
H9B_2 H 0.2034 -0.2904 0.3896
N1B_2 N 0.1250(15) -0.3366(11) 0.3615(3)
C21B_2 C 0.1353(22) -0.3424(16) 0.3352(3)
H10B_2 H 0.1025 -0.3195 0.3277
H11B_2 H 0.1941 -0.3004 0.3321
C22B_2 C 0.1204(26) -0.4114(19) 0.3191(5)
H12B_2 H 0.1347 -0.3913 0.3022
H13B_2 H 0.1547 -0.4348 0.3244
H14B_2 H 0.0616 -0.4543 0.3199
C23B_2 C 0.0470(18) -0.3559(13) 0.3750(4)
H15B_2 H 0.0006 -0.4059 0.3673
H16B_2 H 0.0524 -0.3711 0.3919
C24B_2 C 0.0226(22) -0.2925(17) 0.3762(6)
H17B_2 H -0.0291 -0.3140 0.3855
H18B_2 H 0.0664 -0.2430 0.3844
H19B_2 H 0.0143 -0.2780 0.3596
O3_2 O 0.4353(2) -0.3204(2) 0.41089(7)
O3A_2 O 0.3204(2) 0.7557(3) 0.41089(7)
O3B_2 O 0.2443(3) -0.4353(2) 0.41089(7)
O3B_3 O 0.2443(3) 0.5647(2) 0.41089(7)
O4_2 O 0.4201(2) -0.3590(3) 0.45000(6)
O4A_2 O 0.3590(3) 0.7791(4) 0.45000(6)
O4B_2 O 0.2209(4) -0.4201(2) 0.45000(6)
O4B_3 O 0.2209(4) 0.5799(2) 0.45000(6)
O7_2 O -0.0624(6) -0.1586(12) 0.4644(3)
O7A_2 O 1.1586(12) 1.0962(13) 0.4644(3)
O7B_2 O 0.9038(13) 1.0624(6) 0.4644(3)
O7J O 0.8414(12) 0.9038(13) 0.5356(3)
O7K O 1.0962(13) 0.9376(6) 0.5356(3)
O8A_2 O 1.1243(7) 0.9623(9) 0.46900(19)
O8B_2 O 1.0377(9) 1.1620(6) 0.46900(19)
O8I O 1.1620(6) 1.1243(7) 0.53100(19)
O8J O 0.8757(7) 1.0377(9) 0.53100(19)
O8K O -0.0377(9) -0.1620(6) 0.53100(19)
O8K_2 O 0.9623(9) 0.8380(6) 0.53100(19)
Zn1_3 Zn 1.3333 0.6667 0.45621(2)
Zn1L Zn 0.0000 -0.0000 0.21046(2)
Zn1L_2 Zn 1.0000 -0.0000 0.21046(2)
Zn1L_3 Zn 1.0000 1.0000 0.21046(2)
Zn2_3 Zn 1.3333 0.6667 0.39076(2)
Zn2L Zn 0.0000 -0.0000 0.27591(2)
Zn2L_2 Zn 1.0000 -0.0000 0.27591(2)
Zn2L_3 Zn 1.0000 1.0000 0.27591(2)
O11_2 O 0.0000 0.0000 0.5000
Zn3A_2 Zn 0.11194(7) 0.02316(10) 0.51049(2)
Zn3B Zn 0.97684(10) 0.08878(7) 0.51049(2)
Zn3B_2 Zn 0.97684(10) 1.08878(7) 0.51049(2)
Zn3F Zn 0.24455(7) 0.55473(7) 0.17716(2)
Zn3F_2 Zn 1.24455(7) 0.55473(7) 0.17716(2)
Zn3G Zn 0.44527(7) -0.31017(10) 0.17716(2)
Zn3G_2 Zn 0.44527(7) 0.68983(10) 0.17716(2)
Zn3H Zn 0.31017(10) -0.24455(7) 0.17716(2)
Zn3H_2 Zn 1.31017(10) 0.75545(7) 0.17716(2)
Zn3I_2 Zn 0.08878(7) 0.11194(7) 0.48951(2)
Zn3I_3 Zn 1.08878(7) 0.11194(7) 0.48951(2)
Zn3J_2 Zn 0.88806(7) -0.02316(10) 0.48951(2)
Zn3L Zn 0.42211(7) -0.22139(7) 0.15618(2)
Zn3M Zn 1.22139(7) 0.64351(10) 0.15618(2)
Zn3N Zn 0.35649(10) 0.57789(7) 0.15618(2)
loop_
_geom_bond_atom_site_label_1
_geom_bond_atom_site_label_2
_geom_bond_site_symmetry_1
_geom_bond_site_symmetry_2
C1 C2 1_555 1_555
C2 C3 1_555 1_555
C3 C4 1_555 1_555
C4 C5 1_555 1_555
C5 C6 1_555 1_555
C6 C7 1_555 1_555
C7 C2 1_555 1_555
C8 C5 1_555 1_555
C9 C8 1_555 1_555
C10 C4 1_555 1_555
C11 C10 1_555 1_555
O1 C12 1_555 1_555
C12 C11 1_555 1_555
O2 C12 1_555 1_555
C13 O2 1_555 1_555
H1 C13 1_555 1_555
H2 C13 1_555 1_555
C14 C13 1_555 1_555
H3 C14 1_555 1_555
H4 C14 1_555 1_555
C15 C14 1_555 1_555
O3 C15 1_555 1_555
O4 C15 1_555 1_555
O5 C16 1_555 1_555
C16 C11 1_555 1_555
O6 C16 1_555 1_555
C17 O6 1_555 1_555
H5 C17 1_555 1_555
H6 C17 1_555 1_555
C18 C17 1_555 1_555
H7 C18 1_555 1_555
H8 C18 1_555 1_555
C19 C18 1_555 1_555
O7 C19 1_555 1_555
O8 C19 1_555 1_555
Zn1 O4 1_555 1_555
Zn2 O3 1_555 1_555
O9 Zn1 1_555 1_555
O10 Zn2 1_555 1_555
O11 Zn3 1_555 1_555
Zn3 O8 1_555 1_555
C20 O10 1_555 1_555
H9 C20 1_555 1_555
N1 C20 1_555 1_555
C21 N1 1_555 1_555
H10 C21 1_555 1_555
H11 C21 1_555 1_555
C22 C21 1_555 1_555
H12 C22 1_555 1_555
H13 C22 1_555 1_555
H14 C22 1_555 1_555
C23 N1 1_555 1_555
H15 C23 1_555 1_555
H16 C23 1_555 1_555
C24 C23 1_555 1_555
H17 C24 1_555 1_555
H18 C24 1_555 1_555
H19 C24 1_555 1_555
C1A C2A 1_555 1_555
C2A C3A 1_555 1_555
C3A C4A 1_555 1_555
C4A C5A 1_555 1_555
C5A C6A 1_555 1_555
C6A C7A 1_555 1_555
C7A C2A 1_555 1_555
C8A C5A 1_555 1_555
C9A C8 1_555 1_555
C10A C4A 1_555 1_555
C11A C10A 1_555 1_555
O1A C12A 1_555 1_555
C12A C11A 1_555 1_555
O2A C12A 1_555 1_555
C13A O2A 1_555 1_555
H1A C13A 1_555 1_555
H2A C13A 1_555 1_555
C14A C13A 1_555 1_555
H3A C14A 1_555 1_555
H4A C14A 1_555 1_555
C15A C14A 1_555 1_555
O3A C15A 1_555 1_555
O4A C15A 1_555 1_555
O5A C16A 1_555 1_555
C16A C11A 1_555 1_555
O6A C16A 1_555 1_555
C17A O6A 1_555 1_555
H5A C17A 1_555 1_555
H6A C17A 1_555 1_555
C18A C17A 1_555 1_555
H7A C18A 1_555 1_555
H8A C18A 1_555 1_555
C19A C18A 1_555 1_555
O7A C19A 1_555 1_555
O8A C19A 1_555 1_555
C1B C2B 1_555 1_555
C2B C3B 1_555 1_555
C3B C4B 1_555 1_555
C4B C5B 1_555 1_555
C5B C6B 1_555 1_555
C6B C7B 1_555 1_555
C7B C2B 1_555 1_555
C8B C9 1_555 1_555
C9B C8A 1_555 1_555
C10B C4B 1_555 1_555
C11B C10B 1_555 1_555
O1B C12B 1_555 1_555
C12B C11B 1_555 1_555
O2B C12B 1_555 1_555
C13B O2B 1_555 1_555
H1B C13B 1_555 1_555
H2B C13B 1_555 1_555
C14B C13B 1_555 1_555
H3B C14B 1_555 1_555
H4B C14B 1_555 1_555
C15B C14B 1_555 1_555
O3B C15B 1_555 1_555
O4B C15B 1_555 1_555
O5B C16B 1_555 1_555
C16B C11B 1_555 1_555
O6B C16B 1_555 1_555
C17B O6B 1_555 1_555
H5B C17B 1_555 1_555
H6B C17B 1_555 1_555
C18B C17B 1_555 1_555
H7B C18B 1_555 1_555
H8B C18B 1_555 1_555
C19B C18B 1_555 1_555
O7B C19B 1_555 1_555
O8B C19B 1_555 1_555
C1L C6A 1_555 1_555
C2L C1L 1_555 1_555
C3L C7A 1_555 1_555
C4L C3L 1_555 1_555
C5L C4L 1_555 1_555
C6L C1B 1_555 1_555
C7L C3B 1_555 1_555
C8L C5L 1_555 1_555
C9L C8L 1_555 1_555
C10L C1A 1_555 1_555
C11L C1A 1_555 1_555
O1L C12L 1_555 1_555
C12L C11L 1_555 1_555
O2L C12L 1_555 1_555
C13L O2L 1_555 1_555
H1L C13L 1_555 1_555
H2L C13L 1_555 1_555
C14L C13L 1_555 1_555
H3L C14L 1_555 1_555
H4L C14L 1_555 1_555
C15L C14L 1_555 1_555
O3L C15L 1_555 1_555
O4L C15L 1_555 1_555
O5L C16L 1_555 1_555
C16L C11L 1_555 1_555
O6L C16L 1_555 1_555
C17L O6L 1_555 1_555
H5L C17L 1_555 1_555
H6L C17L 1_555 1_555
C18L C17L 1_555 1_555
H7L C18L 1_555 1_555
H8L C18L 1_555 1_555
C19L C18L 1_555 1_555
O7L C19L 1_555 1_555
O8L C19L 1_555 1_555
C1M C10 1_555 1_555
C2M C1M 1_555 1_555
C3M C7B 1_555 1_555
C4M C3M 1_555 1_555
C5M C4M 1_555 1_555
C6M C1 1_555 1_555
C7M C3 1_555 1_555
C8M C5M 1_555 1_555
C9M C8L 1_555 1_555
C10M C1B 1_555 1_555
C11M C1B 1_555 1_555
O1M C12M 1_555 1_555
C12M C11M 1_555 1_555
O2M C12M 1_555 1_555
C13M O2M 1_555 1_555
H1M C13M 1_555 1_555
H2M C13M 1_555 1_555
C14M C13M 1_555 1_555
H3M C14M 1_555 1_555
H4M C14M 1_555 1_555
C15M C14M 1_555 1_555
O3M C15M 1_555 1_555
O4M C15M 1_555 1_555
O5M C16M 1_555 1_555
C16M C11M 1_555 1_555
O6M C16M 1_555 1_555
C17M O6M 1_555 1_555
H5M C17M 1_555 1_555
H6M C17M 1_555 1_555
C18M C17M 1_555 1_555
H7M C18M 1_555 1_555
H8M C18M 1_555 1_555
C19M C18M 1_555 1_555
O7M C19M 1_555 1_555
O8M C19M 1_555 1_555
C1N C6 1_555 1_555
C2N C1N 1_555 1_555
C3N C7 1_555 1_555
C4N C3N 1_555 1_555
C5N C4N 1_555 1_555
C6N C1A 1_555 1_555
C7N C3A 1_555 1_555
C8N C9L 1_555 1_555
C9N C8M 1_555 1_555
C10N C1 1_555 1_555
C11N C1 1_555 1_555
O1N C12N 1_555 1_555
C12N C11N 1_555 1_555
O2N C12N 1_555 1_555
C13N O2N 1_555 1_555
H1N C13N 1_555 1_555
H2N C13N 1_555 1_555
C14N C13N 1_555 1_555
H3N C14N 1_555 1_555
H4N C14N 1_555 1_555
C15N C14N 1_555 1_555
O3N C15N 1_555 1_555
O4N C15N 1_555 1_555
O5N C16N 1_555 1_555
C16N C11N 1_555 1_555
O6N C16N 1_555 1_555
C17N O6N 1_555 1_555
H5N C17N 1_555 1_555
H6N C17N 1_555 1_555
C18N C17N 1_555 1_555
H7N C18N 1_555 1_555
H8N C18N 1_555 1_555
C19N C18N 1_555 1_555
O7N C19N 1_555 1_555
O8N C19N 1_555 1_555
Zn3K O8A 1_555 1_555
Zn2_2 O3A 1_555 1_555
O10_2 Zn2_2 1_555 1_555
C20_2 O10_2 1_555 1_555
H9_2 C20_2 1_555 1_555
N1_2 C20_2 1_555 1_555
C21_2 N1_2 1_555 1_555
H10_2 C21_2 1_555 1_555
H11_2 C21_2 1_555 1_555
C22_2 C21_2 1_555 1_555
H12_2 C22_2 1_555 1_555
H13_2 C22_2 1_555 1_555
H14_2 C22_2 1_555 1_555
C23_2 N1_2 1_555 1_555
H15_2 C23_2 1_555 1_555
H16_2 C23_2 1_555 1_555
C24_2 C23_2 1_555 1_555
H17_2 C24_2 1_555 1_555
H18_2 C24_2 1_555 1_555
H19_2 C24_2 1_555 1_555
O10A Zn2 1_555 1_555
C20A O10A 1_555 1_555
H9A C20A 1_555 1_555
N1A C20A 1_555 1_555
C21A N1A 1_555 1_555
H10A C21A 1_555 1_555
H11A C21A 1_555 1_555
C22A C21A 1_555 1_555
H12A C22A 1_555 1_555
H13A C22A 1_555 1_555
H14A C22A 1_555 1_555
C23A N1A 1_555 1_555
H15A C23A 1_555 1_555
H16A C23A 1_555 1_555
C24A C23A 1_555 1_555
H17A C24A 1_555 1_555
H18A C24A 1_555 1_555
H19A C24A 1_555 1_555
O10B Zn2 1_555 1_555
C20B O10B 1_555 1_555
H9B C20B 1_555 1_555
N1B C20B 1_555 1_555
C21B N1B 1_555 1_555
H10B C21B 1_555 1_555
H11B C21B 1_555 1_555
C22B C21B 1_555 1_555
H12B C22B 1_555 1_555
H13B C22B 1_555 1_555
H14B C22B 1_555 1_555
C23B N1B 1_555 1_555
H15B C23B 1_555 1_555
H16B C23B 1_555 1_555
C24B C23B 1_555 1_555
H17B C24B 1_555 1_555
H18B C24B 1_555 1_555
H19B C24B 1_555 1_555
Zn1_2 O4A 1_555 1_555
O9_2 Zn1_2 1_555 1_555
Zn3K_2 O7 1_555 1_555
Zn3J O8 1_555 1_555
Zn3I O11 1_555 1_555
Zn3A O11 1_555 1_555
O10A_2 Zn2_2 1_555 1_555
C20A_2 O10A_2 1_555 1_555
H9A_2 C20A_2 1_555 1_555
N1A_2 C20A_2 1_555 1_555
C21A_2 N1A_2 1_555 1_555
H10A_2 C21A_2 1_555 1_555
H11A_2 C21A_2 1_555 1_555
C22A_2 C21A_2 1_555 1_555
H12A_2 C22A_2 1_555 1_555
H13A_2 C22A_2 1_555 1_555
H14A_2 C22A_2 1_555 1_555
C23A_2 N1A_2 1_555 1_555
H15A_2 C23A_2 1_555 1_555
H16A_2 C23A_2 1_555 1_555
C24A_2 C23A_2 1_555 1_555
H17A_2 C24A_2 1_555 1_555
H18A_2 C24A_2 1_555 1_555
H19A_2 C24A_2 1_555 1_555
O10B_2 Zn2_2 1_555 1_555
C20B_2 O10B_2 1_555 1_555
H9B_2 C20B_2 1_555 1_555
N1B_2 C20B_2 1_555 1_555
C21B_2 N1B_2 1_555 1_555
H10B_2 C21B_2 1_555 1_555
H11B_2 C21B_2 1_555 1_555
C22B_2 C21B_2 1_555 1_555
H12B_2 C22B_2 1_555 1_555
H13B_2 C22B_2 1_555 1_555
H14B_2 C22B_2 1_555 1_555
C23B_2 N1B_2 1_555 1_555
H15B_2 C23B_2 1_555 1_555
H16B_2 C23B_2 1_555 1_555
C24B_2 C23B_2 1_555 1_555
H17B_2 C24B_2 1_555 1_555
H18B_2 C24B_2 1_555 1_555
H19B_2 C24B_2 1_555 1_555
O3_2 Zn2_2 1_555 1_555
O3A_2 Zn2 1_555 1_555
O3B_2 Zn2_2 1_555 1_555
O3B_3 Zn2 1_555 1_555
O4_2 Zn1_2 1_555 1_555
O4A_2 Zn1 1_555 1_555
O4B_2 Zn1_2 1_555 1_555
O4B_3 Zn1 1_555 1_555
O7_2 Zn3K 1_555 1_555
O7A_2 Zn3I 1_555 1_555
O7B_2 Zn3J 1_555 1_555
O7J Zn3 1_555 1_555
O7K Zn3A 1_555 1_555
O8A_2 Zn3K_2 1_555 1_555
O8B_2 Zn3I 1_555 1_555
O8I Zn3I 1_555 1_555
O8J Zn3J 1_555 1_555
O8K Zn3K 1_555 1_555
O8K_2 Zn3 1_555 1_555
Zn1_3 O4B 1_555 1_555
Zn1L O4N 1_555 1_555
Zn1L_2 O4L 1_555 1_555
Zn1L_3 O4M 1_555 1_555
Zn2_3 O3B 1_555 1_555
Zn2L O3N 1_555 1_555
Zn2L_2 O3L 1_555 1_555
Zn2L_3 O3M 1_555 1_555
O11_2 Zn3K 1_555 1_555
Zn3A_2 O8A 1_555 1_555
Zn3B O8B 1_555 1_555
Zn3B_2 O11 1_555 1_555
Zn3F O8N 1_555 1_555
Zn3F_2 O7M 1_555 1_555
Zn3G O8L 1_555 1_555
Zn3G_2 O7N 1_555 1_555
Zn3H O7L 1_555 1_555
Zn3H_2 O8M 1_555 1_555
Zn3I_2 O7A 1_555 1_555
Zn3I_3 O8B 1_555 1_555
Zn3J_2 O7B 1_555 1_555
Zn3L O8L 1_555 1_555
Zn3M O8M 1_555 1_555
Zn3N O8N 1_555 1_555
C9 C10 1_555 1_555
C11 C1M 1_555 1_555
O11 Zn3K_2 1_555 1_555
O11 Zn3J 1_555 1_555
C8A C9A 1_555 1_555
C9A C10A 1_555 1_555
C10A C1N 1_555 1_555
C11A C1N 1_555 1_555
C5B C8B 1_555 1_555
C6B C1M 1_555 1_555
C8B C9B 1_555 1_555
C9B C10B 1_555 1_555
C10B C1L 1_555 1_555
C11B C1L 1_555 1_555
C2L C3L 1_555 1_555
C2L C7L 1_555 1_555
C4L C10L 1_555 1_555
C5L C6L 1_555 1_555
C6L C7L 1_555 1_555
C9L C10L 1_555 1_555
C10L C11L 1_555 1_555
C2M C3M 1_555 1_555
C2M C7M 1_555 1_555
C4M C10M 1_555 1_555
C5M C6M 1_555 1_555
C6M C7M 1_555 1_555
C8M C9M 1_555 1_555
C9M C10M 1_555 1_555
C10M C11M 1_555 1_555
C2N C3N 1_555 1_555
C2N C7N 1_555 1_555
C4N C10N 1_555 1_555
C5N C6N 1_555 1_555
C5N C8N 1_555 1_555
C6N C7N 1_555 1_555
C8N C9N 1_555 1_555
C9N C10N 1_555 1_555
C10N C11N 1_555 1_555
Zn3K_2 O8K_2 1_555 1_555
Zn3A O8A_2 1_555 1_555
Zn3A O8I 1_555 1_555
O8B_2 Zn3B_2 1_555 1_555
O8J Zn3B_2 1_555 1_555
O11_2 Zn3A_2 1_555 1_555
O11_2 Zn3I_2 1_555 1_555

#END
