
#######################################################################
#
#                 Cambridge Crystallographic Data Centre
#                                CCDC 
#
#######################################################################
#
# If this CIF has been generated from an entry in the Cambridge 
# Structural Database, then it will include bibliographic, chemical, 
# crystal, experimental, refinement or atomic coordinate data resulting 
# from the CCDC's data processing and validation procedures.
#
#######################################################################

data_ROYMID
_chemical_formula_moiety         '(C42 H40 Co2 N2 O13 S4)n'
_symmetry_cell_setting           hexagonal
_symmetry_space_group_name_H-M   'P 61'
_symmetry_Int_Tables_number      169
_space_group_name_Hall           'P 61'
loop_
_symmetry_equiv_pos_site_id
_symmetry_equiv_pos_as_xyz
1 x,y,z
2 -y,x-y,1/3+z
3 -x+y,-x,2/3+z
4 -x,-y,1/2+z
5 y,-x+y,5/6+z
6 x-y,x,1/6+z
_cell_length_a                   19.3867(7)
_cell_length_b                   19.3867(7)
_cell_length_c                   20.8268(15)
_cell_angle_alpha                90
_cell_angle_beta                 90
_cell_angle_gamma                120
_cell_volume                     6778.93
loop_
_atom_site_label
_atom_site_type_symbol
_atom_site_fract_x
_atom_site_fract_y
_atom_site_fract_z
C1 C 0.9107(4) -0.0739(4) 1.1495(4)
C2 C 0.9096(4) -0.0059(4) 1.1555(3)
C3 C 0.8751(4) -0.2222(4) 1.1324(3)
C4 C 0.8690(4) 0.1027(4) 1.1674(4)
C5 C 0.9548(4) -0.1792(4) 1.1308(3)
C6 C 0.9491(4) 0.1428(4) 1.1700(4)
S1 S 0.82426(11) -0.16833(11) 1.14362(10)
S2 S 0.99710(11) 0.08637(11) 1.16427(10)
S3 S 0.99963(10) -0.07649(10) 1.14391(9)
S4 S 0.82116(11) -0.00201(11) 1.15986(10)
C7 C 1.1255(4) -0.2538(4) 1.1014(3)
C8 C 1.0653(4) -0.2937(4) 1.1451(4)
H1 H 1.0625 -0.3369 1.1687
C9 C 1.0080(4) -0.2711(4) 1.1551(3)
H2 H 0.9661 -0.2995 1.1850
C10 C 1.0123(5) -0.2073(4) 1.1214(3)
C11 C 1.0759(5) -0.1652(4) 1.0789(3)
H3 H 1.0808 -0.1201 1.0568
C12 C 1.1319(5) -0.1889(5) 1.0690(4)
H4 H 1.1746 -0.1604 1.0398
C13 C 1.1853(4) -0.2807(4) 1.0888(4)
O1 O 1.2281(3) -0.2503(3) 1.0386(3)
O2 O 1.1873(3) -0.3288(3) 1.1270(3)
C14 C 0.7197(5) -0.4758(4) 1.1208(4)
C15 C 0.7047(5) -0.4292(5) 1.1623(4)
H5 H 0.6596 -0.4539 1.1897
C16 C 0.7538(5) -0.3474(5) 1.1648(4)
H6 H 0.7413 -0.3166 1.1928
C17 C 0.8217(4) -0.3099(4) 1.1262(3)
C18 C 0.8373(4) -0.3562(4) 1.0843(4)
H7 H 0.8824 -0.3313 1.0568
C19 C 0.7878(4) -0.4385(4) 1.0818(4)
H8 H 0.8000 -0.4694 1.0536
C20 C 0.6668(4) -0.5633(4) 1.1199(3)
O3 O 0.6155(3) -0.5952(3) 1.1641(3)
O4 O 0.6735(3) -0.6070(3) 1.0761(3)
C21 C 0.7133(4) 0.1993(4) 1.1712(3)
C22 C 0.7775(4) 0.2286(4) 1.2129(4)
H9 H 0.7864 0.2698 1.2423
C23 C 0.8291(4) 0.1978(4) 1.2119(3)
H10 H 0.8734 0.2185 1.2402
C24 C 0.8157(4) 0.1367(4) 1.1693(4)
C25 C 0.7507(5) 0.1070(5) 1.1274(4)
H11 H 0.7412 0.0653 1.0984
C26 C 0.7000(5) 0.1380(5) 1.1280(4)
H12 H 0.6561 0.1179 1.0992
C27 C 0.6595(4) 0.2328(4) 1.1683(4)
O5 O 0.6624(3) 0.2818(3) 1.2101(2)
O6 O 0.6104(3) 0.2135(3) 1.1225(2)
C28 C 1.1162(4) 0.3907(4) 1.1893(3)
C29 C 1.1197(4) 0.3360(4) 1.2304(3)
H13 H 1.1596 0.3535 1.2626
C30 C 1.0637(5) 0.2549(5) 1.2240(4)
H14 H 1.0658 0.2172 1.2518
C31 C 1.0049(4) 0.2293(4) 1.1769(3)
C32 C 1.0012(5) 0.2852(4) 1.1373(4)
H15 H 0.9607 0.2681 1.1056
C33 C 1.0558(4) 0.3653(4) 1.1439(4)
H16 H 1.0521 0.4031 1.1173
C34 C 1.1794(4) 0.4770(4) 1.1963(3)
O7 O 1.1793(3) 0.5275(3) 1.1588(2)
O8 O 1.2298(3) 0.4921(3) 1.2401(3)
Co1 Co 0.63199(6) 0.27354(5) 1.31056(6)
Co2 Co 0.56752(4) 0.28741(6) 1.14465(6)
O9 O 0.7509(3) 0.3623(4) 1.3244(3)
H17 H 0.769(5) 0.408(3) 1.306(4)
H18 H 0.775(5) 0.348(5) 1.350(3)
O10 O 0.6108(3) 0.3689(3) 1.2945(3)
H19 H 0.564(2) 0.351(5) 1.307(4)
H20 H 0.625(5) 0.385(5) 1.2562(19)
O1E O 0.4784(4) 0.2281(3) 1.2053(3)
O2E O 0.5161(4) 0.1873(3) 1.2937(3)
O3_2 O 0.6155(3) 0.4048(3) 1.1641(3)
O4A O 0.6070(3) 0.2805(4) 1.4094(3)
O7E O 0.6518(4) 0.1793(3) 1.3255(2)
O8D O 0.4921(3) 0.2623(4) 1.0734(3)
Co1B Co 0.64155(8) -0.63199(6) 0.97723(6)
Co1D Co 1.27354(5) -0.35845(8) 1.14389(6)
Co1D_2 Co 1.27354(5) 0.64155(8) 1.14389(6)
Co2_2 Co 0.56752(4) -0.71259(6) 1.14465(6)
Co2D Co 1.28741(6) -0.28011(7) 0.97798(6)
Co2E Co 1.28011(7) 0.56752(4) 1.31132(6)
O11 O 1.3557(4) -0.1087(3) 1.1286(3)
C35 C 1.3707(6) -0.0764(5) 1.0759(4)
H21 H 1.3783 -0.1035 1.0411
N1 N 1.3774(6) -0.0045(7) 1.0637(5)
C36 C 1.3583(10) 0.0339(8) 1.1124(6)
H22 H 1.3561 0.0091 1.1539
H23 H 1.3063 0.0288 1.1032
H24 H 1.3991 0.0904 1.1139
C37 C 1.3966(8) 0.0293(6) 1.0017(5)
H25 H 1.3483 0.0223 0.9806
H26 H 1.4192 0.0028 0.9763
H27 H 1.4355 0.0863 1.0050
O12 O 1.5662(8) -0.1025(8) 1.1552(8)
C38 C 1.5432(10) -0.0587(11) 1.1745(10)
H28 H 1.5577 -0.0126 1.1493
N2 N 1.4989(11) -0.0673(11) 1.2280(9)
C39 C 1.4865(10) -0.0083(10) 1.2449(8)
H29 H 1.5242 0.0404 1.2223
H30 H 1.4941 0.0003 1.2914
H31 H 1.4319 -0.0223 1.2336
C40 C 1.4691(10) -0.1374(10) 1.2678(8)
H32 H 1.4516 -0.1845 1.2406
H33 H 1.4240 -0.1432 1.2933
H34 H 1.5115 -0.1321 1.2966
O13 O 0.7747(6) 0.5138(6) 1.2965(6)
C41 C 0.8482(7) 0.5777(8) 1.2774(7)
H35 H 0.8747 0.6162 1.3127
H36 H 0.8428 0.6056 1.2396
C42 C 0.8975(12) 0.5279(18) 1.2586(16)
H37 H 0.8684 0.4738 1.2762
H38 H 0.9512 0.5561 1.2771
H39 H 0.9012 0.5252 1.2119
loop_
_geom_bond_atom_site_label_1
_geom_bond_atom_site_label_2
_geom_bond_site_symmetry_1
_geom_bond_site_symmetry_2
C1 C2 1_555 1_555
C2 S2 1_555 1_555
C3 C5 1_555 1_555
C4 C6 1_555 1_555
C5 S3 1_555 1_555
C6 S2 1_555 1_555
S1 C1 1_555 1_555
S3 C1 1_555 1_555
S4 C2 1_555 1_555
C7 C8 1_555 1_555
C8 H1 1_555 1_555
C9 C8 1_555 1_555
H2 C9 1_555 1_555
C10 C5 1_555 1_555
C11 C10 1_555 1_555
H3 C11 1_555 1_555
C12 C7 1_555 1_555
H4 C12 1_555 1_555
C13 C7 1_555 1_555
O1 C13 1_555 1_555
O2 C13 1_555 1_555
C14 C15 1_555 1_555
C15 H5 1_555 1_555
C16 C15 1_555 1_555
H6 C16 1_555 1_555
C17 C3 1_555 1_555
C18 C17 1_555 1_555
H7 C18 1_555 1_555
C19 C14 1_555 1_555
H8 C19 1_555 1_555
C20 C14 1_555 1_555
O3 C20 1_555 1_555
O4 C20 1_555 1_555
C21 C22 1_555 1_555
C22 H9 1_555 1_555
C23 C22 1_555 1_555
H10 C23 1_555 1_555
C24 C4 1_555 1_555
C25 C24 1_555 1_555
H11 C25 1_555 1_555
C26 C21 1_555 1_555
H12 C26 1_555 1_555
C27 C21 1_555 1_555
O5 C27 1_555 1_555
O6 C27 1_555 1_555
C28 C29 1_555 1_555
C29 H13 1_555 1_555
C30 C29 1_555 1_555
H14 C30 1_555 1_555
C31 C6 1_555 1_555
C32 C31 1_555 1_555
H15 C32 1_555 1_555
C33 C28 1_555 1_555
H16 C33 1_555 1_555
C34 C28 1_555 1_555
O7 C34 1_555 1_555
O8 C34 1_555 1_555
Co1 O5 1_555 1_555
Co2 O5 1_555 1_555
O9 Co1 1_555 1_555
H17 O9 1_555 1_555
H18 O9 1_555 1_555
O10 Co1 1_555 1_555
H19 O10 1_555 1_555
H20 O10 1_555 1_555
O11 C35 1_555 1_555
C35 H21 1_555 1_555
N1 C35 1_555 1_555
C36 N1 1_555 1_555
H22 C36 1_555 1_555
H23 C36 1_555 1_555
H24 C36 1_555 1_555
C37 N1 1_555 1_555
H25 C37 1_555 1_555
H26 C37 1_555 1_555
H27 C37 1_555 1_555
O12 C38 1_555 1_555
C38 H28 1_555 1_555
N2 C38 1_555 1_555
C39 N2 1_555 1_555
H29 C39 1_555 1_555
H30 C39 1_555 1_555
H31 C39 1_555 1_555
C40 N2 1_555 1_555
H32 C40 1_555 1_555
H33 C40 1_555 1_555
H34 C40 1_555 1_555
O13 C41 1_555 1_555
C41 H35 1_555 1_555
H36 C41 1_555 1_555
C42 C41 1_555 1_555
H37 C42 1_555 1_555
H38 C42 1_555 1_555
H39 C42 1_555 1_555
O1E Co2 1_555 1_555
O2E Co1 1_555 1_555
O3_2 Co2 1_555 1_555
O4A Co1 1_555 1_555
O7E Co1 1_555 1_555
O8D Co2 1_555 1_555
Co1B O4 1_555 1_555
Co1D O2 1_555 1_555
Co1D_2 O7 1_555 1_555
Co2_2 O3 1_555 1_555
Co2D O1 1_555 1_555
Co2E O8 1_555 1_555
C3 S1 1_555 1_555
C4 S4 1_555 1_555
C9 C10 1_555 1_555
C11 C12 1_555 1_555
C16 C17 1_555 1_555
C18 C19 1_555 1_555
C23 C24 1_555 1_555
C25 C26 1_555 1_555
O6 Co2 1_555 1_555
C30 C31 1_555 1_555
C32 C33 1_555 1_555

#END
