
#######################################################################
#
#                 Cambridge Crystallographic Data Centre
#                                CCDC 
#
#######################################################################
#
# If this CIF has been generated from an entry in the Cambridge 
# Structural Database, then it will include bibliographic, chemical, 
# crystal, experimental, refinement or atomic coordinate data resulting 
# from the CCDC's data processing and validation procedures.
#
#######################################################################

data_RAHNOF
_chemical_formula_moiety         '(C72 H42 Cu6 N6 O30)n'
_symmetry_cell_setting           cubic
_symmetry_space_group_name_H-M   'F m -3 m'
_symmetry_Int_Tables_number      225
_space_group_name_Hall           '-F 4 2 3'
loop_
_symmetry_equiv_pos_site_id
_symmetry_equiv_pos_as_xyz
1 x,y,z
2 z,x,y
3 y,z,x
4 y,x,-z
5 y,-x,z
6 -y,x,z
7 x,z,-y
8 -x,z,y
9 x,-z,y
10 z,y,-x
11 z,-y,x
12 -z,y,x
13 x,1/2+y,1/2+z
14 z,1/2+x,1/2+y
15 y,1/2+z,1/2+x
16 y,1/2+x,1/2-z
17 y,1/2-x,1/2+z
18 -y,1/2+x,1/2+z
19 x,1/2+z,1/2-y
20 -x,1/2+z,1/2+y
21 x,1/2-z,1/2+y
22 z,1/2+y,1/2-x
23 z,1/2-y,1/2+x
24 -z,1/2+y,1/2+x
25 1/2+x,y,1/2+z
26 1/2+z,x,1/2+y
27 1/2+y,z,1/2+x
28 1/2+y,x,1/2-z
29 1/2+y,-x,1/2+z
30 1/2-y,x,1/2+z
31 1/2+x,z,1/2-y
32 1/2-x,z,1/2+y
33 1/2+x,-z,1/2+y
34 1/2+z,y,1/2-x
35 1/2+z,-y,1/2+x
36 1/2-z,y,1/2+x
37 1/2+x,1/2+y,z
38 1/2+z,1/2+x,y
39 1/2+y,1/2+z,x
40 1/2+y,1/2+x,-z
41 1/2+y,1/2-x,z
42 1/2-y,1/2+x,z
43 1/2+x,1/2+z,-y
44 1/2-x,1/2+z,y
45 1/2+x,1/2-z,y
46 1/2+z,1/2+y,-x
47 1/2+z,1/2-y,x
48 1/2-z,1/2+y,x
49 -x,-y,z
50 -x,y,-z
51 x,-y,-z
52 z,-x,-y
53 -z,-x,y
54 -z,x,-y
55 -y,z,-x
56 y,-z,-x
57 -y,-z,x
58 -y,-x,-z
59 -x,-z,-y
60 -z,-y,-x
61 -x,1/2-y,1/2+z
62 -x,1/2+y,1/2-z
63 x,1/2-y,1/2-z
64 z,1/2-x,1/2-y
65 -z,1/2-x,1/2+y
66 -z,1/2+x,1/2-y
67 -y,1/2+z,1/2-x
68 y,1/2-z,1/2-x
69 -y,1/2-z,1/2+x
70 -y,1/2-x,1/2-z
71 -x,1/2-z,1/2-y
72 -z,1/2-y,1/2-x
73 1/2-x,-y,1/2+z
74 1/2-x,y,1/2-z
75 1/2+x,-y,1/2-z
76 1/2+z,-x,1/2-y
77 1/2-z,-x,1/2+y
78 1/2-z,x,1/2-y
79 1/2-y,z,1/2-x
80 1/2+y,-z,1/2-x
81 1/2-y,-z,1/2+x
82 1/2-y,-x,1/2-z
83 1/2-x,-z,1/2-y
84 1/2-z,-y,1/2-x
85 1/2-x,1/2-y,z
86 1/2-x,1/2+y,-z
87 1/2+x,1/2-y,-z
88 1/2+z,1/2-x,-y
89 1/2-z,1/2-x,y
90 1/2-z,1/2+x,-y
91 1/2-y,1/2+z,-x
92 1/2+y,1/2-z,-x
93 1/2-y,1/2-z,x
94 1/2-y,1/2-x,-z
95 1/2-x,1/2-z,-y
96 1/2-z,1/2-y,-x
97 -x,-y,-z
98 -z,-x,-y
99 -y,-z,-x
100 -y,-x,z
101 -y,x,-z
102 y,-x,-z
103 -x,-z,y
104 x,-z,-y
105 -x,z,-y
106 -z,-y,x
107 -z,y,-x
108 z,-y,-x
109 -x,1/2-y,1/2-z
110 -z,1/2-x,1/2-y
111 -y,1/2-z,1/2-x
112 -y,1/2-x,1/2+z
113 -y,1/2+x,1/2-z
114 y,1/2-x,1/2-z
115 -x,1/2-z,1/2+y
116 x,1/2-z,1/2-y
117 -x,1/2+z,1/2-y
118 -z,1/2-y,1/2+x
119 -z,1/2+y,1/2-x
120 z,1/2-y,1/2-x
121 1/2-x,-y,1/2-z
122 1/2-z,-x,1/2-y
123 1/2-y,-z,1/2-x
124 1/2-y,-x,1/2+z
125 1/2-y,x,1/2-z
126 1/2+y,-x,1/2-z
127 1/2-x,-z,1/2+y
128 1/2+x,-z,1/2-y
129 1/2-x,z,1/2-y
130 1/2-z,-y,1/2+x
131 1/2-z,y,1/2-x
132 1/2+z,-y,1/2-x
133 1/2-x,1/2-y,-z
134 1/2-z,1/2-x,-y
135 1/2-y,1/2-z,-x
136 1/2-y,1/2-x,z
137 1/2-y,1/2+x,-z
138 1/2+y,1/2-x,-z
139 1/2-x,1/2-z,y
140 1/2+x,1/2-z,-y
141 1/2-x,1/2+z,-y
142 1/2-z,1/2-y,x
143 1/2-z,1/2+y,-x
144 1/2+z,1/2-y,-x
145 x,y,-z
146 x,-y,z
147 -x,y,z
148 -z,x,y
149 z,x,-y
150 z,-x,y
151 y,-z,x
152 -y,z,x
153 y,z,-x
154 y,x,z
155 x,z,y
156 z,y,x
157 x,1/2+y,1/2-z
158 x,1/2-y,1/2+z
159 -x,1/2+y,1/2+z
160 -z,1/2+x,1/2+y
161 z,1/2+x,1/2-y
162 z,1/2-x,1/2+y
163 y,1/2-z,1/2+x
164 -y,1/2+z,1/2+x
165 y,1/2+z,1/2-x
166 y,1/2+x,1/2+z
167 x,1/2+z,1/2+y
168 z,1/2+y,1/2+x
169 1/2+x,y,1/2-z
170 1/2+x,-y,1/2+z
171 1/2-x,y,1/2+z
172 1/2-z,x,1/2+y
173 1/2+z,x,1/2-y
174 1/2+z,-x,1/2+y
175 1/2+y,-z,1/2+x
176 1/2-y,z,1/2+x
177 1/2+y,z,1/2-x
178 1/2+y,x,1/2+z
179 1/2+x,z,1/2+y
180 1/2+z,y,1/2+x
181 1/2+x,1/2+y,-z
182 1/2+x,1/2-y,z
183 1/2-x,1/2+y,z
184 1/2-z,1/2+x,y
185 1/2+z,1/2+x,-y
186 1/2+z,1/2-x,y
187 1/2+y,1/2-z,x
188 1/2-y,1/2+z,x
189 1/2+y,1/2+z,-x
190 1/2+y,1/2+x,z
191 1/2+x,1/2+z,y
192 1/2+z,1/2+y,x
_cell_length_a                   42.710(5)
_cell_length_b                   42.710(5)
_cell_length_c                   42.710(5)
_cell_angle_alpha                90
_cell_angle_beta                 90
_cell_angle_gamma                90
_cell_volume                     77909.2
loop_
_atom_site_label
_atom_site_type_symbol
_atom_site_fract_x
_atom_site_fract_y
_atom_site_fract_z
_atom_site_U_iso_or_equiv
_atom_site_thermal_displace_type
Cu1 Cu 0.13127(3) 0.5000 0.36873(3) 0.0346 Uani
Cu2 Cu 0.17504(3) 0.5000 0.32496(3) 0.0361 Uani
O1 O 0.09587(18) 0.5000 0.40413(18) 0.0843 Uani
O2 O 0.11224(11) 0.46817(12) 0.34310(12) 0.0503 Uani
O3 O 0.21120(16) 0.5000 0.28880(16) 0.0733 Uani
O4 O 0.14888(11) 0.46802(11) 0.30574(11) 0.0440 Uani
C1 C 0.12362(17) 0.45798(16) 0.31731(16) 0.0380 Uani
C2 C 0.08227(17) 0.41773(17) 0.3153(3) 0.0433 Uani
H1 H 0.0744 0.4256 0.3346 0.0520 Uiso
C3 C 0.10751(18) 0.43207(18) 0.30198(17) 0.0477 Uani
C4 C 0.1185(2) 0.42145(19) 0.2734(2) 0.0637 Uani
H2 H 0.1364 0.4307 0.2640 0.0760 Uiso
C5 C 0.1030(2) 0.3970(2) 0.2589(3) 0.0750 Uani
C6 C 0.1137(3) 0.3863(3) 0.2286(3) 0.1057 Uani
C7 C 0.1235(3) 0.3765(3) 0.2049(4) 0.1057 Uani
C8 C 0.1378(4) 0.3622(4) 0.1781(4) 0.1440 Uani
C9 C 0.1237(5) 0.3360(4) 0.1640(4) 0.1330 Uani
N1 N 0.0962(9) 0.3271(6) 0.1729(6) 0.1033 Uani
H3 H 0.0867 0.3367 0.1891 0.1260 Uiso
O2KB O 0.34310(12) 0.38776(11) 0.03183(12) 0.0503 Uani
O4KB O 0.30574(11) 0.35112(11) 0.03198(11) 0.0440 Uani
C1KB C 0.31731(16) 0.37638(17) 0.04202(16) 0.0380 Uani
C2KB C 0.3153(3) 0.41773(17) 0.08227(17) 0.0433 Uani
H1KB H 0.3346 0.4256 0.0744 0.0520 Uiso
C3KB C 0.30198(17) 0.39249(18) 0.06793(18) 0.0477 Uani
C4KB C 0.2734(2) 0.3815(2) 0.07855(19) 0.0637 Uani
H2KB H 0.2640 0.3636 0.0693 0.0760 Uiso
C5KB C 0.2589(3) 0.3970(2) 0.1030(2) 0.0750 Uani
C6KB C 0.2286(3) 0.3863(3) 0.1137(3) 0.1057 Uani
C7KB C 0.2049(4) 0.3765(3) 0.1235(3) 0.1057 Uani
C8KB C 0.1781(4) 0.3622(4) 0.1378(4) 0.1440 Uani
C9KB C 0.1640(4) 0.3763(5) 0.1640(4) 0.1330 Uani
N1KB N 0.1729(6) 0.4038(9) 0.1729(6) 0.1033 Uani
H3KB H 0.1891 0.4133 0.1633 0.1260 Uiso
O2NC O 0.03183(12) 0.15690(12) 0.11224(11) 0.0503 Uani
O4NC O 0.03198(11) 0.19426(11) 0.14888(11) 0.0440 Uani
C1NC C 0.04202(16) 0.18269(16) 0.12362(17) 0.0380 Uani
C2NC C 0.08227(17) 0.1847(3) 0.08227(17) 0.0433 Uani
H1NC H 0.0744 0.1654 0.0744 0.0520 Uiso
C3NC C 0.06793(18) 0.19802(17) 0.10751(18) 0.0477 Uani
C4NC C 0.07855(19) 0.2266(2) 0.1185(2) 0.0637 Uani
H2NC H 0.0693 0.2360 0.1364 0.0760 Uiso
C5NC C 0.1030(2) 0.2411(3) 0.1030(2) 0.0750 Uani
C6NC C 0.1137(3) 0.2714(3) 0.1137(3) 0.1057 Uani
C7NC C 0.1235(3) 0.2951(4) 0.1235(3) 0.1057 Uani
C8NC C 0.1378(4) 0.3219(4) 0.1378(4) 0.1440 Uani
C9NC C 0.1640(4) 0.3360(4) 0.1237(5) 0.1330 Uani
N1NC N 0.1729(6) 0.3271(6) 0.0962(9) 0.1033 Uani
H3NC H 0.1633 0.3109 0.0867 0.1260 Uiso
O2KD O 0.11224(11) 0.15690(12) 0.03183(12) 0.0503 Uani
O4KD O 0.14888(11) 0.19426(11) 0.03198(11) 0.0440 Uani
C1KD C 0.12362(17) 0.18269(16) 0.04202(16) 0.0380 Uani
C3KD C 0.10751(18) 0.19802(17) 0.06793(18) 0.0477 Uani
C4KD C 0.1185(2) 0.2266(2) 0.07855(19) 0.0637 Uani
H2KD H 0.1364 0.2360 0.0693 0.0760 Uiso
H3KD H 0.0867 0.3109 0.1633 0.1260 Uiso
O2EE O 0.03183(12) 0.38776(11) 0.34310(12) 0.0503 Uani
O4EE O 0.03198(11) 0.35112(11) 0.30574(11) 0.0440 Uani
C1EE C 0.04202(16) 0.37638(17) 0.31731(16) 0.0380 Uani
C3EE C 0.06793(18) 0.39249(18) 0.30198(17) 0.0477 Uani
C4EE C 0.07855(19) 0.3815(2) 0.2734(2) 0.0637 Uani
H2EE H 0.0693 0.3636 0.2640 0.0760 Uiso
H3EE H 0.1633 0.4133 0.1891 0.1260 Uiso
O2YE O 0.34310(12) 0.46817(12) 0.11224(11) 0.0503 Uani
O4YE O 0.30574(11) 0.46802(11) 0.14888(11) 0.0440 Uani
C1YE C 0.31731(16) 0.45798(16) 0.12362(17) 0.0380 Uani
C3YE C 0.30198(17) 0.43207(18) 0.10751(18) 0.0477 Uani
C4YE C 0.2734(2) 0.42145(19) 0.1185(2) 0.0637 Uani
H2YE H 0.2640 0.4307 0.1364 0.0760 Uiso
H3YE H 0.1891 0.3367 0.0867 0.1260 Uiso
Cu1J Cu 0.36873(3) 0.5000 0.13127(3) 0.0346 Uani
Cu2J Cu 0.32496(3) 0.5000 0.17504(3) 0.0361 Uani
O1J O 0.40413(18) 0.5000 0.09587(18) 0.0843 Uani
O2J O 0.34310(12) 0.53183(12) 0.11224(11) 0.0503 Uani
O3J O 0.28880(16) 0.5000 0.21120(16) 0.0733 Uani
O4J O 0.30574(11) 0.53198(11) 0.14888(11) 0.0440 Uani
C1J C 0.31731(16) 0.54202(16) 0.12362(17) 0.0380 Uani
C2J C 0.3153(3) 0.58227(17) 0.08227(17) 0.0433 Uani
H1J H 0.3346 0.5744 0.0744 0.0520 Uiso
C3J C 0.30198(17) 0.56793(18) 0.10751(18) 0.0477 Uani
C4J C 0.2734(2) 0.57855(19) 0.1185(2) 0.0637 Uani
H2J H 0.2640 0.5693 0.1364 0.0760 Uiso
C5J C 0.2589(3) 0.6030(2) 0.1030(2) 0.0750 Uani
C6J C 0.2286(3) 0.6137(3) 0.1137(3) 0.1057 Uani
C7J C 0.2049(4) 0.6235(3) 0.1235(3) 0.1057 Uani
C8J C 0.1781(4) 0.6378(4) 0.1378(4) 0.1440 Uani
C9J C 0.1640(4) 0.6640(4) 0.1237(5) 0.1330 Uani
N1J N 0.1729(6) 0.6729(6) 0.0962(9) 0.1033 Uani
H3J H 0.1891 0.6633 0.0867 0.1260 Uiso
O2OA O 0.03183(12) 0.61224(11) 0.34310(12) 0.0503 Uani
O4OA O 0.03198(11) 0.64888(11) 0.30574(11) 0.0440 Uani
C1OA C 0.04202(16) 0.62362(17) 0.31731(16) 0.0380 Uani
C2OA C 0.08227(17) 0.58227(17) 0.3153(3) 0.0433 Uani
H1OA H 0.0744 0.5744 0.3346 0.0520 Uiso
C3OA C 0.06793(18) 0.60751(18) 0.30198(17) 0.0477 Uani
C4OA C 0.07855(19) 0.6185(2) 0.2734(2) 0.0637 Uani
H2OA H 0.0693 0.6364 0.2640 0.0760 Uiso
C5OA C 0.1030(2) 0.6030(2) 0.2589(3) 0.0750 Uani
C6OA C 0.1137(3) 0.6137(3) 0.2286(3) 0.1057 Uani
C7OA C 0.1235(3) 0.6235(3) 0.2049(4) 0.1057 Uani
C8OA C 0.1378(4) 0.6378(4) 0.1781(4) 0.1440 Uani
C9OA C 0.1640(4) 0.6237(5) 0.1640(4) 0.1330 Uani
N1OA N 0.1729(6) 0.5962(9) 0.1729(6) 0.1033 Uani
H3OA H 0.1633 0.5867 0.1891 0.1260 Uiso
O2R O 0.11224(11) 0.84310(12) 0.03183(12) 0.0503 Uani
O4R O 0.14888(11) 0.80574(11) 0.03198(11) 0.0440 Uani
C1R C 0.12362(17) 0.81731(16) 0.04202(16) 0.0380 Uani
C2R C 0.08227(17) 0.8153(3) 0.08227(17) 0.0433 Uani
H1R H 0.0744 0.8346 0.0744 0.0520 Uiso
C3R C 0.10751(18) 0.80198(17) 0.06793(18) 0.0477 Uani
C4R C 0.1185(2) 0.7734(2) 0.07855(19) 0.0637 Uani
H2R H 0.1364 0.7640 0.0693 0.0760 Uiso
C5R C 0.1030(2) 0.7589(3) 0.1030(2) 0.0750 Uani
C6R C 0.1137(3) 0.7286(3) 0.1137(3) 0.1057 Uani
C7R C 0.1235(3) 0.7049(4) 0.1235(3) 0.1057 Uani
C8R C 0.1378(4) 0.6781(4) 0.1378(4) 0.1440 Uani
C9R C 0.1237(5) 0.6640(4) 0.1640(4) 0.1330 Uani
N1R N 0.0962(9) 0.6729(6) 0.1729(6) 0.1033 Uani
H3R H 0.0867 0.6891 0.1633 0.1260 Uiso
O2EG O 0.03183(12) 0.84310(12) 0.11224(11) 0.0503 Uani
O4EG O 0.03198(11) 0.80574(11) 0.14888(11) 0.0440 Uani
C1EG C 0.04202(16) 0.81731(16) 0.12362(17) 0.0380 Uani
C3EG C 0.06793(18) 0.80198(17) 0.10751(18) 0.0477 Uani
C4EG C 0.07855(19) 0.7734(2) 0.1185(2) 0.0637 Uani
H2EG H 0.0693 0.7640 0.1364 0.0760 Uiso
H3EG H 0.1633 0.6891 0.0867 0.1260 Uiso
O2DF O 0.34310(12) 0.61224(11) 0.03183(12) 0.0503 Uani
O4DF O 0.30574(11) 0.64888(11) 0.03198(11) 0.0440 Uani
C1DF C 0.31731(16) 0.62362(17) 0.04202(16) 0.0380 Uani
C3DF C 0.30198(17) 0.60751(18) 0.06793(18) 0.0477 Uani
C4DF C 0.2734(2) 0.6185(2) 0.07855(19) 0.0637 Uani
H2DF H 0.2640 0.6364 0.0693 0.0760 Uiso
H3DF H 0.1891 0.5867 0.1633 0.1260 Uiso
O2OE O 0.11224(11) 0.53183(12) 0.34310(12) 0.0503 Uani
O4OE O 0.14888(11) 0.53198(11) 0.30574(11) 0.0440 Uani
C1OE C 0.12362(17) 0.54202(16) 0.31731(16) 0.0380 Uani
C3OE C 0.10751(18) 0.56793(18) 0.30198(17) 0.0477 Uani
C4OE C 0.1185(2) 0.57855(19) 0.2734(2) 0.0637 Uani
H2OE H 0.1364 0.5693 0.2640 0.0760 Uiso
H3OE H 0.0867 0.6633 0.1891 0.1260 Uiso
Cu1R Cu 0.13127(3) 0.86873(3) 0.0000 0.0346 Uani
Cu2R Cu 0.17504(3) 0.82496(3) 0.0000 0.0361 Uani
O1R O 0.09587(18) 0.90413(18) 0.0000 0.0843 Uani
O3R O 0.21120(16) 0.78880(16) 0.0000 0.0733 Uani
Cu1M Cu 0.36873(3) 0.63127(3) 0.0000 0.0346 Uani
Cu1T Cu 0.13127(3) 0.13127(3) 0.0000 0.0346 Uani
Cu1AA Cu 0.0000 0.13127(3) 0.13127(3) 0.0346 Uani
Cu1EA Cu 0.36873(3) 0.36873(3) 0.0000 0.0346 Uani
Cu1LA Cu 0.0000 0.86873(3) 0.13127(3) 0.0346 Uani
Cu1NA Cu -0.0000 0.36873(3) 0.36873(3) 0.0346 Uani
Cu1OA Cu -0.0000 0.63127(3) 0.36873(3) 0.0346 Uani
Cu2M Cu 0.32496(3) 0.67504(3) 0.0000 0.0361 Uani
Cu2T Cu 0.17504(3) 0.17504(3) 0.0000 0.0361 Uani
Cu2AA Cu -0.0000 0.17504(3) 0.17504(3) 0.0361 Uani
Cu2EA Cu 0.32496(3) 0.32496(3) 0.0000 0.0361 Uani
Cu2LA Cu -0.0000 0.82496(3) 0.17504(3) 0.0361 Uani
Cu2NA Cu 0.0000 0.32496(3) 0.32496(3) 0.0361 Uani
Cu2OA Cu 0.0000 0.67504(3) 0.32496(3) 0.0361 Uani
O2UB O 0.38776(11) 0.46817(12) 0.15690(12) 0.0503 Uani
O2XB O 0.15690(12) 0.88776(11) -0.03183(12) 0.0503 Uani
O2EC O 0.15690(12) 0.53183(12) 0.38776(11) 0.0503 Uani
O2PD O 0.38776(11) 0.53183(12) 0.15690(12) 0.0503 Uani
O2QD O 0.15690(12) 0.88776(11) 0.03183(12) 0.0503 Uani
O2ZD O 0.15690(12) 0.46817(12) 0.38776(11) 0.0503 Uani
O2JF O 0.11224(11) 0.84310(12) -0.03183(12) 0.0503 Uani
O4UB O 0.35112(11) 0.46802(11) 0.19426(11) 0.0440 Uani
O4XB O 0.19426(11) 0.85112(11) -0.03198(11) 0.0440 Uani
O4EC O 0.19426(11) 0.53198(11) 0.35112(11) 0.0440 Uani
O4PD O 0.35112(11) 0.53198(11) 0.19426(11) 0.0440 Uani
O4QD O 0.19426(11) 0.85112(11) 0.03198(11) 0.0440 Uani
O4ZD O 0.19426(11) 0.46802(11) 0.35112(11) 0.0440 Uani
O4JF O 0.14888(11) 0.80574(11) -0.03198(11) 0.0440 Uani
loop_
_atom_site_aniso_label
_atom_site_aniso_U_11
_atom_site_aniso_U_22
_atom_site_aniso_U_33
_atom_site_aniso_U_23
_atom_site_aniso_U_13
_atom_site_aniso_U_12
Cu1 0.0366(7) 0.0306(10) 0.0366(7) 0.000 0.0117(8) 0.000
Cu2 0.0390(7) 0.0304(10) 0.0390(7) 0.000 0.0096(8) 0.000
O1 0.056(5) 0.141(13) 0.056(5) 0.000 0.031(6) 0.000
O2 0.043(3) 0.047(3) 0.061(3) -0.019(3) 0.025(3) -0.015(2)
O3 0.068(5) 0.084(9) 0.068(5) 0.000 0.051(6) 0.000
O4 0.045(3) 0.047(3) 0.040(3) -0.012(2) 0.013(2) -0.021(2)
C1 0.047(4) 0.036(4) 0.031(4) -0.001(3) -0.001(3) -0.003(3)
C2 0.040(4) 0.040(4) 0.050(6) -0.006(4) 0.006(4) -0.013(4)
C3 0.053(5) 0.047(4) 0.043(4) -0.008(3) 0.012(4) -0.015(3)
C4 0.068(6) 0.049(5) 0.074(6) -0.031(4) 0.033(5) -0.026(4)
C5 0.065(5) 0.065(5) 0.095(9) -0.046(6) 0.046(6) -0.041(7)
C6 0.104(6) 0.104(6) 0.109(9) -0.067(6) 0.067(6) -0.056(7)
C7 0.104(6) 0.104(6) 0.109(9) -0.067(6) 0.067(6) -0.056(7)
C8 0.143(11) 0.143(11) 0.146(16) -0.118(12) 0.118(12) -0.104(13)
C9 0.151(16) 0.124(10) 0.124(10) -0.093(11) 0.105(11) -0.105(11)
N1 0.12(3) 0.095(18) 0.095(18) -0.07(2) 0.07(2) -0.07(2)
O2KB 0.061 0.043 0.047 -0.015 0.019 -0.025
O4KB 0.04 0.045 0.047 -0.021 0.012 -0.013
C1KB 0.031 0.047 0.036 -0.003 0.001 0.001
C2KB 0.05 0.04 0.04 -0.013 0.006 -0.006
C3KB 0.043 0.053 0.047 -0.015 0.008 -0.012
C4KB 0.074 0.068 0.049 -0.026 0.031 -0.033
C5KB 0.095 0.065 0.065 -0.041 0.046 -0.046
C6KB 0.109 0.104 0.104 -0.056 0.067 -0.067
C7KB 0.109 0.104 0.104 -0.056 0.067 -0.067
C8KB 0.146 0.143 0.143 -0.104 0.118 -0.118
C9KB 0.124 0.151 0.124 -0.105 0.093 -0.105
N1KB 0.095 0.12 0.095 -0.07 0.07 -0.07
O2NC 0.047 0.061 0.043 -0.025 0.015 -0.019
O4NC 0.047 0.04 0.045 -0.013 0.021 -0.012
C1NC 0.036 0.031 0.047 0.001 0.003 -0.001
C2NC 0.04 0.05 0.04 -0.006 0.013 -0.006
C3NC 0.047 0.043 0.053 -0.012 0.015 -0.008
C4NC 0.049 0.074 0.068 -0.033 0.026 -0.031
C5NC 0.065 0.095 0.065 -0.046 0.041 -0.046
C6NC 0.104 0.109 0.104 -0.067 0.056 -0.067
C7NC 0.104 0.109 0.104 -0.067 0.056 -0.067
C8NC 0.143 0.146 0.143 -0.118 0.104 -0.118
C9NC 0.124 0.124 0.151 -0.105 0.105 -0.093
N1NC 0.095 0.095 0.12 -0.07 0.07 -0.07
O2KD 0.043 0.061 0.047 -0.019 0.015 -0.025
O4KD 0.045 0.04 0.047 -0.012 0.021 -0.013
C1KD 0.047 0.031 0.036 -0.001 0.003 0.001
C3KD 0.053 0.043 0.047 -0.008 0.015 -0.012
C4KD 0.068 0.074 0.049 -0.031 0.026 -0.033
O2EE 0.047 0.043 0.061 -0.025 0.019 -0.015
O4EE 0.047 0.045 0.04 -0.013 0.012 -0.021
C1EE 0.036 0.047 0.031 0.001 0.001 -0.003
C3EE 0.047 0.053 0.043 -0.012 0.008 -0.015
C4EE 0.049 0.068 0.074 -0.033 0.031 -0.026
O2YE 0.061 0.047 0.043 -0.015 0.025 -0.019
O4YE 0.04 0.047 0.045 -0.021 0.013 -0.012
C1YE 0.031 0.036 0.047 -0.003 -0.001 -0.001
C3YE 0.043 0.047 0.053 -0.015 0.012 -0.008
C4YE 0.074 0.049 0.068 -0.026 0.033 -0.031
Cu1J 0.0366 0.0306 0.0366 0 0.0117 0
Cu2J 0.039 0.0304 0.039 0 0.0096 0
O1J 0.056 0.141 0.056 0 0.031 0
O2J 0.061 0.047 0.043 0.015 0.025 0.019
O3J 0.068 0.084 0.068 0 0.051 0
O4J 0.04 0.047 0.045 0.021 0.013 0.012
C1J 0.031 0.036 0.047 0.003 -0.001 0.001
C2J 0.05 0.04 0.04 0.013 0.006 0.006
C3J 0.043 0.047 0.053 0.015 0.012 0.008
C4J 0.074 0.049 0.068 0.026 0.033 0.031
C5J 0.095 0.065 0.065 0.041 0.046 0.046
C6J 0.109 0.104 0.104 0.056 0.067 0.067
C7J 0.109 0.104 0.104 0.056 0.067 0.067
C8J 0.146 0.143 0.143 0.104 0.118 0.118
C9J 0.124 0.124 0.151 0.105 0.105 0.093
N1J 0.095 0.095 0.12 0.07 0.07 0.07
O2OA 0.047 0.043 0.061 0.025 0.019 0.015
O4OA 0.047 0.045 0.04 0.013 0.012 0.021
C1OA 0.036 0.047 0.031 -0.001 0.001 0.003
C2OA 0.04 0.04 0.05 0.006 0.006 0.013
C3OA 0.047 0.053 0.043 0.012 0.008 0.015
C4OA 0.049 0.068 0.074 0.033 0.031 0.026
C5OA 0.065 0.065 0.095 0.046 0.046 0.041
C6OA 0.104 0.104 0.109 0.067 0.067 0.056
C7OA 0.104 0.104 0.109 0.067 0.067 0.056
C8OA 0.143 0.143 0.146 0.118 0.118 0.104
C9OA 0.124 0.151 0.124 0.105 0.093 0.105
N1OA 0.095 0.12 0.095 0.07 0.07 0.07
O2R 0.043 0.061 0.047 0.019 0.015 0.025
O4R 0.045 0.04 0.047 0.012 0.021 0.013
C1R 0.047 0.031 0.036 0.001 0.003 -0.001
C2R 0.04 0.05 0.04 0.006 0.013 0.006
C3R 0.053 0.043 0.047 0.008 0.015 0.012
C4R 0.068 0.074 0.049 0.031 0.026 0.033
C5R 0.065 0.095 0.065 0.046 0.041 0.046
C6R 0.104 0.109 0.104 0.067 0.056 0.067
C7R 0.104 0.109 0.104 0.067 0.056 0.067
C8R 0.143 0.146 0.143 0.118 0.104 0.118
C9R 0.151 0.124 0.124 0.093 0.105 0.105
N1R 0.12 0.095 0.095 0.07 0.07 0.07
O2EG 0.047 0.061 0.043 0.025 0.015 0.019
O4EG 0.047 0.04 0.045 0.013 0.021 0.012
C1EG 0.036 0.031 0.047 -0.001 0.003 0.001
C3EG 0.047 0.043 0.053 0.012 0.015 0.008
C4EG 0.049 0.074 0.068 0.033 0.026 0.031
O2DF 0.061 0.043 0.047 0.015 0.019 0.025
O4DF 0.04 0.045 0.047 0.021 0.012 0.013
C1DF 0.031 0.047 0.036 0.003 0.001 -0.001
C3DF 0.043 0.053 0.047 0.015 0.008 0.012
C4DF 0.074 0.068 0.049 0.026 0.031 0.033
O2OE 0.043 0.047 0.061 0.019 0.025 0.015
O4OE 0.045 0.047 0.04 0.012 0.013 0.021
C1OE 0.047 0.036 0.031 0.001 -0.001 0.003
C3OE 0.053 0.047 0.043 0.008 0.012 0.015
C4OE 0.068 0.049 0.074 0.031 0.033 0.026
Cu1R 0.0366 0.0366 0.0306 0 0 0.0117
Cu2R 0.039 0.039 0.0304 0 0 0.0096
O1R 0.056 0.056 0.141 0 0 0.031
O3R 0.068 0.068 0.084 0 0 0.051
Cu1M 0.0366 0.0366 0.0306 0 0 0.0117
Cu1T 0.0366 0.0366 0.0306 0 0 -0.0117
Cu1AA 0.0306 0.0366 0.0366 -0.0117 0 0
Cu1EA 0.0366 0.0366 0.0306 0 0 -0.0117
Cu1LA 0.0306 0.0366 0.0366 0.0117 0 0
Cu1NA 0.0306 0.0366 0.0366 -0.0117 0 0
Cu1OA 0.0306 0.0366 0.0366 0.0117 0 0
Cu2M 0.039 0.039 0.0304 0 0 0.0096
Cu2T 0.039 0.039 0.0304 0 0 -0.0096
Cu2AA 0.0304 0.039 0.039 -0.0096 0 0
Cu2EA 0.039 0.039 0.0304 0 0 -0.0096
Cu2LA 0.0304 0.039 0.039 0.0096 0 0
Cu2NA 0.0304 0.039 0.039 -0.0096 0 0
Cu2OA 0.0304 0.039 0.039 0.0096 0 0
O2UB 0.043 0.047 0.061 0.019 0.025 0.015
O2XB 0.061 0.043 0.047 0.015 0.019 0.025
O2EC 0.061 0.047 0.043 -0.015 0.025 -0.019
O2PD 0.043 0.047 0.061 -0.019 0.025 -0.015
O2QD 0.061 0.043 0.047 -0.015 -0.019 0.025
O2ZD 0.061 0.047 0.043 0.015 0.025 0.019
O2JF 0.043 0.061 0.047 -0.019 -0.015 0.025
O4UB 0.045 0.047 0.04 0.012 0.013 0.021
O4XB 0.04 0.045 0.047 0.021 0.012 0.013
O4EC 0.04 0.047 0.045 -0.021 0.013 -0.012
O4PD 0.045 0.047 0.04 -0.012 0.013 -0.021
O4QD 0.04 0.045 0.047 -0.021 -0.012 0.013
O4ZD 0.04 0.047 0.045 0.021 0.013 0.012
O4JF 0.045 0.04 0.047 -0.012 -0.021 0.013
loop_
_geom_bond_atom_site_label_1
_geom_bond_atom_site_label_2
_geom_bond_site_symmetry_1
_geom_bond_site_symmetry_2
Cu1 Cu2 1_555 1_555
Cu2 O3 1_555 1_555
O1 Cu1 1_555 1_555
O2 Cu1 1_555 1_555
O4 Cu2 1_555 1_555
C1 O2 1_555 1_555
C2 H1 1_555 1_555
C3 C1 1_555 1_555
C4 C3 1_555 1_555
H2 C4 1_555 1_555
C5 C4 1_555 1_555
C6 C5 1_555 1_555
C7 C6 1_555 1_555
C8 C7 1_555 1_555
C9 C8 1_555 1_555
N1 C9 1_555 1_555
H3 N1 1_555 1_555
O2KB C1KB 1_555 1_555
O4KB C1KB 1_555 1_555
C1KB C3KB 1_555 1_555
C2KB H1KB 1_555 1_555
C3KB C2KB 1_555 1_555
C4KB C3KB 1_555 1_555
H2KB C4KB 1_555 1_555
C5KB C4KB 1_555 1_555
C6KB C5KB 1_555 1_555
C7KB C6KB 1_555 1_555
C8KB C7KB 1_555 1_555
C9KB C8 1_555 1_555
N1KB C9KB 1_555 1_555
H3KB N1KB 1_555 1_555
O2NC C1NC 1_555 1_555
O4NC C1NC 1_555 1_555
C1NC C3NC 1_555 1_555
C2NC H1NC 1_555 1_555
C3NC C2NC 1_555 1_555
C4NC C3NC 1_555 1_555
H2NC C4NC 1_555 1_555
C5NC C4NC 1_555 1_555
C6NC C5NC 1_555 1_555
C7NC C6NC 1_555 1_555
C8NC C9 1_555 1_555
C9NC C8KB 1_555 1_555
N1NC C9NC 1_555 1_555
H3NC N1NC 1_555 1_555
O2KD C1KD 1_555 1_555
O4KD C1KD 1_555 1_555
C1KD C3KD 1_555 1_555
C3KD C2NC 1_555 1_555
C4KD C5NC 1_555 1_555
H2KD C4KD 1_555 1_555
H3KD N1 1_555 1_555
O2EE C1EE 1_555 1_555
O4EE C1EE 1_555 1_555
C1EE C3EE 1_555 1_555
C3EE C2 1_555 1_555
C4EE C5 1_555 1_555
H2EE C4EE 1_555 1_555
H3EE N1KB 1_555 1_555
O2YE C1YE 1_555 1_555
O4YE C1YE 1_555 1_555
C1YE C3YE 1_555 1_555
C3YE C2KB 1_555 1_555
C4YE C5KB 1_555 1_555
H2YE C4YE 1_555 1_555
H3YE N1NC 1_555 1_555
Cu1J O2YE 1_555 1_555
Cu2J O4YE 1_555 1_555
O1J Cu1J 1_555 1_555
O2J Cu1J 1_555 1_555
O3J Cu2J 1_555 1_555
O4J Cu2J 1_555 1_555
C1J O2J 1_555 1_555
C2J H1J 1_555 1_555
C3J C1J 1_555 1_555
C4J C3J 1_555 1_555
H2J C4J 1_555 1_555
C5J C4J 1_555 1_555
C6J C5J 1_555 1_555
C7J C6J 1_555 1_555
C8J C7J 1_555 1_555
C9J C8J 1_555 1_555
N1J C9J 1_555 1_555
H3J N1J 1_555 1_555
O2OA C1OA 1_555 1_555
O4OA C1OA 1_555 1_555
C1OA C3OA 1_555 1_555
C2OA H1OA 1_555 1_555
C3OA C2OA 1_555 1_555
C4OA C3OA 1_555 1_555
H2OA C4OA 1_555 1_555
C5OA C4OA 1_555 1_555
C6OA C5OA 1_555 1_555
C7OA C6OA 1_555 1_555
C8OA C7OA 1_555 1_555
C9OA C8J 1_555 1_555
N1OA C9OA 1_555 1_555
H3OA N1OA 1_555 1_555
O2R C1R 1_555 1_555
O4R C1R 1_555 1_555
C1R C3R 1_555 1_555
C2R H1R 1_555 1_555
C3R C2R 1_555 1_555
C4R C3R 1_555 1_555
H2R C4R 1_555 1_555
C5R C4R 1_555 1_555
C6R C5R 1_555 1_555
C7R C6R 1_555 1_555
C8R C9J 1_555 1_555
C9R C8OA 1_555 1_555
N1R C9R 1_555 1_555
H3R N1R 1_555 1_555
O2EG C1EG 1_555 1_555
O4EG C1EG 1_555 1_555
C1EG C3EG 1_555 1_555
C3EG C2R 1_555 1_555
C4EG C5R 1_555 1_555
H2EG C4EG 1_555 1_555
H3EG N1J 1_555 1_555
O2DF C1DF 1_555 1_555
O4DF C1DF 1_555 1_555
C1DF C3DF 1_555 1_555
C3DF C2J 1_555 1_555
C4DF C5J 1_555 1_555
H2DF C4DF 1_555 1_555
H3DF N1OA 1_555 1_555
O2OE Cu1 1_555 1_555
O4OE Cu2 1_555 1_555
C1OE O2OE 1_555 1_555
C3OE C2OA 1_555 1_555
C4OE C5OA 1_555 1_555
H2OE C4OE 1_555 1_555
H3OE N1R 1_555 1_555
Cu1R O2R 1_555 1_555
Cu2R O4R 1_555 1_555
O1R Cu1R 1_555 1_555
O3R Cu2R 1_555 1_555
Cu1M O2DF 1_555 1_555
Cu1T O2KD 1_555 1_555
Cu1AA O2NC 1_555 1_555
Cu1EA O2KB 1_555 1_555
Cu1LA O2EG 1_555 1_555
Cu1NA O2EE 1_555 1_555
Cu1OA O2OA 1_555 1_555
Cu2M O4DF 1_555 1_555
Cu2T O4KD 1_555 1_555
Cu2AA O4NC 1_555 1_555
Cu2EA O4KB 1_555 1_555
Cu2LA O4EG 1_555 1_555
Cu2NA O4EE 1_555 1_555
Cu2OA O4OA 1_555 1_555
O2UB Cu1J 1_555 1_555
O2XB Cu1R 1_555 1_555
O2EC Cu1 1_555 1_555
O2PD Cu1J 1_555 1_555
O2QD Cu1R 1_555 1_555
O2ZD Cu1 1_555 1_555
O2JF Cu1R 1_555 1_555
O4UB Cu2J 1_555 1_555
O4XB Cu2R 1_555 1_555
O4EC Cu2 1_555 1_555
O4PD Cu2J 1_555 1_555
O4QD Cu2R 1_555 1_555
O4ZD Cu2 1_555 1_555
O4JF Cu2R 1_555 1_555
O4 C1 1_555 1_555
C2 C3 1_555 1_555
C8KB C9KB 1_555 1_555
C7NC C8NC 1_555 1_555
C8NC C9NC 1_555 1_555
C3KD C4KD 1_555 1_555
C3EE C4EE 1_555 1_555
C3YE C4YE 1_555 1_555
Cu1J Cu2J 1_555 1_555
O4J C1J 1_555 1_555
C2J C3J 1_555 1_555
C8OA C9OA 1_555 1_555
C7R C8R 1_555 1_555
C8R C9R 1_555 1_555
C3EG C4EG 1_555 1_555
C3DF C4DF 1_555 1_555
O4OE C1OE 1_555 1_555
C1OE C3OE 1_555 1_555
C3OE C4OE 1_555 1_555
Cu1R Cu2R 1_555 1_555
Cu1M Cu2M 1_555 1_555
Cu1T Cu2T 1_555 1_555
Cu1AA Cu2AA 1_555 1_555
Cu1EA Cu2EA 1_555 1_555
Cu1LA Cu2LA 1_555 1_555
Cu1NA Cu2NA 1_555 1_555
Cu1OA Cu2OA 1_555 1_555

#END
