
#######################################################################
#
#                 Cambridge Crystallographic Data Centre
#                                CCDC 
#
#######################################################################
#
# If this CIF has been generated from an entry in the Cambridge 
# Structural Database, then it will include bibliographic, chemical, 
# crystal, experimental, refinement or atomic coordinate data resulting 
# from the CCDC's data processing and validation procedures.
#
#######################################################################

data_RAHNUL
_chemical_formula_moiety         'C216 H180 Cu36 O84'
_symmetry_cell_setting           cubic
_symmetry_space_group_name_H-M   'F m -3 m'
_symmetry_Int_Tables_number      225
_space_group_name_Hall           '-F 4 2 3'
loop_
_symmetry_equiv_pos_site_id
_symmetry_equiv_pos_as_xyz
1 x,y,z
2 z,x,y
3 y,z,x
4 y,x,-z
5 y,-x,z
6 -y,x,z
7 x,z,-y
8 -x,z,y
9 x,-z,y
10 z,y,-x
11 z,-y,x
12 -z,y,x
13 x,1/2+y,1/2+z
14 z,1/2+x,1/2+y
15 y,1/2+z,1/2+x
16 y,1/2+x,1/2-z
17 y,1/2-x,1/2+z
18 -y,1/2+x,1/2+z
19 x,1/2+z,1/2-y
20 -x,1/2+z,1/2+y
21 x,1/2-z,1/2+y
22 z,1/2+y,1/2-x
23 z,1/2-y,1/2+x
24 -z,1/2+y,1/2+x
25 1/2+x,y,1/2+z
26 1/2+z,x,1/2+y
27 1/2+y,z,1/2+x
28 1/2+y,x,1/2-z
29 1/2+y,-x,1/2+z
30 1/2-y,x,1/2+z
31 1/2+x,z,1/2-y
32 1/2-x,z,1/2+y
33 1/2+x,-z,1/2+y
34 1/2+z,y,1/2-x
35 1/2+z,-y,1/2+x
36 1/2-z,y,1/2+x
37 1/2+x,1/2+y,z
38 1/2+z,1/2+x,y
39 1/2+y,1/2+z,x
40 1/2+y,1/2+x,-z
41 1/2+y,1/2-x,z
42 1/2-y,1/2+x,z
43 1/2+x,1/2+z,-y
44 1/2-x,1/2+z,y
45 1/2+x,1/2-z,y
46 1/2+z,1/2+y,-x
47 1/2+z,1/2-y,x
48 1/2-z,1/2+y,x
49 -x,-y,z
50 -x,y,-z
51 x,-y,-z
52 z,-x,-y
53 -z,-x,y
54 -z,x,-y
55 -y,z,-x
56 y,-z,-x
57 -y,-z,x
58 -y,-x,-z
59 -x,-z,-y
60 -z,-y,-x
61 -x,1/2-y,1/2+z
62 -x,1/2+y,1/2-z
63 x,1/2-y,1/2-z
64 z,1/2-x,1/2-y
65 -z,1/2-x,1/2+y
66 -z,1/2+x,1/2-y
67 -y,1/2+z,1/2-x
68 y,1/2-z,1/2-x
69 -y,1/2-z,1/2+x
70 -y,1/2-x,1/2-z
71 -x,1/2-z,1/2-y
72 -z,1/2-y,1/2-x
73 1/2-x,-y,1/2+z
74 1/2-x,y,1/2-z
75 1/2+x,-y,1/2-z
76 1/2+z,-x,1/2-y
77 1/2-z,-x,1/2+y
78 1/2-z,x,1/2-y
79 1/2-y,z,1/2-x
80 1/2+y,-z,1/2-x
81 1/2-y,-z,1/2+x
82 1/2-y,-x,1/2-z
83 1/2-x,-z,1/2-y
84 1/2-z,-y,1/2-x
85 1/2-x,1/2-y,z
86 1/2-x,1/2+y,-z
87 1/2+x,1/2-y,-z
88 1/2+z,1/2-x,-y
89 1/2-z,1/2-x,y
90 1/2-z,1/2+x,-y
91 1/2-y,1/2+z,-x
92 1/2+y,1/2-z,-x
93 1/2-y,1/2-z,x
94 1/2-y,1/2-x,-z
95 1/2-x,1/2-z,-y
96 1/2-z,1/2-y,-x
97 -x,-y,-z
98 -z,-x,-y
99 -y,-z,-x
100 -y,-x,z
101 -y,x,-z
102 y,-x,-z
103 -x,-z,y
104 x,-z,-y
105 -x,z,-y
106 -z,-y,x
107 -z,y,-x
108 z,-y,-x
109 -x,1/2-y,1/2-z
110 -z,1/2-x,1/2-y
111 -y,1/2-z,1/2-x
112 -y,1/2-x,1/2+z
113 -y,1/2+x,1/2-z
114 y,1/2-x,1/2-z
115 -x,1/2-z,1/2+y
116 x,1/2-z,1/2-y
117 -x,1/2+z,1/2-y
118 -z,1/2-y,1/2+x
119 -z,1/2+y,1/2-x
120 z,1/2-y,1/2-x
121 1/2-x,-y,1/2-z
122 1/2-z,-x,1/2-y
123 1/2-y,-z,1/2-x
124 1/2-y,-x,1/2+z
125 1/2-y,x,1/2-z
126 1/2+y,-x,1/2-z
127 1/2-x,-z,1/2+y
128 1/2+x,-z,1/2-y
129 1/2-x,z,1/2-y
130 1/2-z,-y,1/2+x
131 1/2-z,y,1/2-x
132 1/2+z,-y,1/2-x
133 1/2-x,1/2-y,-z
134 1/2-z,1/2-x,-y
135 1/2-y,1/2-z,-x
136 1/2-y,1/2-x,z
137 1/2-y,1/2+x,-z
138 1/2+y,1/2-x,-z
139 1/2-x,1/2-z,y
140 1/2+x,1/2-z,-y
141 1/2-x,1/2+z,-y
142 1/2-z,1/2-y,x
143 1/2-z,1/2+y,-x
144 1/2+z,1/2-y,-x
145 x,y,-z
146 x,-y,z
147 -x,y,z
148 -z,x,y
149 z,x,-y
150 z,-x,y
151 y,-z,x
152 -y,z,x
153 y,z,-x
154 y,x,z
155 x,z,y
156 z,y,x
157 x,1/2+y,1/2-z
158 x,1/2-y,1/2+z
159 -x,1/2+y,1/2+z
160 -z,1/2+x,1/2+y
161 z,1/2+x,1/2-y
162 z,1/2-x,1/2+y
163 y,1/2-z,1/2+x
164 -y,1/2+z,1/2+x
165 y,1/2+z,1/2-x
166 y,1/2+x,1/2+z
167 x,1/2+z,1/2+y
168 z,1/2+y,1/2+x
169 1/2+x,y,1/2-z
170 1/2+x,-y,1/2+z
171 1/2-x,y,1/2+z
172 1/2-z,x,1/2+y
173 1/2+z,x,1/2-y
174 1/2+z,-x,1/2+y
175 1/2+y,-z,1/2+x
176 1/2-y,z,1/2+x
177 1/2+y,z,1/2-x
178 1/2+y,x,1/2+z
179 1/2+x,z,1/2+y
180 1/2+z,y,1/2+x
181 1/2+x,1/2+y,-z
182 1/2+x,1/2-y,z
183 1/2-x,1/2+y,z
184 1/2-z,1/2+x,y
185 1/2+z,1/2+x,-y
186 1/2+z,1/2-x,y
187 1/2+y,1/2-z,x
188 1/2-y,1/2+z,x
189 1/2+y,1/2+z,-x
190 1/2+y,1/2+x,z
191 1/2+x,1/2+z,y
192 1/2+z,1/2+y,x
_cell_length_a                   42.712(5)
_cell_length_b                   42.712(5)
_cell_length_c                   42.712(5)
_cell_angle_alpha                90
_cell_angle_beta                 90
_cell_angle_gamma                90
_cell_volume                     77920.1
loop_
_atom_site_label
_atom_site_type_symbol
_atom_site_fract_x
_atom_site_fract_y
_atom_site_fract_z
_atom_site_U_iso_or_equiv
_atom_site_thermal_displace_type
Cu1 Cu 0.131271(14) 0.368729(14) 0.5000 0.0408 Uani
Cu2 Cu 0.175452(14) 0.324548(14) 0.5000 0.0409 Uani
O1 O 0.15726(8) 0.38792(8) 0.53216(8) 0.0618 Uani
O2 O 0.19460(8) 0.35100(8) 0.53201(8) 0.0591 Uani
O3 O 0.09529(12) 0.40471(12) 0.5000 0.1040 Uani
O4 O 0.21090(9) 0.28910(9) 0.5000 0.0757 Uani
C1 C 0.18197(11) 0.37578(11) 0.54135(11) 0.0533 Uani
C2 C 0.19908(12) 0.39256(12) 0.56756(12) 0.0607 Uani
C3 C 0.18445(17) 0.41807(12) 0.58193(12) 0.0577 Uani
H1 H 0.1649 0.4255 0.5745 0.0690 Uiso
C4 C 0.22831(14) 0.38305(13) 0.57719(12) 0.0710 Uani
H2 H 0.2380 0.3657 0.5672 0.0850 Uiso
C5 C 0.24391(19) 0.39851(15) 0.60149(15) 0.0723 Uani
C6 C 0.2709(3) 0.3843(2) 0.6157(2) 0.0550 Uiso
C7 C 0.2935(3) 0.3743(3) 0.6257(3) 0.0610 Uiso
C8 C 0.3228(3) 0.3619(3) 0.6381(3) 0.0600 Uiso
C9 C 0.3359(2) 0.3768(3) 0.6641(2) 0.0510 Uiso
C10 C 0.3208(3) 0.4045(3) 0.6792(3) 0.0650 Uiso
H3 H 0.3336 0.4114 0.6970 0.0980 Uiso
H4 H 0.2999 0.3988 0.6866 0.0980 Uiso
H5 H 0.3191 0.4216 0.6639 0.0980 Uiso
C11 C 0.2769(2) 0.3931(3) 0.6069(3) 0.0610 Uiso
C12 C 0.3019(3) 0.3830(3) 0.6170(3) 0.0580 Uiso
C13 C 0.3312(3) 0.3706(3) 0.6294(3) 0.0590 Uiso
C14 C 0.3444(3) 0.3853(3) 0.6556(3) 0.0560 Uiso
C15 C 0.3305(3) 0.4143(3) 0.6695(3) 0.0670 Uiso
H6 H 0.3125 0.4209 0.6570 0.1000 Uiso
H7 H 0.3302 0.4310 0.6538 0.1000 Uiso
H8 H 0.3236 0.4099 0.6910 0.1000 Uiso
Cu1F Cu 0.131271(14) 0.5000 0.631271(14) 0.0408 Uani
Cu1I Cu 0.5000 0.368729(14) 0.868729(14) 0.0408 Uani
Cu1EA Cu 0.368729(14) 0.5000 0.868729(14) 0.0408 Uani
Cu1V Cu 0.5000 0.131271(14) 0.631271(14) 0.0408 Uani
Cu1C Cu 0.368729(14) 0.131271(14) 0.5000 0.0408 Uani
Cu1H Cu 0.131271(14) 0.5000 0.368729(14) 0.0408 Uani
Cu1K Cu 0.5000 0.368729(14) 0.131271(14) 0.0408 Uani
Cu1B Cu 0.368729(14) 0.5000 0.131271(14) 0.0408 Uani
Cu1A Cu 0.5000 0.131271(14) 0.368729(14) 0.0408 Uani
Cu1IA Cu 0.0000 0.368729(14) 0.631271(14) 0.0408 Uani
Cu1T Cu 0.131271(14) 0.0000 0.868729(14) 0.0408 Uani
Cu1Y Cu 0.0000 0.131271(14) 0.868729(14) 0.0408 Uani
Cu1N Cu 0.368729(14) 0.0000 0.631271(14) 0.0408 Uani
Cu1GA Cu -0.0000 0.368729(14) 0.368729(14) 0.0408 Uani
Cu1R Cu 0.131271(14) 0.0000 0.131271(14) 0.0408 Uani
Cu1TA Cu 0.0000 0.131271(14) 0.131271(14) 0.0408 Uani
Cu1QA Cu 0.368729(14) -0.0000 0.368729(14) 0.0408 Uani
Cu2F Cu 0.175452(14) 0.5000 0.675452(14) 0.0409 Uani
Cu2I Cu 0.5000 0.324548(14) 0.824548(14) 0.0409 Uani
Cu2EA Cu 0.324548(14) 0.5000 0.824548(14) 0.0409 Uani
Cu2V Cu 0.5000 0.175452(14) 0.675452(14) 0.0409 Uani
Cu2C Cu 0.324548(14) 0.175452(14) 0.5000 0.0409 Uani
Cu2H Cu 0.175452(14) 0.5000 0.324548(14) 0.0409 Uani
Cu2K Cu 0.5000 0.324548(14) 0.175452(14) 0.0409 Uani
Cu2B Cu 0.324548(14) 0.5000 0.175452(14) 0.0409 Uani
Cu2A Cu 0.5000 0.175452(14) 0.324548(14) 0.0409 Uani
Cu2IA Cu 0.0000 0.324548(14) 0.675452(14) 0.0409 Uani
Cu2T Cu 0.175452(14) 0.0000 0.824548(14) 0.0409 Uani
Cu2Y Cu 0.0000 0.175452(14) 0.824548(14) 0.0409 Uani
Cu2N Cu 0.324548(14) 0.0000 0.675452(14) 0.0409 Uani
Cu2GA Cu 0.0000 0.324548(14) 0.324548(14) 0.0409 Uani
Cu2R Cu 0.175452(14) -0.0000 0.175452(14) 0.0409 Uani
Cu2TA Cu -0.0000 0.175452(14) 0.175452(14) 0.0409 Uani
Cu2QA Cu 0.324548(14) 0.0000 0.324548(14) 0.0409 Uani
O1YC O 0.15726(8) 0.46784(8) 0.61208(8) 0.0618 Uani
O1BD O 0.46784(8) 0.38792(8) 0.84274(8) 0.0618 Uani
O1CB O 0.38792(8) 0.46784(8) 0.84274(8) 0.0618 Uani
O1AB O 0.46784(8) 0.15726(8) 0.61208(8) 0.0618 Uani
O1WE O 0.38792(8) 0.15726(8) 0.53216(8) 0.0618 Uani
O1NE O 0.15726(8) 0.38792(8) 0.46784(8) 0.0618 Uani
O1H O 0.15726(8) 0.46784(8) 0.38792(8) 0.0618 Uani
O1K O 0.46784(8) 0.38792(8) 0.15726(8) 0.0618 Uani
O1TE O 0.38792(8) 0.46784(8) 0.15726(8) 0.0618 Uani
O1QE O 0.46784(8) 0.15726(8) 0.38792(8) 0.0618 Uani
O1C O 0.38792(8) 0.15726(8) 0.46784(8) 0.0618 Uani
O1EE O 0.11208(8) 0.34274(8) 0.53216(8) 0.0618 Uani
O1IC O 0.03216(8) 0.34274(8) 0.61208(8) 0.0618 Uani
O1LC O 0.11208(8) 0.03216(8) 0.84274(8) 0.0618 Uani
O1ME O 0.03216(8) 0.11208(8) 0.84274(8) 0.0618 Uani
O1JE O 0.34274(8) 0.03216(8) 0.61208(8) 0.0618 Uani
O1FC O 0.34274(8) 0.11208(8) 0.53216(8) 0.0618 Uani
O1OC O 0.11208(8) 0.34274(8) 0.46784(8) 0.0618 Uani
O1CG O 0.03216(8) 0.34274(8) 0.38792(8) 0.0618 Uani
O1EG O 0.11208(8) 0.03216(8) 0.15726(8) 0.0618 Uani
O1TA O 0.03216(8) 0.11208(8) 0.15726(8) 0.0618 Uani
O1QA O 0.34274(8) 0.03216(8) 0.38792(8) 0.0618 Uani
O1BE O 0.34274(8) 0.11208(8) 0.46784(8) 0.0618 Uani
O1F O 0.15726(8) 0.53216(8) 0.61208(8) 0.0618 Uani
O1BC O 0.11208(8) 0.46784(8) 0.65726(8) 0.0618 Uani
O1SF O 0.11208(8) 0.53216(8) 0.65726(8) 0.0618 Uani
O1I O 0.53216(8) 0.38792(8) 0.84274(8) 0.0618 Uani
O1LB O 0.46784(8) 0.34274(8) 0.88792(8) 0.0618 Uani
O1EF O 0.53216(8) 0.34274(8) 0.88792(8) 0.0618 Uani
O1VE O 0.38792(8) 0.53216(8) 0.84274(8) 0.0618 Uani
O1VD O 0.34274(8) 0.46784(8) 0.88792(8) 0.0618 Uani
O1EA O 0.34274(8) 0.53216(8) 0.88792(8) 0.0618 Uani
O1RE O 0.53216(8) 0.15726(8) 0.61208(8) 0.0618 Uani
O1MD O 0.46784(8) 0.11208(8) 0.65726(8) 0.0618 Uani
O1V O 0.53216(8) 0.11208(8) 0.65726(8) 0.0618 Uani
O2YC O 0.19460(8) 0.46799(8) 0.64900(8) 0.0591 Uani
O2BD O 0.46799(8) 0.35100(8) 0.80540(8) 0.0591 Uani
O2CB O 0.35100(8) 0.46799(8) 0.80540(8) 0.0591 Uani
O2AB O 0.46799(8) 0.19460(8) 0.64900(8) 0.0591 Uani
O2WE O 0.35100(8) 0.19460(8) 0.53201(8) 0.0591 Uani
O2NE O 0.19460(8) 0.35100(8) 0.46799(8) 0.0591 Uani
O2H O 0.19460(8) 0.46799(8) 0.35100(8) 0.0591 Uani
O2K O 0.46799(8) 0.35100(8) 0.19460(8) 0.0591 Uani
O2TE O 0.35100(8) 0.46799(8) 0.19460(8) 0.0591 Uani
O2QE O 0.46799(8) 0.19460(8) 0.35100(8) 0.0591 Uani
O2C O 0.35100(8) 0.19460(8) 0.46799(8) 0.0591 Uani
O2EE O 0.14900(8) 0.30540(8) 0.53201(8) 0.0591 Uani
O2IC O 0.03201(8) 0.30540(8) 0.64900(8) 0.0591 Uani
O2LC O 0.14900(8) 0.03201(8) 0.80540(8) 0.0591 Uani
O2ME O 0.03201(8) 0.14900(8) 0.80540(8) 0.0591 Uani
O2JE O 0.30540(8) 0.03201(8) 0.64900(8) 0.0591 Uani
O2FC O 0.30540(8) 0.14900(8) 0.53201(8) 0.0591 Uani
O2OC O 0.14900(8) 0.30540(8) 0.46799(8) 0.0591 Uani
O2CG O 0.03201(8) 0.30540(8) 0.35100(8) 0.0591 Uani
O2EG O 0.14900(8) 0.03201(8) 0.19460(8) 0.0591 Uani
O2TA O 0.03201(8) 0.14900(8) 0.19460(8) 0.0591 Uani
O2QA O 0.30540(8) 0.03201(8) 0.35100(8) 0.0591 Uani
O2BE O 0.30540(8) 0.14900(8) 0.46799(8) 0.0591 Uani
O2F O 0.19460(8) 0.53201(8) 0.64900(8) 0.0591 Uani
O2BC O 0.14900(8) 0.46799(8) 0.69460(8) 0.0591 Uani
O2SF O 0.14900(8) 0.53201(8) 0.69460(8) 0.0591 Uani
O2I O 0.53201(8) 0.35100(8) 0.80540(8) 0.0591 Uani
O2LB O 0.46799(8) 0.30540(8) 0.85100(8) 0.0591 Uani
O2EF O 0.53201(8) 0.30540(8) 0.85100(8) 0.0591 Uani
O2VE O 0.35100(8) 0.53201(8) 0.80540(8) 0.0591 Uani
O2VD O 0.30540(8) 0.46799(8) 0.85100(8) 0.0591 Uani
O2EA O 0.30540(8) 0.53201(8) 0.85100(8) 0.0591 Uani
O2RE O 0.53201(8) 0.19460(8) 0.64900(8) 0.0591 Uani
O2MD O 0.46799(8) 0.14900(8) 0.69460(8) 0.0591 Uani
O2V O 0.53201(8) 0.14900(8) 0.69460(8) 0.0591 Uani
O3F O 0.09529(12) 0.5000 0.59529(12) 0.1040 Uani
O3I O 0.5000 0.40471(12) 0.90471(12) 0.1040 Uani
O3EA O 0.40471(12) 0.5000 0.90471(12) 0.1040 Uani
O3V O 0.5000 0.09529(12) 0.59529(12) 0.1040 Uani
O3C O 0.40471(12) 0.09529(12) 0.5000 0.1040 Uani
O4F O 0.21090(9) 0.5000 0.71090(9) 0.0757 Uani
O4I O 0.5000 0.28910(9) 0.78910(9) 0.0757 Uani
O4EA O 0.28910(9) 0.5000 0.78910(9) 0.0757 Uani
O4V O 0.5000 0.21090(9) 0.71090(9) 0.0757 Uani
O4C O 0.28910(9) 0.21090(9) 0.5000 0.0757 Uani
C1YC C 0.18197(11) 0.45865(11) 0.62422(11) 0.0533 Uani
C1BD C 0.45865(11) 0.37578(11) 0.81803(11) 0.0533 Uani
C1CB C 0.37578(11) 0.45865(11) 0.81803(11) 0.0533 Uani
C1AB C 0.45865(11) 0.18197(11) 0.62422(11) 0.0533 Uani
C1WE C 0.37578(11) 0.18197(11) 0.54135(11) 0.0533 Uani
C1NE C 0.18197(11) 0.37578(11) 0.45865(11) 0.0533 Uani
C1H C 0.18197(11) 0.45865(11) 0.37578(11) 0.0533 Uani
C1K C 0.45865(11) 0.37578(11) 0.18197(11) 0.0533 Uani
C1TE C 0.37578(11) 0.45865(11) 0.18197(11) 0.0533 Uani
C1QE C 0.45865(11) 0.18197(11) 0.37578(11) 0.0533 Uani
C1C C 0.37578(11) 0.18197(11) 0.45865(11) 0.0533 Uani
C1EE C 0.12422(11) 0.31803(11) 0.54135(11) 0.0533 Uani
C1IC C 0.04135(11) 0.31803(11) 0.62422(11) 0.0533 Uani
C1LC C 0.12422(11) 0.04135(11) 0.81803(11) 0.0533 Uani
C1ME C 0.04135(11) 0.12422(11) 0.81803(11) 0.0533 Uani
C1JE C 0.31803(11) 0.04135(11) 0.62422(11) 0.0533 Uani
C1FC C 0.31803(11) 0.12422(11) 0.54135(11) 0.0533 Uani
C1OC C 0.12422(11) 0.31803(11) 0.45865(11) 0.0533 Uani
C1CG C 0.04135(11) 0.31803(11) 0.37578(11) 0.0533 Uani
C1EG C 0.12422(11) 0.04135(11) 0.18197(11) 0.0533 Uani
C1TA C 0.04135(11) 0.12422(11) 0.18197(11) 0.0533 Uani
C1QA C 0.31803(11) 0.04135(11) 0.37578(11) 0.0533 Uani
C1BE C 0.31803(11) 0.12422(11) 0.45865(11) 0.0533 Uani
C2YC C 0.19908(12) 0.43244(12) 0.60744(12) 0.0607 Uani
C2BD C 0.43244(12) 0.39256(12) 0.80092(12) 0.0607 Uani
C2CB C 0.39256(12) 0.43244(12) 0.80092(12) 0.0607 Uani
C2AB C 0.43244(12) 0.19908(12) 0.60744(12) 0.0607 Uani
C2WE C 0.39256(12) 0.19908(12) 0.56756(12) 0.0607 Uani
C2NE C 0.19908(12) 0.39256(12) 0.43244(12) 0.0607 Uani
C2H C 0.19908(12) 0.43244(12) 0.39256(12) 0.0607 Uani
C2K C 0.43244(12) 0.39256(12) 0.19908(12) 0.0607 Uani
C2TE C 0.39256(12) 0.43244(12) 0.19908(12) 0.0607 Uani
C2QE C 0.43244(12) 0.19908(12) 0.39256(12) 0.0607 Uani
C2C C 0.39256(12) 0.19908(12) 0.43244(12) 0.0607 Uani
C2EE C 0.10744(12) 0.30092(12) 0.56756(12) 0.0607 Uani
C2IC C 0.06756(12) 0.30092(12) 0.60744(12) 0.0607 Uani
C2LC C 0.10744(12) 0.06756(12) 0.80092(12) 0.0607 Uani
C2ME C 0.06756(12) 0.10744(12) 0.80092(12) 0.0607 Uani
C2JE C 0.30092(12) 0.06756(12) 0.60744(12) 0.0607 Uani
C2FC C 0.30092(12) 0.10744(12) 0.56756(12) 0.0607 Uani
C2OC C 0.10744(12) 0.30092(12) 0.43244(12) 0.0607 Uani
C2CG C 0.06756(12) 0.30092(12) 0.39256(12) 0.0607 Uani
C2EG C 0.10744(12) 0.06756(12) 0.19908(12) 0.0607 Uani
C2TA C 0.06756(12) 0.10744(12) 0.19908(12) 0.0607 Uani
C2QA C 0.30092(12) 0.06756(12) 0.39256(12) 0.0607 Uani
C2BE C 0.30092(12) 0.10744(12) 0.43244(12) 0.0607 Uani
C3BD C 0.41807(12) 0.41807(12) 0.81555(17) 0.0577 Uani
C3WE C 0.41807(12) 0.18445(17) 0.58193(12) 0.0577 Uani
C3H C 0.18445(17) 0.41807(12) 0.41807(12) 0.0577 Uani
C3K C 0.41807(12) 0.41807(12) 0.18445(17) 0.0577 Uani
C3C C 0.41807(12) 0.18445(17) 0.41807(12) 0.0577 Uani
C3EE C 0.08193(12) 0.31555(17) 0.58193(12) 0.0577 Uani
C3ME C 0.08193(12) 0.08193(12) 0.81555(17) 0.0577 Uani
C3JE C 0.31555(17) 0.08193(12) 0.58193(12) 0.0577 Uani
C3CG C 0.08193(12) 0.31555(17) 0.41807(12) 0.0577 Uani
C3TA C 0.08193(12) 0.08193(12) 0.18445(17) 0.0577 Uani
C3QA C 0.31555(17) 0.08193(12) 0.41807(12) 0.0577 Uani
H1WE H 0.4255 0.1649 0.5745 0.0690 Uiso
H1BD H 0.4255 0.4255 0.8351 0.0690 Uiso
H1H H 0.1649 0.4255 0.4255 0.0690 Uiso
H1C H 0.4255 0.1649 0.4255 0.0690 Uiso
H1K H 0.4255 0.4255 0.1649 0.0690 Uiso
H1EE H 0.0745 0.3351 0.5745 0.0690 Uiso
H1JE H 0.3351 0.0745 0.5745 0.0690 Uiso
H1ME H 0.0745 0.0745 0.8351 0.0690 Uiso
H1CG H 0.0745 0.3351 0.4255 0.0690 Uiso
H1QA H 0.3351 0.0745 0.4255 0.0690 Uiso
H1TA H 0.0745 0.0745 0.1649 0.0690 Uiso
C4YC C 0.22831(14) 0.42281(12) 0.61695(13) 0.0710 Uani
C4BD C 0.42281(12) 0.38305(13) 0.77169(14) 0.0710 Uani
C4CB C 0.38305(13) 0.42281(12) 0.77169(14) 0.0710 Uani
C4AB C 0.42281(12) 0.22831(14) 0.61695(13) 0.0710 Uani
C4WE C 0.38305(13) 0.22831(14) 0.57719(12) 0.0710 Uani
C4NE C 0.22831(14) 0.38305(13) 0.42281(12) 0.0710 Uani
C4H C 0.22831(14) 0.42281(12) 0.38305(13) 0.0710 Uani
C4K C 0.42281(12) 0.38305(13) 0.22831(14) 0.0710 Uani
C4TE C 0.38305(13) 0.42281(12) 0.22831(14) 0.0710 Uani
C4QE C 0.42281(12) 0.22831(14) 0.38305(13) 0.0710 Uani
C4C C 0.38305(13) 0.22831(14) 0.42281(12) 0.0710 Uani
C4EE C 0.11695(13) 0.27169(14) 0.57719(12) 0.0710 Uani
C4IC C 0.07719(12) 0.27169(14) 0.61695(13) 0.0710 Uani
C4LC C 0.11695(13) 0.07719(12) 0.77169(14) 0.0710 Uani
C4ME C 0.07719(12) 0.11695(13) 0.77169(14) 0.0710 Uani
C4JE C 0.27169(14) 0.07719(12) 0.61695(13) 0.0710 Uani
C4FC C 0.27169(14) 0.11695(13) 0.57719(12) 0.0710 Uani
C4OC C 0.11695(13) 0.27169(14) 0.42281(12) 0.0710 Uani
C4CG C 0.07719(12) 0.27169(14) 0.38305(13) 0.0710 Uani
C4EG C 0.11695(13) 0.07719(12) 0.22831(14) 0.0710 Uani
C4TA C 0.07719(12) 0.11695(13) 0.22831(14) 0.0710 Uani
C4QA C 0.27169(14) 0.07719(12) 0.38305(13) 0.0710 Uani
C4BE C 0.27169(14) 0.11695(13) 0.42281(12) 0.0710 Uani
H2YC H 0.2380 0.4328 0.6343 0.0850 Uiso
H2CB H 0.3657 0.4328 0.7620 0.0850 Uiso
H2WE H 0.3657 0.2380 0.5672 0.0850 Uiso
H2AB H 0.4328 0.2380 0.6343 0.0850 Uiso
H2BD H 0.4328 0.3657 0.7620 0.0850 Uiso
H2NE H 0.2380 0.3657 0.4328 0.0850 Uiso
H2H H 0.2380 0.4328 0.3657 0.0850 Uiso
H2TE H 0.3657 0.4328 0.2380 0.0850 Uiso
H2C H 0.3657 0.2380 0.4328 0.0850 Uiso
H2QE H 0.4328 0.2380 0.3657 0.0850 Uiso
H2K H 0.4328 0.3657 0.2380 0.0850 Uiso
H2EE H 0.1343 0.2620 0.5672 0.0850 Uiso
H2IC H 0.0672 0.2620 0.6343 0.0850 Uiso
H2ME H 0.0672 0.1343 0.7620 0.0850 Uiso
H2FC H 0.2620 0.1343 0.5672 0.0850 Uiso
H2JE H 0.2620 0.0672 0.6343 0.0850 Uiso
H2LC H 0.1343 0.0672 0.7620 0.0850 Uiso
H2OC H 0.1343 0.2620 0.4328 0.0850 Uiso
H2CG H 0.0672 0.2620 0.3657 0.0850 Uiso
H2TA H 0.0672 0.1343 0.2380 0.0850 Uiso
H2BE H 0.2620 0.1343 0.4328 0.0850 Uiso
H2QA H 0.2620 0.0672 0.3657 0.0850 Uiso
H2EG H 0.1343 0.0672 0.2380 0.0850 Uiso
C5BD C 0.39851(15) 0.39851(15) 0.75609(19) 0.0723 Uani
C5WE C 0.39851(15) 0.24391(19) 0.60149(15) 0.0723 Uani
C5H C 0.24391(19) 0.39851(15) 0.39851(15) 0.0723 Uani
C5K C 0.39851(15) 0.39851(15) 0.24391(19) 0.0723 Uani
C5C C 0.39851(15) 0.24391(19) 0.39851(15) 0.0723 Uani
C5EE C 0.10149(15) 0.25609(19) 0.60149(15) 0.0723 Uani
C5ME C 0.10149(15) 0.10149(15) 0.75609(19) 0.0723 Uani
C5JE C 0.25609(19) 0.10149(15) 0.60149(15) 0.0723 Uani
C5CG C 0.10149(15) 0.25609(19) 0.39851(15) 0.0723 Uani
C5TA C 0.10149(15) 0.10149(15) 0.24391(19) 0.0723 Uani
C5QA C 0.25609(19) 0.10149(15) 0.39851(15) 0.0723 Uani
C6BD C 0.3843(2) 0.3843(2) 0.7291(3) 0.0550 Uiso
C6WE C 0.3843(2) 0.2709(3) 0.6157(2) 0.0550 Uiso
C6H C 0.2709(3) 0.3843(2) 0.3843(2) 0.0550 Uiso
C6K C 0.3843(2) 0.3843(2) 0.2709(3) 0.0550 Uiso
C6C C 0.3843(2) 0.2709(3) 0.3843(2) 0.0550 Uiso
C6EE C 0.1157(2) 0.2291(3) 0.6157(2) 0.0550 Uiso
C6ME C 0.1157(2) 0.1157(2) 0.7291(3) 0.0550 Uiso
C6JE C 0.2291(3) 0.1157(2) 0.6157(2) 0.0550 Uiso
C6CG C 0.1157(2) 0.2291(3) 0.3843(2) 0.0550 Uiso
C6TA C 0.1157(2) 0.1157(2) 0.2709(3) 0.0550 Uiso
C6QA C 0.2291(3) 0.1157(2) 0.3843(2) 0.0550 Uiso
C7BD C 0.3743(3) 0.3743(3) 0.7065(3) 0.0610 Uiso
C7WE C 0.3743(3) 0.2935(3) 0.6257(3) 0.0610 Uiso
C7H C 0.2935(3) 0.3743(3) 0.3743(3) 0.0610 Uiso
C7K C 0.3743(3) 0.3743(3) 0.2935(3) 0.0610 Uiso
C7C C 0.3743(3) 0.2935(3) 0.3743(3) 0.0610 Uiso
C7EE C 0.1257(3) 0.2065(3) 0.6257(3) 0.0610 Uiso
C7ME C 0.1257(3) 0.1257(3) 0.7065(3) 0.0610 Uiso
C7JE C 0.2065(3) 0.1257(3) 0.6257(3) 0.0610 Uiso
C7CG C 0.1257(3) 0.2065(3) 0.3743(3) 0.0610 Uiso
C7TA C 0.1257(3) 0.1257(3) 0.2935(3) 0.0610 Uiso
C7QA C 0.2065(3) 0.1257(3) 0.3743(3) 0.0610 Uiso
C8BD C 0.3619(3) 0.3619(3) 0.6772(3) 0.0600 Uiso
C8WE C 0.3619(3) 0.3228(3) 0.6381(3) 0.0600 Uiso
C8H C 0.3228(3) 0.3619(3) 0.3619(3) 0.0600 Uiso
C8K C 0.3619(3) 0.3619(3) 0.3228(3) 0.0600 Uiso
C8C C 0.3619(3) 0.3228(3) 0.3619(3) 0.0600 Uiso
C8EE C 0.1381(3) 0.1772(3) 0.6381(3) 0.0600 Uiso
C8ME C 0.1381(3) 0.1381(3) 0.6772(3) 0.0600 Uiso
C8JE C 0.1772(3) 0.1381(3) 0.6381(3) 0.0600 Uiso
C8CG C 0.1381(3) 0.1772(3) 0.3619(3) 0.0600 Uiso
C8TA C 0.1381(3) 0.1381(3) 0.3228(3) 0.0600 Uiso
C8QA C 0.1772(3) 0.1381(3) 0.3619(3) 0.0600 Uiso
C9YC C 0.3359(2) 0.3359(2) 0.6232(3) 0.0510 Uiso
C9WE C 0.3768(3) 0.3359(2) 0.6641(2) 0.0510 Uiso
C9K C 0.3359(2) 0.3768(3) 0.3359(2) 0.0510 Uiso
C9H C 0.3359(2) 0.3359(2) 0.3768(3) 0.0510 Uiso
C9C C 0.3768(3) 0.3359(2) 0.3359(2) 0.0510 Uiso
C9EE C 0.1232(3) 0.1641(2) 0.6641(2) 0.0510 Uiso
C9JE C 0.1641(2) 0.1641(2) 0.6232(3) 0.0510 Uiso
C9ME C 0.1641(2) 0.1232(3) 0.6641(2) 0.0510 Uiso
C9EG C 0.1232(3) 0.1641(2) 0.3359(2) 0.0510 Uiso
C9QA C 0.1641(2) 0.1641(2) 0.3768(3) 0.0510 Uiso
C9TA C 0.1641(2) 0.1232(3) 0.3359(2) 0.0510 Uiso
C10WE C 0.4045(3) 0.3208(3) 0.6792(3) 0.0650 Uiso
C10YC C 0.3208(3) 0.3208(3) 0.5955(3) 0.0650 Uiso
C10K C 0.3208(3) 0.4045(3) 0.3208(3) 0.0650 Uiso
C10C C 0.4045(3) 0.3208(3) 0.3208(3) 0.0650 Uiso
C10H C 0.3208(3) 0.3208(3) 0.4045(3) 0.0650 Uiso
C10EE C 0.0955(3) 0.1792(3) 0.6792(3) 0.0650 Uiso
C10ME C 0.1792(3) 0.0955(3) 0.6792(3) 0.0650 Uiso
C10JE C 0.1792(3) 0.1792(3) 0.5955(3) 0.0650 Uiso
C10EG C 0.0955(3) 0.1792(3) 0.3208(3) 0.0650 Uiso
C10TA C 0.1792(3) 0.0955(3) 0.3208(3) 0.0650 Uiso
C10QA C 0.1792(3) 0.1792(3) 0.4045(3) 0.0650 Uiso
H3BD H 0.3030 0.4114 0.6664 0.0980 Uiso
H3CB H 0.4114 0.3030 0.6664 0.0980 Uiso
H3WE H 0.4114 0.3336 0.6970 0.0980 Uiso
H3YC H 0.3336 0.3030 0.5886 0.0980 Uiso
H3AB H 0.3030 0.3336 0.5886 0.0980 Uiso
H3NE H 0.3336 0.4114 0.3030 0.0980 Uiso
H3K H 0.3030 0.4114 0.3336 0.0980 Uiso
H3TE H 0.4114 0.3030 0.3336 0.0980 Uiso
H3C H 0.4114 0.3336 0.3030 0.0980 Uiso
H3H H 0.3336 0.3030 0.4114 0.0980 Uiso
H3QE H 0.3030 0.3336 0.4114 0.0980 Uiso
H3EE H 0.0886 0.1664 0.6970 0.0980 Uiso
H3LC H 0.0886 0.1970 0.6664 0.0980 Uiso
H3ME H 0.1970 0.0886 0.6664 0.0980 Uiso
H3FC H 0.1664 0.0886 0.6970 0.0980 Uiso
H3IC H 0.1970 0.1664 0.5886 0.0980 Uiso
H3JE H 0.1664 0.1970 0.5886 0.0980 Uiso
H3OC H 0.0886 0.1664 0.3030 0.0980 Uiso
H3EG H 0.0886 0.1970 0.3336 0.0980 Uiso
H3TA H 0.1970 0.0886 0.3336 0.0980 Uiso
H3BE H 0.1664 0.0886 0.3030 0.0980 Uiso
H3CG H 0.1970 0.1664 0.4114 0.0980 Uiso
H3QA H 0.1664 0.1970 0.4114 0.0980 Uiso
H4BD H 0.3134 0.3988 0.7001 0.0980 Uiso
H4CB H 0.3988 0.3134 0.7001 0.0980 Uiso
H4WE H 0.3988 0.2999 0.6866 0.0980 Uiso
H4YC H 0.2999 0.3134 0.6012 0.0980 Uiso
H4AB H 0.3134 0.2999 0.6012 0.0980 Uiso
H4NE H 0.2999 0.3988 0.3134 0.0980 Uiso
H4K H 0.3134 0.3988 0.2999 0.0980 Uiso
H4TE H 0.3988 0.3134 0.2999 0.0980 Uiso
H4C H 0.3988 0.2999 0.3134 0.0980 Uiso
H4H H 0.2999 0.3134 0.3988 0.0980 Uiso
H4QE H 0.3134 0.2999 0.3988 0.0980 Uiso
H4EE H 0.1012 0.2001 0.6866 0.0980 Uiso
H4LC H 0.1012 0.1866 0.7001 0.0980 Uiso
H4ME H 0.1866 0.1012 0.7001 0.0980 Uiso
H4FC H 0.2001 0.1012 0.6866 0.0980 Uiso
H4IC H 0.1866 0.2001 0.6012 0.0980 Uiso
H4JE H 0.2001 0.1866 0.6012 0.0980 Uiso
H4OC H 0.1012 0.2001 0.3134 0.0980 Uiso
H4EG H 0.1012 0.1866 0.2999 0.0980 Uiso
H4TA H 0.1866 0.1012 0.2999 0.0980 Uiso
H4BE H 0.2001 0.1012 0.3134 0.0980 Uiso
H4CG H 0.1866 0.2001 0.3988 0.0980 Uiso
H4QA H 0.2001 0.1866 0.3988 0.0980 Uiso
H5BD H 0.3361 0.4216 0.6809 0.0980 Uiso
H5WE H 0.4216 0.3191 0.6639 0.0980 Uiso
H5CB H 0.4216 0.3361 0.6809 0.0980 Uiso
H5AB H 0.3361 0.3191 0.5784 0.0980 Uiso
H5YC H 0.3191 0.3361 0.5784 0.0980 Uiso
H5NE H 0.3191 0.4216 0.3361 0.0980 Uiso
H5K H 0.3361 0.4216 0.3191 0.0980 Uiso
H5C H 0.4216 0.3191 0.3361 0.0980 Uiso
H5TE H 0.4216 0.3361 0.3191 0.0980 Uiso
H5QE H 0.3361 0.3191 0.4216 0.0980 Uiso
H5H H 0.3191 0.3361 0.4216 0.0980 Uiso
H5EE H 0.0784 0.1809 0.6639 0.0980 Uiso
H5LC H 0.0784 0.1639 0.6809 0.0980 Uiso
H5FC H 0.1809 0.0784 0.6639 0.0980 Uiso
H5ME H 0.1639 0.0784 0.6809 0.0980 Uiso
H5JE H 0.1809 0.1639 0.5784 0.0980 Uiso
H5IC H 0.1639 0.1809 0.5784 0.0980 Uiso
H5OC H 0.0784 0.1809 0.3361 0.0980 Uiso
H5EG H 0.0784 0.1639 0.3191 0.0980 Uiso
H5BE H 0.1809 0.0784 0.3361 0.0980 Uiso
H5TA H 0.1639 0.0784 0.3191 0.0980 Uiso
H5QA H 0.1809 0.1639 0.4216 0.0980 Uiso
H5CG H 0.1639 0.1809 0.4216 0.0980 Uiso
C11BD C 0.3931(3) 0.3931(3) 0.7231(2) 0.0610 Uiso
C11WE C 0.3931(3) 0.2769(2) 0.6069(3) 0.0610 Uiso
C11H C 0.2769(2) 0.3931(3) 0.3931(3) 0.0610 Uiso
C11K C 0.3931(3) 0.3931(3) 0.2769(2) 0.0610 Uiso
C11C C 0.3931(3) 0.2769(2) 0.3931(3) 0.0610 Uiso
C11EE C 0.1069(3) 0.2231(2) 0.6069(3) 0.0610 Uiso
C11ME C 0.1069(3) 0.1069(3) 0.7231(2) 0.0610 Uiso
C11JE C 0.2231(2) 0.1069(3) 0.6069(3) 0.0610 Uiso
C11CG C 0.1069(3) 0.2231(2) 0.3931(3) 0.0610 Uiso
C11TA C 0.1069(3) 0.1069(3) 0.2769(2) 0.0610 Uiso
C11QA C 0.2231(2) 0.1069(3) 0.3931(3) 0.0610 Uiso
C12BD C 0.3830(3) 0.3830(3) 0.6981(3) 0.0580 Uiso
C12WE C 0.3830(3) 0.3019(3) 0.6170(3) 0.0580 Uiso
C12H C 0.3019(3) 0.3830(3) 0.3830(3) 0.0580 Uiso
C12K C 0.3830(3) 0.3830(3) 0.3019(3) 0.0580 Uiso
C12C C 0.3830(3) 0.3019(3) 0.3830(3) 0.0580 Uiso
C12EE C 0.1170(3) 0.1981(3) 0.6170(3) 0.0580 Uiso
C12ME C 0.1170(3) 0.1170(3) 0.6981(3) 0.0580 Uiso
C12JE C 0.1981(3) 0.1170(3) 0.6170(3) 0.0580 Uiso
C12CG C 0.1170(3) 0.1981(3) 0.3830(3) 0.0580 Uiso
C12TA C 0.1170(3) 0.1170(3) 0.3019(3) 0.0580 Uiso
C12QA C 0.1981(3) 0.1170(3) 0.3830(3) 0.0580 Uiso
C13BD C 0.3706(3) 0.3706(3) 0.6688(3) 0.0590 Uiso
C13WE C 0.3706(3) 0.3312(3) 0.6294(3) 0.0590 Uiso
C13H C 0.3312(3) 0.3706(3) 0.3706(3) 0.0590 Uiso
C13K C 0.3706(3) 0.3706(3) 0.3312(3) 0.0590 Uiso
C13C C 0.3706(3) 0.3312(3) 0.3706(3) 0.0590 Uiso
C13EE C 0.1294(3) 0.1688(3) 0.6294(3) 0.0590 Uiso
C13ME C 0.1294(3) 0.1294(3) 0.6688(3) 0.0590 Uiso
C13JE C 0.1688(3) 0.1294(3) 0.6294(3) 0.0590 Uiso
C13CG C 0.1294(3) 0.1688(3) 0.3706(3) 0.0590 Uiso
C13TA C 0.1294(3) 0.1294(3) 0.3312(3) 0.0590 Uiso
C13QA C 0.1688(3) 0.1294(3) 0.3706(3) 0.0590 Uiso
C14YC C 0.3444(3) 0.3444(3) 0.6147(3) 0.0560 Uiso
C14WE C 0.3853(3) 0.3444(3) 0.6556(3) 0.0560 Uiso
C14K C 0.3444(3) 0.3853(3) 0.3444(3) 0.0560 Uiso
C14H C 0.3444(3) 0.3444(3) 0.3853(3) 0.0560 Uiso
C14C C 0.3853(3) 0.3444(3) 0.3444(3) 0.0560 Uiso
C14EE C 0.1147(3) 0.1556(3) 0.6556(3) 0.0560 Uiso
C14JE C 0.1556(3) 0.1556(3) 0.6147(3) 0.0560 Uiso
C14ME C 0.1556(3) 0.1147(3) 0.6556(3) 0.0560 Uiso
C14EG C 0.1147(3) 0.1556(3) 0.3444(3) 0.0560 Uiso
C14QA C 0.1556(3) 0.1556(3) 0.3853(3) 0.0560 Uiso
C14TA C 0.1556(3) 0.1147(3) 0.3444(3) 0.0560 Uiso
C15WE C 0.4143(3) 0.3305(3) 0.6695(3) 0.0670 Uiso
C15YC C 0.3305(3) 0.3305(3) 0.5857(3) 0.0670 Uiso
C15K C 0.3305(3) 0.4143(3) 0.3305(3) 0.0670 Uiso
C15C C 0.4143(3) 0.3305(3) 0.3305(3) 0.0670 Uiso
C15H C 0.3305(3) 0.3305(3) 0.4143(3) 0.0670 Uiso
C15EE C 0.0857(3) 0.1695(3) 0.6695(3) 0.0670 Uiso
C15ME C 0.1695(3) 0.0857(3) 0.6695(3) 0.0670 Uiso
C15JE C 0.1695(3) 0.1695(3) 0.5857(3) 0.0670 Uiso
C15EG C 0.0857(3) 0.1695(3) 0.3305(3) 0.0670 Uiso
C15TA C 0.1695(3) 0.0857(3) 0.3305(3) 0.0670 Uiso
C15QA C 0.1695(3) 0.1695(3) 0.4143(3) 0.0670 Uiso
H6CB H 0.4209 0.3430 0.6875 0.1000 Uiso
H6YC H 0.3125 0.3430 0.5791 0.1000 Uiso
H6BD H 0.3430 0.4209 0.6875 0.1000 Uiso
H6AB H 0.3430 0.3125 0.5791 0.1000 Uiso
H6WE H 0.4209 0.3125 0.6570 0.1000 Uiso
H6NE H 0.3125 0.4209 0.3430 0.1000 Uiso
H6TE H 0.4209 0.3430 0.3125 0.1000 Uiso
H6H H 0.3125 0.3430 0.4209 0.1000 Uiso
H6K H 0.3430 0.4209 0.3125 0.1000 Uiso
H6QE H 0.3430 0.3125 0.4209 0.1000 Uiso
H6C H 0.4209 0.3125 0.3430 0.1000 Uiso
H6EE H 0.0791 0.1875 0.6570 0.1000 Uiso
H6ME H 0.1570 0.0791 0.6875 0.1000 Uiso
H6IC H 0.1570 0.1875 0.5791 0.1000 Uiso
H6LC H 0.0791 0.1570 0.6875 0.1000 Uiso
H6JE H 0.1875 0.1570 0.5791 0.1000 Uiso
H6FC H 0.1875 0.0791 0.6570 0.1000 Uiso
H6OC H 0.0791 0.1875 0.3430 0.1000 Uiso
H6TA H 0.1570 0.0791 0.3125 0.1000 Uiso
H6CG H 0.1570 0.1875 0.4209 0.1000 Uiso
H6EG H 0.0791 0.1570 0.3125 0.1000 Uiso
H6QA H 0.1875 0.1570 0.4209 0.1000 Uiso
H6BE H 0.1875 0.0791 0.3430 0.1000 Uiso
H7YC H 0.3302 0.3462 0.5690 0.1000 Uiso
H7BD H 0.3462 0.4310 0.6698 0.1000 Uiso
H7WE H 0.4310 0.3302 0.6538 0.1000 Uiso
H7CB H 0.4310 0.3462 0.6698 0.1000 Uiso
H7AB H 0.3462 0.3302 0.5690 0.1000 Uiso
H7NE H 0.3302 0.4310 0.3462 0.1000 Uiso
H7H H 0.3302 0.3462 0.4310 0.1000 Uiso
H7K H 0.3462 0.4310 0.3302 0.1000 Uiso
H7C H 0.4310 0.3302 0.3462 0.1000 Uiso
H7TE H 0.4310 0.3462 0.3302 0.1000 Uiso
H7QE H 0.3462 0.3302 0.4310 0.1000 Uiso
H7EE H 0.0690 0.1698 0.6538 0.1000 Uiso
H7IC H 0.1538 0.1698 0.5690 0.1000 Uiso
H7LC H 0.0690 0.1538 0.6698 0.1000 Uiso
H7FC H 0.1698 0.0690 0.6538 0.1000 Uiso
H7ME H 0.1538 0.0690 0.6698 0.1000 Uiso
H7JE H 0.1698 0.1538 0.5690 0.1000 Uiso
H7OC H 0.0690 0.1698 0.3462 0.1000 Uiso
H7CG H 0.1538 0.1698 0.4310 0.1000 Uiso
H7EG H 0.0690 0.1538 0.3302 0.1000 Uiso
H7BE H 0.1698 0.0690 0.3462 0.1000 Uiso
H7TA H 0.1538 0.0690 0.3302 0.1000 Uiso
H7QA H 0.1698 0.1538 0.4310 0.1000 Uiso
H8CB H 0.4099 0.3090 0.6764 0.1000 Uiso
H8YC H 0.3236 0.3090 0.5901 0.1000 Uiso
H8AB H 0.3090 0.3236 0.5901 0.1000 Uiso
H8WE H 0.4099 0.3236 0.6910 0.1000 Uiso
H8BD H 0.3090 0.4099 0.6764 0.1000 Uiso
H8NE H 0.3236 0.4099 0.3090 0.1000 Uiso
H8TE H 0.4099 0.3090 0.3236 0.1000 Uiso
H8H H 0.3236 0.3090 0.4099 0.1000 Uiso
H8QE H 0.3090 0.3236 0.4099 0.1000 Uiso
H8C H 0.4099 0.3236 0.3090 0.1000 Uiso
H8K H 0.3090 0.4099 0.3236 0.1000 Uiso
H8EE H 0.0901 0.1764 0.6910 0.1000 Uiso
H8ME H 0.1910 0.0901 0.6764 0.1000 Uiso
H8IC H 0.1910 0.1764 0.5901 0.1000 Uiso
H8JE H 0.1764 0.1910 0.5901 0.1000 Uiso
H8FC H 0.1764 0.0901 0.6910 0.1000 Uiso
H8LC H 0.0901 0.1910 0.6764 0.1000 Uiso
H8OC H 0.0901 0.1764 0.3090 0.1000 Uiso
H8TA H 0.1910 0.0901 0.3236 0.1000 Uiso
H8CG H 0.1910 0.1764 0.4099 0.1000 Uiso
H8QA H 0.1764 0.1910 0.4099 0.1000 Uiso
H8BE H 0.1764 0.0901 0.3090 0.1000 Uiso
H8EG H 0.0901 0.1910 0.3236 0.1000 Uiso
loop_
_atom_site_aniso_label
_atom_site_aniso_U_11
_atom_site_aniso_U_22
_atom_site_aniso_U_33
_atom_site_aniso_U_23
_atom_site_aniso_U_13
_atom_site_aniso_U_12
Cu1 0.0435(4) 0.0435(4) 0.0355(5) 0.000 0.000 0.0158(4)
Cu2 0.0433(4) 0.0433(4) 0.0362(5) 0.000 0.000 0.0145(4)
O1 0.074(2) 0.0579(19) 0.0535(18) -0.0187(15) -0.0141(15) 0.0246(16)
O2 0.063(2) 0.0568(19) 0.0574(18) -0.0169(15) -0.0131(15) 0.0161(15)
O3 0.099(5) 0.099(5) 0.114(7) 0.000 0.000 0.063(5)
O4 0.069(3) 0.069(3) 0.089(5) 0.000 0.000 0.051(4)
C1 0.056(2) 0.059(3) 0.045(2) -0.0084(19) -0.0087(18) 0.016(2)
C2 0.068(3) 0.059(3) 0.055(3) -0.019(2) -0.008(2) 0.018(2)
C3 0.063(4) 0.055(2) 0.055(2) -0.017(3) -0.010(2) 0.010(2)
C4 0.078(3) 0.070(3) 0.065(3) -0.024(3) -0.019(3) 0.027(3)
C5 0.075(5) 0.071(3) 0.071(3) -0.025(4) -0.026(3) 0.026(3)
Cu1F 0.0435 0.0355 0.0435 0 -0.0158 0
Cu1I 0.0355 0.0435 0.0435 -0.0158 0 0
Cu1EA 0.0435 0.0355 0.0435 0 -0.0158 0
Cu1V 0.0355 0.0435 0.0435 -0.0158 0 0
Cu1C 0.0435 0.0435 0.0355 0 0 0.0158
Cu1H 0.0435 0.0355 0.0435 0 0.0158 0
Cu1K 0.0355 0.0435 0.0435 0.0158 0 0
Cu1B 0.0435 0.0355 0.0435 0 0.0158 0
Cu1A 0.0355 0.0435 0.0435 0.0158 0 0
Cu1IA 0.0355 0.0435 0.0435 0.0158 0 0
Cu1T 0.0435 0.0355 0.0435 0 0.0158 0
Cu1Y 0.0355 0.0435 0.0435 0.0158 0 0
Cu1N 0.0435 0.0355 0.0435 0 0.0158 0
Cu1GA 0.0355 0.0435 0.0435 -0.0158 0 0
Cu1R 0.0435 0.0355 0.0435 0 -0.0158 0
Cu1TA 0.0355 0.0435 0.0435 -0.0158 0 0
Cu1QA 0.0435 0.0355 0.0435 0 -0.0158 0
Cu2F 0.0433 0.0362 0.0433 0 -0.0145 0
Cu2I 0.0362 0.0433 0.0433 -0.0145 0 0
Cu2EA 0.0433 0.0362 0.0433 0 -0.0145 0
Cu2V 0.0362 0.0433 0.0433 -0.0145 0 0
Cu2C 0.0433 0.0433 0.0362 0 0 0.0145
Cu2H 0.0433 0.0362 0.0433 0 0.0145 0
Cu2K 0.0362 0.0433 0.0433 0.0145 0 0
Cu2B 0.0433 0.0362 0.0433 0 0.0145 0
Cu2A 0.0362 0.0433 0.0433 0.0145 0 0
Cu2IA 0.0362 0.0433 0.0433 0.0145 0 0
Cu2T 0.0433 0.0362 0.0433 0 0.0145 0
Cu2Y 0.0362 0.0433 0.0433 0.0145 0 0
Cu2N 0.0433 0.0362 0.0433 0 0.0145 0
Cu2GA 0.0362 0.0433 0.0433 -0.0145 0 0
Cu2R 0.0433 0.0362 0.0433 0 -0.0145 0
Cu2TA 0.0362 0.0433 0.0433 -0.0145 0 0
Cu2QA 0.0433 0.0362 0.0433 0 -0.0145 0
O1YC 0.074 0.0535 0.0579 -0.0187 -0.0246 0.0141
O1BD 0.0535 0.0579 0.074 -0.0246 -0.0141 0.0187
O1CB 0.0579 0.0535 0.074 -0.0141 -0.0246 0.0187
O1AB 0.0535 0.074 0.0579 -0.0246 -0.0187 0.0141
O1WE 0.0579 0.074 0.0535 -0.0141 -0.0187 0.0246
O1NE 0.074 0.0579 0.0535 0.0187 0.0141 0.0246
O1H 0.074 0.0535 0.0579 0.0187 0.0246 0.0141
O1K 0.0535 0.0579 0.074 0.0246 0.0141 0.0187
O1TE 0.0579 0.0535 0.074 0.0141 0.0246 0.0187
O1QE 0.0535 0.074 0.0579 0.0246 0.0187 0.0141
O1C 0.0579 0.074 0.0535 0.0141 0.0187 0.0246
O1EE 0.0579 0.074 0.0535 0.0141 0.0187 0.0246
O1IC 0.0535 0.074 0.0579 0.0246 0.0187 0.0141
O1LC 0.0579 0.0535 0.074 0.0141 0.0246 0.0187
O1ME 0.0535 0.0579 0.074 0.0246 0.0141 0.0187
O1JE 0.074 0.0535 0.0579 0.0187 0.0246 0.0141
O1FC 0.074 0.0579 0.0535 0.0187 0.0141 0.0246
O1OC 0.0579 0.074 0.0535 -0.0141 -0.0187 0.0246
O1CG 0.0535 0.074 0.0579 -0.0246 -0.0187 0.0141
O1EG 0.0579 0.0535 0.074 -0.0141 -0.0246 0.0187
O1TA 0.0535 0.0579 0.074 -0.0246 -0.0141 0.0187
O1QA 0.074 0.0535 0.0579 -0.0187 -0.0246 0.0141
O1BE 0.074 0.0579 0.0535 -0.0187 -0.0141 0.0246
O1F 0.074 0.0535 0.0579 0.0187 -0.0246 -0.0141
O1BC 0.0579 0.0535 0.074 0.0141 -0.0246 -0.0187
O1SF 0.0579 0.0535 0.074 -0.0141 -0.0246 0.0187
O1I 0.0535 0.0579 0.074 -0.0246 0.0141 -0.0187
O1LB 0.0535 0.074 0.0579 -0.0246 0.0187 -0.0141
O1EF 0.0535 0.074 0.0579 -0.0246 -0.0187 0.0141
O1VE 0.0579 0.0535 0.074 0.0141 -0.0246 -0.0187
O1VD 0.074 0.0535 0.0579 0.0187 -0.0246 -0.0141
O1EA 0.074 0.0535 0.0579 -0.0187 -0.0246 0.0141
O1RE 0.0535 0.074 0.0579 -0.0246 0.0187 -0.0141
O1MD 0.0535 0.0579 0.074 -0.0246 0.0141 -0.0187
O1V 0.0535 0.0579 0.074 -0.0246 -0.0141 0.0187
O2YC 0.063 0.0574 0.0568 -0.0169 -0.0161 0.0131
O2BD 0.0574 0.0568 0.063 -0.0161 -0.0131 0.0169
O2CB 0.0568 0.0574 0.063 -0.0131 -0.0161 0.0169
O2AB 0.0574 0.063 0.0568 -0.0161 -0.0169 0.0131
O2WE 0.0568 0.063 0.0574 -0.0131 -0.0169 0.0161
O2NE 0.063 0.0568 0.0574 0.0169 0.0131 0.0161
O2H 0.063 0.0574 0.0568 0.0169 0.0161 0.0131
O2K 0.0574 0.0568 0.063 0.0161 0.0131 0.0169
O2TE 0.0568 0.0574 0.063 0.0131 0.0161 0.0169
O2QE 0.0574 0.063 0.0568 0.0161 0.0169 0.0131
O2C 0.0568 0.063 0.0574 0.0131 0.0169 0.0161
O2EE 0.0568 0.063 0.0574 0.0131 0.0169 0.0161
O2IC 0.0574 0.063 0.0568 0.0161 0.0169 0.0131
O2LC 0.0568 0.0574 0.063 0.0131 0.0161 0.0169
O2ME 0.0574 0.0568 0.063 0.0161 0.0131 0.0169
O2JE 0.063 0.0574 0.0568 0.0169 0.0161 0.0131
O2FC 0.063 0.0568 0.0574 0.0169 0.0131 0.0161
O2OC 0.0568 0.063 0.0574 -0.0131 -0.0169 0.0161
O2CG 0.0574 0.063 0.0568 -0.0161 -0.0169 0.0131
O2EG 0.0568 0.0574 0.063 -0.0131 -0.0161 0.0169
O2TA 0.0574 0.0568 0.063 -0.0161 -0.0131 0.0169
O2QA 0.063 0.0574 0.0568 -0.0169 -0.0161 0.0131
O2BE 0.063 0.0568 0.0574 -0.0169 -0.0131 0.0161
O2F 0.063 0.0574 0.0568 0.0169 -0.0161 -0.0131
O2BC 0.0568 0.0574 0.063 0.0131 -0.0161 -0.0169
O2SF 0.0568 0.0574 0.063 -0.0131 -0.0161 0.0169
O2I 0.0574 0.0568 0.063 -0.0161 0.0131 -0.0169
O2LB 0.0574 0.063 0.0568 -0.0161 0.0169 -0.0131
O2EF 0.0574 0.063 0.0568 -0.0161 -0.0169 0.0131
O2VE 0.0568 0.0574 0.063 0.0131 -0.0161 -0.0169
O2VD 0.063 0.0574 0.0568 0.0169 -0.0161 -0.0131
O2EA 0.063 0.0574 0.0568 -0.0169 -0.0161 0.0131
O2RE 0.0574 0.063 0.0568 -0.0161 0.0169 -0.0131
O2MD 0.0574 0.0568 0.063 -0.0161 0.0131 -0.0169
O2V 0.0574 0.0568 0.063 -0.0161 -0.0131 0.0169
O3F 0.099 0.114 0.099 0 -0.063 0
O3I 0.114 0.099 0.099 -0.063 0 0
O3EA 0.099 0.114 0.099 0 -0.063 0
O3V 0.114 0.099 0.099 -0.063 0 0
O3C 0.099 0.099 0.114 0 0 0.063
O4F 0.069 0.089 0.069 0 -0.051 0
O4I 0.089 0.069 0.069 -0.051 0 0
O4EA 0.069 0.089 0.069 0 -0.051 0
O4V 0.089 0.069 0.069 -0.051 0 0
O4C 0.069 0.069 0.089 0 0 0.051
C1YC 0.056 0.045 0.059 -0.0084 -0.016 0.0087
C1BD 0.045 0.059 0.056 -0.016 -0.0087 0.0084
C1CB 0.059 0.045 0.056 -0.0087 -0.016 0.0084
C1AB 0.045 0.056 0.059 -0.016 -0.0084 0.0087
C1WE 0.059 0.056 0.045 -0.0087 -0.0084 0.016
C1NE 0.056 0.059 0.045 0.0084 0.0087 0.016
C1H 0.056 0.045 0.059 0.0084 0.016 0.0087
C1K 0.045 0.059 0.056 0.016 0.0087 0.0084
C1TE 0.059 0.045 0.056 0.0087 0.016 0.0084
C1QE 0.045 0.056 0.059 0.016 0.0084 0.0087
C1C 0.059 0.056 0.045 0.0087 0.0084 0.016
C1EE 0.059 0.056 0.045 0.0087 0.0084 0.016
C1IC 0.045 0.056 0.059 0.016 0.0084 0.0087
C1LC 0.059 0.045 0.056 0.0087 0.016 0.0084
C1ME 0.045 0.059 0.056 0.016 0.0087 0.0084
C1JE 0.056 0.045 0.059 0.0084 0.016 0.0087
C1FC 0.056 0.059 0.045 0.0084 0.0087 0.016
C1OC 0.059 0.056 0.045 -0.0087 -0.0084 0.016
C1CG 0.045 0.056 0.059 -0.016 -0.0084 0.0087
C1EG 0.059 0.045 0.056 -0.0087 -0.016 0.0084
C1TA 0.045 0.059 0.056 -0.016 -0.0087 0.0084
C1QA 0.056 0.045 0.059 -0.0084 -0.016 0.0087
C1BE 0.056 0.059 0.045 -0.0084 -0.0087 0.016
C2YC 0.068 0.055 0.059 -0.019 -0.018 0.008
C2BD 0.055 0.059 0.068 -0.018 -0.008 0.019
C2CB 0.059 0.055 0.068 -0.008 -0.018 0.019
C2AB 0.055 0.068 0.059 -0.018 -0.019 0.008
C2WE 0.059 0.068 0.055 -0.008 -0.019 0.018
C2NE 0.068 0.059 0.055 0.019 0.008 0.018
C2H 0.068 0.055 0.059 0.019 0.018 0.008
C2K 0.055 0.059 0.068 0.018 0.008 0.019
C2TE 0.059 0.055 0.068 0.008 0.018 0.019
C2QE 0.055 0.068 0.059 0.018 0.019 0.008
C2C 0.059 0.068 0.055 0.008 0.019 0.018
C2EE 0.059 0.068 0.055 0.008 0.019 0.018
C2IC 0.055 0.068 0.059 0.018 0.019 0.008
C2LC 0.059 0.055 0.068 0.008 0.018 0.019
C2ME 0.055 0.059 0.068 0.018 0.008 0.019
C2JE 0.068 0.055 0.059 0.019 0.018 0.008
C2FC 0.068 0.059 0.055 0.019 0.008 0.018
C2OC 0.059 0.068 0.055 -0.008 -0.019 0.018
C2CG 0.055 0.068 0.059 -0.018 -0.019 0.008
C2EG 0.059 0.055 0.068 -0.008 -0.018 0.019
C2TA 0.055 0.059 0.068 -0.018 -0.008 0.019
C2QA 0.068 0.055 0.059 -0.019 -0.018 0.008
C2BE 0.068 0.059 0.055 -0.019 -0.008 0.018
C3BD 0.055 0.055 0.063 -0.01 -0.01 0.017
C3WE 0.055 0.063 0.055 -0.01 -0.017 0.01
C3H 0.063 0.055 0.055 0.017 0.01 0.01
C3K 0.055 0.055 0.063 0.01 0.01 0.017
C3C 0.055 0.063 0.055 0.01 0.017 0.01
C3EE 0.055 0.063 0.055 0.01 0.017 0.01
C3ME 0.055 0.055 0.063 0.01 0.01 0.017
C3JE 0.063 0.055 0.055 0.017 0.01 0.01
C3CG 0.055 0.063 0.055 -0.01 -0.017 0.01
C3TA 0.055 0.055 0.063 -0.01 -0.01 0.017
C3QA 0.063 0.055 0.055 -0.017 -0.01 0.01
C4YC 0.078 0.065 0.07 -0.024 -0.027 0.019
C4BD 0.065 0.07 0.078 -0.027 -0.019 0.024
C4CB 0.07 0.065 0.078 -0.019 -0.027 0.024
C4AB 0.065 0.078 0.07 -0.027 -0.024 0.019
C4WE 0.07 0.078 0.065 -0.019 -0.024 0.027
C4NE 0.078 0.07 0.065 0.024 0.019 0.027
C4H 0.078 0.065 0.07 0.024 0.027 0.019
C4K 0.065 0.07 0.078 0.027 0.019 0.024
C4TE 0.07 0.065 0.078 0.019 0.027 0.024
C4QE 0.065 0.078 0.07 0.027 0.024 0.019
C4C 0.07 0.078 0.065 0.019 0.024 0.027
C4EE 0.07 0.078 0.065 0.019 0.024 0.027
C4IC 0.065 0.078 0.07 0.027 0.024 0.019
C4LC 0.07 0.065 0.078 0.019 0.027 0.024
C4ME 0.065 0.07 0.078 0.027 0.019 0.024
C4JE 0.078 0.065 0.07 0.024 0.027 0.019
C4FC 0.078 0.07 0.065 0.024 0.019 0.027
C4OC 0.07 0.078 0.065 -0.019 -0.024 0.027
C4CG 0.065 0.078 0.07 -0.027 -0.024 0.019
C4EG 0.07 0.065 0.078 -0.019 -0.027 0.024
C4TA 0.065 0.07 0.078 -0.027 -0.019 0.024
C4QA 0.078 0.065 0.07 -0.024 -0.027 0.019
C4BE 0.078 0.07 0.065 -0.024 -0.019 0.027
C5BD 0.071 0.071 0.075 -0.026 -0.026 0.025
C5WE 0.071 0.075 0.071 -0.026 -0.025 0.026
C5H 0.075 0.071 0.071 0.025 0.026 0.026
C5K 0.071 0.071 0.075 0.026 0.026 0.025
C5C 0.071 0.075 0.071 0.026 0.025 0.026
C5EE 0.071 0.075 0.071 0.026 0.025 0.026
C5ME 0.071 0.071 0.075 0.026 0.026 0.025
C5JE 0.075 0.071 0.071 0.025 0.026 0.026
C5CG 0.071 0.075 0.071 -0.026 -0.025 0.026
C5TA 0.071 0.071 0.075 -0.026 -0.026 0.025
C5QA 0.075 0.071 0.071 -0.025 -0.026 0.026
loop_
_geom_bond_atom_site_label_1
_geom_bond_atom_site_label_2
_geom_bond_site_symmetry_1
_geom_bond_site_symmetry_2
Cu1 O1 1_555 1_555
Cu2 O2 1_555 1_555
O1 C1 1_555 1_555
O2 C1 1_555 1_555
O3 Cu1 1_555 1_555
O4 Cu2 1_555 1_555
C1 C2 1_555 1_555
C2 C3 1_555 1_555
C3 H1 1_555 1_555
C4 C2 1_555 1_555
H2 C4 1_555 1_555
C5 C4 1_555 1_555
C6 C5 1_555 1_555
C7 C6 1_555 1_555
C8 C7 1_555 1_555
C9 C8 1_555 1_555
C10 C9 1_555 1_555
H3 C10 1_555 1_555
H4 C10 1_555 1_555
H5 C10 1_555 1_555
C11 C5 1_555 1_555
C12 C6 1_555 1_555
C13 C7 1_555 1_555
C14 C8 1_555 1_555
C15 C9 1_555 1_555
H6 C10 1_555 1_555
H7 H5 1_555 1_555
H8 C10 1_555 1_555
Cu1F O1YC 1_555 1_555
Cu1I O1BD 1_555 1_555
Cu1EA O1CB 1_555 1_555
Cu1V O1AB 1_555 1_555
Cu1C O1WE 1_555 1_555
Cu1H O1H 1_555 1_555
Cu1K O1K 1_555 1_555
Cu1B O1TE 1_555 1_555
Cu1A O1QE 1_555 1_555
Cu1IA O1IC 1_555 1_555
Cu1T O1LC 1_555 1_555
Cu1Y O1ME 1_555 1_555
Cu1N O1JE 1_555 1_555
Cu1GA O1CG 1_555 1_555
Cu1R O1EG 1_555 1_555
Cu1TA O1TA 1_555 1_555
Cu1QA O1QA 1_555 1_555
Cu2F O2YC 1_555 1_555
Cu2I O2BD 1_555 1_555
Cu2EA O2CB 1_555 1_555
Cu2V O2AB 1_555 1_555
Cu2C O2WE 1_555 1_555
Cu2H O2H 1_555 1_555
Cu2K O2K 1_555 1_555
Cu2B O2TE 1_555 1_555
Cu2A O2QE 1_555 1_555
Cu2IA O2IC 1_555 1_555
Cu2T O2LC 1_555 1_555
Cu2Y O2ME 1_555 1_555
Cu2N O2JE 1_555 1_555
Cu2GA O2CG 1_555 1_555
Cu2R O2EG 1_555 1_555
Cu2TA O2TA 1_555 1_555
Cu2QA O2QA 1_555 1_555
O1YC C1YC 1_555 1_555
O1BD C1BD 1_555 1_555
O1CB C1CB 1_555 1_555
O1AB C1AB 1_555 1_555
O1WE C1WE 1_555 1_555
O1NE Cu1 1_555 1_555
O1H C1H 1_555 1_555
O1K C1K 1_555 1_555
O1TE C1TE 1_555 1_555
O1QE C1QE 1_555 1_555
O1C Cu1C 1_555 1_555
O1EE Cu1 1_555 1_555
O1IC C1IC 1_555 1_555
O1LC C1LC 1_555 1_555
O1ME C1ME 1_555 1_555
O1JE C1JE 1_555 1_555
O1FC Cu1C 1_555 1_555
O1OC Cu1 1_555 1_555
O1CG C1CG 1_555 1_555
O1EG C1EG 1_555 1_555
O1TA C1TA 1_555 1_555
O1QA C1QA 1_555 1_555
O1BE Cu1C 1_555 1_555
O1F Cu1F 1_555 1_555
O1BC Cu1F 1_555 1_555
O1SF Cu1F 1_555 1_555
O1I Cu1I 1_555 1_555
O1LB Cu1I 1_555 1_555
O1EF Cu1I 1_555 1_555
O1VE Cu1EA 1_555 1_555
O1VD Cu1EA 1_555 1_555
O1EA Cu1EA 1_555 1_555
O1RE Cu1V 1_555 1_555
O1MD Cu1V 1_555 1_555
O1V Cu1V 1_555 1_555
O2YC C1YC 1_555 1_555
O2BD C1BD 1_555 1_555
O2CB C1CB 1_555 1_555
O2AB C1AB 1_555 1_555
O2WE C1WE 1_555 1_555
O2NE Cu2 1_555 1_555
O2H C1H 1_555 1_555
O2K C1K 1_555 1_555
O2TE C1TE 1_555 1_555
O2QE C1QE 1_555 1_555
O2C Cu2C 1_555 1_555
O2EE Cu2 1_555 1_555
O2IC C1IC 1_555 1_555
O2LC C1LC 1_555 1_555
O2ME C1ME 1_555 1_555
O2JE C1JE 1_555 1_555
O2FC Cu2C 1_555 1_555
O2OC Cu2 1_555 1_555
O2CG C1CG 1_555 1_555
O2EG C1EG 1_555 1_555
O2TA C1TA 1_555 1_555
O2QA C1QA 1_555 1_555
O2BE Cu2C 1_555 1_555
O2F Cu2F 1_555 1_555
O2BC Cu2F 1_555 1_555
O2SF Cu2F 1_555 1_555
O2I Cu2I 1_555 1_555
O2LB Cu2I 1_555 1_555
O2EF Cu2I 1_555 1_555
O2VE Cu2EA 1_555 1_555
O2VD Cu2EA 1_555 1_555
O2EA Cu2EA 1_555 1_555
O2RE Cu2V 1_555 1_555
O2MD Cu2V 1_555 1_555
O2V Cu2V 1_555 1_555
O3F Cu1F 1_555 1_555
O3I Cu1I 1_555 1_555
O3EA Cu1EA 1_555 1_555
O3V Cu1V 1_555 1_555
O3C Cu1C 1_555 1_555
O4F Cu2F 1_555 1_555
O4I Cu2I 1_555 1_555
O4EA Cu2EA 1_555 1_555
O4V Cu2V 1_555 1_555
O4C Cu2C 1_555 1_555
C1YC C2YC 1_555 1_555
C1BD C2BD 1_555 1_555
C1CB C2CB 1_555 1_555
C1AB C2AB 1_555 1_555
C1WE C2WE 1_555 1_555
C1NE O1NE 1_555 1_555
C1H C2H 1_555 1_555
C1K C2K 1_555 1_555
C1TE C2TE 1_555 1_555
C1QE C2QE 1_555 1_555
C1C O1C 1_555 1_555
C1EE O1EE 1_555 1_555
C1IC C2IC 1_555 1_555
C1LC C2LC 1_555 1_555
C1ME C2ME 1_555 1_555
C1JE C2JE 1_555 1_555
C1FC O1FC 1_555 1_555
C1OC O1OC 1_555 1_555
C1CG C2CG 1_555 1_555
C1EG C2EG 1_555 1_555
C1TA C2TA 1_555 1_555
C1QA C2QA 1_555 1_555
C1BE O1BE 1_555 1_555
C2YC C3 1_555 1_555
C2BD C3BD 1_555 1_555
C2CB C3BD 1_555 1_555
C2AB C3WE 1_555 1_555
C2WE C3WE 1_555 1_555
C2NE C1NE 1_555 1_555
C2H C3H 1_555 1_555
C2K C3K 1_555 1_555
C2TE C3K 1_555 1_555
C2QE C3C 1_555 1_555
C2C C1C 1_555 1_555
C2EE C1EE 1_555 1_555
C2IC C3EE 1_555 1_555
C2LC C3ME 1_555 1_555
C2ME C3ME 1_555 1_555
C2JE C3JE 1_555 1_555
C2FC C1FC 1_555 1_555
C2OC C1OC 1_555 1_555
C2CG C3CG 1_555 1_555
C2EG C3TA 1_555 1_555
C2TA C3TA 1_555 1_555
C2QA C3QA 1_555 1_555
C2BE C1BE 1_555 1_555
C3BD H1BD 1_555 1_555
C3WE H1WE 1_555 1_555
C3H C2NE 1_555 1_555
C3K H1K 1_555 1_555
C3C C2C 1_555 1_555
C3EE C2EE 1_555 1_555
C3ME H1ME 1_555 1_555
C3JE C2FC 1_555 1_555
C3CG C2OC 1_555 1_555
C3TA H1TA 1_555 1_555
C3QA C2BE 1_555 1_555
H1H C3H 1_555 1_555
H1C C3C 1_555 1_555
H1EE C3EE 1_555 1_555
H1JE C3JE 1_555 1_555
H1CG C3CG 1_555 1_555
H1QA C3QA 1_555 1_555
C4YC C5 1_555 1_555
C4BD C2BD 1_555 1_555
C4CB C2CB 1_555 1_555
C4AB C2AB 1_555 1_555
C4WE C2WE 1_555 1_555
C4NE C2NE 1_555 1_555
C4H C2H 1_555 1_555
C4K C2K 1_555 1_555
C4TE C2TE 1_555 1_555
C4QE C2QE 1_555 1_555
C4C C2C 1_555 1_555
C4EE C2EE 1_555 1_555
C4IC C2IC 1_555 1_555
C4LC C2LC 1_555 1_555
C4ME C2ME 1_555 1_555
C4JE C2JE 1_555 1_555
C4FC C2FC 1_555 1_555
C4OC C2OC 1_555 1_555
C4CG C2CG 1_555 1_555
C4EG C2EG 1_555 1_555
C4TA C2TA 1_555 1_555
C4QA C2QA 1_555 1_555
C4BE C2BE 1_555 1_555
H2YC C4YC 1_555 1_555
H2CB C4CB 1_555 1_555
H2WE C4WE 1_555 1_555
H2AB C4AB 1_555 1_555
H2BD C4BD 1_555 1_555
H2NE C4NE 1_555 1_555
H2H C4H 1_555 1_555
H2TE C4TE 1_555 1_555
H2C C4C 1_555 1_555
H2QE C4QE 1_555 1_555
H2K C4K 1_555 1_555
H2EE C4EE 1_555 1_555
H2IC C4IC 1_555 1_555
H2ME C4ME 1_555 1_555
H2FC C4FC 1_555 1_555
H2JE C4JE 1_555 1_555
H2LC C4LC 1_555 1_555
H2OC C4OC 1_555 1_555
H2CG C4CG 1_555 1_555
H2TA C4TA 1_555 1_555
H2BE C4BE 1_555 1_555
H2QA C4QA 1_555 1_555
H2EG C4EG 1_555 1_555
C5BD C4BD 1_555 1_555
C5WE C4AB 1_555 1_555
C5H C4NE 1_555 1_555
C5K C4K 1_555 1_555
C5C C4QE 1_555 1_555
C5EE C4EE 1_555 1_555
C5ME C4LC 1_555 1_555
C5JE C4JE 1_555 1_555
C5CG C4OC 1_555 1_555
C5TA C4EG 1_555 1_555
C5QA C4QA 1_555 1_555
C6BD C5BD 1_555 1_555
C6WE C5WE 1_555 1_555
C6H C5H 1_555 1_555
C6K C5K 1_555 1_555
C6C C5C 1_555 1_555
C6EE C5EE 1_555 1_555
C6ME C5ME 1_555 1_555
C6JE C5JE 1_555 1_555
C6CG C5CG 1_555 1_555
C6TA C5TA 1_555 1_555
C6QA C5QA 1_555 1_555
C7BD C6BD 1_555 1_555
C7WE C6WE 1_555 1_555
C7H C6H 1_555 1_555
C7K C6K 1_555 1_555
C7C C6C 1_555 1_555
C7EE C6EE 1_555 1_555
C7ME C6ME 1_555 1_555
C7JE C6JE 1_555 1_555
C7CG C6CG 1_555 1_555
C7TA C6TA 1_555 1_555
C7QA C6QA 1_555 1_555
C8BD C9 1_555 1_555
C8WE C7WE 1_555 1_555
C8H C7H 1_555 1_555
C8K C7K 1_555 1_555
C8C C7C 1_555 1_555
C8EE C7EE 1_555 1_555
C8ME C7ME 1_555 1_555
C8JE C7JE 1_555 1_555
C8CG C7CG 1_555 1_555
C8TA C7TA 1_555 1_555
C8QA C7QA 1_555 1_555
C9YC C8 1_555 1_555
C9WE C8BD 1_555 1_555
C9K C8H 1_555 1_555
C9H C8H 1_555 1_555
C9C C8K 1_555 1_555
C9EE C8EE 1_555 1_555
C9JE C8EE 1_555 1_555
C9ME C8ME 1_555 1_555
C9EG C8CG 1_555 1_555
C9QA C8CG 1_555 1_555
C9TA C8TA 1_555 1_555
C10WE C9WE 1_555 1_555
C10YC C9YC 1_555 1_555
C10K C9K 1_555 1_555
C10C C9C 1_555 1_555
C10H C9H 1_555 1_555
C10EE C9EE 1_555 1_555
C10ME C9ME 1_555 1_555
C10JE C9JE 1_555 1_555
C10EG C9EG 1_555 1_555
C10TA C9TA 1_555 1_555
C10QA C9QA 1_555 1_555
H3BD C10 1_555 1_555
H3CB C10WE 1_555 1_555
H3WE C10WE 1_555 1_555
H3YC C10YC 1_555 1_555
H3AB C10YC 1_555 1_555
H3NE C10K 1_555 1_555
H3K C10K 1_555 1_555
H3TE C10C 1_555 1_555
H3C C10C 1_555 1_555
H3H C10H 1_555 1_555
H3QE C10H 1_555 1_555
H3EE C10EE 1_555 1_555
H3LC C10EE 1_555 1_555
H3ME C10ME 1_555 1_555
H3FC C10ME 1_555 1_555
H3IC C10JE 1_555 1_555
H3JE C10JE 1_555 1_555
H3OC C10EG 1_555 1_555
H3EG C10EG 1_555 1_555
H3TA C10TA 1_555 1_555
H3BE C10TA 1_555 1_555
H3CG C10QA 1_555 1_555
H3QA C10QA 1_555 1_555
H4BD C10 1_555 1_555
H4CB C10WE 1_555 1_555
H4WE C10WE 1_555 1_555
H4YC C10YC 1_555 1_555
H4AB C10YC 1_555 1_555
H4NE C10K 1_555 1_555
H4K C10K 1_555 1_555
H4TE C10C 1_555 1_555
H4C C10C 1_555 1_555
H4H C10H 1_555 1_555
H4QE C10H 1_555 1_555
H4EE C10EE 1_555 1_555
H4LC C10EE 1_555 1_555
H4ME C10ME 1_555 1_555
H4FC C10ME 1_555 1_555
H4IC C10JE 1_555 1_555
H4JE C10JE 1_555 1_555
H4OC C10EG 1_555 1_555
H4EG C10EG 1_555 1_555
H4TA C10TA 1_555 1_555
H4BE C10TA 1_555 1_555
H4CG C10QA 1_555 1_555
H4QA C10QA 1_555 1_555
H5BD C10 1_555 1_555
H5WE C10WE 1_555 1_555
H5CB C10WE 1_555 1_555
H5AB C10YC 1_555 1_555
H5YC C10YC 1_555 1_555
H5NE C10K 1_555 1_555
H5K C10K 1_555 1_555
H5C C10C 1_555 1_555
H5TE C10C 1_555 1_555
H5QE C10H 1_555 1_555
H5H C10H 1_555 1_555
H5EE C10EE 1_555 1_555
H5LC C10EE 1_555 1_555
H5FC C10ME 1_555 1_555
H5ME C10ME 1_555 1_555
H5JE C10JE 1_555 1_555
H5IC C10JE 1_555 1_555
H5OC C10EG 1_555 1_555
H5EG C10EG 1_555 1_555
H5BE C10TA 1_555 1_555
H5TA C10TA 1_555 1_555
H5QA C10QA 1_555 1_555
H5CG C10QA 1_555 1_555
C11BD C5BD 1_555 1_555
C11WE C5WE 1_555 1_555
C11H C5H 1_555 1_555
C11K C5K 1_555 1_555
C11C C5C 1_555 1_555
C11EE C5EE 1_555 1_555
C11ME C5ME 1_555 1_555
C11JE C5JE 1_555 1_555
C11CG C5CG 1_555 1_555
C11TA C5TA 1_555 1_555
C11QA C5QA 1_555 1_555
C12BD C6BD 1_555 1_555
C12WE C6WE 1_555 1_555
C12H C6H 1_555 1_555
C12K C6K 1_555 1_555
C12C C6C 1_555 1_555
C12EE C6EE 1_555 1_555
C12ME C6ME 1_555 1_555
C12JE C6JE 1_555 1_555
C12CG C6CG 1_555 1_555
C12TA C6TA 1_555 1_555
C12QA C6QA 1_555 1_555
C13BD C9 1_555 1_555
C13WE C7WE 1_555 1_555
C13H C7H 1_555 1_555
C13K C7K 1_555 1_555
C13C C7C 1_555 1_555
C13EE C7EE 1_555 1_555
C13ME C7ME 1_555 1_555
C13JE C7JE 1_555 1_555
C13CG C7CG 1_555 1_555
C13TA C7TA 1_555 1_555
C13QA C7QA 1_555 1_555
C14YC C8 1_555 1_555
C14WE C8BD 1_555 1_555
C14K C8H 1_555 1_555
C14H C8H 1_555 1_555
C14C C8K 1_555 1_555
C14EE C8EE 1_555 1_555
C14JE C8EE 1_555 1_555
C14ME C8ME 1_555 1_555
C14EG C8CG 1_555 1_555
C14QA C8CG 1_555 1_555
C14TA C8TA 1_555 1_555
C15WE C9WE 1_555 1_555
C15YC C9YC 1_555 1_555
C15K C9K 1_555 1_555
C15C C9C 1_555 1_555
C15H C9H 1_555 1_555
C15EE C9EE 1_555 1_555
C15ME C9ME 1_555 1_555
C15JE C9JE 1_555 1_555
C15EG C9EG 1_555 1_555
C15TA C9TA 1_555 1_555
C15QA C9QA 1_555 1_555
H6CB C10WE 1_555 1_555
H6YC C10YC 1_555 1_555
H6BD C10 1_555 1_555
H6AB C10YC 1_555 1_555
H6WE C10WE 1_555 1_555
H6NE C10K 1_555 1_555
H6TE C10C 1_555 1_555
H6H C10H 1_555 1_555
H6K C10K 1_555 1_555
H6QE C10H 1_555 1_555
H6C C10C 1_555 1_555
H6EE C10EE 1_555 1_555
H6ME C10ME 1_555 1_555
H6IC C10JE 1_555 1_555
H6LC C10EE 1_555 1_555
H6JE C10JE 1_555 1_555
H6FC C10ME 1_555 1_555
H6OC C10EG 1_555 1_555
H6TA C10TA 1_555 1_555
H6CG C10QA 1_555 1_555
H6EG C10EG 1_555 1_555
H6QA C10QA 1_555 1_555
H6BE C10TA 1_555 1_555
H7YC H5YC 1_555 1_555
H7BD C15 1_555 1_555
H7WE H5WE 1_555 1_555
H7CB H5CB 1_555 1_555
H7AB H5AB 1_555 1_555
H7NE H5NE 1_555 1_555
H7H H5H 1_555 1_555
H7K H5K 1_555 1_555
H7C H5C 1_555 1_555
H7TE H5TE 1_555 1_555
H7QE H5QE 1_555 1_555
H7EE H5EE 1_555 1_555
H7IC H5IC 1_555 1_555
H7LC H5LC 1_555 1_555
H7FC H5FC 1_555 1_555
H7ME H5ME 1_555 1_555
H7JE H5JE 1_555 1_555
H7OC H5OC 1_555 1_555
H7CG H5CG 1_555 1_555
H7EG H5EG 1_555 1_555
H7BE H5BE 1_555 1_555
H7TA H5TA 1_555 1_555
H7QA H5QA 1_555 1_555
H8CB C10WE 1_555 1_555
H8YC C10YC 1_555 1_555
H8AB C10YC 1_555 1_555
H8WE C10WE 1_555 1_555
H8BD C10 1_555 1_555
H8NE C10K 1_555 1_555
H8TE C10C 1_555 1_555
H8H C10H 1_555 1_555
H8QE C10H 1_555 1_555
H8C C10C 1_555 1_555
H8K C10K 1_555 1_555
H8EE C10EE 1_555 1_555
H8ME C10ME 1_555 1_555
H8IC C10JE 1_555 1_555
H8JE C10JE 1_555 1_555
H8FC C10ME 1_555 1_555
H8LC C10EE 1_555 1_555
H8OC C10EG 1_555 1_555
H8TA C10TA 1_555 1_555
H8CG C10QA 1_555 1_555
H8QA C10QA 1_555 1_555
H8BE C10TA 1_555 1_555
H8EG C10EG 1_555 1_555
C6 C11 1_555 1_555
C7 C11 1_555 1_555
C7 C12 1_555 1_555
C8 C12 1_555 1_555
C8 C13 1_555 1_555
C9 C13 1_555 1_555
C9 C14 1_555 1_555
C10 C14 1_555 1_555
C10 C15 1_555 1_555
H3 C15 1_555 1_555
H3 H8 1_555 1_555
H3 H5BD 1_555 1_555
H3 H6BD 1_555 1_555
H4 H4BD 1_555 1_555
H4 H8BD 1_555 1_555
H5 C15 1_555 1_555
H5 H6 1_555 1_555
H5 H3BD 1_555 1_555
H5 H8BD 1_555 1_555
C11 C12 1_555 1_555
C12 C13 1_555 1_555
C13 C14 1_555 1_555
C13 C9YC 1_555 1_555
C13 C14YC 1_555 1_555
C14 C15 1_555 1_555
C14 C8BD 1_555 1_555
C14 C13BD 1_555 1_555
C15 H6 1_555 1_555
C15 H7 1_555 1_555
C15 H8 1_555 1_555
C15 H3BD 1_555 1_555
C15 H5BD 1_555 1_555
C15 H6BD 1_555 1_555
C15 H8BD 1_555 1_555
H6 H3BD 1_555 1_555
H8 H4BD 1_555 1_555
H8 H5BD 1_555 1_555
O2NE C1NE 1_555 1_555
O2C C1C 1_555 1_555
O2EE C1EE 1_555 1_555
O2FC C1FC 1_555 1_555
O2OC C1OC 1_555 1_555
O2BE C1BE 1_555 1_555
C2YC C4YC 1_555 1_555
C4CB C5BD 1_555 1_555
C4WE C5WE 1_555 1_555
C4H C5H 1_555 1_555
C4TE C5K 1_555 1_555
C4C C5C 1_555 1_555
C4IC C5EE 1_555 1_555
C4ME C5ME 1_555 1_555
C4FC C5JE 1_555 1_555
C4CG C5CG 1_555 1_555
C4TA C5TA 1_555 1_555
C4BE C5QA 1_555 1_555
C6BD C11BD 1_555 1_555
C6WE C11WE 1_555 1_555
C6H C11H 1_555 1_555
C6K C11K 1_555 1_555
C6C C11C 1_555 1_555
C6EE C11EE 1_555 1_555
C6ME C11ME 1_555 1_555
C6JE C11JE 1_555 1_555
C6CG C11CG 1_555 1_555
C6TA C11TA 1_555 1_555
C6QA C11QA 1_555 1_555
C7BD C8BD 1_555 1_555
C7BD C11BD 1_555 1_555
C7BD C12BD 1_555 1_555
C7BD C13BD 1_555 1_555
C7WE C11WE 1_555 1_555
C7WE C12WE 1_555 1_555
C7H C11H 1_555 1_555
C7H C12H 1_555 1_555
C7K C11K 1_555 1_555
C7K C12K 1_555 1_555
C7C C11C 1_555 1_555
C7C C12C 1_555 1_555
C7EE C11EE 1_555 1_555
C7EE C12EE 1_555 1_555
C7ME C11ME 1_555 1_555
C7ME C12ME 1_555 1_555
C7JE C11JE 1_555 1_555
C7JE C12JE 1_555 1_555
C7CG C11CG 1_555 1_555
C7CG C12CG 1_555 1_555
C7TA C11TA 1_555 1_555
C7TA C12TA 1_555 1_555
C7QA C11QA 1_555 1_555
C7QA C12QA 1_555 1_555
C8BD C12BD 1_555 1_555
C8BD C13BD 1_555 1_555
C8WE C9YC 1_555 1_555
C8WE C9WE 1_555 1_555
C8WE C12WE 1_555 1_555
C8WE C13WE 1_555 1_555
C8WE C14YC 1_555 1_555
C8WE C14WE 1_555 1_555
C8H C12H 1_555 1_555
C8H C13H 1_555 1_555
C8K C9K 1_555 1_555
C8K C12K 1_555 1_555
C8K C13K 1_555 1_555
C8K C14K 1_555 1_555
C8C C9H 1_555 1_555
C8C C9C 1_555 1_555
C8C C12C 1_555 1_555
C8C C13C 1_555 1_555
C8C C14H 1_555 1_555
C8C C14C 1_555 1_555
C8EE C12EE 1_555 1_555
C8EE C13EE 1_555 1_555
C8ME C9EE 1_555 1_555
C8ME C12ME 1_555 1_555
C8ME C13ME 1_555 1_555
C8ME C14EE 1_555 1_555
C8JE C9JE 1_555 1_555
C8JE C9ME 1_555 1_555
C8JE C12JE 1_555 1_555
C8JE C13JE 1_555 1_555
C8JE C14JE 1_555 1_555
C8JE C14ME 1_555 1_555
C8CG C12CG 1_555 1_555
C8CG C13CG 1_555 1_555
C8TA C9EG 1_555 1_555
C8TA C12TA 1_555 1_555
C8TA C13TA 1_555 1_555
C8TA C14EG 1_555 1_555
C8QA C9QA 1_555 1_555
C8QA C9TA 1_555 1_555
C8QA C12QA 1_555 1_555
C8QA C13QA 1_555 1_555
C8QA C14QA 1_555 1_555
C8QA C14TA 1_555 1_555
C9YC C13WE 1_555 1_555
C9YC C14YC 1_555 1_555
C9WE C13BD 1_555 1_555
C9WE C13WE 1_555 1_555
C9WE C14WE 1_555 1_555
C9K C13H 1_555 1_555
C9K C13K 1_555 1_555
C9K C14K 1_555 1_555
C9H C13H 1_555 1_555
C9H C13C 1_555 1_555
C9H C14H 1_555 1_555
C9C C13K 1_555 1_555
C9C C13C 1_555 1_555
C9C C14C 1_555 1_555
C9EE C13EE 1_555 1_555
C9EE C13ME 1_555 1_555
C9EE C14EE 1_555 1_555
C9JE C13EE 1_555 1_555
C9JE C13JE 1_555 1_555
C9JE C14JE 1_555 1_555
C9ME C13ME 1_555 1_555
C9ME C13JE 1_555 1_555
C9ME C14ME 1_555 1_555
C9EG C13CG 1_555 1_555
C9EG C13TA 1_555 1_555
C9EG C14EG 1_555 1_555
C9QA C13CG 1_555 1_555
C9QA C13QA 1_555 1_555
C9QA C14QA 1_555 1_555
C9TA C13TA 1_555 1_555
C9TA C13QA 1_555 1_555
C9TA C14TA 1_555 1_555
C10WE C14WE 1_555 1_555
C10WE C15WE 1_555 1_555
C10YC C14YC 1_555 1_555
C10YC C15YC 1_555 1_555
C10K C14K 1_555 1_555
C10K C15K 1_555 1_555
C10C C14C 1_555 1_555
C10C C15C 1_555 1_555
C10H C14H 1_555 1_555
C10H C15H 1_555 1_555
C10EE C14EE 1_555 1_555
C10EE C15EE 1_555 1_555
C10ME C14ME 1_555 1_555
C10ME C15ME 1_555 1_555
C10JE C14JE 1_555 1_555
C10JE C15JE 1_555 1_555
C10EG C14EG 1_555 1_555
C10EG C15EG 1_555 1_555
C10TA C14TA 1_555 1_555
C10TA C15TA 1_555 1_555
C10QA C14QA 1_555 1_555
C10QA C15QA 1_555 1_555
H3BD H8BD 1_555 1_555
H3CB H5WE 1_555 1_555
H3CB C15WE 1_555 1_555
H3CB H6WE 1_555 1_555
H3CB H8CB 1_555 1_555
H3WE H5CB 1_555 1_555
H3WE C15WE 1_555 1_555
H3WE H6CB 1_555 1_555
H3WE H8WE 1_555 1_555
H3YC H5AB 1_555 1_555
H3YC C15YC 1_555 1_555
H3YC H6AB 1_555 1_555
H3YC H8YC 1_555 1_555
H3AB H5YC 1_555 1_555
H3AB C15YC 1_555 1_555
H3AB H6YC 1_555 1_555
H3AB H8AB 1_555 1_555
H3NE H5K 1_555 1_555
H3NE C15K 1_555 1_555
H3NE H6K 1_555 1_555
H3NE H8NE 1_555 1_555
H3K H5NE 1_555 1_555
H3K C15K 1_555 1_555
H3K H6NE 1_555 1_555
H3K H8K 1_555 1_555
H3TE H5C 1_555 1_555
H3TE C15C 1_555 1_555
H3TE H6C 1_555 1_555
H3TE H8TE 1_555 1_555
H3C H5TE 1_555 1_555
H3C C15C 1_555 1_555
H3C H6TE 1_555 1_555
H3C H8C 1_555 1_555
H3H H5QE 1_555 1_555
H3H C15H 1_555 1_555
H3H H6QE 1_555 1_555
H3H H8H 1_555 1_555
H3QE H5H 1_555 1_555
H3QE C15H 1_555 1_555
H3QE H6H 1_555 1_555
H3QE H8QE 1_555 1_555
H3EE H5LC 1_555 1_555
H3EE C15EE 1_555 1_555
H3EE H6LC 1_555 1_555
H3EE H8EE 1_555 1_555
H3LC H5EE 1_555 1_555
H3LC C15EE 1_555 1_555
H3LC H6EE 1_555 1_555
H3LC H8LC 1_555 1_555
H3ME H5FC 1_555 1_555
H3ME C15ME 1_555 1_555
H3ME H6FC 1_555 1_555
H3ME H8ME 1_555 1_555
H3FC H5ME 1_555 1_555
H3FC C15ME 1_555 1_555
H3FC H6ME 1_555 1_555
H3FC H8FC 1_555 1_555
H3IC H5JE 1_555 1_555
H3IC C15JE 1_555 1_555
H3IC H6JE 1_555 1_555
H3IC H8IC 1_555 1_555
H3JE H5IC 1_555 1_555
H3JE C15JE 1_555 1_555
H3JE H6IC 1_555 1_555
H3JE H8JE 1_555 1_555
H3OC H5EG 1_555 1_555
H3OC C15EG 1_555 1_555
H3OC H6EG 1_555 1_555
H3OC H8OC 1_555 1_555
H3EG H5OC 1_555 1_555
H3EG C15EG 1_555 1_555
H3EG H6OC 1_555 1_555
H3EG H8EG 1_555 1_555
H3TA H5BE 1_555 1_555
H3TA C15TA 1_555 1_555
H3TA H6BE 1_555 1_555
H3TA H8TA 1_555 1_555
H3BE H5TA 1_555 1_555
H3BE C15TA 1_555 1_555
H3BE H6TA 1_555 1_555
H3BE H8BE 1_555 1_555
H3CG H5QA 1_555 1_555
H3CG C15QA 1_555 1_555
H3CG H6QA 1_555 1_555
H3CG H8CG 1_555 1_555
H3QA H5CG 1_555 1_555
H3QA C15QA 1_555 1_555
H3QA H6CG 1_555 1_555
H3QA H8QA 1_555 1_555
H4CB H4WE 1_555 1_555
H4CB H8WE 1_555 1_555
H4WE H8CB 1_555 1_555
H4YC H4AB 1_555 1_555
H4YC H8AB 1_555 1_555
H4AB H8YC 1_555 1_555
H4NE H4K 1_555 1_555
H4NE H8K 1_555 1_555
H4K H8NE 1_555 1_555
H4TE H4C 1_555 1_555
H4TE H8C 1_555 1_555
H4C H8TE 1_555 1_555
H4H H4QE 1_555 1_555
H4H H8QE 1_555 1_555
H4QE H8H 1_555 1_555
H4EE H4LC 1_555 1_555
H4EE H8LC 1_555 1_555
H4LC H8EE 1_555 1_555
H4ME H4FC 1_555 1_555
H4ME H8FC 1_555 1_555
H4FC H8ME 1_555 1_555
H4IC H4JE 1_555 1_555
H4IC H8JE 1_555 1_555
H4JE H8IC 1_555 1_555
H4OC H4EG 1_555 1_555
H4OC H8EG 1_555 1_555
H4EG H8OC 1_555 1_555
H4TA H4BE 1_555 1_555
H4TA H8BE 1_555 1_555
H4BE H8TA 1_555 1_555
H4CG H4QA 1_555 1_555
H4CG H8QA 1_555 1_555
H4QA H8CG 1_555 1_555
H5BD H6BD 1_555 1_555
H5BD H7BD 1_555 1_555
H5WE C15WE 1_555 1_555
H5WE H6WE 1_555 1_555
H5WE H8CB 1_555 1_555
H5CB C15WE 1_555 1_555
H5CB H6CB 1_555 1_555
H5CB H8WE 1_555 1_555
H5AB C15YC 1_555 1_555
H5AB H6AB 1_555 1_555
H5AB H8YC 1_555 1_555
H5YC C15YC 1_555 1_555
H5YC H6YC 1_555 1_555
H5YC H8AB 1_555 1_555
H5NE C15K 1_555 1_555
H5NE H6NE 1_555 1_555
H5NE H8K 1_555 1_555
H5K C15K 1_555 1_555
H5K H6K 1_555 1_555
H5K H8NE 1_555 1_555
H5C C15C 1_555 1_555
H5C H6C 1_555 1_555
H5C H8TE 1_555 1_555
H5TE C15C 1_555 1_555
H5TE H6TE 1_555 1_555
H5TE H8C 1_555 1_555
H5QE C15H 1_555 1_555
H5QE H6QE 1_555 1_555
H5QE H8H 1_555 1_555
H5H C15H 1_555 1_555
H5H H6H 1_555 1_555
H5H H8QE 1_555 1_555
H5EE C15EE 1_555 1_555
H5EE H6EE 1_555 1_555
H5EE H8LC 1_555 1_555
H5LC C15EE 1_555 1_555
H5LC H6LC 1_555 1_555
H5LC H8EE 1_555 1_555
H5FC C15ME 1_555 1_555
H5FC H6FC 1_555 1_555
H5FC H8ME 1_555 1_555
H5ME C15ME 1_555 1_555
H5ME H6ME 1_555 1_555
H5ME H8FC 1_555 1_555
H5JE C15JE 1_555 1_555
H5JE H6JE 1_555 1_555
H5JE H8IC 1_555 1_555
H5IC C15JE 1_555 1_555
H5IC H6IC 1_555 1_555
H5IC H8JE 1_555 1_555
H5OC C15EG 1_555 1_555
H5OC H6OC 1_555 1_555
H5OC H8EG 1_555 1_555
H5EG C15EG 1_555 1_555
H5EG H6EG 1_555 1_555
H5EG H8OC 1_555 1_555
H5BE C15TA 1_555 1_555
H5BE H6BE 1_555 1_555
H5BE H8TA 1_555 1_555
H5TA C15TA 1_555 1_555
H5TA H6TA 1_555 1_555
H5TA H8BE 1_555 1_555
H5QA C15QA 1_555 1_555
H5QA H6QA 1_555 1_555
H5QA H8CG 1_555 1_555
H5CG C15QA 1_555 1_555
H5CG H6CG 1_555 1_555
H5CG H8QA 1_555 1_555
C11BD C12BD 1_555 1_555
C11WE C12WE 1_555 1_555
C11H C12H 1_555 1_555
C11K C12K 1_555 1_555
C11C C12C 1_555 1_555
C11EE C12EE 1_555 1_555
C11ME C12ME 1_555 1_555
C11JE C12JE 1_555 1_555
C11CG C12CG 1_555 1_555
C11TA C12TA 1_555 1_555
C11QA C12QA 1_555 1_555
C12BD C13BD 1_555 1_555
C12WE C13WE 1_555 1_555
C12H C13H 1_555 1_555
C12K C13K 1_555 1_555
C12C C13C 1_555 1_555
C12EE C13EE 1_555 1_555
C12ME C13ME 1_555 1_555
C12JE C13JE 1_555 1_555
C12CG C13CG 1_555 1_555
C12TA C13TA 1_555 1_555
C12QA C13QA 1_555 1_555
C13BD C14WE 1_555 1_555
C13WE C14YC 1_555 1_555
C13WE C14WE 1_555 1_555
C13H C14K 1_555 1_555
C13H C14H 1_555 1_555
C13K C14K 1_555 1_555
C13K C14C 1_555 1_555
C13C C14H 1_555 1_555
C13C C14C 1_555 1_555
C13EE C14EE 1_555 1_555
C13EE C14JE 1_555 1_555
C13ME C14EE 1_555 1_555
C13ME C14ME 1_555 1_555
C13JE C14JE 1_555 1_555
C13JE C14ME 1_555 1_555
C13CG C14EG 1_555 1_555
C13CG C14QA 1_555 1_555
C13TA C14EG 1_555 1_555
C13TA C14TA 1_555 1_555
C13QA C14QA 1_555 1_555
C13QA C14TA 1_555 1_555
C14YC C15YC 1_555 1_555
C14WE C15WE 1_555 1_555
C14K C15K 1_555 1_555
C14H C15H 1_555 1_555
C14C C15C 1_555 1_555
C14EE C15EE 1_555 1_555
C14JE C15JE 1_555 1_555
C14ME C15ME 1_555 1_555
C14EG C15EG 1_555 1_555
C14QA C15QA 1_555 1_555
C14TA C15TA 1_555 1_555
C15WE H6CB 1_555 1_555
C15WE H6WE 1_555 1_555
C15WE H7WE 1_555 1_555
C15WE H7CB 1_555 1_555
C15WE H8CB 1_555 1_555
C15WE H8WE 1_555 1_555
C15YC H6YC 1_555 1_555
C15YC H6AB 1_555 1_555
C15YC H7YC 1_555 1_555
C15YC H7AB 1_555 1_555
C15YC H8YC 1_555 1_555
C15YC H8AB 1_555 1_555
C15K H6NE 1_555 1_555
C15K H6K 1_555 1_555
C15K H7NE 1_555 1_555
C15K H7K 1_555 1_555
C15K H8NE 1_555 1_555
C15K H8K 1_555 1_555
C15C H6TE 1_555 1_555
C15C H6C 1_555 1_555
C15C H7C 1_555 1_555
C15C H7TE 1_555 1_555
C15C H8TE 1_555 1_555
C15C H8C 1_555 1_555
C15H H6H 1_555 1_555
C15H H6QE 1_555 1_555
C15H H7H 1_555 1_555
C15H H7QE 1_555 1_555
C15H H8H 1_555 1_555
C15H H8QE 1_555 1_555
C15EE H6EE 1_555 1_555
C15EE H6LC 1_555 1_555
C15EE H7EE 1_555 1_555
C15EE H7LC 1_555 1_555
C15EE H8EE 1_555 1_555
C15EE H8LC 1_555 1_555
C15ME H6ME 1_555 1_555
C15ME H6FC 1_555 1_555
C15ME H7FC 1_555 1_555
C15ME H7ME 1_555 1_555
C15ME H8ME 1_555 1_555
C15ME H8FC 1_555 1_555
C15JE H6IC 1_555 1_555
C15JE H6JE 1_555 1_555
C15JE H7IC 1_555 1_555
C15JE H7JE 1_555 1_555
C15JE H8IC 1_555 1_555
C15JE H8JE 1_555 1_555
C15EG H6OC 1_555 1_555
C15EG H6EG 1_555 1_555
C15EG H7OC 1_555 1_555
C15EG H7EG 1_555 1_555
C15EG H8OC 1_555 1_555
C15EG H8EG 1_555 1_555
C15TA H6TA 1_555 1_555
C15TA H6BE 1_555 1_555
C15TA H7BE 1_555 1_555
C15TA H7TA 1_555 1_555
C15TA H8TA 1_555 1_555
C15TA H8BE 1_555 1_555
C15QA H6CG 1_555 1_555
C15QA H6QA 1_555 1_555
C15QA H7CG 1_555 1_555
C15QA H7QA 1_555 1_555
C15QA H8CG 1_555 1_555
C15QA H8QA 1_555 1_555

#END
