
#######################################################################
#
#                 Cambridge Crystallographic Data Centre
#                                CCDC 
#
#######################################################################
#
# If this CIF has been generated from an entry in the Cambridge 
# Structural Database, then it will include bibliographic, chemical, 
# crystal, experimental, refinement or atomic coordinate data resulting 
# from the CCDC's data processing and validation procedures.
#
#######################################################################

data_RAHPAT
_chemical_formula_moiety         'C216 H132 Cu36 N4 O84'
_symmetry_cell_setting           cubic
_symmetry_space_group_name_H-M   'F m -3 m'
_symmetry_Int_Tables_number      225
_space_group_name_Hall           '-F 4 2 3'
loop_
_symmetry_equiv_pos_site_id
_symmetry_equiv_pos_as_xyz
1 x,y,z
2 z,x,y
3 y,z,x
4 y,x,-z
5 y,-x,z
6 -y,x,z
7 x,z,-y
8 -x,z,y
9 x,-z,y
10 z,y,-x
11 z,-y,x
12 -z,y,x
13 x,1/2+y,1/2+z
14 z,1/2+x,1/2+y
15 y,1/2+z,1/2+x
16 y,1/2+x,1/2-z
17 y,1/2-x,1/2+z
18 -y,1/2+x,1/2+z
19 x,1/2+z,1/2-y
20 -x,1/2+z,1/2+y
21 x,1/2-z,1/2+y
22 z,1/2+y,1/2-x
23 z,1/2-y,1/2+x
24 -z,1/2+y,1/2+x
25 1/2+x,y,1/2+z
26 1/2+z,x,1/2+y
27 1/2+y,z,1/2+x
28 1/2+y,x,1/2-z
29 1/2+y,-x,1/2+z
30 1/2-y,x,1/2+z
31 1/2+x,z,1/2-y
32 1/2-x,z,1/2+y
33 1/2+x,-z,1/2+y
34 1/2+z,y,1/2-x
35 1/2+z,-y,1/2+x
36 1/2-z,y,1/2+x
37 1/2+x,1/2+y,z
38 1/2+z,1/2+x,y
39 1/2+y,1/2+z,x
40 1/2+y,1/2+x,-z
41 1/2+y,1/2-x,z
42 1/2-y,1/2+x,z
43 1/2+x,1/2+z,-y
44 1/2-x,1/2+z,y
45 1/2+x,1/2-z,y
46 1/2+z,1/2+y,-x
47 1/2+z,1/2-y,x
48 1/2-z,1/2+y,x
49 -x,-y,z
50 -x,y,-z
51 x,-y,-z
52 z,-x,-y
53 -z,-x,y
54 -z,x,-y
55 -y,z,-x
56 y,-z,-x
57 -y,-z,x
58 -y,-x,-z
59 -x,-z,-y
60 -z,-y,-x
61 -x,1/2-y,1/2+z
62 -x,1/2+y,1/2-z
63 x,1/2-y,1/2-z
64 z,1/2-x,1/2-y
65 -z,1/2-x,1/2+y
66 -z,1/2+x,1/2-y
67 -y,1/2+z,1/2-x
68 y,1/2-z,1/2-x
69 -y,1/2-z,1/2+x
70 -y,1/2-x,1/2-z
71 -x,1/2-z,1/2-y
72 -z,1/2-y,1/2-x
73 1/2-x,-y,1/2+z
74 1/2-x,y,1/2-z
75 1/2+x,-y,1/2-z
76 1/2+z,-x,1/2-y
77 1/2-z,-x,1/2+y
78 1/2-z,x,1/2-y
79 1/2-y,z,1/2-x
80 1/2+y,-z,1/2-x
81 1/2-y,-z,1/2+x
82 1/2-y,-x,1/2-z
83 1/2-x,-z,1/2-y
84 1/2-z,-y,1/2-x
85 1/2-x,1/2-y,z
86 1/2-x,1/2+y,-z
87 1/2+x,1/2-y,-z
88 1/2+z,1/2-x,-y
89 1/2-z,1/2-x,y
90 1/2-z,1/2+x,-y
91 1/2-y,1/2+z,-x
92 1/2+y,1/2-z,-x
93 1/2-y,1/2-z,x
94 1/2-y,1/2-x,-z
95 1/2-x,1/2-z,-y
96 1/2-z,1/2-y,-x
97 -x,-y,-z
98 -z,-x,-y
99 -y,-z,-x
100 -y,-x,z
101 -y,x,-z
102 y,-x,-z
103 -x,-z,y
104 x,-z,-y
105 -x,z,-y
106 -z,-y,x
107 -z,y,-x
108 z,-y,-x
109 -x,1/2-y,1/2-z
110 -z,1/2-x,1/2-y
111 -y,1/2-z,1/2-x
112 -y,1/2-x,1/2+z
113 -y,1/2+x,1/2-z
114 y,1/2-x,1/2-z
115 -x,1/2-z,1/2+y
116 x,1/2-z,1/2-y
117 -x,1/2+z,1/2-y
118 -z,1/2-y,1/2+x
119 -z,1/2+y,1/2-x
120 z,1/2-y,1/2-x
121 1/2-x,-y,1/2-z
122 1/2-z,-x,1/2-y
123 1/2-y,-z,1/2-x
124 1/2-y,-x,1/2+z
125 1/2-y,x,1/2-z
126 1/2+y,-x,1/2-z
127 1/2-x,-z,1/2+y
128 1/2+x,-z,1/2-y
129 1/2-x,z,1/2-y
130 1/2-z,-y,1/2+x
131 1/2-z,y,1/2-x
132 1/2+z,-y,1/2-x
133 1/2-x,1/2-y,-z
134 1/2-z,1/2-x,-y
135 1/2-y,1/2-z,-x
136 1/2-y,1/2-x,z
137 1/2-y,1/2+x,-z
138 1/2+y,1/2-x,-z
139 1/2-x,1/2-z,y
140 1/2+x,1/2-z,-y
141 1/2-x,1/2+z,-y
142 1/2-z,1/2-y,x
143 1/2-z,1/2+y,-x
144 1/2+z,1/2-y,-x
145 x,y,-z
146 x,-y,z
147 -x,y,z
148 -z,x,y
149 z,x,-y
150 z,-x,y
151 y,-z,x
152 -y,z,x
153 y,z,-x
154 y,x,z
155 x,z,y
156 z,y,x
157 x,1/2+y,1/2-z
158 x,1/2-y,1/2+z
159 -x,1/2+y,1/2+z
160 -z,1/2+x,1/2+y
161 z,1/2+x,1/2-y
162 z,1/2-x,1/2+y
163 y,1/2-z,1/2+x
164 -y,1/2+z,1/2+x
165 y,1/2+z,1/2-x
166 y,1/2+x,1/2+z
167 x,1/2+z,1/2+y
168 z,1/2+y,1/2+x
169 1/2+x,y,1/2-z
170 1/2+x,-y,1/2+z
171 1/2-x,y,1/2+z
172 1/2-z,x,1/2+y
173 1/2+z,x,1/2-y
174 1/2+z,-x,1/2+y
175 1/2+y,-z,1/2+x
176 1/2-y,z,1/2+x
177 1/2+y,z,1/2-x
178 1/2+y,x,1/2+z
179 1/2+x,z,1/2+y
180 1/2+z,y,1/2+x
181 1/2+x,1/2+y,-z
182 1/2+x,1/2-y,z
183 1/2-x,1/2+y,z
184 1/2-z,1/2+x,y
185 1/2+z,1/2+x,-y
186 1/2+z,1/2-x,y
187 1/2+y,1/2-z,x
188 1/2-y,1/2+z,x
189 1/2+y,1/2+z,-x
190 1/2+y,1/2+x,z
191 1/2+x,1/2+z,y
192 1/2+z,1/2+y,x
_cell_length_a                   43.127(5)
_cell_length_b                   43.127(5)
_cell_length_c                   43.127(5)
_cell_angle_alpha                90
_cell_angle_beta                 90
_cell_angle_gamma                90
_cell_volume                     80213.6
loop_
_atom_site_label
_atom_site_type_symbol
_atom_site_fract_x
_atom_site_fract_y
_atom_site_fract_z
_atom_site_U_iso_or_equiv
_atom_site_thermal_displace_type
Cu1 Cu 0.17315(3) 0.32685(3) 0.5000 0.0600 Uani
Cu2 Cu 0.12951(3) 0.37049(3) 0.5000 0.0635 Uani
C1 C 0.1222(2) 0.3207(2) 0.54184(19) 0.0667 Uani
C2 C 0.10616(19) 0.3041(2) 0.56664(18) 0.0687 Uani
C3 C 0.08108(17) 0.3184(3) 0.58108(17) 0.0657 Uani
H1 H 0.0738 0.3378 0.5738 0.0790 Uiso
C4 C 0.1160(2) 0.2746(3) 0.5764(2) 0.0983 Uani
H2 H 0.1330 0.2647 0.5665 0.1180 Uiso
C5 C 0.1007(3) 0.2603(4) 0.6007(3) 0.1053 Uani
C6 C 0.1116(3) 0.2280(4) 0.6116(3) 0.1373 Uani
C7 C 0.1447(5) 0.2238(6) 0.6136(6) 0.1373 Uani
H3 H 0.1590 0.2391 0.6066 0.1650 Uiso
C8 C 0.1543(6) 0.1955(5) 0.6265(6) 0.1373 Uani
H4 H 0.1756 0.1923 0.6314 0.1650 Uiso
C9 C 0.0884(6) 0.2059(5) 0.6185(8) 0.1947 Uani
H5 H 0.0669 0.2100 0.6158 0.2330 Uiso
C10 C 0.1297(5) 0.1772(7) 0.5998(8) 0.1947 Uani
H6 H 0.1356 0.1614 0.5856 0.2330 Uiso
C11 C 0.1322(4) 0.1716(5) 0.6322(4) 0.1947 Uani
O1 O 0.14730(13) 0.30814(14) 0.53156(13) 0.0770 Uani
O2 O 0.11089(13) 0.34526(14) 0.53202(13) 0.0760 Uani
O3 O 0.20806(17) 0.29194(17) 0.5000 0.0880 Uani
O4 O 0.0941(2) 0.4059(2) 0.5000 0.1277 Uani
N1 N 0.1427(5) 0.1427(5) 0.6427(5) 0.1650 Uani
Cu1IA Cu 0.0000 0.32685(3) 0.67315(3) 0.0600 Uani
Cu1Y Cu -0.0000 0.17315(3) 0.82685(3) 0.0600 Uani
Cu1T Cu 0.17315(3) -0.0000 0.82685(3) 0.0600 Uani
Cu1N Cu 0.32685(3) 0.0000 0.67315(3) 0.0600 Uani
Cu1C Cu 0.32685(3) 0.17315(3) 0.5000 0.0600 Uani
Cu1GA Cu 0.0000 0.32685(3) 0.32685(3) 0.0600 Uani
Cu1TA Cu -0.0000 0.17315(3) 0.17315(3) 0.0600 Uani
Cu1R Cu 0.17315(3) -0.0000 0.17315(3) 0.0600 Uani
Cu1QA Cu 0.32685(3) -0.0000 0.32685(3) 0.0600 Uani
Cu1F Cu 0.17315(3) 0.5000 0.67315(3) 0.0600 Uani
Cu1EA Cu 0.32685(3) 0.5000 0.82685(3) 0.0600 Uani
Cu1I Cu 0.5000 0.32685(3) 0.82685(3) 0.0600 Uani
Cu1V Cu 0.5000 0.17315(3) 0.67315(3) 0.0600 Uani
Cu1H Cu 0.17315(3) 0.5000 0.32685(3) 0.0600 Uani
Cu1B Cu 0.32685(3) 0.5000 0.17315(3) 0.0600 Uani
Cu1K Cu 0.5000 0.32685(3) 0.17315(3) 0.0600 Uani
Cu1A Cu 0.5000 0.17315(3) 0.32685(3) 0.0600 Uani
Cu2IA Cu 0.0000 0.37049(3) 0.62951(3) 0.0635 Uani
Cu2Y Cu -0.0000 0.12951(3) 0.87049(3) 0.0635 Uani
Cu2T Cu 0.12951(3) -0.0000 0.87049(3) 0.0635 Uani
Cu2N Cu 0.37049(3) 0.0000 0.62951(3) 0.0635 Uani
Cu2C Cu 0.37049(3) 0.12951(3) 0.5000 0.0635 Uani
Cu2GA Cu 0.0000 0.37049(3) 0.37049(3) 0.0635 Uani
Cu2TA Cu -0.0000 0.12951(3) 0.12951(3) 0.0635 Uani
Cu2R Cu 0.12951(3) 0.0000 0.12951(3) 0.0635 Uani
Cu2QA Cu 0.37049(3) 0.0000 0.37049(3) 0.0635 Uani
Cu2F Cu 0.12951(3) 0.5000 0.62951(3) 0.0635 Uani
Cu2EA Cu 0.37049(3) 0.5000 0.87049(3) 0.0635 Uani
Cu2I Cu 0.5000 0.37049(3) 0.87049(3) 0.0635 Uani
Cu2V Cu 0.5000 0.12951(3) 0.62951(3) 0.0635 Uani
Cu2H Cu 0.12951(3) 0.5000 0.37049(3) 0.0635 Uani
Cu2B Cu 0.37049(3) 0.5000 0.12951(3) 0.0635 Uani
Cu2K Cu 0.5000 0.37049(3) 0.12951(3) 0.0635 Uani
Cu2A Cu 0.5000 0.12951(3) 0.37049(3) 0.0635 Uani
C1WF C 0.04184(19) 0.3207(2) 0.6222(2) 0.0667 Uani
C1Y C 0.04184(19) 0.1222(2) 0.8207(2) 0.0667 Uani
C1JF C 0.1222(2) 0.04184(19) 0.8207(2) 0.0667 Uani
C1N C 0.3207(2) 0.04184(19) 0.6222(2) 0.0667 Uani
C1WE C 0.3207(2) 0.1222(2) 0.54184(19) 0.0667 Uani
C1NE C 0.1222(2) 0.3207(2) 0.45816(19) 0.0667 Uani
C1GA C 0.04184(19) 0.3207(2) 0.3778(2) 0.0667 Uani
C1PF C 0.04184(19) 0.1222(2) 0.1793(2) 0.0667 Uani
C1R C 0.1222(2) 0.04184(19) 0.1793(2) 0.0667 Uani
C1HF C 0.3207(2) 0.04184(19) 0.3778(2) 0.0667 Uani
C1C C 0.3207(2) 0.1222(2) 0.45816(19) 0.0667 Uani
C1EE C 0.1793(2) 0.3778(2) 0.54184(19) 0.0667 Uani
C1BC C 0.1793(2) 0.45816(19) 0.6222(2) 0.0667 Uani
C1VD C 0.3778(2) 0.45816(19) 0.8207(2) 0.0667 Uani
C1LB C 0.45816(19) 0.3778(2) 0.8207(2) 0.0667 Uani
C1MD C 0.45816(19) 0.1793(2) 0.6222(2) 0.0667 Uani
C1FC C 0.3778(2) 0.1793(2) 0.54184(19) 0.0667 Uani
C1OC C 0.1793(2) 0.3778(2) 0.45816(19) 0.0667 Uani
C1RD C 0.1793(2) 0.45816(19) 0.3778(2) 0.0667 Uani
C1DC C 0.3778(2) 0.45816(19) 0.1793(2) 0.0667 Uani
C1ED C 0.45816(19) 0.3778(2) 0.1793(2) 0.0667 Uani
C1SB C 0.45816(19) 0.1793(2) 0.3778(2) 0.0667 Uani
C1BE C 0.3778(2) 0.1793(2) 0.45816(19) 0.0667 Uani
C2WF C 0.06664(18) 0.3041(2) 0.60616(19) 0.0687 Uani
C2Y C 0.06664(18) 0.10616(19) 0.8041(2) 0.0687 Uani
C2JF C 0.10616(19) 0.06664(18) 0.8041(2) 0.0687 Uani
C2N C 0.3041(2) 0.06664(18) 0.60616(19) 0.0687 Uani
C2WE C 0.3041(2) 0.10616(19) 0.56664(18) 0.0687 Uani
C2NE C 0.10616(19) 0.3041(2) 0.43336(18) 0.0687 Uani
C2GA C 0.06664(18) 0.3041(2) 0.39384(19) 0.0687 Uani
C2PF C 0.06664(18) 0.10616(19) 0.1959(2) 0.0687 Uani
C2R C 0.10616(19) 0.06664(18) 0.1959(2) 0.0687 Uani
C2HF C 0.3041(2) 0.06664(18) 0.39384(19) 0.0687 Uani
C2C C 0.3041(2) 0.10616(19) 0.43336(18) 0.0687 Uani
C2EE C 0.1959(2) 0.39384(19) 0.56664(18) 0.0687 Uani
C2BC C 0.1959(2) 0.43336(18) 0.60616(19) 0.0687 Uani
C2VD C 0.39384(19) 0.43336(18) 0.8041(2) 0.0687 Uani
C2LB C 0.43336(18) 0.39384(19) 0.8041(2) 0.0687 Uani
C2MD C 0.43336(18) 0.1959(2) 0.60616(19) 0.0687 Uani
C2FC C 0.39384(19) 0.1959(2) 0.56664(18) 0.0687 Uani
C2OC C 0.1959(2) 0.39384(19) 0.43336(18) 0.0687 Uani
C2RD C 0.1959(2) 0.43336(18) 0.39384(19) 0.0687 Uani
C2DC C 0.39384(19) 0.43336(18) 0.1959(2) 0.0687 Uani
C2ED C 0.43336(18) 0.39384(19) 0.1959(2) 0.0687 Uani
C2SB C 0.43336(18) 0.1959(2) 0.39384(19) 0.0687 Uani
C2BE C 0.39384(19) 0.1959(2) 0.43336(18) 0.0687 Uani
C3Y C 0.08108(17) 0.08108(17) 0.8184(3) 0.0657 Uani
C3N C 0.3184(3) 0.08108(17) 0.58108(17) 0.0657 Uani
C3GA C 0.08108(17) 0.3184(3) 0.41892(17) 0.0657 Uani
C3R C 0.08108(17) 0.08108(17) 0.1816(3) 0.0657 Uani
C3C C 0.3184(3) 0.08108(17) 0.41892(17) 0.0657 Uani
C3EE C 0.1816(3) 0.41892(17) 0.58108(17) 0.0657 Uani
C3VD C 0.41892(17) 0.41892(17) 0.8184(3) 0.0657 Uani
C3MD C 0.41892(17) 0.1816(3) 0.58108(17) 0.0657 Uani
C3RD C 0.1816(3) 0.41892(17) 0.41892(17) 0.0657 Uani
C3ED C 0.41892(17) 0.41892(17) 0.1816(3) 0.0657 Uani
C3BE C 0.41892(17) 0.1816(3) 0.41892(17) 0.0657 Uani
H1Y H 0.0738 0.0738 0.8378 0.0790 Uiso
H1N H 0.3378 0.0738 0.5738 0.0790 Uiso
H1GA H 0.0738 0.3378 0.4262 0.0790 Uiso
H1R H 0.0738 0.0738 0.1622 0.0790 Uiso
H1C H 0.3378 0.0738 0.4262 0.0790 Uiso
H1EE H 0.1622 0.4262 0.5738 0.0790 Uiso
H1VD H 0.4262 0.4262 0.8378 0.0790 Uiso
H1MD H 0.4262 0.1622 0.5738 0.0790 Uiso
H1RD H 0.1622 0.4262 0.4262 0.0790 Uiso
H1ED H 0.4262 0.4262 0.1622 0.0790 Uiso
H1BE H 0.4262 0.1622 0.4262 0.0790 Uiso
C4WF C 0.0764(2) 0.2746(3) 0.6160(2) 0.0983 Uani
C4Y C 0.0764(2) 0.1160(2) 0.7746(3) 0.0983 Uani
C4JF C 0.1160(2) 0.0764(2) 0.7746(3) 0.0983 Uani
C4N C 0.2746(3) 0.0764(2) 0.6160(2) 0.0983 Uani
C4WE C 0.2746(3) 0.1160(2) 0.5764(2) 0.0983 Uani
C4NE C 0.1160(2) 0.2746(3) 0.4236(2) 0.0983 Uani
C4GA C 0.0764(2) 0.2746(3) 0.3840(2) 0.0983 Uani
C4PF C 0.0764(2) 0.1160(2) 0.2254(3) 0.0983 Uani
C4R C 0.1160(2) 0.0764(2) 0.2254(3) 0.0983 Uani
C4HF C 0.2746(3) 0.0764(2) 0.3840(2) 0.0983 Uani
C4C C 0.2746(3) 0.1160(2) 0.4236(2) 0.0983 Uani
C4EE C 0.2254(3) 0.3840(2) 0.5764(2) 0.0983 Uani
C4BC C 0.2254(3) 0.4236(2) 0.6160(2) 0.0983 Uani
C4VD C 0.3840(2) 0.4236(2) 0.7746(3) 0.0983 Uani
C4LB C 0.4236(2) 0.3840(2) 0.7746(3) 0.0983 Uani
C4MD C 0.4236(2) 0.2254(3) 0.6160(2) 0.0983 Uani
C4FC C 0.3840(2) 0.2254(3) 0.5764(2) 0.0983 Uani
C4OC C 0.2254(3) 0.3840(2) 0.4236(2) 0.0983 Uani
C4RD C 0.2254(3) 0.4236(2) 0.3840(2) 0.0983 Uani
C4DC C 0.3840(2) 0.4236(2) 0.2254(3) 0.0983 Uani
C4ED C 0.4236(2) 0.3840(2) 0.2254(3) 0.0983 Uani
C4SB C 0.4236(2) 0.2254(3) 0.3840(2) 0.0983 Uani
C4BE C 0.3840(2) 0.2254(3) 0.4236(2) 0.0983 Uani
H2WF H 0.0665 0.2647 0.6330 0.1180 Uiso
H2Y H 0.0665 0.1330 0.7647 0.1180 Uiso
H2JF H 0.1330 0.0665 0.7647 0.1180 Uiso
H2N H 0.2647 0.0665 0.6330 0.1180 Uiso
H2WE H 0.2647 0.1330 0.5665 0.1180 Uiso
H2NE H 0.1330 0.2647 0.4335 0.1180 Uiso
H2GA H 0.0665 0.2647 0.3670 0.1180 Uiso
H2PF H 0.0665 0.1330 0.2353 0.1180 Uiso
H2R H 0.1330 0.0665 0.2353 0.1180 Uiso
H2HF H 0.2647 0.0665 0.3670 0.1180 Uiso
H2C H 0.2647 0.1330 0.4335 0.1180 Uiso
H2EE H 0.2353 0.3670 0.5665 0.1180 Uiso
H2BC H 0.2353 0.4335 0.6330 0.1180 Uiso
H2VD H 0.3670 0.4335 0.7647 0.1180 Uiso
H2LB H 0.4335 0.3670 0.7647 0.1180 Uiso
H2MD H 0.4335 0.2353 0.6330 0.1180 Uiso
H2FC H 0.3670 0.2353 0.5665 0.1180 Uiso
H2OC H 0.2353 0.3670 0.4335 0.1180 Uiso
H2RD H 0.2353 0.4335 0.3670 0.1180 Uiso
H2DC H 0.3670 0.4335 0.2353 0.1180 Uiso
H2ED H 0.4335 0.3670 0.2353 0.1180 Uiso
H2SB H 0.4335 0.2353 0.3670 0.1180 Uiso
H2BE H 0.3670 0.2353 0.4335 0.1180 Uiso
C5Y C 0.1007(3) 0.1007(3) 0.7603(4) 0.1053 Uani
C5N C 0.2603(4) 0.1007(3) 0.6007(3) 0.1053 Uani
C5GA C 0.1007(3) 0.2603(4) 0.3993(3) 0.1053 Uani
C5R C 0.1007(3) 0.1007(3) 0.2397(4) 0.1053 Uani
C5C C 0.2603(4) 0.1007(3) 0.3993(3) 0.1053 Uani
C5EE C 0.2397(4) 0.3993(3) 0.6007(3) 0.1053 Uani
C5VD C 0.3993(3) 0.3993(3) 0.7603(4) 0.1053 Uani
C5MD C 0.3993(3) 0.2397(4) 0.6007(3) 0.1053 Uani
C5RD C 0.2397(4) 0.3993(3) 0.3993(3) 0.1053 Uani
C5ED C 0.3993(3) 0.3993(3) 0.2397(4) 0.1053 Uani
C5BE C 0.3993(3) 0.2397(4) 0.3993(3) 0.1053 Uani
C6Y C 0.1116(3) 0.1116(3) 0.7280(4) 0.1373 Uani
C6N C 0.2280(4) 0.1116(3) 0.6116(3) 0.1373 Uani
C6GA C 0.1116(3) 0.2280(4) 0.3884(3) 0.1373 Uani
C6R C 0.1116(3) 0.1116(3) 0.2720(4) 0.1373 Uani
C6C C 0.2280(4) 0.1116(3) 0.3884(3) 0.1373 Uani
C6EE C 0.2720(4) 0.3884(3) 0.6116(3) 0.1373 Uani
C6VD C 0.3884(3) 0.3884(3) 0.7280(4) 0.1373 Uani
C6MD C 0.3884(3) 0.2720(4) 0.6116(3) 0.1373 Uani
C6RD C 0.2720(4) 0.3884(3) 0.3884(3) 0.1373 Uani
C6ED C 0.3884(3) 0.3884(3) 0.2720(4) 0.1373 Uani
C6BE C 0.3884(3) 0.2720(4) 0.3884(3) 0.1373 Uani
C7WF C 0.1136(6) 0.2238(6) 0.6447(5) 0.1373 Uani
C7Y C 0.1136(6) 0.1447(5) 0.7238(6) 0.1373 Uani
C7JF C 0.1447(5) 0.1136(6) 0.7238(6) 0.1373 Uani
C7N C 0.2238(6) 0.1136(6) 0.6447(5) 0.1373 Uani
C7WE C 0.2238(6) 0.1447(5) 0.6136(6) 0.1373 Uani
C7NE C 0.1447(5) 0.2238(6) 0.3864(6) 0.1373 Uani
C7GA C 0.1136(6) 0.2238(6) 0.3553(5) 0.1373 Uani
C7PF C 0.1136(6) 0.1447(5) 0.2762(6) 0.1373 Uani
C7R C 0.1447(5) 0.1136(6) 0.2762(6) 0.1373 Uani
C7HF C 0.2238(6) 0.1136(6) 0.3553(5) 0.1373 Uani
C7C C 0.2238(6) 0.1447(5) 0.3864(6) 0.1373 Uani
C7EE C 0.2762(6) 0.3553(5) 0.6136(6) 0.1373 Uani
C7BC C 0.2762(6) 0.3864(6) 0.6447(5) 0.1373 Uani
C7VD C 0.3553(5) 0.3864(6) 0.7238(6) 0.1373 Uani
C7LB C 0.3864(6) 0.3553(5) 0.7238(6) 0.1373 Uani
C7MD C 0.3864(6) 0.2762(6) 0.6447(5) 0.1373 Uani
C7FC C 0.3553(5) 0.2762(6) 0.6136(6) 0.1373 Uani
C7OC C 0.2762(6) 0.3553(5) 0.3864(6) 0.1373 Uani
C7RD C 0.2762(6) 0.3864(6) 0.3553(5) 0.1373 Uani
C7DC C 0.3553(5) 0.3864(6) 0.2762(6) 0.1373 Uani
C7ED C 0.3864(6) 0.3553(5) 0.2762(6) 0.1373 Uani
C7SB C 0.3864(6) 0.2762(6) 0.3553(5) 0.1373 Uani
C7BE C 0.3553(5) 0.2762(6) 0.3864(6) 0.1373 Uani
H3WF H 0.1066 0.2391 0.6590 0.1650 Uiso
H3JF H 0.1590 0.1066 0.7391 0.1650 Uiso
H3Y H 0.1066 0.1590 0.7391 0.1650 Uiso
H3WE H 0.2391 0.1590 0.6066 0.1650 Uiso
H3N H 0.2391 0.1066 0.6590 0.1650 Uiso
H3NE H 0.1590 0.2391 0.3934 0.1650 Uiso
H3GA H 0.1066 0.2391 0.3410 0.1650 Uiso
H3R H 0.1590 0.1066 0.2609 0.1650 Uiso
H3PF H 0.1066 0.1590 0.2609 0.1650 Uiso
H3C H 0.2391 0.1590 0.3934 0.1650 Uiso
H3HF H 0.2391 0.1066 0.3410 0.1650 Uiso
H3EE H 0.2609 0.3410 0.6066 0.1650 Uiso
H3BC H 0.2609 0.3934 0.6590 0.1650 Uiso
H3LB H 0.3934 0.3410 0.7391 0.1650 Uiso
H3VD H 0.3410 0.3934 0.7391 0.1650 Uiso
H3FC H 0.3410 0.2609 0.6066 0.1650 Uiso
H3MD H 0.3934 0.2609 0.6590 0.1650 Uiso
H3OC H 0.2609 0.3410 0.3934 0.1650 Uiso
H3RD H 0.2609 0.3934 0.3410 0.1650 Uiso
H3ED H 0.3934 0.3410 0.2609 0.1650 Uiso
H3DC H 0.3410 0.3934 0.2609 0.1650 Uiso
H3BE H 0.3410 0.2609 0.3934 0.1650 Uiso
H3SB H 0.3934 0.2609 0.3410 0.1650 Uiso
C8WF C 0.1265(6) 0.1955(5) 0.6543(6) 0.1373 Uani
C8Y C 0.1265(6) 0.1543(6) 0.6955(5) 0.1373 Uani
C8JF C 0.1543(6) 0.1265(6) 0.6955(5) 0.1373 Uani
C8N C 0.1955(5) 0.1265(6) 0.6543(6) 0.1373 Uani
C8WE C 0.1955(5) 0.1543(6) 0.6265(6) 0.1373 Uani
C8NE C 0.1543(6) 0.1955(5) 0.3735(6) 0.1373 Uani
C8GA C 0.1265(6) 0.1955(5) 0.3457(6) 0.1373 Uani
C8PF C 0.1265(6) 0.1543(6) 0.3045(5) 0.1373 Uani
C8R C 0.1543(6) 0.1265(6) 0.3045(5) 0.1373 Uani
C8HF C 0.1955(5) 0.1265(6) 0.3457(6) 0.1373 Uani
C8C C 0.1955(5) 0.1543(6) 0.3735(6) 0.1373 Uani
C8EE C 0.3045(5) 0.3457(6) 0.6265(6) 0.1373 Uani
C8BC C 0.3045(5) 0.3735(6) 0.6543(6) 0.1373 Uani
C8VD C 0.3457(6) 0.3735(6) 0.6955(5) 0.1373 Uani
C8LB C 0.3735(6) 0.3457(6) 0.6955(5) 0.1373 Uani
C8MD C 0.3735(6) 0.3045(5) 0.6543(6) 0.1373 Uani
C8FC C 0.3457(6) 0.3045(5) 0.6265(6) 0.1373 Uani
C8OC C 0.3045(5) 0.3457(6) 0.3735(6) 0.1373 Uani
C8RD C 0.3045(5) 0.3735(6) 0.3457(6) 0.1373 Uani
C8DC C 0.3457(6) 0.3735(6) 0.3045(5) 0.1373 Uani
C8ED C 0.3735(6) 0.3457(6) 0.3045(5) 0.1373 Uani
C8SB C 0.3735(6) 0.3045(5) 0.3457(6) 0.1373 Uani
C8BE C 0.3457(6) 0.3045(5) 0.3735(6) 0.1373 Uani
H4WF H 0.1314 0.1923 0.6756 0.1650 Uiso
H4Y H 0.1314 0.1756 0.6923 0.1650 Uiso
H4JF H 0.1756 0.1314 0.6923 0.1650 Uiso
H4N H 0.1923 0.1314 0.6756 0.1650 Uiso
H4WE H 0.1923 0.1756 0.6314 0.1650 Uiso
H4NE H 0.1756 0.1923 0.3686 0.1650 Uiso
H4GA H 0.1314 0.1923 0.3244 0.1650 Uiso
H4PF H 0.1314 0.1756 0.3077 0.1650 Uiso
H4R H 0.1756 0.1314 0.3077 0.1650 Uiso
H4HF H 0.1923 0.1314 0.3244 0.1650 Uiso
H4C H 0.1923 0.1756 0.3686 0.1650 Uiso
H4EE H 0.3077 0.3244 0.6314 0.1650 Uiso
H4BC H 0.3077 0.3686 0.6756 0.1650 Uiso
H4VD H 0.3244 0.3686 0.6923 0.1650 Uiso
H4LB H 0.3686 0.3244 0.6923 0.1650 Uiso
H4MD H 0.3686 0.3077 0.6756 0.1650 Uiso
H4FC H 0.3244 0.3077 0.6314 0.1650 Uiso
H4OC H 0.3077 0.3244 0.3686 0.1650 Uiso
H4RD H 0.3077 0.3686 0.3244 0.1650 Uiso
H4DC H 0.3244 0.3686 0.3077 0.1650 Uiso
H4ED H 0.3686 0.3244 0.3077 0.1650 Uiso
H4SB H 0.3686 0.3077 0.3244 0.1650 Uiso
H4BE H 0.3244 0.3077 0.3686 0.1650 Uiso
C9WF C 0.1185(8) 0.2059(5) 0.5884(6) 0.1947 Uani
C9JF C 0.0884(6) 0.1185(8) 0.7059(5) 0.1947 Uani
C9Y C 0.1185(8) 0.0884(6) 0.7059(5) 0.1947 Uani
C9WE C 0.2059(5) 0.0884(6) 0.6185(8) 0.1947 Uani
C9N C 0.2059(5) 0.1185(8) 0.5884(6) 0.1947 Uani
C9NE C 0.0884(6) 0.2059(5) 0.3815(8) 0.1947 Uani
C9GA C 0.1185(8) 0.2059(5) 0.4116(6) 0.1947 Uani
C9R C 0.0884(6) 0.1185(8) 0.2941(5) 0.1947 Uani
C9PF C 0.1185(8) 0.0884(6) 0.2941(5) 0.1947 Uani
C9C C 0.2059(5) 0.0884(6) 0.3815(8) 0.1947 Uani
C9HF C 0.2059(5) 0.1185(8) 0.4116(6) 0.1947 Uani
C9EE C 0.2941(5) 0.4116(6) 0.6185(8) 0.1947 Uani
C9BC C 0.2941(5) 0.3815(8) 0.5884(6) 0.1947 Uani
C9LB C 0.3815(8) 0.4116(6) 0.7059(5) 0.1947 Uani
C9VD C 0.4116(6) 0.3815(8) 0.7059(5) 0.1947 Uani
C9FC C 0.4116(6) 0.2941(5) 0.6185(8) 0.1947 Uani
C9MD C 0.3815(8) 0.2941(5) 0.5884(6) 0.1947 Uani
C9OC C 0.2941(5) 0.4116(6) 0.3815(8) 0.1947 Uani
C9RD C 0.2941(5) 0.3815(8) 0.4116(6) 0.1947 Uani
C9ED C 0.3815(8) 0.4116(6) 0.2941(5) 0.1947 Uani
C9DC C 0.4116(6) 0.3815(8) 0.2941(5) 0.1947 Uani
C9BE C 0.4116(6) 0.2941(5) 0.3815(8) 0.1947 Uani
C9SB C 0.3815(8) 0.2941(5) 0.4116(6) 0.1947 Uani
H5WF H 0.1158 0.2100 0.5669 0.2330 Uiso
H5Y H 0.1158 0.0669 0.7100 0.2330 Uiso
H5JF H 0.0669 0.1158 0.7100 0.2330 Uiso
H5N H 0.2100 0.1158 0.5669 0.2330 Uiso
H5WE H 0.2100 0.0669 0.6158 0.2330 Uiso
H5NE H 0.0669 0.2100 0.3842 0.2330 Uiso
H5GA H 0.1158 0.2100 0.4331 0.2330 Uiso
H5PF H 0.1158 0.0669 0.2900 0.2330 Uiso
H5R H 0.0669 0.1158 0.2900 0.2330 Uiso
H5HF H 0.2100 0.1158 0.4331 0.2330 Uiso
H5C H 0.2100 0.0669 0.3842 0.2330 Uiso
H5EE H 0.2900 0.4331 0.6158 0.2330 Uiso
H5BC H 0.2900 0.3842 0.5669 0.2330 Uiso
H5VD H 0.4331 0.3842 0.7100 0.2330 Uiso
H5LB H 0.3842 0.4331 0.7100 0.2330 Uiso
H5MD H 0.3842 0.2900 0.5669 0.2330 Uiso
H5FC H 0.4331 0.2900 0.6158 0.2330 Uiso
H5OC H 0.2900 0.4331 0.3842 0.2330 Uiso
H5RD H 0.2900 0.3842 0.4331 0.2330 Uiso
H5DC H 0.4331 0.3842 0.2900 0.2330 Uiso
H5ED H 0.3842 0.4331 0.2900 0.2330 Uiso
H5SB H 0.3842 0.2900 0.4331 0.2330 Uiso
H5BE H 0.4331 0.2900 0.3842 0.2330 Uiso
C10WF C 0.0998(8) 0.1772(7) 0.6297(5) 0.1947 Uani
C10Y C 0.0998(8) 0.1297(5) 0.6772(7) 0.1947 Uani
C10JF C 0.1297(5) 0.0998(8) 0.6772(7) 0.1947 Uani
C10N C 0.1772(7) 0.0998(8) 0.6297(5) 0.1947 Uani
C10WE C 0.1772(7) 0.1297(5) 0.5998(8) 0.1947 Uani
C10NE C 0.1297(5) 0.1772(7) 0.4002(8) 0.1947 Uani
C10GA C 0.0998(8) 0.1772(7) 0.3703(5) 0.1947 Uani
C10PF C 0.0998(8) 0.1297(5) 0.3228(7) 0.1947 Uani
C10R C 0.1297(5) 0.0998(8) 0.3228(7) 0.1947 Uani
C10HF C 0.1772(7) 0.0998(8) 0.3703(5) 0.1947 Uani
C10C C 0.1772(7) 0.1297(5) 0.4002(8) 0.1947 Uani
C10EE C 0.3228(7) 0.3703(5) 0.5998(8) 0.1947 Uani
C10BC C 0.3228(7) 0.4002(8) 0.6297(5) 0.1947 Uani
C10VD C 0.3703(5) 0.4002(8) 0.6772(7) 0.1947 Uani
C10LB C 0.4002(8) 0.3703(5) 0.6772(7) 0.1947 Uani
C10MD C 0.4002(8) 0.3228(7) 0.6297(5) 0.1947 Uani
C10FC C 0.3703(5) 0.3228(7) 0.5998(8) 0.1947 Uani
C10OC C 0.3228(7) 0.3703(5) 0.4002(8) 0.1947 Uani
C10RD C 0.3228(7) 0.4002(8) 0.3703(5) 0.1947 Uani
C10DC C 0.3703(5) 0.4002(8) 0.3228(7) 0.1947 Uani
C10ED C 0.4002(8) 0.3703(5) 0.3228(7) 0.1947 Uani
C10SB C 0.4002(8) 0.3228(7) 0.3703(5) 0.1947 Uani
C10BE C 0.3703(5) 0.3228(7) 0.4002(8) 0.1947 Uani
H6WF H 0.0856 0.1614 0.6356 0.2330 Uiso
H6Y H 0.0856 0.1356 0.6614 0.2330 Uiso
H6JF H 0.1356 0.0856 0.6614 0.2330 Uiso
H6N H 0.1614 0.0856 0.6356 0.2330 Uiso
H6WE H 0.1614 0.1356 0.5856 0.2330 Uiso
H6NE H 0.1356 0.1614 0.4144 0.2330 Uiso
H6GA H 0.0856 0.1614 0.3644 0.2330 Uiso
H6PF H 0.0856 0.1356 0.3386 0.2330 Uiso
H6R H 0.1356 0.0856 0.3386 0.2330 Uiso
H6HF H 0.1614 0.0856 0.3644 0.2330 Uiso
H6C H 0.1614 0.1356 0.4144 0.2330 Uiso
H6EE H 0.3386 0.3644 0.5856 0.2330 Uiso
H6BC H 0.3386 0.4144 0.6356 0.2330 Uiso
H6VD H 0.3644 0.4144 0.6614 0.2330 Uiso
H6LB H 0.4144 0.3644 0.6614 0.2330 Uiso
H6MD H 0.4144 0.3386 0.6356 0.2330 Uiso
H6FC H 0.3644 0.3386 0.5856 0.2330 Uiso
H6OC H 0.3386 0.3644 0.4144 0.2330 Uiso
H6RD H 0.3386 0.4144 0.3644 0.2330 Uiso
H6DC H 0.3644 0.4144 0.3386 0.2330 Uiso
H6ED H 0.4144 0.3644 0.3386 0.2330 Uiso
H6SB H 0.4144 0.3386 0.3644 0.2330 Uiso
H6BE H 0.3644 0.3386 0.4144 0.2330 Uiso
C11Y C 0.1322(4) 0.1322(4) 0.6716(5) 0.1947 Uani
C11N C 0.1716(5) 0.1322(4) 0.6322(4) 0.1947 Uani
C11GA C 0.1322(4) 0.1716(5) 0.3678(4) 0.1947 Uani
C11R C 0.1322(4) 0.1322(4) 0.3284(5) 0.1947 Uani
C11C C 0.1716(5) 0.1322(4) 0.3678(4) 0.1947 Uani
C11EE C 0.3284(5) 0.3678(4) 0.6322(4) 0.1947 Uani
C11VD C 0.3678(4) 0.3678(4) 0.6716(5) 0.1947 Uani
C11MD C 0.3678(4) 0.3284(5) 0.6322(4) 0.1947 Uani
C11RD C 0.3284(5) 0.3678(4) 0.3678(4) 0.1947 Uani
C11ED C 0.3678(4) 0.3678(4) 0.3284(5) 0.1947 Uani
C11BE C 0.3678(4) 0.3284(5) 0.3678(4) 0.1947 Uani
O1WF O 0.03156(13) 0.30814(14) 0.64730(13) 0.0770 Uani
O1Y O 0.03156(13) 0.14730(13) 0.80814(14) 0.0770 Uani
O1JF O 0.14730(13) 0.03156(13) 0.80814(14) 0.0770 Uani
O1N O 0.30814(14) 0.03156(13) 0.64730(13) 0.0770 Uani
O1WE O 0.30814(14) 0.14730(13) 0.53156(13) 0.0770 Uani
O1NE O 0.14730(13) 0.30814(14) 0.46844(13) 0.0770 Uani
O1GA O 0.03156(13) 0.30814(14) 0.35270(13) 0.0770 Uani
O1PF O 0.03156(13) 0.14730(13) 0.19186(14) 0.0770 Uani
O1R O 0.14730(13) 0.03156(13) 0.19186(14) 0.0770 Uani
O1HF O 0.30814(14) 0.03156(13) 0.35270(13) 0.0770 Uani
O1C O 0.30814(14) 0.14730(13) 0.46844(13) 0.0770 Uani
O1EE O 0.19186(14) 0.35270(13) 0.53156(13) 0.0770 Uani
O1BC O 0.19186(14) 0.46844(13) 0.64730(13) 0.0770 Uani
O1VD O 0.35270(13) 0.46844(13) 0.80814(14) 0.0770 Uani
O1LB O 0.46844(13) 0.35270(13) 0.80814(14) 0.0770 Uani
O1MD O 0.46844(13) 0.19186(14) 0.64730(13) 0.0770 Uani
O1FC O 0.35270(13) 0.19186(14) 0.53156(13) 0.0770 Uani
O1OC O 0.19186(14) 0.35270(13) 0.46844(13) 0.0770 Uani
O1RD O 0.19186(14) 0.46844(13) 0.35270(13) 0.0770 Uani
O1DC O 0.35270(13) 0.46844(13) 0.19186(14) 0.0770 Uani
O1ED O 0.46844(13) 0.35270(13) 0.19186(14) 0.0770 Uani
O1SB O 0.46844(13) 0.19186(14) 0.35270(13) 0.0770 Uani
O1BE O 0.35270(13) 0.19186(14) 0.46844(13) 0.0770 Uani
O1IA O -0.03156(13) 0.30814(14) 0.64730(13) 0.0770 Uani
O1IC O 0.03156(13) 0.35270(13) 0.69186(14) 0.0770 Uani
O1CE O -0.03156(13) 0.35270(13) 0.69186(14) 0.0770 Uani
O1OF O -0.03156(13) 0.14730(13) 0.80814(14) 0.0770 Uani
O1ME O 0.03156(13) 0.19186(14) 0.85270(13) 0.0770 Uani
O1QC O -0.03156(13) 0.19186(14) 0.85270(13) 0.0770 Uani
O1T O 0.14730(13) -0.03156(13) 0.80814(14) 0.0770 Uani
O1LC O 0.19186(14) 0.03156(13) 0.85270(13) 0.0770 Uani
O1DE O 0.19186(14) -0.03156(13) 0.85270(13) 0.0770 Uani
O1FF O 0.30814(14) -0.03156(13) 0.64730(13) 0.0770 Uani
O1JE O 0.35270(13) 0.03156(13) 0.69186(14) 0.0770 Uani
O1PC O 0.35270(13) -0.03156(13) 0.69186(14) 0.0770 Uani
O2WF O 0.03202(13) 0.34526(14) 0.61089(13) 0.0760 Uani
O2Y O 0.03202(13) 0.11089(13) 0.84526(14) 0.0760 Uani
O2JF O 0.11089(13) 0.03202(13) 0.84526(14) 0.0760 Uani
O2N O 0.34526(14) 0.03202(13) 0.61089(13) 0.0760 Uani
O2WE O 0.34526(14) 0.11089(13) 0.53202(13) 0.0760 Uani
O2NE O 0.11089(13) 0.34526(14) 0.46798(13) 0.0760 Uani
O2GA O 0.03202(13) 0.34526(14) 0.38911(13) 0.0760 Uani
O2PF O 0.03202(13) 0.11089(13) 0.15474(14) 0.0760 Uani
O2R O 0.11089(13) 0.03202(13) 0.15474(14) 0.0760 Uani
O2HF O 0.34526(14) 0.03202(13) 0.38911(13) 0.0760 Uani
O2C O 0.34526(14) 0.11089(13) 0.46798(13) 0.0760 Uani
O2EE O 0.15474(14) 0.38911(13) 0.53202(13) 0.0760 Uani
O2BC O 0.15474(14) 0.46798(13) 0.61089(13) 0.0760 Uani
O2VD O 0.38911(13) 0.46798(13) 0.84526(14) 0.0760 Uani
O2LB O 0.46798(13) 0.38911(13) 0.84526(14) 0.0760 Uani
O2MD O 0.46798(13) 0.15474(14) 0.61089(13) 0.0760 Uani
O2FC O 0.38911(13) 0.15474(14) 0.53202(13) 0.0760 Uani
O2OC O 0.15474(14) 0.38911(13) 0.46798(13) 0.0760 Uani
O2RD O 0.15474(14) 0.46798(13) 0.38911(13) 0.0760 Uani
O2DC O 0.38911(13) 0.46798(13) 0.15474(14) 0.0760 Uani
O2ED O 0.46798(13) 0.38911(13) 0.15474(14) 0.0760 Uani
O2SB O 0.46798(13) 0.15474(14) 0.38911(13) 0.0760 Uani
O2BE O 0.38911(13) 0.15474(14) 0.46798(13) 0.0760 Uani
O2IA O -0.03202(13) 0.34526(14) 0.61089(13) 0.0760 Uani
O2IC O 0.03202(13) 0.38911(13) 0.65474(14) 0.0760 Uani
O2CE O -0.03202(13) 0.38911(13) 0.65474(14) 0.0760 Uani
O2OF O -0.03202(13) 0.11089(13) 0.84526(14) 0.0760 Uani
O2ME O 0.03202(13) 0.15474(14) 0.88911(13) 0.0760 Uani
O2QC O -0.03202(13) 0.15474(14) 0.88911(13) 0.0760 Uani
O2T O 0.11089(13) -0.03202(13) 0.84526(14) 0.0760 Uani
O2LC O 0.15474(14) 0.03202(13) 0.88911(13) 0.0760 Uani
O2DE O 0.15474(14) -0.03202(13) 0.88911(13) 0.0760 Uani
O2FF O 0.34526(14) -0.03202(13) 0.61089(13) 0.0760 Uani
O2JE O 0.38911(13) 0.03202(13) 0.65474(14) 0.0760 Uani
O2PC O 0.38911(13) -0.03202(13) 0.65474(14) 0.0760 Uani
O3IA O -0.0000 0.29194(17) 0.70806(17) 0.0880 Uani
O3Y O 0.0000 0.20806(17) 0.79194(17) 0.0880 Uani
O3T O 0.20806(17) 0.0000 0.79194(17) 0.0880 Uani
O3N O 0.29194(17) 0.0000 0.70806(17) 0.0880 Uani
O3C O 0.29194(17) 0.20806(17) 0.5000 0.0880 Uani
O4IA O -0.0000 0.4059(2) 0.5941(2) 0.1277 Uani
O4Y O 0.0000 0.0941(2) 0.9059(2) 0.1277 Uani
O4T O 0.0941(2) 0.0000 0.9059(2) 0.1277 Uani
O4N O 0.4059(2) 0.0000 0.5941(2) 0.1277 Uani
O4C O 0.4059(2) 0.0941(2) 0.5000 0.1277 Uani
N1C N 0.1427(5) 0.1427(5) 0.3573(5) 0.1650 Uani
N1MD N 0.3573(5) 0.3573(5) 0.6427(5) 0.1650 Uani
N1ED N 0.3573(5) 0.3573(5) 0.3573(5) 0.1650 Uani
loop_
_atom_site_aniso_label
_atom_site_aniso_U_11
_atom_site_aniso_U_22
_atom_site_aniso_U_33
_atom_site_aniso_U_23
_atom_site_aniso_U_13
_atom_site_aniso_U_12
Cu1 0.0629(9) 0.0629(9) 0.0541(12) 0.000 0.000 0.0175(10)
Cu2 0.0659(9) 0.0659(9) 0.0587(13) 0.000 0.000 0.0211(10)
C1 0.064(5) 0.079(5) 0.057(5) -0.006(4) 0.006(4) -0.004(4)
C2 0.062(5) 0.091(6) 0.053(5) 0.007(4) 0.002(4) 0.014(4)
C3 0.053(4) 0.091(8) 0.053(4) -0.001(4) -0.001(5) -0.001(4)
C4 0.097(7) 0.120(7) 0.078(6) 0.035(6) 0.031(5) 0.040(6)
C5 0.096(6) 0.124(9) 0.096(6) 0.044(7) 0.034(8) 0.044(7)
C6 0.133(6) 0.146(8) 0.133(6) 0.059(6) 0.032(9) 0.059(6)
C7 0.133(6) 0.146(8) 0.133(6) 0.059(6) 0.032(9) 0.059(6)
C8 0.133(6) 0.146(8) 0.133(6) 0.059(6) 0.032(9) 0.059(6)
C9 0.140(9) 0.174(12) 0.27(2) 0.117(16) 0.103(14) 0.065(8)
C10 0.27 0.174 0.14 0.065 0.103 0.117
C11 0.140(9) 0.174(12) 0.27(2) 0.117(16) 0.103(14) 0.065(8)
O1 0.081(4) 0.085(4) 0.065(4) 0.017(3) 0.020(3) 0.025(3)
O2 0.071(4) 0.085(4) 0.072(4) 0.014(3) 0.021(3) 0.020(3)
O3 0.084(5) 0.084(5) 0.096(9) 0.000 0.000 0.041(6)
O4 0.124(8) 0.124(8) 0.135(13) 0.000 0.000 0.086(9)
N1 0.165(10) 0.165(10) 0.165(10) 0.070(13) 0.070(13) 0.070(13)
Cu1IA 0.0541 0.0629 0.0629 0.0175 0 0
Cu1Y 0.0541 0.0629 0.0629 0.0175 0 0
Cu1T 0.0629 0.0541 0.0629 0 0.0175 0
Cu1N 0.0629 0.0541 0.0629 0 0.0175 0
Cu1C 0.0629 0.0629 0.0541 0 0 0.0175
Cu1GA 0.0541 0.0629 0.0629 -0.0175 0 0
Cu1TA 0.0541 0.0629 0.0629 -0.0175 0 0
Cu1R 0.0629 0.0541 0.0629 0 -0.0175 0
Cu1QA 0.0629 0.0541 0.0629 0 -0.0175 0
Cu1F 0.0629 0.0541 0.0629 0 -0.0175 0
Cu1EA 0.0629 0.0541 0.0629 0 -0.0175 0
Cu1I 0.0541 0.0629 0.0629 -0.0175 0 0
Cu1V 0.0541 0.0629 0.0629 -0.0175 0 0
Cu1H 0.0629 0.0541 0.0629 0 0.0175 0
Cu1B 0.0629 0.0541 0.0629 0 0.0175 0
Cu1K 0.0541 0.0629 0.0629 0.0175 0 0
Cu1A 0.0541 0.0629 0.0629 0.0175 0 0
Cu2IA 0.0587 0.0659 0.0659 0.0211 0 0
Cu2Y 0.0587 0.0659 0.0659 0.0211 0 0
Cu2T 0.0659 0.0587 0.0659 0 0.0211 0
Cu2N 0.0659 0.0587 0.0659 0 0.0211 0
Cu2C 0.0659 0.0659 0.0587 0 0 0.0211
Cu2GA 0.0587 0.0659 0.0659 -0.0211 0 0
Cu2TA 0.0587 0.0659 0.0659 -0.0211 0 0
Cu2R 0.0659 0.0587 0.0659 0 -0.0211 0
Cu2QA 0.0659 0.0587 0.0659 0 -0.0211 0
Cu2F 0.0659 0.0587 0.0659 0 -0.0211 0
Cu2EA 0.0659 0.0587 0.0659 0 -0.0211 0
Cu2I 0.0587 0.0659 0.0659 -0.0211 0 0
Cu2V 0.0587 0.0659 0.0659 -0.0211 0 0
Cu2H 0.0659 0.0587 0.0659 0 0.0211 0
Cu2B 0.0659 0.0587 0.0659 0 0.0211 0
Cu2K 0.0587 0.0659 0.0659 0.0211 0 0
Cu2A 0.0587 0.0659 0.0659 0.0211 0 0
C1WF 0.057 0.079 0.064 -0.004 0.006 -0.006
C1Y 0.057 0.064 0.079 -0.004 -0.006 0.006
C1JF 0.064 0.057 0.079 -0.006 -0.004 0.006
C1N 0.079 0.057 0.064 0.006 -0.004 -0.006
C1WE 0.079 0.064 0.057 0.006 -0.006 -0.004
C1NE 0.064 0.079 0.057 0.006 -0.006 -0.004
C1GA 0.057 0.079 0.064 0.004 -0.006 -0.006
C1PF 0.057 0.064 0.079 0.004 0.006 0.006
C1R 0.064 0.057 0.079 0.006 0.004 0.006
C1HF 0.079 0.057 0.064 -0.006 0.004 -0.006
C1C 0.079 0.064 0.057 -0.006 0.006 -0.004
C1EE 0.079 0.064 0.057 -0.006 0.006 -0.004
C1BC 0.079 0.057 0.064 -0.006 0.004 -0.006
C1VD 0.064 0.057 0.079 0.006 0.004 0.006
C1LB 0.057 0.064 0.079 0.004 0.006 0.006
C1MD 0.057 0.079 0.064 0.004 -0.006 -0.006
C1FC 0.064 0.079 0.057 0.006 -0.006 -0.004
C1OC 0.079 0.064 0.057 0.006 -0.006 -0.004
C1RD 0.079 0.057 0.064 0.006 -0.004 -0.006
C1DC 0.064 0.057 0.079 -0.006 -0.004 0.006
C1ED 0.057 0.064 0.079 -0.004 -0.006 0.006
C1SB 0.057 0.079 0.064 -0.004 0.006 -0.006
C1BE 0.064 0.079 0.057 -0.006 0.006 -0.004
C2WF 0.053 0.091 0.062 0.014 0.002 0.007
C2Y 0.053 0.062 0.091 0.014 0.007 0.002
C2JF 0.062 0.053 0.091 0.007 0.014 0.002
C2N 0.091 0.053 0.062 0.002 0.014 0.007
C2WE 0.091 0.062 0.053 0.002 0.007 0.014
C2NE 0.062 0.091 0.053 -0.007 -0.002 0.014
C2GA 0.053 0.091 0.062 -0.014 -0.002 0.007
C2PF 0.053 0.062 0.091 -0.014 -0.007 0.002
C2R 0.062 0.053 0.091 -0.007 -0.014 0.002
C2HF 0.091 0.053 0.062 -0.002 -0.014 0.007
C2C 0.091 0.062 0.053 -0.002 -0.007 0.014
C2EE 0.091 0.062 0.053 -0.002 -0.007 0.014
C2BC 0.091 0.053 0.062 -0.002 -0.014 0.007
C2VD 0.062 0.053 0.091 -0.007 -0.014 0.002
C2LB 0.053 0.062 0.091 -0.014 -0.007 0.002
C2MD 0.053 0.091 0.062 -0.014 -0.002 0.007
C2FC 0.062 0.091 0.053 -0.007 -0.002 0.014
C2OC 0.091 0.062 0.053 0.002 0.007 0.014
C2RD 0.091 0.053 0.062 0.002 0.014 0.007
C2DC 0.062 0.053 0.091 0.007 0.014 0.002
C2ED 0.053 0.062 0.091 0.014 0.007 0.002
C2SB 0.053 0.091 0.062 0.014 0.002 0.007
C2BE 0.062 0.091 0.053 0.007 0.002 0.014
C3Y 0.053 0.053 0.091 -0.001 -0.001 -0.001
C3N 0.091 0.053 0.053 -0.001 -0.001 -0.001
C3GA 0.053 0.091 0.053 0.001 0.001 -0.001
C3R 0.053 0.053 0.091 0.001 0.001 -0.001
C3C 0.091 0.053 0.053 0.001 0.001 -0.001
C3EE 0.091 0.053 0.053 0.001 0.001 -0.001
C3VD 0.053 0.053 0.091 0.001 0.001 -0.001
C3MD 0.053 0.091 0.053 0.001 0.001 -0.001
C3RD 0.091 0.053 0.053 -0.001 -0.001 -0.001
C3ED 0.053 0.053 0.091 -0.001 -0.001 -0.001
C3BE 0.053 0.091 0.053 -0.001 -0.001 -0.001
C4WF 0.078 0.12 0.097 0.04 0.031 0.035
C4Y 0.078 0.097 0.12 0.04 0.035 0.031
C4JF 0.097 0.078 0.12 0.035 0.04 0.031
C4N 0.12 0.078 0.097 0.031 0.04 0.035
C4WE 0.12 0.097 0.078 0.031 0.035 0.04
C4NE 0.097 0.12 0.078 -0.035 -0.031 0.04
C4GA 0.078 0.12 0.097 -0.04 -0.031 0.035
C4PF 0.078 0.097 0.12 -0.04 -0.035 0.031
C4R 0.097 0.078 0.12 -0.035 -0.04 0.031
C4HF 0.12 0.078 0.097 -0.031 -0.04 0.035
C4C 0.12 0.097 0.078 -0.031 -0.035 0.04
C4EE 0.12 0.097 0.078 -0.031 -0.035 0.04
C4BC 0.12 0.078 0.097 -0.031 -0.04 0.035
C4VD 0.097 0.078 0.12 -0.035 -0.04 0.031
C4LB 0.078 0.097 0.12 -0.04 -0.035 0.031
C4MD 0.078 0.12 0.097 -0.04 -0.031 0.035
C4FC 0.097 0.12 0.078 -0.035 -0.031 0.04
C4OC 0.12 0.097 0.078 0.031 0.035 0.04
C4RD 0.12 0.078 0.097 0.031 0.04 0.035
C4DC 0.097 0.078 0.12 0.035 0.04 0.031
C4ED 0.078 0.097 0.12 0.04 0.035 0.031
C4SB 0.078 0.12 0.097 0.04 0.031 0.035
C4BE 0.097 0.12 0.078 0.035 0.031 0.04
C5Y 0.096 0.096 0.124 0.044 0.044 0.034
C5N 0.124 0.096 0.096 0.034 0.044 0.044
C5GA 0.096 0.124 0.096 -0.044 -0.034 0.044
C5R 0.096 0.096 0.124 -0.044 -0.044 0.034
C5C 0.124 0.096 0.096 -0.034 -0.044 0.044
C5EE 0.124 0.096 0.096 -0.034 -0.044 0.044
C5VD 0.096 0.096 0.124 -0.044 -0.044 0.034
C5MD 0.096 0.124 0.096 -0.044 -0.034 0.044
C5RD 0.124 0.096 0.096 0.034 0.044 0.044
C5ED 0.096 0.096 0.124 0.044 0.044 0.034
C5BE 0.096 0.124 0.096 0.044 0.034 0.044
C6Y 0.133 0.133 0.146 0.059 0.059 0.032
C6N 0.146 0.133 0.133 0.032 0.059 0.059
C6GA 0.133 0.146 0.133 -0.059 -0.032 0.059
C6R 0.133 0.133 0.146 -0.059 -0.059 0.032
C6C 0.146 0.133 0.133 -0.032 -0.059 0.059
C6EE 0.146 0.133 0.133 -0.032 -0.059 0.059
C6VD 0.133 0.133 0.146 -0.059 -0.059 0.032
C6MD 0.133 0.146 0.133 -0.059 -0.032 0.059
C6RD 0.146 0.133 0.133 0.032 0.059 0.059
C6ED 0.133 0.133 0.146 0.059 0.059 0.032
C6BE 0.133 0.146 0.133 0.059 0.032 0.059
C7WF 0.133 0.146 0.133 0.059 0.032 0.059
C7Y 0.133 0.133 0.146 0.059 0.059 0.032
C7JF 0.133 0.133 0.146 0.059 0.059 0.032
C7N 0.146 0.133 0.133 0.032 0.059 0.059
C7WE 0.146 0.133 0.133 0.032 0.059 0.059
C7NE 0.133 0.146 0.133 -0.059 -0.032 0.059
C7GA 0.133 0.146 0.133 -0.059 -0.032 0.059
C7PF 0.133 0.133 0.146 -0.059 -0.059 0.032
C7R 0.133 0.133 0.146 -0.059 -0.059 0.032
C7HF 0.146 0.133 0.133 -0.032 -0.059 0.059
C7C 0.146 0.133 0.133 -0.032 -0.059 0.059
C7EE 0.146 0.133 0.133 -0.032 -0.059 0.059
C7BC 0.146 0.133 0.133 -0.032 -0.059 0.059
C7VD 0.133 0.133 0.146 -0.059 -0.059 0.032
C7LB 0.133 0.133 0.146 -0.059 -0.059 0.032
C7MD 0.133 0.146 0.133 -0.059 -0.032 0.059
C7FC 0.133 0.146 0.133 -0.059 -0.032 0.059
C7OC 0.146 0.133 0.133 0.032 0.059 0.059
C7RD 0.146 0.133 0.133 0.032 0.059 0.059
C7DC 0.133 0.133 0.146 0.059 0.059 0.032
C7ED 0.133 0.133 0.146 0.059 0.059 0.032
C7SB 0.133 0.146 0.133 0.059 0.032 0.059
C7BE 0.133 0.146 0.133 0.059 0.032 0.059
C8WF 0.133 0.146 0.133 0.059 0.032 0.059
C8Y 0.133 0.133 0.146 0.059 0.059 0.032
C8JF 0.133 0.133 0.146 0.059 0.059 0.032
C8N 0.146 0.133 0.133 0.032 0.059 0.059
C8WE 0.146 0.133 0.133 0.032 0.059 0.059
C8NE 0.133 0.146 0.133 -0.059 -0.032 0.059
C8GA 0.133 0.146 0.133 -0.059 -0.032 0.059
C8PF 0.133 0.133 0.146 -0.059 -0.059 0.032
C8R 0.133 0.133 0.146 -0.059 -0.059 0.032
C8HF 0.146 0.133 0.133 -0.032 -0.059 0.059
C8C 0.146 0.133 0.133 -0.032 -0.059 0.059
C8EE 0.146 0.133 0.133 -0.032 -0.059 0.059
C8BC 0.146 0.133 0.133 -0.032 -0.059 0.059
C8VD 0.133 0.133 0.146 -0.059 -0.059 0.032
C8LB 0.133 0.133 0.146 -0.059 -0.059 0.032
C8MD 0.133 0.146 0.133 -0.059 -0.032 0.059
C8FC 0.133 0.146 0.133 -0.059 -0.032 0.059
C8OC 0.146 0.133 0.133 0.032 0.059 0.059
C8RD 0.146 0.133 0.133 0.032 0.059 0.059
C8DC 0.133 0.133 0.146 0.059 0.059 0.032
C8ED 0.133 0.133 0.146 0.059 0.059 0.032
C8SB 0.133 0.146 0.133 0.059 0.032 0.059
C8BE 0.133 0.146 0.133 0.059 0.032 0.059
C9WF 0.27 0.174 0.14 0.065 0.103 0.117
C9JF 0.14 0.27 0.174 0.117 0.065 0.103
C9Y 0.27 0.14 0.174 0.065 0.117 0.103
C9WE 0.174 0.14 0.27 0.103 0.117 0.065
C9N 0.174 0.27 0.14 0.103 0.065 0.117
C9NE 0.14 0.174 0.27 -0.117 -0.103 0.065
C9GA 0.27 0.174 0.14 -0.065 -0.103 0.117
C9R 0.14 0.27 0.174 -0.117 -0.065 0.103
C9PF 0.27 0.14 0.174 -0.065 -0.117 0.103
C9C 0.174 0.14 0.27 -0.103 -0.117 0.065
C9HF 0.174 0.27 0.14 -0.103 -0.065 0.117
C9EE 0.174 0.14 0.27 -0.103 -0.117 0.065
C9BC 0.174 0.27 0.14 -0.103 -0.065 0.117
C9LB 0.27 0.14 0.174 -0.065 -0.117 0.103
C9VD 0.14 0.27 0.174 -0.117 -0.065 0.103
C9FC 0.14 0.174 0.27 -0.117 -0.103 0.065
C9MD 0.27 0.174 0.14 -0.065 -0.103 0.117
C9OC 0.174 0.14 0.27 0.103 0.117 0.065
C9RD 0.174 0.27 0.14 0.103 0.065 0.117
C9ED 0.27 0.14 0.174 0.065 0.117 0.103
C9DC 0.14 0.27 0.174 0.117 0.065 0.103
C9BE 0.14 0.174 0.27 0.117 0.103 0.065
C9SB 0.27 0.174 0.14 0.065 0.103 0.117
C10WF 0.140(9) 0.174(12) 0.27(2) 0.117(16) 0.103(14) 0.065(8)
C10Y 0.14 0.27 0.174 0.117 0.065 0.103
C10JF 0.27 0.14 0.174 0.065 0.117 0.103
C10N 0.174 0.14 0.27 0.103 0.117 0.065
C10WE 0.174 0.27 0.14 0.103 0.065 0.117
C10NE 0.27 0.174 0.14 -0.065 -0.103 0.117
C10GA 0.14 0.174 0.27 -0.117 -0.103 0.065
C10PF 0.14 0.27 0.174 -0.117 -0.065 0.103
C10R 0.27 0.14 0.174 -0.065 -0.117 0.103
C10HF 0.174 0.14 0.27 -0.103 -0.117 0.065
C10C 0.174 0.27 0.14 -0.103 -0.065 0.117
C10EE 0.174 0.27 0.14 -0.103 -0.065 0.117
C10BC 0.174 0.14 0.27 -0.103 -0.117 0.065
C10VD 0.27 0.14 0.174 -0.065 -0.117 0.103
C10LB 0.14 0.27 0.174 -0.117 -0.065 0.103
C10MD 0.14 0.174 0.27 -0.117 -0.103 0.065
C10FC 0.27 0.174 0.14 -0.065 -0.103 0.117
C10OC 0.174 0.27 0.14 0.103 0.065 0.117
C10RD 0.174 0.14 0.27 0.103 0.117 0.065
C10DC 0.27 0.14 0.174 0.065 0.117 0.103
C10ED 0.14 0.27 0.174 0.117 0.065 0.103
C10SB 0.14 0.174 0.27 0.117 0.103 0.065
C10BE 0.27 0.174 0.14 0.065 0.103 0.117
C11Y 0.27 0.14 0.174 0.065 0.117 0.103
C11N 0.174 0.27 0.14 0.103 0.065 0.117
C11GA 0.27 0.174 0.14 -0.065 -0.103 0.117
C11R 0.14 0.27 0.174 -0.117 -0.065 0.103
C11C 0.174 0.14 0.27 -0.103 -0.117 0.065
C11EE 0.174 0.27 0.14 -0.103 -0.065 0.117
C11VD 0.27 0.14 0.174 -0.065 -0.117 0.103
C11MD 0.14 0.174 0.27 -0.117 -0.103 0.065
C11RD 0.174 0.14 0.27 0.103 0.117 0.065
C11ED 0.14 0.27 0.174 0.117 0.065 0.103
C11BE 0.27 0.174 0.14 0.065 0.103 0.117
O1WF 0.065 0.085 0.081 0.025 0.02 0.017
O1Y 0.065 0.081 0.085 0.025 0.017 0.02
O1JF 0.081 0.065 0.085 0.017 0.025 0.02
O1N 0.085 0.065 0.081 0.02 0.025 0.017
O1WE 0.085 0.081 0.065 0.02 0.017 0.025
O1NE 0.081 0.085 0.065 -0.017 -0.02 0.025
O1GA 0.065 0.085 0.081 -0.025 -0.02 0.017
O1PF 0.065 0.081 0.085 -0.025 -0.017 0.02
O1R 0.081 0.065 0.085 -0.017 -0.025 0.02
O1HF 0.085 0.065 0.081 -0.02 -0.025 0.017
O1C 0.085 0.081 0.065 -0.02 -0.017 0.025
O1EE 0.085 0.081 0.065 -0.02 -0.017 0.025
O1BC 0.085 0.065 0.081 -0.02 -0.025 0.017
O1VD 0.081 0.065 0.085 -0.017 -0.025 0.02
O1LB 0.065 0.081 0.085 -0.025 -0.017 0.02
O1MD 0.065 0.085 0.081 -0.025 -0.02 0.017
O1FC 0.081 0.085 0.065 -0.017 -0.02 0.025
O1OC 0.085 0.081 0.065 0.02 0.017 0.025
O1RD 0.085 0.065 0.081 0.02 0.025 0.017
O1DC 0.081 0.065 0.085 0.017 0.025 0.02
O1ED 0.065 0.081 0.085 0.025 0.017 0.02
O1SB 0.065 0.085 0.081 0.025 0.02 0.017
O1BE 0.081 0.085 0.065 0.017 0.02 0.025
O1IA 0.065 0.085 0.081 0.025 -0.02 -0.017
O1IC 0.065 0.081 0.085 0.025 -0.017 -0.02
O1CE 0.065 0.081 0.085 0.025 0.017 0.02
O1OF 0.065 0.081 0.085 0.025 -0.017 -0.02
O1ME 0.065 0.085 0.081 0.025 -0.02 -0.017
O1QC 0.065 0.085 0.081 0.025 0.02 0.017
O1T 0.081 0.065 0.085 -0.017 0.025 -0.02
O1LC 0.085 0.065 0.081 -0.02 0.025 -0.017
O1DE 0.085 0.065 0.081 0.02 0.025 0.017
O1FF 0.085 0.065 0.081 -0.02 0.025 -0.017
O1JE 0.081 0.065 0.085 -0.017 0.025 -0.02
O1PC 0.081 0.065 0.085 0.017 0.025 0.02
O2WF 0.072 0.085 0.071 0.02 0.021 0.014
O2Y 0.072 0.071 0.085 0.02 0.014 0.021
O2JF 0.071 0.072 0.085 0.014 0.02 0.021
O2N 0.085 0.072 0.071 0.021 0.02 0.014
O2WE 0.085 0.071 0.072 0.021 0.014 0.02
O2NE 0.071 0.085 0.072 -0.014 -0.021 0.02
O2GA 0.072 0.085 0.071 -0.02 -0.021 0.014
O2PF 0.072 0.071 0.085 -0.02 -0.014 0.021
O2R 0.071 0.072 0.085 -0.014 -0.02 0.021
O2HF 0.085 0.072 0.071 -0.021 -0.02 0.014
O2C 0.085 0.071 0.072 -0.021 -0.014 0.02
O2EE 0.085 0.071 0.072 -0.021 -0.014 0.02
O2BC 0.085 0.072 0.071 -0.021 -0.02 0.014
O2VD 0.071 0.072 0.085 -0.014 -0.02 0.021
O2LB 0.072 0.071 0.085 -0.02 -0.014 0.021
O2MD 0.072 0.085 0.071 -0.02 -0.021 0.014
O2FC 0.071 0.085 0.072 -0.014 -0.021 0.02
O2OC 0.085 0.071 0.072 0.021 0.014 0.02
O2RD 0.085 0.072 0.071 0.021 0.02 0.014
O2DC 0.071 0.072 0.085 0.014 0.02 0.021
O2ED 0.072 0.071 0.085 0.02 0.014 0.021
O2SB 0.072 0.085 0.071 0.02 0.021 0.014
O2BE 0.071 0.085 0.072 0.014 0.021 0.02
O2IA 0.072 0.085 0.071 0.02 -0.021 -0.014
O2IC 0.072 0.071 0.085 0.02 -0.014 -0.021
O2CE 0.072 0.071 0.085 0.02 0.014 0.021
O2OF 0.072 0.071 0.085 0.02 -0.014 -0.021
O2ME 0.072 0.085 0.071 0.02 -0.021 -0.014
O2QC 0.072 0.085 0.071 0.02 0.021 0.014
O2T 0.071 0.072 0.085 -0.014 0.02 -0.021
O2LC 0.085 0.072 0.071 -0.021 0.02 -0.014
O2DE 0.085 0.072 0.071 0.021 0.02 0.014
O2FF 0.085 0.072 0.071 -0.021 0.02 -0.014
O2JE 0.071 0.072 0.085 -0.014 0.02 -0.021
O2PC 0.071 0.072 0.085 0.014 0.02 0.021
O3IA 0.096 0.084 0.084 0.041 0 0
O3Y 0.096 0.084 0.084 0.041 0 0
O3T 0.084 0.096 0.084 0 0.041 0
O3N 0.084 0.096 0.084 0 0.041 0
O3C 0.084 0.084 0.096 0 0 0.041
O4IA 0.135 0.124 0.124 0.086 0 0
O4Y 0.135 0.124 0.124 0.086 0 0
O4T 0.124 0.135 0.124 0 0.086 0
O4N 0.124 0.135 0.124 0 0.086 0
O4C 0.124 0.124 0.135 0 0 0.086
N1C 0.165 0.165 0.165 -0.07 -0.07 0.07
N1MD 0.165 0.165 0.165 -0.07 -0.07 0.07
N1ED 0.165 0.165 0.165 0.07 0.07 0.07
loop_
_geom_bond_atom_site_label_1
_geom_bond_atom_site_label_2
_geom_bond_site_symmetry_1
_geom_bond_site_symmetry_2
Cu1 O1 1_555 1_555
Cu2 O2 1_555 1_555
C1 C2 1_555 1_555
C2 C3 1_555 1_555
C3 H1 1_555 1_555
C4 C2 1_555 1_555
H2 C4 1_555 1_555
C5 C4 1_555 1_555
C6 C5 1_555 1_555
C7 C6 1_555 1_555
H3 C7 1_555 1_555
C8 C7 1_555 1_555
H4 C8 1_555 1_555
C9 C6 1_555 1_555
H5 C9 1_555 1_555
C10 C8 1_555 1_555
H6 C10 1_555 1_555
C11 C8 1_555 1_555
O1 C1 1_555 1_555
O2 C1 1_555 1_555
O3 Cu1 1_555 1_555
O4 Cu2 1_555 1_555
N1 C11 1_555 1_555
Cu1IA O1WF 1_555 1_555
Cu1Y O1Y 1_555 1_555
Cu1T O1JF 1_555 1_555
Cu1N O1N 1_555 1_555
Cu1C O1WE 1_555 1_555
Cu1GA O1GA 1_555 1_555
Cu1TA O1PF 1_555 1_555
Cu1R O1R 1_555 1_555
Cu1QA O1HF 1_555 1_555
Cu1F O1BC 1_555 1_555
Cu1EA O1VD 1_555 1_555
Cu1I O1LB 1_555 1_555
Cu1V O1MD 1_555 1_555
Cu1H O1RD 1_555 1_555
Cu1B O1DC 1_555 1_555
Cu1K O1ED 1_555 1_555
Cu1A O1SB 1_555 1_555
Cu2IA O2WF 1_555 1_555
Cu2Y O2Y 1_555 1_555
Cu2T O2JF 1_555 1_555
Cu2N O2N 1_555 1_555
Cu2C O2WE 1_555 1_555
Cu2GA O2GA 1_555 1_555
Cu2TA O2PF 1_555 1_555
Cu2R O2R 1_555 1_555
Cu2QA O2HF 1_555 1_555
Cu2F O2BC 1_555 1_555
Cu2EA O2VD 1_555 1_555
Cu2I O2LB 1_555 1_555
Cu2V O2MD 1_555 1_555
Cu2H O2RD 1_555 1_555
Cu2B O2DC 1_555 1_555
Cu2K O2ED 1_555 1_555
Cu2A O2SB 1_555 1_555
C1WF C2WF 1_555 1_555
C1Y C2Y 1_555 1_555
C1JF C2JF 1_555 1_555
C1N C2N 1_555 1_555
C1WE C2WE 1_555 1_555
C1NE C2NE 1_555 1_555
C1GA C2GA 1_555 1_555
C1PF C2PF 1_555 1_555
C1R C2R 1_555 1_555
C1HF C2HF 1_555 1_555
C1C C2C 1_555 1_555
C1EE C2EE 1_555 1_555
C1BC C2BC 1_555 1_555
C1VD C2VD 1_555 1_555
C1LB C2LB 1_555 1_555
C1MD C2MD 1_555 1_555
C1FC C2FC 1_555 1_555
C1OC C2OC 1_555 1_555
C1RD C2RD 1_555 1_555
C1DC C2DC 1_555 1_555
C1ED C2ED 1_555 1_555
C1SB C2SB 1_555 1_555
C1BE C2BE 1_555 1_555
C2WF C3 1_555 1_555
C2Y C3Y 1_555 1_555
C2JF C3Y 1_555 1_555
C2N C3N 1_555 1_555
C2WE C3N 1_555 1_555
C2NE C3GA 1_555 1_555
C2GA C3GA 1_555 1_555
C2PF C3R 1_555 1_555
C2R C3R 1_555 1_555
C2HF C3C 1_555 1_555
C2C C3C 1_555 1_555
C2EE C3EE 1_555 1_555
C2BC C3EE 1_555 1_555
C2VD C3VD 1_555 1_555
C2LB C3VD 1_555 1_555
C2MD C3MD 1_555 1_555
C2FC C3MD 1_555 1_555
C2OC C3RD 1_555 1_555
C2RD C3RD 1_555 1_555
C2DC C3ED 1_555 1_555
C2ED C3ED 1_555 1_555
C2SB C3BE 1_555 1_555
C2BE C3BE 1_555 1_555
C3Y H1Y 1_555 1_555
C3N H1N 1_555 1_555
C3GA H1GA 1_555 1_555
C3R H1R 1_555 1_555
C3C H1C 1_555 1_555
C3EE H1EE 1_555 1_555
C3VD H1VD 1_555 1_555
C3MD H1MD 1_555 1_555
C3RD H1RD 1_555 1_555
C3ED H1ED 1_555 1_555
C3BE H1BE 1_555 1_555
C4WF C5 1_555 1_555
C4Y C2Y 1_555 1_555
C4JF C2JF 1_555 1_555
C4N C2N 1_555 1_555
C4WE C2WE 1_555 1_555
C4NE C2NE 1_555 1_555
C4GA C2GA 1_555 1_555
C4PF C2PF 1_555 1_555
C4R C2R 1_555 1_555
C4HF C2HF 1_555 1_555
C4C C2C 1_555 1_555
C4EE C2EE 1_555 1_555
C4BC C2BC 1_555 1_555
C4VD C2VD 1_555 1_555
C4LB C2LB 1_555 1_555
C4MD C2MD 1_555 1_555
C4FC C2FC 1_555 1_555
C4OC C2OC 1_555 1_555
C4RD C2RD 1_555 1_555
C4DC C2DC 1_555 1_555
C4ED C2ED 1_555 1_555
C4SB C2SB 1_555 1_555
C4BE C2BE 1_555 1_555
H2WF C4WF 1_555 1_555
H2Y C4Y 1_555 1_555
H2JF C4JF 1_555 1_555
H2N C4N 1_555 1_555
H2WE C4WE 1_555 1_555
H2NE C4NE 1_555 1_555
H2GA C4GA 1_555 1_555
H2PF C4PF 1_555 1_555
H2R C4R 1_555 1_555
H2HF C4HF 1_555 1_555
H2C C4C 1_555 1_555
H2EE C4EE 1_555 1_555
H2BC C4BC 1_555 1_555
H2VD C4VD 1_555 1_555
H2LB C4LB 1_555 1_555
H2MD C4MD 1_555 1_555
H2FC C4FC 1_555 1_555
H2OC C4OC 1_555 1_555
H2RD C4RD 1_555 1_555
H2DC C4DC 1_555 1_555
H2ED C4ED 1_555 1_555
H2SB C4SB 1_555 1_555
H2BE C4BE 1_555 1_555
C5Y C4Y 1_555 1_555
C5N C4N 1_555 1_555
C5GA C4NE 1_555 1_555
C5R C4PF 1_555 1_555
C5C C4HF 1_555 1_555
C5EE C4EE 1_555 1_555
C5VD C4VD 1_555 1_555
C5MD C4MD 1_555 1_555
C5RD C4OC 1_555 1_555
C5ED C4DC 1_555 1_555
C5BE C4SB 1_555 1_555
C6Y C5Y 1_555 1_555
C6N C5N 1_555 1_555
C6GA C5GA 1_555 1_555
C6R C5R 1_555 1_555
C6C C5C 1_555 1_555
C6EE C5EE 1_555 1_555
C6VD C5VD 1_555 1_555
C6MD C5MD 1_555 1_555
C6RD C5RD 1_555 1_555
C6ED C5ED 1_555 1_555
C6BE C5BE 1_555 1_555
C7WF C6 1_555 1_555
C7Y C6Y 1_555 1_555
C7JF C6Y 1_555 1_555
C7N C6N 1_555 1_555
C7WE C6N 1_555 1_555
C7NE C6GA 1_555 1_555
C7GA C6GA 1_555 1_555
C7PF C6R 1_555 1_555
C7R C6R 1_555 1_555
C7HF C6C 1_555 1_555
C7C C6C 1_555 1_555
C7EE C6EE 1_555 1_555
C7BC C6EE 1_555 1_555
C7VD C6VD 1_555 1_555
C7LB C6VD 1_555 1_555
C7MD C6MD 1_555 1_555
C7FC C6MD 1_555 1_555
C7OC C6RD 1_555 1_555
C7RD C6RD 1_555 1_555
C7DC C6ED 1_555 1_555
C7ED C6ED 1_555 1_555
C7SB C6BE 1_555 1_555
C7BE C6BE 1_555 1_555
H3WF C7WF 1_555 1_555
H3JF C7JF 1_555 1_555
H3Y C7Y 1_555 1_555
H3WE C7WE 1_555 1_555
H3N C7N 1_555 1_555
H3NE C7NE 1_555 1_555
H3GA C7GA 1_555 1_555
H3R C7R 1_555 1_555
H3PF C7PF 1_555 1_555
H3C C7C 1_555 1_555
H3HF C7HF 1_555 1_555
H3EE C7EE 1_555 1_555
H3BC C7BC 1_555 1_555
H3LB C7LB 1_555 1_555
H3VD C7VD 1_555 1_555
H3FC C7FC 1_555 1_555
H3MD C7MD 1_555 1_555
H3OC C7OC 1_555 1_555
H3RD C7RD 1_555 1_555
H3ED C7ED 1_555 1_555
H3DC C7DC 1_555 1_555
H3BE C7BE 1_555 1_555
H3SB C7SB 1_555 1_555
C8WF C8 1_555 1_555
C8Y C7Y 1_555 1_555
C8JF C7JF 1_555 1_555
C8N C7N 1_555 1_555
C8WE C7WE 1_555 1_555
C8NE C7NE 1_555 1_555
C8GA C7GA 1_555 1_555
C8PF C7PF 1_555 1_555
C8R C7R 1_555 1_555
C8HF C7HF 1_555 1_555
C8C C7C 1_555 1_555
C8EE C7EE 1_555 1_555
C8BC C7BC 1_555 1_555
C8VD C7VD 1_555 1_555
C8LB C7LB 1_555 1_555
C8MD C7MD 1_555 1_555
C8FC C7FC 1_555 1_555
C8OC C7OC 1_555 1_555
C8RD C7RD 1_555 1_555
C8DC C7DC 1_555 1_555
C8ED C7ED 1_555 1_555
C8SB C7SB 1_555 1_555
C8BE C7BE 1_555 1_555
H4WF C8WF 1_555 1_555
H4Y C8Y 1_555 1_555
H4JF C8JF 1_555 1_555
H4N C8N 1_555 1_555
H4WE C8WE 1_555 1_555
H4NE C8NE 1_555 1_555
H4GA C8GA 1_555 1_555
H4PF C8PF 1_555 1_555
H4R C8R 1_555 1_555
H4HF C8HF 1_555 1_555
H4C C8C 1_555 1_555
H4EE C8EE 1_555 1_555
H4BC C8BC 1_555 1_555
H4VD C8VD 1_555 1_555
H4LB C8LB 1_555 1_555
H4MD C8MD 1_555 1_555
H4FC C8FC 1_555 1_555
H4OC C8OC 1_555 1_555
H4RD C8RD 1_555 1_555
H4DC C8DC 1_555 1_555
H4ED C8ED 1_555 1_555
H4SB C8SB 1_555 1_555
H4BE C8BE 1_555 1_555
C9WF C6 1_555 1_555
C9JF C6Y 1_555 1_555
C9Y C6Y 1_555 1_555
C9WE C6N 1_555 1_555
C9N C6N 1_555 1_555
C9NE C6GA 1_555 1_555
C9GA C6GA 1_555 1_555
C9R C6R 1_555 1_555
C9PF C6R 1_555 1_555
C9C C6C 1_555 1_555
C9HF C6C 1_555 1_555
C9EE C6EE 1_555 1_555
C9BC C6EE 1_555 1_555
C9LB C6VD 1_555 1_555
C9VD C6VD 1_555 1_555
C9FC C6MD 1_555 1_555
C9MD C6MD 1_555 1_555
C9OC C6RD 1_555 1_555
C9RD C6RD 1_555 1_555
C9ED C6ED 1_555 1_555
C9DC C6ED 1_555 1_555
C9BE C6BE 1_555 1_555
C9SB C6BE 1_555 1_555
H5WF C9WF 1_555 1_555
H5Y C9Y 1_555 1_555
H5JF C9JF 1_555 1_555
H5N C9N 1_555 1_555
H5WE C9WE 1_555 1_555
H5NE C9NE 1_555 1_555
H5GA C9GA 1_555 1_555
H5PF C9PF 1_555 1_555
H5R C9R 1_555 1_555
H5HF C9HF 1_555 1_555
H5C C9C 1_555 1_555
H5EE C9EE 1_555 1_555
H5BC C9BC 1_555 1_555
H5VD C9VD 1_555 1_555
H5LB C9LB 1_555 1_555
H5MD C9MD 1_555 1_555
H5FC C9FC 1_555 1_555
H5OC C9OC 1_555 1_555
H5RD C9RD 1_555 1_555
H5DC C9DC 1_555 1_555
H5ED C9ED 1_555 1_555
H5SB C9SB 1_555 1_555
H5BE C9BE 1_555 1_555
C10WF C9 1_555 1_555
C10Y C8Y 1_555 1_555
C10JF C8JF 1_555 1_555
C10N C8N 1_555 1_555
C10WE C8WE 1_555 1_555
C10NE C8NE 1_555 1_555
C10GA C8GA 1_555 1_555
C10PF C8PF 1_555 1_555
C10R C8R 1_555 1_555
C10HF C8HF 1_555 1_555
C10C C8C 1_555 1_555
C10EE C8EE 1_555 1_555
C10BC C8BC 1_555 1_555
C10VD C8VD 1_555 1_555
C10LB C8LB 1_555 1_555
C10MD C8MD 1_555 1_555
C10FC C8FC 1_555 1_555
C10OC C8OC 1_555 1_555
C10RD C8RD 1_555 1_555
C10DC C8DC 1_555 1_555
C10ED C8ED 1_555 1_555
C10SB C8SB 1_555 1_555
C10BE C8BE 1_555 1_555
H6WF C10WF 1_555 1_555
H6Y C10Y 1_555 1_555
H6JF C10JF 1_555 1_555
H6N C10N 1_555 1_555
H6WE C10WE 1_555 1_555
H6NE C10NE 1_555 1_555
H6GA C10GA 1_555 1_555
H6PF C10PF 1_555 1_555
H6R C10R 1_555 1_555
H6HF C10HF 1_555 1_555
H6C C10C 1_555 1_555
H6EE C10EE 1_555 1_555
H6BC C10BC 1_555 1_555
H6VD C10VD 1_555 1_555
H6LB C10LB 1_555 1_555
H6MD C10MD 1_555 1_555
H6FC C10FC 1_555 1_555
H6OC C10OC 1_555 1_555
H6RD C10RD 1_555 1_555
H6DC C10DC 1_555 1_555
H6ED C10ED 1_555 1_555
H6SB C10SB 1_555 1_555
H6BE C10BE 1_555 1_555
C11Y N1 1_555 1_555
C11N N1 1_555 1_555
C11GA C8NE 1_555 1_555
C11R C8PF 1_555 1_555
C11C C8HF 1_555 1_555
C11EE C8EE 1_555 1_555
C11VD C8VD 1_555 1_555
C11MD C8MD 1_555 1_555
C11RD C8OC 1_555 1_555
C11ED C8DC 1_555 1_555
C11BE C8SB 1_555 1_555
O1WF C1WF 1_555 1_555
O1Y C1Y 1_555 1_555
O1JF C1JF 1_555 1_555
O1N C1N 1_555 1_555
O1WE C1WE 1_555 1_555
O1NE Cu1 1_555 1_555
O1GA C1GA 1_555 1_555
O1PF C1PF 1_555 1_555
O1R C1R 1_555 1_555
O1HF C1HF 1_555 1_555
O1C Cu1C 1_555 1_555
O1EE Cu1 1_555 1_555
O1BC C1BC 1_555 1_555
O1VD C1VD 1_555 1_555
O1LB C1LB 1_555 1_555
O1MD C1MD 1_555 1_555
O1FC Cu1C 1_555 1_555
O1OC Cu1 1_555 1_555
O1RD C1RD 1_555 1_555
O1DC C1DC 1_555 1_555
O1ED C1ED 1_555 1_555
O1SB C1SB 1_555 1_555
O1BE Cu1C 1_555 1_555
O1IA Cu1IA 1_555 1_555
O1IC Cu1IA 1_555 1_555
O1CE Cu1IA 1_555 1_555
O1OF Cu1Y 1_555 1_555
O1ME Cu1Y 1_555 1_555
O1QC Cu1Y 1_555 1_555
O1T Cu1T 1_555 1_555
O1LC Cu1T 1_555 1_555
O1DE Cu1T 1_555 1_555
O1FF Cu1N 1_555 1_555
O1JE Cu1N 1_555 1_555
O1PC Cu1N 1_555 1_555
O2WF C1WF 1_555 1_555
O2Y C1Y 1_555 1_555
O2JF C1JF 1_555 1_555
O2N C1N 1_555 1_555
O2WE C1WE 1_555 1_555
O2NE Cu2 1_555 1_555
O2GA C1GA 1_555 1_555
O2PF C1PF 1_555 1_555
O2R C1R 1_555 1_555
O2HF C1HF 1_555 1_555
O2C Cu2C 1_555 1_555
O2EE Cu2 1_555 1_555
O2BC C1BC 1_555 1_555
O2VD C1VD 1_555 1_555
O2LB C1LB 1_555 1_555
O2MD C1MD 1_555 1_555
O2FC Cu2C 1_555 1_555
O2OC Cu2 1_555 1_555
O2RD C1RD 1_555 1_555
O2DC C1DC 1_555 1_555
O2ED C1ED 1_555 1_555
O2SB C1SB 1_555 1_555
O2BE Cu2C 1_555 1_555
O2IA Cu2IA 1_555 1_555
O2IC Cu2IA 1_555 1_555
O2CE Cu2IA 1_555 1_555
O2OF Cu2Y 1_555 1_555
O2ME Cu2Y 1_555 1_555
O2QC Cu2Y 1_555 1_555
O2T Cu2T 1_555 1_555
O2LC Cu2T 1_555 1_555
O2DE Cu2T 1_555 1_555
O2FF Cu2N 1_555 1_555
O2JE Cu2N 1_555 1_555
O2PC Cu2N 1_555 1_555
O3IA Cu1IA 1_555 1_555
O3Y Cu1Y 1_555 1_555
O3T Cu1T 1_555 1_555
O3N Cu1N 1_555 1_555
O3C Cu1C 1_555 1_555
O4IA Cu2IA 1_555 1_555
O4Y Cu2Y 1_555 1_555
O4T Cu2T 1_555 1_555
O4N Cu2N 1_555 1_555
O4C Cu2C 1_555 1_555
N1C C11GA 1_555 1_555
N1MD C11EE 1_555 1_555
N1ED C11RD 1_555 1_555
C7 C9WF 1_555 1_555
C9 C7WF 1_555 1_555
C10 C11 1_555 1_555
C10 C9WF 1_555 1_555
C11 C8WF 1_555 1_555
C11 C10WF 1_555 1_555
C1NE O1NE 1_555 1_555
C1NE O2NE 1_555 1_555
C1C O1C 1_555 1_555
C1C O2C 1_555 1_555
C1EE O1EE 1_555 1_555
C1EE O2EE 1_555 1_555
C1FC O1FC 1_555 1_555
C1FC O2FC 1_555 1_555
C1OC O1OC 1_555 1_555
C1OC O2OC 1_555 1_555
C1BE O1BE 1_555 1_555
C1BE O2BE 1_555 1_555
C2WF C4WF 1_555 1_555
C4JF C5Y 1_555 1_555
C4WE C5N 1_555 1_555
C4GA C5GA 1_555 1_555
C4R C5R 1_555 1_555
C4C C5C 1_555 1_555
C4BC C5EE 1_555 1_555
C4LB C5VD 1_555 1_555
C4FC C5MD 1_555 1_555
C4RD C5RD 1_555 1_555
C4ED C5ED 1_555 1_555
C4BE C5BE 1_555 1_555
C7WF C8WF 1_555 1_555
C7Y C9JF 1_555 1_555
C7JF C9Y 1_555 1_555
C7N C9WE 1_555 1_555
C7WE C9N 1_555 1_555
C7NE C9GA 1_555 1_555
C7GA C9NE 1_555 1_555
C7PF C9R 1_555 1_555
C7R C9PF 1_555 1_555
C7HF C9C 1_555 1_555
C7C C9HF 1_555 1_555
C7EE C9BC 1_555 1_555
C7BC C9EE 1_555 1_555
C7VD C9LB 1_555 1_555
C7LB C9VD 1_555 1_555
C7MD C9FC 1_555 1_555
C7FC C9MD 1_555 1_555
C7OC C9RD 1_555 1_555
C7RD C9OC 1_555 1_555
C7DC C9ED 1_555 1_555
C7ED C9DC 1_555 1_555
C7SB C9BE 1_555 1_555
C7BE C9SB 1_555 1_555
C8WF C10WF 1_555 1_555
C8Y C8JF 1_555 1_555
C8Y C11Y 1_555 1_555
C8JF C11Y 1_555 1_555
C8N C8WE 1_555 1_555
C8N C11N 1_555 1_555
C8WE C11N 1_555 1_555
C8NE C8GA 1_555 1_555
C8GA C11GA 1_555 1_555
C8PF C8R 1_555 1_555
C8R C11R 1_555 1_555
C8HF C8C 1_555 1_555
C8C C11C 1_555 1_555
C8EE C8BC 1_555 1_555
C8BC C11EE 1_555 1_555
C8VD C8LB 1_555 1_555
C8LB C11VD 1_555 1_555
C8MD C8FC 1_555 1_555
C8FC C11MD 1_555 1_555
C8OC C8RD 1_555 1_555
C8RD C11RD 1_555 1_555
C8DC C8ED 1_555 1_555
C8ED C11ED 1_555 1_555
C8SB C8BE 1_555 1_555
C8BE C11BE 1_555 1_555
C9JF C10Y 1_555 1_555
C9Y C10JF 1_555 1_555
C9WE C10N 1_555 1_555
C9N C10WE 1_555 1_555
C9NE C10GA 1_555 1_555
C9GA C10NE 1_555 1_555
C9R C10PF 1_555 1_555
C9PF C10R 1_555 1_555
C9C C10HF 1_555 1_555
C9HF C10C 1_555 1_555
C9EE C10BC 1_555 1_555
C9BC C10EE 1_555 1_555
C9LB C10VD 1_555 1_555
C9VD C10LB 1_555 1_555
C9FC C10MD 1_555 1_555
C9MD C10FC 1_555 1_555
C9OC C10RD 1_555 1_555
C9RD C10OC 1_555 1_555
C9ED C10DC 1_555 1_555
C9DC C10ED 1_555 1_555
C9BE C10SB 1_555 1_555
C9SB C10BE 1_555 1_555
C10Y C11Y 1_555 1_555
C10JF C11Y 1_555 1_555
C10N C11N 1_555 1_555
C10WE C11N 1_555 1_555
C10NE C11GA 1_555 1_555
C10GA C11GA 1_555 1_555
C10PF C11R 1_555 1_555
C10R C11R 1_555 1_555
C10HF C11C 1_555 1_555
C10C C11C 1_555 1_555
C10EE C11EE 1_555 1_555
C10BC C11EE 1_555 1_555
C10VD C11VD 1_555 1_555
C10LB C11VD 1_555 1_555
C10MD C11MD 1_555 1_555
C10FC C11MD 1_555 1_555
C10OC C11RD 1_555 1_555
C10RD C11RD 1_555 1_555
C10DC C11ED 1_555 1_555
C10ED C11ED 1_555 1_555
C10SB C11BE 1_555 1_555
C10BE C11BE 1_555 1_555
C11R N1C 1_555 1_555
C11C N1C 1_555 1_555
C11VD N1MD 1_555 1_555
C11MD N1MD 1_555 1_555
C11ED N1ED 1_555 1_555
C11BE N1ED 1_555 1_555

#END
