
#######################################################################
#
#                 Cambridge Crystallographic Data Centre
#                                CCDC 
#
#######################################################################
#
# If this CIF has been generated from an entry in the Cambridge 
# Structural Database, then it will include bibliographic, chemical, 
# crystal, experimental, refinement or atomic coordinate data resulting 
# from the CCDC's data processing and validation procedures.
#
#######################################################################

data_AHUFIU
_chemical_formula_moiety         '(C85 H42 Ag2 Al2 Cl2 F72 Mo4 N4 O16 P4)n'
_symmetry_cell_setting           monoclinic
_symmetry_space_group_name_H-M   'P 21/n'
_symmetry_Int_Tables_number      14
_space_group_name_Hall           '-P 2yn'
loop_
_symmetry_equiv_pos_site_id
_symmetry_equiv_pos_as_xyz
1 x,y,z
2 1/2-x,1/2+y,1/2-z
3 -x,-y,-z
4 1/2+x,1/2-y,1/2+z
_cell_length_a                   18.7262(8)
_cell_length_b                   34.1911(11)
_cell_length_c                   19.0465(6)
_cell_angle_alpha                90
_cell_angle_beta                 107.821(4)
_cell_angle_gamma                90
_cell_volume                     11609.7
loop_
_atom_site_label
_atom_site_type_symbol
_atom_site_fract_x
_atom_site_fract_y
_atom_site_fract_z
Ag1 Ag 0.57454(3) 0.536644(14) -0.38927(2)
Ag2 Ag 0.66160(3) 0.631132(15) -0.16235(2)
Mo1 Mo 0.35105(4) 0.587637(19) -0.53999(3)
Mo2 Mo 0.46812(3) 0.599793(17) -0.61779(3)
Mo3 Mo 0.78086(4) 0.622728(18) -0.34019(3)
Mo4 Mo 0.82146(3) 0.551827(18) -0.24013(3)
P1 P 0.47956(11) 0.56311(6) -0.50043(10)
P2 P 0.41417(11) 0.53676(5) -0.59778(10)
P3 P 0.69682(8) 0.56945(5) -0.33386(8)
P4 P 0.72981(9) 0.60233(5) -0.23708(8)
C1 C 0.2757(5) 0.5782(2) -0.6401(4)
C2 C 0.5691(5) 0.5741(3) -0.5991(6)
C3 C 0.5192(6) 0.6365(3) -0.5378(5)
C4 C 0.7024(6) 0.6623(3) -0.3466(5)
C5 C 0.8419(6) 0.6522(3) -0.2519(6)
C6 C 0.7525(5) 0.5109(3) -0.2220(4)
C7 C 0.8225(4) 0.5213(3) -0.3299(4)
O1 O 0.2315(3) 0.5742(2) -0.6949(3)
O2 O 0.6265(4) 0.5611(3) -0.5895(5)
O3 O 0.5502(5) 0.6575(2) -0.4917(5)
O4 O 0.6594(5) 0.6866(2) -0.3502(4)
O5 O 0.8804(6) 0.6674(3) -0.1980(6)
O6 O 0.7150(4) 0.4877(2) -0.2100(4)
O7 O 0.8255(4) 0.5031(2) -0.3785(3)
C8 C 0.3194(5) 0.5376(3) -0.5087(5)
O8 O 0.2991(5) 0.5094(3) -0.4889(4)
C9 C 0.3443(10) 0.6117(5) -0.4327(8)
H1 H 0.3489 0.5972 -0.3859
C10 C 0.3990(8) 0.6344(5) -0.4503(8)
H2 H 0.4528 0.6358 -0.4194
C11 C 0.3685(7) 0.6556(4) -0.5146(7)
H3 H 0.3957 0.6744 -0.5376
C12 C 0.2907(7) 0.6458(4) -0.5410(8)
H4 H 0.2526 0.6578 -0.5844
C13 C 0.2763(8) 0.6213(5) -0.4915(10)
H5 H 0.2249 0.6127 -0.4928
C14 C 0.4953(6) 0.6358(3) -0.7073(5)
H6 H 0.5455 0.6473 -0.7034
C15 C 0.4378(6) 0.6552(3) -0.6909(5)
H7 H 0.4399 0.6827 -0.6725
C16 C 0.3729(5) 0.6311(3) -0.7120(5)
H8 H 0.3220 0.6384 -0.7096
C17 C 0.3917(5) 0.5963(3) -0.7409(4)
H9 H 0.3562 0.5746 -0.7630
C18 C 0.4689(6) 0.5986(3) -0.7392(5)
H10 H 0.4963 0.5797 -0.7617
C19 C 0.7857(6) 0.5947(3) -0.4517(5)
H11 H 0.7601 0.5701 -0.4743
C20 C 0.8618(6) 0.5977(4) -0.4039(5)
H12 H 0.8981 0.5756 -0.3875
C21 C 0.8765(7) 0.6363(4) -0.3894(7)
H13 H 0.9266 0.6472 -0.3609
C22 C 0.8117(9) 0.6595(4) -0.4265(7)
H14 H 0.8095 0.6887 -0.4309
C23 C 0.7555(8) 0.6325(3) -0.4653(5)
H15 H 0.7055 0.6395 -0.5007
C24 C 0.9405(5) 0.5797(4) -0.1869(6)
H16 H 0.9617 0.6032 -0.2048
C25 C 0.8875(6) 0.5409(5) -0.1197(5)
H17 H 0.8653 0.5320 -0.0809
C26 C 0.9492(5) 0.5404(4) -0.2042(6)
H18 H 0.9776 0.5314 -0.2379
C27 C 0.9185(6) 0.5157(5) -0.1629(6)
H19 H 0.9226 0.4865 -0.1596
C28 C 0.9025(5) 0.5789(5) -0.1323(5)
H20 H 0.8914 0.6021 -0.1056
N1 N 0.4854(4) 0.4683(2) 0.2968(3)
N2 N 0.6210(4) 0.59491(18) -0.0800(3)
N3 N 0.2168(4) 0.81580(19) -0.5865(3)
N4 N 0.5591(4) 0.6715(3) -0.2187(4)
C29 C 0.4436(4) 0.4710(2) 0.2269(4)
H21 H 0.3927 0.4628 0.2135
C30 C 0.4717(4) 0.4855(2) 0.1732(4)
H22 H 0.4401 0.4871 0.1236
C31 C 0.5455(4) 0.4979(2) 0.1905(4)
C32 C 0.5892(5) 0.4945(4) 0.2635(5)
H23 H 0.6407 0.5016 0.2783
C33 C 0.5557(5) 0.4803(4) 0.3151(4)
H24 H 0.5851 0.4792 0.3655
C34 C 0.5784(4) 0.5151(2) 0.1367(4)
H25 H 0.6312 0.5137 0.1462
C35 C 0.5372(4) 0.5326(2) 0.0751(4)
H26 H 0.4842 0.5322 0.0644
C36 C 0.5689(4) 0.5529(2) 0.0218(4)
C37 C 0.5223(5) 0.5779(3) -0.0293(5)
H27 H 0.4714 0.5812 -0.0311
C38 C 0.5510(5) 0.5982(3) -0.0778(5)
H28 H 0.5183 0.6155 -0.1117
C39 C 0.6426(4) 0.5488(2) 0.0202(4)
H29 H 0.6761 0.5315 0.0534
C40 C 0.6663(5) 0.5701(2) -0.0301(4)
H30 H 0.7169 0.5673 -0.0299
C41 C 0.1855(5) 0.7980(3) -0.5416(5)
H31 H 0.1356 0.8050 -0.5447
C42 C 0.2208(6) 0.7697(3) -0.4901(5)
H32 H 0.1938 0.7557 -0.4633
C43 C 0.2955(5) 0.7625(2) -0.4792(4)
C44 C 0.3287(6) 0.7800(3) -0.5255(7)
H33 H 0.3794 0.7744 -0.5218
C45 C 0.2875(7) 0.8063(3) -0.5782(7)
H34 H 0.3115 0.8182 -0.6101
C46 C 0.3384(5) 0.7370(3) -0.4177(5)
H35 H 0.3135 0.7152 -0.4046
C47 C 0.4078(6) 0.7429(3) -0.3813(6)
H36 H 0.4300 0.7656 -0.3944
C48 C 0.4569(5) 0.7190(3) -0.3220(5)
C49 C 0.4377(5) 0.6835(3) -0.3006(5)
H37 H 0.3879 0.6740 -0.3208
C50 C 0.4909(6) 0.6610(3) -0.2489(5)
H38 H 0.4755 0.6364 -0.2352
C51 C 0.5314(6) 0.7314(3) -0.2874(7)
H39 H 0.5479 0.7561 -0.2996
C52 C 0.5799(6) 0.7079(3) -0.2362(6)
H40 H 0.6293 0.7170 -0.2122
Ag1B Ag 0.42546(3) 0.463356(14) -0.61073(2)
Ag1B_2 Ag 0.42546(3) 0.463356(14) 0.38927(2)
Ag2C Ag 0.16160(3) 0.868868(15) -0.66235(2)
P2B P 0.58583(11) 0.46324(5) -0.40222(10)
N1B N 0.5146(4) 0.5317(2) -0.2968(3)
N3C N 0.7168(4) 0.68420(19) -0.0865(3)
Al1 Al 0.11375(11) 0.39501(6) -0.28101(10)
O9 O 0.1941(4) 0.3674(2) -0.2594(6)
O10 O 0.1319(3) 0.4422(2) -0.3009(3)
O11 O 0.0840(4) 0.39397(17) -0.2047(3)
O12 O 0.0443(4) 0.3763(2) -0.3545(3)
C53 C 0.2615(5) 0.3571(3) -0.2498(4)
C54 C 0.1185(5) 0.4731(3) -0.3444(4)
C55 C 0.0784(5) 0.4031(2) -0.1417(4)
C56 C -0.0008(7) 0.3472(4) -0.3860(6)
C57 C 0.3013(7) 0.3254(4) -0.2021(8)
F1 F 0.3271(6) 0.3372(5) -0.1304(5)
F2 F 0.2530(7) 0.2969(3) -0.2000(7)
F3 F 0.3590(7) 0.3088(4) -0.2191(9)
C58 C 0.2601(7) 0.3480(4) -0.3308(11)
F4 F 0.2100(5) 0.3698(4) -0.3806(4)
F5 F 0.3243(5) 0.3512(3) -0.3478(5)
F6 F 0.2349(8) 0.3109(5) -0.3452(9)
C59 C 0.3167(5) 0.3921(3) -0.2252(5)
F7 F 0.3897(4) 0.3863(4) -0.2129(6)
F8 F 0.3042(7) 0.4207(4) -0.2812(6)
F9 F 0.3032(9) 0.4125(4) -0.1721(7)
C60 C 0.0253(10) 0.4764(4) -0.3670(7)
F10 F 0.0027(5) 0.4668(3) -0.3090(5)
F11 F -0.0117(9) 0.4529(5) -0.4218(8)
F12 F 0.0066(7) 0.5137(3) -0.3844(7)
C61 C 0.1629(10) 0.4657(5) -0.3995(8)
F13 F 0.2375(9) 0.4640(6) -0.3679(12)
F14 F 0.1435(10) 0.4295(5) -0.4253(9)
F15 F 0.1476(9) 0.4874(5) -0.4592(8)
C62 C 0.1581(5) 0.5084(3) -0.2989(5)
F16 F 0.1870(11) 0.5354(5) -0.3366(10)
F17 F 0.1134(19) 0.5265(12) -0.2657(18)
F18 F 0.2209(10) 0.4999(13) -0.2452(11)
C63 C 0.0068(7) 0.3982(3) -0.1216(6)
F19 F -0.0411(6) 0.4149(3) -0.1789(6)
F20 F -0.0128(6) 0.3611(3) -0.1227(5)
F21 F 0.0084(6) 0.4147(4) -0.0586(5)
C64 C 0.1355(7) 0.3721(3) -0.0915(7)
F22 F 0.1240(7) 0.3351(3) -0.1176(6)
F23 F 0.1339(8) 0.3681(4) -0.0205(5)
F24 F 0.2105(5) 0.3782(3) -0.0812(4)
C65 C 0.1142(6) 0.4432(2) -0.1145(4)
F25 F 0.1759(4) 0.4491(2) -0.1370(5)
F26 F 0.0693(4) 0.4709(2) -0.1385(6)
F27 F 0.1445(5) 0.4471(2) -0.0391(4)
C66 C 0.0332(11) 0.3067(5) -0.3491(9)
F28 F 0.0881(9) 0.2951(6) -0.3789(9)
F29 F -0.0095(10) 0.2733(6) -0.3553(11)
F30 F 0.0711(9) 0.3043(4) -0.2748(7)
C67 C -0.0662(9) 0.3464(4) -0.3503(7)
F31 F -0.0519(7) 0.3366(4) -0.2784(6)
F32 F -0.1257(6) 0.3250(5) -0.3894(7)
F33 F -0.0892(6) 0.3844(4) -0.3548(7)
C68 C -0.0223(8) 0.3433(4) -0.4702(9)
F34 F -0.0654(6) 0.3727(4) -0.4872(6)
F35 F 0.0388(6) 0.3457(4) -0.4802(7)
F36 F -0.0566(8) 0.3100(4) -0.4917(9)
Al2 Al 0.23239(12) 0.66369(6) -0.06209(13)
O13 O 0.3187(4) 0.6845(3) -0.0304(6)
O14 O 0.2067(5) 0.6610(3) -0.1571(4)
O15 O 0.2396(4) 0.61797(17) -0.0250(4)
O16 O 0.1644(3) 0.68964(18) -0.0405(3)
C69 C 0.3833(6) 0.6955(3) 0.0137(7)
C70 C 0.2152(9) 0.6514(3) -0.2213(7)
C71 C 0.2140(4) 0.5871(2) 0.0040(4)
C72 C 0.1099(5) 0.7171(2) -0.0564(5)
C73 C 0.4393(9) 0.7012(4) -0.0323(8)
F37 F 0.490(5) 0.673(3) 0.001(6)
F38 F 0.469(7) 0.7371(16) -0.028(7)
F39 F 0.401(7) 0.687(4) -0.100(3)
C74 C 0.3763(7) 0.7348(6) 0.0504(7)
F40 F 0.3640(10) 0.7631(3) -0.0003(10)
F41 F 0.4449(16) 0.7521(14) 0.067(3)
F42 F 0.3330(15) 0.7419(9) 0.0964(14)
C75 C 0.421(2) 0.6753(9) 0.100(2)
F43 F 0.469(3) 0.7032(14) 0.139(3)
F44 F 0.373(3) 0.6853(18) 0.138(3)
F45 F 0.413(2) 0.6356(10) 0.105(2)
C76 C 0.2229(9) 0.6875(5) -0.2661(8)
F46 F 0.2936(10) 0.7014(6) -0.2364(10)
F47 F 0.2154(12) 0.6803(6) -0.3378(7)
F48 F 0.1759(10) 0.7178(5) -0.2679(8)
C77 C 0.1505(11) 0.6348(5) -0.2770(10)
F49 F 0.1020(11) 0.6657(5) -0.3049(10)
F50 F 0.1686(12) 0.6198(6) -0.3367(10)
F51 F 0.1068(8) 0.6097(4) -0.2511(8)
C78 C 0.2752(7) 0.6195(4) -0.2109(7)
F52 F 0.3163(9) 0.6134(5) -0.2597(8)
F53 F 0.3348(8) 0.6194(6) -0.1448(8)
F54 F 0.2389(7) 0.5841(4) -0.2053(7)
C79 C 0.2734(6) 0.5559(3) 0.0229(5)
F55 F 0.2463(4) 0.52000(17) 0.0339(4)
F56 F 0.3106(7) 0.5528(3) -0.0271(5)
F57 F 0.3278(4) 0.5627(2) 0.0863(4)
C80 C 0.1387(7) 0.5725(4) -0.0535(7)
F58 F 0.1025(5) 0.5478(3) -0.0271(5)
F59 F 0.0859(12) 0.6019(6) -0.0647(13)
F60 F 0.1559(9) 0.5538(4) -0.1092(5)
C81 C 0.1959(4) 0.5996(2) 0.0739(5)
F61 F 0.2443(7) 0.6287(4) 0.1081(7)
F62 F 0.2072(13) 0.5743(6) 0.1292(10)
F63 F 0.1298(6) 0.6178(5) 0.0533(13)
C82 C 0.0626(8) 0.7139(4) -0.0105(8)
F64 F 0.0146(6) 0.6829(3) -0.0287(7)
F65 F 0.1046(6) 0.7075(4) 0.0620(5)
F66 F 0.0197(7) 0.7464(3) -0.0124(9)
C83 C 0.0562(8) 0.7132(4) -0.1493(12)
F67 F 0.0948(6) 0.7275(3) -0.1895(5)
F68 F -0.0061(5) 0.7322(4) -0.1544(7)
F69 F 0.0415(6) 0.6753(3) -0.1564(6)
C84 C 0.1449(7) 0.7572(4) -0.0564(7)
F70 F 0.1742(5) 0.7691(3) 0.0147(6)
F71 F 0.2031(4) 0.7577(2) -0.0817(5)
F72 F 0.0973(4) 0.7855(2) -0.0883(5)
C85 C 0.219(3) 0.714(3) 0.307(4)
H41 H 0.2188 0.6976 0.3499
H42 H 0.1828 0.7356 0.3039
Cl1 Cl 0.3043(8) 0.7330(4) 0.3224(9)
Cl2 Cl 0.1872(12) 0.6868(8) 0.2316(14)
loop_
_geom_bond_atom_site_label_1
_geom_bond_atom_site_label_2
_geom_bond_site_symmetry_1
_geom_bond_site_symmetry_2
Ag1 P1 1_555 1_555
Ag2 P4 1_555 1_555
Mo1 Mo2 1_555 1_555
Mo2 P1 1_555 1_555
Mo3 Mo4 1_555 1_555
Mo4 P3 1_555 1_555
P1 Mo1 1_555 1_555
P2 Mo1 1_555 1_555
P3 Ag1 1_555 1_555
P4 Mo3 1_555 1_555
C1 Mo1 1_555 1_555
C2 Mo2 1_555 1_555
C3 Mo2 1_555 1_555
C4 Mo3 1_555 1_555
C5 Mo3 1_555 1_555
C6 Mo4 1_555 1_555
C7 Mo4 1_555 1_555
O1 C1 1_555 1_555
O2 C2 1_555 1_555
O3 C3 1_555 1_555
O4 C4 1_555 1_555
O5 C5 1_555 1_555
O6 C6 1_555 1_555
O7 C7 1_555 1_555
C8 Mo1 1_555 1_555
O8 C8 1_555 1_555
C9 Mo1 1_555 1_555
H1 C9 1_555 1_555
C10 Mo1 1_555 1_555
H2 C10 1_555 1_555
C11 Mo1 1_555 1_555
H3 C11 1_555 1_555
C12 Mo1 1_555 1_555
H4 C12 1_555 1_555
C13 Mo1 1_555 1_555
H5 C13 1_555 1_555
C14 Mo2 1_555 1_555
H6 C14 1_555 1_555
C15 Mo2 1_555 1_555
H7 C15 1_555 1_555
C16 Mo2 1_555 1_555
H8 C16 1_555 1_555
C17 Mo2 1_555 1_555
H9 C17 1_555 1_555
C18 Mo2 1_555 1_555
H10 C18 1_555 1_555
C19 Mo3 1_555 1_555
H11 C19 1_555 1_555
C20 Mo3 1_555 1_555
H12 C20 1_555 1_555
C21 Mo3 1_555 1_555
H13 C21 1_555 1_555
C22 Mo3 1_555 1_555
H14 C22 1_555 1_555
C23 Mo3 1_555 1_555
H15 C23 1_555 1_555
C24 Mo4 1_555 1_555
H16 C24 1_555 1_555
C25 Mo4 1_555 1_555
H17 C25 1_555 1_555
C26 Mo4 1_555 1_555
H18 C26 1_555 1_555
C27 Mo4 1_555 1_555
H19 C27 1_555 1_555
C28 Mo4 1_555 1_555
H20 C28 1_555 1_555
N1 C29 1_555 1_555
N2 Ag2 1_555 1_555
N3 C41 1_555 1_555
N4 Ag2 1_555 1_555
C29 H21 1_555 1_555
C30 C29 1_555 1_555
H22 C30 1_555 1_555
C31 C30 1_555 1_555
C32 C31 1_555 1_555
H23 C32 1_555 1_555
C33 N1 1_555 1_555
H24 C33 1_555 1_555
C34 C31 1_555 1_555
H25 C34 1_555 1_555
C35 C34 1_555 1_555
H26 C35 1_555 1_555
C36 C35 1_555 1_555
C37 C36 1_555 1_555
H27 C37 1_555 1_555
C38 N2 1_555 1_555
H28 C38 1_555 1_555
C39 C36 1_555 1_555
H29 C39 1_555 1_555
C40 N2 1_555 1_555
H30 C40 1_555 1_555
C41 H31 1_555 1_555
C42 C41 1_555 1_555
H32 C42 1_555 1_555
C43 C42 1_555 1_555
C44 C43 1_555 1_555
H33 C44 1_555 1_555
C45 N3 1_555 1_555
H34 C45 1_555 1_555
C46 C43 1_555 1_555
H35 C46 1_555 1_555
C47 C46 1_555 1_555
H36 C47 1_555 1_555
C48 C47 1_555 1_555
C49 C48 1_555 1_555
H37 C49 1_555 1_555
C50 N4 1_555 1_555
H38 C50 1_555 1_555
C51 C48 1_555 1_555
H39 C51 1_555 1_555
C52 N4 1_555 1_555
H40 C52 1_555 1_555
Al1 O9 1_555 1_555
O9 C53 1_555 1_555
O10 Al1 1_555 1_555
O11 Al1 1_555 1_555
O12 Al1 1_555 1_555
C53 C57 1_555 1_555
C54 O10 1_555 1_555
C55 O11 1_555 1_555
C56 O12 1_555 1_555
C57 F1 1_555 1_555
F2 C57 1_555 1_555
F3 C57 1_555 1_555
C58 C53 1_555 1_555
F4 C58 1_555 1_555
F5 C58 1_555 1_555
F6 C58 1_555 1_555
C59 C53 1_555 1_555
F7 C59 1_555 1_555
F8 C59 1_555 1_555
F9 C59 1_555 1_555
C60 C54 1_555 1_555
F10 C60 1_555 1_555
F11 C60 1_555 1_555
F12 C60 1_555 1_555
C61 C54 1_555 1_555
F13 C61 1_555 1_555
F14 C61 1_555 1_555
F15 C61 1_555 1_555
C62 C54 1_555 1_555
F16 C62 1_555 1_555
F17 C62 1_555 1_555
F18 C62 1_555 1_555
C63 C55 1_555 1_555
F19 C63 1_555 1_555
F20 C63 1_555 1_555
F21 C63 1_555 1_555
C64 C55 1_555 1_555
F22 C64 1_555 1_555
F23 C64 1_555 1_555
F24 C64 1_555 1_555
C65 C55 1_555 1_555
F25 C65 1_555 1_555
F26 C65 1_555 1_555
F27 C65 1_555 1_555
C66 C56 1_555 1_555
F28 C66 1_555 1_555
F29 C66 1_555 1_555
F30 C66 1_555 1_555
C67 C56 1_555 1_555
F31 C67 1_555 1_555
F32 C67 1_555 1_555
F33 C67 1_555 1_555
C68 C56 1_555 1_555
F34 C68 1_555 1_555
F35 C68 1_555 1_555
F36 C68 1_555 1_555
Al2 O13 1_555 1_555
O13 C69 1_555 1_555
O14 Al2 1_555 1_555
O15 Al2 1_555 1_555
O16 Al2 1_555 1_555
C69 C73 1_555 1_555
C70 O14 1_555 1_555
C71 O15 1_555 1_555
C72 O16 1_555 1_555
C73 F37 1_555 1_555
F38 C73 1_555 1_555
F39 C73 1_555 1_555
C74 C69 1_555 1_555
F40 C74 1_555 1_555
F41 C74 1_555 1_555
F42 C74 1_555 1_555
C75 C69 1_555 1_555
F43 C75 1_555 1_555
F44 C75 1_555 1_555
F45 C75 1_555 1_555
C76 C70 1_555 1_555
F46 C76 1_555 1_555
F47 C76 1_555 1_555
F48 C76 1_555 1_555
C77 C70 1_555 1_555
F49 C77 1_555 1_555
F50 C77 1_555 1_555
F51 C77 1_555 1_555
C78 C70 1_555 1_555
F52 C78 1_555 1_555
F53 C78 1_555 1_555
F54 C78 1_555 1_555
C79 C71 1_555 1_555
F55 C79 1_555 1_555
F56 C79 1_555 1_555
F57 C79 1_555 1_555
C80 C71 1_555 1_555
F58 C80 1_555 1_555
F59 C80 1_555 1_555
F60 C80 1_555 1_555
C81 C71 1_555 1_555
F61 C81 1_555 1_555
F62 C81 1_555 1_555
F63 C81 1_555 1_555
C82 C72 1_555 1_555
F64 C82 1_555 1_555
F65 C82 1_555 1_555
F66 C82 1_555 1_555
C83 C72 1_555 1_555
F67 C83 1_555 1_555
F68 C83 1_555 1_555
F69 C83 1_555 1_555
C84 C72 1_555 1_555
F70 C84 1_555 1_555
F71 C84 1_555 1_555
F72 C84 1_555 1_555
C85 H41 1_555 1_555
H42 C85 1_555 1_555
Cl1 C85 1_555 1_555
Cl2 C85 1_555 1_555
Ag1B P2 1_555 1_555
Ag1B_2 N1 1_555 1_555
Ag2C N3 1_555 1_555
P2B Ag1 1_555 1_555
N1B Ag1 1_555 1_555
N3C Ag2 1_555 1_555
Mo2 P2 1_555 1_555
Mo3 P3 1_555 1_555
Mo4 P4 1_555 1_555
P1 P2 1_555 1_555
P3 P4 1_555 1_555
C9 C10 1_555 1_555
C9 C13 1_555 1_555
C10 C11 1_555 1_555
C11 C12 1_555 1_555
C12 C13 1_555 1_555
C14 C15 1_555 1_555
C14 C18 1_555 1_555
C15 C16 1_555 1_555
C16 C17 1_555 1_555
C17 C18 1_555 1_555
C19 C20 1_555 1_555
C19 C23 1_555 1_555
C20 C21 1_555 1_555
C21 C22 1_555 1_555
C22 C23 1_555 1_555
C24 C26 1_555 1_555
C24 C28 1_555 1_555
C25 C27 1_555 1_555
C25 C28 1_555 1_555
C26 C27 1_555 1_555
C32 C33 1_555 1_555
C37 C38 1_555 1_555
C39 C40 1_555 1_555
C44 C45 1_555 1_555
C49 C50 1_555 1_555
C51 C52 1_555 1_555

#END
