
#######################################################################
#
#                 Cambridge Crystallographic Data Centre
#                                CCDC 
#
#######################################################################
#
# If this CIF has been generated from an entry in the Cambridge 
# Structural Database, then it will include bibliographic, chemical, 
# crystal, experimental, refinement or atomic coordinate data resulting 
# from the CCDC's data processing and validation procedures.
#
#######################################################################

data_RIFLUP
_chemical_formula_moiety         '(C66 H52 N10 Ni1 O8 Tb1 1+)n'
_symmetry_cell_setting           orthorhombic
_symmetry_space_group_name_H-M   'P n n a'
_symmetry_Int_Tables_number      52
_space_group_name_Hall           '-P 2a 2bc'
loop_
_symmetry_equiv_pos_site_id
_symmetry_equiv_pos_as_xyz
1 x,y,z
2 1/2-x,-y,z
3 x,1/2-y,1/2-z
4 1/2-x,1/2+y,1/2-z
5 -x,-y,-z
6 1/2+x,y,-z
7 -x,1/2+y,1/2+z
8 1/2+x,1/2-y,1/2+z
_cell_length_a                   33.523
_cell_length_b                   21.280
_cell_length_c                   30.021
_cell_angle_alpha                90
_cell_angle_beta                 90
_cell_angle_gamma                90
_cell_volume                     21416.1
loop_
_atom_site_label
_atom_site_type_symbol
_atom_site_fract_x
_atom_site_fract_y
_atom_site_fract_z
_atom_site_U_iso_or_equiv
_atom_site_thermal_displace_type
Ni1 Ni 0.37013(3) 0.27868(5) -0.04766(3) 0.0823 Uani
Tb1 Tb 0.613432(10) 0.177916(15) 0.200322(10) 0.0588 Uani
C1 C 0.5742(3) 0.1527(4) 0.1214(3) 0.0660 Uani
C2 C 0.5515(3) 0.1409(4) 0.0766(3) 0.0840 Uani
C3 C 0.5158(3) 0.1040(4) 0.0780(4) 0.1250 Uani
H1 H 0.5057 0.0875 0.1043 0.1500 Uiso
C4 C 0.4967(3) 0.0943(5) 0.0351(5) 0.1350 Uani
H2 H 0.4735 0.0704 0.0346 0.1620 Uiso
C5 C 0.5098(4) 0.1169(6) -0.0032(4) 0.1197 Uani
C6 C 0.5419(4) 0.1505(5) -0.0005(4) 0.1240 Uani
H3 H 0.5509 0.1679 -0.0271 0.1490 Uiso
C7 C 0.5651(3) 0.1641(4) 0.0374(4) 0.1233 Uani
H4 H 0.5884 0.1876 0.0357 0.1480 Uiso
C8 C 0.4859(3) 0.1039(4) -0.0422(3) 0.1593 Uani
H5 H 0.4876 0.0593 -0.0485 0.1910 Uiso
H6 H 0.4975 0.1260 -0.0673 0.1910 Uiso
C9 C 0.4304(3) 0.1790(7) -0.0417(3) 0.1067 Uani
C10 C 0.3760(3) 0.1225(3) -0.0379(2) 0.1530 Uani
C11 C 0.4099(2) 0.0848(5) -0.0379(3) 0.1763 Uani
C12 C 0.4061(3) 0.0198(5) -0.0371(3) 0.2110 Uani
H7 H 0.4287 -0.0055 -0.0371 0.2540 Uiso
C13 C 0.3684(4) -0.0076(3) -0.0362(3) 0.2733 Uani
H8 H 0.3659 -0.0511 -0.0357 0.3280 Uiso
C14 C 0.3346(3) 0.0301(5) -0.0362(3) 0.2650 Uani
H9 H 0.3094 0.0118 -0.0357 0.3160 Uiso
C15 C 0.3384(2) 0.0952(5) -0.0370(2) 0.2110 Uani
H10 H 0.3157 0.1204 -0.0370 0.2530 Uiso
C16 C 0.3136(3) 0.2268(4) -0.1056(5) 0.0960 Uani
C17 C 0.2727(4) 0.2409(4) -0.0505(4) 0.0883 Uani
C18 C 0.2515(4) 0.2122(4) -0.0860(5) 0.0977 Uani
C19 C 0.2536(4) 0.2629(4) -0.0118(4) 0.1193 Uani
H11 H 0.2671 0.2868 0.0093 0.1430 Uiso
C20 C 0.2142(4) 0.2474(6) -0.0067(4) 0.1610 Uani
H12 H 0.2011 0.2568 0.0198 0.1930 Uiso
C21 C 0.1938(5) 0.2179(7) -0.0408(5) 0.1740 Uani
H13 H 0.1668 0.2103 -0.0366 0.2090 Uiso
C22 C 0.2103(5) 0.1989(5) -0.0801(5) 0.1393 Uani
H14 H 0.1955 0.1784 -0.1018 0.1670 Uiso
C23 C 0.3083(2) 0.4523(3) -0.1547(2) 0.0927 Uani
H15 H 0.3281 0.4455 -0.1778 0.1110 Uiso
H16 H 0.3011 0.4964 -0.1550 0.1110 Uiso
C24 C 0.2716(2) 0.4131(3) -0.1649(3) 0.0637 Uani
C25 C 0.2546(2) 0.3721(4) -0.1344(2) 0.0563 Uani
H17 H 0.2642 0.3702 -0.1054 0.0680 Uiso
C26 C 0.2237(2) 0.3344(3) -0.1474(2) 0.0597 Uani
H18 H 0.2141 0.3037 -0.1281 0.0710 Uiso
C27 C 0.2065(2) 0.3415(3) -0.1888(3) 0.0560 Uani
C28 C 0.2232(2) 0.3840(3) -0.2187(2) 0.0563 Uani
H19 H 0.2124 0.3879 -0.2471 0.0680 Uiso
C29 C 0.2556(2) 0.4207(3) -0.2069(2) 0.0670 Uani
H20 H 0.2663 0.4497 -0.2268 0.0800 Uiso
C30 C 0.3469(2) 0.3827(5) -0.1031(3) 0.0700 Uani
C31 C 0.3365(2) 0.4231(4) -0.0380(4) 0.0787 Uani
C32 C 0.3192(3) 0.4639(5) -0.0686(4) 0.0887 Uani
C33 C 0.3016(3) 0.5207(5) -0.0570(5) 0.1280 Uani
H21 H 0.2900 0.5481 -0.0774 0.1540 Uiso
C34 C 0.3035(3) 0.5321(5) -0.0105(5) 0.1427 Uani
H22 H 0.2940 0.5706 -0.0003 0.1710 Uiso
C35 C 0.3175(4) 0.4929(6) 0.0194(4) 0.1597 Uani
H23 H 0.3140 0.5020 0.0495 0.1910 Uiso
C36 C 0.3369(3) 0.4392(5) 0.0076(3) 0.1183 Uani
H24 H 0.3499 0.4143 0.0286 0.1420 Uiso
C37 C 0.4145(3) 0.3393(4) 0.0205(4) 0.0897 Uani
C38 C 0.3642(5) 0.2959(7) 0.0627(4) 0.1300 Uani
C39 C 0.3865(5) 0.3349(7) 0.0893(6) 0.1323 Uani
C40 C 0.3803(5) 0.3490(6) 0.1327(6) 0.1727 Uani
H25 H 0.3946 0.3778 0.1497 0.2070 Uiso
C41 C 0.3488(6) 0.3124(8) 0.1467(5) 0.2320 Uani
H26 H 0.3447 0.3125 0.1774 0.2780 Uiso
C42 C 0.3220(4) 0.2755(9) 0.1229(6) 0.2737 Uani
H27 H 0.2985 0.2607 0.1354 0.3280 Uiso
C43 C 0.3324(4) 0.2624(6) 0.0798(6) 0.1690 Uani
H28 H 0.3188 0.2326 0.0630 0.2030 Uiso
C44 C 0.4470(3) 0.4102(4) 0.0773(3) 0.1373 Uani
H29 H 0.4330 0.4460 0.0899 0.1650 Uiso
H30 H 0.4615 0.4246 0.0513 0.1650 Uiso
C45 C 0.4768(3) 0.3835(5) 0.1122(3) 0.1047 Uani
C46 C 0.4838(3) 0.4179(4) 0.1488(4) 0.1120 Uani
H31 H 0.4712 0.4566 0.1523 0.1340 Uiso
C47 C 0.5102(3) 0.3956(5) 0.1825(3) 0.1253 Uani
H32 H 0.5148 0.4191 0.2081 0.1500 Uiso
C48 C 0.5290(3) 0.3381(5) 0.1763(3) 0.0827 Uani
C49 C 0.5228(2) 0.3058(4) 0.1380(3) 0.1140 Uani
H33 H 0.5366 0.2687 0.1328 0.1360 Uiso
C50 C 0.4959(3) 0.3280(5) 0.1066(3) 0.1293 Uani
H34 H 0.4909 0.3042 0.0812 0.1550 Uiso
C51 C 0.5601(2) 0.3150(4) 0.2078(3) 0.0700 Uani
C52 C 0.4556(3) 0.2376(5) -0.0384(3) 0.1160 Uani
H35 H 0.4789 0.2326 -0.0572 0.1390 Uiso
H36 H 0.4648 0.2421 -0.0079 0.1390 Uiso
C53 C 0.4398(2) 0.3503(4) -0.0195(3) 0.1043 Uani
H37 H 0.4325 0.3899 -0.0334 0.1250 Uiso
H38 H 0.4676 0.3525 -0.0109 0.1250 Uiso
C54 C 0.4411(2) 0.3167(5) -0.1004(3) 0.1253 Uani
H39 H 0.4311 0.3588 -0.1056 0.1500 Uiso
H40 H 0.4694 0.3161 -0.1069 0.1500 Uiso
C55 C 0.4191(3) 0.2694(5) -0.1299(3) 0.1277 Uani
H41 H 0.4241 0.2781 -0.1611 0.1530 Uiso
H42 H 0.4278 0.2269 -0.1233 0.1530 Uiso
C56 C 0.3590(2) 0.3353(4) -0.1374(2) 0.0857 Uani
H43 H 0.3358 0.3248 -0.1553 0.1030 Uiso
H44 H 0.3785 0.3545 -0.1570 0.1030 Uiso
C57 C 0.3509(3) 0.2230(4) -0.1338(3) 0.1220 Uani
H45 H 0.3648 0.1836 -0.1288 0.1460 Uiso
H46 H 0.3444 0.2264 -0.1652 0.1460 Uiso
C58 C 0.3474(3) -0.0603(4) -0.1898(3) 0.0670 Uani
C59 C 0.3282(3) -0.0011(5) -0.1815(3) 0.0727 Uani
C60 C 0.3345(3) 0.0450(6) -0.2099(3) 0.1107 Uani
H47 H 0.3517 0.0386 -0.2337 0.1330 Uiso
C61 C 0.3158(4) 0.1037(6) -0.2052(3) 0.1420 Uani
H48 H 0.3208 0.1360 -0.2253 0.1710 Uiso
C62 C 0.2905(3) 0.1120(4) -0.1709(4) 0.0837 Uani
C63 C 0.2846(3) 0.0648(6) -0.1413(4) 0.1950 Uani
H49 H 0.2680 0.0707 -0.1168 0.2340 Uiso
C64 C 0.3035(3) 0.0073(4) -0.1481(4) 0.1523 Uani
H50 H 0.2985 -0.0257 -0.1286 0.1830 Uiso
C65 C 0.1713(2) 0.3021(3) -0.2042(3) 0.0617 Uani
N1 N 0.3918(2) 0.1875(3) -0.0408(2) 0.1063 Uani
N2 N 0.4438(3) 0.1210(5) -0.0392(3) 0.1533 Uani
N3 N 0.3121(3) 0.2490(3) -0.0644(3) 0.0787 Uani
N4 N 0.2781(4) 0.2027(3) -0.1200(3) 0.0943 Uani
N5 N 0.3260(2) 0.4365(4) -0.1109(3) 0.0757 Uani
N6 N 0.35346(18) 0.3724(3) -0.0590(3) 0.0790 Uani
N7 N 0.3821(3) 0.2998(3) 0.0203(3) 0.0873 Uani
N8 N 0.4178(3) 0.3618(4) 0.0640(4) 0.1050 Uani
N9 N 0.43367(19) 0.2974(3) -0.0520(3) 0.0890 Uani
N10 N 0.3759(2) 0.2770(4) -0.11939(19) 0.0897 Uani
O1 O 0.56164(16) 0.1287(3) 0.15622(17) 0.0953 Uani
O2 O 0.60335(15) 0.1878(3) 0.11836(15) 0.0863 Uani
O3 O 0.33458(13) -0.1094(2) -0.16926(13) 0.0637 Uani
O4 O 0.37647(17) -0.0648(2) -0.21389(16) 0.0903 Uani
O5 O 0.15327(13) 0.3177(2) -0.23867(13) 0.0683 Uani
O6 O 0.56515(14) 0.3475(2) 0.24248(15) 0.0717 Uani
O7 O 0.16272(13) 0.2548(2) -0.18043(13) 0.0553 Uani
O8 O 0.57457(13) 0.2651(2) 0.19995(17) 0.0733 Uani
C66 C 0.2680(2) 0.1760(4) -0.1623(3) 0.1120 Uiso
H51 H 0.2394 0.1688 -0.1634 0.1350 Uiso
H52 H 0.2748 0.2056 -0.1856 0.1350 Uiso
Tb1B Tb 0.613432(10) 0.322084(15) 0.299678(10) 0.0588 Uani
Tb1D Tb 0.386568(10) -0.177916(15) -0.200322(10) 0.0588 Uani
Tb1E Tb 0.113432(10) 0.177916(15) -0.200322(10) 0.0588 Uani
Tb1G Tb 0.113432(10) 0.322084(15) -0.299678(10) 0.0588 Uani
O3D O 0.66542(13) 0.1094(2) 0.16926(13) 0.0637 Uani
O4D O 0.62353(17) 0.0648(2) 0.21389(16) 0.0903 Uani
O5G O 0.65327(13) 0.1823(2) 0.26133(13) 0.0683 Uani
O6B O 0.56515(14) 0.1525(2) 0.25752(15) 0.0717 Uani
O7E O 0.66272(13) 0.2548(2) 0.18043(13) 0.0553 Uani
loop_
_atom_site_aniso_label
_atom_site_aniso_U_11
_atom_site_aniso_U_22
_atom_site_aniso_U_33
_atom_site_aniso_U_23
_atom_site_aniso_U_13
_atom_site_aniso_U_12
Ni1 0.0737(8) 0.0769(8) 0.0963(8) -0.0182(6) -0.0292(6) 0.0138(7)
Tb1 0.0500(2) 0.0666(2) 0.0598(2) -0.0078(2) -0.0024(2) -0.0011(3)
C1 0.060(7) 0.081(8) 0.057(7) -0.022(5) -0.004(6) 0.000(5)
C2 0.082(8) 0.086(7) 0.084(8) -0.035(6) -0.019(7) 0.019(6)
C3 0.097(9) 0.123(9) 0.155(11) -0.002(7) -0.033(8) -0.017(7)
C4 0.097(10) 0.161(11) 0.147(11) -0.064(10) -0.090(10) 0.030(8)
C5 0.120(13) 0.163(13) 0.076(9) -0.043(9) -0.061(10) 0.054(10)
C6 0.118(11) 0.183(13) 0.071(8) -0.033(7) -0.037(8) 0.063(9)
C7 0.123(9) 0.179(10) 0.068(7) -0.002(8) -0.014(8) 0.019(8)
C8 0.174(12) 0.131(9) 0.173(10) -0.074(7) -0.107(10) 0.067(9)
C9 0.083(9) 0.115(10) 0.122(7) -0.040(8) -0.054(7) -0.004(10)
C10 0.138(12) 0.054(7) 0.267(11) -0.022(7) -0.125(10) 0.034(9)
C11 0.110(11) 0.169(16) 0.250(12) -0.112(12) -0.122(10) 0.071(11)
C12 0.166(13) 0.065(8) 0.402(16) -0.039(10) -0.132(11) 0.034(8)
C13 0.180(14) 0.130(10) 0.51(2) -0.071(11) -0.116(16) 0.005(13)
C14 0.212(15) 0.073(9) 0.51(2) 0.039(13) -0.056(14) -0.055(11)
C15 0.130(11) 0.147(13) 0.356(15) 0.059(11) -0.146(11) -0.076(9)
C16 0.064(9) 0.074(7) 0.150(13) -0.022(7) -0.058(9) 0.028(7)
C17 0.052(8) 0.074(7) 0.139(11) 0.020(7) -0.021(9) 0.012(6)
C18 0.108(12) 0.056(6) 0.129(11) 0.004(7) -0.078(10) -0.012(7)
C19 0.109(12) 0.138(9) 0.111(9) -0.002(7) -0.004(8) 0.010(9)
C20 0.064(10) 0.241(15) 0.178(14) 0.039(11) -0.001(9) -0.017(9)
C21 0.108(13) 0.231(16) 0.183(16) 0.068(13) -0.067(12) -0.057(11)
C22 0.111(13) 0.121(11) 0.186(14) 0.067(10) -0.083(11) -0.057(9)
C23 0.097(7) 0.087(7) 0.094(7) 0.014(5) -0.038(6) -0.018(6)
C24 0.070(7) 0.048(6) 0.073(7) 0.002(5) -0.026(6) -0.010(5)
C25 0.050(6) 0.059(6) 0.060(6) 0.006(5) -0.018(5) 0.009(5)
C26 0.066(6) 0.065(6) 0.048(5) 0.011(5) -0.012(4) 0.022(6)
C27 0.050(5) 0.035(6) 0.083(7) 0.000(5) -0.002(5) 0.003(4)
C28 0.070(6) 0.063(6) 0.036(5) 0.012(5) 0.002(5) 0.007(5)
C29 0.077(6) 0.063(5) 0.061(7) 0.011(5) -0.016(5) -0.014(5)
C30 0.063(6) 0.073(8) 0.074(8) -0.005(6) -0.014(6) -0.007(6)
C31 0.085(7) 0.039(6) 0.112(9) 0.002(7) -0.045(7) 0.025(5)
C32 0.096(8) 0.059(8) 0.111(9) -0.023(7) -0.035(7) -0.004(6)
C33 0.121(9) 0.045(7) 0.218(14) -0.004(8) -0.065(9) 0.018(6)
C34 0.160(11) 0.101(10) 0.167(12) -0.075(10) -0.017(10) 0.030(8)
C35 0.216(14) 0.137(12) 0.126(10) -0.020(9) -0.081(9) 0.086(10)
C36 0.144(9) 0.100(9) 0.111(9) -0.036(7) -0.050(7) 0.046(7)
C37 0.081(9) 0.065(8) 0.123(11) 0.006(7) -0.066(8) 0.015(6)
C38 0.164(16) 0.166(14) 0.060(9) 0.015(9) -0.022(11) 0.068(11)
C39 0.117(11) 0.169(12) 0.111(12) 0.030(11) -0.003(12) -0.005(11)
C40 0.123(13) 0.255(16) 0.140(14) -0.020(11) -0.055(12) -0.015(12)
C41 0.180(19) 0.42(3) 0.096(11) 0.055(14) -0.055(12) 0.001(17)
C42 0.134(14) 0.60(3) 0.087(11) 0.084(15) -0.007(10) 0.012(17)
C43 0.134(12) 0.234(14) 0.139(14) 0.064(11) -0.006(9) -0.061(10)
C44 0.166(11) 0.094(8) 0.152(9) -0.010(7) -0.095(8) 0.023(8)
C45 0.114(9) 0.079(8) 0.121(9) -0.049(7) -0.066(7) 0.041(7)
C46 0.108(9) 0.065(7) 0.163(10) -0.051(7) -0.042(7) 0.043(6)
C47 0.106(9) 0.110(9) 0.160(10) -0.050(7) -0.071(7) 0.043(7)
C48 0.062(7) 0.106(9) 0.080(7) -0.023(6) -0.012(6) 0.001(6)
C49 0.108(8) 0.142(9) 0.092(7) -0.032(7) -0.061(6) 0.030(7)
C50 0.165(10) 0.124(9) 0.099(7) -0.064(7) -0.056(7) 0.047(8)
C51 0.069(6) 0.070(6) 0.071(7) -0.036(6) -0.014(6) -0.004(6)
C52 0.089(9) 0.163(11) 0.096(7) -0.031(7) -0.036(6) 0.065(9)
C53 0.071(7) 0.122(9) 0.120(8) 0.020(8) -0.020(7) 0.003(6)
C54 0.073(7) 0.220(11) 0.083(7) 0.003(8) -0.016(6) 0.027(8)
C55 0.048(7) 0.209(11) 0.126(8) -0.029(8) -0.020(6) 0.026(7)
C56 0.089(7) 0.097(8) 0.071(6) -0.015(6) -0.005(5) 0.000(6)
C57 0.137(11) 0.106(8) 0.123(8) -0.066(6) -0.074(8) 0.031(8)
C58 0.059 0.067 0.075 0.004 0.005 -0.019
C59 0.074 0.049 0.095 -0.008 -0.017 -0.01
C60 0.167 0.091 0.074 -0.04 -0.014 0.028
C61 0.208 0.164 0.054 -0.033 0 0.043
C62 0.06 0.044 0.147 -0.019 -0.051 -0.011
C63 0.104 0.071 0.41 0.019 0.118 -0.014
C64 0.15 0.023 0.284 0.012 0.08 0.028
C65 0.078 0.043 0.064 0.006 -0.006 0.019
N1 0.087(6) 0.087(6) 0.145(6) -0.034(4) -0.073(6) 0.023(6)
N2 0.131(10) 0.114(8) 0.215(9) -0.080(7) -0.111(8) 0.094(8)
N3 0.090(8) 0.068(5) 0.078(6) -0.006(4) -0.039(6) 0.011(5)
N4 0.109(8) 0.069(6) 0.105(7) -0.015(5) -0.029(7) 0.030(5)
N5 0.074(6) 0.049(5) 0.104(7) 0.026(5) -0.032(5) -0.008(4)
N6 0.090(6) 0.074(6) 0.073(5) -0.027(4) -0.020(4) 0.016(4)
N7 0.088(6) 0.077(5) 0.097(6) -0.017(4) -0.043(6) 0.016(5)
N8 0.113(8) 0.089(6) 0.113(7) -0.034(6) -0.083(7) 0.009(6)
N9 0.067(5) 0.087(6) 0.113(7) -0.041(5) -0.032(5) 0.005(4)
N10 0.110(8) 0.086(6) 0.073(5) -0.029(4) -0.019(5) 0.017(6)
O1 0.088(5) 0.140(5) 0.058(4) -0.003(4) -0.016(3) -0.025(4)
O2 0.068(4) 0.116(5) 0.075(3) -0.013(3) -0.018(3) 0.003(4)
O3 0.055 0.074 0.062 -0.013 0.014 0.01
O4 0.093 0.082 0.096 -0.017 0.01 -0.011
O5 0.07 0.077 0.058 0.015 -0.014 0.007
O6 0.079 0.079 0.057 -0.008 -0.004 0.019
O7 0.055 0.052 0.059 -0.007 0.006 -0.006
O8 0.071(4) 0.062(3) 0.087(4) -0.020(4) -0.006(3) 0.017(3)
Tb1B 0.05 0.0666 0.0598 -0.0078 0.0024 0.0011
Tb1D 0.05 0.0666 0.0598 -0.0078 -0.0024 -0.0011
Tb1E 0.05 0.0666 0.0598 0.0078 0.0024 -0.0011
Tb1G 0.05 0.0666 0.0598 0.0078 -0.0024 0.0011
O3D 0.055 0.074 0.062 -0.013 0.014 0.01
O4D 0.093 0.082 0.096 -0.017 0.01 -0.011
O5G 0.07 0.077 0.058 -0.015 -0.014 -0.007
O6B 0.079 0.079 0.057 -0.008 0.004 -0.019
O7E 0.055 0.052 0.059 0.007 -0.006 -0.006
loop_
_geom_bond_atom_site_label_1
_geom_bond_atom_site_label_2
_geom_bond_site_symmetry_1
_geom_bond_site_symmetry_2
Ni1 N1 1_555 1_555
Tb1 O1 1_555 1_555
C1 C2 1_555 1_555
C2 C3 1_555 1_555
C3 H1 1_555 1_555
C4 C3 1_555 1_555
H2 C4 1_555 1_555
C5 C4 1_555 1_555
C6 C5 1_555 1_555
H3 C6 1_555 1_555
C7 C2 1_555 1_555
H4 C7 1_555 1_555
C8 C5 1_555 1_555
H5 C8 1_555 1_555
H6 C8 1_555 1_555
C9 C52 1_555 1_555
C10 C11 1_555 1_555
C11 C12 1_555 1_555
C12 H7 1_555 1_555
C13 C12 1_555 1_555
H8 C13 1_555 1_555
C14 C13 1_555 1_555
H9 C14 1_555 1_555
C15 C10 1_555 1_555
H10 C15 1_555 1_555
C16 C57 1_555 1_555
C17 C18 1_555 1_555
C18 C22 1_555 1_555
C19 C17 1_555 1_555
H11 C19 1_555 1_555
C20 C19 1_555 1_555
H12 C20 1_555 1_555
C21 C20 1_555 1_555
H13 C21 1_555 1_555
C22 C21 1_555 1_555
H14 C22 1_555 1_555
C23 H15 1_555 1_555
H16 C23 1_555 1_555
C24 C23 1_555 1_555
C25 C24 1_555 1_555
H17 C25 1_555 1_555
C26 C25 1_555 1_555
H18 C26 1_555 1_555
C27 C26 1_555 1_555
C28 C27 1_555 1_555
H19 C28 1_555 1_555
C29 C24 1_555 1_555
H20 C29 1_555 1_555
C30 C56 1_555 1_555
C31 C32 1_555 1_555
C32 C33 1_555 1_555
C33 H21 1_555 1_555
C34 C33 1_555 1_555
H22 C34 1_555 1_555
C35 C34 1_555 1_555
H23 C35 1_555 1_555
C36 C31 1_555 1_555
H24 C36 1_555 1_555
C37 C53 1_555 1_555
C38 C39 1_555 1_555
C39 C40 1_555 1_555
C40 H25 1_555 1_555
C41 C40 1_555 1_555
H26 C41 1_555 1_555
C42 C41 1_555 1_555
H27 C42 1_555 1_555
C43 C38 1_555 1_555
H28 C43 1_555 1_555
C44 H29 1_555 1_555
H30 C44 1_555 1_555
C45 C44 1_555 1_555
C46 C45 1_555 1_555
H31 C46 1_555 1_555
C47 C46 1_555 1_555
H32 C47 1_555 1_555
C48 C47 1_555 1_555
C49 C48 1_555 1_555
H33 C49 1_555 1_555
C50 C45 1_555 1_555
H34 C50 1_555 1_555
C51 C48 1_555 1_555
C52 H35 1_555 1_555
H36 C52 1_555 1_555
C53 H37 1_555 1_555
H38 C53 1_555 1_555
C54 H39 1_555 1_555
H40 C54 1_555 1_555
C55 C54 1_555 1_555
H41 C55 1_555 1_555
H42 C55 1_555 1_555
C56 H43 1_555 1_555
H44 C56 1_555 1_555
C57 H45 1_555 1_555
H46 C57 1_555 1_555
C58 C59 1_555 1_555
C59 C60 1_555 1_555
C60 H47 1_555 1_555
C61 C60 1_555 1_555
H48 C61 1_555 1_555
C62 C61 1_555 1_555
C63 C62 1_555 1_555
H49 C63 1_555 1_555
C64 C59 1_555 1_555
H50 C64 1_555 1_555
C65 C27 1_555 1_555
N1 C9 1_555 1_555
N2 C8 1_555 1_555
N3 Ni1 1_555 1_555
N4 C16 1_555 1_555
N5 C23 1_555 1_555
N6 Ni1 1_555 1_555
N7 Ni1 1_555 1_555
N8 C37 1_555 1_555
N9 Ni1 1_555 1_555
N10 Ni1 1_555 1_555
O1 C1 1_555 1_555
O2 Tb1 1_555 1_555
O3 C58 1_555 1_555
O4 C58 1_555 1_555
O5 C65 1_555 1_555
O6 C51 1_555 1_555
O7 C65 1_555 1_555
O8 Tb1 1_555 1_555
C66 C62 1_555 1_555
H51 C66 1_555 1_555
H52 C66 1_555 1_555
Tb1B O6 1_555 1_555
Tb1D O3 1_555 1_555
Tb1E O7 1_555 1_555
Tb1G O5 1_555 1_555
O3D Tb1 1_555 1_555
O4D Tb1 1_555 1_555
O5G Tb1 1_555 1_555
O6B Tb1 1_555 1_555
O7E Tb1 1_555 1_555
C1 O2 1_555 1_555
C6 C7 1_555 1_555
C9 N2 1_555 1_555
C10 N1 1_555 1_555
C11 N2 1_555 1_555
C14 C15 1_555 1_555
C16 N3 1_555 1_555
C17 N3 1_555 1_555
C18 N4 1_555 1_555
C28 C29 1_555 1_555
C30 N5 1_555 1_555
C30 N6 1_555 1_555
C31 N6 1_555 1_555
C32 N5 1_555 1_555
C35 C36 1_555 1_555
C37 N7 1_555 1_555
C38 N7 1_555 1_555
C39 N8 1_555 1_555
C42 C43 1_555 1_555
C44 N8 1_555 1_555
C49 C50 1_555 1_555
C51 O8 1_555 1_555
C52 N9 1_555 1_555
C53 N9 1_555 1_555
C54 N9 1_555 1_555
C55 N10 1_555 1_555
C56 N10 1_555 1_555
C57 N10 1_555 1_555
C63 C64 1_555 1_555
N4 C66 1_555 1_555
O4 Tb1D 1_555 1_555

#END
