
#######################################################################
#
#                 Cambridge Crystallographic Data Centre
#                                CCDC 
#
#######################################################################
#
# If this CIF has been generated from an entry in the Cambridge 
# Structural Database, then it will include bibliographic, chemical, 
# crystal, experimental, refinement or atomic coordinate data resulting 
# from the CCDC's data processing and validation procedures.
#
#######################################################################

data_RIFMOK
_chemical_formula_moiety         '(C66 H52 Eu1 N10 Ni1 O8 1+)n'
_symmetry_cell_setting           orthorhombic
_symmetry_space_group_name_H-M   'P n n a'
_symmetry_Int_Tables_number      52
_space_group_name_Hall           '-P 2a 2bc'
loop_
_symmetry_equiv_pos_site_id
_symmetry_equiv_pos_as_xyz
1 x,y,z
2 1/2-x,-y,z
3 x,1/2-y,1/2-z
4 1/2-x,1/2+y,1/2-z
5 -x,-y,-z
6 1/2+x,y,-z
7 -x,1/2+y,1/2+z
8 1/2+x,1/2-y,1/2+z
_cell_length_a                   33.621(3)
_cell_length_b                   21.4450(19)
_cell_length_c                   30.163(3)
_cell_angle_alpha                90
_cell_angle_beta                 90
_cell_angle_gamma                90
_cell_volume                     21747.6
loop_
_atom_site_label
_atom_site_type_symbol
_atom_site_fract_x
_atom_site_fract_y
_atom_site_fract_z
_atom_site_U_iso_or_equiv
_atom_site_thermal_displace_type
C1 C 0.31433(18) 0.7266(3) 0.3938(3) 0.0920 Uani
C2 C 0.57393(19) 0.6546(3) 0.6205(2) 0.0773 Uani
C3 C 0.25364(15) 0.71248(19) 0.41310(15) 0.1137 Uani
C4 C 0.27562(11) 0.74243(19) 0.44581(18) 0.0850 Uani
C5 C 0.25738(17) 0.76059(19) 0.48510(16) 0.1373 Uani
H1 H 0.2721 0.7806 0.5070 0.1650 Uiso
C6 C 0.21716(18) 0.7488(2) 0.49168(17) 0.1560 Uani
H2 H 0.2050 0.7609 0.5180 0.1870 Uiso
C7 C 0.19518(11) 0.7188(2) 0.4590(2) 0.1907 Uani
H3 H 0.1683 0.7110 0.4634 0.2290 Uiso
C8 C 0.21341(15) 0.70069(19) 0.41969(19) 0.1410 Uani
H4 H 0.1987 0.6807 0.3978 0.1690 Uiso
C9 C 0.34626(15) 0.4370(2) 0.31163(18) 0.0647 Uani
C10 C 0.34760(16) 0.8808(3) 0.3956(2) 0.0777 Uani
C11 C 0.32046(12) 0.9620(2) 0.42795(12) 0.0847 Uani
C12 C 0.33710(11) 0.92307(15) 0.45980(14) 0.0850 Uani
C13 C 0.33552(13) 0.93953(19) 0.50434(13) 0.1120 Uani
H5 H 0.3467 0.9135 0.5256 0.1350 Uiso
C14 C 0.31729(15) 0.9949(2) 0.51703(14) 0.1637 Uani
H6 H 0.3162 1.0059 0.5468 0.1960 Uiso
C15 C 0.30065(13) 1.03382(17) 0.4852(2) 0.1480 Uani
H7 H 0.2885 1.0709 0.4937 0.1770 Uiso
C16 C 0.30223(12) 1.01735(19) 0.44064(18) 0.1250 Uani
H8 H 0.2911 1.0434 0.4193 0.1500 Uiso
C17 C 0.41549(18) 0.8381(2) 0.5195(2) 0.0783 Uani
C18 C 0.36887(15) 0.7957(2) 0.55901(14) 0.1180 Uani
C19 C 0.39030(13) 0.8355(2) 0.5864(2) 0.1090 Uani
C20 C 0.37923(19) 0.8428(3) 0.63054(18) 0.1737 Uani
H9 H 0.3936 0.8694 0.6489 0.2080 Uiso
C21 C 0.3467(2) 0.8103(3) 0.64719(14) 0.2337 Uani
H10 H 0.3393 0.8152 0.6767 0.2800 Uiso
C22 C 0.32529(15) 0.7705(3) 0.6198(2) 0.2013 Uani
H11 H 0.3035 0.7488 0.6309 0.2420 Uiso
C23 C 0.33636(15) 0.7632(2) 0.5757(2) 0.1493 Uani
H12 H 0.3220 0.7366 0.5573 0.1790 Uiso
C24 C 0.4313(2) 0.6859(4) 0.4588(2) 0.1260 Uani
C25 C 0.55930(15) 0.8163(3) 0.70937(19) 0.0767 Uani
C26 C 0.45685(18) 0.7418(3) 0.4616(2) 0.1173 Uani
H13 H 0.4796 0.7368 0.4422 0.1410 Uiso
H14 H 0.4666 0.7464 0.4917 0.1410 Uiso
C27 C 0.44147(18) 0.8170(3) 0.4002(2) 0.1210 Uani
H15 H 0.4331 0.8597 0.3949 0.1450 Uiso
H16 H 0.4697 0.8142 0.3940 0.1450 Uiso
C28 C 0.41907(17) 0.7738(4) 0.3701(2) 0.1380 Uani
H17 H 0.4281 0.7313 0.3747 0.1650 Uiso
H18 H 0.4241 0.7849 0.3394 0.1650 Uiso
C29 C 0.3496(2) 0.7228(3) 0.3670(2) 0.1357 Uani
H19 H 0.3428 0.7245 0.3358 0.1630 Uiso
H20 H 0.3636 0.6841 0.3728 0.1630 Uiso
C30 C 0.35849(19) 0.8372(3) 0.36154(19) 0.0953 Uani
H21 H 0.3780 0.8564 0.3422 0.1140 Uiso
H22 H 0.3352 0.8275 0.3439 0.1140 Uiso
C31 C 0.44039(18) 0.8517(3) 0.4811(2) 0.1000 Uani
H23 H 0.4682 0.8534 0.4897 0.1200 Uiso
H24 H 0.4330 0.8915 0.4682 0.1200 Uiso
C32 C 0.4875(2) 0.6093(3) 0.4566(3) 0.1600 Uani
H25 H 0.4996 0.6344 0.4335 0.1920 Uiso
H26 H 0.4901 0.5659 0.4479 0.1920 Uiso
C33 C 0.51058(14) 0.6195(2) 0.49991(14) 0.1350 Uani
C34 C 0.49709(12) 0.5946(2) 0.53971(18) 0.1673 Uani
H27 H 0.4741 0.5706 0.5403 0.2010 Uiso
C35 C 0.51803(14) 0.6056(2) 0.57868(14) 0.1367 Uani
H28 H 0.5090 0.5890 0.6053 0.1640 Uiso
C36 C 0.55245(12) 0.6415(2) 0.57783(13) 0.0860 Uani
C37 C 0.56594(11) 0.6664(2) 0.53802(17) 0.1337 Uani
H29 H 0.5890 0.6904 0.5374 0.1600 Uiso
C38 C 0.54501(16) 0.6554(2) 0.49906(13) 0.1433 Uani
H30 H 0.5540 0.6720 0.4724 0.1720 Uiso
C39 C 0.30929(17) 0.9518(3) 0.3458(2) 0.1060 Uani
H31 H 0.3286 0.9471 0.3222 0.1270 Uiso
H32 H 0.3019 0.9955 0.3473 0.1270 Uiso
C40 C 0.27243(14) 0.9129(2) 0.33487(17) 0.0673 Uani
C41 C 0.25552(14) 0.8714(2) 0.36557(15) 0.0613 Uani
H33 H 0.2659 0.8679 0.3941 0.0740 Uiso
C42 C 0.22327(14) 0.83603(18) 0.35269(15) 0.0540 Uani
H34 H 0.2122 0.8081 0.3728 0.0650 Uiso
C43 C 0.20694(13) 0.84067(19) 0.31119(17) 0.0573 Uani
C44 C 0.22313(14) 0.8828(2) 0.28120(15) 0.0630 Uani
H35 H 0.2120 0.8870 0.2531 0.0760 Uiso
C45 C 0.25598(16) 0.9190(2) 0.29296(16) 0.0740 Uani
H36 H 0.2668 0.9470 0.2728 0.0890 Uiso
C46 C 0.47758(17) 0.8844(2) 0.6097(2) 0.0847 Uani
C47 C 0.4970(2) 0.8289(3) 0.6054(2) 0.1187 Uani
H37 H 0.4923 0.8052 0.5801 0.1420 Uiso
C48 C 0.5229(2) 0.8065(3) 0.6363(2) 0.1160 Uani
H38 H 0.5363 0.7692 0.6311 0.1390 Uiso
C49 C 0.52975(15) 0.8399(3) 0.6766(2) 0.0807 Uani
C50 C 0.50863(18) 0.8963(3) 0.6806(2) 0.1013 Uani
H39 H 0.5128 0.9210 0.7056 0.1220 Uiso
C51 C 0.48272(19) 0.9158(3) 0.6497(2) 0.1180 Uani
H40 H 0.4677 0.9513 0.6552 0.1420 Uiso
C52 C 0.4479(2) 0.9067(3) 0.5766(2) 0.1273 Uani
H41 H 0.4335 0.9416 0.5893 0.1530 Uiso
H42 H 0.4621 0.9221 0.5508 0.1530 Uiso
C53 C 0.26876(19) 0.6754(2) 0.3380(3) 0.1260 Uani
H43 H 0.2743 0.7046 0.3142 0.1510 Uiso
H44 H 0.2404 0.6672 0.3380 0.1510 Uiso
C54 C 0.29112(13) 0.61417(15) 0.32895(18) 0.1140 Uani
C55 C 0.28272(12) 0.5659(2) 0.35827(17) 0.1577 Uani
H45 H 0.2648 0.5722 0.3813 0.1890 Uiso
C56 C 0.30108(14) 0.50831(17) 0.35311(16) 0.1557 Uani
H46 H 0.2955 0.4760 0.3727 0.1870 Uiso
C57 C 0.32785(12) 0.49894(15) 0.31862(16) 0.0867 Uani
C58 C 0.33625(14) 0.5472(2) 0.28930(13) 0.1327 Uani
H47 H 0.3542 0.5409 0.2662 0.1590 Uiso
C59 C 0.31788(16) 0.60479(19) 0.29446(15) 0.1563 Uani
H48 H 0.3235 0.6371 0.2748 0.1880 Uiso
C60 C 0.3803(2) 0.62845(19) 0.4600(2) 0.1557 Uani
C61 C 0.41281(15) 0.5884(3) 0.4589(2) 0.2133 Uani
C62 C 0.4070(2) 0.5243(3) 0.4607(2) 0.2090 Uani
H49 H 0.4288 0.4975 0.4600 0.2510 Uiso
C63 C 0.3687(3) 0.5002(2) 0.4636(3) 0.3290 Uani
H50 H 0.3649 0.4573 0.4648 0.3940 Uiso
C64 C 0.33623(18) 0.5402(3) 0.4647(3) 0.2767 Uani
H51 H 0.3106 0.5241 0.4666 0.3320 Uiso
C65 C 0.34201(17) 0.6043(3) 0.4629(3) 0.2817 Uani
H52 H 0.3203 0.6311 0.4636 0.3360 Uiso
N1 N 0.35382(12) 0.87151(19) 0.43964(15) 0.0790 Uani
N2 N 0.38376(15) 0.7987(2) 0.51630(16) 0.0907 Uani
N3 N 0.43364(13) 0.7998(2) 0.44843(19) 0.0960 Uani
N4 N 0.39316(17) 0.6903(2) 0.4584(2) 0.1217 Uani
N5 N 0.37525(13) 0.7783(3) 0.37968(15) 0.0973 Uani
N6 N 0.31454(14) 0.74936(19) 0.43465(18) 0.0830 Uani
N7 N 0.41925(14) 0.8603(2) 0.56203(17) 0.0863 Uani
N8 N 0.27966(17) 0.7036(2) 0.3797(2) 0.0987 Uani
N9 N 0.32721(14) 0.9336(2) 0.38724(15) 0.0850 Uani
N10 N 0.44516(19) 0.6248(3) 0.4594(2) 0.1573 Uani
O1 O 0.33313(10) 0.39040(15) 0.33051(12) 0.0773 Uani
O2 O 0.57512(10) 0.76559(16) 0.70062(12) 0.0830 Uani
O3 O 0.37564(12) 0.43409(15) 0.28603(13) 0.0913 Uani
O4 O 0.56573(10) 0.84883(15) 0.74348(12) 0.0770 Uani
O5 O 0.60508(12) 0.68662(17) 0.61874(11) 0.0887 Uani
O6 O 0.56181(12) 0.6286(2) 0.65426(15) 0.1067 Uani
Ni1 Ni 0.37114(2) 0.77937(3) 0.45139(3) 0.0806 Uani
Eu1 Eu 0.385747(7) 0.321916(11) 0.299671(8) 0.0581 Uani
O7 O 0.15419(9) 0.81748(15) 0.26184(11) 0.0720 Uani
O8 O 0.16391(9) 0.75425(15) 0.31992(11) 0.0713 Uani
C66 C 0.17249(14) 0.8013(2) 0.29612(19) 0.0597 Uani
O2D O 0.42488(10) 0.23441(16) 0.29938(12) 0.0830 Uani
O4F O 0.43427(10) 0.34883(15) 0.24348(12) 0.0770 Uani
O5D O 0.39492(12) 0.31338(17) 0.38126(11) 0.0887 Uani
O6D O 0.43819(12) 0.3714(2) 0.34574(15) 0.1067 Uani
Eu1A Eu 0.114253(7) 0.678084(11) 0.299671(8) 0.0581 Uani
Eu1C Eu 0.114253(7) 0.821916(11) 0.200329(8) 0.0581 Uani
Eu1D Eu 0.614253(7) 0.678084(11) 0.700329(8) 0.0581 Uani
Eu1F Eu 0.614253(7) 0.821916(11) 0.799671(8) 0.0581 Uani
O7C O 0.34581(9) 0.31748(15) 0.23816(11) 0.0720 Uani
O8A O 0.33609(9) 0.24575(15) 0.31992(11) 0.0713 Uani
loop_
_atom_site_aniso_label
_atom_site_aniso_U_11
_atom_site_aniso_U_22
_atom_site_aniso_U_33
_atom_site_aniso_U_23
_atom_site_aniso_U_13
_atom_site_aniso_U_12
C1 0.062(4) 0.063(4) 0.151(7) -0.005(4) -0.013(5) 0.031(3)
C2 0.072 0.08 0.08 -0.018 -0.024 0.014
C3 0.090(5) 0.058(4) 0.193(9) 0.027(5) -0.078(6) -0.012(4)
C4 0.089(5) 0.078(4) 0.088(5) 0.020(4) -0.002(4) 0.016(4)
C5 0.104(6) 0.132(6) 0.176(9) 0.041(6) -0.048(6) -0.034(5)
C6 0.090(6) 0.213(9) 0.165(8) 0.072(7) -0.016(5) -0.024(6)
C7 0.119(7) 0.254(11) 0.199(8) 0.131(8) -0.040(6) -0.050(6)
C8 0.110(6) 0.114(5) 0.199(8) 0.097(5) -0.080(5) -0.045(4)
C9 0.060(3) 0.057(3) 0.077(4) -0.011(3) 0.003(3) -0.002(3)
C10 0.079(4) 0.060(3) 0.094(5) -0.018(4) -0.018(4) -0.003(3)
C11 0.100(4) 0.060(4) 0.094(5) 0.003(4) -0.035(4) -0.011(3)
C12 0.119(5) 0.066(4) 0.070(4) -0.026(3) -0.030(4) 0.005(3)
C13 0.135(6) 0.097(5) 0.104(5) -0.025(4) -0.039(4) 0.036(4)
C14 0.235(9) 0.149(7) 0.107(6) -0.069(5) -0.056(6) 0.114(6)
C15 0.185(8) 0.069(5) 0.190(9) -0.046(6) -0.046(7) 0.035(5)
C16 0.148(6) 0.059(4) 0.168(8) -0.007(5) -0.055(6) 0.016(4)
C17 0.088(4) 0.064(4) 0.083(5) 0.002(3) -0.031(4) 0.010(3)
C18 0.104(5) 0.118(6) 0.132(6) -0.012(4) -0.020(4) 0.007(3)
C19 0.118(5) 0.106(5) 0.103(5) 0.002(4) -0.023(4) 0.011(3)
C20 0.158(8) 0.275(11) 0.088(6) -0.007(7) -0.023(6) -0.007(7)
C21 0.232(12) 0.379(16) 0.090(5) -0.010(6) 0.037(7) -0.021(10)
C22 0.195(7) 0.260(8) 0.149(5) 0.045(6) 0.010(5) -0.005(6)
C23 0.132(6) 0.168(7) 0.148(5) 0.000(6) -0.018(5) -0.026(4)
C24 0.119(6) 0.132(6) 0.127(6) -0.067(5) -0.076(5) 0.028(5)
C25 0.058(3) 0.101(4) 0.071(4) -0.006(4) 0.002(3) 0.009(3)
C26 0.079(4) 0.156(6) 0.117(6) -0.037(5) -0.047(4) 0.041(5)
C27 0.081(4) 0.189(7) 0.093(5) -0.007(5) -0.007(4) -0.015(5)
C28 0.071(4) 0.236(8) 0.107(5) -0.070(6) -0.026(4) 0.048(5)
C29 0.130(6) 0.122(5) 0.155(7) -0.071(5) -0.084(6) 0.028(5)
C30 0.107(5) 0.108(5) 0.071(4) -0.003(4) -0.013(4) -0.004(4)
C31 0.106(5) 0.108(5) 0.086(5) -0.006(4) -0.021(4) -0.011(4)
C32 0.173(6) 0.158(6) 0.149(6) -0.046(5) -0.049(5) 0.073(5)
C33 0.121(6) 0.155(7) 0.129(5) -0.098(5) -0.083(5) 0.086(5)
C34 0.151(7) 0.210(9) 0.141(6) -0.099(6) -0.076(6) 0.021(6)
C35 0.103(5) 0.188(7) 0.119(6) -0.076(5) -0.047(5) 0.006(5)
C36 0.068(4) 0.118(5) 0.072(4) -0.037(4) -0.023(3) 0.030(3)
C37 0.112(5) 0.211(8) 0.078(5) -0.043(6) -0.031(4) 0.016(5)
C38 0.121(6) 0.222(9) 0.087(5) -0.041(6) -0.034(5) 0.037(6)
C39 0.118(5) 0.105(4) 0.095(5) 0.028(4) -0.047(4) -0.044(4)
C40 0.075(3) 0.060(3) 0.067(4) 0.000(3) -0.017(3) -0.013(3)
C41 0.079(3) 0.059(3) 0.046(3) 0.010(3) -0.008(3) -0.001(3)
C42 0.068(3) 0.043(3) 0.051(3) 0.011(2) -0.001(3) 0.003(2)
C43 0.053(3) 0.047(3) 0.072(4) -0.005(3) -0.010(3) 0.006(2)
C44 0.086(4) 0.061(3) 0.042(3) 0.013(3) -0.007(3) 0.001(3)
C45 0.103(4) 0.062(3) 0.057(4) 0.017(3) -0.020(3) -0.014(3)
C46 0.111(5) 0.061(3) 0.082(4) -0.004(3) -0.034(4) -0.001(3)
C47 0.174(6) 0.089(4) 0.093(5) -0.047(4) -0.055(5) 0.061(4)
C48 0.148(6) 0.086(4) 0.114(5) -0.049(4) -0.058(5) 0.053(4)
C49 0.069(4) 0.088(4) 0.085(4) -0.021(3) -0.018(3) 0.005(3)
C50 0.114(5) 0.076(4) 0.114(5) -0.035(4) -0.034(4) 0.026(4)
C51 0.145(6) 0.089(4) 0.120(5) -0.047(4) -0.081(5) 0.059(4)
C52 0.164(6) 0.084(4) 0.134(6) 0.010(4) -0.091(5) 0.004(4)
C53 0.126(5) 0.060(4) 0.192(8) -0.022(5) -0.087(5) 0.021(4)
C54 0.087(4) 0.045(3) 0.210(8) 0.001(4) -0.078(5) 0.002(3)
C55 0.149(5) 0.096(4) 0.228(7) 0.007(5) 0.077(5) 0.027(4)
C56 0.164(6) 0.083(4) 0.220(7) 0.005(5) 0.094(6) 0.015(4)
C57 0.092(4) 0.081(4) 0.087(4) -0.007(4) -0.023(4) -0.026(3)
C58 0.236(8) 0.087(4) 0.075(5) 0.005(4) 0.017(5) 0.053(5)
C59 0.238(8) 0.104(5) 0.127(6) -0.013(5) 0.001(6) 0.031(5)
C60 0.140(7) 0.076(5) 0.251(10) -0.033(5) -0.110(7) 0.018(5)
C61 0.162(5) 0.123(4) 0.355(14) -0.110(7) -0.181(8) 0.061(4)
C62 0.211(7) 0.138(4) 0.278(9) 0.001(6) -0.040(7) 0.041(4)
C63 0.325(11) 0.264(10) 0.398(11) -0.021(8) -0.021(9) -0.016(8)
C64 0.253(9) 0.237(9) 0.340(10) -0.004(8) -0.052(8) -0.009(8)
C65 0.245(11) 0.050(4) 0.55(2) -0.004(8) -0.237(13) 0.002(6)
N1 0.091(3) 0.081(3) 0.065(3) -0.019(3) -0.026(3) 0.003(2)
N2 0.089(3) 0.095(3) 0.088(4) -0.002(3) -0.032(3) 0.008(3)
N3 0.072(3) 0.107(4) 0.109(4) -0.037(4) -0.018(3) 0.001(3)
N4 0.102(4) 0.075(3) 0.188(6) -0.041(3) -0.079(4) 0.027(3)
N5 0.079(4) 0.132(4) 0.081(3) -0.031(3) -0.015(3) 0.029(3)
N6 0.090(4) 0.063(3) 0.096(4) -0.019(3) -0.018(3) 0.011(2)
N7 0.093(4) 0.086(3) 0.080(4) 0.000(3) -0.036(3) 0.003(3)
N8 0.092(4) 0.050(3) 0.154(6) -0.008(3) -0.059(4) 0.010(3)
N9 0.106(4) 0.074(3) 0.075(3) 0.014(3) -0.033(3) -0.037(3)
N10 0.132(5) 0.108(4) 0.232(7) -0.075(4) -0.102(5) 0.086(3)
O1 0.084(2) 0.056(2) 0.092(3) -0.003(2) 0.027(2) 0.0029(18)
O2 0.084 0.079 0.086 -0.02 -0.014 0.026
O3 0.102(3) 0.071(2) 0.101(3) -0.001(2) 0.018(2) -0.010(2)
O4 0.086 0.075 0.07 -0.014 -0.016 0.0139
O5 0.096 0.106 0.064 -0.009 -0.021 0.002
O6 0.103 0.128 0.089 -0.004 -0.016 -0.035
Ni1 0.0748(5) 0.0738(4) 0.0931(6) -0.0203(4) -0.0270(4) 0.0121(4)
Eu1 0.05671(14) 0.06199(14) 0.05572(15) -0.00720(14) -0.00118(13) -0.00165(13)
O7 0.076 0.078 0.062 0.006 -0.013 -0.0062
O8 0.075 0.067 0.072 0.01 -0.0048 -0.0057
C66 0.063(3) 0.054(3) 0.062(3) -0.011(3) 0.000(3) 0.004(2)
O2D 0.084 0.079 0.086 -0.02 -0.014 0.026
O4F 0.086 0.075 0.07 -0.014 0.016 -0.0139
O5D 0.096 0.106 0.064 -0.009 -0.021 0.002
O6D 0.103 0.128 0.089 -0.004 -0.016 -0.035
Eu1A 0.05671 0.06199 0.05572 0.0072 0.00118 -0.00165
Eu1C 0.05671 0.06199 0.05572 0.0072 -0.00118 0.00165
Eu1D 0.05671 0.06199 0.05572 -0.0072 -0.00118 -0.00165
Eu1F 0.05671 0.06199 0.05572 -0.0072 0.00118 0.00165
O7C 0.076 0.078 0.062 -0.006 -0.013 0.0062
O8A 0.075 0.067 0.072 -0.01 0.0048 -0.0057
loop_
_geom_bond_atom_site_label_1
_geom_bond_atom_site_label_2
_geom_bond_site_symmetry_1
_geom_bond_site_symmetry_2
C1 C29 1_555 1_555
C2 C36 1_555 1_555
C3 C4 1_555 1_555
C4 C5 1_555 1_555
C5 H1 1_555 1_555
C6 C5 1_555 1_555
H2 C6 1_555 1_555
C7 C6 1_555 1_555
H3 C7 1_555 1_555
C8 C3 1_555 1_555
H4 C8 1_555 1_555
C9 C57 1_555 1_555
C10 C30 1_555 1_555
C11 C12 1_555 1_555
C12 C13 1_555 1_555
C13 H5 1_555 1_555
C14 C13 1_555 1_555
H6 C14 1_555 1_555
C15 C14 1_555 1_555
H7 C15 1_555 1_555
C16 C11 1_555 1_555
H8 C16 1_555 1_555
C17 C31 1_555 1_555
C18 C19 1_555 1_555
C19 C20 1_555 1_555
C20 H9 1_555 1_555
C21 C20 1_555 1_555
H10 C21 1_555 1_555
C22 C21 1_555 1_555
H11 C22 1_555 1_555
C23 C18 1_555 1_555
H12 C23 1_555 1_555
C24 C26 1_555 1_555
C25 C49 1_555 1_555
C26 H13 1_555 1_555
H14 C26 1_555 1_555
C27 H15 1_555 1_555
H16 C27 1_555 1_555
C28 C27 1_555 1_555
H17 C28 1_555 1_555
H18 C28 1_555 1_555
C29 H19 1_555 1_555
H20 C29 1_555 1_555
C30 H21 1_555 1_555
H22 C30 1_555 1_555
C31 H23 1_555 1_555
H24 C31 1_555 1_555
C32 H25 1_555 1_555
H26 C32 1_555 1_555
C33 C32 1_555 1_555
C34 C33 1_555 1_555
H27 C34 1_555 1_555
C35 C34 1_555 1_555
H28 C35 1_555 1_555
C36 C35 1_555 1_555
C37 C36 1_555 1_555
H29 C37 1_555 1_555
C38 C33 1_555 1_555
H30 C38 1_555 1_555
C39 H31 1_555 1_555
H32 C39 1_555 1_555
C40 C39 1_555 1_555
C41 C40 1_555 1_555
H33 C41 1_555 1_555
C42 C41 1_555 1_555
H34 C42 1_555 1_555
C43 C42 1_555 1_555
C44 C43 1_555 1_555
H35 C44 1_555 1_555
C45 C40 1_555 1_555
H36 C45 1_555 1_555
C46 C47 1_555 1_555
C47 H37 1_555 1_555
C48 C47 1_555 1_555
H38 C48 1_555 1_555
C49 C48 1_555 1_555
C50 C49 1_555 1_555
H39 C50 1_555 1_555
C51 C46 1_555 1_555
H40 C51 1_555 1_555
C52 C46 1_555 1_555
H41 C52 1_555 1_555
H42 C52 1_555 1_555
C53 H43 1_555 1_555
H44 C53 1_555 1_555
C54 C53 1_555 1_555
C55 C54 1_555 1_555
H45 C55 1_555 1_555
C56 C55 1_555 1_555
H46 C56 1_555 1_555
C57 C56 1_555 1_555
C58 C57 1_555 1_555
H47 C58 1_555 1_555
C59 C54 1_555 1_555
H48 C59 1_555 1_555
C60 C61 1_555 1_555
C61 C62 1_555 1_555
C62 H49 1_555 1_555
C63 C62 1_555 1_555
H50 C63 1_555 1_555
C64 C63 1_555 1_555
H51 C64 1_555 1_555
C65 C60 1_555 1_555
H52 C65 1_555 1_555
N1 C10 1_555 1_555
N2 C17 1_555 1_555
N3 C26 1_555 1_555
N4 C24 1_555 1_555
N5 C28 1_555 1_555
N6 C1 1_555 1_555
N7 C17 1_555 1_555
N8 C1 1_555 1_555
N9 C10 1_555 1_555
N10 C24 1_555 1_555
O1 C9 1_555 1_555
O2 C25 1_555 1_555
O3 C9 1_555 1_555
O4 C25 1_555 1_555
O5 C2 1_555 1_555
O6 C2 1_555 1_555
Ni1 N1 1_555 1_555
Eu1 O1 1_555 1_555
O7 C66 1_555 1_555
O8 C66 1_555 1_555
C66 C43 1_555 1_555
O2D Eu1 1_555 1_555
O4F Eu1 1_555 1_555
O5D Eu1 1_555 1_555
O6D Eu1 1_555 1_555
Eu1A O8 1_555 1_555
Eu1C O7 1_555 1_555
Eu1D O2 1_555 1_555
Eu1F O4 1_555 1_555
O7C Eu1 1_555 1_555
O8A Eu1 1_555 1_555
C3 N8 1_555 1_555
C4 N6 1_555 1_555
C7 C8 1_555 1_555
C11 N9 1_555 1_555
C12 N1 1_555 1_555
C15 C16 1_555 1_555
C18 N2 1_555 1_555
C19 N7 1_555 1_555
C22 C23 1_555 1_555
C27 N3 1_555 1_555
C29 N5 1_555 1_555
C30 N5 1_555 1_555
C31 N3 1_555 1_555
C32 N10 1_555 1_555
C37 C38 1_555 1_555
C39 N9 1_555 1_555
C44 C45 1_555 1_555
C50 C51 1_555 1_555
C52 N7 1_555 1_555
C53 N8 1_555 1_555
C58 C59 1_555 1_555
C60 N4 1_555 1_555
C61 N10 1_555 1_555
C64 C65 1_555 1_555
N2 Ni1 1_555 1_555
N3 Ni1 1_555 1_555
N4 Ni1 1_555 1_555
N5 Ni1 1_555 1_555
N6 Ni1 1_555 1_555
O3 Eu1 1_555 1_555
O5 Eu1D 1_555 1_555
O6 Eu1D 1_555 1_555

#END
