
#######################################################################
#
#                 Cambridge Crystallographic Data Centre
#                                CCDC 
#
#######################################################################
#
# If this CIF has been generated from an entry in the Cambridge 
# Structural Database, then it will include bibliographic, chemical, 
# crystal, experimental, refinement or atomic coordinate data resulting 
# from the CCDC's data processing and validation procedures.
#
#######################################################################

data_EJONOH
_chemical_formula_moiety         '(C20 H22 Co3 N12 O15)n'
_symmetry_cell_setting           triclinic
_symmetry_space_group_name_H-M   'P -1'
_symmetry_Int_Tables_number      2
_space_group_name_Hall           '-P 1'
loop_
_symmetry_equiv_pos_site_id
_symmetry_equiv_pos_as_xyz
1 x,y,z
2 -x,-y,-z
_cell_length_a                   8.2152(4)
_cell_length_b                   8.9387(4)
_cell_length_c                   12.3961(5)
_cell_angle_alpha                109.8460(10)
_cell_angle_beta                 92.6510(10)
_cell_angle_gamma                106.7250(10)
_cell_volume                     809.464
loop_
_atom_site_label
_atom_site_type_symbol
_atom_site_fract_x
_atom_site_fract_y
_atom_site_fract_z
Co1 Co 0.5000 0.5000 0.5000
Co2 Co -0.03208(4) 0.94415(4) 0.82077(3)
O1 O 0.3440(4) 0.3065(3) 0.7148(3)
O2 O 0.5482(2) 0.4415(2) 0.64035(14)
O3 O 0.2935(2) 0.2821(2) 0.42942(15)
O4 O 0.1617(2) 0.0193(2) 0.31100(15)
O5 O -0.2009(3) 0.7123(2) 0.80401(17)
H1 H -0.2654 0.6411 0.7413
H2 H -0.2217 0.6961 0.8663
O6 O 0.1558(3) 1.1700(3) 0.84673(19)
H3 H 0.2004 1.1843 0.7890
H4 H 0.2198 1.2191 0.9128
N1 N 0.1340(3) 0.9088(3) 0.94194(17)
N2 N 0.1666(3) 0.9365(3) 1.05488(18)
N3 N 0.2904(3) 0.8778(3) 1.0732(2)
N4 N 0.3400(3) 0.8094(3) 0.9715(2)
N5 N 0.1209(3) 0.8084(3) 0.70896(19)
N6 N 0.3280(3) 0.6296(3) 0.59386(18)
C1 C 0.2416(3) 0.8301(3) 0.8932(2)
C2 C 0.2377(3) 0.7732(3) 0.7675(2)
C3 C 0.1082(4) 0.7532(4) 0.5938(2)
H5 H 0.0290 0.7760 0.5510
C4 C 0.2101(3) 0.6626(3) 0.5362(2)
H6 H 0.1960 0.6239 0.4556
C5 C 0.3415(3) 0.6852(3) 0.7096(2)
H7 H 0.4227 0.6645 0.7523
C6 C 0.4669(3) 0.1453(3) 0.5688(2)
C7 C 0.3920(3) 0.0649(3) 0.4514(2)
C8 C 0.5730(3) 0.0794(3) 0.6158(2)
H8 H 0.6219 0.1328 0.6938
C9 C 0.4483(3) 0.3083(3) 0.6472(2)
C10 C 0.2750(3) 0.1279(3) 0.3938(2)
Co1_2 Co -0.5000 0.5000 0.5000
Co1_3 Co 0.5000 -0.5000 0.5000
Co2A Co 0.03208(4) 0.05585(4) 0.17923(3)
Co2_2 Co -0.03208(4) -0.05585(4) -0.17923(3)
Co2_3 Co 0.96792(4) -0.05585(4) 0.82077(3)
Co2A_2 Co 0.03208(4) 1.05585(4) 1.17923(3)
O1A O 0.6560(4) -0.3065(3) 0.2852(3)
O2A O 0.4518(2) -0.4415(2) 0.35965(14)
O2A_2 O 0.4518(2) 0.5585(2) 0.35965(14)
O3A O 0.7065(2) -0.2821(2) 0.57058(15)
O3A_2 O 0.7065(2) 0.7179(2) 0.57058(15)
O4A O 0.8383(2) -0.0193(2) 0.68900(15)
O4A_2 O -0.1617(2) 0.9807(2) 0.68900(15)
O5A O 0.2009(3) 0.2877(2) 0.19599(17)
H1A H 0.2654 0.3589 0.2587
H2A H 0.2217 0.3039 0.1337
O6A O -0.1558(3) -0.1700(3) 0.15327(19)
H3A H -0.2004 -0.1843 0.2110
H4A H -0.2198 -0.2191 0.0872
N1A N -0.1340(3) 0.0912(3) 0.05806(17)
N2A N -0.1666(3) 0.0635(3) -0.05488(18)
N2_2 N 0.1666(3) -0.0635(3) 0.05488(18)
N2A_2 N -0.1666(3) 1.0635(3) 0.94512(18)
N3A N -0.2904(3) 0.1222(3) -0.0732(2)
N4A N -0.3400(3) 0.1906(3) 0.0285(2)
N5A N -0.1209(3) 0.1916(3) 0.29104(19)
N6A N -0.3280(3) 0.3704(3) 0.40614(18)
N6A_2 N 0.6720(3) 0.3704(3) 0.40614(18)
C1A C -0.2416(3) 0.1699(3) 0.1068(2)
C2A C -0.2377(3) 0.2268(3) 0.2325(2)
C3A C -0.1082(4) 0.2468(4) 0.4062(2)
H5A H -0.0290 0.2240 0.4490
C4A C -0.2101(3) 0.3374(3) 0.4638(2)
H6A H -0.1960 0.3761 0.5444
C5A C -0.3415(3) 0.3148(3) 0.2904(2)
H7A H -0.4227 0.3355 0.2477
C6A C 0.5331(3) -0.1453(3) 0.4312(2)
C7A C 0.6080(3) -0.0649(3) 0.5486(2)
C8A C 0.4270(3) -0.0794(3) 0.3842(2)
H8A H 0.3781 -0.1328 0.3062
C9A C 0.5517(3) -0.3083(3) 0.3528(2)
C10A C 0.7250(3) -0.1279(3) 0.6062(2)
O7 O -0.0092(5) 0.3251(5) 0.6876(4)
H9 H -0.0650 0.2323 0.6927
H10 H 0.0980 0.3644 0.7139
O8 O 0.4186(4) 0.3558(4) 0.0304(2)
H11 H 0.4630 0.2775 0.0148
H12 H 0.4875 0.4561 0.0578
O9 O 0.9036(11) 0.5005(8) 0.8955(8)
loop_
_geom_bond_atom_site_label_1
_geom_bond_atom_site_label_2
_geom_bond_site_symmetry_1
_geom_bond_site_symmetry_2
Co1 O2 1_555 1_555
Co2 O5 1_555 1_555
O1 C9 1_555 1_555
O2 C9 1_555 1_555
O3 Co1 1_555 1_555
O4 C10 1_555 1_555
O5 H1 1_555 1_555
H2 O5 1_555 1_555
O6 Co2 1_555 1_555
H3 O6 1_555 1_555
H4 O6 1_555 1_555
N1 Co2 1_555 1_555
N2 N1 1_555 1_555
N3 N2 1_555 1_555
N4 N3 1_555 1_555
N5 Co2 1_555 1_555
N6 Co1 1_555 1_555
C1 N1 1_555 1_555
C2 N5 1_555 1_555
C3 N5 1_555 1_555
H5 C3 1_555 1_555
C4 N6 1_555 1_555
H6 C4 1_555 1_555
C5 N6 1_555 1_555
H7 C5 1_555 1_555
C6 C7 1_555 1_555
C7 C10 1_555 1_555
C8 C6 1_555 1_555
H8 C8 1_555 1_555
C9 C6 1_555 1_555
C10 O3 1_555 1_555
O7 H9 1_555 1_555
H10 O7 1_555 1_555
O8 H11 1_555 1_555
H12 O8 1_555 1_555
Co1_2 N6A 1_555 1_555
Co1_3 O2A 1_555 1_555
Co2A O4 1_555 1_555
Co2_2 N2A 1_555 1_555
Co2_3 O4A 1_555 1_555
Co2A_2 N2 1_555 1_555
O1A C9A 1_555 1_555
O2A C9A 1_555 1_555
O2A_2 Co1 1_555 1_555
O3A Co1_3 1_555 1_555
O3A_2 Co1 1_555 1_555
O4A C10A 1_555 1_555
O4A_2 Co2 1_555 1_555
O5A Co2A 1_555 1_555
H1A O5A 1_555 1_555
H2A O5A 1_555 1_555
O6A Co2A 1_555 1_555
H3A O6A 1_555 1_555
H4A O6A 1_555 1_555
N1A Co2A 1_555 1_555
N2A N1A 1_555 1_555
N2_2 Co2A 1_555 1_555
N2A_2 Co2 1_555 1_555
N3A N2A 1_555 1_555
N4A N3A 1_555 1_555
N5A Co2A 1_555 1_555
N6A C4A 1_555 1_555
N6A_2 Co1 1_555 1_555
C1A N1A 1_555 1_555
C2A N5A 1_555 1_555
C3A N5A 1_555 1_555
H5A C3A 1_555 1_555
C4A C3A 1_555 1_555
H6A C4A 1_555 1_555
C5A N6A 1_555 1_555
H7A C5A 1_555 1_555
C6A C7A 1_555 1_555
C7A C8 1_555 1_555
C8A C7 1_555 1_555
H8A C8A 1_555 1_555
C9A C6A 1_555 1_555
C10A O3A 1_555 1_555
N4 C1 1_555 1_555
C1 C2 1_555 1_555
C2 C5 1_555 1_555
C3 C4 1_555 1_555
N4A C1A 1_555 1_555
C1A C2A 1_555 1_555
C2A C5A 1_555 1_555
C6A C8A 1_555 1_555
C7A C10A 1_555 1_555

#END
