
#######################################################################
#
#                 Cambridge Crystallographic Data Centre
#                                CCDC 
#
#######################################################################
#
# If this CIF has been generated from an entry in the Cambridge 
# Structural Database, then it will include bibliographic, chemical, 
# crystal, experimental, refinement or atomic coordinate data resulting 
# from the CCDC's data processing and validation procedures.
#
#######################################################################

data_ARINUL
_chemical_formula_moiety         '(C56 H58 Cl1 Cu2 N16 O5 1+)n'
_symmetry_cell_setting           tetragonal
_symmetry_space_group_name_H-M   'P -4 b 2'
_symmetry_Int_Tables_number      117
_space_group_name_Hall           'P -4 -2ab'
loop_
_symmetry_equiv_pos_site_id
_symmetry_equiv_pos_as_xyz
1 x,y,z
2 -x,-y,z
3 y,-x,-z
4 -y,x,-z
5 1/2+x,1/2-y,z
6 1/2-x,1/2+y,z
7 1/2+y,1/2+x,-z
8 1/2-y,1/2-x,-z
_cell_length_a                   20.586(3)
_cell_length_b                   20.586(3)
_cell_length_c                   7.5220(13)
_cell_angle_alpha                90
_cell_angle_beta                 90
_cell_angle_gamma                90
_cell_volume                     3187.7
loop_
_atom_site_label
_atom_site_type_symbol
_atom_site_fract_x
_atom_site_fract_y
_atom_site_fract_z
Cu1 Cu 1.0000 -0.0000 1.5000
Cu2 Cu 1.0000 0.5000 0.0000
N1 N 1.0059(5) 0.4237(5) 0.1732(13)
C1 C 1.0178(7) 0.3249(6) 0.4305(14)
C2 C 0.9608(6) 0.3553(7) 0.393(2)
H1 H 0.9236 0.3441 0.4564
C3 C 0.9574(7) 0.4012(7) 0.267(2)
H2 H 0.9166 0.4187 0.2444
C4 C 1.0621(7) 0.3978(6) 0.2149(18)
H3 H 1.0987 0.4131 0.1559
C5 C 1.0257(6) 0.2742(6) 0.571(2)
N2 N 0.9884(7) 0.2788(8) 0.694(2)
N3 N 0.9909(5) 0.0798(4) 1.3425(12)
C6 C 0.9723(6) 0.1781(5) 1.0851(17)
C7 C 1.0218(6) 0.1349(6) 1.0692(15)
H4 H 1.0504 0.1376 0.9736
C8 C 1.0297(6) 0.0860(6) 1.1980(18)
H5 H 1.0633 0.0563 1.1831
C9 C 0.9329(5) 0.1704(5) 1.2288(16)
H6 H 0.8980 0.1985 1.2454
C10 C 0.9584(6) 0.2266(6) 0.9495(19)
N4 N 0.9976(7) 0.2310(7) 0.828(3)
C11 C 1.0742(7) 0.2242(6) 0.5470(17)
H7 H 1.0939 0.2141 0.6593
H8 H 1.1069 0.2393 0.4659
H9 H 1.0541 0.1859 0.4994
C12 C 0.9057(10) 0.2725(10) 0.950(2)
H10 H 0.8690 0.2542 0.8897
H11 H 0.9190 0.3116 0.8912
H12 H 0.8939 0.2823 1.0709
C13 C 0.9440(6) 0.1210(6) 1.3511(15)
H13 H 0.9154 0.1175 1.4464
C14 C 1.0708(6) 0.3504(8) 0.337(2)
H14 H 1.1124 0.3346 0.3597
Cu2_2 Cu 1.0000 -0.5000 0.0000
Cu2B Cu 1.5000 -0.0000 3.0000
Cu2B_2 Cu 0.5000 -0.0000 3.0000
N1A N 0.9941(5) -0.4237(5) 0.1732(13)
N1B N 1.4237(5) -0.0059(5) 2.8268(13)
N1C N 0.5763(5) 0.0059(5) 2.8268(13)
N1A_2 N 0.9941(5) 0.5763(5) 0.1732(13)
N1F N 0.9237(5) 0.5059(5) -0.1732(13)
N1G N 1.0763(5) 0.4941(5) -0.1732(13)
C1A C 0.9822(7) -0.3249(6) 0.4305(14)
C1B C 1.3249(6) -0.0178(7) 2.5695(14)
C1C C 0.6751(6) 0.0178(7) 2.5695(14)
C2A C 1.0392(6) -0.3553(7) 0.393(2)
C2B C 1.3553(7) 0.0392(6) 2.607(2)
C2C C 0.6447(7) -0.0392(6) 2.607(2)
H1A H 1.0764 -0.3441 0.4564
H1B H 1.3441 0.0764 2.5436
H1C H 0.6559 -0.0764 2.5436
C3A C 1.0426(7) -0.4012(7) 0.267(2)
C3B C 1.4012(7) 0.0426(7) 2.733(2)
C3C C 0.5988(7) -0.0426(7) 2.733(2)
H2A H 1.0834 -0.4187 0.2444
H2B H 1.4187 0.0834 2.7556
H2C H 0.5813 -0.0834 2.7556
C4A C 0.9379(7) -0.3978(6) 0.2149(18)
C4B C 1.3978(6) -0.0621(7) 2.7851(18)
C4C C 0.6022(6) 0.0621(7) 2.7851(18)
H3A H 0.9013 -0.4131 0.1559
H3B H 1.4131 -0.0987 2.8441
H3C H 0.5869 0.0987 2.8441
C5A C 0.9743(6) -0.2742(6) 0.571(2)
C5B C 1.2742(6) -0.0257(6) 2.429(2)
C5C C 0.7258(6) 0.0257(6) 2.429(2)
N2A N 1.0116(7) -0.2788(8) 0.694(2)
N2B N 1.2788(8) 0.0116(7) 2.306(2)
N2C N 0.7212(8) -0.0116(7) 2.306(2)
N3A N 1.0091(5) -0.0798(4) 1.3425(12)
N3B N 1.0798(4) 0.0091(5) 1.6575(12)
N3C N 0.9202(4) -0.0091(5) 1.6575(12)
C6A C 1.0277(6) -0.1781(5) 1.0851(17)
C6B C 1.1781(5) 0.0277(6) 1.9149(17)
C6C C 0.8219(5) -0.0277(6) 1.9149(17)
C7A C 0.9782(6) -0.1349(6) 1.0692(15)
C7B C 1.1349(6) -0.0218(6) 1.9308(15)
C7C C 0.8651(6) 0.0218(6) 1.9308(15)
H4A H 0.9496 -0.1376 0.9736
H4B H 1.1376 -0.0504 2.0264
H4C H 0.8624 0.0504 2.0264
C8A C 0.9703(6) -0.0860(6) 1.1980(18)
C8B C 1.0860(6) -0.0297(6) 1.8020(18)
C8C C 0.9140(6) 0.0297(6) 1.8020(18)
H5A H 0.9367 -0.0563 1.1831
H5B H 1.0563 -0.0633 1.8169
H5C H 0.9437 0.0633 1.8169
C9A C 1.0671(5) -0.1704(5) 1.2288(16)
C9B C 1.1704(5) 0.0671(5) 1.7712(16)
C9C C 0.8296(5) -0.0671(5) 1.7712(16)
H6A H 1.1020 -0.1985 1.2454
H6B H 1.1985 0.1020 1.7546
H6C H 0.8015 -0.1020 1.7546
C10A C 1.0416(6) -0.2266(6) 0.9495(19)
C10B C 1.2266(6) 0.0416(6) 2.0505(19)
C10C C 0.7734(6) -0.0416(6) 2.0505(19)
N4A N 1.0024(7) -0.2310(7) 0.828(3)
N4B N 1.2310(7) 0.0024(7) 2.172(3)
N4C N 0.7690(7) -0.0024(7) 2.172(3)
C11A C 0.9258(7) -0.2242(6) 0.5470(17)
C11B C 1.2242(6) -0.0742(7) 2.4530(17)
C11C C 0.7758(6) 0.0742(7) 2.4530(17)
H7A H 0.9061 -0.2141 0.6593
H7B H 1.2141 -0.0939 2.3407
H7C H 0.7859 0.0939 2.3407
H8A H 0.8931 -0.2393 0.4659
H8B H 1.2393 -0.1069 2.5341
H8C H 0.7607 0.1069 2.5341
H9A H 0.9459 -0.1859 0.4994
H9B H 1.1859 -0.0541 2.5006
H9C H 0.8141 0.0541 2.5006
C12A C 1.0943(10) -0.2725(10) 0.950(2)
C12B C 1.2725(10) 0.0943(10) 2.050(2)
C12C C 0.7275(10) -0.0943(10) 2.050(2)
H10A H 1.1310 -0.2542 0.8897
H10B H 1.2542 0.1310 2.1103
H10C H 0.7458 -0.1310 2.1103
H11A H 1.0810 -0.3116 0.8912
H11B H 1.3116 0.0810 2.1088
H11C H 0.6884 -0.0810 2.1088
H12A H 1.1061 -0.2823 1.0709
H12B H 1.2823 0.1061 1.9291
H12C H 0.7177 -0.1061 1.9291
C13A C 1.0560(6) -0.1210(6) 1.3511(15)
C13B C 1.1210(6) 0.0560(6) 1.6489(15)
C13C C 0.8790(6) -0.0560(6) 1.6489(15)
H13A H 1.0846 -0.1175 1.4464
H13B H 1.1175 0.0846 1.5536
H13C H 0.8825 -0.0846 1.5536
C14A C 0.9292(6) -0.3504(8) 0.337(2)
C14B C 1.3504(8) -0.0708(6) 2.663(2)
C14C C 0.6496(8) 0.0708(6) 2.663(2)
H14A H 0.8876 -0.3346 0.3597
H14B H 1.3346 -0.1124 2.6403
H14C H 0.6654 0.1124 2.6403
Cl1 Cl 0.2718(2) 0.2282(2) 0.5000
O1 O 0.3102(6) 0.2219(7) 0.357(2)
O2 O 0.2194(9) 0.233(3) 0.482(7)
O1G O 0.2781(7) 0.1898(6) 0.643(2)
O2G O 0.267(3) 0.2806(9) 0.518(7)
O3 O 0.2328(9) 0.3296(12) 1.018(3)
loop_
_geom_bond_atom_site_label_1
_geom_bond_atom_site_label_2
_geom_bond_site_symmetry_1
_geom_bond_site_symmetry_2
Cu1 N3 1_555 1_555
Cu2 N1 1_555 1_555
N1 C3 1_555 1_555
C1 C2 1_555 1_555
C2 H1 1_555 1_555
C3 C2 1_555 1_555
H2 C3 1_555 1_555
C4 N1 1_555 1_555
H3 C4 1_555 1_555
C5 C1 1_555 1_555
N2 C5 1_555 1_555
N3 C8 1_555 1_555
C6 C7 1_555 1_555
C7 H4 1_555 1_555
C8 C7 1_555 1_555
H5 C8 1_555 1_555
C9 C6 1_555 1_555
H6 C9 1_555 1_555
C10 C6 1_555 1_555
N4 N2 1_555 1_555
C11 C5 1_555 1_555
H7 C11 1_555 1_555
H8 C11 1_555 1_555
H9 C11 1_555 1_555
C12 C10 1_555 1_555
H10 C12 1_555 1_555
H11 C12 1_555 1_555
H12 C12 1_555 1_555
C13 N3 1_555 1_555
H13 C13 1_555 1_555
C14 C1 1_555 1_555
H14 C14 1_555 1_555
Cl1 O1 1_555 1_555
O2 Cl1 1_555 1_555
Cu2_2 N1A 1_555 1_555
Cu2B N1B 1_555 1_555
Cu2B_2 N1C 1_555 1_555
N1A C3A 1_555 1_555
N1B C3B 1_555 1_555
N1C C3C 1_555 1_555
N1A_2 Cu2 1_555 1_555
N1F Cu2 1_555 1_555
N1G Cu2 1_555 1_555
C1A C2A 1_555 1_555
C1B C2B 1_555 1_555
C1C C2C 1_555 1_555
C2A H1A 1_555 1_555
C2B H1B 1_555 1_555
C2C H1C 1_555 1_555
C3A C2A 1_555 1_555
C3B C2B 1_555 1_555
C3C C2C 1_555 1_555
H2A C3A 1_555 1_555
H2B C3B 1_555 1_555
H2C C3C 1_555 1_555
C4A N1A 1_555 1_555
C4B N1B 1_555 1_555
C4C N1C 1_555 1_555
H3A C4A 1_555 1_555
H3B C4B 1_555 1_555
H3C C4C 1_555 1_555
C5A C1A 1_555 1_555
C5B C1B 1_555 1_555
C5C C1C 1_555 1_555
N2A C5A 1_555 1_555
N2B C5B 1_555 1_555
N2C C5C 1_555 1_555
N3A Cu1 1_555 1_555
N3B Cu1 1_555 1_555
N3C Cu1 1_555 1_555
C6A C7A 1_555 1_555
C6B C7B 1_555 1_555
C6C C7C 1_555 1_555
C7A H4A 1_555 1_555
C7B H4B 1_555 1_555
C7C H4C 1_555 1_555
C8A N3A 1_555 1_555
C8B N3B 1_555 1_555
C8C N3C 1_555 1_555
H5A C8A 1_555 1_555
H5B C8B 1_555 1_555
H5C C8C 1_555 1_555
C9A C6A 1_555 1_555
C9B C6B 1_555 1_555
C9C C6C 1_555 1_555
H6A C9A 1_555 1_555
H6B C9B 1_555 1_555
H6C C9C 1_555 1_555
C10A C6A 1_555 1_555
C10B C6B 1_555 1_555
C10C C6C 1_555 1_555
N4A N2A 1_555 1_555
N4B N2B 1_555 1_555
N4C N2C 1_555 1_555
C11A C5A 1_555 1_555
C11B C5B 1_555 1_555
C11C C5C 1_555 1_555
H7A C11A 1_555 1_555
H7B C11B 1_555 1_555
H7C C11C 1_555 1_555
H8A C11A 1_555 1_555
H8B C11B 1_555 1_555
H8C C11C 1_555 1_555
H9A C11A 1_555 1_555
H9B C11B 1_555 1_555
H9C C11C 1_555 1_555
C12A C10A 1_555 1_555
C12B C10B 1_555 1_555
C12C C10C 1_555 1_555
H10A C12A 1_555 1_555
H10B C12B 1_555 1_555
H10C C12C 1_555 1_555
H11A C12A 1_555 1_555
H11B C12B 1_555 1_555
H11C C12C 1_555 1_555
H12A C12A 1_555 1_555
H12B C12B 1_555 1_555
H12C C12C 1_555 1_555
C13A N3A 1_555 1_555
C13B N3B 1_555 1_555
C13C N3C 1_555 1_555
H13A C13A 1_555 1_555
H13B C13B 1_555 1_555
H13C C13C 1_555 1_555
C14A C1A 1_555 1_555
C14B C1B 1_555 1_555
C14C C1C 1_555 1_555
H14A C14A 1_555 1_555
H14B C14B 1_555 1_555
H14C C14C 1_555 1_555
O1G Cl1 1_555 1_555
O2G Cl1 1_555 1_555
C4 C14 1_555 1_555
C9 C13 1_555 1_555
C10 N4 1_555 1_555
C4A C14A 1_555 1_555
C4B C14B 1_555 1_555
C4C C14C 1_555 1_555
C7A C8A 1_555 1_555
C7B C8B 1_555 1_555
C7C C8C 1_555 1_555
C9A C13A 1_555 1_555
C9B C13B 1_555 1_555
C9C C13C 1_555 1_555
C10A N4A 1_555 1_555
C10B N4B 1_555 1_555
C10C N4C 1_555 1_555

#END
