
#######################################################################
#
#                 Cambridge Crystallographic Data Centre
#                                CCDC 
#
#######################################################################
#
# If this CIF has been generated from an entry in the Cambridge 
# Structural Database, then it will include bibliographic, chemical, 
# crystal, experimental, refinement or atomic coordinate data resulting 
# from the CCDC's data processing and validation procedures.
#
#######################################################################

data_QIXSOG
_chemical_formula_moiety         '(C56 H32 Cu2 Mn2 N24 S32 1+)n'
_symmetry_cell_setting           monoclinic
_symmetry_space_group_name_H-M   'P 21/n'
_symmetry_Int_Tables_number      14
_space_group_name_Hall           '-P 2yn'
loop_
_symmetry_equiv_pos_site_id
_symmetry_equiv_pos_as_xyz
1 x,y,z
2 1/2-x,1/2+y,1/2-z
3 -x,-y,-z
4 1/2+x,1/2-y,1/2+z
_cell_length_a                   31.951(2)
_cell_length_b                   10.636(6)
_cell_length_c                   12.368(7)
_cell_angle_alpha                90
_cell_angle_beta                 96.03(4)
_cell_angle_gamma                90
_cell_volume                     4179.77
loop_
_atom_site_label
_atom_site_type_symbol
_atom_site_fract_x
_atom_site_fract_y
_atom_site_fract_z
Mn1 Mn 0.24958(3) 0.24825(8) 0.49941(7)
Cu1 Cu -0.00423(3) 0.25709(11) 0.28561(9)
C1 C 0.0745(2) 0.2547(6) 0.4349(5)
C2 C 0.1449(2) 0.2439(6) 0.4852(5)
C3 C 0.3532(2) 0.2509(7) 0.5381(5)
C4 C 0.4205(2) 0.2384(9) 0.6261(7)
C5 C 0.2546(2) -0.0479(7) 0.4125(5)
C6 C 0.2498(2) 0.5431(7) 0.5902(5)
C7 C 0.2532(2) 0.6695(6) 0.7376(5)
C8 C 0.2514(2) -0.1764(6) 0.2662(5)
N1 N 0.04354(18) 0.2541(6) 0.3809(5)
N2 N 0.1064(2) 0.2580(7) 0.5052(5)
N3 N 0.18078(18) 0.2328(6) 0.4802(5)
N4 N 0.3183(2) 0.2607(7) 0.5209(5)
N5 N 0.3929(3) 0.2371(14) 0.5422(7)
N6 N 0.4484(2) 0.2403(7) 0.6898(6)
N7 N 0.2506(3) -0.1623(6) 0.3697(5)
N8 N 0.2566(2) 0.0441(6) 0.4556(5)
N9 N 0.2458(2) 0.4511(6) 0.5425(5)
N10 N 0.2570(3) 0.6528(6) 0.6345(5)
N11 N 0.25084(19) 0.6986(6) 0.8254(5)
N12 N 0.2510(2) -0.2030(6) 0.1762(5)
Mn1A Mn 0.25042(3) 0.74825(8) 0.00059(7)
Mn1A_2 Mn 0.25042(3) 0.74825(8) 1.00059(7)
Mn1A_3 Mn 0.25042(3) -0.25175(8) 0.00059(7)
Mn1A_4 Mn 0.25042(3) -0.25175(8) 1.00059(7)
Mn1C Mn -0.25042(3) 0.25175(8) -0.00059(7)
Cu1C Cu 0.49577(3) 0.24291(11) 0.78561(9)
Cu1A Cu 0.50423(3) 0.75709(11) 0.21439(9)
C1A C 0.4255(2) 0.7547(6) 0.0651(5)
C2A C 0.3551(2) 0.7439(6) 0.0148(5)
C3C C -0.1468(2) 0.2491(7) 0.0381(5)
C4C C -0.0795(2) 0.2616(9) 0.1261(7)
C5A C 0.2454(2) 0.4521(7) 0.0875(5)
C6A C 0.2502(2) 0.0431(7) 0.9098(5)
C7A C 0.2468(2) 0.1695(6) 0.7624(5)
C8A C 0.2486(2) 0.3236(6) 0.2338(5)
N1A N 0.45646(18) 0.7541(6) 0.1191(5)
N1C N 0.54354(18) 0.2459(6) 0.8809(5)
N2A N 0.3936(2) 0.7580(7) -0.0052(5)
N3A N 0.31922(18) 0.7328(6) 0.0198(5)
N4C N -0.1817(2) 0.2393(7) 0.0209(5)
N4A N 0.1817(2) 0.7607(7) -0.0209(5)
N5C N -0.1071(3) 0.2629(14) 0.0422(7)
N6C N -0.0516(2) 0.2597(7) 0.1898(6)
N7A N 0.2494(3) 0.3377(6) 0.1303(5)
N8A N 0.2434(2) 0.5441(6) 0.0444(5)
N9A N 0.2542(2) -0.0489(6) 0.9575(5)
N9A_2 N 0.2542(2) 0.9511(6) -0.0425(5)
N10A N 0.2430(3) 0.1528(6) 0.8655(5)
N11A N 0.24916(19) 0.1986(6) 0.6746(5)
N11_2 N 0.25084(19) 0.6986(6) -0.1746(5)
N12A N 0.2490(2) 0.2970(6) 0.3238(5)
N12_2 N 0.2510(2) 0.7970(6) 0.1762(5)
S1 S 0.03603(5) 0.00499(19) 0.16040(12)
S2 S 0.05833(6) 0.0596(2) -0.05865(13)
S3 S 0.11984(5) 0.05521(17) 0.27145(12)
S4 S 0.14701(6) 0.1168(2) 0.01265(16)
C9 C 0.01979(19) 0.0134(6) 0.0210(5)
C10 C 0.08746(18) 0.0514(5) 0.1494(5)
C11 C 0.0978(2) 0.0762(6) 0.0489(5)
C12 C 0.1682(5) 0.0208(16) 0.2202(15)
H1 H 0.1901 0.0204 0.2809
H2 H 0.1665 -0.0637 0.1905
C13 C 0.1820(5) 0.1085(19) 0.1334(12)
H3 H 0.2093 0.0811 0.1147
H4 H 0.1854 0.1924 0.1639
S1B S -0.03603(5) -0.00499(19) -0.16040(12)
S2B S -0.05833(6) -0.0596(2) 0.05865(13)
S3B S -0.11984(5) -0.05521(17) -0.27145(12)
S4B S -0.14701(6) -0.1168(2) -0.01265(16)
C9B C -0.01979(19) -0.0134(6) -0.0210(5)
C10B C -0.08746(18) -0.0514(5) -0.1494(5)
C11B C -0.0978(2) -0.0762(6) -0.0489(5)
C12B C -0.1682(5) -0.0208(16) -0.2202(15)
H1B H -0.1901 -0.0204 -0.2809
H2B H -0.1665 0.0637 -0.1905
C13B C -0.1820(5) -0.1085(19) -0.1334(12)
H3B H -0.2093 -0.0811 -0.1147
H4B H -0.1854 -0.1924 -0.1639
S5 S 0.04276(6) 0.0471(2) 0.64237(13)
S6 S 0.05373(5) -0.09791(17) 0.44816(13)
S7 S 0.13070(6) 0.0269(2) 0.73742(15)
S8 S 0.14373(6) -0.1475(2) 0.50330(15)
C16 C 0.0202(2) -0.0110(6) 0.5191(5)
C17 C 0.0930(2) -0.0065(7) 0.6298(5)
C18 C 0.0985(2) -0.0774(6) 0.5388(5)
C19 C 0.1682(2) -0.0963(7) 0.7198(6)
H9 H 0.1923 -0.0865 0.7739
H10 H 0.1554 -0.1770 0.7319
C20 C 0.1830(2) -0.0953(8) 0.6093(6)
H11 H 0.2075 -0.1491 0.6098
H12 H 0.1915 -0.0106 0.5928
S5B S -0.04276(6) -0.0471(2) 0.35763(13)
S6B S -0.05373(5) 0.09791(17) 0.55184(13)
S7B S -0.13070(6) -0.0269(2) 0.26258(15)
S8B S -0.14373(6) 0.1475(2) 0.49670(15)
C16B C -0.0202(2) 0.0110(6) 0.4809(5)
C17B C -0.0930(2) 0.0065(7) 0.3702(5)
C18B C -0.0985(2) 0.0774(6) 0.4612(5)
C19B C -0.1682(2) 0.0963(7) 0.2802(6)
H9B H -0.1923 0.0865 0.2261
H10B H -0.1554 0.1770 0.2681
C20B C -0.1830(2) 0.0953(8) 0.3907(6)
H11B H -0.2075 0.1491 0.3902
H12B H -0.1915 0.0106 0.4072
S9 S 0.01657(8) -0.5912(2) 0.65635(18)
S10 S 0.06351(7) -0.4236(2) 0.52603(19)
S11 S 0.08766(9) -0.6482(3) 0.8183(2)
S12 S 0.14380(8) -0.4466(2) 0.6637(2)
C21 C 0.0170(2) -0.5032(7) 0.5375(6)
C22 C 0.0687(3) -0.5630(7) 0.7008(6)
C23 C 0.0909(2) -0.4897(6) 0.6427(6)
C24 C 0.1389(4) -0.5885(14) 0.8469(11)
H13 H 0.1369 -0.5087 0.8840
H14 H 0.1543 -0.6455 0.8979
C25 C 0.1639(3) -0.5688(11) 0.7579(10)
H15 H 0.1654 -0.6471 0.7182
H16 H 0.1923 -0.5468 0.7872
S9B S -0.01657(8) -0.4088(2) 0.34365(18)
S10B S -0.06351(7) -0.5764(2) 0.47397(19)
S11B S -0.08766(9) -0.3518(3) 0.1817(2)
S12B S -0.14380(8) -0.5534(2) 0.3363(2)
C21B C -0.0170(2) -0.4968(7) 0.4625(6)
C22B C -0.0687(3) -0.4370(7) 0.2992(6)
C23B C -0.0909(2) -0.5103(6) 0.3573(6)
C24B C -0.1389(4) -0.4115(14) 0.1531(11)
H13B H -0.1369 -0.4913 0.1160
H14B H -0.1543 -0.3545 0.1021
C25B C -0.1639(3) -0.4312(11) 0.2421(10)
H15B H -0.1654 -0.3529 0.2818
H16B H -0.1923 -0.4532 0.2128
S13 S 0.04934(7) 0.38960(16) 0.08987(16)
S14 S 0.02944(6) 0.65562(15) 0.09241(15)
S15 S 0.12762(8) 0.40607(19) 0.2350(2)
S16 S 0.10378(7) 0.72678(16) 0.24067(16)
C26 C 0.0167(2) 0.5091(6) 0.0383(5)
C27 C 0.0843(2) 0.4849(6) 0.1702(6)
C28 C 0.0748(2) 0.6086(6) 0.1709(5)
C29 C 0.1523(3) 0.5288(9) 0.3204(8)
H17 H 0.1369 0.5385 0.3834
H18 H 0.1807 0.5023 0.3462
C30 C 0.1546(3) 0.6521(8) 0.2671(8)
H19 H 0.1666 0.6412 0.1989
H20 H 0.1732 0.7066 0.3129
S13B S -0.04934(7) 0.61040(16) -0.08987(16)
S14B S -0.02944(6) 0.34438(15) -0.09241(15)
S15B S -0.12762(8) 0.59393(19) -0.2350(2)
S16B S -0.10378(7) 0.27322(16) -0.24067(16)
C26B C -0.0167(2) 0.4909(6) -0.0383(5)
C27B C -0.0843(2) 0.5151(6) -0.1702(6)
C28B C -0.0748(2) 0.3914(6) -0.1709(5)
C29B C -0.1523(3) 0.4712(9) -0.3204(8)
H17B H -0.1369 0.4615 -0.3834
H18B H -0.1807 0.4977 -0.3462
C30B C -0.1546(3) 0.3479(8) -0.2671(8)
H19B H -0.1666 0.3588 -0.1989
H20B H -0.1732 0.2934 -0.3129
loop_
_geom_bond_atom_site_label_1
_geom_bond_atom_site_label_2
_geom_bond_site_symmetry_1
_geom_bond_site_symmetry_2
Mn1 N3 1_555 1_555
Cu1 N1 1_555 1_555
C1 N1 1_555 1_555
C2 N2 1_555 1_555
C3 N4 1_555 1_555
C4 N5 1_555 1_555
C5 N7 1_555 1_555
C6 N9 1_555 1_555
C7 N10 1_555 1_555
C8 N7 1_555 1_555
N2 C1 1_555 1_555
N3 C2 1_555 1_555
N4 Mn1 1_555 1_555
N5 C3 1_555 1_555
N6 C4 1_555 1_555
N8 Mn1 1_555 1_555
N9 Mn1 1_555 1_555
N10 C6 1_555 1_555
N11 C7 1_555 1_555
N12 C8 1_555 1_555
S1 C9 1_555 1_555
S2 C9 1_555 1_555
S3 C10 1_555 1_555
S4 C11 1_555 1_555
C9 C9B 1_555 1_555
C10 S1 1_555 1_555
C11 S2 1_555 1_555
C12 S3 1_555 1_555
H1 C12 1_555 1_555
H2 C12 1_555 1_555
C13 S4 1_555 1_555
H3 C13 1_555 1_555
H4 C13 1_555 1_555
S5 C16 1_555 1_555
S6 C16 1_555 1_555
S7 C17 1_555 1_555
S8 C18 1_555 1_555
C16 C16B 1_555 1_555
C17 S5 1_555 1_555
C18 S6 1_555 1_555
C19 S7 1_555 1_555
H9 C19 1_555 1_555
H10 C19 1_555 1_555
C20 S8 1_555 1_555
H11 C20 1_555 1_555
H12 C20 1_555 1_555
S9 C21 1_555 1_555
S10 C21 1_555 1_555
S11 C22 1_555 1_555
S12 C23 1_555 1_555
C21 C21B 1_555 1_555
C22 S9 1_555 1_555
C23 S10 1_555 1_555
C24 S11 1_555 1_555
H13 C24 1_555 1_555
H14 C24 1_555 1_555
C25 S12 1_555 1_555
H15 C25 1_555 1_555
H16 C25 1_555 1_555
S13 C26 1_555 1_555
S14 C26 1_555 1_555
S15 C27 1_555 1_555
S16 C28 1_555 1_555
C26 C26B 1_555 1_555
C27 S13 1_555 1_555
C28 S14 1_555 1_555
C29 S15 1_555 1_555
H17 C29 1_555 1_555
H18 C29 1_555 1_555
C30 S16 1_555 1_555
H19 C30 1_555 1_555
H20 C30 1_555 1_555
Mn1A N3A 1_555 1_555
Mn1A_2 N11 1_555 1_555
Mn1A_3 N12 1_555 1_555
Mn1A_4 N9A 1_555 1_555
Mn1C N4C 1_555 1_555
Cu1C N6 1_555 1_555
Cu1A N1A 1_555 1_555
C1A N1A 1_555 1_555
C2A N2A 1_555 1_555
C3C N4C 1_555 1_555
C4C N5C 1_555 1_555
C5A N7A 1_555 1_555
C6A N9A 1_555 1_555
C7A N10A 1_555 1_555
C8A N7A 1_555 1_555
N1C Cu1C 1_555 1_555
N2A C1A 1_555 1_555
N3A C2A 1_555 1_555
N4A Mn1A 1_555 1_555
N5C C3C 1_555 1_555
N6C Cu1 1_555 1_555
N8A Mn1A 1_555 1_555
N9A_2 Mn1A 1_555 1_555
N10A C6A 1_555 1_555
N11A Mn1 1_555 1_555
N11_2 Mn1A 1_555 1_555
N12A Mn1 1_555 1_555
N12_2 Mn1A 1_555 1_555
S1B C9B 1_555 1_555
S2B C9B 1_555 1_555
S3B C10B 1_555 1_555
S4B C11B 1_555 1_555
C10B S1B 1_555 1_555
C11B S2B 1_555 1_555
C12B S3B 1_555 1_555
H1B C12B 1_555 1_555
H2B C12B 1_555 1_555
C13B S4B 1_555 1_555
H3B C13B 1_555 1_555
H4B C13B 1_555 1_555
S5B C16B 1_555 1_555
S6B C16B 1_555 1_555
S7B C17B 1_555 1_555
S8B C18B 1_555 1_555
C17B S5B 1_555 1_555
C18B S6B 1_555 1_555
C19B S7B 1_555 1_555
H9B C19B 1_555 1_555
H10B C19B 1_555 1_555
C20B S8B 1_555 1_555
H11B C20B 1_555 1_555
H12B C20B 1_555 1_555
S9B C21B 1_555 1_555
S10B C21B 1_555 1_555
S11B C22B 1_555 1_555
S12B C23B 1_555 1_555
C22B S9B 1_555 1_555
C23B S10B 1_555 1_555
C24B S11B 1_555 1_555
H13B C24B 1_555 1_555
H14B C24B 1_555 1_555
C25B S12B 1_555 1_555
H15B C25B 1_555 1_555
H16B C25B 1_555 1_555
S13B C26B 1_555 1_555
S14B C26B 1_555 1_555
S15B C27B 1_555 1_555
S16B C28B 1_555 1_555
C27B S13B 1_555 1_555
C28B S14B 1_555 1_555
C29B S15B 1_555 1_555
H17B C29B 1_555 1_555
H18B C29B 1_555 1_555
C30B S16B 1_555 1_555
H19B C30B 1_555 1_555
H20B C30B 1_555 1_555
C5 N8 1_555 1_555
C10 C11 1_555 1_555
C12 C13 1_555 1_555
C17 C18 1_555 1_555
C19 C20 1_555 1_555
C22 C23 1_555 1_555
C24 C25 1_555 1_555
C27 C28 1_555 1_555
C29 C30 1_555 1_555
C4C N6C 1_555 1_555
C5A N8A 1_555 1_555
C7A N11A 1_555 1_555
C8A N12A 1_555 1_555
C10B C11B 1_555 1_555
C12B C13B 1_555 1_555
C17B C18B 1_555 1_555
C19B C20B 1_555 1_555
C22B C23B 1_555 1_555
C24B C25B 1_555 1_555
C27B C28B 1_555 1_555
C29B C30B 1_555 1_555

#END
