
#######################################################################
#
#                 Cambridge Crystallographic Data Centre
#                                CCDC 
#
#######################################################################
#
# If this CIF has been generated from an entry in the Cambridge 
# Structural Database, then it will include bibliographic, chemical, 
# crystal, experimental, refinement or atomic coordinate data resulting 
# from the CCDC's data processing and validation procedures.
#
#######################################################################

data_NAMDUD
_chemical_formula_moiety         '(C216 H144 Cl3 Mn12 O60 15-)n'
_symmetry_cell_setting           cubic
_symmetry_space_group_name_H-M   'I m -3 m'
_symmetry_Int_Tables_number      229
_space_group_name_Hall           '-I 4 2 3'
loop_
_symmetry_equiv_pos_site_id
_symmetry_equiv_pos_as_xyz
1 x,y,z
2 -x,-y,z
3 -x,y,-z
4 x,-y,-z
5 z,x,y
6 z,-x,-y
7 -z,-x,y
8 -z,x,-y
9 y,z,x
10 -y,z,-x
11 y,-z,-x
12 -y,-z,x
13 y,x,-z
14 -y,-x,-z
15 y,-x,z
16 -y,x,z
17 x,z,-y
18 -x,z,y
19 -x,-z,-y
20 x,-z,y
21 z,y,-x
22 z,-y,x
23 -z,y,x
24 -z,-y,-x
25 1/2+x,1/2+y,1/2+z
26 1/2-x,1/2-y,1/2+z
27 1/2-x,1/2+y,1/2-z
28 1/2+x,1/2-y,1/2-z
29 1/2+z,1/2+x,1/2+y
30 1/2+z,1/2-x,1/2-y
31 1/2-z,1/2-x,1/2+y
32 1/2-z,1/2+x,1/2-y
33 1/2+y,1/2+z,1/2+x
34 1/2-y,1/2+z,1/2-x
35 1/2+y,1/2-z,1/2-x
36 1/2-y,1/2-z,1/2+x
37 1/2+y,1/2+x,1/2-z
38 1/2-y,1/2-x,1/2-z
39 1/2+y,1/2-x,1/2+z
40 1/2-y,1/2+x,1/2+z
41 1/2+x,1/2+z,1/2-y
42 1/2-x,1/2+z,1/2+y
43 1/2-x,1/2-z,1/2-y
44 1/2+x,1/2-z,1/2+y
45 1/2+z,1/2+y,1/2-x
46 1/2+z,1/2-y,1/2+x
47 1/2-z,1/2+y,1/2+x
48 1/2-z,1/2-y,1/2-x
49 -x,-y,-z
50 x,y,-z
51 x,-y,z
52 -x,y,z
53 -z,-x,-y
54 -z,x,y
55 z,x,-y
56 z,-x,y
57 -y,-z,-x
58 y,-z,x
59 -y,z,x
60 y,z,-x
61 -y,-x,z
62 y,x,z
63 -y,x,-z
64 y,-x,-z
65 -x,-z,y
66 x,-z,-y
67 x,z,y
68 -x,z,-y
69 -z,-y,x
70 -z,y,-x
71 z,-y,-x
72 z,y,x
73 1/2-x,1/2-y,1/2-z
74 1/2+x,1/2+y,1/2-z
75 1/2+x,1/2-y,1/2+z
76 1/2-x,1/2+y,1/2+z
77 1/2-z,1/2-x,1/2-y
78 1/2-z,1/2+x,1/2+y
79 1/2+z,1/2+x,1/2-y
80 1/2+z,1/2-x,1/2+y
81 1/2-y,1/2-z,1/2-x
82 1/2+y,1/2-z,1/2+x
83 1/2-y,1/2+z,1/2+x
84 1/2+y,1/2+z,1/2-x
85 1/2-y,1/2-x,1/2+z
86 1/2+y,1/2+x,1/2+z
87 1/2-y,1/2+x,1/2-z
88 1/2+y,1/2-x,1/2-z
89 1/2-x,1/2-z,1/2+y
90 1/2+x,1/2-z,1/2-y
91 1/2+x,1/2+z,1/2+y
92 1/2-x,1/2+z,1/2-y
93 1/2-z,1/2-y,1/2+x
94 1/2-z,1/2+y,1/2-x
95 1/2+z,1/2-y,1/2-x
96 1/2+z,1/2+y,1/2+x
_cell_length_a                   26.0759(5)
_cell_length_b                   26.0759(5)
_cell_length_c                   26.0759(5)
_cell_angle_alpha                90
_cell_angle_beta                 90
_cell_angle_gamma                90
_cell_volume                     17730.4
loop_
_atom_site_label
_atom_site_type_symbol
_atom_site_fract_x
_atom_site_fract_y
_atom_site_fract_z
Mn1 Mn 0.60644(4) 0.000000 0.500000
Cl1 Cl 0.500000 0.000000 0.500000
O1 O 0.6953(2) 0.000000 0.500000
H1 H 0.714077 -0.000000 0.526620
O2 O 0.61453(14) 0.05841(12) 0.55512(12)
C1 C 0.62115(18) 0.1177(2) 0.62115(18)
C2 C 0.59514(15) 0.07404(19) 0.59514(15)
C3 C 0.73457(19) 0.26543(19) 0.6704(2)
C4 C 0.6688(2) 0.2008(2) 0.6688(2)
C5 C 0.6020(2) 0.1389(2) 0.6656(2)
H2 H 0.572368 0.125127 0.680040
C6 C 0.6929(2) 0.2457(2) 0.6929(2)
C7 C 0.6252(2) 0.1793(2) 0.6889(2)
H3 H 0.611241 0.192565 0.718952
H1C H 0.714077 0.000000 0.473380
O2E O 0.55512(12) 0.38547(14) 0.94159(12)
C1E C 0.62115(18) 0.37885(18) 0.8823(2)
C2E C 0.59514(15) 0.40486(15) 0.92596(19)
C3E C 0.6704(2) 0.26543(19) 0.73457(19)
C4E C 0.6688(2) 0.3312(2) 0.7992(2)
C5E C 0.6656(2) 0.3980(2) 0.8611(2)
H2E H 0.680040 0.427632 0.874873
C6E C 0.6929(2) 0.3071(2) 0.7543(2)
C7E C 0.6889(2) 0.3748(2) 0.8207(2)
H3E H 0.718952 0.388759 0.807435
O2K O 0.94159(12) 0.44488(12) 0.61453(14)
C1K C 0.8823(2) 0.37885(18) 0.62115(18)
C2K C 0.92596(19) 0.40486(15) 0.59514(15)
C3K C 0.73457(19) 0.3296(2) 0.73457(19)
C4K C 0.7992(2) 0.3312(2) 0.6688(2)
C5K C 0.8611(2) 0.3344(2) 0.6020(2)
H2K H 0.874873 0.319960 0.572368
C6K C 0.7543(2) 0.3071(2) 0.6929(2)
C7K C 0.8207(2) 0.3111(2) 0.6252(2)
H3K H 0.807435 0.281048 0.611241
O2HB O 0.94159(12) 0.38547(14) 0.55512(12)
C5HB C 0.8611(2) 0.3980(2) 0.6656(2)
H2HB H 0.874873 0.427632 0.680040
C7HB C 0.8207(2) 0.3748(2) 0.6889(2)
H3HB H 0.807435 0.388759 0.718952
O2MB O 0.61453(14) 0.44488(12) 0.94159(12)
C5MB C 0.6020(2) 0.3344(2) 0.8611(2)
H2MB H 0.572368 0.319960 0.874873
C7MB C 0.6252(2) 0.3111(2) 0.8207(2)
H3MB H 0.611241 0.281048 0.807435
O2SB O 0.55512(12) 0.05841(12) 0.61453(14)
C5SB C 0.6656(2) 0.1389(2) 0.6020(2)
H2SB H 0.680040 0.125127 0.572368
C7SB C 0.6889(2) 0.1793(2) 0.6252(2)
H3SB H 0.718952 0.192565 0.611241
Mn1A Mn 0.39356(4) 0.000000 0.500000
O1A O 0.3047(2) 0.000000 0.500000
H1A H 0.285923 -0.000000 0.526620
H1B H 0.285923 0.000000 0.473380
O2B O 0.38547(14) 0.05841(12) 0.44488(12)
C1B C 0.37885(18) 0.1177(2) 0.37885(18)
C2B C 0.40486(15) 0.07404(19) 0.40486(15)
C3B C 0.26543(19) 0.26543(19) 0.3296(2)
C4B C 0.3312(2) 0.2008(2) 0.3312(2)
C5B C 0.3980(2) 0.1389(2) 0.3344(2)
H2B H 0.427632 0.125127 0.319960
C6B C 0.3071(2) 0.2457(2) 0.3071(2)
C7B C 0.3748(2) 0.1793(2) 0.3111(2)
H3B H 0.388759 0.192565 0.281048
O2F O 0.44488(12) 0.38547(14) 0.05841(12)
C1F C 0.37885(18) 0.37885(18) 0.1177(2)
C2F C 0.40486(15) 0.40486(15) 0.07404(19)
C3F C 0.3296(2) 0.26543(19) 0.26543(19)
C4F C 0.3312(2) 0.3312(2) 0.2008(2)
C5F C 0.3344(2) 0.3980(2) 0.1389(2)
H2F H 0.319960 0.427632 0.125127
C6F C 0.3071(2) 0.3071(2) 0.2457(2)
C7F C 0.3111(2) 0.3748(2) 0.1793(2)
H3F H 0.281048 0.388759 0.192565
O2J O 0.05841(12) 0.44488(12) 0.38547(14)
C1J C 0.1177(2) 0.37885(18) 0.37885(18)
C2J C 0.07404(19) 0.40486(15) 0.40486(15)
C3J C 0.26543(19) 0.3296(2) 0.26543(19)
C4J C 0.2008(2) 0.3312(2) 0.3312(2)
C5J C 0.1389(2) 0.3344(2) 0.3980(2)
H2J H 0.125127 0.319960 0.427632
C6J C 0.2457(2) 0.3071(2) 0.3071(2)
C7J C 0.1793(2) 0.3111(2) 0.3748(2)
H3J H 0.192565 0.281048 0.388759
O2KB O 0.05841(12) 0.38547(14) 0.44488(12)
C5KB C 0.1389(2) 0.3980(2) 0.3344(2)
H2KB H 0.125127 0.427632 0.319960
C7KB C 0.1793(2) 0.3748(2) 0.3111(2)
H3KB H 0.192565 0.388759 0.281048
O2LB O 0.38547(14) 0.44488(12) 0.05841(12)
C5LB C 0.3980(2) 0.3344(2) 0.1389(2)
H2LB H 0.427632 0.319960 0.125127
C7LB C 0.3748(2) 0.3111(2) 0.1793(2)
H3LB H 0.388759 0.281048 0.192565
O2QB O 0.44488(12) 0.05841(12) 0.38547(14)
C5QB C 0.3344(2) 0.1389(2) 0.3980(2)
H2QB H 0.319960 0.125127 0.427632
C7QB C 0.3111(2) 0.1793(2) 0.3748(2)
H3QB H 0.281048 0.192565 0.388759
Mn1E Mn 0.500000 0.39356(4) 1.000000
Cl1D Cl 0.500000 0.500000 1.000000
O1E O 0.500000 0.3047(2) 1.000000
H1E H 0.526620 0.285923 1.000000
H1F H 0.473380 0.285923 1.000000
Mn1E_2 Mn 0.500000 0.39356(4) 0.000000
Cl1D_2 Cl 0.500000 0.500000 0.000000
O1E_2 O 0.500000 0.3047(2) 0.000000
H1F_2 H 0.473380 0.285923 0.000000
H1E_2 H 0.526620 0.285923 0.000000
Mn1D Mn 0.500000 0.60644(4) 1.000000
O1D O 0.500000 0.6953(2) 1.000000
H1G H 0.473380 0.714077 1.000000
O2G O 0.44488(12) 0.61453(14) 0.94159(12)
C1G C 0.37885(18) 0.62115(18) 0.8823(2)
C2G C 0.40486(15) 0.59514(15) 0.92596(19)
C3G C 0.3296(2) 0.73457(19) 0.73457(19)
C4G C 0.3312(2) 0.6688(2) 0.7992(2)
C5G C 0.3344(2) 0.6020(2) 0.8611(2)
H2G H 0.319960 0.572368 0.874873
C6G C 0.3071(2) 0.6929(2) 0.7543(2)
C7G C 0.3111(2) 0.6252(2) 0.8207(2)
H3G H 0.281048 0.611241 0.807435
H1D H 0.526620 0.714077 1.000000
O2H O 0.05841(12) 0.55512(12) 0.61453(14)
C1H C 0.1177(2) 0.62115(18) 0.62115(18)
C2H C 0.07404(19) 0.59514(15) 0.59514(15)
C3H C 0.26543(19) 0.6704(2) 0.73457(19)
C4H C 0.2008(2) 0.6688(2) 0.6688(2)
C5H C 0.1389(2) 0.6656(2) 0.6020(2)
H2H H 0.125127 0.680040 0.572368
C6H C 0.2457(2) 0.6929(2) 0.6929(2)
C7H C 0.1793(2) 0.6889(2) 0.6252(2)
H3H H 0.192565 0.718952 0.611241
O2A O 0.38547(14) 0.94159(12) 0.55512(12)
C1A C 0.37885(18) 0.8823(2) 0.62115(18)
C2A C 0.40486(15) 0.92596(19) 0.59514(15)
C3A C 0.26543(19) 0.73457(19) 0.6704(2)
C4A C 0.3312(2) 0.7992(2) 0.6688(2)
C5A C 0.3980(2) 0.8611(2) 0.6656(2)
H2A H 0.427632 0.874873 0.680040
C6A C 0.3071(2) 0.7543(2) 0.6929(2)
C7A C 0.3748(2) 0.8207(2) 0.6889(2)
H3A H 0.388759 0.807435 0.718952
O2PB O 0.44488(12) 0.94159(12) 0.61453(14)
C5PB C 0.3344(2) 0.8611(2) 0.6020(2)
H2PB H 0.319960 0.874873 0.572368
C7PB C 0.3111(2) 0.8207(2) 0.6252(2)
H3PB H 0.281048 0.807435 0.611241
O2IB O 0.05841(12) 0.61453(14) 0.55512(12)
C5IB C 0.1389(2) 0.6020(2) 0.6656(2)
H2IB H 0.125127 0.572368 0.680040
C7IB C 0.1793(2) 0.6252(2) 0.6889(2)
H3IB H 0.192565 0.611241 0.718952
O2OB O 0.38547(14) 0.55512(12) 0.94159(12)
C5OB C 0.3980(2) 0.6656(2) 0.8611(2)
H2OB H 0.427632 0.680040 0.874873
C7OB C 0.3748(2) 0.6889(2) 0.8207(2)
H3OB H 0.388759 0.718952 0.807435
Mn1H Mn -0.000000 0.500000 0.60644(4)
O1H O -0.000000 0.500000 0.6953(2)
H1H H 0.000000 0.526620 0.714077
H1K H 0.000000 0.473380 0.714077
Mn1I Mn -0.000000 0.500000 0.39356(4)
O1I O 0.000000 0.500000 0.3047(2)
H1J H 0.000000 0.473380 0.285923
H1I H -0.000000 0.526620 0.285923
Mn1H_2 Mn 1.000000 0.500000 0.60644(4)
O1H_2 O 1.000000 0.500000 0.6953(2)
H1K_2 H 1.000000 0.473380 0.714077
H1H_2 H 1.000000 0.526620 0.714077
Mn1M Mn 1.000000 0.39356(4) 0.500000
O1M O 1.000000 0.3047(2) 0.500000
H1M H 1.000000 0.285923 0.473380
O2M O 0.94159(12) 0.38547(14) 0.44488(12)
C1M C 0.8823(2) 0.37885(18) 0.37885(18)
C2M C 0.92596(19) 0.40486(15) 0.40486(15)
C3M C 0.73457(19) 0.26543(19) 0.3296(2)
C4M C 0.7992(2) 0.3312(2) 0.3312(2)
C5M C 0.8611(2) 0.3980(2) 0.3344(2)
H2M H 0.874873 0.427632 0.319960
C6M C 0.7543(2) 0.3071(2) 0.3071(2)
C7M C 0.8207(2) 0.3748(2) 0.3111(2)
H3M H 0.807435 0.388759 0.281048
H1N H 1.000000 0.285923 0.526620
O2S O 0.61453(14) 0.44488(12) 0.05841(12)
C1S C 0.62115(18) 0.37885(18) 0.1177(2)
C2S C 0.59514(15) 0.40486(15) 0.07404(19)
C3S C 0.73457(19) 0.3296(2) 0.26543(19)
C4S C 0.6688(2) 0.3312(2) 0.2008(2)
C5S C 0.6020(2) 0.3344(2) 0.1389(2)
H2S H 0.572368 0.319960 0.125127
C6S C 0.6929(2) 0.3071(2) 0.2457(2)
C7S C 0.6252(2) 0.3111(2) 0.1793(2)
H3S H 0.611241 0.281048 0.192565
O2T O 0.55512(12) 0.05841(12) 0.38547(14)
C1T C 0.62115(18) 0.1177(2) 0.37885(18)
C2T C 0.59514(15) 0.07404(19) 0.40486(15)
C3T C 0.6704(2) 0.26543(19) 0.26543(19)
C4T C 0.6688(2) 0.2008(2) 0.3312(2)
C5T C 0.6656(2) 0.1389(2) 0.3980(2)
H2T H 0.680040 0.125127 0.427632
C6T C 0.6929(2) 0.2457(2) 0.3071(2)
C7T C 0.6889(2) 0.1793(2) 0.3748(2)
H3T H 0.718952 0.192565 0.388759
O2WA O 0.61453(14) 0.05841(12) 0.44488(12)
C5WA C 0.6020(2) 0.1389(2) 0.3344(2)
H2WA H 0.572368 0.125127 0.319960
C7WA C 0.6252(2) 0.1793(2) 0.3111(2)
H3WA H 0.611241 0.192565 0.281048
O2CB O 0.55512(12) 0.38547(14) 0.05841(12)
C5CB C 0.6656(2) 0.3980(2) 0.1389(2)
H2CB H 0.680040 0.427632 0.125127
C7CB C 0.6889(2) 0.3748(2) 0.1793(2)
H3CB H 0.718952 0.388759 0.192565
O2DB O 0.94159(12) 0.44488(12) 0.38547(14)
C5DB C 0.8611(2) 0.3344(2) 0.3980(2)
H2DB H 0.874873 0.319960 0.427632
C7DB C 0.8207(2) 0.3111(2) 0.3748(2)
H3DB H 0.807435 0.281048 0.388759
O2M_2 O 0.94159(12) 0.38547(14) 1.44488(12)
C1M_2 C 0.8823(2) 0.37885(18) 1.37885(18)
C2M_2 C 0.92596(19) 0.40486(15) 1.40486(15)
C3M_2 C 0.73457(19) 0.26543(19) 1.3296(2)
C4M_2 C 0.7992(2) 0.3312(2) 1.3312(2)
C5M_2 C 0.8611(2) 0.3980(2) 1.3344(2)
H2M_2 H 0.874873 0.427632 1.319960
C6M_2 C 0.7543(2) 0.3071(2) 1.3071(2)
C7M_2 C 0.8207(2) 0.3748(2) 1.3111(2)
H3M_2 H 0.807435 0.388759 1.281048
O2S_2 O 0.61453(14) 0.44488(12) 1.05841(12)
C1S_2 C 0.62115(18) 0.37885(18) 1.1177(2)
C2S_2 C 0.59514(15) 0.40486(15) 1.07404(19)
C3S_2 C 0.73457(19) 0.3296(2) 1.26543(19)
C4S_2 C 0.6688(2) 0.3312(2) 1.2008(2)
C5S_2 C 0.6020(2) 0.3344(2) 1.1389(2)
H2S_2 H 0.572368 0.319960 1.125127
C6S_2 C 0.6929(2) 0.3071(2) 1.2457(2)
C7S_2 C 0.6252(2) 0.3111(2) 1.1793(2)
H3S_2 H 0.611241 0.281048 1.192565
O2T_2 O 0.55512(12) 0.05841(12) 1.38547(14)
C1T_2 C 0.62115(18) 0.1177(2) 1.37885(18)
C2T_2 C 0.59514(15) 0.07404(19) 1.40486(15)
C3T_2 C 0.6704(2) 0.26543(19) 1.26543(19)
C4T_2 C 0.6688(2) 0.2008(2) 1.3312(2)
C5T_2 C 0.6656(2) 0.1389(2) 1.3980(2)
H2T_2 H 0.680040 0.125127 1.427632
C6T_2 C 0.6929(2) 0.2457(2) 1.3071(2)
C7T_2 C 0.6889(2) 0.1793(2) 1.3748(2)
H3T_2 H 0.718952 0.192565 1.388759
O2WA_2 O 0.61453(14) 0.05841(12) 1.44488(12)
C5WA_2 C 0.6020(2) 0.1389(2) 1.3344(2)
H2WA_2 H 0.572368 0.125127 1.319960
C7WA_2 C 0.6252(2) 0.1793(2) 1.3111(2)
H3WA_2 H 0.611241 0.192565 1.281048
O2CB_2 O 0.55512(12) 0.38547(14) 1.05841(12)
C5CB_2 C 0.6656(2) 0.3980(2) 1.1389(2)
H2CB_2 H 0.680040 0.427632 1.125127
C7CB_2 C 0.6889(2) 0.3748(2) 1.1793(2)
H3CB_2 H 0.718952 0.388759 1.192565
O2DB_2 O 0.94159(12) 0.44488(12) 1.38547(14)
C5DB_2 C 0.8611(2) 0.3344(2) 1.3980(2)
H2DB_2 H 0.874873 0.319960 1.427632
C7DB_2 C 0.8207(2) 0.3111(2) 1.3748(2)
H3DB_2 H 0.807435 0.281048 1.388759
O2N O 0.05841(12) 0.38547(14) 0.55512(12)
C1N C 0.1177(2) 0.37885(18) 0.62115(18)
C2N C 0.07404(19) 0.40486(15) 0.59514(15)
C3N C 0.26543(19) 0.26543(19) 0.6704(2)
C4N C 0.2008(2) 0.3312(2) 0.6688(2)
C5N C 0.1389(2) 0.3980(2) 0.6656(2)
H2N H 0.125127 0.427632 0.680040
C6N C 0.2457(2) 0.3071(2) 0.6929(2)
C7N C 0.1793(2) 0.3748(2) 0.6889(2)
H3N H 0.192565 0.388759 0.718952
O2R O 0.38547(14) 0.44488(12) 0.94159(12)
C1R C 0.37885(18) 0.37885(18) 0.8823(2)
C2R C 0.40486(15) 0.40486(15) 0.92596(19)
C3R C 0.26543(19) 0.3296(2) 0.73457(19)
C4R C 0.3312(2) 0.3312(2) 0.7992(2)
C5R C 0.3980(2) 0.3344(2) 0.8611(2)
H2R H 0.427632 0.319960 0.874873
C6R C 0.3071(2) 0.3071(2) 0.7543(2)
C7R C 0.3748(2) 0.3111(2) 0.8207(2)
H3R H 0.388759 0.281048 0.807435
O2V O 0.44488(12) 0.05841(12) 0.61453(14)
C1V C 0.37885(18) 0.1177(2) 0.62115(18)
C2V C 0.40486(15) 0.07404(19) 0.59514(15)
C3V C 0.3296(2) 0.26543(19) 0.73457(19)
C4V C 0.3312(2) 0.2008(2) 0.6688(2)
C5V C 0.3344(2) 0.1389(2) 0.6020(2)
H2V H 0.319960 0.125127 0.572368
C6V C 0.3071(2) 0.2457(2) 0.6929(2)
C7V C 0.3111(2) 0.1793(2) 0.6252(2)
H3V H 0.281048 0.192565 0.611241
O2YA O 0.38547(14) 0.05841(12) 0.55512(12)
C5YA C 0.3980(2) 0.1389(2) 0.6656(2)
H2YA H 0.427632 0.125127 0.680040
C7YA C 0.3748(2) 0.1793(2) 0.6889(2)
H3YA H 0.388759 0.192565 0.718952
O2ZA O 0.44488(12) 0.38547(14) 0.94159(12)
C5ZA C 0.3344(2) 0.3980(2) 0.8611(2)
H2ZA H 0.319960 0.427632 0.874873
C7ZA C 0.3111(2) 0.3748(2) 0.8207(2)
H3ZA H 0.281048 0.388759 0.807435
O2EB O 0.05841(12) 0.44488(12) 0.61453(14)
C5EB C 0.1389(2) 0.3344(2) 0.6020(2)
H2EB H 0.125127 0.319960 0.572368
C7EB C 0.1793(2) 0.3111(2) 0.6252(2)
H3EB H 0.192565 0.281048 0.611241
O2N_2 O 1.05841(12) 0.38547(14) 0.55512(12)
C1N_2 C 1.1177(2) 0.37885(18) 0.62115(18)
C2N_2 C 1.07404(19) 0.40486(15) 0.59514(15)
C3N_2 C 1.26543(19) 0.26543(19) 0.6704(2)
C4N_2 C 1.2008(2) 0.3312(2) 0.6688(2)
C5N_2 C 1.1389(2) 0.3980(2) 0.6656(2)
H2N_2 H 1.125127 0.427632 0.680040
C6N_2 C 1.2457(2) 0.3071(2) 0.6929(2)
C7N_2 C 1.1793(2) 0.3748(2) 0.6889(2)
H3N_2 H 1.192565 0.388759 0.718952
O2R_2 O 1.38547(14) 0.44488(12) 0.94159(12)
C1R_2 C 1.37885(18) 0.37885(18) 0.8823(2)
C2R_2 C 1.40486(15) 0.40486(15) 0.92596(19)
C3R_2 C 1.26543(19) 0.3296(2) 0.73457(19)
C4R_2 C 1.3312(2) 0.3312(2) 0.7992(2)
C5R_2 C 1.3980(2) 0.3344(2) 0.8611(2)
H2R_2 H 1.427632 0.319960 0.874873
C6R_2 C 1.3071(2) 0.3071(2) 0.7543(2)
C7R_2 C 1.3748(2) 0.3111(2) 0.8207(2)
H3R_2 H 1.388759 0.281048 0.807435
O2V_2 O 1.44488(12) 0.05841(12) 0.61453(14)
C1V_2 C 1.37885(18) 0.1177(2) 0.62115(18)
C2V_2 C 1.40486(15) 0.07404(19) 0.59514(15)
C3V_2 C 1.3296(2) 0.26543(19) 0.73457(19)
C4V_2 C 1.3312(2) 0.2008(2) 0.6688(2)
C5V_2 C 1.3344(2) 0.1389(2) 0.6020(2)
H2V_2 H 1.319960 0.125127 0.572368
C6V_2 C 1.3071(2) 0.2457(2) 0.6929(2)
C7V_2 C 1.3111(2) 0.1793(2) 0.6252(2)
H3V_2 H 1.281048 0.192565 0.611241
O2YA_2 O 1.38547(14) 0.05841(12) 0.55512(12)
C5YA_2 C 1.3980(2) 0.1389(2) 0.6656(2)
H2YA_2 H 1.427632 0.125127 0.680040
C7YA_2 C 1.3748(2) 0.1793(2) 0.6889(2)
H3YA_2 H 1.388759 0.192565 0.718952
O2ZA_2 O 1.44488(12) 0.38547(14) 0.94159(12)
C5ZA_2 C 1.3344(2) 0.3980(2) 0.8611(2)
H2ZA_2 H 1.319960 0.427632 0.874873
C7ZA_2 C 1.3111(2) 0.3748(2) 0.8207(2)
H3ZA_2 H 1.281048 0.388759 0.807435
O2EB_2 O 1.05841(12) 0.44488(12) 0.61453(14)
C5EB_2 C 1.1389(2) 0.3344(2) 0.6020(2)
H2EB_2 H 1.125127 0.319960 0.572368
C7EB_2 C 1.1793(2) 0.3111(2) 0.6252(2)
H3EB_2 H 1.192565 0.281048 0.611241
Mn1L Mn 1.000000 -0.39356(4) 0.500000
O1L O 1.000000 -0.3047(2) 0.500000
H1O H 1.000000 -0.285923 0.526620
O2O O 0.94159(12) -0.38547(14) 0.55512(12)
C1O C 0.8823(2) -0.37885(18) 0.62115(18)
C2O C 0.92596(19) -0.40486(15) 0.59514(15)
C3O C 0.73457(19) -0.26543(19) 0.6704(2)
C4O C 0.7992(2) -0.3312(2) 0.6688(2)
C5O C 0.8611(2) -0.3980(2) 0.6656(2)
H2O H 0.874873 -0.427632 0.680040
C6O C 0.7543(2) -0.3071(2) 0.6929(2)
C7O C 0.8207(2) -0.3748(2) 0.6889(2)
H3O H 0.807435 -0.388759 0.718952
H1L H 1.000000 -0.285923 0.473380
O2P O 0.61453(14) -0.44488(12) 0.94159(12)
C1P C 0.62115(18) -0.37885(18) 0.8823(2)
C2P C 0.59514(15) -0.40486(15) 0.92596(19)
C3P C 0.73457(19) -0.3296(2) 0.73457(19)
C4P C 0.6688(2) -0.3312(2) 0.7992(2)
C5P C 0.6020(2) -0.3344(2) 0.8611(2)
H2P H 0.572368 -0.319960 0.874873
C6P C 0.6929(2) -0.3071(2) 0.7543(2)
C7P C 0.6252(2) -0.3111(2) 0.8207(2)
H3P H 0.611241 -0.281048 0.807435
O2U O 0.55512(12) -0.05841(12) 0.61453(14)
C1U C 0.62115(18) -0.1177(2) 0.62115(18)
C2U C 0.59514(15) -0.07404(19) 0.59514(15)
C3U C 0.6704(2) -0.26543(19) 0.73457(19)
C4U C 0.6688(2) -0.2008(2) 0.6688(2)
C5U C 0.6656(2) -0.1389(2) 0.6020(2)
H2U H 0.680040 -0.125127 0.572368
C6U C 0.6929(2) -0.2457(2) 0.6929(2)
C7U C 0.6889(2) -0.1793(2) 0.6252(2)
H3U H 0.718952 -0.192565 0.611241
O2XA O 0.61453(14) -0.05841(12) 0.55512(12)
C5XA C 0.6020(2) -0.1389(2) 0.6656(2)
H2XA H 0.572368 -0.125127 0.680040
C7XA C 0.6252(2) -0.1793(2) 0.6889(2)
H3XA H 0.611241 -0.192565 0.718952
O2BB O 0.55512(12) -0.38547(14) 0.94159(12)
C5BB C 0.6656(2) -0.3980(2) 0.8611(2)
H2BB H 0.680040 -0.427632 0.874873
C7BB C 0.6889(2) -0.3748(2) 0.8207(2)
H3BB H 0.718952 -0.388759 0.807435
O2FB O 0.94159(12) -0.44488(12) 0.61453(14)
C5FB C 0.8611(2) -0.3344(2) 0.6020(2)
H2FB H 0.874873 -0.319960 0.572368
C7FB C 0.8207(2) -0.3111(2) 0.6252(2)
H3FB H 0.807435 -0.281048 0.611241
Mn1T Mn 0.500000 -0.000000 0.39356(4)
O1T O 0.500000 -0.000000 0.3047(2)
H1W H 0.473380 -0.000000 0.285923
H1T H 0.526620 -0.000000 0.285923
Mn1U Mn 0.500000 0.000000 0.60644(4)
O1U O 0.500000 -0.000000 0.6953(2)
H1U H 0.526620 0.000000 0.714077
H1V H 0.473380 0.000000 0.714077
Mn1_2 Mn 0.60644(4) 0.000000 1.500000
Mn1A_2 Mn 0.39356(4) 1.000000 0.500000
Mn1A_3 Mn 1.39356(4) 0.000000 0.500000
Mn1D_2 Mn 0.500000 -0.39356(4) 1.000000
Mn1D_3 Mn 0.500000 0.60644(4) 0.000000
Mn1E_3 Mn 1.500000 0.39356(4) 1.000000
Mn1H_3 Mn 1.000000 -0.500000 0.60644(4)
Mn1I_2 Mn 1.000000 0.500000 0.39356(4)
Mn1I_3 Mn 1.000000 0.500000 1.39356(4)
Mn1L_2 Mn 0.000000 0.60644(4) 0.500000
Mn1M_2 Mn -0.000000 0.39356(4) 0.500000
Mn1M_3 Mn 1.000000 0.39356(4) 1.500000
Mn1P Mn 0.60644(4) -0.500000 1.000000
Mn1P_2 Mn 0.60644(4) 0.500000 0.000000
Mn1P_3 Mn 0.60644(4) 0.500000 1.000000
Mn1Q Mn 0.39356(4) 0.500000 0.000000
Mn1Q_2 Mn 0.39356(4) 0.500000 1.000000
Mn1Q_3 Mn 1.39356(4) 0.500000 1.000000
Mn1T_2 Mn 0.500000 0.000000 1.39356(4)
Mn1U_2 Mn 0.500000 1.000000 0.60644(4)
Mn1U_3 Mn 1.500000 0.000000 0.60644(4)
Cl1H Cl 0.000000 0.500000 0.500000
Cl1H_2 Cl 1.000000 -0.500000 0.500000
Cl1H_3 Cl 1.000000 0.500000 0.500000
O2A_2 O 0.38547(14) -0.05841(12) 0.55512(12)
O2C O 0.61453(14) -0.05841(12) 0.44488(12)
O2D O 0.55512(12) 0.61453(14) 1.05841(12)
O2E_2 O 0.55512(12) 0.38547(14) -0.05841(12)
O2F_2 O 0.44488(12) 0.38547(14) 1.05841(12)
O2H_2 O 1.05841(12) 0.55512(12) 0.61453(14)
O2I O -0.05841(12) 0.55512(12) 0.38547(14)
O2K_2 O -0.05841(12) 0.44488(12) 0.61453(14)
O2L O 1.05841(12) -0.38547(14) 0.44488(12)
O2W O 0.44488(12) -0.05841(12) 0.38547(14)
O2VA O 0.38547(14) -0.05841(12) 0.44488(12)
O2ZA_3 O 0.44488(12) 0.38547(14) -0.05841(12)
O2AB O 0.44488(12) 0.61453(14) 1.05841(12)
O2BB_2 O 0.55512(12) 0.61453(14) 0.94159(12)
O2DB_3 O -0.05841(12) 0.44488(12) 0.38547(14)
O2FB_2 O -0.05841(12) 0.55512(12) 0.61453(14)
O2FB_3 O 0.94159(12) 0.55512(12) 0.61453(14)
O2GB O 0.05841(12) 0.55512(12) 0.38547(14)
O2IB_2 O 1.05841(12) -0.38547(14) 0.55512(12)
O2JB O 0.94159(12) -0.38547(14) 0.44488(12)
O2KB_2 O 1.05841(12) 0.38547(14) 0.44488(12)
O2PB_2 O 0.44488(12) -0.05841(12) 0.61453(14)
O2RB O 0.55512(12) -0.05841(12) 0.38547(14)
loop_
_geom_bond_atom_site_label_1
_geom_bond_atom_site_label_2
_geom_bond_site_symmetry_1
_geom_bond_site_symmetry_2
Mn1 Cl1 1_555 1_555
Cl1 Mn1A 1_555 1_555
O1 Mn1 1_555 1_555
H1 O1 1_555 1_555
O2 Mn1 1_555 1_555
C1 C2 1_555 1_555
C2 O2 1_555 1_555
C3 C6 1_555 1_555
C4 C6 1_555 1_555
C5 C1 1_555 1_555
H2 C5 1_555 1_555
C6 C3E 1_555 1_555
C7 C4 1_555 1_555
H3 C7 1_555 1_555
H1C O1 1_555 1_555
O2E C2E 1_555 1_555
C1E C2E 1_555 1_555
C2E O2MB 1_555 1_555
C3E C6E 1_555 1_555
C4E C6E 1_555 1_555
C5E C1E 1_555 1_555
H2E C5E 1_555 1_555
C6E C3K 1_555 1_555
C7E C4E 1_555 1_555
H3E C7E 1_555 1_555
O2K C2K 1_555 1_555
C1K C2K 1_555 1_555
C2K O2HB 1_555 1_555
C3K C6K 1_555 1_555
C4K C6K 1_555 1_555
C5K C1K 1_555 1_555
H2K C5K 1_555 1_555
C6K C3 1_555 1_555
C7K C4K 1_555 1_555
H3K C7K 1_555 1_555
O2HB Mn1M 1_555 1_555
C5HB C1K 1_555 1_555
H2HB C5HB 1_555 1_555
C7HB C4K 1_555 1_555
H3HB C7HB 1_555 1_555
O2MB Mn1P_3 1_555 1_555
C5MB C1E 1_555 1_555
H2MB C5MB 1_555 1_555
C7MB C4E 1_555 1_555
H3MB C7MB 1_555 1_555
O2SB C2 1_555 1_555
C5SB C1 1_555 1_555
H2SB C5SB 1_555 1_555
C7SB C4 1_555 1_555
H3SB C7SB 1_555 1_555
Mn1A O1A 1_555 1_555
O1A H1A 1_555 1_555
H1B O1A 1_555 1_555
O2B Mn1A 1_555 1_555
C1B C2B 1_555 1_555
C2B O2B 1_555 1_555
C3B C6B 1_555 1_555
C4B C6B 1_555 1_555
C5B C1B 1_555 1_555
H2B C5B 1_555 1_555
C6B C3F 1_555 1_555
C7B C4B 1_555 1_555
H3B C7B 1_555 1_555
O2F C2F 1_555 1_555
C1F C2F 1_555 1_555
C2F O2LB 1_555 1_555
C3F C6F 1_555 1_555
C4F C6F 1_555 1_555
C5F C1F 1_555 1_555
H2F C5F 1_555 1_555
C6F C3J 1_555 1_555
C7F C4F 1_555 1_555
H3F C7F 1_555 1_555
O2J C2J 1_555 1_555
C1J C2J 1_555 1_555
C2J O2KB 1_555 1_555
C3J C6J 1_555 1_555
C4J C6J 1_555 1_555
C5J C1J 1_555 1_555
H2J C5J 1_555 1_555
C6J C3B 1_555 1_555
C7J C4J 1_555 1_555
H3J C7J 1_555 1_555
O2KB Mn1M_2 1_555 1_555
C5KB C1J 1_555 1_555
H2KB C5KB 1_555 1_555
C7KB C4J 1_555 1_555
H3KB C7KB 1_555 1_555
O2LB Mn1Q 1_555 1_555
C5LB C1F 1_555 1_555
H2LB C5LB 1_555 1_555
C7LB C4F 1_555 1_555
H3LB C7LB 1_555 1_555
O2QB C2B 1_555 1_555
C5QB C1B 1_555 1_555
H2QB C5QB 1_555 1_555
C7QB C4B 1_555 1_555
H3QB C7QB 1_555 1_555
Mn1E O2E 1_555 1_555
Cl1D Mn1E 1_555 1_555
O1E Mn1E 1_555 1_555
H1E O1E 1_555 1_555
H1F O1E 1_555 1_555
Mn1E_2 O2F 1_555 1_555
Cl1D_2 Mn1E_2 1_555 1_555
O1E_2 Mn1E_2 1_555 1_555
H1F_2 O1E_2 1_555 1_555
H1E_2 O1E_2 1_555 1_555
Mn1D Cl1D 1_555 1_555
O1D Mn1D 1_555 1_555
H1G O1D 1_555 1_555
O2G Mn1D 1_555 1_555
C1G C2G 1_555 1_555
C2G O2G 1_555 1_555
C3G C6G 1_555 1_555
C4G C6G 1_555 1_555
C5G C1G 1_555 1_555
H2G C5G 1_555 1_555
C6G C3H 1_555 1_555
C7G C4G 1_555 1_555
H3G C7G 1_555 1_555
H1D O1D 1_555 1_555
O2H C2H 1_555 1_555
C1H C2H 1_555 1_555
C2H O2IB 1_555 1_555
C3H C6H 1_555 1_555
C4H C6H 1_555 1_555
C5H C1H 1_555 1_555
H2H C5H 1_555 1_555
C6H C3A 1_555 1_555
C7H C4H 1_555 1_555
H3H C7H 1_555 1_555
O2A C2A 1_555 1_555
C1A C2A 1_555 1_555
C2A O2PB 1_555 1_555
C3A C6A 1_555 1_555
C4A C6A 1_555 1_555
C5A C1A 1_555 1_555
H2A C5A 1_555 1_555
C6A C3G 1_555 1_555
C7A C4A 1_555 1_555
H3A C7A 1_555 1_555
O2PB Mn1U_2 1_555 1_555
C5PB C1A 1_555 1_555
H2PB C5PB 1_555 1_555
C7PB C4A 1_555 1_555
H3PB C7PB 1_555 1_555
O2IB Mn1L_2 1_555 1_555
C5IB C1H 1_555 1_555
H2IB C5IB 1_555 1_555
C7IB C4H 1_555 1_555
H3IB C7IB 1_555 1_555
O2OB C2G 1_555 1_555
C5OB C1G 1_555 1_555
H2OB C5OB 1_555 1_555
C7OB C4G 1_555 1_555
H3OB C7OB 1_555 1_555
Mn1H O2H 1_555 1_555
O1H Mn1H 1_555 1_555
H1H O1H 1_555 1_555
H1K O1H 1_555 1_555
Mn1I O2J 1_555 1_555
O1I Mn1I 1_555 1_555
H1J O1I 1_555 1_555
H1I O1I 1_555 1_555
Mn1H_2 O2K 1_555 1_555
O1H_2 Mn1H_2 1_555 1_555
H1K_2 O1H_2 1_555 1_555
H1H_2 O1H_2 1_555 1_555
Mn1M O1M 1_555 1_555
O1M H1M 1_555 1_555
O2M Mn1M 1_555 1_555
C1M C2M 1_555 1_555
C2M O2M 1_555 1_555
C3M C6M 1_555 1_555
C4M C6M 1_555 1_555
C5M C1M 1_555 1_555
H2M C5M 1_555 1_555
C6M C3S 1_555 1_555
C7M C4M 1_555 1_555
H3M C7M 1_555 1_555
H1N O1M 1_555 1_555
O2S C2S 1_555 1_555
C1S C2S 1_555 1_555
C2S O2CB 1_555 1_555
C3S C6S 1_555 1_555
C4S C6S 1_555 1_555
C5S C1S 1_555 1_555
H2S C5S 1_555 1_555
C6S C3T 1_555 1_555
C7S C4S 1_555 1_555
H3S C7S 1_555 1_555
O2T C2T 1_555 1_555
C1T C2T 1_555 1_555
C2T O2WA 1_555 1_555
C3T C6T 1_555 1_555
C4T C6T 1_555 1_555
C5T C1T 1_555 1_555
H2T C5T 1_555 1_555
C6T C3M 1_555 1_555
C7T C4T 1_555 1_555
H3T C7T 1_555 1_555
O2WA Mn1 1_555 1_555
C5WA C1T 1_555 1_555
H2WA C5WA 1_555 1_555
C7WA C4T 1_555 1_555
H3WA C7WA 1_555 1_555
O2CB Mn1E_2 1_555 1_555
C5CB C1S 1_555 1_555
H2CB C5CB 1_555 1_555
C7CB C4S 1_555 1_555
H3CB C7CB 1_555 1_555
O2DB C2M 1_555 1_555
C5DB C1M 1_555 1_555
H2DB C5DB 1_555 1_555
C7DB C4M 1_555 1_555
H3DB C7DB 1_555 1_555
O2M_2 C2M_2 1_555 1_555
C1M_2 C2M_2 1_555 1_555
C2M_2 O2DB_2 1_555 1_555
C3M_2 C6M_2 1_555 1_555
C4M_2 C6M_2 1_555 1_555
C5M_2 C1M_2 1_555 1_555
H2M_2 C5M_2 1_555 1_555
C6M_2 C3S_2 1_555 1_555
C7M_2 C4M_2 1_555 1_555
H3M_2 C7M_2 1_555 1_555
O2S_2 C2S_2 1_555 1_555
C1S_2 C2S_2 1_555 1_555
C2S_2 O2CB_2 1_555 1_555
C3S_2 C6S_2 1_555 1_555
C4S_2 C6S_2 1_555 1_555
C5S_2 C1S_2 1_555 1_555
H2S_2 C5S_2 1_555 1_555
C6S_2 C3T_2 1_555 1_555
C7S_2 C4S_2 1_555 1_555
H3S_2 C7S_2 1_555 1_555
O2T_2 C2T_2 1_555 1_555
C1T_2 C2T_2 1_555 1_555
C2T_2 O2WA_2 1_555 1_555
C3T_2 C6T_2 1_555 1_555
C4T_2 C6T_2 1_555 1_555
C5T_2 C1T_2 1_555 1_555
H2T_2 C5T_2 1_555 1_555
C6T_2 C3M_2 1_555 1_555
C7T_2 C4T_2 1_555 1_555
H3T_2 C7T_2 1_555 1_555
O2WA_2 Mn1_2 1_555 1_555
C5WA_2 C1T_2 1_555 1_555
H2WA_2 C5WA_2 1_555 1_555
C7WA_2 C4T_2 1_555 1_555
H3WA_2 C7WA_2 1_555 1_555
O2CB_2 Mn1E 1_555 1_555
C5CB_2 C1S_2 1_555 1_555
H2CB_2 C5CB_2 1_555 1_555
C7CB_2 C4S_2 1_555 1_555
H3CB_2 C7CB_2 1_555 1_555
O2DB_2 Mn1I_3 1_555 1_555
C5DB_2 C1M_2 1_555 1_555
H2DB_2 C5DB_2 1_555 1_555
C7DB_2 C4M_2 1_555 1_555
H3DB_2 C7DB_2 1_555 1_555
O2N C2N 1_555 1_555
C1N C2N 1_555 1_555
C2N O2EB 1_555 1_555
C3N C6N 1_555 1_555
C4N C6N 1_555 1_555
C5N C1N 1_555 1_555
H2N C5N 1_555 1_555
C6N C3R 1_555 1_555
C7N C4N 1_555 1_555
H3N C7N 1_555 1_555
O2R C2R 1_555 1_555
C1R C2R 1_555 1_555
C2R O2ZA 1_555 1_555
C3R C6R 1_555 1_555
C4R C6R 1_555 1_555
C5R C1R 1_555 1_555
H2R C5R 1_555 1_555
C6R C3V 1_555 1_555
C7R C4R 1_555 1_555
H3R C7R 1_555 1_555
O2V C2V 1_555 1_555
C1V C2V 1_555 1_555
C2V O2YA 1_555 1_555
C3V C6V 1_555 1_555
C4V C6V 1_555 1_555
C5V C1V 1_555 1_555
H2V C5V 1_555 1_555
C6V C3N 1_555 1_555
C7V C4V 1_555 1_555
H3V C7V 1_555 1_555
O2YA Mn1A 1_555 1_555
C5YA C1V 1_555 1_555
H2YA C5YA 1_555 1_555
C7YA C4V 1_555 1_555
H3YA C7YA 1_555 1_555
O2ZA Mn1E 1_555 1_555
C5ZA C1R 1_555 1_555
H2ZA C5ZA 1_555 1_555
C7ZA C4R 1_555 1_555
H3ZA C7ZA 1_555 1_555
O2EB Mn1H 1_555 1_555
C5EB C1N 1_555 1_555
H2EB C5EB 1_555 1_555
C7EB C4N 1_555 1_555
H3EB C7EB 1_555 1_555
O2N_2 Mn1M 1_555 1_555
C1N_2 C2N_2 1_555 1_555
C2N_2 O2N_2 1_555 1_555
C3N_2 C6N_2 1_555 1_555
C4N_2 C6N_2 1_555 1_555
C5N_2 C1N_2 1_555 1_555
H2N_2 C5N_2 1_555 1_555
C6N_2 C3R_2 1_555 1_555
C7N_2 C4N_2 1_555 1_555
H3N_2 C7N_2 1_555 1_555
O2R_2 C2R_2 1_555 1_555
C1R_2 C2R_2 1_555 1_555
C2R_2 O2ZA_2 1_555 1_555
C3R_2 C6R_2 1_555 1_555
C4R_2 C6R_2 1_555 1_555
C5R_2 C1R_2 1_555 1_555
H2R_2 C5R_2 1_555 1_555
C6R_2 C3V_2 1_555 1_555
C7R_2 C4R_2 1_555 1_555
H3R_2 C7R_2 1_555 1_555
O2V_2 C2V_2 1_555 1_555
C1V_2 C2V_2 1_555 1_555
C2V_2 O2YA_2 1_555 1_555
C3V_2 C6V_2 1_555 1_555
C4V_2 C6V_2 1_555 1_555
C5V_2 C1V_2 1_555 1_555
H2V_2 C5V_2 1_555 1_555
C6V_2 C3N_2 1_555 1_555
C7V_2 C4V_2 1_555 1_555
H3V_2 C7V_2 1_555 1_555
O2YA_2 Mn1A_3 1_555 1_555
C5YA_2 C1V_2 1_555 1_555
H2YA_2 C5YA_2 1_555 1_555
C7YA_2 C4V_2 1_555 1_555
H3YA_2 C7YA_2 1_555 1_555
O2ZA_2 Mn1E_3 1_555 1_555
C5ZA_2 C1R_2 1_555 1_555
H2ZA_2 C5ZA_2 1_555 1_555
C7ZA_2 C4R_2 1_555 1_555
H3ZA_2 C7ZA_2 1_555 1_555
O2EB_2 Mn1H_2 1_555 1_555
C5EB_2 C1N_2 1_555 1_555
H2EB_2 C5EB_2 1_555 1_555
C7EB_2 C4N_2 1_555 1_555
H3EB_2 C7EB_2 1_555 1_555
Mn1L O1L 1_555 1_555
O1L H1O 1_555 1_555
O2O Mn1L 1_555 1_555
C1O C2O 1_555 1_555
C2O O2O 1_555 1_555
C3O C6O 1_555 1_555
C4O C6O 1_555 1_555
C5O C1O 1_555 1_555
H2O C5O 1_555 1_555
C6O C3P 1_555 1_555
C7O C4O 1_555 1_555
H3O C7O 1_555 1_555
H1L O1L 1_555 1_555
O2P C2P 1_555 1_555
C1P C2P 1_555 1_555
C2P O2BB 1_555 1_555
C3P C6P 1_555 1_555
C4P C6P 1_555 1_555
C5P C1P 1_555 1_555
H2P C5P 1_555 1_555
C6P C3U 1_555 1_555
C7P C4P 1_555 1_555
H3P C7P 1_555 1_555
O2U C2U 1_555 1_555
C1U C2U 1_555 1_555
C2U O2XA 1_555 1_555
C3U C6U 1_555 1_555
C4U C6U 1_555 1_555
C5U C1U 1_555 1_555
H2U C5U 1_555 1_555
C6U C3O 1_555 1_555
C7U C4U 1_555 1_555
H3U C7U 1_555 1_555
O2XA Mn1 1_555 1_555
C5XA C1U 1_555 1_555
H2XA C5XA 1_555 1_555
C7XA C4U 1_555 1_555
H3XA C7XA 1_555 1_555
O2BB Mn1D_2 1_555 1_555
C5BB C1P 1_555 1_555
H2BB C5BB 1_555 1_555
C7BB C4P 1_555 1_555
H3BB C7BB 1_555 1_555
O2FB C2O 1_555 1_555
C5FB C1O 1_555 1_555
H2FB C5FB 1_555 1_555
C7FB C4O 1_555 1_555
H3FB C7FB 1_555 1_555
Mn1T Cl1 1_555 1_555
O1T Mn1T 1_555 1_555
H1W O1T 1_555 1_555
H1T O1T 1_555 1_555
Mn1U Cl1 1_555 1_555
O1U Mn1U 1_555 1_555
H1U O1U 1_555 1_555
H1V O1U 1_555 1_555
Mn1A_2 O2A 1_555 1_555
Mn1D_3 Cl1D_2 1_555 1_555
Mn1H_3 O2FB 1_555 1_555
Mn1I_2 O2DB 1_555 1_555
Mn1L_2 Cl1H 1_555 1_555
Mn1M_2 O2N 1_555 1_555
Mn1M_3 O2M_2 1_555 1_555
Mn1P O2P 1_555 1_555
Mn1P_2 Cl1D_2 1_555 1_555
Mn1P_3 Cl1D 1_555 1_555
Mn1Q Cl1D_2 1_555 1_555
Mn1Q_2 Cl1D 1_555 1_555
Mn1Q_3 O2R_2 1_555 1_555
Mn1T_2 O2T_2 1_555 1_555
Mn1U_3 O2V_2 1_555 1_555
Cl1H Mn1H 1_555 1_555
Cl1H_2 Mn1L 1_555 1_555
Cl1H_3 Mn1H_2 1_555 1_555
O2A_2 Mn1A 1_555 1_555
O2C Mn1 1_555 1_555
O2D Mn1D 1_555 1_555
O2E_2 Mn1E_2 1_555 1_555
O2F_2 Mn1E 1_555 1_555
O2H_2 Mn1H_2 1_555 1_555
O2I Mn1I 1_555 1_555
O2K_2 Mn1H 1_555 1_555
O2L Mn1L 1_555 1_555
O2W Mn1T 1_555 1_555
O2VA Mn1A 1_555 1_555
O2ZA_3 Mn1E_2 1_555 1_555
O2AB Mn1D 1_555 1_555
O2BB_2 Mn1D 1_555 1_555
O2DB_3 Mn1I 1_555 1_555
O2FB_2 Mn1H 1_555 1_555
O2FB_3 Mn1H_2 1_555 1_555
O2GB Mn1I 1_555 1_555
O2IB_2 Mn1L 1_555 1_555
O2JB Mn1L 1_555 1_555
O2KB_2 Mn1M 1_555 1_555
O2PB_2 Mn1U 1_555 1_555
O2RB Mn1T 1_555 1_555
C5 C7 1_555 1_555
C5E C7E 1_555 1_555
C5K C7K 1_555 1_555
C5HB C7HB 1_555 1_555
C5MB C7MB 1_555 1_555
O2SB Mn1U 1_555 1_555
C5SB C7SB 1_555 1_555
C5B C7B 1_555 1_555
C5F C7F 1_555 1_555
C5J C7J 1_555 1_555
C5KB C7KB 1_555 1_555
C5LB C7LB 1_555 1_555
O2QB Mn1T 1_555 1_555
C5QB C7QB 1_555 1_555
C5G C7G 1_555 1_555
C5H C7H 1_555 1_555
C5A C7A 1_555 1_555
C5PB C7PB 1_555 1_555
C5IB C7IB 1_555 1_555
O2OB Mn1Q_2 1_555 1_555
C5OB C7OB 1_555 1_555
Mn1I Cl1H 1_555 1_555
Mn1M Cl1H_3 1_555 1_555
C5M C7M 1_555 1_555
O2S Mn1P_2 1_555 1_555
C5S C7S 1_555 1_555
O2T Mn1T 1_555 1_555
C5T C7T 1_555 1_555
C5WA C7WA 1_555 1_555
C5CB C7CB 1_555 1_555
C5DB C7DB 1_555 1_555
C5M_2 C7M_2 1_555 1_555
O2S_2 Mn1P_3 1_555 1_555
C5S_2 C7S_2 1_555 1_555
C5T_2 C7T_2 1_555 1_555
C5WA_2 C7WA_2 1_555 1_555
C5CB_2 C7CB_2 1_555 1_555
C5DB_2 C7DB_2 1_555 1_555
C5N C7N 1_555 1_555
O2R Mn1Q_2 1_555 1_555
C5R C7R 1_555 1_555
O2V Mn1U 1_555 1_555
C5V C7V 1_555 1_555
C5YA C7YA 1_555 1_555
C5ZA C7ZA 1_555 1_555
C5EB C7EB 1_555 1_555
C2N_2 O2EB_2 1_555 1_555
C5N_2 C7N_2 1_555 1_555
C5R_2 C7R_2 1_555 1_555
C5V_2 C7V_2 1_555 1_555
C5YA_2 C7YA_2 1_555 1_555
C5ZA_2 C7ZA_2 1_555 1_555
C5EB_2 C7EB_2 1_555 1_555
C5O C7O 1_555 1_555
C5P C7P 1_555 1_555
O2U Mn1U 1_555 1_555
C5U C7U 1_555 1_555
C5XA C7XA 1_555 1_555
C5BB C7BB 1_555 1_555
C5FB C7FB 1_555 1_555
Mn1H_3 Cl1H_2 1_555 1_555
Mn1I_2 Cl1H_3 1_555 1_555
Mn1M_2 Cl1H 1_555 1_555

#END
