
#######################################################################
#
#                 Cambridge Crystallographic Data Centre
#                                CCDC 
#
#######################################################################
#
# If this CIF has been generated from an entry in the Cambridge 
# Structural Database, then it will include bibliographic, chemical, 
# crystal, experimental, refinement or atomic coordinate data resulting 
# from the CCDC's data processing and validation procedures.
#
#######################################################################

data_HUFYIS
_chemical_formula_moiety         '(C24 H40 O38 U4)n'
_symmetry_cell_setting           trigonal
_symmetry_space_group_name_H-M   'P 32'
_symmetry_Int_Tables_number      145
_space_group_name_Hall           'P 32'
loop_
_symmetry_equiv_pos_site_id
_symmetry_equiv_pos_as_xyz
1 x,y,z
2 -y,x-y,2/3+z
3 -x+y,-x,1/3+z
_cell_length_a                   19.0913(3)
_cell_length_b                   19.0913(3)
_cell_length_c                   11.7929(5)
_cell_angle_alpha                90
_cell_angle_beta                 90
_cell_angle_gamma                120
_cell_volume                     3722.39
loop_
_atom_site_label
_atom_site_type_symbol
_atom_site_fract_x
_atom_site_fract_y
_atom_site_fract_z
C1 C 0.3696(8) 0.7847(12) 0.3056(11)
C2 C 0.3814(8) 0.7364(11) 0.2160(11)
H1 H 0.3704 0.7517 0.1425
H2 H 0.3428 0.6795 0.2276
C3 C 0.4657(7) 0.7483(8) 0.2152(11)
H3 H 0.4744 0.7307 0.2884
H4 H 0.4666 0.7117 0.1590
C4 C 0.5356(8) 0.8288(8) 0.1930(12)
C5 C 0.4423(8) 0.5627(8) 0.0504(11)
C6 C 0.4121(9) 0.5204(8) 0.1544(12)
H5 H 0.3785 0.4636 0.1355
H6 H 0.3764 0.5379 0.1859
C7 C 0.4709(8) 0.5257(8) 0.2536(11)
H7 H 0.4918 0.5777 0.2906
H8 H 0.4392 0.4844 0.3092
C8 C 0.5416(8) 0.5159(7) 0.2202(11)
C9 C 0.7550(12) 1.2863(8) 0.3059(12)
C10 C 0.7141(8) 1.2722(8) 0.1948(12)
H9 H 0.7461 1.2626 0.1396
H10 H 0.7155 1.3218 0.1728
C11 C 0.6261(8) 1.2028(7) 0.1844(11)
H11 H 0.5933 1.2008 0.2484
H12 H 0.6010 1.2055 0.1142
C12 C 0.6434(8) 1.1330(8) 0.1852(12)
C13 C 0.7960(8) 0.5465(8) 0.3449(13)
C14 C 0.8647(8) 0.5684(7) 0.4215(11)
H13 H 0.9154 0.6071 0.3861
H14 H 0.8676 0.5210 0.4438
C15 C 0.8460(9) 0.6050(8) 0.5211(12)
H15 H 0.8867 0.6183 0.5792
H16 H 0.7940 0.5657 0.5526
C16 C 0.8437(8) 0.6842(7) 0.4873(12)
C17 C 0.8946(8) 0.9054(7) 0.2686(11)
C18 C 0.9123(8) 0.9489(8) 0.1532(11)
H17 H 0.8739 0.9106 0.0993
H18 H 0.9655 0.9599 0.1296
C19 C 0.9105(7) 1.0314(7) 0.1389(11)
H19 H 0.9460 1.0709 0.1941
H20 H 0.9288 1.0535 0.0636
C20 C 0.8285(8) 1.0136(9) 0.1560(12)
C21 C 0.7810(8) 0.8793(9) 0.6452(12)
C22 C 0.7579(8) 0.9151(7) 0.7370(11)
H21 H 0.7119 0.9186 0.7097
H22 H 0.8020 0.9702 0.7453
C23 C 0.7364(8) 0.8800(7) 0.8556(11)
H23 H 0.7742 0.8635 0.8814
H24 H 0.7375 0.9195 0.9083
C24 C 0.6529(8) 0.8085(8) 0.8469(11)
O1 O 0.4101(5) 0.8143(8) 0.3904(8)
O2 O 0.3066(5) 0.7986(7) 0.3198(8)
O3 O 0.6083(6) 0.8453(5) 0.2026(8)
O4 O 0.5172(5) 0.8807(6) 0.1559(8)
H25 H 0.4808 0.8867 0.2071
O5 O 0.4116(5) 0.5553(5) -0.0390(8)
O6 O 0.5121(5) 0.6291(5) 0.0418(7)
H26 H 0.5571 0.6203 0.0569
O7 O 0.5509(6) 0.4943(5) 0.1159(8)
O8 O 0.5901(5) 0.5334(5) 0.2990(8)
O9 O 0.8184(8) 1.3519(6) 0.3121(8)
O10 O 0.7189(7) 1.2390(5) 0.3961(9)
O11 O 0.7078(6) 1.1350(6) 0.1723(8)
O12 O 0.5848(5) 1.0617(5) 0.1660(9)
O13 O 0.7354(5) 0.5466(5) 0.3699(8)
O14 O 0.8081(5) 0.5190(5) 0.2501(8)
O15 O 0.8151(5) 0.7027(5) 0.5690(8)
O16 O 0.8677(5) 0.7236(6) 0.4031(8)
H27 H 0.8366 0.6941 0.3371
O17 O 0.8739(5) 0.8358(5) 0.2709(8)
O18 O 0.8816(5) 0.9430(5) 0.3531(8)
O19 O 0.7656(5) 0.9462(6) 0.1819(8)
O20 O 0.8161(5) 1.0730(5) 0.1549(8)
O21 O 0.7899(5) 0.9161(5) 0.5580(8)
O22 O 0.7939(6) 0.8202(6) 0.6723(8)
O23 O 0.6164(5) 0.7897(5) 0.7627(8)
O24 O 0.6449(5) 0.7634(5) 0.9357(8)
O25 O 0.4748(5) 0.7305(5) -0.0990(8)
O26 O 0.5461(5) 0.6028(6) -0.2009(8)
O27 O 0.7280(5) 0.6133(5) 0.1476(7)
O28 O 0.6326(5) 0.4026(5) 0.2228(8)
O29 O 0.7329(5) 0.7675(5) 0.4241(8)
O30 O 0.9377(5) 0.8847(5) 0.5143(8)
O31 O 0.6828(5) 1.0030(5) 0.3158(9)
O32 O 0.6425(6) 0.9816(5) 0.0243(8)
U1 U 0.51180(4) 0.66758(4) -0.14895(4)
U2 U 0.67882(4) 0.50607(4) 0.18216(4)
U3 U 0.83508(3) 0.82871(3) 0.46676(6)
U4 U 0.66754(4) 0.98966(4) 0.17476(5)
O1B O 0.4042(9) 0.5899(5) -0.2763(8)
O2B O 0.4920(9) 0.6934(5) -0.3469(8)
O9A O 0.6481(6) 0.4665(10) -0.0212(8)
O10A O 0.7610(5) 0.4799(9) 0.0628(9)
O23_2 O 0.6164(5) 0.7897(5) -0.2373(8)
O24_2 O 0.6449(5) 0.7634(5) -0.0643(8)
U1_2 U 0.51180(4) 0.66758(4) 0.85105(4)
U1A U 0.33242(4) 0.84422(6) 0.51772(4)
U2B U 0.82725(6) 1.32118(4) 0.51549(4)
O33 O 0.1470(17) 0.735(2) 0.178(3)
H28 H 0.1042 0.7293 0.1471
H29 H 0.1351 0.7002 0.2301
O34 O 0.6159(18) 0.7486(17) 0.314(3)
H30 H 0.6125 0.7586 0.3836
H31 H 0.6596 0.7483 0.3018
O35 O 0.9147(11) 0.1470(12) 0.3211(16)
H32 H 0.8775 0.0977 0.3203
H33 H 0.8941 0.1766 0.3342
O36 O 0.0306(19) 0.3903(19) 0.921(3)
H34 H 0.0682 0.4387 0.9101
H35 H -0.0104 0.3914 0.9470
O37 O 0.911(2) 0.3364(18) 0.133(3)
H36 H 0.9180 0.3350 0.2037
H37 H 0.8911 0.3669 0.1188
O38 O 0.9799(13) 0.5532(13) 0.1349(19)
H38 H 0.9979 0.5764 0.0714
H39 H 0.9406 0.5592 0.1557
loop_
_geom_bond_atom_site_label_1
_geom_bond_atom_site_label_2
_geom_bond_site_symmetry_1
_geom_bond_site_symmetry_2
C1 C2 1_555 1_555
C2 H1 1_555 1_555
H2 C2 1_555 1_555
C3 C2 1_555 1_555
H3 C3 1_555 1_555
H4 C3 1_555 1_555
C4 C3 1_555 1_555
C5 C6 1_555 1_555
C6 H5 1_555 1_555
H6 C6 1_555 1_555
C7 C6 1_555 1_555
H7 C7 1_555 1_555
H8 C7 1_555 1_555
C8 C7 1_555 1_555
C9 C10 1_555 1_555
C10 H9 1_555 1_555
H10 C10 1_555 1_555
C11 C10 1_555 1_555
H11 C11 1_555 1_555
H12 C11 1_555 1_555
C12 C11 1_555 1_555
C13 C14 1_555 1_555
C14 H13 1_555 1_555
H14 C14 1_555 1_555
C15 C14 1_555 1_555
H15 C15 1_555 1_555
H16 C15 1_555 1_555
C16 C15 1_555 1_555
C17 C18 1_555 1_555
C18 H17 1_555 1_555
H18 C18 1_555 1_555
C19 C18 1_555 1_555
H19 C19 1_555 1_555
H20 C19 1_555 1_555
C20 C19 1_555 1_555
C21 C22 1_555 1_555
C22 H21 1_555 1_555
H22 C22 1_555 1_555
C23 C22 1_555 1_555
H23 C23 1_555 1_555
H24 C23 1_555 1_555
C24 C23 1_555 1_555
O1 C1 1_555 1_555
O2 C1 1_555 1_555
O3 C4 1_555 1_555
O4 C4 1_555 1_555
H25 O4 1_555 1_555
O5 C5 1_555 1_555
O6 C5 1_555 1_555
H26 O6 1_555 1_555
O7 C8 1_555 1_555
O8 C8 1_555 1_555
O9 C9 1_555 1_555
O10 C9 1_555 1_555
O11 C12 1_555 1_555
O12 C12 1_555 1_555
O13 C13 1_555 1_555
O14 C13 1_555 1_555
O15 C16 1_555 1_555
O16 C16 1_555 1_555
H27 O16 1_555 1_555
O17 C17 1_555 1_555
O18 C17 1_555 1_555
O19 C20 1_555 1_555
O20 C20 1_555 1_555
O21 C21 1_555 1_555
O22 C21 1_555 1_555
O23 C24 1_555 1_555
O24 C24 1_555 1_555
O25 U1 1_555 1_555
O26 U1 1_555 1_555
O27 U2 1_555 1_555
O28 U2 1_555 1_555
O29 U3 1_555 1_555
O30 U3 1_555 1_555
O31 U4 1_555 1_555
O32 U4 1_555 1_555
U1 O5 1_555 1_555
U2 O7 1_555 1_555
U3 O15 1_555 1_555
U4 O3 1_555 1_555
O33 H28 1_555 1_555
H29 O33 1_555 1_555
O34 H30 1_555 1_555
H31 O34 1_555 1_555
O35 H32 1_555 1_555
H33 O35 1_555 1_555
O36 H34 1_555 1_555
H35 O36 1_555 1_555
O37 H36 1_555 1_555
H37 O37 1_555 1_555
O38 H38 1_555 1_555
H39 O38 1_555 1_555
O1B U1 1_555 1_555
O2B U1 1_555 1_555
O9A U2 1_555 1_555
O10A U2 1_555 1_555
O23_2 U1 1_555 1_555
O24_2 U1 1_555 1_555
U1_2 O23 1_555 1_555
U1A O1 1_555 1_555
U2B O9 1_555 1_555
O2 U1A 1_555 1_555
O4 U4 1_555 1_555
O6 U1 1_555 1_555
O8 U2 1_555 1_555
O10 U2B 1_555 1_555
O11 U4 1_555 1_555
O12 U4 1_555 1_555
O13 U2 1_555 1_555
O14 U2 1_555 1_555
O16 U3 1_555 1_555
O17 U3 1_555 1_555
O18 U3 1_555 1_555
O19 U4 1_555 1_555
O20 U4 1_555 1_555
O21 U3 1_555 1_555
O22 U3 1_555 1_555
O24 U1_2 1_555 1_555

#END
