
#######################################################################
#
#                 Cambridge Crystallographic Data Centre
#                                CCDC 
#
#######################################################################
#
# If this CIF has been generated from an entry in the Cambridge 
# Structural Database, then it will include bibliographic, chemical, 
# crystal, experimental, refinement or atomic coordinate data resulting 
# from the CCDC's data processing and validation procedures.
#
#######################################################################

data_QERCEV
_chemical_formula_moiety         '(C2 H12 F2 N2 O24 P6 Zr4)n'
_symmetry_cell_setting           triclinic
_symmetry_space_group_name_H-M   'P -1'
_symmetry_Int_Tables_number      2
_space_group_name_Hall           '-P 1'
loop_
_symmetry_equiv_pos_site_id
_symmetry_equiv_pos_as_xyz
1 x,y,z
2 -x,-y,-z
_cell_length_a                   6.605(2)
_cell_length_b                   8.787(3)
_cell_length_c                   11.499(5)
_cell_angle_alpha                93.07(4)
_cell_angle_beta                 90.42(4)
_cell_angle_gamma                104.66(4)
_cell_volume                     644.576
loop_
_atom_site_label
_atom_site_type_symbol
_atom_site_fract_x
_atom_site_fract_y
_atom_site_fract_z
Zr1 Zr 0.1805(3) 0.7744(2) 0.4062(2)
Zr2 Zr 0.2281(3) 0.9414(3) 0.8513(2)
P1 P 0.2856(6) 1.1190(4) 0.5837(3)
P2 P 0.2392(6) 0.9568(3) 0.1417(3)
P3 P -0.1292(6) 0.4060(4) 0.3220(3)
F1 F 0.3037(13) 1.1631(9) 0.9237(6)
O1 O 0.2506(15) 1.0072(10) 0.4727(7)
O2 O 0.1361(22) 1.2231(17) 0.5831(12)
O3 O 0.5168(23) 1.2267(17) 0.5911(13)
O4 O 0.2433(15) 1.0203(10) 0.6892(8)
O5 O 0.4506(21) 1.0652(17) 0.1652(10)
O6 O 0.0802(21) 1.0598(17) 0.1589(11)
O7 O 0.2106(15) 0.8619(10) 0.0224(8)
O8 O 0.1980(15) 0.8422(10) 0.2375(7)
O9 O -0.1283(14) 0.2998(9) 0.2104(7)
O10 O 0.0721(16) 0.5413(11) 0.3324(8)
O11 O -0.1619(15) 0.3137(10) 0.4305(8)
O12 O -0.3238(18) 0.4790(12) 0.3008(8)
H1 H -0.350(25) 0.568(10) 0.333(12)
P1A P -0.2856(6) 0.8810(4) 0.4163(3)
O1A O -0.2506(15) 0.9928(10) 0.5273(7)
O2A O -0.1361(22) 0.7769(17) 0.4169(12)
O3A O -0.5168(23) 0.7733(17) 0.4089(13)
O4A O -0.2433(15) 0.9797(10) 0.3108(8)
P3A P 0.1292(6) 0.5940(4) 0.6780(3)
O9A O 0.1283(14) 0.7002(9) 0.7896(7)
O10A O -0.0721(16) 0.4587(11) 0.6676(8)
O11A O 0.1619(15) 0.6863(10) 0.5695(8)
O12A O 0.3238(18) 0.5210(12) 0.6992(8)
H1A H 0.350(25) 0.432(10) 0.667(12)
Zr1A Zr -0.1805(3) 1.2256(2) 0.5938(2)
Zr2A Zr -0.2281(3) 1.0586(3) 0.1487(2)
P2A P 0.7608(6) 1.0432(3) 0.8583(3)
O5A O 0.5494(21) 0.9348(17) 0.8348(10)
O6A O 0.9198(21) 0.9402(17) 0.8411(11)
O7A O 0.7894(15) 1.1381(10) 0.9776(8)
O8A O 0.8020(15) 1.1578(10) 0.7625(7)
F1A F -0.3037(13) 0.8369(9) 0.0763(6)
O3A_2 O 0.4832(23) 0.7733(17) 0.4089(13)
O6A_2 O -0.0802(21) 0.9402(17) 0.8411(11)
O7_2 O 0.2106(15) 0.8619(10) 1.0224(8)
Zr1A_2 Zr 0.8195(3) 1.2256(2) 0.5938(2)
Zr2A_2 Zr 0.7719(3) 1.0586(3) 0.1487(2)
Zr2_2 Zr 0.2281(3) 0.9414(3) -0.1487(2)
Zr2A_3 Zr -0.2281(3) 0.0586(3) 0.1487(2)
Zr1A_3 Zr -0.1805(3) 0.2256(2) 0.5938(2)
Zr1_2 Zr -0.8195(3) 0.7744(2) 0.4062(2)
O3_2 O -0.4832(23) 1.2267(17) 0.5911(13)
O8A_2 O -0.1980(15) 1.1578(10) 0.7625(7)
O10A_2 O -0.0721(16) 1.4587(11) 0.6676(8)
O11_2 O -0.1619(15) 1.3137(10) 0.4305(8)
O5_2 O -0.5494(21) 1.0652(17) 0.1652(10)
O7A_2 O -0.2106(15) 1.1381(10) -0.0224(8)
O9_2 O -0.1283(14) 1.2998(9) 0.2104(7)
Zr2_3 Zr 1.2281(3) 0.9414(3) 0.8513(2)
Zr2A_4 Zr 0.7719(3) 1.0586(3) 1.1487(2)
N1 N 0.6568(20) 0.6155(13) -0.1144(11)
H2 H 0.7834(69) 0.6179(89) -0.1415(68)
H3 H 0.656(17) 0.7098(24) -0.0823(26)
H4 H 0.5629(93) 0.5903(69) -0.1728(45)
C1 C 0.6038(26) 0.4980(18) -0.0270(13)
H5 H 0.7127(26) 0.5197(18) 0.0331(13)
H6 H 0.5947(26) 0.3941(18) -0.0630(13)
C1A C 0.3962(26) 0.5020(18) 0.0270(13)
N1A N 0.3432(20) 0.3845(13) 0.1144(11)
H2A H 0.2166(69) 0.3821(89) 0.1415(68)
H3A H 0.344(17) 0.2902(24) 0.0823(26)
H4A H 0.4371(93) 0.4097(69) 0.1728(45)
H5A H 0.2873(26) 0.4803(18) -0.0331(13)
H6A H 0.4053(26) 0.6059(18) 0.0630(13)
loop_
_geom_bond_atom_site_label_1
_geom_bond_atom_site_label_2
_geom_bond_site_symmetry_1
_geom_bond_site_symmetry_2
Zr1 O1 1_555 1_555
Zr2 F1 1_555 1_555
P1 O1 1_555 1_555
P2 O5 1_555 1_555
P3 O9 1_555 1_555
O2 P1 1_555 1_555
O3 P1 1_555 1_555
O4 Zr2 1_555 1_555
O5 Zr2A_2 1_555 1_555
O6 P2 1_555 1_555
O7 P2 1_555 1_555
O8 Zr1 1_555 1_555
O9 Zr2A_3 1_555 1_555
O10 Zr1 1_555 1_555
O11 P3 1_555 1_555
O12 P3 1_555 1_555
H1 O12 1_555 1_555
N1 H2 1_555 1_555
H3 N1 1_555 1_555
H4 N1 1_555 1_555
C1 N1 1_555 1_555
H5 C1 1_555 1_555
H6 C1 1_555 1_555
C1A C1 1_555 1_555
N1A C1A 1_555 1_555
H2A N1A 1_555 1_555
H3A N1A 1_555 1_555
H4A N1A 1_555 1_555
H5A C1A 1_555 1_555
H6A C1A 1_555 1_555
P1A O1A 1_555 1_555
O1A Zr1A 1_555 1_555
O2A Zr1 1_555 1_555
O3A P1A 1_555 1_555
O4A P1A 1_555 1_555
P3A O9A 1_555 1_555
O9A Zr2 1_555 1_555
O10A P3A 1_555 1_555
O11A Zr1 1_555 1_555
O12A P3A 1_555 1_555
H1A O12A 1_555 1_555
Zr1A O2 1_555 1_555
Zr2A O6 1_555 1_555
P2A O5A 1_555 1_555
O5A Zr2 1_555 1_555
O6A P2A 1_555 1_555
O7A P2A 1_555 1_555
O8A P2A 1_555 1_555
F1A Zr2A 1_555 1_555
O3A_2 Zr1 1_555 1_555
O6A_2 Zr2 1_555 1_555
O7_2 Zr2 1_555 1_555
Zr1A_2 O3 1_555 1_555
Zr2_2 O7 1_555 1_555
Zr1A_3 O11 1_555 1_555
Zr1_2 O3A 1_555 1_555
O3_2 Zr1A 1_555 1_555
O8A_2 Zr1A 1_555 1_555
O10A_2 Zr1A 1_555 1_555
O11_2 Zr1A 1_555 1_555
O5_2 Zr2A 1_555 1_555
O7A_2 Zr2A 1_555 1_555
O9_2 Zr2A 1_555 1_555
Zr2_3 O6A 1_555 1_555
Zr2A_4 O7A 1_555 1_555
P1 O4 1_555 1_555
P2 O8 1_555 1_555
P3 O10 1_555 1_555
P1A O2A 1_555 1_555
O4A Zr2A 1_555 1_555
P3A O11A 1_555 1_555
O10A Zr1A_3 1_555 1_555
O8A Zr1A_2 1_555 1_555

#END
