
#######################################################################
#
#                 Cambridge Crystallographic Data Centre
#                                CCDC 
#
#######################################################################
#
# If this CIF has been generated from an entry in the Cambridge 
# Structural Database, then it will include bibliographic, chemical, 
# crystal, experimental, refinement or atomic coordinate data resulting 
# from the CCDC's data processing and validation procedures.
#
#######################################################################

data_DEBWAK
_chemical_formula_moiety         'C18 H10 N5 O4 Zn1'
_symmetry_cell_setting           hexagonal
_symmetry_space_group_name_H-M   'P 62 2 2'
_symmetry_Int_Tables_number      180
_space_group_name_Hall           'P 62 2 (0 0 4)'
loop_
_symmetry_equiv_pos_site_id
_symmetry_equiv_pos_as_xyz
1 x,y,z
2 x-y,x,1/3+z
3 -y,x-y,2/3+z
4 -x,-y,z
5 -x+y,-x,1/3+z
6 y,-x+y,2/3+z
7 x-y,-y,-z
8 -x,-x+y,1/3-z
9 y,x,2/3-z
10 -y,-x,2/3-z
11 -x+y,y,-z
12 x,x-y,1/3-z
_cell_length_a                   16.4025(5)
_cell_length_b                   16.4025(5)
_cell_length_c                   25.4701(13)
_cell_angle_alpha                90
_cell_angle_beta                 90
_cell_angle_gamma                120
_cell_volume                     5934.46
loop_
_atom_site_label
_atom_site_type_symbol
_atom_site_fract_x
_atom_site_fract_y
_atom_site_fract_z
Zn1 Zn 0.42372(8) 0.71186(4) 0.1667
C1 C 0.6332(5) 1.0400(5) 0.1209(3)
O1 O 0.3782(4) 0.6697(4) 0.0937(2)
N1 N 0.5109(4) 0.8509(5) 0.1484(2)
O2 O 0.3031(5) 0.5391(7) 0.1368(3)
C2 C 0.6129(5) 1.0103(6) 0.1732(3)
H1 H 0.6406 1.0549 0.2008
O3 O 0.7073(6) 1.1265(5) 0.0204(2)
N2 N 0.6950(4) 1.1328(4) 0.1107(2)
H2 H 0.7121 1.1717 0.1375
C3 C 0.9592(5) 1.4520(5) 0.0593(3)
C4 C 0.7342(5) 1.1727(5) 0.0612(3)
C5 C 0.5540(6) 0.9185(8) 0.1846(3)
H3 H 0.5424 0.9009 0.2205
C6 C 0.8101(6) 1.2720(5) 0.0624(3)
C7 C 0.5270(6) 0.8756(6) 0.0995(3)
H4 H 0.4966 0.8282 0.0736
C9 C 0.5871(5) 0.9685(5) 0.0828(3)
H6 H 0.5967 0.9831 0.0464
C10 C 0.2906(5) 0.5813(10) 0.0000
H7 H 0.3241 0.6482 0.0000
C11 C 0.8477(8) 1.3217(6) 0.1045(3)
H8 H 0.8231 1.2929 0.1375
N3 N 0.9234(8) 1.4167(7) 0.1045(3)
C12 C 0.3167(8) 0.5802(9) 0.0964(5)
C13 C 0.8487(6) 1.3178(7) 0.0156(3)
H9 H 0.8230 1.2860 -0.0166
C14 C 0.2823(8) 0.5322(6) 0.0469(5)
C15 C 0.2324(12) 0.4329(8) 0.0454(7)
H10 H 0.2268 0.3993 0.0768
C16 C 0.1912(6) 0.3823(12) 0.0000
H11 H 0.1577 0.3154 0.0000
N4 N 0.9237(6) 1.4083(6) 0.0146(3)
O1K O 0.3782(4) 0.7085(6) 0.2396(2)
N1K N 0.5109(4) 0.6600(6) 0.1849(2)
C3C C 1.0408(5) 1.5480(5) 0.0593(3)
C14J C 0.2499(10) 0.5322(6) -0.0469(5)
C15J C 0.2005(14) 0.4329(8) -0.0454(7)
loop_
_geom_bond_atom_site_label_1
_geom_bond_atom_site_label_2
_geom_bond_site_symmetry_1
_geom_bond_site_symmetry_2
Zn1 O1 1_555 1_555
C1 C2 1_555 1_555
O1 C12 1_555 1_555
N1 Zn1 1_555 1_555
O2 C12 1_555 1_555
C2 H1 1_555 1_555
O3 C4 1_555 1_555
N2 C1 1_555 1_555
H2 N2 1_555 1_555
C3 N3 1_555 1_555
C4 N2 1_555 1_555
C5 N1 1_555 1_555
H3 C5 1_555 1_555
C6 C4 1_555 1_555
C7 N1 1_555 1_555
H4 C7 1_555 1_555
C9 C1 1_555 1_555
H6 C9 1_555 1_555
C10 H7 1_555 1_555
C11 C6 1_555 1_555
H8 C11 1_555 1_555
N3 C11 1_555 1_555
C12 C14 1_555 1_555
C13 C6 1_555 1_555
H9 C13 1_555 1_555
C14 C10 1_555 1_555
C15 C14 1_555 1_555
H10 C15 1_555 1_555
C16 C15 1_555 1_555
H11 C16 1_555 1_555
N4 C3 1_555 1_555
O1K Zn1 1_555 1_555
N1K Zn1 1_555 1_555
C3C C3 1_555 1_555
C14J C10 1_555 1_555
C15J C16 1_555 1_555
C2 C5 1_555 1_555
C7 C9 1_555 1_555
C13 N4 1_555 1_555
C14J C15J 1_555 1_555

#END
