
#######################################################################
#
#                 Cambridge Crystallographic Data Centre
#                                CCDC 
#
#######################################################################
#
# If this CIF has been generated from an entry in the Cambridge 
# Structural Database, then it will include bibliographic, chemical, 
# crystal, experimental, refinement or atomic coordinate data resulting 
# from the CCDC's data processing and validation procedures.
#
#######################################################################

data_LABZEW
_chemical_formula_moiety         '(C26 H14 N4 O12 Zn3)n'
_symmetry_cell_setting           tetragonal
_symmetry_space_group_name_H-M   'P 43 21 2'
_symmetry_Int_Tables_number      96
_space_group_name_Hall           'P 4nw 2abw'
loop_
_symmetry_equiv_pos_site_id
_symmetry_equiv_pos_as_xyz
1 x,y,z
2 1/2-y,1/2+x,3/4+z
3 -x,-y,1/2+z
4 1/2+y,1/2-x,1/4+z
5 1/2+x,1/2-y,1/4-z
6 y,x,-z
7 1/2-x,1/2+y,3/4-z
8 -y,-x,1/2-z
_cell_length_a                   15.320(2)
_cell_length_b                   15.320(2)
_cell_length_c                   23.240(5)
_cell_angle_alpha                90
_cell_angle_beta                 90
_cell_angle_gamma                90
_cell_volume                     5454.48
loop_
_atom_site_label
_atom_site_type_symbol
_atom_site_fract_x
_atom_site_fract_y
_atom_site_fract_z
Zn1 Zn -0.21484(2) 0.21484(2) 0.2500
Zn2 Zn -0.16317(2) 0.26278(2) 0.11041(2)
C1 C -0.02645(17) 0.2142(2) 0.19301(13)
C2 C 0.06704(19) 0.2019(3) 0.21146(14)
C3 C 0.0866(2) 0.1752(5) 0.26702(18)
H1 H 0.0417 0.1621 0.2925
C4 C 0.1704(3) 0.1682(6) 0.28429(19)
H2 H 0.1835 0.1489 0.3212
C5 C 0.2372(2) 0.1904(4) 0.24597(15)
C6 C 0.13684(17) 0.2176(2) 0.17488(12)
H3 H 0.1252 0.2320 0.1368
C7 C 0.3303(2) 0.1907(4) 0.26231(14)
C8 C 0.3587(3) 0.1700(6) 0.31813(18)
H4 H 0.3187 0.1546 0.3465
C9 C 0.4466(2) 0.1730(5) 0.33030(17)
H5 H 0.4661 0.1611 0.3674
C10 C 0.50524(19) 0.1932(3) 0.28822(14)
C11 C 0.47371(18) 0.2116(2) 0.23317(13)
H6 H 0.5135 0.2249 0.2042
C12 C 0.60210(19) 0.1940(2) 0.30076(13)
C13 C -0.2444(4) 0.1123(3) 0.1389(2)
H7 H -0.2767 0.0699 0.1580
N1 N 0.22014(15) 0.21284(18) 0.19193(10)
N2 N 0.38872(15) 0.2108(2) 0.22046(10)
O1 O -0.08087(14) 0.2113(2) 0.23329(10)
O2 O -0.04139(13) 0.22798(17) 0.14139(9)
O3 O 0.62229(14) 0.1706(2) 0.35051(10)
O4 O 0.65164(14) 0.2176(2) 0.26103(11)
O5 O -0.23395(14) 0.18510(14) 0.16337(8)
O6 O -0.2150(5) 0.0945(3) 0.09269(19)
Zn2G Zn -0.26278(2) 0.16317(2) 0.38959(2)
C1G C -0.2142(2) 0.02645(17) 0.30699(13)
C2G C -0.2019(3) -0.06704(19) 0.28854(14)
C3G C -0.1752(5) -0.0866(2) 0.23298(18)
H1G H -0.1621 -0.0417 0.2075
C4G C -0.1682(6) -0.1704(3) 0.21571(19)
H2G H -0.1489 -0.1835 0.1788
C5G C -0.1904(4) -0.2372(2) 0.25403(15)
C6G C -0.2176(2) -0.13684(17) 0.32512(12)
H3G H -0.2320 -0.1252 0.3632
C7G C -0.1907(4) -0.3303(2) 0.23769(14)
C8G C -0.1700(6) -0.3587(3) 0.18187(18)
H4G H -0.1546 -0.3187 0.1535
C9G C -0.1730(5) -0.4466(2) 0.16970(17)
H5G H -0.1611 -0.4661 0.1326
C10G C -0.1932(3) -0.50524(19) 0.21178(14)
C11G C -0.2116(2) -0.47371(18) 0.26683(13)
H6G H -0.2249 -0.5135 0.2958
C12G C -0.1940(2) -0.60210(19) 0.19924(13)
C13G C -0.1123(3) 0.2444(4) 0.3611(2)
H7G H -0.0699 0.2767 0.3420
N1G N -0.21284(18) -0.22014(15) 0.30807(10)
N2G N -0.2108(2) -0.38872(15) 0.27954(10)
O1G O -0.2113(2) 0.08087(14) 0.26671(10)
O2G O -0.22798(17) 0.04139(13) 0.35861(9)
O3G O -0.1706(2) -0.62229(14) 0.14949(10)
O4G O -0.2176(2) -0.65164(14) 0.23897(11)
O5G O -0.18510(14) 0.23395(14) 0.33663(8)
O6G O -0.0945(3) 0.2150(5) 0.40731(19)
Zn1_2 Zn -0.21484(2) -0.78516(2) 0.2500
Zn1_3 Zn 0.78516(2) 0.21484(2) 0.2500
Zn2_2 Zn -0.16317(2) -0.73722(2) 0.11041(2)
Zn2C Zn -0.23722(2) -0.33683(2) 0.36041(2)
Zn2D Zn 0.33683(2) 0.23722(2) 0.13959(2)
Zn2G_2 Zn 0.73722(2) 0.16317(2) 0.38959(2)
N1C N -0.28716(18) 0.27986(15) 0.44193(10)
N1D N -0.27986(15) 0.28716(18) 0.05807(10)
N2C N -0.2892(2) 0.11128(15) 0.47046(10)
N2D N -0.11128(15) 0.2892(2) 0.02954(10)
O3_2 O -0.37771(14) 0.1706(2) 0.35051(10)
O3G_2 O -0.1706(2) 0.37771(14) 0.14949(10)
O4_2 O -0.34836(14) 0.2176(2) 0.26103(11)
O4G_2 O -0.2176(2) 0.34836(14) 0.23897(11)
loop_
_geom_bond_atom_site_label_1
_geom_bond_atom_site_label_2
_geom_bond_site_symmetry_1
_geom_bond_site_symmetry_2
Zn1 O1 1_555 1_555
Zn2 O2 1_555 1_555
C1 C2 1_555 1_555
C2 C3 1_555 1_555
C3 H1 1_555 1_555
C4 C3 1_555 1_555
H2 C4 1_555 1_555
C5 C4 1_555 1_555
C6 C2 1_555 1_555
H3 C6 1_555 1_555
C7 C5 1_555 1_555
C8 C7 1_555 1_555
H4 C8 1_555 1_555
C9 C8 1_555 1_555
H5 C9 1_555 1_555
C10 C9 1_555 1_555
C11 C10 1_555 1_555
H6 C11 1_555 1_555
C12 C10 1_555 1_555
C13 H7 1_555 1_555
N1 C5 1_555 1_555
N2 C7 1_555 1_555
O1 C1 1_555 1_555
O2 C1 1_555 1_555
O3 C12 1_555 1_555
O4 C12 1_555 1_555
O5 Zn1 1_555 1_555
O6 C13 1_555 1_555
Zn2G O2G 1_555 1_555
C1G C2G 1_555 1_555
C2G C3G 1_555 1_555
C3G H1G 1_555 1_555
C4G C3G 1_555 1_555
H2G C4G 1_555 1_555
C5G C4G 1_555 1_555
C6G C2G 1_555 1_555
H3G C6G 1_555 1_555
C7G C5G 1_555 1_555
C8G C7G 1_555 1_555
H4G C8G 1_555 1_555
C9G C8G 1_555 1_555
H5G C9G 1_555 1_555
C10G C9G 1_555 1_555
C11G C10G 1_555 1_555
H6G C11G 1_555 1_555
C12G C10G 1_555 1_555
C13G H7G 1_555 1_555
N1G C5G 1_555 1_555
N2G C7G 1_555 1_555
O1G Zn1 1_555 1_555
O2G C1G 1_555 1_555
O3G C12G 1_555 1_555
O4G C12G 1_555 1_555
O5G Zn1 1_555 1_555
O6G C13G 1_555 1_555
Zn1_2 O4G 1_555 1_555
Zn1_3 O4 1_555 1_555
Zn2_2 O3G 1_555 1_555
Zn2C N1G 1_555 1_555
Zn2D N1 1_555 1_555
Zn2G_2 O3 1_555 1_555
N1C Zn2G 1_555 1_555
N1D Zn2 1_555 1_555
N2C Zn2G 1_555 1_555
N2D Zn2 1_555 1_555
O3_2 Zn2G 1_555 1_555
O3G_2 Zn2 1_555 1_555
O4_2 Zn1 1_555 1_555
O4G_2 Zn1 1_555 1_555
Zn2 O5 1_555 1_555
C6 N1 1_555 1_555
C11 N2 1_555 1_555
C13 O5 1_555 1_555
N2 Zn2D 1_555 1_555
Zn2G O5G 1_555 1_555
C1G O1G 1_555 1_555
C6G N1G 1_555 1_555
C11G N2G 1_555 1_555
C13G O5G 1_555 1_555
N2G Zn2C 1_555 1_555

#END
