
#######################################################################
#
#                 Cambridge Crystallographic Data Centre
#                                CCDC 
#
#######################################################################
#
# If this CIF has been generated from an entry in the Cambridge 
# Structural Database, then it will include bibliographic, chemical, 
# crystal, experimental, refinement or atomic coordinate data resulting 
# from the CCDC's data processing and validation procedures.
#
#######################################################################

data_DOFREW
_chemical_formula_moiety         '(C18 H24 Ag1 F6 N4 Sb1)n'
_symmetry_cell_setting           tetragonal
_symmetry_space_group_name_H-M   'I 4/m'
_symmetry_Int_Tables_number      87
_space_group_name_Hall           '-I 4'
loop_
_symmetry_equiv_pos_site_id
_symmetry_equiv_pos_as_xyz
1 x,y,z
2 -y,x,z
3 y,-x,z
4 1/2+x,1/2+y,1/2+z
5 1/2-y,1/2+x,1/2+z
6 1/2+y,1/2-x,1/2+z
7 -x,-y,z
8 1/2-x,1/2-y,1/2+z
9 -x,-y,-z
10 y,-x,-z
11 -y,x,-z
12 1/2-x,1/2-y,1/2-z
13 1/2+y,1/2-x,1/2-z
14 1/2-y,1/2+x,1/2-z
15 x,y,-z
16 1/2+x,1/2+y,1/2-z
_cell_length_a                   11.2163(10)
_cell_length_b                   11.2163(10)
_cell_length_c                   18.286(3)
_cell_angle_alpha                90
_cell_angle_beta                 90
_cell_angle_gamma                90
_cell_volume                     2300.48
loop_
_atom_site_label
_atom_site_type_symbol
_atom_site_fract_x
_atom_site_fract_y
_atom_site_fract_z
Ag1 Ag 0.5000 -0.0000 0.2500
N1 N 0.4142(7) 0.1458(7) 0.3180(5)
C1 C 0.3455(9) 0.2138(9) 0.3371(4)
C2 C 0.2568(9) 0.3004(9) 0.3620(4)
H1 H 0.1941 0.3093 0.3243
H2 H 0.2954 0.3790 0.3689
C3 C 0.2840(16) 0.2586(13) 0.5000
H3 H 0.3344 0.1862 0.5000
H4 H 0.3358 0.3300 0.5000
C4 C 0.1994(8) 0.2595(8) 0.4350(4)
H5 H 0.1647 0.1780 0.4285
C5 C 0.1001(10) 0.3464(12) 0.4592(5)
H6 H 0.1163 0.4275 0.4403
H7 H 0.0218 0.3196 0.4403
Ag1D Ag 0.5000 0.0000 0.7500
Ag1D_2 Ag 0.5000 0.0000 -0.2500
N1N N 0.4142(7) 0.1458(7) 0.6820(5)
N1L N 0.6458(7) 0.0858(7) 0.1820(5)
N1E N 0.6458(7) 0.0858(7) -0.1820(5)
N1M N 0.3542(7) -0.0858(7) 0.1820(5)
N1F N 0.5858(7) -0.1458(7) 0.3180(5)
C1N C 0.3455(9) 0.2138(9) 0.6629(4)
C1L C 0.7138(9) 0.1545(9) 0.1629(4)
C1E C 0.7138(9) 0.1545(9) -0.1629(4)
C2N C 0.2568(9) 0.3004(9) 0.6380(4)
C2L C 0.8004(9) 0.2432(9) 0.1380(4)
C2E C 0.8004(9) 0.2432(9) -0.1380(4)
H1N H 0.1941 0.3093 0.6757
H1L H 0.8093 0.3059 0.1757
H1E H 0.8093 0.3059 -0.1757
H2N H 0.2954 0.3790 0.6311
H2L H 0.8790 0.2046 0.1311
H2E H 0.8790 0.2046 -0.1311
C3E C 0.7586(13) 0.2160(16) 0.0000
H3E H 0.6862 0.1656 0.0000
H4E H 0.8300 0.1642 0.0000
C4N C 0.1994(8) 0.2595(8) 0.5650(4)
C4L C 0.7595(8) 0.3006(8) 0.0650(4)
C4E C 0.7595(8) 0.3006(8) -0.0650(4)
H5N H 0.1647 0.1780 0.5715
H5L H 0.6780 0.3353 0.0715
H5E H 0.6780 0.3353 -0.0715
C5N C 0.1001(10) 0.3464(12) 0.5408(5)
C5L C 0.8464(12) 0.3999(10) 0.0408(5)
C5E C 0.8464(12) 0.3999(10) -0.0408(5)
H6N H 0.1163 0.4275 0.5597
H6L H 0.9275 0.3837 0.0597
H6E H 0.9275 0.3837 -0.0597
H7N H 0.0218 0.3196 0.5597
H7L H 0.8196 0.4782 0.0597
H7E H 0.8196 0.4782 -0.0597
Sb1 Sb 0.0000 0.0000 0.28553(5)
F1 F -0.0000 -0.0000 0.3855(5)
F2 F -0.0000 -0.0000 0.1822(5)
F3 F 0.1478(10) 0.0731(17) 0.2824(8)
F3A F -0.0731(17) 0.1478(10) 0.2824(8)
F3B F 0.0731(17) -0.1478(10) 0.2824(8)
F3F F -0.1478(10) -0.0731(17) 0.2824(8)
loop_
_geom_bond_atom_site_label_1
_geom_bond_atom_site_label_2
_geom_bond_site_symmetry_1
_geom_bond_site_symmetry_2
Ag1 N1 1_555 1_555
N1 C1 1_555 1_555
C1 C2 1_555 1_555
C2 H1 1_555 1_555
H2 C2 1_555 1_555
C3 H3 1_555 1_555
H4 C3 1_555 1_555
C4 C2 1_555 1_555
H5 C4 1_555 1_555
C5 C4 1_555 1_555
H6 C5 1_555 1_555
H7 C5 1_555 1_555
Sb1 F1 1_555 1_555
F2 Sb1 1_555 1_555
F3 Sb1 1_555 1_555
Ag1D N1N 1_555 1_555
Ag1D_2 N1E 1_555 1_555
N1N C1N 1_555 1_555
N1L Ag1 1_555 1_555
N1E C1E 1_555 1_555
N1M Ag1 1_555 1_555
N1F Ag1 1_555 1_555
C1N C2N 1_555 1_555
C1L N1L 1_555 1_555
C1E C2E 1_555 1_555
C2N H1N 1_555 1_555
C2L C1L 1_555 1_555
C2E H1E 1_555 1_555
H1L C2L 1_555 1_555
H2N C2N 1_555 1_555
H2L C2L 1_555 1_555
H2E C2E 1_555 1_555
C3E H3E 1_555 1_555
H4E C3E 1_555 1_555
C4N C3 1_555 1_555
C4L C2L 1_555 1_555
C4E C2E 1_555 1_555
H5N C4N 1_555 1_555
H5L C4L 1_555 1_555
H5E C4E 1_555 1_555
C5N C5 1_555 1_555
C5L C4L 1_555 1_555
C5E C4E 1_555 1_555
H6N C5N 1_555 1_555
H6L C5L 1_555 1_555
H6E C5E 1_555 1_555
H7N C5N 1_555 1_555
H7L C5L 1_555 1_555
H7E C5E 1_555 1_555
F3A Sb1 1_555 1_555
F3B Sb1 1_555 1_555
F3F Sb1 1_555 1_555
C3 C4 1_555 1_555
C2N C4N 1_555 1_555
C3E C4L 1_555 1_555
C3E C4E 1_555 1_555
C4N C5N 1_555 1_555
C5L C5E 1_555 1_555

#END
