
#######################################################################
#
#                 Cambridge Crystallographic Data Centre
#                                CCDC 
#
#######################################################################
#
# If this CIF has been generated from an entry in the Cambridge 
# Structural Database, then it will include bibliographic, chemical, 
# crystal, experimental, refinement or atomic coordinate data resulting 
# from the CCDC's data processing and validation procedures.
#
#######################################################################

data_SOLMOX
_chemical_formula_moiety         'C98 H58 Cd21 Cl3 N8 O64'
_symmetry_cell_setting           trigonal
_symmetry_space_group_name_H-M   'P -3'
_symmetry_Int_Tables_number      147
_space_group_name_Hall           '-P 3'
loop_
_symmetry_equiv_pos_site_id
_symmetry_equiv_pos_as_xyz
1 x,y,z
2 -y,x-y,z
3 -x+y,-x,z
4 -x,-y,-z
5 y,-x+y,-z
6 x-y,x,-z
_cell_length_a                   30.4643(6)
_cell_length_b                   30.4643(6)
_cell_length_c                   10.0841(4)
_cell_angle_alpha                90
_cell_angle_beta                 90
_cell_angle_gamma                120
_cell_volume                     8104.95
loop_
_atom_site_label
_atom_site_type_symbol
_atom_site_fract_x
_atom_site_fract_y
_atom_site_fract_z
O15 O 0.0900(8) 0.1980(11) 1.310(2)
O16 O 0.0920(8) 0.3703(8) 1.0686(15)
Cd4 Cd 0.50005(7) -0.01286(7) 0.42495(19)
C19 C 0.6094(4) 0.0629(5) 0.3774(12)
C20 C 0.6374(4) 0.1032(5) 0.2907(12)
H7 H 0.6708 0.1143 0.2591
C21 C 0.6064(8) 0.1241(7) 0.2591(19)
H8 H 0.6159 0.1523 0.2022
C22 C 0.5597(6) 0.0972(6) 0.3235(15)
C23 C 0.5198(6) 0.1047(6) 0.3056(17)
C24 C 0.5253(6) 0.1459(6) 0.2170(15)
C25 C 0.5631(6) 0.1946(6) 0.2348(13)
H9 H 0.5865 0.2019 0.3050
C26 C 0.5687(6) 0.2330(6) 0.1569(13)
H10 H 0.5961 0.2665 0.1700
C27 C 0.5412(6) 0.2665(7) -0.0282(17)
H11 H 0.5640 0.2993 0.0132
H12 H 0.5079 0.2633 -0.0420
H13 H 0.5552 0.2644 -0.1138
C28 C 0.4944(7) 0.1761(6) 0.0464(17)
H14 H 0.4684 0.1711 -0.0140
C29 C 0.4910(7) 0.1361(7) 0.118(2)
H15 H 0.4654 0.1024 0.0987
C30 C 0.4712(7) 0.0753(6) 0.3654(17)
C31 C 0.4283(7) 0.0850(7) 0.3688(19)
H16 H 0.4275 0.1124 0.3263
C32 C 0.3896(7) 0.0479(7) 0.4433(19)
H17 H 0.3581 0.0456 0.4639
C33 C 0.4068(8) 0.0126(6) 0.4848(17)
C34 C 0.3787(7) -0.0309(7) 0.5633(16)
C35 C 0.3171(8) -0.0239(8) 0.708(2)
H18 H 0.3447 -0.0042 0.7662
C36 C 0.3261(6) -0.0432(5) 0.5956(17)
C37 C 0.2837(9) -0.0725(8) 0.521(2)
H19 H 0.2860 -0.0853 0.4371
C38 C 0.2315(8) -0.0841(8) 0.579(2)
H20 H 0.2012 -0.1082 0.5359
N1 N 0.2289(5) -0.0639(5) 0.6733(18)
C39 C 0.2692(9) -0.0319(9) 0.742(2)
H21 H 0.2655 -0.0142 0.8150
C40 C 0.1795(6) -0.0746(7) 0.708(2)
H22 H 0.1669 -0.0986 0.7821
H23 H 0.1569 -0.0894 0.6316
H24 H 0.1805 -0.0431 0.7342
N2 N 0.5357(5) 0.2232(5) 0.0633(12)
N3 N 0.5610(5) 0.0589(4) 0.3973(13)
N4 N 0.4548(5) 0.0295(5) 0.4394(13)
O17 O 0.4969(4) -0.0622(4) 0.2184(9)
C19C C 0.3906(4) -0.0629(5) 0.6226(12)
C20C C 0.3626(4) -0.1032(5) 0.7093(12)
H7C H 0.3292 -0.1143 0.7409
C21C C 0.3936(8) -0.1241(7) 0.7409(19)
H8C H 0.3841 -0.1523 0.7978
C22C C 0.4403(6) -0.0972(6) 0.6765(15)
C23C C 0.4802(6) -0.1047(6) 0.6944(17)
C24C C 0.4747(6) -0.1459(6) 0.7830(15)
C25C C 0.4369(6) -0.1946(6) 0.7652(13)
H9C H 0.4135 -0.2019 0.6950
C26C C 0.4313(6) -0.2330(6) 0.8431(13)
H10C H 0.4039 -0.2665 0.8300
C27C C 0.4588(6) -0.2665(7) 1.0282(17)
H11C H 0.4360 -0.2993 0.9868
H12C H 0.4921 -0.2633 1.0420
H13C H 0.4448 -0.2644 1.1138
C28C C 0.5056(7) -0.1761(6) 0.9536(17)
H14C H 0.5316 -0.1711 1.0140
C29C C 0.5090(7) -0.1361(7) 0.882(2)
H15C H 0.5346 -0.1024 0.9013
C30C C 0.5288(7) -0.0753(6) 0.6346(17)
C31C C 0.5717(7) -0.0850(7) 0.6312(19)
H16C H 0.5725 -0.1124 0.6737
C32C C 0.6104(7) -0.0479(7) 0.5567(19)
H17C H 0.6419 -0.0456 0.5361
C33C C 0.5932(8) -0.0126(6) 0.5152(17)
C34C C 0.6213(7) 0.0309(7) 0.4367(16)
C35C C 0.6829(8) 0.0239(8) 0.292(2)
H18C H 0.6553 0.0042 0.2338
C36C C 0.6739(6) 0.0432(5) 0.4044(17)
C37C C 0.7163(9) 0.0725(8) 0.479(2)
H19C H 0.7140 0.0853 0.5629
C38C C 0.7685(8) 0.0841(8) 0.421(2)
H20C H 0.7988 0.1082 0.4641
N1C N 0.7711(5) 0.0639(5) 0.3267(18)
C39C C 0.7308(9) 0.0319(9) 0.258(2)
H21C H 0.7345 0.0142 0.1850
C40C C 0.8205(6) 0.0746(7) 0.292(2)
H22C H 0.8331 0.0986 0.2179
H23C H 0.8431 0.0894 0.3684
H24C H 0.8195 0.0431 0.2658
N2C N 0.4643(5) -0.2232(5) 0.9367(12)
N3C N 0.4390(5) -0.0589(4) 0.6027(13)
N4C N 0.5452(5) -0.0295(5) 0.5606(13)
Cd4C Cd 0.49995(7) 0.01286(7) 0.57505(19)
O17C O 0.5031(4) 0.0622(4) 0.7816(9)
Cl1 Cl 0.6667 0.3333 0.999(3)
Cl2 Cl 0.6205(10) 0.1807(11) 0.720(3)
Cl3 Cl 0.6257(11) 0.2314(11) 0.880(3)
O1 O -0.0499(7) 0.1949(7) 0.8571(14)
C1 C -0.0626(4) 0.2019(5) 1.4573(9)
C2 C -0.0368(3) 0.2132(4) 1.3254(9)
C3 C -0.0647(3) 0.2022(4) 1.2089(10)
H1 H -0.0999 0.1915 1.2125
C4 C -0.0413(3) 0.2069(5) 1.0873(9)
C5 C 0.0100(3) 0.2226(4) 1.0821(8)
H2 H 0.0260 0.2258 0.9990
C6 C 0.0380(3) 0.2336(3) 1.1986(8)
C7 C 0.0146(3) 0.2289(4) 1.3202(8)
H3 H 0.0337 0.2364 1.3999
C8 C 0.0942(3) 0.2557(3) 1.1848(10)
C9 C -0.0710(9) 0.1893(11) 0.959(2)
O2 O -0.0341(9) 0.2063(8) 1.555(2)
O3 O -0.1066(7) 0.1932(10) 1.4625(14)
O4 O 0.1193(7) 0.2542(6) 1.2883(14)
O5 O 0.1166(5) 0.2806(5) 1.0753(12)
O6 O -0.1167(7) 0.1628(6) 0.9613(14)
Cd1 Cd 0.1868(4) 0.36543(14) 1.0248(3)
Cd2 Cd -0.10641(6) 0.19996(9) 1.69489(13)
C10 C 0.2759(4) 0.5678(5) 1.5261(11)
C11 C 0.2513(3) 0.5093(3) 1.5272(7)
C12 C 0.2121(3) 0.4335(3) 1.6602(6)
C13 C 0.2318(3) 0.4855(3) 1.6480(6)
H4 H 0.2319 0.5047 1.7222
C14 C 0.2361(7) 0.4892(8) 1.416(2)
H5 H 0.2414 0.5082 1.3374
C15 C 0.2102(8) 0.4353(8) 1.4186(19)
C16 C 0.2021(10) 0.4080(9) 1.539(2)
H6 H 0.1901 0.3726 1.5372
C17 C 0.1966(8) 0.4096(9) 1.288(2)
C18 C 0.1938(4) 0.4082(4) 1.7876(9)
O7 O 0.2756(3) 0.5917(3) 1.6249(8)
O8 O 0.2999(4) 0.5881(3) 1.4164(7)
O9 O 0.2038(4) 0.4362(3) 1.8919(7)
O10 O 0.1684(3) 0.3610(3) 1.7957(6)
O11 O 0.1711(6) 0.3637(6) 1.2891(12)
O12 O 0.2107(8) 0.4313(8) 1.1857(15)
Cd3 Cd 0.3333 0.6667 1.5125(8)
O13 O 0.2696(12) 0.3751(23) 0.982(3)
O14 O -0.1085(31) 0.2827(19) 1.679(3)
O1A O 0.8051(7) 0.7552(10) 0.8571(14)
C1A C 0.7981(5) 0.7355(6) 1.4573(9)
C2A C 0.7868(4) 0.7500(5) 1.3254(9)
C3A C 0.7978(4) 0.7331(5) 1.2089(10)
H1A H 0.8085 0.7086 1.2125
C4A C 0.7931(5) 0.7518(6) 1.0873(9)
C5A C 0.7774(4) 0.7874(5) 1.0821(8)
H2A H 0.7742 0.8002 0.9990
C6A C 0.7664(3) 0.8044(4) 1.1986(8)
C7A C 0.7711(4) 0.7857(5) 1.3202(8)
H3A H 0.7636 0.7973 1.3999
C8A C 0.7443(3) 0.8385(4) 1.1848(10)
C9A C 0.8107(11) 0.7397(14) 0.959(2)
O2A O 0.7937(8) 0.7596(12) 1.555(2)
O3A O 0.8068(10) 0.7002(12) 1.4625(14)
O4A O 0.7458(6) 0.8651(9) 1.2883(14)
O5A O 0.7194(5) 0.8360(7) 1.0753(12)
O6A O 0.8372(6) 0.7205(9) 0.9613(14)
Cd1A Cd 0.63457(14) 0.82137(42) 1.0248(3)
Cd2A Cd 0.80004(9) 0.69363(11) 1.69489(13)
C10A C 0.4322(5) 0.7081(6) 1.5261(11)
C11A C 0.4907(3) 0.7420(4) 1.5272(7)
C12A C 0.5665(3) 0.7786(4) 1.6602(6)
C13A C 0.5145(3) 0.7463(4) 1.6480(6)
H4A H 0.4953 0.7272 1.7222
C14A C 0.5108(8) 0.7469(11) 1.416(2)
H5A H 0.4918 0.7332 1.3374
C15A C 0.5647(8) 0.7749(11) 1.4186(19)
C16A C 0.5920(9) 0.7941(13) 1.539(2)
H6A H 0.6274 0.8175 1.5372
C17A C 0.5904(9) 0.7870(12) 1.288(2)
C18A C 0.5918(4) 0.7856(6) 1.7876(9)
O7A O 0.4083(3) 0.6839(4) 1.6249(8)
O8A O 0.4119(3) 0.7118(5) 1.4164(7)
O9A O 0.5638(3) 0.7676(5) 1.8919(7)
O10A O 0.6390(3) 0.8074(4) 1.7957(6)
O11A O 0.6363(6) 0.8074(8) 1.2891(12)
O12A O 0.5687(8) 0.7794(11) 1.1857(15)
O13A O 0.6249(23) 0.8945(26) 0.982(3)
O14A O 0.7173(19) 0.6088(36) 1.679(3)
O1B O 0.2448(10) 1.0499(7) 0.8571(14)
C1B C 0.2645(6) 1.0626(4) 1.4573(9)
C2B C 0.2500(5) 1.0368(3) 1.3254(9)
C3B C 0.2669(5) 1.0647(3) 1.2089(10)
H1B H 0.2914 1.0999 1.2125
C4B C 0.2482(6) 1.0413(3) 1.0873(9)
C5B C 0.2126(5) 0.9900(3) 1.0821(8)
H2B H 0.1998 0.9740 0.9990
C6B C 0.1956(4) 0.9620(3) 1.1986(8)
C7B C 0.2143(5) 0.9854(3) 1.3202(8)
H3B H 0.2027 0.9663 1.3999
C8B C 0.1615(4) 0.9058(3) 1.1848(10)
C9B C 0.2603(14) 1.0710(9) 0.959(2)
O2B O 0.2404(12) 1.0341(9) 1.555(2)
O3B O 0.2998(12) 1.1066(7) 1.4625(14)
O4B O 0.1349(9) 0.8807(7) 1.2883(14)
O5B O 0.1640(7) 0.8834(5) 1.0753(12)
O6B O 0.2795(9) 1.1167(7) 0.9613(14)
Cd1B Cd 0.17863(42) 0.8132(4) 1.0248(3)
Cd2B Cd 0.30637(11) 1.10641(6) 1.69489(13)
C10B C 0.2919(6) 0.7241(4) 1.5261(11)
C11B C 0.2580(4) 0.7487(3) 1.5272(7)
C12B C 0.2214(4) 0.7879(3) 1.6602(6)
C13B C 0.2537(4) 0.7682(3) 1.6480(6)
H4B H 0.2728 0.7681 1.7222
C14B C 0.2531(11) 0.7639(7) 1.416(2)
H5B H 0.2668 0.7586 1.3374
C15B C 0.2251(11) 0.7898(8) 1.4186(19)
C16B C 0.2059(13) 0.7979(10) 1.539(2)
H6B H 0.1825 0.8099 1.5372
C17B C 0.2130(12) 0.8034(8) 1.288(2)
C18B C 0.2144(6) 0.8062(4) 1.7876(9)
O7B O 0.3161(4) 0.7244(3) 1.6249(8)
O8B O 0.2882(5) 0.7001(4) 1.4164(7)
O9B O 0.2324(5) 0.7962(4) 1.8919(7)
O10B O 0.1926(4) 0.8316(3) 1.7957(6)
O11B O 0.1926(8) 0.8289(6) 1.2891(12)
O12B O 0.2206(11) 0.7893(8) 1.1857(15)
O13B O 0.1055(26) 0.7304(12) 0.982(3)
O14B O 0.3912(36) 1.1085(31) 1.679(3)
O1_2 O -0.0499(7) 0.1949(7) 1.8571(14)
O1A_2 O 0.8051(7) 0.7552(10) 1.8571(14)
O1B_2 O 0.2448(10) 1.0499(7) 1.8571(14)
O4C O 0.8807(7) 0.7458(6) 1.7117(14)
O4D O 0.2542(6) 1.1349(9) 1.7117(14)
O4E O -0.1349(9) 0.1193(7) 1.7117(14)
O6C O 0.1167(7) 0.8372(6) 1.0387(14)
O6D O 0.1628(6) 0.2795(9) 1.0387(14)
O6E O 0.7205(9) 0.8833(7) 1.0387(14)
Cd1_2 Cd 0.1868(4) 0.36543(14) 2.0248(3)
Cd1A_2 Cd 0.63457(14) 0.82137(42) 2.0248(3)
Cd1B_2 Cd 0.17863(42) 0.8132(4) 2.0248(3)
Cd1C Cd 0.8132(4) 0.63457(14) 0.9752(3)
Cd1D Cd 0.36543(14) 1.17863(42) 0.9752(3)
Cd1E Cd -0.17863(42) 0.1868(4) 0.9752(3)
Cd2_2 Cd -0.10641(6) 0.19996(9) 0.69489(13)
Cd2A_2 Cd 0.80004(9) 0.69363(11) 0.69489(13)
Cd2B_2 Cd 0.30637(11) 1.10641(6) 0.69489(13)
Cd2C Cd 0.10641(6) 0.80004(9) 1.30511(13)
Cd2D Cd 0.19996(9) 0.30637(11) 1.30511(13)
Cd2E Cd 0.69363(11) 0.89359(6) 1.30511(13)
O9_2 O 0.2038(4) 0.4362(3) 0.8919(7)
O9A_2 O 0.5638(3) 0.7676(5) 0.8919(7)
O9B_2 O 0.2324(5) 0.7962(4) 0.8919(7)
O10_2 O 0.1684(3) 0.3610(3) 0.7957(6)
O10A_2 O 0.6390(3) 0.8074(4) 0.7957(6)
O10B_2 O 0.1926(4) 0.8316(3) 0.7957(6)
O11C O 0.8289(6) 0.6363(6) 1.7109(12)
O11D O 0.3637(6) 1.1926(8) 1.7109(12)
O11E O -0.1926(8) 0.1711(6) 1.7109(12)
loop_
_geom_bond_atom_site_label_1
_geom_bond_atom_site_label_2
_geom_bond_site_symmetry_1
_geom_bond_site_symmetry_2
O1 C9 1_555 1_555
C1 C2 1_555 1_555
C2 C3 1_555 1_555
C3 H1 1_555 1_555
C4 C3 1_555 1_555
C5 C4 1_555 1_555
H2 C5 1_555 1_555
C6 C5 1_555 1_555
C7 C2 1_555 1_555
H3 C7 1_555 1_555
C8 C6 1_555 1_555
C9 C4 1_555 1_555
O2 C1 1_555 1_555
O3 C1 1_555 1_555
O4 C8 1_555 1_555
O5 C8 1_555 1_555
O6 C9 1_555 1_555
Cd1 O5 1_555 1_555
Cd2 O2 1_555 1_555
C10 C11 1_555 1_555
C11 C13 1_555 1_555
C12 C13 1_555 1_555
C13 H4 1_555 1_555
C14 C11 1_555 1_555
H5 C14 1_555 1_555
C15 C14 1_555 1_555
C16 C12 1_555 1_555
H6 C16 1_555 1_555
C17 C15 1_555 1_555
C18 C12 1_555 1_555
O7 C10 1_555 1_555
O8 C10 1_555 1_555
O9 C18 1_555 1_555
O10 C18 1_555 1_555
O11 Cd1 1_555 1_555
O12 Cd1 1_555 1_555
Cd3 O7 1_555 1_555
O13 Cd1 1_555 1_555
O14 Cd2 1_555 1_555
Cd4 N3 1_555 1_555
C19 C20 1_555 1_555
C20 H7 1_555 1_555
C21 C20 1_555 1_555
H8 C21 1_555 1_555
C22 C21 1_555 1_555
C23 C22 1_555 1_555
C24 C23 1_555 1_555
C25 C24 1_555 1_555
H9 C25 1_555 1_555
C26 C25 1_555 1_555
H10 C26 1_555 1_555
C27 H11 1_555 1_555
H12 C27 1_555 1_555
H13 C27 1_555 1_555
C28 H14 1_555 1_555
C29 C24 1_555 1_555
H15 C29 1_555 1_555
C30 C23 1_555 1_555
C31 C30 1_555 1_555
H16 C31 1_555 1_555
C32 C31 1_555 1_555
H17 C32 1_555 1_555
C33 C32 1_555 1_555
C34 C33 1_555 1_555
C35 H18 1_555 1_555
C36 C34 1_555 1_555
C37 C36 1_555 1_555
H19 C37 1_555 1_555
C38 C37 1_555 1_555
H20 C38 1_555 1_555
N1 C38 1_555 1_555
C39 C35 1_555 1_555
H21 C39 1_555 1_555
C40 N1 1_555 1_555
H22 C40 1_555 1_555
H23 C40 1_555 1_555
H24 C40 1_555 1_555
N2 C26 1_555 1_555
N3 C19 1_555 1_555
N4 Cd4 1_555 1_555
O17 Cd4 1_555 1_555
O1A C9A 1_555 1_555
C1A C2A 1_555 1_555
C2A C3A 1_555 1_555
C3A H1A 1_555 1_555
C4A C3A 1_555 1_555
C5A C4A 1_555 1_555
H2A C5A 1_555 1_555
C6A C5A 1_555 1_555
C7A C2A 1_555 1_555
H3A C7A 1_555 1_555
C8A C6A 1_555 1_555
C9A C4A 1_555 1_555
O2A C1A 1_555 1_555
O3A C1A 1_555 1_555
O4A C8A 1_555 1_555
O5A C8A 1_555 1_555
O6A C9A 1_555 1_555
Cd1A O5A 1_555 1_555
Cd2A O2A 1_555 1_555
C10A C11A 1_555 1_555
C11A C13A 1_555 1_555
C12A C13A 1_555 1_555
C13A H4A 1_555 1_555
C14A C11A 1_555 1_555
H5A C14A 1_555 1_555
C15A C14A 1_555 1_555
C16A C12A 1_555 1_555
H6A C16A 1_555 1_555
C17A C15A 1_555 1_555
C18A C12A 1_555 1_555
O7A Cd3 1_555 1_555
O8A Cd3 1_555 1_555
O9A C18A 1_555 1_555
O10A C18A 1_555 1_555
O11A Cd1A 1_555 1_555
O12A Cd1A 1_555 1_555
O13A Cd1A 1_555 1_555
O14A Cd2A 1_555 1_555
O1B C9B 1_555 1_555
C1B C2B 1_555 1_555
C2B C3B 1_555 1_555
C3B H1B 1_555 1_555
C4B C3B 1_555 1_555
C5B C4B 1_555 1_555
H2B C5B 1_555 1_555
C6B C5B 1_555 1_555
C7B C2B 1_555 1_555
H3B C7B 1_555 1_555
C8B C6B 1_555 1_555
C9B C4B 1_555 1_555
O2B C1B 1_555 1_555
O3B C1B 1_555 1_555
O4B C8B 1_555 1_555
O5B C8B 1_555 1_555
O6B C9B 1_555 1_555
Cd1B O5B 1_555 1_555
Cd2B O2B 1_555 1_555
C10B C11B 1_555 1_555
C11B C13B 1_555 1_555
C12B C13B 1_555 1_555
C13B H4B 1_555 1_555
C14B C11B 1_555 1_555
H5B C14B 1_555 1_555
C15B C14B 1_555 1_555
C16B C12B 1_555 1_555
H6B C16B 1_555 1_555
C17B C15B 1_555 1_555
C18B C12B 1_555 1_555
O7B Cd3 1_555 1_555
O8B Cd3 1_555 1_555
O9B C18B 1_555 1_555
O10B C18B 1_555 1_555
O11B Cd1B 1_555 1_555
O12B Cd1B 1_555 1_555
O13B Cd1B 1_555 1_555
O14B Cd2B 1_555 1_555
O1_2 Cd2 1_555 1_555
O1A_2 Cd2A 1_555 1_555
O1B_2 Cd2B 1_555 1_555
O4C Cd2A 1_555 1_555
O4D Cd2B 1_555 1_555
O4E Cd2 1_555 1_555
O6C Cd1B 1_555 1_555
O6D Cd1 1_555 1_555
O6E Cd1A 1_555 1_555
Cd1_2 O9 1_555 1_555
Cd1A_2 O9A 1_555 1_555
Cd1B_2 O9B 1_555 1_555
Cd1C O6A 1_555 1_555
Cd1D O6B 1_555 1_555
Cd1E O6 1_555 1_555
Cd2_2 O1 1_555 1_555
Cd2A_2 O1A 1_555 1_555
Cd2B_2 O1B 1_555 1_555
Cd2C O4B 1_555 1_555
Cd2D O4 1_555 1_555
Cd2E O4A 1_555 1_555
O9_2 Cd1 1_555 1_555
O9A_2 Cd1A 1_555 1_555
O9B_2 Cd1B 1_555 1_555
O10_2 Cd1 1_555 1_555
O10A_2 Cd1A 1_555 1_555
O10B_2 Cd1B 1_555 1_555
O11C Cd2A 1_555 1_555
O11D Cd2B 1_555 1_555
O11E Cd2 1_555 1_555
C19C C34 1_555 1_555
C20C C19C 1_555 1_555
H7C C20C 1_555 1_555
C21C C20C 1_555 1_555
H8C C21C 1_555 1_555
C22C C21C 1_555 1_555
C23C C22C 1_555 1_555
C24C C23C 1_555 1_555
C25C C24C 1_555 1_555
H9C C25C 1_555 1_555
C26C C25C 1_555 1_555
H10C C26C 1_555 1_555
C27C H11C 1_555 1_555
H12C C27C 1_555 1_555
H13C C27C 1_555 1_555
C28C H14C 1_555 1_555
C29C C24C 1_555 1_555
H15C C29C 1_555 1_555
C30C C23C 1_555 1_555
C31C C30C 1_555 1_555
H16C C31C 1_555 1_555
C32C C31C 1_555 1_555
H17C C32C 1_555 1_555
C33C C32C 1_555 1_555
C34C C19 1_555 1_555
C35C H18C 1_555 1_555
C36C C34C 1_555 1_555
C37C C36C 1_555 1_555
H19C C37C 1_555 1_555
C38C C37C 1_555 1_555
H20C C38C 1_555 1_555
N1C C38C 1_555 1_555
C39C C35C 1_555 1_555
H21C C39C 1_555 1_555
C40C N1C 1_555 1_555
H22C C40C 1_555 1_555
H23C C40C 1_555 1_555
H24C C40C 1_555 1_555
N2C C26C 1_555 1_555
N3C Cd4 1_555 1_555
N4C Cd4 1_555 1_555
Cd4C Cd4 1_555 1_555
O17C Cd4C 1_555 1_555
C6 C7 1_555 1_555
O3 Cd2 1_555 1_555
C15 C16 1_555 1_555
C17 O11 1_555 1_555
C17 O12 1_555 1_555
O8 Cd3 1_555 1_555
O10 Cd1_2 1_555 1_555
O11 Cd2D 1_555 1_555
C22 N3 1_555 1_555
C27 N2 1_555 1_555
C28 C29 1_555 1_555
C28 N2 1_555 1_555
C30 N4 1_555 1_555
C33 N4 1_555 1_555
C35 C36 1_555 1_555
N1 C39 1_555 1_555
N3 Cd4C 1_555 1_555
N4 Cd4C 1_555 1_555
C6A C7A 1_555 1_555
O3A Cd2A 1_555 1_555
C10A O7A 1_555 1_555
C10A O8A 1_555 1_555
C15A C16A 1_555 1_555
C17A O11A 1_555 1_555
C17A O12A 1_555 1_555
O10A Cd1A_2 1_555 1_555
O11A Cd2E 1_555 1_555
C6B C7B 1_555 1_555
O3B Cd2B 1_555 1_555
C10B O7B 1_555 1_555
C10B O8B 1_555 1_555
C15B C16B 1_555 1_555
C17B O11B 1_555 1_555
C17B O12B 1_555 1_555
O10B Cd1B_2 1_555 1_555
O11B Cd2C 1_555 1_555
C19C N3C 1_555 1_555
C22C N3C 1_555 1_555
C27C N2C 1_555 1_555
C28C C29C 1_555 1_555
C28C N2C 1_555 1_555
C30C N4C 1_555 1_555
C33C C34C 1_555 1_555
C33C N4C 1_555 1_555
C35C C36C 1_555 1_555
N1C C39C 1_555 1_555
N3C Cd4C 1_555 1_555
N4C Cd4C 1_555 1_555

#END
