
#######################################################################
#
#                 Cambridge Crystallographic Data Centre
#                                CCDC 
#
#######################################################################
#
# If this CIF has been generated from an entry in the Cambridge 
# Structural Database, then it will include bibliographic, chemical, 
# crystal, experimental, refinement or atomic coordinate data resulting 
# from the CCDC's data processing and validation procedures.
#
#######################################################################

data_SOLMUD
_chemical_formula_moiety         '(C65 H47 Cd3 N8 O6 1-)n'
_symmetry_cell_setting           monoclinic
_symmetry_space_group_name_H-M   'P 21/c'
_symmetry_Int_Tables_number      14
_space_group_name_Hall           '-P 2ybc'
loop_
_symmetry_equiv_pos_site_id
_symmetry_equiv_pos_as_xyz
1 x,y,z
2 -x,1/2+y,1/2-z
3 -x,-y,-z
4 x,1/2-y,1/2+z
_cell_length_a                   14.050(2)
_cell_length_b                   20.156(3)
_cell_length_c                   20.378(3)
_cell_angle_alpha                90
_cell_angle_beta                 101.717(6)
_cell_angle_gamma                90
_cell_volume                     5650.63
loop_
_atom_site_label
_atom_site_type_symbol
_atom_site_fract_x
_atom_site_fract_y
_atom_site_fract_z
Cd2 Cd 1.04816(14) 0.02213(9) 0.48571(8)
C22 C 1.0258(11) 0.0918(7) 0.6237(6)
C23 C 0.9819(11) 0.1511(6) 0.6456(7)
H12 H 0.9959 0.1687 0.6887
C24 C 0.9225(12) 0.1746(6) 0.5971(7)
H13 H 0.8877 0.2136 0.5984
C25 C 0.9155(10) 0.1341(6) 0.5405(6)
C26 C 0.8594(10) 0.1408(6) 0.4755(6)
C27 C 0.7993(9) 0.2027(6) 0.4653(6)
C28 C 0.7013(16) 0.1958(8) 0.4484(10)
H14 H 0.6720 0.1542 0.4421
C29 C 0.6438(11) 0.2570(9) 0.4406(13)
H15 H 0.5764 0.2548 0.4339
C30 C 0.7811(10) 0.3202(7) 0.4604(6)
H16 H 0.8098 0.3620 0.4655
C31 C 0.8368(10) 0.2638(7) 0.4708(6)
H17 H 0.9040 0.2684 0.4822
C32 C 0.6240(14) 0.3755(10) 0.4284(10)
H18 H 0.5686 0.3715 0.4490
H19 H 0.6026 0.3804 0.3808
H20 H 0.6613 0.4138 0.4461
C33 C 0.8518(11) 0.0974(6) 0.4225(7)
C34 C 0.7893(12) 0.1098(8) 0.3531(7)
H21 H 0.7511 0.1466 0.3383
C35 C 0.8022(12) 0.0550(8) 0.3186(7)
H22 H 0.7712 0.0468 0.2745
C36 C 0.8694(10) 0.0113(7) 0.3582(6)
C37 C 0.9052(11) -0.0505(6) 0.3387(6)
C38 C 0.8580(9) -0.0749(6) 0.2712(6)
C39 C 0.8669(10) -0.0447(7) 0.2115(6)
H23 H 0.9054 -0.0071 0.2117
C40 C 0.8171(9) -0.0717(7) 0.1508(5)
H24 H 0.8193 -0.0498 0.1110
C41 C 0.7673(13) -0.1625(9) 0.2028(7)
H25 H 0.7374 -0.2039 0.1994
C42 C 0.8121(12) -0.1370(9) 0.2647(7)
H26 H 0.8116 -0.1618 0.3030
C43 C 0.7220(13) -0.1537(9) 0.0836(7)
H27 H 0.6707 -0.1247 0.0624
H28 H 0.6956 -0.1966 0.0900
H29 H 0.7693 -0.1578 0.0558
N1 N 0.9837(9) 0.0834(6) 0.5595(6)
N2 N 0.8955(10) 0.0381(5) 0.4183(5)
N3 N 0.6866(10) 0.3139(6) 0.4431(7)
N4 N 0.7684(8) -0.1260(6) 0.1487(5)
C22B C 0.9742(11) -0.0918(7) 0.3763(6)
C23B C 1.0181(11) -0.1511(6) 0.3544(7)
H12B H 1.0041 -0.1687 0.3113
C24B C 1.0775(12) -0.1746(6) 0.4029(7)
H13B H 1.1123 -0.2136 0.4016
C25B C 1.0845(10) -0.1341(6) 0.4595(6)
C26B C 1.1406(10) -0.1408(6) 0.5245(6)
C27B C 1.2007(9) -0.2027(6) 0.5347(6)
C28B C 1.2987(16) -0.1958(8) 0.5516(10)
H14B H 1.3280 -0.1542 0.5579
C29B C 1.3562(11) -0.2570(9) 0.5594(13)
H15B H 1.4236 -0.2548 0.5661
C30B C 1.2189(10) -0.3202(7) 0.5396(6)
H16B H 1.1902 -0.3620 0.5345
C31B C 1.1632(10) -0.2638(7) 0.5292(6)
H17B H 1.0960 -0.2684 0.5178
C32B C 1.3760(14) -0.3755(10) 0.5716(10)
H18B H 1.4314 -0.3715 0.5510
H19B H 1.3974 -0.3804 0.6192
H20B H 1.3387 -0.4138 0.5539
C33B C 1.1482(11) -0.0974(6) 0.5775(7)
C34B C 1.2107(12) -0.1098(8) 0.6469(7)
H21B H 1.2489 -0.1466 0.6617
C35B C 1.1978(12) -0.0550(8) 0.6814(7)
H22B H 1.2288 -0.0468 0.7255
C36B C 1.1306(10) -0.0113(7) 0.6418(6)
C37B C 1.0948(11) 0.0505(6) 0.6613(6)
C38B C 1.1420(9) 0.0749(6) 0.7288(6)
C39B C 1.1331(10) 0.0447(7) 0.7885(6)
H23B H 1.0946 0.0071 0.7883
C40B C 1.1829(9) 0.0717(7) 0.8492(5)
H24B H 1.1807 0.0498 0.8890
C41B C 1.2327(13) 0.1625(9) 0.7972(7)
H25B H 1.2626 0.2039 0.8006
C42B C 1.1879(12) 0.1370(9) 0.7353(7)
H26B H 1.1884 0.1618 0.6970
C43B C 1.2780(13) 0.1537(9) 0.9164(7)
H27B H 1.3293 0.1247 0.9376
H28B H 1.3044 0.1966 0.9100
H29B H 1.2307 0.1578 0.9442
N1B N 1.0163(9) -0.0834(6) 0.4405(6)
N2B N 1.1045(10) -0.0381(5) 0.5817(5)
N3B N 1.3134(10) -0.3139(6) 0.5569(7)
N4B N 1.2316(8) 0.1260(6) 0.8513(5)
Cd2B Cd 0.95184(14) -0.02213(9) 0.51429(8)
Cd1 Cd 0.89706(3) 0.540188(19) 0.46585(2)
C1 C 0.9431(5) 0.0838(4) 0.0904(3)
C2 C 0.8727(4) 0.1176(3) 0.1266(3)
C3 C 0.7754(5) 0.1014(3) 0.1101(3)
H1 H 0.7553 0.0682 0.0786
C4 C 0.7064(4) 0.1333(4) 0.1391(3)
C5 C 0.7402(5) 0.1811(4) 0.1875(4)
H2 H 0.6956 0.2022 0.2084
C6 C 0.8375(4) 0.1988(3) 0.2061(3)
C7 C 0.9043(5) 0.1654(3) 0.1752(3)
H3 H 0.9701 0.1754 0.1873
C8 C 0.8709(5) 0.2501(3) 0.2573(4)
C9 C 0.8133(5) 0.3058(4) 0.2631(4)
H4 H 0.7527 0.3095 0.2347
C10 C 0.8426(5) 0.3540(4) 0.3082(4)
H5 H 0.8031 0.3907 0.3102
C11 C 0.9332(5) 0.3488(4) 0.3524(3)
C12 C 0.9909(5) 0.2951(4) 0.3492(4)
H6 H 1.0506 0.2915 0.3787
C13 C 0.9607(5) 0.2453(4) 0.3015(4)
H7 H 1.0006 0.2089 0.2993
C14 C 0.9633(5) 0.4036(3) 0.4050(4)
C15 C 0.6033(7) 0.1148(5) 0.1223(5)
C16 C 0.5312(7) 0.1603(5) 0.1278(5)
H8 H 0.5494 0.2025 0.1441
C17 C 0.4323(8) 0.1450(5) 0.1097(5)
H9 H 0.3856 0.1764 0.1144
C18 C 0.4039(8) 0.0807(5) 0.0839(5)
C19 C 0.4731(7) 0.0436(5) 0.0715(6)
H10 H 0.4568 0.0042 0.0481
C20 C 0.5699(6) 0.0596(5) 0.0912(6)
H11 H 0.6152 0.0292 0.0819
C21 C 0.2982(6) 0.0651(5) 0.0641(4)
O1 O 1.0427(4) 0.3945(2) 0.4460(2)
O2 O 0.9066(4) 0.4503(3) 0.4025(3)
O3 O 1.0300(3) 0.1029(3) 0.1026(3)
O4 O 0.9110(4) 0.0396(3) 0.0490(3)
O5 O 0.2720(5) 0.0195(4) 0.0308(5)
O6 O 0.2384(5) 0.1029(5) 0.0797(5)
Cd1A Cd 0.10294(3) 0.040188(19) 0.03415(2)
Cd1A_2 Cd 1.10294(3) 0.040188(19) 0.03415(2)
Cd1B Cd 1.10294(3) 0.459812(19) 0.53415(2)
Cd1C Cd 0.89706(3) -0.040188(19) -0.03415(2)
O1B O 0.9573(4) 0.6055(2) 0.5540(2)
O3A O 0.9700(3) 0.6029(3) 0.3974(3)
O4A O 1.0890(4) 0.5396(3) 0.4510(3)
O4C O 0.9110(4) 0.4604(3) 0.5490(3)
O5A O 0.7280(5) 0.5195(4) 0.4692(5)
O6A O 0.7616(5) 0.6029(5) 0.4203(5)
loop_
_geom_bond_atom_site_label_1
_geom_bond_atom_site_label_2
_geom_bond_site_symmetry_1
_geom_bond_site_symmetry_2
Cd1 O2 1_555 1_555
C1 C2 1_555 1_555
C2 C3 1_555 1_555
C3 H1 1_555 1_555
C4 C3 1_555 1_555
C5 C4 1_555 1_555
H2 C5 1_555 1_555
C6 C5 1_555 1_555
C7 C2 1_555 1_555
H3 C7 1_555 1_555
C8 C6 1_555 1_555
C9 C8 1_555 1_555
H4 C9 1_555 1_555
C10 C9 1_555 1_555
H5 C10 1_555 1_555
C11 C10 1_555 1_555
C12 C11 1_555 1_555
H6 C12 1_555 1_555
C13 C8 1_555 1_555
H7 C13 1_555 1_555
C14 C11 1_555 1_555
C15 C4 1_555 1_555
C16 C15 1_555 1_555
H8 C16 1_555 1_555
C17 C16 1_555 1_555
H9 C17 1_555 1_555
C18 C17 1_555 1_555
C19 C18 1_555 1_555
H10 C19 1_555 1_555
C20 C15 1_555 1_555
H11 C20 1_555 1_555
C21 C18 1_555 1_555
O1 C14 1_555 1_555
O2 C14 1_555 1_555
O3 C1 1_555 1_555
O4 C1 1_555 1_555
O5 C21 1_555 1_555
O6 C21 1_555 1_555
Cd2 N1 1_555 1_555
C22 C23 1_555 1_555
C23 H12 1_555 1_555
C24 C23 1_555 1_555
H13 C24 1_555 1_555
C25 C24 1_555 1_555
C26 C25 1_555 1_555
C27 C26 1_555 1_555
C28 C27 1_555 1_555
H14 C28 1_555 1_555
C29 C28 1_555 1_555
H15 C29 1_555 1_555
C30 H16 1_555 1_555
C31 C27 1_555 1_555
H17 C31 1_555 1_555
C32 H18 1_555 1_555
H19 C32 1_555 1_555
H20 C32 1_555 1_555
C33 C26 1_555 1_555
C34 C33 1_555 1_555
H21 C34 1_555 1_555
C35 C34 1_555 1_555
H22 C35 1_555 1_555
C36 C35 1_555 1_555
C37 C36 1_555 1_555
C38 C37 1_555 1_555
C39 C38 1_555 1_555
H23 C39 1_555 1_555
C40 C39 1_555 1_555
H24 C40 1_555 1_555
C41 H25 1_555 1_555
C42 C38 1_555 1_555
H26 C42 1_555 1_555
C43 H27 1_555 1_555
H28 C43 1_555 1_555
H29 C43 1_555 1_555
N1 C22 1_555 1_555
N2 Cd2 1_555 1_555
N3 C29 1_555 1_555
N4 C40 1_555 1_555
Cd1A O5 1_555 1_555
Cd1A_2 O3 1_555 1_555
Cd1B O1 1_555 1_555
Cd1C O4 1_555 1_555
O1B Cd1 1_555 1_555
O3A Cd1 1_555 1_555
O4A Cd1 1_555 1_555
O4C Cd1 1_555 1_555
O5A Cd1 1_555 1_555
O6A Cd1 1_555 1_555
C22B C37 1_555 1_555
C23B C22B 1_555 1_555
H12B C23B 1_555 1_555
C24B C23B 1_555 1_555
H13B C24B 1_555 1_555
C25B C24B 1_555 1_555
C26B C25B 1_555 1_555
C27B C26B 1_555 1_555
C28B C27B 1_555 1_555
H14B C28B 1_555 1_555
C29B C28B 1_555 1_555
H15B C29B 1_555 1_555
C30B H16B 1_555 1_555
C31B C27B 1_555 1_555
H17B C31B 1_555 1_555
C32B H18B 1_555 1_555
H19B C32B 1_555 1_555
H20B C32B 1_555 1_555
C33B C26B 1_555 1_555
C34B C33B 1_555 1_555
H21B C34B 1_555 1_555
C35B C34B 1_555 1_555
H22B C35B 1_555 1_555
C36B C35B 1_555 1_555
C37B C22 1_555 1_555
C38B C37B 1_555 1_555
C39B C38B 1_555 1_555
H23B C39B 1_555 1_555
C40B C39B 1_555 1_555
H24B C40B 1_555 1_555
C41B H25B 1_555 1_555
C42B C38B 1_555 1_555
H26B C42B 1_555 1_555
C43B H27B 1_555 1_555
H28B C43B 1_555 1_555
H29B C43B 1_555 1_555
N1B Cd2 1_555 1_555
N2B Cd2 1_555 1_555
N3B C29B 1_555 1_555
N4B C40B 1_555 1_555
Cd2B Cd2 1_555 1_555
C6 C7 1_555 1_555
C12 C13 1_555 1_555
C19 C20 1_555 1_555
O4 Cd1A_2 1_555 1_555
O6 Cd1A 1_555 1_555
C25 N1 1_555 1_555
C30 C31 1_555 1_555
C30 N3 1_555 1_555
C32 N3 1_555 1_555
C33 N2 1_555 1_555
C36 N2 1_555 1_555
C41 C42 1_555 1_555
C41 N4 1_555 1_555
C43 N4 1_555 1_555
N1 Cd2B 1_555 1_555
N2 Cd2B 1_555 1_555
Cd1B O4A 1_555 1_555
Cd1B O4C 1_555 1_555
C22B N1B 1_555 1_555
C25B N1B 1_555 1_555
C30B C31B 1_555 1_555
C30B N3B 1_555 1_555
C32B N3B 1_555 1_555
C33B N2B 1_555 1_555
C36B C37B 1_555 1_555
C36B N2B 1_555 1_555
C41B C42B 1_555 1_555
C41B N4B 1_555 1_555
C43B N4B 1_555 1_555
N1B Cd2B 1_555 1_555
N2B Cd2B 1_555 1_555

#END
