
#######################################################################
#
#                 Cambridge Crystallographic Data Centre
#                                CCDC 
#
#######################################################################
#
# If this CIF has been generated from an entry in the Cambridge 
# Structural Database, then it will include bibliographic, chemical, 
# crystal, experimental, refinement or atomic coordinate data resulting 
# from the CCDC's data processing and validation procedures.
#
#######################################################################

data_VUDYUQ
_chemical_formula_moiety         '(C32 H28 Co3 N6 O11)n'
_symmetry_cell_setting           monoclinic
_symmetry_space_group_name_H-M   'P 21/c'
_symmetry_Int_Tables_number      14
_space_group_name_Hall           '-P 2ybc'
loop_
_symmetry_equiv_pos_site_id
_symmetry_equiv_pos_as_xyz
1 x,y,z
2 -x,1/2+y,1/2-z
3 -x,-y,-z
4 x,1/2-y,1/2+z
_cell_length_a                   11.621(2)
_cell_length_b                   11.941(2)
_cell_length_c                   22.698(5)
_cell_angle_alpha                90
_cell_angle_beta                 94.33(3)
_cell_angle_gamma                90
_cell_volume                     3140.73
loop_
_atom_site_label
_atom_site_type_symbol
_atom_site_fract_x
_atom_site_fract_y
_atom_site_fract_z
Co1 Co 0.6157 0.9796 0.5347
Co2 Co 0.4724 0.7299 0.5217
Co3 Co 0.3846 0.5078 0.4571
O1 O 0.7171(2) 0.8393(2) 0.5519(1)
O2 O 0.6508(2) 0.6716(2) 0.5231(1)
O3 O 1.2883(2) 0.7398(2) 0.5266(1)
O4 O 1.2365(2) 0.5808(2) 0.4789(1)
O5 O 0.6998(3) 1.0161(3) 0.4513(1)
H1 H 0.651(3) 0.999(3) 0.4253(16)
H2 H 0.718(4) 1.0822(14) 0.453(2)
O6 O 0.4896(2) 0.8861(2) 0.4881(1)
H3 H 0.524(3) 0.863(3) 0.4608(12)
O7 O 0.4574(2) 0.5630(2) 0.5418(1)
H4 H 0.426(3) 0.556(4) 0.5723(10)
O8 O 0.4584(2) 0.6670(2) 0.4294(1)
O9 O 0.5925(3) 0.7839(3) 0.4010(1)
O10 O 0.5354(2) 0.5406(2) 0.1147(1)
O11 O 0.4847(2) 0.7218(2) 0.1112(1)
N1 N 0.3099(3) 0.4803(3) 0.3711(1)
N2 N 0.2811(3) 0.4434(4) 0.2776(2)
N3 N 0.1940(4) 0.5135(4) 0.2897(2)
N4 N -0.0642(3) 0.3885(3) 0.1043(2)
N5 N -0.1273(3) 0.2988(3) 0.1184(2)
N6 N -0.2411(3) 0.4316(3) 0.0751(1)
C1 C 0.7320(3) 0.7389(3) 0.5393(2)
C2 C 0.8554(3) 0.7026(3) 0.5399(2)
C3 C 0.8915(3) 0.6496(3) 0.4915(2)
H5 H 0.8372 0.6221 0.4629
C4 C 1.0094(3) 0.6360(3) 0.4842(2)
H6 H 1.0317 0.5980 0.4511
C5 C 1.0924(3) 0.6769(3) 0.5244(2)
C6 C 1.0589(3) 0.7267(3) 0.5778(2)
C7 C 1.1393(3) 0.7625(3) 0.6245(2)
H7 H 1.2179 0.7574 0.6198
C8 C 1.1033(4) 0.8042(4) 0.6758(2)
H8 H 1.1576 0.8263 0.7058
C9 C 0.9850(4) 0.8141(4) 0.6840(2)
H9 H 0.9614 0.8432 0.7192
C10 C 0.9050(3) 0.7810(4) 0.6404(2)
H10 H 0.8269 0.7872 0.6464
C11 C 0.9382(3) 0.7376(3) 0.5864(2)
C12 C 1.2160(3) 0.6656(3) 0.5096(2)
C13 C 0.5224(3) 0.7074(3) 0.3915(2)
C14 C 0.5104(3) 0.6680(3) 0.3276(2)
C15 C 0.4268(4) 0.7148(4) 0.2895(2)
H11 H 0.3678 0.7563 0.3043
C16 C 0.4297(3) 0.7004(4) 0.2286(2)
H12 H 0.3736 0.7350 0.2035
C17 C 0.5127(3) 0.6368(3) 0.2047(2)
C18 C 0.5992(3) 0.5829(3) 0.2432(2)
C19 C 0.6908(4) 0.5192(4) 0.2225(2)
H13 H 0.6929 0.5062 0.1822
C20 C 0.7759(4) 0.4767(4) 0.2607(2)
H14 H 0.8345 0.4341 0.2462
C21 C 0.7759(4) 0.4963(4) 0.3216(2)
H15 H 0.8352 0.4682 0.3472
C22 C 0.6893(4) 0.5564(4) 0.3431(2)
H16 H 0.6898 0.5686 0.3836
C23 C 0.5983(3) 0.6008(3) 0.3053(2)
C24 C 0.5120(3) 0.6327(3) 0.1381(2)
C25 C 0.2151(4) 0.5334(4) 0.3458(2)
H17 H 0.1691 0.5802 0.3670
C26 C 0.3480(4) 0.4242(4) 0.3263(2)
H18 H 0.4126 0.3780 0.3287
C27 C 0.2919(5) 0.4033(6) 0.2169(3)
H19 H 0.2809 0.4660 0.1899
H20 H 0.3694 0.3748 0.2139
C28 C 0.2118(6) 0.3187(7) 0.1998(3)
H21 H 0.2114 0.2651 0.2319
H22 H 0.2399 0.2797 0.1662
C29 C 0.0921(6) 0.3521(6) 0.1838(3)
H23 H 0.0734 0.4139 0.2092
H24 H 0.0423 0.2900 0.1925
C30 C 0.0619(5) 0.3885(5) 0.1178(3)
H25 H 0.0923 0.4629 0.1114
H26 H 0.0976 0.3371 0.0915
C31 C -0.1315(4) 0.4659(4) 0.0786(2)
H27 H -0.1063 0.5344 0.0649
C32 C -0.2325(4) 0.3288(4) 0.0996(2)
H28 H -0.2962 0.2826 0.1028
Co1B Co 0.3843 1.0204 0.4653
Co1C Co -0.3843 0.5204 0.0347
Co1C_2 Co 0.6157 0.5204 0.0347
Co2_2 Co 1.4724 0.7299 0.5217
Co2C Co 0.4724 0.7701 0.0217
Co3_2 Co 1.3846 0.5078 0.4571
Co3B Co 0.6154 0.4922 0.5429
O2B O 0.3492(2) 0.3284(2) 0.4769(1)
O3_2 O 0.2883(2) 0.7398(2) 0.5266(1)
O4_2 O 0.2365(2) 0.5808(2) 0.4789(1)
O6B O 0.5104(2) 1.1139(2) 0.5119(1)
O7B O 0.5426(2) 0.4370(2) 0.4582(1)
O10C O 0.5354(2) 0.9594(2) 0.6147(1)
O11C O 0.4847(2) 0.7782(2) 0.6112(1)
N6C N 0.7589(3) 1.0684(3) 0.5751(1)
loop_
_geom_bond_atom_site_label_1
_geom_bond_atom_site_label_2
_geom_bond_site_symmetry_1
_geom_bond_site_symmetry_2
Co1 O1 1_555 1_555
Co2 O2 1_555 1_555
Co3 O7 1_555 1_555
O1 C1 1_555 1_555
O2 C1 1_555 1_555
O3 C12 1_555 1_555
O4 C12 1_555 1_555
O5 Co1 1_555 1_555
H1 O5 1_555 1_555
H2 O5 1_555 1_555
O6 Co1 1_555 1_555
H3 O6 1_555 1_555
O7 Co2 1_555 1_555
H4 O7 1_555 1_555
O8 Co2 1_555 1_555
O9 C13 1_555 1_555
O10 C24 1_555 1_555
O11 C24 1_555 1_555
N1 Co3 1_555 1_555
N2 N3 1_555 1_555
N3 C25 1_555 1_555
N4 N5 1_555 1_555
N5 C32 1_555 1_555
N6 C31 1_555 1_555
C1 C2 1_555 1_555
C2 C3 1_555 1_555
C3 H5 1_555 1_555
C4 C3 1_555 1_555
H6 C4 1_555 1_555
C5 C4 1_555 1_555
C6 C5 1_555 1_555
C7 C6 1_555 1_555
H7 C7 1_555 1_555
C8 C7 1_555 1_555
H8 C8 1_555 1_555
C9 C8 1_555 1_555
H9 C9 1_555 1_555
C10 C9 1_555 1_555
H10 C10 1_555 1_555
C11 C2 1_555 1_555
C12 C5 1_555 1_555
C13 O8 1_555 1_555
C14 C13 1_555 1_555
C15 C14 1_555 1_555
H11 C15 1_555 1_555
C16 C15 1_555 1_555
H12 C16 1_555 1_555
C17 C16 1_555 1_555
C18 C17 1_555 1_555
C19 C18 1_555 1_555
H13 C19 1_555 1_555
C20 C19 1_555 1_555
H14 C20 1_555 1_555
C21 C20 1_555 1_555
H15 C21 1_555 1_555
C22 C21 1_555 1_555
H16 C22 1_555 1_555
C23 C14 1_555 1_555
C24 C17 1_555 1_555
C25 N1 1_555 1_555
H17 C25 1_555 1_555
C26 N1 1_555 1_555
H18 C26 1_555 1_555
C27 N2 1_555 1_555
H19 C27 1_555 1_555
H20 C27 1_555 1_555
C28 C27 1_555 1_555
H21 C28 1_555 1_555
H22 C28 1_555 1_555
C29 C28 1_555 1_555
H23 C29 1_555 1_555
H24 C29 1_555 1_555
C30 N4 1_555 1_555
H25 C30 1_555 1_555
H26 C30 1_555 1_555
C31 N4 1_555 1_555
H27 C31 1_555 1_555
C32 N6 1_555 1_555
H28 C32 1_555 1_555
Co1B O6 1_555 1_555
Co1C N6 1_555 1_555
Co1C_2 O10 1_555 1_555
Co2_2 O3 1_555 1_555
Co2C O11 1_555 1_555
Co3_2 O4 1_555 1_555
Co3B O2 1_555 1_555
O2B Co3 1_555 1_555
O3_2 Co2 1_555 1_555
O4_2 Co3 1_555 1_555
O6B Co1 1_555 1_555
O7B Co3 1_555 1_555
O10C Co1 1_555 1_555
O11C Co2 1_555 1_555
N6C Co1 1_555 1_555
Co2 O6 1_555 1_555
Co3 O8 1_555 1_555
O7 Co3B 1_555 1_555
N2 C26 1_555 1_555
C6 C11 1_555 1_555
C10 C11 1_555 1_555
C18 C23 1_555 1_555
C22 C23 1_555 1_555
C29 C30 1_555 1_555
Co1B O6B 1_555 1_555
Co3B O7B 1_555 1_555

#END
