
#######################################################################
#
#                 Cambridge Crystallographic Data Centre
#                                CCDC 
#
#######################################################################
#
# If this CIF has been generated from an entry in the Cambridge 
# Structural Database, then it will include bibliographic, chemical, 
# crystal, experimental, refinement or atomic coordinate data resulting 
# from the CCDC's data processing and validation procedures.
#
#######################################################################

data_YELYOE
_chemical_formula_moiety         '(C20 H14 Cd5 N8 O20)n'
_symmetry_cell_setting           orthorhombic
_symmetry_space_group_name_H-M   'P n m a'
_symmetry_Int_Tables_number      62
_space_group_name_Hall           '-P 2ac 2n'
loop_
_symmetry_equiv_pos_site_id
_symmetry_equiv_pos_as_xyz
1 x,y,z
2 1/2-x,-y,1/2+z
3 -x,1/2+y,-z
4 1/2+x,1/2-y,1/2-z
5 -x,-y,-z
6 1/2+x,y,1/2-z
7 x,1/2-y,z
8 1/2-x,1/2+y,1/2+z
_cell_length_a                   14.268(3)
_cell_length_b                   16.017(4)
_cell_length_c                   15.721(3)
_cell_angle_alpha                90
_cell_angle_beta                 90
_cell_angle_gamma                90
_cell_volume                     3592.73
loop_
_atom_site_label
_atom_site_type_symbol
_atom_site_fract_x
_atom_site_fract_y
_atom_site_fract_z
C1 C -0.0905(7) 0.4961(7) 0.7758(6)
H1 H -0.0269 0.4837 0.7770
C2 C -0.2325(6) 0.5148(6) 0.8164(5)
C3 C -0.2264(6) 0.5338(6) 0.7305(5)
C4 C -0.3122(7) 0.5155(7) 0.8756(6)
C5 C -0.2987(7) 0.5575(6) 0.6680(6)
C6 C 0.6231(10) 0.2500 1.0794(9)
H2 H 0.6756 0.2500 1.1145
C7 C 0.5083(7) 0.2935(6) 1.0038(6)
C8 C 0.4486(7) 0.3575(6) 0.9610(6)
C9 C 0.0006(6) 0.2937(6) 0.9783(6)
C10 C -0.1400(10) 0.2500 0.9795(10)
H3 H -0.2052 0.2500 0.9812
C11 C 0.0747(7) 0.3593(6) 0.9792(8)
Cd1 Cd -0.12518(5) 0.45636(4) 0.98069(4)
Cd2 Cd 0.60584(5) 0.45913(4) 1.06515(4)
Cd3 Cd 0.26358(9) 0.2500 0.96315(14)
N1 N -0.1361(5) 0.5207(5) 0.7051(5)
N2 N -0.1457(5) 0.4915(5) 0.8442(5)
N3 N -0.0904(6) 0.3196(5) 0.9782(5)
N4 N 0.5824(6) 0.3202(5) 1.0522(5)
O1 O -0.2745(5) 0.5632(4) 0.5929(4)
O2 O -0.3816(4) 0.5691(6) 0.6943(5)
O3 O -0.3921(5) 0.5436(6) 0.8493(5)
O4 O -0.2987(5) 0.4887(5) 0.9481(4)
O5 O 0.1580(6) 0.3444(5) 0.9914(9)
O6 O 0.0447(5) 0.4329(4) 0.9708(5)
O7 O 0.4844(5) 0.4291(4) 0.9600(4)
O8 O 0.3713(6) 0.3427(5) 0.9300(6)
O9 O 0.3138(16) 0.2500 1.1037(16)
C1A C -0.4095(7) 0.5039(7) 1.2758(6)
H1A H -0.4731 0.5163 1.2770
C2A C -0.2675(6) 0.4852(6) 1.3164(5)
C3A C -0.2736(6) 0.4662(6) 1.2305(5)
C4A C -0.1878(7) 0.4845(7) 1.3756(6)
C5A C -0.2013(7) 0.4425(6) 1.1680(6)
C7F C 0.5083(7) 0.2065(6) 1.0038(6)
C8F C 0.4486(7) 0.1425(6) 0.9610(6)
C9F C 0.0006(6) 0.2063(6) 0.9783(6)
C11F C 0.0747(7) 0.1407(6) 0.9792(8)
Cd1F Cd -0.12518(5) 0.04364(4) 0.98069(4)
Cd1A Cd -0.37482(5) 0.54364(4) 0.48069(4)
Cd1D Cd 0.12518(5) 0.54364(4) 1.01931(4)
Cd1B Cd 0.12518(5) -0.04364(4) 1.01931(4)
Cd1A_2 Cd -0.37482(5) 0.54364(4) 1.48069(4)
Cd2F Cd 0.60584(5) 0.04087(4) 1.06515(4)
Cd2A Cd -0.10584(5) 0.54087(4) 0.56515(4)
Cd2_2 Cd -0.39416(5) 0.45913(4) 1.06515(4)
Cd2D Cd 0.39416(5) 0.54087(4) 0.93485(4)
Cd2B Cd 0.39416(5) -0.04087(4) 0.93485(4)
Cd2A_2 Cd -0.10584(5) 0.54087(4) 1.56515(4)
N1A N -0.3639(5) 0.4793(5) 1.2051(5)
N1A_2 N 0.6361(5) 0.4793(5) 1.2051(5)
N1G N 0.6361(5) 0.0207(5) 1.2051(5)
N2A N -0.3543(5) 0.5085(5) 1.3442(5)
N2F N -0.1457(5) 0.0085(5) 0.8442(5)
N3F N -0.0904(6) 0.1804(5) 0.9782(5)
N4F N 0.5824(6) 0.1798(5) 1.0522(5)
O1A O -0.2255(5) 0.4368(4) 1.0929(4)
O1A_2 O 0.7745(5) 0.4368(4) 1.0929(4)
O1G O -0.2255(5) 0.0632(4) 1.0929(4)
O1G_2 O 0.7745(5) 0.0632(4) 1.0929(4)
O2A O -0.1184(4) 0.4309(6) 1.1943(5)
O3A O -0.1079(5) 0.4564(6) 1.3493(5)
O4A O -0.2013(5) 0.5113(5) 1.4481(4)
O4_2 O 0.7013(5) 0.4887(5) 0.9481(4)
O4F O -0.2987(5) 0.0113(5) 0.9481(4)
O4F_2 O 0.7013(5) 0.0113(5) 0.9481(4)
O5F O 0.1580(6) 0.1556(5) 0.9914(9)
O6F O 0.0447(5) 0.0671(4) 0.9708(5)
O6D O -0.0447(5) 0.5671(4) 1.0292(5)
O6B O -0.0447(5) -0.0671(4) 1.0292(5)
O7F O 0.4844(5) 0.0709(4) 0.9600(4)
O7D O 0.5156(5) 0.5709(4) 1.0400(4)
O7B O 0.5156(5) -0.0709(4) 1.0400(4)
O8F O 0.3713(6) 0.1573(5) 0.9300(6)
O10 O 0.628(3) 0.2500 1.301(3)
O11 O 0.015(3) 0.7500 0.773(2)
O12 O 0.199(4) 0.2500 0.802(3)
loop_
_geom_bond_atom_site_label_1
_geom_bond_atom_site_label_2
_geom_bond_site_symmetry_1
_geom_bond_site_symmetry_2
C1 H1 1_555 1_555
C2 C3 1_555 1_555
C3 C5 1_555 1_555
C4 C2 1_555 1_555
C5 O1 1_555 1_555
C6 H2 1_555 1_555
C7 C8 1_555 1_555
C8 O7 1_555 1_555
C9 C11 1_555 1_555
C10 H3 1_555 1_555
C11 O5 1_555 1_555
Cd1 N2 1_555 1_555
Cd2 N4 1_555 1_555
Cd3 O5 1_555 1_555
N1 C1 1_555 1_555
N2 C1 1_555 1_555
N3 C9 1_555 1_555
N4 C6 1_555 1_555
O1 Cd1A 1_555 1_555
O2 C5 1_555 1_555
O3 C4 1_555 1_555
O4 C4 1_555 1_555
O6 C11 1_555 1_555
O7 Cd2 1_555 1_555
O8 C8 1_555 1_555
O9 Cd3 1_555 1_555
C1A H1A 1_555 1_555
C2A C3A 1_555 1_555
C3A C5A 1_555 1_555
C4A C2A 1_555 1_555
C5A O1A 1_555 1_555
C7F C7 1_555 1_555
C8F C7F 1_555 1_555
C9F C9 1_555 1_555
C11F C9F 1_555 1_555
Cd1F N2F 1_555 1_555
Cd1D O6 1_555 1_555
Cd1B O6F 1_555 1_555
Cd1A_2 N2A 1_555 1_555
Cd2F N1G 1_555 1_555
Cd2A N1 1_555 1_555
Cd2_2 O4 1_555 1_555
Cd2D O7 1_555 1_555
Cd2B O7F 1_555 1_555
Cd2A_2 O4A 1_555 1_555
N1A C1A 1_555 1_555
N1A_2 Cd2 1_555 1_555
N2A C1A 1_555 1_555
N3F C10 1_555 1_555
N4F C6 1_555 1_555
O1A Cd1 1_555 1_555
O1A_2 Cd2 1_555 1_555
O1G Cd1F 1_555 1_555
O1G_2 Cd2F 1_555 1_555
O2A C5A 1_555 1_555
O3A C4A 1_555 1_555
O4A C4A 1_555 1_555
O4_2 Cd2 1_555 1_555
O4F Cd1F 1_555 1_555
O4F_2 Cd2F 1_555 1_555
O5F Cd3 1_555 1_555
O6F C11F 1_555 1_555
O6D Cd1 1_555 1_555
O6B Cd1F 1_555 1_555
O7F C8F 1_555 1_555
O7D Cd2 1_555 1_555
O7B Cd2F 1_555 1_555
O8F Cd3 1_555 1_555
C2 N2 1_555 1_555
C3 N1 1_555 1_555
C7 N4 1_555 1_555
C10 N3 1_555 1_555
Cd1 N3 1_555 1_555
Cd1 O4 1_555 1_555
Cd1 O6 1_555 1_555
Cd3 O8 1_555 1_555
O1 Cd2A 1_555 1_555
C2A N2A 1_555 1_555
C3A N1A 1_555 1_555
C7F N4F 1_555 1_555
C8F O8F 1_555 1_555
C9F N3F 1_555 1_555
C11F O5F 1_555 1_555
Cd1F N3F 1_555 1_555
Cd1F O6F 1_555 1_555
Cd1D O6D 1_555 1_555
Cd1B O6B 1_555 1_555
Cd1A_2 O4A 1_555 1_555
Cd2F N4F 1_555 1_555
Cd2F O7F 1_555 1_555
Cd2_2 N1A 1_555 1_555
Cd2_2 O1A 1_555 1_555
Cd2D O7D 1_555 1_555
Cd2B O7B 1_555 1_555

#END
