
#######################################################################
#
#                 Cambridge Crystallographic Data Centre
#                                CCDC 
#
#######################################################################
#
# If this CIF has been generated from an entry in the Cambridge 
# Structural Database, then it will include bibliographic, chemical, 
# crystal, experimental, refinement or atomic coordinate data resulting 
# from the CCDC's data processing and validation procedures.
#
#######################################################################

data_PULMIU
_chemical_formula_moiety         '(C41 H41 N5 O22 S3 Zn3)n'
_symmetry_cell_setting           monoclinic
_symmetry_space_group_name_H-M   'P 21/c'
_symmetry_Int_Tables_number      14
_space_group_name_Hall           '-P 2ybc'
loop_
_symmetry_equiv_pos_site_id
_symmetry_equiv_pos_as_xyz
1 x,y,z
2 -x,1/2+y,1/2-z
3 -x,-y,-z
4 x,1/2-y,1/2+z
_cell_length_a                   17.614(4)
_cell_length_b                   21.916(4)
_cell_length_c                   18.046(4)
_cell_angle_alpha                90
_cell_angle_beta                 105.64(3)
_cell_angle_gamma                90
_cell_volume                     6708.34
loop_
_atom_site_label
_atom_site_type_symbol
_atom_site_fract_x
_atom_site_fract_y
_atom_site_fract_z
Zn1 Zn 0.49405(3) 0.17977(3) 0.49215(3)
Zn2 Zn 0.30802(4) 0.23757(3) 0.48934(4)
Zn3 Zn 0.67548(4) 0.25715(3) 0.98931(4)
S1 S 0.06994(10) -0.01124(8) 0.35536(14)
S2 S 0.63665(8) 0.12333(7) 0.87713(8)
S3 S 0.34036(8) 0.36499(7) 0.60605(8)
O1 O 0.3498(2) 0.19990(17) 0.5954(2)
O2 O 0.6677(2) 0.16208(16) 0.9456(2)
O3 O 0.3185(2) 0.33208(17) 0.5332(2)
C1 C 0.2962(3) 0.0505(3) 0.4223(3)
O4 O 0.4044(2) 0.24323(17) 0.9515(2)
O5 O 0.4095(2) 0.11198(17) 0.4594(2)
O6 O 0.6879(2) 0.28867(19) 0.6182(2)
O7 O 0.2962(2) 0.21732(18) 0.8630(2)
O8 O 0.5116(2) 0.31945(17) 0.8880(2)
O9 O 0.5804(2) 0.26020(17) 0.5291(2)
O10 O 0.4182(2) -0.11566(17) 0.4677(2)
O11 O 0.6326(2) 0.29296(18) 0.8841(2)
O12 O 0.4765(2) 0.18463(16) 0.5966(2)
O13 O 0.2930(2) 0.3502(2) 0.6580(3)
O14 O 0.6232(3) 0.06055(19) 0.8989(3)
O15 O 0.3040(2) -0.1649(2) 0.4463(3)
O16 O 0.2909(2) 0.15899(18) 0.4273(2)
O17 O 0.3432(2) 0.43057(18) 0.5933(2)
O18 O 0.6844(3) 0.1269(2) 0.8243(2)
C2 C 0.3930(3) 0.1972(2) 0.7577(3)
H1 H 0.3420 0.2102 0.7341
C3 C 0.3002(3) -0.0591(3) 0.4269(3)
C4 C 0.5398(3) 0.3200(2) 0.7684(3)
C5 C 0.5925(3) 0.3046(2) 0.7239(3)
H2 H 0.6445 0.2941 0.7478
C6 C 0.5652(3) 0.3056(2) 0.6439(3)
C7 C 0.3699(3) 0.2201(3) 0.8857(3)
C8 C 0.2186(3) -0.0615(3) 0.4024(3)
H3 H 0.1931 -0.0990 0.3949
C9 C 0.5179(3) 0.1559(2) 0.7495(3)
H4 H 0.5514 0.1431 0.7206
C10 C 0.4199(3) 0.1961(2) 0.8369(3)
C11 C 0.4391(3) 0.3425(2) 0.6528(3)
C12 C 0.4884(3) 0.3258(2) 0.6071(3)
H5 H 0.4709 0.3280 0.5537
C13 C 0.3374(4) -0.0041(2) 0.4359(3)
H6 H 0.3922 -0.0031 0.4517
N1 N 0.7913(3) 0.2523(2) 0.9908(3)
C14 C 0.2128(3) 0.0491(3) 0.3973(3)
H7 H 0.1834 0.0849 0.3864
C15 C 0.6168(3) 0.2838(3) 0.5953(3)
C16 C 0.5417(3) 0.1528(2) 0.8303(3)
N2 N 1.1908(3) 0.2584(2) 0.9843(3)
C17 C 0.4423(3) 0.1789(2) 0.7133(3)
C18 C 0.8889(4) 0.2439(3) 0.9219(4)
H8 H 0.9007 0.2367 0.8754
C19 C 0.4927(3) 0.1737(2) 0.8734(3)
H9 H 0.5094 0.1725 0.9269
C20 C 0.9285(4) 0.2739(3) 1.0532(4)
H10 H 0.9667 0.2872 1.0965
C21 C 0.3364(3) 0.1113(3) 0.4363(3)
C22 C 0.4204(3) 0.1880(2) 0.6275(3)
C23 C 0.4632(3) 0.3392(2) 0.7327(3)
H11 H 0.4289 0.3497 0.7618
C24 C 1.0343(4) 0.2593(3) 0.9861(4)
C25 C 0.5644(3) 0.3107(2) 0.8529(3)
C26 C 0.1760(4) -0.0089(3) 0.3894(5)
C27 C 0.3452(3) -0.1175(3) 0.4494(3)
C28 C 0.8133(4) 0.2397(3) 0.9270(4)
H12 H 0.7747 0.2273 0.8835
C29 C 0.9485(4) 0.2592(3) 0.9878(4)
C30 C 1.1705(4) 0.2476(3) 1.0495(4)
H13 H 1.2099 0.2402 1.0945
C31 C 1.0550(4) 0.2717(3) 0.9188(4)
H14 H 1.0162 0.2805 0.8737
C32 C 0.8492(4) 0.2686(3) 1.0545(4)
H15 H 0.8360 0.2764 1.1002
C33 C 1.0903(4) 0.2472(3) 1.0516(5)
H16 H 1.0770 0.2388 1.0970
C34 C 1.1340(4) 0.2710(3) 0.9190(4)
H17 H 1.1479 0.2792 0.8738
O19 O 0.0421(3) 0.0465(3) 0.3796(5)
O20 O 0.0505(4) -0.0245(5) 0.2787(5)
O21 O 0.0445(3) -0.0608(3) 0.4005(4)
H18 H 0.0568 -0.0516 0.4462
Zn1B Zn 0.50595(3) -0.17977(3) 0.50785(3)
Zn1C Zn 0.49405(3) 0.32023(3) 0.99215(3)
Zn2C Zn 0.30802(4) 0.26243(3) 0.98934(4)
Zn2C_2 Zn 1.30802(4) 0.26243(3) 0.98934(4)
Zn3A Zn 0.32452(4) -0.24285(3) 0.51069(4)
Zn3C Zn 0.67548(4) 0.24285(3) 0.48931(4)
O4C O 0.4044(2) 0.25677(17) 0.4515(2)
O6C O 0.6879(2) 0.21133(19) 1.1182(2)
O7C O 0.2962(2) 0.28268(18) 0.3630(2)
O8C O 0.5116(2) 0.18055(17) 0.3880(2)
O9C O 0.5804(2) 0.23980(17) 1.0291(2)
O10B O 0.5818(2) 0.11566(17) 0.5323(2)
O15A O 0.6960(2) 0.3351(2) 1.0537(3)
N2C N 0.1908(3) 0.2416(2) 0.4843(3)
N3 N 0.4947(4) -0.0019(2) 0.7022(4)
C35 C 0.5811(5) -0.0074(3) 0.7205(5)
H19 H 0.5975 -0.0042 0.6740
H20 H 0.5971 -0.0462 0.7443
H21 H 0.6051 0.0247 0.7551
C36 C 0.4613(5) -0.0039(3) 0.7604(4)
C37 C 0.4528(6) 0.0082(3) 0.6222(5)
H22 H 0.4896 0.0084 0.5915
H23 H 0.4259 0.0467 0.6172
H24 H 0.4150 -0.0239 0.6050
O22 O 0.3884(4) -0.0005(3) 0.7504(4)
N4 N 0.6590(4) -0.0005(2) 1.0517(4)
H25 H 0.6515 0.0023 1.0004
H26 H 0.7108 -0.0068 1.0730
C38 C 0.6364(5) 0.0584(3) 1.0803(4)
H27 H 0.6676 0.0906 1.0676
H28 H 0.6454 0.0563 1.1351
H29 H 0.5816 0.0662 1.0566
C39 C 0.6151(5) -0.0536(4) 1.0680(5)
H30 H 0.6327 -0.0897 1.0475
H31 H 0.5598 -0.0479 1.0445
H32 H 0.6241 -0.0579 1.1226
N5 N 0.2077(3) 0.4981(2) 0.6043(4)
H33 H 0.1987 0.5346 0.5809
H34 H 0.2565 0.4859 0.6045
C40 C 0.1479(5) 0.4524(5) 0.5609(6)
H35 H 0.1518 0.4490 0.5090
H36 H 0.0959 0.4657 0.5604
H37 H 0.1581 0.4133 0.5857
C41 C 0.2015(6) 0.5039(4) 0.6906(6)
H38 H 0.2393 0.5332 0.7179
H39 H 0.2121 0.4649 0.7157
H40 H 0.1493 0.5169 0.6902
loop_
_geom_bond_atom_site_label_1
_geom_bond_atom_site_label_2
_geom_bond_site_symmetry_1
_geom_bond_site_symmetry_2
Zn1 O5 1_555 1_555
Zn2 O1 1_555 1_555
Zn3 O2 1_555 1_555
S1 C26 1_555 1_555
S2 O2 1_555 1_555
S3 O3 1_555 1_555
O1 C22 1_555 1_555
O3 Zn2 1_555 1_555
C1 C13 1_555 1_555
O4 C7 1_555 1_555
O5 C21 1_555 1_555
O6 C15 1_555 1_555
O7 C7 1_555 1_555
O8 C25 1_555 1_555
O9 Zn1 1_555 1_555
O10 C27 1_555 1_555
O11 Zn3 1_555 1_555
O12 Zn1 1_555 1_555
O13 S3 1_555 1_555
O14 S2 1_555 1_555
O15 C27 1_555 1_555
O16 Zn2 1_555 1_555
O17 S3 1_555 1_555
O18 S2 1_555 1_555
C2 H1 1_555 1_555
C3 C8 1_555 1_555
C4 C5 1_555 1_555
C5 H2 1_555 1_555
C6 C5 1_555 1_555
C7 C10 1_555 1_555
C8 H3 1_555 1_555
C9 H4 1_555 1_555
C10 C2 1_555 1_555
C11 S3 1_555 1_555
C12 C6 1_555 1_555
H5 C12 1_555 1_555
C13 C3 1_555 1_555
H6 C13 1_555 1_555
N1 Zn3 1_555 1_555
C14 C1 1_555 1_555
H7 C14 1_555 1_555
C15 O9 1_555 1_555
C16 S2 1_555 1_555
N2 C30 1_555 1_555
C17 C2 1_555 1_555
C18 H8 1_555 1_555
C19 C10 1_555 1_555
H9 C19 1_555 1_555
C20 H10 1_555 1_555
C21 C1 1_555 1_555
C22 O12 1_555 1_555
C23 C4 1_555 1_555
H11 C23 1_555 1_555
C24 C29 1_555 1_555
C25 O11 1_555 1_555
C26 C8 1_555 1_555
C27 C3 1_555 1_555
C28 N1 1_555 1_555
H12 C28 1_555 1_555
C29 C18 1_555 1_555
C30 H13 1_555 1_555
C31 C24 1_555 1_555
H14 C31 1_555 1_555
C32 N1 1_555 1_555
H15 C32 1_555 1_555
C33 C24 1_555 1_555
H16 C33 1_555 1_555
C34 N2 1_555 1_555
H17 C34 1_555 1_555
O19 S1 1_555 1_555
O20 S1 1_555 1_555
O21 S1 1_555 1_555
H18 O21 1_555 1_555
N3 C35 1_555 1_555
C35 H19 1_555 1_555
H20 C35 1_555 1_555
H21 C35 1_555 1_555
C36 N3 1_555 1_555
C37 N3 1_555 1_555
H22 C37 1_555 1_555
H23 C37 1_555 1_555
H24 C37 1_555 1_555
O22 C36 1_555 1_555
N4 H25 1_555 1_555
H26 N4 1_555 1_555
C38 N4 1_555 1_555
H27 C38 1_555 1_555
H28 C38 1_555 1_555
H29 C38 1_555 1_555
C39 N4 1_555 1_555
H30 C39 1_555 1_555
H31 C39 1_555 1_555
H32 C39 1_555 1_555
N5 H33 1_555 1_555
H34 N5 1_555 1_555
C40 N5 1_555 1_555
H35 C40 1_555 1_555
H36 C40 1_555 1_555
H37 C40 1_555 1_555
C41 N5 1_555 1_555
H38 C41 1_555 1_555
H39 C41 1_555 1_555
H40 C41 1_555 1_555
Zn1B O10 1_555 1_555
Zn1C O4 1_555 1_555
Zn2C O4 1_555 1_555
Zn2C_2 N2 1_555 1_555
Zn3A O15 1_555 1_555
Zn3C O6 1_555 1_555
O4C Zn1 1_555 1_555
O6C Zn3 1_555 1_555
O7C Zn2 1_555 1_555
O8C Zn1 1_555 1_555
O9C Zn3 1_555 1_555
O10B Zn1 1_555 1_555
O15A Zn3 1_555 1_555
N2C Zn2 1_555 1_555
Zn2 O4C 1_555 1_555
O7 Zn2C 1_555 1_555
O8 Zn1C 1_555 1_555
O9 Zn3C 1_555 1_555
O16 C21 1_555 1_555
C4 C25 1_555 1_555
C6 C15 1_555 1_555
C9 C16 1_555 1_555
C9 C17 1_555 1_555
C11 C12 1_555 1_555
C11 C23 1_555 1_555
C14 C26 1_555 1_555
C16 C19 1_555 1_555
C17 C22 1_555 1_555
C18 C28 1_555 1_555
C20 C29 1_555 1_555
C20 C32 1_555 1_555
C30 C33 1_555 1_555
C31 C34 1_555 1_555
Zn1C O9C 1_555 1_555

#END
