
#######################################################################
#
#                 Cambridge Crystallographic Data Centre
#                                CCDC 
#
#######################################################################
#
# If this CIF has been generated from an entry in the Cambridge 
# Structural Database, then it will include bibliographic, chemical, 
# crystal, experimental, refinement or atomic coordinate data resulting 
# from the CCDC's data processing and validation procedures.
#
#######################################################################

data_BOWZUK
_chemical_formula_moiety         '(C27 H23 N7 O1 Zn1 2+)n'
_symmetry_cell_setting           orthorhombic
_symmetry_space_group_name_H-M   'P n n a'
_symmetry_Int_Tables_number      52
_space_group_name_Hall           '-P 2a 2bc'
loop_
_symmetry_equiv_pos_site_id
_symmetry_equiv_pos_as_xyz
1 x,y,z
2 1/2-x,-y,z
3 1/2-x,1/2+y,1/2-z
4 x,1/2-y,1/2-z
5 -x,-y,-z
6 1/2+x,y,-z
7 1/2+x,1/2-y,1/2+z
8 -x,1/2+y,1/2+z
_cell_length_a                   28.4095(12)
_cell_length_b                   28.0922(11)
_cell_length_c                   9.4743(5)
_cell_angle_alpha                90
_cell_angle_beta                 90
_cell_angle_gamma                90
_cell_volume                     7561.3
loop_
_atom_site_label
_atom_site_type_symbol
_atom_site_fract_x
_atom_site_fract_y
_atom_site_fract_z
_atom_site_U_iso_or_equiv
_atom_site_thermal_displace_type
Zn1 Zn 0.131552(19) 0.511184(17) 0.90457(7) 0.0745 Uani
N1 N 0.36746(11) 0.33949(11) 0.4006(3) 0.0685 Uani
N2 N 0.38898(13) 0.07802(10) 0.6425(4) 0.0703 Uani
N3 N 0.51327(12) 0.42657(11) 0.0927(3) 0.0678 Uani
N4 N 0.57508(12) 0.47100(11) 0.0550(4) 0.0719 Uani
N5 N 0.39479(11) 0.15532(10) 0.6213(3) 0.0623 Uani
C1 C 0.40195(13) 0.36160(11) 0.3189(4) 0.0616 Uani
C2 C 0.37168(14) 0.11606(13) 0.5789(4) 0.0651 Uani
H1 H 0.3471 0.1157 0.5142 0.0780 Uiso
N6 N 0.20972(13) 0.44356(14) 0.5925(4) 0.0796 Uani
C3 C 0.41765(14) 0.27943(12) 0.5078(4) 0.0631 Uani
H2 H 0.4428 0.3006 0.5043 0.0760 Uiso
C4 C 0.24995(14) 0.41678(14) 0.5428(5) 0.0748 Uani
C5 C 0.37435(14) 0.29312(12) 0.4569(4) 0.0639 Uani
C6 C 0.38690(15) 0.20302(12) 0.5703(4) 0.0643 Uani
C7 C 0.42852(15) 0.14129(14) 0.7162(4) 0.0699 Uani
H3 H 0.4500 0.1607 0.7625 0.0840 Uiso
C8 C 0.47408(14) 0.40528(13) 0.1659(4) 0.0660 Uani
N7 N 0.16226(14) 0.48294(13) 0.7332(5) 0.0852 Uani
C9 C 0.43125(14) 0.33521(12) 0.2324(4) 0.0658 Uani
H4 H 0.4265 0.3026 0.2243 0.0790 Uiso
C10 C 0.46731(15) 0.35647(13) 0.1579(4) 0.0697 Uani
H5 H 0.4871 0.3380 0.1022 0.0830 Uiso
C11 C 0.32710(14) 0.36600(13) 0.4480(4) 0.0655 Uani
C12 C 0.27618(18) 0.39116(17) 0.6370(5) 0.0827 Uani
H6 H 0.2678 0.3905 0.7319 0.0990 Uiso
C13 C 0.34371(15) 0.21609(13) 0.5217(5) 0.0750 Uani
H7 H 0.3185 0.1951 0.5272 0.0900 Uiso
C14 C 0.42428(15) 0.23421(12) 0.5645(4) 0.0643 Uani
H8 H 0.4537 0.2251 0.5982 0.0770 Uiso
C15 C 0.54068(16) 0.46076(14) 0.1425(5) 0.0760 Uani
H9 H 0.5361 0.4757 0.2289 0.0920 Uiso
C16 C 0.40877(15) 0.41097(13) 0.3244(5) 0.0793 Uani
H10 H 0.3890 0.4296 0.3799 0.0950 Uiso
C17 C 0.33766(15) 0.26112(14) 0.4640(5) 0.0765 Uani
H11 H 0.3083 0.2699 0.4295 0.0920 Uiso
C18 C 0.44456(15) 0.43232(13) 0.2480(5) 0.0763 Uani
H12 H 0.4486 0.4651 0.2523 0.0920 Uiso
C19 C 0.42422(16) 0.09329(14) 0.7291(5) 0.0747 Uani
H13 H 0.4424 0.0740 0.7875 0.0900 Uiso
C20 C 0.31546(16) 0.36601(17) 0.5901(5) 0.0813 Uani
H14 H 0.3339 0.3492 0.6542 0.0980 Uiso
C21 C 0.20179(15) 0.45928(14) 0.7244(6) 0.0817 Uani
H15 H 0.2219 0.4540 0.8002 0.0980 Uiso
C22 C 0.56813(18) 0.4426(2) -0.0602(5) 0.0927 Uani
H16 H 0.5865 0.4423 -0.1414 0.1110 Uiso
C23 C 0.26041(19) 0.4157(2) 0.4024(6) 0.1057 Uani
H17 H 0.2418 0.4326 0.3388 0.1270 Uiso
C24 C 0.52986(18) 0.4147(2) -0.0360(5) 0.0937 Uani
H18 H 0.5175 0.3919 -0.0966 0.1120 Uiso
C25 C 0.2981(2) 0.3901(2) 0.3545(6) 0.1043 Uani
H19 H 0.3044 0.3888 0.2582 0.1250 Uiso
C26 C 0.1437(3) 0.4828(3) 0.6062(8) 0.1250 Uani
H20 H 0.1153 0.4972 0.5826 0.1500 Uiso
C27 C 0.1724(2) 0.4580(3) 0.5112(7) 0.1283 Uani
H21 H 0.1674 0.4525 0.4155 0.1540 Uiso
O1 O 0.1696(3) 0.5167(4) 1.0676(8) 0.2893 Uani
H22 H 0.1728 0.5468 1.0992 0.3470 Uiso
H23 H 0.1838 0.4926 1.1134 0.3470 Uiso
Zn1B Zn 0.368448(19) 0.011184(17) 0.59543(7) 0.0745 Uani
Zn1E Zn 0.631552(19) 0.511184(17) 0.09543(7) 0.0745 Uani
N2B N 0.11102(13) 0.57802(10) 0.8575(4) 0.0703 Uani
N4E N 0.07508(12) 0.47100(11) 0.9450(4) 0.0719 Uani
loop_
_atom_site_aniso_label
_atom_site_aniso_U_11
_atom_site_aniso_U_22
_atom_site_aniso_U_33
_atom_site_aniso_U_23
_atom_site_aniso_U_13
_atom_site_aniso_U_12
Zn1 0.0668(4) 0.0499(3) 0.1069(5) -0.0035(2) -0.0021(3) -0.0039(2)
N1 0.0660(18) 0.0535(15) 0.086(2) 0.0089(14) 0.0151(15) 0.0021(13)
N2 0.078(2) 0.0492(13) 0.0836(19) 0.0037(14) 0.0027(17) -0.0021(14)
N3 0.0707(18) 0.0617(16) 0.0711(18) 0.0023(14) -0.0006(15) -0.0128(15)
N4 0.0723(19) 0.0554(15) 0.088(2) 0.0016(15) 0.0088(17) -0.0106(15)
N5 0.0718(18) 0.0480(13) 0.0670(16) 0.0029(12) 0.0047(14) 0.0024(13)
C1 0.068(2) 0.0477(15) 0.069(2) 0.0018(14) 0.0040(16) -0.0018(15)
C2 0.072(2) 0.0484(16) 0.075(2) 0.0023(15) 0.0021(17) 0.0005(15)
N6 0.0662(19) 0.0755(19) 0.097(2) 0.0101(18) 0.0162(17) 0.0096(17)
C3 0.075(2) 0.0499(15) 0.0645(19) -0.0052(15) 0.0085(17) -0.0022(15)
C4 0.064(2) 0.0625(18) 0.098(3) 0.008(2) 0.009(2) 0.0061(17)
C5 0.071(2) 0.0468(15) 0.074(2) 0.0001(15) 0.0102(17) 0.0053(15)
C6 0.075(2) 0.0479(16) 0.070(2) -0.0039(14) 0.0068(17) 0.0025(16)
C7 0.075(2) 0.0588(18) 0.076(2) -0.0039(17) -0.0031(19) 0.0031(17)
C8 0.068(2) 0.0580(17) 0.072(2) 0.0000(16) -0.0036(17) -0.0079(16)
N7 0.074(2) 0.0716(19) 0.110(3) 0.0000(19) 0.014(2) 0.0113(17)
C9 0.080(2) 0.0503(15) 0.0672(19) -0.0064(15) 0.0051(17) -0.0058(16)
C10 0.079(2) 0.0571(17) 0.073(2) -0.0101(16) 0.0098(19) -0.0070(17)
C11 0.068(2) 0.0534(16) 0.075(2) 0.0084(16) 0.0075(17) 0.0014(16)
C12 0.090(3) 0.087(3) 0.071(2) -0.011(2) -0.001(2) 0.018(2)
C13 0.065(2) 0.0559(17) 0.104(3) 0.005(2) 0.008(2) -0.0051(17)
C14 0.074(2) 0.0479(15) 0.071(2) -0.0056(14) -0.0038(17) 0.0059(16)
C15 0.083(3) 0.062(2) 0.083(2) -0.0143(19) 0.009(2) -0.0131(19)
C16 0.080(3) 0.0500(16) 0.108(3) -0.0057(19) 0.030(2) 0.0041(18)
C17 0.067(2) 0.0584(19) 0.104(3) 0.012(2) 0.006(2) 0.0062(17)
C18 0.083(3) 0.0509(16) 0.095(3) 0.0058(18) 0.015(2) -0.0056(18)
C19 0.085(3) 0.0561(18) 0.083(2) 0.0082(18) -0.003(2) 0.0083(18)
C20 0.073(2) 0.081(3) 0.090(3) -0.005(2) -0.003(2) 0.018(2)
C21 0.070(2) 0.062(2) 0.113(3) -0.005(2) 0.012(2) 0.0079(18)
C22 0.091(3) 0.117(4) 0.070(2) -0.010(2) 0.006(2) -0.027(3)
C23 0.096(3) 0.125(4) 0.096(3) 0.049(3) 0.022(3) 0.044(3)
C24 0.088(3) 0.116(4) 0.077(3) -0.017(3) 0.013(2) -0.035(3)
C25 0.123(4) 0.108(4) 0.082(3) 0.028(3) 0.023(3) 0.043(3)
C26 0.095(4) 0.145(6) 0.135(5) 0.019(4) 0.021(4) 0.054(4)
C27 0.088(4) 0.198(8) 0.099(3) 0.006(4) 0.003(3) 0.058(4)
O1 0.279(10) 0.375(15) 0.214(7) -0.073(8) -0.193(8) 0.071(9)
Zn1B 0.0668 0.0499 0.1069 0.0035 -0.0021 0.0039
Zn1E 0.0668 0.0499 0.1069 0.0035 0.0021 -0.0039
N2B 0.078 0.0492 0.0836 -0.0037 0.0027 0.0021
N4E 0.0723 0.0554 0.088 -0.0016 -0.0088 -0.0106
loop_
_geom_bond_atom_site_label_1
_geom_bond_atom_site_label_2
_geom_bond_site_symmetry_1
_geom_bond_site_symmetry_2
Zn1 N7 1_555 1_555
N1 C1 1_555 1_555
N2 C2 1_555 1_555
N3 C8 1_555 1_555
N4 C15 1_555 1_555
N5 C2 1_555 1_555
C1 C9 1_555 1_555
C2 H1 1_555 1_555
N6 C4 1_555 1_555
C3 H2 1_555 1_555
C4 C12 1_555 1_555
C5 N1 1_555 1_555
C6 N5 1_555 1_555
C7 N5 1_555 1_555
H3 C7 1_555 1_555
C8 C10 1_555 1_555
N7 C21 1_555 1_555
C9 H4 1_555 1_555
C10 C9 1_555 1_555
H5 C10 1_555 1_555
C11 N1 1_555 1_555
C12 H6 1_555 1_555
C13 C6 1_555 1_555
H7 C13 1_555 1_555
C14 C3 1_555 1_555
H8 C14 1_555 1_555
C15 N3 1_555 1_555
H9 C15 1_555 1_555
C16 C1 1_555 1_555
H10 C16 1_555 1_555
C17 C5 1_555 1_555
H11 C17 1_555 1_555
C18 C8 1_555 1_555
H12 C18 1_555 1_555
C19 N2 1_555 1_555
H13 C19 1_555 1_555
C20 C11 1_555 1_555
H14 C20 1_555 1_555
C21 N6 1_555 1_555
H15 C21 1_555 1_555
C22 N4 1_555 1_555
H16 C22 1_555 1_555
C23 C4 1_555 1_555
H17 C23 1_555 1_555
C24 N3 1_555 1_555
H18 C24 1_555 1_555
C25 C11 1_555 1_555
H19 C25 1_555 1_555
C26 N7 1_555 1_555
H20 C26 1_555 1_555
C27 N6 1_555 1_555
H21 C27 1_555 1_555
O1 Zn1 1_555 1_555
H22 O1 1_555 1_555
H23 O1 1_555 1_555
Zn1B N2 1_555 1_555
Zn1E N4 1_555 1_555
N2B Zn1 1_555 1_555
N4E Zn1 1_555 1_555
C3 C5 1_555 1_555
C6 C14 1_555 1_555
C7 C19 1_555 1_555
C12 C20 1_555 1_555
C13 C17 1_555 1_555
C16 C18 1_555 1_555
C22 C24 1_555 1_555
C23 C25 1_555 1_555
C26 C27 1_555 1_555

#END
