
#######################################################################
#
#                 Cambridge Crystallographic Data Centre
#                                CCDC 
#
#######################################################################
#
# If this CIF has been generated from an entry in the Cambridge 
# Structural Database, then it will include bibliographic, chemical, 
# crystal, experimental, refinement or atomic coordinate data resulting 
# from the CCDC's data processing and validation procedures.
#
#######################################################################

data_PAVLUU
_chemical_formula_moiety         '(C10 H6 Ag1 N6 O1 1+)n'
_symmetry_cell_setting           tetragonal
_symmetry_space_group_name_H-M   'P 42/m n m'
_symmetry_Int_Tables_number      136
_space_group_name_Hall           '-P 4n 2n'
loop_
_symmetry_equiv_pos_site_id
_symmetry_equiv_pos_as_xyz
1 x,y,z
2 1/2-y,1/2+x,1/2+z
3 1/2+y,1/2-x,1/2+z
4 y,x,-z
5 -x,-y,z
6 1/2-x,1/2+y,1/2-z
7 1/2+x,1/2-y,1/2-z
8 -y,-x,-z
9 -x,-y,-z
10 1/2+y,1/2-x,1/2-z
11 1/2-y,1/2+x,1/2-z
12 -y,-x,z
13 x,y,-z
14 1/2+x,1/2-y,1/2+z
15 1/2-x,1/2+y,1/2+z
16 y,x,z
_cell_length_a                   10.7845(19)
_cell_length_b                   10.7845(19)
_cell_length_c                   14.119(5)
_cell_angle_alpha                90
_cell_angle_beta                 90
_cell_angle_gamma                90
_cell_volume                     1642.12
loop_
_atom_site_label
_atom_site_type_symbol
_atom_site_fract_x
_atom_site_fract_y
_atom_site_fract_z
_atom_site_U_iso_or_equiv
_atom_site_thermal_displace_type
Ag1 Ag 0.5000 0.5000 0.31844(3) 0.0518 Uani
O1 O 0.2521(3) 0.2521(3) 0.5000 0.0626 Uani
N1 N 0.3297(3) 0.3297(3) 0.2608(3) 0.0730 Uani
N2 N 0.3888(2) 0.3888(2) 0.4504(3) 0.0557 Uani
N3 N 0.1491(2) 0.1491(2) 0.2246(3) 0.0575 Uani
C1 C 0.3075(3) 0.3075(3) 0.4259(4) 0.0590 Uani
C2 C 0.2715(3) 0.2715(3) 0.3299(3) 0.0572 Uani
C3 C 0.1830(3) 0.1830(3) 0.3120(3) 0.0539 Uani
H1 H 0.1447 0.1447 0.3632 0.0650 Uiso
C4 C 0.2079(4) 0.2079(4) 0.1561(4) 0.0960 Uani
H2 H 0.1890 0.1890 0.0935 0.1160 Uiso
C5 C 0.2982(5) 0.2982(5) 0.1750(4) 0.1180 Uani
H3 H 0.3372 0.3372 0.1243 0.1420 Uiso
Ag1I Ag 0.0000 0.0000 0.18156(3) 0.0518 Uani
Ag1C Ag 0.5000 0.5000 0.68156(3) 0.0518 Uani
Ag1A Ag 0.0000 0.0000 0.81844(3) 0.0518 Uani
N1C N 0.3297(3) 0.3297(3) 0.7392(3) 0.0730 Uani
N1K N 0.6703(3) 0.6703(3) 0.2608(3) 0.0730 Uani
N2C N 0.3888(2) 0.3888(2) 0.5496(3) 0.0557 Uani
N2K N 0.6112(2) 0.6112(2) 0.4504(3) 0.0557 Uani
N3C N 0.1491(2) 0.1491(2) 0.7754(3) 0.0575 Uani
N3I N 0.6491(2) 0.3509(2) 0.2754(3) 0.0575 Uani
N3J N 0.3509(2) 0.6491(2) 0.2754(3) 0.0575 Uani
C1C C 0.3075(3) 0.3075(3) 0.5741(4) 0.0590 Uani
C2C C 0.2715(3) 0.2715(3) 0.6701(3) 0.0572 Uani
C3C C 0.1830(3) 0.1830(3) 0.6880(3) 0.0539 Uani
H1C H 0.1447 0.1447 0.6368 0.0650 Uiso
C4C C 0.2079(4) 0.2079(4) 0.8439(4) 0.0960 Uani
H2C H 0.1890 0.1890 0.9065 0.1160 Uiso
C5C C 0.2982(5) 0.2982(5) 0.8250(4) 0.1180 Uani
H3C H 0.3372 0.3372 0.8757 0.1420 Uiso
loop_
_atom_site_aniso_label
_atom_site_aniso_U_11
_atom_site_aniso_U_22
_atom_site_aniso_U_33
_atom_site_aniso_U_23
_atom_site_aniso_U_13
_atom_site_aniso_U_12
Ag1 0.0534(2) 0.0534(2) 0.0487(3) 0.000 0.000 -0.0052(2)
O1 0.0684(19) 0.0684(19) 0.051(2) 0.000 0.000 -0.040(2)
N1 0.077(2) 0.077(2) 0.065(3) 0.0067(16) 0.0067(16) -0.033(2)
N2 0.0485(12) 0.0485(12) 0.070(2) 0.0019(12) 0.0019(12) -0.0126(16)
N3 0.0618(16) 0.0618(16) 0.049(2) 0.0014(14) 0.0014(14) -0.0142(19)
C1 0.0545(17) 0.0545(17) 0.068(3) 0.0029(16) 0.0029(16) -0.023(2)
C2 0.0563(18) 0.0563(18) 0.059(3) -0.0015(15) -0.0015(15) -0.019(2)
C3 0.0558(17) 0.0558(17) 0.050(3) 0.0073(16) 0.0073(16) -0.012(2)
C4 0.122(3) 0.122(3) 0.044(3) 0.007(2) 0.007(2) -0.043(5)
C5 0.149(5) 0.149(5) 0.056(4) 0.011(2) 0.011(2) -0.072(6)
Ag1I 0.0534 0.0534 0.0487 0 0 0.0052
Ag1C 0.0534 0.0534 0.0487 0 0 -0.0052
Ag1A 0.0534 0.0534 0.0487 0 0 0.0052
N1C 0.077 0.077 0.065 -0.0067 -0.0067 -0.033
N1K 0.077 0.077 0.065 -0.0067 -0.0067 -0.033
N2C 0.0485 0.0485 0.07 -0.0019 -0.0019 -0.0126
N2K 0.0485 0.0485 0.07 -0.0019 -0.0019 -0.0126
N3C 0.0618 0.0618 0.049 -0.0014 -0.0014 -0.0142
N3I 0.0618 0.0618 0.049 0.0014 -0.0014 0.0142
N3J 0.0618 0.0618 0.049 -0.0014 0.0014 0.0142
C1C 0.0545 0.0545 0.068 -0.0029 -0.0029 -0.023
C2C 0.0563 0.0563 0.059 0.0015 0.0015 -0.019
C3C 0.0558 0.0558 0.05 -0.0073 -0.0073 -0.012
C4C 0.122 0.122 0.044 -0.007 -0.007 -0.043
C5C 0.149 0.149 0.056 -0.011 -0.011 -0.072
loop_
_geom_bond_atom_site_label_1
_geom_bond_atom_site_label_2
_geom_bond_site_symmetry_1
_geom_bond_site_symmetry_2
Ag1 N1 1_555 1_555
O1 C1 1_555 1_555
N1 C2 1_555 1_555
N2 Ag1 1_555 1_555
N3 C3 1_555 1_555
C1 N2 1_555 1_555
C2 C1 1_555 1_555
C3 C2 1_555 1_555
H1 C3 1_555 1_555
C4 N3 1_555 1_555
H2 C4 1_555 1_555
C5 N1 1_555 1_555
H3 C5 1_555 1_555
Ag1I N3 1_555 1_555
Ag1C N1C 1_555 1_555
Ag1A N3C 1_555 1_555
N1C C2C 1_555 1_555
N1K Ag1 1_555 1_555
N2C N2 1_555 1_555
N2K Ag1 1_555 1_555
N3C C3C 1_555 1_555
N3I Ag1 1_555 1_555
N3J Ag1 1_555 1_555
C1C O1 1_555 1_555
C2C C1C 1_555 1_555
C3C C2C 1_555 1_555
H1C C3C 1_555 1_555
C4C N3C 1_555 1_555
H2C C4C 1_555 1_555
C5C N1C 1_555 1_555
H3C C5C 1_555 1_555
C4 C5 1_555 1_555
Ag1C N2C 1_555 1_555
N2C C1C 1_555 1_555
C4C C5C 1_555 1_555

#END
