
#######################################################################
#
#                 Cambridge Crystallographic Data Centre
#                                CCDC 
#
#######################################################################
#
# If this CIF has been generated from an entry in the Cambridge 
# Structural Database, then it will include bibliographic, chemical, 
# crystal, experimental, refinement or atomic coordinate data resulting 
# from the CCDC's data processing and validation procedures.
#
#######################################################################

data_PAVMAB
_chemical_formula_moiety         '(C10 H6 Ag1 F6 N6 O1 Sb1)n'
_symmetry_cell_setting           tetragonal
_symmetry_space_group_name_H-M   'P 42/m n m'
_symmetry_Int_Tables_number      136
_space_group_name_Hall           '-P 4n 2n'
loop_
_symmetry_equiv_pos_site_id
_symmetry_equiv_pos_as_xyz
1 x,y,z
2 1/2-y,1/2+x,1/2+z
3 1/2+y,1/2-x,1/2+z
4 y,x,-z
5 -x,-y,z
6 1/2-x,1/2+y,1/2-z
7 1/2+x,1/2-y,1/2-z
8 -y,-x,-z
9 -x,-y,-z
10 1/2+y,1/2-x,1/2-z
11 1/2-y,1/2+x,1/2-z
12 -y,-x,z
13 x,y,-z
14 1/2+x,1/2-y,1/2+z
15 1/2-x,1/2+y,1/2+z
16 y,x,z
_cell_length_a                   10.8706(19)
_cell_length_b                   10.8706(19)
_cell_length_c                   13.959(5)
_cell_angle_alpha                90
_cell_angle_beta                 90
_cell_angle_gamma                90
_cell_volume                     1649.53
loop_
_atom_site_label
_atom_site_type_symbol
_atom_site_fract_x
_atom_site_fract_y
_atom_site_fract_z
_atom_site_U_iso_or_equiv
_atom_site_thermal_displace_type
Ag1 Ag 0.5000 0.5000 0.18513(6) 0.0498 Uani
N1 N 0.6084(4) 0.3916(4) 0.0498(5) 0.0443 Uani
N2 N 0.8500(4) 0.1500(4) 0.2753(5) 0.0507 Uani
N3 N 0.6692(5) 0.3308(5) 0.2435(5) 0.0557 Uani
O1 O 0.7438(4) 0.2562(4) 0.0000 0.0383 Uani
C1 C 0.6894(5) 0.3106(5) 0.0753(5) 0.0403 Uani
C2 C 0.7265(5) 0.2735(5) 0.1719(5) 0.0413 Uani
C3 C 0.8144(6) 0.1856(6) 0.1874(5) 0.0477 Uani
H1 H 0.8513 0.1487 0.1346 0.0570 Uiso
C4 C 0.7926(7) 0.2074(7) 0.3455(6) 0.0650 Uani
H2 H 0.8129 0.1871 0.4082 0.0780 Uiso
C5 C 0.7041(7) 0.2959(7) 0.3303(7) 0.0800 Uani
H3 H 0.6673 0.3327 0.3832 0.0960 Uiso
Ag1I Ag 1.0000 -0.0000 0.31487(6) 0.0498 Uani
Ag1C Ag 0.5000 0.5000 -0.18513(6) 0.0498 Uani
Ag1A Ag 1.0000 0.0000 -0.31487(6) 0.0498 Uani
N1L N 0.6084(4) 0.3916(4) -0.0498(5) 0.0443 Uani
N1O N 0.3916(4) 0.6084(4) 0.0498(5) 0.0443 Uani
N2L N 0.8500(4) 0.1500(4) -0.2753(5) 0.0507 Uani
N2I N 0.6500(4) 0.6500(4) 0.2247(5) 0.0507 Uani
N2J N 0.3500(4) 0.3500(4) 0.2247(5) 0.0507 Uani
N3L N 0.6692(5) 0.3308(5) -0.2435(5) 0.0557 Uani
N3O N 0.3308(5) 0.6692(5) 0.2435(5) 0.0557 Uani
C1L C 0.6894(5) 0.3106(5) -0.0753(5) 0.0403 Uani
C2L C 0.7265(5) 0.2735(5) -0.1719(5) 0.0413 Uani
C3L C 0.8144(6) 0.1856(6) -0.1874(5) 0.0477 Uani
H1L H 0.8513 0.1487 -0.1346 0.0570 Uiso
C4L C 0.7926(7) 0.2074(7) -0.3455(6) 0.0650 Uani
H2L H 0.8129 0.1871 -0.4082 0.0780 Uiso
C5L C 0.7041(7) 0.2959(7) -0.3303(7) 0.0800 Uani
H3L H 0.6673 0.3327 -0.3832 0.0960 Uiso
Sb1 Sb 0.5000 0.0000 1.0000 0.1012 Uani
F1 F 0.3275(9) 0.0169(9) 1.0000 0.0950 Uani
F2 F 0.5136(8) 0.1193(9) 0.9093(10) 0.1127 Uani
F1H F 0.6725(9) -0.0169(9) 1.0000 0.0950 Uani
F2L F 0.5136(8) 0.1193(9) 1.0907(10) 0.1127 Uani
F2H F 0.4864(8) -0.1193(9) 1.0907(10) 0.1127 Uani
F2D F 0.4864(8) -0.1193(9) 0.9093(10) 0.1127 Uani
loop_
_atom_site_aniso_label
_atom_site_aniso_U_11
_atom_site_aniso_U_22
_atom_site_aniso_U_33
_atom_site_aniso_U_23
_atom_site_aniso_U_13
_atom_site_aniso_U_12
Ag1 0.0542(4) 0.0542(4) 0.0411(5) 0.000 0.000 0.0035(5)
N1 0.045(2) 0.045(2) 0.043(3) -0.002(2) 0.002(2) 0.009(3)
N2 0.057(3) 0.057(3) 0.038(4) 0.002(2) -0.002(2) 0.009(4)
N3 0.063(3) 0.063(3) 0.041(4) -0.004(3) 0.004(3) 0.009(4)
O1 0.039(2) 0.039(2) 0.037(4) 0.000 0.000 0.012(3)
C1 0.042(3) 0.042(3) 0.037(4) -0.002(3) 0.002(3) -0.002(4)
C2 0.043(3) 0.043(3) 0.038(4) -0.003(3) 0.003(3) -0.005(4)
C3 0.053(3) 0.053(3) 0.037(4) -0.006(3) 0.006(3) 0.003(4)
C4 0.081(4) 0.081(4) 0.033(5) 0.000(3) 0.000(3) 0.009(6)
C5 0.095(5) 0.095(5) 0.050(6) -0.014(4) 0.014(4) 0.034(7)
Ag1I 0.0542 0.0542 0.0411 0 0 -0.0035
Ag1C 0.0542 0.0542 0.0411 0 0 0.0035
Ag1A 0.0542 0.0542 0.0411 0 0 -0.0035
N1L 0.045 0.045 0.043 0.002 -0.002 0.009
N1O 0.045 0.045 0.043 0.002 -0.002 0.009
N2L 0.057 0.057 0.038 -0.002 0.002 0.009
N2I 0.057 0.057 0.038 -0.002 -0.002 -0.009
N2J 0.057 0.057 0.038 0.002 0.002 -0.009
N3L 0.063 0.063 0.041 0.004 -0.004 0.009
N3O 0.063 0.063 0.041 0.004 -0.004 0.009
C1L 0.042 0.042 0.037 0.002 -0.002 -0.002
C2L 0.043 0.043 0.038 0.003 -0.003 -0.005
C3L 0.053 0.053 0.037 0.006 -0.006 0.003
C4L 0.081 0.081 0.033 0 0 0.009
C5L 0.095 0.095 0.05 0.014 -0.014 0.034
Sb1 0.0687(7) 0.0562(7) 0.1788(15) 0.000 0.000 -0.0232(5)
F1 0.027(5) 0.043(7) 0.215(17) 0.000 0.000 -0.015(4)
F2 0.084 0.079 0.175 0.055 -0.028 -0.045
F1H 0.027 0.043 0.215 0 0 -0.015
F2L 0.084 0.079 0.175 -0.055 0.028 -0.045
F2H 0.084 0.079 0.175 0.055 -0.028 -0.045
F2D 0.084 0.079 0.175 -0.055 0.028 -0.045
loop_
_geom_bond_atom_site_label_1
_geom_bond_atom_site_label_2
_geom_bond_site_symmetry_1
_geom_bond_site_symmetry_2
Ag1 N1 1_555 1_555
N1 C1 1_555 1_555
N2 C3 1_555 1_555
N3 Ag1 1_555 1_555
O1 C1 1_555 1_555
C1 C2 1_555 1_555
C2 N3 1_555 1_555
C3 C2 1_555 1_555
H1 C3 1_555 1_555
C4 N2 1_555 1_555
H2 C4 1_555 1_555
C5 N3 1_555 1_555
H3 C5 1_555 1_555
Sb1 F1 1_555 1_555
F2 Sb1 1_555 1_555
Ag1I N2 1_555 1_555
Ag1C N1L 1_555 1_555
Ag1A N2L 1_555 1_555
N1L N1 1_555 1_555
N1O Ag1 1_555 1_555
N2L C3L 1_555 1_555
N2I Ag1 1_555 1_555
N2J Ag1 1_555 1_555
N3L Ag1C 1_555 1_555
N3O Ag1 1_555 1_555
C1L O1 1_555 1_555
C2L N3L 1_555 1_555
C3L C2L 1_555 1_555
H1L C3L 1_555 1_555
C4L N2L 1_555 1_555
H2L C4L 1_555 1_555
C5L N3L 1_555 1_555
H3L C5L 1_555 1_555
F1H Sb1 1_555 1_555
F2L Sb1 1_555 1_555
F2H Sb1 1_555 1_555
F2D Sb1 1_555 1_555
C4 C5 1_555 1_555
N1L C1L 1_555 1_555
C1L C2L 1_555 1_555
C4L C5L 1_555 1_555

#END
