
#######################################################################
#
#                 Cambridge Crystallographic Data Centre
#                                CCDC 
#
#######################################################################
#
# If this CIF has been generated from an entry in the Cambridge 
# Structural Database, then it will include bibliographic, chemical, 
# crystal, experimental, refinement or atomic coordinate data resulting 
# from the CCDC's data processing and validation procedures.
#
#######################################################################

data_ASUKEE01
_chemical_formula_moiety         '(C30 H26 Cl2 Cu2 N6 O9)n'
_symmetry_cell_setting           orthorhombic
_symmetry_space_group_name_H-M   'F d d d'
_symmetry_Int_Tables_number      70
_space_group_name_Hall           '-F 2uv 2vw'
loop_
_symmetry_equiv_pos_site_id
_symmetry_equiv_pos_as_xyz
1 x,y,z
2 x,1/2+y,1/2+z
3 x,1/4-y,1/4-z
4 1/2+x,y,1/2+z
5 1/4-x,y,1/4-z
6 1/2+x,1/2+y,z
7 1/4-x,1/4-y,z
8 3/4-x,3/4-y,z
9 3/4-x,y,3/4-z
10 x,3/4-y,3/4-z
11 3/4-x,1/4-y,1/2+z
12 3/4-x,1/2+y,1/4-z
13 1/4-x,3/4-y,1/2+z
14 1/2+x,3/4-y,1/4-z
15 1/4-x,1/2+y,3/4-z
16 1/2+x,1/4-y,3/4-z
17 -x,-y,-z
18 -x,1/2-y,1/2-z
19 -x,3/4+y,3/4+z
20 1/2-x,-y,1/2-z
21 3/4+x,-y,3/4+z
22 1/2-x,1/2-y,-z
23 3/4+x,3/4+y,-z
24 1/4+x,1/4+y,-z
25 1/4+x,-y,1/4+z
26 -x,1/4+y,1/4+z
27 1/4+x,3/4+y,1/2-z
28 1/4+x,1/2-y,3/4+z
29 3/4+x,1/4+y,1/2-z
30 1/2-x,1/4+y,3/4+z
31 3/4+x,1/2-y,1/4+z
32 1/2-x,3/4+y,1/4+z
_cell_length_a                   18.747(2)
_cell_length_b                   23.355(3)
_cell_length_c                   30.404(4)
_cell_angle_alpha                90
_cell_angle_beta                 90
_cell_angle_gamma                90
_cell_volume                     13312
loop_
_atom_site_label
_atom_site_type_symbol
_atom_site_fract_x
_atom_site_fract_y
_atom_site_fract_z
_atom_site_U_iso_or_equiv
_atom_site_thermal_displace_type
Cu1 Cu 0.51418(2) 0.389746(13) 0.121432(11) 0.0565 Uani
N1 N 0.52065(13) 0.47349(8) 0.12170(7) 0.0509 Uani
N2 N 0.46219(12) 0.34458(9) 0.16732(7) 0.0500 Uani
N3 N 0.31272(12) 0.16160(9) 0.32837(7) 0.0506 Uani
C1 C 0.54213(16) 0.50213(11) 0.15739(9) 0.0548 Uani
H3 H 0.5579 0.4813 0.1816 0.0660 Uiso
C2 C 0.54201(16) 0.56136(11) 0.16007(9) 0.0525 Uani
H4 H 0.5565 0.5795 0.1858 0.0630 Uiso
C3 C 0.52038(14) 0.59318(9) 0.12440(8) 0.0455 Uani
C4 C 0.49930(16) 0.56371(11) 0.08695(9) 0.0561 Uani
H5 H 0.4849 0.5836 0.0620 0.0670 Uiso
C5 C 0.49982(17) 0.50469(11) 0.08705(9) 0.0585 Uani
H6 H 0.4850 0.4856 0.0618 0.0700 Uiso
C6 C 0.46957(15) 0.35530(11) 0.21029(9) 0.0504 Uani
H7 H 0.4954 0.3875 0.2188 0.0610 Uiso
C7 C 0.42367(16) 0.29865(11) 0.15625(9) 0.0550 Uani
H8 H 0.4170 0.2910 0.1265 0.0660 Uiso
C8 C 0.44084(14) 0.32112(11) 0.24258(9) 0.0495 Uani
H9 H 0.4476 0.3302 0.2721 0.0590 Uiso
C9 C 0.39353(15) 0.26227(11) 0.18631(9) 0.0512 Uani
H10 H 0.3677 0.2306 0.1769 0.0610 Uiso
C10 C 0.40175(13) 0.27295(10) 0.23094(8) 0.0438 Uani
C11 C 0.37050(13) 0.23469(10) 0.26458(9) 0.0452 Uani
C12 C 0.34628(16) 0.25540(11) 0.30453(9) 0.0544 Uani
H11 H 0.3493 0.2943 0.3108 0.0650 Uiso
C13 C 0.36441(15) 0.17610(11) 0.25736(9) 0.0509 Uani
H12 H 0.3794 0.1602 0.2309 0.0610 Uiso
C14 C 0.33609(15) 0.14174(11) 0.28974(9) 0.0529 Uani
H13 H 0.3331 0.1026 0.2845 0.0630 Uiso
C15 C 0.31778(16) 0.21821(11) 0.33490(9) 0.0554 Uani
H14 H 0.3011 0.2331 0.3613 0.0660 Uiso
Cu1B Cu 0.51418(2) 0.860254(13) 0.128568(11) 0.0565 Uani
Cu1DA Cu 0.26418(2) 0.110254(13) 0.371432(11) 0.0565 Uani
Cu1AA Cu 0.76418(2) 0.110254(13) -0.128568(11) 0.0565 Uani
N1B N 0.52065(13) 0.77651(8) 0.12830(7) 0.0509 Uani
N2AA N 0.71219(12) 0.15542(9) -0.08268(7) 0.0500 Uani
N2B N 0.46219(12) 0.90542(9) 0.08268(7) 0.0500 Uani
N3AA N 0.56272(12) 0.33840(9) 0.07837(7) 0.0506 Uani
N3Z N 0.56272(12) 0.91160(9) 0.17163(7) 0.0506 Uani
C1B C 0.54213(16) 0.74787(11) 0.09261(9) 0.0548 Uani
H3B H 0.5579 0.7687 0.0684 0.0660 Uiso
C2B C 0.54201(16) 0.68864(11) 0.08993(9) 0.0525 Uani
H4B H 0.5565 0.6705 0.0642 0.0630 Uiso
C3B C 0.52038(14) 0.65682(9) 0.12560(8) 0.0455 Uani
C4B C 0.49930(16) 0.68629(11) 0.16305(9) 0.0561 Uani
H5B H 0.4849 0.6664 0.1880 0.0670 Uiso
C5B C 0.49982(17) 0.74531(11) 0.16295(9) 0.0585 Uani
H6B H 0.4850 0.7644 0.1882 0.0700 Uiso
C6AA C 0.71957(15) 0.14470(11) -0.03971(9) 0.0504 Uani
H7AA H 0.7454 0.1125 -0.0312 0.0610 Uiso
C7AA C 0.67367(16) 0.20135(11) -0.09375(9) 0.0550 Uani
H8AA H 0.6670 0.2090 -0.1235 0.0660 Uiso
C8AA C 0.69084(14) 0.17888(11) -0.00742(9) 0.0495 Uani
H9AA H 0.6976 0.1698 0.0221 0.0590 Uiso
C9AA C 0.64353(15) 0.23773(11) -0.06369(9) 0.0512 Uani
H10AA H 0.6177 0.2694 -0.0731 0.0610 Uiso
C10AA C 0.65175(13) 0.22705(10) -0.01906(8) 0.0438 Uani
C11AA C 0.62050(13) 0.26531(10) 0.01458(9) 0.0452 Uani
C12AA C 0.59628(16) 0.24460(11) 0.05453(9) 0.0544 Uani
H11AA H 0.5993 0.2057 0.0608 0.0650 Uiso
C13AA C 0.61441(15) 0.32390(11) 0.00736(9) 0.0509 Uani
H12AA H 0.6294 0.3398 -0.0191 0.0610 Uiso
C14AA C 0.58609(15) 0.35826(11) 0.03974(9) 0.0529 Uani
H13AA H 0.5831 0.3974 0.0345 0.0630 Uiso
C15AA C 0.56778(16) 0.28179(11) 0.08490(9) 0.0554 Uani
H14AA H 0.5511 0.2669 0.1113 0.0660 Uiso
Cl1 Cl 0.3750 0.3750 0.02849(3) 0.0616 Uani
O2 O 0.3261(3) 0.3438(2) 0.00791(14) 0.1993 Uani
O3 O 0.3227(4) 0.4213(3) 0.0196(2) 0.1227 Uani
O2G O 0.4239(3) 0.4062(2) 0.00791(14) 0.1993 Uani
O3G O 0.4273(4) 0.3287(3) 0.0196(2) 0.1227 Uani
Cl2 Cl 0.47435(7) 0.1250 0.1250 0.0657 Uani
O4 O 0.5151(3) 0.08681(19) 0.10247(16) 0.1817 Uani
O5 O 0.4339(3) 0.1543(3) 0.09754(19) 0.2423 Uani
O4B O 0.5151(3) 0.16319(19) 0.14753(16) 0.1817 Uani
O5B O 0.4339(3) 0.0957(3) 0.15246(19) 0.2423 Uani
O6 O 0.5838(2) 0.46033(13) 0.26418(10) 0.1211 Uani
H1 H 0.5822 0.4966 0.2657 0.1810 Uiso
H2 H 0.5785 0.4437 0.2888 0.1810 Uiso
loop_
_atom_site_aniso_label
_atom_site_aniso_U_11
_atom_site_aniso_U_22
_atom_site_aniso_U_33
_atom_site_aniso_U_23
_atom_site_aniso_U_13
_atom_site_aniso_U_12
Cu1 0.0791(3) 0.03723(15) 0.05329(19) 0.00027(13) 0.01189(17) 0.00169(15)
N1 0.0682(15) 0.0369(9) 0.0475(11) 0.0011(9) 0.0104(10) 0.0001(9)
N2 0.0609(13) 0.0404(10) 0.0488(12) 0.0039(9) 0.0073(10) 0.0038(10)
N3 0.061 0.0425 0.0484 0.0014 0.0074 -0.0033
C1 0.0762(19) 0.0412(12) 0.0469(14) 0.0078(11) 0.0009(13) -0.0008(12)
C2 0.0708(18) 0.0435(12) 0.0433(13) 0.0002(10) -0.0038(12) -0.0036(12)
C3 0.0558(15) 0.0366(10) 0.0442(12) 0.0002(10) 0.0028(11) -0.0007(10)
C4 0.081(2) 0.0419(12) 0.0454(13) 0.0031(10) -0.0072(13) 0.0021(13)
C5 0.086(2) 0.0442(13) 0.0454(13) -0.0043(11) -0.0027(14) -0.0002(13)
C6 0.0552(15) 0.0413(12) 0.0548(15) -0.0001(11) 0.0059(12) 0.0001(11)
C7 0.0693(18) 0.0505(14) 0.0451(13) 0.0045(11) -0.0003(12) 0.0007(13)
C8 0.0575(16) 0.0451(13) 0.0460(13) 0.0001(10) 0.0030(11) -0.0003(11)
C9 0.0570(16) 0.0457(13) 0.0510(14) 0.0026(11) -0.0018(12) -0.0047(11)
C10 0.0455(13) 0.0399(11) 0.0461(13) 0.0052(10) 0.0025(10) 0.0037(10)
C11 0.0451(13) 0.0422(11) 0.0483(12) 0.0036(10) 0.0016(11) 0.0006(10)
C12 0.0704(18) 0.0395(12) 0.0533(15) -0.0013(11) 0.0088(13) -0.0031(12)
C13 0.0600(16) 0.0433(12) 0.0494(14) -0.0012(10) 0.0106(12) -0.0002(11)
C14 0.0626 0.0385 0.0576 -0.0002 0.01 -0.0026
C15 0.0726 0.0465 0.0471 -0.003 0.0102 -0.0048
Cu1B 0.0791 0.03723 0.05329 0.00027 -0.01189 -0.00169
Cu1DA 0.0791 0.03723 0.05329 -0.00027 0.01189 -0.00169
Cu1AA 0.0791 0.03723 0.05329 -0.00027 0.01189 -0.00169
N1B 0.0682 0.0369 0.0475 0.0011 -0.0104 -0.0001
N2AA 0.0609 0.0404 0.0488 -0.0039 0.0073 -0.0038
N2B 0.0609 0.0404 0.0488 0.0039 -0.0073 -0.0038
N3AA 0.061 0.0425 0.0484 -0.0014 0.0074 0.0033
N3Z 0.061 0.0425 0.0484 -0.0014 -0.0074 -0.0033
C1B 0.0762 0.0412 0.0469 0.0078 -0.0009 0.0008
C2B 0.0708 0.0435 0.0433 0.0002 0.0038 0.0036
C3B 0.0558 0.0366 0.0442 0.0002 -0.0028 0.0007
C4B 0.081 0.0419 0.0454 0.0031 0.0072 -0.0021
C5B 0.086 0.0442 0.0454 -0.0043 0.0027 0.0002
C6AA 0.0552 0.0413 0.0548 0.0001 0.0059 -0.0001
C7AA 0.0693 0.0505 0.0451 -0.0045 -0.0003 -0.0007
C8AA 0.0575 0.0451 0.046 -0.0001 0.003 0.0003
C9AA 0.057 0.0457 0.051 -0.0026 -0.0018 0.0047
C10AA 0.0455 0.0399 0.0461 -0.0052 0.0025 -0.0037
C11AA 0.0451 0.0422 0.0483 -0.0036 0.0016 -0.0006
C12AA 0.0704 0.0395 0.0533 0.0013 0.0088 0.0031
C13AA 0.06 0.0433 0.0494 0.0012 0.0106 0.0002
C14AA 0.0626 0.0385 0.0576 0.0002 0.01 0.0026
C15AA 0.0726 0.0465 0.0471 0.003 0.0102 0.0048
Cl1 0.0745(7) 0.0707(6) 0.0396(4) 0.000 0.000 -0.0055(5)
O2 0.229(5) 0.250(6) 0.119(3) -0.005(3) -0.033(3) -0.132(4)
O3 0.118(5) 0.104(4) 0.146(6) 0.044(4) 0.012(4) 0.036(4)
O2G 0.229 0.25 0.119 0.005 0.033 -0.132
O3G 0.118 0.104 0.146 -0.044 -0.012 0.036
Cl2 0.0959(8) 0.0508(5) 0.0505(5) -0.0017(4) 0.000 0.000
O4 0.222(5) 0.150(4) 0.173(4) -0.061(3) 0.049(4) 0.040(3)
O5 0.270(6) 0.244(6) 0.213(5) 0.081(4) -0.115(5) 0.048(5)
O4B 0.222 0.15 0.173 -0.061 -0.049 -0.04
O5B 0.27 0.244 0.213 0.081 0.115 -0.048
O6 0.189(3) 0.0907(19) 0.0835(19) -0.0179(16) 0.007(2) 0.018(2)
loop_
_geom_bond_atom_site_label_1
_geom_bond_atom_site_label_2
_geom_bond_site_symmetry_1
_geom_bond_site_symmetry_2
Cu1 N1 1_555 1_555
Cl1 O2 1_555 1_555
Cl2 O4 1_555 1_555
O3 Cl1 1_555 1_555
O5 Cl2 1_555 1_555
O6 H1 1_555 1_555
H2 O6 1_555 1_555
N1 C1 1_555 1_555
N2 Cu1 1_555 1_555
N3 C14 1_555 1_555
C1 H3 1_555 1_555
C2 C1 1_555 1_555
H4 C2 1_555 1_555
C3 C2 1_555 1_555
C4 C3 1_555 1_555
H5 C4 1_555 1_555
C5 N1 1_555 1_555
H6 C5 1_555 1_555
C6 N2 1_555 1_555
H7 C6 1_555 1_555
C7 N2 1_555 1_555
H8 C7 1_555 1_555
C8 C6 1_555 1_555
H9 C8 1_555 1_555
C9 C7 1_555 1_555
H10 C9 1_555 1_555
C10 C8 1_555 1_555
C11 C10 1_555 1_555
C12 C11 1_555 1_555
H11 C12 1_555 1_555
C13 C11 1_555 1_555
H12 C13 1_555 1_555
C14 C13 1_555 1_555
H13 C14 1_555 1_555
C15 N3 1_555 1_555
H14 C15 1_555 1_555
Cu1B N1B 1_555 1_555
Cu1DA N3 1_555 1_555
Cu1AA N2AA 1_555 1_555
O2G Cl1 1_555 1_555
O3G Cl1 1_555 1_555
O4B Cl2 1_555 1_555
O5B Cl2 1_555 1_555
N1B C1B 1_555 1_555
N2AA C6AA 1_555 1_555
N2B Cu1B 1_555 1_555
N3AA Cu1 1_555 1_555
N3Z Cu1B 1_555 1_555
C1B H3B 1_555 1_555
C2B C1B 1_555 1_555
H4B C2B 1_555 1_555
C3B C3 1_555 1_555
C4B C3B 1_555 1_555
H5B C4B 1_555 1_555
C5B N1B 1_555 1_555
H6B C5B 1_555 1_555
C6AA H7AA 1_555 1_555
C7AA N2AA 1_555 1_555
H8AA C7AA 1_555 1_555
C8AA C6AA 1_555 1_555
H9AA C8AA 1_555 1_555
C9AA C7AA 1_555 1_555
H10AA C9AA 1_555 1_555
C10AA C8AA 1_555 1_555
C11AA C10AA 1_555 1_555
C12AA C11AA 1_555 1_555
H11AA C12AA 1_555 1_555
C13AA C11AA 1_555 1_555
H12AA C13AA 1_555 1_555
C14AA N3AA 1_555 1_555
H13AA C14AA 1_555 1_555
C15AA N3AA 1_555 1_555
H14AA C15AA 1_555 1_555
C4 C5 1_555 1_555
C9 C10 1_555 1_555
C12 C15 1_555 1_555
C2B C3B 1_555 1_555
C4B C5B 1_555 1_555
C9AA C10AA 1_555 1_555
C12AA C15AA 1_555 1_555
C13AA C14AA 1_555 1_555

#END
