
#######################################################################
#
#                 Cambridge Crystallographic Data Centre
#                                CCDC 
#
#######################################################################
#
# If this CIF has been generated from an entry in the Cambridge 
# Structural Database, then it will include bibliographic, chemical, 
# crystal, experimental, refinement or atomic coordinate data resulting 
# from the CCDC's data processing and validation procedures.
#
#######################################################################

data_VACKUI
_chemical_formula_moiety         '(C80 H48 Co3 N4 O16 2-)n'
_symmetry_cell_setting           monoclinic
_symmetry_space_group_name_H-M   'C 2/c'
_symmetry_Int_Tables_number      15
_space_group_name_Hall           '-C 2yc'
loop_
_symmetry_equiv_pos_site_id
_symmetry_equiv_pos_as_xyz
1 x,y,z
2 -x,y,1/2-z
3 1/2+x,1/2+y,z
4 1/2-x,1/2+y,1/2-z
5 -x,-y,-z
6 x,-y,1/2+z
7 1/2-x,1/2-y,-z
8 1/2+x,1/2-y,1/2+z
_cell_length_a                   40.2669(10)
_cell_length_b                   13.9032(5)
_cell_length_c                   25.9948(9)
_cell_angle_alpha                90
_cell_angle_beta                 104.201(3)
_cell_angle_gamma                90
_cell_volume                     14108.2
loop_
_atom_site_label
_atom_site_type_symbol
_atom_site_fract_x
_atom_site_fract_y
_atom_site_fract_z
Co1 Co 0.7500 0.7500 0.5000
Co2 Co 0.794246(7) 0.52614(2) 0.538034(13)
O1 O 0.30269(2) 0.17860(9) 0.51551(5)
O2 O 0.72977(3) 0.37814(10) 0.96317(7)
O3 O 0.33858(3) 0.11303(11) 0.58444(6)
O4 O 0.74125(4) 0.69880(12) 0.57148(6)
O5 O 0.31042(3) 0.88653(10) 0.57172(6)
O6 O 0.75969(3) 0.51221(10) 0.96760(5)
O7 O 0.76347(3) 0.54981(11) 0.59016(6)
O8 O 0.33936(3) 0.93775(11) 0.51564(7)
N1 N 0.40933(4) 0.52539(13) 0.58247(10)
N2 N 0.65931(3) 0.55971(15) 0.73845(7)
C1 C 0.71438(4) 0.48711(14) 0.89140(8)
C2 C 0.36340(4) 0.42854(15) 0.52971(10)
H1 H 0.3581 0.4794 0.5046
C3 C 0.39078(4) 0.61373(16) 0.57358(11)
C4 C 0.39051(4) 0.43767(15) 0.57378(11)
C5 C 0.44487(4) 0.52641(17) 0.60598(12)
C6 C 0.73661(4) 0.45703(15) 0.94541(8)
C7 C 0.67599(4) 0.53526(17) 0.79084(8)
C8 C 0.36176(4) 0.62470(15) 0.59143(9)
H2 H 0.3542 0.5738 0.6101
C9 C 0.72132(4) 0.60227(15) 0.63188(8)
C10 C 0.35411(4) 0.78376(15) 0.55620(9)
C11 C 0.72876(4) 0.53046(15) 0.67006(8)
H3 H 0.7483 0.4910 0.6724
C12 C 0.34390(4) 0.34533(15) 0.52208(9)
H4 H 0.3252 0.3393 0.4918
C13 C 0.68005(4) 0.57313(17) 0.70184(8)
C14 C 0.37967(4) 0.27984(16) 0.60197(10)
H5 H 0.3859 0.2281 0.6263
C15 C 0.62362(4) 0.54343(18) 0.71841(10)
C16 C 0.68746(4) 0.42931(15) 0.86566(9)
H6 H 0.6822 0.3725 0.8824
C17 C 0.38373(5) 0.77277(16) 0.53724(11)
H7 H 0.3910 0.8235 0.5181
C18 C 0.45910(4) 0.59660(16) 0.64181(11)
H8 H 0.4450 0.6452 0.6510
C19 C 0.72150(4) 0.57039(15) 0.86795(8)
H9 H 0.7397 0.6105 0.8860
C20 C 0.70853(4) 0.51549(15) 0.70426(8)
H10 H 0.7139 0.4655 0.7298
C21 C 0.35160(4) 0.27015(14) 0.55888(9)
C22 C 0.74355(5) 0.61882(18) 0.59426(8)
C23 C 0.70234(5) 0.59628(16) 0.81822(9)
H11 H 0.7069 0.6550 0.8026
C24 C 0.49429(4) 0.59656(16) 0.66469(10)
H12 H 0.5037 0.6462 0.6890
C25 C 0.39875(4) 0.36371(17) 0.61003(11)
H13 H 0.4174 0.3703 0.6403
C26 C 0.33013(4) 0.18362(15) 0.55290(9)
C27 C 0.34346(4) 0.70994(15) 0.58232(9)
H14 H 0.3232 0.7168 0.5945
C28 C 0.46592(5) 0.45594(18) 0.59331(13)
H15 H 0.4564 0.4069 0.5686
C29 C 0.67245(5) 0.64481(18) 0.66382(9)
H16 H 0.6528 0.6840 0.6613
C30 C 0.61098(5) 0.5060(2) 0.66855(11)
H17 H 0.6263 0.4853 0.6483
C31 C 0.40211(5) 0.68945(17) 0.54629(12)
H18 H 0.4224 0.6826 0.5343
C32 C 0.60142(5) 0.57097(18) 0.74917(10)
H19 H 0.6100 0.5944 0.7843
C33 C 0.69301(5) 0.65957(17) 0.63005(8)
H20 H 0.6878 0.7102 0.6048
C34 C 0.66802(4) 0.45426(16) 0.81512(9)
H21 H 0.6493 0.4150 0.7977
C35 C 0.51553(4) 0.52785(17) 0.65343(12)
C36 C 0.57546(5) 0.4982(2) 0.64738(12)
H22 H 0.5668 0.4725 0.6128
C37 C 0.33340(5) 0.87492(15) 0.54693(10)
C38 C 0.50056(5) 0.45687(18) 0.61650(13)
H23 H 0.5147 0.4083 0.6073
C39 C 0.55290(5) 0.52834(18) 0.67750(12)
C40 C 0.56636(5) 0.56337(18) 0.72723(11)
H24 H 0.5511 0.5835 0.7478
Co2D Co 0.205754(7) 0.47386(2) 0.461966(13)
O1D O 0.69731(2) 0.82140(9) 0.48449(5)
O2D O 0.27023(3) 0.62186(10) 0.03683(7)
O3D O 0.66142(3) 0.88697(11) 0.41556(6)
O4D O 0.25875(4) 0.30120(12) 0.42852(6)
O5D O 0.68958(3) 0.11347(10) 0.42828(6)
O6D O 0.24031(3) 0.48779(10) 0.03240(5)
O7D O 0.23653(3) 0.45019(11) 0.40984(6)
O8D O 0.66064(3) 0.06225(11) 0.48436(7)
N1D N 0.59067(4) 0.47461(13) 0.41753(10)
N2D N 0.34069(3) 0.44029(15) 0.26155(7)
C1D C 0.28562(4) 0.51289(14) 0.10860(8)
C2D C 0.63660(4) 0.57146(15) 0.47029(10)
H1D H 0.6419 0.5206 0.4954
C3D C 0.60922(4) 0.38627(16) 0.42642(11)
C4D C 0.60949(4) 0.56233(15) 0.42622(11)
C5D C 0.55513(4) 0.47359(17) 0.39402(12)
C6D C 0.26339(4) 0.54297(15) 0.05459(8)
C7D C 0.32401(4) 0.46474(17) 0.20916(8)
C8D C 0.63824(4) 0.37530(15) 0.40857(9)
H2D H 0.6458 0.4262 0.3899
C9D C 0.27868(4) 0.39773(15) 0.36812(8)
C10D C 0.64589(4) 0.21624(15) 0.44380(9)
C11D C 0.27124(4) 0.46954(15) 0.32994(8)
H3D H 0.2517 0.5090 0.3276
C12D C 0.65610(4) 0.65467(15) 0.47792(9)
H4D H 0.6748 0.6607 0.5082
C13D C 0.31995(4) 0.42687(17) 0.29816(8)
C14D C 0.62033(4) 0.72016(16) 0.39803(10)
H5D H 0.6141 0.7719 0.3737
C15D C 0.37638(4) 0.45657(18) 0.28159(10)
C16D C 0.31254(4) 0.57069(15) 0.13434(9)
H6D H 0.3178 0.6275 0.1176
C17D C 0.61627(5) 0.22723(16) 0.46276(11)
H7D H 0.6090 0.1765 0.4819
C18D C 0.54090(4) 0.40340(16) 0.35819(11)
H8D H 0.5550 0.3548 0.3490
C19D C 0.27850(4) 0.42961(15) 0.13205(8)
H9D H 0.2603 0.3895 0.1140
C20D C 0.29147(4) 0.48451(15) 0.29574(8)
H10D H 0.2861 0.5345 0.2702
C21D C 0.64840(4) 0.72985(14) 0.44112(9)
C22D C 0.25645(5) 0.38118(18) 0.40574(8)
C23D C 0.29766(5) 0.40372(16) 0.18178(9)
H11D H 0.2931 0.3450 0.1974
C24D C 0.50571(4) 0.40344(16) 0.33531(10)
H12D H 0.4963 0.3538 0.3110
C25D C 0.60125(4) 0.63629(17) 0.38997(11)
H13D H 0.5826 0.6297 0.3597
C26D C 0.66987(4) 0.81638(15) 0.44710(9)
C27D C 0.65654(4) 0.29006(15) 0.41768(9)
H14D H 0.6768 0.2832 0.4055
C28D C 0.53408(5) 0.54406(18) 0.40669(13)
H15D H 0.5436 0.5931 0.4314
C29D C 0.32755(5) 0.35519(18) 0.33618(9)
H16D H 0.3472 0.3160 0.3387
C30D C 0.38902(5) 0.4940(2) 0.33145(11)
H17D H 0.3737 0.5147 0.3517
C31D C 0.59789(5) 0.31055(17) 0.45371(12)
H18D H 0.5776 0.3174 0.4657
C32D C 0.39858(5) 0.42903(18) 0.25083(10)
H19D H 0.3900 0.4056 0.2157
C33D C 0.30699(5) 0.34043(17) 0.36995(8)
H20D H 0.3122 0.2898 0.3952
C34D C 0.33198(4) 0.54574(16) 0.18488(9)
H21D H 0.3507 0.5850 0.2023
C35D C 0.48447(4) 0.47215(17) 0.34657(12)
C36D C 0.42454(5) 0.5018(2) 0.35262(12)
H22D H 0.4332 0.5275 0.3872
C37D C 0.66660(5) 0.12508(15) 0.45307(10)
C38D C 0.49944(5) 0.54313(18) 0.38350(13)
H23D H 0.4853 0.5917 0.3927
C39D C 0.44710(5) 0.47166(18) 0.32250(12)
C40D C 0.43364(5) 0.43663(18) 0.27277(11)
H24D H 0.4489 0.4165 0.2522
Co1A Co 0.2500 0.7500 0.0000
Co1B Co 0.2500 0.2500 0.5000
Co1C Co 0.7500 0.2500 1.0000
Co2A Co 0.205754(7) 0.52614(2) -0.038034(13)
Co2B Co 0.294246(7) 0.02614(2) 0.538034(13)
Co2B_2 Co 0.294246(7) 1.02614(2) 0.538034(13)
Co2E Co 0.794246(7) 0.47386(2) 1.038034(13)
Co2F Co 0.705754(7) -0.02614(2) 0.461966(13)
Co2F_2 Co 0.705754(7) 0.97386(2) 0.461966(13)
O1B O 0.80269(2) 0.67860(9) 0.51551(5)
O1F O 0.19731(2) 0.32140(9) 0.48449(5)
O2C O 0.77023(3) 0.87814(10) 0.53683(7)
O2E O 0.72977(3) 0.62186(10) 0.46317(7)
O3B O 0.83858(3) 0.61303(11) 0.58444(6)
O3F O 0.16142(3) 0.38697(11) 0.41556(6)
O4F O 0.75875(4) 0.80120(12) 0.42852(6)
O5B O 0.81042(3) 0.38653(10) 0.57172(6)
O5F O 0.18958(3) 0.61347(10) 0.42828(6)
O6A O 0.24031(3) 0.51221(10) 0.53240(5)
O6E O 0.75969(3) 0.48779(10) 0.46760(5)
O8B O 0.83936(3) 0.43775(11) 0.51564(7)
O8F O 0.16064(3) 0.56225(11) 0.48436(7)
loop_
_geom_bond_atom_site_label_1
_geom_bond_atom_site_label_2
_geom_bond_site_symmetry_1
_geom_bond_site_symmetry_2
Co1 O4 1_555 1_555
Co2 O7 1_555 1_555
O1 C26 1_555 1_555
O2 C6 1_555 1_555
O3 C26 1_555 1_555
O4 C22 1_555 1_555
O5 C37 1_555 1_555
O6 C6 1_555 1_555
O7 C22 1_555 1_555
O8 C37 1_555 1_555
N1 C3 1_555 1_555
N2 C7 1_555 1_555
C1 C6 1_555 1_555
C2 H1 1_555 1_555
C3 C8 1_555 1_555
C4 N1 1_555 1_555
C5 N1 1_555 1_555
C7 C23 1_555 1_555
C8 H2 1_555 1_555
C9 C11 1_555 1_555
C10 C17 1_555 1_555
C11 H3 1_555 1_555
C12 C2 1_555 1_555
H4 C12 1_555 1_555
C13 N2 1_555 1_555
C14 H5 1_555 1_555
C15 N2 1_555 1_555
C16 C1 1_555 1_555
H6 C16 1_555 1_555
C17 H7 1_555 1_555
C18 C5 1_555 1_555
H8 C18 1_555 1_555
C19 C1 1_555 1_555
H9 C19 1_555 1_555
C20 C11 1_555 1_555
H10 C20 1_555 1_555
C21 C12 1_555 1_555
C22 C9 1_555 1_555
C23 C19 1_555 1_555
H11 C23 1_555 1_555
C24 C18 1_555 1_555
H12 C24 1_555 1_555
C25 C4 1_555 1_555
H13 C25 1_555 1_555
C26 C21 1_555 1_555
C27 C8 1_555 1_555
H14 C27 1_555 1_555
C28 C5 1_555 1_555
H15 C28 1_555 1_555
C29 C13 1_555 1_555
H16 C29 1_555 1_555
C30 C15 1_555 1_555
H17 C30 1_555 1_555
C31 C3 1_555 1_555
H18 C31 1_555 1_555
C32 C15 1_555 1_555
H19 C32 1_555 1_555
C33 C9 1_555 1_555
H20 C33 1_555 1_555
C34 C7 1_555 1_555
H21 C34 1_555 1_555
C35 C24 1_555 1_555
C36 C30 1_555 1_555
H22 C36 1_555 1_555
C37 C10 1_555 1_555
C38 C28 1_555 1_555
H23 C38 1_555 1_555
C39 C35 1_555 1_555
C40 C32 1_555 1_555
H24 C40 1_555 1_555
Co2D O7D 1_555 1_555
O1D Co1 1_555 1_555
O2D C6D 1_555 1_555
O3D C26D 1_555 1_555
O4D C22D 1_555 1_555
O5D C37D 1_555 1_555
O6D C6D 1_555 1_555
O7D C22D 1_555 1_555
O8D C37D 1_555 1_555
N1D C3D 1_555 1_555
N2D C7D 1_555 1_555
C1D C6D 1_555 1_555
C2D H1D 1_555 1_555
C3D C8D 1_555 1_555
C4D N1D 1_555 1_555
C5D N1D 1_555 1_555
C7D C23D 1_555 1_555
C8D H2D 1_555 1_555
C9D C11D 1_555 1_555
C10D C17D 1_555 1_555
C11D H3D 1_555 1_555
C12D C2D 1_555 1_555
H4D C12D 1_555 1_555
C13D N2D 1_555 1_555
C14D H5D 1_555 1_555
C15D N2D 1_555 1_555
C16D C1D 1_555 1_555
H6D C16D 1_555 1_555
C17D H7D 1_555 1_555
C18D C5D 1_555 1_555
H8D C18D 1_555 1_555
C19D C1D 1_555 1_555
H9D C19D 1_555 1_555
C20D C11D 1_555 1_555
H10D C20D 1_555 1_555
C21D C12D 1_555 1_555
C22D C9D 1_555 1_555
C23D C19D 1_555 1_555
H11D C23D 1_555 1_555
C24D C18D 1_555 1_555
H12D C24D 1_555 1_555
C25D C4D 1_555 1_555
H13D C25D 1_555 1_555
C26D O1D 1_555 1_555
C27D C8D 1_555 1_555
H14D C27D 1_555 1_555
C28D C5D 1_555 1_555
H15D C28D 1_555 1_555
C29D C13D 1_555 1_555
H16D C29D 1_555 1_555
C30D C15D 1_555 1_555
H17D C30D 1_555 1_555
C31D C3D 1_555 1_555
H18D C31D 1_555 1_555
C32D C15D 1_555 1_555
H19D C32D 1_555 1_555
C33D C9D 1_555 1_555
H20D C33D 1_555 1_555
C34D C7D 1_555 1_555
H21D C34D 1_555 1_555
C35D C24D 1_555 1_555
C36D C30D 1_555 1_555
H22D C36D 1_555 1_555
C37D C10D 1_555 1_555
C38D C28D 1_555 1_555
H23D C38D 1_555 1_555
C39D C35D 1_555 1_555
C40D C32D 1_555 1_555
H24D C40D 1_555 1_555
Co1A O2D 1_555 1_555
Co1B O1 1_555 1_555
Co1C O2 1_555 1_555
Co2A O6D 1_555 1_555
Co2B O1 1_555 1_555
Co2B_2 O5 1_555 1_555
Co2E O6 1_555 1_555
Co2F O5D 1_555 1_555
Co2F_2 O1D 1_555 1_555
O1B Co1 1_555 1_555
O1F Co2D 1_555 1_555
O2C Co1 1_555 1_555
O2E Co1 1_555 1_555
O3B Co2 1_555 1_555
O3F Co2D 1_555 1_555
O4F Co1 1_555 1_555
O5B Co2 1_555 1_555
O5F Co2D 1_555 1_555
O6A Co2D 1_555 1_555
O6E Co2 1_555 1_555
O8B Co2 1_555 1_555
O8F Co2D 1_555 1_555
Co2 O1B 1_555 1_555
O3 Co2B 1_555 1_555
O8 Co2B_2 1_555 1_555
C2 C4 1_555 1_555
C10 C27 1_555 1_555
C13 C20 1_555 1_555
C14 C21 1_555 1_555
C14 C25 1_555 1_555
C16 C34 1_555 1_555
C17 C31 1_555 1_555
C29 C33 1_555 1_555
C35 C38 1_555 1_555
C36 C39 1_555 1_555
C39 C40 1_555 1_555
O3D Co2F_2 1_555 1_555
O4D Co1B 1_555 1_555
O8D Co2F 1_555 1_555
C2D C4D 1_555 1_555
C10D C27D 1_555 1_555
C13D C20D 1_555 1_555
C14D C21D 1_555 1_555
C14D C25D 1_555 1_555
C16D C34D 1_555 1_555
C17D C31D 1_555 1_555
C21D C26D 1_555 1_555
C29D C33D 1_555 1_555
C35D C38D 1_555 1_555
C36D C39D 1_555 1_555
C39D C40D 1_555 1_555
Co1B O1F 1_555 1_555

#END
