
#######################################################################
#
#                 Cambridge Crystallographic Data Centre
#                                CCDC 
#
#######################################################################
#
# If this CIF has been generated from an entry in the Cambridge 
# Structural Database, then it will include bibliographic, chemical, 
# crystal, experimental, refinement or atomic coordinate data resulting 
# from the CCDC's data processing and validation procedures.
#
#######################################################################

data_FESBIQ
_chemical_formula_moiety         '(C104 H64 Mn4 N20 O16)n'
_symmetry_cell_setting           triclinic
_symmetry_space_group_name_H-M   'P -1'
_symmetry_Int_Tables_number      2
_space_group_name_Hall           '-P 1'
loop_
_symmetry_equiv_pos_site_id
_symmetry_equiv_pos_as_xyz
1 x,y,z
2 -x,-y,-z
_cell_length_a                   14.787(7)
_cell_length_b                   15.571(7)
_cell_length_c                   16.424(7)
_cell_angle_alpha                92.379(8)
_cell_angle_beta                 109.668(7)
_cell_angle_gamma                110.955(8)
_cell_volume                     3268.63
loop_
_atom_site_label
_atom_site_type_symbol
_atom_site_fract_x
_atom_site_fract_y
_atom_site_fract_z
Mn1 Mn 0.83424(6) 1.25301(6) 0.32302(5)
Mn2 Mn 0.66321(6) 0.66982(6) -0.25269(5)
C1 C 0.9000(5) 1.3902(5) 0.5013(4)
H1 H 0.8345 1.3924 0.4765
C2 C 0.9613(5) 1.4374(5) 0.5861(4)
H2 H 0.9372 1.4694 0.6171
C3 C 1.0574(6) 1.4365(6) 0.6232(5)
H3 H 1.1009 1.4691 0.6800
C4 C 1.0901(5) 1.3876(5) 0.5773(4)
H4 H 1.1563 1.3869 0.6023
C5 C 1.0246(4) 1.3392(4) 0.4935(4)
C6 C 1.0507(4) 1.2848(4) 0.4399(4)
C7 C 1.0309(4) 1.1877(4) 0.3305(3)
C8 C 0.9906(4) 1.1223(4) 0.2509(4)
C9 C 0.9964(4) 1.0371(4) 0.2516(4)
H5 H 1.0312 1.0233 0.3047
C10 C 0.9529(5) 0.9709(5) 0.1766(4)
H6 H 0.9550 0.9122 0.1801
C11 C 0.9054(4) 0.9911(4) 0.0948(4)
C12 C 0.9026(4) 1.0776(4) 0.0937(4)
H7 H 0.8705 1.0923 0.0401
C13 C 0.9455(4) 1.1440(4) 0.1687(4)
H8 H 0.9446 1.2031 0.1651
C14 C 0.7516(4) 0.7599(4) -0.0596(4)
H9 H 0.7158 0.6983 -0.0561
C15 C 0.8023(4) 0.8262(4) 0.0168(4)
H10 H 0.8011 0.8082 0.0699
C16 C 0.8548(4) 0.9190(4) 0.0149(4)
C17 C 0.8578(4) 0.9421(4) -0.0657(4)
H11 H 0.8928 1.0032 -0.0710
C18 C 0.8054(4) 0.8683(5) -0.1381(4)
H12 H 0.8095 0.8839 -0.1912
C19 C 0.5938(5) 0.4896(5) -0.3944(4)
H13 H 0.6626 0.5143 -0.3909
C20 C 0.5292(6) 0.4044(5) -0.4482(5)
H14 H 0.5530 0.3742 -0.4812
C21 C 0.4282(6) 0.3649(6) -0.4520(5)
H15 H 0.3818 0.3079 -0.4889
C22 C 0.3971(5) 0.4101(5) -0.4014(4)
H16 H 0.3294 0.3838 -0.4024
C23 C 0.4656(4) 0.4944(4) -0.3489(4)
C24 C 0.4402(4) 0.5490(4) -0.2913(4)
C25 C 0.4613(4) 0.6561(4) -0.1936(4)
C26 C 0.5049(4) 0.7403(4) -0.1260(4)
C27 C 0.5534(4) 0.8268(4) -0.1411(4)
H17 H 0.5580 0.8339 -0.1957
C28 C 0.5959(4) 0.9044(4) -0.0752(4)
H18 H 0.6300 0.9631 -0.0859
C29 C 0.5888(4) 0.8965(4) 0.0051(4)
C30 C 0.5377(5) 0.8077(4) 0.0196(4)
H19 H 0.5331 0.8007 0.0742
C31 C 0.4936(5) 0.7297(5) -0.0462(4)
H20 H 0.4569 0.6710 -0.0370
C32 C 0.7391(4) 1.0500(5) 0.2274(4)
H21 H 0.7715 1.0420 0.2842
C33 C 0.6887(5) 0.9717(4) 0.1628(4)
H22 H 0.6871 0.9141 0.1772
C34 C 0.6403(4) 0.9777(4) 0.0764(4)
C35 C 0.6428(4) 1.0671(4) 0.0613(4)
H23 H 0.6103 1.0762 0.0051
C36 C 0.6942(4) 1.1401(5) 0.1314(4)
H24 H 0.6931 1.1975 0.1187
C37 C 0.6858(4) 1.1935(4) 0.3763(4)
C38 C 0.5954(4) 1.1529(4) 0.4047(4)
C39 C 0.5879(4) 1.0799(4) 0.4507(4)
H25 H 0.6412 1.0581 0.4659
C40 C 0.5024(4) 1.0381(4) 0.4748(4)
C41 C 0.4231(4) 1.0718(4) 0.4485(4)
H26 H 0.3639 1.0439 0.4618
C42 C 0.4299(4) 1.1436(4) 0.4046(4)
C43 C 0.5164(4) 1.1858(4) 0.3810(3)
H27 H 0.5205 1.2349 0.3502
C44 C 0.3431(4) 1.1801(4) 0.3769(4)
C45 C 0.8061(4) 0.6100(4) -0.1975(4)
C46 C 0.8966(4) 0.5815(4) -0.1568(3)
C47 C 0.9064(4) 0.5403(4) -0.0824(4)
H28 H 0.8541 0.5265 -0.0597
C48 C 0.9922(4) 0.5196(4) -0.0419(3)
C49 C 1.0698(4) 0.5420(4) -0.0774(3)
H29 H 1.1287 0.5292 -0.0508
C50 C 1.0605(4) 0.5831(4) -0.1519(3)
C51 C 0.9734(4) 0.6017(4) -0.1923(3)
H30 H 0.9660 0.6277 -0.2429
C52 C 1.1452(5) 0.6069(4) -0.1883(4)
N1 N 0.9802(3) 1.2344(3) 0.3570(3)
N2 N 0.7508(4) 0.7793(4) -0.1403(4)
N3 N 0.7466(3) 1.1396(4) 0.2169(3)
N4 N 0.5126(3) 0.6315(3) -0.2381(3)
N5 N 0.9273(3) 1.3406(3) 0.4510(3)
N6 N 0.5661(4) 0.5412(4) -0.3456(3)
N7 N 0.3488(3) 0.5206(3) -0.2822(3)
N8 N 0.3670(3) 0.5899(3) -0.2194(3)
H31 H 0.3213 0.5907 -0.1983
N9 N 1.1230(4) 1.2083(3) 0.3944(3)
H32 H 1.1672 1.1853 0.3919
N10 N 1.1398(4) 1.2706(4) 0.4652(3)
O1 O 0.7553(3) 1.1595(3) 0.3960(2)
O2 O 0.6897(3) 1.2574(3) 0.3330(2)
O3 O 0.3551(3) 1.2461(3) 0.3379(3)
O4 O 0.2660(3) 1.1406(3) 0.3980(3)
O5 O 0.7328(3) 0.5866(3) -0.1679(2)
O6 O 0.8056(3) 0.6573(3) -0.2566(2)
O7 O 1.2213(3) 0.5849(4) -0.1533(3)
O8 O 1.1357(3) 0.6494(3) -0.2517(2)
C37A C 0.3142(4) 0.8065(4) 0.6237(4)
C38A C 0.4046(4) 0.8471(4) 0.5953(4)
C39A C 0.4121(4) 0.9201(4) 0.5493(4)
H25A H 0.3588 0.9419 0.5341
C40A C 0.4976(4) 0.9619(4) 0.5252(4)
C41A C 0.5769(4) 0.9282(4) 0.5515(4)
H26A H 0.6361 0.9561 0.5382
C42A C 0.5701(4) 0.8564(4) 0.5954(4)
C43A C 0.4836(4) 0.8142(4) 0.6190(3)
H27A H 0.4795 0.7651 0.6498
C44A C 0.6569(4) 0.8199(4) 0.6231(4)
O1A O 0.2447(3) 0.8405(3) 0.6040(2)
O2A O 0.3103(3) 0.7426(3) 0.6670(2)
O3A O 0.6449(3) 0.7539(3) 0.6621(3)
O4A O 0.7340(3) 0.8594(3) 0.6020(3)
C45A C 1.1939(4) 0.3900(4) 0.1975(4)
C46A C 1.1034(4) 0.4185(4) 0.1568(3)
C47A C 1.0936(4) 0.4597(4) 0.0824(4)
H28A H 1.1459 0.4735 0.0597
C48A C 1.0078(4) 0.4804(4) 0.0419(3)
C49A C 0.9302(4) 0.4580(4) 0.0774(3)
H29A H 0.8713 0.4708 0.0508
C50A C 0.9395(4) 0.4169(4) 0.1519(3)
C51A C 1.0266(4) 0.3983(4) 0.1923(3)
H30A H 1.0340 0.3723 0.2429
C52A C 0.8548(5) 0.3931(4) 0.1883(4)
O5A O 1.2672(3) 0.4134(3) 0.1679(2)
O6A O 1.1944(3) 0.3427(3) 0.2566(2)
O7A O 0.7787(3) 0.4151(4) 0.1533(3)
O8A O 0.8643(3) 0.3506(3) 0.2517(2)
Mn1A Mn 0.16576(6) 0.74699(6) -0.32302(5)
Mn2A Mn 0.33679(6) 1.33018(6) 0.25269(5)
C1A C 0.1000(5) 0.6098(5) -0.5013(4)
H1A H 0.1655 0.6076 -0.4765
C2A C 0.0387(5) 0.5626(5) -0.5861(4)
H2A H 0.0628 0.5306 -0.6171
C3A C -0.0574(6) 0.5635(6) -0.6232(5)
H3A H -0.1009 0.5309 -0.6800
C4A C -0.0901(5) 0.6124(5) -0.5773(4)
H4A H -0.1563 0.6131 -0.6023
C5A C -0.0246(4) 0.6608(4) -0.4935(4)
C6A C -0.0507(4) 0.7152(4) -0.4399(4)
C7A C -0.0309(4) 0.8123(4) -0.3305(3)
C8A C 0.0094(4) 0.8777(4) -0.2509(4)
C9A C 0.0036(4) 0.9629(4) -0.2516(4)
H5A H -0.0312 0.9767 -0.3047
C10A C 0.0471(5) 1.0291(5) -0.1766(4)
H6A H 0.0450 1.0878 -0.1801
C11A C 0.0946(4) 1.0089(4) -0.0948(4)
C12A C 0.0974(4) 0.9224(4) -0.0937(4)
H7A H 0.1295 0.9077 -0.0401
C13A C 0.0545(4) 0.8560(4) -0.1687(4)
H8A H 0.0554 0.7969 -0.1651
C14A C 0.2484(4) 1.2401(4) 0.0596(4)
H9A H 0.2842 1.3017 0.0561
C15A C 0.1977(4) 1.1738(4) -0.0168(4)
H10A H 0.1989 1.1918 -0.0699
C16A C 0.1452(4) 1.0810(4) -0.0149(4)
C17A C 0.1422(4) 1.0579(4) 0.0657(4)
H11A H 0.1072 0.9968 0.0710
C18A C 0.1946(4) 1.1317(5) 0.1381(4)
H12A H 0.1905 1.1161 0.1912
C19A C 0.4062(5) 1.5104(5) 0.3944(4)
H13A H 0.3374 1.4857 0.3909
C20A C 0.4708(6) 1.5956(5) 0.4482(5)
H14A H 0.4470 1.6258 0.4812
C21A C 0.5718(6) 1.6351(6) 0.4520(5)
H15A H 0.6182 1.6921 0.4889
C22A C 0.6029(5) 1.5899(5) 0.4014(4)
H16A H 0.6706 1.6162 0.4024
C23A C 0.5344(4) 1.5056(4) 0.3489(4)
C24A C 0.5598(4) 1.4510(4) 0.2913(4)
C25A C 0.5387(4) 1.3439(4) 0.1936(4)
C26A C 0.4951(4) 1.2597(4) 0.1260(4)
C27A C 0.4466(4) 1.1732(4) 0.1411(4)
H17A H 0.4420 1.1661 0.1957
C28A C 0.4041(4) 1.0956(4) 0.0752(4)
H18A H 0.3700 1.0369 0.0859
C29A C 0.4112(4) 1.1035(4) -0.0051(4)
C30A C 0.4623(5) 1.1923(4) -0.0196(4)
H19A H 0.4669 1.1993 -0.0742
C31A C 0.5064(5) 1.2703(5) 0.0462(4)
H20A H 0.5431 1.3290 0.0370
C32A C 0.2609(4) 0.9500(5) -0.2274(4)
H21A H 0.2285 0.9580 -0.2842
C33A C 0.3113(5) 1.0283(4) -0.1628(4)
H22A H 0.3129 1.0859 -0.1772
C34A C 0.3597(4) 1.0223(4) -0.0764(4)
C35A C 0.3572(4) 0.9329(4) -0.0613(4)
H23A H 0.3897 0.9238 -0.0051
C36A C 0.3058(4) 0.8599(5) -0.1314(4)
H24A H 0.3069 0.8025 -0.1187
N1A N 0.0198(3) 0.7656(3) -0.3570(3)
N2A N 0.2492(4) 1.2207(4) 0.1403(4)
N3A N 0.2534(3) 0.8604(4) -0.2169(3)
N4A N 0.4874(3) 1.3685(3) 0.2381(3)
N5A N 0.0727(3) 0.6594(3) -0.4510(3)
N6A N 0.4339(4) 1.4588(4) 0.3456(3)
N7A N 0.6512(3) 1.4794(3) 0.2822(3)
N8A N 0.6330(3) 1.4101(3) 0.2194(3)
H31A H 0.6787 1.4093 0.1983
N9A N -0.1230(4) 0.7917(3) -0.3944(3)
H32A H -0.1672 0.8147 -0.3919
N10A N -0.1398(4) 0.7294(4) -0.4652(3)
Mn1_2 Mn 0.83424(6) 0.25301(6) 0.32302(5)
Mn1A_2 Mn 0.16576(6) 0.74699(6) 0.67698(5)
Mn1A_3 Mn 1.16576(6) 0.74699(6) -0.32302(5)
Mn2_2 Mn 0.66321(6) 0.66982(6) 0.74731(5)
Mn2A_2 Mn 1.33679(6) 0.33018(6) 0.25269(5)
O1A_2 O 0.2447(3) 0.8405(3) -0.3960(2)
O2A_2 O 0.3103(3) 0.7426(3) -0.3330(2)
O3A_2 O 0.6449(3) 0.7539(3) -0.3379(3)
O5A_2 O 0.2672(3) 1.4134(3) 0.1679(2)
O6A_2 O 0.1944(3) 1.3427(3) 0.2566(2)
O8_2 O 0.1357(3) 0.6494(3) -0.2517(2)
O8A_2 O 0.8643(3) 1.3506(3) 0.2517(2)
loop_
_geom_bond_atom_site_label_1
_geom_bond_atom_site_label_2
_geom_bond_site_symmetry_1
_geom_bond_site_symmetry_2
Mn1 N1 1_555 1_555
Mn2 N2 1_555 1_555
C1 H1 1_555 1_555
C2 C1 1_555 1_555
H2 C2 1_555 1_555
C3 C2 1_555 1_555
H3 C3 1_555 1_555
C4 C3 1_555 1_555
H4 C4 1_555 1_555
C5 C4 1_555 1_555
C6 C5 1_555 1_555
C7 C8 1_555 1_555
C8 C9 1_555 1_555
C9 H5 1_555 1_555
C10 C9 1_555 1_555
H6 C10 1_555 1_555
C11 C10 1_555 1_555
C12 C11 1_555 1_555
H7 C12 1_555 1_555
C13 C8 1_555 1_555
H8 C13 1_555 1_555
C14 H9 1_555 1_555
C15 C14 1_555 1_555
H10 C15 1_555 1_555
C16 C11 1_555 1_555
C17 C16 1_555 1_555
H11 C17 1_555 1_555
C18 C17 1_555 1_555
H12 C18 1_555 1_555
C19 H13 1_555 1_555
C20 C19 1_555 1_555
H14 C20 1_555 1_555
C21 C20 1_555 1_555
H15 C21 1_555 1_555
C22 C21 1_555 1_555
H16 C22 1_555 1_555
C23 C22 1_555 1_555
C24 C23 1_555 1_555
C25 C26 1_555 1_555
C26 C27 1_555 1_555
C27 H17 1_555 1_555
C28 C27 1_555 1_555
H18 C28 1_555 1_555
C29 C28 1_555 1_555
C30 C29 1_555 1_555
H19 C30 1_555 1_555
C31 C26 1_555 1_555
H20 C31 1_555 1_555
C32 H21 1_555 1_555
C33 C32 1_555 1_555
H22 C33 1_555 1_555
C34 C29 1_555 1_555
C35 C34 1_555 1_555
H23 C35 1_555 1_555
C36 C35 1_555 1_555
H24 C36 1_555 1_555
C37 C38 1_555 1_555
C38 C39 1_555 1_555
C39 H25 1_555 1_555
C40 C39 1_555 1_555
C41 C40 1_555 1_555
H26 C41 1_555 1_555
C42 C41 1_555 1_555
C43 C38 1_555 1_555
H27 C43 1_555 1_555
C44 C42 1_555 1_555
C45 C46 1_555 1_555
C46 C47 1_555 1_555
C47 H28 1_555 1_555
C48 C47 1_555 1_555
C49 C48 1_555 1_555
H29 C49 1_555 1_555
C50 C49 1_555 1_555
C51 C46 1_555 1_555
H30 C51 1_555 1_555
C52 C50 1_555 1_555
N1 C6 1_555 1_555
N2 C14 1_555 1_555
N3 Mn1 1_555 1_555
N4 Mn2 1_555 1_555
N5 Mn1 1_555 1_555
N6 Mn2 1_555 1_555
N7 C24 1_555 1_555
N8 C25 1_555 1_555
H31 N8 1_555 1_555
N9 C7 1_555 1_555
H32 N9 1_555 1_555
N10 C6 1_555 1_555
O1 Mn1 1_555 1_555
O2 Mn1 1_555 1_555
O3 C44 1_555 1_555
O4 C44 1_555 1_555
O5 Mn2 1_555 1_555
O6 Mn2 1_555 1_555
O7 C52 1_555 1_555
O8 C52 1_555 1_555
C37A C38A 1_555 1_555
C38A C39A 1_555 1_555
C39A H25A 1_555 1_555
C40A C40 1_555 1_555
C41A C40A 1_555 1_555
H26A C41A 1_555 1_555
C42A C41A 1_555 1_555
C43A C38A 1_555 1_555
H27A C43A 1_555 1_555
C44A C42A 1_555 1_555
O1A C37A 1_555 1_555
O2A C37A 1_555 1_555
O3A C44A 1_555 1_555
O4A C44A 1_555 1_555
C45A C46A 1_555 1_555
C46A C47A 1_555 1_555
C47A H28A 1_555 1_555
C48A C48 1_555 1_555
C49A C48A 1_555 1_555
H29A C49A 1_555 1_555
C50A C49A 1_555 1_555
C51A C46A 1_555 1_555
H30A C51A 1_555 1_555
C52A C50A 1_555 1_555
O5A C45A 1_555 1_555
O6A C45A 1_555 1_555
O7A C52A 1_555 1_555
O8A C52A 1_555 1_555
Mn1A N1A 1_555 1_555
Mn2A O3 1_555 1_555
C1A H1A 1_555 1_555
C2A C1A 1_555 1_555
H2A C2A 1_555 1_555
C3A C2A 1_555 1_555
H3A C3A 1_555 1_555
C4A C3A 1_555 1_555
H4A C4A 1_555 1_555
C5A C4A 1_555 1_555
C6A C5A 1_555 1_555
C7A C8A 1_555 1_555
C8A C9A 1_555 1_555
C9A H5A 1_555 1_555
C10A C9A 1_555 1_555
H6A C10A 1_555 1_555
C11A C10A 1_555 1_555
C12A C11A 1_555 1_555
H7A C12A 1_555 1_555
C13A C8A 1_555 1_555
H8A C13A 1_555 1_555
C14A H9A 1_555 1_555
C15A C14A 1_555 1_555
H10A C15A 1_555 1_555
C16A C11A 1_555 1_555
C17A C16A 1_555 1_555
H11A C17A 1_555 1_555
C18A C17A 1_555 1_555
H12A C18A 1_555 1_555
C19A H13A 1_555 1_555
C20A C19A 1_555 1_555
H14A C20A 1_555 1_555
C21A C20A 1_555 1_555
H15A C21A 1_555 1_555
C22A C21A 1_555 1_555
H16A C22A 1_555 1_555
C23A C22A 1_555 1_555
C24A C23A 1_555 1_555
C25A C26A 1_555 1_555
C26A C27A 1_555 1_555
C27A H17A 1_555 1_555
C28A C27A 1_555 1_555
H18A C28A 1_555 1_555
C29A C28A 1_555 1_555
C30A C29A 1_555 1_555
H19A C30A 1_555 1_555
C31A C26A 1_555 1_555
H20A C31A 1_555 1_555
C32A H21A 1_555 1_555
C33A C32A 1_555 1_555
H22A C33A 1_555 1_555
C34A C29A 1_555 1_555
C35A C34A 1_555 1_555
H23A C35A 1_555 1_555
C36A C35A 1_555 1_555
H24A C36A 1_555 1_555
N1A C6A 1_555 1_555
N2A Mn2A 1_555 1_555
N3A Mn1A 1_555 1_555
N4A Mn2A 1_555 1_555
N5A Mn1A 1_555 1_555
N6A Mn2A 1_555 1_555
N7A C24A 1_555 1_555
N8A C25A 1_555 1_555
H31A N8A 1_555 1_555
N9A C7A 1_555 1_555
H32A N9A 1_555 1_555
N10A C6A 1_555 1_555
Mn1_2 O8A 1_555 1_555
Mn1A_2 O1A 1_555 1_555
Mn1A_3 O8 1_555 1_555
Mn2_2 O3A 1_555 1_555
Mn2A_2 O5A 1_555 1_555
O1A_2 Mn1A 1_555 1_555
O2A_2 Mn1A 1_555 1_555
O3A_2 Mn2 1_555 1_555
O5A_2 Mn2A 1_555 1_555
O6A_2 Mn2A 1_555 1_555
O8_2 Mn1A 1_555 1_555
O8A_2 Mn1 1_555 1_555
C1 N5 1_555 1_555
C5 N5 1_555 1_555
C7 N1 1_555 1_555
C12 C13 1_555 1_555
C15 C16 1_555 1_555
C18 N2 1_555 1_555
C19 N6 1_555 1_555
C23 N6 1_555 1_555
C24 N4 1_555 1_555
C25 N4 1_555 1_555
C30 C31 1_555 1_555
C32 N3 1_555 1_555
C33 C34 1_555 1_555
C36 N3 1_555 1_555
C37 O1 1_555 1_555
C37 O2 1_555 1_555
C42 C43 1_555 1_555
C45 O5 1_555 1_555
C45 O6 1_555 1_555
C50 C51 1_555 1_555
N7 N8 1_555 1_555
N9 N10 1_555 1_555
C39A C40A 1_555 1_555
C42A C43A 1_555 1_555
O2A Mn1A_2 1_555 1_555
C47A C48A 1_555 1_555
C50A C51A 1_555 1_555
O6A Mn2A_2 1_555 1_555
C1A N5A 1_555 1_555
C5A N5A 1_555 1_555
C7A N1A 1_555 1_555
C12A C13A 1_555 1_555
C14A N2A 1_555 1_555
C15A C16A 1_555 1_555
C18A N2A 1_555 1_555
C19A N6A 1_555 1_555
C23A N6A 1_555 1_555
C24A N4A 1_555 1_555
C25A N4A 1_555 1_555
C30A C31A 1_555 1_555
C32A N3A 1_555 1_555
C33A C34A 1_555 1_555
C36A N3A 1_555 1_555
N7A N8A 1_555 1_555
N9A N10A 1_555 1_555

#END
