
#######################################################################
#
#                 Cambridge Crystallographic Data Centre
#                                CCDC 
#
#######################################################################
#
# If this CIF has been generated from an entry in the Cambridge 
# Structural Database, then it will include bibliographic, chemical, 
# crystal, experimental, refinement or atomic coordinate data resulting 
# from the CCDC's data processing and validation procedures.
#
#######################################################################

data_NAVJAW01
_chemical_formula_moiety         '(C8 H14 Co2 O12)n'
_symmetry_cell_setting           rhombohedral
_symmetry_space_group_name_H-M   'R -3'
_symmetry_Int_Tables_number      148
_space_group_name_Hall           '-R 3'
loop_
_symmetry_equiv_pos_site_id
_symmetry_equiv_pos_as_xyz
1 x,y,z
2 1/3+x,2/3+y,2/3+z
3 2/3+x,1/3+y,1/3+z
4 -y,x-y,z
5 -x+y,-x,z
6 2/3-y,1/3+x-y,1/3+z
7 2/3-x+y,1/3-x,1/3+z
8 1/3-y,2/3+x-y,2/3+z
9 1/3-x+y,2/3-x,2/3+z
10 -x,-y,-z
11 2/3-x,1/3-y,1/3-z
12 1/3-x,2/3-y,2/3-z
13 y,-x+y,-z
14 x-y,x,-z
15 1/3+y,2/3-x+y,2/3-z
16 1/3+x-y,2/3+x,2/3-z
17 2/3+y,1/3-x+y,1/3-z
18 2/3+x-y,1/3+x,1/3-z
_cell_length_a                   26.15786(84)
_cell_length_b                   26.15786(84)
_cell_length_c                   6.71822(25)
_cell_angle_alpha                90
_cell_angle_beta                 90
_cell_angle_gamma                120
_cell_volume                     3980.97
loop_
_atom_site_label
_atom_site_type_symbol
_atom_site_fract_x
_atom_site_fract_y
_atom_site_fract_z
C1 C 0.58010(6) 0.59277(6) 0.75229(17)
C2 C 0.54187(4) 0.54477(6) 0.87475(12)
C3 C 0.55586(5) 0.54358(6) 1.07727(13)
C4 C 0.48172(4) 0.50569(6) 0.80694(13)
H1 H 0.47019(14) 0.51070(22) 0.67479(50)
Co1 Co 0.61479(2) 0.64963(2) 0.34545(7)
O1 O 0.56025(6) 0.60047(5) 0.58976(17)
O2 O 0.62746(4) 0.63399(4) 0.82478(24)
O3 O 0.61013(3) 0.58590(5) 1.15260(19)
O4 O 0.54165(7) 0.66160(8) 0.19561(27)
C1I C 0.41990(6) 0.40723(6) 1.24771(17)
C2I C 0.45813(4) 0.45523(6) 1.12525(12)
C3I C 0.44414(5) 0.45642(6) 0.92273(13)
C4I C 0.51828(4) 0.49431(6) 1.19306(13)
H1I H 0.52981(14) 0.48930(22) 1.32521(50)
Co1I Co 0.38521(2) 0.35037(2) 1.65455(7)
Co1F Co 0.70151(3) 0.71854(2) 0.67878(7)
Co1G Co 0.68370(2) 0.63183(3) 1.01212(7)
Co1_2 Co 0.61479(2) 0.64963(2) 1.34545(7)
Co1P Co 0.31630(2) 0.36817(3) 0.98788(7)
Co1O Co 0.29849(3) 0.28146(2) 1.32122(7)
Co1I_2 Co 0.38521(2) 0.35037(2) 0.65455(7)
O1I O 0.43975(6) 0.39953(5) 1.41024(17)
O2I O 0.37254(4) 0.36601(4) 1.17522(24)
O2F O 0.67320(6) 0.70587(4) 0.15811(24)
O2G O 0.69934(4) 0.66014(6) 0.49145(24)
O2P O 0.30066(4) 0.33986(6) 1.50855(24)
O2O O 0.32680(6) 0.29413(4) 1.84189(24)
O3I O 0.38987(3) 0.41410(5) 0.84740(19)
O3_2 O 0.61013(3) 0.58590(5) 0.15260(19)
O3F O 0.64244(6) 0.72320(3) 0.48593(19)
O3I_2 O 0.38987(3) 0.41410(5) 1.84740(19)
O3O O 0.35756(6) 0.27680(3) 1.51407(19)
O4I O 0.45835(7) 0.33840(8) 1.80439(27)
O5 O 0.72821(10) 0.51075(9) 0.18698(40)
O6 O 0.07915(10) 0.05364(9) 0.24734(34)
O7 O 0.88346(9) 0.36705(10) 0.47543(35)
O8 O 0.43135(10) 0.83889(10) 0.04663(37)
loop_
_geom_bond_atom_site_label_1
_geom_bond_atom_site_label_2
_geom_bond_site_symmetry_1
_geom_bond_site_symmetry_2
C1 C2 1_555 1_555
C2 C3 1_555 1_555
C3 O3 1_555 1_555
C4 C2 1_555 1_555
H1 C4 1_555 1_555
Co1 O1 1_555 1_555
O1 C1 1_555 1_555
O2 C1 1_555 1_555
O3 Co1G 1_555 1_555
O4 Co1 1_555 1_555
C1I C2I 1_555 1_555
C2I C3I 1_555 1_555
C3I C4 1_555 1_555
C4I C3 1_555 1_555
H1I C4I 1_555 1_555
Co1I O1I 1_555 1_555
Co1F O2 1_555 1_555
Co1G O2 1_555 1_555
Co1_2 O3 1_555 1_555
Co1P O2I 1_555 1_555
Co1O O2I 1_555 1_555
Co1I_2 O3I 1_555 1_555
O1I C1I 1_555 1_555
O2I C1I 1_555 1_555
O2F Co1 1_555 1_555
O2G Co1 1_555 1_555
O2P Co1I 1_555 1_555
O2O Co1I 1_555 1_555
O3I C3I 1_555 1_555
O3_2 Co1 1_555 1_555
O3F Co1 1_555 1_555
O3I_2 Co1I 1_555 1_555
O3O Co1I 1_555 1_555
O4I Co1I 1_555 1_555
C2I C4I 1_555 1_555
Co1F O2G 1_555 1_555
Co1F O3F 1_555 1_555
Co1P O3I 1_555 1_555
Co1O O2P 1_555 1_555
Co1O O3O 1_555 1_555

#END
