
#######################################################################
#
#                 Cambridge Crystallographic Data Centre
#                                CCDC 
#
#######################################################################
#
# If this CIF has been generated from an entry in the Cambridge 
# Structural Database, then it will include bibliographic, chemical, 
# crystal, experimental, refinement or atomic coordinate data resulting 
# from the CCDC's data processing and validation procedures.
#
#######################################################################

data_WIZDEP
_chemical_formula_moiety         '(C8 H8 O9 Zn2)n'
_symmetry_cell_setting           rhombohedral
_symmetry_space_group_name_H-M   'R -3'
_symmetry_Int_Tables_number      148
_space_group_name_Hall           '-R 3'
loop_
_symmetry_equiv_pos_site_id
_symmetry_equiv_pos_as_xyz
1 x,y,z
2 1/3+x,2/3+y,2/3+z
3 2/3+x,1/3+y,1/3+z
4 -y,x-y,z
5 -x+y,-x,z
6 2/3-y,1/3+x-y,1/3+z
7 2/3-x+y,1/3-x,1/3+z
8 1/3-y,2/3+x-y,2/3+z
9 1/3-x+y,2/3-x,2/3+z
10 -x,-y,-z
11 2/3-x,1/3-y,1/3-z
12 1/3-x,2/3-y,2/3-z
13 y,-x+y,-z
14 x-y,x,-z
15 1/3+y,2/3-x+y,2/3-z
16 1/3+x-y,2/3+x,2/3-z
17 2/3+y,1/3-x+y,1/3-z
18 2/3+x-y,1/3+x,1/3-z
_cell_length_a                   26.22054(87)
_cell_length_b                   26.22054(87)
_cell_length_c                   6.32019(48)
_cell_angle_alpha                90
_cell_angle_beta                 90
_cell_angle_gamma                120
_cell_volume                     3763.09
loop_
_atom_site_label
_atom_site_type_symbol
_atom_site_fract_x
_atom_site_fract_y
_atom_site_fract_z
C1 C 0.57462(6) 0.59045(8) 0.71885(25)
C2 C 0.53915(7) 0.54360(9) 0.85689(18)
C3 C 0.55685(4) 0.54486(5) 1.06906(15)
C4 C 0.48012(7) 0.50016(10) 0.79161(18)
H1 H 0.46732(18) 0.50108(23) 0.64847(51)
Zn1 Zn 0.61341(3) 0.65025(3) 0.32720(13)
O1 O 0.55132(8) 0.59982(9) 0.55904(29)
O2 O 0.63011(6) 0.61479(9) 0.73044(35)
O3 O 0.61235(5) 0.58802(9) 1.13517(28)
O4 O 0.54246(25) 0.66030(23) 0.21900(78)
C1I C 0.42538(6) 0.40955(8) 1.28115(25)
C2I C 0.46085(7) 0.45640(9) 1.14311(18)
C3I C 0.44315(4) 0.45514(5) 0.93094(15)
C4I C 0.51988(7) 0.49984(10) 1.20839(18)
H1I H 0.53268(18) 0.49892(23) 1.35153(51)
Zn1I Zn 0.38659(3) 0.34975(3) 1.67280(13)
Zn1G Zn 0.68308(3) 0.62983(4) 0.99387(13)
Zn1_2 Zn 0.61341(3) 0.65025(3) 1.32720(13)
Zn1P Zn 0.31692(3) 0.37017(4) 1.00613(13)
Zn1I_2 Zn 0.38659(3) 0.34975(3) 0.67280(13)
O1I O 0.44868(8) 0.40018(9) 1.44096(29)
O2I O 0.36989(6) 0.38521(9) 1.26956(35)
O2F O 0.65135(11) 0.70322(6) 0.06377(35)
O2O O 0.34865(11) 0.29678(6) 1.93623(35)
O3I O 0.38765(5) 0.41198(9) 0.86483(28)
O3_2 O 0.61235(5) 0.58802(9) 0.13517(28)
O3F O 0.64234(10) 0.72098(5) 0.46850(28)
O3I_2 O 0.38765(5) 0.41198(9) 1.86483(28)
O3O O 0.35766(10) 0.27902(5) 1.53150(28)
O4I O 0.45754(25) 0.33970(23) 1.78100(78)
O5 O 0.87449 0.36139 0.45732
loop_
_geom_bond_atom_site_label_1
_geom_bond_atom_site_label_2
_geom_bond_site_symmetry_1
_geom_bond_site_symmetry_2
C1 C2 1_555 1_555
C2 C3 1_555 1_555
C3 O3 1_555 1_555
C4 C2 1_555 1_555
H1 C4 1_555 1_555
Zn1 O1 1_555 1_555
O1 C1 1_555 1_555
O2 C1 1_555 1_555
O3 Zn1G 1_555 1_555
O4 Zn1 1_555 1_555
C1I C2I 1_555 1_555
C2I C3I 1_555 1_555
C3I C4 1_555 1_555
C4I C3 1_555 1_555
H1I C4I 1_555 1_555
Zn1I O1I 1_555 1_555
Zn1G O2 1_555 1_555
Zn1_2 O3 1_555 1_555
Zn1P O2I 1_555 1_555
Zn1I_2 O3I 1_555 1_555
O1I C1I 1_555 1_555
O2I C1I 1_555 1_555
O2F Zn1 1_555 1_555
O2O Zn1I 1_555 1_555
O3I C3I 1_555 1_555
O3_2 Zn1 1_555 1_555
O3F Zn1 1_555 1_555
O3I_2 Zn1I 1_555 1_555
O3O Zn1I 1_555 1_555
O4I Zn1I 1_555 1_555
C2I C4I 1_555 1_555
Zn1P O3I 1_555 1_555

#END
