
#######################################################################
#
#                 Cambridge Crystallographic Data Centre
#                                CCDC 
#
#######################################################################
#
# If this CIF has been generated from an entry in the Cambridge 
# Structural Database, then it will include bibliographic, chemical, 
# crystal, experimental, refinement or atomic coordinate data resulting 
# from the CCDC's data processing and validation procedures.
#
#######################################################################

data_WOBHIF02
_chemical_formula_moiety         '(C8 H2 O6 Zn2)n'
_symmetry_cell_setting           rhombohedral
_symmetry_space_group_name_H-M   'R -3'
_symmetry_Int_Tables_number      148
_space_group_name_Hall           '-R 3'
loop_
_symmetry_equiv_pos_site_id
_symmetry_equiv_pos_as_xyz
1 x,y,z
2 1/3+x,2/3+y,2/3+z
3 2/3+x,1/3+y,1/3+z
4 -y,x-y,z
5 -x+y,-x,z
6 2/3-y,1/3+x-y,1/3+z
7 2/3-x+y,1/3-x,1/3+z
8 1/3-y,2/3+x-y,2/3+z
9 1/3-x+y,2/3-x,2/3+z
10 -x,-y,-z
11 2/3-x,1/3-y,1/3-z
12 1/3-x,2/3-y,2/3-z
13 y,-x+y,-z
14 x-y,x,-z
15 1/3+y,2/3-x+y,2/3-z
16 1/3+x-y,2/3+x,2/3-z
17 2/3+y,1/3-x+y,1/3-z
18 2/3+x-y,1/3+x,1/3-z
_cell_length_a                   25.94301(32)
_cell_length_b                   25.94301(32)
_cell_length_c                   6.81968(56)
_cell_angle_alpha                90
_cell_angle_beta                 90
_cell_angle_gamma                120
_cell_volume                     3974.98
loop_
_atom_site_label
_atom_site_type_symbol
_atom_site_fract_x
_atom_site_fract_y
_atom_site_fract_z
_atom_site_U_iso_or_equiv
_atom_site_thermal_displace_type
C1 C 0.57970(6) 0.59088(6) 0.74556(12) 0.0190 Uiso
C2 C 0.54156(6) 0.54401(7) 0.87145(10) 0.0190 Uiso
C3 C 0.55665(3) 0.54498(4) 1.07104(9) 0.0190 Uiso
C4 C 0.48268(8) 0.50043(9) 0.80307(13) 0.0190 Uiso
H1 H 0.47180(21) 0.50087(26) 0.66717(36) 0.0190 Uiso
Zn1 Zn 0.61742(2) 0.64417(3) 0.36207(9) 0.0253 Uiso
O1 O 0.56073(7) 0.59558(6) 0.57917(16) 0.0253 Uiso
O2 O 0.62729(5) 0.63392(5) 0.81236(19) 0.0253 Uiso
O3 O 0.61216(3) 0.58800(6) 1.13893(16) 0.0253 Uiso
C1I C 0.42030(6) 0.40912(6) 1.25444(12) 0.0190 Uiso
C2I C 0.45844(6) 0.45599(7) 1.12855(10) 0.0190 Uiso
C3I C 0.44335(3) 0.45502(4) 0.92896(9) 0.0190 Uiso
C4I C 0.51732(8) 0.49957(9) 1.19693(13) 0.0190 Uiso
H1I H 0.52820(21) 0.49913(26) 1.33283(36) 0.0190 Uiso
Zn1I Zn 0.38258(2) 0.35583(3) 1.63793(9) 0.0253 Uiso
Zn1F Zn 0.69342(4) 0.71591(2) 0.69540(9) 0.0253 Uiso
Zn1G Zn 0.68916(3) 0.63992(4) 1.02874(9) 0.0253 Uiso
Zn1_2 Zn 0.61742(2) 0.64417(3) 1.36207(9) 0.0253 Uiso
Zn1P Zn 0.31084(3) 0.36008(4) 0.97126(9) 0.0253 Uiso
Zn1O Zn 0.30658(4) 0.28409(2) 1.30460(9) 0.0253 Uiso
Zn1I_2 Zn 0.38258(2) 0.35583(3) 0.63793(9) 0.0253 Uiso
O1I O 0.43927(7) 0.40442(6) 1.42083(16) 0.0253 Uiso
O2I O 0.37271(5) 0.36608(5) 1.18764(19) 0.0253 Uiso
O2F O 0.67330(7) 0.70604(5) 0.14569(19) 0.0253 Uiso
O2G O 0.69941(5) 0.66004(7) 0.47903(19) 0.0253 Uiso
O2P O 0.30059(5) 0.33996(7) 1.52097(19) 0.0253 Uiso
O2O O 0.32670(7) 0.29396(5) 1.85431(19) 0.0253 Uiso
O3I O 0.38784(3) 0.41200(6) 0.86107(16) 0.0253 Uiso
O3_2 O 0.61216(3) 0.58800(6) 0.13893(16) 0.0253 Uiso
O3F O 0.64251(7) 0.72117(3) 0.47226(16) 0.0253 Uiso
O3I_2 O 0.38784(3) 0.41200(6) 1.86107(16) 0.0253 Uiso
O3O O 0.35749(7) 0.27883(3) 1.52774(16) 0.0253 Uiso
loop_
_geom_bond_atom_site_label_1
_geom_bond_atom_site_label_2
_geom_bond_site_symmetry_1
_geom_bond_site_symmetry_2
C1 C2 1_555 1_555
C2 C3 1_555 1_555
C3 O3 1_555 1_555
C4 C2 1_555 1_555
H1 C4 1_555 1_555
Zn1 O1 1_555 1_555
O1 C1 1_555 1_555
O2 C1 1_555 1_555
O3 Zn1G 1_555 1_555
C1I C2I 1_555 1_555
C2I C3I 1_555 1_555
C3I C4 1_555 1_555
C4I C3 1_555 1_555
H1I C4I 1_555 1_555
Zn1I O1I 1_555 1_555
Zn1F O2 1_555 1_555
Zn1G O2 1_555 1_555
Zn1_2 O3 1_555 1_555
Zn1P O2I 1_555 1_555
Zn1O O2I 1_555 1_555
Zn1I_2 O3I 1_555 1_555
O1I C1I 1_555 1_555
O2I C1I 1_555 1_555
O2F Zn1 1_555 1_555
O2G Zn1 1_555 1_555
O2P Zn1I 1_555 1_555
O2O Zn1I 1_555 1_555
O3I C3I 1_555 1_555
O3_2 Zn1 1_555 1_555
O3F Zn1 1_555 1_555
O3I_2 Zn1I 1_555 1_555
O3O Zn1I 1_555 1_555
C2I C4I 1_555 1_555
Zn1F O2G 1_555 1_555
Zn1F O3F 1_555 1_555
Zn1P O3I 1_555 1_555
Zn1O O2P 1_555 1_555
Zn1O O3O 1_555 1_555

#END
