
#######################################################################
#
#                 Cambridge Crystallographic Data Centre
#                                CCDC 
#
#######################################################################
#
# If this CIF has been generated from an entry in the Cambridge 
# Structural Database, then it will include bibliographic, chemical, 
# crystal, experimental, refinement or atomic coordinate data resulting 
# from the CCDC's data processing and validation procedures.
#
#######################################################################

data_WOBHEB
_chemical_formula_moiety         '(C8 H14 O12 Zn2)n'
_symmetry_cell_setting           rhombohedral
_symmetry_space_group_name_H-M   'R -3'
_symmetry_Int_Tables_number      148
_space_group_name_Hall           '-R 3'
loop_
_symmetry_equiv_pos_site_id
_symmetry_equiv_pos_as_xyz
1 x,y,z
2 -y,x-y,z
3 -x+y,-x,z
4 2/3+x,1/3+y,1/3+z
5 2/3-y,1/3+x-y,1/3+z
6 2/3-x+y,1/3-x,1/3+z
7 1/3+x,2/3+y,2/3+z
8 1/3-y,2/3+x-y,2/3+z
9 1/3-x+y,2/3-x,2/3+z
10 -x,-y,-z
11 y,-x+y,-z
12 x-y,x,-z
13 1/3-x,2/3-y,2/3-z
14 1/3+y,2/3-x+y,2/3-z
15 1/3+x-y,2/3+x,2/3-z
16 2/3-x,1/3-y,1/3-z
17 2/3+y,1/3-x+y,1/3-z
18 2/3+x-y,1/3+x,1/3-z
_cell_length_a                   26.259(3)
_cell_length_b                   26.259(3)
_cell_length_c                   6.6693(15)
_cell_angle_alpha                90
_cell_angle_beta                 90
_cell_angle_gamma                120
_cell_volume                     3982.61
loop_
_atom_site_label
_atom_site_type_symbol
_atom_site_fract_x
_atom_site_fract_y
_atom_site_fract_z
Zn1 Zn 0.650552(18) 0.612106(19) 0.65507(6)
C1 C 0.59635(15) 0.57894(15) 0.2615(5)
C2 C 0.54707(15) 0.54048(15) 0.1212(5)
C3 C 0.50280(16) 0.48631(16) 0.1963(5)
C4 C 0.54341(15) 0.55452(15) -0.0822(5)
O1 O 0.59659(11) 0.55953(11) 0.4335(3)
O2 O 0.63616(11) 0.62866(12) 0.2026(4)
O3 O 0.58319(10) 0.60655(10) -0.1710(3)
O4 O 0.65782(17) 0.54430(16) 0.8006(5)
H1 H 0.5039(15) 0.4770(15) 0.344(5)
H2 H 0.629(2) 0.5122(16) 0.801(11)
H3 H 0.670(2) 0.549(2) 0.917(4)
Zn1I Zn 0.349448(18) 0.387894(19) -0.65507(6)
Zn1E Zn 0.628221(26) 0.682781(18) -0.01160(6)
Zn1G Zn 0.721227(19) 0.705113(26) 0.32174(6)
Zn1_2 Zn 0.650552(18) 0.612106(19) -0.34493(6)
Zn1P Zn 0.278773(19) 0.294887(26) -0.32174(6)
Zn1N Zn 0.371779(26) 0.317219(18) 0.01160(6)
Zn1I_2 Zn 0.349448(18) 0.387894(19) 0.34493(6)
C1I C 0.40365(15) 0.42106(15) -0.2615(5)
C2I C 0.45293(15) 0.45952(15) -0.1212(5)
C3I C 0.49720(16) 0.51369(16) -0.1963(5)
C4I C 0.45659(15) 0.44548(15) 0.0822(5)
O1I O 0.40341(11) 0.44047(11) -0.4335(3)
O2I O 0.36384(11) 0.37134(12) -0.2026(4)
O2E O 0.65917(16) 0.69717(11) 0.5359(4)
O2G O 0.70467(12) 0.67417(16) 0.8693(4)
O2P O 0.29533(12) 0.32583(16) -0.8693(4)
O2N O 0.34083(16) 0.30283(11) -0.5359(4)
O3I O 0.41681(10) 0.39345(10) 0.1710(3)
O3_2 O 0.58319(10) 0.60655(10) 0.8290(3)
O3G O 0.72678(10) 0.64331(14) 0.4957(3)
O3P O 0.27322(10) 0.35669(14) -0.4957(3)
O3I_2 O 0.41681(10) 0.39345(10) -0.8290(3)
O4I O 0.34218(17) 0.45570(16) -0.8006(5)
H1I H 0.4961(15) 0.5230(15) -0.344(5)
H2I H 0.371(2) 0.4878(16) -0.801(11)
H3I H 0.330(2) 0.451(2) -0.917(4)
O5 O 0.6980 0.5510 0.1939
H4 H 0.7090 0.5819 0.2582
H5 H 0.6689 0.5203 0.2356
O6 O 0.7518 0.5145 0.7486
O7 O 0.7777 0.5088 0.2605
O8 O 0.6927 0.3977 0.0588
loop_
_geom_bond_atom_site_label_1
_geom_bond_atom_site_label_2
_geom_bond_site_symmetry_1
_geom_bond_site_symmetry_2
Zn1 O1 1_555 1_555
C1 C2 1_555 1_555
C2 C3 1_555 1_555
C3 H1 1_555 1_555
C4 C2 1_555 1_555
O1 C1 1_555 1_555
O2 C1 1_555 1_555
O3 C4 1_555 1_555
O4 Zn1 1_555 1_555
H2 O4 1_555 1_555
H3 O4 1_555 1_555
O5 H4 1_555 1_555
H5 O5 1_555 1_555
Zn1I O1I 1_555 1_555
Zn1E O2 1_555 1_555
Zn1G O2 1_555 1_555
Zn1_2 O3 1_555 1_555
Zn1P O2I 1_555 1_555
Zn1N O2I 1_555 1_555
Zn1I_2 O3I 1_555 1_555
C1I C2I 1_555 1_555
C2I C3I 1_555 1_555
C3I C4 1_555 1_555
C4I C3 1_555 1_555
O1I C1I 1_555 1_555
O2I C1I 1_555 1_555
O2E Zn1 1_555 1_555
O2G Zn1 1_555 1_555
O2P Zn1I 1_555 1_555
O2N Zn1I 1_555 1_555
O3I Zn1N 1_555 1_555
O3_2 Zn1 1_555 1_555
O3G Zn1 1_555 1_555
O3P Zn1I 1_555 1_555
O3I_2 Zn1I 1_555 1_555
O4I Zn1I 1_555 1_555
H1I C3I 1_555 1_555
H2I O4I 1_555 1_555
H3I O4I 1_555 1_555
O3 Zn1E 1_555 1_555
Zn1G O2E 1_555 1_555
Zn1G O3G 1_555 1_555
Zn1P O2N 1_555 1_555
Zn1P O3P 1_555 1_555
C2I C4I 1_555 1_555
C4I O3I 1_555 1_555

#END
