
#######################################################################
#
#                 Cambridge Crystallographic Data Centre
#                                CCDC 
#
#######################################################################
#
# If this CIF has been generated from an entry in the Cambridge 
# Structural Database, then it will include bibliographic, chemical, 
# crystal, experimental, refinement or atomic coordinate data resulting 
# from the CCDC's data processing and validation procedures.
#
#######################################################################

data_WOBHEB01
_chemical_formula_moiety         '(C8 H14 O12 Zn2)n'
_symmetry_cell_setting           rhombohedral
_symmetry_space_group_name_H-M   'R -3'
_symmetry_Int_Tables_number      148
_space_group_name_Hall           '-R 3'
loop_
_symmetry_equiv_pos_site_id
_symmetry_equiv_pos_as_xyz
1 x,y,z
2 1/3+x,2/3+y,2/3+z
3 2/3+x,1/3+y,1/3+z
4 -y,x-y,z
5 -x+y,-x,z
6 2/3-y,1/3+x-y,1/3+z
7 2/3-x+y,1/3-x,1/3+z
8 1/3-y,2/3+x-y,2/3+z
9 1/3-x+y,2/3-x,2/3+z
10 -x,-y,-z
11 2/3-x,1/3-y,1/3-z
12 1/3-x,2/3-y,2/3-z
13 y,-x+y,-z
14 x-y,x,-z
15 1/3+y,2/3-x+y,2/3-z
16 1/3+x-y,2/3+x,2/3-z
17 2/3+y,1/3-x+y,1/3-z
18 2/3+x-y,1/3+x,1/3-z
_cell_length_a                   26.20697(85)
_cell_length_b                   26.20697(85)
_cell_length_c                   6.64670(23)
_cell_angle_alpha                90
_cell_angle_beta                 90
_cell_angle_gamma                120
_cell_volume                     3953.4
loop_
_atom_site_label
_atom_site_type_symbol
_atom_site_fract_x
_atom_site_fract_y
_atom_site_fract_z
C1 C 0.57911(5) 0.59307(5) 0.74930(16)
C2 C 0.53991(5) 0.54716(7) 0.87680(15)
C3 C 0.55706(4) 0.54201(6) 1.07374(13)
C4 C 0.48096(4) 0.50630(7) 0.80688(15)
H1 H 0.46860(22) 0.51146(34) 0.67461(83)
Zn1 Zn 0.61208(2) 0.64917(2) 0.34701(7)
O1 O 0.56077(6) 0.60071(5) 0.58188(15)
O2 O 0.62759(4) 0.63356(4) 0.81862(22)
O3 O 0.60978(3) 0.58605(5) 1.15332(18)
O4 O 0.54626(9) 0.66235(10) 0.19503(27)
C1I C 0.42089(5) 0.40693(5) 1.25070(16)
C2I C 0.46009(5) 0.45284(7) 1.12320(15)
C3I C 0.44294(4) 0.45799(6) 0.92626(13)
C4I C 0.51904(4) 0.49370(7) 1.19312(15)
H1I H 0.53140(22) 0.48854(34) 1.32539(83)
Zn1I Zn 0.38792(2) 0.35083(2) 1.65299(7)
Zn1F Zn 0.70376(3) 0.72125(2) 0.68034(7)
Zn1G Zn 0.68416(2) 0.62958(3) 1.01368(7)
Zn1_2 Zn 0.61208(2) 0.64917(2) 1.34701(7)
Zn1P Zn 0.31584(2) 0.37042(3) 0.98632(7)
Zn1O Zn 0.29624(3) 0.27875(2) 1.31966(7)
Zn1I_2 Zn 0.38792(2) 0.35083(2) 0.65299(7)
O1I O 0.43923(6) 0.39929(5) 1.41812(15)
O2I O 0.37241(4) 0.36644(4) 1.18138(22)
O2F O 0.67264(6) 0.70574(4) 0.15195(22)
O2G O 0.69977(4) 0.66070(6) 0.48529(22)
O2P O 0.30023(4) 0.33930(6) 1.51471(22)
O2O O 0.32736(6) 0.29426(4) 1.84805(22)
O3I O 0.39022(3) 0.41395(5) 0.84668(18)
O3_2 O 0.60978(3) 0.58605(5) 0.15332(18)
O3F O 0.64294(6) 0.72355(3) 0.48665(18)
O3I_2 O 0.39022(3) 0.41395(5) 1.84668(18)
O3O O 0.35706(6) 0.27645(3) 1.51335(18)
O4I O 0.45374(9) 0.33765(10) 1.80497(27)
O5 O 0.72445(12) 0.50435(10) 0.28931(43)
O6 O 0.08013(11) 0.06120(8) 0.21871(37)
O7 O 0.88737(8) 0.36643(9) 0.41762(24)
O8 O 0.43538(12) 0.83666(12) 0.16136(42)
loop_
_geom_bond_atom_site_label_1
_geom_bond_atom_site_label_2
_geom_bond_site_symmetry_1
_geom_bond_site_symmetry_2
C1 C2 1_555 1_555
C2 C3 1_555 1_555
C3 O3 1_555 1_555
C4 C2 1_555 1_555
H1 C4 1_555 1_555
Zn1 O1 1_555 1_555
O1 C1 1_555 1_555
O2 C1 1_555 1_555
O3 Zn1G 1_555 1_555
O4 Zn1 1_555 1_555
C1I C2I 1_555 1_555
C2I C3I 1_555 1_555
C3I C4 1_555 1_555
C4I C3 1_555 1_555
H1I C4I 1_555 1_555
Zn1I O1I 1_555 1_555
Zn1F O2 1_555 1_555
Zn1G O2 1_555 1_555
Zn1_2 O3 1_555 1_555
Zn1P O2I 1_555 1_555
Zn1O O2I 1_555 1_555
Zn1I_2 O3I 1_555 1_555
O1I C1I 1_555 1_555
O2I C1I 1_555 1_555
O2F Zn1 1_555 1_555
O2G Zn1 1_555 1_555
O2P Zn1I 1_555 1_555
O2O Zn1I 1_555 1_555
O3I C3I 1_555 1_555
O3_2 Zn1 1_555 1_555
O3F Zn1 1_555 1_555
O3I_2 Zn1I 1_555 1_555
O3O Zn1I 1_555 1_555
O4I Zn1I 1_555 1_555
C2I C4I 1_555 1_555
Zn1F O2G 1_555 1_555
Zn1F O3F 1_555 1_555
Zn1P O3I 1_555 1_555
Zn1O O2P 1_555 1_555
Zn1O O3O 1_555 1_555

#END
