
#######################################################################
#
#                 Cambridge Crystallographic Data Centre
#                                CCDC 
#
#######################################################################
#
# If this CIF has been generated from an entry in the Cambridge 
# Structural Database, then it will include bibliographic, chemical, 
# crystal, experimental, refinement or atomic coordinate data resulting 
# from the CCDC's data processing and validation procedures.
#
#######################################################################

data_WOBHIF
_chemical_formula_moiety         '(C8 H2 O6 Zn2)n'
_symmetry_cell_setting           rhombohedral
_symmetry_space_group_name_H-M   'R -3'
_symmetry_Int_Tables_number      148
_space_group_name_Hall           '-R 3'
loop_
_symmetry_equiv_pos_site_id
_symmetry_equiv_pos_as_xyz
1 x,y,z
2 -y,x-y,z
3 -x+y,-x,z
4 2/3+x,1/3+y,1/3+z
5 2/3-y,1/3+x-y,1/3+z
6 2/3-x+y,1/3-x,1/3+z
7 1/3+x,2/3+y,2/3+z
8 1/3-y,2/3+x-y,2/3+z
9 1/3-x+y,2/3-x,2/3+z
10 -x,-y,-z
11 y,-x+y,-z
12 x-y,x,-z
13 1/3-x,2/3-y,2/3-z
14 1/3+y,2/3-x+y,2/3-z
15 1/3+x-y,2/3+x,2/3-z
16 2/3-x,1/3-y,1/3-z
17 2/3+y,1/3-x+y,1/3-z
18 2/3+x-y,1/3+x,1/3-z
_cell_length_a                   25.87(4)
_cell_length_b                   25.87(4)
_cell_length_c                   6.628(19)
_cell_angle_alpha                90
_cell_angle_beta                 90
_cell_angle_gamma                120
_cell_volume                     3841.55
loop_
_atom_site_label
_atom_site_type_symbol
_atom_site_fract_x
_atom_site_fract_y
_atom_site_fract_z
Zn1 Zn 0.95128(11) 0.63763(11) 0.0210(4)
O1 O 0.9783(6) 0.5867(5) 0.156(2)
O2 O 1.0345(6) 0.5940(7) -0.440(2)
O3 O 0.9982(7) 0.6281(6) -0.219(2)
C1 C 0.9827(8) 0.4995(11) 0.192(3)
H1 H 0.9698 0.4977 0.3243
C2 C 1.0052(10) 0.5448(9) -0.122(4)
C3 C 0.9893(9) 0.5444(9) 0.072(5)
C4 C 1.0160(9) 0.5912(9) -0.266(4)
Zn1I Zn 1.04872(11) 0.36237(11) -0.0210(4)
Zn1D Zn 1.02904(11) 0.64698(16) 0.3543(4)
Zn1D_2 Zn 1.02904(11) 0.64698(16) -0.6457(4)
Zn1H Zn 1.01968(16) 0.71539(11) -0.3123(4)
Zn1M Zn 0.97096(11) 0.35302(16) -0.3543(4)
Zn1M_2 Zn 0.97096(11) 0.35302(16) 0.6457(4)
Zn1Q Zn 0.98032(16) 0.28461(11) 0.3123(4)
O1I O 1.0217(6) 0.4133(5) -0.156(2)
O1H O 0.9417(8) 0.6884(6) -0.177(2)
O1Q O 1.0583(8) 0.3116(6) 0.177(2)
O2I O 0.9655(6) 0.4060(7) 0.440(2)
O2H O 0.8928(9) 0.6322(6) 0.227(2)
O2Q O 1.1072(9) 0.3678(6) -0.227(2)
O3I O 1.0018(7) 0.3719(6) 0.219(2)
O3D O 1.0386(6) 0.7034(9) 0.114(2)
O3M O 0.9614(6) 0.2966(9) -0.114(2)
C1I C 1.0173(8) 0.5005(11) -0.192(3)
H1I H 1.0302 0.5023 -0.3243
C2I C 0.9948(10) 0.4552(9) 0.122(4)
C3I C 1.0107(9) 0.4556(9) -0.072(5)
C4I C 0.9840(9) 0.4088(9) 0.266(4)
loop_
_geom_bond_atom_site_label_1
_geom_bond_atom_site_label_2
_geom_bond_site_symmetry_1
_geom_bond_site_symmetry_2
Zn1 O1 1_555 1_555
O1 C3 1_555 1_555
O2 C4 1_555 1_555
O3 Zn1 1_555 1_555
C1 H1 1_555 1_555
C2 C3 1_555 1_555
C3 C1 1_555 1_555
C4 O3 1_555 1_555
Zn1I O1I 1_555 1_555
Zn1D O1 1_555 1_555
Zn1D_2 O2 1_555 1_555
Zn1H O3 1_555 1_555
Zn1M O1I 1_555 1_555
Zn1M_2 O2I 1_555 1_555
Zn1Q O1Q 1_555 1_555
O1I C3I 1_555 1_555
O1H Zn1 1_555 1_555
O1Q Zn1I 1_555 1_555
O2I C4I 1_555 1_555
O2H Zn1 1_555 1_555
O2Q Zn1I 1_555 1_555
O3I Zn1I 1_555 1_555
O3D Zn1 1_555 1_555
O3M Zn1I 1_555 1_555
C1I C2 1_555 1_555
H1I C1I 1_555 1_555
C2I C1 1_555 1_555
C3I C1I 1_555 1_555
C4I O3I 1_555 1_555
C2 C4 1_555 1_555
Zn1D O3D 1_555 1_555
Zn1H O1H 1_555 1_555
Zn1M O3M 1_555 1_555
Zn1Q O3I 1_555 1_555
C2I C3I 1_555 1_555
C2I C4I 1_555 1_555

#END
