
#######################################################################
#
#                 Cambridge Crystallographic Data Centre
#                                CCDC 
#
#######################################################################
#
# If this CIF has been generated from an entry in the Cambridge 
# Structural Database, then it will include bibliographic, chemical, 
# crystal, experimental, refinement or atomic coordinate data resulting 
# from the CCDC's data processing and validation procedures.
#
#######################################################################

data_NUNNUH
_chemical_formula_moiety         '(C26 H27 N2 Ni1 O14 1-)n'
_symmetry_cell_setting           tetragonal
_symmetry_space_group_name_H-M   'P 41 21 2'
_symmetry_Int_Tables_number      92
_space_group_name_Hall           'P 4abw 2nw'
loop_
_symmetry_equiv_pos_site_id
_symmetry_equiv_pos_as_xyz
1 x,y,z
2 -x,-y,1/2+z
3 1/2+x,1/2-y,3/4-z
4 1/2-x,1/2+y,1/4-z
5 -y,-x,1/2-z
6 y,x,-z
7 1/2+y,1/2-x,3/4+z
8 1/2-y,1/2+x,1/4+z
_cell_length_a                   11.1813(4)
_cell_length_b                   11.1813(4)
_cell_length_c                   31.5520(13)
_cell_angle_alpha                90
_cell_angle_beta                 90
_cell_angle_gamma                90
_cell_volume                     3944.68
loop_
_atom_site_label
_atom_site_type_symbol
_atom_site_fract_x
_atom_site_fract_y
_atom_site_fract_z
_atom_site_U_iso_or_equiv
_atom_site_thermal_displace_type
Ni1 Ni 1.300509(18) 0.699491(18) 0.7500 0.0091 Uani
C1 C 1.08804(15) 0.86952(15) 0.65144(5) 0.0133 Uani
C2 C 1.10120(15) 0.95329(16) 0.61925(5) 0.0130 Uani
H1 H 1.1756 0.9880 0.6146 0.0160 Uiso
C3 C 1.00444(15) 0.98601(15) 0.59386(5) 0.0127 Uani
C4 C 0.89318(15) 0.93447(16) 0.60082(5) 0.0146 Uani
H2 H 0.8278 0.9575 0.5846 0.0170 Uiso
C5 C 0.87993(16) 0.84763(16) 0.63244(5) 0.0157 Uani
C6 C 0.97692(15) 0.81608(16) 0.65762(5) 0.0140 Uani
H3 H 0.9675 0.7589 0.6788 0.0170 Uiso
C7 C 1.19298(16) 0.84175(15) 0.68010(5) 0.0136 Uani
C8 C 1.02493(15) 1.07796(15) 0.55959(5) 0.0120 Uani
C9 C 0.75935(15) 0.79186(17) 0.63906(5) 0.0176 Uani
O1 O 1.17961(10) 0.75733(11) 0.70607(4) 0.0150 Uani
O2 O 1.42976(12) 0.82716(11) 0.73439(4) 0.0129 Uani
H4 H 1.388(2) 0.860(2) 0.7137(8) 0.0370 Uiso
H5 H 1.479(3) 0.785(3) 0.7219(8) 0.0450 Uiso
O3 O 1.28413(11) 0.90650(12) 0.67608(4) 0.0206 Uani
O4 O 1.12936(10) 1.08488(11) 0.54518(4) 0.0136 Uani
O5 O 0.93786(11) 1.14247(12) 0.54787(4) 0.0157 Uani
O6 O 0.67146(11) 0.81857(14) 0.61893(4) 0.0285 Uani
O7 O 0.76090(12) 0.71043(13) 0.66939(4) 0.0241 Uani
H6 H 0.686(3) 0.683(3) 0.6765(9) 0.0580 Uiso
C1D C 1.13048(15) 0.91196(15) 0.84856(5) 0.0133 Uani
C2D C 1.04671(16) 0.89880(15) 0.88075(5) 0.0130 Uani
H1D H 1.0120 0.8244 0.8854 0.0160 Uiso
C3D C 1.01399(15) 0.99556(15) 0.90614(5) 0.0127 Uani
C4D C 1.06553(16) 1.10682(15) 0.89918(5) 0.0146 Uani
H2D H 1.0425 1.1722 0.9154 0.0170 Uiso
C5D C 1.15237(16) 1.12007(16) 0.86756(5) 0.0157 Uani
C6D C 1.18392(16) 1.02308(15) 0.84238(5) 0.0140 Uani
H3D H 1.2411 1.0325 0.8212 0.0170 Uiso
C7D C 1.15825(15) 0.80702(16) 0.81990(5) 0.0136 Uani
C8D C 0.92204(15) 0.97507(15) 0.94041(5) 0.0120 Uani
C9D C 1.20814(17) 1.24065(15) 0.86094(5) 0.0176 Uani
O1D O 1.24267(11) 0.82039(10) 0.79393(4) 0.0150 Uani
O2D O 1.17284(11) 0.57024(12) 0.76561(4) 0.0129 Uani
H4D H 1.140(2) 0.612(2) 0.7863(8) 0.0370 Uiso
H5D H 1.215(3) 0.521(3) 0.7781(8) 0.0450 Uiso
O3D O 1.09350(12) 0.71587(11) 0.82392(4) 0.0206 Uani
O4D O 0.91512(11) 0.87064(10) 0.95482(4) 0.0136 Uani
O5D O 0.85753(12) 1.06214(11) 0.95213(4) 0.0157 Uani
O6D O 1.18143(14) 1.32854(11) 0.88107(4) 0.0285 Uani
O7D O 1.28957(13) 1.23910(12) 0.83061(4) 0.0241 Uani
H6D H 1.317(3) 1.314(3) 0.8235(9) 0.0580 Uiso
Ni1B Ni 0.800509(18) 0.800509(18) 1.0000 0.0091 Uani
Ni1C Ni 1.199491(18) 1.199491(18) 0.5000 0.0091 Uani
O4C O 1.37064(10) 0.58488(11) 0.70482(4) 0.0136 Uani
O4G O 1.41512(11) 0.62936(10) 0.79518(4) 0.0136 Uani
N1 N 1.37503(15) 0.86306(15) 0.56852(5) 0.0215 Uani
N2 N 1.24794(16) 0.74042(15) 0.54078(5) 0.0240 Uani
C10 C 1.43032(19) 0.97489(18) 0.58282(6) 0.0263 Uani
H7 H 1.3873 1.0416 0.5712 0.0400 Uiso
H8 H 1.5119 0.9777 0.5734 0.0400 Uiso
H9 H 1.4280 0.9787 0.6132 0.0400 Uiso
C11 C 1.27600(17) 0.85456(17) 0.54563(6) 0.0195 Uani
H10 H 1.2330 0.9187 0.5347 0.0230 Uiso
C12 C 1.4123(2) 0.7496(2) 0.57878(9) 0.0414 Uani
H11 H 1.4792 0.7295 0.5947 0.0500 Uiso
C13 C 1.3335(2) 0.6735(2) 0.56141(8) 0.0454 Uani
H12 H 1.3363 0.5905 0.5630 0.0540 Uiso
C14 C 1.14210(19) 0.6938(2) 0.51844(6) 0.0287 Uani
H13 H 1.1656 0.6251 0.5016 0.0340 Uiso
H14 H 1.1127 0.7547 0.4991 0.0340 Uiso
C15 C 1.04235(19) 0.6577(2) 0.54792(6) 0.0273 Uani
H15 H 1.0197 0.7256 0.5653 0.0330 Uiso
H16 H 1.0702 0.5947 0.5666 0.0330 Uiso
C16 C 0.9337(2) 0.6138(2) 0.52337(8) 0.0366 Uani
H17 H 0.9037 0.6788 0.5060 0.0440 Uiso
H18 H 0.9586 0.5500 0.5045 0.0440 Uiso
C17 C 0.8339(3) 0.5685(4) 0.55100(11) 0.0755 Uani
H19 H 0.7688 0.5422 0.5335 0.1130 Uiso
H20 H 0.8071 0.6317 0.5693 0.1130 Uiso
H21 H 0.8622 0.5028 0.5678 0.1130 Uiso
loop_
_atom_site_aniso_label
_atom_site_aniso_U_11
_atom_site_aniso_U_22
_atom_site_aniso_U_33
_atom_site_aniso_U_23
_atom_site_aniso_U_13
_atom_site_aniso_U_12
Ni1 0.00961(10) 0.00961(10) 0.00821(13) -0.00008(8) -0.00008(8) -0.00055(12)
C1 0.0137(9) 0.0142(9) 0.0121(8) -0.0010(7) -0.0002(7) 0.0022(7)
C2 0.0100(8) 0.0147(9) 0.0142(8) -0.0006(7) 0.0018(7) -0.0004(7)
C3 0.0143(9) 0.0123(9) 0.0116(7) 0.0005(7) 0.0015(7) 0.0024(6)
C4 0.0115(8) 0.0176(9) 0.0147(8) 0.0012(7) -0.0012(7) 0.0027(7)
C5 0.0138(9) 0.0170(9) 0.0163(8) -0.0010(7) 0.0016(7) 0.0004(7)
C6 0.0161(8) 0.0147(9) 0.0113(8) 0.0034(7) 0.0013(7) 0.0003(7)
C7 0.0132(8) 0.0149(8) 0.0127(7) -0.0005(6) 0.0013(7) 0.0017(7)
C8 0.0137(9) 0.0124(8) 0.0098(8) -0.0010(7) -0.0008(7) 0.0001(7)
C9 0.0153(9) 0.0208(9) 0.0167(8) 0.0015(8) 0.0009(7) 0.0003(8)
O1 0.0134(6) 0.0169(6) 0.0147(6) 0.0056(5) -0.0022(5) -0.0020(5)
O2 0.0132(6) 0.0117(7) 0.0137(6) 0.0008(5) -0.0005(5) -0.0004(5)
O3 0.0146(7) 0.0233(7) 0.0239(6) 0.0107(5) -0.0060(6) -0.0057(5)
O4 0.0110(6) 0.0153(6) 0.0145(6) 0.0035(5) 0.0011(5) 0.0020(5)
O5 0.0123(6) 0.0182(6) 0.0165(6) 0.0041(5) 0.0009(5) 0.0042(5)
O6 0.0151(7) 0.0369(9) 0.0334(8) 0.0138(7) -0.0060(6) -0.0037(6)
O7 0.0142(6) 0.0308(8) 0.0273(7) 0.0147(6) 0.0003(5) -0.0046(6)
C1D 0.0142 0.0137 0.0121 -0.0002 -0.001 0.0022
C2D 0.0147 0.01 0.0142 0.0018 -0.0006 -0.0004
C3D 0.0123 0.0143 0.0116 0.0015 0.0005 0.0024
C4D 0.0176 0.0115 0.0147 -0.0012 0.0012 0.0027
C5D 0.017 0.0138 0.0163 0.0016 -0.001 0.0004
C6D 0.0147 0.0161 0.0113 0.0013 0.0034 0.0003
C7D 0.0149 0.0132 0.0127 0.0013 -0.0005 0.0017
C8D 0.0124 0.0137 0.0098 -0.0008 -0.001 0.0001
C9D 0.0208 0.0153 0.0167 0.0009 0.0015 0.0003
O1D 0.0169 0.0134 0.0147 -0.0022 0.0056 -0.002
O2D 0.0117 0.0132 0.0137 -0.0005 0.0008 -0.0004
O3D 0.0233 0.0146 0.0239 -0.006 0.0107 -0.0057
O4D 0.0153 0.011 0.0145 0.0011 0.0035 0.002
O5D 0.0182 0.0123 0.0165 0.0009 0.0041 0.0042
O6D 0.0369 0.0151 0.0334 -0.006 0.0138 -0.0037
O7D 0.0308 0.0142 0.0273 0.0003 0.0147 -0.0046
Ni1B 0.00961 0.00961 0.00821 -8e-05 8e-05 0.00055
Ni1C 0.00961 0.00961 0.00821 8e-05 -8e-05 0.00055
O4C 0.011 0.0153 0.0145 -0.0035 0.0011 -0.002
O4G 0.0153 0.011 0.0145 0.0011 -0.0035 -0.002
N1 0.0228(9) 0.0192(8) 0.0224(8) 0.0038(7) -0.0002(7) 0.0021(7)
N2 0.0263(9) 0.0218(9) 0.0239(8) 0.0062(7) -0.0044(7) 0.0011(7)
C10 0.0290(11) 0.0226(11) 0.0274(10) 0.0008(9) 0.0026(9) -0.0026(9)
C11 0.0216(10) 0.0194(9) 0.0174(9) 0.0052(7) 0.0055(7) 0.0052(8)
C12 0.0404(14) 0.0247(11) 0.0592(16) 0.0092(11) -0.0259(13) 0.0032(11)
C13 0.0531(16) 0.0192(12) 0.0638(16) 0.0080(11) -0.0269(13) 0.0045(10)
C14 0.0323(11) 0.0349(11) 0.0189(9) 0.0029(9) -0.0037(8) -0.0041(10)
C15 0.0323(12) 0.0248(11) 0.0248(10) -0.0049(9) 0.0040(9) 0.0016(9)
C16 0.0338(13) 0.0312(12) 0.0447(14) -0.0030(11) -0.0019(11) 0.0010(10)
C17 0.0506(19) 0.097(3) 0.079(2) -0.025(2) 0.0225(17) -0.0290(18)
loop_
_geom_bond_atom_site_label_1
_geom_bond_atom_site_label_2
_geom_bond_site_symmetry_1
_geom_bond_site_symmetry_2
Ni1 O1 1_555 1_555
C1 C2 1_555 1_555
C2 H1 1_555 1_555
C3 C2 1_555 1_555
C4 C3 1_555 1_555
H2 C4 1_555 1_555
C5 C4 1_555 1_555
C6 C1 1_555 1_555
H3 C6 1_555 1_555
C7 C1 1_555 1_555
C8 C3 1_555 1_555
C9 C5 1_555 1_555
O1 C7 1_555 1_555
O2 Ni1 1_555 1_555
H4 O2 1_555 1_555
H5 O2 1_555 1_555
O3 C7 1_555 1_555
O4 C8 1_555 1_555
O5 C8 1_555 1_555
O6 C9 1_555 1_555
O7 C9 1_555 1_555
H6 O7 1_555 1_555
N1 C10 1_555 1_555
N2 C11 1_555 1_555
C10 H7 1_555 1_555
H8 C10 1_555 1_555
H9 C10 1_555 1_555
C11 N1 1_555 1_555
H10 C11 1_555 1_555
C12 N1 1_555 1_555
H11 C12 1_555 1_555
C13 N2 1_555 1_555
H12 C13 1_555 1_555
C14 N2 1_555 1_555
H13 C14 1_555 1_555
H14 C14 1_555 1_555
C15 C14 1_555 1_555
H15 C15 1_555 1_555
H16 C15 1_555 1_555
C16 C15 1_555 1_555
H17 C16 1_555 1_555
H18 C16 1_555 1_555
C17 C16 1_555 1_555
H19 C17 1_555 1_555
H20 C17 1_555 1_555
H21 C17 1_555 1_555
C1D C2D 1_555 1_555
C2D H1D 1_555 1_555
C3D C2D 1_555 1_555
C4D C3D 1_555 1_555
H2D C4D 1_555 1_555
C5D C4D 1_555 1_555
C6D C1D 1_555 1_555
H3D C6D 1_555 1_555
C7D C1D 1_555 1_555
C8D C3D 1_555 1_555
C9D C5D 1_555 1_555
O1D Ni1 1_555 1_555
O2D Ni1 1_555 1_555
H4D O2D 1_555 1_555
H5D O2D 1_555 1_555
O3D C7D 1_555 1_555
O4D C8D 1_555 1_555
O5D C8D 1_555 1_555
O6D C9D 1_555 1_555
O7D C9D 1_555 1_555
H6D O7D 1_555 1_555
Ni1B O4D 1_555 1_555
Ni1C O4 1_555 1_555
O4C Ni1 1_555 1_555
O4G Ni1 1_555 1_555
C5 C6 1_555 1_555
C12 C13 1_555 1_555
C5D C6D 1_555 1_555
C7D O1D 1_555 1_555

#END
