
#######################################################################
#
#                 Cambridge Crystallographic Data Centre
#                                CCDC 
#
#######################################################################
#
# If this CIF has been generated from an entry in the Cambridge 
# Structural Database, then it will include bibliographic, chemical, 
# crystal, experimental, refinement or atomic coordinate data resulting 
# from the CCDC's data processing and validation procedures.
#
#######################################################################

data_NUNPAP
_chemical_formula_moiety         '(C26 H27 N2 Ni1 O14 1-)n'
_symmetry_cell_setting           tetragonal
_symmetry_space_group_name_H-M   'P 43 21 2'
_symmetry_Int_Tables_number      96
_space_group_name_Hall           'P 4nw 2abw'
loop_
_symmetry_equiv_pos_site_id
_symmetry_equiv_pos_as_xyz
1 x,y,z
2 -x,-y,1/2+z
3 1/2+x,1/2-y,1/4-z
4 1/2-x,1/2+y,3/4-z
5 -y,-x,1/2-z
6 y,x,-z
7 1/2+y,1/2-x,1/4+z
8 1/2-y,1/2+x,3/4+z
_cell_length_a                   11.1918(16)
_cell_length_b                   11.1918(16)
_cell_length_c                   31.561(6)
_cell_angle_alpha                90
_cell_angle_beta                 90
_cell_angle_gamma                90
_cell_volume                     3953.22
loop_
_atom_site_label
_atom_site_type_symbol
_atom_site_fract_x
_atom_site_fract_y
_atom_site_fract_z
Ni1 Ni -0.19934(3) -0.19934(3) 0.0000
O1 O 0.09362(19) -0.28421(18) 0.17613(6)
O2 O 0.24233(17) -0.17939(16) 0.20618(6)
O3 O -0.14289(18) 0.06167(17) 0.04810(6)
O4 O -0.32710(16) -0.06992(17) 0.01604(5)
O5 O -0.08475(17) -0.12941(16) 0.04521(6)
O6 O 0.2892(2) 0.23950(18) 0.16936(7)
O7 O 0.1800(2) 0.32798(19) 0.11923(8)
C1 C 0.0464(2) -0.1015(2) 0.11942(8)
H1 H 0.0119 -0.1759 0.1147
C2 C 0.0135(2) -0.0050(2) 0.09400(7)
C3 C 0.0646(3) 0.1068(2) 0.10104(9)
H2 H 0.0412 0.1723 0.0849
C4 C 0.1516(3) 0.1199(2) 0.13271(8)
C5 C 0.1832(3) 0.0223(2) 0.15775(8)
H3 H 0.2407 0.0315 0.1788
C6 C 0.1301(2) -0.0881(2) 0.15172(8)
C7 C -0.0777(2) -0.0249(2) 0.05977(8)
C8 C 0.2070(3) 0.2409(2) 0.13934(9)
C9 C 0.1580(2) -0.1929(2) 0.18004(8)
O1E O -0.28421(18) 0.09362(19) -0.17613(6)
O2E O -0.17939(16) 0.24233(17) -0.20618(6)
O3E O 0.06167(17) -0.14289(18) -0.04810(6)
O4E O -0.06992(17) -0.32710(16) -0.01604(5)
O5E O -0.12941(16) -0.08475(17) -0.04521(6)
O6E O 0.23950(18) 0.2892(2) -0.16936(7)
O7E O 0.32798(19) 0.1800(2) -0.11923(8)
C1E C -0.1015(2) 0.0464(2) -0.11942(8)
H1E H -0.1759 0.0119 -0.1147
C2E C -0.0050(2) 0.0135(2) -0.09400(7)
C3E C 0.1068(2) 0.0646(3) -0.10104(9)
H2E H 0.1723 0.0412 -0.0849
C4E C 0.1199(2) 0.1516(3) -0.13271(8)
C5E C 0.0223(2) 0.1832(3) -0.15775(8)
H3E H 0.0315 0.2407 -0.1788
C6E C -0.0881(2) 0.1301(2) -0.15172(8)
C7E C -0.0249(2) -0.0777(2) -0.05977(8)
C8E C 0.2409(2) 0.2070(3) -0.13934(9)
C9E C -0.1929(2) 0.1580(2) -0.18004(8)
Ni1B Ni 0.30066(3) -0.30066(3) 0.2500
Ni1C Ni -0.30066(3) 0.30066(3) -0.2500
O2B O -0.25767(17) -0.32061(16) 0.04382(6)
O2G O -0.32061(16) -0.25767(17) -0.04382(6)
C10 C 0.0247(3) -0.4309(3) 0.08262(10)
H4 H 0.0122 -0.4139 0.1121
H5 H 0.0291 -0.5158 0.0786
H6 H -0.0406 -0.3993 0.0664
N1 N 0.1367(2) -0.3756(3) 0.06856(8)
C11 C 0.1452(3) -0.2760(3) 0.04582(9)
H7 H 0.0811 -0.2326 0.0351
N2 N 0.2598(3) -0.2483(3) 0.04086(8)
C12 C 0.2493(4) -0.4126(4) 0.07869(15)
H8 H 0.2694 -0.4796 0.0946
C13 C 0.3247(3) -0.3346(4) 0.06147(14)
H9 H 0.4076 -0.3379 0.0631
C14 C 0.3057(4) -0.1425(3) 0.01802(10)
C15 C 0.3408(3) -0.0430(3) 0.04807(11)
H10 H 0.4037 -0.0706 0.0668
H11 H 0.2726 -0.0207 0.0653
C16 C 0.3847(4) 0.0665(4) 0.02288(14)
H12 H 0.4491 0.0422 0.0042
H13 H 0.3199 0.0963 0.0054
C17 C 0.4289(7) 0.1667(5) 0.0517(2)
H14 H 0.3761 0.1743 0.0755
H15 H 0.4303 0.2405 0.0362
H16 H 0.5079 0.1483 0.0615
loop_
_geom_bond_atom_site_label_1
_geom_bond_atom_site_label_2
_geom_bond_site_symmetry_1
_geom_bond_site_symmetry_2
Ni1 O4 1_555 1_555
O1 C9 1_555 1_555
O2 C9 1_555 1_555
O3 C7 1_555 1_555
O5 Ni1 1_555 1_555
O6 C8 1_555 1_555
O7 C8 1_555 1_555
C1 H1 1_555 1_555
C2 C1 1_555 1_555
C3 C2 1_555 1_555
H2 C3 1_555 1_555
C4 C3 1_555 1_555
C5 C4 1_555 1_555
H3 C5 1_555 1_555
C6 C1 1_555 1_555
C7 O5 1_555 1_555
C8 C4 1_555 1_555
C9 C6 1_555 1_555
C10 H4 1_555 1_555
H5 C10 1_555 1_555
H6 C10 1_555 1_555
N1 C10 1_555 1_555
C11 N1 1_555 1_555
H7 C11 1_555 1_555
N2 C11 1_555 1_555
C12 N1 1_555 1_555
H8 C12 1_555 1_555
C13 N2 1_555 1_555
H9 C13 1_555 1_555
C14 N2 1_555 1_555
C15 C14 1_555 1_555
H10 C15 1_555 1_555
H11 C15 1_555 1_555
C16 C15 1_555 1_555
H12 C16 1_555 1_555
H13 C16 1_555 1_555
C17 C16 1_555 1_555
H14 C17 1_555 1_555
H15 C17 1_555 1_555
H16 C17 1_555 1_555
O1E C9E 1_555 1_555
O2E C9E 1_555 1_555
O3E C7E 1_555 1_555
O4E Ni1 1_555 1_555
O5E Ni1 1_555 1_555
O6E C8E 1_555 1_555
O7E C8E 1_555 1_555
C1E H1E 1_555 1_555
C2E C1E 1_555 1_555
C3E C2E 1_555 1_555
H2E C3E 1_555 1_555
C4E C3E 1_555 1_555
C5E C4E 1_555 1_555
H3E C5E 1_555 1_555
C6E C1E 1_555 1_555
C7E O5E 1_555 1_555
C8E C4E 1_555 1_555
C9E C6E 1_555 1_555
Ni1B O2 1_555 1_555
Ni1C O2E 1_555 1_555
O2B Ni1 1_555 1_555
O2G Ni1 1_555 1_555
C2 C7 1_555 1_555
C5 C6 1_555 1_555
C12 C13 1_555 1_555
C2E C7E 1_555 1_555
C5E C6E 1_555 1_555

#END
