
#######################################################################
#
#                 Cambridge Crystallographic Data Centre
#                                CCDC 
#
#######################################################################
#
# If this CIF has been generated from an entry in the Cambridge 
# Structural Database, then it will include bibliographic, chemical, 
# crystal, experimental, refinement or atomic coordinate data resulting 
# from the CCDC's data processing and validation procedures.
#
#######################################################################

data_FAVDEO
_chemical_formula_moiety         '(C90 H63 I14 N27 O6 Zn6)n'
_symmetry_cell_setting           monoclinic
_symmetry_space_group_name_H-M   'P 21/c'
_symmetry_Int_Tables_number      14
_space_group_name_Hall           '-P 2ybc'
loop_
_symmetry_equiv_pos_site_id
_symmetry_equiv_pos_as_xyz
1 x,y,z
2 -x,1/2+y,1/2-z
3 -x,-y,-z
4 x,1/2-y,1/2+z
_cell_length_a                   35.047(2)
_cell_length_b                   15.0048(8)
_cell_length_c                   30.5654(15)
_cell_angle_alpha                90
_cell_angle_beta                 101.464(2)
_cell_angle_gamma                90
_cell_volume                     15752.9
loop_
_atom_site_label
_atom_site_type_symbol
_atom_site_fract_x
_atom_site_fract_y
_atom_site_fract_z
_atom_site_U_iso_or_equiv
_atom_site_thermal_displace_type
Zn1 Zn 0.66119(7) 0.12555(13) 0.41741(7) 0.0265 Uani
I1 I 0.71371(5) 0.09969(12) 0.37181(6) 0.0486 Uani
I2 I 0.63042(6) 0.01004(10) 0.46007(6) 0.0487 Uani
Zn2 Zn 0.58634(6) 0.86904(13) 0.23223(7) 0.0293 Uani
I3 I 0.63238(5) 0.89168(10) 0.30700(5) 0.0490 Uani
I4 I 0.52655(4) 0.96784(9) 0.20981(5) 0.0451 Uani
Zn3 Zn 0.36901(6) 0.15880(14) 0.06404(7) 0.0308 Uani
I5 I 0.35108(5) 0.01677(9) 0.10115(6) 0.0550 Uani
Zn4 Zn 0.0640(3) 0.3867(5) 0.2304(2) 0.0703 Uani
N1 N 0.5272(4) 0.2854(9) 0.2295(4) 0.0218 Uani
N2 N 0.5165(4) 0.4216(9) 0.1910(4) 0.0201 Uani
N3 N 0.5650(4) 0.4130(9) 0.2568(5) 0.0236 Uani
N4 N 0.6189(4) 0.1887(10) 0.3715(5) 0.0296 Uani
N5 N 0.4157(4) 0.2163(9) 0.1060(5) 0.0264 Uani
N6 N 0.5709(4) 0.7357(9) 0.2263(5) 0.0259 Uani
N7 N 0.7318(4) 0.5245(10) 0.5277(5) 0.0304 Uani
N8 N 0.6827(4) 0.4824(9) 0.5670(4) 0.0251 Uani
N9 N 0.7206(4) 0.6129(9) 0.5874(5) 0.0291 Uani
N10 N 0.8374(5) 0.7596(13) 0.5461(6) 0.0487 Uani
N11 N 0.6792(4) 0.2331(10) 0.4604(4) 0.0273 Uani
N12 N 0.6190(4) 0.6133(9) 0.6843(5) 0.0269 Uani
N13 N 0.1728(4) 0.5360(10) 0.0718(6) 0.0345 Uani
N14 N 0.2232(4) 0.4867(11) 0.0364(5) 0.0370 Uani
N15 N 0.2067(5) 0.4050(10) 0.0961(6) 0.0372 Uani
N16 N 0.1023(7) 0.4101(12) 0.1870(8) 0.0632 Uani
N17 N 0.3228(4) 0.2455(9) 0.0638(5) 0.0290 Uani
N18 N 0.1767(5) 0.7665(10) -0.0461(5) 0.0372 Uani
C1 C 0.5543(4) 0.3287(10) 0.2589(5) 0.0196 Uani
C2 C 0.5091(5) 0.3373(11) 0.1963(6) 0.0259 Uani
C3 C 0.5446(4) 0.4583(11) 0.2223(6) 0.0240 Uani
C4 C 0.5743(4) 0.2765(10) 0.2996(5) 0.0203 Uani
C5 C 0.5939(6) 0.3215(13) 0.3344(6) 0.0406 Uani
H1 H 0.5927 0.3848 0.3345 0.0490 Uiso
C6 C 0.6171(6) 0.2757(11) 0.3720(6) 0.0362 Uani
H2 H 0.6309 0.3083 0.3968 0.0430 Uiso
C7 C 0.5969(5) 0.1459(11) 0.3373(6) 0.0281 Uani
H3 H 0.5970 0.0826 0.3380 0.0340 Uiso
C8 C 0.5748(5) 0.1859(11) 0.3019(6) 0.0271 Uani
H4 H 0.5596 0.1514 0.2787 0.0320 Uiso
C9 C 0.4769(5) 0.2944(12) 0.1630(5) 0.0243 Uani
C10 C 0.4714(6) 0.2058(13) 0.1656(6) 0.0375 Uani
H5 H 0.4888 0.1703 0.1863 0.0450 Uiso
C11 C 0.4399(5) 0.1680(12) 0.1372(6) 0.0344 Uani
H6 H 0.4351 0.1061 0.1397 0.0410 Uiso
C12 C 0.4216(5) 0.3024(11) 0.1043(6) 0.0291 Uani
H7 H 0.4044 0.3375 0.0832 0.0350 Uiso
C13 C 0.4525(5) 0.3434(11) 0.1325(5) 0.0252 Uani
H8 H 0.4564 0.4057 0.1303 0.0300 Uiso
C14 C 0.5542(5) 0.5567(11) 0.2232(6) 0.0275 Uani
C15 C 0.5313(6) 0.6148(12) 0.1942(6) 0.0342 Uani
H9 H 0.5100 0.5939 0.1724 0.0410 Uiso
C16 C 0.5405(6) 0.7039(12) 0.1979(6) 0.0343 Uani
H10 H 0.5241 0.7448 0.1792 0.0410 Uiso
C17 C 0.5930(6) 0.6784(12) 0.2515(8) 0.0440 Uani
H11 H 0.6158 0.6995 0.2708 0.0530 Uiso
C18 C 0.5847(6) 0.5871(12) 0.2515(7) 0.0414 Uani
H12 H 0.6008 0.5478 0.2716 0.0500 Uiso
C19 C 0.7398(5) 0.5943(12) 0.5553(6) 0.0308 Uani
C20 C 0.7037(4) 0.4694(11) 0.5359(5) 0.0214 Uani
C21 C 0.6918(5) 0.5575(11) 0.5917(6) 0.0264 Uani
C22 C 0.7728(6) 0.6532(11) 0.5508(6) 0.0325 Uani
C23 C 0.7948(7) 0.6921(19) 0.5898(8) 0.0584 Uani
H13 H 0.7888 0.6813 0.6183 0.0700 Uiso
C24 C 0.8260(6) 0.7476(17) 0.5847(7) 0.0497 Uani
H14 H 0.8397 0.7782 0.6103 0.0600 Uiso
C25 C 0.8169(5) 0.7162(13) 0.5104(6) 0.0351 Uani
H15 H 0.8240 0.7245 0.4822 0.0420 Uiso
C26 C 0.7862(6) 0.6603(13) 0.5128(6) 0.0360 Uani
H16 H 0.7744 0.6266 0.4873 0.0430 Uiso
C27 C 0.6965(5) 0.3857(11) 0.5095(5) 0.0257 Uani
C28 C 0.7155(5) 0.3662(11) 0.4774(5) 0.0279 Uani
H17 H 0.7346 0.4063 0.4711 0.0330 Uiso
C29 C 0.7078(5) 0.2861(11) 0.4522(6) 0.0283 Uani
H18 H 0.7225 0.2707 0.4303 0.0340 Uiso
C30 C 0.6619(6) 0.2493(12) 0.4932(6) 0.0331 Uani
H19 H 0.6433 0.2077 0.4996 0.0400 Uiso
C31 C 0.6694(5) 0.3248(13) 0.5189(6) 0.0371 Uani
H20 H 0.6562 0.3351 0.5428 0.0440 Uiso
C32 C 0.6681(5) 0.5752(10) 0.6237(6) 0.0242 Uani
C33 C 0.6321(5) 0.5371(13) 0.6210(6) 0.0315 Uani
H21 H 0.6231 0.4957 0.5977 0.0380 Uiso
C34 C 0.6087(5) 0.5566(12) 0.6508(5) 0.0271 Uani
H22 H 0.5840 0.5282 0.6473 0.0330 Uiso
C35 C 0.6546(6) 0.6514(13) 0.6891(7) 0.0384 Uani
H23 H 0.6630 0.6892 0.7141 0.0460 Uiso
C36 C 0.6795(6) 0.6385(13) 0.6596(7) 0.0371 Uani
H24 H 0.7034 0.6703 0.6628 0.0440 Uiso
C37 C 0.1793(6) 0.4663(14) 0.0977(7) 0.0391 Uani
C38 C 0.1942(6) 0.5417(12) 0.0431(6) 0.0329 Uani
C39 C 0.2283(5) 0.4189(11) 0.0658(6) 0.0314 Uani
C40 C 0.1533(6) 0.4462(16) 0.1300(8) 0.0475 Uani
C41 C 0.1250(8) 0.5073(16) 0.1361(12) 0.0766 Uani
H25 H 0.1225 0.5623 0.1204 0.0920 Uiso
C42 C 0.1014(10) 0.488(2) 0.1642(14) 0.1017 Uani
H26 H 0.0829 0.5320 0.1685 0.1240 Uiso
C43 C 0.1288(7) 0.3582(16) 0.1796(7) 0.0488 Uani
H27 H 0.1304 0.3030 0.1951 0.0590 Uiso
C44 C 0.1554(6) 0.3690(14) 0.1528(7) 0.0407 Uani
H28 H 0.1743 0.3248 0.1504 0.0490 Uiso
C45 C 0.2616(5) 0.3573(11) 0.0641(6) 0.0264 Uani
C46 C 0.2736(7) 0.3010(15) 0.0996(7) 0.0470 Uani
H29 H 0.2610 0.2999 0.1244 0.0570 Uiso
C47 C 0.3052(7) 0.2455(15) 0.0974(7) 0.0488 Uani
H30 H 0.3142 0.2061 0.1216 0.0590 Uiso
C48 C 0.3103(5) 0.2974(14) 0.0288(7) 0.0411 Uani
H31 H 0.3228 0.2957 0.0039 0.0490 Uiso
C49 C 0.2780(6) 0.3560(16) 0.0285(7) 0.0481 Uani
H32 H 0.2685 0.3929 0.0034 0.0580 Uiso
C50 C 0.1895(6) 0.6230(12) 0.0115(6) 0.0342 Uani
C51 C 0.2164(6) 0.6476(13) -0.0113(7) 0.0389 Uani
H33 H 0.2407 0.6173 -0.0063 0.0470 Uiso
C52 C 0.2099(6) 0.7154(13) -0.0416(6) 0.0352 Uani
H34 H 0.2284 0.7275 -0.0597 0.0420 Uiso
C53 C 0.1493(6) 0.7388(14) -0.0221(6) 0.0417 Uani
H35 H 0.1250 0.7691 -0.0263 0.0500 Uiso
C54 C 0.1557(6) 0.6719(15) 0.0064(8) 0.0489 Uani
H36 H 0.1367 0.6573 0.0235 0.0590 Uiso
I6 I 0.38402(5) 0.16251(13) -0.01313(5) 0.0588 Uani
N19 N 0.0682(5) -0.0740(12) 0.2458(6) 0.0484 Uani
N20 N 0.0208(5) -0.0643(11) 0.1805(7) 0.0514 Uani
N21 N 0.0333(6) -0.2025(12) 0.2177(7) 0.0547 Uani
N22 N 0.1247(5) -0.2982(12) 0.3599(6) 0.0462 Uani
N23 N 0.0567(7) 0.2534(14) 0.2177(8) 0.0601 Uani
N24 N -0.0721(5) -0.2811(12) 0.0912(7) 0.0569 Uani
C55 C 0.0603(8) -0.1591(14) 0.2472(7) 0.0553 Uani
C56 C 0.0454(6) -0.0273(13) 0.2124(8) 0.0435 Uani
C57 C 0.0156(6) -0.1488(13) 0.1839(7) 0.0411 Uani
C58 C 0.0834(6) -0.2097(14) 0.2848(7) 0.0375 Uani
C59 C 0.0779(11) -0.2975(17) 0.2910(12) 0.1150 Uani
H37 H 0.0603 -0.3304 0.2693 0.1350 Uiso
C60 C 0.0981(8) -0.3402(18) 0.3296(8) 0.0651 Uani
H38 H 0.0927 -0.4010 0.3344 0.0780 Uiso
C61 C 0.1261(11) -0.2107(18) 0.3561(11) 0.1012 Uani
H39 H 0.1428 -0.1776 0.3786 0.1200 Uiso
C62 C 0.1049(10) -0.1674(16) 0.3215(9) 0.0923 Uani
H40 H 0.1047 -0.1042 0.3222 0.1100 Uiso
C63 C 0.0498(6) 0.0684(14) 0.2127(7) 0.0420 Uani
C64 C 0.0764(9) 0.1085(17) 0.2473(8) 0.0687 Uani
H41 H 0.0928 0.0739 0.2694 0.0840 Uiso
C65 C 0.0777(9) 0.2015(17) 0.2481(9) 0.0656 Uani
H42 H 0.0948 0.2292 0.2722 0.0790 Uiso
C66 C 0.0319(9) 0.2180(19) 0.1860(12) 0.0878 Uani
H43 H 0.0161 0.2555 0.1647 0.1060 Uiso
C67 C 0.0276(8) 0.1256(17) 0.1819(9) 0.0621 Uani
H44 H 0.0093 0.1015 0.1578 0.0750 Uiso
C68 C -0.0137(7) -0.1965(13) 0.1510(8) 0.0505 Uani
C69 C -0.0328(7) -0.1539(14) 0.1122(9) 0.0618 Uani
H45 H -0.0258 -0.0950 0.1055 0.0740 Uiso
C70 C -0.0609(7) -0.1973(16) 0.0845(8) 0.0573 Uani
H46 H -0.0739 -0.1671 0.0585 0.0690 Uiso
C71 C -0.0529(6) -0.3271(14) 0.1243(7) 0.0434 Uani
H47 H -0.0585 -0.3885 0.1275 0.0520 Uiso
C72 C -0.0231(7) -0.2836(15) 0.1560(9) 0.0644 Uani
H48 H -0.0096 -0.3162 0.1809 0.0770 Uiso
Zn5 Zn 0.16388(16) 0.8670(3) -0.0933(2) 0.0404 Uani
Zn6 Zn 0.88445(13) 0.8393(3) 0.54356(18) 0.0336 Uani
I7 I 0.13197(12) 0.9931(2) -0.05777(8) 0.0603 Uani
I8 I 0.09735(18) 0.4066(2) 0.31040(14) 0.1193 Uani
I9 I 0.0023(2) 0.4693(4) 0.1936(3) 0.1411 Uani
I10 I 0.22209(12) 0.8927(3) -0.12877(15) 0.0615 Uani
I11 I 0.89984(7) 0.8291(4) 0.46640(13) 0.0658 Uani
I12 I 0.86862(12) 0.98606(16) 0.57936(17) 0.0632 Uani
Zn2C Zn 0.58634(6) 0.63096(13) 0.73223(7) 0.0293 Uani
N12C N 0.6190(4) 0.8867(9) 0.1843(5) 0.0269 Uani
N22C N 0.1247(5) 0.7982(12) -0.1401(6) 0.0462 Uani
N24C N 0.9279(5) 0.7811(12) 0.5912(7) 0.0569 Uani
Zn5C Zn 0.16388(16) -0.3670(3) 0.4067(2) 0.0404 Uani
Zn6C Zn -0.11555(13) -0.3393(3) 0.04356(18) 0.0336 Uani
I13 I 0.98149(8) 0.7111(2) 0.45861(9) 0.0717 Uani
I14 I 1.04575(8) 0.61648(19) 0.44668(9) 0.0681 Uani
N25 N 0.6084(7) 0.2426(18) 0.6309(8) 0.0879 Uani
O1 O 0.6194(9) 0.2342(19) 0.5957(8) 0.1255 Uani
O2 O 0.5802(7) 0.2043(16) 0.6403(8) 0.1055 Uani
C73 C 0.6320(7) 0.3005(17) 0.6662(8) 0.0673 Uani
C74 C 0.6689(6) 0.3230(16) 0.6596(8) 0.0645 Uani
H49 H 0.6787 0.3023 0.6346 0.0770 Uiso
C75 C 0.6917(7) 0.3804(18) 0.6935(8) 0.0705 Uani
H50 H 0.7177 0.3970 0.6927 0.0840 Uiso
C76 C 0.6729(7) 0.4100(18) 0.7279(8) 0.0678 Uani
H51 H 0.6867 0.4469 0.7509 0.0820 Uiso
C77 C 0.6358(7) 0.3872(18) 0.7288(9) 0.0692 Uani
H52 H 0.6244 0.4096 0.7523 0.0830 Uiso
C78 C 0.6134(7) 0.3326(16) 0.6970(7) 0.0585 Uani
H53 H 0.5869 0.3191 0.6971 0.0700 Uiso
N26 N 0.5343(7) 0.3735(18) 0.5627(7) 0.0821 Uani
O3 O 0.5071(7) 0.345(2) 0.5778(9) 0.1192 Uani
O4 O 0.5640(7) 0.400(2) 0.5872(8) 0.1261 Uani
C79 C 0.5281(7) 0.3922(19) 0.5138(7) 0.0729 Uani
C80 C 0.4921(7) 0.371(2) 0.4881(8) 0.0767 Uani
H54 H 0.4714 0.3502 0.5013 0.0920 Uiso
C81 C 0.4874(8) 0.382(2) 0.4397(9) 0.0881 Uani
H55 H 0.4639 0.3673 0.4196 0.1060 Uiso
C82 C 0.5202(9) 0.415(3) 0.4252(10) 0.1019 Uani
H56 H 0.5186 0.4271 0.3943 0.1220 Uiso
C83 C 0.5542(9) 0.432(3) 0.4542(10) 0.1004 Uani
H57 H 0.5752 0.4556 0.4424 0.1200 Uiso
C84 C 0.5604(8) 0.416(2) 0.4996(9) 0.0896 Uani
H58 H 0.5852 0.4220 0.5188 0.1070 Uiso
N27 N 0.5427(7) 0.1889(17) 0.4365(7) 0.0808 Uani
O5 O 0.5739(6) 0.2242(16) 0.4508(8) 0.1019 Uani
O6 O 0.5282(7) 0.1813(17) 0.3969(6) 0.0984 Uani
C85 C 0.5199(8) 0.158(2) 0.4701(8) 0.0940 Uani
C86 C 0.5400(8) 0.151(2) 0.5137(9) 0.0942 Uani
H59 H 0.5668 0.1654 0.5225 0.1130 Uiso
C87 C 0.5166(10) 0.118(3) 0.5452(10) 0.1096 Uani
H60 H 0.5268 0.1132 0.5764 0.1310 Uiso
C88 C 0.4779(10) 0.095(3) 0.5260(11) 0.1157 Uani
H61 H 0.4614 0.0746 0.5450 0.1390 Uiso
C89 C 0.4634(10) 0.100(3) 0.4815(11) 0.1217 Uani
H62 H 0.4384 0.0753 0.4704 0.1460 Uiso
C90 C 0.4830(8) 0.139(3) 0.4515(10) 0.1042 Uani
H63 H 0.4715 0.1512 0.4212 0.1250 Uiso
loop_
_atom_site_aniso_label
_atom_site_aniso_U_11
_atom_site_aniso_U_22
_atom_site_aniso_U_33
_atom_site_aniso_U_23
_atom_site_aniso_U_13
_atom_site_aniso_U_12
Zn1 0.0338(12) 0.0151(10) 0.0251(11) -0.0039(8) -0.0073(9) 0.0013(8)
I1 0.0489(9) 0.0503(9) 0.0457(9) -0.0156(7) 0.0072(7) 0.0120(8)
I2 0.0656(10) 0.0220(7) 0.0571(10) -0.0001(7) 0.0091(8) -0.0094(7)
Zn2 0.0418(12) 0.0158(9) 0.0332(11) 0.0032(8) 0.0145(9) -0.0058(8)
I3 0.0704(10) 0.0388(7) 0.0356(7) -0.0052(6) 0.0049(6) -0.0101(7)
I4 0.0475(8) 0.0314(7) 0.0631(9) 0.0124(6) 0.0274(7) 0.0054(6)
Zn3 0.0319(11) 0.0235(10) 0.0308(11) -0.0036(8) -0.0089(8) 0.0016(8)
I5 0.0610(9) 0.0232(6) 0.0724(10) 0.0099(7) -0.0074(8) -0.0042(6)
Zn4 0.102(5) 0.0216(19) 0.116(4) -0.015(3) 0.091(4) -0.013(3)
N1 0.025(7) 0.018(6) 0.021(6) -0.004(5) 0.001(4) -0.009(5)
N2 0.024(6) 0.020(5) 0.018(6) 0.003(5) 0.008(5) -0.001(5)
N3 0.024(7) 0.014(5) 0.031(7) 0.002(5) 0.001(5) -0.008(5)
N4 0.029(6) 0.023(6) 0.033(7) 0.000(5) -0.003(5) -0.003(5)
N5 0.029(6) 0.020(6) 0.025(6) -0.002(5) -0.007(5) 0.001(5)
N6 0.031(7) 0.017(5) 0.031(7) 0.006(5) 0.009(5) -0.003(5)
N7 0.033(6) 0.023(6) 0.037(6) -0.001(5) 0.011(5) -0.009(5)
N8 0.043(8) 0.016(6) 0.019(6) 0.004(4) 0.013(5) -0.006(5)
N9 0.035(8) 0.021(7) 0.033(8) -0.003(6) 0.011(6) -0.007(5)
N10 0.048(9) 0.054(8) 0.039(8) -0.001(7) -0.004(6) -0.015(7)
N11 0.035(8) 0.027(6) 0.016(6) 0.004(5) -0.004(5) -0.006(5)
N12 0.039(7) 0.016(7) 0.029(7) -0.002(5) 0.015(6) 0.006(6)
N13 0.030(8) 0.024(7) 0.048(9) -0.002(6) 0.004(6) -0.001(6)
N14 0.031(8) 0.037(8) 0.040(9) 0.000(6) 0.000(6) 0.014(6)
N15 0.041(8) 0.023(7) 0.047(9) -0.001(6) 0.007(6) 0.008(6)
N16 0.086(8) 0.034(8) 0.090(7) -0.015(8) 0.067(8) -0.006(8)
N17 0.033(6) 0.009(6) 0.041(7) 0.005(5) -0.002(5) 0.001(5)
N18 0.044(8) 0.028(7) 0.034(7) 0.000(5) -0.006(5) 0.003(5)
C1 0.021(6) 0.010(5) 0.023(6) -0.006(4) -0.007(5) -0.002(5)
C2 0.024(8) 0.025(7) 0.025(8) 0.003(6) -0.004(5) -0.007(6)
C3 0.011(7) 0.021(6) 0.040(9) 0.001(6) 0.005(6) 0.001(5)
C4 0.022(8) 0.015(6) 0.022(7) -0.006(5) 0.000(5) -0.005(6)
C5 0.053(12) 0.033(8) 0.025(8) -0.004(6) -0.018(8) 0.006(8)
C6 0.051(11) 0.016(6) 0.030(9) 0.000(6) -0.020(8) -0.004(6)
C7 0.032(6) 0.020(6) 0.027(6) -0.006(5) -0.007(5) 0.001(5)
C8 0.034(9) 0.016(6) 0.027(8) 0.004(6) -0.004(6) 0.001(7)
C9 0.023(7) 0.033(7) 0.016(7) -0.015(6) 0.002(5) 0.006(6)
C10 0.035(10) 0.029(7) 0.038(10) 0.009(7) -0.018(7) 0.004(7)
C11 0.037(7) 0.021(6) 0.038(7) -0.007(5) -0.010(5) 0.010(5)
C12 0.037(7) 0.019(5) 0.025(7) 0.000(5) -0.009(5) -0.004(5)
C13 0.028(6) 0.017(6) 0.028(7) -0.002(5) -0.001(5) -0.009(5)
C14 0.029(8) 0.020(6) 0.031(9) 0.000(6) 0.000(6) -0.001(6)
C15 0.043(10) 0.021(7) 0.035(10) 0.006(7) -0.001(7) -0.007(7)
C16 0.037(9) 0.021(6) 0.042(10) 0.010(7) 0.001(7) -0.005(6)
C17 0.040(10) 0.017(6) 0.066(14) 0.004(8) -0.011(8) -0.006(7)
C18 0.039(10) 0.014(6) 0.061(13) 0.005(8) -0.015(8) 0.002(7)
C19 0.034(9) 0.033(9) 0.025(8) -0.007(6) 0.005(6) -0.003(6)
C20 0.020(7) 0.022(7) 0.022(7) -0.002(5) 0.004(6) 0.004(5)
C21 0.020(7) 0.024(8) 0.031(8) -0.008(6) -0.005(5) -0.001(6)
C22 0.041(9) 0.019(8) 0.040(8) -0.006(7) 0.014(7) -0.005(6)
C23 0.048(13) 0.082(18) 0.045(10) -0.019(11) 0.009(9) -0.026(10)
C24 0.037(11) 0.069(15) 0.045(9) -0.022(10) 0.013(8) -0.018(9)
C25 0.032(9) 0.039(10) 0.032(8) 0.000(7) 0.001(7) -0.006(6)
C26 0.045(10) 0.031(10) 0.029(7) 0.015(7) 0.000(7) -0.008(7)
C27 0.033(9) 0.018(7) 0.023(8) 0.000(5) -0.002(6) 0.005(6)
C28 0.039(9) 0.018(7) 0.023(8) -0.009(6) -0.003(6) 0.002(6)
C29 0.040(9) 0.018(7) 0.027(9) -0.010(6) 0.007(7) -0.005(6)
C30 0.040(10) 0.020(8) 0.041(10) -0.004(6) 0.012(7) -0.005(7)
C31 0.032(9) 0.041(10) 0.034(10) -0.016(7) -0.004(7) -0.014(7)
C32 0.036(8) 0.007(7) 0.031(8) 0.001(5) 0.010(6) 0.004(6)
C33 0.032(8) 0.038(10) 0.023(8) -0.010(7) 0.002(6) 0.002(7)
C34 0.033(8) 0.032(9) 0.016(7) 0.001(6) 0.004(6) -0.003(7)
C35 0.046(10) 0.033(10) 0.040(10) -0.019(8) 0.018(8) -0.014(8)
C36 0.040(9) 0.030(10) 0.046(11) -0.017(8) 0.020(8) -0.003(7)
C37 0.038(10) 0.037(10) 0.041(10) 0.001(7) 0.005(7) 0.011(7)
C38 0.042(10) 0.026(8) 0.027(9) -0.010(5) -0.002(6) 0.013(6)
C39 0.034(9) 0.013(7) 0.044(10) -0.011(6) 0.000(6) 0.001(6)
C40 0.039(11) 0.053(11) 0.051(12) 0.005(9) 0.010(8) 0.002(8)
C41 0.068(16) 0.030(11) 0.15(3) 0.024(13) 0.066(17) 0.005(9)
C42 0.09(2) 0.082(19) 0.16(3) 0.06(2) 0.09(2) 0.030(15)
C43 0.058(12) 0.050(11) 0.046(12) -0.008(9) 0.029(9) -0.001(9)
C44 0.047(11) 0.039(9) 0.038(11) -0.013(7) 0.013(8) 0.005(8)
C45 0.025(8) 0.023(8) 0.027(8) -0.006(6) -0.005(6) 0.001(6)
C46 0.062(13) 0.047(12) 0.029(9) 0.004(8) 0.002(8) 0.026(9)
C47 0.067(14) 0.048(12) 0.028(9) 0.009(8) 0.001(8) 0.033(10)
C48 0.031(10) 0.051(12) 0.046(10) 0.028(9) 0.019(8) 0.014(7)
C49 0.036(11) 0.063(14) 0.046(10) 0.027(10) 0.010(8) 0.024(9)
C50 0.039(9) 0.029(8) 0.029(9) -0.004(6) -0.007(6) 0.003(6)
C51 0.030(8) 0.032(10) 0.049(11) 0.002(7) -0.006(7) 0.008(7)
C52 0.044(9) 0.032(9) 0.025(9) -0.010(6) -0.004(7) 0.003(7)
C53 0.051(10) 0.039(11) 0.032(10) 0.007(7) 0.001(8) 0.012(8)
C54 0.042(10) 0.041(12) 0.065(14) 0.021(9) 0.014(10) 0.014(8)
I6 0.0532 0.0805 0.0391 -0.0157 0.0002 0.0066
N19 0.04 0.045 0.051 0 -0.013 0
N20 0.042 0.023 0.076 0.007 -0.02 0.003
N21 0.054 0.03 0.066 0.011 -0.022 0.001
N22 0.055 0.037 0.039 -0.007 -0.009 0.012
N23 0.067 0.049 0.069 0.001 0.025 -0.001
N24 0.05 0.031 0.068 -0.011 -0.041 0.009
C55 0.08 0.032 0.041 -0.016 -0.019 0.021
C56 0.033 0.029 0.063 -0.005 -0.004 0.005
C57 0.047 0.023 0.047 -0.004 -0.006 0.005
C58 0.034 0.037 0.038 -0.01 -0.001 0
C59 0.14 0.033 0.12 0.002 -0.1 -0.012
C60 0.075 0.053 0.054 -0.003 -0.019 0.002
C61 0.14 0.037 0.089 0 -0.068 0.013
C62 0.16 0.025 0.058 -0.015 -0.06 0.01
C63 0.044 0.038 0.041 -0.004 0.001 -0.004
C64 0.11 0.043 0.042 -0.022 -0.012 -0.004
C65 0.087 0.042 0.065 0.004 0.008 -0.024
C66 0.08 0.047 0.12 0.018 -0.02 -0.007
C67 0.063 0.048 0.069 0.018 -0.002 0
C68 0.053 0.024 0.06 -0.011 -0.024 0.014
C69 0.064 0.024 0.077 0.003 -0.035 0.006
C70 0.057 0.05 0.053 0.004 -0.018 0
C71 0.046 0.03 0.048 0 -0.006 0.003
C72 0.062 0.035 0.071 0.008 -0.048 0
Zn5 0.049(2) 0.0285(15) 0.036(3) 0.0051(15) -0.0103(14) -0.0080(14)
Zn6 0.0237(19) 0.0268(16) 0.047(3) 0.0045(15) -0.0006(14) -0.0014(13)
I7 0.0625 0.0294 0.0842 -0.0025 0.0031 0.0023
I8 0.239 0.057 0.095 -0.0429 0.113 -0.077
I9 0.12 0.055 0.293 0.068 0.149 0.041
I10 0.0586 0.0734 0.049 -0.0046 0.0019 -0.0257
I11 0.0538(13) 0.097(3) 0.0472(17) 0.0188(18) 0.0114(11) 0.0062(14)
I12 0.067 0.028 0.081 -0.0057 -0.0181 0.0122
Zn2C 0.0418 0.0158 0.0332 -0.0032 0.0145 0.0058
N12C 0.039 0.016 0.029 0.002 0.015 -0.006
N22C 0.055 0.037 0.039 0.007 -0.009 -0.012
N24C 0.05 0.031 0.068 0.011 -0.041 -0.009
Zn5C 0.049 0.0285 0.036 -0.0051 -0.0103 0.008
Zn6C 0.0237 0.0268 0.047 -0.0045 -0.0006 0.0014
I13 0.0638(16) 0.086(2) 0.0642(17) -0.0163(14) 0.0100(12) -0.0120(14)
I14 0.0627(16) 0.0725(18) 0.0648(16) -0.0201(13) 0.0020(12) -0.0132(13)
N25 0.094(9) 0.090(10) 0.082(9) -0.013(7) 0.023(7) -0.010(8)
O1 0.167(17) 0.121(16) 0.097(11) -0.033(12) 0.047(12) -0.015(14)
O2 0.115(13) 0.083(13) 0.118(14) -0.019(11) 0.022(10) -0.036(10)
C73 0.072(8) 0.063(9) 0.069(8) 0.002(7) 0.019(7) 0.000(7)
C74 0.067(8) 0.058(9) 0.072(9) 0.000(7) 0.022(7) 0.015(7)
C75 0.068(8) 0.069(10) 0.074(9) 0.007(8) 0.013(7) 0.002(7)
C76 0.067(8) 0.065(10) 0.068(9) 0.000(7) 0.005(7) 0.003(7)
C77 0.073(8) 0.065(10) 0.071(9) 0.003(7) 0.018(7) -0.002(8)
C78 0.066(8) 0.054(9) 0.059(8) 0.014(6) 0.021(6) -0.005(7)
N26 0.079(9) 0.080(10) 0.083(7) -0.005(8) 0.006(6) -0.002(8)
O3 0.111(12) 0.135(17) 0.120(14) 0.024(13) 0.043(11) 0.007(12)
O4 0.113(12) 0.128(16) 0.118(12) -0.014(13) -0.024(11) -0.013(12)
C79 0.071(8) 0.062(10) 0.084(7) -0.004(8) 0.011(6) 0.002(8)
C80 0.074(8) 0.072(11) 0.081(8) -0.002(8) 0.008(7) 0.007(8)
C81 0.089(9) 0.087(11) 0.084(8) 0.005(9) 0.007(7) 0.003(8)
C82 0.110(10) 0.101(12) 0.095(9) 0.006(9) 0.021(7) -0.004(9)
C83 0.100(9) 0.101(12) 0.103(9) 0.003(9) 0.027(7) -0.007(9)
C84 0.086(9) 0.086(11) 0.098(8) -0.009(9) 0.021(7) -0.004(9)
N27 0.082(8) 0.073(10) 0.083(7) -0.013(8) 0.006(7) -0.003(8)
O5 0.067(10) 0.102(14) 0.128(14) -0.014(12) -0.002(9) 0.001(9)
O6 0.114(14) 0.104(14) 0.074(8) -0.014(11) 0.011(9) -0.023(12)
C85 0.100(9) 0.093(12) 0.089(8) -0.006(9) 0.019(7) 0.002(8)
C86 0.100(10) 0.087(12) 0.095(8) 0.003(9) 0.018(7) 0.000(9)
C87 0.114(10) 0.114(13) 0.105(9) 0.002(9) 0.032(7) 0.000(9)
C88 0.113(10) 0.122(13) 0.116(9) 0.000(9) 0.032(8) -0.007(9)
C89 0.117(10) 0.129(13) 0.121(10) 0.005(9) 0.028(7) -0.010(9)
C90 0.097(9) 0.107(12) 0.108(10) -0.003(9) 0.019(7) -0.007(9)
loop_
_geom_bond_atom_site_label_1
_geom_bond_atom_site_label_2
_geom_bond_site_symmetry_1
_geom_bond_site_symmetry_2
Zn1 I1 1_555 1_555
I2 Zn1 1_555 1_555
Zn2 I3 1_555 1_555
I4 Zn2 1_555 1_555
Zn3 I5 1_555 1_555
Zn4 N16 1_555 1_555
N1 C1 1_555 1_555
N2 C2 1_555 1_555
N3 C1 1_555 1_555
N4 Zn1 1_555 1_555
N5 Zn3 1_555 1_555
N6 Zn2 1_555 1_555
N7 C19 1_555 1_555
N8 C20 1_555 1_555
N9 C19 1_555 1_555
N10 C24 1_555 1_555
N11 Zn1 1_555 1_555
N12 C34 1_555 1_555
N13 C37 1_555 1_555
N14 C38 1_555 1_555
N15 C37 1_555 1_555
N16 C42 1_555 1_555
N17 Zn3 1_555 1_555
N18 C52 1_555 1_555
C1 C4 1_555 1_555
C2 N1 1_555 1_555
C3 N2 1_555 1_555
C4 C5 1_555 1_555
C5 H1 1_555 1_555
C6 N4 1_555 1_555
H2 C6 1_555 1_555
C7 N4 1_555 1_555
H3 C7 1_555 1_555
C8 C4 1_555 1_555
H4 C8 1_555 1_555
C9 C2 1_555 1_555
C10 C9 1_555 1_555
H5 C10 1_555 1_555
C11 N5 1_555 1_555
H6 C11 1_555 1_555
C12 N5 1_555 1_555
H7 C12 1_555 1_555
C13 C9 1_555 1_555
H8 C13 1_555 1_555
C14 C3 1_555 1_555
C15 C14 1_555 1_555
H9 C15 1_555 1_555
C16 N6 1_555 1_555
H10 C16 1_555 1_555
C17 N6 1_555 1_555
H11 C17 1_555 1_555
C18 C14 1_555 1_555
H12 C18 1_555 1_555
C19 C22 1_555 1_555
C20 N7 1_555 1_555
C21 N8 1_555 1_555
C22 C23 1_555 1_555
C23 H13 1_555 1_555
C24 C23 1_555 1_555
H14 C24 1_555 1_555
C25 N10 1_555 1_555
H15 C25 1_555 1_555
C26 C22 1_555 1_555
H16 C26 1_555 1_555
C27 C20 1_555 1_555
C28 C27 1_555 1_555
H17 C28 1_555 1_555
C29 N11 1_555 1_555
H18 C29 1_555 1_555
C30 N11 1_555 1_555
H19 C30 1_555 1_555
C31 C27 1_555 1_555
H20 C31 1_555 1_555
C32 C21 1_555 1_555
C33 C32 1_555 1_555
H21 C33 1_555 1_555
C34 C33 1_555 1_555
H22 C34 1_555 1_555
C35 N12 1_555 1_555
H23 C35 1_555 1_555
C36 C32 1_555 1_555
H24 C36 1_555 1_555
C37 C40 1_555 1_555
C38 N13 1_555 1_555
C39 N14 1_555 1_555
C40 C41 1_555 1_555
C41 H25 1_555 1_555
C42 C41 1_555 1_555
H26 C42 1_555 1_555
C43 N16 1_555 1_555
H27 C43 1_555 1_555
C44 C40 1_555 1_555
H28 C44 1_555 1_555
C45 C39 1_555 1_555
C46 C45 1_555 1_555
H29 C46 1_555 1_555
C47 N17 1_555 1_555
H30 C47 1_555 1_555
C48 N17 1_555 1_555
H31 C48 1_555 1_555
C49 C45 1_555 1_555
H32 C49 1_555 1_555
C50 C38 1_555 1_555
C51 C50 1_555 1_555
H33 C51 1_555 1_555
C52 C51 1_555 1_555
H34 C52 1_555 1_555
C53 N18 1_555 1_555
H35 C53 1_555 1_555
C54 C50 1_555 1_555
H36 C54 1_555 1_555
I6 Zn3 1_555 1_555
N19 C55 1_555 1_555
N20 C56 1_555 1_555
N21 C55 1_555 1_555
N22 C60 1_555 1_555
N23 Zn4 1_555 1_555
N24 C70 1_555 1_555
C55 C58 1_555 1_555
C56 N19 1_555 1_555
C57 N20 1_555 1_555
C58 C59 1_555 1_555
C59 H37 1_555 1_555
C60 C59 1_555 1_555
H38 C60 1_555 1_555
C61 N22 1_555 1_555
H39 C61 1_555 1_555
C62 C58 1_555 1_555
H40 C62 1_555 1_555
C63 C56 1_555 1_555
C64 C63 1_555 1_555
H41 C64 1_555 1_555
C65 N23 1_555 1_555
H42 C65 1_555 1_555
C66 N23 1_555 1_555
H43 C66 1_555 1_555
C67 C63 1_555 1_555
H44 C67 1_555 1_555
C68 C57 1_555 1_555
C69 C68 1_555 1_555
H45 C69 1_555 1_555
C70 C69 1_555 1_555
H46 C70 1_555 1_555
C71 N24 1_555 1_555
H47 C71 1_555 1_555
C72 C68 1_555 1_555
H48 C72 1_555 1_555
Zn5 N18 1_555 1_555
Zn6 N10 1_555 1_555
I7 Zn5 1_555 1_555
I8 Zn4 1_555 1_555
I9 Zn4 1_555 1_555
I10 Zn5 1_555 1_555
I11 Zn6 1_555 1_555
I12 Zn6 1_555 1_555
I13 I14 1_555 1_555
N25 O1 1_555 1_555
O2 N25 1_555 1_555
C73 N25 1_555 1_555
C74 C73 1_555 1_555
H49 C74 1_555 1_555
C75 C74 1_555 1_555
H50 C75 1_555 1_555
C76 C75 1_555 1_555
H51 C76 1_555 1_555
C77 C76 1_555 1_555
H52 C77 1_555 1_555
C78 C73 1_555 1_555
H53 C78 1_555 1_555
N26 O3 1_555 1_555
O4 N26 1_555 1_555
C79 N26 1_555 1_555
C80 C79 1_555 1_555
H54 C80 1_555 1_555
C81 C80 1_555 1_555
H55 C81 1_555 1_555
C82 C81 1_555 1_555
H56 C82 1_555 1_555
C83 C82 1_555 1_555
H57 C83 1_555 1_555
C84 C79 1_555 1_555
H58 C84 1_555 1_555
N27 O5 1_555 1_555
O6 N27 1_555 1_555
C85 N27 1_555 1_555
C86 C85 1_555 1_555
H59 C86 1_555 1_555
C87 C86 1_555 1_555
H60 C87 1_555 1_555
C88 C87 1_555 1_555
H61 C88 1_555 1_555
C89 C88 1_555 1_555
H62 C89 1_555 1_555
C90 C85 1_555 1_555
H63 C90 1_555 1_555
Zn2C N12 1_555 1_555
N12C Zn2 1_555 1_555
N22C Zn5 1_555 1_555
N24C Zn6 1_555 1_555
Zn5C N22 1_555 1_555
Zn6C N24 1_555 1_555
N3 C3 1_555 1_555
N9 C21 1_555 1_555
N15 C39 1_555 1_555
C5 C6 1_555 1_555
C7 C8 1_555 1_555
C10 C11 1_555 1_555
C12 C13 1_555 1_555
C15 C16 1_555 1_555
C17 C18 1_555 1_555
C25 C26 1_555 1_555
C28 C29 1_555 1_555
C30 C31 1_555 1_555
C35 C36 1_555 1_555
C43 C44 1_555 1_555
C46 C47 1_555 1_555
C48 C49 1_555 1_555
C53 C54 1_555 1_555
N21 C57 1_555 1_555
C61 C62 1_555 1_555
C64 C65 1_555 1_555
C66 C67 1_555 1_555
C71 C72 1_555 1_555
C77 C78 1_555 1_555
C83 C84 1_555 1_555
C89 C90 1_555 1_555

#END
