
#######################################################################
#
#                 Cambridge Crystallographic Data Centre
#                                CCDC 
#
#######################################################################
#
# If this CIF has been generated from an entry in the Cambridge 
# Structural Database, then it will include bibliographic, chemical, 
# crystal, experimental, refinement or atomic coordinate data resulting 
# from the CCDC's data processing and validation procedures.
#
#######################################################################

data_GERWEH
_chemical_formula_moiety         '(C32 H22 Cu4 O21 Si1)n'
_symmetry_cell_setting           tetragonal
_symmetry_space_group_name_H-M   'P 4/n m m'
_symmetry_Int_Tables_number      129
_space_group_name_Hall           '-P 4a 2a'
loop_
_symmetry_equiv_pos_site_id
_symmetry_equiv_pos_as_xyz
1 x,y,z
2 1/2-x,1/2-y,z
3 1/2-y,x,z
4 y,1/2-x,z
5 -x,1/2+y,-z
6 1/2+x,-y,-z
7 1/2+y,1/2+x,-z
8 -y,-x,-z
9 -x,-y,-z
10 1/2+x,1/2+y,-z
11 1/2+y,-x,-z
12 -y,1/2+x,-z
13 x,1/2-y,z
14 1/2-x,y,z
15 1/2-y,1/2-x,z
16 y,x,z
_cell_length_a                   17.492(9)
_cell_length_b                   17.492(9)
_cell_length_c                   9.105(9)
_cell_angle_alpha                90
_cell_angle_beta                 90
_cell_angle_gamma                90
_cell_volume                     2785.86
loop_
_atom_site_label
_atom_site_type_symbol
_atom_site_fract_x
_atom_site_fract_y
_atom_site_fract_z
O4 O 0.1693(8) 0.2500 0.5226(13)
Cu1 Cu 0.04372(3) 0.45628(3) 0.58487(7)
Si1 Si 0.2500 0.7500 0.0000
O1 O 0.11780(16) 0.49379(18) 0.4411(3)
O2 O 0.04700(14) 0.5675(2) 0.2955(4)
C1 C 0.2500 0.6625(3) 0.1205(6)
C2 C 0.18145(19) 0.6319(2) 0.1731(4)
H1 H 0.1352 0.6517 0.1399
C3 C 0.1813(2) 0.5723(2) 0.2748(4)
C4 C 0.2500 0.5427(3) 0.3233(6)
H2 H 0.2500 0.5022 0.3896
C5 C 0.1095(2) 0.5416(2) 0.3412(4)
O3 O 0.12154(19) 0.37846(19) 0.6909(6)
Cu1C Cu 0.45628(3) 0.45628(3) 0.58487(7)
Cu1B Cu 0.04372(3) 1.04372(3) 0.58487(7)
Cu1A Cu 0.45628(3) 1.04372(3) 0.58487(7)
Cu1F Cu -0.04372(3) 0.54372(3) 0.41513(7)
Cu1E Cu 0.54372(3) 0.54372(3) 0.41513(7)
Cu1D Cu -0.04372(3) 0.95628(3) 0.41513(7)
Cu1G Cu 0.54372(3) 0.95628(3) 0.41513(7)
Cu1D_2 Cu -0.04372(3) 0.95628(3) -0.58487(7)
Cu1B_2 Cu 0.04372(3) 1.04372(3) -0.41513(7)
Cu1F_2 Cu -0.04372(3) 0.54372(3) -0.58487(7)
Cu1_2 Cu 0.04372(3) 0.45628(3) -0.41513(7)
Cu1E_2 Cu 0.54372(3) 0.54372(3) -0.58487(7)
Cu1C_2 Cu 0.45628(3) 0.45628(3) -0.41513(7)
Cu1G_2 Cu 0.54372(3) 0.95628(3) -0.58487(7)
Cu1A_2 Cu 0.45628(3) 1.04372(3) -0.41513(7)
O1M O 0.38220(16) 0.49379(18) 0.4411(3)
O1L O 0.11780(16) 1.00621(18) 0.4411(3)
O1A O 0.38220(16) 1.00621(18) 0.4411(3)
O1J O -0.00621(18) 0.88220(16) -0.4411(3)
O1F O -0.00621(18) 0.61780(16) -0.4411(3)
O1K O 0.50621(18) 0.61780(16) -0.4411(3)
O1G O 0.50621(18) 0.88220(16) -0.4411(3)
O1N O 0.00621(18) 0.38220(16) 0.4411(3)
O1C O 0.49379(18) 0.38220(16) 0.4411(3)
O1B O 0.00621(18) 1.11780(16) 0.4411(3)
O1O O 0.49379(18) 1.11780(16) 0.4411(3)
O2M O 0.45300(14) 0.5675(2) 0.2955(4)
O2L O 0.04700(14) 0.9325(2) 0.2955(4)
O2A O 0.45300(14) 0.9325(2) 0.2955(4)
O2J O 0.0675(2) 0.95300(14) -0.2955(4)
O2F O 0.0675(2) 0.54700(14) -0.2955(4)
O2K O 0.4325(2) 0.54700(14) -0.2955(4)
O2G O 0.4325(2) 0.95300(14) -0.2955(4)
O2F_2 O 0.0675(2) 0.54700(14) 0.7045(4)
O2H O -0.04700(14) 0.4325(2) 0.7045(4)
O2K_2 O 0.4325(2) 0.54700(14) 0.7045(4)
O2E O 0.54700(14) 0.4325(2) 0.7045(4)
O2J_2 O 0.0675(2) 0.95300(14) 0.7045(4)
O2D O -0.04700(14) 1.0675(2) 0.7045(4)
O2G_2 O 0.4325(2) 0.95300(14) 0.7045(4)
O2I O 0.54700(14) 1.0675(2) 0.7045(4)
C1A C 0.2500 0.8375(3) 0.1205(6)
C1F C 0.1625(3) 0.7500 -0.1205(6)
C1G C 0.3375(3) 0.7500 -0.1205(6)
C2M C 0.31855(19) 0.6319(2) 0.1731(4)
C2A C 0.31855(19) 0.8681(2) 0.1731(4)
C2L C 0.18145(19) 0.8681(2) 0.1731(4)
C2F C 0.1319(2) 0.68145(19) -0.1731(4)
C2J C 0.1319(2) 0.81855(19) -0.1731(4)
C2G C 0.3681(2) 0.81855(19) -0.1731(4)
C2K C 0.3681(2) 0.68145(19) -0.1731(4)
H1M H 0.3648 0.6517 0.1399
H1A H 0.3648 0.8483 0.1399
H1L H 0.1352 0.8483 0.1399
H1F H 0.1517 0.6352 -0.1399
H1J H 0.1517 0.8648 -0.1399
H1G H 0.3483 0.8648 -0.1399
H1K H 0.3483 0.6352 -0.1399
C3M C 0.3187(2) 0.5723(2) 0.2748(4)
C3A C 0.3187(2) 0.9277(2) 0.2748(4)
C3L C 0.1813(2) 0.9277(2) 0.2748(4)
C3F C 0.0723(2) 0.6813(2) -0.2748(4)
C3J C 0.0723(2) 0.8187(2) -0.2748(4)
C3G C 0.4277(2) 0.8187(2) -0.2748(4)
C3K C 0.4277(2) 0.6813(2) -0.2748(4)
C4A C 0.2500 0.9573(3) 0.3233(6)
C4F C 0.0427(3) 0.7500 -0.3233(6)
C4G C 0.4573(3) 0.7500 -0.3233(6)
H2A H 0.2500 0.9978 0.3896
H2F H 0.0022 0.7500 -0.3896
H2G H 0.4978 0.7500 -0.3896
C5M C 0.3905(2) 0.5416(2) 0.3412(4)
C5L C 0.1095(2) 0.9584(2) 0.3412(4)
C5A C 0.3905(2) 0.9584(2) 0.3412(4)
C5J C 0.0416(2) 0.8905(2) -0.3412(4)
C5F C 0.0416(2) 0.6095(2) -0.3412(4)
C5K C 0.4584(2) 0.6095(2) -0.3412(4)
C5G C 0.4584(2) 0.8905(2) -0.3412(4)
O3C O 0.37846(19) 0.37846(19) 0.6909(6)
O3B O 0.12154(19) 1.12154(19) 0.6909(6)
O3A O 0.37846(19) 1.12154(19) 0.6909(6)
loop_
_geom_bond_atom_site_label_1
_geom_bond_atom_site_label_2
_geom_bond_site_symmetry_1
_geom_bond_site_symmetry_2
Cu1 O1 1_555 1_555
Si1 C1 1_555 1_555
O1 C5 1_555 1_555
O2 C5 1_555 1_555
C1 C2 1_555 1_555
C2 H1 1_555 1_555
C3 C2 1_555 1_555
C4 C3 1_555 1_555
H2 C4 1_555 1_555
C5 C3 1_555 1_555
O3 Cu1 1_555 1_555
Cu1C O1M 1_555 1_555
Cu1B O1L 1_555 1_555
Cu1A O1A 1_555 1_555
Cu1F O2 1_555 1_555
Cu1E O2M 1_555 1_555
Cu1D O2L 1_555 1_555
Cu1G O2A 1_555 1_555
Cu1D_2 O1J 1_555 1_555
Cu1B_2 O2J 1_555 1_555
Cu1F_2 O1F 1_555 1_555
Cu1_2 O2F 1_555 1_555
Cu1E_2 O1K 1_555 1_555
Cu1C_2 O2K 1_555 1_555
Cu1G_2 O1G 1_555 1_555
Cu1A_2 O2G 1_555 1_555
O1M C5M 1_555 1_555
O1L C5L 1_555 1_555
O1A C5A 1_555 1_555
O1J C5J 1_555 1_555
O1F C5F 1_555 1_555
O1K C5K 1_555 1_555
O1G C5G 1_555 1_555
O1N Cu1 1_555 1_555
O1C Cu1C 1_555 1_555
O1B Cu1B 1_555 1_555
O1O Cu1A 1_555 1_555
O2M C5M 1_555 1_555
O2L C5L 1_555 1_555
O2A C5A 1_555 1_555
O2J C5J 1_555 1_555
O2F C5F 1_555 1_555
O2K C5K 1_555 1_555
O2G C5G 1_555 1_555
O2F_2 Cu1 1_555 1_555
O2H Cu1 1_555 1_555
O2K_2 Cu1C 1_555 1_555
O2E Cu1C 1_555 1_555
O2J_2 Cu1B 1_555 1_555
O2D Cu1B 1_555 1_555
O2G_2 Cu1A 1_555 1_555
O2I Cu1A 1_555 1_555
C1A Si1 1_555 1_555
C1F Si1 1_555 1_555
C1G Si1 1_555 1_555
C2M C1 1_555 1_555
C2A C1A 1_555 1_555
C2L C1A 1_555 1_555
C2F C1F 1_555 1_555
C2J C1F 1_555 1_555
C2G C1G 1_555 1_555
C2K C1G 1_555 1_555
H1M C2M 1_555 1_555
H1A C2A 1_555 1_555
H1L C2L 1_555 1_555
H1F C2F 1_555 1_555
H1J C2J 1_555 1_555
H1G C2G 1_555 1_555
H1K C2K 1_555 1_555
C3M C4 1_555 1_555
C3A C2A 1_555 1_555
C3L C2L 1_555 1_555
C3F C2F 1_555 1_555
C3J C2J 1_555 1_555
C3G C2G 1_555 1_555
C3K C2K 1_555 1_555
C4A C3A 1_555 1_555
C4F C3F 1_555 1_555
C4G C3G 1_555 1_555
H2A C4A 1_555 1_555
H2F C4F 1_555 1_555
H2G C4G 1_555 1_555
C5M C3M 1_555 1_555
C5L C3L 1_555 1_555
C5A C3A 1_555 1_555
C5J C3J 1_555 1_555
C5F C3F 1_555 1_555
C5K C3K 1_555 1_555
C5G C3G 1_555 1_555
O3C Cu1C 1_555 1_555
O3B Cu1B 1_555 1_555
O3A Cu1A 1_555 1_555
C2M C3M 1_555 1_555
C3L C4A 1_555 1_555
C3J C4F 1_555 1_555
C3K C4G 1_555 1_555

#END
