
#######################################################################
#
#                 Cambridge Crystallographic Data Centre
#                                CCDC 
#
#######################################################################
#
# If this CIF has been generated from an entry in the Cambridge 
# Structural Database, then it will include bibliographic, chemical, 
# crystal, experimental, refinement or atomic coordinate data resulting 
# from the CCDC's data processing and validation procedures.
#
#######################################################################

data_VEDFAN
_chemical_formula_moiety         '(C36 H42 Co2 N8 O11)n'
_symmetry_cell_setting           orthorhombic
_symmetry_space_group_name_H-M   'P 21 21 21'
_symmetry_Int_Tables_number      19
_space_group_name_Hall           'P 2ac 2ab'
loop_
_symmetry_equiv_pos_site_id
_symmetry_equiv_pos_as_xyz
1 x,y,z
2 1/2-x,-y,1/2+z
3 1/2+x,1/2-y,-z
4 -x,1/2+y,1/2-z
_cell_length_a                   11.4398(2)
_cell_length_b                   13.2955(2)
_cell_length_c                   26.2483(4)
_cell_angle_alpha                90
_cell_angle_beta                 90
_cell_angle_gamma                90
_cell_volume                     3992.31
loop_
_atom_site_label
_atom_site_type_symbol
_atom_site_fract_x
_atom_site_fract_y
_atom_site_fract_z
Co1 Co 0.42584(3) 0.55776(3) 0.862950(13)
Co2 Co 0.68203(3) 0.43754(3) 0.919996(13)
O1 O 0.60973(16) 0.57366(16) 0.88569(7)
H1 H 0.6558 0.5911 0.8559
H2 H 0.6163 0.6285 0.9099
O2 O 0.47217(19) 0.43998(19) 0.81859(7)
O3 O 0.60128(18) 0.34885(16) 0.86403(8)
O4 O 0.38427(18) 0.46036(17) 0.92300(8)
O5 O 0.54412(16) 0.43199(17) 0.96993(7)
O6 O -0.17176(17) 0.44659(17) 0.87358(7)
O7 O -0.1909(2) 0.5958(2) 0.83628(10)
O8 O 0.5500(2) 0.7282(2) 0.94033(9)
O9 O 0.37940(19) 0.68142(17) 0.90739(8)
N1 N 0.2421(2) 0.5412(2) 0.84391(9)
N2 N 0.2724(2) 0.9646(2) 1.02401(9)
N3 N 0.2581(2) 0.1920(2) 1.04443(9)
N4 N 0.5520(2) 0.15779(19) 0.70055(9)
C1 C 0.1889(3) 0.4527(2) 0.84816(11)
H3 H 0.2348 0.3950 0.8502
C2 C 0.0684(3) 0.4422(3) 0.84965(11)
H4 H 0.0345 0.3791 0.8537
C3 C -0.0002(3) 0.5266(3) 0.84509(12)
C4 C 0.0538(3) 0.6176(3) 0.83719(13)
H5 H 0.0099 0.6753 0.8315
C5 C 0.1754(3) 0.6219(3) 0.83791(13)
H6 H 0.2114 0.6841 0.8340
C6 C -0.1334(3) 0.5227(3) 0.85122(12)
C7 C 0.2121(3) 0.9067(3) 0.99214(12)
H7 H 0.1318 0.9164 0.9896
C8 C 0.2632(3) 0.8326(3) 0.96253(13)
H8 H 0.2175 0.7939 0.9407
C9 C 0.3820(3) 0.8163(3) 0.96557(12)
C10 C 0.4447(3) 0.8772(3) 0.99805(12)
H9 H 0.5250 0.8686 1.0014
C11 C 0.3881(3) 0.9510(3) 1.02557(12)
H10 H 0.4325 0.9932 1.0462
C12 C 0.4428(3) 0.7353(2) 0.93526(12)
C13 C 0.5393(3) 0.3671(2) 0.82580(11)
C14 C 0.5456(3) 0.2931(2) 0.78220(11)
C15 C 0.5991(3) 0.2003(2) 0.78688(11)
H11 H 0.6348 0.1820 0.8173
C16 C 0.5989(3) 0.1354(3) 0.74608(11)
H12 H 0.6332 0.0725 0.7502
C17 C 0.5018(3) 0.2478(3) 0.69661(12)
H13 H 0.4690 0.2651 0.6654
C18 C 0.4952(3) 0.3168(3) 0.73538(11)
H14 H 0.4577 0.3782 0.7305
C19 C 0.4380(3) 0.4194(2) 0.95803(10)
C20 C 0.3723(3) 0.3437(2) 0.99013(11)
C21 C 0.2742(3) 0.2973(3) 0.97090(13)
H15 H 0.2434 0.3174 0.9397
C22 C 0.2221(4) 0.2212(3) 0.99802(14)
H16 H 0.1586 0.1882 0.9835
C23 C 0.3492(3) 0.2412(3) 1.06360(12)
H17 H 0.3739 0.2247 1.0963
C24 C 0.4088(3) 0.3148(3) 1.03784(11)
H18 H 0.4738 0.3451 1.0526
Co1C Co 0.57416(3) 0.05776(3) 0.637050(13)
Co2_2 Co -0.31797(3) 0.43754(3) 0.919996(13)
Co2B Co 0.18203(3) 1.06246(3) 1.080004(13)
Co2B_2 Co 0.18203(3) 0.06246(3) 1.080004(13)
O6_2 O 0.82824(17) 0.44659(17) 0.87358(7)
N2B N 0.7724(2) 0.5354(2) 0.97599(9)
N3B N 0.7581(2) 0.3080(2) 0.95557(9)
N4C N 0.4480(2) 0.65779(19) 0.79945(9)
O10 O 0.6591(3) 0.9841(2) 0.83281(13)
N5 N 0.8060(4) 0.8790(3) 0.85305(14)
N6 N 0.7152(4) 0.9752(3) 0.91431(15)
C25 C 0.7229(4) 0.9472(4) 0.86514(19)
C26 C 0.8830(5) 0.8314(4) 0.8900(2)
H19 H 0.9604 0.8244 0.8753
H20 H 0.8540 0.7646 0.8977
C27 C 0.8913(5) 0.8914(4) 0.93851(19)
H21 H 0.9282 0.8513 0.9648
H22 H 0.9385 0.9509 0.9329
C28 C 0.7726(5) 0.9209(4) 0.95493(17)
H23 H 0.7277 0.8615 0.9636
H24 H 0.7775 0.9632 0.9850
C29 C 0.8089(6) 0.8400(4) 0.80125(18)
H25 H 0.7561 0.8780 0.7803
H26 H 0.7856 0.7707 0.8013
H27 H 0.8867 0.8457 0.7879
C30 C 0.6261(5) 1.0459(4) 0.9278(2)
H28 H 0.5955 1.0765 0.8974
H29 H 0.6587 1.0969 0.9494
H30 H 0.5644 1.0118 0.9455
O11 O 1.1294(3) 1.1968(4) 0.87205(16)
N7 N 1.2623(5) 1.0843(5) 0.84468(18)
N8 N 1.0687(5) 1.0752(4) 0.81798(15)
C31 C 1.1533(5) 1.1222(5) 0.84605(19)
C32 C 1.0942(8) 0.9905(7) 0.7851(3)
H31 H 1.0324 0.9410 0.7889
H32 H 1.0934 1.0134 0.7500
C33 C 1.2952(9) 0.9978(8) 0.8142(5)
H33 H 1.3443 1.0197 0.7862
H34 H 1.3405 0.9517 0.8350
C34 C 1.3519(6) 1.1329(7) 0.8759(3)
H35 H 1.3189 1.1907 0.8925
H36 H 1.4157 1.1537 0.8546
H37 H 1.3798 1.0864 0.9011
C35 C 0.9548(5) 1.1217(6) 0.8146(2)
H38 H 0.9496 1.1755 0.8389
H39 H 0.8955 1.0726 0.8217
H40 H 0.9435 1.1480 0.7809
C36 C 1.1959(15) 0.9464(11) 0.7944(5)
H41 H 1.2206 0.9160 0.7625
H42 H 1.1798 0.8914 0.8176
loop_
_geom_bond_atom_site_label_1
_geom_bond_atom_site_label_2
_geom_bond_site_symmetry_1
_geom_bond_site_symmetry_2
Co1 O1 1_555 1_555
Co2 O1 1_555 1_555
O1 H1 1_555 1_555
H2 O1 1_555 1_555
O2 Co1 1_555 1_555
O3 Co2 1_555 1_555
O4 Co1 1_555 1_555
O5 Co2 1_555 1_555
O6 C6 1_555 1_555
O7 C6 1_555 1_555
O8 C12 1_555 1_555
O9 Co1 1_555 1_555
O10 C25 1_555 1_555
O11 C31 1_555 1_555
N1 Co1 1_555 1_555
N2 C7 1_555 1_555
N3 C22 1_555 1_555
N4 C16 1_555 1_555
N5 C25 1_555 1_555
N6 C25 1_555 1_555
N7 C31 1_555 1_555
N8 C31 1_555 1_555
C1 N1 1_555 1_555
H3 C1 1_555 1_555
C2 C1 1_555 1_555
H4 C2 1_555 1_555
C3 C2 1_555 1_555
C4 C3 1_555 1_555
H5 C4 1_555 1_555
C5 N1 1_555 1_555
H6 C5 1_555 1_555
C6 C3 1_555 1_555
C7 H7 1_555 1_555
C8 C7 1_555 1_555
H8 C8 1_555 1_555
C9 C8 1_555 1_555
C10 C9 1_555 1_555
H9 C10 1_555 1_555
C11 N2 1_555 1_555
H10 C11 1_555 1_555
C12 O9 1_555 1_555
C13 O2 1_555 1_555
C14 C13 1_555 1_555
C15 C14 1_555 1_555
H11 C15 1_555 1_555
C16 C15 1_555 1_555
H12 C16 1_555 1_555
C17 N4 1_555 1_555
H13 C17 1_555 1_555
C18 C14 1_555 1_555
H14 C18 1_555 1_555
C19 O4 1_555 1_555
C20 C19 1_555 1_555
C21 C20 1_555 1_555
H15 C21 1_555 1_555
C22 C21 1_555 1_555
H16 C22 1_555 1_555
C23 N3 1_555 1_555
H17 C23 1_555 1_555
C24 C20 1_555 1_555
H18 C24 1_555 1_555
C26 N5 1_555 1_555
H19 C26 1_555 1_555
H20 C26 1_555 1_555
C27 C26 1_555 1_555
H21 C27 1_555 1_555
H22 C27 1_555 1_555
C28 N6 1_555 1_555
H23 C28 1_555 1_555
H24 C28 1_555 1_555
C29 N5 1_555 1_555
H25 C29 1_555 1_555
H26 C29 1_555 1_555
H27 C29 1_555 1_555
C30 N6 1_555 1_555
H28 C30 1_555 1_555
H29 C30 1_555 1_555
H30 C30 1_555 1_555
C32 N8 1_555 1_555
H31 C32 1_555 1_555
H32 C32 1_555 1_555
C33 N7 1_555 1_555
H33 C33 1_555 1_555
H34 C33 1_555 1_555
C34 N7 1_555 1_555
H35 C34 1_555 1_555
H36 C34 1_555 1_555
H37 C34 1_555 1_555
C35 N8 1_555 1_555
H38 C35 1_555 1_555
H39 C35 1_555 1_555
H40 C35 1_555 1_555
C36 C32 1_555 1_555
H41 C36 1_555 1_555
H42 C36 1_555 1_555
Co1C N4 1_555 1_555
Co2_2 O6 1_555 1_555
Co2B N2 1_555 1_555
Co2B_2 N3 1_555 1_555
O6_2 Co2 1_555 1_555
N2B Co2 1_555 1_555
N3B Co2 1_555 1_555
N4C Co1 1_555 1_555
O3 C13 1_555 1_555
O5 C19 1_555 1_555
C4 C5 1_555 1_555
C9 C12 1_555 1_555
C10 C11 1_555 1_555
C17 C18 1_555 1_555
C23 C24 1_555 1_555
C27 C28 1_555 1_555
C33 C36 1_555 1_555

#END
