
#######################################################################
#
#                 Cambridge Crystallographic Data Centre
#                                CCDC 
#
#######################################################################
#
# If this CIF has been generated from an entry in the Cambridge 
# Structural Database, then it will include bibliographic, chemical, 
# crystal, experimental, refinement or atomic coordinate data resulting 
# from the CCDC's data processing and validation procedures.
#
#######################################################################

data_VEDGIW
_chemical_formula_moiety         '(C32 H28 Co2 N4 O10)n'
_symmetry_cell_setting           orthorhombic
_symmetry_space_group_name_H-M   'P 21 21 21'
_symmetry_Int_Tables_number      19
_space_group_name_Hall           'P 2ac 2ab'
loop_
_symmetry_equiv_pos_site_id
_symmetry_equiv_pos_as_xyz
1 x,y,z
2 1/2-x,-y,1/2+z
3 1/2+x,1/2-y,-z
4 -x,1/2+y,1/2-z
_cell_length_a                   11.4659(3)
_cell_length_b                   13.2732(3)
_cell_length_c                   26.1201(12)
_cell_angle_alpha                90
_cell_angle_beta                 90
_cell_angle_gamma                90
_cell_volume                     3975.2
loop_
_atom_site_label
_atom_site_type_symbol
_atom_site_fract_x
_atom_site_fract_y
_atom_site_fract_z
Co1 Co 0.15121(7) 0.94429(7) 0.07833(3)
Co2 Co -0.10516(7) 1.04968(7) 0.14009(3)
O1 O 0.0762(4) 1.0720(3) 0.11521(19)
H1 H 0.0789 1.1300 0.0914
H2 H 0.1242 1.0894 0.1455
O2 O 0.2779(4) 1.1086(4) 0.1618(3)
O3 O 0.5098(5) 1.2795(4) -0.0613(3)
O4 O 0.2957(4) 0.9562(4) 0.1271(2)
O5 O -0.0522(4) 0.9315(3) 0.1836(2)
O6 O 0.0760(4) 0.8487(4) 0.1336(2)
O7 O 0.0115(4) 0.9342(4) 0.02940(18)
O8 O 0.3416(5) 1.3289(4) -0.0950(2)
O9 O -0.1445(4) 0.9477(4) 0.08168(19)
N1 N -0.2655(5) 0.6785(4) -0.0402(2)
N2 N 0.0726(5) 0.6502(4) 0.2963(2)
N3 N 0.2323(5) 1.0461(5) 0.0226(2)
N4 N 0.7106(5) 1.0387(5) 0.1595(2)
C1 C 0.3488(6) 1.0582(6) 0.0236(3)
H4 H 0.3942 1.0150 0.0446
C2 C -0.2248(7) 0.7630(6) 0.0381(3)
H5 H -0.2383 0.7692 0.0738
C3 C 0.0197(6) 0.8612(5) 0.1736(3)
C4 C 0.0073(8) 0.7335(5) 0.3028(3)
H6 H -0.0258 0.7462 0.3355
C5 C 0.1182(7) 0.6342(5) 0.2502(3)
H7 H 0.1626 0.5747 0.2449
C6 C -0.2791(8) 0.6881(6) 0.0109(3)
H8 H -0.3276 0.6416 0.0286
C7 C 0.6466(7) 1.1234(5) 0.1651(3)
H9 H 0.6864 1.1856 0.1694
C8 C 0.4050(7) 1.1319(6) -0.0052(3)
H10 H 0.4873 1.1392 -0.0030
C9 C 0.4670(6) 1.0351(5) 0.1561(3)
C10 C -0.0132(8) 0.8013(6) 0.2636(3)
H11 H -0.0610 0.8587 0.2693
C11 C 0.3423(7) 1.1936(5) -0.0367(3)
C12 C 0.0356(6) 0.7853(5) 0.2164(3)
C13 C 0.2224(6) 1.1789(6) -0.0388(3)
H12 H 0.1751 1.2190 -0.0607
C14 C 0.4030(7) 1.2741(5) -0.0669(3)
C15 C 0.1043(7) 0.6998(5) 0.2096(3)
H13 H 0.1408 0.6868 0.1776
C16 C -0.1918(7) 0.7422(6) -0.0630(3)
H14 H -0.1794 0.7354 -0.0988
C17 C -0.1339(7) 0.8160(5) -0.0379(3)
H15 H -0.0815 0.8588 -0.0559
C18 C 0.5266(6) 1.1238(6) 0.1647(4)
H16 H 0.4851 1.1848 0.1703
C19 C -0.1514(6) 0.8286(5) 0.0139(3)
C20 C 0.1731(7) 1.1045(5) -0.0085(3)
H17 H 0.0911 1.0952 -0.0103
C21 C -0.0906(6) 0.9116(5) 0.0448(3)
C22 C 0.6535(6) 0.9510(6) 0.1536(3)
H18 H 0.6966 0.8900 0.1510
C23 C 0.5330(6) 0.9481(6) 0.1511(3)
H19 H 0.4947 0.8855 0.1459
C24 C 0.3357(6) 1.0325(6) 0.1484(3)
Co1B Co -0.34879(7) 0.55571(7) -0.07833(3)
Co2B Co 0.39484(7) 1.45032(7) -0.14009(3)
Co2C Co 0.10516(7) 0.54968(7) 0.35991(3)
Co2_2 Co 0.89484(7) 1.04968(7) 0.14009(3)
O8B O -0.1584(5) 1.1711(4) 0.0950(2)
N1B N 0.2345(5) 0.8215(4) 0.0402(2)
N2C N -0.0726(5) 1.1502(4) 0.2037(2)
N4_2 N -0.2894(5) 1.0387(5) 0.1595(2)
O10 O -0.2581(9) 1.1749(8) -0.1427(4)
H3 H -0.2484 1.2360 -0.1498
C25 C -0.1115(11) 1.1447(10) -0.0775(6)
H20 H -0.1004 1.1337 -0.0407
H21 H -0.0682 1.2049 -0.0881
H22 H -0.0827 1.0861 -0.0965
C26 C -0.2400(11) 1.1595(9) -0.0886(5)
H23 H -0.2677 1.2207 -0.0699
C27 C -0.3083(9) 1.0717(8) -0.0709(4)
C28 C -0.3760(11) 1.0142(10) -0.1031(6)
H24 H -0.3794 1.0299 -0.1386
C29 C -0.4414(11) 0.9305(10) -0.0834(6)
H25 H -0.4864 0.8907 -0.1063
C30 C -0.4403(12) 0.9074(9) -0.0333(7)
H26 H -0.4846 0.8525 -0.0205
C31 C -0.3712(10) 0.9676(10) -0.0001(6)
H27 H -0.3684 0.9539 0.0355
C32 C -0.3064(9) 1.0484(9) -0.0211(5)
H28 H -0.2595 1.0878 0.0012
loop_
_geom_bond_atom_site_label_1
_geom_bond_atom_site_label_2
_geom_bond_site_symmetry_1
_geom_bond_site_symmetry_2
Co1 O1 1_555 1_555
Co2 O1 1_555 1_555
O1 H1 1_555 1_555
H2 O1 1_555 1_555
O2 C24 1_555 1_555
O3 C14 1_555 1_555
O4 Co1 1_555 1_555
O5 Co2 1_555 1_555
O6 Co1 1_555 1_555
O7 Co1 1_555 1_555
O8 C14 1_555 1_555
O9 Co2 1_555 1_555
O10 H3 1_555 1_555
N1 C6 1_555 1_555
N2 C4 1_555 1_555
N3 Co1 1_555 1_555
N4 C7 1_555 1_555
C1 N3 1_555 1_555
H4 C1 1_555 1_555
C2 H5 1_555 1_555
C3 O5 1_555 1_555
C4 H6 1_555 1_555
C5 N2 1_555 1_555
H7 C5 1_555 1_555
C6 C2 1_555 1_555
H8 C6 1_555 1_555
C7 H9 1_555 1_555
C8 C1 1_555 1_555
H10 C8 1_555 1_555
C9 C18 1_555 1_555
C10 C4 1_555 1_555
H11 C10 1_555 1_555
C11 C8 1_555 1_555
C12 C3 1_555 1_555
C13 C11 1_555 1_555
H12 C13 1_555 1_555
C14 C11 1_555 1_555
C15 C5 1_555 1_555
H13 C15 1_555 1_555
C16 N1 1_555 1_555
H14 C16 1_555 1_555
C17 C16 1_555 1_555
H15 C17 1_555 1_555
C18 C7 1_555 1_555
H16 C18 1_555 1_555
C19 C2 1_555 1_555
C20 N3 1_555 1_555
H17 C20 1_555 1_555
C21 O7 1_555 1_555
C22 N4 1_555 1_555
H18 C22 1_555 1_555
C23 C9 1_555 1_555
H19 C23 1_555 1_555
C24 O4 1_555 1_555
C25 H20 1_555 1_555
H21 C25 1_555 1_555
H22 C25 1_555 1_555
C26 O10 1_555 1_555
H23 C26 1_555 1_555
C27 C26 1_555 1_555
C28 C27 1_555 1_555
H24 C28 1_555 1_555
C29 C28 1_555 1_555
H25 C29 1_555 1_555
C30 C29 1_555 1_555
H26 C30 1_555 1_555
C31 C30 1_555 1_555
H27 C31 1_555 1_555
C32 C27 1_555 1_555
H28 C32 1_555 1_555
Co1B N1 1_555 1_555
Co2B O8 1_555 1_555
Co2C N2 1_555 1_555
Co2_2 N4 1_555 1_555
O8B Co2 1_555 1_555
N1B Co1 1_555 1_555
N2C Co2 1_555 1_555
N4_2 Co2 1_555 1_555
O6 C3 1_555 1_555
O9 C21 1_555 1_555
C9 C24 1_555 1_555
C10 C12 1_555 1_555
C12 C15 1_555 1_555
C13 C20 1_555 1_555
C17 C19 1_555 1_555
C19 C21 1_555 1_555
C22 C23 1_555 1_555
C25 C26 1_555 1_555
C31 C32 1_555 1_555

#END
