
#######################################################################
#
#                 Cambridge Crystallographic Data Centre
#                                CCDC 
#
#######################################################################
#
# If this CIF has been generated from an entry in the Cambridge 
# Structural Database, then it will include bibliographic, chemical, 
# crystal, experimental, refinement or atomic coordinate data resulting 
# from the CCDC's data processing and validation procedures.
#
#######################################################################

data_MARBIT
_chemical_formula_moiety         '(C27 H12 Gd1 N6 O12)n'
_symmetry_cell_setting           trigonal
_symmetry_space_group_name_H-M   'P 3 1 c'
_symmetry_Int_Tables_number      159
_space_group_name_Hall           'P 3 -2c'
loop_
_symmetry_equiv_pos_site_id
_symmetry_equiv_pos_as_xyz
1 x,y,z
2 -y,x-y,z
3 -x+y,-x,z
4 y,x,1/2+z
5 x-y,-y,1/2+z
6 -x,-x+y,1/2+z
_cell_length_a                   12.8322(3)
_cell_length_b                   12.8322(3)
_cell_length_c                   15.8830(6)
_cell_angle_alpha                90
_cell_angle_beta                 90
_cell_angle_gamma                120
_cell_volume                     2264.99
loop_
_atom_site_label
_atom_site_type_symbol
_atom_site_fract_x
_atom_site_fract_y
_atom_site_fract_z
Gd1 Gd 0.3333 0.6667 0.42989(6)
C1 C 0.9383(8) 0.8826(6) 0.1756(7)
C2 C 0.7546(6) 0.6833(6) 0.1789(5)
C3 C 0.6955(7) 0.6986(6) 0.2451(5)
H1 H 0.7379 0.7617 0.2826
C4 C 0.5738(7) 0.6218(8) 0.2572(5)
C5 C 0.5099(5) 0.5255(6) 0.2011(4)
H2 H 0.4278 0.4740 0.2085
C6 C 0.5691(5) 0.5074(6) 0.1351(4)
C7 C 0.6925(6) 0.5882(6) 0.1227(5)
H3 H 0.7324 0.5783 0.0772
C8 C 0.5035(8) 0.6347(7) 0.3286(5)
C9 C 0.4985(6) 0.4051(6) 0.0743(4)
N1 N 1.0615(8) 0.9369(8) 0.1756(6)
N2 N 0.8792(5) 0.7602(4) 0.1676(4)
H4 H 0.9214 0.7275 0.1547
O1 O 0.5580(5) 0.7106(5) 0.3858(3)
O2 O 0.3913(5) 0.5696(6) 0.3275(3)
O3 O 0.3866(6) 0.3500(5) 0.0793(5)
O4 O 0.5573(5) 0.3814(5) 0.0221(3)
C1A C 1.1174(6) 1.0557(10) 0.1756(7)
C2A C 1.3167(6) 1.0713(8) 0.1789(5)
C3A C 1.3014(6) 0.9969(9) 0.2451(5)
H1A H 1.2383 0.9762 0.2826
C4A C 1.3782(8) 0.9520(11) 0.2572(5)
C5A C 1.4745(6) 0.9844(8) 0.2011(4)
H2A H 1.5260 0.9538 0.2085
C6A C 1.4926(6) 1.0617(8) 0.1351(4)
C7A C 1.4118(6) 1.1043(8) 0.1227(5)
H3A H 1.4217 1.1541 0.0772
C8A C 1.3653(7) 0.8688(11) 0.3286(5)
C9A C 1.5949(6) 1.0934(8) 0.0743(4)
N1A N 1.0631(8) 1.1246(11) 0.1756(6)
N2A N 1.2398(4) 1.1190(6) 0.1676(4)
H4A H 1.2725 1.1939 0.1547
O1A O 1.2894(5) 0.8474(7) 0.3858(3)
O2A O 1.4304(6) 0.8217(8) 0.3275(3)
O3A O 1.6500(5) 1.0366(8) 0.0793(5)
O4A O 1.6186(5) 1.1759(7) 0.0221(3)
C1B C 0.9443(10) 1.0617(8) 0.1756(7)
C2B C 0.9287(8) 1.2454(6) 0.1789(5)
C3B C 1.0031(9) 1.3045(7) 0.2451(5)
H1B H 1.0238 1.2621 0.2826
C4B C 1.0480(11) 1.4262(7) 0.2572(5)
C5B C 1.0156(8) 1.4901(5) 0.2011(4)
H2B H 1.0462 1.5722 0.2085
C6B C 0.9383(8) 1.4309(5) 0.1351(4)
C7B C 0.8957(8) 1.3075(6) 0.1227(5)
H3B H 0.8459 1.2676 0.0772
C8B C 1.1312(11) 1.4965(8) 0.3286(5)
C9B C 0.9066(8) 1.5015(6) 0.0743(4)
N1B N 0.8754(11) 0.9385(8) 0.1756(6)
N2B N 0.8810(6) 1.1208(5) 0.1676(4)
H4B H 0.8061 1.0786 0.1547
O1B O 1.1526(7) 1.4420(5) 0.3858(3)
O2B O 1.1783(8) 1.6087(5) 0.3275(3)
O3B O 0.9634(8) 1.6134(6) 0.0793(5)
O4B O 0.8241(7) 1.4427(5) 0.0221(3)
Gd1_2 Gd 1.3333 0.6667 0.42989(6)
Gd1_3 Gd 1.3333 1.6667 0.42989(6)
Gd1C Gd 0.6667 0.3333 -0.07011(6)
Gd1C_2 Gd 0.6667 1.3333 -0.07011(6)
Gd1C_3 Gd 1.6667 1.3333 -0.07011(6)
O1A_2 O 0.2894(5) 0.8474(7) 0.3858(3)
O1B_2 O 0.1526(7) 0.4420(5) 0.3858(3)
O2A_2 O 0.4304(6) 0.8217(8) 0.3275(3)
O2B_2 O 0.1783(8) 0.6087(5) 0.3275(3)
O4C O 0.3814(5) 0.5573(5) 0.5221(3)
O4D O 0.1759(7) 0.6186(5) 0.5221(3)
O4E O 0.4427(5) 0.8241(7) 0.5221(3)
loop_
_geom_bond_atom_site_label_1
_geom_bond_atom_site_label_2
_geom_bond_site_symmetry_1
_geom_bond_site_symmetry_2
Gd1 O1 1_555 1_555
C1 N1 1_555 1_555
C2 C3 1_555 1_555
C3 H1 1_555 1_555
C4 C3 1_555 1_555
C5 C4 1_555 1_555
H2 C5 1_555 1_555
C6 C5 1_555 1_555
C7 C2 1_555 1_555
H3 C7 1_555 1_555
C8 C4 1_555 1_555
C9 C6 1_555 1_555
N1 C1A 1_555 1_555
N2 C1 1_555 1_555
H4 N2 1_555 1_555
O1 C8 1_555 1_555
O2 Gd1 1_555 1_555
O3 C9 1_555 1_555
O4 C9 1_555 1_555
C1A N1A 1_555 1_555
C2A C3A 1_555 1_555
C3A H1A 1_555 1_555
C4A C3A 1_555 1_555
C5A C4A 1_555 1_555
H2A C5A 1_555 1_555
C6A C5A 1_555 1_555
C7A C2A 1_555 1_555
H3A C7A 1_555 1_555
C8A C4A 1_555 1_555
C9A C6A 1_555 1_555
N1A C1B 1_555 1_555
N2A C1A 1_555 1_555
H4A N2A 1_555 1_555
O1A C8A 1_555 1_555
O2A C8A 1_555 1_555
O3A C9A 1_555 1_555
O4A C9A 1_555 1_555
C1B N1B 1_555 1_555
C2B C3B 1_555 1_555
C3B H1B 1_555 1_555
C4B C3B 1_555 1_555
C5B C4B 1_555 1_555
H2B C5B 1_555 1_555
C6B C5B 1_555 1_555
C7B C2B 1_555 1_555
H3B C7B 1_555 1_555
C8B C4B 1_555 1_555
C9B C6B 1_555 1_555
N1B C1 1_555 1_555
N2B C1B 1_555 1_555
H4B N2B 1_555 1_555
O1B C8B 1_555 1_555
O2B C8B 1_555 1_555
O3B C9B 1_555 1_555
O4B C9B 1_555 1_555
Gd1_2 O1A 1_555 1_555
Gd1_3 O1B 1_555 1_555
Gd1C O4 1_555 1_555
Gd1C_2 O4B 1_555 1_555
Gd1C_3 O4A 1_555 1_555
O1A_2 Gd1 1_555 1_555
O1B_2 Gd1 1_555 1_555
O2A_2 Gd1 1_555 1_555
O2B_2 Gd1 1_555 1_555
O4C Gd1 1_555 1_555
O4D Gd1 1_555 1_555
O4E Gd1 1_555 1_555
C2 N2 1_555 1_555
C6 C7 1_555 1_555
C8 O2 1_555 1_555
C2A N2A 1_555 1_555
C6A C7A 1_555 1_555
O2A Gd1_2 1_555 1_555
C2B N2B 1_555 1_555
C6B C7B 1_555 1_555
O2B Gd1_3 1_555 1_555

#END
