
#######################################################################
#
#                 Cambridge Crystallographic Data Centre
#                                CCDC 
#
#######################################################################
#
# If this CIF has been generated from an entry in the Cambridge 
# Structural Database, then it will include bibliographic, chemical, 
# crystal, experimental, refinement or atomic coordinate data resulting 
# from the CCDC's data processing and validation procedures.
#
#######################################################################

data_YUKTUU06
_chemical_formula_moiety         '(C4 H9 Mn1 N3 O6)n'
_symmetry_cell_setting           orthorhombic
_symmetry_space_group_name_H-M   'P n n a'
_symmetry_Int_Tables_number      52
_space_group_name_Hall           '-P 2a 2bc'
loop_
_symmetry_equiv_pos_site_id
_symmetry_equiv_pos_as_xyz
1 x,y,z
2 1/2-x,-y,z
3 x,1/2-y,1/2-z
4 1/2-x,1/2+y,1/2-z
5 -x,-y,-z
6 1/2+x,y,-z
7 -x,1/2+y,1/2+z
8 1/2+x,1/2-y,1/2+z
_cell_length_a                   8.5538(3)
_cell_length_b                   12.0096(4)
_cell_length_c                   9.0457(3)
_cell_angle_alpha                90
_cell_angle_beta                 90
_cell_angle_gamma                90
_cell_volume                     929.244
loop_
_atom_site_label
_atom_site_type_symbol
_atom_site_fract_x
_atom_site_fract_y
_atom_site_fract_z
Mn1 Mn 0.25094(3) 0.7500 0.2500
O1 O 0.44450(14) 0.69194(9) 0.38875(12)
O2 O 0.59777(15) 0.68130(9) 0.58362(13)
O3 O 0.24612(14) 0.59196(9) 0.13036(12)
C1 C 0.48302(19) 0.71746(15) 0.51560(17)
H1 H 0.4200 0.7686 0.5647
C2 C 0.2500 0.5000 0.1910(3)
H2 H 0.2500 0.5000 0.2938
O3A O 0.25388(14) 0.40804(9) 0.13036(12)
O1B O 0.44450(14) 0.80806(9) 0.11125(12)
O2B O 0.59777(15) 0.81870(9) -0.08362(13)
C1B C 0.48302(19) 0.78254(15) -0.01560(17)
H1B H 0.4200 0.7314 -0.0647
Mn1A Mn 0.24906(3) 0.2500 0.2500
Mn1E Mn 0.75094(3) 0.7500 -0.2500
Mn1E_2 Mn 0.75094(3) 0.7500 0.7500
O2E O 0.09777(15) 0.68130(9) 0.41638(13)
O2G O 0.09777(15) 0.81870(9) 0.08362(13)
O3B O 0.24612(14) 0.90804(9) 0.36964(12)
N1 N 0.1650(2) 0.57315(13) -0.18715(16)
H3 H 0.1647 0.5734 -0.0921
H4 H 0.1096 0.6208 -0.2350
N2 N 0.2500 0.5000 -0.4050(2)
H5 H 0.1945 0.5478 -0.4525
C3 C 0.2500 0.5000 -0.2592(2)
H5A H 0.3055 0.4522 -0.4525
N1A N 0.3350(2) 0.42685(13) -0.18715(16)
H3A H 0.3353 0.4266 -0.0921
H4A H 0.3904 0.3792 -0.2350
loop_
_geom_bond_atom_site_label_1
_geom_bond_atom_site_label_2
_geom_bond_site_symmetry_1
_geom_bond_site_symmetry_2
Mn1 O1 1_555 1_555
O1 C1 1_555 1_555
O2 C1 1_555 1_555
O3 Mn1 1_555 1_555
C1 H1 1_555 1_555
C2 O3 1_555 1_555
H2 C2 1_555 1_555
N1 H3 1_555 1_555
H4 N1 1_555 1_555
N2 H5 1_555 1_555
C3 N1 1_555 1_555
O3A C2 1_555 1_555
O1B Mn1 1_555 1_555
O2B C1B 1_555 1_555
C1B O1B 1_555 1_555
H1B C1B 1_555 1_555
Mn1A O3A 1_555 1_555
Mn1E O2B 1_555 1_555
Mn1E_2 O2 1_555 1_555
O2E Mn1 1_555 1_555
O2G Mn1 1_555 1_555
O3B Mn1 1_555 1_555
H5A N2 1_555 1_555
N1A C3 1_555 1_555
H3A N1A 1_555 1_555
H4A N1A 1_555 1_555
N2 C3 1_555 1_555

#END
