
#######################################################################
#
#                 Cambridge Crystallographic Data Centre
#                                CCDC 
#
#######################################################################
#
# If this CIF has been generated from an entry in the Cambridge 
# Structural Database, then it will include bibliographic, chemical, 
# crystal, experimental, refinement or atomic coordinate data resulting 
# from the CCDC's data processing and validation procedures.
#
#######################################################################

data_YUKTUU07
_chemical_formula_moiety         '(C4 H9 Mn1 N3 O6)n'
_symmetry_cell_setting           orthorhombic
_symmetry_space_group_name_H-M   'P n n a'
_symmetry_Int_Tables_number      52
_space_group_name_Hall           '-P 2a 2bc'
loop_
_symmetry_equiv_pos_site_id
_symmetry_equiv_pos_as_xyz
1 x,y,z
2 1/2-x,-y,z
3 x,1/2-y,1/2-z
4 1/2-x,1/2+y,1/2-z
5 -x,-y,-z
6 1/2+x,y,-z
7 -x,1/2+y,1/2+z
8 1/2+x,1/2-y,1/2+z
_cell_length_a                   8.5611(3)
_cell_length_b                   12.0204(4)
_cell_length_c                   9.0426(3)
_cell_angle_alpha                90
_cell_angle_beta                 90
_cell_angle_gamma                90
_cell_volume                     930.554
loop_
_atom_site_label
_atom_site_type_symbol
_atom_site_fract_x
_atom_site_fract_y
_atom_site_fract_z
Mn1 Mn 0.25150(4) 0.7500 0.2500
O1 O 0.44483(14) 0.69208(10) 0.38908(12)
O2 O 0.59822(16) 0.68159(9) 0.58331(13)
O3 O 0.24644(14) 0.59187(9) 0.13086(13)
C1 C 0.4836(2) 0.71776(16) 0.51554(17)
H1 H 0.4209 0.7691 0.5646
C2 C 0.2500 0.5000 0.1914(3)
H2 H 0.2500 0.5000 0.2943
O3A O 0.25356(14) 0.40813(9) 0.13086(13)
O1B O 0.44483(14) 0.80792(10) 0.11092(12)
O2B O 0.59822(16) 0.81841(9) -0.08331(13)
C1B C 0.4836(2) 0.78224(16) -0.01554(17)
H1B H 0.4209 0.7309 -0.0646
Mn1A Mn 0.24850(4) 0.2500 0.2500
Mn1E Mn 0.75150(4) 0.7500 -0.2500
Mn1E_2 Mn 0.75150(4) 0.7500 0.7500
O2E O 0.09822(16) 0.68159(9) 0.41669(13)
O2G O 0.09822(16) 0.81841(9) 0.08331(13)
O3B O 0.24644(14) 0.90813(9) 0.36914(13)
N1 N 0.1653(2) 0.57316(14) -0.18750(17)
H3 H 0.1647 0.5736 -0.0924
H4 H 0.1102 0.6207 -0.2358
N2 N 0.2500 0.5000 -0.4052(2)
H5 H 0.3054 0.4522 -0.4528
C3 C 0.2500 0.5000 -0.2588(2)
H5A H 0.1946 0.5478 -0.4528
N1A N 0.3347(2) 0.42684(14) -0.18750(17)
H3A H 0.3353 0.4264 -0.0924
H4A H 0.3898 0.3793 -0.2358
loop_
_geom_bond_atom_site_label_1
_geom_bond_atom_site_label_2
_geom_bond_site_symmetry_1
_geom_bond_site_symmetry_2
Mn1 O1 1_555 1_555
O1 C1 1_555 1_555
O2 C1 1_555 1_555
O3 Mn1 1_555 1_555
C1 H1 1_555 1_555
C2 O3 1_555 1_555
H2 C2 1_555 1_555
N1 H3 1_555 1_555
H4 N1 1_555 1_555
N2 H5 1_555 1_555
C3 N1 1_555 1_555
O3A C2 1_555 1_555
O1B Mn1 1_555 1_555
O2B C1B 1_555 1_555
C1B O1B 1_555 1_555
H1B C1B 1_555 1_555
Mn1A O3A 1_555 1_555
Mn1E O2B 1_555 1_555
Mn1E_2 O2 1_555 1_555
O2E Mn1 1_555 1_555
O2G Mn1 1_555 1_555
O3B Mn1 1_555 1_555
H5A N2 1_555 1_555
N1A C3 1_555 1_555
H3A N1A 1_555 1_555
H4A N1A 1_555 1_555
N2 C3 1_555 1_555

#END
