
#######################################################################
#
#                 Cambridge Crystallographic Data Centre
#                                CCDC 
#
#######################################################################
#
# If this CIF has been generated from an entry in the Cambridge 
# Structural Database, then it will include bibliographic, chemical, 
# crystal, experimental, refinement or atomic coordinate data resulting 
# from the CCDC's data processing and validation procedures.
#
#######################################################################

data_YUKTUU05
_chemical_formula_moiety         '(C4 H9 Mn1 N3 O6)n'
_symmetry_cell_setting           orthorhombic
_symmetry_space_group_name_H-M   'P n n a'
_symmetry_Int_Tables_number      52
_space_group_name_Hall           '-P 2a 2bc'
loop_
_symmetry_equiv_pos_site_id
_symmetry_equiv_pos_as_xyz
1 x,y,z
2 1/2-x,-y,z
3 x,1/2-y,1/2-z
4 1/2-x,1/2+y,1/2-z
5 -x,-y,-z
6 1/2+x,y,-z
7 -x,1/2+y,1/2+z
8 1/2+x,1/2-y,1/2+z
_cell_length_a                   8.5471(3)
_cell_length_b                   12.0046(4)
_cell_length_c                   9.0496(3)
_cell_angle_alpha                90
_cell_angle_beta                 90
_cell_angle_gamma                90
_cell_volume                     928.53
loop_
_atom_site_label
_atom_site_type_symbol
_atom_site_fract_x
_atom_site_fract_y
_atom_site_fract_z
Mn1 Mn 0.25034(3) 0.7500 0.2500
O1 O 0.44416(14) 0.69167(9) 0.38830(12)
O2 O 0.59710(15) 0.68083(9) 0.58373(13)
O3 O 0.24557(14) 0.59213(9) 0.13000(12)
C1 C 0.4824(2) 0.71722(15) 0.51568(17)
H1 H 0.4194 0.7684 0.5647
C2 C 0.2500 0.5000 0.1909(3)
H2 H 0.2500 0.5000 0.2936
O3A O 0.25443(14) 0.40787(9) 0.13000(12)
O1B O 0.44416(14) 0.80833(9) 0.11170(12)
O2B O 0.59710(15) 0.81917(9) -0.08373(13)
C1B C 0.4824(2) 0.78278(15) -0.01568(17)
H1B H 0.4194 0.7316 -0.0647
Mn1A Mn 0.24966(3) 0.2500 0.2500
Mn1E Mn 0.75034(3) 0.7500 -0.2500
Mn1E_2 Mn 0.75034(3) 0.7500 0.7500
O2E O 0.09710(15) 0.68083(9) 0.41627(13)
O2G O 0.09710(15) 0.81917(9) 0.08373(13)
O3B O 0.24557(14) 0.90787(9) 0.37000(12)
N1 N 0.1647(2) 0.57328(13) -0.18725(16)
H3 H 0.1645 0.5734 -0.0922
H4 H 0.1092 0.6210 -0.2350
N2 N 0.2500 0.5000 -0.4053(2)
H5 H 0.1944 0.5478 -0.4529
C3 C 0.2500 0.5000 -0.2597(2)
H5A H 0.3056 0.4522 -0.4529
N1A N 0.3353(2) 0.42672(13) -0.18725(16)
H3A H 0.3355 0.4266 -0.0922
H4A H 0.3908 0.3790 -0.2350
loop_
_geom_bond_atom_site_label_1
_geom_bond_atom_site_label_2
_geom_bond_site_symmetry_1
_geom_bond_site_symmetry_2
Mn1 O1 1_555 1_555
O1 C1 1_555 1_555
O2 C1 1_555 1_555
O3 Mn1 1_555 1_555
C1 H1 1_555 1_555
C2 O3 1_555 1_555
H2 C2 1_555 1_555
N1 H3 1_555 1_555
H4 N1 1_555 1_555
N2 H5 1_555 1_555
C3 N1 1_555 1_555
O3A C2 1_555 1_555
O1B Mn1 1_555 1_555
O2B C1B 1_555 1_555
C1B O1B 1_555 1_555
H1B C1B 1_555 1_555
Mn1A O3A 1_555 1_555
Mn1E O2B 1_555 1_555
Mn1E_2 O2 1_555 1_555
O2E Mn1 1_555 1_555
O2G Mn1 1_555 1_555
O3B Mn1 1_555 1_555
H5A N2 1_555 1_555
N1A C3 1_555 1_555
H3A N1A 1_555 1_555
H4A N1A 1_555 1_555
N2 C3 1_555 1_555

#END
