
#######################################################################
#
#                 Cambridge Crystallographic Data Centre
#                                CCDC 
#
#######################################################################
#
# If this CIF has been generated from an entry in the Cambridge 
# Structural Database, then it will include bibliographic, chemical, 
# crystal, experimental, refinement or atomic coordinate data resulting 
# from the CCDC's data processing and validation procedures.
#
#######################################################################

data_YUKTUU01
_chemical_formula_moiety         '(C4 H9 Mn1 N3 O6)n'
_symmetry_cell_setting           orthorhombic
_symmetry_space_group_name_H-M   'P n n a'
_symmetry_Int_Tables_number      52
_space_group_name_Hall           '-P 2a 2bc'
loop_
_symmetry_equiv_pos_site_id
_symmetry_equiv_pos_as_xyz
1 x,y,z
2 1/2-x,-y,z
3 x,1/2-y,1/2-z
4 1/2-x,1/2+y,1/2-z
5 -x,-y,-z
6 1/2+x,y,-z
7 -x,1/2+y,1/2+z
8 1/2+x,1/2-y,1/2+z
_cell_length_a                   8.5164(3)
_cell_length_b                   11.9772(4)
_cell_length_c                   9.0562(3)
_cell_angle_alpha                90
_cell_angle_beta                 90
_cell_angle_gamma                90
_cell_volume                     923.756
loop_
_atom_site_label
_atom_site_type_symbol
_atom_site_fract_x
_atom_site_fract_y
_atom_site_fract_z
Mn1 Mn 0.24814(3) 0.7500 0.2500
O1 O 0.44270(12) 0.69117(8) 0.38771(11)
O2 O 0.59548(13) 0.67962(8) 0.58390(11)
O3 O 0.24355(12) 0.59250(8) 0.12847(11)
C1 C 0.48014(17) 0.71657(13) 0.51534(15)
H1 H 0.4165 0.7677 0.5642
C2 C 0.2500 0.5000 0.1897(2)
H2 H 0.2500 0.5000 0.2924
O3A O 0.25645(12) 0.40750(8) 0.12847(11)
O1B O 0.44270(12) 0.80883(8) 0.11229(11)
O2B O 0.59548(13) 0.82038(8) -0.08390(11)
C1B C 0.48014(17) 0.78343(13) -0.01534(15)
H1B H 0.4165 0.7323 -0.0642
Mn1A Mn 0.25186(3) 0.2500 0.2500
Mn1E Mn 0.74814(3) 0.7500 -0.2500
Mn1E_2 Mn 0.74814(3) 0.7500 0.7500
O2E O 0.09548(13) 0.67962(8) 0.41610(11)
O2G O 0.09548(13) 0.82038(8) 0.08390(11)
O3B O 0.24355(12) 0.90750(8) 0.37153(11)
N1 N 0.16371(18) 0.57315(11) -0.18772(14)
H3 H 0.1634 0.5734 -0.0928
H4 H 0.1076 0.6207 -0.2355
N2 N 0.2500 0.5000 -0.4061(2)
H5 H 0.3062 0.4524 -0.4536
C3 C 0.2500 0.5000 -0.2599(2)
H5A H 0.1938 0.5476 -0.4536
N1A N 0.33629(18) 0.42685(11) -0.18772(14)
H3A H 0.3366 0.4266 -0.0928
H4A H 0.3924 0.3793 -0.2355
loop_
_geom_bond_atom_site_label_1
_geom_bond_atom_site_label_2
_geom_bond_site_symmetry_1
_geom_bond_site_symmetry_2
Mn1 O1 1_555 1_555
O1 C1 1_555 1_555
O2 C1 1_555 1_555
O3 Mn1 1_555 1_555
C1 H1 1_555 1_555
C2 O3 1_555 1_555
H2 C2 1_555 1_555
N1 H3 1_555 1_555
H4 N1 1_555 1_555
N2 H5 1_555 1_555
C3 N1 1_555 1_555
O3A C2 1_555 1_555
O1B Mn1 1_555 1_555
O2B C1B 1_555 1_555
C1B O1B 1_555 1_555
H1B C1B 1_555 1_555
Mn1A O3A 1_555 1_555
Mn1E O2B 1_555 1_555
Mn1E_2 O2 1_555 1_555
O2E Mn1 1_555 1_555
O2G Mn1 1_555 1_555
O3B Mn1 1_555 1_555
H5A N2 1_555 1_555
N1A C3 1_555 1_555
H3A N1A 1_555 1_555
H4A N1A 1_555 1_555
N2 C3 1_555 1_555

#END
