
#######################################################################
#
#                 Cambridge Crystallographic Data Centre
#                                CCDC 
#
#######################################################################
#
# If this CIF has been generated from an entry in the Cambridge 
# Structural Database, then it will include bibliographic, chemical, 
# crystal, experimental, refinement or atomic coordinate data resulting 
# from the CCDC's data processing and validation procedures.
#
#######################################################################

data_YUKTUU04
_chemical_formula_moiety         '(C4 H9 Mn1 N3 O6)n'
_symmetry_cell_setting           orthorhombic
_symmetry_space_group_name_H-M   'P n n a'
_symmetry_Int_Tables_number      52
_space_group_name_Hall           '-P 2a 2bc'
loop_
_symmetry_equiv_pos_site_id
_symmetry_equiv_pos_as_xyz
1 x,y,z
2 1/2-x,-y,z
3 x,1/2-y,1/2-z
4 1/2-x,1/2+y,1/2-z
5 -x,-y,-z
6 1/2+x,y,-z
7 -x,1/2+y,1/2+z
8 1/2+x,1/2-y,1/2+z
_cell_length_a                   8.5389(3)
_cell_length_b                   11.9989(4)
_cell_length_c                   9.0517(3)
_cell_angle_alpha                90
_cell_angle_beta                 90
_cell_angle_gamma                90
_cell_volume                     927.414
loop_
_atom_site_label
_atom_site_type_symbol
_atom_site_fract_x
_atom_site_fract_y
_atom_site_fract_z
Mn1 Mn 0.24973(3) 0.7500 0.2500
O1 O 0.44373(13) 0.69164(9) 0.38812(11)
O2 O 0.59674(14) 0.68051(8) 0.58378(12)
O3 O 0.24494(13) 0.59234(9) 0.12967(11)
C1 C 0.48185(18) 0.71704(14) 0.51538(16)
H1 H 0.4186 0.7682 0.5644
C2 C 0.2500 0.5000 0.1903(2)
H2 H 0.2500 0.5000 0.2931
O3A O 0.25506(13) 0.40766(9) 0.12967(11)
O1B O 0.44373(13) 0.80836(9) 0.11188(11)
O2B O 0.59674(14) 0.81949(8) -0.08378(12)
C1B C 0.48185(18) 0.78296(14) -0.01538(16)
H1B H 0.4186 0.7318 -0.0644
Mn1A Mn 0.25027(3) 0.2500 0.2500
Mn1E Mn 0.74973(3) 0.7500 -0.2500
Mn1E_2 Mn 0.74973(3) 0.7500 0.7500
O2E O 0.09674(14) 0.68051(8) 0.41622(12)
O2G O 0.09674(14) 0.81949(8) 0.08378(12)
O3B O 0.24494(13) 0.90766(9) 0.37033(11)
N1 N 0.1646(2) 0.57326(12) -0.18739(15)
H3 H 0.1644 0.5734 -0.0924
H4 H 0.1090 0.6209 -0.2352
N2 N 0.2500 0.5000 -0.4055(2)
H5 H 0.3057 0.4522 -0.4530
C3 C 0.2500 0.5000 -0.2597(2)
H5A H 0.1943 0.5478 -0.4530
N1A N 0.3354(2) 0.42674(12) -0.18739(15)
H3A H 0.3356 0.4266 -0.0924
H4A H 0.3910 0.3791 -0.2352
loop_
_geom_bond_atom_site_label_1
_geom_bond_atom_site_label_2
_geom_bond_site_symmetry_1
_geom_bond_site_symmetry_2
Mn1 O1 1_555 1_555
O1 C1 1_555 1_555
O2 C1 1_555 1_555
O3 Mn1 1_555 1_555
C1 H1 1_555 1_555
C2 O3 1_555 1_555
H2 C2 1_555 1_555
N1 H3 1_555 1_555
H4 N1 1_555 1_555
N2 H5 1_555 1_555
C3 N1 1_555 1_555
O3A C2 1_555 1_555
O1B Mn1 1_555 1_555
O2B C1B 1_555 1_555
C1B O1B 1_555 1_555
H1B C1B 1_555 1_555
Mn1A O3A 1_555 1_555
Mn1E O2B 1_555 1_555
Mn1E_2 O2 1_555 1_555
O2E Mn1 1_555 1_555
O2G Mn1 1_555 1_555
O3B Mn1 1_555 1_555
H5A N2 1_555 1_555
N1A C3 1_555 1_555
H3A N1A 1_555 1_555
H4A N1A 1_555 1_555
N2 C3 1_555 1_555

#END
