
#######################################################################
#
#                 Cambridge Crystallographic Data Centre
#                                CCDC 
#
#######################################################################
#
# If this CIF has been generated from an entry in the Cambridge 
# Structural Database, then it will include bibliographic, chemical, 
# crystal, experimental, refinement or atomic coordinate data resulting 
# from the CCDC's data processing and validation procedures.
#
#######################################################################

data_QUSRUT
_chemical_formula_moiety         '(C30 H34 N12 O38 U5)n'
_symmetry_cell_setting           triclinic
_symmetry_space_group_name_H-M   'P -1'
_symmetry_Int_Tables_number      2
_space_group_name_Hall           '-P 1'
loop_
_symmetry_equiv_pos_site_id
_symmetry_equiv_pos_as_xyz
1 x,y,z
2 -x,-y,-z
_cell_length_a                   14.533(3)
_cell_length_b                   15.479(4)
_cell_length_c                   15.666(4)
_cell_angle_alpha                74.643(4)
_cell_angle_beta                 74.576(4)
_cell_angle_gamma                81.431(4)
_cell_volume                     3264.22
loop_
_atom_site_label
_atom_site_type_symbol
_atom_site_fract_x
_atom_site_fract_y
_atom_site_fract_z
U1 U 0.45585(4) 0.34330(4) 0.76294(4)
U2 U 0.52106(5) 0.85895(4) 0.82052(4)
U3 U 0.26824(5) 0.92117(4) 0.58451(4)
U4 U 0.84190(4) 0.49701(4) 0.80762(3)
U5 U 0.81348(4) 0.52101(3) 0.43292(3)
C1 C 0.3822(11) 0.5358(10) 0.6085(9)
C2 C 0.4534(11) 0.6039(11) 0.5918(9)
H1 H 0.4995 0.6021 0.5346
H2 H 0.4194 0.6633 0.5846
C3 C 0.6424(10) 0.4797(9) 0.6355(10)
C4 C 0.6102(10) 0.5730(11) 0.6373(10)
H3 H 0.6366 0.6109 0.5781
H4 H 0.6357 0.5891 0.6817
C5 C 0.6685(12) 0.6601(11) 0.8673(10)
C6 C 0.6006(10) 0.5912(10) 0.9350(10)
H5 H 0.6125 0.5360 0.9142
H6 H 0.6160 0.5777 0.9940
C7 C 0.4633(11) 0.7265(10) 1.0494(10)
C8 C 0.4434(11) 0.6380(10) 1.0356(9)
H7 H 0.4599 0.5892 1.0839
H8 H 0.3755 0.6388 1.0398
C9 C 0.1926(11) 0.7706(11) 0.7145(11)
C10 C 0.1735(10) 0.6774(9) 0.7746(10)
H9 H 0.1049 0.6739 0.7978
H10 H 0.1973 0.6333 0.7383
C11 C 0.1666(10) 0.6204(12) 1.0182(10)
C12 C 0.1709(11) 0.6919(11) 0.9300(11)
H11 H 0.1064 0.7156 0.9251
H12 H 0.2049 0.7410 0.9306
C13 C 0.8822(11) 0.6146(11) 0.5822(10)
C14 C 0.9211(11) 0.7034(10) 0.5409(10)
H13 H 0.8751 0.7492 0.5636
H14 H 0.9793 0.7034 0.5600
C15 C 1.0274(10) 0.6279(9) 0.3366(9)
C16 C 1.0297(10) 0.6989(10) 0.3889(10)
H15 H 1.0725 0.6746 0.4293
H16 H 1.0569 0.7513 0.3452
C17 C 0.6342(13) 0.8969(12) 0.5904(10)
C18 C 0.6082(12) 0.8285(12) 0.5489(11)
H17 H 0.6405 0.7703 0.5702
H18 H 0.5397 0.8231 0.5693
C19 C 0.5732(11) 0.9827(10) 0.3387(11)
C20 C 0.5585(10) 0.8953(11) 0.4019(11)
H19 H 0.5492 0.8541 0.3683
H20 H 0.4994 0.9013 0.4474
C21 C 0.6900(13) 0.7753(11) 0.1641(10)
C22 C 0.7595(12) 0.8486(12) 0.1365(12)
H21 H 0.7833 0.8617 0.0708
H22 H 0.7239 0.9028 0.1518
C23 C 0.3178(9) 0.6374(8) 0.8346(9)
C24 C 0.4567(9) 0.6052(9) 0.7443(9)
C25 C 0.4502(12) 0.6196(9) 0.8814(9)
C26 C 0.8699(10) 0.7703(10) 0.3996(9)
C27 C 0.7201(10) 0.8289(9) 0.4026(9)
C28 C 0.8219(12) 0.8206(10) 0.2675(11)
C29 C 0.9294(13) 0.8023(15) 0.1301(12)
H23 H 0.9293 0.7884 0.0733
H24 H 0.9602 0.7520 0.1674
C30 C 0.973(3) 0.890(2) 0.115(2)
N1 N 0.5047(8) 0.6005(8) 0.8054(8)
N2 N 0.3553(8) 0.6353(7) 0.9022(7)
N3 N 0.3612(8) 0.6238(8) 0.7527(8)
N4 N 0.5041(8) 0.5926(8) 0.6598(7)
N5 N 0.2190(8) 0.6553(8) 0.8513(8)
N6 N 0.4981(8) 0.6213(8) 0.9464(8)
N7 N 0.7870(8) 0.7914(7) 0.4482(7)
N8 N 0.7326(9) 0.8443(8) 0.3114(8)
N9 N 0.8954(8) 0.7885(10) 0.3052(8)
N10 N 0.6346(9) 0.8531(8) 0.4501(8)
N11 N 0.9424(9) 0.7266(8) 0.4402(8)
N12 N 0.8385(9) 0.8290(9) 0.1762(8)
O1 O 0.4037(7) 0.4083(7) 0.8436(7)
O2 O 0.5027(9) 0.2766(10) 0.6859(8)
O3 O 0.5915(9) 0.9246(8) 0.8489(9)
O4 O 0.4496(9) 0.7987(7) 0.7873(8)
O5 O 0.1731(10) 0.9982(8) 0.6233(9)
O6 O 0.3622(9) 0.8412(8) 0.5492(8)
O7 O 0.7284(7) 0.4695(7) 0.8102(7)
O8 O 0.9557(9) 0.5220(9) 0.8050(8)
O9 O 0.7401(7) 0.6212(7) 0.4235(6)
O10 O 0.8850(7) 0.4194(7) 0.4379(7)
O11 O 0.3089(8) 0.5599(7) 0.5786(7)
O12 O 0.4011(8) 0.4559(7) 0.6511(7)
O13 O 0.5962(8) 0.4160(7) 0.6978(8)
O14 O 0.7185(7) 0.4603(7) 0.5824(7)
O15 O 0.7556(7) 0.6299(6) 0.8465(7)
O16 O 0.6384(8) 0.7370(7) 0.8386(8)
O17 O 0.4864(9) 0.7893(7) 0.9843(7)
O18 O 0.4476(7) 0.7287(7) 1.1329(6)
O19 O 0.2378(8) 0.8218(7) 0.7376(7)
O20 O 0.1680(8) 0.7927(8) 0.6407(7)
O21 O 0.1856(8) 0.5409(7) 1.0255(6)
O22 O 0.1380(10) 0.6500(8) 1.0912(7)
O23 O 0.8569(10) 0.5961(10) 0.6659(8)
O24 O 0.8793(9) 0.5595(8) 0.5363(7)
O25 O 0.9555(7) 0.5895(8) 0.3484(7)
O26 O 1.1057(8) 0.6117(7) 0.2808(7)
O27 O 0.6297(11) 0.8731(9) 0.6747(8)
O28 O 0.6620(12) 0.9720(8) 0.5430(8)
O29 O 0.6253(10) 1.0312(7) 0.3504(8)
O30 O 0.5273(10) 1.0063(8) 0.2800(10)
O31 O 0.7081(8) 0.7017(7) 0.2142(8)
O32 O 0.6134(10) 0.7942(9) 0.1353(10)
O33 O 0.3771(11) 0.9252(10) 0.8997(10)
H25 H 0.3526 0.9662 0.8620
H26 H 0.3382 0.8850 0.9260
O34 O 0.1902(14) 0.9087(10) 0.4679(10)
H27 H 0.2052 0.9508 0.4205
H28 H 0.2087 0.8582 0.4544
O35 O 0.8264(9) 0.5402(9) 0.2703(8)
H29 H 0.8752 0.5684 0.2401
H30 H 0.8328 0.4887 0.2586
O36 O 1.0161(19) 0.9533(17) 0.1141(16)
O37 O 1.053(3) 0.860(3) 0.071(4)
H31 H 1.0524 0.8062 0.0762
U1A U 0.54415(4) 0.65670(4) 0.23706(4)
U1A_2 U 0.54415(4) 0.65670(4) 1.23706(4)
U2A U 0.47894(5) 1.14105(4) 0.17948(4)
U3A U 0.73176(5) 1.07883(4) 0.41549(4)
U4A U 0.15810(4) 0.50299(4) 1.19238(3)
U4A_2 U 1.15810(4) 0.50299(4) 0.19238(3)
U5A U 0.18652(4) 0.47899(3) 0.56708(3)
O11A O 0.6911(8) 0.4401(7) 0.4214(7)
O18A O 0.5524(7) 0.2713(7) 0.8671(6)
O21A O 0.8144(8) 0.4591(7) 0.9745(6)
O22A O 0.8620(10) 0.3500(8) 0.9088(7)
O26A O 0.8943(8) 0.3883(7) 0.7192(7)
O28A O 0.3380(12) 1.0280(8) 0.4570(8)
O29A O 0.3747(10) 0.9688(7) 0.6496(8)
O30A O 0.4727(10) 0.9937(8) 0.7200(10)
O31A O 0.2919(8) 0.2983(7) 0.7858(8)
O32A O 0.3866(10) 0.2058(9) 0.8647(10)
O38 O 0.8263(6) 0.0801(6) 0.8452(6)
H32 H 0.8126 0.0479 0.8993
H33 H 0.8432 0.0463 0.8079
H34 H 0.8720 0.1113 0.8392
loop_
_geom_bond_atom_site_label_1
_geom_bond_atom_site_label_2
_geom_bond_site_symmetry_1
_geom_bond_site_symmetry_2
U1 O1 1_555 1_555
U2 O3 1_555 1_555
U3 O5 1_555 1_555
U4 O7 1_555 1_555
U5 O9 1_555 1_555
C1 C2 1_555 1_555
C2 H1 1_555 1_555
H2 C2 1_555 1_555
C3 C4 1_555 1_555
C4 H3 1_555 1_555
H4 C4 1_555 1_555
C5 C6 1_555 1_555
C6 H5 1_555 1_555
H6 C6 1_555 1_555
C7 C8 1_555 1_555
C8 H7 1_555 1_555
H8 C8 1_555 1_555
C9 C10 1_555 1_555
C10 H9 1_555 1_555
H10 C10 1_555 1_555
C11 C12 1_555 1_555
C12 H11 1_555 1_555
H12 C12 1_555 1_555
C13 C14 1_555 1_555
C14 H13 1_555 1_555
H14 C14 1_555 1_555
C15 C16 1_555 1_555
C16 H15 1_555 1_555
H16 C16 1_555 1_555
C17 C18 1_555 1_555
C18 H17 1_555 1_555
H18 C18 1_555 1_555
C19 C20 1_555 1_555
C20 H19 1_555 1_555
H20 C20 1_555 1_555
C21 C22 1_555 1_555
C22 H21 1_555 1_555
H22 C22 1_555 1_555
C23 N2 1_555 1_555
C24 N1 1_555 1_555
C25 N1 1_555 1_555
C26 N7 1_555 1_555
C27 N7 1_555 1_555
C28 N8 1_555 1_555
C29 H23 1_555 1_555
H24 C29 1_555 1_555
C30 C29 1_555 1_555
N2 C25 1_555 1_555
N3 C23 1_555 1_555
N4 C2 1_555 1_555
N5 C10 1_555 1_555
N6 C6 1_555 1_555
N8 C27 1_555 1_555
N9 C26 1_555 1_555
N10 C18 1_555 1_555
N11 C14 1_555 1_555
N12 C22 1_555 1_555
O2 U1 1_555 1_555
O4 U2 1_555 1_555
O6 U3 1_555 1_555
O8 U4 1_555 1_555
O10 U5 1_555 1_555
O11 C1 1_555 1_555
O12 U1 1_555 1_555
O13 U1 1_555 1_555
O14 U5 1_555 1_555
O15 U4 1_555 1_555
O16 U2 1_555 1_555
O17 U2 1_555 1_555
O18 C7 1_555 1_555
O19 U3 1_555 1_555
O20 U3 1_555 1_555
O21 C11 1_555 1_555
O22 C11 1_555 1_555
O23 U4 1_555 1_555
O24 U5 1_555 1_555
O25 U5 1_555 1_555
O26 C15 1_555 1_555
O27 U2 1_555 1_555
O28 C17 1_555 1_555
O29 C19 1_555 1_555
O30 C19 1_555 1_555
O31 C21 1_555 1_555
O32 C21 1_555 1_555
O33 U2 1_555 1_555
H25 O33 1_555 1_555
H26 O33 1_555 1_555
O34 U3 1_555 1_555
H27 O34 1_555 1_555
H28 O34 1_555 1_555
O35 U5 1_555 1_555
H29 O35 1_555 1_555
H30 O35 1_555 1_555
O36 C30 1_555 1_555
O37 C30 1_555 1_555
H31 O37 1_555 1_555
O38 H32 1_555 1_555
H33 O38 1_555 1_555
H34 O38 1_555 1_555
U1A O31 1_555 1_555
U1A_2 O18 1_555 1_555
U2A O30 1_555 1_555
U3A O28 1_555 1_555
U4A O21 1_555 1_555
U4A_2 O26 1_555 1_555
U5A O11 1_555 1_555
O11A U5 1_555 1_555
O18A U1 1_555 1_555
O21A U4 1_555 1_555
O22A U4 1_555 1_555
O26A U4 1_555 1_555
O28A U3 1_555 1_555
O29A U3 1_555 1_555
O30A U2 1_555 1_555
O31A U1 1_555 1_555
O32A U1 1_555 1_555
C1 O12 1_555 1_555
C3 O13 1_555 1_555
C3 O14 1_555 1_555
C4 N4 1_555 1_555
C5 O15 1_555 1_555
C5 O16 1_555 1_555
C7 O17 1_555 1_555
C8 N6 1_555 1_555
C9 O19 1_555 1_555
C9 O20 1_555 1_555
C12 N5 1_555 1_555
C13 O23 1_555 1_555
C13 O24 1_555 1_555
C15 O25 1_555 1_555
C16 N11 1_555 1_555
C17 O27 1_555 1_555
C20 N10 1_555 1_555
C23 N5 1_555 1_555
C24 N3 1_555 1_555
C24 N4 1_555 1_555
C25 N6 1_555 1_555
C26 N11 1_555 1_555
C27 N10 1_555 1_555
C28 N9 1_555 1_555
C28 N12 1_555 1_555
C29 N12 1_555 1_555
O22 U4A 1_555 1_555
O29 U3A 1_555 1_555
O32 U1A 1_555 1_555

#END
