
#######################################################################
#
#                 Cambridge Crystallographic Data Centre
#                                CCDC 
#
#######################################################################
#
# If this CIF has been generated from an entry in the Cambridge 
# Structural Database, then it will include bibliographic, chemical, 
# crystal, experimental, refinement or atomic coordinate data resulting 
# from the CCDC's data processing and validation procedures.
#
#######################################################################

data_QUSRIH
_chemical_formula_moiety         '(C25 H28 N8 O19 U2)n'
_symmetry_cell_setting           monoclinic
_symmetry_space_group_name_H-M   'P 21/n'
_symmetry_Int_Tables_number      14
_space_group_name_Hall           '-P 2yn'
loop_
_symmetry_equiv_pos_site_id
_symmetry_equiv_pos_as_xyz
1 x,y,z
2 1/2-x,1/2+y,1/2-z
3 -x,-y,-z
4 1/2+x,1/2-y,1/2+z
_cell_length_a                   11.460(4)
_cell_length_b                   19.968(6)
_cell_length_c                   14.949(5)
_cell_angle_alpha                90
_cell_angle_beta                 99.628(5)
_cell_angle_gamma                90
_cell_volume                     3372.64
loop_
_atom_site_label
_atom_site_type_symbol
_atom_site_fract_x
_atom_site_fract_y
_atom_site_fract_z
U1 U 0.732951(18) 0.532709(10) 0.855911(13)
U2 U 0.245519(17) 0.613471(10) 0.587095(14)
C1 C 0.6719(5) 0.5632(3) 0.6678(4)
C2 C 0.8449(5) 0.5097(3) 0.4907(4)
C3 C 1.0719(4) 0.7336(2) 0.4697(3)
C4 C 0.8865(5) 0.9311(3) 0.5605(4)
C5 C 0.4308(5) 0.9071(3) 0.4657(4)
C6 C 0.4208(5) 0.7523(3) 0.6257(4)
C7 C 0.6547(4) 0.5725(3) 0.5666(4)
H1 H 0.6482 0.5289 0.5375
H2 H 0.5812 0.5964 0.5468
C8 C 0.8631(5) 0.5737(3) 0.5428(4)
H3 H 0.8956 0.5642 0.6057
H4 H 0.9192 0.6016 0.5180
C9 C 1.0556(4) 0.7736(3) 0.5531(4)
H5 H 1.0594 0.7430 0.6038
H6 H 1.1214 0.8045 0.5672
C10 C 0.9422(5) 0.8792(2) 0.5082(4)
H7 H 0.8988 0.8779 0.4467
H8 H 1.0225 0.8932 0.5050
C11 C 0.5307(5) 0.8764(3) 0.5286(4)
H9 H 0.6042 0.8966 0.5182
H10 H 0.5214 0.8862 0.5906
C12 C 0.4346(4) 0.7650(3) 0.5282(3)
H11 H 0.4384 0.7222 0.4981
H12 H 0.3648 0.7883 0.4978
C13 C 0.7505(5) 0.6779(3) 0.5398(3)
C14 C 0.8429(4) 0.7763(3) 0.5390(3)
C15 C 0.6456(4) 0.7734(3) 0.5292(3)
N1 N 0.8533(4) 0.7091(2) 0.5431(3)
N2 N 0.7419(4) 0.8115(2) 0.5300(3)
N3 N 0.6441(4) 0.7066(2) 0.5365(3)
N4 N 0.7511(4) 0.6093(2) 0.5381(3)
N5 N 0.9462(4) 0.8115(2) 0.5454(3)
N6 N 0.5381(4) 0.8038(2) 0.5176(3)
O1 O 0.6395(4) 0.5964(2) 0.8830(3)
O2 O 0.8273(3) 0.47123(19) 0.8231(3)
O3 O 0.1364(3) 0.62435(19) 0.6567(3)
O4 O 0.3576(3) 0.59880(19) 0.5208(3)
O5 O 0.6040(3) 0.52415(18) 0.7023(3)
O6 O 0.7554(3) 0.5930(2) 0.7177(3)
O7 O 0.8857(3) 0.45555(18) 0.5264(3)
O8 O 0.7847(4) 0.5092(2) 0.4126(3)
O9 O 1.1492(3) 0.68658(19) 0.4836(2)
O10 O 1.0173(3) 0.7481(2) 0.3960(3)
H13 H 0.9775 0.7159 0.3749
O11 O 0.8162(4) 0.9721(2) 0.5154(3)
O12 O 0.9114(3) 0.93766(19) 0.6445(3)
O13 O 0.3732(4) 0.9529(2) 0.4956(3)
O14 O 0.4026(4) 0.8888(2) 0.3842(3)
O15 O 0.4815(4) 0.7818(3) 0.6868(3)
H14 H 0.4502 0.7803 0.7323
O16 O 0.3380(3) 0.7103(2) 0.6368(3)
O17 O 0.3743(4) 0.5688(2) 0.7175(3)
H15 H 0.4105 0.6009 0.7477
H16 H 0.3332 0.5477 0.7506
U1A U 0.767049(18) 1.032709(10) 0.644089(13)
U1C U 0.232951(18) 0.967291(10) 0.355911(13)
U2_2 U 1.245519(17) 0.613471(10) 0.587095(14)
U2B U 0.754481(17) 0.386529(10) 0.412905(14)
O7B O 0.1143(3) 0.54445(18) 0.4736(3)
O8B O 0.2153(4) 0.4908(2) 0.5874(3)
O9_2 O 0.1492(3) 0.68658(19) 0.4836(2)
O11A O 0.6838(4) 0.4721(2) 0.9846(3)
O12A O 0.5886(3) 0.43766(19) 0.8555(3)
O13C O 0.8732(4) 0.5471(2) 0.9956(3)
O14C O 0.9026(4) 0.6112(2) 0.8842(3)
C16 C 0.7457(6) 0.6483(5) 0.2848(5)
H17 H 0.7873 0.6097 0.2754
C17 C 0.6242(5) 0.6463(4) 0.2805(4)
H18 H 0.5839 0.6060 0.2678
C18 C 0.5623(5) 0.7033(3) 0.2949(3)
C19 C 0.6242(5) 0.7631(4) 0.3119(4)
H19 H 0.5853 0.8027 0.3211
C20 C 0.7450(7) 0.7620(5) 0.3147(4)
H20 H 0.7876 0.8017 0.3254
C21 C 0.4325(5) 0.7006(3) 0.2919(3)
C22 C 0.3800(5) 0.6434(3) 0.3174(4)
H21 H 0.4252 0.6053 0.3340
C23 C 0.2607(5) 0.6428(3) 0.3184(4)
H22 H 0.2253 0.6047 0.3375
C24 C 0.2434(5) 0.7520(3) 0.2670(4)
H23 H 0.1954 0.7888 0.2494
C25 C 0.3620(5) 0.7559(3) 0.2664(4)
H24 H 0.3952 0.7953 0.2491
N7 N 0.8019(5) 0.7061(5) 0.3026(4)
N8 N 0.1958(4) 0.6961(3) 0.2923(3)
O18 O 0.2344(6) 1.0050(4) 0.6704(4)
H25 H 0.1865 0.9881 0.6266
H26 H 0.3034 0.9895 0.6701
O19 O 0.5206(6) 0.0644(7) 0.2154(6)
H27 H 0.5282 0.0259 0.2398
H28 H 0.4505 0.0689 0.1866
loop_
_geom_bond_atom_site_label_1
_geom_bond_atom_site_label_2
_geom_bond_site_symmetry_1
_geom_bond_site_symmetry_2
U1 O1 1_555 1_555
U2 O3 1_555 1_555
C1 C7 1_555 1_555
C2 C8 1_555 1_555
C3 C9 1_555 1_555
C4 C10 1_555 1_555
C5 C11 1_555 1_555
C6 C12 1_555 1_555
C7 H1 1_555 1_555
H2 C7 1_555 1_555
C8 H3 1_555 1_555
H4 C8 1_555 1_555
C9 H5 1_555 1_555
H6 C9 1_555 1_555
C10 H7 1_555 1_555
H8 C10 1_555 1_555
C11 H9 1_555 1_555
H10 C11 1_555 1_555
C12 H11 1_555 1_555
H12 C12 1_555 1_555
C13 N1 1_555 1_555
C14 N1 1_555 1_555
C15 N2 1_555 1_555
N2 C14 1_555 1_555
N3 C13 1_555 1_555
N4 C7 1_555 1_555
N5 C9 1_555 1_555
N6 C11 1_555 1_555
O2 U1 1_555 1_555
O4 U2 1_555 1_555
O5 U1 1_555 1_555
O6 U1 1_555 1_555
O7 C2 1_555 1_555
O8 C2 1_555 1_555
O9 C3 1_555 1_555
O10 C3 1_555 1_555
H13 O10 1_555 1_555
O11 C4 1_555 1_555
O12 C4 1_555 1_555
O13 C5 1_555 1_555
O14 C5 1_555 1_555
O15 C6 1_555 1_555
H14 O15 1_555 1_555
O16 U2 1_555 1_555
O17 U2 1_555 1_555
H15 O17 1_555 1_555
H16 O17 1_555 1_555
C16 H17 1_555 1_555
C17 C16 1_555 1_555
H18 C17 1_555 1_555
C18 C17 1_555 1_555
C19 C18 1_555 1_555
H19 C19 1_555 1_555
C20 C19 1_555 1_555
H20 C20 1_555 1_555
C21 C18 1_555 1_555
C22 C21 1_555 1_555
H21 C22 1_555 1_555
C23 C22 1_555 1_555
H22 C23 1_555 1_555
C24 H23 1_555 1_555
C25 C21 1_555 1_555
H24 C25 1_555 1_555
N7 C16 1_555 1_555
N8 C23 1_555 1_555
O18 H25 1_555 1_555
H26 O18 1_555 1_555
O19 H27 1_555 1_555
H28 O19 1_555 1_555
U1A O11 1_555 1_555
U1C O13 1_555 1_555
U2_2 O9 1_555 1_555
U2B O7 1_555 1_555
O7B U2 1_555 1_555
O8B U2 1_555 1_555
O9_2 U2 1_555 1_555
O11A U1 1_555 1_555
O12A U1 1_555 1_555
O13C U1 1_555 1_555
O14C U1 1_555 1_555
C1 O5 1_555 1_555
C1 O6 1_555 1_555
C6 O16 1_555 1_555
C8 N4 1_555 1_555
C10 N5 1_555 1_555
C12 N6 1_555 1_555
C13 N4 1_555 1_555
C14 N5 1_555 1_555
C15 N3 1_555 1_555
C15 N6 1_555 1_555
O8 U2B 1_555 1_555
O12 U1A 1_555 1_555
O14 U1C 1_555 1_555
C20 N7 1_555 1_555
C24 C25 1_555 1_555
C24 N8 1_555 1_555

#END
