
#######################################################################
#
#                 Cambridge Crystallographic Data Centre
#                                CCDC 
#
#######################################################################
#
# If this CIF has been generated from an entry in the Cambridge 
# Structural Database, then it will include bibliographic, chemical, 
# crystal, experimental, refinement or atomic coordinate data resulting 
# from the CCDC's data processing and validation procedures.
#
#######################################################################

data_MIVFUU
_chemical_formula_moiety         '(C72 H24 Cl3 N96 O12 Zn36)n'
_symmetry_cell_setting           cubic
_symmetry_space_group_name_H-M   'P m 3 m'
_symmetry_Int_Tables_number      221
_space_group_name_Hall           '-P 4 2 3'
loop_
_symmetry_equiv_pos_site_id
_symmetry_equiv_pos_as_xyz
1 x,y,z
2 -x,-y,z
3 -x,y,-z
4 x,-y,-z
5 z,x,y
6 z,-x,-y
7 -z,-x,y
8 -z,x,-y
9 y,z,x
10 -y,z,-x
11 y,-z,-x
12 -y,-z,x
13 y,x,-z
14 -y,-x,-z
15 y,-x,z
16 -y,x,z
17 x,z,-y
18 -x,z,y
19 -x,-z,-y
20 x,-z,y
21 z,y,-x
22 z,-y,x
23 -z,y,x
24 -z,-y,-x
25 -x,-y,-z
26 x,y,-z
27 x,-y,z
28 -x,y,z
29 -z,-x,-y
30 -z,x,y
31 z,x,-y
32 z,-x,y
33 -y,-z,-x
34 y,-z,x
35 -y,z,x
36 y,z,-x
37 -y,-x,z
38 y,x,z
39 -y,x,-z
40 y,-x,-z
41 -x,-z,y
42 x,-z,-y
43 x,z,y
44 -x,z,-y
45 -z,-y,x
46 -z,y,-x
47 z,-y,-x
48 z,y,x
_cell_length_a                   18.8285(4)
_cell_length_b                   18.8285(4)
_cell_length_c                   18.8285(4)
_cell_angle_alpha                90
_cell_angle_beta                 90
_cell_angle_gamma                90
_cell_volume                     6674.94
loop_
_atom_site_label
_atom_site_type_symbol
_atom_site_fract_x
_atom_site_fract_y
_atom_site_fract_z
Zn1 Zn 0.0000 0.359(3) 0.5000
Cl1 Cl 0.0000 0.5000 0.5000
O1 O 0.0000 0.2484(9) 0.5000
N1 N 0.0788(3) 0.3702(3) 0.4188(3)
N2 N 0.1339(2) 0.3263(3) 0.4089(3)
C1 C 0.1666(5) 0.3511(3) 0.3511(3)
C2 C 0.2302(4) 0.3206(3) 0.3206(3)
C3 C 0.2605(4) 0.3500(5) 0.2605(4)
H1 H 0.2401 0.3901 0.2401
Zn2 Zn 0.1272(2) 0.2624(2) 0.5000
N1D N 0.4188(3) 0.0788(3) 0.3702(3)
N2D N 0.4089(3) 0.1339(2) 0.3263(3)
C1D C 0.3511(3) 0.1666(5) 0.3511(3)
C2D C 0.3206(3) 0.2302(4) 0.3206(3)
C3D C 0.2605(4) 0.2605(4) 0.3500(5)
H1D H 0.2401 0.2401 0.3901
N1H N 0.3702(3) 0.4188(3) 0.0788(3)
N2H N 0.3263(3) 0.4089(3) 0.1339(2)
C1H C 0.3511(3) 0.3511(3) 0.1666(5)
C2H C 0.3206(3) 0.3206(3) 0.2302(4)
C3H C 0.3500(5) 0.2605(4) 0.2605(4)
H1H H 0.3901 0.2401 0.2401
N1KA N 0.3702(3) 0.0788(3) 0.4188(3)
N2KA N 0.3263(3) 0.1339(2) 0.4089(3)
N1PA N 0.0788(3) 0.4188(3) 0.3702(3)
N2PA N 0.1339(2) 0.4089(3) 0.3263(3)
N1UA N 0.4188(3) 0.3702(3) 0.0788(3)
N2UA N 0.4089(3) 0.3263(3) 0.1339(2)
Zn1A Zn 0.0000 0.641(3) 0.5000
O1A O 0.0000 0.7516(9) 0.5000
Zn2A Zn -0.1272(2) 0.7376(2) 0.5000
Zn2B Zn -0.1272(2) 0.2624(2) 0.5000
N1C N 0.0788(3) 0.6298(3) 0.5812(3)
N2C N 0.1339(2) 0.6737(3) 0.5911(3)
C1C C 0.1666(5) 0.6489(3) 0.6489(3)
C2C C 0.2302(4) 0.6794(3) 0.6794(3)
C3C C 0.2605(4) 0.6500(5) 0.7395(4)
H1C H 0.2401 0.6099 0.7599
Zn2C Zn 0.1272(2) 0.7376(2) 0.5000
N1E N 0.4188(3) 0.9212(3) 0.6298(3)
N2E N 0.4089(3) 0.8661(2) 0.6737(3)
C1E C 0.3511(3) 0.8334(5) 0.6489(3)
C2E C 0.3206(3) 0.7698(4) 0.6794(3)
C3E C 0.2605(4) 0.7395(4) 0.6500(5)
H1E H 0.2401 0.7599 0.6099
N1J N 0.3702(3) 0.5812(3) 0.9212(3)
N2J N 0.3263(3) 0.5911(3) 0.8661(2)
C1J C 0.3511(3) 0.6489(3) 0.8334(5)
C2J C 0.3206(3) 0.6794(3) 0.7698(4)
C3J C 0.3500(5) 0.7395(4) 0.7395(4)
H1J H 0.3901 0.7599 0.7599
N1MA N 0.3702(3) 0.9212(3) 0.5812(3)
N2MA N 0.3263(3) 0.8661(2) 0.5911(3)
N1OA N 0.0788(3) 0.5812(3) 0.6298(3)
N2OA N 0.1339(2) 0.5911(3) 0.6737(3)
N1TA N 0.4188(3) 0.6298(3) 0.9212(3)
N2TA N 0.4089(3) 0.6737(3) 0.8661(2)
Zn1D Zn 0.5000 0.0000 0.359(3)
Cl1D Cl 0.5000 0.0000 0.5000
O1D O 0.5000 0.0000 0.2484(9)
Zn2D Zn 0.5000 0.1272(2) 0.2624(2)
Zn1E Zn 0.5000 1.0000 0.641(3)
Cl1D_2 Cl 0.5000 1.0000 0.5000
O1E O 0.5000 1.0000 0.7516(9)
Zn2E Zn 0.5000 0.8728(2) 0.7376(2)
Zn1E_2 Zn 0.5000 0.0000 0.641(3)
O1E_2 O 0.5000 0.0000 0.7516(9)
N1G N 0.5812(3) 0.0788(3) 0.6298(3)
N2G N 0.5911(3) 0.1339(2) 0.6737(3)
C1G C 0.6489(3) 0.1666(5) 0.6489(3)
C2G C 0.6794(3) 0.2302(4) 0.6794(3)
C3G C 0.7395(4) 0.2605(4) 0.6500(5)
H1G H 0.7599 0.2401 0.6099
Zn2G Zn 0.5000 0.1272(2) 0.7376(2)
N1I N 0.6298(3) 0.4188(3) 0.9212(3)
N2I N 0.6737(3) 0.4089(3) 0.8661(2)
C1I C 0.6489(3) 0.3511(3) 0.8334(5)
C2I C 0.6794(3) 0.3206(3) 0.7698(4)
C3I C 0.6500(5) 0.2605(4) 0.7395(4)
H1I H 0.6099 0.2401 0.7599
N1B N 0.9212(3) 0.3702(3) 0.5812(3)
N2B N 0.8661(2) 0.3263(3) 0.5911(3)
C1B C 0.8334(5) 0.3511(3) 0.6489(3)
C2B C 0.7698(4) 0.3206(3) 0.6794(3)
C3B C 0.7395(4) 0.3500(5) 0.7395(4)
H1B H 0.7599 0.3901 0.7599
N1SA N 0.5812(3) 0.3702(3) 0.9212(3)
N2SA N 0.5911(3) 0.3263(3) 0.8661(2)
N1LA N 0.6298(3) 0.0788(3) 0.5812(3)
N2LA N 0.6737(3) 0.1339(2) 0.5911(3)
N1QA N 0.9212(3) 0.4188(3) 0.6298(3)
N2QA N 0.8661(2) 0.4089(3) 0.6737(3)
Zn1H Zn 0.359(3) 0.5000 0.0000
O1H O 0.2484(9) 0.5000 0.0000
Zn2H Zn 0.2624(2) 0.5000 0.1272(2)
Zn1H_2 Zn 0.359(3) 0.5000 1.0000
O1H_2 O 0.2484(9) 0.5000 1.0000
Zn2J Zn 0.2624(2) 0.5000 0.8728(2)
Zn1I Zn 0.641(3) 0.5000 0.0000
O1I O 0.7516(9) 0.5000 0.0000
N1K N 0.6298(3) 0.5812(3) 0.0788(3)
N2K N 0.6737(3) 0.5911(3) 0.1339(2)
C1K C 0.6489(3) 0.6489(3) 0.1666(5)
C2K C 0.6794(3) 0.6794(3) 0.2302(4)
C3K C 0.6500(5) 0.7395(4) 0.2605(4)
H1K H 0.6099 0.7599 0.2401
Zn2K Zn 0.7376(2) 0.5000 0.1272(2)
N1A N 0.9212(3) 0.6298(3) 0.4188(3)
N2A N 0.8661(2) 0.6737(3) 0.4089(3)
C1A C 0.8334(5) 0.6489(3) 0.3511(3)
C2A C 0.7698(4) 0.6794(3) 0.3206(3)
C3A C 0.7395(4) 0.6500(5) 0.2605(4)
H1A H 0.7599 0.6099 0.2401
N1F N 0.5812(3) 0.9212(3) 0.3702(3)
N2F N 0.5911(3) 0.8661(2) 0.3263(3)
C1F C 0.6489(3) 0.8334(5) 0.3511(3)
C2F C 0.6794(3) 0.7698(4) 0.3206(3)
C3F C 0.7395(4) 0.7395(4) 0.3500(5)
H1F H 0.7599 0.7599 0.3901
N1NA N 0.9212(3) 0.5812(3) 0.3702(3)
N2NA N 0.8661(2) 0.5911(3) 0.3263(3)
N1RA N 0.5812(3) 0.6298(3) 0.0788(3)
N2RA N 0.5911(3) 0.6737(3) 0.1339(2)
N1JA N 0.6298(3) 0.9212(3) 0.4188(3)
N2JA N 0.6737(3) 0.8661(2) 0.4089(3)
Zn1L Zn 0.359(3) 0.0000 0.5000
O1L O 0.2484(9) 0.0000 0.5000
N1L N 0.3702(3) 0.0788(3) 0.5812(3)
N2L N 0.3263(3) 0.1339(2) 0.5911(3)
C1L C 0.3511(3) 0.1666(5) 0.6489(3)
C2L C 0.3206(3) 0.2302(4) 0.6794(3)
C3L C 0.3500(5) 0.2605(4) 0.7395(4)
H1L H 0.3901 0.2401 0.7599
Zn2L Zn 0.2624(2) 0.1272(2) 0.5000
N1P N 0.0788(3) 0.4188(3) 0.6298(3)
N2P N 0.1339(2) 0.4089(3) 0.6737(3)
C1P C 0.1666(5) 0.3511(3) 0.6489(3)
C2P C 0.2302(4) 0.3206(3) 0.6794(3)
C3P C 0.2605(4) 0.2605(4) 0.6500(5)
H1P H 0.2401 0.2401 0.6099
N1T N 0.4188(3) 0.3702(3) 0.9212(3)
N2T N 0.4089(3) 0.3263(3) 0.8661(2)
C1T C 0.3511(3) 0.3511(3) 0.8334(5)
C2T C 0.3206(3) 0.3206(3) 0.7698(4)
C3T C 0.2605(4) 0.3500(5) 0.7395(4)
H1T H 0.2401 0.3901 0.7599
N1Y N 0.0788(3) 0.3702(3) 0.5812(3)
N2Y N 0.1339(2) 0.3263(3) 0.5911(3)
N1DA N 0.4188(3) 0.0788(3) 0.6298(3)
N2DA N 0.4089(3) 0.1339(2) 0.6737(3)
N1IA N 0.3702(3) 0.4188(3) 0.9212(3)
N2IA N 0.3263(3) 0.4089(3) 0.8661(2)
N1N N 0.3702(3) -0.0788(3) 0.4188(3)
N2N N 0.3263(3) -0.1339(2) 0.4089(3)
C1N C 0.3511(3) -0.1666(5) 0.3511(3)
C2N C 0.3206(3) -0.2302(4) 0.3206(3)
C3N C 0.3500(5) -0.2605(4) 0.2605(4)
H1N H 0.3901 -0.2401 0.2401
Zn2N Zn 0.2624(2) -0.1272(2) 0.5000
N1S N 0.0788(3) -0.4188(3) 0.3702(3)
N2S N 0.1339(2) -0.4089(3) 0.3263(3)
C1S C 0.1666(5) -0.3511(3) 0.3511(3)
C2S C 0.2302(4) -0.3206(3) 0.3206(3)
C3S C 0.2605(4) -0.2605(4) 0.3500(5)
H1S H 0.2401 -0.2401 0.3901
N1U N 0.4188(3) -0.3702(3) 0.0788(3)
N2U N 0.4089(3) -0.3263(3) 0.1339(2)
C1U C 0.3511(3) -0.3511(3) 0.1666(5)
C2U C 0.3206(3) -0.3206(3) 0.2302(4)
C3U C 0.2605(4) -0.3500(5) 0.2605(4)
H1U H 0.2401 -0.3901 0.2401
N1Z N 0.0788(3) -0.3702(3) 0.4188(3)
N2Z N 0.1339(2) -0.3263(3) 0.4089(3)
N1EA N 0.4188(3) -0.0788(3) 0.3702(3)
N2EA N 0.4089(3) -0.1339(2) 0.3263(3)
N1GA N 0.3702(3) -0.4188(3) 0.0788(3)
N2GA N 0.3263(3) -0.4089(3) 0.1339(2)
N1N_2 N 0.3702(3) 0.9212(3) 0.4188(3)
N2N_2 N 0.3263(3) 0.8661(2) 0.4089(3)
C1N_2 C 0.3511(3) 0.8334(5) 0.3511(3)
C2N_2 C 0.3206(3) 0.7698(4) 0.3206(3)
C3N_2 C 0.3500(5) 0.7395(4) 0.2605(4)
H1N_2 H 0.3901 0.7599 0.2401
Zn2N_2 Zn 0.2624(2) 0.8728(2) 0.5000
N1S_2 N 0.0788(3) 0.5812(3) 0.3702(3)
N2S_2 N 0.1339(2) 0.5911(3) 0.3263(3)
C1S_2 C 0.1666(5) 0.6489(3) 0.3511(3)
C2S_2 C 0.2302(4) 0.6794(3) 0.3206(3)
C3S_2 C 0.2605(4) 0.7395(4) 0.3500(5)
H1S_2 H 0.2401 0.7599 0.3901
N1U_2 N 0.4188(3) 0.6298(3) 0.0788(3)
N2U_2 N 0.4089(3) 0.6737(3) 0.1339(2)
C1U_2 C 0.3511(3) 0.6489(3) 0.1666(5)
C2U_2 C 0.3206(3) 0.6794(3) 0.2302(4)
C3U_2 C 0.2605(4) 0.6500(5) 0.2605(4)
H1U_2 H 0.2401 0.6099 0.2401
N1Z_2 N 0.0788(3) 0.6298(3) 0.4188(3)
N2Z_2 N 0.1339(2) 0.6737(3) 0.4089(3)
N1EA_2 N 0.4188(3) 0.9212(3) 0.3702(3)
N2EA_2 N 0.4089(3) 0.8661(2) 0.3263(3)
N1GA_2 N 0.3702(3) 0.5812(3) 0.0788(3)
N2GA_2 N 0.3263(3) 0.5911(3) 0.1339(2)
Zn1M Zn -0.359(3) 0.0000 0.5000
O1M O -0.2484(9) 0.0000 0.5000
N1O N -0.3702(3) 0.0788(3) 0.4188(3)
N2O N -0.3263(3) 0.1339(2) 0.4089(3)
C1O C -0.3511(3) 0.1666(5) 0.3511(3)
C2O C -0.3206(3) 0.2302(4) 0.3206(3)
C3O C -0.3500(5) 0.2605(4) 0.2605(4)
H1O H -0.3901 0.2401 0.2401
Zn2O Zn -0.2624(2) 0.1272(2) 0.5000
N1Q N -0.0788(3) 0.4188(3) 0.3702(3)
N2Q N -0.1339(2) 0.4089(3) 0.3263(3)
C1Q C -0.1666(5) 0.3511(3) 0.3511(3)
C2Q C -0.2302(4) 0.3206(3) 0.3206(3)
C3Q C -0.2605(4) 0.2605(4) 0.3500(5)
H1Q H -0.2401 0.2401 0.3901
N1V N -0.4188(3) 0.3702(3) 0.0788(3)
N2V N -0.4089(3) 0.3263(3) 0.1339(2)
C1V C -0.3511(3) 0.3511(3) 0.1666(5)
C2V C -0.3206(3) 0.3206(3) 0.2302(4)
C3V C -0.2605(4) 0.3500(5) 0.2605(4)
H1V H -0.2401 0.3901 0.2401
N1AA N -0.0788(3) 0.3702(3) 0.4188(3)
N2AA N -0.1339(2) 0.3263(3) 0.4089(3)
N1CA N -0.4188(3) 0.0788(3) 0.3702(3)
N2CA N -0.4089(3) 0.1339(2) 0.3263(3)
N1HA N -0.3702(3) 0.4188(3) 0.0788(3)
N2HA N -0.3263(3) 0.4089(3) 0.1339(2)
Zn2O_2 Zn 0.7376(2) 0.1272(2) 0.5000
Zn1P Zn 0.0000 0.5000 0.641(3)
O1P O 0.0000 0.5000 0.7516(9)
Zn2P Zn 0.1272(2) 0.5000 0.7376(2)
Zn1Q Zn 0.0000 0.5000 0.359(3)
O1Q O 0.0000 0.5000 0.2484(9)
Zn2Q Zn -0.1272(2) 0.5000 0.2624(2)
Zn2R Zn -0.1272(2) 0.5000 0.7376(2)
Zn2S Zn 0.1272(2) 0.5000 0.2624(2)
Zn2T Zn 0.5000 0.2624(2) 0.8728(2)
Zn2U Zn 0.5000 0.7376(2) 0.1272(2)
Zn2V Zn -0.5000 0.2624(2) 0.1272(2)
Zn2V_2 Zn 0.5000 0.2624(2) 0.1272(2)
Zn2W Zn 0.5000 0.7376(2) 0.8728(2)
Zn1_2 Zn 1.0000 0.359(3) 0.5000
Zn1A_2 Zn 0.0000 -0.359(3) 0.5000
Zn1A_3 Zn 1.0000 0.641(3) 0.5000
Zn1D_2 Zn -0.5000 0.0000 0.359(3)
Zn1D_3 Zn 0.5000 1.0000 0.359(3)
Zn1H_3 Zn 0.359(3) -0.5000 0.0000
Zn1I_2 Zn -0.359(3) 0.5000 0.0000
Zn1I_3 Zn 0.641(3) 0.5000 1.0000
Zn1L_2 Zn 0.359(3) 1.0000 0.5000
Zn1M_2 Zn 0.641(3) 0.0000 0.5000
Zn1M_3 Zn 0.641(3) 1.0000 0.5000
Zn1P_2 Zn 1.0000 0.5000 0.641(3)
Zn1Q_2 Zn -0.0000 -0.5000 0.359(3)
Zn1Q_3 Zn 1.0000 0.5000 0.359(3)
Zn1T Zn -0.5000 0.359(3) 0.0000
Zn1T_2 Zn 0.5000 0.359(3) 0.0000
Zn1T_3 Zn 0.5000 0.359(3) 1.0000
Zn1U Zn 0.5000 -0.359(3) 0.0000
Zn1U_2 Zn 0.5000 0.641(3) 0.0000
Zn1U_3 Zn 0.5000 0.641(3) 1.0000
Cl1D_3 Cl -0.5000 0.0000 0.5000
Cl1H Cl 0.5000 0.5000 0.0000
Cl1H_2 Cl 0.5000 0.5000 1.0000
O1L_2 O 0.2484(9) 1.0000 0.5000
O1M_2 O 0.7516(9) 0.0000 0.5000
O1T O -0.5000 0.2484(9) 0.0000
O1T_2 O 0.5000 0.2484(9) 0.0000
O1T_3 O 0.5000 0.2484(9) 1.0000
O1U O 0.5000 0.7516(9) 0.0000
O1U_2 O 0.5000 0.7516(9) 1.0000
N1A_2 N -0.0788(3) 0.6298(3) 0.4188(3)
N1B_2 N -0.0788(3) 0.3702(3) 0.5812(3)
N1E_2 N 0.4188(3) -0.0788(3) 0.6298(3)
N1F_2 N 0.5812(3) -0.0788(3) 0.3702(3)
N1G_2 N 0.5812(3) 1.0788(3) 0.6298(3)
N1H_2 N 0.3702(3) 0.4188(3) 1.0788(3)
N1I_2 N 0.6298(3) 0.4188(3) -0.0788(3)
N1J_2 N 0.3702(3) 0.5812(3) -0.0788(3)
N1M N -0.3702(3) -0.0788(3) 0.5812(3)
N1R N -0.0788(3) 0.5812(3) 0.6298(3)
N1X N -0.0788(3) 0.6298(3) 0.5812(3)
N1BA N 0.5812(3) -0.0788(3) 0.6298(3)
N1BA_2 N 0.5812(3) 0.9212(3) 0.6298(3)
N1CA_2 N 0.5812(3) 0.0788(3) 0.3702(3)
N1DA_2 N 0.4188(3) 1.0788(3) 0.6298(3)
N1FA N 0.6298(3) 0.5812(3) -0.0788(3)
N1GA_3 N 0.3702(3) 0.5812(3) 1.0788(3)
N1HA_2 N 0.6298(3) 0.4188(3) 0.0788(3)
N1IA_2 N 0.3702(3) 0.4188(3) -0.0788(3)
N1JA_2 N -0.3702(3) -0.0788(3) 0.4188(3)
N1LA_2 N -0.3702(3) 0.0788(3) 0.5812(3)
N1MA_2 N 0.3702(3) -0.0788(3) 0.5812(3)
N1NA_2 N -0.0788(3) 0.5812(3) 0.3702(3)
N1QA_2 N -0.0788(3) 0.4188(3) 0.6298(3)
N2A_2 N -0.1339(2) 0.6737(3) 0.4089(3)
N2B_2 N -0.1339(2) 0.3263(3) 0.5911(3)
N2O_2 N 0.6737(3) 0.1339(2) 0.4089(3)
N2R N -0.1339(2) 0.5911(3) 0.6737(3)
N2V_2 N 0.5911(3) 0.3263(3) 0.1339(2)
N2W N 0.5911(3) 0.6737(3) 0.8661(2)
N2X N -0.1339(2) 0.6737(3) 0.5911(3)
N2BA N 0.5911(3) 0.8661(2) 0.6737(3)
N2CA_2 N 0.5911(3) 0.1339(2) 0.3263(3)
N2HA_2 N 0.6737(3) 0.4089(3) 0.1339(2)
N2LA_2 N -0.3263(3) 0.1339(2) 0.5911(3)
N2MA_2 N 0.3263(3) -0.1339(2) 0.5911(3)
N2NA_2 N -0.1339(2) 0.5911(3) 0.3263(3)
N2QA_2 N -0.1339(2) 0.4089(3) 0.6737(3)
N2UA_2 N -0.5911(3) 0.3263(3) 0.1339(2)
Zn2A_2 Zn 0.8728(2) 0.7376(2) 0.5000
Zn2B_2 Zn 0.8728(2) 0.2624(2) 0.5000
Zn2C_2 Zn 0.1272(2) -0.2624(2) 0.5000
Zn2D_2 Zn -0.5000 0.1272(2) 0.2624(2)
Zn2E_2 Zn 0.5000 -0.1272(2) 0.7376(2)
Zn2F Zn 0.5000 -0.1272(2) 0.2624(2)
Zn2F_2 Zn 0.5000 0.8728(2) 0.2624(2)
Zn2G_2 Zn 0.5000 1.1272(2) 0.7376(2)
Zn2H_2 Zn 0.2624(2) -0.5000 0.1272(2)
Zn2H_3 Zn 0.2624(2) 0.5000 1.1272(2)
Zn2I Zn 0.7376(2) 0.5000 -0.1272(2)
Zn2I_2 Zn 0.7376(2) 0.5000 0.8728(2)
Zn2J_2 Zn 0.2624(2) 0.5000 -0.1272(2)
Zn2K_2 Zn -0.2624(2) 0.5000 0.1272(2)
Zn2M Zn -0.2624(2) -0.1272(2) 0.5000
Zn2M_2 Zn 0.7376(2) 0.8728(2) 0.5000
Zn2Q_2 Zn 0.8728(2) 0.5000 0.2624(2)
Zn2R_2 Zn 0.8728(2) 0.5000 0.7376(2)
Zn2S_2 Zn 0.1272(2) -0.5000 0.2624(2)
Zn2U_2 Zn 0.5000 -0.2624(2) 0.1272(2)
loop_
_geom_bond_atom_site_label_1
_geom_bond_atom_site_label_2
_geom_bond_site_symmetry_1
_geom_bond_site_symmetry_2
Zn1 Cl1 1_555 1_555
Cl1 Zn1A 1_555 1_555
O1 Zn1 1_555 1_555
N1 Zn1 1_555 1_555
N2 N1 1_555 1_555
C1 N2 1_555 1_555
C2 C1 1_555 1_555
C3 C2 1_555 1_555
H1 C3 1_555 1_555
Zn2 O1 1_555 1_555
N1D N2D 1_555 1_555
N2D C1D 1_555 1_555
C1D C2D 1_555 1_555
C2D C3D 1_555 1_555
C3D C2 1_555 1_555
H1D C3D 1_555 1_555
N1H N2H 1_555 1_555
N2H C1H 1_555 1_555
C1H C2H 1_555 1_555
C2H C3 1_555 1_555
C3H C2D 1_555 1_555
H1H C3H 1_555 1_555
N1KA N1D 1_555 1_555
N2KA C1D 1_555 1_555
N1PA N1 1_555 1_555
N2PA C1 1_555 1_555
N1UA N1H 1_555 1_555
N2UA C1H 1_555 1_555
Zn1A O1A 1_555 1_555
O1A Zn2A 1_555 1_555
Zn2A N2A_2 1_555 1_555
Zn2B O1 1_555 1_555
N1C Zn1A 1_555 1_555
N2C N1C 1_555 1_555
C1C N2C 1_555 1_555
C2C C1C 1_555 1_555
C3C C2C 1_555 1_555
H1C C3C 1_555 1_555
Zn2C O1A 1_555 1_555
N1E N2E 1_555 1_555
N2E C1E 1_555 1_555
C1E C2E 1_555 1_555
C2E C3E 1_555 1_555
C3E C2C 1_555 1_555
H1E C3E 1_555 1_555
N1J N2J 1_555 1_555
N2J C1J 1_555 1_555
C1J C2J 1_555 1_555
C2J C3C 1_555 1_555
C3J C2E 1_555 1_555
H1J C3J 1_555 1_555
N1MA N1E 1_555 1_555
N2MA C1E 1_555 1_555
N1OA N1C 1_555 1_555
N2OA C1C 1_555 1_555
N1TA N1J 1_555 1_555
N2TA C1J 1_555 1_555
Zn1D N1D 1_555 1_555
Cl1D Zn1D 1_555 1_555
O1D Zn1D 1_555 1_555
Zn2D N2D 1_555 1_555
Zn1E N1E 1_555 1_555
Cl1D_2 Zn1E 1_555 1_555
O1E Zn1E 1_555 1_555
Zn2E N2E 1_555 1_555
Zn1E_2 Cl1D 1_555 1_555
O1E_2 Zn1E_2 1_555 1_555
N1G Zn1E_2 1_555 1_555
N2G N1G 1_555 1_555
C1G N2G 1_555 1_555
C2G C1G 1_555 1_555
C3G C2G 1_555 1_555
H1G C3G 1_555 1_555
Zn2G O1E_2 1_555 1_555
N1I N2I 1_555 1_555
N2I C1I 1_555 1_555
C1I C2I 1_555 1_555
C2I C3I 1_555 1_555
C3I C2G 1_555 1_555
H1I C3I 1_555 1_555
N1B N2B 1_555 1_555
N2B C1B 1_555 1_555
C1B C2B 1_555 1_555
C2B C3G 1_555 1_555
C3B C2I 1_555 1_555
H1B C3B 1_555 1_555
N1SA N1I 1_555 1_555
N2SA C1I 1_555 1_555
N1LA N1G 1_555 1_555
N2LA C1G 1_555 1_555
N1QA N1B 1_555 1_555
N2QA C1B 1_555 1_555
Zn1H N1H 1_555 1_555
O1H Zn1H 1_555 1_555
Zn2H N2H 1_555 1_555
Zn1H_2 N1J 1_555 1_555
O1H_2 Zn1H_2 1_555 1_555
Zn2J N2J 1_555 1_555
Zn1I O1I 1_555 1_555
O1I Zn2K 1_555 1_555
N1K Zn1I 1_555 1_555
N2K N1K 1_555 1_555
C1K N2K 1_555 1_555
C2K C1K 1_555 1_555
C3K C2K 1_555 1_555
H1K C3K 1_555 1_555
Zn2K N2K 1_555 1_555
N1A N2A 1_555 1_555
N2A C1A 1_555 1_555
C1A C2A 1_555 1_555
C2A C3A 1_555 1_555
C3A C2K 1_555 1_555
H1A C3A 1_555 1_555
N1F N2F 1_555 1_555
N2F C1F 1_555 1_555
C1F C2F 1_555 1_555
C2F C3K 1_555 1_555
C3F C2A 1_555 1_555
H1F C3F 1_555 1_555
N1NA N1A 1_555 1_555
N2NA C1A 1_555 1_555
N1RA N1K 1_555 1_555
N2RA C1K 1_555 1_555
N1JA N1F 1_555 1_555
N2JA C1F 1_555 1_555
Zn1L N1KA 1_555 1_555
O1L Zn1L 1_555 1_555
N1L Zn1L 1_555 1_555
N2L N1L 1_555 1_555
C1L N2L 1_555 1_555
C2L C1L 1_555 1_555
C3L C2L 1_555 1_555
H1L C3L 1_555 1_555
Zn2L N2KA 1_555 1_555
N1P N2P 1_555 1_555
N2P C1P 1_555 1_555
C1P C2P 1_555 1_555
C2P C3P 1_555 1_555
C3P C2L 1_555 1_555
H1P C3P 1_555 1_555
N1T N2T 1_555 1_555
N2T C1T 1_555 1_555
C1T C2T 1_555 1_555
C2T C3L 1_555 1_555
C3T C2P 1_555 1_555
H1T C3T 1_555 1_555
N1Y Zn1 1_555 1_555
N2Y Zn2 1_555 1_555
N1DA Zn1E_2 1_555 1_555
N2DA Zn2G 1_555 1_555
N1IA Zn1H_2 1_555 1_555
N2IA Zn2J 1_555 1_555
N1N Zn1L 1_555 1_555
N2N N1N 1_555 1_555
C1N N2N 1_555 1_555
C2N C1N 1_555 1_555
C3N C2N 1_555 1_555
H1N C3N 1_555 1_555
Zn2N O1L 1_555 1_555
N1S N2S 1_555 1_555
N2S C1S 1_555 1_555
C1S C2S 1_555 1_555
C2S C3S 1_555 1_555
C3S C2N 1_555 1_555
H1S C3S 1_555 1_555
N1U N2U 1_555 1_555
N2U C1U 1_555 1_555
C1U C2U 1_555 1_555
C2U C3N 1_555 1_555
C3U C2S 1_555 1_555
H1U C3U 1_555 1_555
N1Z N1S 1_555 1_555
N2Z C1S 1_555 1_555
N1EA Zn1D 1_555 1_555
N2EA C1N 1_555 1_555
N1GA N1U 1_555 1_555
N2GA C1U 1_555 1_555
N1N_2 N2N_2 1_555 1_555
N2N_2 C1N_2 1_555 1_555
C1N_2 C2N_2 1_555 1_555
C2N_2 C3N_2 1_555 1_555
C3N_2 H1N_2 1_555 1_555
Zn2N_2 N2MA 1_555 1_555
N1S_2 N2S_2 1_555 1_555
N2S_2 C1S_2 1_555 1_555
C1S_2 C2S_2 1_555 1_555
C2S_2 C3S_2 1_555 1_555
C3S_2 C2N_2 1_555 1_555
H1S_2 C3S_2 1_555 1_555
N1U_2 N2U_2 1_555 1_555
N2U_2 C1U_2 1_555 1_555
C1U_2 C2U_2 1_555 1_555
C2U_2 C3N_2 1_555 1_555
C3U_2 C2S_2 1_555 1_555
H1U_2 C3U_2 1_555 1_555
N1Z_2 Zn1A 1_555 1_555
N2Z_2 Zn2C 1_555 1_555
N1EA_2 N1N_2 1_555 1_555
N2EA_2 C1N_2 1_555 1_555
N1GA_2 Zn1H 1_555 1_555
N2GA_2 Zn2H 1_555 1_555
Zn1M O1M 1_555 1_555
O1M Zn2O 1_555 1_555
N1O Zn1M 1_555 1_555
N2O N1O 1_555 1_555
C1O N2O 1_555 1_555
C2O C1O 1_555 1_555
C3O C2O 1_555 1_555
H1O C3O 1_555 1_555
Zn2O N2O 1_555 1_555
N1Q N2Q 1_555 1_555
N2Q C1Q 1_555 1_555
C1Q C2Q 1_555 1_555
C2Q C3Q 1_555 1_555
C3Q C2O 1_555 1_555
H1Q C3Q 1_555 1_555
N1V N2V 1_555 1_555
N2V C1V 1_555 1_555
C1V C2V 1_555 1_555
C2V C3O 1_555 1_555
C3V C2Q 1_555 1_555
H1V C3V 1_555 1_555
N1AA Zn1 1_555 1_555
N2AA Zn2B 1_555 1_555
N1CA N1O 1_555 1_555
N2CA C1O 1_555 1_555
N1HA N1V 1_555 1_555
N2HA C1V 1_555 1_555
Zn2O_2 N2LA 1_555 1_555
Zn1P Cl1 1_555 1_555
O1P Zn1P 1_555 1_555
Zn2P N2OA 1_555 1_555
Zn1Q Cl1 1_555 1_555
O1Q Zn1Q 1_555 1_555
Zn2Q N2Q 1_555 1_555
Zn2R O1P 1_555 1_555
Zn2S N2PA 1_555 1_555
Zn2T N2SA 1_555 1_555
Zn2U N2RA 1_555 1_555
Zn2V N2V 1_555 1_555
Zn2V_2 N2UA 1_555 1_555
Zn2W N2TA 1_555 1_555
Zn1_2 N1B 1_555 1_555
Zn1A_2 N1Z 1_555 1_555
Zn1A_3 N1A 1_555 1_555
Zn1D_2 N1CA 1_555 1_555
Zn1D_3 Cl1D_2 1_555 1_555
Zn1H_3 N1GA 1_555 1_555
Zn1I_2 N1HA 1_555 1_555
Zn1I_3 N1I 1_555 1_555
Zn1L_2 N1MA 1_555 1_555
Zn1M_2 Cl1D 1_555 1_555
Zn1M_3 Cl1D_2 1_555 1_555
Zn1P_2 N1QA 1_555 1_555
Zn1Q_2 N1S 1_555 1_555
Zn1Q_3 N1NA 1_555 1_555
Zn1T N1V 1_555 1_555
Zn1T_2 N1UA 1_555 1_555
Zn1T_3 N1SA 1_555 1_555
Zn1U N1U 1_555 1_555
Zn1U_2 N1RA 1_555 1_555
Zn1U_3 N1TA 1_555 1_555
Cl1D_3 Zn1M 1_555 1_555
Cl1H Zn1H 1_555 1_555
Cl1H_2 Zn1H_2 1_555 1_555
O1L_2 Zn2N_2 1_555 1_555
O1M_2 Zn2O_2 1_555 1_555
O1T Zn2V 1_555 1_555
O1T_2 Zn2V_2 1_555 1_555
O1T_3 Zn2T 1_555 1_555
O1U Zn2U 1_555 1_555
O1U_2 Zn2W 1_555 1_555
N1A_2 Zn1A 1_555 1_555
N1B_2 Zn1 1_555 1_555
N1E_2 Zn1E_2 1_555 1_555
N1F_2 Zn1D 1_555 1_555
N1G_2 Zn1E 1_555 1_555
N1H_2 Zn1H_2 1_555 1_555
N1I_2 Zn1I 1_555 1_555
N1J_2 Zn1H 1_555 1_555
N1M Zn1M 1_555 1_555
N1R Zn1P 1_555 1_555
N1X Zn1A 1_555 1_555
N1BA Zn1E_2 1_555 1_555
N1BA_2 Zn1E 1_555 1_555
N1CA_2 Zn1D 1_555 1_555
N1DA_2 Zn1E 1_555 1_555
N1FA Zn1I 1_555 1_555
N1GA_3 Zn1H_2 1_555 1_555
N1HA_2 Zn1I 1_555 1_555
N1IA_2 Zn1H 1_555 1_555
N1JA_2 Zn1M 1_555 1_555
N1LA_2 Zn1M 1_555 1_555
N1MA_2 Zn1L 1_555 1_555
N1NA_2 Zn1Q 1_555 1_555
N1QA_2 Zn1P 1_555 1_555
N2A_2 N1A_2 1_555 1_555
N2B_2 Zn2B 1_555 1_555
N2O_2 Zn2O_2 1_555 1_555
N2R Zn2R 1_555 1_555
N2V_2 Zn2V_2 1_555 1_555
N2W Zn2W 1_555 1_555
N2X Zn2A 1_555 1_555
N2BA Zn2E 1_555 1_555
N2CA_2 Zn2D 1_555 1_555
N2HA_2 Zn2K 1_555 1_555
N2LA_2 Zn2O 1_555 1_555
N2MA_2 Zn2N 1_555 1_555
N2NA_2 Zn2Q 1_555 1_555
N2QA_2 Zn2R 1_555 1_555
N2UA_2 Zn2V 1_555 1_555
Zn2A_2 N2A 1_555 1_555
Zn2B_2 N2B 1_555 1_555
Zn2C_2 N2Z 1_555 1_555
Zn2D_2 N2CA 1_555 1_555
Zn2E_2 O1E_2 1_555 1_555
Zn2F O1D 1_555 1_555
Zn2F_2 N2F 1_555 1_555
Zn2G_2 O1E 1_555 1_555
Zn2H_2 N2GA 1_555 1_555
Zn2H_3 O1H_2 1_555 1_555
Zn2I O1I 1_555 1_555
Zn2I_2 N2I 1_555 1_555
Zn2J_2 O1H 1_555 1_555
Zn2K_2 N2HA 1_555 1_555
Zn2M O1M 1_555 1_555
Zn2M_2 N2JA 1_555 1_555
Zn2Q_2 N2NA 1_555 1_555
Zn2R_2 N2QA 1_555 1_555
Zn2S_2 N2S 1_555 1_555
Zn2U_2 N2U 1_555 1_555
N2 Zn2 1_555 1_555
C2H C3H 1_555 1_555
N1KA N2KA 1_555 1_555
N1PA N2PA 1_555 1_555
N1PA Zn1Q 1_555 1_555
N1UA N2UA 1_555 1_555
N2C Zn2C 1_555 1_555
C2J C3J 1_555 1_555
N1MA N2MA 1_555 1_555
N1OA N2OA 1_555 1_555
N1OA Zn1P 1_555 1_555
N1TA N2TA 1_555 1_555
Cl1D Zn1L 1_555 1_555
O1D Zn2D 1_555 1_555
Cl1D_2 Zn1L_2 1_555 1_555
O1E Zn2E 1_555 1_555
N2G Zn2G 1_555 1_555
C2B C3B 1_555 1_555
N1SA N2SA 1_555 1_555
N1LA N2LA 1_555 1_555
N1LA Zn1M_2 1_555 1_555
N1QA N2QA 1_555 1_555
O1H Zn2H 1_555 1_555
O1H_2 Zn2J 1_555 1_555
Zn1I Cl1H 1_555 1_555
N1F Zn1D_3 1_555 1_555
C2F C3F 1_555 1_555
N1NA N2NA 1_555 1_555
N1RA N2RA 1_555 1_555
N1JA N2JA 1_555 1_555
N1JA Zn1M_3 1_555 1_555
O1L Zn2L 1_555 1_555
N1L N1DA 1_555 1_555
N2L Zn2L 1_555 1_555
C1L N2DA 1_555 1_555
N1P N1Y 1_555 1_555
N1P Zn1P 1_555 1_555
N2P Zn2P 1_555 1_555
C1P N2Y 1_555 1_555
N1T N1IA 1_555 1_555
N1T Zn1T_3 1_555 1_555
N2T Zn2T 1_555 1_555
C1T N2IA 1_555 1_555
C2T C3T 1_555 1_555
N1Y N2Y 1_555 1_555
N1DA N2DA 1_555 1_555
N1IA N2IA 1_555 1_555
N1N N1EA 1_555 1_555
N2N Zn2N 1_555 1_555
C2U C3U 1_555 1_555
N1Z N2Z 1_555 1_555
N1EA N2EA 1_555 1_555
N2EA Zn2F 1_555 1_555
N1GA N2GA 1_555 1_555
N1N_2 Zn1L_2 1_555 1_555
N2N_2 Zn2N_2 1_555 1_555
N1S_2 N1Z_2 1_555 1_555
N1S_2 Zn1Q 1_555 1_555
N2S_2 Zn2S 1_555 1_555
C1S_2 N2Z_2 1_555 1_555
N1U_2 N1GA_2 1_555 1_555
N1U_2 Zn1U_2 1_555 1_555
N2U_2 Zn2U 1_555 1_555
C1U_2 N2GA_2 1_555 1_555
C2U_2 C3U_2 1_555 1_555
N1Z_2 N2Z_2 1_555 1_555
N1EA_2 N2EA_2 1_555 1_555
N1EA_2 Zn1D_3 1_555 1_555
N2EA_2 Zn2F_2 1_555 1_555
N1GA_2 N2GA_2 1_555 1_555
N1Q N1AA 1_555 1_555
N1Q Zn1Q 1_555 1_555
C1Q N2AA 1_555 1_555
C2V C3V 1_555 1_555
N1AA N2AA 1_555 1_555
N1CA N2CA 1_555 1_555
N1HA N2HA 1_555 1_555
O1P Zn2P 1_555 1_555
O1Q Zn2Q 1_555 1_555
O1Q Zn2S 1_555 1_555
Zn1D_2 Cl1D_3 1_555 1_555
Zn1I_3 Cl1H_2 1_555 1_555
Zn1L_2 O1L_2 1_555 1_555
Zn1M_2 O1M_2 1_555 1_555
Zn1T O1T 1_555 1_555
Zn1T_2 Cl1H 1_555 1_555
Zn1T_2 O1T_2 1_555 1_555
Zn1T_3 Cl1H_2 1_555 1_555
Zn1T_3 O1T_3 1_555 1_555
Zn1U_2 Cl1H 1_555 1_555
Zn1U_2 O1U 1_555 1_555
Zn1U_3 Cl1H_2 1_555 1_555
Zn1U_3 O1U_2 1_555 1_555
N1A_2 N1NA_2 1_555 1_555
N1B_2 N1QA_2 1_555 1_555
N1B_2 N2B_2 1_555 1_555
N1E_2 N1MA_2 1_555 1_555
N1R N1X 1_555 1_555
N1R N2R 1_555 1_555
N1X N2X 1_555 1_555
N1BA_2 N2BA 1_555 1_555
N1CA_2 N2CA_2 1_555 1_555
N1HA_2 N2HA_2 1_555 1_555
N1LA_2 N2LA_2 1_555 1_555
N1MA_2 N2MA_2 1_555 1_555
N1NA_2 N2NA_2 1_555 1_555
N1QA_2 N2QA_2 1_555 1_555

#END
