
#######################################################################
#
#                 Cambridge Crystallographic Data Centre
#                                CCDC 
#
#######################################################################
#
# If this CIF has been generated from an entry in the Cambridge 
# Structural Database, then it will include bibliographic, chemical, 
# crystal, experimental, refinement or atomic coordinate data resulting 
# from the CCDC's data processing and validation procedures.
#
#######################################################################

data_MIVFOO
_chemical_formula_moiety         'C72 H24 Cl8 Mn35 N121 O12'
_symmetry_cell_setting           cubic
_symmetry_space_group_name_H-M   'P m 3 m'
_symmetry_Int_Tables_number      221
_space_group_name_Hall           '-P 4 2 3'
loop_
_symmetry_equiv_pos_site_id
_symmetry_equiv_pos_as_xyz
1 x,y,z
2 -x,-y,z
3 -x,y,-z
4 x,-y,-z
5 z,x,y
6 z,-x,-y
7 -z,-x,y
8 -z,x,-y
9 y,z,x
10 -y,z,-x
11 y,-z,-x
12 -y,-z,x
13 y,x,-z
14 -y,-x,-z
15 y,-x,z
16 -y,x,z
17 x,z,-y
18 -x,z,y
19 -x,-z,-y
20 x,-z,y
21 z,y,-x
22 z,-y,x
23 -z,y,x
24 -z,-y,-x
25 -x,-y,-z
26 x,y,-z
27 x,-y,z
28 -x,y,z
29 -z,-x,-y
30 -z,x,y
31 z,x,-y
32 z,-x,y
33 -y,-z,-x
34 y,-z,x
35 -y,z,x
36 y,z,-x
37 -y,-x,z
38 y,x,z
39 -y,x,-z
40 y,-x,-z
41 -x,-z,y
42 x,-z,-y
43 x,z,y
44 -x,z,-y
45 -z,-y,x
46 -z,y,-x
47 z,-y,-x
48 z,y,x
_cell_length_a                   18.9153(5)
_cell_length_b                   18.9153(5)
_cell_length_c                   18.9153(5)
_cell_angle_alpha                90
_cell_angle_beta                 90
_cell_angle_gamma                90
_cell_volume                     6767.68
loop_
_atom_site_label
_atom_site_type_symbol
_atom_site_fract_x
_atom_site_fract_y
_atom_site_fract_z
Cl1 Cl 0.5000 0.5000 0.0000
Mn1 Mn 0.5000 0.35958(6) 0.0000
N1 N 0.41677(17) 0.36733(18) -0.07982(16)
N2 N 0.40639(17) 0.32334(19) -0.13278(17)
O1 O 0.5000 0.2437(8) 0.0000
C1 C 0.3488(2) 0.3488(2) -0.1656(3)
C2 C 0.3169(2) 0.3169(2) -0.2279(3)
C3 C 0.3468(3) 0.2576(2) -0.2576(2)
H1 H 0.3871 0.2377 -0.2377
N1G N 0.07982(16) 0.41677(17) -0.36733(18)
N2G N 0.13278(17) 0.40639(17) -0.32334(19)
C1G C 0.1656(3) 0.3488(2) -0.3488(2)
C2G C 0.2279(3) 0.3169(2) -0.3169(2)
C3G C 0.2576(2) 0.3468(3) -0.2576(2)
H1G H 0.2377 0.3871 -0.2377
N1J N 0.36733(18) 0.07982(16) -0.41677(17)
N2J N 0.32334(19) 0.13278(17) -0.40639(17)
C1J C 0.3488(2) 0.1656(3) -0.3488(2)
C2J C 0.3169(2) 0.2279(3) -0.3169(2)
C3J C 0.2576(2) 0.2576(2) -0.3468(3)
H1J H 0.2377 0.2377 -0.3871
N1KA N 0.36733(18) 0.41677(17) -0.07982(16)
N2KA N 0.32334(19) 0.40639(17) -0.13278(17)
N1OA N 0.41677(17) 0.07982(16) -0.36733(18)
N2OA N 0.40639(17) 0.13278(17) -0.32334(19)
N1SA N 0.07982(16) 0.36733(18) -0.41677(17)
N2SA N 0.13278(17) 0.32334(19) -0.40639(17)
Mn1A Mn 0.5000 0.64042(6) 0.0000
N1A N 0.58323(17) 0.63267(18) -0.07982(16)
N2A N 0.59361(17) 0.67666(19) -0.13278(17)
O1A O 0.5000 0.7563(8) 0.0000
C1A C 0.6512(2) 0.6512(2) -0.1656(3)
C2A C 0.6831(2) 0.6831(2) -0.2279(3)
C3A C 0.6532(3) 0.7424(2) -0.2576(2)
H1A H 0.6129 0.7623 -0.2377
N1E N 0.92018(16) 0.58323(17) -0.36733(18)
N2E N 0.86722(17) 0.59361(17) -0.32334(19)
C1E C 0.8344(3) 0.6512(2) -0.3488(2)
C2E C 0.7721(3) 0.6831(2) -0.3169(2)
C3E C 0.7424(2) 0.6532(3) -0.2576(2)
H1E H 0.7623 0.6129 -0.2377
N1I N 0.63267(18) 0.92018(16) -0.41677(17)
N2I N 0.67666(19) 0.86722(17) -0.40639(17)
C1I C 0.6512(2) 0.8344(3) -0.3488(2)
C2I C 0.6831(2) 0.7721(3) -0.3169(2)
C3I C 0.7424(2) 0.7424(2) -0.3468(3)
H1I H 0.7623 0.7623 -0.3871
N1JA N 0.63267(18) 0.58323(17) -0.07982(16)
N2JA N 0.67666(19) 0.59361(17) -0.13278(17)
N1QA N 0.58323(17) 0.92018(16) -0.36733(18)
N2QA N 0.59361(17) 0.86722(17) -0.32334(19)
N1TA N 0.92018(16) 0.63267(18) -0.41677(17)
N2TA N 0.86722(17) 0.67666(19) -0.40639(17)
Cl1D Cl 1.0000 0.5000 -0.5000
Mn1E Mn 1.0000 0.5000 -0.35958(6)
O1E O 1.0000 0.5000 -0.2437(8)
Cl1D_2 Cl 0.0000 0.5000 -0.5000
Mn1E_2 Mn 0.0000 0.5000 -0.35958(6)
O1E_2 O 0.0000 0.5000 -0.2437(8)
Mn1I Mn 0.64042(6) 1.0000 -0.5000
O1I O 0.7563(8) 1.0000 -0.5000
Mn1H Mn 0.35958(6) 0.0000 -0.5000
O1H O 0.2437(8) 0.0000 -0.5000
Mn1L Mn 0.35958(6) 0.5000 -1.0000
N1L N 0.36733(18) 0.41677(17) -0.92018(16)
N2L N 0.32334(19) 0.40639(17) -0.86722(17)
O1L O 0.2437(8) 0.5000 -1.0000
C1L C 0.3488(2) 0.3488(2) -0.8344(3)
C2L C 0.3169(2) 0.3169(2) -0.7721(3)
C3L C 0.2576(2) 0.3468(3) -0.7424(2)
H1L H 0.2377 0.3871 -0.7623
N1S N 0.41677(17) 0.07982(16) -0.63267(18)
N2S N 0.40639(17) 0.13278(17) -0.67666(19)
C1S C 0.3488(2) 0.1656(3) -0.6512(2)
C2S C 0.3169(2) 0.2279(3) -0.6831(2)
C3S C 0.3468(3) 0.2576(2) -0.7424(2)
H1S H 0.3871 0.2377 -0.7623
N1V N 0.07982(16) 0.36733(18) -0.58323(17)
N2V N 0.13278(17) 0.32334(19) -0.59361(17)
C1V C 0.1656(3) 0.3488(2) -0.6512(2)
C2V C 0.2279(3) 0.3169(2) -0.6831(2)
C3V C 0.2576(2) 0.2576(2) -0.6532(3)
H1V H 0.2377 0.2377 -0.6129
N1Y N 0.41677(17) 0.36733(18) -0.92018(16)
N2Y N 0.40639(17) 0.32334(19) -0.86722(17)
N1CA N 0.07982(16) 0.41677(17) -0.63267(18)
N2CA N 0.13278(17) 0.40639(17) -0.67666(19)
N1GA N 0.36733(18) 0.07982(16) -0.58323(17)
N2GA N 0.32334(19) 0.13278(17) -0.59361(17)
Mn1L_2 Mn 0.35958(6) 0.5000 0.0000
N1L_2 N 0.36733(18) 0.41677(17) 0.07982(16)
N2L_2 N 0.32334(19) 0.40639(17) 0.13278(17)
O1L_2 O 0.2437(8) 0.5000 0.0000
C1L_2 C 0.3488(2) 0.3488(2) 0.1656(3)
C2L_2 C 0.3169(2) 0.3169(2) 0.2279(3)
C3L_2 C 0.2576(2) 0.3468(3) 0.2576(2)
H1L_2 H 0.2377 0.3871 0.2377
N1S_2 N 0.41677(17) 0.07982(16) 0.36733(18)
N2S_2 N 0.40639(17) 0.13278(17) 0.32334(19)
C1S_2 C 0.3488(2) 0.1656(3) 0.3488(2)
C2S_2 C 0.3169(2) 0.2279(3) 0.3169(2)
C3S_2 C 0.3468(3) 0.2576(2) 0.2576(2)
H1S_2 H 0.3871 0.2377 0.2377
N1V_2 N 0.07982(16) 0.36733(18) 0.41677(17)
N2V_2 N 0.13278(17) 0.32334(19) 0.40639(17)
C1V_2 C 0.1656(3) 0.3488(2) 0.3488(2)
C2V_2 C 0.2279(3) 0.3169(2) 0.3169(2)
C3V_2 C 0.2576(2) 0.2576(2) 0.3468(3)
H1V_2 H 0.2377 0.2377 0.3871
N1Y_2 N 0.41677(17) 0.36733(18) 0.07982(16)
N2Y_2 N 0.40639(17) 0.32334(19) 0.13278(17)
N1CA_2 N 0.07982(16) 0.41677(17) 0.36733(18)
N2CA_2 N 0.13278(17) 0.40639(17) 0.32334(19)
N1GA_2 N 0.36733(18) 0.07982(16) 0.41677(17)
N2GA_2 N 0.32334(19) 0.13278(17) 0.40639(17)
Mn1M Mn 0.64042(6) 0.5000 0.0000
O1M O 0.7563(8) 0.5000 0.0000
Mn1L_3 Mn 0.35958(6) -0.5000 0.0000
N1N N 0.36733(18) -0.41677(17) -0.07982(16)
N2N N 0.32334(19) -0.40639(17) -0.13278(17)
O1L_3 O 0.2437(8) -0.5000 0.0000
C1N C 0.3488(2) -0.3488(2) -0.1656(3)
C2N C 0.3169(2) -0.3169(2) -0.2279(3)
C3N C 0.2576(2) -0.3468(3) -0.2576(2)
H1N H 0.2377 -0.3871 -0.2377
N1P N 0.41677(17) -0.07982(16) -0.36733(18)
N2P N 0.40639(17) -0.13278(17) -0.32334(19)
C1P C 0.3488(2) -0.1656(3) -0.3488(2)
C2P C 0.3169(2) -0.2279(3) -0.3169(2)
C3P C 0.3468(3) -0.2576(2) -0.2576(2)
H1P H 0.3871 -0.2377 -0.2377
N1W N 0.07982(16) -0.36733(18) -0.41677(17)
N2W N 0.13278(17) -0.32334(19) -0.40639(17)
C1W C 0.1656(3) -0.3488(2) -0.3488(2)
C2W C 0.2279(3) -0.3169(2) -0.3169(2)
C3W C 0.2576(2) -0.2576(2) -0.3468(3)
H1W H 0.2377 -0.2377 -0.3871
N1Z N 0.41677(17) -0.36733(18) -0.07982(16)
N2Z N 0.40639(17) -0.32334(19) -0.13278(17)
N1BA N 0.07982(16) -0.41677(17) -0.36733(18)
N2BA N 0.13278(17) -0.40639(17) -0.32334(19)
N1IA N 0.36733(18) -0.07982(16) -0.41677(17)
N2IA N 0.32334(19) -0.13278(17) -0.40639(17)
N1N_2 N 0.36733(18) 0.58323(17) -0.07982(16)
N2N_2 N 0.32334(19) 0.59361(17) -0.13278(17)
C1N_2 C 0.3488(2) 0.6512(2) -0.1656(3)
C2N_2 C 0.3169(2) 0.6831(2) -0.2279(3)
C3N_2 C 0.2576(2) 0.6532(3) -0.2576(2)
H1N_2 H 0.2377 0.6129 -0.2377
N1P_2 N 0.41677(17) 0.92018(16) -0.36733(18)
N2P_2 N 0.40639(17) 0.86722(17) -0.32334(19)
C1P_2 C 0.3488(2) 0.8344(3) -0.3488(2)
C2P_2 C 0.3169(2) 0.7721(3) -0.3169(2)
C3P_2 C 0.3468(3) 0.7424(2) -0.2576(2)
H1P_2 H 0.3871 0.7623 -0.2377
N1W_2 N 0.07982(16) 0.63267(18) -0.41677(17)
N2W_2 N 0.13278(17) 0.67666(19) -0.40639(17)
C1W_2 C 0.1656(3) 0.6512(2) -0.3488(2)
C2W_2 C 0.2279(3) 0.6831(2) -0.3169(2)
C3W_2 C 0.2576(2) 0.7424(2) -0.3468(3)
H1W_2 H 0.2377 0.7623 -0.3871
N1Z_2 N 0.41677(17) 0.63267(18) -0.07982(16)
N2Z_2 N 0.40639(17) 0.67666(19) -0.13278(17)
N1BA_2 N 0.07982(16) 0.58323(17) -0.36733(18)
N2BA_2 N 0.13278(17) 0.59361(17) -0.32334(19)
N1IA_2 N 0.36733(18) 0.92018(16) -0.41677(17)
N2IA_2 N 0.32334(19) 0.86722(17) -0.40639(17)
N1O N -0.36733(18) 0.41677(17) -0.07982(16)
N2O N -0.32334(19) 0.40639(17) -0.13278(17)
C1O C -0.3488(2) 0.3488(2) -0.1656(3)
C2O C -0.3169(2) 0.3169(2) -0.2279(3)
C3O C -0.2576(2) 0.3468(3) -0.2576(2)
H1O H -0.2377 0.3871 -0.2377
N1R N -0.41677(17) 0.07982(16) -0.36733(18)
N2R N -0.40639(17) 0.13278(17) -0.32334(19)
C1R C -0.3488(2) 0.1656(3) -0.3488(2)
C2R C -0.3169(2) 0.2279(3) -0.3169(2)
C3R C -0.3468(3) 0.2576(2) -0.2576(2)
H1R H -0.3871 0.2377 -0.2377
N1T N -0.07982(16) 0.36733(18) -0.41677(17)
N2T N -0.13278(17) 0.32334(19) -0.40639(17)
C1T C -0.1656(3) 0.3488(2) -0.3488(2)
C2T C -0.2279(3) 0.3169(2) -0.3169(2)
C3T C -0.2576(2) 0.2576(2) -0.3468(3)
H1T H -0.2377 0.2377 -0.3871
N1AA N -0.41677(17) 0.36733(18) -0.07982(16)
N2AA N -0.40639(17) 0.32334(19) -0.13278(17)
N1DA N -0.07982(16) 0.41677(17) -0.36733(18)
N2DA N -0.13278(17) 0.40639(17) -0.32334(19)
N1FA N -0.36733(18) 0.07982(16) -0.41677(17)
N2FA N -0.32334(19) 0.13278(17) -0.40639(17)
Mn1P Mn 0.5000 0.0000 -0.35958(6)
O1P O 0.5000 0.0000 -0.2437(8)
Mn1I_2 Mn 0.64042(6) 0.0000 0.5000
N1K N 0.63267(18) 0.07982(16) 0.41677(17)
N2K N 0.67666(19) 0.13278(17) 0.40639(17)
O1I_2 O 0.7563(8) 0.0000 0.5000
C1K C 0.6512(2) 0.1656(3) 0.3488(2)
C2K C 0.6831(2) 0.2279(3) 0.3169(2)
C3K C 0.7424(2) 0.2576(2) 0.3468(3)
H1K H 0.7623 0.2377 0.3871
N1B N 0.58323(17) 0.36733(18) 0.07982(16)
N2B N 0.59361(17) 0.32334(19) 0.13278(17)
C1B C 0.6512(2) 0.3488(2) 0.1656(3)
C2B C 0.6831(2) 0.3169(2) 0.2279(3)
C3B C 0.6532(3) 0.2576(2) 0.2576(2)
H1B H 0.6129 0.2377 0.2377
N1D N 0.92018(16) 0.41677(17) 0.36733(18)
N2D N 0.86722(17) 0.40639(17) 0.32334(19)
C1D C 0.8344(3) 0.3488(2) 0.3488(2)
C2D C 0.7721(3) 0.3169(2) 0.3169(2)
C3D C 0.7424(2) 0.3468(3) 0.2576(2)
H1D H 0.7623 0.3871 0.2377
N1NA N 0.58323(17) 0.07982(16) 0.36733(18)
N2NA N 0.59361(17) 0.13278(17) 0.32334(19)
N1UA N 0.92018(16) 0.36733(18) 0.41677(17)
N2UA N 0.86722(17) 0.32334(19) 0.40639(17)
N1LA N 0.63267(18) 0.41677(17) 0.07982(16)
N2LA N 0.67666(19) 0.40639(17) 0.13278(17)
Cl1_2 Cl 0.5000 -0.5000 0.0000
Cl1_3 Cl 0.5000 0.5000 -1.0000
Cl1H Cl 0.5000 0.0000 -0.5000
Cl1H_2 Cl 0.5000 0.0000 0.5000
Cl1H_3 Cl 0.5000 1.0000 -0.5000
Mn1_2 Mn -0.5000 0.35958(6) 0.0000
Mn1_3 Mn 0.5000 0.35958(6) -1.0000
Mn1A_2 Mn 0.5000 -0.35958(6) 0.0000
Mn1D Mn 0.0000 0.5000 -0.64042(6)
Mn1D_2 Mn 0.0000 0.5000 0.35958(6)
Mn1D_3 Mn 1.0000 0.5000 -0.64042(6)
Mn1D_4 Mn 1.0000 0.5000 0.35958(6)
Mn1E_3 Mn 0.0000 -0.5000 -0.35958(6)
Mn1H_2 Mn 0.35958(6) 0.0000 0.5000
Mn1H_3 Mn 0.35958(6) 1.0000 -0.5000
Mn1I_3 Mn -0.35958(6) 0.0000 -0.5000
Mn1M_2 Mn -0.35958(6) 0.5000 0.0000
Mn1P_2 Mn -0.5000 0.0000 -0.35958(6)
Mn1P_3 Mn 0.5000 1.0000 -0.35958(6)
Mn1Q Mn 0.5000 0.0000 -0.64042(6)
Mn1Q_2 Mn 0.5000 0.0000 0.35958(6)
Mn1T Mn 0.0000 0.35958(6) -0.5000
Mn1T_2 Mn -0.0000 0.35958(6) 0.5000
Mn1T_3 Mn 1.0000 0.35958(6) -0.5000
Mn1T_4 Mn 1.0000 0.35958(6) 0.5000
Mn1U Mn 0.0000 -0.35958(6) -0.5000
Mn1U_2 Mn 0.0000 0.64042(6) -0.5000
Mn1U_3 Mn 1.0000 0.64042(6) -0.5000
N1C N 0.41677(17) 0.63267(18) 0.07982(16)
N1E_2 N -0.07982(16) 0.58323(17) -0.36733(18)
N1G_2 N 1.07982(16) 0.41677(17) -0.36733(18)
N1H N 0.36733(18) -0.07982(16) -0.58323(17)
N1I_2 N 0.63267(18) -0.07982(16) 0.58323(17)
N1K_2 N 0.63267(18) 1.07982(16) -0.58323(17)
N1L_3 N 0.36733(18) -0.58323(17) 0.07982(16)
N1M N 0.63267(18) 0.58323(17) 0.07982(16)
N1N_3 N 0.36733(18) 0.58323(17) -1.07982(16)
N1O_2 N 0.63267(18) 0.41677(17) -0.07982(16)
N1R_2 N 0.58323(17) 0.07982(16) -0.36733(18)
N1X N 0.58323(17) 0.63267(18) 0.07982(16)
N1AA_2 N 0.58323(17) 0.36733(18) -0.07982(16)
N1BA_3 N 1.07982(16) 0.58323(17) -0.36733(18)
N1DA_2 N 0.92018(16) 0.41677(17) -0.36733(18)
N1FA_2 N 0.63267(18) 0.07982(16) 0.58323(17)
N1FA_3 N 0.63267(18) 1.07982(16) -0.41677(17)
N1HA N 0.63267(18) -0.07982(16) 0.41677(17)
N1HA_2 N 0.63267(18) 0.92018(16) -0.58323(17)
N1KA_2 N 0.36733(18) -0.58323(17) -0.07982(16)
N1KA_3 N 0.36733(18) 0.41677(17) -1.07982(16)
N1MA N 0.36733(18) -0.41677(17) 0.07982(16)
N1MA_2 N 0.36733(18) 0.58323(17) -0.92018(16)
N1MA_3 N 0.36733(18) 0.58323(17) 0.07982(16)
N1QA_2 N 0.58323(17) -0.07982(16) -0.36733(18)
loop_
_geom_bond_atom_site_label_1
_geom_bond_atom_site_label_2
_geom_bond_site_symmetry_1
_geom_bond_site_symmetry_2
Cl1 Mn1 1_555 1_555
Mn1 N1 1_555 1_555
N1 N2 1_555 1_555
N2 C1 1_555 1_555
O1 Mn1 1_555 1_555
C1 C2 1_555 1_555
C2 C3 1_555 1_555
C3 H1 1_555 1_555
N1G N2G 1_555 1_555
N2G C1G 1_555 1_555
C1G C2G 1_555 1_555
C2G C3G 1_555 1_555
C3G C2 1_555 1_555
H1G C3G 1_555 1_555
N1J N2J 1_555 1_555
N2J C1J 1_555 1_555
C1J C2J 1_555 1_555
C2J C3 1_555 1_555
C3J C2G 1_555 1_555
H1J C3J 1_555 1_555
N1KA N1 1_555 1_555
N2KA C1 1_555 1_555
N1OA N1J 1_555 1_555
N2OA C1J 1_555 1_555
N1SA N1G 1_555 1_555
N2SA C1G 1_555 1_555
Mn1A Cl1 1_555 1_555
N1A Mn1A 1_555 1_555
N2A N1A 1_555 1_555
O1A Mn1A 1_555 1_555
C1A N2A 1_555 1_555
C2A C1A 1_555 1_555
C3A C2A 1_555 1_555
H1A C3A 1_555 1_555
N1E N2E 1_555 1_555
N2E C1E 1_555 1_555
C1E C2E 1_555 1_555
C2E C3E 1_555 1_555
C3E C2A 1_555 1_555
H1E C3E 1_555 1_555
N1I N2I 1_555 1_555
N2I C1I 1_555 1_555
C1I C2I 1_555 1_555
C2I C3A 1_555 1_555
C3I C2E 1_555 1_555
H1I C3I 1_555 1_555
N1JA N1A 1_555 1_555
N2JA C1A 1_555 1_555
N1QA N1I 1_555 1_555
N2QA C1I 1_555 1_555
N1TA N1E 1_555 1_555
N2TA C1E 1_555 1_555
Cl1D Mn1E 1_555 1_555
Mn1E N1E 1_555 1_555
O1E Mn1E 1_555 1_555
Cl1D_2 Mn1E_2 1_555 1_555
Mn1E_2 N1G 1_555 1_555
O1E_2 Mn1E_2 1_555 1_555
Mn1I N1I 1_555 1_555
O1I Mn1I 1_555 1_555
Mn1H N1J 1_555 1_555
O1H Mn1H 1_555 1_555
Mn1L N1L 1_555 1_555
N1L N2L 1_555 1_555
N2L C1L 1_555 1_555
O1L Mn1L 1_555 1_555
C1L C2L 1_555 1_555
C2L C3L 1_555 1_555
C3L H1L 1_555 1_555
N1S N2S 1_555 1_555
N2S C1S 1_555 1_555
C1S C2S 1_555 1_555
C2S C3S 1_555 1_555
C3S C2L 1_555 1_555
H1S C3S 1_555 1_555
N1V N2V 1_555 1_555
N2V C1V 1_555 1_555
C1V C2V 1_555 1_555
C2V C3L 1_555 1_555
C3V C2S 1_555 1_555
H1V C3V 1_555 1_555
N1Y N1L 1_555 1_555
N2Y C1L 1_555 1_555
N1CA N1V 1_555 1_555
N2CA C1V 1_555 1_555
N1GA Mn1H 1_555 1_555
N2GA C1S 1_555 1_555
Mn1L_2 Cl1 1_555 1_555
N1L_2 Mn1L_2 1_555 1_555
N2L_2 N1L_2 1_555 1_555
O1L_2 Mn1L_2 1_555 1_555
C1L_2 N2L_2 1_555 1_555
C2L_2 C1L_2 1_555 1_555
C3L_2 C2L_2 1_555 1_555
H1L_2 C3L_2 1_555 1_555
N1S_2 N2S_2 1_555 1_555
N2S_2 C1S_2 1_555 1_555
C1S_2 C2S_2 1_555 1_555
C2S_2 C3S_2 1_555 1_555
C3S_2 C2L_2 1_555 1_555
H1S_2 C3S_2 1_555 1_555
N1V_2 N2V_2 1_555 1_555
N2V_2 C1V_2 1_555 1_555
C1V_2 C2V_2 1_555 1_555
C2V_2 C3L_2 1_555 1_555
C3V_2 C2S_2 1_555 1_555
H1V_2 C3V_2 1_555 1_555
N1Y_2 Mn1 1_555 1_555
N2Y_2 C1L_2 1_555 1_555
N1CA_2 N1V_2 1_555 1_555
N2CA_2 C1V_2 1_555 1_555
N1GA_2 N1S_2 1_555 1_555
N2GA_2 C1S_2 1_555 1_555
Mn1M Cl1 1_555 1_555
O1M Mn1M 1_555 1_555
Mn1L_3 N1N 1_555 1_555
N1N N2N 1_555 1_555
N2N C1N 1_555 1_555
O1L_3 Mn1L_3 1_555 1_555
C1N C2N 1_555 1_555
C2N C3N 1_555 1_555
C3N H1N 1_555 1_555
N1P N2P 1_555 1_555
N2P C1P 1_555 1_555
C1P C2P 1_555 1_555
C2P C3P 1_555 1_555
C3P C2N 1_555 1_555
H1P C3P 1_555 1_555
N1W N2W 1_555 1_555
N2W C1W 1_555 1_555
C1W C2W 1_555 1_555
C2W C3N 1_555 1_555
C3W C2P 1_555 1_555
H1W C3W 1_555 1_555
N1Z N1N 1_555 1_555
N2Z C1N 1_555 1_555
N1BA N1W 1_555 1_555
N2BA C1W 1_555 1_555
N1IA Mn1H 1_555 1_555
N2IA C1P 1_555 1_555
N1N_2 Mn1L_2 1_555 1_555
N2N_2 N1N_2 1_555 1_555
C1N_2 N2N_2 1_555 1_555
C2N_2 C1N_2 1_555 1_555
C3N_2 C2N_2 1_555 1_555
H1N_2 C3N_2 1_555 1_555
N1P_2 N2P_2 1_555 1_555
N2P_2 C1P_2 1_555 1_555
C1P_2 C2P_2 1_555 1_555
C2P_2 C3P_2 1_555 1_555
C3P_2 C2N_2 1_555 1_555
H1P_2 C3P_2 1_555 1_555
N1W_2 N2W_2 1_555 1_555
N2W_2 C1W_2 1_555 1_555
C1W_2 C2W_2 1_555 1_555
C2W_2 C3N_2 1_555 1_555
C3W_2 C2P_2 1_555 1_555
H1W_2 C3W_2 1_555 1_555
N1Z_2 Mn1A 1_555 1_555
N2Z_2 C1N_2 1_555 1_555
N1BA_2 Mn1E_2 1_555 1_555
N2BA_2 C1W_2 1_555 1_555
N1IA_2 N1P_2 1_555 1_555
N2IA_2 C1P_2 1_555 1_555
N1O N2O 1_555 1_555
N2O C1O 1_555 1_555
C1O C2O 1_555 1_555
C2O C3O 1_555 1_555
C3O H1O 1_555 1_555
N1R N2R 1_555 1_555
N2R C1R 1_555 1_555
C1R C2R 1_555 1_555
C2R C3R 1_555 1_555
C3R C2O 1_555 1_555
H1R C3R 1_555 1_555
N1T N2T 1_555 1_555
N2T C1T 1_555 1_555
C1T C2T 1_555 1_555
C2T C3O 1_555 1_555
C3T C2R 1_555 1_555
H1T C3T 1_555 1_555
N1AA N1O 1_555 1_555
N2AA C1O 1_555 1_555
N1DA Mn1E_2 1_555 1_555
N2DA C1T 1_555 1_555
N1FA N1R 1_555 1_555
N2FA C1R 1_555 1_555
Mn1P N1OA 1_555 1_555
O1P Mn1P 1_555 1_555
Mn1I_2 N1K 1_555 1_555
N1K N2K 1_555 1_555
N2K C1K 1_555 1_555
O1I_2 Mn1I_2 1_555 1_555
C1K C2K 1_555 1_555
C2K C3K 1_555 1_555
C3K H1K 1_555 1_555
N1B Mn1 1_555 1_555
N2B N1B 1_555 1_555
C1B N2B 1_555 1_555
C2B C1B 1_555 1_555
C3B C2K 1_555 1_555
H1B C3B 1_555 1_555
N1D N2D 1_555 1_555
N2D C1D 1_555 1_555
C1D C2D 1_555 1_555
C2D C3K 1_555 1_555
C3D C2B 1_555 1_555
H1D C3D 1_555 1_555
N1NA N1K 1_555 1_555
N2NA C1K 1_555 1_555
N1UA N1D 1_555 1_555
N2UA C1D 1_555 1_555
N1LA Mn1M 1_555 1_555
N2LA C1B 1_555 1_555
Cl1_2 Mn1L_3 1_555 1_555
Cl1_3 Mn1L 1_555 1_555
Cl1H Mn1H 1_555 1_555
Cl1H_2 Mn1I_2 1_555 1_555
Cl1H_3 Mn1I 1_555 1_555
Mn1_2 N1AA 1_555 1_555
Mn1_3 N1Y 1_555 1_555
Mn1A_2 N1Z 1_555 1_555
Mn1D Cl1D_2 1_555 1_555
Mn1D_2 N1CA_2 1_555 1_555
Mn1D_3 Cl1D 1_555 1_555
Mn1D_4 N1D 1_555 1_555
Mn1E_3 N1BA 1_555 1_555
Mn1H_2 N1GA_2 1_555 1_555
Mn1H_3 N1IA_2 1_555 1_555
Mn1I_3 N1FA 1_555 1_555
Mn1M_2 N1O 1_555 1_555
Mn1P_2 N1R 1_555 1_555
Mn1P_3 N1QA 1_555 1_555
Mn1Q N1S 1_555 1_555
Mn1Q_2 N1S_2 1_555 1_555
Mn1T N1SA 1_555 1_555
Mn1T_2 N1V_2 1_555 1_555
Mn1T_3 Cl1D 1_555 1_555
Mn1T_4 N1UA 1_555 1_555
Mn1U N1W 1_555 1_555
Mn1U_2 Cl1D_2 1_555 1_555
Mn1U_3 N1TA 1_555 1_555
N1C Mn1A 1_555 1_555
N1E_2 Mn1E_2 1_555 1_555
N1G_2 Mn1E 1_555 1_555
N1H Mn1H 1_555 1_555
N1I_2 Mn1I_2 1_555 1_555
N1K_2 Mn1I 1_555 1_555
N1L_3 Mn1L_3 1_555 1_555
N1M Mn1M 1_555 1_555
N1N_3 Mn1L 1_555 1_555
N1O_2 Mn1M 1_555 1_555
N1R_2 Mn1P 1_555 1_555
N1X Mn1A 1_555 1_555
N1AA_2 Mn1 1_555 1_555
N1BA_3 Mn1E 1_555 1_555
N1DA_2 Mn1E 1_555 1_555
N1FA_2 Mn1I_2 1_555 1_555
N1FA_3 Mn1I 1_555 1_555
N1HA Mn1I_2 1_555 1_555
N1HA_2 Mn1I 1_555 1_555
N1KA_2 Mn1L_3 1_555 1_555
N1KA_3 Mn1L 1_555 1_555
N1MA Mn1L_3 1_555 1_555
N1MA_2 Mn1L 1_555 1_555
N1MA_3 Mn1L_2 1_555 1_555
N1QA_2 Mn1P 1_555 1_555
C2J C3J 1_555 1_555
N1KA N2KA 1_555 1_555
N1KA Mn1L_2 1_555 1_555
N1OA N2OA 1_555 1_555
N1SA N2SA 1_555 1_555
C2I C3I 1_555 1_555
N1JA N2JA 1_555 1_555
N1JA Mn1M 1_555 1_555
N1QA N2QA 1_555 1_555
N1TA N2TA 1_555 1_555
Cl1D Mn1U_3 1_555 1_555
Cl1D_2 Mn1T 1_555 1_555
N1S N1GA 1_555 1_555
N1V Mn1T 1_555 1_555
C2V C3V 1_555 1_555
N1Y N2Y 1_555 1_555
N1CA N2CA 1_555 1_555
N1CA Mn1D 1_555 1_555
N1GA N2GA 1_555 1_555
N1L_2 N1Y_2 1_555 1_555
C2V_2 C3V_2 1_555 1_555
N1Y_2 N2Y_2 1_555 1_555
N1CA_2 N2CA_2 1_555 1_555
N1GA_2 N2GA_2 1_555 1_555
N1P N1IA 1_555 1_555
N1P Mn1P 1_555 1_555
C2W C3W 1_555 1_555
N1Z N2Z 1_555 1_555
N1BA N2BA 1_555 1_555
N1IA N2IA 1_555 1_555
N1N_2 N1Z_2 1_555 1_555
N1P_2 Mn1P_3 1_555 1_555
N1W_2 N1BA_2 1_555 1_555
N1W_2 Mn1U_2 1_555 1_555
C2W_2 C3W_2 1_555 1_555
N1Z_2 N2Z_2 1_555 1_555
N1BA_2 N2BA_2 1_555 1_555
N1IA_2 N2IA_2 1_555 1_555
N1T N1DA 1_555 1_555
N1T Mn1T 1_555 1_555
C2T C3T 1_555 1_555
N1AA N2AA 1_555 1_555
N1DA N2DA 1_555 1_555
N1FA N2FA 1_555 1_555
Mn1P Cl1H 1_555 1_555
N1B N1LA 1_555 1_555
C2B C3B 1_555 1_555
C2D C3D 1_555 1_555
N1NA N2NA 1_555 1_555
N1NA Mn1Q_2 1_555 1_555
N1UA N2UA 1_555 1_555
N1LA N2LA 1_555 1_555
Cl1_2 Mn1A_2 1_555 1_555
Cl1_3 Mn1_3 1_555 1_555
Cl1H Mn1Q 1_555 1_555
Cl1H_2 Mn1H_2 1_555 1_555
Cl1H_2 Mn1Q_2 1_555 1_555
Cl1H_3 Mn1H_3 1_555 1_555
Cl1H_3 Mn1P_3 1_555 1_555
N1C N1MA_3 1_555 1_555
N1M N1X 1_555 1_555
N1O_2 N1AA_2 1_555 1_555

#END
