
#######################################################################
#
#                 Cambridge Crystallographic Data Centre
#                                CCDC 
#
#######################################################################
#
# If this CIF has been generated from an entry in the Cambridge 
# Structural Database, then it will include bibliographic, chemical, 
# crystal, experimental, refinement or atomic coordinate data resulting 
# from the CCDC's data processing and validation procedures.
#
#######################################################################

data_MIVFEE
_chemical_formula_moiety         'C72 H24 Cl6 Cu76 N139 O20'
_symmetry_cell_setting           cubic
_symmetry_space_group_name_H-M   'P m 3 m'
_symmetry_Int_Tables_number      221
_space_group_name_Hall           '-P 4 2 3'
loop_
_symmetry_equiv_pos_site_id
_symmetry_equiv_pos_as_xyz
1 x,y,z
2 -x,-y,z
3 -x,y,-z
4 x,-y,-z
5 z,x,y
6 z,-x,-y
7 -z,-x,y
8 -z,x,-y
9 y,z,x
10 -y,z,-x
11 y,-z,-x
12 -y,-z,x
13 y,x,-z
14 -y,-x,-z
15 y,-x,z
16 -y,x,z
17 x,z,-y
18 -x,z,y
19 -x,-z,-y
20 x,-z,y
21 z,y,-x
22 z,-y,x
23 -z,y,x
24 -z,-y,-x
25 -x,-y,-z
26 x,y,-z
27 x,-y,z
28 -x,y,z
29 -z,-x,-y
30 -z,x,y
31 z,x,-y
32 z,-x,y
33 -y,-z,-x
34 y,-z,x
35 -y,z,x
36 y,z,-x
37 -y,-x,z
38 y,x,z
39 -y,x,-z
40 y,-x,-z
41 -x,-z,y
42 x,-z,-y
43 x,z,y
44 -x,z,-y
45 -z,-y,x
46 -z,y,-x
47 z,-y,-x
48 z,y,x
_cell_length_a                   18.4852(5)
_cell_length_b                   18.4852(5)
_cell_length_c                   18.4852(5)
_cell_angle_alpha                90
_cell_angle_beta                 90
_cell_angle_gamma                90
_cell_volume                     6316.44
loop_
_atom_site_label
_atom_site_type_symbol
_atom_site_fract_x
_atom_site_fract_y
_atom_site_fract_z
Cu1 Cu 0.5000 0.36360(12) 0.0000
Cl1 Cl 0.5000 0.5000 0.0000
O1 O 0.5000 0.2395(6) 0.0000
Cu2 Cu 0.5000 0.2565(4) 0.1370(4)
N1 N 0.4203(2) 0.3697(2) 0.0750(2)
N2 N 0.4095(2) 0.3247(2) 0.1304(2)
C1 C 0.3508(3) 0.3508(3) 0.1623(4)
C2 C 0.3191(3) 0.3191(3) 0.2276(4)
C3 C 0.3484(4) 0.2577(3) 0.2577(3)
H1 H 0.3885 0.2362 0.2361
N1D N 0.0750(2) 0.4203(2) 0.3697(2)
N2D N 0.1304(2) 0.4095(2) 0.3247(2)
C1D C 0.1623(4) 0.3508(3) 0.3508(3)
C2D C 0.2276(4) 0.3191(3) 0.3191(3)
C3D C 0.2577(3) 0.3484(4) 0.2577(3)
H1D H 0.2361 0.3885 0.2362
N1H N 0.3697(2) 0.0750(2) 0.4203(2)
N2H N 0.3247(2) 0.1304(2) 0.4095(2)
C1H C 0.3508(3) 0.1623(4) 0.3508(3)
C2H C 0.3191(3) 0.2276(4) 0.3191(3)
C3H C 0.2577(3) 0.2577(3) 0.3484(4)
H1H H 0.2362 0.2361 0.3885
N1KA N 0.3697(2) 0.4203(2) 0.0750(2)
N2KA N 0.3247(2) 0.4095(2) 0.1304(2)
N1PA N 0.4203(2) 0.0750(2) 0.3697(2)
N2PA N 0.4095(2) 0.1304(2) 0.3247(2)
N1UA N 0.0750(2) 0.3697(2) 0.4203(2)
N2UA N 0.1304(2) 0.3247(2) 0.4095(2)
Cu1A Cu 0.5000 0.63640(12) 0.0000
O1A O 0.5000 0.7605(6) 0.0000
Cu2A Cu 0.5000 0.7435(4) 0.1370(4)
N1A N 0.5797(2) 0.6303(2) 0.0750(2)
N2A N 0.5905(2) 0.6753(2) 0.1304(2)
C1A C 0.6492(3) 0.6492(3) 0.1623(4)
C2A C 0.6809(3) 0.6809(3) 0.2276(4)
C3A C 0.6516(4) 0.7423(3) 0.2577(3)
H1A H 0.6115 0.7638 0.2361
N1F N 0.9250(2) 0.5797(2) 0.3697(2)
N2F N 0.8696(2) 0.5905(2) 0.3247(2)
C1F C 0.8377(4) 0.6492(3) 0.3508(3)
C2F C 0.7724(4) 0.6809(3) 0.3191(3)
C3F C 0.7423(3) 0.6516(4) 0.2577(3)
H1F H 0.7639 0.6115 0.2362
N1K N 0.6303(2) 0.9250(2) 0.4203(2)
N2K N 0.6753(2) 0.8696(2) 0.4095(2)
C1K C 0.6492(3) 0.8377(4) 0.3508(3)
C2K C 0.6809(3) 0.7724(4) 0.3191(3)
C3K C 0.7423(3) 0.7423(3) 0.3484(4)
H1K H 0.7638 0.7639 0.3885
N1JA N 0.6303(2) 0.5797(2) 0.0750(2)
N2JA N 0.6753(2) 0.5905(2) 0.1304(2)
N1NA N 0.5797(2) 0.9250(2) 0.3697(2)
N2NA N 0.5905(2) 0.8696(2) 0.3247(2)
N1RA N 0.9250(2) 0.6303(2) 0.4203(2)
N2RA N 0.8696(2) 0.6753(2) 0.4095(2)
Cu2B Cu 0.5000 0.2565(4) -0.1370(4)
Cu2C Cu 0.5000 0.7435(4) -0.1370(4)
Cu1D Cu -0.0000 0.5000 0.36360(12)
Cl1D Cl 0.0000 0.5000 0.5000
O1D O 0.0000 0.5000 0.2395(6)
Cu2D Cu 0.1370(4) 0.5000 0.2565(4)
Cu1E Cu 0.0000 0.5000 0.63640(12)
O1E O 0.0000 0.5000 0.7605(6)
Cu2E Cu 0.1370(4) 0.5000 0.7435(4)
N1E N 0.0750(2) 0.5797(2) 0.6303(2)
N2E N 0.1304(2) 0.5905(2) 0.6753(2)
C1E C 0.1623(4) 0.6492(3) 0.6492(3)
C2E C 0.2276(4) 0.6809(3) 0.6809(3)
C3E C 0.2577(3) 0.6516(4) 0.7423(3)
H1E H 0.2361 0.6115 0.7638
N1J N 0.3697(2) 0.9250(2) 0.5797(2)
N2J N 0.3247(2) 0.8696(2) 0.5905(2)
C1J C 0.3508(3) 0.8377(4) 0.6492(3)
C2J C 0.3191(3) 0.7724(4) 0.6809(3)
C3J C 0.2577(3) 0.7423(3) 0.6516(4)
H1J H 0.2362 0.7639 0.6115
N1C N 0.4203(2) 0.6303(2) 0.9250(2)
N2C N 0.4095(2) 0.6753(2) 0.8696(2)
C1C C 0.3508(3) 0.6492(3) 0.8377(4)
C2C C 0.3191(3) 0.6809(3) 0.7724(4)
C3C C 0.3484(4) 0.7423(3) 0.7423(3)
H1C H 0.3885 0.7638 0.7639
N1TA N 0.0750(2) 0.6303(2) 0.5797(2)
N2TA N 0.1304(2) 0.6753(2) 0.5905(2)
N1MA N 0.3697(2) 0.5797(2) 0.9250(2)
N2MA N 0.3247(2) 0.5905(2) 0.8696(2)
N1OA N 0.4203(2) 0.9250(2) 0.6303(2)
N2OA N 0.4095(2) 0.8696(2) 0.6753(2)
Cu1D_2 Cu 1.0000 0.5000 0.36360(12)
Cl1D_2 Cl 1.0000 0.5000 0.5000
O1D_2 O 1.0000 0.5000 0.2395(6)
Cu2F Cu 0.8630(4) 0.5000 0.2565(4)
Cu1E_2 Cu 1.0000 0.5000 0.63640(12)
O1E_2 O 1.0000 0.5000 0.7605(6)
Cu2G Cu 0.8630(4) 0.5000 0.7435(4)
N1G N 0.9250(2) 0.4203(2) 0.6303(2)
N2G N 0.8696(2) 0.4095(2) 0.6753(2)
C1G C 0.8377(4) 0.3508(3) 0.6492(3)
C2G C 0.7724(4) 0.3191(3) 0.6809(3)
C3G C 0.7423(3) 0.3484(4) 0.7423(3)
H1G H 0.7639 0.3885 0.7638
N1I N 0.6303(2) 0.0750(2) 0.5797(2)
N2I N 0.6753(2) 0.1304(2) 0.5905(2)
C1I C 0.6492(3) 0.1623(4) 0.6492(3)
C2I C 0.6809(3) 0.2276(4) 0.6809(3)
C3I C 0.7423(3) 0.2577(3) 0.6516(4)
H1I H 0.7638 0.2361 0.6115
N1B N 0.5797(2) 0.3697(2) 0.9250(2)
N2B N 0.5905(2) 0.3247(2) 0.8696(2)
C1B C 0.6492(3) 0.3508(3) 0.8377(4)
C2B C 0.6809(3) 0.3191(3) 0.7724(4)
C3B C 0.6516(4) 0.2577(3) 0.7423(3)
H1B H 0.6115 0.2362 0.7639
N1SA N 0.9250(2) 0.3697(2) 0.5797(2)
N2SA N 0.8696(2) 0.3247(2) 0.5905(2)
N1LA N 0.6303(2) 0.4203(2) 0.9250(2)
N2LA N 0.6753(2) 0.4095(2) 0.8696(2)
N1QA N 0.5797(2) 0.0750(2) 0.6303(2)
N2QA N 0.5905(2) 0.1304(2) 0.6753(2)
Cu1H Cu 0.36360(12) 0.0000 0.5000
O1H O 0.2395(6) 0.0000 0.5000
Cu2H Cu 0.2565(4) 0.1370(4) 0.5000
Cu2I Cu 0.7435(4) 0.1370(4) 0.5000
Cu2J Cu 0.2565(4) 0.8630(4) 0.5000
Cu2K Cu 0.7435(4) 0.8630(4) 0.5000
Cu1L Cu 0.36360(12) 0.5000 0.0000
O1L O 0.2395(6) 0.5000 0.0000
Cu2L Cu 0.2565(4) 0.5000 -0.1370(4)
N1L N 0.3697(2) 0.4203(2) -0.0750(2)
N2L N 0.3247(2) 0.4095(2) -0.1304(2)
C1L C 0.3508(3) 0.3508(3) -0.1623(4)
C2L C 0.3191(3) 0.3191(3) -0.2276(4)
C3L C 0.2577(3) 0.3484(4) -0.2577(3)
H1L H 0.2362 0.3885 -0.2361
N1P N 0.4203(2) 0.0750(2) -0.3697(2)
N2P N 0.4095(2) 0.1304(2) -0.3247(2)
C1P C 0.3508(3) 0.1623(4) -0.3508(3)
C2P C 0.3191(3) 0.2276(4) -0.3191(3)
C3P C 0.3484(4) 0.2577(3) -0.2577(3)
H1P H 0.3885 0.2361 -0.2362
N1T N 0.0750(2) 0.3697(2) -0.4203(2)
N2T N 0.1304(2) 0.3247(2) -0.4095(2)
C1T C 0.1623(4) 0.3508(3) -0.3508(3)
C2T C 0.2276(4) 0.3191(3) -0.3191(3)
C3T C 0.2577(3) 0.2577(3) -0.3484(4)
H1T H 0.2361 0.2362 -0.3885
N1Y N 0.4203(2) 0.3697(2) -0.0750(2)
N2Y N 0.4095(2) 0.3247(2) -0.1304(2)
N1DA N 0.0750(2) 0.4203(2) -0.3697(2)
N2DA N 0.1304(2) 0.4095(2) -0.3247(2)
N1IA N 0.3697(2) 0.0750(2) -0.4203(2)
N2IA N 0.3247(2) 0.1304(2) -0.4095(2)
Cu2L_2 Cu 0.2565(4) 0.5000 0.8630(4)
N1L_2 N 0.3697(2) 0.4203(2) 0.9250(2)
N2L_2 N 0.3247(2) 0.4095(2) 0.8696(2)
C1L_2 C 0.3508(3) 0.3508(3) 0.8377(4)
C2L_2 C 0.3191(3) 0.3191(3) 0.7724(4)
C3L_2 C 0.2577(3) 0.3484(4) 0.7423(3)
H1L_2 H 0.2362 0.3885 0.7639
N1P_2 N 0.4203(2) 0.0750(2) 0.6303(2)
N2P_2 N 0.4095(2) 0.1304(2) 0.6753(2)
C1P_2 C 0.3508(3) 0.1623(4) 0.6492(3)
C2P_2 C 0.3191(3) 0.2276(4) 0.6809(3)
C3P_2 C 0.3484(4) 0.2577(3) 0.7423(3)
H1P_2 H 0.3885 0.2361 0.7638
N1T_2 N 0.0750(2) 0.3697(2) 0.5797(2)
N2T_2 N 0.1304(2) 0.3247(2) 0.5905(2)
C1T_2 C 0.1623(4) 0.3508(3) 0.6492(3)
C2T_2 C 0.2276(4) 0.3191(3) 0.6809(3)
C3T_2 C 0.2577(3) 0.2577(3) 0.6516(4)
H1T_2 H 0.2361 0.2362 0.6115
N1Y_2 N 0.4203(2) 0.3697(2) 0.9250(2)
N2Y_2 N 0.4095(2) 0.3247(2) 0.8696(2)
N1DA_2 N 0.0750(2) 0.4203(2) 0.6303(2)
N2DA_2 N 0.1304(2) 0.4095(2) 0.6753(2)
N1IA_2 N 0.3697(2) 0.0750(2) 0.5797(2)
N2IA_2 N 0.3247(2) 0.1304(2) 0.5905(2)
Cu1M Cu 0.63640(12) 0.5000 0.0000
O1M O 0.7605(6) 0.5000 0.0000
Cu2M Cu 0.7435(4) 0.5000 -0.1370(4)
N1N N 0.3697(2) -0.4203(2) 0.0750(2)
N2N N 0.3247(2) -0.4095(2) 0.1304(2)
C1N C 0.3508(3) -0.3508(3) 0.1623(4)
C2N C 0.3191(3) -0.3191(3) 0.2276(4)
C3N C 0.2577(3) -0.3484(4) 0.2577(3)
H1N H 0.2362 -0.3885 0.2361
N1S N 0.4203(2) -0.0750(2) 0.3697(2)
N2S N 0.4095(2) -0.1304(2) 0.3247(2)
C1S C 0.3508(3) -0.1623(4) 0.3508(3)
C2S C 0.3191(3) -0.2276(4) 0.3191(3)
C3S C 0.3484(4) -0.2577(3) 0.2577(3)
H1S H 0.3885 -0.2361 0.2362
N1U N 0.0750(2) -0.3697(2) 0.4203(2)
N2U N 0.1304(2) -0.3247(2) 0.4095(2)
C1U C 0.1623(4) -0.3508(3) 0.3508(3)
C2U C 0.2276(4) -0.3191(3) 0.3191(3)
C3U C 0.2577(3) -0.2577(3) 0.3484(4)
H1U H 0.2361 -0.2362 0.3885
N1Z N 0.4203(2) -0.3697(2) 0.0750(2)
N2Z N 0.4095(2) -0.3247(2) 0.1304(2)
N1EA N 0.0750(2) -0.4203(2) 0.3697(2)
N2EA N 0.1304(2) -0.4095(2) 0.3247(2)
N1GA N 0.3697(2) -0.0750(2) 0.4203(2)
N2GA N 0.3247(2) -0.1304(2) 0.4095(2)
Cu2N Cu 0.2565(4) 0.5000 0.1370(4)
N1N_2 N 0.3697(2) 0.5797(2) 0.0750(2)
N2N_2 N 0.3247(2) 0.5905(2) 0.1304(2)
C1N_2 C 0.3508(3) 0.6492(3) 0.1623(4)
C2N_2 C 0.3191(3) 0.6809(3) 0.2276(4)
C3N_2 C 0.2577(3) 0.6516(4) 0.2577(3)
H1N_2 H 0.2362 0.6115 0.2361
N1S_2 N 0.4203(2) 0.9250(2) 0.3697(2)
N2S_2 N 0.4095(2) 0.8696(2) 0.3247(2)
C1S_2 C 0.3508(3) 0.8377(4) 0.3508(3)
C2S_2 C 0.3191(3) 0.7724(4) 0.3191(3)
C3S_2 C 0.3484(4) 0.7423(3) 0.2577(3)
H1S_2 H 0.3885 0.7639 0.2362
N1U_2 N 0.0750(2) 0.6303(2) 0.4203(2)
N2U_2 N 0.1304(2) 0.6753(2) 0.4095(2)
C1U_2 C 0.1623(4) 0.6492(3) 0.3508(3)
C2U_2 C 0.2276(4) 0.6809(3) 0.3191(3)
C3U_2 C 0.2577(3) 0.7423(3) 0.3484(4)
H1U_2 H 0.2361 0.7638 0.3885
N1Z_2 N 0.4203(2) 0.6303(2) 0.0750(2)
N2Z_2 N 0.4095(2) 0.6753(2) 0.1304(2)
N1EA_2 N 0.0750(2) 0.5797(2) 0.3697(2)
N2EA_2 N 0.1304(2) 0.5905(2) 0.3247(2)
N1GA_2 N 0.3697(2) 0.9250(2) 0.4203(2)
N2GA_2 N 0.3247(2) 0.8696(2) 0.4095(2)
Cu2O Cu 0.7435(4) 0.5000 0.1370(4)
Cu1P Cu 0.5000 0.0000 -0.36360(12)
O1P O 0.5000 0.0000 -0.2395(6)
Cu2P Cu 0.5000 0.1370(4) -0.2565(4)
Cu2P_2 Cu 0.5000 0.1370(4) 0.7435(4)
Cu1Q Cu 0.5000 0.0000 0.36360(12)
O1Q O 0.5000 0.0000 0.2395(6)
Cu2Q Cu 0.5000 0.1370(4) 0.2565(4)
Cu2S Cu 0.5000 -0.1370(4) 0.2565(4)
Cu2S_2 Cu 0.5000 0.8630(4) 0.2565(4)
Cu2T Cu 0.1370(4) 0.2565(4) 0.5000
Cu2U Cu 0.1370(4) -0.2565(4) 0.5000
Cu1A_2 Cu 0.5000 -0.36360(12) 0.0000
O1A_2 O 0.5000 -0.2395(6) 0.0000
Cu1_2 Cu 0.5000 0.36360(12) 1.0000
Cu1A_3 Cu 0.5000 0.63640(12) 1.0000
Cu1D_3 Cu 0.0000 -0.5000 0.36360(12)
Cu1E_3 Cu 0.0000 0.5000 -0.36360(12)
Cu1H_2 Cu 0.36360(12) 0.0000 -0.5000
Cu1H_3 Cu 0.36360(12) 1.0000 0.5000
Cu1I Cu 0.63640(12) 0.0000 0.5000
Cu1I_2 Cu 0.63640(12) 1.0000 0.5000
Cu1L_2 Cu 0.36360(12) -0.5000 0.0000
Cu1L_3 Cu 0.36360(12) 0.5000 1.0000
Cu1M_2 Cu 0.63640(12) 0.5000 1.0000
Cu1P_2 Cu 0.5000 0.0000 0.63640(12)
Cu1P_3 Cu 0.5000 1.0000 0.63640(12)
Cu1Q_2 Cu 0.5000 1.0000 0.36360(12)
Cu1T Cu 0.0000 0.36360(12) -0.5000
Cu1T_2 Cu -0.0000 0.36360(12) 0.5000
Cu1T_3 Cu 1.0000 0.36360(12) 0.5000
Cu1U Cu -0.0000 -0.36360(12) 0.5000
Cu1U_2 Cu 0.0000 0.63640(12) 0.5000
Cu1U_3 Cu 1.0000 0.63640(12) 0.5000
Cl1_2 Cl 0.5000 -0.5000 0.0000
Cl1H Cl 0.5000 0.0000 -0.5000
Cl1H_2 Cl 0.5000 0.0000 0.5000
O1H_2 O 0.2395(6) 1.0000 0.5000
O1I O 0.7605(6) 0.0000 0.5000
O1I_2 O 0.7605(6) 1.0000 0.5000
O1L_2 O 0.2395(6) 0.5000 1.0000
O1P_2 O 0.5000 0.0000 0.7605(6)
O1Q_2 O 0.5000 1.0000 0.2395(6)
O1T O -0.0000 0.2395(6) 0.5000
O1U O -0.0000 -0.2395(6) 0.5000
Cu2A_2 Cu 0.5000 -0.2565(4) 0.1370(4)
Cu2B_2 Cu 0.5000 0.2565(4) 0.8630(4)
Cu2C_2 Cu 0.5000 -0.2565(4) -0.1370(4)
Cu2C_3 Cu 0.5000 0.7435(4) 0.8630(4)
Cu2D_2 Cu 0.1370(4) -0.5000 0.2565(4)
Cu2D_3 Cu 1.1370(4) 0.5000 0.2565(4)
Cu2E_2 Cu 0.1370(4) 0.5000 -0.2565(4)
Cu2E_3 Cu 1.1370(4) 0.5000 0.7435(4)
Cu2F_2 Cu -0.1370(4) 0.5000 0.2565(4)
Cu2G_2 Cu -0.1370(4) 0.5000 0.7435(4)
Cu2H_2 Cu 0.2565(4) 0.1370(4) -0.5000
Cu2J_2 Cu 0.2565(4) -0.1370(4) 0.5000
Cu2M_2 Cu 0.7435(4) 0.5000 0.8630(4)
Cu2N_2 Cu 0.2565(4) -0.5000 0.1370(4)
Cu2R Cu 0.5000 -0.1370(4) -0.2565(4)
Cu2R_2 Cu 0.5000 0.8630(4) 0.7435(4)
Cu2T_2 Cu 0.1370(4) 0.2565(4) -0.5000
Cu2U_2 Cu 0.1370(4) 0.7435(4) 0.5000
Cu2V Cu 0.8630(4) 0.2565(4) 0.5000
Cu2W Cu 0.8630(4) 0.7435(4) 0.5000
N1A_2 N 0.5797(2) -0.3697(2) 0.0750(2)
N1B_2 N 0.5797(2) 0.3697(2) -0.0750(2)
N1C_2 N 0.4203(2) -0.3697(2) -0.0750(2)
N1C_3 N 0.4203(2) 0.6303(2) -0.0750(2)
N1D_2 N 1.0750(2) 0.4203(2) 0.3697(2)
N1E_2 N 1.0750(2) 0.5797(2) 0.6303(2)
N1F_2 N -0.0750(2) 0.5797(2) 0.3697(2)
N1G_2 N -0.0750(2) 0.4203(2) 0.6303(2)
N1J_2 N 0.3697(2) -0.0750(2) 0.5797(2)
N1M N 0.6303(2) 0.5797(2) -0.0750(2)
N1O N 0.6303(2) 0.4203(2) 0.0750(2)
N1Q N 0.5797(2) 0.0750(2) 0.3697(2)
N1R N 0.5797(2) -0.0750(2) -0.3697(2)
N1X N 0.5797(2) -0.3697(2) -0.0750(2)
N1X_2 N 0.5797(2) 0.6303(2) -0.0750(2)
N1AA N 0.5797(2) 0.3697(2) 0.0750(2)
N1BA N -0.0750(2) 0.5797(2) 0.6303(2)
N1BA_2 N 0.9250(2) 0.5797(2) 0.6303(2)
N1CA N -0.0750(2) 0.4203(2) 0.3697(2)
N1CA_2 N 0.9250(2) 0.4203(2) 0.3697(2)
N1DA_3 N 1.0750(2) 0.4203(2) 0.6303(2)
N1EA_3 N 1.0750(2) 0.5797(2) 0.3697(2)
N1LA_2 N 0.6303(2) 0.4203(2) -0.0750(2)
N1MA_2 N 0.3697(2) 0.5797(2) -0.0750(2)
N1NA_2 N 0.5797(2) -0.0750(2) 0.3697(2)
N1OA_2 N 0.4203(2) -0.0750(2) -0.3697(2)
N1QA_2 N 0.5797(2) 0.0750(2) -0.3697(2)
N2B_2 N 0.5905(2) 0.3247(2) -0.1304(2)
N2C_2 N 0.4095(2) 0.6753(2) -0.1304(2)
N2M N 0.6753(2) 0.5905(2) -0.1304(2)
N2O N 0.6753(2) 0.4095(2) 0.1304(2)
N2Q N 0.5905(2) 0.1304(2) 0.3247(2)
N2X N 0.5905(2) 0.6753(2) -0.1304(2)
N2AA N 0.5905(2) 0.3247(2) 0.1304(2)
N2BA N 0.8696(2) 0.5905(2) 0.6753(2)
N2CA N 0.8696(2) 0.4095(2) 0.3247(2)
N2FA N 0.6753(2) 0.8696(2) 0.5905(2)
N2HA N 0.6753(2) 0.1304(2) 0.4095(2)
N2LA_2 N 0.6753(2) 0.4095(2) -0.1304(2)
N2MA_2 N 0.3247(2) 0.5905(2) -0.1304(2)
N2NA_2 N 0.5905(2) -0.1304(2) 0.3247(2)
N2QA_2 N 0.5905(2) 0.1304(2) -0.3247(2)
N2TA_2 N 0.1304(2) -0.3247(2) 0.5905(2)
loop_
_geom_bond_atom_site_label_1
_geom_bond_atom_site_label_2
_geom_bond_site_symmetry_1
_geom_bond_site_symmetry_2
Cu1 Cl1 1_555 1_555
Cl1 Cu1A 1_555 1_555
O1 Cu1 1_555 1_555
Cu2 O1 1_555 1_555
N1 Cu1 1_555 1_555
N2 Cu2 1_555 1_555
C1 N2 1_555 1_555
C2 C1 1_555 1_555
C3 C2 1_555 1_555
H1 C3 1_555 1_555
N1D N2D 1_555 1_555
N2D C1D 1_555 1_555
C1D C2D 1_555 1_555
C2D C3D 1_555 1_555
C3D C2 1_555 1_555
H1D C3D 1_555 1_555
N1H N2H 1_555 1_555
N2H C1H 1_555 1_555
C1H C2H 1_555 1_555
C2H C3 1_555 1_555
C3H C2D 1_555 1_555
H1H C3H 1_555 1_555
N1KA N1 1_555 1_555
N2KA C1 1_555 1_555
N1PA N1H 1_555 1_555
N2PA C1H 1_555 1_555
N1UA N1D 1_555 1_555
N2UA C1D 1_555 1_555
Cu1A O1A 1_555 1_555
O1A Cu2A 1_555 1_555
Cu2A N2A 1_555 1_555
N1A Cu1A 1_555 1_555
N2A N1A 1_555 1_555
C1A N2A 1_555 1_555
C2A C1A 1_555 1_555
C3A C2A 1_555 1_555
H1A C3A 1_555 1_555
N1F N2F 1_555 1_555
N2F C1F 1_555 1_555
C1F C2F 1_555 1_555
C2F C3F 1_555 1_555
C3F C2A 1_555 1_555
H1F C3F 1_555 1_555
N1K N2K 1_555 1_555
N2K C1K 1_555 1_555
C1K C2K 1_555 1_555
C2K C3A 1_555 1_555
C3K C2F 1_555 1_555
H1K C3K 1_555 1_555
N1JA N1A 1_555 1_555
N2JA C1A 1_555 1_555
N1NA N1K 1_555 1_555
N2NA C1K 1_555 1_555
N1RA N1F 1_555 1_555
N2RA C1F 1_555 1_555
Cu2B O1 1_555 1_555
Cu2C O1A 1_555 1_555
Cu1D N1D 1_555 1_555
Cl1D Cu1D 1_555 1_555
O1D Cu1D 1_555 1_555
Cu2D N2D 1_555 1_555
Cu1E Cl1D 1_555 1_555
O1E Cu1E 1_555 1_555
Cu2E O1E 1_555 1_555
N1E Cu1E 1_555 1_555
N2E Cu2E 1_555 1_555
C1E N2E 1_555 1_555
C2E C1E 1_555 1_555
C3E C2E 1_555 1_555
H1E C3E 1_555 1_555
N1J N2J 1_555 1_555
N2J C1J 1_555 1_555
C1J C2J 1_555 1_555
C2J C3J 1_555 1_555
C3J C2E 1_555 1_555
H1J C3J 1_555 1_555
N1C N2C 1_555 1_555
N2C C1C 1_555 1_555
C1C C2C 1_555 1_555
C2C C3E 1_555 1_555
C3C C2J 1_555 1_555
H1C C3C 1_555 1_555
N1TA N1E 1_555 1_555
N2TA C1E 1_555 1_555
N1MA N1C 1_555 1_555
N2MA C1C 1_555 1_555
N1OA N1J 1_555 1_555
N2OA C1J 1_555 1_555
Cu1D_2 N1F 1_555 1_555
Cl1D_2 Cu1D_2 1_555 1_555
O1D_2 Cu1D_2 1_555 1_555
Cu2F N2F 1_555 1_555
Cu1E_2 Cl1D_2 1_555 1_555
O1E_2 Cu1E_2 1_555 1_555
Cu2G O1E_2 1_555 1_555
N1G Cu1E_2 1_555 1_555
N2G Cu2G 1_555 1_555
C1G N2G 1_555 1_555
C2G C1G 1_555 1_555
C3G C2G 1_555 1_555
H1G C3G 1_555 1_555
N1I N2I 1_555 1_555
N2I C1I 1_555 1_555
C1I C2I 1_555 1_555
C2I C3I 1_555 1_555
C3I C2G 1_555 1_555
H1I C3I 1_555 1_555
N1B N2B 1_555 1_555
N2B C1B 1_555 1_555
C1B C2B 1_555 1_555
C2B C3G 1_555 1_555
C3B C2I 1_555 1_555
H1B C3B 1_555 1_555
N1SA N1G 1_555 1_555
N2SA C1G 1_555 1_555
N1LA N1B 1_555 1_555
N2LA C1B 1_555 1_555
N1QA N1I 1_555 1_555
N2QA C1I 1_555 1_555
Cu1H N1H 1_555 1_555
O1H Cu1H 1_555 1_555
Cu2H N2H 1_555 1_555
Cu2I N2I 1_555 1_555
Cu2J N2J 1_555 1_555
Cu2K N2K 1_555 1_555
Cu1L Cl1 1_555 1_555
O1L Cu1L 1_555 1_555
Cu2L O1L 1_555 1_555
N1L Cu1L 1_555 1_555
N2L Cu2L 1_555 1_555
C1L N2L 1_555 1_555
C2L C1L 1_555 1_555
C3L C2L 1_555 1_555
H1L C3L 1_555 1_555
N1P N2P 1_555 1_555
N2P C1P 1_555 1_555
C1P C2P 1_555 1_555
C2P C3P 1_555 1_555
C3P C2L 1_555 1_555
H1P C3P 1_555 1_555
N1T N2T 1_555 1_555
N2T C1T 1_555 1_555
C1T C2T 1_555 1_555
C2T C3L 1_555 1_555
C3T C2P 1_555 1_555
H1T C3T 1_555 1_555
N1Y Cu1 1_555 1_555
N2Y Cu2B 1_555 1_555
N1DA N1T 1_555 1_555
N2DA C1T 1_555 1_555
N1IA N1P 1_555 1_555
N2IA C1P 1_555 1_555
Cu2L_2 N2MA 1_555 1_555
N1L_2 N2L_2 1_555 1_555
N2L_2 Cu2L_2 1_555 1_555
C1L_2 N2L_2 1_555 1_555
C2L_2 C1L_2 1_555 1_555
C3L_2 C2L_2 1_555 1_555
H1L_2 C3L_2 1_555 1_555
N1P_2 N2P_2 1_555 1_555
N2P_2 C1P_2 1_555 1_555
C1P_2 C2P_2 1_555 1_555
C2P_2 C3P_2 1_555 1_555
C3P_2 C2L_2 1_555 1_555
H1P_2 C3P_2 1_555 1_555
N1T_2 N2T_2 1_555 1_555
N2T_2 C1T_2 1_555 1_555
C1T_2 C2T_2 1_555 1_555
C2T_2 C3L_2 1_555 1_555
C3T_2 C2P_2 1_555 1_555
H1T_2 C3T_2 1_555 1_555
N1Y_2 N1L_2 1_555 1_555
N2Y_2 C1L_2 1_555 1_555
N1DA_2 Cu1E 1_555 1_555
N2DA_2 Cu2E 1_555 1_555
N1IA_2 Cu1H 1_555 1_555
N2IA_2 Cu2H 1_555 1_555
Cu1M Cl1 1_555 1_555
O1M Cu1M 1_555 1_555
Cu2M O1M 1_555 1_555
N1N N2N 1_555 1_555
N2N C1N 1_555 1_555
C1N C2N 1_555 1_555
C2N C3N 1_555 1_555
C3N H1N 1_555 1_555
N1S N2S 1_555 1_555
N2S C1S 1_555 1_555
C1S C2S 1_555 1_555
C2S C3S 1_555 1_555
C3S C2N 1_555 1_555
H1S C3S 1_555 1_555
N1U N2U 1_555 1_555
N2U C1U 1_555 1_555
C1U C2U 1_555 1_555
C2U C3N 1_555 1_555
C3U C2S 1_555 1_555
H1U C3U 1_555 1_555
N1Z N1N 1_555 1_555
N2Z C1N 1_555 1_555
N1EA N1U 1_555 1_555
N2EA C1U 1_555 1_555
N1GA Cu1H 1_555 1_555
N2GA C1S 1_555 1_555
Cu2N N2KA 1_555 1_555
N1N_2 Cu1L 1_555 1_555
N2N_2 Cu2N 1_555 1_555
C1N_2 N2N_2 1_555 1_555
C2N_2 C1N_2 1_555 1_555
C3N_2 C2N_2 1_555 1_555
H1N_2 C3N_2 1_555 1_555
N1S_2 N2S_2 1_555 1_555
N2S_2 C1S_2 1_555 1_555
C1S_2 C2S_2 1_555 1_555
C2S_2 C3S_2 1_555 1_555
C3S_2 C2N_2 1_555 1_555
H1S_2 C3S_2 1_555 1_555
N1U_2 N2U_2 1_555 1_555
N2U_2 C1U_2 1_555 1_555
C1U_2 C2U_2 1_555 1_555
C2U_2 C3N_2 1_555 1_555
C3U_2 C2S_2 1_555 1_555
H1U_2 C3U_2 1_555 1_555
N1Z_2 Cu1A 1_555 1_555
N2Z_2 Cu2A 1_555 1_555
N1EA_2 Cu1D 1_555 1_555
N2EA_2 Cu2D 1_555 1_555
N1GA_2 N1S_2 1_555 1_555
N2GA_2 Cu2J 1_555 1_555
Cu2O N2JA 1_555 1_555
Cu1P N1P 1_555 1_555
O1P Cu1P 1_555 1_555
Cu2P N2P 1_555 1_555
Cu2P_2 N2QA 1_555 1_555
Cu1Q N1PA 1_555 1_555
O1Q Cu1Q 1_555 1_555
Cu2Q N2PA 1_555 1_555
Cu2S N2S 1_555 1_555
Cu2S_2 N2NA 1_555 1_555
Cu2T N2UA 1_555 1_555
Cu2U N2U 1_555 1_555
Cu1A_2 N1Z 1_555 1_555
O1A_2 Cu1A_2 1_555 1_555
Cu1_2 N1B 1_555 1_555
Cu1A_3 N1C 1_555 1_555
Cu1D_3 N1EA 1_555 1_555
Cu1E_3 N1DA 1_555 1_555
Cu1H_2 N1IA 1_555 1_555
Cu1H_3 N1J 1_555 1_555
Cu1I N1I 1_555 1_555
Cu1I_2 N1K 1_555 1_555
Cu1L_2 N1N 1_555 1_555
Cu1L_3 N1MA 1_555 1_555
Cu1M_2 N1LA 1_555 1_555
Cu1P_2 N1QA 1_555 1_555
Cu1P_3 N1OA 1_555 1_555
Cu1Q_2 N1NA 1_555 1_555
Cu1T N1T 1_555 1_555
Cu1T_2 N1UA 1_555 1_555
Cu1T_3 Cl1D_2 1_555 1_555
Cu1U N1U 1_555 1_555
Cu1U_2 Cl1D 1_555 1_555
Cu1U_3 N1RA 1_555 1_555
Cl1_2 Cu1A_2 1_555 1_555
Cl1H Cu1P 1_555 1_555
Cl1H_2 Cu1H 1_555 1_555
O1H_2 Cu2J 1_555 1_555
O1I Cu2I 1_555 1_555
O1I_2 Cu2K 1_555 1_555
O1L_2 Cu2L_2 1_555 1_555
O1P_2 Cu2P_2 1_555 1_555
O1Q_2 Cu2S_2 1_555 1_555
O1T Cu2T 1_555 1_555
O1U Cu2U 1_555 1_555
Cu2A_2 N2Z 1_555 1_555
Cu2B_2 N2B 1_555 1_555
Cu2C_2 O1A_2 1_555 1_555
Cu2C_3 N2C 1_555 1_555
Cu2D_2 N2EA 1_555 1_555
Cu2D_3 O1D_2 1_555 1_555
Cu2E_2 N2DA 1_555 1_555
Cu2E_3 O1E_2 1_555 1_555
Cu2F_2 O1D 1_555 1_555
Cu2G_2 O1E 1_555 1_555
Cu2H_2 N2IA 1_555 1_555
Cu2J_2 O1H 1_555 1_555
Cu2M_2 N2LA 1_555 1_555
Cu2N_2 N2N 1_555 1_555
Cu2R O1P 1_555 1_555
Cu2R_2 N2OA 1_555 1_555
Cu2T_2 N2T 1_555 1_555
Cu2U_2 N2TA 1_555 1_555
Cu2V N2SA 1_555 1_555
Cu2W N2RA 1_555 1_555
N1A_2 Cu1A_2 1_555 1_555
N1B_2 Cu1 1_555 1_555
N1C_2 Cu1A_2 1_555 1_555
N1C_3 Cu1A 1_555 1_555
N1D_2 Cu1D_2 1_555 1_555
N1E_2 Cu1E_2 1_555 1_555
N1F_2 Cu1D 1_555 1_555
N1G_2 Cu1E 1_555 1_555
N1J_2 Cu1H 1_555 1_555
N1M Cu1M 1_555 1_555
N1O Cu1M 1_555 1_555
N1Q Cu1Q 1_555 1_555
N1R Cu1P 1_555 1_555
N1X Cu1A_2 1_555 1_555
N1X_2 Cu1A 1_555 1_555
N1AA Cu1 1_555 1_555
N1BA Cu1E 1_555 1_555
N1BA_2 Cu1E_2 1_555 1_555
N1CA Cu1D 1_555 1_555
N1CA_2 Cu1D_2 1_555 1_555
N1DA_3 Cu1E_2 1_555 1_555
N1EA_3 Cu1D_2 1_555 1_555
N1LA_2 Cu1M 1_555 1_555
N1MA_2 Cu1L 1_555 1_555
N1NA_2 Cu1Q 1_555 1_555
N1OA_2 Cu1P 1_555 1_555
N1QA_2 Cu1P 1_555 1_555
N2B_2 Cu2B 1_555 1_555
N2C_2 Cu2C 1_555 1_555
N2M Cu2M 1_555 1_555
N2O Cu2O 1_555 1_555
N2Q Cu2Q 1_555 1_555
N2X Cu2C 1_555 1_555
N2AA Cu2 1_555 1_555
N2BA Cu2G 1_555 1_555
N2CA Cu2F 1_555 1_555
N2FA Cu2K 1_555 1_555
N2HA Cu2I 1_555 1_555
N2LA_2 Cu2M 1_555 1_555
N2MA_2 Cu2L 1_555 1_555
N2NA_2 Cu2S 1_555 1_555
N2QA_2 Cu2P 1_555 1_555
N2TA_2 Cu2U 1_555 1_555
N1 N2 1_555 1_555
C2H C3H 1_555 1_555
N1KA N2KA 1_555 1_555
N1KA Cu1L 1_555 1_555
N1PA N2PA 1_555 1_555
N1UA N2UA 1_555 1_555
C2K C3K 1_555 1_555
N1JA N2JA 1_555 1_555
N1JA Cu1M 1_555 1_555
N1NA N2NA 1_555 1_555
N1RA N2RA 1_555 1_555
Cl1D Cu1T_2 1_555 1_555
O1D Cu2D 1_555 1_555
N1E N2E 1_555 1_555
C2C C3C 1_555 1_555
N1TA N2TA 1_555 1_555
N1TA Cu1U_2 1_555 1_555
N1MA N2MA 1_555 1_555
N1OA N2OA 1_555 1_555
Cl1D_2 Cu1U_3 1_555 1_555
O1D_2 Cu2F 1_555 1_555
N1G N2G 1_555 1_555
C2B C3B 1_555 1_555
N1SA N2SA 1_555 1_555
N1SA Cu1T_3 1_555 1_555
N1LA N2LA 1_555 1_555
N1QA N2QA 1_555 1_555
O1H Cu2H 1_555 1_555
O1L Cu2N 1_555 1_555
N1L N2L 1_555 1_555
N1L N1Y 1_555 1_555
C1L N2Y 1_555 1_555
C2T C3T 1_555 1_555
N1Y N2Y 1_555 1_555
N1DA N2DA 1_555 1_555
N1IA N2IA 1_555 1_555
N1L_2 Cu1L_3 1_555 1_555
N1P_2 N1IA_2 1_555 1_555
N1P_2 Cu1P_2 1_555 1_555
N2P_2 Cu2P_2 1_555 1_555
C1P_2 N2IA_2 1_555 1_555
N1T_2 N1DA_2 1_555 1_555
N1T_2 Cu1T_2 1_555 1_555
N2T_2 Cu2T 1_555 1_555
C1T_2 N2DA_2 1_555 1_555
C2T_2 C3T_2 1_555 1_555
N1Y_2 N2Y_2 1_555 1_555
N1Y_2 Cu1_2 1_555 1_555
N2Y_2 Cu2B_2 1_555 1_555
N1DA_2 N2DA_2 1_555 1_555
N1IA_2 N2IA_2 1_555 1_555
O1M Cu2O 1_555 1_555
N1S N1GA 1_555 1_555
N1S Cu1Q 1_555 1_555
C2U C3U 1_555 1_555
N1Z N2Z 1_555 1_555
N1EA N2EA 1_555 1_555
N1GA N2GA 1_555 1_555
N2GA Cu2J_2 1_555 1_555
N1N_2 N2N_2 1_555 1_555
N1N_2 N1Z_2 1_555 1_555
C1N_2 N2Z_2 1_555 1_555
N1S_2 Cu1Q_2 1_555 1_555
N2S_2 Cu2S_2 1_555 1_555
C1S_2 N2GA_2 1_555 1_555
N1U_2 N1EA_2 1_555 1_555
N1U_2 Cu1U_2 1_555 1_555
N2U_2 Cu2U_2 1_555 1_555
C1U_2 N2EA_2 1_555 1_555
C2U_2 C3U_2 1_555 1_555
N1Z_2 N2Z_2 1_555 1_555
N1EA_2 N2EA_2 1_555 1_555
N1GA_2 N2GA_2 1_555 1_555
N1GA_2 Cu1H_3 1_555 1_555
O1P Cu2P 1_555 1_555
Cu1Q Cl1H_2 1_555 1_555
O1Q Cu2Q 1_555 1_555
O1Q Cu2S 1_555 1_555
O1A_2 Cu2A_2 1_555 1_555
Cu1H_2 Cl1H 1_555 1_555
Cu1H_3 O1H_2 1_555 1_555
Cu1I Cl1H_2 1_555 1_555
Cu1I O1I 1_555 1_555
Cu1I_2 O1I_2 1_555 1_555
Cu1L_2 Cl1_2 1_555 1_555
Cu1L_3 O1L_2 1_555 1_555
Cu1P_2 Cl1H_2 1_555 1_555
Cu1P_2 O1P_2 1_555 1_555
Cu1Q_2 O1Q_2 1_555 1_555
Cu1T_2 O1T 1_555 1_555
Cu1U O1U 1_555 1_555
N1B_2 N1LA_2 1_555 1_555
N1B_2 N2B_2 1_555 1_555
N1C_3 N1MA_2 1_555 1_555
N1C_3 N2C_2 1_555 1_555
N1M N1X_2 1_555 1_555
N1M N2M 1_555 1_555
N1O N1AA 1_555 1_555
N1O N2O 1_555 1_555
N1Q N2Q 1_555 1_555
N1X_2 N2X 1_555 1_555
N1AA N2AA 1_555 1_555
N1BA_2 N2BA 1_555 1_555
N1CA_2 N2CA 1_555 1_555
N1LA_2 N2LA_2 1_555 1_555
N1MA_2 N2MA_2 1_555 1_555
N1NA_2 N2NA_2 1_555 1_555
N1QA_2 N2QA_2 1_555 1_555

#END
