
#######################################################################
#
#                 Cambridge Crystallographic Data Centre
#                                CCDC 
#
#######################################################################
#
# If this CIF has been generated from an entry in the Cambridge 
# Structural Database, then it will include bibliographic, chemical, 
# crystal, experimental, refinement or atomic coordinate data resulting 
# from the CCDC's data processing and validation procedures.
#
#######################################################################

data_DUTKAG
_chemical_formula_moiety         '(C30 H21 F3 N14 O6 Zn3)n'
_symmetry_cell_setting           rhombohedral
_symmetry_space_group_name_H-M   'R 3 m'
_symmetry_Int_Tables_number      160
_space_group_name_Hall           'R 3 -2"'
loop_
_symmetry_equiv_pos_site_id
_symmetry_equiv_pos_as_xyz
1 x,y,z
2 -y,x-y,z
3 -x+y,-x,z
4 -y,-x,z
5 -x+y,y,z
6 x,x-y,z
7 2/3+x,1/3+y,1/3+z
8 2/3-y,1/3+x-y,1/3+z
9 2/3-x+y,1/3-x,1/3+z
10 2/3-y,1/3-x,1/3+z
11 2/3-x+y,1/3+y,1/3+z
12 2/3+x,1/3+x-y,1/3+z
13 1/3+x,2/3+y,2/3+z
14 1/3-y,2/3+x-y,2/3+z
15 1/3-x+y,2/3-x,2/3+z
16 1/3-y,2/3-x,2/3+z
17 1/3-x+y,2/3+y,2/3+z
18 1/3+x,2/3+x-y,2/3+z
_cell_length_a                   20.658(2)
_cell_length_b                   20.658(2)
_cell_length_c                   13.775(3)
_cell_angle_alpha                90
_cell_angle_beta                 90
_cell_angle_gamma                120
_cell_volume                     5090.95
loop_
_atom_site_label
_atom_site_type_symbol
_atom_site_fract_x
_atom_site_fract_y
_atom_site_fract_z
F1 F 0.4536(3) -0.0928(7) 0.7109(7)
Zn1 Zn 0.6667 0.3333 0.36326(17)
Zn2 Zn 0.6667 0.3333 0.62343(9)
Zn3 Zn 0.3333 -0.3333 0.43650(9)
N1 N 0.6179(2) 0.2358(5) 0.4526(7)
N2 N 0.6225(3) 0.2449(6) 0.5517(7)
N3 N 0.5879(2) 0.1759(5) 0.5916(6)
N4 N 0.5824(2) 0.1648(4) 0.4285(6)
N5 N 0.3333 -0.3333 0.1092(11)
N6 N 0.3333 -0.3333 0.2966(10)
C1 C 0.5630(2) 0.1260(5) 0.5141(6)
C2 C 0.5224(2) 0.0447(5) 0.5243(8)
C3 C 0.5047(3) 0.0094(5) 0.6133(9)
H1 H 0.5188 0.0376 0.6700
C4 C 0.4664(2) -0.0671(5) 0.6185(6)
C5 C 0.4416(3) -0.1168(5) 0.5393(6)
C6 C 0.4612(3) -0.0775(6) 0.4513(8)
H2 H 0.4474 -0.1052 0.3941
C7 C 0.5001(3) 0.0003(6) 0.4435(10)
H3 H 0.5111 0.0223 0.3824
C8 C 0.4039(3) -0.1922(5) 0.5444(6)
C9 C 0.2950(2) -0.4100(5) 0.1434(6)
H4 H 0.3201 -0.4360 0.1199
C10 C 0.2961(3) -0.4078(5) 0.2563(6)
H5 H 0.3208 -0.4342 0.2799
O1 O 0.38492(15) -0.2302(3) 0.6150(5)
O2 O 0.3857(2) -0.2286(4) 0.4695(6)
C9A C 0.4100(5) -0.2950(5) 0.1434(6)
H4A H 0.4360 -0.2439 0.1199
C10A C 0.4078(5) -0.2961(6) 0.2563(6)
H5A H 0.4342 -0.2450 0.2799
C9B C 0.2950(5) -0.2950(2) 0.1434(6)
H4B H 0.2439 -0.3201 0.1199
C10B C 0.2961(6) -0.2961(3) 0.2563(6)
H5B H 0.2450 -0.3208 0.2799
H4C H 0.4360 -0.3201 0.1199
H5C H 0.4342 -0.3208 0.2799
H4D H 0.2439 -0.4360 0.1199
H5D H 0.2450 -0.4342 0.2799
H4E H 0.3201 -0.2439 0.1199
H5E H 0.3208 -0.2450 0.2799
F1A F 0.0928(7) -0.4536(8) 0.7109(7)
N1A N -0.2358(5) -0.6179(5) 0.4526(7)
N2A N -0.2449(6) -0.6224(7) 0.5517(7)
N3A N -0.1759(5) -0.5880(5) 0.5916(6)
N4A N -0.1648(4) -0.5824(4) 0.4285(6)
C1A C -0.1260(5) -0.5630(5) 0.5141(6)
C2A C -0.0447(5) -0.5223(5) 0.5243(8)
C3A C -0.0094(5) -0.5047(6) 0.6133(9)
H1A H -0.0376 -0.5188 0.6700
C4A C 0.0671(5) -0.4665(5) 0.6185(6)
C5A C 0.1168(5) -0.4416(6) 0.5393(6)
C6A C 0.0775(6) -0.4613(7) 0.4513(8)
H2A H 0.1052 -0.4474 0.3941
C7A C -0.0003(6) -0.5002(7) 0.4435(10)
H3A H -0.0223 -0.5112 0.3824
C8A C 0.1922(5) -0.4039(6) 0.5444(6)
O1A O 0.2302(3) -0.38488(34) 0.6150(5)
O2A O 0.2286(4) -0.3857(4) 0.4695(6)
F1B F 0.4536(8) -0.4536(3) 0.7109(7)
N1B N 0.6179(5) -0.6179(2) 0.4526(7)
N2B N 0.6224(7) -0.6225(3) 0.5517(7)
N3B N 0.5880(5) -0.5879(2) 0.5916(6)
N4B N 0.5824(4) -0.5824(2) 0.4285(6)
C1B C 0.5630(5) -0.5630(2) 0.5141(6)
C2B C 0.5223(5) -0.5224(2) 0.5243(8)
C3B C 0.5047(6) -0.5047(3) 0.6133(9)
H1B H 0.5188 -0.5188 0.6700
C4B C 0.4665(5) -0.4664(2) 0.6185(6)
C5B C 0.4416(6) -0.4416(3) 0.5393(6)
C6B C 0.4613(7) -0.4612(3) 0.4513(8)
H2B H 0.4474 -0.4474 0.3941
C7B C 0.5002(7) -0.5001(3) 0.4435(10)
H3B H 0.5112 -0.5111 0.3824
C8B C 0.4039(6) -0.4039(3) 0.5444(6)
O1B O 0.38488(34) -0.38492(15) 0.6150(5)
O2B O 0.3857(4) -0.3857(2) 0.4695(6)
Zn1_2 Zn -0.3333 -0.6667 0.36326(17)
Zn1_3 Zn 0.6667 -0.6667 0.36326(17)
Zn1F Zn 0.3334 -0.3334 0.69659(17)
Zn2_2 Zn -0.3333 -0.6667 0.62343(9)
Zn2_3 Zn 0.6667 -0.6667 0.62343(9)
Zn2F Zn 0.3334 -0.3334 -0.04324(9)
N1A_2 N 0.7642(5) 0.3821(5) 0.4526(7)
N1B_2 N 0.6179(5) 0.3821(2) 0.4526(7)
N2A_2 N 0.7551(6) 0.3776(7) 0.5517(7)
N2B_2 N 0.6224(7) 0.3775(3) 0.5517(7)
N5L N 0.6666 0.3334 0.7759(11)
O1L O 0.71825(15) 0.4365(3) 0.2817(5)
O1M O 0.5635(3) 0.28179(34) 0.2817(5)
O1N O 0.71821(34) 0.28175(15) 0.2817(5)
loop_
_geom_bond_atom_site_label_1
_geom_bond_atom_site_label_2
_geom_bond_site_symmetry_1
_geom_bond_site_symmetry_2
F1 C4 1_555 1_555
Zn1 N1 1_555 1_555
Zn2 N2 1_555 1_555
Zn3 N6 1_555 1_555
N1 N2 1_555 1_555
N2 N3 1_555 1_555
N3 C1 1_555 1_555
N4 N1 1_555 1_555
N5 C9 1_555 1_555
N6 C10 1_555 1_555
C1 N4 1_555 1_555
C2 C1 1_555 1_555
C3 C2 1_555 1_555
H1 C3 1_555 1_555
C4 C3 1_555 1_555
C5 C4 1_555 1_555
C6 C5 1_555 1_555
H2 C6 1_555 1_555
C7 C2 1_555 1_555
H3 C7 1_555 1_555
C8 C5 1_555 1_555
C9 H4 1_555 1_555
C10 C9 1_555 1_555
H5 C10 1_555 1_555
O1 C8 1_555 1_555
O2 Zn3 1_555 1_555
C9A N5 1_555 1_555
H4A C9A 1_555 1_555
C10A N6 1_555 1_555
H5A C10A 1_555 1_555
C9B N5 1_555 1_555
H4B C9B 1_555 1_555
C10B N6 1_555 1_555
H5B C10B 1_555 1_555
H4C C9A 1_555 1_555
H5C C10A 1_555 1_555
H4D C9 1_555 1_555
H5D C10 1_555 1_555
H4E C9B 1_555 1_555
H5E C10B 1_555 1_555
F1A C4A 1_555 1_555
N1A N2A 1_555 1_555
N2A N3A 1_555 1_555
N3A C1A 1_555 1_555
N4A N1A 1_555 1_555
C1A N4A 1_555 1_555
C2A C1A 1_555 1_555
C3A C2A 1_555 1_555
H1A C3A 1_555 1_555
C4A C3A 1_555 1_555
C5A C4A 1_555 1_555
C6A C5A 1_555 1_555
H2A C6A 1_555 1_555
C7A C2A 1_555 1_555
H3A C7A 1_555 1_555
C8A C5A 1_555 1_555
O1A C8A 1_555 1_555
O2A Zn3 1_555 1_555
F1B C4B 1_555 1_555
N1B N2B 1_555 1_555
N2B N3B 1_555 1_555
N3B C1B 1_555 1_555
N4B N1B 1_555 1_555
C1B N4B 1_555 1_555
C2B C1B 1_555 1_555
C3B C2B 1_555 1_555
H1B C3B 1_555 1_555
C4B C3B 1_555 1_555
C5B C4B 1_555 1_555
C6B C5B 1_555 1_555
H2B C6B 1_555 1_555
C7B C2B 1_555 1_555
H3B C7B 1_555 1_555
C8B C5B 1_555 1_555
O1B C8B 1_555 1_555
O2B Zn3 1_555 1_555
Zn1_2 N1A 1_555 1_555
Zn1_3 N1B 1_555 1_555
Zn1F O1 1_555 1_555
Zn2_2 N2A 1_555 1_555
Zn2_3 N2B 1_555 1_555
Zn2F N5 1_555 1_555
N1A_2 Zn1 1_555 1_555
N1B_2 Zn1 1_555 1_555
N2A_2 Zn2 1_555 1_555
N2B_2 Zn2 1_555 1_555
N5L Zn2 1_555 1_555
O1L Zn1 1_555 1_555
O1M Zn1 1_555 1_555
O1N Zn1 1_555 1_555
C6 C7 1_555 1_555
C8 O2 1_555 1_555
C9A C10A 1_555 1_555
C9B C10B 1_555 1_555
C6A C7A 1_555 1_555
C8A O2A 1_555 1_555
O1A Zn1F 1_555 1_555
C6B C7B 1_555 1_555
C8B O2B 1_555 1_555
O1B Zn1F 1_555 1_555
N1A_2 N2A_2 1_555 1_555
N1B_2 N2B_2 1_555 1_555

#END
