
#######################################################################
#
#                 Cambridge Crystallographic Data Centre
#                                CCDC 
#
#######################################################################
#
# If this CIF has been generated from an entry in the Cambridge 
# Structural Database, then it will include bibliographic, chemical, 
# crystal, experimental, refinement or atomic coordinate data resulting 
# from the CCDC's data processing and validation procedures.
#
#######################################################################

data_BAQWOI
_chemical_formula_moiety         '(C64 H59 Ag10 Mo12 N32 O41 P1)n'
_symmetry_cell_setting           monoclinic
_symmetry_space_group_name_H-M   'P 21/c'
_symmetry_Int_Tables_number      14
_space_group_name_Hall           '-P 2ybc'
loop_
_symmetry_equiv_pos_site_id
_symmetry_equiv_pos_as_xyz
1 x,y,z
2 -x,1/2+y,1/2-z
3 -x,-y,-z
4 x,1/2-y,1/2+z
_cell_length_a                   24.973(2)
_cell_length_b                   19.3506(16)
_cell_length_c                   21.3833(18)
_cell_angle_alpha                90
_cell_angle_beta                 96.045(2)
_cell_angle_gamma                90
_cell_volume                     10275.9
loop_
_atom_site_label
_atom_site_type_symbol
_atom_site_fract_x
_atom_site_fract_y
_atom_site_fract_z
_atom_site_U_iso_or_equiv
_atom_site_thermal_displace_type
Ag1 Ag -0.30030(9) 0.21057(8) 0.44271(11) 0.0815 Uani
Mo1 Mo 0.35235(4) 0.59033(6) 0.73583(5) 0.0363 Uani
P1 P 0.24070(10) 0.47996(12) 0.75015(11) 0.0145 Uani
O1 O 0.1970(3) 0.4379(3) 0.7125(3) 0.0249 Uani
C1 C -0.0392(4) 0.2766(5) 0.9613(5) 0.0240 Uani
N1 N -0.0191(4) 0.4028(4) 0.9649(4) 0.0260 Uani
Ag2 Ag -0.09671(5) 0.21633(5) 0.62967(5) 0.0513 Uani
Mo2 Mo 0.21190(5) 0.34285(6) 0.64035(5) 0.0397 Uani
O2 O 0.2744(3) 0.4324(3) 0.7968(3) 0.0222 Uani
N2 N -0.0176(4) 0.4518(4) 0.9196(4) 0.0283 Uani
C2 C -0.0787(5) 0.2324(6) 0.9303(5) 0.0345 Uani
H1 H -0.0972 0.2447 0.8919 0.0420 Uiso
Mo3 Mo 0.12765(4) 0.36790(6) 0.75447(5) 0.0373 Uani
N3 N -0.0257(4) 0.4236(4) 0.8637(4) 0.0285 Uani
O3 O 0.2776(3) 0.5126(4) 0.7056(3) 0.0233 Uani
C3 C -0.0888(6) 0.1696(6) 0.9592(6) 0.0453 Uani
H2 H -0.1149 0.1399 0.9402 0.0540 Uiso
Mo4 Mo 0.35242(4) 0.46759(5) 0.86748(5) 0.0287 Uani
O4 O 0.2144(3) 0.5370(3) 0.7863(3) 0.0214 Uani
N4 N -0.0338(4) 0.3542(4) 0.8712(4) 0.0248 Uani
C4 C -0.0610(6) 0.1518(7) 1.0148(7) 0.0501 Uani
H3 H -0.0688 0.1099 1.0331 0.0600 Uiso
Ag3 Ag 0.00956(5) 0.56798(5) 0.93377(4) 0.0443 Uani
Mo5 Mo 0.24990(4) 0.58786(5) 0.61717(5) 0.0302 Uani
N5 N -0.1589(4) 0.3608(4) 0.6323(4) 0.0302 Uani
O5 O 0.2104(3) 0.6710(4) 0.8050(4) 0.0326 Uani
C5 C -0.0219(5) 0.1931(6) 1.0452(5) 0.0359 Uani
Ag4 Ag -0.05480(4) 0.48252(4) 0.77003(4) 0.0404 Uani
Mo6 Mo 0.33420(5) 0.44960(6) 0.63812(5) 0.0402 Uani
C6 C -0.0123(4) 0.2565(5) 1.0182(5) 0.0250 Uani
H4 H 0.0129 0.2862 1.0389 0.0300 Uiso
O6 O 0.3701(3) 0.5199(4) 0.7988(3) 0.0308 Uani
N6 N -0.1270(4) 0.3165(5) 0.6676(4) 0.0336 Uani
Ag5 Ag -0.03605(4) 0.28734(4) 0.78486(4) 0.0304 Uani
Mo7 Mo 0.24072(4) 0.36930(5) 0.88289(4) 0.0271 Uani
O7 O 0.2623(3) 0.3129(4) 0.7106(3) 0.0343 Uani
N7 N -0.0949(4) 0.3489(4) 0.7072(4) 0.0298 Uani
C7 C 0.0138(6) 0.1699(7) 1.1043(6) 0.0553 Uani
H5 H 0.0384 0.2063 1.1180 0.0830 Uiso
H6 H -0.0084 0.1593 1.1370 0.0830 Uiso
H7 H 0.0337 0.1295 1.0947 0.0830 Uiso
Mo8 Mo 0.32253(4) 0.32846(5) 0.77076(5) 0.0306 Uani
O8 O 0.3713(3) 0.3839(4) 0.8289(3) 0.0307 Uani
N8 N -0.1030(4) 0.4194(4) 0.6993(4) 0.0278 Uani
C8 C -0.0294(4) 0.3436(5) 0.9324(5) 0.0225 Uani
Mo9 Mo 0.12821(4) 0.48225(5) 0.63378(4) 0.0255 Uani
Ag6 Ag -0.41928(5) 0.28974(6) 0.37533(6) 0.0587 Uani
C9 C -0.1661(4) 0.4891(5) 0.6262(5) 0.0260 Uani
O9 O 0.3135(3) 0.6304(4) 0.6649(3) 0.0338 Uani
Mo10 Mo 0.26146(4) 0.61899(5) 0.86065(5) 0.0313 Uani
Ag7 Ag -0.23201(5) 0.32634(6) 0.57406(5) 0.0597 Uani
C10 C -0.1898(5) 0.4894(7) 0.5643(6) 0.0430 Uani
H8 H -0.1899 0.4494 0.5402 0.0520 Uiso
O10 O 0.2668(3) 0.3966(4) 0.6170(3) 0.0362 Uani
N9 N -0.3768(4) 0.3348(5) 0.4576(5) 0.0369 Uani
Mo11 Mo 0.14892(4) 0.51906(5) 0.86086(5) 0.0332 Uani
C11 C -0.2135(6) 0.5496(7) 0.5385(7) 0.0544 Uani
H9 H -0.2283 0.5505 0.4967 0.0650 Uiso
O11 O 0.0925(3) 0.4256(4) 0.6872(3) 0.0311 Uani
N10 N -0.3353(4) 0.3042(6) 0.4899(5) 0.0449 Uani
Mo12 Mo 0.16091(4) 0.63138(5) 0.73936(5) 0.0282 Uani
O12 O 0.2057(3) 0.5836(4) 0.9000(3) 0.0324 Uani
C12 C -0.2146(5) 0.6093(7) 0.5765(6) 0.0466 Uani
H10 H -0.2306 0.6495 0.5597 0.0560 Uiso
N11 N -0.3171(4) 0.3429(6) 0.5375(5) 0.0434 Uani
O13 O 0.2104(3) 0.6336(4) 0.6816(3) 0.0285 Uani
C13 C -0.1922(5) 0.6083(6) 0.6377(6) 0.0386 Uani
C14 C -0.1662(5) 0.5478(6) 0.6614(5) 0.0338 Uani
H11 H -0.1487 0.5478 0.7020 0.0400 Uiso
O14 O 0.1248(3) 0.5944(4) 0.8103(4) 0.0324 Uani
O15 O 0.3772(3) 0.5203(4) 0.6763(4) 0.0392 Uani
C15 C -0.1923(7) 0.6705(7) 0.6787(7) 0.0655 Uani
H12 H -0.1749 0.6597 0.7197 0.0980 Uiso
H13 H -0.1733 0.7074 0.6606 0.0980 Uiso
H14 H -0.2287 0.6846 0.6821 0.0980 Uiso
O16 O 0.1253(3) 0.5589(4) 0.6903(3) 0.0299 Uani
C16 C -0.1422(4) 0.4245(5) 0.6524(5) 0.0241 Uani
O17 O 0.1557(3) 0.3142(4) 0.6942(4) 0.0413 Uani
C17 C -0.3435(6) 0.4577(8) 0.5797(6) 0.0515 Uani
N12 N -0.2112(6) 0.1947(8) 0.4658(6) 0.0703 Uani
O18 O 0.3069(3) 0.4101(4) 0.9150(3) 0.0282 Uani
C18 C -0.3218(8) 0.4455(10) 0.6412(7) 0.0776 Uani
H15 H -0.3105 0.4014 0.6538 0.0930 Uiso
N13 N -0.1908(4) 0.2247(5) 0.5213(5) 0.0436 Uani
O19 O 0.4067(4) 0.6414(5) 0.7446(4) 0.0513 Uani
N14 N -0.1471(4) 0.1944(5) 0.5420(4) 0.0360 Uani
C19 C -0.3171(8) 0.5006(11) 0.6842(8) 0.0822 Uani
H16 H -0.3039 0.4928 0.7259 0.0990 Uiso
O20 O 0.3086(3) 0.6269(4) 0.7911(3) 0.0288 Uani
N15 N -0.1375(5) 0.1430(6) 0.5028(5) 0.0505 Uani
C20 C -0.3316(7) 0.5639(10) 0.6651(7) 0.0750 Uani
H17 H -0.3262 0.6002 0.6936 0.0900 Uiso
O21 O 0.3737(4) 0.4183(5) 0.5867(4) 0.0513 Uani
N16 N -0.0024(4) 0.1149(4) 0.6651(4) 0.0241 Uani
C21 C -0.3545(6) 0.5780(9) 0.6044(7) 0.0602 Uani
N17 N 0.0192(4) 0.0858(4) 0.7197(4) 0.0246 Uani
O22 O 0.2842(3) 0.3056(4) 0.8379(3) 0.0316 Uani
C22 C -0.3602(7) 0.5241(8) 0.5626(7) 0.0600 Uani
H18 H -0.3756 0.5323 0.5217 0.0720 Uiso
O23 O 0.2005(3) 0.4492(4) 0.8935(3) 0.0264 Uani
N18 N -0.0096(4) 0.1894(4) 0.7387(4) 0.0229 Uani
C23 C -0.3685(10) 0.6503(10) 0.5853(9) 0.1027 Uani
H19 H -0.3618 0.6803 0.6210 0.1540 Uiso
H20 H -0.3469 0.6645 0.5531 0.1540 Uiso
H21 H -0.4059 0.6526 0.5695 0.1540 Uiso
N19 N -0.0197(3) 0.1765(4) 0.6772(4) 0.0209 Uani
O24 O 0.1822(3) 0.3463(4) 0.8178(4) 0.0331 Uani
C24 C -0.3482(5) 0.4003(7) 0.5348(6) 0.0427 Uani
O25 O 0.1890(3) 0.5310(4) 0.6071(3) 0.0279 Uani
N20 N -0.3560(5) 0.1539(5) 0.3735(6) 0.0541 Uani
O26 O 0.3069(3) 0.5441(4) 0.8846(3) 0.0250 Uani
N21 N -0.3871(5) 0.1946(6) 0.3334(6) 0.0565 Uani
O27 O 0.1220(3) 0.7011(4) 0.7195(4) 0.0385 Uani
O28 O 0.2107(4) 0.2752(5) 0.5920(4) 0.0556 Uani
O29 O 0.3606(4) 0.2585(4) 0.7647(4) 0.0449 Uani
N22 N -0.3964(4) 0.0907(5) 0.2980(5) 0.0356 Uani
O30 O 0.1207(3) 0.4525(4) 0.8054(4) 0.0343 Uani
N23 N -0.4122(4) 0.1561(5) 0.2894(5) 0.0417 Uani
O31 O 0.0790(3) 0.4999(4) 0.5761(4) 0.0352 Uani
O32 O 0.1572(3) 0.3999(4) 0.5986(3) 0.0292 Uani
C25 C -0.1720(5) 0.0824(7) 0.4105(6) 0.1009 Uani
C26 C -0.1940(5) 0.0939(6) 0.3489(6) 0.1172 Uani
H22 H -0.2085 0.1369 0.3374 0.1410 Uiso
C27 C -0.1944(5) 0.0412(8) 0.3047(5) 0.1140 Uani
H23 H -0.2092 0.0489 0.2635 0.1370 Uiso
C28 C -0.1728(7) -0.0230(7) 0.3220(7) 0.1607 Uani
H24 H -0.1731 -0.0583 0.2925 0.1910 Uiso
C29 C -0.1507(7) -0.0345(6) 0.3836(8) 0.1439 Uani
C30 C -0.1503(5) 0.0182(8) 0.4278(5) 0.1104 Uani
H25 H -0.1356 0.0104 0.4690 0.1330 Uiso
O33 O 0.2957(3) 0.5247(4) 0.5865(3) 0.0369 Uani
O34 O 0.2271(3) 0.3187(4) 0.9434(4) 0.0401 Uani
O35 O 0.2384(3) 0.6434(4) 0.5575(4) 0.0429 Uani
O36 O 0.3464(3) 0.3899(4) 0.7059(3) 0.0346 Uani
O37 O 0.0751(4) 0.3227(5) 0.7734(4) 0.0537 Uani
O38 O 0.2859(3) 0.6817(4) 0.9098(4) 0.0457 Uani
C31 C -0.1278(11) -0.1031(9) 0.4054(13) 0.1706 Uani
H26 H -0.1305 -0.1349 0.3707 0.2590 Uiso
H27 H -0.0907 -0.0975 0.4215 0.2590 Uiso
H28 H -0.1477 -0.1209 0.4380 0.2590 Uiso
C32 C -0.1785(7) 0.1458(10) 0.4556(8) 0.0719 Uani
O39 O 0.1063(4) 0.5219(5) 0.9168(4) 0.0506 Uani
C33 C -0.3323(5) 0.0312(6) 0.3783(5) 0.0314 Uani
C34 C -0.3080(6) 0.0370(7) 0.4393(6) 0.0438 Uani
H29 H -0.3134 0.0765 0.4625 0.0520 Uiso
C35 C -0.2754(6) -0.0163(7) 0.4664(6) 0.0464 Uani
H30 H -0.2584 -0.0121 0.5071 0.0560 Uiso
C36 C -0.2689(6) -0.0756(7) 0.4311(6) 0.0461 Uani
H31 H -0.2470 -0.1109 0.4487 0.0550 Uiso
C37 C -0.2940(6) -0.0836(7) 0.3712(6) 0.0438 Uani
C38 C -0.3247(5) -0.0289(6) 0.3450(6) 0.0373 Uani
H32 H -0.3406 -0.0327 0.3039 0.0450 Uiso
C39 C -0.2833(7) -0.1465(7) 0.3318(7) 0.0608 Uani
H33 H -0.3042 -0.1432 0.2916 0.0910 Uiso
H34 H -0.2457 -0.1484 0.3260 0.0910 Uiso
H35 H -0.2932 -0.1876 0.3529 0.0910 Uiso
C40 C -0.3619(5) 0.0910(6) 0.3498(6) 0.0363 Uani
C41 C 0.0600(4) 0.1804(6) 0.8634(5) 0.0284 Uani
H36 H 0.0646 0.2219 0.8426 0.0340 Uiso
C42 C 0.0256(5) 0.0651(6) 0.8629(5) 0.0323 Uani
H37 H 0.0080 0.0282 0.8417 0.0390 Uiso
C43 C 0.0434(5) 0.0586(6) 0.9256(5) 0.0375 Uani
H38 H 0.0365 0.0184 0.9473 0.0450 Uiso
C44 C 0.0709(5) 0.1111(7) 0.9555(6) 0.0405 Uani
H39 H 0.0848 0.1050 0.9972 0.0490 Uiso
C45 C 0.0795(5) 0.1739(6) 0.9263(5) 0.0319 Uani
C46 C 0.0334(4) 0.1259(5) 0.8307(5) 0.0246 Uani
C47 C 0.1114(6) 0.2322(7) 0.9594(6) 0.0514 Uani
H40 H 0.1219 0.2194 1.0024 0.0770 Uiso
H41 H 0.1430 0.2410 0.9387 0.0770 Uiso
H42 H 0.0896 0.2731 0.9583 0.0770 Uiso
C48 C 0.0140(4) 0.1346(5) 0.7637(4) 0.0203 Uani
O40 O 0.4056(3) 0.4798(4) 0.9202(4) 0.0379 Uani
Ag8 Ag -0.48757(4) 0.20565(5) 0.22265(4) 0.0430 Uani
Ag9 Ag -0.44005(5) 0.01670(5) 0.23302(5) 0.0515 Uani
Ag10 Ag -0.47682(7) 0.06358(7) -0.06083(6) 0.0324 Uani
N24 N -0.4979(4) 0.1004(5) 0.0394(4) 0.0323 Uani
N25 N -0.4941(4) 0.0733(5) 0.1386(4) 0.0388 Uani
N26 N -0.4827(4) 0.1414(5) 0.1359(4) 0.0376 Uani
C49 C -0.4715(5) 0.2264(6) 0.0508(5) 0.0335 Uani
C50 C -0.4340(6) 0.2662(7) 0.0869(7) 0.0492 Uani
H43 H -0.4186 0.2498 0.1256 0.0590 Uiso
C51 C -0.4193(6) 0.3304(8) 0.0658(8) 0.0621 Uani
H44 H -0.3943 0.3575 0.0899 0.0750 Uiso
N27 N -0.4995(4) 0.3177(4) 0.3284(4) 0.0295 Uani
C52 C -0.4424(6) 0.3531(7) 0.0085(7) 0.0580 Uani
H45 H -0.4320 0.3959 -0.0058 0.0690 Uiso
N28 N -0.5116(4) 0.3822(5) 0.3381(4) 0.0324 Uani
C53 C -0.4809(5) 0.3148(6) -0.0297(6) 0.0430 Uani
N29 N -0.5324(4) 0.4104(5) 0.2830(4) 0.0348 Uani
C54 C -0.4945(5) 0.2483(6) -0.0069(5) 0.0372 Uani
H46 H -0.5188 0.2201 -0.0310 0.0450 Uiso
C55 C -0.5072(7) 0.3429(8) -0.0905(7) 0.0616 Uani
H47 H -0.5322 0.3095 -0.1097 0.0920 Uiso
H48 H -0.5261 0.3847 -0.0827 0.0920 Uiso
H49 H -0.4802 0.3525 -0.1181 0.0920 Uiso
N30 N -0.5126(3) 0.3023(4) 0.2671(4) 0.0221 Uani
C56 C -0.4845(5) 0.1556(6) 0.0745(5) 0.0322 Uani
C57 C -0.5499(5) 0.3687(6) 0.1742(5) 0.0346 Uani
C58 C -0.5351(6) 0.4266(7) 0.1406(6) 0.0498 Uani
H50 H -0.5123 0.4602 0.1597 0.0600 Uiso
C59 C -0.5558(7) 0.4323(8) 0.0769(7) 0.0619 Uani
H51 H -0.5474 0.4715 0.0547 0.0750 Uiso
C60 C -0.5860(7) 0.3852(8) 0.0479(7) 0.0617 Uani
H52 H -0.5976 0.3907 0.0054 0.0740 Uiso
C61 C -0.6015(6) 0.3268(8) 0.0791(6) 0.0540 Uani
C62 C -0.5818(5) 0.3184(7) 0.1424(5) 0.0385 Uani
H53 H -0.5903 0.2785 0.1635 0.0460 Uiso
C63 C -0.5308(5) 0.3589(5) 0.2401(5) 0.0269 Uani
C64 C -0.6372(8) 0.2741(10) 0.0443(8) 0.0895 Uani
H54 H -0.6441 0.2372 0.0724 0.1340 Uiso
H55 H -0.6706 0.2953 0.0284 0.1340 Uiso
H56 H -0.6197 0.2560 0.0100 0.1340 Uiso
N31 N -0.3858(4) 0.3957(6) 0.4841(5) 0.0413 Uani
N32 N -0.5028(4) 0.0492(5) 0.0815(4) 0.0355 Uani
N1B N 0.0191(4) 0.5972(4) 1.0351(4) 0.0260 Uani
Ag3A Ag -0.00956(5) 0.06798(5) 0.56623(4) 0.0443 Uani
Ag3B Ag -0.00956(5) 0.43202(5) 1.06623(4) 0.0443 Uani
Ag4A Ag 0.05480(4) -0.01748(4) 0.72997(4) 0.0404 Uani
Ag5A Ag 0.03605(4) 0.78734(4) 0.71514(4) 0.0304 Uani
N16A N 0.0024(4) 0.6149(4) 0.8349(4) 0.0241 Uani
N17A N -0.0192(4) 0.5858(4) 0.7803(4) 0.0246 Uani
O27A O -0.1220(3) 0.2011(4) 0.7805(4) 0.0385 Uani
Ag9A Ag -0.55995(5) 0.51670(5) 0.26698(5) 0.0515 Uani
Ag10B Ag -0.52318(7) -0.06358(7) 0.06083(6) 0.0324 Uani
Ag10C Ag -0.47682(7) 0.43642(7) 0.43917(6) 0.0324 Uani
N28C N -0.5116(4) 0.1178(5) -0.1619(4) 0.0324 Uani
N29A N -0.4676(4) -0.0896(5) 0.2170(4) 0.0348 Uani
N31C N -0.3858(4) 0.1043(6) -0.0159(5) 0.0413 Uani
N32B N -0.4972(4) -0.0492(5) -0.0815(4) 0.0355 Uani
O41 O -0.4657(4) 0.5889(5) 0.2372(5) 0.0603 Uani
loop_
_atom_site_aniso_label
_atom_site_aniso_U_11
_atom_site_aniso_U_22
_atom_site_aniso_U_33
_atom_site_aniso_U_23
_atom_site_aniso_U_13
_atom_site_aniso_U_12
Ag1 0.0887(15) 0.0422(9) 0.0977(17) -0.0018(9) -0.0650(13) -0.0105(9)
Mo1 0.0290(6) 0.0495(7) 0.0300(5) 0.0077(5) 0.0008(4) -0.0158(5)
P1 0.0176(12) 0.0112(12) 0.0136(11) 0.0009(9) -0.0029(9) 0.0006(10)
O1 0.031(3) 0.018(3) 0.024(3) 0.002(2) -0.005(2) -0.003(2)
C1 0.036(5) 0.015(4) 0.020(4) 0.001(3) -0.002(4) 0.002(3)
N1 0.048(6) 0.017(3) 0.012(3) -0.005(3) -0.002(3) -0.002(3)
Ag2 0.0617(7) 0.0305(5) 0.0542(6) -0.0091(5) -0.0297(5) 0.0161(5)
Mo2 0.0466(7) 0.0293(6) 0.0386(6) -0.0166(5) -0.0176(5) 0.0115(5)
O2 0.028(3) 0.016(3) 0.021(3) 0.003(2) -0.005(2) 0.003(2)
N2 0.047(6) 0.015(3) 0.022(3) 0.001(3) -0.001(3) -0.005(3)
C2 0.049(6) 0.024(5) 0.029(5) -0.003(4) -0.003(4) -0.008(4)
Mo3 0.0431(6) 0.0361(6) 0.0296(5) 0.0097(5) -0.0114(5) -0.0225(5)
N3 0.045(6) 0.019(3) 0.020(3) 0.000(3) -0.004(3) 0.001(3)
O3 0.024(3) 0.029(3) 0.017(3) 0.006(2) 0.002(2) 0.003(2)
C3 0.061(7) 0.025(5) 0.050(6) 0.003(4) 0.007(5) -0.008(5)
Mo4 0.0300(5) 0.0259(5) 0.0275(5) 0.0021(4) -0.0103(4) -0.0009(4)
O4 0.022(3) 0.020(3) 0.022(3) -0.003(2) 0.002(2) -0.002(2)
N4 0.039(5) 0.015(3) 0.019(3) -0.002(3) -0.004(3) 0.002(3)
C4 0.069(7) 0.026(5) 0.056(6) 0.012(4) 0.010(5) -0.003(5)
Ag3 0.0868(8) 0.0282(5) 0.0174(4) 0.0000(4) 0.0033(5) 0.0035(5)
Mo5 0.0306(6) 0.0338(6) 0.0259(5) 0.0131(4) 0.0010(4) -0.0015(5)
N5 0.038(5) 0.020(3) 0.029(4) 0.000(3) -0.014(4) 0.002(3)
O5 0.033(4) 0.024(4) 0.039(4) -0.004(3) -0.005(3) 0.002(3)
C5 0.055(6) 0.023(5) 0.032(5) 0.007(4) 0.015(4) 0.012(4)
Ag4 0.0652(7) 0.0213(5) 0.0310(5) -0.0006(4) -0.0128(4) -0.0147(4)
Mo6 0.0491(7) 0.0483(7) 0.0251(5) 0.0041(5) 0.0124(5) 0.0161(6)
C6 0.029(5) 0.024(4) 0.022(4) 0.002(3) 0.002(4) 0.008(4)
O6 0.035(4) 0.032(4) 0.025(3) 0.001(3) 0.001(3) -0.001(3)
N6 0.043(5) 0.019(4) 0.035(4) -0.003(3) -0.014(4) 0.003(3)
Ag5 0.0449(5) 0.0208(4) 0.0241(4) -0.0078(3) -0.0029(4) 0.0035(4)
Mo7 0.0356(6) 0.0235(5) 0.0211(5) 0.0063(4) -0.0026(4) -0.0025(4)
O7 0.048(4) 0.027(4) 0.024(3) -0.004(3) -0.015(3) 0.007(3)
N7 0.044(5) 0.016(3) 0.026(4) -0.003(3) -0.012(3) 0.001(3)
C7 0.086(9) 0.036(7) 0.043(6) 0.013(5) 0.003(6) 0.016(6)
Mo8 0.0395(6) 0.0251(5) 0.0254(5) -0.0017(4) -0.0048(4) 0.0127(5)
O8 0.032(4) 0.030(3) 0.028(4) 0.000(3) -0.006(3) 0.009(3)
N8 0.041(5) 0.018(3) 0.022(4) -0.001(3) -0.008(3) 0.001(3)
C8 0.032(6) 0.014(3) 0.020(4) -0.003(3) -0.004(3) 0.001(3)
Mo9 0.0293(5) 0.0205(5) 0.0242(5) 0.0027(4) -0.0094(4) -0.0010(4)
Ag6 0.0594(7) 0.0382(6) 0.0695(8) -0.0113(5) -0.0348(6) 0.0134(5)
C9 0.026(5) 0.021(4) 0.030(4) 0.004(3) -0.002(4) 0.000(3)
O9 0.036(4) 0.039(4) 0.026(3) 0.009(3) 0.002(3) -0.006(3)
Mo10 0.0319(6) 0.0280(5) 0.0324(5) -0.0138(4) -0.0046(4) 0.0005(4)
Ag7 0.0513(7) 0.0643(8) 0.0559(7) 0.0121(6) -0.0299(5) -0.0168(6)
C10 0.059(8) 0.034(5) 0.032(5) 0.006(4) -0.014(5) 0.001(5)
O10 0.043(4) 0.044(4) 0.019(3) -0.008(3) -0.009(3) 0.014(3)
N9 0.037(5) 0.038(4) 0.033(4) 0.013(3) -0.009(3) -0.011(3)
Mo11 0.0337(6) 0.0336(6) 0.0342(6) 0.0044(4) 0.0130(4) 0.0034(5)
C11 0.068(9) 0.046(6) 0.046(6) 0.018(4) -0.009(6) 0.011(5)
O11 0.030(4) 0.030(4) 0.031(4) 0.007(3) -0.008(3) -0.008(3)
N10 0.042(5) 0.044(4) 0.044(5) 0.009(3) -0.017(4) -0.011(4)
Mo12 0.0348(6) 0.0210(5) 0.0277(5) -0.0006(4) -0.0018(4) 0.0077(4)
O12 0.036(4) 0.034(4) 0.027(4) -0.003(3) 0.002(3) 0.006(3)
C12 0.049(7) 0.037(6) 0.054(5) 0.018(4) 0.006(5) 0.007(5)
N11 0.041(5) 0.050(5) 0.036(5) 0.011(4) -0.011(4) -0.013(4)
O13 0.034(4) 0.020(3) 0.030(3) 0.004(3) -0.003(3) 0.000(3)
C13 0.042(7) 0.026(4) 0.050(5) 0.015(4) 0.015(4) 0.006(4)
C14 0.046(7) 0.024(4) 0.030(5) 0.001(3) -0.002(4) 0.002(4)
O14 0.030(4) 0.034(4) 0.033(4) 0.002(3) 0.002(3) 0.002(3)
O15 0.040(4) 0.054(4) 0.024(4) 0.007(3) 0.005(3) 0.005(3)
C15 0.100(12) 0.030(6) 0.070(8) 0.006(5) 0.025(8) 0.012(6)
O16 0.034(4) 0.025(3) 0.029(3) 0.003(3) -0.004(3) 0.001(3)
C16 0.032(5) 0.020(4) 0.019(4) 0.000(3) -0.003(3) -0.001(3)
O17 0.052(4) 0.027(4) 0.041(4) 0.004(3) -0.013(3) -0.001(3)
C17 0.057(8) 0.068(5) 0.031(5) 0.001(4) 0.012(5) -0.018(5)
N12 0.075(6) 0.085(7) 0.045(5) 0.000(5) -0.022(4) -0.020(5)
O18 0.030(3) 0.031(4) 0.022(3) 0.000(3) -0.005(3) 0.002(3)
C18 0.098(12) 0.102(9) 0.032(5) -0.005(5) 0.003(6) 0.007(8)
N13 0.044(5) 0.040(5) 0.043(5) 0.008(4) -0.013(4) -0.011(4)
O19 0.039(4) 0.063(5) 0.051(5) 0.016(4) 0.001(4) -0.023(4)
N14 0.041(5) 0.034(5) 0.031(4) 0.004(3) -0.005(3) -0.011(4)
C19 0.087(12) 0.113(9) 0.046(7) -0.016(6) 0.004(7) 0.012(8)
O20 0.027(3) 0.027(4) 0.031(3) 0.002(3) -0.004(3) -0.005(3)
N15 0.063(6) 0.045(5) 0.045(5) -0.008(4) 0.013(4) -0.021(4)
C20 0.081(11) 0.100(8) 0.045(6) -0.023(5) 0.011(6) 0.003(7)
O21 0.055(5) 0.070(6) 0.031(4) 0.006(4) 0.015(4) 0.022(4)
N16 0.031 0.024 0.016 -0.001 -0.003 0.006
C21 0.059(9) 0.075(6) 0.047(6) -0.018(5) 0.008(6) -0.015(6)
N17 0.033 0.023 0.016 0 -0.006 0.005
O22 0.044(4) 0.023(3) 0.025(3) -0.001(3) -0.010(3) 0.002(3)
C22 0.078(10) 0.067(6) 0.035(6) -0.005(4) 0.006(6) -0.012(5)
O23 0.029(3) 0.029(3) 0.021(3) 0.002(3) 0.001(3) -0.005(3)
N18 0.031(5) 0.014(4) 0.022(3) 0.001(3) -0.005(3) 0.003(3)
C23 0.16(2) 0.081(8) 0.067(11) -0.011(7) 0.012(11) 0.005(8)
N19 0.028(4) 0.013(4) 0.020(3) 0.004(3) -0.006(3) 0.006(3)
O24 0.040(4) 0.027(4) 0.030(3) 0.005(3) -0.007(3) -0.009(3)
C24 0.043(6) 0.055(5) 0.029(5) 0.009(4) -0.002(4) -0.011(4)
O25 0.029(3) 0.029(4) 0.025(4) 0.004(3) -0.001(3) 0.004(3)
N20 0.044(6) 0.032(4) 0.078(6) -0.014(4) -0.032(5) 0.006(4)
O26 0.030(4) 0.024(3) 0.020(3) -0.003(3) -0.002(3) 0.001(3)
N21 0.056(7) 0.032(5) 0.074(6) -0.013(4) -0.029(5) 0.005(4)
O27 0.044(5) 0.027(4) 0.043(5) 0.000(3) -0.003(4) 0.013(3)
O28 0.069(6) 0.040(4) 0.051(5) -0.023(4) -0.026(4) 0.019(4)
O29 0.053(5) 0.034(4) 0.045(5) -0.008(3) -0.007(4) 0.017(4)
N22 0.038 0.022 0.046 -0.007 0.001 0.002
O30 0.034(4) 0.036(4) 0.032(4) 0.008(3) -0.001(3) -0.006(3)
N23 0.044 0.023 0.055 -0.011 -0.01 0.006
O31 0.039(4) 0.032(4) 0.032(4) 0.003(3) -0.009(3) 0.005(3)
O32 0.033(4) 0.027(3) 0.025(3) 0.000(3) -0.009(3) 0.005(3)
C25 0.089(11) 0.123(9) 0.097(8) -0.054(7) 0.039(7) -0.063(7)
C26 0.102(13) 0.160(12) 0.095(8) -0.060(8) 0.036(8) -0.066(9)
C27 0.101(13) 0.156(12) 0.096(9) -0.071(8) 0.062(8) -0.083(10)
C28 0.20(2) 0.170(13) 0.119(11) -0.074(10) 0.049(11) -0.052(12)
C29 0.172(19) 0.143(10) 0.125(11) -0.073(9) 0.054(11) -0.055(10)
C30 0.101(12) 0.127(9) 0.111(10) -0.056(8) 0.048(9) -0.050(8)
O33 0.041(4) 0.049(4) 0.021(4) 0.010(3) 0.004(3) 0.007(3)
O34 0.051(5) 0.038(4) 0.029(4) 0.014(3) -0.007(3) -0.006(4)
O35 0.041(5) 0.047(5) 0.040(4) 0.024(4) 0.001(3) -0.002(4)
O36 0.040(4) 0.038(4) 0.025(3) -0.001(3) 0.000(3) 0.009(3)
O37 0.057(5) 0.053(5) 0.048(5) 0.022(4) -0.009(4) -0.026(4)
O38 0.044(5) 0.034(4) 0.057(5) -0.026(4) -0.004(4) -0.001(4)
C31 0.18(2) 0.155(13) 0.19(2) -0.051(12) 0.081(17) -0.032(13)
C32 0.076(7) 0.085(7) 0.054(6) -0.010(5) 0.004(5) -0.034(5)
O39 0.040(5) 0.075(6) 0.040(4) 0.005(4) 0.019(4) 0.006(4)
C33 0.033(6) 0.031(4) 0.030(5) 0.000(3) 0.002(4) -0.002(4)
C34 0.060(7) 0.038(6) 0.031(5) 0.000(4) -0.006(5) 0.001(5)
C35 0.058(8) 0.045(6) 0.034(5) 0.011(4) -0.006(5) -0.002(5)
C36 0.059(8) 0.043(6) 0.034(5) 0.011(4) -0.006(5) 0.005(5)
C37 0.060(7) 0.036(5) 0.034(5) 0.006(4) -0.001(5) 0.010(5)
C38 0.051(7) 0.033(5) 0.027(5) 0.002(4) 0.000(4) 0.005(4)
C39 0.077(11) 0.048(7) 0.055(8) -0.004(6) -0.004(7) 0.023(7)
C40 0.034(6) 0.028(4) 0.044(6) -0.004(4) -0.010(5) -0.003(4)
C41 0.035(6) 0.023(5) 0.026(4) -0.002(3) -0.002(4) 0.002(4)
C42 0.044(7) 0.024(5) 0.028(4) 0.004(3) 0.000(4) -0.001(4)
C43 0.048(7) 0.036(5) 0.028(5) 0.009(4) 0.002(4) 0.000(5)
C44 0.050(7) 0.046(5) 0.024(5) 0.004(4) -0.003(4) 0.000(5)
C45 0.033(6) 0.039(5) 0.023(4) -0.005(3) -0.001(4) 0.003(4)
C46 0.031(5) 0.023(4) 0.019(4) 0.002(3) -0.001(3) 0.000(4)
C47 0.052(8) 0.059(7) 0.042(7) -0.014(5) 0.000(6) -0.006(6)
C48 0.026(5) 0.015(4) 0.019(4) 0.001(3) -0.002(3) 0.001(4)
O40 0.035(4) 0.036(4) 0.039(4) -0.002(3) -0.013(3) 0.000(3)
Ag8 0.0642 0.0298 0.0332 -0.0097 -0.004 0.0098
Ag9 0.0767 0.0253 0.0484 -0.0046 -0.0131 -0.0132
Ag10 0.0649 0.0176 0.0136 -0.0058 -0.0017 -0.0152
N24 0.051 0.022 0.024 -0.001 0.004 0.001
N25 0.063 0.025 0.027 -0.001 -0.002 0.004
N26 0.063 0.022 0.027 -0.002 0.001 0.006
C49 0.043 0.026 0.032 0.003 0.006 0.006
C50 0.059 0.037 0.05 -0.002 -0.002 -0.001
C51 0.062 0.045 0.078 0.008 0.001 -0.002
N27 0.041 0.018 0.028 0 -0.004 0.002
C52 0.066 0.037 0.071 0.01 0.007 0.001
N28 0.052 0.021 0.022 -0.001 -0.006 0.007
C53 0.047 0.031 0.053 0.011 0.015 0.013
N29 0.055 0.022 0.026 0 -0.002 0.006
C54 0.049 0.033 0.03 0.007 0.006 0.01
C55 0.077 0.05 0.058 0.015 0.008 0.02
N30 0.023 0.019 0.024 -0.001 0.001 -0.001
C56 0.044 0.025 0.026 -0.001 -0.004 0.006
C57 0.052 0.029 0.022 0 0 0.007
C58 0.071 0.039 0.04 0.014 0.009 0.005
C59 0.089 0.055 0.041 0.015 0.003 0.026
C60 0.083 0.063 0.038 0.002 0.001 0.031
C61 0.067 0.063 0.029 -0.006 -0.009 0.027
C62 0.049 0.038 0.027 -0.001 -0.003 0.01
C63 0.036 0.021 0.023 0.001 0 -0.001
C64 0.105 0.087 0.067 -0.021 -0.036 0.012
N31 0.050(5) 0.044(5) 0.028(4) 0.011(3) -0.005(4) -0.008(4)
N32 0.056 0.024 0.026 -0.004 0.002 -0.003
N1B 0.048 0.017 0.012 -0.005 -0.002 -0.002
Ag3A 0.0868 0.0282 0.0174 0 0.0033 -0.0035
Ag3B 0.0868 0.0282 0.0174 0 0.0033 0.0035
Ag4A 0.0652 0.0213 0.031 0.0006 -0.0128 0.0147
Ag5A 0.0449 0.0208 0.0241 0.0078 -0.0029 -0.0035
N16A 0.031 0.024 0.016 0.001 -0.003 -0.006
N17A 0.033 0.023 0.016 0 -0.006 -0.005
O27A 0.044 0.027 0.043 0 -0.003 -0.013
Ag9A 0.0767 0.0253 0.0484 0.0046 -0.0131 0.0132
Ag10B 0.0649 0.0176 0.0136 -0.0058 -0.0017 -0.0152
Ag10C 0.0649 0.0176 0.0136 0.0058 -0.0017 0.0152
N28C 0.052 0.021 0.022 0.001 -0.006 -0.007
N29A 0.055 0.022 0.026 0 -0.002 -0.006
N31C 0.05 0.044 0.028 -0.011 -0.005 0.008
N32B 0.056 0.024 0.026 -0.004 0.002 -0.003
O41 0.061(7) 0.073(7) 0.049(6) -0.001(5) 0.015(5) -0.005(6)
loop_
_geom_bond_atom_site_label_1
_geom_bond_atom_site_label_2
_geom_bond_site_symmetry_1
_geom_bond_site_symmetry_2
Ag1 N10 1_555 1_555
Mo1 O3 1_555 1_555
P1 O1 1_555 1_555
O1 Mo2 1_555 1_555
C1 C2 1_555 1_555
N1 N2 1_555 1_555
Ag2 N6 1_555 1_555
Mo2 O7 1_555 1_555
O2 P1 1_555 1_555
N2 N3 1_555 1_555
C2 H1 1_555 1_555
Mo3 O1 1_555 1_555
N3 N4 1_555 1_555
O3 P1 1_555 1_555
C3 C2 1_555 1_555
H2 C3 1_555 1_555
Mo4 O2 1_555 1_555
O4 P1 1_555 1_555
N4 Ag5 1_555 1_555
C4 C3 1_555 1_555
H3 C4 1_555 1_555
Ag3 N2 1_555 1_555
Mo5 O3 1_555 1_555
N5 N6 1_555 1_555
O5 Mo10 1_555 1_555
C5 C4 1_555 1_555
Ag4 N3 1_555 1_555
Mo6 O3 1_555 1_555
C6 C1 1_555 1_555
H4 C6 1_555 1_555
O6 Mo1 1_555 1_555
N6 N7 1_555 1_555
Ag5 N7 1_555 1_555
Mo7 O2 1_555 1_555
O7 Mo8 1_555 1_555
N7 N8 1_555 1_555
C7 C5 1_555 1_555
H5 C7 1_555 1_555
H6 C7 1_555 1_555
H7 C7 1_555 1_555
Mo8 O2 1_555 1_555
O8 Mo4 1_555 1_555
N8 Ag4 1_555 1_555
C8 C1 1_555 1_555
Mo9 O1 1_555 1_555
Ag6 N9 1_555 1_555
C9 C10 1_555 1_555
O9 Mo1 1_555 1_555
Mo10 O4 1_555 1_555
Ag7 N5 1_555 1_555
C10 H8 1_555 1_555
O10 Mo2 1_555 1_555
N9 N10 1_555 1_555
Mo11 O4 1_555 1_555
C11 C10 1_555 1_555
H9 C11 1_555 1_555
O11 Mo3 1_555 1_555
N10 N11 1_555 1_555
Mo12 O4 1_555 1_555
O12 Mo10 1_555 1_555
C12 C11 1_555 1_555
H10 C12 1_555 1_555
N11 Ag7 1_555 1_555
O13 Mo5 1_555 1_555
C13 C12 1_555 1_555
C14 C9 1_555 1_555
H11 C14 1_555 1_555
O14 Mo11 1_555 1_555
O15 Mo1 1_555 1_555
C15 C13 1_555 1_555
H12 C15 1_555 1_555
H13 C15 1_555 1_555
H14 C15 1_555 1_555
O16 Mo9 1_555 1_555
C16 N5 1_555 1_555
O17 Mo2 1_555 1_555
C17 C18 1_555 1_555
N12 Ag1 1_555 1_555
O18 Mo4 1_555 1_555
C18 H15 1_555 1_555
N13 Ag7 1_555 1_555
O19 Mo1 1_555 1_555
N14 Ag2 1_555 1_555
C19 C18 1_555 1_555
H16 C19 1_555 1_555
O20 Mo1 1_555 1_555
N15 N14 1_555 1_555
C20 C19 1_555 1_555
H17 C20 1_555 1_555
O21 Mo6 1_555 1_555
N16 N17 1_555 1_555
C21 C20 1_555 1_555
N17 C48 1_555 1_555
O22 Mo7 1_555 1_555
C22 C17 1_555 1_555
H18 C22 1_555 1_555
O23 Mo7 1_555 1_555
N18 Ag5 1_555 1_555
C23 C21 1_555 1_555
H19 C23 1_555 1_555
H20 C23 1_555 1_555
H21 C23 1_555 1_555
N19 Ag2 1_555 1_555
O24 Mo3 1_555 1_555
C24 N11 1_555 1_555
O25 Mo5 1_555 1_555
N20 Ag1 1_555 1_555
O26 Mo4 1_555 1_555
N21 Ag6 1_555 1_555
O27 Mo12 1_555 1_555
O28 Mo2 1_555 1_555
O29 Mo8 1_555 1_555
N22 N23 1_555 1_555
O30 Mo3 1_555 1_555
N23 N21 1_555 1_555
O31 Mo9 1_555 1_555
O32 Mo2 1_555 1_555
C25 C26 1_555 1_555
C26 H22 1_555 1_555
C27 C26 1_555 1_555
H23 C27 1_555 1_555
C28 C27 1_555 1_555
H24 C28 1_555 1_555
C29 C28 1_555 1_555
C30 C25 1_555 1_555
H25 C30 1_555 1_555
O33 Mo5 1_555 1_555
O34 Mo7 1_555 1_555
O35 Mo5 1_555 1_555
O36 Mo6 1_555 1_555
O37 Mo3 1_555 1_555
O38 Mo10 1_555 1_555
C31 C29 1_555 1_555
H26 C31 1_555 1_555
H27 C31 1_555 1_555
H28 C31 1_555 1_555
C32 N12 1_555 1_555
O39 Ag3 1_555 1_555
C33 C34 1_555 1_555
C34 H29 1_555 1_555
C35 C34 1_555 1_555
H30 C35 1_555 1_555
C36 C35 1_555 1_555
H31 C36 1_555 1_555
C37 C36 1_555 1_555
C38 C33 1_555 1_555
H32 C38 1_555 1_555
C39 C37 1_555 1_555
H33 C39 1_555 1_555
H34 C39 1_555 1_555
H35 C39 1_555 1_555
C40 N20 1_555 1_555
C41 H36 1_555 1_555
C42 H37 1_555 1_555
C43 C42 1_555 1_555
H38 C43 1_555 1_555
C44 C43 1_555 1_555
H39 C44 1_555 1_555
C45 C41 1_555 1_555
C46 C41 1_555 1_555
C47 C45 1_555 1_555
H40 C47 1_555 1_555
H41 C47 1_555 1_555
H42 C47 1_555 1_555
C48 N18 1_555 1_555
O40 Mo4 1_555 1_555
Ag8 N23 1_555 1_555
Ag9 N22 1_555 1_555
Ag10 N24 1_555 1_555
N24 C56 1_555 1_555
N25 Ag9 1_555 1_555
N26 Ag8 1_555 1_555
C49 C50 1_555 1_555
C50 H43 1_555 1_555
C51 C50 1_555 1_555
H44 C51 1_555 1_555
N27 Ag6 1_555 1_555
C52 C51 1_555 1_555
H45 C52 1_555 1_555
N28 N27 1_555 1_555
C53 C52 1_555 1_555
N29 N28 1_555 1_555
C54 C49 1_555 1_555
H46 C54 1_555 1_555
C55 C53 1_555 1_555
H47 C55 1_555 1_555
H48 C55 1_555 1_555
H49 C55 1_555 1_555
N30 Ag8 1_555 1_555
C56 N26 1_555 1_555
C57 C58 1_555 1_555
C58 H50 1_555 1_555
C59 C58 1_555 1_555
H51 C59 1_555 1_555
C60 C59 1_555 1_555
H52 C60 1_555 1_555
C61 C60 1_555 1_555
C62 C57 1_555 1_555
H53 C62 1_555 1_555
C63 N29 1_555 1_555
C64 C61 1_555 1_555
H54 C64 1_555 1_555
H55 C64 1_555 1_555
H56 C64 1_555 1_555
N31 N9 1_555 1_555
N32 N24 1_555 1_555
N1B Ag3 1_555 1_555
Ag3A N16 1_555 1_555
Ag3B N1 1_555 1_555
Ag4A N17 1_555 1_555
Ag5A O27 1_555 1_555
N16A Ag3 1_555 1_555
N17A Ag4 1_555 1_555
O27A Ag5 1_555 1_555
Ag9A N29 1_555 1_555
Ag10B N32 1_555 1_555
Ag10C N28 1_555 1_555
N28C Ag10 1_555 1_555
N29A Ag9 1_555 1_555
N31C Ag10 1_555 1_555
N32B Ag10 1_555 1_555
N1 C8 1_555 1_555
Mo3 O17 1_555 1_555
Mo4 O6 1_555 1_555
N4 C8 1_555 1_555
Mo5 O9 1_555 1_555
O5 Mo12 1_555 1_555
C5 C6 1_555 1_555
Mo6 O10 1_555 1_555
Mo6 O15 1_555 1_555
Mo6 O33 1_555 1_555
Mo7 O18 1_555 1_555
Mo7 O24 1_555 1_555
Mo8 O8 1_555 1_555
Mo8 O22 1_555 1_555
Mo8 O36 1_555 1_555
N8 C16 1_555 1_555
Mo9 O11 1_555 1_555
Mo9 O25 1_555 1_555
Mo9 O32 1_555 1_555
C9 C16 1_555 1_555
Mo10 O20 1_555 1_555
Mo10 O26 1_555 1_555
Mo11 O12 1_555 1_555
Mo11 O23 1_555 1_555
Mo11 O30 1_555 1_555
Mo11 O39 1_555 1_555
Mo12 O13 1_555 1_555
Mo12 O14 1_555 1_555
Mo12 O16 1_555 1_555
C13 C14 1_555 1_555
C17 C24 1_555 1_555
N12 N13 1_555 1_555
N13 N14 1_555 1_555
N15 C32 1_555 1_555
N16 N19 1_555 1_555
C21 C22 1_555 1_555
N18 N19 1_555 1_555
C24 N31 1_555 1_555
N20 N21 1_555 1_555
N22 C40 1_555 1_555
C25 C32 1_555 1_555
C29 C30 1_555 1_555
C33 C40 1_555 1_555
C37 C38 1_555 1_555
C42 C46 1_555 1_555
C44 C45 1_555 1_555
C46 C48 1_555 1_555
N25 N26 1_555 1_555
N25 N32 1_555 1_555
C49 C56 1_555 1_555
N27 N30 1_555 1_555
C53 C54 1_555 1_555
N30 C63 1_555 1_555
C57 C63 1_555 1_555
C61 C62 1_555 1_555
N31 Ag10C 1_555 1_555
N16A N17A 1_555 1_555

#END
