
#######################################################################
#
#                 Cambridge Crystallographic Data Centre
#                                CCDC 
#
#######################################################################
#
# If this CIF has been generated from an entry in the Cambridge 
# Structural Database, then it will include bibliographic, chemical, 
# crystal, experimental, refinement or atomic coordinate data resulting 
# from the CCDC's data processing and validation procedures.
#
#######################################################################

data_QOBGEV
_chemical_formula_moiety         '(C12 H10 N1 O8 Zn1 1-)n'
_symmetry_cell_setting           tetragonal
_symmetry_space_group_name_H-M   'I 41/a m d'
_symmetry_Int_Tables_number      141
_space_group_name_Hall           '-I 4bd 2'
loop_
_symmetry_equiv_pos_site_id
_symmetry_equiv_pos_as_xyz
1 x,y,z
2 1/2-x,-y,1/2+z
3 1/4-y,3/4+x,1/4+z
4 1/4+y,1/4-x,3/4+z
5 1/2-x,y,1/2-z
6 x,-y,-z
7 1/4+y,3/4+x,1/4-z
8 1/4-y,1/4-x,3/4-z
9 1/2+x,1/2+y,1/2+z
10 -x,1/2-y,z
11 3/4-y,1/4+x,3/4+z
12 3/4+y,3/4-x,1/4+z
13 -x,1/2+y,-z
14 1/2+x,1/2-y,1/2-z
15 3/4+y,1/4+x,3/4-z
16 3/4-y,3/4-x,1/4-z
17 -x,-y,-z
18 1/2+x,y,1/2-z
19 3/4+y,1/4-x,3/4-z
20 3/4-y,3/4+x,1/4-z
21 1/2+x,-y,1/2+z
22 -x,y,z
23 3/4-y,1/4-x,3/4+z
24 3/4+y,3/4+x,1/4+z
25 1/2-x,1/2-y,1/2-z
26 x,1/2+y,-z
27 1/4+y,3/4-x,1/4-z
28 1/4-y,1/4+x,3/4-z
29 x,1/2-y,z
30 1/2-x,1/2+y,1/2+z
31 1/4-y,3/4-x,1/4+z
32 1/4+y,1/4+x,3/4+z
_cell_length_a                   18.9381(3)
_cell_length_b                   18.9381(3)
_cell_length_c                   21.2008(7)
_cell_angle_alpha                90
_cell_angle_beta                 90
_cell_angle_gamma                90
_cell_volume                     7603.7
loop_
_atom_site_label
_atom_site_type_symbol
_atom_site_fract_x
_atom_site_fract_y
_atom_site_fract_z
_atom_site_U_iso_or_equiv
_atom_site_thermal_displace_type
N1 N 0.2500 0.5499(2) 0.2500 0.0394 Uiso
C7 C 0.3055(4) 0.5777(5) 0.2581(5) 0.1070 Uiso
H3 H 0.3415 0.5424 0.2629 0.1610 Uiso
H4 H 0.3035 0.6062 0.2956 0.1610 Uiso
H5 H 0.3164 0.6072 0.2226 0.1610 Uiso
C7D C 0.1945(4) 0.5777(5) 0.2419(5) 0.1070 Uiso
H3D H 0.1585 0.5424 0.2371 0.1610 Uiso
H4D H 0.1965 0.6062 0.2044 0.1610 Uiso
H5D H 0.1836 0.6072 0.2774 0.1610 Uiso
Zn1 Zn 0.27647(2) 0.47353(2) 0.1250 0.0289 Uani
O1 O 0.28506(17) 0.56137(14) 0.07599(13) 0.0443 Uani
O2 O 0.2646(3) 0.62156(16) 0.16366(15) 0.0707 Uani
C1 C 0.2791(2) 0.6188(2) 0.1065(2) 0.0439 Uani
C2 C 0.2836(3) 0.7500 0.1002(3) 0.0467 Uani
H1 H 0.2712 0.7500 0.1427 0.0560 Uiso
C3 C 0.2923(2) 0.68595(18) 0.07039(17) 0.0401 Uani
O3 O 0.26662(16) 0.59792(15) -0.05983(13) 0.0468 Uani
C4 C 0.3212(3) 0.7500 -0.0237(2) 0.0397 Uani
H2 H 0.3342 0.7500 -0.0660 0.0480 Uiso
C5 C 0.3119(2) 0.68597(17) 0.00658(17) 0.0377 Uani
C6 C 0.3226(2) 0.62129(18) -0.03413(18) 0.0406 Uani
O4 O 0.38171(17) 0.59970(18) -0.04484(19) 0.0657 Uani
O1BA O 0.28506(17) 0.93863(14) 0.07599(13) 0.0443 Uani
O2BA O 0.2646(3) 0.87844(16) 0.16366(15) 0.0707 Uani
C1BA C 0.2791(2) 0.8812(2) 0.1065(2) 0.0439 Uani
C3BA C 0.2923(2) 0.81405(18) 0.07039(17) 0.0401 Uani
O3BA O 0.26662(16) 0.90208(15) -0.05983(13) 0.0468 Uani
C5BA C 0.3119(2) 0.81403(17) 0.00658(17) 0.0377 Uani
C6BA C 0.3226(2) 0.87871(18) -0.03413(18) 0.0406 Uani
O4BA O 0.38171(17) 0.90030(18) -0.04484(19) 0.0657 Uani
Zn1E Zn 0.27647(2) 0.52647(2) -0.1250 0.0289 Uani
Zn1S Zn 0.27647(2) 1.02647(2) 0.1250 0.0289 Uani
Zn1V Zn 0.27647(2) 0.97353(2) -0.1250 0.0289 Uani
O1O O 0.18863(14) 0.46494(17) 0.17401(13) 0.0443 Uani
O3E O 0.26662(16) 0.40208(15) 0.05983(13) 0.0468 Uani
O3K O 0.34792(15) 0.48338(16) 0.19017(13) 0.0468 Uani
loop_
_atom_site_aniso_label
_atom_site_aniso_U_11
_atom_site_aniso_U_22
_atom_site_aniso_U_33
_atom_site_aniso_U_23
_atom_site_aniso_U_13
_atom_site_aniso_U_12
Zn1 0.0284(4) 0.0284(4) 0.0299(5) 0.00070(15) 0.00070(15) -0.0002(2)
O1 0.0732(19) 0.0269(13) 0.0328(13) 0.0021(10) 0.0007(13) -0.0023(11)
O2 0.138(4) 0.0377(16) 0.0365(15) 0.0038(13) 0.0192(18) 0.0050(17)
C1 0.064(3) 0.031(2) 0.0368(19) 0.0041(16) 0.0013(16) 0.0021(15)
C2 0.077(4) 0.032(3) 0.031(3) 0.000 0.006(3) 0.000
C3 0.063(2) 0.0257(17) 0.0315(17) 0.0009(14) -0.0026(17) -0.0012(15)
O3 0.0586(17) 0.0409(15) 0.0408(15) -0.0077(12) -0.0037(13) -0.0004(12)
C4 0.058(3) 0.033(2) 0.028(2) 0.000 0.004(2) 0.000
C5 0.050(2) 0.0259(16) 0.0373(17) -0.0015(14) 0.0013(16) -0.0016(14)
C6 0.055(2) 0.0325(18) 0.0343(18) 0.0046(15) 0.0050(16) 0.0008(15)
O4 0.0523(18) 0.0599(19) 0.085(2) -0.0222(18) 0.0059(17) 0.0057(14)
O1BA 0.0732 0.0269 0.0328 -0.0021 0.0007 0.0023
O2BA 0.138 0.0377 0.0365 -0.0038 0.0192 -0.005
C1BA 0.064 0.031 0.0368 -0.0041 0.0013 -0.0021
C3BA 0.063 0.0257 0.0315 -0.0009 -0.0026 0.0012
O3BA 0.0586 0.0409 0.0408 0.0077 -0.0037 0.0004
C5BA 0.05 0.0259 0.0373 0.0015 0.0013 0.0016
C6BA 0.055 0.0325 0.0343 -0.0046 0.005 -0.0008
O4BA 0.0523 0.0599 0.085 0.0222 0.0059 -0.0057
Zn1E 0.0284 0.0284 0.0299 0.0007 -0.0007 0.0002
Zn1S 0.0284 0.0284 0.0299 -0.0007 0.0007 0.0002
Zn1V 0.0284 0.0284 0.0299 -0.0007 -0.0007 -0.0002
O1O 0.0269 0.0732 0.0328 0.0007 0.0021 -0.0023
O3E 0.0586 0.0409 0.0408 -0.0077 0.0037 0.0004
O3K 0.0409 0.0586 0.0408 0.0037 -0.0077 0.0004
loop_
_geom_bond_atom_site_label_1
_geom_bond_atom_site_label_2
_geom_bond_site_symmetry_1
_geom_bond_site_symmetry_2
Zn1 O1 1_555 1_555
O1 C1 1_555 1_555
O2 C1 1_555 1_555
C1 C3 1_555 1_555
C2 H1 1_555 1_555
C3 C2 1_555 1_555
O3 C6 1_555 1_555
C4 H2 1_555 1_555
C5 C3 1_555 1_555
C6 C5 1_555 1_555
O4 C6 1_555 1_555
N1 C7 1_555 1_555
C7 H3 1_555 1_555
H4 C7 1_555 1_555
H5 C7 1_555 1_555
O1BA C1BA 1_555 1_555
O2BA C1BA 1_555 1_555
C1BA C3BA 1_555 1_555
C3BA C2 1_555 1_555
O3BA C6BA 1_555 1_555
C5BA C4 1_555 1_555
C6BA C5BA 1_555 1_555
O4BA C6BA 1_555 1_555
Zn1E O3 1_555 1_555
Zn1S O1BA 1_555 1_555
Zn1V O3BA 1_555 1_555
O1O Zn1 1_555 1_555
O3E Zn1 1_555 1_555
O3K Zn1 1_555 1_555
C7D N1 1_555 1_555
H3D C7D 1_555 1_555
H4D C7D 1_555 1_555
H5D C7D 1_555 1_555
C4 C5 1_555 1_555
C3BA C5BA 1_555 1_555

#END
