
#######################################################################
#
#                 Cambridge Crystallographic Data Centre
#                                CCDC 
#
#######################################################################
#
# If this CIF has been generated from an entry in the Cambridge 
# Structural Database, then it will include bibliographic, chemical, 
# crystal, experimental, refinement or atomic coordinate data resulting 
# from the CCDC's data processing and validation procedures.
#
#######################################################################

data_CUHNID
_chemical_formula_moiety         'C48 H80 Mo12 N2 O50 P1 Zn6 2+'
_symmetry_cell_setting           monoclinic
_symmetry_space_group_name_H-M   'C 2/c'
_symmetry_Int_Tables_number      15
_space_group_name_Hall           '-C 2yc'
loop_
_symmetry_equiv_pos_site_id
_symmetry_equiv_pos_as_xyz
1 x,y,z
2 -x,y,1/2-z
3 1/2+x,1/2+y,z
4 1/2-x,1/2+y,1/2-z
5 -x,-y,-z
6 x,-y,1/2+z
7 1/2-x,1/2-y,-z
8 1/2+x,1/2-y,1/2+z
_cell_length_a                   15.0956(11)
_cell_length_b                   27.0921(19)
_cell_length_c                   25.7271(18)
_cell_angle_alpha                90
_cell_angle_beta                 106.834(2)
_cell_angle_gamma                90
_cell_volume                     10070.8
loop_
_atom_site_label
_atom_site_type_symbol
_atom_site_fract_x
_atom_site_fract_y
_atom_site_fract_z
_atom_site_U_iso_or_equiv
_atom_site_thermal_displace_type
N1 N 0.5478(4) -0.1851(2) 0.5929(2) 0.0745 Uiso
C9 C 0.5333(5) -0.2161(3) 0.6398(3) 0.0768 Uiso
C10 C 0.4541(6) -0.2526(3) 0.6220(3) 0.0920 Uiso
C11 C 0.4268(6) -0.2732(3) 0.6728(3) 0.0920 Uiso
C12 C 0.3784(6) -0.2334(3) 0.6982(4) 0.1040 Uiso
C13 C 0.4589(6) -0.1494(3) 0.5655(4) 0.1060 Uiso
C14 C 0.4344(8) -0.1162(4) 0.6013(5) 0.1420 Uiso
C15 C 0.3373(8) -0.0833(4) 0.5737(5) 0.0850 Uiso
C16 C 0.3363(10) -0.0555(5) 0.5328(6) 0.1840 Uiso
C17 C 0.5459(6) -0.2164(3) 0.5448(4) 0.1010 Uiso
C18 C 0.6246(7) -0.2480(4) 0.5602(4) 0.0700 Uiso
C19 C 0.6245(7) -0.2860(4) 0.5033(4) 0.1300 Uiso
C20 C 0.5491(10) -0.3119(5) 0.4704(6) 0.2010 Uiso
C21 C 0.6349(5) -0.1553(3) 0.6192(3) 0.0746 Uiso
C22 C 0.6550(7) -0.1192(3) 0.5783(4) 0.1140 Uiso
C23 C 0.7425(8) -0.0923(4) 0.6021(5) 0.1390 Uiso
C24 C 0.7640(11) -0.0581(6) 0.5610(6) 0.2010 Uiso
N2 N -0.0000 -0.0294(2) 0.7500 0.0566 Uiso
C25 C 0.0605(7) -0.0086(4) 0.8076(4) 0.0710 Uiso
C27 C 0.0839(7) 0.0513(3) 0.8818(4) 0.1170 Uiso
C28 C 0.0637(10) 0.0983(5) 0.8973(6) 0.1900 Uiso
C29 C -0.0630(8) -0.0720(4) 0.7623(4) 0.0680 Uiso
C30 C -0.0770(12) -0.0885(6) 0.7997(7) 0.0950 Uiso
C32 C -0.2006(10) -0.1016(5) 0.7879(6) 0.1850 Uiso
C33 C -0.1606(11) -0.1333(5) 0.8312(6) 0.2050 Uiso
C36 C 0.0361(15) 0.0216(8) 0.8371(9) 0.1170 Uiso
C25A C -0.0605(7) -0.0086(4) 0.6924(4) 0.0710 Uiso
C27A C -0.0839(7) 0.0513(3) 0.6182(4) 0.1170 Uiso
C28A C -0.0637(10) 0.0983(5) 0.6027(6) 0.1900 Uiso
C29A C 0.0630(8) -0.0720(4) 0.7377(4) 0.0680 Uiso
C30A C 0.0770(12) -0.0885(6) 0.7003(7) 0.0950 Uiso
C32A C 0.2006(10) -0.1016(5) 0.7121(6) 0.1850 Uiso
C33A C 0.1606(11) -0.1333(5) 0.6688(6) 0.2050 Uiso
C36A C -0.0361(15) 0.0216(8) 0.6629(9) 0.1170 Uiso
Mo1 Mo 0.38352(2) 0.159152(13) 0.608790(13) 0.0283 Uani
Mo2 Mo 0.71764(2) 0.092480(14) 0.721390(14) 0.0315 Uani
Mo3 Mo 0.50604(3) 0.090332(14) 0.612381(13) 0.0308 Uani
Mo4 Mo 0.40656(2) 0.253144(13) 0.701277(14) 0.0277 Uani
Mo5 Mo 0.55960(3) -0.001037(13) 0.708195(14) 0.0320 Uani
Mo6 Mo 0.25264(2) 0.161133(14) 0.704614(14) 0.0293 Uani
Zn1 Zn 0.32516(3) 0.040734(18) 0.661224(19) 0.0310 Uani
Zn2 Zn 0.60496(3) 0.210901(19) 0.670274(18) 0.0306 Uani
P1 P 0.5000 0.12583(5) 0.7500 0.0189 Uani
O1 O 0.54477(18) 0.24650(10) 0.71731(10) 0.0284 Uani
O2 O 0.51805(19) 0.16165(10) 0.62556(11) 0.0312 Uani
O3 O 0.69398(19) 0.16410(11) 0.71653(11) 0.0317 Uani
O4 O 0.38219(19) 0.08774(10) 0.62138(11) 0.0310 Uani
O5 O 0.72828(19) 0.08964(10) 0.79853(11) 0.0316 Uani
O6 O 0.42445(16) 0.15820(9) 0.71075(10) 0.0225 Uani
O7 O 0.2170(2) 0.01058(12) 0.61109(12) 0.0439 Uani
O8 O 0.25932(19) 0.15983(11) 0.62635(11) 0.0331 Uani
O9 O 0.54767(17) 0.09361(9) 0.71604(10) 0.0240 Uani
O10 O 0.4279(2) 0.00578(10) 0.71254(11) 0.0336 Uani
O11 O 0.3436(2) 0.16700(12) 0.54182(11) 0.0451 Uani
O12 O 0.6544(2) 0.24088(13) 0.61572(12) 0.0475 Uani
O13 O 0.3927(2) 0.31458(11) 0.69320(13) 0.0446 Uani
O14 O 0.5165(2) 0.02038(11) 0.63862(11) 0.0344 Uani
O15 O 0.1390(2) 0.16977(13) 0.69252(14) 0.0490 Uani
O16 O 0.3956(2) 0.22989(10) 0.63337(11) 0.0331 Uani
O17 O 0.5698(3) -0.06276(11) 0.70288(14) 0.0513 Uani
O18 O 0.6777(2) 0.02186(11) 0.72197(12) 0.0374 Uani
O19 O 0.29507(19) 0.23161(11) 0.70623(11) 0.0319 Uani
O20 O 0.6480(2) 0.09109(11) 0.64017(11) 0.0356 Uani
O21 O 0.8252(2) 0.08572(14) 0.71734(15) 0.0538 Uani
O22 O 0.4919(3) 0.08301(13) 0.54647(12) 0.0483 Uani
O23 O 0.7012(3) 0.16615(15) 0.59696(16) 0.0683 Uani
O24 O 0.1741(2) 0.08542(13) 0.57515(15) 0.0583 Uani
C1 C 0.6899(3) 0.2106(2) 0.58881(19) 0.0440 Uani
C2 C 0.7212(3) 0.23176(19) 0.54331(17) 0.0402 Uani
C3 C 0.7638(3) 0.2010(2) 0.51505(18) 0.0449 Uani
H1 H 0.7728 0.1679 0.5246 0.0540 Uiso
C4 C 0.7066(3) 0.2805(2) 0.52792(18) 0.0452 Uani
H2 H 0.6768 0.3013 0.5462 0.0540 Uiso
C5 C 0.1631(3) 0.04052(18) 0.57719(18) 0.0398 Uani
C6 C 0.0801(3) 0.01831(18) 0.53682(17) 0.0391 Uani
C7 C 0.0230(3) 0.04911(18) 0.49777(19) 0.0462 Uani
H3 H 0.0385 0.0822 0.4962 0.0550 Uiso
C8 C 0.0565(3) -0.03075(18) 0.53866(18) 0.0438 Uani
H4 H 0.0942 -0.0516 0.5645 0.0530 Uiso
Mo1A Mo 0.61648(2) 0.159152(13) 0.891210(13) 0.0283 Uani
Mo2A Mo 0.28236(2) 0.092480(14) 0.778610(14) 0.0315 Uani
Mo3A Mo 0.49396(3) 0.090332(14) 0.887619(13) 0.0308 Uani
Mo4A Mo 0.59344(2) 0.253144(13) 0.798723(14) 0.0277 Uani
Mo5A Mo 0.44040(3) -0.001037(13) 0.791805(14) 0.0320 Uani
Mo6A Mo 0.74736(2) 0.161133(14) 0.795386(14) 0.0293 Uani
Zn1A Zn 0.67484(3) 0.040734(18) 0.838776(19) 0.0310 Uani
Zn1D Zn -0.32516(3) -0.040734(18) 0.338776(19) 0.0310 Uani
Zn2A Zn 0.39504(3) 0.210901(19) 0.829726(18) 0.0306 Uani
Zn2F Zn 0.89504(3) 0.289099(19) 0.329726(18) 0.0306 Uani
O1A O 0.45523(18) 0.24650(10) 0.78269(10) 0.0284 Uani
O2A O 0.48195(19) 0.16165(10) 0.87444(11) 0.0312 Uani
O3A O 0.30602(19) 0.16410(11) 0.78347(11) 0.0317 Uani
O4A O 0.61781(19) 0.08774(10) 0.87862(11) 0.0310 Uani
O5A O 0.27172(19) 0.08964(10) 0.70147(11) 0.0316 Uani
O6A O 0.57555(16) 0.15820(9) 0.78925(10) 0.0225 Uani
O7D O -0.2170(2) -0.01058(12) 0.38891(12) 0.0439 Uani
O7A O 0.7830(2) 0.01058(12) 0.88891(12) 0.0439 Uani
O8A O 0.74068(19) 0.15983(11) 0.87365(11) 0.0331 Uani
O9A O 0.45233(17) 0.09361(9) 0.78396(10) 0.0240 Uani
O10A O 0.5721(2) 0.00578(10) 0.78746(11) 0.0336 Uani
O11A O 0.6564(2) 0.16700(12) 0.95818(11) 0.0451 Uani
O12F O 0.8456(2) 0.25912(13) 0.38428(12) 0.0475 Uani
O12A O 0.3456(2) 0.24088(13) 0.88428(12) 0.0475 Uani
O13A O 0.6073(2) 0.31458(11) 0.80680(13) 0.0446 Uani
O14A O 0.4835(2) 0.02038(11) 0.86138(11) 0.0344 Uani
O15A O 0.8610(2) 0.16977(13) 0.80748(14) 0.0490 Uani
O16A O 0.6044(2) 0.22989(10) 0.86663(11) 0.0331 Uani
O17A O 0.4302(3) -0.06276(11) 0.79712(14) 0.0513 Uani
O18A O 0.3223(2) 0.02186(11) 0.77803(12) 0.0374 Uani
O19A O 0.70493(19) 0.23161(11) 0.79377(11) 0.0319 Uani
O20A O 0.3520(2) 0.09109(11) 0.85983(11) 0.0356 Uani
O21A O 0.1748(2) 0.08572(14) 0.78266(15) 0.0538 Uani
O22A O 0.5081(3) 0.08301(13) 0.95353(12) 0.0483 Uani
O23F O 0.7988(3) 0.33385(15) 0.40304(16) 0.0683 Uani
O24D O -0.1741(2) -0.08542(13) 0.42485(15) 0.0583 Uani
C1F C 0.8101(3) 0.2894(2) 0.41119(19) 0.0440 Uani
C2F C 0.7788(3) 0.26824(19) 0.45669(17) 0.0402 Uani
C3F C 0.7362(3) 0.2990(2) 0.48495(18) 0.0449 Uani
H1F H 0.7272 0.3321 0.4754 0.0540 Uiso
C4F C 0.7934(3) 0.2195(2) 0.47208(18) 0.0452 Uani
H2F H 0.8232 0.1987 0.4538 0.0540 Uiso
C5D C -0.1631(3) -0.04052(18) 0.42281(18) 0.0398 Uani
C6D C -0.0801(3) -0.01831(18) 0.46318(17) 0.0391 Uani
C7D C -0.0230(3) -0.04911(18) 0.50223(19) 0.0462 Uani
H3D H -0.0385 -0.0822 0.5038 0.0550 Uiso
C8D C -0.0565(3) 0.03075(18) 0.46134(18) 0.0438 Uani
H4D H -0.0942 0.0516 0.4355 0.0530 Uiso
loop_
_atom_site_aniso_label
_atom_site_aniso_U_11
_atom_site_aniso_U_22
_atom_site_aniso_U_33
_atom_site_aniso_U_23
_atom_site_aniso_U_13
_atom_site_aniso_U_12
Mo1 0.03051(16) 0.03425(18) 0.01723(14) 0.00157(13) 0.00214(12) 0.00452(15)
Mo2 0.02396 0.0411 0.02991 -0.00019 0.00871 0.00745
Mo3 0.03435(17) 0.03810(19) 0.01905(14) -0.00236(14) 0.00637(13) 0.00666(16)
Mo4 0.03008(16) 0.02647(16) 0.02559(16) 0.00183(13) 0.00649(13) 0.00489(14)
Mo5 0.03395(18) 0.02867(17) 0.02757(17) -0.00427(14) -0.00039(14) 0.00711(15)
Mo6 0.02053(15) 0.03635(18) 0.02939(16) -0.00127(15) 0.00443(13) 0.00333(14)
Zn1 0.0256(2) 0.0337(2) 0.0257(2) -0.00274(19) -0.00504(18) -0.0021(2)
Zn2 0.0323(2) 0.0391(3) 0.0246(2) 0.00419(19) 0.01507(17) -0.0001(2)
P1 0.0177(5) 0.0249(6) 0.0131(5) 0.000 0.0027(4) 0.000
O1 0.0287(13) 0.0349(15) 0.0240(12) 0.0009(11) 0.0114(10) -0.0026(12)
O2 0.0337(14) 0.0365(15) 0.0250(13) 0.0029(12) 0.0111(11) 0.0030(13)
O3 0.0274 0.04 0.0289 0.0051 0.0101 0.0007
O4 0.0305(14) 0.0339(14) 0.0238(13) -0.0030(12) 0.0004(11) 0.0038(12)
O5 0.0284 0.0369 0.0261 0.0002 0.0023 0.0051
O6 0.0166(11) 0.0283(13) 0.0207(11) 0.0018(10) 0.0025(9) 0.0029(10)
O7 0.0324(16) 0.0484(18) 0.0370(16) -0.0063(15) -0.0118(13) -0.0046(14)
O8 0.0247(13) 0.0459(16) 0.0214(13) 0.0017(12) -0.0049(11) 0.0055(13)
O9 0.0237(12) 0.0289(13) 0.0193(11) -0.0029(10) 0.0062(9) 0.0035(11)
O10 0.0316(15) 0.0331(15) 0.0263(13) -0.0015(12) -0.0071(12) -0.0012(12)
O11 0.057(2) 0.0526(19) 0.0197(13) 0.0035(14) 0.0015(14) 0.0094(17)
O12 0.0464(17) 0.066(2) 0.0378(16) 0.0106(15) 0.0244(13) -0.0064(16)
O13 0.0542(19) 0.0282(15) 0.0507(18) 0.0053(14) 0.0141(15) 0.0086(14)
O14 0.0408(16) 0.0371(15) 0.0213(13) -0.0044(12) 0.0027(12) 0.0087(13)
O15 0.0217(14) 0.061(2) 0.061(2) 0.0043(17) 0.0066(14) 0.0095(15)
O16 0.0413(16) 0.0330(15) 0.0223(13) 0.0066(11) 0.0049(12) 0.0057(13)
O17 0.061(2) 0.0283(16) 0.055(2) -0.0057(15) 0.0018(17) 0.0090(15)
O18 0.0325(15) 0.0395(16) 0.0365(15) -0.0053(13) 0.0043(12) 0.0101(13)
O19 0.0241(13) 0.0366(15) 0.0332(14) -0.0019(12) 0.0053(11) 0.0089(12)
O20 0.0328(14) 0.0475(17) 0.0283(14) -0.0025(13) 0.0116(11) 0.0099(14)
O21 0.0283 0.076 0.062 -0.0033 0.0208 0.0111
O22 0.065(2) 0.061(2) 0.0209(13) -0.0040(14) 0.0154(14) 0.0085(18)
O23 0.086(2) 0.070(2) 0.071(2) 0.0223(19) 0.0577(18) 0.012(2)
O24 0.045(2) 0.052(2) 0.054(2) -0.0046(17) -0.0237(17) -0.0131(17)
C1 0.038(2) 0.061(3) 0.039(2) 0.009(2) 0.0207(18) -0.005(2)
C2 0.034(2) 0.061(3) 0.029(2) 0.013(2) 0.0145(17) 0.000(2)
C3 0.044(2) 0.058(3) 0.039(2) 0.011(2) 0.0221(19) -0.003(2)
C4 0.044(2) 0.063(3) 0.035(2) 0.007(2) 0.0215(19) 0.001(2)
C5 0.027(2) 0.051(3) 0.035(2) -0.010(2) -0.0010(18) -0.005(2)
C6 0.027(2) 0.050(3) 0.031(2) -0.012(2) -0.0063(17) -0.003(2)
C7 0.039(2) 0.044(3) 0.040(2) 0.002(2) -0.013(2) -0.008(2)
C8 0.039(2) 0.045(3) 0.031(2) -0.004(2) -0.0159(19) -0.005(2)
Mo1A 0.03051 0.03425 0.01723 -0.00157 0.00214 -0.00452
Mo2A 0.02396(15) 0.0411(2) 0.02991(16) 0.00019(15) 0.00871(13) -0.00745(15)
Mo3A 0.03435 0.0381 0.01905 0.00236 0.00637 -0.00666
Mo4A 0.03008 0.02647 0.02559 -0.00183 0.00649 -0.00489
Mo5A 0.03395 0.02867 0.02757 0.00427 -0.00039 -0.00711
Mo6A 0.02053 0.03635 0.02939 0.00127 0.00443 -0.00333
Zn1A 0.0256 0.0337 0.0257 0.00274 -0.00504 0.0021
Zn1D 0.0256 0.0337 0.0257 -0.00274 -0.00504 -0.0021
Zn2A 0.0323 0.0391 0.0246 -0.00419 0.01507 0.0001
Zn2F 0.0323 0.0391 0.0246 0.00419 0.01507 -0.0001
O1A 0.0287 0.0349 0.024 -0.0009 0.0114 0.0026
O2A 0.0337 0.0365 0.025 -0.0029 0.0111 -0.003
O3A 0.0274(13) 0.0400(15) 0.0289(13) -0.0051(12) 0.0101(11) -0.0007(12)
O4A 0.0305 0.0339 0.0238 0.003 0.0004 -0.0038
O5A 0.0284(14) 0.0369(15) 0.0261(13) -0.0002(12) 0.0023(11) -0.0051(12)
O6A 0.0166 0.0283 0.0207 -0.0018 0.0025 -0.0029
O7D 0.0324 0.0484 0.037 -0.0063 -0.0118 -0.0046
O7A 0.0324 0.0484 0.037 0.0063 -0.0118 0.0046
O8A 0.0247 0.0459 0.0214 -0.0017 -0.0049 -0.0055
O9A 0.0237 0.0289 0.0193 0.0029 0.0062 -0.0035
O10A 0.0316 0.0331 0.0263 0.0015 -0.0071 0.0012
O11A 0.057 0.0526 0.0197 -0.0035 0.0015 -0.0094
O12F 0.0464 0.066 0.0378 0.0106 0.0244 -0.0064
O12A 0.0464 0.066 0.0378 -0.0106 0.0244 0.0064
O13A 0.0542 0.0282 0.0507 -0.0053 0.0141 -0.0086
O14A 0.0408 0.0371 0.0213 0.0044 0.0027 -0.0087
O15A 0.0217 0.061 0.061 -0.0043 0.0066 -0.0095
O16A 0.0413 0.033 0.0223 -0.0066 0.0049 -0.0057
O17A 0.061 0.0283 0.055 0.0057 0.0018 -0.009
O18A 0.0325 0.0395 0.0365 0.0053 0.0043 -0.0101
O19A 0.0241 0.0366 0.0332 0.0019 0.0053 -0.0089
O20A 0.0328 0.0475 0.0283 0.0025 0.0116 -0.0099
O21A 0.0283(15) 0.076(2) 0.062(2) 0.0033(19) 0.0208(14) -0.0111(16)
O22A 0.065 0.061 0.0209 0.004 0.0154 -0.0085
O23F 0.086 0.07 0.071 0.0223 0.0577 0.012
O24D 0.045 0.052 0.054 -0.0046 -0.0237 -0.0131
C1F 0.038 0.061 0.039 0.009 0.0207 -0.005
C2F 0.034 0.061 0.029 0.013 0.0145 0
C3F 0.044 0.058 0.039 0.011 0.0221 -0.003
C4F 0.044 0.063 0.035 0.007 0.0215 0.001
C5D 0.027 0.051 0.035 -0.01 -0.001 -0.005
C6D 0.027 0.05 0.031 -0.012 -0.0063 -0.003
C7D 0.039 0.044 0.04 0.002 -0.013 -0.008
C8D 0.039 0.045 0.031 -0.004 -0.0159 -0.005
loop_
_geom_bond_atom_site_label_1
_geom_bond_atom_site_label_2
_geom_bond_site_symmetry_1
_geom_bond_site_symmetry_2
Mo1 Mo3 1_555 1_555
Mo2 O3 1_555 1_555
Mo3 O2 1_555 1_555
Mo4 O1 1_555 1_555
Mo5 O9 1_555 1_555
Mo6 O6 1_555 1_555
Zn1 O4 1_555 1_555
Zn2 O1 1_555 1_555
P1 O6 1_555 1_555
O1 Mo4A 1_555 1_555
O2 Mo1 1_555 1_555
O3 Zn2 1_555 1_555
O4 Mo1 1_555 1_555
O5 Mo2 1_555 1_555
O6 Mo1 1_555 1_555
O7 Zn1 1_555 1_555
O8 Mo1 1_555 1_555
O9 Mo2 1_555 1_555
O10 Mo5 1_555 1_555
O11 Mo1 1_555 1_555
O12 Zn2 1_555 1_555
O13 Mo4 1_555 1_555
O14 Mo3 1_555 1_555
O15 Mo6 1_555 1_555
O16 Mo1 1_555 1_555
O17 Mo5 1_555 1_555
O18 Mo2 1_555 1_555
O19 Mo4 1_555 1_555
O20 Mo2 1_555 1_555
O21 Mo2 1_555 1_555
O22 Mo3 1_555 1_555
O23 C1 1_555 1_555
O24 C5 1_555 1_555
C1 O12 1_555 1_555
C2 C1 1_555 1_555
C3 C2 1_555 1_555
H1 C3 1_555 1_555
C4 C2 1_555 1_555
H2 C4 1_555 1_555
C5 O7 1_555 1_555
C6 C5 1_555 1_555
C7 C6 1_555 1_555
H3 C7 1_555 1_555
C8 C6 1_555 1_555
H4 C8 1_555 1_555
N1 C9 1_555 1_555
C9 C10 1_555 1_555
C10 C11 1_555 1_555
C11 C12 1_555 1_555
C13 N1 1_555 1_555
C14 C13 1_555 1_555
C15 C14 1_555 1_555
C16 C15 1_555 1_555
C17 N1 1_555 1_555
C18 C17 1_555 1_555
C19 C18 1_555 1_555
C20 C19 1_555 1_555
C21 N1 1_555 1_555
C22 C21 1_555 1_555
C23 C22 1_555 1_555
C24 C23 1_555 1_555
N2 C25 1_555 1_555
C25 C36 1_555 1_555
C27 C28 1_555 1_555
C29 N2 1_555 1_555
C30 C29 1_555 1_555
C32 C30 1_555 1_555
C33 C32 1_555 1_555
C36 C27 1_555 1_555
Mo1A Mo3A 1_555 1_555
Mo2A Mo6 1_555 1_555
Mo3A O2A 1_555 1_555
Mo4A O1A 1_555 1_555
Mo5A O10 1_555 1_555
Mo6A Mo2 1_555 1_555
Zn1A O5 1_555 1_555
Zn1D O7D 1_555 1_555
Zn2A O1A 1_555 1_555
Zn2F O12F 1_555 1_555
O1A Mo4 1_555 1_555
O2A Mo1A 1_555 1_555
O3A Mo6 1_555 1_555
O4A Mo1A 1_555 1_555
O5A Mo6 1_555 1_555
O6A P1 1_555 1_555
O7D C5D 1_555 1_555
O7A Zn1A 1_555 1_555
O8A Mo1A 1_555 1_555
O9A P1 1_555 1_555
O10A Mo5 1_555 1_555
O11A Mo1A 1_555 1_555
O12F C1F 1_555 1_555
O12A Zn2A 1_555 1_555
O13A Mo4A 1_555 1_555
O14A Mo3A 1_555 1_555
O15A Mo6A 1_555 1_555
O16A Mo1A 1_555 1_555
O17A Mo5A 1_555 1_555
O18A Mo2A 1_555 1_555
O19A Mo4A 1_555 1_555
O20A Mo2A 1_555 1_555
O21A Mo2A 1_555 1_555
O22A Mo3A 1_555 1_555
O23F C1F 1_555 1_555
O24D C5D 1_555 1_555
C1F C2F 1_555 1_555
C2F C3F 1_555 1_555
C3F C4 1_555 1_555
H1F C3F 1_555 1_555
C4F C3 1_555 1_555
H2F C4F 1_555 1_555
C5D C6D 1_555 1_555
C6D C7D 1_555 1_555
C7D C8 1_555 1_555
H3D C7D 1_555 1_555
C8D C7 1_555 1_555
H4D C8D 1_555 1_555
C25A N2 1_555 1_555
C27A C28A 1_555 1_555
C29A N2 1_555 1_555
C30A C29A 1_555 1_555
C32A C30A 1_555 1_555
C33A C32A 1_555 1_555
C36A C25A 1_555 1_555
Mo3 O4 1_555 1_555
Mo3 O9 1_555 1_555
Mo3 O20 1_555 1_555
Mo4 O6 1_555 1_555
Mo4 O16 1_555 1_555
Mo5 O14 1_555 1_555
Mo5 O18 1_555 1_555
Mo6 O8 1_555 1_555
Mo6 O19 1_555 1_555
Zn1 O10 1_555 1_555
Zn1 O5A 1_555 1_555
Zn2 O2 1_555 1_555
P1 O9 1_555 1_555
O3 Mo6A 1_555 1_555
O5 Mo6A 1_555 1_555
Mo1A O6A 1_555 1_555
Mo2A O3A 1_555 1_555
Mo2A O5A 1_555 1_555
Mo2A O9A 1_555 1_555
Mo3A O4A 1_555 1_555
Mo3A O9A 1_555 1_555
Mo3A O20A 1_555 1_555
Mo4A O6A 1_555 1_555
Mo4A O16A 1_555 1_555
Mo5A O9A 1_555 1_555
Mo5A O10A 1_555 1_555
Mo5A O14A 1_555 1_555
Mo5A O18A 1_555 1_555
Mo6A O6A 1_555 1_555
Mo6A O8A 1_555 1_555
Mo6A O19A 1_555 1_555
Zn1A O4A 1_555 1_555
Zn1A O10A 1_555 1_555
Zn2A O2A 1_555 1_555
Zn2A O3A 1_555 1_555
C2F C4F 1_555 1_555
C6D C8D 1_555 1_555
C27A C36A 1_555 1_555

#END
