
#######################################################################
#
#                 Cambridge Crystallographic Data Centre
#                                CCDC 
#
#######################################################################
#
# If this CIF has been generated from an entry in the Cambridge 
# Structural Database, then it will include bibliographic, chemical, 
# crystal, experimental, refinement or atomic coordinate data resulting 
# from the CCDC's data processing and validation procedures.
#
#######################################################################

data_FIJDEI
_chemical_formula_moiety         '(C36 H16 Cd3 N4 O16 2-)n'
_symmetry_cell_setting           monoclinic
_symmetry_space_group_name_H-M   'C 2/c'
_symmetry_Int_Tables_number      15
_space_group_name_Hall           '-C 2yc'
loop_
_symmetry_equiv_pos_site_id
_symmetry_equiv_pos_as_xyz
1 x,y,z
2 1/2+x,1/2+y,z
3 -x,y,1/2-z
4 1/2-x,1/2+y,1/2-z
5 -x,-y,-z
6 1/2-x,1/2-y,-z
7 x,-y,1/2+z
8 1/2+x,1/2-y,1/2+z
_cell_length_a                   13.686(2)
_cell_length_b                   18.252(3)
_cell_length_c                   14.906(3)
_cell_angle_alpha                90
_cell_angle_beta                 101.070(3)
_cell_angle_gamma                90
_cell_volume                     3654.19
loop_
_atom_site_label
_atom_site_type_symbol
_atom_site_fract_x
_atom_site_fract_y
_atom_site_fract_z
N1 N 0.0379(4) 0.2732(3) 0.2994(4)
C17 C -0.0000 0.2006(3) 0.2500
C19 C -0.0000 0.3345(3) 0.2500
N1B N -0.0379(4) 0.2732(3) 0.2006(4)
N2 N 0.5437(4) 0.9935(3) -0.0261(4)
C18 C 0.5518(3) 0.98309(19) 0.0751(3)
N2D N 0.4563(4) 1.0065(3) 0.0261(4)
C18D C 0.4482(3) 1.01691(19) -0.0751(3)
Cd1 Cd 0.658770(14) -0.209530(10) 0.574560(13)
Cd2 Cd 0.5000 0.172517(15) 0.2500
O1 O 0.80129(16) -0.17870(10) 0.49927(14)
O2 O 0.65773(16) -0.12086(12) 0.46233(15)
O3 O 0.50311(15) 0.23507(12) -0.01324(15)
O4 O 0.48083(16) 0.15527(11) 0.09250(14)
O5 O 0.61999(16) 0.09049(12) 0.26465(15)
O6 O 0.72661(17) 0.11252(12) 0.17079(15)
O7 O 0.09896(15) 0.23726(11) -0.29086(14)
O8 O 0.25681(16) 0.23101(12) -0.30191(14)
C1 C 0.7480(2) -0.12874(15) 0.45668(19)
C2 C 0.7920(2) -0.07558(15) 0.3985(2)
C3 C 0.8931(2) -0.07555(16) 0.3980(2)
H1 H 0.9360 -0.1090 0.4355
C4 C 0.7305(2) -0.02523(15) 0.34480(19)
H2 H 0.6614 -0.0246 0.3461
C5 C 0.9318(2) -0.02659(18) 0.3426(2)
H3 H 1.0011 -0.0267 0.3421
C6 C 0.8693(2) 0.02260(17) 0.2880(2)
H4 H 0.8960 0.0554 0.2495
C7 C 0.7685(2) 0.02419(15) 0.28927(19)
C8 C 0.6999(2) 0.08083(15) 0.23579(19)
C9 C 0.4486(2) 0.19303(16) 0.0218(2)
C10 C 0.2757(2) 0.14253(16) 0.0155(2)
H5 H 0.2964 0.1232 0.0753
C11 C 0.3422(2) 0.18236(15) -0.02504(19)
C12 C 0.1791(2) 0.13091(17) -0.0312(2)
H6 H 0.1336 0.1043 -0.0028
C13 C 0.3114(2) 0.20885(14) -0.1128(2)
H7 H 0.3565 0.2363 -0.1406
C14 C 0.1483(2) 0.15783(16) -0.1192(2)
H8 H 0.0819 0.1504 -0.1508
C15 C 0.2162(2) 0.19608(15) -0.16076(19)
C16 C 0.1890(2) 0.22306(15) -0.25656(19)
Cd1B Cd 0.341230(14) -0.209530(10) -0.074560(13)
Cd1E Cd 0.841230(14) -0.290470(10) 0.425440(13)
Cd1F Cd 0.658770(14) 0.209530(10) 0.074560(13)
Cd1A Cd 0.158770(14) 0.290470(10) -0.425440(13)
Cd1D Cd 0.341230(14) 0.209530(10) 0.425440(13)
Cd1C Cd 0.841230(14) 0.290470(10) 0.925440(13)
Cd1G Cd 0.158770(14) -0.290470(10) 0.074560(13)
Cd2G Cd 0.0000 0.327483(15) -0.2500
Cd2G_2 Cd 1.0000 0.327483(15) 0.7500
O1B O 0.19871(16) -0.17870(10) 0.00073(14)
O1E O 0.69871(16) -0.32130(10) 0.50073(14)
O1G O 0.30129(16) -0.32130(10) -0.00073(14)
O2B O 0.34227(16) -0.12086(12) 0.03767(15)
O3B O 0.49689(15) 0.23507(12) 0.51324(15)
O3F O 0.50311(15) -0.23507(12) 0.48676(15)
O3D O 0.49689(15) -0.23507(12) 0.01324(15)
O4B O 0.51917(16) 0.15527(11) 0.40750(14)
O4F O 0.48083(16) -0.15527(11) 0.59250(14)
O4D O 0.51917(16) -0.15527(11) -0.09250(14)
O5B O 0.38001(16) 0.09049(12) 0.23535(15)
O6B O 0.27339(17) 0.11252(12) 0.32921(15)
O6F O 0.72661(17) -0.11252(12) 0.67079(15)
O6D O 0.27339(17) -0.11252(12) -0.17079(15)
O7B O 0.90104(15) 0.23726(11) 0.79086(14)
O7A O 0.59896(15) -0.26274(11) 0.70914(14)
O7G O 0.59896(15) 0.26274(11) 0.20914(14)
O7E O 0.40104(15) 0.26274(11) 0.29086(14)
O7C O 0.40104(15) -0.26274(11) -0.20914(14)
O8B O 0.74319(16) 0.23101(12) 0.80191(14)
O8A O 0.75681(16) -0.26899(12) 0.69809(14)
O8C O 0.24319(16) -0.26899(12) -0.19809(14)
C1B C 0.2520(2) -0.12874(15) 0.04332(19)
C2B C 0.2080(2) -0.07558(15) 0.1015(2)
C3B C 0.1069(2) -0.07555(16) 0.1020(2)
H1B H 0.0640 -0.1090 0.0645
C4B C 0.2695(2) -0.02523(15) 0.15520(19)
H2B H 0.3386 -0.0246 0.1539
C5B C 0.0682(2) -0.02659(18) 0.1574(2)
H3B H -0.0011 -0.0267 0.1579
C6B C 0.1307(2) 0.02260(17) 0.2120(2)
H4B H 0.1040 0.0554 0.2505
C7B C 0.2315(2) 0.02419(15) 0.21073(19)
C8B C 0.3001(2) 0.08083(15) 0.26421(19)
C9B C 0.5514(2) 0.19303(16) 0.4782(2)
C10B C 0.7243(2) 0.14253(16) 0.4845(2)
H5B H 0.7036 0.1232 0.4247
C11B C 0.6578(2) 0.18236(15) 0.52504(19)
C12B C 0.8209(2) 0.13091(17) 0.5312(2)
H6B H 0.8664 0.1043 0.5028
C13B C 0.6886(2) 0.20885(14) 0.6128(2)
H7B H 0.6435 0.2363 0.6406
C14B C 0.8517(2) 0.15783(16) 0.6192(2)
H8B H 0.9181 0.1504 0.6508
C15B C 0.7838(2) 0.19608(15) 0.66076(19)
C16B C 0.8110(2) 0.22306(15) 0.75656(19)
loop_
_geom_bond_atom_site_label_1
_geom_bond_atom_site_label_2
_geom_bond_site_symmetry_1
_geom_bond_site_symmetry_2
Cd1 O1 1_555 1_555
Cd2 O4 1_555 1_555
O1 C1 1_555 1_555
O2 Cd1 1_555 1_555
O3 C9 1_555 1_555
O4 C9 1_555 1_555
O5 Cd2 1_555 1_555
O6 C8 1_555 1_555
O7 C16 1_555 1_555
O8 C16 1_555 1_555
C1 O2 1_555 1_555
C2 C1 1_555 1_555
C3 C2 1_555 1_555
H1 C3 1_555 1_555
C4 C2 1_555 1_555
H2 C4 1_555 1_555
C5 C3 1_555 1_555
H3 C5 1_555 1_555
C6 C5 1_555 1_555
H4 C6 1_555 1_555
C7 C4 1_555 1_555
C8 O5 1_555 1_555
C9 C11 1_555 1_555
C10 H5 1_555 1_555
C11 C10 1_555 1_555
C12 C10 1_555 1_555
H6 C12 1_555 1_555
C13 C11 1_555 1_555
H7 C13 1_555 1_555
C14 C12 1_555 1_555
H8 C14 1_555 1_555
C15 C13 1_555 1_555
C16 C15 1_555 1_555
N1 C17 1_555 1_555
N2 C18 1_555 1_555
C17 N1B 1_555 1_555
C18 N2D 1_555 1_555
C19 N1 1_555 1_555
Cd1B O1B 1_555 1_555
Cd1E O1 1_555 1_555
Cd1F O3 1_555 1_555
Cd1A O7 1_555 1_555
Cd1D O3B 1_555 1_555
Cd1C O7B 1_555 1_555
Cd1G O1B 1_555 1_555
Cd2G O7 1_555 1_555
Cd2G_2 O7B 1_555 1_555
O1B C1B 1_555 1_555
O1E Cd1 1_555 1_555
O1G Cd1B 1_555 1_555
O2B Cd1B 1_555 1_555
O3B C9B 1_555 1_555
O3F Cd1 1_555 1_555
O3D Cd1B 1_555 1_555
O4B Cd2 1_555 1_555
O4F Cd1 1_555 1_555
O4D Cd1B 1_555 1_555
O5B Cd2 1_555 1_555
O6B Cd1D 1_555 1_555
O6F Cd1 1_555 1_555
O6D Cd1B 1_555 1_555
O7B C16B 1_555 1_555
O7A Cd1 1_555 1_555
O7G Cd2 1_555 1_555
O7E Cd2 1_555 1_555
O7C Cd1B 1_555 1_555
O8B Cd1C 1_555 1_555
O8A Cd1 1_555 1_555
O8C Cd1B 1_555 1_555
C1B O2B 1_555 1_555
C2B C1B 1_555 1_555
C3B C2B 1_555 1_555
H1B C3B 1_555 1_555
C4B C2B 1_555 1_555
H2B C4B 1_555 1_555
C5B C3B 1_555 1_555
H3B C5B 1_555 1_555
C6B C5B 1_555 1_555
H4B C6B 1_555 1_555
C7B C4B 1_555 1_555
C8B O5B 1_555 1_555
C9B O4B 1_555 1_555
C10B H5B 1_555 1_555
C11B C9B 1_555 1_555
C12B C10B 1_555 1_555
H6B C12B 1_555 1_555
C13B C11B 1_555 1_555
H7B C13B 1_555 1_555
C14B C12B 1_555 1_555
H8B C14B 1_555 1_555
C15B C13B 1_555 1_555
C16B O8B 1_555 1_555
N1B C19 1_555 1_555
N2D C18D 1_555 1_555
C18D N2 1_555 1_555
O4 Cd1F 1_555 1_555
O6 Cd1F 1_555 1_555
O8 Cd1A 1_555 1_555
C6 C7 1_555 1_555
C7 C8 1_555 1_555
C14 C15 1_555 1_555
Cd1E O1E 1_555 1_555
Cd1F O7G 1_555 1_555
Cd1D O4B 1_555 1_555
Cd1D O7E 1_555 1_555
Cd1G O1G 1_555 1_555
O6B C8B 1_555 1_555
C6B C7B 1_555 1_555
C7B C8B 1_555 1_555
C10B C11B 1_555 1_555
C14B C15B 1_555 1_555
C15B C16B 1_555 1_555

#END
