
#######################################################################
#
#                 Cambridge Crystallographic Data Centre
#                                CCDC 
#
#######################################################################
#
# If this CIF has been generated from an entry in the Cambridge 
# Structural Database, then it will include bibliographic, chemical, 
# crystal, experimental, refinement or atomic coordinate data resulting 
# from the CCDC's data processing and validation procedures.
#
#######################################################################

data_GIVNOQ
_chemical_formula_moiety         '(C64 H36 Ag2 F6 N12 Sb1 Zn2 1+)n'
_symmetry_cell_setting           monoclinic
_symmetry_space_group_name_H-M   'C 2/c'
_symmetry_Int_Tables_number      15
_space_group_name_Hall           '-C 2yc'
loop_
_symmetry_equiv_pos_site_id
_symmetry_equiv_pos_as_xyz
1 x,y,z
2 -x,y,1/2-z
3 1/2+x,1/2+y,z
4 1/2-x,1/2+y,1/2-z
5 -x,-y,-z
6 x,-y,1/2+z
7 1/2-x,1/2-y,-z
8 1/2+x,1/2-y,1/2+z
_cell_length_a                   34.607(2)
_cell_length_b                   12.8631(8)
_cell_length_c                   23.8751(14)
_cell_angle_alpha                90
_cell_angle_beta                 114.026(2)
_cell_angle_gamma                90
_cell_volume                     9707.27
loop_
_atom_site_label
_atom_site_type_symbol
_atom_site_fract_x
_atom_site_fract_y
_atom_site_fract_z
_atom_site_U_iso_or_equiv
_atom_site_thermal_displace_type
C1 C 0.0816(2) 0.9505(6) 0.7797(3) 0.0509 Uani
H1 H 0.0752 0.9335 0.7390 0.0610 Uiso
C2 C 0.1210(2) 0.9332(6) 0.8303(3) 0.0645 Uani
H2 H 0.1451 0.9046 0.8284 0.0780 Uiso
C3 C 0.11704(19) 0.9650(5) 0.8803(3) 0.0490 Uani
H3 H 0.1379 0.9616 0.9200 0.0590 Uiso
C4 C 0.07639(18) 1.0046(4) 0.8635(2) 0.0392 Uani
C5 C 0.05852(18) 1.0488(4) 0.9026(2) 0.0369 Uani
C6 C 0.01967(16) 1.0964(5) 0.8837(2) 0.0379 Uani
C7 C -0.0036(2) 1.1232(5) 0.9209(3) 0.0464 Uani
H4 H 0.0052 1.1104 0.9626 0.0560 Uiso
C8 C -0.04018(18) 1.1699(5) 0.8840(3) 0.0454 Uani
H5 H -0.0610 1.1952 0.8957 0.0540 Uiso
C9 C -0.04086(17) 1.1731(5) 0.8245(3) 0.0416 Uani
C10 C 0.08299(18) 1.0326(5) 0.9698(2) 0.0427 Uani
C11 C 0.0949(2) 0.9342(6) 0.9934(3) 0.0514 Uani
C12 C 0.1143(2) 0.9239(6) 1.0566(3) 0.0535 Uani
C13 C 0.12304(19) 1.0055(5) 1.0955(3) 0.0488 Uani
C14 C 0.1126(2) 1.1076(6) 1.0716(3) 0.0603 Uani
C15 C 0.0908(2) 1.1189(6) 1.0078(3) 0.0497 Uani
C16 C 0.1409(2) 0.9900(8) 1.1610(3) 0.0723 Uani
C17 C -0.07196(16) 1.2207(5) 0.7689(2) 0.0376 Uani
C18 C -0.11480(17) 1.2405(5) 0.7516(2) 0.0444 Uani
H6 H -0.1305 1.2255 0.7742 0.0530 Uiso
C19 C -0.12945(16) 1.2863(5) 0.6948(2) 0.0430 Uani
H7 H -0.1571 1.3074 0.6713 0.0510 Uiso
C20 C -0.09372(16) 1.2953(6) 0.6788(2) 0.0458 Uani
C21 C -0.09165(18) 1.3375(4) 0.6261(2) 0.0386 Uani
C22 C -0.05728(17) 1.3732(5) 0.6199(3) 0.0420 Uani
C23 C -0.05252(19) 1.4065(5) 0.5655(3) 0.0470 Uani
H8 H -0.0746 1.4125 0.5269 0.0560 Uiso
C24 C -0.0103(2) 1.4286(6) 0.5784(4) 0.0690 Uani
H9 H 0.0017 1.4467 0.5513 0.0830 Uiso
C25 C 0.0103(2) 1.4168(5) 0.6438(3) 0.0463 Uani
H10 H 0.0386 1.4323 0.6669 0.0560 Uiso
C26 C -0.13373(16) 1.3520(5) 0.5736(2) 0.0436 Uani
C27 C -0.15892(18) 1.2635(6) 0.5484(3) 0.0507 Uani
H11 H -0.1491 1.1980 0.5644 0.0600 Uiso
C28 C -0.19911(19) 1.2739(6) 0.4988(2) 0.0519 Uani
H12 H -0.2169 1.2170 0.4839 0.0620 Uiso
C29 C -0.21046(18) 1.3684(6) 0.4744(3) 0.0531 Uani
C30 C -0.1868(2) 1.4589(7) 0.4960(3) 0.0725 Uani
H13 H -0.1962 1.5235 0.4782 0.0870 Uiso
C31 C -0.1473(2) 1.4454(6) 0.5472(3) 0.0571 Uani
H14 H -0.1302 1.5033 0.5631 0.0680 Uiso
C32 C -0.2518(2) 1.3826(7) 0.4224(3) 0.0594 Uani
N1 N 0.05512(16) 0.9961(4) 0.8011(2) 0.0462 Uani
N2 N -0.00574(13) 1.1249(4) 0.82387(17) 0.0365 Uani
N3 N 0.1544(2) 0.9804(6) 1.2122(2) 0.0709 Uani
N4 N -0.05756(13) 1.2547(4) 0.72681(19) 0.0390 Uani
N5 N -0.01623(15) 1.3805(4) 0.6675(2) 0.0441 Uani
N6 N -0.28428(19) 1.3961(7) 0.3848(3) 0.0832 Uani
Zn1 Zn -0.0000 1.06686(8) 0.7500 0.0411 Uani
Zn2 Zn -0.0000 1.31425(8) 0.7500 0.0402 Uani
Ag1 Ag 0.152998(15) 1.08615(5) 0.80434(2) 0.0600 Uani
C1A C -0.0816(2) 0.9505(6) 0.7203(3) 0.0509 Uani
H1A H -0.0752 0.9335 0.7610 0.0610 Uiso
C2A C -0.1210(2) 0.9332(6) 0.6697(3) 0.0645 Uani
H2A H -0.1451 0.9046 0.6716 0.0780 Uiso
C3A C -0.11704(19) 0.9650(5) 0.6197(3) 0.0490 Uani
H3A H -0.1379 0.9616 0.5800 0.0590 Uiso
C4A C -0.07639(18) 1.0046(4) 0.6365(2) 0.0392 Uani
C5A C -0.05852(18) 1.0488(4) 0.5974(2) 0.0369 Uani
C6A C -0.01967(16) 1.0964(5) 0.6163(2) 0.0379 Uani
C7A C 0.0036(2) 1.1232(5) 0.5791(3) 0.0464 Uani
H4A H -0.0052 1.1104 0.5374 0.0560 Uiso
C8A C 0.04018(18) 1.1699(5) 0.6160(3) 0.0454 Uani
H5A H 0.0610 1.1952 0.6043 0.0540 Uiso
C9A C 0.04086(17) 1.1731(5) 0.6755(3) 0.0416 Uani
C10A C -0.08299(18) 1.0326(5) 0.5302(2) 0.0427 Uani
C11A C -0.0949(2) 0.9342(6) 0.5066(3) 0.0514 Uani
C12A C -0.1143(2) 0.9239(6) 0.4434(3) 0.0535 Uani
C13A C -0.12304(19) 1.0055(5) 0.4045(3) 0.0488 Uani
C14A C -0.1126(2) 1.1076(6) 0.4284(3) 0.0603 Uani
C15A C -0.0908(2) 1.1189(6) 0.4922(3) 0.0497 Uani
C16A C -0.1409(2) 0.9900(8) 0.3390(3) 0.0723 Uani
C17A C 0.07196(16) 1.2207(5) 0.7311(2) 0.0376 Uani
C18A C 0.11480(17) 1.2405(5) 0.7484(2) 0.0444 Uani
H6A H 0.1305 1.2255 0.7258 0.0530 Uiso
C19A C 0.12945(16) 1.2863(5) 0.8052(2) 0.0430 Uani
H7A H 0.1571 1.3074 0.8287 0.0510 Uiso
C20A C 0.09372(16) 1.2953(6) 0.8212(2) 0.0458 Uani
C21A C 0.09165(18) 1.3375(4) 0.8739(2) 0.0386 Uani
C22A C 0.05728(17) 1.3732(5) 0.8801(3) 0.0420 Uani
C23A C 0.05252(19) 1.4065(5) 0.9345(3) 0.0470 Uani
H8A H 0.0746 1.4125 0.9731 0.0560 Uiso
C24A C 0.0103(2) 1.4286(6) 0.9216(4) 0.0690 Uani
H9A H -0.0017 1.4467 0.9487 0.0830 Uiso
C25A C -0.0103(2) 1.4168(5) 0.8562(3) 0.0463 Uani
H10A H -0.0386 1.4323 0.8331 0.0560 Uiso
C26A C 0.13373(16) 1.3520(5) 0.9264(2) 0.0436 Uani
C27A C 0.15892(18) 1.2635(6) 0.9516(3) 0.0507 Uani
H11A H 0.1491 1.1980 0.9356 0.0600 Uiso
C28A C 0.19911(19) 1.2739(6) 1.0012(2) 0.0519 Uani
H12A H 0.2169 1.2170 1.0161 0.0620 Uiso
C29A C 0.21046(18) 1.3684(6) 1.0256(3) 0.0531 Uani
C30A C 0.1868(2) 1.4589(7) 1.0040(3) 0.0725 Uani
H13A H 0.1962 1.5235 1.0218 0.0870 Uiso
C31A C 0.1473(2) 1.4454(6) 0.9528(3) 0.0571 Uani
H14A H 0.1302 1.5033 0.9369 0.0680 Uiso
C32A C 0.2518(2) 1.3826(7) 1.0776(3) 0.0594 Uani
N1A N -0.05512(16) 0.9961(4) 0.6989(2) 0.0462 Uani
N2A N 0.00574(13) 1.1249(4) 0.67613(17) 0.0365 Uani
N3A N -0.1544(2) 0.9804(6) 0.2878(2) 0.0709 Uani
N4A N 0.05756(13) 1.2547(4) 0.77319(19) 0.0390 Uani
N5A N 0.01623(15) 1.3805(4) 0.8325(2) 0.0441 Uani
N6A N 0.28428(19) 1.3961(7) 1.1152(3) 0.0832 Uani
Ag1A Ag -0.152998(15) 1.08615(5) 0.69566(2) 0.0600 Uani
N3D N -0.1544(2) 1.0196(6) 0.7878(2) 0.0709 Uani
N3E N 0.1544(2) 1.0196(6) 0.7122(2) 0.0709 Uani
N6F N -0.21572(19) 1.1039(7) 0.6152(3) 0.0832 Uani
N6G N 0.21572(19) 1.1039(7) 0.8848(3) 0.0832 Uani
Ag1D Ag -0.152998(15) 0.91385(5) 0.19566(2) 0.0600 Uani
Ag1E Ag 0.152998(15) 0.91385(5) 1.30434(2) 0.0600 Uani
Ag1F Ag 0.347002(15) 1.41385(5) 1.19566(2) 0.0600 Uani
Ag1G Ag -0.347002(15) 1.41385(5) 0.30434(2) 0.0600 Uani
F1 F 0.1549(2) 0.2777(5) 0.6497(3) 0.1045 Uani
F2 F 0.0902(2) 0.3924(8) 0.6107(4) 0.1525 Uani
F3 F 0.13466(19) 0.3665(5) 0.5423(3) 0.1045 Uani
F4 F 0.13058(19) 0.5543(5) 0.5978(6) 0.2096 Uani
F5 F 0.19896(17) 0.4407(5) 0.6292(3) 0.1043 Uani
F6 F 0.1544(3) 0.4636(5) 0.6987(3) 0.1266 Uani
Sb1 Sb 0.144473(19) 0.41537(5) 0.61960(3) 0.0736 Uani
loop_
_atom_site_aniso_label
_atom_site_aniso_U_11
_atom_site_aniso_U_22
_atom_site_aniso_U_33
_atom_site_aniso_U_23
_atom_site_aniso_U_13
_atom_site_aniso_U_12
C1 0.056(4) 0.066(4) 0.027(3) 0.002(3) 0.013(3) 0.008(3)
C2 0.043(4) 0.087(5) 0.049(4) 0.006(4) 0.004(3) 0.022(4)
C3 0.030(3) 0.067(4) 0.035(3) -0.006(3) -0.002(2) -0.002(3)
C4 0.039(3) 0.048(3) 0.024(2) 0.008(2) 0.006(2) -0.002(3)
C5 0.035(3) 0.039(3) 0.028(3) 0.004(2) 0.004(2) -0.001(2)
C6 0.024(2) 0.072(4) 0.011(2) 0.006(2) 0.0004(18) 0.005(2)
C7 0.048(4) 0.065(4) 0.022(3) 0.000(3) 0.010(2) -0.010(3)
C8 0.033(3) 0.072(4) 0.027(3) -0.008(3) 0.008(2) -0.012(3)
C9 0.028(3) 0.058(4) 0.031(3) 0.013(3) 0.004(2) -0.003(3)
C10 0.034(3) 0.069(4) 0.016(2) 0.008(2) 0.001(2) -0.005(3)
C11 0.037(3) 0.089(5) 0.024(3) 0.004(3) 0.008(2) 0.007(3)
C12 0.037(3) 0.088(5) 0.026(3) 0.008(3) 0.003(2) -0.005(3)
C13 0.033(3) 0.071(4) 0.038(3) 0.023(3) 0.010(2) 0.018(3)
C14 0.060(4) 0.094(6) 0.019(3) 0.002(3) 0.008(3) -0.014(4)
C15 0.046(4) 0.074(4) 0.024(3) 0.003(3) 0.009(2) -0.004(3)
C16 0.040(4) 0.129(7) 0.031(3) 0.018(4) -0.003(3) -0.006(4)
C17 0.026(3) 0.062(4) 0.014(2) 0.001(2) -0.0028(18) -0.005(2)
C18 0.028(3) 0.079(4) 0.023(2) 0.008(3) 0.007(2) 0.012(3)
C19 0.020(2) 0.065(4) 0.024(2) 0.006(2) -0.0115(19) 0.008(2)
C20 0.018(2) 0.088(5) 0.019(2) 0.001(3) -0.0052(18) -0.002(3)
C21 0.038(3) 0.046(3) 0.025(2) 0.005(2) 0.006(2) 0.010(2)
C22 0.025(3) 0.059(4) 0.031(3) -0.001(3) 0.000(2) 0.000(3)
C23 0.034(3) 0.057(4) 0.036(3) 0.007(3) 0.000(2) -0.004(3)
C24 0.044(4) 0.088(6) 0.061(5) 0.032(4) 0.007(3) 0.004(4)
C25 0.032(3) 0.059(4) 0.042(3) 0.001(3) 0.009(3) -0.003(3)
C26 0.019(2) 0.079(4) 0.023(2) 0.007(3) -0.0015(19) -0.003(3)
C27 0.029(3) 0.081(5) 0.041(3) -0.004(3) 0.013(2) -0.013(3)
C28 0.034(3) 0.086(5) 0.021(3) 0.006(3) -0.004(2) -0.008(3)
C29 0.025(3) 0.086(5) 0.028(3) 0.015(3) -0.010(2) 0.002(3)
C30 0.031(3) 0.116(6) 0.048(4) 0.049(4) -0.007(3) 0.010(4)
C31 0.036(3) 0.059(4) 0.047(4) -0.001(3) -0.013(3) -0.002(3)
C32 0.037(3) 0.099(6) 0.030(3) 0.021(3) 0.001(2) 0.006(3)
N1 0.041(3) 0.067(3) 0.021(2) -0.001(2) 0.0027(19) -0.001(2)
N2 0.022(2) 0.065(3) 0.0118(17) 0.0046(19) -0.0040(15) -0.004(2)
N3 0.062(4) 0.120(6) 0.021(3) 0.018(3) 0.007(2) 0.009(4)
N4 0.019(2) 0.064(3) 0.022(2) 0.009(2) -0.0039(16) -0.004(2)
N5 0.027(2) 0.065(3) 0.025(2) 0.003(2) -0.0052(18) 0.004(2)
N6 0.038(3) 0.148(7) 0.033(3) 0.024(4) -0.017(2) -0.016(4)
Zn1 0.0298(5) 0.0700(7) 0.0150(4) 0.000 0.0005(3) 0.000
Zn2 0.0208(4) 0.0668(6) 0.0210(4) 0.000 -0.0039(3) 0.000
Ag1 0.0316(3) 0.1112(5) 0.0229(2) -0.0112(2) -0.00356(17) 0.0043(3)
C1A 0.056 0.066 0.027 -0.002 0.013 -0.008
C2A 0.043 0.087 0.049 -0.006 0.004 -0.022
C3A 0.03 0.067 0.035 0.006 -0.002 0.002
C4A 0.039 0.048 0.024 -0.008 0.006 0.002
C5A 0.035 0.039 0.028 -0.004 0.004 0.001
C6A 0.024 0.072 0.011 -0.006 0.0004 -0.005
C7A 0.048 0.065 0.022 0 0.01 0.01
C8A 0.033 0.072 0.027 0.008 0.008 0.012
C9A 0.028 0.058 0.031 -0.013 0.004 0.003
C10A 0.034 0.069 0.016 -0.008 0.001 0.005
C11A 0.037 0.089 0.024 -0.004 0.008 -0.007
C12A 0.037 0.088 0.026 -0.008 0.003 0.005
C13A 0.033 0.071 0.038 -0.023 0.01 -0.018
C14A 0.06 0.094 0.019 -0.002 0.008 0.014
C15A 0.046 0.074 0.024 -0.003 0.009 0.004
C16A 0.04 0.129 0.031 -0.018 -0.003 0.006
C17A 0.026 0.062 0.014 -0.001 -0.0028 0.005
C18A 0.028 0.079 0.023 -0.008 0.007 -0.012
C19A 0.02 0.065 0.024 -0.006 -0.0115 -0.008
C20A 0.018 0.088 0.019 -0.001 -0.0052 0.002
C21A 0.038 0.046 0.025 -0.005 0.006 -0.01
C22A 0.025 0.059 0.031 0.001 0 0
C23A 0.034 0.057 0.036 -0.007 0 0.004
C24A 0.044 0.088 0.061 -0.032 0.007 -0.004
C25A 0.032 0.059 0.042 -0.001 0.009 0.003
C26A 0.019 0.079 0.023 -0.007 -0.0015 0.003
C27A 0.029 0.081 0.041 0.004 0.013 0.013
C28A 0.034 0.086 0.021 -0.006 -0.004 0.008
C29A 0.025 0.086 0.028 -0.015 -0.01 -0.002
C30A 0.031 0.116 0.048 -0.049 -0.007 -0.01
C31A 0.036 0.059 0.047 0.001 -0.013 0.002
C32A 0.037 0.099 0.03 -0.021 0.001 -0.006
N1A 0.041 0.067 0.021 0.001 0.0027 0.001
N2A 0.022 0.065 0.0118 -0.0046 -0.004 0.004
N3A 0.062 0.12 0.021 -0.018 0.007 -0.009
N4A 0.019 0.064 0.022 -0.009 -0.0039 0.004
N5A 0.027 0.065 0.025 -0.003 -0.0052 -0.004
N6A 0.038 0.148 0.033 -0.024 -0.017 0.016
Ag1A 0.0316 0.1112 0.0229 0.0112 -0.00356 -0.0043
N3D 0.062 0.12 0.021 0.018 0.007 0.009
N3E 0.062 0.12 0.021 -0.018 0.007 -0.009
N6F 0.038 0.148 0.033 0.024 -0.017 -0.016
N6G 0.038 0.148 0.033 -0.024 -0.017 0.016
Ag1D 0.0316 0.1112 0.0229 -0.0112 -0.00356 0.0043
Ag1E 0.0316 0.1112 0.0229 0.0112 -0.00356 -0.0043
Ag1F 0.0316 0.1112 0.0229 -0.0112 -0.00356 0.0043
Ag1G 0.0316 0.1112 0.0229 0.0112 -0.00356 -0.0043
F1 0.129(5) 0.119(4) 0.087(4) 0.003(3) 0.066(4) -0.009(4)
F2 0.084(5) 0.259(10) 0.123(6) -0.004(6) 0.051(4) -0.050(5)
F3 0.089(4) 0.146(5) 0.072(3) -0.026(3) 0.026(3) -0.048(4)
F4 0.042(3) 0.097(4) 0.418(17) 0.077(7) 0.020(6) 0.017(3)
F5 0.069(3) 0.151(5) 0.079(4) 0.026(3) 0.016(3) -0.024(3)
F6 0.209(8) 0.115(4) 0.068(4) -0.003(3) 0.069(5) 0.017(5)
Sb1 0.0610(4) 0.1000(5) 0.0574(3) 0.0027(3) 0.0215(3) -0.0092(3)
loop_
_geom_bond_atom_site_label_1
_geom_bond_atom_site_label_2
_geom_bond_site_symmetry_1
_geom_bond_site_symmetry_2
C1 H1 1_555 1_555
C2 C1 1_555 1_555
H2 C2 1_555 1_555
C3 C2 1_555 1_555
H3 C3 1_555 1_555
C4 C3 1_555 1_555
C5 C4 1_555 1_555
C6 C5 1_555 1_555
C7 C6 1_555 1_555
H4 C7 1_555 1_555
C8 C7 1_555 1_555
H5 C8 1_555 1_555
C9 C8 1_555 1_555
C10 C5 1_555 1_555
C11 C10 1_555 1_555
C12 C11 1_555 1_555
C13 C12 1_555 1_555
C14 C13 1_555 1_555
C15 C10 1_555 1_555
C16 C13 1_555 1_555
C17 C9 1_555 1_555
C18 C17 1_555 1_555
H6 C18 1_555 1_555
C19 C18 1_555 1_555
H7 C19 1_555 1_555
C20 C19 1_555 1_555
C21 C20 1_555 1_555
C22 C21 1_555 1_555
C23 C22 1_555 1_555
H8 C23 1_555 1_555
C24 C23 1_555 1_555
H9 C24 1_555 1_555
C25 C24 1_555 1_555
H10 C25 1_555 1_555
C26 C21 1_555 1_555
C27 C26 1_555 1_555
H11 C27 1_555 1_555
C28 C27 1_555 1_555
H12 C28 1_555 1_555
C29 C28 1_555 1_555
C30 C29 1_555 1_555
H13 C30 1_555 1_555
C31 C26 1_555 1_555
H14 C31 1_555 1_555
C32 C29 1_555 1_555
N1 C1 1_555 1_555
N2 C6 1_555 1_555
N3 C16 1_555 1_555
N4 C17 1_555 1_555
N5 C22 1_555 1_555
N6 C32 1_555 1_555
Zn1 N1 1_555 1_555
Zn2 N4 1_555 1_555
Ag1 C2 1_555 1_555
F1 Sb1 1_555 1_555
F2 Sb1 1_555 1_555
F3 Sb1 1_555 1_555
F4 Sb1 1_555 1_555
F5 Sb1 1_555 1_555
F6 Sb1 1_555 1_555
C1A H1A 1_555 1_555
C2A C1A 1_555 1_555
H2A C2A 1_555 1_555
C3A C2A 1_555 1_555
H3A C3A 1_555 1_555
C4A C3A 1_555 1_555
C5A C4A 1_555 1_555
C6A C5A 1_555 1_555
C7A C6A 1_555 1_555
H4A C7A 1_555 1_555
C8A C7A 1_555 1_555
H5A C8A 1_555 1_555
C9A C8A 1_555 1_555
C10A C5A 1_555 1_555
C11A C10A 1_555 1_555
C12A C11A 1_555 1_555
C13A C12A 1_555 1_555
C14A C13A 1_555 1_555
C15A C10A 1_555 1_555
C16A C13A 1_555 1_555
C17A C9A 1_555 1_555
C18A Ag1 1_555 1_555
H6A C18A 1_555 1_555
C19A Ag1 1_555 1_555
H7A C19A 1_555 1_555
C20A C19A 1_555 1_555
C21A C20A 1_555 1_555
C22A C21A 1_555 1_555
C23A C22A 1_555 1_555
H8A C23A 1_555 1_555
C24A C23A 1_555 1_555
H9A C24A 1_555 1_555
C25A C24A 1_555 1_555
H10A C25A 1_555 1_555
C26A C21A 1_555 1_555
C27A C26A 1_555 1_555
H11A C27A 1_555 1_555
C28A C27A 1_555 1_555
H12A C28A 1_555 1_555
C29A C28A 1_555 1_555
C30A C29A 1_555 1_555
H13A C30A 1_555 1_555
C31A C26A 1_555 1_555
H14A C31A 1_555 1_555
C32A C29A 1_555 1_555
N1A Zn1 1_555 1_555
N2A Zn1 1_555 1_555
N3A C16A 1_555 1_555
N4A Zn2 1_555 1_555
N5A Zn2 1_555 1_555
N6A C32A 1_555 1_555
Ag1A C18 1_555 1_555
N3D Ag1A 1_555 1_555
N3E Ag1 1_555 1_555
N6F Ag1A 1_555 1_555
N6G Ag1 1_555 1_555
Ag1D N3A 1_555 1_555
Ag1E N3 1_555 1_555
Ag1F N6A 1_555 1_555
Ag1G N6 1_555 1_555
C4 N1 1_555 1_555
C9 N2 1_555 1_555
C14 C15 1_555 1_555
C19 Ag1A 1_555 1_555
C20 N4 1_555 1_555
C25 N5 1_555 1_555
C30 C31 1_555 1_555
N2 Zn1 1_555 1_555
N5 Zn2 1_555 1_555
C1A N1A 1_555 1_555
C2A Ag1A 1_555 1_555
C4A N1A 1_555 1_555
C6A N2A 1_555 1_555
C9A N2A 1_555 1_555
C14A C15A 1_555 1_555
C17A C18A 1_555 1_555
C17A N4A 1_555 1_555
C18A C19A 1_555 1_555
C20A N4A 1_555 1_555
C22A N5A 1_555 1_555
C25A N5A 1_555 1_555
C30A C31A 1_555 1_555

#END
