
#######################################################################
#
#                 Cambridge Crystallographic Data Centre
#                                CCDC 
#
#######################################################################
#
# If this CIF has been generated from an entry in the Cambridge 
# Structural Database, then it will include bibliographic, chemical, 
# crystal, experimental, refinement or atomic coordinate data resulting 
# from the CCDC's data processing and validation procedures.
#
#######################################################################

data_JIWKUW
_chemical_formula_moiety         '(C68 H130 N8 Na4 O67 Tb4)n'
_symmetry_cell_setting           triclinic
_symmetry_space_group_name_H-M   'P -1'
_symmetry_Int_Tables_number      2
_space_group_name_Hall           '-P 1'
loop_
_symmetry_equiv_pos_site_id
_symmetry_equiv_pos_as_xyz
1 x,y,z
2 -x,-y,-z
_cell_length_a                   16.875(1)
_cell_length_b                   17.3103(11)
_cell_length_c                   20.2441(13)
_cell_angle_alpha                99.182(2)
_cell_angle_beta                 97.809(2)
_cell_angle_gamma                108.543(2)
_cell_volume                     5423.56
loop_
_atom_site_label
_atom_site_type_symbol
_atom_site_fract_x
_atom_site_fract_y
_atom_site_fract_z
Tb1 Tb -0.16639(2) -0.62106(2) 0.099340(17)
Tb2 Tb -0.25902(2) -0.57857(2) 0.256710(18)
C1 C -0.2199(5) -0.7518(4) 0.2000(4)
O1 O -0.1445(3) 0.1501(3) 0.7894(3)
O2 O -0.1836(3) -0.1769(3) 0.5303(3)
O3 O -0.1628(4) -0.0449(4) 0.8267(3)
N1 N -0.3534(4) -0.2113(4) 0.5155(3)
O4 O -0.3899(3) -0.2807(3) 0.6257(3)
O5 O -0.2105(3) -0.6727(3) 0.1930(2)
C2 C -0.1547(5) -0.7822(5) 0.1976(3)
C3 C -0.1652(5) -0.8627(5) 0.2089(4)
H1 H -0.1181 -0.8816 0.2098
C4 C -0.2413(5) -0.9152(5) 0.2186(4)
C5 C -0.3074(5) -0.8839(5) 0.2174(4)
H2 H -0.3609 -0.9185 0.2237
C6 C -0.2996(5) -0.8045(4) 0.2075(4)
C7 C -0.2531(6) -0.9995(5) 0.2312(5)
H3 H -0.2491 -1.0355 0.1902
H4 H -0.3093 -1.0229 0.2426
H5 H -0.2086 -0.9959 0.2694
C8 C -0.0670(5) -0.7278(5) 0.1917(4)
H6 H -0.0458 -0.6783 0.2299
H7 H -0.0276 -0.7594 0.1963
N2 N -0.0650(4) -0.6991(4) 0.1258(3)
C9 C -0.0825(5) -0.7678(5) 0.0674(4)
H8 H -0.1352 -0.8137 0.0681
H9 H -0.0348 -0.7896 0.0698
C10 C -0.0931(5) -0.7364(5) 0.0019(4)
O6 O -0.1127(3) -0.6721(3) 0.0056(3)
O7 O -0.0817(4) -0.7762(4) -0.0504(3)
C11 C 0.0220(5) -0.6389(5) 0.1332(4)
H10 H 0.0339 -0.6326 0.0874
H11 H 0.0639 -0.6606 0.1554
C12 C 0.0323(5) -0.5547(5) 0.1752(4)
O8 O -0.0336(3) -0.5346(3) 0.1707(3)
O9 O 0.1051(4) -0.5112(4) 0.2087(4)
C13 C -0.3766(5) -0.7779(4) 0.2018(4)
H12 H -0.3813 -0.7545 0.1606
H13 H -0.4284 -0.8277 0.1960
N3 N -0.3735(4) -0.7142(4) 0.2629(3)
C14 C -0.3529(5) -0.7411(5) 0.3271(4)
H14 H -0.3733 -0.8028 0.3179
H15 H -0.3837 -0.7218 0.3608
C15 C -0.2601(6) -0.7081(5) 0.3570(4)
O10 O -0.2143(4) -0.6398(3) 0.3431(3)
O11 O -0.2309(5) -0.7463(4) 0.3947(4)
C16 C -0.4567(5) -0.7023(5) 0.2547(5)
H16 H -0.4656 -0.6793 0.3000
H17 H -0.5027 -0.7570 0.2361
C17 C -0.4623(6) -0.6439(6) 0.2077(5)
O12 O -0.3942(4) -0.5970(3) 0.1960(3)
O13 O -0.5335(5) -0.6436(6) 0.1840(6)
C18 C -0.2773(5) -0.4961(5) 0.1234(4)
O14 O -0.2378(3) -0.5431(3) 0.1514(3)
C19 C -0.2648(5) -0.4152(5) 0.1580(4)
C20 C -0.3056(6) -0.3683(6) 0.1272(5)
H18 H -0.2968 -0.3132 0.1507
C21 C -0.3586(6) -0.3988(7) 0.0633(6)
C22 C -0.3723(6) -0.4782(6) 0.0314(5)
H19 H -0.4104 -0.5003 -0.0117
C23 C -0.3327(5) -0.5295(5) 0.0591(4)
C24 C -0.4031(8) -0.3455(8) 0.0316(7)
H20 H -0.3614 -0.3017 0.0163
H21 H -0.4285 -0.3198 0.0657
H22 H -0.4480 -0.3806 -0.0075
C25 C -0.2045(5) -0.3793(5) 0.2259(4)
H23 H -0.1484 -0.3836 0.2210
H24 H -0.1964 -0.3193 0.2396
N4 N -0.2348(4) -0.4218(4) 0.2811(3)
C26 C -0.3135(6) -0.4118(5) 0.2967(5)
H25 H -0.3557 -0.4245 0.2538
H26 H -0.3016 -0.3533 0.3201
C27 C -0.3490(6) -0.4695(5) 0.3417(5)
O15 O -0.3233(4) -0.5312(3) 0.3446(3)
O16 O -0.4042(5) -0.4568(4) 0.3740(4)
C28 C -0.1669(5) -0.3831(5) 0.3412(4)
H27 H -0.1902 -0.3931 0.3826
H28 H -0.1441 -0.3220 0.3446
C29 C -0.0943(6) -0.4184(5) 0.3378(4)
O17 O -0.1163(4) -0.4934(3) 0.3053(3)
O18 O -0.0219(4) -0.3735(4) 0.3685(3)
C30 C -0.3498(6) -0.6155(6) 0.0234(5)
H29 H -0.3997 -0.6317 -0.0144
H30 H -0.3653 -0.6528 0.0555
N5 N -0.2763(4) -0.6292(4) -0.0053(3)
C31 C -0.2395(6) -0.5660(6) -0.0426(4)
H31 H -0.2851 -0.5480 -0.0640
H32 H -0.2167 -0.5909 -0.0797
C32 C -0.1684(6) -0.4898(6) 0.0022(5)
O19 O -0.1245(4) -0.5026(4) 0.0526(3)
O20 O -0.1543(5) -0.4207(4) -0.0142(4)
C33 C -0.3053(6) -0.7151(6) -0.0479(4)
H33 H -0.2655 -0.7182 -0.0791
H34 H -0.3624 -0.7277 -0.0761
C34 C -0.3096(5) -0.7785(6) -0.0056(4)
O21 O -0.2680(4) -0.7554(3) 0.0550(3)
O22 O -0.3499(5) -0.8539(4) -0.0334(3)
Tb3 Tb -0.16413(2) 0.01326(2) 0.729620(17)
Tb4 Tb -0.24773(2) -0.20764(2) 0.621410(19)
C35 C -0.0530(4) -0.0785(4) 0.6440(4)
O23 O -0.1266(3) -0.0878(3) 0.6672(3)
C36 C -0.0186(4) -0.0114(4) 0.6132(4)
C37 C 0.0582(4) -0.0022(5) 0.5913(4)
H35 H 0.0822 0.0436 0.5712
C38 C 0.1005(4) -0.0582(5) 0.5983(4)
C39 C 0.0658(4) -0.1235(5) 0.6275(4)
H36 H 0.0948 -0.1617 0.6329
C40 C -0.0111(4) -0.1356(4) 0.6497(4)
C41 C 0.1840(5) -0.0478(6) 0.5740(5)
H37 H 0.2168 -0.0745 0.6000
H38 H 0.2171 0.0117 0.5809
H39 H 0.1719 -0.0739 0.5253
C42 C -0.0665(5) 0.0461(4) 0.6005(4)
H40 H -0.1264 0.0123 0.5785
H41 H -0.0412 0.0794 0.5682
N6 N -0.0659(4) 0.1048(3) 0.6641(3)
C43 C 0.0229(5) 0.1476(4) 0.7041(4)
H42 H 0.0303 0.2061 0.7242
H43 H 0.0633 0.1488 0.6728
C44 C 0.0449(5) 0.1058(5) 0.7609(4)
O24 O -0.0169(3) 0.0585(3) 0.7815(3)
O25 O 0.1200(4) 0.1244(4) 0.7862(3)
C45 C -0.1037(5) 0.1647(4) 0.6435(4)
H44 H -0.0850 0.1797 0.6015
H45 H -0.0825 0.2162 0.6798
C46 C -0.1992(5) 0.1313(5) 0.6304(4)
O26 O -0.2352(3) 0.0654(3) 0.6491(3)
O27 O -0.2379(4) 0.1731(4) 0.6046(3)
C47 C -0.0467(5) -0.2064(4) 0.6850(4)
H46 H -0.0055 -0.2359 0.6902
H47 H -0.0516 -0.1823 0.7314
N7 N -0.1311(4) -0.2682(4) 0.6492(3)
C48 C -0.1255(5) -0.3178(5) 0.5840(4)
H48 H -0.0945 -0.3559 0.5937
H49 H -0.0935 -0.2799 0.5573
C49 C -0.2150(5) -0.3684(5) 0.5426(4)
O28 O -0.2763(3) -0.3442(3) 0.5560(3)
O29 O -0.2243(4) -0.4317(4) 0.4975(4)
C50 C -0.1610(5) -0.3248(5) 0.6944(5)
H50 H -0.1129 -0.3389 0.7164
H51 H -0.2054 -0.3771 0.6674
C51 C -0.1973(6) -0.2842(6) 0.7487(5)
O30 O -0.2348(4) -0.2366(4) 0.7320(3)
O31 O -0.1882(6) -0.3008(7) 0.8073(5)
C52 C -0.3625(4) -0.0895(4) 0.6517(4)
O32 O -0.2865(3) -0.0981(3) 0.6679(3)
C53 C -0.4012(4) -0.1044(4) 0.5813(4)
C54 C -0.4789(5) -0.0943(5) 0.5657(5)
H52 H -0.5053 -0.1054 0.5190
C55 C -0.5205(5) -0.0687(5) 0.6149(6)
C56 C -0.4804(5) -0.0528(5) 0.6827(5)
H53 H -0.5069 -0.0339 0.7174
C57 C -0.4024(5) -0.0636(4) 0.7018(4)
C58 C -0.6054(6) -0.0559(7) 0.5971(7)
H54 H -0.6030 -0.0033 0.6252
H55 H -0.6511 -0.1022 0.6060
H56 H -0.6166 -0.0540 0.5487
O33 O -0.1852(4) -0.1985(4) 0.4188(3)
C59 C -0.2218(5) -0.1977(5) 0.4686(5)
N8 N -0.2820(4) 0.0241(4) 0.7972(3)
C60 C -0.3574(5) -0.1262(5) 0.5248(4)
H57 H -0.3877 -0.1204 0.4815
H58 H -0.2985 -0.0855 0.5343
C61 C -0.2937(5) 0.1022(5) 0.7903(4)
H59 H -0.3240 0.1183 0.8257
H60 H -0.3291 0.0948 0.7450
O34 O -0.5281(4) -0.3375(4) 0.5811(4)
C62 C -0.3631(5) -0.0490(5) 0.7750(4)
H61 H -0.3516 -0.0996 0.7835
H62 H -0.4043 -0.0401 0.8032
C63 C -0.4535(5) -0.2976(5) 0.5771(5)
O35 O -0.2058(4) 0.2436(3) 0.8101(3)
C64 C -0.3178(5) -0.2275(5) 0.4545(4)
H63 H -0.3376 -0.1996 0.4199
H64 H -0.3402 -0.2882 0.4348
C65 C -0.2080(5) 0.1710(5) 0.7980(4)
C66 C -0.4379(5) -0.2753(5) 0.5106(5)
H65 H -0.4429 -0.3263 0.4777
H66 H -0.4828 -0.2544 0.4923
O36 O -0.1816(7) -0.0417(7) 0.9336(4)
C67 C -0.2462(6) 0.0302(6) 0.8693(4)
H67 H -0.2102 0.0889 0.8902
H68 H -0.2935 0.0143 0.8942
C68 C -0.1948(7) -0.0236(7) 0.8772(5)
Na1 Na -0.3574(2) -0.54294(19) 0.45455(16)
Na2 Na -0.0446(2) -0.7196(2) -0.14715(18)
Na3 Na 0.1595(3) -0.3724(3) 0.2061(2)
Na4 Na 0.0419(4) -0.4271(4) 0.4528(3)
O37 O 0.2170(8) -0.3326(6) 0.3210(5)
O38 O 0.0931(5) -0.7077(6) -0.1066(5)
O39 O -0.4179(5) -0.4851(5) 0.5397(4)
O40 O 0.1047(5) -0.4933(5) 0.5320(3)
O41 O -0.0226(4) -0.6345(4) -0.2339(3)
O42 O -0.0563(4) -0.5918(4) -0.0941(3)
O44 O 0.0031(7) -0.5570(9) 0.3536(6)
O45 O 0.0575(6) -0.3252(6) 0.5586(7)
O46 O -0.3111(9) -0.6265(9) 0.5232(7)
O47 O 0.3184(9) -0.3501(13) 0.2125(6)
O1_2 O -0.1445(3) -0.8499(3) -0.2106(3)
O34A O -0.4719(4) -0.6625(4) 0.4189(4)
O35_2 O -0.2058(4) -0.7564(3) -0.1899(3)
O35A O 0.2058(4) -0.2436(3) 0.1899(3)
Na1A Na -0.6426(2) -0.45706(19) 0.54545(16)
Na2_2 Na -0.0446(2) 0.2804(2) 0.85285(18)
Na3A Na -0.1595(3) -0.6276(3) -0.2061(2)
Na3A_2 Na -0.1595(3) 0.3724(3) 0.7939(2)
Na4A Na -0.0419(4) -0.5729(4) 0.5472(3)
O40A O -0.1047(5) -0.5067(5) 0.4680(3)
O41A O 0.0226(4) -0.3655(4) 0.2339(3)
O42A O 0.0563(4) -0.4082(4) 0.0941(3)
O43 O 0.1961(7) -0.2780(8) 0.4774(6)
O48 O 0.2496(4) -0.8136(4) 0.7104(4)
O49 O 0.0247(5) -0.7738(6) 0.5291(4)
O50 O 0.4045(5) -1.1195(5) 0.3830(7)
O51 O 0.3271(6) -0.7856(6) 0.1600(5)
O52 O 0.4025(7) -0.5930(6) 0.3047(7)
O53 O 0.4924(6) -1.0730(7) 0.1327(5)
O54 O 0.4726(7) -1.0542(7) -0.0658(5)
O55 O 0.4153(8) -0.7651(9) 0.7398(9)
O56 O 0.3127(7) -1.0787(8) -0.0604(5)
O57 O -0.0083(8) -1.1263(9) 0.0656(7)
O58 O 0.1744(14) -0.4632(14) 0.3829(13)
O59 O 0.5861(14) -1.1351(14) -0.0632(10)
O60 O 0.5247(17) -0.8501(13) 0.7550(11)
O61 O 0.2644(12) -1.6211(11) 0.0915(8)
O62 O 0.2425(13) -0.9681(16) -0.0360(7)
O63 O -0.2599(8) -1.4854(9) -0.2319(10)
O64 O 0.4792(9) -0.409(2) 0.3355(10)
O65 O 0.4709(13) -1.5105(9) 0.1340(7)
O66 O -0.1015(8) -1.0916(9) -0.0046(6)
loop_
_geom_bond_atom_site_label_1
_geom_bond_atom_site_label_2
_geom_bond_site_symmetry_1
_geom_bond_site_symmetry_2
Tb1 O5 1_555 1_555
Tb2 O5 1_555 1_555
C1 O5 1_555 1_555
O1 Tb3 1_555 1_555
O2 Tb4 1_555 1_555
O3 Tb3 1_555 1_555
N1 Tb4 1_555 1_555
O4 Tb4 1_555 1_555
C2 C1 1_555 1_555
C3 C2 1_555 1_555
H1 C3 1_555 1_555
C4 C3 1_555 1_555
C5 C4 1_555 1_555
H2 C5 1_555 1_555
C6 C1 1_555 1_555
C7 C4 1_555 1_555
H3 C7 1_555 1_555
H4 C7 1_555 1_555
H5 C7 1_555 1_555
C8 C2 1_555 1_555
H6 C8 1_555 1_555
H7 C8 1_555 1_555
N2 Tb1 1_555 1_555
C9 N2 1_555 1_555
H8 C9 1_555 1_555
H9 C9 1_555 1_555
C10 C9 1_555 1_555
O6 Tb1 1_555 1_555
O7 C10 1_555 1_555
C11 N2 1_555 1_555
H10 C11 1_555 1_555
H11 C11 1_555 1_555
C12 C11 1_555 1_555
O8 Tb1 1_555 1_555
O9 C12 1_555 1_555
C13 C6 1_555 1_555
H12 C13 1_555 1_555
H13 C13 1_555 1_555
N3 Tb2 1_555 1_555
C14 N3 1_555 1_555
H14 C14 1_555 1_555
H15 C14 1_555 1_555
C15 C14 1_555 1_555
O10 Tb2 1_555 1_555
O11 C15 1_555 1_555
C16 N3 1_555 1_555
H16 C16 1_555 1_555
H17 C16 1_555 1_555
C17 C16 1_555 1_555
O12 Tb2 1_555 1_555
O13 C17 1_555 1_555
C18 O14 1_555 1_555
O14 Tb1 1_555 1_555
C19 C18 1_555 1_555
C20 C19 1_555 1_555
H18 C20 1_555 1_555
C21 C20 1_555 1_555
C22 C21 1_555 1_555
H19 C22 1_555 1_555
C23 C18 1_555 1_555
C24 C21 1_555 1_555
H20 C24 1_555 1_555
H21 C24 1_555 1_555
H22 C24 1_555 1_555
C25 C19 1_555 1_555
H23 C25 1_555 1_555
H24 C25 1_555 1_555
N4 Tb2 1_555 1_555
C26 N4 1_555 1_555
H25 C26 1_555 1_555
H26 C26 1_555 1_555
C27 C26 1_555 1_555
O15 Tb2 1_555 1_555
O16 C27 1_555 1_555
C28 N4 1_555 1_555
H27 C28 1_555 1_555
H28 C28 1_555 1_555
C29 C28 1_555 1_555
O17 Tb2 1_555 1_555
O18 C29 1_555 1_555
C30 C23 1_555 1_555
H29 C30 1_555 1_555
H30 C30 1_555 1_555
N5 Tb1 1_555 1_555
C31 N5 1_555 1_555
H31 C31 1_555 1_555
H32 C31 1_555 1_555
C32 C31 1_555 1_555
O19 Tb1 1_555 1_555
O20 C32 1_555 1_555
C33 N5 1_555 1_555
H33 C33 1_555 1_555
H34 C33 1_555 1_555
C34 C33 1_555 1_555
O21 Tb1 1_555 1_555
O22 C34 1_555 1_555
Tb3 O23 1_555 1_555
Tb4 O23 1_555 1_555
C35 O23 1_555 1_555
C36 C35 1_555 1_555
C37 C36 1_555 1_555
H35 C37 1_555 1_555
C38 C37 1_555 1_555
C39 C38 1_555 1_555
H36 C39 1_555 1_555
C40 C35 1_555 1_555
C41 C38 1_555 1_555
H37 C41 1_555 1_555
H38 C41 1_555 1_555
H39 C41 1_555 1_555
C42 C36 1_555 1_555
H40 C42 1_555 1_555
H41 C42 1_555 1_555
N6 Tb3 1_555 1_555
C43 N6 1_555 1_555
H42 C43 1_555 1_555
H43 C43 1_555 1_555
C44 C43 1_555 1_555
O24 Tb3 1_555 1_555
O25 C44 1_555 1_555
C45 N6 1_555 1_555
H44 C45 1_555 1_555
H45 C45 1_555 1_555
C46 C45 1_555 1_555
O26 Tb3 1_555 1_555
O27 C46 1_555 1_555
C47 C40 1_555 1_555
H46 C47 1_555 1_555
H47 C47 1_555 1_555
N7 Tb4 1_555 1_555
C48 N7 1_555 1_555
H48 C48 1_555 1_555
H49 C48 1_555 1_555
C49 C48 1_555 1_555
O28 Tb4 1_555 1_555
O29 C49 1_555 1_555
C50 N7 1_555 1_555
H50 C50 1_555 1_555
H51 C50 1_555 1_555
C51 C50 1_555 1_555
O30 Tb4 1_555 1_555
O31 C51 1_555 1_555
C52 O32 1_555 1_555
O32 Tb3 1_555 1_555
C53 C52 1_555 1_555
C54 C53 1_555 1_555
H52 C54 1_555 1_555
C55 C54 1_555 1_555
C56 C55 1_555 1_555
H53 C56 1_555 1_555
C57 C52 1_555 1_555
C58 C55 1_555 1_555
H54 C58 1_555 1_555
H55 C58 1_555 1_555
H56 C58 1_555 1_555
O33 C59 1_555 1_555
C59 O2 1_555 1_555
N8 Tb3 1_555 1_555
C60 N1 1_555 1_555
H57 C60 1_555 1_555
H58 C60 1_555 1_555
C61 N8 1_555 1_555
H59 C61 1_555 1_555
H60 C61 1_555 1_555
O34 C63 1_555 1_555
C62 C57 1_555 1_555
H61 C62 1_555 1_555
H62 C62 1_555 1_555
C63 O4 1_555 1_555
O35 C65 1_555 1_555
C64 N1 1_555 1_555
H63 C64 1_555 1_555
H64 C64 1_555 1_555
C65 O1 1_555 1_555
C66 N1 1_555 1_555
H65 C66 1_555 1_555
H66 C66 1_555 1_555
O36 C68 1_555 1_555
C67 N8 1_555 1_555
H67 C67 1_555 1_555
H68 C67 1_555 1_555
C68 O3 1_555 1_555
Na1 O15 1_555 1_555
Na2 O7 1_555 1_555
Na3 O9 1_555 1_555
Na4 O18 1_555 1_555
O37 Na3 1_555 1_555
O38 Na2 1_555 1_555
O39 Na1 1_555 1_555
O40 Na4 1_555 1_555
O41 Na2 1_555 1_555
O42 Na2 1_555 1_555
O44 Na4 1_555 1_555
O45 Na4 1_555 1_555
O46 Na1 1_555 1_555
O47 Na3 1_555 1_555
O1_2 Na2 1_555 1_555
O34A Na1 1_555 1_555
O35_2 Na2 1_555 1_555
O35A Na3 1_555 1_555
Na1A O34 1_555 1_555
Na2_2 O1 1_555 1_555
Na3A O41 1_555 1_555
Na3A_2 O35 1_555 1_555
Na4A O40 1_555 1_555
O40A Na4 1_555 1_555
O41A Na3 1_555 1_555
O42A Na3 1_555 1_555
Tb2 O14 1_555 1_555
C5 C6 1_555 1_555
C8 N2 1_555 1_555
C10 O6 1_555 1_555
C12 O8 1_555 1_555
C13 N3 1_555 1_555
C15 O10 1_555 1_555
C17 O12 1_555 1_555
C22 C23 1_555 1_555
C25 N4 1_555 1_555
C27 O15 1_555 1_555
O16 Na1 1_555 1_555
C29 O17 1_555 1_555
C30 N5 1_555 1_555
C32 O19 1_555 1_555
C34 O21 1_555 1_555
Tb4 O32 1_555 1_555
C39 C40 1_555 1_555
C42 N6 1_555 1_555
C44 O24 1_555 1_555
C46 O26 1_555 1_555
C47 N7 1_555 1_555
C49 O28 1_555 1_555
O29 Na1 1_555 1_555
C51 O30 1_555 1_555
C53 C60 1_555 1_555
C56 C57 1_555 1_555
C59 C64 1_555 1_555
N8 C62 1_555 1_555
C61 C65 1_555 1_555
C63 C66 1_555 1_555
O35 Na2_2 1_555 1_555
C67 C68 1_555 1_555
O42 Na3A 1_555 1_555
O35_2 Na3A 1_555 1_555
Na4A O40A 1_555 1_555

#END
