
#######################################################################
#
#                 Cambridge Crystallographic Data Centre
#                                CCDC 
#
#######################################################################
#
# If this CIF has been generated from an entry in the Cambridge 
# Structural Database, then it will include bibliographic, chemical, 
# crystal, experimental, refinement or atomic coordinate data resulting 
# from the CCDC's data processing and validation procedures.
#
#######################################################################

data_ECEBEW
_chemical_formula_moiety         '(C3 H8 Mn1 N10)n'
_symmetry_cell_setting           orthorhombic
_symmetry_space_group_name_H-M   'P b c a'
_symmetry_Int_Tables_number      61
_space_group_name_Hall           '-P 2ac 2ab'
loop_
_symmetry_equiv_pos_site_id
_symmetry_equiv_pos_as_xyz
1 x,y,z
2 1/2-x,-y,1/2+z
3 1/2+x,1/2-y,-z
4 -x,1/2+y,1/2-z
5 -x,-y,-z
6 1/2+x,y,1/2-z
7 1/2-x,1/2+y,z
8 x,1/2-y,1/2+z
_cell_length_a                   7.5409(9)
_cell_length_b                   12.8501(16)
_cell_length_c                   18.865(2)
_cell_angle_alpha                90
_cell_angle_beta                 90
_cell_angle_gamma                90
_cell_volume                     1828.04
loop_
_atom_site_label
_atom_site_type_symbol
_atom_site_fract_x
_atom_site_fract_y
_atom_site_fract_z
_atom_site_U_iso_or_equiv
_atom_site_thermal_displace_type
Mn1 Mn 0.23965(3) 0.84457(2) 0.386345(14) 0.0217 Uani
N1 N 0.2483(2) 0.59280(14) 0.39493(9) 0.0296 Uani
N2 N -0.0465(2) 0.86600(14) 0.26383(9) 0.0324 Uani
N3 N 0.2328(3) 0.67557(14) 0.37237(11) 0.0433 Uani
N4 N 0.5242(2) 0.75074(14) 0.48596(8) 0.0291 Uani
N5 N 0.4848(2) 0.82642(15) 0.45464(9) 0.0377 Uani
N6 N -0.0042(3) 0.86998(17) 0.32352(9) 0.0462 Uani
N7 N 0.2638(3) 0.50894(15) 0.41798(11) 0.0504 Uani
N8 N 0.5626(3) 0.67515(16) 0.51687(9) 0.0426 Uani
N9 N -0.0881(3) 0.86576(18) 0.20511(10) 0.0570 Uani
Mn1B Mn 0.73965(3) 0.65543(2) 0.613655(14) 0.0217 Uani
Mn1E Mn -0.26035(3) 0.84457(2) 0.113655(14) 0.0217 Uani
Mn1F Mn 0.26035(3) 0.34457(2) 0.386345(14) 0.0217 Uani
N7F N 0.2362(3) 1.00894(15) 0.41798(11) 0.0504 Uani
N8B N 0.0626(3) 0.82485(16) 0.48313(9) 0.0426 Uani
N9E N 0.4119(3) 0.86576(18) 0.29489(10) 0.0570 Uani
N10 N -0.2412(2) 0.99043(16) 0.41959(10) 0.0405 Uani
H1 H -0.3300 0.9465 0.4280 0.0610 Uiso
H2 H -0.1922 1.0096 0.4605 0.0610 Uiso
H3 H -0.1601 0.9593 0.3927 0.0610 Uiso
C1 C -0.3093(3) 1.08263(19) 0.38268(11) 0.0379 Uani
H4 H -0.3989 1.1229 0.4084 0.0460 Uiso
C2 C -0.3289(3) 1.0808(2) 0.30515(12) 0.0464 Uani
H5 H -0.4291 1.1173 0.2847 0.0560 Uiso
H6 H -0.2943 1.0178 0.2804 0.0560 Uiso
C3 C -0.1880(4) 1.1434(2) 0.33827(14) 0.0574 Uani
H7 H -0.0668 1.1190 0.3338 0.0690 Uiso
H8 H -0.2015 1.2185 0.3381 0.0690 Uiso
loop_
_atom_site_aniso_label
_atom_site_aniso_U_11
_atom_site_aniso_U_22
_atom_site_aniso_U_33
_atom_site_aniso_U_23
_atom_site_aniso_U_13
_atom_site_aniso_U_12
Mn1 0.02640(16) 0.01860(16) 0.02016(16) 0.00297(11) -0.00038(11) 0.00096(13)
N1 0.0316(9) 0.0228(10) 0.0343(9) -0.0077(7) 0.0022(8) -0.0019(8)
N2 0.0298(9) 0.0316(10) 0.0358(10) -0.0044(8) -0.0062(8) 0.0039(8)
N3 0.0515(12) 0.0186(10) 0.0597(13) 0.0004(8) -0.0025(10) -0.0027(9)
N4 0.0265(8) 0.0377(11) 0.0231(9) -0.0044(8) -0.0049(7) -0.0002(8)
N5 0.0380(10) 0.0368(11) 0.0384(10) 0.0052(8) -0.0115(8) 0.0007(9)
N6 0.0433(11) 0.0646(15) 0.0306(10) -0.0017(9) -0.0128(9) 0.0164(11)
N7 0.0873(16) 0.0207(10) 0.0431(12) 0.0001(8) -0.0023(11) -0.0002(11)
N8 0.0512(12) 0.0426(13) 0.0339(10) 0.0060(9) -0.0135(9) 0.0037(10)
N9 0.0679(15) 0.0688(17) 0.0344(11) -0.0113(10) -0.0224(11) 0.0042(13)
Mn1B 0.0264 0.0186 0.02016 0.00297 0.00038 -0.00096
Mn1E 0.0264 0.0186 0.02016 -0.00297 0.00038 0.00096
Mn1F 0.0264 0.0186 0.02016 0.00297 0.00038 -0.00096
N7F 0.0873 0.0207 0.0431 0.0001 0.0023 0.0002
N8B 0.0512 0.0426 0.0339 0.006 0.0135 -0.0037
N9E 0.0679 0.0688 0.0344 0.0113 0.0224 0.0042
N10 0.0455(11) 0.0441(12) 0.0319(10) 0.0005(8) 0.0044(8) -0.0033(10)
C1 0.0315(11) 0.0463(15) 0.0360(12) -0.0084(10) -0.0004(9) 0.0060(10)
C2 0.0481(14) 0.0527(16) 0.0383(13) -0.0043(11) -0.0097(11) 0.0079(13)
C3 0.0569(16) 0.0522(18) 0.0632(18) 0.0190(14) -0.0126(14) -0.0128(14)
loop_
_geom_bond_atom_site_label_1
_geom_bond_atom_site_label_2
_geom_bond_site_symmetry_1
_geom_bond_site_symmetry_2
Mn1 N3 1_555 1_555
N1 N3 1_555 1_555
N2 N6 1_555 1_555
N4 N5 1_555 1_555
N5 Mn1 1_555 1_555
N6 Mn1 1_555 1_555
N7 N1 1_555 1_555
N8 N4 1_555 1_555
N9 N2 1_555 1_555
N10 H1 1_555 1_555
H2 N10 1_555 1_555
H3 N10 1_555 1_555
C1 N10 1_555 1_555
H4 C1 1_555 1_555
C2 C1 1_555 1_555
H5 C2 1_555 1_555
H6 C2 1_555 1_555
C3 C1 1_555 1_555
H7 C3 1_555 1_555
H8 C3 1_555 1_555
Mn1B N8 1_555 1_555
Mn1E N9 1_555 1_555
Mn1F N7 1_555 1_555
N7F Mn1 1_555 1_555
N8B Mn1 1_555 1_555
N9E Mn1 1_555 1_555
C2 C3 1_555 1_555

#END
