
#######################################################################
#
#                 Cambridge Crystallographic Data Centre
#                                CCDC 
#
#######################################################################
#
# If this CIF has been generated from an entry in the Cambridge 
# Structural Database, then it will include bibliographic, chemical, 
# crystal, experimental, refinement or atomic coordinate data resulting 
# from the CCDC's data processing and validation procedures.
#
#######################################################################

data_SUNLET
_chemical_formula_moiety         'C234 H136 Cu19 N8 O62'
_symmetry_cell_setting           tetragonal
_symmetry_space_group_name_H-M   'I 41/a m d'
_symmetry_Int_Tables_number      141
_space_group_name_Hall           '-I 4bd 2'
loop_
_symmetry_equiv_pos_site_id
_symmetry_equiv_pos_as_xyz
1 x,y,z
2 1/2-x,-y,1/2+z
3 1/4-y,3/4+x,1/4+z
4 1/4+y,1/4-x,3/4+z
5 1/2-x,y,1/2-z
6 x,-y,-z
7 1/4+y,3/4+x,1/4-z
8 1/4-y,1/4-x,3/4-z
9 1/2+x,1/2+y,1/2+z
10 -x,1/2-y,z
11 3/4-y,1/4+x,3/4+z
12 3/4+y,3/4-x,1/4+z
13 -x,1/2+y,-z
14 1/2+x,1/2-y,1/2-z
15 3/4+y,1/4+x,3/4-z
16 3/4-y,3/4-x,1/4-z
17 -x,-y,-z
18 1/2+x,y,1/2-z
19 3/4+y,1/4-x,3/4-z
20 3/4-y,3/4+x,1/4-z
21 1/2+x,-y,1/2+z
22 -x,y,z
23 3/4-y,1/4-x,3/4+z
24 3/4+y,3/4+x,1/4+z
25 1/2-x,1/2-y,1/2-z
26 x,1/2+y,-z
27 1/4+y,3/4-x,1/4-z
28 1/4-y,1/4+x,3/4-z
29 x,1/2-y,z
30 1/2-x,1/2+y,1/2+z
31 1/4-y,3/4-x,1/4+z
32 1/4+y,1/4+x,3/4+z
_cell_length_a                   38.6288(4)
_cell_length_b                   38.6288(4)
_cell_length_c                   27.0964(6)
_cell_angle_alpha                90
_cell_angle_beta                 90
_cell_angle_gamma                90
_cell_volume                     40432.8
loop_
_atom_site_label
_atom_site_type_symbol
_atom_site_fract_x
_atom_site_fract_y
_atom_site_fract_z
O1 O 0.96394(4) -0.02402(5) 0.94271(5)
O2 O 0.96489(6) 0.21492(7) 0.78198(10)
Cu1 Cu 1.0000 -0.033904(11) 0.991044(12)
Cu2 Cu 1.0000 0.2500 0.78939(3)
Cu3 Cu 1.0000 0.2500 0.69214(3)
O3 O 0.96322(4) 0.03317(5) 0.95914(6)
O4 O 1.0000 0.2500 0.8750
C1 C 0.95178(5) 0.00562(8) 0.93925(7)
C2 C 0.91911(5) 0.00935(7) 0.90906(7)
C3 C 0.79249(6) 0.04989(8) 0.75911(10)
C4 C 0.89977(6) 0.03945(9) 0.91295(10)
H1 H 0.9071 0.0575 0.9338
C5 C 0.80048(7) -0.00270(9) 0.82923(11)
H2 H 0.8027 -0.0203 0.8530
C6 C 0.77006(7) -0.00103(8) 0.80013(12)
C7 C 0.82316(6) 0.04797(8) 0.78865(10)
C8 C 0.90772(6) -0.01704(8) 0.87953(9)
H3 H 0.9202 -0.0379 0.8781
C9 C 0.84948(7) 0.07312(8) 0.78089(11)
H4 H 0.8702 0.0711 0.7988
O5 O 1.0000 -0.08933(10) 0.98251(19)
C10 C 0.85872(6) 0.01702(8) 0.85386(9)
C11 C 0.76591(6) 0.02458(8) 0.76581(10)
O6 O 0.96419(6) 0.21429(6) 0.69927(10)
C12 C 0.82664(6) 0.02073(8) 0.82348(9)
O7 O 0.74375(6) -0.02380(7) 0.80501(10)
C13 C 0.86932(7) 0.04271(9) 0.88571(10)
H5 H 0.8558 0.0628 0.8891
C14 C 0.87772(7) -0.01311(8) 0.85170(10)
H6 H 0.8703 -0.0313 0.8312
C15 C 0.84610(8) 0.10000(10) 0.74873(13)
C16 C 0.79031(7) 0.07678(9) 0.72442(12)
H7 H 0.7709 0.0779 0.7036
C17 C 0.95387(9) 0.20441(10) 0.74120(15)
C18 C 0.88263(11) 0.14233(11) 0.70313(16)
H8 H 0.8707 0.1361 0.6742
C19 C 0.89133(9) 0.13730(11) 0.78874(14)
H9 H 0.8857 0.1268 0.8190
C20 C 0.92638(9) 0.17704(10) 0.74209(14)
C21 C 0.87370(9) 0.12706(9) 0.74618(14)
O8 O 1.0000 0.2500 0.6127(3)
C22 C 0.81544(9) 0.10127(9) 0.72004(14)
H10 H 0.8124 0.1195 0.6974
C23 C 0.91651(9) 0.16215(11) 0.78748(14)
H11 H 0.9273 0.1693 0.8169
C24 C 0.90883(11) 0.16693(11) 0.70011(15)
H12 H 0.9146 0.1767 0.6694
C25 C 0.74975(11) -0.05615(13) 0.8297(2)
H13 H 0.7712 -0.0668 0.8176
H14 H 0.7519 -0.0525 0.8653
C26 C 0.71996(16) -0.07884(16) 0.8191(3)
H15 H 0.7141 -0.0772 0.7844
H16 H 0.7259 -0.1026 0.8271
H17 H 0.7003 -0.0716 0.8389
C27 C 1.0000 -0.1153(3) 0.9525(4)
N1 N 1.0000 -0.1167(3) 0.8995(3)
C28 C 1.0000 -0.1484(4) 0.8676(6)
C29 C 1.0000 -0.0856(4) 0.8685(6)
C30 C 1.0000 0.2205(5) 0.5948(11)
C31 C 1.0000 0.2500 0.5183(16)
C32 C 0.9676(12) 0.1965(14) 0.528(2)
N2 N 1.0000 0.2154(7) 0.5421(10)
O1D O 0.53606(4) -0.02402(5) 0.55729(5)
O1I O 1.03606(4) 0.52402(5) 0.94271(5)
O1M O 1.46394(4) 0.52402(5) 0.55729(5)
O1U O 1.03606(4) -0.02402(5) 0.94271(5)
O1Q O 1.46394(4) -0.02402(5) 0.55729(5)
O1BA O 0.96394(4) 0.52402(5) 0.94271(5)
O1X O 0.53606(4) 0.52402(5) 0.55729(5)
O1Q_2 O 0.46394(4) -0.02402(5) 0.55729(5)
O1X_2 O 1.53606(4) 0.52402(5) 0.55729(5)
O2D O 0.53511(6) 0.21492(7) 0.71802(10)
O2I O 1.03511(6) 0.28508(7) 0.78198(10)
O2M O 1.46489(6) 0.28508(7) 0.71802(10)
O2U O 1.03511(6) 0.21492(7) 0.78198(10)
O2Q O 1.46489(6) 0.21492(7) 0.71802(10)
O2BA O 0.96489(6) 0.28508(7) 0.78198(10)
O2X O 0.53511(6) 0.28508(7) 0.71802(10)
O2M_2 O 0.46489(6) 0.28508(7) 0.71802(10)
O2Q_2 O 0.46489(6) 0.21492(7) 0.71802(10)
Cu1D Cu 0.5000 -0.033904(11) 0.508956(12)
Cu1I Cu 1.0000 0.533904(11) 0.991044(12)
Cu1M Cu 1.5000 0.533904(11) 0.508956(12)
Cu1E Cu 1.0000 0.033904(11) 1.008956(12)
Cu1A Cu 0.5000 0.033904(11) 0.491044(12)
Cu1L Cu 1.0000 0.466096(11) 1.008956(12)
Cu1H Cu 1.5000 0.466096(11) 0.491044(12)
Cu1D_2 Cu 1.5000 -0.033904(11) 0.508956(12)
Cu1A_2 Cu 1.5000 0.033904(11) 0.491044(12)
Cu1M_2 Cu 0.5000 0.533904(11) 0.508956(12)
Cu1H_2 Cu 0.5000 0.466096(11) 0.491044(12)
Cu2D Cu 0.5000 0.2500 0.71061(3)
Cu2G Cu 1.0000 0.2500 0.96061(3)
Cu2D_2 Cu 1.5000 0.2500 0.71061(3)
Cu3D Cu 0.5000 0.2500 0.80786(3)
Cu3D_2 Cu 1.5000 0.2500 0.80786(3)
O3D O 0.53678(4) 0.03317(5) 0.54086(6)
O3I O 1.03678(4) 0.46683(5) 0.95914(6)
O3M O 1.46322(4) 0.46683(5) 0.54086(6)
O3U O 1.03678(4) 0.03317(5) 0.95914(6)
O3Q O 1.46322(4) 0.03317(5) 0.54086(6)
O3BA O 0.96322(4) 0.46683(5) 0.95914(6)
O3X O 0.53678(4) 0.46683(5) 0.54086(6)
O3E O 0.96322(4) -0.03317(5) 1.04086(6)
O3P O 1.03678(4) -0.03317(5) 1.04086(6)
O3A O 0.53678(4) -0.03317(5) 0.45914(6)
O3T O 0.46322(4) -0.03317(5) 0.45914(6)
O3L O 1.03678(4) 0.53317(5) 1.04086(6)
O3Y O 0.96322(4) 0.53317(5) 1.04086(6)
O3H O 1.46322(4) 0.53317(5) 0.45914(6)
O3CA O 1.53678(4) 0.53317(5) 0.45914(6)
O4C O 0.5000 0.2500 0.6250
C1D C 0.54822(5) 0.00562(8) 0.56075(7)
C1I C 1.04822(5) 0.49438(8) 0.93925(7)
C1M C 1.45178(5) 0.49438(8) 0.56075(7)
C1U C 1.04822(5) 0.00562(8) 0.93925(7)
C1Q C 1.45178(5) 0.00562(8) 0.56075(7)
C1BA C 0.95178(5) 0.49438(8) 0.93925(7)
C1X C 0.54822(5) 0.49438(8) 0.56075(7)
C2D C 0.58089(5) 0.00935(7) 0.59094(7)
C2I C 1.08089(5) 0.49065(7) 0.90906(7)
C2M C 1.41911(5) 0.49065(7) 0.59094(7)
C2U C 1.08089(5) 0.00935(7) 0.90906(7)
C2Q C 1.41911(5) 0.00935(7) 0.59094(7)
C2BA C 0.91911(5) 0.49065(7) 0.90906(7)
C2X C 0.58089(5) 0.49065(7) 0.59094(7)
C3D C 0.70751(6) 0.04989(8) 0.74089(10)
C3I C 1.20751(6) 0.45011(8) 0.75911(10)
C3M C 1.29249(6) 0.45011(8) 0.74089(10)
C3U C 1.20751(6) 0.04989(8) 0.75911(10)
C3Q C 1.29249(6) 0.04989(8) 0.74089(10)
C3BA C 0.79249(6) 0.45011(8) 0.75911(10)
C3X C 0.70751(6) 0.45011(8) 0.74089(10)
C4D C 0.60023(6) 0.03945(9) 0.58705(10)
C4I C 1.10023(6) 0.46055(9) 0.91295(10)
C4M C 1.39977(6) 0.46055(9) 0.58705(10)
C4U C 1.10023(6) 0.03945(9) 0.91295(10)
C4Q C 1.39977(6) 0.03945(9) 0.58705(10)
C4BA C 0.89977(6) 0.46055(9) 0.91295(10)
C4X C 0.60023(6) 0.46055(9) 0.58705(10)
H1D H 0.5929 0.0575 0.5662
H1I H 1.0929 0.4425 0.9338
H1M H 1.4071 0.4425 0.5662
H1U H 1.0929 0.0575 0.9338
H1Q H 1.4071 0.0575 0.5662
H1BA H 0.9071 0.4425 0.9338
H1X H 0.5929 0.4425 0.5662
C5D C 0.69952(7) -0.00270(9) 0.67077(11)
C5I C 1.19952(7) 0.50270(9) 0.82923(11)
C5M C 1.30048(7) 0.50270(9) 0.67077(11)
C5U C 1.19952(7) -0.00270(9) 0.82923(11)
C5Q C 1.30048(7) -0.00270(9) 0.67077(11)
C5BA C 0.80048(7) 0.50270(9) 0.82923(11)
C5X C 0.69952(7) 0.50270(9) 0.67077(11)
H2D H 0.6973 -0.0203 0.6470
H2I H 1.1973 0.5203 0.8530
H2M H 1.3027 0.5203 0.6470
H2U H 1.1973 -0.0203 0.8530
H2Q H 1.3027 -0.0203 0.6470
H2BA H 0.8027 0.5203 0.8530
H2X H 0.6973 0.5203 0.6470
C6D C 0.72994(7) -0.00103(8) 0.69987(12)
C6I C 1.22994(7) 0.50103(8) 0.80013(12)
C6M C 1.27006(7) 0.50103(8) 0.69987(12)
C6U C 1.22994(7) -0.00103(8) 0.80013(12)
C6Q C 1.27006(7) -0.00103(8) 0.69987(12)
C6BA C 0.77006(7) 0.50103(8) 0.80013(12)
C6X C 0.72994(7) 0.50103(8) 0.69987(12)
C7D C 0.67684(6) 0.04797(8) 0.71135(10)
C7I C 1.17684(6) 0.45203(8) 0.78865(10)
C7M C 1.32316(6) 0.45203(8) 0.71135(10)
C7U C 1.17684(6) 0.04797(8) 0.78865(10)
C7Q C 1.32316(6) 0.04797(8) 0.71135(10)
C7BA C 0.82316(6) 0.45203(8) 0.78865(10)
C7X C 0.67684(6) 0.45203(8) 0.71135(10)
C8D C 0.59228(6) -0.01704(8) 0.62047(9)
C8I C 1.09228(6) 0.51704(8) 0.87953(9)
C8M C 1.40772(6) 0.51704(8) 0.62047(9)
C8U C 1.09228(6) -0.01704(8) 0.87953(9)
C8Q C 1.40772(6) -0.01704(8) 0.62047(9)
C8BA C 0.90772(6) 0.51704(8) 0.87953(9)
C8X C 0.59228(6) 0.51704(8) 0.62047(9)
H3D H 0.5798 -0.0379 0.6219
H3I H 1.0798 0.5379 0.8781
H3M H 1.4202 0.5379 0.6219
H3U H 1.0798 -0.0379 0.8781
H3Q H 1.4202 -0.0379 0.6219
H3BA H 0.9202 0.5379 0.8781
H3X H 0.5798 0.5379 0.6219
C9D C 0.65052(7) 0.07312(8) 0.71911(11)
C9I C 1.15052(7) 0.42688(8) 0.78089(11)
C9M C 1.34948(7) 0.42688(8) 0.71911(11)
C9U C 1.15052(7) 0.07312(8) 0.78089(11)
C9Q C 1.34948(7) 0.07312(8) 0.71911(11)
C9BA C 0.84948(7) 0.42688(8) 0.78089(11)
C9X C 0.65052(7) 0.42688(8) 0.71911(11)
H4D H 0.6298 0.0711 0.7012
H4I H 1.1298 0.4289 0.7988
H4M H 1.3702 0.4289 0.7012
H4U H 1.1298 0.0711 0.7988
H4Q H 1.3702 0.0711 0.7012
H4BA H 0.8702 0.4289 0.7988
H4X H 0.6298 0.4289 0.7012
O5D O 0.5000 -0.08933(10) 0.51749(19)
O5I O 1.0000 0.58933(10) 0.98251(19)
O5M O 1.5000 0.58933(10) 0.51749(19)
C10D C 0.64128(6) 0.01702(8) 0.64614(9)
C10I C 1.14128(6) 0.48298(8) 0.85386(9)
C10M C 1.35872(6) 0.48298(8) 0.64614(9)
C10U C 1.14128(6) 0.01702(8) 0.85386(9)
C10Q C 1.35872(6) 0.01702(8) 0.64614(9)
C10BA C 0.85872(6) 0.48298(8) 0.85386(9)
C10X C 0.64128(6) 0.48298(8) 0.64614(9)
C11D C 0.73409(6) 0.02458(8) 0.73419(10)
C11I C 1.23409(6) 0.47542(8) 0.76581(10)
C11M C 1.26591(6) 0.47542(8) 0.73419(10)
C11U C 1.23409(6) 0.02458(8) 0.76581(10)
C11Q C 1.26591(6) 0.02458(8) 0.73419(10)
C11BA C 0.76591(6) 0.47542(8) 0.76581(10)
C11X C 0.73409(6) 0.47542(8) 0.73419(10)
O6D O 0.53581(6) 0.21429(6) 0.80073(10)
O6I O 1.03581(6) 0.28571(6) 0.69927(10)
O6M O 1.46419(6) 0.28571(6) 0.80073(10)
O6U O 1.03581(6) 0.21429(6) 0.69927(10)
O6Q O 1.46419(6) 0.21429(6) 0.80073(10)
O6BA O 0.96419(6) 0.28571(6) 0.69927(10)
O6X O 0.53581(6) 0.28571(6) 0.80073(10)
O6M_2 O 0.46419(6) 0.28571(6) 0.80073(10)
O6Q_2 O 0.46419(6) 0.21429(6) 0.80073(10)
C12D C 0.67336(6) 0.02073(8) 0.67652(9)
C12I C 1.17336(6) 0.47927(8) 0.82348(9)
C12M C 1.32664(6) 0.47927(8) 0.67652(9)
C12U C 1.17336(6) 0.02073(8) 0.82348(9)
C12Q C 1.32664(6) 0.02073(8) 0.67652(9)
C12BA C 0.82664(6) 0.47927(8) 0.82348(9)
C12X C 0.67336(6) 0.47927(8) 0.67652(9)
O7D O 0.75625(6) -0.02380(7) 0.69499(10)
O7I O 1.25625(6) 0.52380(7) 0.80501(10)
O7M O 1.24375(6) 0.52380(7) 0.69499(10)
O7U O 1.25625(6) -0.02380(7) 0.80501(10)
O7Q O 1.24375(6) -0.02380(7) 0.69499(10)
O7BA O 0.74375(6) 0.52380(7) 0.80501(10)
O7X O 0.75625(6) 0.52380(7) 0.69499(10)
C13D C 0.63068(7) 0.04271(9) 0.61429(10)
C13I C 1.13068(7) 0.45729(9) 0.88571(10)
C13M C 1.36932(7) 0.45729(9) 0.61429(10)
C13U C 1.13068(7) 0.04271(9) 0.88571(10)
C13Q C 1.36932(7) 0.04271(9) 0.61429(10)
C13BA C 0.86932(7) 0.45729(9) 0.88571(10)
C13X C 0.63068(7) 0.45729(9) 0.61429(10)
H5D H 0.6442 0.0628 0.6109
H5I H 1.1442 0.4372 0.8891
H5M H 1.3558 0.4372 0.6109
H5U H 1.1442 0.0628 0.8891
H5Q H 1.3558 0.0628 0.6109
H5BA H 0.8558 0.4372 0.8891
H5X H 0.6442 0.4372 0.6109
C14D C 0.62228(7) -0.01311(8) 0.64830(10)
C14I C 1.12228(7) 0.51311(8) 0.85170(10)
C14M C 1.37772(7) 0.51311(8) 0.64830(10)
C14U C 1.12228(7) -0.01311(8) 0.85170(10)
C14Q C 1.37772(7) -0.01311(8) 0.64830(10)
C14BA C 0.87772(7) 0.51311(8) 0.85170(10)
C14X C 0.62228(7) 0.51311(8) 0.64830(10)
H6D H 0.6297 -0.0313 0.6688
H6I H 1.1297 0.5313 0.8312
H6M H 1.3703 0.5313 0.6688
H6U H 1.1297 -0.0313 0.8312
H6Q H 1.3703 -0.0313 0.6688
H6BA H 0.8703 0.5313 0.8312
H6X H 0.6297 0.5313 0.6688
C15D C 0.65390(8) 0.10000(10) 0.75127(13)
C15I C 1.15390(8) 0.40000(10) 0.74873(13)
C15M C 1.34610(8) 0.40000(10) 0.75127(13)
C15U C 1.15390(8) 0.10000(10) 0.74873(13)
C15Q C 1.34610(8) 0.10000(10) 0.75127(13)
C15BA C 0.84610(8) 0.40000(10) 0.74873(13)
C15X C 0.65390(8) 0.40000(10) 0.75127(13)
C16D C 0.70969(7) 0.07678(9) 0.77558(12)
C16I C 1.20969(7) 0.42322(9) 0.72442(12)
C16M C 1.29031(7) 0.42322(9) 0.77558(12)
C16U C 1.20969(7) 0.07678(9) 0.72442(12)
C16Q C 1.29031(7) 0.07678(9) 0.77558(12)
C16BA C 0.79031(7) 0.42322(9) 0.72442(12)
C16X C 0.70969(7) 0.42322(9) 0.77558(12)
H7D H 0.7291 0.0779 0.7964
H7I H 1.2291 0.4221 0.7036
H7M H 1.2709 0.4221 0.7964
H7U H 1.2291 0.0779 0.7036
H7Q H 1.2709 0.0779 0.7964
H7BA H 0.7709 0.4221 0.7036
H7X H 0.7291 0.4221 0.7964
C17D C 0.54613(9) 0.20441(10) 0.75880(15)
C17I C 1.04613(9) 0.29559(10) 0.74120(15)
C17M C 1.45387(9) 0.29559(10) 0.75880(15)
C17U C 1.04613(9) 0.20441(10) 0.74120(15)
C17Q C 1.45387(9) 0.20441(10) 0.75880(15)
C17BA C 0.95387(9) 0.29559(10) 0.74120(15)
C17X C 0.54613(9) 0.29559(10) 0.75880(15)
C18D C 0.61737(11) 0.14233(11) 0.79687(16)
C18I C 1.11737(11) 0.35767(11) 0.70313(16)
C18M C 1.38263(11) 0.35767(11) 0.79687(16)
C18U C 1.11737(11) 0.14233(11) 0.70313(16)
C18Q C 1.38263(11) 0.14233(11) 0.79687(16)
C18BA C 0.88263(11) 0.35767(11) 0.70313(16)
C18X C 0.61737(11) 0.35767(11) 0.79687(16)
H8D H 0.6293 0.1361 0.8258
H8I H 1.1293 0.3639 0.6742
H8M H 1.3707 0.3639 0.8258
H8U H 1.1293 0.1361 0.6742
H8Q H 1.3707 0.1361 0.8258
H8BA H 0.8707 0.3639 0.6742
H8X H 0.6293 0.3639 0.8258
C19D C 0.60867(9) 0.13730(11) 0.71126(14)
C19I C 1.10867(9) 0.36270(11) 0.78874(14)
C19M C 1.39133(9) 0.36270(11) 0.71126(14)
C19U C 1.10867(9) 0.13730(11) 0.78874(14)
C19Q C 1.39133(9) 0.13730(11) 0.71126(14)
C19BA C 0.89133(9) 0.36270(11) 0.78874(14)
C19X C 0.60867(9) 0.36270(11) 0.71126(14)
H9D H 0.6143 0.1268 0.6810
H9I H 1.1143 0.3732 0.8190
H9M H 1.3857 0.3732 0.6810
H9U H 1.1143 0.1268 0.8190
H9Q H 1.3857 0.1268 0.6810
H9BA H 0.8857 0.3732 0.8190
H9X H 0.6143 0.3732 0.6810
C20D C 0.57362(9) 0.17704(10) 0.75791(14)
C20I C 1.07362(9) 0.32296(10) 0.74209(14)
C20M C 1.42638(9) 0.32296(10) 0.75791(14)
C20U C 1.07362(9) 0.17704(10) 0.74209(14)
C20Q C 1.42638(9) 0.17704(10) 0.75791(14)
C20BA C 0.92638(9) 0.32296(10) 0.74209(14)
C20X C 0.57362(9) 0.32296(10) 0.75791(14)
C21D C 0.62630(9) 0.12706(9) 0.75382(14)
C21I C 1.12630(9) 0.37294(9) 0.74618(14)
C21M C 1.37370(9) 0.37294(9) 0.75382(14)
C21U C 1.12630(9) 0.12706(9) 0.74618(14)
C21Q C 1.37370(9) 0.12706(9) 0.75382(14)
C21BA C 0.87370(9) 0.37294(9) 0.74618(14)
C21X C 0.62630(9) 0.37294(9) 0.75382(14)
O8D O 0.5000 0.2500 0.8873(3)
C22D C 0.68456(9) 0.10127(9) 0.77996(14)
C22I C 1.18456(9) 0.39873(9) 0.72004(14)
C22M C 1.31544(9) 0.39873(9) 0.77996(14)
C22U C 1.18456(9) 0.10127(9) 0.72004(14)
C22Q C 1.31544(9) 0.10127(9) 0.77996(14)
C22BA C 0.81544(9) 0.39873(9) 0.72004(14)
C22X C 0.68456(9) 0.39873(9) 0.77996(14)
H10D H 0.6876 0.1195 0.8026
H10I H 1.1876 0.3805 0.6974
H10M H 1.3124 0.3805 0.8026
H10U H 1.1876 0.1195 0.6974
H10Q H 1.3124 0.1195 0.8026
H10BA H 0.8124 0.3805 0.6974
H10X H 0.6876 0.3805 0.8026
C23D C 0.58349(9) 0.16215(11) 0.71252(14)
C23I C 1.08349(9) 0.33785(11) 0.78748(14)
C23M C 1.41651(9) 0.33785(11) 0.71252(14)
C23U C 1.08349(9) 0.16215(11) 0.78748(14)
C23Q C 1.41651(9) 0.16215(11) 0.71252(14)
C23BA C 0.91651(9) 0.33785(11) 0.78748(14)
C23X C 0.58349(9) 0.33785(11) 0.71252(14)
H11D H 0.5727 0.1693 0.6831
H11I H 1.0727 0.3307 0.8169
H11M H 1.4273 0.3307 0.6831
H11U H 1.0727 0.1693 0.8169
H11Q H 1.4273 0.1693 0.6831
H11BA H 0.9273 0.3307 0.8169
H11X H 0.5727 0.3307 0.6831
C24D C 0.59117(11) 0.16693(11) 0.79989(15)
C24I C 1.09117(11) 0.33307(11) 0.70011(15)
C24M C 1.40883(11) 0.33307(11) 0.79989(15)
C24U C 1.09117(11) 0.16693(11) 0.70011(15)
C24Q C 1.40883(11) 0.16693(11) 0.79989(15)
C24BA C 0.90883(11) 0.33307(11) 0.70011(15)
C24X C 0.59117(11) 0.33307(11) 0.79989(15)
H12D H 0.5854 0.1767 0.8306
H12I H 1.0854 0.3233 0.6694
H12M H 1.4146 0.3233 0.8306
H12U H 1.0854 0.1767 0.6694
H12Q H 1.4146 0.1767 0.8306
H12BA H 0.9146 0.3233 0.6694
H12X H 0.5854 0.3233 0.8306
C25D C 0.75025(11) -0.05615(13) 0.6703(2)
C25I C 1.25025(11) 0.55615(13) 0.8297(2)
C25M C 1.24975(11) 0.55615(13) 0.6703(2)
C25U C 1.25025(11) -0.05615(13) 0.8297(2)
C25Q C 1.24975(11) -0.05615(13) 0.6703(2)
C25BA C 0.74975(11) 0.55615(13) 0.8297(2)
C25X C 0.75025(11) 0.55615(13) 0.6703(2)
H13D H 0.7288 -0.0668 0.6824
H13I H 1.2288 0.5668 0.8176
H13M H 1.2712 0.5668 0.6824
H13U H 1.2288 -0.0668 0.8176
H13Q H 1.2712 -0.0668 0.6824
H13BA H 0.7712 0.5668 0.8176
H13X H 0.7288 0.5668 0.6824
H14D H 0.7481 -0.0525 0.6347
H14I H 1.2481 0.5525 0.8653
H14M H 1.2519 0.5525 0.6347
H14U H 1.2481 -0.0525 0.8653
H14Q H 1.2519 -0.0525 0.6347
H14BA H 0.7519 0.5525 0.8653
H14X H 0.7481 0.5525 0.6347
C26D C 0.78004(16) -0.07884(16) 0.6809(3)
C26I C 1.28004(16) 0.57884(16) 0.8191(3)
C26M C 1.21996(16) 0.57884(16) 0.6809(3)
C26U C 1.28004(16) -0.07884(16) 0.8191(3)
C26Q C 1.21996(16) -0.07884(16) 0.6809(3)
C26BA C 0.71996(16) 0.57884(16) 0.8191(3)
C26X C 0.78004(16) 0.57884(16) 0.6809(3)
H15D H 0.7859 -0.0772 0.7156
H15I H 1.2859 0.5772 0.7844
H15M H 1.2141 0.5772 0.7156
H15U H 1.2859 -0.0772 0.7844
H15Q H 1.2141 -0.0772 0.7156
H15BA H 0.7141 0.5772 0.7844
H15X H 0.7859 0.5772 0.7156
H16D H 0.7741 -0.1026 0.6729
H16I H 1.2741 0.6026 0.8271
H16M H 1.2259 0.6026 0.6729
H16U H 1.2741 -0.1026 0.8271
H16Q H 1.2259 -0.1026 0.6729
H16BA H 0.7259 0.6026 0.8271
H16X H 0.7741 0.6026 0.6729
H17D H 0.7997 -0.0716 0.6611
H17I H 1.2997 0.5716 0.8389
H17M H 1.2003 0.5716 0.6611
H17U H 1.2997 -0.0716 0.8389
H17Q H 1.2003 -0.0716 0.6611
H17BA H 0.7003 0.5716 0.8389
H17X H 0.7997 0.5716 0.6611
C27D C 0.5000 -0.1153(3) 0.5475(4)
C27I C 1.0000 0.6153(3) 0.9525(4)
C27M C 1.5000 0.6153(3) 0.5475(4)
N1D N 0.5000 -0.1167(3) 0.6005(3)
N1I N 1.0000 0.6167(3) 0.8995(3)
N1M N 1.5000 0.6167(3) 0.6005(3)
C28D C 0.5000 -0.1484(4) 0.6324(6)
C28I C 1.0000 0.6484(4) 0.8676(6)
C28M C 1.5000 0.6484(4) 0.6324(6)
C29D C 0.5000 -0.0856(4) 0.6315(6)
C29I C 1.0000 0.5856(4) 0.8685(6)
C29M C 1.5000 0.5856(4) 0.6315(6)
C30I C 1.0000 0.2795(5) 0.5948(11)
C30D C 0.5000 0.2205(5) 0.9052(11)
C30M C 0.5000 0.2795(5) 0.9052(11)
C31D C 0.5000 0.2500 0.9817(16)
C32I C 1.0324(12) 0.3035(14) 0.528(2)
C32BA C 0.9676(12) 0.3035(14) 0.528(2)
C32U C 1.0324(12) 0.1965(14) 0.528(2)
C32D C 0.5324(12) 0.1965(14) 0.972(2)
C32M C 0.4676(12) 0.3035(14) 0.972(2)
C32X C 0.5324(12) 0.3035(14) 0.972(2)
C32Q C 0.4676(12) 0.1965(14) 0.972(2)
N2I N 1.0000 0.2846(7) 0.5421(10)
N2D N 0.5000 0.2154(7) 0.9579(10)
N2M N 0.5000 0.2846(7) 0.9579(10)
loop_
_geom_bond_atom_site_label_1
_geom_bond_atom_site_label_2
_geom_bond_site_symmetry_1
_geom_bond_site_symmetry_2
O1 Cu1 1_555 1_555
O2 Cu2 1_555 1_555
Cu1 O5 1_555 1_555
Cu2 O4 1_555 1_555
Cu3 O6 1_555 1_555
O3 C1 1_555 1_555
O4 Cu2G 1_555 1_555
C1 O1 1_555 1_555
C2 C1 1_555 1_555
C3 C7 1_555 1_555
C4 C2 1_555 1_555
H1 C4 1_555 1_555
C5 H2 1_555 1_555
C6 C5 1_555 1_555
C7 C9 1_555 1_555
C8 C2 1_555 1_555
H3 C8 1_555 1_555
C9 H4 1_555 1_555
O5 C27 1_555 1_555
C10 C12 1_555 1_555
C11 C3 1_555 1_555
O6 C17 1_555 1_555
C12 C5 1_555 1_555
O7 C6 1_555 1_555
C13 C4 1_555 1_555
H5 C13 1_555 1_555
C14 C8 1_555 1_555
H6 C14 1_555 1_555
C15 C9 1_555 1_555
C16 C3 1_555 1_555
H7 C16 1_555 1_555
C17 O2 1_555 1_555
C18 H8 1_555 1_555
C19 H9 1_555 1_555
C20 C17 1_555 1_555
C21 C15 1_555 1_555
O8 Cu3 1_555 1_555
C22 C15 1_555 1_555
H10 C22 1_555 1_555
C23 C19 1_555 1_555
H11 C23 1_555 1_555
C24 C18 1_555 1_555
H12 C24 1_555 1_555
C25 O7 1_555 1_555
H13 C25 1_555 1_555
H14 C25 1_555 1_555
C26 C25 1_555 1_555
H15 C26 1_555 1_555
H16 C26 1_555 1_555
H17 C26 1_555 1_555
C27 N1 1_555 1_555
N1 C28 1_555 1_555
C29 N1 1_555 1_555
C30 O8 1_555 1_555
C31 N2 1_555 1_555
C32 N2 1_555 1_555
N2 C30 1_555 1_555
O1D Cu1D 1_555 1_555
O1I Cu1I 1_555 1_555
O1M Cu1M 1_555 1_555
O1U Cu1 1_555 1_555
O1Q Cu1D_2 1_555 1_555
O1BA Cu1I 1_555 1_555
O1X Cu1M_2 1_555 1_555
O1Q_2 Cu1D 1_555 1_555
O1X_2 Cu1M 1_555 1_555
O2D Cu2D 1_555 1_555
O2I Cu2 1_555 1_555
O2M Cu2D_2 1_555 1_555
O2U Cu2 1_555 1_555
O2Q Cu2D_2 1_555 1_555
O2BA Cu2 1_555 1_555
O2X Cu2D 1_555 1_555
O2M_2 Cu2D 1_555 1_555
O2Q_2 Cu2D 1_555 1_555
Cu1D O3A 1_555 1_555
Cu1I O3L 1_555 1_555
Cu1M O3H 1_555 1_555
Cu1E O3 1_555 1_555
Cu1A O3D 1_555 1_555
Cu1L O3I 1_555 1_555
Cu1H O3M 1_555 1_555
Cu1A_2 O3Q 1_555 1_555
Cu1H_2 O3X 1_555 1_555
Cu2D O4C 1_555 1_555
Cu3D O6D 1_555 1_555
Cu3D_2 O6M 1_555 1_555
O3D C1D 1_555 1_555
O3I C1I 1_555 1_555
O3M C1M 1_555 1_555
O3U Cu1E 1_555 1_555
O3Q C1Q 1_555 1_555
O3BA Cu1L 1_555 1_555
O3X C1X 1_555 1_555
O3E Cu1 1_555 1_555
O3P Cu1 1_555 1_555
O3T Cu1D 1_555 1_555
O3Y Cu1I 1_555 1_555
O3CA Cu1M 1_555 1_555
C1D O1D 1_555 1_555
C1I O1I 1_555 1_555
C1M O1M 1_555 1_555
C1U O1U 1_555 1_555
C1Q O1Q 1_555 1_555
C1BA O1BA 1_555 1_555
C1X O1X 1_555 1_555
C2D C1D 1_555 1_555
C2I C1I 1_555 1_555
C2M C1M 1_555 1_555
C2U C1U 1_555 1_555
C2Q C1Q 1_555 1_555
C2BA C1BA 1_555 1_555
C2X C1X 1_555 1_555
C3D C7D 1_555 1_555
C3I C7I 1_555 1_555
C3M C7M 1_555 1_555
C3U C7U 1_555 1_555
C3Q C7Q 1_555 1_555
C3BA C7BA 1_555 1_555
C3X C7X 1_555 1_555
C4D C2D 1_555 1_555
C4I C2I 1_555 1_555
C4M C2M 1_555 1_555
C4U C2U 1_555 1_555
C4Q C2Q 1_555 1_555
C4BA C2BA 1_555 1_555
C4X C2X 1_555 1_555
H1D C4D 1_555 1_555
H1I C4I 1_555 1_555
H1M C4M 1_555 1_555
H1U C4U 1_555 1_555
H1Q C4Q 1_555 1_555
H1BA C4BA 1_555 1_555
H1X C4X 1_555 1_555
C5D H2D 1_555 1_555
C5I H2I 1_555 1_555
C5M H2M 1_555 1_555
C5U H2U 1_555 1_555
C5Q H2Q 1_555 1_555
C5BA H2BA 1_555 1_555
C5X H2X 1_555 1_555
C6D C5D 1_555 1_555
C6I C5I 1_555 1_555
C6M C5M 1_555 1_555
C6U C5U 1_555 1_555
C6Q C5Q 1_555 1_555
C6BA C5BA 1_555 1_555
C6X C5X 1_555 1_555
C7D C9D 1_555 1_555
C7I C9I 1_555 1_555
C7M C9M 1_555 1_555
C7U C9U 1_555 1_555
C7Q C9Q 1_555 1_555
C7BA C9BA 1_555 1_555
C7X C9X 1_555 1_555
C8D C2D 1_555 1_555
C8I C2I 1_555 1_555
C8M C2M 1_555 1_555
C8U C2U 1_555 1_555
C8Q C2Q 1_555 1_555
C8BA C2BA 1_555 1_555
C8X C2X 1_555 1_555
H3D C8D 1_555 1_555
H3I C8I 1_555 1_555
H3M C8M 1_555 1_555
H3U C8U 1_555 1_555
H3Q C8Q 1_555 1_555
H3BA C8BA 1_555 1_555
H3X C8X 1_555 1_555
C9D H4D 1_555 1_555
C9I H4I 1_555 1_555
C9M H4M 1_555 1_555
C9U H4U 1_555 1_555
C9Q H4Q 1_555 1_555
C9BA H4BA 1_555 1_555
C9X H4X 1_555 1_555
O5D Cu1D 1_555 1_555
O5I Cu1I 1_555 1_555
O5M Cu1M 1_555 1_555
C10D C12D 1_555 1_555
C10I C12I 1_555 1_555
C10M C12M 1_555 1_555
C10U C12U 1_555 1_555
C10Q C12Q 1_555 1_555
C10BA C12BA 1_555 1_555
C10X C12X 1_555 1_555
C11D C11 1_555 1_555
C11I C3I 1_555 1_555
C11M C3M 1_555 1_555
C11U C3U 1_555 1_555
C11Q C3Q 1_555 1_555
C11BA C3BA 1_555 1_555
C11X C3X 1_555 1_555
O6D C17D 1_555 1_555
O6I Cu3 1_555 1_555
O6M C17M 1_555 1_555
O6U Cu3 1_555 1_555
O6Q Cu3D_2 1_555 1_555
O6BA Cu3 1_555 1_555
O6X Cu3D 1_555 1_555
O6M_2 Cu3D 1_555 1_555
O6Q_2 Cu3D 1_555 1_555
C12D C5D 1_555 1_555
C12I C5I 1_555 1_555
C12M C5M 1_555 1_555
C12U C5U 1_555 1_555
C12Q C5Q 1_555 1_555
C12BA C5BA 1_555 1_555
C12X C5X 1_555 1_555
O7D C6D 1_555 1_555
O7I C6I 1_555 1_555
O7M C6M 1_555 1_555
O7U C6U 1_555 1_555
O7Q C6Q 1_555 1_555
O7BA C6BA 1_555 1_555
O7X C6X 1_555 1_555
C13D C4D 1_555 1_555
C13I C4I 1_555 1_555
C13M C4M 1_555 1_555
C13U C4U 1_555 1_555
C13Q C4Q 1_555 1_555
C13BA C4BA 1_555 1_555
C13X C4X 1_555 1_555
H5D C13D 1_555 1_555
H5I C13I 1_555 1_555
H5M C13M 1_555 1_555
H5U C13U 1_555 1_555
H5Q C13Q 1_555 1_555
H5BA C13BA 1_555 1_555
H5X C13X 1_555 1_555
C14D C8D 1_555 1_555
C14I C8I 1_555 1_555
C14M C8M 1_555 1_555
C14U C8U 1_555 1_555
C14Q C8Q 1_555 1_555
C14BA C8BA 1_555 1_555
C14X C8X 1_555 1_555
H6D C14D 1_555 1_555
H6I C14I 1_555 1_555
H6M C14M 1_555 1_555
H6U C14U 1_555 1_555
H6Q C14Q 1_555 1_555
H6BA C14BA 1_555 1_555
H6X C14X 1_555 1_555
C15D C9D 1_555 1_555
C15I C9I 1_555 1_555
C15M C9M 1_555 1_555
C15U C9U 1_555 1_555
C15Q C9Q 1_555 1_555
C15BA C9BA 1_555 1_555
C15X C9X 1_555 1_555
C16D C3D 1_555 1_555
C16I C3I 1_555 1_555
C16M C3M 1_555 1_555
C16U C3U 1_555 1_555
C16Q C3Q 1_555 1_555
C16BA C3BA 1_555 1_555
C16X C3X 1_555 1_555
H7D C16D 1_555 1_555
H7I C16I 1_555 1_555
H7M C16M 1_555 1_555
H7U C16U 1_555 1_555
H7Q C16Q 1_555 1_555
H7BA C16BA 1_555 1_555
H7X C16X 1_555 1_555
C17D O2D 1_555 1_555
C17I O2I 1_555 1_555
C17M O2M 1_555 1_555
C17U O2U 1_555 1_555
C17Q O2Q 1_555 1_555
C17BA O2BA 1_555 1_555
C17X O2X 1_555 1_555
C18D H8D 1_555 1_555
C18I H8I 1_555 1_555
C18M H8M 1_555 1_555
C18U H8U 1_555 1_555
C18Q H8Q 1_555 1_555
C18BA H8BA 1_555 1_555
C18X H8X 1_555 1_555
C19D H9D 1_555 1_555
C19I H9I 1_555 1_555
C19M H9M 1_555 1_555
C19U H9U 1_555 1_555
C19Q H9Q 1_555 1_555
C19BA H9BA 1_555 1_555
C19X H9X 1_555 1_555
C20D C17D 1_555 1_555
C20I C17I 1_555 1_555
C20M C17M 1_555 1_555
C20U C17U 1_555 1_555
C20Q C17Q 1_555 1_555
C20BA C17BA 1_555 1_555
C20X C17X 1_555 1_555
C21D C15D 1_555 1_555
C21I C15I 1_555 1_555
C21M C15M 1_555 1_555
C21U C15U 1_555 1_555
C21Q C15Q 1_555 1_555
C21BA C15BA 1_555 1_555
C21X C15X 1_555 1_555
O8D Cu3D 1_555 1_555
C22D C15D 1_555 1_555
C22I C15I 1_555 1_555
C22M C15M 1_555 1_555
C22U C15U 1_555 1_555
C22Q C15Q 1_555 1_555
C22BA C15BA 1_555 1_555
C22X C15X 1_555 1_555
H10D C22D 1_555 1_555
H10I C22I 1_555 1_555
H10M C22M 1_555 1_555
H10U C22U 1_555 1_555
H10Q C22Q 1_555 1_555
H10BA C22BA 1_555 1_555
H10X C22X 1_555 1_555
C23D C19D 1_555 1_555
C23I C19I 1_555 1_555
C23M C19M 1_555 1_555
C23U C19U 1_555 1_555
C23Q C19Q 1_555 1_555
C23BA C19BA 1_555 1_555
C23X C19X 1_555 1_555
H11D C23D 1_555 1_555
H11I C23I 1_555 1_555
H11M C23M 1_555 1_555
H11U C23U 1_555 1_555
H11Q C23Q 1_555 1_555
H11BA C23BA 1_555 1_555
H11X C23X 1_555 1_555
C24D C18D 1_555 1_555
C24I C18I 1_555 1_555
C24M C18M 1_555 1_555
C24U C18U 1_555 1_555
C24Q C18Q 1_555 1_555
C24BA C18BA 1_555 1_555
C24X C18X 1_555 1_555
H12D C24D 1_555 1_555
H12I C24I 1_555 1_555
H12M C24M 1_555 1_555
H12U C24U 1_555 1_555
H12Q C24Q 1_555 1_555
H12BA C24BA 1_555 1_555
H12X C24X 1_555 1_555
C25D O7D 1_555 1_555
C25I O7I 1_555 1_555
C25M O7M 1_555 1_555
C25U O7U 1_555 1_555
C25Q O7Q 1_555 1_555
C25BA O7BA 1_555 1_555
C25X O7X 1_555 1_555
H13D C25D 1_555 1_555
H13I C25I 1_555 1_555
H13M C25M 1_555 1_555
H13U C25U 1_555 1_555
H13Q C25Q 1_555 1_555
H13BA C25BA 1_555 1_555
H13X C25X 1_555 1_555
H14D C25D 1_555 1_555
H14I C25I 1_555 1_555
H14M C25M 1_555 1_555
H14U C25U 1_555 1_555
H14Q C25Q 1_555 1_555
H14BA C25BA 1_555 1_555
H14X C25X 1_555 1_555
C26D C25D 1_555 1_555
C26I C25I 1_555 1_555
C26M C25M 1_555 1_555
C26U C25U 1_555 1_555
C26Q C25Q 1_555 1_555
C26BA C25BA 1_555 1_555
C26X C25X 1_555 1_555
H15D C26D 1_555 1_555
H15I C26I 1_555 1_555
H15M C26M 1_555 1_555
H15U C26U 1_555 1_555
H15Q C26Q 1_555 1_555
H15BA C26BA 1_555 1_555
H15X C26X 1_555 1_555
H16D C26D 1_555 1_555
H16I C26I 1_555 1_555
H16M C26M 1_555 1_555
H16U C26U 1_555 1_555
H16Q C26Q 1_555 1_555
H16BA C26BA 1_555 1_555
H16X C26X 1_555 1_555
H17D C26D 1_555 1_555
H17I C26I 1_555 1_555
H17M C26M 1_555 1_555
H17U C26U 1_555 1_555
H17Q C26Q 1_555 1_555
H17BA C26BA 1_555 1_555
H17X C26X 1_555 1_555
C27D O5D 1_555 1_555
C27I O5I 1_555 1_555
C27M O5M 1_555 1_555
N1D C27D 1_555 1_555
N1I C27I 1_555 1_555
N1M C27M 1_555 1_555
C28D N1D 1_555 1_555
C28I N1I 1_555 1_555
C28M N1M 1_555 1_555
C29D N1D 1_555 1_555
C29I N1I 1_555 1_555
C29M N1M 1_555 1_555
C30I O8 1_555 1_555
C30D O8D 1_555 1_555
C30M O8D 1_555 1_555
C31D N2D 1_555 1_555
C32I N2I 1_555 1_555
C32BA N2I 1_555 1_555
C32U N2 1_555 1_555
C32D N2D 1_555 1_555
C32M N2M 1_555 1_555
C32X N2M 1_555 1_555
C32Q N2D 1_555 1_555
N2I C31 1_555 1_555
N2D C30D 1_555 1_555
N2M C30M 1_555 1_555
C6 C11 1_555 1_555
C7 C12 1_555 1_555
C10 C13 1_555 1_555
C10 C14 1_555 1_555
C16 C22 1_555 1_555
C18 C21 1_555 1_555
C19 C21 1_555 1_555
C20 C23 1_555 1_555
C20 C24 1_555 1_555
O3U C1U 1_555 1_555
O3BA C1BA 1_555 1_555
C3D C11D 1_555 1_555
C6D C11D 1_555 1_555
C6I C11I 1_555 1_555
C6M C11M 1_555 1_555
C6U C11U 1_555 1_555
C6Q C11Q 1_555 1_555
C6BA C11BA 1_555 1_555
C6X C11X 1_555 1_555
C7D C12D 1_555 1_555
C7I C12I 1_555 1_555
C7M C12M 1_555 1_555
C7U C12U 1_555 1_555
C7Q C12Q 1_555 1_555
C7BA C12BA 1_555 1_555
C7X C12X 1_555 1_555
C10D C13D 1_555 1_555
C10D C14D 1_555 1_555
C10I C13I 1_555 1_555
C10I C14I 1_555 1_555
C10M C13M 1_555 1_555
C10M C14M 1_555 1_555
C10U C13U 1_555 1_555
C10U C14U 1_555 1_555
C10Q C13Q 1_555 1_555
C10Q C14Q 1_555 1_555
C10BA C13BA 1_555 1_555
C10BA C14BA 1_555 1_555
C10X C13X 1_555 1_555
C10X C14X 1_555 1_555
C11I C11M 1_555 1_555
C11U C11Q 1_555 1_555
C11BA C11X 1_555 1_555
O6I C17I 1_555 1_555
O6U C17U 1_555 1_555
O6Q C17Q 1_555 1_555
O6BA C17BA 1_555 1_555
O6X C17X 1_555 1_555
C16D C22D 1_555 1_555
C16I C22I 1_555 1_555
C16M C22M 1_555 1_555
C16U C22U 1_555 1_555
C16Q C22Q 1_555 1_555
C16BA C22BA 1_555 1_555
C16X C22X 1_555 1_555
C18D C21D 1_555 1_555
C18I C21I 1_555 1_555
C18M C21M 1_555 1_555
C18U C21U 1_555 1_555
C18Q C21Q 1_555 1_555
C18BA C21BA 1_555 1_555
C18X C21X 1_555 1_555
C19D C21D 1_555 1_555
C19I C21I 1_555 1_555
C19M C21M 1_555 1_555
C19U C21U 1_555 1_555
C19Q C21Q 1_555 1_555
C19BA C21BA 1_555 1_555
C19X C21X 1_555 1_555
C20D C23D 1_555 1_555
C20D C24D 1_555 1_555
C20I C23I 1_555 1_555
C20I C24I 1_555 1_555
C20M C23M 1_555 1_555
C20M C24M 1_555 1_555
C20U C23U 1_555 1_555
C20U C24U 1_555 1_555
C20Q C23Q 1_555 1_555
C20Q C24Q 1_555 1_555
C20BA C23BA 1_555 1_555
C20BA C24BA 1_555 1_555
C20X C23X 1_555 1_555
C20X C24X 1_555 1_555
C30I N2I 1_555 1_555
C31D N2M 1_555 1_555

#END
